
###############################################################################
#
# This file contains modified crystal structure data generated from the
# MOF subset of the Cambridge Structural Database (CSD) v543 
# hosted by the Cambridge Crystallographic Data Centre (CCDC).
#
# This work is licensed under the Creative Commons
# Attribution-NonCommercial-ShareAlike 4.0 International License.
# To view a copy of this license, visit
# http://creativecommons.org/licenses/by-nc-sa/4.0/
# or send a letter to
# Creative Commons, PO Box 1866, Mountain View, CA 94042, USA.
#
# CIF created using the CSD Python API on 29 September 2022
# The structure has been converted into the P1 space group
# The structure has a 3D framework
# The original CSD entry DIZQEL is in the orthorhombic crystal system
# The framework has been calculated to contain at least 10.0% void space
# The void calculation uses a probe of radius 1.32A, grid spacing 0.4
# The framework is charged, counterions have been retained in the structure
#
###############################################################################

data_DIZQEL
_chemical_formula_moiety         '(C320 H176 In8 N16 O60 8-)n'
_symmetry_cell_setting           triclinic
_symmetry_space_group_name_H-M   'P 1'
_symmetry_Int_Tables_number      1
_space_group_name_Hall           'P 1'
loop_
_symmetry_equiv_pos_site_id
_symmetry_equiv_pos_as_xyz
1 x,y,z
_cell_length_a                   32.3271(18)
_cell_length_b                   28.2199(14)
_cell_length_c                   19.6860(6)
_cell_angle_alpha                90
_cell_angle_beta                 90
_cell_angle_gamma                90
_cell_volume                     17958.9
loop_
_atom_site_label
_atom_site_type_symbol
_atom_site_fract_x
_atom_site_fract_y
_atom_site_fract_z
O5 O 0.48515(7) 0.57237(7) 0.06303(10)
O6 O 0.52625(7) 0.62614(10) 0.10523(12)
C21 C 0.51906(11) 0.59512(13) 0.06178(17)
C22 C 0.54925(9) 0.58496(12) 0.00654(15)
H15 H 0.588817 0.638512 0.026467
In2 In 0.45918(2) 0.60968(2) 0.15158(2)
O1 O 0.56046(7) 0.16926(8) 0.57376(13)
O2 O 0.53861(7) 0.18769(7) 0.67442(11)
O3 O 0.47201(8) 0.53532(8) 0.20812(11)
O4 O 0.49409(6) 0.60208(7) 0.24616(10)
O7 O 0.89863(6) 0.57903(7) 0.88132(10)
O8 O 0.90000(7) 0.61255(8) 0.78207(11)
N1 N 0.60494(11) 0.50681(11) 0.65420(13)
N2 N 0.63688(10) 0.49588(10) 0.67826(14)
C1 C 0.55160(10) 0.20007(11) 0.61766(19)
C2 C 0.55722(10) 0.25099(11) 0.60156(15)
C3 C 0.56784(12) 0.26642(11) 0.53684(16)
H1 H 0.571864 0.244475 0.502219
C4 C 0.57240(11) 0.31382(11) 0.52381(16)
H2 H 0.578926 0.323558 0.479973
C5 C 0.56756(10) 0.34756(10) 0.57411(14)
C6 C 0.55782(13) 0.33134(11) 0.63816(15)
H3 H 0.554598 0.353000 0.673373
C7 C 0.55280(12) 0.28429(12) 0.65102(15)
H4 H 0.546158 0.274633 0.694851
C8 C 0.57192(10) 0.39861(10) 0.56122(14)
C9 C 0.55848(10) 0.41986(10) 0.50131(13)
H5 H 0.548461 0.400531 0.466765
C10 C 0.55930(10) 0.46850(10) 0.49059(14)
C11 C 0.57507(11) 0.49602(11) 0.54332(15)
H6 H 0.575057 0.528866 0.539447
C12 C 0.59054(10) 0.47534(11) 0.60059(14)
C13 C 0.58945(10) 0.42735(11) 0.61027(14)
H7 H 0.600435 0.414141 0.649617
C14 C 0.49077(9) 0.55763(11) 0.25202(15)
C15 C 0.50900(9) 0.53406(10) 0.31254(14)
C16 C 0.50762(15) 0.48695(12) 0.3215(2)
H8 H 0.495132 0.468324 0.288306
C17 C 0.52418(16) 0.46504(13) 0.3784(2)
H9 H 0.522627 0.432263 0.382526
C18 C 0.54256(9) 0.49072(10) 0.42801(15)
C19 C 0.54295(13) 0.53807(12) 0.4193(2)
H10 H 0.554642 0.556946 0.452937
C20 C 0.52673(15) 0.55951(13) 0.36259(19)
H11 H 0.528010 0.592320 0.358663
C23 C 0.54366(10) 0.54747(12) 0.96269(19)
H12 H 0.520561 0.528169 0.967877
C24 C 0.57090(10) 0.53794(11) 0.91221(16)
H13 H 0.566252 0.512326 0.883485
C25 C 0.60560(9) 0.56599(11) 0.90296(14)
C26 C 0.61149(10) 0.60390(12) 0.94594(18)
H14 H 0.634353 0.623470 0.940006
C27 C 0.58407(11) 0.61312(13) 0.99738(19)
C28 C 0.64904(9) 0.52327(11) 0.73687(15)
C29 C 0.62130(9) 0.53423(10) 0.78786(14)
H16 H 0.593396 0.527066 0.782643
C30 C 0.63503(8) 0.55584(11) 0.84656(13)
C31 C 0.67687(9) 0.56693(11) 0.85182(14)
H17 H 0.686307 0.581817 0.891011
C32 C 0.70486(9) 0.55662(11) 0.80098(14)
C33 C 0.69085(9) 0.53427(11) 0.74308(15)
H18 H 0.709210 0.526597 0.708409
C34 C 0.74980(9) 0.56728(11) 0.80869(14)
C35 C 0.77292(9) 0.58508(12) 0.75425(15)
H19 H 0.759990 0.591515 0.713068
C36 C 0.81489(9) 0.59314(12) 0.76137(16)
H20 H 0.829780 0.605456 0.725007
C37 C 0.83512(8) 0.58321(10) 0.82162(14)
C38 C 0.81172(9) 0.56603(11) 0.87499(15)
H21 H 0.824641 0.559343 0.916089
C39 C 0.77014(9) 0.55862(12) 0.86898(15)
H22 H 0.755286 0.547535 0.906192
C40 C 0.88041(9) 0.59165(11) 0.82808(16)
In3 In 0.95918(2) 0.60968(2) 0.84842(2)
In4 In 0.54082(2) 0.10968(2) 0.65158(2)
O9 O 0.43954(7) 0.66926(8) 0.07376(13)
O10 O 0.46139(7) 0.68769(7) 0.17442(11)
O13 O 0.39863(6) 0.57903(7) 0.11868(10)
O14 O 0.40000(7) 0.61255(8) 0.21793(11)
In1 In 0.04082(2) 0.10968(2) 0.34842(2)
O3_2 O 0.02799(8) 0.03532(8) 0.29188(11)
O4_2 O 0.00591(6) 0.10208(7) 0.25384(10)
C14_2 C 0.00923(9) 0.05763(11) 0.24798(15)
O9_2 O 0.06046(7) 0.16926(8) 0.42624(13)
O10_2 O 0.03861(7) 0.18769(7) 0.32558(11)
O11 O 0.01485(7) 0.07237(7) 0.43697(10)
O13_2 O 0.10137(6) 0.07903(7) 0.38132(10)
O14_2 O 0.10000(7) 0.11255(8) 0.28207(11)
C15_2 C 0.99100(9) 0.03406(10) 0.18746(14)
C19_2 C 0.95705(13) 0.03807(12) 0.0807(2)
H10_2 H 0.945358 0.056946 0.047063
C20_2 C 0.97327(15) 0.05951(13) 0.13741(19)
H11_2 H 0.971990 0.092320 0.141337
O12 O 0.97375(7) 0.12614(10) 0.39477(12)
O7_2 O 0.60137(6) 0.07903(7) 0.61868(10)
O8_2 O 0.60000(7) 0.11255(8) 0.71793(11)
N1_2 N 0.89506(11) 0.00681(11) 0.84580(13)
H6_2 H 0.924943 0.028866 0.960553
C21_2 C 0.98094(11) 0.09512(13) 0.43822(17)
C22_2 C 0.95075(9) 0.08496(12) 0.49346(15)
C23_2 C 0.95634(10) 0.04747(12) 0.53731(19)
H12_2 H 0.979439 0.028169 0.532123
C24_2 C 0.92910(10) 0.03794(11) 0.58779(16)
H13_2 H 0.933748 0.012326 0.616515
C25_2 C 0.89440(9) 0.06599(11) 0.59704(14)
C26_2 C 0.88851(10) 0.10390(12) 0.55406(18)
H14_2 H 0.865647 0.123470 0.559994
C27_2 C 0.91593(11) 0.11312(13) 0.50262(19)
H15_2 H 0.911183 0.138512 0.473533
C28_2 C 0.85096(9) 0.02327(11) 0.76313(15)
C29_2 C 0.87870(9) 0.03423(10) 0.71214(14)
H16_2 H 0.906604 0.027066 0.717357
C30_2 C 0.86497(8) 0.05584(11) 0.65344(13)
C31_2 C 0.82313(9) 0.06693(11) 0.64818(14)
H17_2 H 0.813693 0.081817 0.608989
C32_2 C 0.79514(9) 0.05662(11) 0.69902(14)
C33_2 C 0.80915(9) 0.03427(11) 0.75692(15)
H18_2 H 0.790790 0.026597 0.791591
C34_2 C 0.75020(9) 0.06728(11) 0.69131(14)
C35_2 C 0.72708(9) 0.08508(12) 0.74575(15)
H19_2 H 0.740010 0.091515 0.786932
C36_2 C 0.68511(9) 0.09314(12) 0.73863(16)
H20_2 H 0.670220 0.105456 0.774993
C37_2 C 0.66488(8) 0.08321(10) 0.67838(14)
C38_2 C 0.68828(9) 0.06603(11) 0.62501(15)
H21_2 H 0.675359 0.059343 0.583911
C39_2 C 0.72986(9) 0.05862(12) 0.63102(15)
H22_2 H 0.744714 0.047535 0.593808
C40_2 C 0.61959(9) 0.09165(11) 0.67192(16)
O1_2 O 0.93954(7) 0.66926(8) 0.92624(13)
O2_2 O 0.96139(7) 0.68769(7) 0.82558(11)
N2_2 N 0.86312(10) 0.99588(10) 0.82174(14)
C1_2 C 0.94840(10) 0.70007(11) 0.88234(19)
C2_2 C 0.94278(10) 0.75099(11) 0.89844(15)
C3_2 C 0.93216(12) 0.76642(11) 0.96316(16)
H1_2 H 0.928136 0.744475 0.997781
C4_2 C 0.92760(11) 0.81382(11) 0.97619(16)
C5_2 C 0.93244(10) 0.84756(10) 0.92589(14)
C6_2 C 0.94218(13) 0.83134(11) 0.86184(15)
H3_2 H 0.945402 0.853000 0.826627
C7_2 C 0.94720(12) 0.78429(12) 0.84898(15)
H4_2 H 0.953842 0.774633 0.805149
C8_2 C 0.92808(10) 0.89861(10) 0.93878(14)
C9_2 C 0.94152(10) 0.91986(10) 0.99869(13)
C11_2 C 0.92493(11) 0.99602(11) 0.95668(15)
C12_2 C 0.90946(10) 0.97534(11) 0.89941(14)
C13_2 C 0.91055(10) 0.92735(11) 0.88973(14)
H7_2 H 0.899565 0.914141 0.850383
N1_3 N 0.10494(11) 0.50681(11) 0.34580(13)
N2_3 N 0.13688(10) 0.49588(10) 0.32174(14)
C1_3 C 0.05160(10) 0.20007(11) 0.38234(19)
C2_3 C 0.05722(10) 0.25099(11) 0.39844(15)
C3_3 C 0.06784(12) 0.26642(11) 0.46316(16)
H1_3 H 0.071864 0.244475 0.497781
C4_3 C 0.07240(11) 0.31382(11) 0.47619(16)
H2_2 H 0.078926 0.323558 0.520027
C5_3 C 0.06756(10) 0.34756(10) 0.42589(14)
C6_3 C 0.05782(13) 0.33134(11) 0.36184(15)
H3_3 H 0.054598 0.353000 0.326627
C7_3 C 0.05280(12) 0.28429(12) 0.34898(15)
H4_3 H 0.046158 0.274633 0.305149
C8_3 C 0.07192(10) 0.39861(10) 0.43878(14)
C9_3 C 0.05848(10) 0.41986(10) 0.49869(13)
H5_2 H 0.048461 0.400531 0.533235
C10_2 C 0.05930(10) 0.46850(10) 0.50941(14)
C11_3 C 0.07507(11) 0.49602(11) 0.45668(15)
H6_3 H 0.075057 0.528866 0.460553
C12_3 C 0.09054(10) 0.47534(11) 0.39941(14)
C13_3 C 0.08945(10) 0.42735(11) 0.38973(14)
H7_3 H 0.100435 0.414141 0.350383
C15_3 C 0.00900(9) 0.53406(10) 0.68746(14)
C16_2 C 0.00762(15) 0.48695(12) 0.6785(2)
C17_2 C 0.02418(16) 0.46504(13) 0.6216(2)
H9_2 H 0.022627 0.432263 0.617474
C18_2 C 0.04256(9) 0.49072(10) 0.57199(15)
C19_3 C 0.04295(13) 0.53807(12) 0.5807(2)
H10_3 H 0.054642 0.556946 0.547063
C20_3 C 0.02673(15) 0.55951(13) 0.63741(19)
H11_3 H 0.028010 0.592320 0.641337
C23_3 C 0.04366(10) 0.54747(12) 0.03731(19)
H12_3 H 0.020561 0.528169 0.032123
C24_3 C 0.07090(10) 0.53794(11) 0.08779(16)
H13_3 H 0.066252 0.512326 0.116515
C25_3 C 0.10560(9) 0.56599(11) 0.09704(14)
C26_3 C 0.11149(10) 0.60390(12) 0.05406(18)
H14_3 H 0.134353 0.623470 0.059994
C27_3 C 0.08407(11) 0.61312(13) 0.00262(19)
C28_3 C 0.14904(9) 0.52327(11) 0.26313(15)
C29_3 C 0.12130(9) 0.53423(10) 0.21214(14)
H16_3 H 0.093396 0.527066 0.217357
C30_3 C 0.13503(8) 0.55584(11) 0.15344(13)
C31_3 C 0.17687(9) 0.56693(11) 0.14818(14)
H17_3 H 0.186307 0.581817 0.108989
C32_3 C 0.20486(9) 0.55662(11) 0.19902(14)
C33_3 C 0.19085(9) 0.53427(11) 0.25692(15)
H18_3 H 0.209210 0.526597 0.291591
C34_3 C 0.24980(9) 0.56728(11) 0.19131(14)
C35_3 C 0.27292(9) 0.58508(12) 0.24575(15)
H19_3 H 0.259990 0.591515 0.286932
C36_3 C 0.31489(9) 0.59314(12) 0.23863(16)
H20_3 H 0.329780 0.605456 0.274993
C37_3 C 0.33512(8) 0.58321(10) 0.17838(14)
C38_3 C 0.31172(9) 0.56603(11) 0.12501(15)
H21_3 H 0.324641 0.559343 0.083911
C39_3 C 0.27014(9) 0.55862(12) 0.13102(15)
H22_3 H 0.255286 0.547535 0.093808
C40_3 C 0.38041(9) 0.59165(11) 0.17192(16)
O12_2 O 0.02625(7) 0.62614(10) 0.89477(12)
C21_3 C 0.01906(11) 0.59512(13) 0.93822(17)
C22_3 C 0.04925(9) 0.58496(12) 0.99346(15)
H15_3 H 0.088817 0.638512 0.973533
O3_3 O 0.97201(8) 0.53532(8) 0.79188(11)
O4_3 O 0.99409(6) 0.60208(7) 0.75384(10)
C14_3 C 0.99077(9) 0.55763(11) 0.74798(15)
H8_2 H 0.995132 0.468324 0.711694
O11_2 O 0.98515(7) 0.57237(7) 0.93697(10)
O5_2 O 0.51485(7) 0.07237(7) 0.56303(10)
O6_2 O 0.47375(7) 0.12614(10) 0.60523(12)
N1_4 N 0.39506(11) 0.00681(11) 0.15420(13)
H6_4 H 0.424943 0.028866 0.039447
C21_4 C 0.48094(11) 0.09512(13) 0.56178(17)
C22_4 C 0.45075(9) 0.08496(12) 0.50654(15)
C23_4 C 0.45634(10) 0.04747(12) 0.46269(19)
H12_4 H 0.479439 0.028169 0.467877
C24_4 C 0.42910(10) 0.03794(11) 0.41221(16)
H13_4 H 0.433748 0.012326 0.383485
C25_4 C 0.39440(9) 0.06599(11) 0.40296(14)
C26_4 C 0.38851(10) 0.10390(12) 0.44594(18)
H14_4 H 0.365647 0.123470 0.440006
C27_4 C 0.41593(11) 0.11312(13) 0.49738(19)
H15_4 H 0.411183 0.138512 0.526467
C28_4 C 0.35096(9) 0.02327(11) 0.23687(15)
C29_4 C 0.37870(9) 0.03423(10) 0.28786(14)
H16_4 H 0.406604 0.027066 0.282643
C30_4 C 0.36497(8) 0.05584(11) 0.34656(13)
C31_4 C 0.32313(9) 0.06693(11) 0.35182(14)
H17_4 H 0.313693 0.081817 0.391011
C32_4 C 0.29514(9) 0.05662(11) 0.30098(14)
C33_4 C 0.30915(9) 0.03427(11) 0.24308(15)
H18_4 H 0.290790 0.026597 0.208409
C34_4 C 0.25020(9) 0.06728(11) 0.30869(14)
C35_4 C 0.22708(9) 0.08508(12) 0.25425(15)
H19_4 H 0.240010 0.091515 0.213068
C36_4 C 0.18511(9) 0.09314(12) 0.26137(16)
H20_4 H 0.170220 0.105456 0.225007
C37_4 C 0.16488(8) 0.08321(10) 0.32162(14)
C38_4 C 0.18828(9) 0.06603(11) 0.37499(15)
H21_4 H 0.175359 0.059343 0.416089
C39_4 C 0.22986(9) 0.05862(12) 0.36898(15)
H22_4 H 0.244714 0.047535 0.406192
C40_4 C 0.11959(9) 0.09165(11) 0.32808(16)
O3_4 O 0.52799(8) 0.03532(8) 0.70812(11)
O4_4 O 0.50591(6) 0.10208(7) 0.74616(10)
C14_4 C 0.50923(9) 0.05763(11) 0.75202(15)
C15_4 C 0.49100(9) 0.03406(10) 0.81254(14)
C19_4 C 0.45705(13) 0.03807(12) 0.9193(2)
H10_4 H 0.445358 0.056946 0.952937
C20_4 C 0.47327(15) 0.05951(13) 0.86259(19)
H11_4 H 0.471990 0.092320 0.858663
N2_4 N 0.36312(10) 0.99588(10) 0.17826(14)
C1_4 C 0.44840(10) 0.70007(11) 0.11766(19)
C2_4 C 0.44278(10) 0.75099(11) 0.10156(15)
C3_4 C 0.43216(12) 0.76642(11) 0.03684(16)
H1_4 H 0.428136 0.744475 0.002219
C4_4 C 0.42760(11) 0.81382(11) 0.02381(16)
C5_4 C 0.43244(10) 0.84756(10) 0.07411(14)
C6_4 C 0.44218(13) 0.83134(11) 0.13816(15)
H3_4 H 0.445402 0.853000 0.173373
C7_4 C 0.44720(12) 0.78429(12) 0.15102(15)
H4_4 H 0.453842 0.774633 0.194851
C8_4 C 0.42808(10) 0.89861(10) 0.06122(14)
C9_4 C 0.44152(10) 0.91986(10) 0.00131(13)
C11_4 C 0.42493(11) 0.99602(11) 0.04332(15)
C12_4 C 0.40946(10) 0.97534(11) 0.10059(14)
C13_4 C 0.41055(10) 0.92735(11) 0.11027(14)
H7_4 H 0.399565 0.914141 0.149617
O5_3 O 0.01485(7) 0.42763(7) 0.06303(10)
In2_2 In 0.04082(2) 0.39032(2) 0.15158(2)
O3_5 O 0.02799(8) 0.46468(8) 0.20812(11)
O4_5 O 0.00591(6) 0.39792(7) 0.24616(10)
C14_5 C 0.00923(9) 0.44237(11) 0.25202(15)
H8_3 H 0.004868 0.531676 0.288306
O9_3 O 0.06046(7) 0.33074(8) 0.07376(13)
O10_3 O 0.03861(7) 0.31231(7) 0.17442(11)
O13_3 O 0.10137(6) 0.42097(7) 0.11868(10)
O14_3 O 0.10000(7) 0.38745(8) 0.21793(11)
O6_3 O 0.97375(7) 0.37386(10) 0.10523(12)
C21_5 C 0.98094(11) 0.40488(13) 0.06178(17)
C22_5 C 0.95075(9) 0.41504(12) 0.00654(15)
H15_5 H 0.911183 0.361488 0.026467
O1_3 O 0.93954(7) 0.83074(8) 0.57376(13)
O2_3 O 0.96139(7) 0.81231(7) 0.67442(11)
O7_3 O 0.60137(6) 0.42097(7) 0.88132(10)
O8_3 O 0.60000(7) 0.38745(8) 0.78207(11)
N1_5 N 0.89506(11) 0.49319(11) 0.65420(13)
N2_5 N 0.86312(10) 0.50412(10) 0.67826(14)
C1_5 C 0.94840(10) 0.79993(11) 0.61766(19)
C2_5 C 0.94278(10) 0.74901(11) 0.60156(15)
C3_5 C 0.93216(12) 0.73358(11) 0.53684(16)
H1_5 H 0.928136 0.755525 0.502219
C4_5 C 0.92760(11) 0.68618(11) 0.52381(16)
H2_3 H 0.921074 0.676442 0.479973
C5_5 C 0.93244(10) 0.65244(10) 0.57411(14)
C6_5 C 0.94218(13) 0.66866(11) 0.63816(15)
H3_5 H 0.945402 0.647000 0.673373
C7_5 C 0.94720(12) 0.71571(12) 0.65102(15)
H4_5 H 0.953842 0.725367 0.694851
C8_5 C 0.92808(10) 0.60139(10) 0.56122(14)
C9_5 C 0.94152(10) 0.58014(10) 0.50131(13)
H5_3 H 0.951539 0.599469 0.466765
C10_3 C 0.94070(10) 0.53150(10) 0.49059(14)
C11_5 C 0.92493(11) 0.50398(11) 0.54332(15)
H6_5 H 0.924943 0.471134 0.539447
C12_5 C 0.90946(10) 0.52466(11) 0.60059(14)
C13_5 C 0.91055(10) 0.57265(11) 0.61027(14)
H7_5 H 0.899565 0.585859 0.649617
C15_5 C 0.99100(9) 0.46594(10) 0.31254(14)
C16_3 C 0.99238(15) 0.51305(12) 0.3215(2)
C17_3 C 0.97582(16) 0.53496(13) 0.3784(2)
H9_3 H 0.977373 0.567737 0.382526
C18_3 C 0.95744(9) 0.50928(10) 0.42801(15)
C19_5 C 0.95705(13) 0.46193(12) 0.4193(2)
H10_5 H 0.945358 0.443054 0.452937
C20_5 C 0.97327(15) 0.44049(13) 0.36259(19)
H11_5 H 0.971990 0.407680 0.358663
C23_5 C 0.95634(10) 0.45253(12) 0.96269(19)
H12_5 H 0.979439 0.471831 0.967877
C24_5 C 0.92910(10) 0.46206(11) 0.91221(16)
H13_5 H 0.933748 0.487674 0.883485
C25_5 C 0.89440(9) 0.43401(11) 0.90296(14)
C26_5 C 0.88851(10) 0.39610(12) 0.94594(18)
H14_5 H 0.865647 0.376530 0.940006
C27_5 C 0.91593(11) 0.38688(13) 0.99738(19)
C28_5 C 0.85096(9) 0.47673(11) 0.73687(15)
C29_5 C 0.87870(9) 0.46577(10) 0.78786(14)
H16_5 H 0.906604 0.472934 0.782643
C30_5 C 0.86497(8) 0.44416(11) 0.84656(13)
C31_5 C 0.82313(9) 0.43307(11) 0.85182(14)
H17_5 H 0.813693 0.418183 0.891011
C32_5 C 0.79514(9) 0.44338(11) 0.80098(14)
C33_5 C 0.80915(9) 0.46573(11) 0.74308(15)
H18_5 H 0.790790 0.473403 0.708409
C34_5 C 0.75020(9) 0.43272(11) 0.80869(14)
C35_5 C 0.72708(9) 0.41492(12) 0.75425(15)
H19_5 H 0.740010 0.408485 0.713068
C36_5 C 0.68511(9) 0.40686(12) 0.76137(16)
H20_5 H 0.670220 0.394544 0.725007
C37_5 C 0.66488(8) 0.41679(10) 0.82162(14)
C38_5 C 0.68828(9) 0.43397(11) 0.87499(15)
H21_5 H 0.675359 0.440657 0.916089
C39_5 C 0.72986(9) 0.44138(12) 0.86898(15)
H22_5 H 0.744714 0.452465 0.906192
C40_5 C 0.61959(9) 0.40835(11) 0.82808(16)
In3_2 In 0.54082(2) 0.39032(2) 0.84842(2)
In4_2 In 0.95918(2) 0.89032(2) 0.65158(2)
O1_4 O 0.56046(7) 0.33074(8) 0.92624(13)
O2_4 O 0.53861(7) 0.31231(7) 0.82558(11)
N2_6 N 0.63688(10) 0.00412(10) 0.82174(14)
C1_6 C 0.55160(10) 0.29993(11) 0.88234(19)
C2_6 C 0.55722(10) 0.24901(11) 0.89844(15)
C3_6 C 0.56784(12) 0.23358(11) 0.96316(16)
H1_6 H 0.571864 0.255525 0.997781
C4_6 C 0.57240(11) 0.18618(11) 0.97619(16)
C5_6 C 0.56756(10) 0.15244(10) 0.92589(14)
C6_6 C 0.55782(13) 0.16866(11) 0.86184(15)
H3_6 H 0.554598 0.147000 0.826627
C7_6 C 0.55280(12) 0.21571(12) 0.84898(15)
H4_6 H 0.546158 0.225367 0.805149
C8_6 C 0.57192(10) 0.10139(10) 0.93878(14)
C9_6 C 0.55848(10) 0.08014(10) 0.99869(13)
C11_6 C 0.57507(11) 0.00398(11) 0.95668(15)
C12_6 C 0.59054(10) 0.02466(11) 0.89941(14)
C13_6 C 0.58945(10) 0.07265(11) 0.88973(14)
H7_6 H 0.600435 0.085859 0.850383
In1_2 In 0.45918(2) 0.89032(2) 0.34842(2)
O3_6 O 0.47201(8) 0.96468(8) 0.29188(11)
O4_6 O 0.49409(6) 0.89792(7) 0.25384(10)
C14_6 C 0.49077(9) 0.94237(11) 0.24798(15)
C15_6 C 0.50900(9) 0.96594(10) 0.18746(14)
C19_6 C 0.54295(13) 0.96193(12) 0.0807(2)
H10_6 H 0.554642 0.943054 0.047063
C20_6 C 0.52673(15) 0.94049(13) 0.13741(19)
H11_6 H 0.528010 0.907680 0.141337
O9_4 O 0.43954(7) 0.83074(8) 0.42624(13)
O10_4 O 0.46139(7) 0.81231(7) 0.32558(11)
O11_3 O 0.48515(7) 0.92763(7) 0.43697(10)
O12_3 O 0.52625(7) 0.87386(10) 0.39477(12)
O13_4 O 0.39863(6) 0.92097(7) 0.38132(10)
O14_4 O 0.40000(7) 0.88745(8) 0.28207(11)
O7_4 O 0.89863(6) 0.92097(7) 0.61868(10)
O8_4 O 0.90000(7) 0.88745(8) 0.71793(11)
N1_6 N 0.60494(11) 0.99319(11) 0.84580(13)
H6_6 H 0.575057 0.971134 0.960553
C21_6 C 0.51906(11) 0.90488(13) 0.43822(17)
C22_6 C 0.54925(9) 0.91504(12) 0.49346(15)
C23_6 C 0.54366(10) 0.95253(12) 0.53731(19)
H12_6 H 0.520561 0.971831 0.532123
C24_6 C 0.57090(10) 0.96206(11) 0.58779(16)
H13_6 H 0.566252 0.987674 0.616515
C25_6 C 0.60560(9) 0.93401(11) 0.59704(14)
C26_6 C 0.61149(10) 0.89610(12) 0.55406(18)
H14_6 H 0.634353 0.876530 0.559994
C27_6 C 0.58407(11) 0.88688(13) 0.50262(19)
H15_6 H 0.588817 0.861488 0.473533
C28_6 C 0.64904(9) 0.97673(11) 0.76313(15)
C29_6 C 0.62130(9) 0.96577(10) 0.71214(14)
H16_6 H 0.593396 0.972934 0.717357
C30_6 C 0.63503(8) 0.94416(11) 0.65344(13)
C31_6 C 0.67687(9) 0.93307(11) 0.64818(14)
H17_6 H 0.686307 0.918183 0.608989
C32_6 C 0.70486(9) 0.94338(11) 0.69902(14)
C33_6 C 0.69085(9) 0.96573(11) 0.75692(15)
H18_6 H 0.709210 0.973403 0.791591
C34_6 C 0.74980(9) 0.93272(11) 0.69131(14)
C35_6 C 0.77292(9) 0.91492(12) 0.74575(15)
H19_6 H 0.759990 0.908485 0.786932
C36_6 C 0.81489(9) 0.90686(12) 0.73863(16)
H20_6 H 0.829780 0.894544 0.774993
C37_6 C 0.83512(8) 0.91679(10) 0.67838(14)
C38_6 C 0.81172(9) 0.93397(11) 0.62501(15)
H21_6 H 0.824641 0.940657 0.583911
C39_6 C 0.77014(9) 0.94138(12) 0.63102(15)
H22_6 H 0.755286 0.952465 0.593808
C40_6 C 0.88041(9) 0.90835(11) 0.67192(16)
O3_7 O 0.52799(8) 0.46468(8) 0.79188(11)
O4_7 O 0.50591(6) 0.39792(7) 0.75384(10)
N1_7 N 0.39506(11) 0.49319(11) 0.34580(13)
N2_7 N 0.36312(10) 0.50412(10) 0.32174(14)
C1_7 C 0.44840(10) 0.79993(11) 0.38234(19)
C2_7 C 0.44278(10) 0.74901(11) 0.39844(15)
C3_7 C 0.43216(12) 0.73358(11) 0.46316(16)
H1_7 H 0.428136 0.755525 0.497781
C4_7 C 0.42760(11) 0.68618(11) 0.47619(16)
H2_4 H 0.421074 0.676442 0.520027
C5_7 C 0.43244(10) 0.65244(10) 0.42589(14)
C6_7 C 0.44218(13) 0.66866(11) 0.36184(15)
H3_7 H 0.445402 0.647000 0.326627
C7_7 C 0.44720(12) 0.71571(12) 0.34898(15)
H4_7 H 0.453842 0.725367 0.305149
C8_7 C 0.42808(10) 0.60139(10) 0.43878(14)
C9_7 C 0.44152(10) 0.58014(10) 0.49869(13)
H5_4 H 0.451539 0.599469 0.533235
C10_4 C 0.44070(10) 0.53150(10) 0.50941(14)
C11_7 C 0.42493(11) 0.50398(11) 0.45668(15)
H6_7 H 0.424943 0.471134 0.460553
C12_7 C 0.40946(10) 0.52466(11) 0.39941(14)
C13_7 C 0.41055(10) 0.57265(11) 0.38973(14)
H7_7 H 0.399565 0.585859 0.350383
C14_7 C 0.50923(9) 0.44237(11) 0.74798(15)
C15_7 C 0.49100(9) 0.46594(10) 0.68746(14)
C16_4 C 0.49238(15) 0.51305(12) 0.6785(2)
H8_4 H 0.504868 0.531676 0.711694
C17_4 C 0.47582(16) 0.53496(13) 0.6216(2)
H9_4 H 0.477373 0.567737 0.617474
C18_4 C 0.45744(9) 0.50928(10) 0.57199(15)
C19_7 C 0.45705(13) 0.46193(12) 0.5807(2)
H10_7 H 0.445358 0.443054 0.547063
C20_7 C 0.47327(15) 0.44049(13) 0.63741(19)
H11_7 H 0.471990 0.407680 0.641337
C23_7 C 0.45634(10) 0.45253(12) 0.03731(19)
H12_7 H 0.479439 0.471831 0.032123
C24_7 C 0.42910(10) 0.46206(11) 0.08779(16)
H13_7 H 0.433748 0.487674 0.116515
C25_7 C 0.39440(9) 0.43401(11) 0.09704(14)
C26_7 C 0.38851(10) 0.39610(12) 0.05406(18)
H14_7 H 0.365647 0.376530 0.059994
C27_7 C 0.41593(11) 0.38688(13) 0.00262(19)
C28_7 C 0.35096(9) 0.47673(11) 0.26313(15)
C29_7 C 0.37870(9) 0.46577(10) 0.21214(14)
H16_7 H 0.406604 0.472934 0.217357
C30_7 C 0.36497(8) 0.44416(11) 0.15344(13)
C31_7 C 0.32313(9) 0.43307(11) 0.14818(14)
H17_7 H 0.313693 0.418183 0.108989
C32_7 C 0.29514(9) 0.44338(11) 0.19902(14)
C33_7 C 0.30915(9) 0.46573(11) 0.25692(15)
H18_7 H 0.290790 0.473403 0.291591
C34_7 C 0.25020(9) 0.43272(11) 0.19131(14)
C35_7 C 0.22708(9) 0.41492(12) 0.24575(15)
H19_7 H 0.240010 0.408485 0.286932
C36_7 C 0.18511(9) 0.40686(12) 0.23863(16)
H20_7 H 0.170220 0.394544 0.274993
C37_7 C 0.16488(8) 0.41679(10) 0.17838(14)
C38_7 C 0.18828(9) 0.43397(11) 0.12501(15)
H21_7 H 0.175359 0.440657 0.083911
C39_7 C 0.22986(9) 0.44138(12) 0.13102(15)
H22_7 H 0.244714 0.452465 0.093808
C40_7 C 0.11959(9) 0.40835(11) 0.17192(16)
O11_4 O 0.51485(7) 0.42763(7) 0.93697(10)
O12_4 O 0.47375(7) 0.37386(10) 0.89477(12)
C21_7 C 0.48094(11) 0.40488(13) 0.93822(17)
C22_7 C 0.45075(9) 0.41504(12) 0.99346(15)
H15_7 H 0.411183 0.361488 0.973533
N2_8 N 0.13688(10) 0.00412(10) 0.17826(14)
C1_8 C 0.05160(10) 0.29993(11) 0.11766(19)
C2_8 C 0.05722(10) 0.24901(11) 0.10156(15)
C3_8 C 0.06784(12) 0.23358(11) 0.03684(16)
H1_8 H 0.071864 0.255525 0.002219
C4_8 C 0.07240(11) 0.18618(11) 0.02381(16)
C5_8 C 0.06756(10) 0.15244(10) 0.07411(14)
C6_8 C 0.05782(13) 0.16866(11) 0.13816(15)
H3_8 H 0.054598 0.147000 0.173373
C7_8 C 0.05280(12) 0.21571(12) 0.15102(15)
H4_8 H 0.046158 0.225367 0.194851
C8_8 C 0.07192(10) 0.10139(10) 0.06122(14)
C9_8 C 0.05848(10) 0.08014(10) 0.00131(13)
C11_8 C 0.07507(11) 0.00398(11) 0.04332(15)
C12_8 C 0.09054(10) 0.02466(11) 0.10059(14)
C13_8 C 0.08945(10) 0.07265(11) 0.11027(14)
H7_8 H 0.100435 0.085859 0.149617
O6_4 O 0.02625(7) 0.87386(10) 0.60523(12)
N1_8 N 0.10494(11) 0.99319(11) 0.15420(13)
H6_8 H 0.075057 0.971134 0.039447
C21_8 C 0.01906(11) 0.90488(13) 0.56178(17)
C22_8 C 0.04925(9) 0.91504(12) 0.50654(15)
C23_8 C 0.04366(10) 0.95253(12) 0.46269(19)
H12_8 H 0.020561 0.971831 0.467877
C24_8 C 0.07090(10) 0.96206(11) 0.41221(16)
H13_8 H 0.066252 0.987674 0.383485
C25_8 C 0.10560(9) 0.93401(11) 0.40296(14)
C26_8 C 0.11149(10) 0.89610(12) 0.44594(18)
H14_8 H 0.134353 0.876530 0.440006
C27_8 C 0.08407(11) 0.88688(13) 0.49738(19)
H15_8 H 0.088817 0.861488 0.526467
C28_8 C 0.14904(9) 0.97673(11) 0.23687(15)
C29_8 C 0.12130(9) 0.96577(10) 0.28786(14)
H16_8 H 0.093396 0.972934 0.282643
C30_8 C 0.13503(8) 0.94416(11) 0.34656(13)
C31_8 C 0.17687(9) 0.93307(11) 0.35182(14)
H17_8 H 0.186307 0.918183 0.391011
C32_8 C 0.20486(9) 0.94338(11) 0.30098(14)
C33_8 C 0.19085(9) 0.96573(11) 0.24308(15)
H18_8 H 0.209210 0.973403 0.208409
C34_8 C 0.24980(9) 0.93272(11) 0.30869(14)
C35_8 C 0.27292(9) 0.91492(12) 0.25425(15)
H19_8 H 0.259990 0.908485 0.213068
C36_8 C 0.31489(9) 0.90686(12) 0.26137(16)
H20_8 H 0.329780 0.894544 0.225007
C37_8 C 0.33512(8) 0.91679(10) 0.32162(14)
C38_8 C 0.31172(9) 0.93397(11) 0.37499(15)
H21_8 H 0.324641 0.940657 0.416089
C39_8 C 0.27014(9) 0.94138(12) 0.36898(15)
H22_8 H 0.255286 0.952465 0.406192
C40_8 C 0.38041(9) 0.90835(11) 0.32808(16)
C15_8 C 0.00900(9) 0.96594(10) 0.81254(14)
C19_8 C 0.04295(13) 0.96193(12) 0.9193(2)
H10_8 H 0.054642 0.943054 0.952937
C20_8 C 0.02673(15) 0.94049(13) 0.86259(19)
H11_8 H 0.028010 0.907680 0.858663
O5_4 O 0.98515(7) 0.92763(7) 0.56303(10)
O3_8 O 0.97201(8) 0.96468(8) 0.70812(11)
O4_8 O 0.99409(6) 0.89792(7) 0.74616(10)
C14_8 C 0.99077(9) 0.94237(11) 0.75202(15)
H2_5 H 0.578926 0.176442 0.020027
H5_5 H 0.548461 0.099469 0.033235
C10_5 C 0.55930(10) 0.03150(10) 0.00941(14)
C16_5 C 0.50762(15) 0.01305(12) 0.1785(2)
H8_5 H 0.495132 0.031676 0.211694
C17_5 C 0.52418(16) 0.03496(13) 0.1216(2)
H9_5 H 0.522627 0.067737 0.117474
C18_5 C 0.54256(9) 0.00928(10) 0.07199(15)
H8_6 H 0.004868 0.968324 0.211694
H2_6 H 0.921074 0.823558 0.020027
H5_6 H 0.951539 0.900531 0.033235
C10_6 C 0.94070(10) 0.96850(10) 0.00941(14)
C16_6 C 0.99238(15) 0.98695(12) 0.1785(2)
C17_6 C 0.97582(16) 0.96504(13) 0.1216(2)
H9_6 H 0.977373 0.932263 0.117474
C18_6 C 0.95744(9) 0.99072(10) 0.07199(15)
H2_7 H 0.421074 0.823558 0.979973
H5_7 H 0.451539 0.900531 0.966765
C10_7 C 0.44070(10) 0.96850(10) 0.99059(14)
C16_7 C 0.49238(15) 0.98695(12) 0.8215(2)
H8_7 H 0.504868 0.968324 0.788306
C17_7 C 0.47582(16) 0.96504(13) 0.8784(2)
H9_7 H 0.477373 0.932263 0.882526
C18_7 C 0.45744(9) 0.99072(10) 0.92801(15)
H2_8 H 0.078926 0.176442 0.979973
H5_8 H 0.048461 0.099469 0.966765
C10_8 C 0.05930(10) 0.03150(10) 0.99059(14)
C16_8 C 0.00762(15) 0.01305(12) 0.8215(2)
C17_8 C 0.02418(16) 0.03496(13) 0.8784(2)
H9_8 H 0.022627 0.067737 0.882526
C18_8 C 0.04256(9) 0.00928(10) 0.92801(15)
H8_8 H 0.995132 0.031676 0.788306
loop_
_geom_bond_atom_site_label_1
_geom_bond_atom_site_label_2
_geom_bond_site_symmetry_1
_geom_bond_site_symmetry_2
O5 C21 1_555 1_555
O6 C21 1_555 1_555
C21 C22 1_555 1_555
In2 O5 1_555 1_555
O6 In2 1_555 1_555
In2 O3 1_555 1_555
O1 C1 1_555 1_555
O2 C1 1_555 1_555
O3 C14 1_555 1_555
O4 In2 1_555 1_555
O7 C40 1_555 1_555
O8 C40 1_555 1_555
N1 N2 1_555 1_555
N2 C28 1_555 1_555
C1 C2 1_555 1_555
C2 C3 1_555 1_555
C3 H1 1_555 1_555
C4 C3 1_555 1_555
H2 C4 1_555 1_555
C5 C4 1_555 1_555
C6 C5 1_555 1_555
H3 C6 1_555 1_555
C7 C2 1_555 1_555
H4 C7 1_555 1_555
C8 C5 1_555 1_555
C9 C8 1_555 1_555
H5 C9 1_555 1_555
C10 C9 1_555 1_555
C11 C10 1_555 1_555
H6 C11 1_555 1_555
C12 N1 1_555 1_555
C13 C8 1_555 1_555
H7 C13 1_555 1_555
C14 O4 1_555 1_555
C15 C14 1_555 1_555
C16 C15 1_555 1_555
H8 C16 1_555 1_555
C17 C16 1_555 1_555
H9 C17 1_555 1_555
C18 C10 1_555 1_555
C19 C18 1_555 1_555
H10 C19 1_555 1_555
C20 C15 1_555 1_555
H11 C20 1_555 1_555
C23 H12 1_555 1_555
C24 C23 1_555 1_555
H13 C24 1_555 1_555
C25 C24 1_555 1_555
C26 C25 1_555 1_555
H14 C26 1_555 1_555
C28 C29 1_555 1_555
C29 H16 1_555 1_555
C30 C25 1_555 1_555
C31 C30 1_555 1_555
H17 C31 1_555 1_555
C32 C31 1_555 1_555
C33 C28 1_555 1_555
H18 C33 1_555 1_555
C34 C32 1_555 1_555
C35 C34 1_555 1_555
H19 C35 1_555 1_555
C36 C35 1_555 1_555
H20 C36 1_555 1_555
C37 C36 1_555 1_555
C38 C37 1_555 1_555
H21 C38 1_555 1_555
C39 C34 1_555 1_555
H22 C39 1_555 1_555
C40 C37 1_555 1_555
In3 O7 1_555 1_555
In4 O1 1_555 1_555
O9 In2 1_555 1_555
O10 In2 1_555 1_555
O13 In2 1_555 1_555
O14 In2 1_555 1_555
O2 In4 1_555 1_555
O8 In3 1_555 1_555
C6 C7 1_555 1_555
C11 C12 1_555 1_555
C12 C13 1_555 1_555
C17 C18 1_555 1_555
C19 C20 1_555 1_555
C26 C27 1_555 1_555
C29 C30 1_555 1_555
C32 C33 1_555 1_555
C38 C39 1_555 1_555
In1 O3_2 1_555 1_555
O3_2 C14_2 1_555 1_555
O4_2 In1 1_555 1_555
C14_2 O4_2 1_555 1_555
O9_2 In1 1_555 1_555
O10_2 In1 1_555 1_555
O11 In1 1_555 1_555
O13_2 In1 1_555 1_555
O14_2 In1 1_555 1_555
H10_2 C19_2 1_555 1_555
C20_2 C15_2 1_555 1_555
H11_2 C20_2 1_555 1_555
C19_2 C20_2 1_555 1_555
O12 C21_2 1_555 1_555
O7_2 C40_2 1_555 1_555
O8_2 C40_2 1_555 1_555
C21_2 C22_2 1_555 1_555
C22_2 C23_2 1_555 1_555
C23_2 H12_2 1_555 1_555
C24_2 C23_2 1_555 1_555
H13_2 C24_2 1_555 1_555
C25_2 C24_2 1_555 1_555
C26_2 C25_2 1_555 1_555
H14_2 C26_2 1_555 1_555
C27_2 C22_2 1_555 1_555
H15_2 C27_2 1_555 1_555
C28_2 C29_2 1_555 1_555
C29_2 H16_2 1_555 1_555
C30_2 C25_2 1_555 1_555
C31_2 C30_2 1_555 1_555
H17_2 C31_2 1_555 1_555
C32_2 C31_2 1_555 1_555
C33_2 C28_2 1_555 1_555
H18_2 C33_2 1_555 1_555
C34_2 C32_2 1_555 1_555
C35_2 C34_2 1_555 1_555
H19_2 C35_2 1_555 1_555
C36_2 C35_2 1_555 1_555
H20_2 C36_2 1_555 1_555
C37_2 C36_2 1_555 1_555
C38_2 C37_2 1_555 1_555
H21_2 C38_2 1_555 1_555
C39_2 C34_2 1_555 1_555
H22_2 C39_2 1_555 1_555
C40_2 C37_2 1_555 1_555
In4 O7_2 1_555 1_555
O8_2 In4 1_555 1_555
C26_2 C27_2 1_555 1_555
C29_2 C30_2 1_555 1_555
C32_2 C33_2 1_555 1_555
C38_2 C39_2 1_555 1_555
O1_2 C1_2 1_555 1_555
O2_2 C1_2 1_555 1_555
C1_2 C2_2 1_555 1_555
C2_2 C3_2 1_555 1_555
C3_2 H1_2 1_555 1_555
C4_2 C3_2 1_555 1_555
C5_2 C4_2 1_555 1_555
C6_2 C5_2 1_555 1_555
H3_2 C6_2 1_555 1_555
C7_2 C2_2 1_555 1_555
H4_2 C7_2 1_555 1_555
C8_2 C5_2 1_555 1_555
C9_2 C8_2 1_555 1_555
C13_2 C8_2 1_555 1_555
H7_2 C13_2 1_555 1_555
In3 O1_2 1_555 1_555
O2_2 In3 1_555 1_555
C6_2 C7_2 1_555 1_555
C11_2 C12_2 1_555 1_555
C12_2 C13_2 1_555 1_555
O9_2 C1_3 1_555 1_555
O10_2 C1_3 1_555 1_555
O13 C40_3 1_555 1_555
O14 C40_3 1_555 1_555
N1_3 N2_3 1_555 1_555
N2_3 C28_3 1_555 1_555
C1_3 C2_3 1_555 1_555
C2_3 C3_3 1_555 1_555
C3_3 H1_3 1_555 1_555
C4_3 C3_3 1_555 1_555
H2_2 C4_3 1_555 1_555
C5_3 C4_3 1_555 1_555
C6_3 C5_3 1_555 1_555
H3_3 C6_3 1_555 1_555
C7_3 C2_3 1_555 1_555
H4_3 C7_3 1_555 1_555
C8_3 C5_3 1_555 1_555
C9_3 C8_3 1_555 1_555
H5_2 C9_3 1_555 1_555
C10_2 C9_3 1_555 1_555
C11_3 C10_2 1_555 1_555
H6_3 C11_3 1_555 1_555
C12_3 N1_3 1_555 1_555
C13_3 C8_3 1_555 1_555
H7_3 C13_3 1_555 1_555
C16_2 C15_3 1_555 1_555
C17_2 C16_2 1_555 1_555
H9_2 C17_2 1_555 1_555
C18_2 C10_2 1_555 1_555
C19_3 C18_2 1_555 1_555
H10_3 C19_3 1_555 1_555
C20_3 C15_3 1_555 1_555
H11_3 C20_3 1_555 1_555
C23_3 H12_3 1_555 1_555
C24_3 C23_3 1_555 1_555
H13_3 C24_3 1_555 1_555
C25_3 C24_3 1_555 1_555
C26_3 C25_3 1_555 1_555
H14_3 C26_3 1_555 1_555
C28_3 C29_3 1_555 1_555
C29_3 H16_3 1_555 1_555
C30_3 C25_3 1_555 1_555
C31_3 C30_3 1_555 1_555
H17_3 C31_3 1_555 1_555
C32_3 C31_3 1_555 1_555
C33_3 C28_3 1_555 1_555
H18_3 C33_3 1_555 1_555
C34_3 C32_3 1_555 1_555
C35_3 C34_3 1_555 1_555
H19_3 C35_3 1_555 1_555
C36_3 C35_3 1_555 1_555
H20_3 C36_3 1_555 1_555
C37_3 C36_3 1_555 1_555
C38_3 C37_3 1_555 1_555
H21_3 C38_3 1_555 1_555
C39_3 C34_3 1_555 1_555
H22_3 C39_3 1_555 1_555
C40_3 C37_3 1_555 1_555
C6_3 C7_3 1_555 1_555
C11_3 C12_3 1_555 1_555
C12_3 C13_3 1_555 1_555
C17_2 C18_2 1_555 1_555
C19_3 C20_3 1_555 1_555
C26_3 C27_3 1_555 1_555
C29_3 C30_3 1_555 1_555
C32_3 C33_3 1_555 1_555
C38_3 C39_3 1_555 1_555
O12_2 C21_3 1_555 1_555
C21_3 C22_3 1_555 1_555
In3 O3_3 1_555 1_555
O3_3 C14_3 1_555 1_555
O4_3 In3 1_555 1_555
C14_3 O4_3 1_555 1_555
O11_2 In3 1_555 1_555
O5_2 C21_4 1_555 1_555
O6_2 C21_4 1_555 1_555
O13_2 C40_4 1_555 1_555
O14_2 C40_4 1_555 1_555
C21_4 C22_4 1_555 1_555
C22_4 C23_4 1_555 1_555
C23_4 H12_4 1_555 1_555
C24_4 C23_4 1_555 1_555
H13_4 C24_4 1_555 1_555
C25_4 C24_4 1_555 1_555
C26_4 C25_4 1_555 1_555
H14_4 C26_4 1_555 1_555
C27_4 C22_4 1_555 1_555
H15_4 C27_4 1_555 1_555
C28_4 C29_4 1_555 1_555
C29_4 H16_4 1_555 1_555
C30_4 C25_4 1_555 1_555
C31_4 C30_4 1_555 1_555
H17_4 C31_4 1_555 1_555
C32_4 C31_4 1_555 1_555
C33_4 C28_4 1_555 1_555
H18_4 C33_4 1_555 1_555
C34_4 C32_4 1_555 1_555
C35_4 C34_4 1_555 1_555
H19_4 C35_4 1_555 1_555
C36_4 C35_4 1_555 1_555
H20_4 C36_4 1_555 1_555
C37_4 C36_4 1_555 1_555
C38_4 C37_4 1_555 1_555
H21_4 C38_4 1_555 1_555
C39_4 C34_4 1_555 1_555
H22_4 C39_4 1_555 1_555
C40_4 C37_4 1_555 1_555
In4 O5_2 1_555 1_555
O6_2 In4 1_555 1_555
C26_4 C27_4 1_555 1_555
C29_4 C30_4 1_555 1_555
C32_4 C33_4 1_555 1_555
C38_4 C39_4 1_555 1_555
In4 O3_4 1_555 1_555
O3_4 C14_4 1_555 1_555
O4_4 In4 1_555 1_555
C14_4 O4_4 1_555 1_555
C15_4 C14_4 1_555 1_555
H10_4 C19_4 1_555 1_555
C20_4 C15_4 1_555 1_555
H11_4 C20_4 1_555 1_555
C19_4 C20_4 1_555 1_555
O9 C1_4 1_555 1_555
O10 C1_4 1_555 1_555
C1_4 C2_4 1_555 1_555
C2_4 C3_4 1_555 1_555
C3_4 H1_4 1_555 1_555
C4_4 C3_4 1_555 1_555
C5_4 C4_4 1_555 1_555
C6_4 C5_4 1_555 1_555
H3_4 C6_4 1_555 1_555
C7_4 C2_4 1_555 1_555
H4_4 C7_4 1_555 1_555
C8_4 C5_4 1_555 1_555
C9_4 C8_4 1_555 1_555
C13_4 C8_4 1_555 1_555
H7_4 C13_4 1_555 1_555
C6_4 C7_4 1_555 1_555
C11_4 C12_4 1_555 1_555
C12_4 C13_4 1_555 1_555
In2_2 O5_3 1_555 1_555
In2_2 O3_5 1_555 1_555
O3_5 C14_5 1_555 1_555
O4_5 In2_2 1_555 1_555
C14_5 O4_5 1_555 1_555
O9_3 In2_2 1_555 1_555
O10_3 In2_2 1_555 1_555
O13_3 In2_2 1_555 1_555
O14_3 In2_2 1_555 1_555
O6_3 C21_5 1_555 1_555
C21_5 C22_5 1_555 1_555
O1_3 C1_5 1_555 1_555
O2_3 C1_5 1_555 1_555
O7_3 C40_5 1_555 1_555
O8_3 C40_5 1_555 1_555
N1_5 N2_5 1_555 1_555
N2_5 C28_5 1_555 1_555
C1_5 C2_5 1_555 1_555
C2_5 C3_5 1_555 1_555
C3_5 H1_5 1_555 1_555
C4_5 C3_5 1_555 1_555
H2_3 C4_5 1_555 1_555
C5_5 C4_5 1_555 1_555
C6_5 C5_5 1_555 1_555
H3_5 C6_5 1_555 1_555
C7_5 C2_5 1_555 1_555
H4_5 C7_5 1_555 1_555
C8_5 C5_5 1_555 1_555
C9_5 C8_5 1_555 1_555
H5_3 C9_5 1_555 1_555
C10_3 C9_5 1_555 1_555
C11_5 C10_3 1_555 1_555
H6_5 C11_5 1_555 1_555
C12_5 N1_5 1_555 1_555
C13_5 C8_5 1_555 1_555
H7_5 C13_5 1_555 1_555
C16_3 C15_5 1_555 1_555
C17_3 C16_3 1_555 1_555
H9_3 C17_3 1_555 1_555
C18_3 C10_3 1_555 1_555
C19_5 C18_3 1_555 1_555
H10_5 C19_5 1_555 1_555
C20_5 C15_5 1_555 1_555
H11_5 C20_5 1_555 1_555
C23_5 H12_5 1_555 1_555
C24_5 C23_5 1_555 1_555
H13_5 C24_5 1_555 1_555
C25_5 C24_5 1_555 1_555
C26_5 C25_5 1_555 1_555
H14_5 C26_5 1_555 1_555
C28_5 C29_5 1_555 1_555
C29_5 H16_5 1_555 1_555
C30_5 C25_5 1_555 1_555
C31_5 C30_5 1_555 1_555
H17_5 C31_5 1_555 1_555
C32_5 C31_5 1_555 1_555
C33_5 C28_5 1_555 1_555
H18_5 C33_5 1_555 1_555
C34_5 C32_5 1_555 1_555
C35_5 C34_5 1_555 1_555
H19_5 C35_5 1_555 1_555
C36_5 C35_5 1_555 1_555
H20_5 C36_5 1_555 1_555
C37_5 C36_5 1_555 1_555
C38_5 C37_5 1_555 1_555
H21_5 C38_5 1_555 1_555
C39_5 C34_5 1_555 1_555
H22_5 C39_5 1_555 1_555
C40_5 C37_5 1_555 1_555
In3_2 O7_3 1_555 1_555
In4_2 O1_3 1_555 1_555
O2_3 In4_2 1_555 1_555
O8_3 In3_2 1_555 1_555
C6_5 C7_5 1_555 1_555
C11_5 C12_5 1_555 1_555
C12_5 C13_5 1_555 1_555
C17_3 C18_3 1_555 1_555
C19_5 C20_5 1_555 1_555
C26_5 C27_5 1_555 1_555
C29_5 C30_5 1_555 1_555
C32_5 C33_5 1_555 1_555
C38_5 C39_5 1_555 1_555
O1_4 C1_6 1_555 1_555
O2_4 C1_6 1_555 1_555
C1_6 C2_6 1_555 1_555
C2_6 C3_6 1_555 1_555
C3_6 H1_6 1_555 1_555
C4_6 C3_6 1_555 1_555
C5_6 C4_6 1_555 1_555
C6_6 C5_6 1_555 1_555
H3_6 C6_6 1_555 1_555
C7_6 C2_6 1_555 1_555
H4_6 C7_6 1_555 1_555
C8_6 C5_6 1_555 1_555
C9_6 C8_6 1_555 1_555
C13_6 C8_6 1_555 1_555
H7_6 C13_6 1_555 1_555
In3_2 O1_4 1_555 1_555
O2_4 In3_2 1_555 1_555
C6_6 C7_6 1_555 1_555
C11_6 C12_6 1_555 1_555
C12_6 C13_6 1_555 1_555
In1_2 O3_6 1_555 1_555
O3_6 C14_6 1_555 1_555
O4_6 In1_2 1_555 1_555
C14_6 O4_6 1_555 1_555
C15_6 C14_6 1_555 1_555
H10_6 C19_6 1_555 1_555
C20_6 C15_6 1_555 1_555
H11_6 C20_6 1_555 1_555
O9_4 In1_2 1_555 1_555
O10_4 In1_2 1_555 1_555
O11_3 In1_2 1_555 1_555
O12_3 In1_2 1_555 1_555
O13_4 In1_2 1_555 1_555
O14_4 In1_2 1_555 1_555
C19_6 C20_6 1_555 1_555
O11_3 C21_6 1_555 1_555
O12_3 C21_6 1_555 1_555
O7_4 C40_6 1_555 1_555
O8_4 C40_6 1_555 1_555
C21_6 C22_6 1_555 1_555
C22_6 C23_6 1_555 1_555
C23_6 H12_6 1_555 1_555
C24_6 C23_6 1_555 1_555
H13_6 C24_6 1_555 1_555
C25_6 C24_6 1_555 1_555
C26_6 C25_6 1_555 1_555
H14_6 C26_6 1_555 1_555
C27_6 C22_6 1_555 1_555
H15_6 C27_6 1_555 1_555
C28_6 C29_6 1_555 1_555
C29_6 H16_6 1_555 1_555
C30_6 C25_6 1_555 1_555
C31_6 C30_6 1_555 1_555
H17_6 C31_6 1_555 1_555
C32_6 C31_6 1_555 1_555
C33_6 C28_6 1_555 1_555
H18_6 C33_6 1_555 1_555
C34_6 C32_6 1_555 1_555
C35_6 C34_6 1_555 1_555
H19_6 C35_6 1_555 1_555
C36_6 C35_6 1_555 1_555
H20_6 C36_6 1_555 1_555
C37_6 C36_6 1_555 1_555
C38_6 C37_6 1_555 1_555
H21_6 C38_6 1_555 1_555
C39_6 C34_6 1_555 1_555
H22_6 C39_6 1_555 1_555
C40_6 C37_6 1_555 1_555
In4_2 O7_4 1_555 1_555
O8_4 In4_2 1_555 1_555
C26_6 C27_6 1_555 1_555
C29_6 C30_6 1_555 1_555
C32_6 C33_6 1_555 1_555
C38_6 C39_6 1_555 1_555
In3_2 O3_7 1_555 1_555
O9_4 C1_7 1_555 1_555
O10_4 C1_7 1_555 1_555
O3_7 C14_7 1_555 1_555
O4_7 In3_2 1_555 1_555
O13_3 C40_7 1_555 1_555
O14_3 C40_7 1_555 1_555
N1_7 N2_7 1_555 1_555
N2_7 C28_7 1_555 1_555
C1_7 C2_7 1_555 1_555
C2_7 C3_7 1_555 1_555
C3_7 H1_7 1_555 1_555
C4_7 C3_7 1_555 1_555
H2_4 C4_7 1_555 1_555
C5_7 C4_7 1_555 1_555
C6_7 C5_7 1_555 1_555
H3_7 C6_7 1_555 1_555
C7_7 C2_7 1_555 1_555
H4_7 C7_7 1_555 1_555
C8_7 C5_7 1_555 1_555
C9_7 C8_7 1_555 1_555
H5_4 C9_7 1_555 1_555
C10_4 C9_7 1_555 1_555
C11_7 C10_4 1_555 1_555
H6_7 C11_7 1_555 1_555
C12_7 N1_7 1_555 1_555
C13_7 C8_7 1_555 1_555
H7_7 C13_7 1_555 1_555
C14_7 O4_7 1_555 1_555
C15_7 C14_7 1_555 1_555
C16_4 C15_7 1_555 1_555
H8_4 C16_4 1_555 1_555
C17_4 C16_4 1_555 1_555
H9_4 C17_4 1_555 1_555
C18_4 C10_4 1_555 1_555
C19_7 C18_4 1_555 1_555
H10_7 C19_7 1_555 1_555
C20_7 C15_7 1_555 1_555
H11_7 C20_7 1_555 1_555
C23_7 H12_7 1_555 1_555
C24_7 C23_7 1_555 1_555
H13_7 C24_7 1_555 1_555
C25_7 C24_7 1_555 1_555
C26_7 C25_7 1_555 1_555
H14_7 C26_7 1_555 1_555
C28_7 C29_7 1_555 1_555
C29_7 H16_7 1_555 1_555
C30_7 C25_7 1_555 1_555
C31_7 C30_7 1_555 1_555
H17_7 C31_7 1_555 1_555
C32_7 C31_7 1_555 1_555
C33_7 C28_7 1_555 1_555
H18_7 C33_7 1_555 1_555
C34_7 C32_7 1_555 1_555
C35_7 C34_7 1_555 1_555
H19_7 C35_7 1_555 1_555
C36_7 C35_7 1_555 1_555
H20_7 C36_7 1_555 1_555
C37_7 C36_7 1_555 1_555
C38_7 C37_7 1_555 1_555
H21_7 C38_7 1_555 1_555
C39_7 C34_7 1_555 1_555
H22_7 C39_7 1_555 1_555
C40_7 C37_7 1_555 1_555
O11_4 In3_2 1_555 1_555
O12_4 In3_2 1_555 1_555
C6_7 C7_7 1_555 1_555
C11_7 C12_7 1_555 1_555
C12_7 C13_7 1_555 1_555
C17_4 C18_4 1_555 1_555
C19_7 C20_7 1_555 1_555
C26_7 C27_7 1_555 1_555
C29_7 C30_7 1_555 1_555
C32_7 C33_7 1_555 1_555
C38_7 C39_7 1_555 1_555
O11_4 C21_7 1_555 1_555
O12_4 C21_7 1_555 1_555
C21_7 C22_7 1_555 1_555
O9_3 C1_8 1_555 1_555
O10_3 C1_8 1_555 1_555
C1_8 C2_8 1_555 1_555
C2_8 C3_8 1_555 1_555
C3_8 H1_8 1_555 1_555
C4_8 C3_8 1_555 1_555
C5_8 C4_8 1_555 1_555
C6_8 C5_8 1_555 1_555
H3_8 C6_8 1_555 1_555
C7_8 C2_8 1_555 1_555
H4_8 C7_8 1_555 1_555
C8_8 C5_8 1_555 1_555
C9_8 C8_8 1_555 1_555
C13_8 C8_8 1_555 1_555
H7_8 C13_8 1_555 1_555
C6_8 C7_8 1_555 1_555
C11_8 C12_8 1_555 1_555
C12_8 C13_8 1_555 1_555
O6_4 C21_8 1_555 1_555
O13_4 C40_8 1_555 1_555
O14_4 C40_8 1_555 1_555
C21_8 C22_8 1_555 1_555
C22_8 C23_8 1_555 1_555
C23_8 H12_8 1_555 1_555
C24_8 C23_8 1_555 1_555
H13_8 C24_8 1_555 1_555
C25_8 C24_8 1_555 1_555
C26_8 C25_8 1_555 1_555
H14_8 C26_8 1_555 1_555
C27_8 C22_8 1_555 1_555
H15_8 C27_8 1_555 1_555
C28_8 C29_8 1_555 1_555
C29_8 H16_8 1_555 1_555
C30_8 C25_8 1_555 1_555
C31_8 C30_8 1_555 1_555
H17_8 C31_8 1_555 1_555
C32_8 C31_8 1_555 1_555
C33_8 C28_8 1_555 1_555
H18_8 C33_8 1_555 1_555
C34_8 C32_8 1_555 1_555
C35_8 C34_8 1_555 1_555
H19_8 C35_8 1_555 1_555
C36_8 C35_8 1_555 1_555
H20_8 C36_8 1_555 1_555
C37_8 C36_8 1_555 1_555
C38_8 C37_8 1_555 1_555
H21_8 C38_8 1_555 1_555
C39_8 C34_8 1_555 1_555
H22_8 C39_8 1_555 1_555
C40_8 C37_8 1_555 1_555
C26_8 C27_8 1_555 1_555
C29_8 C30_8 1_555 1_555
C32_8 C33_8 1_555 1_555
C38_8 C39_8 1_555 1_555
H10_8 C19_8 1_555 1_555
C20_8 C15_8 1_555 1_555
H11_8 C20_8 1_555 1_555
C19_8 C20_8 1_555 1_555
In4_2 O5_4 1_555 1_555
In4_2 O3_8 1_555 1_555
O3_8 C14_8 1_555 1_555
O4_8 In4_2 1_555 1_555
C14_8 O4_8 1_555 1_555
H8_5 C16_5 1_555 1_555
C17_5 C16_5 1_555 1_555
H9_5 C17_5 1_555 1_555
C18_5 C10_5 1_555 1_555
C17_5 C18_5 1_555 1_555
C17_6 C16_6 1_555 1_555
H9_6 C17_6 1_555 1_555
C18_6 C10_6 1_555 1_555
C17_6 C18_6 1_555 1_555
H8_7 C16_7 1_555 1_555
C17_7 C16_7 1_555 1_555
H9_7 C17_7 1_555 1_555
C18_7 C10_7 1_555 1_555
C17_7 C18_7 1_555 1_555
C17_8 C16_8 1_555 1_555
H9_8 C17_8 1_555 1_555
C18_8 C10_8 1_555 1_555
C17_8 C18_8 1_555 1_555

#END
