
###############################################################################
#
# This file contains modified crystal structure data generated from the
# MOF subset of the Cambridge Structural Database (CSD) v543 
# hosted by the Cambridge Crystallographic Data Centre (CCDC).
#
# This work is licensed under the Creative Commons
# Attribution-NonCommercial-ShareAlike 4.0 International License.
# To view a copy of this license, visit
# http://creativecommons.org/licenses/by-nc-sa/4.0/
# or send a letter to
# Creative Commons, PO Box 1866, Mountain View, CA 94042, USA.
#
# CIF created using the CSD Python API on 29 September 2022
# The structure has been converted into the P1 space group
# The structure has a 3D framework
# The original CSD entry DIZQOT is in the orthorhombic crystal system
# The framework has been calculated to contain at least 10.0% void space
# The void calculation uses a probe of radius 1.32A, grid spacing 0.4
# H atom positions have been added when not included in the experimental data
#
###############################################################################

data_DIZQOT
_chemical_formula_moiety         '(C192 H106 Co8 N16 O64 Zn8)n'
_symmetry_cell_setting           triclinic
_symmetry_space_group_name_H-M   'P 1'
_symmetry_Int_Tables_number      1
_space_group_name_Hall           'P 1'
loop_
_symmetry_equiv_pos_site_id
_symmetry_equiv_pos_as_xyz
1 x,y,z
_cell_length_a                   13.8637(11)
_cell_length_b                   18.9411(15)
_cell_length_c                   19.0079(15)
_cell_angle_alpha                90
_cell_angle_beta                 90
_cell_angle_gamma                90
_cell_volume                     4991.36
loop_
_atom_site_label
_atom_site_type_symbol
_atom_site_fract_x
_atom_site_fract_y
_atom_site_fract_z
Co4 Co 0.40355(2) 0.016890(14) 0.456560(14)
O15 O 0.25929(12) 0.00745(10) 0.47929(10)
C35 C 0.0669(2) 0.03934(18) 0.46555(17)
H18 H 0.1121 0.0667 0.4418
Zn4 Zn 0.364845(18) 0.896877(13) 0.568498(13)
O17 O 0.22851(12) 0.92591(9) 0.56115(9)
C33 C 0.20347(16) 0.97237(12) 0.51675(12)
C34 C 0.09798(16) 0.98630(13) 0.50909(13)
C36 C 0.02968(19) 0.94699(17) 0.54376(16)
H19 H 0.0489 0.9108 0.5738
O14 O 0.61874(14) 0.33206(9) 0.01092(9)
Zn1 Zn 0.635155(18) 0.103123(13) 0.431502(13)
Co1 Co 0.59645(2) 0.516890(14) 0.043440(14)
N1 N 0.61461(14) 0.62903(11) 0.02395(11)
N2 N 0.62022(14) 0.56118(11) 0.14602(10)
O1 O 0.61270(15) 0.16785(10) 0.35580(10)
O2 O 0.61909(19) 0.08115(11) 0.27868(12)
O3 O 0.59123(13) 0.41648(9) 0.08997(9)
O6 O 0.77149(12) 0.07409(9) 0.43885(9)
O7 O 0.6484(3) 0.84801(13) 0.1436(2)
O8 O 0.6534(2) 0.77844(15) 0.26833(16)
O9 O 0.55455(12) 0.01936(8) 0.44334(8)
C1 C 0.61347(18) 0.14363(14) 0.29349(14)
C2 C 0.60763(17) 0.19826(13) 0.23633(12)
C3 C 0.5939(2) 0.26790(14) 0.25197(14)
H1 H 0.5869 0.2818 0.2986
C4 C 0.5905(2) 0.31787(14) 0.19920(14)
H2 H 0.5798 0.3650 0.2105
C5 C 0.60284(18) 0.29857(12) 0.12972(12)
C6 C 0.6153(2) 0.22814(13) 0.11375(13)
H3 H 0.6223 0.2141 0.0671
C7 C 0.6172(2) 0.17822(13) 0.16693(14)
H4 H 0.6251 0.1308 0.1558
C8 C 0.60439(17) 0.35381(13) 0.07274(12)
C9 C 0.79653(16) 0.02763(12) 0.48325(12)
C10 C 0.90202(16) 0.01370(13) 0.49091(13)
C12 C 0.97032(19) 0.05301(17) 0.45624(16)
H6 H 0.9511 0.0892 0.4262
C15 C 0.6428(3) 0.77345(17) 0.0131(2)
H9 H 0.6513 0.8220 0.0091
C16 C 0.6360(2) 0.74242(15) 0.07873(18)
C17 C 0.6436(3) 0.78393(17) 0.1440(2)
C18 C 0.6454(2) 0.74498(18) 0.2147(2)
C19 C 0.63785(19) 0.66708(16) 0.21319(16)
C20 C 0.6451(2) 0.6277(2) 0.27426(16)
H10 H 0.6533 0.6501 0.3174
C21 C 0.6402(3) 0.5565(2) 0.27087(16)
H11 H 0.6452 0.5292 0.3114
C22 C 0.6275(2) 0.52486(17) 0.20555(15)
H12 H 0.6239 0.4759 0.2034
C23 C 0.62595(16) 0.63175(13) 0.14964(13)
C24 C 0.62380(17) 0.66904(13) 0.08177(14)
Zn2 Zn 0.635155(18) 0.396877(13) 0.931502(13)
Zn5 Zn 0.364845(18) 0.603123(13) 0.068498(13)
O10 O 0.61270(15) 0.33215(10) 0.85580(10)
O11 O 0.61909(19) 0.41885(11) 0.77868(12)
O12 O 0.59123(13) 0.08352(9) 0.58997(9)
O13 O 0.61874(14) 0.16794(9) 0.51092(9)
O16 O 0.74071(12) 0.50745(10) 0.02071(10)
O18 O 0.77149(12) 0.42591(9) 0.93885(9)
O21 O 0.44545(12) 0.51936(8) 0.05666(8)
O23 O 0.55455(12) 0.48064(8) 0.94334(8)
C25 C 0.61347(18) 0.35637(14) 0.79349(14)
C26 C 0.60763(17) 0.30174(13) 0.73633(12)
C27 C 0.5939(2) 0.23210(14) 0.75197(14)
H14 H 0.5869 0.2182 0.7986
C28 C 0.5905(2) 0.18213(14) 0.69920(14)
H15 H 0.5798 0.1350 0.7105
C29 C 0.60284(18) 0.20143(12) 0.62972(12)
C30 C 0.6153(2) 0.27186(13) 0.61375(13)
H16 H 0.6223 0.2859 0.5671
C31 C 0.6172(2) 0.32178(13) 0.66693(14)
H17 H 0.6251 0.3692 0.6558
C32 C 0.60439(17) 0.14619(13) 0.57274(12)
H25 H 0.6239 0.0241 0.7034
H26 H 0.4362(19) 0.4976(14) 0.0856(14)
H28 H 0.5638(19) 0.5024(14) 0.9144(14)
H29 H 0.4362(19) 0.0024(14) 0.5856(14)
H30 H 0.571559 0.505411 0.987679
C13 C 0.6219(2) 0.66075(16) 0.96130(16)
H7 H 0.6165 0.6334 0.9209
C14 C 0.6369(3) 0.73233(19) 0.9542(2)
H8 H 0.6430 0.7524 0.9098
Co5 Co 0.40355(2) 0.483110(14) 0.956560(14)
O5 O 0.74071(12) 0.99255(10) 0.52071(10)
C11 C 0.9331(2) 0.96066(18) 0.53445(17)
H5 H 0.8879 0.9333 0.5582
H13 H 0.5638(19) 0.9976(14) 0.4144(14)
Co2 Co 0.59645(2) 0.983110(14) 0.543440(14)
N3 N 0.61461(14) 0.87097(11) 0.52395(11)
N4 N 0.62022(14) 0.93882(11) 0.64602(10)
O19 O 0.6484(3) 0.65199(13) 0.6436(2)
O20 O 0.6534(2) 0.72156(15) 0.76833(16)
O24 O 0.44545(12) 0.98064(8) 0.55666(8)
C37 C 0.6219(2) 0.83925(16) 0.46130(16)
H20 H 0.6165 0.8666 0.4209
C38 C 0.6369(3) 0.76767(19) 0.4542(2)
H21 H 0.6430 0.7476 0.4098
C39 C 0.6428(3) 0.72655(17) 0.5131(2)
H22 H 0.6513 0.6780 0.5091
C40 C 0.6360(2) 0.75758(15) 0.57873(18)
C41 C 0.6436(3) 0.71607(17) 0.6440(2)
C42 C 0.6454(2) 0.75502(18) 0.7147(2)
C43 C 0.63785(19) 0.83292(16) 0.71319(16)
C44 C 0.6451(2) 0.8723(2) 0.77426(16)
H23 H 0.6533 0.8499 0.8174
C45 C 0.6402(3) 0.9435(2) 0.77087(16)
H24 H 0.6452 0.9708 0.8114
C46 C 0.6275(2) 0.97514(17) 0.70555(15)
C47 C 0.62595(16) 0.86825(13) 0.64964(13)
C48 C 0.62380(17) 0.83096(13) 0.58177(14)
N1_2 N 0.38539(14) 0.12903(11) 0.47605(11)
N2_2 N 0.37978(14) 0.06118(11) 0.35398(10)
O7_2 O 0.3516(3) 0.34801(13) 0.3564(2)
O8_2 O 0.3466(2) 0.27844(15) 0.23167(16)
C13_2 C 0.3781(2) 0.16075(16) 0.53870(16)
H7_2 H 0.3835 0.1334 0.5791
C14_2 C 0.3631(3) 0.23233(19) 0.5458(2)
H8_2 H 0.3570 0.2524 0.5902
C15_2 C 0.3572(3) 0.27345(17) 0.4869(2)
H9_2 H 0.3487 0.3220 0.4909
C16_2 C 0.3640(2) 0.24242(15) 0.42127(18)
C17_2 C 0.3564(3) 0.28393(17) 0.3560(2)
C18_2 C 0.3546(2) 0.24498(18) 0.2853(2)
C19_2 C 0.36215(19) 0.16708(16) 0.28681(16)
C20_2 C 0.3549(2) 0.1277(2) 0.22574(16)
H10_2 H 0.3467 0.1501 0.1826
C21_2 C 0.3598(3) 0.0565(2) 0.22913(16)
H11_2 H 0.3548 0.0292 0.1886
C22_2 C 0.3725(2) 0.02486(17) 0.29445(15)
C23_2 C 0.37405(16) 0.13175(13) 0.35036(13)
C24_2 C 0.37620(17) 0.16904(13) 0.41823(14)
H30_2 H 0.428441 0.00541097 0.512321
O1_2 O 0.38730(15) 0.66785(10) 0.14420(10)
O2_2 O 0.38091(19) 0.58115(11) 0.22132(12)
O3_2 O 0.40877(13) 0.91648(9) 0.41003(9)
O4 O 0.38126(14) 0.83206(9) 0.48908(9)
O6_2 O 0.22851(12) 0.57409(9) 0.06115(9)
C1_2 C 0.38653(18) 0.64363(14) 0.20651(14)
C2_2 C 0.39237(17) 0.69826(13) 0.26367(12)
C3_2 C 0.4061(2) 0.76790(14) 0.24803(14)
H1_2 H 0.4131 0.7818 0.2014
C4_2 C 0.4095(2) 0.81787(14) 0.30080(14)
H2_2 H 0.4202 0.8650 0.2895
C5_2 C 0.39716(18) 0.79857(12) 0.37028(12)
C6_2 C 0.3847(2) 0.72814(13) 0.38625(13)
H3_2 H 0.3777 0.7141 0.4329
C7_2 C 0.3828(2) 0.67822(13) 0.33307(14)
H4_2 H 0.3749 0.6308 0.3442
C8_2 C 0.39561(17) 0.85381(13) 0.42726(12)
C9_2 C 0.20347(16) 0.52763(12) 0.01675(12)
C10_2 C 0.09798(16) 0.51370(13) 0.00909(13)
C12_2 C 0.02968(19) 0.55301(17) 0.04376(16)
H6_2 H 0.0489 0.5892 0.0738
H12_2 H 0.3761 0.9759 0.2966
C37_2 C 0.3781(2) 0.33925(16) 0.03870(16)
H20_2 H 0.3835 0.3666 0.0791
C38_2 C 0.3631(3) 0.26767(19) 0.0458(2)
H21_2 H 0.3570 0.2476 0.0902
O5_2 O 0.25929(12) 0.49255(10) 0.97929(10)
C11_2 C 0.0669(2) 0.46066(18) 0.96555(17)
H5_2 H 0.1121 0.4333 0.9418
N3_2 N 0.38539(14) 0.37097(11) 0.97605(11)
N4_2 N 0.37978(14) 0.43882(11) 0.85398(10)
O10_2 O 0.38730(15) 0.83215(10) 0.64420(10)
O11_2 O 0.38091(19) 0.91885(11) 0.72132(12)
O12_2 O 0.40877(13) 0.58352(9) 0.91003(9)
O13_2 O 0.38126(14) 0.66794(9) 0.98908(9)
O19_2 O 0.3516(3) 0.15199(13) 0.8564(2)
O20_2 O 0.3466(2) 0.22156(15) 0.73167(16)
C25_2 C 0.38653(18) 0.85637(14) 0.70651(14)
C26_2 C 0.39237(17) 0.80174(13) 0.76367(12)
C27_2 C 0.4061(2) 0.73210(14) 0.74803(14)
H14_2 H 0.4131 0.7182 0.7014
C28_2 C 0.4095(2) 0.68213(14) 0.80080(14)
H15_2 H 0.4202 0.6350 0.7895
C29_2 C 0.39716(18) 0.70143(12) 0.87028(12)
C30_2 C 0.3847(2) 0.77186(13) 0.88625(13)
H16_2 H 0.3777 0.7859 0.9329
C31_2 C 0.3828(2) 0.82178(13) 0.83307(14)
H17_2 H 0.3749 0.8692 0.8442
C32_2 C 0.39561(17) 0.64619(13) 0.92726(12)
C39_2 C 0.3572(3) 0.22655(17) 0.9869(2)
H22_2 H 0.3487 0.1780 0.9909
C40_2 C 0.3640(2) 0.25758(15) 0.92127(18)
C41_2 C 0.3564(3) 0.21607(17) 0.8560(2)
C42_2 C 0.3546(2) 0.25502(18) 0.7853(2)
C43_2 C 0.36215(19) 0.33292(16) 0.78681(16)
C44_2 C 0.3549(2) 0.3723(2) 0.72574(16)
H23_2 H 0.3467 0.3499 0.6826
C45_2 C 0.3598(3) 0.4435(2) 0.72913(16)
H24_2 H 0.3548 0.4708 0.6886
C46_2 C 0.3725(2) 0.47514(17) 0.79445(15)
H25_2 H 0.3761 0.5241 0.7966
C47_2 C 0.37405(16) 0.36825(13) 0.85036(13)
C48_2 C 0.37620(17) 0.33096(13) 0.91823(14)
C35_2 C 0.9331(2) 0.53934(18) 0.03445(17)
H18_2 H 0.8879 0.5667 0.0582
C33_2 C 0.79653(16) 0.47237(12) 0.98325(12)
C34_2 C 0.90202(16) 0.48630(13) 0.99091(13)
C36_2 C 0.97032(19) 0.44699(17) 0.95624(16)
H19_2 H 0.9511 0.4108 0.9262
H30_3 H 0.428441 0.494589 0.0123208
H30_4 H 0.571559 0.994589 0.487679
O24_2 O 0.05455(12) 0.01936(8) 0.05666(8)
H29_2 H 0.0638(19) 0.9976(14) 0.0856(14)
Zn5_2 Zn 0.135155(18) 0.396877(13) 0.568498(13)
Co3 Co 0.09645(2) 0.983110(14) 0.956560(14)
Co5_2 Co 0.09645(2) 0.516890(14) 0.456560(14)
O21_2 O 0.05455(12) 0.48064(8) 0.55666(8)
H26_2 H 0.0638(19) 0.5024(14) 0.5856(14)
O5_3 O 0.75929(12) 0.00745(10) 0.02071(10)
C11_3 C 0.5669(2) 0.03934(18) 0.03445(17)
H5_3 H 0.6121 0.0667 0.0582
Zn4_2 Zn 0.135155(18) 0.103123(13) 0.068498(13)
Co2_2 Co 0.90355(2) 0.016890(14) 0.043440(14)
N3_3 N 0.88539(14) 0.12903(11) 0.02395(11)
N4_3 N 0.87978(14) 0.06118(11) 0.14602(10)
O17_2 O 0.27149(12) 0.07409(9) 0.06115(9)
O19_3 O 0.8516(3) 0.34801(13) 0.1436(2)
O20_3 O 0.8466(2) 0.27844(15) 0.26833(16)
C33_3 C 0.29653(16) 0.02763(12) 0.01675(12)
C34_3 C 0.40202(16) 0.01370(13) 0.00909(13)
C36_3 C 0.47032(19) 0.05301(17) 0.04376(16)
H19_3 H 0.4511 0.0892 0.0738
C39_3 C 0.8572(3) 0.27345(17) 0.0131(2)
H22_3 H 0.8487 0.3220 0.0091
C40_3 C 0.8640(2) 0.24242(15) 0.07873(18)
C41_3 C 0.8564(3) 0.28393(17) 0.1440(2)
C42_3 C 0.8546(2) 0.24498(18) 0.2147(2)
C43_3 C 0.86215(19) 0.16708(16) 0.21319(16)
C44_3 C 0.8549(2) 0.1277(2) 0.27426(16)
H23_3 H 0.8467 0.1501 0.3174
C45_3 C 0.8598(3) 0.0565(2) 0.27087(16)
H24_3 H 0.8548 0.0292 0.3114
C46_3 C 0.8725(2) 0.02486(17) 0.20555(15)
C47_3 C 0.87405(16) 0.13175(13) 0.14964(13)
C48_3 C 0.87620(17) 0.16904(13) 0.08177(14)
H13_2 H 0.9362(19) 0.0024(14) 0.9144(14)
C37_3 C 0.8781(2) 0.16075(16) 0.96130(16)
H20_3 H 0.8835 0.1334 0.9209
C38_3 C 0.8631(3) 0.23233(19) 0.9542(2)
H21_3 H 0.8570 0.2524 0.9098
Zn2_2 Zn 0.864845(18) 0.603123(13) 0.431502(13)
O10_3 O 0.88730(15) 0.66785(10) 0.35580(10)
O11_3 O 0.88091(19) 0.58115(11) 0.27868(12)
O12_3 O 0.90877(13) 0.91648(9) 0.08997(9)
O13_3 O 0.88126(14) 0.83206(9) 0.01092(9)
O14_2 O 0.88126(14) 0.66794(9) 0.51092(9)
O18_2 O 0.72851(12) 0.57409(9) 0.43885(9)
O23_2 O 0.94545(12) 0.51936(8) 0.44334(8)
C25_3 C 0.88653(18) 0.64363(14) 0.29349(14)
C26_3 C 0.89237(17) 0.69826(13) 0.23633(12)
C27_3 C 0.9061(2) 0.76790(14) 0.25197(14)
H14_3 H 0.9131 0.7818 0.2986
C28_3 C 0.9095(2) 0.81787(14) 0.19920(14)
H15_3 H 0.9202 0.8650 0.2105
C29_3 C 0.89716(18) 0.79857(12) 0.12972(12)
C30_3 C 0.8847(2) 0.72814(13) 0.11375(13)
H16_3 H 0.8777 0.7141 0.0671
C31_3 C 0.8828(2) 0.67822(13) 0.16693(14)
H17_3 H 0.8749 0.6308 0.1558
C32_3 C 0.89561(17) 0.85381(13) 0.07274(12)
H25_3 H 0.8761 0.9759 0.2034
H28_2 H 0.9362(19) 0.4976(14) 0.4144(14)
H30_5 H 0.928441 0.494589 0.487679
Zn1_2 Zn 0.864845(18) 0.896877(13) 0.931502(13)
Co1_2 Co 0.90355(2) 0.483110(14) 0.543440(14)
N1_3 N 0.88539(14) 0.37097(11) 0.52395(11)
N2_3 N 0.87978(14) 0.43882(11) 0.64602(10)
O1_3 O 0.88730(15) 0.83215(10) 0.85580(10)
O2_3 O 0.88091(19) 0.91885(11) 0.77868(12)
O3_3 O 0.90877(13) 0.58352(9) 0.58997(9)
O6_3 O 0.72851(12) 0.92591(9) 0.93885(9)
O7_3 O 0.8516(3) 0.15199(13) 0.6436(2)
O8_3 O 0.8466(2) 0.22156(15) 0.76833(16)
O9_2 O 0.94545(12) 0.98064(8) 0.94334(8)
C1_3 C 0.88653(18) 0.85637(14) 0.79349(14)
C2_3 C 0.89237(17) 0.80174(13) 0.73633(12)
C3_3 C 0.9061(2) 0.73210(14) 0.75197(14)
H1_3 H 0.9131 0.7182 0.7986
C4_3 C 0.9095(2) 0.68213(14) 0.69920(14)
H2_3 H 0.9202 0.6350 0.7105
C5_3 C 0.89716(18) 0.70143(12) 0.62972(12)
C6_3 C 0.8847(2) 0.77186(13) 0.61375(13)
H3_3 H 0.8777 0.7859 0.5671
C7_3 C 0.8828(2) 0.82178(13) 0.66693(14)
H4_3 H 0.8749 0.8692 0.6558
C8_3 C 0.89561(17) 0.64619(13) 0.57274(12)
C9_3 C 0.70347(16) 0.97237(12) 0.98325(12)
C10_3 C 0.59798(16) 0.98630(13) 0.99091(13)
C12_3 C 0.52968(19) 0.94699(17) 0.95624(16)
H6_3 H 0.5489 0.9108 0.9262
C13_3 C 0.8781(2) 0.33925(16) 0.46130(16)
H7_3 H 0.8835 0.3666 0.4209
C14_3 C 0.8631(3) 0.26767(19) 0.4542(2)
H8_3 H 0.8570 0.2476 0.4098
C15_3 C 0.8572(3) 0.22655(17) 0.5131(2)
H9_3 H 0.8487 0.1780 0.5091
C16_3 C 0.8640(2) 0.25758(15) 0.57873(18)
C17_3 C 0.8564(3) 0.21607(17) 0.6440(2)
C18_3 C 0.8546(2) 0.25502(18) 0.7147(2)
C19_3 C 0.86215(19) 0.33292(16) 0.71319(16)
C20_3 C 0.8549(2) 0.3723(2) 0.77426(16)
H10_3 H 0.8467 0.3499 0.8174
C21_3 C 0.8598(3) 0.4435(2) 0.77087(16)
H11_3 H 0.8548 0.4708 0.8114
C22_3 C 0.8725(2) 0.47514(17) 0.70555(15)
H12_3 H 0.8761 0.5241 0.7034
C23_3 C 0.87405(16) 0.36825(13) 0.64964(13)
C24_3 C 0.87620(17) 0.33096(13) 0.58177(14)
O15_2 O 0.24071(12) 0.99255(10) 0.97929(10)
O16_2 O 0.75929(12) 0.49255(10) 0.52071(10)
C35_3 C 0.4331(2) 0.96066(18) 0.96555(17)
H18_3 H 0.3879 0.9333 0.9418
O1_4 O 0.11270(15) 0.33215(10) 0.64420(10)
O2_4 O 0.11909(19) 0.41885(11) 0.72132(12)
O3_4 O 0.09123(13) 0.08352(9) 0.91003(9)
O4_2 O 0.11874(14) 0.16794(9) 0.98908(9)
O5_4 O 0.24071(12) 0.50745(10) 0.47929(10)
O6_4 O 0.27149(12) 0.42591(9) 0.56115(9)
C1_4 C 0.11347(18) 0.35637(14) 0.70651(14)
C2_4 C 0.10763(17) 0.30174(13) 0.76367(12)
C3_4 C 0.0939(2) 0.23210(14) 0.74803(14)
H1_4 H 0.0869 0.2182 0.7014
C4_4 C 0.0905(2) 0.18213(14) 0.80080(14)
H2_4 H 0.0798 0.1350 0.7895
C5_4 C 0.10284(18) 0.20143(12) 0.87028(12)
C6_4 C 0.1153(2) 0.27186(13) 0.88625(13)
H3_4 H 0.1223 0.2859 0.9329
C7_4 C 0.1172(2) 0.32178(13) 0.83307(14)
H4_4 H 0.1251 0.3692 0.8442
C8_4 C 0.10439(17) 0.14619(13) 0.92726(12)
C9_4 C 0.29653(16) 0.47237(12) 0.51675(12)
C10_4 C 0.40202(16) 0.48630(13) 0.50909(13)
C11_4 C 0.4331(2) 0.53934(18) 0.46555(17)
H5_4 H 0.3879 0.5667 0.4418
C12_4 C 0.47032(19) 0.44699(17) 0.54376(16)
H6_4 H 0.4511 0.4108 0.5738
H12_4 H 0.1239 0.0241 0.7966
N3_4 N 0.11461(14) 0.62903(11) 0.47605(11)
N4_4 N 0.12022(14) 0.56118(11) 0.35398(10)
O10_4 O 0.11270(15) 0.16785(10) 0.14420(10)
O11_4 O 0.11909(19) 0.08115(11) 0.22132(12)
O12_4 O 0.09123(13) 0.41648(9) 0.41003(9)
O13_4 O 0.11874(14) 0.33206(9) 0.48908(9)
O19_4 O 0.1484(3) 0.84801(13) 0.3564(2)
O20_4 O 0.1534(2) 0.77844(15) 0.23167(16)
C25_4 C 0.11347(18) 0.14363(14) 0.20651(14)
C26_4 C 0.10763(17) 0.19826(13) 0.26367(12)
C27_4 C 0.0939(2) 0.26790(14) 0.24803(14)
H14_4 H 0.0869 0.2818 0.2014
C28_4 C 0.0905(2) 0.31787(14) 0.30080(14)
H15_4 H 0.0798 0.3650 0.2895
C29_4 C 0.10284(18) 0.29857(12) 0.37028(12)
C30_4 C 0.1153(2) 0.22814(13) 0.38625(13)
H16_4 H 0.1223 0.2141 0.4329
C31_4 C 0.1172(2) 0.17822(13) 0.33307(14)
H17_4 H 0.1251 0.1308 0.3442
C32_4 C 0.10439(17) 0.35381(13) 0.42726(12)
C33_4 C 0.70347(16) 0.52763(12) 0.48325(12)
C34_4 C 0.59798(16) 0.51370(13) 0.49091(13)
C35_4 C 0.5669(2) 0.46066(18) 0.53445(17)
H18_4 H 0.6121 0.4333 0.5582
C36_4 C 0.52968(19) 0.55301(17) 0.45624(16)
H19_4 H 0.5489 0.5892 0.4262
C37_4 C 0.1219(2) 0.66075(16) 0.53870(16)
H20_4 H 0.1165 0.6334 0.5791
C38_4 C 0.1369(3) 0.73233(19) 0.5458(2)
H21_4 H 0.1430 0.7524 0.5902
C39_4 C 0.1428(3) 0.77345(17) 0.4869(2)
H22_4 H 0.1513 0.8220 0.4909
C40_4 C 0.1360(2) 0.74242(15) 0.42127(18)
C41_4 C 0.1436(3) 0.78393(17) 0.3560(2)
C42_4 C 0.1454(2) 0.74498(18) 0.2853(2)
C43_4 C 0.13785(19) 0.66708(16) 0.28681(16)
C44_4 C 0.1451(2) 0.6277(2) 0.22574(16)
H23_4 H 0.1533 0.6501 0.1826
C45_4 C 0.1402(3) 0.5565(2) 0.22913(16)
H24_4 H 0.1452 0.5292 0.1886
C46_4 C 0.1275(2) 0.52486(17) 0.29445(15)
H25_4 H 0.1239 0.4759 0.2966
C47_4 C 0.12595(16) 0.63175(13) 0.35036(13)
C48_4 C 0.12380(17) 0.66904(13) 0.41823(14)
C13_4 C 0.1219(2) 0.83925(16) 0.03870(16)
H7_4 H 0.1165 0.8666 0.0791
C14_4 C 0.1369(3) 0.76767(19) 0.0458(2)
H8_4 H 0.1430 0.7476 0.0902
N1_4 N 0.11461(14) 0.87097(11) 0.97605(11)
N2_4 N 0.12022(14) 0.93882(11) 0.85398(10)
O7_4 O 0.1484(3) 0.65199(13) 0.8564(2)
O8_4 O 0.1534(2) 0.72156(15) 0.73167(16)
C15_4 C 0.1428(3) 0.72655(17) 0.9869(2)
H9_4 H 0.1513 0.6780 0.9909
C16_4 C 0.1360(2) 0.75758(15) 0.92127(18)
C17_4 C 0.1436(3) 0.71607(17) 0.8560(2)
C18_4 C 0.1454(2) 0.75502(18) 0.7853(2)
C19_4 C 0.13785(19) 0.83292(16) 0.78681(16)
C20_4 C 0.1451(2) 0.8723(2) 0.72574(16)
H10_4 H 0.1533 0.8499 0.6826
C21_4 C 0.1402(3) 0.9435(2) 0.72913(16)
H11_4 H 0.1452 0.9708 0.6886
C22_4 C 0.1275(2) 0.97514(17) 0.79445(15)
C23_4 C 0.12595(16) 0.86825(13) 0.85036(13)
C24_4 C 0.12380(17) 0.83096(13) 0.91823(14)
H30_6 H 0.0715593 0.994589 0.0123208
H30_7 H 0.0715593 0.505411 0.512321
H30_8 H 0.928441 0.00541097 0.987679
loop_
_geom_bond_atom_site_label_1
_geom_bond_atom_site_label_2
_geom_bond_site_symmetry_1
_geom_bond_site_symmetry_2
Co4 O15 1_555 1_555
H18 C35 1_555 1_555
Zn4 O17 1_555 1_555
O17 C33 1_555 1_555
C33 C34 1_555 1_555
H19 C36 1_555 1_555
C34 C36 1_555 1_555
Zn1 O1 1_555 1_555
Co1 N1 1_555 1_555
N2 Co1 1_555 1_555
O1 C1 1_555 1_555
O2 C1 1_555 1_555
O3 Co1 1_555 1_555
O14 C8 1_555 1_555
O6 Zn1 1_555 1_555
O7 C17 1_555 1_555
O8 C18 1_555 1_555
O9 Zn1 1_555 1_555
C1 C2 1_555 1_555
C2 C3 1_555 1_555
C3 H1 1_555 1_555
C4 C3 1_555 1_555
H2 C4 1_555 1_555
C5 C4 1_555 1_555
C6 C5 1_555 1_555
H3 C6 1_555 1_555
C7 C2 1_555 1_555
H4 C7 1_555 1_555
C8 O3 1_555 1_555
C9 O6 1_555 1_555
C10 C9 1_555 1_555
C12 C10 1_555 1_555
H6 C12 1_555 1_555
H9 C15 1_555 1_555
C16 C15 1_555 1_555
C17 C16 1_555 1_555
C18 C17 1_555 1_555
C19 C18 1_555 1_555
C20 C19 1_555 1_555
H10 C20 1_555 1_555
C21 C20 1_555 1_555
H11 C21 1_555 1_555
C22 N2 1_555 1_555
H12 C22 1_555 1_555
C23 N2 1_555 1_555
C24 N1 1_555 1_555
Zn2 O10 1_555 1_555
Zn5 O21 1_555 1_555
Co4 O9 1_555 1_555
O10 C25 1_555 1_555
O11 C25 1_555 1_555
O13 Zn1 1_555 1_555
O16 Co1 1_555 1_555
O18 Zn2 1_555 1_555
O21 Co1 1_555 1_555
O23 Zn2 1_555 1_555
C25 C26 1_555 1_555
C26 C27 1_555 1_555
C27 H14 1_555 1_555
C28 C27 1_555 1_555
H15 C28 1_555 1_555
C29 C28 1_555 1_555
C30 C29 1_555 1_555
H16 C30 1_555 1_555
C31 C26 1_555 1_555
H17 C31 1_555 1_555
C32 O12 1_555 1_555
H26 O21 1_555 1_555
H28 O23 1_555 1_555
C5 C8 1_555 1_555
C6 C7 1_555 1_555
C16 C24 1_555 1_555
C19 C23 1_555 1_555
C21 C22 1_555 1_555
C23 C24 1_555 1_555
O13 C32 1_555 1_555
C29 C32 1_555 1_555
C30 C31 1_555 1_555
O23 H30 1_555 1_555
C13 H7 1_555 1_555
C14 C13 1_555 1_555
H8 C14 1_555 1_555
Co5 O23 1_555 1_555
H5 C11 1_555 1_555
Co2 O5 1_555 1_555
N3 Co2 1_555 1_555
N4 Co2 1_555 1_555
O19 C41 1_555 1_555
O20 C42 1_555 1_555
O24 Co2 1_555 1_555
C37 N3 1_555 1_555
H20 C37 1_555 1_555
C38 C37 1_555 1_555
H21 C38 1_555 1_555
C39 C38 1_555 1_555
H22 C39 1_555 1_555
C40 C39 1_555 1_555
C41 C40 1_555 1_555
C42 C41 1_555 1_555
C43 C42 1_555 1_555
C44 C43 1_555 1_555
H23 C44 1_555 1_555
C45 C44 1_555 1_555
H24 C45 1_555 1_555
C46 N4 1_555 1_555
C47 N4 1_555 1_555
C48 N3 1_555 1_555
C40 C48 1_555 1_555
C43 C47 1_555 1_555
C45 C46 1_555 1_555
C47 C48 1_555 1_555
Co4 N1_2 1_555 1_555
N1_2 C13_2 1_555 1_555
N2_2 Co4 1_555 1_555
O7_2 C17_2 1_555 1_555
O8_2 C18_2 1_555 1_555
C13_2 H7_2 1_555 1_555
C14_2 C13_2 1_555 1_555
H8_2 C14_2 1_555 1_555
C15_2 C14_2 1_555 1_555
H9_2 C15_2 1_555 1_555
C16_2 C15_2 1_555 1_555
C17_2 C16_2 1_555 1_555
C18_2 C17_2 1_555 1_555
C19_2 C18_2 1_555 1_555
C20_2 C19_2 1_555 1_555
H10_2 C20_2 1_555 1_555
C21_2 C20_2 1_555 1_555
H11_2 C21_2 1_555 1_555
C22_2 N2_2 1_555 1_555
C23_2 N2_2 1_555 1_555
C24_2 N1_2 1_555 1_555
C16_2 C24_2 1_555 1_555
C19_2 C23_2 1_555 1_555
C21_2 C22_2 1_555 1_555
C23_2 C24_2 1_555 1_555
Zn5 O1_2 1_555 1_555
O1_2 C1_2 1_555 1_555
O2_2 C1_2 1_555 1_555
O4 C8_2 1_555 1_555
O6_2 Zn5 1_555 1_555
C1_2 C2_2 1_555 1_555
C2_2 C3_2 1_555 1_555
C3_2 H1_2 1_555 1_555
C4_2 C3_2 1_555 1_555
H2_2 C4_2 1_555 1_555
C5_2 C4_2 1_555 1_555
C6_2 C5_2 1_555 1_555
H3_2 C6_2 1_555 1_555
C7_2 C2_2 1_555 1_555
H4_2 C7_2 1_555 1_555
C8_2 O3_2 1_555 1_555
C9_2 O6_2 1_555 1_555
C10_2 C9_2 1_555 1_555
C12_2 C10_2 1_555 1_555
H6_2 C12_2 1_555 1_555
Zn4 O4 1_555 1_555
H20_2 C37_2 1_555 1_555
C38_2 C37_2 1_555 1_555
H21_2 C38_2 1_555 1_555
C5_2 C8_2 1_555 1_555
C6_2 C7_2 1_555 1_555
Zn4 O24 1_555 1_555
H5_2 C11_2 1_555 1_555
Zn4 O10_2 1_555 1_555
Co5 O5_2 1_555 1_555
N3_2 Co5 1_555 1_555
N4_2 Co5 1_555 1_555
O10_2 C25_2 1_555 1_555
O11_2 C25_2 1_555 1_555
O12_2 Co5 1_555 1_555
O19_2 C41_2 1_555 1_555
O20_2 C42_2 1_555 1_555
C25_2 C26_2 1_555 1_555
C26_2 C27_2 1_555 1_555
C27_2 H14_2 1_555 1_555
C28_2 C27_2 1_555 1_555
H15_2 C28_2 1_555 1_555
C29_2 C28_2 1_555 1_555
C30_2 C29_2 1_555 1_555
H16_2 C30_2 1_555 1_555
C31_2 C26_2 1_555 1_555
H17_2 C31_2 1_555 1_555
C32_2 O12_2 1_555 1_555
H22_2 C39_2 1_555 1_555
C40_2 C39_2 1_555 1_555
C41_2 C40_2 1_555 1_555
C42_2 C41_2 1_555 1_555
C43_2 C42_2 1_555 1_555
C44_2 C43_2 1_555 1_555
H23_2 C44_2 1_555 1_555
C45_2 C44_2 1_555 1_555
H24_2 C45_2 1_555 1_555
C46_2 N4_2 1_555 1_555
H25_2 C46_2 1_555 1_555
C47_2 N4_2 1_555 1_555
C48_2 N3_2 1_555 1_555
O13_2 C32_2 1_555 1_555
C29_2 C32_2 1_555 1_555
C30_2 C31_2 1_555 1_555
C40_2 C48_2 1_555 1_555
C43_2 C47_2 1_555 1_555
C45_2 C46_2 1_555 1_555
C47_2 C48_2 1_555 1_555
H18_2 C35_2 1_555 1_555
O18 C33_2 1_555 1_555
C33_2 C34_2 1_555 1_555
H19_2 C36_2 1_555 1_555
C34_2 C36_2 1_555 1_555
O21 H30_3 1_555 1_555
Zn5_2 O21_2 1_555 1_555
Co5_2 O21_2 1_555 1_555
H26_2 O21_2 1_555 1_555
H5_3 C11_3 1_555 1_555
Zn4_2 O17_2 1_555 1_555
Co2_2 O5_3 1_555 1_555
N3_3 Co2_2 1_555 1_555
N4_3 Co2_2 1_555 1_555
O17_2 C33_3 1_555 1_555
O19_3 C41_3 1_555 1_555
O20_3 C42_3 1_555 1_555
C33_3 C34_3 1_555 1_555
C36_3 C11_3 1_555 1_555
H19_3 C36_3 1_555 1_555
H22_3 C39_3 1_555 1_555
C40_3 C39_3 1_555 1_555
C41_3 C40_3 1_555 1_555
C42_3 C41_3 1_555 1_555
C43_3 C42_3 1_555 1_555
C44_3 C43_3 1_555 1_555
H23_3 C44_3 1_555 1_555
C45_3 C44_3 1_555 1_555
H24_3 C45_3 1_555 1_555
C46_3 N4_3 1_555 1_555
C47_3 N4_3 1_555 1_555
C48_3 N3_3 1_555 1_555
C34_3 C36_3 1_555 1_555
C40_3 C48_3 1_555 1_555
C43_3 C47_3 1_555 1_555
C45_3 C46_3 1_555 1_555
C47_3 C48_3 1_555 1_555
H20_3 C37_3 1_555 1_555
C38_3 C37_3 1_555 1_555
H21_3 C38_3 1_555 1_555
Zn2_2 O10_3 1_555 1_555
O10_3 C25_3 1_555 1_555
O11_3 C25_3 1_555 1_555
O14_2 Zn2_2 1_555 1_555
O18_2 Zn2_2 1_555 1_555
O23_2 Zn2_2 1_555 1_555
C25_3 C26_3 1_555 1_555
C26_3 C27_3 1_555 1_555
C27_3 H14_3 1_555 1_555
C28_3 C27_3 1_555 1_555
H15_3 C28_3 1_555 1_555
C29_3 C28_3 1_555 1_555
C30_3 C29_3 1_555 1_555
H16_3 C30_3 1_555 1_555
C31_3 C26_3 1_555 1_555
H17_3 C31_3 1_555 1_555
C32_3 O12_3 1_555 1_555
H28_2 O23_2 1_555 1_555
O13_3 C32_3 1_555 1_555
C29_3 C32_3 1_555 1_555
C30_3 C31_3 1_555 1_555
O23_2 H30_5 1_555 1_555
Zn1_2 O1_3 1_555 1_555
Co1_2 N1_3 1_555 1_555
N1_3 C13_3 1_555 1_555
N2_3 Co1_2 1_555 1_555
O1_3 C1_3 1_555 1_555
O2_3 C1_3 1_555 1_555
O3_3 Co1_2 1_555 1_555
O14_2 C8_3 1_555 1_555
O6_3 Zn1_2 1_555 1_555
O7_3 C17_3 1_555 1_555
O8_3 C18_3 1_555 1_555
O9_2 Zn1_2 1_555 1_555
C1_3 C2_3 1_555 1_555
C2_3 C3_3 1_555 1_555
C3_3 H1_3 1_555 1_555
C4_3 C3_3 1_555 1_555
H2_3 C4_3 1_555 1_555
C5_3 C4_3 1_555 1_555
C6_3 C5_3 1_555 1_555
H3_3 C6_3 1_555 1_555
C7_3 C2_3 1_555 1_555
H4_3 C7_3 1_555 1_555
C8_3 O3_3 1_555 1_555
C9_3 O6_3 1_555 1_555
C10_3 C9_3 1_555 1_555
C12_3 C10_3 1_555 1_555
H6_3 C12_3 1_555 1_555
C13_3 H7_3 1_555 1_555
C14_3 C13_3 1_555 1_555
H8_3 C14_3 1_555 1_555
C15_3 C14_3 1_555 1_555
H9_3 C15_3 1_555 1_555
C16_3 C15_3 1_555 1_555
C17_3 C16_3 1_555 1_555
C18_3 C17_3 1_555 1_555
C19_3 C18_3 1_555 1_555
C20_3 C19_3 1_555 1_555
H10_3 C20_3 1_555 1_555
C21_3 C20_3 1_555 1_555
H11_3 C21_3 1_555 1_555
C22_3 N2_3 1_555 1_555
H12_3 C22_3 1_555 1_555
C23_3 N2_3 1_555 1_555
C24_3 N1_3 1_555 1_555
Co3 O15_2 1_555 1_555
O16_2 Co1_2 1_555 1_555
O23_2 Co1_2 1_555 1_555
C35_3 C12_3 1_555 1_555
H18_3 C35_3 1_555 1_555
C5_3 C8_3 1_555 1_555
C6_3 C7_3 1_555 1_555
C16_3 C24_3 1_555 1_555
C19_3 C23_3 1_555 1_555
C21_3 C22_3 1_555 1_555
C23_3 C24_3 1_555 1_555
Zn4_2 O24_2 1_555 1_555
Zn5_2 O1_4 1_555 1_555
O1_4 C1_4 1_555 1_555
O2_4 C1_4 1_555 1_555
O4_2 C8_4 1_555 1_555
O5_4 C9_4 1_555 1_555
O6_4 Zn5_2 1_555 1_555
C1_4 C2_4 1_555 1_555
C2_4 C3_4 1_555 1_555
C3_4 H1_4 1_555 1_555
C4_4 C3_4 1_555 1_555
H2_4 C4_4 1_555 1_555
C5_4 C4_4 1_555 1_555
C6_4 C5_4 1_555 1_555
H3_4 C6_4 1_555 1_555
C7_4 C2_4 1_555 1_555
H4_4 C7_4 1_555 1_555
C8_4 O3_4 1_555 1_555
C9_4 O6_4 1_555 1_555
C10_4 C9_4 1_555 1_555
C11_4 C10_4 1_555 1_555
H5_4 C11_4 1_555 1_555
C12_4 C10_4 1_555 1_555
H6_4 C12_4 1_555 1_555
Zn4_2 O10_4 1_555 1_555
Co5_2 O5_4 1_555 1_555
N3_4 Co5_2 1_555 1_555
N4_4 Co5_2 1_555 1_555
O10_4 C25_4 1_555 1_555
O11_4 C25_4 1_555 1_555
O12_4 Co5_2 1_555 1_555
O13_4 Zn5_2 1_555 1_555
O16_2 C33_4 1_555 1_555
O18_2 C33_4 1_555 1_555
O19_4 C41_4 1_555 1_555
O20_4 C42_4 1_555 1_555
C25_4 C26_4 1_555 1_555
C26_4 C27_4 1_555 1_555
C27_4 H14_4 1_555 1_555
C28_4 C27_4 1_555 1_555
H15_4 C28_4 1_555 1_555
C29_4 C28_4 1_555 1_555
C30_4 C29_4 1_555 1_555
H16_4 C30_4 1_555 1_555
C31_4 C26_4 1_555 1_555
H17_4 C31_4 1_555 1_555
C32_4 O12_4 1_555 1_555
C33_4 C34_4 1_555 1_555
C34_4 C35_4 1_555 1_555
C35_4 C12_4 1_555 1_555
H18_4 C35_4 1_555 1_555
C36_4 C11_4 1_555 1_555
H19_4 C36_4 1_555 1_555
C37_4 N3_4 1_555 1_555
H20_4 C37_4 1_555 1_555
C38_4 C37_4 1_555 1_555
H21_4 C38_4 1_555 1_555
C39_4 C38_4 1_555 1_555
H22_4 C39_4 1_555 1_555
C40_4 C39_4 1_555 1_555
C41_4 C40_4 1_555 1_555
C42_4 C41_4 1_555 1_555
C43_4 C42_4 1_555 1_555
C44_4 C43_4 1_555 1_555
H23_4 C44_4 1_555 1_555
C45_4 C44_4 1_555 1_555
H24_4 C45_4 1_555 1_555
C46_4 N4_4 1_555 1_555
H25_4 C46_4 1_555 1_555
C47_4 N4_4 1_555 1_555
C48_4 N3_4 1_555 1_555
C5_4 C8_4 1_555 1_555
C6_4 C7_4 1_555 1_555
O13_4 C32_4 1_555 1_555
C29_4 C32_4 1_555 1_555
C30_4 C31_4 1_555 1_555
C34_4 C36_4 1_555 1_555
C40_4 C48_4 1_555 1_555
C43_4 C47_4 1_555 1_555
C45_4 C46_4 1_555 1_555
C47_4 C48_4 1_555 1_555
C13_4 H7_4 1_555 1_555
C14_4 C13_4 1_555 1_555
H8_4 C14_4 1_555 1_555
Co3 N1_4 1_555 1_555
N2_4 Co3 1_555 1_555
O7_4 C17_4 1_555 1_555
O8_4 C18_4 1_555 1_555
H9_4 C15_4 1_555 1_555
C16_4 C15_4 1_555 1_555
C17_4 C16_4 1_555 1_555
C18_4 C17_4 1_555 1_555
C19_4 C18_4 1_555 1_555
C20_4 C19_4 1_555 1_555
H10_4 C20_4 1_555 1_555
C21_4 C20_4 1_555 1_555
H11_4 C21_4 1_555 1_555
C22_4 N2_4 1_555 1_555
C23_4 N2_4 1_555 1_555
C24_4 N1_4 1_555 1_555
C16_4 C24_4 1_555 1_555
C19_4 C23_4 1_555 1_555
C21_4 C22_4 1_555 1_555
C23_4 C24_4 1_555 1_555
O21_2 H30_7 1_555 1_555

#END
