
###############################################################################
#
# This file contains modified crystal structure data generated from the
# MOF subset of the Cambridge Structural Database (CSD) v543 
# hosted by the Cambridge Crystallographic Data Centre (CCDC).
#
# This work is licensed under the Creative Commons
# Attribution-NonCommercial-ShareAlike 4.0 International License.
# To view a copy of this license, visit
# http://creativecommons.org/licenses/by-nc-sa/4.0/
# or send a letter to
# Creative Commons, PO Box 1866, Mountain View, CA 94042, USA.
#
# CIF created using the CSD Python API on 29 September 2022
# The structure has been converted into the P1 space group
# The structure has a 3D framework
# The original CSD entry DOCKOW is in the triclinic crystal system
# The framework has been calculated to contain at least 10.0% void space
# The void calculation uses a probe of radius 1.32A, grid spacing 0.4
#
###############################################################################

data_DOCKOW
_chemical_formula_moiety         '(C104 H70 Mn4 N4 O42 Zn6)n'
_symmetry_cell_setting           triclinic
_symmetry_space_group_name_H-M   'P 1'
_symmetry_Int_Tables_number      1
_space_group_name_Hall           'P 1'
loop_
_symmetry_equiv_pos_site_id
_symmetry_equiv_pos_as_xyz
1 x,y,z
_cell_length_a                   10.426(2)
_cell_length_b                   14.962(3)
_cell_length_c                   21.102(4)
_cell_angle_alpha                100.01(3)
_cell_angle_beta                 93.54(3)
_cell_angle_gamma                106.90(3)
_cell_volume                     3079.58
loop_
_atom_site_label
_atom_site_type_symbol
_atom_site_fract_x
_atom_site_fract_y
_atom_site_fract_z
O10 O 0.0003(5) 0.1730(4) 0.0105(3)
H1 H 0.0812 0.2096 0.0156
O23 O 0.1398(4) 0.0233(3) 0.0075(2)
Zn3 Zn 0.00896(9) 0.05120(7) 0.93602(5)
O16 O 0.1258(6) 0.1434(4) 0.8875(3)
C14 C 0.1377(7) 0.2392(5) 0.8096(4)
O18 O 0.5521(6) 0.3271(5) 0.8414(4)
H7 H 0.6311 0.3572 0.8550
C18 C 0.0584(8) 0.1678(5) 0.8466(4)
C21 C 0.2764(7) 0.2683(5) 0.8189(4)
H10 H 0.3205 0.2413 0.8462
C26 C 0.0733(9) 0.2781(6) 0.7672(4)
C27 C 0.5038(10) 0.3727(7) 0.8036(5)
C32 C 0.3517(8) 0.3373(6) 0.7882(4)
O19 O 0.5703(7) 0.4396(5) 0.7816(4)
C33 C 0.1481(12) 0.3454(7) 0.7357(5)
H17 H 0.1046 0.3701 0.7065
C46 C 0.2852(11) 0.3757(7) 0.7471(4)
H31 H 0.3345 0.4229 0.7270
Zn5 Zn 0.58434(8) 0.01513(6) 0.26206(4)
Mn8 Mn 0.76349(9) 0.01221(7) 0.80225(5)
O33 O 0.5352(5) 0.0760(4) 0.6959(3)
O40 O 0.4106(5) 0.0305(4) 0.8274(2)
Mn2 Mn -0.0000 0.5000 0.5000
O3 O 0.0182(5) 0.9264(3) 0.8769(2)
O7 O 0.4648(5) 0.9240(4) 0.3041(3)
O9 O 0.2583(5) 0.9388(4) 0.2883(3)
O13 O 0.0109(5) 0.6251(4) 0.4630(3)
C3 C 0.1817(7) 0.7915(5) 0.3660(3)
H3 H 0.1368 0.8370 0.3743
C9 C 0.0049(6) 0.6983(5) 0.6861(3)
C10 C 0.2866(7) 0.8063(5) 0.3286(3)
C13 C 0.0213(7) 0.8182(5) 0.7810(3)
C15 C 0.3376(8) 0.8963(5) 0.3046(4)
C19 C 0.0943(9) 0.6648(6) 0.7181(4)
H8 H 0.1180 0.6130 0.6970
C24 C 0.1117(10) 0.7831(7) 0.8128(4)
H13 H 0.1469 0.8109 0.8557
C28 C 0.1420(7) 0.7090(5) 0.3914(4)
C31 C 0.2053(9) 0.6399(6) 0.3764(5)
H16 H 0.1793 0.5846 0.3930
C34 C 0.3504(9) 0.7366(6) 0.3134(5)
H18 H 0.4210 0.7462 0.2879
H20 H 0.1137 0.0466 0.4741
C40 C 0.1494(11) 0.7071(8) 0.7812(4)
H25 H 0.2112 0.6849 0.8023
C44 C 0.3070(10) 0.6526(7) 0.3367(5)
H29 H 0.3468 0.6047 0.3256
C52 C 0.0314(7) 0.6924(5) 0.4329(3)
Zn4 Zn 0.41566(8) 0.98487(6) 0.73794(4)
Zn9 Zn 0.17310(8) 0.32334(5) 0.50299(4)
Mn5 Mn 0.23651(9) 0.98779(7) 0.19775(5)
O25 O 0.0924(5) 0.0651(3) 0.2154(2)
O28 O 0.2424(5) 0.0272(4) 0.1012(2)
O29 O 0.1082(5) 0.2974(3) 0.4124(2)
O30 O 0.4157(5) 0.8560(3) 0.7042(3)
O34 O 0.0361(5) 0.4235(3) 0.4082(2)
O41 O 0.6036(5) 0.8802(3) 0.7679(3)
O43 O 0.3964(5) 0.1198(3) 0.2321(3)
C54 C 0.0208(7) 0.1002(5) 0.1835(3)
O45 O 0.2134(5) 0.5534(3) 0.5433(3)
N4 N 0.2922(6) 0.2345(4) 0.4975(3)
O46 O 0.3033(5) 0.4367(4) 0.5506(3)
N6 N 0.2434(6) 0.9793(5) 0.6843(3)
C56 C 0.0299(6) 0.2232(5) 0.2824(3)
H39 H 0.0880 0.1990 0.3044
C60 C 0.0506(7) 0.3459(5) 0.3835(3)
C68 C 0.5108(7) 0.8297(5) 0.7244(4)
C69 C 0.3004(7) 0.5222(5) 0.5653(4)
C82 C 0.4115(7) 0.5848(5) 0.6160(4)
C94 C 0.1943(9) 0.0516(7) 0.6894(5)
H62 H 0.2212 0.0983 0.7271
C95 C 0.1063(10) 0.0627(7) 0.6426(5)
H63 H 0.0768 0.1162 0.6486
C99 C 0.4110(7) 0.6753(5) 0.6455(4)
H67 H 0.3417 0.6981 0.6325
C100 C 0.5200(7) 0.5534(5) 0.6355(4)
H68 H 0.5244 0.4941 0.6154
C101 C 0.6190(8) 0.6095(5) 0.6839(4)
H69 H 0.6884 0.5872 0.6975
C102 C 0.5120(7) 0.7322(5) 0.6939(3)
C103 C 0.6160(7) 0.6991(5) 0.7124(4)
H70 H 0.6847 0.7374 0.7445
O54 O 0.0407(5) 0.2529(3) 0.5605(2)
C35 C 0.0279(8) 0.9968(7) 0.4692(4)
H19 H 0.0453 0.9360 0.4587
O48 O 0.0673(5) 0.8604(4) 0.1643(3)
C77 C 0.0616(7) 0.9942(6) 0.5868(4)
H49 H 0.0205 0.7412 0.2399
C81 C 0.1964(7) 0.9108(5) 0.6319(4)
H50 H 0.2253 0.8570 0.6281
C90 C 0.1068(8) 0.9157(6) 0.5829(4)
H58 H 0.0766 0.8659 0.5471
O53 O 0.3651(5) 0.9063(3) 0.1574(2)
H37 H 0.0252 0.8387 0.9535
H2 H 0.9748 0.1613 0.0465
O17 O 0.9327(5) 0.1396(4) 0.8357(3)
H14 H 0.9795 0.2588 0.7601
O36 O 0.7417(5) 0.0612(4) 0.7117(3)
C74 C 0.3235(9) 0.1945(7) 0.4417(4)
H46 H 0.2911 0.2080 0.4036
C88 C 0.4495(8) 0.1129(6) 0.4929(5)
C89 C 0.5344(9) 0.0454(6) 0.4908(5)
H56 H 0.6173 0.0768 0.5197
H57 H 0.5585 0.0321 0.4472
C91 C 0.4009(10) 0.1344(7) 0.4377(5)
H59 H 0.4205 0.1082 0.3976
O52 O 0.6349(5) 0.0937(3) 0.8426(2)
C93 C 0.4147(10) 0.1498(7) 0.5507(5)
H61 H 0.4407 0.1334 0.5890
C97 C 0.3390(10) 0.2126(7) 0.5508(5)
H65 H 0.3200 0.2409 0.5905
Zn13 Zn 0.99104(9) 0.94880(7) 0.06398(5)
O39 O 0.5894(5) 0.9695(4) 0.1726(2)
C58 C 0.6121(6) 0.9272(5) 0.0426(3)
H40 H 0.6893 0.9592 0.0716
C59 C 0.4782(7) 0.9254(5) 0.1377(4)
C64 C 0.4871(6) 0.8951(5) 0.0663(3)
C75 C 0.3743(7) 0.8457(5) 0.0231(4)
H47 H 0.2910 0.8246 0.0381
Zn2 Zn 0.82690(8) 0.67666(5) 0.49701(4)
Mn2_2 Mn 1.0000 0.5000 0.5000
O2 O 0.9076(5) 0.9349(3) 0.7846(2)
O5 O 0.8918(5) 0.7026(3) 0.5876(2)
O6 O 0.5843(5) 0.1440(3) 0.2958(3)
O8 O 0.9639(5) 0.5765(3) 0.5918(2)
C2 C 0.9792(7) 0.8998(5) 0.8165(3)
O14 O 0.7866(5) 0.4466(3) 0.4567(3)
N1 N 0.7078(6) 0.7655(4) 0.5025(3)
O15 O 0.6967(5) 0.5633(4) 0.4494(3)
N2 N 0.7566(6) 0.0207(5) 0.3157(3)
C4 C 0.9701(6) 0.7768(5) 0.7176(3)
H4 H 0.9120 0.8010 0.6956
C8 C 0.9494(7) 0.6541(5) 0.6165(3)
C16 C 0.4892(7) 0.1703(5) 0.2756(4)
C17 C 0.6996(7) 0.4778(5) 0.4347(4)
C22 C 0.6765(9) 0.8055(7) 0.5583(4)
H11 H 0.7089 0.7920 0.5964
C25 C 0.9384(7) 0.0058(6) 0.4132(4)
C29 C 0.8036(7) 0.0892(5) 0.3681(4)
H15 H 0.7747 0.1430 0.3719
C30 C 0.5885(7) 0.4152(5) 0.3840(4)
C36 C 0.5505(8) 0.8871(6) 0.5071(5)
C37 C 0.4656(9) 0.9546(6) 0.5092(5)
H21 H 0.3827 0.9232 0.4803
H22 H 0.4415 0.9679 0.5528
C38 C 0.8932(8) 0.0843(6) 0.4171(4)
H23 H 0.9234 0.1341 0.4529
C39 C 0.5991(10) 0.8656(7) 0.5623(5)
H24 H 0.5795 0.8918 0.6024
C41 C 0.5853(10) 0.8502(7) 0.4493(5)
H26 H 0.5593 0.8666 0.4110
C45 C 0.6610(10) 0.7874(7) 0.4492(5)
H30 H 0.6800 0.7591 0.4095
C47 C 0.5890(7) 0.3247(5) 0.3545(4)
H32 H 0.6583 0.3019 0.3675
C48 C 0.4800(7) 0.4466(5) 0.3645(4)
H33 H 0.4756 0.5059 0.3846
C49 C 0.3810(8) 0.3905(5) 0.3161(4)
H34 H 0.3116 0.4128 0.3025
C50 C 0.4880(7) 0.2678(5) 0.3061(3)
C51 C 0.3840(7) 0.3009(5) 0.2876(4)
H35 H 0.3153 0.2626 0.2555
O21 O 0.9593(5) 0.7471(3) 0.4395(2)
O22 O 0.8602(4) 0.9767(3) 0.9925(2)
O26 O 0.9818(5) 0.0736(3) 0.1231(2)
C53 C 0.6214(6) 0.9120(4) 0.9777(3)
O27 O 0.7576(5) 0.9728(4) 0.8988(2)
O44 O 0.9891(5) 0.3749(4) 0.5370(3)
C55 C 0.8183(7) 0.2085(5) 0.6340(3)
H38 H 0.8632 0.1630 0.6257
C57 C 0.7520(7) 0.9552(5) 0.9539(3)
C61 C 0.9951(6) 0.3017(5) 0.3139(3)
C62 C 0.7134(7) 0.1937(5) 0.6714(3)
C63 C 0.5059(7) 0.8619(5) 0.9335(3)
H41 H 0.5112 0.8524 0.8891
C65 C 0.9787(7) 0.1818(5) 0.2190(3)
C67 C 0.6624(8) 0.1037(5) 0.6954(4)
C71 C 0.9057(9) 0.3352(6) 0.2819(4)
H43 H 0.8820 0.3870 0.3030
C72 C 0.3841(7) 0.8270(5) 0.9570(4)
H44 H 0.3081 0.7907 0.9284
C76 C 0.8883(10) 0.2169(7) 0.1872(4)
H48 H 0.8531 0.1891 0.1443
C80 C 0.8580(7) 0.2910(5) 0.6086(4)
C83 C 0.7947(9) 0.3601(6) 0.6236(5)
H51 H 0.8207 0.4154 0.6070
C86 C 0.6496(9) 0.2634(6) 0.6866(5)
H53 H 0.5790 0.2538 0.7121
C87 C 0.9721(8) 0.0032(7) 0.5308(4)
H54 H 0.9547 0.0640 0.5413
C92 C 0.8506(11) 0.2929(8) 0.2188(4)
H60 H 0.7888 0.3151 0.1977
C96 C 0.6930(10) 0.3474(7) 0.6633(5)
H64 H 0.6532 0.3953 0.6744
C104 C 0.9686(7) 0.3076(5) 0.5671(3)
C42 C 0.8057(9) 0.9484(7) 0.3106(5)
H27 H 0.7788 0.9017 0.2729
C43 C 0.8937(10) 0.9373(7) 0.3574(5)
H28 H 0.9232 0.8838 0.3514
O47 O 0.8742(6) 0.8566(4) 0.1125(3)
C66 C 0.8623(7) 0.7608(5) 0.1904(4)
O49 O 0.4479(6) 0.6729(5) 0.1586(4)
H42 H 0.3689 0.6428 0.1450
C70 C 0.9416(8) 0.8322(5) 0.1534(4)
C73 C 0.7236(7) 0.7317(5) 0.1811(4)
H45 H 0.6795 0.7587 0.1538
C78 C 0.9267(9) 0.7219(6) 0.2328(4)
C79 C 0.4962(10) 0.6273(7) 0.1964(5)
C84 C 0.6483(8) 0.6627(6) 0.2118(4)
O50 O 0.4297(7) 0.5604(5) 0.2184(4)
C85 C 0.8519(12) 0.6546(7) 0.2643(5)
H52 H 0.8954 0.6299 0.2935
H55 H 0.8863 0.9534 0.5259
C98 C 0.7148(11) 0.6243(7) 0.2529(4)
H66 H 0.6655 0.5771 0.2730
O38 O 0.9997(5) 0.8270(4) 0.9895(3)
H36 H 0.9188 0.7904 0.9844
C1 C 0.3786(6) 0.0880(4) 0.0223(3)
C5 C 0.2480(7) 0.0448(5) 0.0461(3)
C11 C 0.4941(7) 0.1381(5) 0.0665(3)
H6 H 0.4888 0.1476 0.1109
C20 C 0.6159(7) 0.1730(5) 0.0430(4)
H9 H 0.6919 0.2093 0.0716
C6 C 0.3879(6) 0.0728(5) 0.9574(3)
H5 H 0.3107 0.0408 0.9284
C7 C 0.5218(7) 0.0746(5) 0.8623(4)
C12 C 0.5129(6) 0.1049(5) 0.9337(3)
C23 C 0.6257(7) 0.1543(5) 0.9769(4)
H12 H 0.7090 0.1754 0.9619
loop_
_geom_bond_atom_site_label_1
_geom_bond_atom_site_label_2
_geom_bond_site_symmetry_1
_geom_bond_site_symmetry_2
H1 O10 1_555 1_555
O16 Zn3 1_555 1_555
C14 C18 1_555 1_555
O18 H7 1_555 1_555
C18 O16 1_555 1_555
C21 C14 1_555 1_555
H10 C21 1_555 1_555
C26 C14 1_555 1_555
C27 O18 1_555 1_555
C32 C21 1_555 1_555
O19 C27 1_555 1_555
C33 C26 1_555 1_555
H17 C33 1_555 1_555
C46 C32 1_555 1_555
H31 C46 1_555 1_555
C27 C32 1_555 1_555
C33 C46 1_555 1_555
O7 C15 1_555 1_555
O9 C15 1_555 1_555
C3 H3 1_555 1_555
C10 C3 1_555 1_555
C15 C10 1_555 1_555
C19 C9 1_555 1_555
H8 C19 1_555 1_555
C24 C13 1_555 1_555
H13 C24 1_555 1_555
C28 C3 1_555 1_555
C31 C28 1_555 1_555
H16 C31 1_555 1_555
C34 C10 1_555 1_555
H18 C34 1_555 1_555
C40 C19 1_555 1_555
H25 C40 1_555 1_555
C44 C31 1_555 1_555
H29 C44 1_555 1_555
C52 O13 1_555 1_555
Zn4 O30 1_555 1_555
Zn9 O29 1_555 1_555
Mn5 O9 1_555 1_555
O25 C54 1_555 1_555
O29 C60 1_555 1_555
O30 C68 1_555 1_555
O34 Mn2 1_555 1_555
O41 C68 1_555 1_555
O45 Mn2 1_555 1_555
N4 Zn9 1_555 1_555
O46 Zn9 1_555 1_555
N6 Zn4 1_555 1_555
C56 H39 1_555 1_555
C60 O34 1_555 1_555
C68 C102 1_555 1_555
C69 O45 1_555 1_555
C82 C69 1_555 1_555
H62 C94 1_555 1_555
H63 C95 1_555 1_555
C99 C82 1_555 1_555
H67 C99 1_555 1_555
C100 C82 1_555 1_555
H68 C100 1_555 1_555
C101 C100 1_555 1_555
H69 C101 1_555 1_555
C102 C99 1_555 1_555
C103 C101 1_555 1_555
H70 C103 1_555 1_555
O54 Zn9 1_555 1_555
Mn2 O13 1_555 1_555
C24 C40 1_555 1_555
C28 C52 1_555 1_555
C34 C44 1_555 1_555
O46 C69 1_555 1_555
C94 C95 1_555 1_555
C102 C103 1_555 1_555
C35 H19 1_555 1_555
N6 C81 1_555 1_555
O48 Mn5 1_555 1_555
C81 H50 1_555 1_555
C90 C77 1_555 1_555
H58 C90 1_555 1_555
O53 Mn5 1_555 1_555
C81 C90 1_555 1_555
O17 Mn8 1_555 1_555
O36 Mn8 1_555 1_555
N4 C74 1_555 1_555
C74 H46 1_555 1_555
C88 C89 1_555 1_555
H56 C89 1_555 1_555
H57 C89 1_555 1_555
C91 C74 1_555 1_555
H59 C91 1_555 1_555
O52 Mn8 1_555 1_555
C93 C88 1_555 1_555
H61 C93 1_555 1_555
C97 N4 1_555 1_555
H65 C97 1_555 1_555
C88 C91 1_555 1_555
C93 C97 1_555 1_555
O39 C59 1_555 1_555
H40 C58 1_555 1_555
C59 C64 1_555 1_555
C64 C58 1_555 1_555
C75 C64 1_555 1_555
H47 C75 1_555 1_555
O53 C59 1_555 1_555
Zn5 O6 1_555 1_555
Zn2 O5 1_555 1_555
Mn2_2 O8 1_555 1_555
O2 C2 1_555 1_555
O5 C8 1_555 1_555
O6 C16 1_555 1_555
O8 C8 1_555 1_555
O43 C16 1_555 1_555
O14 Mn2_2 1_555 1_555
N1 Zn2 1_555 1_555
O15 Zn2 1_555 1_555
N2 Zn5 1_555 1_555
C4 H4 1_555 1_555
C16 C50 1_555 1_555
C17 O14 1_555 1_555
C22 N1 1_555 1_555
H11 C22 1_555 1_555
C29 N2 1_555 1_555
H15 C29 1_555 1_555
C30 C17 1_555 1_555
C36 C37 1_555 1_555
C37 H21 1_555 1_555
H22 C37 1_555 1_555
C38 C25 1_555 1_555
H23 C38 1_555 1_555
C39 C22 1_555 1_555
H24 C39 1_555 1_555
C41 C36 1_555 1_555
H26 C41 1_555 1_555
C45 N1 1_555 1_555
H30 C45 1_555 1_555
C47 C30 1_555 1_555
H32 C47 1_555 1_555
C48 C30 1_555 1_555
H33 C48 1_555 1_555
C49 C48 1_555 1_555
H34 C49 1_555 1_555
C50 C47 1_555 1_555
C51 C49 1_555 1_555
H35 C51 1_555 1_555
O21 Zn2 1_555 1_555
C53 C57 1_555 1_555
O33 C67 1_555 1_555
O36 C67 1_555 1_555
O44 Mn2_2 1_555 1_555
C55 H38 1_555 1_555
C57 O22 1_555 1_555
C62 C55 1_555 1_555
C63 C53 1_555 1_555
H41 C63 1_555 1_555
C67 C62 1_555 1_555
C71 C61 1_555 1_555
H43 C71 1_555 1_555
C72 C63 1_555 1_555
H44 C72 1_555 1_555
C76 C65 1_555 1_555
H48 C76 1_555 1_555
C80 C55 1_555 1_555
C83 C80 1_555 1_555
H51 C83 1_555 1_555
C86 C62 1_555 1_555
H53 C86 1_555 1_555
H54 C87 1_555 1_555
C92 C71 1_555 1_555
H60 C92 1_555 1_555
C96 C83 1_555 1_555
H64 C96 1_555 1_555
C104 O44 1_555 1_555
O15 C17 1_555 1_555
C29 C38 1_555 1_555
C36 C39 1_555 1_555
C41 C45 1_555 1_555
C50 C51 1_555 1_555
O27 C57 1_555 1_555
C76 C92 1_555 1_555
C80 C104 1_555 1_555
C86 C96 1_555 1_555
H27 C42 1_555 1_555
H28 C43 1_555 1_555
O47 Zn13 1_555 1_555
C66 C70 1_555 1_555
O49 H42 1_555 1_555
C70 O47 1_555 1_555
C73 C66 1_555 1_555
H45 C73 1_555 1_555
C78 C66 1_555 1_555
C79 O49 1_555 1_555
C84 C73 1_555 1_555
O50 C79 1_555 1_555
C85 C78 1_555 1_555
H52 C85 1_555 1_555
C98 C84 1_555 1_555
H66 C98 1_555 1_555
C42 C43 1_555 1_555
C79 C84 1_555 1_555
C85 C98 1_555 1_555
H36 O38 1_555 1_555
O23 C5 1_555 1_555
C1 C5 1_555 1_555
O28 C5 1_555 1_555
C11 C1 1_555 1_555
H6 C11 1_555 1_555
C20 C11 1_555 1_555
H9 C20 1_555 1_555
H5 C6 1_555 1_555
C7 O40 1_555 1_555
C12 C6 1_555 1_555
C23 C12 1_555 1_555
H12 C23 1_555 1_555
O52 C7 1_555 1_555
C7 C12 1_555 1_555

#END
