
###############################################################################
#
# This file contains modified crystal structure data generated from the
# MOF subset of the Cambridge Structural Database (CSD) v543 
# hosted by the Cambridge Crystallographic Data Centre (CCDC).
#
# This work is licensed under the Creative Commons
# Attribution-NonCommercial-ShareAlike 4.0 International License.
# To view a copy of this license, visit
# http://creativecommons.org/licenses/by-nc-sa/4.0/
# or send a letter to
# Creative Commons, PO Box 1866, Mountain View, CA 94042, USA.
#
# CIF created using the CSD Python API on 29 September 2022
# The structure has been converted into the P1 space group
# The structure has a 3D framework
# The original CSD entry DODJOY is in the triclinic crystal system
# The framework has been calculated to contain at least 10.0% void space
# The void calculation uses a probe of radius 1.32A, grid spacing 0.4
#
###############################################################################

data_DODJOY
_chemical_formula_moiety         '(C86 H62 Cd2 N12 O10 P2)n'
_symmetry_cell_setting           triclinic
_symmetry_space_group_name_H-M   'P 1'
_symmetry_Int_Tables_number      1
_space_group_name_Hall           'P 1'
loop_
_symmetry_equiv_pos_site_id
_symmetry_equiv_pos_as_xyz
1 x,y,z
_cell_length_a                   10.088(5)
_cell_length_b                   15.743(5)
_cell_length_c                   18.126(5)
_cell_angle_alpha                111.637(5)
_cell_angle_beta                 100.107(5)
_cell_angle_gamma                94.589(5)
_cell_volume                     2601.18
loop_
_atom_site_label
_atom_site_type_symbol
_atom_site_fract_x
_atom_site_fract_y
_atom_site_fract_z
_atom_site_U_iso_or_equiv
_atom_site_thermal_displace_type
C44 C 0.0465(5) 0.7383(3) 0.7207(2) 0.0889 Uani
H35 H 0.0037 0.5581 0.6331 0.2570 Uiso
O6 O 0.1502(4) 0.7072(2) 0.74097(19) 0.0924 Uani
O7 O 0.0399(3) 0.8239(2) 0.74437(18) 0.0926 Uani
Cd7 Cd 0.26043(2) 0.884742(12) 0.816828(11) 0.0404 Uani
H19 H 0.8621 0.3684 0.0311 0.0510 Uiso
C33 C 0.8857(3) 0.0781(2) 0.0272(2) 0.0525 Uani
H23 H 0.9135 0.0257 0.0332 0.0630 Uiso
C34 C 0.7946(3) 0.20007(19) 0.04738(17) 0.0420 Uani
H24 H 0.7480 0.2487 0.0696 0.0500 Uiso
N4 N 0.8106(2) 0.13390(16) 0.07329(15) 0.0440 Uani
Cd4 Cd 0.73957(2) 0.115258(12) 0.183172(11) 0.0404 Uani
C1 C 0.9535(5) 0.2617(3) 0.2793(2) 0.0889 Uani
H4 H 0.9963 0.4419 0.3669 0.2570 Uiso
C17 C 0.8494(4) 0.3585(2) 0.68935(19) 0.0543 Uani
C18 C 0.7121(5) 0.3279(4) 0.6573(2) 0.0935 Uani
H11 H 0.6517 0.3418 0.6919 0.1120 Uiso
C19 C 0.6622(5) 0.2778(4) 0.5761(3) 0.1000 Uani
H12 H 0.5686 0.2602 0.5559 0.1190 Uiso
C20 C 0.7471(5) 0.2538(3) 0.5252(2) 0.0738 Uani
C21 C 0.8847(6) 0.2825(5) 0.5556(3) 0.1274 Uani
H13 H 0.9445 0.2659 0.5209 0.1530 Uiso
C22 C 0.9355(5) 0.3362(4) 0.6380(3) 0.0996 Uani
C23 C 0.5583(7) 0.1612(6) 0.4016(3) 0.1754 Uani
H15 H 0.4847 0.1604 0.4260 0.2100 Uiso
C24 C 0.5582(8) 0.1229(6) 0.3210(3) 0.1702 Uani
H16 H 0.4811 0.0913 0.2802 0.2050 Uiso
C25 C 0.7621(5) 0.1863(3) 0.3801(2) 0.0769 Uani
H17 H 0.8543 0.2081 0.3890 0.0920 Uiso
C26 C 0.8762(3) 0.35565(19) 0.84961(17) 0.0415 Uani
C27 C 0.8708(3) 0.39522(19) 0.93077(17) 0.0424 Uani
H18 H 0.8722 0.4587 0.9553 0.0510 Uiso
C28 C 0.8634(3) 0.34124(19) 0.97623(17) 0.0426 Uani
C29 C 0.8578(3) 0.24589(18) 0.93835(16) 0.0398 Uani
C30 C 0.8568(4) 0.2055(2) 0.85628(19) 0.0565 Uani
H20 H 0.8490 0.1415 0.8307 0.0680 Uiso
C31 C 0.8674(4) 0.2600(2) 0.81240(19) 0.0568 Uani
H21 H 0.8687 0.2327 0.7575 0.0680 Uiso
C32 C 0.9143(4) 0.1102(2) 0.9711(2) 0.0573 Uani
H22 H 0.9640 0.0845 0.9319 0.0690 Uiso
C35 C 0.8289(3) 0.52482(19) 0.82453(16) 0.0410 Uani
C36 C 0.8979(3) 0.6098(2) 0.8354(2) 0.0503 Uani
H25 H 0.9890 0.6152 0.8321 0.0600 Uiso
C37 C 0.8330(3) 0.6865(2) 0.8510(2) 0.0538 Uani
H26 H 0.8802 0.7436 0.8593 0.0640 Uiso
C38 C 0.6959(3) 0.67723(19) 0.85416(17) 0.0433 Uani
C39 C 0.6926(3) 0.5174(2) 0.8303(2) 0.0500 Uani
H27 H 0.6463 0.4612 0.8248 0.0600 Uiso
C40 C 0.4957(3) 0.75459(19) 0.83525(19) 0.0474 Uani
H28 H 0.4345 0.7009 0.8027 0.0570 Uiso
C41 C 0.5821(3) 0.8963(2) 0.9042(2) 0.0618 Uani
H29 H 0.5907 0.9603 0.9292 0.0740 Uiso
C42 C 0.6838(4) 0.8476(2) 0.9101(2) 0.0678 Uani
H30 H 0.7738 0.8711 0.9380 0.0810 Uiso
C43 C 0.6262(3) 0.5938(2) 0.8442(2) 0.0509 Uani
H31 H 0.5348 0.5885 0.8467 0.0610 Uiso
N1 N 0.6937(4) 0.2020(3) 0.4398(2) 0.0875 Uani
N2 N 0.6847(5) 0.1365(3) 0.30767(19) 0.0901 Uani
N3 N 0.8544(2) 0.18900(16) 0.98383(14) 0.0426 Uani
N5 N 0.6279(2) 0.75581(15) 0.86647(15) 0.0454 Uani
N6 N 0.4638(2) 0.83880(16) 0.85653(16) 0.0477 Uani
O1 O 0.8498(4) 0.2928(2) 0.25903(19) 0.0924 Uani
O2 O 0.9601(3) 0.1761(2) 0.25563(18) 0.0926 Uani
P1 P 0.91929(8) 0.42741(5) 0.79659(5) 0.0435 Uani
N16 N 0.5362(2) 0.16120(16) 0.14347(16) 0.0477 Uani
C60 C 0.1506(4) 0.6415(2) 0.31065(19) 0.0543 Uani
C61 C 0.2879(5) 0.6721(4) 0.3427(2) 0.0935 Uani
H42 H 0.3483 0.6582 0.3081 0.1120 Uiso
C62 C 0.3378(5) 0.7222(4) 0.4239(3) 0.1000 Uani
H43 H 0.4314 0.7398 0.4441 0.1190 Uiso
C63 C 0.2529(5) 0.7462(3) 0.4748(2) 0.0738 Uani
C64 C 0.1153(6) 0.7175(5) 0.4444(3) 0.1274 Uani
H44 H 0.0555 0.7341 0.4791 0.1530 Uiso
C65 C 0.0645(5) 0.6638(4) 0.3620(3) 0.0996 Uani
C66 C 0.4417(7) 0.8388(6) 0.5984(3) 0.1754 Uani
H46 H 0.5153 0.8396 0.5740 0.2100 Uiso
C67 C 0.4418(8) 0.8771(6) 0.6790(3) 0.1702 Uani
H47 H 0.5189 0.9087 0.7198 0.2050 Uiso
C68 C 0.2379(5) 0.8137(3) 0.6199(2) 0.0769 Uani
H48 H 0.1457 0.7919 0.6110 0.0920 Uiso
C69 C 0.1238(3) 0.64435(19) 0.15039(17) 0.0415 Uani
C70 C 0.1292(3) 0.60478(19) 0.06923(17) 0.0424 Uani
H49 H 0.1278 0.5413 0.0447 0.0510 Uiso
C71 C 0.1366(3) 0.65876(19) 0.02377(17) 0.0426 Uani
C72 C 0.1422(3) 0.75411(18) 0.06165(16) 0.0398 Uani
C73 C 0.1432(4) 0.7945(2) 0.14372(19) 0.0565 Uani
H51 H 0.1510 0.8585 0.1693 0.0680 Uiso
C74 C 0.1326(4) 0.7400(2) 0.18760(19) 0.0568 Uani
H52 H 0.1313 0.7673 0.2425 0.0680 Uiso
C75 C 0.0857(4) 0.8898(2) 0.0289(2) 0.0573 Uani
H53 H 0.0360 0.9155 0.0681 0.0690 Uiso
C78 C 0.1711(3) 0.47518(19) 0.17547(16) 0.0410 Uani
C79 C 0.1021(3) 0.3902(2) 0.1646(2) 0.0503 Uani
H56 H 0.0110 0.3848 0.1679 0.0600 Uiso
C80 C 0.1670(3) 0.3135(2) 0.1490(2) 0.0538 Uani
H57 H 0.1198 0.2564 0.1407 0.0640 Uiso
C81 C 0.3041(3) 0.32277(19) 0.14584(17) 0.0433 Uani
C82 C 0.3074(3) 0.4826(2) 0.1697(2) 0.0500 Uani
H58 H 0.3537 0.5388 0.1752 0.0600 Uiso
C83 C 0.5043(3) 0.24541(19) 0.16475(19) 0.0474 Uani
H59 H 0.5655 0.2991 0.1973 0.0570 Uiso
C84 C 0.4179(3) 0.1037(2) 0.0958(2) 0.0618 Uani
H60 H 0.4093 0.0397 0.0708 0.0740 Uiso
C85 C 0.3162(4) 0.1524(2) 0.0899(2) 0.0678 Uani
H61 H 0.2262 0.1289 0.0620 0.0810 Uiso
C86 C 0.3738(3) 0.4062(2) 0.1558(2) 0.0509 Uani
H62 H 0.4652 0.4115 0.1533 0.0610 Uiso
N7 N 0.3063(4) 0.7980(3) 0.5602(2) 0.0875 Uani
N8 N 0.3153(5) 0.8635(3) 0.69233(19) 0.0901 Uani
N9 N 0.1456(2) 0.81100(16) 0.01617(14) 0.0426 Uani
N11 N 0.3721(2) 0.24419(15) 0.13353(15) 0.0454 Uani
P2 P 0.08071(8) 0.57259(5) 0.20341(5) 0.0435 Uani
N14 N 0.1894(2) 0.86610(16) 0.92671(15) 0.0440 Uani
H50 H 0.1379 0.6316 0.9689 0.0510 Uiso
C76 C 0.1143(3) 0.9219(2) 0.9728(2) 0.0525 Uani
H54 H 0.0865 0.9743 0.9668 0.0630 Uiso
C77 C 0.2054(3) 0.79993(19) 0.95262(17) 0.0420 Uani
H55 H 0.2520 0.7513 0.9304 0.0500 Uiso
C2 C 0.0789(9) 0.3274(5) 0.3330(5) 0.2140 Uani
C3 C 0.2058(9) 0.2927(5) 0.3355(5) 0.2140 Uani
H1 H 0.2058 0.2303 0.3060 0.2570 Uiso
C4 C 0.3315(9) 0.3502(5) 0.3814(5) 0.2140 Uani
H2 H 0.4149 0.3290 0.3804 0.2570 Uiso
C5 C 0.3193(9) 0.4467(5) 0.4310(5) 0.2140 Uani
C6 C 0.1946(9) 0.4788(5) 0.4252(5) 0.2140 Uani
H3 H 0.1895 0.5402 0.4557 0.2570 Uiso
C7 C 0.0775(9) 0.4186(5) 0.3736(5) 0.2140 Uani
C8 C 0.4365(8) 0.5126(5) 0.4936(5) 0.2140 Uani
H5 H 0.4235 0.5719 0.5247 0.2570 Uiso
H14 H 0.0287 0.3569 0.6579 0.1200 Uiso
O5 O 0.0698(2) 0.45767(17) 0.81505(15) 0.0606 Uani
C45 C 0.9211(9) 0.6726(5) 0.6670(5) 0.2140 Uani
C46 C 0.7942(9) 0.7073(5) 0.6645(5) 0.2140 Uani
H32 H 0.7942 0.7697 0.6940 0.2570 Uiso
C47 C 0.6685(9) 0.6498(5) 0.6186(5) 0.2140 Uani
H33 H 0.5851 0.6710 0.6196 0.2570 Uiso
C48 C 0.6807(9) 0.5533(5) 0.5690(5) 0.2140 Uani
C49 C 0.8054(9) 0.5212(5) 0.5748(5) 0.2140 Uani
H34 H 0.8105 0.4598 0.5443 0.2570 Uiso
C50 C 0.9225(9) 0.5814(5) 0.6264(5) 0.2140 Uani
C51 C 0.5635(8) 0.4874(5) 0.5064(5) 0.2140 Uani
H36 H 0.5765 0.4281 0.4753 0.2570 Uiso
H45 H 0.9713 0.6431 0.3421 0.1200 Uiso
O10 O 0.9302(2) 0.54233(17) 0.18495(15) 0.0606 Uani
C9 C 0.7103(4) 0.92135(18) 0.12369(18) 0.0503 Uani
C10 C 0.6730(3) 0.81767(17) 0.09526(18) 0.0454 Uani
C11 C 0.7671(3) 0.7629(2) 0.1058(3) 0.0716 Uani
H6 H 0.8578 0.7896 0.1294 0.0860 Uiso
C12 C 0.7297(3) 0.6685(2) 0.0819(3) 0.0749 Uani
H7 H 0.7959 0.6329 0.0898 0.0900 Uiso
C13 C 0.5968(3) 0.62616(17) 0.0468(2) 0.0487 Uani
C14 C 0.5036(3) 0.6820(2) 0.0325(3) 0.0783 Uani
H8 H 0.4145 0.6549 0.0048 0.0940 Uiso
C15 C 0.5396(3) 0.7759(2) 0.0582(3) 0.0746 Uani
H9 H 0.4736 0.8117 0.0507 0.0890 Uiso
C16 C 0.5592(3) 0.52551(18) 0.0206(2) 0.0538 Uani
H10 H 0.6273 0.4944 0.0350 0.0650 Uiso
O3 O 0.6176(3) 0.96834(14) 0.12732(17) 0.0703 Uani
O4 O 0.8331(3) 0.95696(16) 0.14181(17) 0.0744 Uani
C52 C 0.2897(4) 0.07865(18) 0.87631(18) 0.0503 Uani
C53 C 0.3270(3) 0.18233(17) 0.90474(18) 0.0454 Uani
C54 C 0.2329(3) 0.2371(2) 0.8942(3) 0.0716 Uani
H37 H 0.1422 0.2104 0.8706 0.0860 Uiso
C55 C 0.2703(3) 0.3315(2) 0.9181(3) 0.0749 Uani
H38 H 0.2041 0.3671 0.9102 0.0900 Uiso
C56 C 0.4032(3) 0.37384(17) 0.9532(2) 0.0487 Uani
C57 C 0.4964(3) 0.3180(2) 0.9675(3) 0.0783 Uani
H39 H 0.5855 0.3451 0.9952 0.0940 Uiso
C58 C 0.4604(3) 0.2241(2) 0.9418(3) 0.0746 Uani
H40 H 0.5264 0.1883 0.9493 0.0890 Uiso
C59 C 0.4408(3) 0.47449(18) 0.9794(2) 0.0538 Uani
H41 H 0.3727 0.5056 0.9650 0.0650 Uiso
O8 O 0.3824(3) 0.03166(14) 0.87268(17) 0.0703 Uani
O9 O 0.1669(3) 0.04304(16) 0.85819(17) 0.0744 Uani
loop_
_atom_site_aniso_label
_atom_site_aniso_U_11
_atom_site_aniso_U_22
_atom_site_aniso_U_33
_atom_site_aniso_U_23
_atom_site_aniso_U_13
_atom_site_aniso_U_12
C44 0.095 0.084 0.065 0.039 -0.031 -0.053
O6 0.101 0.074 0.0822 0.0331 -0.0176 -0.0261
O7 0.091 0.071 0.09 0.0366 -0.0344 -0.0355
Cd7 0.04865 0.02848 0.04117 0.01379 0.00373 0.00189
C33 0.067 0.0442 0.0656 0.0331 0.0299 0.0243
C34 0.0439 0.0423 0.0496 0.0244 0.0163 0.0167
N4 0.0446 0.0412 0.0543 0.0261 0.0142 0.0076
Cd4 0.04865 0.02848 0.04117 0.01379 0.00373 0.00189
C1 0.095 0.084 0.065 0.039 -0.031 -0.053
C17 0.08 0.0521 0.047 0.0288 0.0254 0.0285
C18 0.072 0.135 0.053 0.012 0.022 0.006
C19 0.086 0.134 0.057 0.014 0.018 0
C20 0.103 0.072 0.049 0.0228 0.027 0.01
C21 0.106 0.189 0.061 0.008 0.041 0.028
C22 0.075 0.149 0.06 0.016 0.029 0.027
C23 0.139 0.264 0.067 0.024 0.025 -0.086
C24 0.172 0.222 0.064 0.023 0.021 -0.088
C25 0.101 0.086 0.047 0.0258 0.024 0.017
C26 0.0426 0.0424 0.0468 0.0239 0.0105 0.014
C27 0.0486 0.0367 0.0447 0.0192 0.0088 0.0093
C28 0.0489 0.0442 0.0393 0.0201 0.0109 0.0123
C29 0.0397 0.0424 0.0449 0.024 0.0105 0.0124
C30 0.088 0.0397 0.0459 0.0186 0.0175 0.0168
C31 0.092 0.0479 0.0386 0.0203 0.0215 0.0229
C32 0.077 0.0499 0.069 0.036 0.0376 0.0336
C35 0.0455 0.0419 0.0416 0.0208 0.0107 0.015
C36 0.0382 0.048 0.0659 0.0222 0.0123 0.0111
C37 0.0441 0.0393 0.075 0.0193 0.0123 0.0066
C38 0.0447 0.0383 0.0477 0.018 0.0077 0.0102
C39 0.0498 0.0411 0.0688 0.0285 0.0191 0.0124
C40 0.0388 0.0364 0.0642 0.0182 0.0083 0.0048
C41 0.059 0.0353 0.075 0.0097 -0.001 0.0106
C42 0.0517 0.0375 0.09 0.0087 -0.0073 0.0034
C43 0.0414 0.0484 0.071 0.0281 0.019 0.0132
N1 0.112 0.092 0.0544 0.0254 0.0235 -0.002
N2 0.121 0.091 0.0488 0.0194 0.0244 -0.009
N3 0.0456 0.0405 0.0497 0.0238 0.0135 0.0136
N5 0.0435 0.0341 0.0548 0.0141 0.0077 0.0088
N6 0.0472 0.0351 0.0592 0.0171 0.0096 0.0094
O1 0.101 0.074 0.0822 0.0331 -0.0176 -0.0261
O2 0.091 0.071 0.09 0.0366 -0.0344 -0.0355
P1 0.0503 0.0459 0.0478 0.028 0.018 0.0189
N16 0.0472 0.0351 0.0592 0.0171 0.0096 0.0094
C60 0.08 0.0521 0.047 0.0288 0.0254 0.0285
C61 0.072 0.135 0.053 0.012 0.022 0.006
C62 0.086 0.134 0.057 0.014 0.018 0
C63 0.103 0.072 0.049 0.0228 0.027 0.01
C64 0.106 0.189 0.061 0.008 0.041 0.028
C65 0.075 0.149 0.06 0.016 0.029 0.027
C66 0.139 0.264 0.067 0.024 0.025 -0.086
C67 0.172 0.222 0.064 0.023 0.021 -0.088
C68 0.101 0.086 0.047 0.0258 0.024 0.017
C69 0.0426 0.0424 0.0468 0.0239 0.0105 0.014
C70 0.0486 0.0367 0.0447 0.0192 0.0088 0.0093
C71 0.0489 0.0442 0.0393 0.0201 0.0109 0.0123
C72 0.0397 0.0424 0.0449 0.024 0.0105 0.0124
C73 0.088 0.0397 0.0459 0.0186 0.0175 0.0168
C74 0.092 0.0479 0.0386 0.0203 0.0215 0.0229
C75 0.077 0.0499 0.069 0.036 0.0376 0.0336
C78 0.0455 0.0419 0.0416 0.0208 0.0107 0.015
C79 0.0382 0.048 0.0659 0.0222 0.0123 0.0111
C80 0.0441 0.0393 0.075 0.0193 0.0123 0.0066
C81 0.0447 0.0383 0.0477 0.018 0.0077 0.0102
C82 0.0498 0.0411 0.0688 0.0285 0.0191 0.0124
C83 0.0388 0.0364 0.0642 0.0182 0.0083 0.0048
C84 0.059 0.0353 0.075 0.0097 -0.001 0.0106
C85 0.0517 0.0375 0.09 0.0087 -0.0073 0.0034
C86 0.0414 0.0484 0.071 0.0281 0.019 0.0132
N7 0.112 0.092 0.0544 0.0254 0.0235 -0.002
N8 0.121 0.091 0.0488 0.0194 0.0244 -0.009
N9 0.0456 0.0405 0.0497 0.0238 0.0135 0.0136
N11 0.0435 0.0341 0.0548 0.0141 0.0077 0.0088
P2 0.0503 0.0459 0.0478 0.028 0.018 0.0189
N14 0.0446 0.0412 0.0543 0.0261 0.0142 0.0076
C76 0.067 0.0442 0.0656 0.0331 0.0299 0.0243
C77 0.0439 0.0423 0.0496 0.0244 0.0163 0.0167
C2 0.21 0.122 0.235 0.105 -0.16 -0.102
C3 0.21 0.122 0.235 0.105 -0.16 -0.102
C4 0.21 0.122 0.235 0.105 -0.16 -0.102
C5 0.21 0.122 0.235 0.105 -0.16 -0.102
C6 0.21 0.122 0.235 0.105 -0.16 -0.102
C7 0.21 0.122 0.235 0.105 -0.16 -0.102
C8 0.21 0.122 0.235 0.105 -0.16 -0.102
O5 0.0508 0.0684 0.0851 0.0476 0.0267 0.0223
C45 0.21 0.122 0.235 0.105 -0.16 -0.102
C46 0.21 0.122 0.235 0.105 -0.16 -0.102
C47 0.21 0.122 0.235 0.105 -0.16 -0.102
C48 0.21 0.122 0.235 0.105 -0.16 -0.102
C49 0.21 0.122 0.235 0.105 -0.16 -0.102
C50 0.21 0.122 0.235 0.105 -0.16 -0.102
C51 0.21 0.122 0.235 0.105 -0.16 -0.102
O10 0.0508 0.0684 0.0851 0.0476 0.0267 0.0223
C9 0.071 0.0264 0.0481 0.016 0.0012 -0.0026
C10 0.049 0.0252 0.0564 0.0146 0.0032 0
C11 0.042 0.0384 0.12 0.0263 -0.0046 -0.0019
C12 0.0465 0.0358 0.133 0.0335 -0.005 0.007
C13 0.0451 0.0249 0.073 0.0178 0.0093 0.0028
C14 0.0405 0.029 0.141 0.0211 -0.011 -0.0012
C15 0.0499 0.0291 0.127 0.0225 -0.008 0.008
C16 0.0516 0.0269 0.083 0.0225 0.0132 0.006
O3 0.0825 0.0285 0.0925 0.0201 0.0081 0.0097
O4 0.0716 0.0414 0.0973 0.0242 0.0034 -0.0146
C52 0.071 0.0264 0.0481 0.016 0.0012 -0.0026
C53 0.049 0.0252 0.0564 0.0146 0.0032 0
C54 0.042 0.0384 0.12 0.0263 -0.0046 -0.0019
C55 0.0465 0.0358 0.133 0.0335 -0.005 0.007
C56 0.0451 0.0249 0.073 0.0178 0.0093 0.0028
C57 0.0405 0.029 0.141 0.0211 -0.011 -0.0012
C58 0.0499 0.0291 0.127 0.0225 -0.008 0.008
C59 0.0516 0.0269 0.083 0.0225 0.0132 0.006
O8 0.0825 0.0285 0.0925 0.0201 0.0081 0.0097
O9 0.0716 0.0414 0.0973 0.0242 0.0034 -0.0146
loop_
_geom_bond_atom_site_label_1
_geom_bond_atom_site_label_2
_geom_bond_site_symmetry_1
_geom_bond_site_symmetry_2
O6 C44 1_555 1_555
O7 C44 1_555 1_555
Cd7 O6 1_555 1_555
O7 Cd7 1_555 1_555
H23 C33 1_555 1_555
C34 H24 1_555 1_555
N4 C33 1_555 1_555
Cd4 N4 1_555 1_555
C34 N4 1_555 1_555
C17 C18 1_555 1_555
C18 H11 1_555 1_555
C19 C18 1_555 1_555
H12 C19 1_555 1_555
C20 C19 1_555 1_555
C21 C20 1_555 1_555
H13 C21 1_555 1_555
C22 C17 1_555 1_555
C23 H15 1_555 1_555
C24 C23 1_555 1_555
H16 C24 1_555 1_555
C25 H17 1_555 1_555
C26 C27 1_555 1_555
C27 H18 1_555 1_555
C28 C27 1_555 1_555
C29 C28 1_555 1_555
C30 C29 1_555 1_555
H20 C30 1_555 1_555
C31 C26 1_555 1_555
H21 C31 1_555 1_555
C32 H22 1_555 1_555
C35 C36 1_555 1_555
C36 H25 1_555 1_555
C37 C36 1_555 1_555
H26 C37 1_555 1_555
C38 C37 1_555 1_555
C39 C35 1_555 1_555
H27 C39 1_555 1_555
C40 H28 1_555 1_555
C41 H29 1_555 1_555
C42 C41 1_555 1_555
H30 C42 1_555 1_555
C43 C38 1_555 1_555
H31 C43 1_555 1_555
N1 C20 1_555 1_555
N2 C24 1_555 1_555
N3 C29 1_555 1_555
N5 C38 1_555 1_555
N6 C40 1_555 1_555
O1 C1 1_555 1_555
O2 C1 1_555 1_555
Cd4 N2 1_555 1_555
P1 C17 1_555 1_555
N16 Cd4 1_555 1_555
Cd7 N6 1_555 1_555
C21 C22 1_555 1_555
C23 N1 1_555 1_555
C25 N1 1_555 1_555
C25 N2 1_555 1_555
C26 P1 1_555 1_555
C30 C31 1_555 1_555
C32 N3 1_555 1_555
C35 P1 1_555 1_555
C39 C43 1_555 1_555
C40 N5 1_555 1_555
C41 N6 1_555 1_555
C42 N5 1_555 1_555
O1 Cd4 1_555 1_555
O2 Cd4 1_555 1_555
C60 C61 1_555 1_555
C61 H42 1_555 1_555
C62 C61 1_555 1_555
H43 C62 1_555 1_555
C63 C62 1_555 1_555
C64 C63 1_555 1_555
H44 C64 1_555 1_555
C65 C60 1_555 1_555
C66 H46 1_555 1_555
C67 C66 1_555 1_555
H47 C67 1_555 1_555
C68 H48 1_555 1_555
C69 C70 1_555 1_555
C70 H49 1_555 1_555
C71 C70 1_555 1_555
C72 C71 1_555 1_555
C73 C72 1_555 1_555
H51 C73 1_555 1_555
C74 C69 1_555 1_555
H52 C74 1_555 1_555
C75 H53 1_555 1_555
C78 C79 1_555 1_555
C79 H56 1_555 1_555
C80 C79 1_555 1_555
H57 C80 1_555 1_555
C81 C80 1_555 1_555
C82 C78 1_555 1_555
H58 C82 1_555 1_555
C83 H59 1_555 1_555
C84 H60 1_555 1_555
C85 C84 1_555 1_555
H61 C85 1_555 1_555
C86 C81 1_555 1_555
H62 C86 1_555 1_555
N7 C63 1_555 1_555
N8 C67 1_555 1_555
N9 C72 1_555 1_555
N11 C81 1_555 1_555
N16 C83 1_555 1_555
P2 C60 1_555 1_555
N14 Cd7 1_555 1_555
C64 C65 1_555 1_555
C66 N7 1_555 1_555
C68 N7 1_555 1_555
C68 N8 1_555 1_555
C69 P2 1_555 1_555
C73 C74 1_555 1_555
C75 N9 1_555 1_555
C78 P2 1_555 1_555
C82 C86 1_555 1_555
C83 N11 1_555 1_555
C84 N16 1_555 1_555
C85 N11 1_555 1_555
N8 Cd7 1_555 1_555
H54 C76 1_555 1_555
C77 H55 1_555 1_555
N14 C76 1_555 1_555
C77 N14 1_555 1_555
C2 C3 1_555 1_555
C3 H1 1_555 1_555
C4 C3 1_555 1_555
H2 C4 1_555 1_555
C5 C4 1_555 1_555
C6 C5 1_555 1_555
H3 C6 1_555 1_555
C7 C2 1_555 1_555
C8 C5 1_555 1_555
H5 C8 1_555 1_555
C45 C46 1_555 1_555
C46 H32 1_555 1_555
C47 C46 1_555 1_555
H33 C47 1_555 1_555
C48 C47 1_555 1_555
C49 C48 1_555 1_555
H34 C49 1_555 1_555
C50 C45 1_555 1_555
C51 C8 1_555 1_555
H36 C51 1_555 1_555
C6 C7 1_555 1_555
C48 C51 1_555 1_555
C49 C50 1_555 1_555
C9 C10 1_555 1_555
C10 C11 1_555 1_555
C11 H6 1_555 1_555
C12 C11 1_555 1_555
H7 C12 1_555 1_555
C13 C12 1_555 1_555
C14 C13 1_555 1_555
H8 C14 1_555 1_555
C15 C10 1_555 1_555
H9 C15 1_555 1_555
C16 C13 1_555 1_555
H10 C16 1_555 1_555
O3 C9 1_555 1_555
O4 C9 1_555 1_555
C14 C15 1_555 1_555
C52 C53 1_555 1_555
C53 C54 1_555 1_555
C54 H37 1_555 1_555
C55 C54 1_555 1_555
H38 C55 1_555 1_555
C56 C55 1_555 1_555
C57 C56 1_555 1_555
H39 C57 1_555 1_555
C58 C53 1_555 1_555
H40 C58 1_555 1_555
H41 C59 1_555 1_555
O8 C52 1_555 1_555
O9 C52 1_555 1_555
C56 C59 1_555 1_555
C57 C58 1_555 1_555

#END
