
###############################################################################
#
# This file contains modified crystal structure data generated from the
# MOF subset of the Cambridge Structural Database (CSD) v543 
# hosted by the Cambridge Crystallographic Data Centre (CCDC).
#
# This work is licensed under the Creative Commons
# Attribution-NonCommercial-ShareAlike 4.0 International License.
# To view a copy of this license, visit
# http://creativecommons.org/licenses/by-nc-sa/4.0/
# or send a letter to
# Creative Commons, PO Box 1866, Mountain View, CA 94042, USA.
#
# CIF created using the CSD Python API on 29 September 2022
# The structure has been converted into the P1 space group
# The structure has a 3D framework
# The original CSD entry DOFHIS is in the orthorhombic crystal system
# The framework has been calculated to contain at least 10.0% void space
# The void calculation uses a probe of radius 1.32A, grid spacing 0.4
#
###############################################################################

data_DOFHIS
_chemical_formula_moiety         '(C376 H256 Cd8 N32 O32)n'
_symmetry_cell_setting           triclinic
_symmetry_space_group_name_H-M   'P 1'
_symmetry_Int_Tables_number      1
_space_group_name_Hall           'P 1'
loop_
_symmetry_equiv_pos_site_id
_symmetry_equiv_pos_as_xyz
1 x,y,z
_cell_length_a                   32.494(5)
_cell_length_b                   11.4352(16)
_cell_length_c                   26.211(4)
_cell_angle_alpha                90
_cell_angle_beta                 90
_cell_angle_gamma                90
_cell_volume                     9739.36
loop_
_atom_site_label
_atom_site_type_symbol
_atom_site_fract_x
_atom_site_fract_y
_atom_site_fract_z
Cd1 Cd 0.23351(2) 0.14815(3) 0.24061(2)
O1 O 0.24898(11) 0.1451(3) 0.14665(13)
O2 O 0.20253(11) 0.2622(3) 0.18021(12)
C2 C 0.21422(14) 0.4201(4) 0.00237(17)
C3 C 0.23203(15) 0.2424(4) 0.04740(18)
H1 H 0.243240 0.167567 0.046753
C4 C 0.21839(15) 0.2884(4) 0.09313(17)
H7 H 0.154147 0.007098 0.281524
C17 C 0.22929(15) 0.3056(4) 0.00268(17)
C21 C 0.22358(16) 0.2273(4) 0.14290(19)
C25 C 0.20143(15) 0.4007(4) 0.09287(17)
H15 H 0.191154 0.432575 0.122931
C27 C 0.19984(15) 0.4646(4) 0.04827(17)
H17 H 0.188826 0.539690 0.048992
O5 O 0.24591(11) 0.3085(3) 0.29009(13)
N5 N 0.29581(11) 0.0814(3) 0.26813(14)
O6 O 0.19767(12) 0.1940(3) 0.32077(13)
C1 C 0.21796(16) 0.6399(4) 0.86983(17)
O3 O 0.24591(11) 0.6915(3) 0.79009(13)
C6 C 0.18839(16) 0.6551(4) 0.90649(18)
H2 H 0.169321 0.715206 0.902843
C12 C 0.24607(16) 0.5492(5) 0.87631(19)
H6 H 0.266532 0.536993 0.852079
C16 C 0.24374(16) 0.4778(5) 0.91828(18)
H8 H 0.262690 0.417315 0.921449
H9 H 0.237619 0.271411 0.972190
O4 O 0.19767(12) 0.8060(3) 0.82077(13)
C28 C 0.21465(15) 0.4918(4) 0.95586(17)
C29 C 0.18628(16) 0.5828(4) 0.94905(18)
H18 H 0.165804 0.594880 0.973266
C36 C 0.22044(17) 0.7180(5) 0.82388(19)
Cd3 Cd 0.23351(2) 0.85185(3) 0.74061(2)
N2 N 0.79581(11) 0.5814(3) 0.23187(14)
C7 C 0.99757(16) 0.4230(5) 0.1594(2)
C8 C 0.85135(15) 0.4459(4) 0.23314(18)
H3 H 0.862680 0.378585 0.247237
C9 C 0.81422(15) 0.4870(4) 0.25142(17)
H4 H 0.801595 0.447690 0.278246
C13 C 0.91433(15) 0.4693(4) 0.1783(2)
C15 C 0.87181(14) 0.5023(4) 0.19467(18)
C19 C 0.93292(16) 0.3620(5) 0.1922(2)
H11 H 0.917180 0.304605 0.208077
C24 C 0.81499(16) 0.6328(4) 0.1924(2)
H14 H 0.802280 0.696851 0.177221
C26 C 0.85163(15) 0.5974(4) 0.1733(2)
H16 H 0.863289 0.636816 0.145843
C34 C 0.93865(17) 0.5492(5) 0.1525(2)
H23 H 0.927199 0.619224 0.141291
C39 C 0.97991(18) 0.5262(5) 0.1432(2)
H25 H 0.995807 0.580898 0.125775
C40 C 0.97353(17) 0.3416(5) 0.1828(2)
H26 H 0.985057 0.270535 0.192544
Cd2 Cd 0.73351(2) 0.64815(3) 0.25939(2)
Cd1_2 Cd 0.73351(2) 0.35185(3) 0.75939(2)
O1_2 O 0.74898(11) 0.3549(3) 0.85335(13)
N1 N 0.69324(12) 0.5102(3) 0.77387(15)
O2_2 O 0.70253(11) 0.2378(3) 0.81979(12)
N2_2 N 0.29581(11) 0.9186(3) 0.76813(14)
C2_2 C 0.71422(14) 0.0799(4) 0.99763(17)
C3_2 C 0.73203(15) 0.2576(4) 0.95260(18)
H1_2 H 0.743240 0.332433 0.953247
C4_2 C 0.71839(15) 0.2116(4) 0.90687(17)
C5 C 0.64339(15) 0.7038(4) 0.79842(18)
C10 C 0.58258(16) 0.8315(4) 0.7825(2)
H5 H 0.575368 0.784273 0.754984
C11 C 0.61737(15) 0.8041(4) 0.81060(19)
C14 C 0.6607(2) 0.5392(5) 0.7465(2)
H7_2 H 0.654147 0.492902 0.718476
C15_2 C 0.37181(14) 0.9977(4) 0.80533(18)
C17_2 C 0.72929(15) 0.1944(4) 0.99732(17)
C18 C 0.62656(16) 0.8779(4) 0.8507(2)
H10 H 0.650073 0.863433 0.869910
C20 C 0.56731(15) 0.9988(4) 0.8349(2)
C21_2 C 0.72358(16) 0.2727(4) 0.85710(19)
C22 C 0.55835(16) 0.9269(4) 0.7941(2)
H12 H 0.535466 0.943104 0.774028
C23 C 0.6364(2) 0.6323(5) 0.7568(2)
H13 H 0.614350 0.648594 0.735316
C24_2 C 0.31499(16) 0.8672(4) 0.8076(2)
H14_2 H 0.302280 0.803149 0.822779
C25_2 C 0.70143(15) 0.0993(4) 0.90713(17)
H15_2 H 0.691154 0.067425 0.877069
C26_2 C 0.35163(15) 0.9026(4) 0.8267(2)
H16_2 H 0.363289 0.863184 0.854157
C27_2 C 0.69984(15) 0.0354(4) 0.95173(17)
C31 C 0.60198(16) 0.9729(4) 0.8634(2)
C33 C 0.70096(15) 0.5794(4) 0.8130(2)
H22 H 0.723818 0.562596 0.833090
C34_2 C 0.43865(17) 0.9508(5) 0.8475(2)
H23_2 H 0.427199 0.880776 0.858709
C39_2 C 0.47991(18) 0.9738(5) 0.8568(2)
H25_2 H 0.495807 0.919102 0.874225
C42 C 0.67779(16) 0.6731(4) 0.8259(2)
H28 H 0.685308 0.717970 0.853970
O5_2 O 0.74591(11) 0.1915(3) 0.70991(13)
N5_2 N 0.79581(11) 0.4186(3) 0.73187(14)
O6_2 O 0.69767(12) 0.3060(3) 0.67923(13)
C1_2 C 0.71796(16) 0.8601(4) 0.13017(17)
O3_2 O 0.74591(11) 0.8085(3) 0.20991(13)
C6_2 C 0.68839(16) 0.8449(4) 0.09351(18)
H2_2 H 0.669321 0.784794 0.097157
C12_2 C 0.74607(16) 0.9508(5) 0.12369(19)
H6_2 H 0.766532 0.963007 0.147921
O4_2 O 0.69767(12) 0.6940(3) 0.17923(13)
C29_2 C 0.68628(16) 0.9172(4) 0.05095(18)
H18_2 H 0.665804 0.905120 0.026734
C36_2 C 0.72044(17) 0.7820(5) 0.17612(19)
C1_3 C 0.71796(16) 0.1399(4) 0.63017(17)
C6_3 C 0.68839(16) 0.1551(4) 0.59351(18)
H2_3 H 0.669321 0.215206 0.597157
C12_3 C 0.74607(16) 0.0492(5) 0.62369(19)
H6_3 H 0.766532 0.036993 0.647921
H17_2 H 0.688826 0.039690 0.451008
C29_3 C 0.68628(16) 0.0828(4) 0.55095(18)
H18_3 H 0.665804 0.094880 0.526734
C36_3 C 0.72044(17) 0.2180(5) 0.67612(19)
O1_3 O 0.74898(11) 0.6451(3) 0.35335(13)
N1_2 N 0.69324(12) 0.4898(3) 0.27387(15)
O2_3 O 0.70253(11) 0.7622(3) 0.31979(12)
C2_3 C 0.71422(14) 0.9201(4) 0.49763(17)
C3_3 C 0.73203(15) 0.7424(4) 0.45260(18)
H1_3 H 0.743240 0.667567 0.453247
C4_3 C 0.71839(15) 0.7884(4) 0.40687(17)
C5_2 C 0.64339(15) 0.2962(4) 0.29842(18)
C10_2 C 0.58258(16) 0.1685(4) 0.2825(2)
H5_2 H 0.575368 0.215727 0.254984
C11_2 C 0.61737(15) 0.1959(4) 0.31060(19)
C14_2 C 0.6607(2) 0.4608(5) 0.2465(2)
H7_3 H 0.654147 0.507098 0.218476
C15_3 C 0.37181(14) 0.0023(4) 0.30533(18)
C16_2 C 0.74374(16) 0.9778(5) 0.58172(18)
H8_2 H 0.762690 0.917315 0.578551
C17_3 C 0.72929(15) 0.8056(4) 0.49732(17)
H9_2 H 0.737619 0.771411 0.527810
C18_2 C 0.62656(16) 0.1221(4) 0.3507(2)
H10_2 H 0.650073 0.136567 0.369910
C20_2 C 0.56731(15) 0.0012(4) 0.3349(2)
C21_3 C 0.72358(16) 0.7273(4) 0.35710(19)
C22_2 C 0.55835(16) 0.0731(4) 0.2941(2)
H12_2 H 0.535466 0.056896 0.274028
C23_2 C 0.6364(2) 0.3677(5) 0.2568(2)
H13_2 H 0.614350 0.351406 0.235316
C24_3 C 0.31499(16) 0.1328(4) 0.3076(2)
H14_3 H 0.302280 0.196851 0.322779
C25_3 C 0.70143(15) 0.9007(4) 0.40713(17)
H15_3 H 0.691154 0.932575 0.377069
C26_3 C 0.35163(15) 0.0974(4) 0.3267(2)
H16_3 H 0.363289 0.136816 0.354157
C27_3 C 0.69984(15) 0.9646(4) 0.45173(17)
C28_2 C 0.71465(15) 0.9918(4) 0.54414(17)
C31_2 C 0.60198(16) 0.0271(4) 0.3634(2)
C33_2 C 0.70096(15) 0.4206(4) 0.3130(2)
H22_2 H 0.723818 0.437404 0.333090
C34_3 C 0.43865(17) 0.0492(5) 0.3475(2)
H23_3 H 0.427199 0.119224 0.358709
C39_3 C 0.47991(18) 0.0262(5) 0.3568(2)
H25_3 H 0.495807 0.080898 0.374225
C42_2 C 0.67779(16) 0.3269(4) 0.3259(2)
H28_2 H 0.685308 0.282030 0.353970
O1_4 O 0.24898(11) 0.8549(3) 0.64665(13)
C1_4 C 0.21796(16) 0.3601(4) 0.36983(17)
O2_4 O 0.20253(11) 0.7378(3) 0.68021(12)
C2_4 C 0.21422(14) 0.5799(4) 0.50237(17)
C3_4 C 0.23203(15) 0.7576(4) 0.54740(18)
H1_4 H 0.243240 0.832433 0.546753
C4_4 C 0.21839(15) 0.7116(4) 0.59313(17)
C6_4 C 0.18839(16) 0.3449(4) 0.40649(18)
H2_4 H 0.169321 0.284794 0.402843
C12_4 C 0.24607(16) 0.4508(5) 0.37631(19)
H6_4 H 0.266532 0.463007 0.352079
H7_4 H 0.154147 0.992902 0.781524
C16_3 C 0.24374(16) 0.5222(5) 0.41828(18)
H8_3 H 0.262690 0.582685 0.421449
C17_4 C 0.22929(15) 0.6944(4) 0.50268(17)
H9_3 H 0.237619 0.728589 0.472190
C21_4 C 0.22358(16) 0.7727(4) 0.64290(19)
C25_4 C 0.20143(15) 0.5993(4) 0.59287(17)
H15_4 H 0.191154 0.567425 0.622931
C27_4 C 0.19984(15) 0.5354(4) 0.54827(17)
H17_3 H 0.188826 0.460310 0.548992
C28_3 C 0.21465(15) 0.5082(4) 0.45586(17)
C29_4 C 0.18628(16) 0.4172(4) 0.44905(18)
H18_4 H 0.165804 0.405120 0.473266
C36_4 C 0.22044(17) 0.2820(5) 0.32388(19)
C7_2 C 0.99757(16) 0.5770(5) 0.6594(2)
C8_2 C 0.85135(15) 0.5541(4) 0.73314(18)
H3_2 H 0.862680 0.621415 0.747237
C9_2 C 0.81422(15) 0.5130(4) 0.75142(17)
H4_2 H 0.801595 0.552310 0.778246
C13_2 C 0.91433(15) 0.5307(4) 0.6783(2)
C15_4 C 0.87181(14) 0.4977(4) 0.69467(18)
C19_2 C 0.93292(16) 0.6380(5) 0.6922(2)
H11_2 H 0.917180 0.695395 0.708077
C24_4 C 0.81499(16) 0.3672(4) 0.6924(2)
H14_4 H 0.802280 0.303149 0.677221
C26_4 C 0.85163(15) 0.4026(4) 0.6733(2)
H16_4 H 0.863289 0.363184 0.645843
C34_4 C 0.93865(17) 0.4508(5) 0.6525(2)
H23_4 H 0.927199 0.380776 0.641291
C39_4 C 0.97991(18) 0.4738(5) 0.6432(2)
H25_4 H 0.995807 0.419102 0.625775
C40_2 C 0.97353(17) 0.6584(5) 0.6828(2)
H26_2 H 0.985057 0.729465 0.692544
N1_3 N 0.19324(12) 0.9898(3) 0.22613(15)
N3 N 0.04068(13) 0.4071(4) 0.15268(19)
C5_3 C 0.14339(15) 0.7962(4) 0.20158(18)
C10_3 C 0.08258(16) 0.6685(4) 0.2175(2)
H5_3 H 0.075368 0.715727 0.245016
C11_3 C 0.11737(15) 0.6959(4) 0.18940(19)
C14_3 C 0.1607(2) 0.9608(5) 0.2535(2)
C18_3 C 0.12656(16) 0.6221(4) 0.1493(2)
H10_3 H 0.150073 0.636567 0.130090
C20_3 C 0.06731(15) 0.5012(4) 0.1651(2)
C22_3 C 0.05835(16) 0.5731(4) 0.2059(2)
H12_3 H 0.035466 0.556896 0.225972
C23_3 C 0.1364(2) 0.8677(5) 0.2432(2)
H13_3 H 0.114350 0.851406 0.264684
C30 C 0.10862(18) 0.1524(5) 0.1276(2)
H19 H 0.134377 0.125074 0.137489
C31_3 C 0.10198(16) 0.5271(4) 0.1366(2)
H20 H 0.108885 0.480509 0.108787
C32 C 0.03274(16) 0.2349(5) 0.0990(2)
H21 H 0.007210 0.263070 0.088721
C33_3 C 0.20096(15) 0.9206(4) 0.1870(2)
H22_3 H 0.223818 0.937404 0.166910
C35 C 0.05584(16) 0.2994(4) 0.1333(2)
C37 C 0.09458(17) 0.2560(5) 0.1471(2)
H24 H 0.110926 0.298058 0.169706
C41 C 0.04661(19) 0.1306(5) 0.0800(2)
H27 H 0.030093 0.087967 0.057757
C42_3 C 0.17779(16) 0.8269(4) 0.1741(2)
H28_3 H 0.185308 0.782030 0.146030
C43 C 0.08545(19) 0.0874(5) 0.0936(3)
H30 H 0.161159 0.020514 0.061371
C38 C 0.1010(2) 0.9769(6) 0.0711(3)
C44 C 0.1545(3) 0.8547(9) 0.0369(4)
H29 H 0.182228 0.846486 0.028789
C45 C 0.1422(2) 0.9604(7) 0.0571(3)
C46 C 0.0925(4) 0.7811(7) 0.0407(4)
H31 H 0.074481 0.719503 0.034713
N4 N 0.1304(3) 0.7644(7) 0.0283(3)
C47 C 0.0754(2) 0.8834(6) 0.0626(3)
H32 H 0.047653 0.887171 0.070928
N3_2 N 0.45932(13) 0.0929(4) 0.65268(19)
C7_3 C 0.50243(16) 0.0770(5) 0.6594(2)
C8_3 C 0.64865(15) 0.0541(4) 0.73314(18)
H3_3 H 0.637320 0.121415 0.747237
C9_3 C 0.68578(15) 0.0130(4) 0.75142(17)
H4_3 H 0.698405 0.052310 0.778246
C13_3 C 0.58567(15) 0.0307(4) 0.6783(2)
C19_3 C 0.56708(16) 0.1380(5) 0.6922(2)
H11_3 H 0.582820 0.195395 0.708077
C30_2 C 0.39138(18) 0.3476(5) 0.6276(2)
H19_2 H 0.365623 0.374926 0.637489
H20_2 H 0.391115 0.019491 0.608787
C32_2 C 0.46726(16) 0.2651(5) 0.5990(2)
H21_2 H 0.492790 0.236930 0.588721
C35_2 C 0.44416(16) 0.2006(4) 0.6333(2)
C37_2 C 0.40542(17) 0.2440(5) 0.6471(2)
H24_2 H 0.389074 0.201942 0.669706
C38_2 C 0.3990(2) 0.5231(6) 0.5711(3)
C40_3 C 0.52647(17) 0.1584(5) 0.6828(2)
H26_3 H 0.514943 0.229465 0.692544
C41_2 C 0.45339(19) 0.3694(5) 0.5800(2)
H27_2 H 0.469907 0.412033 0.557757
C43_2 C 0.41455(19) 0.4126(5) 0.5936(3)
C44_2 C 0.3455(3) 0.6453(9) 0.5369(4)
H29_2 H 0.317772 0.653514 0.528789
C45_2 C 0.3578(2) 0.5396(7) 0.5571(3)
H30_2 H 0.338841 0.479486 0.561371
C46_2 C 0.4075(4) 0.7189(7) 0.5407(4)
H31_2 H 0.425519 0.780497 0.534713
N4_2 N 0.3696(3) 0.7356(7) 0.5283(3)
C47_2 C 0.4246(2) 0.6166(6) 0.5626(3)
H32_2 H 0.452347 0.612829 0.570928
Cd1_3 Cd 0.26649(2) 0.35185(3) 0.74061(2)
O1_5 O 0.25102(11) 0.3549(3) 0.64665(13)
N1_4 N 0.30676(12) 0.5102(3) 0.72613(15)
O2_5 O 0.29747(11) 0.2378(3) 0.68021(12)
N2_3 N 0.70419(11) 0.9186(3) 0.73187(14)
C2_5 C 0.28578(14) 0.0799(4) 0.50237(17)
C3_5 C 0.26797(15) 0.2576(4) 0.54740(18)
H1_5 H 0.256760 0.332433 0.546753
C4_5 C 0.28161(15) 0.2116(4) 0.59313(17)
C5_4 C 0.35661(15) 0.7038(4) 0.70158(18)
C10_4 C 0.41742(16) 0.8315(4) 0.7175(2)
H5_4 H 0.424632 0.784273 0.745016
C11_4 C 0.38263(15) 0.8041(4) 0.68940(19)
C14_4 C 0.3393(2) 0.5392(5) 0.7535(2)
H7_5 H 0.345853 0.492902 0.781524
C15_5 C 0.62819(14) 0.9977(4) 0.69467(18)
C16_4 C 0.25626(16) 0.0222(5) 0.41828(18)
H8_4 H 0.237310 0.082685 0.421449
C17_5 C 0.27071(15) 0.1944(4) 0.50268(17)
H9_4 H 0.262381 0.228589 0.472190
C18_4 C 0.37344(16) 0.8779(4) 0.6493(2)
H10_4 H 0.349927 0.863433 0.630090
C20_4 C 0.43269(15) 0.9988(4) 0.6651(2)
C21_5 C 0.27642(16) 0.2727(4) 0.64290(19)
C22_4 C 0.44165(16) 0.9269(4) 0.7059(2)
H12_4 H 0.464534 0.943104 0.725972
C23_4 C 0.3636(2) 0.6323(5) 0.7432(2)
H13_4 H 0.385650 0.648594 0.764684
C24_5 C 0.68501(16) 0.8672(4) 0.6924(2)
H14_5 H 0.697720 0.803149 0.677221
C25_5 C 0.29857(15) 0.0993(4) 0.59287(17)
H15_5 H 0.308846 0.067425 0.622931
C26_5 C 0.64837(15) 0.9026(4) 0.6733(2)
H16_5 H 0.636711 0.863184 0.645843
C27_5 C 0.30016(15) 0.0354(4) 0.54827(17)
C28_4 C 0.28535(15) 0.0082(4) 0.45586(17)
C31_4 C 0.39802(16) 0.9729(4) 0.6366(2)
C33_4 C 0.29904(15) 0.5794(4) 0.6870(2)
H22_4 H 0.276182 0.562596 0.666910
C34_5 C 0.56135(17) 0.9508(5) 0.6525(2)
H23_5 H 0.572801 0.880776 0.641291
C39_5 C 0.52009(18) 0.9738(5) 0.6432(2)
H25_5 H 0.504193 0.919102 0.625775
C42_4 C 0.32221(16) 0.6731(4) 0.6741(2)
H28_4 H 0.314692 0.717970 0.646030
Cd2_2 Cd 0.76649(2) 0.85185(3) 0.75939(2)
O5_3 O 0.25409(11) 0.1915(3) 0.79009(13)
N5_3 N 0.20419(11) 0.4186(3) 0.76813(14)
O6_3 O 0.30233(12) 0.3060(3) 0.82077(13)
C1_5 C 0.28204(16) 0.8601(4) 0.36983(17)
O3_3 O 0.25409(11) 0.8085(3) 0.29009(13)
C6_5 C 0.31161(16) 0.8449(4) 0.40649(18)
H2_5 H 0.330679 0.784794 0.402843
C12_5 C 0.25393(16) 0.9508(5) 0.37631(19)
H6_5 H 0.233468 0.963007 0.352079
O4_3 O 0.30233(12) 0.6940(3) 0.32077(13)
H17_4 H 0.311174 0.960310 0.548992
C29_5 C 0.31372(16) 0.9172(4) 0.44905(18)
H18_5 H 0.334196 0.905120 0.473266
C36_5 C 0.27956(17) 0.7820(5) 0.32388(19)
Cd3_2 Cd 0.26649(2) 0.64815(3) 0.24061(2)
N2_4 N 0.20419(11) 0.5814(3) 0.26813(14)
C7_4 C 0.00243(16) 0.4230(5) 0.3406(2)
C8_4 C 0.14865(15) 0.4459(4) 0.26686(18)
H3_4 H 0.137320 0.378585 0.252763
C9_4 C 0.18578(15) 0.4870(4) 0.24858(17)
H4_4 H 0.198405 0.447690 0.221754
C13_4 C 0.08567(15) 0.4693(4) 0.3217(2)
C15_6 C 0.12819(14) 0.5023(4) 0.30533(18)
C19_4 C 0.06708(16) 0.3620(5) 0.3078(2)
H11_4 H 0.082820 0.304605 0.291923
C24_6 C 0.18501(16) 0.6328(4) 0.3076(2)
H14_6 H 0.197720 0.696851 0.322779
C26_6 C 0.14837(15) 0.5974(4) 0.3267(2)
H16_6 H 0.136711 0.636816 0.354157
C34_6 C 0.06135(17) 0.5492(5) 0.3475(2)
H23_6 H 0.072801 0.619224 0.358709
C39_6 C 0.02009(18) 0.5262(5) 0.3568(2)
H25_6 H 0.004193 0.580898 0.374225
C40_4 C 0.02647(17) 0.3416(5) 0.3172(2)
H26_4 H 0.014943 0.270535 0.307456
Cd1_4 Cd 0.76649(2) 0.14815(3) 0.25939(2)
O1_6 O 0.75102(11) 0.1451(3) 0.35335(13)
C1_6 C 0.78204(16) 0.6399(4) 0.63017(17)
O2_6 O 0.79747(11) 0.2622(3) 0.31979(12)
O3_4 O 0.75409(11) 0.6915(3) 0.70991(13)
C2_6 C 0.78578(14) 0.4201(4) 0.49763(17)
C3_6 C 0.76797(15) 0.2424(4) 0.45260(18)
H1_6 H 0.756760 0.167567 0.453247
C4_6 C 0.78161(15) 0.2884(4) 0.40687(17)
C6_6 C 0.81161(16) 0.6551(4) 0.59351(18)
H2_6 H 0.830679 0.715206 0.597157
C12_6 C 0.75393(16) 0.5492(5) 0.62369(19)
H6_6 H 0.733468 0.536993 0.647921
H7_6 H 0.845853 0.007098 0.218476
C16_5 C 0.75626(16) 0.4778(5) 0.58172(18)
H8_5 H 0.737310 0.417315 0.578551
C17_6 C 0.77071(15) 0.3056(4) 0.49732(17)
H9_5 H 0.762381 0.271411 0.527810
O4_4 O 0.80233(12) 0.8060(3) 0.67923(13)
C21_6 C 0.77642(16) 0.2273(4) 0.35710(19)
C25_6 C 0.79857(15) 0.4007(4) 0.40713(17)
H15_6 H 0.808846 0.432575 0.377069
C27_6 C 0.80016(15) 0.4646(4) 0.45173(17)
H17_5 H 0.811174 0.539690 0.451008
C28_5 C 0.78535(15) 0.4918(4) 0.54414(17)
C29_6 C 0.81372(16) 0.5828(4) 0.55095(18)
H18_6 H 0.834196 0.594880 0.526734
C36_6 C 0.77956(17) 0.7180(5) 0.67612(19)
O5_4 O 0.75409(11) 0.3085(3) 0.20991(13)
N5_4 N 0.70419(11) 0.0814(3) 0.23187(14)
O6_4 O 0.80233(12) 0.1940(3) 0.17923(13)
C7_5 C 0.00243(16) 0.5770(5) 0.8406(2)
C8_5 C 0.14865(15) 0.5541(4) 0.76686(18)
H3_5 H 0.137320 0.621415 0.752763
C9_5 C 0.18578(15) 0.5130(4) 0.74858(17)
H4_5 H 0.198405 0.552310 0.721754
C13_5 C 0.08567(15) 0.5307(4) 0.8217(2)
C15_7 C 0.12819(14) 0.4977(4) 0.80533(18)
C19_5 C 0.06708(16) 0.6380(5) 0.8078(2)
H11_5 H 0.082820 0.695395 0.791923
C24_7 C 0.18501(16) 0.3672(4) 0.8076(2)
H14_7 H 0.197720 0.303149 0.822779
C26_7 C 0.14837(15) 0.4026(4) 0.8267(2)
H16_7 H 0.136711 0.363184 0.854157
C34_7 C 0.06135(17) 0.4508(5) 0.8475(2)
H23_7 H 0.072801 0.380776 0.858709
C39_7 C 0.02009(18) 0.4738(5) 0.8568(2)
H25_7 H 0.004193 0.419102 0.874225
C40_5 C 0.02647(17) 0.6584(5) 0.8172(2)
H26_5 H 0.014943 0.729465 0.807456
C1_7 C 0.78204(16) 0.3601(4) 0.13017(17)
C6_7 C 0.81161(16) 0.3449(4) 0.09351(18)
H2_7 H 0.830679 0.284794 0.097157
C12_7 C 0.75393(16) 0.4508(5) 0.12369(19)
H6_7 H 0.733468 0.463007 0.147921
C16_6 C 0.75626(16) 0.5222(5) 0.08172(18)
H8_6 H 0.737310 0.582685 0.078551
H9_6 H 0.762381 0.728589 0.027810
C28_6 C 0.78535(15) 0.5082(4) 0.04414(17)
C29_7 C 0.81372(16) 0.4172(4) 0.05095(18)
H18_7 H 0.834196 0.405120 0.026734
C36_7 C 0.77956(17) 0.2820(5) 0.17612(19)
O1_7 O 0.75102(11) 0.8549(3) 0.85335(13)
O2_7 O 0.79747(11) 0.7378(3) 0.81979(12)
C2_7 C 0.78578(14) 0.5799(4) 0.99763(17)
C3_7 C 0.76797(15) 0.7576(4) 0.95260(18)
H1_7 H 0.756760 0.832433 0.953247
C4_7 C 0.78161(15) 0.7116(4) 0.90687(17)
H7_7 H 0.845853 0.992902 0.718476
C17_7 C 0.77071(15) 0.6944(4) 0.99732(17)
C21_7 C 0.77642(16) 0.7727(4) 0.85710(19)
C25_7 C 0.79857(15) 0.5993(4) 0.90713(17)
H15_7 H 0.808846 0.567425 0.877069
C27_7 C 0.80016(15) 0.5354(4) 0.95173(17)
H17_6 H 0.811174 0.460310 0.951008
C1_8 C 0.28204(16) 0.1399(4) 0.86983(17)
C6_8 C 0.31161(16) 0.1551(4) 0.90649(18)
H2_8 H 0.330679 0.215206 0.902843
C12_8 C 0.25393(16) 0.0492(5) 0.87631(19)
H6_8 H 0.233468 0.036993 0.852079
C29_8 C 0.31372(16) 0.0828(4) 0.94905(18)
H18_8 H 0.334196 0.094880 0.973266
C36_8 C 0.27956(17) 0.2180(5) 0.82388(19)
O1_8 O 0.25102(11) 0.6451(3) 0.14665(13)
N1_5 N 0.30676(12) 0.4898(3) 0.22613(15)
O2_8 O 0.29747(11) 0.7622(3) 0.18021(12)
C2_8 C 0.28578(14) 0.9201(4) 0.00237(17)
C3_8 C 0.26797(15) 0.7424(4) 0.04740(18)
H1_8 H 0.256760 0.667567 0.046753
C4_8 C 0.28161(15) 0.7884(4) 0.09313(17)
C5_5 C 0.35661(15) 0.2962(4) 0.20158(18)
C10_5 C 0.41742(16) 0.1685(4) 0.2175(2)
H5_5 H 0.424632 0.215727 0.245016
C11_5 C 0.38263(15) 0.1959(4) 0.18940(19)
C14_5 C 0.3393(2) 0.4608(5) 0.2535(2)
H7_8 H 0.345853 0.507098 0.281524
C15_8 C 0.62819(14) 0.0023(4) 0.19467(18)
C17_8 C 0.27071(15) 0.8056(4) 0.00268(17)
C18_5 C 0.37344(16) 0.1221(4) 0.1493(2)
H10_5 H 0.349927 0.136567 0.130090
C20_5 C 0.43269(15) 0.0012(4) 0.1651(2)
C21_8 C 0.27642(16) 0.7273(4) 0.14290(19)
C22_5 C 0.44165(16) 0.0731(4) 0.2059(2)
H12_5 H 0.464534 0.056896 0.225972
C23_5 C 0.3636(2) 0.3677(5) 0.2432(2)
H13_5 H 0.385650 0.351406 0.264684
C24_8 C 0.68501(16) 0.1328(4) 0.1924(2)
H14_8 H 0.697720 0.196851 0.177221
C25_8 C 0.29857(15) 0.9007(4) 0.09287(17)
H15_8 H 0.308846 0.932575 0.122931
C26_8 C 0.64837(15) 0.0974(4) 0.1733(2)
H16_8 H 0.636711 0.136816 0.145843
C27_8 C 0.30016(15) 0.9646(4) 0.04827(17)
C31_5 C 0.39802(16) 0.0271(4) 0.1366(2)
C33_5 C 0.29904(15) 0.4206(4) 0.1870(2)
H22_5 H 0.276182 0.437404 0.166910
C34_8 C 0.56135(17) 0.0492(5) 0.1525(2)
H23_8 H 0.572801 0.119224 0.141291
C39_8 C 0.52009(18) 0.0262(5) 0.1432(2)
H25_8 H 0.504193 0.080898 0.125775
C42_5 C 0.32221(16) 0.3269(4) 0.1741(2)
H28_5 H 0.314692 0.282030 0.146030
N1_6 N 0.80676(12) 0.9898(3) 0.27387(15)
N3_3 N 0.95932(13) 0.4071(4) 0.34732(19)
C5_6 C 0.85661(15) 0.7962(4) 0.29842(18)
C10_6 C 0.91742(16) 0.6685(4) 0.2825(2)
H5_6 H 0.924632 0.715727 0.254984
C11_6 C 0.88263(15) 0.6959(4) 0.31060(19)
C14_6 C 0.8393(2) 0.9608(5) 0.2465(2)
C18_6 C 0.87344(16) 0.6221(4) 0.3507(2)
H10_6 H 0.849927 0.636567 0.369910
C20_6 C 0.93269(15) 0.5012(4) 0.3349(2)
C22_6 C 0.94165(16) 0.5731(4) 0.2941(2)
H12_6 H 0.964534 0.556896 0.274028
C23_6 C 0.8636(2) 0.8677(5) 0.2568(2)
H13_6 H 0.885650 0.851406 0.235316
C30_3 C 0.89138(18) 0.1524(5) 0.3724(2)
H19_3 H 0.865623 0.125074 0.362511
C31_6 C 0.89802(16) 0.5271(4) 0.3634(2)
H20_3 H 0.891115 0.480509 0.391213
C32_3 C 0.96726(16) 0.2349(5) 0.4010(2)
H21_3 H 0.992790 0.263070 0.411279
C33_6 C 0.79904(15) 0.9206(4) 0.3130(2)
H22_6 H 0.776182 0.937404 0.333090
C35_3 C 0.94416(16) 0.2994(4) 0.3667(2)
C37_3 C 0.90542(17) 0.2560(5) 0.3529(2)
H24_3 H 0.889074 0.298058 0.330294
C41_3 C 0.95339(19) 0.1306(5) 0.4200(2)
H27_3 H 0.969907 0.087967 0.442243
C42_6 C 0.82221(16) 0.8269(4) 0.3259(2)
H28_6 H 0.814692 0.782030 0.353970
C43_3 C 0.91455(19) 0.0874(5) 0.4064(3)
H30_3 H 0.838841 0.020514 0.438629
C38_3 C 0.8990(2) 0.9769(6) 0.4289(3)
C44_3 C 0.8455(3) 0.8547(9) 0.4631(4)
H29_3 H 0.817772 0.846486 0.471211
C45_3 C 0.8578(2) 0.9604(7) 0.4429(3)
C46_3 C 0.9075(4) 0.7811(7) 0.4593(4)
H31_3 H 0.925519 0.719503 0.465287
N4_3 N 0.8696(3) 0.7644(7) 0.4717(3)
C47_3 C 0.9246(2) 0.8834(6) 0.4374(3)
H32_3 H 0.952347 0.887171 0.429072
N3_4 N 0.54068(13) 0.0929(4) 0.84732(19)
C7_6 C 0.49757(16) 0.0770(5) 0.8406(2)
C8_6 C 0.35135(15) 0.0541(4) 0.76686(18)
H3_6 H 0.362680 0.121415 0.752763
C9_6 C 0.31422(15) 0.0130(4) 0.74858(17)
H4_6 H 0.301595 0.052310 0.721754
C13_6 C 0.41433(15) 0.0307(4) 0.8217(2)
C19_6 C 0.43292(16) 0.1380(5) 0.8078(2)
H11_6 H 0.417180 0.195395 0.791923
C30_4 C 0.60862(18) 0.3476(5) 0.8724(2)
H19_4 H 0.634377 0.374926 0.862511
H20_4 H 0.608885 0.019491 0.891213
C32_4 C 0.53274(16) 0.2651(5) 0.9010(2)
H21_4 H 0.507210 0.236930 0.911279
C35_4 C 0.55584(16) 0.2006(4) 0.8667(2)
C37_4 C 0.59458(17) 0.2440(5) 0.8529(2)
H24_4 H 0.610926 0.201942 0.830294
C38_4 C 0.6010(2) 0.5231(6) 0.9289(3)
C40_6 C 0.47353(17) 0.1584(5) 0.8172(2)
H26_6 H 0.485057 0.229465 0.807456
C41_4 C 0.54661(19) 0.3694(5) 0.9200(2)
H27_4 H 0.530093 0.412033 0.942243
C43_4 C 0.58545(19) 0.4126(5) 0.9064(3)
C44_4 C 0.6545(3) 0.6453(9) 0.9631(4)
H29_4 H 0.682228 0.653514 0.971211
C45_4 C 0.6422(2) 0.5396(7) 0.9429(3)
H30_4 H 0.661159 0.479486 0.938629
C46_4 C 0.5925(4) 0.7189(7) 0.9593(4)
H31_4 H 0.574481 0.780497 0.965287
N4_4 N 0.6304(3) 0.7356(7) 0.9717(3)
C47_4 C 0.5754(2) 0.6166(6) 0.9374(3)
H32_4 H 0.547653 0.612829 0.929072
C16_7 C 0.74374(16) 0.0222(5) 0.08172(18)
H8_7 H 0.762690 0.082685 0.078551
H9_7 H 0.737619 0.228589 0.027810
C28_7 C 0.71465(15) 0.0082(4) 0.04414(17)
H17_7 H 0.688826 0.960310 0.951008
C38_5 C 0.8990(2) 0.0231(6) 0.9289(3)
C44_5 C 0.8455(3) 0.1453(9) 0.9631(4)
H29_5 H 0.817772 0.153514 0.971211
C45_5 C 0.8578(2) 0.0396(7) 0.9429(3)
C46_5 C 0.9075(4) 0.2189(7) 0.9593(4)
H31_5 H 0.925519 0.280497 0.965287
N4_5 N 0.8696(3) 0.2356(7) 0.9717(3)
C47_5 C 0.9246(2) 0.1166(6) 0.9374(3)
H32_5 H 0.952347 0.112829 0.929072
N1_7 N 0.80676(12) 0.0102(3) 0.77387(15)
N3_5 N 0.95932(13) 0.5929(4) 0.84732(19)
C5_7 C 0.85661(15) 0.2038(4) 0.79842(18)
C10_7 C 0.91742(16) 0.3315(4) 0.7825(2)
H5_7 H 0.924632 0.284273 0.754984
C11_7 C 0.88263(15) 0.3041(4) 0.81060(19)
C14_7 C 0.8393(2) 0.0392(5) 0.7465(2)
C18_7 C 0.87344(16) 0.3779(4) 0.8507(2)
H10_7 H 0.849927 0.363433 0.869910
C20_7 C 0.93269(15) 0.4988(4) 0.8349(2)
C22_7 C 0.94165(16) 0.4269(4) 0.7941(2)
H12_7 H 0.964534 0.443104 0.774028
C23_7 C 0.8636(2) 0.1323(5) 0.7568(2)
H13_7 H 0.885650 0.148594 0.735316
C30_5 C 0.89138(18) 0.8476(5) 0.8724(2)
H19_5 H 0.865623 0.874926 0.862511
C31_7 C 0.89802(16) 0.4729(4) 0.8634(2)
H20_5 H 0.891115 0.519491 0.891213
C32_5 C 0.96726(16) 0.7651(5) 0.9010(2)
H21_5 H 0.992790 0.736930 0.911279
C33_7 C 0.79904(15) 0.0794(4) 0.8130(2)
H22_7 H 0.776182 0.062596 0.833090
C35_5 C 0.94416(16) 0.7006(4) 0.8667(2)
C37_5 C 0.90542(17) 0.7440(5) 0.8529(2)
H24_5 H 0.889074 0.701942 0.830294
C41_5 C 0.95339(19) 0.8694(5) 0.9200(2)
H27_5 H 0.969907 0.912033 0.942243
C42_7 C 0.82221(16) 0.1731(4) 0.8259(2)
H28_7 H 0.814692 0.217970 0.853970
C43_5 C 0.91455(19) 0.9126(5) 0.9064(3)
H30_5 H 0.838841 0.979486 0.938629
N3_6 N 0.54068(13) 0.9071(4) 0.34732(19)
C7_7 C 0.49757(16) 0.9230(5) 0.3406(2)
C8_7 C 0.35135(15) 0.9459(4) 0.26686(18)
H3_7 H 0.362680 0.878585 0.252763
C9_7 C 0.31422(15) 0.9870(4) 0.24858(17)
H4_7 H 0.301595 0.947690 0.221754
C13_7 C 0.41433(15) 0.9693(4) 0.3217(2)
C19_7 C 0.43292(16) 0.8620(5) 0.3078(2)
H11_7 H 0.417180 0.804605 0.291923
C30_6 C 0.60862(18) 0.6524(5) 0.3724(2)
H19_6 H 0.634377 0.625074 0.362511
H20_6 H 0.608885 0.980509 0.391213
C32_6 C 0.53274(16) 0.7349(5) 0.4010(2)
H21_6 H 0.507210 0.763070 0.411279
C35_6 C 0.55584(16) 0.7994(4) 0.3667(2)
C37_6 C 0.59458(17) 0.7560(5) 0.3529(2)
H24_6 H 0.610926 0.798058 0.330294
C38_6 C 0.6010(2) 0.4769(6) 0.4289(3)
C40_7 C 0.47353(17) 0.8416(5) 0.3172(2)
H26_7 H 0.485057 0.770535 0.307456
C41_6 C 0.54661(19) 0.6306(5) 0.4200(2)
H27_6 H 0.530093 0.587967 0.442243
C43_6 C 0.58545(19) 0.5874(5) 0.4064(3)
C44_6 C 0.6545(3) 0.3547(9) 0.4631(4)
H29_6 H 0.682228 0.346486 0.471211
C45_6 C 0.6422(2) 0.4604(7) 0.4429(3)
H30_6 H 0.661159 0.520514 0.438629
C46_6 C 0.5925(4) 0.2811(7) 0.4593(4)
H31_6 H 0.574481 0.219503 0.465287
N4_6 N 0.6304(3) 0.2644(7) 0.4717(3)
C47_6 C 0.5754(2) 0.3834(6) 0.4374(3)
H32_6 H 0.547653 0.387171 0.429072
C38_7 C 0.1010(2) 0.0231(6) 0.5711(3)
C44_7 C 0.1545(3) 0.1453(9) 0.5369(4)
H29_7 H 0.182228 0.153514 0.528789
C45_7 C 0.1422(2) 0.0396(7) 0.5571(3)
C46_7 C 0.0925(4) 0.2189(7) 0.5407(4)
H31_7 H 0.074481 0.280497 0.534713
N4_7 N 0.1304(3) 0.2356(7) 0.5283(3)
C47_7 C 0.0754(2) 0.1166(6) 0.5626(3)
H32_7 H 0.047653 0.112829 0.570928
N1_8 N 0.19324(12) 0.0102(3) 0.72613(15)
N3_7 N 0.04068(13) 0.5929(4) 0.65268(19)
C5_8 C 0.14339(15) 0.2038(4) 0.70158(18)
C10_8 C 0.08258(16) 0.3315(4) 0.7175(2)
H5_8 H 0.075368 0.284273 0.745016
C11_8 C 0.11737(15) 0.3041(4) 0.68940(19)
C14_8 C 0.1607(2) 0.0392(5) 0.7535(2)
C18_8 C 0.12656(16) 0.3779(4) 0.6493(2)
H10_8 H 0.150073 0.363433 0.630090
C20_8 C 0.06731(15) 0.4988(4) 0.6651(2)
C22_8 C 0.05835(16) 0.4269(4) 0.7059(2)
H12_8 H 0.035466 0.443104 0.725972
C23_8 C 0.1364(2) 0.1323(5) 0.7432(2)
H13_8 H 0.114350 0.148594 0.764684
C30_7 C 0.10862(18) 0.8476(5) 0.6276(2)
H19_7 H 0.134377 0.874926 0.637489
C31_8 C 0.10198(16) 0.4729(4) 0.6366(2)
H20_7 H 0.108885 0.519491 0.608787
C32_7 C 0.03274(16) 0.7651(5) 0.5990(2)
H21_7 H 0.007210 0.736930 0.588721
C33_8 C 0.20096(15) 0.0794(4) 0.6870(2)
H22_8 H 0.223818 0.062596 0.666910
C35_7 C 0.05584(16) 0.7006(4) 0.6333(2)
C37_7 C 0.09458(17) 0.7440(5) 0.6471(2)
H24_7 H 0.110926 0.701942 0.669706
C41_7 C 0.04661(19) 0.8694(5) 0.5800(2)
H27_7 H 0.030093 0.912033 0.557757
C42_8 C 0.17779(16) 0.1731(4) 0.6741(2)
H28_8 H 0.185308 0.217970 0.646030
C43_7 C 0.08545(19) 0.9126(5) 0.5936(3)
H30_7 H 0.161159 0.979486 0.561371
H17_8 H 0.311174 0.039690 0.048992
C16_8 C 0.25626(16) 0.9778(5) 0.91828(18)
H8_8 H 0.237310 0.917315 0.921449
H9_8 H 0.262381 0.771411 0.972190
C28_8 C 0.28535(15) 0.9918(4) 0.95586(17)
N3_8 N 0.45932(13) 0.9071(4) 0.15268(19)
C7_8 C 0.50243(16) 0.9230(5) 0.1594(2)
C8_8 C 0.64865(15) 0.9459(4) 0.23314(18)
H3_8 H 0.637320 0.878585 0.247237
C9_8 C 0.68578(15) 0.9870(4) 0.25142(17)
H4_8 H 0.698405 0.947690 0.278246
C13_8 C 0.58567(15) 0.9693(4) 0.1783(2)
C19_8 C 0.56708(16) 0.8620(5) 0.1922(2)
H11_8 H 0.582820 0.804605 0.208077
C30_8 C 0.39138(18) 0.6524(5) 0.1276(2)
H19_8 H 0.365623 0.625074 0.137489
H20_8 H 0.391115 0.980509 0.108787
C32_8 C 0.46726(16) 0.7349(5) 0.0990(2)
H21_8 H 0.492790 0.763070 0.088721
C35_8 C 0.44416(16) 0.7994(4) 0.1333(2)
C37_8 C 0.40542(17) 0.7560(5) 0.1471(2)
H24_8 H 0.389074 0.798058 0.169706
C38_8 C 0.3990(2) 0.4769(6) 0.0711(3)
C40_8 C 0.52647(17) 0.8416(5) 0.1828(2)
H26_8 H 0.514943 0.770535 0.192544
C41_8 C 0.45339(19) 0.6306(5) 0.0800(2)
H27_8 H 0.469907 0.587967 0.057757
C43_8 C 0.41455(19) 0.5874(5) 0.0936(3)
C44_8 C 0.3455(3) 0.3547(9) 0.0369(4)
H29_8 H 0.317772 0.346486 0.028789
C45_8 C 0.3578(2) 0.4604(7) 0.0571(3)
H30_8 H 0.338841 0.520514 0.061371
C46_8 C 0.4075(4) 0.2811(7) 0.0407(4)
H31_8 H 0.425519 0.219503 0.034713
N4_8 N 0.3696(3) 0.2644(7) 0.0283(3)
C47_8 C 0.4246(2) 0.3834(6) 0.0626(3)
H32_8 H 0.452347 0.387171 0.070928
loop_
_geom_bond_atom_site_label_1
_geom_bond_atom_site_label_2
_geom_bond_site_symmetry_1
_geom_bond_site_symmetry_2
Cd1 O1 1_555 1_555
O1 C21 1_555 1_555
O2 Cd1 1_555 1_555
C2 C17 1_555 1_555
C3 H1 1_555 1_555
C4 C3 1_555 1_555
C17 C3 1_555 1_555
C21 O2 1_555 1_555
C25 C4 1_555 1_555
H15 C25 1_555 1_555
C27 C2 1_555 1_555
H17 C27 1_555 1_555
O5 Cd1 1_555 1_555
N5 Cd1 1_555 1_555
O6 Cd1 1_555 1_555
C4 C21 1_555 1_555
C25 C27 1_555 1_555
C1 C6 1_555 1_555
O3 C36 1_555 1_555
C6 H2 1_555 1_555
C12 C1 1_555 1_555
H6 C12 1_555 1_555
C16 C12 1_555 1_555
H8 C16 1_555 1_555
O4 C36 1_555 1_555
C29 C6 1_555 1_555
H18 C29 1_555 1_555
C36 C1 1_555 1_555
Cd3 O3 1_555 1_555
C16 C28 1_555 1_555
O4 Cd3 1_555 1_555
C28 C29 1_555 1_555
N2 C9 1_555 1_555
C7 C39 1_555 1_555
C8 H3 1_555 1_555
C9 C8 1_555 1_555
H4 C9 1_555 1_555
C13 C15 1_555 1_555
C15 C8 1_555 1_555
C19 C13 1_555 1_555
H11 C19 1_555 1_555
C24 N2 1_555 1_555
H14 C24 1_555 1_555
C26 C15 1_555 1_555
H16 C26 1_555 1_555
C34 C13 1_555 1_555
H23 C34 1_555 1_555
C39 C34 1_555 1_555
H25 C39 1_555 1_555
C40 C7 1_555 1_555
H26 C40 1_555 1_555
Cd2 N2 1_555 1_555
C19 C40 1_555 1_555
C24 C26 1_555 1_555
Cd1_2 O1_2 1_555 1_555
O1_2 C21_2 1_555 1_555
N1 Cd1_2 1_555 1_555
O2_2 Cd1_2 1_555 1_555
C2_2 C17_2 1_555 1_555
C3_2 H1_2 1_555 1_555
C4_2 C3_2 1_555 1_555
C5 C11 1_555 1_555
C10 H5 1_555 1_555
C11 C10 1_555 1_555
C14 N1 1_555 1_555
H7_2 C14 1_555 1_555
C17_2 C3_2 1_555 1_555
C18 C11 1_555 1_555
H10 C18 1_555 1_555
C21_2 O2_2 1_555 1_555
C22 C10 1_555 1_555
H12 C22 1_555 1_555
C23 C5 1_555 1_555
H13 C23 1_555 1_555
C24_2 N2_2 1_555 1_555
H14_2 C24_2 1_555 1_555
C25_2 C4_2 1_555 1_555
H15_2 C25_2 1_555 1_555
C26_2 C15_2 1_555 1_555
H16_2 C26_2 1_555 1_555
C27_2 C2_2 1_555 1_555
C31 C18 1_555 1_555
C33 N1 1_555 1_555
H22 C33 1_555 1_555
H23_2 C34_2 1_555 1_555
C39_2 C34_2 1_555 1_555
H25_2 C39_2 1_555 1_555
C42 C5 1_555 1_555
H28 C42 1_555 1_555
Cd3 N2_2 1_555 1_555
O5_2 Cd1_2 1_555 1_555
N5_2 Cd1_2 1_555 1_555
O6_2 Cd1_2 1_555 1_555
C4_2 C21_2 1_555 1_555
C14 C23 1_555 1_555
C20 C22 1_555 1_555
C20 C31 1_555 1_555
C24_2 C26_2 1_555 1_555
C25_2 C27_2 1_555 1_555
C33 C42 1_555 1_555
C1_2 C6_2 1_555 1_555
O3_2 C36_2 1_555 1_555
C6_2 H2_2 1_555 1_555
C12_2 C1_2 1_555 1_555
H6_2 C12_2 1_555 1_555
O4_2 C36_2 1_555 1_555
C29_2 C6_2 1_555 1_555
H18_2 C29_2 1_555 1_555
C36_2 C1_2 1_555 1_555
Cd2 O3_2 1_555 1_555
O4_2 Cd2 1_555 1_555
C1_3 C6_3 1_555 1_555
O5_2 C36_3 1_555 1_555
C6_3 H2_3 1_555 1_555
C12_3 C1_3 1_555 1_555
H6_3 C12_3 1_555 1_555
O6_2 C36_3 1_555 1_555
C29_3 C6_3 1_555 1_555
H18_3 C29_3 1_555 1_555
C36_3 C1_3 1_555 1_555
Cd2 O1_3 1_555 1_555
O1_3 C21_3 1_555 1_555
N1_2 Cd2 1_555 1_555
O2_3 Cd2 1_555 1_555
C2_3 C17_3 1_555 1_555
C3_3 H1_3 1_555 1_555
C4_3 C3_3 1_555 1_555
C5_2 C11_2 1_555 1_555
C10_2 H5_2 1_555 1_555
C11_2 C10_2 1_555 1_555
C14_2 N1_2 1_555 1_555
H7_3 C14_2 1_555 1_555
H8_2 C16_2 1_555 1_555
C17_3 C3_3 1_555 1_555
H9_2 C17_3 1_555 1_555
C18_2 C11_2 1_555 1_555
H10_2 C18_2 1_555 1_555
C21_3 O2_3 1_555 1_555
C22_2 C10_2 1_555 1_555
H12_2 C22_2 1_555 1_555
C23_2 C5_2 1_555 1_555
H13_2 C23_2 1_555 1_555
C24_3 N5 1_555 1_555
H14_3 C24_3 1_555 1_555
C25_3 C4_3 1_555 1_555
H15_3 C25_3 1_555 1_555
C26_3 C15_3 1_555 1_555
H16_3 C26_3 1_555 1_555
C27_3 C2_3 1_555 1_555
C28_2 C2_3 1_555 1_555
C31_2 C18_2 1_555 1_555
C33_2 N1_2 1_555 1_555
H22_2 C33_2 1_555 1_555
H23_3 C34_3 1_555 1_555
C39_3 C34_3 1_555 1_555
H25_3 C39_3 1_555 1_555
C42_2 C5_2 1_555 1_555
H28_2 C42_2 1_555 1_555
C4_3 C21_3 1_555 1_555
C14_2 C23_2 1_555 1_555
C16_2 C28_2 1_555 1_555
C20_2 C22_2 1_555 1_555
C20_2 C31_2 1_555 1_555
C24_3 C26_3 1_555 1_555
C25_3 C27_3 1_555 1_555
C33_2 C42_2 1_555 1_555
Cd3 O1_4 1_555 1_555
O1_4 C21_4 1_555 1_555
C1_4 C6_4 1_555 1_555
O2_4 Cd3 1_555 1_555
O5 C36_4 1_555 1_555
C2_4 C17_4 1_555 1_555
C3_4 H1_4 1_555 1_555
C4_4 C3_4 1_555 1_555
C6_4 H2_4 1_555 1_555
C12_4 C1_4 1_555 1_555
H6_4 C12_4 1_555 1_555
C16_3 C12_4 1_555 1_555
H8_3 C16_3 1_555 1_555
C17_4 C3_4 1_555 1_555
H9_3 C17_4 1_555 1_555
O6 C36_4 1_555 1_555
C21_4 O2_4 1_555 1_555
C25_4 C4_4 1_555 1_555
H15_4 C25_4 1_555 1_555
C27_4 C2_4 1_555 1_555
H17_3 C27_4 1_555 1_555
C28_3 C2_4 1_555 1_555
C29_4 C6_4 1_555 1_555
H18_4 C29_4 1_555 1_555
C36_4 C1_4 1_555 1_555
C4_4 C21_4 1_555 1_555
C16_3 C28_3 1_555 1_555
C25_4 C27_4 1_555 1_555
C28_3 C29_4 1_555 1_555
N5_2 C9_2 1_555 1_555
C7_2 C39_4 1_555 1_555
C8_2 H3_2 1_555 1_555
C9_2 C8_2 1_555 1_555
H4_2 C9_2 1_555 1_555
C13_2 C15_4 1_555 1_555
C15_4 C8_2 1_555 1_555
C19_2 C13_2 1_555 1_555
H11_2 C19_2 1_555 1_555
C24_4 N5_2 1_555 1_555
H14_4 C24_4 1_555 1_555
C26_4 C15_4 1_555 1_555
H16_4 C26_4 1_555 1_555
C34_4 C13_2 1_555 1_555
H23_4 C34_4 1_555 1_555
C39_4 C34_4 1_555 1_555
H25_4 C39_4 1_555 1_555
C40_2 C7_2 1_555 1_555
H26_2 C40_2 1_555 1_555
C19_2 C40_2 1_555 1_555
C24_4 C26_4 1_555 1_555
C5_3 C11_3 1_555 1_555
C10_3 H5_3 1_555 1_555
C11_3 C10_3 1_555 1_555
C14_3 N1_3 1_555 1_555
C18_3 C11_3 1_555 1_555
H10_3 C18_3 1_555 1_555
C20_3 N3 1_555 1_555
C22_3 C10_3 1_555 1_555
H12_3 C22_3 1_555 1_555
C23_3 C5_3 1_555 1_555
H13_3 C23_3 1_555 1_555
C30 H19 1_555 1_555
C31_3 C18_3 1_555 1_555
H20 C31_3 1_555 1_555
C32 H21 1_555 1_555
C33_3 N1_3 1_555 1_555
H22_3 C33_3 1_555 1_555
C35 N3 1_555 1_555
C37 C30 1_555 1_555
H24 C37 1_555 1_555
C41 C32 1_555 1_555
H27 C41 1_555 1_555
C42_3 C5_3 1_555 1_555
H28_3 C42_3 1_555 1_555
C43 C30 1_555 1_555
C14_3 C23_3 1_555 1_555
C20_3 C22_3 1_555 1_555
C20_3 C31_3 1_555 1_555
C32 C35 1_555 1_555
C33_3 C42_3 1_555 1_555
C35 C37 1_555 1_555
C41 C43 1_555 1_555
C44 H29 1_555 1_555
C45 C38 1_555 1_555
C46 H31 1_555 1_555
N4 C44 1_555 1_555
C47 C38 1_555 1_555
H32 C47 1_555 1_555
C44 C45 1_555 1_555
C46 N4 1_555 1_555
C46 C47 1_555 1_555
N3_2 C7_3 1_555 1_555
C8_3 H3_3 1_555 1_555
C9_3 C8_3 1_555 1_555
H4_3 C9_3 1_555 1_555
C19_3 C13_3 1_555 1_555
H11_3 C19_3 1_555 1_555
C30_2 H19_2 1_555 1_555
C32_2 H21_2 1_555 1_555
C35_2 N3_2 1_555 1_555
C37_2 C30_2 1_555 1_555
H24_2 C37_2 1_555 1_555
C38_2 C43_2 1_555 1_555
C40_3 C7_3 1_555 1_555
H26_3 C40_3 1_555 1_555
C41_2 C32_2 1_555 1_555
H27_2 C41_2 1_555 1_555
C43_2 C30_2 1_555 1_555
C44_2 H29_2 1_555 1_555
C45_2 C38_2 1_555 1_555
H30_2 C45_2 1_555 1_555
C46_2 H31_2 1_555 1_555
N4_2 C44_2 1_555 1_555
C47_2 C38_2 1_555 1_555
H32_2 C47_2 1_555 1_555
C19_3 C40_3 1_555 1_555
C32_2 C35_2 1_555 1_555
C35_2 C37_2 1_555 1_555
C41_2 C43_2 1_555 1_555
C44_2 C45_2 1_555 1_555
C46_2 N4_2 1_555 1_555
C46_2 C47_2 1_555 1_555
Cd1_3 O1_5 1_555 1_555
O1_5 C21_5 1_555 1_555
N1_4 Cd1_3 1_555 1_555
O2_5 Cd1_3 1_555 1_555
C2_5 C17_5 1_555 1_555
C3_5 H1_5 1_555 1_555
C4_5 C3_5 1_555 1_555
C5_4 C11_4 1_555 1_555
C10_4 H5_4 1_555 1_555
C11_4 C10_4 1_555 1_555
C14_4 N1_4 1_555 1_555
H7_5 C14_4 1_555 1_555
H8_4 C16_4 1_555 1_555
C17_5 C3_5 1_555 1_555
H9_4 C17_5 1_555 1_555
C18_4 C11_4 1_555 1_555
H10_4 C18_4 1_555 1_555
C21_5 O2_5 1_555 1_555
C22_4 C10_4 1_555 1_555
H12_4 C22_4 1_555 1_555
C23_4 C5_4 1_555 1_555
H13_4 C23_4 1_555 1_555
C24_5 N2_3 1_555 1_555
H14_5 C24_5 1_555 1_555
C25_5 C4_5 1_555 1_555
H15_5 C25_5 1_555 1_555
C26_5 C15_5 1_555 1_555
H16_5 C26_5 1_555 1_555
C27_5 C2_5 1_555 1_555
C28_4 C2_5 1_555 1_555
C31_4 C18_4 1_555 1_555
C33_4 N1_4 1_555 1_555
H22_4 C33_4 1_555 1_555
H23_5 C34_5 1_555 1_555
C39_5 C34_5 1_555 1_555
H25_5 C39_5 1_555 1_555
C42_4 C5_4 1_555 1_555
H28_4 C42_4 1_555 1_555
Cd2_2 N2_3 1_555 1_555
O5_3 Cd1_3 1_555 1_555
N5_3 Cd1_3 1_555 1_555
O6_3 Cd1_3 1_555 1_555
C4_5 C21_5 1_555 1_555
C14_4 C23_4 1_555 1_555
C16_4 C28_4 1_555 1_555
C20_4 C22_4 1_555 1_555
C20_4 C31_4 1_555 1_555
C24_5 C26_5 1_555 1_555
C25_5 C27_5 1_555 1_555
C33_4 C42_4 1_555 1_555
C1_5 C6_5 1_555 1_555
O3_3 C36_5 1_555 1_555
C6_5 H2_5 1_555 1_555
C12_5 C1_5 1_555 1_555
H6_5 C12_5 1_555 1_555
O4_3 C36_5 1_555 1_555
C29_5 C6_5 1_555 1_555
H18_5 C29_5 1_555 1_555
C36_5 C1_5 1_555 1_555
Cd3_2 O3_3 1_555 1_555
O4_3 Cd3_2 1_555 1_555
N2_4 C9_4 1_555 1_555
C7_4 C39_6 1_555 1_555
C8_4 H3_4 1_555 1_555
C9_4 C8_4 1_555 1_555
H4_4 C9_4 1_555 1_555
C13_4 C15_6 1_555 1_555
C15_6 C8_4 1_555 1_555
C19_4 C13_4 1_555 1_555
H11_4 C19_4 1_555 1_555
C24_6 N2_4 1_555 1_555
H14_6 C24_6 1_555 1_555
C26_6 C15_6 1_555 1_555
H16_6 C26_6 1_555 1_555
C34_6 C13_4 1_555 1_555
H23_6 C34_6 1_555 1_555
C39_6 C34_6 1_555 1_555
H25_6 C39_6 1_555 1_555
C40_4 C7_4 1_555 1_555
H26_4 C40_4 1_555 1_555
Cd3_2 N2_4 1_555 1_555
C19_4 C40_4 1_555 1_555
C24_6 C26_6 1_555 1_555
Cd1_4 O1_6 1_555 1_555
O1_6 C21_6 1_555 1_555
C1_6 C6_6 1_555 1_555
O2_6 Cd1_4 1_555 1_555
O3_4 C36_6 1_555 1_555
C2_6 C17_6 1_555 1_555
C3_6 H1_6 1_555 1_555
C4_6 C3_6 1_555 1_555
C6_6 H2_6 1_555 1_555
C12_6 C1_6 1_555 1_555
H6_6 C12_6 1_555 1_555
C16_5 C12_6 1_555 1_555
H8_5 C16_5 1_555 1_555
C17_6 C3_6 1_555 1_555
H9_5 C17_6 1_555 1_555
O4_4 C36_6 1_555 1_555
C21_6 O2_6 1_555 1_555
C25_6 C4_6 1_555 1_555
H15_6 C25_6 1_555 1_555
C27_6 C2_6 1_555 1_555
H17_5 C27_6 1_555 1_555
C28_5 C2_6 1_555 1_555
C29_6 C6_6 1_555 1_555
H18_6 C29_6 1_555 1_555
C36_6 C1_6 1_555 1_555
Cd2_2 O3_4 1_555 1_555
O5_4 Cd1_4 1_555 1_555
N5_4 Cd1_4 1_555 1_555
O6_4 Cd1_4 1_555 1_555
C4_6 C21_6 1_555 1_555
C16_5 C28_5 1_555 1_555
O4_4 Cd2_2 1_555 1_555
C25_6 C27_6 1_555 1_555
C28_5 C29_6 1_555 1_555
N5_3 C9_5 1_555 1_555
C7_5 C39_7 1_555 1_555
C8_5 H3_5 1_555 1_555
C9_5 C8_5 1_555 1_555
H4_5 C9_5 1_555 1_555
C13_5 C15_7 1_555 1_555
C15_7 C8_5 1_555 1_555
C19_5 C13_5 1_555 1_555
H11_5 C19_5 1_555 1_555
C24_7 N5_3 1_555 1_555
H14_7 C24_7 1_555 1_555
C26_7 C15_7 1_555 1_555
H16_7 C26_7 1_555 1_555
C34_7 C13_5 1_555 1_555
H23_7 C34_7 1_555 1_555
C39_7 C34_7 1_555 1_555
H25_7 C39_7 1_555 1_555
C40_5 C7_5 1_555 1_555
H26_5 C40_5 1_555 1_555
C19_5 C40_5 1_555 1_555
C24_7 C26_7 1_555 1_555
C1_7 C6_7 1_555 1_555
O5_4 C36_7 1_555 1_555
C6_7 H2_7 1_555 1_555
C12_7 C1_7 1_555 1_555
H6_7 C12_7 1_555 1_555
C16_6 C12_7 1_555 1_555
H8_6 C16_6 1_555 1_555
O6_4 C36_7 1_555 1_555
C29_7 C6_7 1_555 1_555
H18_7 C29_7 1_555 1_555
C36_7 C1_7 1_555 1_555
C16_6 C28_6 1_555 1_555
C28_6 C29_7 1_555 1_555
Cd2_2 O1_7 1_555 1_555
O1_7 C21_7 1_555 1_555
O2_7 Cd2_2 1_555 1_555
C2_7 C17_7 1_555 1_555
C3_7 H1_7 1_555 1_555
C4_7 C3_7 1_555 1_555
C17_7 C3_7 1_555 1_555
C21_7 O2_7 1_555 1_555
C25_7 C4_7 1_555 1_555
H15_7 C25_7 1_555 1_555
C27_7 C2_7 1_555 1_555
H17_6 C27_7 1_555 1_555
C4_7 C21_7 1_555 1_555
C25_7 C27_7 1_555 1_555
C1_8 C6_8 1_555 1_555
O5_3 C36_8 1_555 1_555
C6_8 H2_8 1_555 1_555
C12_8 C1_8 1_555 1_555
H6_8 C12_8 1_555 1_555
O6_3 C36_8 1_555 1_555
C29_8 C6_8 1_555 1_555
H18_8 C29_8 1_555 1_555
C36_8 C1_8 1_555 1_555
Cd3_2 O1_8 1_555 1_555
O1_8 C21_8 1_555 1_555
N1_5 Cd3_2 1_555 1_555
O2_8 Cd3_2 1_555 1_555
C2_8 C17_8 1_555 1_555
C3_8 H1_8 1_555 1_555
C4_8 C3_8 1_555 1_555
C5_5 C11_5 1_555 1_555
C10_5 H5_5 1_555 1_555
C11_5 C10_5 1_555 1_555
C14_5 N1_5 1_555 1_555
H7_8 C14_5 1_555 1_555
C17_8 C3_8 1_555 1_555
C18_5 C11_5 1_555 1_555
H10_5 C18_5 1_555 1_555
C21_8 O2_8 1_555 1_555
C22_5 C10_5 1_555 1_555
H12_5 C22_5 1_555 1_555
C23_5 C5_5 1_555 1_555
H13_5 C23_5 1_555 1_555
C24_8 N5_4 1_555 1_555
H14_8 C24_8 1_555 1_555
C25_8 C4_8 1_555 1_555
H15_8 C25_8 1_555 1_555
C26_8 C15_8 1_555 1_555
H16_8 C26_8 1_555 1_555
C27_8 C2_8 1_555 1_555
C31_5 C18_5 1_555 1_555
C33_5 N1_5 1_555 1_555
H22_5 C33_5 1_555 1_555
H23_8 C34_8 1_555 1_555
C39_8 C34_8 1_555 1_555
H25_8 C39_8 1_555 1_555
C42_5 C5_5 1_555 1_555
H28_5 C42_5 1_555 1_555
C4_8 C21_8 1_555 1_555
C14_5 C23_5 1_555 1_555
C20_5 C22_5 1_555 1_555
C20_5 C31_5 1_555 1_555
C24_8 C26_8 1_555 1_555
C25_8 C27_8 1_555 1_555
C33_5 C42_5 1_555 1_555
C5_6 C11_6 1_555 1_555
C10_6 H5_6 1_555 1_555
C11_6 C10_6 1_555 1_555
C14_6 N1_6 1_555 1_555
C18_6 C11_6 1_555 1_555
H10_6 C18_6 1_555 1_555
C20_6 N3_3 1_555 1_555
C22_6 C10_6 1_555 1_555
H12_6 C22_6 1_555 1_555
C23_6 C5_6 1_555 1_555
H13_6 C23_6 1_555 1_555
C30_3 H19_3 1_555 1_555
C31_6 C18_6 1_555 1_555
H20_3 C31_6 1_555 1_555
C32_3 H21_3 1_555 1_555
C33_6 N1_6 1_555 1_555
H22_6 C33_6 1_555 1_555
C35_3 N3_3 1_555 1_555
C37_3 C30_3 1_555 1_555
H24_3 C37_3 1_555 1_555
C41_3 C32_3 1_555 1_555
H27_3 C41_3 1_555 1_555
C42_6 C5_6 1_555 1_555
H28_6 C42_6 1_555 1_555
C43_3 C30_3 1_555 1_555
C14_6 C23_6 1_555 1_555
C20_6 C22_6 1_555 1_555
C20_6 C31_6 1_555 1_555
C32_3 C35_3 1_555 1_555
C33_6 C42_6 1_555 1_555
C35_3 C37_3 1_555 1_555
C41_3 C43_3 1_555 1_555
C44_3 H29_3 1_555 1_555
C45_3 C38_3 1_555 1_555
C46_3 H31_3 1_555 1_555
N4_3 C44_3 1_555 1_555
C47_3 C38_3 1_555 1_555
H32_3 C47_3 1_555 1_555
C44_3 C45_3 1_555 1_555
C46_3 N4_3 1_555 1_555
C46_3 C47_3 1_555 1_555
N3_4 C7_6 1_555 1_555
C8_6 H3_6 1_555 1_555
C9_6 C8_6 1_555 1_555
H4_6 C9_6 1_555 1_555
C19_6 C13_6 1_555 1_555
H11_6 C19_6 1_555 1_555
C30_4 H19_4 1_555 1_555
C32_4 H21_4 1_555 1_555
C35_4 N3_4 1_555 1_555
C37_4 C30_4 1_555 1_555
H24_4 C37_4 1_555 1_555
C38_4 C43_4 1_555 1_555
C40_6 C7_6 1_555 1_555
H26_6 C40_6 1_555 1_555
C41_4 C32_4 1_555 1_555
H27_4 C41_4 1_555 1_555
C43_4 C30_4 1_555 1_555
C44_4 H29_4 1_555 1_555
C45_4 C38_4 1_555 1_555
H30_4 C45_4 1_555 1_555
C46_4 H31_4 1_555 1_555
N4_4 C44_4 1_555 1_555
C47_4 C38_4 1_555 1_555
H32_4 C47_4 1_555 1_555
C19_6 C40_6 1_555 1_555
C32_4 C35_4 1_555 1_555
C35_4 C37_4 1_555 1_555
C41_4 C43_4 1_555 1_555
C44_4 C45_4 1_555 1_555
C46_4 N4_4 1_555 1_555
C46_4 C47_4 1_555 1_555
H8_7 C16_7 1_555 1_555
C16_7 C28_7 1_555 1_555
C44_5 H29_5 1_555 1_555
C45_5 C38_5 1_555 1_555
C46_5 H31_5 1_555 1_555
N4_5 C44_5 1_555 1_555
C47_5 C38_5 1_555 1_555
H32_5 C47_5 1_555 1_555
C44_5 C45_5 1_555 1_555
C46_5 N4_5 1_555 1_555
C46_5 C47_5 1_555 1_555
C5_7 C11_7 1_555 1_555
C10_7 H5_7 1_555 1_555
C11_7 C10_7 1_555 1_555
C14_7 N1_7 1_555 1_555
C18_7 C11_7 1_555 1_555
H10_7 C18_7 1_555 1_555
C20_7 N3_5 1_555 1_555
C22_7 C10_7 1_555 1_555
H12_7 C22_7 1_555 1_555
C23_7 C5_7 1_555 1_555
H13_7 C23_7 1_555 1_555
C30_5 H19_5 1_555 1_555
C31_7 C18_7 1_555 1_555
H20_5 C31_7 1_555 1_555
C32_5 H21_5 1_555 1_555
C33_7 N1_7 1_555 1_555
H22_7 C33_7 1_555 1_555
C35_5 N3_5 1_555 1_555
C37_5 C30_5 1_555 1_555
H24_5 C37_5 1_555 1_555
C41_5 C32_5 1_555 1_555
H27_5 C41_5 1_555 1_555
C42_7 C5_7 1_555 1_555
H28_7 C42_7 1_555 1_555
C43_5 C30_5 1_555 1_555
C14_7 C23_7 1_555 1_555
C20_7 C22_7 1_555 1_555
C20_7 C31_7 1_555 1_555
C32_5 C35_5 1_555 1_555
C33_7 C42_7 1_555 1_555
C35_5 C37_5 1_555 1_555
C41_5 C43_5 1_555 1_555
N3_6 C7_7 1_555 1_555
C8_7 H3_7 1_555 1_555
C9_7 C8_7 1_555 1_555
H4_7 C9_7 1_555 1_555
C19_7 C13_7 1_555 1_555
H11_7 C19_7 1_555 1_555
C30_6 H19_6 1_555 1_555
C32_6 H21_6 1_555 1_555
C35_6 N3_6 1_555 1_555
C37_6 C30_6 1_555 1_555
H24_6 C37_6 1_555 1_555
C38_6 C43_6 1_555 1_555
C40_7 C7_7 1_555 1_555
H26_7 C40_7 1_555 1_555
C41_6 C32_6 1_555 1_555
H27_6 C41_6 1_555 1_555
C43_6 C30_6 1_555 1_555
C44_6 H29_6 1_555 1_555
C45_6 C38_6 1_555 1_555
H30_6 C45_6 1_555 1_555
C46_6 H31_6 1_555 1_555
N4_6 C44_6 1_555 1_555
C47_6 C38_6 1_555 1_555
H32_6 C47_6 1_555 1_555
C19_7 C40_7 1_555 1_555
C32_6 C35_6 1_555 1_555
C35_6 C37_6 1_555 1_555
C41_6 C43_6 1_555 1_555
C44_6 C45_6 1_555 1_555
C46_6 N4_6 1_555 1_555
C46_6 C47_6 1_555 1_555
C44_7 H29_7 1_555 1_555
C45_7 C38_7 1_555 1_555
C46_7 H31_7 1_555 1_555
N4_7 C44_7 1_555 1_555
C47_7 C38_7 1_555 1_555
H32_7 C47_7 1_555 1_555
C44_7 C45_7 1_555 1_555
C46_7 N4_7 1_555 1_555
C46_7 C47_7 1_555 1_555
C5_8 C11_8 1_555 1_555
C10_8 H5_8 1_555 1_555
C11_8 C10_8 1_555 1_555
C14_8 N1_8 1_555 1_555
C18_8 C11_8 1_555 1_555
H10_8 C18_8 1_555 1_555
C20_8 N3_7 1_555 1_555
C22_8 C10_8 1_555 1_555
H12_8 C22_8 1_555 1_555
C23_8 C5_8 1_555 1_555
H13_8 C23_8 1_555 1_555
C30_7 H19_7 1_555 1_555
C31_8 C18_8 1_555 1_555
H20_7 C31_8 1_555 1_555
C32_7 H21_7 1_555 1_555
C33_8 N1_8 1_555 1_555
H22_8 C33_8 1_555 1_555
C35_7 N3_7 1_555 1_555
C37_7 C30_7 1_555 1_555
H24_7 C37_7 1_555 1_555
C41_7 C32_7 1_555 1_555
H27_7 C41_7 1_555 1_555
C42_8 C5_8 1_555 1_555
H28_8 C42_8 1_555 1_555
C43_7 C30_7 1_555 1_555
C14_8 C23_8 1_555 1_555
C20_8 C22_8 1_555 1_555
C20_8 C31_8 1_555 1_555
C32_7 C35_7 1_555 1_555
C33_8 C42_8 1_555 1_555
C35_7 C37_7 1_555 1_555
C41_7 C43_7 1_555 1_555
H8_8 C16_8 1_555 1_555
C16_8 C28_8 1_555 1_555
N3_8 C7_8 1_555 1_555
C8_8 H3_8 1_555 1_555
C9_8 C8_8 1_555 1_555
H4_8 C9_8 1_555 1_555
C19_8 C13_8 1_555 1_555
H11_8 C19_8 1_555 1_555
C30_8 H19_8 1_555 1_555
C32_8 H21_8 1_555 1_555
C35_8 N3_8 1_555 1_555
C37_8 C30_8 1_555 1_555
H24_8 C37_8 1_555 1_555
C38_8 C43_8 1_555 1_555
C40_8 C7_8 1_555 1_555
H26_8 C40_8 1_555 1_555
C41_8 C32_8 1_555 1_555
H27_8 C41_8 1_555 1_555
C43_8 C30_8 1_555 1_555
C44_8 H29_8 1_555 1_555
C45_8 C38_8 1_555 1_555
H30_8 C45_8 1_555 1_555
C46_8 H31_8 1_555 1_555
N4_8 C44_8 1_555 1_555
C47_8 C38_8 1_555 1_555
H32_8 C47_8 1_555 1_555
C19_8 C40_8 1_555 1_555
C32_8 C35_8 1_555 1_555
C35_8 C37_8 1_555 1_555
C41_8 C43_8 1_555 1_555
C44_8 C45_8 1_555 1_555
C46_8 N4_8 1_555 1_555
C46_8 C47_8 1_555 1_555

#END
