
###############################################################################
#
# This file contains modified crystal structure data generated from the
# MOF subset of the Cambridge Structural Database (CSD) v543 
# hosted by the Cambridge Crystallographic Data Centre (CCDC).
#
# This work is licensed under the Creative Commons
# Attribution-NonCommercial-ShareAlike 4.0 International License.
# To view a copy of this license, visit
# http://creativecommons.org/licenses/by-nc-sa/4.0/
# or send a letter to
# Creative Commons, PO Box 1866, Mountain View, CA 94042, USA.
#
# CIF created using the CSD Python API on 29 September 2022
# The structure has been converted into the P1 space group
# The structure has a 3D framework
# The original CSD entry DOGMET is in the triclinic crystal system
# The framework has been calculated to contain at least 10.0% void space
# The void calculation uses a probe of radius 1.32A, grid spacing 0.4
# The framework is charged, counterions have been retained in the structure
# H atom positions have been added when not included in the experimental data
#
###############################################################################

data_DOGMET
_chemical_formula_moiety         '(C48 H96 Cl4 Cu4 Gd2 N16 O48 P16 6-)n'
_symmetry_cell_setting           triclinic
_symmetry_space_group_name_H-M   'P 1'
_symmetry_Int_Tables_number      1
_space_group_name_Hall           'P 1'
loop_
_symmetry_equiv_pos_site_id
_symmetry_equiv_pos_as_xyz
1 x,y,z
_cell_length_a                   13.302(4)
_cell_length_b                   13.352(4)
_cell_length_c                   19.894(4)
_cell_angle_alpha                95.63(7)
_cell_angle_beta                 104.80(6)
_cell_angle_gamma                117.75(6)
_cell_volume                     2924.34
loop_
_atom_site_label
_atom_site_type_symbol
_atom_site_fract_x
_atom_site_fract_y
_atom_site_fract_z
C17 C 0.0208(12) 0.1005(12) 0.2984(8)
H33 H 0.0290 0.1701 0.2835
H34 H 0.0967 0.1022 0.3063
H37 H 0.0578 0.1704 0.3982
H40 H 0.0109 0.0718 0.1670
Gd6 Gd 0.33814(3) 0.05395(3) 0.404601(17)
Gd11 Gd 0.18013(3) 0.96226(3) 0.095297(17)
P5 P 0.05787(18) 0.88314(18) 0.24193(11)
O1 O 0.0083(5) 0.8669(5) 0.9958(3)
O3 O 0.1590(6) 0.9514(5) 0.3128(3)
O7 O 0.0836(6) 0.9196(5) 0.1764(3)
O14 O 0.0127(6) 0.7490(5) 0.2301(3)
O24 O 0.0321(6) 0.3858(6) 0.9586(3)
O25 O 0.9917(5) 0.1331(5) 0.0042(3)
Gd2 Gd 0.81987(3) 0.03774(3) 0.904703(17)
Cu1 Cu 0.77260(9) 0.00226(9) 0.24741(5)
P1 P 0.8694(2) 0.07330(19) 0.49879(11)
P4 P 0.46318(18) 0.08922(17) 0.25632(10)
O5 O 0.4316(5) 0.0607(5) 0.32156(11)
O10 O 0.54326(10) 0.2242(5) 0.2694(3)
O15 O 0.3615(6) 0.04349(12) 0.1866(4)
O18 O 0.9937(6) 0.0841(6) 0.5250(4)
O23 O 0.8868(6) 0.1940(5) 0.5185(3)
N5 N 0.6808(7) 0.0951(6) 0.2486(4)
C3 C 0.5569(8) 0.0241(8) 0.2467(5)
N6 N 0.9290(7) 0.0021(7) 0.2454(6)
C6 C 0.8080(8) 0.0153(8) 0.4012(4)
N7 N 0.7441(8) 0.0050(7) 0.1420(4)
N8 N 0.8648(8) 0.0881(8) 0.3547(4)
C18 C 0.6910(16) 0.1450(15) 0.1877(9)
H35 H 0.7668 0.2190 0.2037
H36 H 0.6265 0.1620 0.1729
C19 C 0.9945(10) 0.0991(17) 0.3621(8)
H38 H 0.9956 0.0339 0.3792
C20 C 0.9282(13) 0.0220(11) 0.1648(8)
C21 C 0.8621(10) 0.0712(14) 0.1381(6)
H41 H 0.8565 0.0717 0.0886
H42 H 0.9011 0.1514 0.1659
C22 C 0.7589(13) 0.1865(11) 0.3246(11)
C23 C 0.687(2) 0.0794(15) 0.1285(6)
H43 H 0.7259 0.1320 0.1011
H44 H 0.6026 0.0281 0.0985
C24 C 0.8627(18) 0.1935(10) 0.3576(7)
H45 H 0.8899 0.2331 0.4078
H46 H 0.9215 0.2431 0.3375
O27 O 0.8410(6) 0.0486(5) 0.6872(3)
O29 O 0.9164(6) 0.0804(5) 0.8236(3)
O30 O 0.8234(6) 0.2103(5) 0.9084(3)
O32 O 0.6448(5) 0.1010(5) 0.5742(3)
H47 H 0.704654 0.162376 0.359391
H48 H 0.778678 0.272607 0.317055
Gd1 Gd 0.66186(3) 0.94605(3) 0.595399(17)
Cu2 Cu 0.74359(9) 0.48346(8) 0.75072(4)
Cl1 Cl 0.93926(19) 0.59707(17) 0.74292(11)
P2 P 0.63815(18) 0.19729(16) 0.54283(10)
Cl2 Cl 0.6451(2) 0.80416(19) 0.24565(12)
P3 P 0.87873(18) 0.80311(16) 0.94609(10)
P7 P 0.6104(2) 0.65315(19) 0.57958(12)
P8 P 0.8942(2) 0.34176(18) 0.93390(12)
O2 O 0.5142(5) 0.1707(5) 0.5005(3)
O4 O 0.6613(6) 0.7791(5) 0.6133(3)
O6 O 0.8383(5) 0.8751(5) 0.9057(3)
O13 O 0.7785(6) 0.9814(5) 0.5240(3)
O16 O 0.7194(5) 0.2343(5) 0.4949(3)
O17 O 0.6498(6) 0.6443(6) 0.5125(4)
O19 O 0.7922(5) 0.7406(5) 0.9880(3)
O20 O 0.4754(6) 0.5746(5) 0.5588(3)
O21 O 0.8637(6) 0.3913(5) 0.9926(3)
N1 N 0.6424(6) 0.5450(6) 0.6941(3)
N2 N 0.6392(6) 0.3344(5) 0.6614(3)
N3 N 0.7447(6) 0.5781(5) 0.8441(3)
N4 N 0.7554(6) 0.3723(5) 0.8116(3)
C1 C 0.6748(8) 0.3718(7) 0.8513(4)
H1 H 0.5935 0.3393 0.8177
H2 H 0.6720 0.3229 0.8846
C2 C 0.8778(7) 0.4089(7) 0.8586(4)
H3 H 0.9202 0.4929 0.8782
H4 H 0.9193 0.3940 0.8288
H5 H 0.5129 0.9649 0.2013
H6 H 0.5596 0.9833 0.2842
C4 C 0.5235(7) 0.4337(7) 0.6648(4)
H7 H 0.4628 0.4476 0.6358
H8 H 0.4985 0.4049 0.7041
C5 C 0.9269(7) 0.8909(7) 0.2462(4)
H9 H 0.9132 0.8702 0.2897
H10 H 0.8574 0.8310 0.2060
H11 H 0.8093 0.9434 0.3911
H12 H 0.7237 0.9939 0.3855
C7 C 0.8631(7) 0.6886(6) 0.8784(4)
H13 H 0.9221 0.6676 0.9004
H14 H 0.8861 0.7232 0.8402
C8 C 0.5339(8) 0.3428(7) 0.6191(4)
H15 H 0.5453 0.3652 0.5756
H16 H 0.4602 0.2673 0.6056
C9 C 0.7111(7) 0.3283(6) 0.6169(4)
H17 H 0.7355 0.3959 0.5970
H18 H 0.7842 0.3351 0.6484
C10 C 0.5994(8) 0.2359(7) 0.6958(4)
H19 H 0.5327 0.2282 0.7106
H20 H 0.5711 0.1637 0.6614
C11 C 0.7015(7) 0.2554(6) 0.7604(4)
H21 H 0.7634 0.2518 0.7448
H22 H 0.6715 0.1939 0.7848
C12 C 0.6411(8) 0.5947(7) 0.8161(4)
H23 H 0.6465 0.6545 0.8511
H24 H 0.5664 0.5224 0.8080
C13 C 0.7208(8) 0.4960(7) 0.8927(4)
H25 H 0.6612 0.4963 0.9122
H26 H 0.7948 0.5228 0.9326
C14 C 0.6399(8) 0.6312(7) 0.7455(4)
H27 H 0.5677 0.6352 0.7253
H28 H 0.7098 0.7082 0.7544
C15 C 0.6894(8) 0.5969(7) 0.6381(4)
H29 H 0.6926 0.5378 0.6077
H30 H 0.7721 0.6605 0.6623
C16 C 0.6628(8) 0.8876(7) 0.0920(4)
H31 H 0.5893 0.8520 0.1037
H32 H 0.7008 0.8416 0.1029
H39 H 0.8959 0.9470 0.1319
O26 O 0.4858(5) 0.8293(5) 0.4995(3)
O28 O 0.5684(5) 0.9393(5) 0.67844(11)
O31 O 0.7108(6) 0.9748(5) 0.9789(3)
O33 O 0.6385(6) 0.95651(12) 0.8134(4)
P6 P 0.6177(2) 0.8705(2) 0.99508(11)
O11 O 0.6013(6) 0.7539(6) 0.9637(4)
O22 O 0.4978(7) 0.8678(6) 0.9720(4)
P6_2 P 0.3823(2) 0.1295(2) 0.00492(11)
O9 O 0.2892(6) 0.0252(5) 0.0211(3)
O11_2 O 0.3987(6) 0.2461(6) 0.0363(4)
O22_2 O 0.5022(7) 0.1322(6) 0.0280(4)
Cu2_2 Cu 0.25641(9) 0.51654(8) 0.24928(4)
Cl1_2 Cl 0.06074(19) 0.40293(17) 0.25708(11)
P2_2 P 0.36185(18) 0.80271(16) 0.45717(10)
Cl2_2 Cl 0.3549(2) 0.19584(19) 0.75435(12)
P3_2 P 0.12127(18) 0.19689(16) 0.05391(10)
P7_2 P 0.3896(2) 0.34685(19) 0.42042(12)
P8_2 P 0.1058(2) 0.65824(18) 0.06610(12)
O4_2 O 0.3387(6) 0.2209(5) 0.3867(3)
O6_2 O 0.1617(5) 0.1249(5) 0.0943(3)
O8 O 0.1766(6) 0.7897(5) 0.0916(3)
O12 O 0.3552(5) 0.8990(5) 0.4258(3)
O13_2 O 0.2215(6) 0.0186(5) 0.4760(3)
O16_2 O 0.2806(5) 0.7657(5) 0.5051(3)
O17_2 O 0.3502(6) 0.3557(6) 0.4875(4)
O19_2 O 0.2078(5) 0.2594(5) 0.0120(3)
O20_2 O 0.5246(6) 0.4254(5) 0.4412(3)
O21_2 O 0.1363(6) 0.6087(5) 0.0074(3)
N1_2 N 0.3576(6) 0.4550(6) 0.3059(3)
N2_2 N 0.3608(6) 0.6656(5) 0.3386(3)
N3_2 N 0.2553(6) 0.4219(5) 0.1559(3)
N4_2 N 0.2446(6) 0.6277(5) 0.1884(3)
C1_2 C 0.3252(8) 0.6282(7) 0.1487(4)
H1_2 H 0.4065 0.6607 0.1823
H2_2 H 0.3280 0.6771 0.1154
C2_2 C 0.1222(7) 0.5911(7) 0.1414(4)
H3_2 H 0.0798 0.5071 0.1218
H4_2 H 0.0807 0.6060 0.1712
H5_2 H 0.4871 0.0351 0.7987
H6_2 H 0.4404 0.0167 0.7158
C4_2 C 0.4765(7) 0.5663(7) 0.3352(4)
H7_2 H 0.5372 0.5524 0.3642
H8_2 H 0.5015 0.5951 0.2959
C5_2 C 0.0731(7) 0.1091(7) 0.7538(4)
H9_2 H 0.0868 0.1298 0.7103
H10_2 H 0.1426 0.1690 0.7940
H11_2 H 0.1907 0.0566 0.6089
H12_2 H 0.2763 0.0061 0.6145
C7_2 C 0.1369(7) 0.3114(6) 0.1216(4)
H13_2 H 0.0779 0.3324 0.0996
H14_2 H 0.1139 0.2768 0.1598
C8_2 C 0.4661(8) 0.6572(7) 0.3809(4)
H15_2 H 0.4547 0.6348 0.4244
H16_2 H 0.5398 0.7327 0.3944
C9_2 C 0.2889(7) 0.6717(6) 0.3831(4)
H17_2 H 0.2645 0.6041 0.4030
H18_2 H 0.2158 0.6649 0.3516
C10_2 C 0.4006(8) 0.7641(7) 0.3042(4)
H19_2 H 0.4673 0.7718 0.2894
H20_2 H 0.4289 0.8363 0.3386
C11_2 C 0.2985(7) 0.7446(6) 0.2396(4)
H21_2 H 0.2366 0.7482 0.2552
H22_2 H 0.3285 0.8061 0.2152
C12_2 C 0.3589(8) 0.4053(7) 0.1839(4)
H23_2 H 0.3535 0.3455 0.1489
H24_2 H 0.4336 0.4776 0.1920
C13_2 C 0.2792(8) 0.5040(7) 0.1073(4)
H25_2 H 0.3388 0.5037 0.0878
H26_2 H 0.2052 0.4772 0.0674
C14_2 C 0.3601(8) 0.3688(7) 0.2545(4)
H27_2 H 0.4323 0.3648 0.2747
H28_2 H 0.2902 0.2918 0.2456
C15_2 C 0.3106(8) 0.4031(7) 0.3619(4)
H29_2 H 0.3074 0.4622 0.3923
H30_2 H 0.2279 0.3395 0.3377
C16_2 C 0.3372(8) 0.1124(7) 0.9080(4)
H31_2 H 0.4107 0.1480 0.8963
H32_2 H 0.2992 0.1584 0.8971
H39_2 H 0.1041 0.0530 0.8681
Cu1_2 Cu 0.22740(9) 0.99774(9) 0.75259(5)
P1_2 P 0.1306(2) 0.92670(19) 0.50121(11)
P4_2 P 0.53682(18) 0.91078(17) 0.74368(10)
O10_2 O 0.45674(10) 0.7758(5) 0.7306(3)
O18_2 O 0.0063(6) 0.9159(6) 0.4750(4)
O23_2 O 0.1132(6) 0.8060(5) 0.4815(3)
N5_2 N 0.3192(7) 0.9049(6) 0.7514(4)
C3_2 C 0.4431(8) 0.9759(8) 0.7533(5)
N6_2 N 0.0710(7) 0.9979(7) 0.7546(6)
C6_2 C 0.1920(8) 0.9847(8) 0.5988(4)
N7_2 N 0.2559(8) 0.9950(7) 0.8580(4)
N8_2 N 0.1352(8) 0.9119(8) 0.6453(4)
C18_2 C 0.3090(16) 0.8550(15) 0.8123(9)
H35_2 H 0.2332 0.7810 0.7963
H36_2 H 0.3735 0.8380 0.8271
C19_2 C 0.0055(10) 0.9009(17) 0.6379(8)
H38_2 H 0.0044 0.9661 0.6208
C20_2 C 0.0718(13) 0.9780(11) 0.8352(8)
C21_2 C 0.1379(10) 0.9288(14) 0.8619(6)
H41_2 H 0.1435 0.9283 0.9114
H42_2 H 0.0989 0.8486 0.8341
C22_2 C 0.2411(13) 0.8135(11) 0.6754(11)
C23_2 C 0.313(2) 0.9206(15) 0.8715(6)
H43_2 H 0.2741 0.8680 0.8989
H44_2 H 0.3974 0.9719 0.9015
C24_2 C 0.1373(18) 0.8065(10) 0.6424(7)
H45_2 H 0.1101 0.7669 0.5922
H46_2 H 0.0785 0.7569 0.6625
H47_2 H 0.295346 0.837624 0.640609
H48_2 H 0.221322 0.727393 0.682945
P5_2 P 0.94213(18) 0.11686(18) 0.75807(11)
O14_2 O 0.9873(6) 0.2510(5) 0.7699(3)
O24_2 O 0.9679(6) 0.6142(6) 0.0414(3)
C17_2 C 0.9792(12) 0.8995(12) 0.7016(8)
H33_2 H 0.9710 0.8299 0.7165
H34_2 H 0.9033 0.8978 0.6937
H37_2 H 0.9422 0.8296 0.6018
H40_2 H 0.9891 0.9282 0.8330
loop_
_geom_bond_atom_site_label_1
_geom_bond_atom_site_label_2
_geom_bond_site_symmetry_1
_geom_bond_site_symmetry_2
H33 C17 1_555 1_555
H34 C17 1_555 1_555
P5 O3 1_555 1_555
O7 P5 1_555 1_555
O14 P5 1_555 1_555
Gd11 O7 1_555 1_555
P4 O5 1_555 1_555
O5 Gd6 1_555 1_555
O10 P4 1_555 1_555
O15 P4 1_555 1_555
O18 P1 1_555 1_555
O23 P1 1_555 1_555
N5 Cu1 1_555 1_555
C3 P4 1_555 1_555
N6 Cu1 1_555 1_555
C6 P1 1_555 1_555
N7 Cu1 1_555 1_555
N8 Cu1 1_555 1_555
C18 N5 1_555 1_555
H35 C18 1_555 1_555
H36 C18 1_555 1_555
C19 N8 1_555 1_555
H38 C19 1_555 1_555
C20 N6 1_555 1_555
C21 N7 1_555 1_555
H41 C21 1_555 1_555
H42 C21 1_555 1_555
C22 N5 1_555 1_555
C23 N7 1_555 1_555
H43 C23 1_555 1_555
H44 C23 1_555 1_555
C24 N8 1_555 1_555
H45 C24 1_555 1_555
H46 C24 1_555 1_555
O29 Gd2 1_555 1_555
O30 Gd2 1_555 1_555
N5 C3 1_555 1_555
C6 N8 1_555 1_555
C18 C23 1_555 1_555
C20 C21 1_555 1_555
C22 C24 1_555 1_555
C22 H47 1_555 1_555
C22 H48 1_555 1_555
Gd1 O4 1_555 1_555
Cu2 Cl1 1_555 1_555
P2 O2 1_555 1_555
P7 O4 1_555 1_555
P8 O30 1_555 1_555
O2 Gd6 1_555 1_555
O6 P3 1_555 1_555
O32 P2 1_555 1_555
O13 Gd1 1_555 1_555
O16 P2 1_555 1_555
O17 P7 1_555 1_555
O19 P3 1_555 1_555
O20 P7 1_555 1_555
O21 P8 1_555 1_555
N1 Cu2 1_555 1_555
N2 Cu2 1_555 1_555
N3 Cu2 1_555 1_555
N4 Cu2 1_555 1_555
C1 N4 1_555 1_555
H1 C1 1_555 1_555
H2 C1 1_555 1_555
C2 P8 1_555 1_555
H3 C2 1_555 1_555
H4 C2 1_555 1_555
C4 N1 1_555 1_555
H7 C4 1_555 1_555
H8 C4 1_555 1_555
H9 C5 1_555 1_555
H10 C5 1_555 1_555
C7 P3 1_555 1_555
H13 C7 1_555 1_555
H14 C7 1_555 1_555
C8 N2 1_555 1_555
H15 C8 1_555 1_555
H16 C8 1_555 1_555
C9 P2 1_555 1_555
H17 C9 1_555 1_555
H18 C9 1_555 1_555
C10 N2 1_555 1_555
H19 C10 1_555 1_555
H20 C10 1_555 1_555
C11 N4 1_555 1_555
H21 C11 1_555 1_555
H22 C11 1_555 1_555
C12 N3 1_555 1_555
H23 C12 1_555 1_555
H24 C12 1_555 1_555
C13 N3 1_555 1_555
H25 C13 1_555 1_555
H26 C13 1_555 1_555
C14 N1 1_555 1_555
H27 C14 1_555 1_555
H28 C14 1_555 1_555
C15 P7 1_555 1_555
H29 C15 1_555 1_555
H30 C15 1_555 1_555
H31 C16 1_555 1_555
H32 C16 1_555 1_555
O26 Gd1 1_555 1_555
O28 Gd1 1_555 1_555
N1 C15 1_555 1_555
N2 C9 1_555 1_555
N3 C7 1_555 1_555
N4 C2 1_555 1_555
C1 C13 1_555 1_555
C4 C8 1_555 1_555
C10 C11 1_555 1_555
C12 C14 1_555 1_555
P6 O31 1_555 1_555
O11 P6 1_555 1_555
O22 P6 1_555 1_555
P6_2 O9 1_555 1_555
O11_2 P6_2 1_555 1_555
O22_2 P6_2 1_555 1_555
Gd6 O4_2 1_555 1_555
Cu2_2 Cl1_2 1_555 1_555
P2_2 O26 1_555 1_555
P7_2 O4_2 1_555 1_555
P8_2 O8 1_555 1_555
O6_2 P3_2 1_555 1_555
O8 Gd11 1_555 1_555
O12 P2_2 1_555 1_555
O13_2 Gd6 1_555 1_555
O16_2 P2_2 1_555 1_555
O17_2 P7_2 1_555 1_555
O19_2 P3_2 1_555 1_555
O20_2 P7_2 1_555 1_555
O21_2 P8_2 1_555 1_555
N1_2 Cu2_2 1_555 1_555
N2_2 Cu2_2 1_555 1_555
N3_2 Cu2_2 1_555 1_555
N4_2 Cu2_2 1_555 1_555
C1_2 N4_2 1_555 1_555
H1_2 C1_2 1_555 1_555
H2_2 C1_2 1_555 1_555
C2_2 P8_2 1_555 1_555
H3_2 C2_2 1_555 1_555
H4_2 C2_2 1_555 1_555
C4_2 N1_2 1_555 1_555
H7_2 C4_2 1_555 1_555
H8_2 C4_2 1_555 1_555
H9_2 C5_2 1_555 1_555
H10_2 C5_2 1_555 1_555
C7_2 P3_2 1_555 1_555
H13_2 C7_2 1_555 1_555
H14_2 C7_2 1_555 1_555
C8_2 N2_2 1_555 1_555
H15_2 C8_2 1_555 1_555
H16_2 C8_2 1_555 1_555
C9_2 P2_2 1_555 1_555
H17_2 C9_2 1_555 1_555
H18_2 C9_2 1_555 1_555
C10_2 N2_2 1_555 1_555
H19_2 C10_2 1_555 1_555
H20_2 C10_2 1_555 1_555
C11_2 N4_2 1_555 1_555
H21_2 C11_2 1_555 1_555
H22_2 C11_2 1_555 1_555
C12_2 N3_2 1_555 1_555
H23_2 C12_2 1_555 1_555
H24_2 C12_2 1_555 1_555
C13_2 N3_2 1_555 1_555
H25_2 C13_2 1_555 1_555
H26_2 C13_2 1_555 1_555
C14_2 N1_2 1_555 1_555
H27_2 C14_2 1_555 1_555
H28_2 C14_2 1_555 1_555
C15_2 P7_2 1_555 1_555
H29_2 C15_2 1_555 1_555
H30_2 C15_2 1_555 1_555
H31_2 C16_2 1_555 1_555
H32_2 C16_2 1_555 1_555
N1_2 C15_2 1_555 1_555
N2_2 C9_2 1_555 1_555
N3_2 C7_2 1_555 1_555
N4_2 C2_2 1_555 1_555
C1_2 C13_2 1_555 1_555
C4_2 C8_2 1_555 1_555
C10_2 C11_2 1_555 1_555
C12_2 C14_2 1_555 1_555
P4_2 O28 1_555 1_555
O10_2 P4_2 1_555 1_555
O33 P4_2 1_555 1_555
O18_2 P1_2 1_555 1_555
O23_2 P1_2 1_555 1_555
N5_2 Cu1_2 1_555 1_555
C3_2 P4_2 1_555 1_555
N6_2 Cu1_2 1_555 1_555
C6_2 P1_2 1_555 1_555
N7_2 Cu1_2 1_555 1_555
N8_2 Cu1_2 1_555 1_555
C18_2 N5_2 1_555 1_555
H35_2 C18_2 1_555 1_555
H36_2 C18_2 1_555 1_555
C19_2 N8_2 1_555 1_555
H38_2 C19_2 1_555 1_555
C20_2 N6_2 1_555 1_555
C21_2 N7_2 1_555 1_555
H41_2 C21_2 1_555 1_555
H42_2 C21_2 1_555 1_555
C22_2 N5_2 1_555 1_555
C23_2 N7_2 1_555 1_555
H43_2 C23_2 1_555 1_555
H44_2 C23_2 1_555 1_555
C24_2 N8_2 1_555 1_555
H45_2 C24_2 1_555 1_555
H46_2 C24_2 1_555 1_555
N5_2 C3_2 1_555 1_555
C6_2 N8_2 1_555 1_555
C18_2 C23_2 1_555 1_555
C20_2 C21_2 1_555 1_555
C22_2 C24_2 1_555 1_555
C22_2 H47_2 1_555 1_555
C22_2 H48_2 1_555 1_555
P5_2 O27 1_555 1_555
O29 P5_2 1_555 1_555
O14_2 P5_2 1_555 1_555
H33_2 C17_2 1_555 1_555
H34_2 C17_2 1_555 1_555

#END
