
###############################################################################
#
# This file contains modified crystal structure data generated from the
# MOF subset of the Cambridge Structural Database (CSD) v543 
# hosted by the Cambridge Crystallographic Data Centre (CCDC).
#
# This work is licensed under the Creative Commons
# Attribution-NonCommercial-ShareAlike 4.0 International License.
# To view a copy of this license, visit
# http://creativecommons.org/licenses/by-nc-sa/4.0/
# or send a letter to
# Creative Commons, PO Box 1866, Mountain View, CA 94042, USA.
#
# CIF created using the CSD Python API on 29 September 2022
# The structure has been converted into the P1 space group
# The structure has a 3D framework
# The original CSD entry DOGZIJ is in the triclinic crystal system
# The framework has been calculated to contain at least 10.0% void space
# The void calculation uses a probe of radius 1.32A, grid spacing 0.4
#
###############################################################################

data_DOGZIJ
_chemical_formula_moiety         '(C34 H30 N4 O6 Zn1)n'
_symmetry_cell_setting           triclinic
_symmetry_space_group_name_H-M   'P 1'
_symmetry_Int_Tables_number      1
_space_group_name_Hall           'P 1'
loop_
_symmetry_equiv_pos_site_id
_symmetry_equiv_pos_as_xyz
1 x,y,z
_cell_length_a                   8.473(3)
_cell_length_b                   10.154(3)
_cell_length_c                   13.397(3)
_cell_angle_alpha                68.21(3)
_cell_angle_beta                 78.64(3)
_cell_angle_gamma                77.46(4)
_cell_volume                     1036.08
loop_
_atom_site_label
_atom_site_type_symbol
_atom_site_fract_x
_atom_site_fract_y
_atom_site_fract_z
_atom_site_U_iso_or_equiv
_atom_site_thermal_displace_type
Zn5 Zn 0.05663(3) 0.56485(2) 0.841776(19) 0.0263 Uani
O7 O 0.07341(19) 0.36352(14) 0.93383(12) 0.0391 Uani
C30 C 0.0418(3) 0.1114(2) 0.90555(15) 0.0296 Uani
H28 H 0.0704 0.1859 0.8428 0.0350 Uiso
O1 O 0.10287(18) 0.68771(14) 0.91435(11) 0.0367 Uani
C10 C 0.0135(2) 0.71804(19) 0.99246(15) 0.0267 Uani
C11 C 0.0061(2) 0.86516(18) 0.99596(15) 0.0240 Uani
C12 C 0.0463(2) 0.97632(19) 0.90227(15) 0.0286 Uani
H12 H 0.0764 0.9600 0.8367 0.0340 Uiso
O3 O 0.24455(18) 0.57106(15) 0.73216(11) 0.0383 Uani
C14 C 0.2278(3) 0.5116(2) 0.66656(16) 0.0326 Uani
O4 O 0.1040(2) 0.46161(18) 0.67306(12) 0.0458 Uani
C15 C 0.3685(3) 0.5065(2) 0.57965(15) 0.0302 Uani
C16 C 0.3491(3) 0.4807(2) 0.48900(17) 0.0420 Uani
H14 H 0.2477 0.4674 0.4811 0.0500 Uiso
C17 C 0.5199(3) 0.5253(2) 0.59011(16) 0.0405 Uani
H15 H 0.5342 0.5423 0.6511 0.0490 Uiso
Zn6 Zn 0.94337(3) 0.43515(2) 0.158224(19) 0.0263 Uani
O10 O 0.75545(18) 0.42894(15) 0.26784(11) 0.0383 Uani
C31 C 0.7722(3) 0.4884(2) 0.33344(16) 0.0326 Uani
O12 O 0.8960(2) 0.53839(18) 0.32694(12) 0.0458 Uani
C32 C 0.6315(3) 0.4935(2) 0.42035(15) 0.0302 Uani
C33 C 0.6509(3) 0.5193(2) 0.51100(17) 0.0420 Uani
H29 H 0.7523 0.5326 0.5189 0.0500 Uiso
C34 C 0.4801(3) 0.4747(2) 0.40989(16) 0.0405 Uani
H30 H 0.4658 0.4577 0.3489 0.0490 Uiso
N3 N 0.1657(2) 0.34247(19) 0.19489(14) 0.0380 Uani
C18 C 0.2735(3) 0.2662(3) 0.1438(2) 0.0536 Uani
H16 H 0.2552 0.2523 0.0825 0.0640 Uiso
N4 N 0.4083(2) 0.2120(2) 0.18763(15) 0.0420 Uani
C19 C 0.3872(4) 0.2522(5) 0.2748(3) 0.1076 Uani
H17 H 0.4615 0.2291 0.3237 0.1290 Uiso
C20 C 0.2385(4) 0.3321(4) 0.2782(3) 0.0920 Uani
H18 H 0.1930 0.3739 0.3306 0.1110 Uiso
C21 C 0.5566(3) 0.1262(3) 0.1496(2) 0.0491 Uani
H19 H 0.6388 0.1864 0.1145 0.0590 Uiso
H20 H 0.5980 0.0500 0.2109 0.0590 Uiso
C22 C 0.5230(3) 0.0626(2) 0.07105(19) 0.0419 Uani
O5 O 0.89713(18) 0.31229(14) 0.08565(11) 0.0367 Uani
C27 C 0.9865(2) 0.28196(19) 0.00754(15) 0.0267 Uani
C28 C 0.9939(2) 0.13484(18) 0.00404(15) 0.0240 Uani
C29 C 0.9537(2) 0.02368(19) 0.09773(15) 0.0286 Uani
H27 H 0.9236 0.0400 0.1633 0.0340 Uiso
C6 C 0.5241(3) 0.0729(3) 0.88778(19) 0.0454 Uani
C8 C 0.5565(4) 0.1486(3) 0.7671(2) 0.0747 Uani
H6 H 0.5669 0.0813 0.7304 0.0890 Uiso
H7 H 0.6555 0.1882 0.7502 0.0890 Uiso
H8 H 0.4675 0.2245 0.7438 0.0890 Uiso
C24 C 0.5456(3) 0.1373(2) 0.9596(2) 0.0446 Uani
C26 C 0.5865(4) 0.2887(3) 0.9143(2) 0.0652 Uani
H24 H 0.5863 0.3214 0.9730 0.0780 Uiso
H25 H 0.6923 0.2888 0.8724 0.0780 Uiso
H26 H 0.5065 0.3515 0.8690 0.0780 Uiso
C7 C 0.4544(3) 0.8627(2) 0.0404(2) 0.0446 Uani
C9 C 0.4135(4) 0.7113(3) 0.0857(2) 0.0652 Uani
H9 H 0.4137 0.6786 0.0270 0.0780 Uiso
H10 H 0.3077 0.7112 0.1276 0.0780 Uiso
H11 H 0.4935 0.6485 0.1310 0.0780 Uiso
O2 O 0.92659(19) 0.63648(14) 0.06617(12) 0.0391 Uani
C13 C 0.9582(3) 0.8886(2) 0.09445(15) 0.0296 Uani
H13 H 0.9296 0.8141 0.1572 0.0350 Uiso
C23 C 0.4759(3) 0.9271(3) 0.11222(19) 0.0454 Uani
C25 C 0.4435(4) 0.8514(3) 0.2329(2) 0.0747 Uani
H21 H 0.4331 0.9187 0.2696 0.0890 Uiso
H22 H 0.3445 0.8118 0.2498 0.0890 Uiso
H23 H 0.5325 0.7755 0.2562 0.0890 Uiso
N1 N 0.8343(2) 0.65753(19) 0.80511(14) 0.0380 Uani
C1 C 0.7265(3) 0.7338(3) 0.8562(2) 0.0536 Uani
H1 H 0.7448 0.7477 0.9175 0.0640 Uiso
N2 N 0.5917(2) 0.7880(2) 0.81237(15) 0.0420 Uani
C2 C 0.6128(4) 0.7478(5) 0.7252(3) 0.1076 Uani
H2 H 0.5385 0.7709 0.6763 0.1290 Uiso
C3 C 0.7615(4) 0.6679(4) 0.7218(3) 0.0920 Uani
H3 H 0.8070 0.6261 0.6694 0.1110 Uiso
C4 C 0.4434(3) 0.8738(3) 0.8504(2) 0.0491 Uani
H4 H 0.3612 0.8136 0.8855 0.0590 Uiso
H5 H 0.4020 0.9500 0.7891 0.0590 Uiso
C5 C 0.4770(3) 0.9374(2) 0.92895(19) 0.0419 Uani
loop_
_atom_site_aniso_label
_atom_site_aniso_U_11
_atom_site_aniso_U_22
_atom_site_aniso_U_33
_atom_site_aniso_U_23
_atom_site_aniso_U_13
_atom_site_aniso_U_12
Zn5 0.02835 0.02449 0.02847 -0.01613 0.00749 -0.00641
O7 0.0508 0.0227 0.0427 -0.0135 0.0079 -0.0121
C30 0.0407 0.0226 0.0241 -0.0087 0.0034 -0.0077
O1 0.0396 0.0337 0.047 -0.03 0.0095 -0.0115
C10 0.0284 0.0233 0.0327 -0.0155 -0.0037 -0.0027
C11 0.0246 0.02 0.0304 -0.0137 -0.0002 -0.0035
C12 0.0374 0.027 0.0262 -0.0177 0.0027 -0.0056
O3 0.0403 0.0464 0.0345 -0.0275 0.0154 -0.0137
C14 0.0354 0.0323 0.0276 -0.0142 0.006 -0.0025
O4 0.0377 0.0626 0.0458 -0.0334 0.0141 -0.0169
C15 0.0344 0.0301 0.0248 -0.014 0.0066 -0.0038
C16 0.0348 0.0625 0.036 -0.0278 0.0058 -0.0124
C17 0.0443 0.0578 0.0274 -0.0265 0.0083 -0.0149
Zn6 0.02835 0.02449 0.02847 -0.01613 0.00749 -0.00641
O10 0.0403 0.0464 0.0345 -0.0275 0.0154 -0.0137
C31 0.0354 0.0323 0.0276 -0.0142 0.006 -0.0025
O12 0.0377 0.0626 0.0458 -0.0334 0.0141 -0.0169
C32 0.0344 0.0301 0.0248 -0.014 0.0066 -0.0038
C33 0.0348 0.0625 0.036 -0.0278 0.0058 -0.0124
C34 0.0443 0.0578 0.0274 -0.0265 0.0083 -0.0149
N3 0.0318 0.0473 0.0421 -0.0275 -0.0035 -0.0001
C18 0.0372 0.0807 0.0561 -0.0474 -0.0171 0.0165
N4 0.0328 0.0508 0.0516 -0.03 -0.0139 0.0043
C19 0.074 0.169 0.129 -0.122 -0.061 0.051
C20 0.062 0.144 0.113 -0.107 -0.0392 0.034
C21 0.031 0.0594 0.0621 -0.0329 -0.014 0.0109
C22 0.0311 0.0452 0.0505 -0.0247 -0.012 0.0124
O5 0.0396 0.0337 0.047 -0.03 0.0095 -0.0115
C27 0.0284 0.0233 0.0327 -0.0155 -0.0037 -0.0027
C28 0.0246 0.02 0.0304 -0.0137 -0.0002 -0.0035
C29 0.0374 0.027 0.0262 -0.0177 0.0027 -0.0056
C6 0.0373 0.0493 0.0464 -0.0193 -0.009 0.0081
C8 0.094 0.074 0.0539 -0.0172 -0.0137 -0.0137
C24 0.0339 0.0411 0.0573 -0.0207 -0.0083 0.0063
C26 0.0629 0.0544 0.077 -0.0197 -0.0153 -0.0063
C7 0.0339 0.0411 0.0573 -0.0207 -0.0083 0.0063
C9 0.0629 0.0544 0.077 -0.0197 -0.0153 -0.0063
O2 0.0508 0.0227 0.0427 -0.0135 0.0079 -0.0121
C13 0.0407 0.0226 0.0241 -0.0087 0.0034 -0.0077
C23 0.0373 0.0493 0.0464 -0.0193 -0.009 0.0081
C25 0.094 0.074 0.0539 -0.0172 -0.0137 -0.0137
N1 0.0318 0.0473 0.0421 -0.0275 -0.0035 -0.0001
C1 0.0372 0.0807 0.0561 -0.0474 -0.0171 0.0165
N2 0.0328 0.0508 0.0516 -0.03 -0.0139 0.0043
C2 0.074 0.169 0.129 -0.122 -0.061 0.051
C3 0.062 0.144 0.113 -0.107 -0.0392 0.034
C4 0.031 0.0594 0.0621 -0.0329 -0.014 0.0109
C5 0.0311 0.0452 0.0505 -0.0247 -0.012 0.0124
loop_
_geom_bond_atom_site_label_1
_geom_bond_atom_site_label_2
_geom_bond_site_symmetry_1
_geom_bond_site_symmetry_2
Zn5 O7 1_555 1_555
H28 C30 1_555 1_555
O1 Zn5 1_555 1_555
C10 O1 1_555 1_555
C11 C10 1_555 1_555
C12 C11 1_555 1_555
H12 C12 1_555 1_555
O3 Zn5 1_555 1_555
C14 O3 1_555 1_555
O4 C14 1_555 1_555
C15 C14 1_555 1_555
C16 C15 1_555 1_555
H14 C16 1_555 1_555
C17 C15 1_555 1_555
H15 C17 1_555 1_555
Zn6 O10 1_555 1_555
O10 C31 1_555 1_555
C31 O12 1_555 1_555
C32 C31 1_555 1_555
C33 C17 1_555 1_555
H29 C33 1_555 1_555
C34 C16 1_555 1_555
H30 C34 1_555 1_555
C32 C33 1_555 1_555
C32 C34 1_555 1_555
Zn6 O5 1_555 1_555
N3 C18 1_555 1_555
C18 H16 1_555 1_555
N4 C18 1_555 1_555
C19 N4 1_555 1_555
H17 C19 1_555 1_555
C20 N3 1_555 1_555
H18 C20 1_555 1_555
C21 N4 1_555 1_555
H19 C21 1_555 1_555
H20 C21 1_555 1_555
C22 C21 1_555 1_555
O5 C27 1_555 1_555
C28 C27 1_555 1_555
H27 C29 1_555 1_555
C19 C20 1_555 1_555
C28 C29 1_555 1_555
C8 C6 1_555 1_555
H6 C8 1_555 1_555
H7 C8 1_555 1_555
H8 C8 1_555 1_555
C24 C6 1_555 1_555
C26 C24 1_555 1_555
H24 C26 1_555 1_555
H25 C26 1_555 1_555
H26 C26 1_555 1_555
C9 C7 1_555 1_555
H9 C9 1_555 1_555
H10 C9 1_555 1_555
H11 C9 1_555 1_555
H13 C13 1_555 1_555
Zn6 O2 1_555 1_555
C23 C7 1_555 1_555
C25 C23 1_555 1_555
H21 C25 1_555 1_555
H22 C25 1_555 1_555
H23 C25 1_555 1_555
N1 C1 1_555 1_555
C1 H1 1_555 1_555
N2 C1 1_555 1_555
C2 N2 1_555 1_555
H2 C2 1_555 1_555
C3 N1 1_555 1_555
H3 C3 1_555 1_555
C4 N2 1_555 1_555
H4 C4 1_555 1_555
H5 C4 1_555 1_555
C5 C4 1_555 1_555
C2 C3 1_555 1_555

#END
