
###############################################################################
#
# This file contains modified crystal structure data generated from the
# MOF subset of the Cambridge Structural Database (CSD) v543 
# hosted by the Cambridge Crystallographic Data Centre (CCDC).
#
# This work is licensed under the Creative Commons
# Attribution-NonCommercial-ShareAlike 4.0 International License.
# To view a copy of this license, visit
# http://creativecommons.org/licenses/by-nc-sa/4.0/
# or send a letter to
# Creative Commons, PO Box 1866, Mountain View, CA 94042, USA.
#
# CIF created using the CSD Python API on 29 September 2022
# The structure has been converted into the P1 space group
# The structure has a 3D framework
# The original CSD entry DOHLUK is in the monoclinic crystal system
# The framework has been calculated to contain at least 10.0% void space
# The void calculation uses a probe of radius 1.32A, grid spacing 0.4
#
###############################################################################

data_DOHLUK
_chemical_formula_moiety         '(C152 H112 Co14 N24 O52)n'
_symmetry_cell_setting           triclinic
_symmetry_space_group_name_H-M   'P 1'
_symmetry_Int_Tables_number      1
_space_group_name_Hall           'P 1'
loop_
_symmetry_equiv_pos_site_id
_symmetry_equiv_pos_as_xyz
1 x,y,z
_cell_length_a                   28.7693(11)
_cell_length_b                   10.0680(4)
_cell_length_c                   21.9942(9)
_cell_angle_alpha                90
_cell_angle_beta                 128.3810(10)
_cell_angle_gamma                90
_cell_volume                     4993.91
loop_
_atom_site_label
_atom_site_type_symbol
_atom_site_fract_x
_atom_site_fract_y
_atom_site_fract_z
Co6 Co 0.65152(2) 0.09695(2) 0.07986(2)
Co5 Co 0.34848(2) 0.09695(2) 0.42014(2)
O8 O 0.66725(7) 0.97085(13) 0.16814(8)
O9 O 0.64626(7) 0.88273(14) 0.06322(8)
O12 O 0.66207(6) 0.27634(13) 0.13065(8)
O13 O 0.57286(6) 0.36949(12) 0.05422(8)
O14 O 0.55958(7) 0.09287(18) 0.02596(11)
H15 H 0.581687 0.042648 0.022159
H16 H 0.545540 0.171334 0.016550
N4 N 0.75293(7) 0.60082(16) 0.36302(9)
H17 H 0.761383 0.525594 0.386258
H18 H 0.767345 0.672904 0.389612
H25 H 0.644835 0.352559 0.003007
C30 C 0.60385(8) 0.62549(17) 0.03055(10)
C31 C 0.65982(8) 0.86957(18) 0.12924(11)
C32 C 0.62750(8) 0.37253(17) 0.11017(10)
C33 C 0.65473(8) 0.49859(16) 0.15561(10)
C34 C 0.64360(7) 0.62035(17) 0.11845(10)
C35 C 0.66885(8) 0.73460(17) 0.16380(10)
C36 C 0.70345(8) 0.72738(17) 0.24398(10)
H27 H 0.718931 0.804750 0.273334
C37 C 0.71519(8) 0.60599(18) 0.28080(10)
C38 C 0.69134(8) 0.49146(17) 0.23650(10)
H28 H 0.699745 0.409401 0.260731
Co4 Co 0.500000 0.500000 0.000000
Co7 Co 0.84848(2) 0.59695(2) 0.42014(2)
N7 N 0.74707(7) 0.10082(16) 0.13698(9)
Co1 Co 0.500000 0.500000 0.500000
O1 O 0.33275(7) 0.97085(13) 0.33186(8)
O2 O 0.35374(7) 0.88273(14) 0.43678(8)
O3 O 0.37381(7) 0.60406(15) 0.50173(9)
O4 O 0.45074(6) 0.64904(13) 0.50457(7)
O5 O 0.33793(6) 0.27634(13) 0.36935(8)
O6 O 0.42714(6) 0.36949(12) 0.44578(8)
O7 O 0.44042(7) 0.09287(18) 0.47404(11)
H1 H 0.418313 0.042648 0.477841
H2 H 0.454460 0.171334 0.483450
N1 N 0.24707(7) 0.60082(16) 0.13698(9)
H3 H 0.238617 0.525594 0.113742
H4 H 0.232655 0.672904 0.110388
N2 N 0.37174(8) 0.16609(17) 0.52665(9)
N3 N 0.47389(7) 0.42294(16) 0.89157(9)
C1 C 0.46342(10) 0.2931(2) 0.87538(11)
H5 H 0.469363 0.236749 0.913142
C2 C 0.46478(10) 0.5005(2) 0.83593(12)
H6 H 0.471910 0.591022 0.845706
C3 C 0.44543(10) 0.4539(2) 0.76487(12)
H7 H 0.439672 0.512643 0.728094
C4 C 0.43448(9) 0.3191(2) 0.74797(11)
C5 C 0.44427(10) 0.2382(2) 0.80568(12)
H8 H 0.437992 0.147113 0.797654
C6 C 0.41272(9) 0.2653(2) 0.67141(11)
C7 C 0.41597(12) 0.1314(2) 0.65969(13)
H9 H 0.432291 0.072002 0.700670
C8 C 0.39516(12) 0.0857(2) 0.58772(13)
C9 C 0.37029(12) 0.2947(2) 0.53836(13)
H11 H 0.355165 0.352559 0.496993
C10 C 0.39005(12) 0.3472(2) 0.60867(13)
H12 H 0.388023 0.438298 0.613667
C11 C 0.39615(8) 0.62549(17) 0.46945(10)
C12 C 0.34018(8) 0.86957(18) 0.37076(11)
C13 C 0.37250(8) 0.37253(17) 0.38983(10)
C14 C 0.34527(8) 0.49859(16) 0.34439(10)
C15 C 0.35640(7) 0.62035(17) 0.38155(10)
C16 C 0.33115(8) 0.73460(17) 0.33620(10)
C17 C 0.29655(8) 0.72738(17) 0.25602(10)
H13 H 0.281069 0.804750 0.226666
C18 C 0.28481(8) 0.60599(18) 0.21920(10)
C19 C 0.30866(8) 0.49146(17) 0.26350(10)
H14 H 0.300255 0.409401 0.239269
O10 O 0.62619(7) 0.60406(15) 0.99827(9)
O11 O 0.54926(6) 0.64904(13) 0.99543(7)
N5 N 0.62826(8) 0.16609(17) 0.97335(9)
N6 N 0.52611(7) 0.42294(16) 0.60843(9)
C20 C 0.53658(10) 0.2931(2) 0.62462(11)
H19 H 0.530637 0.236749 0.586858
C21 C 0.53522(10) 0.5005(2) 0.66407(12)
H20 H 0.528090 0.591022 0.654294
C22 C 0.55457(10) 0.4539(2) 0.73513(12)
H21 H 0.560328 0.512643 0.771906
C23 C 0.56552(9) 0.3191(2) 0.75203(11)
C24 C 0.55573(10) 0.2382(2) 0.69432(12)
H22 H 0.562008 0.147113 0.702346
C25 C 0.58728(9) 0.2653(2) 0.82859(11)
C26 C 0.58403(12) 0.1314(2) 0.84031(13)
H23 H 0.567709 0.072002 0.799330
C27 C 0.60484(12) 0.0857(2) 0.91228(13)
C28 C 0.62971(12) 0.2947(2) 0.96164(13)
C29 C 0.60995(12) 0.3472(2) 0.89133(13)
H26 H 0.611977 0.438298 0.886333
Co4_2 Co 0.500000 0.500000 1.000000
Co8 Co 0.15152(2) 0.59695(2) 0.07986(2)
O19 O 0.54926(6) 0.35096(13) 0.49543(7)
O20 O 0.57286(6) 0.63051(12) 0.55422(8)
N8 N 0.25293(7) 0.10082(16) 0.36302(9)
N9 N 0.47389(7) 0.57706(16) 0.39157(9)
H10 H 0.397502 0.995284 0.581344
H24 H 0.602498 0.995284 0.918656
O19_2 O 0.45074(6) 0.35096(13) 0.00457(7)
N9_2 N 0.52611(7) 0.57706(16) 0.10843(9)
O20_2 O 0.42714(6) 0.63051(12) 0.94578(8)
O8_2 O 0.16725(7) 0.47085(13) 0.16814(8)
O9_2 O 0.14626(7) 0.38273(14) 0.06322(8)
H17_2 H 0.261383 0.025594 0.386258
H18_2 H 0.267345 0.172904 0.389612
C30_2 C 0.10385(8) 0.12549(17) 0.03055(10)
C31_2 C 0.15982(8) 0.36957(18) 0.12924(11)
C34_2 C 0.14360(7) 0.12035(17) 0.11845(10)
C35_2 C 0.16885(8) 0.23460(17) 0.16380(10)
C36_2 C 0.20345(8) 0.22738(17) 0.24398(10)
H27_2 H 0.218931 0.304750 0.273334
C37_2 C 0.21519(8) 0.10599(18) 0.28080(10)
Co4_3 Co 0.000000 0.000000 0.000000
Co1_2 Co 0.000000 0.000000 0.500000
O10_2 O 0.12619(7) 0.10406(15) 0.99827(9)
O11_2 O 0.04926(6) 0.14904(13) 0.99543(7)
C21_2 C 0.03522(10) 0.0005(2) 0.66407(12)
H20_2 H 0.028090 0.091022 0.654294
H21_2 H 0.060328 0.012643 0.771906
Co4_4 Co 0.000000 0.000000 1.000000
O20_3 O 0.07286(6) 0.13051(12) 0.55422(8)
O12_2 O 0.16207(6) 0.77634(13) 0.13065(8)
O13_2 O 0.07286(6) 0.86949(12) 0.05422(8)
O14_2 O 0.05958(7) 0.59287(18) 0.02596(11)
H15_2 H 0.081687 0.542648 0.022159
H16_2 H 0.045540 0.671334 0.016550
H25_2 H 0.144835 0.852559 0.003007
C32_2 C 0.12750(8) 0.87253(17) 0.11017(10)
C33_2 C 0.15473(8) 0.99859(16) 0.15561(10)
C38_2 C 0.19134(8) 0.99146(17) 0.23650(10)
H28_2 H 0.199745 0.909401 0.260731
Co4_5 Co 0.000000 1.000000 0.000000
Co1_3 Co 0.000000 1.000000 0.500000
N5_2 N 0.12826(8) 0.66609(17) 0.97335(9)
N6_2 N 0.02611(7) 0.92294(16) 0.60843(9)
C20_2 C 0.03658(10) 0.7931(2) 0.62462(11)
H19_2 H 0.030637 0.736749 0.586858
C22_2 C 0.05457(10) 0.9539(2) 0.73513(12)
C23_2 C 0.06552(9) 0.8191(2) 0.75203(11)
C24_2 C 0.05573(10) 0.7382(2) 0.69432(12)
H22_2 H 0.062008 0.647113 0.702346
C25_2 C 0.08728(9) 0.7653(2) 0.82859(11)
C26_2 C 0.08403(12) 0.6314(2) 0.84031(13)
H23_2 H 0.067709 0.572002 0.799330
C27_2 C 0.10484(12) 0.5857(2) 0.91228(13)
H24_2 H 0.102498 0.495284 0.918656
C28_2 C 0.12971(12) 0.7947(2) 0.96164(13)
C29_2 C 0.10995(12) 0.8472(2) 0.89133(13)
H26_2 H 0.111977 0.938298 0.886333
Co4_6 Co 0.000000 1.000000 1.000000
O19_3 O 0.04926(6) 0.85096(13) 0.49543(7)
Co4_7 Co 1.000000 0.000000 0.000000
Co1_4 Co 1.000000 0.000000 0.500000
O1_2 O 0.83275(7) 0.47085(13) 0.33186(8)
O2_2 O 0.85374(7) 0.38273(14) 0.43678(8)
O3_2 O 0.87381(7) 0.10406(15) 0.50173(9)
O4_2 O 0.95074(6) 0.14904(13) 0.50457(7)
H3_2 H 0.738617 0.025594 0.113742
H4_2 H 0.732655 0.172904 0.110388
C2_2 C 0.96478(10) 0.0005(2) 0.83593(12)
H6_2 H 0.971910 0.091022 0.845706
H7_2 H 0.939672 0.012643 0.728094
C11_2 C 0.89615(8) 0.12549(17) 0.46945(10)
C12_2 C 0.84018(8) 0.36957(18) 0.37076(11)
C15_2 C 0.85640(7) 0.12035(17) 0.38155(10)
C16_2 C 0.83115(8) 0.23460(17) 0.33620(10)
C17_2 C 0.79655(8) 0.22738(17) 0.25602(10)
H13_2 H 0.781069 0.304750 0.226666
C18_2 C 0.78481(8) 0.10599(18) 0.21920(10)
Co4_8 Co 1.000000 0.000000 1.000000
N9_3 N 0.97389(7) 0.07706(16) 0.39157(9)
Co4_9 Co 1.000000 1.000000 0.000000
Co1_5 Co 1.000000 1.000000 0.500000
O5_2 O 0.83793(6) 0.77634(13) 0.36935(8)
O6_2 O 0.92714(6) 0.86949(12) 0.44578(8)
O7_2 O 0.94042(7) 0.59287(18) 0.47404(11)
H1_2 H 0.918313 0.542648 0.477841
H2_2 H 0.954460 0.671334 0.483450
N2_2 N 0.87174(8) 0.66609(17) 0.52665(9)
N3_2 N 0.97389(7) 0.92294(16) 0.89157(9)
C1_2 C 0.96342(10) 0.7931(2) 0.87538(11)
H5_2 H 0.969363 0.736749 0.913142
C3_2 C 0.94543(10) 0.9539(2) 0.76487(12)
C4_2 C 0.93448(9) 0.8191(2) 0.74797(11)
C5_2 C 0.94427(10) 0.7382(2) 0.80568(12)
H8_2 H 0.937992 0.647113 0.797654
C6_2 C 0.91272(9) 0.7653(2) 0.67141(11)
C7_2 C 0.91597(12) 0.6314(2) 0.65969(13)
H9_2 H 0.932291 0.572002 0.700670
C8_2 C 0.89516(12) 0.5857(2) 0.58772(13)
H10_2 H 0.897502 0.495284 0.581344
C9_2 C 0.87029(12) 0.7947(2) 0.53836(13)
H11_2 H 0.855165 0.852559 0.496993
C10_2 C 0.89005(12) 0.8472(2) 0.60867(13)
H12_2 H 0.888023 0.938298 0.613667
C13_2 C 0.87250(8) 0.87253(17) 0.38983(10)
C14_2 C 0.84527(8) 0.99859(16) 0.34439(10)
C19_2 C 0.80866(8) 0.99146(17) 0.26350(10)
H14_2 H 0.800255 0.909401 0.239269
Co4_10 Co 1.000000 1.000000 1.000000
N9_4 N 0.02611(7) 0.07706(16) 0.10843(9)
O20_4 O 0.92714(6) 0.13051(12) 0.94578(8)
O19_4 O 0.95074(6) 0.85096(13) 0.00457(7)
H10_3 H 0.602498 0.004716 0.418656
H24_3 H 0.397502 0.004716 0.081344
O15 O 0.66725(7) 0.02915(13) 0.66814(8)
O17 O 0.64626(7) 0.11727(14) 0.56322(8)
O16 O 0.33275(7) 0.02915(13) 0.83186(8)
O18 O 0.35374(7) 0.11727(14) 0.93678(8)
Co2 Co 0.65152(2) 0.90305(2) 0.57986(2)
O3_3 O 0.62619(7) 0.39594(15) 0.49827(9)
O5_3 O 0.66207(6) 0.72366(13) 0.63065(8)
O7_3 O 0.55958(7) 0.90713(18) 0.52596(11)
H1_3 H 0.581687 0.957352 0.522159
H2_3 H 0.545540 0.828666 0.516550
N1_2 N 0.75293(7) 0.39918(16) 0.86302(9)
H3_3 H 0.761383 0.474406 0.886258
H4_3 H 0.767345 0.327096 0.889612
N2_3 N 0.62826(8) 0.83391(17) 0.47335(9)
C1_3 C 0.53658(10) 0.7069(2) 0.12462(11)
H5_3 H 0.530637 0.763251 0.086858
C2_3 C 0.53522(10) 0.4995(2) 0.16407(12)
H6_3 H 0.528090 0.408978 0.154294
C3_3 C 0.55457(10) 0.5461(2) 0.23513(12)
H7_3 H 0.560328 0.487357 0.271906
C4_3 C 0.56552(9) 0.6809(2) 0.25203(11)
C5_3 C 0.55573(10) 0.7618(2) 0.19432(12)
H8_3 H 0.562008 0.852887 0.202346
C6_3 C 0.58728(9) 0.7347(2) 0.32859(11)
C7_3 C 0.58403(12) 0.8686(2) 0.34031(13)
H9_3 H 0.567709 0.927998 0.299330
C8_3 C 0.60484(12) 0.9143(2) 0.41228(13)
C9_3 C 0.62971(12) 0.7053(2) 0.46164(13)
H11_3 H 0.644835 0.647441 0.503007
C10_3 C 0.60995(12) 0.6528(2) 0.39133(13)
H12_3 H 0.611977 0.561702 0.386333
C11_3 C 0.60385(8) 0.37451(17) 0.53055(10)
C12_3 C 0.65982(8) 0.13043(18) 0.62924(11)
C13_3 C 0.62750(8) 0.62747(17) 0.61017(10)
C14_3 C 0.65473(8) 0.50141(16) 0.65561(10)
C15_3 C 0.64360(7) 0.37965(17) 0.61845(10)
C16_3 C 0.66885(8) 0.26540(17) 0.66380(10)
C17_3 C 0.70345(8) 0.27262(17) 0.74398(10)
H13_3 H 0.718931 0.195250 0.773334
C18_3 C 0.71519(8) 0.39401(18) 0.78080(10)
C19_3 C 0.69134(8) 0.50854(17) 0.73650(10)
H14_3 H 0.699745 0.590599 0.760731
O10_3 O 0.37381(7) 0.39594(15) 0.00173(9)
N5_3 N 0.37174(8) 0.83391(17) 0.02665(9)
C20_3 C 0.46342(10) 0.7069(2) 0.37538(11)
H19_3 H 0.469363 0.763251 0.413142
C21_3 C 0.46478(10) 0.4995(2) 0.33593(12)
H20_3 H 0.471910 0.408978 0.345706
C22_3 C 0.44543(10) 0.5461(2) 0.26487(12)
H21_3 H 0.439672 0.487357 0.228094
C23_3 C 0.43448(9) 0.6809(2) 0.24797(11)
C24_3 C 0.44427(10) 0.7618(2) 0.30568(12)
H22_3 H 0.437992 0.852887 0.297654
C25_3 C 0.41272(9) 0.7347(2) 0.17141(11)
C26_3 C 0.41597(12) 0.8686(2) 0.15969(13)
H23_3 H 0.432291 0.927998 0.200670
C27_3 C 0.39516(12) 0.9143(2) 0.08772(13)
C28_3 C 0.37029(12) 0.7053(2) 0.03836(13)
C29_3 C 0.39005(12) 0.6528(2) 0.10867(13)
H26_3 H 0.388023 0.561702 0.113667
Co8_2 Co 0.84848(2) 0.40305(2) 0.92014(2)
N8_2 N 0.74707(7) 0.89918(16) 0.63698(9)
Co3 Co 0.34848(2) 0.90305(2) 0.92014(2)
O12_3 O 0.33793(6) 0.72366(13) 0.86935(8)
O14_3 O 0.44042(7) 0.90713(18) 0.97404(11)
H15_3 H 0.418313 0.957352 0.977841
H16_3 H 0.454460 0.828666 0.983450
N4_2 N 0.24707(7) 0.39918(16) 0.63698(9)
H17_3 H 0.238617 0.474406 0.613742
H18_3 H 0.232655 0.327096 0.610388
H25_3 H 0.355165 0.647441 0.996993
C30_3 C 0.39615(8) 0.37451(17) 0.96945(10)
C31_3 C 0.34018(8) 0.13043(18) 0.87076(11)
C32_3 C 0.37250(8) 0.62747(17) 0.88983(10)
C33_3 C 0.34527(8) 0.50141(16) 0.84439(10)
C34_3 C 0.35640(7) 0.37965(17) 0.88155(10)
C35_3 C 0.33115(8) 0.26540(17) 0.83620(10)
C36_3 C 0.29655(8) 0.27262(17) 0.75602(10)
H27_3 H 0.281069 0.195250 0.726666
C37_3 C 0.28481(8) 0.39401(18) 0.71920(10)
C38_3 C 0.30866(8) 0.50854(17) 0.76350(10)
H28_3 H 0.300255 0.590599 0.739269
Co7_2 Co 0.15152(2) 0.40305(2) 0.57986(2)
N7_2 N 0.25293(7) 0.89918(16) 0.86302(9)
O5_4 O 0.16207(6) 0.22366(13) 0.63065(8)
O7_4 O 0.05958(7) 0.40713(18) 0.52596(11)
H1_4 H 0.081687 0.457352 0.522159
H2_4 H 0.045540 0.328666 0.516550
N2_4 N 0.12826(8) 0.33391(17) 0.47335(9)
C1_4 C 0.03658(10) 0.2069(2) 0.12462(11)
H5_4 H 0.030637 0.263251 0.086858
C3_4 C 0.05457(10) 0.0461(2) 0.23513(12)
C4_4 C 0.06552(9) 0.1809(2) 0.25203(11)
C5_4 C 0.05573(10) 0.2618(2) 0.19432(12)
H8_4 H 0.062008 0.352887 0.202346
C6_4 C 0.08728(9) 0.2347(2) 0.32859(11)
C7_4 C 0.08403(12) 0.3686(2) 0.34031(13)
H9_4 H 0.067709 0.427998 0.299330
C8_4 C 0.10484(12) 0.4143(2) 0.41228(13)
H10_4 H 0.102498 0.504716 0.418656
C9_4 C 0.12971(12) 0.2053(2) 0.46164(13)
H11_4 H 0.144835 0.147441 0.503007
C10_4 C 0.10995(12) 0.1528(2) 0.39133(13)
H12_4 H 0.111977 0.061702 0.386333
C13_4 C 0.12750(8) 0.12747(17) 0.61017(10)
C14_4 C 0.15473(8) 0.00141(16) 0.65561(10)
C19_4 C 0.19134(8) 0.00854(17) 0.73650(10)
H14_4 H 0.199745 0.090599 0.760731
O15_2 O 0.16725(7) 0.52915(13) 0.66814(8)
O17_2 O 0.14626(7) 0.61727(14) 0.56322(8)
O3_4 O 0.12619(7) 0.89594(15) 0.49827(9)
H3_4 H 0.261383 0.974406 0.886258
H4_4 H 0.267345 0.827096 0.889612
C2_4 C 0.03522(10) 0.9995(2) 0.16407(12)
H6_4 H 0.028090 0.908978 0.154294
H7_4 H 0.060328 0.987357 0.271906
C11_4 C 0.10385(8) 0.87451(17) 0.53055(10)
C12_4 C 0.15982(8) 0.63043(18) 0.62924(11)
C15_4 C 0.14360(7) 0.87965(17) 0.61845(10)
C16_4 C 0.16885(8) 0.76540(17) 0.66380(10)
C17_4 C 0.20345(8) 0.77262(17) 0.74398(10)
H13_4 H 0.218931 0.695250 0.773334
C18_4 C 0.21519(8) 0.89401(18) 0.78080(10)
N5_4 N 0.87174(8) 0.33391(17) 0.02665(9)
C20_4 C 0.96342(10) 0.2069(2) 0.37538(11)
H19_4 H 0.969363 0.263251 0.413142
C22_4 C 0.94543(10) 0.0461(2) 0.26487(12)
C23_4 C 0.93448(9) 0.1809(2) 0.24797(11)
C24_4 C 0.94427(10) 0.2618(2) 0.30568(12)
H22_4 H 0.937992 0.352887 0.297654
C25_4 C 0.91272(9) 0.2347(2) 0.17141(11)
C26_4 C 0.91597(12) 0.3686(2) 0.15969(13)
H23_4 H 0.932291 0.427998 0.200670
C27_4 C 0.89516(12) 0.4143(2) 0.08772(13)
H24_4 H 0.897502 0.504716 0.081344
C28_4 C 0.87029(12) 0.2053(2) 0.03836(13)
C29_4 C 0.89005(12) 0.1528(2) 0.10867(13)
H26_4 H 0.888023 0.061702 0.113667
O12_4 O 0.83793(6) 0.22366(13) 0.86935(8)
O14_4 O 0.94042(7) 0.40713(18) 0.97404(11)
H15_4 H 0.918313 0.457352 0.977841
H16_4 H 0.954460 0.328666 0.983450
H25_4 H 0.855165 0.147441 0.996993
C32_4 C 0.87250(8) 0.12747(17) 0.88983(10)
C33_4 C 0.84527(8) 0.00141(16) 0.84439(10)
C38_4 C 0.80866(8) 0.00854(17) 0.76350(10)
H28_4 H 0.800255 0.090599 0.739269
O16_2 O 0.83275(7) 0.52915(13) 0.83186(8)
O18_2 O 0.85374(7) 0.61727(14) 0.93678(8)
O10_4 O 0.87381(7) 0.89594(15) 0.00173(9)
C21_4 C 0.96478(10) 0.9995(2) 0.33593(12)
H20_4 H 0.971910 0.908978 0.345706
H21_4 H 0.939672 0.987357 0.228094
H17_4 H 0.738617 0.974406 0.613742
H18_4 H 0.732655 0.827096 0.610388
C30_4 C 0.89615(8) 0.87451(17) 0.96945(10)
C31_4 C 0.84018(8) 0.63043(18) 0.87076(11)
C34_4 C 0.85640(7) 0.87965(17) 0.88155(10)
C35_4 C 0.83115(8) 0.76540(17) 0.83620(10)
C36_4 C 0.79655(8) 0.77262(17) 0.75602(10)
H27_4 H 0.781069 0.695250 0.726666
C37_4 C 0.78481(8) 0.89401(18) 0.71920(10)
loop_
_geom_bond_atom_site_label_1
_geom_bond_atom_site_label_2
_geom_bond_site_symmetry_1
_geom_bond_site_symmetry_2
Co6 O12 1_555 1_555
O8 C31 1_555 1_555
O9 C31 1_555 1_555
O12 C32 1_555 1_555
O13 C32 1_555 1_555
O14 Co6 1_555 1_555
H15 O14 1_555 1_555
H16 O14 1_555 1_555
N4 H17 1_555 1_555
H18 N4 1_555 1_555
C30 C34 1_555 1_555
C31 C35 1_555 1_555
C32 C33 1_555 1_555
C33 C34 1_555 1_555
C34 C35 1_555 1_555
C35 C36 1_555 1_555
C36 H27 1_555 1_555
C37 N4 1_555 1_555
C38 C33 1_555 1_555
H28 C38 1_555 1_555
Co7 N4 1_555 1_555
N7 Co6 1_555 1_555
O13 Co4 1_555 1_555
C36 C37 1_555 1_555
C37 C38 1_555 1_555
Co1 O4 1_555 1_555
Co5 O5 1_555 1_555
O1 C12 1_555 1_555
O2 C12 1_555 1_555
O3 C11 1_555 1_555
O4 C11 1_555 1_555
O5 C13 1_555 1_555
O6 Co1 1_555 1_555
O7 Co5 1_555 1_555
H1 O7 1_555 1_555
H2 O7 1_555 1_555
N1 H3 1_555 1_555
H4 N1 1_555 1_555
N2 Co5 1_555 1_555
N3 C1 1_555 1_555
C1 H5 1_555 1_555
C2 N3 1_555 1_555
H6 C2 1_555 1_555
C3 C2 1_555 1_555
H7 C3 1_555 1_555
C4 C3 1_555 1_555
C5 C1 1_555 1_555
H8 C5 1_555 1_555
C6 C4 1_555 1_555
C7 C6 1_555 1_555
H9 C7 1_555 1_555
C8 N2 1_555 1_555
C9 N2 1_555 1_555
H11 C9 1_555 1_555
C10 C6 1_555 1_555
H12 C10 1_555 1_555
C11 C15 1_555 1_555
C12 C16 1_555 1_555
C13 O6 1_555 1_555
C14 C13 1_555 1_555
C15 C14 1_555 1_555
C16 C15 1_555 1_555
C17 C16 1_555 1_555
H13 C17 1_555 1_555
C18 N1 1_555 1_555
C19 C14 1_555 1_555
H14 C19 1_555 1_555
N6 Co1 1_555 1_555
C20 N6 1_555 1_555
H19 C20 1_555 1_555
C21 N6 1_555 1_555
H20 C21 1_555 1_555
C22 C21 1_555 1_555
H21 C22 1_555 1_555
C23 C22 1_555 1_555
C24 C20 1_555 1_555
H22 C24 1_555 1_555
C25 C23 1_555 1_555
C26 C25 1_555 1_555
H23 C26 1_555 1_555
C27 N5 1_555 1_555
C28 N5 1_555 1_555
C29 C25 1_555 1_555
H26 C29 1_555 1_555
Co4_2 N3 1_555 1_555
Co8 N1 1_555 1_555
O19 Co1 1_555 1_555
O20 Co1 1_555 1_555
N8 Co5 1_555 1_555
N9 Co1 1_555 1_555
C4 C5 1_555 1_555
C7 C8 1_555 1_555
C9 C10 1_555 1_555
C17 C18 1_555 1_555
C18 C19 1_555 1_555
O11 Co4_2 1_555 1_555
C23 C24 1_555 1_555
C26 C27 1_555 1_555
C28 C29 1_555 1_555
O19_2 Co4 1_555 1_555
N9_2 Co4 1_555 1_555
O20_2 Co4_2 1_555 1_555
O8_2 C31_2 1_555 1_555
O9_2 C31_2 1_555 1_555
N8 H17_2 1_555 1_555
H18_2 N8 1_555 1_555
C30_2 C34_2 1_555 1_555
C31_2 C35_2 1_555 1_555
C34_2 C35_2 1_555 1_555
C35_2 C36_2 1_555 1_555
C36_2 H27_2 1_555 1_555
C37_2 N8 1_555 1_555
Co8 O8_2 1_555 1_555
O9_2 Co8 1_555 1_555
C36_2 C37_2 1_555 1_555
H20_2 C21_2 1_555 1_555
O20_3 Co1_2 1_555 1_555
O11_2 Co4_4 1_555 1_555
Co8 O12_2 1_555 1_555
O12_2 C32_2 1_555 1_555
O13_2 C32_2 1_555 1_555
O14_2 Co8 1_555 1_555
H15_2 O14_2 1_555 1_555
H16_2 O14_2 1_555 1_555
C32_2 C33_2 1_555 1_555
C38_2 C33_2 1_555 1_555
H28_2 C38_2 1_555 1_555
O13_2 Co4_5 1_555 1_555
N6_2 Co1_3 1_555 1_555
C20_2 N6_2 1_555 1_555
H19_2 C20_2 1_555 1_555
C23_2 C22_2 1_555 1_555
C24_2 C20_2 1_555 1_555
H22_2 C24_2 1_555 1_555
C25_2 C23_2 1_555 1_555
C26_2 C25_2 1_555 1_555
H23_2 C26_2 1_555 1_555
C27_2 N5_2 1_555 1_555
H24_2 C27_2 1_555 1_555
C28_2 N5_2 1_555 1_555
C29_2 C25_2 1_555 1_555
H26_2 C29_2 1_555 1_555
O19_3 Co1_3 1_555 1_555
C23_2 C24_2 1_555 1_555
C26_2 C27_2 1_555 1_555
C28_2 C29_2 1_555 1_555
Co1_4 O4_2 1_555 1_555
O1_2 C12_2 1_555 1_555
O2_2 C12_2 1_555 1_555
O3_2 C11_2 1_555 1_555
O4_2 C11_2 1_555 1_555
N7 H3_2 1_555 1_555
H4_2 N7 1_555 1_555
H6_2 C2_2 1_555 1_555
C11_2 C15_2 1_555 1_555
C12_2 C16_2 1_555 1_555
C16_2 C15_2 1_555 1_555
C17_2 C16_2 1_555 1_555
H13_2 C17_2 1_555 1_555
C18_2 N7 1_555 1_555
Co7 O1_2 1_555 1_555
N9_3 Co1_4 1_555 1_555
O2_2 Co7 1_555 1_555
C17_2 C18_2 1_555 1_555
Co7 O5_2 1_555 1_555
O5_2 C13_2 1_555 1_555
O6_2 Co1_5 1_555 1_555
O7_2 Co7 1_555 1_555
H1_2 O7_2 1_555 1_555
H2_2 O7_2 1_555 1_555
N2_2 Co7 1_555 1_555
N3_2 C1_2 1_555 1_555
C1_2 H5_2 1_555 1_555
C4_2 C3_2 1_555 1_555
C5_2 C1_2 1_555 1_555
H8_2 C5_2 1_555 1_555
C6_2 C4_2 1_555 1_555
C7_2 C6_2 1_555 1_555
H9_2 C7_2 1_555 1_555
C8_2 N2_2 1_555 1_555
H10_2 C8_2 1_555 1_555
C9_2 N2_2 1_555 1_555
H11_2 C9_2 1_555 1_555
C10_2 C6_2 1_555 1_555
H12_2 C10_2 1_555 1_555
C13_2 O6_2 1_555 1_555
C14_2 C13_2 1_555 1_555
C19_2 C14_2 1_555 1_555
H14_2 C19_2 1_555 1_555
Co4_10 N3_2 1_555 1_555
C4_2 C5_2 1_555 1_555
C7_2 C8_2 1_555 1_555
C9_2 C10_2 1_555 1_555
N9_4 Co4_3 1_555 1_555
O20_4 Co4_8 1_555 1_555
O19_4 Co4_9 1_555 1_555
Co2 O5_3 1_555 1_555
O15 C12_3 1_555 1_555
O17 C12_3 1_555 1_555
O3_3 C11_3 1_555 1_555
O19 C11_3 1_555 1_555
O5_3 C13_3 1_555 1_555
O7_3 Co2 1_555 1_555
H1_3 O7_3 1_555 1_555
H2_3 O7_3 1_555 1_555
N1_2 H3_3 1_555 1_555
H4_3 N1_2 1_555 1_555
N2_3 Co2 1_555 1_555
N9_2 C1_3 1_555 1_555
C1_3 H5_3 1_555 1_555
C2_3 N9_2 1_555 1_555
H6_3 C2_3 1_555 1_555
C3_3 C2_3 1_555 1_555
H7_3 C3_3 1_555 1_555
C4_3 C3_3 1_555 1_555
C5_3 C1_3 1_555 1_555
H8_3 C5_3 1_555 1_555
C6_3 C4_3 1_555 1_555
C7_3 C6_3 1_555 1_555
H9_3 C7_3 1_555 1_555
C8_3 N2_3 1_555 1_555
C9_3 N2_3 1_555 1_555
H11_3 C9_3 1_555 1_555
C10_3 C6_3 1_555 1_555
H12_3 C10_3 1_555 1_555
C11_3 C15_3 1_555 1_555
C12_3 C16_3 1_555 1_555
C13_3 O20 1_555 1_555
C14_3 C13_3 1_555 1_555
C15_3 C14_3 1_555 1_555
C16_3 C15_3 1_555 1_555
C17_3 C16_3 1_555 1_555
H13_3 C17_3 1_555 1_555
C18_3 N1_2 1_555 1_555
C19_3 C14_3 1_555 1_555
H14_3 C19_3 1_555 1_555
C20_3 N9 1_555 1_555
H19_3 C20_3 1_555 1_555
C21_3 N9 1_555 1_555
H20_3 C21_3 1_555 1_555
C22_3 C21_3 1_555 1_555
H21_3 C22_3 1_555 1_555
C23_3 C22_3 1_555 1_555
C24_3 C20_3 1_555 1_555
H22_3 C24_3 1_555 1_555
C25_3 C23_3 1_555 1_555
C26_3 C25_3 1_555 1_555
H23_3 C26_3 1_555 1_555
C27_3 N5_3 1_555 1_555
C28_3 N5_3 1_555 1_555
C29_3 C25_3 1_555 1_555
H26_3 C29_3 1_555 1_555
Co8_2 N1_2 1_555 1_555
N8_2 Co2 1_555 1_555
C4_3 C5_3 1_555 1_555
C7_3 C8_3 1_555 1_555
C9_3 C10_3 1_555 1_555
C17_3 C18_3 1_555 1_555
C18_3 C19_3 1_555 1_555
C23_3 C24_3 1_555 1_555
C26_3 C27_3 1_555 1_555
C28_3 C29_3 1_555 1_555
Co3 O12_3 1_555 1_555
O16 C31_3 1_555 1_555
O18 C31_3 1_555 1_555
O12_3 C32_3 1_555 1_555
O20_2 C32_3 1_555 1_555
O14_3 Co3 1_555 1_555
H15_3 O14_3 1_555 1_555
H16_3 O14_3 1_555 1_555
N4_2 H17_3 1_555 1_555
H18_3 N4_2 1_555 1_555
C30_3 C34_3 1_555 1_555
C31_3 C35_3 1_555 1_555
C32_3 C33_3 1_555 1_555
C33_3 C34_3 1_555 1_555
C34_3 C35_3 1_555 1_555
C35_3 C36_3 1_555 1_555
C36_3 H27_3 1_555 1_555
C37_3 N4_2 1_555 1_555
C38_3 C33_3 1_555 1_555
H28_3 C38_3 1_555 1_555
Co7_2 N4_2 1_555 1_555
N7_2 Co3 1_555 1_555
C36_3 C37_3 1_555 1_555
C37_3 C38_3 1_555 1_555
Co7_2 O5_4 1_555 1_555
O5_4 C13_4 1_555 1_555
O7_4 Co7_2 1_555 1_555
H1_4 O7_4 1_555 1_555
H2_4 O7_4 1_555 1_555
N2_4 Co7_2 1_555 1_555
N9_4 C1_4 1_555 1_555
C1_4 H5_4 1_555 1_555
C4_4 C3_4 1_555 1_555
C5_4 C1_4 1_555 1_555
H8_4 C5_4 1_555 1_555
C6_4 C4_4 1_555 1_555
C7_4 C6_4 1_555 1_555
H9_4 C7_4 1_555 1_555
C8_4 N2_4 1_555 1_555
H10_4 C8_4 1_555 1_555
C9_4 N2_4 1_555 1_555
H11_4 C9_4 1_555 1_555
C10_4 C6_4 1_555 1_555
H12_4 C10_4 1_555 1_555
C13_4 O20_3 1_555 1_555
C14_4 C13_4 1_555 1_555
C19_4 C14_4 1_555 1_555
H14_4 C19_4 1_555 1_555
O15_2 Co7_2 1_555 1_555
O17_2 Co7_2 1_555 1_555
C4_4 C5_4 1_555 1_555
C7_4 C8_4 1_555 1_555
C9_4 C10_4 1_555 1_555
O15_2 C12_4 1_555 1_555
O17_2 C12_4 1_555 1_555
O3_4 C11_4 1_555 1_555
O19_3 C11_4 1_555 1_555
N7_2 H3_4 1_555 1_555
H4_4 N7_2 1_555 1_555
H6_4 C2_4 1_555 1_555
C11_4 C15_4 1_555 1_555
C12_4 C16_4 1_555 1_555
C16_4 C15_4 1_555 1_555
C17_4 C16_4 1_555 1_555
H13_4 C17_4 1_555 1_555
C18_4 N7_2 1_555 1_555
C17_4 C18_4 1_555 1_555
C20_4 N9_3 1_555 1_555
H19_4 C20_4 1_555 1_555
C23_4 C22_4 1_555 1_555
C24_4 C20_4 1_555 1_555
H22_4 C24_4 1_555 1_555
C25_4 C23_4 1_555 1_555
C26_4 C25_4 1_555 1_555
H23_4 C26_4 1_555 1_555
C27_4 N5_4 1_555 1_555
H24_4 C27_4 1_555 1_555
C28_4 N5_4 1_555 1_555
C29_4 C25_4 1_555 1_555
H26_4 C29_4 1_555 1_555
C23_4 C24_4 1_555 1_555
C26_4 C27_4 1_555 1_555
C28_4 C29_4 1_555 1_555
Co8_2 O12_4 1_555 1_555
O12_4 C32_4 1_555 1_555
O20_4 C32_4 1_555 1_555
O14_4 Co8_2 1_555 1_555
H15_4 O14_4 1_555 1_555
H16_4 O14_4 1_555 1_555
C32_4 C33_4 1_555 1_555
C38_4 C33_4 1_555 1_555
H28_4 C38_4 1_555 1_555
O16_2 Co8_2 1_555 1_555
O18_2 Co8_2 1_555 1_555
H20_4 C21_4 1_555 1_555
O16_2 C31_4 1_555 1_555
O18_2 C31_4 1_555 1_555
N8_2 H17_4 1_555 1_555
H18_4 N8_2 1_555 1_555
C30_4 C34_4 1_555 1_555
C31_4 C35_4 1_555 1_555
C34_4 C35_4 1_555 1_555
C35_4 C36_4 1_555 1_555
C36_4 H27_4 1_555 1_555
C37_4 N8_2 1_555 1_555
C36_4 C37_4 1_555 1_555

#END
