
###############################################################################
#
# This file contains modified crystal structure data generated from the
# MOF subset of the Cambridge Structural Database (CSD) v543 
# hosted by the Cambridge Crystallographic Data Centre (CCDC).
#
# This work is licensed under the Creative Commons
# Attribution-NonCommercial-ShareAlike 4.0 International License.
# To view a copy of this license, visit
# http://creativecommons.org/licenses/by-nc-sa/4.0/
# or send a letter to
# Creative Commons, PO Box 1866, Mountain View, CA 94042, USA.
#
# CIF created using the CSD Python API on 29 September 2022
# The structure has been converted into the P1 space group
# The structure has a 3D framework
# The original CSD entry DOHNUL is in the monoclinic crystal system
# The framework has been calculated to contain at least 10.0% void space
# The void calculation uses a probe of radius 1.32A, grid spacing 0.4
#
###############################################################################

data_DOHNUL
_chemical_formula_moiety         '(C168 H112 N40 O52 Zn14)n'
_symmetry_cell_setting           triclinic
_symmetry_space_group_name_H-M   'P 1'
_symmetry_Int_Tables_number      1
_space_group_name_Hall           'P 1'
loop_
_symmetry_equiv_pos_site_id
_symmetry_equiv_pos_as_xyz
1 x,y,z
_cell_length_a                   10.586(2)
_cell_length_b                   28.043(8)
_cell_length_c                   17.448(3)
_cell_angle_alpha                90
_cell_angle_beta                 92.08(3)
_cell_angle_gamma                90
_cell_volume                     5176.26
loop_
_atom_site_label
_atom_site_type_symbol
_atom_site_fract_x
_atom_site_fract_y
_atom_site_fract_z
Zn1 Zn 0.0000 0.41412(3) 0.2500
O1 O 0.1490(3) 0.38654(14) 0.3056(2)
N1 N 0.0789(5) 0.45725(18) 0.1689(3)
C1 C 0.1112(5) 0.35087(19) 0.3439(3)
C2 C 0.0625(6) 0.4464(2) 0.0955(4)
C3 C 0.1622(7) 0.4914(3) 0.1867(4)
C4 C 0.2106(5) 0.32429(19) 0.3910(3)
H1 H 0.0006 0.4241 0.0818
C5 C 0.1321(6) 0.4662(3) 0.0379(4)
C6 C 0.2349(8) 0.5137(3) 0.1330(4)
H2 H 0.1721 0.5007 0.2377
C7 C 0.2324(5) 0.3396(2) 0.4657(3)
C8 C 0.2810(5) 0.2861(2) 0.3627(3)
C9 C 0.2223(6) 0.5003(2) 0.0572(4)
H4 H 0.2917 0.5375 0.1480
O4 O 0.1731(4) 0.28707(14) 0.2425(2)
O5 O 0.4959(4) 0.26435(16) 0.6071(2)
O6 O 0.5618(4) 0.22439(16) 0.5082(2)
C10 C 0.4889(5) 0.2555(2) 0.5372(3)
H5 H 0.1859 0.3650 0.4843
C11 C 0.3231(5) 0.3175(2) 0.5132(3)
C12 C 0.3726(5) 0.2651(2) 0.4107(3)
C13 C 0.2593(6) 0.2670(2) 0.2830(3)
C14 C 0.3056(6) 0.5197(2) 0.0001(4)
C17 C 0.3934(5) 0.2803(2) 0.4858(3)
H8 H 0.3364 0.3279 0.5635
H9 H 0.4211 0.2402 0.3921
O7 O 0.3199(5) 0.23240(18) 0.2629(3)
N4 N 0.3899(5) 0.55427(18) 0.0131(3)
H10 H 0.7260 0.6712 0.0102
H13 H 0.5734 0.6176 0.0373
O9 O 0.0030(3) 0.34174(14) 0.1515(2)
Zn3 Zn 0.13853(6) 0.28710(2) 0.12923(3)
O10 O 0.2771(4) 0.23181(18) 0.1125(3)
H20 H 0.275(8) 0.212(3) 0.149(5)
H21 H 0.350(8) 0.244(3) 0.111(5)
Zn6 Zn 0.63853(6) 0.21290(2) 0.62923(3)
O15 O 0.0041(4) 0.23565(16) 0.3929(2)
O18 O 0.0618(4) 0.27561(16) 0.0082(2)
N11 N 0.2684(4) 0.33990(18) 0.1001(3)
O12 O 0.5041(4) 0.26435(16) 0.8929(2)
O13 O 0.4382(4) 0.22439(16) 0.9918(2)
C31 C 0.5111(5) 0.2555(2) 0.9628(3)
C32 C 0.6769(5) 0.3175(2) 0.9868(3)
H22 H 0.6636 0.3279 0.9365
Zn7 Zn 0.36147(6) 0.21290(2) 0.87077(3)
N2 N 0.2316(4) 0.16010(18) 0.8999(3)
C15 C 0.1904(6) 0.1531(2) 0.9704(3)
C16 C 0.1805(6) 0.1329(2) 0.8439(4)
C18 C 0.0990(6) 0.1209(2) 0.9872(4)
C19 C 0.0883(7) 0.1000(3) 0.8566(4)
H11 H 0.2087 0.1366 0.7943
C21 C 0.0449(5) 0.0933(2) 0.9295(3)
H14 H 0.0548 0.0820 0.8160
N7 N 0.7684(4) 0.16010(18) 0.6001(3)
C36 C 0.8096(6) 0.1531(2) 0.5296(3)
C37 C 0.8195(6) 0.1329(2) 0.6561(4)
C39 C 0.9010(6) 0.1209(2) 0.5128(4)
H24 H 0.7740 0.1712 0.4898
C40 C 0.9117(7) 0.1000(3) 0.6434(4)
H25 H 0.7913 0.1366 0.7057
C42 C 0.9551(5) 0.0933(2) 0.5705(3)
H27 H 0.9266 0.1176 0.4627
H28 H 0.9452 0.0820 0.6840
H3 H 0.8816 0.5431 0.0128
C15_2 C 0.3096(6) 0.3469(2) 0.0296(3)
C16_2 C 0.3195(6) 0.3671(2) 0.1561(4)
N3 N 0.6917(6) 0.4963(2) 0.0722(3)
C18_2 C 0.4010(6) 0.3791(2) 0.0128(4)
C19_2 C 0.4117(7) 0.4000(3) 0.1434(4)
H11_2 H 0.2913 0.3634 0.2057
H12 H 0.7386 0.5184 0.0921
N5 N 0.6007(5) 0.4710(2) 0.1089(3)
C20 C 0.5553(6) 0.4412(2) 0.0551(4)
C21_2 C 0.4551(5) 0.4067(2) 0.0705(3)
H14_2 H 0.4452 0.4180 0.1840
Zn1_2 Zn 0.5000 0.08588(3) 0.7500
O1_2 O 0.3510(3) 0.11346(14) 0.6944(2)
N1_2 N 0.4211(5) 0.04275(18) 0.8311(3)
C1_2 C 0.3888(5) 0.14913(19) 0.6561(3)
C2_2 C 0.4375(6) 0.0536(2) 0.9045(4)
C3_2 C 0.3378(7) 0.0086(3) 0.8133(4)
O2 O 0.5030(3) 0.15826(14) 0.6515(2)
C4_2 C 0.2894(5) 0.17571(19) 0.6090(3)
H1_2 H 0.4994 0.0759 0.9182
C5_2 C 0.3679(6) 0.0338(3) 0.9621(4)
C7_2 C 0.2676(5) 0.1604(2) 0.5343(3)
C8_2 C 0.2190(5) 0.2139(2) 0.6373(3)
O3 O 0.7771(4) 0.26819(18) 0.6125(3)
O4_2 O 0.3269(4) 0.21293(14) 0.7575(2)
C10_2 C 0.0111(5) 0.2445(2) 0.4628(3)
H5_2 H 0.3141 0.1350 0.5157
C11_2 C 0.1769(5) 0.1825(2) 0.4868(3)
C12_2 C 0.1274(5) 0.2349(2) 0.5893(3)
C13_2 C 0.2407(6) 0.2330(2) 0.7170(3)
H6 H 0.775(8) 0.288(3) 0.649(5)
H7 H 0.850(8) 0.256(3) 0.611(5)
C17_2 C 0.1066(5) 0.2197(2) 0.5142(3)
H8_2 H 0.1636 0.1721 0.4365
H9_2 H 0.0789 0.2598 0.6079
O7_2 O 0.1801(5) 0.26760(18) 0.7371(3)
O8 O 0.6490(3) 0.11346(14) 0.8056(2)
N6 N 0.5789(5) 0.04275(18) 0.6689(3)
C22 C 0.6112(5) 0.14913(19) 0.8439(3)
C23 C 0.5625(6) 0.0536(2) 0.5955(4)
C24 C 0.6622(7) 0.0086(3) 0.6867(4)
O9_2 O 0.4970(3) 0.15826(14) 0.8485(2)
C25 C 0.7106(5) 0.17571(19) 0.8910(3)
H15 H 0.5006 0.0759 0.5818
C26 C 0.6321(6) 0.0338(3) 0.5379(4)
C28 C 0.7324(5) 0.1604(2) 0.9657(3)
C29 C 0.7810(5) 0.2139(2) 0.8627(3)
H17 H 0.6184 0.0431 0.4872
O10_2 O 0.2229(4) 0.26819(18) 0.8875(3)
O11 O 0.6731(4) 0.21293(14) 0.7425(2)
H19 H 0.6859 0.1350 0.9843
C33 C 0.8726(5) 0.2349(2) 0.9107(3)
C34 C 0.7593(6) 0.2330(2) 0.7830(3)
H20_2 H 0.225(8) 0.288(3) 0.851(5)
H21_2 H 0.150(8) 0.256(3) 0.889(5)
C38 C 0.8934(5) 0.2197(2) 0.9858(3)
H23 H 0.9211 0.2598 0.8921
O14 O 0.8199(5) 0.26760(18) 0.7629(3)
H26 H 0.7614 0.0184 0.4079
H3_2 H 0.1184 0.4569 0.9872
N2_2 N 0.7316(4) 0.66010(18) 0.8999(3)
C15_3 C 0.6904(6) 0.6531(2) 0.9704(3)
C16_3 C 0.6805(6) 0.6329(2) 0.8439(4)
N3_2 N 0.3083(6) 0.5037(2) 0.9278(3)
C18_3 C 0.5990(6) 0.6209(2) 0.9872(4)
C19_3 C 0.5883(7) 0.6000(3) 0.8566(4)
H11_3 H 0.7087 0.6366 0.7943
H12_2 H 0.2614 0.4816 0.9079
N5_2 N 0.3993(5) 0.5290(2) 0.8911(3)
C20_2 C 0.4447(6) 0.5588(2) 0.9449(4)
C21_3 C 0.5449(5) 0.5933(2) 0.9295(3)
H14_3 H 0.5548 0.5820 0.8160
Zn5 Zn 0.86147(6) 0.71290(2) 0.87077(3)
Zn1_3 Zn 0.5000 0.91412(3) 0.2500
O1_3 O 0.6490(3) 0.88654(14) 0.3056(2)
N1_3 N 0.5789(5) 0.95725(18) 0.1689(3)
C1_3 C 0.6112(5) 0.85087(19) 0.3439(3)
C2_3 C 0.5625(6) 0.9464(2) 0.0955(4)
C3_3 C 0.6622(7) 0.9914(3) 0.1867(4)
O2_2 O 0.4970(3) 0.84174(14) 0.3485(2)
C4_3 C 0.7106(5) 0.82429(19) 0.3910(3)
H1_3 H 0.5006 0.9241 0.0818
C5_3 C 0.6321(6) 0.9662(3) 0.0379(4)
Zn2 Zn 0.36147(6) 0.78710(2) 0.37077(3)
C7_3 C 0.7324(5) 0.8396(2) 0.4657(3)
C8_3 C 0.7810(5) 0.7861(2) 0.3627(3)
O3_2 O 0.2229(4) 0.73181(18) 0.3875(3)
O4_3 O 0.6731(4) 0.78707(14) 0.2425(2)
O5_2 O 0.9959(4) 0.76435(16) 0.6071(2)
C10_3 C 0.9889(5) 0.7555(2) 0.5372(3)
H5_3 H 0.6859 0.8650 0.4843
C11_3 C 0.8231(5) 0.8175(2) 0.5132(3)
C12_3 C 0.8726(5) 0.7651(2) 0.4107(3)
C13_3 C 0.7593(6) 0.7670(2) 0.2830(3)
H6_2 H 0.225(8) 0.712(3) 0.351(5)
H7_2 H 0.150(8) 0.744(3) 0.389(5)
C17_3 C 0.8934(5) 0.7803(2) 0.4858(3)
H8_3 H 0.8364 0.8279 0.5635
H9_3 H 0.9211 0.7402 0.3921
O7_3 O 0.8199(5) 0.73240(18) 0.2629(3)
O8_2 O 0.3510(3) 0.88654(14) 0.1944(2)
N6_2 N 0.4211(5) 0.95725(18) 0.3311(3)
C22_2 C 0.3888(5) 0.85087(19) 0.1561(3)
C23_2 C 0.4375(6) 0.9464(2) 0.4045(4)
C24_2 C 0.3378(7) 0.9914(3) 0.3133(4)
O9_3 O 0.5030(3) 0.84174(14) 0.1515(2)
C25_2 C 0.2894(5) 0.82429(19) 0.1090(3)
H15_2 H 0.4994 0.9241 0.4182
C26_2 C 0.3679(6) 0.9662(3) 0.4621(4)
Zn3_2 Zn 0.63853(6) 0.78710(2) 0.12923(3)
C28_2 C 0.2676(5) 0.8396(2) 0.0343(3)
C29_2 C 0.2190(5) 0.7861(2) 0.1373(3)
H17_2 H 0.3816 0.9569 0.5128
O10_3 O 0.7771(4) 0.73181(18) 0.1125(3)
O11_2 O 0.3269(4) 0.78707(14) 0.2575(2)
H19_2 H 0.3141 0.8650 0.0157
C33_2 C 0.1274(5) 0.7651(2) 0.0893(3)
C34_2 C 0.2407(6) 0.7670(2) 0.2170(3)
H20_3 H 0.775(8) 0.712(3) 0.149(5)
H21_3 H 0.850(8) 0.744(3) 0.111(5)
C38_2 C 0.1066(5) 0.7803(2) 0.0142(3)
H23_2 H 0.0789 0.7402 0.1079
O14_2 O 0.1801(5) 0.73240(18) 0.2371(3)
H26_2 H 0.2386 0.9816 0.5921
O15_2 O 0.5041(4) 0.73565(16) 0.3929(2)
O16 O 0.4959(4) 0.73565(16) 0.1071(2)
O17 O 0.4382(4) 0.77561(16) 0.4918(2)
O18_2 O 0.5618(4) 0.77561(16) 0.0082(2)
N11_2 N 0.7684(4) 0.83990(18) 0.1001(3)
N12 N 0.2316(4) 0.83990(18) 0.3999(3)
O13_2 O 0.9382(4) 0.72439(16) 0.9918(2)
C31_2 C 0.4889(5) 0.7445(2) 0.0372(3)
C32_2 C 0.3231(5) 0.6825(2) 0.0132(3)
H22_2 H 0.3364 0.6721 0.0635
Zn1_4 Zn 1.0000 0.58588(3) 0.7500
O1_4 O 0.8510(3) 0.61346(14) 0.6944(2)
N1_4 N 0.9211(5) 0.54275(18) 0.8311(3)
C1_4 C 0.8888(5) 0.64913(19) 0.6561(3)
C2_4 C 0.9375(6) 0.5536(2) 0.9045(4)
C3_4 C 0.8378(7) 0.5086(3) 0.8133(4)
C4_4 C 0.7894(5) 0.67571(19) 0.6090(3)
H1_4 H 0.9994 0.5759 0.9182
C5_4 C 0.8679(6) 0.5338(3) 0.9621(4)
C6_2 C 0.7651(8) 0.4863(3) 0.8670(4)
H2_2 H 0.8279 0.4993 0.7623
C7_4 C 0.7676(5) 0.6604(2) 0.5343(3)
C8_4 C 0.7190(5) 0.7139(2) 0.6373(3)
C9_2 C 0.7777(6) 0.4997(2) 0.9428(4)
H4_2 H 0.7083 0.4625 0.8520
O4_4 O 0.8269(4) 0.71293(14) 0.7575(2)
C10_4 C 0.5111(5) 0.7445(2) 0.4628(3)
H5_4 H 0.8141 0.6350 0.5157
C11_4 C 0.6769(5) 0.6825(2) 0.4868(3)
C12_4 C 0.6274(5) 0.7349(2) 0.5893(3)
C13_4 C 0.7407(6) 0.7330(2) 0.7170(3)
C14_2 C 0.6944(6) 0.4803(2) 0.9999(4)
C17_4 C 0.6066(5) 0.7197(2) 0.5142(3)
H8_4 H 0.6636 0.6721 0.4365
H9_4 H 0.5789 0.7598 0.6079
O7_4 O 0.6801(5) 0.76760(18) 0.7371(3)
N4_2 N 0.6101(5) 0.44573(18) 0.9869(3)
H10_2 H 0.2740 0.3288 0.9898
H13_2 H 0.4266 0.3824 0.9627
O9_4 O 0.9970(3) 0.65826(14) 0.8485(2)
O10_4 O 0.7229(4) 0.76819(18) 0.8875(3)
H20_4 H 0.725(8) 0.788(3) 0.851(5)
H21_4 H 0.650(8) 0.756(3) 0.889(5)
C36_2 C 0.1904(6) 0.8469(2) 0.4704(3)
C37_2 C 0.1805(6) 0.8671(2) 0.3439(4)
C39_2 C 0.0990(6) 0.8791(2) 0.4872(4)
H24_2 H 0.2260 0.8288 0.5102
C40_2 C 0.0883(7) 0.9000(3) 0.3566(4)
H25_2 H 0.2087 0.8634 0.2943
C42_2 C 0.0449(5) 0.9067(2) 0.4295(3)
H27_2 H 0.0734 0.8824 0.5373
H28_2 H 0.0548 0.9180 0.3160
C15_4 C 0.8096(6) 0.8469(2) 0.0296(3)
C16_4 C 0.8195(6) 0.8671(2) 0.1561(4)
C18_4 C 0.9010(6) 0.8791(2) 0.0128(4)
C19_4 C 0.9117(7) 0.9000(3) 0.1434(4)
H11_4 H 0.7913 0.8634 0.2057
C21_4 C 0.9551(5) 0.9067(2) 0.0705(3)
H14_4 H 0.9452 0.9180 0.1840
Zn1_5 Zn 1.0000 0.41412(3) 0.2500
O2_3 O 0.9970(3) 0.34174(14) 0.3485(2)
Zn2_2 Zn 0.86147(6) 0.28710(2) 0.37077(3)
O3_3 O 0.7229(4) 0.23181(18) 0.3875(3)
H6_3 H 0.725(8) 0.212(3) 0.351(5)
H7_3 H 0.650(8) 0.244(3) 0.389(5)
O8_3 O 0.8510(3) 0.38654(14) 0.1944(2)
N6_3 N 0.9211(5) 0.45725(18) 0.3311(3)
C22_3 C 0.8888(5) 0.35087(19) 0.1561(3)
C23_3 C 0.9375(6) 0.4464(2) 0.4045(4)
C24_3 C 0.8378(7) 0.4914(3) 0.3133(4)
C25_3 C 0.7894(5) 0.32429(19) 0.1090(3)
H15_3 H 0.9994 0.4241 0.4182
C26_3 C 0.8679(6) 0.4662(3) 0.4621(4)
C27 C 0.7651(8) 0.5137(3) 0.3670(4)
H16 H 0.8279 0.5007 0.2623
C28_3 C 0.7676(5) 0.3396(2) 0.0343(3)
C29_3 C 0.7190(5) 0.2861(2) 0.1373(3)
H17_3 H 0.8816 0.4569 0.5128
C30 C 0.7777(6) 0.5003(2) 0.4428(4)
H18 H 0.7083 0.5375 0.3520
O11_3 O 0.8269(4) 0.28707(14) 0.2575(2)
N7_2 N 0.2684(4) 0.66010(18) 0.6001(3)
H19_3 H 0.8141 0.3650 0.0157
C33_3 C 0.6274(5) 0.2651(2) 0.0893(3)
C34_3 C 0.7407(6) 0.2670(2) 0.2170(3)
C35 C 0.6944(6) 0.5197(2) 0.4999(4)
C36_3 C 0.3096(6) 0.6531(2) 0.5296(3)
C37_3 C 0.3195(6) 0.6329(2) 0.6561(4)
C38_3 C 0.6066(5) 0.2803(2) 0.0142(3)
H23_3 H 0.5789 0.2402 0.1079
O14_3 O 0.6801(5) 0.23240(18) 0.2371(3)
N8 N 0.6917(6) 0.5037(2) 0.5722(3)
N9 N 0.6101(5) 0.55427(18) 0.4869(3)
C39_3 C 0.4010(6) 0.6209(2) 0.5128(4)
H24_3 H 0.2740 0.6712 0.4898
C40_3 C 0.4117(7) 0.6000(3) 0.6434(4)
H25_3 H 0.2913 0.6366 0.7057
H26_3 H 0.7386 0.4816 0.5921
N10 N 0.6007(5) 0.5290(2) 0.6089(3)
C41 C 0.5553(6) 0.5588(2) 0.5551(4)
C42_3 C 0.4551(5) 0.5933(2) 0.5705(3)
H27_3 H 0.4266 0.6176 0.4627
H28_3 H 0.4452 0.5820 0.6840
Zn4 Zn 0.13853(6) 0.71290(2) 0.62923(3)
O16_2 O 0.9959(4) 0.23565(16) 0.1071(2)
O17_2 O 0.9382(4) 0.27561(16) 0.4918(2)
N12_2 N 0.7316(4) 0.33990(18) 0.3999(3)
O6_2 O 0.0618(4) 0.72439(16) 0.5082(2)
H3_3 H 0.6184 0.9569 0.9872
H12_3 H 0.7614 0.9816 0.9079
O12_2 O 0.0041(4) 0.76435(16) 0.8929(2)
C31_3 C 0.0111(5) 0.7555(2) 0.9628(3)
C32_3 C 0.1769(5) 0.8175(2) 0.9868(3)
H22_3 H 0.1636 0.8279 0.9365
Zn1_6 Zn -0.0000 0.58588(3) 0.7500
O2_4 O 0.0030(3) 0.65826(14) 0.6515(2)
O3_4 O 0.2771(4) 0.76819(18) 0.6125(3)
H6_4 H 0.275(8) 0.788(3) 0.649(5)
H7_4 H 0.350(8) 0.756(3) 0.611(5)
O8_4 O 0.1490(3) 0.61346(14) 0.8056(2)
N6_4 N 0.0789(5) 0.54275(18) 0.6689(3)
C22_4 C 0.1112(5) 0.64913(19) 0.8439(3)
C23_4 C 0.0625(6) 0.5536(2) 0.5955(4)
C24_4 C 0.1622(7) 0.5086(3) 0.6867(4)
C25_4 C 0.2106(5) 0.67571(19) 0.8910(3)
H15_4 H 0.0006 0.5759 0.5818
C26_4 C 0.1321(6) 0.5338(3) 0.5379(4)
C27_2 C 0.2349(8) 0.4863(3) 0.6330(4)
H16_2 H 0.1721 0.4993 0.7377
C28_4 C 0.2324(5) 0.6604(2) 0.9657(3)
C29_4 C 0.2810(5) 0.7139(2) 0.8627(3)
H17_4 H 0.1184 0.5431 0.4872
C30_2 C 0.2223(6) 0.4997(2) 0.5572(4)
H18_2 H 0.2917 0.4625 0.6480
O11_4 O 0.1731(4) 0.71293(14) 0.7425(2)
H19_4 H 0.1859 0.6350 0.9843
C33_4 C 0.3726(5) 0.7349(2) 0.9107(3)
C34_4 C 0.2593(6) 0.7330(2) 0.7830(3)
C35_2 C 0.3056(6) 0.4803(2) 0.5001(4)
C36_4 C 0.6904(6) 0.3469(2) 0.4704(3)
C37_4 C 0.6805(6) 0.3671(2) 0.3439(4)
C38_4 C 0.3934(5) 0.7197(2) 0.9858(3)
H23_4 H 0.4211 0.7598 0.8921
O14_4 O 0.3199(5) 0.76760(18) 0.7629(3)
N8_2 N 0.3083(6) 0.4963(2) 0.4278(3)
N9_2 N 0.3899(5) 0.44573(18) 0.5131(3)
C39_4 C 0.5990(6) 0.3791(2) 0.4872(4)
H24_4 H 0.7260 0.3288 0.5102
C40_4 C 0.5883(7) 0.4000(3) 0.3566(4)
H25_4 H 0.7087 0.3634 0.2943
H26_4 H 0.2614 0.5184 0.4079
N10_2 N 0.3993(5) 0.4710(2) 0.3911(3)
C41_2 C 0.4447(6) 0.4412(2) 0.4449(4)
C42_4 C 0.5449(5) 0.4067(2) 0.4295(3)
H27_4 H 0.5734 0.3824 0.5373
H28_4 H 0.5548 0.4180 0.3160
H3_4 H 0.3816 0.0431 0.0128
H12_4 H 0.2386 0.0184 0.0921
C31_4 C 0.9889(5) 0.2445(2) 0.0372(3)
C32_4 C 0.8231(5) 0.1825(2) 0.0132(3)
H22_4 H 0.8364 0.1721 0.0635
H10_3 H 0.2260 0.1712 0.0102
H13_3 H 0.0734 0.1176 0.0373
C6_3 C 0.7349(8) 0.0137(3) 0.1330(4)
H2_3 H 0.6721 0.0007 0.2377
C9_3 C 0.7223(6) 0.0003(2) 0.0572(4)
H4_3 H 0.7917 0.0375 0.1480
C14_3 C 0.8056(6) 0.0197(2) 0.0001(4)
N4_3 N 0.8899(5) 0.05427(18) 0.0131(3)
C27_3 C 0.2651(8) 0.0137(3) 0.3670(4)
H16_3 H 0.3279 0.0007 0.2623
C30_3 C 0.2777(6) 0.0003(2) 0.4428(4)
H18_3 H 0.2083 0.0375 0.3520
C35_3 C 0.1944(6) 0.0197(2) 0.4999(4)
N8_3 N 0.1917(6) 0.0037(2) 0.5722(3)
N9_3 N 0.1101(5) 0.05427(18) 0.4869(3)
N10_3 N 0.1007(5) 0.0290(2) 0.6089(3)
C41_3 C 0.0553(6) 0.0588(2) 0.5551(4)
N3_3 N 0.8083(6) 0.0037(2) 0.9278(3)
N5_3 N 0.8993(5) 0.0290(2) 0.8911(3)
C20_3 C 0.9447(6) 0.0588(2) 0.9449(4)
N3_4 N 0.1917(6) 0.9963(2) 0.0722(3)
N5_4 N 0.1007(5) 0.9710(2) 0.1089(3)
C20_4 C 0.0553(6) 0.9412(2) 0.0551(4)
C6_4 C 0.2651(8) 0.9863(3) 0.8670(4)
H2_4 H 0.3279 0.9993 0.7623
C9_4 C 0.2777(6) 0.9997(2) 0.9428(4)
H4_4 H 0.2083 0.9625 0.8520
C14_4 C 0.1944(6) 0.9803(2) 0.9999(4)
N4_4 N 0.1101(5) 0.94573(18) 0.9869(3)
C27_4 C 0.7349(8) 0.9863(3) 0.6330(4)
H16_4 H 0.6721 0.9993 0.7377
C30_4 C 0.7223(6) 0.9997(2) 0.5572(4)
H18_4 H 0.7917 0.9625 0.6480
C35_4 C 0.8056(6) 0.9803(2) 0.5001(4)
N8_4 N 0.8083(6) 0.9963(2) 0.4278(3)
N9_4 N 0.8899(5) 0.94573(18) 0.5131(3)
N10_4 N 0.8993(5) 0.9710(2) 0.3911(3)
C41_4 C 0.9447(6) 0.9412(2) 0.4449(4)
H10_4 H 0.7740 0.8288 0.9898
H13_4 H 0.9266 0.8824 0.9627
loop_
_geom_bond_atom_site_label_1
_geom_bond_atom_site_label_2
_geom_bond_site_symmetry_1
_geom_bond_site_symmetry_2
Zn1 O1 1_555 1_555
O1 C1 1_555 1_555
N1 Zn1 1_555 1_555
C2 N1 1_555 1_555
C3 N1 1_555 1_555
C4 C1 1_555 1_555
H1 C2 1_555 1_555
C5 C2 1_555 1_555
C6 C3 1_555 1_555
H2 C3 1_555 1_555
C7 C4 1_555 1_555
C8 C4 1_555 1_555
C9 C5 1_555 1_555
H4 C6 1_555 1_555
O4 C13 1_555 1_555
O5 C10 1_555 1_555
O6 C10 1_555 1_555
C10 C17 1_555 1_555
H5 C7 1_555 1_555
C11 C7 1_555 1_555
C12 C8 1_555 1_555
C13 C8 1_555 1_555
C14 C9 1_555 1_555
C17 C11 1_555 1_555
H8 C11 1_555 1_555
H9 C12 1_555 1_555
O7 C13 1_555 1_555
N4 C14 1_555 1_555
Zn3 O4 1_555 1_555
O10 Zn3 1_555 1_555
H20 O10 1_555 1_555
H21 O10 1_555 1_555
Zn6 O5 1_555 1_555
O18 Zn3 1_555 1_555
N11 Zn3 1_555 1_555
C6 C9 1_555 1_555
O6 Zn6 1_555 1_555
C12 C17 1_555 1_555
O9 Zn3 1_555 1_555
O12 C31 1_555 1_555
O13 C31 1_555 1_555
H22 C32 1_555 1_555
Zn7 O12 1_555 1_555
O13 Zn7 1_555 1_555
N2 C15 1_555 1_555
C15 C18 1_555 1_555
C16 N2 1_555 1_555
C18 C21 1_555 1_555
C19 C16 1_555 1_555
H11 C16 1_555 1_555
C21 C19 1_555 1_555
H14 C19 1_555 1_555
Zn7 N2 1_555 1_555
N7 C36 1_555 1_555
C36 C39 1_555 1_555
C37 N7 1_555 1_555
C39 C42 1_555 1_555
H24 C36 1_555 1_555
C40 C37 1_555 1_555
H25 C37 1_555 1_555
C42 C40 1_555 1_555
H27 C39 1_555 1_555
H28 C40 1_555 1_555
Zn6 N7 1_555 1_555
N11 C15_2 1_555 1_555
C15_2 C18_2 1_555 1_555
C16_2 N11 1_555 1_555
C18_2 C21_2 1_555 1_555
C19_2 C16_2 1_555 1_555
H11_2 C16_2 1_555 1_555
H12 N3 1_555 1_555
N5 N3 1_555 1_555
C21_2 C19_2 1_555 1_555
H14_2 C19_2 1_555 1_555
N5 C20 1_555 1_555
C20 C21_2 1_555 1_555
Zn1_2 O1_2 1_555 1_555
O1_2 C1_2 1_555 1_555
N1_2 Zn1_2 1_555 1_555
C1_2 O2 1_555 1_555
C2_2 N1_2 1_555 1_555
C3_2 N1_2 1_555 1_555
O2 Zn6 1_555 1_555
C4_2 C1_2 1_555 1_555
H1_2 C2_2 1_555 1_555
C5_2 C2_2 1_555 1_555
Zn6 O3 1_555 1_555
C7_2 C4_2 1_555 1_555
C8_2 C4_2 1_555 1_555
O3 H6 1_555 1_555
O4_2 C13_2 1_555 1_555
O15 C10_2 1_555 1_555
C10_2 C17_2 1_555 1_555
H5_2 C7_2 1_555 1_555
C11_2 C7_2 1_555 1_555
C12_2 C8_2 1_555 1_555
C13_2 C8_2 1_555 1_555
H7 O3 1_555 1_555
C17_2 C11_2 1_555 1_555
H8_2 C11_2 1_555 1_555
H9_2 C12_2 1_555 1_555
O7_2 C13_2 1_555 1_555
O8 Zn1_2 1_555 1_555
N6 Zn1_2 1_555 1_555
C22 O8 1_555 1_555
C23 N6 1_555 1_555
C24 N6 1_555 1_555
O9_2 C22 1_555 1_555
C25 C22 1_555 1_555
H15 C23 1_555 1_555
C26 C23 1_555 1_555
Zn7 O4_2 1_555 1_555
C28 C25 1_555 1_555
C29 C25 1_555 1_555
H17 C26 1_555 1_555
O10_2 Zn7 1_555 1_555
O11 Zn6 1_555 1_555
H19 C28 1_555 1_555
C33 C29 1_555 1_555
C34 C29 1_555 1_555
H20_2 O10_2 1_555 1_555
H21_2 O10_2 1_555 1_555
H23 C33 1_555 1_555
O14 C34 1_555 1_555
C12_2 C17_2 1_555 1_555
O9_2 Zn7 1_555 1_555
O11 C34 1_555 1_555
C33 C38 1_555 1_555
N2_2 C15_3 1_555 1_555
C15_3 C18_3 1_555 1_555
C16_3 N2_2 1_555 1_555
C18_3 C21_3 1_555 1_555
C19_3 C16_3 1_555 1_555
H11_3 C16_3 1_555 1_555
H12_2 N3_2 1_555 1_555
N5_2 N3_2 1_555 1_555
C21_3 C19_3 1_555 1_555
H14_3 C19_3 1_555 1_555
Zn5 N2_2 1_555 1_555
N5_2 C20_2 1_555 1_555
C20_2 C21_3 1_555 1_555
Zn1_3 O1_3 1_555 1_555
O1_3 C1_3 1_555 1_555
N1_3 Zn1_3 1_555 1_555
C1_3 O2_2 1_555 1_555
C2_3 N1_3 1_555 1_555
C3_3 N1_3 1_555 1_555
O2_2 Zn2 1_555 1_555
C4_3 C1_3 1_555 1_555
H1_3 C2_3 1_555 1_555
C5_3 C2_3 1_555 1_555
Zn2 O3_2 1_555 1_555
C7_3 C4_3 1_555 1_555
C8_3 C4_3 1_555 1_555
O3_2 H6_2 1_555 1_555
O4_3 C13_3 1_555 1_555
O5_2 C10_3 1_555 1_555
C10_3 C17_3 1_555 1_555
H5_3 C7_3 1_555 1_555
C11_3 C7_3 1_555 1_555
C12_3 C8_3 1_555 1_555
C13_3 C8_3 1_555 1_555
H7_2 O3_2 1_555 1_555
C17_3 C11_3 1_555 1_555
H8_3 C11_3 1_555 1_555
H9_3 C12_3 1_555 1_555
O7_3 C13_3 1_555 1_555
O8_2 Zn1_3 1_555 1_555
N6_2 Zn1_3 1_555 1_555
C22_2 O8_2 1_555 1_555
C23_2 N6_2 1_555 1_555
C24_2 N6_2 1_555 1_555
O9_3 C22_2 1_555 1_555
C25_2 C22_2 1_555 1_555
H15_2 C23_2 1_555 1_555
C26_2 C23_2 1_555 1_555
Zn3_2 O4_3 1_555 1_555
C28_2 C25_2 1_555 1_555
C29_2 C25_2 1_555 1_555
H17_2 C26_2 1_555 1_555
O10_3 Zn3_2 1_555 1_555
O11_2 Zn2 1_555 1_555
H19_2 C28_2 1_555 1_555
C33_2 C29_2 1_555 1_555
C34_2 C29_2 1_555 1_555
H20_3 O10_3 1_555 1_555
H21_3 O10_3 1_555 1_555
H23_2 C33_2 1_555 1_555
O14_2 C34_2 1_555 1_555
O15_2 Zn2 1_555 1_555
O16 Zn3_2 1_555 1_555
O17 Zn2 1_555 1_555
O18_2 Zn3_2 1_555 1_555
N11_2 Zn3_2 1_555 1_555
N12 Zn2 1_555 1_555
C12_3 C17_3 1_555 1_555
O9_3 Zn3_2 1_555 1_555
O11_2 C34_2 1_555 1_555
C33_2 C38_2 1_555 1_555
O13_2 Zn5 1_555 1_555
O16 C31_2 1_555 1_555
O18_2 C31_2 1_555 1_555
H22_2 C32_2 1_555 1_555
Zn1_4 O1_4 1_555 1_555
O1_4 C1_4 1_555 1_555
N1_4 Zn1_4 1_555 1_555
C2_4 N1_4 1_555 1_555
C3_4 N1_4 1_555 1_555
C4_4 C1_4 1_555 1_555
H1_4 C2_4 1_555 1_555
C5_4 C2_4 1_555 1_555
C6_2 C3_4 1_555 1_555
H2_2 C3_4 1_555 1_555
C7_4 C4_4 1_555 1_555
C8_4 C4_4 1_555 1_555
C9_2 C5_4 1_555 1_555
H4_2 C6_2 1_555 1_555
O4_4 C13_4 1_555 1_555
O15_2 C10_4 1_555 1_555
O17 C10_4 1_555 1_555
C10_4 C17_4 1_555 1_555
H5_4 C7_4 1_555 1_555
C11_4 C7_4 1_555 1_555
C12_4 C8_4 1_555 1_555
C13_4 C8_4 1_555 1_555
C14_2 C9_2 1_555 1_555
C17_4 C11_4 1_555 1_555
H8_4 C11_4 1_555 1_555
H9_4 C12_4 1_555 1_555
O7_4 C13_4 1_555 1_555
N4_2 C14_2 1_555 1_555
Zn5 O4_4 1_555 1_555
O10_4 Zn5 1_555 1_555
H20_4 O10_4 1_555 1_555
H21_4 O10_4 1_555 1_555
C6_2 C9_2 1_555 1_555
C12_4 C17_4 1_555 1_555
O9_4 Zn5 1_555 1_555
N12 C36_2 1_555 1_555
C36_2 C39_2 1_555 1_555
C37_2 N12 1_555 1_555
C39_2 C42_2 1_555 1_555
H24_2 C36_2 1_555 1_555
C40_2 C37_2 1_555 1_555
H25_2 C37_2 1_555 1_555
C42_2 C40_2 1_555 1_555
H27_2 C39_2 1_555 1_555
H28_2 C40_2 1_555 1_555
N11_2 C15_4 1_555 1_555
C15_4 C18_4 1_555 1_555
C16_4 N11_2 1_555 1_555
C18_4 C21_4 1_555 1_555
C19_4 C16_4 1_555 1_555
H11_4 C16_4 1_555 1_555
C21_4 C19_4 1_555 1_555
H14_4 C19_4 1_555 1_555
O2_3 Zn2_2 1_555 1_555
Zn2_2 O3_3 1_555 1_555
O3_3 H6_3 1_555 1_555
H7_3 O3_3 1_555 1_555
O8_3 Zn1_5 1_555 1_555
N6_3 Zn1_5 1_555 1_555
C22_3 O8_3 1_555 1_555
C23_3 N6_3 1_555 1_555
C24_3 N6_3 1_555 1_555
C25_3 C22_3 1_555 1_555
H15_3 C23_3 1_555 1_555
C26_3 C23_3 1_555 1_555
C27 C24_3 1_555 1_555
H16 C24_3 1_555 1_555
C28_3 C25_3 1_555 1_555
C29_3 C25_3 1_555 1_555
H17_3 C26_3 1_555 1_555
C30 C26_3 1_555 1_555
H18 C27 1_555 1_555
O11_3 Zn2_2 1_555 1_555
N7_2 C36_3 1_555 1_555
H19_3 C28_3 1_555 1_555
C33_3 C29_3 1_555 1_555
C34_3 C29_3 1_555 1_555
C35 C30 1_555 1_555
C36_3 C39_3 1_555 1_555
C37_3 N7_2 1_555 1_555
H23_3 C33_3 1_555 1_555
O14_3 C34_3 1_555 1_555
N8 C35 1_555 1_555
N9 C35 1_555 1_555
C39_3 C42_3 1_555 1_555
H24_3 C36_3 1_555 1_555
C40_3 C37_3 1_555 1_555
H25_3 C37_3 1_555 1_555
H26_3 N8 1_555 1_555
N10 N8 1_555 1_555
C41 N9 1_555 1_555
C42_3 C40_3 1_555 1_555
H27_3 C39_3 1_555 1_555
H28_3 C40_3 1_555 1_555
Zn4 N7_2 1_555 1_555
O17_2 Zn2_2 1_555 1_555
N12_2 Zn2_2 1_555 1_555
C27 C30 1_555 1_555
O11_3 C34_3 1_555 1_555
C33_3 C38_3 1_555 1_555
N10 C41 1_555 1_555
C41 C42_3 1_555 1_555
O6_2 Zn4 1_555 1_555
O12_2 C31_3 1_555 1_555
H22_3 C32_3 1_555 1_555
O2_4 Zn4 1_555 1_555
Zn4 O3_4 1_555 1_555
O3_4 H6_4 1_555 1_555
H7_4 O3_4 1_555 1_555
O8_4 Zn1_6 1_555 1_555
N6_4 Zn1_6 1_555 1_555
C22_4 O8_4 1_555 1_555
C23_4 N6_4 1_555 1_555
C24_4 N6_4 1_555 1_555
C25_4 C22_4 1_555 1_555
H15_4 C23_4 1_555 1_555
C26_4 C23_4 1_555 1_555
C27_2 C24_4 1_555 1_555
H16_2 C24_4 1_555 1_555
C28_4 C25_4 1_555 1_555
C29_4 C25_4 1_555 1_555
H17_4 C26_4 1_555 1_555
C30_2 C26_4 1_555 1_555
H18_2 C27_2 1_555 1_555
O11_4 Zn4 1_555 1_555
N12_2 C36_4 1_555 1_555
H19_4 C28_4 1_555 1_555
C33_4 C29_4 1_555 1_555
C34_4 C29_4 1_555 1_555
C35_2 C30_2 1_555 1_555
C36_4 C39_4 1_555 1_555
C37_4 N12_2 1_555 1_555
H23_4 C33_4 1_555 1_555
O14_4 C34_4 1_555 1_555
N8_2 C35_2 1_555 1_555
N9_2 C35_2 1_555 1_555
C39_4 C42_4 1_555 1_555
H24_4 C36_4 1_555 1_555
C40_4 C37_4 1_555 1_555
H25_4 C37_4 1_555 1_555
H26_4 N8_2 1_555 1_555
N10_2 N8_2 1_555 1_555
C41_2 N9_2 1_555 1_555
C42_4 C40_4 1_555 1_555
H27_4 C39_4 1_555 1_555
H28_4 C40_4 1_555 1_555
C27_2 C30_2 1_555 1_555
O11_4 C34_4 1_555 1_555
C33_4 C38_4 1_555 1_555
N10_2 C41_2 1_555 1_555
C41_2 C42_4 1_555 1_555
O16_2 C31_4 1_555 1_555
H22_4 C32_4 1_555 1_555
H4_3 C6_3 1_555 1_555
C14_3 C9_3 1_555 1_555
N4_3 C14_3 1_555 1_555
H18_3 C27_3 1_555 1_555
C35_3 C30_3 1_555 1_555
N8_3 C35_3 1_555 1_555
N9_3 C35_3 1_555 1_555
N10_3 N8_3 1_555 1_555
C41_3 N9_3 1_555 1_555
C6_3 C9_3 1_555 1_555
C27_3 C30_3 1_555 1_555
N10_3 C41_3 1_555 1_555
N5_3 N3_3 1_555 1_555
N5_3 C20_3 1_555 1_555
N5_4 N3_4 1_555 1_555
N5_4 C20_4 1_555 1_555
H4_4 C6_4 1_555 1_555
C14_4 C9_4 1_555 1_555
N4_4 C14_4 1_555 1_555
H18_4 C27_4 1_555 1_555
C35_4 C30_4 1_555 1_555
N8_4 C35_4 1_555 1_555
N9_4 C35_4 1_555 1_555
N10_4 N8_4 1_555 1_555
C41_4 N9_4 1_555 1_555
C6_4 C9_4 1_555 1_555
C27_4 C30_4 1_555 1_555
N10_4 C41_4 1_555 1_555

#END
