
###############################################################################
#
# This file contains modified crystal structure data generated from the
# MOF subset of the Cambridge Structural Database (CSD) v543 
# hosted by the Cambridge Crystallographic Data Centre (CCDC).
#
# This work is licensed under the Creative Commons
# Attribution-NonCommercial-ShareAlike 4.0 International License.
# To view a copy of this license, visit
# http://creativecommons.org/licenses/by-nc-sa/4.0/
# or send a letter to
# Creative Commons, PO Box 1866, Mountain View, CA 94042, USA.
#
# CIF created using the CSD Python API on 29 September 2022
# The structure has been converted into the P1 space group
# The structure has a 3D framework
# The original CSD entry DOHYIJ01 is in the monoclinic crystal system
# The framework has been calculated to contain at least 10.0% void space
# The void calculation uses a probe of radius 1.32A, grid spacing 0.4
#
###############################################################################

data_DOHYIJ01
_chemical_formula_moiety         '(C56 H32 Cu4 Eu4 N8 O28)n'
_symmetry_cell_setting           triclinic
_symmetry_space_group_name_H-M   'P 1'
_symmetry_Int_Tables_number      1
_space_group_name_Hall           'P 1'
loop_
_symmetry_equiv_pos_site_id
_symmetry_equiv_pos_as_xyz
1 x,y,z
_cell_length_a                   9.5545(3)
_cell_length_b                   21.6026(7)
_cell_length_c                   9.2410(3)
_cell_angle_alpha                90
_cell_angle_beta                 116.151(2)
_cell_angle_gamma                90
_cell_volume                     1712.12
loop_
_atom_site_label
_atom_site_type_symbol
_atom_site_fract_x
_atom_site_fract_y
_atom_site_fract_z
C13 C 0.5081(6) 0.5352(3) 0.0118(5)
O6 O 0.6425(4) 0.55656(17) 0.0912(4)
O8 O 0.0381(4) 0.06100(17) 0.1372(4)
Cu3 Cu 0.19135(8) 0.85427(3) 0.04049(9)
Cu4 Cu 0.80865(8) 0.35427(3) 0.45951(9)
Eu5 Eu 0.85880(3) 0.491510(12) 0.12381(3)
C15 C 0.0775(6) 0.7327(3) 0.0294(6)
C20 C 0.0262(6) 0.6199(3) 0.0115(5)
C21 C 0.6239(7) 0.3676(3) 0.6295(7)
H13 H 0.7024 0.3438 0.7069
C22 C 0.5002(7) 0.3853(3) 0.6580(6)
H14 H 0.4971 0.3747 0.7540
C23 C 0.3826(7) 0.4186(3) 0.5441(6)
H15 H 0.2970 0.4304 0.5606
C24 C 0.3910(6) 0.4349(2) 0.4035(5)
C25 C 0.5205(6) 0.4173(3) 0.3848(6)
H16 H 0.5284 0.4297 0.2923
C26 C 0.2587(6) 0.4700(3) 0.2714(6)
N3 N 0.0568(5) 0.7922(2) 0.0577(5)
N5 N 0.6366(5) 0.3829(2) 0.4951(6)
O10 O 0.0336(5) 0.07535(18) 0.4485(4)
O13 O 0.2871(5) 0.49450(17) 0.1638(4)
O14 O 0.2871(5) 0.00550(17) 0.6638(4)
O15 O 0.1317(4) 0.4704(2) 0.2791(4)
O18 O 0.6162(4) 0.43382(17) 0.0511(4)
O21 O 0.3575(4) 0.05656(17) 0.4088(4)
Eu1 Eu 0.14120(3) 0.508490(12) 0.87619(3)
C2 C 0.0080(6) 0.3156(3) 0.9536(6)
C3 C 0.1245(7) 0.3022(3) 0.9073(7)
H2 H 0.1846 0.3336 0.8946
C4 C 0.1490(7) 0.2415(3) 0.8807(8)
H3 H 0.2275 0.2313 0.8513
C5 C 0.0572(7) 0.1958(3) 0.8977(7)
H4 H 0.0744 0.1551 0.8776
O1 O 0.0336(5) 0.42465(18) 0.9485(4)
O5 O 0.3838(4) 0.56618(17) 0.9489(4)
H9 H 0.1541 0.7236 0.9964
C27 C 0.4919(6) 0.4648(3) 0.9882(5)
O11 O 0.1133(5) 0.61333(18) 0.9440(5)
O20 O 0.3575(4) 0.44344(17) 0.9088(4)
O23 O 0.1179(4) 0.55797(17) 0.6286(4)
O25 O 0.0381(4) 0.43900(17) 0.6372(4)
Eu7 Eu 0.14120(3) 0.991510(12) 0.37619(3)
N6 N 0.3634(5) 0.8829(2) 0.0049(6)
O12 O 0.1133(5) 0.88667(18) 0.4440(5)
O19 O 0.3838(4) 0.93382(17) 0.4489(4)
O22 O 0.1179(4) 0.94203(17) 0.1286(4)
C28 C 0.0231(6) 0.9658(2) 0.9970(5)
H1 H 0.8459 0.2764 0.0036
C7 C 0.6239(7) 0.1324(3) 0.1295(7)
H5 H 0.7024 0.1562 0.2069
C8 C 0.5002(7) 0.1147(3) 0.1580(6)
H6 H 0.4971 0.1253 0.2540
C9 C 0.3826(7) 0.0814(3) 0.0441(6)
H7 H 0.2970 0.0696 0.0606
C14 C 0.9769(6) 0.0342(2) 0.0030(5)
O2 O 0.8867(5) 0.38667(18) 0.0560(5)
C16 C 0.9920(6) 0.6844(3) 0.0464(6)
C17 C 0.8755(7) 0.6978(3) 0.0927(7)
H10 H 0.8154 0.6664 0.1054
C18 C 0.8510(7) 0.7585(3) 0.1193(8)
H11 H 0.7725 0.7687 0.1487
C19 C 0.9428(7) 0.8042(3) 0.1023(7)
H12 H 0.9256 0.8449 0.1224
O9 O 0.9664(5) 0.57535(18) 0.0515(4)
Cu1 Cu 0.80865(8) 0.14573(3) 0.95951(9)
C1 C 0.9225(6) 0.2673(3) 0.9706(6)
C6 C 0.9738(6) 0.3801(3) 0.9885(5)
C10 C 0.3910(6) 0.0651(2) 0.9035(5)
C11 C 0.5205(6) 0.0827(3) 0.8848(6)
H8 H 0.5284 0.0703 0.7923
C12 C 0.2587(6) 0.0300(3) 0.7714(6)
N1 N 0.9432(5) 0.2078(2) 0.9423(5)
N2 N 0.6366(5) 0.1171(2) 0.9951(6)
O4 O 0.1317(4) 0.0296(2) 0.7791(4)
O7 O 0.8821(4) 0.05797(17) 0.8714(4)
Eu6 Eu 0.85880(3) 0.008490(12) 0.62381(3)
O16 O 0.8683(4) 0.5296(2) 0.7209(4)
O17 O 0.8683(4) 0.9704(2) 0.2209(4)
O24 O 0.9619(4) 0.93900(17) 0.8628(4)
C16_2 C 0.0080(6) 0.1844(3) 0.4536(6)
C17_2 C 0.1245(7) 0.1978(3) 0.4073(7)
H10_2 H 0.1846 0.1664 0.3946
C18_2 C 0.1490(7) 0.2585(3) 0.3807(8)
H11_2 H 0.2275 0.2687 0.3513
C19_2 C 0.0572(7) 0.3042(3) 0.3977(7)
H12_2 H 0.0744 0.3449 0.3776
Cu1_2 Cu 0.19135(8) 0.64573(3) 0.54049(9)
C1_2 C 0.0775(6) 0.7673(3) 0.5294(6)
H1_2 H 0.1541 0.7764 0.4964
C6_2 C 0.0262(6) 0.8801(3) 0.5115(5)
C7_2 C 0.3761(7) 0.6324(3) 0.3705(7)
H5_2 H 0.2976 0.6562 0.2931
C8_2 C 0.4998(7) 0.6147(3) 0.3420(6)
H6_2 H 0.5029 0.6253 0.2460
C9_2 C 0.6174(7) 0.5814(3) 0.4559(6)
H7_2 H 0.7030 0.5696 0.4394
C10_2 C 0.6090(6) 0.5651(2) 0.5965(5)
C11_2 C 0.4795(6) 0.5827(3) 0.6152(6)
H8_2 H 0.4716 0.5703 0.7077
C12_2 C 0.7413(6) 0.5300(3) 0.7286(6)
C14_2 C 0.0231(6) 0.5342(2) 0.4970(5)
N1_2 N 0.0568(5) 0.7078(2) 0.5577(5)
N2_2 N 0.3634(5) 0.6171(2) 0.5049(6)
O3 O 0.7129(5) 0.50550(17) 0.8362(4)
C13_2 C 0.4919(6) 0.0352(3) 0.4882(5)
O5_2 O 0.6162(4) 0.06618(17) 0.5511(4)
C15_2 C 0.9225(6) 0.2327(3) 0.4706(6)
H9_2 H 0.8459 0.2236 0.5036
C20_2 C 0.9738(6) 0.1199(3) 0.4885(5)
N3_2 N 0.9432(5) 0.2922(2) 0.4423(5)
O11_2 O 0.8867(5) 0.11333(18) 0.5560(5)
C2_2 C 0.9920(6) 0.8156(3) 0.5464(6)
C3_2 C 0.8755(7) 0.8022(3) 0.5927(7)
H2_2 H 0.8154 0.8336 0.6054
C4_2 C 0.8510(7) 0.7415(3) 0.6193(8)
H3_2 H 0.7725 0.7313 0.6487
C5_2 C 0.9428(7) 0.6958(3) 0.6023(7)
H4_2 H 0.9256 0.6551 0.6224
O1_2 O 0.9664(5) 0.92465(18) 0.5515(4)
O8_2 O 0.9619(4) 0.56100(17) 0.3628(4)
C24_2 C 0.6090(6) 0.9349(2) 0.0965(5)
C25_2 C 0.4795(6) 0.9173(3) 0.1152(6)
H16_2 H 0.4716 0.9297 0.2077
C26_2 C 0.7413(6) 0.9700(3) 0.2286(6)
C27_2 C 0.5081(6) 0.9648(3) 0.5118(5)
C28_2 C 0.9769(6) 0.4658(2) 0.5030(5)
O13_2 O 0.7129(5) 0.99450(17) 0.3362(4)
O20_2 O 0.6425(4) 0.94344(17) 0.5912(4)
O22_2 O 0.8821(4) 0.44203(17) 0.3714(4)
C21_2 C 0.3761(7) 0.8676(3) 0.8705(7)
H13_2 H 0.2976 0.8438 0.7931
C22_2 C 0.4998(7) 0.8853(3) 0.8420(6)
H14_2 H 0.5029 0.8747 0.7460
C23_2 C 0.6174(7) 0.9186(3) 0.9559(6)
H15_2 H 0.7030 0.9304 0.9394
loop_
_geom_bond_atom_site_label_1
_geom_bond_atom_site_label_2
_geom_bond_site_symmetry_1
_geom_bond_site_symmetry_2
O6 C13 1_555 1_555
Cu3 N3 1_555 1_555
Cu4 N5 1_555 1_555
Eu5 O6 1_555 1_555
C21 H13 1_555 1_555
C22 C21 1_555 1_555
H14 C22 1_555 1_555
C23 C22 1_555 1_555
H15 C23 1_555 1_555
C24 C23 1_555 1_555
C25 C24 1_555 1_555
H16 C25 1_555 1_555
C26 C24 1_555 1_555
N3 C15 1_555 1_555
N5 C21 1_555 1_555
O18 Eu5 1_555 1_555
C25 N5 1_555 1_555
C26 O13 1_555 1_555
C26 O15 1_555 1_555
Eu1 O1 1_555 1_555
C3 C2 1_555 1_555
H2 C3 1_555 1_555
C4 C3 1_555 1_555
H3 C4 1_555 1_555
C5 C4 1_555 1_555
H4 C5 1_555 1_555
O5 Eu1 1_555 1_555
O11 Eu1 1_555 1_555
O20 Eu1 1_555 1_555
O23 Eu1 1_555 1_555
O25 Eu1 1_555 1_555
C27 O20 1_555 1_555
N6 Cu3 1_555 1_555
O12 Eu7 1_555 1_555
O19 Eu7 1_555 1_555
O22 Cu3 1_555 1_555
Eu7 O22 1_555 1_555
C7 H5 1_555 1_555
C8 C7 1_555 1_555
H6 C8 1_555 1_555
C9 C8 1_555 1_555
H7 C9 1_555 1_555
Eu5 O2 1_555 1_555
C17 C16 1_555 1_555
H10 C17 1_555 1_555
C18 C17 1_555 1_555
H11 C18 1_555 1_555
C19 C18 1_555 1_555
H12 C19 1_555 1_555
O9 Eu5 1_555 1_555
Cu1 N1 1_555 1_555
C11 C10 1_555 1_555
H8 C11 1_555 1_555
C12 C10 1_555 1_555
N1 C1 1_555 1_555
N2 Cu1 1_555 1_555
O14 C12 1_555 1_555
O4 C12 1_555 1_555
O7 Cu1 1_555 1_555
Eu6 O7 1_555 1_555
C11 N2 1_555 1_555
C17_2 C16_2 1_555 1_555
H10_2 C17_2 1_555 1_555
C18_2 C17_2 1_555 1_555
H11_2 C18_2 1_555 1_555
C19_2 C18_2 1_555 1_555
H12_2 C19_2 1_555 1_555
Cu1_2 N1_2 1_555 1_555
C1_2 H1_2 1_555 1_555
C7_2 H5_2 1_555 1_555
C8_2 C7_2 1_555 1_555
H6_2 C8_2 1_555 1_555
C9_2 C8_2 1_555 1_555
H7_2 C9_2 1_555 1_555
C10_2 C9_2 1_555 1_555
C11_2 C10_2 1_555 1_555
H8_2 C11_2 1_555 1_555
C12_2 C10_2 1_555 1_555
C14_2 O23 1_555 1_555
N1_2 C1_2 1_555 1_555
N2_2 Cu1_2 1_555 1_555
O12 C6_2 1_555 1_555
O3 C12_2 1_555 1_555
O16 C12_2 1_555 1_555
O23 Cu1_2 1_555 1_555
C7_2 N2_2 1_555 1_555
C11_2 N2_2 1_555 1_555
C13_2 O5_2 1_555 1_555
O5_2 Eu6 1_555 1_555
O21 C13_2 1_555 1_555
Cu4 N3_2 1_555 1_555
C15_2 H9_2 1_555 1_555
N3_2 C15_2 1_555 1_555
O11_2 Eu6 1_555 1_555
C20_2 O11_2 1_555 1_555
C3_2 C2_2 1_555 1_555
H2_2 C3_2 1_555 1_555
C4_2 C3_2 1_555 1_555
H3_2 C4_2 1_555 1_555
C5_2 C4_2 1_555 1_555
H4_2 C5_2 1_555 1_555
Eu5 O8_2 1_555 1_555
C25_2 C24_2 1_555 1_555
H16_2 C25_2 1_555 1_555
C26_2 C24_2 1_555 1_555
O22_2 Cu4 1_555 1_555
Eu5 O22_2 1_555 1_555
C25_2 N6 1_555 1_555
C26_2 O13_2 1_555 1_555
C26_2 O17 1_555 1_555
C27_2 O19 1_555 1_555
C27_2 O20_2 1_555 1_555
C28_2 O22_2 1_555 1_555
C21_2 H13_2 1_555 1_555
C22_2 C21_2 1_555 1_555
H14_2 C22_2 1_555 1_555
C23_2 C22_2 1_555 1_555
H15_2 C23_2 1_555 1_555

#END
