
###############################################################################
#
# This file contains modified crystal structure data generated from the
# MOF subset of the Cambridge Structural Database (CSD) v543 
# hosted by the Cambridge Crystallographic Data Centre (CCDC).
#
# This work is licensed under the Creative Commons
# Attribution-NonCommercial-ShareAlike 4.0 International License.
# To view a copy of this license, visit
# http://creativecommons.org/licenses/by-nc-sa/4.0/
# or send a letter to
# Creative Commons, PO Box 1866, Mountain View, CA 94042, USA.
#
# CIF created using the CSD Python API on 29 September 2022
# The structure has been converted into the P1 space group
# The structure has a 3D framework
# The original CSD entry DOJPOK is in the monoclinic crystal system
# The framework has been calculated to contain at least 10.0% void space
# The void calculation uses a probe of radius 1.32A, grid spacing 0.4
# The framework is charged, counterions have been retained in the structure
#
###############################################################################

data_DOJPOK
_chemical_formula_moiety         '(C24 Mn6 N32 2-)n'
_symmetry_cell_setting           triclinic
_symmetry_space_group_name_H-M   'P 1'
_symmetry_Int_Tables_number      1
_space_group_name_Hall           'P 1'
loop_
_symmetry_equiv_pos_site_id
_symmetry_equiv_pos_as_xyz
1 x,y,z
_cell_length_a                   18.836(4)
_cell_length_b                   10.642(2)
_cell_length_c                   10.444(2)
_cell_angle_alpha                90
_cell_angle_beta                 112.55(3)
_cell_angle_gamma                90
_cell_volume                     1933.47
loop_
_atom_site_label
_atom_site_type_symbol
_atom_site_fract_x
_atom_site_fract_y
_atom_site_fract_z
Mn1 Mn 0.2500 0.2500 0.0000
C5 C 0.27970(14) 0.2006(2) 0.3250(3)
N7 N 0.30762(14) 0.1559(2) 0.4507(2)
N8 N 0.25795(14) 0.2476(2) 0.2186(2)
C6 C 0.28423(13) 0.0483(3) 0.4767(2)
N10 N 0.37960(13) 0.2711(2) 0.0911(2)
N11 N 0.26704(13) 0.0453(2) 0.0091(2)
Mn1_2 Mn 0.2500 0.2500 1.0000
C1 C 0.22030(14) 0.2994(2) 0.6750(3)
N1 N 0.12040(13) 0.2289(2) 0.9089(2)
C2 C 0.06237(14) 0.2625(2) 0.8313(3)
N2 N 0.19238(14) 0.3441(2) 0.5493(2)
N3 N 0.24205(14) 0.2524(2) 0.7814(2)
N4 N 0.23296(13) 0.5453(2) 0.4909(2)
N5 N 0.0000 0.3171(3) 0.7500
C3 C 0.21577(13) 0.4517(3) 0.5233(2)
Mn4 Mn 0.2500 0.7500 0.5000
N12 N 0.23296(13) 0.4547(2) 0.9909(2)
N9 N 0.26704(13) 0.9547(2) 0.5091(2)
N5_2 N 1.0000 0.3171(3) 0.7500
N6 N 0.87960(13) 0.2289(2) 0.5911(2)
C4 C 0.93763(14) 0.2625(2) 0.6687(3)
Mn2 Mn 0.7500 0.2500 0.5000
N4_2 N 0.76704(13) 0.5453(2) 0.0091(2)
Mn4_2 Mn 0.7500 0.7500 0.0000
C1_2 C 0.77970(14) 0.2994(2) 0.8250(3)
N2_2 N 0.80762(14) 0.3441(2) 0.9507(2)
N3_2 N 0.75795(14) 0.2524(2) 0.7186(2)
C3_2 C 0.78423(13) 0.4517(3) 0.9767(2)
C5_2 C 0.72030(14) 0.2006(2) 0.1750(3)
N7_2 N 0.69238(14) 0.1559(2) 0.0493(2)
N8_2 N 0.74205(14) 0.2476(2) 0.2814(2)
C6_2 C 0.71577(13) 0.0483(3) 0.0233(2)
Mn4_3 Mn 0.7500 0.7500 1.0000
N10_2 N 0.62040(13) 0.2711(2) 0.4089(2)
N11_2 N 0.73296(13) 0.0453(2) 0.4909(2)
N12_2 N 0.76704(13) 0.4547(2) 0.5091(2)
N9_2 N 0.73296(13) 0.9547(2) 0.9909(2)
C5_3 C 0.77970(14) 0.7006(2) 0.3250(3)
N7_3 N 0.80762(14) 0.6559(2) 0.4507(2)
N8_3 N 0.75795(14) 0.7476(2) 0.2186(2)
C6_3 C 0.78423(13) 0.5483(3) 0.4767(2)
N10_3 N 0.87960(13) 0.7711(2) 0.0911(2)
C1_3 C 0.72030(14) 0.7994(2) 0.6750(3)
N1_2 N 0.62040(13) 0.7289(2) 0.9089(2)
C2_2 C 0.56237(14) 0.7625(2) 0.8313(3)
N2_3 N 0.69238(14) 0.8441(2) 0.5493(2)
N3_3 N 0.74205(14) 0.7524(2) 0.7814(2)
N5_3 N 0.5000 0.8171(3) 0.7500
C3_3 C 0.71577(13) 0.9517(3) 0.5233(2)
N6_2 N 0.37960(13) 0.7289(2) 0.5911(2)
C4_2 C 0.43763(14) 0.7625(2) 0.6687(3)
C1_4 C 0.27970(14) 0.7994(2) 0.8250(3)
N2_4 N 0.30762(14) 0.8441(2) 0.9507(2)
N3_4 N 0.25795(14) 0.7524(2) 0.7186(2)
C3_4 C 0.28423(13) 0.9517(3) 0.9767(2)
C5_4 C 0.22030(14) 0.7006(2) 0.1750(3)
N7_4 N 0.19238(14) 0.6559(2) 0.0493(2)
N8_4 N 0.24205(14) 0.7476(2) 0.2814(2)
C6_4 C 0.21577(13) 0.5483(3) 0.0233(2)
N10_4 N 0.12040(13) 0.7711(2) 0.4089(2)
N5_4 N 0.0000 0.6829(3) 0.2500
C4_3 C 0.06237(14) 0.7375(2) 0.3313(3)
C2_3 C 0.93763(14) 0.7375(2) 0.1687(3)
N5_5 N 1.0000 0.6829(3) 0.2500
C2_4 C 0.43763(14) 0.2375(2) 0.1687(3)
N5_6 N 0.5000 0.1829(3) 0.2500
C4_4 C 0.56237(14) 0.2375(2) 0.3313(3)
loop_
_geom_bond_atom_site_label_1
_geom_bond_atom_site_label_2
_geom_bond_site_symmetry_1
_geom_bond_site_symmetry_2
C5 N7 1_555 1_555
N7 C6 1_555 1_555
N8 Mn1 1_555 1_555
N10 Mn1 1_555 1_555
N11 Mn1 1_555 1_555
C5 N8 1_555 1_555
Mn1_2 N1 1_555 1_555
C1 N2 1_555 1_555
N1 C2 1_555 1_555
C2 N5 1_555 1_555
N2 C3 1_555 1_555
N3 Mn1_2 1_555 1_555
N4 C3 1_555 1_555
Mn4 N4 1_555 1_555
N12 Mn1_2 1_555 1_555
C1 N3 1_555 1_555
Mn4 N9 1_555 1_555
N5_2 C4 1_555 1_555
N6 C4 1_555 1_555
Mn2 N6 1_555 1_555
Mn4_2 N4_2 1_555 1_555
C1_2 N2_2 1_555 1_555
N2_2 C3_2 1_555 1_555
N3_2 Mn2 1_555 1_555
C5_2 N7_2 1_555 1_555
N7_2 C6_2 1_555 1_555
N8_2 Mn2 1_555 1_555
N10_2 Mn2 1_555 1_555
N11_2 Mn2 1_555 1_555
N12_2 Mn2 1_555 1_555
C1_2 N3_2 1_555 1_555
C5_2 N8_2 1_555 1_555
Mn4_3 N9_2 1_555 1_555
C5_3 N7_3 1_555 1_555
N7_3 C6_3 1_555 1_555
N8_3 Mn4_2 1_555 1_555
N12_2 C6_3 1_555 1_555
N10_3 Mn4_2 1_555 1_555
C5_3 N8_3 1_555 1_555
Mn4_3 N1_2 1_555 1_555
C1_3 N2_3 1_555 1_555
N1_2 C2_2 1_555 1_555
C2_2 N5_3 1_555 1_555
N2_3 C3_3 1_555 1_555
N3_3 Mn4_3 1_555 1_555
N5_3 C4_2 1_555 1_555
N6_2 C4_2 1_555 1_555
Mn4 N6_2 1_555 1_555
C1_3 N3_3 1_555 1_555
C1_4 N2_4 1_555 1_555
N2_4 C3_4 1_555 1_555
N3_4 Mn4 1_555 1_555
C5_4 N7_4 1_555 1_555
N7_4 C6_4 1_555 1_555
N8_4 Mn4 1_555 1_555
N10_4 Mn4 1_555 1_555
C1_4 N3_4 1_555 1_555
C5_4 N8_4 1_555 1_555
N5_4 C4_3 1_555 1_555
N10_4 C4_3 1_555 1_555
N10_3 C2_3 1_555 1_555
C2_3 N5_5 1_555 1_555
N10 C2_4 1_555 1_555
C2_4 N5_6 1_555 1_555
N5_6 C4_4 1_555 1_555
N10_2 C4_4 1_555 1_555

#END
