
###############################################################################
#
# This file contains modified crystal structure data generated from the
# MOF subset of the Cambridge Structural Database (CSD) v543 
# hosted by the Cambridge Crystallographic Data Centre (CCDC).
#
# This work is licensed under the Creative Commons
# Attribution-NonCommercial-ShareAlike 4.0 International License.
# To view a copy of this license, visit
# http://creativecommons.org/licenses/by-nc-sa/4.0/
# or send a letter to
# Creative Commons, PO Box 1866, Mountain View, CA 94042, USA.
#
# CIF created using the CSD Python API on 29 September 2022
# The structure has been converted into the P1 space group
# The structure has a 3D framework
# The original CSD entry DOJPOK01 is in the orthorhombic crystal system
# The framework has been calculated to contain at least 10.0% void space
# The void calculation uses a probe of radius 1.32A, grid spacing 0.4
# The framework is charged, counterions have been retained in the structure
#
###############################################################################

data_DOJPOK01
_chemical_formula_moiety         '(C48 Mn8 N72 8-)n'
_symmetry_cell_setting           triclinic
_symmetry_space_group_name_H-M   'P 1'
_symmetry_Int_Tables_number      1
_space_group_name_Hall           'P 1'
loop_
_symmetry_equiv_pos_site_id
_symmetry_equiv_pos_as_xyz
1 x,y,z
_cell_length_a                   15.620(3)
_cell_length_b                   15.950(3)
_cell_length_c                   16.920(3)
_cell_angle_alpha                90
_cell_angle_beta                 90
_cell_angle_gamma                90
_cell_volume                     4215.43
loop_
_atom_site_label
_atom_site_type_symbol
_atom_site_fract_x
_atom_site_fract_y
_atom_site_fract_z
Mn1 Mn 0.48739(9) 0.20489(9) 0.19770(7)
N2 N 0.4342(6) 0.0767(5) 0.1944(5)
N3 N 0.3600(6) 0.2666(5) 0.1995(5)
N4 N 0.4957(5) 0.2137(7) 0.07115(14)
N6 N 0.1177(6) 0.3459(7) 0.2954(5)
N7 N 0.2409(7) 0.3512(8) 0.2140(6)
C1 C 0.3061(8) 0.3020(6) 0.2097(6)
C2 C 0.5056(8) 0.2407(6) 0.00744(17)
C3 C 0.1757(7) 0.3506(7) 0.2606(6)
C4 C 0.4177(8) 0.0224(6) 0.2268(7)
N10 N 0.5480(8) 0.3270(7) 0.2067(6)
N11 N 0.6177(6) 0.1541(7) 0.2046(5)
N12 N 0.4775(5) 0.1935(6) 0.3257(2)
N5 N 0.5021(7) 0.2186(2) 0.92725(11)
C6 C 0.4989(5) 0.2864(3) 0.88450(18)
N9 N 0.4775(5) 0.3065(6) 0.8257(2)
Mn4 Mn 0.48739(9) 0.29511(9) 0.69770(7)
N1 N 0.4520(8) 0.8270(7) 0.2933(6)
N8 N 0.3779(7) 0.9544(7) 0.2760(7)
C5 C 0.4177(10) 0.8880(7) 0.2642(8)
Mn3 Mn 0.51261(9) 0.70489(9) 0.30230(7)
Mn2 Mn 0.98739(9) 0.29511(9) 0.30230(7)
N1_2 N 0.0480(8) 0.1730(7) 0.2933(6)
N8_2 N 0.1221(7) 0.0456(7) 0.2760(7)
C5_2 C 0.0823(10) 0.1120(7) 0.2642(8)
Mn1_2 Mn 0.01261(9) 0.79511(9) 0.19770(7)
N2_2 N 0.0658(6) 0.9233(5) 0.1944(5)
N3_2 N 0.1400(6) 0.7334(5) 0.1995(5)
N4_2 N 0.0043(5) 0.7863(7) 0.07115(14)
N6_2 N 0.3823(6) 0.6541(7) 0.2954(5)
N7_2 N 0.2591(7) 0.6488(8) 0.2140(6)
C1_2 C 0.1939(8) 0.6980(6) 0.2097(6)
C3_2 C 0.3243(7) 0.6494(7) 0.2606(6)
C4_2 C 0.0823(8) 0.9776(6) 0.2268(7)
N12_2 N 0.0225(5) 0.8065(6) 0.3257(2)
C6_2 C 0.0011(5) 0.7136(3) 0.88450(18)
N9_2 N 0.0225(5) 0.6935(6) 0.8257(2)
Mn4_2 Mn 0.01261(9) 0.70489(9) 0.69770(7)
C2_2 C 0.9944(8) 0.7593(6) 0.00744(17)
N10_2 N 0.9520(8) 0.6730(7) 0.2067(6)
N11_2 N 0.8823(6) 0.8459(7) 0.2046(5)
N5_2 N 0.0021(7) 0.2814(2) 0.57275(11)
C2_3 C 0.0056(8) 0.2593(6) 0.49256(17)
N2_3 N 0.9342(6) 0.4233(5) 0.3056(5)
N3_3 N 0.8600(6) 0.2334(5) 0.3005(5)
N4_3 N 0.9957(5) 0.2863(7) 0.42885(14)
N7_3 N 0.7409(7) 0.1488(8) 0.2860(6)
C1_3 C 0.8061(8) 0.1980(6) 0.2903(6)
C3_3 C 0.6757(7) 0.1494(7) 0.2394(6)
C4_3 C 0.9177(8) 0.4776(6) 0.2732(7)
N8_3 N 0.8779(7) 0.5456(7) 0.2240(7)
C5_3 C 0.9177(10) 0.6120(7) 0.2358(8)
C6_3 C 0.9989(5) 0.2136(3) 0.61550(18)
N9_3 N 0.9775(5) 0.1935(6) 0.6743(2)
Mn4_3 Mn 0.98739(9) 0.20489(9) 0.80230(7)
N12_3 N 0.9775(5) 0.3065(6) 0.1743(2)
N2_4 N 0.5658(6) 0.5767(5) 0.3056(5)
N3_4 N 0.6400(6) 0.7666(5) 0.3005(5)
N4_4 N 0.5043(5) 0.7137(7) 0.42885(14)
N5_3 N 0.4979(7) 0.7186(2) 0.57275(11)
N7_4 N 0.7591(7) 0.8512(8) 0.2860(6)
C1_4 C 0.6939(8) 0.8020(6) 0.2903(6)
C2_4 C 0.4944(8) 0.7407(6) 0.49256(17)
C3_4 C 0.8243(7) 0.8506(7) 0.2394(6)
C4_4 C 0.5823(8) 0.5224(6) 0.2732(7)
N8_4 N 0.6221(7) 0.4544(7) 0.2240(7)
C5_4 C 0.5823(10) 0.3880(7) 0.2358(8)
C6_4 C 0.5011(5) 0.7864(3) 0.61550(18)
N9_4 N 0.5225(5) 0.8065(6) 0.6743(2)
Mn4_4 Mn 0.51261(9) 0.79511(9) 0.80230(7)
N12_4 N 0.5225(5) 0.6935(6) 0.1743(2)
N1_3 N 0.5480(8) 0.1730(7) 0.7067(6)
N8_5 N 0.6221(7) 0.0456(7) 0.7240(7)
C5_5 C 0.5823(10) 0.1120(7) 0.7358(8)
N5_4 N 0.4979(7) 0.7814(2) 0.07275(11)
C6_5 C 0.5011(5) 0.7136(3) 0.11550(18)
N2_5 N 0.5658(6) 0.9233(5) 0.8056(5)
N3_5 N 0.6400(6) 0.7334(5) 0.8005(5)
N4_5 N 0.5043(5) 0.7863(7) 0.92885(14)
N6_3 N 0.8823(6) 0.6541(7) 0.7046(5)
N7_5 N 0.7591(7) 0.6488(8) 0.7860(6)
C1_5 C 0.6939(8) 0.6980(6) 0.7903(6)
C2_5 C 0.4944(8) 0.7593(6) 0.99256(17)
C3_5 C 0.8243(7) 0.6494(7) 0.7394(6)
C4_5 C 0.5823(8) 0.9776(6) 0.7732(7)
N10_3 N 0.4520(8) 0.6730(7) 0.7933(6)
N11_3 N 0.3823(6) 0.8459(7) 0.7954(5)
C2_6 C 0.0056(8) 0.2407(6) 0.99256(17)
N10_4 N 0.0480(8) 0.3270(7) 0.7933(6)
N11_4 N 0.1177(6) 0.1541(7) 0.7954(5)
C6_6 C 0.9989(5) 0.2864(3) 0.11550(18)
N2_6 N 0.9342(6) 0.0767(5) 0.8056(5)
N3_6 N 0.8600(6) 0.2666(5) 0.8005(5)
N4_6 N 0.9957(5) 0.2137(7) 0.92885(14)
N6_4 N 0.6177(6) 0.3459(7) 0.7046(5)
N7_6 N 0.7409(7) 0.3512(8) 0.7860(6)
C1_6 C 0.8061(8) 0.3020(6) 0.7903(6)
C3_6 C 0.6757(7) 0.3506(7) 0.7394(6)
C4_6 C 0.9177(8) 0.0224(6) 0.7732(7)
N1_4 N 0.9520(8) 0.8270(7) 0.7067(6)
N8_6 N 0.8779(7) 0.9544(7) 0.7240(7)
C5_6 C 0.9177(10) 0.8880(7) 0.7358(8)
N2_7 N 0.0658(6) 0.5767(5) 0.6944(5)
N3_7 N 0.1400(6) 0.7666(5) 0.6995(5)
N4_7 N 0.0043(5) 0.7137(7) 0.57115(14)
N7_7 N 0.2591(7) 0.8512(8) 0.7140(6)
C1_7 C 0.1939(8) 0.8020(6) 0.7097(6)
C3_7 C 0.3243(7) 0.8506(7) 0.7606(6)
C4_7 C 0.0823(8) 0.5224(6) 0.7268(7)
N8_7 N 0.1221(7) 0.4544(7) 0.7760(7)
C5_7 C 0.0823(10) 0.3880(7) 0.7642(8)
C6_7 C 0.0011(5) 0.7864(3) 0.38450(18)
N5_5 N 0.9979(7) 0.7186(2) 0.42725(11)
C2_7 C 0.9944(8) 0.7407(6) 0.50744(17)
N2_8 N 0.4342(6) 0.4233(5) 0.6944(5)
N3_8 N 0.3600(6) 0.2334(5) 0.6995(5)
N4_8 N 0.4957(5) 0.2863(7) 0.57115(14)
N5_6 N 0.5021(7) 0.2814(2) 0.42725(11)
N7_8 N 0.2409(7) 0.1488(8) 0.7140(6)
C1_8 C 0.3061(8) 0.1980(6) 0.7097(6)
C2_8 C 0.5056(8) 0.2593(6) 0.50744(17)
C3_8 C 0.1757(7) 0.1494(7) 0.7606(6)
C4_8 C 0.4177(8) 0.4776(6) 0.7268(7)
N8_8 N 0.3779(7) 0.5456(7) 0.7760(7)
C5_8 C 0.4177(10) 0.6120(7) 0.7642(8)
C6_8 C 0.4989(5) 0.2136(3) 0.38450(18)
N5_7 N 0.9979(7) 0.7814(2) 0.92725(11)
N5_8 N 0.0021(7) 0.2186(2) 0.07275(11)
loop_
_geom_bond_atom_site_label_1
_geom_bond_atom_site_label_2
_geom_bond_site_symmetry_1
_geom_bond_site_symmetry_2
Mn1 N2 1_555 1_555
N2 C4 1_555 1_555
N3 Mn1 1_555 1_555
N4 Mn1 1_555 1_555
N6 C3 1_555 1_555
N7 C1 1_555 1_555
C1 N3 1_555 1_555
C2 N4 1_555 1_555
C3 N7 1_555 1_555
N10 Mn1 1_555 1_555
N11 Mn1 1_555 1_555
N12 Mn1 1_555 1_555
C6 N5 1_555 1_555
N9 C6 1_555 1_555
Mn4 N9 1_555 1_555
N1 C5 1_555 1_555
N8 C5 1_555 1_555
Mn3 N1 1_555 1_555
N1_2 C5_2 1_555 1_555
N8_2 C5_2 1_555 1_555
Mn1_2 N2_2 1_555 1_555
N2_2 C4_2 1_555 1_555
N3_2 Mn1_2 1_555 1_555
N4_2 Mn1_2 1_555 1_555
N6_2 C3_2 1_555 1_555
N7_2 C1_2 1_555 1_555
C1_2 N3_2 1_555 1_555
C3_2 N7_2 1_555 1_555
Mn3 N6_2 1_555 1_555
N12_2 Mn1_2 1_555 1_555
N9_2 C6_2 1_555 1_555
Mn4_2 N9_2 1_555 1_555
N5_2 C2_3 1_555 1_555
N10_2 C5_3 1_555 1_555
Mn2 N2_3 1_555 1_555
N2_3 C4_3 1_555 1_555
N3_3 Mn2 1_555 1_555
N4_3 Mn2 1_555 1_555
N11 C3_3 1_555 1_555
N7_3 C1_3 1_555 1_555
C1_3 N3_3 1_555 1_555
C3_3 N7_3 1_555 1_555
C4_3 N8_3 1_555 1_555
N8_3 C5_3 1_555 1_555
N9_3 C6_3 1_555 1_555
Mn4_3 N9_3 1_555 1_555
N12_3 Mn2 1_555 1_555
N10 C5_4 1_555 1_555
Mn3 N2_4 1_555 1_555
N2_4 C4_4 1_555 1_555
N3_4 Mn3 1_555 1_555
N4_4 Mn3 1_555 1_555
N5_3 C2_4 1_555 1_555
N11_2 C3_4 1_555 1_555
N7_4 C1_4 1_555 1_555
C1_4 N3_4 1_555 1_555
C2_4 N4_4 1_555 1_555
C3_4 N7_4 1_555 1_555
C4_4 N8_4 1_555 1_555
N8_4 C5_4 1_555 1_555
C6_4 N5_3 1_555 1_555
N9_4 C6_4 1_555 1_555
Mn4_4 N9_4 1_555 1_555
N12_4 Mn3 1_555 1_555
N1_3 C5_5 1_555 1_555
N8_5 C5_5 1_555 1_555
Mn4 N1_3 1_555 1_555
C6_5 N5_4 1_555 1_555
N12_4 C6_5 1_555 1_555
Mn4_4 N2_5 1_555 1_555
N2_5 C4_5 1_555 1_555
N3_5 Mn4_4 1_555 1_555
N4_5 Mn4_4 1_555 1_555
N6_3 C3_5 1_555 1_555
N7_5 C1_5 1_555 1_555
C1_5 N3_5 1_555 1_555
C2_5 N4_5 1_555 1_555
C3_5 N7_5 1_555 1_555
N10_3 Mn4_4 1_555 1_555
N11_3 Mn4_4 1_555 1_555
N12_3 C6_6 1_555 1_555
Mn4_3 N2_6 1_555 1_555
N2_6 C4_6 1_555 1_555
N3_6 Mn4_3 1_555 1_555
N4_6 Mn4_3 1_555 1_555
N6_4 C3_6 1_555 1_555
N7_6 C1_6 1_555 1_555
C1_6 N3_6 1_555 1_555
C3_6 N7_6 1_555 1_555
Mn4 N6_4 1_555 1_555
N1_4 C5_6 1_555 1_555
N8_6 C5_6 1_555 1_555
N10_4 C5_7 1_555 1_555
Mn4_2 N2_7 1_555 1_555
N2_7 C4_7 1_555 1_555
N3_7 Mn4_2 1_555 1_555
N4_7 Mn4_2 1_555 1_555
N11_3 C3_7 1_555 1_555
N7_7 C1_7 1_555 1_555
C1_7 N3_7 1_555 1_555
C3_7 N7_7 1_555 1_555
C4_7 N8_7 1_555 1_555
N8_7 C5_7 1_555 1_555
N12_2 C6_7 1_555 1_555
N5_5 C2_7 1_555 1_555
N10_3 C5_8 1_555 1_555
Mn4 N2_8 1_555 1_555
N2_8 C4_8 1_555 1_555
N3_8 Mn4 1_555 1_555
N4_8 Mn4 1_555 1_555
N5_6 C2_8 1_555 1_555
N11_4 C3_8 1_555 1_555
N7_8 C1_8 1_555 1_555
C1_8 N3_8 1_555 1_555
C2_8 N4_8 1_555 1_555
C3_8 N7_8 1_555 1_555
C4_8 N8_8 1_555 1_555
N8_8 C5_8 1_555 1_555
C6_8 N5_6 1_555 1_555
N12 C6_8 1_555 1_555

#END
