
###############################################################################
#
# This file contains modified crystal structure data generated from the
# MOF subset of the Cambridge Structural Database (CSD) v543 
# hosted by the Cambridge Crystallographic Data Centre (CCDC).
#
# This work is licensed under the Creative Commons
# Attribution-NonCommercial-ShareAlike 4.0 International License.
# To view a copy of this license, visit
# http://creativecommons.org/licenses/by-nc-sa/4.0/
# or send a letter to
# Creative Commons, PO Box 1866, Mountain View, CA 94042, USA.
#
# CIF created using the CSD Python API on 29 September 2022
# The structure has been converted into the P1 space group
# The structure has a 3D framework
# The original CSD entry DOJXEH is in the monoclinic crystal system
# The framework has been calculated to contain at least 10.0% void space
# The void calculation uses a probe of radius 1.32A, grid spacing 0.4
#
###############################################################################

data_DOJXEH
_chemical_formula_moiety         '(C208 H128 Co8 N24 O35)n'
_symmetry_cell_setting           triclinic
_symmetry_space_group_name_H-M   'P 1'
_symmetry_Int_Tables_number      1
_space_group_name_Hall           'P 1'
loop_
_symmetry_equiv_pos_site_id
_symmetry_equiv_pos_as_xyz
1 x,y,z
_cell_length_a                   27.7567(16)
_cell_length_b                   15.0740(5)
_cell_length_c                   15.1426(7)
_cell_angle_alpha                90
_cell_angle_beta                 111.883(7)
_cell_angle_gamma                90
_cell_volume                     5879.22
loop_
_atom_site_label
_atom_site_type_symbol
_atom_site_fract_x
_atom_site_fract_y
_atom_site_fract_z
Co1 Co 0.069228(19) 0.24856(3) 0.30221(3)
O1 O 0.0000 0.1680(3) 0.2500
O3 O 0.04278(12) 0.3474(2) 0.2007(2)
N1 N 0.10145(14) 0.1878(2) 0.2090(2)
N3 N 0.20925(14) 0.0342(2) 0.0531(2)
C4 C 0.16536(18) 0.0800(3) 0.0142(3)
C5 C 0.14263(17) 0.1181(3) 0.0812(3)
C6 C 0.00139(17) 0.3581(3) 0.1297(3)
C9 C 0.17267(19) 0.1267(3) 0.1775(3)
H1 H 0.2074 0.1095 0.2011
C10 C 0.07265(17) 0.1790(3) 0.1164(3)
H2 H 0.0382 0.1973 0.0946
C12 C 0.15032(18) 0.1611(3) 0.2377(3)
H3 H 0.1708 0.1657 0.3021
C13 C 0.09157(17) 0.1440(3) 0.0516(3)
C17 C 0.00083(17) 0.4317(3) 0.0629(3)
C25 C 0.0454(2) 0.4727(5) 0.0675(5)
H15 H 0.0769 0.4548 0.1132
C30 C 0.0446(2) 0.5407(5) 0.0055(5)
H18 H 0.0756 0.5680 0.0105
O10 O 0.10193(11) 0.15851(19) 0.4126(2)
O13 O 0.03902(12) 0.3126(2) 0.3909(2)
N8 N 0.13841(14) 0.3283(2) 0.3684(2)
O5 O 0.03231(13) 0.0804(2) 0.4063(2)
C1 C 0.09929(17) 0.1013(3) 0.5563(3)
C2 C 0.07589(17) 0.1144(3) 0.4504(3)
C7 C 0.14192(18) 0.0759(3) 0.7530(3)
C8 C 0.16521(17) 0.0605(3) 0.8574(3)
H4 H 0.0699 0.1380 0.9881
C14 C 0.17211(18) 0.1095(3) 0.7050(3)
H5 H 0.2069 0.1227 0.7385
C15 C 0.15047(17) 0.1234(3) 0.6076(3)
H6 H 0.1706 0.1478 0.5764
C16 C 0.21059(17) 0.0133(3) 0.8984(3)
C18 C 0.06912(18) 0.0667(3) 0.6040(3)
H8 H 0.0347 0.0513 0.5699
C19 C 0.14162(18) 0.0928(3) 0.9165(3)
H9 H 0.1102 0.1228 0.8913
C20 C 0.08993(19) 0.0553(3) 0.7017(3)
H10 H 0.0693 0.0338 0.7332
O7 O 0.03902(12) 0.6874(2) 0.8909(2)
Co8 Co 0.069228(19) 0.75144(3) 0.80221(3)
N2 N 0.36159(14) 0.8283(2) 0.1316(2)
C3 C 0.27674(17) 0.9410(3) 0.0415(3)
C22 C 0.2977(2) 0.9313(4) 0.1395(3)
H12 H 0.2838 0.9625 0.1774
C23 C 0.34145(19) 0.8365(3) 0.0383(3)
H13 H 0.3558 0.8036 0.0023
C24 C 0.3395(2) 0.8750(4) 0.1809(3)
H14 H 0.3528 0.8695 0.2468
Co6 Co 0.430772(19) 0.74856(3) 0.19779(3)
O8 O 0.89807(11) 0.15851(19) 0.0874(2)
O9 O 0.96769(13) 0.0804(2) 0.0937(2)
C32 C 0.92411(17) 0.1144(3) 0.0496(3)
Co4 Co 0.930772(19) 0.24856(3) 0.19779(3)
O1_2 O 1.0000 0.1680(3) 0.2500
O4 O 0.96098(12) 0.3126(2) 0.1091(2)
N4 N 0.89855(14) 0.1878(2) 0.2910(2)
N6 N 0.79075(14) 0.0342(2) 0.4469(2)
C31 C 0.90071(17) 0.1013(3) 0.9437(3)
C34 C 0.83464(18) 0.0800(3) 0.4858(3)
C35 C 0.85737(17) 0.1181(3) 0.4188(3)
C36 C 0.85808(18) 0.0759(3) 0.7470(3)
C37 C 0.83479(17) 0.0605(3) 0.6426(3)
C38 C 0.82733(19) 0.1267(3) 0.3225(3)
H19 H 0.7926 0.1095 0.2989
C39 C 0.92735(17) 0.1790(3) 0.3836(3)
H20 H 0.9618 0.1973 0.4054
C41 C 0.84968(18) 0.1611(3) 0.2623(3)
H21 H 0.8292 0.1657 0.1979
C42 C 0.90843(17) 0.1440(3) 0.4484(3)
H22 H 0.9301 0.1380 0.5119
C43 C 0.82789(18) 0.1095(3) 0.7950(3)
H23 H 0.7931 0.1227 0.7615
C44 C 0.84953(17) 0.1234(3) 0.8924(3)
H24 H 0.8294 0.1478 0.9236
C45 C 0.78941(17) 0.0133(3) 0.6016(3)
C46 C 0.93088(18) 0.0667(3) 0.8960(3)
H26 H 0.9653 0.0513 0.9301
C47 C 0.85838(18) 0.0928(3) 0.5835(3)
H27 H 0.8898 0.1228 0.6087
C48 C 0.91007(19) 0.0553(3) 0.7983(3)
H28 H 0.9307 0.0338 0.7668
O12 O 0.95722(12) 0.3474(2) 0.2993(2)
N7 N 0.86159(14) 0.3283(2) 0.1316(2)
C26 C 0.9554(2) 0.4593(5) 0.9945(5)
H16 H 0.9244 0.4320 0.9895
O6 O 0.95722(12) 0.6526(2) 0.7993(2)
C27 C 0.99861(17) 0.6419(3) 0.8703(3)
C28 C 0.99917(17) 0.5683(3) 0.9371(3)
C29 C 0.9546(2) 0.5273(5) 0.9325(5)
H17 H 0.9231 0.5452 0.8868
Co7 Co 0.930772(19) 0.75144(3) 0.69779(3)
N5 N 0.63841(14) 0.8283(2) 0.3684(2)
C33 C 0.72326(17) 0.9410(3) 0.4585(3)
C40 C 0.76914(18) 0.9989(3) 0.5047(3)
H25 H 0.7724 0.9910 0.6394
C49 C 0.7003(2) 0.8921(4) 0.5092(3)
H29 H 0.7128 0.8962 0.5752
C50 C 0.7023(2) 0.9313(4) 0.3605(3)
H30 H 0.7162 0.9625 0.3226
C51 C 0.65855(19) 0.8365(3) 0.4617(3)
H31 H 0.6442 0.8036 0.4977
C52 C 0.6605(2) 0.8750(4) 0.3191(3)
H32 H 0.6472 0.8695 0.2532
Co5 Co 0.569228(19) 0.74856(3) 0.30221(3)
C26_2 C 0.0446(2) 0.4593(5) 0.5055(5)
H16_2 H 0.0756 0.4320 0.5105
O6_2 O 0.04278(12) 0.6526(2) 0.7007(2)
C27_2 C 0.00139(17) 0.6419(3) 0.6297(3)
C28_2 C 0.00083(17) 0.5683(3) 0.5629(3)
C29_2 C 0.0454(2) 0.5273(5) 0.5675(5)
H17_2 H 0.0769 0.5452 0.6132
C6_2 C 0.99861(17) 0.3581(3) 0.3703(3)
C17_2 C 0.99917(17) 0.4317(3) 0.4371(3)
C25_2 C 0.9546(2) 0.4727(5) 0.4325(5)
H15_2 H 0.9231 0.4548 0.3868
O7_2 O 0.96098(12) 0.6874(2) 0.6091(2)
C30_2 C 0.9554(2) 0.5407(5) 0.4945(5)
H18_2 H 0.9244 0.5680 0.4895
C30_3 C 0.5446(2) 0.0407(5) 0.0055(5)
H18_3 H 0.5756 0.0680 0.0105
O6_3 O 0.45722(12) 0.1526(2) 0.7993(2)
O7_3 O 0.53902(12) 0.1874(2) 0.8909(2)
C27_3 C 0.49861(17) 0.1419(3) 0.8703(3)
C28_3 C 0.49917(17) 0.0683(3) 0.9371(3)
C29_3 C 0.4546(2) 0.0273(5) 0.9325(5)
H17_3 H 0.4231 0.0452 0.8868
Co7_2 Co 0.430772(19) 0.25144(3) 0.69779(3)
Co8_2 Co 0.569228(19) 0.25144(3) 0.80221(3)
O8_2 O 0.39807(11) 0.65851(19) 0.0874(2)
O9_2 O 0.46769(13) 0.5804(2) 0.0937(2)
C32_2 C 0.42411(17) 0.6144(3) 0.0496(3)
O1_3 O 0.5000 0.6680(3) 0.2500
O3_2 O 0.54278(12) 0.8474(2) 0.2007(2)
O4_2 O 0.46098(12) 0.8126(2) 0.1091(2)
N1_2 N 0.60145(14) 0.6878(2) 0.2090(2)
N3_2 N 0.70925(14) 0.5342(2) 0.0531(2)
C3_2 C 0.77674(17) 0.4410(3) 0.0415(3)
C4_2 C 0.66536(18) 0.5800(3) 0.0142(3)
C5_2 C 0.64263(17) 0.6181(3) 0.0812(3)
C6_3 C 0.50139(17) 0.8581(3) 0.1297(3)
C9_2 C 0.67267(19) 0.6267(3) 0.1775(3)
H1_2 H 0.7074 0.6095 0.2011
C10_2 C 0.57265(17) 0.6790(3) 0.1164(3)
H2_2 H 0.5382 0.6973 0.0946
C12_2 C 0.65032(18) 0.6611(3) 0.2377(3)
H3_2 H 0.6708 0.6657 0.3021
C13_2 C 0.59157(17) 0.6440(3) 0.0516(3)
C17_3 C 0.50083(17) 0.9317(3) 0.0629(3)
C22_2 C 0.7977(2) 0.4313(4) 0.1395(3)
H12_2 H 0.7838 0.4625 0.1774
C23_2 C 0.84145(19) 0.3365(3) 0.0383(3)
H13_2 H 0.8558 0.3036 0.0023
C24_2 C 0.8395(2) 0.3750(4) 0.1809(3)
H14_2 H 0.8528 0.3695 0.2468
C25_3 C 0.5454(2) 0.9727(5) 0.0675(5)
H15_3 H 0.5769 0.9548 0.1132
N4_2 N 0.39855(14) 0.6878(2) 0.2910(2)
N6_2 N 0.29075(14) 0.5342(2) 0.4469(2)
C31_2 C 0.40071(17) 0.6013(3) 0.9437(3)
C33_2 C 0.22326(17) 0.4410(3) 0.4585(3)
C34_2 C 0.33464(18) 0.5800(3) 0.4858(3)
C35_2 C 0.35737(17) 0.6181(3) 0.4188(3)
C36_2 C 0.35808(18) 0.5759(3) 0.7470(3)
C37_2 C 0.33479(17) 0.5605(3) 0.6426(3)
C38_2 C 0.32733(19) 0.6267(3) 0.3225(3)
H19_2 H 0.2926 0.6095 0.2989
C39_2 C 0.42735(17) 0.6790(3) 0.3836(3)
H20_2 H 0.4618 0.6973 0.4054
C40_2 C 0.26914(18) 0.4989(3) 0.5047(3)
C41_2 C 0.34968(18) 0.6611(3) 0.2623(3)
H21_2 H 0.3292 0.6657 0.1979
C42_2 C 0.40843(17) 0.6440(3) 0.4484(3)
H22_2 H 0.4301 0.6380 0.5119
C43_2 C 0.32789(18) 0.6095(3) 0.7950(3)
H23_2 H 0.2931 0.6227 0.7615
C44_2 C 0.34953(17) 0.6234(3) 0.8924(3)
H24_2 H 0.3294 0.6478 0.9236
C45_2 C 0.28941(17) 0.5133(3) 0.6016(3)
H25_2 H 0.2724 0.4910 0.6394
C46_2 C 0.43088(18) 0.5667(3) 0.8960(3)
H26_2 H 0.4653 0.5513 0.9301
C47_2 C 0.35838(18) 0.5928(3) 0.5835(3)
H27_2 H 0.3898 0.6228 0.6087
C48_2 C 0.41007(19) 0.5553(3) 0.7983(3)
H28_2 H 0.4307 0.5338 0.7668
C49_2 C 0.2003(2) 0.3921(4) 0.5092(3)
H29_2 H 0.2128 0.3962 0.5752
C50_2 C 0.2023(2) 0.4313(4) 0.3605(3)
H30_2 H 0.2162 0.4625 0.3226
C51_2 C 0.15855(19) 0.3365(3) 0.4617(3)
H31_2 H 0.1442 0.3036 0.4977
C52_2 C 0.1605(2) 0.3750(4) 0.3191(3)
H32_2 H 0.1472 0.3695 0.2532
O10_2 O 0.60193(11) 0.65851(19) 0.4126(2)
O12_2 O 0.45722(12) 0.8474(2) 0.2993(2)
O13_2 O 0.53902(12) 0.8126(2) 0.3909(2)
O5_2 O 0.53231(13) 0.5804(2) 0.4063(2)
C1_2 C 0.59929(17) 0.6013(3) 0.5563(3)
C2_2 C 0.57589(17) 0.6144(3) 0.4504(3)
C7_2 C 0.64192(18) 0.5759(3) 0.7530(3)
C8_2 C 0.66521(17) 0.5605(3) 0.8574(3)
C11 C 0.73086(18) 0.4989(3) 0.9953(3)
H4_2 H 0.5699 0.6380 0.9881
C14_2 C 0.67211(18) 0.6095(3) 0.7050(3)
H5_2 H 0.7069 0.6227 0.7385
C15_2 C 0.65047(17) 0.6234(3) 0.6076(3)
H6_2 H 0.6706 0.6478 0.5764
C16_2 C 0.71059(17) 0.5133(3) 0.8984(3)
H7 H 0.7276 0.4910 0.8606
C18_2 C 0.56912(18) 0.5667(3) 0.6040(3)
H8_2 H 0.5347 0.5513 0.5699
C19_2 C 0.64162(18) 0.5928(3) 0.9165(3)
H9_2 H 0.6102 0.6228 0.8913
C20_2 C 0.58993(19) 0.5553(3) 0.7017(3)
H10_2 H 0.5693 0.5338 0.7332
C21 C 0.7997(2) 0.3921(4) 0.9908(3)
H11 H 0.7872 0.3962 0.9248
C26_3 C 0.4554(2) 0.9593(5) 0.9945(5)
H16_3 H 0.4244 0.9320 0.9895
O6_4 O 0.54278(12) 0.1526(2) 0.7007(2)
O7_4 O 0.46098(12) 0.1874(2) 0.6091(2)
C27_4 C 0.50139(17) 0.1419(3) 0.6297(3)
C28_4 C 0.50083(17) 0.0683(3) 0.5629(3)
C29_4 C 0.5454(2) 0.0273(5) 0.5675(5)
H17_4 H 0.5769 0.0452 0.6132
C30_4 C 0.4554(2) 0.0407(5) 0.4945(5)
H18_4 H 0.4244 0.0680 0.4895
C6_4 C 0.49861(17) 0.8581(3) 0.3703(3)
C17_4 C 0.49917(17) 0.9317(3) 0.4371(3)
C25_4 C 0.4546(2) 0.9727(5) 0.4325(5)
H15_4 H 0.4231 0.9548 0.3868
C26_4 C 0.5446(2) 0.9593(5) 0.5055(5)
H16_4 H 0.5756 0.9320 0.5105
N5_2 N 0.36159(14) 0.1717(2) 0.6316(2)
C33_3 C 0.27674(17) 0.0590(3) 0.5415(3)
C40_3 C 0.23086(18) 0.0011(3) 0.4953(3)
H25_3 H 0.2276 0.0090 0.3606
C49_3 C 0.2997(2) 0.1079(4) 0.4908(3)
H29_3 H 0.2872 0.1038 0.4248
C50_3 C 0.2977(2) 0.0687(4) 0.6395(3)
H30_3 H 0.2838 0.0375 0.6774
C51_3 C 0.34145(19) 0.1635(3) 0.5383(3)
H31_3 H 0.3558 0.1964 0.5023
C52_3 C 0.3395(2) 0.1250(4) 0.6809(3)
H32_3 H 0.3528 0.1305 0.7468
O1_4 O 0.0000 0.8320(3) 0.7500
N4_3 N 0.10145(14) 0.8122(2) 0.7090(2)
N6_3 N 0.20925(14) 0.9658(2) 0.5531(2)
C31_3 C 0.09929(17) 0.8987(3) 0.0563(3)
C34_3 C 0.16536(18) 0.9200(3) 0.5142(3)
C35_3 C 0.14263(17) 0.8819(3) 0.5812(3)
C36_3 C 0.14192(18) 0.9241(3) 0.2530(3)
C37_3 C 0.16521(17) 0.9395(3) 0.3574(3)
C38_3 C 0.17267(19) 0.8733(3) 0.6775(3)
H19_3 H 0.2074 0.8905 0.7011
C39_3 C 0.07265(17) 0.8210(3) 0.6164(3)
H20_3 H 0.0382 0.8027 0.5946
C41_3 C 0.15032(18) 0.8389(3) 0.7377(3)
H21_3 H 0.1708 0.8343 0.8021
C42_3 C 0.09157(17) 0.8560(3) 0.5516(3)
H22_3 H 0.0699 0.8620 0.4881
C43_3 C 0.17211(18) 0.8905(3) 0.2050(3)
H23_3 H 0.2069 0.8773 0.2385
C44_3 C 0.15047(17) 0.8766(3) 0.1076(3)
H24_3 H 0.1706 0.8522 0.0764
C45_3 C 0.21059(17) 0.9867(3) 0.3984(3)
C46_3 C 0.06912(18) 0.9333(3) 0.1040(3)
H26_3 H 0.0347 0.9487 0.0699
C47_3 C 0.14162(18) 0.9072(3) 0.4165(3)
H27_3 H 0.1102 0.8772 0.3913
C48_3 C 0.08993(19) 0.9447(3) 0.2017(3)
H28_3 H 0.0693 0.9662 0.2332
O11 O 0.10193(11) 0.84149(19) 0.9126(2)
N7_2 N 0.13841(14) 0.6717(2) 0.8684(2)
O9_3 O 0.03231(13) 0.9196(2) 0.9063(2)
C32_3 C 0.07589(17) 0.8856(3) 0.9504(3)
N2_2 N 0.63841(14) 0.1717(2) 0.8684(2)
C3_3 C 0.72326(17) 0.0590(3) 0.9585(3)
C22_3 C 0.7023(2) 0.0687(4) 0.8605(3)
H12_3 H 0.7162 0.0375 0.8226
C23_3 C 0.65855(19) 0.1635(3) 0.9617(3)
H13_3 H 0.6442 0.1964 0.9977
C24_3 C 0.6605(2) 0.1250(4) 0.8191(3)
H14_3 H 0.6472 0.1305 0.7532
O2 O 0.89807(11) 0.84149(19) 0.5874(2)
O5_3 O 0.96769(13) 0.9196(2) 0.5937(2)
C1_3 C 0.90071(17) 0.8987(3) 0.4437(3)
C2_3 C 0.92411(17) 0.8856(3) 0.5496(3)
C7_3 C 0.85808(18) 0.9241(3) 0.2470(3)
C8_3 C 0.83479(17) 0.9395(3) 0.1426(3)
H4_3 H 0.9301 0.8620 0.0119
C14_3 C 0.82789(18) 0.8905(3) 0.2950(3)
H5_3 H 0.7931 0.8773 0.2615
C15_3 C 0.84953(17) 0.8766(3) 0.3924(3)
H6_3 H 0.8294 0.8522 0.4236
C16_3 C 0.78941(17) 0.9867(3) 0.1016(3)
C18_3 C 0.93088(18) 0.9333(3) 0.3960(3)
H8_3 H 0.9653 0.9487 0.4301
C19_3 C 0.85838(18) 0.9072(3) 0.0835(3)
H9_3 H 0.8898 0.8772 0.1087
C20_3 C 0.91007(19) 0.9447(3) 0.2983(3)
H10_3 H 0.9307 0.9662 0.2668
O1_5 O 1.0000 0.8320(3) 0.7500
N1_3 N 0.89855(14) 0.8122(2) 0.7910(2)
N3_3 N 0.79075(14) 0.9658(2) 0.9469(2)
C4_3 C 0.83464(18) 0.9200(3) 0.9858(3)
C5_3 C 0.85737(17) 0.8819(3) 0.9188(3)
C9_3 C 0.82733(19) 0.8733(3) 0.8225(3)
H1_3 H 0.7926 0.8905 0.7989
C10_3 C 0.92735(17) 0.8210(3) 0.8836(3)
H2_3 H 0.9618 0.8027 0.9054
C12_3 C 0.84968(18) 0.8389(3) 0.7623(3)
H3_3 H 0.8292 0.8343 0.6979
C13_3 C 0.90843(17) 0.8560(3) 0.9484(3)
N8_2 N 0.86159(14) 0.6717(2) 0.6316(2)
O2_2 O 0.39807(11) 0.34149(19) 0.5874(2)
O5_4 O 0.46769(13) 0.4196(2) 0.5937(2)
C1_4 C 0.40071(17) 0.3987(3) 0.4437(3)
C2_4 C 0.42411(17) 0.3856(3) 0.5496(3)
C7_4 C 0.35808(18) 0.4241(3) 0.2470(3)
C8_4 C 0.33479(17) 0.4395(3) 0.1426(3)
C11_2 C 0.26914(18) 0.5011(3) 0.0047(3)
H4_4 H 0.4301 0.3620 0.0119
C14_4 C 0.32789(18) 0.3905(3) 0.2950(3)
H5_4 H 0.2931 0.3773 0.2615
C15_4 C 0.34953(17) 0.3766(3) 0.3924(3)
H6_4 H 0.3294 0.3522 0.4236
C16_4 C 0.28941(17) 0.4867(3) 0.1016(3)
H7_2 H 0.2724 0.5090 0.1394
C18_4 C 0.43088(18) 0.4333(3) 0.3960(3)
H8_4 H 0.4653 0.4487 0.4301
C19_4 C 0.35838(18) 0.4072(3) 0.0835(3)
H9_4 H 0.3898 0.3772 0.1087
C20_4 C 0.41007(19) 0.4447(3) 0.2983(3)
H10_4 H 0.4307 0.4662 0.2668
C21_2 C 0.2003(2) 0.6079(4) 0.0092(3)
H11_2 H 0.2128 0.6038 0.0752
O1_6 O 0.5000 0.3320(3) 0.7500
N1_4 N 0.39855(14) 0.3122(2) 0.7910(2)
N3_4 N 0.29075(14) 0.4658(2) 0.9469(2)
C3_4 C 0.22326(17) 0.5590(3) 0.9585(3)
C4_4 C 0.33464(18) 0.4200(3) 0.9858(3)
C5_4 C 0.35737(17) 0.3819(3) 0.9188(3)
C9_4 C 0.32733(19) 0.3733(3) 0.8225(3)
H1_4 H 0.2926 0.3905 0.7989
C10_4 C 0.42735(17) 0.3210(3) 0.8836(3)
H2_4 H 0.4618 0.3027 0.9054
C12_4 C 0.34968(18) 0.3389(3) 0.7623(3)
H3_4 H 0.3292 0.3343 0.6979
C13_4 C 0.40843(17) 0.3560(3) 0.9484(3)
C22_4 C 0.2023(2) 0.5687(4) 0.8605(3)
H12_4 H 0.2162 0.5375 0.8226
C23_4 C 0.15855(19) 0.6635(3) 0.9617(3)
H13_4 H 0.1442 0.6964 0.9977
C24_4 C 0.1605(2) 0.6250(4) 0.8191(3)
H14_4 H 0.1472 0.6305 0.7532
N4_4 N 0.60145(14) 0.3122(2) 0.7090(2)
N6_4 N 0.70925(14) 0.4658(2) 0.5531(2)
C31_4 C 0.59929(17) 0.3987(3) 0.0563(3)
C33_4 C 0.77674(17) 0.5590(3) 0.5415(3)
C34_4 C 0.66536(18) 0.4200(3) 0.5142(3)
C35_4 C 0.64263(17) 0.3819(3) 0.5812(3)
C36_4 C 0.64192(18) 0.4241(3) 0.2530(3)
C37_4 C 0.66521(17) 0.4395(3) 0.3574(3)
C38_4 C 0.67267(19) 0.3733(3) 0.6775(3)
H19_4 H 0.7074 0.3905 0.7011
C39_4 C 0.57265(17) 0.3210(3) 0.6164(3)
H20_4 H 0.5382 0.3027 0.5946
C40_4 C 0.73086(18) 0.5011(3) 0.4953(3)
C41_4 C 0.65032(18) 0.3389(3) 0.7377(3)
H21_4 H 0.6708 0.3343 0.8021
C42_4 C 0.59157(17) 0.3560(3) 0.5516(3)
H22_4 H 0.5699 0.3620 0.4881
C43_4 C 0.67211(18) 0.3905(3) 0.2050(3)
H23_4 H 0.7069 0.3773 0.2385
C44_4 C 0.65047(17) 0.3766(3) 0.1076(3)
H24_4 H 0.6706 0.3522 0.0764
C45_4 C 0.71059(17) 0.4867(3) 0.3984(3)
H25_4 H 0.7276 0.5090 0.3606
C46_4 C 0.56912(18) 0.4333(3) 0.1040(3)
H26_4 H 0.5347 0.4487 0.0699
C47_4 C 0.64162(18) 0.4072(3) 0.4165(3)
H27_4 H 0.6102 0.3772 0.3913
C48_4 C 0.58993(19) 0.4447(3) 0.2017(3)
H28_4 H 0.5693 0.4662 0.2332
C49_4 C 0.7997(2) 0.6079(4) 0.4908(3)
H29_4 H 0.7872 0.6038 0.4248
C50_4 C 0.7977(2) 0.5687(4) 0.6395(3)
H30_4 H 0.7838 0.5375 0.6774
C51_4 C 0.84145(19) 0.6635(3) 0.5383(3)
H31_4 H 0.8558 0.6964 0.5023
C52_4 C 0.8395(2) 0.6250(4) 0.6809(3)
H32_4 H 0.8528 0.6305 0.7468
O11_2 O 0.60193(11) 0.34149(19) 0.9126(2)
O9_4 O 0.53231(13) 0.4196(2) 0.9063(2)
C32_4 C 0.57589(17) 0.3856(3) 0.9504(3)
C11_3 C 0.23086(18) 0.9989(3) 0.9953(3)
H7_3 H 0.2276 0.9910 0.8606
C21_3 C 0.2997(2) 0.8921(4) 0.9908(3)
H11_3 H 0.2872 0.8962 0.9248
C11_4 C 0.76914(18) 0.0011(3) 0.0047(3)
H7_4 H 0.7724 0.0090 0.1394
C21_4 C 0.7003(2) 0.1079(4) 0.0092(3)
H11_4 H 0.7128 0.1038 0.0752
loop_
_geom_bond_atom_site_label_1
_geom_bond_atom_site_label_2
_geom_bond_site_symmetry_1
_geom_bond_site_symmetry_2
Co1 O1 1_555 1_555
O3 Co1 1_555 1_555
N1 Co1 1_555 1_555
N3 C4 1_555 1_555
C4 C5 1_555 1_555
C5 C9 1_555 1_555
C6 O3 1_555 1_555
C9 H1 1_555 1_555
C10 N1 1_555 1_555
H2 C10 1_555 1_555
C12 N1 1_555 1_555
H3 C12 1_555 1_555
C13 C5 1_555 1_555
C17 C6 1_555 1_555
C25 C17 1_555 1_555
H15 C25 1_555 1_555
C30 C25 1_555 1_555
H18 C30 1_555 1_555
O10 Co1 1_555 1_555
O13 Co1 1_555 1_555
N8 Co1 1_555 1_555
C9 C12 1_555 1_555
C10 C13 1_555 1_555
O10 C2 1_555 1_555
O5 C2 1_555 1_555
C1 C2 1_555 1_555
C7 C8 1_555 1_555
C8 C16 1_555 1_555
C14 C7 1_555 1_555
H5 C14 1_555 1_555
C15 C1 1_555 1_555
H6 C15 1_555 1_555
C18 C1 1_555 1_555
H8 C18 1_555 1_555
H9 C19 1_555 1_555
C20 C7 1_555 1_555
H10 C20 1_555 1_555
Co8 O7 1_555 1_555
C8 C19 1_555 1_555
C14 C15 1_555 1_555
C18 C20 1_555 1_555
N2 C23 1_555 1_555
C22 C3 1_555 1_555
H12 C22 1_555 1_555
H13 C23 1_555 1_555
C24 N2 1_555 1_555
H14 C24 1_555 1_555
Co6 N2 1_555 1_555
C22 C24 1_555 1_555
O8 C32 1_555 1_555
O9 C32 1_555 1_555
Co4 O8 1_555 1_555
O1_2 Co4 1_555 1_555
Co4 O4 1_555 1_555
N4 Co4 1_555 1_555
N6 C34 1_555 1_555
C34 C35 1_555 1_555
C35 C38 1_555 1_555
C36 C37 1_555 1_555
C37 C45 1_555 1_555
C38 H19 1_555 1_555
C39 N4 1_555 1_555
H20 C39 1_555 1_555
C41 N4 1_555 1_555
H21 C41 1_555 1_555
C42 C35 1_555 1_555
H22 C42 1_555 1_555
C43 C36 1_555 1_555
H23 C43 1_555 1_555
C44 C31 1_555 1_555
H24 C44 1_555 1_555
C46 C31 1_555 1_555
H26 C46 1_555 1_555
C47 C34 1_555 1_555
H27 C47 1_555 1_555
C48 C36 1_555 1_555
H28 C48 1_555 1_555
O12 Co4 1_555 1_555
N7 Co4 1_555 1_555
C37 C47 1_555 1_555
C38 C41 1_555 1_555
C39 C42 1_555 1_555
C43 C44 1_555 1_555
C46 C48 1_555 1_555
H16 C26 1_555 1_555
O6 C27 1_555 1_555
C27 C28 1_555 1_555
C28 C29 1_555 1_555
C29 C26 1_555 1_555
H17 C29 1_555 1_555
Co7 O6 1_555 1_555
N5 C51 1_555 1_555
C33 C40 1_555 1_555
C49 C33 1_555 1_555
H29 C49 1_555 1_555
C50 C33 1_555 1_555
H30 C50 1_555 1_555
C51 C49 1_555 1_555
H31 C51 1_555 1_555
C52 N5 1_555 1_555
H32 C52 1_555 1_555
Co5 N5 1_555 1_555
C50 C52 1_555 1_555
H16_2 C26_2 1_555 1_555
O6_2 C27_2 1_555 1_555
C27_2 C28_2 1_555 1_555
C28_2 C29_2 1_555 1_555
C29_2 C26_2 1_555 1_555
H17_2 C29_2 1_555 1_555
Co8 O6_2 1_555 1_555
C6_2 O12 1_555 1_555
C17_2 C6_2 1_555 1_555
C25_2 C17_2 1_555 1_555
H15_2 C25_2 1_555 1_555
C30_2 C25_2 1_555 1_555
H18_2 C30_2 1_555 1_555
Co7 O7_2 1_555 1_555
H18_3 C30_3 1_555 1_555
O6_3 C27_3 1_555 1_555
O7_3 C27_3 1_555 1_555
C27_3 C28_3 1_555 1_555
C28_3 C29_3 1_555 1_555
H17_3 C29_3 1_555 1_555
Co7_2 O6_3 1_555 1_555
Co8_2 O7_3 1_555 1_555
O8_2 C32_2 1_555 1_555
O9_2 C32_2 1_555 1_555
Co6 O8_2 1_555 1_555
Co5 O1_3 1_555 1_555
O1_3 Co6 1_555 1_555
O3_2 Co5 1_555 1_555
O4_2 C6_3 1_555 1_555
N1_2 Co5 1_555 1_555
N7 C23_2 1_555 1_555
N3_2 C4_2 1_555 1_555
C4_2 C5_2 1_555 1_555
C5_2 C9_2 1_555 1_555
C6_3 O3_2 1_555 1_555
C9_2 H1_2 1_555 1_555
C10_2 N1_2 1_555 1_555
H2_2 C10_2 1_555 1_555
C12_2 N1_2 1_555 1_555
H3_2 C12_2 1_555 1_555
C13_2 C5_2 1_555 1_555
C17_3 C6_3 1_555 1_555
C22_2 C3_2 1_555 1_555
H12_2 C22_2 1_555 1_555
H13_2 C23_2 1_555 1_555
C24_2 N7 1_555 1_555
H14_2 C24_2 1_555 1_555
C25_3 C17_3 1_555 1_555
H15_3 C25_3 1_555 1_555
Co6 O4_2 1_555 1_555
N4_2 Co6 1_555 1_555
N8 C51_2 1_555 1_555
N6_2 C34_2 1_555 1_555
C33_2 C40_2 1_555 1_555
C34_2 C35_2 1_555 1_555
C35_2 C38_2 1_555 1_555
C36_2 C37_2 1_555 1_555
C37_2 C45_2 1_555 1_555
C38_2 H19_2 1_555 1_555
C39_2 N4_2 1_555 1_555
H20_2 C39_2 1_555 1_555
C40_2 N6_2 1_555 1_555
C41_2 N4_2 1_555 1_555
H21_2 C41_2 1_555 1_555
C42_2 C35_2 1_555 1_555
H22_2 C42_2 1_555 1_555
C43_2 C36_2 1_555 1_555
H23_2 C43_2 1_555 1_555
C44_2 C31_2 1_555 1_555
H24_2 C44_2 1_555 1_555
C45_2 C40_2 1_555 1_555
H25_2 C45_2 1_555 1_555
C46_2 C31_2 1_555 1_555
H26_2 C46_2 1_555 1_555
C47_2 C34_2 1_555 1_555
H27_2 C47_2 1_555 1_555
C48_2 C36_2 1_555 1_555
H28_2 C48_2 1_555 1_555
C49_2 C33_2 1_555 1_555
H29_2 C49_2 1_555 1_555
C50_2 C33_2 1_555 1_555
H30_2 C50_2 1_555 1_555
C51_2 C49_2 1_555 1_555
H31_2 C51_2 1_555 1_555
C52_2 N8 1_555 1_555
H32_2 C52_2 1_555 1_555
O10_2 Co5 1_555 1_555
O12_2 Co6 1_555 1_555
O13_2 Co5 1_555 1_555
C9_2 C12_2 1_555 1_555
C10_2 C13_2 1_555 1_555
C22_2 C24_2 1_555 1_555
C37_2 C47_2 1_555 1_555
C38_2 C41_2 1_555 1_555
C39_2 C42_2 1_555 1_555
C43_2 C44_2 1_555 1_555
C46_2 C48_2 1_555 1_555
C50_2 C52_2 1_555 1_555
O10_2 C2_2 1_555 1_555
O5_2 C2_2 1_555 1_555
C1_2 C2_2 1_555 1_555
C7_2 C8_2 1_555 1_555
C8_2 C16_2 1_555 1_555
C14_2 C7_2 1_555 1_555
H5_2 C14_2 1_555 1_555
C15_2 C1_2 1_555 1_555
H6_2 C15_2 1_555 1_555
C16_2 C11 1_555 1_555
H7 C16_2 1_555 1_555
C18_2 C1_2 1_555 1_555
H8_2 C18_2 1_555 1_555
H9_2 C19_2 1_555 1_555
C20_2 C7_2 1_555 1_555
H10_2 C20_2 1_555 1_555
H11 C21 1_555 1_555
H16_3 C26_3 1_555 1_555
C8_2 C19_2 1_555 1_555
C14_2 C15_2 1_555 1_555
C18_2 C20_2 1_555 1_555
O6_4 C27_4 1_555 1_555
O7_4 C27_4 1_555 1_555
C27_4 C28_4 1_555 1_555
C28_4 C29_4 1_555 1_555
H17_4 C29_4 1_555 1_555
H18_4 C30_4 1_555 1_555
Co8_2 O6_4 1_555 1_555
Co7_2 O7_4 1_555 1_555
C28_4 C30_4 1_555 1_555
O13_2 C6_4 1_555 1_555
C6_4 O12_2 1_555 1_555
C17_4 C6_4 1_555 1_555
C25_4 C17_4 1_555 1_555
H15_4 C25_4 1_555 1_555
C26_4 C17_4 1_555 1_555
H16_4 C26_4 1_555 1_555
N5_2 C51_3 1_555 1_555
C33_3 C40_3 1_555 1_555
C49_3 C33_3 1_555 1_555
H29_3 C49_3 1_555 1_555
C50_3 C33_3 1_555 1_555
H30_3 C50_3 1_555 1_555
C51_3 C49_3 1_555 1_555
H31_3 C51_3 1_555 1_555
C52_3 N5_2 1_555 1_555
H32_3 C52_3 1_555 1_555
Co7_2 N5_2 1_555 1_555
C50_3 C52_3 1_555 1_555
O1_4 Co8 1_555 1_555
N4_3 Co8 1_555 1_555
N6_3 C34_3 1_555 1_555
C34_3 C35_3 1_555 1_555
C35_3 C38_3 1_555 1_555
C36_3 C37_3 1_555 1_555
C37_3 C45_3 1_555 1_555
C38_3 H19_3 1_555 1_555
C39_3 N4_3 1_555 1_555
H20_3 C39_3 1_555 1_555
C41_3 N4_3 1_555 1_555
H21_3 C41_3 1_555 1_555
C42_3 C35_3 1_555 1_555
H22_3 C42_3 1_555 1_555
C43_3 C36_3 1_555 1_555
H23_3 C43_3 1_555 1_555
C44_3 C31_3 1_555 1_555
H24_3 C44_3 1_555 1_555
C46_3 C31_3 1_555 1_555
H26_3 C46_3 1_555 1_555
C47_3 C34_3 1_555 1_555
H27_3 C47_3 1_555 1_555
C48_3 C36_3 1_555 1_555
H28_3 C48_3 1_555 1_555
O11 Co8 1_555 1_555
N7_2 Co8 1_555 1_555
C37_3 C47_3 1_555 1_555
C38_3 C41_3 1_555 1_555
C39_3 C42_3 1_555 1_555
C43_3 C44_3 1_555 1_555
C46_3 C48_3 1_555 1_555
O11 C32_3 1_555 1_555
O9_3 C32_3 1_555 1_555
N2_2 C23_3 1_555 1_555
C22_3 C3_3 1_555 1_555
H12_3 C22_3 1_555 1_555
H13_3 C23_3 1_555 1_555
C24_3 N2_2 1_555 1_555
H14_3 C24_3 1_555 1_555
Co8_2 N2_2 1_555 1_555
C22_3 C24_3 1_555 1_555
O2 C2_3 1_555 1_555
O5_3 C2_3 1_555 1_555
C1_3 C2_3 1_555 1_555
C7_3 C8_3 1_555 1_555
C8_3 C16_3 1_555 1_555
C14_3 C7_3 1_555 1_555
H5_3 C14_3 1_555 1_555
C15_3 C1_3 1_555 1_555
H6_3 C15_3 1_555 1_555
C18_3 C1_3 1_555 1_555
H8_3 C18_3 1_555 1_555
H9_3 C19_3 1_555 1_555
C20_3 C7_3 1_555 1_555
H10_3 C20_3 1_555 1_555
Co7 O2 1_555 1_555
C8_3 C19_3 1_555 1_555
C14_3 C15_3 1_555 1_555
C18_3 C20_3 1_555 1_555
Co7 O1_5 1_555 1_555
N1_3 Co7 1_555 1_555
N3_3 C4_3 1_555 1_555
C4_3 C5_3 1_555 1_555
C5_3 C9_3 1_555 1_555
C9_3 H1_3 1_555 1_555
C10_3 N1_3 1_555 1_555
H2_3 C10_3 1_555 1_555
C12_3 N1_3 1_555 1_555
H3_3 C12_3 1_555 1_555
C13_3 C5_3 1_555 1_555
N8_2 Co7 1_555 1_555
C9_3 C12_3 1_555 1_555
C10_3 C13_3 1_555 1_555
O2_2 C2_4 1_555 1_555
O5_4 C2_4 1_555 1_555
C1_4 C2_4 1_555 1_555
C7_4 C8_4 1_555 1_555
C8_4 C16_4 1_555 1_555
C14_4 C7_4 1_555 1_555
H5_4 C14_4 1_555 1_555
C15_4 C1_4 1_555 1_555
H6_4 C15_4 1_555 1_555
C16_4 C11_2 1_555 1_555
H7_2 C16_4 1_555 1_555
C18_4 C1_4 1_555 1_555
H8_4 C18_4 1_555 1_555
H9_4 C19_4 1_555 1_555
C20_4 C7_4 1_555 1_555
H10_4 C20_4 1_555 1_555
H11_2 C21_2 1_555 1_555
Co7_2 O2_2 1_555 1_555
C8_4 C19_4 1_555 1_555
C14_4 C15_4 1_555 1_555
C18_4 C20_4 1_555 1_555
Co7_2 O1_6 1_555 1_555
O1_6 Co8_2 1_555 1_555
N1_4 Co7_2 1_555 1_555
N7_2 C23_4 1_555 1_555
N3_4 C4_4 1_555 1_555
C4_4 C5_4 1_555 1_555
C5_4 C9_4 1_555 1_555
C9_4 H1_4 1_555 1_555
C10_4 N1_4 1_555 1_555
H2_4 C10_4 1_555 1_555
C12_4 N1_4 1_555 1_555
H3_4 C12_4 1_555 1_555
C13_4 C5_4 1_555 1_555
C22_4 C3_4 1_555 1_555
H12_4 C22_4 1_555 1_555
H13_4 C23_4 1_555 1_555
C24_4 N7_2 1_555 1_555
H14_4 C24_4 1_555 1_555
N4_4 Co8_2 1_555 1_555
N8_2 C51_4 1_555 1_555
N6_4 C34_4 1_555 1_555
C33_4 C40_4 1_555 1_555
C34_4 C35_4 1_555 1_555
C35_4 C38_4 1_555 1_555
C36_4 C37_4 1_555 1_555
C37_4 C45_4 1_555 1_555
C38_4 H19_4 1_555 1_555
C39_4 N4_4 1_555 1_555
H20_4 C39_4 1_555 1_555
C40_4 N6_4 1_555 1_555
C41_4 N4_4 1_555 1_555
H21_4 C41_4 1_555 1_555
C42_4 C35_4 1_555 1_555
H22_4 C42_4 1_555 1_555
C43_4 C36_4 1_555 1_555
H23_4 C43_4 1_555 1_555
C44_4 C31_4 1_555 1_555
H24_4 C44_4 1_555 1_555
C45_4 C40_4 1_555 1_555
H25_4 C45_4 1_555 1_555
C46_4 C31_4 1_555 1_555
H26_4 C46_4 1_555 1_555
C47_4 C34_4 1_555 1_555
H27_4 C47_4 1_555 1_555
C48_4 C36_4 1_555 1_555
H28_4 C48_4 1_555 1_555
C49_4 C33_4 1_555 1_555
H29_4 C49_4 1_555 1_555
C50_4 C33_4 1_555 1_555
H30_4 C50_4 1_555 1_555
C51_4 C49_4 1_555 1_555
H31_4 C51_4 1_555 1_555
C52_4 N8_2 1_555 1_555
H32_4 C52_4 1_555 1_555
O11_2 Co8_2 1_555 1_555
C9_4 C12_4 1_555 1_555
C10_4 C13_4 1_555 1_555
C22_4 C24_4 1_555 1_555
C37_4 C47_4 1_555 1_555
C38_4 C41_4 1_555 1_555
C39_4 C42_4 1_555 1_555
C43_4 C44_4 1_555 1_555
C46_4 C48_4 1_555 1_555
C50_4 C52_4 1_555 1_555
O11_2 C32_4 1_555 1_555
O9_4 C32_4 1_555 1_555
H11_3 C21_3 1_555 1_555
H11_4 C21_4 1_555 1_555

#END
