
###############################################################################
#
# This file contains modified crystal structure data generated from the
# MOF subset of the Cambridge Structural Database (CSD) v543 
# hosted by the Cambridge Crystallographic Data Centre (CCDC).
#
# This work is licensed under the Creative Commons
# Attribution-NonCommercial-ShareAlike 4.0 International License.
# To view a copy of this license, visit
# http://creativecommons.org/licenses/by-nc-sa/4.0/
# or send a letter to
# Creative Commons, PO Box 1866, Mountain View, CA 94042, USA.
#
# CIF created using the CSD Python API on 29 September 2022
# The structure has been converted into the P1 space group
# The structure has a 3D framework
# The original CSD entry DOJXIL is in the monoclinic crystal system
# The framework has been calculated to contain at least 10.0% void space
# The void calculation uses a probe of radius 1.32A, grid spacing 0.4
#
###############################################################################

data_DOJXIL
_chemical_formula_moiety         '(C208 H128 N24 Ni8 O35)n'
_symmetry_cell_setting           triclinic
_symmetry_space_group_name_H-M   'P 1'
_symmetry_Int_Tables_number      1
_space_group_name_Hall           'P 1'
loop_
_symmetry_equiv_pos_site_id
_symmetry_equiv_pos_as_xyz
1 x,y,z
_cell_length_a                   27.4601(15)
_cell_length_b                   14.8337(7)
_cell_length_c                   15.0974(7)
_cell_angle_alpha                90
_cell_angle_beta                 112.024(7)
_cell_angle_gamma                90
_cell_volume                     5700.93
loop_
_atom_site_label
_atom_site_type_symbol
_atom_site_fract_x
_atom_site_fract_y
_atom_site_fract_z
N6 N 0.36410(16) 0.1748(3) 0.6339(3)
H24 H 0.2296 0.0072 0.3615
C40 C 0.2324(2) 0.0002(4) 0.4962(4)
C41 C 0.2788(2) 0.0589(4) 0.5430(4)
C42 C 0.2996(2) 0.0693(4) 0.6419(4)
H25 H 0.2852 0.0380 0.6796
C43 C 0.3018(2) 0.1089(4) 0.4914(4)
H26 H 0.2891 0.1046 0.4251
C51 C 0.3442(2) 0.1658(4) 0.5397(4)
H31 H 0.3592 0.1988 0.5039
C52 C 0.3418(2) 0.1267(4) 0.6838(4)
H32 H 0.3555 0.1321 0.7500
Ni5 Ni 0.43152(2) 0.25331(4) 0.69847(4)
C18 C 0.0450(3) 0.5424(6) 0.0066(6)
H12 H 0.0763 0.5707 0.0126
O6 O 0.04215(14) 0.3487(2) 0.2046(2)
C27 C 0.0453(3) 0.4732(6) 0.0692(6)
H17 H 0.0769 0.4557 0.1162
C29 C 0.0008(2) 0.4313(4) 0.0633(4)
C30 C 0.00102(19) 0.3569(3) 0.1311(3)
Ni7 Ni 0.06848(2) 0.24669(4) 0.30153(4)
O2 O 0.03918(13) 0.6918(2) 0.8920(2)
O3 O -0.0000 0.8316(3) 0.7500
Ni2 Ni 0.06848(2) 0.75331(4) 0.80153(4)
N4 N 0.09961(17) 0.8126(3) 0.7103(3)
N5 N 0.21035(18) 0.9637(3) 0.5541(3)
C31 C 0.0710(2) 0.8190(4) 0.6162(4)
H19 H 0.0362 0.8001 0.5939
C32 C 0.0906(2) 0.8524(4) 0.5509(4)
H20 H 0.0692 0.8565 0.4866
C33 C 0.1426(2) 0.8796(3) 0.5819(4)
C34 C 0.1724(2) 0.8731(4) 0.6796(4)
H21 H 0.2074 0.8909 0.7036
C35 C 0.1495(2) 0.8402(4) 0.7400(4)
H22 H 0.1698 0.8370 0.8049
C36 C 0.1658(2) 0.9176(4) 0.5149(4)
C37 C 0.1416(2) 0.9050(4) 0.4165(4)
H23 H 0.1095 0.8753 0.3906
C38 C 0.1661(2) 0.9375(4) 0.3581(4)
C39 C 0.2122(2) 0.9852(4) 0.3992(4)
C44 C 0.1427(2) 0.9229(4) 0.2530(4)
C45 C 0.1730(2) 0.8895(4) 0.2039(4)
H27 H 0.2082 0.8755 0.2375
C46 C 0.0899(2) 0.9445(4) 0.2015(4)
H28 H 0.0690 0.9655 0.2333
C48 C 0.0997(2) 0.9004(3) 0.0550(4)
C49 C 0.0688(2) 0.9344(4) 0.1031(4)
H29 H 0.0341 0.9503 0.0689
C50 C 0.1516(2) 0.8769(4) 0.1066(4)
H30 H 0.1719 0.8527 0.0752
O10 O 0.04215(14) 0.6513(2) 0.7046(2)
O13 O 0.10261(13) 0.8453(2) 0.9102(2)
N7 N 0.13590(16) 0.6748(3) 0.8661(3)
O9 O 0.03121(14) 0.9219(3) 0.9047(3)
C47 C 0.0761(2) 0.8886(3) 0.9487(4)
N3 N 0.63590(16) 0.1748(3) 0.8661(3)
C11 C 0.7212(2) 0.0589(4) 0.9570(4)
C12 C 0.7004(2) 0.0693(4) 0.8581(4)
H7 H 0.7148 0.0380 0.8204
C25 C 0.6558(2) 0.1658(4) 0.9603(4)
H15 H 0.6408 0.1988 0.9961
C26 C 0.6582(2) 0.1267(4) 0.8162(4)
H16 H 0.6445 0.1321 0.7500
Ni6 Ni 0.56848(2) 0.25331(4) 0.80153(4)
O4 O 0.89739(13) 0.8453(2) 0.5898(2)
O5 O 0.96879(14) 0.9219(3) 0.5953(3)
H2 H 0.9308 0.8565 0.0134
C7 C 0.8584(2) 0.9050(4) 0.0835(4)
H5 H 0.8905 0.8753 0.1094
C8 C 0.8339(2) 0.9375(4) 0.1419(4)
C9 C 0.7878(2) 0.9852(4) 0.1008(4)
C14 C 0.8573(2) 0.9229(4) 0.2470(4)
C15 C 0.8270(2) 0.8895(4) 0.2961(4)
H9 H 0.7918 0.8755 0.2625
C16 C 0.9101(2) 0.9445(4) 0.2985(4)
H10 H 0.9310 0.9655 0.2667
C21 C 0.9239(2) 0.8886(3) 0.5513(4)
C22 C 0.9003(2) 0.9004(3) 0.4450(4)
C23 C 0.9312(2) 0.9344(4) 0.3969(4)
H13 H 0.9659 0.9503 0.4311
C24 C 0.8484(2) 0.8769(4) 0.3934(4)
H14 H 0.8281 0.8527 0.4248
O7 O 0.96082(13) 0.3082(2) 0.1080(2)
Ni3 Ni 0.93152(2) 0.75331(4) 0.69847(4)
Ni8 Ni 0.93152(2) 0.24669(4) 0.19847(4)
O1 O 0.95785(14) 0.6513(2) 0.7954(2)
O3_2 O 1.0000 0.8316(3) 0.7500
N1 N 0.90039(17) 0.8126(3) 0.7897(3)
N2 N 0.78965(18) 0.9637(3) 0.9459(3)
C1 C 0.9290(2) 0.8190(4) 0.8838(4)
H1 H 0.9638 0.8001 0.9061
C2 C 0.9094(2) 0.8524(4) 0.9491(4)
C3 C 0.8574(2) 0.8796(3) 0.9181(4)
C4 C 0.8276(2) 0.8731(4) 0.8204(4)
H3 H 0.7926 0.8909 0.7964
C5 C 0.8505(2) 0.8402(4) 0.7600(4)
H4 H 0.8302 0.8370 0.6951
C6 C 0.8342(2) 0.9176(4) 0.9851(4)
C17 C 0.9547(3) 0.5268(6) 0.9308(6)
H11 H 0.9231 0.5443 0.8838
C19 C 0.9992(2) 0.5687(4) 0.9367(4)
C20 C 0.99898(19) 0.6431(3) 0.8689(3)
C28 C 0.9550(3) 0.4576(6) 0.9934(6)
H18 H 0.9237 0.4293 0.9874
O11 O 0.96082(13) 0.6918(2) 0.6080(2)
N8 N 0.86410(16) 0.6748(3) 0.6339(3)
C17_2 C 0.0453(3) 0.5268(6) 0.5692(6)
H11_2 H 0.0769 0.5443 0.6162
C19_2 C 0.0008(2) 0.5687(4) 0.5633(4)
C20_2 C 0.00102(19) 0.6431(3) 0.6311(3)
C28_2 C 0.0450(3) 0.4576(6) 0.5066(6)
H18_2 H 0.0763 0.4293 0.5126
O7_2 O 0.03918(13) 0.3082(2) 0.3920(2)
C18_2 C 0.9550(3) 0.5424(6) 0.4934(6)
H12_2 H 0.9237 0.5707 0.4874
O6_2 O 0.95785(14) 0.3487(2) 0.2954(2)
C27_2 C 0.9547(3) 0.4732(6) 0.4308(6)
H17_2 H 0.9231 0.4557 0.3838
C29_2 C 0.9992(2) 0.4313(4) 0.4367(4)
C30_2 C 0.99898(19) 0.3569(3) 0.3689(3)
O4_2 O 0.39739(13) 0.3453(2) 0.5898(2)
O5_2 O 0.46879(14) 0.4219(3) 0.5953(3)
H2_2 H 0.4308 0.3565 0.0134
C7_2 C 0.3584(2) 0.4050(4) 0.0835(4)
H5_2 H 0.3905 0.3753 0.1094
C8_2 C 0.3339(2) 0.4375(4) 0.1419(4)
C9_2 C 0.2878(2) 0.4852(4) 0.1008(4)
H6 H 0.2704 0.5072 0.1385
C10 C 0.2676(2) 0.5002(4) 0.0038(4)
C13 C 0.1982(2) 0.6089(4) 0.0086(4)
H8 H 0.2109 0.6046 0.0749
C14_2 C 0.3573(2) 0.4229(4) 0.2470(4)
C15_2 C 0.3270(2) 0.3895(4) 0.2961(4)
H9_2 H 0.2918 0.3755 0.2625
C16_2 C 0.4101(2) 0.4445(4) 0.2985(4)
H10_2 H 0.4310 0.4655 0.2667
C18_3 C 0.5450(3) 0.0424(6) 0.0066(6)
H12_3 H 0.5763 0.0707 0.0126
C21_2 C 0.4239(2) 0.3886(3) 0.5513(4)
C22_2 C 0.4003(2) 0.4004(3) 0.4450(4)
C23_2 C 0.4312(2) 0.4344(4) 0.3969(4)
H13_2 H 0.4659 0.4503 0.4311
C24_2 C 0.3484(2) 0.3769(4) 0.3934(4)
H14_2 H 0.3281 0.3527 0.4248
O1_2 O 0.45785(14) 0.1513(2) 0.7954(2)
O2_2 O 0.53918(13) 0.1918(2) 0.8920(2)
O3_3 O 0.5000 0.3316(3) 0.7500
N1_2 N 0.40039(17) 0.3126(3) 0.7897(3)
N2_2 N 0.28965(18) 0.4637(3) 0.9459(3)
C1_2 C 0.4290(2) 0.3190(4) 0.8838(4)
H1_2 H 0.4638 0.3001 0.9061
C2_2 C 0.4094(2) 0.3524(4) 0.9491(4)
C3_2 C 0.3574(2) 0.3796(3) 0.9181(4)
C4_2 C 0.3276(2) 0.3731(4) 0.8204(4)
H3_2 H 0.2926 0.3909 0.7964
C5_2 C 0.3505(2) 0.3402(4) 0.7600(4)
H4_2 H 0.3302 0.3370 0.6951
C6_2 C 0.3342(2) 0.4176(4) 0.9851(4)
C11_2 C 0.2212(2) 0.5589(4) 0.9570(4)
C12_2 C 0.2004(2) 0.5693(4) 0.8581(4)
H7_2 H 0.2148 0.5380 0.8204
C17_3 C 0.4547(3) 0.0268(6) 0.9308(6)
H11_3 H 0.4231 0.0443 0.8838
C19_3 C 0.4992(2) 0.0687(4) 0.9367(4)
C20_3 C 0.49898(19) 0.1431(3) 0.8689(3)
C25_2 C 0.1558(2) 0.6658(4) 0.9603(4)
H15_2 H 0.1408 0.6988 0.9961
C26_2 C 0.1582(2) 0.6267(4) 0.8162(4)
H16_2 H 0.1445 0.6321 0.7500
N4_2 N 0.59961(17) 0.3126(3) 0.7103(3)
N5_2 N 0.71035(18) 0.4637(3) 0.5541(3)
C31_2 C 0.5710(2) 0.3190(4) 0.6162(4)
H19_2 H 0.5362 0.3001 0.5939
C32_2 C 0.5906(2) 0.3524(4) 0.5509(4)
H20_2 H 0.5692 0.3565 0.4866
C33_2 C 0.6426(2) 0.3796(3) 0.5819(4)
C34_2 C 0.6724(2) 0.3731(4) 0.6796(4)
H21_2 H 0.7074 0.3909 0.7036
C35_2 C 0.6495(2) 0.3402(4) 0.7400(4)
H22_2 H 0.6698 0.3370 0.8049
C36_2 C 0.6658(2) 0.4176(4) 0.5149(4)
C37_2 C 0.6416(2) 0.4050(4) 0.4165(4)
H23_2 H 0.6095 0.3753 0.3906
C38_2 C 0.6661(2) 0.4375(4) 0.3581(4)
C39_2 C 0.7122(2) 0.4852(4) 0.3992(4)
H24_2 H 0.7296 0.5072 0.3615
C40_2 C 0.7324(2) 0.5002(4) 0.4962(4)
C41_2 C 0.7788(2) 0.5589(4) 0.5430(4)
C42_2 C 0.7996(2) 0.5693(4) 0.6419(4)
H25_2 H 0.7852 0.5380 0.6796
C43_2 C 0.8018(2) 0.6089(4) 0.4914(4)
H26_2 H 0.7891 0.6046 0.4251
C44_2 C 0.6427(2) 0.4229(4) 0.2530(4)
C45_2 C 0.6730(2) 0.3895(4) 0.2039(4)
H27_2 H 0.7082 0.3755 0.2375
C46_2 C 0.5899(2) 0.4445(4) 0.2015(4)
H28_2 H 0.5690 0.4655 0.2333
C48_2 C 0.5997(2) 0.4004(3) 0.0550(4)
C49_2 C 0.5688(2) 0.4344(4) 0.1031(4)
H29_2 H 0.5341 0.4503 0.0689
C50_2 C 0.6516(2) 0.3769(4) 0.1066(4)
H30_2 H 0.6719 0.3527 0.0752
C51_2 C 0.8442(2) 0.6658(4) 0.5397(4)
H31_2 H 0.8592 0.6988 0.5039
C52_2 C 0.8418(2) 0.6267(4) 0.6838(4)
H32_2 H 0.8555 0.6321 0.7500
O10_2 O 0.54215(14) 0.1513(2) 0.7046(2)
O11_2 O 0.46082(13) 0.1918(2) 0.6080(2)
O13_2 O 0.60261(13) 0.3453(2) 0.9102(2)
O9_2 O 0.53121(14) 0.4219(3) 0.9047(3)
C47_2 C 0.5761(2) 0.3886(3) 0.9487(4)
O6_3 O 0.54215(14) 0.8487(2) 0.2046(2)
C27_3 C 0.5453(3) 0.9732(6) 0.0692(6)
H17_3 H 0.5769 0.9557 0.1162
C29_3 C 0.5008(2) 0.9313(4) 0.0633(4)
C30_3 C 0.50102(19) 0.8569(3) 0.1311(3)
O7_3 O 0.46082(13) 0.8082(2) 0.1080(2)
Ni7_2 Ni 0.56848(2) 0.74669(4) 0.30153(4)
Ni8_2 Ni 0.43152(2) 0.74669(4) 0.19847(4)
C28_3 C 0.4550(3) 0.9576(6) 0.9934(6)
H18_3 H 0.4237 0.9293 0.9874
C17_4 C 0.5453(3) 0.0268(6) 0.5692(6)
H11_4 H 0.5769 0.0443 0.6162
C18_4 C 0.4550(3) 0.0424(6) 0.4934(6)
H12_4 H 0.4237 0.0707 0.4874
C19_4 C 0.5008(2) 0.0687(4) 0.5633(4)
C20_4 C 0.50102(19) 0.1431(3) 0.6311(3)
O6_4 O 0.45785(14) 0.8487(2) 0.2954(2)
C27_4 C 0.4547(3) 0.9732(6) 0.4308(6)
H17_4 H 0.4231 0.9557 0.3838
C28_4 C 0.5450(3) 0.9576(6) 0.5066(6)
H18_4 H 0.5763 0.9293 0.5126
C29_4 C 0.4992(2) 0.9313(4) 0.4367(4)
C30_4 C 0.49898(19) 0.8569(3) 0.3689(3)
O7_4 O 0.53918(13) 0.8082(2) 0.3920(2)
O3_4 O 0.0000 0.1684(3) 0.2500
N1_3 N 0.09961(17) 0.1874(3) 0.2103(3)
N2_3 N 0.21035(18) 0.0363(3) 0.0541(3)
C1_3 C 0.0710(2) 0.1810(4) 0.1162(4)
H1_3 H 0.0362 0.1999 0.0939
C2_3 C 0.0906(2) 0.1476(4) 0.0509(4)
C3_3 C 0.1426(2) 0.1204(3) 0.0819(4)
C4_3 C 0.1724(2) 0.1269(4) 0.1796(4)
H3_3 H 0.2074 0.1091 0.2036
C5_3 C 0.1495(2) 0.1598(4) 0.2400(4)
H4_3 H 0.1698 0.1630 0.3049
C6_3 C 0.1658(2) 0.0824(4) 0.0149(4)
O12 O 0.10261(13) 0.1547(2) 0.4102(2)
N8_2 N 0.13590(16) 0.3252(3) 0.3661(3)
O5_3 O 0.03121(14) 0.0781(3) 0.4047(3)
H2_3 H 0.0692 0.1435 0.9866
C7_3 C 0.1416(2) 0.0950(4) 0.9165(4)
H5_3 H 0.1095 0.1247 0.8906
C8_3 C 0.1661(2) 0.0625(4) 0.8581(4)
C9_3 C 0.2122(2) 0.0148(4) 0.8992(4)
C14_3 C 0.1427(2) 0.0771(4) 0.7530(4)
C15_3 C 0.1730(2) 0.1105(4) 0.7039(4)
H9_3 H 0.2082 0.1245 0.7375
C16_3 C 0.0899(2) 0.0555(4) 0.7015(4)
H10_3 H 0.0690 0.0345 0.7333
C21_3 C 0.0761(2) 0.1114(3) 0.4487(4)
C22_3 C 0.0997(2) 0.0996(3) 0.5550(4)
C23_3 C 0.0688(2) 0.0656(4) 0.6031(4)
H13_3 H 0.0341 0.0497 0.5689
C24_3 C 0.1516(2) 0.1231(4) 0.6066(4)
H14_3 H 0.1719 0.1473 0.5752
N3_2 N 0.36410(16) 0.8252(3) 0.1339(3)
C11_3 C 0.2788(2) 0.9411(4) 0.0430(4)
C12_3 C 0.2996(2) 0.9307(4) 0.1419(4)
H7_3 H 0.2852 0.9620 0.1796
C25_3 C 0.3442(2) 0.8342(4) 0.0397(4)
H15_3 H 0.3592 0.8012 0.0039
C26_3 C 0.3418(2) 0.8733(4) 0.1838(4)
H16_3 H 0.3555 0.8679 0.2500
O8 O 0.89739(13) 0.1547(2) 0.0898(2)
O9_3 O 0.96879(14) 0.0781(3) 0.0953(3)
C47_3 C 0.9239(2) 0.1114(3) 0.0513(4)
O3_5 O 1.0000 0.1684(3) 0.2500
N4_3 N 0.90039(17) 0.1874(3) 0.2897(3)
N5_3 N 0.78965(18) 0.0363(3) 0.4459(3)
C31_3 C 0.9290(2) 0.1810(4) 0.3838(4)
H19_3 H 0.9638 0.1999 0.4061
C32_3 C 0.9094(2) 0.1476(4) 0.4491(4)
H20_3 H 0.9308 0.1435 0.5134
C33_3 C 0.8574(2) 0.1204(3) 0.4181(4)
C34_3 C 0.8276(2) 0.1269(4) 0.3204(4)
H21_3 H 0.7926 0.1091 0.2964
C35_3 C 0.8505(2) 0.1598(4) 0.2600(4)
H22_3 H 0.8302 0.1630 0.1951
C36_3 C 0.8342(2) 0.0824(4) 0.4851(4)
C37_3 C 0.8584(2) 0.0950(4) 0.5835(4)
H23_3 H 0.8905 0.1247 0.6094
C38_3 C 0.8339(2) 0.0625(4) 0.6419(4)
C39_3 C 0.7878(2) 0.0148(4) 0.6008(4)
C44_3 C 0.8573(2) 0.0771(4) 0.7470(4)
C45_3 C 0.8270(2) 0.1105(4) 0.7961(4)
H27_3 H 0.7918 0.1245 0.7625
C46_3 C 0.9101(2) 0.0555(4) 0.7985(4)
H28_3 H 0.9310 0.0345 0.7667
C48_3 C 0.9003(2) 0.0996(3) 0.9450(4)
C49_3 C 0.9312(2) 0.0656(4) 0.8969(4)
H29_3 H 0.9659 0.0497 0.9311
C50_3 C 0.8484(2) 0.1231(4) 0.8934(4)
H30_3 H 0.8281 0.1473 0.9248
N7_2 N 0.86410(16) 0.3252(3) 0.1339(3)
N6_2 N 0.63590(16) 0.8252(3) 0.3661(3)
H24_3 H 0.7704 0.9928 0.6385
C40_3 C 0.7676(2) 0.9998(4) 0.5038(4)
C41_3 C 0.7212(2) 0.9411(4) 0.4570(4)
C42_3 C 0.7004(2) 0.9307(4) 0.3581(4)
H25_3 H 0.7148 0.9620 0.3204
C43_3 C 0.6982(2) 0.8911(4) 0.5086(4)
H26_3 H 0.7109 0.8954 0.5749
C51_3 C 0.6558(2) 0.8342(4) 0.4603(4)
H31_3 H 0.6408 0.8012 0.4961
C52_3 C 0.6582(2) 0.8733(4) 0.3162(4)
H32_3 H 0.6445 0.8679 0.2500
O8_2 O 0.39739(13) 0.6547(2) 0.0898(2)
O9_4 O 0.46879(14) 0.5781(3) 0.0953(3)
C47_4 C 0.4239(2) 0.6114(3) 0.0513(4)
O3_6 O 0.5000 0.6684(3) 0.2500
N1_4 N 0.59961(17) 0.6874(3) 0.2103(3)
N2_4 N 0.71035(18) 0.5363(3) 0.0541(3)
C1_4 C 0.5710(2) 0.6810(4) 0.1162(4)
H1_4 H 0.5362 0.6999 0.0939
C2_4 C 0.5906(2) 0.6476(4) 0.0509(4)
C3_4 C 0.6426(2) 0.6204(3) 0.0819(4)
C4_4 C 0.6724(2) 0.6269(4) 0.1796(4)
H3_4 H 0.7074 0.6091 0.2036
C5_4 C 0.6495(2) 0.6598(4) 0.2400(4)
H4_4 H 0.6698 0.6630 0.3049
C6_4 C 0.6658(2) 0.5824(4) 0.0149(4)
C11_4 C 0.7788(2) 0.4411(4) 0.0430(4)
C12_4 C 0.7996(2) 0.4307(4) 0.1419(4)
H7_4 H 0.7852 0.4620 0.1796
C25_4 C 0.8442(2) 0.3342(4) 0.0397(4)
H15_4 H 0.8592 0.3012 0.0039
C26_4 C 0.8418(2) 0.3733(4) 0.1838(4)
H16_4 H 0.8555 0.3679 0.2500
N4_4 N 0.40039(17) 0.6874(3) 0.2897(3)
N5_4 N 0.28965(18) 0.5363(3) 0.4459(3)
C31_4 C 0.4290(2) 0.6810(4) 0.3838(4)
H19_4 H 0.4638 0.6999 0.4061
C32_4 C 0.4094(2) 0.6476(4) 0.4491(4)
H20_4 H 0.4308 0.6435 0.5134
C33_4 C 0.3574(2) 0.6204(3) 0.4181(4)
C34_4 C 0.3276(2) 0.6269(4) 0.3204(4)
H21_4 H 0.2926 0.6091 0.2964
C35_4 C 0.3505(2) 0.6598(4) 0.2600(4)
H22_4 H 0.3302 0.6630 0.1951
C36_4 C 0.3342(2) 0.5824(4) 0.4851(4)
C37_4 C 0.3584(2) 0.5950(4) 0.5835(4)
H23_4 H 0.3905 0.6247 0.6094
C38_4 C 0.3339(2) 0.5625(4) 0.6419(4)
C39_4 C 0.2878(2) 0.5148(4) 0.6008(4)
H24_4 H 0.2704 0.4928 0.6385
C40_4 C 0.2676(2) 0.4998(4) 0.5038(4)
C41_4 C 0.2212(2) 0.4411(4) 0.4570(4)
C42_4 C 0.2004(2) 0.4307(4) 0.3581(4)
H25_4 H 0.2148 0.4620 0.3204
C43_4 C 0.1982(2) 0.3911(4) 0.5086(4)
H26_4 H 0.2109 0.3954 0.5749
C44_4 C 0.3573(2) 0.5771(4) 0.7470(4)
C45_4 C 0.3270(2) 0.6105(4) 0.7961(4)
H27_4 H 0.2918 0.6245 0.7625
C46_4 C 0.4101(2) 0.5555(4) 0.7985(4)
H28_4 H 0.4310 0.5345 0.7667
C48_4 C 0.4003(2) 0.5996(3) 0.9450(4)
C49_4 C 0.4312(2) 0.5656(4) 0.8969(4)
H29_4 H 0.4659 0.5497 0.9311
C50_4 C 0.3484(2) 0.6231(4) 0.8934(4)
H30_4 H 0.3281 0.6473 0.9248
C51_4 C 0.1558(2) 0.3342(4) 0.4603(4)
H31_4 H 0.1408 0.3012 0.4961
C52_4 C 0.1582(2) 0.3733(4) 0.3162(4)
H32_4 H 0.1445 0.3679 0.2500
O12_2 O 0.60261(13) 0.6547(2) 0.4102(2)
O5_4 O 0.53121(14) 0.5781(3) 0.4047(3)
H2_4 H 0.5692 0.6435 0.9866
C7_4 C 0.6416(2) 0.5950(4) 0.9165(4)
H5_4 H 0.6095 0.6247 0.8906
C8_4 C 0.6661(2) 0.5625(4) 0.8581(4)
C9_4 C 0.7122(2) 0.5148(4) 0.8992(4)
H6_2 H 0.7296 0.4928 0.8615
C10_2 C 0.7324(2) 0.4998(4) 0.9962(4)
C13_2 C 0.8018(2) 0.3911(4) 0.9914(4)
H8_2 H 0.7891 0.3954 0.9251
C14_4 C 0.6427(2) 0.5771(4) 0.7530(4)
C15_4 C 0.6730(2) 0.6105(4) 0.7039(4)
H9_4 H 0.7082 0.6245 0.7375
C16_4 C 0.5899(2) 0.5555(4) 0.7015(4)
H10_4 H 0.5690 0.5345 0.7333
C21_4 C 0.5761(2) 0.6114(3) 0.4487(4)
C22_4 C 0.5997(2) 0.5996(3) 0.5550(4)
C23_4 C 0.5688(2) 0.5656(4) 0.6031(4)
H13_4 H 0.5341 0.5497 0.5689
C24_4 C 0.6516(2) 0.6231(4) 0.6066(4)
H14_4 H 0.6719 0.6473 0.5752
H6_3 H 0.7704 0.0072 0.1385
C10_3 C 0.7676(2) 0.0002(4) 0.0038(4)
C13_3 C 0.6982(2) 0.1089(4) 0.0086(4)
H8_3 H 0.7109 0.1046 0.0749
H6_4 H 0.2296 0.9928 0.8615
C10_4 C 0.2324(2) 0.9998(4) 0.9962(4)
C13_4 C 0.3018(2) 0.8911(4) 0.9914(4)
H8_4 H 0.2891 0.8954 0.9251
loop_
_geom_bond_atom_site_label_1
_geom_bond_atom_site_label_2
_geom_bond_site_symmetry_1
_geom_bond_site_symmetry_2
N6 C51 1_555 1_555
C41 C40 1_555 1_555
C42 C41 1_555 1_555
H25 C42 1_555 1_555
C43 C41 1_555 1_555
H26 C43 1_555 1_555
C51 C43 1_555 1_555
H31 C51 1_555 1_555
C52 N6 1_555 1_555
H32 C52 1_555 1_555
Ni5 N6 1_555 1_555
C42 C52 1_555 1_555
C18 H12 1_555 1_555
O6 C30 1_555 1_555
C27 C18 1_555 1_555
H17 C27 1_555 1_555
C29 C27 1_555 1_555
C30 C29 1_555 1_555
Ni7 O6 1_555 1_555
Ni2 O2 1_555 1_555
N4 Ni2 1_555 1_555
N5 C36 1_555 1_555
C31 N4 1_555 1_555
H19 C31 1_555 1_555
C32 C31 1_555 1_555
H20 C32 1_555 1_555
C33 C32 1_555 1_555
C34 C33 1_555 1_555
H21 C34 1_555 1_555
C35 N4 1_555 1_555
H22 C35 1_555 1_555
C36 C33 1_555 1_555
C37 C36 1_555 1_555
H23 C37 1_555 1_555
C38 C37 1_555 1_555
C39 C38 1_555 1_555
C44 C38 1_555 1_555
C45 C44 1_555 1_555
H27 C45 1_555 1_555
C46 C44 1_555 1_555
H28 C46 1_555 1_555
C48 C49 1_555 1_555
C49 C46 1_555 1_555
H29 C49 1_555 1_555
C50 C45 1_555 1_555
H30 C50 1_555 1_555
O10 Ni2 1_555 1_555
O13 Ni2 1_555 1_555
N7 Ni2 1_555 1_555
O3 Ni2 1_555 1_555
C34 C35 1_555 1_555
C48 C50 1_555 1_555
O13 C47 1_555 1_555
O9 C47 1_555 1_555
N3 C25 1_555 1_555
C12 C11 1_555 1_555
H7 C12 1_555 1_555
H15 C25 1_555 1_555
C26 N3 1_555 1_555
H16 C26 1_555 1_555
Ni6 N3 1_555 1_555
C12 C26 1_555 1_555
O4 C21 1_555 1_555
O5 C21 1_555 1_555
H5 C7 1_555 1_555
C8 C7 1_555 1_555
C9 C8 1_555 1_555
C14 C8 1_555 1_555
C15 C14 1_555 1_555
H9 C15 1_555 1_555
C16 C14 1_555 1_555
H10 C16 1_555 1_555
C21 C22 1_555 1_555
C22 C23 1_555 1_555
C23 C16 1_555 1_555
H13 C23 1_555 1_555
C24 C15 1_555 1_555
H14 C24 1_555 1_555
Ni3 O4 1_555 1_555
Ni8 O7 1_555 1_555
C22 C24 1_555 1_555
Ni3 O1 1_555 1_555
O1 C20 1_555 1_555
O3_2 Ni3 1_555 1_555
N1 Ni3 1_555 1_555
N2 C6 1_555 1_555
C1 N1 1_555 1_555
H1 C1 1_555 1_555
C2 C1 1_555 1_555
C3 C2 1_555 1_555
C4 C3 1_555 1_555
H3 C4 1_555 1_555
C5 N1 1_555 1_555
H4 C5 1_555 1_555
C6 C3 1_555 1_555
C17 H11 1_555 1_555
C19 C17 1_555 1_555
C20 C19 1_555 1_555
C28 C17 1_555 1_555
H18 C28 1_555 1_555
O11 Ni3 1_555 1_555
N8 Ni3 1_555 1_555
C4 C5 1_555 1_555
O10 C20_2 1_555 1_555
C17_2 H11_2 1_555 1_555
C19_2 C17_2 1_555 1_555
C20_2 C19_2 1_555 1_555
C28_2 C17_2 1_555 1_555
H18_2 C28_2 1_555 1_555
Ni7 O7_2 1_555 1_555
C18_2 H12_2 1_555 1_555
O6_2 C30_2 1_555 1_555
C27_2 C18_2 1_555 1_555
H17_2 C27_2 1_555 1_555
C29_2 C27_2 1_555 1_555
C30_2 C29_2 1_555 1_555
Ni8 O6_2 1_555 1_555
O4_2 C21_2 1_555 1_555
O5_2 C21_2 1_555 1_555
H5_2 C7_2 1_555 1_555
C8_2 C7_2 1_555 1_555
C9_2 C8_2 1_555 1_555
H6 C9_2 1_555 1_555
H8 C13 1_555 1_555
C14_2 C8_2 1_555 1_555
C15_2 C14_2 1_555 1_555
H9_2 C15_2 1_555 1_555
C16_2 C14_2 1_555 1_555
H10_2 C16_2 1_555 1_555
C18_3 H12_3 1_555 1_555
C21_2 C22_2 1_555 1_555
C22_2 C23_2 1_555 1_555
C23_2 C16_2 1_555 1_555
H13_2 C23_2 1_555 1_555
C24_2 C15_2 1_555 1_555
H14_2 C24_2 1_555 1_555
Ni5 O4_2 1_555 1_555
C9_2 C10 1_555 1_555
C22_2 C24_2 1_555 1_555
Ni5 O1_2 1_555 1_555
O1_2 C20_3 1_555 1_555
O2_2 C20_3 1_555 1_555
O3_3 Ni5 1_555 1_555
N1_2 Ni5 1_555 1_555
N2_2 C6_2 1_555 1_555
N7 C25_2 1_555 1_555
C1_2 N1_2 1_555 1_555
H1_2 C1_2 1_555 1_555
C2_2 C1_2 1_555 1_555
C3_2 C2_2 1_555 1_555
C4_2 C3_2 1_555 1_555
H3_2 C4_2 1_555 1_555
C5_2 N1_2 1_555 1_555
H4_2 C5_2 1_555 1_555
C6_2 C3_2 1_555 1_555
C12_2 C11_2 1_555 1_555
H7_2 C12_2 1_555 1_555
C17_3 H11_3 1_555 1_555
C19_3 C17_3 1_555 1_555
C20_3 C19_3 1_555 1_555
H15_2 C25_2 1_555 1_555
C26_2 N7 1_555 1_555
H16_2 C26_2 1_555 1_555
Ni6 O2_2 1_555 1_555
N4_2 Ni6 1_555 1_555
N5_2 C36_2 1_555 1_555
N8 C51_2 1_555 1_555
C31_2 N4_2 1_555 1_555
H19_2 C31_2 1_555 1_555
C32_2 C31_2 1_555 1_555
H20_2 C32_2 1_555 1_555
C33_2 C32_2 1_555 1_555
C34_2 C33_2 1_555 1_555
H21_2 C34_2 1_555 1_555
C35_2 N4_2 1_555 1_555
H22_2 C35_2 1_555 1_555
C36_2 C33_2 1_555 1_555
C37_2 C36_2 1_555 1_555
H23_2 C37_2 1_555 1_555
C38_2 C37_2 1_555 1_555
C39_2 C38_2 1_555 1_555
H24_2 C39_2 1_555 1_555
C40_2 N5_2 1_555 1_555
C41_2 C40_2 1_555 1_555
C42_2 C41_2 1_555 1_555
H25_2 C42_2 1_555 1_555
C43_2 C41_2 1_555 1_555
H26_2 C43_2 1_555 1_555
C44_2 C38_2 1_555 1_555
C45_2 C44_2 1_555 1_555
H27_2 C45_2 1_555 1_555
C46_2 C44_2 1_555 1_555
H28_2 C46_2 1_555 1_555
C48_2 C49_2 1_555 1_555
C49_2 C46_2 1_555 1_555
H29_2 C49_2 1_555 1_555
C50_2 C45_2 1_555 1_555
H30_2 C50_2 1_555 1_555
C51_2 C43_2 1_555 1_555
H31_2 C51_2 1_555 1_555
C52_2 N8 1_555 1_555
H32_2 C52_2 1_555 1_555
O10_2 Ni6 1_555 1_555
O11_2 Ni5 1_555 1_555
O13_2 Ni6 1_555 1_555
O3_3 Ni6 1_555 1_555
C4_2 C5_2 1_555 1_555
C12_2 C26_2 1_555 1_555
C34_2 C35_2 1_555 1_555
C39_2 C40_2 1_555 1_555
C42_2 C52_2 1_555 1_555
C48_2 C50_2 1_555 1_555
O13_2 C47_2 1_555 1_555
O9_2 C47_2 1_555 1_555
O6_3 C30_3 1_555 1_555
H17_3 C27_3 1_555 1_555
C29_3 C27_3 1_555 1_555
C30_3 C29_3 1_555 1_555
O7_3 C30_3 1_555 1_555
Ni7_2 O6_3 1_555 1_555
Ni8_2 O7_3 1_555 1_555
H18_3 C28_3 1_555 1_555
O10_2 C20_4 1_555 1_555
O11_2 C20_4 1_555 1_555
C17_4 H11_4 1_555 1_555
C18_4 H12_4 1_555 1_555
C19_4 C17_4 1_555 1_555
C20_4 C19_4 1_555 1_555
C18_4 C19_4 1_555 1_555
O6_4 C30_4 1_555 1_555
H17_4 C27_4 1_555 1_555
H18_4 C28_4 1_555 1_555
C29_4 C27_4 1_555 1_555
C30_4 C29_4 1_555 1_555
O7_4 C30_4 1_555 1_555
Ni8_2 O6_4 1_555 1_555
Ni7_2 O7_4 1_555 1_555
C28_4 C29_4 1_555 1_555
O3_4 Ni7 1_555 1_555
N1_3 Ni7 1_555 1_555
N2_3 C6_3 1_555 1_555
C1_3 N1_3 1_555 1_555
H1_3 C1_3 1_555 1_555
C2_3 C1_3 1_555 1_555
C3_3 C2_3 1_555 1_555
C4_3 C3_3 1_555 1_555
H3_3 C4_3 1_555 1_555
C5_3 N1_3 1_555 1_555
H4_3 C5_3 1_555 1_555
C6_3 C3_3 1_555 1_555
O12 Ni7 1_555 1_555
N8_2 Ni7 1_555 1_555
C4_3 C5_3 1_555 1_555
O12 C21_3 1_555 1_555
O5_3 C21_3 1_555 1_555
H5_3 C7_3 1_555 1_555
C8_3 C7_3 1_555 1_555
C9_3 C8_3 1_555 1_555
C14_3 C8_3 1_555 1_555
C15_3 C14_3 1_555 1_555
H9_3 C15_3 1_555 1_555
C16_3 C14_3 1_555 1_555
H10_3 C16_3 1_555 1_555
C21_3 C22_3 1_555 1_555
C22_3 C23_3 1_555 1_555
C23_3 C16_3 1_555 1_555
H13_3 C23_3 1_555 1_555
C24_3 C15_3 1_555 1_555
H14_3 C24_3 1_555 1_555
C22_3 C24_3 1_555 1_555
N3_2 C25_3 1_555 1_555
C12_3 C11_3 1_555 1_555
H7_3 C12_3 1_555 1_555
H15_3 C25_3 1_555 1_555
C26_3 N3_2 1_555 1_555
H16_3 C26_3 1_555 1_555
Ni8_2 N3_2 1_555 1_555
C12_3 C26_3 1_555 1_555
O8 C47_3 1_555 1_555
O9_3 C47_3 1_555 1_555
Ni8 O8 1_555 1_555
N4_3 Ni8 1_555 1_555
N5_3 C36_3 1_555 1_555
C31_3 N4_3 1_555 1_555
H19_3 C31_3 1_555 1_555
C32_3 C31_3 1_555 1_555
H20_3 C32_3 1_555 1_555
C33_3 C32_3 1_555 1_555
C34_3 C33_3 1_555 1_555
H21_3 C34_3 1_555 1_555
C35_3 N4_3 1_555 1_555
H22_3 C35_3 1_555 1_555
C36_3 C33_3 1_555 1_555
C37_3 C36_3 1_555 1_555
H23_3 C37_3 1_555 1_555
C38_3 C37_3 1_555 1_555
C39_3 C38_3 1_555 1_555
C44_3 C38_3 1_555 1_555
C45_3 C44_3 1_555 1_555
H27_3 C45_3 1_555 1_555
C46_3 C44_3 1_555 1_555
H28_3 C46_3 1_555 1_555
C48_3 C49_3 1_555 1_555
C49_3 C46_3 1_555 1_555
H29_3 C49_3 1_555 1_555
C50_3 C45_3 1_555 1_555
H30_3 C50_3 1_555 1_555
N7_2 Ni8 1_555 1_555
O3_5 Ni8 1_555 1_555
C34_3 C35_3 1_555 1_555
C48_3 C50_3 1_555 1_555
N6_2 C51_3 1_555 1_555
C41_3 C40_3 1_555 1_555
C42_3 C41_3 1_555 1_555
H25_3 C42_3 1_555 1_555
C43_3 C41_3 1_555 1_555
H26_3 C43_3 1_555 1_555
C51_3 C43_3 1_555 1_555
H31_3 C51_3 1_555 1_555
C52_3 N6_2 1_555 1_555
H32_3 C52_3 1_555 1_555
Ni7_2 N6_2 1_555 1_555
C42_3 C52_3 1_555 1_555
O8_2 C47_4 1_555 1_555
O9_4 C47_4 1_555 1_555
Ni8_2 O8_2 1_555 1_555
O3_6 Ni7_2 1_555 1_555
N1_4 Ni7_2 1_555 1_555
N2_4 C6_4 1_555 1_555
N7_2 C25_4 1_555 1_555
C1_4 N1_4 1_555 1_555
H1_4 C1_4 1_555 1_555
C2_4 C1_4 1_555 1_555
C3_4 C2_4 1_555 1_555
C4_4 C3_4 1_555 1_555
H3_4 C4_4 1_555 1_555
C5_4 N1_4 1_555 1_555
H4_4 C5_4 1_555 1_555
C6_4 C3_4 1_555 1_555
C12_4 C11_4 1_555 1_555
H7_4 C12_4 1_555 1_555
H15_4 C25_4 1_555 1_555
C26_4 N7_2 1_555 1_555
H16_4 C26_4 1_555 1_555
N4_4 Ni8_2 1_555 1_555
N5_4 C36_4 1_555 1_555
N8_2 C51_4 1_555 1_555
C31_4 N4_4 1_555 1_555
H19_4 C31_4 1_555 1_555
C32_4 C31_4 1_555 1_555
H20_4 C32_4 1_555 1_555
C33_4 C32_4 1_555 1_555
C34_4 C33_4 1_555 1_555
H21_4 C34_4 1_555 1_555
C35_4 N4_4 1_555 1_555
H22_4 C35_4 1_555 1_555
C36_4 C33_4 1_555 1_555
C37_4 C36_4 1_555 1_555
H23_4 C37_4 1_555 1_555
C38_4 C37_4 1_555 1_555
C39_4 C38_4 1_555 1_555
H24_4 C39_4 1_555 1_555
C40_4 N5_4 1_555 1_555
C41_4 C40_4 1_555 1_555
C42_4 C41_4 1_555 1_555
H25_4 C42_4 1_555 1_555
C43_4 C41_4 1_555 1_555
H26_4 C43_4 1_555 1_555
C44_4 C38_4 1_555 1_555
C45_4 C44_4 1_555 1_555
H27_4 C45_4 1_555 1_555
C46_4 C44_4 1_555 1_555
H28_4 C46_4 1_555 1_555
C48_4 C49_4 1_555 1_555
C49_4 C46_4 1_555 1_555
H29_4 C49_4 1_555 1_555
C50_4 C45_4 1_555 1_555
H30_4 C50_4 1_555 1_555
C51_4 C43_4 1_555 1_555
H31_4 C51_4 1_555 1_555
C52_4 N8_2 1_555 1_555
H32_4 C52_4 1_555 1_555
O12_2 Ni7_2 1_555 1_555
O3_6 Ni8_2 1_555 1_555
C4_4 C5_4 1_555 1_555
C12_4 C26_4 1_555 1_555
C34_4 C35_4 1_555 1_555
C39_4 C40_4 1_555 1_555
C42_4 C52_4 1_555 1_555
C48_4 C50_4 1_555 1_555
O12_2 C21_4 1_555 1_555
O5_4 C21_4 1_555 1_555
H5_4 C7_4 1_555 1_555
C8_4 C7_4 1_555 1_555
C9_4 C8_4 1_555 1_555
H6_2 C9_4 1_555 1_555
H8_2 C13_2 1_555 1_555
C14_4 C8_4 1_555 1_555
C15_4 C14_4 1_555 1_555
H9_4 C15_4 1_555 1_555
C16_4 C14_4 1_555 1_555
H10_4 C16_4 1_555 1_555
C21_4 C22_4 1_555 1_555
C22_4 C23_4 1_555 1_555
C23_4 C16_4 1_555 1_555
H13_4 C23_4 1_555 1_555
C24_4 C15_4 1_555 1_555
H14_4 C24_4 1_555 1_555
C9_4 C10_2 1_555 1_555
C22_4 C24_4 1_555 1_555
H8_3 C13_3 1_555 1_555
H8_4 C13_4 1_555 1_555

#END
