
###############################################################################
#
# This file contains modified crystal structure data generated from the
# MOF subset of the Cambridge Structural Database (CSD) v543 
# hosted by the Cambridge Crystallographic Data Centre (CCDC).
#
# This work is licensed under the Creative Commons
# Attribution-NonCommercial-ShareAlike 4.0 International License.
# To view a copy of this license, visit
# http://creativecommons.org/licenses/by-nc-sa/4.0/
# or send a letter to
# Creative Commons, PO Box 1866, Mountain View, CA 94042, USA.
#
# CIF created using the CSD Python API on 29 September 2022
# The structure has been converted into the P1 space group
# The structure has a 3D framework
# The original CSD entry DOJYIM is in the monoclinic crystal system
# The framework has been calculated to contain at least 10.0% void space
# The void calculation uses a probe of radius 1.32A, grid spacing 0.4
#
###############################################################################

data_DOJYIM
_chemical_formula_moiety         '(C108 H90 Mn8 N8 O40)n'
_symmetry_cell_setting           triclinic
_symmetry_space_group_name_H-M   'P 1'
_symmetry_Int_Tables_number      1
_space_group_name_Hall           'P 1'
loop_
_symmetry_equiv_pos_site_id
_symmetry_equiv_pos_as_xyz
1 x,y,z
_cell_length_a                   16.899(3)
_cell_length_b                   11.245(2)
_cell_length_c                   18.736(4)
_cell_angle_alpha                90
_cell_angle_beta                 115.504(3)
_cell_angle_gamma                90
_cell_volume                     3213.45
loop_
_atom_site_label
_atom_site_type_symbol
_atom_site_fract_x
_atom_site_fract_y
_atom_site_fract_z
Mn10 Mn -0.0000 0.0000 0.5000
Mn10_2 Mn 0.0000 1.0000 0.5000
Mn1 Mn 0.61933(3) 0.69491(4) 0.18318(2)
Mn2 Mn 0.5000 0.5000 0.0000
C1 C 0.5411(2) 0.5288(3) 0.27150(18)
C2 C 0.48051(19) 0.5157(3) 0.31130(17)
C3 C 0.4685(2) 0.4053(3) 0.33740(19)
H1 H 0.5002 0.3401 0.3334
C4 C 0.4089(2) 0.3926(3) 0.3696(2)
C5 C 0.3597(2) 0.4875(3) 0.3745(2)
H2 H 0.3184 0.4778 0.3945
C6 C 0.3737(2) 0.5973(3) 0.3490(2)
C7 C 0.4339(2) 0.6129(3) 0.31781(19)
H3 H 0.4429 0.6877 0.3015
C8 C 0.3425(3) 0.2540(3) 0.4253(2)
C9 C 0.2652(3) 0.1984(3) 0.3799(2)
H4 H 0.2476 0.1880 0.3260
C10 C 0.2132(2) 0.1574(3) 0.4157(2)
H5 H 0.1603 0.1197 0.3854
C11 C 0.2400(2) 0.1726(3) 0.49647(18)
C12 C 0.3166(2) 0.2321(3) 0.5401(2)
H6 H 0.3338 0.2448 0.5938
C13 C 0.3688(3) 0.2735(3) 0.5052(3)
H7 H 0.4207 0.3138 0.5350
C14 C 0.18536(19) 0.1192(3) 0.53458(18)
C15 C 0.2797(2) 0.7122(3) 0.3919(2)
C16 C 0.3127(2) 0.6785(3) 0.4701(2)
H8 H 0.3660 0.6386 0.4938
C17 C 0.2654(2) 0.7048(3) 0.5130(2)
H9 H 0.2869 0.6817 0.5657
C18 C 0.18634(19) 0.7652(3) 0.47798(17)
C19 C 0.1552(2) 0.8004(3) 0.39940(19)
H10 H 0.1028 0.8423 0.3757
C20 C 0.2020(2) 0.7734(3) 0.3564(2)
H11 H 0.1809 0.7965 0.3038
C21 C 0.13354(19) 0.7927(3) 0.52381(18)
C22 C 0.8229(2) 0.7284(3) 0.2602(2)
H12 H 0.8166 0.7835 0.2211
C23 C 0.8983(2) 0.7025(3) 0.3225(2)
H13 H 0.9530 0.7358 0.3346
C24 C 0.79248(19) 0.5963(3) 0.32652(17)
H14 H 0.7622 0.5424 0.3432
C25 C 0.94059(18) 0.5577(2) 0.43416(16)
C26 C 0.9135(2) 0.5106(3) 0.48770(19)
H15 H 0.8554 0.5175 0.4793
N1 N 0.75612(16) 0.6611(2) 0.26286(14)
N2 N 0.87935(16) 0.6171(2) 0.36523(14)
O1 O 0.56519(16) 0.63038(19) 0.26356(14)
O2 O 0.5604(2) 0.4364(2) 0.2467(2)
O3 O 0.3240(2) 0.6975(2) 0.34492(18)
O4 O 0.4006(2) 0.2787(2) 0.3922(2)
O5 O 0.16465(14) 0.7611(2) 0.59477(12)
O6 O 0.06166(14) 0.84333(19) 0.48699(13)
O7 O 0.22147(15) 0.0921(2) 0.60579(13)
O8 O 0.10484(13) 0.1031(2) 0.48974(13)
O9 O 0.64507(16) 0.8734(2) 0.23884(15)
O10 O 0.49098(16) 0.7685(2) 0.11325(15)
O11 O 0.59200(13) 0.50947(17) 0.13063(11)
H17 H 0.6843(16) 0.881(4) 0.2836(9)
H18 H 0.457(2) 0.720(3) 0.0825(17)
H19 H 0.6022(15) 0.916(3) 0.229(2)
H20 H 0.481(3) 0.785(4) 0.1512(16)
H21 H 0.6330(15) 0.478(3) 0.1254(19)
H22 H 0.581(2) 0.480(3) 0.1654(18)
H23 H 0.041(3) 0.908(2) 0.467(2)
C33 C 0.9736(2) 0.4529(3) 0.55404(18)
H28 H 0.9560 0.4212 0.5907
Mn6 Mn 0.11933(3) 0.80509(4) 0.68318(2)
O24 O 0.66465(14) 0.7389(2) 0.09477(12)
O25 O 0.43834(14) 0.34333(19) 0.01301(13)
O27 O 0.39516(13) 0.6031(2) 0.01026(13)
C2_2 C 0.01949(19) 0.0157(3) 0.18870(17)
C6_2 C 0.1263(2) 0.0973(3) 0.1510(2)
C7_2 C 0.0661(2) 0.1129(3) 0.18219(19)
H3_2 H 0.0571 0.1877 0.1985
C15_2 C 0.2203(2) 0.2122(3) 0.1081(2)
C16_2 C 0.1873(2) 0.1785(3) 0.0299(2)
H8_2 H 0.1340 0.1386 0.0062
C18_2 C 0.31366(19) 0.2652(3) 0.02202(17)
C19_2 C 0.3448(2) 0.3004(3) 0.10060(19)
H10_2 H 0.3972 0.3423 0.1243
C20_2 C 0.2980(2) 0.2734(3) 0.1436(2)
H11_2 H 0.3191 0.2965 0.1962
O3_2 O 0.1760(2) 0.1975(2) 0.15508(18)
O10_2 O 0.00902(16) 0.2685(2) 0.38675(15)
H18_2 H 0.043(2) 0.220(3) 0.4175(17)
H20_2 H 0.019(3) 0.285(4) 0.3488(16)
H23_2 H 0.459(3) 0.408(2) 0.033(2)
H29 H 0.0002 0.1599 0.8334
O13 O 0.0604(2) 0.0636(2) 0.7467(2)
H44 H 0.1330(15) 0.022(3) 0.6254(19)
H45 H 0.081(2) 0.020(3) 0.6654(18)
C3_2 C 0.0315(2) 0.9053(3) 0.16260(19)
C4_2 C 0.0911(2) 0.8926(3) 0.1304(2)
C5_2 C 0.1403(2) 0.9875(3) 0.1255(2)
H2_2 H 0.1816 0.9778 0.1055
C8_2 C 0.1575(3) 0.7540(3) 0.0747(2)
C9_2 C 0.2348(3) 0.6984(3) 0.1201(2)
H4_2 H 0.2524 0.6880 0.1740
C10_2 C 0.2868(2) 0.6574(3) 0.0843(2)
H5_2 H 0.3397 0.6197 0.1146
C11_2 C 0.2600(2) 0.6726(3) 0.00353(18)
O4_2 O 0.0994(2) 0.7787(2) 0.1078(2)
C34 C 0.0411(2) 0.9712(3) 0.77150(18)
O12 O 0.06519(16) 0.86962(19) 0.76356(14)
O20 O 0.14507(16) 0.6266(2) 0.73884(15)
O22 O 0.09200(13) 0.99053(17) 0.63063(11)
H40 H 0.1843(16) 0.619(4) 0.7836(9)
H42 H 0.1022(15) 0.584(3) 0.729(2)
N5 N 0.25612(16) 0.8389(2) 0.76286(14)
C45 C 0.8166(2) 0.2679(3) 0.0401(2)
H34 H 0.8338 0.2552 0.0938
C46 C 0.8688(3) 0.2265(3) 0.0052(3)
H35 H 0.9207 0.1862 0.0350
C47 C 0.68536(19) 0.3808(3) 0.03458(18)
O18 O 0.72147(15) 0.4079(2) 0.10579(13)
C50 C 0.7654(2) 0.7952(3) 0.0130(2)
H37 H 0.7869 0.8183 0.0657
C54 C 0.63354(19) 0.7073(3) 0.02381(18)
C28 C 0.3229(2) 0.7716(3) 0.7602(2)
H24 H 0.3166 0.7165 0.7211
C29 C 0.3983(2) 0.7975(3) 0.8225(2)
H25 H 0.4530 0.7642 0.8346
C30 C 0.29248(19) 0.9037(3) 0.82652(17)
H26 H 0.2622 0.9576 0.8432
C31 C 0.44059(18) 0.9423(2) 0.93416(16)
C32 C 0.4135(2) 0.9894(3) 0.98770(19)
H27 H 0.3554 0.9825 0.9793
C33_2 C 0.5264(2) 0.9529(3) 0.94596(18)
H28_2 H 0.5440 0.9212 0.9093
N4 N 0.37935(16) 0.8829(2) 0.86523(14)
C27 C 0.0264(2) 0.5471(3) 0.44596(18)
H16 H 0.0440 0.5788 0.4093
C28_2 C 0.1771(2) 0.2716(3) 0.7398(2)
H24_2 H 0.1834 0.2165 0.7789
C29_2 C 0.1017(2) 0.2975(3) 0.6775(2)
H25_2 H 0.0470 0.2642 0.6654
C30_2 C 0.20752(19) 0.4037(3) 0.67348(17)
H26_2 H 0.2378 0.4576 0.6568
C31_2 C 0.05941(18) 0.4423(2) 0.56584(16)
C32_2 C 0.0865(2) 0.4894(3) 0.51230(19)
H27_2 H 0.1446 0.4825 0.5207
N3 N 0.24388(16) 0.3389(2) 0.73714(14)
N4_2 N 0.12065(16) 0.3829(2) 0.63477(14)
Mn5 Mn 0.38067(3) 0.30509(4) 0.81682(2)
Mn10_3 Mn 1.0000 0.0000 0.5000
Mn2_2 Mn 0.5000 0.5000 1.0000
C34_2 C 0.4589(2) 0.4712(3) 0.72850(18)
C35 C 0.51949(19) 0.4843(3) 0.68870(17)
C36 C 0.5315(2) 0.5947(3) 0.66260(19)
H29_2 H 0.4998 0.6599 0.6666
C37 C 0.5911(2) 0.6074(3) 0.6304(2)
C38 C 0.6403(2) 0.5125(3) 0.6255(2)
H30 H 0.6816 0.5222 0.6055
C39 C 0.6263(2) 0.4027(3) 0.6510(2)
C40 C 0.5661(2) 0.3871(3) 0.68219(19)
H31 H 0.5571 0.3123 0.6985
C41 C 0.6575(3) 0.7460(3) 0.5747(2)
C42 C 0.7348(3) 0.8016(3) 0.6201(2)
H32 H 0.7524 0.8120 0.6740
C43 C 0.7868(2) 0.8426(3) 0.5843(2)
H33 H 0.8397 0.8803 0.6146
C44 C 0.7600(2) 0.8274(3) 0.50353(18)
C45_2 C 0.6834(2) 0.7679(3) 0.4599(2)
H34_2 H 0.6662 0.7552 0.4062
C46_2 C 0.6312(3) 0.7265(3) 0.4948(3)
H35_2 H 0.5793 0.6862 0.4650
C47_2 C 0.81464(19) 0.8808(3) 0.46542(18)
C48 C 0.7203(2) 0.2878(3) 0.6081(2)
C49 C 0.6873(2) 0.3215(3) 0.5299(2)
H36 H 0.6340 0.3614 0.5062
C50_2 C 0.7346(2) 0.2952(3) 0.4870(2)
H37_2 H 0.7131 0.3183 0.4343
C51 C 0.81366(19) 0.2348(3) 0.52202(17)
C52 C 0.8448(2) 0.1996(3) 0.60060(19)
H38 H 0.8972 0.1577 0.6243
C53 C 0.7980(2) 0.2266(3) 0.6436(2)
H39 H 0.8191 0.2035 0.6962
C54_2 C 0.86646(19) 0.2073(3) 0.47619(18)
O12_2 O 0.43481(16) 0.36962(19) 0.73644(14)
O13_2 O 0.4396(2) 0.5636(2) 0.7533(2)
O14 O 0.6760(2) 0.3025(2) 0.65508(18)
O15 O 0.5994(2) 0.7213(2) 0.6078(2)
O16 O 0.83535(14) 0.2389(2) 0.40523(12)
O17 O 0.93834(14) 0.15667(19) 0.51301(13)
O18_2 O 0.77853(15) 0.9079(2) 0.39421(13)
O19 O 0.89516(13) 0.8969(2) 0.51026(13)
O20_2 O 0.35493(16) 0.1266(2) 0.76116(15)
O21 O 0.50902(16) 0.2315(2) 0.88675(15)
O22_2 O 0.40800(13) 0.49053(17) 0.86937(11)
H40_2 H 0.3157(16) 0.119(4) 0.7164(9)
H41 H 0.543(2) 0.280(3) 0.9175(17)
H42_2 H 0.3978(15) 0.084(3) 0.771(2)
H43 H 0.519(3) 0.215(4) 0.8488(16)
H44_2 H 0.3670(15) 0.522(3) 0.8746(19)
H45_2 H 0.419(2) 0.520(3) 0.8346(18)
H46 H 0.959(3) 0.092(2) 0.533(2)
Mn4 Mn 0.88067(3) 0.19491(4) 0.31682(2)
Mn10_4 Mn 1.0000 1.0000 0.5000
O23 O 0.33535(14) 0.2611(2) 0.90523(12)
O26 O 0.56166(14) 0.65667(19) 0.98699(13)
O28 O 0.60484(13) 0.3969(2) 0.98974(13)
C17_2 C 0.2346(2) 0.2048(3) 0.9870(2)
H9_2 H 0.2131 0.1817 0.9343
C21_2 C 0.36646(19) 0.2927(3) 0.97619(18)
C12_2 C 0.1834(2) 0.7321(3) 0.9599(2)
H6_2 H 0.1662 0.7448 0.9062
C13_2 C 0.1312(3) 0.7735(3) 0.9948(3)
H7_2 H 0.0793 0.8138 0.9650
C14_2 C 0.31464(19) 0.6192(3) 0.96542(18)
O7_2 O 0.27853(15) 0.5921(2) 0.89421(13)
C1_2 C 0.9589(2) 0.0288(3) 0.22850(18)
C22_2 C 0.6771(2) 0.2284(3) 0.2398(2)
H12_2 H 0.6834 0.2835 0.2789
C23_2 C 0.6017(2) 0.2025(3) 0.1775(2)
H13_2 H 0.5470 0.2358 0.1654
C24_2 C 0.70752(19) 0.0963(3) 0.17348(17)
H14_2 H 0.7378 0.0424 0.1568
C25_2 C 0.55941(18) 0.0577(2) 0.06584(16)
C26_2 C 0.5865(2) 0.0106(3) 0.01230(19)
H15_2 H 0.6446 0.0175 0.0207
C27_2 C 0.4736(2) 0.0471(3) 0.05404(18)
H16_2 H 0.4560 0.0788 0.0907
N1_2 N 0.74388(16) 0.1611(2) 0.23714(14)
N2_2 N 0.62065(16) 0.1171(2) 0.13477(14)
O1_2 O 0.93481(16) 0.13038(19) 0.23644(14)
O9_2 O 0.85493(16) 0.3734(2) 0.26116(15)
O11_2 O 0.90800(13) 0.00947(17) 0.36937(11)
H17_2 H 0.8157(16) 0.381(4) 0.2164(9)
H19_2 H 0.8978(15) 0.416(3) 0.271(2)
C36_2 C 0.9685(2) 0.0947(3) 0.83740(19)
C37_2 C 0.9089(2) 0.1074(3) 0.8696(2)
C38_2 C 0.8597(2) 0.0125(3) 0.8745(2)
H30_2 H 0.8184 0.0222 0.8945
C41_2 C 0.8425(3) 0.2460(3) 0.9253(2)
C42_2 C 0.7652(3) 0.3016(3) 0.8799(2)
H32_2 H 0.7476 0.3120 0.8260
C43_2 C 0.7132(2) 0.3426(3) 0.9157(2)
H33_2 H 0.6603 0.3803 0.8854
C44_2 C 0.7400(2) 0.3274(3) 0.99647(18)
O15_2 O 0.9006(2) 0.2213(2) 0.8922(2)
H1_2 H 0.9998 0.8401 0.1666
O2_2 O 0.9396(2) 0.9364(2) 0.2533(2)
H21_2 H 0.8670(15) 0.978(3) 0.3746(19)
H22_2 H 0.919(2) 0.980(3) 0.3346(18)
C35_2 C 0.98051(19) 0.9843(3) 0.81130(17)
C39_2 C 0.8737(2) 0.9027(3) 0.8490(2)
C40_2 C 0.9339(2) 0.8871(3) 0.81781(19)
H31_2 H 0.9429 0.8123 0.8015
C48_2 C 0.7797(2) 0.7878(3) 0.8919(2)
C49_2 C 0.8127(2) 0.8215(3) 0.9701(2)
H36_2 H 0.8660 0.8614 0.9938
C51_2 C 0.68634(19) 0.7348(3) 0.97798(17)
C52_2 C 0.6552(2) 0.6996(3) 0.89940(19)
H38_2 H 0.6028 0.6577 0.8757
C53_2 C 0.7020(2) 0.7266(3) 0.8564(2)
H39_2 H 0.6809 0.7035 0.8038
O14_2 O 0.8240(2) 0.8025(2) 0.84492(18)
O21_2 O 0.99098(16) 0.7315(2) 0.61325(15)
H41_2 H 0.957(2) 0.780(3) 0.5825(17)
H43_2 H 0.981(3) 0.715(4) 0.6512(16)
H46_2 H 0.541(3) 0.592(2) 0.967(2)
loop_
_geom_bond_atom_site_label_1
_geom_bond_atom_site_label_2
_geom_bond_site_symmetry_1
_geom_bond_site_symmetry_2
Mn1 N1 1_555 1_555
Mn2 O11 1_555 1_555
C1 C2 1_555 1_555
C2 C3 1_555 1_555
C3 H1 1_555 1_555
C4 C3 1_555 1_555
C5 C4 1_555 1_555
H2 C5 1_555 1_555
C6 C5 1_555 1_555
C7 C2 1_555 1_555
H3 C7 1_555 1_555
C8 C9 1_555 1_555
C9 H4 1_555 1_555
C10 C9 1_555 1_555
H5 C10 1_555 1_555
C11 C10 1_555 1_555
C12 C11 1_555 1_555
H6 C12 1_555 1_555
C13 C8 1_555 1_555
H7 C13 1_555 1_555
C14 C11 1_555 1_555
C15 C16 1_555 1_555
C16 H8 1_555 1_555
C17 C16 1_555 1_555
H9 C17 1_555 1_555
C18 C17 1_555 1_555
C19 C18 1_555 1_555
H10 C19 1_555 1_555
C20 C15 1_555 1_555
H11 C20 1_555 1_555
C21 C18 1_555 1_555
C22 H12 1_555 1_555
C23 C22 1_555 1_555
H13 C23 1_555 1_555
C24 H14 1_555 1_555
C25 C26 1_555 1_555
C26 H15 1_555 1_555
N1 C22 1_555 1_555
N2 C23 1_555 1_555
O1 Mn1 1_555 1_555
O2 C1 1_555 1_555
O3 C6 1_555 1_555
O4 C4 1_555 1_555
O5 C21 1_555 1_555
O6 C21 1_555 1_555
O7 C14 1_555 1_555
O8 C14 1_555 1_555
O9 Mn1 1_555 1_555
O10 Mn1 1_555 1_555
O11 Mn1 1_555 1_555
H17 O9 1_555 1_555
H18 O10 1_555 1_555
H19 O9 1_555 1_555
H20 O10 1_555 1_555
H21 O11 1_555 1_555
H22 O11 1_555 1_555
H23 O6 1_555 1_555
C33 C26 1_555 1_555
H28 C33 1_555 1_555
Mn6 O5 1_555 1_555
Mn10 O8 1_555 1_555
Mn10_2 O6 1_555 1_555
O24 Mn1 1_555 1_555
O25 Mn2 1_555 1_555
O27 Mn2 1_555 1_555
C1 O1 1_555 1_555
C6 C7 1_555 1_555
C8 O4 1_555 1_555
C12 C13 1_555 1_555
C15 O3 1_555 1_555
C19 C20 1_555 1_555
C24 N1 1_555 1_555
C24 N2 1_555 1_555
C25 N2 1_555 1_555
C7_2 C2_2 1_555 1_555
H3_2 C7_2 1_555 1_555
C15_2 C16_2 1_555 1_555
C16_2 H8_2 1_555 1_555
C19_2 C18_2 1_555 1_555
H10_2 C19_2 1_555 1_555
C20_2 C15_2 1_555 1_555
H11_2 C20_2 1_555 1_555
O3_2 C6_2 1_555 1_555
H18_2 O10_2 1_555 1_555
H20_2 O10_2 1_555 1_555
H23_2 O25 1_555 1_555
C6_2 C7_2 1_555 1_555
C15_2 O3_2 1_555 1_555
C19_2 C20_2 1_555 1_555
C4_2 C3_2 1_555 1_555
C5_2 C4_2 1_555 1_555
H2_2 C5_2 1_555 1_555
C8_2 C9_2 1_555 1_555
C9_2 H4_2 1_555 1_555
C10_2 C9_2 1_555 1_555
H5_2 C10_2 1_555 1_555
C11_2 C10_2 1_555 1_555
O4_2 C4_2 1_555 1_555
Mn6 O12 1_555 1_555
O12 C34 1_555 1_555
O20 Mn6 1_555 1_555
O22 Mn10_2 1_555 1_555
H40 O20 1_555 1_555
H42 O20 1_555 1_555
N5 Mn6 1_555 1_555
C8_2 O4_2 1_555 1_555
Mn6 O22 1_555 1_555
H34 C45 1_555 1_555
H35 C46 1_555 1_555
O18 C47 1_555 1_555
C45 C46 1_555 1_555
H37 C50 1_555 1_555
O24 C54 1_555 1_555
C28 H24 1_555 1_555
C29 C28 1_555 1_555
H25 C29 1_555 1_555
C30 H26 1_555 1_555
C31 C32 1_555 1_555
H27 C32 1_555 1_555
H28_2 C33_2 1_555 1_555
N5 C28 1_555 1_555
N4 C29 1_555 1_555
C30 N5 1_555 1_555
C30 N4 1_555 1_555
C31 C33_2 1_555 1_555
C31 N4 1_555 1_555
H16 C27 1_555 1_555
C28_2 H24_2 1_555 1_555
C29_2 C28_2 1_555 1_555
H25_2 C29_2 1_555 1_555
C30_2 H26_2 1_555 1_555
C31_2 C32_2 1_555 1_555
C32_2 C27 1_555 1_555
H27_2 C32_2 1_555 1_555
N3 C28_2 1_555 1_555
N4_2 C29_2 1_555 1_555
Mn5 N3 1_555 1_555
C30_2 N3 1_555 1_555
C30_2 N4_2 1_555 1_555
C31_2 N4_2 1_555 1_555
Mn5 O12_2 1_555 1_555
C34_2 C35 1_555 1_555
C35 C36 1_555 1_555
C36 H29_2 1_555 1_555
C37 C36 1_555 1_555
C38 C37 1_555 1_555
H30 C38 1_555 1_555
C39 C38 1_555 1_555
C40 C35 1_555 1_555
H31 C40 1_555 1_555
C41 C42 1_555 1_555
C42 H32 1_555 1_555
C43 C42 1_555 1_555
H33 C43 1_555 1_555
C44 C43 1_555 1_555
C45_2 C44 1_555 1_555
H34_2 C45_2 1_555 1_555
C46_2 C41 1_555 1_555
H35_2 C46_2 1_555 1_555
C47_2 C44 1_555 1_555
C48 C49 1_555 1_555
C49 H36 1_555 1_555
C50_2 C49 1_555 1_555
H37_2 C50_2 1_555 1_555
C51 C50_2 1_555 1_555
C52 C51 1_555 1_555
H38 C52 1_555 1_555
C53 C48 1_555 1_555
H39 C53 1_555 1_555
C54_2 C51 1_555 1_555
O12_2 C34_2 1_555 1_555
O13_2 C34_2 1_555 1_555
O14 C39 1_555 1_555
O15 C37 1_555 1_555
O16 C54_2 1_555 1_555
O17 C54_2 1_555 1_555
O18_2 C47_2 1_555 1_555
O19 C47_2 1_555 1_555
O20_2 Mn5 1_555 1_555
O21 Mn5 1_555 1_555
O22_2 Mn2_2 1_555 1_555
H40_2 O20_2 1_555 1_555
H41 O21 1_555 1_555
H42_2 O20_2 1_555 1_555
H43 O21 1_555 1_555
H44_2 O22_2 1_555 1_555
H45_2 O22_2 1_555 1_555
H46 O17 1_555 1_555
Mn4 O16 1_555 1_555
Mn10_3 O17 1_555 1_555
Mn10_4 O19 1_555 1_555
O23 Mn5 1_555 1_555
O26 Mn2_2 1_555 1_555
O28 Mn2_2 1_555 1_555
Mn5 O22_2 1_555 1_555
C39 C40 1_555 1_555
C41 O15 1_555 1_555
C45_2 C46_2 1_555 1_555
C48 O14 1_555 1_555
C52 C53 1_555 1_555
H9_2 C17_2 1_555 1_555
O23 C21_2 1_555 1_555
H6_2 C12_2 1_555 1_555
H7_2 C13_2 1_555 1_555
O7_2 C14_2 1_555 1_555
C12_2 C13_2 1_555 1_555
Mn4 N1_2 1_555 1_555
Mn10_3 O11_2 1_555 1_555
C22_2 H12_2 1_555 1_555
C23_2 C22_2 1_555 1_555
H13_2 C23_2 1_555 1_555
C24_2 H14_2 1_555 1_555
C25_2 C26_2 1_555 1_555
C26_2 H15_2 1_555 1_555
C27_2 C25_2 1_555 1_555
H16_2 C27_2 1_555 1_555
N1_2 C22_2 1_555 1_555
N2_2 C23_2 1_555 1_555
O1_2 Mn4 1_555 1_555
O9_2 Mn4 1_555 1_555
O11_2 Mn4 1_555 1_555
H17_2 O9_2 1_555 1_555
H19_2 O9_2 1_555 1_555
C37_2 C36_2 1_555 1_555
C38_2 C37_2 1_555 1_555
H30_2 C38_2 1_555 1_555
C41_2 C42_2 1_555 1_555
C42_2 H32_2 1_555 1_555
C43_2 C42_2 1_555 1_555
H33_2 C43_2 1_555 1_555
C44_2 C43_2 1_555 1_555
O15_2 C37_2 1_555 1_555
C1_2 O1_2 1_555 1_555
C24_2 N1_2 1_555 1_555
C24_2 N2_2 1_555 1_555
C25_2 N2_2 1_555 1_555
C41_2 O15_2 1_555 1_555
C40_2 C35_2 1_555 1_555
H31_2 C40_2 1_555 1_555
C48_2 C49_2 1_555 1_555
C49_2 H36_2 1_555 1_555
C52_2 C51_2 1_555 1_555
H38_2 C52_2 1_555 1_555
C53_2 C48_2 1_555 1_555
H39_2 C53_2 1_555 1_555
O14_2 C39_2 1_555 1_555
H41_2 O21_2 1_555 1_555
H43_2 O21_2 1_555 1_555
H46_2 O26 1_555 1_555
C39_2 C40_2 1_555 1_555
C48_2 O14_2 1_555 1_555
C52_2 C53_2 1_555 1_555

#END
