
###############################################################################
#
# This file contains modified crystal structure data generated from the
# MOF subset of the Cambridge Structural Database (CSD) v543 
# hosted by the Cambridge Crystallographic Data Centre (CCDC).
#
# This work is licensed under the Creative Commons
# Attribution-NonCommercial-ShareAlike 4.0 International License.
# To view a copy of this license, visit
# http://creativecommons.org/licenses/by-nc-sa/4.0/
# or send a letter to
# Creative Commons, PO Box 1866, Mountain View, CA 94042, USA.
#
# CIF created using the CSD Python API on 29 September 2022
# The structure has been converted into the P1 space group
# The structure has a 3D framework
# The original CSD entry DOKDEN is in the rhombohedral crystal system
# The framework has been calculated to contain at least 10.0% void space
# The void calculation uses a probe of radius 1.32A, grid spacing 0.4
# H atom positions have been added when not included in the experimental data
#
###############################################################################

data_DOKDEN
_chemical_formula_moiety         '(C288 H270 Cu14 N18 O70)n'
_symmetry_cell_setting           triclinic
_symmetry_space_group_name_H-M   'P 1'
_symmetry_Int_Tables_number      1
_space_group_name_Hall           'P 1'
loop_
_symmetry_equiv_pos_site_id
_symmetry_equiv_pos_as_xyz
1 x,y,z
_cell_length_a                   41.28(2)
_cell_length_b                   41.28(2)
_cell_length_c                   9.864(4)
_cell_angle_alpha                90
_cell_angle_beta                 90
_cell_angle_gamma                120.0
_cell_volume                     14556.7
loop_
_atom_site_label
_atom_site_type_symbol
_atom_site_fract_x
_atom_site_fract_y
_atom_site_fract_z
Cu1 Cu 0.30967(3) 0.13461(2) 0.60575(10)
O1 O 0.3417(2) 0.1598(2) 0.4506(5)
O2 O 0.3806(2) 0.2147(2) 0.5486(6)
O3 O 0.4515(2) 0.4400(1) 0.0023(6)
C1 C 0.3680(2) 0.1932(2) 0.4482(8)
C2 C 0.3849(2) 0.2087(2) 0.3122(7)
C3 C 0.4052(3) 0.2465(3) 0.2899(9)
C4 C 0.4191(3) 0.2608(3) 0.1631(10)
C5 C 0.4126(2) 0.2372(2) 0.0561(8)
C6 C 0.3936(2) 0.1995(2) 0.0803(8)
C7 C 0.3794(2) 0.1853(2) 0.2083(7)
H1 H 0.4108 0.2630 0.3649
H2 H 0.4316 0.2871 0.1494
H3 H 0.3899 0.1824 0.0094
H4 H 0.3651 0.1590 0.2223
Cu2 Cu 0.35700(3) 0.19872(2) 0.72758(10)
Cu3 Cu 0.46794(2) 0.49161(4) 0.06092(10)
O5 O 0.2861(2) 0.1186(2) 0.7847(6)
O6 O 0.3448(2) 0.1182(2) 0.6644(6)
O7 O 0.2816(3) 0.1606(2) 0.5735(6)
N2 N 0.2716(2) 0.0816(2) 0.4998(6)
H14 H 0.293(2) 0.078(2) 0.441(7)
H15 H 0.253238 0.0842213 0.438538
H16 H 0.257265 0.060192 0.565599
O4 O 0.5061(2) 0.4544(2) 0.9068(6)
N1 N 0.3951(2) 0.2517(2) 0.8335(6)
C8 C 0.4264(2) 0.2534(3) 0.9158(8)
C9 C 0.4096(3) 0.2813(2) 0.7285(8)
C10 C 0.4269(3) 0.3208(2) 0.7872(9)
C11 C 0.4046(3) 0.3305(3) 0.8586(13)
C12 C 0.4196(3) 0.3675(3) 0.9134(12)
C13 C 0.4569(2) 0.3923(2) 0.8915(9)
C14 C 0.4786(3) 0.3811(2) 0.8221(10)
C15 C 0.4639(3) 0.3452(3) 0.7698(10)
C16 C 0.4733(3) 0.4321(2) 0.9387(9)
H5 H 0.4456 0.2788 0.9242
H6 H 0.4359 0.2396 0.8708
H7 H 0.374(2) 0.255(2) 0.892(7)
H8 H 0.4291 0.2801 0.6822
H9 H 0.3901 0.2765 0.6665
H10 H 0.3794 0.3125 0.8783
H11 H 0.4039 0.3745 0.9600
H12 H 0.5041 0.3988 0.8035
H13 H 0.4797 0.3378 0.7263
Cu4 Cu 0.53206(2) 0.50839(4) 0.93908(10)
Cu1_2 Cu 0.86539(2) 0.17506(4) 0.60575(10)
O1_2 O 0.8402(2) 0.1819(3) 0.4506(5)
O2_2 O 0.7853(2) 0.1659(3) 0.5486(6)
O3_2 O 0.5600(1) 0.0115(2) 0.0023(6)
C1_2 C 0.8068(2) 0.1748(3) 0.4482(8)
C2_2 C 0.7913(2) 0.1762(3) 0.3122(7)
C3_2 C 0.7535(3) 0.1587(4) 0.2899(9)
C4_2 C 0.7392(3) 0.1583(4) 0.1631(10)
C5_2 C 0.7628(2) 0.1754(3) 0.0561(8)
C6_2 C 0.8005(2) 0.1941(3) 0.0803(8)
C7_2 C 0.8147(2) 0.1941(3) 0.2083(7)
H1_2 H 0.7370 0.1478 0.3649
H2_2 H 0.7129 0.1445 0.1494
H3_2 H 0.8176 0.2075 0.0094
H4_2 H 0.8410 0.2061 0.2223
Cu2_2 Cu 0.80128(2) 0.15827(4) 0.72758(10)
O5_2 O 0.8814(2) 0.1674(3) 0.7847(6)
O6_2 O 0.8818(2) 0.2267(3) 0.6644(6)
O7_2 O 0.8394(2) 0.1211(4) 0.5735(6)
N2_2 N 0.9184(2) 0.1899(3) 0.4998(6)
H14_2 H 0.922(2) 0.214(3) 0.441(7)
H15_2 H 0.915779 0.169017 0.438538
H16_2 H 0.939808 0.197073 0.565599
O4_2 O 0.5456(2) 0.0517(3) 0.9068(6)
N1_2 N 0.7483(2) 0.1434(3) 0.8335(6)
C8_2 C 0.7466(3) 0.1730(4) 0.9158(8)
C9_2 C 0.7187(2) 0.1283(4) 0.7285(8)
C10_2 C 0.6792(2) 0.1061(4) 0.7872(9)
C11_2 C 0.6695(3) 0.0741(4) 0.8586(13)
C12_2 C 0.6325(3) 0.0521(4) 0.9134(12)
C13_2 C 0.6077(2) 0.0646(3) 0.8915(9)
C14_2 C 0.6189(2) 0.0975(4) 0.8221(10)
C15_2 C 0.6548(3) 0.1187(4) 0.7698(10)
C16_2 C 0.5679(2) 0.0412(4) 0.9387(9)
H5_2 H 0.7212 0.1668 0.9242
H6_2 H 0.7604 0.1963 0.8708
H7_2 H 0.745(2) 0.119(3) 0.892(7)
H8_2 H 0.7199 0.1490 0.6822
H9_2 H 0.7235 0.1136 0.6665
H10_2 H 0.6875 0.0669 0.8783
H11_2 H 0.6255 0.0294 0.9600
H12_2 H 0.6012 0.1053 0.8035
H13_2 H 0.6622 0.1419 0.7263
Cu4_2 Cu 0.49161(4) 0.02366(4) 0.93908(10)
Cu3_2 Cu 0.50839(4) 0.97634(4) 0.06092(10)
Cu3_3 Cu 0.02366(4) 0.53206(2) 0.06092(10)
Cu1_3 Cu 0.82494(4) 0.69033(3) 0.60575(10)
O1_3 O 0.8181(3) 0.6583(2) 0.4506(5)
O2_3 O 0.8341(3) 0.6194(2) 0.5486(6)
O3_3 O 0.9885(2) 0.5485(2) 0.0023(6)
C1_3 C 0.8252(3) 0.6320(2) 0.4482(8)
C2_3 C 0.8238(3) 0.6151(2) 0.3122(7)
C3_3 C 0.8413(4) 0.5948(3) 0.2899(9)
C4_3 C 0.8417(4) 0.5809(3) 0.1631(10)
C5_3 C 0.8246(3) 0.5874(2) 0.0561(8)
C6_3 C 0.8059(3) 0.6064(2) 0.0803(8)
C7_3 C 0.8059(3) 0.6206(2) 0.2083(7)
H1_3 H 0.8522 0.5892 0.3649
H2_3 H 0.8555 0.5684 0.1494
H3_3 H 0.7925 0.6101 0.0094
H4_3 H 0.7939 0.6349 0.2223
Cu2_3 Cu 0.84173(4) 0.64300(3) 0.72758(10)
O5_3 O 0.8326(3) 0.7139(2) 0.7847(6)
O6_3 O 0.7733(3) 0.6552(2) 0.6644(6)
O7_3 O 0.8789(4) 0.7184(3) 0.5735(6)
N2_3 N 0.8101(3) 0.7284(2) 0.4998(6)
H14_3 H 0.786(3) 0.707(2) 0.441(7)
H15_3 H 0.830983 0.746762 0.438538
H16_3 H 0.802927 0.742735 0.565599
O4_3 O 0.9483(3) 0.4939(2) 0.9068(6)
N1_3 N 0.8566(3) 0.6049(2) 0.8335(6)
C8_3 C 0.8270(4) 0.5736(2) 0.9158(8)
C9_3 C 0.8717(4) 0.5904(3) 0.7285(8)
C10_3 C 0.8939(4) 0.5731(3) 0.7872(9)
C11_3 C 0.9259(4) 0.5954(3) 0.8586(13)
C12_3 C 0.9479(4) 0.5804(3) 0.9134(12)
C13_3 C 0.9354(3) 0.5431(2) 0.8915(9)
C14_3 C 0.9025(4) 0.5214(3) 0.8221(10)
C15_3 C 0.8813(4) 0.5361(3) 0.7698(10)
C16_3 C 0.9588(4) 0.5267(3) 0.9387(9)
H5_3 H 0.8332 0.5544 0.9242
H6_3 H 0.8037 0.5641 0.8708
H7_3 H 0.881(3) 0.626(2) 0.892(7)
H8_3 H 0.8510 0.5709 0.6822
H9_3 H 0.8864 0.6099 0.6665
H10_3 H 0.9331 0.6206 0.8783
H11_3 H 0.9706 0.5961 0.9600
H12_3 H 0.8947 0.4959 0.8035
H13_3 H 0.8581 0.5203 0.7263
Cu4_3 Cu 0.97634(4) 0.46794(2) 0.93908(10)
O1_4 O 0.0084(2) 0.4931(2) 0.7839(5)
O2_4 O 0.0473(2) 0.5480(2) 0.8819(6)
O3_4 O 0.1182(2) 0.7733(1) 0.3356(6)
O4_4 O 0.1728(2) 0.7877(2) 0.2401(6)
N1_4 N 0.0618(2) 0.5850(2) 0.1668(6)
C1_4 C 0.0347(2) 0.5265(2) 0.7815(8)
C2_4 C 0.0516(2) 0.5420(2) 0.6455(7)
C3_4 C 0.0719(3) 0.5798(3) 0.6232(9)
C4_4 C 0.0858(3) 0.5941(3) 0.4964(10)
C5_4 C 0.0793(2) 0.5705(2) 0.3894(8)
C6_4 C 0.0603(2) 0.5328(2) 0.4136(8)
C7_4 C 0.0461(2) 0.5186(2) 0.5416(7)
C8_4 C 0.0931(2) 0.5867(3) 0.2491(8)
C9_4 C 0.0763(3) 0.6146(2) 0.0618(8)
C10_4 C 0.0936(3) 0.6541(2) 0.1205(9)
C11_4 C 0.0713(3) 0.6638(3) 0.1919(13)
C12_4 C 0.0863(3) 0.7008(3) 0.2467(12)
C13_4 C 0.1236(2) 0.7256(2) 0.2248(9)
C14_4 C 0.1453(3) 0.7144(2) 0.1554(10)
C15_4 C 0.1306(3) 0.6785(3) 0.1031(10)
C16_4 C 0.1400(3) 0.7654(2) 0.2720(9)
H1_4 H 0.0775 0.5963 0.6982
H2_4 H 0.0983 0.6204 0.4827
H3_4 H 0.0566 0.5157 0.3427
H4_4 H 0.0318 0.4923 0.5556
H5_4 H 0.1123 0.6121 0.2575
H6_4 H 0.1026 0.5729 0.2041
H7_4 H 0.041(2) 0.588(2) 0.225(7)
H8_4 H 0.0958 0.6134 0.0155
H10_4 H 0.0461 0.6458 0.2116
H11_4 H 0.0706 0.7078 0.2933
H12_4 H 0.1708 0.7321 0.1368
H13_4 H 0.1464 0.6711 0.0596
Cu3_4 Cu 0.13461(2) 0.82494(4) 0.39425(10)
Cu4_4 Cu 0.19872(2) 0.84173(4) 0.27242(10)
O6_4 O 0.0115(2) 0.4515(2) 0.9977(6)
O5_4 O 0.9527(2) 0.4520(2) 0.1181(6)
N2_4 N 0.9382(2) 0.4150(2) 0.8332(6)
H14_4 H 0.959(2) 0.412(2) 0.775(7)
H15_4 H 0.919905 0.417555 0.771872
H16_4 H 0.923932 0.393525 0.898932
O5_5 O 0.5480(2) 0.5008(3) 0.1181(6)
O1_5 O 0.5069(2) 0.5152(3) 0.7839(5)
O2_5 O 0.4520(2) 0.4992(3) 0.8819(6)
O3_5 O 0.2267(1) 0.3448(2) 0.3356(6)
O4_5 O 0.2123(2) 0.3850(3) 0.2401(6)
N1_5 N 0.4150(2) 0.4767(3) 0.1668(6)
C1_5 C 0.4735(2) 0.5081(3) 0.7815(8)
C2_5 C 0.4580(2) 0.5095(3) 0.6455(7)
C3_5 C 0.4202(3) 0.4920(4) 0.6232(9)
C4_5 C 0.4059(3) 0.4916(4) 0.4964(10)
C5_5 C 0.4295(2) 0.5087(3) 0.3894(8)
C6_5 C 0.4672(2) 0.5274(3) 0.4136(8)
C7_5 C 0.4814(2) 0.5274(3) 0.5416(7)
C8_5 C 0.4133(3) 0.5063(4) 0.2491(8)
C9_5 C 0.3854(2) 0.4616(4) 0.0618(8)
C10_5 C 0.3459(2) 0.4394(4) 0.1205(9)
C11_5 C 0.3362(3) 0.4074(4) 0.1919(13)
C12_5 C 0.2992(3) 0.3854(4) 0.2467(12)
C13_5 C 0.2744(2) 0.3979(3) 0.2248(9)
C14_5 C 0.2856(2) 0.4308(4) 0.1554(10)
C15_5 C 0.3215(3) 0.4520(4) 0.1031(10)
C16_5 C 0.2346(2) 0.3745(4) 0.2720(9)
H1_5 H 0.4037 0.4811 0.6982
H2_5 H 0.3796 0.4778 0.4827
H3_5 H 0.4843 0.5408 0.3427
H4_5 H 0.5077 0.5394 0.5556
H5_5 H 0.3879 0.5001 0.2575
H6_5 H 0.4271 0.5296 0.2041
H7_5 H 0.412(2) 0.452(3) 0.225(7)
H8_5 H 0.3866 0.4823 0.0155
H10_5 H 0.3542 0.4002 0.2116
H11_5 H 0.2922 0.3627 0.2933
H12_5 H 0.2679 0.4386 0.1368
H13_5 H 0.3289 0.4752 0.0596
Cu3_5 Cu 0.17506(4) 0.30967(4) 0.39425(10)
Cu4_5 Cu 0.15827(4) 0.35700(4) 0.27242(10)
O6_5 O 0.5485(2) 0.5600(3) 0.9977(6)
N2_5 N 0.5850(2) 0.5233(3) 0.8332(6)
H14_5 H 0.588(2) 0.548(3) 0.775(7)
H15_5 H 0.582445 0.50235 0.771872
H16_5 H 0.606475 0.530407 0.898932
O5_6 O 0.4992(3) 0.0473(2) 0.1181(6)
N2_6 N 0.4767(3) 0.0618(2) 0.8332(6)
H14_6 H 0.452(3) 0.041(2) 0.775(7)
H15_6 H 0.49765 0.0800949 0.771872
H16_6 H 0.469593 0.0760681 0.898932
O1_6 O 0.4848(3) 0.9916(2) 0.7839(5)
O2_6 O 0.5008(3) 0.9527(2) 0.8819(6)
O3_6 O 0.6552(2) 0.8818(2) 0.3356(6)
O4_6 O 0.6150(3) 0.8272(2) 0.2401(6)
N1_6 N 0.5233(3) 0.9382(2) 0.1668(6)
C1_6 C 0.4919(3) 0.9653(2) 0.7815(8)
C2_6 C 0.4905(3) 0.9484(2) 0.6455(7)
C3_6 C 0.5080(4) 0.9281(3) 0.6232(9)
C4_6 C 0.5084(4) 0.9142(3) 0.4964(10)
C5_6 C 0.4913(3) 0.9207(2) 0.3894(8)
C6_6 C 0.4726(3) 0.9397(2) 0.4136(8)
C7_6 C 0.4726(3) 0.9539(2) 0.5416(7)
C8_6 C 0.4937(4) 0.9069(2) 0.2491(8)
C9_6 C 0.5384(4) 0.9237(3) 0.0618(8)
C10_6 C 0.5606(4) 0.9064(3) 0.1205(9)
C11_6 C 0.5926(4) 0.9287(3) 0.1919(13)
C12_6 C 0.6146(4) 0.9137(3) 0.2467(12)
C13_6 C 0.6021(3) 0.8764(2) 0.2248(9)
C14_6 C 0.5692(4) 0.8547(3) 0.1554(10)
C15_6 C 0.5480(4) 0.8694(3) 0.1031(10)
C16_6 C 0.6255(4) 0.8600(3) 0.2720(9)
H1_6 H 0.5189 0.9225 0.6982
H2_6 H 0.5222 0.9017 0.4827
H3_6 H 0.4592 0.9434 0.3427
H4_6 H 0.4606 0.9682 0.5556
H5_6 H 0.4999 0.8877 0.2575
H6_6 H 0.4704 0.8974 0.2041
H7_6 H 0.548(3) 0.959(2) 0.225(7)
H8_6 H 0.5177 0.9042 0.0155
H10_6 H 0.5998 0.9539 0.2116
H11_6 H 0.6373 0.9294 0.2933
H12_6 H 0.5614 0.8292 0.1368
H13_6 H 0.5248 0.8536 0.0596
Cu3_6 Cu 0.69033(4) 0.86539(2) 0.39425(10)
Cu4_6 Cu 0.64300(4) 0.80128(2) 0.27242(10)
O6_6 O 0.4400(3) 0.9885(2) 0.9977(6)
O3_7 O 0.7848(2) 0.1067(1) 0.6690(6)
C12_7 C 0.7529(3) 0.0342(3) 0.5801(12)
C13_7 C 0.7902(2) 0.0590(2) 0.5582(9)
C14_7 C 0.8119(3) 0.0478(2) 0.4888(10)
C15_7 C 0.7972(3) 0.0119(3) 0.4365(10)
C16_7 C 0.8066(3) 0.0988(2) 0.6054(9)
H11_7 H 0.7372 0.0412 0.6267
H12_7 H 0.8374 0.0655 0.4702
H13_7 H 0.8130 0.0045 0.3930
O1_7 O 0.6750(2) 0.8265(2) 0.1173(5)
O2_7 O 0.7139(2) 0.8814(2) 0.2153(6)
C1_7 C 0.7013(2) 0.8599(2) 0.1149(8)
H1_7 H 0.7441 0.9297 0.0316
O5_7 O 0.6194(2) 0.7853(2) 0.4514(6)
O6_7 O 0.6782(2) 0.7848(2) 0.3310(6)
N2_7 N 0.6049(2) 0.7483(2) 0.1665(6)
H14_7 H 0.626(2) 0.745(2) 0.108(7)
H15_7 H 0.586572 0.750888 0.105205
H16_7 H 0.590599 0.726859 0.232266
N1_7 N 0.7284(2) 0.9184(2) 0.5002(6)
C2_7 C 0.7182(2) 0.8754(2) 0.9789(7)
C3_7 C 0.7385(3) 0.9132(3) 0.9566(9)
C4_7 C 0.7524(3) 0.9275(3) 0.8298(10)
C5_7 C 0.7459(2) 0.9039(2) 0.7228(8)
C6_7 C 0.7269(2) 0.8662(2) 0.7470(8)
C7_7 C 0.7127(2) 0.8520(2) 0.8750(7)
C8_7 C 0.7597(2) 0.9201(3) 0.5825(8)
C9_7 C 0.7429(3) 0.9480(2) 0.3952(8)
C10_7 C 0.7602(3) 0.9875(2) 0.4539(9)
C11_7 C 0.7379(3) 0.9972(3) 0.5253(13)
H2_7 H 0.7649 0.9538 0.8161
H3_7 H 0.7232 0.8491 0.6761
H4_7 H 0.6984 0.8257 0.8890
H5_7 H 0.7789 0.9455 0.5909
H6_7 H 0.7692 0.9063 0.5375
H7_7 H 0.707(2) 0.922(2) 0.559(7)
H8_7 H 0.7624 0.9468 0.3489
H9_4 H 0.7234 0.9432 0.3332
H10_7 H 0.7127 0.9792 0.5450
O1_8 O 0.1735(2) 0.8486(3) 0.1173(5)
O2_8 O 0.1186(2) 0.8326(3) 0.2153(6)
C1_8 C 0.1401(2) 0.8415(3) 0.1149(8)
H1_8 H 0.0703 0.8145 0.0316
O5_8 O 0.2147(2) 0.8341(3) 0.4514(6)
O6_8 O 0.2152(2) 0.8933(3) 0.3310(6)
N2_8 N 0.2517(2) 0.8566(3) 0.1665(6)
H14_8 H 0.255(2) 0.881(3) 0.108(7)
H15_8 H 0.249112 0.835684 0.105205
H16_8 H 0.273141 0.86374 0.232266
N1_8 N 0.0816(2) 0.8101(3) 0.5002(6)
C2_8 C 0.1246(2) 0.8429(3) 0.9789(7)
C3_8 C 0.0868(3) 0.8254(4) 0.9566(9)
C4_8 C 0.0725(3) 0.8250(4) 0.8298(10)
C5_8 C 0.0961(2) 0.8421(3) 0.7228(8)
C6_8 C 0.1338(2) 0.8608(3) 0.7470(8)
C7_8 C 0.1480(2) 0.8608(3) 0.8750(7)
C8_8 C 0.0799(3) 0.8397(4) 0.5825(8)
C9_8 C 0.0520(2) 0.7950(4) 0.3952(8)
C10_8 C 0.0125(2) 0.7728(4) 0.4539(9)
C11_8 C 0.0028(3) 0.7408(4) 0.5253(13)
H2_8 H 0.0462 0.8112 0.8161
H3_8 H 0.1509 0.8742 0.6761
H4_8 H 0.1743 0.8728 0.8890
H5_8 H 0.0545 0.8335 0.5909
H6_8 H 0.0937 0.8630 0.5375
H7_8 H 0.078(2) 0.786(3) 0.559(7)
H8_8 H 0.0532 0.8157 0.3489
H9_5 H 0.0568 0.7803 0.3332
H10_8 H 0.0208 0.7336 0.5450
O3_8 O 0.8933(1) 0.6782(2) 0.6690(6)
C12_8 C 0.9658(3) 0.7188(4) 0.5801(12)
C13_8 C 0.9410(2) 0.7313(3) 0.5582(9)
C14_8 C 0.9522(2) 0.7642(4) 0.4888(10)
C15_8 C 0.9881(3) 0.7854(4) 0.4365(10)
C16_8 C 0.9012(2) 0.7079(4) 0.6054(9)
H11_8 H 0.9588 0.6961 0.6267
H12_8 H 0.9345 0.7720 0.4702
H13_8 H 0.9955 0.8086 0.3930
O1_9 O 0.1514(3) 0.3250(2) 0.1173(5)
O2_9 O 0.1674(3) 0.2861(2) 0.2153(6)
C1_9 C 0.1585(3) 0.2987(2) 0.1149(8)
H1_9 H 0.1855 0.2559 0.0316
O5_9 O 0.1659(3) 0.3806(2) 0.4514(6)
O6_9 O 0.1067(3) 0.3218(2) 0.3310(6)
N2_9 N 0.1434(3) 0.3951(2) 0.1665(6)
H14_9 H 0.119(3) 0.374(2) 0.108(7)
H15_9 H 0.164316 0.413428 0.105205
H16_9 H 0.13626 0.409401 0.232266
O3_9 O 0.3218(2) 0.2152(2) 0.6690(6)
N1_9 N 0.1899(3) 0.2716(2) 0.5002(6)
C2_9 C 0.1571(3) 0.2818(2) 0.9789(7)
C3_9 C 0.1746(4) 0.2615(3) 0.9566(9)
C4_9 C 0.1750(4) 0.2476(3) 0.8298(10)
C5_9 C 0.1579(3) 0.2541(2) 0.7228(8)
C6_9 C 0.1392(3) 0.2731(2) 0.7470(8)
C7_9 C 0.1392(3) 0.2873(2) 0.8750(7)
C8_9 C 0.1603(4) 0.2403(2) 0.5825(8)
C9_9 C 0.2050(4) 0.2571(3) 0.3952(8)
C10_9 C 0.2272(4) 0.2398(3) 0.4539(9)
C11_9 C 0.2592(4) 0.2621(3) 0.5253(13)
C12_9 C 0.2812(4) 0.2471(3) 0.5801(12)
C13_9 C 0.2687(3) 0.2098(2) 0.5582(9)
C14_9 C 0.2358(4) 0.1881(3) 0.4888(10)
C15_9 C 0.2146(4) 0.2028(3) 0.4365(10)
C16_9 C 0.2921(4) 0.1934(3) 0.6054(9)
H2_9 H 0.1888 0.2351 0.8161
H3_9 H 0.1258 0.2768 0.6761
H4_9 H 0.1272 0.3016 0.8890
H5_9 H 0.1665 0.2211 0.5909
H6_9 H 0.1370 0.2308 0.5375
H7_9 H 0.214(3) 0.293(2) 0.559(7)
H8_9 H 0.1843 0.2376 0.3489
H9_6 H 0.2197 0.2766 0.3332
H10_9 H 0.2664 0.2873 0.5450
H11_9 H 0.3039 0.2628 0.6267
H12_9 H 0.2280 0.1626 0.4702
H13_9 H 0.1914 0.1870 0.3930
O4_7 O 0.4939(2) 0.5456(2) 0.0932(6)
C8_10 C 0.5736(2) 0.7466(3) 0.0842(8)
C9_10 C 0.5904(3) 0.7187(2) 0.2715(8)
C10_10 C 0.5731(3) 0.6792(2) 0.2128(9)
C11_10 C 0.5954(3) 0.6695(3) 0.1414(13)
C12_10 C 0.5804(3) 0.6325(3) 0.0866(12)
C13_10 C 0.5431(2) 0.6077(2) 0.1085(9)
C14_10 C 0.5214(3) 0.6189(2) 0.1779(10)
C15_10 C 0.5361(3) 0.6548(3) 0.2302(10)
C16_10 C 0.5267(3) 0.5679(2) 0.0613(9)
H5_10 H 0.5544 0.7212 0.0758
H6_10 H 0.5641 0.7604 0.1292
H8_10 H 0.5709 0.7199 0.3178
H9_7 H 0.6099 0.7235 0.3335
H10_10 H 0.6206 0.6875 0.1217
H11_10 H 0.5961 0.6255 0.0400
H12_10 H 0.4959 0.6012 0.1965
H13_10 H 0.5203 0.6622 0.2737
O1_10 O 0.6583(2) 0.8402(2) 0.5494(5)
C1_10 C 0.6320(2) 0.8068(2) 0.5518(8)
C2_10 C 0.6151(2) 0.7913(2) 0.6878(7)
C3_10 C 0.5948(3) 0.7535(3) 0.7101(9)
C4_10 C 0.5809(3) 0.7392(3) 0.8369(10)
C5_10 C 0.5874(2) 0.7628(2) 0.9439(8)
C6_10 C 0.6064(2) 0.8005(2) 0.9197(8)
C7_10 C 0.6206(2) 0.8147(2) 0.7917(7)
H1_10 H 0.5892 0.7370 0.6351
H2_10 H 0.5684 0.7129 0.8506
H3_10 H 0.6101 0.8176 0.9906
H4_10 H 0.6349 0.8410 0.7777
O7_4 O 0.7184(3) 0.8394(2) 0.4265(6)
H15_10 H 0.746762 0.915779 0.561462
H16_10 H 0.742735 0.939808 0.434401
O4_8 O 0.4544(2) 0.9483(3) 0.0932(6)
C8_11 C 0.2534(3) 0.8270(4) 0.0842(8)
C9_11 C 0.2813(2) 0.8717(4) 0.2715(8)
C10_11 C 0.3208(2) 0.8939(4) 0.2128(9)
C11_11 C 0.3305(3) 0.9259(4) 0.1414(13)
C12_11 C 0.3675(3) 0.9479(4) 0.0866(12)
C13_11 C 0.3923(2) 0.9354(3) 0.1085(9)
C14_11 C 0.3811(2) 0.9025(4) 0.1779(10)
C15_11 C 0.3452(3) 0.8813(4) 0.2302(10)
C16_11 C 0.4321(2) 0.9588(4) 0.0613(9)
H5_11 H 0.2788 0.8332 0.0758
H6_11 H 0.2396 0.8037 0.1292
H8_11 H 0.2801 0.8510 0.3178
H9_8 H 0.2765 0.8864 0.3335
H10_11 H 0.3125 0.9331 0.1217
H11_11 H 0.3745 0.9706 0.0400
H12_11 H 0.3988 0.8947 0.1965
H13_11 H 0.3378 0.8581 0.2737
O1_11 O 0.1598(2) 0.8181(3) 0.5494(5)
C1_11 C 0.1932(2) 0.8252(3) 0.5518(8)
C2_11 C 0.2087(2) 0.8238(3) 0.6878(7)
C3_11 C 0.2465(3) 0.8413(4) 0.7101(9)
C4_11 C 0.2608(3) 0.8417(4) 0.8369(10)
C5_11 C 0.2372(2) 0.8246(3) 0.9439(8)
C6_11 C 0.1995(2) 0.8059(3) 0.9197(8)
C7_11 C 0.1853(2) 0.8059(3) 0.7917(7)
H1_11 H 0.2630 0.8522 0.6351
H2_11 H 0.2871 0.8555 0.8506
H3_11 H 0.1824 0.7925 0.9906
H4_11 H 0.1590 0.7939 0.7777
O7_5 O 0.1606(2) 0.8789(4) 0.4265(6)
H15_11 H 0.0842213 0.830983 0.561462
H16_11 H 0.060192 0.802927 0.434401
O4_9 O 0.0517(3) 0.5061(2) 0.0932(6)
C8_12 C 0.1730(4) 0.4264(2) 0.0842(8)
C9_12 C 0.1283(4) 0.4096(3) 0.2715(8)
C10_12 C 0.1061(4) 0.4269(3) 0.2128(9)
C11_12 C 0.0741(4) 0.4046(3) 0.1414(13)
C12_12 C 0.0521(4) 0.4196(3) 0.0866(12)
C13_12 C 0.0646(3) 0.4569(2) 0.1085(9)
C14_12 C 0.0975(4) 0.4786(3) 0.1779(10)
C15_12 C 0.1187(4) 0.4639(3) 0.2302(10)
C16_12 C 0.0412(4) 0.4733(3) 0.0613(9)
H5_12 H 0.1668 0.4456 0.0758
H6_12 H 0.1963 0.4359 0.1292
H8_12 H 0.1490 0.4291 0.3178
H9_9 H 0.1136 0.3901 0.3335
H10_12 H 0.0669 0.3794 0.1217
H11_12 H 0.0294 0.4039 0.0400
H12_12 H 0.1053 0.5041 0.1965
H13_12 H 0.1419 0.4797 0.2737
O1_12 O 0.1819(3) 0.3417(2) 0.5494(5)
C1_12 C 0.1748(3) 0.3680(2) 0.5518(8)
C2_12 C 0.1762(3) 0.3849(2) 0.6878(7)
C3_12 C 0.1587(4) 0.4052(3) 0.7101(9)
C4_12 C 0.1583(4) 0.4191(3) 0.8369(10)
C5_12 C 0.1754(3) 0.4126(2) 0.9439(8)
C6_12 C 0.1941(3) 0.3936(2) 0.9197(8)
C7_12 C 0.1941(3) 0.3794(2) 0.7917(7)
H1_12 H 0.1478 0.4108 0.6351
H2_12 H 0.1445 0.4316 0.8506
H3_12 H 0.2075 0.3899 0.9906
H4_12 H 0.2061 0.3651 0.7777
O7_6 O 0.1211(4) 0.2816(3) 0.4265(6)
H15_12 H 0.169017 0.253238 0.561462
H16_12 H 0.197073 0.257265 0.434401
H15_13 H 0.0800949 0.582445 0.228128
H16_13 H 0.0760681 0.606475 0.101068
O1_13 O 0.9916(2) 0.5069(2) 0.2161(5)
O4_10 O 0.8272(2) 0.2123(2) 0.7599(6)
C1_13 C 0.9653(2) 0.4735(2) 0.2185(8)
C2_13 C 0.9484(2) 0.4580(2) 0.3545(7)
C3_13 C 0.9281(3) 0.4202(3) 0.3768(9)
C4_13 C 0.9142(3) 0.4059(3) 0.5036(10)
C5_13 C 0.9207(2) 0.4295(2) 0.6106(8)
C6_13 C 0.9397(2) 0.4672(2) 0.5864(8)
C7_13 C 0.9539(2) 0.4814(2) 0.4584(7)
C8_13 C 0.9069(2) 0.4133(3) 0.7509(8)
C9_13 C 0.9237(3) 0.3854(2) 0.9382(8)
C10_13 C 0.9064(3) 0.3459(2) 0.8795(9)
C11_13 C 0.9287(3) 0.3362(3) 0.8081(13)
C12_13 C 0.9137(3) 0.2992(3) 0.7533(12)
C13_13 C 0.8764(2) 0.2744(2) 0.7752(9)
C14_13 C 0.8547(3) 0.2856(2) 0.8446(10)
C15_13 C 0.8694(3) 0.3215(3) 0.8969(10)
C16_13 C 0.8600(3) 0.2346(2) 0.7280(9)
H1_13 H 0.9225 0.4037 0.3018
H2_13 H 0.9017 0.3796 0.5173
H3_13 H 0.9434 0.4843 0.6573
H4_13 H 0.9682 0.5077 0.4444
H5_13 H 0.8877 0.3879 0.7425
H6_13 H 0.8974 0.4271 0.7959
H8_13 H 0.9042 0.3866 0.9845
H10_13 H 0.9539 0.3542 0.7884
H11_13 H 0.9294 0.2922 0.7067
H12_13 H 0.8292 0.2679 0.8632
H13_13 H 0.8536 0.3289 0.9404
O1_14 O 0.4931(2) 0.4848(3) 0.2161(5)
O4_11 O 0.7877(2) 0.6150(3) 0.7599(6)
C1_14 C 0.5265(2) 0.4919(3) 0.2185(8)
C2_14 C 0.5420(2) 0.4905(3) 0.3545(7)
C3_14 C 0.5798(3) 0.5080(4) 0.3768(9)
C4_14 C 0.5941(3) 0.5084(4) 0.5036(10)
C5_14 C 0.5705(2) 0.4913(3) 0.6106(8)
C6_14 C 0.5328(2) 0.4726(3) 0.5864(8)
C7_14 C 0.5186(2) 0.4726(3) 0.4584(7)
C8_14 C 0.5867(3) 0.4937(4) 0.7509(8)
C9_14 C 0.6146(2) 0.5384(4) 0.9382(8)
C10_14 C 0.6541(2) 0.5606(4) 0.8795(9)
C11_14 C 0.6638(3) 0.5926(4) 0.8081(13)
C12_14 C 0.7008(3) 0.6146(4) 0.7533(12)
C13_14 C 0.7256(2) 0.6021(3) 0.7752(9)
C14_14 C 0.7144(2) 0.5692(4) 0.8446(10)
C15_14 C 0.6785(3) 0.5480(4) 0.8969(10)
C16_14 C 0.7654(2) 0.6255(4) 0.7280(9)
H1_14 H 0.5963 0.5189 0.3018
H2_14 H 0.6204 0.5222 0.5173
H3_14 H 0.5157 0.4592 0.6573
H4_14 H 0.4923 0.4606 0.4444
H5_14 H 0.6121 0.4999 0.7425
H6_14 H 0.5729 0.4704 0.7959
H8_14 H 0.6134 0.5177 0.9845
H10_14 H 0.6458 0.5998 0.7884
H11_14 H 0.7078 0.6373 0.7067
H12_14 H 0.7321 0.5614 0.8632
H13_14 H 0.6711 0.5248 0.9404
H15_14 H 0.417555 0.49765 0.228128
H16_14 H 0.393525 0.469593 0.101068
O1_15 O 0.5152(3) 0.0084(2) 0.2161(5)
O4_12 O 0.3850(3) 0.1728(2) 0.7599(6)
C1_15 C 0.5081(3) 0.0347(2) 0.2185(8)
C2_15 C 0.5095(3) 0.0516(2) 0.3545(7)
C3_15 C 0.4920(4) 0.0719(3) 0.3768(9)
C4_15 C 0.4916(4) 0.0858(3) 0.5036(10)
C5_15 C 0.5087(3) 0.0793(2) 0.6106(8)
C6_15 C 0.5274(3) 0.0603(2) 0.5864(8)
C7_15 C 0.5274(3) 0.0461(2) 0.4584(7)
C8_15 C 0.5063(4) 0.0931(2) 0.7509(8)
C9_15 C 0.4616(4) 0.0763(3) 0.9382(8)
C10_15 C 0.4394(4) 0.0936(3) 0.8795(9)
C11_15 C 0.4074(4) 0.0713(3) 0.8081(13)
C12_15 C 0.3854(4) 0.0863(3) 0.7533(12)
C13_15 C 0.3979(3) 0.1236(2) 0.7752(9)
C14_15 C 0.4308(4) 0.1453(3) 0.8446(10)
C15_15 C 0.4520(4) 0.1306(3) 0.8969(10)
C16_15 C 0.3745(4) 0.1400(3) 0.7280(9)
H1_15 H 0.4811 0.0775 0.3018
H2_15 H 0.4778 0.0983 0.5173
H3_15 H 0.5408 0.0566 0.6573
H4_15 H 0.5394 0.0318 0.4444
H5_15 H 0.5001 0.1123 0.7425
H6_15 H 0.5296 0.1026 0.7959
H8_15 H 0.4823 0.0958 0.9845
H10_15 H 0.4002 0.0461 0.7884
H11_15 H 0.3627 0.0706 0.7067
H12_15 H 0.4386 0.1708 0.8632
H13_15 H 0.4752 0.1464 0.9404
H15_15 H 0.50235 0.919905 0.228128
H16_15 H 0.530407 0.923932 0.101068
C2_16 C 0.2818(2) 0.1246(2) 0.0211(7)
C3_16 C 0.2615(3) 0.0868(3) 0.0434(9)
C4_16 C 0.2476(3) 0.0725(3) 0.1702(10)
C5_16 C 0.2541(2) 0.0961(2) 0.2772(8)
C6_16 C 0.2731(2) 0.1338(2) 0.2530(8)
C7_16 C 0.2873(2) 0.1480(2) 0.1250(7)
C8_16 C 0.2403(2) 0.0799(3) 0.4175(8)
C9_16 C 0.2571(3) 0.0520(2) 0.6048(8)
C10_16 C 0.2398(3) 0.0125(2) 0.5461(9)
C11_16 C 0.2621(3) 0.0028(3) 0.4747(13)
H2_16 H 0.2351 0.0462 0.1839
H3_16 H 0.2768 0.1509 0.3239
H4_16 H 0.3016 0.1743 0.1110
H5_16 H 0.2211 0.0545 0.4091
H6_16 H 0.2308 0.0937 0.4625
H8_16 H 0.2376 0.0532 0.6511
H9_10 H 0.2766 0.0568 0.6668
H10_16 H 0.2873 0.0208 0.4550
O1_16 O 0.3250(2) 0.1735(2) 0.8827(5)
C1_16 C 0.2987(2) 0.1401(2) 0.8851(8)
H1_16 H 0.2559 0.0703 0.9684
H15_16 H 0.413428 0.249112 0.894795
H16_16 H 0.409401 0.273141 0.767734
C12_16 C 0.2471(3) 0.9658(3) 0.4199(12)
C13_16 C 0.2098(2) 0.9410(2) 0.4418(9)
C14_16 C 0.1881(3) 0.9522(2) 0.5112(10)
C15_16 C 0.2028(3) 0.9881(3) 0.5635(10)
C16_16 C 0.1934(3) 0.9012(2) 0.3946(9)
H11_16 H 0.2628 0.9588 0.3733
H12_16 H 0.1626 0.9345 0.5298
H13_16 H 0.1870 0.9955 0.6070
C12_17 C 0.0342(3) 0.2812(4) 0.4199(12)
C13_17 C 0.0590(2) 0.2687(3) 0.4418(9)
C14_17 C 0.0478(2) 0.2358(4) 0.5112(10)
C15_17 C 0.0119(3) 0.2146(4) 0.5635(10)
C16_17 C 0.0988(2) 0.2921(4) 0.3946(9)
H11_17 H 0.0412 0.3039 0.3733
H12_17 H 0.0655 0.2280 0.5298
H13_17 H 0.0045 0.1914 0.6070
C2_17 C 0.8754(2) 0.1571(3) 0.0211(7)
C3_17 C 0.9132(3) 0.1746(4) 0.0434(9)
C4_17 C 0.9275(3) 0.1750(4) 0.1702(10)
C5_17 C 0.9039(2) 0.1579(3) 0.2772(8)
C6_17 C 0.8662(2) 0.1392(3) 0.2530(8)
C7_17 C 0.8520(2) 0.1392(3) 0.1250(7)
C8_17 C 0.9201(3) 0.1603(4) 0.4175(8)
C9_17 C 0.9480(2) 0.2050(4) 0.6048(8)
C10_17 C 0.9875(2) 0.2272(4) 0.5461(9)
C11_17 C 0.9972(3) 0.2592(4) 0.4747(13)
H2_17 H 0.9538 0.1888 0.1839
H3_17 H 0.8491 0.1258 0.3239
H4_17 H 0.8257 0.1272 0.1110
H5_17 H 0.9455 0.1665 0.4091
H6_17 H 0.9063 0.1370 0.4625
H8_17 H 0.9468 0.1843 0.6511
H9_11 H 0.9432 0.2197 0.6668
H10_17 H 0.9792 0.2664 0.4550
O1_17 O 0.8265(2) 0.1514(3) 0.8827(5)
C1_17 C 0.8599(2) 0.1585(3) 0.8851(8)
H1_17 H 0.9297 0.1855 0.9684
H15_17 H 0.750888 0.164316 0.894795
H16_17 H 0.726859 0.13626 0.767734
C2_18 C 0.8429(3) 0.7182(2) 0.0211(7)
C3_18 C 0.8254(4) 0.7385(3) 0.0434(9)
C4_18 C 0.8250(4) 0.7524(3) 0.1702(10)
C5_18 C 0.8421(3) 0.7459(2) 0.2772(8)
C6_18 C 0.8608(3) 0.7269(2) 0.2530(8)
C7_18 C 0.8608(3) 0.7127(2) 0.1250(7)
C8_18 C 0.8397(4) 0.7597(2) 0.4175(8)
C9_18 C 0.7950(4) 0.7429(3) 0.6048(8)
C10_18 C 0.7728(4) 0.7602(3) 0.5461(9)
C11_18 C 0.7408(4) 0.7379(3) 0.4747(13)
C12_18 C 0.7188(4) 0.7529(3) 0.4199(12)
C13_18 C 0.7313(3) 0.7902(2) 0.4418(9)
C14_18 C 0.7642(4) 0.8119(3) 0.5112(10)
C15_18 C 0.7854(4) 0.7972(3) 0.5635(10)
C16_18 C 0.7079(4) 0.8066(3) 0.3946(9)
H2_18 H 0.8112 0.7649 0.1839
H3_18 H 0.8742 0.7232 0.3239
H4_18 H 0.8728 0.6984 0.1110
H5_18 H 0.8335 0.7789 0.4091
H6_18 H 0.8630 0.7692 0.4625
H8_18 H 0.8157 0.7624 0.6511
H9_12 H 0.7803 0.7234 0.6668
H10_18 H 0.7336 0.7127 0.4550
H11_18 H 0.6961 0.7372 0.3733
H12_18 H 0.7720 0.8374 0.5298
H13_18 H 0.8086 0.8130 0.6070
O1_18 O 0.8486(3) 0.6750(2) 0.8827(5)
C1_18 C 0.8415(3) 0.7013(2) 0.8851(8)
H1_18 H 0.8145 0.7441 0.9684
H15_18 H 0.835684 0.586572 0.894795
H16_18 H 0.86374 0.590599 0.767734
H9_13 H 0.0568 0.6098 0.9998
H9_14 H 0.3902 0.4469 0.9998
H9_15 H 0.5531 0.9432 0.9998
H9_16 H 0.9432 0.3902 0.0002
H9_17 H 0.6098 0.5531 0.0002
H9_18 H 0.4469 0.0568 0.0002
loop_
_geom_bond_atom_site_label_1
_geom_bond_atom_site_label_2
_geom_bond_site_symmetry_1
_geom_bond_site_symmetry_2
Cu1 O1 1_555 1_555
O1 C1 1_555 1_555
O2 C1 1_555 1_555
C1 C2 1_555 1_555
C2 C3 1_555 1_555
C3 C4 1_555 1_555
C4 C5 1_555 1_555
C5 C6 1_555 1_555
C6 C7 1_555 1_555
C7 C2 1_555 1_555
H1 C3 1_555 1_555
H2 C4 1_555 1_555
H3 C6 1_555 1_555
H4 C7 1_555 1_555
Cu2 Cu1 1_555 1_555
Cu3 O3 1_555 1_555
O5 Cu1 1_555 1_555
O6 Cu1 1_555 1_555
O7 Cu1 1_555 1_555
N2 Cu1 1_555 1_555
H14 N2 1_555 1_555
O2 Cu2 1_555 1_555
N2 H15 1_555 1_555
N2 H16 1_555 1_555
O4 C16 1_555 1_555
N1 C8 1_555 1_555
C9 N1 1_555 1_555
C10 C9 1_555 1_555
C11 C10 1_555 1_555
C12 C11 1_555 1_555
C13 C12 1_555 1_555
C14 C13 1_555 1_555
C15 C10 1_555 1_555
C16 C13 1_555 1_555
H5 C8 1_555 1_555
H6 C8 1_555 1_555
H7 N1 1_555 1_555
H8 C9 1_555 1_555
H9 C9 1_555 1_555
H10 C11 1_555 1_555
H11 C12 1_555 1_555
H12 C14 1_555 1_555
H13 C15 1_555 1_555
Cu4 O4 1_555 1_555
Cu2 N1 1_555 1_555
C14 C15 1_555 1_555
Cu1_2 O1_2 1_555 1_555
O1_2 C1_2 1_555 1_555
O2_2 C1_2 1_555 1_555
C1_2 C2_2 1_555 1_555
C2_2 C3_2 1_555 1_555
C3_2 C4_2 1_555 1_555
C4_2 C5_2 1_555 1_555
C5_2 C6_2 1_555 1_555
C6_2 C7_2 1_555 1_555
C7_2 C2_2 1_555 1_555
H1_2 C3_2 1_555 1_555
H2_2 C4_2 1_555 1_555
H3_2 C6_2 1_555 1_555
H4_2 C7_2 1_555 1_555
Cu2_2 Cu1_2 1_555 1_555
O5_2 Cu1_2 1_555 1_555
O6_2 Cu1_2 1_555 1_555
O7_2 Cu1_2 1_555 1_555
N2_2 Cu1_2 1_555 1_555
H14_2 N2_2 1_555 1_555
O2_2 Cu2_2 1_555 1_555
N2_2 H15_2 1_555 1_555
N2_2 H16_2 1_555 1_555
O4_2 C16_2 1_555 1_555
N1_2 C8_2 1_555 1_555
C9_2 N1_2 1_555 1_555
C10_2 C9_2 1_555 1_555
C11_2 C10_2 1_555 1_555
C12_2 C11_2 1_555 1_555
C13_2 C12_2 1_555 1_555
C14_2 C13_2 1_555 1_555
C15_2 C10_2 1_555 1_555
C16_2 C13_2 1_555 1_555
H5_2 C8_2 1_555 1_555
H6_2 C8_2 1_555 1_555
H7_2 N1_2 1_555 1_555
H8_2 C9_2 1_555 1_555
H9_2 C9_2 1_555 1_555
H10_2 C11_2 1_555 1_555
H11_2 C12_2 1_555 1_555
H12_2 C14_2 1_555 1_555
H13_2 C15_2 1_555 1_555
Cu4_2 O4_2 1_555 1_555
Cu2_2 N1_2 1_555 1_555
C14_2 C15_2 1_555 1_555
Cu1_3 O1_3 1_555 1_555
O1_3 C1_3 1_555 1_555
O2_3 C1_3 1_555 1_555
C1_3 C2_3 1_555 1_555
C2_3 C3_3 1_555 1_555
C3_3 C4_3 1_555 1_555
C4_3 C5_3 1_555 1_555
C5_3 C6_3 1_555 1_555
C6_3 C7_3 1_555 1_555
C7_3 C2_3 1_555 1_555
H1_3 C3_3 1_555 1_555
H2_3 C4_3 1_555 1_555
H3_3 C6_3 1_555 1_555
H4_3 C7_3 1_555 1_555
Cu2_3 Cu1_3 1_555 1_555
O5_3 Cu1_3 1_555 1_555
O6_3 Cu1_3 1_555 1_555
O7_3 Cu1_3 1_555 1_555
N2_3 Cu1_3 1_555 1_555
H14_3 N2_3 1_555 1_555
O2_3 Cu2_3 1_555 1_555
N2_3 H15_3 1_555 1_555
N2_3 H16_3 1_555 1_555
O4_3 C16_3 1_555 1_555
N1_3 C8_3 1_555 1_555
C9_3 N1_3 1_555 1_555
C10_3 C9_3 1_555 1_555
C11_3 C10_3 1_555 1_555
C12_3 C11_3 1_555 1_555
C13_3 C12_3 1_555 1_555
C14_3 C13_3 1_555 1_555
C15_3 C10_3 1_555 1_555
C16_3 C13_3 1_555 1_555
H5_3 C8_3 1_555 1_555
H6_3 C8_3 1_555 1_555
H7_3 N1_3 1_555 1_555
H8_3 C9_3 1_555 1_555
H9_3 C9_3 1_555 1_555
H10_3 C11_3 1_555 1_555
H11_3 C12_3 1_555 1_555
H12_3 C14_3 1_555 1_555
H13_3 C15_3 1_555 1_555
Cu4_3 O4_3 1_555 1_555
Cu2_3 N1_3 1_555 1_555
C14_3 C15_3 1_555 1_555
O1_4 C1_4 1_555 1_555
O2_4 C1_4 1_555 1_555
O3_4 C16_4 1_555 1_555
O4_4 C16_4 1_555 1_555
N1_4 C8_4 1_555 1_555
C1_4 C2_4 1_555 1_555
C2_4 C3_4 1_555 1_555
C3_4 C4_4 1_555 1_555
C4_4 C5_4 1_555 1_555
C5_4 C6_4 1_555 1_555
C6_4 C7_4 1_555 1_555
C7_4 C2_4 1_555 1_555
C8_4 C5_4 1_555 1_555
C9_4 N1_4 1_555 1_555
C10_4 C9_4 1_555 1_555
C11_4 C10_4 1_555 1_555
C12_4 C11_4 1_555 1_555
C13_4 C12_4 1_555 1_555
C14_4 C13_4 1_555 1_555
C15_4 C10_4 1_555 1_555
C16_4 C13_4 1_555 1_555
H1_4 C3_4 1_555 1_555
H2_4 C4_4 1_555 1_555
H3_4 C6_4 1_555 1_555
H4_4 C7_4 1_555 1_555
H5_4 C8_4 1_555 1_555
H6_4 C8_4 1_555 1_555
H7_4 N1_4 1_555 1_555
H8_4 C9_4 1_555 1_555
H10_4 C11_4 1_555 1_555
H11_4 C12_4 1_555 1_555
H12_4 C14_4 1_555 1_555
H13_4 C15_4 1_555 1_555
Cu3_4 O3_4 1_555 1_555
Cu4_4 O4_4 1_555 1_555
Cu3_3 N1_4 1_555 1_555
C14_4 C15_4 1_555 1_555
Cu3_4 Cu4_4 1_555 1_555
N2_4 Cu4_3 1_555 1_555
H14_4 N2_4 1_555 1_555
N2_4 H15_4 1_555 1_555
N2_4 H16_4 1_555 1_555
Cu4 O1_5 1_555 1_555
O1_5 C1_5 1_555 1_555
O2_5 C1_5 1_555 1_555
O3_5 C16_5 1_555 1_555
O4_5 C16_5 1_555 1_555
N1_5 C8_5 1_555 1_555
C1_5 C2_5 1_555 1_555
C2_5 C3_5 1_555 1_555
C3_5 C4_5 1_555 1_555
C4_5 C5_5 1_555 1_555
C5_5 C6_5 1_555 1_555
C6_5 C7_5 1_555 1_555
C7_5 C2_5 1_555 1_555
C8_5 C5_5 1_555 1_555
C9_5 N1_5 1_555 1_555
C10_5 C9_5 1_555 1_555
C11_5 C10_5 1_555 1_555
C12_5 C11_5 1_555 1_555
C13_5 C12_5 1_555 1_555
C14_5 C13_5 1_555 1_555
C15_5 C10_5 1_555 1_555
C16_5 C13_5 1_555 1_555
H1_5 C3_5 1_555 1_555
H2_5 C4_5 1_555 1_555
H3_5 C6_5 1_555 1_555
H4_5 C7_5 1_555 1_555
H5_5 C8_5 1_555 1_555
H6_5 C8_5 1_555 1_555
H7_5 N1_5 1_555 1_555
H8_5 C9_5 1_555 1_555
H10_5 C11_5 1_555 1_555
H11_5 C12_5 1_555 1_555
H12_5 C14_5 1_555 1_555
H13_5 C15_5 1_555 1_555
Cu3_5 O3_5 1_555 1_555
Cu4_5 O4_5 1_555 1_555
Cu3 N1_5 1_555 1_555
O6_5 Cu4 1_555 1_555
N2_5 Cu4 1_555 1_555
H14_5 N2_5 1_555 1_555
C14_5 C15_5 1_555 1_555
Cu3_5 Cu4_5 1_555 1_555
N2_5 H15_5 1_555 1_555
N2_5 H16_5 1_555 1_555
N2_6 Cu4_2 1_555 1_555
H14_6 N2_6 1_555 1_555
N2_6 H15_6 1_555 1_555
N2_6 H16_6 1_555 1_555
O1_6 C1_6 1_555 1_555
O2_6 C1_6 1_555 1_555
O3_6 C16_6 1_555 1_555
O4_6 C16_6 1_555 1_555
N1_6 C8_6 1_555 1_555
C1_6 C2_6 1_555 1_555
C2_6 C3_6 1_555 1_555
C3_6 C4_6 1_555 1_555
C4_6 C5_6 1_555 1_555
C5_6 C6_6 1_555 1_555
C6_6 C7_6 1_555 1_555
C7_6 C2_6 1_555 1_555
C8_6 C5_6 1_555 1_555
C9_6 N1_6 1_555 1_555
C10_6 C9_6 1_555 1_555
C11_6 C10_6 1_555 1_555
C12_6 C11_6 1_555 1_555
C13_6 C12_6 1_555 1_555
C14_6 C13_6 1_555 1_555
C15_6 C10_6 1_555 1_555
C16_6 C13_6 1_555 1_555
H1_6 C3_6 1_555 1_555
H2_6 C4_6 1_555 1_555
H3_6 C6_6 1_555 1_555
H4_6 C7_6 1_555 1_555
H5_6 C8_6 1_555 1_555
H6_6 C8_6 1_555 1_555
H7_6 N1_6 1_555 1_555
H8_6 C9_6 1_555 1_555
H10_6 C11_6 1_555 1_555
H11_6 C12_6 1_555 1_555
H12_6 C14_6 1_555 1_555
H13_6 C15_6 1_555 1_555
Cu3_6 O3_6 1_555 1_555
Cu4_6 O4_6 1_555 1_555
Cu3_2 N1_6 1_555 1_555
C14_6 C15_6 1_555 1_555
Cu3_6 Cu4_6 1_555 1_555
O3_7 C16_7 1_555 1_555
O7_2 C16_7 1_555 1_555
C13_7 C12_7 1_555 1_555
C14_7 C13_7 1_555 1_555
C16_7 C13_7 1_555 1_555
H11_7 C12_7 1_555 1_555
H12_7 C14_7 1_555 1_555
H13_7 C15_7 1_555 1_555
Cu2_2 O3_7 1_555 1_555
C14_7 C15_7 1_555 1_555
Cu4_6 O1_7 1_555 1_555
O1_7 C1_7 1_555 1_555
O2_7 C1_7 1_555 1_555
O5_7 Cu4_6 1_555 1_555
O6_7 Cu4_6 1_555 1_555
N2_7 Cu4_6 1_555 1_555
H14_7 N2_7 1_555 1_555
O2_7 Cu3_6 1_555 1_555
N2_7 H15_7 1_555 1_555
N2_7 H16_7 1_555 1_555
N1_7 C8_7 1_555 1_555
C2_7 C3_7 1_555 1_555
C3_7 C4_7 1_555 1_555
C4_7 C5_7 1_555 1_555
C5_7 C6_7 1_555 1_555
C6_7 C7_7 1_555 1_555
C7_7 C2_7 1_555 1_555
C8_7 C5_7 1_555 1_555
C9_7 N1_7 1_555 1_555
C10_7 C9_7 1_555 1_555
C11_7 C10_7 1_555 1_555
H2_7 C4_7 1_555 1_555
H3_7 C6_7 1_555 1_555
H4_7 C7_7 1_555 1_555
H5_7 C8_7 1_555 1_555
H6_7 C8_7 1_555 1_555
H7_7 N1_7 1_555 1_555
H8_7 C9_7 1_555 1_555
H9_4 C9_7 1_555 1_555
H10_7 C11_7 1_555 1_555
Cu3_6 N1_7 1_555 1_555
Cu4_4 O1_8 1_555 1_555
O1_8 C1_8 1_555 1_555
O2_8 C1_8 1_555 1_555
O5_8 Cu4_4 1_555 1_555
O6_8 Cu4_4 1_555 1_555
N2_8 Cu4_4 1_555 1_555
H14_8 N2_8 1_555 1_555
O2_8 Cu3_4 1_555 1_555
N2_8 H15_8 1_555 1_555
N2_8 H16_8 1_555 1_555
N1_8 C8_8 1_555 1_555
C2_8 C3_8 1_555 1_555
C3_8 C4_8 1_555 1_555
C4_8 C5_8 1_555 1_555
C5_8 C6_8 1_555 1_555
C6_8 C7_8 1_555 1_555
C7_8 C2_8 1_555 1_555
C8_8 C5_8 1_555 1_555
C9_8 N1_8 1_555 1_555
C10_8 C9_8 1_555 1_555
C11_8 C10_8 1_555 1_555
H2_8 C4_8 1_555 1_555
H3_8 C6_8 1_555 1_555
H4_8 C7_8 1_555 1_555
H5_8 C8_8 1_555 1_555
H6_8 C8_8 1_555 1_555
H7_8 N1_8 1_555 1_555
H8_8 C9_8 1_555 1_555
H9_5 C9_8 1_555 1_555
H10_8 C11_8 1_555 1_555
Cu3_4 N1_8 1_555 1_555
O3_8 C16_8 1_555 1_555
O7_3 C16_8 1_555 1_555
C13_8 C12_8 1_555 1_555
C14_8 C13_8 1_555 1_555
C16_8 C13_8 1_555 1_555
H11_8 C12_8 1_555 1_555
H12_8 C14_8 1_555 1_555
H13_8 C15_8 1_555 1_555
Cu2_3 O3_8 1_555 1_555
C14_8 C15_8 1_555 1_555
Cu4_5 O1_9 1_555 1_555
O1_9 C1_9 1_555 1_555
O2_9 C1_9 1_555 1_555
O5_9 Cu4_5 1_555 1_555
O6_9 Cu4_5 1_555 1_555
N2_9 Cu4_5 1_555 1_555
H14_9 N2_9 1_555 1_555
O2_9 Cu3_5 1_555 1_555
N2_9 H15_9 1_555 1_555
N2_9 H16_9 1_555 1_555
O3_9 C16_9 1_555 1_555
O7 C16_9 1_555 1_555
N1_9 C8_9 1_555 1_555
C2_9 C3_9 1_555 1_555
C3_9 C4_9 1_555 1_555
C4_9 C5_9 1_555 1_555
C5_9 C6_9 1_555 1_555
C6_9 C7_9 1_555 1_555
C7_9 C2_9 1_555 1_555
C8_9 C5_9 1_555 1_555
C9_9 N1_9 1_555 1_555
C10_9 C9_9 1_555 1_555
C11_9 C10_9 1_555 1_555
C12_9 C11_9 1_555 1_555
C13_9 C12_9 1_555 1_555
C14_9 C13_9 1_555 1_555
C15_9 C10_9 1_555 1_555
C16_9 C13_9 1_555 1_555
H2_9 C4_9 1_555 1_555
H3_9 C6_9 1_555 1_555
H4_9 C7_9 1_555 1_555
H5_9 C8_9 1_555 1_555
H6_9 C8_9 1_555 1_555
H7_9 N1_9 1_555 1_555
H8_9 C9_9 1_555 1_555
H9_6 C9_9 1_555 1_555
H10_9 C11_9 1_555 1_555
H11_9 C12_9 1_555 1_555
H12_9 C14_9 1_555 1_555
H13_9 C15_9 1_555 1_555
Cu2 O3_9 1_555 1_555
Cu3_5 N1_9 1_555 1_555
C14_9 C15_9 1_555 1_555
O4_7 C16_10 1_555 1_555
N2_7 C8_10 1_555 1_555
C9_10 N2_7 1_555 1_555
C10_10 C9_10 1_555 1_555
C11_10 C10_10 1_555 1_555
C12_10 C11_10 1_555 1_555
C13_10 C12_10 1_555 1_555
C14_10 C13_10 1_555 1_555
C15_10 C10_10 1_555 1_555
C16_10 C13_10 1_555 1_555
H5_10 C8_10 1_555 1_555
H6_10 C8_10 1_555 1_555
H8_10 C9_10 1_555 1_555
H9_7 C9_10 1_555 1_555
H10_10 C11_10 1_555 1_555
H11_10 C12_10 1_555 1_555
H12_10 C14_10 1_555 1_555
H13_10 C15_10 1_555 1_555
Cu3 O4_7 1_555 1_555
C14_10 C15_10 1_555 1_555
Cu3_6 O1_10 1_555 1_555
O1_10 C1_10 1_555 1_555
O5_7 C1_10 1_555 1_555
C1_10 C2_10 1_555 1_555
C2_10 C3_10 1_555 1_555
C3_10 C4_10 1_555 1_555
C4_10 C5_10 1_555 1_555
C5_10 C6_10 1_555 1_555
C6_10 C7_10 1_555 1_555
C7_10 C2_10 1_555 1_555
H1_10 C3_10 1_555 1_555
H2_10 C4_10 1_555 1_555
H3_10 C6_10 1_555 1_555
H4_10 C7_10 1_555 1_555
O7_4 Cu3_6 1_555 1_555
N1_7 H15_10 1_555 1_555
N1_7 H16_10 1_555 1_555
O4_8 C16_11 1_555 1_555
N2_8 C8_11 1_555 1_555
C9_11 N2_8 1_555 1_555
C10_11 C9_11 1_555 1_555
C11_11 C10_11 1_555 1_555
C12_11 C11_11 1_555 1_555
C13_11 C12_11 1_555 1_555
C14_11 C13_11 1_555 1_555
C15_11 C10_11 1_555 1_555
C16_11 C13_11 1_555 1_555
H5_11 C8_11 1_555 1_555
H6_11 C8_11 1_555 1_555
H8_11 C9_11 1_555 1_555
H9_8 C9_11 1_555 1_555
H10_11 C11_11 1_555 1_555
H11_11 C12_11 1_555 1_555
H12_11 C14_11 1_555 1_555
H13_11 C15_11 1_555 1_555
Cu3_2 O4_8 1_555 1_555
C14_11 C15_11 1_555 1_555
Cu3_4 O1_11 1_555 1_555
O1_11 C1_11 1_555 1_555
O5_8 C1_11 1_555 1_555
C1_11 C2_11 1_555 1_555
C2_11 C3_11 1_555 1_555
C3_11 C4_11 1_555 1_555
C4_11 C5_11 1_555 1_555
C5_11 C6_11 1_555 1_555
C6_11 C7_11 1_555 1_555
C7_11 C2_11 1_555 1_555
H1_11 C3_11 1_555 1_555
H2_11 C4_11 1_555 1_555
H3_11 C6_11 1_555 1_555
H4_11 C7_11 1_555 1_555
O7_5 Cu3_4 1_555 1_555
N1_8 H15_11 1_555 1_555
N1_8 H16_11 1_555 1_555
O4_9 C16_12 1_555 1_555
N2_9 C8_12 1_555 1_555
C9_12 N2_9 1_555 1_555
C10_12 C9_12 1_555 1_555
C11_12 C10_12 1_555 1_555
C12_12 C11_12 1_555 1_555
C13_12 C12_12 1_555 1_555
C14_12 C13_12 1_555 1_555
C15_12 C10_12 1_555 1_555
C16_12 C13_12 1_555 1_555
H5_12 C8_12 1_555 1_555
H6_12 C8_12 1_555 1_555
H8_12 C9_12 1_555 1_555
H9_9 C9_12 1_555 1_555
H10_12 C11_12 1_555 1_555
H11_12 C12_12 1_555 1_555
H12_12 C14_12 1_555 1_555
H13_12 C15_12 1_555 1_555
Cu3_3 O4_9 1_555 1_555
C14_12 C15_12 1_555 1_555
Cu3_5 O1_12 1_555 1_555
O1_12 C1_12 1_555 1_555
O5_9 C1_12 1_555 1_555
C1_12 C2_12 1_555 1_555
C2_12 C3_12 1_555 1_555
C3_12 C4_12 1_555 1_555
C4_12 C5_12 1_555 1_555
C5_12 C6_12 1_555 1_555
C6_12 C7_12 1_555 1_555
C7_12 C2_12 1_555 1_555
H1_12 C3_12 1_555 1_555
H2_12 C4_12 1_555 1_555
H3_12 C6_12 1_555 1_555
H4_12 C7_12 1_555 1_555
O7_6 Cu3_5 1_555 1_555
N1_9 H15_12 1_555 1_555
N1_9 H16_12 1_555 1_555
N1_4 H15_13 1_555 1_555
N1_4 H16_13 1_555 1_555
O1_13 C1_13 1_555 1_555
O5_4 C1_13 1_555 1_555
O6_2 C16_13 1_555 1_555
O4_10 C16_13 1_555 1_555
N2_4 C8_13 1_555 1_555
C1_13 C2_13 1_555 1_555
C2_13 C3_13 1_555 1_555
C3_13 C4_13 1_555 1_555
C4_13 C5_13 1_555 1_555
C5_13 C6_13 1_555 1_555
C6_13 C7_13 1_555 1_555
C7_13 C2_13 1_555 1_555
C8_13 C5_13 1_555 1_555
C9_13 N2_4 1_555 1_555
C10_13 C9_13 1_555 1_555
C11_13 C10_13 1_555 1_555
C12_13 C11_13 1_555 1_555
C13_13 C12_13 1_555 1_555
C14_13 C13_13 1_555 1_555
C15_13 C10_13 1_555 1_555
C16_13 C13_13 1_555 1_555
H1_13 C3_13 1_555 1_555
H2_13 C4_13 1_555 1_555
H3_13 C6_13 1_555 1_555
H4_13 C7_13 1_555 1_555
H5_13 C8_13 1_555 1_555
H6_13 C8_13 1_555 1_555
H8_13 C9_13 1_555 1_555
H10_13 C11_13 1_555 1_555
H11_13 C12_13 1_555 1_555
H12_13 C14_13 1_555 1_555
H13_13 C15_13 1_555 1_555
Cu2_2 O4_10 1_555 1_555
C14_13 C15_13 1_555 1_555
Cu3 O1_14 1_555 1_555
O1_14 C1_14 1_555 1_555
O5_5 C1_14 1_555 1_555
O6_3 C16_14 1_555 1_555
O4_11 C16_14 1_555 1_555
N2_5 C8_14 1_555 1_555
C1_14 C2_14 1_555 1_555
C2_14 C3_14 1_555 1_555
C3_14 C4_14 1_555 1_555
C4_14 C5_14 1_555 1_555
C5_14 C6_14 1_555 1_555
C6_14 C7_14 1_555 1_555
C7_14 C2_14 1_555 1_555
C8_14 C5_14 1_555 1_555
C9_14 N2_5 1_555 1_555
C10_14 C9_14 1_555 1_555
C11_14 C10_14 1_555 1_555
C12_14 C11_14 1_555 1_555
C13_14 C12_14 1_555 1_555
C14_14 C13_14 1_555 1_555
C15_14 C10_14 1_555 1_555
C16_14 C13_14 1_555 1_555
H1_14 C3_14 1_555 1_555
H2_14 C4_14 1_555 1_555
H3_14 C6_14 1_555 1_555
H4_14 C7_14 1_555 1_555
H5_14 C8_14 1_555 1_555
H6_14 C8_14 1_555 1_555
H8_14 C9_14 1_555 1_555
H10_14 C11_14 1_555 1_555
H11_14 C12_14 1_555 1_555
H12_14 C14_14 1_555 1_555
H13_14 C15_14 1_555 1_555
Cu2_3 O4_11 1_555 1_555
C14_14 C15_14 1_555 1_555
N1_5 H15_14 1_555 1_555
N1_5 H16_14 1_555 1_555
O1_15 C1_15 1_555 1_555
O5_6 C1_15 1_555 1_555
O6 C16_15 1_555 1_555
O4_12 C16_15 1_555 1_555
N2_6 C8_15 1_555 1_555
C1_15 C2_15 1_555 1_555
C2_15 C3_15 1_555 1_555
C3_15 C4_15 1_555 1_555
C4_15 C5_15 1_555 1_555
C5_15 C6_15 1_555 1_555
C6_15 C7_15 1_555 1_555
C7_15 C2_15 1_555 1_555
C8_15 C5_15 1_555 1_555
C9_15 N2_6 1_555 1_555
C10_15 C9_15 1_555 1_555
C11_15 C10_15 1_555 1_555
C12_15 C11_15 1_555 1_555
C13_15 C12_15 1_555 1_555
C14_15 C13_15 1_555 1_555
C15_15 C10_15 1_555 1_555
C16_15 C13_15 1_555 1_555
H1_15 C3_15 1_555 1_555
H2_15 C4_15 1_555 1_555
H3_15 C6_15 1_555 1_555
H4_15 C7_15 1_555 1_555
H5_15 C8_15 1_555 1_555
H6_15 C8_15 1_555 1_555
H8_15 C9_15 1_555 1_555
H10_15 C11_15 1_555 1_555
H11_15 C12_15 1_555 1_555
H12_15 C14_15 1_555 1_555
H13_15 C15_15 1_555 1_555
Cu2 O4_12 1_555 1_555
C14_15 C15_15 1_555 1_555
N1_6 H15_15 1_555 1_555
N1_6 H16_15 1_555 1_555
N2 C8_16 1_555 1_555
C2_16 C3_16 1_555 1_555
C3_16 C4_16 1_555 1_555
C4_16 C5_16 1_555 1_555
C5_16 C6_16 1_555 1_555
C6_16 C7_16 1_555 1_555
C7_16 C2_16 1_555 1_555
C8_16 C5_16 1_555 1_555
C9_16 N2 1_555 1_555
C10_16 C9_16 1_555 1_555
C11_16 C10_16 1_555 1_555
H2_16 C4_16 1_555 1_555
H3_16 C6_16 1_555 1_555
H4_16 C7_16 1_555 1_555
H5_16 C8_16 1_555 1_555
H6_16 C8_16 1_555 1_555
H8_16 C9_16 1_555 1_555
H9_10 C9_16 1_555 1_555
H10_16 C11_16 1_555 1_555
Cu2 O1_16 1_555 1_555
O1_16 C1_16 1_555 1_555
O5 C1_16 1_555 1_555
N1 H15_16 1_555 1_555
N1 H16_16 1_555 1_555
O6_8 C16_16 1_555 1_555
O7_5 C16_16 1_555 1_555
C13_16 C12_16 1_555 1_555
C14_16 C13_16 1_555 1_555
C16_16 C13_16 1_555 1_555
H11_16 C12_16 1_555 1_555
H12_16 C14_16 1_555 1_555
H13_16 C15_16 1_555 1_555
C14_16 C15_16 1_555 1_555
O6_9 C16_17 1_555 1_555
O7_6 C16_17 1_555 1_555
C13_17 C12_17 1_555 1_555
C14_17 C13_17 1_555 1_555
C16_17 C13_17 1_555 1_555
H11_17 C12_17 1_555 1_555
H12_17 C14_17 1_555 1_555
H13_17 C15_17 1_555 1_555
C14_17 C15_17 1_555 1_555
N2_2 C8_17 1_555 1_555
C2_17 C3_17 1_555 1_555
C3_17 C4_17 1_555 1_555
C4_17 C5_17 1_555 1_555
C5_17 C6_17 1_555 1_555
C6_17 C7_17 1_555 1_555
C7_17 C2_17 1_555 1_555
C8_17 C5_17 1_555 1_555
C9_17 N2_2 1_555 1_555
C10_17 C9_17 1_555 1_555
C11_17 C10_17 1_555 1_555
H2_17 C4_17 1_555 1_555
H3_17 C6_17 1_555 1_555
H4_17 C7_17 1_555 1_555
H5_17 C8_17 1_555 1_555
H6_17 C8_17 1_555 1_555
H8_17 C9_17 1_555 1_555
H9_11 C9_17 1_555 1_555
H10_17 C11_17 1_555 1_555
Cu2_2 O1_17 1_555 1_555
O1_17 C1_17 1_555 1_555
O5_2 C1_17 1_555 1_555
N1_2 H15_17 1_555 1_555
N1_2 H16_17 1_555 1_555
O6_7 C16_18 1_555 1_555
O7_4 C16_18 1_555 1_555
N2_3 C8_18 1_555 1_555
C2_18 C3_18 1_555 1_555
C3_18 C4_18 1_555 1_555
C4_18 C5_18 1_555 1_555
C5_18 C6_18 1_555 1_555
C6_18 C7_18 1_555 1_555
C7_18 C2_18 1_555 1_555
C8_18 C5_18 1_555 1_555
C9_18 N2_3 1_555 1_555
C10_18 C9_18 1_555 1_555
C11_18 C10_18 1_555 1_555
C12_18 C11_18 1_555 1_555
C13_18 C12_18 1_555 1_555
C14_18 C13_18 1_555 1_555
C15_18 C10_18 1_555 1_555
C16_18 C13_18 1_555 1_555
H2_18 C4_18 1_555 1_555
H3_18 C6_18 1_555 1_555
H4_18 C7_18 1_555 1_555
H5_18 C8_18 1_555 1_555
H6_18 C8_18 1_555 1_555
H8_18 C9_18 1_555 1_555
H9_12 C9_18 1_555 1_555
H10_18 C11_18 1_555 1_555
H11_18 C12_18 1_555 1_555
H12_18 C14_18 1_555 1_555
H13_18 C15_18 1_555 1_555
C14_18 C15_18 1_555 1_555
Cu2_3 O1_18 1_555 1_555
O1_18 C1_18 1_555 1_555
O5_3 C1_18 1_555 1_555
N1_3 H15_18 1_555 1_555
N1_3 H16_18 1_555 1_555

#END
