
###############################################################################
#
# This file contains modified crystal structure data generated from the
# MOF subset of the Cambridge Structural Database (CSD) v543 
# hosted by the Cambridge Crystallographic Data Centre (CCDC).
#
# This work is licensed under the Creative Commons
# Attribution-NonCommercial-ShareAlike 4.0 International License.
# To view a copy of this license, visit
# http://creativecommons.org/licenses/by-nc-sa/4.0/
# or send a letter to
# Creative Commons, PO Box 1866, Mountain View, CA 94042, USA.
#
# CIF created using the CSD Python API on 29 September 2022
# The structure has been converted into the P1 space group
# The structure has a 3D framework
# The original CSD entry DOKHOB is in the monoclinic crystal system
# The framework has been calculated to contain at least 10.0% void space
# The void calculation uses a probe of radius 1.32A, grid spacing 0.4
# H atom positions have been added when not included in the experimental data
#
###############################################################################

data_DOKHOB
_chemical_formula_moiety         '(C88 H76 Cu6 N8 O28)n'
_symmetry_cell_setting           triclinic
_symmetry_space_group_name_H-M   'P 1'
_symmetry_Int_Tables_number      1
_space_group_name_Hall           'P 1'
loop_
_symmetry_equiv_pos_site_id
_symmetry_equiv_pos_as_xyz
1 x,y,z
_cell_length_a                   18.8020(17)
_cell_length_b                   8.5577(8)
_cell_length_c                   16.0542(16)
_cell_angle_alpha                90
_cell_angle_beta                 99.469(7)
_cell_angle_gamma                90
_cell_volume                     2547.95
loop_
_atom_site_label
_atom_site_type_symbol
_atom_site_fract_x
_atom_site_fract_y
_atom_site_fract_z
O1 O 0.2798(5) 0.2283(12) 0.1645(7)
C1 C 0.2488(7) 0.108(2) 0.1740(8)
N2 N 0.1313(6) 0.3878(14) 0.1747(7)
H1 H 0.3461 0.0019 0.2795
C6 C 0.1827(8) 0.0324(18) 0.0016(9)
H8 H 0.1852 0.1309 0.0306
C18 C 0.1461(7) 0.485(2) 0.1158(10)
H14 H 0.1929 0.5229 0.1212
C19 C 0.0651(7) 0.3302(18) 0.1632(9)
H15 H 0.0537 0.2594 0.2030
C20 C 0.0966(6) 0.5341(17) 0.0458(8)
H16 H 0.1106 0.6025 0.0065
C21 C 0.0128(7) 0.3672(19) 0.0978(9)
C22 C 0.0261(6) 0.4787(17) 0.0363(8)
Cu2 Cu 0.20825(7) 0.31522(19) 0.26578(10)
O2 O 0.1974(5) 0.0943(10) 0.2197(5)
O7 O 0.2456(5) 0.5324(10) 0.2894(6)
O8 O 0.7202(5) 0.2283(12) 0.3355(7)
C23 C 0.7512(7) 0.108(2) 0.3260(8)
N6 N 0.8687(6) 0.3878(14) 0.3253(7)
H18 H 0.6539 0.0019 0.2205
C28 C 0.8173(8) 0.0324(18) 0.4984(9)
H24 H 0.8066 0.0476 0.5543
H25 H 0.8148 0.1309 0.4694
Cu4 Cu 0.79175(7) 0.31522(19) 0.23422(10)
O9 O 0.8026(5) 0.0943(10) 0.2803(5)
O13 O 0.2684(4) 0.2428(10) 0.3689(5)
O14 O 0.7316(4) 0.2428(10) 0.1311(5)
O16 O 0.7544(5) 0.5324(10) 0.2106(6)
H35 H 0.237672 0.594165 0.236317
H36 H 0.219679 0.582444 0.331497
H37 H 0.762328 0.594165 0.263683
H38 H 0.780321 0.582444 0.168503
Cu3 Cu 0.5000 0.5548(2) 0.7500
N3 N 0.5037(5) 0.7147(11) 0.8402(6)
C35 C 0.5579(8) 0.8052(18) 0.8630(10)
H27 H 0.5986 0.7942 0.8375
C36 C 0.4469(8) 0.7356(17) 0.8775(9)
H28 H 0.4068 0.6723 0.8613
C37 C 0.5575(8) 0.9187(19) 0.9246(10)
H29 H 0.5978 0.9825 0.9382
C38 C 0.4438(7) 0.8468(17) 0.9396(10)
H30 H 0.4019 0.8563 0.9631
C39 C 0.5002(6) 0.9413(13) 0.9665(7)
C18_2 C 0.8539(7) 0.485(2) 0.3842(10)
H14_2 H 0.8071 0.5229 0.3788
C19_2 C 0.9349(7) 0.3302(18) 0.3368(9)
H15_2 H 0.9463 0.2594 0.2970
C20_2 C 0.9034(6) 0.5341(17) 0.4542(8)
H16_2 H 0.8894 0.6025 0.4935
C21_2 C 0.9872(7) 0.3672(19) 0.4022(9)
C22_2 C 0.9739(6) 0.4787(17) 0.4637(8)
H34 H 0.9679 0.6805 0.5930
N3_2 N 0.4963(5) 0.7147(11) 0.6598(6)
C35_2 C 0.4421(8) 0.8052(18) 0.6370(10)
H27_2 H 0.4014 0.7942 0.6625
C36_2 C 0.5531(8) 0.7356(17) 0.6225(9)
H28_2 H 0.5932 0.6723 0.6387
C37_2 C 0.4425(8) 0.9187(19) 0.5754(10)
H29_2 H 0.4022 0.9825 0.5618
C38_2 C 0.5562(7) 0.8468(17) 0.5604(10)
H30_2 H 0.5981 0.8563 0.5369
C39_2 C 0.4998(6) 0.9413(13) 0.5335(7)
H5 H 0.7008 0.4754 0.0380
C5 C 0.7752(7) 0.2474(14) 0.0779(8)
H9 H 0.8649 0.0104 0.0019
O6 O 0.8397(4) 0.2817(11) 0.1006(5)
C2 C 0.6464(7) 0.1067(16) 0.7315(8)
H2 H 0.5956 0.1276 0.7251
H3 H 0.6674 0.1695 0.6923
C3 C 0.6083(7) 0.3882(14) 0.8113(8)
C4 C 0.6747(6) 0.4687(15) 0.9815(8)
H4 H 0.6238 0.4722 0.9829
H6 H 0.6877 0.5549 0.9488
C7 C 0.7325(6) 0.0486(14) 0.8673(7)
C8 C 0.6831(6) 0.1473(15) 0.8244(7)
C9 C 0.6637(6) 0.2816(14) 0.8614(7)
C10 C 0.6930(6) 0.3166(14) 0.9417(7)
C11 C 0.7434(6) 0.2130(14) 0.9872(7)
C12 C 0.7626(6) 0.0800(15) 0.9502(8)
O3 O 0.6255(4) 0.4719(10) 0.7531(6)
O4 O 0.5456(5) 0.3957(10) 0.8321(5)
C24 C 0.3536(7) 0.1067(16) 0.7685(8)
H19 H 0.4044 0.1276 0.7749
H20 H 0.3326 0.1695 0.8077
C25 C 0.3917(7) 0.3882(14) 0.6887(8)
C26 C 0.3253(6) 0.4687(15) 0.5185(8)
H21 H 0.3762 0.4722 0.5171
H22 H 0.2992 0.4754 0.4620
H23 H 0.3123 0.5549 0.5512
C27 C 0.2248(7) 0.2474(14) 0.4221(8)
H26 H 0.1351 0.0104 0.4981
C29 C 0.2675(6) 0.0486(14) 0.6327(7)
C30 C 0.3169(6) 0.1473(15) 0.6756(7)
C31 C 0.3363(6) 0.2816(14) 0.6386(7)
C32 C 0.3070(6) 0.3166(14) 0.5583(7)
C33 C 0.2566(6) 0.2130(14) 0.5128(7)
C34 C 0.2374(6) 0.0800(15) 0.5498(8)
O10 O 0.3745(4) 0.4719(10) 0.7469(6)
O11 O 0.4544(5) 0.3957(10) 0.6679(5)
O15 O 0.1603(4) 0.2817(11) 0.3994(5)
H7 H 0.1934 0.0476 0.9457
H34_2 H 0.0321 0.6805 0.9070
Cu1 Cu 0.5000 0.4452(2) 0.2500
N1 N 0.4963(5) 0.2853(11) 0.1598(6)
C2_2 C 0.3536(7) 0.8933(16) 0.2685(8)
H2_2 H 0.4044 0.8724 0.2749
H3_2 H 0.3326 0.8305 0.3077
C3_2 C 0.3917(7) 0.6118(14) 0.1887(8)
C4_2 C 0.3253(6) 0.5313(15) 0.0185(8)
H4_2 H 0.3762 0.5278 0.0171
H6_2 H 0.3123 0.4451 0.0512
C7_2 C 0.2675(6) 0.9514(14) 0.1327(7)
C8_2 C 0.3169(6) 0.8527(15) 0.1756(7)
C9_2 C 0.3363(6) 0.7184(14) 0.1386(7)
C10_2 C 0.3070(6) 0.6834(14) 0.0583(7)
C11_2 C 0.2566(6) 0.7870(14) 0.0128(7)
C12_2 C 0.2374(6) 0.9200(15) 0.0498(8)
C13 C 0.4421(8) 0.1948(18) 0.1370(10)
H10 H 0.4014 0.2058 0.1625
C14 C 0.5531(8) 0.2644(17) 0.1225(9)
H11 H 0.5932 0.3277 0.1387
C15 C 0.4425(8) 0.0813(19) 0.0754(10)
H12 H 0.4022 0.0175 0.0618
C16 C 0.5562(7) 0.1532(17) 0.0604(10)
H13 H 0.5981 0.1437 0.0369
C17 C 0.4998(6) 0.0587(13) 0.0335(7)
O3_2 O 0.3745(4) 0.5281(10) 0.2469(6)
O4_2 O 0.4544(5) 0.6043(10) 0.1679(5)
N4 N 0.5037(5) 0.2853(11) 0.3402(6)
C24_2 C 0.6464(7) 0.8933(16) 0.2315(8)
H19_2 H 0.5956 0.8724 0.2251
H20_2 H 0.6674 0.8305 0.1923
C25_2 C 0.6083(7) 0.6118(14) 0.3113(8)
C26_2 C 0.6747(6) 0.5313(15) 0.4815(8)
H21_2 H 0.6238 0.5278 0.4829
H22_2 H 0.7008 0.5246 0.5380
H23_2 H 0.6877 0.4451 0.4488
C27_2 C 0.7752(7) 0.7526(14) 0.5779(8)
H26_2 H 0.8649 0.9896 0.5019
C29_2 C 0.7325(6) 0.9514(14) 0.3673(7)
C30_2 C 0.6831(6) 0.8527(15) 0.3244(7)
C31_2 C 0.6637(6) 0.7184(14) 0.3614(7)
C32_2 C 0.6930(6) 0.6834(14) 0.4417(7)
C33_2 C 0.7434(6) 0.7870(14) 0.4872(7)
C34_2 C 0.7626(6) 0.9200(15) 0.4502(8)
Cu7 Cu 0.79175(7) 0.68478(19) 0.73422(10)
O10_2 O 0.6255(4) 0.5281(10) 0.2531(6)
O11_2 O 0.5456(5) 0.6043(10) 0.3321(5)
O12 O 0.7316(4) 0.7572(10) 0.6311(5)
O15_2 O 0.8397(4) 0.7183(11) 0.6006(5)
H5_2 H 0.2992 0.5246 0.9620
C5_2 C 0.2248(7) 0.7526(14) 0.9221(8)
H9_2 H 0.1351 0.9896 0.9981
O5 O 0.2684(4) 0.7572(10) 0.8689(5)
O6_2 O 0.1603(4) 0.7183(11) 0.8994(5)
Cu5 Cu 0.20825(7) 0.68478(19) 0.76578(10)
N5 N 0.8687(6) 0.6122(14) 0.8253(7)
C40 C 0.8539(7) 0.515(2) 0.8842(10)
H31 H 0.8071 0.4771 0.8788
C41 C 0.9349(7) 0.6698(18) 0.8368(9)
H32 H 0.9463 0.7406 0.7970
C42 C 0.9034(6) 0.4659(17) 0.9542(8)
H33 H 0.8894 0.3975 0.9935
C43 C 0.9872(7) 0.6328(19) 0.9022(9)
C44 C 0.9739(6) 0.5213(17) 0.9637(8)
H17 H 0.0321 0.3195 0.4070
N5_2 N 0.1313(6) 0.6122(14) 0.6747(7)
C40_2 C 0.1461(7) 0.515(2) 0.6158(10)
H31_2 H 0.1929 0.4771 0.6212
C41_2 C 0.0651(7) 0.6698(18) 0.6632(9)
H32_2 H 0.0537 0.7406 0.7030
C42_2 C 0.0966(6) 0.4659(17) 0.5458(8)
H33_2 H 0.1106 0.3975 0.5065
C43_2 C 0.0128(7) 0.6328(19) 0.5978(9)
C44_2 C 0.0261(6) 0.5213(17) 0.5363(8)
C13_2 C 0.5579(8) 0.1948(18) 0.3630(10)
H10_2 H 0.5986 0.2058 0.3375
C14_2 C 0.4469(8) 0.2644(17) 0.3775(9)
H11_2 H 0.4068 0.3277 0.3613
C15_2 C 0.5575(8) 0.0813(19) 0.4246(10)
H12_2 H 0.5978 0.0175 0.4382
C16_2 C 0.4438(7) 0.1532(17) 0.4396(10)
H13_2 H 0.4019 0.1437 0.4631
C17_2 C 0.5002(6) 0.0587(13) 0.4665(7)
O1_2 O 0.7202(5) 0.7717(12) 0.8355(7)
C1_2 C 0.7512(7) 0.892(2) 0.8260(8)
H1_2 H 0.6539 0.9981 0.7205
C6_2 C 0.8173(8) 0.9676(18) 0.9984(9)
H8_2 H 0.8148 0.8691 0.9694
O2_2 O 0.8026(5) 0.9057(10) 0.7803(5)
O7_2 O 0.7544(5) 0.4676(10) 0.7106(6)
O8_2 O 0.2798(5) 0.7717(12) 0.6645(7)
C23_2 C 0.2488(7) 0.892(2) 0.6740(8)
H18_2 H 0.3461 0.9981 0.7795
C28_2 C 0.1827(8) 0.9676(18) 0.5016(9)
H24_2 H 0.1934 0.9524 0.4457
H25_2 H 0.1852 0.8691 0.5306
O9_2 O 0.1974(5) 0.9057(10) 0.7197(5)
O16_2 O 0.2456(5) 0.4676(10) 0.7894(6)
H35_2 H 0.762328 0.405835 0.763683
H36_2 H 0.780321 0.417556 0.668503
H37_2 H 0.237672 0.405835 0.736317
H38_2 H 0.219679 0.417556 0.831497
H17_2 H 0.9679 0.3195 0.0930
H7_2 H 0.8066 0.9524 0.0543
loop_
_geom_bond_atom_site_label_1
_geom_bond_atom_site_label_2
_geom_bond_site_symmetry_1
_geom_bond_site_symmetry_2
O1 C1 1_555 1_555
N2 C18 1_555 1_555
H8 C6 1_555 1_555
C18 H14 1_555 1_555
C19 N2 1_555 1_555
H15 C19 1_555 1_555
C20 C18 1_555 1_555
H16 C20 1_555 1_555
C21 C19 1_555 1_555
C22 C20 1_555 1_555
Cu2 O1 1_555 1_555
O2 C1 1_555 1_555
O7 Cu2 1_555 1_555
O8 C23 1_555 1_555
N6 Cu4 1_555 1_555
C28 H24 1_555 1_555
H25 C28 1_555 1_555
Cu4 O8 1_555 1_555
O9 C23 1_555 1_555
O13 Cu2 1_555 1_555
O14 Cu4 1_555 1_555
O16 Cu4 1_555 1_555
N2 Cu2 1_555 1_555
C21 C22 1_555 1_555
Cu2 O2 1_555 1_555
Cu4 O9 1_555 1_555
O7 H35 1_555 1_555
O7 H36 1_555 1_555
O16 H37 1_555 1_555
O16 H38 1_555 1_555
Cu3 N3 1_555 1_555
N3 C35 1_555 1_555
C35 H27 1_555 1_555
C36 N3 1_555 1_555
H28 C36 1_555 1_555
C37 C35 1_555 1_555
H29 C37 1_555 1_555
C38 C36 1_555 1_555
H30 C38 1_555 1_555
C37 C39 1_555 1_555
C38 C39 1_555 1_555
N6 C18_2 1_555 1_555
C18_2 H14_2 1_555 1_555
C19_2 N6 1_555 1_555
H15_2 C19_2 1_555 1_555
C20_2 C18_2 1_555 1_555
H16_2 C20_2 1_555 1_555
C21_2 C19_2 1_555 1_555
C22_2 C20_2 1_555 1_555
C21_2 C22_2 1_555 1_555
Cu3 N3_2 1_555 1_555
N3_2 C35_2 1_555 1_555
C35_2 H27_2 1_555 1_555
C36_2 N3_2 1_555 1_555
H28_2 C36_2 1_555 1_555
C37_2 C35_2 1_555 1_555
H29_2 C37_2 1_555 1_555
C38_2 C36_2 1_555 1_555
H30_2 C38_2 1_555 1_555
C37_2 C39_2 1_555 1_555
C38_2 C39_2 1_555 1_555
O14 C5 1_555 1_555
O6 C5 1_555 1_555
H2 C2 1_555 1_555
H3 C2 1_555 1_555
C3 C9 1_555 1_555
C4 H4 1_555 1_555
H6 C4 1_555 1_555
C7 C8 1_555 1_555
C8 C2 1_555 1_555
C9 C8 1_555 1_555
C10 C4 1_555 1_555
C11 C10 1_555 1_555
O3 C3 1_555 1_555
O4 Cu3 1_555 1_555
H19 C24 1_555 1_555
H20 C24 1_555 1_555
C25 C31 1_555 1_555
C26 H21 1_555 1_555
H22 C26 1_555 1_555
H23 C26 1_555 1_555
C27 C33 1_555 1_555
C29 C30 1_555 1_555
C30 C24 1_555 1_555
C31 C30 1_555 1_555
C32 C26 1_555 1_555
C33 C32 1_555 1_555
O10 C25 1_555 1_555
O11 Cu3 1_555 1_555
O13 C27 1_555 1_555
O15 C27 1_555 1_555
C3 O4 1_555 1_555
C7 C12 1_555 1_555
C9 C10 1_555 1_555
C11 C12 1_555 1_555
C25 O11 1_555 1_555
C29 C34 1_555 1_555
C31 C32 1_555 1_555
C33 C34 1_555 1_555
Cu1 N1 1_555 1_555
N1 C13 1_555 1_555
H2_2 C2_2 1_555 1_555
H3_2 C2_2 1_555 1_555
C3_2 C9_2 1_555 1_555
C4_2 H4_2 1_555 1_555
H6_2 C4_2 1_555 1_555
C7_2 C8_2 1_555 1_555
C8_2 C2_2 1_555 1_555
C9_2 C8_2 1_555 1_555
C10_2 C4_2 1_555 1_555
C11_2 C10_2 1_555 1_555
C13 H10 1_555 1_555
C14 N1 1_555 1_555
H11 C14 1_555 1_555
C15 C13 1_555 1_555
H12 C15 1_555 1_555
C16 C14 1_555 1_555
H13 C16 1_555 1_555
C17 C15 1_555 1_555
O3_2 C3_2 1_555 1_555
O4_2 Cu1 1_555 1_555
N4 Cu1 1_555 1_555
H19_2 C24_2 1_555 1_555
H20_2 C24_2 1_555 1_555
C25_2 C31_2 1_555 1_555
C26_2 H21_2 1_555 1_555
H22_2 C26_2 1_555 1_555
H23_2 C26_2 1_555 1_555
C27_2 C33_2 1_555 1_555
C29_2 C30_2 1_555 1_555
C30_2 C24_2 1_555 1_555
C31_2 C30_2 1_555 1_555
C32_2 C26_2 1_555 1_555
C33_2 C32_2 1_555 1_555
Cu7 O12 1_555 1_555
O10_2 C25_2 1_555 1_555
O11_2 Cu1 1_555 1_555
O12 C27_2 1_555 1_555
O15_2 C27_2 1_555 1_555
C3_2 O4_2 1_555 1_555
C7_2 C12_2 1_555 1_555
C9_2 C10_2 1_555 1_555
C11_2 C12_2 1_555 1_555
C16 C17 1_555 1_555
C25_2 O11_2 1_555 1_555
C29_2 C34_2 1_555 1_555
C31_2 C32_2 1_555 1_555
C33_2 C34_2 1_555 1_555
O5 C5_2 1_555 1_555
O6_2 C5_2 1_555 1_555
Cu5 O5 1_555 1_555
N5 C40 1_555 1_555
C40 H31 1_555 1_555
C41 N5 1_555 1_555
H32 C41 1_555 1_555
C42 C40 1_555 1_555
H33 C42 1_555 1_555
C43 C41 1_555 1_555
Cu7 N5 1_555 1_555
C42 C44 1_555 1_555
C43 C44 1_555 1_555
N5_2 C40_2 1_555 1_555
C40_2 H31_2 1_555 1_555
C41_2 N5_2 1_555 1_555
H32_2 C41_2 1_555 1_555
C42_2 C40_2 1_555 1_555
H33_2 C42_2 1_555 1_555
C43_2 C41_2 1_555 1_555
Cu5 N5_2 1_555 1_555
C42_2 C44_2 1_555 1_555
C43_2 C44_2 1_555 1_555
N4 C13_2 1_555 1_555
C13_2 H10_2 1_555 1_555
C14_2 N4 1_555 1_555
H11_2 C14_2 1_555 1_555
C15_2 C13_2 1_555 1_555
H12_2 C15_2 1_555 1_555
C16_2 C14_2 1_555 1_555
H13_2 C16_2 1_555 1_555
C17_2 C15_2 1_555 1_555
C16_2 C17_2 1_555 1_555
O1_2 C1_2 1_555 1_555
H8_2 C6_2 1_555 1_555
Cu7 O1_2 1_555 1_555
O2_2 C1_2 1_555 1_555
O7_2 Cu7 1_555 1_555
O8_2 C23_2 1_555 1_555
C28_2 H24_2 1_555 1_555
H25_2 C28_2 1_555 1_555
Cu5 O8_2 1_555 1_555
O9_2 C23_2 1_555 1_555
O16_2 Cu5 1_555 1_555
Cu7 O2_2 1_555 1_555
Cu5 O9_2 1_555 1_555
O7_2 H35_2 1_555 1_555
O7_2 H36_2 1_555 1_555
O16_2 H37_2 1_555 1_555
O16_2 H38_2 1_555 1_555

#END
