
###############################################################################
#
# This file contains modified crystal structure data generated from the
# MOF subset of the Cambridge Structural Database (CSD) v543 
# hosted by the Cambridge Crystallographic Data Centre (CCDC).
#
# This work is licensed under the Creative Commons
# Attribution-NonCommercial-ShareAlike 4.0 International License.
# To view a copy of this license, visit
# http://creativecommons.org/licenses/by-nc-sa/4.0/
# or send a letter to
# Creative Commons, PO Box 1866, Mountain View, CA 94042, USA.
#
# CIF created using the CSD Python API on 29 September 2022
# The structure has been converted into the P1 space group
# The structure has a 3D framework
# The original CSD entry DOMBAL is in the monoclinic crystal system
# The framework has been calculated to contain at least 10.0% void space
# The void calculation uses a probe of radius 1.32A, grid spacing 0.4
#
###############################################################################

data_DOMBAL
_chemical_formula_moiety         '(C196 H196 Cu8 Ge4 N56 O160 W48)n'
_symmetry_cell_setting           triclinic
_symmetry_space_group_name_H-M   'P 1'
_symmetry_Int_Tables_number      1
_space_group_name_Hall           'P 1'
loop_
_symmetry_equiv_pos_site_id
_symmetry_equiv_pos_as_xyz
1 x,y,z
_cell_length_a                   15.140(5)
_cell_length_b                   24.343(5)
_cell_length_c                   24.332(5)
_cell_angle_alpha                90
_cell_angle_beta                 99.411(5)
_cell_angle_gamma                90
_cell_volume                     8846.93
loop_
_atom_site_label
_atom_site_type_symbol
_atom_site_fract_x
_atom_site_fract_y
_atom_site_fract_z
C64 C 0.2038(11) 0.0054(6) 0.1170(6)
H64 H 0.2116 0.0428 0.1115
C48 C 0.0164(17) 0.0075(10) 0.9471(9)
C49 C 0.048(2) 0.0214(17) 0.8890(10)
H48 H 0.0716 0.0581 0.8901
N19 N 0.2538(8) 0.9757(5) 0.1555(5)
N20 N 0.1399(9) 0.9742(5) 0.0868(5)
C65 C 0.1532(12) 0.9229(7) 0.1073(7)
H65 H 0.1190 0.8922 0.0949
C66 C 0.2233(11) 0.9233(6) 0.1482(7)
H66 H 0.2473 0.8928 0.1684
C67 C 0.0688(11) 0.9898(6) 0.0433(6)
H68 H 0.0017 0.9816 0.1407
C88 C 0.0170(11) 0.0530(6) 0.2419(6)
C93 C 0.1018(8) 0.0444(5) 0.2442(5)
H89 H 0.1408 0.0659 0.2276
Cu11 Cu 0.35621(12) 0.99254(8) 0.20835(8)
C15 C 0.4317(10) 0.0296(5) 0.9661(5)
C26 C 0.3551(16) 0.0587(8) 0.9307(8)
H24 H 0.3686 0.0972 0.9291
H25 H 0.3016 0.0540 0.9466
H26 H 0.3462 0.0437 0.8937
Cu2 Cu 0.64379(12) 0.00746(8) 0.79165(8)
C29 C 0.2888(9) 0.0004(6) 0.7215(6)
N9 N 0.7462(8) 0.0243(5) 0.8445(5)
N10 N 0.8601(9) 0.0258(5) 0.9132(5)
N12 N 0.3826(7) 0.0047(5) 0.7185(5)
N13 N 0.5290(7) 0.0082(5) 0.7473(5)
C34 C 0.1557(10) 0.0379(6) 0.7423(7)
H31 H 0.1241 0.0667 0.7549
C36 C 0.8468(12) 0.0771(7) 0.8927(7)
H33 H 0.8810 0.1078 0.9051
C38 C 0.2464(9) 0.0448(6) 0.7395(6)
C42 C 0.7767(11) 0.0767(6) 0.8518(7)
H40 H 0.7527 0.1072 0.8316
C43 C 0.9312(11) 0.0102(6) 0.9567(6)
C44 C 0.2914(11) 0.0987(6) 0.7574(8)
H41 H 0.3468 0.0918 0.7818
H42 H 0.3031 0.1184 0.7252
H43 H 0.2529 0.1202 0.7767
C45 C 0.5093(12) 0.0270(7) 0.6934(7)
H44 H 0.5514 0.0395 0.6725
C46 C 0.4207(13) 0.0249(8) 0.6753(8)
H45 H 0.3910 0.0352 0.6403
H47 H 0.9983 0.0184 0.8593
C50 C 0.5190(9) 0.0413(5) 0.9669(5)
N15 N 0.5754(7) 0.1673(4) 0.9052(4)
N16 N 0.5417(8) 0.0845(4) 0.9319(4)
C51 C 0.5881(10) 0.0136(5) 0.9979(6)
H50 H 0.6471 0.0226 0.9957
C53 C 0.5616(10) 0.1366(5) 0.9476(5)
H51 H 0.5653 0.1495 0.9840
C54 C 0.5624(10) 0.1325(5) 0.8592(6)
H52 H 0.5679 0.1422 0.8230
C55 C 0.5410(11) 0.0829(6) 0.8760(6)
H53 H 0.5277 0.0523 0.8532
Cu7 Cu 0.58638(10) 0.24869(6) 0.90810(6)
O83 O 0.7003(6) 0.0766(3) 0.7201(3)
Cu1 Cu 0.41362(10) 0.75131(6) 0.09190(6)
N1 N 0.7990(7) 0.7408(4) 0.5377(4)
C1 C 0.4810(9) 0.9587(5) 0.0331(5)
N2 N 0.4350(8) 0.5860(4) 0.0578(4)
C2 C 0.4682(9) 0.5415(5) 0.0272(5)
N3 N 0.5267(7) 0.7479(4) 0.1457(4)
N4 N 0.4086(7) 0.6688(4) 0.0854(4)
C3 C 0.3791(10) 0.5812(5) 0.0952(6)
H1 H 0.3572 0.5485 0.1075
C4 C 0.6206(10) 0.7708(7) 0.3779(5)
H2 H 0.5934 0.7916 0.4025
C5 C 0.7967(12) 0.6573(7) 0.3854(7)
H3 H 0.8546 0.6743 0.3885
H4 H 0.7933 0.6272 0.3597
H5 H 0.7879 0.6440 0.4212
C6 C 0.3605(9) 0.6324(5) 0.1118(6)
H6 H 0.3220 0.6413 0.1367
C7 C 0.6369(8) 0.7441(5) 0.2863(5)
N5 N 0.6128(7) 0.7478(4) 0.2277(4)
C8 C 0.5958(8) 0.7774(5) 0.3204(5)
N6 N 0.7136(8) 0.7317(5) 0.4573(4)
N7 N 0.4246(7) 0.8327(4) 0.0948(4)
C9 C 0.7268(9) 0.6980(6) 0.3649(5)
C11 C 0.5295(8) 0.7383(5) 0.1985(5)
H7 H 0.4809 0.7264 0.2144
N8 N 0.4583(8) 0.9155(4) 0.0681(4)
C12 C 0.4119(10) 0.9864(5) 0.0021(6)
H8 H 0.3529 0.9774 0.0043
C13 C 0.6653(9) 0.7622(5) 0.1889(5)
H9 H 0.7263 0.7700 0.1957
C14 C 0.5263(9) 0.8198(5) 0.2990(6)
H10 H 0.5315 0.8293 0.2614
H11 H 0.5352 0.8520 0.3220
H12 H 0.4677 0.8051 0.2999
C17 C 0.6862(9) 0.7329(6) 0.3976(5)
C18 C 0.4523(9) 0.6391(5) 0.0533(5)
H16 H 0.4903 0.6535 0.0305
C19 C 0.4384(10) 0.8634(5) 0.0524(5)
H17 H 0.4347 0.8505 0.0160
C20 C 0.7921(10) 0.7481(6) 0.4845(5)
H18 H 0.8371 0.7631 0.4673
C21 C 0.6108(9) 0.7629(6) 0.1387(5)
H19 H 0.6281 0.7722 0.1050
C22 C 0.4376(10) 0.8675(5) 0.1408(6)
H20 H 0.4321 0.8578 0.1770
C23 C 0.7017(9) 0.7055(6) 0.3075(5)
H21 H 0.7286 0.6843 0.2830
C24 C 0.5385(11) 0.5119(5) 0.0530(6)
H22 H 0.5640 0.5210 0.0893
C25 C 0.4590(11) 0.9171(6) 0.1240(6)
H23 H 0.4723 0.9477 0.1468
C27 C 0.7223(13) 0.7188(9) 0.5462(6)
H27 H 0.7083 0.7089 0.5807
C28 C 0.6666(13) 0.7130(10) 0.4959(7)
H28 H 0.6086 0.6991 0.4898
O6 O 0.5017(6) 0.7548(4) 0.0133(3)
O7 O 0.8205(7) 0.8603(4) 0.0178(4)
O16 O 0.6649(6) 0.7992(4) 0.0013(4)
C52 C 0.5683(10) 0.9704(5) 0.0339(5)
C56 C 0.6449(16) 0.9413(8) 0.0693(8)
H54 H 0.6314 0.9028 0.0709
H55 H 0.6984 0.9460 0.0534
H56 H 0.6538 0.9563 0.1063
C60 C 0.5740(10) 0.4678(5) 0.0265(6)
C61 C 0.6528(15) 0.4368(8) 0.0561(8)
H59 H 0.6994 0.4365 0.0337
H60 H 0.6744 0.4543 0.0911
H61 H 0.6353 0.3998 0.0626
C69 C 0.9836(17) 0.9925(10) 0.0529(9)
C70 C 0.952(2) 0.9786(17) 0.1110(10)
H69 H 0.9284 0.9419 0.1099
W13 W 0.22768(4) 0.24397(2) 0.27566(2)
W14 W 0.14601(4) 0.30075(2) 0.07473(2)
W15 W 0.12977(4) 0.17756(2) 0.15942(2)
W16 W 0.24413(4) 0.16960(2) 0.03715(2)
W17 W 0.31885(4) 0.12661(2) 0.23982(2)
W18 W 0.44074(4) 0.23446(2) 0.04005(2)
W19 W 0.34539(4) 0.36521(2) 0.08021(2)
W20 W 0.44344(4) 0.31399(2) 0.27705(2)
W21 W 0.43021(4) 0.11969(2) 0.11639(2)
W22 W 0.54915(4) 0.30845(2) 0.16550(2)
W23 W 0.23896(4) 0.36752(2) 0.19050(2)
W24 W 0.53561(4) 0.19431(2) 0.24207(2)
Ge2 Ge 0.33759(8) 0.24369(5) 0.15847(5)
O41 O 0.2832(6) 0.3018(3) 0.1333(3)
O42 O 0.3230(6) 0.0660(3) 0.2749(3)
O43 O 0.0476(6) 0.3141(4) 0.0338(4)
O44 O 0.6197(6) 0.1579(4) 0.2786(4)
O45 O 0.6423(6) 0.3417(4) 0.1547(4)
O48 O 0.3570(6) 0.2033(3) 0.1038(3)
O49 O 0.2727(6) 0.2071(3) 0.1967(3)
O50 O 0.1795(5) 0.2564(4) 0.3331(3)
O51 O 0.3680(7) 0.4172(4) 0.0391(4)
O52 O 0.0270(6) 0.1474(4) 0.1477(4)
O53 O 0.1398(6) 0.3546(4) 0.1323(3)
O54 O 0.2003(6) 0.4234(3) 0.2201(3)
O55 O 0.2694(6) 0.1707(3) 0.2930(3)
O57 O 0.3452(6) 0.2703(4) 0.2951(3)
O58 O 0.4762(7) 0.3493(4) 0.3357(4)
O59 O 0.4801(6) 0.0579(4) 0.1138(4)
O60 O 0.1832(6) 0.1543(3) 0.0969(3)
O61 O 0.3564(6) 0.3576(3) 0.2341(4)
O62 O 0.1232(6) 0.2111(4) 0.2299(3)
O63 O 0.2040(6) 0.3091(3) 0.2326(3)
O64 O 0.2230(6) 0.3513(3) 0.0444(3)
O65 O 0.3794(6) 0.3016(4) 0.0413(3)
O66 O 0.2979(6) 0.4050(3) 0.1361(4)
O67 O 0.5085(6) 0.1551(3) 0.1736(3)
O68 O 0.4299(6) 0.1584(3) 0.2606(3)
O69 O 0.3575(6) 0.1068(4) 0.1723(3)
O70 O 0.6037(6) 0.2465(3) 0.2073(4)
O71 O 0.1127(6) 0.2464(3) 0.1239(3)
O72 O 0.4547(6) 0.3541(3) 0.1288(3)
O73 O 0.5328(6) 0.3414(4) 0.2348(4)
O74 O 0.5194(6) 0.2493(3) 0.2965(3)
O75 O 0.4819(6) 0.1605(4) 0.0618(3)
O76 O 0.1923(6) 0.2420(4) 0.0373(3)
O77 O 0.1937(6) 0.1175(3) 0.2011(3)
O78 O 0.5212(6) 0.2618(4) 0.1019(4)
O79 O 0.3260(6) 0.1097(4) 0.0600(4)
O80 O 0.4359(6) 0.2593(3) 0.1990(3)
N25 N 0.9808(7) 0.0149(4) 0.2695(5)
C86 C 0.8442(9) 0.0540(5) 0.2923(6)
C87 C 0.8881(9) 0.0108(5) 0.2735(6)
H85 H 0.9858 0.0822 0.2233
C89 C 0.7545(10) 0.0481(6) 0.2951(6)
H86 H 0.7232 0.0769 0.3082
C94 C 0.8897(11) 0.1079(6) 0.3141(7)
H90 H 0.9492 0.1003 0.3330
H91 H 0.8558 0.1249 0.3396
H92 H 0.8926 0.1323 0.2834
C95 C 0.5486(9) 0.0066(6) 0.2392(6)
H93 H 0.5555 0.0225 0.2055
Cu6 Cu 0.08638(10) 0.25131(6) 0.40810(6)
Cu9 Cu 0.91362(10) 0.74869(6) 0.59190(6)
N30 N 0.2990(7) 0.7592(4) 0.0377(4)
O82 O 0.3205(5) 0.7564(4) 0.1669(3)
Cu12 Cu 0.14379(12) 0.49254(8) 0.29165(8)
C10 C 0.4260(10) 0.5322(5) 0.9735(6)
C16 C 0.3472(15) 0.5632(8) 0.9439(8)
H13 H 0.3006 0.5635 0.9663
H14 H 0.3256 0.5457 0.9089
H15 H 0.3647 0.6002 0.9374
W1 W 0.77232(4) 0.75603(2) 0.72434(2)
W2 W 0.85399(4) 0.69925(2) 0.92527(2)
W3 W 0.87023(4) 0.82244(2) 0.84058(2)
W4 W 0.75587(4) 0.83040(2) 0.96285(2)
W5 W 0.68115(4) 0.87339(2) 0.76018(2)
W6 W 0.55926(4) 0.76554(2) 0.95995(2)
W7 W 0.65461(4) 0.63479(2) 0.91979(2)
W8 W 0.55656(4) 0.68601(2) 0.72295(2)
W9 W 0.56979(4) 0.88031(2) 0.88361(2)
W10 W 0.45085(4) 0.69155(2) 0.83450(2)
W11 W 0.76104(4) 0.63248(2) 0.80950(2)
W12 W 0.46439(4) 0.80569(2) 0.75793(2)
Ge1 Ge 0.66241(8) 0.75631(5) 0.84153(5)
O1 O 0.7168(6) 0.6982(3) 0.8667(3)
O2 O 0.6770(6) 0.9340(3) 0.7251(3)
O3 O 0.9524(6) 0.6859(4) 0.9662(4)
O4 O 0.3803(6) 0.8421(4) 0.7214(4)
O5 O 0.3577(6) 0.6583(4) 0.8453(4)
O8 O 0.6430(6) 0.7967(3) 0.8962(3)
O9 O 0.7273(6) 0.7929(3) 0.8033(3)
O10 O 0.8205(5) 0.7436(4) 0.6669(3)
O11 O 0.6320(7) 0.5828(4) 0.9609(4)
O12 O 0.9730(6) 0.8526(4) 0.8523(4)
O13 O 0.8602(6) 0.6454(4) 0.8677(3)
O14 O 0.7997(6) 0.5766(3) 0.7799(3)
O15 O 0.7306(6) 0.8293(3) 0.7070(3)
O17 O 0.6548(6) 0.7297(4) 0.7049(3)
O18 O 0.5238(7) 0.6507(4) 0.6643(4)
O19 O 0.5199(6) 0.9421(4) 0.8862(4)
O20 O 0.8168(6) 0.8457(3) 0.9031(3)
O21 O 0.6436(6) 0.6424(3) 0.7659(4)
O22 O 0.8768(6) 0.7889(4) 0.7701(3)
O23 O 0.7960(6) 0.6909(3) 0.7674(3)
O24 O 0.7770(6) 0.6487(3) 0.9556(3)
O25 O 0.6206(6) 0.6984(4) 0.9587(3)
O26 O 0.7021(6) 0.5950(3) 0.8639(4)
O27 O 0.4915(6) 0.8449(3) 0.8264(3)
O28 O 0.5701(6) 0.8416(3) 0.7394(3)
O29 O 0.6425(6) 0.8932(4) 0.8277(3)
O30 O 0.3963(6) 0.7535(3) 0.7927(4)
O31 O 0.8873(6) 0.7536(3) 0.8761(3)
O32 O 0.5453(6) 0.6459(3) 0.8712(3)
O33 O 0.4672(6) 0.6586(4) 0.7652(4)
O34 O 0.4806(6) 0.7507(3) 0.7035(3)
O35 O 0.5181(6) 0.8395(4) 0.9382(3)
O36 O 0.8077(6) 0.7580(4) 0.9627(3)
O37 O 0.8063(6) 0.8825(3) 0.7989(3)
O38 O 0.4788(6) 0.7382(4) 0.8981(4)
O39 O 0.6740(6) 0.8903(4) 0.9400(4)
O40 O 0.5641(6) 0.7407(3) 0.8010(3)
N11 N 0.0192(7) 0.9851(4) 0.7305(5)
C30 C 0.1558(9) 0.9460(5) 0.7077(6)
C31 C 0.1119(9) 0.9892(5) 0.7265(6)
H29 H 0.0142 0.9178 0.7767
C33 C 0.2455(10) 0.9519(6) 0.7049(6)
H30 H 0.2768 0.9231 0.6918
C35 C 0.7962(11) 0.9946(6) 0.8830(6)
H32 H 0.7884 0.9572 0.8885
C40 C 0.1103(11) 0.8921(6) 0.6859(7)
H36 H 0.0508 0.8997 0.6670
H37 H 0.1442 0.8751 0.6604
H38 H 0.1074 0.8677 0.7166
C41 C 0.4514(9) 0.9934(6) 0.7608(6)
H39 H 0.4445 0.9775 0.7945
N17 N 0.5650(8) 0.4140(4) 0.9422(4)
C57 C 0.5318(9) 0.4585(5) 0.9728(5)
N18 N 0.5914(7) 0.3312(4) 0.9146(4)
C58 C 0.6209(10) 0.4188(5) 0.9048(6)
H57 H 0.6428 0.4515 0.8925
C59 C 0.6395(9) 0.3676(5) 0.8882(6)
H58 H 0.6780 0.3587 0.8633
C62 C 0.5477(9) 0.3609(5) 0.9467(5)
H62 H 0.5097 0.3465 0.9695
C63 C 0.4615(11) 0.4881(5) 0.9470(6)
H63 H 0.4360 0.4790 0.9107
N21 N 0.2010(7) 0.2592(4) 0.4623(4)
N22 N 0.4733(7) 0.2521(4) 0.8543(4)
C71 C 0.3794(10) 0.2292(7) 0.6221(5)
H71 H 0.4066 0.2084 0.5975
C72 C 0.2033(12) 0.3427(7) 0.6146(7)
H72 H 0.1454 0.3257 0.6115
H73 H 0.2067 0.3728 0.6403
H74 H 0.2121 0.3560 0.5788
C73 C 0.3631(8) 0.2559(5) 0.7137(5)
N23 N 0.3872(7) 0.2522(4) 0.7723(4)
C74 C 0.4042(8) 0.2226(5) 0.6796(5)
N24 N 0.2864(8) 0.2683(5) 0.5427(4)
C75 C 0.2732(9) 0.3020(6) 0.6351(5)
C76 C 0.4705(8) 0.2617(5) 0.8015(5)
H75 H 0.5191 0.2736 0.7856
C77 C 0.3347(9) 0.2378(5) 0.8111(5)
H76 H 0.2737 0.2300 0.8043
C78 C 0.4737(9) 0.1802(5) 0.7010(6)
H77 H 0.4685 0.1707 0.7386
H78 H 0.4648 0.1480 0.6780
H79 H 0.5323 0.1949 0.7001
C79 C 0.3138(9) 0.2671(6) 0.6024(5)
C80 C 0.2079(10) 0.2519(6) 0.5155(5)
H80 H 0.1629 0.2369 0.5327
C81 C 0.3892(9) 0.2371(6) 0.8613(5)
H81 H 0.3719 0.2278 0.8950
C82 C 0.2983(9) 0.2945(6) 0.6925(5)
H82 H 0.2714 0.3157 0.7170
C83 C 0.2777(13) 0.2812(9) 0.4538(6)
H83 H 0.2917 0.2911 0.4193
C84 C 0.3334(13) 0.2870(10) 0.5041(7)
H84 H 0.3914 0.3009 0.5102
O46 O 0.4983(6) 0.2452(4) 0.9867(3)
O47 O 0.1795(7) 0.1397(4) 0.9822(4)
O56 O 0.3351(6) 0.2008(4) 0.9987(4)
N29 N 0.7010(7) 0.2408(4) 0.9623(4)
O81 O 0.6795(5) 0.2436(4) 0.8331(3)
Cu10 Cu 0.85621(12) 0.50746(8) 0.70835(8)
C85 C 0.7112(9) 0.9996(6) 0.2785(6)
N26 N 0.6174(7) 0.9953(5) 0.2815(5)
N27 N 0.4710(7) 0.9918(5) 0.2527(5)
C90 C 0.8443(10) 0.9621(6) 0.2577(7)
H87 H 0.8759 0.9333 0.2451
C92 C 0.7536(9) 0.9552(6) 0.2605(6)
C96 C 0.7086(11) 0.9013(6) 0.2426(8)
H94 H 0.6532 0.9082 0.2182
H95 H 0.6969 0.8816 0.2748
H96 H 0.7471 0.8798 0.2233
C97 C 0.4907(12) 0.9730(7) 0.3066(7)
H97 H 0.4486 0.9605 0.3275
C98 C 0.5793(13) 0.9751(8) 0.3247(8)
H98 H 0.6090 0.9648 0.3597
O84 O 0.2997(6) 0.9234(3) 0.2799(3)
C32 C 0.9830(11) 0.9470(6) 0.7581(6)
C39 C 0.8982(8) 0.9556(5) 0.7558(5)
H35 H 0.8592 0.9341 0.7724
C1_2 C 0.0190(9) 0.4587(5) 0.4669(5)
N2_2 N 0.0650(8) 0.0860(4) 0.4422(4)
C2_2 C 0.0318(9) 0.0415(5) 0.4728(5)
N4_2 N 0.0914(7) 0.1688(4) 0.4146(4)
C3_2 C 0.1209(10) 0.0812(5) 0.4048(6)
H1_2 H 0.1428 0.0485 0.3925
C6_2 C 0.1395(9) 0.1324(5) 0.3882(6)
H6_2 H 0.1780 0.1413 0.3633
N7_2 N 0.0754(7) 0.3327(4) 0.4052(4)
C10_2 C 0.0740(10) 0.0322(5) 0.5265(6)
H7_2 H 0.0191 0.2264 0.2856
N8_2 N 0.0417(8) 0.4155(4) 0.4319(4)
C12_2 C 0.0881(10) 0.4864(5) 0.4979(6)
H8_2 H 0.1471 0.4774 0.4957
H12_2 H 0.0323 0.3051 0.2001
C15_2 C 0.0683(10) 0.5296(5) 0.5339(5)
C16_2 C 0.1528(15) 0.0632(8) 0.5561(8)
H13_2 H 0.1994 0.0635 0.5337
H14_2 H 0.1744 0.0457 0.5911
H15_2 H 0.1353 0.1002 0.5626
C18_2 C 0.0477(9) 0.1391(5) 0.4467(5)
H16_2 H 0.0097 0.1535 0.4695
C19_2 C 0.0616(10) 0.3634(5) 0.4476(5)
H17_2 H 0.0653 0.3505 0.4840
C22_2 C 0.0624(10) 0.3675(5) 0.3592(6)
H20_2 H 0.0679 0.3578 0.3230
C25_2 C 0.0410(11) 0.4171(6) 0.3760(6)
H23_2 H 0.0277 0.4477 0.3532
C26_2 C 0.1449(16) 0.5587(8) 0.5693(8)
H24_2 H 0.1314 0.5972 0.5709
H25_2 H 0.1984 0.5540 0.5534
H26_2 H 0.1538 0.5437 0.6063
W10_2 W 0.04915(4) 0.19155(2) 0.66550(2)
W12_2 W 0.03561(4) 0.30569(2) 0.74207(2)
O4_2 O 0.1197(6) 0.3421(4) 0.7786(4)
O5_2 O 0.1423(6) 0.1583(4) 0.6547(4)
O27_2 O 0.0085(6) 0.3449(3) 0.6736(3)
O30_2 O 0.1037(6) 0.2535(3) 0.7073(4)
O33_2 O 0.0328(6) 0.1586(4) 0.7348(4)
O34_2 O 0.0194(6) 0.2507(3) 0.7965(3)
O38_2 O 0.0212(6) 0.2382(4) 0.6019(4)
C29_2 C 0.2112(9) 0.5004(6) 0.7785(6)
N11_2 N 0.4808(7) 0.4851(4) 0.7695(5)
N12_2 N 0.1174(7) 0.5047(5) 0.7815(5)
C30_2 C 0.3442(9) 0.4460(5) 0.7923(6)
C31_2 C 0.3881(9) 0.4892(5) 0.7735(6)
C32_2 C 0.5170(11) 0.4470(6) 0.7419(6)
H29_2 H 0.4858 0.4178 0.7233
C33_2 C 0.2545(10) 0.4519(6) 0.7951(6)
H30_2 H 0.2232 0.4231 0.8082
C34_2 C 0.3443(10) 0.5379(6) 0.7577(7)
H31_2 H 0.3759 0.5667 0.7451
N14 N 0.6243(10) 0.5024(6) 0.7758(7)
C37 C 0.5472(10) 0.5219(6) 0.7908(6)
H34 H 0.5406 0.5535 0.8112
C38_2 C 0.2536(9) 0.5448(6) 0.7605(6)
C39_2 C 0.6018(8) 0.4556(5) 0.7442(5)
H35_2 H 0.6408 0.4341 0.7276
C40_2 C 0.3897(11) 0.3921(6) 0.8141(7)
H36_2 H 0.4492 0.3997 0.8330
H37_2 H 0.3558 0.3751 0.8396
H38_2 H 0.3926 0.3677 0.7834
C41_2 C 0.0486(9) 0.4934(6) 0.7392(6)
H39_2 H 0.0555 0.4775 0.7055
C44_2 C 0.2086(11) 0.5987(6) 0.7426(8)
H41_2 H 0.1532 0.5918 0.7182
H42_2 H 0.1969 0.6184 0.7748
H43_2 H 0.2471 0.6202 0.7233
C46_2 C 0.0793(13) 0.5249(8) 0.8247(8)
H45_2 H 0.1090 0.5352 0.8597
C83_2 C 0.2223(13) 0.7812(9) 0.0462(6)
H83_2 H 0.2083 0.7911 0.0807
C63_2 C 0.0385(11) 0.9881(5) 0.5530(6)
H63_2 H 0.0640 0.9790 0.5893
N22_2 N 0.0267(7) 0.7521(4) 0.6457(4)
C71_2 C 0.1206(10) 0.7292(7) 0.8779(5)
H71_2 H 0.0934 0.7084 0.9025
C72_2 C 0.2967(12) 0.8427(7) 0.8854(7)
H72_2 H 0.3546 0.8257 0.8885
H73_2 H 0.2933 0.8728 0.8597
H74_2 H 0.2879 0.8560 0.9212
C73_2 C 0.1369(8) 0.7559(5) 0.7863(5)
N23_2 N 0.1128(7) 0.7522(4) 0.7277(4)
C74_2 C 0.0958(8) 0.7226(5) 0.8204(5)
N24_2 N 0.2136(8) 0.7683(5) 0.9573(4)
C75_2 C 0.2268(9) 0.8020(6) 0.8649(5)
C76_2 C 0.0295(8) 0.7617(5) 0.6985(5)
C77_2 C 0.1653(9) 0.7378(5) 0.6889(5)
H76_2 H 0.2263 0.7300 0.6957
C78_2 C 0.0263(9) 0.6802(5) 0.7990(6)
H77_2 H 0.0315 0.6707 0.7614
H78_2 H 0.0352 0.6480 0.8220
C79_2 C 0.1862(9) 0.7671(6) 0.8976(5)
C80_2 C 0.2921(10) 0.7519(6) 0.9845(5)
H80_2 H 0.3371 0.7369 0.9673
C81_2 C 0.1108(9) 0.7371(6) 0.6387(5)
H81_2 H 0.1281 0.7278 0.6050
C82_2 C 0.2017(9) 0.7945(6) 0.8075(5)
H82_2 H 0.2286 0.8157 0.7830
C84_2 C 0.1666(13) 0.7870(10) 0.9959(7)
H84_2 H 0.1086 0.8009 0.9898
W13_2 W 0.27232(4) 0.74397(2) 0.22434(2)
W14_2 W 0.35399(4) 0.80075(2) 0.42527(2)
W15_2 W 0.37023(4) 0.67756(2) 0.34058(2)
W16_2 W 0.25587(4) 0.66960(2) 0.46285(2)
W17_2 W 0.18115(4) 0.62661(2) 0.26018(2)
W18_2 W 0.05926(4) 0.73446(2) 0.45995(2)
W19_2 W 0.15461(4) 0.86521(2) 0.41979(2)
W20_2 W 0.05656(4) 0.81399(2) 0.22295(2)
W21_2 W 0.06979(4) 0.61969(2) 0.38361(2)
W23_2 W 0.26104(4) 0.86752(2) 0.30950(2)
Ge2_2 Ge 0.16241(8) 0.74369(5) 0.34153(5)
O41_2 O 0.2168(6) 0.8018(3) 0.3667(3)
O42_2 O 0.1770(6) 0.5660(3) 0.2251(3)
O43_2 O 0.4524(6) 0.8141(4) 0.4662(4)
O46_2 O 0.0017(6) 0.7452(4) 0.5133(3)
O47_2 O 0.3205(7) 0.6397(4) 0.5178(4)
O48_2 O 0.1430(6) 0.7033(3) 0.3962(3)
O49_2 O 0.2273(6) 0.7071(3) 0.3033(3)
O51_2 O 0.1320(7) 0.9172(4) 0.4609(4)
O52_2 O 0.4730(6) 0.6474(4) 0.3523(4)
O53_2 O 0.3602(6) 0.8546(4) 0.3677(3)
O55_2 O 0.2306(6) 0.6707(3) 0.2070(3)
O56_2 O 0.1649(6) 0.7008(4) 0.5013(4)
O57_2 O 0.1548(6) 0.7703(4) 0.2049(3)
O58_2 O 0.0238(7) 0.8493(4) 0.1643(4)
O59_2 O 0.0199(6) 0.5579(4) 0.3862(4)
O60_2 O 0.3168(6) 0.6543(3) 0.4031(3)
O61_2 O 0.1436(6) 0.8576(3) 0.2659(4)
O62_2 O 0.3768(6) 0.7111(4) 0.2701(3)
O63_2 O 0.2960(6) 0.8091(3) 0.2674(3)
O64_2 O 0.2770(6) 0.8513(3) 0.4556(3)
O65_2 O 0.1206(6) 0.8016(4) 0.4587(3)
O66_2 O 0.2021(6) 0.9050(3) 0.3639(4)
O68_2 O 0.0701(6) 0.6584(3) 0.2394(3)
O69_2 O 0.1425(6) 0.6068(4) 0.3277(3)
O71_2 O 0.3873(6) 0.7464(3) 0.3761(3)
O72_2 O 0.0453(6) 0.8541(3) 0.3712(3)
O75_2 O 0.0181(6) 0.6605(4) 0.4382(3)
O76_2 O 0.3077(6) 0.7420(4) 0.4627(3)
O77_2 O 0.3063(6) 0.6175(3) 0.2989(3)
O79_2 O 0.1740(6) 0.6097(4) 0.4400(4)
O80_2 O 0.0641(6) 0.7593(3) 0.3010(3)
N27_2 N 0.0290(7) 0.4918(5) 0.2473(5)
C97_2 C 0.0093(12) 0.4730(7) 0.1934(7)
H97_2 H 0.0514 0.4605 0.1725
N32 N 0.2462(8) 0.4757(5) 0.3445(5)
N3_2 N 0.9733(7) 0.2479(4) 0.3543(4)
C4_2 C 0.8794(10) 0.2708(7) 0.1221(5)
H2_2 H 0.9066 0.2916 0.0975
C5_2 C 0.7033(12) 0.1573(7) 0.1146(7)
H3_2 H 0.6454 0.1743 0.1115
H4_2 H 0.7067 0.1272 0.1403
H5_2 H 0.7121 0.1440 0.0788
C7_2 C 0.8631(8) 0.2441(5) 0.2137(5)
N5_2 N 0.8872(7) 0.2478(4) 0.2723(4)
C8_2 C 0.9042(8) 0.2774(5) 0.1796(5)
N6_2 N 0.7864(8) 0.2317(5) 0.0427(4)
C9_2 C 0.7732(9) 0.1980(6) 0.1351(5)
C11_2 C 0.9705(8) 0.2383(5) 0.3015(5)
C13_2 C 0.8347(9) 0.2622(5) 0.3111(5)
H9_2 H 0.7737 0.2700 0.3043
C14_2 C 0.9737(9) 0.3198(5) 0.2010(6)
H10_2 H 0.9685 0.3293 0.2386
H11_2 H 0.9648 0.3520 0.1780
C17_2 C 0.8138(9) 0.2329(6) 0.1024(5)
C20_2 C 0.7079(10) 0.2481(6) 0.0155(5)
H18_2 H 0.6629 0.2631 0.0327
C21_2 C 0.8892(9) 0.2629(6) 0.3613(5)
H19_2 H 0.8719 0.2722 0.3950
C23_2 C 0.7983(9) 0.2055(6) 0.1925(5)
H21_2 H 0.7714 0.1843 0.2170
C24_2 C 0.9615(11) 0.0119(5) 0.4470(6)
H22_2 H 0.9360 0.0210 0.4107
C28_2 C 0.8334(13) 0.2130(10) 0.0041(7)
H28_2 H 0.8914 0.1991 0.0102
W1_2 W 0.72768(4) 0.25603(2) 0.77566(2)
W2_2 W 0.64601(4) 0.19925(2) 0.57473(2)
W3_2 W 0.62977(4) 0.32244(2) 0.65942(2)
W4_2 W 0.74413(4) 0.33040(2) 0.53715(2)
W5_2 W 0.81885(4) 0.37339(2) 0.73982(2)
W6_2 W 0.94074(4) 0.26554(2) 0.54005(2)
W7_2 W 0.84539(4) 0.13479(2) 0.58021(2)
W8_2 W 0.94344(4) 0.18601(2) 0.77705(2)
W9_2 W 0.93021(4) 0.38031(2) 0.61639(2)
W11_2 W 0.73896(4) 0.13248(2) 0.69050(2)
Ge1_2 Ge 0.83759(8) 0.25631(5) 0.65847(5)
O1_2 O 0.7832(6) 0.1982(3) 0.6333(3)
O2_2 O 0.8230(6) 0.4340(3) 0.7749(3)
O3_2 O 0.5476(6) 0.1859(4) 0.5338(4)
O6_2 O 0.9983(6) 0.2548(4) 0.4867(3)
O7_2 O 0.6795(7) 0.3603(4) 0.4822(4)
O8_2 O 0.8570(6) 0.2967(3) 0.6038(3)
O9_2 O 0.7727(6) 0.2929(3) 0.6967(3)
O11_2 O 0.8680(7) 0.0828(4) 0.5391(4)
O12_2 O 0.5270(6) 0.3526(4) 0.6477(4)
O13_2 O 0.6398(6) 0.1454(4) 0.6323(3)
O15_2 O 0.7694(6) 0.3293(3) 0.7930(3)
O16_2 O 0.8351(6) 0.2992(4) 0.4987(4)
O17_2 O 0.8452(6) 0.2297(4) 0.7951(3)
O18_2 O 0.9762(7) 0.1507(4) 0.8357(4)
O19_2 O 0.9801(6) 0.4421(4) 0.6138(4)
O20_2 O 0.6832(6) 0.3457(3) 0.5969(3)
O21_2 O 0.8564(6) 0.1424(3) 0.7341(4)
O22_2 O 0.6232(6) 0.2889(4) 0.7299(3)
O23_2 O 0.7040(6) 0.1909(3) 0.7326(3)
O24_2 O 0.7230(6) 0.1487(3) 0.5444(3)
O25_2 O 0.8794(6) 0.1984(4) 0.5413(3)
O26_2 O 0.7979(6) 0.0950(3) 0.6361(4)
O28_2 O 0.9299(6) 0.3416(3) 0.7606(3)
O29_2 O 0.8575(6) 0.3932(4) 0.6723(3)
O31_2 O 0.6127(6) 0.2536(3) 0.6239(3)
O32_2 O 0.9547(6) 0.1459(3) 0.6288(3)
O35_2 O 0.9819(6) 0.3395(4) 0.5618(3)
O36_2 O 0.6923(6) 0.2580(4) 0.5373(3)
O37_2 O 0.6937(6) 0.3825(3) 0.7011(3)
O39_2 O 0.8260(6) 0.3903(4) 0.5600(4)
O40_2 O 0.9359(6) 0.2407(3) 0.6990(3)
N9_2 N 0.7538(8) 0.5243(5) 0.6555(5)
N10_2 N 0.6399(9) 0.5258(5) 0.5868(5)
N13_2 N 0.9710(7) 0.5082(5) 0.7527(5)
C35_2 C 0.7038(11) 0.4946(6) 0.6170(6)
H32_2 H 0.7116 0.4572 0.6115
C36_2 C 0.6532(12) 0.5771(7) 0.6073(7)
H33_2 H 0.6190 0.6078 0.5949
C42_2 C 0.7233(11) 0.5767(6) 0.6482(7)
H40_2 H 0.7473 0.6072 0.6684
C43_2 C 0.5688(11) 0.5102(6) 0.5433(6)
C45_2 C 0.9907(12) 0.5270(7) 0.8066(7)
H44_2 H 0.9486 0.5395 0.8275
C47 C 0.5848(14) 0.5035(11) 0.4918(8)
H46 H 0.6434 0.5063 0.4851
C48_2 C 0.4836(17) 0.5075(10) 0.5529(9)
C49_2 C 0.452(2) 0.5214(17) 0.6110(10)
H47_2 H 0.5017 0.5184 0.6407
H48_2 H 0.4284 0.5581 0.6099
H49 H 0.4058 0.4960 0.6173
C50_2 C 0.9810(9) 0.5413(5) 0.5331(5)
N15_2 N 0.9246(7) 0.6673(4) 0.5948(4)
N16_2 N 0.9583(8) 0.5845(4) 0.5681(4)
C51_2 C 0.9119(10) 0.5136(5) 0.5021(6)
H50_2 H 0.8529 0.5226 0.5043
C52_2 C 0.9317(10) 0.4704(5) 0.4661(5)
C53_2 C 0.9384(10) 0.6366(5) 0.5524(5)
H51_2 H 0.9347 0.6495 0.5160
C54_2 C 0.9376(10) 0.6325(5) 0.6408(6)
H52_2 H 0.9321 0.6422 0.6770
C55_2 C 0.9590(11) 0.5829(6) 0.6240(6)
H53_2 H 0.9723 0.5523 0.6468
C56_2 C 0.8551(16) 0.4413(8) 0.4307(8)
H54_2 H 0.8686 0.4028 0.4291
H55_2 H 0.8016 0.4460 0.4466
H56_2 H 0.8462 0.4563 0.3937
N20_2 N 0.3601(9) 0.4742(5) 0.4132(5)
C64_2 C 0.2962(11) 0.5054(6) 0.3830(6)
H64_2 H 0.2884 0.5428 0.3885
C65_2 C 0.3468(12) 0.4229(7) 0.3927(7)
H65_2 H 0.3810 0.3922 0.4051
C66_2 C 0.2767(11) 0.4233(6) 0.3518(7)
H66_2 H 0.2527 0.3928 0.3316
C67_2 C 0.4312(11) 0.4898(6) 0.4567(6)
C68 C 0.4152(14) 0.4965(11) 0.5082(8)
H67 H 0.3566 0.4937 0.5149
C69_2 C 0.5164(17) 0.4925(10) 0.4471(9)
C70_2 C 0.548(2) 0.4786(17) 0.3890(10)
H68_2 H 0.4983 0.4816 0.3593
H69_2 H 0.5716 0.4419 0.3901
H70 H 0.5942 0.5040 0.3827
C27_2 C 0.7777(13) 0.2188(9) 0.9538(6)
H27_2 H 0.7917 0.2089 0.9193
N17_2 N 0.9350(8) 0.9140(4) 0.5578(4)
C57_2 C 0.9682(9) 0.9585(5) 0.5272(5)
N18_2 N 0.9086(7) 0.8312(4) 0.5854(4)
C58_2 C 0.8791(10) 0.9188(5) 0.5952(6)
H57_2 H 0.8572 0.9515 0.6075
C59_2 C 0.8605(9) 0.8676(5) 0.6118(6)
H58_2 H 0.8220 0.8587 0.6367
C60_2 C 0.9260(10) 0.9678(5) 0.4735(6)
C61_2 C 0.8472(15) 0.9368(8) 0.4439(8)
H59_2 H 0.8006 0.9365 0.4663
H60_2 H 0.8256 0.9543 0.4089
H61_2 H 0.8647 0.8998 0.4374
C62_2 C 0.9523(9) 0.8609(5) 0.5533(5)
H62_2 H 0.9903 0.8465 0.5305
H75_2 H 0.9809 0.7736 0.7144
H79_2 H 0.9677 0.6949 0.7999
W22_2 W 0.95085(4) 0.80845(2) 0.33450(2)
W24_2 W 0.96439(4) 0.69431(2) 0.25793(2)
O44_2 O 0.8803(6) 0.6579(4) 0.2214(4)
O45_2 O 0.8577(6) 0.8417(4) 0.3453(4)
O67_2 O 0.9915(6) 0.6551(3) 0.3264(3)
O70_2 O 0.8963(6) 0.7465(3) 0.2927(4)
O73_2 O 0.9672(6) 0.8414(4) 0.2652(4)
O74_2 O 0.9806(6) 0.7493(3) 0.2035(3)
O78_2 O 0.9788(6) 0.7618(4) 0.3981(4)
C85_2 C 0.7888(9) 0.4996(6) 0.2215(6)
N25_2 N 0.5192(7) 0.5149(4) 0.2305(5)
N26_2 N 0.8826(7) 0.4953(5) 0.2185(5)
C86_2 C 0.6558(9) 0.5540(5) 0.2077(6)
C87_2 C 0.6119(9) 0.5108(5) 0.2265(6)
C88_2 C 0.4830(11) 0.5530(6) 0.2581(6)
H85_2 H 0.5142 0.5822 0.2767
C89_2 C 0.7455(10) 0.5481(6) 0.2049(6)
H86_2 H 0.7768 0.5769 0.1918
C90_2 C 0.6557(10) 0.4621(6) 0.2423(7)
H87_2 H 0.6241 0.4333 0.2549
N28 N 0.3757(10) 0.4976(6) 0.2242(7)
C91 C 0.4528(10) 0.4781(6) 0.2092(6)
H88 H 0.4594 0.4465 0.1888
C92_2 C 0.7464(9) 0.4552(6) 0.2395(6)
C93_2 C 0.3982(8) 0.5444(5) 0.2558(5)
H89_2 H 0.3592 0.5659 0.2724
C94_2 C 0.6103(11) 0.6079(6) 0.1859(7)
H90_2 H 0.5508 0.6003 0.1670
H91_2 H 0.6442 0.6249 0.1604
H92_2 H 0.6074 0.6323 0.2166
C95_2 C 0.9514(9) 0.5066(6) 0.2608(6)
H93_2 H 0.9445 0.5225 0.2945
C96_2 C 0.7914(11) 0.4013(6) 0.2574(8)
H94_2 H 0.8468 0.4082 0.2818
H95_2 H 0.8031 0.3816 0.2252
H96_2 H 0.7529 0.3798 0.2767
C98_2 C 0.9207(13) 0.4751(8) 0.1753(8)
H98_2 H 0.8910 0.4648 0.1403
H49_2 H 0.0942 0.9960 0.8827
C68_2 C 0.0848(14) 0.9965(11) 0.9918(8)
H67_2 H 0.1434 0.9937 0.9851
N28_2 N 0.1243(10) 0.9976(6) 0.2758(7)
C91_2 C 0.0472(10) 0.9781(6) 0.2908(6)
H88_2 H 0.0406 0.9465 0.3112
C47_2 C 0.9152(14) 0.0035(11) 0.0082(8)
H46_2 H 0.8566 0.0063 0.0149
H70_2 H 0.9058 0.0040 0.1173
N14_2 N 0.8757(10) 0.0024(6) 0.7242(7)
C37_2 C 0.9528(10) 0.0219(6) 0.7092(6)
H34_2 H 0.9594 0.0535 0.6888
loop_
_geom_bond_atom_site_label_1
_geom_bond_atom_site_label_2
_geom_bond_site_symmetry_1
_geom_bond_site_symmetry_2
C64 H64 1_555 1_555
C49 C48 1_555 1_555
H48 C49 1_555 1_555
C65 N20 1_555 1_555
H65 C65 1_555 1_555
C66 N19 1_555 1_555
H66 C66 1_555 1_555
C67 N20 1_555 1_555
C93 C88 1_555 1_555
H89 C93 1_555 1_555
Cu11 N19 1_555 1_555
C65 C66 1_555 1_555
C26 C15 1_555 1_555
H24 C26 1_555 1_555
H25 C26 1_555 1_555
H26 C26 1_555 1_555
Cu2 N9 1_555 1_555
C29 N12 1_555 1_555
N13 Cu2 1_555 1_555
C34 H31 1_555 1_555
C36 N10 1_555 1_555
H33 C36 1_555 1_555
C38 C29 1_555 1_555
C42 N9 1_555 1_555
H40 C42 1_555 1_555
C43 N10 1_555 1_555
C44 C38 1_555 1_555
H41 C44 1_555 1_555
H42 C44 1_555 1_555
H43 C44 1_555 1_555
C45 N13 1_555 1_555
H44 C45 1_555 1_555
C46 N12 1_555 1_555
H45 C46 1_555 1_555
C50 C15 1_555 1_555
N15 C53 1_555 1_555
N16 C50 1_555 1_555
C51 C50 1_555 1_555
H50 C51 1_555 1_555
C53 N16 1_555 1_555
H51 C53 1_555 1_555
C54 N15 1_555 1_555
H52 C54 1_555 1_555
C55 N16 1_555 1_555
H53 C55 1_555 1_555
Cu7 N15 1_555 1_555
O83 Cu2 1_555 1_555
C34 C38 1_555 1_555
C36 C42 1_555 1_555
C45 C46 1_555 1_555
C54 C55 1_555 1_555
Cu1 N3 1_555 1_555
N1 C20 1_555 1_555
C1 N8 1_555 1_555
N2 C2 1_555 1_555
N3 C11 1_555 1_555
N4 Cu1 1_555 1_555
C3 N2 1_555 1_555
H1 C3 1_555 1_555
C4 H2 1_555 1_555
C5 H3 1_555 1_555
H4 C5 1_555 1_555
H5 C5 1_555 1_555
C6 N4 1_555 1_555
H6 C6 1_555 1_555
C7 N5 1_555 1_555
N5 C11 1_555 1_555
C8 C4 1_555 1_555
N6 C17 1_555 1_555
N7 Cu1 1_555 1_555
C9 C5 1_555 1_555
C11 H7 1_555 1_555
N8 C19 1_555 1_555
C12 C1 1_555 1_555
H8 C12 1_555 1_555
C13 N5 1_555 1_555
H9 C13 1_555 1_555
C14 C8 1_555 1_555
H10 C14 1_555 1_555
H11 C14 1_555 1_555
H12 C14 1_555 1_555
C17 C4 1_555 1_555
C18 N2 1_555 1_555
H16 C18 1_555 1_555
C19 N7 1_555 1_555
H17 C19 1_555 1_555
C20 N6 1_555 1_555
H18 C20 1_555 1_555
C21 N3 1_555 1_555
H19 C21 1_555 1_555
C22 N7 1_555 1_555
H20 C22 1_555 1_555
C23 C7 1_555 1_555
H21 C23 1_555 1_555
C24 C2 1_555 1_555
H22 C24 1_555 1_555
C25 N8 1_555 1_555
H23 C25 1_555 1_555
C27 N1 1_555 1_555
H27 C27 1_555 1_555
C28 N6 1_555 1_555
H28 C28 1_555 1_555
O6 Cu1 1_555 1_555
C52 C1 1_555 1_555
C56 C52 1_555 1_555
H54 C56 1_555 1_555
H55 C56 1_555 1_555
H56 C56 1_555 1_555
C60 C24 1_555 1_555
C61 C60 1_555 1_555
H59 C61 1_555 1_555
H60 C61 1_555 1_555
H61 C61 1_555 1_555
C70 C69 1_555 1_555
H69 C70 1_555 1_555
W13 O49 1_555 1_555
W14 O41 1_555 1_555
W15 O49 1_555 1_555
W17 O42 1_555 1_555
W19 O41 1_555 1_555
W20 O57 1_555 1_555
W21 O48 1_555 1_555
W22 O45 1_555 1_555
W23 O41 1_555 1_555
W24 O44 1_555 1_555
Ge2 O41 1_555 1_555
O43 W14 1_555 1_555
O48 W16 1_555 1_555
O49 W17 1_555 1_555
O50 W13 1_555 1_555
O51 W19 1_555 1_555
O52 W15 1_555 1_555
O53 W14 1_555 1_555
O54 W23 1_555 1_555
O55 W13 1_555 1_555
O57 W13 1_555 1_555
O58 W20 1_555 1_555
O59 W21 1_555 1_555
O60 W15 1_555 1_555
O61 W20 1_555 1_555
O62 W13 1_555 1_555
O63 W13 1_555 1_555
O64 W14 1_555 1_555
O65 W18 1_555 1_555
O66 W19 1_555 1_555
O67 W21 1_555 1_555
O68 W17 1_555 1_555
O69 W17 1_555 1_555
O70 W22 1_555 1_555
O71 W14 1_555 1_555
O72 W19 1_555 1_555
O73 W20 1_555 1_555
O74 W20 1_555 1_555
O75 W18 1_555 1_555
O76 W14 1_555 1_555
O77 W15 1_555 1_555
O78 W18 1_555 1_555
O79 W16 1_555 1_555
O80 W20 1_555 1_555
N25 C87 1_555 1_555
C86 C87 1_555 1_555
H86 C89 1_555 1_555
C94 C86 1_555 1_555
H90 C94 1_555 1_555
H91 C94 1_555 1_555
H92 C94 1_555 1_555
C95 H93 1_555 1_555
Cu6 O50 1_555 1_555
Cu9 N1 1_555 1_555
N30 Cu1 1_555 1_555
O82 Cu1 1_555 1_555
Cu12 O54 1_555 1_555
N4 C18 1_555 1_555
C3 C6 1_555 1_555
C7 C8 1_555 1_555
C9 C17 1_555 1_555
C9 C23 1_555 1_555
C13 C21 1_555 1_555
C22 C25 1_555 1_555
C27 C28 1_555 1_555
W15 O62 1_555 1_555
W15 O71 1_555 1_555
W16 O60 1_555 1_555
W16 O76 1_555 1_555
W17 O55 1_555 1_555
W17 O77 1_555 1_555
W18 O48 1_555 1_555
W19 O64 1_555 1_555
W19 O65 1_555 1_555
W21 O69 1_555 1_555
W21 O75 1_555 1_555
W21 O79 1_555 1_555
W22 O72 1_555 1_555
W22 O73 1_555 1_555
W22 O78 1_555 1_555
W22 O80 1_555 1_555
W23 O53 1_555 1_555
W23 O61 1_555 1_555
W23 O63 1_555 1_555
W23 O66 1_555 1_555
W24 O67 1_555 1_555
W24 O68 1_555 1_555
W24 O70 1_555 1_555
W24 O74 1_555 1_555
W24 O80 1_555 1_555
Ge2 O48 1_555 1_555
Ge2 O49 1_555 1_555
Ge2 O80 1_555 1_555
C86 C89 1_555 1_555
C10 C16 1_555 1_555
C16 H13 1_555 1_555
H14 C16 1_555 1_555
H15 C16 1_555 1_555
W1 O9 1_555 1_555
W2 O1 1_555 1_555
W3 O9 1_555 1_555
W5 O2 1_555 1_555
W7 O1 1_555 1_555
W8 O17 1_555 1_555
W9 O8 1_555 1_555
W10 O5 1_555 1_555
W11 O1 1_555 1_555
W12 O4 1_555 1_555
Ge1 O1 1_555 1_555
O3 W2 1_555 1_555
O8 W4 1_555 1_555
O9 W5 1_555 1_555
O10 W1 1_555 1_555
O11 W7 1_555 1_555
O12 W3 1_555 1_555
O13 W2 1_555 1_555
O14 W11 1_555 1_555
O15 W1 1_555 1_555
O17 W1 1_555 1_555
O18 W8 1_555 1_555
O19 W9 1_555 1_555
O20 W3 1_555 1_555
O21 W8 1_555 1_555
O22 W1 1_555 1_555
O23 W1 1_555 1_555
O24 W2 1_555 1_555
O25 W6 1_555 1_555
O26 W7 1_555 1_555
O27 W9 1_555 1_555
O28 W5 1_555 1_555
O29 W5 1_555 1_555
O30 W10 1_555 1_555
O31 W2 1_555 1_555
O32 W7 1_555 1_555
O33 W8 1_555 1_555
O34 W8 1_555 1_555
O35 W6 1_555 1_555
O36 W2 1_555 1_555
O37 W3 1_555 1_555
O38 W6 1_555 1_555
O39 W4 1_555 1_555
O40 W8 1_555 1_555
N11 C31 1_555 1_555
C30 C31 1_555 1_555
H30 C33 1_555 1_555
C35 H32 1_555 1_555
C40 C30 1_555 1_555
H36 C40 1_555 1_555
H37 C40 1_555 1_555
H38 C40 1_555 1_555
H39 C41 1_555 1_555
N17 C57 1_555 1_555
N18 C59 1_555 1_555
C58 N17 1_555 1_555
H57 C58 1_555 1_555
C59 C58 1_555 1_555
H58 C59 1_555 1_555
C62 N17 1_555 1_555
H62 C62 1_555 1_555
C63 C10 1_555 1_555
H63 C63 1_555 1_555
Cu7 N18 1_555 1_555
N21 C80 1_555 1_555
N22 Cu7 1_555 1_555
C71 H71 1_555 1_555
C72 H72 1_555 1_555
H73 C72 1_555 1_555
H74 C72 1_555 1_555
C73 N23 1_555 1_555
N23 C76 1_555 1_555
C74 C71 1_555 1_555
N24 C79 1_555 1_555
C75 C72 1_555 1_555
C76 N22 1_555 1_555
H75 C76 1_555 1_555
C77 N23 1_555 1_555
H76 C77 1_555 1_555
C78 C74 1_555 1_555
H77 C78 1_555 1_555
H78 C78 1_555 1_555
H79 C78 1_555 1_555
C79 C71 1_555 1_555
C80 N24 1_555 1_555
H80 C80 1_555 1_555
C81 N22 1_555 1_555
H81 C81 1_555 1_555
C82 C73 1_555 1_555
H82 C82 1_555 1_555
C83 N21 1_555 1_555
H83 C83 1_555 1_555
C84 N24 1_555 1_555
H84 C84 1_555 1_555
O46 Cu7 1_555 1_555
Cu6 N21 1_555 1_555
Cu9 O10 1_555 1_555
N29 Cu7 1_555 1_555
O81 Cu7 1_555 1_555
Cu10 O14 1_555 1_555
W3 O22 1_555 1_555
W3 O31 1_555 1_555
W4 O20 1_555 1_555
W4 O36 1_555 1_555
W5 O15 1_555 1_555
W5 O37 1_555 1_555
W6 O8 1_555 1_555
W7 O24 1_555 1_555
W7 O25 1_555 1_555
W9 O29 1_555 1_555
W9 O35 1_555 1_555
W9 O39 1_555 1_555
W10 O32 1_555 1_555
W10 O33 1_555 1_555
W10 O38 1_555 1_555
W10 O40 1_555 1_555
W11 O13 1_555 1_555
W11 O21 1_555 1_555
W11 O23 1_555 1_555
W11 O26 1_555 1_555
W12 O27 1_555 1_555
W12 O28 1_555 1_555
W12 O30 1_555 1_555
W12 O34 1_555 1_555
W12 O40 1_555 1_555
Ge1 O8 1_555 1_555
Ge1 O9 1_555 1_555
Ge1 O40 1_555 1_555
C30 C33 1_555 1_555
C57 C63 1_555 1_555
N18 C62 1_555 1_555
C73 C74 1_555 1_555
C75 C79 1_555 1_555
C75 C82 1_555 1_555
C77 C81 1_555 1_555
C83 C84 1_555 1_555
Cu11 N27 1_555 1_555
C85 N26 1_555 1_555
C90 H87 1_555 1_555
C92 C85 1_555 1_555
C96 C92 1_555 1_555
H94 C96 1_555 1_555
H95 C96 1_555 1_555
H96 C96 1_555 1_555
C97 N27 1_555 1_555
H97 C97 1_555 1_555
C98 N26 1_555 1_555
H98 C98 1_555 1_555
O84 Cu11 1_555 1_555
C90 C92 1_555 1_555
C97 C98 1_555 1_555
C39 C32 1_555 1_555
H35 C39 1_555 1_555
C1_2 N8_2 1_555 1_555
N2_2 C2_2 1_555 1_555
C2_2 C10_2 1_555 1_555
N4_2 Cu6 1_555 1_555
C3_2 N2_2 1_555 1_555
H1_2 C3_2 1_555 1_555
C6_2 N4_2 1_555 1_555
H6_2 C6_2 1_555 1_555
N7_2 Cu6 1_555 1_555
C10_2 C16_2 1_555 1_555
N8_2 C19_2 1_555 1_555
C12_2 C1_2 1_555 1_555
H8_2 C12_2 1_555 1_555
C15_2 C12_2 1_555 1_555
C16_2 H13_2 1_555 1_555
H14_2 C16_2 1_555 1_555
H15_2 C16_2 1_555 1_555
C18_2 N2_2 1_555 1_555
H16_2 C18_2 1_555 1_555
C19_2 N7_2 1_555 1_555
H17_2 C19_2 1_555 1_555
C22_2 N7_2 1_555 1_555
H20_2 C22_2 1_555 1_555
C25_2 N8_2 1_555 1_555
H23_2 C25_2 1_555 1_555
C26_2 C15_2 1_555 1_555
H24_2 C26_2 1_555 1_555
H25_2 C26_2 1_555 1_555
H26_2 C26_2 1_555 1_555
W10_2 O5_2 1_555 1_555
W12_2 O4_2 1_555 1_555
O30_2 W10_2 1_555 1_555
C29_2 N12_2 1_555 1_555
N11_2 C31_2 1_555 1_555
N12_2 C41_2 1_555 1_555
C30_2 C31_2 1_555 1_555
C31_2 C34_2 1_555 1_555
C32_2 N11_2 1_555 1_555
H29_2 C32_2 1_555 1_555
C33_2 C29_2 1_555 1_555
H30_2 C33_2 1_555 1_555
C34_2 H31_2 1_555 1_555
N14 C37 1_555 1_555
C37 N11_2 1_555 1_555
H34 C37 1_555 1_555
C38_2 C29_2 1_555 1_555
C39_2 C32_2 1_555 1_555
H35_2 C39_2 1_555 1_555
C40_2 C30_2 1_555 1_555
H36_2 C40_2 1_555 1_555
H37_2 C40_2 1_555 1_555
H38_2 C40_2 1_555 1_555
H39_2 C41_2 1_555 1_555
C44_2 C38_2 1_555 1_555
H41_2 C44_2 1_555 1_555
H42_2 C44_2 1_555 1_555
H43_2 C44_2 1_555 1_555
C46_2 N12_2 1_555 1_555
H45_2 C46_2 1_555 1_555
N4_2 C18_2 1_555 1_555
C3_2 C6_2 1_555 1_555
C22_2 C25_2 1_555 1_555
W10_2 O33_2 1_555 1_555
W10_2 O38_2 1_555 1_555
W12_2 O27_2 1_555 1_555
W12_2 O30_2 1_555 1_555
W12_2 O34_2 1_555 1_555
C30_2 C33_2 1_555 1_555
C34_2 C38_2 1_555 1_555
N14 C39_2 1_555 1_555
C83_2 N30 1_555 1_555
H83_2 C83_2 1_555 1_555
H63_2 C63_2 1_555 1_555
C71_2 H71_2 1_555 1_555
C72_2 H72_2 1_555 1_555
H73_2 C72_2 1_555 1_555
H74_2 C72_2 1_555 1_555
C73_2 N23_2 1_555 1_555
N23_2 C76_2 1_555 1_555
C74_2 C71_2 1_555 1_555
N24_2 C79_2 1_555 1_555
C75_2 C72_2 1_555 1_555
C76_2 N22_2 1_555 1_555
C77_2 N23_2 1_555 1_555
H76_2 C77_2 1_555 1_555
C78_2 C74_2 1_555 1_555
H77_2 C78_2 1_555 1_555
H78_2 C78_2 1_555 1_555
C79_2 C71_2 1_555 1_555
C80_2 N24_2 1_555 1_555
H80_2 C80_2 1_555 1_555
C81_2 N22_2 1_555 1_555
H81_2 C81_2 1_555 1_555
C82_2 C73_2 1_555 1_555
H82_2 C82_2 1_555 1_555
C84_2 N24_2 1_555 1_555
H84_2 C84_2 1_555 1_555
W13_2 O49_2 1_555 1_555
W14_2 O41_2 1_555 1_555
W15_2 O49_2 1_555 1_555
W16_2 O47_2 1_555 1_555
W17_2 O42_2 1_555 1_555
W18_2 O46_2 1_555 1_555
W19_2 O41_2 1_555 1_555
W20_2 O57_2 1_555 1_555
W21_2 O48_2 1_555 1_555
W23_2 O41_2 1_555 1_555
Ge2_2 O41_2 1_555 1_555
O42_2 Cu12 1_555 1_555
O43_2 W14_2 1_555 1_555
O48_2 W16_2 1_555 1_555
O49_2 W17_2 1_555 1_555
O82 W13_2 1_555 1_555
O51_2 W19_2 1_555 1_555
O52_2 W15_2 1_555 1_555
O53_2 W14_2 1_555 1_555
O84 W23_2 1_555 1_555
O55_2 W13_2 1_555 1_555
O56_2 W16_2 1_555 1_555
O57_2 W13_2 1_555 1_555
O58_2 W20_2 1_555 1_555
O59_2 W21_2 1_555 1_555
O60_2 W15_2 1_555 1_555
O61_2 W20_2 1_555 1_555
O62_2 W13_2 1_555 1_555
O63_2 W13_2 1_555 1_555
O64_2 W14_2 1_555 1_555
O65_2 W18_2 1_555 1_555
O66_2 W19_2 1_555 1_555
O68_2 W17_2 1_555 1_555
O69_2 W17_2 1_555 1_555
O71_2 W14_2 1_555 1_555
O72_2 W19_2 1_555 1_555
O75_2 W18_2 1_555 1_555
O76_2 W14_2 1_555 1_555
O77_2 W15_2 1_555 1_555
O79_2 W16_2 1_555 1_555
O80_2 W20_2 1_555 1_555
Cu12 N27_2 1_555 1_555
C97_2 N27_2 1_555 1_555
H97_2 C97_2 1_555 1_555
N32 Cu12 1_555 1_555
C73_2 C74_2 1_555 1_555
C75_2 C79_2 1_555 1_555
C75_2 C82_2 1_555 1_555
C77_2 C81_2 1_555 1_555
W15_2 O62_2 1_555 1_555
W15_2 O71_2 1_555 1_555
W16_2 O60_2 1_555 1_555
W16_2 O76_2 1_555 1_555
W17_2 O55_2 1_555 1_555
W17_2 O77_2 1_555 1_555
W18_2 O48_2 1_555 1_555
W18_2 O56_2 1_555 1_555
W19_2 O64_2 1_555 1_555
W19_2 O65_2 1_555 1_555
W21_2 O69_2 1_555 1_555
W21_2 O75_2 1_555 1_555
W21_2 O79_2 1_555 1_555
W23_2 O53_2 1_555 1_555
W23_2 O61_2 1_555 1_555
W23_2 O63_2 1_555 1_555
W23_2 O66_2 1_555 1_555
Ge2_2 O48_2 1_555 1_555
Ge2_2 O49_2 1_555 1_555
Ge2_2 O80_2 1_555 1_555
N3_2 C11_2 1_555 1_555
C4_2 H2_2 1_555 1_555
C5_2 H3_2 1_555 1_555
H4_2 C5_2 1_555 1_555
H5_2 C5_2 1_555 1_555
C7_2 N5_2 1_555 1_555
N5_2 C11_2 1_555 1_555
C8_2 C4_2 1_555 1_555
N6_2 C17_2 1_555 1_555
C9_2 C5_2 1_555 1_555
C13_2 N5_2 1_555 1_555
H9_2 C13_2 1_555 1_555
C14_2 C8_2 1_555 1_555
H10_2 C14_2 1_555 1_555
H11_2 C14_2 1_555 1_555
C17_2 C4_2 1_555 1_555
C20_2 N6_2 1_555 1_555
H18_2 C20_2 1_555 1_555
C21_2 N3_2 1_555 1_555
H19_2 C21_2 1_555 1_555
C23_2 C7_2 1_555 1_555
H21_2 C23_2 1_555 1_555
H22_2 C24_2 1_555 1_555
C28_2 N6_2 1_555 1_555
H28_2 C28_2 1_555 1_555
W1_2 O9_2 1_555 1_555
W2_2 O1_2 1_555 1_555
W3_2 O9_2 1_555 1_555
W4_2 O7_2 1_555 1_555
W5_2 O2_2 1_555 1_555
W6_2 O6_2 1_555 1_555
W7_2 O1_2 1_555 1_555
W8_2 O17_2 1_555 1_555
W9_2 O8_2 1_555 1_555
W11_2 O1_2 1_555 1_555
Ge1_2 O1_2 1_555 1_555
O2_2 Cu10 1_555 1_555
O3_2 W2_2 1_555 1_555
O8_2 W4_2 1_555 1_555
O9_2 W5_2 1_555 1_555
O81 W1_2 1_555 1_555
O11_2 W7_2 1_555 1_555
O12_2 W3_2 1_555 1_555
O13_2 W2_2 1_555 1_555
O83 W11_2 1_555 1_555
O15_2 W1_2 1_555 1_555
O16_2 W4_2 1_555 1_555
O17_2 W1_2 1_555 1_555
O18_2 W8_2 1_555 1_555
O19_2 W9_2 1_555 1_555
O20_2 W3_2 1_555 1_555
O21_2 W8_2 1_555 1_555
O22_2 W1_2 1_555 1_555
O23_2 W1_2 1_555 1_555
O24_2 W2_2 1_555 1_555
O25_2 W6_2 1_555 1_555
O26_2 W7_2 1_555 1_555
O28_2 W5_2 1_555 1_555
O29_2 W5_2 1_555 1_555
O31_2 W2_2 1_555 1_555
O32_2 W7_2 1_555 1_555
O35_2 W6_2 1_555 1_555
O36_2 W2_2 1_555 1_555
O37_2 W3_2 1_555 1_555
O39_2 W4_2 1_555 1_555
O40_2 W8_2 1_555 1_555
Cu10 N9_2 1_555 1_555
N9_2 C35_2 1_555 1_555
N10_2 C35_2 1_555 1_555
N13_2 Cu10 1_555 1_555
C35_2 H32_2 1_555 1_555
C36_2 N10_2 1_555 1_555
H33_2 C36_2 1_555 1_555
C42_2 N9_2 1_555 1_555
H40_2 C42_2 1_555 1_555
C43_2 N10_2 1_555 1_555
C45_2 N13_2 1_555 1_555
H44_2 C45_2 1_555 1_555
C47 C43_2 1_555 1_555
H46 C47 1_555 1_555
C48_2 C43_2 1_555 1_555
C49_2 C48_2 1_555 1_555
H47_2 C49_2 1_555 1_555
H48_2 C49_2 1_555 1_555
H49 C49_2 1_555 1_555
N15_2 C53_2 1_555 1_555
N16_2 C50_2 1_555 1_555
C51_2 C50_2 1_555 1_555
H50_2 C51_2 1_555 1_555
C53_2 N16_2 1_555 1_555
H51_2 C53_2 1_555 1_555
C54_2 N15_2 1_555 1_555
H52_2 C54_2 1_555 1_555
C55_2 N16_2 1_555 1_555
H53_2 C55_2 1_555 1_555
C56_2 C52_2 1_555 1_555
H54_2 C56_2 1_555 1_555
H55_2 C56_2 1_555 1_555
H56_2 C56_2 1_555 1_555
N32 C64_2 1_555 1_555
N20_2 C64_2 1_555 1_555
C64_2 H64_2 1_555 1_555
C65_2 N20_2 1_555 1_555
H65_2 C65_2 1_555 1_555
C66_2 N32 1_555 1_555
H66_2 C66_2 1_555 1_555
C67_2 N20_2 1_555 1_555
C68 C48_2 1_555 1_555
H67 C68 1_555 1_555
C69_2 C47 1_555 1_555
C70_2 C69_2 1_555 1_555
H68_2 C70_2 1_555 1_555
H69_2 C70_2 1_555 1_555
H70 C70_2 1_555 1_555
Cu9 N15_2 1_555 1_555
C7_2 C8_2 1_555 1_555
C9_2 C17_2 1_555 1_555
C9_2 C23_2 1_555 1_555
C13_2 C21_2 1_555 1_555
W3_2 O22_2 1_555 1_555
W3_2 O31_2 1_555 1_555
W4_2 O20_2 1_555 1_555
W4_2 O36_2 1_555 1_555
W5_2 O15_2 1_555 1_555
W5_2 O37_2 1_555 1_555
W6_2 O8_2 1_555 1_555
W6_2 O16_2 1_555 1_555
W7_2 O24_2 1_555 1_555
W7_2 O25_2 1_555 1_555
W9_2 O29_2 1_555 1_555
W9_2 O35_2 1_555 1_555
W9_2 O39_2 1_555 1_555
W11_2 O13_2 1_555 1_555
W11_2 O21_2 1_555 1_555
W11_2 O23_2 1_555 1_555
W11_2 O26_2 1_555 1_555
Ge1_2 O8_2 1_555 1_555
Ge1_2 O9_2 1_555 1_555
Ge1_2 O40_2 1_555 1_555
C36_2 C42_2 1_555 1_555
C51_2 C52_2 1_555 1_555
C54_2 C55_2 1_555 1_555
C65_2 C66_2 1_555 1_555
C67_2 C68 1_555 1_555
C67_2 C69_2 1_555 1_555
C27_2 N29 1_555 1_555
H27_2 C27_2 1_555 1_555
N17_2 C57_2 1_555 1_555
C57_2 C60_2 1_555 1_555
N18_2 C59_2 1_555 1_555
C58_2 N17_2 1_555 1_555
H57_2 C58_2 1_555 1_555
C59_2 C58_2 1_555 1_555
H58_2 C59_2 1_555 1_555
C61_2 C60_2 1_555 1_555
H59_2 C61_2 1_555 1_555
H60_2 C61_2 1_555 1_555
H61_2 C61_2 1_555 1_555
C62_2 N17_2 1_555 1_555
H62_2 C62_2 1_555 1_555
Cu9 N18_2 1_555 1_555
W22_2 O45_2 1_555 1_555
W24_2 O44_2 1_555 1_555
O70_2 W22_2 1_555 1_555
C85_2 N26_2 1_555 1_555
N25_2 C87_2 1_555 1_555
N26_2 C95_2 1_555 1_555
C86_2 C87_2 1_555 1_555
C87_2 C90_2 1_555 1_555
C88_2 N25_2 1_555 1_555
H85_2 C88_2 1_555 1_555
C89_2 C85_2 1_555 1_555
H86_2 C89_2 1_555 1_555
C90_2 H87_2 1_555 1_555
N28 C91 1_555 1_555
C91 N25_2 1_555 1_555
H88 C91 1_555 1_555
C92_2 C85_2 1_555 1_555
C93_2 C88_2 1_555 1_555
H89_2 C93_2 1_555 1_555
C94_2 C86_2 1_555 1_555
H90_2 C94_2 1_555 1_555
H91_2 C94_2 1_555 1_555
H92_2 C94_2 1_555 1_555
C95_2 H93_2 1_555 1_555
C96_2 C92_2 1_555 1_555
H94_2 C96_2 1_555 1_555
H95_2 C96_2 1_555 1_555
H96_2 C96_2 1_555 1_555
C98_2 N26_2 1_555 1_555
H98_2 C98_2 1_555 1_555
N18_2 C62_2 1_555 1_555
W22_2 O73_2 1_555 1_555
W22_2 O78_2 1_555 1_555
W24_2 O67_2 1_555 1_555
W24_2 O70_2 1_555 1_555
W24_2 O74_2 1_555 1_555
C86_2 C89_2 1_555 1_555
C90_2 C92_2 1_555 1_555
N28 C93_2 1_555 1_555
H67_2 C68_2 1_555 1_555
N28_2 C91_2 1_555 1_555
H88_2 C91_2 1_555 1_555
H46_2 C47_2 1_555 1_555
N14_2 C37_2 1_555 1_555
H34_2 C37_2 1_555 1_555

#END
