
###############################################################################
#
# This file contains modified crystal structure data generated from the
# MOF subset of the Cambridge Structural Database (CSD) v543 
# hosted by the Cambridge Crystallographic Data Centre (CCDC).
#
# This work is licensed under the Creative Commons
# Attribution-NonCommercial-ShareAlike 4.0 International License.
# To view a copy of this license, visit
# http://creativecommons.org/licenses/by-nc-sa/4.0/
# or send a letter to
# Creative Commons, PO Box 1866, Mountain View, CA 94042, USA.
#
# CIF created using the CSD Python API on 29 September 2022
# The structure has been converted into the P1 space group
# The structure has a 3D framework
# The original CSD entry DOMDAL is in the tetragonal crystal system
# The framework has been calculated to contain at least 10.0% void space
# The void calculation uses a probe of radius 1.32A, grid spacing 0.4
#
###############################################################################

data_DOMDAL
_chemical_formula_moiety         '(C448 H272 Cl192 N32 O138 Tb16)n'
_symmetry_cell_setting           triclinic
_symmetry_space_group_name_H-M   'P 1'
_symmetry_Int_Tables_number      1
_space_group_name_Hall           'P 1'
loop_
_symmetry_equiv_pos_site_id
_symmetry_equiv_pos_as_xyz
1 x,y,z
_cell_length_a                   28.486(5)
_cell_length_b                   28.486(5)
_cell_length_c                   46.678(5)
_cell_angle_alpha                90
_cell_angle_beta                 90
_cell_angle_gamma                90
_cell_volume                     37877
loop_
_atom_site_label
_atom_site_type_symbol
_atom_site_fract_x
_atom_site_fract_y
_atom_site_fract_z
Tb1 Tb 0.79547(2) 0.16387(2) 0.254157(13)
C1 C 0.6781(5) 0.0934(4) 0.3020(5)
C2 C 0.6425(5) 0.0684(5) 0.2881(3)
C3 C 0.6000(4) 0.0610(4) 0.3007(3)
C4 C 0.5903(4) 0.0758(4) 0.3281(2)
C5 C 0.6269(5) 0.0969(4) 0.3424(2)
C6 C 0.6709(4) 0.1051(4) 0.3298(3)
C7 C 0.5424(4) 0.0697(7) 0.3405(3)
H1 H 0.5392 0.0378 0.3330
C8 C 0.3732(5) 0.1365(4) 0.2789(3)
C9 C 0.4177(4) 0.1188(4) 0.2957(2)
C10 C 0.4198(4) 0.0749(4) 0.3074(2)
C11 C 0.4600(5) 0.0600(4) 0.3218(2)
C12 C 0.5004(4) 0.0871(4) 0.32483(19)
C13 C 0.4986(4) 0.1318(4) 0.3121(2)
C14 C 0.4579(4) 0.1472(3) 0.2976(2)
C15 C 0.5051(6) 0.0041(5) 0.4565(3)
C16 C 0.5150(4) 0.0214(4) 0.4270(2)
C17 C 0.5006(3) 0.0644(4) 0.4180(2)
C18 C 0.5111(4) 0.0812(4) 0.3908(2)
C19 C 0.5353(4) 0.0546(4) 0.3710(2)
C20 C 0.5511(4) 0.0115(5) 0.3800(2)
C22 C 0.8537(6) 0.2596(9) 0.2612(3)
H2 H 0.8279 0.2731 0.2545
C23 C 0.9327(9) 0.2682(11) 0.2780(6)
H3 H 0.9391 0.2776 0.2973
H4 H 0.9582 0.2776 0.2658
H5 H 0.9292 0.2347 0.2772
C24 C 0.8871(8) 0.3426(8) 0.2662(5)
H6 H 0.8554 0.3512 0.2615
H7 H 0.9079 0.3535 0.2515
H8 H 0.8957 0.3565 0.2842
C25 C 0.7698(7) 0.1019(8) 0.1957(6)
H9 H 0.7847 0.1236 0.1847
C26 C 0.7571(9) 0.0603(9) 0.1498(5)
H10 H 0.7742 0.0872 0.1431
H11 H 0.7269 0.0592 0.1407
H12 H 0.7743 0.0323 0.1452
N1 N 0.7510(6) 0.0635(7) 0.1811(5)
N2 N 0.8906(7) 0.2900(6) 0.2685(3)
O1 O 0.7281(6) 0.1295(6) 0.2742(3)
O2 O 0.7493(9) 0.0811(10) 0.2962(6)
O3 O 0.3476(3) 0.1641(3) 0.29144(19)
O4 O 0.3658(4) 0.1215(3) 0.2555(2)
O6 O 0.5354(4) 0.0090(3) 0.4757(2)
O7 O 0.8539(4) 0.2188(4) 0.2628(2)
O8 O 0.7658(4) 0.1069(4) 0.2213(2)
O9 O 0.8375(5) 0.1296(5) 0.2976(3)
H13 H 0.8192 0.1281 0.3112
Cl1 Cl 0.65424(18) 0.04925(18) 0.25341(10)
Cl2 Cl 0.55925(13) 0.03083(13) 0.28092(8)
Cl3 Cl 0.61937(11) 0.11727(12) 0.37772(6)
Cl4 Cl 0.71430(13) 0.13292(16) 0.34901(10)
Cl5 Cl 0.37107(13) 0.03974(12) 0.30546(9)
Cl6 Cl 0.45896(12) 0.00313(11) 0.33537(8)
Cl7 Cl 0.54419(9) 0.16999(11) 0.31439(6)
Cl8 Cl 0.45628(12) 0.20219(10) 0.28251(7)
Cl9 Cl 0.46993(11) 0.09915(10) 0.44179(6)
Cl10 Cl 0.49451(10) 0.13807(10) 0.38254(6)
C27 C 0.7143(7) 0.1033(9) 0.2890(6)
C28 C 0.7287(19) 0.0269(16) 0.1941(8)
H14 H 0.7187 0.0047 0.1799
H15 H 0.7019 0.0384 0.2044
H16 H 0.7499 0.0119 0.2072
H17 H 0.8394 0.1522 0.3097
Tb2 Tb 0.29547(2) 0.16387(2) 0.245843(13)
Tb4 Tb 0.58613(2) 0.04547(2) 0.504157(13)
O10 O 0.8476(3) 0.1641(3) 0.20856(19)
O11 O 0.8658(4) 0.1215(3) 0.2445(2)
O12 O 0.7657(3) 0.2162(4) 0.29072(17)
O13 O 0.7590(3) 0.2146(4) 0.2257(2)
C21 C 0.5400(4) 0.9950(4) 0.4084(2)
O5 O 0.4662(4) 0.9843(3) 0.45928(17)
Cl11 Cl 0.58138(14) 0.97403(14) 0.35717(7)
Cl12 Cl 0.55979(15) 0.93952(12) 0.41843(8)
Tb3 Tb 0.41387(2) 0.95453(2) 0.495843(13)
C22_2 C 0.4904(9) 0.1037(6) 0.5112(3)
H2_2 H 0.4769 0.0779 0.5045
C23_2 C 0.4818(11) 0.1827(9) 0.5280(6)
H3_2 H 0.4724 0.1891 0.5473
H4_2 H 0.4724 0.2082 0.5158
H5_2 H 0.5153 0.1792 0.5272
C24_2 C 0.4074(8) 0.1371(8) 0.5162(5)
H6_2 H 0.3988 0.1054 0.5115
H7_2 H 0.3965 0.1579 0.5015
H8_2 H 0.3935 0.1457 0.5342
C25_2 C 0.6481(8) 0.0198(7) 0.4457(6)
H9_2 H 0.6264 0.0347 0.4347
C26_2 C 0.6897(9) 0.0071(9) 0.3998(5)
H10_2 H 0.6628 0.0242 0.3931
H12_2 H 0.7177 0.0243 0.3952
N1_2 N 0.6865(7) 0.0010(6) 0.4311(5)
N2_2 N 0.4600(6) 0.1406(7) 0.5185(3)
O7_2 O 0.5312(4) 0.1039(4) 0.5128(2)
O8_2 O 0.6431(4) 0.0158(4) 0.4713(2)
O9_2 O 0.6204(5) 0.0875(5) 0.5476(3)
H13_2 H 0.6219 0.0692 0.5612
H17_2 H 0.5978 0.0894 0.5597
O10_2 O 0.5859(3) 0.0976(3) 0.45856(19)
O11_2 O 0.6285(3) 0.1158(4) 0.4945(2)
O12_2 O 0.5338(4) 0.0157(3) 0.54072(17)
C1_2 C 0.6566(4) 0.9281(5) 0.5520(5)
C2_2 C 0.6816(5) 0.8925(5) 0.5381(3)
C3_2 C 0.6890(4) 0.8500(4) 0.5507(3)
C4_2 C 0.6742(4) 0.8403(4) 0.5781(2)
C5_2 C 0.6531(4) 0.8769(5) 0.5924(2)
C6_2 C 0.6449(4) 0.9209(4) 0.5798(3)
C7_2 C 0.6803(7) 0.7924(4) 0.5905(3)
H1_2 H 0.7122 0.7892 0.5830
C8_2 C 0.6135(4) 0.6232(5) 0.5289(3)
C9_2 C 0.6312(4) 0.6677(4) 0.5457(2)
C10_2 C 0.6751(4) 0.6698(4) 0.5574(2)
C11_2 C 0.6900(4) 0.7100(5) 0.5718(2)
C12_2 C 0.6629(4) 0.7504(4) 0.57483(19)
C13_2 C 0.6182(4) 0.7486(4) 0.5621(2)
C14_2 C 0.6028(3) 0.7079(4) 0.5476(2)
C15_2 C 0.7459(5) 0.7551(6) 0.7065(3)
C16_2 C 0.7286(4) 0.7650(4) 0.6770(2)
C17_2 C 0.6856(4) 0.7506(3) 0.6680(2)
C18_2 C 0.6688(4) 0.7611(4) 0.6408(2)
C19_2 C 0.6954(4) 0.7853(4) 0.6210(2)
C20_2 C 0.7385(5) 0.8011(4) 0.6300(2)
C21_2 C 0.7550(4) 0.7900(4) 0.6584(2)
H11_2 H 0.6908 0.9769 0.3907
O1_2 O 0.6205(6) 0.9781(6) 0.5242(3)
O2_2 O 0.6689(10) 0.9993(9) 0.5462(6)
O3_2 O 0.5859(3) 0.5976(3) 0.54144(19)
O4_2 O 0.6285(3) 0.6158(4) 0.5055(2)
O5_2 O 0.7657(3) 0.7162(4) 0.70928(17)
O6_2 O 0.7410(3) 0.7854(4) 0.7257(2)
Cl1_2 Cl 0.70075(18) 0.90424(18) 0.50341(10)
Cl2_2 Cl 0.71917(13) 0.80925(13) 0.53092(8)
Cl3_2 Cl 0.63273(12) 0.86937(11) 0.62772(6)
Cl4_2 Cl 0.61708(16) 0.96430(13) 0.59901(10)
Cl5_2 Cl 0.71026(12) 0.62107(13) 0.55546(9)
Cl6_2 Cl 0.74687(11) 0.70896(12) 0.58537(8)
Cl7_2 Cl 0.58001(11) 0.79419(9) 0.56439(6)
Cl8_2 Cl 0.54781(10) 0.70628(12) 0.53251(7)
Cl9_2 Cl 0.65085(10) 0.71993(11) 0.69179(6)
Cl10_2 Cl 0.61193(10) 0.74451(10) 0.63254(6)
Cl11_2 Cl 0.77597(14) 0.83138(14) 0.60717(7)
Cl12_2 Cl 0.81048(12) 0.80979(15) 0.66843(8)
C27_2 C 0.6467(9) 0.9643(7) 0.5390(6)
C28_2 C 0.7231(16) 0.9787(19) 0.4441(8)
H14_2 H 0.7453 0.9687 0.4299
H15_2 H 0.7116 0.9519 0.4544
H16_2 H 0.7381 0.9999 0.4572
Tb2_2 Tb 0.58613(2) 0.54547(2) 0.495843(13)
Tb3_2 Tb 0.79547(2) 0.66387(2) 0.745843(13)
Tb4_2 Tb 0.70453(2) 0.83613(2) 0.754157(13)
Tb1_2 Tb 0.41387(2) 0.45453(2) 0.504157(13)
C1_3 C 0.3434(4) 0.5719(5) 0.5520(5)
C2_3 C 0.3184(5) 0.6075(5) 0.5381(3)
C3_3 C 0.3110(4) 0.6500(4) 0.5507(3)
C4_3 C 0.3258(4) 0.6597(4) 0.5781(2)
C5_3 C 0.3469(4) 0.6231(5) 0.5924(2)
C6_3 C 0.3551(4) 0.5791(4) 0.5798(3)
C7_3 C 0.3197(7) 0.7076(4) 0.5905(3)
H1_3 H 0.2878 0.7108 0.5830
C8_3 C 0.3865(4) 0.8768(5) 0.5289(3)
C9_3 C 0.3688(4) 0.8323(4) 0.5457(2)
C10_3 C 0.3249(4) 0.8302(4) 0.5574(2)
C11_3 C 0.3100(4) 0.7900(5) 0.5718(2)
C12_3 C 0.3371(4) 0.7496(4) 0.57483(19)
C13_3 C 0.3818(4) 0.7514(4) 0.5621(2)
C14_3 C 0.3972(3) 0.7921(4) 0.5476(2)
C15_3 C 0.2541(5) 0.7449(6) 0.7065(3)
C16_3 C 0.2714(4) 0.7350(4) 0.6770(2)
C17_3 C 0.3144(4) 0.7494(3) 0.6680(2)
C18_3 C 0.3312(4) 0.7389(4) 0.6408(2)
C19_3 C 0.3046(4) 0.7147(4) 0.6210(2)
C20_3 C 0.2615(5) 0.6989(4) 0.6300(2)
C21_3 C 0.2450(4) 0.7100(4) 0.6584(2)
C22_3 C 0.5096(9) 0.3963(6) 0.5112(3)
H2_3 H 0.5231 0.4221 0.5045
C23_3 C 0.5182(11) 0.3173(9) 0.5280(6)
H3_3 H 0.5276 0.3109 0.5473
H4_3 H 0.5276 0.2918 0.5158
H5_3 H 0.4847 0.3208 0.5272
C24_3 C 0.5926(8) 0.3629(8) 0.5162(5)
H6_3 H 0.6012 0.3946 0.5115
H7_3 H 0.6035 0.3421 0.5015
H8_3 H 0.6065 0.3543 0.5342
C25_3 C 0.3519(8) 0.4802(7) 0.4457(6)
H9_3 H 0.3736 0.4653 0.4347
C26_3 C 0.3103(9) 0.4929(9) 0.3998(5)
H10_3 H 0.3372 0.4758 0.3931
H11_3 H 0.3092 0.5231 0.3907
H12_3 H 0.2823 0.4757 0.3952
N1_3 N 0.3135(7) 0.4990(6) 0.4311(5)
N2_3 N 0.5400(6) 0.3594(7) 0.5185(3)
O1_3 O 0.3795(6) 0.5219(6) 0.5242(3)
O2_3 O 0.3311(10) 0.5007(9) 0.5462(6)
O3_3 O 0.4141(3) 0.9024(3) 0.54144(19)
O4_3 O 0.3715(3) 0.8842(4) 0.5055(2)
O5_3 O 0.2343(3) 0.7838(4) 0.70928(17)
O6_3 O 0.2590(3) 0.7146(4) 0.7257(2)
O7_3 O 0.4688(4) 0.3961(4) 0.5128(2)
O8_3 O 0.3569(4) 0.4842(4) 0.4713(2)
O9_3 O 0.3796(5) 0.4125(5) 0.5476(3)
H13_3 H 0.3781 0.4308 0.5612
Cl1_3 Cl 0.29925(18) 0.59576(18) 0.50341(10)
Cl2_3 Cl 0.28083(13) 0.69075(13) 0.53092(8)
Cl3_3 Cl 0.36727(12) 0.63063(11) 0.62772(6)
Cl4_3 Cl 0.38292(16) 0.53570(13) 0.59901(10)
Cl5_3 Cl 0.28974(12) 0.87893(13) 0.55546(9)
Cl6_3 Cl 0.25313(11) 0.79104(12) 0.58537(8)
Cl7_3 Cl 0.41999(11) 0.70581(9) 0.56439(6)
Cl8_3 Cl 0.45219(10) 0.79372(12) 0.53251(7)
Cl9_3 Cl 0.34915(10) 0.78007(11) 0.69179(6)
Cl10_3 Cl 0.38807(10) 0.75549(10) 0.63254(6)
Cl11_3 Cl 0.22403(14) 0.66862(14) 0.60717(7)
Cl12_3 Cl 0.18952(12) 0.69021(15) 0.66843(8)
C27_3 C 0.3533(9) 0.5357(7) 0.5390(6)
C28_3 C 0.2769(16) 0.5213(19) 0.4441(8)
H14_3 H 0.2547 0.5313 0.4299
H15_3 H 0.2884 0.5481 0.4544
H16_3 H 0.2619 0.5001 0.4572
H17_3 H 0.4022 0.4106 0.5597
Tb3_3 Tb 0.20453(2) 0.83613(2) 0.745843(13)
Tb4_3 Tb 0.29547(2) 0.66387(2) 0.754157(13)
O10_3 O 0.4141(3) 0.4024(3) 0.45856(19)
O11_3 O 0.3715(3) 0.3842(4) 0.4945(2)
O12_3 O 0.4662(4) 0.4843(3) 0.54072(17)
O13_2 O 0.4646(4) 0.4910(3) 0.4757(2)
Tb4_4 Tb 0.08613(2) 0.54547(2) 0.004157(13)
C1_4 C 0.1781(5) 0.5934(4) 0.8020(5)
C2_4 C 0.1425(5) 0.5684(5) 0.7881(3)
C3_4 C 0.1000(4) 0.5610(4) 0.8007(3)
C4_4 C 0.0903(4) 0.5758(4) 0.8281(2)
C5_4 C 0.1269(5) 0.5969(4) 0.8424(2)
C6_4 C 0.1709(4) 0.6051(4) 0.8298(3)
C7_4 C 0.0424(4) 0.5697(7) 0.8405(3)
H1_4 H 0.0392 0.5378 0.8330
C12_4 C 0.0004(4) 0.5871(4) 0.82483(19)
C15_4 C 0.0051(6) 0.5041(5) 0.9565(3)
C16_4 C 0.0150(4) 0.5214(4) 0.9270(2)
C17_4 C 0.0006(3) 0.5644(4) 0.9180(2)
C18_4 C 0.0111(4) 0.5812(4) 0.8908(2)
C19_4 C 0.0353(4) 0.5546(4) 0.8710(2)
C20_4 C 0.0511(4) 0.5115(5) 0.8800(2)
C21_4 C 0.0400(4) 0.4950(4) 0.9084(2)
C22_4 C 0.3537(6) 0.7596(9) 0.7612(3)
H2_4 H 0.3279 0.7731 0.7545
C23_4 C 0.4327(9) 0.7682(11) 0.7780(6)
H3_4 H 0.4391 0.7776 0.7973
H4_4 H 0.4582 0.7776 0.7658
H5_4 H 0.4292 0.7347 0.7772
C24_4 C 0.3871(8) 0.8426(8) 0.7662(5)
H6_4 H 0.3554 0.8512 0.7615
H7_4 H 0.4079 0.8535 0.7515
H8_4 H 0.3957 0.8565 0.7842
C25_4 C 0.2698(7) 0.6019(8) 0.6957(6)
H9_4 H 0.2847 0.6236 0.6847
C26_4 C 0.2571(9) 0.5603(9) 0.6498(5)
H10_4 H 0.2742 0.5872 0.6431
H11_4 H 0.2269 0.5592 0.6407
H12_4 H 0.2743 0.5323 0.6452
N1_4 N 0.2510(6) 0.5635(7) 0.6811(5)
N2_4 N 0.3906(7) 0.7900(6) 0.7685(3)
O1_4 O 0.2281(6) 0.6295(6) 0.7742(3)
O2_4 O 0.2493(9) 0.5811(10) 0.7962(6)
O6_4 O 0.0354(4) 0.5090(3) 0.9757(2)
O7_4 O 0.3539(4) 0.7188(4) 0.7628(2)
O8_4 O 0.2658(4) 0.6069(4) 0.7213(2)
O9_4 O 0.3375(5) 0.6296(5) 0.7976(3)
H13_4 H 0.3192 0.6281 0.8112
Cl1_4 Cl 0.15424(18) 0.54925(18) 0.75341(10)
Cl2_4 Cl 0.05925(13) 0.53083(13) 0.78092(8)
Cl3_4 Cl 0.11937(11) 0.61727(12) 0.87772(6)
Cl4_4 Cl 0.21430(13) 0.63292(16) 0.84901(10)
Cl7_4 Cl 0.04419(9) 0.66999(11) 0.81439(6)
Cl11_4 Cl 0.08138(14) 0.47403(14) 0.85717(7)
Cl12_4 Cl 0.05979(15) 0.43952(12) 0.91843(8)
C27_4 C 0.2143(7) 0.6033(9) 0.7890(6)
C28_4 C 0.2287(19) 0.5269(16) 0.6941(8)
H14_4 H 0.2187 0.5047 0.6799
H15_4 H 0.2019 0.5384 0.7044
H16_4 H 0.2499 0.5119 0.7072
H17_4 H 0.3394 0.6522 0.8097
O10_4 O 0.3476(3) 0.6641(3) 0.70856(19)
O11_4 O 0.3658(4) 0.6215(3) 0.7445(2)
O12_4 O 0.2657(3) 0.7162(4) 0.79072(17)
C8_4 C 0.8732(5) 0.6365(4) 0.7789(3)
C9_4 C 0.9177(4) 0.6188(4) 0.7957(2)
C10_4 C 0.9198(4) 0.5749(4) 0.8074(2)
C11_4 C 0.9600(5) 0.5600(4) 0.8218(2)
C13_4 C 0.9986(4) 0.6318(4) 0.8121(2)
C14_4 C 0.9579(4) 0.6472(3) 0.7976(2)
O3_4 O 0.8476(3) 0.6641(3) 0.79144(19)
O4_4 O 0.8658(4) 0.6215(3) 0.7555(2)
O5_4 O 0.9662(4) 0.4843(3) 0.95928(17)
Cl5_4 Cl 0.87107(13) 0.53974(12) 0.80546(9)
Cl6_4 Cl 0.95896(12) 0.50313(11) 0.83537(8)
Cl8_4 Cl 0.95628(12) 0.70219(10) 0.78251(7)
Cl9_4 Cl 0.96993(11) 0.59915(10) 0.94179(6)
Cl10_4 Cl 0.99451(10) 0.63807(10) 0.88254(6)
Tb3_4 Tb 0.91387(2) 0.45453(2) 0.995843(13)
C1_5 C 0.1566(4) 0.4281(5) 0.0520(5)
C2_5 C 0.1816(5) 0.3925(5) 0.0381(3)
C3_5 C 0.1890(4) 0.3500(4) 0.0507(3)
C4_5 C 0.1742(4) 0.3403(4) 0.0781(2)
C5_5 C 0.1531(4) 0.3769(5) 0.0924(2)
C6_5 C 0.1449(4) 0.4209(4) 0.0798(3)
C7_5 C 0.1803(7) 0.2924(4) 0.0905(3)
H1_5 H 0.2122 0.2892 0.0830
C8_5 C 0.1135(4) 0.1232(5) 0.0289(3)
C9_5 C 0.1312(4) 0.1677(4) 0.0457(2)
C10_5 C 0.1751(4) 0.1698(4) 0.0574(2)
C11_5 C 0.1900(4) 0.2100(5) 0.0718(2)
C12_5 C 0.1629(4) 0.2504(4) 0.07483(19)
C13_5 C 0.1182(4) 0.2486(4) 0.0621(2)
C14_5 C 0.1028(3) 0.2079(4) 0.0476(2)
C15_5 C 0.2459(5) 0.2551(6) 0.2065(3)
C16_5 C 0.2286(4) 0.2650(4) 0.1770(2)
C17_5 C 0.1856(4) 0.2506(3) 0.1680(2)
C18_5 C 0.1688(4) 0.2611(4) 0.1408(2)
C19_5 C 0.1954(4) 0.2853(4) 0.1210(2)
C20_5 C 0.2385(5) 0.3011(4) 0.1300(2)
C21_5 C 0.2550(4) 0.2900(4) 0.1584(2)
H5_5 H 0.0153 0.6792 0.0272
O1_5 O 0.1205(6) 0.4781(6) 0.0242(3)
O2_5 O 0.1689(10) 0.4993(9) 0.0462(6)
O3_5 O 0.0859(3) 0.0976(3) 0.04144(19)
O4_5 O 0.1285(3) 0.1158(4) 0.0055(2)
O5_5 O 0.2657(3) 0.2162(4) 0.20928(17)
O6_5 O 0.2410(3) 0.2854(4) 0.2257(2)
O7_5 O 0.0312(4) 0.6039(4) 0.0128(2)
O9_5 O 0.1204(5) 0.5875(5) 0.0476(3)
H13_5 H 0.1219 0.5692 0.0612
Cl1_5 Cl 0.20075(18) 0.40424(18) 0.00341(10)
Cl2_5 Cl 0.21917(13) 0.30925(13) 0.03092(8)
Cl3_5 Cl 0.13273(12) 0.36937(11) 0.12772(6)
Cl4_5 Cl 0.11708(16) 0.46430(13) 0.09901(10)
Cl5_5 Cl 0.21026(12) 0.12107(13) 0.05546(9)
Cl6_5 Cl 0.24687(11) 0.20896(12) 0.08537(8)
Cl7_5 Cl 0.08001(11) 0.29419(9) 0.06439(6)
Cl8_5 Cl 0.04781(10) 0.20628(12) 0.03251(7)
Cl9_5 Cl 0.15085(10) 0.21993(11) 0.19179(6)
Cl10_5 Cl 0.11193(10) 0.24451(10) 0.13254(6)
Cl11_5 Cl 0.27597(14) 0.33138(14) 0.10717(7)
Cl12_5 Cl 0.31048(12) 0.30979(15) 0.16843(8)
C27_5 C 0.1467(9) 0.4643(7) 0.0390(6)
H17_5 H 0.0978 0.5894 0.0597
Tb4_5 Tb 0.20453(2) 0.33613(2) 0.254157(13)
O12_5 O 0.0338(4) 0.5157(3) 0.04072(17)
C25_5 C 0.1481(8) 0.5198(7) 0.9457(6)
H9_5 H 0.1264 0.5347 0.9347
C26_5 C 0.1897(9) 0.5071(9) 0.8998(5)
H10_5 H 0.1628 0.5242 0.8931
H11_5 H 0.1908 0.4769 0.8907
H12_5 H 0.2177 0.5243 0.8952
N1_5 N 0.1865(7) 0.5010(6) 0.9311(5)
O8_5 O 0.1431(4) 0.5158(4) 0.9713(2)
C28_5 C 0.2231(16) 0.4787(19) 0.9441(8)
H14_5 H 0.2453 0.4687 0.9299
H15_5 H 0.2116 0.4519 0.9544
H16_5 H 0.2381 0.4999 0.9572
Tb2_3 Tb 0.08613(2) 0.04547(2) 0.995843(13)
O10_5 O 0.0859(3) 0.5976(3) 0.95856(19)
O11_5 O 0.1285(3) 0.6158(4) 0.9945(2)
C1_6 C 0.3219(5) 0.4066(4) 0.3020(5)
C2_6 C 0.3575(5) 0.4316(5) 0.2881(3)
C3_6 C 0.4000(4) 0.4390(4) 0.3007(3)
C4_6 C 0.4097(4) 0.4242(4) 0.3281(2)
C5_6 C 0.3731(5) 0.4031(4) 0.3424(2)
C6_6 C 0.3291(4) 0.3949(4) 0.3298(3)
C7_6 C 0.4576(4) 0.4303(7) 0.3405(3)
H1_6 H 0.4608 0.4622 0.3330
C8_6 C 0.6268(5) 0.3635(4) 0.2789(3)
C9_6 C 0.5823(4) 0.3812(4) 0.2957(2)
C10_6 C 0.5802(4) 0.4251(4) 0.3074(2)
C11_6 C 0.5400(5) 0.4400(4) 0.3218(2)
C12_6 C 0.4996(4) 0.4129(4) 0.32483(19)
C13_6 C 0.5014(4) 0.3682(4) 0.3121(2)
C14_6 C 0.5421(4) 0.3528(3) 0.2976(2)
C15_6 C 0.4949(6) 0.4959(5) 0.4565(3)
C16_6 C 0.4850(4) 0.4786(4) 0.4270(2)
C17_6 C 0.4994(3) 0.4356(4) 0.4180(2)
C18_6 C 0.4889(4) 0.4188(4) 0.3908(2)
C19_6 C 0.4647(4) 0.4454(4) 0.3710(2)
C20_6 C 0.4489(4) 0.4885(5) 0.3800(2)
C21_6 C 0.4600(4) 0.5050(4) 0.4084(2)
C22_5 C 0.1463(6) 0.2404(9) 0.2612(3)
H2_5 H 0.1721 0.2269 0.2545
C23_5 C 0.0673(9) 0.2318(11) 0.2780(6)
H3_5 H 0.0609 0.2224 0.2973
H4_5 H 0.0418 0.2224 0.2658
H5_6 H 0.0708 0.2653 0.2772
C24_5 C 0.1129(8) 0.1574(8) 0.2662(5)
H6_5 H 0.1446 0.1488 0.2615
H7_5 H 0.0921 0.1465 0.2515
H8_5 H 0.1043 0.1435 0.2842
C25_6 C 0.2302(7) 0.3981(8) 0.1957(6)
H9_6 H 0.2153 0.3764 0.1847
C26_6 C 0.2429(9) 0.4397(9) 0.1498(5)
H10_6 H 0.2258 0.4128 0.1431
H11_6 H 0.2731 0.4408 0.1407
H12_6 H 0.2257 0.4677 0.1452
N1_6 N 0.2490(6) 0.4365(7) 0.1811(5)
N2_5 N 0.1094(7) 0.2100(6) 0.2685(3)
O1_6 O 0.2719(6) 0.3705(6) 0.2742(3)
O2_6 O 0.2507(9) 0.4189(10) 0.2962(6)
O3_6 O 0.6524(3) 0.3359(3) 0.29144(19)
O4_6 O 0.6342(4) 0.3785(3) 0.2555(2)
O5_6 O 0.5338(4) 0.5157(3) 0.45928(17)
O7_6 O 0.1461(4) 0.2812(4) 0.2628(2)
O8_6 O 0.2342(4) 0.3931(4) 0.2213(2)
O9_6 O 0.1625(5) 0.3704(5) 0.2976(3)
H13_6 H 0.1808 0.3719 0.3112
Cl1_6 Cl 0.34576(18) 0.45075(18) 0.25341(10)
Cl2_6 Cl 0.44075(13) 0.46917(13) 0.28092(8)
Cl3_6 Cl 0.38063(11) 0.38273(12) 0.37772(6)
Cl4_6 Cl 0.28570(13) 0.36708(16) 0.34901(10)
Cl5_6 Cl 0.62893(13) 0.46026(12) 0.30546(9)
Cl6_6 Cl 0.54104(12) 0.49687(11) 0.33537(8)
Cl7_6 Cl 0.45581(9) 0.33001(11) 0.31439(6)
Cl8_6 Cl 0.54372(12) 0.29781(10) 0.28251(7)
Cl9_6 Cl 0.53007(11) 0.40085(10) 0.44179(6)
Cl10_6 Cl 0.50549(10) 0.36193(10) 0.38254(6)
Cl11_6 Cl 0.41862(14) 0.52597(14) 0.35717(7)
Cl12_6 Cl 0.44021(15) 0.56048(12) 0.41843(8)
C27_6 C 0.2857(7) 0.3967(9) 0.2890(6)
C28_6 C 0.2713(19) 0.4731(16) 0.1941(8)
H14_6 H 0.2813 0.4953 0.1799
H15_6 H 0.2981 0.4616 0.2044
H16_6 H 0.2501 0.4881 0.2072
H17_6 H 0.1606 0.3478 0.3097
Tb2_4 Tb 0.70453(2) 0.33613(2) 0.245843(13)
O10_6 O 0.1524(3) 0.3359(3) 0.20856(19)
O11_6 O 0.1342(4) 0.3785(3) 0.2445(2)
O12_6 O 0.2343(3) 0.2838(4) 0.29072(17)
O5_7 O 0.0338(4) 0.0157(3) 0.95928(17)
C8_7 C 0.1268(5) 0.8635(4) 0.7789(3)
C9_7 C 0.0823(4) 0.8812(4) 0.7957(2)
C10_7 C 0.0802(4) 0.9251(4) 0.8074(2)
C11_7 C 0.0400(5) 0.9400(4) 0.8218(2)
C13_7 C 0.0014(4) 0.8682(4) 0.8121(2)
C14_7 C 0.0421(4) 0.8528(3) 0.7976(2)
O3_7 O 0.1524(3) 0.8359(3) 0.79144(19)
O4_7 O 0.1342(4) 0.8785(3) 0.7555(2)
Cl5_7 Cl 0.12893(13) 0.96026(12) 0.80546(9)
Cl6_7 Cl 0.04104(12) 0.99687(11) 0.83537(8)
Cl8_7 Cl 0.04372(12) 0.79781(10) 0.78251(7)
Cl9_7 Cl 0.03007(11) 0.90085(10) 0.94179(6)
Cl10_7 Cl 0.00549(10) 0.86193(10) 0.88254(6)
Tb4_6 Tb 0.91387(2) 0.95453(2) 0.004157(13)
C1_7 C 0.8219(5) 0.9066(4) 0.8020(5)
C2_7 C 0.8575(5) 0.9316(5) 0.7881(3)
C3_7 C 0.9000(4) 0.9390(4) 0.8007(3)
C4_7 C 0.9097(4) 0.9242(4) 0.8281(2)
C5_7 C 0.8731(5) 0.9031(4) 0.8424(2)
C6_7 C 0.8291(4) 0.8949(4) 0.8298(3)
C7_7 C 0.9576(4) 0.9303(7) 0.8405(3)
H1_7 H 0.9608 0.9622 0.8330
C12_7 C 0.9996(4) 0.9129(4) 0.82483(19)
C15_7 C 0.9949(6) 0.9959(5) 0.9565(3)
C16_7 C 0.9850(4) 0.9786(4) 0.9270(2)
C17_7 C 0.9994(3) 0.9356(4) 0.9180(2)
C18_7 C 0.9889(4) 0.9188(4) 0.8908(2)
C19_7 C 0.9647(4) 0.9454(4) 0.8710(2)
C20_7 C 0.9489(4) 0.9885(5) 0.8800(2)
C22_6 C 0.6463(6) 0.7404(9) 0.7612(3)
H2_6 H 0.6721 0.7269 0.7545
C23_6 C 0.5673(9) 0.7318(11) 0.7780(6)
H3_6 H 0.5609 0.7224 0.7973
H4_6 H 0.5418 0.7224 0.7658
H5_7 H 0.5708 0.7653 0.7772
C24_6 C 0.6129(8) 0.6574(8) 0.7662(5)
H6_6 H 0.6446 0.6488 0.7615
H7_6 H 0.5921 0.6465 0.7515
H8_6 H 0.6043 0.6435 0.7842
C25_7 C 0.7302(7) 0.8981(8) 0.6957(6)
H9_7 H 0.7153 0.8764 0.6847
C26_7 C 0.7429(9) 0.9397(9) 0.6498(5)
H10_7 H 0.7258 0.9128 0.6431
H11_7 H 0.7731 0.9408 0.6407
H12_7 H 0.7257 0.9677 0.6452
N1_7 N 0.7490(6) 0.9365(7) 0.6811(5)
N2_6 N 0.6094(7) 0.7100(6) 0.7685(3)
O1_7 O 0.7719(6) 0.8705(6) 0.7742(3)
O2_7 O 0.7507(9) 0.9189(10) 0.7962(6)
O6_6 O 0.9646(4) 0.9910(3) 0.9757(2)
O7_7 O 0.6461(4) 0.7812(4) 0.7628(2)
O8_7 O 0.7342(4) 0.8931(4) 0.7213(2)
O9_7 O 0.6625(5) 0.8704(5) 0.7976(3)
H13_7 H 0.6808 0.8719 0.8112
Cl1_7 Cl 0.84576(18) 0.95075(18) 0.75341(10)
Cl2_7 Cl 0.94075(13) 0.96917(13) 0.78092(8)
Cl3_7 Cl 0.88063(11) 0.88273(12) 0.87772(6)
Cl4_7 Cl 0.78570(13) 0.86708(16) 0.84901(10)
Cl7_7 Cl 0.95581(9) 0.83001(11) 0.81439(6)
C27_7 C 0.7857(7) 0.8967(9) 0.7890(6)
C28_7 C 0.7713(19) 0.9731(16) 0.6941(8)
H14_7 H 0.7813 0.9953 0.6799
H15_7 H 0.7981 0.9616 0.7044
H16_7 H 0.7501 0.9881 0.7072
H17_7 H 0.6606 0.8478 0.8097
O10_7 O 0.6524(3) 0.8359(3) 0.70856(19)
O11_7 O 0.6342(4) 0.8785(3) 0.7445(2)
O12_7 O 0.7343(3) 0.7838(4) 0.79072(17)
C1_8 C 0.8434(4) 0.0719(5) 0.0520(5)
C2_8 C 0.8184(5) 0.1075(5) 0.0381(3)
C3_8 C 0.8110(4) 0.1500(4) 0.0507(3)
C4_8 C 0.8258(4) 0.1597(4) 0.0781(2)
C5_8 C 0.8469(4) 0.1231(5) 0.0924(2)
C6_8 C 0.8551(4) 0.0791(4) 0.0798(3)
C7_8 C 0.8197(7) 0.2076(4) 0.0905(3)
H1_8 H 0.7878 0.2108 0.0830
C8_8 C 0.8865(4) 0.3768(5) 0.0289(3)
C9_8 C 0.8688(4) 0.3323(4) 0.0457(2)
C10_8 C 0.8249(4) 0.3302(4) 0.0574(2)
C11_8 C 0.8100(4) 0.2900(5) 0.0718(2)
C12_8 C 0.8371(4) 0.2496(4) 0.07483(19)
C13_8 C 0.8818(4) 0.2514(4) 0.0621(2)
C14_8 C 0.8972(3) 0.2921(4) 0.0476(2)
C15_8 C 0.7541(5) 0.2449(6) 0.2065(3)
C16_8 C 0.7714(4) 0.2350(4) 0.1770(2)
C17_8 C 0.8144(4) 0.2494(3) 0.1680(2)
C18_8 C 0.8312(4) 0.2389(4) 0.1408(2)
C19_8 C 0.8046(4) 0.2147(4) 0.1210(2)
C20_8 C 0.7615(5) 0.1989(4) 0.1300(2)
C21_7 C 0.7450(4) 0.2100(4) 0.1584(2)
O1_8 O 0.8795(6) 0.0219(6) 0.0242(3)
O2_8 O 0.8311(10) 0.0007(9) 0.0462(6)
O3_8 O 0.9141(3) 0.4024(3) 0.04144(19)
O4_8 O 0.8715(3) 0.3842(4) 0.0055(2)
O5_8 O 0.7343(3) 0.2838(4) 0.20928(17)
Cl1_8 Cl 0.79925(18) 0.09576(18) 0.00341(10)
Cl2_8 Cl 0.78083(13) 0.19075(13) 0.03092(8)
Cl3_8 Cl 0.86727(12) 0.13063(11) 0.12772(6)
Cl4_8 Cl 0.88292(16) 0.03570(13) 0.09901(10)
Cl5_8 Cl 0.78974(12) 0.37893(13) 0.05546(9)
Cl6_8 Cl 0.75313(11) 0.29104(12) 0.08537(8)
Cl7_8 Cl 0.91999(11) 0.20581(9) 0.06439(6)
Cl8_8 Cl 0.95219(10) 0.29372(12) 0.03251(7)
Cl9_8 Cl 0.84915(10) 0.28007(11) 0.19179(6)
Cl10_8 Cl 0.88807(10) 0.25549(10) 0.13254(6)
Cl11_7 Cl 0.72403(14) 0.16862(14) 0.10717(7)
Cl12_7 Cl 0.68952(12) 0.19021(15) 0.16843(8)
C27_8 C 0.8533(9) 0.0357(7) 0.0390(6)
H11_8 H 0.8092 0.0231 0.8907
C28_8 C 0.7769(16) 0.0213(19) 0.9441(8)
H14_8 H 0.7547 0.0313 0.9299
H15_8 H 0.7884 0.0481 0.9544
H16_8 H 0.7619 0.0001 0.9572
H5_8 H 0.9847 0.8208 0.0272
O7_8 O 0.9688(4) 0.8961(4) 0.0128(2)
O9_8 O 0.8796(5) 0.9125(5) 0.0476(3)
H13_8 H 0.8781 0.9308 0.0612
H17_8 H 0.9022 0.9106 0.0597
O12_8 O 0.9662(4) 0.9843(3) 0.04072(17)
C25_8 C 0.8519(8) 0.9802(7) 0.9457(6)
H9_8 H 0.8736 0.9653 0.9347
C26_8 C 0.8103(9) 0.9929(9) 0.8998(5)
H10_8 H 0.8372 0.9758 0.8931
H12_8 H 0.7823 0.9757 0.8952
N1_8 N 0.8135(7) 0.9990(6) 0.9311(5)
O8_8 O 0.8569(4) 0.9842(4) 0.9713(2)
O10_8 O 0.9141(3) 0.9024(3) 0.95856(19)
O11_8 O 0.8715(3) 0.8842(4) 0.9945(2)
C21_8 C 0.4600(4) 0.0050(4) 0.5916(2)
Cl11_8 Cl 0.41862(14) 0.02597(14) 0.64283(7)
Cl12_8 Cl 0.44021(15) 0.06048(12) 0.58157(8)
C1_9 C 0.3219(5) 0.9066(4) 0.6980(5)
C2_9 C 0.3575(5) 0.9316(5) 0.7119(3)
C3_9 C 0.4000(4) 0.9390(4) 0.6993(3)
C4_9 C 0.4097(4) 0.9242(4) 0.6719(2)
C5_9 C 0.3731(5) 0.9031(4) 0.6576(2)
C6_9 C 0.3291(4) 0.8949(4) 0.6702(3)
C7_9 C 0.4576(4) 0.9303(7) 0.6595(3)
H1_9 H 0.4608 0.9622 0.6670
C8_9 C 0.6268(5) 0.8635(4) 0.7211(3)
C9_9 C 0.5823(4) 0.8812(4) 0.7043(2)
C10_9 C 0.5802(4) 0.9251(4) 0.6926(2)
C11_9 C 0.5400(5) 0.9400(4) 0.6782(2)
C12_9 C 0.4996(4) 0.9129(4) 0.67517(19)
C13_9 C 0.5014(4) 0.8682(4) 0.6879(2)
C14_9 C 0.5421(4) 0.8528(3) 0.7024(2)
C15_9 C 0.4949(6) 0.9959(5) 0.5435(3)
C16_9 C 0.4850(4) 0.9786(4) 0.5730(2)
C17_9 C 0.4994(3) 0.9356(4) 0.5820(2)
C18_9 C 0.4889(4) 0.9188(4) 0.6092(2)
C19_9 C 0.4647(4) 0.9454(4) 0.6290(2)
C20_9 C 0.4489(4) 0.9885(5) 0.6200(2)
C22_7 C 0.1463(6) 0.7404(9) 0.7388(3)
H2_7 H 0.1721 0.7269 0.7455
C23_7 C 0.0673(9) 0.7318(11) 0.7220(6)
H3_7 H 0.0609 0.7224 0.7027
H4_7 H 0.0418 0.7224 0.7342
H5_9 H 0.0708 0.7653 0.7228
C24_7 C 0.1129(8) 0.6574(8) 0.7338(5)
H6_7 H 0.1446 0.6488 0.7385
H7_7 H 0.0921 0.6465 0.7485
H8_7 H 0.1043 0.6435 0.7158
C25_9 C 0.2302(7) 0.8981(8) 0.8043(6)
H9_9 H 0.2153 0.8764 0.8153
C26_9 C 0.2429(9) 0.9397(9) 0.8502(5)
H10_9 H 0.2258 0.9128 0.8569
H11_9 H 0.2731 0.9408 0.8593
H12_9 H 0.2257 0.9677 0.8548
N1_9 N 0.2490(6) 0.9365(7) 0.8189(5)
N2_7 N 0.1094(7) 0.7100(6) 0.7315(3)
O1_9 O 0.2719(6) 0.8705(6) 0.7258(3)
O2_9 O 0.2507(9) 0.9189(10) 0.7038(6)
O6_7 O 0.4646(4) 0.9910(3) 0.5243(2)
O7_9 O 0.1461(4) 0.7812(4) 0.7372(2)
O8_9 O 0.2342(4) 0.8931(4) 0.7787(2)
O9_9 O 0.1625(5) 0.8704(5) 0.7024(3)
H13_9 H 0.1808 0.8719 0.6888
Cl1_9 Cl 0.34576(18) 0.95075(18) 0.74659(10)
Cl2_9 Cl 0.44075(13) 0.96917(13) 0.71908(8)
Cl3_9 Cl 0.38063(11) 0.88273(12) 0.62228(6)
Cl4_9 Cl 0.28570(13) 0.86708(16) 0.65099(10)
Cl5_9 Cl 0.62893(13) 0.96026(12) 0.69454(9)
Cl6_9 Cl 0.54104(12) 0.99687(11) 0.66463(8)
Cl7_9 Cl 0.45581(9) 0.83001(11) 0.68561(6)
Cl8_9 Cl 0.54372(12) 0.79781(10) 0.71749(7)
Cl9_9 Cl 0.53007(11) 0.90085(10) 0.55821(6)
Cl10_9 Cl 0.50549(10) 0.86193(10) 0.61746(6)
C27_9 C 0.2857(7) 0.8967(9) 0.7110(6)
C28_9 C 0.2713(19) 0.9731(16) 0.8059(8)
H14_9 H 0.2813 0.9953 0.8201
H15_9 H 0.2981 0.9616 0.7956
H16_9 H 0.2501 0.9881 0.7928
H17_9 H 0.1606 0.8478 0.6903
O13_3 O 0.2410(3) 0.7854(4) 0.7743(2)
C1_10 C 0.3434(4) 0.0719(5) 0.4480(5)
C2_10 C 0.3184(5) 0.1075(5) 0.4619(3)
C3_10 C 0.3110(4) 0.1500(4) 0.4493(3)
C4_10 C 0.3258(4) 0.1597(4) 0.4219(2)
C5_10 C 0.3469(4) 0.1231(5) 0.4076(2)
C6_10 C 0.3551(4) 0.0791(4) 0.4202(3)
C7_10 C 0.3197(7) 0.2076(4) 0.4095(3)
H1_10 H 0.2878 0.2108 0.4170
C8_10 C 0.3865(4) 0.3768(5) 0.4711(3)
C9_10 C 0.3688(4) 0.3323(4) 0.4543(2)
C10_10 C 0.3249(4) 0.3302(4) 0.4426(2)
C11_10 C 0.3100(4) 0.2900(5) 0.4282(2)
C12_10 C 0.3371(4) 0.2496(4) 0.42517(19)
C13_10 C 0.3818(4) 0.2514(4) 0.4379(2)
C14_10 C 0.3972(3) 0.2921(4) 0.4524(2)
C15_10 C 0.2541(5) 0.2449(6) 0.2935(3)
C16_10 C 0.2714(4) 0.2350(4) 0.3230(2)
C17_10 C 0.3144(4) 0.2494(3) 0.3320(2)
C18_10 C 0.3312(4) 0.2389(4) 0.3592(2)
C19_10 C 0.3046(4) 0.2147(4) 0.3790(2)
C20_10 C 0.2615(5) 0.1989(4) 0.3700(2)
C21_9 C 0.2450(4) 0.2100(4) 0.3416(2)
H11_10 H 0.3092 0.0231 0.6093
O1_10 O 0.3795(6) 0.0219(6) 0.4758(3)
O2_10 O 0.3311(10) 0.0007(9) 0.4538(6)
O6_8 O 0.2590(3) 0.2146(4) 0.2743(2)
Cl1_10 Cl 0.29925(18) 0.09576(18) 0.49659(10)
Cl2_10 Cl 0.28083(13) 0.19075(13) 0.46908(8)
Cl3_10 Cl 0.36727(12) 0.13063(11) 0.37228(6)
Cl4_10 Cl 0.38292(16) 0.03570(13) 0.40099(10)
Cl5_10 Cl 0.28974(12) 0.37893(13) 0.44454(9)
Cl6_10 Cl 0.25313(11) 0.29104(12) 0.41463(8)
Cl7_10 Cl 0.41999(11) 0.20581(9) 0.43561(6)
Cl8_10 Cl 0.45219(10) 0.29372(12) 0.46749(7)
Cl9_10 Cl 0.34915(10) 0.28007(11) 0.30821(6)
Cl10_10 Cl 0.38807(10) 0.25549(10) 0.36746(6)
Cl11_9 Cl 0.22403(14) 0.16862(14) 0.39283(7)
Cl12_9 Cl 0.18952(12) 0.19021(15) 0.33157(8)
C27_10 C 0.3533(9) 0.0357(7) 0.4610(6)
C28_10 C 0.2769(16) 0.0213(19) 0.5559(8)
H14_10 H 0.2547 0.0313 0.5701
H15_10 H 0.2884 0.0481 0.5456
H16_10 H 0.2619 0.0001 0.5428
C22_8 C 0.5096(9) 0.8963(6) 0.4888(3)
H2_8 H 0.5231 0.9221 0.4955
C23_8 C 0.5182(11) 0.8173(9) 0.4720(6)
H3_8 H 0.5276 0.8109 0.4527
H4_8 H 0.5276 0.7918 0.4842
H5_10 H 0.4847 0.8208 0.4728
C24_8 C 0.5926(8) 0.8629(8) 0.4838(5)
H6_8 H 0.6012 0.8946 0.4885
H7_8 H 0.6035 0.8421 0.4985
H8_8 H 0.6065 0.8543 0.4658
C25_10 C 0.3519(8) 0.9802(7) 0.5543(6)
H9_10 H 0.3736 0.9653 0.5653
C26_10 C 0.3103(9) 0.9929(9) 0.6002(5)
H10_10 H 0.3372 0.9758 0.6069
H12_10 H 0.2823 0.9757 0.6048
N1_10 N 0.3135(7) 0.9990(6) 0.5689(5)
N2_8 N 0.5400(6) 0.8594(7) 0.4815(3)
O7_10 O 0.4688(4) 0.8961(4) 0.4872(2)
O8_10 O 0.3569(4) 0.9842(4) 0.5287(2)
O9_10 O 0.3796(5) 0.9125(5) 0.4524(3)
H13_10 H 0.3781 0.9308 0.4388
H17_10 H 0.4022 0.9106 0.4403
C1_11 C 0.6566(4) 0.4281(5) 0.4480(5)
C2_11 C 0.6816(5) 0.3925(5) 0.4619(3)
C3_11 C 0.6890(4) 0.3500(4) 0.4493(3)
C4_11 C 0.6742(4) 0.3403(4) 0.4219(2)
C5_11 C 0.6531(4) 0.3769(5) 0.4076(2)
C6_11 C 0.6449(4) 0.4209(4) 0.4202(3)
C7_11 C 0.6803(7) 0.2924(4) 0.4095(3)
H1_11 H 0.7122 0.2892 0.4170
C8_11 C 0.6135(4) 0.1232(5) 0.4711(3)
C9_11 C 0.6312(4) 0.1677(4) 0.4543(2)
C10_11 C 0.6751(4) 0.1698(4) 0.4426(2)
C11_11 C 0.6900(4) 0.2100(5) 0.4282(2)
C12_11 C 0.6629(4) 0.2504(4) 0.42517(19)
C13_11 C 0.6182(4) 0.2486(4) 0.4379(2)
C14_11 C 0.6028(3) 0.2079(4) 0.4524(2)
C15_11 C 0.7459(5) 0.2551(6) 0.2935(3)
C16_11 C 0.7286(4) 0.2650(4) 0.3230(2)
C17_11 C 0.6856(4) 0.2506(3) 0.3320(2)
C18_11 C 0.6688(4) 0.2611(4) 0.3592(2)
C19_11 C 0.6954(4) 0.2853(4) 0.3790(2)
C20_11 C 0.7385(5) 0.3011(4) 0.3700(2)
C21_10 C 0.7550(4) 0.2900(4) 0.3416(2)
C22_9 C 0.4904(9) 0.6037(6) 0.4888(3)
H2_9 H 0.4769 0.5779 0.4955
C23_9 C 0.4818(11) 0.6827(9) 0.4720(6)
H3_9 H 0.4724 0.6891 0.4527
H4_9 H 0.4724 0.7082 0.4842
H5_11 H 0.5153 0.6792 0.4728
C24_9 C 0.4074(8) 0.6371(8) 0.4838(5)
H6_9 H 0.3988 0.6054 0.4885
H7_9 H 0.3965 0.6579 0.4985
H8_9 H 0.3935 0.6457 0.4658
C25_11 C 0.6481(8) 0.5198(7) 0.5543(6)
H9_11 H 0.6264 0.5347 0.5653
C26_11 C 0.6897(9) 0.5071(9) 0.6002(5)
H10_11 H 0.6628 0.5242 0.6069
H11_11 H 0.6908 0.4769 0.6093
H12_11 H 0.7177 0.5243 0.6048
N1_11 N 0.6865(7) 0.5010(6) 0.5689(5)
N2_9 N 0.4600(6) 0.6406(7) 0.4815(3)
O1_11 O 0.6205(6) 0.4781(6) 0.4758(3)
O2_11 O 0.6689(10) 0.4993(9) 0.4538(6)
O6_9 O 0.7410(3) 0.2854(4) 0.2743(2)
O7_11 O 0.5312(4) 0.6039(4) 0.4872(2)
O8_11 O 0.6431(4) 0.5158(4) 0.5287(2)
O9_11 O 0.6204(5) 0.5875(5) 0.4524(3)
H13_11 H 0.6219 0.5692 0.4388
Cl1_11 Cl 0.70075(18) 0.40424(18) 0.49659(10)
Cl2_11 Cl 0.71917(13) 0.30925(13) 0.46908(8)
Cl3_11 Cl 0.63273(12) 0.36937(11) 0.37228(6)
Cl4_11 Cl 0.61708(16) 0.46430(13) 0.40099(10)
Cl5_11 Cl 0.71026(12) 0.12107(13) 0.44454(9)
Cl6_11 Cl 0.74687(11) 0.20896(12) 0.41463(8)
Cl7_11 Cl 0.58001(11) 0.29419(9) 0.43561(6)
Cl8_11 Cl 0.54781(10) 0.20628(12) 0.46749(7)
Cl9_11 Cl 0.65085(10) 0.21993(11) 0.30821(6)
Cl10_11 Cl 0.61193(10) 0.24451(10) 0.36746(6)
Cl11_10 Cl 0.77597(14) 0.33138(14) 0.39283(7)
Cl12_10 Cl 0.81048(12) 0.30979(15) 0.33157(8)
C27_11 C 0.6467(9) 0.4643(7) 0.4610(6)
C28_11 C 0.7231(16) 0.4787(19) 0.5559(8)
H14_11 H 0.7453 0.4687 0.5701
H15_11 H 0.7116 0.4519 0.5456
H16_11 H 0.7381 0.4999 0.5428
H17_11 H 0.5978 0.5894 0.4403
O13_4 O 0.5354(4) 0.5090(3) 0.5243(2)
C8_12 C 0.1268(5) 0.3635(4) 0.2211(3)
C9_12 C 0.0823(4) 0.3812(4) 0.2043(2)
C10_12 C 0.0802(4) 0.4251(4) 0.1926(2)
C11_12 C 0.0400(5) 0.4400(4) 0.1782(2)
C13_12 C 0.0014(4) 0.3682(4) 0.1879(2)
C14_12 C 0.0421(4) 0.3528(3) 0.2024(2)
Cl5_12 Cl 0.12893(13) 0.46026(12) 0.19454(9)
Cl6_12 Cl 0.04104(12) 0.49687(11) 0.16463(8)
Cl8_12 Cl 0.04372(12) 0.29781(10) 0.21749(7)
Cl9_12 Cl 0.03007(11) 0.40085(10) 0.05821(6)
Cl10_12 Cl 0.00549(10) 0.36193(10) 0.11746(6)
C1_12 C 0.8219(5) 0.4066(4) 0.1980(5)
C2_12 C 0.8575(5) 0.4316(5) 0.2119(3)
C3_12 C 0.9000(4) 0.4390(4) 0.1993(3)
C4_12 C 0.9097(4) 0.4242(4) 0.1719(2)
C5_12 C 0.8731(5) 0.4031(4) 0.1576(2)
C6_12 C 0.8291(4) 0.3949(4) 0.1702(3)
C7_12 C 0.9576(4) 0.4303(7) 0.1595(3)
H1_12 H 0.9608 0.4622 0.1670
C12_12 C 0.9996(4) 0.4129(4) 0.17517(19)
C15_12 C 0.9949(6) 0.4959(5) 0.0435(3)
C16_12 C 0.9850(4) 0.4786(4) 0.0730(2)
C17_12 C 0.9994(3) 0.4356(4) 0.0820(2)
C18_12 C 0.9889(4) 0.4188(4) 0.1092(2)
C19_12 C 0.9647(4) 0.4454(4) 0.1290(2)
C20_12 C 0.9489(4) 0.4885(5) 0.1200(2)
C21_11 C 0.9600(4) 0.5050(4) 0.0916(2)
C22_10 C 0.6463(6) 0.2404(9) 0.2388(3)
H2_10 H 0.6721 0.2269 0.2455
C23_10 C 0.5673(9) 0.2318(11) 0.2220(6)
H3_10 H 0.5609 0.2224 0.2027
H4_10 H 0.5418 0.2224 0.2342
H5_12 H 0.5708 0.2653 0.2228
C24_10 C 0.6129(8) 0.1574(8) 0.2338(5)
H6_10 H 0.6446 0.1488 0.2385
H7_10 H 0.5921 0.1465 0.2485
H8_10 H 0.6043 0.1435 0.2158
C25_12 C 0.7302(7) 0.3981(8) 0.3043(6)
H9_12 H 0.7153 0.3764 0.3153
C26_12 C 0.7429(9) 0.4397(9) 0.3502(5)
H10_12 H 0.7258 0.4128 0.3569
H11_12 H 0.7731 0.4408 0.3593
H12_12 H 0.7257 0.4677 0.3548
N1_12 N 0.7490(6) 0.4365(7) 0.3189(5)
N2_10 N 0.6094(7) 0.2100(6) 0.2315(3)
O1_12 O 0.7719(6) 0.3705(6) 0.2258(3)
O2_12 O 0.7507(9) 0.4189(10) 0.2038(6)
O6_10 O 0.9646(4) 0.4910(3) 0.0243(2)
O7_12 O 0.6461(4) 0.2812(4) 0.2372(2)
O8_12 O 0.7342(4) 0.3931(4) 0.2787(2)
O9_12 O 0.6625(5) 0.3704(5) 0.2024(3)
H13_12 H 0.6808 0.3719 0.1888
Cl1_12 Cl 0.84576(18) 0.45075(18) 0.24659(10)
Cl2_12 Cl 0.94075(13) 0.46917(13) 0.21908(8)
Cl3_12 Cl 0.88063(11) 0.38273(12) 0.12228(6)
Cl4_12 Cl 0.78570(13) 0.36708(16) 0.15099(10)
Cl7_12 Cl 0.95581(9) 0.33001(11) 0.18561(6)
Cl11_11 Cl 0.91862(14) 0.52597(14) 0.14283(7)
Cl12_11 Cl 0.94021(15) 0.56048(12) 0.08157(8)
C27_12 C 0.7857(7) 0.3967(9) 0.2110(6)
C28_12 C 0.7713(19) 0.4731(16) 0.3059(8)
H14_12 H 0.7813 0.4953 0.3201
H15_12 H 0.7981 0.4616 0.2956
H16_12 H 0.7501 0.4881 0.2928
H17_12 H 0.6606 0.3478 0.1903
C25_13 C 0.8519(8) 0.4802(7) 0.0543(6)
H9_13 H 0.8736 0.4653 0.0653
C26_13 C 0.8103(9) 0.4929(9) 0.1002(5)
H10_13 H 0.8372 0.4758 0.1069
H11_13 H 0.8092 0.5231 0.1093
H12_13 H 0.7823 0.4757 0.1048
N1_13 N 0.8135(7) 0.4990(6) 0.0689(5)
O8_13 O 0.8569(4) 0.4842(4) 0.0287(2)
C28_13 C 0.7769(16) 0.5213(19) 0.0559(8)
H14_13 H 0.7547 0.5313 0.0701
H15_13 H 0.7884 0.5481 0.0456
H16_13 H 0.7619 0.5001 0.0428
C1_13 C 0.8434(4) 0.5719(5) 0.9480(5)
C2_13 C 0.8184(5) 0.6075(5) 0.9619(3)
C3_13 C 0.8110(4) 0.6500(4) 0.9493(3)
C4_13 C 0.8258(4) 0.6597(4) 0.9219(2)
C5_13 C 0.8469(4) 0.6231(5) 0.9076(2)
C6_13 C 0.8551(4) 0.5791(4) 0.9202(3)
C7_13 C 0.8197(7) 0.7076(4) 0.9095(3)
H1_13 H 0.7878 0.7108 0.9170
C8_13 C 0.8865(4) 0.8768(5) 0.9711(3)
C9_13 C 0.8688(4) 0.8323(4) 0.9543(2)
C10_13 C 0.8249(4) 0.8302(4) 0.9426(2)
C11_13 C 0.8100(4) 0.7900(5) 0.9282(2)
C12_13 C 0.8371(4) 0.7496(4) 0.92517(19)
C13_13 C 0.8818(4) 0.7514(4) 0.9379(2)
C14_13 C 0.8972(3) 0.7921(4) 0.9524(2)
C15_13 C 0.7541(5) 0.7449(6) 0.7935(3)
C16_13 C 0.7714(4) 0.7350(4) 0.8230(2)
C17_13 C 0.8144(4) 0.7494(3) 0.8320(2)
C18_13 C 0.8312(4) 0.7389(4) 0.8592(2)
C19_13 C 0.8046(4) 0.7147(4) 0.8790(2)
C20_13 C 0.7615(5) 0.6989(4) 0.8700(2)
C21_12 C 0.7450(4) 0.7100(4) 0.8416(2)
H5_13 H 0.9847 0.3208 0.9728
O1_13 O 0.8795(6) 0.5219(6) 0.9758(3)
O2_13 O 0.8311(10) 0.5007(9) 0.9538(6)
O6_11 O 0.7590(3) 0.7146(4) 0.7743(2)
O7_13 O 0.9688(4) 0.3961(4) 0.9872(2)
O9_13 O 0.8796(5) 0.4125(5) 0.9524(3)
H13_13 H 0.8781 0.4308 0.9388
Cl1_13 Cl 0.79925(18) 0.59576(18) 0.99659(10)
Cl2_13 Cl 0.78083(13) 0.69075(13) 0.96908(8)
Cl3_13 Cl 0.86727(12) 0.63063(11) 0.87228(6)
Cl4_13 Cl 0.88292(16) 0.53570(13) 0.90099(10)
Cl5_13 Cl 0.78974(12) 0.87893(13) 0.94454(9)
Cl6_13 Cl 0.75313(11) 0.79104(12) 0.91463(8)
Cl7_13 Cl 0.91999(11) 0.70581(9) 0.93561(6)
Cl8_13 Cl 0.95219(10) 0.79372(12) 0.96749(7)
Cl9_13 Cl 0.84915(10) 0.78007(11) 0.80821(6)
Cl10_13 Cl 0.88807(10) 0.75549(10) 0.86746(6)
Cl11_12 Cl 0.72403(14) 0.66862(14) 0.89283(7)
Cl12_12 Cl 0.68952(12) 0.69021(15) 0.83157(8)
C27_13 C 0.8533(9) 0.5357(7) 0.9610(6)
H17_13 H 0.9022 0.4106 0.9403
C1_14 C 0.6781(5) 0.5934(4) 0.6980(5)
C2_14 C 0.6425(5) 0.5684(5) 0.7119(3)
C3_14 C 0.6000(4) 0.5610(4) 0.6993(3)
C4_14 C 0.5903(4) 0.5758(4) 0.6719(2)
C5_14 C 0.6269(5) 0.5969(4) 0.6576(2)
C6_14 C 0.6709(4) 0.6051(4) 0.6702(3)
C7_14 C 0.5424(4) 0.5697(7) 0.6595(3)
H1_14 H 0.5392 0.5378 0.6670
C8_14 C 0.3732(5) 0.6365(4) 0.7211(3)
C9_14 C 0.4177(4) 0.6188(4) 0.7043(2)
C10_14 C 0.4198(4) 0.5749(4) 0.6926(2)
C11_14 C 0.4600(5) 0.5600(4) 0.6782(2)
C12_14 C 0.5004(4) 0.5871(4) 0.67517(19)
C13_14 C 0.4986(4) 0.6318(4) 0.6879(2)
C14_14 C 0.4579(4) 0.6472(3) 0.7024(2)
C15_14 C 0.5051(6) 0.5041(5) 0.5435(3)
C16_14 C 0.5150(4) 0.5214(4) 0.5730(2)
C17_14 C 0.5006(3) 0.5644(4) 0.5820(2)
C18_14 C 0.5111(4) 0.5812(4) 0.6092(2)
C19_14 C 0.5353(4) 0.5546(4) 0.6290(2)
C20_14 C 0.5511(4) 0.5115(5) 0.6200(2)
C21_13 C 0.5400(4) 0.4950(4) 0.5916(2)
C22_11 C 0.8537(6) 0.7596(9) 0.7388(3)
H2_11 H 0.8279 0.7731 0.7455
C23_11 C 0.9327(9) 0.7682(11) 0.7220(6)
H3_11 H 0.9391 0.7776 0.7027
H4_11 H 0.9582 0.7776 0.7342
H5_14 H 0.9292 0.7347 0.7228
C24_11 C 0.8871(8) 0.8426(8) 0.7338(5)
H6_11 H 0.8554 0.8512 0.7385
H7_11 H 0.9079 0.8535 0.7485
H8_11 H 0.8957 0.8565 0.7158
C25_14 C 0.7698(7) 0.6019(8) 0.8043(6)
H9_14 H 0.7847 0.6236 0.8153
C26_14 C 0.7571(9) 0.5603(9) 0.8502(5)
H10_14 H 0.7742 0.5872 0.8569
H11_14 H 0.7269 0.5592 0.8593
H12_14 H 0.7743 0.5323 0.8548
N1_14 N 0.7510(6) 0.5635(7) 0.8189(5)
N2_11 N 0.8906(7) 0.7900(6) 0.7315(3)
O1_14 O 0.7281(6) 0.6295(6) 0.7258(3)
O2_14 O 0.7493(9) 0.5811(10) 0.7038(6)
O7_14 O 0.8539(4) 0.7188(4) 0.7372(2)
O8_14 O 0.7658(4) 0.6069(4) 0.7787(2)
O9_14 O 0.8375(5) 0.6296(5) 0.7024(3)
H13_14 H 0.8192 0.6281 0.6888
Cl1_14 Cl 0.65424(18) 0.54925(18) 0.74659(10)
Cl2_14 Cl 0.55925(13) 0.53083(13) 0.71908(8)
Cl3_14 Cl 0.61937(11) 0.61727(12) 0.62228(6)
Cl4_14 Cl 0.71430(13) 0.63292(16) 0.65099(10)
Cl5_14 Cl 0.37107(13) 0.53974(12) 0.69454(9)
Cl6_14 Cl 0.45896(12) 0.50313(11) 0.66463(8)
Cl7_14 Cl 0.54419(9) 0.66999(11) 0.68561(6)
Cl8_14 Cl 0.45628(12) 0.70219(10) 0.71749(7)
Cl9_14 Cl 0.46993(11) 0.59915(10) 0.55821(6)
Cl10_14 Cl 0.49451(10) 0.63807(10) 0.61746(6)
Cl11_13 Cl 0.58138(14) 0.47403(14) 0.64283(7)
Cl12_13 Cl 0.55979(15) 0.43952(12) 0.58157(8)
C27_14 C 0.7143(7) 0.6033(9) 0.7110(6)
C28_14 C 0.7287(19) 0.5269(16) 0.8059(8)
H14_14 H 0.7187 0.5047 0.8201
H15_14 H 0.7019 0.5384 0.7956
H16_14 H 0.7499 0.5119 0.7928
H17_14 H 0.8394 0.6522 0.6903
C1_15 C 0.1781(5) 0.0934(4) 0.1980(5)
C2_15 C 0.1425(5) 0.0684(5) 0.2119(3)
C3_15 C 0.1000(4) 0.0610(4) 0.1993(3)
C4_15 C 0.0903(4) 0.0758(4) 0.1719(2)
C5_15 C 0.1269(5) 0.0969(4) 0.1576(2)
C6_15 C 0.1709(4) 0.1051(4) 0.1702(3)
C7_15 C 0.0424(4) 0.0697(7) 0.1595(3)
H1_15 H 0.0392 0.0378 0.1670
C12_15 C 0.0004(4) 0.0871(4) 0.17517(19)
C15_15 C 0.0051(6) 0.0041(5) 0.0435(3)
C16_15 C 0.0150(4) 0.0214(4) 0.0730(2)
C17_15 C 0.0006(3) 0.0644(4) 0.0820(2)
C18_15 C 0.0111(4) 0.0812(4) 0.1092(2)
C19_15 C 0.0353(4) 0.0546(4) 0.1290(2)
C20_15 C 0.0511(4) 0.0115(5) 0.1200(2)
C22_12 C 0.3537(6) 0.2596(9) 0.2388(3)
H2_12 H 0.3279 0.2731 0.2455
C23_12 C 0.4327(9) 0.2682(11) 0.2220(6)
H3_12 H 0.4391 0.2776 0.2027
H4_12 H 0.4582 0.2776 0.2342
H5_15 H 0.4292 0.2347 0.2228
C24_12 C 0.3871(8) 0.3426(8) 0.2338(5)
H6_12 H 0.3554 0.3512 0.2385
H7_12 H 0.4079 0.3535 0.2485
H8_12 H 0.3957 0.3565 0.2158
C25_15 C 0.2698(7) 0.1019(8) 0.3043(6)
H9_15 H 0.2847 0.1236 0.3153
C26_15 C 0.2571(9) 0.0603(9) 0.3502(5)
H10_15 H 0.2742 0.0872 0.3569
H11_15 H 0.2269 0.0592 0.3593
H12_15 H 0.2743 0.0323 0.3548
N1_15 N 0.2510(6) 0.0635(7) 0.3189(5)
N2_12 N 0.3906(7) 0.2900(6) 0.2315(3)
O1_15 O 0.2281(6) 0.1295(6) 0.2258(3)
O2_15 O 0.2493(9) 0.0811(10) 0.2038(6)
O6_12 O 0.0354(4) 0.0090(3) 0.0243(2)
O7_15 O 0.3539(4) 0.2188(4) 0.2372(2)
O8_15 O 0.2658(4) 0.1069(4) 0.2787(2)
O9_15 O 0.3375(5) 0.1296(5) 0.2024(3)
H13_15 H 0.3192 0.1281 0.1888
Cl1_15 Cl 0.15424(18) 0.04925(18) 0.24659(10)
Cl2_15 Cl 0.05925(13) 0.03083(13) 0.21908(8)
Cl3_15 Cl 0.11937(11) 0.11727(12) 0.12228(6)
Cl4_15 Cl 0.21430(13) 0.13292(16) 0.15099(10)
Cl7_15 Cl 0.04419(9) 0.16999(11) 0.18561(6)
C27_15 C 0.2143(7) 0.1033(9) 0.2110(6)
C28_15 C 0.2287(19) 0.0269(16) 0.3059(8)
H14_15 H 0.2187 0.0047 0.3201
H15_15 H 0.2019 0.0384 0.2956
H16_15 H 0.2499 0.0119 0.2928
H17_15 H 0.3394 0.1522 0.1903
C8_15 C 0.8732(5) 0.1365(4) 0.2211(3)
C9_15 C 0.9177(4) 0.1188(4) 0.2043(2)
C10_15 C 0.9198(4) 0.0749(4) 0.1926(2)
C11_15 C 0.9600(5) 0.0600(4) 0.1782(2)
C13_15 C 0.9986(4) 0.1318(4) 0.1879(2)
C14_15 C 0.9579(4) 0.1472(3) 0.2024(2)
Cl5_15 Cl 0.87107(13) 0.03974(12) 0.19454(9)
Cl6_15 Cl 0.95896(12) 0.00313(11) 0.16463(8)
Cl8_15 Cl 0.95628(12) 0.20219(10) 0.21749(7)
Cl9_15 Cl 0.96993(11) 0.09915(10) 0.05821(6)
Cl10_15 Cl 0.99451(10) 0.13807(10) 0.11746(6)
C25_16 C 0.1481(8) 0.0198(7) 0.0543(6)
H9_16 H 0.1264 0.0347 0.0653
C26_16 C 0.1897(9) 0.0071(9) 0.1002(5)
H10_16 H 0.1628 0.0242 0.1069
H12_16 H 0.2177 0.0243 0.1048
N1_16 N 0.1865(7) 0.0010(6) 0.0689(5)
O8_16 O 0.1431(4) 0.0158(4) 0.0287(2)
H5_16 H 0.0153 0.1792 0.9728
O7_16 O 0.0312(4) 0.1039(4) 0.9872(2)
O9_16 O 0.1204(5) 0.0875(5) 0.9524(3)
H13_16 H 0.1219 0.0692 0.9388
H17_16 H 0.0978 0.0894 0.9403
H11_16 H 0.1908 0.9769 0.1093
C28_16 C 0.2231(16) 0.9787(19) 0.0559(8)
H14_16 H 0.2453 0.9687 0.0701
H15_16 H 0.2116 0.9519 0.0456
H16_16 H 0.2381 0.9999 0.0428
C1_16 C 0.1566(4) 0.9281(5) 0.9480(5)
C2_16 C 0.1816(5) 0.8925(5) 0.9619(3)
C3_16 C 0.1890(4) 0.8500(4) 0.9493(3)
C4_16 C 0.1742(4) 0.8403(4) 0.9219(2)
C5_16 C 0.1531(4) 0.8769(5) 0.9076(2)
C6_16 C 0.1449(4) 0.9209(4) 0.9202(3)
C7_16 C 0.1803(7) 0.7924(4) 0.9095(3)
H1_16 H 0.2122 0.7892 0.9170
C8_16 C 0.1135(4) 0.6232(5) 0.9711(3)
C9_16 C 0.1312(4) 0.6677(4) 0.9543(2)
C10_16 C 0.1751(4) 0.6698(4) 0.9426(2)
C11_16 C 0.1900(4) 0.7100(5) 0.9282(2)
C12_16 C 0.1629(4) 0.7504(4) 0.92517(19)
C13_16 C 0.1182(4) 0.7486(4) 0.9379(2)
C14_16 C 0.1028(3) 0.7079(4) 0.9524(2)
C15_16 C 0.2459(5) 0.7551(6) 0.7935(3)
C16_16 C 0.2286(4) 0.7650(4) 0.8230(2)
C17_16 C 0.1856(4) 0.7506(3) 0.8320(2)
C18_16 C 0.1688(4) 0.7611(4) 0.8592(2)
C19_16 C 0.1954(4) 0.7853(4) 0.8790(2)
C20_16 C 0.2385(5) 0.8011(4) 0.8700(2)
C21_14 C 0.2550(4) 0.7900(4) 0.8416(2)
O1_16 O 0.1205(6) 0.9781(6) 0.9758(3)
O2_16 O 0.1689(10) 0.9993(9) 0.9538(6)
Cl1_16 Cl 0.20075(18) 0.90424(18) 0.99659(10)
Cl2_16 Cl 0.21917(13) 0.80925(13) 0.96908(8)
Cl3_16 Cl 0.13273(12) 0.86937(11) 0.87228(6)
Cl4_16 Cl 0.11708(16) 0.96430(13) 0.90099(10)
Cl5_16 Cl 0.21026(12) 0.62107(13) 0.94454(9)
Cl6_16 Cl 0.24687(11) 0.70896(12) 0.91463(8)
Cl7_16 Cl 0.08001(11) 0.79419(9) 0.93561(6)
Cl8_16 Cl 0.04781(10) 0.70628(12) 0.96749(7)
Cl9_16 Cl 0.15085(10) 0.71993(11) 0.80821(6)
Cl10_16 Cl 0.11193(10) 0.74451(10) 0.86746(6)
Cl11_14 Cl 0.27597(14) 0.83138(14) 0.89283(7)
Cl12_14 Cl 0.31048(12) 0.80979(15) 0.83157(8)
C27_16 C 0.1467(9) 0.9643(7) 0.9610(6)
C22_13 C 0.9904(9) 0.6037(6) 0.0112(3)
H2_13 H 0.9769 0.5779 0.0045
C23_13 C 0.9818(11) 0.6827(9) 0.0280(6)
H3_13 H 0.9724 0.6891 0.0473
H4_13 H 0.9724 0.7082 0.0158
C24_13 C 0.9074(8) 0.6371(8) 0.0162(5)
H6_13 H 0.8988 0.6054 0.0115
H7_13 H 0.8965 0.6579 0.0015
H8_13 H 0.8935 0.6457 0.0342
N2_13 N 0.9600(6) 0.6406(7) 0.0185(3)
C21_15 C 0.9600(4) 0.0050(4) 0.9084(2)
Cl11_15 Cl 0.91862(14) 0.02597(14) 0.85717(7)
Cl12_15 Cl 0.94021(15) 0.06048(12) 0.91843(8)
C22_14 C 0.0096(9) 0.8963(6) 0.0112(3)
H2_14 H 0.0231 0.9221 0.0045
C23_14 C 0.0182(11) 0.8173(9) 0.0280(6)
H3_14 H 0.0276 0.8109 0.0473
H4_14 H 0.0276 0.7918 0.0158
C24_14 C 0.0926(8) 0.8629(8) 0.0162(5)
H6_14 H 0.1012 0.8946 0.0115
H7_14 H 0.1035 0.8421 0.0015
H8_14 H 0.1065 0.8543 0.0342
N2_14 N 0.0400(6) 0.8594(7) 0.0185(3)
C22_15 C 0.0096(9) 0.3963(6) 0.9888(3)
H2_15 H 0.0231 0.4221 0.9955
C23_15 C 0.0182(11) 0.3173(9) 0.9720(6)
H3_15 H 0.0276 0.3109 0.9527
H4_15 H 0.0276 0.2918 0.9842
C24_15 C 0.0926(8) 0.3629(8) 0.9838(5)
H6_15 H 0.1012 0.3946 0.9885
H7_15 H 0.1035 0.3421 0.9985
H8_15 H 0.1065 0.3543 0.9658
N2_15 N 0.0400(6) 0.3594(7) 0.9815(3)
C21_16 C 0.0400(4) 0.9950(4) 0.0916(2)
Cl11_16 Cl 0.08138(14) 0.97403(14) 0.14283(7)
Cl12_16 Cl 0.05979(15) 0.93952(12) 0.08157(8)
C22_16 C 0.9904(9) 0.1037(6) 0.9888(3)
H2_16 H 0.9769 0.0779 0.9955
C23_16 C 0.9818(11) 0.1827(9) 0.9720(6)
H3_16 H 0.9724 0.1891 0.9527
H4_16 H 0.9724 0.2082 0.9842
C24_16 C 0.9074(8) 0.1371(8) 0.9838(5)
H6_16 H 0.8988 0.1054 0.9885
H7_16 H 0.8965 0.1579 0.9985
H8_16 H 0.8935 0.1457 0.9658
N2_16 N 0.9600(6) 0.1406(7) 0.9815(3)
loop_
_geom_bond_atom_site_label_1
_geom_bond_atom_site_label_2
_geom_bond_site_symmetry_1
_geom_bond_site_symmetry_2
Tb1 O1 1_555 1_555
C1 C2 1_555 1_555
C2 C3 1_555 1_555
C3 C4 1_555 1_555
C4 C5 1_555 1_555
C5 C6 1_555 1_555
C6 C1 1_555 1_555
C7 C4 1_555 1_555
H1 C7 1_555 1_555
C8 C9 1_555 1_555
C9 C10 1_555 1_555
C10 C11 1_555 1_555
C11 C12 1_555 1_555
C12 C7 1_555 1_555
C13 C12 1_555 1_555
C14 C9 1_555 1_555
C15 C16 1_555 1_555
C16 C17 1_555 1_555
C17 C18 1_555 1_555
C18 C19 1_555 1_555
C19 C7 1_555 1_555
C20 C19 1_555 1_555
C22 H2 1_555 1_555
C23 H3 1_555 1_555
H4 C23 1_555 1_555
H5 C23 1_555 1_555
C24 H6 1_555 1_555
H7 C24 1_555 1_555
H8 C24 1_555 1_555
C25 H9 1_555 1_555
C26 H10 1_555 1_555
H11 C26 1_555 1_555
H12 C26 1_555 1_555
N1 C25 1_555 1_555
N2 C22 1_555 1_555
O1 C27 1_555 1_555
O2 C27 1_555 1_555
O3 C8 1_555 1_555
O4 C8 1_555 1_555
O6 C15 1_555 1_555
O7 Tb1 1_555 1_555
O8 Tb1 1_555 1_555
O9 Tb1 1_555 1_555
H13 O9 1_555 1_555
Cl1 C2 1_555 1_555
Cl2 C3 1_555 1_555
Cl3 C5 1_555 1_555
Cl4 C6 1_555 1_555
Cl5 C10 1_555 1_555
Cl6 C11 1_555 1_555
Cl7 C13 1_555 1_555
Cl8 C14 1_555 1_555
Cl9 C17 1_555 1_555
Cl10 C18 1_555 1_555
C27 C1 1_555 1_555
C28 N1 1_555 1_555
H14 C28 1_555 1_555
H15 C28 1_555 1_555
H16 C28 1_555 1_555
H17 O9 1_555 1_555
Tb2 O3 1_555 1_555
Tb4 O6 1_555 1_555
O10 Tb1 1_555 1_555
O11 Tb1 1_555 1_555
O12 Tb1 1_555 1_555
O13 Tb1 1_555 1_555
C13 C14 1_555 1_555
C22 O7 1_555 1_555
C23 N2 1_555 1_555
C24 N2 1_555 1_555
C25 O8 1_555 1_555
C26 N1 1_555 1_555
O4 Tb2 1_555 1_555
Cl12 C21 1_555 1_555
Tb3 O5 1_555 1_555
C22_2 H2_2 1_555 1_555
C23_2 H3_2 1_555 1_555
H4_2 C23_2 1_555 1_555
H5_2 C23_2 1_555 1_555
C24_2 H6_2 1_555 1_555
H7_2 C24_2 1_555 1_555
H8_2 C24_2 1_555 1_555
C25_2 H9_2 1_555 1_555
C26_2 H10_2 1_555 1_555
H12_2 C26_2 1_555 1_555
N1_2 C25_2 1_555 1_555
N2_2 C22_2 1_555 1_555
O7_2 Tb4 1_555 1_555
O8_2 Tb4 1_555 1_555
O9_2 Tb4 1_555 1_555
H13_2 O9_2 1_555 1_555
H17_2 O9_2 1_555 1_555
O10_2 Tb4 1_555 1_555
O11_2 Tb4 1_555 1_555
O12_2 Tb4 1_555 1_555
C22_2 O7_2 1_555 1_555
C23_2 N2_2 1_555 1_555
C24_2 N2_2 1_555 1_555
C25_2 O8_2 1_555 1_555
C26_2 N1_2 1_555 1_555
C1_2 C2_2 1_555 1_555
C2_2 C3_2 1_555 1_555
C3_2 C4_2 1_555 1_555
C4_2 C5_2 1_555 1_555
C5_2 C6_2 1_555 1_555
C6_2 C1_2 1_555 1_555
C7_2 C4_2 1_555 1_555
H1_2 C7_2 1_555 1_555
C8_2 C9_2 1_555 1_555
C9_2 C10_2 1_555 1_555
C10_2 C11_2 1_555 1_555
C11_2 C12_2 1_555 1_555
C12_2 C7_2 1_555 1_555
C13_2 C12_2 1_555 1_555
C14_2 C9_2 1_555 1_555
C15_2 C16_2 1_555 1_555
C16_2 C17_2 1_555 1_555
C17_2 C18_2 1_555 1_555
C18_2 C19_2 1_555 1_555
C19_2 C7_2 1_555 1_555
C20_2 C19_2 1_555 1_555
C21_2 C16_2 1_555 1_555
O1_2 C27_2 1_555 1_555
O2_2 C27_2 1_555 1_555
O3_2 C8_2 1_555 1_555
O4_2 C8_2 1_555 1_555
O5_2 C15_2 1_555 1_555
O6_2 C15_2 1_555 1_555
Cl1_2 C2_2 1_555 1_555
Cl2_2 C3_2 1_555 1_555
Cl3_2 C5_2 1_555 1_555
Cl4_2 C6_2 1_555 1_555
Cl5_2 C10_2 1_555 1_555
Cl6_2 C11_2 1_555 1_555
Cl7_2 C13_2 1_555 1_555
Cl8_2 C14_2 1_555 1_555
Cl9_2 C17_2 1_555 1_555
Cl10_2 C18_2 1_555 1_555
Cl11_2 C20_2 1_555 1_555
Cl12_2 C21_2 1_555 1_555
C27_2 C1_2 1_555 1_555
H14_2 C28_2 1_555 1_555
H15_2 C28_2 1_555 1_555
H16_2 C28_2 1_555 1_555
Tb2_2 O3_2 1_555 1_555
Tb3_2 O5_2 1_555 1_555
Tb4_2 O6_2 1_555 1_555
C13_2 C14_2 1_555 1_555
C20_2 C21_2 1_555 1_555
O4_2 Tb2_2 1_555 1_555
Tb1_2 O1_3 1_555 1_555
C1_3 C2_3 1_555 1_555
C2_3 C3_3 1_555 1_555
C3_3 C4_3 1_555 1_555
C4_3 C5_3 1_555 1_555
C5_3 C6_3 1_555 1_555
C6_3 C1_3 1_555 1_555
C7_3 C4_3 1_555 1_555
H1_3 C7_3 1_555 1_555
C8_3 C9_3 1_555 1_555
C9_3 C10_3 1_555 1_555
C10_3 C11_3 1_555 1_555
C11_3 C12_3 1_555 1_555
C12_3 C7_3 1_555 1_555
C13_3 C12_3 1_555 1_555
C14_3 C9_3 1_555 1_555
C15_3 C16_3 1_555 1_555
C16_3 C17_3 1_555 1_555
C17_3 C18_3 1_555 1_555
C18_3 C19_3 1_555 1_555
C19_3 C7_3 1_555 1_555
C20_3 C19_3 1_555 1_555
C21_3 C16_3 1_555 1_555
C22_3 H2_3 1_555 1_555
C23_3 H3_3 1_555 1_555
H4_3 C23_3 1_555 1_555
H5_3 C23_3 1_555 1_555
C24_3 H6_3 1_555 1_555
H7_3 C24_3 1_555 1_555
H8_3 C24_3 1_555 1_555
C25_3 H9_3 1_555 1_555
C26_3 H10_3 1_555 1_555
H11_3 C26_3 1_555 1_555
H12_3 C26_3 1_555 1_555
N1_3 C25_3 1_555 1_555
N2_3 C22_3 1_555 1_555
O1_3 C27_3 1_555 1_555
O2_3 C27_3 1_555 1_555
O3_3 C8_3 1_555 1_555
O4_3 C8_3 1_555 1_555
O5_3 C15_3 1_555 1_555
O6_3 C15_3 1_555 1_555
O7_3 Tb1_2 1_555 1_555
O8_3 Tb1_2 1_555 1_555
O9_3 Tb1_2 1_555 1_555
H13_3 O9_3 1_555 1_555
Cl1_3 C2_3 1_555 1_555
Cl2_3 C3_3 1_555 1_555
Cl3_3 C5_3 1_555 1_555
Cl4_3 C6_3 1_555 1_555
Cl5_3 C10_3 1_555 1_555
Cl6_3 C11_3 1_555 1_555
Cl7_3 C13_3 1_555 1_555
Cl8_3 C14_3 1_555 1_555
Cl9_3 C17_3 1_555 1_555
Cl10_3 C18_3 1_555 1_555
Cl11_3 C20_3 1_555 1_555
Cl12_3 C21_3 1_555 1_555
C27_3 C1_3 1_555 1_555
C28_3 N1_3 1_555 1_555
H14_3 C28_3 1_555 1_555
H15_3 C28_3 1_555 1_555
H16_3 C28_3 1_555 1_555
H17_3 O9_3 1_555 1_555
Tb3 O3_3 1_555 1_555
Tb3_3 O5_3 1_555 1_555
Tb4_3 O6_3 1_555 1_555
O10_3 Tb1_2 1_555 1_555
O11_3 Tb1_2 1_555 1_555
O12_3 Tb1_2 1_555 1_555
O13_2 Tb1_2 1_555 1_555
C13_3 C14_3 1_555 1_555
C20_3 C21_3 1_555 1_555
C22_3 O7_3 1_555 1_555
C23_3 N2_3 1_555 1_555
C24_3 N2_3 1_555 1_555
C25_3 O8_3 1_555 1_555
C26_3 N1_3 1_555 1_555
O4_3 Tb3 1_555 1_555
Tb4_3 O1_4 1_555 1_555
C1_4 C2_4 1_555 1_555
C2_4 C3_4 1_555 1_555
C3_4 C4_4 1_555 1_555
C4_4 C5_4 1_555 1_555
C5_4 C6_4 1_555 1_555
C6_4 C1_4 1_555 1_555
C7_4 C4_4 1_555 1_555
H1_4 C7_4 1_555 1_555
C12_4 C7_4 1_555 1_555
C15_4 C16_4 1_555 1_555
C16_4 C17_4 1_555 1_555
C17_4 C18_4 1_555 1_555
C18_4 C19_4 1_555 1_555
C19_4 C7_4 1_555 1_555
C20_4 C19_4 1_555 1_555
C21_4 C16_4 1_555 1_555
C22_4 H2_4 1_555 1_555
C23_4 H3_4 1_555 1_555
H4_4 C23_4 1_555 1_555
H5_4 C23_4 1_555 1_555
C24_4 H6_4 1_555 1_555
H7_4 C24_4 1_555 1_555
H8_4 C24_4 1_555 1_555
C25_4 H9_4 1_555 1_555
C26_4 H10_4 1_555 1_555
H11_4 C26_4 1_555 1_555
H12_4 C26_4 1_555 1_555
N1_4 C25_4 1_555 1_555
N2_4 C22_4 1_555 1_555
O1_4 C27_4 1_555 1_555
O2_4 C27_4 1_555 1_555
O6_4 C15_4 1_555 1_555
O7_4 Tb4_3 1_555 1_555
O8_4 Tb4_3 1_555 1_555
O9_4 Tb4_3 1_555 1_555
H13_4 O9_4 1_555 1_555
Cl1_4 C2_4 1_555 1_555
Cl2_4 C3_4 1_555 1_555
Cl3_4 C5_4 1_555 1_555
Cl4_4 C6_4 1_555 1_555
Cl11_4 C20_4 1_555 1_555
Cl12_4 C21_4 1_555 1_555
C27_4 C1_4 1_555 1_555
C28_4 N1_4 1_555 1_555
H14_4 C28_4 1_555 1_555
H15_4 C28_4 1_555 1_555
H16_4 C28_4 1_555 1_555
H17_4 O9_4 1_555 1_555
O10_4 Tb4_3 1_555 1_555
O11_4 Tb4_3 1_555 1_555
O12_4 Tb4_3 1_555 1_555
C20_4 C21_4 1_555 1_555
C22_4 O7_4 1_555 1_555
C23_4 N2_4 1_555 1_555
C24_4 N2_4 1_555 1_555
C25_4 O8_4 1_555 1_555
C26_4 N1_4 1_555 1_555
C8_4 C9_4 1_555 1_555
C9_4 C10_4 1_555 1_555
C10_4 C11_4 1_555 1_555
C14_4 C9_4 1_555 1_555
O3_4 C8_4 1_555 1_555
O4_4 C8_4 1_555 1_555
Cl5_4 C10_4 1_555 1_555
Cl6_4 C11_4 1_555 1_555
Cl8_4 C14_4 1_555 1_555
Tb3_2 O3_4 1_555 1_555
Tb3_4 O5_4 1_555 1_555
C13_4 C14_4 1_555 1_555
O4_4 Tb3_2 1_555 1_555
Tb4_4 O1_5 1_555 1_555
C1_5 C2_5 1_555 1_555
C2_5 C3_5 1_555 1_555
C3_5 C4_5 1_555 1_555
C4_5 C5_5 1_555 1_555
C5_5 C6_5 1_555 1_555
C6_5 C1_5 1_555 1_555
C7_5 C4_5 1_555 1_555
H1_5 C7_5 1_555 1_555
C8_5 C9_5 1_555 1_555
C9_5 C10_5 1_555 1_555
C10_5 C11_5 1_555 1_555
C11_5 C12_5 1_555 1_555
C12_5 C7_5 1_555 1_555
C13_5 C12_5 1_555 1_555
C14_5 C9_5 1_555 1_555
C15_5 C16_5 1_555 1_555
C16_5 C17_5 1_555 1_555
C17_5 C18_5 1_555 1_555
C18_5 C19_5 1_555 1_555
C19_5 C7_5 1_555 1_555
C20_5 C19_5 1_555 1_555
C21_5 C16_5 1_555 1_555
O1_5 C27_5 1_555 1_555
O2_5 C27_5 1_555 1_555
O3_5 C8_5 1_555 1_555
O4_5 C8_5 1_555 1_555
O5_5 C15_5 1_555 1_555
O6_5 C15_5 1_555 1_555
O7_5 Tb4_4 1_555 1_555
O9_5 Tb4_4 1_555 1_555
H13_5 O9_5 1_555 1_555
Cl1_5 C2_5 1_555 1_555
Cl2_5 C3_5 1_555 1_555
Cl3_5 C5_5 1_555 1_555
Cl4_5 C6_5 1_555 1_555
Cl5_5 C10_5 1_555 1_555
Cl6_5 C11_5 1_555 1_555
Cl7_5 C13_5 1_555 1_555
Cl8_5 C14_5 1_555 1_555
Cl9_5 C17_5 1_555 1_555
Cl10_5 C18_5 1_555 1_555
Cl11_5 C20_5 1_555 1_555
Cl12_5 C21_5 1_555 1_555
C27_5 C1_5 1_555 1_555
H17_5 O9_5 1_555 1_555
Tb2 O5_5 1_555 1_555
Tb4_5 O6_5 1_555 1_555
O12_5 Tb4_4 1_555 1_555
C13_5 C14_5 1_555 1_555
C20_5 C21_5 1_555 1_555
C25_5 H9_5 1_555 1_555
C26_5 H10_5 1_555 1_555
H11_5 C26_5 1_555 1_555
H12_5 C26_5 1_555 1_555
N1_5 C25_5 1_555 1_555
C28_5 N1_5 1_555 1_555
H14_5 C28_5 1_555 1_555
H15_5 C28_5 1_555 1_555
H16_5 C28_5 1_555 1_555
C25_5 O8_5 1_555 1_555
C26_5 N1_5 1_555 1_555
Tb4_5 O1_6 1_555 1_555
C1_6 C2_6 1_555 1_555
C2_6 C3_6 1_555 1_555
C3_6 C4_6 1_555 1_555
C4_6 C5_6 1_555 1_555
C5_6 C6_6 1_555 1_555
C6_6 C1_6 1_555 1_555
C7_6 C4_6 1_555 1_555
H1_6 C7_6 1_555 1_555
C8_6 C9_6 1_555 1_555
C9_6 C10_6 1_555 1_555
C10_6 C11_6 1_555 1_555
C11_6 C12_6 1_555 1_555
C12_6 C7_6 1_555 1_555
C13_6 C12_6 1_555 1_555
C14_6 C9_6 1_555 1_555
C15_6 C16_6 1_555 1_555
C16_6 C17_6 1_555 1_555
C17_6 C18_6 1_555 1_555
C18_6 C19_6 1_555 1_555
C19_6 C7_6 1_555 1_555
C20_6 C19_6 1_555 1_555
C21_6 C16_6 1_555 1_555
C22_5 H2_5 1_555 1_555
C23_5 H3_5 1_555 1_555
H4_5 C23_5 1_555 1_555
H5_6 C23_5 1_555 1_555
C24_5 H6_5 1_555 1_555
H7_5 C24_5 1_555 1_555
H8_5 C24_5 1_555 1_555
C25_6 H9_6 1_555 1_555
C26_6 H10_6 1_555 1_555
H11_6 C26_6 1_555 1_555
H12_6 C26_6 1_555 1_555
N1_6 C25_6 1_555 1_555
N2_5 C22_5 1_555 1_555
O1_6 C27_6 1_555 1_555
O2_6 C27_6 1_555 1_555
O3_6 C8_6 1_555 1_555
O4_6 C8_6 1_555 1_555
O5_6 C15_6 1_555 1_555
O13_2 C15_6 1_555 1_555
O7_6 Tb4_5 1_555 1_555
O8_6 Tb4_5 1_555 1_555
O9_6 Tb4_5 1_555 1_555
H13_6 O9_6 1_555 1_555
Cl1_6 C2_6 1_555 1_555
Cl2_6 C3_6 1_555 1_555
Cl3_6 C5_6 1_555 1_555
Cl4_6 C6_6 1_555 1_555
Cl5_6 C10_6 1_555 1_555
Cl6_6 C11_6 1_555 1_555
Cl7_6 C13_6 1_555 1_555
Cl8_6 C14_6 1_555 1_555
Cl9_6 C17_6 1_555 1_555
Cl10_6 C18_6 1_555 1_555
Cl11_6 C20_6 1_555 1_555
Cl12_6 C21_6 1_555 1_555
C27_6 C1_6 1_555 1_555
C28_6 N1_6 1_555 1_555
H14_6 C28_6 1_555 1_555
H15_6 C28_6 1_555 1_555
H16_6 C28_6 1_555 1_555
H17_6 O9_6 1_555 1_555
Tb2_4 O3_6 1_555 1_555
Tb2_2 O5_6 1_555 1_555
O10_6 Tb4_5 1_555 1_555
O11_6 Tb4_5 1_555 1_555
O12_6 Tb4_5 1_555 1_555
C13_6 C14_6 1_555 1_555
C20_6 C21_6 1_555 1_555
C22_5 O7_6 1_555 1_555
C23_5 N2_5 1_555 1_555
C24_5 N2_5 1_555 1_555
C25_6 O8_6 1_555 1_555
C26_6 N1_6 1_555 1_555
O4_6 Tb2_4 1_555 1_555
Tb2_3 O5_7 1_555 1_555
C8_7 C9_7 1_555 1_555
C9_7 C10_7 1_555 1_555
C10_7 C11_7 1_555 1_555
C14_7 C9_7 1_555 1_555
O3_7 C8_7 1_555 1_555
O4_7 C8_7 1_555 1_555
Cl5_7 C10_7 1_555 1_555
Cl6_7 C11_7 1_555 1_555
Cl8_7 C14_7 1_555 1_555
Tb3_3 O3_7 1_555 1_555
C13_7 C14_7 1_555 1_555
O4_7 Tb3_3 1_555 1_555
Tb4_2 O1_7 1_555 1_555
C1_7 C2_7 1_555 1_555
C2_7 C3_7 1_555 1_555
C3_7 C4_7 1_555 1_555
C4_7 C5_7 1_555 1_555
C5_7 C6_7 1_555 1_555
C6_7 C1_7 1_555 1_555
C7_7 C4_7 1_555 1_555
H1_7 C7_7 1_555 1_555
C12_7 C7_7 1_555 1_555
C15_7 C16_7 1_555 1_555
C16_7 C17_7 1_555 1_555
C17_7 C18_7 1_555 1_555
C18_7 C19_7 1_555 1_555
C19_7 C7_7 1_555 1_555
C20_7 C19_7 1_555 1_555
C22_6 H2_6 1_555 1_555
C23_6 H3_6 1_555 1_555
H4_6 C23_6 1_555 1_555
H5_7 C23_6 1_555 1_555
C24_6 H6_6 1_555 1_555
H7_6 C24_6 1_555 1_555
H8_6 C24_6 1_555 1_555
C25_7 H9_7 1_555 1_555
C26_7 H10_7 1_555 1_555
H11_7 C26_7 1_555 1_555
H12_7 C26_7 1_555 1_555
N1_7 C25_7 1_555 1_555
N2_6 C22_6 1_555 1_555
O1_7 C27_7 1_555 1_555
O2_7 C27_7 1_555 1_555
O6_6 C15_7 1_555 1_555
O7_7 Tb4_2 1_555 1_555
O8_7 Tb4_2 1_555 1_555
O9_7 Tb4_2 1_555 1_555
H13_7 O9_7 1_555 1_555
Cl1_7 C2_7 1_555 1_555
Cl2_7 C3_7 1_555 1_555
Cl3_7 C5_7 1_555 1_555
Cl4_7 C6_7 1_555 1_555
C27_7 C1_7 1_555 1_555
C28_7 N1_7 1_555 1_555
H14_7 C28_7 1_555 1_555
H15_7 C28_7 1_555 1_555
H16_7 C28_7 1_555 1_555
H17_7 O9_7 1_555 1_555
O10_7 Tb4_2 1_555 1_555
O11_7 Tb4_2 1_555 1_555
O12_7 Tb4_2 1_555 1_555
C22_6 O7_7 1_555 1_555
C23_6 N2_6 1_555 1_555
C24_6 N2_6 1_555 1_555
C25_7 O8_7 1_555 1_555
C26_7 N1_7 1_555 1_555
C1_8 C2_8 1_555 1_555
C2_8 C3_8 1_555 1_555
C3_8 C4_8 1_555 1_555
C4_8 C5_8 1_555 1_555
C5_8 C6_8 1_555 1_555
C6_8 C1_8 1_555 1_555
C7_8 C4_8 1_555 1_555
H1_8 C7_8 1_555 1_555
C8_8 C9_8 1_555 1_555
C9_8 C10_8 1_555 1_555
C10_8 C11_8 1_555 1_555
C11_8 C12_8 1_555 1_555
C12_8 C7_8 1_555 1_555
C13_8 C12_8 1_555 1_555
C14_8 C9_8 1_555 1_555
C15_8 C16_8 1_555 1_555
C16_8 C17_8 1_555 1_555
C17_8 C18_8 1_555 1_555
C18_8 C19_8 1_555 1_555
C19_8 C7_8 1_555 1_555
C20_8 C19_8 1_555 1_555
C21_7 C16_8 1_555 1_555
O1_8 C27_8 1_555 1_555
O2_8 C27_8 1_555 1_555
O3_8 C8_8 1_555 1_555
O4_8 C8_8 1_555 1_555
O5_8 C15_8 1_555 1_555
O13 C15_8 1_555 1_555
Cl1_8 C2_8 1_555 1_555
Cl2_8 C3_8 1_555 1_555
Cl3_8 C5_8 1_555 1_555
Cl4_8 C6_8 1_555 1_555
Cl5_8 C10_8 1_555 1_555
Cl6_8 C11_8 1_555 1_555
Cl7_8 C13_8 1_555 1_555
Cl8_8 C14_8 1_555 1_555
Cl9_8 C17_8 1_555 1_555
Cl10_8 C18_8 1_555 1_555
Cl11_7 C20_8 1_555 1_555
Cl12_7 C21_7 1_555 1_555
C27_8 C1_8 1_555 1_555
Tb2_4 O5_8 1_555 1_555
C13_8 C14_8 1_555 1_555
C20_8 C21_7 1_555 1_555
H14_8 C28_8 1_555 1_555
H15_8 C28_8 1_555 1_555
H16_8 C28_8 1_555 1_555
O7_8 Tb4_6 1_555 1_555
O9_8 Tb4_6 1_555 1_555
H13_8 O9_8 1_555 1_555
H17_8 O9_8 1_555 1_555
O12_8 Tb4_6 1_555 1_555
C25_8 H9_8 1_555 1_555
C26_8 H10_8 1_555 1_555
H12_8 C26_8 1_555 1_555
N1_8 C25_8 1_555 1_555
C25_8 O8_8 1_555 1_555
C26_8 N1_8 1_555 1_555
Cl12_8 C21_8 1_555 1_555
Tb3_3 O1_9 1_555 1_555
C1_9 C2_9 1_555 1_555
C2_9 C3_9 1_555 1_555
C3_9 C4_9 1_555 1_555
C4_9 C5_9 1_555 1_555
C5_9 C6_9 1_555 1_555
C6_9 C1_9 1_555 1_555
C7_9 C4_9 1_555 1_555
H1_9 C7_9 1_555 1_555
C8_9 C9_9 1_555 1_555
C9_9 C10_9 1_555 1_555
C10_9 C11_9 1_555 1_555
C11_9 C12_9 1_555 1_555
C12_9 C7_9 1_555 1_555
C13_9 C12_9 1_555 1_555
C14_9 C9_9 1_555 1_555
C15_9 C16_9 1_555 1_555
C16_9 C17_9 1_555 1_555
C17_9 C18_9 1_555 1_555
C18_9 C19_9 1_555 1_555
C19_9 C7_9 1_555 1_555
C20_9 C19_9 1_555 1_555
C22_7 H2_7 1_555 1_555
C23_7 H3_7 1_555 1_555
H4_7 C23_7 1_555 1_555
H5_9 C23_7 1_555 1_555
C24_7 H6_7 1_555 1_555
H7_7 C24_7 1_555 1_555
H8_7 C24_7 1_555 1_555
C25_9 H9_9 1_555 1_555
C26_9 H10_9 1_555 1_555
H11_9 C26_9 1_555 1_555
H12_9 C26_9 1_555 1_555
N1_9 C25_9 1_555 1_555
N2_7 C22_7 1_555 1_555
O1_9 C27_9 1_555 1_555
O2_9 C27_9 1_555 1_555
O10_7 C8_9 1_555 1_555
O11_7 C8_9 1_555 1_555
O6_7 C15_9 1_555 1_555
O7_9 Tb3_3 1_555 1_555
O8_9 Tb3_3 1_555 1_555
O9_9 Tb3_3 1_555 1_555
H13_9 O9_9 1_555 1_555
Cl1_9 C2_9 1_555 1_555
Cl2_9 C3_9 1_555 1_555
Cl3_9 C5_9 1_555 1_555
Cl4_9 C6_9 1_555 1_555
Cl5_9 C10_9 1_555 1_555
Cl6_9 C11_9 1_555 1_555
Cl7_9 C13_9 1_555 1_555
Cl8_9 C14_9 1_555 1_555
Cl9_9 C17_9 1_555 1_555
Cl10_9 C18_9 1_555 1_555
C27_9 C1_9 1_555 1_555
C28_9 N1_9 1_555 1_555
H14_9 C28_9 1_555 1_555
H15_9 C28_9 1_555 1_555
H16_9 C28_9 1_555 1_555
H17_9 O9_9 1_555 1_555
Tb3 O6_7 1_555 1_555
O13_3 Tb3_3 1_555 1_555
C13_9 C14_9 1_555 1_555
C22_7 O7_9 1_555 1_555
C23_7 N2_7 1_555 1_555
C24_7 N2_7 1_555 1_555
C25_9 O8_9 1_555 1_555
C26_9 N1_9 1_555 1_555
C1_10 C2_10 1_555 1_555
C2_10 C3_10 1_555 1_555
C3_10 C4_10 1_555 1_555
C4_10 C5_10 1_555 1_555
C5_10 C6_10 1_555 1_555
C6_10 C1_10 1_555 1_555
C7_10 C4_10 1_555 1_555
H1_10 C7_10 1_555 1_555
C8_10 C9_10 1_555 1_555
C9_10 C10_10 1_555 1_555
C10_10 C11_10 1_555 1_555
C11_10 C12_10 1_555 1_555
C12_10 C7_10 1_555 1_555
C13_10 C12_10 1_555 1_555
C14_10 C9_10 1_555 1_555
C15_10 C16_10 1_555 1_555
C16_10 C17_10 1_555 1_555
C17_10 C18_10 1_555 1_555
C18_10 C19_10 1_555 1_555
C19_10 C7_10 1_555 1_555
C20_10 C19_10 1_555 1_555
C21_9 C16_10 1_555 1_555
O1_10 C27_10 1_555 1_555
O2_10 C27_10 1_555 1_555
O10_3 C8_10 1_555 1_555
O11_3 C8_10 1_555 1_555
O12_6 C15_10 1_555 1_555
O6_8 C15_10 1_555 1_555
Cl1_10 C2_10 1_555 1_555
Cl2_10 C3_10 1_555 1_555
Cl3_10 C5_10 1_555 1_555
Cl4_10 C6_10 1_555 1_555
Cl5_10 C10_10 1_555 1_555
Cl6_10 C11_10 1_555 1_555
Cl7_10 C13_10 1_555 1_555
Cl8_10 C14_10 1_555 1_555
Cl9_10 C17_10 1_555 1_555
Cl10_10 C18_10 1_555 1_555
Cl11_9 C20_10 1_555 1_555
Cl12_9 C21_9 1_555 1_555
C27_10 C1_10 1_555 1_555
H14_10 C28_10 1_555 1_555
H15_10 C28_10 1_555 1_555
H16_10 C28_10 1_555 1_555
Tb2 O6_8 1_555 1_555
C13_10 C14_10 1_555 1_555
C20_10 C21_9 1_555 1_555
C22_8 H2_8 1_555 1_555
C23_8 H3_8 1_555 1_555
H4_8 C23_8 1_555 1_555
H5_10 C23_8 1_555 1_555
C24_8 H6_8 1_555 1_555
H7_8 C24_8 1_555 1_555
H8_8 C24_8 1_555 1_555
C25_10 H9_10 1_555 1_555
C26_10 H10_10 1_555 1_555
H12_10 C26_10 1_555 1_555
N1_10 C25_10 1_555 1_555
N2_8 C22_8 1_555 1_555
O7_10 Tb3 1_555 1_555
O8_10 Tb3 1_555 1_555
O9_10 Tb3 1_555 1_555
H13_10 O9_10 1_555 1_555
H17_10 O9_10 1_555 1_555
C22_8 O7_10 1_555 1_555
C23_8 N2_8 1_555 1_555
C24_8 N2_8 1_555 1_555
C25_10 O8_10 1_555 1_555
C26_10 N1_10 1_555 1_555
Tb2_2 O1_11 1_555 1_555
C1_11 C2_11 1_555 1_555
C2_11 C3_11 1_555 1_555
C3_11 C4_11 1_555 1_555
C4_11 C5_11 1_555 1_555
C5_11 C6_11 1_555 1_555
C6_11 C1_11 1_555 1_555
C7_11 C4_11 1_555 1_555
H1_11 C7_11 1_555 1_555
C8_11 C9_11 1_555 1_555
C9_11 C10_11 1_555 1_555
C10_11 C11_11 1_555 1_555
C11_11 C12_11 1_555 1_555
C12_11 C7_11 1_555 1_555
C13_11 C12_11 1_555 1_555
C14_11 C9_11 1_555 1_555
C15_11 C16_11 1_555 1_555
C16_11 C17_11 1_555 1_555
C17_11 C18_11 1_555 1_555
C18_11 C19_11 1_555 1_555
C19_11 C7_11 1_555 1_555
C20_11 C19_11 1_555 1_555
C21_10 C16_11 1_555 1_555
C22_9 H2_9 1_555 1_555
C23_9 H3_9 1_555 1_555
H4_9 C23_9 1_555 1_555
H5_11 C23_9 1_555 1_555
C24_9 H6_9 1_555 1_555
H7_9 C24_9 1_555 1_555
H8_9 C24_9 1_555 1_555
C25_11 H9_11 1_555 1_555
C26_11 H10_11 1_555 1_555
H11_11 C26_11 1_555 1_555
H12_11 C26_11 1_555 1_555
N1_11 C25_11 1_555 1_555
N2_9 C22_9 1_555 1_555
O1_11 C27_11 1_555 1_555
O2_11 C27_11 1_555 1_555
O10_2 C8_11 1_555 1_555
O11_2 C8_11 1_555 1_555
O12 C15_11 1_555 1_555
O6_9 C15_11 1_555 1_555
O7_11 Tb2_2 1_555 1_555
O8_11 Tb2_2 1_555 1_555
O9_11 Tb2_2 1_555 1_555
H13_11 O9_11 1_555 1_555
Cl1_11 C2_11 1_555 1_555
Cl2_11 C3_11 1_555 1_555
Cl3_11 C5_11 1_555 1_555
Cl4_11 C6_11 1_555 1_555
Cl5_11 C10_11 1_555 1_555
Cl6_11 C11_11 1_555 1_555
Cl7_11 C13_11 1_555 1_555
Cl8_11 C14_11 1_555 1_555
Cl9_11 C17_11 1_555 1_555
Cl10_11 C18_11 1_555 1_555
Cl11_10 C20_11 1_555 1_555
Cl12_10 C21_10 1_555 1_555
C27_11 C1_11 1_555 1_555
C28_11 N1_11 1_555 1_555
H14_11 C28_11 1_555 1_555
H15_11 C28_11 1_555 1_555
H16_11 C28_11 1_555 1_555
H17_11 O9_11 1_555 1_555
Tb2_4 O6_9 1_555 1_555
O13_4 Tb2_2 1_555 1_555
C13_11 C14_11 1_555 1_555
C20_11 C21_10 1_555 1_555
C22_9 O7_11 1_555 1_555
C23_9 N2_9 1_555 1_555
C24_9 N2_9 1_555 1_555
C25_11 O8_11 1_555 1_555
C26_11 N1_11 1_555 1_555
C8_12 C9_12 1_555 1_555
C9_12 C10_12 1_555 1_555
C10_12 C11_12 1_555 1_555
C14_12 C9_12 1_555 1_555
O10_6 C8_12 1_555 1_555
O11_6 C8_12 1_555 1_555
Cl5_12 C10_12 1_555 1_555
Cl6_12 C11_12 1_555 1_555
Cl8_12 C14_12 1_555 1_555
C13_12 C14_12 1_555 1_555
Tb2_4 O1_12 1_555 1_555
C1_12 C2_12 1_555 1_555
C2_12 C3_12 1_555 1_555
C3_12 C4_12 1_555 1_555
C4_12 C5_12 1_555 1_555
C5_12 C6_12 1_555 1_555
C6_12 C1_12 1_555 1_555
C7_12 C4_12 1_555 1_555
H1_12 C7_12 1_555 1_555
C12_12 C7_12 1_555 1_555
C15_12 C16_12 1_555 1_555
C16_12 C17_12 1_555 1_555
C17_12 C18_12 1_555 1_555
C18_12 C19_12 1_555 1_555
C19_12 C7_12 1_555 1_555
C20_12 C19_12 1_555 1_555
C21_11 C16_12 1_555 1_555
C22_10 H2_10 1_555 1_555
C23_10 H3_10 1_555 1_555
H4_10 C23_10 1_555 1_555
H5_12 C23_10 1_555 1_555
C24_10 H6_10 1_555 1_555
H7_10 C24_10 1_555 1_555
H8_10 C24_10 1_555 1_555
C25_12 H9_12 1_555 1_555
C26_12 H10_12 1_555 1_555
H11_12 C26_12 1_555 1_555
H12_12 C26_12 1_555 1_555
N1_12 C25_12 1_555 1_555
N2_10 C22_10 1_555 1_555
O1_12 C27_12 1_555 1_555
O2_12 C27_12 1_555 1_555
O6_10 C15_12 1_555 1_555
O7_12 Tb2_4 1_555 1_555
O8_12 Tb2_4 1_555 1_555
O9_12 Tb2_4 1_555 1_555
H13_12 O9_12 1_555 1_555
Cl1_12 C2_12 1_555 1_555
Cl2_12 C3_12 1_555 1_555
Cl3_12 C5_12 1_555 1_555
Cl4_12 C6_12 1_555 1_555
Cl11_11 C20_12 1_555 1_555
Cl12_11 C21_11 1_555 1_555
C27_12 C1_12 1_555 1_555
C28_12 N1_12 1_555 1_555
H14_12 C28_12 1_555 1_555
H15_12 C28_12 1_555 1_555
H16_12 C28_12 1_555 1_555
H17_12 O9_12 1_555 1_555
C20_12 C21_11 1_555 1_555
C22_10 O7_12 1_555 1_555
C23_10 N2_10 1_555 1_555
C24_10 N2_10 1_555 1_555
C25_12 O8_12 1_555 1_555
C26_12 N1_12 1_555 1_555
C25_13 H9_13 1_555 1_555
C26_13 H10_13 1_555 1_555
H11_13 C26_13 1_555 1_555
H12_13 C26_13 1_555 1_555
N1_13 C25_13 1_555 1_555
C28_13 N1_13 1_555 1_555
H14_13 C28_13 1_555 1_555
H15_13 C28_13 1_555 1_555
H16_13 C28_13 1_555 1_555
C25_13 O8_13 1_555 1_555
C26_13 N1_13 1_555 1_555
Tb3_4 O1_13 1_555 1_555
C1_13 C2_13 1_555 1_555
C2_13 C3_13 1_555 1_555
C3_13 C4_13 1_555 1_555
C4_13 C5_13 1_555 1_555
C5_13 C6_13 1_555 1_555
C6_13 C1_13 1_555 1_555
C7_13 C4_13 1_555 1_555
H1_13 C7_13 1_555 1_555
C8_13 C9_13 1_555 1_555
C9_13 C10_13 1_555 1_555
C10_13 C11_13 1_555 1_555
C11_13 C12_13 1_555 1_555
C12_13 C7_13 1_555 1_555
C13_13 C12_13 1_555 1_555
C14_13 C9_13 1_555 1_555
C15_13 C16_13 1_555 1_555
C16_13 C17_13 1_555 1_555
C17_13 C18_13 1_555 1_555
C18_13 C19_13 1_555 1_555
C19_13 C7_13 1_555 1_555
C20_13 C19_13 1_555 1_555
C21_12 C16_13 1_555 1_555
O1_13 C27_13 1_555 1_555
O2_13 C27_13 1_555 1_555
O10_8 C8_13 1_555 1_555
O11_8 C8_13 1_555 1_555
O12_7 C15_13 1_555 1_555
O6_11 C15_13 1_555 1_555
O7_13 Tb3_4 1_555 1_555
O9_13 Tb3_4 1_555 1_555
H13_13 O9_13 1_555 1_555
Cl1_13 C2_13 1_555 1_555
Cl2_13 C3_13 1_555 1_555
Cl3_13 C5_13 1_555 1_555
Cl4_13 C6_13 1_555 1_555
Cl5_13 C10_13 1_555 1_555
Cl6_13 C11_13 1_555 1_555
Cl7_13 C13_13 1_555 1_555
Cl8_13 C14_13 1_555 1_555
Cl9_13 C17_13 1_555 1_555
Cl10_13 C18_13 1_555 1_555
Cl11_12 C20_13 1_555 1_555
Cl12_12 C21_12 1_555 1_555
C27_13 C1_13 1_555 1_555
H17_13 O9_13 1_555 1_555
Tb3_2 O6_11 1_555 1_555
C13_13 C14_13 1_555 1_555
C20_13 C21_12 1_555 1_555
Tb3_2 O1_14 1_555 1_555
C1_14 C2_14 1_555 1_555
C2_14 C3_14 1_555 1_555
C3_14 C4_14 1_555 1_555
C4_14 C5_14 1_555 1_555
C5_14 C6_14 1_555 1_555
C6_14 C1_14 1_555 1_555
C7_14 C4_14 1_555 1_555
H1_14 C7_14 1_555 1_555
C8_14 C9_14 1_555 1_555
C9_14 C10_14 1_555 1_555
C10_14 C11_14 1_555 1_555
C11_14 C12_14 1_555 1_555
C12_14 C7_14 1_555 1_555
C13_14 C12_14 1_555 1_555
C14_14 C9_14 1_555 1_555
C15_14 C16_14 1_555 1_555
C16_14 C17_14 1_555 1_555
C17_14 C18_14 1_555 1_555
C18_14 C19_14 1_555 1_555
C19_14 C7_14 1_555 1_555
C20_14 C19_14 1_555 1_555
C21_13 C16_14 1_555 1_555
C22_11 H2_11 1_555 1_555
C23_11 H3_11 1_555 1_555
H4_11 C23_11 1_555 1_555
H5_14 C23_11 1_555 1_555
C24_11 H6_11 1_555 1_555
H7_11 C24_11 1_555 1_555
H8_11 C24_11 1_555 1_555
C25_14 H9_14 1_555 1_555
C26_14 H10_14 1_555 1_555
H11_14 C26_14 1_555 1_555
H12_14 C26_14 1_555 1_555
N1_14 C25_14 1_555 1_555
N2_11 C22_11 1_555 1_555
O1_14 C27_14 1_555 1_555
O2_14 C27_14 1_555 1_555
O10_4 C8_14 1_555 1_555
O11_4 C8_14 1_555 1_555
O12_3 C15_14 1_555 1_555
O13_4 C15_14 1_555 1_555
O7_14 Tb3_2 1_555 1_555
O8_14 Tb3_2 1_555 1_555
O9_14 Tb3_2 1_555 1_555
H13_14 O9_14 1_555 1_555
Cl1_14 C2_14 1_555 1_555
Cl2_14 C3_14 1_555 1_555
Cl3_14 C5_14 1_555 1_555
Cl4_14 C6_14 1_555 1_555
Cl5_14 C10_14 1_555 1_555
Cl6_14 C11_14 1_555 1_555
Cl7_14 C13_14 1_555 1_555
Cl8_14 C14_14 1_555 1_555
Cl9_14 C17_14 1_555 1_555
Cl10_14 C18_14 1_555 1_555
Cl11_13 C20_14 1_555 1_555
Cl12_13 C21_13 1_555 1_555
C27_14 C1_14 1_555 1_555
C28_14 N1_14 1_555 1_555
H14_14 C28_14 1_555 1_555
H15_14 C28_14 1_555 1_555
H16_14 C28_14 1_555 1_555
H17_14 O9_14 1_555 1_555
C13_14 C14_14 1_555 1_555
C20_14 C21_13 1_555 1_555
C22_11 O7_14 1_555 1_555
C23_11 N2_11 1_555 1_555
C24_11 N2_11 1_555 1_555
C25_14 O8_14 1_555 1_555
C26_14 N1_14 1_555 1_555
Tb2 O1_15 1_555 1_555
C1_15 C2_15 1_555 1_555
C2_15 C3_15 1_555 1_555
C3_15 C4_15 1_555 1_555
C4_15 C5_15 1_555 1_555
C5_15 C6_15 1_555 1_555
C6_15 C1_15 1_555 1_555
C7_15 C4_15 1_555 1_555
H1_15 C7_15 1_555 1_555
C12_15 C7_15 1_555 1_555
C15_15 C16_15 1_555 1_555
C16_15 C17_15 1_555 1_555
C17_15 C18_15 1_555 1_555
C18_15 C19_15 1_555 1_555
C19_15 C7_15 1_555 1_555
C20_15 C19_15 1_555 1_555
C22_12 H2_12 1_555 1_555
C23_12 H3_12 1_555 1_555
H4_12 C23_12 1_555 1_555
H5_15 C23_12 1_555 1_555
C24_12 H6_12 1_555 1_555
H7_12 C24_12 1_555 1_555
H8_12 C24_12 1_555 1_555
C25_15 H9_15 1_555 1_555
C26_15 H10_15 1_555 1_555
H11_15 C26_15 1_555 1_555
H12_15 C26_15 1_555 1_555
N1_15 C25_15 1_555 1_555
N2_12 C22_12 1_555 1_555
O1_15 C27_15 1_555 1_555
O2_15 C27_15 1_555 1_555
O6_12 C15_15 1_555 1_555
O7_15 Tb2 1_555 1_555
O8_15 Tb2 1_555 1_555
O9_15 Tb2 1_555 1_555
H13_15 O9_15 1_555 1_555
Cl1_15 C2_15 1_555 1_555
Cl2_15 C3_15 1_555 1_555
Cl3_15 C5_15 1_555 1_555
Cl4_15 C6_15 1_555 1_555
C27_15 C1_15 1_555 1_555
C28_15 N1_15 1_555 1_555
H14_15 C28_15 1_555 1_555
H15_15 C28_15 1_555 1_555
H16_15 C28_15 1_555 1_555
H17_15 O9_15 1_555 1_555
C22_12 O7_15 1_555 1_555
C23_12 N2_12 1_555 1_555
C24_12 N2_12 1_555 1_555
C25_15 O8_15 1_555 1_555
C26_15 N1_15 1_555 1_555
C8_15 C9_15 1_555 1_555
C9_15 C10_15 1_555 1_555
C10_15 C11_15 1_555 1_555
C14_15 C9_15 1_555 1_555
O10 C8_15 1_555 1_555
O11 C8_15 1_555 1_555
Cl5_15 C10_15 1_555 1_555
Cl6_15 C11_15 1_555 1_555
Cl8_15 C14_15 1_555 1_555
C13_15 C14_15 1_555 1_555
C25_16 H9_16 1_555 1_555
C26_16 H10_16 1_555 1_555
H12_16 C26_16 1_555 1_555
N1_16 C25_16 1_555 1_555
C25_16 O8_16 1_555 1_555
C26_16 N1_16 1_555 1_555
O7_16 Tb2_3 1_555 1_555
O9_16 Tb2_3 1_555 1_555
H13_16 O9_16 1_555 1_555
H17_16 O9_16 1_555 1_555
H14_16 C28_16 1_555 1_555
H15_16 C28_16 1_555 1_555
H16_16 C28_16 1_555 1_555
C1_16 C2_16 1_555 1_555
C2_16 C3_16 1_555 1_555
C3_16 C4_16 1_555 1_555
C4_16 C5_16 1_555 1_555
C5_16 C6_16 1_555 1_555
C6_16 C1_16 1_555 1_555
C7_16 C4_16 1_555 1_555
H1_16 C7_16 1_555 1_555
C8_16 C9_16 1_555 1_555
C9_16 C10_16 1_555 1_555
C10_16 C11_16 1_555 1_555
C11_16 C12_16 1_555 1_555
C12_16 C7_16 1_555 1_555
C13_16 C12_16 1_555 1_555
C14_16 C9_16 1_555 1_555
C15_16 C16_16 1_555 1_555
C16_16 C17_16 1_555 1_555
C17_16 C18_16 1_555 1_555
C18_16 C19_16 1_555 1_555
C19_16 C7_16 1_555 1_555
C20_16 C19_16 1_555 1_555
C21_14 C16_16 1_555 1_555
O1_16 C27_16 1_555 1_555
O2_16 C27_16 1_555 1_555
O10_5 C8_16 1_555 1_555
O11_5 C8_16 1_555 1_555
O12_4 C15_16 1_555 1_555
O13_3 C15_16 1_555 1_555
Cl1_16 C2_16 1_555 1_555
Cl2_16 C3_16 1_555 1_555
Cl3_16 C5_16 1_555 1_555
Cl4_16 C6_16 1_555 1_555
Cl5_16 C10_16 1_555 1_555
Cl6_16 C11_16 1_555 1_555
Cl7_16 C13_16 1_555 1_555
Cl8_16 C14_16 1_555 1_555
Cl9_16 C17_16 1_555 1_555
Cl10_16 C18_16 1_555 1_555
Cl11_14 C20_16 1_555 1_555
Cl12_14 C21_14 1_555 1_555
C27_16 C1_16 1_555 1_555
C13_16 C14_16 1_555 1_555
C20_16 C21_14 1_555 1_555
C22_13 H2_13 1_555 1_555
C23_13 H3_13 1_555 1_555
H4_13 C23_13 1_555 1_555
C24_13 H6_13 1_555 1_555
H7_13 C24_13 1_555 1_555
H8_13 C24_13 1_555 1_555
N2_13 C22_13 1_555 1_555
C23_13 N2_13 1_555 1_555
C24_13 N2_13 1_555 1_555
Cl12_15 C21_15 1_555 1_555
C22_14 H2_14 1_555 1_555
C23_14 H3_14 1_555 1_555
H4_14 C23_14 1_555 1_555
C24_14 H6_14 1_555 1_555
H7_14 C24_14 1_555 1_555
H8_14 C24_14 1_555 1_555
N2_14 C22_14 1_555 1_555
C23_14 N2_14 1_555 1_555
C24_14 N2_14 1_555 1_555
C22_15 H2_15 1_555 1_555
C23_15 H3_15 1_555 1_555
H4_15 C23_15 1_555 1_555
C24_15 H6_15 1_555 1_555
H7_15 C24_15 1_555 1_555
H8_15 C24_15 1_555 1_555
N2_15 C22_15 1_555 1_555
C23_15 N2_15 1_555 1_555
C24_15 N2_15 1_555 1_555
Cl12_16 C21_16 1_555 1_555
C22_16 H2_16 1_555 1_555
C23_16 H3_16 1_555 1_555
H4_16 C23_16 1_555 1_555
C24_16 H6_16 1_555 1_555
H7_16 C24_16 1_555 1_555
H8_16 C24_16 1_555 1_555
N2_16 C22_16 1_555 1_555
C23_16 N2_16 1_555 1_555
C24_16 N2_16 1_555 1_555

#END
