
###############################################################################
#
# This file contains modified crystal structure data generated from the
# MOF subset of the Cambridge Structural Database (CSD) v543 
# hosted by the Cambridge Crystallographic Data Centre (CCDC).
#
# This work is licensed under the Creative Commons
# Attribution-NonCommercial-ShareAlike 4.0 International License.
# To view a copy of this license, visit
# http://creativecommons.org/licenses/by-nc-sa/4.0/
# or send a letter to
# Creative Commons, PO Box 1866, Mountain View, CA 94042, USA.
#
# CIF created using the CSD Python API on 29 September 2022
# The structure has been converted into the P1 space group
# The structure has a 3D framework
# The original CSD entry DOMGET is in the monoclinic crystal system
# The framework has been calculated to contain at least 10.0% void space
# The void calculation uses a probe of radius 1.32A, grid spacing 0.4
# H atom positions have been added when not included in the experimental data
# Generated hydrogen atom positions removed from atoms on special positions
#
###############################################################################

data_DOMGET
_chemical_formula_moiety         '(C396 H248 Dy12 N38 Na16 O110 Zn8)n'
_symmetry_cell_setting           triclinic
_symmetry_space_group_name_H-M   'P 1'
_symmetry_Int_Tables_number      1
_space_group_name_Hall           'P 1'
loop_
_symmetry_equiv_pos_site_id
_symmetry_equiv_pos_as_xyz
1 x,y,z
_cell_length_a                   32.7734(13)
_cell_length_b                   34.8731(14)
_cell_length_c                   11.4924(5)
_cell_angle_alpha                90
_cell_angle_beta                 109.7290(18)
_cell_angle_gamma                90
_cell_volume                     12363.8
loop_
_atom_site_label
_atom_site_type_symbol
_atom_site_fract_x
_atom_site_fract_y
_atom_site_fract_z
Dy1 Dy 0.292314(7) 0.0000 0.20509(2)
Zn1 Zn 0.536237(13) 0.261399(12) 0.29527(4)
Na1 Na 0.32388(6) 0.5000 0.00731(19)
Na2 Na 0.75203(4) 0.07731(4) 0.01261(12)
Na3 Na 0.76674(7) 0.5000 0.49117(19)
O1 O 0.73418(8) 0.04067(7) 0.3585(2)
O2 O 0.76126(8) 0.45897(7) 0.3310(2)
O4 O 0.72347(8) 0.45817(7) 0.1319(2)
O5 O 0.32347(8) 0.45856(7) 0.3534(2)
O6 O 0.35080(8) 0.04085(7) 0.3275(2)
O7 O 0.31201(7) 0.45938(7) 0.1537(2)
O9 O 0.73652(8) 0.06778(7) 0.1878(2)
O10 O 0.34145(11) 0.0000 0.0881(3)
O11 O 0.30661(8) 0.06781(7) 0.1598(2)
O12 O 0.68634(14) 0.5000 0.4414(4)
H1 H 0.6761 0.5221 0.4850
O13 O 0.75959(13) 0.14060(9) 0.0065(3)
O14 O 0.84389(17) 0.5000 0.5412(5)
O15 O 0.51342(18) 0.25597(11) 0.1033(3)
N1 N 0.53963(9) 0.20287(8) 0.3301(3)
N2 N 0.47776(9) 0.26240(8) 0.3271(3)
N3 N 0.60268(9) 0.26146(8) 0.3307(3)
N4 N 0.53851(9) 0.32029(8) 0.3085(3)
C1 C 0.70080(11) 0.41636(10) 0.2629(3)
C2 C 0.33257(11) 0.44698(10) 0.2617(3)
C3 C 0.57257(11) 0.17937(10) 0.3253(3)
C4 C 0.50413(11) 0.34392(10) 0.3005(3)
C5 C 0.73001(11) 0.44626(10) 0.2412(3)
C6 C 0.34054(11) 0.06893(10) 0.2534(3)
C7 C 0.37035(11) 0.10271(10) 0.2746(4)
C8 C 0.62821(11) 0.29291(11) 0.3352(4)
C9 C 0.46404(11) 0.19272(11) 0.3196(3)
C10 C 0.50419(12) 0.17988(10) 0.3153(3)
C11 C 0.43142(11) 0.36235(10) 0.3029(3)
C12 C 0.51530(12) 0.38324(10) 0.2821(4)
H2 H 0.4972 0.4051 0.2722
C13 C 0.61342(11) 0.33097(10) 0.3130(3)
C14 C 0.45344(11) 0.23127(10) 0.3336(3)
C15 C 0.72498(11) 0.06833(10) 0.2815(3)
C16 C 0.61437(12) 0.19146(11) 0.3348(4)
C17 C 0.69896(11) 0.10127(10) 0.3014(3)
C18 C 0.64444(11) 0.36057(10) 0.2979(4)
C19 C 0.45457(11) 0.29431(11) 0.3348(3)
C20 C 0.46508(11) 0.33213(10) 0.3150(3)
C21 C 0.57132(11) 0.34349(10) 0.2981(3)
C22 C 0.36753(11) 0.41807(10) 0.2784(3)
C23 C 0.62857(11) 0.22980(11) 0.3440(4)
C24 C 0.55679(12) 0.38274(11) 0.2816(4)
H3 H 0.5731 0.4043 0.2721
C25 C 0.43023(12) 0.16282(11) 0.3069(4)
C26 C 0.51519(13) 0.14084(11) 0.2977(4)
H4 H 0.4963 0.1194 0.2841
C27 C 0.64581(12) 0.16111(10) 0.3289(4)
C28 C 0.40737(12) 0.10337(11) 0.3760(4)
H5 H 0.4128 0.0834 0.4355
C29 C 0.70336(13) 0.40551(12) 0.3792(4)
H6 H 0.7244 0.4169 0.4489
C30 C 0.68754(14) 0.13115(11) 0.2167(4)
H7 H 0.6979 0.1313 0.1488
C31 C 0.55673(13) 0.14020(11) 0.3040(4)
H8 H 0.5728 0.1183 0.2961
C32 C 0.41546(12) 0.28244(11) 0.3568(4)
H9 H 0.3942 0.2988 0.3695
C33 C 0.43707(12) 0.13327(12) 0.3923(4)
H10 H 0.4625 0.1334 0.4633
C34 C 0.41495(12) 0.24389(12) 0.3557(4)
H11 H 0.3932 0.2279 0.3675
C35 C 0.36171(13) 0.13308(12) 0.1914(4)
H12 H 0.3356 0.1333 0.1226
C36 C 0.68529(12) 0.10230(11) 0.4036(4)
H13 H 0.6942 0.0828 0.4648
C37 C 0.67540(14) 0.37787(13) 0.3967(4)
H14 H 0.6777 0.3707 0.4784
C38 C 0.66138(14) 0.16064(12) 0.2295(4)
H15 H 0.6539 0.1808 0.1705
C39 C 0.67254(13) 0.24218(12) 0.3641(4)
H16 H 0.6972 0.2261 0.3795
C40 C 0.65864(12) 0.13182(11) 0.4161(4)
H17 H 0.6490 0.1320 0.4853
C41 C 0.38843(16) 0.40150(14) 0.3901(4)
H18 H 0.3813 0.4091 0.4603
C42 C 0.39113(13) 0.16309(12) 0.2083(4)
H19 H 0.3845 0.1840 0.1520
C43 C 0.67223(12) 0.28064(12) 0.3572(4)
H20 H 0.6964 0.2967 0.3653
C44 C 0.42022(15) 0.37344(14) 0.4031(4)
H21 H 0.4341 0.3620 0.4815
C45 C 0.67047(18) 0.39879(19) 0.1636(4)
H22 H 0.6684 0.4058 0.0819
C46 C 0.5000 0.2648(2) 0.0000
C47 C 0.38010(17) 0.40826(17) 0.1787(4)
H23 H 0.3675 0.4208 0.1016
C48 C 0.64304(18) 0.37098(18) 0.1818(4)
H24 H 0.6228 0.3589 0.1121
C49 C 0.41108(18) 0.38009(18) 0.1917(5)
H25 H 0.4185 0.3728 0.1217
H26 H 0.6761 0.4779 0.4850
Dy4 Dy 0.792314(7) 0.5000 0.20509(2)
Dy6 Dy 0.762827(7) 0.0000 0.23206(2)
Dy8 Dy 0.262827(7) 0.5000 0.23206(2)
Na8 Na 0.25203(4) 0.42269(4) 0.01261(12)
Na11 Na 0.73326(7) 0.0000 0.50883(19)
O26 O 0.76582(8) 0.54067(7) 0.6415(2)
O28 O 0.76582(8) 0.45933(7) 0.6415(2)
O30 O 0.76126(8) 0.54103(7) 0.3310(2)
O31 O 0.26126(8) 0.04103(7) 0.3310(2)
O32 O 0.72932(10) -0.0000 0.0130(3)
O36 O 0.22347(8) 0.04183(7) 0.1319(2)
O41 O 0.31201(7) 0.54062(7) 0.1537(2)
O43 O 0.81201(7) 0.04062(7) 0.1537(2)
Dy2 Dy 0.237173(7) 0.0000 0.76794(2)
O3 O 0.27068(10) 0.0000 0.9870(3)
O8 O 0.31505(11) 0.0000 0.8784(3)
N5 N 0.31085(16) 0.0000 0.9829(5)
C46_2 C 0.5000 0.2648(2) 1.0000
O16 O 0.48658(18) 0.25597(11) 0.8967(3)
Zn2 Zn 0.463763(13) 0.261399(12) 0.70473(4)
Na4 Na 0.24797(4) 0.07731(4) 0.98739(12)
O17 O 0.26582(8) 0.04067(7) 0.6415(2)
O18 O 0.23874(8) 0.45897(7) 0.6690(2)
O19 O 0.27653(8) 0.45817(7) 0.8681(2)
O20 O 0.67653(8) 0.45856(7) 0.6466(2)
O21 O 0.64920(8) 0.04085(7) 0.6725(2)
O22 O 0.68799(7) 0.45938(7) 0.8463(2)
O23 O 0.26348(8) 0.06778(7) 0.8122(2)
O24 O 0.69339(8) 0.06781(7) 0.8402(2)
O25 O 0.24041(13) 0.14060(9) 0.9935(3)
N6 N 0.46037(9) 0.20287(8) 0.6699(3)
N7 N 0.52224(9) 0.26240(8) 0.6729(3)
N8 N 0.39732(9) 0.26146(8) 0.6693(3)
N9 N 0.46149(9) 0.32029(8) 0.6915(3)
C50 C 0.29920(11) 0.41636(10) 0.7371(3)
C51 C 0.66743(11) 0.44698(10) 0.7383(3)
C52 C 0.42743(11) 0.17937(10) 0.6747(3)
C53 C 0.49587(11) 0.34392(10) 0.6995(3)
C54 C 0.26999(11) 0.44626(10) 0.7588(3)
C55 C 0.65946(11) 0.06893(10) 0.7466(3)
C56 C 0.62965(11) 0.10271(10) 0.7254(4)
C57 C 0.37179(11) 0.29291(11) 0.6648(4)
C58 C 0.53596(11) 0.19272(11) 0.6804(3)
C59 C 0.49581(12) 0.17988(10) 0.6847(3)
C60 C 0.56858(11) 0.36235(10) 0.6971(3)
C61 C 0.48470(12) 0.38324(10) 0.7179(4)
H27 H 0.5028 0.4051 0.7278
C62 C 0.38658(11) 0.33097(10) 0.6870(3)
C63 C 0.54656(11) 0.23127(10) 0.6664(3)
C64 C 0.27502(11) 0.06833(10) 0.7185(3)
C65 C 0.38563(12) 0.19146(11) 0.6652(4)
C66 C 0.30104(11) 0.10127(10) 0.6986(3)
C67 C 0.35556(11) 0.36057(10) 0.7021(4)
C68 C 0.54543(11) 0.29431(11) 0.6652(3)
C69 C 0.53492(11) 0.33213(10) 0.6850(3)
C70 C 0.42868(11) 0.34349(10) 0.7019(3)
C71 C 0.63247(11) 0.41807(10) 0.7216(3)
C72 C 0.37143(11) 0.22980(11) 0.6560(4)
C73 C 0.44321(12) 0.38274(11) 0.7184(4)
H28 H 0.4269 0.4043 0.7279
C74 C 0.56977(12) 0.16282(11) 0.6931(4)
C75 C 0.48481(13) 0.14084(11) 0.7023(4)
H29 H 0.5037 0.1194 0.7159
C76 C 0.35419(12) 0.16111(10) 0.6711(4)
C77 C 0.59263(12) 0.10337(11) 0.6240(4)
H30 H 0.5872 0.0834 0.5645
C78 C 0.29664(13) 0.40551(12) 0.6208(4)
H31 H 0.2756 0.4169 0.5511
C79 C 0.31246(14) 0.13115(11) 0.7833(4)
H32 H 0.3021 0.1313 0.8512
C80 C 0.44327(13) 0.14020(11) 0.6960(4)
H33 H 0.4272 0.1183 0.7039
C81 C 0.58454(12) 0.28244(11) 0.6432(4)
H34 H 0.6058 0.2988 0.6305
C82 C 0.56293(12) 0.13327(12) 0.6077(4)
H35 H 0.5375 0.1334 0.5367
C83 C 0.58505(12) 0.24389(12) 0.6443(4)
H36 H 0.6068 0.2279 0.6325
C84 C 0.63829(13) 0.13308(12) 0.8086(4)
H37 H 0.6644 0.1333 0.8774
C85 C 0.31471(12) 0.10230(11) 0.5964(4)
H38 H 0.3058 0.0828 0.5352
C86 C 0.32460(14) 0.37787(13) 0.6033(4)
H39 H 0.3223 0.3707 0.5216
C87 C 0.33862(14) 0.16064(12) 0.7705(4)
H40 H 0.3461 0.1808 0.8295
C88 C 0.32746(13) 0.24218(12) 0.6359(4)
H41 H 0.3028 0.2261 0.6205
C89 C 0.34136(12) 0.13182(11) 0.5839(4)
H42 H 0.3510 0.1320 0.5147
C90 C 0.61157(16) 0.40150(14) 0.6099(4)
H43 H 0.6187 0.4091 0.5397
C91 C 0.60887(13) 0.16309(12) 0.7917(4)
H44 H 0.6155 0.1840 0.8480
C92 C 0.32777(12) 0.28064(12) 0.6428(4)
H45 H 0.3036 0.2967 0.6347
C93 C 0.57978(15) 0.37344(14) 0.5969(4)
H46 H 0.5659 0.3620 0.5185
C94 C 0.32953(18) 0.39879(19) 0.8364(4)
H47 H 0.3316 0.4058 0.9181
C95 C 0.61990(17) 0.40826(17) 0.8213(4)
H48 H 0.6325 0.4208 0.8984
C96 C 0.35696(18) 0.37098(18) 0.8182(4)
H49 H 0.3772 0.3589 0.8879
C97 C 0.58892(18) 0.38009(18) 0.8083(5)
H50 H 0.5815 0.3728 0.8783
Dy3 Dy 0.707686(7) 0.0000 0.79491(2)
Dy5 Dy 0.207686(7) 0.5000 0.79491(2)
Dy7 Dy 0.737173(7) 0.5000 0.76794(2)
Na5 Na 0.67612(6) 0.5000 0.99269(19)
Na7 Na 0.74797(4) 0.42269(4) 0.98739(12)
Na9 Na 0.23326(7) 0.5000 0.50883(19)
Na10 Na 0.26674(7) -0.0000 0.49117(19)
O34 O 0.27653(8) 0.54183(7) 0.8681(2)
O35 O 0.77653(8) 0.04183(7) 0.8681(2)
O38 O 0.17653(8) 0.04144(7) 0.6466(2)
O42 O 0.18799(7) 0.04062(7) 0.8463(2)
H56 H 0.766552 0.147642 0.931594
Dy1_2 Dy 0.292314(7) 1.0000 0.20509(2)
O10_2 O 0.34145(11) 1.0000 0.0881(3)
Dy6_2 Dy 0.762827(7) 1.0000 0.23206(2)
Na11_2 Na 0.73326(7) 1.0000 0.50883(19)
O29 O 0.26126(8) 0.95897(7) 0.3310(2)
O32_2 O 0.72932(10) 1.0000 0.0130(3)
O33 O 0.22347(8) 0.95817(7) 0.1319(2)
O39 O 0.35080(8) 0.95915(7) 0.3275(2)
O45 O 0.30661(8) 0.93219(7) 0.1598(2)
Dy2_2 Dy 0.237173(7) 1.0000 0.76794(2)
O3_2 O 0.27068(10) 1.0000 0.9870(3)
O8_2 O 0.31505(11) 1.0000 0.8784(3)
N5_2 N 0.31085(16) 1.0000 0.9829(5)
Dy3_2 Dy 0.707686(7) 1.0000 0.79491(2)
Na6 Na 0.24797(4) 0.92269(4) 0.98739(12)
Na10_2 Na 0.26674(7) 1.0000 0.49117(19)
O27 O 0.26582(8) 0.95933(7) 0.6415(2)
O37 O 0.17653(8) 0.95856(7) 0.6466(2)
O40 O 0.18799(7) 0.95938(7) 0.8463(2)
O44 O 0.26348(8) 0.93222(7) 0.8122(2)
O8_3 O 0.68495(11) -0.0000 0.1216(3)
N5_3 N 0.68915(16) 0.0000 0.0171(5)
O34_2 O 0.72347(8) 0.54183(7) 0.1319(2)
O38_2 O 0.82347(8) 0.04144(7) 0.3534(2)
H56_2 H 0.233448 0.147642 0.068406
O10_3 O 0.65855(11) 0.0000 0.9119(3)
O12_2 O 0.31366(14) 0.5000 0.5586(4)
H1_2 H 0.3239 0.5221 0.5150
O14_2 O 0.15611(17) 0.5000 0.4588(5)
H26_2 H 0.3239 0.4779 0.5150
O26_2 O 0.23418(8) 0.54067(7) 0.3585(2)
O28_2 O 0.23418(8) 0.45933(7) 0.3585(2)
O30_2 O 0.23874(8) 0.54103(7) 0.6690(2)
O31_2 O 0.73874(8) 0.04103(7) 0.6690(2)
O41_2 O 0.68799(7) 0.54062(7) 0.8463(2)
O8_4 O 0.68495(11) 1.0000 0.1216(3)
N5_4 N 0.68915(16) 1.0000 0.0171(5)
Na6_2 Na 0.75203(4) 0.92269(4) 0.01261(12)
O27_2 O 0.73418(8) 0.95933(7) 0.3585(2)
O37_2 O 0.82347(8) 0.95856(7) 0.3534(2)
O40_2 O 0.81201(7) 0.95938(7) 0.1537(2)
O44_2 O 0.73652(8) 0.93222(7) 0.1878(2)
O10_4 O 0.65855(11) 1.0000 0.9119(3)
O29_2 O 0.73874(8) 0.95897(7) 0.6690(2)
O33_2 O 0.77653(8) 0.95817(7) 0.8681(2)
O39_2 O 0.64920(8) 0.95915(7) 0.6725(2)
O45_2 O 0.69339(8) 0.93219(7) 0.8402(2)
O12_3 O 0.18634(14) -0.0000 0.4414(4)
H1_3 H 0.1761 0.0221 0.4850
O14_3 O 0.34389(17) -0.0000 0.5412(5)
H53 H 0.35126 0.00976358 0.469577
H54 H 0.357301 0.0167756 0.613931
Na5_2 Na 0.17612(6) -0.0000 0.99269(19)
Zn1_2 Zn 0.036237(13) 0.761399(12) 0.29527(4)
Na2_2 Na 0.25203(4) 0.57731(4) 0.01261(12)
O9_2 O 0.23652(8) 0.56778(7) 0.1878(2)
O12_4 O 0.18634(14) 1.0000 0.4414(4)
O13_2 O 0.25959(13) 0.64060(9) 0.0065(3)
O14_4 O 0.34389(17) 1.0000 0.5412(5)
O15_2 O 0.01342(18) 0.75597(11) 0.1033(3)
N1_2 N 0.03963(9) 0.70287(8) 0.3301(3)
N3_2 N 0.10268(9) 0.76146(8) 0.3307(3)
N4_2 N 0.03851(9) 0.82029(8) 0.3085(3)
C1_2 C 0.20080(11) 0.91636(10) 0.2629(3)
C3_2 C 0.07257(11) 0.67937(10) 0.3253(3)
C4_2 C 0.00413(11) 0.84392(10) 0.3005(3)
C5_2 C 0.23001(11) 0.94626(10) 0.2412(3)
C8_2 C 0.12821(11) 0.79291(11) 0.3352(4)
C10_2 C 0.00419(12) 0.67988(10) 0.3153(3)
C12_2 C 0.01530(12) 0.88324(10) 0.2821(4)
C13_2 C 0.11342(11) 0.83097(10) 0.3130(3)
C15_2 C 0.22498(11) 0.56833(10) 0.2815(3)
C16_2 C 0.11437(12) 0.69146(11) 0.3348(4)
C17_2 C 0.19896(11) 0.60127(10) 0.3014(3)
C18_2 C 0.14444(11) 0.86057(10) 0.2979(4)
C21_2 C 0.07132(11) 0.84349(10) 0.2981(3)
C23_2 C 0.12857(11) 0.72980(11) 0.3440(4)
C24_2 C 0.05679(12) 0.88274(11) 0.2816(4)
H3_2 H 0.0731 0.9043 0.2721
C26_2 C 0.01519(13) 0.64084(11) 0.2977(4)
C27_2 C 0.14581(12) 0.66111(10) 0.3289(4)
C29_2 C 0.20336(13) 0.90551(12) 0.3792(4)
H6_2 H 0.2244 0.9169 0.4489
C30_2 C 0.18754(14) 0.63115(11) 0.2167(4)
H7_2 H 0.1979 0.6313 0.1488
C31_2 C 0.05673(13) 0.64020(11) 0.3040(4)
H8_2 H 0.0728 0.6183 0.2961
C36_2 C 0.18529(12) 0.60230(11) 0.4036(4)
H13_2 H 0.1942 0.5828 0.4648
C37_2 C 0.17540(14) 0.87787(13) 0.3967(4)
H14_2 H 0.1777 0.8707 0.4784
C38_2 C 0.16138(14) 0.66064(12) 0.2295(4)
H15_2 H 0.1539 0.6808 0.1705
C39_2 C 0.17254(13) 0.74218(12) 0.3641(4)
H16_2 H 0.1972 0.7261 0.3795
C40_2 C 0.15864(12) 0.63182(11) 0.4161(4)
H17_2 H 0.1490 0.6320 0.4853
C43_2 C 0.17223(12) 0.78064(12) 0.3572(4)
H20_2 H 0.1964 0.7967 0.3653
C45_2 C 0.17047(18) 0.89879(19) 0.1636(4)
H22_2 H 0.1684 0.9058 0.0819
C46_3 C 0.0000 0.7648(2) 0.0000
C48_2 C 0.14304(18) 0.87098(18) 0.1818(4)
H24_2 H 0.1228 0.8589 0.1121
H26_3 H 0.1761 0.9779 0.4850
O32_3 O 0.22932(10) 0.5000 0.0130(3)
C46_4 C 0.0000 0.7648(2) 1.0000
O21_2 O 0.14920(8) 0.54085(7) 0.6725(2)
O24_2 O 0.19339(8) 0.56781(7) 0.8402(2)
N7_2 N 0.02224(9) 0.76240(8) 0.6729(3)
C51_2 C 0.16743(11) 0.94698(10) 0.7383(3)
C55_2 C 0.15946(11) 0.56893(10) 0.7466(3)
C56_2 C 0.12965(11) 0.60271(10) 0.7254(4)
C58_2 C 0.03596(11) 0.69272(11) 0.6804(3)
C60_2 C 0.06858(11) 0.86235(10) 0.6971(3)
H27_2 H 0.0028 0.9051 0.7278
C63_2 C 0.04656(11) 0.73127(10) 0.6664(3)
C68_2 C 0.04543(11) 0.79431(11) 0.6652(3)
C69_2 C 0.03492(11) 0.83213(10) 0.6850(3)
C71_2 C 0.13247(11) 0.91807(10) 0.7216(3)
C74_2 C 0.06977(12) 0.66282(11) 0.6931(4)
H29_2 H 0.0037 0.6194 0.7159
C77_2 C 0.09263(12) 0.60337(11) 0.6240(4)
H30_2 H 0.0872 0.5834 0.5645
C81_2 C 0.08454(12) 0.78244(11) 0.6432(4)
H34_2 H 0.1058 0.7988 0.6305
C82_2 C 0.06293(12) 0.63327(12) 0.6077(4)
H35_2 H 0.0375 0.6334 0.5367
C83_2 C 0.08505(12) 0.74389(12) 0.6443(4)
H36_2 H 0.1068 0.7279 0.6325
C84_2 C 0.13829(13) 0.63308(12) 0.8086(4)
H37_2 H 0.1644 0.6333 0.8774
C90_2 C 0.11157(16) 0.90150(14) 0.6099(4)
H43_2 H 0.1187 0.9091 0.5397
C91_2 C 0.10887(13) 0.66309(12) 0.7917(4)
H44_2 H 0.1155 0.6840 0.8480
C93_2 C 0.07978(15) 0.87344(14) 0.5969(4)
H46_2 H 0.0659 0.8620 0.5185
C95_2 C 0.11990(17) 0.90826(17) 0.8213(4)
H48_2 H 0.1325 0.9208 0.8984
C97_2 C 0.08892(18) 0.88009(18) 0.8083(5)
H50_2 H 0.0815 0.8728 0.8783
Na5_3 Na 0.17612(6) 1.0000 0.99269(19)
H56_3 H 0.266552 0.647642 0.931594
Na1_2 Na 0.82388(6) -0.0000 0.00731(19)
Na1_3 Na 0.82388(6) 1.0000 0.00731(19)
O6_2 O 0.85080(8) 0.54085(7) 0.3275(2)
O10_5 O 0.84145(11) 0.5000 0.0881(3)
O11_2 O 0.80661(8) 0.56781(7) 0.1598(2)
N2_2 N 0.97776(9) 0.76240(8) 0.3271(3)
C2_2 C 0.83257(11) 0.94698(10) 0.2617(3)
C6_2 C 0.84054(11) 0.56893(10) 0.2534(3)
C7_2 C 0.87035(11) 0.60271(10) 0.2746(4)
C9_2 C 0.96404(11) 0.69272(11) 0.3196(3)
C11_2 C 0.93142(11) 0.86235(10) 0.3029(3)
H2_2 H 0.9972 0.9051 0.2722
C14_2 C 0.95344(11) 0.73127(10) 0.3336(3)
C19_2 C 0.95457(11) 0.79431(11) 0.3348(3)
C20_2 C 0.96508(11) 0.83213(10) 0.3150(3)
C22_2 C 0.86753(11) 0.91807(10) 0.2784(3)
C25_2 C 0.93023(12) 0.66282(11) 0.3069(4)
H4_2 H 0.9963 0.6194 0.2841
C28_2 C 0.90737(12) 0.60337(11) 0.3760(4)
H5_2 H 0.9128 0.5834 0.4355
C32_2 C 0.91546(12) 0.78244(11) 0.3568(4)
H9_2 H 0.8942 0.7988 0.3695
C33_2 C 0.93707(12) 0.63327(12) 0.3923(4)
H10_2 H 0.9625 0.6334 0.4633
C34_2 C 0.91495(12) 0.74389(12) 0.3557(4)
H11_2 H 0.8932 0.7279 0.3675
C35_2 C 0.86171(13) 0.63308(12) 0.1914(4)
H12_2 H 0.8356 0.6333 0.1226
C41_2 C 0.88843(16) 0.90150(14) 0.3901(4)
H18_2 H 0.8813 0.9091 0.4603
C42_2 C 0.89113(13) 0.66309(12) 0.2083(4)
H19_2 H 0.8845 0.6840 0.1520
C44_2 C 0.92022(15) 0.87344(14) 0.4031(4)
H21_2 H 0.9341 0.8620 0.4815
C46_5 C 1.0000 0.7648(2) 0.0000
C47_2 C 0.88010(17) 0.90826(17) 0.1787(4)
H23_2 H 0.8675 0.9208 0.1016
C49_2 C 0.91108(18) 0.88009(18) 0.1917(5)
H25_2 H 0.9185 0.8728 0.1217
O39_3 O 0.85080(8) 0.45915(7) 0.3275(2)
O45_3 O 0.80661(8) 0.43219(7) 0.1598(2)
O3_3 O 0.77068(10) 0.5000 0.9870(3)
O8_5 O 0.81505(11) 0.5000 0.8784(3)
N5_5 N 0.81085(16) 0.5000 0.9829(5)
C46_6 C 1.0000 0.7648(2) 1.0000
O16_2 O 0.98658(18) 0.75597(11) 0.8967(3)
Zn2_2 Zn 0.963763(13) 0.761399(12) 0.70473(4)
Na4_2 Na 0.74797(4) 0.57731(4) 0.98739(12)
O23_2 O 0.76348(8) 0.56778(7) 0.8122(2)
O25_2 O 0.74041(13) 0.64060(9) 0.9935(3)
N6_2 N 0.96037(9) 0.70287(8) 0.6699(3)
N8_2 N 0.89732(9) 0.76146(8) 0.6693(3)
N9_2 N 0.96149(9) 0.82029(8) 0.6915(3)
C50_2 C 0.79920(11) 0.91636(10) 0.7371(3)
C52_2 C 0.92743(11) 0.67937(10) 0.6747(3)
C53_2 C 0.99587(11) 0.84392(10) 0.6995(3)
C54_2 C 0.76999(11) 0.94626(10) 0.7588(3)
C57_2 C 0.87179(11) 0.79291(11) 0.6648(4)
C59_2 C 0.99581(12) 0.67988(10) 0.6847(3)
C61_2 C 0.98470(12) 0.88324(10) 0.7179(4)
C62_2 C 0.88658(11) 0.83097(10) 0.6870(3)
C64_2 C 0.77502(11) 0.56833(10) 0.7185(3)
C65_2 C 0.88563(12) 0.69146(11) 0.6652(4)
C66_2 C 0.80104(11) 0.60127(10) 0.6986(3)
C67_2 C 0.85556(11) 0.86057(10) 0.7021(4)
C70_2 C 0.92868(11) 0.84349(10) 0.7019(3)
C72_2 C 0.87143(11) 0.72980(11) 0.6560(4)
C73_2 C 0.94321(12) 0.88274(11) 0.7184(4)
H28_2 H 0.9269 0.9043 0.7279
C75_2 C 0.98481(13) 0.64084(11) 0.7023(4)
C76_2 C 0.85419(12) 0.66111(10) 0.6711(4)
C78_2 C 0.79664(13) 0.90551(12) 0.6208(4)
H31_2 H 0.7756 0.9169 0.5511
C79_2 C 0.81246(14) 0.63115(11) 0.7833(4)
H32_2 H 0.8021 0.6313 0.8512
C80_2 C 0.94327(13) 0.64020(11) 0.6960(4)
H33_2 H 0.9272 0.6183 0.7039
C85_2 C 0.81471(12) 0.60230(11) 0.5964(4)
H38_2 H 0.8058 0.5828 0.5352
C86_2 C 0.82460(14) 0.87787(13) 0.6033(4)
H39_2 H 0.8223 0.8707 0.5216
C87_2 C 0.83862(14) 0.66064(12) 0.7705(4)
H40_2 H 0.8461 0.6808 0.8295
C88_2 C 0.82746(13) 0.74218(12) 0.6359(4)
H41_2 H 0.8028 0.7261 0.6205
C89_2 C 0.84136(12) 0.63182(11) 0.5839(4)
H42_2 H 0.8510 0.6320 0.5147
C92_2 C 0.82777(12) 0.78064(12) 0.6428(4)
H45_2 H 0.8036 0.7967 0.6347
C94_2 C 0.82953(18) 0.89879(19) 0.8364(4)
H47_2 H 0.8316 0.9058 0.9181
C96_2 C 0.85696(18) 0.87098(18) 0.8182(4)
H49_2 H 0.8772 0.8589 0.8879
O38_3 O 0.67653(8) 0.54144(7) 0.6466(2)
O44_3 O 0.76348(8) 0.43222(7) 0.8122(2)
O8_6 O 0.18495(11) 0.5000 0.1216(3)
N5_6 N 0.18915(16) 0.5000 0.0171(5)
O38_4 O 0.32347(8) 0.54144(7) 0.3534(2)
O44_4 O 0.23652(8) 0.43222(7) 0.1878(2)
O10_6 O 0.15855(11) 0.5000 0.9119(3)
O39_4 O 0.14920(8) 0.45915(7) 0.6725(2)
O45_4 O 0.19339(8) 0.43219(7) 0.8402(2)
O12_5 O 0.81366(14) -0.0000 0.5586(4)
H1_4 H 0.8239 0.0221 0.5150
O14_5 O 0.65611(17) -0.0000 0.4588(5)
H53_2 H 0.64874 0.00976358 0.530423
H54_2 H 0.642699 0.0167756 0.386069
H56_4 H 0.733448 0.647642 0.068406
O12_6 O 0.81366(14) 1.0000 0.5586(4)
O14_6 O 0.65611(17) 1.0000 0.4588(5)
H26_4 H 0.8239 0.9779 0.5150
C46_7 C 0.5000 0.7352(2) 0.0000
O16_3 O 0.51342(18) 0.74403(11) 0.1033(3)
Zn2_3 Zn 0.536237(13) 0.738601(12) 0.29527(4)
O25_3 O 0.75959(13) 0.85940(9) 0.0065(3)
N6_3 N 0.53963(9) 0.79713(8) 0.3301(3)
N7_3 N 0.47776(9) 0.73760(8) 0.3271(3)
N8_3 N 0.60268(9) 0.73854(8) 0.3307(3)
N9_3 N 0.53851(9) 0.67971(8) 0.3085(3)
C50_3 C 0.70080(11) 0.58364(10) 0.2629(3)
C51_3 C 0.33257(11) 0.55302(10) 0.2617(3)
C52_3 C 0.57257(11) 0.82063(10) 0.3253(3)
C53_3 C 0.50413(11) 0.65608(10) 0.3005(3)
C54_3 C 0.73001(11) 0.55374(10) 0.2412(3)
C55_3 C 0.34054(11) 0.93107(10) 0.2534(3)
C56_3 C 0.37035(11) 0.89729(10) 0.2746(4)
C57_3 C 0.62821(11) 0.70709(11) 0.3352(4)
C58_3 C 0.46404(11) 0.80728(11) 0.3196(3)
C59_3 C 0.50419(12) 0.82012(10) 0.3153(3)
C60_3 C 0.43142(11) 0.63765(10) 0.3029(3)
C61_3 C 0.51530(12) 0.61676(10) 0.2821(4)
H27_3 H 0.4972 0.5949 0.2722
C62_3 C 0.61342(11) 0.66903(10) 0.3130(3)
C63_3 C 0.45344(11) 0.76873(10) 0.3336(3)
C64_3 C 0.72498(11) 0.93167(10) 0.2815(3)
C65_3 C 0.61437(12) 0.80854(11) 0.3348(4)
C66_3 C 0.69896(11) 0.89873(10) 0.3014(3)
C67_3 C 0.64444(11) 0.63943(10) 0.2979(4)
C68_3 C 0.45457(11) 0.70569(11) 0.3348(3)
C69_3 C 0.46508(11) 0.66787(10) 0.3150(3)
C70_3 C 0.57132(11) 0.65651(10) 0.2981(3)
C71_3 C 0.36753(11) 0.58193(10) 0.2784(3)
C72_3 C 0.62857(11) 0.77020(11) 0.3440(4)
C73_3 C 0.55679(12) 0.61726(11) 0.2816(4)
H28_3 H 0.5731 0.5957 0.2721
C74_3 C 0.43023(12) 0.83718(11) 0.3069(4)
C75_3 C 0.51519(13) 0.85916(11) 0.2977(4)
H29_3 H 0.4963 0.8806 0.2841
C76_3 C 0.64581(12) 0.83889(10) 0.3289(4)
C77_3 C 0.40737(12) 0.89663(11) 0.3760(4)
H30_3 H 0.4128 0.9166 0.4355
C78_3 C 0.70336(13) 0.59449(12) 0.3792(4)
H31_3 H 0.7244 0.5831 0.4489
C79_3 C 0.68754(14) 0.86885(11) 0.2167(4)
H32_3 H 0.6979 0.8687 0.1488
C80_3 C 0.55673(13) 0.85980(11) 0.3040(4)
H33_3 H 0.5728 0.8817 0.2961
C81_3 C 0.41546(12) 0.71756(11) 0.3568(4)
H34_3 H 0.3942 0.7012 0.3695
C82_3 C 0.43707(12) 0.86673(12) 0.3923(4)
H35_3 H 0.4625 0.8666 0.4633
C83_3 C 0.41495(12) 0.75611(12) 0.3557(4)
H36_3 H 0.3932 0.7721 0.3675
C84_3 C 0.36171(13) 0.86692(12) 0.1914(4)
H37_3 H 0.3356 0.8667 0.1226
C85_3 C 0.68529(12) 0.89770(11) 0.4036(4)
H38_3 H 0.6942 0.9172 0.4648
C86_3 C 0.67540(14) 0.62213(13) 0.3967(4)
H39_3 H 0.6777 0.6293 0.4784
C87_3 C 0.66138(14) 0.83936(12) 0.2295(4)
H40_3 H 0.6539 0.8192 0.1705
C88_3 C 0.67254(13) 0.75782(12) 0.3641(4)
H41_3 H 0.6972 0.7739 0.3795
C89_3 C 0.65864(12) 0.86818(11) 0.4161(4)
H42_3 H 0.6490 0.8680 0.4853
C90_3 C 0.38843(16) 0.59850(14) 0.3901(4)
H43_3 H 0.3813 0.5909 0.4603
C91_3 C 0.39113(13) 0.83691(12) 0.2083(4)
H44_3 H 0.3845 0.8160 0.1520
C92_3 C 0.67223(12) 0.71936(12) 0.3572(4)
H45_3 H 0.6964 0.7033 0.3653
C93_3 C 0.42022(15) 0.62656(14) 0.4031(4)
H46_3 H 0.4341 0.6380 0.4815
C94_3 C 0.67047(18) 0.60121(19) 0.1636(4)
H47_3 H 0.6684 0.5942 0.0819
C95_3 C 0.38010(17) 0.59174(17) 0.1787(4)
H48_3 H 0.3675 0.5792 0.1016
C96_3 C 0.64304(18) 0.62902(18) 0.1818(4)
H49_3 H 0.6228 0.6411 0.1121
C97_3 C 0.41108(18) 0.61991(18) 0.1917(5)
H50_3 H 0.4185 0.6272 0.1217
H56_5 H 0.233448 0.852358 0.068406
Zn1_3 Zn 0.463763(13) 0.738601(12) 0.70473(4)
O13_3 O 0.24041(13) 0.85940(9) 0.9935(3)
O15_3 O 0.48658(18) 0.74403(11) 0.8967(3)
N1_3 N 0.46037(9) 0.79713(8) 0.6699(3)
N2_3 N 0.52224(9) 0.73760(8) 0.6729(3)
N3_3 N 0.39732(9) 0.73854(8) 0.6693(3)
N4_3 N 0.46149(9) 0.67971(8) 0.6915(3)
C1_3 C 0.29920(11) 0.58364(10) 0.7371(3)
C2_3 C 0.66743(11) 0.55302(10) 0.7383(3)
C3_3 C 0.42743(11) 0.82063(10) 0.6747(3)
C4_3 C 0.49587(11) 0.65608(10) 0.6995(3)
C5_3 C 0.26999(11) 0.55374(10) 0.7588(3)
C6_3 C 0.65946(11) 0.93107(10) 0.7466(3)
C7_3 C 0.62965(11) 0.89729(10) 0.7254(4)
C8_3 C 0.37179(11) 0.70709(11) 0.6648(4)
C9_3 C 0.53596(11) 0.80728(11) 0.6804(3)
C10_3 C 0.49581(12) 0.82012(10) 0.6847(3)
C11_3 C 0.56858(11) 0.63765(10) 0.6971(3)
C12_3 C 0.48470(12) 0.61676(10) 0.7179(4)
H2_3 H 0.5028 0.5949 0.7278
C13_3 C 0.38658(11) 0.66903(10) 0.6870(3)
C14_3 C 0.54656(11) 0.76873(10) 0.6664(3)
C15_3 C 0.27502(11) 0.93167(10) 0.7185(3)
C16_3 C 0.38563(12) 0.80854(11) 0.6652(4)
C17_3 C 0.30104(11) 0.89873(10) 0.6986(3)
C18_3 C 0.35556(11) 0.63943(10) 0.7021(4)
C19_3 C 0.54543(11) 0.70569(11) 0.6652(3)
C20_3 C 0.53492(11) 0.66787(10) 0.6850(3)
C21_3 C 0.42868(11) 0.65651(10) 0.7019(3)
C22_3 C 0.63247(11) 0.58193(10) 0.7216(3)
C23_3 C 0.37143(11) 0.77020(11) 0.6560(4)
C24_3 C 0.44321(12) 0.61726(11) 0.7184(4)
H3_3 H 0.4269 0.5957 0.7279
C25_3 C 0.56977(12) 0.83718(11) 0.6931(4)
C26_3 C 0.48481(13) 0.85916(11) 0.7023(4)
H4_3 H 0.5037 0.8806 0.7159
C27_3 C 0.35419(12) 0.83889(10) 0.6711(4)
C28_3 C 0.59263(12) 0.89663(11) 0.6240(4)
H5_3 H 0.5872 0.9166 0.5645
C29_3 C 0.29664(13) 0.59449(12) 0.6208(4)
H6_3 H 0.2756 0.5831 0.5511
C30_3 C 0.31246(14) 0.86885(11) 0.7833(4)
H7_3 H 0.3021 0.8687 0.8512
C31_3 C 0.44327(13) 0.85980(11) 0.6960(4)
H8_3 H 0.4272 0.8817 0.7039
C32_3 C 0.58454(12) 0.71756(11) 0.6432(4)
H9_3 H 0.6058 0.7012 0.6305
C33_3 C 0.56293(12) 0.86673(12) 0.6077(4)
H10_3 H 0.5375 0.8666 0.5367
C34_3 C 0.58505(12) 0.75611(12) 0.6443(4)
H11_3 H 0.6068 0.7721 0.6325
C35_3 C 0.63829(13) 0.86692(12) 0.8086(4)
H12_3 H 0.6644 0.8667 0.8774
C36_3 C 0.31471(12) 0.89770(11) 0.5964(4)
H13_3 H 0.3058 0.9172 0.5352
C37_3 C 0.32460(14) 0.62213(13) 0.6033(4)
H14_3 H 0.3223 0.6293 0.5216
C38_3 C 0.33862(14) 0.83936(12) 0.7705(4)
H15_3 H 0.3461 0.8192 0.8295
C39_3 C 0.32746(13) 0.75782(12) 0.6359(4)
H16_3 H 0.3028 0.7739 0.6205
C40_3 C 0.34136(12) 0.86818(11) 0.5839(4)
H17_3 H 0.3510 0.8680 0.5147
C41_3 C 0.61157(16) 0.59850(14) 0.6099(4)
H18_3 H 0.6187 0.5909 0.5397
C42_3 C 0.60887(13) 0.83691(12) 0.7917(4)
H19_3 H 0.6155 0.8160 0.8480
C43_3 C 0.32777(12) 0.71936(12) 0.6428(4)
H20_3 H 0.3036 0.7033 0.6347
C44_3 C 0.57978(15) 0.62656(14) 0.5969(4)
H21_3 H 0.5659 0.6380 0.5185
C45_3 C 0.32953(18) 0.60121(19) 0.8364(4)
H22_3 H 0.3316 0.5942 0.9181
C46_8 C 0.5000 0.7352(2) 1.0000
C47_3 C 0.61990(17) 0.59174(17) 0.8213(4)
H23_3 H 0.6325 0.5792 0.8984
C48_3 C 0.35696(18) 0.62902(18) 0.8182(4)
H24_3 H 0.3772 0.6411 0.8879
C49_3 C 0.58892(18) 0.61991(18) 0.8083(5)
H25_3 H 0.5815 0.6272 0.8783
H56_6 H 0.766552 0.852358 0.931594
C46_9 C 0.0000 0.2352(2) 0.0000
O16_4 O 0.01342(18) 0.24403(11) 0.1033(3)
Zn2_4 Zn 0.036237(13) 0.238601(12) 0.29527(4)
O25_4 O 0.25959(13) 0.35940(9) 0.0065(3)
N6_4 N 0.03963(9) 0.29713(8) 0.3301(3)
N8_4 N 0.10268(9) 0.23854(8) 0.3307(3)
N9_4 N 0.03851(9) 0.17971(8) 0.3085(3)
C50_4 C 0.20080(11) 0.08364(10) 0.2629(3)
C52_4 C 0.07257(11) 0.32063(10) 0.3253(3)
C53_4 C 0.00413(11) 0.15608(10) 0.3005(3)
C54_4 C 0.23001(11) 0.05374(10) 0.2412(3)
C57_4 C 0.12821(11) 0.20709(11) 0.3352(4)
C59_4 C 0.00419(12) 0.32012(10) 0.3153(3)
C61_4 C 0.01530(12) 0.11676(10) 0.2821(4)
C62_4 C 0.11342(11) 0.16903(10) 0.3130(3)
C64_4 C 0.22498(11) 0.43167(10) 0.2815(3)
C65_4 C 0.11437(12) 0.30854(11) 0.3348(4)
C66_4 C 0.19896(11) 0.39873(10) 0.3014(3)
C67_4 C 0.14444(11) 0.13943(10) 0.2979(4)
C70_4 C 0.07132(11) 0.15651(10) 0.2981(3)
C72_4 C 0.12857(11) 0.27020(11) 0.3440(4)
C73_4 C 0.05679(12) 0.11726(11) 0.2816(4)
H28_4 H 0.0731 0.0957 0.2721
C75_4 C 0.01519(13) 0.35916(11) 0.2977(4)
C76_4 C 0.14581(12) 0.33889(10) 0.3289(4)
C78_4 C 0.20336(13) 0.09449(12) 0.3792(4)
H31_4 H 0.2244 0.0831 0.4489
C79_4 C 0.18754(14) 0.36885(11) 0.2167(4)
H32_4 H 0.1979 0.3687 0.1488
C80_4 C 0.05673(13) 0.35980(11) 0.3040(4)
H33_4 H 0.0728 0.3817 0.2961
C85_4 C 0.18529(12) 0.39770(11) 0.4036(4)
H38_4 H 0.1942 0.4172 0.4648
C86_4 C 0.17540(14) 0.12213(13) 0.3967(4)
H39_4 H 0.1777 0.1293 0.4784
C87_4 C 0.16138(14) 0.33936(12) 0.2295(4)
H40_4 H 0.1539 0.3192 0.1705
C88_4 C 0.17254(13) 0.25782(12) 0.3641(4)
H41_4 H 0.1972 0.2739 0.3795
C89_4 C 0.15864(12) 0.36818(11) 0.4161(4)
H42_4 H 0.1490 0.3680 0.4853
C92_4 C 0.17223(12) 0.21936(12) 0.3572(4)
H45_4 H 0.1964 0.2033 0.3653
C94_4 C 0.17047(18) 0.10121(19) 0.1636(4)
H47_4 H 0.1684 0.0942 0.0819
C96_4 C 0.14304(18) 0.12902(18) 0.1818(4)
H49_4 H 0.1228 0.1411 0.1121
N2_4 N 0.02224(9) 0.23760(8) 0.6729(3)
C2_4 C 0.16743(11) 0.05302(10) 0.7383(3)
C6_4 C 0.15946(11) 0.43107(10) 0.7466(3)
C7_4 C 0.12965(11) 0.39729(10) 0.7254(4)
C9_4 C 0.03596(11) 0.30728(11) 0.6804(3)
C11_4 C 0.06858(11) 0.13765(10) 0.6971(3)
H2_4 H 0.0028 0.0949 0.7278
C14_4 C 0.04656(11) 0.26873(10) 0.6664(3)
C19_4 C 0.04543(11) 0.20569(11) 0.6652(3)
C20_4 C 0.03492(11) 0.16787(10) 0.6850(3)
C22_4 C 0.13247(11) 0.08193(10) 0.7216(3)
C25_4 C 0.06977(12) 0.33718(11) 0.6931(4)
H4_4 H 0.0037 0.3806 0.7159
C28_4 C 0.09263(12) 0.39663(11) 0.6240(4)
H5_4 H 0.0872 0.4166 0.5645
C32_4 C 0.08454(12) 0.21756(11) 0.6432(4)
H9_4 H 0.1058 0.2012 0.6305
C33_4 C 0.06293(12) 0.36673(12) 0.6077(4)
H10_4 H 0.0375 0.3666 0.5367
C34_4 C 0.08505(12) 0.25611(12) 0.6443(4)
H11_4 H 0.1068 0.2721 0.6325
C35_4 C 0.13829(13) 0.36692(12) 0.8086(4)
H12_4 H 0.1644 0.3667 0.8774
C41_4 C 0.11157(16) 0.09850(14) 0.6099(4)
H18_4 H 0.1187 0.0909 0.5397
C42_4 C 0.10887(13) 0.33691(12) 0.7917(4)
H19_4 H 0.1155 0.3160 0.8480
C44_4 C 0.07978(15) 0.12656(14) 0.5969(4)
H21_4 H 0.0659 0.1380 0.5185
C46_10 C 0.0000 0.2352(2) 1.0000
C47_4 C 0.11990(17) 0.09174(17) 0.8213(4)
H23_4 H 0.1325 0.0792 0.8984
C49_4 C 0.08892(18) 0.11991(18) 0.8083(5)
H25_4 H 0.0815 0.1272 0.8783
C46_11 C 1.0000 0.2352(2) 0.0000
N7_4 N 0.97776(9) 0.23760(8) 0.3271(3)
C51_4 C 0.83257(11) 0.05302(10) 0.2617(3)
C55_4 C 0.84054(11) 0.43107(10) 0.2534(3)
C56_4 C 0.87035(11) 0.39729(10) 0.2746(4)
C58_4 C 0.96404(11) 0.30728(11) 0.3196(3)
C60_4 C 0.93142(11) 0.13765(10) 0.3029(3)
H27_4 H 0.9972 0.0949 0.2722
C63_4 C 0.95344(11) 0.26873(10) 0.3336(3)
C68_4 C 0.95457(11) 0.20569(11) 0.3348(3)
C69_4 C 0.96508(11) 0.16787(10) 0.3150(3)
C71_4 C 0.86753(11) 0.08193(10) 0.2784(3)
C74_4 C 0.93023(12) 0.33718(11) 0.3069(4)
H29_4 H 0.9963 0.3806 0.2841
C77_4 C 0.90737(12) 0.39663(11) 0.3760(4)
H30_4 H 0.9128 0.4166 0.4355
C81_4 C 0.91546(12) 0.21756(11) 0.3568(4)
H34_4 H 0.8942 0.2012 0.3695
C82_4 C 0.93707(12) 0.36673(12) 0.3923(4)
H35_4 H 0.9625 0.3666 0.4633
C83_4 C 0.91495(12) 0.25611(12) 0.3557(4)
H36_4 H 0.8932 0.2721 0.3675
C84_4 C 0.86171(13) 0.36692(12) 0.1914(4)
H37_4 H 0.8356 0.3667 0.1226
C90_4 C 0.88843(16) 0.09850(14) 0.3901(4)
H43_4 H 0.8813 0.0909 0.4603
C91_4 C 0.89113(13) 0.33691(12) 0.2083(4)
H44_4 H 0.8845 0.3160 0.1520
C93_4 C 0.92022(15) 0.12656(14) 0.4031(4)
H46_4 H 0.9341 0.1380 0.4815
C95_4 C 0.88010(17) 0.09174(17) 0.1787(4)
H48_4 H 0.8675 0.0792 0.1016
C97_4 C 0.91108(18) 0.11991(18) 0.1917(5)
H50_4 H 0.9185 0.1272 0.1217
H56_7 H 0.733448 0.352358 0.068406
Zn1_4 Zn 0.963763(13) 0.238601(12) 0.70473(4)
O13_4 O 0.74041(13) 0.35940(9) 0.9935(3)
O15_4 O 0.98658(18) 0.24403(11) 0.8967(3)
N1_4 N 0.96037(9) 0.29713(8) 0.6699(3)
N3_4 N 0.89732(9) 0.23854(8) 0.6693(3)
N4_4 N 0.96149(9) 0.17971(8) 0.6915(3)
C1_4 C 0.79920(11) 0.08364(10) 0.7371(3)
C3_4 C 0.92743(11) 0.32063(10) 0.6747(3)
C4_4 C 0.99587(11) 0.15608(10) 0.6995(3)
C5_4 C 0.76999(11) 0.05374(10) 0.7588(3)
C8_4 C 0.87179(11) 0.20709(11) 0.6648(4)
C10_4 C 0.99581(12) 0.32012(10) 0.6847(3)
C12_4 C 0.98470(12) 0.11676(10) 0.7179(4)
C13_4 C 0.88658(11) 0.16903(10) 0.6870(3)
C15_4 C 0.77502(11) 0.43167(10) 0.7185(3)
C16_4 C 0.88563(12) 0.30854(11) 0.6652(4)
C17_4 C 0.80104(11) 0.39873(10) 0.6986(3)
C18_4 C 0.85556(11) 0.13943(10) 0.7021(4)
C21_4 C 0.92868(11) 0.15651(10) 0.7019(3)
C23_4 C 0.87143(11) 0.27020(11) 0.6560(4)
C24_4 C 0.94321(12) 0.11726(11) 0.7184(4)
H3_4 H 0.9269 0.0957 0.7279
C26_4 C 0.98481(13) 0.35916(11) 0.7023(4)
C27_4 C 0.85419(12) 0.33889(10) 0.6711(4)
C29_4 C 0.79664(13) 0.09449(12) 0.6208(4)
H6_4 H 0.7756 0.0831 0.5511
C30_4 C 0.81246(14) 0.36885(11) 0.7833(4)
H7_4 H 0.8021 0.3687 0.8512
C31_4 C 0.94327(13) 0.35980(11) 0.6960(4)
H8_4 H 0.9272 0.3817 0.7039
C36_4 C 0.81471(12) 0.39770(11) 0.5964(4)
H13_4 H 0.8058 0.4172 0.5352
C37_4 C 0.82460(14) 0.12213(13) 0.6033(4)
H14_4 H 0.8223 0.1293 0.5216
C38_4 C 0.83862(14) 0.33936(12) 0.7705(4)
H15_4 H 0.8461 0.3192 0.8295
C39_4 C 0.82746(13) 0.25782(12) 0.6359(4)
H16_4 H 0.8028 0.2739 0.6205
C40_4 C 0.84136(12) 0.36818(11) 0.5839(4)
H17_4 H 0.8510 0.3680 0.5147
C43_4 C 0.82777(12) 0.21936(12) 0.6428(4)
H20_4 H 0.8036 0.2033 0.6347
C45_4 C 0.82953(18) 0.10121(19) 0.8364(4)
H22_4 H 0.8316 0.0942 0.9181
C46_12 C 1.0000 0.2352(2) 1.0000
C48_4 C 0.85696(18) 0.12902(18) 0.8182(4)
H24_4 H 0.8772 0.1411 0.8879
H53_3 H 0.64874 0.990236 0.530423
H54_3 H 0.642699 0.983224 0.386069
H56_8 H 0.266552 0.352358 0.931594
H53_4 H 0.35126 0.990236 0.469577
H54_4 H 0.357301 0.983224 0.613931
loop_
_geom_bond_atom_site_label_1
_geom_bond_atom_site_label_2
_geom_bond_site_symmetry_1
_geom_bond_site_symmetry_2
Zn1 O15 1_555 1_555
Na1 O7 1_555 1_555
Na2 O9 1_555 1_555
Na3 O2 1_555 1_555
O1 C15 1_555 1_555
O2 C5 1_555 1_555
O4 C5 1_555 1_555
O5 C2 1_555 1_555
O6 Dy1 1_555 1_555
O7 C2 1_555 1_555
O9 C15 1_555 1_555
O10 Dy1 1_555 1_555
O11 Dy1 1_555 1_555
O12 Na3 1_555 1_555
H1 O12 1_555 1_555
O13 Na2 1_555 1_555
O14 Na3 1_555 1_555
O15 C46 1_555 1_555
N1 Zn1 1_555 1_555
N2 Zn1 1_555 1_555
N3 Zn1 1_555 1_555
N4 Zn1 1_555 1_555
C1 C5 1_555 1_555
C2 C22 1_555 1_555
C3 N1 1_555 1_555
C4 N4 1_555 1_555
C6 O6 1_555 1_555
C7 C6 1_555 1_555
C8 N3 1_555 1_555
C9 C10 1_555 1_555
C10 N1 1_555 1_555
C11 C20 1_555 1_555
C12 C4 1_555 1_555
H2 C12 1_555 1_555
C13 C8 1_555 1_555
C14 N2 1_555 1_555
C15 C17 1_555 1_555
C16 C3 1_555 1_555
C17 C30 1_555 1_555
C18 C13 1_555 1_555
C19 N2 1_555 1_555
C20 C4 1_555 1_555
C21 N4 1_555 1_555
C22 C41 1_555 1_555
C23 N3 1_555 1_555
C24 C12 1_555 1_555
H3 C24 1_555 1_555
C25 C9 1_555 1_555
C26 C10 1_555 1_555
H4 C26 1_555 1_555
C27 C16 1_555 1_555
C28 C7 1_555 1_555
H5 C28 1_555 1_555
C29 C1 1_555 1_555
H6 C29 1_555 1_555
C30 H7 1_555 1_555
C31 C3 1_555 1_555
H8 C31 1_555 1_555
C32 C19 1_555 1_555
H9 C32 1_555 1_555
C33 C25 1_555 1_555
H10 C33 1_555 1_555
C34 C14 1_555 1_555
H11 C34 1_555 1_555
C35 C7 1_555 1_555
H12 C35 1_555 1_555
C36 C17 1_555 1_555
H13 C36 1_555 1_555
C37 C18 1_555 1_555
H14 C37 1_555 1_555
C38 C27 1_555 1_555
H15 C38 1_555 1_555
C39 C23 1_555 1_555
H16 C39 1_555 1_555
C40 C27 1_555 1_555
H17 C40 1_555 1_555
C41 H18 1_555 1_555
C42 C25 1_555 1_555
H19 C42 1_555 1_555
C43 C8 1_555 1_555
H20 C43 1_555 1_555
C44 C11 1_555 1_555
H21 C44 1_555 1_555
C45 C1 1_555 1_555
H22 C45 1_555 1_555
C47 C22 1_555 1_555
H23 C47 1_555 1_555
C48 C18 1_555 1_555
H24 C48 1_555 1_555
C49 C11 1_555 1_555
H25 C49 1_555 1_555
H26 O12 1_555 1_555
Dy4 O2 1_555 1_555
Dy6 O1 1_555 1_555
Dy8 O5 1_555 1_555
Na8 O7 1_555 1_555
Na11 O1 1_555 1_555
O26 Na3 1_555 1_555
O28 Na3 1_555 1_555
O30 Na3 1_555 1_555
O31 Dy1 1_555 1_555
O32 Na2 1_555 1_555
O36 Dy1 1_555 1_555
O41 Na1 1_555 1_555
O43 Na2 1_555 1_555
O4 Dy4 1_555 1_555
O7 Dy8 1_555 1_555
O9 Dy6 1_555 1_555
O11 C6 1_555 1_555
C9 C14 1_555 1_555
C13 C21 1_555 1_555
C16 C23 1_555 1_555
C19 C20 1_555 1_555
C21 C24 1_555 1_555
C26 C31 1_555 1_555
C28 C33 1_555 1_555
C29 C37 1_555 1_555
C30 C38 1_555 1_555
C32 C34 1_555 1_555
C35 C42 1_555 1_555
C36 C40 1_555 1_555
C39 C43 1_555 1_555
C41 C44 1_555 1_555
C45 C48 1_555 1_555
C47 C49 1_555 1_555
Dy4 O30 1_555 1_555
Dy6 O32 1_555 1_555
Dy6 O43 1_555 1_555
Dy8 O41 1_555 1_555
Dy2 O3 1_555 1_555
O3 N5 1_555 1_555
O8 Dy2 1_555 1_555
N5 O8 1_555 1_555
C46_2 O16 1_555 1_555
O16 Zn2 1_555 1_555
Zn2 N6 1_555 1_555
Na4 O3 1_555 1_555
O17 Dy2 1_555 1_555
O18 C54 1_555 1_555
O20 C51 1_555 1_555
O21 C55 1_555 1_555
O22 C51 1_555 1_555
O23 Dy2 1_555 1_555
O25 Na4 1_555 1_555
N6 C52 1_555 1_555
N7 Zn2 1_555 1_555
N8 Zn2 1_555 1_555
N9 Zn2 1_555 1_555
C50 C54 1_555 1_555
C51 C71 1_555 1_555
C52 C65 1_555 1_555
C53 N9 1_555 1_555
C54 O19 1_555 1_555
C55 O24 1_555 1_555
C56 C55 1_555 1_555
C57 N8 1_555 1_555
C58 C59 1_555 1_555
C59 N6 1_555 1_555
C60 C69 1_555 1_555
C61 C53 1_555 1_555
H27 C61 1_555 1_555
C62 C57 1_555 1_555
C63 N7 1_555 1_555
C64 O17 1_555 1_555
C65 C72 1_555 1_555
C66 C64 1_555 1_555
C67 C62 1_555 1_555
C68 N7 1_555 1_555
C69 C53 1_555 1_555
C70 N9 1_555 1_555
C71 C90 1_555 1_555
C72 N8 1_555 1_555
C73 C61 1_555 1_555
H28 C73 1_555 1_555
C74 C58 1_555 1_555
C75 C59 1_555 1_555
H29 C75 1_555 1_555
C76 C65 1_555 1_555
C77 C56 1_555 1_555
H30 C77 1_555 1_555
C78 C50 1_555 1_555
H31 C78 1_555 1_555
C79 C66 1_555 1_555
H32 C79 1_555 1_555
C80 C52 1_555 1_555
H33 C80 1_555 1_555
C81 C68 1_555 1_555
H34 C81 1_555 1_555
C82 C74 1_555 1_555
H35 C82 1_555 1_555
C83 C63 1_555 1_555
H36 C83 1_555 1_555
C84 C56 1_555 1_555
H37 C84 1_555 1_555
C85 C66 1_555 1_555
H38 C85 1_555 1_555
C86 C67 1_555 1_555
H39 C86 1_555 1_555
C87 C76 1_555 1_555
H40 C87 1_555 1_555
C88 C72 1_555 1_555
H41 C88 1_555 1_555
C89 C76 1_555 1_555
H42 C89 1_555 1_555
C90 H43 1_555 1_555
C91 C74 1_555 1_555
H44 C91 1_555 1_555
C92 C57 1_555 1_555
H45 C92 1_555 1_555
C93 C60 1_555 1_555
H46 C93 1_555 1_555
C94 C50 1_555 1_555
H47 C94 1_555 1_555
C95 C71 1_555 1_555
H48 C95 1_555 1_555
C96 C67 1_555 1_555
H49 C96 1_555 1_555
C97 C60 1_555 1_555
H50 C97 1_555 1_555
Dy3 O21 1_555 1_555
Dy5 O18 1_555 1_555
Dy7 O20 1_555 1_555
Na9 O18 1_555 1_555
Na10 O17 1_555 1_555
O38 Dy2 1_555 1_555
O42 Dy2 1_555 1_555
Na4 O23 1_555 1_555
Na4 O42 1_555 1_555
O19 Dy5 1_555 1_555
O22 Dy7 1_555 1_555
O22 Na5 1_555 1_555
O22 Na7 1_555 1_555
O23 C64 1_555 1_555
O24 Dy3 1_555 1_555
C58 C63 1_555 1_555
C62 C70 1_555 1_555
C68 C69 1_555 1_555
C70 C73 1_555 1_555
C75 C80 1_555 1_555
C77 C82 1_555 1_555
C78 C86 1_555 1_555
C79 C87 1_555 1_555
C81 C83 1_555 1_555
C84 C91 1_555 1_555
C85 C89 1_555 1_555
C88 C92 1_555 1_555
C90 C93 1_555 1_555
C94 C96 1_555 1_555
C95 C97 1_555 1_555
Dy3 O35 1_555 1_555
Dy5 O34 1_555 1_555
O10_2 Dy1_2 1_555 1_555
O29 Dy1_2 1_555 1_555
O33 Dy1_2 1_555 1_555
O39 Dy1_2 1_555 1_555
O45 Dy1_2 1_555 1_555
Dy6_2 O32_2 1_555 1_555
Dy2_2 O3_2 1_555 1_555
O3_2 N5_2 1_555 1_555
O8_2 Dy2_2 1_555 1_555
N5_2 O8_2 1_555 1_555
Na6 O3_2 1_555 1_555
O27 Dy2_2 1_555 1_555
O37 Dy2_2 1_555 1_555
O40 Dy2_2 1_555 1_555
O44 Dy2_2 1_555 1_555
Na6 O40 1_555 1_555
Na6 O44 1_555 1_555
Na10_2 O27 1_555 1_555
O32 N5_3 1_555 1_555
O8_3 Dy6 1_555 1_555
N5_3 O8_3 1_555 1_555
O38_2 Dy6 1_555 1_555
Dy4 O34_2 1_555 1_555
O10_3 Dy3 1_555 1_555
O12_2 Na9 1_555 1_555
H1_2 O12_2 1_555 1_555
O14_2 Na9 1_555 1_555
H26_2 O12_2 1_555 1_555
O26_2 Na9 1_555 1_555
O28_2 Na9 1_555 1_555
O30_2 Na9 1_555 1_555
O31_2 Dy3 1_555 1_555
O41_2 Na5 1_555 1_555
Dy5 O30_2 1_555 1_555
Dy7 O41_2 1_555 1_555
O32_2 N5_4 1_555 1_555
O8_4 Dy6_2 1_555 1_555
N5_4 O8_4 1_555 1_555
Na6_2 O32_2 1_555 1_555
O27_2 Dy6_2 1_555 1_555
O37_2 Dy6_2 1_555 1_555
O40_2 Dy6_2 1_555 1_555
O44_2 Dy6_2 1_555 1_555
Na6_2 O40_2 1_555 1_555
Na6_2 O44_2 1_555 1_555
Na11_2 O27_2 1_555 1_555
O10_4 Dy3_2 1_555 1_555
O29_2 Dy3_2 1_555 1_555
O33_2 Dy3_2 1_555 1_555
O39_2 Dy3_2 1_555 1_555
O45_2 Dy3_2 1_555 1_555
O12_3 Na10 1_555 1_555
H1_3 O12_3 1_555 1_555
O14_3 Na10 1_555 1_555
O31 Na10 1_555 1_555
O14_3 H53 1_555 1_555
O14_3 H54 1_555 1_555
Zn1_2 O15_2 1_555 1_555
Na2_2 O9_2 1_555 1_555
Na10_2 O29 1_555 1_555
O26_2 C15_2 1_555 1_555
O29 C5_2 1_555 1_555
O33 C5_2 1_555 1_555
O9_2 C15_2 1_555 1_555
O12_4 Na10_2 1_555 1_555
O13_2 Na2_2 1_555 1_555
O14_4 Na10_2 1_555 1_555
O15_2 C46_3 1_555 1_555
N1_2 Zn1_2 1_555 1_555
N3_2 Zn1_2 1_555 1_555
N4_2 Zn1_2 1_555 1_555
C1_2 C5_2 1_555 1_555
C3_2 N1_2 1_555 1_555
C4_2 N4_2 1_555 1_555
C8_2 N3_2 1_555 1_555
C10_2 N1_2 1_555 1_555
C12_2 C4_2 1_555 1_555
C13_2 C8_2 1_555 1_555
C15_2 C17_2 1_555 1_555
C16_2 C3_2 1_555 1_555
C17_2 C30_2 1_555 1_555
C18_2 C13_2 1_555 1_555
C21_2 N4_2 1_555 1_555
C23_2 N3_2 1_555 1_555
C24_2 C12_2 1_555 1_555
H3_2 C24_2 1_555 1_555
C26_2 C10_2 1_555 1_555
C27_2 C16_2 1_555 1_555
C29_2 C1_2 1_555 1_555
H6_2 C29_2 1_555 1_555
C30_2 H7_2 1_555 1_555
C31_2 C3_2 1_555 1_555
H8_2 C31_2 1_555 1_555
C36_2 C17_2 1_555 1_555
H13_2 C36_2 1_555 1_555
C37_2 C18_2 1_555 1_555
H14_2 C37_2 1_555 1_555
C38_2 C27_2 1_555 1_555
H15_2 C38_2 1_555 1_555
C39_2 C23_2 1_555 1_555
H16_2 C39_2 1_555 1_555
C40_2 C27_2 1_555 1_555
H17_2 C40_2 1_555 1_555
C43_2 C8_2 1_555 1_555
H20_2 C43_2 1_555 1_555
C45_2 C1_2 1_555 1_555
H22_2 C45_2 1_555 1_555
C48_2 C18_2 1_555 1_555
H24_2 C48_2 1_555 1_555
H26_3 O12_4 1_555 1_555
Dy8 O26_2 1_555 1_555
O32_3 Na2_2 1_555 1_555
O41 Na2_2 1_555 1_555
O9_2 Dy8 1_555 1_555
C13_2 C21_2 1_555 1_555
C16_2 C23_2 1_555 1_555
C21_2 C24_2 1_555 1_555
C26_2 C31_2 1_555 1_555
C29_2 C37_2 1_555 1_555
C30_2 C38_2 1_555 1_555
C36_2 C40_2 1_555 1_555
C39_2 C43_2 1_555 1_555
C45_2 C48_2 1_555 1_555
Dy8 O32_3 1_555 1_555
O37 C51_2 1_555 1_555
O21_2 C55_2 1_555 1_555
O40 C51_2 1_555 1_555
C51_2 C71_2 1_555 1_555
C55_2 O24_2 1_555 1_555
C56_2 C55_2 1_555 1_555
C60_2 C69_2 1_555 1_555
C63_2 N7_2 1_555 1_555
C68_2 N7_2 1_555 1_555
C71_2 C90_2 1_555 1_555
C74_2 C58_2 1_555 1_555
C77_2 C56_2 1_555 1_555
H30_2 C77_2 1_555 1_555
C81_2 C68_2 1_555 1_555
H34_2 C81_2 1_555 1_555
C82_2 C74_2 1_555 1_555
H35_2 C82_2 1_555 1_555
C83_2 C63_2 1_555 1_555
H36_2 C83_2 1_555 1_555
C84_2 C56_2 1_555 1_555
H37_2 C84_2 1_555 1_555
C90_2 H43_2 1_555 1_555
C91_2 C74_2 1_555 1_555
H44_2 C91_2 1_555 1_555
C93_2 C60_2 1_555 1_555
H46_2 C93_2 1_555 1_555
C95_2 C71_2 1_555 1_555
H48_2 C95_2 1_555 1_555
C97_2 C60_2 1_555 1_555
H50_2 C97_2 1_555 1_555
Dy5 O21_2 1_555 1_555
O40 Na5_3 1_555 1_555
O24_2 Dy5 1_555 1_555
C58_2 C63_2 1_555 1_555
C68_2 C69_2 1_555 1_555
C77_2 C82_2 1_555 1_555
C81_2 C83_2 1_555 1_555
C84_2 C91_2 1_555 1_555
C90_2 C93_2 1_555 1_555
C95_2 C97_2 1_555 1_555
O43 Na1_2 1_555 1_555
Na1_3 O40_2 1_555 1_555
O37_2 C2_2 1_555 1_555
O6_2 Dy4 1_555 1_555
O40_2 C2_2 1_555 1_555
O10_5 Dy4 1_555 1_555
O11_2 Dy4 1_555 1_555
C2_2 C22_2 1_555 1_555
C6_2 O6_2 1_555 1_555
C7_2 C6_2 1_555 1_555
C11_2 C20_2 1_555 1_555
C14_2 N2_2 1_555 1_555
C19_2 N2_2 1_555 1_555
C22_2 C41_2 1_555 1_555
C25_2 C9_2 1_555 1_555
C28_2 C7_2 1_555 1_555
H5_2 C28_2 1_555 1_555
C32_2 C19_2 1_555 1_555
H9_2 C32_2 1_555 1_555
C33_2 C25_2 1_555 1_555
H10_2 C33_2 1_555 1_555
C34_2 C14_2 1_555 1_555
H11_2 C34_2 1_555 1_555
C35_2 C7_2 1_555 1_555
H12_2 C35_2 1_555 1_555
C41_2 H18_2 1_555 1_555
C42_2 C25_2 1_555 1_555
H19_2 C42_2 1_555 1_555
C44_2 C11_2 1_555 1_555
H21_2 C44_2 1_555 1_555
C47_2 C22_2 1_555 1_555
H23_2 C47_2 1_555 1_555
C49_2 C11_2 1_555 1_555
H25_2 C49_2 1_555 1_555
O39_3 Dy4 1_555 1_555
O45_3 Dy4 1_555 1_555
O11_2 C6_2 1_555 1_555
C9_2 C14_2 1_555 1_555
C19_2 C20_2 1_555 1_555
C28_2 C33_2 1_555 1_555
C32_2 C34_2 1_555 1_555
C35_2 C42_2 1_555 1_555
C41_2 C44_2 1_555 1_555
C47_2 C49_2 1_555 1_555
Dy7 O3_3 1_555 1_555
O3_3 N5_5 1_555 1_555
O8_5 Dy7 1_555 1_555
N5_5 O8_5 1_555 1_555
C46_6 O16_2 1_555 1_555
O16_2 Zn2_2 1_555 1_555
Zn2_2 N6_2 1_555 1_555
Na4_2 O3_3 1_555 1_555
O26 Dy7 1_555 1_555
O29_2 C54_2 1_555 1_555
O23_2 Dy7 1_555 1_555
O25_2 Na4_2 1_555 1_555
N6_2 C52_2 1_555 1_555
N8_2 Zn2_2 1_555 1_555
N9_2 Zn2_2 1_555 1_555
C50_2 C54_2 1_555 1_555
C52_2 C65_2 1_555 1_555
C53_2 N9_2 1_555 1_555
C54_2 O33_2 1_555 1_555
C57_2 N8_2 1_555 1_555
C59_2 N6_2 1_555 1_555
C61_2 C53_2 1_555 1_555
C62_2 C57_2 1_555 1_555
C64_2 O26 1_555 1_555
C65_2 C72_2 1_555 1_555
C66_2 C64_2 1_555 1_555
C67_2 C62_2 1_555 1_555
C70_2 N9_2 1_555 1_555
C72_2 N8_2 1_555 1_555
C73_2 C61_2 1_555 1_555
H28_2 C73_2 1_555 1_555
C75_2 C59_2 1_555 1_555
C76_2 C65_2 1_555 1_555
C78_2 C50_2 1_555 1_555
H31_2 C78_2 1_555 1_555
C79_2 C66_2 1_555 1_555
H32_2 C79_2 1_555 1_555
C80_2 C52_2 1_555 1_555
H33_2 C80_2 1_555 1_555
C85_2 C66_2 1_555 1_555
H38_2 C85_2 1_555 1_555
C86_2 C67_2 1_555 1_555
H39_2 C86_2 1_555 1_555
C87_2 C76_2 1_555 1_555
H40_2 C87_2 1_555 1_555
C88_2 C72_2 1_555 1_555
H41_2 C88_2 1_555 1_555
C89_2 C76_2 1_555 1_555
H42_2 C89_2 1_555 1_555
C92_2 C57_2 1_555 1_555
H45_2 C92_2 1_555 1_555
C94_2 C50_2 1_555 1_555
H47_2 C94_2 1_555 1_555
C96_2 C67_2 1_555 1_555
H49_2 C96_2 1_555 1_555
Na7 O3_3 1_555 1_555
Na11_2 O29_2 1_555 1_555
O28 Dy7 1_555 1_555
O38_3 Dy7 1_555 1_555
O44_3 Dy7 1_555 1_555
Na4_2 O23_2 1_555 1_555
Na4_2 O41_2 1_555 1_555
O23_2 C64_2 1_555 1_555
C62_2 C70_2 1_555 1_555
C70_2 C73_2 1_555 1_555
C75_2 C80_2 1_555 1_555
C78_2 C86_2 1_555 1_555
C79_2 C87_2 1_555 1_555
C85_2 C89_2 1_555 1_555
C88_2 C92_2 1_555 1_555
C94_2 C96_2 1_555 1_555
Na7 O44_3 1_555 1_555
O42 Na5_2 1_555 1_555
O32_3 N5_6 1_555 1_555
O8_6 Dy8 1_555 1_555
N5_6 O8_6 1_555 1_555
Na8 O32_3 1_555 1_555
O28_2 Dy8 1_555 1_555
O38_4 Dy8 1_555 1_555
O44_4 Dy8 1_555 1_555
Na8 O44_4 1_555 1_555
O10_6 Dy5 1_555 1_555
O39_4 Dy5 1_555 1_555
O45_4 Dy5 1_555 1_555
O12_5 Na11 1_555 1_555
H1_4 O12_5 1_555 1_555
O14_5 Na11 1_555 1_555
O31_2 Na11 1_555 1_555
O14_5 H53_2 1_555 1_555
O14_5 H54_2 1_555 1_555
O12_6 Na11_2 1_555 1_555
O14_6 Na11_2 1_555 1_555
H26_4 O12_6 1_555 1_555
C46_7 O16_3 1_555 1_555
O16_3 Zn2_3 1_555 1_555
Zn2_3 N6_3 1_555 1_555
O30 C54_3 1_555 1_555
O38_4 C51_3 1_555 1_555
O39 C55_3 1_555 1_555
O41 C51_3 1_555 1_555
O25_3 Na6_2 1_555 1_555
N6_3 C52_3 1_555 1_555
N7_3 Zn2_3 1_555 1_555
N8_3 Zn2_3 1_555 1_555
N9_3 Zn2_3 1_555 1_555
C50_3 C54_3 1_555 1_555
C51_3 C71_3 1_555 1_555
C52_3 C65_3 1_555 1_555
C53_3 N9_3 1_555 1_555
C54_3 O34_2 1_555 1_555
C55_3 O45 1_555 1_555
C56_3 C55_3 1_555 1_555
C57_3 N8_3 1_555 1_555
C58_3 C59_3 1_555 1_555
C59_3 N6_3 1_555 1_555
C60_3 C69_3 1_555 1_555
C61_3 C53_3 1_555 1_555
H27_3 C61_3 1_555 1_555
C62_3 C57_3 1_555 1_555
C63_3 N7_3 1_555 1_555
C64_3 O27_2 1_555 1_555
C65_3 C72_3 1_555 1_555
C66_3 C64_3 1_555 1_555
C67_3 C62_3 1_555 1_555
C68_3 N7_3 1_555 1_555
C69_3 C53_3 1_555 1_555
C70_3 N9_3 1_555 1_555
C71_3 C90_3 1_555 1_555
C72_3 N8_3 1_555 1_555
C73_3 C61_3 1_555 1_555
H28_3 C73_3 1_555 1_555
C74_3 C58_3 1_555 1_555
C75_3 C59_3 1_555 1_555
H29_3 C75_3 1_555 1_555
C76_3 C65_3 1_555 1_555
C77_3 C56_3 1_555 1_555
H30_3 C77_3 1_555 1_555
C78_3 C50_3 1_555 1_555
H31_3 C78_3 1_555 1_555
C79_3 C66_3 1_555 1_555
H32_3 C79_3 1_555 1_555
C80_3 C52_3 1_555 1_555
H33_3 C80_3 1_555 1_555
C81_3 C68_3 1_555 1_555
H34_3 C81_3 1_555 1_555
C82_3 C74_3 1_555 1_555
H35_3 C82_3 1_555 1_555
C83_3 C63_3 1_555 1_555
H36_3 C83_3 1_555 1_555
C84_3 C56_3 1_555 1_555
H37_3 C84_3 1_555 1_555
C85_3 C66_3 1_555 1_555
H38_3 C85_3 1_555 1_555
C86_3 C67_3 1_555 1_555
H39_3 C86_3 1_555 1_555
C87_3 C76_3 1_555 1_555
H40_3 C87_3 1_555 1_555
C88_3 C72_3 1_555 1_555
H41_3 C88_3 1_555 1_555
C89_3 C76_3 1_555 1_555
H42_3 C89_3 1_555 1_555
C90_3 H43_3 1_555 1_555
C91_3 C74_3 1_555 1_555
H44_3 C91_3 1_555 1_555
C92_3 C57_3 1_555 1_555
H45_3 C92_3 1_555 1_555
C93_3 C60_3 1_555 1_555
H46_3 C93_3 1_555 1_555
C94_3 C50_3 1_555 1_555
H47_3 C94_3 1_555 1_555
C95_3 C71_3 1_555 1_555
H48_3 C95_3 1_555 1_555
C96_3 C67_3 1_555 1_555
H49_3 C96_3 1_555 1_555
C97_3 C60_3 1_555 1_555
H50_3 C97_3 1_555 1_555
O44_2 C64_3 1_555 1_555
C58_3 C63_3 1_555 1_555
C62_3 C70_3 1_555 1_555
C68_3 C69_3 1_555 1_555
C70_3 C73_3 1_555 1_555
C75_3 C80_3 1_555 1_555
C77_3 C82_3 1_555 1_555
C78_3 C86_3 1_555 1_555
C79_3 C87_3 1_555 1_555
C81_3 C83_3 1_555 1_555
C84_3 C91_3 1_555 1_555
C85_3 C89_3 1_555 1_555
C88_3 C92_3 1_555 1_555
C90_3 C93_3 1_555 1_555
C94_3 C96_3 1_555 1_555
C95_3 C97_3 1_555 1_555
Zn1_3 O15_3 1_555 1_555
O27 C15_3 1_555 1_555
O30_2 C5_3 1_555 1_555
O34 C5_3 1_555 1_555
O38_3 C2_3 1_555 1_555
O41_2 C2_3 1_555 1_555
O44 C15_3 1_555 1_555
O13_3 Na6 1_555 1_555
O15_3 C46_8 1_555 1_555
N1_3 Zn1_3 1_555 1_555
N2_3 Zn1_3 1_555 1_555
N3_3 Zn1_3 1_555 1_555
N4_3 Zn1_3 1_555 1_555
C1_3 C5_3 1_555 1_555
C2_3 C22_3 1_555 1_555
C3_3 N1_3 1_555 1_555
C4_3 N4_3 1_555 1_555
C6_3 O39_2 1_555 1_555
C7_3 C6_3 1_555 1_555
C8_3 N3_3 1_555 1_555
C9_3 C10_3 1_555 1_555
C10_3 N1_3 1_555 1_555
C11_3 C20_3 1_555 1_555
C12_3 C4_3 1_555 1_555
H2_3 C12_3 1_555 1_555
C13_3 C8_3 1_555 1_555
C14_3 N2_3 1_555 1_555
C15_3 C17_3 1_555 1_555
C16_3 C3_3 1_555 1_555
C17_3 C30_3 1_555 1_555
C18_3 C13_3 1_555 1_555
C19_3 N2_3 1_555 1_555
C20_3 C4_3 1_555 1_555
C21_3 N4_3 1_555 1_555
C22_3 C41_3 1_555 1_555
C23_3 N3_3 1_555 1_555
C24_3 C12_3 1_555 1_555
H3_3 C24_3 1_555 1_555
C25_3 C9_3 1_555 1_555
C26_3 C10_3 1_555 1_555
H4_3 C26_3 1_555 1_555
C27_3 C16_3 1_555 1_555
C28_3 C7_3 1_555 1_555
H5_3 C28_3 1_555 1_555
C29_3 C1_3 1_555 1_555
H6_3 C29_3 1_555 1_555
C30_3 H7_3 1_555 1_555
C31_3 C3_3 1_555 1_555
H8_3 C31_3 1_555 1_555
C32_3 C19_3 1_555 1_555
H9_3 C32_3 1_555 1_555
C33_3 C25_3 1_555 1_555
H10_3 C33_3 1_555 1_555
C34_3 C14_3 1_555 1_555
H11_3 C34_3 1_555 1_555
C35_3 C7_3 1_555 1_555
H12_3 C35_3 1_555 1_555
C36_3 C17_3 1_555 1_555
H13_3 C36_3 1_555 1_555
C37_3 C18_3 1_555 1_555
H14_3 C37_3 1_555 1_555
C38_3 C27_3 1_555 1_555
H15_3 C38_3 1_555 1_555
C39_3 C23_3 1_555 1_555
H16_3 C39_3 1_555 1_555
C40_3 C27_3 1_555 1_555
H17_3 C40_3 1_555 1_555
C41_3 H18_3 1_555 1_555
C42_3 C25_3 1_555 1_555
H19_3 C42_3 1_555 1_555
C43_3 C8_3 1_555 1_555
H20_3 C43_3 1_555 1_555
C44_3 C11_3 1_555 1_555
H21_3 C44_3 1_555 1_555
C45_3 C1_3 1_555 1_555
H22_3 C45_3 1_555 1_555
C47_3 C22_3 1_555 1_555
H23_3 C47_3 1_555 1_555
C48_3 C18_3 1_555 1_555
H24_3 C48_3 1_555 1_555
C49_3 C11_3 1_555 1_555
H25_3 C49_3 1_555 1_555
O45_2 C6_3 1_555 1_555
C9_3 C14_3 1_555 1_555
C13_3 C21_3 1_555 1_555
C16_3 C23_3 1_555 1_555
C19_3 C20_3 1_555 1_555
C21_3 C24_3 1_555 1_555
C26_3 C31_3 1_555 1_555
C28_3 C33_3 1_555 1_555
C29_3 C37_3 1_555 1_555
C30_3 C38_3 1_555 1_555
C32_3 C34_3 1_555 1_555
C35_3 C42_3 1_555 1_555
C36_3 C40_3 1_555 1_555
C39_3 C43_3 1_555 1_555
C41_3 C44_3 1_555 1_555
C45_3 C48_3 1_555 1_555
C47_3 C49_3 1_555 1_555
C46_9 O16_4 1_555 1_555
O16_4 Zn2_4 1_555 1_555
Zn2_4 N6_4 1_555 1_555
O31 C54_4 1_555 1_555
O25_4 Na8 1_555 1_555
N6_4 C52_4 1_555 1_555
N8_4 Zn2_4 1_555 1_555
N9_4 Zn2_4 1_555 1_555
C50_4 C54_4 1_555 1_555
C52_4 C65_4 1_555 1_555
C53_4 N9_4 1_555 1_555
C54_4 O36 1_555 1_555
C57_4 N8_4 1_555 1_555
C59_4 N6_4 1_555 1_555
C61_4 C53_4 1_555 1_555
C62_4 C57_4 1_555 1_555
C64_4 O28_2 1_555 1_555
C65_4 C72_4 1_555 1_555
C66_4 C64_4 1_555 1_555
C67_4 C62_4 1_555 1_555
C70_4 N9_4 1_555 1_555
C72_4 N8_4 1_555 1_555
C73_4 C61_4 1_555 1_555
H28_4 C73_4 1_555 1_555
C75_4 C59_4 1_555 1_555
C76_4 C65_4 1_555 1_555
C78_4 C50_4 1_555 1_555
H31_4 C78_4 1_555 1_555
C79_4 C66_4 1_555 1_555
H32_4 C79_4 1_555 1_555
C80_4 C52_4 1_555 1_555
H33_4 C80_4 1_555 1_555
C85_4 C66_4 1_555 1_555
H38_4 C85_4 1_555 1_555
C86_4 C67_4 1_555 1_555
H39_4 C86_4 1_555 1_555
C87_4 C76_4 1_555 1_555
H40_4 C87_4 1_555 1_555
C88_4 C72_4 1_555 1_555
H41_4 C88_4 1_555 1_555
C89_4 C76_4 1_555 1_555
H42_4 C89_4 1_555 1_555
C92_4 C57_4 1_555 1_555
H45_4 C92_4 1_555 1_555
C94_4 C50_4 1_555 1_555
H47_4 C94_4 1_555 1_555
C96_4 C67_4 1_555 1_555
H49_4 C96_4 1_555 1_555
O44_4 C64_4 1_555 1_555
C62_4 C70_4 1_555 1_555
C70_4 C73_4 1_555 1_555
C75_4 C80_4 1_555 1_555
C78_4 C86_4 1_555 1_555
C79_4 C87_4 1_555 1_555
C85_4 C89_4 1_555 1_555
C88_4 C92_4 1_555 1_555
C94_4 C96_4 1_555 1_555
O38 C2_4 1_555 1_555
O42 C2_4 1_555 1_555
C2_4 C22_4 1_555 1_555
C6_4 O39_4 1_555 1_555
C7_4 C6_4 1_555 1_555
C11_4 C20_4 1_555 1_555
C14_4 N2_4 1_555 1_555
C19_4 N2_4 1_555 1_555
C22_4 C41_4 1_555 1_555
C25_4 C9_4 1_555 1_555
C28_4 C7_4 1_555 1_555
H5_4 C28_4 1_555 1_555
C32_4 C19_4 1_555 1_555
H9_4 C32_4 1_555 1_555
C33_4 C25_4 1_555 1_555
H10_4 C33_4 1_555 1_555
C34_4 C14_4 1_555 1_555
H11_4 C34_4 1_555 1_555
C35_4 C7_4 1_555 1_555
H12_4 C35_4 1_555 1_555
C41_4 H18_4 1_555 1_555
C42_4 C25_4 1_555 1_555
H19_4 C42_4 1_555 1_555
C44_4 C11_4 1_555 1_555
H21_4 C44_4 1_555 1_555
C47_4 C22_4 1_555 1_555
H23_4 C47_4 1_555 1_555
C49_4 C11_4 1_555 1_555
H25_4 C49_4 1_555 1_555
O45_4 C6_4 1_555 1_555
C9_4 C14_4 1_555 1_555
C19_4 C20_4 1_555 1_555
C28_4 C33_4 1_555 1_555
C32_4 C34_4 1_555 1_555
C35_4 C42_4 1_555 1_555
C41_4 C44_4 1_555 1_555
C47_4 C49_4 1_555 1_555
O38_2 C51_4 1_555 1_555
O39_3 C55_4 1_555 1_555
O43 C51_4 1_555 1_555
C51_4 C71_4 1_555 1_555
C55_4 O45_3 1_555 1_555
C56_4 C55_4 1_555 1_555
C60_4 C69_4 1_555 1_555
C63_4 N7_4 1_555 1_555
C68_4 N7_4 1_555 1_555
C71_4 C90_4 1_555 1_555
C74_4 C58_4 1_555 1_555
C77_4 C56_4 1_555 1_555
H30_4 C77_4 1_555 1_555
C81_4 C68_4 1_555 1_555
H34_4 C81_4 1_555 1_555
C82_4 C74_4 1_555 1_555
H35_4 C82_4 1_555 1_555
C83_4 C63_4 1_555 1_555
H36_4 C83_4 1_555 1_555
C84_4 C56_4 1_555 1_555
H37_4 C84_4 1_555 1_555
C90_4 H43_4 1_555 1_555
C91_4 C74_4 1_555 1_555
H44_4 C91_4 1_555 1_555
C93_4 C60_4 1_555 1_555
H46_4 C93_4 1_555 1_555
C95_4 C71_4 1_555 1_555
H48_4 C95_4 1_555 1_555
C97_4 C60_4 1_555 1_555
H50_4 C97_4 1_555 1_555
C58_4 C63_4 1_555 1_555
C68_4 C69_4 1_555 1_555
C77_4 C82_4 1_555 1_555
C81_4 C83_4 1_555 1_555
C84_4 C91_4 1_555 1_555
C90_4 C93_4 1_555 1_555
C95_4 C97_4 1_555 1_555
Zn1_4 O15_4 1_555 1_555
O28 C15_4 1_555 1_555
O31_2 C5_4 1_555 1_555
O35 C5_4 1_555 1_555
O44_3 C15_4 1_555 1_555
O13_4 Na7 1_555 1_555
O15_4 C46_12 1_555 1_555
N1_4 Zn1_4 1_555 1_555
N3_4 Zn1_4 1_555 1_555
N4_4 Zn1_4 1_555 1_555
C1_4 C5_4 1_555 1_555
C3_4 N1_4 1_555 1_555
C4_4 N4_4 1_555 1_555
C8_4 N3_4 1_555 1_555
C10_4 N1_4 1_555 1_555
C12_4 C4_4 1_555 1_555
C13_4 C8_4 1_555 1_555
C15_4 C17_4 1_555 1_555
C16_4 C3_4 1_555 1_555
C17_4 C30_4 1_555 1_555
C18_4 C13_4 1_555 1_555
C21_4 N4_4 1_555 1_555
C23_4 N3_4 1_555 1_555
C24_4 C12_4 1_555 1_555
H3_4 C24_4 1_555 1_555
C26_4 C10_4 1_555 1_555
C27_4 C16_4 1_555 1_555
C29_4 C1_4 1_555 1_555
H6_4 C29_4 1_555 1_555
C30_4 H7_4 1_555 1_555
C31_4 C3_4 1_555 1_555
H8_4 C31_4 1_555 1_555
C36_4 C17_4 1_555 1_555
H13_4 C36_4 1_555 1_555
C37_4 C18_4 1_555 1_555
H14_4 C37_4 1_555 1_555
C38_4 C27_4 1_555 1_555
H15_4 C38_4 1_555 1_555
C39_4 C23_4 1_555 1_555
H16_4 C39_4 1_555 1_555
C40_4 C27_4 1_555 1_555
H17_4 C40_4 1_555 1_555
C43_4 C8_4 1_555 1_555
H20_4 C43_4 1_555 1_555
C45_4 C1_4 1_555 1_555
H22_4 C45_4 1_555 1_555
C48_4 C18_4 1_555 1_555
H24_4 C48_4 1_555 1_555
C13_4 C21_4 1_555 1_555
C16_4 C23_4 1_555 1_555
C21_4 C24_4 1_555 1_555
C26_4 C31_4 1_555 1_555
C29_4 C37_4 1_555 1_555
C30_4 C38_4 1_555 1_555
C36_4 C40_4 1_555 1_555
C39_4 C43_4 1_555 1_555
C45_4 C48_4 1_555 1_555
O14_6 H53_3 1_555 1_555
O14_6 H54_3 1_555 1_555
O14_4 H53_4 1_555 1_555
O14_4 H54_4 1_555 1_555

#END
