
###############################################################################
#
# This file contains modified crystal structure data generated from the
# MOF subset of the Cambridge Structural Database (CSD) v543 
# hosted by the Cambridge Crystallographic Data Centre (CCDC).
#
# This work is licensed under the Creative Commons
# Attribution-NonCommercial-ShareAlike 4.0 International License.
# To view a copy of this license, visit
# http://creativecommons.org/licenses/by-nc-sa/4.0/
# or send a letter to
# Creative Commons, PO Box 1866, Mountain View, CA 94042, USA.
#
# CIF created using the CSD Python API on 29 September 2022
# The structure has been converted into the P1 space group
# The structure has a 3D framework
# The original CSD entry DOMKEX is in the triclinic crystal system
# The framework has been calculated to contain at least 10.0% void space
# The void calculation uses a probe of radius 1.32A, grid spacing 0.4
#
###############################################################################

data_DOMKEX
_chemical_formula_moiety         '(C64 H58 N6 Na7 O17)n'
_symmetry_cell_setting           triclinic
_symmetry_space_group_name_H-M   'P 1'
_symmetry_Int_Tables_number      1
_space_group_name_Hall           'P 1'
loop_
_symmetry_equiv_pos_site_id
_symmetry_equiv_pos_as_xyz
1 x,y,z
_cell_length_a                   6.4059(2)
_cell_length_b                   16.3502(5)
_cell_length_c                   17.8196(5)
_cell_angle_alpha                98.1090(10)
_cell_angle_beta                 94.0560(10)
_cell_angle_gamma                95.6510(10)
_cell_volume                     1831.95
loop_
_atom_site_label
_atom_site_type_symbol
_atom_site_fract_x
_atom_site_fract_y
_atom_site_fract_z
_atom_site_U_iso_or_equiv
_atom_site_thermal_displace_type
Na4 Na 0.2734(2) 0.31100(10) 0.64102(8) 0.0274 Uani
O4 O 0.2011(4) 0.35814(16) 0.52434(14) 0.0232 Uani
C3 C 0.0360(2) 0.34001(8) 0.47952(8) 0.0181 Uani
H13 H 0.0753 0.2159 0.4615 0.0560 Uiso
H14 H 0.0379 0.2537 0.3841 0.0560 Uiso
H28 H 0.0504 0.2968 0.0168 0.1170 Uiso
H30 H 0.1020 0.3883 0.0639 0.1170 Uiso
Na10 Na 0.57075(19) 0.39640(8) 0.51929(7) 0.0161 Uani
Na18 Na 0.12569(19) 0.49121(8) 0.58649(7) 0.0176 Uani
O23 O 0.2193(4) 0.51455(14) 0.37420(13) 0.0176 Uani
O30 O 0.0939(4) 0.60944(15) 0.53087(14) 0.0229 Uani
O37 O 0.1956(4) 0.45561(16) 0.70761(14) 0.0249 Uani
O41 O 0.4910(4) 0.40385(17) 0.73876(16) 0.0301 Uani
O45 O 0.1485(5) 0.1894(2) 0.6973(2) 0.0489 Uani
O47 O 0.5782(4) 0.27503(16) 0.57860(15) 0.0293 Uani
H19 H 0.0264 0.0926 0.7883 0.0510 Uiso
C30 C 0.1688(9) 0.3248(4) 0.9014(4) 0.0699 Uani
H25 H 0.2208 0.3198 0.8507 0.1050 Uiso
H26 H 0.1170 0.2696 0.9121 0.1050 Uiso
H27 H 0.2835 0.3496 0.9396 0.1050 Uiso
Na2 Na 0.87431(19) 0.50879(8) 0.41351(7) 0.0176 Uani
O2 O 0.5123(3) 0.46547(15) 0.41404(13) 0.0181 Uani
O3 O 0.9061(4) 0.39056(15) 0.46913(14) 0.0229 Uani
H1 H 0.6921 0.2798 0.6121 0.0440 Uiso
H2 H 0.5456 0.2271 0.5466 0.0440 Uiso
N2 N 0.2346(2) 0.09506(8) 0.02316(8) 0.0221 Uani
C1 C 0.3437(2) 0.45905(8) 0.37258(8) 0.0143 Uani
C2 C 0.2869(2) 0.38064(8) 0.31548(8) 0.0164 Uani
C4 C 0.4249(2) 0.32026(8) 0.30693(8) 0.0214 Uani
H4 H 0.5534 0.3270 0.3383 0.0260 Uiso
C5 C 0.0469(6) 0.2984(2) 0.2168(2) 0.0218 Uani
C6 C 0.1870(5) 0.2389(2) 0.2064(2) 0.0205 Uani
C8 C 0.0968(6) 0.3693(2) 0.2709(2) 0.0206 Uani
H6 H 0.0005 0.4098 0.2773 0.0250 Uiso
C13 C 0.1338(6) 0.1657(2) 0.1451(2) 0.0210 Uani
C14 C 0.3756(6) 0.2503(2) 0.2528(2) 0.0258 Uani
H7 H 0.4713 0.2094 0.2472 0.0310 Uiso
C16 C 0.2643(6) 0.1572(2) 0.0847(2) 0.0236 Uani
C21 C 0.5211(6) 0.1878(2) 0.0109(2) 0.0307 Uani
C22 C 0.4444(6) 0.2153(2) 0.0768(2) 0.0317 Uani
H11 H 0.4980 0.2635 0.1116 0.0380 Uiso
C23 C 0.9947(7) 0.2535(3) 0.4358(3) 0.0372 Uani
H12 H 0.8442 0.2344 0.4333 0.0560 Uiso
H23 H 0.6138 0.4120 0.0086 0.1010 Uiso
C31 C 0.9901(10) 0.3474(4) 0.0367(3) 0.0781 Uani
H29 H 0.8846 0.3341 0.0717 0.1170 Uiso
Na12 Na 0.42925(19) 0.60360(8) 0.48071(7) 0.0161 Uani
Na22 Na 0.1504(2) 0.58795(9) 0.27141(8) 0.0239 Uani
O26 O 0.7807(4) 0.48545(14) 0.62580(13) 0.0176 Uani
O28 O 0.4877(3) 0.53453(15) 0.58596(13) 0.0181 Uani
O34 O 0.7989(4) 0.64186(16) 0.47566(14) 0.0232 Uani
O40 O 0.8044(4) 0.54439(16) 0.29239(14) 0.0249 Uani
O43 O 0.9202(4) 0.27910(17) 0.67965(17) 0.0327 Uani
Na3 Na 0.8496(2) 0.41205(9) 0.72859(8) 0.0239 Uani
O8 O 0.9231(5) 0.4205(2) 0.85766(17) 0.0517 Uani
C9 C 0.3640(5) 0.4569(2) 0.7489(2) 0.0218 Uani
C10 C 0.3895(6) 0.1137(2) 0.9770(2) 0.0236 Uani
C11 C 0.4181(6) 0.0687(2) 0.9063(2) 0.0237 Uani
C17 C 0.5724(6) 0.1077(2) 0.8585(2) 0.0252 Uani
C19 C 0.9803(6) 0.2187(2) 0.7093(2) 0.0294 Uani
C20 C 0.8401(6) 0.1799(2) 0.7623(2) 0.0279 Uani
H10 H 0.6403 0.2127 0.9904 0.0370 Uiso
C24 C 0.4114(7) 0.5267(3) 0.8154(2) 0.0356 Uani
H15 H 0.3229 0.5155 0.8562 0.0540 Uiso
H16 H 0.3820 0.5793 0.7987 0.0540 Uiso
H17 H 0.5601 0.5304 0.8342 0.0540 Uiso
C25 C 0.7637(7) 0.0778(3) 0.8446(3) 0.0403 Uani
H18 H 0.8042 0.0323 0.8678 0.0490 Uiso
C26 C 0.8959(7) 0.1137(3) 0.7971(3) 0.0427 Uani
C27 C 0.6516(7) 0.2113(3) 0.7779(3) 0.0383 Uani
H20 H 0.6130 0.2582 0.7564 0.0460 Uiso
C28 C 0.5202(7) 0.1745(3) 0.8247(3) 0.0381 Uani
H21 H 0.3901 0.1959 0.8338 0.0450 Uiso
N3 N 0.8912(9) 0.3817(3) 0.9741(3) 0.0734 Uani
C29 C 0.7187(9) 0.4332(4) 0.9766(4) 0.0693 Uani
H22 H 0.7727 0.4905 0.9979 0.1010 Uiso
H24 H 0.6531 0.4318 0.9250 0.1010 Uiso
C32 C 0.9922(9) 0.3793(4) 0.9042(3) 0.0762 Uani
N1 N 0.1333(2) 0.95369(8) 0.90141(8) 0.0218 Uani
H3 H 0.0757 0.9737 0.9427 0.0260 Uiso
C7 C 0.2982(6) 0.9952(2) 0.8719(2) 0.0220 Uani
C12 C 0.0458(6) 0.8877(2) 0.8484(2) 0.0222 Uani
C15 C 0.1650(6) 0.8863(2) 0.7840(2) 0.0263 Uani
H8 H 0.1415 0.8466 0.7390 0.0320 Uiso
C18 C 0.3191(6) 0.9518(2) 0.7977(2) 0.0278 Uani
H9 H 0.4213 0.9659 0.7642 0.0340 Uiso
H33 H 0.0841 0.7093 0.8132 0.0260 Uiso
H5 H 0.9159 0.2907 0.1868 0.0260 Uiso
N4 N 0.8667(2) 0.04631(8) 0.09859(8) 0.0218 Uani
H31 H 0.9243 0.0263 0.0573 0.0260 Uiso
C38 C 0.7018(6) 0.0048(2) 0.1281(2) 0.0220 Uani
C42 C 0.9542(6) 0.1123(2) 0.1516(2) 0.0222 Uani
C45 C 0.8350(6) 0.1137(2) 0.2160(2) 0.0263 Uani
H36 H 0.8585 0.1534 0.2610 0.0320 Uiso
C48 C 0.6809(6) 0.0482(2) 0.2023(2) 0.0278 Uani
H37 H 0.5787 0.0341 0.2358 0.0340 Uiso
O13 O 0.0798(4) 0.72090(17) 0.32035(17) 0.0327 Uani
C40 C 0.6105(6) 0.8863(2) 0.0230(2) 0.0236 Uani
C41 C 0.5819(6) 0.9313(2) 0.0937(2) 0.0237 Uani
C47 C 0.4276(6) 0.8923(2) 0.1415(2) 0.0252 Uani
C49 C 0.0197(6) 0.7813(2) 0.2907(2) 0.0294 Uani
C50 C 0.1599(6) 0.8201(2) 0.2377(2) 0.0279 Uani
H38 H 0.3597 0.7873 0.0096 0.0370 Uiso
C53 C 0.2363(7) 0.9222(3) 0.1554(3) 0.0403 Uani
H40 H 0.1958 0.9677 0.1322 0.0490 Uiso
C54 C 0.1041(7) 0.8863(3) 0.2029(3) 0.0427 Uani
C55 C 0.3484(7) 0.7887(3) 0.2221(3) 0.0383 Uani
H42 H 0.3870 0.7418 0.2436 0.0460 Uiso
C56 C 0.4798(7) 0.8255(3) 0.1753(3) 0.0381 Uani
H43 H 0.6099 0.8041 0.1662 0.0450 Uiso
O18 O 0.5090(4) 0.59615(17) 0.26124(16) 0.0301 Uani
O19 O 0.0769(5) 0.5795(2) 0.14234(17) 0.0517 Uani
C58 C 0.6360(5) 0.5431(2) 0.2511(2) 0.0218 Uani
C60 C 0.5886(7) 0.4733(3) 0.1846(2) 0.0356 Uani
H49 H 0.6771 0.4845 0.1438 0.0540 Uiso
H50 H 0.6180 0.4207 0.2013 0.0540 Uiso
H51 H 0.4399 0.4696 0.1658 0.0540 Uiso
N6 N 0.1088(9) 0.6183(3) 0.0259(3) 0.0734 Uani
C61 C 0.2813(9) 0.5668(4) 0.0234(4) 0.0693 Uani
H52 H 0.2273 0.5095 0.0021 0.1010 Uiso
H54 H 0.3469 0.5682 0.0750 0.1010 Uiso
C64 C 0.0078(9) 0.6207(4) 0.0958(3) 0.0762 Uani
Na28 Na 0.7266(2) 0.68900(10) 0.35898(8) 0.0274 Uani
N5 N 0.7654(2) 0.90494(8) 0.97684(8) 0.0221 Uani
C33 C 0.6563(2) 0.54095(8) 0.62742(8) 0.0143 Uani
C34 C 0.7131(2) 0.61936(8) 0.68452(8) 0.0164 Uani
C35 C 0.5751(2) 0.67974(8) 0.69307(8) 0.0214 Uani
H32 H 0.4466 0.6730 0.6617 0.0260 Uiso
C36 C 0.9531(6) 0.7016(2) 0.7832(2) 0.0218 Uani
C37 C 0.8130(5) 0.7611(2) 0.7936(2) 0.0205 Uani
C39 C 0.9032(6) 0.6307(2) 0.7291(2) 0.0206 Uani
H34 H 0.9995 0.5902 0.7227 0.0250 Uiso
C43 C 0.8662(6) 0.8343(2) 0.8549(2) 0.0210 Uani
C44 C 0.6244(6) 0.7497(2) 0.7472(2) 0.0258 Uani
H35 H 0.5287 0.7906 0.7528 0.0310 Uiso
C46 C 0.7357(6) 0.8428(2) 0.9153(2) 0.0236 Uani
C51 C 0.4789(6) 0.8122(2) 0.9891(2) 0.0307 Uani
C52 C 0.5556(6) 0.7847(2) 0.9232(2) 0.0317 Uani
H39 H 0.5020 0.7365 0.8884 0.0380 Uiso
O20 O 0.4218(4) 0.72497(16) 0.42140(15) 0.0293 Uani
H44 H 0.3079 0.7202 0.3879 0.0440 Uiso
H45 H 0.4544 0.7729 0.4534 0.0440 Uiso
C59 C 0.0053(7) 0.7465(3) 0.5642(3) 0.0372 Uani
H46 H 0.1558 0.7656 0.5667 0.0560 Uiso
H53 H 0.3862 0.5880 0.9914 0.1010 Uiso
C63 C 0.0099(10) 0.6526(4) 0.9633(3) 0.0781 Uani
H59 H 0.1154 0.6659 0.9283 0.1170 Uiso
O14 O 0.8515(5) 0.8106(2) 0.3027(2) 0.0489 Uani
H41 H 0.9736 0.9074 0.2117 0.0510 Uiso
C62 C 0.8312(9) 0.6752(4) 0.0986(4) 0.0699 Uani
H55 H 0.7792 0.6802 0.1493 0.1050 Uiso
H56 H 0.8830 0.7304 0.0879 0.1050 Uiso
H57 H 0.7165 0.6504 0.0604 0.1050 Uiso
C57 C 0.9640(2) 0.65999(8) 0.52048(8) 0.0181 Uani
H47 H 0.9247 0.7841 0.5385 0.0560 Uiso
H48 H 0.9621 0.7463 0.6159 0.0560 Uiso
H58 H 0.9496 0.7032 0.9832 0.1170 Uiso
H60 H 0.8980 0.6117 0.9361 0.1170 Uiso
loop_
_atom_site_aniso_label
_atom_site_aniso_U_11
_atom_site_aniso_U_22
_atom_site_aniso_U_33
_atom_site_aniso_U_23
_atom_site_aniso_U_13
_atom_site_aniso_U_12
Na4 0.0221 0.0334 0.0292 0.0126 0.0066 0.0012
O4 0.0169 0.0288 0.0227 0.0045 0.0004 -0.0034
C3 0.0174 0.0197 0.0189 0.0062 0.008 0.0004
Na10 0.0151 0.0168 0.016 0.0021 0.0028 -0.0001
Na18 0.0143 0.0195 0.0189 0.0031 0.0025 0.0005
O23 0.0165 0.0174 0.0184 0.0014 0.0021 0.001
O30 0.0189 0.025 0.0274 0.0073 0.0079 0.0059
O37 0.0189 0.0361 0.0212 0.0085 0.0031 0.0027
O41 0.0184 0.0357 0.0396 0.0125 0.0067 0.007
O45 0.0364 0.047 0.076 0.0326 0.028 0.0171
O47 0.0322 0.024 0.0319 0.0055 0.0043 0.0016
C30 0.064 0.072 0.07 0.022 -0.005 -0.019
Na2 0.0143 0.0195 0.0189 0.0031 0.0025 0.0005
O2 0.0141 0.022 0.017 0.0017 -0.0008 -0.0011
O3 0.0189 0.025 0.0274 0.0073 0.0079 0.0059
N2 0.0248 0.0166 0.024 0.001 0.0054 -0.0009
C1 0.0149 0.0147 0.0144 0.0054 0.0063 -0.0016
C2 0.0144 0.0174 0.0169 0.0023 0.0021 -0.0013
C4 0.0193 0.022 0.0221 0.0024 -0.0013 0.0025
C5 0.022 0.0186 0.0226 0.0001 -0.0031 -0.0014
C6 0.0219 0.015 0.0222 -0.0013 0.0008 -0.0031
C8 0.0211 0.0188 0.021 0.0014 0.0002 0.0016
C13 0.0258 0.0121 0.0237 -0.0001 0.0017 -0.0005
C14 0.026 0.02 0.031 -0.001 0.0016 0.0078
C16 0.026 0.0155 0.028 0.0007 0.0057 -0.0032
C21 0.029 0.027 0.033 -0.0006 0.0086 -0.0096
C22 0.031 0.023 0.035 -0.0071 -0.0002 -0.0092
C23 0.039 0.025 0.043 -0.0069 0.001 -0.0002
C31 0.093 0.09 0.048 0.038 -0.023 -0.026
Na12 0.0151 0.0168 0.016 0.0021 0.0028 -0.0001
Na22 0.0188 0.0302 0.0258 0.0109 0.0062 0.0047
O26 0.0165 0.0174 0.0184 0.0014 0.0021 0.001
O28 0.0141 0.022 0.017 0.0017 -0.0008 -0.0011
O34 0.0169 0.0288 0.0227 0.0045 0.0004 -0.0034
O40 0.0189 0.0361 0.0212 0.0085 0.0031 0.0027
O43 0.0263 0.0299 0.0459 0.0169 0.0092 0.0028
Na3 0.0188 0.0302 0.0258 0.0109 0.0062 0.0047
O8 0.055 0.077 0.0267 0.0261 -0.0018 0.0027
C9 0.0166 0.029 0.0221 0.0128 0.0067 -0.0024
C10 0.0256 0.0165 0.029 0.004 0.0067 -0.0004
C11 0.0237 0.0165 0.031 0.0038 0.0062 -0.0006
C17 0.0226 0.0194 0.033 0.0006 0.0079 0.0004
C19 0.025 0.024 0.041 0.0079 0.0082 0.0037
C20 0.0217 0.022 0.042 0.0087 0.0097 0.001
C24 0.032 0.042 0.031 0.006 -0.0003 -0.003
C25 0.033 0.035 0.063 0.029 0.019 0.0119
C26 0.03 0.037 0.071 0.027 0.021 0.014
C27 0.031 0.034 0.057 0.023 0.012 0.0091
C28 0.027 0.04 0.055 0.023 0.017 0.0098
N3 0.061 0.084 0.068 0.03 -0.031 -0.028
C29 0.053 0.085 0.071 0.018 0.007 0.003
C32 0.078 0.077 0.069 0.03 -0.019 -0.023
N1 0.027 0.0153 0.0213 -0.0025 0.0042 -0.0003
C7 0.0239 0.0148 0.028 0.0032 0.0093 0.0005
C12 0.0248 0.0147 0.026 0.0004 0.0004 0.0012
C15 0.036 0.019 0.023 -0.0032 0.0087 0.0026
C18 0.035 0.02 0.029 0.001 0.0121 0.0025
N4 0.027 0.0153 0.0213 -0.0025 0.0042 -0.0003
C38 0.0239 0.0148 0.028 0.0032 0.0093 0.0005
C42 0.0248 0.0147 0.026 0.0004 0.0004 0.0012
C45 0.036 0.019 0.023 -0.0032 0.0087 0.0026
C48 0.035 0.02 0.029 0.001 0.0121 0.0025
O13 0.0263 0.0299 0.0459 0.0169 0.0092 0.0028
C40 0.0256 0.0165 0.029 0.004 0.0067 -0.0004
C41 0.0237 0.0165 0.031 0.0038 0.0062 -0.0006
C47 0.0226 0.0194 0.033 0.0006 0.0079 0.0004
C49 0.025 0.024 0.041 0.0079 0.0082 0.0037
C50 0.0217 0.022 0.042 0.0087 0.0097 0.001
C53 0.033 0.035 0.063 0.029 0.019 0.0119
C54 0.03 0.037 0.071 0.027 0.021 0.014
C55 0.031 0.034 0.057 0.023 0.012 0.0091
C56 0.027 0.04 0.055 0.023 0.017 0.0098
O18 0.0184 0.0357 0.0396 0.0125 0.0067 0.007
O19 0.055 0.077 0.0267 0.0261 -0.0018 0.0027
C58 0.0166 0.029 0.0221 0.0128 0.0067 -0.0024
C60 0.032 0.042 0.031 0.006 -0.0003 -0.003
N6 0.061 0.084 0.068 0.03 -0.031 -0.028
C61 0.053 0.085 0.071 0.018 0.007 0.003
C64 0.078 0.077 0.069 0.03 -0.019 -0.023
Na28 0.0221 0.0334 0.0292 0.0126 0.0066 0.0012
N5 0.0248 0.0166 0.024 0.001 0.0054 -0.0009
C33 0.0149 0.0147 0.0144 0.0054 0.0063 -0.0016
C34 0.0144 0.0174 0.0169 0.0023 0.0021 -0.0013
C35 0.0193 0.022 0.0221 0.0024 -0.0013 0.0025
C36 0.022 0.0186 0.0226 0.0001 -0.0031 -0.0014
C37 0.0219 0.015 0.0222 -0.0013 0.0008 -0.0031
C39 0.0211 0.0188 0.021 0.0014 0.0002 0.0016
C43 0.0258 0.0121 0.0237 -0.0001 0.0017 -0.0005
C44 0.026 0.02 0.031 -0.001 0.0016 0.0078
C46 0.026 0.0155 0.028 0.0007 0.0057 -0.0032
C51 0.029 0.027 0.033 -0.0006 0.0086 -0.0096
C52 0.031 0.023 0.035 -0.0071 -0.0002 -0.0092
O20 0.0322 0.024 0.0319 0.0055 0.0043 0.0016
C59 0.039 0.025 0.043 -0.0069 0.001 -0.0002
C63 0.093 0.09 0.048 0.038 -0.023 -0.026
O14 0.0364 0.047 0.076 0.0326 0.028 0.0171
C62 0.064 0.072 0.07 0.022 -0.005 -0.019
C57 0.0174 0.0197 0.0189 0.0062 0.008 0.0004
loop_
_geom_bond_atom_site_label_1
_geom_bond_atom_site_label_2
_geom_bond_site_symmetry_1
_geom_bond_site_symmetry_2
Na4 O4 1_555 1_555
O4 C3 1_555 1_555
Na10 O4 1_555 1_555
O37 Na4 1_555 1_555
O41 Na4 1_555 1_555
O45 Na4 1_555 1_555
O47 Na4 1_555 1_555
O4 Na18 1_555 1_555
Na10 O47 1_555 1_555
Na18 O30 1_555 1_555
Na18 O37 1_555 1_555
C30 H25 1_555 1_555
H26 C30 1_555 1_555
H27 C30 1_555 1_555
Na10 O2 1_555 1_555
Na2 O2 1_555 1_555
O23 C1 1_555 1_555
O2 C1 1_555 1_555
O3 Na10 1_555 1_555
H1 O47 1_555 1_555
H2 O47 1_555 1_555
C1 C2 1_555 1_555
C2 C4 1_555 1_555
C4 H4 1_555 1_555
C6 C5 1_555 1_555
C8 C2 1_555 1_555
H6 C8 1_555 1_555
C13 C6 1_555 1_555
C14 C4 1_555 1_555
H7 C14 1_555 1_555
C16 N2 1_555 1_555
C22 C16 1_555 1_555
H11 C22 1_555 1_555
H12 C23 1_555 1_555
H29 C31 1_555 1_555
Na12 O23 1_555 1_555
Na22 O23 1_555 1_555
O26 Na10 1_555 1_555
O28 Na10 1_555 1_555
O34 Na2 1_555 1_555
O40 Na2 1_555 1_555
Na2 O3 1_555 1_555
O2 Na12 1_555 1_555
C5 C8 1_555 1_555
C6 C14 1_555 1_555
C13 C16 1_555 1_555
C21 C22 1_555 1_555
Na12 O28 1_555 1_555
Na12 O34 1_555 1_555
Na3 O41 1_555 1_555
O37 C9 1_555 1_555
O41 C9 1_555 1_555
O43 Na3 1_555 1_555
O8 Na3 1_555 1_555
C9 C24 1_555 1_555
C10 C11 1_555 1_555
C17 C11 1_555 1_555
C19 O43 1_555 1_555
C20 C19 1_555 1_555
C24 H15 1_555 1_555
H16 C24 1_555 1_555
H17 C24 1_555 1_555
C25 C17 1_555 1_555
H18 C25 1_555 1_555
C26 C20 1_555 1_555
C27 C20 1_555 1_555
H20 C27 1_555 1_555
C28 C17 1_555 1_555
H21 C28 1_555 1_555
N3 C29 1_555 1_555
C29 H22 1_555 1_555
H24 C29 1_555 1_555
C32 O8 1_555 1_555
O26 Na3 1_555 1_555
C25 C26 1_555 1_555
C27 C28 1_555 1_555
N3 C32 1_555 1_555
N1 H3 1_555 1_555
C7 N1 1_555 1_555
C12 N1 1_555 1_555
C15 C12 1_555 1_555
H8 C15 1_555 1_555
C18 C7 1_555 1_555
H9 C18 1_555 1_555
C15 C18 1_555 1_555
N4 H31 1_555 1_555
C38 N4 1_555 1_555
C45 C42 1_555 1_555
H36 C45 1_555 1_555
C48 C38 1_555 1_555
H37 C48 1_555 1_555
N4 C42 1_555 1_555
C45 C48 1_555 1_555
O13 C49 1_555 1_555
C40 C41 1_555 1_555
C47 C41 1_555 1_555
C49 C50 1_555 1_555
C50 C54 1_555 1_555
C53 C47 1_555 1_555
H40 C53 1_555 1_555
C54 C53 1_555 1_555
C55 C50 1_555 1_555
H42 C55 1_555 1_555
C56 C47 1_555 1_555
H43 C56 1_555 1_555
Na22 O13 1_555 1_555
O40 C58 1_555 1_555
O18 Na22 1_555 1_555
O19 Na22 1_555 1_555
C58 O18 1_555 1_555
C60 C58 1_555 1_555
H49 C60 1_555 1_555
H50 C60 1_555 1_555
H51 C60 1_555 1_555
N6 C61 1_555 1_555
C61 H52 1_555 1_555
H54 C61 1_555 1_555
C64 O19 1_555 1_555
Na28 O40 1_555 1_555
C55 C56 1_555 1_555
O18 Na28 1_555 1_555
N6 C64 1_555 1_555
O26 C33 1_555 1_555
O28 C33 1_555 1_555
C33 C34 1_555 1_555
C34 C35 1_555 1_555
C35 H32 1_555 1_555
C37 C36 1_555 1_555
C39 C34 1_555 1_555
H34 C39 1_555 1_555
C44 C35 1_555 1_555
H35 C44 1_555 1_555
C46 N5 1_555 1_555
C52 C46 1_555 1_555
H39 C52 1_555 1_555
Na18 O28 1_555 1_555
O30 Na12 1_555 1_555
O20 Na12 1_555 1_555
H44 O20 1_555 1_555
H45 O20 1_555 1_555
H46 C59 1_555 1_555
H59 C63 1_555 1_555
Na28 O20 1_555 1_555
C36 C39 1_555 1_555
C37 C43 1_555 1_555
C37 C44 1_555 1_555
C43 C46 1_555 1_555
C51 C52 1_555 1_555
Na28 O34 1_555 1_555
C62 H55 1_555 1_555
H56 C62 1_555 1_555
H57 C62 1_555 1_555
O14 Na28 1_555 1_555
O34 C57 1_555 1_555

#END
