
###############################################################################
#
# This file contains modified crystal structure data generated from the
# MOF subset of the Cambridge Structural Database (CSD) v543 
# hosted by the Cambridge Crystallographic Data Centre (CCDC).
#
# This work is licensed under the Creative Commons
# Attribution-NonCommercial-ShareAlike 4.0 International License.
# To view a copy of this license, visit
# http://creativecommons.org/licenses/by-nc-sa/4.0/
# or send a letter to
# Creative Commons, PO Box 1866, Mountain View, CA 94042, USA.
#
# CIF created using the CSD Python API on 29 September 2022
# The structure has been converted into the P1 space group
# The structure has a 3D framework
# The original CSD entry DOMROP is in the monoclinic crystal system
# The framework has been calculated to contain at least 10.0% void space
# The void calculation uses a probe of radius 1.32A, grid spacing 0.4
#
###############################################################################

data_DOMROP
_chemical_formula_moiety         '(C192 H128 Co8 N32 O30)n'
_symmetry_cell_setting           triclinic
_symmetry_space_group_name_H-M   'P 1'
_symmetry_Int_Tables_number      1
_space_group_name_Hall           'P 1'
loop_
_symmetry_equiv_pos_site_id
_symmetry_equiv_pos_as_xyz
1 x,y,z
_cell_length_a                   12.180(2)
_cell_length_b                   15.657(3)
_cell_length_c                   30.406(6)
_cell_angle_alpha                90
_cell_angle_beta                 95.32(3)
_cell_angle_gamma                90
_cell_volume                     5773.52
loop_
_atom_site_label
_atom_site_type_symbol
_atom_site_fract_x
_atom_site_fract_y
_atom_site_fract_z
N6 N 0.1096(7) 0.1055(5) 0.1846(3)
C41 C 0.1883(8) 0.0552(5) 0.1757(3)
H26 H 0.2560 0.0795 0.1714
C46 C 0.0204(8) 0.0667(5) 0.1920(3)
Co7 Co 0.11704(6) 0.24474(5) 0.18655(3)
O5 O 0.1477(4) 0.2398(3) 0.25785(14)
O6 O 0.0155(3) 0.2419(3) 0.13128(15)
N2 N 0.1208(4) 0.3829(3) 0.18881(16)
C17 C 0.0459(6) 0.2415(4) 0.2612(2)
C18 C 0.0050(5) 0.2359(5) 0.3061(2)
C20 C 0.0366(5) 0.4320(4) 0.1725(2)
C23 C 0.1282(6) 0.5600(5) 0.1918(3)
C29 C 0.2082(5) 0.4263(5) 0.2071(2)
H14 H 0.2683 0.3951 0.2194
C30 C 0.0778(6) 0.2384(5) 0.3442(2)
H15 H 0.1529 0.2446 0.3417
C31 C 0.0382(6) 0.5179(5) 0.1735(3)
C33 C 0.2149(6) 0.5118(5) 0.2091(3)
H18 H 0.2783 0.5379 0.2221
C40 C 0.0413(5) 0.2321(5) 0.3850(2)
H25 H 0.0920 0.2333 0.4099
C42 C 0.1328(9) 0.6512(6) 0.1970(3)
H27 H 0.1882 0.6753 0.2162
N7 N 0.0634(10) 0.6992(6) 0.1761(3)
C44 C 0.1788(8) 0.9688(5) 0.1724(3)
H29 H 0.2407 0.9383 0.1659
C45 C 0.0884 0.9253 0.1776
C47 C 0.0138(8) 0.9739(5) 0.1913(3)
N8 N 0.0471(9) 0.7891(5) 0.1893(3)
C48 C 0.0933 0.8276 0.1713
H32 H 0.1381 0.8042 0.1513
Co4 Co 0.16009(6) 0.29303(5) 0.05510(3)
O10 O 0.2801(3) 0.2394(3) 0.17629(14)
N3 N 0.1845(4) 0.1554(3) 0.05474(17)
C21 C 0.2851(6) 0.1229(4) 0.0598(3)
H8 H 0.3448 0.1601 0.0632
C28 C 0.1000(5) 0.1005(4) 0.0497(2)
H13 H 0.0287 0.1221 0.0454
C32 C 0.1139(6) 0.0151(4) 0.0505(2)
C34 C 0.3048(6) 0.0376(5) 0.0600(3)
H19 H 0.3771 0.0177 0.0629
H30 H 0.9589 0.0984 0.1979
O1 O 0.9958(3) 0.2819(3) 0.06111(14)
O2 O 0.2625(3) 0.3029(3) 0.11085(14)
O4 O 0.6340(3) 0.2084(3) 0.48399(13)
O7 O 0.8023(4) 0.1962(3) 0.51412(15)
O8 O 0.9788(4) 0.2473(3) 0.22759(15)
N1 N 0.1457(4) 0.4301(3) 0.05816(16)
C1 C 0.3201(5) 0.2707(4) 0.1428(2)
C2 C 0.1307(5) 0.6090(4) 0.0578(2)
C3 C 0.9582(5) 0.2644(4) 0.0975(2)
C4 C 0.4885(4) 0.2853(4) 0.1037(2)
H1 H 0.4426 0.2969 0.0783
C5 C 0.1160(6) 0.7010(4) 0.0563(2)
H2 H 0.0450 0.7234 0.0544
C6 C 0.6051(5) 0.2831(4) 0.1019(2)
N4 N 0.1972(5) 0.7514(4) 0.0573(2)
C7 C 0.8340(5) 0.2712(4) 0.0990(2)
C8 C 0.6736(5) 0.2635(4) 0.1410(2)
C9 C 0.7771(5) 0.2083(4) 0.4356(2)
N5 N 0.1618(5) 0.8359(4) 0.0559(2)
C10 C 0.7352(5) 0.2032(4) 0.4804(2)
C11 C 0.8517(5) 0.2222(4) 0.3514(2)
C12 C 0.7888(5) 0.2578(4) 0.1386(2)
H3 H 0.8346 0.2449 0.1639
C13 C 0.8862(6) 0.2155(4) 0.4316(2)
H4 H 0.9349 0.2151 0.4571
C14 C 0.4435(5) 0.2707(4) 0.1427(2)
C15 C 0.8948(5) 0.2276(5) 0.3097(2)
H5 H 0.8466 0.2254 0.2841
C16 C 0.9286(5) 0.2238(4) 0.3904(2)
C19 C 0.7642(5) 0.2924(4) 0.0607(2)
H6 H 0.7949 0.3023 0.0343
H7 H 0.9733 0.4052 0.1598
C22 C 0.6535(5) 0.2984(5) 0.0618(2)
H9 H 0.6091 0.3126 0.0363
C24 C 0.0391(6) 0.5556(4) 0.0549(3)
C25 C 0.0487(5) 0.4697(4) 0.0554(2)
C26 C 0.5112(5) 0.2533(5) 0.1809(2)
H12 H 0.4802 0.2436 0.2073
C27 C 0.2178(6) 0.9796(4) 0.0561(2)
H16 H 0.9772 0.5485 0.1615
H17 H 0.0525 0.9796 0.0473
C35 C 0.7024(5) 0.2096(5) 0.3973(2)
H20 H 0.6271 0.2070 0.4002
C36 C 0.6239(5) 0.2503(6) 0.1799(2)
H21 H 0.6681 0.2391 0.2059
C37 C 0.2315(5) 0.4791(4) 0.0617(3)
H22 H 0.3004 0.4530 0.0649
C38 C 0.2390(6) 0.8896(5) 0.0571(3)
H23 H 0.3115 0.8704 0.0587
C39 C 0.2287(6) 0.5660(5) 0.0612(3)
H24 H 0.2944 0.5965 0.0632
C43 C 0.7375(5) 0.2147(5) 0.3556(2)
H28 H 0.6870 0.2132 0.3307
H31 H 0.9519 0.9483 0.2013
Co5 Co 0.66009(6) 0.20697(5) 0.55510(3)
O12 O 0.3023(4) 0.3038(3) 0.01412(15)
O11 O 0.1340(3) 0.2916(3) 0.98399(13)
H10 H 0.9691 0.5799 0.0526
H11 H 0.9849 0.4369 0.0538
Co2 Co 0.61704(6) 0.25526(5) 0.68655(3)
O1_2 O 0.4958(3) 0.2181(3) 0.56111(14)
O5_2 O 0.6477(4) 0.2602(3) 0.75785(14)
O6_2 O 0.5155(3) 0.2581(3) 0.63128(15)
O8_2 O 0.4788(4) 0.2527(3) 0.72759(15)
N2_2 N 0.6208(4) 0.1171(3) 0.68881(16)
C3_2 C 0.4582(5) 0.2356(4) 0.5975(2)
C6_2 C 0.1051(5) 0.2169(4) 0.6019(2)
C7_2 C 0.3340(5) 0.2288(4) 0.5990(2)
C8_2 C 0.1736(5) 0.2365(4) 0.6410(2)
C9_2 C 0.2771(5) 0.2917(4) 0.9356(2)
C10_2 C 0.2352(5) 0.2968(4) 0.9804(2)
C11_2 C 0.3517(5) 0.2778(4) 0.8514(2)
C12_2 C 0.2888(5) 0.2422(4) 0.6386(2)
H3_2 H 0.3346 0.2551 0.6639
C13_2 C 0.3862(6) 0.2845(4) 0.9316(2)
H4_2 H 0.4349 0.2849 0.9571
C15_2 C 0.3948(5) 0.2724(5) 0.8097(2)
H5_2 H 0.3466 0.2746 0.7841
C16_2 C 0.4286(5) 0.2762(4) 0.8904(2)
C17_2 C 0.5459(6) 0.2585(4) 0.7612(2)
C18_2 C 0.5050(5) 0.2641(5) 0.8061(2)
C19_2 C 0.2642(5) 0.2076(4) 0.5607(2)
H6_2 H 0.2949 0.1977 0.5343
C20_2 C 0.5366(5) 0.0680(4) 0.6725(2)
H7_2 H 0.4733 0.0948 0.6598
C22_2 C 0.1535(5) 0.2016(5) 0.5618(2)
H9_2 H 0.1091 0.1874 0.5363
C26_2 C 0.0112(5) 0.2467(5) 0.6809(2)
C29_2 C 0.7082(5) 0.0737(5) 0.7071(2)
H14_2 H 0.7683 0.1049 0.7194
C30_2 C 0.5778(6) 0.2616(5) 0.8442(2)
H15_2 H 0.6529 0.2554 0.8417
C35_2 C 0.2024(5) 0.2904(5) 0.8973(2)
H20_2 H 0.1271 0.2930 0.9002
C36_2 C 0.1239(5) 0.2497(6) 0.6799(2)
H21_2 H 0.1681 0.2609 0.7059
C40_2 C 0.5413(5) 0.2679(5) 0.8850(2)
H25_2 H 0.5920 0.2667 0.9099
C43_2 C 0.2375(5) 0.2853(5) 0.8556(2)
H28_2 H 0.1870 0.2868 0.8307
O10_2 O 0.7801(3) 0.2606(3) 0.67629(14)
N10 N 0.6096(7) 0.3945(5) 0.6846(3)
C23_2 C 0.6282(6) 0.9400(5) 0.6918(3)
C31_2 C 0.5382(6) 0.9821(5) 0.6735(3)
H16_2 H 0.4772 0.9515 0.6615
C33_2 C 0.7149(6) 0.9882(5) 0.7091(3)
H18_2 H 0.7783 0.9621 0.7221
C41_2 C 0.6883(8) 0.4448(5) 0.6757(3)
H26_2 H 0.7560 0.4205 0.6714
C42_2 C 0.6328(9) 0.8488(6) 0.6970(3)
H27_2 H 0.6882 0.8247 0.7162
N7_2 N 0.5634(10) 0.8008(6) 0.6761(3)
C44_2 C 0.6788(8) 0.5312(5) 0.6724(3)
H29_2 H 0.7407 0.5617 0.6659
C45_2 C 0.5884 0.5747 0.6776
C46_2 C 0.5204(8) 0.4333(5) 0.6920(3)
H30_2 H 0.4589 0.4016 0.6979
C47_2 C 0.5138(8) 0.5261(5) 0.6913(3)
H31_2 H 0.4519 0.5517 0.7013
N8_2 N 0.5471(9) 0.7109(5) 0.6893(3)
C48_2 C 0.5933 0.6724 0.6713
H32_2 H 0.6381 0.6958 0.6513
O2_2 O 0.7625(3) 0.1971(3) 0.61085(14)
N1_2 N 0.6457(4) 0.0699(3) 0.55816(16)
C1_2 C 0.8201(5) 0.2293(4) 0.6428(2)
C4_2 C 0.9885(4) 0.2147(4) 0.6037(2)
H1_2 H 0.9426 0.2031 0.5783
C14_2 C 0.9435(5) 0.2293(4) 0.6427(2)
C25_2 C 0.5487(5) 0.0303(4) 0.5554(2)
H11_2 H 0.4849 0.0631 0.5538
H12_2 H 0.9802 0.2564 0.7073
C37_2 C 0.7315(5) 0.0209(4) 0.5617(3)
H22_2 H 0.8004 0.0470 0.5649
N9 N 0.6845(4) 0.3446(3) 0.55474(17)
C2_2 C 0.6307(5) 0.8910(4) 0.5578(2)
C5_2 C 0.6160(6) 0.7990(4) 0.5563(2)
H2_2 H 0.5450 0.7766 0.5544
N4_2 N 0.6972(5) 0.7486(4) 0.5573(2)
N5_2 N 0.6618(5) 0.6641(4) 0.5559(2)
C21_2 C 0.7851(6) 0.3771(4) 0.5598(3)
H8_2 H 0.8448 0.3399 0.5632
C24_2 C 0.5391(6) 0.9444(4) 0.5549(3)
H10_2 H 0.4691 0.9201 0.5526
C27_2 C 0.7178(6) 0.5204(4) 0.5561(2)
C28_2 C 0.6000(5) 0.3995(4) 0.5497(2)
H13_2 H 0.5287 0.3779 0.5454
C32_2 C 0.6139(6) 0.4849(4) 0.5505(2)
H17_2 H 0.5525 0.5204 0.5473
C34_2 C 0.8048(6) 0.4624(5) 0.5600(3)
H19_2 H 0.8771 0.4823 0.5629
C38_2 C 0.7390(6) 0.6104(5) 0.5571(3)
H23_2 H 0.8115 0.6296 0.5587
C39_2 C 0.7287(6) 0.9340(5) 0.5612(3)
H24_2 H 0.7944 0.9035 0.5632
N3_2 N 0.3155(4) 0.6554(3) 0.44526(17)
C2_3 C 0.3693(5) 0.1090(4) 0.4422(2)
C5_3 C 0.3840(6) 0.2010(4) 0.4437(2)
H2_3 H 0.4550 0.2234 0.4456
N4_3 N 0.3028(5) 0.2514(4) 0.4427(2)
N5_3 N 0.3382(5) 0.3359(4) 0.4441(2)
C21_3 C 0.2149(6) 0.6229(4) 0.4402(3)
H8_3 H 0.1552 0.6601 0.4368
C24_3 C 0.4609(6) 0.0556(4) 0.4451(3)
H10_3 H 0.5309 0.0799 0.4474
C27_3 C 0.2822(6) 0.4796(4) 0.4439(2)
C28_3 C 0.4000(5) 0.6005(4) 0.4503(2)
H13_3 H 0.4713 0.6221 0.4546
C32_3 C 0.3861(6) 0.5151(4) 0.4495(2)
H17_3 H 0.4475 0.4796 0.4527
C34_3 C 0.1952(6) 0.5376(5) 0.4400(3)
H19_3 H 0.1229 0.5177 0.4371
C38_3 C 0.2610(6) 0.3896(5) 0.4429(3)
H23_3 H 0.1885 0.3704 0.4413
C39_3 C 0.2713(6) 0.0660(5) 0.4388(3)
H24_3 H 0.2056 0.0965 0.4368
Co3 Co 0.33991(6) 0.79303(5) 0.44490(3)
O2_3 O 0.2375(3) 0.8029(3) 0.38915(14)
O3 O 0.2199(3) 0.7394(3) 0.32371(14)
N1_3 N 0.3543(4) 0.9301(3) 0.44184(16)
C1_3 C 0.1799(5) 0.7707(4) 0.3572(2)
C4_3 C 0.0115(4) 0.7853(4) 0.3963(2)
H1_3 H 0.0574 0.7969 0.4217
C14_3 C 0.0565(5) 0.7707(4) 0.3573(2)
C25_3 C 0.4513(5) 0.9697(4) 0.4446(2)
H11_3 H 0.5151 0.9369 0.4462
H12_3 H 0.0198 0.7436 0.2927
C37_3 C 0.2685(5) 0.9791(4) 0.4383(3)
H22_3 H 0.1996 0.9530 0.4351
Co6 Co 0.38296(6) 0.74474(5) 0.31345(3)
O9 O 0.5042(3) 0.7819(3) 0.43889(14)
O11_2 O 0.3660(3) 0.7916(3) 0.51601(13)
O12_2 O 0.1977(4) 0.8038(3) 0.48588(15)
N6_2 N 0.3904(7) 0.6055(5) 0.3154(3)
C23_3 C 0.3718(6) 0.0600(5) 0.3082(3)
C31_3 C 0.4618(6) 0.0179(5) 0.3265(3)
H16_3 H 0.5228 0.0485 0.3385
C33_3 C 0.2851(6) 0.0118(5) 0.2909(3)
H18_3 H 0.2217 0.0379 0.2779
C41_3 C 0.3117(8) 0.5552(5) 0.3243(3)
H26_3 H 0.2440 0.5795 0.3286
C42_3 C 0.3672(9) 0.1512(6) 0.3030(3)
H27_3 H 0.3118 0.1753 0.2838
N7_3 N 0.4366(10) 0.1992(6) 0.3239(3)
C44_3 C 0.3212(8) 0.4688(5) 0.3276(3)
H29_3 H 0.2593 0.4383 0.3341
C45_3 C 0.4116 0.4253 0.3224
C46_3 C 0.4796(8) 0.5667(5) 0.3080(3)
H30_3 H 0.5411 0.5984 0.3021
C47_3 C 0.4862(8) 0.4739(5) 0.3087(3)
H31_3 H 0.5481 0.4483 0.2987
N8_3 N 0.4529(9) 0.2891(5) 0.3107(3)
C48_3 C 0.4067 0.3276 0.3287
H32_3 H 0.3619 0.3042 0.3487
O4_2 O 0.8660(3) 0.7084(3) 0.01601(13)
O5_3 O 0.3523(4) 0.7398(3) 0.24215(14)
O6_3 O 0.4845(3) 0.7419(3) 0.36872(15)
O8_3 O 0.5212(4) 0.7473(3) 0.27241(15)
N2_3 N 0.3792(4) 0.8829(3) 0.31119(16)
C3_3 C 0.5418(5) 0.7644(4) 0.4025(2)
C6_3 C 0.8949(5) 0.7831(4) 0.3981(2)
C7_3 C 0.6660(5) 0.7712(4) 0.4010(2)
C8_3 C 0.8264(5) 0.7635(4) 0.3590(2)
C9_3 C 0.7229(5) 0.7083(4) 0.0644(2)
C10_3 C 0.7648(5) 0.7032(4) 0.0196(2)
C11_3 C 0.6483(5) 0.7222(4) 0.1486(2)
C12_3 C 0.7112(5) 0.7578(4) 0.3614(2)
H3_3 H 0.6654 0.7449 0.3361
C13_3 C 0.6138(6) 0.7155(4) 0.0684(2)
H4_3 H 0.5651 0.7151 0.0429
C15_3 C 0.6052(5) 0.7276(5) 0.1903(2)
H5_3 H 0.6534 0.7254 0.2159
C16_3 C 0.5714(5) 0.7238(4) 0.1096(2)
C17_3 C 0.4541(6) 0.7415(4) 0.2388(2)
C18_3 C 0.4950(5) 0.7359(5) 0.1939(2)
C19_3 C 0.7358(5) 0.7924(4) 0.4393(2)
H6_3 H 0.7051 0.8023 0.4657
C20_3 C 0.4634(5) 0.9320(4) 0.3275(2)
H7_3 H 0.5267 0.9052 0.3402
C22_3 C 0.8465(5) 0.7984(5) 0.4382(2)
H9_3 H 0.8909 0.8126 0.4637
C26_3 C 0.9888(5) 0.7533(5) 0.3191(2)
C29_3 C 0.2918(5) 0.9263(5) 0.2929(2)
H14_3 H 0.2317 0.8951 0.2806
C30_3 C 0.4222(6) 0.7384(5) 0.1558(2)
H15_3 H 0.3471 0.7446 0.1583
C35_3 C 0.7976(5) 0.7096(5) 0.1027(2)
H20_3 H 0.8729 0.7070 0.0998
C36_3 C 0.8761(5) 0.7503(6) 0.3201(2)
H21_3 H 0.8319 0.7391 0.2941
C40_3 C 0.4587(5) 0.7321(5) 0.1150(2)
H25_3 H 0.4080 0.7333 0.0901
C43_3 C 0.7625(5) 0.7147(5) 0.1444(2)
H28_3 H 0.8130 0.7132 0.1693
O7_2 O 0.6977(4) 0.6962(3) 0.98588(15)
Co5_2 Co 0.83991(6) 0.70697(5) 0.94490(3)
H10_4 H 0.0309 0.4201 0.9474
H11_4 H 0.0151 0.5631 0.9462
O9_2 O 0.0042(3) 0.7181(3) 0.93889(14)
O2_4 O 0.7375(3) 0.6971(3) 0.88915(14)
O3_2 O 0.7199(3) 0.7606(3) 0.82371(14)
O8_4 O 0.0212(4) 0.7527(3) 0.77241(15)
N1_4 N 0.8543(4) 0.5699(3) 0.94184(16)
C1_4 C 0.6799(5) 0.7293(4) 0.8572(2)
C2_4 C 0.8693(5) 0.3910(4) 0.9422(2)
C3_4 C 0.0418(5) 0.7356(4) 0.9025(2)
C4_4 C 0.5115(4) 0.7147(4) 0.8963(2)
H1_4 H 0.5574 0.7031 0.9217
C5_4 C 0.8840(6) 0.2990(4) 0.9437(2)
H2_4 H 0.9550 0.2766 0.9456
C6_4 C 0.3949(5) 0.7169(4) 0.8981(2)
N4_4 N 0.8028(5) 0.2486(4) 0.9427(2)
C7_4 C 0.1660(5) 0.7288(4) 0.9010(2)
C8_4 C 0.3264(5) 0.7365(4) 0.8590(2)
C9_4 C 0.2229(5) 0.7917(4) 0.5644(2)
N5_4 N 0.8382(5) 0.1641(4) 0.9441(2)
C10_4 C 0.2648(5) 0.7968(4) 0.5196(2)
C11_4 C 0.1483(5) 0.7778(4) 0.6486(2)
C12_4 C 0.2112(5) 0.7422(4) 0.8614(2)
H3_4 H 0.1654 0.7551 0.8361
C13_4 C 0.1138(6) 0.7845(4) 0.5684(2)
H4_4 H 0.0651 0.7849 0.5429
C14_4 C 0.5565(5) 0.7293(4) 0.8573(2)
C15_4 C 0.1052(5) 0.7724(5) 0.6903(2)
H5_4 H 0.1534 0.7746 0.7159
C16_4 C 0.0714(5) 0.7762(4) 0.6096(2)
C19_4 C 0.2358(5) 0.7076(4) 0.9393(2)
H6_4 H 0.2051 0.6977 0.9657
H7_4 H 0.0267 0.5948 0.8402
C22_4 C 0.3465(5) 0.7016(5) 0.9382(2)
H9_4 H 0.3909 0.6874 0.9637
C24_4 C 0.9609(6) 0.4444(4) 0.9451(3)
C25_4 C 0.9513(5) 0.5303(4) 0.9446(2)
C26_4 C 0.4888(5) 0.7467(5) 0.8191(2)
H12_4 H 0.5198 0.7564 0.7927
C27_4 C 0.7822(6) 0.0204(4) 0.9439(2)
H16_4 H 0.0228 0.4515 0.8385
H17_4 H 0.9475 0.0204 0.9527
C35_4 C 0.2976(5) 0.7904(5) 0.6027(2)
H20_4 H 0.3729 0.7930 0.5998
C36_4 C 0.3761(5) 0.7497(6) 0.8201(2)
H21_4 H 0.3319 0.7609 0.7941
C37_4 C 0.7685(5) 0.5209(4) 0.9383(3)
H22_4 H 0.6996 0.5470 0.9351
C38_4 C 0.7610(6) 0.1104(5) 0.9429(3)
H23_4 H 0.6885 0.1296 0.9413
C39_4 C 0.7713(6) 0.4340(5) 0.9388(3)
H24_4 H 0.7056 0.4035 0.9368
C43_4 C 0.2625(5) 0.7853(5) 0.6444(2)
H28_4 H 0.3130 0.7868 0.6693
H31_4 H 0.0481 0.0517 0.7987
Co6_2 Co 0.88296(6) 0.75526(5) 0.81345(3)
N9_2 N 0.8155(4) 0.8446(3) 0.94526(17)
C21_4 C 0.7149(6) 0.8771(4) 0.9402(3)
H8_4 H 0.6552 0.8399 0.9368
C28_4 C 0.9000(5) 0.8995(4) 0.9503(2)
H13_4 H 0.9713 0.8779 0.9546
C32_4 C 0.8861(6) 0.9849(4) 0.9495(2)
C34_4 C 0.6952(6) 0.9624(5) 0.9400(3)
H19_4 H 0.6229 0.9823 0.9371
H30_4 H 0.0411 0.9016 0.8021
O5_4 O 0.8523(4) 0.7602(3) 0.74215(14)
O6_4 O 0.9845(3) 0.7581(3) 0.86872(15)
N2_4 N 0.8792(4) 0.6171(3) 0.81119(16)
C17_4 C 0.9541(6) 0.7585(4) 0.7388(2)
C18_4 C 0.9950(5) 0.7641(5) 0.6939(2)
C20_4 C 0.9634(5) 0.5680(4) 0.8275(2)
C23_4 C 0.8718(6) 0.4400(5) 0.8082(3)
C29_4 C 0.7918(5) 0.5737(5) 0.7929(2)
H14_4 H 0.7317 0.6049 0.7806
C30_4 C 0.9222(6) 0.7616(5) 0.6558(2)
H15_4 H 0.8471 0.7554 0.6583
C31_4 C 0.9618(6) 0.4821(5) 0.8265(3)
C33_4 C 0.7851(6) 0.4882(5) 0.7909(3)
H18_4 H 0.7217 0.4621 0.7779
C40_4 C 0.9587(5) 0.7679(5) 0.6150(2)
H25_4 H 0.9080 0.7667 0.5901
C42_4 C 0.8672(9) 0.3488(6) 0.8030(3)
H27_4 H 0.8118 0.3247 0.7838
N7_4 N 0.9366(10) 0.3008(6) 0.8239(3)
C44_4 C 0.8212(8) 0.0312(5) 0.8276(3)
H29_4 H 0.7593 0.0617 0.8341
C45_4 C 0.9116 0.0747 0.8224
C47_4 C 0.9862(8) 0.0261(5) 0.8087(3)
N8_4 N 0.9529(9) 0.2109(5) 0.8107(3)
C48_4 C 0.9067 0.1724 0.8287
H32_4 H 0.8619 0.1958 0.8487
N10_2 N 0.8904(7) 0.8945(5) 0.8154(3)
C41_4 C 0.8117(8) 0.9448(5) 0.8243(3)
H26_4 H 0.7440 0.9205 0.8286
C46_4 C 0.9796(8) 0.9333(5) 0.8080(3)
loop_
_geom_bond_atom_site_label_1
_geom_bond_atom_site_label_2
_geom_bond_site_symmetry_1
_geom_bond_site_symmetry_2
N6 C41 1_555 1_555
C41 H26 1_555 1_555
C46 N6 1_555 1_555
Co7 N6 1_555 1_555
Co7 O5 1_555 1_555
O5 C17 1_555 1_555
O6 Co7 1_555 1_555
N2 Co7 1_555 1_555
C20 N2 1_555 1_555
C23 C31 1_555 1_555
C29 N2 1_555 1_555
H14 C29 1_555 1_555
C30 C18 1_555 1_555
H15 C30 1_555 1_555
C31 C20 1_555 1_555
C33 C23 1_555 1_555
H18 C33 1_555 1_555
H25 C40 1_555 1_555
C42 C23 1_555 1_555
H27 C42 1_555 1_555
N7 C42 1_555 1_555
H29 C44 1_555 1_555
C45 C44 1_555 1_555
C47 C45 1_555 1_555
N8 N7 1_555 1_555
C48 C45 1_555 1_555
H32 C48 1_555 1_555
O10 Co7 1_555 1_555
C17 C18 1_555 1_555
C29 C33 1_555 1_555
C30 C40 1_555 1_555
N8 C48 1_555 1_555
N3 C21 1_555 1_555
C21 H8 1_555 1_555
C28 N3 1_555 1_555
H13 C28 1_555 1_555
C32 C28 1_555 1_555
C34 C21 1_555 1_555
H19 C34 1_555 1_555
Co4 N3 1_555 1_555
Co4 O2 1_555 1_555
O1 C3 1_555 1_555
O2 C1 1_555 1_555
O10 C1 1_555 1_555
O4 C10 1_555 1_555
O7 C10 1_555 1_555
N1 Co4 1_555 1_555
C1 C14 1_555 1_555
C2 C5 1_555 1_555
C4 H1 1_555 1_555
C5 H2 1_555 1_555
C6 C4 1_555 1_555
N4 C5 1_555 1_555
C7 C3 1_555 1_555
C8 C6 1_555 1_555
C9 C10 1_555 1_555
N5 N4 1_555 1_555
C11 C15 1_555 1_555
C12 C7 1_555 1_555
H3 C12 1_555 1_555
C13 C9 1_555 1_555
H4 C13 1_555 1_555
C14 C4 1_555 1_555
C15 H5 1_555 1_555
C16 C11 1_555 1_555
C19 C7 1_555 1_555
H6 C19 1_555 1_555
C22 C6 1_555 1_555
H9 C22 1_555 1_555
C24 C2 1_555 1_555
C25 N1 1_555 1_555
C26 C14 1_555 1_555
H12 C26 1_555 1_555
C35 C9 1_555 1_555
H20 C35 1_555 1_555
C36 C8 1_555 1_555
H21 C36 1_555 1_555
C37 N1 1_555 1_555
H22 C37 1_555 1_555
C38 N5 1_555 1_555
H23 C38 1_555 1_555
C39 C2 1_555 1_555
H24 C39 1_555 1_555
C43 C11 1_555 1_555
H28 C43 1_555 1_555
Co5 O4 1_555 1_555
O12 Co4 1_555 1_555
O7 Co5 1_555 1_555
C8 C12 1_555 1_555
C13 C16 1_555 1_555
C19 C22 1_555 1_555
C24 C25 1_555 1_555
C26 C36 1_555 1_555
C27 C38 1_555 1_555
C35 C43 1_555 1_555
C37 C39 1_555 1_555
Co2 O5_2 1_555 1_555
O1_2 C3_2 1_555 1_555
O11 C10_2 1_555 1_555
O5_2 C17_2 1_555 1_555
O6_2 Co2 1_555 1_555
O8_2 Co2 1_555 1_555
N2_2 Co2 1_555 1_555
C3_2 O6_2 1_555 1_555
C7_2 C3_2 1_555 1_555
C8_2 C6_2 1_555 1_555
C9_2 C10_2 1_555 1_555
C11_2 C15_2 1_555 1_555
C12_2 C7_2 1_555 1_555
H3_2 C12_2 1_555 1_555
C13_2 C9_2 1_555 1_555
H4_2 C13_2 1_555 1_555
C15_2 H5_2 1_555 1_555
C16_2 C11_2 1_555 1_555
C17_2 O8_2 1_555 1_555
C18_2 C15_2 1_555 1_555
C19_2 C7_2 1_555 1_555
H6_2 C19_2 1_555 1_555
C20_2 N2_2 1_555 1_555
H7_2 C20_2 1_555 1_555
C22_2 C6_2 1_555 1_555
H9_2 C22_2 1_555 1_555
C29_2 N2_2 1_555 1_555
H14_2 C29_2 1_555 1_555
C30_2 C18_2 1_555 1_555
H15_2 C30_2 1_555 1_555
C35_2 C9_2 1_555 1_555
H20_2 C35_2 1_555 1_555
C36_2 C8_2 1_555 1_555
H21_2 C36_2 1_555 1_555
C40_2 C16_2 1_555 1_555
H25_2 C40_2 1_555 1_555
C43_2 C11_2 1_555 1_555
H28_2 C43_2 1_555 1_555
Co5 O1_2 1_555 1_555
O10_2 Co2 1_555 1_555
N10 Co2 1_555 1_555
C8_2 C12_2 1_555 1_555
C13_2 C16_2 1_555 1_555
C17_2 C18_2 1_555 1_555
C19_2 C22_2 1_555 1_555
C26_2 C36_2 1_555 1_555
C30_2 C40_2 1_555 1_555
C35_2 C43_2 1_555 1_555
N10 C41_2 1_555 1_555
C23_2 C31_2 1_555 1_555
H16_2 C31_2 1_555 1_555
C33_2 C23_2 1_555 1_555
H18_2 C33_2 1_555 1_555
C41_2 H26_2 1_555 1_555
C42_2 C23_2 1_555 1_555
H27_2 C42_2 1_555 1_555
N7_2 C42_2 1_555 1_555
C44_2 C41_2 1_555 1_555
H29_2 C44_2 1_555 1_555
C45_2 C44_2 1_555 1_555
C46_2 N10 1_555 1_555
H30_2 C46_2 1_555 1_555
C47_2 C45_2 1_555 1_555
H31_2 C47_2 1_555 1_555
N8_2 N7_2 1_555 1_555
C48_2 C45_2 1_555 1_555
H32_2 C48_2 1_555 1_555
C46_2 C47_2 1_555 1_555
N8_2 C48_2 1_555 1_555
Co5 O2_2 1_555 1_555
O2_2 C1_2 1_555 1_555
O10_2 C1_2 1_555 1_555
N1_2 Co5 1_555 1_555
C1_2 C14_2 1_555 1_555
C4_2 H1_2 1_555 1_555
C14_2 C4_2 1_555 1_555
C25_2 N1_2 1_555 1_555
H11_2 C25_2 1_555 1_555
C37_2 N1_2 1_555 1_555
H22_2 C37_2 1_555 1_555
N9 Co5 1_555 1_555
N9 C21_2 1_555 1_555
C2_2 C5_2 1_555 1_555
C5_2 H2_2 1_555 1_555
N4_2 C5_2 1_555 1_555
N5_2 N4_2 1_555 1_555
C21_2 H8_2 1_555 1_555
C24_2 C2_2 1_555 1_555
H10_2 C24_2 1_555 1_555
C27_2 C32_2 1_555 1_555
C28_2 N9 1_555 1_555
H13_2 C28_2 1_555 1_555
C32_2 C28_2 1_555 1_555
H17_2 C32_2 1_555 1_555
C34_2 C21_2 1_555 1_555
H19_2 C34_2 1_555 1_555
C38_2 N5_2 1_555 1_555
H23_2 C38_2 1_555 1_555
C39_2 C2_2 1_555 1_555
H24_2 C39_2 1_555 1_555
C27_2 C34_2 1_555 1_555
C27_2 C38_2 1_555 1_555
N3_2 C21_3 1_555 1_555
C2_3 C5_3 1_555 1_555
C5_3 H2_3 1_555 1_555
N4_3 C5_3 1_555 1_555
N5_3 N4_3 1_555 1_555
C21_3 H8_3 1_555 1_555
C24_3 C2_3 1_555 1_555
H10_3 C24_3 1_555 1_555
C27_3 C32_3 1_555 1_555
C28_3 N3_2 1_555 1_555
H13_3 C28_3 1_555 1_555
C32_3 C28_3 1_555 1_555
H17_3 C32_3 1_555 1_555
C34_3 C21_3 1_555 1_555
H19_3 C34_3 1_555 1_555
C38_3 N5_3 1_555 1_555
H23_3 C38_3 1_555 1_555
C39_3 C2_3 1_555 1_555
H24_3 C39_3 1_555 1_555
Co3 N3_2 1_555 1_555
C27_3 C34_3 1_555 1_555
C27_3 C38_3 1_555 1_555
Co3 O2_3 1_555 1_555
O2_3 C1_3 1_555 1_555
O3 C1_3 1_555 1_555
N1_3 Co3 1_555 1_555
C1_3 C14_3 1_555 1_555
C4_3 H1_3 1_555 1_555
C14_3 C4_3 1_555 1_555
C25_3 N1_3 1_555 1_555
H11_3 C25_3 1_555 1_555
C37_3 N1_3 1_555 1_555
H22_3 C37_3 1_555 1_555
Co6 O3 1_555 1_555
O9 Co3 1_555 1_555
O11_2 Co3 1_555 1_555
O12_2 Co3 1_555 1_555
N6_2 C41_3 1_555 1_555
C23_3 C31_3 1_555 1_555
H16_3 C31_3 1_555 1_555
C33_3 C23_3 1_555 1_555
H18_3 C33_3 1_555 1_555
C41_3 H26_3 1_555 1_555
C42_3 C23_3 1_555 1_555
H27_3 C42_3 1_555 1_555
N7_3 C42_3 1_555 1_555
C44_3 C41_3 1_555 1_555
H29_3 C44_3 1_555 1_555
C45_3 C44_3 1_555 1_555
C46_3 N6_2 1_555 1_555
H30_3 C46_3 1_555 1_555
C47_3 C45_3 1_555 1_555
H31_3 C47_3 1_555 1_555
N8_3 N7_3 1_555 1_555
C48_3 C45_3 1_555 1_555
H32_3 C48_3 1_555 1_555
Co6 N6_2 1_555 1_555
C46_3 C47_3 1_555 1_555
N8_3 C48_3 1_555 1_555
Co6 O5_3 1_555 1_555
O9 C3_3 1_555 1_555
O4_2 C10_3 1_555 1_555
O5_3 C17_3 1_555 1_555
O6_3 Co6 1_555 1_555
O8_3 Co6 1_555 1_555
N2_3 Co6 1_555 1_555
C3_3 O6_3 1_555 1_555
C7_3 C3_3 1_555 1_555
C8_3 C6_3 1_555 1_555
C9_3 C10_3 1_555 1_555
C11_3 C15_3 1_555 1_555
C12_3 C7_3 1_555 1_555
H3_3 C12_3 1_555 1_555
C13_3 C9_3 1_555 1_555
H4_3 C13_3 1_555 1_555
C15_3 H5_3 1_555 1_555
C16_3 C11_3 1_555 1_555
C17_3 O8_3 1_555 1_555
C18_3 C15_3 1_555 1_555
C19_3 C7_3 1_555 1_555
H6_3 C19_3 1_555 1_555
C20_3 N2_3 1_555 1_555
H7_3 C20_3 1_555 1_555
C22_3 C6_3 1_555 1_555
H9_3 C22_3 1_555 1_555
C29_3 N2_3 1_555 1_555
H14_3 C29_3 1_555 1_555
C30_3 C18_3 1_555 1_555
H15_3 C30_3 1_555 1_555
C35_3 C9_3 1_555 1_555
H20_3 C35_3 1_555 1_555
C36_3 C8_3 1_555 1_555
H21_3 C36_3 1_555 1_555
C40_3 C16_3 1_555 1_555
H25_3 C40_3 1_555 1_555
C43_3 C11_3 1_555 1_555
H28_3 C43_3 1_555 1_555
C8_3 C12_3 1_555 1_555
C13_3 C16_3 1_555 1_555
C17_3 C18_3 1_555 1_555
C19_3 C22_3 1_555 1_555
C26_3 C36_3 1_555 1_555
C30_3 C40_3 1_555 1_555
C35_3 C43_3 1_555 1_555
O7_2 Co5_2 1_555 1_555
Co5_2 O2_4 1_555 1_555
O9_2 C3_4 1_555 1_555
O2_4 C1_4 1_555 1_555
O3_2 C1_4 1_555 1_555
O11_2 C10_4 1_555 1_555
O12_2 C10_4 1_555 1_555
N1_4 Co5_2 1_555 1_555
C1_4 C14_4 1_555 1_555
C2_4 C5_4 1_555 1_555
C4_4 H1_4 1_555 1_555
C5_4 H2_4 1_555 1_555
C6_4 C4_4 1_555 1_555
N4_4 C5_4 1_555 1_555
C7_4 C3_4 1_555 1_555
C8_4 C6_4 1_555 1_555
C9_4 C10_4 1_555 1_555
N5_4 N4_4 1_555 1_555
C11_4 C15_4 1_555 1_555
C12_4 C7_4 1_555 1_555
H3_4 C12_4 1_555 1_555
C13_4 C9_4 1_555 1_555
H4_4 C13_4 1_555 1_555
C14_4 C4_4 1_555 1_555
C15_4 H5_4 1_555 1_555
C16_4 C11_4 1_555 1_555
C19_4 C7_4 1_555 1_555
H6_4 C19_4 1_555 1_555
C22_4 C6_4 1_555 1_555
H9_4 C22_4 1_555 1_555
C24_4 C2_4 1_555 1_555
C25_4 N1_4 1_555 1_555
C26_4 C14_4 1_555 1_555
H12_4 C26_4 1_555 1_555
C35_4 C9_4 1_555 1_555
H20_4 C35_4 1_555 1_555
C36_4 C8_4 1_555 1_555
H21_4 C36_4 1_555 1_555
C37_4 N1_4 1_555 1_555
H22_4 C37_4 1_555 1_555
C38_4 N5_4 1_555 1_555
H23_4 C38_4 1_555 1_555
C39_4 C2_4 1_555 1_555
H24_4 C39_4 1_555 1_555
C43_4 C11_4 1_555 1_555
H28_4 C43_4 1_555 1_555
Co6_2 O3_2 1_555 1_555
N9_2 Co5_2 1_555 1_555
C8_4 C12_4 1_555 1_555
C13_4 C16_4 1_555 1_555
C19_4 C22_4 1_555 1_555
C24_4 C25_4 1_555 1_555
C26_4 C36_4 1_555 1_555
C27_4 C38_4 1_555 1_555
C35_4 C43_4 1_555 1_555
C37_4 C39_4 1_555 1_555
N9_2 C21_4 1_555 1_555
C21_4 H8_4 1_555 1_555
C28_4 N9_2 1_555 1_555
H13_4 C28_4 1_555 1_555
C32_4 C28_4 1_555 1_555
C34_4 C21_4 1_555 1_555
H19_4 C34_4 1_555 1_555
Co6_2 O5_4 1_555 1_555
O5_4 C17_4 1_555 1_555
O6_4 Co6_2 1_555 1_555
N2_4 Co6_2 1_555 1_555
C20_4 N2_4 1_555 1_555
C23_4 C31_4 1_555 1_555
C29_4 N2_4 1_555 1_555
H14_4 C29_4 1_555 1_555
C30_4 C18_4 1_555 1_555
H15_4 C30_4 1_555 1_555
C31_4 C20_4 1_555 1_555
C33_4 C23_4 1_555 1_555
H18_4 C33_4 1_555 1_555
H25_4 C40_4 1_555 1_555
C42_4 C23_4 1_555 1_555
H27_4 C42_4 1_555 1_555
N7_4 C42_4 1_555 1_555
H29_4 C44_4 1_555 1_555
C45_4 C44_4 1_555 1_555
C47_4 C45_4 1_555 1_555
N8_4 N7_4 1_555 1_555
C48_4 C45_4 1_555 1_555
H32_4 C48_4 1_555 1_555
N10_2 Co6_2 1_555 1_555
C17_4 C18_4 1_555 1_555
C29_4 C33_4 1_555 1_555
C30_4 C40_4 1_555 1_555
N8_4 C48_4 1_555 1_555
N10_2 C41_4 1_555 1_555
C41_4 H26_4 1_555 1_555
C46_4 N10_2 1_555 1_555

#END
