
###############################################################################
#
# This file contains modified crystal structure data generated from the
# MOF subset of the Cambridge Structural Database (CSD) v543 
# hosted by the Cambridge Crystallographic Data Centre (CCDC).
#
# This work is licensed under the Creative Commons
# Attribution-NonCommercial-ShareAlike 4.0 International License.
# To view a copy of this license, visit
# http://creativecommons.org/licenses/by-nc-sa/4.0/
# or send a letter to
# Creative Commons, PO Box 1866, Mountain View, CA 94042, USA.
#
# CIF created using the CSD Python API on 29 September 2022
# The structure has been converted into the P1 space group
# The structure has a 3D framework
# The original CSD entry DONKIC is in the trigonal crystal system
# The original CSD entry DONKIC is in a Sohncke space group
# The framework has been calculated to contain at least 10.0% void space
# The void calculation uses a probe of radius 1.32A, grid spacing 0.4
# H atom positions have been added when not included in the experimental data
#
###############################################################################

data_DONKIC
_chemical_formula_moiety         '(C162 H210 Co12 N6 O102)n'
_symmetry_cell_setting           triclinic
_symmetry_space_group_name_H-M   'P 1'
_symmetry_Int_Tables_number      1
_space_group_name_Hall           'P 1'
loop_
_symmetry_equiv_pos_site_id
_symmetry_equiv_pos_as_xyz
1 x,y,z
_cell_length_a                   16.7190(4)
_cell_length_b                   16.7190(4)
_cell_length_c                   24.5980(7)
_cell_angle_alpha                90
_cell_angle_beta                 90
_cell_angle_gamma                120
_cell_volume                     5954.58
loop_
_atom_site_label
_atom_site_type_symbol
_atom_site_fract_x
_atom_site_fract_y
_atom_site_fract_z
C1 C 0.0456(5) 0.8284(6) 0.5595(3)
H1 H 0.0998 0.8317 0.5440
H2 H 0.0513 0.8323 0.5984
H3 H 0.0388 0.8786 0.5461
H42 H 0.0287 0.6400 0.3864
C45 C 0.0016(4) 0.6804(4) 0.4578(2)
C50 C 0.0920(5) 0.6095(5) 0.4688(3)
H46 H 0.1336 0.6496 0.4408
H47 H 0.0473 0.5519 0.4518
C51 C 0.1459(5) 0.5911(5) 0.5108(2)
O27 O 0.0459(3) 0.6517(4) 0.49289(16)
O28 O 0.2031(3) 0.5690(3) 0.49148(15)
O29 O 0.1340(5) 0.5963(6) 0.5593(2)
Co4 Co 0.25482(5) 0.49182(6) 0.53138(3)
O31 O 0.3072(4) 0.4189(4) 0.57129(19)
O32 O 0.2323(4) 0.5349(4) 0.60964(17)
O34 O 0.1208(4) 0.3826(4) 0.5341(2)
Co6 Co 0.27614(7) 0.59212(5) 0.41612(3)
O36 O 0.3872(3) 0.6035(3) 0.53648(16)
O39 O 0.2744(4) 0.4736(3) 0.44944(14)
H63 H 0.165692 0.514197 0.61401
H64 H 0.25186 0.507095 0.6387
H67 H 0.296238 0.418925 0.610964
H68 H 0.275907 0.354307 0.55774
H69 H 0.0964769 0.365161 0.496526
H70 H 0.119807 0.329039 0.552223
Co2 Co 0.49182(6) 0.25482(5) 0.46862(3)
H15 H 0.6400 0.0287 0.6136
C18 C 0.6804(4) 0.0016(4) 0.5422(2)
C23 C 0.6095(5) 0.0920(5) 0.5312(3)
H19 H 0.6496 0.1336 0.5592
H20 H 0.5519 0.0473 0.5482
C24 C 0.5911(5) 0.1459(5) 0.4892(2)
O10 O 0.6517(4) 0.0459(3) 0.50711(16)
O11 O 0.5690(3) 0.2031(3) 0.50852(15)
O12 O 0.5963(6) 0.1340(5) 0.4407(2)
O14 O 0.4189(4) 0.3072(4) 0.42871(19)
O15 O 0.5349(4) 0.2323(4) 0.39036(17)
O17 O 0.3826(4) 0.1208(4) 0.4659(2)
C28 C 0.8284(6) 0.0456(5) 0.4405(3)
H28 H 0.8317 0.0998 0.4560
H29 H 0.8323 0.0513 0.4016
H30 H 0.8786 0.0388 0.4539
Co8 Co 0.59212(5) 0.27614(7) 0.58388(3)
O35 O 0.6035(3) 0.3872(3) 0.46352(16)
O40 O 0.4736(3) 0.2744(4) 0.55056(14)
H55 H 0.365161 0.0964769 0.503474
H56 H 0.329039 0.119807 0.447777
H57 H 0.514197 0.165692 0.38599
H58 H 0.507095 0.25186 0.3613
H59 H 0.418925 0.296238 0.389036
H60 H 0.354307 0.275907 0.44226
Co1 Co 0.40788(5) 0.68402(5) 0.74945(3)
C2 C 0.9606(4) 0.7366(4) 0.5436(2)
H4 H 0.9687 0.6873 0.5594
C3 C 0.8721(4) 0.7254(4) 0.5662(2)
C4 C 0.8642(4) 0.7915(4) 0.59514(19)
H5 H 0.9177 0.8477 0.6012
C5 C 0.7821(4) 0.7801(4) 0.6160(2)
C6 C 0.7027(4) 0.6953(3) 0.60845(19)
C7 C 0.7055(4) 0.6255(4) 0.5783(2)
H6 H 0.6519 0.5692 0.5725
C8 C 0.7881(4) 0.6416(4) 0.5575(2)
C9 C 0.7300(5) 0.5298(4) 0.4871(2)
H7 H 0.7620 0.5334 0.4536
H8 H 0.6958 0.5620 0.4815
C10 C 0.6628(5) 0.4298(4) 0.4997(2)
C11 C 0.5435(4) 0.5958(4) 0.6317(2)
H9 H 0.5599 0.5504 0.6435
H10 H 0.5200 0.5804 0.5948
C12 C 0.4689(4) 0.5908(3) 0.66817(19)
C13 C 0.7778(4) 0.8584(4) 0.6457(2)
H11 H 0.7327 0.8301 0.6751
C14 C 0.8678(5) 0.9285(5) 0.6713(3)
H12 H 0.8599 0.9751 0.6892
H13 H 0.9142 0.9567 0.6436
H14 H 0.8867 0.8984 0.6973
C15 C 0.7420(3) 0.9067(3) 0.6078(2)
C16 C 0.6981(4) 0.9505(4) 0.6293(2)
C17 C 0.6681(4) 0.9986(4) 0.5977(2)
C19 C 0.7241(4) 0.9567(4) 0.5182(2)
C20 C 0.7537(4) 0.9111(3) 0.5519(2)
H16 H 0.7830 0.8818 0.5364
C21 C 0.5981(4) 0.8817(4) 0.7018(2)
H17 H 0.5827 0.8237 0.6843
H18 H 0.5528 0.8986 0.6908
C22 C 0.5965(5) 0.8708(4) 0.7636(2)
C25 C 0.3226(5) 0.7580(5) 0.6712(3)
H21 H 0.2805 0.7428 0.6995
C26 C 0.3676(9) 0.8120(10) 0.5803(4)
H22 H 0.3477 0.8372 0.5517
H23 H 0.3640 0.7558 0.5681
H24 H 0.4302 0.8557 0.5900
C27 C 0.2329(8) 0.8098(8) 0.6222(4)
H25 H 0.2343 0.8357 0.5872
H26 H 0.2376 0.8522 0.6501
H27 H 0.1759 0.7526 0.6264
N1 N 0.3091(5) 0.7932(5) 0.6268(2)
O1 O 0.7962(3) 0.5751(3) 0.52905(17)
O3 O 0.6726(3) 0.3988(3) 0.54392(17)
O4 O 0.6238(2) 0.6847(2) 0.63200(16)
O5 O 0.4907(3) 0.6524(3) 0.70354(16)
O6 O 0.3906(3) 0.5227(3) 0.66184(16)
O7 O 0.6870(3) 0.9509(3) 0.68565(14)
O8 O 0.6558(4) 0.9307(4) 0.79056(18)
O9 O 0.5264(3) 0.8008(3) 0.78277(14)
O13 O 0.3878(4) 0.7437(4) 0.67772(18)
O16 O 0.2819(4) 0.5618(3) 0.7320(2)
C29 C 0.7366(4) 0.9606(4) 0.4564(2)
H31 H 0.6873 0.9687 0.4406
C30 C 0.7254(4) 0.8721(4) 0.4338(2)
C31 C 0.7915(4) 0.8642(4) 0.40486(19)
H32 H 0.8477 0.9177 0.3988
C32 C 0.7801(4) 0.7821(4) 0.3840(2)
C33 C 0.6953(3) 0.7027(4) 0.39155(19)
C34 C 0.6255(4) 0.7055(4) 0.4217(2)
H33 H 0.5692 0.6519 0.4275
C35 C 0.6416(4) 0.7881(4) 0.4425(2)
C36 C 0.5298(4) 0.7300(5) 0.5129(2)
H34 H 0.5334 0.7620 0.5464
H35 H 0.5620 0.6958 0.5185
C37 C 0.4298(4) 0.6628(5) 0.5003(2)
C38 C 0.5958(4) 0.5435(4) 0.3683(2)
H36 H 0.5504 0.5599 0.3565
H37 H 0.5804 0.5200 0.4052
C39 C 0.5908(3) 0.4689(4) 0.33183(19)
C40 C 0.8584(4) 0.7778(4) 0.3543(2)
H38 H 0.8301 0.7327 0.3249
C41 C 0.9285(5) 0.8678(5) 0.3287(3)
H39 H 0.9751 0.8599 0.3108
H40 H 0.9567 0.9142 0.3564
H41 H 0.8984 0.8867 0.3027
C42 C 0.9067(3) 0.7420(3) 0.3922(2)
C43 C 0.9505(4) 0.6981(4) 0.3707(2)
C44 C 0.9986(4) 0.6681(4) 0.4023(2)
C46 C 0.9567(4) 0.7241(4) 0.4818(2)
C47 C 0.9111(3) 0.7537(4) 0.4481(2)
H43 H 0.8818 0.7830 0.4636
C48 C 0.8817(4) 0.5981(4) 0.2982(2)
H44 H 0.8237 0.5827 0.3157
H45 H 0.8986 0.5528 0.3092
C49 C 0.8708(4) 0.5965(5) 0.2364(2)
O18 O 0.5751(3) 0.7962(3) 0.47095(17)
O20 O 0.3988(3) 0.6726(3) 0.45608(17)
O21 O 0.6847(2) 0.6238(2) 0.36800(16)
O22 O 0.6524(3) 0.4907(3) 0.29646(16)
O23 O 0.5227(3) 0.3906(3) 0.33816(16)
O24 O 0.9509(3) 0.6870(3) 0.31435(14)
O25 O 0.9307(4) 0.6558(4) 0.20944(18)
O26 O 0.8008(3) 0.5264(3) 0.21723(14)
Co3 Co 0.68402(5) 0.40788(5) 0.25055(3)
C52 C 0.7580(5) 0.3226(5) 0.3288(3)
H48 H 0.7428 0.2805 0.3005
C53 C 0.8120(10) 0.3676(9) 0.4197(4)
H49 H 0.8372 0.3477 0.4483
H50 H 0.7558 0.3640 0.4319
H51 H 0.8557 0.4302 0.4100
C54 C 0.8098(8) 0.2329(8) 0.3778(4)
H52 H 0.8357 0.2343 0.4128
H53 H 0.8522 0.2376 0.3499
H54 H 0.7526 0.1759 0.3736
N2 N 0.7932(5) 0.3091(5) 0.3732(2)
O30 O 0.7437(4) 0.3878(4) 0.32228(18)
O33 O 0.5618(3) 0.2819(4) 0.2680(2)
Co10 Co 0.76300(8) 0.50818(6) 0.13529(3)
Co11 Co 0.50818(6) 0.76300(8) 0.86471(3)
O37 O 0.7262(4) 0.3274(3) 0.21059(17)
O38 O 0.3274(3) 0.7262(4) 0.78941(17)
O41 O 0.6341(4) 0.4310(3) 0.17519(15)
O42 O 0.4310(3) 0.6341(4) 0.82481(15)
H61 H 0.285783 0.507297 0.744353
H62 H 0.230524 0.563415 0.751255
H65 H 0.507297 0.285783 0.255647
H66 H 0.563415 0.230524 0.248745
C1_2 C 0.1716(6) 0.2172(8) 0.8928(3)
H1_2 H 0.1683 0.2681 0.8773
H2_2 H 0.1677 0.2190 0.9317
H3_2 H 0.1214 0.1602 0.8794
C2_2 C 0.2634(4) 0.2240(6) 0.8769(2)
H4_2 H 0.3127 0.2814 0.8927
C3_2 C 0.2746(4) 0.1467(6) 0.8995(2)
C4_2 C 0.2085(4) 0.0727(6) 0.92847(19)
H5_2 H 0.1523 0.0700 0.9345
C5_2 C 0.2199(4) 0.0020(6) 0.9493(2)
C6_2 C 0.3047(3) 0.0074(5) 0.94178(19)
C7_2 C 0.3745(4) 0.0800(6) 0.9116(2)
H6_2 H 0.4308 0.0827 0.9058
C8_2 C 0.3584(4) 0.1465(6) 0.8908(2)
C9_2 C 0.4702(4) 0.2002(6) 0.8204(2)
H7_2 H 0.4666 0.2286 0.7869
H8_2 H 0.4380 0.1338 0.8148
C10_2 C 0.5702(4) 0.2330(6) 0.8330(2)
H9_2 H 0.4496 0.0095 0.9768
O1_2 O 0.4249(3) 0.2211(4) 0.86238(17)
O2 O 0.6128(3) 0.2163(4) 0.79685(16)
O3_2 O 0.6012(3) 0.2738(4) 0.87725(17)
C38_2 C 0.4565(4) 0.0523(6) 0.7016(2)
H37_2 H 0.4800 0.0604 0.7385
C39_2 C 0.5311(4) 0.1219(5) 0.66516(19)
C40_2 C 0.2222(4) 0.0806(6) 0.6876(2)
H38_2 H 0.2673 0.0974 0.6582
C41_2 C 0.1322(5) 0.0607(7) 0.6620(3)
H39_2 H 0.1401 0.1152 0.6441
H40_2 H 0.0858 0.0425 0.6897
H41_2 H 0.1133 0.0117 0.6360
C42_2 C 0.2580(3) 0.1647(4) 0.7255(2)
C43_2 C 0.3019(4) 0.2524(6) 0.7040(2)
C44_2 C 0.3319(4) 0.3305(6) 0.7356(2)
H42_2 H 0.3600 0.3887 0.7197
C45_2 C 0.3196(4) 0.3212(6) 0.7911(2)
C46_2 C 0.2759(4) 0.2326(6) 0.8151(2)
C47_2 C 0.2463(4) 0.1574(5) 0.7814(2)
H43_2 H 0.2170 0.0988 0.7969
C48_2 C 0.4019(4) 0.2836(6) 0.6315(2)
H44_2 H 0.4173 0.2410 0.6490
H45_2 H 0.4472 0.3458 0.6425
C49_2 C 0.4035(5) 0.2743(6) 0.5697(2)
C50_2 C 0.3905(5) 0.4825(7) 0.8021(3)
H46_2 H 0.3504 0.4840 0.7741
H47_2 H 0.4481 0.4954 0.7851
C51_2 C 0.4089(5) 0.5548(7) 0.8441(2)
O21_2 O 0.3762(2) 0.0609(3) 0.70133(16)
O22_2 O 0.5093(3) 0.1617(4) 0.62979(16)
O23_2 O 0.6094(3) 0.1321(4) 0.67149(16)
O24_2 O 0.3130(3) 0.2639(4) 0.64768(14)
O25_2 O 0.3442(4) 0.2749(6) 0.54277(18)
O27_2 O 0.3483(4) 0.3942(5) 0.82622(16)
O29_2 O 0.4037(6) 0.5377(8) 0.8926(2)
C52_2 C 0.6774(5) 0.4354(7) 0.6621(3)
H48_2 H 0.7195 0.4623 0.6338
C53_2 C 0.6324(9) 0.4444(13) 0.7530(4)
H49_2 H 0.6523 0.4895 0.7816
H50_2 H 0.6360 0.3918 0.7652
H51_2 H 0.5698 0.4255 0.7433
C54_2 C 0.7671(8) 0.5769(11) 0.7111(4)
H52_2 H 0.7657 0.6014 0.7461
H53_2 H 0.7624 0.6146 0.6832
H54_2 H 0.8241 0.5767 0.7069
N2_2 N 0.6909(5) 0.4841(7) 0.7065(2)
O30_2 O 0.6122(4) 0.3559(6) 0.65561(18)
O31_2 O 0.5811(4) 0.8883(6) 0.90462(19)
O32_2 O 0.4651(4) 0.6974(6) 0.94297(17)
O33_2 O 0.7181(4) 0.2799(5) 0.6013(2)
O34_2 O 0.6174(4) 0.7382(6) 0.8674(2)
Co7 Co 0.72386(7) 0.31598(9) 0.91722(3)
Co9 Co 0.74518(5) 0.23700(8) 0.80195(3)
O36_2 O 0.3965(3) 0.7837(4) 0.86981(16)
H63_2 H 0.485803 0.651495 0.947344
H64_2 H 0.492905 0.744766 0.972033
H65_2 H 0.714217 0.221514 0.588981
H66_2 H 0.769476 0.332891 0.582078
H67_2 H 0.581075 0.877314 0.944297
H68_2 H 0.645693 0.921599 0.891073
H69_2 H 0.634839 0.731316 0.829859
H70_2 H 0.670961 0.790769 0.885556
Co1_2 Co 0.31598(5) 0.72386(7) 0.08278(3)
C12_2 C 0.4092(3) 0.8781(5) 0.00150(19)
H11_2 H 0.1699 0.9026 0.0084
C14_2 C 0.0715(5) 0.9393(7) 0.0046(3)
H12_2 H 0.0249 0.8848 0.0225
H14_2 H 0.1016 0.9883 0.0306
C21_2 C 0.1183(4) 0.7164(6) 0.0351(2)
H17_2 H 0.1763 0.7590 0.0176
H18_2 H 0.1014 0.6542 0.0241
C22_2 C 0.1292(4) 0.7257(6) 0.0969(2)
C25_2 C 0.2420(5) 0.5646(7) 0.0045(3)
H21_2 H 0.2572 0.5377 0.0328
O5_2 O 0.3476(3) 0.8383(4) 0.03687(16)
O7_2 O 0.0491(3) 0.7361(4) 0.01898(14)
O8_2 O 0.0693(4) 0.7251(6) 0.12389(18)
O9_2 O 0.1992(3) 0.7256(4) 0.11610(14)
O13_2 O 0.2563(4) 0.6441(6) 0.01105(18)
O16_2 O 0.4382(3) 0.7201(5) 0.0653(2)
Co11_2 Co 0.23700(8) 0.74518(10) 0.19805(3)
O38_2 O 0.2738(4) 0.6012(5) 0.12275(17)
O42_2 O 0.3659(4) 0.7969(5) 0.15815(15)
H61_2 H 0.492703 0.778486 0.0776861
H62_2 H 0.436585 0.667109 0.0845882
C11_2 C 0.4042(4) 0.9477(6) 0.9650(2)
H10_2 H 0.4196 0.9396 0.9281
C13_2 C 0.1416(4) 0.9194(6) 0.9790(2)
H13_2 H 0.0433 0.9575 0.9769
C15_2 C 0.0933(3) 0.8353(4) 0.9411(2)
C16_2 C 0.0495(4) 0.7476(6) 0.9626(2)
C17_2 C 0.0014(4) 0.6695(6) 0.9310(2)
C19_2 C 0.0433(4) 0.7674(6) 0.8515(2)
C20_2 C 0.0889(3) 0.8426(5) 0.8852(2)
H16_2 H 0.1182 0.9012 0.8697
C26_2 C 0.1880(10) 0.5556(13) 0.9136(4)
H22_2 H 0.1628 0.5105 0.8850
H23_2 H 0.2442 0.6082 0.9014
H24_2 H 0.1443 0.5745 0.9233
C27_2 C 0.1902(8) 0.4231(11) 0.9555(4)
H25_2 H 0.1643 0.3986 0.9205
H26_2 H 0.1478 0.3854 0.9834
H27_2 H 0.2474 0.4233 0.9597
N1_2 N 0.2068(5) 0.5159(7) 0.9601(2)
O4_2 O 0.3153(2) 0.9391(3) 0.96533(16)
O6_2 O 0.4773(3) 0.8679(4) 0.99517(16)
C29_2 C 0.0394(4) 0.7760(6) 0.7897(2)
H31_2 H 0.0313 0.7186 0.7739
C30_2 C 0.1279(4) 0.8533(6) 0.7671(2)
C31_2 C 0.1358(4) 0.9273(6) 0.73819(19)
H32_2 H 0.0823 0.9300 0.7321
C32_2 C 0.2179(4) 0.9980(6) 0.7173(2)
C33_2 C 0.2973(4) 0.9926(5) 0.72488(19)
C34_2 C 0.2945(4) 0.9200(6) 0.7550(2)
H33_2 H 0.3481 0.9173 0.7608
C35_2 C 0.2119(4) 0.8535(6) 0.7758(2)
C36_2 C 0.2700(5) 0.7998(6) 0.8462(2)
H34_2 H 0.2380 0.7714 0.8797
H35_2 H 0.3042 0.8662 0.8518
C37_2 C 0.3372(5) 0.7670(6) 0.8336(2)
H36_2 H 0.4401 0.9905 0.6898
O18_2 O 0.2038(3) 0.7789(4) 0.80428(17)
H15_2 H 0.9713 0.6113 0.9469
C18_2 C 0.9984(4) 0.6788(6) 0.8755(2)
C23_2 C 0.9080(5) 0.5175(7) 0.8645(3)
H19_2 H 0.8664 0.5160 0.8925
H20_2 H 0.9527 0.5046 0.8815
C24_2 C 0.8541(5) 0.4452(7) 0.8225(2)
O10_2 O 0.9541(3) 0.6058(5) 0.84044(16)
O11_2 O 0.7969(3) 0.3659(4) 0.84185(15)
O12_2 O 0.8660(5) 0.4623(8) 0.7740(2)
O14_2 O 0.6928(4) 0.1117(6) 0.76204(19)
O15_2 O 0.7677(4) 0.3026(6) 0.72369(17)
O17_2 O 0.8792(4) 0.2618(6) 0.7992(2)
C28_2 C 0.9544(5) 0.7828(8) 0.7738(3)
H28_2 H 0.9002 0.7319 0.7893
H29_2 H 0.9487 0.7810 0.7349
H30_2 H 0.9612 0.8398 0.7872
O40_2 O 0.7256(4) 0.1992(5) 0.88390(14)
H55_2 H 0.903523 0.268684 0.836808
H56_2 H 0.880193 0.209231 0.78111
H57_2 H 0.834308 0.348505 0.719323
H58_2 H 0.74814 0.255234 0.694633
H59_2 H 0.703762 0.122686 0.722369
H60_2 H 0.724093 0.0784006 0.775593
C11_3 C 0.0523(6) 0.4565(4) 0.2984(2)
H10_3 H 0.0604 0.4800 0.2615
C12_3 C 0.1219(5) 0.5311(4) 0.33484(19)
C13_3 C 0.0806(6) 0.2222(4) 0.3124(2)
H11_3 H 0.0974 0.2673 0.3418
C14_3 C 0.0607(7) 0.1322(5) 0.3380(3)
H12_3 H 0.1152 0.1401 0.3559
H13_3 H 0.0425 0.0858 0.3103
H14_3 H 0.0117 0.1133 0.3640
C15_3 C 0.1647(4) 0.2580(3) 0.2745(2)
C16_3 C 0.2524(6) 0.3019(4) 0.2960(2)
C17_3 C 0.3305(6) 0.3319(4) 0.2644(2)
H15_3 H 0.3887 0.3600 0.2803
C18_3 C 0.3212(6) 0.3196(4) 0.2089(2)
C19_3 C 0.2326(6) 0.2759(4) 0.1849(2)
C20_3 C 0.1574(5) 0.2463(4) 0.2186(2)
H16_3 H 0.0988 0.2170 0.2031
C21_3 C 0.2836(6) 0.4019(4) 0.3685(2)
H17_3 H 0.2410 0.4173 0.3510
H18_3 H 0.3458 0.4472 0.3575
C22_3 C 0.2743(6) 0.4035(5) 0.4303(2)
C23_3 C 0.4825(7) 0.3905(5) 0.1979(3)
H19_3 H 0.4840 0.3504 0.2259
H20_3 H 0.4954 0.4481 0.2149
C24_3 C 0.5548(7) 0.4089(5) 0.1559(2)
C25_3 C 0.4354(7) 0.6774(5) 0.3379(3)
H21_3 H 0.4623 0.7195 0.3662
C26_3 C 0.4444(13) 0.6324(9) 0.2470(4)
H22_3 H 0.4895 0.6523 0.2184
H23_3 H 0.3918 0.6360 0.2348
H24_3 H 0.4255 0.5698 0.2567
C27_3 C 0.5769(11) 0.7671(8) 0.2889(4)
H25_3 H 0.6014 0.7657 0.2539
H26_3 H 0.6146 0.7624 0.3168
H27_3 H 0.5767 0.8241 0.2931
N1_3 N 0.4841(7) 0.6909(5) 0.2935(2)
O4_3 O 0.0609(3) 0.3762(2) 0.29867(16)
O5_3 O 0.1617(4) 0.5093(3) 0.37021(16)
O6_3 O 0.1321(4) 0.6094(3) 0.32851(16)
O7_3 O 0.2639(4) 0.3130(3) 0.35232(14)
O8_3 O 0.2749(6) 0.3442(4) 0.45723(18)
O10_3 O 0.3942(5) 0.3483(4) 0.17378(16)
O12_3 O 0.5377(8) 0.4037(6) 0.1074(2)
O13_3 O 0.3559(6) 0.6122(4) 0.34439(18)
O14_3 O 0.8883(6) 0.5811(4) 0.09538(19)
O15_3 O 0.6974(6) 0.4651(4) 0.05703(17)
O16_3 O 0.2799(5) 0.7181(4) 0.3987(2)
O17_3 O 0.7382(6) 0.6174(4) 0.1326(2)
C28_3 C 0.2172(8) 0.1716(6) 0.1072(3)
H28_3 H 0.2681 0.1683 0.1227
H29_3 H 0.2190 0.1677 0.0683
H30_3 H 0.1602 0.1214 0.1206
C29_3 C 0.2240(6) 0.2634(4) 0.1231(2)
H31_3 H 0.2814 0.3127 0.1073
C30_3 C 0.1467(6) 0.2746(4) 0.1005(2)
C31_3 C 0.0727(6) 0.2085(4) 0.07153(19)
H32_3 H 0.0700 0.1523 0.0655
C32_3 C 0.0020(6) 0.2199(4) 0.0507(2)
C33_3 C 0.0074(5) 0.3047(3) 0.05822(19)
C34_3 C 0.0800(6) 0.3745(4) 0.0884(2)
H33_3 H 0.0827 0.4308 0.0942
C35_3 C 0.1465(6) 0.3584(4) 0.1092(2)
C36_3 C 0.2002(6) 0.4702(4) 0.1796(2)
H34_3 H 0.2286 0.4666 0.2131
H35_3 H 0.1338 0.4380 0.1852
C37_3 C 0.2330(6) 0.5702(4) 0.1670(2)
H36_3 H 0.0095 0.4496 0.0232
O18_3 O 0.2211(4) 0.4249(3) 0.13762(17)
O19 O 0.2163(4) 0.6128(3) 0.20315(16)
O35_2 O 0.7837(4) 0.3965(3) 0.13019(16)
H55_3 H 0.731316 0.634839 0.170141
H56_3 H 0.790769 0.670961 0.114444
H57_3 H 0.651495 0.485803 0.0526565
H58_3 H 0.744766 0.492905 0.0279667
H59_3 H 0.877314 0.581075 0.0557026
H60_3 H 0.921599 0.645693 0.108927
H61_3 H 0.221514 0.714217 0.411019
H62_3 H 0.332891 0.769476 0.417922
C2_3 C 0.7760(6) 0.0394(4) 0.2103(2)
H4_3 H 0.7186 0.0313 0.2261
C3_3 C 0.8533(6) 0.1279(4) 0.2329(2)
C4_3 C 0.9273(6) 0.1358(4) 0.26181(19)
H5_3 H 0.9300 0.0823 0.2679
C5_3 C 0.9980(6) 0.2179(4) 0.2827(2)
C6_3 C 0.9926(5) 0.2973(4) 0.27512(19)
C7_3 C 0.9200(6) 0.2945(4) 0.2450(2)
H6_3 H 0.9173 0.3481 0.2392
C8_3 C 0.8535(6) 0.2119(4) 0.2242(2)
C9_3 C 0.7998(6) 0.2700(5) 0.1538(2)
H7_3 H 0.7714 0.2380 0.1203
H8_3 H 0.8662 0.3042 0.1482
C10_3 C 0.7670(6) 0.3372(5) 0.1664(2)
H9_3 H 0.9905 0.4401 0.3102
O1_3 O 0.7789(4) 0.2038(3) 0.19572(17)
C38_3 C 0.9477(6) 0.4042(4) 0.0350(2)
H37_3 H 0.9396 0.4196 0.0719
C40_3 C 0.9194(6) 0.1416(4) 0.0210(2)
H40_3 H 0.9575 0.0433 0.0231
C42_3 C 0.8353(4) 0.0933(3) 0.0589(2)
C43_3 C 0.7476(6) 0.0495(4) 0.0374(2)
C44_3 C 0.6695(6) 0.0014(4) 0.0690(2)
C46_3 C 0.7674(6) 0.0433(4) 0.1485(2)
C47_3 C 0.8426(5) 0.0889(3) 0.1148(2)
H43_3 H 0.9012 0.1182 0.1303
O21_3 O 0.9391(3) 0.3153(2) 0.03467(16)
O23_3 O 0.8679(4) 0.4773(3) 0.00483(16)
C53_3 C 0.5556(13) 0.1880(10) 0.0864(4)
H49_3 H 0.5105 0.1628 0.1150
H50_3 H 0.6082 0.2442 0.0986
H51_3 H 0.5745 0.1443 0.0767
C54_3 C 0.4231(11) 0.1902(8) 0.0445(4)
H52_3 H 0.3986 0.1643 0.0795
H53_3 H 0.3854 0.1478 0.0166
H54_3 H 0.4233 0.2474 0.0403
N2_3 N 0.5159(7) 0.2068(5) 0.0399(2)
C39_3 C 0.8781(5) 0.4092(3) 0.99850(19)
H38_3 H 0.9026 0.1699 0.9916
C41_3 C 0.9393(7) 0.0715(5) 0.9954(3)
H39_3 H 0.8848 0.0249 0.9775
H41_3 H 0.9883 0.1016 0.9694
C48_3 C 0.7164(6) 0.1183(4) 0.9649(2)
H44_3 H 0.7590 0.1763 0.9824
H45_3 H 0.6542 0.1014 0.9759
C49_3 C 0.7257(6) 0.1292(4) 0.9031(2)
O22_3 O 0.8383(4) 0.3476(3) 0.96313(16)
O24_3 O 0.7361(4) 0.0491(3) 0.98102(14)
O25_3 O 0.7251(6) 0.0693(4) 0.87611(18)
C52_3 C 0.5646(7) 0.2420(5) 0.9955(3)
H48_3 H 0.5377 0.2572 0.9672
O30_3 O 0.6441(6) 0.2563(4) 0.98895(18)
O33_3 O 0.7201(5) 0.4382(3) 0.9347(2)
H65_3 H 0.778486 0.492703 0.922314
H66_3 H 0.667109 0.436585 0.915412
C1_3 C 0.7828(8) 0.9544(5) 0.2262(3)
H1_3 H 0.7319 0.9002 0.2107
H2_3 H 0.7810 0.9487 0.2651
H3_3 H 0.8398 0.9612 0.2128
H42_3 H 0.6113 0.9713 0.0531
C45_3 C 0.6788(6) 0.9984(4) 0.1245(2)
C50_3 C 0.5175(7) 0.9080(5) 0.1355(3)
H46_3 H 0.5160 0.8664 0.1075
H47_3 H 0.5046 0.9527 0.1185
C51_3 C 0.4452(7) 0.8541(5) 0.1775(2)
O27_3 O 0.6058(5) 0.9541(3) 0.15956(16)
O29_3 O 0.4623(8) 0.8660(5) 0.2260(2)
O31_3 O 0.1117(6) 0.6928(4) 0.23796(19)
O32_3 O 0.3026(6) 0.7677(4) 0.27631(17)
O34_3 O 0.2618(6) 0.8792(4) 0.2008(2)
H63_3 H 0.348505 0.834308 0.280677
H64_3 H 0.255234 0.74814 0.305367
H67_3 H 0.122686 0.703762 0.277631
H68_3 H 0.0784006 0.724093 0.224407
H69_3 H 0.268684 0.903523 0.163192
H70_3 H 0.209231 0.880193 0.21889
loop_
_geom_bond_atom_site_label_1
_geom_bond_atom_site_label_2
_geom_bond_site_symmetry_1
_geom_bond_site_symmetry_2
C1 H1 1_555 1_555
H2 C1 1_555 1_555
H3 C1 1_555 1_555
C50 H46 1_555 1_555
H47 C50 1_555 1_555
C51 C50 1_555 1_555
O27 C45 1_555 1_555
O28 C51 1_555 1_555
O29 C51 1_555 1_555
Co4 O28 1_555 1_555
O31 Co4 1_555 1_555
O32 Co4 1_555 1_555
O34 Co4 1_555 1_555
Co6 O28 1_555 1_555
O36 Co4 1_555 1_555
O39 Co4 1_555 1_555
C50 O27 1_555 1_555
Co6 O39 1_555 1_555
O32 H63 1_555 1_555
O32 H64 1_555 1_555
O31 H67 1_555 1_555
O31 H68 1_555 1_555
O34 H69 1_555 1_555
O34 H70 1_555 1_555
Co2 O11 1_555 1_555
C23 H19 1_555 1_555
H20 C23 1_555 1_555
C24 C23 1_555 1_555
O10 C18 1_555 1_555
O11 C24 1_555 1_555
O12 C24 1_555 1_555
O14 Co2 1_555 1_555
O15 Co2 1_555 1_555
O17 Co2 1_555 1_555
C28 H28 1_555 1_555
H29 C28 1_555 1_555
H30 C28 1_555 1_555
Co8 O11 1_555 1_555
O35 Co2 1_555 1_555
O40 Co2 1_555 1_555
C23 O10 1_555 1_555
Co8 O40 1_555 1_555
O17 H55 1_555 1_555
O17 H56 1_555 1_555
O15 H57 1_555 1_555
O15 H58 1_555 1_555
O14 H59 1_555 1_555
O14 H60 1_555 1_555
Co1 O5 1_555 1_555
H4 C2 1_555 1_555
C3 C2 1_555 1_555
C4 C3 1_555 1_555
H5 C4 1_555 1_555
C5 C4 1_555 1_555
C6 C5 1_555 1_555
C7 C6 1_555 1_555
H6 C7 1_555 1_555
C8 C3 1_555 1_555
C9 H7 1_555 1_555
H8 C9 1_555 1_555
C10 C9 1_555 1_555
C11 H9 1_555 1_555
H10 C11 1_555 1_555
C12 C11 1_555 1_555
C13 C5 1_555 1_555
H11 C13 1_555 1_555
C14 C13 1_555 1_555
H12 C14 1_555 1_555
H13 C14 1_555 1_555
H14 C14 1_555 1_555
C15 C13 1_555 1_555
C16 C15 1_555 1_555
C17 C16 1_555 1_555
C20 C15 1_555 1_555
H16 C20 1_555 1_555
C21 H17 1_555 1_555
H18 C21 1_555 1_555
C22 C21 1_555 1_555
C25 H21 1_555 1_555
C26 H22 1_555 1_555
H23 C26 1_555 1_555
H24 C26 1_555 1_555
C27 H25 1_555 1_555
H26 C27 1_555 1_555
H27 C27 1_555 1_555
N1 C25 1_555 1_555
O1 C8 1_555 1_555
O35 C10 1_555 1_555
O3 C10 1_555 1_555
O4 C6 1_555 1_555
O5 C12 1_555 1_555
O6 C12 1_555 1_555
O7 C16 1_555 1_555
O8 C22 1_555 1_555
O9 Co1 1_555 1_555
O13 Co1 1_555 1_555
O16 Co1 1_555 1_555
C29 C19 1_555 1_555
H31 C29 1_555 1_555
C30 C29 1_555 1_555
C31 C30 1_555 1_555
H32 C31 1_555 1_555
C32 C31 1_555 1_555
C33 C32 1_555 1_555
C34 C33 1_555 1_555
H33 C34 1_555 1_555
C35 C30 1_555 1_555
C36 H34 1_555 1_555
H35 C36 1_555 1_555
C37 C36 1_555 1_555
C38 H36 1_555 1_555
H37 C38 1_555 1_555
C39 C38 1_555 1_555
C40 C32 1_555 1_555
H38 C40 1_555 1_555
C41 C40 1_555 1_555
H39 C41 1_555 1_555
H40 C41 1_555 1_555
H41 C41 1_555 1_555
C42 C40 1_555 1_555
C43 C42 1_555 1_555
C44 C43 1_555 1_555
C46 C2 1_555 1_555
C47 C42 1_555 1_555
H43 C47 1_555 1_555
C48 H44 1_555 1_555
H45 C48 1_555 1_555
C49 C48 1_555 1_555
O18 C35 1_555 1_555
O36 C37 1_555 1_555
O20 C37 1_555 1_555
O21 C33 1_555 1_555
O22 C39 1_555 1_555
O23 C39 1_555 1_555
O24 C43 1_555 1_555
O25 C49 1_555 1_555
O26 C49 1_555 1_555
Co3 O22 1_555 1_555
C52 H48 1_555 1_555
C53 H49 1_555 1_555
H50 C53 1_555 1_555
H51 C53 1_555 1_555
C54 H52 1_555 1_555
H53 C54 1_555 1_555
H54 C54 1_555 1_555
N2 C52 1_555 1_555
O30 Co3 1_555 1_555
O33 Co3 1_555 1_555
Co6 O20 1_555 1_555
Co8 O3 1_555 1_555
Co10 O26 1_555 1_555
Co11 O9 1_555 1_555
O37 Co3 1_555 1_555
O38 Co1 1_555 1_555
O41 Co3 1_555 1_555
O42 Co1 1_555 1_555
C7 C8 1_555 1_555
C9 O1 1_555 1_555
C11 O4 1_555 1_555
C19 C20 1_555 1_555
C21 O7 1_555 1_555
C22 O9 1_555 1_555
C25 O13 1_555 1_555
C26 N1 1_555 1_555
C27 N1 1_555 1_555
C34 C35 1_555 1_555
C36 O18 1_555 1_555
C38 O21 1_555 1_555
C46 C47 1_555 1_555
C48 O24 1_555 1_555
O26 Co3 1_555 1_555
C52 O30 1_555 1_555
C53 N2 1_555 1_555
C54 N2 1_555 1_555
Co10 O41 1_555 1_555
Co11 O42 1_555 1_555
O16 H61 1_555 1_555
O16 H62 1_555 1_555
O33 H65 1_555 1_555
O33 H66 1_555 1_555
C1_2 H1_2 1_555 1_555
H2_2 C1_2 1_555 1_555
H3_2 C1_2 1_555 1_555
C2_2 C1_2 1_555 1_555
H4_2 C2_2 1_555 1_555
C3_2 C2_2 1_555 1_555
C4_2 C3_2 1_555 1_555
H5_2 C4_2 1_555 1_555
C5_2 C4_2 1_555 1_555
C6_2 C5_2 1_555 1_555
C7_2 C6_2 1_555 1_555
H6_2 C7_2 1_555 1_555
C8_2 C3_2 1_555 1_555
C9_2 H7_2 1_555 1_555
H8_2 C9_2 1_555 1_555
C10_2 C9_2 1_555 1_555
O1_2 C8_2 1_555 1_555
O2 C10_2 1_555 1_555
O3_2 C10_2 1_555 1_555
H37_2 C38_2 1_555 1_555
C39_2 C38_2 1_555 1_555
H38_2 C40_2 1_555 1_555
C41_2 C40_2 1_555 1_555
H39_2 C41_2 1_555 1_555
H40_2 C41_2 1_555 1_555
H41_2 C41_2 1_555 1_555
C42_2 C40_2 1_555 1_555
C43_2 C42_2 1_555 1_555
C44_2 C43_2 1_555 1_555
H42_2 C44_2 1_555 1_555
C45_2 C44_2 1_555 1_555
C46_2 C2_2 1_555 1_555
C47_2 C42_2 1_555 1_555
H43_2 C47_2 1_555 1_555
C48_2 H44_2 1_555 1_555
H45_2 C48_2 1_555 1_555
C49_2 C48_2 1_555 1_555
C50_2 H46_2 1_555 1_555
H47_2 C50_2 1_555 1_555
C51_2 C50_2 1_555 1_555
O22_2 C39_2 1_555 1_555
O23_2 C39_2 1_555 1_555
O24_2 C43_2 1_555 1_555
O25_2 C49_2 1_555 1_555
O40 C49_2 1_555 1_555
O27_2 C45_2 1_555 1_555
O42 C51_2 1_555 1_555
O29_2 C51_2 1_555 1_555
Co8 O22_2 1_555 1_555
C52_2 H48_2 1_555 1_555
C53_2 H49_2 1_555 1_555
H50_2 C53_2 1_555 1_555
H51_2 C53_2 1_555 1_555
C54_2 H52_2 1_555 1_555
H53_2 C54_2 1_555 1_555
H54_2 C54_2 1_555 1_555
N2_2 C52_2 1_555 1_555
O30_2 Co8 1_555 1_555
O31_2 Co11 1_555 1_555
O32_2 Co11 1_555 1_555
O33_2 Co8 1_555 1_555
O34_2 Co11 1_555 1_555
Co7 O3_2 1_555 1_555
Co9 O2 1_555 1_555
O36_2 Co11 1_555 1_555
C7_2 C8_2 1_555 1_555
C9_2 O1_2 1_555 1_555
C38_2 O21_2 1_555 1_555
C45_2 C46_2 1_555 1_555
C46_2 C47_2 1_555 1_555
C48_2 O24_2 1_555 1_555
C50_2 O27_2 1_555 1_555
C52_2 O30_2 1_555 1_555
C53_2 N2_2 1_555 1_555
C54_2 N2_2 1_555 1_555
O32_2 H63_2 1_555 1_555
O32_2 H64_2 1_555 1_555
O33_2 H65_2 1_555 1_555
O33_2 H66_2 1_555 1_555
O31_2 H67_2 1_555 1_555
O31_2 H68_2 1_555 1_555
O34_2 H69_2 1_555 1_555
O34_2 H70_2 1_555 1_555
Co1_2 O5_2 1_555 1_555
H12_2 C14_2 1_555 1_555
H14_2 C14_2 1_555 1_555
C21_2 H17_2 1_555 1_555
H18_2 C21_2 1_555 1_555
C22_2 C21_2 1_555 1_555
C25_2 H21_2 1_555 1_555
O5_2 C12_2 1_555 1_555
O8_2 C22_2 1_555 1_555
O9_2 Co1_2 1_555 1_555
O13_2 Co1_2 1_555 1_555
O16_2 Co1_2 1_555 1_555
Co11_2 O9_2 1_555 1_555
O38_2 Co1_2 1_555 1_555
O42_2 Co1_2 1_555 1_555
C21_2 O7_2 1_555 1_555
C22_2 O9_2 1_555 1_555
C25_2 O13_2 1_555 1_555
Co11_2 O42_2 1_555 1_555
O16_2 H61_2 1_555 1_555
O16_2 H62_2 1_555 1_555
H10_2 C11_2 1_555 1_555
C15_2 C13_2 1_555 1_555
C16_2 C15_2 1_555 1_555
C17_2 C16_2 1_555 1_555
C20_2 C15_2 1_555 1_555
H16_2 C20_2 1_555 1_555
C26_2 H22_2 1_555 1_555
H23_2 C26_2 1_555 1_555
H24_2 C26_2 1_555 1_555
C27_2 H25_2 1_555 1_555
H26_2 C27_2 1_555 1_555
H27_2 C27_2 1_555 1_555
C29_2 C19_2 1_555 1_555
H31_2 C29_2 1_555 1_555
C30_2 C29_2 1_555 1_555
C31_2 C30_2 1_555 1_555
H32_2 C31_2 1_555 1_555
C32_2 C31_2 1_555 1_555
C33_2 C32_2 1_555 1_555
C34_2 C33_2 1_555 1_555
H33_2 C34_2 1_555 1_555
C35_2 C30_2 1_555 1_555
C36_2 H34_2 1_555 1_555
H35_2 C36_2 1_555 1_555
C37_2 C36_2 1_555 1_555
O18_2 C35_2 1_555 1_555
O36_2 C37_2 1_555 1_555
O38 C37_2 1_555 1_555
C11_2 O4_2 1_555 1_555
C19_2 C20_2 1_555 1_555
C26_2 N1_2 1_555 1_555
C27_2 N1_2 1_555 1_555
C34_2 C35_2 1_555 1_555
C36_2 O18_2 1_555 1_555
Co9 O11_2 1_555 1_555
C23_2 H19_2 1_555 1_555
H20_2 C23_2 1_555 1_555
C24_2 C23_2 1_555 1_555
O10_2 C18_2 1_555 1_555
O11_2 C24_2 1_555 1_555
O12_2 C24_2 1_555 1_555
O14_2 Co9 1_555 1_555
O15_2 Co9 1_555 1_555
O17_2 Co9 1_555 1_555
C28_2 H28_2 1_555 1_555
H29_2 C28_2 1_555 1_555
H30_2 C28_2 1_555 1_555
Co7 O11_2 1_555 1_555
O40_2 Co9 1_555 1_555
C23_2 O10_2 1_555 1_555
Co7 O40_2 1_555 1_555
O17_2 H55_2 1_555 1_555
O17_2 H56_2 1_555 1_555
O15_2 H57_2 1_555 1_555
O15_2 H58_2 1_555 1_555
O14_2 H59_2 1_555 1_555
O14_2 H60_2 1_555 1_555
Co6 O5_3 1_555 1_555
H10_3 C11_3 1_555 1_555
C12_3 C11_3 1_555 1_555
H11_3 C13_3 1_555 1_555
C14_3 C13_3 1_555 1_555
H12_3 C14_3 1_555 1_555
H13_3 C14_3 1_555 1_555
H14_3 C14_3 1_555 1_555
C15_3 C13_3 1_555 1_555
C16_3 C15_3 1_555 1_555
C17_3 C16_3 1_555 1_555
H15_3 C17_3 1_555 1_555
C18_3 C17_3 1_555 1_555
C19_3 C18_3 1_555 1_555
C20_3 C15_3 1_555 1_555
H16_3 C20_3 1_555 1_555
C21_3 H17_3 1_555 1_555
H18_3 C21_3 1_555 1_555
C22_3 C21_3 1_555 1_555
C23_3 H19_3 1_555 1_555
H20_3 C23_3 1_555 1_555
C24_3 C23_3 1_555 1_555
C25_3 H21_3 1_555 1_555
C26_3 H22_3 1_555 1_555
H23_3 C26_3 1_555 1_555
H24_3 C26_3 1_555 1_555
C27_3 H25_3 1_555 1_555
H26_3 C27_3 1_555 1_555
H27_3 C27_3 1_555 1_555
N1_3 C25_3 1_555 1_555
O5_3 C12_3 1_555 1_555
O6_3 C12_3 1_555 1_555
O7_3 C16_3 1_555 1_555
O8_3 C22_3 1_555 1_555
O10_3 C18_3 1_555 1_555
O41 C24_3 1_555 1_555
O12_3 C24_3 1_555 1_555
O13_3 Co6 1_555 1_555
O14_3 Co10 1_555 1_555
O15_3 Co10 1_555 1_555
O16_3 Co6 1_555 1_555
O17_3 Co10 1_555 1_555
C28_3 H28_3 1_555 1_555
H29_3 C28_3 1_555 1_555
H30_3 C28_3 1_555 1_555
C29_3 C19_3 1_555 1_555
H31_3 C29_3 1_555 1_555
C30_3 C29_3 1_555 1_555
C31_3 C30_3 1_555 1_555
H32_3 C31_3 1_555 1_555
C32_3 C31_3 1_555 1_555
C33_3 C32_3 1_555 1_555
C34_3 C33_3 1_555 1_555
H33_3 C34_3 1_555 1_555
C35_3 C30_3 1_555 1_555
C36_3 H34_3 1_555 1_555
H35_3 C36_3 1_555 1_555
C37_3 C36_3 1_555 1_555
O18_3 C35_3 1_555 1_555
O19 C37_3 1_555 1_555
O38_2 C37_3 1_555 1_555
Co11_2 O19 1_555 1_555
O35_2 Co10 1_555 1_555
C11_3 O4_3 1_555 1_555
C19_3 C20_3 1_555 1_555
C21_3 O7_3 1_555 1_555
C22_3 O39 1_555 1_555
C23_3 O10_3 1_555 1_555
C25_3 O13_3 1_555 1_555
C26_3 N1_3 1_555 1_555
C27_3 N1_3 1_555 1_555
C28_3 C29_3 1_555 1_555
C34_3 C35_3 1_555 1_555
C36_3 O18_3 1_555 1_555
O17_3 H55_3 1_555 1_555
O17_3 H56_3 1_555 1_555
O15_3 H57_3 1_555 1_555
O15_3 H58_3 1_555 1_555
O14_3 H59_3 1_555 1_555
O14_3 H60_3 1_555 1_555
O16_3 H61_3 1_555 1_555
O16_3 H62_3 1_555 1_555
H4_3 C2_3 1_555 1_555
C3_3 C2_3 1_555 1_555
C4_3 C3_3 1_555 1_555
H5_3 C4_3 1_555 1_555
C5_3 C4_3 1_555 1_555
C6_3 C5_3 1_555 1_555
C7_3 C6_3 1_555 1_555
H6_3 C7_3 1_555 1_555
C8_3 C3_3 1_555 1_555
C9_3 H7_3 1_555 1_555
H8_3 C9_3 1_555 1_555
C10_3 C9_3 1_555 1_555
O1_3 C8_3 1_555 1_555
O35_2 C10_3 1_555 1_555
O37 C10_3 1_555 1_555
H37_3 C38_3 1_555 1_555
C42_3 C40_3 1_555 1_555
C43_3 C42_3 1_555 1_555
C44_3 C43_3 1_555 1_555
C46_3 C2_3 1_555 1_555
C47_3 C42_3 1_555 1_555
H43_3 C47_3 1_555 1_555
C53_3 H49_3 1_555 1_555
H50_3 C53_3 1_555 1_555
H51_3 C53_3 1_555 1_555
C54_3 H52_3 1_555 1_555
H53_3 C54_3 1_555 1_555
H54_3 C54_3 1_555 1_555
C7_3 C8_3 1_555 1_555
C9_3 O1_3 1_555 1_555
C38_3 O21_3 1_555 1_555
C46_3 C47_3 1_555 1_555
C53_3 N2_3 1_555 1_555
C54_3 N2_3 1_555 1_555
H39_3 C41_3 1_555 1_555
H41_3 C41_3 1_555 1_555
C48_3 H44_3 1_555 1_555
H45_3 C48_3 1_555 1_555
C49_3 C48_3 1_555 1_555
O22_3 C39_3 1_555 1_555
O25_3 C49_3 1_555 1_555
O40_2 C49_3 1_555 1_555
Co7 O22_3 1_555 1_555
C52_3 H48_3 1_555 1_555
O30_3 Co7 1_555 1_555
O33_3 Co7 1_555 1_555
C48_3 O24_3 1_555 1_555
C52_3 O30_3 1_555 1_555
O33_3 H65_3 1_555 1_555
O33_3 H66_3 1_555 1_555
C1_3 H1_3 1_555 1_555
H2_3 C1_3 1_555 1_555
H3_3 C1_3 1_555 1_555
C50_3 H46_3 1_555 1_555
H47_3 C50_3 1_555 1_555
C51_3 C50_3 1_555 1_555
O27_3 C45_3 1_555 1_555
O42_2 C51_3 1_555 1_555
O29_3 C51_3 1_555 1_555
O31_3 Co11_2 1_555 1_555
O32_3 Co11_2 1_555 1_555
O34_3 Co11_2 1_555 1_555
C50_3 O27_3 1_555 1_555
O32_3 H63_3 1_555 1_555
O32_3 H64_3 1_555 1_555
O31_3 H67_3 1_555 1_555
O31_3 H68_3 1_555 1_555
O34_3 H69_3 1_555 1_555
O34_3 H70_3 1_555 1_555

#END
