
###############################################################################
#
# This file contains modified crystal structure data generated from the
# MOF subset of the Cambridge Structural Database (CSD) v543 
# hosted by the Cambridge Crystallographic Data Centre (CCDC).
#
# This work is licensed under the Creative Commons
# Attribution-NonCommercial-ShareAlike 4.0 International License.
# To view a copy of this license, visit
# http://creativecommons.org/licenses/by-nc-sa/4.0/
# or send a letter to
# Creative Commons, PO Box 1866, Mountain View, CA 94042, USA.
#
# CIF created using the CSD Python API on 29 September 2022
# The structure has been converted into the P1 space group
# The structure has a 3D framework
# The original CSD entry DONKUO is in the triclinic crystal system
# The framework has been calculated to contain at least 10.0% void space
# The void calculation uses a probe of radius 1.32A, grid spacing 0.4
# The framework is charged, counterions have been retained in the structure
# H atom positions have been added when not included in the experimental data
#
###############################################################################

data_DONKUO
_chemical_formula_moiety         '(C106 H136 Mn6 N4 O62)n'
_symmetry_cell_setting           triclinic
_symmetry_space_group_name_H-M   'P 1'
_symmetry_Int_Tables_number      1
_space_group_name_Hall           'P 1'
loop_
_symmetry_equiv_pos_site_id
_symmetry_equiv_pos_as_xyz
1 x,y,z
_cell_length_a                   12.3029(13)
_cell_length_b                   17.4336(19)
_cell_length_c                   17.4920(18)
_cell_angle_alpha                67.670(10)
_cell_angle_beta                 76.200(9)
_cell_angle_gamma                71.884(9)
_cell_volume                     3267.3
loop_
_atom_site_label
_atom_site_type_symbol
_atom_site_fract_x
_atom_site_fract_y
_atom_site_fract_z
O32 O 0.0088(4) 0.1956(4) 0.6983(3)
Mn1 Mn 0.86946(7) 0.20046(7) 0.64551(5)
H12 H 0.3827 0.4321 0.9846
C23 C 0.4516(5) 0.2944(4) 0.9332(4)
H17 H 0.5274 0.2542 0.9308
C24 C 0.4609(6) 0.3768(5) 0.8614(4)
H18 H 0.4764 0.3662 0.8094
H19 H 0.5226 0.3968 0.8663
H20 H 0.3897 0.4194 0.8633
C25 C 0.3664(5) 0.2546(4) 0.9207(3)
C26 C 0.2566(4) 0.2576(4) 0.9652(3)
C27 C 0.1774(4) 0.2235(4) 0.9520(3)
C28 C 0.2111(5) 0.1866(4) 0.8905(4)
C29 C 0.3216(5) 0.1795(4) 0.8470(4)
H22 H 0.3442 0.1516 0.8077
C30 C 0.3970(5) 0.2131(4) 0.8618(4)
C31 C 0.5314(5) 0.1975(5) 0.7429(4)
H23 H 0.4797 0.2427 0.7059
H24 H 0.5195 0.1431 0.7485
C32 C 0.6534(5) 0.2005(5) 0.7073(4)
C33 C 0.1359(6) 0.1637(5) 0.7915(4)
H25 H 0.1956 0.1174 0.7780
H26 H 0.1558 0.2170 0.7561
C34 C 0.0223(6) 0.1634(5) 0.7738(5)
C35 C 0.0554(4) 0.2311(4) 0.9982(3)
O6 O 0.5078(3) 0.2081(3) 0.8215(3)
O7 O 0.6823(4) 0.2091(4) 0.6307(3)
O8 O 0.7247(3) 0.1936(3) 0.7511(3)
O9 O 0.1322(3) 0.1543(3) 0.8756(2)
O33 O 0.9295(4) 0.0653(3) 0.6690(3)
O34 O 0.9459(4) 0.2031(3) 0.5233(3)
O37 O 0.8312(4) 0.3391(3) 0.6055(3)
Mn2 Mn 0.85702(8) 0.43505(7) 0.47037(6)
C6 C 0.9766(5) 0.5050(4) 0.2514(3)
C9 C 0.7992(5) 0.5947(5) 0.2878(4)
H5 H 0.7210 0.5989 0.2816
H6 H 0.8301 0.6349 0.2379
C10 C 0.7945(6) 0.6210(5) 0.3616(4)
C41 C 0.9806(4) 0.3381(4) 0.1655(3)
C42 C 0.9958(4) 0.3240(4) 0.0908(3)
H32 H 0.9732 0.3708 0.0444
C43 C 0.9266(4) 0.4239(4) 0.1779(3)
H33 H 0.8672 0.4148 0.2268
C44 C 0.8658(5) 0.4917(4) 0.1055(4)
H34 H 0.8117 0.4698 0.0933
H35 H 0.9219 0.5060 0.0572
H36 H 0.8256 0.5419 0.1204
H38 H 0.9712 0.1741 0.3826
C46 C 0.9415(5) 0.2546(5) 0.4514(4)
C49 C 0.6161(8) 0.4157(7) 0.4705(6)
H41 H 0.6325 0.3664 0.5161
C50 C 0.4484(9) 0.3714(9) 0.4641(9)
H42 H 0.3887 0.3950 0.4290
H43 H 0.4144 0.3669 0.5206
H44 H 0.4900 0.3157 0.4614
C51 C 0.5018(9) 0.4996(9) 0.3638(7)
H45 H 0.4334 0.5010 0.3456
H46 H 0.5656 0.4968 0.3201
H47 H 0.4902 0.5505 0.3771
N1 N 0.5260(6) 0.4262(6) 0.4361(5)
O14 O 0.9480(4) 0.0341(4) 0.2460(4)
O17 O 0.8879(4) 0.3306(3) 0.4311(3)
O18 O 0.8651(3) 0.5125(3) 0.2931(3)
O19 O 0.8485(4) 0.5676(3) 0.4203(3)
O20 O 0.7355(4) 0.6934(4) 0.3592(3)
O24 O 0.6808(4) 0.4634(4) 0.4493(3)
O35 O 0.8125(5) 0.4696(3) 0.5938(3)
C36 C 0.9711(5) 0.2989(5) 0.9413(4)
H28 H 0.9817 0.2869 0.8905
H29 H 0.9846 0.3540 0.9289
H30 H 0.8935 0.2987 0.9686
O11 O 0.9541(5) 0.1322(5) 0.8301(3)
H40 H 0.8022 0.0212 0.8102
C48 C 0.9530(6) 0.0032(5) 0.7354(4)
O3 O 0.5149(5) 0.0123(4) 0.7333(4)
H48 H 0.4660 0.0364 0.7015
O29 O 0.6074(5) 0.0325(4) 0.4569(4)
H61 H 0.697797 0.0360512 0.294369
H65 H 0.527164 0.0283821 0.482055
H66 H 0.606247 0.0789746 0.40204
Mn3 Mn 0.70951(9) 0.90908(8) 0.43924(7)
C1 C 0.9483(5) 0.4584(4) 0.7348(4)
H1 H 0.9730 0.4268 0.6986
C2 C 0.8366(5) 0.4690(4) 0.7750(4)
C3 C 0.7982(4) 0.5150(4) 0.8292(3)
C4 C 0.8760(4) 0.5500(4) 0.8404(3)
H2 H 0.8510 0.5817 0.8765
C5 C 0.9889(5) 0.5418(4) 0.8022(3)
C7 C 0.7951(6) 0.3678(4) 0.7316(4)
H3 H 0.8673 0.3317 0.7517
H4 H 0.7392 0.3332 0.7523
C8 C 0.8139(5) 0.3963(5) 0.6369(4)
C11 C 0.6769(5) 0.5240(4) 0.8759(4)
H7 H 0.6276 0.5235 0.8397
C12 C 0.6722(5) 0.4457(4) 0.9546(4)
H8 H 0.7027 0.3946 0.9398
H9 H 0.7173 0.4449 0.9928
H10 H 0.5935 0.4484 0.9805
C13 C 0.6316(4) 0.6084(4) 0.8907(4)
C14 C 0.6145(5) 0.6830(5) 0.8234(4)
C15 C 0.5805(5) 0.7626(4) 0.8328(4)
H11 H 0.5717 0.8119 0.7862
C16 C 0.5594(5) 0.7686(4) 0.9126(4)
C17 C 0.5731(4) 0.6950(4) 0.9824(3)
C18 C 0.6084(4) 0.6174(4) 0.9691(3)
C19 C 0.5574(6) 0.9152(5) 0.8622(4)
H13 H 0.5646 0.9543 0.8868
H14 H 0.6327 0.8951 0.8336
C20 C 0.4745(7) 0.9630(5) 0.7991(4)
C21 C 0.6909(6) 0.7264(5) 0.6799(4)
H15 H 0.7424 0.7426 0.7019
H16 H 0.7381 0.6937 0.6443
C22 C 0.6163(6) 0.8052(5) 0.6286(4)
H21 H 0.7651 0.7164 0.9941
H27 H 0.9633 0.8236 0.9890
C37 C 0.9573(4) 0.7553(4) 0.9195(3)
C38 C 0.9219(5) 0.8247(4) 0.8490(3)
C39 C 0.9327(5) 0.8138(4) 0.7737(4)
H31 H 0.9071 0.8599 0.7277
C40 C 0.9828(5) 0.7325(4) 0.7671(4)
C45 C 0.9937(6) 0.7831(5) 0.6176(3)
H37 H 0.9138 0.8101 0.6087
C47 C 0.8515(5) 0.9746(4) 0.7911(4)
H39 H 0.8079 0.9634 0.7587
O1 O 0.5240(4) 0.8444(3) 0.9267(3)
O2 O 0.3772(4) 0.9526(4) 0.8146(3)
O4 O 0.6285(4) 0.6735(3) 0.7471(3)
O5 O 0.6717(5) 0.8534(4) 0.5696(3)
O12 O 0.8760(4) 0.9017(3) 0.8611(2)
O15 O 0.9997(4) 0.7157(3) 0.6940(3)
O21 O 0.7564(4) 0.4346(3) 0.7655(3)
O25 O 0.5109(4) 0.8198(4) 0.6452(3)
O26 O 0.7521(4) 0.9786(4) 0.3093(3)
O27 O 0.8095(5) 0.7850(4) 0.4272(3)
O28 O 0.8602(4) 0.9385(4) 0.4519(3)
O30 O 0.5612(6) 0.8924(6) 0.4088(4)
O31 O 0.9557(4) 0.5952(4) 0.5299(3)
H57 H 0.874588 0.761892 0.460484
H58 H 0.84032 0.792298 0.367644
H59 H 0.915368 0.592138 0.586996
H60 H 0.937296 0.553352 0.512251
H62 H 0.745863 0.946799 0.2746
H63 H 0.837204 0.976946 0.48584
H64 H 0.898122 0.967347 0.395799
H67 H 0.563047 0.830568 0.429275
H68 H 0.562088 0.91545 0.347345
Mn3_2 Mn 0.29049(9) 0.09092(8) 0.56076(7)
C1_2 C 0.0517(5) 0.5416(4) 0.2652(4)
H1_2 H 0.0270 0.5732 0.3014
C2_2 C 0.1634(5) 0.5310(4) 0.2250(4)
C3_2 C 0.2018(4) 0.4850(4) 0.1708(3)
C4_2 C 0.1240(4) 0.4500(4) 0.1596(3)
H2_2 H 0.1490 0.4183 0.1235
C5_2 C 0.0111(5) 0.4582(4) 0.1978(3)
C7_2 C 0.2049(6) 0.6322(4) 0.2684(4)
H3_2 H 0.1327 0.6683 0.2483
H4_2 H 0.2608 0.6668 0.2477
C8_2 C 0.1861(5) 0.6037(5) 0.3631(4)
C11_2 C 0.3231(5) 0.4760(4) 0.1241(4)
H7_2 H 0.3724 0.4765 0.1603
C12_2 C 0.3278(5) 0.5543(4) 0.0454(4)
H8_2 H 0.2973 0.6054 0.0602
H9_2 H 0.2827 0.5551 0.0072
H10_2 H 0.4065 0.5516 0.0195
C13_2 C 0.3684(4) 0.3916(4) 0.1093(4)
C14_2 C 0.3855(5) 0.3170(5) 0.1766(4)
C15_2 C 0.4195(5) 0.2374(4) 0.1672(4)
H11_2 H 0.4283 0.1881 0.2138
C16_2 C 0.4406(5) 0.2314(4) 0.0874(4)
C17_2 C 0.4269(4) 0.3050(4) 0.0176(3)
C18_2 C 0.3916(4) 0.3826(4) 0.0309(3)
C19_2 C 0.4426(6) 0.0848(5) 0.1378(4)
H13_2 H 0.4354 0.0457 0.1132
H14_2 H 0.3673 0.1049 0.1664
C20_2 C 0.5255(7) 0.0370(5) 0.2009(4)
C21_2 C 0.3091(6) 0.2736(5) 0.3201(4)
H15_2 H 0.2576 0.2574 0.2981
H16_2 H 0.2619 0.3063 0.3557
C22_2 C 0.3837(6) 0.1948(5) 0.3714(4)
H21_2 H 0.2349 0.2836 0.0059
H27_2 H 0.0367 0.1764 0.0110
C37_2 C 0.0427(4) 0.2447(4) 0.0805(3)
C38_2 C 0.0781(5) 0.1753(4) 0.1510(3)
C39_2 C 0.0673(5) 0.1862(4) 0.2263(4)
H31_2 H 0.0929 0.1401 0.2723
C40_2 C 0.0172(5) 0.2675(4) 0.2329(4)
C45_2 C 0.0063(6) 0.2169(5) 0.3824(3)
H37_2 H 0.0862 0.1899 0.3913
C47_2 C 0.1485(5) 0.0254(4) 0.2089(4)
H39_2 H 0.1921 0.0366 0.2413
O1_2 O 0.4760(4) 0.1556(3) 0.0733(3)
O2_2 O 0.6228(4) 0.0474(4) 0.1854(3)
O4_2 O 0.3715(4) 0.3265(3) 0.2529(3)
O5_2 O 0.3283(5) 0.1466(4) 0.4304(3)
O12_2 O 0.1240(4) 0.0983(3) 0.1389(2)
O15_2 O 0.0003(4) 0.2843(3) 0.3060(3)
O21_2 O 0.2436(4) 0.5654(3) 0.2345(3)
O22 O 0.1875(5) 0.5304(3) 0.4062(3)
O23 O 0.1688(4) 0.6609(3) 0.3945(3)
O25_2 O 0.4891(4) 0.1802(4) 0.3548(3)
O26_2 O 0.2479(4) 0.0214(4) 0.6907(3)
O27_2 O 0.1905(5) 0.2150(4) 0.5728(3)
O28_2 O 0.1398(4) 0.0615(4) 0.5481(3)
O30_2 O 0.4388(6) 0.1076(6) 0.5912(4)
O31_2 O 0.0443(4) 0.4048(4) 0.4701(3)
Mn7 Mn 0.13054(7) 0.79954(7) 0.35449(5)
Mn8 Mn 0.14298(8) 0.56495(7) 0.52963(6)
H57_2 H 0.125412 0.238108 0.539516
H58_2 H 0.15968 0.207702 0.632356
H59_2 H 0.0846323 0.407862 0.413004
H60_2 H 0.0627039 0.446648 0.487749
H62_2 H 0.254137 0.0532007 0.7254
H63_2 H 0.162796 0.0230539 0.51416
H64_2 H 0.101878 0.0326532 0.604201
H67_2 H 0.436953 0.169432 0.570725
H68_2 H 0.437912 0.0845501 0.652655
H40_2 H 0.1978 0.9788 0.1898
C48_2 C 0.0470(6) 0.9968(5) 0.2646(4)
O3_2 O 0.4851(5) 0.9877(4) 0.2667(4)
H48_2 H 0.5340 0.9636 0.2985
O13 O 0.0705(4) 0.9347(3) 0.3310(3)
O29_2 O 0.3926(5) 0.9675(4) 0.5431(4)
H61_2 H 0.302203 0.963949 0.705631
H65_2 H 0.472836 0.971618 0.517945
H66_2 H 0.393753 0.921025 0.59796
C36_2 C 0.0289(5) 0.7011(5) 0.0587(4)
H28_2 H 0.0183 0.7131 0.1095
H29_2 H 0.0154 0.6460 0.0711
H30_2 H 0.1065 0.7013 0.0314
O11_2 O 0.0459(5) 0.8678(5) 0.1699(3)
C6_2 C 0.0234(5) 0.4950(4) 0.7486(3)
C9_2 C 0.2008(5) 0.4053(5) 0.7122(4)
H5_2 H 0.2790 0.4011 0.7184
H6_2 H 0.1699 0.3651 0.7621
C10_2 C 0.2055(6) 0.3790(5) 0.6384(4)
C41_2 C 0.0194(4) 0.6619(4) 0.8345(3)
C42_2 C 0.0042(4) 0.6760(4) 0.9092(3)
H32_2 H 0.0268 0.6292 0.9556
C43_2 C 0.0734(4) 0.5761(4) 0.8221(3)
H33_2 H 0.1328 0.5852 0.7732
C44_2 C 0.1342(5) 0.5083(4) 0.8945(4)
H34_2 H 0.1883 0.5302 0.9067
H35_2 H 0.0781 0.4940 0.9428
H36_2 H 0.1744 0.4581 0.8796
H38_2 H 0.0288 0.8259 0.6174
C46_2 C 0.0585(5) 0.7454(5) 0.5486(4)
C49_2 C 0.3839(8) 0.5843(7) 0.5295(6)
H41_2 H 0.3675 0.6336 0.4839
C50_2 C 0.5516(9) 0.6286(9) 0.5359(9)
H42_2 H 0.6113 0.6050 0.5710
H43_2 H 0.5856 0.6331 0.4794
H44_2 H 0.5100 0.6843 0.5386
C51_2 C 0.4982(9) 0.5004(9) 0.6362(7)
H45_2 H 0.5666 0.4990 0.6544
H46_2 H 0.4344 0.5032 0.6799
H47_2 H 0.5098 0.4495 0.6229
N1_2 N 0.4740(6) 0.5738(6) 0.5639(5)
O14_2 O 0.0520(4) 0.9659(4) 0.7540(4)
O16 O 0.0541(4) 0.7969(3) 0.4767(3)
O17_2 O 0.1121(4) 0.6694(3) 0.5689(3)
O18_2 O 0.1349(3) 0.4875(3) 0.7069(3)
O19_2 O 0.1515(4) 0.4324(3) 0.5797(3)
O20_2 O 0.2645(4) 0.3066(4) 0.6408(3)
O24_2 O 0.3192(4) 0.5366(4) 0.5507(3)
H12_2 H 0.6173 0.5679 0.0154
C23_2 C 0.5484(5) 0.7056(4) 0.0668(4)
H17_2 H 0.4726 0.7458 0.0692
C24_2 C 0.5391(6) 0.6232(5) 0.1386(4)
H18_2 H 0.5236 0.6338 0.1906
H19_2 H 0.4774 0.6032 0.1337
H20_2 H 0.6103 0.5806 0.1367
C25_2 C 0.6336(5) 0.7454(4) 0.0793(3)
C26_2 C 0.7434(4) 0.7424(4) 0.0348(3)
C27_2 C 0.8226(4) 0.7765(4) 0.0480(3)
C28_2 C 0.7889(5) 0.8134(4) 0.1095(4)
C29_2 C 0.6784(5) 0.8205(4) 0.1530(4)
H22_2 H 0.6558 0.8484 0.1923
C30_2 C 0.6030(5) 0.7869(4) 0.1382(4)
C31_2 C 0.4686(5) 0.8025(5) 0.2571(4)
H23_2 H 0.5203 0.7573 0.2941
H24_2 H 0.4805 0.8569 0.2515
C32_2 C 0.3466(5) 0.7995(5) 0.2927(4)
C33_2 C 0.8641(6) 0.8363(5) 0.2085(4)
H25_2 H 0.8044 0.8826 0.2220
H26_2 H 0.8442 0.7830 0.2439
C34_2 C 0.9777(6) 0.8366(5) 0.2262(5)
C35_2 C 0.9446(4) 0.7689(4) 0.0018(3)
O6_2 O 0.4922(3) 0.7919(3) 0.1785(3)
O7_2 O 0.3177(4) 0.7909(4) 0.3693(3)
O8_2 O 0.2753(3) 0.8064(3) 0.2489(3)
O9_2 O 0.8678(3) 0.8457(3) 0.1244(2)
O10 O 0.9912(4) 0.8044(4) 0.3017(3)
C52 C 0.6477(14) 0.3395(13) 0.1796(13)
H49 H 0.5880 0.3831 0.1964
H50 H 0.6277 0.3322 0.1333
H51 H 0.7194 0.3562 0.1632
C53 C 0.7419(19) 0.1889(19) 0.247(4)
H52 H 0.7350 0.1450 0.3007
H53 H 0.8163 0.2009 0.2360
H54 H 0.7337 0.1698 0.2048
N2 N 0.6593(8) 0.2599(8) 0.2484(6)
H55 H 0.583274 0.243484 0.259896
H56 H 0.668531 0.273659 0.297563
C52_2 C 0.3523(14) 0.6605(13) 0.8204(13)
H49_2 H 0.4120 0.6169 0.8036
H50_2 H 0.3723 0.6678 0.8667
H51_2 H 0.2806 0.6438 0.8368
C53_2 C 0.2581(19) 0.8111(19) 0.753(4)
H52_2 H 0.2650 0.8550 0.6993
H53_2 H 0.1837 0.7991 0.7640
H54_2 H 0.2663 0.8302 0.7952
N2_2 N 0.3407(8) 0.7401(8) 0.7516(6)
H55_2 H 0.416726 0.756516 0.740104
H56_2 H 0.331469 0.726341 0.702437
loop_
_geom_bond_atom_site_label_1
_geom_bond_atom_site_label_2
_geom_bond_site_symmetry_1
_geom_bond_site_symmetry_2
Mn1 O7 1_555 1_555
H17 C23 1_555 1_555
C24 C23 1_555 1_555
H18 C24 1_555 1_555
H19 C24 1_555 1_555
H20 C24 1_555 1_555
C25 C23 1_555 1_555
C26 C25 1_555 1_555
C27 C26 1_555 1_555
C28 C27 1_555 1_555
C29 C28 1_555 1_555
H22 C29 1_555 1_555
C30 C25 1_555 1_555
C31 H23 1_555 1_555
H24 C31 1_555 1_555
C32 C31 1_555 1_555
C33 H25 1_555 1_555
H26 C33 1_555 1_555
C34 C33 1_555 1_555
C35 C27 1_555 1_555
O6 C30 1_555 1_555
O7 C32 1_555 1_555
O8 Mn1 1_555 1_555
O9 C28 1_555 1_555
O32 C34 1_555 1_555
O33 Mn1 1_555 1_555
O34 Mn1 1_555 1_555
O37 Mn1 1_555 1_555
C29 C30 1_555 1_555
C31 O6 1_555 1_555
C32 O8 1_555 1_555
C33 O9 1_555 1_555
Mn2 O17 1_555 1_555
C9 H5 1_555 1_555
H6 C9 1_555 1_555
C10 C9 1_555 1_555
H32 C42 1_555 1_555
H33 C43 1_555 1_555
C44 C43 1_555 1_555
H34 C44 1_555 1_555
H35 C44 1_555 1_555
H36 C44 1_555 1_555
C49 H41 1_555 1_555
C50 H42 1_555 1_555
H43 C50 1_555 1_555
H44 C50 1_555 1_555
C51 H45 1_555 1_555
H46 C51 1_555 1_555
H47 C51 1_555 1_555
N1 C49 1_555 1_555
O34 C46 1_555 1_555
O17 C46 1_555 1_555
O18 C6 1_555 1_555
O19 Mn2 1_555 1_555
O20 C10 1_555 1_555
O24 Mn2 1_555 1_555
O35 Mn2 1_555 1_555
O37 Mn2 1_555 1_555
C9 O18 1_555 1_555
C10 O19 1_555 1_555
C41 C42 1_555 1_555
C41 C43 1_555 1_555
C49 O24 1_555 1_555
C50 N1 1_555 1_555
C51 N1 1_555 1_555
H28 C36 1_555 1_555
H29 C36 1_555 1_555
H30 C36 1_555 1_555
H48 O3 1_555 1_555
O33 C48 1_555 1_555
O29 H65 1_555 1_555
O29 H66 1_555 1_555
Mn3 O5 1_555 1_555
C1 H1 1_555 1_555
C2 C1 1_555 1_555
C3 C2 1_555 1_555
C4 C3 1_555 1_555
H2 C4 1_555 1_555
C5 C4 1_555 1_555
C7 H3 1_555 1_555
H4 C7 1_555 1_555
C8 C7 1_555 1_555
C11 C3 1_555 1_555
H7 C11 1_555 1_555
C12 C11 1_555 1_555
H8 C12 1_555 1_555
H9 C12 1_555 1_555
H10 C12 1_555 1_555
C13 C11 1_555 1_555
C14 C13 1_555 1_555
C15 C14 1_555 1_555
H11 C15 1_555 1_555
C16 C15 1_555 1_555
C17 C16 1_555 1_555
C18 C13 1_555 1_555
C19 H13 1_555 1_555
H14 C19 1_555 1_555
C20 C19 1_555 1_555
C21 H15 1_555 1_555
H16 C21 1_555 1_555
C22 C21 1_555 1_555
C38 C37 1_555 1_555
C39 C38 1_555 1_555
H31 C39 1_555 1_555
C40 C39 1_555 1_555
C45 H37 1_555 1_555
C47 H39 1_555 1_555
O1 C16 1_555 1_555
O2 C20 1_555 1_555
O4 C14 1_555 1_555
O5 C22 1_555 1_555
O12 C38 1_555 1_555
O15 C40 1_555 1_555
O21 C2 1_555 1_555
O35 C8 1_555 1_555
O37 C8 1_555 1_555
O25 C22 1_555 1_555
O26 Mn3 1_555 1_555
O27 Mn3 1_555 1_555
O28 Mn3 1_555 1_555
O30 Mn3 1_555 1_555
C7 O21 1_555 1_555
C17 C18 1_555 1_555
C19 O1 1_555 1_555
C21 O4 1_555 1_555
C45 O15 1_555 1_555
C47 O12 1_555 1_555
O27 H57 1_555 1_555
O27 H58 1_555 1_555
O31 H59 1_555 1_555
O31 H60 1_555 1_555
O26 H62 1_555 1_555
O28 H63 1_555 1_555
O28 H64 1_555 1_555
O30 H67 1_555 1_555
O30 H68 1_555 1_555
Mn3_2 O5_2 1_555 1_555
C1_2 H1_2 1_555 1_555
C2_2 C1_2 1_555 1_555
C3_2 C2_2 1_555 1_555
C4_2 C3_2 1_555 1_555
H2_2 C4_2 1_555 1_555
C5_2 C4_2 1_555 1_555
C7_2 H3_2 1_555 1_555
H4_2 C7_2 1_555 1_555
C8_2 C7_2 1_555 1_555
C11_2 C3_2 1_555 1_555
H7_2 C11_2 1_555 1_555
C12_2 C11_2 1_555 1_555
H8_2 C12_2 1_555 1_555
H9_2 C12_2 1_555 1_555
H10_2 C12_2 1_555 1_555
C13_2 C11_2 1_555 1_555
C14_2 C13_2 1_555 1_555
C15_2 C14_2 1_555 1_555
H11_2 C15_2 1_555 1_555
C16_2 C15_2 1_555 1_555
C17_2 C16_2 1_555 1_555
C18_2 C13_2 1_555 1_555
C19_2 H13_2 1_555 1_555
H14_2 C19_2 1_555 1_555
C20_2 C19_2 1_555 1_555
C21_2 H15_2 1_555 1_555
H16_2 C21_2 1_555 1_555
C22_2 C21_2 1_555 1_555
C38_2 C37_2 1_555 1_555
C39_2 C38_2 1_555 1_555
H31_2 C39_2 1_555 1_555
C40_2 C39_2 1_555 1_555
C45_2 H37_2 1_555 1_555
C47_2 H39_2 1_555 1_555
O1_2 C16_2 1_555 1_555
O2_2 C20_2 1_555 1_555
O4_2 C14_2 1_555 1_555
O5_2 C22_2 1_555 1_555
O12_2 C38_2 1_555 1_555
O15_2 C40_2 1_555 1_555
O21_2 C2_2 1_555 1_555
O22 C8_2 1_555 1_555
O23 C8_2 1_555 1_555
O25_2 C22_2 1_555 1_555
O26_2 Mn3_2 1_555 1_555
O27_2 Mn3_2 1_555 1_555
O28_2 Mn3_2 1_555 1_555
O30_2 Mn3_2 1_555 1_555
Mn7 O23 1_555 1_555
Mn8 O22 1_555 1_555
C7_2 O21_2 1_555 1_555
C17_2 C18_2 1_555 1_555
C19_2 O1_2 1_555 1_555
C21_2 O4_2 1_555 1_555
C45_2 O15_2 1_555 1_555
C47_2 O12_2 1_555 1_555
O23 Mn8 1_555 1_555
O27_2 H57_2 1_555 1_555
O27_2 H58_2 1_555 1_555
O31_2 H59_2 1_555 1_555
O31_2 H60_2 1_555 1_555
O26_2 H62_2 1_555 1_555
O28_2 H63_2 1_555 1_555
O28_2 H64_2 1_555 1_555
O30_2 H67_2 1_555 1_555
O30_2 H68_2 1_555 1_555
H48_2 O3_2 1_555 1_555
O13 C48_2 1_555 1_555
Mn7 O13 1_555 1_555
O29_2 H65_2 1_555 1_555
O29_2 H66_2 1_555 1_555
H28_2 C36_2 1_555 1_555
H29_2 C36_2 1_555 1_555
H30_2 C36_2 1_555 1_555
Mn8 O17_2 1_555 1_555
C9_2 H5_2 1_555 1_555
H6_2 C9_2 1_555 1_555
C10_2 C9_2 1_555 1_555
H32_2 C42_2 1_555 1_555
H33_2 C43_2 1_555 1_555
C44_2 C43_2 1_555 1_555
H34_2 C44_2 1_555 1_555
H35_2 C44_2 1_555 1_555
H36_2 C44_2 1_555 1_555
C49_2 H41_2 1_555 1_555
C50_2 H42_2 1_555 1_555
H43_2 C50_2 1_555 1_555
H44_2 C50_2 1_555 1_555
C51_2 H45_2 1_555 1_555
H46_2 C51_2 1_555 1_555
H47_2 C51_2 1_555 1_555
N1_2 C49_2 1_555 1_555
O16 C46_2 1_555 1_555
O17_2 C46_2 1_555 1_555
O18_2 C6_2 1_555 1_555
O19_2 Mn8 1_555 1_555
O20_2 C10_2 1_555 1_555
O24_2 Mn8 1_555 1_555
Mn7 O16 1_555 1_555
C9_2 O18_2 1_555 1_555
C10_2 O19_2 1_555 1_555
C41_2 C42_2 1_555 1_555
C41_2 C43_2 1_555 1_555
C49_2 O24_2 1_555 1_555
C50_2 N1_2 1_555 1_555
C51_2 N1_2 1_555 1_555
Mn7 O7_2 1_555 1_555
H17_2 C23_2 1_555 1_555
C24_2 C23_2 1_555 1_555
H18_2 C24_2 1_555 1_555
H19_2 C24_2 1_555 1_555
H20_2 C24_2 1_555 1_555
C25_2 C23_2 1_555 1_555
C26_2 C25_2 1_555 1_555
C27_2 C26_2 1_555 1_555
C28_2 C27_2 1_555 1_555
C29_2 C28_2 1_555 1_555
H22_2 C29_2 1_555 1_555
C30_2 C25_2 1_555 1_555
C31_2 H23_2 1_555 1_555
H24_2 C31_2 1_555 1_555
C32_2 C31_2 1_555 1_555
C33_2 H25_2 1_555 1_555
H26_2 C33_2 1_555 1_555
C34_2 C33_2 1_555 1_555
C35_2 C27_2 1_555 1_555
O6_2 C30_2 1_555 1_555
O7_2 C32_2 1_555 1_555
O8_2 Mn7 1_555 1_555
O9_2 C28_2 1_555 1_555
O10 C34_2 1_555 1_555
C29_2 C30_2 1_555 1_555
C31_2 O6_2 1_555 1_555
C32_2 O8_2 1_555 1_555
C33_2 O9_2 1_555 1_555
C52 H49 1_555 1_555
H50 C52 1_555 1_555
H51 C52 1_555 1_555
C53 H52 1_555 1_555
H53 C53 1_555 1_555
H54 C53 1_555 1_555
N2 C52 1_555 1_555
C53 N2 1_555 1_555
N2 H55 1_555 1_555
N2 H56 1_555 1_555
C52_2 H49_2 1_555 1_555
H50_2 C52_2 1_555 1_555
H51_2 C52_2 1_555 1_555
C53_2 H52_2 1_555 1_555
H53_2 C53_2 1_555 1_555
H54_2 C53_2 1_555 1_555
N2_2 C52_2 1_555 1_555
C53_2 N2_2 1_555 1_555
N2_2 H55_2 1_555 1_555
N2_2 H56_2 1_555 1_555

#END
