
###############################################################################
#
# This file contains modified crystal structure data generated from the
# MOF subset of the Cambridge Structural Database (CSD) v543 
# hosted by the Cambridge Crystallographic Data Centre (CCDC).
#
# This work is licensed under the Creative Commons
# Attribution-NonCommercial-ShareAlike 4.0 International License.
# To view a copy of this license, visit
# http://creativecommons.org/licenses/by-nc-sa/4.0/
# or send a letter to
# Creative Commons, PO Box 1866, Mountain View, CA 94042, USA.
#
# CIF created using the CSD Python API on 29 September 2022
# The structure has been converted into the P1 space group
# The structure has a 3D framework
# The original CSD entry DONKOI is in the trigonal crystal system
# The original CSD entry DONKOI is in a Sohncke space group
# The framework has been calculated to contain at least 10.0% void space
# The void calculation uses a probe of radius 1.32A, grid spacing 0.4
# H atom positions have been added when not included in the experimental data
#
###############################################################################

data_DONKOI
_chemical_formula_moiety         '(C162 H210 N6 Ni12 O102)n'
_symmetry_cell_setting           triclinic
_symmetry_space_group_name_H-M   'P 1'
_symmetry_Int_Tables_number      1
_space_group_name_Hall           'P 1'
loop_
_symmetry_equiv_pos_site_id
_symmetry_equiv_pos_as_xyz
1 x,y,z
_cell_length_a                   16.7190(7)
_cell_length_b                   16.7190(7)
_cell_length_c                   24.5980(10)
_cell_angle_alpha                90
_cell_angle_beta                 90
_cell_angle_gamma                120
_cell_volume                     5954.58
loop_
_atom_site_label
_atom_site_type_symbol
_atom_site_fract_x
_atom_site_fract_y
_atom_site_fract_z
C1 C 0.0462(6) 0.8292(7) 0.5599(4)
H1 H 0.1007 0.8331 0.5445
H2 H 0.0517 0.8331 0.5988
H3 H 0.0389 0.8791 0.5465
H42 H 0.0277 0.6388 0.3862
C45 C 0.0024(5) 0.6794(5) 0.4581(3)
C50 C 0.0934(6) 0.6090(7) 0.4696(3)
H46 H 0.1345 0.6492 0.4414
H47 H 0.0492 0.5511 0.4526
C51 C 0.1483(6) 0.5913(6) 0.5110(3)
O27 O 0.0458(4) 0.6504(4) 0.4931(2)
O28 O 0.1354(6) 0.5959(6) 0.5597(2)
O29 O 0.2046(3) 0.5698(4) 0.49196(19)
Ni4 Ni 0.25632(7) 0.49459(7) 0.53123(4)
O31 O 0.3096(5) 0.4223(5) 0.5695(2)
O32 O 0.2348(5) 0.5354(5) 0.6087(2)
O34 O 0.1237(5) 0.3856(5) 0.5338(3)
Ni6 Ni 0.27748(9) 0.59190(7) 0.41717(4)
O38 O 0.3871(4) 0.6041(4) 0.5370(2)
O39 O 0.2764(5) 0.4757(4) 0.45059(18)
H57 H 0.353116 0.461275 0.598424
H58 H 0.258556 0.365367 0.585965
H59 H 0.0995138 0.368109 0.496203
H60 H 0.123091 0.332213 0.551905
H61 H 0.168162 0.514229 0.613483
H62 H 0.254988 0.507388 0.637294
Ni2 Ni 0.49459(7) 0.25632(7) 0.46877(4)
H15 H 0.6388 0.0277 0.6138
C18 C 0.6794(5) 0.0024(5) 0.5419(3)
C23 C 0.6090(7) 0.0934(6) 0.5304(3)
H19 H 0.6492 0.1345 0.5586
H20 H 0.5511 0.0492 0.5474
C24 C 0.5913(6) 0.1483(6) 0.4890(3)
O10 O 0.6504(4) 0.0458(4) 0.5069(2)
O11 O 0.5959(6) 0.1354(6) 0.4403(2)
O12 O 0.5698(4) 0.2046(3) 0.50804(19)
O14 O 0.4223(5) 0.3096(5) 0.4305(2)
O15 O 0.5354(5) 0.2348(5) 0.3913(2)
O17 O 0.3856(5) 0.1237(5) 0.4662(3)
C28 C 0.8292(7) 0.0462(6) 0.4401(4)
H28 H 0.8331 0.1007 0.4555
H29 H 0.8331 0.0517 0.4012
H30 H 0.8791 0.0389 0.4535
Ni8 Ni 0.59190(7) 0.27748(9) 0.58283(4)
O37 O 0.6041(4) 0.3871(4) 0.4630(2)
O40 O 0.4757(4) 0.2764(5) 0.54941(18)
H63 H 0.368109 0.0995138 0.503797
H64 H 0.332213 0.123091 0.448095
H65 H 0.514229 0.168162 0.386517
H66 H 0.507388 0.254988 0.362706
H69 H 0.461275 0.353116 0.401576
H70 H 0.365367 0.258556 0.414035
Ni1 Ni 0.40810(7) 0.68558(6) 0.75050(4)
C2 C 0.9621(5) 0.7374(6) 0.5440(3)
H4 H 0.9706 0.6884 0.5598
C3 C 0.8726(5) 0.7259(5) 0.5671(3)
C4 C 0.7877(5) 0.6416(5) 0.5583(3)
C5 C 0.7052(5) 0.6261(5) 0.5793(3)
H5 H 0.6514 0.5699 0.5736
C6 C 0.7031(5) 0.6961(4) 0.6095(3)
C7 C 0.7832(5) 0.7817(5) 0.6169(3)
C8 C 0.8651(5) 0.7917(5) 0.5960(2)
H6 H 0.9190 0.8475 0.6022
C9 C 0.7306(6) 0.5304(5) 0.4874(3)
H7 H 0.7630 0.5348 0.4538
H8 H 0.6960 0.5622 0.4820
C10 C 0.6640(6) 0.4299(5) 0.4997(3)
C11 C 0.5445(5) 0.5966(5) 0.6326(3)
H9 H 0.5611 0.5518 0.6452
H10 H 0.5216 0.5805 0.5957
C12 C 0.4687(5) 0.5927(5) 0.6689(3)
C13 C 0.7787(5) 0.8602(5) 0.6455(3)
H11 H 0.7341 0.8321 0.6752
C14 C 0.8690(6) 0.9306(6) 0.6714(4)
H12 H 0.8613 0.9778 0.6886
H13 H 0.9158 0.9579 0.6439
H14 H 0.8871 0.9007 0.6980
C15 C 0.7416(5) 0.9074(4) 0.6083(3)
C16 C 0.6981(5) 0.9503(5) 0.6297(3)
C17 C 0.6674(6) 0.9983(5) 0.5977(3)
C19 C 0.7240(5) 0.9569(5) 0.5179(3)
C20 C 0.7530(5) 0.9118(5) 0.5519(3)
H16 H 0.7822 0.8823 0.5366
C21 C 0.5984(6) 0.8820(6) 0.7023(3)
H17 H 0.5837 0.8244 0.6846
H18 H 0.5526 0.8983 0.6915
C22 C 0.5965(6) 0.8701(5) 0.7644(3)
C25 C 0.3249(7) 0.7589(6) 0.6715(4)
H21 H 0.2820 0.7427 0.6994
C26 C 0.3707(11) 0.8133(11) 0.5812(5)
H22 H 0.3516 0.8391 0.5526
H23 H 0.3666 0.7569 0.5689
H24 H 0.4333 0.8564 0.5912
C27 C 0.2353(9) 0.8091(9) 0.6220(5)
H25 H 0.2381 0.8359 0.5870
H26 H 0.2375 0.8501 0.6500
H27 H 0.1788 0.7511 0.6249
N1 N 0.3114(6) 0.7945(6) 0.6278(3)
O1 O 0.7960(4) 0.5750(3) 0.5294(2)
O2 O 0.6739(4) 0.3996(4) 0.5441(2)
O4 O 0.6244(3) 0.6864(3) 0.6330(2)
O5 O 0.3894(3) 0.5259(4) 0.6621(2)
O6 O 0.4907(3) 0.6544(3) 0.7051(2)
O7 O 0.6860(4) 0.9513(3) 0.68646(19)
O8 O 0.6562(6) 0.9286(5) 0.7919(2)
O9 O 0.5243(4) 0.8007(3) 0.78392(18)
O13 O 0.3911(4) 0.7449(4) 0.6788(2)
O16 O 0.2863(4) 0.5651(4) 0.7332(3)
C29 C 0.7374(6) 0.9621(5) 0.4560(3)
H31 H 0.6884 0.9706 0.4402
C30 C 0.7259(5) 0.8726(5) 0.4329(3)
C31 C 0.6416(5) 0.7877(5) 0.4417(3)
C32 C 0.6261(5) 0.7052(5) 0.4207(3)
H32 H 0.5699 0.6514 0.4264
C33 C 0.6961(4) 0.7031(5) 0.3905(3)
C34 C 0.7817(5) 0.7832(5) 0.3831(3)
C35 C 0.7917(5) 0.8651(5) 0.4040(2)
H33 H 0.8475 0.9190 0.3978
C36 C 0.5304(5) 0.7306(6) 0.5126(3)
H34 H 0.5348 0.7630 0.5462
H35 H 0.5622 0.6960 0.5180
C37 C 0.4299(5) 0.6640(6) 0.5003(3)
C38 C 0.5966(5) 0.5445(5) 0.3674(3)
H36 H 0.5518 0.5611 0.3548
H37 H 0.5805 0.5216 0.4043
C39 C 0.5927(5) 0.4687(5) 0.3311(3)
C40 C 0.8602(5) 0.7787(5) 0.3545(3)
H38 H 0.8321 0.7341 0.3248
C41 C 0.9306(6) 0.8690(6) 0.3286(4)
H39 H 0.9778 0.8613 0.3114
H40 H 0.9579 0.9158 0.3561
H41 H 0.9007 0.8871 0.3020
C42 C 0.9074(4) 0.7416(5) 0.3917(3)
C43 C 0.9503(5) 0.6981(5) 0.3703(3)
C44 C 0.9983(5) 0.6674(6) 0.4023(3)
C46 C 0.9569(5) 0.7240(5) 0.4821(3)
C47 C 0.9118(5) 0.7530(5) 0.4481(3)
H43 H 0.8823 0.7822 0.4634
C48 C 0.8820(6) 0.5984(6) 0.2977(3)
H44 H 0.8244 0.5837 0.3154
H45 H 0.8983 0.5526 0.3085
C49 C 0.8701(5) 0.5965(6) 0.2356(3)
O18 O 0.5750(3) 0.7960(4) 0.4706(2)
O19 O 0.3996(4) 0.6739(4) 0.4559(2)
O21 O 0.6864(3) 0.6244(3) 0.3670(2)
O22 O 0.5259(4) 0.3894(3) 0.3379(2)
O23 O 0.6544(3) 0.4907(3) 0.2949(2)
O24 O 0.9513(3) 0.6860(4) 0.31354(19)
O25 O 0.9286(5) 0.6562(6) 0.2081(2)
O26 O 0.8007(3) 0.5243(4) 0.21608(18)
Ni3 Ni 0.68558(6) 0.40810(7) 0.24950(4)
C52 C 0.7589(6) 0.3249(7) 0.3285(4)
H48 H 0.7427 0.2820 0.3006
C53 C 0.8133(11) 0.3707(11) 0.4188(5)
H49 H 0.8391 0.3516 0.4474
H50 H 0.7569 0.3666 0.4311
H51 H 0.8564 0.4333 0.4088
C54 C 0.8091(9) 0.2353(9) 0.3780(5)
H52 H 0.8359 0.2381 0.4130
H53 H 0.8501 0.2375 0.3500
H54 H 0.7511 0.1788 0.3751
N2 N 0.7945(6) 0.3114(6) 0.3722(3)
O30 O 0.7449(4) 0.3911(4) 0.3212(2)
O33 O 0.5651(4) 0.2863(4) 0.2668(3)
Ni10 Ni 0.76173(10) 0.50541(7) 0.13544(4)
Ni11 Ni 0.50541(7) 0.76173(10) 0.86456(4)
O35 O 0.7257(6) 0.3261(4) 0.2108(2)
O36 O 0.3261(4) 0.7257(6) 0.7892(2)
O41 O 0.6348(5) 0.4302(4) 0.17471(19)
O42 O 0.4302(4) 0.6348(5) 0.82529(19)
H55 H 0.511169 0.291074 0.254288
H56 H 0.565791 0.234255 0.247788
H67 H 0.291074 0.511169 0.745712
H68 H 0.234255 0.565791 0.752212
C1_2 C 0.1708(7) 0.2170(9) 0.8932(4)
H1_2 H 0.1669 0.2676 0.8778
H2_2 H 0.1669 0.2186 0.9321
H3_2 H 0.1209 0.1598 0.8798
C2_2 C 0.2626(6) 0.2247(8) 0.8773(3)
H4_2 H 0.3116 0.2822 0.8931
C3_2 C 0.2741(5) 0.1467(7) 0.9004(3)
C4_2 C 0.3584(5) 0.1461(7) 0.8916(3)
C5_2 C 0.3739(5) 0.0791(7) 0.9126(3)
H5_2 H 0.4301 0.0815 0.9069
C6_2 C 0.3039(4) 0.0070(6) 0.9428(3)
C7_2 C 0.2183(5) 0.0015(7) 0.9502(3)
C8_2 C 0.2083(5) 0.0734(7) 0.9293(2)
H6_2 H 0.1525 0.0715 0.9355
C9_2 C 0.4696(5) 0.2002(8) 0.8207(3)
H7_2 H 0.4652 0.2282 0.7871
H8_2 H 0.4378 0.1338 0.8153
C10_2 C 0.5701(5) 0.2341(8) 0.8330(3)
H9_2 H 0.4482 0.0093 0.9785
O1_2 O 0.4250(3) 0.2210(5) 0.8627(2)
O2_2 O 0.6004(4) 0.2743(6) 0.8774(2)
O3 O 0.6129(4) 0.2170(6) 0.7963(2)
C38_2 C 0.4555(5) 0.0521(7) 0.7007(3)
H37_2 H 0.4784 0.0589 0.7376
C39_2 C 0.5313(5) 0.1240(7) 0.6644(3)
C40_2 C 0.2213(5) 0.0815(7) 0.6878(3)
H38_2 H 0.2659 0.0980 0.6581
C41_2 C 0.1310(6) 0.0616(8) 0.6619(4)
H39_2 H 0.1387 0.1165 0.6447
H40_2 H 0.0842 0.0421 0.6894
H41_2 H 0.1129 0.0136 0.6353
C42_2 C 0.2584(5) 0.1658(6) 0.7250(3)
C43_2 C 0.3019(5) 0.2522(7) 0.7036(3)
C44_2 C 0.3326(6) 0.3309(8) 0.7356(3)
H42_2 H 0.3612 0.3889 0.7195
C45_2 C 0.3206(5) 0.3230(7) 0.7914(3)
C46_2 C 0.2760(5) 0.2329(7) 0.8154(3)
C47_2 C 0.2470(5) 0.1588(7) 0.7814(3)
H43_2 H 0.2178 0.1001 0.7967
C48_2 C 0.4016(6) 0.2836(8) 0.6310(3)
H44_2 H 0.4163 0.2407 0.6487
H45_2 H 0.4474 0.3457 0.6418
C49_2 C 0.4035(6) 0.2736(8) 0.5689(3)
C50_2 C 0.3910(7) 0.4844(9) 0.8029(3)
H46_2 H 0.3508 0.4853 0.7747
H47_2 H 0.4489 0.4981 0.7859
C51_2 C 0.4087(6) 0.5570(8) 0.8443(3)
O21_2 O 0.3756(3) 0.0620(4) 0.7003(2)
O22_2 O 0.6106(3) 0.1365(5) 0.6712(2)
O23_2 O 0.5093(3) 0.1637(4) 0.6282(2)
O24_2 O 0.3140(4) 0.2653(5) 0.64687(19)
O25_2 O 0.3438(6) 0.2724(8) 0.5414(2)
O27_2 O 0.3496(4) 0.3954(6) 0.8264(2)
O28_2 O 0.4041(6) 0.5395(8) 0.8930(2)
C52_2 C 0.6751(7) 0.4340(9) 0.6618(4)
H48_2 H 0.7180 0.4607 0.6339
C53_2 C 0.6293(11) 0.4426(16) 0.7521(5)
H49_2 H 0.6484 0.4875 0.7807
H50_2 H 0.6334 0.3903 0.7644
H51_2 H 0.5667 0.4231 0.7421
C54_2 C 0.7647(9) 0.5738(13) 0.7113(5)
H52_2 H 0.7619 0.5978 0.7463
H53_2 H 0.7625 0.6126 0.6833
H54_2 H 0.8212 0.5723 0.7084
N2_2 N 0.6886(6) 0.4831(8) 0.7055(3)
O30_2 O 0.6089(4) 0.3538(6) 0.6545(2)
O31_2 O 0.5777(5) 0.8873(7) 0.9028(2)
O32_2 O 0.4646(5) 0.6994(7) 0.9420(2)
O33_2 O 0.7137(4) 0.2788(6) 0.6001(3)
O34_2 O 0.6144(5) 0.7381(7) 0.8671(3)
Ni7 Ni 0.72252(9) 0.31442(11) 0.91617(4)
Ni9 Ni 0.74368(7) 0.23827(10) 0.80210(4)
O38_2 O 0.3959(4) 0.7830(6) 0.8703(2)
H55_2 H 0.708926 0.220096 0.587622
H56_2 H 0.765745 0.331536 0.581121
H57_2 H 0.538725 0.891841 0.931758
H58_2 H 0.634633 0.893189 0.919298
H59_2 H 0.631891 0.731405 0.829536
H60_2 H 0.667787 0.790878 0.885239
H61_2 H 0.485771 0.653933 0.946816
H62_2 H 0.492612 0.7476 0.970628
Ni1_2 Ni 0.31442(6) 0.72252(9) 0.08383(4)
C12_2 C 0.4073(5) 0.8760(7) 0.0022(3)
H11_2 H 0.1679 0.9020 0.0085
C14_2 C 0.0694(6) 0.9384(8) 0.0047(4)
H12_2 H 0.0222 0.8835 0.0219
H14_2 H 0.0993 0.9864 0.0313
C21_2 C 0.1180(6) 0.7164(8) 0.0356(3)
H17_2 H 0.1756 0.7593 0.0179
H18_2 H 0.1017 0.6543 0.0248
C22_2 C 0.1299(5) 0.7264(8) 0.0977(3)
C25_2 C 0.2411(6) 0.5660(9) 0.0048(4)
H21_2 H 0.2573 0.5393 0.0327
O6_2 O 0.3456(3) 0.8363(4) 0.0384(2)
O7_2 O 0.0487(3) 0.7347(5) 0.01979(19)
O8_2 O 0.0714(5) 0.7276(8) 0.1252(2)
O9_2 O 0.1993(3) 0.7236(5) 0.11725(18)
O13_2 O 0.2551(4) 0.6462(6) 0.0121(2)
O16_2 O 0.4349(4) 0.7212(6) 0.0665(3)
Ni11_2 Ni 0.23827(10) 0.74368(12) 0.19790(4)
O36_2 O 0.2743(6) 0.6004(7) 0.1226(2)
O42_2 O 0.3652(5) 0.7954(6) 0.15863(19)
H67_2 H 0.488831 0.779904 0.0790449
H68_2 H 0.434209 0.668464 0.0855458
C11_2 C 0.4034(5) 0.9479(7) 0.9659(3)
H10_2 H 0.4195 0.9411 0.9290
C13_2 C 0.1398(5) 0.9185(7) 0.9788(3)
H13_2 H 0.0421 0.9579 0.9772
C15_2 C 0.0926(4) 0.8342(6) 0.9416(3)
C16_2 C 0.0497(5) 0.7478(7) 0.9630(3)
C17_2 C 0.0017(5) 0.6691(8) 0.9310(3)
C19_2 C 0.0431(5) 0.7671(7) 0.8512(3)
C20_2 C 0.0882(5) 0.8412(7) 0.8852(3)
H16_2 H 0.1177 0.8999 0.8699
C26_2 C 0.1867(11) 0.5574(16) 0.9145(5)
H22_2 H 0.1609 0.5125 0.8859
H23_2 H 0.2431 0.6097 0.9022
H24_2 H 0.1436 0.5769 0.9245
C27_2 C 0.1909(9) 0.4262(13) 0.9553(5)
H25_2 H 0.1641 0.4022 0.9203
H26_2 H 0.1499 0.3874 0.9833
H27_2 H 0.2489 0.4277 0.9582
N1_2 N 0.2055(6) 0.5169(8) 0.9611(3)
O4_2 O 0.3136(3) 0.9380(4) 0.9663(2)
O5_2 O 0.4741(4) 0.8635(5) 0.9954(2)
C29_2 C 0.0379(5) 0.7753(8) 0.7893(3)
H31_2 H 0.0294 0.7178 0.7735
C30_2 C 0.1274(5) 0.8533(7) 0.7662(3)
C31_2 C 0.2123(5) 0.8539(7) 0.7750(3)
C32_2 C 0.2948(5) 0.9209(7) 0.7540(3)
H32_2 H 0.3486 0.9185 0.7597
C33_2 C 0.2969(5) 0.9930(6) 0.7238(3)
C34_2 C 0.2168(5) 0.9985(7) 0.7164(3)
C35_2 C 0.1349(5) 0.9266(7) 0.7373(2)
H33_2 H 0.0810 0.9285 0.7311
C36_2 C 0.2694(6) 0.7998(8) 0.8459(3)
H34_2 H 0.2370 0.7718 0.8795
H35_2 H 0.3040 0.8662 0.8513
C37_2 C 0.3360(6) 0.7659(8) 0.8336(3)
H36_2 H 0.4389 0.9907 0.6881
O18_2 O 0.2040(4) 0.7790(5) 0.8039(2)
H15_2 H 0.9723 0.6111 0.9471
C18_2 C 0.9976(5) 0.6770(7) 0.8752(3)
C23_2 C 0.9066(6) 0.5156(9) 0.8637(3)
H19_2 H 0.8655 0.5147 0.8919
H20_2 H 0.9508 0.5019 0.8807
C24_2 C 0.8517(6) 0.4430(8) 0.8223(3)
O10_2 O 0.9542(4) 0.6046(6) 0.8402(2)
O11_2 O 0.8646(6) 0.4605(8) 0.7736(2)
O12_2 O 0.7954(3) 0.3652(5) 0.84137(19)
O14_2 O 0.6904(5) 0.1127(7) 0.7638(2)
O15_2 O 0.7652(5) 0.3006(7) 0.7246(2)
O17_2 O 0.8763(5) 0.2619(7) 0.7995(3)
C28_2 C 0.9538(6) 0.7830(9) 0.7734(4)
H28_2 H 0.8993 0.7324 0.7888
H29_2 H 0.9483 0.7814 0.7345
H30_2 H 0.9611 0.8402 0.7868
O40_2 O 0.7236(5) 0.1993(6) 0.88275(18)
H63_2 H 0.900486 0.268595 0.83713
H64_2 H 0.876909 0.209122 0.781428
H65_2 H 0.831838 0.346067 0.71985
H66_2 H 0.745012 0.2524 0.696039
H69_2 H 0.646884 0.108159 0.734909
H70_2 H 0.741444 0.106811 0.747369
C11_3 C 0.0521(7) 0.4555(5) 0.2993(3)
H10_3 H 0.0589 0.4784 0.2624
C12_3 C 0.1240(7) 0.5313(5) 0.3356(3)
C13_3 C 0.0815(7) 0.2213(5) 0.3122(3)
H11_3 H 0.0980 0.2659 0.3419
C14_3 C 0.0616(8) 0.1310(6) 0.3381(4)
H12_3 H 0.1165 0.1387 0.3553
H13_3 H 0.0421 0.0842 0.3106
H14_3 H 0.0136 0.1129 0.3647
C15_3 C 0.1658(6) 0.2584(5) 0.2750(3)
C16_3 C 0.2522(7) 0.3019(5) 0.2964(3)
C17_3 C 0.3309(8) 0.3326(6) 0.2644(3)
H15_3 H 0.3889 0.3612 0.2805
C18_3 C 0.3230(7) 0.3206(5) 0.2086(3)
C19_3 C 0.2329(7) 0.2760(5) 0.1846(3)
C20_3 C 0.1588(7) 0.2470(5) 0.2186(3)
H16_3 H 0.1001 0.2178 0.2033
C21_3 C 0.2836(8) 0.4016(6) 0.3690(3)
H17_3 H 0.2407 0.4163 0.3513
H18_3 H 0.3457 0.4474 0.3582
C22_3 C 0.2736(8) 0.4035(6) 0.4311(3)
C23_3 C 0.4844(9) 0.3910(7) 0.1971(3)
H19_3 H 0.4853 0.3508 0.2253
H20_3 H 0.4981 0.4489 0.2141
C24_3 C 0.5570(8) 0.4087(6) 0.1557(3)
C25_3 C 0.4340(9) 0.6751(7) 0.3382(4)
H21_3 H 0.4607 0.7180 0.3661
C26_3 C 0.4426(16) 0.6293(11) 0.2479(5)
H22_3 H 0.4875 0.6484 0.2193
H23_3 H 0.3903 0.6334 0.2356
H24_3 H 0.4231 0.5667 0.2579
C27_3 C 0.5738(13) 0.7647(9) 0.2887(5)
H25_3 H 0.5978 0.7619 0.2537
H26_3 H 0.6126 0.7625 0.3167
H27_3 H 0.5723 0.8212 0.2916
N1_3 N 0.4831(8) 0.6886(6) 0.2945(3)
O4_3 O 0.0620(4) 0.3756(3) 0.2997(2)
O5_3 O 0.1365(5) 0.6106(3) 0.3288(2)
O6_3 O 0.1637(4) 0.5093(3) 0.3718(2)
O7_3 O 0.2653(5) 0.3140(4) 0.35313(19)
O8_3 O 0.2724(8) 0.3438(6) 0.4586(2)
O10_3 O 0.3954(6) 0.3496(4) 0.1736(2)
O11_3 O 0.5395(8) 0.4041(6) 0.1070(2)
O13_3 O 0.3538(6) 0.6089(4) 0.3455(2)
O14_3 O 0.8873(7) 0.5777(5) 0.0972(2)
O15_3 O 0.6994(7) 0.4646(5) 0.0580(2)
O16_3 O 0.2788(6) 0.7137(4) 0.3999(3)
O17_3 O 0.7381(7) 0.6144(5) 0.1329(3)
C28_3 C 0.2170(9) 0.1708(7) 0.1068(4)
H28_3 H 0.2676 0.1669 0.1222
H29_3 H 0.2186 0.1669 0.0679
H30_3 H 0.1598 0.1209 0.1202
C29_3 C 0.2247(8) 0.2626(6) 0.1227(3)
H31_3 H 0.2822 0.3116 0.1069
C30_3 C 0.1467(7) 0.2741(5) 0.0996(3)
C31_3 C 0.1461(7) 0.3584(5) 0.1084(3)
C32_3 C 0.0791(7) 0.3739(5) 0.0874(3)
H32_3 H 0.0815 0.4301 0.0931
C33_3 C 0.0070(6) 0.3039(4) 0.0572(3)
C34_3 C 0.0015(7) 0.2183(5) 0.0498(3)
C35_3 C 0.0734(7) 0.2083(5) 0.0707(2)
H33_3 H 0.0715 0.1525 0.0645
C36_3 C 0.2002(8) 0.4696(5) 0.1793(3)
H34_3 H 0.2282 0.4652 0.2129
H35_3 H 0.1338 0.4378 0.1847
C37_3 C 0.2341(8) 0.5701(5) 0.1670(3)
H36_3 H 0.0093 0.4482 0.0215
O18_3 O 0.2210(5) 0.4250(3) 0.1373(2)
O20 O 0.2170(6) 0.6129(4) 0.2037(2)
O37_2 O 0.7830(6) 0.3959(4) 0.1297(2)
H63_3 H 0.731405 0.631891 0.170464
H64_3 H 0.790878 0.667787 0.114761
H65_3 H 0.653933 0.485771 0.0531837
H66_3 H 0.7476 0.492612 0.0293723
H67_3 H 0.220096 0.708926 0.412378
H68_3 H 0.331536 0.765745 0.418879
H69_3 H 0.891841 0.538725 0.0682422
H70_3 H 0.893189 0.634633 0.0807021
C2_3 C 0.7753(8) 0.0379(5) 0.2107(3)
H4_3 H 0.7178 0.0294 0.2265
C3_3 C 0.8533(7) 0.1274(5) 0.2338(3)
C4_3 C 0.8539(7) 0.2123(5) 0.2250(3)
C5_3 C 0.9209(7) 0.2948(5) 0.2460(3)
H5_3 H 0.9185 0.3486 0.2403
C6_3 C 0.9930(6) 0.2969(5) 0.2762(3)
C7_3 C 0.9985(7) 0.2168(5) 0.2836(3)
C8_3 C 0.9266(7) 0.1349(5) 0.2627(2)
H6_3 H 0.9285 0.0810 0.2689
C9_3 C 0.7998(8) 0.2694(6) 0.1541(3)
H7_3 H 0.7718 0.2370 0.1205
H8_3 H 0.8662 0.3040 0.1487
C10_3 C 0.7659(8) 0.3360(6) 0.1664(3)
H9_3 H 0.9907 0.4389 0.3119
O1_3 O 0.7790(5) 0.2040(4) 0.1961(2)
C38_3 C 0.9479(7) 0.4034(5) 0.0341(3)
H37_3 H 0.9411 0.4195 0.0710
C40_3 C 0.9185(7) 0.1398(5) 0.0212(3)
H40_3 H 0.9579 0.0421 0.0228
C42_3 C 0.8342(6) 0.0926(4) 0.0584(3)
C43_3 C 0.7478(7) 0.0497(5) 0.0370(3)
C44_3 C 0.6691(8) 0.0017(5) 0.0690(3)
C46_3 C 0.7671(7) 0.0431(5) 0.1488(3)
C47_3 C 0.8412(7) 0.0882(5) 0.1148(3)
H43_3 H 0.8999 0.1177 0.1301
O21_3 O 0.9380(4) 0.3136(3) 0.0337(2)
O22_3 O 0.8635(5) 0.4741(4) 0.0046(2)
C53_3 C 0.5574(16) 0.1867(11) 0.0855(5)
H49_3 H 0.5125 0.1609 0.1141
H50_3 H 0.6097 0.2431 0.0978
H51_3 H 0.5769 0.1436 0.0755
C54_3 C 0.4262(13) 0.1909(9) 0.0447(5)
H52_3 H 0.4022 0.1641 0.0797
H53_3 H 0.3874 0.1499 0.0167
H54_3 H 0.4277 0.2489 0.0418
N2_3 N 0.5169(8) 0.2055(6) 0.0389(3)
C39_3 C 0.8760(7) 0.4073(5) 0.9978(3)
H38_3 H 0.9020 0.1679 0.9915
C41_3 C 0.9384(8) 0.0694(6) 0.9953(4)
H39_3 H 0.8835 0.0222 0.9781
H41_3 H 0.9864 0.0993 0.9687
C48_3 C 0.7164(8) 0.1180(6) 0.9644(3)
H44_3 H 0.7593 0.1756 0.9821
H45_3 H 0.6543 0.1017 0.9752
C49_3 C 0.7264(8) 0.1299(5) 0.9023(3)
O23_3 O 0.8363(4) 0.3456(3) 0.9616(2)
O24_3 O 0.7347(5) 0.0487(3) 0.98021(19)
O25_3 O 0.7276(8) 0.0714(5) 0.8748(2)
C52_3 C 0.5660(9) 0.2411(6) 0.9952(4)
H48_3 H 0.5393 0.2573 0.9673
O30_3 O 0.6462(6) 0.2551(4) 0.9879(2)
O33_3 O 0.7212(6) 0.4349(4) 0.9335(3)
H55_3 H 0.779904 0.488831 0.920955
H56_3 H 0.668464 0.434209 0.914454
C1_3 C 0.7830(9) 0.9538(6) 0.2266(4)
H1_3 H 0.7324 0.8993 0.2112
H2_3 H 0.7814 0.9483 0.2655
H3_3 H 0.8402 0.9611 0.2132
H42_3 H 0.6111 0.9723 0.0529
C45_3 C 0.6770(7) 0.9976(5) 0.1248(3)
C50_3 C 0.5156(9) 0.9066(6) 0.1363(3)
H46_3 H 0.5147 0.8655 0.1081
H47_3 H 0.5019 0.9508 0.1193
C51_3 C 0.4430(8) 0.8517(6) 0.1777(3)
O27_3 O 0.6046(6) 0.9542(4) 0.1598(2)
O28_3 O 0.4605(8) 0.8646(6) 0.2264(2)
O31_3 O 0.1127(7) 0.6904(5) 0.2362(2)
O32_3 O 0.3006(7) 0.7652(5) 0.2754(2)
O34_3 O 0.2619(7) 0.8763(5) 0.2005(3)
H57_3 H 0.108159 0.646884 0.265091
H58_3 H 0.106811 0.741444 0.252631
H59_3 H 0.268595 0.900486 0.16287
H60_3 H 0.209122 0.876909 0.218572
H61_3 H 0.346067 0.831838 0.28015
H62_3 H 0.2524 0.745012 0.303961
loop_
_geom_bond_atom_site_label_1
_geom_bond_atom_site_label_2
_geom_bond_site_symmetry_1
_geom_bond_site_symmetry_2
C1 H1 1_555 1_555
H2 C1 1_555 1_555
H3 C1 1_555 1_555
C50 H46 1_555 1_555
H47 C50 1_555 1_555
C51 C50 1_555 1_555
O27 C45 1_555 1_555
O28 C51 1_555 1_555
O29 C51 1_555 1_555
Ni4 O29 1_555 1_555
O31 Ni4 1_555 1_555
O32 Ni4 1_555 1_555
O34 Ni4 1_555 1_555
Ni6 O29 1_555 1_555
O38 Ni4 1_555 1_555
O39 Ni4 1_555 1_555
C50 O27 1_555 1_555
Ni6 O39 1_555 1_555
O31 H57 1_555 1_555
O31 H58 1_555 1_555
O34 H59 1_555 1_555
O34 H60 1_555 1_555
O32 H61 1_555 1_555
O32 H62 1_555 1_555
Ni2 O12 1_555 1_555
C23 H19 1_555 1_555
H20 C23 1_555 1_555
C24 C23 1_555 1_555
O10 C18 1_555 1_555
O11 C24 1_555 1_555
O12 C24 1_555 1_555
O14 Ni2 1_555 1_555
O15 Ni2 1_555 1_555
O17 Ni2 1_555 1_555
C28 H28 1_555 1_555
H29 C28 1_555 1_555
H30 C28 1_555 1_555
Ni8 O12 1_555 1_555
O37 Ni2 1_555 1_555
O40 Ni2 1_555 1_555
C23 O10 1_555 1_555
Ni8 O40 1_555 1_555
O17 H63 1_555 1_555
O17 H64 1_555 1_555
O15 H65 1_555 1_555
O15 H66 1_555 1_555
O14 H69 1_555 1_555
O14 H70 1_555 1_555
Ni1 O6 1_555 1_555
H4 C2 1_555 1_555
C3 C2 1_555 1_555
C4 C3 1_555 1_555
C5 C4 1_555 1_555
H5 C5 1_555 1_555
C6 C5 1_555 1_555
C7 C6 1_555 1_555
C8 C3 1_555 1_555
H6 C8 1_555 1_555
C9 H7 1_555 1_555
H8 C9 1_555 1_555
C10 C9 1_555 1_555
C11 H9 1_555 1_555
H10 C11 1_555 1_555
C12 C11 1_555 1_555
C13 C7 1_555 1_555
H11 C13 1_555 1_555
C14 C13 1_555 1_555
H12 C14 1_555 1_555
H13 C14 1_555 1_555
H14 C14 1_555 1_555
C15 C13 1_555 1_555
C16 C15 1_555 1_555
C17 C16 1_555 1_555
C20 C15 1_555 1_555
H16 C20 1_555 1_555
C21 H17 1_555 1_555
H18 C21 1_555 1_555
C22 C21 1_555 1_555
C25 H21 1_555 1_555
C26 H22 1_555 1_555
H23 C26 1_555 1_555
H24 C26 1_555 1_555
C27 H25 1_555 1_555
H26 C27 1_555 1_555
H27 C27 1_555 1_555
N1 C25 1_555 1_555
O1 C4 1_555 1_555
O2 C10 1_555 1_555
O37 C10 1_555 1_555
O4 C6 1_555 1_555
O5 C12 1_555 1_555
O6 C12 1_555 1_555
O7 C16 1_555 1_555
O8 C22 1_555 1_555
O9 Ni1 1_555 1_555
O13 Ni1 1_555 1_555
O16 Ni1 1_555 1_555
C29 C19 1_555 1_555
H31 C29 1_555 1_555
C30 C29 1_555 1_555
C31 C30 1_555 1_555
C32 C31 1_555 1_555
H32 C32 1_555 1_555
C33 C32 1_555 1_555
C34 C33 1_555 1_555
C35 C30 1_555 1_555
H33 C35 1_555 1_555
C36 H34 1_555 1_555
H35 C36 1_555 1_555
C37 C36 1_555 1_555
C38 H36 1_555 1_555
H37 C38 1_555 1_555
C39 C38 1_555 1_555
C40 C34 1_555 1_555
H38 C40 1_555 1_555
C41 C40 1_555 1_555
H39 C41 1_555 1_555
H40 C41 1_555 1_555
H41 C41 1_555 1_555
C42 C40 1_555 1_555
C43 C42 1_555 1_555
C44 C43 1_555 1_555
C46 C2 1_555 1_555
C47 C42 1_555 1_555
H43 C47 1_555 1_555
C48 H44 1_555 1_555
H45 C48 1_555 1_555
C49 C48 1_555 1_555
O18 C31 1_555 1_555
O19 C37 1_555 1_555
O38 C37 1_555 1_555
O21 C33 1_555 1_555
O22 C39 1_555 1_555
O23 C39 1_555 1_555
O24 C43 1_555 1_555
O25 C49 1_555 1_555
O26 C49 1_555 1_555
Ni3 O23 1_555 1_555
C52 H48 1_555 1_555
C53 H49 1_555 1_555
H50 C53 1_555 1_555
H51 C53 1_555 1_555
C54 H52 1_555 1_555
H53 C54 1_555 1_555
H54 C54 1_555 1_555
N2 C52 1_555 1_555
O30 Ni3 1_555 1_555
O33 Ni3 1_555 1_555
Ni6 O19 1_555 1_555
Ni8 O2 1_555 1_555
Ni10 O26 1_555 1_555
Ni11 O9 1_555 1_555
O35 Ni3 1_555 1_555
O36 Ni1 1_555 1_555
O41 Ni3 1_555 1_555
O42 Ni1 1_555 1_555
C7 C8 1_555 1_555
C9 O1 1_555 1_555
C11 O4 1_555 1_555
C19 C20 1_555 1_555
C21 O7 1_555 1_555
C22 O9 1_555 1_555
C25 O13 1_555 1_555
C26 N1 1_555 1_555
C27 N1 1_555 1_555
C34 C35 1_555 1_555
C36 O18 1_555 1_555
C38 O21 1_555 1_555
C46 C47 1_555 1_555
C48 O24 1_555 1_555
O26 Ni3 1_555 1_555
C52 O30 1_555 1_555
C53 N2 1_555 1_555
C54 N2 1_555 1_555
Ni10 O41 1_555 1_555
Ni11 O42 1_555 1_555
O33 H55 1_555 1_555
O33 H56 1_555 1_555
O16 H67 1_555 1_555
O16 H68 1_555 1_555
C1_2 H1_2 1_555 1_555
H2_2 C1_2 1_555 1_555
H3_2 C1_2 1_555 1_555
C2_2 C1_2 1_555 1_555
H4_2 C2_2 1_555 1_555
C3_2 C2_2 1_555 1_555
C4_2 C3_2 1_555 1_555
C5_2 C4_2 1_555 1_555
H5_2 C5_2 1_555 1_555
C6_2 C5_2 1_555 1_555
C7_2 C6_2 1_555 1_555
C8_2 C3_2 1_555 1_555
H6_2 C8_2 1_555 1_555
C9_2 H7_2 1_555 1_555
H8_2 C9_2 1_555 1_555
C10_2 C9_2 1_555 1_555
O1_2 C4_2 1_555 1_555
O2_2 C10_2 1_555 1_555
O3 C10_2 1_555 1_555
H37_2 C38_2 1_555 1_555
C39_2 C38_2 1_555 1_555
H38_2 C40_2 1_555 1_555
C41_2 C40_2 1_555 1_555
H39_2 C41_2 1_555 1_555
H40_2 C41_2 1_555 1_555
H41_2 C41_2 1_555 1_555
C42_2 C40_2 1_555 1_555
C43_2 C42_2 1_555 1_555
C44_2 C43_2 1_555 1_555
H42_2 C44_2 1_555 1_555
C45_2 C44_2 1_555 1_555
C46_2 C2_2 1_555 1_555
C47_2 C42_2 1_555 1_555
H43_2 C47_2 1_555 1_555
C48_2 H44_2 1_555 1_555
H45_2 C48_2 1_555 1_555
C49_2 C48_2 1_555 1_555
C50_2 H46_2 1_555 1_555
H47_2 C50_2 1_555 1_555
C51_2 C50_2 1_555 1_555
O22_2 C39_2 1_555 1_555
O23_2 C39_2 1_555 1_555
O24_2 C43_2 1_555 1_555
O25_2 C49_2 1_555 1_555
O40 C49_2 1_555 1_555
O27_2 C45_2 1_555 1_555
O28_2 C51_2 1_555 1_555
O42 C51_2 1_555 1_555
Ni8 O23_2 1_555 1_555
C52_2 H48_2 1_555 1_555
C53_2 H49_2 1_555 1_555
H50_2 C53_2 1_555 1_555
H51_2 C53_2 1_555 1_555
C54_2 H52_2 1_555 1_555
H53_2 C54_2 1_555 1_555
H54_2 C54_2 1_555 1_555
N2_2 C52_2 1_555 1_555
O30_2 Ni8 1_555 1_555
O31_2 Ni11 1_555 1_555
O32_2 Ni11 1_555 1_555
O33_2 Ni8 1_555 1_555
O34_2 Ni11 1_555 1_555
Ni7 O2_2 1_555 1_555
Ni9 O3 1_555 1_555
O38_2 Ni11 1_555 1_555
C7_2 C8_2 1_555 1_555
C9_2 O1_2 1_555 1_555
C38_2 O21_2 1_555 1_555
C45_2 C46_2 1_555 1_555
C46_2 C47_2 1_555 1_555
C48_2 O24_2 1_555 1_555
C50_2 O27_2 1_555 1_555
C52_2 O30_2 1_555 1_555
C53_2 N2_2 1_555 1_555
C54_2 N2_2 1_555 1_555
O33_2 H55_2 1_555 1_555
O33_2 H56_2 1_555 1_555
O31_2 H57_2 1_555 1_555
O31_2 H58_2 1_555 1_555
O34_2 H59_2 1_555 1_555
O34_2 H60_2 1_555 1_555
O32_2 H61_2 1_555 1_555
O32_2 H62_2 1_555 1_555
Ni1_2 O6_2 1_555 1_555
H12_2 C14_2 1_555 1_555
H14_2 C14_2 1_555 1_555
C21_2 H17_2 1_555 1_555
H18_2 C21_2 1_555 1_555
C22_2 C21_2 1_555 1_555
C25_2 H21_2 1_555 1_555
O6_2 C12_2 1_555 1_555
O8_2 C22_2 1_555 1_555
O9_2 Ni1_2 1_555 1_555
O13_2 Ni1_2 1_555 1_555
O16_2 Ni1_2 1_555 1_555
Ni11_2 O9_2 1_555 1_555
O36_2 Ni1_2 1_555 1_555
O42_2 Ni1_2 1_555 1_555
C21_2 O7_2 1_555 1_555
C22_2 O9_2 1_555 1_555
C25_2 O13_2 1_555 1_555
Ni11_2 O42_2 1_555 1_555
O16_2 H67_2 1_555 1_555
O16_2 H68_2 1_555 1_555
H10_2 C11_2 1_555 1_555
C15_2 C13_2 1_555 1_555
C16_2 C15_2 1_555 1_555
C17_2 C16_2 1_555 1_555
C20_2 C15_2 1_555 1_555
H16_2 C20_2 1_555 1_555
C26_2 H22_2 1_555 1_555
H23_2 C26_2 1_555 1_555
H24_2 C26_2 1_555 1_555
C27_2 H25_2 1_555 1_555
H26_2 C27_2 1_555 1_555
H27_2 C27_2 1_555 1_555
C29_2 C19_2 1_555 1_555
H31_2 C29_2 1_555 1_555
C30_2 C29_2 1_555 1_555
C31_2 C30_2 1_555 1_555
C32_2 C31_2 1_555 1_555
H32_2 C32_2 1_555 1_555
C33_2 C32_2 1_555 1_555
C34_2 C33_2 1_555 1_555
C35_2 C30_2 1_555 1_555
H33_2 C35_2 1_555 1_555
C36_2 H34_2 1_555 1_555
H35_2 C36_2 1_555 1_555
C37_2 C36_2 1_555 1_555
O18_2 C31_2 1_555 1_555
O36 C37_2 1_555 1_555
O38_2 C37_2 1_555 1_555
C11_2 O4_2 1_555 1_555
C19_2 C20_2 1_555 1_555
C26_2 N1_2 1_555 1_555
C27_2 N1_2 1_555 1_555
C34_2 C35_2 1_555 1_555
C36_2 O18_2 1_555 1_555
Ni9 O12_2 1_555 1_555
C23_2 H19_2 1_555 1_555
H20_2 C23_2 1_555 1_555
C24_2 C23_2 1_555 1_555
O10_2 C18_2 1_555 1_555
O11_2 C24_2 1_555 1_555
O12_2 C24_2 1_555 1_555
O14_2 Ni9 1_555 1_555
O15_2 Ni9 1_555 1_555
O17_2 Ni9 1_555 1_555
C28_2 H28_2 1_555 1_555
H29_2 C28_2 1_555 1_555
H30_2 C28_2 1_555 1_555
Ni7 O12_2 1_555 1_555
O40_2 Ni9 1_555 1_555
C23_2 O10_2 1_555 1_555
Ni7 O40_2 1_555 1_555
O17_2 H63_2 1_555 1_555
O17_2 H64_2 1_555 1_555
O15_2 H65_2 1_555 1_555
O15_2 H66_2 1_555 1_555
O14_2 H69_2 1_555 1_555
O14_2 H70_2 1_555 1_555
Ni6 O6_3 1_555 1_555
H10_3 C11_3 1_555 1_555
C12_3 C11_3 1_555 1_555
H11_3 C13_3 1_555 1_555
C14_3 C13_3 1_555 1_555
H12_3 C14_3 1_555 1_555
H13_3 C14_3 1_555 1_555
H14_3 C14_3 1_555 1_555
C15_3 C13_3 1_555 1_555
C16_3 C15_3 1_555 1_555
C17_3 C16_3 1_555 1_555
H15_3 C17_3 1_555 1_555
C18_3 C17_3 1_555 1_555
C19_3 C18_3 1_555 1_555
C20_3 C15_3 1_555 1_555
H16_3 C20_3 1_555 1_555
C21_3 H17_3 1_555 1_555
H18_3 C21_3 1_555 1_555
C22_3 C21_3 1_555 1_555
C23_3 H19_3 1_555 1_555
H20_3 C23_3 1_555 1_555
C24_3 C23_3 1_555 1_555
C25_3 H21_3 1_555 1_555
C26_3 H22_3 1_555 1_555
H23_3 C26_3 1_555 1_555
H24_3 C26_3 1_555 1_555
C27_3 H25_3 1_555 1_555
H26_3 C27_3 1_555 1_555
H27_3 C27_3 1_555 1_555
N1_3 C25_3 1_555 1_555
O5_3 C12_3 1_555 1_555
O6_3 C12_3 1_555 1_555
O7_3 C16_3 1_555 1_555
O8_3 C22_3 1_555 1_555
O10_3 C18_3 1_555 1_555
O11_3 C24_3 1_555 1_555
O41 C24_3 1_555 1_555
O13_3 Ni6 1_555 1_555
O14_3 Ni10 1_555 1_555
O15_3 Ni10 1_555 1_555
O16_3 Ni6 1_555 1_555
O17_3 Ni10 1_555 1_555
C28_3 H28_3 1_555 1_555
H29_3 C28_3 1_555 1_555
H30_3 C28_3 1_555 1_555
C29_3 C19_3 1_555 1_555
H31_3 C29_3 1_555 1_555
C30_3 C29_3 1_555 1_555
C31_3 C30_3 1_555 1_555
C32_3 C31_3 1_555 1_555
H32_3 C32_3 1_555 1_555
C33_3 C32_3 1_555 1_555
C34_3 C33_3 1_555 1_555
C35_3 C30_3 1_555 1_555
H33_3 C35_3 1_555 1_555
C36_3 H34_3 1_555 1_555
H35_3 C36_3 1_555 1_555
C37_3 C36_3 1_555 1_555
O18_3 C31_3 1_555 1_555
O36_2 C37_3 1_555 1_555
O20 C37_3 1_555 1_555
Ni11_2 O20 1_555 1_555
O37_2 Ni10 1_555 1_555
C11_3 O4_3 1_555 1_555
C19_3 C20_3 1_555 1_555
C21_3 O7_3 1_555 1_555
C22_3 O39 1_555 1_555
C23_3 O10_3 1_555 1_555
C25_3 O13_3 1_555 1_555
C26_3 N1_3 1_555 1_555
C27_3 N1_3 1_555 1_555
C28_3 C29_3 1_555 1_555
C34_3 C35_3 1_555 1_555
C36_3 O18_3 1_555 1_555
O17_3 H63_3 1_555 1_555
O17_3 H64_3 1_555 1_555
O15_3 H65_3 1_555 1_555
O15_3 H66_3 1_555 1_555
O16_3 H67_3 1_555 1_555
O16_3 H68_3 1_555 1_555
O14_3 H69_3 1_555 1_555
O14_3 H70_3 1_555 1_555
H4_3 C2_3 1_555 1_555
C3_3 C2_3 1_555 1_555
C4_3 C3_3 1_555 1_555
C5_3 C4_3 1_555 1_555
H5_3 C5_3 1_555 1_555
C6_3 C5_3 1_555 1_555
C7_3 C6_3 1_555 1_555
C8_3 C3_3 1_555 1_555
H6_3 C8_3 1_555 1_555
C9_3 H7_3 1_555 1_555
H8_3 C9_3 1_555 1_555
C10_3 C9_3 1_555 1_555
O1_3 C4_3 1_555 1_555
O35 C10_3 1_555 1_555
O37_2 C10_3 1_555 1_555
H37_3 C38_3 1_555 1_555
C42_3 C40_3 1_555 1_555
C43_3 C42_3 1_555 1_555
C44_3 C43_3 1_555 1_555
C46_3 C2_3 1_555 1_555
C47_3 C42_3 1_555 1_555
H43_3 C47_3 1_555 1_555
C53_3 H49_3 1_555 1_555
H50_3 C53_3 1_555 1_555
H51_3 C53_3 1_555 1_555
C54_3 H52_3 1_555 1_555
H53_3 C54_3 1_555 1_555
H54_3 C54_3 1_555 1_555
C7_3 C8_3 1_555 1_555
C9_3 O1_3 1_555 1_555
C38_3 O21_3 1_555 1_555
C46_3 C47_3 1_555 1_555
C53_3 N2_3 1_555 1_555
C54_3 N2_3 1_555 1_555
H39_3 C41_3 1_555 1_555
H41_3 C41_3 1_555 1_555
C48_3 H44_3 1_555 1_555
H45_3 C48_3 1_555 1_555
C49_3 C48_3 1_555 1_555
O23_3 C39_3 1_555 1_555
O25_3 C49_3 1_555 1_555
O40_2 C49_3 1_555 1_555
Ni7 O23_3 1_555 1_555
C52_3 H48_3 1_555 1_555
O30_3 Ni7 1_555 1_555
O33_3 Ni7 1_555 1_555
C48_3 O24_3 1_555 1_555
C52_3 O30_3 1_555 1_555
O33_3 H55_3 1_555 1_555
O33_3 H56_3 1_555 1_555
C1_3 H1_3 1_555 1_555
H2_3 C1_3 1_555 1_555
H3_3 C1_3 1_555 1_555
C50_3 H46_3 1_555 1_555
H47_3 C50_3 1_555 1_555
C51_3 C50_3 1_555 1_555
O27_3 C45_3 1_555 1_555
O28_3 C51_3 1_555 1_555
O42_2 C51_3 1_555 1_555
O31_3 Ni11_2 1_555 1_555
O32_3 Ni11_2 1_555 1_555
O34_3 Ni11_2 1_555 1_555
C50_3 O27_3 1_555 1_555
O31_3 H57_3 1_555 1_555
O31_3 H58_3 1_555 1_555
O34_3 H59_3 1_555 1_555
O34_3 H60_3 1_555 1_555
O32_3 H61_3 1_555 1_555
O32_3 H62_3 1_555 1_555

#END
