
###############################################################################
#
# This file contains modified crystal structure data generated from the
# MOF subset of the Cambridge Structural Database (CSD) v543 
# hosted by the Cambridge Crystallographic Data Centre (CCDC).
#
# This work is licensed under the Creative Commons
# Attribution-NonCommercial-ShareAlike 4.0 International License.
# To view a copy of this license, visit
# http://creativecommons.org/licenses/by-nc-sa/4.0/
# or send a letter to
# Creative Commons, PO Box 1866, Mountain View, CA 94042, USA.
#
# CIF created using the CSD Python API on 29 September 2022
# The structure has been converted into the P1 space group
# The structure has a 3D framework
# The original CSD entry DONNEA is in the monoclinic crystal system
# The framework has been calculated to contain at least 10.0% void space
# The void calculation uses a probe of radius 1.32A, grid spacing 0.4
# H atom positions have been added when not included in the experimental data
# Generated hydrogen atom positions removed from atoms on special positions
#
###############################################################################

data_DONNEA
_chemical_formula_moiety         '(C32 H23 Ga6 O19)n'
_symmetry_cell_setting           triclinic
_symmetry_space_group_name_H-M   'P 1'
_symmetry_Int_Tables_number      1
_space_group_name_Hall           'P 1'
loop_
_symmetry_equiv_pos_site_id
_symmetry_equiv_pos_as_xyz
1 x,y,z
_cell_length_a                   19.1213(16)
_cell_length_b                   11.0629(9)
_cell_length_c                   6.7261(6)
_cell_angle_alpha                90
_cell_angle_beta                 108.512(1)
_cell_angle_gamma                90
_cell_volume                     1349.2
loop_
_atom_site_label
_atom_site_type_symbol
_atom_site_fract_x
_atom_site_fract_y
_atom_site_fract_z
Ga1 Ga 0.0000 0.0000 0.0000
O2 O -0.0000 0.0785(2) 0.2500
H3 H 0.0000 0.1516(10) 0.2500
Ga2 Ga 0.0000 -0.0000 0.5000
Ga1_2 Ga 0.0000 -0.0000 1.0000
O9 O 0.0713(1) 0.1246(2) 0.9682(2)
Ga3 Ga 0.5000 0.5000 0.0000
Ga1_3 Ga -0.0000 1.0000 0.0000
O1 O 0.0877(1) 0.9010(2) 0.1548(2)
O3 O 0.0713(1) 0.8754(2) 0.4682(2)
C1 C 0.1075(1) 0.8657(2) 0.3426(3)
C2 C 0.1813(1) 0.8053(2) 0.4228(4)
C3 C 0.2074(1) 0.7658(3) 0.6292(4)
H1 H 0.1790 0.7766 0.7172
C4 C 0.2245(2) 0.7893(3) 0.2959(4)
H2 H 0.2076 0.8160 0.1577
Ga2_2 Ga 0.0000 1.0000 0.5000
Ga3_2 Ga 0.5000 0.5000 1.0000
Ga4 Ga 0.5000 0.5000 0.5000
O4 O 0.4123(1) 0.5990(2) 0.8452(2)
O7 O 0.4287(1) 0.6246(2) 0.5318(2)
C5 C 0.3925(1) 0.6343(2) 0.6574(3)
C6 C 0.3187(1) 0.6947(2) 0.5772(4)
C7 C 0.2926(1) 0.7342(3) 0.3708(4)
H4 H 0.3210 0.7234 0.2828
C8 C 0.2755(2) 0.7107(3) 0.7041(4)
H5 H 0.2924 0.6840 0.8423
Ga1_4 Ga 0.0000 1.0000 1.0000
O6 O 0.0000 0.9215(2) 0.7500
H6 H 0.0000 0.8484(10) 0.7500
H7 H 0.0447157 0.948456 0.717563
Ga1_5 Ga 1.0000 0.0000 0.0000
O2_2 O 1.0000 0.0785(2) 0.2500
H3_2 H 1.0000 0.1516(10) 0.2500
Ga2_3 Ga 1.0000 -0.0000 0.5000
Ga1_6 Ga 1.0000 -0.0000 1.0000
O5 O 0.9123(1) 0.0990(2) 0.8452(2)
Ga1_7 Ga 1.0000 1.0000 0.0000
Ga2_4 Ga 1.0000 1.0000 0.5000
O8 O 0.9287(1) 0.8754(2) 0.0318(2)
Ga1_8 Ga 1.0000 1.0000 1.0000
O6_2 O 1.0000 0.9215(2) 0.7500
H6_2 H 1.0000 0.8484(10) 0.7500
O1_2 O 0.5877(1) 0.4010(2) 0.1548(2)
O2_3 O 0.5000 0.5785(2) 0.2500
O3_2 O 0.5713(1) 0.3754(2) 0.4682(2)
C1_2 C 0.6075(1) 0.3657(2) 0.3426(3)
C2_2 C 0.6813(1) 0.3053(2) 0.4228(4)
C3_2 C 0.7074(1) 0.2658(3) 0.6292(4)
H1_2 H 0.6790 0.2766 0.7172
C4_2 C 0.7245(2) 0.2893(3) 0.2959(4)
H2_2 H 0.7076 0.3160 0.1577
O7_2 O 0.9287(1) 0.1246(2) 0.5318(2)
O8_2 O 0.4287(1) 0.3754(2) 0.0318(2)
C5_2 C 0.8925(1) 0.1343(2) 0.6574(3)
C6_2 C 0.8187(1) 0.1947(2) 0.5772(4)
C7_2 C 0.7926(1) 0.2342(3) 0.3708(4)
H4_2 H 0.8210 0.2234 0.2828
C8_2 C 0.7755(2) 0.2107(3) 0.7041(4)
H5_2 H 0.7924 0.1840 0.8423
O6_3 O 0.5000 0.4215(2) 0.7500
O9_2 O 0.5713(1) 0.6246(2) 0.9682(2)
O1_3 O 0.4123(1) 0.4010(2) 0.3452(2)
C1_3 C 0.3925(1) 0.3657(2) 0.1574(3)
C2_3 C 0.3187(1) 0.3053(2) 0.0772(4)
C4_3 C 0.2755(2) 0.2893(3) 0.2041(4)
H2_3 H 0.2924 0.3160 0.3423
O5_2 O 0.5877(1) 0.5990(2) 0.6548(2)
C7_3 C 0.2074(1) 0.2342(3) 0.1292(4)
H4_3 H 0.1790 0.2234 0.2172
C3_3 C 0.2926(1) 0.2658(3) 0.8708(4)
H1_3 H 0.3210 0.2766 0.7828
O4_2 O 0.0877(1) 0.0990(2) 0.6548(2)
C5_3 C 0.1075(1) 0.1343(2) 0.8426(3)
C6_3 C 0.1813(1) 0.1947(2) 0.9228(4)
C8_3 C 0.2245(2) 0.2107(3) 0.7959(4)
H5_3 H 0.2076 0.1840 0.6577
O1_4 O 0.9123(1) 0.9010(2) 0.3452(2)
C1_4 C 0.8925(1) 0.8657(2) 0.1574(3)
C2_4 C 0.8187(1) 0.8053(2) 0.0772(4)
C4_4 C 0.7755(2) 0.7893(3) 0.2041(4)
H2_4 H 0.7924 0.8160 0.3423
C7_4 C 0.7074(1) 0.7342(3) 0.1292(4)
H4_4 H 0.6790 0.7234 0.2172
H7_2 H 0.955284 0.948456 0.782437
C3_4 C 0.7926(1) 0.7658(3) 0.8708(4)
H1_4 H 0.8210 0.7766 0.7828
C5_4 C 0.6075(1) 0.6343(2) 0.8426(3)
C6_4 C 0.6813(1) 0.6947(2) 0.9228(4)
C8_4 C 0.7245(2) 0.7107(3) 0.7959(4)
H5_4 H 0.7076 0.6840 0.6577
H7_3 H 0.955284 0.0515441 0.282437
H7_4 H 0.0447157 0.0515441 0.217563
loop_
_geom_bond_atom_site_label_1
_geom_bond_atom_site_label_2
_geom_bond_site_symmetry_1
_geom_bond_site_symmetry_2
O2 Ga1 1_555 1_555
H3 O2 1_555 1_555
Ga2 O2 1_555 1_555
O9 Ga1_2 1_555 1_555
Ga1_3 O1 1_555 1_555
O1 C1 1_555 1_555
O3 C1 1_555 1_555
C1 C2 1_555 1_555
C2 C3 1_555 1_555
C3 H1 1_555 1_555
C4 C2 1_555 1_555
H2 C4 1_555 1_555
Ga3_2 O4 1_555 1_555
Ga4 O7 1_555 1_555
O4 C5 1_555 1_555
O7 C5 1_555 1_555
C5 C6 1_555 1_555
C6 C7 1_555 1_555
C7 C4 1_555 1_555
H4 C7 1_555 1_555
C8 C3 1_555 1_555
H5 C8 1_555 1_555
O3 Ga2_2 1_555 1_555
C6 C8 1_555 1_555
O6 Ga1_4 1_555 1_555
H6 O6 1_555 1_555
O6 H7 1_555 1_555
O2_2 Ga1_5 1_555 1_555
H3_2 O2_2 1_555 1_555
Ga2_3 O2_2 1_555 1_555
O5 Ga1_6 1_555 1_555
O8 Ga1_7 1_555 1_555
O6_2 Ga1_8 1_555 1_555
H6_2 O6_2 1_555 1_555
Ga3 O1_2 1_555 1_555
O1_2 C1_2 1_555 1_555
O2_3 Ga3 1_555 1_555
O3_2 C1_2 1_555 1_555
C1_2 C2_2 1_555 1_555
C2_2 C3_2 1_555 1_555
C3_2 H1_2 1_555 1_555
C4_2 C2_2 1_555 1_555
H2_2 C4_2 1_555 1_555
Ga4 O2_3 1_555 1_555
Ga2_3 O7_2 1_555 1_555
O5 C5_2 1_555 1_555
O7_2 C5_2 1_555 1_555
O8_2 Ga3 1_555 1_555
C5_2 C6_2 1_555 1_555
C6_2 C7_2 1_555 1_555
C7_2 C4_2 1_555 1_555
H4_2 C7_2 1_555 1_555
C8_2 C3_2 1_555 1_555
H5_2 C8_2 1_555 1_555
O3_2 Ga4 1_555 1_555
C6_2 C8_2 1_555 1_555
O6_3 Ga3_2 1_555 1_555
O9_2 Ga3_2 1_555 1_555
Ga4 O1_3 1_555 1_555
O1_3 C1_3 1_555 1_555
O8_2 C1_3 1_555 1_555
C1_3 C2_3 1_555 1_555
C4_3 C2_3 1_555 1_555
H2_3 C4_3 1_555 1_555
O5_2 Ga4 1_555 1_555
O6_3 Ga4 1_555 1_555
C7_3 C4_3 1_555 1_555
H4_3 C7_3 1_555 1_555
C3_3 H1_3 1_555 1_555
Ga2 O4_2 1_555 1_555
O4_2 C5_3 1_555 1_555
O9 C5_3 1_555 1_555
C5_3 C6_3 1_555 1_555
C8_3 C3_3 1_555 1_555
H5_3 C8_3 1_555 1_555
C6_3 C8_3 1_555 1_555
O6 Ga2_2 1_555 1_555
Ga2_4 O1_4 1_555 1_555
O1_4 C1_4 1_555 1_555
O8 C1_4 1_555 1_555
C1_4 C2_4 1_555 1_555
C4_4 C2_4 1_555 1_555
H2_4 C4_4 1_555 1_555
O6_2 Ga2_4 1_555 1_555
C7_4 C4_4 1_555 1_555
H4_4 C7_4 1_555 1_555
O6_2 H7_2 1_555 1_555
C3_4 H1_4 1_555 1_555
O5_2 C5_4 1_555 1_555
O9_2 C5_4 1_555 1_555
C5_4 C6_4 1_555 1_555
C8_4 C3_4 1_555 1_555
H5_4 C8_4 1_555 1_555
C6_4 C8_4 1_555 1_555
O2_2 H7_3 1_555 1_555
O2 H7_4 1_555 1_555

#END
