
###############################################################################
#
# This file contains modified crystal structure data generated from the
# MOF subset of the Cambridge Structural Database (CSD) v543 
# hosted by the Cambridge Crystallographic Data Centre (CCDC).
#
# This work is licensed under the Creative Commons
# Attribution-NonCommercial-ShareAlike 4.0 International License.
# To view a copy of this license, visit
# http://creativecommons.org/licenses/by-nc-sa/4.0/
# or send a letter to
# Creative Commons, PO Box 1866, Mountain View, CA 94042, USA.
#
# CIF created using the CSD Python API on 29 September 2022
# The structure has been converted into the P1 space group
# The structure has a 3D framework
# The original CSD entry DONNIE is in the orthorhombic crystal system
# The framework has been calculated to contain at least 10.0% void space
# The void calculation uses a probe of radius 1.32A, grid spacing 0.4
#
###############################################################################

data_DONNIE
_chemical_formula_moiety         '(C32 H16 Ga5 O19)n'
_symmetry_cell_setting           triclinic
_symmetry_space_group_name_H-M   'P 1'
_symmetry_Int_Tables_number      1
_space_group_name_Hall           'P 1'
loop_
_symmetry_equiv_pos_site_id
_symmetry_equiv_pos_as_xyz
1 x,y,z
_cell_length_a                   17.287(11)
_cell_length_b                   6.727(5)
_cell_length_c                   12.461(9)
_cell_angle_alpha                90
_cell_angle_beta                 90
_cell_angle_gamma                90
_cell_volume                     1449.09
loop_
_atom_site_label
_atom_site_type_symbol
_atom_site_fract_x
_atom_site_fract_y
_atom_site_fract_z
Ga3 Ga 0.0000 0.0000 0.5000
Ga4 Ga -0.0000 0.5000 0.5000
Ga3_2 Ga 0.0000 1.0000 0.5000
Ga1 Ga 0.5000 0.0000 0.0000
O1 O 0.5000 0.2500 0.0697(6)
Ga2 Ga 0.5000 0.5000 0.0000
Ga1_2 Ga 0.5000 0.0000 1.0000
O2 O 0.5821(2) 0.0836(6) 0.9004(4)
C1 C 0.7164(4) 0.0730(11) 0.7805(9)
C2 C 0.6825(6) 0.2500 0.8107(11)
C3 C 0.6093(5) 0.2500 0.8761(10)
Ga2_2 Ga 0.5000 0.5000 1.0000
Ga3_3 Ga 1.0000 0.0000 0.5000
Ga4_2 Ga 1.0000 0.5000 0.5000
O4 O 0.5821(2) 0.4164(6) 0.9004(4)
O5 O 0.9179(2) 0.0836(6) 0.5996(4)
O6 O 0.9179(2) 0.4164(6) 0.5996(4)
O9 O 0.4179(2) 0.0836(6) 0.9004(4)
C4 C 0.7836(4) 0.0730(11) 0.7195(9)
C5 C 0.7836(4) 0.4270(11) 0.7195(9)
C6 C 0.7164(4) 0.4270(11) 0.7805(9)
H3 H 0.6941 0.5469 0.8011
H4 H 0.8059 0.5469 0.6989
C7 C 0.8175(6) 0.2500 0.6893(11)
C8 C 0.8907(5) 0.2500 0.6239(10)
Ga1_3 Ga 0.5000 1.0000 0.0000
O7 O 0.5821(2) 0.9164(6) 0.0996(4)
O8 O 0.4179(2) 0.9164(6) 0.0996(4)
Ga1_4 Ga 0.5000 1.0000 1.0000
H1 H 0.6941 0.9531 0.8011
Ga3_4 Ga 1.0000 1.0000 0.5000
O3 O 0.5000 0.7500 0.9303(6)
H2 H 0.8059 0.9531 0.6989
O7_2 O 0.4179(2) 0.5836(6) 0.0996(4)
O8_2 O 0.5821(2) 0.5836(6) 0.0996(4)
O2_2 O 0.4179(2) 0.4164(6) 0.9004(4)
C1_2 C 0.2836(4) 0.4270(11) 0.7805(9)
H1_2 H 0.3059 0.5469 0.8011
C2_2 C 0.3175(6) 0.2500 0.8107(11)
C3_2 C 0.3907(5) 0.2500 0.8761(10)
O5_2 O 0.0821(2) 0.4164(6) 0.5996(4)
O6_2 O 0.0821(2) 0.0836(6) 0.5996(4)
C4_2 C 0.2164(4) 0.4270(11) 0.7195(9)
C5_2 C 0.2164(4) 0.0730(11) 0.7195(9)
C6_2 C 0.2836(4) 0.0730(11) 0.7805(9)
H2_2 H 0.1941 0.5469 0.6989
C7_2 C 0.1825(6) 0.2500 0.6893(11)
C8_2 C 0.1093(5) 0.2500 0.6239(10)
H3_2 H 0.3059 0.9531 0.8011
H4_2 H 0.1941 0.9531 0.6989
H3_3 H 0.3059 0.0469 0.1989
H4_3 H 0.1941 0.0469 0.3011
C1_3 C 0.2836(4) 0.5730(11) 0.2195(9)
H1_3 H 0.3059 0.4531 0.1989
C2_3 C 0.3175(6) 0.7500 0.1893(11)
C3_3 C 0.3907(5) 0.7500 0.1239(10)
O5_3 O 0.0821(2) 0.5836(6) 0.4004(4)
O6_3 O 0.0821(2) 0.9164(6) 0.4004(4)
C4_3 C 0.2164(4) 0.5730(11) 0.2805(9)
C5_3 C 0.2164(4) 0.9270(11) 0.2805(9)
C6_3 C 0.2836(4) 0.9270(11) 0.2195(9)
H2_3 H 0.1941 0.4531 0.3011
C7_3 C 0.1825(6) 0.7500 0.3107(11)
C8_3 C 0.1093(5) 0.7500 0.3761(10)
H1_4 H 0.6941 0.0469 0.1989
H2_4 H 0.8059 0.0469 0.3011
C1_4 C 0.7164(4) 0.9270(11) 0.2195(9)
C2_4 C 0.6825(6) 0.7500 0.1893(11)
C3_4 C 0.6093(5) 0.7500 0.1239(10)
O5_4 O 0.9179(2) 0.9164(6) 0.4004(4)
O6_4 O 0.9179(2) 0.5836(6) 0.4004(4)
C4_4 C 0.7836(4) 0.9270(11) 0.2805(9)
C5_4 C 0.7836(4) 0.5730(11) 0.2805(9)
C6_4 C 0.7164(4) 0.5730(11) 0.2195(9)
H3_4 H 0.6941 0.4531 0.1989
H4_4 H 0.8059 0.4531 0.3011
C7_4 C 0.8175(6) 0.7500 0.3107(11)
C8_4 C 0.8907(5) 0.7500 0.3761(10)
O1_2 O -0.0000 0.7500 0.5697(6)
O3_2 O -0.0000 0.2500 0.4303(6)
O1_3 O 1.0000 0.7500 0.5697(6)
O3_3 O 1.0000 0.2500 0.4303(6)
loop_
_geom_bond_atom_site_label_1
_geom_bond_atom_site_label_2
_geom_bond_site_symmetry_1
_geom_bond_site_symmetry_2
Ga1 O1 1_555 1_555
O1 Ga2 1_555 1_555
O2 Ga1_2 1_555 1_555
C2 C1 1_555 1_555
C3 O2 1_555 1_555
Ga2_2 O4 1_555 1_555
Ga3_3 O5 1_555 1_555
Ga4_2 O6 1_555 1_555
O4 C3 1_555 1_555
O5 C8 1_555 1_555
O6 C8 1_555 1_555
O9 Ga1_2 1_555 1_555
C4 C1 1_555 1_555
C5 C6 1_555 1_555
C6 C2 1_555 1_555
H3 C6 1_555 1_555
H4 C5 1_555 1_555
C7 C4 1_555 1_555
C8 C7 1_555 1_555
C2 C3 1_555 1_555
C5 C7 1_555 1_555
O7 Ga1_3 1_555 1_555
O8 Ga1_3 1_555 1_555
O3 Ga1_4 1_555 1_555
O7_2 Ga2 1_555 1_555
O8_2 Ga2 1_555 1_555
O2_2 Ga2_2 1_555 1_555
C1_2 H1_2 1_555 1_555
C2_2 C1_2 1_555 1_555
C3_2 O2_2 1_555 1_555
Ga4 O5_2 1_555 1_555
Ga3 O6_2 1_555 1_555
O3 Ga2_2 1_555 1_555
O9 C3_2 1_555 1_555
O5_2 C8_2 1_555 1_555
O6_2 C8_2 1_555 1_555
C4_2 C1_2 1_555 1_555
C5_2 C6_2 1_555 1_555
C6_2 C2_2 1_555 1_555
H2_2 C4_2 1_555 1_555
C7_2 C4_2 1_555 1_555
C8_2 C7_2 1_555 1_555
C2_2 C3_2 1_555 1_555
C5_2 C7_2 1_555 1_555
C1_3 H1_3 1_555 1_555
C2_3 C1_3 1_555 1_555
C3_3 O7_2 1_555 1_555
Ga4 O5_3 1_555 1_555
Ga3_2 O6_3 1_555 1_555
O8 C3_3 1_555 1_555
O5_3 C8_3 1_555 1_555
O6_3 C8_3 1_555 1_555
C4_3 C1_3 1_555 1_555
C5_3 C6_3 1_555 1_555
C6_3 C2_3 1_555 1_555
H2_3 C4_3 1_555 1_555
C7_3 C4_3 1_555 1_555
C8_3 C7_3 1_555 1_555
C2_3 C3_3 1_555 1_555
C5_3 C7_3 1_555 1_555
C2_4 C1_4 1_555 1_555
C3_4 O7 1_555 1_555
Ga3_4 O5_4 1_555 1_555
Ga4_2 O6_4 1_555 1_555
O8_2 C3_4 1_555 1_555
O5_4 C8_4 1_555 1_555
O6_4 C8_4 1_555 1_555
C4_4 C1_4 1_555 1_555
C5_4 C6_4 1_555 1_555
C6_4 C2_4 1_555 1_555
H3_4 C6_4 1_555 1_555
H4_4 C5_4 1_555 1_555
C7_4 C4_4 1_555 1_555
C8_4 C7_4 1_555 1_555
C2_4 C3_4 1_555 1_555
C5_4 C7_4 1_555 1_555
Ga4 O1_2 1_555 1_555
O1_2 Ga3_2 1_555 1_555
O3_2 Ga4 1_555 1_555
Ga4_2 O1_3 1_555 1_555
O1_3 Ga3_4 1_555 1_555
O3_3 Ga4_2 1_555 1_555
O3_2 Ga3 1_555 1_555
O3_3 Ga3_3 1_555 1_555

#END
