
###############################################################################
#
# This file contains modified crystal structure data generated from the
# MOF subset of the Cambridge Structural Database (CSD) v543 
# hosted by the Cambridge Crystallographic Data Centre (CCDC).
#
# This work is licensed under the Creative Commons
# Attribution-NonCommercial-ShareAlike 4.0 International License.
# To view a copy of this license, visit
# http://creativecommons.org/licenses/by-nc-sa/4.0/
# or send a letter to
# Creative Commons, PO Box 1866, Mountain View, CA 94042, USA.
#
# CIF created using the CSD Python API on 29 September 2022
# The structure has been converted into the P1 space group
# The structure has a 3D framework
# The original CSD entry DONNAW01 is in the orthorhombic crystal system
# The framework has been calculated to contain at least 10.0% void space
# The void calculation uses a probe of radius 1.32A, grid spacing 0.4
#
###############################################################################

data_DONNAW01
_chemical_formula_moiety         '(C32 H16 Ga8 O20)n'
_symmetry_cell_setting           triclinic
_symmetry_space_group_name_H-M   'P 1'
_symmetry_Int_Tables_number      1
_space_group_name_Hall           'P 1'
loop_
_symmetry_equiv_pos_site_id
_symmetry_equiv_pos_as_xyz
1 x,y,z
_cell_length_a                   17.4370(2)
_cell_length_b                   6.7475(4)
_cell_length_c                   12.1541(4)
_cell_angle_alpha                90
_cell_angle_beta                 90
_cell_angle_gamma                90
_cell_volume                     1430
loop_
_atom_site_label
_atom_site_type_symbol
_atom_site_fract_x
_atom_site_fract_y
_atom_site_fract_z
Ga1 Ga -0.00000 0.0000 0.00000
Ga2 Ga -0.00000 0.5000 0.00000
Ga1_2 Ga -0.00000 0.0000 1.00000
Ga2_2 Ga -0.00000 0.5000 1.00000
O9 O 0.08949(10) 0.0826(3) 0.9114(2)
Ga1_3 Ga -0.00000 1.0000 0.00000
O6 O 0.07368(11) 0.9170(3) 0.11416(19)
Ga1_4 Ga -0.00000 1.0000 1.00000
O4 O 0.0064 0.7500 0.9266
Ga1_5 Ga 1.00000 0.0000 0.00000
O1 O 0.9936 0.2500 0.0734
Ga2_3 Ga 1.00000 0.5000 0.00000
Ga1_6 Ga 1.00000 0.0000 1.00000
O2 O 0.92632(11) 0.0830(3) 0.88584(19)
O3 O 0.58949(10) 0.0826(3) 0.5886(2)
C1 C 0.82814(19) 0.2500 0.7914(3)
C2 C 0.89907(17) 0.2500 0.8600(3)
C3 C 0.69218(17) 0.2500 0.6712(3)
C4 C 0.61762(18) 0.2500 0.6108(3)
C5 C 0.79127(17) 0.4288(3) 0.7651(3)
H1 H 0.8119(4) 0.5661(5) 0.7989(9)
C6 C 0.72605(16) 0.4274(3) 0.6995(3)
H2 H 0.7021(9) 0.5647(5) 0.6704(18)
Ga2_4 Ga 1.00000 0.5000 1.00000
Ga3 Ga 0.50000 0.0000 0.50000
Ga4 Ga 0.50000 0.5000 0.50000
O5 O 0.92632(11) 0.4170(3) 0.88584(19)
O7 O 0.58949(10) 0.4174(3) 0.5886(2)
C7 C 0.79127(17) 0.0712(3) 0.7651(3)
C8 C 0.72605(16) 0.0726(3) 0.6995(3)
Ga1_7 Ga 1.00000 1.0000 0.00000
O8 O 0.91051(10) 0.9174(3) 0.0886(2)
Ga1_8 Ga 1.00000 1.0000 1.00000
Ga3_2 Ga 0.50000 1.0000 0.50000
H3 H 0.8119(4) 0.9339(5) 0.7989(9)
H4 H 0.7021(9) 0.9353(5) 0.6704(18)
O4_2 O 0.4936 0.2500 0.4266
O6_2 O 0.42632(11) 0.0830(3) 0.61416(19)
H3_2 H 0.6881(4) 0.0661(5) 0.2989(9)
H4_2 H 0.7979(9) 0.0647(5) 0.1704(18)
O1_2 O 0.5064 0.7500 0.5734
O2_2 O 0.57368(11) 0.9170(3) 0.38584(19)
C1_2 C 0.67186(19) 0.7500 0.2914(3)
C2_2 C 0.60093(17) 0.7500 0.3600(3)
C3_2 C 0.80782(17) 0.7500 0.1712(3)
C4_2 C 0.88238(18) 0.7500 0.1108(3)
C5_2 C 0.70873(17) 0.5712(3) 0.2651(3)
H1_2 H 0.6881(4) 0.4339(5) 0.2989(9)
C6_2 C 0.77395(16) 0.5726(3) 0.1995(3)
H2_2 H 0.7979(9) 0.4353(5) 0.1704(18)
O5_2 O 0.57368(11) 0.5830(3) 0.38584(19)
O7_2 O 0.91051(10) 0.5826(3) 0.0886(2)
O9_2 O 0.41051(10) 0.9174(3) 0.4114(2)
C7_2 C 0.70873(17) 0.9288(3) 0.2651(3)
C8_2 C 0.77395(16) 0.9274(3) 0.1995(3)
O2_3 O 0.42632(11) 0.4170(3) 0.61416(19)
O3_2 O 0.08949(10) 0.4174(3) 0.9114(2)
C1_3 C 0.32814(19) 0.2500 0.7086(3)
C2_3 C 0.39907(17) 0.2500 0.6400(3)
C3_3 C 0.19218(17) 0.2500 0.8288(3)
C4_3 C 0.11762(18) 0.2500 0.8892(3)
C5_3 C 0.29127(17) 0.0712(3) 0.7349(3)
C6_3 C 0.22605(16) 0.0726(3) 0.8005(3)
O8_2 O 0.41051(10) 0.5826(3) 0.4114(2)
C7_3 C 0.29127(17) 0.4288(3) 0.7349(3)
H3_3 H 0.3119(4) 0.5661(5) 0.7011(9)
C8_3 C 0.22605(16) 0.4274(3) 0.8005(3)
H4_3 H 0.2021(9) 0.5647(5) 0.8296(18)
H1_3 H 0.3119(4) 0.9339(5) 0.7011(9)
H2_3 H 0.2021(9) 0.9353(5) 0.8296(18)
H1_4 H 0.1881(4) 0.0661(5) 0.2011(9)
H2_4 H 0.2979(9) 0.0647(5) 0.3296(18)
O2_4 O 0.07368(11) 0.5830(3) 0.11416(19)
C1_4 C 0.17186(19) 0.7500 0.2086(3)
C2_4 C 0.10093(17) 0.7500 0.1400(3)
C3_4 C 0.30782(17) 0.7500 0.3288(3)
C4_4 C 0.38238(18) 0.7500 0.3892(3)
C5_4 C 0.20873(17) 0.9288(3) 0.2349(3)
C6_4 C 0.27395(16) 0.9274(3) 0.3005(3)
C7_4 C 0.20873(17) 0.5712(3) 0.2349(3)
H3_4 H 0.1881(4) 0.4339(5) 0.2011(9)
C8_4 C 0.27395(16) 0.5726(3) 0.3005(3)
H4_4 H 0.2979(9) 0.4353(5) 0.3296(18)
loop_
_geom_bond_atom_site_label_1
_geom_bond_atom_site_label_2
_geom_bond_site_symmetry_1
_geom_bond_site_symmetry_2
O9 Ga1_2 1_555 1_555
O6 Ga1_3 1_555 1_555
O4 Ga1_4 1_555 1_555
Ga1_5 O1 1_555 1_555
O1 Ga2_3 1_555 1_555
O2 Ga1_6 1_555 1_555
O3 C4 1_555 1_555
C1 C2 1_555 1_555
C2 O2 1_555 1_555
C3 C4 1_555 1_555
C4 O7 1_555 1_555
C5 C1 1_555 1_555
H1 C5 1_555 1_555
C6 C3 1_555 1_555
H2 C6 1_555 1_555
Ga2_4 O5 1_555 1_555
Ga3 O3 1_555 1_555
Ga4 O7 1_555 1_555
O5 C2 1_555 1_555
C7 C1 1_555 1_555
C8 C3 1_555 1_555
C5 C6 1_555 1_555
C7 C8 1_555 1_555
O8 Ga1_7 1_555 1_555
O4_2 Ga3 1_555 1_555
O6_2 Ga3 1_555 1_555
Ga3_2 O1_2 1_555 1_555
O1_2 Ga4 1_555 1_555
O2_2 Ga3_2 1_555 1_555
O8 C4_2 1_555 1_555
C1_2 C2_2 1_555 1_555
C2_2 O2_2 1_555 1_555
C3_2 C4_2 1_555 1_555
C4_2 O7_2 1_555 1_555
C5_2 C1_2 1_555 1_555
H1_2 C5_2 1_555 1_555
C6_2 C3_2 1_555 1_555
H2_2 C6_2 1_555 1_555
Ga4 O5_2 1_555 1_555
Ga2_3 O7_2 1_555 1_555
O5_2 C2_2 1_555 1_555
O9_2 Ga3_2 1_555 1_555
C7_2 C1_2 1_555 1_555
C8_2 C3_2 1_555 1_555
C5_2 C6_2 1_555 1_555
C7_2 C8_2 1_555 1_555
Ga4 O4_2 1_555 1_555
O2_3 Ga4 1_555 1_555
O3_2 C4_3 1_555 1_555
C1_3 C2_3 1_555 1_555
C2_3 O2_3 1_555 1_555
C3_3 C4_3 1_555 1_555
C4_3 O9 1_555 1_555
C5_3 C1_3 1_555 1_555
C6_3 C3_3 1_555 1_555
Ga2_2 O3_2 1_555 1_555
O6_2 C2_3 1_555 1_555
O8_2 Ga4 1_555 1_555
C7_3 C1_3 1_555 1_555
H3_3 C7_3 1_555 1_555
C8_3 C3_3 1_555 1_555
H4_3 C8_3 1_555 1_555
C5_3 C6_3 1_555 1_555
C7_3 C8_3 1_555 1_555
O2_4 Ga2 1_555 1_555
O8_2 C4_4 1_555 1_555
C1_4 C2_4 1_555 1_555
C2_4 O2_4 1_555 1_555
C3_4 C4_4 1_555 1_555
C4_4 O9_2 1_555 1_555
C5_4 C1_4 1_555 1_555
C6_4 C3_4 1_555 1_555
O6 C2_4 1_555 1_555
C7_4 C1_4 1_555 1_555
H3_4 C7_4 1_555 1_555
C8_4 C3_4 1_555 1_555
H4_4 C8_4 1_555 1_555
C5_4 C6_4 1_555 1_555
C7_4 C8_4 1_555 1_555
Ga2_2 O4 1_555 1_555

#END
