
###############################################################################
#
# This file contains modified crystal structure data generated from the
# MOF subset of the Cambridge Structural Database (CSD) v543 
# hosted by the Cambridge Crystallographic Data Centre (CCDC).
#
# This work is licensed under the Creative Commons
# Attribution-NonCommercial-ShareAlike 4.0 International License.
# To view a copy of this license, visit
# http://creativecommons.org/licenses/by-nc-sa/4.0/
# or send a letter to
# Creative Commons, PO Box 1866, Mountain View, CA 94042, USA.
#
# CIF created using the CSD Python API on 29 September 2022
# The structure has been converted into the P1 space group
# The structure has a 3D framework
# The original CSD entry DONXUB is in the orthorhombic crystal system
# The original CSD entry DONXUB is in a Sohncke space group
# The framework has been calculated to contain at least 10.0% void space
# The void calculation uses a probe of radius 1.32A, grid spacing 0.4
#
###############################################################################

data_DONXUB
_chemical_formula_moiety         '(C144 H144 Co16 N63 O72 S24)n'
_symmetry_cell_setting           triclinic
_symmetry_space_group_name_H-M   'P 1'
_symmetry_Int_Tables_number      1
_space_group_name_Hall           'P 1'
loop_
_symmetry_equiv_pos_site_id
_symmetry_equiv_pos_as_xyz
1 x,y,z
_cell_length_a                   16.842(3)
_cell_length_b                   16.835(3)
_cell_length_c                   20.258(4)
_cell_angle_alpha                90
_cell_angle_beta                 90
_cell_angle_gamma                90
_cell_volume                     5743.85
loop_
_atom_site_label
_atom_site_type_symbol
_atom_site_fract_x
_atom_site_fract_y
_atom_site_fract_z
Co3 Co 0.13006(9) 0.74491(9) 0.00155(8)
Co4 Co 0.03779(10) 0.63205(10) 0.24236(7)
N16 N 0.0113(7) 0.4412(7) 0.4914(5)
H8 H 0.0377 0.4770 0.5132
C32 C 0.0181(7) 0.4959(8) 0.3763(5)
H24 H 0.0480 0.5417 0.3855
S3 S 0.16410(17) 0.70492(18) 0.33603(12)
S4 S 0.06397(19) 0.60658(19) 0.09428(14)
O9 O 0.1130(6) 0.6424(6) 0.0401(4)
O10 O 0.0944(5) 0.6395(5) 0.1581(4)
O11 O 0.0752(7) 0.5198(5) 0.0935(4)
O13 O 0.1125(5) 0.6365(5) 0.3139(4)
O14 O 0.1392(6) 0.7292(5) 0.4033(3)
O15 O 0.2471(5) 0.6805(6) 0.3364(4)
O16 O 0.1526(6) 0.7717(5) 0.2901(4)
Co5 Co 0.14628(8) 0.69805(9) 0.50070(8)
N18 N 0.2402(6) 0.7783(6) 0.0130(5)
N20 N 0.0577(7) 0.8306(6) 0.0265(5)
Co2 Co 0.05003(9) 0.61359(9) 0.75985(7)
N1 N 0.0826(6) 0.8038(6) 0.5167(4)
N2 N 0.0150(7) 0.9161(7) 0.4900(5)
N4 N 0.0526(7) 0.8811(7) 0.7545(5)
H2 H 0.0708 0.8432 0.7794
C1 C 0.0512(8) 0.8467(8) 0.4692(5)
H9 H 0.0532 0.8315 0.4246
C2 C 0.0213(8) 0.9522(8) 0.7755(6)
H10 H 0.0182 0.9667 0.8202
C9 C 0.0232(8) 0.9178(8) 0.5581(5)
C10 C 0.0621(8) 0.8449(7) 0.5754(5)
C11 C 0.0759(8) 0.8262(8) 0.6411(5)
H17 H 0.1014 0.7791 0.6540
C12 C 0.0495(7) 0.8817(7) 0.6859(5)
C13 C 0.0133(7) 0.9544(7) 0.6684(5)
C33 C 0.2112(9) 0.4343(8) 0.5066(8)
H25 H 0.2044 0.4152 0.5514
H26 H 0.2540 0.4054 0.4855
H27 H 0.1624 0.4263 0.4821
C34 C 0.3166(9) 0.5315(10) 0.4554(8)
H28 H 0.3644 0.5444 0.4799
H29 H 0.3099 0.5693 0.4197
H30 H 0.3211 0.4784 0.4374
C35 C 0.2215(11) 0.4461(11) 0.6870(9)
H31 H 0.1728 0.4300 0.6652
H32 H 0.2514 0.3994 0.6999
H33 H 0.2530 0.4781 0.6570
C36 C 0.2903(9) 0.5292(9) 0.7825(7)
H34 H 0.2867 0.5705 0.8157
H35 H 0.3199 0.5489 0.7448
H36 H 0.3173 0.4834 0.8009
S1 S 0.05316(17) 0.60506(17) 0.59898(12)
S2 S 0.14197(17) 0.70217(18) 0.85309(11)
S5 S 0.23440(19) 0.5362(2) 0.50821(15)
S6 S 0.1981(2) 0.5028(2) 0.75822(14)
O1 O 0.1263(5) 0.6535(5) 0.5928(4)
O2 O 0.0160(5) 0.6233(6) 0.6626(4)
O3 O 0.0011(5) 0.6262(5) 0.5439(4)
O4 O 0.0718(5) 0.5180(5) 0.5973(4)
O5 O 0.0989(5) 0.6237(5) 0.8564(4)
O6 O 0.1114(5) 0.7567(5) 0.9054(3)
O7 O 0.1265(5) 0.7385(5) 0.7888(4)
O8 O 0.2259(5) 0.6894(6) 0.8632(4)
O17 O 0.1682(5) 0.5821(5) 0.4692(4)
O18 O 0.1617(5) 0.5783(5) 0.7307(4)
N17 N 0.0045(6) 0.4994(7) 0.7741(5)
N19 N 0.2625(6) 0.7305(7) 0.5244(4)
H18 H 0.9669 0.0189 0.5907
Co7 Co 0.94997(9) 0.11359(9) 0.74015(7)
N8 N 0.8560(6) 0.6673(7) 0.0149(4)
H4 H 0.8923 0.6459 0.0397
N9 N 0.9469(6) 0.7066(6) 0.2572(4)
N10 N 0.8321(6) 0.7614(7) 0.2348(5)
H5 H 0.7932 0.7811 0.2118
N11 N 0.7625(6) 0.7695(7) 0.4756(4)
N12 N 0.8809(6) 0.7163(6) 0.4979(5)
H6 H 0.9200 0.6964 0.5206
N13 N 0.9985(6) 0.5201(7) 0.2539(5)
N14 N 0.9311(7) 0.4096(7) 0.2347(5)
H7 H 0.9058 0.3729 0.2130
N15 N 0.9423(7) 0.3306(6) 0.4735(5)
C4 C 0.7847(8) 0.6907(8) 0.0337(5)
H12 H 0.7670 0.6856 0.0775
C5 C 0.8981(8) 0.7323(8) 0.2107(6)
H13 H 0.9096 0.7299 0.1654
C6 C 0.8118(7) 0.7443(9) 0.5228(5)
H14 H 0.7999 0.7459 0.5681
C7 C 0.9574(9) 0.4769(8) 0.2090(6)
H15 H 0.9486 0.4928 0.1651
C8 C 0.9766(7) 0.3739(8) 0.5189(6)
H16 H 0.9777 0.3613 0.5641
C21 C 0.8345(7) 0.7556(8) 0.3036(5)
C22 C 0.9084(7) 0.7190(7) 0.3172(5)
C23 C 0.9324(8) 0.7053(7) 0.3820(5)
H21 H 0.9825 0.6840 0.3924
C24 C 0.8781(8) 0.7250(8) 0.4297(6)
C25 C 0.8025(7) 0.7608(7) 0.4159(5)
C26 C 0.7801(7) 0.7772(8) 0.3525(6)
H22 H 0.7313 0.8014 0.3424
C27 C 0.9922(8) 0.4774(7) 0.3141(5)
C28 C 0.9495(8) 0.4060(7) 0.3005(5)
C29 C 0.9293(8) 0.3493(8) 0.3479(6)
H23 H 0.8999 0.3031 0.3387
C30 C 0.9577(7) 0.3691(8) 0.4110(5)
C31 C 0.9972(8) 0.4425(8) 0.4239(6)
O12 O 0.9799(6) 0.6291(8) 0.0916(5)
Co6 Co 0.64628(8) 0.80195(9) 0.49930(8)
Co8 Co 0.86994(9) 0.24491(9) 0.49845(8)
H1 H 0.9919 0.9515 0.4654
N3 N 0.9955(6) 0.9994(7) 0.7259(5)
N5 N 0.9515(6) 0.6818(6) 0.7811(4)
N6 N 0.8405(6) 0.7476(7) 0.7552(5)
H3 H 0.8048 0.7714 0.7313
N7 N 0.7402(6) 0.7217(6) 0.9870(5)
C3 C 0.9089(7) 0.7208(8) 0.7339(6)
H11 H 0.9269 0.7277 0.6904
C14 C 0.9953(7) 0.9731(8) 0.6031(5)
C15 C 0.8348(7) 0.7320(8) 0.8209(6)
C16 C 0.9068(7) 0.6922(7) 0.8373(5)
C17 C 0.9223(7) 0.6718(7) 0.9024(6)
H19 H 0.9717 0.6509 0.9154
C18 C 0.8618(7) 0.6837(7) 0.9471(5)
C19 C 0.7879(7) 0.7202(8) 0.9297(6)
C20 C 0.7734(7) 0.7469(8) 0.8662(5)
H20 H 0.7262 0.7729 0.8543
Co9 Co 0.63006(9) 0.75509(9) 0.99845(8)
H6_2 H 0.5800 0.3036 0.0206
H8_2 H 0.4623 0.5230 0.0132
C6_2 C 0.6882(7) 0.2557(9) 0.0228(5)
H14_2 H 0.7001 0.2541 0.0681
C8_2 C 0.5234(7) 0.6261(8) 0.0189(6)
H16_2 H 0.5223 0.6387 0.0641
Co5_2 Co 0.35372(8) 0.30195(9) 0.00070(8)
Co2_2 Co 0.44997(9) 0.38641(9) 0.25985(7)
Co3_2 Co 0.36994(9) 0.25509(9) 0.50155(8)
Co4_2 Co 0.46221(10) 0.36795(10) 0.74236(7)
N1_2 N 0.4174(6) 0.1962(6) 0.0167(4)
N3_2 N 0.5045(6) 0.0006(7) 0.2259(5)
N4_2 N 0.4474(7) 0.1189(7) 0.2545(5)
H2_2 H 0.4292 0.1568 0.2794
N5_2 N 0.5485(6) 0.3182(6) 0.2811(4)
N6_2 N 0.6595(6) 0.2524(7) 0.2552(5)
H3_2 H 0.6952 0.2286 0.2313
N7_2 N 0.7598(6) 0.2783(6) 0.4870(5)
N8_2 N 0.6440(6) 0.3327(7) 0.5149(4)
H4_2 H 0.6077 0.3541 0.5397
N9_2 N 0.5531(6) 0.2934(6) 0.7572(4)
N10_2 N 0.6679(6) 0.2386(7) 0.7348(5)
H5_2 H 0.7068 0.2189 0.7118
N11_2 N 0.7375(6) 0.2305(7) 0.9756(4)
N12_2 N 0.6191(6) 0.2837(6) 0.9979(5)
N13_2 N 0.5015(6) 0.4799(7) 0.7539(5)
N14_2 N 0.5689(7) 0.5904(7) 0.7347(5)
H7_2 H 0.5942 0.6271 0.7130
N15_2 N 0.5577(7) 0.6694(6) 0.9735(5)
N16_2 N 0.4887(7) 0.5588(7) 0.9914(5)
C2_2 C 0.4787(8) 0.0478(8) 0.2755(6)
H10_2 H 0.4818 0.0333 0.3202
C3_2 C 0.5911(7) 0.2792(8) 0.2339(6)
H11_2 H 0.5731 0.2723 0.1904
C4_2 C 0.7153(8) 0.3093(8) 0.5337(5)
H12_2 H 0.7330 0.3144 0.5775
C5_2 C 0.6019(8) 0.2677(8) 0.7107(6)
H13_2 H 0.5904 0.2701 0.6654
C7_2 C 0.5426(9) 0.5231(8) 0.7090(6)
H15_2 H 0.5514 0.5072 0.6651
C9_2 C 0.4768(8) 0.0822(8) 0.0581(5)
C10_2 C 0.4379(8) 0.1551(7) 0.0754(5)
C11_2 C 0.4241(8) 0.1738(8) 0.1411(5)
H17_2 H 0.3986 0.2209 0.1540
C12_2 C 0.4505(7) 0.1183(7) 0.1859(5)
C13_2 C 0.4867(7) 0.0456(7) 0.1684(5)
C14_2 C 0.5047(7) 0.0269(8) 0.1031(5)
C15_2 C 0.6652(7) 0.2680(8) 0.3209(6)
C16_2 C 0.5932(7) 0.3078(7) 0.3373(5)
C17_2 C 0.5777(7) 0.3282(7) 0.4024(6)
H19_2 H 0.5283 0.3491 0.4154
C18_2 C 0.6382(7) 0.3163(7) 0.4471(5)
C19_2 C 0.7121(7) 0.2798(8) 0.4297(6)
C20_2 C 0.7266(7) 0.2531(8) 0.3662(5)
H20_2 H 0.7738 0.2271 0.3543
C21_2 C 0.6655(7) 0.2444(8) 0.8036(5)
C22_2 C 0.5916(7) 0.2810(7) 0.8172(5)
C23_2 C 0.5676(8) 0.2947(7) 0.8820(5)
H21_2 H 0.5175 0.3160 0.8924
C24_2 C 0.6219(8) 0.2750(8) 0.9297(6)
C25_2 C 0.6975(7) 0.2392(7) 0.9159(5)
C26_2 C 0.7199(7) 0.2228(8) 0.8525(6)
H22_2 H 0.7687 0.1986 0.8424
C27_2 C 0.5078(8) 0.5226(7) 0.8141(5)
C28_2 C 0.5505(8) 0.5940(7) 0.8005(5)
C29_2 C 0.5707(8) 0.6507(8) 0.8479(6)
H23_2 H 0.6001 0.6969 0.8387
C30_2 C 0.5423(7) 0.6309(8) 0.9110(5)
C31_2 C 0.5028(8) 0.5575(8) 0.9239(6)
C32_2 C 0.4819(7) 0.5041(8) 0.8763(5)
H24_2 H 0.4520 0.4583 0.8855
C33_2 C 0.2888(9) 0.5657(8) 0.0066(8)
H25_2 H 0.2956 0.5848 0.0514
C35_2 C 0.2785(11) 0.5539(11) 0.1870(9)
H31_2 H 0.3272 0.5700 0.1652
H32_2 H 0.2486 0.6006 0.1999
H33_2 H 0.2470 0.5219 0.1570
C36_2 C 0.2097(9) 0.4708(9) 0.2825(7)
H34_2 H 0.2133 0.4295 0.3157
H35_2 H 0.1801 0.4511 0.2448
H36_2 H 0.1827 0.5166 0.3009
S1_2 S 0.44684(17) 0.39494(17) 0.09898(12)
S2_2 S 0.35803(17) 0.29783(18) 0.35309(11)
S3_2 S 0.33590(17) 0.29508(18) 0.83603(12)
S4_2 S 0.43603(19) 0.39342(19) 0.59428(14)
S5_2 S 0.26560(19) 0.4638(2) 0.00821(15)
S6_2 S 0.3019(2) 0.4972(2) 0.25822(14)
O1_2 O 0.3737(5) 0.3465(5) 0.0928(4)
O2_2 O 0.4840(5) 0.3767(6) 0.1626(4)
O3_2 O 0.4989(5) 0.3738(5) 0.0439(4)
O4_2 O 0.4282(5) 0.4820(5) 0.0973(4)
O5_2 O 0.4011(5) 0.3763(5) 0.3564(4)
O6_2 O 0.3886(5) 0.2433(5) 0.4054(3)
O7_2 O 0.3735(5) 0.2615(5) 0.2888(4)
O8_2 O 0.2741(5) 0.3106(6) 0.3632(4)
O9_2 O 0.3870(6) 0.3576(6) 0.5401(4)
O10_2 O 0.4056(5) 0.3605(5) 0.6581(4)
O11_2 O 0.4248(7) 0.4802(5) 0.5935(4)
O12_2 O 0.5201(6) 0.3709(8) 0.5916(5)
O13_2 O 0.3875(5) 0.3635(5) 0.8139(4)
O14_2 O 0.3608(6) 0.2708(5) 0.9033(3)
O15_2 O 0.2529(5) 0.3195(6) 0.8364(4)
O16_2 O 0.3474(6) 0.2283(5) 0.7901(4)
O18_2 O 0.3383(5) 0.4217(5) 0.2307(4)
Co6_2 Co 0.85372(8) 0.19805(9) 0.99930(8)
N17_2 N 0.4955(6) 0.5006(7) 0.2741(5)
N18_2 N 0.2598(6) 0.2217(6) 0.5130(5)
N19_2 N 0.2375(6) 0.2695(7) 0.0244(4)
N20_2 N 0.4423(7) 0.1694(6) 0.5265(5)
N2_2 N 0.4850(7) 0.0839(7) 0.9900(5)
H1_2 H 0.5081 0.0485 0.9654
C1_2 C 0.4488(8) 0.1533(8) 0.9692(5)
H9_2 H 0.4468 0.1685 0.9246
H26_2 H 0.2460 0.5946 0.9855
H27_2 H 0.3376 0.5737 0.9821
C34_2 C 0.1834(9) 0.4685(10) 0.9554(8)
H28_2 H 0.1356 0.4556 0.9799
H29_2 H 0.1901 0.4307 0.9197
H30_2 H 0.1789 0.5216 0.9374
O17_2 O 0.3318(5) 0.4179(5) 0.9692(4)
H18_2 H 0.5331 0.9811 0.0907
Co7_2 Co 0.55003(9) 0.88641(9) 0.24015(7)
N5_3 N 0.0485(6) 0.1818(6) 0.7189(4)
N6_3 N 0.1595(6) 0.2476(7) 0.7448(5)
H3_3 H 0.1952 0.2714 0.7687
N8_3 N 0.1440(6) 0.1673(7) 0.4851(4)
H4_3 H 0.1077 0.1459 0.4603
N9_3 N 0.0531(6) 0.2066(6) 0.2428(4)
N10_3 N 0.1679(6) 0.2614(7) 0.2652(5)
H5_3 H 0.2068 0.2811 0.2882
N12_3 N 0.1191(6) 0.2163(6) 0.0021(5)
N13_3 N 0.0015(6) 0.0201(7) 0.2461(5)
C3_3 C 0.0911(7) 0.2208(8) 0.7661(6)
H11_3 H 0.0731 0.2277 0.8096
C4_3 C 0.2153(8) 0.1907(8) 0.4663(5)
H12_3 H 0.2330 0.1856 0.4225
C5_3 C 0.1019(8) 0.2323(8) 0.2893(6)
H13_3 H 0.0904 0.2299 0.3346
C14_3 C 0.0047(7) 0.4731(8) 0.8969(5)
H18_3 H 0.0331 0.5189 0.9093
C15_3 C 0.1652(7) 0.2320(8) 0.6791(6)
C16_3 C 0.0932(7) 0.1922(7) 0.6627(5)
C17_3 C 0.0777(7) 0.1718(7) 0.5976(6)
H19_3 H 0.0283 0.1509 0.5846
C18_3 C 0.1382(7) 0.1837(7) 0.5529(5)
C19_3 C 0.2121(7) 0.2202(8) 0.5703(6)
C20_3 C 0.2266(7) 0.2469(8) 0.6338(5)
H20_3 H 0.2738 0.2729 0.6457
C21_3 C 0.1655(7) 0.2556(8) 0.1964(5)
C22_3 C 0.0916(7) 0.2190(7) 0.1828(5)
C23_3 C 0.0676(8) 0.2053(7) 0.1180(5)
H21_3 H 0.0175 0.1840 0.1076
C24_3 C 0.1219(8) 0.2250(8) 0.0703(6)
C25_3 C 0.1975(7) 0.2608(7) 0.0841(5)
C26_3 C 0.2199(7) 0.2772(8) 0.1475(6)
H22_3 H 0.2687 0.3014 0.1576
O12_3 O 0.0201(6) 0.1291(8) 0.4084(5)
N14_3 N 0.0689(7) 0.9096(7) 0.2653(5)
H7_3 H 0.0942 0.8729 0.2870
C7_3 C 0.0426(9) 0.9769(8) 0.2910(6)
H15_3 H 0.0514 0.9928 0.3349
C27_3 C 0.0078(8) 0.9774(7) 0.1859(5)
C28_3 C 0.0505(8) 0.9060(7) 0.1995(5)
C29_3 C 0.0707(8) 0.8493(8) 0.1521(6)
H23_3 H 0.1001 0.8031 0.1613
C30_3 C 0.0423(7) 0.8691(8) 0.0890(5)
C31_3 C 0.0028(8) 0.9425(8) 0.0761(6)
N2_3 N 0.9850(7) 0.4161(7) 0.0100(5)
C1_3 C 0.9488(8) 0.3467(8) 0.0308(5)
H9_3 H 0.9468 0.3315 0.0754
C34_3 C 0.6834(9) 0.0315(10) 0.0446(8)
H28_3 H 0.6356 0.0444 0.0201
H29_3 H 0.6901 0.0693 0.0803
O17_3 O 0.8318(5) 0.0821(5) 0.0308(4)
O19 O 0.8608(6) 0.2292(5) 0.0967(3)
Co4_3 Co 0.96221(10) 0.13205(10) 0.25764(7)
N1_3 N 0.9174(6) 0.3038(6) 0.9833(4)
N4_3 N 0.9474(7) 0.3811(7) 0.7455(5)
H2_3 H 0.9292 0.3432 0.7206
C2_3 C 0.9787(8) 0.4522(8) 0.7245(6)
H10_3 H 0.9818 0.4667 0.6798
C9_3 C 0.9768(8) 0.4178(8) 0.9419(5)
C10_3 C 0.9379(8) 0.3449(7) 0.9246(5)
C11_3 C 0.9241(8) 0.3262(8) 0.8589(5)
H17_3 H 0.8986 0.2791 0.8460
C12_3 C 0.9505(7) 0.3817(7) 0.8141(5)
C13_3 C 0.9867(7) 0.4544(7) 0.8316(5)
H24_3 H 0.9520 0.0417 0.1145
C36_3 C 0.7097(9) 0.0292(9) 0.7175(7)
H34_3 H 0.7133 0.0705 0.6843
H35_3 H 0.6801 0.0489 0.7552
S1_3 S 0.94684(17) 0.10506(17) 0.90102(12)
S2_3 S 0.85803(17) 0.20217(18) 0.64691(11)
S3_3 S 0.83590(17) 0.20492(18) 0.16397(12)
S4_3 S 0.93603(19) 0.10658(19) 0.40572(14)
S5_3 S 0.76560(19) 0.0362(2) 0.99179(15)
S6_3 S 0.8019(2) 0.0028(2) 0.74178(14)
O1_3 O 0.8737(5) 0.1535(5) 0.9072(4)
O2_3 O 0.9840(5) 0.1233(6) 0.8374(4)
O3_3 O 0.9989(5) 0.1262(5) 0.9561(4)
O4_3 O 0.9282(5) 0.0180(5) 0.9027(4)
O5_3 O 0.9011(5) 0.1237(5) 0.6436(4)
O6_3 O 0.8886(5) 0.2567(5) 0.5946(3)
O7_3 O 0.8735(5) 0.2385(5) 0.7112(4)
O8_3 O 0.7741(5) 0.1894(6) 0.6368(4)
O9_3 O 0.8870(6) 0.1424(6) 0.4599(4)
O10_3 O 0.9056(5) 0.1395(5) 0.3419(4)
O11_3 O 0.9248(7) 0.0198(5) 0.4065(4)
O13_3 O 0.8875(5) 0.1365(5) 0.1861(4)
O15_3 O 0.7529(5) 0.1805(6) 0.1636(4)
O16_3 O 0.8474(6) 0.2717(5) 0.2099(4)
O18_3 O 0.8383(5) 0.0783(5) 0.7693(4)
N16_3 N 0.9887(7) 0.9412(7) 0.0086(5)
C32_3 C 0.9819(7) 0.9959(8) 0.1237(5)
C33_3 C 0.7888(9) 0.9343(8) 0.9934(8)
H25_3 H 0.7956 0.9152 0.9486
C35_3 C 0.7785(11) 0.9461(11) 0.8130(9)
H31_3 H 0.8272 0.9300 0.8348
H32_3 H 0.7486 0.8994 0.8001
H33_3 H 0.7470 0.9781 0.8430
H36_3 H 0.6827 0.9834 0.6991
C33_4 C 0.7112(9) 0.0657(8) 0.4934(8)
H25_4 H 0.7044 0.0848 0.4486
H26_3 H 0.7540 0.0946 0.5145
H27_3 H 0.6624 0.0737 0.5179
H30_3 H 0.8211 0.0216 0.5626
C35_4 C 0.7215(11) 0.0539(11) 0.3130(9)
H31_4 H 0.6728 0.0700 0.3348
H32_4 H 0.7514 0.1006 0.3001
H33_4 H 0.7530 0.0219 0.3430
H36_4 H 0.8173 0.0166 0.1991
N14_4 N 0.4311(7) 0.0904(7) 0.7653(5)
H7_4 H 0.4058 0.1271 0.7870
N16_4 N 0.5113(7) 0.0588(7) 0.5086(5)
H8_3 H 0.5377 0.0230 0.4868
C7_4 C 0.4574(9) 0.0231(8) 0.7910(6)
H15_4 H 0.4486 0.0072 0.8349
C8_3 C 0.4766(7) 0.1261(8) 0.4811(6)
H16_3 H 0.4777 0.1387 0.4359
C27_4 C 0.4922(8) 0.0226(7) 0.6859(5)
C28_4 C 0.4495(8) 0.0940(7) 0.6995(5)
C29_4 C 0.4293(8) 0.1507(8) 0.6521(6)
H23_4 H 0.3999 0.1969 0.6613
C30_4 C 0.4577(7) 0.1309(8) 0.5890(5)
C31_4 C 0.4972(8) 0.0575(8) 0.5761(6)
C32_4 C 0.5181(7) 0.0041(8) 0.6237(5)
N1_4 N 0.5826(6) 0.6962(6) 0.4833(4)
N2_4 N 0.5150(7) 0.5839(7) 0.5100(5)
H1_3 H 0.4919 0.5485 0.5346
N4_4 N 0.5526(7) 0.6189(7) 0.2455(5)
H2_4 H 0.5708 0.6568 0.2206
N5_4 N 0.4515(6) 0.8182(6) 0.2189(4)
N6_4 N 0.3405(6) 0.7524(7) 0.2448(5)
H3_4 H 0.3048 0.7286 0.2687
C1_4 C 0.5512(8) 0.6533(8) 0.5308(5)
H9_4 H 0.5532 0.6685 0.5754
C2_4 C 0.5213(8) 0.5478(8) 0.2245(6)
H10_4 H 0.5182 0.5333 0.1798
C3_4 C 0.4089(7) 0.7792(8) 0.2661(6)
H11_4 H 0.4269 0.7723 0.3096
C9_4 C 0.5232(8) 0.5822(8) 0.4419(5)
C10_4 C 0.5621(8) 0.6551(7) 0.4246(5)
C11_4 C 0.5759(8) 0.6738(8) 0.3589(5)
H17_4 H 0.6014 0.7209 0.3460
C12_4 C 0.5495(7) 0.6183(7) 0.3141(5)
C13_4 C 0.5133(7) 0.5456(7) 0.3316(5)
C14_4 C 0.4953(7) 0.5269(8) 0.3969(5)
H18_4 H 0.4669 0.4811 0.4093
C15_4 C 0.3348(7) 0.7680(8) 0.1791(6)
C16_4 C 0.4068(7) 0.8078(7) 0.1627(5)
C17_4 C 0.4223(7) 0.8282(7) 0.0976(6)
H19_4 H 0.4717 0.8491 0.0846
C18_4 C 0.3618(7) 0.8163(7) 0.0529(5)
C19_4 C 0.2879(7) 0.7798(8) 0.0703(6)
C20_4 C 0.2734(7) 0.7531(8) 0.1338(5)
H20_4 H 0.2262 0.7271 0.1457
C34_4 C 0.8166(9) 0.9685(10) 0.5446(8)
H28_4 H 0.8644 0.9556 0.5201
H29_4 H 0.8099 0.9307 0.5803
C36_4 C 0.7903(9) 0.9708(9) 0.2175(7)
H34_4 H 0.7867 0.9295 0.1843
H35_4 H 0.8199 0.9511 0.2552
S1_4 S 0.55316(17) 0.89494(17) 0.40102(12)
S2_4 S 0.64197(17) 0.79783(18) 0.14691(11)
S5_4 S 0.73440(19) 0.9638(2) 0.49179(15)
S6_4 S 0.6981(2) 0.9972(2) 0.24178(14)
O1_4 O 0.6263(5) 0.8465(5) 0.4072(4)
O2_4 O 0.5160(5) 0.8767(6) 0.3374(4)
O3_4 O 0.5011(5) 0.8738(5) 0.4561(4)
O4_4 O 0.5718(5) 0.9820(5) 0.4027(4)
O5_4 O 0.5989(5) 0.8763(5) 0.1436(4)
O6_4 O 0.6114(5) 0.7433(5) 0.0946(3)
O7_4 O 0.6265(5) 0.7615(5) 0.2112(4)
O8_4 O 0.7259(5) 0.8106(6) 0.1368(4)
O17_4 O 0.6682(5) 0.9179(5) 0.5308(4)
O18_4 O 0.6617(5) 0.9217(5) 0.2693(4)
O19_2 O 0.6392(6) 0.7708(5) 0.5967(3)
Co4_4 Co 0.53779(10) 0.86795(10) 0.75764(7)
N8_4 N 0.3560(6) 0.8327(7) 0.9851(4)
H4_4 H 0.3923 0.8541 0.9603
N9_4 N 0.4469(6) 0.7934(6) 0.7428(4)
N10_4 N 0.3321(6) 0.7386(7) 0.7652(5)
H5_4 H 0.2932 0.7189 0.7882
N12_4 N 0.3809(6) 0.7837(6) 0.5021(5)
H6_3 H 0.4200 0.8036 0.4794
N13_4 N 0.4985(6) 0.9799(7) 0.7461(5)
C4_4 C 0.2847(8) 0.8093(8) 0.9663(5)
H12_4 H 0.2670 0.8144 0.9225
C5_4 C 0.3981(8) 0.7677(8) 0.7893(6)
H13_4 H 0.4096 0.7701 0.8346
C6_3 C 0.3118(7) 0.7557(9) 0.4772(5)
H14_3 H 0.2999 0.7541 0.4319
C21_4 C 0.3345(7) 0.7444(8) 0.6964(5)
C22_4 C 0.4084(7) 0.7810(7) 0.6828(5)
C23_4 C 0.4324(8) 0.7947(7) 0.6180(5)
H21_4 H 0.4825 0.8160 0.6076
C24_4 C 0.3781(8) 0.7750(8) 0.5703(6)
C25_4 C 0.3025(7) 0.7392(7) 0.5841(5)
C26_4 C 0.2801(7) 0.7228(8) 0.6475(6)
H22_4 H 0.2313 0.6986 0.6576
H24_4 H 0.5480 0.9583 0.6145
S3_4 S 0.66410(17) 0.79508(18) 0.66397(12)
S4_4 S 0.56397(19) 0.89342(19) 0.90572(14)
O9_4 O 0.6130(6) 0.8576(6) 0.9599(4)
O10_4 O 0.5944(5) 0.8605(5) 0.8419(4)
O11_4 O 0.5752(7) 0.9802(5) 0.9065(4)
O12_4 O 0.4799(6) 0.8709(8) 0.9084(5)
O13_4 O 0.6125(5) 0.8635(5) 0.6861(4)
O15_4 O 0.7471(5) 0.8195(6) 0.6636(4)
O16_4 O 0.6526(6) 0.7283(5) 0.7099(4)
H1_4 H 0.0081 0.4515 0.0346
H6_4 H 0.0800 0.1964 0.9794
C6_4 C 0.1882(7) 0.2443(9) 0.9772(5)
H14_4 H 0.2001 0.2459 0.9319
C8_4 C 0.0234(7) 0.8739(8) 0.9811(6)
H16_4 H 0.0223 0.8613 0.9359
H26_4 H 0.7460 0.9054 0.0145
H27_4 H 0.8376 0.9263 0.0179
H30_4 H 0.6789 0.9784 0.0626
H8_4 H 0.9623 0.9770 0.9868
loop_
_geom_bond_atom_site_label_1
_geom_bond_atom_site_label_2
_geom_bond_site_symmetry_1
_geom_bond_site_symmetry_2
N16 H8 1_555 1_555
H24 C32 1_555 1_555
S3 O13 1_555 1_555
S4 O9 1_555 1_555
O9 Co3 1_555 1_555
O10 Co4 1_555 1_555
O11 S4 1_555 1_555
O13 Co4 1_555 1_555
O14 S3 1_555 1_555
O15 S3 1_555 1_555
O16 S3 1_555 1_555
Co5 O14 1_555 1_555
N18 Co3 1_555 1_555
N20 Co3 1_555 1_555
S4 O10 1_555 1_555
Co5 N1 1_555 1_555
N1 C1 1_555 1_555
N4 H2 1_555 1_555
C1 N2 1_555 1_555
H9 C1 1_555 1_555
C2 N4 1_555 1_555
H10 C2 1_555 1_555
C9 N2 1_555 1_555
C10 N1 1_555 1_555
C11 C10 1_555 1_555
H17 C11 1_555 1_555
C12 N4 1_555 1_555
C33 H25 1_555 1_555
H26 C33 1_555 1_555
H27 C33 1_555 1_555
C34 H28 1_555 1_555
H29 C34 1_555 1_555
H30 C34 1_555 1_555
C35 H31 1_555 1_555
H32 C35 1_555 1_555
H33 C35 1_555 1_555
C36 H34 1_555 1_555
H35 C36 1_555 1_555
H36 C36 1_555 1_555
S1 O1 1_555 1_555
S2 O5 1_555 1_555
S5 C33 1_555 1_555
S6 C35 1_555 1_555
O1 Co5 1_555 1_555
O2 Co2 1_555 1_555
O3 S1 1_555 1_555
O4 S1 1_555 1_555
O5 Co2 1_555 1_555
O6 S2 1_555 1_555
O7 S2 1_555 1_555
O8 S2 1_555 1_555
O17 Co5 1_555 1_555
O18 Co2 1_555 1_555
N17 Co2 1_555 1_555
N19 Co5 1_555 1_555
C9 C10 1_555 1_555
C11 C12 1_555 1_555
C12 C13 1_555 1_555
C34 S5 1_555 1_555
C36 S6 1_555 1_555
S1 O2 1_555 1_555
S5 O17 1_555 1_555
S6 O18 1_555 1_555
N8 H4 1_555 1_555
N9 C5 1_555 1_555
N10 H5 1_555 1_555
N11 C6 1_555 1_555
N12 H6 1_555 1_555
N14 H7 1_555 1_555
N15 C8 1_555 1_555
C4 N8 1_555 1_555
H12 C4 1_555 1_555
C5 N10 1_555 1_555
H13 C5 1_555 1_555
C6 N12 1_555 1_555
H14 C6 1_555 1_555
C7 N13 1_555 1_555
H15 C7 1_555 1_555
H16 C8 1_555 1_555
C21 N10 1_555 1_555
C22 N9 1_555 1_555
C23 C22 1_555 1_555
H21 C23 1_555 1_555
C24 N12 1_555 1_555
C25 N11 1_555 1_555
C26 C21 1_555 1_555
H22 C26 1_555 1_555
C27 N13 1_555 1_555
C28 N14 1_555 1_555
C29 C28 1_555 1_555
H23 C29 1_555 1_555
C30 N15 1_555 1_555
Co6 N11 1_555 1_555
Co8 N15 1_555 1_555
N14 C7 1_555 1_555
C21 C22 1_555 1_555
C23 C24 1_555 1_555
C24 C25 1_555 1_555
C25 C26 1_555 1_555
C27 C28 1_555 1_555
C29 C30 1_555 1_555
C30 C31 1_555 1_555
N5 C3 1_555 1_555
N6 H3 1_555 1_555
C3 N6 1_555 1_555
H11 C3 1_555 1_555
C15 N6 1_555 1_555
C16 N5 1_555 1_555
C17 C16 1_555 1_555
H19 C17 1_555 1_555
C19 N7 1_555 1_555
C20 C15 1_555 1_555
H20 C20 1_555 1_555
Co9 N7 1_555 1_555
C15 C16 1_555 1_555
C17 C18 1_555 1_555
C18 C19 1_555 1_555
C19 C20 1_555 1_555
H14_2 C6_2 1_555 1_555
H16_2 C8_2 1_555 1_555
Co5_2 N1_2 1_555 1_555
Co2_2 N5_2 1_555 1_555
Co3_2 O6_2 1_555 1_555
Co4_2 N9_2 1_555 1_555
N3_2 C2_2 1_555 1_555
N4_2 H2_2 1_555 1_555
N5_2 C3_2 1_555 1_555
N6_2 H3_2 1_555 1_555
N7_2 C4_2 1_555 1_555
N8_2 H4_2 1_555 1_555
N9_2 C5_2 1_555 1_555
N10_2 H5_2 1_555 1_555
N13_2 Co4_2 1_555 1_555
N14_2 H7_2 1_555 1_555
C2_2 N4_2 1_555 1_555
H10_2 C2_2 1_555 1_555
C3_2 N6_2 1_555 1_555
H11_2 C3_2 1_555 1_555
C4_2 N8_2 1_555 1_555
H12_2 C4_2 1_555 1_555
C5_2 N10_2 1_555 1_555
H13_2 C5_2 1_555 1_555
C7_2 N13_2 1_555 1_555
H15_2 C7_2 1_555 1_555
C10_2 N1_2 1_555 1_555
C11_2 C10_2 1_555 1_555
H17_2 C11_2 1_555 1_555
C12_2 N4_2 1_555 1_555
C13_2 N3_2 1_555 1_555
C14_2 C9_2 1_555 1_555
C15_2 N6_2 1_555 1_555
C16_2 N5_2 1_555 1_555
C17_2 C16_2 1_555 1_555
H19_2 C17_2 1_555 1_555
C18_2 N8_2 1_555 1_555
C19_2 N7_2 1_555 1_555
C20_2 C15_2 1_555 1_555
H20_2 C20_2 1_555 1_555
C21_2 N10_2 1_555 1_555
C22_2 N9_2 1_555 1_555
C23_2 C22_2 1_555 1_555
H21_2 C23_2 1_555 1_555
C24_2 N12_2 1_555 1_555
C25_2 N11_2 1_555 1_555
C26_2 C21_2 1_555 1_555
H22_2 C26_2 1_555 1_555
C27_2 N13_2 1_555 1_555
C28_2 N14_2 1_555 1_555
C29_2 C28_2 1_555 1_555
H23_2 C29_2 1_555 1_555
C30_2 N15_2 1_555 1_555
C31_2 N16_2 1_555 1_555
C32_2 C27_2 1_555 1_555
H24_2 C32_2 1_555 1_555
C33_2 H25_2 1_555 1_555
C35_2 H31_2 1_555 1_555
H32_2 C35_2 1_555 1_555
H33_2 C35_2 1_555 1_555
C36_2 H34_2 1_555 1_555
H35_2 C36_2 1_555 1_555
H36_2 C36_2 1_555 1_555
S1_2 O1_2 1_555 1_555
S2_2 O5_2 1_555 1_555
S3_2 O13_2 1_555 1_555
S4_2 O9_2 1_555 1_555
S5_2 C33_2 1_555 1_555
S6_2 C35_2 1_555 1_555
O1_2 Co5_2 1_555 1_555
O2_2 Co2_2 1_555 1_555
O3_2 S1_2 1_555 1_555
O4_2 S1_2 1_555 1_555
O5_2 Co2_2 1_555 1_555
O6_2 S2_2 1_555 1_555
O7_2 S2_2 1_555 1_555
O8_2 S2_2 1_555 1_555
O9_2 Co3_2 1_555 1_555
O10_2 Co4_2 1_555 1_555
O11_2 S4_2 1_555 1_555
O12_2 S4_2 1_555 1_555
O13_2 Co4_2 1_555 1_555
O14_2 S3_2 1_555 1_555
O15_2 S3_2 1_555 1_555
O16_2 S3_2 1_555 1_555
O18_2 Co2_2 1_555 1_555
Co6_2 N11_2 1_555 1_555
Co9 N15_2 1_555 1_555
Co8 N7_2 1_555 1_555
N17_2 Co2_2 1_555 1_555
N18_2 Co3_2 1_555 1_555
N19_2 Co5_2 1_555 1_555
N20_2 Co3_2 1_555 1_555
N14_2 C7_2 1_555 1_555
C9_2 C10_2 1_555 1_555
C11_2 C12_2 1_555 1_555
C12_2 C13_2 1_555 1_555
C13_2 C14_2 1_555 1_555
C15_2 C16_2 1_555 1_555
C17_2 C18_2 1_555 1_555
C18_2 C19_2 1_555 1_555
C19_2 C20_2 1_555 1_555
C21_2 C22_2 1_555 1_555
C23_2 C24_2 1_555 1_555
C24_2 C25_2 1_555 1_555
C25_2 C26_2 1_555 1_555
C27_2 C28_2 1_555 1_555
C29_2 C30_2 1_555 1_555
C30_2 C31_2 1_555 1_555
C31_2 C32_2 1_555 1_555
C36_2 S6_2 1_555 1_555
S1_2 O2_2 1_555 1_555
S4_2 O10_2 1_555 1_555
S6_2 O18_2 1_555 1_555
N2_2 H1_2 1_555 1_555
C1_2 N2_2 1_555 1_555
H9_2 C1_2 1_555 1_555
C34_2 H28_2 1_555 1_555
H29_2 C34_2 1_555 1_555
H30_2 C34_2 1_555 1_555
N5_3 C3_3 1_555 1_555
N6_3 H3_3 1_555 1_555
N18_2 C4_3 1_555 1_555
N8_3 H4_3 1_555 1_555
N9_3 C5_3 1_555 1_555
N10_3 H5_3 1_555 1_555
C3_3 N6_3 1_555 1_555
H11_3 C3_3 1_555 1_555
C4_3 N8_3 1_555 1_555
H12_3 C4_3 1_555 1_555
C5_3 N10_3 1_555 1_555
H13_3 C5_3 1_555 1_555
H18_3 C14_3 1_555 1_555
C15_3 N6_3 1_555 1_555
C16_3 N5_3 1_555 1_555
C17_3 C16_3 1_555 1_555
H19_3 C17_3 1_555 1_555
C18_3 N8_3 1_555 1_555
C19_3 N18_2 1_555 1_555
C20_3 C15_3 1_555 1_555
H20_3 C20_3 1_555 1_555
C21_3 N10_3 1_555 1_555
C22_3 N9_3 1_555 1_555
C23_3 C22_3 1_555 1_555
H21_3 C23_3 1_555 1_555
C24_3 N12_3 1_555 1_555
C25_3 N19_2 1_555 1_555
C26_3 C21_3 1_555 1_555
H22_3 C26_3 1_555 1_555
C15_3 C16_3 1_555 1_555
C17_3 C18_3 1_555 1_555
C18_3 C19_3 1_555 1_555
C19_3 C20_3 1_555 1_555
C21_3 C22_3 1_555 1_555
C23_3 C24_3 1_555 1_555
C24_3 C25_3 1_555 1_555
C25_3 C26_3 1_555 1_555
N14_3 H7_3 1_555 1_555
H15_3 C7_3 1_555 1_555
C28_3 N14_3 1_555 1_555
C29_3 C28_3 1_555 1_555
H23_3 C29_3 1_555 1_555
C30_3 N20 1_555 1_555
N14_3 C7_3 1_555 1_555
C27_3 C28_3 1_555 1_555
C29_3 C30_3 1_555 1_555
C30_3 C31_3 1_555 1_555
C1_3 N2_3 1_555 1_555
H9_3 C1_3 1_555 1_555
C34_3 H28_3 1_555 1_555
H29_3 C34_3 1_555 1_555
Co6_2 N1_3 1_555 1_555
Co8 O6_3 1_555 1_555
N4_3 H2_3 1_555 1_555
C2_3 N4_3 1_555 1_555
H10_3 C2_3 1_555 1_555
C10_3 N1_3 1_555 1_555
C11_3 C10_3 1_555 1_555
H17_3 C11_3 1_555 1_555
C12_3 N4_3 1_555 1_555
C36_3 H34_3 1_555 1_555
H35_3 C36_3 1_555 1_555
S1_3 O1_3 1_555 1_555
S2_3 O5_3 1_555 1_555
S3_3 O13_3 1_555 1_555
S4_3 O9_3 1_555 1_555
O1_3 Co6_2 1_555 1_555
O2_3 Co7 1_555 1_555
O3_3 S1_3 1_555 1_555
O4_3 S1_3 1_555 1_555
O5_3 Co7 1_555 1_555
O6_3 S2_3 1_555 1_555
O7_3 S2_3 1_555 1_555
O8_3 S2_3 1_555 1_555
O9_3 Co8 1_555 1_555
O10_3 Co4_3 1_555 1_555
O11_3 S4_3 1_555 1_555
O13_3 Co4_3 1_555 1_555
O19 S3_3 1_555 1_555
O15_3 S3_3 1_555 1_555
O16_3 S3_3 1_555 1_555
O18_3 Co7 1_555 1_555
C9_3 C10_3 1_555 1_555
C11_3 C12_3 1_555 1_555
C12_3 C13_3 1_555 1_555
C36_3 S6_3 1_555 1_555
S1_3 O2_3 1_555 1_555
S4_3 O10_3 1_555 1_555
S6_3 O18_3 1_555 1_555
C33_3 H25_3 1_555 1_555
C35_3 H31_3 1_555 1_555
H32_3 C35_3 1_555 1_555
H33_3 C35_3 1_555 1_555
C33_4 H25_4 1_555 1_555
H26_3 C33_4 1_555 1_555
H27_3 C33_4 1_555 1_555
C35_4 H31_4 1_555 1_555
H32_4 C35_4 1_555 1_555
H33_4 C35_4 1_555 1_555
N14_4 H7_4 1_555 1_555
N20_2 C8_3 1_555 1_555
N16_4 H8_3 1_555 1_555
H15_4 C7_4 1_555 1_555
C8_3 N16_4 1_555 1_555
H16_3 C8_3 1_555 1_555
C28_4 N14_4 1_555 1_555
C29_4 C28_4 1_555 1_555
H23_4 C29_4 1_555 1_555
C30_4 N20_2 1_555 1_555
C31_4 N16_4 1_555 1_555
C32_4 C27_4 1_555 1_555
N14_4 C7_4 1_555 1_555
C27_4 C28_4 1_555 1_555
C29_4 C30_4 1_555 1_555
C30_4 C31_4 1_555 1_555
C31_4 C32_4 1_555 1_555
Co6 N1_4 1_555 1_555
Co7_2 N5_4 1_555 1_555
N1_4 C1_4 1_555 1_555
N2_4 H1_3 1_555 1_555
N17_2 C2_4 1_555 1_555
N4_4 H2_4 1_555 1_555
N5_4 C3_4 1_555 1_555
N6_4 H3_4 1_555 1_555
C1_4 N2_4 1_555 1_555
H9_4 C1_4 1_555 1_555
C2_4 N4_4 1_555 1_555
H10_4 C2_4 1_555 1_555
C3_4 N6_4 1_555 1_555
H11_4 C3_4 1_555 1_555
C9_4 N2_4 1_555 1_555
C10_4 N1_4 1_555 1_555
C11_4 C10_4 1_555 1_555
H17_4 C11_4 1_555 1_555
C12_4 N4_4 1_555 1_555
C13_4 N17_2 1_555 1_555
C14_4 C9_4 1_555 1_555
H18_4 C14_4 1_555 1_555
C15_4 N6_4 1_555 1_555
C16_4 N5_4 1_555 1_555
C17_4 C16_4 1_555 1_555
H19_4 C17_4 1_555 1_555
C19_4 N18 1_555 1_555
C20_4 C15_4 1_555 1_555
H20_4 C20_4 1_555 1_555
C34_4 H28_4 1_555 1_555
H29_4 C34_4 1_555 1_555
C36_4 H34_4 1_555 1_555
H35_4 C36_4 1_555 1_555
S1_4 O1_4 1_555 1_555
S2_4 O5_4 1_555 1_555
O1_4 Co6 1_555 1_555
O2_4 Co7_2 1_555 1_555
O3_4 S1_4 1_555 1_555
O4_4 S1_4 1_555 1_555
O5_4 Co7_2 1_555 1_555
O6_4 S2_4 1_555 1_555
O7_4 S2_4 1_555 1_555
O8_4 S2_4 1_555 1_555
O17_4 Co6 1_555 1_555
O18_4 Co7_2 1_555 1_555
O19_2 Co6 1_555 1_555
C9_4 C10_4 1_555 1_555
C11_4 C12_4 1_555 1_555
C12_4 C13_4 1_555 1_555
C13_4 C14_4 1_555 1_555
C15_4 C16_4 1_555 1_555
C17_4 C18_4 1_555 1_555
C18_4 C19_4 1_555 1_555
C19_4 C20_4 1_555 1_555
C34_4 S5_4 1_555 1_555
C36_4 S6_4 1_555 1_555
S1_4 O2_4 1_555 1_555
S5_4 O17_4 1_555 1_555
S6_4 O18_4 1_555 1_555
Co4_4 N9_4 1_555 1_555
N8_4 H4_4 1_555 1_555
N9_4 C5_4 1_555 1_555
N10_4 H5_4 1_555 1_555
N19 C6_3 1_555 1_555
N12_4 H6_3 1_555 1_555
N13_4 Co4_4 1_555 1_555
C4_4 N8_4 1_555 1_555
H12_4 C4_4 1_555 1_555
C5_4 N10_4 1_555 1_555
H13_4 C5_4 1_555 1_555
C6_3 N12_4 1_555 1_555
H14_3 C6_3 1_555 1_555
C21_4 N10_4 1_555 1_555
C22_4 N9_4 1_555 1_555
C23_4 C22_4 1_555 1_555
H21_4 C23_4 1_555 1_555
C24_4 N12_4 1_555 1_555
C25_4 N19 1_555 1_555
C26_4 C21_4 1_555 1_555
H22_4 C26_4 1_555 1_555
S3_4 O13_4 1_555 1_555
S4_4 O9_4 1_555 1_555
O9_4 Co9 1_555 1_555
O10_4 Co4_4 1_555 1_555
O11_4 S4_4 1_555 1_555
O12_4 S4_4 1_555 1_555
O13_4 Co4_4 1_555 1_555
O19_2 S3_4 1_555 1_555
O15_4 S3_4 1_555 1_555
O16_4 S3_4 1_555 1_555
C21_4 C22_4 1_555 1_555
C23_4 C24_4 1_555 1_555
C24_4 C25_4 1_555 1_555
C25_4 C26_4 1_555 1_555
S4_4 O10_4 1_555 1_555
H14_4 C6_4 1_555 1_555
H16_4 C8_4 1_555 1_555

#END
