
###############################################################################
#
# This file contains modified crystal structure data generated from the
# MOF subset of the Cambridge Structural Database (CSD) v543 
# hosted by the Cambridge Crystallographic Data Centre (CCDC).
#
# This work is licensed under the Creative Commons
# Attribution-NonCommercial-ShareAlike 4.0 International License.
# To view a copy of this license, visit
# http://creativecommons.org/licenses/by-nc-sa/4.0/
# or send a letter to
# Creative Commons, PO Box 1866, Mountain View, CA 94042, USA.
#
# CIF created using the CSD Python API on 29 September 2022
# The structure has been converted into the P1 space group
# The structure has a 3D framework
# The original CSD entry DONXUC is in the triclinic crystal system
# The framework has been calculated to contain at least 10.0% void space
# The void calculation uses a probe of radius 1.32A, grid spacing 0.4
# The framework is charged, counterions have been retained in the structure
#
###############################################################################

data_DONXUC
_chemical_formula_moiety         '(C14 H40 In6 N4 O49 P10 1+)n'
_symmetry_cell_setting           triclinic
_symmetry_space_group_name_H-M   'P 1'
_symmetry_Int_Tables_number      1
_space_group_name_Hall           'P 1'
loop_
_symmetry_equiv_pos_site_id
_symmetry_equiv_pos_as_xyz
1 x,y,z
_cell_length_a                   10.7933(3)
_cell_length_b                   11.9038(3)
_cell_length_c                   13.2892(3)
_cell_angle_alpha                107.688(2)
_cell_angle_beta                 95.217(2)
_cell_angle_gamma                99.513(2)
_cell_volume                     1586.12
loop_
_atom_site_label
_atom_site_type_symbol
_atom_site_fract_x
_atom_site_fract_y
_atom_site_fract_z
O29 O 0.1464(2) 0.10145(19) 0.04438(16)
In13 In 0.07230(2) 0.21409(2) 0.17916(2)
C5 C 0.0664(3) 0.0118(3) 0.9833(2)
In17 In 0.23717(2) 0.50389(2) 0.01470(2)
O10 O 0.0705(2) 0.3819(2) 0.49050(17)
H3 H 0.0054 0.1369 0.3828
O15 O 0.0848(2) 0.3577(2) 0.94531(18)
O30 O 0.0870(2) 0.94024(18) 0.89857(16)
In8 In 0.23764(2) 0.51328(2) 0.51462(2)
O58 O 0.0316(2) 0.70306(19) 0.70329(16)
O60 O 0.0154(2) 0.68615(19) 0.90359(16)
O24 O 0.9130(2) 0.05976(18) 0.10143(16)
O14 O 0.9846(2) 0.31385(19) 0.09641(16)
C2 C 0.9336(3) 0.9882(3) 0.0167(2)
O31 O 0.4286(2) 0.62151(19) 0.05588(17)
O32 O 0.62961(19) 0.62035(19) 0.03056(17)
C6 C 0.5171(3) 0.5695(3) 0.0246(2)
O53 O 0.7738(2) 0.5046(2) 0.15052(16)
O62 O 0.9152(2) 0.6423(2) 0.05469(18)
In1 In 0.76236(2) 0.48672(2) 0.48538(2)
In2 In 0.92770(2) 0.78591(2) 0.82084(2)
In3 In 0.76283(2) 0.49611(2) 0.98530(2)
P1 P 0.72043(7) 0.53512(7) 0.73902(6)
P2 P 0.70277(7) 0.43016(7) 0.21170(6)
P3 P 0.95833(7) 0.29905(7) 0.41046(6)
P4 P 0.96435(7) 0.30147(7) 0.97891(6)
P5 P 0.76818(9) 0.94138(8) 0.68750(7)
O1 O 0.7883(2) 0.4859(2) 0.64405(16)
O2 O 0.7591(2) 0.4789(2) 0.82282(16)
O3 O 0.7504(2) 0.67217(19) 0.78268(17)
O4 O 0.57558(19) 0.4918(2) 0.69817(17)
H1 H 0.5362 0.5313 0.7409
O5 O 0.7502(2) 0.4973(2) 0.32889(16)
O7 O 0.5614(2) 0.4053(2) 0.18057(17)
O8 O 0.7379(2) 0.3018(2) 0.1793(2)
H2 H 0.8145 0.3089 0.1961
O9 O 0.8330(2) 0.32718(19) 0.44281(16)
O11 O 0.9684(2) 0.29694(19) 0.29671(16)
O12 O 0.9523(2) 0.16736(19) 0.41608(18)
O13 O 0.8512(2) 0.3495(2) 0.94777(17)
O16 O 0.9386(2) 0.16401(19) 0.91287(17)
H4 H 0.8702 0.1452 0.8736
O17 O 0.8750(2) 0.8851(2) 0.71787(17)
O19 O 0.6402(3) 0.8493(2) 0.6572(3)
H5 H 0.6526 0.7816 0.6284
O20 O 0.8036(3) 0.9686(3) 0.5840(2)
O21 O 0.56852(19) 0.37476(19) 0.45228(16)
O22 O 0.36762(18) 0.38250(18) 0.47327(16)
O23 O 0.8536(2) 0.89855(19) 0.95562(16)
O25 O 0.5714(2) 0.37849(19) 0.94412(17)
O26 O 0.37039(19) 0.37965(19) 0.96944(17)
C1 C 0.4829(3) 0.4306(3) 0.4788(2)
C3 C 0.4829(3) 0.4305(3) 0.9754(2)
O27 O 0.43148(19) 0.62524(19) 0.54772(16)
O28 O 0.63238(18) 0.61750(18) 0.52673(16)
C4 C 0.5171(3) 0.5694(3) 0.5212(2)
P6 P 0.27957(7) 0.46488(7) 0.26098(6)
P7 P 0.29723(7) 0.56984(7) 0.78830(6)
P8 P 0.04167(7) 0.70095(7) 0.58954(6)
P9 P 0.03565(7) 0.69853(7) 0.02109(6)
P10 P 0.23182(9) 0.05862(8) 0.31250(7)
O33 O 0.2117(2) 0.5141(2) 0.35595(16)
O34 O 0.2409(2) 0.5211(2) 0.17718(16)
O35 O 0.2496(2) 0.32783(19) 0.21732(17)
O36 O 0.42442(19) 0.5082(2) 0.30183(17)
H7 H 0.4638 0.4687 0.2591
O37 O 0.2498(2) 0.5027(2) 0.67111(16)
O38 O 0.2262(2) 0.4954(2) 0.84948(16)
O39 O 0.4386(2) 0.5947(2) 0.81943(17)
O40 O 0.2621(2) 0.6982(2) 0.8207(2)
H8 H 0.1855 0.6911 0.8039
O41 O 0.1670(2) 0.67282(19) 0.55719(16)
O44 O 0.0477(2) 0.83264(19) 0.58392(18)
O45 O 0.1488(2) 0.6505(2) 0.05223(17)
O48 O 0.0614(2) 0.83599(19) 0.08713(17)
H10 H 0.1298 0.8548 0.1264
O49 O 0.1250(2) 0.1149(2) 0.28213(17)
O51 O 0.3598(3) 0.1507(2) 0.3428(3)
H11 H 0.3474 0.2184 0.3716
O52 O 0.1964(3) 0.0314(3) 0.4160(2)
O56 O 0.9295(2) 0.6181(2) 0.50950(17)
H9 H 0.9946 0.8631 0.6172
O18 O 0.7479(2) 0.0503(2) 0.7705(2)
H6 H 0.7503 0.0010 0.5626
O50 O 0.2521(2) 0.9497(2) 0.2295(2)
H12 H 0.2497 0.9990 0.4374
C7 C 0.1040(4) 0.2203(3) 0.6460(3)
H13 H 0.1360 0.2711 0.6054
H14 H 0.0852 0.1377 0.5985
C9 C 0.1835(4) 0.1342(4) 0.7814(3)
H17 H 0.0987 0.1253 0.7986
H18 H 0.2433 0.1532 0.8452
H19 H 0.1933 0.0604 0.7307
C10 C 0.3334(4) 0.2396(4) 0.6971(3)
H20 H 0.3326 0.1675 0.6393
H21 H 0.3982 0.2477 0.7548
H22 H 0.3507 0.3080 0.6729
N1 N 0.2068(3) 0.2325(3) 0.7349(2)
H23 H 0.2092 0.3084 0.7916
H24 H 0.0036 0.4147 0.6666
H25 H 0.0507 0.4199 0.7743
C8 C 0.9827(3) 0.2528(3) 0.6808(3)
H15 H 0.9142 0.2153 0.6213
H16 H 0.9631 0.2205 0.7377
N2 N 0.9886(3) 0.3850(3) 0.7192(3)
H26 H 0.9148 0.3993 0.7397
C8_2 C 0.0173(3) 0.7472(3) 0.3192(3)
H15_2 H 0.0858 0.7847 0.3787
H16_2 H 0.0369 0.7795 0.2623
N2_2 N 0.0114(3) 0.6150(3) 0.2808(3)
H26_2 H 0.0852 0.6007 0.2603
C7_2 C 0.8960(4) 0.7797(3) 0.3540(3)
H13_2 H 0.8640 0.7289 0.3946
H14_2 H 0.9148 0.8623 0.4015
C9_2 C 0.8165(4) 0.8658(4) 0.2186(3)
H17_2 H 0.9013 0.8747 0.2014
H18_2 H 0.7567 0.8468 0.1548
H19_2 H 0.8067 0.9396 0.2693
C10_2 C 0.6666(4) 0.7604(4) 0.3029(3)
H20_2 H 0.6674 0.8325 0.3607
H21_2 H 0.6018 0.7523 0.2452
H22_2 H 0.6493 0.6920 0.3271
N1_2 N 0.7932(3) 0.7675(3) 0.2651(2)
H23_2 H 0.7908 0.6916 0.2084
H24_2 H 0.9964 0.5853 0.3334
H25_2 H 0.9493 0.5801 0.2257
loop_
_geom_bond_atom_site_label_1
_geom_bond_atom_site_label_2
_geom_bond_site_symmetry_1
_geom_bond_site_symmetry_2
O29 In13 1_555 1_555
In8 O10 1_555 1_555
O31 C6 1_555 1_555
O31 In17 1_555 1_555
O32 C6 1_555 1_555
In1 O1 1_555 1_555
In2 O3 1_555 1_555
In3 O2 1_555 1_555
P1 O1 1_555 1_555
P2 O5 1_555 1_555
P3 O9 1_555 1_555
P4 O13 1_555 1_555
P5 O17 1_555 1_555
O2 P1 1_555 1_555
O3 P1 1_555 1_555
O4 P1 1_555 1_555
H1 O4 1_555 1_555
O5 In1 1_555 1_555
O53 P2 1_555 1_555
O7 P2 1_555 1_555
O8 P2 1_555 1_555
H2 O8 1_555 1_555
O9 In1 1_555 1_555
O11 P3 1_555 1_555
O12 P3 1_555 1_555
O13 In3 1_555 1_555
O16 P4 1_555 1_555
H4 O16 1_555 1_555
O17 In2 1_555 1_555
O19 P5 1_555 1_555
H5 O19 1_555 1_555
O20 P5 1_555 1_555
O21 In1 1_555 1_555
O22 C1 1_555 1_555
O23 In2 1_555 1_555
O25 In3 1_555 1_555
O26 C3 1_555 1_555
C1 O21 1_555 1_555
C3 O25 1_555 1_555
O27 C4 1_555 1_555
O28 In1 1_555 1_555
C4 C1 1_555 1_555
In8 O22 1_555 1_555
In13 O35 1_555 1_555
In17 O34 1_555 1_555
P6 O33 1_555 1_555
P7 O37 1_555 1_555
P8 O41 1_555 1_555
P9 O45 1_555 1_555
P10 O49 1_555 1_555
O33 In8 1_555 1_555
O34 P6 1_555 1_555
O35 P6 1_555 1_555
O36 P6 1_555 1_555
H7 O36 1_555 1_555
O37 In8 1_555 1_555
O38 P7 1_555 1_555
O39 P7 1_555 1_555
O40 P7 1_555 1_555
H8 O40 1_555 1_555
O41 In8 1_555 1_555
O58 P8 1_555 1_555
O44 P8 1_555 1_555
O45 In17 1_555 1_555
O48 P9 1_555 1_555
H10 O48 1_555 1_555
O49 In13 1_555 1_555
O51 P10 1_555 1_555
H11 O51 1_555 1_555
O52 P10 1_555 1_555
O56 In1 1_555 1_555
O27 In8 1_555 1_555
O28 C4 1_555 1_555
C7 H13 1_555 1_555
H14 C7 1_555 1_555
C9 H17 1_555 1_555
H18 C9 1_555 1_555
H19 C9 1_555 1_555
C10 H20 1_555 1_555
H21 C10 1_555 1_555
H22 C10 1_555 1_555
N1 C7 1_555 1_555
H23 N1 1_555 1_555
C9 N1 1_555 1_555
C10 N1 1_555 1_555
H15 C8 1_555 1_555
H16 C8 1_555 1_555
N2 C8 1_555 1_555
H26 N2 1_555 1_555
H15_2 C8_2 1_555 1_555
H16_2 C8_2 1_555 1_555
N2_2 C8_2 1_555 1_555
H26_2 N2_2 1_555 1_555
C7_2 H13_2 1_555 1_555
H14_2 C7_2 1_555 1_555
C9_2 H17_2 1_555 1_555
H18_2 C9_2 1_555 1_555
H19_2 C9_2 1_555 1_555
C10_2 H20_2 1_555 1_555
H21_2 C10_2 1_555 1_555
H22_2 C10_2 1_555 1_555
N1_2 C7_2 1_555 1_555
H23_2 N1_2 1_555 1_555
C9_2 N1_2 1_555 1_555
C10_2 N1_2 1_555 1_555

#END
