
###############################################################################
#
# This file contains modified crystal structure data generated from the
# MOF subset of the Cambridge Structural Database (CSD) v543 
# hosted by the Cambridge Crystallographic Data Centre (CCDC).
#
# This work is licensed under the Creative Commons
# Attribution-NonCommercial-ShareAlike 4.0 International License.
# To view a copy of this license, visit
# http://creativecommons.org/licenses/by-nc-sa/4.0/
# or send a letter to
# Creative Commons, PO Box 1866, Mountain View, CA 94042, USA.
#
# CIF created using the CSD Python API on 29 September 2022
# The structure has been converted into the P1 space group
# The structure has a 3D framework
# The original CSD entry DOPHOH is in the cubic crystal system
# The original CSD entry DOPHOH is in a Sohncke space group
# The framework has been calculated to contain at least 10.0% void space
# The void calculation uses a probe of radius 1.32A, grid spacing 0.4
# H atom positions have been added when not included in the experimental data
# Generated hydrogen atom positions removed from atoms on special positions
#
###############################################################################

data_DOPHOH
_chemical_formula_moiety         '(C672 H1152 Cu156 N96 O568)n'
_symmetry_cell_setting           triclinic
_symmetry_space_group_name_H-M   'P 1'
_symmetry_Int_Tables_number      1
_space_group_name_Hall           'P 1'
loop_
_symmetry_equiv_pos_site_id
_symmetry_equiv_pos_as_xyz
1 x,y,z
_cell_length_a                   34.172(5)
_cell_length_b                   34.172(5)
_cell_length_c                   34.172(5)
_cell_angle_alpha                90
_cell_angle_beta                 90
_cell_angle_gamma                90
_cell_volume                     39903.5
loop_
_atom_site_label
_atom_site_type_symbol
_atom_site_fract_x
_atom_site_fract_y
_atom_site_fract_z
Cu2 Cu 0.28920(7) 0.0000 0.0000
Cu4 Cu 0.21095(7) 0.0000 0.0000
O8 O 0.1505(4) 0.0000 0.0000
O9 O 0.3488(4) 0.0000 0.0000
O35 O 0.1463(3) 0.1378(2) 0.0128(2)
C43 C 0.4001(3) 0.1423(3) 0.0875(3)
H31 H 0.4070 0.1637 0.0723
C44 C 0.1172(3) 0.2568(3) 0.0082(3)
H32 H 0.1228 0.2696 0.0329
N7 N 0.3062(2) 0.1255(2) 0.0415(3)
O37 O 0.2136(2) 0.0556(2) 0.0088(2)
C45 C 0.3672(3) 0.1201(3) 0.0773(3)
C46 C 0.1205(3) 0.1323(3) 0.0773(3)
C47 C 0.1317(3) 0.1547(3) 0.0419(3)
N8 N 0.1254(2) 0.1935(2) 0.0420(3)
H34 H 0.1146 0.2046 0.0619
C48 C 0.1370(3) 0.2165(3) 0.0080(3)
C49 C 0.2434(3) 0.1173(3) 0.0079(3)
C50 C 0.0875(3) 0.1426(3) 0.0999(3)
H36 H 0.0726 0.1643 0.0931
C51 C 0.1810(3) 0.2245(3) 0.0074(3)
O39 O 0.3621(2) 0.1458(2) 0.0126(2)
C52 C 0.2755(3) 0.1814(3) 0.0073(3)
C53 C 0.2455(3) 0.0736(3) 0.0030(3)
C54 C 0.3453(3) 0.1315(3) 0.0417(3)
O40 O 0.2758(2) 0.1993(2) 0.0393(2)
C55 C 0.0735(3) 0.2546(4) 0.0028(3)
O41 O 0.0560(2) 0.2864(2) 0.0089(2)
O42 O 0.19921(19) 0.2242(2) 0.0395(2)
C56 C 0.2833(3) 0.1375(3) 0.0080(3)
H37 H 0.2954 0.1160 0.0623
H38 H 0.2300 0.1224 0.0331
O45 O 0.0128(2) 0.1463(3) 0.1378(2)
C57 C 0.0082(3) 0.1172(3) 0.2568(3)
H41 H 0.0329 0.1228 0.2696
C58 C 0.0773(3) 0.1205(3) 0.1323(3)
C59 C 0.0419(3) 0.1317(3) 0.1547(3)
N9 N 0.0420(3) 0.1254(2) 0.1935(2)
H43 H 0.0619 0.1146 0.2046
C60 C 0.0080(3) 0.1370(3) 0.2165(3)
C61 C 0.0999(3) 0.0875(3) 0.1426(3)
H45 H 0.0931 0.0726 0.1643
C62 C 0.0074(3) 0.1810(3) 0.2245(3)
C63 C 0.0028(3) 0.0735(3) 0.2546(4)
O47 O 0.0089(2) 0.0560(2) 0.2864(2)
O48 O 0.0395(2) 0.19921(19) 0.2242(2)
O50 O 0.1378(2) 0.0128(2) 0.1463(3)
C64 C 0.2568(3) 0.0082(3) 0.1172(3)
H46 H 0.2696 0.0329 0.1228
C65 C 0.1323(3) 0.0773(3) 0.1205(3)
C66 C 0.1547(3) 0.0419(3) 0.1317(3)
N10 N 0.1935(2) 0.0420(3) 0.1254(2)
H48 H 0.2046 0.0619 0.1146
C67 C 0.2165(3) 0.0080(3) 0.1370(3)
C68 C 0.1426(3) 0.0999(3) 0.0875(3)
H50 H 0.1643 0.0931 0.0726
C69 C 0.2245(3) 0.0074(3) 0.1810(3)
C70 C 0.2546(4) 0.0028(3) 0.0735(3)
O52 O 0.2864(2) 0.0089(2) 0.0560(2)
O53 O 0.2242(2) 0.0395(2) 0.19921(19)
C71 C 0.3577(3) 0.0875(3) 0.0999(3)
H51 H 0.3363 0.0723 0.0930
N11 N 0.3745(2) 0.0415(3) 0.1938(2)
O55 O 0.4444(2) 0.0088(2) 0.2864(2)
C72 C 0.3799(3) 0.0773(3) 0.1328(3)
C73 C 0.3827(3) 0.0079(3) 0.2566(3)
O57 O 0.3542(2) 0.0126(2) 0.1379(2)
C74 C 0.3186(3) 0.0073(3) 0.2245(3)
C75 C 0.4264(3) 0.0030(3) 0.2545(3)
C76 C 0.3685(3) 0.0417(3) 0.1547(3)
O58 O 0.3007(2) 0.0393(2) 0.2242(2)
C77 C 0.3625(3) 0.0080(3) 0.2167(3)
H52 H 0.3840 0.0623 0.2046
H53 H 0.3776 0.0331 0.2700
C78 C 0.4125(3) 0.0999(3) 0.1423(3)
H56 H 0.4277 0.0930 0.1637
N12 N 0.4585(3) 0.1938(2) 0.1255(2)
O60 O 0.4912(2) 0.2864(2) 0.0556(2)
C79 C 0.4227(3) 0.1328(3) 0.1201(3)
O61 O 0.5251(2) 0.2338(2) 0.1953(2)
C80 C 0.4921(3) 0.2566(3) 0.1173(3)
O62 O 0.4874(2) 0.1379(2) 0.1458(2)
C81 C 0.4927(3) 0.2245(3) 0.1814(3)
C82 C 0.4970(3) 0.2545(3) 0.0736(3)
C83 C 0.4583(3) 0.1547(3) 0.1315(3)
O63 O 0.4607(2) 0.2242(2) 0.1993(2)
O64 O 0.5073(2) 0.2230(2) 0.0579(2)
C84 C 0.4920(3) 0.2167(3) 0.1375(3)
H57 H 0.4377 0.2046 0.1160
H58 H 0.4669 0.2700 0.1224
H59 H 0.5123 0.2730 0.1282
H60 H 0.5155 0.2023 0.1302
Cu5 Cu -0.0000 0.28920(7) 0.0000
Cu6 Cu 0.0000 0.21095(7) 0.0000
O65 O 0.0000 0.1505(4) 0.0000
O66 O -0.0000 0.3488(4) 0.0000
Cu7 Cu -0.0000 0.0000 0.28920(7)
Cu8 Cu 0.0000 0.0000 0.21095(7)
O67 O 0.0000 0.0000 0.1505(4)
O68 O -0.0000 0.0000 0.3488(4)
Cu13 Cu 0.2500 0.2500 0.04527(5)
Cu14 Cu 0.2500 0.04527(5) 0.2500
Cu15 Cu 0.04527(5) 0.2500 0.2500
Cu16 Cu 0.45473(5) 0.2500 0.2500
Cu21 Cu 0.5000 0.0000 0.21080(7)
Cu23 Cu 0.5000 0.21080(7) 0.0000
Cu27 Cu 0.53162(4) 0.2500 0.2500
Cu32 Cu 0.5000 0.0000 0.28905(7)
Cu34 Cu 0.5000 0.28905(7) 0.0000
O78 O 0.0556(2) 0.0088(2) 0.2136(2)
O79 O 0.0088(2) 0.2136(2) 0.0556(2)
H61 H 0.0166281 0.140814 0.0217738
H71 H 0.0217738 0.0166281 0.140814
H84 H 0.140814 0.0270601 0.0042829
Cu2_2 Cu 0.28920(7) 0.0000 1.0000
Cu4_2 Cu 0.21095(7) 0.0000 1.0000
O8_2 O 0.1505(4) 0.0000 1.0000
O9_2 O 0.3488(4) 0.0000 1.0000
O21 O 0.2339(2) 0.0259(2) 0.8050(2)
H17 H 0.2726 0.0125 0.8716
H19 H 0.2024 0.0159 0.8704
O24 O 0.2230(2) 0.0075(2) 0.9420(2)
O26 O 0.3047(2) 0.0251(2) 0.7662(2)
O29 O 0.4421(2) 0.0073(2) 0.7770(2)
H24 H 0.3718 0.0123 0.7270
H25 H 0.3698 0.0155 0.7977
O36 O 0.1950(2) 0.2339(2) 0.9741(2)
H33 H 0.1284 0.2726 0.9875
O38 O 0.2662(2) 0.1953(2) 0.9749(2)
H35 H 0.1296 0.2024 0.9841
O43 O 0.2770(2) 0.0579(2) 0.9927(2)
O44 O 0.0580(2) 0.2230(2) 0.9925(2)
H39 H 0.2270 0.1282 0.9877
H40 H 0.2977 0.1302 0.9845
Cu5_2 Cu -0.0000 0.28920(7) 1.0000
Cu6_2 Cu 0.0000 0.21095(7) 1.0000
O65_2 O 0.0000 0.1505(4) 1.0000
O66_2 O -0.0000 0.3488(4) 1.0000
Cu12 Cu 0.2500 0.03162(4) 0.7500
O72 O 0.2500 0.0935(3) 0.7500
Cu19 Cu -0.0000 0.0000 0.71080(7)
Cu20 Cu 0.5000 0.0000 0.78920(7)
Cu23_2 Cu 0.5000 0.21080(7) 1.0000
Cu24 Cu 0.2500 0.2500 0.96838(4)
Cu30 Cu -0.0000 0.0000 0.78905(7)
Cu31 Cu 0.5000 0.0000 0.71095(7)
Cu34_2 Cu 0.5000 0.28905(7) 1.0000
O74 O 0.2661(2) 0.0259(2) 0.6950(2)
O81 O 0.1953(2) 0.0251(2) 0.7338(2)
O93 O 0.0073(2) 0.2770(2) 0.9421(2)
H67 H 0.0172528 0.358486 0.978718
H82 H 0.358486 0.0271818 0.996573
Cu2_3 Cu 0.28920(7) 1.0000 0.0000
Cu3 Cu 0.2500 0.7500 0.03162(4)
Cu4_3 Cu 0.21095(7) 1.0000 0.0000
O2 O 0.1950(2) 0.7661(2) 0.0259(2)
H3 H 0.1284 0.7274 0.0125
O4 O 0.2500 0.7500 0.0935(3)
O6 O 0.2662(2) 0.8047(2) 0.0251(2)
H5 H 0.1296 0.7976 0.0159
O8_3 O 0.1505(4) 1.0000 0.0000
O9_3 O 0.3488(4) 1.0000 0.0000
O13 O 0.2770(2) 0.9421(2) 0.0073(2)
O14 O 0.0580(2) 0.7770(2) 0.0075(2)
H9 H 0.2270 0.8718 0.0123
H10 H 0.2977 0.8698 0.0155
O51 O 0.2339(2) 0.9741(2) 0.1950(2)
H47 H 0.2726 0.9875 0.1284
H49 H 0.2024 0.9841 0.1296
O54 O 0.2230(2) 0.9925(2) 0.0580(2)
O56 O 0.3047(2) 0.9749(2) 0.2338(2)
O59 O 0.4421(2) 0.9927(2) 0.2230(2)
H54 H 0.3718 0.9877 0.2730
H55 H 0.3698 0.9845 0.2023
Cu7_2 Cu -0.0000 1.0000 0.28920(7)
Cu8_2 Cu 0.0000 1.0000 0.21095(7)
O67_2 O 0.0000 1.0000 0.1505(4)
O68_2 O -0.0000 1.0000 0.3488(4)
Cu18 Cu -0.0000 0.71080(7) 0.0000
Cu21_2 Cu 0.5000 1.0000 0.21080(7)
Cu22 Cu 0.5000 0.78920(7) 0.0000
Cu25 Cu 0.2500 0.96838(4) 0.2500
Cu29 Cu -0.0000 0.78905(7) 0.0000
Cu32_2 Cu 0.5000 1.0000 0.28905(7)
Cu33 Cu 0.5000 0.71095(7) 0.0000
O75 O 0.3050(2) 0.7339(2) 0.0259(2)
O83 O 0.2338(2) 0.6953(2) 0.0251(2)
O95 O 0.0579(2) 0.9927(2) 0.2770(2)
O98 O 0.0075(2) 0.9420(2) 0.2230(2)
H72 H 0.00351346 0.972829 0.140814
H83 H 0.140814 0.982761 0.0212933
Cu1 Cu 0.2500 0.7500 0.95473(5)
Cu2_4 Cu 0.28920(7) 1.0000 1.0000
Cu4_4 Cu 0.21095(7) 1.0000 1.0000
O1 O 0.1463(3) 0.8622(2) 0.9872(2)
C1 C 0.4001(3) 0.8577(3) 0.9125(3)
H1 H 0.4070 0.8363 0.9277
O3 O 0.2500 0.7500 0.8917(4)
C2 C 0.1172(3) 0.7432(3) 0.9918(3)
H2 H 0.1228 0.7304 0.9671
N1 N 0.3062(2) 0.8745(2) 0.9585(3)
O5 O 0.2136(2) 0.9444(2) 0.9912(2)
C3 C 0.3672(3) 0.8799(3) 0.9227(3)
C4 C 0.1205(3) 0.8677(3) 0.9227(3)
C5 C 0.1317(3) 0.8453(3) 0.9581(3)
N2 N 0.1254(2) 0.8065(2) 0.9580(3)
H4 H 0.1146 0.7954 0.9381
C6 C 0.1370(3) 0.7835(3) 0.9920(3)
C7 C 0.2434(3) 0.8827(3) 0.9921(3)
C8 C 0.0875(3) 0.8574(3) 0.9001(3)
H6 H 0.0726 0.8357 0.9069
C9 C 0.1810(3) 0.7755(3) 0.9926(3)
O7 O 0.3621(2) 0.8542(2) 0.9874(2)
O8_4 O 0.1505(4) 1.0000 1.0000
C10 C 0.2755(3) 0.8186(3) 0.9927(3)
O9_4 O 0.3488(4) 1.0000 1.0000
C11 C 0.2455(3) 0.9264(3) 0.9970(3)
C12 C 0.3453(3) 0.8685(3) 0.9583(3)
O10 O 0.2758(2) 0.8007(2) 0.9607(2)
C13 C 0.0735(3) 0.7454(4) 0.9972(3)
O11 O 0.0560(2) 0.7136(2) 0.9911(2)
O12 O 0.19921(19) 0.7758(2) 0.9605(2)
C14 C 0.2833(3) 0.8625(3) 0.9920(3)
H7 H 0.2954 0.8840 0.9377
H8 H 0.2300 0.8776 0.9669
O15 O 0.0128(2) 0.8537(3) 0.8622(2)
C15 C 0.0082(3) 0.8828(3) 0.7432(3)
H11 H 0.0329 0.8772 0.7304
C16 C 0.0773(3) 0.8795(3) 0.8677(3)
C17 C 0.0419(3) 0.8683(3) 0.8453(3)
N3 N 0.0420(3) 0.8746(2) 0.8065(2)
H13 H 0.0619 0.8854 0.7954
C18 C 0.0080(3) 0.8630(3) 0.7835(3)
C19 C 0.0999(3) 0.9125(3) 0.8574(3)
H15 H 0.0931 0.9274 0.8357
C20 C 0.0074(3) 0.8190(3) 0.7755(3)
C21 C 0.0028(3) 0.9265(3) 0.7454(4)
O17 O 0.0089(2) 0.9440(2) 0.7136(2)
O18 O 0.0395(2) 0.80079(19) 0.7758(2)
O20 O 0.1378(2) 0.9872(2) 0.8537(3)
C22 C 0.2568(3) 0.9918(3) 0.8828(3)
H16 H 0.2696 0.9671 0.8772
C23 C 0.1323(3) 0.9227(3) 0.8795(3)
C24 C 0.1547(3) 0.9581(3) 0.8683(3)
N4 N 0.1935(2) 0.9580(3) 0.8746(2)
H18 H 0.2046 0.9381 0.8854
C25 C 0.2165(3) 0.9920(3) 0.8630(3)
C26 C 0.1426(3) 0.9001(3) 0.9125(3)
H20 H 0.1643 0.9069 0.9274
C27 C 0.2245(3) 0.9926(3) 0.8190(3)
C28 C 0.2546(4) 0.9972(3) 0.9265(3)
O22 O 0.2864(2) 0.9911(2) 0.9440(2)
O23 O 0.2242(2) 0.9605(2) 0.80079(19)
C29 C 0.3577(3) 0.9125(3) 0.9001(3)
H21 H 0.3363 0.9277 0.9070
N5 N 0.3745(2) 0.9585(3) 0.8062(2)
O25 O 0.4444(2) 0.9912(2) 0.7136(2)
C30 C 0.3799(3) 0.9227(3) 0.8672(3)
C31 C 0.3827(3) 0.9921(3) 0.7434(3)
O27 O 0.3542(2) 0.9874(2) 0.8621(2)
C32 C 0.3186(3) 0.9927(3) 0.7755(3)
C33 C 0.4264(3) 0.9970(3) 0.7455(3)
C34 C 0.3685(3) 0.9583(3) 0.8453(3)
O28 O 0.3007(2) 0.9607(2) 0.7758(2)
C35 C 0.3625(3) 0.9920(3) 0.7833(3)
H22 H 0.3840 0.9377 0.7954
H23 H 0.3776 0.9669 0.7300
C36 C 0.4125(3) 0.9001(3) 0.8577(3)
H26 H 0.4277 0.9070 0.8363
N6 N 0.4585(3) 0.8062(2) 0.8745(2)
O30 O 0.4912(2) 0.7136(2) 0.9444(2)
C37 C 0.4227(3) 0.8672(3) 0.8799(3)
O31 O 0.5251(2) 0.7662(2) 0.8047(2)
C38 C 0.4921(3) 0.7434(3) 0.8827(3)
O32 O 0.4874(2) 0.8621(2) 0.8542(2)
C39 C 0.4927(3) 0.7755(3) 0.8186(3)
C40 C 0.4970(3) 0.7455(3) 0.9264(3)
C41 C 0.4583(3) 0.8453(3) 0.8685(3)
O33 O 0.4607(2) 0.7758(2) 0.8007(2)
O34 O 0.5073(2) 0.7770(2) 0.9421(2)
C42 C 0.4920(3) 0.7833(3) 0.8625(3)
H27 H 0.4377 0.7954 0.8840
H28 H 0.4669 0.7300 0.8776
H29 H 0.5123 0.7270 0.8718
H30 H 0.5155 0.7977 0.8698
Cu9 Cu 0.04527(5) 0.7500 0.7500
O69 O 0.1083(4) 0.7500 0.7500
Cu11 Cu 0.2500 0.95473(5) 0.7500
O71 O 0.2500 0.8917(4) 0.7500
Cu17 Cu 0.45473(5) 0.7500 0.7500
Cu18_2 Cu -0.0000 0.71080(7) 1.0000
Cu19_2 Cu -0.0000 1.0000 0.71080(7)
Cu20_2 Cu 0.5000 1.0000 0.78920(7)
Cu22_2 Cu 0.5000 0.78920(7) 1.0000
Cu28 Cu 0.53162(4) 0.7500 0.7500
Cu29_2 Cu -0.0000 0.78905(7) 1.0000
Cu30_2 Cu -0.0000 1.0000 0.78905(7)
Cu31_2 Cu 0.5000 1.0000 0.71095(7)
Cu33_2 Cu 0.5000 0.71095(7) 1.0000
O84 O 0.0393(2) 0.7242(2) 0.8007(2)
O85 O 0.1993(2) 0.9607(2) 0.7242(2)
O86 O 0.0393(2) 0.7758(2) 0.6993(2)
O87 O 0.2242(2) 0.6993(2) 0.9607(2)
O90 O 0.0395(2) 0.69921(19) 0.7242(2)
O91 O 0.2758(2) 0.9605(2) 0.69921(19)
O92 O 0.30079(19) 0.7242(2) 0.9605(2)
H81 H 0.358486 0.983441 0.978173
O46 O 0.9741(2) 0.1950(2) 0.2339(2)
H42 H 0.9875 0.1284 0.2726
H44 H 0.9841 0.1296 0.2024
O49 O 0.9925(2) 0.0580(2) 0.2230(2)
Cu5_3 Cu 1.0000 0.28920(7) 0.0000
Cu6_3 Cu 1.0000 0.21095(7) 0.0000
O65_3 O 1.0000 0.1505(4) 0.0000
O66_3 O 1.0000 0.3488(4) 0.0000
Cu7_3 Cu 1.0000 0.0000 0.28920(7)
Cu8_3 Cu 1.0000 0.0000 0.21095(7)
O67_3 O 1.0000 0.0000 0.1505(4)
O68_3 O 1.0000 0.0000 0.3488(4)
Cu26 Cu 0.96838(4) 0.2500 0.2500
O94 O 0.9421(2) 0.0073(2) 0.2770(2)
O96 O 0.9927(2) 0.2770(2) 0.0579(2)
O97 O 0.9420(2) 0.2230(2) 0.0075(2)
H62 H 0.972829 0.140814 0.00351346
H63 H 0.978718 0.0172528 0.358486
Cu5_4 Cu 1.0000 0.28920(7) 1.0000
Cu6_4 Cu 1.0000 0.21095(7) 1.0000
O65_4 O 1.0000 0.1505(4) 1.0000
O66_4 O 1.0000 0.3488(4) 1.0000
Cu19_3 Cu 1.0000 0.0000 0.71080(7)
Cu30_3 Cu 1.0000 0.0000 0.78905(7)
O76 O 0.9912(2) 0.2136(2) 0.9444(2)
O88 O 0.9440(2) 0.2864(2) 0.9911(2)
H68 H 0.972943 0.358486 0.9957
Cu7_4 Cu 1.0000 1.0000 0.28920(7)
Cu8_4 Cu 1.0000 1.0000 0.21095(7)
O67_4 O 1.0000 1.0000 0.1505(4)
O68_4 O 1.0000 1.0000 0.3488(4)
Cu18_3 Cu 1.0000 0.71080(7) 0.0000
Cu29_3 Cu 1.0000 0.78905(7) 0.0000
O77 O 0.9444(2) 0.9912(2) 0.2136(2)
O89 O 0.9911(2) 0.9440(2) 0.2864(2)
H64 H 0.9957 0.972943 0.358486
O16 O 0.9741(2) 0.8050(2) 0.7661(2)
H12 H 0.9875 0.8716 0.7274
H14 H 0.9841 0.8704 0.7976
O19 O 0.9925(2) 0.9420(2) 0.7770(2)
Cu10 Cu 0.96838(4) 0.7500 0.7500
O70 O 0.9065(3) 0.7500 0.7500
Cu18_4 Cu 1.0000 0.71080(7) 1.0000
Cu19_4 Cu 1.0000 1.0000 0.71080(7)
Cu29_4 Cu 1.0000 0.78905(7) 1.0000
Cu30_4 Cu 1.0000 1.0000 0.78905(7)
O73 O 0.9741(2) 0.6950(2) 0.7339(2)
O80 O 0.9749(2) 0.7338(2) 0.8047(2)
O82 O 0.9749(2) 0.7662(2) 0.6953(2)
H64_2 H 0.00430019 0.0270574 0.358486
O16_2 O 0.0259(2) 0.1950(2) 0.7661(2)
H12_2 H 0.0125 0.1284 0.7274
H14_2 H 0.0159 0.1296 0.7976
O19_2 O 0.0075(2) 0.0580(2) 0.7770(2)
Cu10_2 Cu 0.03162(4) 0.2500 0.7500
O70_2 O 0.0935(3) 0.2500 0.7500
O73_2 O 0.0259(2) 0.3050(2) 0.7339(2)
O80_2 O 0.0251(2) 0.2662(2) 0.8047(2)
O82_2 O 0.0251(2) 0.2338(2) 0.6953(2)
O46_2 O 0.0259(2) 0.8050(2) 0.2339(2)
H42_2 H 0.0125 0.8716 0.2726
H44_2 H 0.0159 0.8704 0.2024
O65_5 O -0.0000 0.8495(4) 0.0000
O66_5 O 0.0000 0.6512(4) 0.0000
Cu26_2 Cu 0.03162(4) 0.7500 0.2500
O96_2 O 0.0073(2) 0.7230(2) 0.0579(2)
H62_2 H 0.0271708 0.859186 0.00351346
H63_2 H 0.0212823 0.982747 0.358486
O65_6 O -0.0000 0.8495(4) 1.0000
O66_6 O 0.0000 0.6512(4) 1.0000
O76_2 O 0.0088(2) 0.7864(2) 0.9444(2)
H68_2 H 0.0270574 0.641514 0.9957
Cu2_5 Cu 0.71080(7) -0.0000 0.0000
Cu3_2 Cu 0.7500 0.2500 0.03162(4)
Cu4_5 Cu 0.78905(7) -0.0000 0.0000
O2_2 O 0.8050(2) 0.2339(2) 0.0259(2)
H3_2 H 0.8716 0.2726 0.0125
O4_2 O 0.7500 0.2500 0.0935(3)
O6_2 O 0.7338(2) 0.1953(2) 0.0251(2)
H5_2 H 0.8704 0.2024 0.0159
O8_5 O 0.8495(4) -0.0000 0.0000
O9_5 O 0.6512(4) -0.0000 0.0000
O13_2 O 0.7230(2) 0.0579(2) 0.0073(2)
H9_2 H 0.7730 0.1282 0.0123
H10_2 H 0.7023 0.1302 0.0155
O51_2 O 0.7661(2) 0.0259(2) 0.1950(2)
H47_2 H 0.7274 0.0125 0.1284
H49_2 H 0.7976 0.0159 0.1296
O54_2 O 0.7770(2) 0.0075(2) 0.0580(2)
O56_2 O 0.6953(2) 0.0251(2) 0.2338(2)
O59_2 O 0.5579(2) 0.0073(2) 0.2230(2)
H54_2 H 0.6282 0.0123 0.2730
H55_2 H 0.6302 0.0155 0.2023
Cu25_2 Cu 0.7500 0.03162(4) 0.2500
O75_2 O 0.6950(2) 0.2661(2) 0.0259(2)
O83_2 O 0.7662(2) 0.3047(2) 0.0251(2)
H72_2 H 0.996487 0.0271708 0.140814
H83_2 H 0.859186 0.0172392 0.0212933
Cu1_2 Cu 0.7500 0.2500 0.95473(5)
Cu2_6 Cu 0.71080(7) -0.0000 1.0000
Cu4_6 Cu 0.78905(7) -0.0000 1.0000
O1_2 O 0.8537(3) 0.1378(2) 0.9872(2)
C1_2 C 0.5999(3) 0.1423(3) 0.9125(3)
H1_2 H 0.5930 0.1637 0.9277
O3_2 O 0.7500 0.2500 0.8917(4)
C2_2 C 0.8828(3) 0.2568(3) 0.9918(3)
H2_2 H 0.8772 0.2696 0.9671
N1_2 N 0.6938(2) 0.1255(2) 0.9585(3)
O5_2 O 0.7864(2) 0.0556(2) 0.9912(2)
C3_2 C 0.6328(3) 0.1201(3) 0.9227(3)
C4_2 C 0.8795(3) 0.1323(3) 0.9227(3)
C5_2 C 0.8683(3) 0.1547(3) 0.9581(3)
N2_2 N 0.8746(2) 0.1935(2) 0.9580(3)
H4_2 H 0.8854 0.2046 0.9381
C6_2 C 0.8630(3) 0.2165(3) 0.9920(3)
C7_2 C 0.7566(3) 0.1173(3) 0.9921(3)
C8_2 C 0.9125(3) 0.1426(3) 0.9001(3)
H6_2 H 0.9274 0.1643 0.9069
C9_2 C 0.8190(3) 0.2245(3) 0.9926(3)
O7_2 O 0.6379(2) 0.1458(2) 0.9874(2)
O8_6 O 0.8495(4) -0.0000 1.0000
C10_2 C 0.7245(3) 0.1814(3) 0.9927(3)
O9_6 O 0.6512(4) -0.0000 1.0000
C11_2 C 0.7545(3) 0.0736(3) 0.9970(3)
C12_2 C 0.6547(3) 0.1315(3) 0.9583(3)
O10_2 O 0.7242(2) 0.1993(2) 0.9607(2)
C13_2 C 0.9265(3) 0.2546(4) 0.9972(3)
O12_2 O 0.80079(19) 0.2242(2) 0.9605(2)
C14_2 C 0.7167(3) 0.1375(3) 0.9920(3)
H7_2 H 0.7046 0.1160 0.9377
H8_2 H 0.7700 0.1224 0.9669
O15_2 O 0.9872(2) 0.1463(3) 0.8622(2)
C15_2 C 0.9918(3) 0.1172(3) 0.7432(3)
H11_2 H 0.9671 0.1228 0.7304
C16_2 C 0.9227(3) 0.1205(3) 0.8677(3)
C17_2 C 0.9581(3) 0.1317(3) 0.8453(3)
N3_2 N 0.9580(3) 0.1254(2) 0.8065(2)
H13_2 H 0.9381 0.1146 0.7954
C18_2 C 0.9920(3) 0.1370(3) 0.7835(3)
C19_2 C 0.9001(3) 0.0875(3) 0.8574(3)
H15_2 H 0.9069 0.0726 0.8357
C20_2 C 0.9926(3) 0.1810(3) 0.7755(3)
C21_2 C 0.9972(3) 0.0735(3) 0.7454(4)
O17_2 O 0.9911(2) 0.0560(2) 0.7136(2)
O18_2 O 0.9605(2) 0.19921(19) 0.7758(2)
O20_2 O 0.8622(2) 0.0128(2) 0.8537(3)
C22_2 C 0.7432(3) 0.0082(3) 0.8828(3)
H16_2 H 0.7304 0.0329 0.8772
C23_2 C 0.8677(3) 0.0773(3) 0.8795(3)
C24_2 C 0.8453(3) 0.0419(3) 0.8683(3)
N4_2 N 0.8065(2) 0.0420(3) 0.8746(2)
H18_2 H 0.7954 0.0619 0.8854
C25_2 C 0.7835(3) 0.0080(3) 0.8630(3)
C26_2 C 0.8574(3) 0.0999(3) 0.9125(3)
H20_2 H 0.8357 0.0931 0.9274
C27_2 C 0.7755(3) 0.0074(3) 0.8190(3)
C28_2 C 0.7454(4) 0.0028(3) 0.9265(3)
O22_2 O 0.7136(2) 0.0089(2) 0.9440(2)
O23_2 O 0.7758(2) 0.0395(2) 0.80079(19)
C29_2 C 0.6423(3) 0.0875(3) 0.9001(3)
H21_2 H 0.6637 0.0723 0.9070
N5_2 N 0.6255(2) 0.0415(3) 0.8062(2)
O25_2 O 0.5556(2) 0.0088(2) 0.7136(2)
C30_2 C 0.6201(3) 0.0773(3) 0.8672(3)
C31_2 C 0.6173(3) 0.0079(3) 0.7434(3)
O27_2 O 0.6458(2) 0.0126(2) 0.8621(2)
C32_2 C 0.6814(3) 0.0073(3) 0.7755(3)
C33_2 C 0.5736(3) 0.0030(3) 0.7455(3)
C34_2 C 0.6315(3) 0.0417(3) 0.8453(3)
O28_2 O 0.6993(2) 0.0393(2) 0.7758(2)
C35_2 C 0.6375(3) 0.0080(3) 0.7833(3)
H22_2 H 0.6160 0.0623 0.7954
H23_2 H 0.6224 0.0331 0.7300
C36_2 C 0.5875(3) 0.0999(3) 0.8577(3)
H26_2 H 0.5723 0.0930 0.8363
N6_2 N 0.5415(3) 0.1938(2) 0.8745(2)
O30_2 O 0.5088(2) 0.2864(2) 0.9444(2)
C37_2 C 0.5773(3) 0.1328(3) 0.8799(3)
O31_2 O 0.4749(2) 0.2338(2) 0.8047(2)
C38_2 C 0.5079(3) 0.2566(3) 0.8827(3)
O32_2 O 0.5126(2) 0.1379(2) 0.8542(2)
C39_2 C 0.5073(3) 0.2245(3) 0.8186(3)
C40_2 C 0.5030(3) 0.2545(3) 0.9264(3)
C41_2 C 0.5417(3) 0.1547(3) 0.8685(3)
O33_2 O 0.5393(2) 0.2242(2) 0.8007(2)
O34_2 O 0.4927(2) 0.2230(2) 0.9421(2)
C42_2 C 0.5080(3) 0.2167(3) 0.8625(3)
H27_2 H 0.5623 0.2046 0.8840
H28_2 H 0.5331 0.2700 0.8776
H29_2 H 0.4877 0.2730 0.8718
H30_2 H 0.4845 0.2023 0.8698
Cu9_2 Cu 0.95473(5) 0.2500 0.7500
O69_2 O 0.8917(4) 0.2500 0.7500
Cu11_2 Cu 0.7500 0.04527(5) 0.7500
O71_2 O 0.7500 0.1083(4) 0.7500
Cu17_2 Cu 0.54527(5) 0.2500 0.7500
Cu28_2 Cu 0.46838(4) 0.2500 0.7500
O84_2 O 0.9607(2) 0.2758(2) 0.8007(2)
O85_2 O 0.8007(2) 0.0393(2) 0.7242(2)
O86_2 O 0.9607(2) 0.2242(2) 0.6993(2)
O87_2 O 0.7758(2) 0.3007(2) 0.9607(2)
O90_2 O 0.9605(2) 0.30079(19) 0.7242(2)
O91_2 O 0.7242(2) 0.0395(2) 0.69921(19)
O92_2 O 0.69921(19) 0.2758(2) 0.9605(2)
H81_2 H 0.641514 0.0165588 0.978173
Cu2_7 Cu 0.71080(7) 1.0000 0.0000
Cu4_7 Cu 0.78905(7) 1.0000 0.0000
O8_7 O 0.8495(4) 1.0000 0.0000
O9_7 O 0.6512(4) 1.0000 0.0000
O35_2 O 0.8537(3) 0.8622(2) 0.0128(2)
C43_2 C 0.5999(3) 0.8577(3) 0.0875(3)
H31_2 H 0.5930 0.8363 0.0723
C44_2 C 0.8828(3) 0.7432(3) 0.0082(3)
H32_2 H 0.8772 0.7304 0.0329
N7_2 N 0.6938(2) 0.8745(2) 0.0415(3)
O37_2 O 0.7864(2) 0.9444(2) 0.0088(2)
C45_2 C 0.6328(3) 0.8799(3) 0.0773(3)
C46_2 C 0.8795(3) 0.8677(3) 0.0773(3)
C47_2 C 0.8683(3) 0.8453(3) 0.0419(3)
N8_2 N 0.8746(2) 0.8065(2) 0.0420(3)
H34_2 H 0.8854 0.7954 0.0619
C48_2 C 0.8630(3) 0.7835(3) 0.0080(3)
C49_2 C 0.7566(3) 0.8827(3) 0.0079(3)
C50_2 C 0.9125(3) 0.8574(3) 0.0999(3)
H36_2 H 0.9274 0.8357 0.0931
C51_2 C 0.8190(3) 0.7755(3) 0.0074(3)
O39_2 O 0.6379(2) 0.8542(2) 0.0126(2)
C52_2 C 0.7245(3) 0.8186(3) 0.0073(3)
C53_2 C 0.7545(3) 0.9264(3) 0.0030(3)
C54_2 C 0.6547(3) 0.8685(3) 0.0417(3)
O40_2 O 0.7242(2) 0.8007(2) 0.0393(2)
C55_2 C 0.9265(3) 0.7454(4) 0.0028(3)
O41_2 O 0.9440(2) 0.7136(2) 0.0089(2)
O42_2 O 0.80079(19) 0.7758(2) 0.0395(2)
C56_2 C 0.7167(3) 0.8625(3) 0.0080(3)
H37_2 H 0.7046 0.8840 0.0623
H38_2 H 0.7700 0.8776 0.0331
O45_2 O 0.9872(2) 0.8537(3) 0.1378(2)
C57_2 C 0.9918(3) 0.8828(3) 0.2568(3)
H41_2 H 0.9671 0.8772 0.2696
C58_2 C 0.9227(3) 0.8795(3) 0.1323(3)
C59_2 C 0.9581(3) 0.8683(3) 0.1547(3)
N9_2 N 0.9580(3) 0.8746(2) 0.1935(2)
H43_2 H 0.9381 0.8854 0.2046
C60_2 C 0.9920(3) 0.8630(3) 0.2165(3)
C61_2 C 0.9001(3) 0.9125(3) 0.1426(3)
H45_2 H 0.9069 0.9274 0.1643
C62_2 C 0.9926(3) 0.8190(3) 0.2245(3)
C63_2 C 0.9972(3) 0.9265(3) 0.2546(4)
O48_2 O 0.9605(2) 0.80079(19) 0.2242(2)
O50_2 O 0.8622(2) 0.9872(2) 0.1463(3)
C64_2 C 0.7432(3) 0.9918(3) 0.1172(3)
H46_2 H 0.7304 0.9671 0.1228
C65_2 C 0.8677(3) 0.9227(3) 0.1205(3)
C66_2 C 0.8453(3) 0.9581(3) 0.1317(3)
N10_2 N 0.8065(2) 0.9580(3) 0.1254(2)
H48_2 H 0.7954 0.9381 0.1146
C67_2 C 0.7835(3) 0.9920(3) 0.1370(3)
C68_2 C 0.8574(3) 0.9001(3) 0.0875(3)
H50_2 H 0.8357 0.9069 0.0726
C69_2 C 0.7755(3) 0.9926(3) 0.1810(3)
C70_2 C 0.7454(4) 0.9972(3) 0.0735(3)
O52_2 O 0.7136(2) 0.9911(2) 0.0560(2)
O53_2 O 0.7758(2) 0.9605(2) 0.19921(19)
C71_2 C 0.6423(3) 0.9125(3) 0.0999(3)
H51_2 H 0.6637 0.9277 0.0930
N11_2 N 0.6255(2) 0.9585(3) 0.1938(2)
O55_2 O 0.5556(2) 0.9912(2) 0.2864(2)
C72_2 C 0.6201(3) 0.9227(3) 0.1328(3)
C73_2 C 0.6173(3) 0.9921(3) 0.2566(3)
O57_2 O 0.6458(2) 0.9874(2) 0.1379(2)
C74_2 C 0.6814(3) 0.9927(3) 0.2245(3)
C75_2 C 0.5736(3) 0.9970(3) 0.2545(3)
C76_2 C 0.6315(3) 0.9583(3) 0.1547(3)
O58_2 O 0.6993(2) 0.9607(2) 0.2242(2)
C77_2 C 0.6375(3) 0.9920(3) 0.2167(3)
H52_2 H 0.6160 0.9377 0.2046
H53_2 H 0.6224 0.9669 0.2700
C78_2 C 0.5875(3) 0.9001(3) 0.1423(3)
H56_2 H 0.5723 0.9070 0.1637
N12_2 N 0.5415(3) 0.8062(2) 0.1255(2)
O60_2 O 0.5088(2) 0.7136(2) 0.0556(2)
C79_2 C 0.5773(3) 0.8672(3) 0.1201(3)
O61_2 O 0.4749(2) 0.7662(2) 0.1953(2)
C80_2 C 0.5079(3) 0.7434(3) 0.1173(3)
O62_2 O 0.5126(2) 0.8621(2) 0.1458(2)
C81_2 C 0.5073(3) 0.7755(3) 0.1814(3)
C82_2 C 0.5030(3) 0.7455(3) 0.0736(3)
C83_2 C 0.5417(3) 0.8453(3) 0.1315(3)
O63_2 O 0.5393(2) 0.7758(2) 0.1993(2)
O64_2 O 0.4927(2) 0.7770(2) 0.0579(2)
C84_2 C 0.5080(3) 0.7833(3) 0.1375(3)
H57_2 H 0.5623 0.7954 0.1160
H58_2 H 0.5331 0.7300 0.1224
H59_2 H 0.4877 0.7270 0.1282
H60_2 H 0.4845 0.7977 0.1302
O65_7 O 1.0000 0.8495(4) 0.0000
O66_7 O 1.0000 0.6512(4) 0.0000
Cu13_2 Cu 0.7500 0.7500 0.04527(5)
Cu14_2 Cu 0.7500 0.95473(5) 0.2500
Cu15_2 Cu 0.95473(5) 0.7500 0.2500
Cu16_2 Cu 0.54527(5) 0.7500 0.2500
Cu27_2 Cu 0.46838(4) 0.7500 0.2500
O79_2 O 0.9912(2) 0.7864(2) 0.0556(2)
H61_2 H 0.983372 0.859186 0.0217738
H71_2 H 0.978226 0.983372 0.140814
H84_2 H 0.859186 0.97294 0.0042829
Cu2_8 Cu 0.71080(7) 1.0000 1.0000
Cu4_8 Cu 0.78905(7) 1.0000 1.0000
O8_8 O 0.8495(4) 1.0000 1.0000
O9_8 O 0.6512(4) 1.0000 1.0000
O21_2 O 0.7661(2) 0.9741(2) 0.8050(2)
H17_2 H 0.7274 0.9875 0.8716
H19_2 H 0.7976 0.9841 0.8704
O24_2 O 0.7770(2) 0.9925(2) 0.9420(2)
O26_2 O 0.6953(2) 0.9749(2) 0.7662(2)
O29_2 O 0.5579(2) 0.9927(2) 0.7770(2)
H24_2 H 0.6282 0.9877 0.7270
H25_2 H 0.6302 0.9845 0.7977
O36_2 O 0.8050(2) 0.7661(2) 0.9741(2)
H33_2 H 0.8716 0.7274 0.9875
O38_2 O 0.7338(2) 0.8047(2) 0.9749(2)
H35_2 H 0.8704 0.7976 0.9841
O43_2 O 0.7230(2) 0.9421(2) 0.9927(2)
O44_2 O 0.9420(2) 0.7770(2) 0.9925(2)
H39_2 H 0.7730 0.8718 0.9877
H40_2 H 0.7023 0.8698 0.9845
O65_8 O 1.0000 0.8495(4) 1.0000
O66_8 O 1.0000 0.6512(4) 1.0000
Cu12_2 Cu 0.7500 0.96838(4) 0.7500
O72_2 O 0.7500 0.9065(3) 0.7500
Cu24_2 Cu 0.7500 0.7500 0.96838(4)
O74_2 O 0.7339(2) 0.9741(2) 0.6950(2)
O81_2 O 0.8047(2) 0.9749(2) 0.7338(2)
O93_2 O 0.9927(2) 0.7230(2) 0.9421(2)
H67_2 H 0.982747 0.641514 0.978718
H82_2 H 0.641514 0.972818 0.996573
O3_3 O 0.2500 0.2500 0.1083(4)
O69_3 O 0.1083(4) 0.2500 0.2500
O71_3 O 0.2500 0.1083(4) 0.2500
O84_3 O 0.0393(2) 0.2758(2) 0.1993(2)
O85_3 O 0.1993(2) 0.0393(2) 0.2758(2)
O86_3 O 0.0393(2) 0.2242(2) 0.3007(2)
O87_3 O 0.2242(2) 0.3007(2) 0.0393(2)
O90_3 O 0.0395(2) 0.30079(19) 0.2758(2)
O91_3 O 0.2758(2) 0.0395(2) 0.30079(19)
O92_3 O 0.30079(19) 0.2758(2) 0.0395(2)
H81_3 H 0.358486 0.0165588 0.0218266
O4_3 O 0.2500 0.2500 0.9065(3)
O67_5 O 0.0000 -0.0000 0.8495(4)
O68_5 O -0.0000 -0.0000 0.6512(4)
O75_3 O 0.3050(2) 0.2661(2) 0.9741(2)
O83_3 O 0.2338(2) 0.3047(2) 0.9749(2)
O95_2 O 0.0579(2) 0.0073(2) 0.7230(2)
H72_3 H 0.00351346 0.0271708 0.859186
H83_3 H 0.140814 0.0172392 0.978707
O72_3 O 0.2500 0.9065(3) 0.2500
O74_3 O 0.2661(2) 0.9741(2) 0.3050(2)
O81_3 O 0.1953(2) 0.9749(2) 0.2662(2)
H67_3 H 0.0172528 0.641514 0.0212823
H82_3 H 0.358486 0.972818 0.00342706
O67_6 O 0.0000 1.0000 0.8495(4)
O68_6 O -0.0000 1.0000 0.6512(4)
O78_2 O 0.0556(2) 0.9912(2) 0.7864(2)
H61_3 H 0.0166281 0.859186 0.978226
H71_3 H 0.0217738 0.983372 0.859186
H84_3 H 0.140814 0.97294 0.995717
O70_3 O 0.9065(3) 0.2500 0.2500
O73_3 O 0.9741(2) 0.3050(2) 0.2661(2)
O80_3 O 0.9749(2) 0.2662(2) 0.1953(2)
O82_3 O 0.9749(2) 0.2338(2) 0.3047(2)
O67_7 O 1.0000 -0.0000 0.8495(4)
O68_7 O 1.0000 -0.0000 0.6512(4)
O77_2 O 0.9444(2) 0.0088(2) 0.7864(2)
H64_3 H 0.9957 0.0270574 0.641514
H68_3 H 0.972943 0.641514 0.00430019
O67_8 O 1.0000 1.0000 0.8495(4)
O68_8 O 1.0000 1.0000 0.6512(4)
O94_2 O 0.9421(2) 0.9927(2) 0.7230(2)
H62_3 H 0.972829 0.859186 0.996487
H63_3 H 0.978718 0.982747 0.641514
H68_4 H 0.0270574 0.358486 0.00430019
H62_4 H 0.0271708 0.140814 0.996487
H63_4 H 0.0212823 0.0172528 0.641514
O70_4 O 0.0935(3) 0.7500 0.2500
O73_4 O 0.0259(2) 0.6950(2) 0.2661(2)
O80_4 O 0.0251(2) 0.7338(2) 0.1953(2)
O82_4 O 0.0251(2) 0.7662(2) 0.3047(2)
H64_4 H 0.00430019 0.972943 0.641514
O72_4 O 0.7500 0.0935(3) 0.2500
O74_4 O 0.7339(2) 0.0259(2) 0.3050(2)
O81_4 O 0.8047(2) 0.0251(2) 0.2662(2)
H67_4 H 0.982747 0.358486 0.0212823
H82_4 H 0.641514 0.0271818 0.00342706
H61_4 H 0.983372 0.140814 0.978226
H71_4 H 0.978226 0.0166281 0.859186
H84_4 H 0.859186 0.0270601 0.995717
O3_4 O 0.7500 0.7500 0.1083(4)
O69_4 O 0.8917(4) 0.7500 0.2500
O71_4 O 0.7500 0.8917(4) 0.2500
O84_4 O 0.9607(2) 0.7242(2) 0.1993(2)
O85_4 O 0.8007(2) 0.9607(2) 0.2758(2)
O86_4 O 0.9607(2) 0.7758(2) 0.3007(2)
O87_4 O 0.7758(2) 0.6993(2) 0.0393(2)
O90_4 O 0.9605(2) 0.69921(19) 0.2758(2)
O91_4 O 0.7242(2) 0.9605(2) 0.30079(19)
O92_4 O 0.69921(19) 0.7242(2) 0.0395(2)
H81_4 H 0.641514 0.983441 0.0218266
O4_4 O 0.7500 0.7500 0.9065(3)
O75_4 O 0.6950(2) 0.7339(2) 0.9741(2)
O83_4 O 0.7662(2) 0.6953(2) 0.9749(2)
H72_4 H 0.996487 0.972829 0.859186
H83_4 H 0.859186 0.982761 0.978707
C43_3 C 0.0875(3) 0.4001(3) 0.1423(3)
H31_3 H 0.0723 0.4070 0.1637
N7_3 N 0.0415(3) 0.3062(2) 0.1255(2)
C45_3 C 0.0773(3) 0.3672(3) 0.1201(3)
C49_3 C 0.0079(3) 0.2434(3) 0.1173(3)
O39_3 O 0.0126(2) 0.3621(2) 0.1458(2)
C52_3 C 0.0073(3) 0.2755(3) 0.1814(3)
C53_3 C 0.0030(3) 0.2455(3) 0.0736(3)
C54_3 C 0.0417(3) 0.3453(3) 0.1315(3)
C56_3 C 0.0080(3) 0.2833(3) 0.1375(3)
H37_3 H 0.0623 0.2954 0.1160
H38_3 H 0.0331 0.2300 0.1224
C71_3 C 0.0999(3) 0.3577(3) 0.0875(3)
H51_3 H 0.0930 0.3363 0.0723
N11_3 N 0.1938(2) 0.3745(2) 0.0415(3)
O55_3 O 0.2864(2) 0.4444(2) 0.0088(2)
C72_3 C 0.1328(3) 0.3799(3) 0.0773(3)
C73_3 C 0.2566(3) 0.3827(3) 0.0079(3)
O57_3 O 0.1379(2) 0.3542(2) 0.0126(2)
C74_3 C 0.2245(3) 0.3186(3) 0.0073(3)
C75_3 C 0.2545(3) 0.4264(3) 0.0030(3)
C76_3 C 0.1547(3) 0.3685(3) 0.0417(3)
C77_3 C 0.2167(3) 0.3625(3) 0.0080(3)
H52_3 H 0.2046 0.3840 0.0623
H53_3 H 0.2700 0.3776 0.0331
C78_3 C 0.1423(3) 0.4125(3) 0.0999(3)
H56_3 H 0.1637 0.4277 0.0930
N12_3 N 0.1255(2) 0.4585(3) 0.1938(2)
O60_3 O 0.0556(2) 0.4912(2) 0.2864(2)
C79_3 C 0.1201(3) 0.4227(3) 0.1328(3)
O61_3 O 0.1953(2) 0.5251(2) 0.2338(2)
C80_3 C 0.1173(3) 0.4921(3) 0.2566(3)
O62_3 O 0.1458(2) 0.4874(2) 0.1379(2)
C81_3 C 0.1814(3) 0.4927(3) 0.2245(3)
C82_3 C 0.0736(3) 0.4970(3) 0.2545(3)
C83_3 C 0.1315(3) 0.4583(3) 0.1547(3)
O63_3 O 0.1993(2) 0.4607(2) 0.2242(2)
O64_3 O 0.0579(2) 0.5073(2) 0.2230(2)
C84_3 C 0.1375(3) 0.4920(3) 0.2167(3)
H57_3 H 0.1160 0.4377 0.2046
H58_3 H 0.1224 0.4669 0.2700
H59_3 H 0.1282 0.5123 0.2730
H60_3 H 0.1302 0.5155 0.2023
Cu16_3 Cu 0.2500 0.45473(5) 0.2500
Cu21_3 Cu 0.21080(7) 0.5000 0.0000
Cu23_3 Cu 0.0000 0.5000 0.21080(7)
Cu27_3 Cu 0.2500 0.53162(4) 0.2500
Cu32_3 Cu 0.28905(7) 0.5000 0.0000
Cu34_3 Cu 0.0000 0.5000 0.28905(7)
H71_5 H 0.140814 0.0217738 0.0166281
H84_5 H 0.0042829 0.140814 0.0270601
H9_3 H 0.0123 0.2270 0.8718
H10_3 H 0.0155 0.2977 0.8698
O59_3 O 0.2230(2) 0.4421(2) 0.9927(2)
H54_3 H 0.2730 0.3718 0.9877
H55_3 H 0.2023 0.3698 0.9845
Cu21_4 Cu 0.21080(7) 0.5000 1.0000
Cu22_3 Cu 0.0000 0.5000 0.78920(7)
Cu32_4 Cu 0.28905(7) 0.5000 1.0000
Cu33_3 Cu 0.0000 0.5000 0.71095(7)
H72_5 H 0.140814 0.00351346 0.972829
H83_5 H 0.0212933 0.140814 0.982761
H63_5 H 0.358486 0.978718 0.0172528
H64_5 H 0.358486 0.9957 0.972943
O29_3 O 0.7770(2) 0.4421(2) 0.0073(2)
H24_3 H 0.7270 0.3718 0.0123
H25_3 H 0.7977 0.3698 0.0155
H39_3 H 0.9877 0.2270 0.1282
H40_3 H 0.9845 0.2977 0.1302
Cu20_3 Cu 0.78920(7) 0.5000 0.0000
Cu23_4 Cu 1.0000 0.5000 0.21080(7)
Cu31_3 Cu 0.71095(7) 0.5000 0.0000
Cu34_4 Cu 1.0000 0.5000 0.28905(7)
H82_5 H 0.996573 0.358486 0.0271818
C1_3 C 0.9125(3) 0.4001(3) 0.8577(3)
H1_3 H 0.9277 0.4070 0.8363
N1_3 N 0.9585(3) 0.3062(2) 0.8745(2)
C3_3 C 0.9227(3) 0.3672(3) 0.8799(3)
C7_3 C 0.9921(3) 0.2434(3) 0.8827(3)
O7_3 O 0.9874(2) 0.3621(2) 0.8542(2)
C10_3 C 0.9927(3) 0.2755(3) 0.8186(3)
C11_3 C 0.9970(3) 0.2455(3) 0.9264(3)
C12_3 C 0.9583(3) 0.3453(3) 0.8685(3)
C14_3 C 0.9920(3) 0.2833(3) 0.8625(3)
H7_3 H 0.9377 0.2954 0.8840
H8_3 H 0.9669 0.2300 0.8776
C29_3 C 0.9001(3) 0.3577(3) 0.9125(3)
H21_3 H 0.9070 0.3363 0.9277
N5_3 N 0.8062(2) 0.3745(2) 0.9585(3)
O25_3 O 0.7136(2) 0.4444(2) 0.9912(2)
C30_3 C 0.8672(3) 0.3799(3) 0.9227(3)
C31_3 C 0.7434(3) 0.3827(3) 0.9921(3)
O27_3 O 0.8621(2) 0.3542(2) 0.9874(2)
C32_3 C 0.7755(3) 0.3186(3) 0.9927(3)
C33_3 C 0.7455(3) 0.4264(3) 0.9970(3)
C34_3 C 0.8453(3) 0.3685(3) 0.9583(3)
C35_3 C 0.7833(3) 0.3625(3) 0.9920(3)
H22_3 H 0.7954 0.3840 0.9377
H23_3 H 0.7300 0.3776 0.9669
C36_3 C 0.8577(3) 0.4125(3) 0.9001(3)
H26_3 H 0.8363 0.4277 0.9070
N6_3 N 0.8745(2) 0.4585(3) 0.8062(2)
O30_3 O 0.9444(2) 0.4912(2) 0.7136(2)
C37_3 C 0.8799(3) 0.4227(3) 0.8672(3)
O31_3 O 0.8047(2) 0.5251(2) 0.7662(2)
C38_3 C 0.8827(3) 0.4921(3) 0.7434(3)
O32_3 O 0.8542(2) 0.4874(2) 0.8621(2)
C39_3 C 0.8186(3) 0.4927(3) 0.7755(3)
C40_3 C 0.9264(3) 0.4970(3) 0.7455(3)
C41_3 C 0.8685(3) 0.4583(3) 0.8453(3)
O33_3 O 0.8007(2) 0.4607(2) 0.7758(2)
O34_3 O 0.9421(2) 0.5073(2) 0.7770(2)
C42_3 C 0.8625(3) 0.4920(3) 0.7833(3)
H27_3 H 0.8840 0.4377 0.7954
H28_3 H 0.8776 0.4669 0.7300
H29_3 H 0.8718 0.5123 0.7270
H30_3 H 0.8698 0.5155 0.7977
Cu17_3 Cu 0.7500 0.45473(5) 0.7500
Cu20_4 Cu 0.78920(7) 0.5000 1.0000
Cu22_4 Cu 1.0000 0.5000 0.78920(7)
Cu28_3 Cu 0.7500 0.53162(4) 0.7500
Cu31_4 Cu 0.71095(7) 0.5000 1.0000
Cu33_4 Cu 1.0000 0.5000 0.71095(7)
H81_5 H 0.978173 0.358486 0.983441
C43_4 C 0.1423(3) 0.0875(3) 0.4001(3)
H31_4 H 0.1637 0.0723 0.4070
N7_4 N 0.1255(2) 0.0415(3) 0.3062(2)
C45_4 C 0.1201(3) 0.0773(3) 0.3672(3)
C49_4 C 0.1173(3) 0.0079(3) 0.2434(3)
O39_4 O 0.1458(2) 0.0126(2) 0.3621(2)
C52_4 C 0.1814(3) 0.0073(3) 0.2755(3)
C53_4 C 0.0736(3) 0.0030(3) 0.2455(3)
C54_4 C 0.1315(3) 0.0417(3) 0.3453(3)
C56_4 C 0.1375(3) 0.0080(3) 0.2833(3)
H37_4 H 0.1160 0.0623 0.2954
H38_4 H 0.1224 0.0331 0.2300
C71_4 C 0.0875(3) 0.0999(3) 0.3577(3)
H51_4 H 0.0723 0.0930 0.3363
N11_4 N 0.0415(3) 0.1938(2) 0.3745(2)
O55_4 O 0.0088(2) 0.2864(2) 0.4444(2)
C72_4 C 0.0773(3) 0.1328(3) 0.3799(3)
C73_4 C 0.0079(3) 0.2566(3) 0.3827(3)
O57_4 O 0.0126(2) 0.1379(2) 0.3542(2)
C74_4 C 0.0073(3) 0.2245(3) 0.3186(3)
C75_4 C 0.0030(3) 0.2545(3) 0.4264(3)
C76_4 C 0.0417(3) 0.1547(3) 0.3685(3)
C77_4 C 0.0080(3) 0.2167(3) 0.3625(3)
H52_4 H 0.0623 0.2046 0.3840
H53_4 H 0.0331 0.2700 0.3776
C78_4 C 0.0999(3) 0.1423(3) 0.4125(3)
H56_4 H 0.0930 0.1637 0.4277
N12_4 N 0.1938(2) 0.1255(2) 0.4585(3)
O60_4 O 0.2864(2) 0.0556(2) 0.4912(2)
C79_4 C 0.1328(3) 0.1201(3) 0.4227(3)
O61_4 O 0.2338(2) 0.1953(2) 0.5251(2)
C80_4 C 0.2566(3) 0.1173(3) 0.4921(3)
O62_4 O 0.1379(2) 0.1458(2) 0.4874(2)
C81_4 C 0.2245(3) 0.1814(3) 0.4927(3)
C82_4 C 0.2545(3) 0.0736(3) 0.4970(3)
C83_4 C 0.1547(3) 0.1315(3) 0.4583(3)
O63_4 O 0.2242(2) 0.1993(2) 0.4607(2)
O64_4 O 0.2230(2) 0.0579(2) 0.5073(2)
C84_4 C 0.2167(3) 0.1375(3) 0.4920(3)
H57_4 H 0.2046 0.1160 0.4377
H58_4 H 0.2700 0.1224 0.4669
H59_4 H 0.2730 0.1282 0.5123
H60_4 H 0.2023 0.1302 0.5155
Cu16_4 Cu 0.2500 0.2500 0.45473(5)
Cu21_5 Cu 0.0000 0.21080(7) 0.5000
Cu23_5 Cu 0.21080(7) 0.0000 0.5000
Cu27_4 Cu 0.2500 0.2500 0.53162(4)
Cu32_5 Cu 0.0000 0.28905(7) 0.5000
Cu34_5 Cu 0.28905(7) 0.0000 0.5000
H84_6 H 0.0270601 0.0042829 0.140814
O29_4 O 0.0073(2) 0.7770(2) 0.4421(2)
H24_4 H 0.0123 0.7270 0.3718
H25_4 H 0.0155 0.7977 0.3698
H39_4 H 0.1282 0.9877 0.2270
H40_4 H 0.1302 0.9845 0.2977
Cu20_5 Cu 0.0000 0.78920(7) 0.5000
Cu23_6 Cu 0.21080(7) 1.0000 0.5000
Cu31_5 Cu 0.0000 0.71095(7) 0.5000
Cu34_6 Cu 0.28905(7) 1.0000 0.5000
H82_6 H 0.0271818 0.996573 0.358486
H9_4 H 0.8718 0.0123 0.2270
H10_4 H 0.8698 0.0155 0.2977
O59_4 O 0.9927(2) 0.2230(2) 0.4421(2)
H54_4 H 0.9877 0.2730 0.3718
H55_4 H 0.9845 0.2023 0.3698
Cu21_6 Cu 1.0000 0.21080(7) 0.5000
Cu22_5 Cu 0.78920(7) 0.0000 0.5000
Cu32_6 Cu 1.0000 0.28905(7) 0.5000
Cu33_5 Cu 0.71095(7) 0.0000 0.5000
H83_6 H 0.982761 0.0212933 0.140814
C1_4 C 0.8577(3) 0.9125(3) 0.4001(3)
H1_4 H 0.8363 0.9277 0.4070
N1_4 N 0.8745(2) 0.9585(3) 0.3062(2)
C3_4 C 0.8799(3) 0.9227(3) 0.3672(3)
C7_4 C 0.8827(3) 0.9921(3) 0.2434(3)
O7_4 O 0.8542(2) 0.9874(2) 0.3621(2)
C10_4 C 0.8186(3) 0.9927(3) 0.2755(3)
C11_4 C 0.9264(3) 0.9970(3) 0.2455(3)
C12_4 C 0.8685(3) 0.9583(3) 0.3453(3)
C14_4 C 0.8625(3) 0.9920(3) 0.2833(3)
H7_4 H 0.8840 0.9377 0.2954
H8_4 H 0.8776 0.9669 0.2300
C29_4 C 0.9125(3) 0.9001(3) 0.3577(3)
H21_4 H 0.9277 0.9070 0.3363
N5_4 N 0.9585(3) 0.8062(2) 0.3745(2)
O25_4 O 0.9912(2) 0.7136(2) 0.4444(2)
C30_4 C 0.9227(3) 0.8672(3) 0.3799(3)
C31_4 C 0.9921(3) 0.7434(3) 0.3827(3)
O27_4 O 0.9874(2) 0.8621(2) 0.3542(2)
C32_4 C 0.9927(3) 0.7755(3) 0.3186(3)
C33_4 C 0.9970(3) 0.7455(3) 0.4264(3)
C34_4 C 0.9583(3) 0.8453(3) 0.3685(3)
C35_4 C 0.9920(3) 0.7833(3) 0.3625(3)
H22_4 H 0.9377 0.7954 0.3840
H23_4 H 0.9669 0.7300 0.3776
C36_4 C 0.9001(3) 0.8577(3) 0.4125(3)
H26_4 H 0.9070 0.8363 0.4277
N6_4 N 0.8062(2) 0.8745(2) 0.4585(3)
O30_4 O 0.7136(2) 0.9444(2) 0.4912(2)
C37_4 C 0.8672(3) 0.8799(3) 0.4227(3)
O31_4 O 0.7662(2) 0.8047(2) 0.5251(2)
C38_4 C 0.7434(3) 0.8827(3) 0.4921(3)
O32_4 O 0.8621(2) 0.8542(2) 0.4874(2)
C39_4 C 0.7755(3) 0.8186(3) 0.4927(3)
C40_4 C 0.7455(3) 0.9264(3) 0.4970(3)
C41_4 C 0.8453(3) 0.8685(3) 0.4583(3)
O33_4 O 0.7758(2) 0.8007(2) 0.4607(2)
O34_4 O 0.7770(2) 0.9421(2) 0.5073(2)
C42_4 C 0.7833(3) 0.8625(3) 0.4920(3)
H27_4 H 0.7954 0.8840 0.4377
H28_4 H 0.7300 0.8776 0.4669
H29_4 H 0.7270 0.8718 0.5123
H30_4 H 0.7977 0.8698 0.5155
Cu17_4 Cu 0.7500 0.7500 0.45473(5)
Cu20_6 Cu 1.0000 0.78920(7) 0.5000
Cu22_6 Cu 0.78920(7) 1.0000 0.5000
Cu28_4 Cu 0.7500 0.7500 0.53162(4)
Cu31_6 Cu 1.0000 0.71095(7) 0.5000
Cu33_6 Cu 0.71095(7) 1.0000 0.5000
H81_6 H 0.983441 0.978173 0.358486
O29_5 O 0.2230(2) 0.5579(2) 0.0073(2)
H24_5 H 0.2730 0.6282 0.0123
H25_5 H 0.2023 0.6302 0.0155
H39_5 H 0.0123 0.7730 0.1282
H40_5 H 0.0155 0.7023 0.1302
H82_7 H 0.00342706 0.641514 0.0271818
C1_5 C 0.0875(3) 0.5999(3) 0.8577(3)
H1_5 H 0.0723 0.5930 0.8363
N1_5 N 0.0415(3) 0.6938(2) 0.8745(2)
C3_5 C 0.0773(3) 0.6328(3) 0.8799(3)
C7_5 C 0.0079(3) 0.7566(3) 0.8827(3)
O7_5 O 0.0126(2) 0.6379(2) 0.8542(2)
C10_5 C 0.0073(3) 0.7245(3) 0.8186(3)
C11_5 C 0.0030(3) 0.7545(3) 0.9264(3)
C12_5 C 0.0417(3) 0.6547(3) 0.8685(3)
C14_5 C 0.0080(3) 0.7167(3) 0.8625(3)
H7_5 H 0.0623 0.7046 0.8840
H8_5 H 0.0331 0.7700 0.8776
C29_5 C 0.0999(3) 0.6423(3) 0.9125(3)
H21_5 H 0.0930 0.6637 0.9277
N5_5 N 0.1938(2) 0.6255(2) 0.9585(3)
O25_5 O 0.2864(2) 0.5556(2) 0.9912(2)
C30_5 C 0.1328(3) 0.6201(3) 0.9227(3)
C31_5 C 0.2566(3) 0.6173(3) 0.9921(3)
O27_5 O 0.1379(2) 0.6458(2) 0.9874(2)
C32_5 C 0.2245(3) 0.6814(3) 0.9927(3)
C33_5 C 0.2545(3) 0.5736(3) 0.9970(3)
C34_5 C 0.1547(3) 0.6315(3) 0.9583(3)
C35_5 C 0.2167(3) 0.6375(3) 0.9920(3)
H22_5 H 0.2046 0.6160 0.9377
H23_5 H 0.2700 0.6224 0.9669
C36_5 C 0.1423(3) 0.5875(3) 0.9001(3)
H26_5 H 0.1637 0.5723 0.9070
N6_5 N 0.1255(2) 0.5415(3) 0.8062(2)
O30_5 O 0.0556(2) 0.5088(2) 0.7136(2)
C37_5 C 0.1201(3) 0.5773(3) 0.8672(3)
O31_5 O 0.1953(2) 0.4749(2) 0.7662(2)
C38_5 C 0.1173(3) 0.5079(3) 0.7434(3)
O32_5 O 0.1458(2) 0.5126(2) 0.8621(2)
C39_5 C 0.1814(3) 0.5073(3) 0.7755(3)
C40_5 C 0.0736(3) 0.5030(3) 0.7455(3)
C41_5 C 0.1315(3) 0.5417(3) 0.8453(3)
O33_5 O 0.1993(2) 0.5393(2) 0.7758(2)
O34_5 O 0.0579(2) 0.4927(2) 0.7770(2)
C42_5 C 0.1375(3) 0.5080(3) 0.7833(3)
H27_5 H 0.1160 0.5623 0.7954
H28_5 H 0.1224 0.5331 0.7300
H29_5 H 0.1282 0.4877 0.7270
H30_5 H 0.1302 0.4845 0.7977
Cu17_5 Cu 0.2500 0.54527(5) 0.7500
Cu28_5 Cu 0.2500 0.46838(4) 0.7500
H81_7 H 0.0218266 0.641514 0.983441
H63_6 H 0.641514 0.0212823 0.0172528
H64_6 H 0.641514 0.00430019 0.972943
C43_5 C 0.9125(3) 0.5999(3) 0.1423(3)
H31_5 H 0.9277 0.5930 0.1637
N7_5 N 0.9585(3) 0.6938(2) 0.1255(2)
C45_5 C 0.9227(3) 0.6328(3) 0.1201(3)
C49_5 C 0.9921(3) 0.7566(3) 0.1173(3)
O39_5 O 0.9874(2) 0.6379(2) 0.1458(2)
C52_5 C 0.9927(3) 0.7245(3) 0.1814(3)
C53_5 C 0.9970(3) 0.7545(3) 0.0736(3)
C54_5 C 0.9583(3) 0.6547(3) 0.1315(3)
C56_5 C 0.9920(3) 0.7167(3) 0.1375(3)
H37_5 H 0.9377 0.7046 0.1160
H38_5 H 0.9669 0.7700 0.1224
C71_5 C 0.9001(3) 0.6423(3) 0.0875(3)
H51_5 H 0.9070 0.6637 0.0723
N11_5 N 0.8062(2) 0.6255(2) 0.0415(3)
O55_5 O 0.7136(2) 0.5556(2) 0.0088(2)
C72_5 C 0.8672(3) 0.6201(3) 0.0773(3)
C73_5 C 0.7434(3) 0.6173(3) 0.0079(3)
O57_5 O 0.8621(2) 0.6458(2) 0.0126(2)
C74_5 C 0.7755(3) 0.6814(3) 0.0073(3)
C75_5 C 0.7455(3) 0.5736(3) 0.0030(3)
C76_5 C 0.8453(3) 0.6315(3) 0.0417(3)
C77_5 C 0.7833(3) 0.6375(3) 0.0080(3)
H52_5 H 0.7954 0.6160 0.0623
H53_5 H 0.7300 0.6224 0.0331
C78_5 C 0.8577(3) 0.5875(3) 0.0999(3)
H56_5 H 0.8363 0.5723 0.0930
N12_5 N 0.8745(2) 0.5415(3) 0.1938(2)
O60_5 O 0.9444(2) 0.5088(2) 0.2864(2)
C79_5 C 0.8799(3) 0.5773(3) 0.1328(3)
O61_5 O 0.8047(2) 0.4749(2) 0.2338(2)
C80_5 C 0.8827(3) 0.5079(3) 0.2566(3)
O62_5 O 0.8542(2) 0.5126(2) 0.1379(2)
C81_5 C 0.8186(3) 0.5073(3) 0.2245(3)
C82_5 C 0.9264(3) 0.5030(3) 0.2545(3)
C83_5 C 0.8685(3) 0.5417(3) 0.1547(3)
O63_5 O 0.8007(2) 0.5393(2) 0.2242(2)
O64_5 O 0.9421(2) 0.4927(2) 0.2230(2)
C84_5 C 0.8625(3) 0.5080(3) 0.2167(3)
H57_5 H 0.8840 0.5623 0.2046
H58_5 H 0.8776 0.5331 0.2700
H59_5 H 0.8718 0.4877 0.2730
H60_5 H 0.8698 0.4845 0.2023
Cu16_5 Cu 0.7500 0.54527(5) 0.2500
Cu27_5 Cu 0.7500 0.46838(4) 0.2500
H71_6 H 0.859186 0.978226 0.0166281
H84_7 H 0.995717 0.859186 0.0270601
H9_5 H 0.9877 0.7730 0.8718
H10_5 H 0.9845 0.7023 0.8698
O59_5 O 0.7770(2) 0.5579(2) 0.9927(2)
H54_5 H 0.7270 0.6282 0.9877
H55_5 H 0.7977 0.6302 0.9845
H72_6 H 0.859186 0.996487 0.972829
H83_7 H 0.978707 0.859186 0.982761
H9_6 H 0.1282 0.0123 0.7730
H10_6 H 0.1302 0.0155 0.7023
O59_6 O 0.0073(2) 0.2230(2) 0.5579(2)
H54_6 H 0.0123 0.2730 0.6282
H55_6 H 0.0155 0.2023 0.6302
H83_8 H 0.0172392 0.0212933 0.859186
C1_6 C 0.1423(3) 0.9125(3) 0.5999(3)
H1_6 H 0.1637 0.9277 0.5930
N1_6 N 0.1255(2) 0.9585(3) 0.6938(2)
C3_6 C 0.1201(3) 0.9227(3) 0.6328(3)
C7_6 C 0.1173(3) 0.9921(3) 0.7566(3)
O7_6 O 0.1458(2) 0.9874(2) 0.6379(2)
C10_6 C 0.1814(3) 0.9927(3) 0.7245(3)
C11_6 C 0.0736(3) 0.9970(3) 0.7545(3)
C12_6 C 0.1315(3) 0.9583(3) 0.6547(3)
C14_6 C 0.1375(3) 0.9920(3) 0.7167(3)
H7_6 H 0.1160 0.9377 0.7046
H8_6 H 0.1224 0.9669 0.7700
C29_6 C 0.0875(3) 0.9001(3) 0.6423(3)
H21_6 H 0.0723 0.9070 0.6637
N5_6 N 0.0415(3) 0.8062(2) 0.6255(2)
O25_6 O 0.0088(2) 0.7136(2) 0.5556(2)
C30_6 C 0.0773(3) 0.8672(3) 0.6201(3)
C31_6 C 0.0079(3) 0.7434(3) 0.6173(3)
O27_6 O 0.0126(2) 0.8621(2) 0.6458(2)
C32_6 C 0.0073(3) 0.7755(3) 0.6814(3)
C33_6 C 0.0030(3) 0.7455(3) 0.5736(3)
C34_6 C 0.0417(3) 0.8453(3) 0.6315(3)
C35_6 C 0.0080(3) 0.7833(3) 0.6375(3)
H22_6 H 0.0623 0.7954 0.6160
H23_6 H 0.0331 0.7300 0.6224
C36_6 C 0.0999(3) 0.8577(3) 0.5875(3)
H26_6 H 0.0930 0.8363 0.5723
N6_6 N 0.1938(2) 0.8745(2) 0.5415(3)
O30_6 O 0.2864(2) 0.9444(2) 0.5088(2)
C37_6 C 0.1328(3) 0.8799(3) 0.5773(3)
O31_6 O 0.2338(2) 0.8047(2) 0.4749(2)
C38_6 C 0.2566(3) 0.8827(3) 0.5079(3)
O32_6 O 0.1379(2) 0.8542(2) 0.5126(2)
C39_6 C 0.2245(3) 0.8186(3) 0.5073(3)
C40_6 C 0.2545(3) 0.9264(3) 0.5030(3)
C41_6 C 0.1547(3) 0.8685(3) 0.5417(3)
O33_6 O 0.2242(2) 0.8007(2) 0.5393(2)
O34_6 O 0.2230(2) 0.9421(2) 0.4927(2)
C42_6 C 0.2167(3) 0.8625(3) 0.5080(3)
H27_6 H 0.2046 0.8840 0.5623
H28_6 H 0.2700 0.8776 0.5331
H29_6 H 0.2730 0.8718 0.4877
H30_6 H 0.2023 0.8698 0.4845
Cu17_6 Cu 0.2500 0.7500 0.54527(5)
Cu28_6 Cu 0.2500 0.7500 0.46838(4)
H81_8 H 0.0165588 0.978173 0.641514
H62_5 H 0.859186 0.00351346 0.0271708
C43_6 C 0.8577(3) 0.0875(3) 0.5999(3)
H31_6 H 0.8363 0.0723 0.5930
N7_6 N 0.8745(2) 0.0415(3) 0.6938(2)
C45_6 C 0.8799(3) 0.0773(3) 0.6328(3)
C49_6 C 0.8827(3) 0.0079(3) 0.7566(3)
O39_6 O 0.8542(2) 0.0126(2) 0.6379(2)
C52_6 C 0.8186(3) 0.0073(3) 0.7245(3)
C53_6 C 0.9264(3) 0.0030(3) 0.7545(3)
C54_6 C 0.8685(3) 0.0417(3) 0.6547(3)
C56_6 C 0.8625(3) 0.0080(3) 0.7167(3)
H37_6 H 0.8840 0.0623 0.7046
H38_6 H 0.8776 0.0331 0.7700
C71_6 C 0.9125(3) 0.0999(3) 0.6423(3)
H51_6 H 0.9277 0.0930 0.6637
N11_6 N 0.9585(3) 0.1938(2) 0.6255(2)
O55_6 O 0.9912(2) 0.2864(2) 0.5556(2)
C72_6 C 0.9227(3) 0.1328(3) 0.6201(3)
C73_6 C 0.9921(3) 0.2566(3) 0.6173(3)
O57_6 O 0.9874(2) 0.1379(2) 0.6458(2)
C74_6 C 0.9927(3) 0.2245(3) 0.6814(3)
C75_6 C 0.9970(3) 0.2545(3) 0.5736(3)
C76_6 C 0.9583(3) 0.1547(3) 0.6315(3)
C77_6 C 0.9920(3) 0.2167(3) 0.6375(3)
H52_6 H 0.9377 0.2046 0.6160
H53_6 H 0.9669 0.2700 0.6224
C78_6 C 0.9001(3) 0.1423(3) 0.5875(3)
H56_6 H 0.9070 0.1637 0.5723
N12_6 N 0.8062(2) 0.1255(2) 0.5415(3)
O60_6 O 0.7136(2) 0.0556(2) 0.5088(2)
C79_6 C 0.8672(3) 0.1201(3) 0.5773(3)
O61_6 O 0.7662(2) 0.1953(2) 0.4749(2)
C80_6 C 0.7434(3) 0.1173(3) 0.5079(3)
O62_6 O 0.8621(2) 0.1458(2) 0.5126(2)
C81_6 C 0.7755(3) 0.1814(3) 0.5073(3)
C82_6 C 0.7455(3) 0.0736(3) 0.5030(3)
C83_6 C 0.8453(3) 0.1315(3) 0.5417(3)
O63_6 O 0.7758(2) 0.1993(2) 0.5393(2)
O64_6 O 0.7770(2) 0.0579(2) 0.4927(2)
C84_6 C 0.7833(3) 0.1375(3) 0.5080(3)
H57_6 H 0.7954 0.1160 0.5623
H58_6 H 0.7300 0.1224 0.5331
H59_6 H 0.7270 0.1282 0.4877
H60_6 H 0.7977 0.1302 0.4845
Cu16_6 Cu 0.7500 0.2500 0.54527(5)
Cu27_6 Cu 0.7500 0.2500 0.46838(4)
H61_5 H 0.859186 0.0217738 0.983372
H84_8 H 0.97294 0.0042829 0.859186
H68_5 H 0.641514 0.9957 0.0270574
O29_6 O 0.9927(2) 0.7770(2) 0.5579(2)
H24_6 H 0.9877 0.7270 0.6282
H25_6 H 0.9845 0.7977 0.6302
H39_6 H 0.8718 0.9877 0.7730
H40_6 H 0.8698 0.9845 0.7023
H67_5 H 0.641514 0.978718 0.982747
H82_8 H 0.972818 0.996573 0.641514
H64_7 H 0.358486 0.00430019 0.0270574
H63_7 H 0.358486 0.0212823 0.982747
H72_7 H 0.140814 0.996487 0.0271708
H83_9 H 0.0212933 0.859186 0.0172392
H71_7 H 0.140814 0.978226 0.983372
H84_9 H 0.0042829 0.859186 0.97294
H81_9 H 0.978173 0.641514 0.0165588
H82_9 H 0.996573 0.641514 0.972818
H81_10 H 0.0165588 0.0218266 0.358486
H83_10 H 0.0172392 0.978707 0.140814
H82_10 H 0.972818 0.00342706 0.358486
H84_10 H 0.97294 0.995717 0.140814
H81_11 H 0.0218266 0.358486 0.0165588
H82_11 H 0.00342706 0.358486 0.972818
H83_11 H 0.978707 0.140814 0.0172392
H84_11 H 0.995717 0.140814 0.97294
H82_12 H 0.0271818 0.00342706 0.641514
H84_12 H 0.0270601 0.995717 0.859186
H81_12 H 0.983441 0.0218266 0.641514
H83_12 H 0.982761 0.978707 0.859186
Cu2_9 Cu 0.28920(7) 0.5000 0.5000
Cu4_9 Cu 0.21095(7) 0.5000 0.5000
O1_3 O 0.1463(3) 0.3622(2) 0.4872(2)
O2_3 O 0.1950(2) 0.2661(2) 0.5259(2)
C1_7 C 0.4001(3) 0.3577(3) 0.4125(3)
H1_7 H 0.4070 0.3363 0.4277
O3_5 O 0.2500 0.2500 0.3917(4)
C2_3 C 0.1172(3) 0.2432(3) 0.4918(3)
H2_3 H 0.1228 0.2304 0.4671
H3_3 H 0.1284 0.2274 0.5125
O4_5 O 0.2500 0.2500 0.5935(3)
N1_7 N 0.3062(2) 0.3745(2) 0.4585(3)
O5_3 O 0.2136(2) 0.4444(2) 0.4912(2)
C3_7 C 0.3672(3) 0.3799(3) 0.4227(3)
C4_3 C 0.1205(3) 0.3677(3) 0.4227(3)
O6_3 O 0.2662(2) 0.3047(2) 0.5251(2)
C5_3 C 0.1317(3) 0.3453(3) 0.4581(3)
N2_3 N 0.1254(2) 0.3065(2) 0.4580(3)
H4_3 H 0.1146 0.2954 0.4381
C6_3 C 0.1370(3) 0.2835(3) 0.4920(3)
H5_3 H 0.1296 0.2976 0.5159
C7_7 C 0.2434(3) 0.3827(3) 0.4921(3)
C8_3 C 0.0875(3) 0.3574(3) 0.4001(3)
H6_3 H 0.0726 0.3357 0.4069
C9_3 C 0.1810(3) 0.2755(3) 0.4926(3)
O7_7 O 0.3621(2) 0.3542(2) 0.4874(2)
O8_9 O 0.1505(4) 0.5000 0.5000
C10_7 C 0.2755(3) 0.3186(3) 0.4927(3)
O9_9 O 0.3488(4) 0.5000 0.5000
C11_7 C 0.2455(3) 0.4264(3) 0.4970(3)
C12_7 C 0.3453(3) 0.3685(3) 0.4583(3)
O10_3 O 0.2758(2) 0.3007(2) 0.4607(2)
C13_3 C 0.0735(3) 0.2454(4) 0.4972(3)
O11_2 O 0.0560(2) 0.2136(2) 0.4911(2)
O12_3 O 0.19921(19) 0.2758(2) 0.4605(2)
O13_3 O 0.2770(2) 0.4421(2) 0.5073(2)
C14_7 C 0.2833(3) 0.3625(3) 0.4920(3)
O14_2 O 0.0580(2) 0.2770(2) 0.5075(2)
H7_7 H 0.2954 0.3840 0.4377
H8_7 H 0.2300 0.3776 0.4669
H9_7 H 0.2270 0.3718 0.5123
H10_7 H 0.2977 0.3698 0.5155
O15_3 O 0.0128(2) 0.3537(3) 0.3622(2)
C15_3 C 0.0082(3) 0.3828(3) 0.2432(3)
H11_3 H 0.0329 0.3772 0.2304
C16_3 C 0.0773(3) 0.3795(3) 0.3677(3)
C17_3 C 0.0419(3) 0.3683(3) 0.3453(3)
N3_3 N 0.0420(3) 0.3746(2) 0.3065(2)
H13_3 H 0.0619 0.3854 0.2954
C18_3 C 0.0080(3) 0.3630(3) 0.2835(3)
C19_3 C 0.0999(3) 0.4125(3) 0.3574(3)
H15_3 H 0.0931 0.4274 0.3357
C20_3 C 0.0074(3) 0.3190(3) 0.2755(3)
C21_3 C 0.0028(3) 0.4265(3) 0.2454(4)
O17_3 O 0.0089(2) 0.4440(2) 0.2136(2)
O20_3 O 0.1378(2) 0.4872(2) 0.3537(3)
O21_3 O 0.2339(2) 0.5259(2) 0.3050(2)
C22_3 C 0.2568(3) 0.4918(3) 0.3828(3)
H16_3 H 0.2696 0.4671 0.3772
H17_3 H 0.2726 0.5125 0.3716
C23_3 C 0.1323(3) 0.4227(3) 0.3795(3)
C24_3 C 0.1547(3) 0.4581(3) 0.3683(3)
N4_3 N 0.1935(2) 0.4580(3) 0.3746(2)
H18_3 H 0.2046 0.4381 0.3854
C25_3 C 0.2165(3) 0.4920(3) 0.3630(3)
H19_3 H 0.2024 0.5159 0.3704
C26_3 C 0.1426(3) 0.4001(3) 0.4125(3)
H20_3 H 0.1643 0.4069 0.4274
C27_3 C 0.2245(3) 0.4926(3) 0.3190(3)
C28_3 C 0.2546(4) 0.4972(3) 0.4265(3)
O22_3 O 0.2864(2) 0.4911(2) 0.4440(2)
O23_3 O 0.2242(2) 0.4605(2) 0.30079(19)
O24_3 O 0.2230(2) 0.5075(2) 0.4420(2)
C29_7 C 0.3577(3) 0.4125(3) 0.4001(3)
H21_7 H 0.3363 0.4277 0.4070
N5_7 N 0.3745(2) 0.4585(3) 0.3062(2)
O25_7 O 0.4444(2) 0.4912(2) 0.2136(2)
C30_7 C 0.3799(3) 0.4227(3) 0.3672(3)
O26_3 O 0.3047(2) 0.5251(2) 0.2662(2)
C31_7 C 0.3827(3) 0.4921(3) 0.2434(3)
O27_7 O 0.3542(2) 0.4874(2) 0.3621(2)
C32_7 C 0.3186(3) 0.4927(3) 0.2755(3)
C33_7 C 0.4264(3) 0.4970(3) 0.2455(3)
C34_7 C 0.3685(3) 0.4583(3) 0.3453(3)
O28_3 O 0.3007(2) 0.4607(2) 0.2758(2)
O29_7 O 0.4421(2) 0.5073(2) 0.2770(2)
C35_7 C 0.3625(3) 0.4920(3) 0.2833(3)
H22_7 H 0.3840 0.4377 0.2954
H23_7 H 0.3776 0.4669 0.2300
H24_7 H 0.3718 0.5123 0.2270
H25_7 H 0.3698 0.5155 0.2977
C36_7 C 0.4125(3) 0.4001(3) 0.3577(3)
H26_7 H 0.4277 0.4070 0.3363
N6_7 N 0.4585(3) 0.3062(2) 0.3745(2)
O30_7 O 0.4912(2) 0.2136(2) 0.4444(2)
C37_7 C 0.4227(3) 0.3672(3) 0.3799(3)
O31_7 O 0.5251(2) 0.2662(2) 0.3047(2)
C38_7 C 0.4921(3) 0.2434(3) 0.3827(3)
O32_7 O 0.4874(2) 0.3621(2) 0.3542(2)
C39_7 C 0.4927(3) 0.2755(3) 0.3186(3)
C40_7 C 0.4970(3) 0.2455(3) 0.4264(3)
C41_7 C 0.4583(3) 0.3453(3) 0.3685(3)
O33_7 O 0.4607(2) 0.2758(2) 0.3007(2)
O34_7 O 0.5073(2) 0.2770(2) 0.4421(2)
C42_7 C 0.4920(3) 0.2833(3) 0.3625(3)
H27_7 H 0.4377 0.2954 0.3840
H28_7 H 0.4669 0.2300 0.3776
H29_7 H 0.5123 0.2270 0.3718
H30_7 H 0.5155 0.2977 0.3698
O35_3 O 0.1463(3) 0.6378(2) 0.5128(2)
O36_3 O 0.1950(2) 0.7339(2) 0.4741(2)
C43_7 C 0.4001(3) 0.6423(3) 0.5875(3)
H31_7 H 0.4070 0.6637 0.5723
C44_3 C 0.1172(3) 0.7568(3) 0.5082(3)
H32_3 H 0.1228 0.7696 0.5329
H33_3 H 0.1284 0.7726 0.4875
N7_7 N 0.3062(2) 0.6255(2) 0.5415(3)
O37_3 O 0.2136(2) 0.5556(2) 0.5088(2)
C45_7 C 0.3672(3) 0.6201(3) 0.5773(3)
C46_3 C 0.1205(3) 0.6323(3) 0.5773(3)
O38_3 O 0.2662(2) 0.6953(2) 0.4749(2)
C47_3 C 0.1317(3) 0.6547(3) 0.5419(3)
N8_3 N 0.1254(2) 0.6935(2) 0.5420(3)
H34_3 H 0.1146 0.7046 0.5619
C48_3 C 0.1370(3) 0.7165(3) 0.5080(3)
H35_3 H 0.1296 0.7024 0.4841
C49_7 C 0.2434(3) 0.6173(3) 0.5079(3)
C50_3 C 0.0875(3) 0.6426(3) 0.5999(3)
H36_3 H 0.0726 0.6643 0.5931
C51_3 C 0.1810(3) 0.7245(3) 0.5074(3)
O39_7 O 0.3621(2) 0.6458(2) 0.5126(2)
C52_7 C 0.2755(3) 0.6814(3) 0.5073(3)
C53_7 C 0.2455(3) 0.5736(3) 0.5030(3)
C54_7 C 0.3453(3) 0.6315(3) 0.5417(3)
O40_3 O 0.2758(2) 0.6993(2) 0.5393(2)
C55_3 C 0.0735(3) 0.7546(4) 0.5028(3)
O41_3 O 0.0560(2) 0.7864(2) 0.5089(2)
O42_3 O 0.19921(19) 0.7242(2) 0.5395(2)
O43_3 O 0.2770(2) 0.5579(2) 0.4927(2)
C56_7 C 0.2833(3) 0.6375(3) 0.5080(3)
O44_3 O 0.0580(2) 0.7230(2) 0.4925(2)
H37_7 H 0.2954 0.6160 0.5623
H38_7 H 0.2300 0.6224 0.5331
H39_7 H 0.2270 0.6282 0.4877
H40_7 H 0.2977 0.6302 0.4845
O45_3 O 0.0128(2) 0.6463(3) 0.6378(2)
C57_3 C 0.0082(3) 0.6172(3) 0.7568(3)
H41_3 H 0.0329 0.6228 0.7696
C58_3 C 0.0773(3) 0.6205(3) 0.6323(3)
C59_3 C 0.0419(3) 0.6317(3) 0.6547(3)
N9_3 N 0.0420(3) 0.6254(2) 0.6935(2)
H43_3 H 0.0619 0.6146 0.7046
C60_3 C 0.0080(3) 0.6370(3) 0.7165(3)
C61_3 C 0.0999(3) 0.5875(3) 0.6426(3)
H45_3 H 0.0931 0.5726 0.6643
C62_3 C 0.0074(3) 0.6810(3) 0.7245(3)
C63_3 C 0.0028(3) 0.5735(3) 0.7546(4)
O47_2 O 0.0089(2) 0.5560(2) 0.7864(2)
O50_3 O 0.1378(2) 0.5128(2) 0.6463(3)
O51_3 O 0.2339(2) 0.4741(2) 0.6950(2)
C64_3 C 0.2568(3) 0.5082(3) 0.6172(3)
H46_3 H 0.2696 0.5329 0.6228
H47_3 H 0.2726 0.4875 0.6284
C65_3 C 0.1323(3) 0.5773(3) 0.6205(3)
C66_3 C 0.1547(3) 0.5419(3) 0.6317(3)
N10_3 N 0.1935(2) 0.5420(3) 0.6254(2)
H48_3 H 0.2046 0.5619 0.6146
C67_3 C 0.2165(3) 0.5080(3) 0.6370(3)
H49_3 H 0.2024 0.4841 0.6296
C68_3 C 0.1426(3) 0.5999(3) 0.5875(3)
H50_3 H 0.1643 0.5931 0.5726
C69_3 C 0.2245(3) 0.5074(3) 0.6810(3)
C70_3 C 0.2546(4) 0.5028(3) 0.5735(3)
O52_3 O 0.2864(2) 0.5089(2) 0.5560(2)
O53_3 O 0.2242(2) 0.5395(2) 0.69921(19)
O54_3 O 0.2230(2) 0.4925(2) 0.5580(2)
C71_7 C 0.3577(3) 0.5875(3) 0.5999(3)
H51_7 H 0.3363 0.5723 0.5930
N11_7 N 0.3745(2) 0.5415(3) 0.6938(2)
O55_7 O 0.4444(2) 0.5088(2) 0.7864(2)
C72_7 C 0.3799(3) 0.5773(3) 0.6328(3)
O56_3 O 0.3047(2) 0.4749(2) 0.7338(2)
C73_7 C 0.3827(3) 0.5079(3) 0.7566(3)
O57_7 O 0.3542(2) 0.5126(2) 0.6379(2)
C74_7 C 0.3186(3) 0.5073(3) 0.7245(3)
C75_7 C 0.4264(3) 0.5030(3) 0.7545(3)
C76_7 C 0.3685(3) 0.5417(3) 0.6547(3)
O58_3 O 0.3007(2) 0.5393(2) 0.7242(2)
O59_7 O 0.4421(2) 0.4927(2) 0.7230(2)
C77_7 C 0.3625(3) 0.5080(3) 0.7167(3)
H52_7 H 0.3840 0.5623 0.7046
H53_7 H 0.3776 0.5331 0.7700
H54_7 H 0.3718 0.4877 0.7730
H55_7 H 0.3698 0.4845 0.7023
C78_7 C 0.4125(3) 0.5999(3) 0.6423(3)
H56_7 H 0.4277 0.5930 0.6637
N12_7 N 0.4585(3) 0.6938(2) 0.6255(2)
O60_7 O 0.4912(2) 0.7864(2) 0.5556(2)
C79_7 C 0.4227(3) 0.6328(3) 0.6201(3)
O61_7 O 0.5251(2) 0.7338(2) 0.6953(2)
C80_7 C 0.4921(3) 0.7566(3) 0.6173(3)
O62_7 O 0.4874(2) 0.6379(2) 0.6458(2)
C81_7 C 0.4927(3) 0.7245(3) 0.6814(3)
C82_7 C 0.4970(3) 0.7545(3) 0.5736(3)
C83_7 C 0.4583(3) 0.6547(3) 0.6315(3)
O63_7 O 0.4607(2) 0.7242(2) 0.6993(2)
O64_7 O 0.5073(2) 0.7230(2) 0.5579(2)
C84_7 C 0.4920(3) 0.7167(3) 0.6375(3)
H57_7 H 0.4377 0.7046 0.6160
H58_7 H 0.4669 0.7700 0.6224
H59_7 H 0.5123 0.7730 0.6282
H60_7 H 0.5155 0.7023 0.6302
O65_9 O 0.0000 0.6505(4) 0.5000
O66_9 O -0.0000 0.8488(4) 0.5000
O67_9 O 0.0000 0.5000 0.6505(4)
O68_9 O -0.0000 0.5000 0.8488(4)
O71_5 O 0.2500 0.3917(4) 0.2500
O72_5 O 0.2500 0.5935(3) 0.2500
Cu20_7 Cu 0.5000 0.5000 0.28920(7)
Cu21_7 Cu 0.5000 0.5000 0.71080(7)
Cu22_7 Cu 0.5000 0.28920(7) 0.5000
Cu23_7 Cu 0.5000 0.71080(7) 0.5000
Cu31_7 Cu 0.5000 0.5000 0.21095(7)
Cu32_7 Cu 0.5000 0.5000 0.78905(7)
Cu33_7 Cu 0.5000 0.21095(7) 0.5000
Cu34_7 Cu 0.5000 0.78905(7) 0.5000
O74_5 O 0.2661(2) 0.5259(2) 0.1950(2)
O75_5 O 0.3050(2) 0.2339(2) 0.5259(2)
O91_5 O 0.2758(2) 0.4605(2) 0.19921(19)
O92_5 O 0.30079(19) 0.2242(2) 0.4605(2)
O98_2 O 0.0075(2) 0.4420(2) 0.7230(2)
H12_3 H 0.9875 0.3716 0.2274
H14_3 H 0.9841 0.3704 0.2976
O19_3 O 0.9925(2) 0.4420(2) 0.2770(2)
H42_3 H 0.9875 0.6284 0.7726
H44_3 H 0.9841 0.6296 0.7024
O49_2 O 0.9925(2) 0.5580(2) 0.7230(2)
O65_10 O 1.0000 0.6505(4) 0.5000
O66_10 O 1.0000 0.8488(4) 0.5000
O67_10 O 1.0000 0.5000 0.6505(4)
O68_10 O 1.0000 0.5000 0.8488(4)
O88_2 O 0.9440(2) 0.7864(2) 0.4911(2)
O89_2 O 0.9911(2) 0.4440(2) 0.7864(2)
O97_2 O 0.9420(2) 0.7230(2) 0.5075(2)
H12_4 H 0.0125 0.6284 0.2274
H14_4 H 0.0159 0.6296 0.2976
O19_4 O 0.0075(2) 0.5580(2) 0.2770(2)
H42_4 H 0.0125 0.3716 0.7726
H44_4 H 0.0159 0.3704 0.7024
O65_11 O -0.0000 0.3495(4) 0.5000
O66_11 O 0.0000 0.1512(4) 0.5000
Cu2_10 Cu 0.71080(7) 0.5000 0.5000
Cu4_10 Cu 0.78905(7) 0.5000 0.5000
O1_4 O 0.8537(3) 0.6378(2) 0.4872(2)
O2_4 O 0.8050(2) 0.7339(2) 0.5259(2)
C1_8 C 0.5999(3) 0.6423(3) 0.4125(3)
H1_8 H 0.5930 0.6637 0.4277
O3_6 O 0.7500 0.7500 0.3917(4)
C2_4 C 0.8828(3) 0.7568(3) 0.4918(3)
H2_4 H 0.8772 0.7696 0.4671
H3_4 H 0.8716 0.7726 0.5125
O4_6 O 0.7500 0.7500 0.5935(3)
N1_8 N 0.6938(2) 0.6255(2) 0.4585(3)
O5_4 O 0.7864(2) 0.5556(2) 0.4912(2)
C3_8 C 0.6328(3) 0.6201(3) 0.4227(3)
C4_4 C 0.8795(3) 0.6323(3) 0.4227(3)
O6_4 O 0.7338(2) 0.6953(2) 0.5251(2)
C5_4 C 0.8683(3) 0.6547(3) 0.4581(3)
N2_4 N 0.8746(2) 0.6935(2) 0.4580(3)
H4_4 H 0.8854 0.7046 0.4381
C6_4 C 0.8630(3) 0.7165(3) 0.4920(3)
H5_4 H 0.8704 0.7024 0.5159
C7_8 C 0.7566(3) 0.6173(3) 0.4921(3)
C8_4 C 0.9125(3) 0.6426(3) 0.4001(3)
H6_4 H 0.9274 0.6643 0.4069
C9_4 C 0.8190(3) 0.7245(3) 0.4926(3)
O7_8 O 0.6379(2) 0.6458(2) 0.4874(2)
O8_10 O 0.8495(4) 0.5000 0.5000
C10_8 C 0.7245(3) 0.6814(3) 0.4927(3)
O9_10 O 0.6512(4) 0.5000 0.5000
C11_8 C 0.7545(3) 0.5736(3) 0.4970(3)
C12_8 C 0.6547(3) 0.6315(3) 0.4583(3)
O10_4 O 0.7242(2) 0.6993(2) 0.4607(2)
C13_4 C 0.9265(3) 0.7546(4) 0.4972(3)
O12_4 O 0.80079(19) 0.7242(2) 0.4605(2)
O13_4 O 0.7230(2) 0.5579(2) 0.5073(2)
C14_8 C 0.7167(3) 0.6375(3) 0.4920(3)
H7_8 H 0.7046 0.6160 0.4377
H8_8 H 0.7700 0.6224 0.4669
H9_8 H 0.7730 0.6282 0.5123
H10_8 H 0.7023 0.6302 0.5155
O15_4 O 0.9872(2) 0.6463(3) 0.3622(2)
C15_4 C 0.9918(3) 0.6172(3) 0.2432(3)
H11_4 H 0.9671 0.6228 0.2304
C16_4 C 0.9227(3) 0.6205(3) 0.3677(3)
C17_4 C 0.9581(3) 0.6317(3) 0.3453(3)
N3_4 N 0.9580(3) 0.6254(2) 0.3065(2)
H13_4 H 0.9381 0.6146 0.2954
C18_4 C 0.9920(3) 0.6370(3) 0.2835(3)
C19_4 C 0.9001(3) 0.5875(3) 0.3574(3)
H15_4 H 0.9069 0.5726 0.3357
C20_4 C 0.9926(3) 0.6810(3) 0.2755(3)
C21_4 C 0.9972(3) 0.5735(3) 0.2454(4)
O17_4 O 0.9911(2) 0.5560(2) 0.2136(2)
O20_4 O 0.8622(2) 0.5128(2) 0.3537(3)
O21_4 O 0.7661(2) 0.4741(2) 0.3050(2)
C22_4 C 0.7432(3) 0.5082(3) 0.3828(3)
H16_4 H 0.7304 0.5329 0.3772
H17_4 H 0.7274 0.4875 0.3716
C23_4 C 0.8677(3) 0.5773(3) 0.3795(3)
C24_4 C 0.8453(3) 0.5419(3) 0.3683(3)
N4_4 N 0.8065(2) 0.5420(3) 0.3746(2)
H18_4 H 0.7954 0.5619 0.3854
C25_4 C 0.7835(3) 0.5080(3) 0.3630(3)
H19_4 H 0.7976 0.4841 0.3704
C26_4 C 0.8574(3) 0.5999(3) 0.4125(3)
H20_4 H 0.8357 0.5931 0.4274
C27_4 C 0.7755(3) 0.5074(3) 0.3190(3)
C28_4 C 0.7454(4) 0.5028(3) 0.4265(3)
O22_4 O 0.7136(2) 0.5089(2) 0.4440(2)
O23_4 O 0.7758(2) 0.5395(2) 0.30079(19)
O24_4 O 0.7770(2) 0.4925(2) 0.4420(2)
C29_8 C 0.6423(3) 0.5875(3) 0.4001(3)
H21_8 H 0.6637 0.5723 0.4070
N5_8 N 0.6255(2) 0.5415(3) 0.3062(2)
O25_8 O 0.5556(2) 0.5088(2) 0.2136(2)
C30_8 C 0.6201(3) 0.5773(3) 0.3672(3)
O26_4 O 0.6953(2) 0.4749(2) 0.2662(2)
C31_8 C 0.6173(3) 0.5079(3) 0.2434(3)
O27_8 O 0.6458(2) 0.5126(2) 0.3621(2)
C32_8 C 0.6814(3) 0.5073(3) 0.2755(3)
C33_8 C 0.5736(3) 0.5030(3) 0.2455(3)
C34_8 C 0.6315(3) 0.5417(3) 0.3453(3)
O28_4 O 0.6993(2) 0.5393(2) 0.2758(2)
O29_8 O 0.5579(2) 0.4927(2) 0.2770(2)
C35_8 C 0.6375(3) 0.5080(3) 0.2833(3)
H22_8 H 0.6160 0.5623 0.2954
H23_8 H 0.6224 0.5331 0.2300
H24_8 H 0.6282 0.4877 0.2270
H25_8 H 0.6302 0.4845 0.2977
C36_8 C 0.5875(3) 0.5999(3) 0.3577(3)
H26_8 H 0.5723 0.5930 0.3363
N6_8 N 0.5415(3) 0.6938(2) 0.3745(2)
O30_8 O 0.5088(2) 0.7864(2) 0.4444(2)
C37_8 C 0.5773(3) 0.6328(3) 0.3799(3)
O31_8 O 0.4749(2) 0.7338(2) 0.3047(2)
C38_8 C 0.5079(3) 0.7566(3) 0.3827(3)
O32_8 O 0.5126(2) 0.6379(2) 0.3542(2)
C39_8 C 0.5073(3) 0.7245(3) 0.3186(3)
C40_8 C 0.5030(3) 0.7545(3) 0.4264(3)
C41_8 C 0.5417(3) 0.6547(3) 0.3685(3)
O33_8 O 0.5393(2) 0.7242(2) 0.3007(2)
O34_8 O 0.4927(2) 0.7230(2) 0.4421(2)
C42_8 C 0.5080(3) 0.7167(3) 0.3625(3)
H27_8 H 0.5623 0.7046 0.3840
H28_8 H 0.5331 0.7700 0.3776
H29_8 H 0.4877 0.7730 0.3718
H30_8 H 0.4845 0.7023 0.3698
O35_4 O 0.8537(3) 0.3622(2) 0.5128(2)
O36_4 O 0.8050(2) 0.2661(2) 0.4741(2)
C43_8 C 0.5999(3) 0.3577(3) 0.5875(3)
H31_8 H 0.5930 0.3363 0.5723
C44_4 C 0.8828(3) 0.2432(3) 0.5082(3)
H32_4 H 0.8772 0.2304 0.5329
H33_4 H 0.8716 0.2274 0.4875
N7_8 N 0.6938(2) 0.3745(2) 0.5415(3)
O37_4 O 0.7864(2) 0.4444(2) 0.5088(2)
C45_8 C 0.6328(3) 0.3799(3) 0.5773(3)
C46_4 C 0.8795(3) 0.3677(3) 0.5773(3)
O38_4 O 0.7338(2) 0.3047(2) 0.4749(2)
C47_4 C 0.8683(3) 0.3453(3) 0.5419(3)
N8_4 N 0.8746(2) 0.3065(2) 0.5420(3)
H34_4 H 0.8854 0.2954 0.5619
C48_4 C 0.8630(3) 0.2835(3) 0.5080(3)
H35_4 H 0.8704 0.2976 0.4841
C49_8 C 0.7566(3) 0.3827(3) 0.5079(3)
C50_4 C 0.9125(3) 0.3574(3) 0.5999(3)
H36_4 H 0.9274 0.3357 0.5931
C51_4 C 0.8190(3) 0.2755(3) 0.5074(3)
O39_8 O 0.6379(2) 0.3542(2) 0.5126(2)
C52_8 C 0.7245(3) 0.3186(3) 0.5073(3)
C53_8 C 0.7545(3) 0.4264(3) 0.5030(3)
C54_8 C 0.6547(3) 0.3685(3) 0.5417(3)
O40_4 O 0.7242(2) 0.3007(2) 0.5393(2)
C55_4 C 0.9265(3) 0.2454(4) 0.5028(3)
O41_4 O 0.9440(2) 0.2136(2) 0.5089(2)
O42_4 O 0.80079(19) 0.2758(2) 0.5395(2)
O43_4 O 0.7230(2) 0.4421(2) 0.4927(2)
C56_8 C 0.7167(3) 0.3625(3) 0.5080(3)
O44_4 O 0.9420(2) 0.2770(2) 0.4925(2)
H37_8 H 0.7046 0.3840 0.5623
H38_8 H 0.7700 0.3776 0.5331
H39_8 H 0.7730 0.3718 0.4877
H40_8 H 0.7023 0.3698 0.4845
O45_4 O 0.9872(2) 0.3537(3) 0.6378(2)
C57_4 C 0.9918(3) 0.3828(3) 0.7568(3)
H41_4 H 0.9671 0.3772 0.7696
C58_4 C 0.9227(3) 0.3795(3) 0.6323(3)
C59_4 C 0.9581(3) 0.3683(3) 0.6547(3)
N9_4 N 0.9580(3) 0.3746(2) 0.6935(2)
H43_4 H 0.9381 0.3854 0.7046
C60_4 C 0.9920(3) 0.3630(3) 0.7165(3)
C61_4 C 0.9001(3) 0.4125(3) 0.6426(3)
H45_4 H 0.9069 0.4274 0.6643
C62_4 C 0.9926(3) 0.3190(3) 0.7245(3)
C63_4 C 0.9972(3) 0.4265(3) 0.7546(4)
O50_4 O 0.8622(2) 0.4872(2) 0.6463(3)
O51_4 O 0.7661(2) 0.5259(2) 0.6950(2)
C64_4 C 0.7432(3) 0.4918(3) 0.6172(3)
H46_4 H 0.7304 0.4671 0.6228
H47_4 H 0.7274 0.5125 0.6284
C65_4 C 0.8677(3) 0.4227(3) 0.6205(3)
C66_4 C 0.8453(3) 0.4581(3) 0.6317(3)
N10_4 N 0.8065(2) 0.4580(3) 0.6254(2)
H48_4 H 0.7954 0.4381 0.6146
C67_4 C 0.7835(3) 0.4920(3) 0.6370(3)
H49_4 H 0.7976 0.5159 0.6296
C68_4 C 0.8574(3) 0.4001(3) 0.5875(3)
H50_4 H 0.8357 0.4069 0.5726
C69_4 C 0.7755(3) 0.4926(3) 0.6810(3)
C70_4 C 0.7454(4) 0.4972(3) 0.5735(3)
O52_4 O 0.7136(2) 0.4911(2) 0.5560(2)
O53_4 O 0.7758(2) 0.4605(2) 0.69921(19)
O54_4 O 0.7770(2) 0.5075(2) 0.5580(2)
C71_8 C 0.6423(3) 0.4125(3) 0.5999(3)
H51_8 H 0.6637 0.4277 0.5930
N11_8 N 0.6255(2) 0.4585(3) 0.6938(2)
O55_8 O 0.5556(2) 0.4912(2) 0.7864(2)
C72_8 C 0.6201(3) 0.4227(3) 0.6328(3)
O56_4 O 0.6953(2) 0.5251(2) 0.7338(2)
C73_8 C 0.6173(3) 0.4921(3) 0.7566(3)
O57_8 O 0.6458(2) 0.4874(2) 0.6379(2)
C74_8 C 0.6814(3) 0.4927(3) 0.7245(3)
C75_8 C 0.5736(3) 0.4970(3) 0.7545(3)
C76_8 C 0.6315(3) 0.4583(3) 0.6547(3)
O58_4 O 0.6993(2) 0.4607(2) 0.7242(2)
O59_8 O 0.5579(2) 0.5073(2) 0.7230(2)
C77_8 C 0.6375(3) 0.4920(3) 0.7167(3)
H52_8 H 0.6160 0.4377 0.7046
H53_8 H 0.6224 0.4669 0.7700
H54_8 H 0.6282 0.5123 0.7730
H55_8 H 0.6302 0.5155 0.7023
C78_8 C 0.5875(3) 0.4001(3) 0.6423(3)
H56_8 H 0.5723 0.4070 0.6637
N12_8 N 0.5415(3) 0.3062(2) 0.6255(2)
O60_8 O 0.5088(2) 0.2136(2) 0.5556(2)
C79_8 C 0.5773(3) 0.3672(3) 0.6201(3)
O61_8 O 0.4749(2) 0.2662(2) 0.6953(2)
C80_8 C 0.5079(3) 0.2434(3) 0.6173(3)
O62_8 O 0.5126(2) 0.3621(2) 0.6458(2)
C81_8 C 0.5073(3) 0.2755(3) 0.6814(3)
C82_8 C 0.5030(3) 0.2455(3) 0.5736(3)
C83_8 C 0.5417(3) 0.3453(3) 0.6315(3)
O63_8 O 0.5393(2) 0.2758(2) 0.6993(2)
O64_8 O 0.4927(2) 0.2770(2) 0.5579(2)
C84_8 C 0.5080(3) 0.2833(3) 0.6375(3)
H57_8 H 0.5623 0.2954 0.6160
H58_8 H 0.5331 0.2300 0.6224
H59_8 H 0.4877 0.2270 0.6282
H60_8 H 0.4845 0.2977 0.6302
O65_12 O 1.0000 0.3495(4) 0.5000
O66_12 O 1.0000 0.1512(4) 0.5000
O71_6 O 0.7500 0.6083(4) 0.2500
O72_6 O 0.7500 0.4065(3) 0.2500
O74_6 O 0.7339(2) 0.4741(2) 0.1950(2)
O75_6 O 0.6950(2) 0.7661(2) 0.5259(2)
O91_6 O 0.7242(2) 0.5395(2) 0.19921(19)
O92_6 O 0.69921(19) 0.7758(2) 0.4605(2)
O3_7 O 0.2500 0.7500 0.6083(4)
O4_7 O 0.2500 0.7500 0.4065(3)
O67_11 O 0.0000 0.5000 0.3495(4)
O68_11 O -0.0000 0.5000 0.1512(4)
O71_7 O 0.2500 0.6083(4) 0.7500
O72_7 O 0.2500 0.4065(3) 0.7500
O74_7 O 0.2661(2) 0.4741(2) 0.8050(2)
O75_7 O 0.3050(2) 0.7661(2) 0.4741(2)
O91_7 O 0.2758(2) 0.5395(2) 0.80079(19)
O92_7 O 0.30079(19) 0.7758(2) 0.5395(2)
O67_12 O 1.0000 0.5000 0.3495(4)
O68_12 O 1.0000 0.5000 0.1512(4)
O3_8 O 0.7500 0.2500 0.6083(4)
O4_8 O 0.7500 0.2500 0.4065(3)
O71_8 O 0.7500 0.3917(4) 0.7500
O72_8 O 0.7500 0.5935(3) 0.7500
O74_8 O 0.7339(2) 0.5259(2) 0.8050(2)
O75_8 O 0.6950(2) 0.2339(2) 0.4741(2)
O91_8 O 0.7242(2) 0.4605(2) 0.80079(19)
O92_8 O 0.69921(19) 0.2242(2) 0.5395(2)
O8_11 O 0.6505(4) 0.0000 0.5000
O9_11 O 0.8488(4) 0.0000 0.5000
H17_5 H 0.7726 0.0125 0.3716
H19_5 H 0.7024 0.0159 0.3704
O24_5 O 0.7230(2) 0.0075(2) 0.4420(2)
O35_5 O 0.6463(3) 0.1378(2) 0.5128(2)
C44_5 C 0.6172(3) 0.2568(3) 0.5082(3)
H32_5 H 0.6228 0.2696 0.5329
H33_5 H 0.6284 0.2726 0.4875
C46_5 C 0.6205(3) 0.1323(3) 0.5773(3)
C47_5 C 0.6317(3) 0.1547(3) 0.5419(3)
N8_5 N 0.6254(2) 0.1935(2) 0.5420(3)
H34_5 H 0.6146 0.2046 0.5619
C48_5 C 0.6370(3) 0.2165(3) 0.5080(3)
H35_5 H 0.6296 0.2024 0.4841
C50_5 C 0.5875(3) 0.1426(3) 0.5999(3)
H36_5 H 0.5726 0.1643 0.5931
C51_5 C 0.6810(3) 0.2245(3) 0.5074(3)
C55_5 C 0.5735(3) 0.2546(4) 0.5028(3)
O41_5 O 0.5560(2) 0.2864(2) 0.5089(2)
O44_5 O 0.5580(2) 0.2230(2) 0.4925(2)
O45_5 O 0.5128(2) 0.1463(3) 0.6378(2)
O46_3 O 0.4741(2) 0.1950(2) 0.7339(2)
C57_5 C 0.5082(3) 0.1172(3) 0.7568(3)
H41_5 H 0.5329 0.1228 0.7696
H42_5 H 0.4875 0.1284 0.7726
C58_5 C 0.5773(3) 0.1205(3) 0.6323(3)
C59_5 C 0.5419(3) 0.1317(3) 0.6547(3)
N9_5 N 0.5420(3) 0.1254(2) 0.6935(2)
H43_5 H 0.5619 0.1146 0.7046
C60_5 C 0.5080(3) 0.1370(3) 0.7165(3)
H44_5 H 0.4841 0.1296 0.7024
C61_5 C 0.5999(3) 0.0875(3) 0.6426(3)
H45_5 H 0.5931 0.0726 0.6643
C62_5 C 0.5074(3) 0.1810(3) 0.7245(3)
C63_5 C 0.5028(3) 0.0735(3) 0.7546(4)
O47_3 O 0.5089(2) 0.0560(2) 0.7864(2)
O48_3 O 0.5395(2) 0.19921(19) 0.7242(2)
O49_3 O 0.4925(2) 0.0580(2) 0.7230(2)
O50_5 O 0.6378(2) 0.0128(2) 0.6463(3)
C64_5 C 0.7568(3) 0.0082(3) 0.6172(3)
H46_5 H 0.7696 0.0329 0.6228
C65_5 C 0.6323(3) 0.0773(3) 0.6205(3)
C66_5 C 0.6547(3) 0.0419(3) 0.6317(3)
N10_5 N 0.6935(2) 0.0420(3) 0.6254(2)
H48_5 H 0.7046 0.0619 0.6146
C67_5 C 0.7165(3) 0.0080(3) 0.6370(3)
C68_5 C 0.6426(3) 0.0999(3) 0.5875(3)
H50_5 H 0.6643 0.0931 0.5726
C69_5 C 0.7245(3) 0.0074(3) 0.6810(3)
C70_5 C 0.7546(4) 0.0028(3) 0.5735(3)
O52_5 O 0.7864(2) 0.0089(2) 0.5560(2)
O65_13 O 0.5000 0.1505(4) 0.5000
O66_13 O 0.5000 0.3488(4) 0.5000
O67_13 O 0.5000 0.0000 0.6505(4)
O68_13 O 0.5000 0.0000 0.8488(4)
O88_3 O 0.4440(2) 0.2864(2) 0.4911(2)
O97_3 O 0.4420(2) 0.2230(2) 0.5075(2)
O1_5 O 0.6463(3) 0.8622(2) 0.4872(2)
C2_5 C 0.6172(3) 0.7432(3) 0.4918(3)
H2_5 H 0.6228 0.7304 0.4671
H3_5 H 0.6284 0.7274 0.5125
C4_5 C 0.6205(3) 0.8677(3) 0.4227(3)
C5_5 C 0.6317(3) 0.8453(3) 0.4581(3)
N2_5 N 0.6254(2) 0.8065(2) 0.4580(3)
H4_5 H 0.6146 0.7954 0.4381
C6_5 C 0.6370(3) 0.7835(3) 0.4920(3)
H5_5 H 0.6296 0.7976 0.5159
C8_5 C 0.5875(3) 0.8574(3) 0.4001(3)
H6_5 H 0.5726 0.8357 0.4069
C9_5 C 0.6810(3) 0.7755(3) 0.4926(3)
O8_12 O 0.6505(4) 1.0000 0.5000
O9_12 O 0.8488(4) 1.0000 0.5000
C13_5 C 0.5735(3) 0.7454(4) 0.4972(3)
O11_3 O 0.5560(2) 0.7136(2) 0.4911(2)
O14_3 O 0.5580(2) 0.7770(2) 0.5075(2)
O15_5 O 0.5128(2) 0.8537(3) 0.3622(2)
O16_3 O 0.4741(2) 0.8050(2) 0.2661(2)
C15_5 C 0.5082(3) 0.8828(3) 0.2432(3)
H11_5 H 0.5329 0.8772 0.2304
H12_5 H 0.4875 0.8716 0.2274
C16_5 C 0.5773(3) 0.8795(3) 0.3677(3)
C17_5 C 0.5419(3) 0.8683(3) 0.3453(3)
N3_5 N 0.5420(3) 0.8746(2) 0.3065(2)
H13_5 H 0.5619 0.8854 0.2954
C18_5 C 0.5080(3) 0.8630(3) 0.2835(3)
H14_5 H 0.4841 0.8704 0.2976
C19_5 C 0.5999(3) 0.9125(3) 0.3574(3)
H15_5 H 0.5931 0.9274 0.3357
C20_5 C 0.5074(3) 0.8190(3) 0.2755(3)
C21_5 C 0.5028(3) 0.9265(3) 0.2454(4)
O17_5 O 0.5089(2) 0.9440(2) 0.2136(2)
O18_3 O 0.5395(2) 0.80079(19) 0.2758(2)
O19_5 O 0.4925(2) 0.9420(2) 0.2770(2)
O20_5 O 0.6378(2) 0.9872(2) 0.3537(3)
C22_5 C 0.7568(3) 0.9918(3) 0.3828(3)
H16_5 H 0.7696 0.9671 0.3772
C23_5 C 0.6323(3) 0.9227(3) 0.3795(3)
C24_5 C 0.6547(3) 0.9581(3) 0.3683(3)
N4_5 N 0.6935(2) 0.9580(3) 0.3746(2)
H18_5 H 0.7046 0.9381 0.3854
C25_5 C 0.7165(3) 0.9920(3) 0.3630(3)
C26_5 C 0.6426(3) 0.9001(3) 0.4125(3)
H20_5 H 0.6643 0.9069 0.4274
C27_5 C 0.7245(3) 0.9926(3) 0.3190(3)
C28_5 C 0.7546(4) 0.9972(3) 0.4265(3)
O22_5 O 0.7864(2) 0.9911(2) 0.4440(2)
H47_5 H 0.7726 0.9875 0.6284
H49_5 H 0.7024 0.9841 0.6296
O54_5 O 0.7230(2) 0.9925(2) 0.5580(2)
O67_14 O 0.5000 1.0000 0.6505(4)
O68_14 O 0.5000 1.0000 0.8488(4)
O69_5 O 0.6083(4) 0.7500 0.2500
O70_5 O 0.4065(3) 0.7500 0.2500
O73_5 O 0.4741(2) 0.6950(2) 0.2339(2)
O89_3 O 0.4911(2) 0.9440(2) 0.7864(2)
O90_5 O 0.5395(2) 0.69921(19) 0.2242(2)
O98_3 O 0.5075(2) 0.9420(2) 0.7230(2)
O1_6 O 0.3537(3) 0.1378(2) 0.4872(2)
C2_6 C 0.3828(3) 0.2568(3) 0.4918(3)
H2_6 H 0.3772 0.2696 0.4671
H3_6 H 0.3716 0.2726 0.5125
C4_6 C 0.3795(3) 0.1323(3) 0.4227(3)
C5_6 C 0.3683(3) 0.1547(3) 0.4581(3)
N2_6 N 0.3746(2) 0.1935(2) 0.4580(3)
H4_6 H 0.3854 0.2046 0.4381
C6_6 C 0.3630(3) 0.2165(3) 0.4920(3)
H5_6 H 0.3704 0.2024 0.5159
C8_6 C 0.4125(3) 0.1426(3) 0.4001(3)
H6_6 H 0.4274 0.1643 0.4069
C9_6 C 0.3190(3) 0.2245(3) 0.4926(3)
O8_13 O 0.3495(4) -0.0000 0.5000
O9_13 O 0.1512(4) -0.0000 0.5000
C13_6 C 0.4265(3) 0.2546(4) 0.4972(3)
O15_6 O 0.4872(2) 0.1463(3) 0.3622(2)
O16_4 O 0.5259(2) 0.1950(2) 0.2661(2)
C15_6 C 0.4918(3) 0.1172(3) 0.2432(3)
H11_6 H 0.4671 0.1228 0.2304
H12_6 H 0.5125 0.1284 0.2274
C16_6 C 0.4227(3) 0.1205(3) 0.3677(3)
C17_6 C 0.4581(3) 0.1317(3) 0.3453(3)
N3_6 N 0.4580(3) 0.1254(2) 0.3065(2)
H13_6 H 0.4381 0.1146 0.2954
C18_6 C 0.4920(3) 0.1370(3) 0.2835(3)
H14_6 H 0.5159 0.1296 0.2976
C19_6 C 0.4001(3) 0.0875(3) 0.3574(3)
H15_6 H 0.4069 0.0726 0.3357
C20_6 C 0.4926(3) 0.1810(3) 0.2755(3)
C21_6 C 0.4972(3) 0.0735(3) 0.2454(4)
O17_6 O 0.4911(2) 0.0560(2) 0.2136(2)
O18_4 O 0.4605(2) 0.19921(19) 0.2758(2)
O19_6 O 0.5075(2) 0.0580(2) 0.2770(2)
O20_6 O 0.3622(2) 0.0128(2) 0.3537(3)
C22_6 C 0.2432(3) 0.0082(3) 0.3828(3)
H16_6 H 0.2304 0.0329 0.3772
C23_6 C 0.3677(3) 0.0773(3) 0.3795(3)
C24_6 C 0.3453(3) 0.0419(3) 0.3683(3)
N4_6 N 0.3065(2) 0.0420(3) 0.3746(2)
H18_6 H 0.2954 0.0619 0.3854
C25_6 C 0.2835(3) 0.0080(3) 0.3630(3)
C26_6 C 0.3574(3) 0.0999(3) 0.4125(3)
H20_6 H 0.3357 0.0931 0.4274
C27_6 C 0.2755(3) 0.0074(3) 0.3190(3)
C28_6 C 0.2454(4) 0.0028(3) 0.4265(3)
O22_6 O 0.2136(2) 0.0089(2) 0.4440(2)
H47_6 H 0.2274 0.0125 0.6284
H49_6 H 0.2976 0.0159 0.6296
O54_6 O 0.2770(2) 0.0075(2) 0.5580(2)
O69_6 O 0.3917(4) 0.2500 0.2500
O70_6 O 0.5935(3) 0.2500 0.2500
O73_6 O 0.5259(2) 0.3050(2) 0.2339(2)
O90_6 O 0.4605(2) 0.30079(19) 0.2242(2)
O8_14 O 0.3495(4) 1.0000 0.5000
O9_14 O 0.1512(4) 1.0000 0.5000
H17_6 H 0.2274 0.9875 0.3716
H19_6 H 0.2976 0.9841 0.3704
O24_6 O 0.2770(2) 0.9925(2) 0.4420(2)
O35_6 O 0.3537(3) 0.8622(2) 0.5128(2)
C44_6 C 0.3828(3) 0.7432(3) 0.5082(3)
H32_6 H 0.3772 0.7304 0.5329
H33_6 H 0.3716 0.7274 0.4875
C46_6 C 0.3795(3) 0.8677(3) 0.5773(3)
C47_6 C 0.3683(3) 0.8453(3) 0.5419(3)
N8_6 N 0.3746(2) 0.8065(2) 0.5420(3)
H34_6 H 0.3854 0.7954 0.5619
C48_6 C 0.3630(3) 0.7835(3) 0.5080(3)
H35_6 H 0.3704 0.7976 0.4841
C50_6 C 0.4125(3) 0.8574(3) 0.5999(3)
H36_6 H 0.4274 0.8357 0.5931
C51_6 C 0.3190(3) 0.7755(3) 0.5074(3)
C55_6 C 0.4265(3) 0.7454(4) 0.5028(3)
O41_6 O 0.4440(2) 0.7136(2) 0.5089(2)
O44_6 O 0.4420(2) 0.7770(2) 0.4925(2)
O45_6 O 0.4872(2) 0.8537(3) 0.6378(2)
O46_4 O 0.5259(2) 0.8050(2) 0.7339(2)
C57_6 C 0.4918(3) 0.8828(3) 0.7568(3)
H41_6 H 0.4671 0.8772 0.7696
H42_6 H 0.5125 0.8716 0.7726
C58_6 C 0.4227(3) 0.8795(3) 0.6323(3)
C59_6 C 0.4581(3) 0.8683(3) 0.6547(3)
N9_6 N 0.4580(3) 0.8746(2) 0.6935(2)
H43_6 H 0.4381 0.8854 0.7046
C60_6 C 0.4920(3) 0.8630(3) 0.7165(3)
H44_6 H 0.5159 0.8704 0.7024
C61_6 C 0.4001(3) 0.9125(3) 0.6426(3)
H45_6 H 0.4069 0.9274 0.6643
C62_6 C 0.4926(3) 0.8190(3) 0.7245(3)
C63_6 C 0.4972(3) 0.9265(3) 0.7546(4)
O48_4 O 0.4605(2) 0.80079(19) 0.7242(2)
O50_6 O 0.3622(2) 0.9872(2) 0.6463(3)
C64_6 C 0.2432(3) 0.9918(3) 0.6172(3)
H46_6 H 0.2304 0.9671 0.6228
C65_6 C 0.3677(3) 0.9227(3) 0.6205(3)
C66_6 C 0.3453(3) 0.9581(3) 0.6317(3)
N10_6 N 0.3065(2) 0.9580(3) 0.6254(2)
H48_6 H 0.2954 0.9381 0.6146
C67_6 C 0.2835(3) 0.9920(3) 0.6370(3)
C68_6 C 0.3574(3) 0.9001(3) 0.5875(3)
H50_6 H 0.3357 0.9069 0.5726
C69_6 C 0.2755(3) 0.9926(3) 0.6810(3)
C70_6 C 0.2454(4) 0.9972(3) 0.5735(3)
O52_6 O 0.2136(2) 0.9911(2) 0.5560(2)
O65_14 O 0.5000 0.8495(4) 0.5000
O66_14 O 0.5000 0.6512(4) 0.5000
O67_15 O 0.5000 -0.0000 0.3495(4)
O68_15 O 0.5000 -0.0000 0.1512(4)
O69_7 O 0.6083(4) 0.2500 0.7500
O70_7 O 0.4065(3) 0.2500 0.7500
O73_7 O 0.4741(2) 0.3050(2) 0.7661(2)
O90_7 O 0.5395(2) 0.30079(19) 0.7758(2)
O67_16 O 0.5000 1.0000 0.3495(4)
O68_16 O 0.5000 1.0000 0.1512(4)
O69_8 O 0.3917(4) 0.7500 0.7500
O70_8 O 0.5935(3) 0.7500 0.7500
O73_8 O 0.5259(2) 0.6950(2) 0.7661(2)
O90_8 O 0.4605(2) 0.69921(19) 0.7758(2)
H3_7 H 0.6284 0.2274 0.0125
H5_7 H 0.6296 0.2976 0.0159
O8_15 O 0.6505(4) 0.5000 0.0000
O9_15 O 0.8488(4) 0.5000 0.0000
O14_4 O 0.5580(2) 0.2770(2) 0.0075(2)
O35_7 O 0.6463(3) 0.6378(2) 0.0128(2)
C44_7 C 0.6172(3) 0.7568(3) 0.0082(3)
H32_7 H 0.6228 0.7696 0.0329
C46_7 C 0.6205(3) 0.6323(3) 0.0773(3)
C47_7 C 0.6317(3) 0.6547(3) 0.0419(3)
N8_7 N 0.6254(2) 0.6935(2) 0.0420(3)
H34_7 H 0.6146 0.7046 0.0619
C48_7 C 0.6370(3) 0.7165(3) 0.0080(3)
C50_7 C 0.5875(3) 0.6426(3) 0.0999(3)
H36_7 H 0.5726 0.6643 0.0931
C51_7 C 0.6810(3) 0.7245(3) 0.0074(3)
C55_7 C 0.5735(3) 0.7546(4) 0.0028(3)
O41_7 O 0.5560(2) 0.7864(2) 0.0089(2)
O45_7 O 0.5128(2) 0.6463(3) 0.1378(2)
C57_7 C 0.5082(3) 0.6172(3) 0.2568(3)
H41_7 H 0.5329 0.6228 0.2696
H42_7 H 0.4875 0.6284 0.2726
C58_7 C 0.5773(3) 0.6205(3) 0.1323(3)
C59_7 C 0.5419(3) 0.6317(3) 0.1547(3)
N9_7 N 0.5420(3) 0.6254(2) 0.1935(2)
H43_7 H 0.5619 0.6146 0.2046
C60_7 C 0.5080(3) 0.6370(3) 0.2165(3)
H44_7 H 0.4841 0.6296 0.2024
C61_7 C 0.5999(3) 0.5875(3) 0.1426(3)
H45_7 H 0.5931 0.5726 0.1643
C62_7 C 0.5074(3) 0.6810(3) 0.2245(3)
C63_7 C 0.5028(3) 0.5735(3) 0.2546(4)
O47_4 O 0.5089(2) 0.5560(2) 0.2864(2)
O49_4 O 0.4925(2) 0.5580(2) 0.2230(2)
O50_7 O 0.6378(2) 0.5128(2) 0.1463(3)
C64_7 C 0.7568(3) 0.5082(3) 0.1172(3)
H46_7 H 0.7696 0.5329 0.1228
H47_7 H 0.7726 0.4875 0.1284
C65_7 C 0.6323(3) 0.5773(3) 0.1205(3)
C66_7 C 0.6547(3) 0.5419(3) 0.1317(3)
N10_7 N 0.6935(2) 0.5420(3) 0.1254(2)
H48_7 H 0.7046 0.5619 0.1146
C67_7 C 0.7165(3) 0.5080(3) 0.1370(3)
H49_7 H 0.7024 0.4841 0.1296
C68_7 C 0.6426(3) 0.5999(3) 0.0875(3)
H50_7 H 0.6643 0.5931 0.0726
C69_7 C 0.7245(3) 0.5074(3) 0.1810(3)
C70_7 C 0.7546(4) 0.5028(3) 0.0735(3)
O52_7 O 0.7864(2) 0.5089(2) 0.0560(2)
O54_7 O 0.7230(2) 0.4925(2) 0.0580(2)
O65_15 O 0.5000 0.6505(4) 0.0000
O66_15 O 0.5000 0.8488(4) 0.0000
O67_17 O 0.5000 0.5000 0.1505(4)
O68_17 O 0.5000 0.5000 0.3488(4)
O89_4 O 0.4911(2) 0.4440(2) 0.2864(2)
O97_4 O 0.4420(2) 0.7230(2) 0.0075(2)
O98_4 O 0.5075(2) 0.4420(2) 0.2230(2)
O1_7 O 0.6463(3) 0.3622(2) 0.9872(2)
C2_7 C 0.6172(3) 0.2432(3) 0.9918(3)
H2_7 H 0.6228 0.2304 0.9671
C4_7 C 0.6205(3) 0.3677(3) 0.9227(3)
C5_7 C 0.6317(3) 0.3453(3) 0.9581(3)
N2_7 N 0.6254(2) 0.3065(2) 0.9580(3)
H4_7 H 0.6146 0.2954 0.9381
C6_7 C 0.6370(3) 0.2835(3) 0.9920(3)
C8_7 C 0.5875(3) 0.3574(3) 0.9001(3)
H6_7 H 0.5726 0.3357 0.9069
C9_7 C 0.6810(3) 0.2755(3) 0.9926(3)
O8_16 O 0.6505(4) 0.5000 1.0000
O9_16 O 0.8488(4) 0.5000 1.0000
C13_7 C 0.5735(3) 0.2454(4) 0.9972(3)
O11_4 O 0.5560(2) 0.2136(2) 0.9911(2)
O15_7 O 0.5128(2) 0.3537(3) 0.8622(2)
C15_7 C 0.5082(3) 0.3828(3) 0.7432(3)
H11_7 H 0.5329 0.3772 0.7304
H12_7 H 0.4875 0.3716 0.7274
C16_7 C 0.5773(3) 0.3795(3) 0.8677(3)
C17_7 C 0.5419(3) 0.3683(3) 0.8453(3)
N3_7 N 0.5420(3) 0.3746(2) 0.8065(2)
H13_7 H 0.5619 0.3854 0.7954
C18_7 C 0.5080(3) 0.3630(3) 0.7835(3)
H14_7 H 0.4841 0.3704 0.7976
C19_7 C 0.5999(3) 0.4125(3) 0.8574(3)
H15_7 H 0.5931 0.4274 0.8357
C20_7 C 0.5074(3) 0.3190(3) 0.7755(3)
C21_7 C 0.5028(3) 0.4265(3) 0.7454(4)
O17_7 O 0.5089(2) 0.4440(2) 0.7136(2)
O19_7 O 0.4925(2) 0.4420(2) 0.7770(2)
O20_7 O 0.6378(2) 0.4872(2) 0.8537(3)
C22_7 C 0.7568(3) 0.4918(3) 0.8828(3)
H16_7 H 0.7696 0.4671 0.8772
H17_7 H 0.7726 0.5125 0.8716
C23_7 C 0.6323(3) 0.4227(3) 0.8795(3)
C24_7 C 0.6547(3) 0.4581(3) 0.8683(3)
N4_7 N 0.6935(2) 0.4580(3) 0.8746(2)
H18_7 H 0.7046 0.4381 0.8854
C25_7 C 0.7165(3) 0.4920(3) 0.8630(3)
H19_7 H 0.7024 0.5159 0.8704
C26_7 C 0.6426(3) 0.4001(3) 0.9125(3)
H20_7 H 0.6643 0.4069 0.9274
C27_7 C 0.7245(3) 0.4926(3) 0.8190(3)
C28_7 C 0.7546(4) 0.4972(3) 0.9265(3)
O22_7 O 0.7864(2) 0.4911(2) 0.9440(2)
O24_7 O 0.7230(2) 0.5075(2) 0.9420(2)
H33_7 H 0.6284 0.7726 0.9875
H35_7 H 0.6296 0.7024 0.9841
O44_7 O 0.5580(2) 0.7230(2) 0.9925(2)
O65_16 O 0.5000 0.6505(4) 1.0000
O66_16 O 0.5000 0.8488(4) 1.0000
O88_4 O 0.4440(2) 0.7864(2) 0.9911(2)
H3_8 H 0.3716 0.7726 0.0125
H5_8 H 0.3704 0.7024 0.0159
O8_17 O 0.3495(4) 0.5000 0.0000
O9_17 O 0.1512(4) 0.5000 0.0000
O35_8 O 0.3537(3) 0.3622(2) 0.0128(2)
C44_8 C 0.3828(3) 0.2432(3) 0.0082(3)
H32_8 H 0.3772 0.2304 0.0329
C46_8 C 0.3795(3) 0.3677(3) 0.0773(3)
C47_8 C 0.3683(3) 0.3453(3) 0.0419(3)
N8_8 N 0.3746(2) 0.3065(2) 0.0420(3)
H34_8 H 0.3854 0.2954 0.0619
C48_8 C 0.3630(3) 0.2835(3) 0.0080(3)
C50_8 C 0.4125(3) 0.3574(3) 0.0999(3)
H36_8 H 0.4274 0.3357 0.0931
C51_8 C 0.3190(3) 0.2755(3) 0.0074(3)
C55_8 C 0.4265(3) 0.2454(4) 0.0028(3)
O41_8 O 0.4440(2) 0.2136(2) 0.0089(2)
O45_8 O 0.4872(2) 0.3537(3) 0.1378(2)
C57_8 C 0.4918(3) 0.3828(3) 0.2568(3)
H41_8 H 0.4671 0.3772 0.2696
H42_8 H 0.5125 0.3716 0.2726
C58_8 C 0.4227(3) 0.3795(3) 0.1323(3)
C59_8 C 0.4581(3) 0.3683(3) 0.1547(3)
N9_8 N 0.4580(3) 0.3746(2) 0.1935(2)
H43_8 H 0.4381 0.3854 0.2046
C60_8 C 0.4920(3) 0.3630(3) 0.2165(3)
H44_8 H 0.5159 0.3704 0.2024
C61_8 C 0.4001(3) 0.4125(3) 0.1426(3)
H45_8 H 0.4069 0.4274 0.1643
C62_8 C 0.4926(3) 0.3190(3) 0.2245(3)
C63_8 C 0.4972(3) 0.4265(3) 0.2546(4)
O50_8 O 0.3622(2) 0.4872(2) 0.1463(3)
C64_8 C 0.2432(3) 0.4918(3) 0.1172(3)
H46_8 H 0.2304 0.4671 0.1228
H47_8 H 0.2274 0.5125 0.1284
C65_8 C 0.3677(3) 0.4227(3) 0.1205(3)
C66_8 C 0.3453(3) 0.4581(3) 0.1317(3)
N10_8 N 0.3065(2) 0.4580(3) 0.1254(2)
H48_8 H 0.2954 0.4381 0.1146
C67_8 C 0.2835(3) 0.4920(3) 0.1370(3)
H49_8 H 0.2976 0.5159 0.1296
C68_8 C 0.3574(3) 0.4001(3) 0.0875(3)
H50_8 H 0.3357 0.4069 0.0726
C69_8 C 0.2755(3) 0.4926(3) 0.1810(3)
C70_8 C 0.2454(4) 0.4972(3) 0.0735(3)
O52_8 O 0.2136(2) 0.4911(2) 0.0560(2)
O54_8 O 0.2770(2) 0.5075(2) 0.0580(2)
O65_17 O 0.5000 0.3495(4) 0.0000
O66_17 O 0.5000 0.1512(4) 0.0000
O1_8 O 0.3537(3) 0.6378(2) 0.9872(2)
C2_8 C 0.3828(3) 0.7568(3) 0.9918(3)
H2_8 H 0.3772 0.7696 0.9671
C4_8 C 0.3795(3) 0.6323(3) 0.9227(3)
C5_8 C 0.3683(3) 0.6547(3) 0.9581(3)
N2_8 N 0.3746(2) 0.6935(2) 0.9580(3)
H4_8 H 0.3854 0.7046 0.9381
C6_8 C 0.3630(3) 0.7165(3) 0.9920(3)
C8_8 C 0.4125(3) 0.6426(3) 0.9001(3)
H6_8 H 0.4274 0.6643 0.9069
C9_8 C 0.3190(3) 0.7245(3) 0.9926(3)
O8_18 O 0.3495(4) 0.5000 1.0000
O9_18 O 0.1512(4) 0.5000 1.0000
C13_8 C 0.4265(3) 0.7546(4) 0.9972(3)
O15_8 O 0.4872(2) 0.6463(3) 0.8622(2)
C15_8 C 0.4918(3) 0.6172(3) 0.7432(3)
H11_8 H 0.4671 0.6228 0.7304
H12_8 H 0.5125 0.6284 0.7274
C16_8 C 0.4227(3) 0.6205(3) 0.8677(3)
C17_8 C 0.4581(3) 0.6317(3) 0.8453(3)
N3_8 N 0.4580(3) 0.6254(2) 0.8065(2)
H13_8 H 0.4381 0.6146 0.7954
C18_8 C 0.4920(3) 0.6370(3) 0.7835(3)
H14_8 H 0.5159 0.6296 0.7976
C19_8 C 0.4001(3) 0.5875(3) 0.8574(3)
H15_8 H 0.4069 0.5726 0.8357
C20_8 C 0.4926(3) 0.6810(3) 0.7755(3)
C21_8 C 0.4972(3) 0.5735(3) 0.7454(4)
O17_8 O 0.4911(2) 0.5560(2) 0.7136(2)
O19_8 O 0.5075(2) 0.5580(2) 0.7770(2)
O20_8 O 0.3622(2) 0.5128(2) 0.8537(3)
C22_8 C 0.2432(3) 0.5082(3) 0.8828(3)
H16_8 H 0.2304 0.5329 0.8772
H17_8 H 0.2274 0.4875 0.8716
C23_8 C 0.3677(3) 0.5773(3) 0.8795(3)
C24_8 C 0.3453(3) 0.5419(3) 0.8683(3)
N4_8 N 0.3065(2) 0.5420(3) 0.8746(2)
H18_8 H 0.2954 0.5619 0.8854
C25_8 C 0.2835(3) 0.5080(3) 0.8630(3)
H19_8 H 0.2976 0.4841 0.8704
C26_8 C 0.3574(3) 0.5999(3) 0.9125(3)
H20_8 H 0.3357 0.5931 0.9274
C27_8 C 0.2755(3) 0.5074(3) 0.8190(3)
C28_8 C 0.2454(4) 0.5028(3) 0.9265(3)
O22_8 O 0.2136(2) 0.5089(2) 0.9440(2)
O24_8 O 0.2770(2) 0.4925(2) 0.9420(2)
H33_8 H 0.3716 0.2274 0.9875
H35_8 H 0.3704 0.2976 0.9841
O44_8 O 0.4420(2) 0.2770(2) 0.9925(2)
O65_18 O 0.5000 0.3495(4) 1.0000
O66_18 O 0.5000 0.1512(4) 1.0000
O67_18 O 0.5000 0.5000 0.8495(4)
O68_18 O 0.5000 0.5000 0.6512(4)
loop_
_geom_bond_atom_site_label_1
_geom_bond_atom_site_label_2
_geom_bond_site_symmetry_1
_geom_bond_site_symmetry_2
Cu2 O9 1_555 1_555
O8 Cu4 1_555 1_555
O35 C47 1_555 1_555
C43 H31 1_555 1_555
C44 H32 1_555 1_555
N7 C54 1_555 1_555
O37 Cu4 1_555 1_555
C45 C43 1_555 1_555
C46 C47 1_555 1_555
C47 N8 1_555 1_555
N8 H34 1_555 1_555
C48 C44 1_555 1_555
C49 C53 1_555 1_555
C50 C46 1_555 1_555
H36 C50 1_555 1_555
C51 C48 1_555 1_555
O39 C54 1_555 1_555
C52 O40 1_555 1_555
C53 O37 1_555 1_555
C54 C45 1_555 1_555
O40 Cu13 1_555 1_555
C55 C44 1_555 1_555
O41 C55 1_555 1_555
O42 C51 1_555 1_555
C56 N7 1_555 1_555
H37 N7 1_555 1_555
H38 C49 1_555 1_555
O45 C59 1_555 1_555
C57 H41 1_555 1_555
C58 C50 1_555 1_555
C59 C58 1_555 1_555
N9 C59 1_555 1_555
H43 N9 1_555 1_555
C60 C57 1_555 1_555
C61 C58 1_555 1_555
H45 C61 1_555 1_555
C62 C60 1_555 1_555
C63 C57 1_555 1_555
O47 C63 1_555 1_555
O48 C62 1_555 1_555
O50 C66 1_555 1_555
C64 H46 1_555 1_555
C65 C61 1_555 1_555
C66 C65 1_555 1_555
N10 C66 1_555 1_555
H48 N10 1_555 1_555
C67 C64 1_555 1_555
C68 C46 1_555 1_555
H50 C68 1_555 1_555
C69 C67 1_555 1_555
C70 C64 1_555 1_555
O52 Cu2 1_555 1_555
O53 C69 1_555 1_555
C71 C45 1_555 1_555
H51 C71 1_555 1_555
N11 C76 1_555 1_555
O55 C75 1_555 1_555
C72 C71 1_555 1_555
C73 C75 1_555 1_555
O57 C76 1_555 1_555
C74 O58 1_555 1_555
C76 C72 1_555 1_555
O58 Cu14 1_555 1_555
C77 N11 1_555 1_555
H52 N11 1_555 1_555
H53 C73 1_555 1_555
C78 C72 1_555 1_555
H56 C78 1_555 1_555
N12 C83 1_555 1_555
O60 C82 1_555 1_555
C79 C43 1_555 1_555
O61 C81 1_555 1_555
C80 C82 1_555 1_555
O62 C83 1_555 1_555
C81 O63 1_555 1_555
C82 O64 1_555 1_555
C83 C79 1_555 1_555
O63 Cu16 1_555 1_555
O64 Cu23 1_555 1_555
C84 N12 1_555 1_555
H57 N12 1_555 1_555
H58 C80 1_555 1_555
H59 C80 1_555 1_555
H60 C84 1_555 1_555
Cu5 O41 1_555 1_555
O65 Cu6 1_555 1_555
O66 Cu5 1_555 1_555
Cu7 O47 1_555 1_555
O67 Cu8 1_555 1_555
O68 Cu7 1_555 1_555
Cu13 O42 1_555 1_555
Cu14 O53 1_555 1_555
Cu15 O48 1_555 1_555
Cu27 O61 1_555 1_555
Cu32 O55 1_555 1_555
Cu34 O60 1_555 1_555
O78 Cu8 1_555 1_555
O79 Cu6 1_555 1_555
N8 C48 1_555 1_555
C49 C56 1_555 1_555
C52 C56 1_555 1_555
N9 C60 1_555 1_555
C65 C68 1_555 1_555
N10 C67 1_555 1_555
C70 O52 1_555 1_555
C73 C77 1_555 1_555
C74 C77 1_555 1_555
C78 C79 1_555 1_555
C80 C84 1_555 1_555
C81 C84 1_555 1_555
O65 H61 1_555 1_555
O67 H71 1_555 1_555
O8 H84 1_555 1_555
Cu2_2 O9_2 1_555 1_555
O8_2 Cu4_2 1_555 1_555
O24 Cu4_2 1_555 1_555
O29 Cu20 1_555 1_555
O43 Cu2_2 1_555 1_555
Cu6_2 O44 1_555 1_555
O65_2 Cu6_2 1_555 1_555
O66_2 Cu5_2 1_555 1_555
Cu12 O21 1_555 1_555
O72 Cu12 1_555 1_555
Cu24 O36 1_555 1_555
O74 Cu12 1_555 1_555
O81 Cu12 1_555 1_555
O93 Cu5_2 1_555 1_555
O26 Cu12 1_555 1_555
O38 Cu24 1_555 1_555
O66_2 H67 1_555 1_555
O9_2 H82 1_555 1_555
Cu2_3 O9_3 1_555 1_555
Cu3 O2 1_555 1_555
O4 Cu3 1_555 1_555
O6 Cu3 1_555 1_555
O8_3 Cu4_3 1_555 1_555
O13 Cu2_3 1_555 1_555
O54 Cu4_3 1_555 1_555
O59 Cu21_2 1_555 1_555
O67_2 Cu8_2 1_555 1_555
O68_2 Cu7_2 1_555 1_555
Cu25 O51 1_555 1_555
Cu29 O14 1_555 1_555
O75 Cu3 1_555 1_555
O83 Cu3 1_555 1_555
O95 Cu7_2 1_555 1_555
O98 Cu8_2 1_555 1_555
O56 Cu25 1_555 1_555
O67_2 H72 1_555 1_555
O8_3 H83 1_555 1_555
Cu1 O3 1_555 1_555
Cu2_4 O9_4 1_555 1_555
Cu4_4 O5 1_555 1_555
O1 C5 1_555 1_555
C1 H1 1_555 1_555
C2 H2 1_555 1_555
N1 C12 1_555 1_555
O5 C11 1_555 1_555
C3 C1 1_555 1_555
C4 C5 1_555 1_555
C5 N2 1_555 1_555
N2 H4 1_555 1_555
C6 C2 1_555 1_555
C7 C11 1_555 1_555
C8 C4 1_555 1_555
H6 C8 1_555 1_555
C9 C6 1_555 1_555
O7 C12 1_555 1_555
O8_4 Cu4_4 1_555 1_555
C12 C3 1_555 1_555
O10 Cu1 1_555 1_555
C13 C2 1_555 1_555
O11 C13 1_555 1_555
O12 Cu1 1_555 1_555
C14 N1 1_555 1_555
H7 N1 1_555 1_555
H8 C7 1_555 1_555
O15 C17 1_555 1_555
C15 H11 1_555 1_555
C16 C8 1_555 1_555
C17 C16 1_555 1_555
N3 C17 1_555 1_555
H13 N3 1_555 1_555
C18 C15 1_555 1_555
C19 C16 1_555 1_555
H15 C19 1_555 1_555
C20 C18 1_555 1_555
C21 C15 1_555 1_555
O17 C21 1_555 1_555
O18 C20 1_555 1_555
O20 C24 1_555 1_555
C22 H16 1_555 1_555
C23 C19 1_555 1_555
C24 C23 1_555 1_555
N4 C24 1_555 1_555
H18 N4 1_555 1_555
C25 C22 1_555 1_555
C26 C4 1_555 1_555
H20 C26 1_555 1_555
C27 C25 1_555 1_555
C28 C22 1_555 1_555
O22 Cu2_4 1_555 1_555
O23 C27 1_555 1_555
C29 C3 1_555 1_555
H21 C29 1_555 1_555
N5 C34 1_555 1_555
O25 C33 1_555 1_555
C30 C29 1_555 1_555
C31 C33 1_555 1_555
O27 C34 1_555 1_555
C32 O28 1_555 1_555
C34 C30 1_555 1_555
O28 Cu11 1_555 1_555
C35 N5 1_555 1_555
H22 N5 1_555 1_555
H23 C31 1_555 1_555
C36 C30 1_555 1_555
H26 C36 1_555 1_555
N6 C41 1_555 1_555
O30 C40 1_555 1_555
C37 C1 1_555 1_555
O31 C39 1_555 1_555
C38 C40 1_555 1_555
O32 C41 1_555 1_555
C39 O33 1_555 1_555
C40 O34 1_555 1_555
C41 C37 1_555 1_555
O33 Cu17 1_555 1_555
O34 Cu22_2 1_555 1_555
C42 N6 1_555 1_555
H27 N6 1_555 1_555
H28 C38 1_555 1_555
H29 C38 1_555 1_555
H30 C42 1_555 1_555
Cu9 O18 1_555 1_555
O69 Cu9 1_555 1_555
Cu11 O23 1_555 1_555
O71 Cu11 1_555 1_555
Cu18_2 O11 1_555 1_555
Cu19_2 O17 1_555 1_555
Cu28 O31 1_555 1_555
Cu31_2 O25 1_555 1_555
Cu33_2 O30 1_555 1_555
O84 Cu9 1_555 1_555
O85 Cu11 1_555 1_555
O86 Cu9 1_555 1_555
O87 Cu1 1_555 1_555
O90 Cu9 1_555 1_555
O91 Cu11 1_555 1_555
O92 Cu1 1_555 1_555
N2 C6 1_555 1_555
C7 C14 1_555 1_555
C9 O12 1_555 1_555
C10 O10 1_555 1_555
C10 C14 1_555 1_555
N3 C18 1_555 1_555
C23 C26 1_555 1_555
N4 C25 1_555 1_555
C28 O22 1_555 1_555
C31 C35 1_555 1_555
C32 C35 1_555 1_555
C36 C37 1_555 1_555
C38 C42 1_555 1_555
C39 C42 1_555 1_555
O9_4 H81 1_555 1_555
O65_3 Cu6_3 1_555 1_555
O66_3 Cu5_3 1_555 1_555
Cu8_3 O49 1_555 1_555
O67_3 Cu8_3 1_555 1_555
O68_3 Cu7_3 1_555 1_555
Cu26 O46 1_555 1_555
O94 Cu7_3 1_555 1_555
O96 Cu5_3 1_555 1_555
O97 Cu6_3 1_555 1_555
O65_3 H62 1_555 1_555
O68_3 H63 1_555 1_555
O65_4 Cu6_4 1_555 1_555
O66_4 Cu5_4 1_555 1_555
O76 Cu6_4 1_555 1_555
O88 Cu5_4 1_555 1_555
O66_4 H68 1_555 1_555
O67_4 Cu8_4 1_555 1_555
O68_4 Cu7_4 1_555 1_555
O77 Cu8_4 1_555 1_555
O89 Cu7_4 1_555 1_555
O68_4 H64 1_555 1_555
Cu10 O16 1_555 1_555
O70 Cu10 1_555 1_555
Cu30_4 O19 1_555 1_555
O73 Cu10 1_555 1_555
O80 Cu10 1_555 1_555
O82 Cu10 1_555 1_555
O68 H64_2 1_555 1_555
Cu10_2 O16_2 1_555 1_555
O70_2 Cu10_2 1_555 1_555
Cu30 O19_2 1_555 1_555
O73_2 Cu10_2 1_555 1_555
O80_2 Cu10_2 1_555 1_555
O82_2 Cu10_2 1_555 1_555
O65_5 Cu29 1_555 1_555
O66_5 Cu18 1_555 1_555
Cu26_2 O46_2 1_555 1_555
O96_2 Cu18 1_555 1_555
O65_5 H62_2 1_555 1_555
O68_2 H63_2 1_555 1_555
O65_6 Cu29_2 1_555 1_555
O66_6 Cu18_2 1_555 1_555
O76_2 Cu29_2 1_555 1_555
O66_6 H68_2 1_555 1_555
Cu2_5 O9_5 1_555 1_555
Cu3_2 O2_2 1_555 1_555
O4_2 Cu3_2 1_555 1_555
O6_2 Cu3_2 1_555 1_555
O8_5 Cu4_5 1_555 1_555
O13_2 Cu2_5 1_555 1_555
O54_2 Cu4_5 1_555 1_555
O59_2 Cu21 1_555 1_555
Cu25_2 O51_2 1_555 1_555
O75_2 Cu3_2 1_555 1_555
O83_2 Cu3_2 1_555 1_555
O56_2 Cu25_2 1_555 1_555
O67_3 H72_2 1_555 1_555
O8_5 H83_2 1_555 1_555
Cu1_2 O3_2 1_555 1_555
Cu2_6 O9_6 1_555 1_555
Cu4_6 O5_2 1_555 1_555
O1_2 C5_2 1_555 1_555
C1_2 H1_2 1_555 1_555
C2_2 H2_2 1_555 1_555
N1_2 C12_2 1_555 1_555
O5_2 C11_2 1_555 1_555
C3_2 C1_2 1_555 1_555
C4_2 C5_2 1_555 1_555
C5_2 N2_2 1_555 1_555
N2_2 H4_2 1_555 1_555
C6_2 C2_2 1_555 1_555
C7_2 C11_2 1_555 1_555
C8_2 C4_2 1_555 1_555
H6_2 C8_2 1_555 1_555
C9_2 C6_2 1_555 1_555
O7_2 C12_2 1_555 1_555
O8_6 Cu4_6 1_555 1_555
C12_2 C3_2 1_555 1_555
O10_2 Cu1_2 1_555 1_555
C13_2 C2_2 1_555 1_555
O88 C13_2 1_555 1_555
O12_2 Cu1_2 1_555 1_555
C14_2 N1_2 1_555 1_555
H7_2 N1_2 1_555 1_555
H8_2 C7_2 1_555 1_555
O15_2 C17_2 1_555 1_555
C15_2 H11_2 1_555 1_555
C16_2 C8_2 1_555 1_555
C17_2 C16_2 1_555 1_555
N3_2 C17_2 1_555 1_555
H13_2 N3_2 1_555 1_555
C18_2 C15_2 1_555 1_555
C19_2 C16_2 1_555 1_555
H15_2 C19_2 1_555 1_555
C20_2 C18_2 1_555 1_555
C21_2 C15_2 1_555 1_555
O17_2 C21_2 1_555 1_555
O18_2 C20_2 1_555 1_555
O20_2 C24_2 1_555 1_555
C22_2 H16_2 1_555 1_555
C23_2 C19_2 1_555 1_555
C24_2 C23_2 1_555 1_555
N4_2 C24_2 1_555 1_555
H18_2 N4_2 1_555 1_555
C25_2 C22_2 1_555 1_555
C26_2 C4_2 1_555 1_555
H20_2 C26_2 1_555 1_555
C27_2 C25_2 1_555 1_555
C28_2 C22_2 1_555 1_555
O22_2 Cu2_6 1_555 1_555
O23_2 C27_2 1_555 1_555
C29_2 C3_2 1_555 1_555
H21_2 C29_2 1_555 1_555
N5_2 C34_2 1_555 1_555
O25_2 C33_2 1_555 1_555
C30_2 C29_2 1_555 1_555
C31_2 C33_2 1_555 1_555
O27_2 C34_2 1_555 1_555
C32_2 O28_2 1_555 1_555
C34_2 C30_2 1_555 1_555
O28_2 Cu11_2 1_555 1_555
C35_2 N5_2 1_555 1_555
H22_2 N5_2 1_555 1_555
H23_2 C31_2 1_555 1_555
C36_2 C30_2 1_555 1_555
H26_2 C36_2 1_555 1_555
N6_2 C41_2 1_555 1_555
O30_2 C40_2 1_555 1_555
C37_2 C1_2 1_555 1_555
O31_2 C39_2 1_555 1_555
C38_2 C40_2 1_555 1_555
O32_2 C41_2 1_555 1_555
C39_2 O33_2 1_555 1_555
C40_2 O34_2 1_555 1_555
C41_2 C37_2 1_555 1_555
O33_2 Cu17_2 1_555 1_555
O34_2 Cu23_2 1_555 1_555
C42_2 N6_2 1_555 1_555
H27_2 N6_2 1_555 1_555
H28_2 C38_2 1_555 1_555
H29_2 C38_2 1_555 1_555
H30_2 C42_2 1_555 1_555
Cu9_2 O18_2 1_555 1_555
O69_2 Cu9_2 1_555 1_555
Cu11_2 O23_2 1_555 1_555
O71_2 Cu11_2 1_555 1_555
Cu19_3 O17_2 1_555 1_555
Cu28_2 O31_2 1_555 1_555
Cu31 O25_2 1_555 1_555
Cu34_2 O30_2 1_555 1_555
O84_2 Cu9_2 1_555 1_555
O85_2 Cu11_2 1_555 1_555
O86_2 Cu9_2 1_555 1_555
O87_2 Cu1_2 1_555 1_555
O90_2 Cu9_2 1_555 1_555
O91_2 Cu11_2 1_555 1_555
O92_2 Cu1_2 1_555 1_555
N2_2 C6_2 1_555 1_555
C7_2 C14_2 1_555 1_555
C9_2 O12_2 1_555 1_555
C10_2 O10_2 1_555 1_555
C10_2 C14_2 1_555 1_555
N3_2 C18_2 1_555 1_555
C23_2 C26_2 1_555 1_555
N4_2 C25_2 1_555 1_555
C28_2 O22_2 1_555 1_555
C31_2 C35_2 1_555 1_555
C32_2 C35_2 1_555 1_555
C36_2 C37_2 1_555 1_555
C38_2 C42_2 1_555 1_555
C39_2 C42_2 1_555 1_555
O9_6 H81_2 1_555 1_555
Cu2_7 O9_7 1_555 1_555
O8_7 Cu4_7 1_555 1_555
O35_2 C47_2 1_555 1_555
C43_2 H31_2 1_555 1_555
C44_2 H32_2 1_555 1_555
N7_2 C54_2 1_555 1_555
O37_2 Cu4_7 1_555 1_555
C45_2 C43_2 1_555 1_555
C46_2 C47_2 1_555 1_555
C47_2 N8_2 1_555 1_555
N8_2 H34_2 1_555 1_555
C48_2 C44_2 1_555 1_555
C49_2 C53_2 1_555 1_555
C50_2 C46_2 1_555 1_555
H36_2 C50_2 1_555 1_555
C51_2 C48_2 1_555 1_555
O39_2 C54_2 1_555 1_555
C52_2 O40_2 1_555 1_555
C53_2 O37_2 1_555 1_555
C54_2 C45_2 1_555 1_555
O40_2 Cu13_2 1_555 1_555
C55_2 C44_2 1_555 1_555
O41_2 C55_2 1_555 1_555
O42_2 C51_2 1_555 1_555
C56_2 N7_2 1_555 1_555
H37_2 N7_2 1_555 1_555
H38_2 C49_2 1_555 1_555
O45_2 C59_2 1_555 1_555
C57_2 H41_2 1_555 1_555
C58_2 C50_2 1_555 1_555
C59_2 C58_2 1_555 1_555
N9_2 C59_2 1_555 1_555
H43_2 N9_2 1_555 1_555
C60_2 C57_2 1_555 1_555
C61_2 C58_2 1_555 1_555
H45_2 C61_2 1_555 1_555
C62_2 C60_2 1_555 1_555
C63_2 C57_2 1_555 1_555
O89 C63_2 1_555 1_555
O48_2 C62_2 1_555 1_555
O50_2 C66_2 1_555 1_555
C64_2 H46_2 1_555 1_555
C65_2 C61_2 1_555 1_555
C66_2 C65_2 1_555 1_555
N10_2 C66_2 1_555 1_555
H48_2 N10_2 1_555 1_555
C67_2 C64_2 1_555 1_555
C68_2 C46_2 1_555 1_555
H50_2 C68_2 1_555 1_555
C69_2 C67_2 1_555 1_555
C70_2 C64_2 1_555 1_555
O52_2 Cu2_7 1_555 1_555
O53_2 C69_2 1_555 1_555
C71_2 C45_2 1_555 1_555
H51_2 C71_2 1_555 1_555
N11_2 C76_2 1_555 1_555
O55_2 C75_2 1_555 1_555
C72_2 C71_2 1_555 1_555
C73_2 C75_2 1_555 1_555
O57_2 C76_2 1_555 1_555
C74_2 O58_2 1_555 1_555
C76_2 C72_2 1_555 1_555
O58_2 Cu14_2 1_555 1_555
C77_2 N11_2 1_555 1_555
H52_2 N11_2 1_555 1_555
H53_2 C73_2 1_555 1_555
C78_2 C72_2 1_555 1_555
H56_2 C78_2 1_555 1_555
N12_2 C83_2 1_555 1_555
O60_2 C82_2 1_555 1_555
C79_2 C43_2 1_555 1_555
O61_2 C81_2 1_555 1_555
C80_2 C82_2 1_555 1_555
O62_2 C83_2 1_555 1_555
C81_2 O63_2 1_555 1_555
C82_2 O64_2 1_555 1_555
C83_2 C79_2 1_555 1_555
O63_2 Cu16_2 1_555 1_555
O64_2 Cu22 1_555 1_555
C84_2 N12_2 1_555 1_555
H57_2 N12_2 1_555 1_555
H58_2 C80_2 1_555 1_555
H59_2 C80_2 1_555 1_555
H60_2 C84_2 1_555 1_555
Cu18_3 O41_2 1_555 1_555
O65_7 Cu29_3 1_555 1_555
O66_7 Cu18_3 1_555 1_555
Cu13_2 O42_2 1_555 1_555
Cu14_2 O53_2 1_555 1_555
Cu15_2 O48_2 1_555 1_555
Cu27_2 O61_2 1_555 1_555
Cu32_2 O55_2 1_555 1_555
Cu33 O60_2 1_555 1_555
O79_2 Cu29_3 1_555 1_555
N8_2 C48_2 1_555 1_555
C49_2 C56_2 1_555 1_555
C52_2 C56_2 1_555 1_555
N9_2 C60_2 1_555 1_555
C65_2 C68_2 1_555 1_555
N10_2 C67_2 1_555 1_555
C70_2 O52_2 1_555 1_555
C73_2 C77_2 1_555 1_555
C74_2 C77_2 1_555 1_555
C78_2 C79_2 1_555 1_555
C80_2 C84_2 1_555 1_555
C81_2 C84_2 1_555 1_555
O65_7 H61_2 1_555 1_555
O67_4 H71_2 1_555 1_555
O8_7 H84_2 1_555 1_555
Cu2_8 O9_8 1_555 1_555
O8_8 Cu4_8 1_555 1_555
O24_2 Cu4_8 1_555 1_555
O29_2 Cu20_2 1_555 1_555
O43_2 Cu2_8 1_555 1_555
Cu29_4 O44_2 1_555 1_555
O65_8 Cu29_4 1_555 1_555
O66_8 Cu18_4 1_555 1_555
Cu12_2 O21_2 1_555 1_555
O72_2 Cu12_2 1_555 1_555
Cu24_2 O36_2 1_555 1_555
O74_2 Cu12_2 1_555 1_555
O81_2 Cu12_2 1_555 1_555
O93_2 Cu18_4 1_555 1_555
O26_2 Cu12_2 1_555 1_555
O38_2 Cu24_2 1_555 1_555
O66_8 H67_2 1_555 1_555
O9_8 H82_2 1_555 1_555
Cu13 O3_3 1_555 1_555
O69_3 Cu15 1_555 1_555
O71_3 Cu14 1_555 1_555
O84_3 Cu15 1_555 1_555
O85_3 Cu14 1_555 1_555
O86_3 Cu15 1_555 1_555
O87_3 Cu13 1_555 1_555
O90_3 Cu15 1_555 1_555
O91_3 Cu14 1_555 1_555
O92_3 Cu13 1_555 1_555
O9 H81_3 1_555 1_555
O4_3 Cu24 1_555 1_555
O67_5 Cu30 1_555 1_555
O68_5 Cu19 1_555 1_555
O75_3 Cu24 1_555 1_555
O83_3 Cu24 1_555 1_555
O95_2 Cu19 1_555 1_555
O67_5 H72_3 1_555 1_555
O8_2 H83_3 1_555 1_555
O72_3 Cu25 1_555 1_555
O74_3 Cu25 1_555 1_555
O81_3 Cu25 1_555 1_555
O66_5 H67_3 1_555 1_555
O9_3 H82_3 1_555 1_555
O67_6 Cu30_2 1_555 1_555
O68_6 Cu19_2 1_555 1_555
O78_2 Cu30_2 1_555 1_555
O65_6 H61_3 1_555 1_555
O67_6 H71_3 1_555 1_555
O8_4 H84_3 1_555 1_555
O70_3 Cu26 1_555 1_555
O73_3 Cu26 1_555 1_555
O80_3 Cu26 1_555 1_555
O82_3 Cu26 1_555 1_555
O67_7 Cu30_3 1_555 1_555
O68_7 Cu19_3 1_555 1_555
O77_2 Cu30_3 1_555 1_555
O68_7 H64_3 1_555 1_555
O66_7 H68_3 1_555 1_555
O67_8 Cu30_4 1_555 1_555
O68_8 Cu19_4 1_555 1_555
O94_2 Cu19_4 1_555 1_555
O65_8 H62_3 1_555 1_555
O68_8 H63_3 1_555 1_555
O66 H68_4 1_555 1_555
O65_2 H62_4 1_555 1_555
O68_5 H63_4 1_555 1_555
O70_4 Cu26_2 1_555 1_555
O73_4 Cu26_2 1_555 1_555
O80_4 Cu26_2 1_555 1_555
O82_4 Cu26_2 1_555 1_555
O68_6 H64_4 1_555 1_555
O72_4 Cu25_2 1_555 1_555
O74_4 Cu25_2 1_555 1_555
O81_4 Cu25_2 1_555 1_555
O66_3 H67_4 1_555 1_555
O9_5 H82_4 1_555 1_555
O65_4 H61_4 1_555 1_555
O67_7 H71_4 1_555 1_555
O8_6 H84_4 1_555 1_555
Cu13_2 O3_4 1_555 1_555
O69_4 Cu15_2 1_555 1_555
O71_4 Cu14_2 1_555 1_555
O84_4 Cu15_2 1_555 1_555
O85_4 Cu14_2 1_555 1_555
O86_4 Cu15_2 1_555 1_555
O87_4 Cu13_2 1_555 1_555
O90_4 Cu15_2 1_555 1_555
O91_4 Cu14_2 1_555 1_555
O92_4 Cu13_2 1_555 1_555
O9_7 H81_4 1_555 1_555
O4_4 Cu24_2 1_555 1_555
O75_4 Cu24_2 1_555 1_555
O83_4 Cu24_2 1_555 1_555
O67_8 H72_4 1_555 1_555
O8_8 H83_4 1_555 1_555
C43_3 H31_3 1_555 1_555
N7_3 C54_3 1_555 1_555
C45_3 C43_3 1_555 1_555
C49_3 C53_3 1_555 1_555
O39_3 C54_3 1_555 1_555
C52_3 O84_3 1_555 1_555
C53_3 O79 1_555 1_555
C54_3 C45_3 1_555 1_555
C56_3 N7_3 1_555 1_555
H37_3 N7_3 1_555 1_555
H38_3 C49_3 1_555 1_555
C71_3 C45_3 1_555 1_555
H51_3 C71_3 1_555 1_555
N11_3 C76_3 1_555 1_555
O55_3 C75_3 1_555 1_555
C72_3 C71_3 1_555 1_555
C73_3 C75_3 1_555 1_555
O57_3 C76_3 1_555 1_555
C74_3 O87_3 1_555 1_555
C76_3 C72_3 1_555 1_555
C77_3 N11_3 1_555 1_555
H52_3 N11_3 1_555 1_555
H53_3 C73_3 1_555 1_555
C78_3 C72_3 1_555 1_555
H56_3 C78_3 1_555 1_555
N12_3 C83_3 1_555 1_555
O60_3 C82_3 1_555 1_555
C79_3 C43_3 1_555 1_555
O61_3 C81_3 1_555 1_555
C80_3 C82_3 1_555 1_555
O62_3 C83_3 1_555 1_555
C81_3 O63_3 1_555 1_555
C82_3 O64_3 1_555 1_555
C83_3 C79_3 1_555 1_555
O63_3 Cu16_3 1_555 1_555
O64_3 Cu23_3 1_555 1_555
C84_3 N12_3 1_555 1_555
H57_3 N12_3 1_555 1_555
H58_3 C80_3 1_555 1_555
H59_3 C80_3 1_555 1_555
H60_3 C84_3 1_555 1_555
Cu27_3 O61_3 1_555 1_555
Cu32_3 O55_3 1_555 1_555
Cu34_3 O60_3 1_555 1_555
C49_3 C56_3 1_555 1_555
C52_3 C56_3 1_555 1_555
C73_3 C77_3 1_555 1_555
C74_3 C77_3 1_555 1_555
C78_3 C79_3 1_555 1_555
C80_3 C84_3 1_555 1_555
C81_3 C84_3 1_555 1_555
O8 H71_5 1_555 1_555
O65 H84_5 1_555 1_555
O59_3 Cu21_4 1_555 1_555
O8_2 H72_5 1_555 1_555
O65_2 H83_5 1_555 1_555
O9_3 H63_5 1_555 1_555
O9_4 H64_5 1_555 1_555
O29_3 Cu20_3 1_555 1_555
O66_3 H82_5 1_555 1_555
C1_3 H1_3 1_555 1_555
N1_3 C12_3 1_555 1_555
O76 C11_3 1_555 1_555
C3_3 C1_3 1_555 1_555
C7_3 C11_3 1_555 1_555
O7_3 C12_3 1_555 1_555
C12_3 C3_3 1_555 1_555
C14_3 N1_3 1_555 1_555
H7_3 N1_3 1_555 1_555
H8_3 C7_3 1_555 1_555
C29_3 C3_3 1_555 1_555
H21_3 C29_3 1_555 1_555
N5_3 C34_3 1_555 1_555
O25_3 C33_3 1_555 1_555
C30_3 C29_3 1_555 1_555
C31_3 C33_3 1_555 1_555
O27_3 C34_3 1_555 1_555
C32_3 O87_2 1_555 1_555
C34_3 C30_3 1_555 1_555
C35_3 N5_3 1_555 1_555
H22_3 N5_3 1_555 1_555
H23_3 C31_3 1_555 1_555
C36_3 C30_3 1_555 1_555
H26_3 C36_3 1_555 1_555
N6_3 C41_3 1_555 1_555
O30_3 C40_3 1_555 1_555
C37_3 C1_3 1_555 1_555
O31_3 C39_3 1_555 1_555
C38_3 C40_3 1_555 1_555
O32_3 C41_3 1_555 1_555
C39_3 O33_3 1_555 1_555
C40_3 O34_3 1_555 1_555
C41_3 C37_3 1_555 1_555
O33_3 Cu17_3 1_555 1_555
O34_3 Cu22_4 1_555 1_555
C42_3 N6_3 1_555 1_555
H27_3 N6_3 1_555 1_555
H28_3 C38_3 1_555 1_555
H29_3 C38_3 1_555 1_555
H30_3 C42_3 1_555 1_555
Cu28_3 O31_3 1_555 1_555
Cu31_4 O25_3 1_555 1_555
Cu33_4 O30_3 1_555 1_555
C7_3 C14_3 1_555 1_555
C10_3 O84_2 1_555 1_555
C10_3 C14_3 1_555 1_555
C31_3 C35_3 1_555 1_555
C32_3 C35_3 1_555 1_555
C36_3 C37_3 1_555 1_555
C38_3 C42_3 1_555 1_555
C39_3 C42_3 1_555 1_555
O66_4 H81_5 1_555 1_555
C43_4 H31_4 1_555 1_555
N7_4 C54_4 1_555 1_555
C45_4 C43_4 1_555 1_555
C49_4 C53_4 1_555 1_555
O39_4 C54_4 1_555 1_555
C52_4 O85_3 1_555 1_555
C53_4 O78 1_555 1_555
C54_4 C45_4 1_555 1_555
C56_4 N7_4 1_555 1_555
H37_4 N7_4 1_555 1_555
H38_4 C49_4 1_555 1_555
C71_4 C45_4 1_555 1_555
H51_4 C71_4 1_555 1_555
N11_4 C76_4 1_555 1_555
O55_4 C75_4 1_555 1_555
C72_4 C71_4 1_555 1_555
C73_4 C75_4 1_555 1_555
O57_4 C76_4 1_555 1_555
C74_4 O86_3 1_555 1_555
C76_4 C72_4 1_555 1_555
C77_4 N11_4 1_555 1_555
H52_4 N11_4 1_555 1_555
H53_4 C73_4 1_555 1_555
C78_4 C72_4 1_555 1_555
H56_4 C78_4 1_555 1_555
N12_4 C83_4 1_555 1_555
O60_4 C82_4 1_555 1_555
C79_4 C43_4 1_555 1_555
O61_4 C81_4 1_555 1_555
C80_4 C82_4 1_555 1_555
O62_4 C83_4 1_555 1_555
C81_4 O63_4 1_555 1_555
C82_4 O64_4 1_555 1_555
C83_4 C79_4 1_555 1_555
O63_4 Cu16_4 1_555 1_555
O64_4 Cu23_5 1_555 1_555
C84_4 N12_4 1_555 1_555
H57_4 N12_4 1_555 1_555
H58_4 C80_4 1_555 1_555
H59_4 C80_4 1_555 1_555
H60_4 C84_4 1_555 1_555
Cu27_4 O61_4 1_555 1_555
Cu32_5 O55_4 1_555 1_555
Cu34_5 O60_4 1_555 1_555
C49_4 C56_4 1_555 1_555
C52_4 C56_4 1_555 1_555
C73_4 C77_4 1_555 1_555
C74_4 C77_4 1_555 1_555
C78_4 C79_4 1_555 1_555
C80_4 C84_4 1_555 1_555
C81_4 C84_4 1_555 1_555
O67 H84_6 1_555 1_555
O29_4 Cu20_5 1_555 1_555
O68_2 H82_6 1_555 1_555
O59_4 Cu21_6 1_555 1_555
O67_3 H83_6 1_555 1_555
C1_4 H1_4 1_555 1_555
N1_4 C12_4 1_555 1_555
O77 C11_4 1_555 1_555
C3_4 C1_4 1_555 1_555
C7_4 C11_4 1_555 1_555
O7_4 C12_4 1_555 1_555
C12_4 C3_4 1_555 1_555
C14_4 N1_4 1_555 1_555
H7_4 N1_4 1_555 1_555
H8_4 C7_4 1_555 1_555
C29_4 C3_4 1_555 1_555
H21_4 C29_4 1_555 1_555
N5_4 C34_4 1_555 1_555
O25_4 C33_4 1_555 1_555
C30_4 C29_4 1_555 1_555
C31_4 C33_4 1_555 1_555
O27_4 C34_4 1_555 1_555
C32_4 O86_4 1_555 1_555
C34_4 C30_4 1_555 1_555
C35_4 N5_4 1_555 1_555
H22_4 N5_4 1_555 1_555
H23_4 C31_4 1_555 1_555
C36_4 C30_4 1_555 1_555
H26_4 C36_4 1_555 1_555
N6_4 C41_4 1_555 1_555
O30_4 C40_4 1_555 1_555
C37_4 C1_4 1_555 1_555
O31_4 C39_4 1_555 1_555
C38_4 C40_4 1_555 1_555
O32_4 C41_4 1_555 1_555
C39_4 O33_4 1_555 1_555
C40_4 O34_4 1_555 1_555
C41_4 C37_4 1_555 1_555
O33_4 Cu17_4 1_555 1_555
O34_4 Cu22_6 1_555 1_555
C42_4 N6_4 1_555 1_555
H27_4 N6_4 1_555 1_555
H28_4 C38_4 1_555 1_555
H29_4 C38_4 1_555 1_555
H30_4 C42_4 1_555 1_555
Cu28_4 O31_4 1_555 1_555
Cu31_6 O25_4 1_555 1_555
Cu33_6 O30_4 1_555 1_555
C7_4 C14_4 1_555 1_555
C10_4 O85_4 1_555 1_555
C10_4 C14_4 1_555 1_555
C31_4 C35_4 1_555 1_555
C32_4 C35_4 1_555 1_555
C36_4 C37_4 1_555 1_555
C38_4 C42_4 1_555 1_555
C39_4 C42_4 1_555 1_555
O68_4 H81_6 1_555 1_555
O29_5 Cu21_3 1_555 1_555
O66_5 H82_7 1_555 1_555
C1_5 H1_5 1_555 1_555
N1_5 C12_5 1_555 1_555
O76_2 C11_5 1_555 1_555
C3_5 C1_5 1_555 1_555
C7_5 C11_5 1_555 1_555
O7_5 C12_5 1_555 1_555
C12_5 C3_5 1_555 1_555
C14_5 N1_5 1_555 1_555
H7_5 N1_5 1_555 1_555
H8_5 C7_5 1_555 1_555
C29_5 C3_5 1_555 1_555
H21_5 C29_5 1_555 1_555
N5_5 C34_5 1_555 1_555
O25_5 C33_5 1_555 1_555
C30_5 C29_5 1_555 1_555
C31_5 C33_5 1_555 1_555
O27_5 C34_5 1_555 1_555
C32_5 O87 1_555 1_555
C34_5 C30_5 1_555 1_555
C35_5 N5_5 1_555 1_555
H22_5 N5_5 1_555 1_555
H23_5 C31_5 1_555 1_555
C36_5 C30_5 1_555 1_555
H26_5 C36_5 1_555 1_555
N6_5 C41_5 1_555 1_555
O30_5 C40_5 1_555 1_555
C37_5 C1_5 1_555 1_555
O31_5 C39_5 1_555 1_555
C38_5 C40_5 1_555 1_555
O32_5 C41_5 1_555 1_555
C39_5 O33_5 1_555 1_555
C40_5 O34_5 1_555 1_555
C41_5 C37_5 1_555 1_555
O33_5 Cu17_5 1_555 1_555
O34_5 Cu22_3 1_555 1_555
C42_5 N6_5 1_555 1_555
H27_5 N6_5 1_555 1_555
H28_5 C38_5 1_555 1_555
H29_5 C38_5 1_555 1_555
H30_5 C42_5 1_555 1_555
Cu28_5 O31_5 1_555 1_555
Cu32_4 O25_5 1_555 1_555
Cu33_3 O30_5 1_555 1_555
C7_5 C14_5 1_555 1_555
C10_5 O84 1_555 1_555
C10_5 C14_5 1_555 1_555
C31_5 C35_5 1_555 1_555
C32_5 C35_5 1_555 1_555
C36_5 C37_5 1_555 1_555
C38_5 C42_5 1_555 1_555
C39_5 C42_5 1_555 1_555
O66_6 H81_7 1_555 1_555
O9_5 H63_6 1_555 1_555
O9_6 H64_6 1_555 1_555
C43_5 H31_5 1_555 1_555
N7_5 C54_5 1_555 1_555
C45_5 C43_5 1_555 1_555
C49_5 C53_5 1_555 1_555
O39_5 C54_5 1_555 1_555
C52_5 O84_4 1_555 1_555
C53_5 O79_2 1_555 1_555
C54_5 C45_5 1_555 1_555
C56_5 N7_5 1_555 1_555
H37_5 N7_5 1_555 1_555
H38_5 C49_5 1_555 1_555
C71_5 C45_5 1_555 1_555
H51_5 C71_5 1_555 1_555
N11_5 C76_5 1_555 1_555
O55_5 C75_5 1_555 1_555
C72_5 C71_5 1_555 1_555
C73_5 C75_5 1_555 1_555
O57_5 C76_5 1_555 1_555
C74_5 O87_4 1_555 1_555
C76_5 C72_5 1_555 1_555
C77_5 N11_5 1_555 1_555
H52_5 N11_5 1_555 1_555
H53_5 C73_5 1_555 1_555
C78_5 C72_5 1_555 1_555
H56_5 C78_5 1_555 1_555
N12_5 C83_5 1_555 1_555
O60_5 C82_5 1_555 1_555
C79_5 C43_5 1_555 1_555
O61_5 C81_5 1_555 1_555
C80_5 C82_5 1_555 1_555
O62_5 C83_5 1_555 1_555
C81_5 O63_5 1_555 1_555
C82_5 O64_5 1_555 1_555
C83_5 C79_5 1_555 1_555
O63_5 Cu16_5 1_555 1_555
O64_5 Cu23_4 1_555 1_555
C84_5 N12_5 1_555 1_555
H57_5 N12_5 1_555 1_555
H58_5 C80_5 1_555 1_555
H59_5 C80_5 1_555 1_555
H60_5 C84_5 1_555 1_555
Cu27_5 O61_5 1_555 1_555
Cu31_3 O55_5 1_555 1_555
Cu34_4 O60_5 1_555 1_555
C49_5 C56_5 1_555 1_555
C52_5 C56_5 1_555 1_555
C73_5 C77_5 1_555 1_555
C74_5 C77_5 1_555 1_555
C78_5 C79_5 1_555 1_555
C80_5 C84_5 1_555 1_555
C81_5 C84_5 1_555 1_555
O8_7 H71_6 1_555 1_555
O65_7 H84_7 1_555 1_555
O59_5 Cu20_4 1_555 1_555
O8_8 H72_6 1_555 1_555
O65_8 H83_7 1_555 1_555
O59_6 Cu21_5 1_555 1_555
O67_5 H83_8 1_555 1_555
C1_6 H1_6 1_555 1_555
N1_6 C12_6 1_555 1_555
O78_2 C11_6 1_555 1_555
C3_6 C1_6 1_555 1_555
C7_6 C11_6 1_555 1_555
O7_6 C12_6 1_555 1_555
C12_6 C3_6 1_555 1_555
C14_6 N1_6 1_555 1_555
H7_6 N1_6 1_555 1_555
H8_6 C7_6 1_555 1_555
C29_6 C3_6 1_555 1_555
H21_6 C29_6 1_555 1_555
N5_6 C34_6 1_555 1_555
O25_6 C33_6 1_555 1_555
C30_6 C29_6 1_555 1_555
C31_6 C33_6 1_555 1_555
O27_6 C34_6 1_555 1_555
C32_6 O86 1_555 1_555
C34_6 C30_6 1_555 1_555
C35_6 N5_6 1_555 1_555
H22_6 N5_6 1_555 1_555
H23_6 C31_6 1_555 1_555
C36_6 C30_6 1_555 1_555
H26_6 C36_6 1_555 1_555
N6_6 C41_6 1_555 1_555
O30_6 C40_6 1_555 1_555
C37_6 C1_6 1_555 1_555
O31_6 C39_6 1_555 1_555
C38_6 C40_6 1_555 1_555
O32_6 C41_6 1_555 1_555
C39_6 O33_6 1_555 1_555
C40_6 O34_6 1_555 1_555
C41_6 C37_6 1_555 1_555
O33_6 Cu17_6 1_555 1_555
O34_6 Cu23_6 1_555 1_555
C42_6 N6_6 1_555 1_555
H27_6 N6_6 1_555 1_555
H28_6 C38_6 1_555 1_555
H29_6 C38_6 1_555 1_555
H30_6 C42_6 1_555 1_555
Cu28_6 O31_6 1_555 1_555
Cu31_5 O25_6 1_555 1_555
Cu34_6 O30_6 1_555 1_555
C7_6 C14_6 1_555 1_555
C10_6 O85 1_555 1_555
C10_6 C14_6 1_555 1_555
C31_6 C35_6 1_555 1_555
C32_6 C35_6 1_555 1_555
C36_6 C37_6 1_555 1_555
C38_6 C42_6 1_555 1_555
C39_6 C42_6 1_555 1_555
O68_6 H81_8 1_555 1_555
O8_5 H62_5 1_555 1_555
C43_6 H31_6 1_555 1_555
N7_6 C54_6 1_555 1_555
C45_6 C43_6 1_555 1_555
C49_6 C53_6 1_555 1_555
O39_6 C54_6 1_555 1_555
C52_6 O85_2 1_555 1_555
C53_6 O77_2 1_555 1_555
C54_6 C45_6 1_555 1_555
C56_6 N7_6 1_555 1_555
H37_6 N7_6 1_555 1_555
H38_6 C49_6 1_555 1_555
C71_6 C45_6 1_555 1_555
H51_6 C71_6 1_555 1_555
N11_6 C76_6 1_555 1_555
O55_6 C75_6 1_555 1_555
C72_6 C71_6 1_555 1_555
C73_6 C75_6 1_555 1_555
O57_6 C76_6 1_555 1_555
C74_6 O86_2 1_555 1_555
C76_6 C72_6 1_555 1_555
C77_6 N11_6 1_555 1_555
H52_6 N11_6 1_555 1_555
H53_6 C73_6 1_555 1_555
C78_6 C72_6 1_555 1_555
H56_6 C78_6 1_555 1_555
N12_6 C83_6 1_555 1_555
O60_6 C82_6 1_555 1_555
C79_6 C43_6 1_555 1_555
O61_6 C81_6 1_555 1_555
C80_6 C82_6 1_555 1_555
O62_6 C83_6 1_555 1_555
C81_6 O63_6 1_555 1_555
C82_6 O64_6 1_555 1_555
C83_6 C79_6 1_555 1_555
O63_6 Cu16_6 1_555 1_555
O64_6 Cu22_5 1_555 1_555
C84_6 N12_6 1_555 1_555
H57_6 N12_6 1_555 1_555
H58_6 C80_6 1_555 1_555
H59_6 C80_6 1_555 1_555
H60_6 C84_6 1_555 1_555
Cu27_6 O61_6 1_555 1_555
Cu32_6 O55_6 1_555 1_555
Cu33_5 O60_6 1_555 1_555
C49_6 C56_6 1_555 1_555
C52_6 C56_6 1_555 1_555
C73_6 C77_6 1_555 1_555
C74_6 C77_6 1_555 1_555
C78_6 C79_6 1_555 1_555
C80_6 C84_6 1_555 1_555
C81_6 C84_6 1_555 1_555
O8_6 H61_5 1_555 1_555
O67_7 H84_8 1_555 1_555
O9_7 H68_5 1_555 1_555
O29_6 Cu20_6 1_555 1_555
O9_8 H67_5 1_555 1_555
O68_8 H82_8 1_555 1_555
O9 H64_7 1_555 1_555
O9_2 H63_7 1_555 1_555
O8_3 H72_7 1_555 1_555
O65_5 H83_9 1_555 1_555
O8_4 H71_7 1_555 1_555
O65_6 H84_9 1_555 1_555
O66_7 H81_9 1_555 1_555
O66_8 H82_9 1_555 1_555
O68 H81_10 1_555 1_555
O67_2 H83_10 1_555 1_555
O68_3 H82_10 1_555 1_555
O67_4 H84_10 1_555 1_555
O66 H81_11 1_555 1_555
O66_2 H82_11 1_555 1_555
O65_3 H83_11 1_555 1_555
O65_4 H84_11 1_555 1_555
O68_5 H82_12 1_555 1_555
O67_6 H84_12 1_555 1_555
O68_7 H81_12 1_555 1_555
O67_8 H83_12 1_555 1_555
Cu16_4 O3_5 1_555 1_555
Cu2_9 O9_9 1_555 1_555
Cu27_4 O2_3 1_555 1_555
Cu4_9 O5_3 1_555 1_555
O1_3 C5_3 1_555 1_555
O2_3 C9_3 1_555 1_555
C1_7 H1_7 1_555 1_555
C2_3 H2_3 1_555 1_555
H3_3 C2_3 1_555 1_555
O4_5 Cu27_4 1_555 1_555
N1_7 C12_7 1_555 1_555
O5_3 C11_7 1_555 1_555
C3_7 C1_7 1_555 1_555
C4_3 C5_3 1_555 1_555
O6_3 Cu27_4 1_555 1_555
C5_3 N2_3 1_555 1_555
N2_3 H4_3 1_555 1_555
C6_3 C2_3 1_555 1_555
H5_3 C6_3 1_555 1_555
C7_7 C11_7 1_555 1_555
C8_3 C4_3 1_555 1_555
H6_3 C8_3 1_555 1_555
C9_3 C6_3 1_555 1_555
O7_7 C12_7 1_555 1_555
O8_9 Cu4_9 1_555 1_555
C10_7 O6_3 1_555 1_555
C11_7 O13_3 1_555 1_555
C12_7 C3_7 1_555 1_555
O10_3 Cu16_4 1_555 1_555
C13_3 C2_3 1_555 1_555
O11_2 C13_3 1_555 1_555
O12_3 Cu16_4 1_555 1_555
O13_3 Cu2_9 1_555 1_555
C14_7 N1_7 1_555 1_555
O14_2 C13_3 1_555 1_555
H7_7 N1_7 1_555 1_555
H8_7 C7_7 1_555 1_555
H9_7 C7_7 1_555 1_555
H10_7 C14_7 1_555 1_555
O15_3 C17_3 1_555 1_555
C15_3 H11_3 1_555 1_555
C16_3 C8_3 1_555 1_555
C17_3 C16_3 1_555 1_555
N3_3 C17_3 1_555 1_555
H13_3 N3_3 1_555 1_555
C18_3 C15_3 1_555 1_555
C19_3 C16_3 1_555 1_555
H15_3 C19_3 1_555 1_555
C20_3 C18_3 1_555 1_555
C21_3 C15_3 1_555 1_555
O17_3 C21_3 1_555 1_555
O90_3 C20_3 1_555 1_555
O20_3 C24_3 1_555 1_555
O21_3 C27_3 1_555 1_555
C22_3 H16_3 1_555 1_555
H17_3 C22_3 1_555 1_555
C23_3 C19_3 1_555 1_555
C24_3 C23_3 1_555 1_555
N4_3 C24_3 1_555 1_555
H18_3 N4_3 1_555 1_555
C25_3 C22_3 1_555 1_555
H19_3 C25_3 1_555 1_555
C26_3 C4_3 1_555 1_555
H20_3 C26_3 1_555 1_555
C27_3 C25_3 1_555 1_555
C28_3 C22_3 1_555 1_555
O22_3 Cu2_9 1_555 1_555
O23_3 C27_3 1_555 1_555
O24_3 Cu4_9 1_555 1_555
C29_7 C3_7 1_555 1_555
H21_7 C29_7 1_555 1_555
N5_7 C34_7 1_555 1_555
O25_7 C33_7 1_555 1_555
C30_7 C29_7 1_555 1_555
O26_3 C32_7 1_555 1_555
C31_7 C33_7 1_555 1_555
O27_7 C34_7 1_555 1_555
C32_7 O28_3 1_555 1_555
C33_7 O29_7 1_555 1_555
C34_7 C30_7 1_555 1_555
O28_3 Cu16_3 1_555 1_555
O29_7 Cu20_7 1_555 1_555
C35_7 N5_7 1_555 1_555
H22_7 N5_7 1_555 1_555
H23_7 C31_7 1_555 1_555
H24_7 C31_7 1_555 1_555
H25_7 C35_7 1_555 1_555
C36_7 C30_7 1_555 1_555
H26_7 C36_7 1_555 1_555
N6_7 C41_7 1_555 1_555
O30_7 C40_7 1_555 1_555
C37_7 C1_7 1_555 1_555
O31_7 C39_7 1_555 1_555
C38_7 C40_7 1_555 1_555
O32_7 C41_7 1_555 1_555
C39_7 O33_7 1_555 1_555
C40_7 O34_7 1_555 1_555
C41_7 C37_7 1_555 1_555
O33_7 Cu16 1_555 1_555
O34_7 Cu22_7 1_555 1_555
C42_7 N6_7 1_555 1_555
H27_7 N6_7 1_555 1_555
H28_7 C38_7 1_555 1_555
H29_7 C38_7 1_555 1_555
H30_7 C42_7 1_555 1_555
O35_3 C47_3 1_555 1_555
O36_3 C51_3 1_555 1_555
C43_7 H31_7 1_555 1_555
C44_3 H32_3 1_555 1_555
H33_3 C44_3 1_555 1_555
N7_7 C54_7 1_555 1_555
O37_3 Cu4_9 1_555 1_555
C45_7 C43_7 1_555 1_555
C46_3 C47_3 1_555 1_555
O38_3 C52_7 1_555 1_555
C47_3 N8_3 1_555 1_555
N8_3 H34_3 1_555 1_555
C48_3 C44_3 1_555 1_555
H35_3 C48_3 1_555 1_555
C49_7 C53_7 1_555 1_555
C50_3 C46_3 1_555 1_555
H36_3 C50_3 1_555 1_555
C51_3 C48_3 1_555 1_555
O39_7 C54_7 1_555 1_555
C52_7 O40_3 1_555 1_555
C53_7 O37_3 1_555 1_555
C54_7 C45_7 1_555 1_555
O40_3 Cu17_6 1_555 1_555
C55_3 C44_3 1_555 1_555
O41_3 C55_3 1_555 1_555
O42_3 C51_3 1_555 1_555
O43_3 Cu2_9 1_555 1_555
C56_7 N7_7 1_555 1_555
O44_3 C55_3 1_555 1_555
H37_7 N7_7 1_555 1_555
H38_7 C49_7 1_555 1_555
H39_7 C49_7 1_555 1_555
H40_7 C56_7 1_555 1_555
O45_3 C59_3 1_555 1_555
C57_3 H41_3 1_555 1_555
C58_3 C50_3 1_555 1_555
C59_3 C58_3 1_555 1_555
N9_3 C59_3 1_555 1_555
H43_3 N9_3 1_555 1_555
C60_3 C57_3 1_555 1_555
C61_3 C58_3 1_555 1_555
H45_3 C61_3 1_555 1_555
C62_3 C60_3 1_555 1_555
C63_3 C57_3 1_555 1_555
O47_2 C63_3 1_555 1_555
O90 C62_3 1_555 1_555
O50_3 C66_3 1_555 1_555
O51_3 C69_3 1_555 1_555
C64_3 H46_3 1_555 1_555
H47_3 C64_3 1_555 1_555
C65_3 C61_3 1_555 1_555
C66_3 C65_3 1_555 1_555
N10_3 C66_3 1_555 1_555
H48_3 N10_3 1_555 1_555
C67_3 C64_3 1_555 1_555
H49_3 C67_3 1_555 1_555
C68_3 C46_3 1_555 1_555
H50_3 C68_3 1_555 1_555
C69_3 C67_3 1_555 1_555
C70_3 C64_3 1_555 1_555
O52_3 Cu2_9 1_555 1_555
O53_3 C69_3 1_555 1_555
O54_3 Cu4_9 1_555 1_555
C71_7 C45_7 1_555 1_555
H51_7 C71_7 1_555 1_555
N11_7 C76_7 1_555 1_555
O55_7 C75_7 1_555 1_555
C72_7 C71_7 1_555 1_555
O56_3 C74_7 1_555 1_555
C73_7 C75_7 1_555 1_555
O57_7 C76_7 1_555 1_555
C74_7 O58_3 1_555 1_555
C75_7 O59_7 1_555 1_555
C76_7 C72_7 1_555 1_555
O58_3 Cu17_5 1_555 1_555
O59_7 Cu21_7 1_555 1_555
C77_7 N11_7 1_555 1_555
H52_7 N11_7 1_555 1_555
H53_7 C73_7 1_555 1_555
H54_7 C73_7 1_555 1_555
H55_7 C77_7 1_555 1_555
C78_7 C72_7 1_555 1_555
H56_7 C78_7 1_555 1_555
N12_7 C83_7 1_555 1_555
O60_7 C82_7 1_555 1_555
C79_7 C43_7 1_555 1_555
O61_7 C81_7 1_555 1_555
C80_7 C82_7 1_555 1_555
O62_7 C83_7 1_555 1_555
C81_7 O63_7 1_555 1_555
C82_7 O64_7 1_555 1_555
C83_7 C79_7 1_555 1_555
O63_7 Cu17 1_555 1_555
O64_7 Cu23_7 1_555 1_555
C84_7 N12_7 1_555 1_555
H57_7 N12_7 1_555 1_555
H58_7 C80_7 1_555 1_555
H59_7 C80_7 1_555 1_555
H60_7 C84_7 1_555 1_555
Cu20_5 O41_3 1_555 1_555
Cu31_5 O44_3 1_555 1_555
O65_9 Cu31_5 1_555 1_555
O66_9 Cu20_5 1_555 1_555
Cu22_3 O47_2 1_555 1_555
O67_9 Cu33_3 1_555 1_555
O68_9 Cu22_3 1_555 1_555
Cu16_3 O23_3 1_555 1_555
Cu27_3 O21_3 1_555 1_555
O71_5 Cu16_3 1_555 1_555
O72_5 Cu27_3 1_555 1_555
Cu17_6 O42_3 1_555 1_555
Cu17_5 O53_3 1_555 1_555
Cu21_5 O11_2 1_555 1_555
Cu23_3 O17_3 1_555 1_555
Cu28_6 O36_3 1_555 1_555
Cu28_5 O51_3 1_555 1_555
Cu28 O61_7 1_555 1_555
Cu27 O31_7 1_555 1_555
Cu32_5 O14_2 1_555 1_555
Cu31_7 O25_7 1_555 1_555
Cu32_7 O55_7 1_555 1_555
Cu33_7 O30_7 1_555 1_555
Cu34_7 O60_7 1_555 1_555
O74_5 Cu27_3 1_555 1_555
O75_5 Cu27_4 1_555 1_555
O91_5 Cu16_3 1_555 1_555
O92_5 Cu16_4 1_555 1_555
O98_2 Cu33_3 1_555 1_555
N2_3 C6_3 1_555 1_555
C7_7 C14_7 1_555 1_555
C9_3 O12_3 1_555 1_555
C10_7 O10_3 1_555 1_555
C10_7 C14_7 1_555 1_555
N3_3 C18_3 1_555 1_555
C23_3 C26_3 1_555 1_555
N4_3 C25_3 1_555 1_555
C28_3 O22_3 1_555 1_555
C28_3 O24_3 1_555 1_555
O26_3 Cu27_3 1_555 1_555
C31_7 C35_7 1_555 1_555
C32_7 C35_7 1_555 1_555
C36_7 C37_7 1_555 1_555
C38_7 C42_7 1_555 1_555
C39_7 C42_7 1_555 1_555
O38_3 Cu28_6 1_555 1_555
N8_3 C48_3 1_555 1_555
C49_7 C56_7 1_555 1_555
C52_7 C56_7 1_555 1_555
C53_7 O43_3 1_555 1_555
N9_3 C60_3 1_555 1_555
C65_3 C68_3 1_555 1_555
N10_3 C67_3 1_555 1_555
C70_3 O52_3 1_555 1_555
C70_3 O54_3 1_555 1_555
O56_3 Cu28_5 1_555 1_555
C73_7 C77_7 1_555 1_555
C74_7 C77_7 1_555 1_555
C78_7 C79_7 1_555 1_555
C80_7 C84_7 1_555 1_555
C81_7 C84_7 1_555 1_555
O65_10 Cu31_6 1_555 1_555
O66_10 Cu20_6 1_555 1_555
Cu33_4 O49_2 1_555 1_555
O67_10 Cu33_4 1_555 1_555
O68_10 Cu22_4 1_555 1_555
Cu34_4 O19_3 1_555 1_555
O88_2 Cu20_6 1_555 1_555
O89_2 Cu22_4 1_555 1_555
O97_2 Cu31_6 1_555 1_555
O65_11 Cu32_5 1_555 1_555
O66_11 Cu21_5 1_555 1_555
Cu34_3 O19_4 1_555 1_555
Cu17_4 O3_6 1_555 1_555
Cu2_10 O9_10 1_555 1_555
Cu28_4 O2_4 1_555 1_555
Cu4_10 O5_4 1_555 1_555
O1_4 C5_4 1_555 1_555
O2_4 C9_4 1_555 1_555
C1_8 H1_8 1_555 1_555
C2_4 H2_4 1_555 1_555
H3_4 C2_4 1_555 1_555
O4_6 Cu28_4 1_555 1_555
N1_8 C12_8 1_555 1_555
O5_4 C11_8 1_555 1_555
C3_8 C1_8 1_555 1_555
C4_4 C5_4 1_555 1_555
O6_4 Cu28_4 1_555 1_555
C5_4 N2_4 1_555 1_555
N2_4 H4_4 1_555 1_555
C6_4 C2_4 1_555 1_555
H5_4 C6_4 1_555 1_555
C7_8 C11_8 1_555 1_555
C8_4 C4_4 1_555 1_555
H6_4 C8_4 1_555 1_555
C9_4 C6_4 1_555 1_555
O7_8 C12_8 1_555 1_555
O8_10 Cu4_10 1_555 1_555
C10_8 O6_4 1_555 1_555
C11_8 O13_4 1_555 1_555
C12_8 C3_8 1_555 1_555
O10_4 Cu17_4 1_555 1_555
C13_4 C2_4 1_555 1_555
O88_2 C13_4 1_555 1_555
O12_4 Cu17_4 1_555 1_555
O13_4 Cu2_10 1_555 1_555
C14_8 N1_8 1_555 1_555
O97_2 C13_4 1_555 1_555
H7_8 N1_8 1_555 1_555
H8_8 C7_8 1_555 1_555
H9_8 C7_8 1_555 1_555
H10_8 C14_8 1_555 1_555
O15_4 C17_4 1_555 1_555
C15_4 H11_4 1_555 1_555
C16_4 C8_4 1_555 1_555
C17_4 C16_4 1_555 1_555
N3_4 C17_4 1_555 1_555
H13_4 N3_4 1_555 1_555
C18_4 C15_4 1_555 1_555
C19_4 C16_4 1_555 1_555
H15_4 C19_4 1_555 1_555
C20_4 C18_4 1_555 1_555
C21_4 C15_4 1_555 1_555
O17_4 C21_4 1_555 1_555
O90_4 C20_4 1_555 1_555
O20_4 C24_4 1_555 1_555
O21_4 C27_4 1_555 1_555
C22_4 H16_4 1_555 1_555
H17_4 C22_4 1_555 1_555
C23_4 C19_4 1_555 1_555
C24_4 C23_4 1_555 1_555
N4_4 C24_4 1_555 1_555
H18_4 N4_4 1_555 1_555
C25_4 C22_4 1_555 1_555
H19_4 C25_4 1_555 1_555
C26_4 C4_4 1_555 1_555
H20_4 C26_4 1_555 1_555
C27_4 C25_4 1_555 1_555
C28_4 C22_4 1_555 1_555
O22_4 Cu2_10 1_555 1_555
O23_4 C27_4 1_555 1_555
O24_4 Cu4_10 1_555 1_555
C29_8 C3_8 1_555 1_555
H21_8 C29_8 1_555 1_555
N5_8 C34_8 1_555 1_555
O25_8 C33_8 1_555 1_555
C30_8 C29_8 1_555 1_555
O26_4 C32_8 1_555 1_555
C31_8 C33_8 1_555 1_555
O27_8 C34_8 1_555 1_555
C32_8 O28_4 1_555 1_555
C33_8 O29_8 1_555 1_555
C34_8 C30_8 1_555 1_555
O28_4 Cu16_5 1_555 1_555
O29_8 Cu20_7 1_555 1_555
C35_8 N5_8 1_555 1_555
H22_8 N5_8 1_555 1_555
H23_8 C31_8 1_555 1_555
H24_8 C31_8 1_555 1_555
H25_8 C35_8 1_555 1_555
C36_8 C30_8 1_555 1_555
H26_8 C36_8 1_555 1_555
N6_8 C41_8 1_555 1_555
O30_8 C40_8 1_555 1_555
C37_8 C1_8 1_555 1_555
O31_8 C39_8 1_555 1_555
C38_8 C40_8 1_555 1_555
O32_8 C41_8 1_555 1_555
C39_8 O33_8 1_555 1_555
C40_8 O34_8 1_555 1_555
C41_8 C37_8 1_555 1_555
O33_8 Cu16_2 1_555 1_555
O34_8 Cu23_7 1_555 1_555
C42_8 N6_8 1_555 1_555
H27_8 N6_8 1_555 1_555
H28_8 C38_8 1_555 1_555
H29_8 C38_8 1_555 1_555
H30_8 C42_8 1_555 1_555
O35_4 C47_4 1_555 1_555
O36_4 C51_4 1_555 1_555
C43_8 H31_8 1_555 1_555
C44_4 H32_4 1_555 1_555
H33_4 C44_4 1_555 1_555
N7_8 C54_8 1_555 1_555
O37_4 Cu4_10 1_555 1_555
C45_8 C43_8 1_555 1_555
C46_4 C47_4 1_555 1_555
O38_4 C52_8 1_555 1_555
C47_4 N8_4 1_555 1_555
N8_4 H34_4 1_555 1_555
C48_4 C44_4 1_555 1_555
H35_4 C48_4 1_555 1_555
C49_8 C53_8 1_555 1_555
C50_4 C46_4 1_555 1_555
H36_4 C50_4 1_555 1_555
C51_4 C48_4 1_555 1_555
O39_8 C54_8 1_555 1_555
C52_8 O40_4 1_555 1_555
C53_8 O37_4 1_555 1_555
C54_8 C45_8 1_555 1_555
O40_4 Cu16_6 1_555 1_555
C55_4 C44_4 1_555 1_555
O41_4 C55_4 1_555 1_555
O42_4 C51_4 1_555 1_555
O43_4 Cu2_10 1_555 1_555
C56_8 N7_8 1_555 1_555
O44_4 C55_4 1_555 1_555
H37_8 N7_8 1_555 1_555
H38_8 C49_8 1_555 1_555
H39_8 C49_8 1_555 1_555
H40_8 C56_8 1_555 1_555
O45_4 C59_4 1_555 1_555
C57_4 H41_4 1_555 1_555
C58_4 C50_4 1_555 1_555
C59_4 C58_4 1_555 1_555
N9_4 C59_4 1_555 1_555
H43_4 N9_4 1_555 1_555
C60_4 C57_4 1_555 1_555
C61_4 C58_4 1_555 1_555
H45_4 C61_4 1_555 1_555
C62_4 C60_4 1_555 1_555
C63_4 C57_4 1_555 1_555
O89_2 C63_4 1_555 1_555
O90_2 C62_4 1_555 1_555
O50_4 C66_4 1_555 1_555
O51_4 C69_4 1_555 1_555
C64_4 H46_4 1_555 1_555
H47_4 C64_4 1_555 1_555
C65_4 C61_4 1_555 1_555
C66_4 C65_4 1_555 1_555
N10_4 C66_4 1_555 1_555
H48_4 N10_4 1_555 1_555
C67_4 C64_4 1_555 1_555
H49_4 C67_4 1_555 1_555
C68_4 C46_4 1_555 1_555
H50_4 C68_4 1_555 1_555
C69_4 C67_4 1_555 1_555
C70_4 C64_4 1_555 1_555
O52_4 Cu2_10 1_555 1_555
O53_4 C69_4 1_555 1_555
O54_4 Cu4_10 1_555 1_555
C71_8 C45_8 1_555 1_555
H51_8 C71_8 1_555 1_555
N11_8 C76_8 1_555 1_555
O55_8 C75_8 1_555 1_555
C72_8 C71_8 1_555 1_555
O56_4 C74_8 1_555 1_555
C73_8 C75_8 1_555 1_555
O57_8 C76_8 1_555 1_555
C74_8 O58_4 1_555 1_555
C75_8 O59_8 1_555 1_555
C76_8 C72_8 1_555 1_555
O58_4 Cu17_3 1_555 1_555
O59_8 Cu21_7 1_555 1_555
C77_8 N11_8 1_555 1_555
H52_8 N11_8 1_555 1_555
H53_8 C73_8 1_555 1_555
H54_8 C73_8 1_555 1_555
H55_8 C77_8 1_555 1_555
C78_8 C72_8 1_555 1_555
H56_8 C78_8 1_555 1_555
N12_8 C83_8 1_555 1_555
O60_8 C82_8 1_555 1_555
C79_8 C43_8 1_555 1_555
O61_8 C81_8 1_555 1_555
C80_8 C82_8 1_555 1_555
O62_8 C83_8 1_555 1_555
C81_8 O63_8 1_555 1_555
C82_8 O64_8 1_555 1_555
C83_8 C79_8 1_555 1_555
O63_8 Cu17_2 1_555 1_555
O64_8 Cu22_7 1_555 1_555
C84_8 N12_8 1_555 1_555
H57_8 N12_8 1_555 1_555
H58_8 C80_8 1_555 1_555
H59_8 C80_8 1_555 1_555
H60_8 C84_8 1_555 1_555
Cu21_6 O41_4 1_555 1_555
Cu32_6 O44_4 1_555 1_555
O65_12 Cu32_6 1_555 1_555
O66_12 Cu21_6 1_555 1_555
Cu16_5 O23_4 1_555 1_555
Cu27_5 O21_4 1_555 1_555
O71_6 Cu16_5 1_555 1_555
O72_6 Cu27_5 1_555 1_555
Cu16_6 O42_4 1_555 1_555
Cu17_3 O53_4 1_555 1_555
Cu23_4 O17_4 1_555 1_555
Cu27_6 O36_4 1_555 1_555
Cu28_3 O51_4 1_555 1_555
Cu28_2 O61_8 1_555 1_555
Cu27_2 O31_8 1_555 1_555
Cu31_7 O25_8 1_555 1_555
Cu32_7 O55_8 1_555 1_555
Cu34_7 O30_8 1_555 1_555
Cu33_7 O60_8 1_555 1_555
O74_6 Cu27_5 1_555 1_555
O75_6 Cu28_4 1_555 1_555
O91_6 Cu16_5 1_555 1_555
O92_6 Cu17_4 1_555 1_555
N2_4 C6_4 1_555 1_555
C7_8 C14_8 1_555 1_555
C9_4 O12_4 1_555 1_555
C10_8 O10_4 1_555 1_555
C10_8 C14_8 1_555 1_555
N3_4 C18_4 1_555 1_555
C23_4 C26_4 1_555 1_555
N4_4 C25_4 1_555 1_555
C28_4 O22_4 1_555 1_555
C28_4 O24_4 1_555 1_555
O26_4 Cu27_5 1_555 1_555
C31_8 C35_8 1_555 1_555
C32_8 C35_8 1_555 1_555
C36_8 C37_8 1_555 1_555
C38_8 C42_8 1_555 1_555
C39_8 C42_8 1_555 1_555
O38_4 Cu27_6 1_555 1_555
N8_4 C48_4 1_555 1_555
C49_8 C56_8 1_555 1_555
C52_8 C56_8 1_555 1_555
C53_8 O43_4 1_555 1_555
N9_4 C60_4 1_555 1_555
C65_4 C68_4 1_555 1_555
N10_4 C67_4 1_555 1_555
C70_4 O52_4 1_555 1_555
C70_4 O54_4 1_555 1_555
O56_4 Cu28_3 1_555 1_555
C73_8 C77_8 1_555 1_555
C74_8 C77_8 1_555 1_555
C78_8 C79_8 1_555 1_555
C80_8 C84_8 1_555 1_555
C81_8 C84_8 1_555 1_555
Cu17_6 O3_7 1_555 1_555
O4_7 Cu28_6 1_555 1_555
O67_11 Cu34_3 1_555 1_555
O68_11 Cu23_3 1_555 1_555
O71_7 Cu17_5 1_555 1_555
O72_7 Cu28_5 1_555 1_555
O74_7 Cu28_5 1_555 1_555
O75_7 Cu28_6 1_555 1_555
O91_7 Cu17_5 1_555 1_555
O92_7 Cu17_6 1_555 1_555
O67_12 Cu34_4 1_555 1_555
O68_12 Cu23_4 1_555 1_555
Cu16_6 O3_8 1_555 1_555
O4_8 Cu27_6 1_555 1_555
O71_8 Cu17_3 1_555 1_555
O72_8 Cu28_3 1_555 1_555
O74_8 Cu28_3 1_555 1_555
O75_8 Cu27_6 1_555 1_555
O91_8 Cu17_3 1_555 1_555
O92_8 Cu16_6 1_555 1_555
Cu22_5 O9_11 1_555 1_555
O8_11 Cu33_5 1_555 1_555
O24_5 Cu33_5 1_555 1_555
O35_5 C47_5 1_555 1_555
O75_8 C51_5 1_555 1_555
C44_5 H32_5 1_555 1_555
H33_5 C44_5 1_555 1_555
C46_5 C47_5 1_555 1_555
C47_5 N8_5 1_555 1_555
N8_5 H34_5 1_555 1_555
C48_5 C44_5 1_555 1_555
H35_5 C48_5 1_555 1_555
C50_5 C46_5 1_555 1_555
H36_5 C50_5 1_555 1_555
C51_5 C48_5 1_555 1_555
C55_5 C44_5 1_555 1_555
O41_5 C55_5 1_555 1_555
O92_8 C51_5 1_555 1_555
O44_5 C55_5 1_555 1_555
O45_5 C59_5 1_555 1_555
O46_3 C62_5 1_555 1_555
C57_5 H41_5 1_555 1_555
H42_5 C57_5 1_555 1_555
C58_5 C50_5 1_555 1_555
C59_5 C58_5 1_555 1_555
N9_5 C59_5 1_555 1_555
H43_5 N9_5 1_555 1_555
C60_5 C57_5 1_555 1_555
H44_5 C60_5 1_555 1_555
C61_5 C58_5 1_555 1_555
H45_5 C61_5 1_555 1_555
C62_5 C60_5 1_555 1_555
C63_5 C57_5 1_555 1_555
O47_3 C63_5 1_555 1_555
O48_3 C62_5 1_555 1_555
O49_3 C63_5 1_555 1_555
O50_5 C66_5 1_555 1_555
C64_5 H46_5 1_555 1_555
C65_5 C61_5 1_555 1_555
C66_5 C65_5 1_555 1_555
N10_5 C66_5 1_555 1_555
H48_5 N10_5 1_555 1_555
C67_5 C64_5 1_555 1_555
C68_5 C46_5 1_555 1_555
H50_5 C68_5 1_555 1_555
C69_5 C67_5 1_555 1_555
C70_5 C64_5 1_555 1_555
O52_5 Cu22_5 1_555 1_555
O91_2 C69_5 1_555 1_555
Cu22_7 O41_5 1_555 1_555
Cu33_7 O44_5 1_555 1_555
O65_13 Cu33_7 1_555 1_555
O66_13 Cu22_7 1_555 1_555
Cu20 O47_3 1_555 1_555
Cu31 O49_3 1_555 1_555
O67_13 Cu31 1_555 1_555
O68_13 Cu20 1_555 1_555
Cu17_2 O48_3 1_555 1_555
Cu28_2 O46_3 1_555 1_555
O88_3 Cu22_7 1_555 1_555
O97_3 Cu33_7 1_555 1_555
N8_5 C48_5 1_555 1_555
N9_5 C60_5 1_555 1_555
C65_5 C68_5 1_555 1_555
N10_5 C67_5 1_555 1_555
C70_5 O52_5 1_555 1_555
Cu22_6 O9_12 1_555 1_555
O1_5 C5_5 1_555 1_555
O75_6 C9_5 1_555 1_555
C2_5 H2_5 1_555 1_555
H3_5 C2_5 1_555 1_555
C4_5 C5_5 1_555 1_555
C5_5 N2_5 1_555 1_555
N2_5 H4_5 1_555 1_555
C6_5 C2_5 1_555 1_555
H5_5 C6_5 1_555 1_555
C8_5 C4_5 1_555 1_555
H6_5 C8_5 1_555 1_555
C9_5 C6_5 1_555 1_555
O8_12 Cu33_6 1_555 1_555
C13_5 C2_5 1_555 1_555
O11_3 C13_5 1_555 1_555
O14_3 C13_5 1_555 1_555
O15_5 C17_5 1_555 1_555
O16_3 C20_5 1_555 1_555
C15_5 H11_5 1_555 1_555
H12_5 C15_5 1_555 1_555
C16_5 C8_5 1_555 1_555
C17_5 C16_5 1_555 1_555
N3_5 C17_5 1_555 1_555
H13_5 N3_5 1_555 1_555
C18_5 C15_5 1_555 1_555
H14_5 C18_5 1_555 1_555
C19_5 C16_5 1_555 1_555
H15_5 C19_5 1_555 1_555
C20_5 C18_5 1_555 1_555
C21_5 C15_5 1_555 1_555
O17_5 C21_5 1_555 1_555
O18_3 C20_5 1_555 1_555
O19_5 C21_5 1_555 1_555
O20_5 C24_5 1_555 1_555
C22_5 H16_5 1_555 1_555
C23_5 C19_5 1_555 1_555
C24_5 C23_5 1_555 1_555
N4_5 C24_5 1_555 1_555
H18_5 N4_5 1_555 1_555
C25_5 C22_5 1_555 1_555
C26_5 C4_5 1_555 1_555
H20_5 C26_5 1_555 1_555
C27_5 C25_5 1_555 1_555
C28_5 C22_5 1_555 1_555
O22_5 Cu22_6 1_555 1_555
O91_4 C27_5 1_555 1_555
O54_5 Cu33_6 1_555 1_555
O67_14 Cu31_2 1_555 1_555
O68_14 Cu20_2 1_555 1_555
Cu16_2 O18_3 1_555 1_555
Cu27_2 O16_3 1_555 1_555
O69_5 Cu16_2 1_555 1_555
O70_5 Cu27_2 1_555 1_555
Cu23_7 O11_3 1_555 1_555
Cu21_2 O17_5 1_555 1_555
Cu34_7 O14_3 1_555 1_555
Cu32_2 O19_5 1_555 1_555
O73_5 Cu27_2 1_555 1_555
O89_3 Cu20_2 1_555 1_555
O90_5 Cu16_2 1_555 1_555
O98_3 Cu31_2 1_555 1_555
N2_5 C6_5 1_555 1_555
C9_5 O92_6 1_555 1_555
N3_5 C18_5 1_555 1_555
C23_5 C26_5 1_555 1_555
N4_5 C25_5 1_555 1_555
C28_5 O22_5 1_555 1_555
Cu23_5 O9_13 1_555 1_555
O1_6 C5_6 1_555 1_555
O75_5 C9_6 1_555 1_555
C2_6 H2_6 1_555 1_555
H3_6 C2_6 1_555 1_555
C4_6 C5_6 1_555 1_555
C5_6 N2_6 1_555 1_555
N2_6 H4_6 1_555 1_555
C6_6 C2_6 1_555 1_555
H5_6 C6_6 1_555 1_555
C8_6 C4_6 1_555 1_555
H6_6 C8_6 1_555 1_555
C9_6 C6_6 1_555 1_555
O8_13 Cu34_5 1_555 1_555
C13_6 C2_6 1_555 1_555
O88_3 C13_6 1_555 1_555
O97_3 C13_6 1_555 1_555
O15_6 C17_6 1_555 1_555
O16_4 C20_6 1_555 1_555
C15_6 H11_6 1_555 1_555
H12_6 C15_6 1_555 1_555
C16_6 C8_6 1_555 1_555
C17_6 C16_6 1_555 1_555
N3_6 C17_6 1_555 1_555
H13_6 N3_6 1_555 1_555
C18_6 C15_6 1_555 1_555
H14_6 C18_6 1_555 1_555
C19_6 C16_6 1_555 1_555
H15_6 C19_6 1_555 1_555
C20_6 C18_6 1_555 1_555
C21_6 C15_6 1_555 1_555
O17_6 C21_6 1_555 1_555
O18_4 C20_6 1_555 1_555
O19_6 C21_6 1_555 1_555
O20_6 C24_6 1_555 1_555
C22_6 H16_6 1_555 1_555
C23_6 C19_6 1_555 1_555
C24_6 C23_6 1_555 1_555
N4_6 C24_6 1_555 1_555
H18_6 N4_6 1_555 1_555
C25_6 C22_6 1_555 1_555
C26_6 C4_6 1_555 1_555
H20_6 C26_6 1_555 1_555
C27_6 C25_6 1_555 1_555
C28_6 C22_6 1_555 1_555
O22_6 Cu23_5 1_555 1_555
O91_3 C27_6 1_555 1_555
O54_6 Cu34_5 1_555 1_555
Cu16 O18_4 1_555 1_555
Cu27 O16_4 1_555 1_555
O69_6 Cu16 1_555 1_555
O70_6 Cu27 1_555 1_555
Cu21 O17_6 1_555 1_555
Cu32 O19_6 1_555 1_555
O73_6 Cu27 1_555 1_555
O90_6 Cu16 1_555 1_555
N2_6 C6_6 1_555 1_555
C9_6 O92_5 1_555 1_555
N3_6 C18_6 1_555 1_555
C23_6 C26_6 1_555 1_555
N4_6 C25_6 1_555 1_555
C28_6 O22_6 1_555 1_555
Cu23_6 O9_14 1_555 1_555
O8_14 Cu34_6 1_555 1_555
O24_6 Cu34_6 1_555 1_555
O35_6 C47_6 1_555 1_555
O75_7 C51_6 1_555 1_555
C44_6 H32_6 1_555 1_555
H33_6 C44_6 1_555 1_555
C46_6 C47_6 1_555 1_555
C47_6 N8_6 1_555 1_555
N8_6 H34_6 1_555 1_555
C48_6 C44_6 1_555 1_555
H35_6 C48_6 1_555 1_555
C50_6 C46_6 1_555 1_555
H36_6 C50_6 1_555 1_555
C51_6 C48_6 1_555 1_555
C55_6 C44_6 1_555 1_555
O41_6 C55_6 1_555 1_555
O92_7 C51_6 1_555 1_555
O44_6 C55_6 1_555 1_555
O45_6 C59_6 1_555 1_555
O46_4 C62_6 1_555 1_555
C57_6 H41_6 1_555 1_555
H42_6 C57_6 1_555 1_555
C58_6 C50_6 1_555 1_555
C59_6 C58_6 1_555 1_555
N9_6 C59_6 1_555 1_555
H43_6 N9_6 1_555 1_555
C60_6 C57_6 1_555 1_555
H44_6 C60_6 1_555 1_555
C61_6 C58_6 1_555 1_555
H45_6 C61_6 1_555 1_555
C62_6 C60_6 1_555 1_555
C63_6 C57_6 1_555 1_555
O89_3 C63_6 1_555 1_555
O48_4 C62_6 1_555 1_555
O98_3 C63_6 1_555 1_555
O50_6 C66_6 1_555 1_555
C64_6 H46_6 1_555 1_555
C65_6 C61_6 1_555 1_555
C66_6 C65_6 1_555 1_555
N10_6 C66_6 1_555 1_555
H48_6 N10_6 1_555 1_555
C67_6 C64_6 1_555 1_555
C68_6 C46_6 1_555 1_555
H50_6 C68_6 1_555 1_555
C69_6 C67_6 1_555 1_555
C70_6 C64_6 1_555 1_555
O52_6 Cu23_6 1_555 1_555
O91 C69_6 1_555 1_555
Cu23_7 O41_6 1_555 1_555
Cu34_7 O44_6 1_555 1_555
O65_14 Cu34_7 1_555 1_555
O66_14 Cu23_7 1_555 1_555
Cu17 O48_4 1_555 1_555
Cu28 O46_4 1_555 1_555
N8_6 C48_6 1_555 1_555
N9_6 C60_6 1_555 1_555
C65_6 C68_6 1_555 1_555
N10_6 C67_6 1_555 1_555
C70_6 O52_6 1_555 1_555
O67_15 Cu32 1_555 1_555
O68_15 Cu21 1_555 1_555
O69_7 Cu17_2 1_555 1_555
O70_7 Cu28_2 1_555 1_555
O73_7 Cu28_2 1_555 1_555
O90_7 Cu17_2 1_555 1_555
O67_16 Cu32_2 1_555 1_555
O68_16 Cu21_2 1_555 1_555
O69_8 Cu17 1_555 1_555
O70_8 Cu28 1_555 1_555
O73_8 Cu28 1_555 1_555
O90_8 Cu17 1_555 1_555
Cu20_3 O9_15 1_555 1_555
O8_15 Cu31_3 1_555 1_555
O35_7 C47_7 1_555 1_555
C44_7 H32_7 1_555 1_555
C46_7 C47_7 1_555 1_555
C47_7 N8_7 1_555 1_555
N8_7 H34_7 1_555 1_555
C48_7 C44_7 1_555 1_555
C50_7 C46_7 1_555 1_555
H36_7 C50_7 1_555 1_555
C51_7 C48_7 1_555 1_555
C55_7 C44_7 1_555 1_555
O41_7 C55_7 1_555 1_555
O92_4 C51_7 1_555 1_555
O45_7 C59_7 1_555 1_555
O73_5 C62_7 1_555 1_555
C57_7 H41_7 1_555 1_555
H42_7 C57_7 1_555 1_555
C58_7 C50_7 1_555 1_555
C59_7 C58_7 1_555 1_555
N9_7 C59_7 1_555 1_555
H43_7 N9_7 1_555 1_555
C60_7 C57_7 1_555 1_555
H44_7 C60_7 1_555 1_555
C61_7 C58_7 1_555 1_555
H45_7 C61_7 1_555 1_555
C62_7 C60_7 1_555 1_555
C63_7 C57_7 1_555 1_555
O47_4 C63_7 1_555 1_555
O90_5 C62_7 1_555 1_555
O49_4 C63_7 1_555 1_555
O50_7 C66_7 1_555 1_555
O74_6 C69_7 1_555 1_555
C64_7 H46_7 1_555 1_555
H47_7 C64_7 1_555 1_555
C65_7 C61_7 1_555 1_555
C66_7 C65_7 1_555 1_555
N10_7 C66_7 1_555 1_555
H48_7 N10_7 1_555 1_555
C67_7 C64_7 1_555 1_555
H49_7 C67_7 1_555 1_555
C68_7 C46_7 1_555 1_555
H50_7 C68_7 1_555 1_555
C69_7 C67_7 1_555 1_555
C70_7 C64_7 1_555 1_555
O52_7 Cu20_3 1_555 1_555
O91_6 C69_7 1_555 1_555
O54_7 Cu31_3 1_555 1_555
Cu22 O41_7 1_555 1_555
O65_15 Cu33 1_555 1_555
O66_15 Cu22 1_555 1_555
Cu20_7 O47_4 1_555 1_555
Cu31_7 O49_4 1_555 1_555
O67_17 Cu31_7 1_555 1_555
O68_17 Cu20_7 1_555 1_555
Cu34 O14_4 1_555 1_555
O89_4 Cu20_7 1_555 1_555
O97_4 Cu33 1_555 1_555
O98_4 Cu31_7 1_555 1_555
N8_7 C48_7 1_555 1_555
N9_7 C60_7 1_555 1_555
C65_7 C68_7 1_555 1_555
N10_7 C67_7 1_555 1_555
C70_7 O52_7 1_555 1_555
C70_7 O54_7 1_555 1_555
Cu20_4 O9_16 1_555 1_555
O1_7 C5_7 1_555 1_555
C2_7 H2_7 1_555 1_555
C4_7 C5_7 1_555 1_555
C5_7 N2_7 1_555 1_555
N2_7 H4_7 1_555 1_555
C6_7 C2_7 1_555 1_555
C8_7 C4_7 1_555 1_555
H6_7 C8_7 1_555 1_555
C9_7 C6_7 1_555 1_555
O8_16 Cu31_4 1_555 1_555
C13_7 C2_7 1_555 1_555
O11_4 C13_7 1_555 1_555
O15_7 C17_7 1_555 1_555
O73_7 C20_7 1_555 1_555
C15_7 H11_7 1_555 1_555
H12_7 C15_7 1_555 1_555
C16_7 C8_7 1_555 1_555
C17_7 C16_7 1_555 1_555
N3_7 C17_7 1_555 1_555
H13_7 N3_7 1_555 1_555
C18_7 C15_7 1_555 1_555
H14_7 C18_7 1_555 1_555
C19_7 C16_7 1_555 1_555
H15_7 C19_7 1_555 1_555
C20_7 C18_7 1_555 1_555
C21_7 C15_7 1_555 1_555
O17_7 C21_7 1_555 1_555
O90_7 C20_7 1_555 1_555
O19_7 C21_7 1_555 1_555
O20_7 C24_7 1_555 1_555
O74_8 C27_7 1_555 1_555
C22_7 H16_7 1_555 1_555
H17_7 C22_7 1_555 1_555
C23_7 C19_7 1_555 1_555
C24_7 C23_7 1_555 1_555
N4_7 C24_7 1_555 1_555
H18_7 N4_7 1_555 1_555
C25_7 C22_7 1_555 1_555
H19_7 C25_7 1_555 1_555
C26_7 C4_7 1_555 1_555
H20_7 C26_7 1_555 1_555
C27_7 C25_7 1_555 1_555
C28_7 C22_7 1_555 1_555
O22_7 Cu20_4 1_555 1_555
O91_8 C27_7 1_555 1_555
O24_7 Cu31_4 1_555 1_555
Cu33_2 O44_7 1_555 1_555
O65_16 Cu33_2 1_555 1_555
O66_16 Cu22_2 1_555 1_555
Cu23_2 O11_4 1_555 1_555
Cu21_7 O17_7 1_555 1_555
Cu32_7 O19_7 1_555 1_555
O88_4 Cu22_2 1_555 1_555
N2_7 C6_7 1_555 1_555
C9_7 O92_2 1_555 1_555
N3_7 C18_7 1_555 1_555
C23_7 C26_7 1_555 1_555
N4_7 C25_7 1_555 1_555
C28_7 O22_7 1_555 1_555
C28_7 O24_7 1_555 1_555
Cu21_3 O9_17 1_555 1_555
O8_17 Cu32_3 1_555 1_555
O35_8 C47_8 1_555 1_555
C44_8 H32_8 1_555 1_555
C46_8 C47_8 1_555 1_555
C47_8 N8_8 1_555 1_555
N8_8 H34_8 1_555 1_555
C48_8 C44_8 1_555 1_555
C50_8 C46_8 1_555 1_555
H36_8 C50_8 1_555 1_555
C51_8 C48_8 1_555 1_555
C55_8 C44_8 1_555 1_555
O41_8 C55_8 1_555 1_555
O92_3 C51_8 1_555 1_555
O45_8 C59_8 1_555 1_555
O73_6 C62_8 1_555 1_555
C57_8 H41_8 1_555 1_555
H42_8 C57_8 1_555 1_555
C58_8 C50_8 1_555 1_555
C59_8 C58_8 1_555 1_555
N9_8 C59_8 1_555 1_555
H43_8 N9_8 1_555 1_555
C60_8 C57_8 1_555 1_555
H44_8 C60_8 1_555 1_555
C61_8 C58_8 1_555 1_555
H45_8 C61_8 1_555 1_555
C62_8 C60_8 1_555 1_555
C63_8 C57_8 1_555 1_555
O89_4 C63_8 1_555 1_555
O90_6 C62_8 1_555 1_555
O98_4 C63_8 1_555 1_555
O50_8 C66_8 1_555 1_555
O74_5 C69_8 1_555 1_555
C64_8 H46_8 1_555 1_555
H47_8 C64_8 1_555 1_555
C65_8 C61_8 1_555 1_555
C66_8 C65_8 1_555 1_555
N10_8 C66_8 1_555 1_555
H48_8 N10_8 1_555 1_555
C67_8 C64_8 1_555 1_555
H49_8 C67_8 1_555 1_555
C68_8 C46_8 1_555 1_555
H50_8 C68_8 1_555 1_555
C69_8 C67_8 1_555 1_555
C70_8 C64_8 1_555 1_555
O52_8 Cu21_3 1_555 1_555
O91_5 C69_8 1_555 1_555
O54_8 Cu32_3 1_555 1_555
Cu23 O41_8 1_555 1_555
O65_17 Cu34 1_555 1_555
O66_17 Cu23 1_555 1_555
N8_8 C48_8 1_555 1_555
N9_8 C60_8 1_555 1_555
C65_8 C68_8 1_555 1_555
N10_8 C67_8 1_555 1_555
C70_8 O52_8 1_555 1_555
C70_8 O54_8 1_555 1_555
Cu21_4 O9_18 1_555 1_555
O1_8 C5_8 1_555 1_555
C2_8 H2_8 1_555 1_555
C4_8 C5_8 1_555 1_555
C5_8 N2_8 1_555 1_555
N2_8 H4_8 1_555 1_555
C6_8 C2_8 1_555 1_555
C8_8 C4_8 1_555 1_555
H6_8 C8_8 1_555 1_555
C9_8 C6_8 1_555 1_555
O8_18 Cu32_4 1_555 1_555
C13_8 C2_8 1_555 1_555
O88_4 C13_8 1_555 1_555
O15_8 C17_8 1_555 1_555
O73_8 C20_8 1_555 1_555
C15_8 H11_8 1_555 1_555
H12_8 C15_8 1_555 1_555
C16_8 C8_8 1_555 1_555
C17_8 C16_8 1_555 1_555
N3_8 C17_8 1_555 1_555
H13_8 N3_8 1_555 1_555
C18_8 C15_8 1_555 1_555
H14_8 C18_8 1_555 1_555
C19_8 C16_8 1_555 1_555
H15_8 C19_8 1_555 1_555
C20_8 C18_8 1_555 1_555
C21_8 C15_8 1_555 1_555
O17_8 C21_8 1_555 1_555
O90_8 C20_8 1_555 1_555
O19_8 C21_8 1_555 1_555
O20_8 C24_8 1_555 1_555
O74_7 C27_8 1_555 1_555
C22_8 H16_8 1_555 1_555
H17_8 C22_8 1_555 1_555
C23_8 C19_8 1_555 1_555
C24_8 C23_8 1_555 1_555
N4_8 C24_8 1_555 1_555
H18_8 N4_8 1_555 1_555
C25_8 C22_8 1_555 1_555
H19_8 C25_8 1_555 1_555
C26_8 C4_8 1_555 1_555
H20_8 C26_8 1_555 1_555
C27_8 C25_8 1_555 1_555
C28_8 C22_8 1_555 1_555
O22_8 Cu21_4 1_555 1_555
O91_7 C27_8 1_555 1_555
O24_8 Cu32_4 1_555 1_555
Cu34_2 O44_8 1_555 1_555
O65_18 Cu34_2 1_555 1_555
O66_18 Cu23_2 1_555 1_555
Cu21_7 O17_8 1_555 1_555
Cu32_7 O19_8 1_555 1_555
N2_8 C6_8 1_555 1_555
C9_8 O92 1_555 1_555
N3_8 C18_8 1_555 1_555
C23_8 C26_8 1_555 1_555
N4_8 C25_8 1_555 1_555
C28_8 O22_8 1_555 1_555
C28_8 O24_8 1_555 1_555
O67_18 Cu32_7 1_555 1_555
O68_18 Cu21_7 1_555 1_555

#END
