
###############################################################################
#
# This file contains modified crystal structure data generated from the
# MOF subset of the Cambridge Structural Database (CSD) v543 
# hosted by the Cambridge Crystallographic Data Centre (CCDC).
#
# This work is licensed under the Creative Commons
# Attribution-NonCommercial-ShareAlike 4.0 International License.
# To view a copy of this license, visit
# http://creativecommons.org/licenses/by-nc-sa/4.0/
# or send a letter to
# Creative Commons, PO Box 1866, Mountain View, CA 94042, USA.
#
# CIF created using the CSD Python API on 29 September 2022
# The structure has been converted into the P1 space group
# The structure has a 3D framework
# The original CSD entry DOPJAV is in the orthorhombic crystal system
# The framework has been calculated to contain at least 10.0% void space
# The void calculation uses a probe of radius 1.32A, grid spacing 0.4
# H atom positions have been added when not included in the experimental data
#
###############################################################################

data_DOPJAV
_chemical_formula_moiety         '(C168 H184 Cu24 N24 O142)n'
_symmetry_cell_setting           triclinic
_symmetry_space_group_name_H-M   'P 1'
_symmetry_Int_Tables_number      1
_space_group_name_Hall           'P 1'
loop_
_symmetry_equiv_pos_site_id
_symmetry_equiv_pos_as_xyz
1 x,y,z
_cell_length_a                   17.530(3)
_cell_length_b                   20.037(3)
_cell_length_c                   21.050(3)
_cell_angle_alpha                90
_cell_angle_beta                 90
_cell_angle_gamma                90
_cell_volume                     7393.78
loop_
_atom_site_label
_atom_site_type_symbol
_atom_site_fract_x
_atom_site_fract_y
_atom_site_fract_z
Cu1 Cu 0.13370(3) 0.58833(3) 0.04910(2)
O8 O 0.3986(2) 0.81603(16) 0.04809(14)
O13 O 0.4324(2) 0.5666(2) 0.07078(18)
O16 O 0.1913(2) 0.6113(2) 0.12780(17)
C5 C 0.3594(3) 0.7898(2) 0.0026(2)
C17 C 0.4235(3) 0.6040(3) 0.0236(2)
C21 C 0.3784(3) 0.6694(2) 0.0352(2)
H10 H 0.3254 0.6582 0.0422
H11 H 0.3978 0.6903 0.0734
Cu4 Cu 0.36630(3) 0.91167(3) 0.04910(2)
Cu7 Cu 0.52299(3) 0.83404(3) 0.06968(2)
O22 O 0.1014(2) 0.68397(16) 0.04809(14)
O23 O 0.01250(18) 0.58134(15) 0.10694(15)
O24 O 0.1773(2) 0.50043(18) 0.05253(16)
Cu9 Cu 0.49424(4) 0.48522(3) 0.06087(3)
H17 H 0.0187369 0.709963 0.176296
H18 H 0.190665 0.572614 0.157279
H19 H 0.244853 0.622381 0.116613
O1 O 0.11256(19) 0.43425(18) 0.89130(16)
O2 O 0.30639(19) 0.82026(17) 0.97720(16)
O3 O 0.4334(3) 0.6984(4) 0.8550(2)
O4 O 0.07029(18) 0.56458(15) 0.97508(14)
O7 O 0.3711(4) 0.6918(3) 0.6252(2)
O9 O 0.0580(2) 0.61316(19) 0.75379(15)
N1 N 0.2851(2) 0.6144(2) 0.59703(18)
O11 O 0.1773(2) 0.49957(18) 0.44747(16)
O12 O 0.4013(2) 0.5633(2) 0.46408(18)
O14 O 0.4122(2) 0.5415(2) 0.56824(16)
O15 O 0.4464(2) 0.59377(18) 0.96886(18)
C1 C 0.3102(3) 0.6695(3) 0.8173(2)
O17 O 0.2411(3) 0.4840(2) 0.5373(2)
N2 N 0.1033(2) 0.5570(2) 0.84002(18)
C3 C 0.2375(3) 0.6450(3) 0.8306(2)
C4 C 0.2131(3) 0.6326(3) 0.7181(2)
N3 N 0.3384(2) 0.6976(2) 0.92591(17)
C6 C 0.3160(3) 0.6549(3) 0.6386(2)
C7 C 0.3659(3) 0.6909(3) 0.8682(2)
C8 C 0.2211(3) 0.5191(3) 0.4921(2)
C9 C 0.0471(3) 0.4544(2) 0.88226(18)
C10 C 0.1893(3) 0.6274(3) 0.7809(2)
C11 C 0.2874(3) 0.6528(3) 0.7052(2)
C12 C 0.3350(3) 0.6732(3) 0.7546(2)
C13 C 0.3801(3) 0.5675(3) 0.5215(2)
C14 C 0.1108(3) 0.5995(2) 0.7912(2)
C15 C 0.0318(3) 0.5235(2) 0.8530(2)
C16 C 0.3089(3) 0.6123(3) 0.5307(2)
C18 C 0.3838(3) 0.7192(2) 0.9803(2)
C19 C 0.0079(3) 0.5885(2) 0.9561(2)
C20 C 0.2440(3) 0.5925(3) 0.4871(2)
Cu3 Cu 0.49424(4) 0.51478(3) 0.43913(3)
O18 O 0.4907(3) 0.5567(3) 0.3435(2)
H3 H 0.2214 0.6404 0.8724
H4 H 0.1785 0.6237 0.6847
H5 H 0.2909 0.6888 0.9320
H6 H 0.3834 0.6892 0.7455
H7 H 0.3234 0.6578 0.5188
H8 H 0.2585 0.6018 0.4440
H9 H 0.1999 0.6198 0.4974
H12 H 0.4389 0.7230 0.9683
H13 H 0.1463 0.5445 0.8672
H14 H 0.2588 0.5854 0.6096
H15 H 0.0122 0.5129 0.8138
Cu5 Cu 0.13370(3) 0.41167(3) 0.45090(2)
Cu8 Cu 0.02299(3) 0.33404(3) 0.93032(2)
O21 O 0.19361(19) 0.67974(17) 0.97720(16)
O25 O 0.4324(2) 0.4334(2) 0.42922(18)
O26 O 0.5878(2) 0.4585(2) 0.43176(16)
O27 O 0.5536(2) 0.59377(18) 0.46886(18)
Cu10 Cu 0.50576(4) 0.48522(3) 0.56087(3)
Cu11 Cu 0.50576(4) 0.51478(3) 0.93913(3)
H22 H 0.493861 0.606111 0.345999
H23 H 0.534435 0.539387 0.318456
Cu2 Cu 0.97701(3) 0.66596(3) 0.06968(2)
O5 O 0.9673(2) 0.70540(17) 0.15702(16)
O19 O 0.9415(3) 0.7514(2) 0.03449(19)
O20 O 0.88744(19) 0.56575(18) 0.10870(16)
H16 H 0.935428 0.675707 0.183889
H20 H 0.977194 0.787498 0.0471793
O6 O 0.9655(2) 0.62929(18) 0.98489(15)
O10 O 0.98750(18) 0.41866(15) 0.89306(15)
C2 C 0.9783(3) 0.5673(2) 0.8915(2)
H1 H 0.9309 0.5433 0.8975
H2 H 0.9671 0.6070 0.8670
Cu6 Cu 0.86630(3) 0.41167(3) 0.95090(2)
H21 H 0.939635 0.74839 0.987429
Cu9_2 Cu 0.00576(4) 0.01478(3) 0.06087(3)
O1_2 O 0.38744(19) 0.06575(18) 0.89130(16)
O10_2 O 0.51250(18) 0.08134(15) 0.89306(15)
O11_2 O 0.3227(2) 0.00043(18) 0.44747(16)
O17_2 O 0.2589(3) 0.0160(2) 0.5373(2)
C9_2 C 0.4529(3) 0.0456(2) 0.88226(18)
Cu5_2 Cu 0.36630(3) 0.08833(3) 0.45090(2)
Cu6_2 Cu 0.63370(3) 0.08833(3) 0.95090(2)
Cu8_2 Cu 0.47701(3) 0.16596(3) 0.93032(2)
O25_2 O 0.0676(2) 0.0666(2) 0.42922(18)
O5_2 O 0.5327(2) 0.79460(17) 0.15702(16)
O13_2 O 0.0676(2) 0.9334(2) 0.07078(18)
O16_2 O 0.3087(2) 0.8887(2) 0.12780(17)
C5_2 C 0.1406(3) 0.7102(2) 0.0026(2)
C17_2 C 0.0765(3) 0.8960(3) 0.0236(2)
C21_2 C 0.1216(3) 0.8306(2) 0.0352(2)
O19_2 O 0.5585(3) 0.7486(2) 0.03449(19)
H10_2 H 0.1746 0.8418 0.0422
H11_2 H 0.1022 0.8097 0.0734
O20_2 O 0.61256(19) 0.93425(18) 0.10870(16)
O23_2 O 0.48750(18) 0.91866(15) 0.10694(15)
O24_2 O 0.3227(2) 0.99957(18) 0.05253(16)
H16_2 H 0.564572 0.824293 0.183889
H17_2 H 0.481263 0.790037 0.176296
H18_2 H 0.309335 0.927386 0.157279
H19_2 H 0.255147 0.877619 0.116613
H20_2 H 0.522806 0.712502 0.0471793
O3_2 O 0.0666(3) 0.8016(4) 0.8550(2)
O4_2 O 0.42971(18) 0.93542(15) 0.97508(14)
O6_2 O 0.5345(2) 0.87071(18) 0.98489(15)
O7_2 O 0.1289(4) 0.8082(3) 0.6252(2)
O9_2 O 0.4420(2) 0.88684(19) 0.75379(15)
N1_2 N 0.2149(2) 0.8856(2) 0.59703(18)
O12_2 O 0.0987(2) 0.9367(2) 0.46408(18)
O14_2 O 0.0878(2) 0.9585(2) 0.56824(16)
O15_2 O 0.0536(2) 0.90623(18) 0.96886(18)
C1_2 C 0.1898(3) 0.8305(3) 0.8173(2)
C2_2 C 0.5217(3) 0.9327(2) 0.8915(2)
N2_2 N 0.3967(2) 0.9430(2) 0.84002(18)
C3_2 C 0.2625(3) 0.8550(3) 0.8306(2)
C4_2 C 0.2869(3) 0.8674(3) 0.7181(2)
N3_2 N 0.1616(2) 0.8024(2) 0.92591(17)
C6_2 C 0.1840(3) 0.8451(3) 0.6386(2)
C7_2 C 0.1341(3) 0.8091(3) 0.8682(2)
C8_2 C 0.2789(3) 0.9809(3) 0.4921(2)
C10_2 C 0.3107(3) 0.8726(3) 0.7809(2)
C11_2 C 0.2126(3) 0.8472(3) 0.7052(2)
C12_2 C 0.1650(3) 0.8268(3) 0.7546(2)
C13_2 C 0.1199(3) 0.9325(3) 0.5215(2)
C14_2 C 0.3892(3) 0.9005(2) 0.7912(2)
C15_2 C 0.4682(3) 0.9765(2) 0.8530(2)
C16_2 C 0.1911(3) 0.8877(3) 0.5307(2)
C18_2 C 0.1162(3) 0.7808(2) 0.9803(2)
C19_2 C 0.4921(3) 0.9115(2) 0.9561(2)
C20_2 C 0.2560(3) 0.9075(3) 0.4871(2)
Cu3_2 Cu 0.00576(4) 0.98522(3) 0.43913(3)
O18_2 O 0.0093(3) 0.9433(3) 0.3435(2)
H1_2 H 0.5691 0.9567 0.8975
H2_2 H 0.5329 0.8930 0.8670
H3_2 H 0.2786 0.8596 0.8724
H4_2 H 0.3215 0.8763 0.6847
H5_2 H 0.2091 0.8112 0.9320
H6_2 H 0.1166 0.8108 0.7455
H7_2 H 0.1766 0.8422 0.5188
H8_2 H 0.2415 0.8982 0.4440
H9_2 H 0.3001 0.8802 0.4974
H12_2 H 0.0611 0.7770 0.9683
H13_2 H 0.3537 0.9555 0.8672
H14_2 H 0.2412 0.9146 0.6096
H15_2 H 0.4878 0.9871 0.8138
H21_2 H 0.560365 0.75161 0.987429
H22_2 H 0.00613866 0.893889 0.345999
O26_2 O 0.9122(2) 0.0415(2) 0.43176(16)
Cu10_2 Cu 0.99424(4) 0.01478(3) 0.56087(3)
O27_2 O 0.9464(2) 0.90623(18) 0.46886(18)
Cu11_2 Cu 0.99424(4) 0.98522(3) 0.93913(3)
H23_2 H 0.965565 0.960613 0.318456
O12_3 O 0.4013(2) 0.4367(2) 0.03592(18)
C8_3 C 0.2211(3) 0.4809(3) 0.0079(2)
C20_3 C 0.2440(3) 0.4075(3) 0.0129(2)
O18_3 O 0.4907(3) 0.4433(3) 0.1565(2)
H8_3 H 0.2585 0.3982 0.0560
H9_3 H 0.1999 0.3802 0.0026
O26_3 O 0.5878(2) 0.5415(2) 0.06824(16)
O27_3 O 0.5536(2) 0.40623(18) 0.03114(18)
H22_3 H 0.493861 0.393889 0.154001
H23_3 H 0.534435 0.460613 0.181544
O1_3 O 0.11256(19) 0.56575(18) 0.60870(16)
O2_2 O 0.30639(19) 0.17974(17) 0.52280(16)
O3_3 O 0.4334(3) 0.3016(4) 0.6450(2)
O4_3 O 0.07029(18) 0.43542(15) 0.52492(14)
O7_3 O 0.3711(4) 0.3082(3) 0.8748(2)
O8_2 O 0.3986(2) 0.18397(16) 0.45191(14)
O9_3 O 0.0580(2) 0.38684(19) 0.74621(15)
N1_3 N 0.2851(2) 0.3856(2) 0.90297(18)
O14_3 O 0.4122(2) 0.4585(2) 0.93176(16)
O15_3 O 0.4464(2) 0.40623(18) 0.53114(18)
C1_3 C 0.3102(3) 0.3305(3) 0.6827(2)
O16_3 O 0.1913(2) 0.3887(2) 0.37220(17)
O17_3 O 0.2411(3) 0.5160(2) 0.9627(2)
N2_3 N 0.1033(2) 0.4430(2) 0.65998(18)
C3_3 C 0.2375(3) 0.3550(3) 0.6694(2)
C4_3 C 0.2131(3) 0.3674(3) 0.7819(2)
C5_3 C 0.3594(3) 0.2102(2) 0.4974(2)
N3_3 N 0.3384(2) 0.3024(2) 0.57409(17)
C6_3 C 0.3160(3) 0.3451(3) 0.8614(2)
C7_3 C 0.3659(3) 0.3091(3) 0.6318(2)
C9_3 C 0.0471(3) 0.5456(2) 0.61774(18)
C10_3 C 0.1893(3) 0.3726(3) 0.7191(2)
C11_3 C 0.2874(3) 0.3472(3) 0.7948(2)
C12_3 C 0.3350(3) 0.3268(3) 0.7454(2)
C13_3 C 0.3801(3) 0.4325(3) 0.9785(2)
C14_3 C 0.1108(3) 0.4005(2) 0.7088(2)
C15_3 C 0.0318(3) 0.4765(2) 0.6470(2)
C16_3 C 0.3089(3) 0.3877(3) 0.9693(2)
C17_3 C 0.4235(3) 0.3960(3) 0.4764(2)
C18_3 C 0.3838(3) 0.2808(2) 0.5197(2)
C19_3 C 0.0079(3) 0.4115(2) 0.5439(2)
C21_3 C 0.3784(3) 0.3306(2) 0.4648(2)
H3_3 H 0.2214 0.3596 0.6276
H4_3 H 0.1785 0.3763 0.8153
H5_3 H 0.2909 0.3112 0.5680
H6_3 H 0.3834 0.3108 0.7545
H7_3 H 0.3234 0.3422 0.9812
H10_3 H 0.3254 0.3418 0.4578
H11_3 H 0.3978 0.3097 0.4266
H12_3 H 0.4389 0.2770 0.5317
H13_3 H 0.1463 0.4555 0.6328
H14_3 H 0.2588 0.4146 0.8904
H15_3 H 0.0122 0.4871 0.6862
Cu7_2 Cu 0.52299(3) 0.16596(3) 0.43032(2)
Cu8_3 Cu 0.02299(3) 0.66596(3) 0.56968(2)
O21_2 O 0.19361(19) 0.32026(17) 0.52280(16)
O22_2 O 0.1014(2) 0.31603(16) 0.45191(14)
O23_3 O 0.01250(18) 0.41866(15) 0.39306(15)
H17_3 H 0.0187369 0.290037 0.323704
H18_3 H 0.190665 0.427386 0.342721
H19_3 H 0.244853 0.377619 0.383387
Cu2_2 Cu 0.97701(3) 0.33404(3) 0.43032(2)
O5_3 O 0.9673(2) 0.29460(17) 0.34298(16)
O6_3 O 0.9655(2) 0.37071(18) 0.51511(15)
O10_3 O 0.98750(18) 0.58134(15) 0.60694(15)
C2_3 C 0.9783(3) 0.4327(2) 0.6085(2)
O19_3 O 0.9415(3) 0.2486(2) 0.46551(19)
H1_3 H 0.9309 0.4567 0.6025
H2_3 H 0.9671 0.3930 0.6330
Cu6_3 Cu 0.86630(3) 0.58833(3) 0.54910(2)
O20_3 O 0.88744(19) 0.43425(18) 0.39130(16)
H16_3 H 0.935428 0.324293 0.316111
H20_3 H 0.977194 0.212502 0.452821
H21_3 H 0.939635 0.25161 0.512571
O12_4 O 0.0987(2) 0.0633(2) 0.03592(18)
C8_4 C 0.2789(3) 0.0191(3) 0.0079(2)
C20_4 C 0.2560(3) 0.0925(3) 0.0129(2)
O18_4 O 0.0093(3) 0.0567(3) 0.1565(2)
H8_4 H 0.2415 0.1018 0.0560
H9_4 H 0.3001 0.1198 0.0026
H22_4 H 0.00613866 0.106111 0.154001
O3_4 O 0.0666(3) 0.1984(4) 0.6450(2)
O4_4 O 0.42971(18) 0.06458(15) 0.52492(14)
O5_4 O 0.5327(2) 0.20540(17) 0.34298(16)
O6_4 O 0.5345(2) 0.12929(18) 0.51511(15)
O7_4 O 0.1289(4) 0.1918(3) 0.8748(2)
O9_4 O 0.4420(2) 0.11316(19) 0.74621(15)
N1_4 N 0.2149(2) 0.1144(2) 0.90297(18)
O14_4 O 0.0878(2) 0.0415(2) 0.93176(16)
O15_4 O 0.0536(2) 0.09377(18) 0.53114(18)
C1_4 C 0.1898(3) 0.1695(3) 0.6827(2)
O16_4 O 0.3087(2) 0.1113(2) 0.37220(17)
C2_4 C 0.5217(3) 0.0673(2) 0.6085(2)
N2_4 N 0.3967(2) 0.0570(2) 0.65998(18)
C3_4 C 0.2625(3) 0.1450(3) 0.6694(2)
C4_4 C 0.2869(3) 0.1326(3) 0.7819(2)
C5_4 C 0.1406(3) 0.2898(2) 0.4974(2)
N3_4 N 0.1616(2) 0.1976(2) 0.57409(17)
C6_4 C 0.1840(3) 0.1549(3) 0.8614(2)
C7_4 C 0.1341(3) 0.1909(3) 0.6318(2)
C10_4 C 0.3107(3) 0.1274(3) 0.7191(2)
C11_4 C 0.2126(3) 0.1528(3) 0.7948(2)
C12_4 C 0.1650(3) 0.1732(3) 0.7454(2)
C13_4 C 0.1199(3) 0.0675(3) 0.9785(2)
C14_4 C 0.3892(3) 0.0995(2) 0.7088(2)
C15_4 C 0.4682(3) 0.0235(2) 0.6470(2)
C16_4 C 0.1911(3) 0.1123(3) 0.9693(2)
C17_4 C 0.0765(3) 0.1040(3) 0.4764(2)
C18_4 C 0.1162(3) 0.2192(2) 0.5197(2)
C19_4 C 0.4921(3) 0.0885(2) 0.5439(2)
C21_4 C 0.1216(3) 0.1694(2) 0.4648(2)
O19_4 O 0.5585(3) 0.2514(2) 0.46551(19)
H1_4 H 0.5691 0.0433 0.6025
H2_4 H 0.5329 0.1070 0.6330
H3_4 H 0.2786 0.1404 0.6276
H4_4 H 0.3215 0.1237 0.8153
H5_4 H 0.2091 0.1888 0.5680
H6_4 H 0.1166 0.1892 0.7545
H7_4 H 0.1766 0.1578 0.9812
H10_4 H 0.1746 0.1582 0.4578
H11_4 H 0.1022 0.1903 0.4266
H12_4 H 0.0611 0.2230 0.5317
H13_4 H 0.3537 0.0445 0.6328
H14_4 H 0.2412 0.0854 0.8904
H15_4 H 0.4878 0.0129 0.6862
O20_4 O 0.61256(19) 0.06575(18) 0.39130(16)
O23_4 O 0.48750(18) 0.08134(15) 0.39306(15)
H16_4 H 0.564572 0.175707 0.316111
H17_4 H 0.481263 0.209963 0.323704
H18_4 H 0.309335 0.072614 0.342721
H19_4 H 0.255147 0.122381 0.383387
H20_4 H 0.522806 0.287498 0.452821
H21_4 H 0.560365 0.24839 0.512571
O1_4 O 0.38744(19) 0.93425(18) 0.60870(16)
O10_4 O 0.51250(18) 0.91866(15) 0.60694(15)
O17_4 O 0.2589(3) 0.9840(2) 0.9627(2)
C9_4 C 0.4529(3) 0.9544(2) 0.61774(18)
Cu6_4 Cu 0.63370(3) 0.91167(3) 0.54910(2)
Cu8_4 Cu 0.47701(3) 0.83404(3) 0.56968(2)
O27_4 O 0.9464(2) 0.09377(18) 0.03114(18)
H23_4 H 0.965565 0.0393875 0.181544
O26_4 O 0.9122(2) 0.9585(2) 0.06824(16)
O6_5 O 0.0345(2) 0.37071(18) 0.01511(15)
C2_5 C 0.0217(3) 0.4327(2) 0.1085(2)
H1_5 H 0.0691 0.4567 0.1025
H2_5 H 0.0329 0.3930 0.1330
H21_5 H 0.0603647 0.25161 0.0125707
O5_5 O 0.0327(2) 0.29460(17) 0.84298(16)
O19_5 O 0.0585(3) 0.2486(2) 0.96551(19)
H16_5 H 0.0645722 0.324293 0.816111
H20_5 H 0.0228055 0.212502 0.952821
O2_3 O 0.69361(19) 0.17974(17) 0.02280(16)
O3_5 O 0.5666(3) 0.3016(4) 0.1450(2)
O4_5 O 0.92971(18) 0.43542(15) 0.02492(14)
O7_5 O 0.6289(4) 0.3082(3) 0.3748(2)
O9_5 O 0.9420(2) 0.38684(19) 0.24621(15)
N1_5 N 0.7149(2) 0.3856(2) 0.40297(18)
O11_3 O 0.8227(2) 0.50043(18) 0.55253(16)
O12_5 O 0.5987(2) 0.4367(2) 0.53592(18)
C1_5 C 0.6898(3) 0.3305(3) 0.1827(2)
O17_5 O 0.7589(3) 0.5160(2) 0.4627(2)
N2_5 N 0.8967(2) 0.4430(2) 0.15998(18)
C3_5 C 0.7625(3) 0.3550(3) 0.1694(2)
C4_5 C 0.7869(3) 0.3674(3) 0.2819(2)
N3_5 N 0.6616(2) 0.3024(2) 0.07409(17)
C6_5 C 0.6840(3) 0.3451(3) 0.3614(2)
C7_5 C 0.6341(3) 0.3091(3) 0.1318(2)
C8_5 C 0.7789(3) 0.4809(3) 0.5079(2)
C9_5 C 0.9529(3) 0.5456(2) 0.11774(18)
C10_5 C 0.8107(3) 0.3726(3) 0.2191(2)
C11_5 C 0.7126(3) 0.3472(3) 0.2948(2)
C12_5 C 0.6650(3) 0.3268(3) 0.2454(2)
C13_5 C 0.6199(3) 0.4325(3) 0.4785(2)
C14_5 C 0.8892(3) 0.4005(2) 0.2088(2)
C15_5 C 0.9682(3) 0.4765(2) 0.1470(2)
C16_5 C 0.6911(3) 0.3877(3) 0.4693(2)
C18_5 C 0.6162(3) 0.2808(2) 0.0197(2)
C19_5 C 0.9921(3) 0.4115(2) 0.0439(2)
C20_5 C 0.7560(3) 0.4075(3) 0.5129(2)
O18_5 O 0.5093(3) 0.4433(3) 0.6565(2)
H3_5 H 0.7786 0.3596 0.1276
H4_5 H 0.8215 0.3763 0.3153
H5_5 H 0.7091 0.3112 0.0680
H6_5 H 0.6166 0.3108 0.2545
H7_5 H 0.6766 0.3422 0.4812
H8_5 H 0.7415 0.3982 0.5560
H9_5 H 0.8001 0.3802 0.5026
H12_5 H 0.5611 0.2770 0.0317
H13_5 H 0.8537 0.4555 0.1328
H14_5 H 0.7412 0.4146 0.3904
H15_5 H 0.9878 0.4871 0.1862
O21_3 O 0.80639(19) 0.32026(17) 0.02280(16)
O25_3 O 0.5676(2) 0.5666(2) 0.57078(18)
H22_5 H 0.506139 0.393889 0.654001
H23_5 H 0.465565 0.460613 0.681544
O8_3 O 0.6014(2) 0.18397(16) 0.95191(14)
O13_3 O 0.5676(2) 0.4334(2) 0.92922(18)
O16_5 O 0.8087(2) 0.3887(2) 0.87220(17)
C5_5 C 0.6406(3) 0.2102(2) 0.9974(2)
C17_5 C 0.5765(3) 0.3960(3) 0.9764(2)
C21_5 C 0.6216(3) 0.3306(2) 0.9648(2)
H10_5 H 0.6746 0.3418 0.9578
H11_5 H 0.6022 0.3097 0.9266
O22_3 O 0.8986(2) 0.31603(16) 0.95191(14)
O24_3 O 0.8227(2) 0.49957(18) 0.94747(16)
H17_5 H 0.981263 0.290037 0.823704
H18_5 H 0.809335 0.427386 0.842721
H19_5 H 0.755147 0.377619 0.883387
H23_6 H 0.0344351 0.0393875 0.681544
O3_6 O 0.9334(3) 0.1984(4) 0.1450(2)
O4_6 O 0.57029(18) 0.06458(15) 0.02492(14)
O6_6 O 0.4655(2) 0.12929(18) 0.01511(15)
O7_6 O 0.8711(4) 0.1918(3) 0.3748(2)
O9_6 O 0.5580(2) 0.11316(19) 0.24621(15)
N1_6 N 0.7851(2) 0.1144(2) 0.40297(18)
O12_6 O 0.9013(2) 0.0633(2) 0.53592(18)
C1_6 C 0.8102(3) 0.1695(3) 0.1827(2)
C2_6 C 0.4783(3) 0.0673(2) 0.1085(2)
N2_6 N 0.6033(2) 0.0570(2) 0.15998(18)
C3_6 C 0.7375(3) 0.1450(3) 0.1694(2)
C4_6 C 0.7131(3) 0.1326(3) 0.2819(2)
N3_6 N 0.8384(2) 0.1976(2) 0.07409(17)
C6_6 C 0.8160(3) 0.1549(3) 0.3614(2)
C7_6 C 0.8659(3) 0.1909(3) 0.1318(2)
C8_6 C 0.7211(3) 0.0191(3) 0.5079(2)
C10_6 C 0.6893(3) 0.1274(3) 0.2191(2)
C11_6 C 0.7874(3) 0.1528(3) 0.2948(2)
C12_6 C 0.8350(3) 0.1732(3) 0.2454(2)
C13_6 C 0.8801(3) 0.0675(3) 0.4785(2)
C14_6 C 0.6108(3) 0.0995(2) 0.2088(2)
C15_6 C 0.5318(3) 0.0235(2) 0.1470(2)
C16_6 C 0.8089(3) 0.1123(3) 0.4693(2)
C18_6 C 0.8838(3) 0.2192(2) 0.0197(2)
C19_6 C 0.5079(3) 0.0885(2) 0.0439(2)
C20_6 C 0.7440(3) 0.0925(3) 0.5129(2)
O18_6 O 0.9907(3) 0.0567(3) 0.6565(2)
H1_6 H 0.4309 0.0433 0.1025
H2_6 H 0.4671 0.1070 0.1330
H3_6 H 0.7214 0.1404 0.1276
H4_6 H 0.6785 0.1237 0.3153
H5_6 H 0.7909 0.1888 0.0680
H6_6 H 0.8834 0.1892 0.2545
H7_6 H 0.8234 0.1578 0.4812
H8_6 H 0.7585 0.1018 0.5560
H9_6 H 0.6999 0.1198 0.5026
H12_6 H 0.9389 0.2230 0.0317
H13_6 H 0.6463 0.0445 0.1328
H14_6 H 0.7588 0.0854 0.3904
H15_6 H 0.5122 0.0129 0.1862
H21_6 H 0.439635 0.24839 0.0125707
H22_6 H 0.993861 0.106111 0.654001
O5_6 O 0.4673(2) 0.20540(17) 0.84298(16)
O13_4 O 0.9324(2) 0.0666(2) 0.92922(18)
O16_6 O 0.6913(2) 0.1113(2) 0.87220(17)
C5_6 C 0.8594(3) 0.2898(2) 0.9974(2)
C17_6 C 0.9235(3) 0.1040(3) 0.9764(2)
C21_6 C 0.8784(3) 0.1694(2) 0.9648(2)
O19_6 O 0.4415(3) 0.2514(2) 0.96551(19)
H10_6 H 0.8254 0.1582 0.9578
H11_6 H 0.8978 0.1903 0.9266
O24_4 O 0.6773(2) 0.00043(18) 0.94747(16)
H16_6 H 0.435428 0.175707 0.816111
H17_6 H 0.518737 0.209963 0.823704
H18_6 H 0.690665 0.072614 0.842721
H19_6 H 0.744853 0.122381 0.883387
H20_6 H 0.477194 0.287498 0.952821
O11_4 O 0.6773(2) 0.99957(18) 0.55253(16)
O17_6 O 0.7411(3) 0.9840(2) 0.4627(2)
C9_6 C 0.5471(3) 0.9544(2) 0.11774(18)
O25_4 O 0.9324(2) 0.9334(2) 0.57078(18)
O5_7 O 0.0327(2) 0.70540(17) 0.65702(16)
O6_7 O 0.0345(2) 0.62929(18) 0.48489(15)
C2_7 C 0.0217(3) 0.5673(2) 0.3915(2)
O19_7 O 0.0585(3) 0.7514(2) 0.53449(19)
H1_7 H 0.0691 0.5433 0.3975
H2_7 H 0.0329 0.6070 0.3670
H16_7 H 0.0645722 0.675707 0.683889
H20_7 H 0.0228055 0.787498 0.547179
H21_7 H 0.0603647 0.74839 0.487429
O2_4 O 0.69361(19) 0.82026(17) 0.47720(16)
O3_7 O 0.5666(3) 0.6984(4) 0.3550(2)
O4_7 O 0.92971(18) 0.56458(15) 0.47508(14)
O7_7 O 0.6289(4) 0.6918(3) 0.1252(2)
O8_4 O 0.6014(2) 0.81603(16) 0.54809(14)
O9_7 O 0.9420(2) 0.61316(19) 0.25379(15)
N1_7 N 0.7149(2) 0.6144(2) 0.09703(18)
C1_7 C 0.6898(3) 0.6695(3) 0.3173(2)
O16_7 O 0.8087(2) 0.6113(2) 0.62780(17)
O17_7 O 0.7589(3) 0.4840(2) 0.0373(2)
N2_7 N 0.8967(2) 0.5570(2) 0.34002(18)
C3_7 C 0.7625(3) 0.6450(3) 0.3306(2)
C4_7 C 0.7869(3) 0.6326(3) 0.2181(2)
C5_7 C 0.6406(3) 0.7898(2) 0.5026(2)
N3_7 N 0.6616(2) 0.6976(2) 0.42591(17)
C6_7 C 0.6840(3) 0.6549(3) 0.1386(2)
C7_7 C 0.6341(3) 0.6909(3) 0.3682(2)
C9_7 C 0.9529(3) 0.4544(2) 0.38226(18)
C10_7 C 0.8107(3) 0.6274(3) 0.2809(2)
C11_7 C 0.7126(3) 0.6528(3) 0.2052(2)
C12_7 C 0.6650(3) 0.6732(3) 0.2546(2)
C13_7 C 0.6199(3) 0.5675(3) 0.0215(2)
C14_7 C 0.8892(3) 0.5995(2) 0.2912(2)
C15_7 C 0.9682(3) 0.5235(2) 0.3530(2)
C16_7 C 0.6911(3) 0.6123(3) 0.0307(2)
C17_7 C 0.5765(3) 0.6040(3) 0.5236(2)
C18_7 C 0.6162(3) 0.7192(2) 0.4803(2)
C19_7 C 0.9921(3) 0.5885(2) 0.4561(2)
C21_7 C 0.6216(3) 0.6694(2) 0.5352(2)
H3_7 H 0.7786 0.6404 0.3724
H4_7 H 0.8215 0.6237 0.1847
H5_7 H 0.7091 0.6888 0.4320
H6_7 H 0.6166 0.6892 0.2455
H7_7 H 0.6766 0.6578 0.0188
H10_7 H 0.6746 0.6582 0.5422
H11_7 H 0.6022 0.6903 0.5734
H12_7 H 0.5611 0.7230 0.4683
H13_7 H 0.8537 0.5445 0.3672
H14_7 H 0.7412 0.5854 0.1096
H15_7 H 0.9878 0.5129 0.3138
O21_4 O 0.80639(19) 0.67974(17) 0.47720(16)
O22_4 O 0.8986(2) 0.68397(16) 0.54809(14)
H17_7 H 0.981263 0.709963 0.676296
H18_7 H 0.809335 0.572614 0.657279
H19_7 H 0.755147 0.622381 0.616613
O12_7 O 0.5987(2) 0.5633(2) 0.96408(18)
C8_7 C 0.7789(3) 0.5191(3) 0.9921(2)
C20_7 C 0.7560(3) 0.5925(3) 0.9871(2)
O18_7 O 0.5093(3) 0.5567(3) 0.8435(2)
H8_7 H 0.7415 0.6018 0.9440
H9_7 H 0.8001 0.6198 0.9974
H22_7 H 0.506139 0.606111 0.845999
H23_7 H 0.465565 0.539387 0.818456
H23_8 H 0.0344351 0.960613 0.818456
O17_8 O 0.7411(3) 0.0160(2) 0.0373(2)
C9_8 C 0.5471(3) 0.0456(2) 0.38226(18)
O3_8 O 0.9334(3) 0.8016(4) 0.3550(2)
O4_8 O 0.57029(18) 0.93542(15) 0.47508(14)
O5_8 O 0.4673(2) 0.79460(17) 0.65702(16)
O6_8 O 0.4655(2) 0.87071(18) 0.48489(15)
O7_8 O 0.8711(4) 0.8082(3) 0.1252(2)
O9_8 O 0.5580(2) 0.88684(19) 0.25379(15)
N1_8 N 0.7851(2) 0.8856(2) 0.09703(18)
C1_8 C 0.8102(3) 0.8305(3) 0.3173(2)
O16_8 O 0.6913(2) 0.8887(2) 0.62780(17)
C2_8 C 0.4783(3) 0.9327(2) 0.3915(2)
N2_8 N 0.6033(2) 0.9430(2) 0.34002(18)
C3_8 C 0.7375(3) 0.8550(3) 0.3306(2)
C4_8 C 0.7131(3) 0.8674(3) 0.2181(2)
C5_8 C 0.8594(3) 0.7102(2) 0.5026(2)
N3_8 N 0.8384(2) 0.8024(2) 0.42591(17)
C6_8 C 0.8160(3) 0.8451(3) 0.1386(2)
C7_8 C 0.8659(3) 0.8091(3) 0.3682(2)
C10_8 C 0.6893(3) 0.8726(3) 0.2809(2)
C11_8 C 0.7874(3) 0.8472(3) 0.2052(2)
C12_8 C 0.8350(3) 0.8268(3) 0.2546(2)
C13_8 C 0.8801(3) 0.9325(3) 0.0215(2)
C14_8 C 0.6108(3) 0.9005(2) 0.2912(2)
C15_8 C 0.5318(3) 0.9765(2) 0.3530(2)
C16_8 C 0.8089(3) 0.8877(3) 0.0307(2)
C17_8 C 0.9235(3) 0.8960(3) 0.5236(2)
C18_8 C 0.8838(3) 0.7808(2) 0.4803(2)
C19_8 C 0.5079(3) 0.9115(2) 0.4561(2)
C21_8 C 0.8784(3) 0.8306(2) 0.5352(2)
O19_8 O 0.4415(3) 0.7486(2) 0.53449(19)
H1_8 H 0.4309 0.9567 0.3975
H2_8 H 0.4671 0.8930 0.3670
H3_8 H 0.7214 0.8596 0.3724
H4_8 H 0.6785 0.8763 0.1847
H5_8 H 0.7909 0.8112 0.4320
H6_8 H 0.8834 0.8108 0.2455
H7_8 H 0.8234 0.8422 0.0188
H10_8 H 0.8254 0.8418 0.5422
H11_8 H 0.8978 0.8097 0.5734
H12_8 H 0.9389 0.7770 0.4683
H13_8 H 0.6463 0.9555 0.3672
H14_8 H 0.7588 0.9146 0.1096
H15_8 H 0.5122 0.9871 0.3138
H16_8 H 0.435428 0.824293 0.683889
H17_8 H 0.518737 0.790037 0.676296
H18_8 H 0.690665 0.927386 0.657279
H19_8 H 0.744853 0.877619 0.616613
H20_8 H 0.477194 0.712502 0.547179
H21_8 H 0.439635 0.75161 0.487429
O12_8 O 0.9013(2) 0.9367(2) 0.96408(18)
C8_8 C 0.7211(3) 0.9809(3) 0.9921(2)
C20_8 C 0.7440(3) 0.9075(3) 0.9871(2)
O18_8 O 0.9907(3) 0.9433(3) 0.8435(2)
H8_8 H 0.7585 0.8982 0.9440
H9_8 H 0.6999 0.8802 0.9974
H22_8 H 0.993861 0.893889 0.845999
loop_
_geom_bond_atom_site_label_1
_geom_bond_atom_site_label_2
_geom_bond_site_symmetry_1
_geom_bond_site_symmetry_2
O8 C5 1_555 1_555
O13 C17 1_555 1_555
O16 Cu1 1_555 1_555
C17 C21 1_555 1_555
H10 C21 1_555 1_555
H11 C21 1_555 1_555
Cu7 O8 1_555 1_555
O22 Cu1 1_555 1_555
O23 Cu1 1_555 1_555
O24 Cu1 1_555 1_555
Cu9 O13 1_555 1_555
O8 Cu4 1_555 1_555
O16 H18 1_555 1_555
O16 H19 1_555 1_555
O1 C9 1_555 1_555
O3 C7 1_555 1_555
O4 C19 1_555 1_555
O7 C6 1_555 1_555
O9 C14 1_555 1_555
N1 C6 1_555 1_555
O11 C8 1_555 1_555
O12 C13 1_555 1_555
O14 C13 1_555 1_555
C1 C3 1_555 1_555
O17 C8 1_555 1_555
N2 C14 1_555 1_555
C3 C10 1_555 1_555
C4 C10 1_555 1_555
N3 C7 1_555 1_555
C6 C11 1_555 1_555
C7 C1 1_555 1_555
C8 C20 1_555 1_555
C9 C15 1_555 1_555
C10 C14 1_555 1_555
C11 C4 1_555 1_555
C12 C1 1_555 1_555
C13 C16 1_555 1_555
C15 N2 1_555 1_555
C16 N1 1_555 1_555
C18 N3 1_555 1_555
C20 C16 1_555 1_555
Cu3 O12 1_555 1_555
O18 Cu3 1_555 1_555
H3 C3 1_555 1_555
H4 C4 1_555 1_555
H5 N3 1_555 1_555
H6 C12 1_555 1_555
H7 C16 1_555 1_555
H8 C20 1_555 1_555
H9 C20 1_555 1_555
H12 C18 1_555 1_555
H13 N2 1_555 1_555
H14 N1 1_555 1_555
H15 C15 1_555 1_555
Cu5 O11 1_555 1_555
Cu8 O1 1_555 1_555
O25 Cu3 1_555 1_555
O26 Cu3 1_555 1_555
O27 Cu3 1_555 1_555
Cu10 O14 1_555 1_555
Cu11 O15 1_555 1_555
C11 C12 1_555 1_555
O18 H22 1_555 1_555
O18 H23 1_555 1_555
Cu2 O5 1_555 1_555
O19 Cu2 1_555 1_555
O20 Cu2 1_555 1_555
O5 H16 1_555 1_555
O19 H20 1_555 1_555
H1 C2 1_555 1_555
H2 C2 1_555 1_555
Cu6 O10 1_555 1_555
O1_2 C9_2 1_555 1_555
O10_2 C9_2 1_555 1_555
Cu5_2 O11_2 1_555 1_555
Cu6_2 O10_2 1_555 1_555
Cu8_2 O1_2 1_555 1_555
O10_2 Cu8_2 1_555 1_555
Cu7 O5_2 1_555 1_555
O22 C5_2 1_555 1_555
O13_2 C17_2 1_555 1_555
O16_2 Cu4 1_555 1_555
C17_2 C21_2 1_555 1_555
O19_2 Cu7 1_555 1_555
H10_2 C21_2 1_555 1_555
H11_2 C21_2 1_555 1_555
O20_2 Cu7 1_555 1_555
O23_2 Cu4 1_555 1_555
O24_2 Cu4 1_555 1_555
Cu7 O23_2 1_555 1_555
O5_2 H16_2 1_555 1_555
O5_2 H17_2 1_555 1_555
O16_2 H18_2 1_555 1_555
O16_2 H19_2 1_555 1_555
O19_2 H20_2 1_555 1_555
O3_2 C7_2 1_555 1_555
O4_2 C19_2 1_555 1_555
O7_2 C6_2 1_555 1_555
O9_2 C14_2 1_555 1_555
N1_2 C6_2 1_555 1_555
O12_2 C13_2 1_555 1_555
O14_2 C13_2 1_555 1_555
C1_2 C3_2 1_555 1_555
C2_2 C15_2 1_555 1_555
N2_2 C14_2 1_555 1_555
C3_2 C10_2 1_555 1_555
C4_2 C10_2 1_555 1_555
N3_2 C7_2 1_555 1_555
C6_2 C11_2 1_555 1_555
C7_2 C1_2 1_555 1_555
C8_2 C20_2 1_555 1_555
C10_2 C14_2 1_555 1_555
C11_2 C4_2 1_555 1_555
C12_2 C1_2 1_555 1_555
C13_2 C16_2 1_555 1_555
C15_2 N2_2 1_555 1_555
C16_2 N1_2 1_555 1_555
C18_2 N3_2 1_555 1_555
C19_2 O6_2 1_555 1_555
C20_2 C16_2 1_555 1_555
Cu3_2 O12_2 1_555 1_555
O18_2 Cu3_2 1_555 1_555
H1_2 C2_2 1_555 1_555
H2_2 C2_2 1_555 1_555
H3_2 C3_2 1_555 1_555
H4_2 C4_2 1_555 1_555
H5_2 N3_2 1_555 1_555
H6_2 C12_2 1_555 1_555
H7_2 C16_2 1_555 1_555
H8_2 C20_2 1_555 1_555
H9_2 C20_2 1_555 1_555
H12_2 C18_2 1_555 1_555
H13_2 N2_2 1_555 1_555
H14_2 N1_2 1_555 1_555
H15_2 C15_2 1_555 1_555
C2_2 C19_2 1_555 1_555
C11_2 C12_2 1_555 1_555
O18_2 H22_2 1_555 1_555
O24 C8_3 1_555 1_555
C8_3 C20_3 1_555 1_555
Cu9 O12_3 1_555 1_555
O18_3 Cu9 1_555 1_555
H8_3 C20_3 1_555 1_555
H9_3 C20_3 1_555 1_555
O26_3 Cu9 1_555 1_555
O27_3 Cu9 1_555 1_555
O18_3 H22_3 1_555 1_555
O18_3 H23_3 1_555 1_555
Cu5 O4_3 1_555 1_555
O1_3 C9_3 1_555 1_555
O2_2 C5_3 1_555 1_555
O3_3 C7_3 1_555 1_555
O4_3 C19_3 1_555 1_555
O7_3 C6_3 1_555 1_555
O8_2 C5_3 1_555 1_555
O9_3 C14_3 1_555 1_555
N1_3 C6_3 1_555 1_555
O25 C17_3 1_555 1_555
O14_3 C13_3 1_555 1_555
O15_3 C17_3 1_555 1_555
C1_3 C3_3 1_555 1_555
O16_3 Cu5 1_555 1_555
N2_3 C14_3 1_555 1_555
C3_3 C10_3 1_555 1_555
C4_3 C10_3 1_555 1_555
C5_3 C18_3 1_555 1_555
N3_3 C7_3 1_555 1_555
C6_3 C11_3 1_555 1_555
C7_3 C1_3 1_555 1_555
C9_3 C15_3 1_555 1_555
C10_3 C14_3 1_555 1_555
C11_3 C4_3 1_555 1_555
C12_3 C1_3 1_555 1_555
C13_3 C16_3 1_555 1_555
C15_3 N2_3 1_555 1_555
C16_3 N1_3 1_555 1_555
C17_3 C21_3 1_555 1_555
C18_3 N3_3 1_555 1_555
C21_3 C18_3 1_555 1_555
H3_3 C3_3 1_555 1_555
H4_3 C4_3 1_555 1_555
H5_3 N3_3 1_555 1_555
H6_3 C12_3 1_555 1_555
H7_3 C16_3 1_555 1_555
H10_3 C21_3 1_555 1_555
H11_3 C21_3 1_555 1_555
H12_3 C18_3 1_555 1_555
H13_3 N2_3 1_555 1_555
H14_3 N1_3 1_555 1_555
H15_3 C15_3 1_555 1_555
Cu5_2 O2_2 1_555 1_555
Cu7_2 O8_2 1_555 1_555
Cu8_3 O1_3 1_555 1_555
O21_2 Cu5 1_555 1_555
O22_2 Cu5 1_555 1_555
O23_3 Cu5 1_555 1_555
Cu11 O14_3 1_555 1_555
Cu10 O15_3 1_555 1_555
O8_2 Cu5_2 1_555 1_555
C11_3 C12_3 1_555 1_555
O16_3 H18_3 1_555 1_555
O16_3 H19_3 1_555 1_555
Cu2_2 O5_3 1_555 1_555
O6_3 Cu2_2 1_555 1_555
O19_3 Cu2_2 1_555 1_555
H1_3 C2_3 1_555 1_555
H2_3 C2_3 1_555 1_555
Cu6_3 O10_3 1_555 1_555
O20_3 Cu2_2 1_555 1_555
O5_3 H16_3 1_555 1_555
O19_3 H20_3 1_555 1_555
O19_3 H21_3 1_555 1_555
C8_4 C20_4 1_555 1_555
Cu9_2 O12_4 1_555 1_555
O18_4 Cu9_2 1_555 1_555
H8_4 C20_4 1_555 1_555
H9_4 C20_4 1_555 1_555
O18_4 H22_4 1_555 1_555
Cu5_2 O4_4 1_555 1_555
Cu7_2 O5_4 1_555 1_555
O21_2 C5_4 1_555 1_555
O3_4 C7_4 1_555 1_555
O4_4 C19_4 1_555 1_555
O6_4 Cu7_2 1_555 1_555
O7_4 C6_4 1_555 1_555
O22_2 C5_4 1_555 1_555
O9_4 C14_4 1_555 1_555
N1_4 C6_4 1_555 1_555
O25_2 C17_4 1_555 1_555
O14_4 C13_4 1_555 1_555
O15_4 C17_4 1_555 1_555
C1_4 C3_4 1_555 1_555
O16_4 Cu5_2 1_555 1_555
C2_4 C15_4 1_555 1_555
N2_4 C14_4 1_555 1_555
C3_4 C10_4 1_555 1_555
C4_4 C10_4 1_555 1_555
C5_4 C18_4 1_555 1_555
N3_4 C7_4 1_555 1_555
C6_4 C11_4 1_555 1_555
C7_4 C1_4 1_555 1_555
C10_4 C14_4 1_555 1_555
C11_4 C4_4 1_555 1_555
C12_4 C1_4 1_555 1_555
C13_4 C16_4 1_555 1_555
C15_4 N2_4 1_555 1_555
C16_4 N1_4 1_555 1_555
C17_4 C21_4 1_555 1_555
C18_4 N3_4 1_555 1_555
C19_4 O6_4 1_555 1_555
C21_4 C18_4 1_555 1_555
O19_4 Cu7_2 1_555 1_555
H1_4 C2_4 1_555 1_555
H2_4 C2_4 1_555 1_555
H3_4 C3_4 1_555 1_555
H4_4 C4_4 1_555 1_555
H5_4 N3_4 1_555 1_555
H6_4 C12_4 1_555 1_555
H7_4 C16_4 1_555 1_555
H10_4 C21_4 1_555 1_555
H11_4 C21_4 1_555 1_555
H12_4 C18_4 1_555 1_555
H13_4 N2_4 1_555 1_555
H14_4 N1_4 1_555 1_555
H15_4 C15_4 1_555 1_555
O20_4 Cu7_2 1_555 1_555
O23_4 Cu5_2 1_555 1_555
Cu7_2 O23_4 1_555 1_555
C2_4 C19_4 1_555 1_555
C11_4 C12_4 1_555 1_555
O5_4 H16_4 1_555 1_555
O5_4 H17_4 1_555 1_555
O16_4 H18_4 1_555 1_555
O16_4 H19_4 1_555 1_555
O19_4 H20_4 1_555 1_555
O19_4 H21_4 1_555 1_555
O1_4 C9_4 1_555 1_555
O10_4 C9_4 1_555 1_555
Cu6_4 O10_4 1_555 1_555
Cu8_4 O1_4 1_555 1_555
O10_4 Cu8_4 1_555 1_555
H1_5 C2_5 1_555 1_555
H2_5 C2_5 1_555 1_555
Cu8 O5_5 1_555 1_555
O19_5 Cu8 1_555 1_555
O5_5 H16_5 1_555 1_555
O19_5 H20_5 1_555 1_555
O20 C9_5 1_555 1_555
O3_5 C7_5 1_555 1_555
O4_5 C19_5 1_555 1_555
O7_5 C6_5 1_555 1_555
O9_5 C14_5 1_555 1_555
N1_5 C6_5 1_555 1_555
O11_3 C8_5 1_555 1_555
O12_5 C13_5 1_555 1_555
O26 C13_5 1_555 1_555
C1_5 C3_5 1_555 1_555
O17_5 C8_5 1_555 1_555
N2_5 C14_5 1_555 1_555
C3_5 C10_5 1_555 1_555
C4_5 C10_5 1_555 1_555
N3_5 C7_5 1_555 1_555
C6_5 C11_5 1_555 1_555
C7_5 C1_5 1_555 1_555
C8_5 C20_5 1_555 1_555
C9_5 C15_5 1_555 1_555
C10_5 C14_5 1_555 1_555
C11_5 C4_5 1_555 1_555
C12_5 C1_5 1_555 1_555
C13_5 C16_5 1_555 1_555
C15_5 N2_5 1_555 1_555
C16_5 N1_5 1_555 1_555
C18_5 N3_5 1_555 1_555
C20_5 C16_5 1_555 1_555
Cu10 O12_5 1_555 1_555
O18_5 Cu10 1_555 1_555
H3_5 C3_5 1_555 1_555
H4_5 C4_5 1_555 1_555
H5_5 N3_5 1_555 1_555
H6_5 C12_5 1_555 1_555
H7_5 C16_5 1_555 1_555
H8_5 C20_5 1_555 1_555
H9_5 C20_5 1_555 1_555
H12_5 C18_5 1_555 1_555
H13_5 N2_5 1_555 1_555
H14_5 N1_5 1_555 1_555
H15_5 C15_5 1_555 1_555
Cu6_3 O11_3 1_555 1_555
O25_3 Cu10 1_555 1_555
C11_5 C12_5 1_555 1_555
O18_5 H22_5 1_555 1_555
O18_5 H23_5 1_555 1_555
O8_3 C5_5 1_555 1_555
O13_3 C17_5 1_555 1_555
O16_5 Cu6 1_555 1_555
C17_5 C21_5 1_555 1_555
H10_5 C21_5 1_555 1_555
H11_5 C21_5 1_555 1_555
Cu8_2 O8_3 1_555 1_555
O22_3 Cu6 1_555 1_555
O24_3 Cu6 1_555 1_555
Cu11 O13_3 1_555 1_555
O8_3 Cu6_2 1_555 1_555
O16_5 H18_5 1_555 1_555
O16_5 H19_5 1_555 1_555
O3_6 C7_6 1_555 1_555
O4_6 C19_6 1_555 1_555
O7_6 C6_6 1_555 1_555
O9_6 C14_6 1_555 1_555
N1_6 C6_6 1_555 1_555
O12_6 C13_6 1_555 1_555
O26_2 C13_6 1_555 1_555
C1_6 C3_6 1_555 1_555
C2_6 C15_6 1_555 1_555
N2_6 C14_6 1_555 1_555
C3_6 C10_6 1_555 1_555
C4_6 C10_6 1_555 1_555
N3_6 C7_6 1_555 1_555
C6_6 C11_6 1_555 1_555
C7_6 C1_6 1_555 1_555
C8_6 C20_6 1_555 1_555
C10_6 C14_6 1_555 1_555
C11_6 C4_6 1_555 1_555
C12_6 C1_6 1_555 1_555
C13_6 C16_6 1_555 1_555
C15_6 N2_6 1_555 1_555
C16_6 N1_6 1_555 1_555
C18_6 N3_6 1_555 1_555
C19_6 O6_6 1_555 1_555
C20_6 C16_6 1_555 1_555
Cu10_2 O12_6 1_555 1_555
O18_6 Cu10_2 1_555 1_555
H1_6 C2_6 1_555 1_555
H2_6 C2_6 1_555 1_555
H3_6 C3_6 1_555 1_555
H4_6 C4_6 1_555 1_555
H5_6 N3_6 1_555 1_555
H6_6 C12_6 1_555 1_555
H7_6 C16_6 1_555 1_555
H8_6 C20_6 1_555 1_555
H9_6 C20_6 1_555 1_555
H12_6 C18_6 1_555 1_555
H13_6 N2_6 1_555 1_555
H14_6 N1_6 1_555 1_555
H15_6 C15_6 1_555 1_555
C2_6 C19_6 1_555 1_555
C11_6 C12_6 1_555 1_555
O18_6 H22_6 1_555 1_555
Cu8_2 O5_6 1_555 1_555
O22_3 C5_6 1_555 1_555
O13_4 C17_6 1_555 1_555
O16_6 Cu6_2 1_555 1_555
C17_6 C21_6 1_555 1_555
O19_6 Cu8_2 1_555 1_555
H10_6 C21_6 1_555 1_555
H11_6 C21_6 1_555 1_555
O24_4 Cu6_2 1_555 1_555
O5_6 H16_6 1_555 1_555
O5_6 H17_6 1_555 1_555
O16_6 H18_6 1_555 1_555
O16_6 H19_6 1_555 1_555
O19_6 H20_6 1_555 1_555
O20_2 C9_6 1_555 1_555
O23_2 C9_6 1_555 1_555
Cu6_4 O11_4 1_555 1_555
Cu8_3 O5_7 1_555 1_555
O6_7 Cu8_3 1_555 1_555
O19_7 Cu8_3 1_555 1_555
H1_7 C2_7 1_555 1_555
H2_7 C2_7 1_555 1_555
O5_7 H16_7 1_555 1_555
O19_7 H20_7 1_555 1_555
O19_7 H21_7 1_555 1_555
Cu6_3 O4_7 1_555 1_555
O20_3 C9_7 1_555 1_555
O2_4 C5_7 1_555 1_555
O3_7 C7_7 1_555 1_555
O4_7 C19_7 1_555 1_555
O7_7 C6_7 1_555 1_555
O8_4 C5_7 1_555 1_555
O9_7 C14_7 1_555 1_555
N1_7 C6_7 1_555 1_555
O25_3 C17_7 1_555 1_555
O26_3 C13_7 1_555 1_555
O27 C17_7 1_555 1_555
C1_7 C3_7 1_555 1_555
O16_7 Cu6_3 1_555 1_555
N2_7 C14_7 1_555 1_555
C3_7 C10_7 1_555 1_555
C4_7 C10_7 1_555 1_555
C5_7 C18_7 1_555 1_555
N3_7 C7_7 1_555 1_555
C6_7 C11_7 1_555 1_555
C7_7 C1_7 1_555 1_555
C9_7 C15_7 1_555 1_555
C10_7 C14_7 1_555 1_555
C11_7 C4_7 1_555 1_555
C12_7 C1_7 1_555 1_555
C13_7 C16_7 1_555 1_555
C15_7 N2_7 1_555 1_555
C16_7 N1_7 1_555 1_555
C17_7 C21_7 1_555 1_555
C18_7 N3_7 1_555 1_555
C21_7 C18_7 1_555 1_555
H3_7 C3_7 1_555 1_555
H4_7 C4_7 1_555 1_555
H5_7 N3_7 1_555 1_555
H6_7 C12_7 1_555 1_555
H7_7 C16_7 1_555 1_555
H10_7 C21_7 1_555 1_555
H11_7 C21_7 1_555 1_555
H12_7 C18_7 1_555 1_555
H13_7 N2_7 1_555 1_555
H14_7 N1_7 1_555 1_555
H15_7 C15_7 1_555 1_555
Cu6_4 O2_4 1_555 1_555
Cu8_4 O8_4 1_555 1_555
O21_4 Cu6_3 1_555 1_555
O22_4 Cu6_3 1_555 1_555
O8_4 Cu6_4 1_555 1_555
C11_7 C12_7 1_555 1_555
O16_7 H18_7 1_555 1_555
O16_7 H19_7 1_555 1_555
O24_3 C8_7 1_555 1_555
C8_7 C20_7 1_555 1_555
Cu11 O12_7 1_555 1_555
O18_7 Cu11 1_555 1_555
H8_7 C20_7 1_555 1_555
H9_7 C20_7 1_555 1_555
O18_7 H22_7 1_555 1_555
O18_7 H23_7 1_555 1_555
O20_4 C9_8 1_555 1_555
O23_4 C9_8 1_555 1_555
Cu6_4 O4_8 1_555 1_555
Cu8_4 O5_8 1_555 1_555
O21_4 C5_8 1_555 1_555
O3_8 C7_8 1_555 1_555
O4_8 C19_8 1_555 1_555
O6_8 Cu8_4 1_555 1_555
O7_8 C6_8 1_555 1_555
O22_4 C5_8 1_555 1_555
O9_8 C14_8 1_555 1_555
N1_8 C6_8 1_555 1_555
O25_4 C17_8 1_555 1_555
O26_4 C13_8 1_555 1_555
O27_2 C17_8 1_555 1_555
C1_8 C3_8 1_555 1_555
O16_8 Cu6_4 1_555 1_555
C2_8 C15_8 1_555 1_555
N2_8 C14_8 1_555 1_555
C3_8 C10_8 1_555 1_555
C4_8 C10_8 1_555 1_555
C5_8 C18_8 1_555 1_555
N3_8 C7_8 1_555 1_555
C6_8 C11_8 1_555 1_555
C7_8 C1_8 1_555 1_555
C10_8 C14_8 1_555 1_555
C11_8 C4_8 1_555 1_555
C12_8 C1_8 1_555 1_555
C13_8 C16_8 1_555 1_555
C15_8 N2_8 1_555 1_555
C16_8 N1_8 1_555 1_555
C17_8 C21_8 1_555 1_555
C18_8 N3_8 1_555 1_555
C19_8 O6_8 1_555 1_555
C21_8 C18_8 1_555 1_555
O19_8 Cu8_4 1_555 1_555
H1_8 C2_8 1_555 1_555
H2_8 C2_8 1_555 1_555
H3_8 C3_8 1_555 1_555
H4_8 C4_8 1_555 1_555
H5_8 N3_8 1_555 1_555
H6_8 C12_8 1_555 1_555
H7_8 C16_8 1_555 1_555
H10_8 C21_8 1_555 1_555
H11_8 C21_8 1_555 1_555
H12_8 C18_8 1_555 1_555
H13_8 N2_8 1_555 1_555
H14_8 N1_8 1_555 1_555
H15_8 C15_8 1_555 1_555
C2_8 C19_8 1_555 1_555
C11_8 C12_8 1_555 1_555
O5_8 H16_8 1_555 1_555
O5_8 H17_8 1_555 1_555
O16_8 H18_8 1_555 1_555
O16_8 H19_8 1_555 1_555
O19_8 H20_8 1_555 1_555
O19_8 H21_8 1_555 1_555
C8_8 C20_8 1_555 1_555
Cu11_2 O12_8 1_555 1_555
O18_8 Cu11_2 1_555 1_555
H8_8 C20_8 1_555 1_555
H9_8 C20_8 1_555 1_555
O18_8 H22_8 1_555 1_555

#END
