
###############################################################################
#
# This file contains modified crystal structure data generated from the
# MOF subset of the Cambridge Structural Database (CSD) v543 
# hosted by the Cambridge Crystallographic Data Centre (CCDC).
#
# This work is licensed under the Creative Commons
# Attribution-NonCommercial-ShareAlike 4.0 International License.
# To view a copy of this license, visit
# http://creativecommons.org/licenses/by-nc-sa/4.0/
# or send a letter to
# Creative Commons, PO Box 1866, Mountain View, CA 94042, USA.
#
# CIF created using the CSD Python API on 29 September 2022
# The structure has been converted into the P1 space group
# The structure has a 3D framework
# The original CSD entry DOQCUK is in the orthorhombic crystal system
# The original CSD entry DOQCUK is in a Sohncke space group
# The framework has been calculated to contain at least 10.0% void space
# The void calculation uses a probe of radius 1.32A, grid spacing 0.4
#
###############################################################################

data_DOQCUK
_chemical_formula_moiety         '(C80 H76 Mg10 N4 O38)n'
_symmetry_cell_setting           triclinic
_symmetry_space_group_name_H-M   'P 1'
_symmetry_Int_Tables_number      1
_space_group_name_Hall           'P 1'
loop_
_symmetry_equiv_pos_site_id
_symmetry_equiv_pos_as_xyz
1 x,y,z
_cell_length_a                   12.5072(10)
_cell_length_b                   15.7460(13)
_cell_length_c                   16.3848(13)
_cell_angle_alpha                90
_cell_angle_beta                 90
_cell_angle_gamma                90
_cell_volume                     3226.8
loop_
_atom_site_label
_atom_site_type_symbol
_atom_site_fract_x
_atom_site_fract_y
_atom_site_fract_z
Mg5 Mg 0.01343(10) 0.73693(8) 0.00004(8)
Mg5_2 Mg 0.01343(10) 0.73693(8) 1.00004(8)
C3 C 0.3907(4) 0.0262(3) 0.7418(3)
H2 H 0.321609 0.047217 0.747587
O3 O 0.3200(3) 0.1467(2) 0.6298(2)
C4 C 0.4563(4) 0.0574(3) 0.6810(3)
O4 O 0.4879(3) 0.1695(2) 0.5879(2)
C5 C 0.5570(4) 0.0225(3) 0.6702(3)
H3 H 0.601262 0.042863 0.629019
C8 C 0.4187(4) 0.1303(3) 0.6279(3)
Mg4 Mg 0.48657(10) 0.26307(8) 0.50004(8)
Mg6 Mg 0.23741(10) 0.25658(8) 0.61030(9)
Mg1 Mg 0.51343(10) 0.76307(8) -0.00004(8)
Mg2 Mg 0.26259(10) 0.74342(8) 0.11030(9)
O5 O 0.3481(3) 0.63041(19) 0.1012(2)
C9 C 0.4750(4) 0.5449(3) 0.1677(3)
O6 O 0.5215(3) 0.6611(2) 0.0826(2)
C10 C 0.4075(4) 0.5264(4) 0.2324(3)
H5 H 0.345474 0.558053 0.239665
C11 C 0.4310(4) 0.4621(4) 0.2859(3)
H6 H 0.386406 0.451912 0.330225
O7 O 0.6233(3) 0.2938(2) 0.3176(2)
C12 C 0.5209(4) 0.4121(3) 0.2742(3)
O8 O 0.4965(3) 0.3439(2) 0.4012(2)
C13 C 0.5872(4) 0.4287(3) 0.2081(3)
H7 H 0.646582 0.394516 0.198874
C14 C 0.5659(4) 0.4953(3) 0.1559(3)
H8 H 0.612217 0.507145 0.112925
C15 C 0.4475(4) 0.6179(3) 0.1119(3)
C16 C 0.5485(4) 0.3439(3) 0.3363(3)
O9 O 0.6816(2) 0.77193(18) 0.00475(19)
C17 C 0.7635(3) 0.7482(3) 0.0440(3)
C18 C 0.7619(4) 0.7473(4) 0.1350(3)
H9 H 0.779628 0.802722 0.155201
H10 H 0.813153 0.706791 0.154649
H11 H 0.691807 0.731705 0.153598
O10 O 0.8448(2) 0.72592(18) 0.00417(19)
Mg7 Mg 0.73741(10) 0.24342(8) 0.38970(9)
O11 O 0.1569(3) 0.6731(2) 0.1755(2)
O12 O 0.1800(3) 0.8533(2) 0.1298(2)
O14 O 0.3767(3) 0.7938(2) 0.1824(2)
O15 O 0.5035(3) 0.8439(2) 0.0988(2)
Mg1_2 Mg 0.51343(10) 0.76307(8) 0.99996(8)
O1 O 0.5202(3) 0.8541(2) 0.9086(2)
C1 C 0.5289(4) 0.9291(3) 0.7841(3)
C2 C 0.4274(4) 0.9636(3) 0.7942(3)
H1 H 0.383853 0.944482 0.836376
O2 O 0.6569(3) 0.8269(2) 0.8245(2)
C6 C 0.5922(4) 0.9577(3) 0.7203(3)
H4 H 0.658704 0.933162 0.711143
C7 C 0.5717(4) 0.8642(3) 0.8440(3)
Mg8 Mg 0.76259(10) 0.75658(8) 0.88970(9)
O13 O 0.5121(3) 0.6695(2) 0.9121(2)
O16 O 0.1816(2) 0.72807(18) 0.99525(19)
O17 O 0.3448(2) 0.77408(18) 0.99583(19)
C2_2 C 0.0726(4) 0.0364(3) 0.2942(3)
H1_2 H 0.116147 0.055518 0.336376
O5_2 O 0.1519(3) 0.36959(19) 0.6012(2)
C9_2 C 0.0250(4) 0.4551(3) 0.6677(3)
C10_2 C 0.0925(4) 0.4736(4) 0.7324(3)
H5_2 H 0.154526 0.441947 0.739665
C11_2 C 0.0690(4) 0.5379(4) 0.7859(3)
H6_2 H 0.113594 0.548088 0.830225
O8_2 O 0.0035(3) 0.6561(2) 0.9012(2)
C15_2 C 0.0525(4) 0.3821(3) 0.6119(3)
O11_2 O 0.3431(3) 0.3269(2) 0.6755(2)
O14_2 O 0.1233(3) 0.2062(2) 0.6824(2)
O16_2 O 0.3184(2) 0.27193(18) 0.49525(19)
O17_2 O 0.1552(2) 0.22592(18) 0.49583(19)
C3_2 C 0.1093(4) 0.9738(3) 0.2418(3)
H2_2 H 0.178391 0.952783 0.247587
C4_2 C 0.0437(4) 0.9426(3) 0.1810(3)
O4_2 O 0.0121(3) 0.8305(2) 0.0879(2)
C8_2 C 0.0813(4) 0.8697(3) 0.1279(3)
Mg1_3 Mg 0.98657(10) 0.23693(8) 0.49996(8)
O1_2 O 0.9798(3) 0.1459(2) 0.4086(2)
C1_2 C 0.9711(4) 0.0709(3) 0.2841(3)
O2_2 O 0.8431(3) 0.1731(2) 0.3245(2)
C6_2 C 0.9078(4) 0.0423(3) 0.2203(3)
H4_2 H 0.841296 0.066838 0.211143
C7_2 C 0.9283(4) 0.1358(3) 0.3440(3)
O6_2 O 0.9785(3) 0.3389(2) 0.5826(2)
O7_2 O 0.8767(3) 0.7062(2) 0.8176(2)
C12_2 C 0.9791(4) 0.5879(3) 0.7742(3)
C13_2 C 0.9128(4) 0.5713(3) 0.7081(3)
H7_2 H 0.853418 0.605484 0.698874
C14_2 C 0.9341(4) 0.5047(3) 0.6559(3)
H8_2 H 0.887783 0.492855 0.612925
C16_2 C 0.9515(4) 0.6561(3) 0.8363(3)
O9_2 O 0.8184(2) 0.22807(18) 0.50475(19)
C17_2 C 0.7365(3) 0.2518(3) 0.5440(3)
C18_2 C 0.7381(4) 0.2527(4) 0.6350(3)
H9_2 H 0.720372 0.197278 0.655201
H10_2 H 0.686847 0.293209 0.654649
H11_2 H 0.808193 0.268295 0.653598
O10_2 O 0.6552(2) 0.27408(18) 0.50417(19)
O13_2 O 0.9879(3) 0.3305(2) 0.4121(2)
O15_2 O 0.9965(3) 0.1561(2) 0.5988(2)
O1_3 O 0.4798(3) 0.3541(2) 0.5914(2)
C1_3 C 0.4711(4) 0.4291(3) 0.7159(3)
C2_3 C 0.5726(4) 0.4636(3) 0.7058(3)
H1_3 H 0.616147 0.444482 0.663624
C3_3 C 0.6093(4) 0.5262(3) 0.7582(3)
H2_3 H 0.678391 0.547217 0.752413
O3_2 O 0.6800(3) 0.6467(2) 0.8702(2)
C4_3 C 0.5437(4) 0.5574(3) 0.8190(3)
C5_2 C 0.4430(4) 0.5225(3) 0.8298(3)
H3_2 H 0.398738 0.542863 0.870981
C6_3 C 0.4078(4) 0.4577(3) 0.7797(3)
H4_3 H 0.341296 0.433162 0.788857
C7_3 C 0.4283(4) 0.3642(3) 0.6560(3)
C8_3 C 0.5813(4) 0.6303(3) 0.8721(3)
O5_3 O 0.6519(3) 0.13041(19) 0.3988(2)
C9_3 C 0.5250(4) 0.0449(3) 0.3323(3)
O6_3 O 0.4785(3) 0.1611(2) 0.4174(2)
C10_3 C 0.5925(4) 0.0264(4) 0.2676(3)
H5_3 H 0.654526 0.058053 0.260335
H8_3 H 0.387783 0.007145 0.387075
C15_3 C 0.5525(4) 0.1179(3) 0.3881(3)
C17_3 C 0.2365(3) 0.2482(3) 0.4560(3)
C18_3 C 0.2381(4) 0.2473(4) 0.3650(3)
H9_3 H 0.220372 0.302722 0.344799
H10_3 H 0.186847 0.206791 0.345351
H11_3 H 0.308193 0.231705 0.346402
O12_2 O 0.8200(3) 0.3533(2) 0.3702(2)
C11_3 C 0.5690(4) 0.9621(4) 0.2141(3)
H6_3 H 0.613594 0.951912 0.169775
C12_3 C 0.4791(4) 0.9121(3) 0.2258(3)
C13_3 C 0.4128(4) 0.9287(3) 0.2919(3)
H7_3 H 0.353418 0.894516 0.301126
C14_3 C 0.4341(4) 0.9953(3) 0.3441(3)
C16_3 C 0.4515(4) 0.8439(3) 0.1637(3)
C12_4 C 0.0209(4) 0.0879(3) 0.7258(3)
C13_4 C 0.0872(4) 0.0713(3) 0.7919(3)
H7_4 H 0.146582 0.105484 0.801126
C14_4 C 0.0659(4) 0.0047(3) 0.8441(3)
C16_4 C 0.0485(4) 0.1561(3) 0.6637(3)
O1_4 O 0.0202(3) 0.6459(2) 0.0914(2)
C1_4 C 0.0289(4) 0.5709(3) 0.2159(3)
C5_3 C 0.0570(4) 0.4775(3) 0.3298(3)
H3_3 H 0.101262 0.457137 0.370981
C6_4 C 0.0922(4) 0.5423(3) 0.2797(3)
H4_4 H 0.158704 0.566838 0.288857
C7_4 C 0.0717(4) 0.6358(3) 0.1560(3)
O6_4 O 0.0215(3) 0.8389(2) 0.9174(2)
H8_4 H 0.112217 0.992855 0.887075
C17_4 C 0.2635(3) 0.7518(3) 0.9560(3)
C18_4 C 0.2619(4) 0.7527(4) 0.8650(3)
H9_4 H 0.279628 0.697278 0.844799
H10_4 H 0.313153 0.793209 0.845351
H11_4 H 0.191807 0.768295 0.846402
C11_4 C 0.9310(4) 0.0379(4) 0.7141(3)
H6_4 H 0.886406 0.048088 0.669775
C2_4 C 0.9274(4) 0.5364(3) 0.2058(3)
H1_4 H 0.883853 0.555518 0.163624
C3_4 C 0.8907(4) 0.4738(3) 0.2582(3)
H2_4 H 0.821609 0.452783 0.252413
C4_4 C 0.9563(4) 0.4426(3) 0.3190(3)
C8_4 C 0.9187(4) 0.3697(3) 0.3721(3)
O5_4 O 0.8481(3) 0.86959(19) 0.8988(2)
C9_4 C 0.9750(4) 0.9551(3) 0.8323(3)
C10_4 C 0.9075(4) 0.9736(4) 0.7676(3)
H5_4 H 0.845474 0.941947 0.760335
C15_4 C 0.9475(4) 0.8821(3) 0.8881(3)
C5_4 C 0.9430(4) 0.9775(3) 0.1702(3)
H3_4 H 0.898738 0.957137 0.129019
H12 H 0.676513 0.037668 0.051352
N1 N 0.7542(5) 0.0211(4) 0.9463(4)
H16 H 0.811837 0.047273 0.965927
C20 C 0.7013(8) 0.0789(5) 0.8888(5)
H17 H 0.643222 0.049889 0.862554
H18 H 0.751842 0.097335 0.848392
H19 H 0.674269 0.127353 0.917788
C19 C 0.6911(7) 0.9911(5) 0.0152(5)
H13 H 0.730331 0.948077 0.044012
H14 H 0.624993 0.967756 0.995731
H15 H 0.776813 0.975987 0.918554
C19_2 C 0.8089(7) 0.0089(5) 0.5152(5)
H13_2 H 0.769669 0.051923 0.544012
H14_2 H 0.875007 0.032244 0.495731
H15_2 H 0.723187 0.024013 0.418554
H12_2 H 0.823487 0.962332 0.551352
N1_2 N 0.7458(5) 0.9789(4) 0.4463(4)
H16_2 H 0.688163 0.952727 0.465927
C20_2 C 0.7987(8) 0.9211(5) 0.3888(5)
H17_2 H 0.856778 0.950111 0.362554
H18_2 H 0.748158 0.902665 0.348392
H19_2 H 0.825731 0.872647 0.417788
C19_3 C 0.3089(7) 0.4911(5) 0.4848(5)
H12_3 H 0.323487 0.537668 0.448648
H13_3 H 0.269669 0.448077 0.455988
H14_3 H 0.375007 0.467756 0.504269
N1_3 N 0.2458(5) 0.5211(4) 0.5537(4)
H15_3 H 0.223187 0.475987 0.581446
H16_3 H 0.188163 0.547273 0.534073
C20_3 C 0.2987(8) 0.5789(5) 0.6112(5)
H17_3 H 0.356778 0.549889 0.637446
H18_3 H 0.248158 0.597335 0.651608
H19_3 H 0.325731 0.627353 0.582212
H14_4 H 0.124993 0.532244 0.004269
N1_4 N 0.2542(5) 0.4789(4) 0.0537(4)
H15_4 H 0.276813 0.524013 0.081446
H16_4 H 0.311837 0.452727 0.034073
C20_4 C 0.2013(8) 0.4211(5) 0.1112(5)
H17_4 H 0.143222 0.450111 0.137446
H18_4 H 0.251842 0.402665 0.151608
H19_4 H 0.174269 0.372647 0.082212
C19_4 C 0.1911(7) 0.5089(5) 0.9848(5)
H12_4 H 0.176513 0.462332 0.948648
H13_4 H 0.230331 0.551923 0.955988
loop_
_geom_bond_atom_site_label_1
_geom_bond_atom_site_label_2
_geom_bond_site_symmetry_1
_geom_bond_site_symmetry_2
H2 C3 1_555 1_555
O3 C8 1_555 1_555
C4 C3 1_555 1_555
O4 C8 1_555 1_555
C5 C4 1_555 1_555
H3 C5 1_555 1_555
C8 C4 1_555 1_555
Mg4 O4 1_555 1_555
Mg6 O3 1_555 1_555
Mg2 O5 1_555 1_555
O5 C15 1_555 1_555
C9 C10 1_555 1_555
O6 Mg1 1_555 1_555
C10 H5 1_555 1_555
C11 C10 1_555 1_555
H6 C11 1_555 1_555
O7 C16 1_555 1_555
C12 C11 1_555 1_555
O8 C16 1_555 1_555
C13 C12 1_555 1_555
H7 C13 1_555 1_555
C14 C9 1_555 1_555
H8 C14 1_555 1_555
C15 C9 1_555 1_555
C16 C12 1_555 1_555
O9 Mg1 1_555 1_555
C17 O9 1_555 1_555
C18 C17 1_555 1_555
H9 C18 1_555 1_555
H10 C18 1_555 1_555
H11 C18 1_555 1_555
O10 C17 1_555 1_555
Mg4 O8 1_555 1_555
Mg7 O7 1_555 1_555
O11 Mg2 1_555 1_555
O12 Mg2 1_555 1_555
O14 Mg2 1_555 1_555
O15 Mg1 1_555 1_555
O6 C15 1_555 1_555
C13 C14 1_555 1_555
Mg1_2 O1 1_555 1_555
O1 C7 1_555 1_555
C1 C2 1_555 1_555
C2 H1 1_555 1_555
O2 C7 1_555 1_555
C6 C1 1_555 1_555
H4 C6 1_555 1_555
C7 C1 1_555 1_555
Mg8 O2 1_555 1_555
O13 Mg1_2 1_555 1_555
O17 Mg1_2 1_555 1_555
Mg6 O5_2 1_555 1_555
C2_2 H1_2 1_555 1_555
O5_2 C15_2 1_555 1_555
C9_2 C10_2 1_555 1_555
C10_2 H5_2 1_555 1_555
C11_2 C10_2 1_555 1_555
H6_2 C11_2 1_555 1_555
C15_2 C9_2 1_555 1_555
Mg5_2 O8_2 1_555 1_555
O11_2 Mg6 1_555 1_555
O14_2 Mg6 1_555 1_555
O16_2 Mg6 1_555 1_555
Mg6 O17_2 1_555 1_555
H2_2 C3_2 1_555 1_555
O12 C8_2 1_555 1_555
C4_2 C3_2 1_555 1_555
O4_2 C8_2 1_555 1_555
C8_2 C4_2 1_555 1_555
Mg5 O4_2 1_555 1_555
Mg1_3 O1_2 1_555 1_555
O1_2 C7_2 1_555 1_555
O2_2 C7_2 1_555 1_555
C6_2 C1_2 1_555 1_555
H4_2 C6_2 1_555 1_555
C7_2 C1_2 1_555 1_555
O6_2 Mg1_3 1_555 1_555
O7_2 C16_2 1_555 1_555
C13_2 C12_2 1_555 1_555
H7_2 C13_2 1_555 1_555
H8_2 C14_2 1_555 1_555
C16_2 C12_2 1_555 1_555
O9_2 Mg1_3 1_555 1_555
C17_2 O9_2 1_555 1_555
C18_2 C17_2 1_555 1_555
H9_2 C18_2 1_555 1_555
H10_2 C18_2 1_555 1_555
H11_2 C18_2 1_555 1_555
O10_2 C17_2 1_555 1_555
Mg4 O10_2 1_555 1_555
Mg8 O7_2 1_555 1_555
Mg7 O2_2 1_555 1_555
O13_2 Mg1_3 1_555 1_555
O15_2 Mg1_3 1_555 1_555
C13_2 C14_2 1_555 1_555
O9_2 Mg7 1_555 1_555
O10_2 Mg7 1_555 1_555
Mg4 O1_3 1_555 1_555
Mg7 O5_3 1_555 1_555
O1_3 C7_3 1_555 1_555
C1_3 C2_3 1_555 1_555
C2_3 H1_3 1_555 1_555
O11_2 C7_3 1_555 1_555
C3_3 C2_3 1_555 1_555
H2_3 C3_3 1_555 1_555
O3_2 C8_3 1_555 1_555
C4_3 C3_3 1_555 1_555
O13 C8_3 1_555 1_555
C5_2 C4_3 1_555 1_555
H3_2 C5_2 1_555 1_555
C6_3 C1_3 1_555 1_555
H4_3 C6_3 1_555 1_555
C7_3 C1_3 1_555 1_555
C8_3 C4_3 1_555 1_555
O5_3 C15_3 1_555 1_555
C9_3 C10_3 1_555 1_555
O6_3 Mg4 1_555 1_555
C10_3 H5_3 1_555 1_555
C15_3 C9_3 1_555 1_555
O16_2 Mg4 1_555 1_555
C17_3 O16_2 1_555 1_555
C18_3 C17_3 1_555 1_555
H9_3 C18_3 1_555 1_555
H10_3 C18_3 1_555 1_555
H11_3 C18_3 1_555 1_555
O17_2 C17_3 1_555 1_555
Mg8 O3_2 1_555 1_555
O12_2 Mg7 1_555 1_555
C5_2 C6_3 1_555 1_555
O6_3 C15_3 1_555 1_555
H6_3 C11_3 1_555 1_555
O14 C16_3 1_555 1_555
C12_3 C11_3 1_555 1_555
O15 C16_3 1_555 1_555
C13_3 C12_3 1_555 1_555
H7_3 C13_3 1_555 1_555
C16_3 C12_3 1_555 1_555
C13_3 C14_3 1_555 1_555
O14_2 C16_4 1_555 1_555
C13_4 C12_4 1_555 1_555
H7_4 C13_4 1_555 1_555
C16_4 C12_4 1_555 1_555
C13_4 C14_4 1_555 1_555
Mg5 O1_4 1_555 1_555
O1_4 C7_4 1_555 1_555
O11 C7_4 1_555 1_555
H3_3 C5_3 1_555 1_555
C6_4 C1_4 1_555 1_555
H4_4 C6_4 1_555 1_555
C7_4 C1_4 1_555 1_555
C5_3 C6_4 1_555 1_555
O6_4 Mg5_2 1_555 1_555
O16 Mg5_2 1_555 1_555
C17_4 O16 1_555 1_555
C18_4 C17_4 1_555 1_555
H9_4 C18_4 1_555 1_555
H10_4 C18_4 1_555 1_555
H11_4 C18_4 1_555 1_555
O17 C17_4 1_555 1_555
H6_4 C11_4 1_555 1_555
C2_4 H1_4 1_555 1_555
C3_4 C2_4 1_555 1_555
H2_4 C3_4 1_555 1_555
O12_2 C8_4 1_555 1_555
C4_4 C3_4 1_555 1_555
O13_2 C8_4 1_555 1_555
C8_4 C4_4 1_555 1_555
Mg8 O5_4 1_555 1_555
O5_4 C15_4 1_555 1_555
C9_4 C10_4 1_555 1_555
C10_4 H5_4 1_555 1_555
C15_4 C9_4 1_555 1_555
H3_4 C5_4 1_555 1_555
H16 N1 1_555 1_555
C20 N1 1_555 1_555
H17 C20 1_555 1_555
H18 C20 1_555 1_555
H19 C20 1_555 1_555
H13 C19 1_555 1_555
H13_2 C19_2 1_555 1_555
H14_2 C19_2 1_555 1_555
H16_2 N1_2 1_555 1_555
C20_2 N1_2 1_555 1_555
H17_2 C20_2 1_555 1_555
H18_2 C20_2 1_555 1_555
H19_2 C20_2 1_555 1_555
C19_3 H12_3 1_555 1_555
H13_3 C19_3 1_555 1_555
H14_3 C19_3 1_555 1_555
N1_3 C19_3 1_555 1_555
H15_3 N1_3 1_555 1_555
H16_3 N1_3 1_555 1_555
C20_3 N1_3 1_555 1_555
H17_3 C20_3 1_555 1_555
H18_3 C20_3 1_555 1_555
H19_3 C20_3 1_555 1_555
H15_4 N1_4 1_555 1_555
H16_4 N1_4 1_555 1_555
C20_4 N1_4 1_555 1_555
H17_4 C20_4 1_555 1_555
H18_4 C20_4 1_555 1_555
H19_4 C20_4 1_555 1_555
C19_4 H12_4 1_555 1_555
H13_4 C19_4 1_555 1_555

#END
