
###############################################################################
#
# This file contains modified crystal structure data generated from the
# MOF subset of the Cambridge Structural Database (CSD) v543 
# hosted by the Cambridge Crystallographic Data Centre (CCDC).
#
# This work is licensed under the Creative Commons
# Attribution-NonCommercial-ShareAlike 4.0 International License.
# To view a copy of this license, visit
# http://creativecommons.org/licenses/by-nc-sa/4.0/
# or send a letter to
# Creative Commons, PO Box 1866, Mountain View, CA 94042, USA.
#
# CIF created using the CSD Python API on 29 September 2022
# The structure has been converted into the P1 space group
# The structure has a 3D framework
# The original CSD entry DOQKAW is in the monoclinic crystal system
# The framework has been calculated to contain at least 10.0% void space
# The void calculation uses a probe of radius 1.32A, grid spacing 0.4
# The framework is charged, counterions have been retained in the structure
#
###############################################################################

data_DOQKAW
_chemical_formula_moiety         '(C208 H176 Cd22 N56 O64 2+)n'
_symmetry_cell_setting           triclinic
_symmetry_space_group_name_H-M   'P 1'
_symmetry_Int_Tables_number      1
_space_group_name_Hall           'P 1'
loop_
_symmetry_equiv_pos_site_id
_symmetry_equiv_pos_as_xyz
1 x,y,z
_cell_length_a                   18.349(5)
_cell_length_b                   20.616(5)
_cell_length_c                   17.669(5)
_cell_angle_alpha                90
_cell_angle_beta                 102.256(5)
_cell_angle_gamma                90
_cell_volume                     6531.55
loop_
_atom_site_label
_atom_site_type_symbol
_atom_site_fract_x
_atom_site_fract_y
_atom_site_fract_z
Cd13 Cd 0.24723(3) 0.01869(2) 0.92750(3)
Cd1 Cd 0.0000 0.54289(3) 0.2500
Cd2 Cd 0.18511(2) 0.58993(2) 0.20087(3)
Cd3 Cd 0.25277(3) 0.48131(2) 0.07250(3)
C4 C 0.0163(4) 0.7328(3) 0.1563(4)
C5 C 0.0358(4) 0.7969(3) 0.1533(4)
H3 H 0.0857 0.8090 0.1660
C8 C 0.0745(4) 0.6813(3) 0.1792(4)
C9 C 0.4610(3) 0.6233(3) 0.2440(5)
H5 H 0.4353 0.6624 0.2412
C10 C 0.4223(3) 0.5654(3) 0.2362(4)
C11 C 0.4613(3) 0.5082(3) 0.2422(4)
H6 H 0.4356 0.4690 0.2358
C12 C 0.3382(4) 0.5669(4) 0.2220(4)
C13 C 0.2505(4) 0.6851(3) 0.0219(3)
C14 C 0.1900(4) 0.7239(3) 0.0235(4)
H7 H 0.1487 0.7065 0.0389
C16 C 0.2498(4) 0.6145(3) 0.0440(4)
C17 C 0.2252(4) 0.5617(3) 0.3896(4)
H9 H 0.2753 0.5719 0.3946
C18 C 0.1242(4) 0.5324(3) 0.4146(4)
H10 H 0.0885 0.5174 0.4407
C19 C 0.0423(4) 0.4150(3) 0.1431(4)
C20 C 0.0987(4) 0.4013(3) 0.1030(4)
C21 C 0.0986(5) 0.3443(4) 0.0613(4)
H11 H 0.1352 0.3356 0.0335
C22 C 0.0423(6) 0.3014(4) 0.0630(5)
H12 H 0.0408 0.2627 0.0356
N1 N 0.1088(3) 0.5476(2) 0.3410(3)
N2 N 0.1756(3) 0.5666(2) 0.3240(3)
N3 N 0.1960(3) 0.5403(3) 0.4489(3)
N4 N 0.0570(3) 0.4729(2) 0.1772(3)
N5 N 0.1212(3) 0.4940(2) 0.1586(3)
N6 N 0.1465(3) 0.4526(2) 0.1142(3)
O1 O 0.1358(3) 0.9306(2) 0.4292(3)
O2 O 0.2144(3) 0.8674(2) 0.3886(3)
O3 O 0.1421(3) 0.6983(2) 0.1920(3)
O4 O 0.0542(2) 0.6236(2) 0.1830(2)
O5 O 0.3018(2) 0.5152(2) 0.2032(2)
O6 O 0.3071(2) 0.6202(2) 0.2327(3)
O7 O 0.3024(3) 0.5789(2) 0.0344(3)
O8 O 0.1961(3) 0.59313(19) 0.0712(2)
Cd5 Cd 0.81489(2) 0.58993(2) 0.29913(3)
Cd7 Cd 0.25277(3) 0.51869(2) 0.57250(3)
Cd10 Cd 0.74723(3) 0.48131(2) 0.42750(3)
Cd11 Cd 0.24723(3) 0.98131(2) 0.42750(3)
C25 C 0.0939(4) 0.8261(3) 0.3838(4)
C26 C 0.1136(4) 0.7625(3) 0.3785(4)
H15 H 0.1636 0.7509 0.3871
C27 C 0.0587(4) 0.7156(3) 0.3603(4)
H16 H 0.0721 0.6722 0.3592
C30 C 0.0192(4) 0.8439(3) 0.3686(4)
H18 H 0.0059 0.8870 0.3731
C31 C 0.1521(4) 0.8783(4) 0.4027(4)
C33 C 0.5390(3) 0.6233(3) 0.2560(5)
H19 H 0.5647 0.6624 0.2588
C34 C 0.5777(3) 0.5654(3) 0.2638(4)
C35 C 0.5387(3) 0.5082(3) 0.2578(4)
H20 H 0.5644 0.4690 0.2642
C36 C 0.6618(4) 0.5669(4) 0.2780(4)
C39 C 0.1896(4) 0.7882(3) 0.0026(4)
H22 H 0.1485 0.8139 0.0050
C47 C 0.0130(5) 0.3137(4) 0.3958(5)
H27 H 0.0493 0.2823 0.3958
C48 C 0.0164(4) 0.3704(4) 0.3549(4)
H28 H 0.0540 0.3788 0.3282
O9 O 0.3642(3) 0.4306(2) 0.0708(3)
O12 O 0.2856(3) 0.3674(2) 0.1114(3)
O18 O 0.6982(2) 0.5152(2) 0.2968(2)
O20 O 0.6929(2) 0.6202(2) 0.2673(3)
C15 C 0.3104(4) 0.7118(3) 0.9974(4)
H8 H 0.3515 0.6861 0.9950
Cd6 Cd 0.31489(2) 0.91007(2) 0.79913(3)
C37 C 0.2495(4) 0.8149(3) 0.9781(3)
C38 C 0.3100(4) 0.7761(3) 0.9765(4)
H21 H 0.3513 0.7935 0.9611
C40 C 0.2502(4) 0.8855(3) 0.9560(4)
N9 N 0.1960(3) 0.4597(3) 0.9489(3)
O22 O 0.1976(3) 0.9211(2) 0.9656(3)
O24 O 0.3039(3) 0.90687(19) 0.9288(2)
Cd1_2 Cd 1.0000 0.54289(3) 0.2500
C1 C 0.9061(4) 0.8261(3) 0.1162(4)
C2 C 0.8864(4) 0.7625(3) 0.1215(4)
H1 H 0.8364 0.7509 0.1129
C3 C 0.9413(4) 0.7156(3) 0.1397(4)
H2 H 0.9279 0.6722 0.1408
C6 C 0.9808(4) 0.8439(3) 0.1314(4)
H4 H 0.9941 0.8870 0.1269
C7 C 0.8479(4) 0.8783(4) 0.0973(4)
C23 C 0.9870(5) 0.3137(4) 0.1042(5)
H13 H 0.9507 0.2823 0.1042
C24 C 0.9836(4) 0.3704(4) 0.1451(4)
H14 H 0.9460 0.3788 0.1718
Cd12 Cd 0.75277(3) 0.98131(2) 0.07250(3)
C28 C 0.9837(4) 0.7328(3) 0.3437(4)
C29 C 0.9642(4) 0.7969(3) 0.3467(4)
H17 H 0.9143 0.8090 0.3340
C32 C 0.9255(4) 0.6813(3) 0.3208(4)
C41 C 0.7748(4) 0.5617(3) 0.1104(4)
H23 H 0.7247 0.5719 0.1054
C42 C 0.8758(4) 0.5324(3) 0.0854(4)
H24 H 0.9115 0.5174 0.0593
C43 C 0.9577(4) 0.4150(3) 0.3569(4)
C44 C 0.9013(4) 0.4013(3) 0.3970(4)
C45 C 0.9014(5) 0.3443(4) 0.4387(4)
H25 H 0.8648 0.3356 0.4665
C46 C 0.9577(6) 0.3014(4) 0.4370(5)
H26 H 0.9592 0.2627 0.4644
N7 N 0.8912(3) 0.5476(2) 0.1590(3)
N8 N 0.8244(3) 0.5666(2) 0.1760(3)
N10 N 0.8040(3) 0.5403(3) 0.0511(3)
N11 N 0.8040(3) 0.4597(3) 0.5511(3)
N12 N 0.9430(3) 0.4729(2) 0.3228(3)
N13 N 0.8788(3) 0.4940(2) 0.3414(3)
N14 N 0.8535(3) 0.4526(2) 0.3858(3)
O10 O 0.6358(3) 0.4306(2) 0.4292(3)
O11 O 0.8642(3) 0.9306(2) 0.0708(3)
O13 O 0.7144(3) 0.3674(2) 0.3886(3)
O14 O 0.7856(3) 0.8674(2) 0.1114(3)
O15 O 0.8579(3) 0.6983(2) 0.3080(3)
O16 O 0.9458(2) 0.6236(2) 0.3170(2)
O21 O 0.6976(3) 0.5789(2) 0.4656(3)
O23 O 0.8039(3) 0.59313(19) 0.4288(2)
Cd8 Cd 0.74723(3) 0.51869(2) 0.92750(3)
Cd13_2 Cd 0.75277(3) 0.01869(2) 0.57250(3)
C13_2 C 0.7495(4) 0.6851(3) 0.4781(3)
C14_2 C 0.8100(4) 0.7239(3) 0.4765(4)
H7_2 H 0.8513 0.7065 0.4611
C15_2 C 0.6896(4) 0.7118(3) 0.5026(4)
H8_2 H 0.6485 0.6861 0.5050
C16_2 C 0.7502(4) 0.6145(3) 0.4560(4)
Cd6_2 Cd 0.68511(2) 0.91007(2) 0.70087(3)
C37_2 C 0.7505(4) 0.8149(3) 0.5219(3)
C38_2 C 0.6900(4) 0.7761(3) 0.5235(4)
H21_2 H 0.6487 0.7935 0.5389
C39_2 C 0.8104(4) 0.7882(3) 0.4974(4)
H22_2 H 0.8515 0.8139 0.4950
C40_2 C 0.7498(4) 0.8855(3) 0.5440(4)
O22_2 O 0.8024(3) 0.9211(2) 0.5344(3)
O24_2 O 0.6961(3) 0.90687(19) 0.5712(2)
Cd5_2 Cd 0.31489(2) 0.08993(2) 0.29913(3)
C33_2 C 0.0390(3) 0.1233(3) 0.2560(5)
H19_2 H 0.0647 0.1624 0.2588
C34_2 C 0.0777(3) 0.0654(3) 0.2638(4)
C35_2 C 0.0387(3) 0.0082(3) 0.2578(4)
C36_2 C 0.1618(4) 0.0669(4) 0.2780(4)
O18_2 O 0.1982(2) 0.0152(2) 0.2968(2)
O20_2 O 0.1929(2) 0.1202(2) 0.2673(3)
H20_2 H 0.0644 0.9690 0.2642
Cd1_3 Cd 0.5000 0.04289(3) 0.2500
Cd2_2 Cd 0.68511(2) 0.08993(2) 0.20087(3)
C1_2 C 0.4061(4) 0.3261(3) 0.1162(4)
C2_2 C 0.3864(4) 0.2625(3) 0.1215(4)
H1_2 H 0.3364 0.2509 0.1129
C3_2 C 0.4413(4) 0.2156(3) 0.1397(4)
H2_2 H 0.4279 0.1722 0.1408
C4_2 C 0.5163(4) 0.2328(3) 0.1563(4)
C5_2 C 0.5358(4) 0.2969(3) 0.1533(4)
H3_2 H 0.5857 0.3090 0.1660
C6_2 C 0.4808(4) 0.3439(3) 0.1314(4)
H4_2 H 0.4941 0.3870 0.1269
C7_2 C 0.3479(4) 0.3783(4) 0.0973(4)
C8_2 C 0.5745(4) 0.1813(3) 0.1792(4)
C9_2 C 0.9610(3) 0.1233(3) 0.2440(5)
H5_2 H 0.9353 0.1624 0.2412
C10_2 C 0.9223(3) 0.0654(3) 0.2362(4)
C11_2 C 0.9613(3) 0.0082(3) 0.2422(4)
C12_2 C 0.8382(4) 0.0669(4) 0.2220(4)
C13_3 C 0.7505(4) 0.1851(3) 0.0219(3)
C14_3 C 0.6900(4) 0.2239(3) 0.0235(4)
H7_3 H 0.6487 0.2065 0.0389
C16_3 C 0.7498(4) 0.1145(3) 0.0440(4)
C17_2 C 0.7252(4) 0.0617(3) 0.3896(4)
H9_2 H 0.7753 0.0719 0.3946
C18_2 C 0.6242(4) 0.0324(3) 0.4146(4)
H10_2 H 0.5885 0.0174 0.4407
N1_2 N 0.6088(3) 0.0476(2) 0.3410(3)
N2_2 N 0.6756(3) 0.0666(2) 0.3240(3)
N3_2 N 0.6960(3) 0.0403(3) 0.4489(3)
O3_2 O 0.6421(3) 0.1983(2) 0.1920(3)
O4_2 O 0.5542(2) 0.1236(2) 0.1830(2)
O5_2 O 0.8018(2) 0.0152(2) 0.2032(2)
O6_2 O 0.8071(2) 0.1202(2) 0.2327(3)
O7_2 O 0.8024(3) 0.0789(2) 0.0344(3)
O8_2 O 0.6961(3) 0.09313(19) 0.0712(2)
C25_2 C 0.5939(4) 0.3261(3) 0.3838(4)
C26_2 C 0.6136(4) 0.2625(3) 0.3785(4)
H15_2 H 0.6636 0.2509 0.3871
C27_2 C 0.5587(4) 0.2156(3) 0.3603(4)
H16_2 H 0.5721 0.1722 0.3592
C28_2 C 0.4837(4) 0.2328(3) 0.3437(4)
C29_2 C 0.4642(4) 0.2969(3) 0.3467(4)
H17_2 H 0.4143 0.3090 0.3340
C30_2 C 0.5192(4) 0.3439(3) 0.3686(4)
H18_2 H 0.5059 0.3870 0.3731
C31_2 C 0.6521(4) 0.3783(4) 0.4027(4)
C32_2 C 0.4255(4) 0.1813(3) 0.3208(4)
C39_3 C 0.6896(4) 0.2882(3) 0.0026(4)
H22_3 H 0.6485 0.3139 0.0050
C41_2 C 0.2748(4) 0.0617(3) 0.1104(4)
H23_2 H 0.2247 0.0719 0.1054
C42_2 C 0.3758(4) 0.0324(3) 0.0854(4)
H24_2 H 0.4115 0.0174 0.0593
N7_2 N 0.3912(3) 0.0476(2) 0.1590(3)
N8_2 N 0.3244(3) 0.0666(2) 0.1760(3)
N10_2 N 0.3040(3) 0.0403(3) 0.0511(3)
O15_2 O 0.3579(3) 0.1983(2) 0.3080(3)
O16_2 O 0.4458(2) 0.1236(2) 0.3170(2)
O21_2 O 0.1976(3) 0.0789(2) 0.4656(3)
O23_2 O 0.3039(3) 0.09313(19) 0.4288(2)
C15_3 C 0.8104(4) 0.2118(3) 0.9974(4)
H8_3 H 0.8515 0.1861 0.9950
Cd6_3 Cd 0.81489(2) 0.41007(2) 0.79913(3)
C37_3 C 0.7495(4) 0.3149(3) 0.9781(3)
C38_3 C 0.8100(4) 0.2761(3) 0.9765(4)
H21_3 H 0.8513 0.2935 0.9611
C40_3 C 0.7502(4) 0.3855(3) 0.9560(4)
O22_3 O 0.6976(3) 0.4211(2) 0.9656(3)
O24_3 O 0.8039(3) 0.40687(19) 0.9288(2)
H6_2 H 0.9356 0.9690 0.2358
C19_2 C 0.5423(4) 0.9150(3) 0.1431(4)
C20_2 C 0.5987(4) 0.9013(3) 0.1030(4)
C21_2 C 0.5986(5) 0.8443(4) 0.0613(4)
H11_2 H 0.6352 0.8356 0.0335
C22_2 C 0.5423(6) 0.8014(4) 0.0630(5)
H12_2 H 0.5408 0.7627 0.0356
C23_2 C 0.4870(5) 0.8137(4) 0.1042(5)
H13_2 H 0.4507 0.7823 0.1042
C24_2 C 0.4836(4) 0.8704(4) 0.1451(4)
H14_2 H 0.4460 0.8788 0.1718
N4_2 N 0.5570(3) 0.9729(2) 0.1772(3)
N5_2 N 0.6212(3) 0.9940(2) 0.1586(3)
N6_2 N 0.6465(3) 0.9526(2) 0.1142(3)
C43_2 C 0.4577(4) 0.9150(3) 0.3569(4)
C44_2 C 0.4013(4) 0.9013(3) 0.3970(4)
C45_2 C 0.4014(5) 0.8443(4) 0.4387(4)
H25_2 H 0.3648 0.8356 0.4665
C46_2 C 0.4577(6) 0.8014(4) 0.4370(5)
H26_2 H 0.4592 0.7627 0.4644
C47_2 C 0.5130(5) 0.8137(4) 0.3958(5)
H27_2 H 0.5493 0.7823 0.3958
C48_2 C 0.5164(4) 0.8704(4) 0.3549(4)
H28_2 H 0.5540 0.8788 0.3282
N11_2 N 0.3040(3) 0.9597(3) 0.5511(3)
N12_2 N 0.4430(3) 0.9729(2) 0.3228(3)
N13_2 N 0.3788(3) 0.9940(2) 0.3414(3)
N14_2 N 0.3535(3) 0.9526(2) 0.3858(3)
N9_2 N 0.6960(3) 0.9597(3) 0.9489(3)
C13_4 C 0.2495(4) 0.1851(3) 0.4781(3)
C14_4 C 0.3100(4) 0.2239(3) 0.4765(4)
H7_4 H 0.3513 0.2065 0.4611
C15_4 C 0.1896(4) 0.2118(3) 0.5026(4)
H8_4 H 0.1485 0.1861 0.5050
C16_4 C 0.2502(4) 0.1145(3) 0.4560(4)
Cd6_4 Cd 0.18511(2) 0.41007(2) 0.70087(3)
C37_4 C 0.2505(4) 0.3149(3) 0.5219(3)
C38_4 C 0.1900(4) 0.2761(3) 0.5235(4)
H21_4 H 0.1487 0.2935 0.5389
C39_4 C 0.3104(4) 0.2882(3) 0.4974(4)
H22_4 H 0.3515 0.3139 0.4950
C40_4 C 0.2498(4) 0.3855(3) 0.5440(4)
O22_4 O 0.3024(3) 0.4211(2) 0.5344(3)
O24_4 O 0.1961(3) 0.40687(19) 0.5712(2)
Cd1_4 Cd -0.0000 0.45711(3) 0.7500
C1_3 C 0.0939(4) 0.1739(3) 0.8838(4)
C2_3 C 0.1136(4) 0.2375(3) 0.8785(4)
H1_3 H 0.1636 0.2491 0.8871
C3_3 C 0.0587(4) 0.2844(3) 0.8603(4)
H2_3 H 0.0721 0.3278 0.8592
C6_3 C 0.0192(4) 0.1561(3) 0.8686(4)
H4_3 H 0.0059 0.1130 0.8731
C7_3 C 0.1521(4) 0.1217(4) 0.9027(4)
C23_3 C 0.0130(5) 0.6863(4) 0.8958(5)
H13_3 H 0.0493 0.7177 0.8958
C24_3 C 0.0164(4) 0.6296(4) 0.8549(4)
H14_3 H 0.0540 0.6212 0.8282
C28_3 C 0.0163(4) 0.2672(3) 0.6563(4)
C29_3 C 0.0358(4) 0.2031(3) 0.6533(4)
H17_3 H 0.0857 0.1910 0.6660
C32_3 C 0.0745(4) 0.3187(3) 0.6792(4)
C41_3 C 0.2252(4) 0.4383(3) 0.8896(4)
H23_3 H 0.2753 0.4281 0.8946
C42_3 C 0.1242(4) 0.4676(3) 0.9146(4)
H24_3 H 0.0885 0.4826 0.9407
C43_3 C 0.0423(4) 0.5850(3) 0.6431(4)
C44_3 C 0.0987(4) 0.5987(3) 0.6030(4)
C45_3 C 0.0986(5) 0.6557(4) 0.5613(4)
H25_3 H 0.1352 0.6644 0.5335
C46_3 C 0.0423(6) 0.6986(4) 0.5630(5)
H26_3 H 0.0408 0.7373 0.5356
N7_3 N 0.1088(3) 0.4524(2) 0.8410(3)
N8_3 N 0.1756(3) 0.4334(2) 0.8240(3)
N12_3 N 0.0570(3) 0.5271(2) 0.6772(3)
N13_3 N 0.1212(3) 0.5060(2) 0.6586(3)
N14_3 N 0.1465(3) 0.5474(2) 0.6142(3)
O10_2 O 0.3642(3) 0.5694(2) 0.5708(3)
O11_2 O 0.1358(3) 0.0694(2) 0.9292(3)
O13_2 O 0.2856(3) 0.6326(2) 0.6114(3)
O14_2 O 0.2144(3) 0.1326(2) 0.8886(3)
O15_3 O 0.1421(3) 0.3017(2) 0.6920(3)
O16_3 O 0.0542(2) 0.3764(2) 0.6830(2)
O17 O 0.3018(2) 0.4848(2) 0.7032(2)
O19 O 0.3071(2) 0.3798(2) 0.7327(3)
Cd1_5 Cd 1.0000 0.45711(3) 0.7500
C4_3 C 0.9837(4) 0.2672(3) 0.8437(4)
C5_3 C 0.9642(4) 0.2031(3) 0.8467(4)
H3_3 H 0.9143 0.1910 0.8340
C8_3 C 0.9255(4) 0.3187(3) 0.8208(4)
C9_3 C 0.5390(3) 0.3767(3) 0.7560(5)
H5_3 H 0.5647 0.3376 0.7588
C10_3 C 0.5777(3) 0.4346(3) 0.7638(4)
C11_3 C 0.5387(3) 0.4918(3) 0.7578(4)
H6_3 H 0.5644 0.5310 0.7642
C12_3 C 0.6618(4) 0.4331(4) 0.7780(4)
C17_3 C 0.7748(4) 0.4383(3) 0.6104(4)
H9_3 H 0.7247 0.4281 0.6054
C18_3 C 0.8758(4) 0.4676(3) 0.5854(4)
H10_3 H 0.9115 0.4826 0.5593
C19_3 C 0.9577(4) 0.5850(3) 0.8569(4)
C20_3 C 0.9013(4) 0.5987(3) 0.8970(4)
C21_3 C 0.9014(5) 0.6557(4) 0.9387(4)
H11_3 H 0.8648 0.6644 0.9665
C22_3 C 0.9577(6) 0.6986(4) 0.9370(5)
H12_3 H 0.9592 0.7373 0.9644
N1_3 N 0.8912(3) 0.4524(2) 0.6590(3)
N2_3 N 0.8244(3) 0.4334(2) 0.6760(3)
N4_3 N 0.9430(3) 0.5271(2) 0.8228(3)
N5_3 N 0.8788(3) 0.5060(2) 0.8414(3)
N6_3 N 0.8535(3) 0.5474(2) 0.8858(3)
O1_2 O 0.8642(3) 0.0694(2) 0.5708(3)
O2_2 O 0.7856(3) 0.1326(2) 0.6114(3)
O3_3 O 0.8579(3) 0.3017(2) 0.8080(3)
O4_3 O 0.9458(2) 0.3764(2) 0.8170(2)
O5_3 O 0.6982(2) 0.4848(2) 0.7968(2)
O6_3 O 0.6929(2) 0.3798(2) 0.7673(3)
C25_3 C 0.9061(4) 0.1739(3) 0.6162(4)
C26_3 C 0.8864(4) 0.2375(3) 0.6215(4)
H15_3 H 0.8364 0.2491 0.6129
C27_3 C 0.9413(4) 0.2844(3) 0.6397(4)
H16_3 H 0.9279 0.3278 0.6408
C30_3 C 0.9808(4) 0.1561(3) 0.6314(4)
H18_3 H 0.9941 0.1130 0.6269
C31_3 C 0.8479(4) 0.1217(4) 0.5973(4)
C33_3 C 0.4610(3) 0.3767(3) 0.7440(5)
H19_3 H 0.4353 0.3376 0.7412
C34_3 C 0.4223(3) 0.4346(3) 0.7362(4)
C35_3 C 0.4613(3) 0.4918(3) 0.7422(4)
H20_3 H 0.4356 0.5310 0.7358
C36_3 C 0.3382(4) 0.4331(4) 0.7220(4)
C47_3 C 0.9870(5) 0.6863(4) 0.6042(5)
H27_3 H 0.9507 0.7177 0.6042
C48_3 C 0.9836(4) 0.6296(4) 0.6451(4)
H28_3 H 0.9460 0.6212 0.6718
O9_2 O 0.6358(3) 0.5694(2) 0.9292(3)
O12_2 O 0.7144(3) 0.6326(2) 0.8886(3)
H6_4 H 0.0644 0.0310 0.7642
C19_4 C 0.4577(4) 0.0850(3) 0.8569(4)
C20_4 C 0.4013(4) 0.0987(3) 0.8970(4)
C21_4 C 0.4014(5) 0.1557(4) 0.9387(4)
H11_4 H 0.3648 0.1644 0.9665
C22_4 C 0.4577(6) 0.1986(4) 0.9370(5)
H12_4 H 0.4592 0.2373 0.9644
C23_4 C 0.5130(5) 0.1863(4) 0.8958(5)
H13_4 H 0.5493 0.2177 0.8958
C24_4 C 0.5164(4) 0.1296(4) 0.8549(4)
H14_4 H 0.5540 0.1212 0.8282
N4_4 N 0.4430(3) 0.0271(2) 0.8228(3)
N5_4 N 0.3788(3) 0.0060(2) 0.8414(3)
N6_4 N 0.3535(3) 0.0474(2) 0.8858(3)
C43_4 C 0.5423(4) 0.0850(3) 0.6431(4)
C44_4 C 0.5987(4) 0.0987(3) 0.6030(4)
C45_4 C 0.5986(5) 0.1557(4) 0.5613(4)
H25_4 H 0.6352 0.1644 0.5335
C46_4 C 0.5423(6) 0.1986(4) 0.5630(5)
H26_4 H 0.5408 0.2373 0.5356
C47_4 C 0.4870(5) 0.1863(4) 0.6042(5)
H27_4 H 0.4507 0.2177 0.6042
C48_4 C 0.4836(4) 0.1296(4) 0.6451(4)
H28_4 H 0.4460 0.1212 0.6718
N12_4 N 0.5570(3) 0.0271(2) 0.6772(3)
N13_4 N 0.6212(3) 0.0060(2) 0.6586(3)
N14_4 N 0.6465(3) 0.0474(2) 0.6142(3)
Cd1_6 Cd 0.5000 0.95711(3) 0.7500
C1_4 C 0.5939(4) 0.6739(3) 0.8838(4)
C2_4 C 0.6136(4) 0.7375(3) 0.8785(4)
H1_4 H 0.6636 0.7491 0.8871
C3_4 C 0.5587(4) 0.7844(3) 0.8603(4)
H2_4 H 0.5721 0.8278 0.8592
C4_4 C 0.4837(4) 0.7672(3) 0.8437(4)
C5_4 C 0.4642(4) 0.7031(3) 0.8467(4)
H3_4 H 0.4143 0.6910 0.8340
C6_4 C 0.5192(4) 0.6561(3) 0.8686(4)
H4_4 H 0.5059 0.6130 0.8731
C7_4 C 0.6521(4) 0.6217(4) 0.9027(4)
C8_4 C 0.4255(4) 0.8187(3) 0.8208(4)
C9_4 C 0.0390(3) 0.8767(3) 0.7560(5)
H5_4 H 0.0647 0.8376 0.7588
C10_4 C 0.0777(3) 0.9346(3) 0.7638(4)
C11_4 C 0.0387(3) 0.9918(3) 0.7578(4)
C12_4 C 0.1618(4) 0.9331(4) 0.7780(4)
C17_4 C 0.2748(4) 0.9383(3) 0.6104(4)
H9_4 H 0.2247 0.9281 0.6054
C18_4 C 0.3758(4) 0.9676(3) 0.5854(4)
H10_4 H 0.4115 0.9826 0.5593
N1_4 N 0.3912(3) 0.9524(2) 0.6590(3)
N2_4 N 0.3244(3) 0.9334(2) 0.6760(3)
O3_4 O 0.3579(3) 0.8017(2) 0.8080(3)
O4_4 O 0.4458(2) 0.8764(2) 0.8170(2)
O5_4 O 0.1982(2) 0.9848(2) 0.7968(2)
O6_4 O 0.1929(2) 0.8798(2) 0.7673(3)
C25_4 C 0.4061(4) 0.6739(3) 0.6162(4)
C26_4 C 0.3864(4) 0.7375(3) 0.6215(4)
H15_4 H 0.3364 0.7491 0.6129
C27_4 C 0.4413(4) 0.7844(3) 0.6397(4)
H16_4 H 0.4279 0.8278 0.6408
C28_4 C 0.5163(4) 0.7672(3) 0.6563(4)
C29_4 C 0.5358(4) 0.7031(3) 0.6533(4)
H17_4 H 0.5857 0.6910 0.6660
C30_4 C 0.4808(4) 0.6561(3) 0.6314(4)
H18_4 H 0.4941 0.6130 0.6269
C31_4 C 0.3479(4) 0.6217(4) 0.5973(4)
C32_4 C 0.5745(4) 0.8187(3) 0.6792(4)
C41_4 C 0.7252(4) 0.9383(3) 0.8896(4)
H23_4 H 0.7753 0.9281 0.8946
C42_4 C 0.6242(4) 0.9676(3) 0.9146(4)
H24_4 H 0.5885 0.9826 0.9407
N7_4 N 0.6088(3) 0.9524(2) 0.8410(3)
N8_4 N 0.6756(3) 0.9334(2) 0.8240(3)
O15_4 O 0.6421(3) 0.8017(2) 0.6920(3)
O16_4 O 0.5542(2) 0.8764(2) 0.6830(2)
O17_2 O 0.8018(2) 0.9848(2) 0.7032(2)
O19_2 O 0.8071(2) 0.8798(2) 0.7327(3)
H20_4 H 0.9356 0.0310 0.7358
C33_4 C 0.9610(3) 0.8767(3) 0.7440(5)
H19_4 H 0.9353 0.8376 0.7412
C34_4 C 0.9223(3) 0.9346(3) 0.7362(4)
C35_4 C 0.9613(3) 0.9918(3) 0.7422(4)
C36_4 C 0.8382(4) 0.9331(4) 0.7220(4)
N15 N 0.7431(8) 0.3047(7) 0.2474(8)
H29 H 0.7430 0.3071 0.2982
H30 H 0.7072 0.2765 0.2256
C49 C 0.7262(10) 0.3674(8) 0.2129(10)
H31 H 0.6787 0.3817 0.2212
H32 H 0.7246 0.3648 0.1584
H33 H 0.7641 0.3977 0.2363
C50 C 0.8109(8) 0.2817(8) 0.2385(10)
H34 H 0.8198 0.2398 0.2624
H35 H 0.8495 0.3111 0.2626
H36 H 0.8110 0.2781 0.1844
N15_2 N 0.2569(8) 0.3047(7) 0.2526(8)
H29_2 H 0.2570 0.3071 0.2018
H30_2 H 0.2928 0.2765 0.2744
C49_2 C 0.2738(10) 0.3674(8) 0.2871(10)
H31_2 H 0.3213 0.3817 0.2788
H32_2 H 0.2754 0.3648 0.3416
H33_2 H 0.2359 0.3977 0.2637
C50_2 C 0.1891(8) 0.2817(8) 0.2615(10)
H34_2 H 0.1802 0.2398 0.2376
H35_2 H 0.1505 0.3111 0.2374
H36_2 H 0.1890 0.2781 0.3156
N15_3 N 0.2431(8) 0.8047(7) 0.2474(8)
H29_3 H 0.2430 0.8071 0.2982
H30_3 H 0.2072 0.7765 0.2256
C49_3 C 0.2262(10) 0.8674(8) 0.2129(10)
H31_3 H 0.1787 0.8817 0.2212
H32_3 H 0.2246 0.8648 0.1584
H33_3 H 0.2641 0.8977 0.2363
C50_3 C 0.3109(8) 0.7817(8) 0.2385(10)
H34_3 H 0.3198 0.7398 0.2624
H35_3 H 0.3495 0.8111 0.2626
H36_3 H 0.3110 0.7781 0.1844
N15_4 N 0.7569(8) 0.8047(7) 0.2526(8)
H29_4 H 0.7570 0.8071 0.2018
H30_4 H 0.7928 0.7765 0.2744
C49_4 C 0.7738(10) 0.8674(8) 0.2871(10)
H31_4 H 0.8213 0.8817 0.2788
H32_4 H 0.7754 0.8648 0.3416
H33_4 H 0.7359 0.8977 0.2637
C50_4 C 0.6891(8) 0.7817(8) 0.2615(10)
H34_4 H 0.6802 0.7398 0.2376
H35_4 H 0.6505 0.8111 0.2374
H36_4 H 0.6890 0.7781 0.3156
N15_5 N 0.2569(8) 0.6953(7) 0.7526(8)
H29_5 H 0.2570 0.6929 0.7018
H30_5 H 0.2928 0.7235 0.7744
C49_5 C 0.2738(10) 0.6326(8) 0.7871(10)
H31_5 H 0.3213 0.6183 0.7788
H32_5 H 0.2754 0.6352 0.8416
H33_5 H 0.2359 0.6023 0.7637
C50_5 C 0.1891(8) 0.7183(8) 0.7615(10)
H34_5 H 0.1802 0.7602 0.7376
H35_5 H 0.1505 0.6889 0.7374
H36_5 H 0.1890 0.7219 0.8156
N15_6 N 0.7431(8) 0.6953(7) 0.7474(8)
H29_6 H 0.7430 0.6929 0.7982
H30_6 H 0.7072 0.7235 0.7256
C49_6 C 0.7262(10) 0.6326(8) 0.7129(10)
H31_6 H 0.6787 0.6183 0.7212
H32_6 H 0.7246 0.6352 0.6584
H33_6 H 0.7641 0.6023 0.7363
C50_6 C 0.8109(8) 0.7183(8) 0.7385(10)
H34_6 H 0.8198 0.7602 0.7624
H35_6 H 0.8495 0.6889 0.7626
H36_6 H 0.8110 0.7219 0.6844
N15_7 N 0.7569(8) 0.1953(7) 0.7526(8)
H29_7 H 0.7570 0.1929 0.7018
H30_7 H 0.7928 0.2235 0.7744
C49_7 C 0.7738(10) 0.1326(8) 0.7871(10)
H31_7 H 0.8213 0.1183 0.7788
H32_7 H 0.7754 0.1352 0.8416
H33_7 H 0.7359 0.1023 0.7637
C50_7 C 0.6891(8) 0.2183(8) 0.7615(10)
H34_7 H 0.6802 0.2602 0.7376
H35_7 H 0.6505 0.1889 0.7374
H36_7 H 0.6890 0.2219 0.8156
N15_8 N 0.2431(8) 0.1953(7) 0.7474(8)
H29_8 H 0.2430 0.1929 0.7982
H30_8 H 0.2072 0.2235 0.7256
C49_8 C 0.2262(10) 0.1326(8) 0.7129(10)
H31_8 H 0.1787 0.1183 0.7212
H32_8 H 0.2246 0.1352 0.6584
H33_8 H 0.2641 0.1023 0.7363
C50_8 C 0.3109(8) 0.2183(8) 0.7385(10)
H34_8 H 0.3198 0.2602 0.7624
H35_8 H 0.3495 0.1889 0.7626
H36_8 H 0.3110 0.2219 0.6844
loop_
_geom_bond_atom_site_label_1
_geom_bond_atom_site_label_2
_geom_bond_site_symmetry_1
_geom_bond_site_symmetry_2
Cd1 N1 1_555 1_555
Cd2 N2 1_555 1_555
Cd3 N6 1_555 1_555
C5 C4 1_555 1_555
H3 C5 1_555 1_555
C8 C4 1_555 1_555
C9 H5 1_555 1_555
C10 C9 1_555 1_555
C11 C10 1_555 1_555
H6 C11 1_555 1_555
C12 C10 1_555 1_555
C13 C14 1_555 1_555
C14 H7 1_555 1_555
C16 C13 1_555 1_555
C17 H9 1_555 1_555
C18 H10 1_555 1_555
C19 C20 1_555 1_555
C20 C21 1_555 1_555
C21 H11 1_555 1_555
C22 C21 1_555 1_555
H12 C22 1_555 1_555
N1 C18 1_555 1_555
N2 C17 1_555 1_555
N3 C17 1_555 1_555
N4 Cd1 1_555 1_555
N5 Cd2 1_555 1_555
N6 C20 1_555 1_555
O1 Cd11 1_555 1_555
O2 Cd11 1_555 1_555
O3 Cd2 1_555 1_555
O4 Cd1 1_555 1_555
O5 Cd2 1_555 1_555
O6 Cd2 1_555 1_555
O7 Cd3 1_555 1_555
O8 Cd2 1_555 1_555
Cd5 O18 1_555 1_555
Cd7 N3 1_555 1_555
Cd10 O18 1_555 1_555
C25 C26 1_555 1_555
C26 H15 1_555 1_555
C27 C26 1_555 1_555
H16 C27 1_555 1_555
C30 C25 1_555 1_555
H18 C30 1_555 1_555
C31 O1 1_555 1_555
C33 C9 1_555 1_555
H19 C33 1_555 1_555
C34 C33 1_555 1_555
C35 C11 1_555 1_555
H20 C35 1_555 1_555
C36 C34 1_555 1_555
C39 C14 1_555 1_555
H22 C39 1_555 1_555
H27 C47 1_555 1_555
H28 C48 1_555 1_555
O9 Cd3 1_555 1_555
O12 Cd3 1_555 1_555
O18 C36 1_555 1_555
O20 Cd5 1_555 1_555
Cd2 O4 1_555 1_555
Cd3 O5 1_555 1_555
Cd3 O8 1_555 1_555
C8 O3 1_555 1_555
C8 O4 1_555 1_555
C12 O5 1_555 1_555
C12 O6 1_555 1_555
C16 O7 1_555 1_555
C16 O8 1_555 1_555
C18 N3 1_555 1_555
C19 N4 1_555 1_555
N1 N2 1_555 1_555
N4 N5 1_555 1_555
N5 N6 1_555 1_555
O2 C31 1_555 1_555
C25 C31 1_555 1_555
C34 C35 1_555 1_555
C36 O20 1_555 1_555
C47 C48 1_555 1_555
H8 C15 1_555 1_555
Cd6 O24 1_555 1_555
C37 C38 1_555 1_555
C38 C15 1_555 1_555
H21 C38 1_555 1_555
C40 C37 1_555 1_555
O22 C40 1_555 1_555
C40 O24 1_555 1_555
C1 C2 1_555 1_555
C2 H1 1_555 1_555
C3 C2 1_555 1_555
H2 C3 1_555 1_555
C6 C1 1_555 1_555
H4 C6 1_555 1_555
C7 C1 1_555 1_555
H13 C23 1_555 1_555
H14 C24 1_555 1_555
Cd5 N8 1_555 1_555
Cd10 N11 1_555 1_555
Cd12 O11 1_555 1_555
C29 C28 1_555 1_555
H17 C29 1_555 1_555
C32 C28 1_555 1_555
C41 H23 1_555 1_555
C42 H24 1_555 1_555
C43 C44 1_555 1_555
C44 C45 1_555 1_555
C45 H25 1_555 1_555
C46 C45 1_555 1_555
H26 C46 1_555 1_555
N7 Cd1_2 1_555 1_555
N8 C41 1_555 1_555
N10 C41 1_555 1_555
N12 Cd1_2 1_555 1_555
N13 Cd5 1_555 1_555
N14 Cd10 1_555 1_555
O10 Cd10 1_555 1_555
O11 C7 1_555 1_555
O13 Cd10 1_555 1_555
O14 C7 1_555 1_555
O15 Cd5 1_555 1_555
O16 Cd1_2 1_555 1_555
O21 Cd10 1_555 1_555
O23 Cd5 1_555 1_555
C23 C24 1_555 1_555
Cd5 O16 1_555 1_555
Cd10 O23 1_555 1_555
Cd12 O14 1_555 1_555
C32 O15 1_555 1_555
C32 O16 1_555 1_555
C42 N7 1_555 1_555
C42 N10 1_555 1_555
C43 N12 1_555 1_555
C44 N14 1_555 1_555
N7 N8 1_555 1_555
N12 N13 1_555 1_555
N13 N14 1_555 1_555
C13_2 C14_2 1_555 1_555
C14_2 H7_2 1_555 1_555
C15_2 C13_2 1_555 1_555
H8_2 C15_2 1_555 1_555
C16_2 C13_2 1_555 1_555
Cd6_2 O24_2 1_555 1_555
C37_2 C38_2 1_555 1_555
C38_2 C15_2 1_555 1_555
H21_2 C38_2 1_555 1_555
C39_2 C14_2 1_555 1_555
H22_2 C39_2 1_555 1_555
C40_2 C37_2 1_555 1_555
O22_2 C40_2 1_555 1_555
C16_2 O21 1_555 1_555
C16_2 O23 1_555 1_555
C37_2 C39_2 1_555 1_555
C40_2 O24_2 1_555 1_555
Cd5_2 O18_2 1_555 1_555
H19_2 C33_2 1_555 1_555
C34_2 C33_2 1_555 1_555
C36_2 C34_2 1_555 1_555
O18_2 C36_2 1_555 1_555
O20_2 Cd5_2 1_555 1_555
C34_2 C35_2 1_555 1_555
C36_2 O20_2 1_555 1_555
Cd1_3 N1_2 1_555 1_555
Cd2_2 N2_2 1_555 1_555
C1_2 C2_2 1_555 1_555
C2_2 H1_2 1_555 1_555
C3_2 C2_2 1_555 1_555
H2_2 C3_2 1_555 1_555
C4_2 C3_2 1_555 1_555
C5_2 C4_2 1_555 1_555
H3_2 C5_2 1_555 1_555
C6_2 C1_2 1_555 1_555
H4_2 C6_2 1_555 1_555
C7_2 C1_2 1_555 1_555
C8_2 C4_2 1_555 1_555
C9_2 H5_2 1_555 1_555
C10_2 C9_2 1_555 1_555
C11_2 C10_2 1_555 1_555
C12_2 C10_2 1_555 1_555
C13_3 C14_3 1_555 1_555
C14_3 H7_3 1_555 1_555
C16_3 C13_3 1_555 1_555
C17_2 H9_2 1_555 1_555
C18_2 H10_2 1_555 1_555
N1_2 C18_2 1_555 1_555
N2_2 C17_2 1_555 1_555
N3_2 C17_2 1_555 1_555
O3_2 Cd2_2 1_555 1_555
O4_2 Cd1_3 1_555 1_555
O5_2 Cd2_2 1_555 1_555
O6_2 Cd2_2 1_555 1_555
O8_2 Cd2_2 1_555 1_555
Cd5_2 N8_2 1_555 1_555
Cd13_2 N3_2 1_555 1_555
C25_2 C26_2 1_555 1_555
C26_2 H15_2 1_555 1_555
C27_2 C26_2 1_555 1_555
H16_2 C27_2 1_555 1_555
C28_2 C27_2 1_555 1_555
C29_2 C28_2 1_555 1_555
H17_2 C29_2 1_555 1_555
C30_2 C25_2 1_555 1_555
H18_2 C30_2 1_555 1_555
C31_2 O10 1_555 1_555
C32_2 C28_2 1_555 1_555
C39_3 C14_3 1_555 1_555
H22_3 C39_3 1_555 1_555
C41_2 H23_2 1_555 1_555
C42_2 H24_2 1_555 1_555
N7_2 Cd1_3 1_555 1_555
N8_2 C41_2 1_555 1_555
N10_2 C41_2 1_555 1_555
O9 C7_2 1_555 1_555
O12 C7_2 1_555 1_555
O15_2 Cd5_2 1_555 1_555
O16_2 Cd1_3 1_555 1_555
O23_2 Cd5_2 1_555 1_555
Cd2_2 O4_2 1_555 1_555
C5_2 C6_2 1_555 1_555
C8_2 O3_2 1_555 1_555
C8_2 O4_2 1_555 1_555
C12_2 O5_2 1_555 1_555
C12_2 O6_2 1_555 1_555
C16_3 O7_2 1_555 1_555
C16_3 O8_2 1_555 1_555
C18_2 N3_2 1_555 1_555
N1_2 N2_2 1_555 1_555
O13 C31_2 1_555 1_555
Cd5_2 O16_2 1_555 1_555
C25_2 C31_2 1_555 1_555
C29_2 C30_2 1_555 1_555
C32_2 O15_2 1_555 1_555
C32_2 O16_2 1_555 1_555
C42_2 N7_2 1_555 1_555
C42_2 N10_2 1_555 1_555
N7_2 N8_2 1_555 1_555
H8_3 C15_3 1_555 1_555
Cd6_3 O24_3 1_555 1_555
Cd8 O22_3 1_555 1_555
C37_3 C38_3 1_555 1_555
C38_3 C15_3 1_555 1_555
H21_3 C38_3 1_555 1_555
C40_3 C37_3 1_555 1_555
O22_3 C40_3 1_555 1_555
O24_3 Cd8 1_555 1_555
C40_3 O24_3 1_555 1_555
Cd12 N6_2 1_555 1_555
C19_2 C20_2 1_555 1_555
C20_2 C21_2 1_555 1_555
C21_2 H11_2 1_555 1_555
C22_2 C21_2 1_555 1_555
H12_2 C22_2 1_555 1_555
C23_2 C22_2 1_555 1_555
H13_2 C23_2 1_555 1_555
C24_2 C19_2 1_555 1_555
H14_2 C24_2 1_555 1_555
N6_2 C20_2 1_555 1_555
Cd11 N11_2 1_555 1_555
C43_2 C44_2 1_555 1_555
C44_2 C45_2 1_555 1_555
C45_2 H25_2 1_555 1_555
C46_2 C45_2 1_555 1_555
H26_2 C46_2 1_555 1_555
C47_2 C46_2 1_555 1_555
H27_2 C47_2 1_555 1_555
C48_2 C43_2 1_555 1_555
H28_2 C48_2 1_555 1_555
N14_2 Cd11 1_555 1_555
C19_2 N4_2 1_555 1_555
C23_2 C24_2 1_555 1_555
N4_2 N5_2 1_555 1_555
N5_2 N6_2 1_555 1_555
C43_2 N12_2 1_555 1_555
C44_2 N14_2 1_555 1_555
C47_2 C48_2 1_555 1_555
N12_2 N13_2 1_555 1_555
N13_2 N14_2 1_555 1_555
C13_4 C14_4 1_555 1_555
C14_4 H7_4 1_555 1_555
C15_4 C13_4 1_555 1_555
H8_4 C15_4 1_555 1_555
C16_4 C13_4 1_555 1_555
Cd6_4 O24_4 1_555 1_555
Cd7 O22_4 1_555 1_555
C37_4 C38_4 1_555 1_555
C38_4 C15_4 1_555 1_555
H21_4 C38_4 1_555 1_555
C39_4 C14_4 1_555 1_555
H22_4 C39_4 1_555 1_555
C40_4 C37_4 1_555 1_555
O22_4 C40_4 1_555 1_555
O24_4 Cd7 1_555 1_555
C16_4 O21_2 1_555 1_555
C16_4 O23_2 1_555 1_555
C37_4 C39_4 1_555 1_555
C40_4 O24_4 1_555 1_555
C1_3 C2_3 1_555 1_555
C2_3 H1_3 1_555 1_555
C3_3 C2_3 1_555 1_555
H2_3 C3_3 1_555 1_555
C6_3 C1_3 1_555 1_555
H4_3 C6_3 1_555 1_555
C7_3 C1_3 1_555 1_555
H13_3 C23_3 1_555 1_555
H14_3 C24_3 1_555 1_555
Cd6_4 N8_3 1_555 1_555
Cd13 O11_2 1_555 1_555
C29_3 C28_3 1_555 1_555
H17_3 C29_3 1_555 1_555
C32_3 C28_3 1_555 1_555
C41_3 H23_3 1_555 1_555
C42_3 H24_3 1_555 1_555
C43_3 C44_3 1_555 1_555
C44_3 C45_3 1_555 1_555
C45_3 H25_3 1_555 1_555
C46_3 C45_3 1_555 1_555
H26_3 C46_3 1_555 1_555
N7_3 Cd1_4 1_555 1_555
N8_3 C41_3 1_555 1_555
N9 C41_3 1_555 1_555
N12_3 Cd1_4 1_555 1_555
N13_3 Cd6_4 1_555 1_555
N14_3 Cd7 1_555 1_555
O10_2 Cd7 1_555 1_555
O11_2 C7_3 1_555 1_555
O13_2 Cd7 1_555 1_555
O14_2 C7_3 1_555 1_555
O15_3 Cd6_4 1_555 1_555
O16_3 Cd1_4 1_555 1_555
O17 Cd6_4 1_555 1_555
O19 Cd6_4 1_555 1_555
C23_3 C24_3 1_555 1_555
Cd6_4 O16_3 1_555 1_555
Cd7 O17 1_555 1_555
Cd13 O14_2 1_555 1_555
C32_3 O15_3 1_555 1_555
C32_3 O16_3 1_555 1_555
C42_3 N7_3 1_555 1_555
C42_3 N9 1_555 1_555
C43_3 N12_3 1_555 1_555
C44_3 N14_3 1_555 1_555
N7_3 N8_3 1_555 1_555
N12_3 N13_3 1_555 1_555
N13_3 N14_3 1_555 1_555
Cd1_5 N1_3 1_555 1_555
Cd6_3 N2_3 1_555 1_555
Cd8 N6_3 1_555 1_555
C5_3 C4_3 1_555 1_555
H3_3 C5_3 1_555 1_555
C8_3 C4_3 1_555 1_555
C9_3 H5_3 1_555 1_555
C10_3 C9_3 1_555 1_555
C11_3 C10_3 1_555 1_555
H6_3 C11_3 1_555 1_555
C12_3 C10_3 1_555 1_555
C17_3 H9_3 1_555 1_555
C18_3 H10_3 1_555 1_555
C19_3 C20_3 1_555 1_555
C20_3 C21_3 1_555 1_555
C21_3 H11_3 1_555 1_555
C22_3 C21_3 1_555 1_555
H12_3 C22_3 1_555 1_555
N1_3 C18_3 1_555 1_555
N2_3 C17_3 1_555 1_555
N11 C17_3 1_555 1_555
N4_3 Cd1_5 1_555 1_555
N5_3 Cd6_3 1_555 1_555
N6_3 C20_3 1_555 1_555
O1_2 Cd13_2 1_555 1_555
O2_2 Cd13_2 1_555 1_555
O3_3 Cd6_3 1_555 1_555
O4_3 Cd1_5 1_555 1_555
O5_3 Cd6_3 1_555 1_555
O6_3 Cd6_3 1_555 1_555
C25_3 C26_3 1_555 1_555
C26_3 H15_3 1_555 1_555
C27_3 C26_3 1_555 1_555
H16_3 C27_3 1_555 1_555
C30_3 C25_3 1_555 1_555
H18_3 C30_3 1_555 1_555
C31_3 O1_2 1_555 1_555
C33_3 C9_3 1_555 1_555
H19_3 C33_3 1_555 1_555
C34_3 C33_3 1_555 1_555
C35_3 C11_3 1_555 1_555
H20_3 C35_3 1_555 1_555
C36_3 C34_3 1_555 1_555
H27_3 C47_3 1_555 1_555
H28_3 C48_3 1_555 1_555
O9_2 Cd8 1_555 1_555
O12_2 Cd8 1_555 1_555
O17 C36_3 1_555 1_555
Cd6_3 O4_3 1_555 1_555
Cd8 O5_3 1_555 1_555
C8_3 O3_3 1_555 1_555
C8_3 O4_3 1_555 1_555
C12_3 O5_3 1_555 1_555
C12_3 O6_3 1_555 1_555
C18_3 N11 1_555 1_555
C19_3 N4_3 1_555 1_555
N1_3 N2_3 1_555 1_555
N4_3 N5_3 1_555 1_555
N5_3 N6_3 1_555 1_555
O2_2 C31_3 1_555 1_555
C25_3 C31_3 1_555 1_555
C34_3 C35_3 1_555 1_555
C36_3 O19 1_555 1_555
C47_3 C48_3 1_555 1_555
Cd13 N6_4 1_555 1_555
C19_4 C20_4 1_555 1_555
C20_4 C21_4 1_555 1_555
C21_4 H11_4 1_555 1_555
C22_4 C21_4 1_555 1_555
H12_4 C22_4 1_555 1_555
C23_4 C22_4 1_555 1_555
H13_4 C23_4 1_555 1_555
C24_4 C19_4 1_555 1_555
H14_4 C24_4 1_555 1_555
N6_4 C20_4 1_555 1_555
C43_4 C44_4 1_555 1_555
C44_4 C45_4 1_555 1_555
C45_4 H25_4 1_555 1_555
C46_4 C45_4 1_555 1_555
H26_4 C46_4 1_555 1_555
C47_4 C46_4 1_555 1_555
H27_4 C47_4 1_555 1_555
C48_4 C43_4 1_555 1_555
H28_4 C48_4 1_555 1_555
N14_4 Cd13_2 1_555 1_555
C19_4 N4_4 1_555 1_555
C23_4 C24_4 1_555 1_555
N4_4 N5_4 1_555 1_555
N5_4 N6_4 1_555 1_555
C43_4 N12_4 1_555 1_555
C44_4 N14_4 1_555 1_555
C47_4 C48_4 1_555 1_555
N12_4 N13_4 1_555 1_555
N13_4 N14_4 1_555 1_555
Cd1_6 N1_4 1_555 1_555
Cd6 N2_4 1_555 1_555
C1_4 C2_4 1_555 1_555
C2_4 H1_4 1_555 1_555
C3_4 C2_4 1_555 1_555
H2_4 C3_4 1_555 1_555
C4_4 C3_4 1_555 1_555
C5_4 C4_4 1_555 1_555
H3_4 C5_4 1_555 1_555
C6_4 C1_4 1_555 1_555
H4_4 C6_4 1_555 1_555
C7_4 C1_4 1_555 1_555
C8_4 C4_4 1_555 1_555
C9_4 H5_4 1_555 1_555
C10_4 C9_4 1_555 1_555
C11_4 C10_4 1_555 1_555
C12_4 C10_4 1_555 1_555
C17_4 H9_4 1_555 1_555
C18_4 H10_4 1_555 1_555
N1_4 C18_4 1_555 1_555
N2_4 C17_4 1_555 1_555
N11_2 C17_4 1_555 1_555
O3_4 Cd6 1_555 1_555
O4_4 Cd1_6 1_555 1_555
O5_4 Cd6 1_555 1_555
O6_4 Cd6 1_555 1_555
Cd6_2 N8_4 1_555 1_555
C25_4 C26_4 1_555 1_555
C26_4 H15_4 1_555 1_555
C27_4 C26_4 1_555 1_555
H16_4 C27_4 1_555 1_555
C28_4 C27_4 1_555 1_555
C29_4 C28_4 1_555 1_555
H17_4 C29_4 1_555 1_555
C30_4 C25_4 1_555 1_555
H18_4 C30_4 1_555 1_555
C31_4 O10_2 1_555 1_555
C32_4 C28_4 1_555 1_555
C41_4 H23_4 1_555 1_555
C42_4 H24_4 1_555 1_555
N7_4 Cd1_6 1_555 1_555
N8_4 C41_4 1_555 1_555
N9_2 C41_4 1_555 1_555
O9_2 C7_4 1_555 1_555
O12_2 C7_4 1_555 1_555
O15_4 Cd6_2 1_555 1_555
O16_4 Cd1_6 1_555 1_555
O17_2 Cd6_2 1_555 1_555
O19_2 Cd6_2 1_555 1_555
Cd6 O4_4 1_555 1_555
C5_4 C6_4 1_555 1_555
C8_4 O3_4 1_555 1_555
C8_4 O4_4 1_555 1_555
C12_4 O5_4 1_555 1_555
C12_4 O6_4 1_555 1_555
C18_4 N11_2 1_555 1_555
N1_4 N2_4 1_555 1_555
O13_2 C31_4 1_555 1_555
Cd6_2 O16_4 1_555 1_555
C25_4 C31_4 1_555 1_555
C29_4 C30_4 1_555 1_555
C32_4 O15_4 1_555 1_555
C32_4 O16_4 1_555 1_555
C42_4 N7_4 1_555 1_555
C42_4 N9_2 1_555 1_555
N7_4 N8_4 1_555 1_555
H19_4 C33_4 1_555 1_555
C34_4 C33_4 1_555 1_555
C36_4 C34_4 1_555 1_555
O17_2 C36_4 1_555 1_555
C34_4 C35_4 1_555 1_555
C36_4 O19_2 1_555 1_555
N15 H29 1_555 1_555
H30 N15 1_555 1_555
C49 N15 1_555 1_555
H31 C49 1_555 1_555
H32 C49 1_555 1_555
H33 C49 1_555 1_555
C50 N15 1_555 1_555
H34 C50 1_555 1_555
H35 C50 1_555 1_555
H36 C50 1_555 1_555
N15_2 H29_2 1_555 1_555
H30_2 N15_2 1_555 1_555
C49_2 N15_2 1_555 1_555
H31_2 C49_2 1_555 1_555
H32_2 C49_2 1_555 1_555
H33_2 C49_2 1_555 1_555
C50_2 N15_2 1_555 1_555
H34_2 C50_2 1_555 1_555
H35_2 C50_2 1_555 1_555
H36_2 C50_2 1_555 1_555
N15_3 H29_3 1_555 1_555
H30_3 N15_3 1_555 1_555
C49_3 N15_3 1_555 1_555
H31_3 C49_3 1_555 1_555
H32_3 C49_3 1_555 1_555
H33_3 C49_3 1_555 1_555
C50_3 N15_3 1_555 1_555
H34_3 C50_3 1_555 1_555
H35_3 C50_3 1_555 1_555
H36_3 C50_3 1_555 1_555
N15_4 H29_4 1_555 1_555
H30_4 N15_4 1_555 1_555
C49_4 N15_4 1_555 1_555
H31_4 C49_4 1_555 1_555
H32_4 C49_4 1_555 1_555
H33_4 C49_4 1_555 1_555
C50_4 N15_4 1_555 1_555
H34_4 C50_4 1_555 1_555
H35_4 C50_4 1_555 1_555
H36_4 C50_4 1_555 1_555
N15_5 H29_5 1_555 1_555
H30_5 N15_5 1_555 1_555
C49_5 N15_5 1_555 1_555
H31_5 C49_5 1_555 1_555
H32_5 C49_5 1_555 1_555
H33_5 C49_5 1_555 1_555
C50_5 N15_5 1_555 1_555
H34_5 C50_5 1_555 1_555
H35_5 C50_5 1_555 1_555
H36_5 C50_5 1_555 1_555
N15_6 H29_6 1_555 1_555
H30_6 N15_6 1_555 1_555
C49_6 N15_6 1_555 1_555
H31_6 C49_6 1_555 1_555
H32_6 C49_6 1_555 1_555
H33_6 C49_6 1_555 1_555
C50_6 N15_6 1_555 1_555
H34_6 C50_6 1_555 1_555
H35_6 C50_6 1_555 1_555
H36_6 C50_6 1_555 1_555
N15_7 H29_7 1_555 1_555
H30_7 N15_7 1_555 1_555
C49_7 N15_7 1_555 1_555
H31_7 C49_7 1_555 1_555
H32_7 C49_7 1_555 1_555
H33_7 C49_7 1_555 1_555
C50_7 N15_7 1_555 1_555
H34_7 C50_7 1_555 1_555
H35_7 C50_7 1_555 1_555
H36_7 C50_7 1_555 1_555
N15_8 H29_8 1_555 1_555
H30_8 N15_8 1_555 1_555
C49_8 N15_8 1_555 1_555
H31_8 C49_8 1_555 1_555
H32_8 C49_8 1_555 1_555
H33_8 C49_8 1_555 1_555
C50_8 N15_8 1_555 1_555
H34_8 C50_8 1_555 1_555
H35_8 C50_8 1_555 1_555
H36_8 C50_8 1_555 1_555

#END
