
###############################################################################
#
# This file contains modified crystal structure data generated from the
# MOF subset of the Cambridge Structural Database (CSD) v543 
# hosted by the Cambridge Crystallographic Data Centre (CCDC).
#
# This work is licensed under the Creative Commons
# Attribution-NonCommercial-ShareAlike 4.0 International License.
# To view a copy of this license, visit
# http://creativecommons.org/licenses/by-nc-sa/4.0/
# or send a letter to
# Creative Commons, PO Box 1866, Mountain View, CA 94042, USA.
#
# CIF created using the CSD Python API on 29 September 2022
# The structure has been converted into the P1 space group
# The structure has a 3D framework
# The original CSD entry DOQRUW is in the monoclinic crystal system
# The framework has been calculated to contain at least 10.0% void space
# The void calculation uses a probe of radius 1.32A, grid spacing 0.4
#
###############################################################################

data_DOQRUW
_chemical_formula_moiety         '(C56 H48 Mn4 N8 O16)n'
_symmetry_cell_setting           triclinic
_symmetry_space_group_name_H-M   'P 1'
_symmetry_Int_Tables_number      1
_space_group_name_Hall           'P 1'
loop_
_symmetry_equiv_pos_site_id
_symmetry_equiv_pos_as_xyz
1 x,y,z
_cell_length_a                   11.6612(14)
_cell_length_b                   8.6480(10)
_cell_length_c                   18.493(2)
_cell_angle_alpha                90
_cell_angle_beta                 102.037(2)
_cell_angle_gamma                90
_cell_volume                     1823.94
loop_
_atom_site_label
_atom_site_type_symbol
_atom_site_fract_x
_atom_site_fract_y
_atom_site_fract_z
Mn6 Mn 0.05837(4) 0.20622(6) 0.83420(3)
O3 O 0.02423(19) 0.2704(3) 0.21411(12)
C1 C 0.1137(3) 0.3041(5) 0.0020(2)
C2 C 0.0904(3) 0.2758(5) 0.07688(19)
C3 C 0.0234(3) 0.1670(4) 0.0956(2)
H3 H 0.120(3) 0.349(5) 0.114(2)
Mn3 Mn 0.05837(4) 0.29378(6) 0.33420(3)
O1 O 0.09134(19) 0.1975(3) 0.95399(13)
O2 O 0.1541(2) 0.4344(3) 0.99109(14)
O5 O 0.0765(3) 0.4563(3) 0.84799(16)
N1 N 0.2531(2) 0.1966(4) 0.83188(16)
N2 N 0.8631(2) 0.2011(4) 0.83384(16)
C5 C 0.3273(3) 0.2924(5) 0.8731(2)
C6 C 0.4453(3) 0.2975(5) 0.8739(2)
C7 C 0.4935(3) 0.1985(4) 0.83042(19)
C8 C 0.4160(3) 0.0995(5) 0.7861(3)
C9 C 0.2988(3) 0.1013(5) 0.7889(2)
C10 C 0.8174(3) 0.2865(5) 0.8807(2)
C11 C 0.7001(3) 0.2902(5) 0.8807(2)
C12 C 0.6214(3) 0.1992(4) 0.83169(19)
C13 C 0.6704(3) 0.1093(5) 0.7843(2)
C14 C 0.7893(3) 0.1131(5) 0.7867(2)
H1 H 0.102(3) 0.468(4) 0.900(2)
H2 H 0.039(3) 0.523(5) 0.826(2)
H5 H 0.297(3) 0.362(4) 0.9038(18)
H6 H 0.491(2) 0.362(4) 0.9024(16)
H7 H 0.436(3) 0.030(4) 0.757(2)
H8 H 0.248(3) 0.033(4) 0.760(2)
H9 H 0.872(3) 0.350(4) 0.922(2)
H10 H 0.675(3) 0.355(4) 0.9164(19)
H11 H 0.628(3) 0.050(4) 0.7504(19)
H12 H 0.825(3) 0.053(4) 0.752(2)
O6 O 0.02423(19) 0.2296(3) 0.71411(12)
N6 N 0.1369(2) 0.7989(4) 0.16616(16)
O7 O 0.90866(19) 0.8025(3) 0.04601(13)
O8 O 0.8459(2) 0.5656(3) 0.00891(14)
Mn2 Mn 0.94163(4) 0.79378(6) 0.16580(3)
O11 O 0.97577(19) 0.7704(3) 0.28589(12)
O12 O 0.9235(3) 0.5437(3) 0.15201(16)
H23 H 0.898(3) 0.532(4) 0.100(2)
H24 H 0.961(3) 0.477(5) 0.174(2)
N5 N 0.7469(2) 0.8034(4) 0.16812(16)
O9 O 0.97577(19) 0.7296(3) 0.78589(12)
C15 C 0.8863(3) 0.6959(5) 0.9980(2)
C16 C 0.9096(3) 0.7242(5) 0.92312(19)
C17 C 0.9766(3) 0.8330(4) 0.9044(2)
H13 H 0.880(3) 0.651(5) 0.886(2)
Mn4 Mn 0.94163(4) 0.70622(6) 0.66580(3)
O1_2 O 0.09134(19) 0.3025(3) 0.45399(13)
O2_2 O 0.1541(2) 0.0656(3) 0.49109(14)
O5_2 O 0.0765(3) 0.0437(3) 0.34799(16)
N1_2 N 0.2531(2) 0.3034(4) 0.33188(16)
N2_2 N 0.8631(2) 0.2989(4) 0.33384(16)
C1_2 C 0.1137(3) 0.1959(5) 0.5020(2)
C2_2 C 0.0904(3) 0.2242(5) 0.57688(19)
C3_2 C 0.0234(3) 0.3330(4) 0.5956(2)
C5_2 C 0.3273(3) 0.2076(5) 0.3731(2)
C6_2 C 0.4453(3) 0.2025(5) 0.3739(2)
C7_2 C 0.4935(3) 0.3015(4) 0.33042(19)
C8_2 C 0.4160(3) 0.4005(5) 0.2861(3)
C9_2 C 0.2988(3) 0.3987(5) 0.2889(2)
C10_2 C 0.8174(3) 0.2135(5) 0.3807(2)
C11_2 C 0.7001(3) 0.2098(5) 0.3807(2)
C12_2 C 0.6214(3) 0.3008(4) 0.33169(19)
C13_2 C 0.6704(3) 0.3907(5) 0.2843(2)
C14_2 C 0.7893(3) 0.3869(5) 0.2867(2)
H1_2 H 0.102(3) 0.032(4) 0.400(2)
H3_2 H 0.120(3) 0.151(5) 0.614(2)
H5_2 H 0.297(3) 0.138(4) 0.4038(18)
H6_2 H 0.491(2) 0.138(4) 0.4024(16)
H7_2 H 0.436(3) 0.470(4) 0.257(2)
H8_2 H 0.248(3) 0.467(4) 0.260(2)
H9_2 H 0.872(3) 0.150(4) 0.422(2)
H10_2 H 0.675(3) 0.145(4) 0.4164(19)
H11_2 H 0.628(3) 0.450(4) 0.2504(19)
H12_2 H 0.825(3) 0.447(4) 0.252(2)
O10 O 0.05279(19) 0.5374(3) 0.31215(12)
C18 C 0.0035(3) 0.6572(4) 0.32892(19)
H14 H 0.017(3) 0.592(5) 0.437(2)
N6_2 N 0.1369(2) 0.7011(4) 0.66616(16)
O4 O 0.94721(19) 0.4626(3) 0.68785(12)
C4 C 0.9965(3) 0.3428(4) 0.67108(19)
H4 H 0.983(3) 0.408(5) 0.563(2)
O7_2 O 0.90866(19) 0.6975(3) 0.54601(13)
O8_2 O 0.8459(2) 0.9344(3) 0.50891(14)
C15_2 C 0.8863(3) 0.8041(5) 0.4980(2)
C16_2 C 0.9096(3) 0.7758(5) 0.42312(19)
C17_2 C 0.9766(3) 0.6670(4) 0.4044(2)
H13_2 H 0.880(3) 0.849(5) 0.386(2)
O12_2 O 0.9235(3) 0.9563(3) 0.65201(16)
H23_2 H 0.898(3) 0.968(4) 0.600(2)
N5_2 N 0.7469(2) 0.6966(4) 0.66812(16)
C19 C 0.6727(3) 0.7076(5) 0.1269(2)
C20 C 0.5547(3) 0.7025(5) 0.1261(2)
C21 C 0.5065(3) 0.8015(4) 0.16958(19)
C22 C 0.5840(3) 0.9005(5) 0.2139(3)
C23 C 0.7012(3) 0.8987(5) 0.2111(2)
C24 C 0.1826(3) 0.7135(5) 0.1193(2)
C25 C 0.2999(3) 0.7098(5) 0.1193(2)
C26 C 0.3786(3) 0.8008(4) 0.16831(19)
C27 C 0.3296(3) 0.8907(5) 0.2157(2)
C28 C 0.2107(3) 0.8869(5) 0.2133(2)
H15 H 0.703(3) 0.638(4) 0.0962(18)
H16 H 0.509(2) 0.638(4) 0.0976(16)
H17 H 0.564(3) 0.970(4) 0.243(2)
H18 H 0.752(3) 0.967(4) 0.240(2)
H19 H 0.128(3) 0.650(4) 0.078(2)
H20 H 0.325(3) 0.645(4) 0.0836(19)
H21 H 0.372(3) 0.950(4) 0.2496(19)
H22 H 0.175(3) 0.947(4) 0.248(2)
C19_2 C 0.6727(3) 0.7924(5) 0.6269(2)
C20_2 C 0.5547(3) 0.7975(5) 0.6261(2)
C21_2 C 0.5065(3) 0.6985(4) 0.66958(19)
C22_2 C 0.5840(3) 0.5995(5) 0.7139(3)
C23_2 C 0.7012(3) 0.6013(5) 0.7111(2)
C24_2 C 0.1826(3) 0.7865(5) 0.6193(2)
C25_2 C 0.2999(3) 0.7902(5) 0.6193(2)
C26_2 C 0.3786(3) 0.6992(4) 0.66831(19)
C27_2 C 0.3296(3) 0.6093(5) 0.7157(2)
C28_2 C 0.2107(3) 0.6131(5) 0.7133(2)
H15_2 H 0.703(3) 0.862(4) 0.5962(18)
H16_2 H 0.509(2) 0.862(4) 0.5976(16)
H17_2 H 0.564(3) 0.530(4) 0.743(2)
H18_2 H 0.752(3) 0.533(4) 0.740(2)
H19_2 H 0.128(3) 0.850(4) 0.578(2)
H20_2 H 0.325(3) 0.855(4) 0.5836(19)
H21_2 H 0.372(3) 0.550(4) 0.7496(19)
H22_2 H 0.175(3) 0.553(4) 0.748(2)
O10_2 O 0.05279(19) 0.9626(3) 0.81215(12)
C18_2 C 0.0035(3) 0.8428(4) 0.82892(19)
H14_2 H 0.017(3) 0.908(5) 0.937(2)
O4_2 O 0.94721(19) 0.0374(3) 0.18785(12)
C4_2 C 0.9965(3) 0.1572(4) 0.17108(19)
H4_2 H 0.983(3) 0.092(5) 0.063(2)
H2_2 H 0.039(3) 0.977(5) 0.326(2)
H24_2 H 0.961(3) 0.023(5) 0.674(2)
loop_
_geom_bond_atom_site_label_1
_geom_bond_atom_site_label_2
_geom_bond_site_symmetry_1
_geom_bond_site_symmetry_2
C1 C2 1_555 1_555
C2 C3 1_555 1_555
H3 C2 1_555 1_555
Mn3 O3 1_555 1_555
Mn6 O1 1_555 1_555
O5 Mn6 1_555 1_555
N1 Mn6 1_555 1_555
N2 C10 1_555 1_555
C5 N1 1_555 1_555
C6 C5 1_555 1_555
C7 C6 1_555 1_555
C8 C7 1_555 1_555
C9 N1 1_555 1_555
C10 C11 1_555 1_555
C11 C12 1_555 1_555
C12 C7 1_555 1_555
C13 C12 1_555 1_555
C14 N2 1_555 1_555
H1 O5 1_555 1_555
H2 O5 1_555 1_555
H5 C5 1_555 1_555
H6 C6 1_555 1_555
H7 C8 1_555 1_555
H8 C9 1_555 1_555
H9 C10 1_555 1_555
H10 C11 1_555 1_555
H11 C13 1_555 1_555
H12 C14 1_555 1_555
O6 Mn6 1_555 1_555
C8 C9 1_555 1_555
C13 C14 1_555 1_555
O11 Mn2 1_555 1_555
O12 Mn2 1_555 1_555
H23 O12 1_555 1_555
H24 O12 1_555 1_555
N5 Mn2 1_555 1_555
O7 Mn2 1_555 1_555
C15 C16 1_555 1_555
C16 C17 1_555 1_555
H13 C16 1_555 1_555
Mn4 O9 1_555 1_555
Mn3 O1_2 1_555 1_555
O1_2 C1_2 1_555 1_555
O2_2 C1_2 1_555 1_555
O5_2 Mn3 1_555 1_555
N1_2 Mn3 1_555 1_555
N2_2 C10_2 1_555 1_555
C1_2 C2_2 1_555 1_555
C2_2 C3_2 1_555 1_555
C5_2 N1_2 1_555 1_555
C6_2 C5_2 1_555 1_555
C7_2 C6_2 1_555 1_555
C8_2 C7_2 1_555 1_555
C9_2 N1_2 1_555 1_555
C10_2 C11_2 1_555 1_555
C11_2 C12_2 1_555 1_555
C12_2 C7_2 1_555 1_555
C13_2 C12_2 1_555 1_555
C14_2 N2_2 1_555 1_555
H1_2 O5_2 1_555 1_555
H3_2 C2_2 1_555 1_555
H5_2 C5_2 1_555 1_555
H6_2 C6_2 1_555 1_555
H7_2 C8_2 1_555 1_555
H8_2 C9_2 1_555 1_555
H9_2 C10_2 1_555 1_555
H10_2 C11_2 1_555 1_555
H11_2 C13_2 1_555 1_555
H12_2 C14_2 1_555 1_555
O10 Mn3 1_555 1_555
C18 O10 1_555 1_555
C8_2 C9_2 1_555 1_555
C13_2 C14_2 1_555 1_555
O4 C4 1_555 1_555
O7_2 C15_2 1_555 1_555
O8_2 C15_2 1_555 1_555
C15_2 C16_2 1_555 1_555
C16_2 C17_2 1_555 1_555
H13_2 C16_2 1_555 1_555
Mn4 O4 1_555 1_555
O12_2 Mn4 1_555 1_555
H23_2 O12_2 1_555 1_555
N5_2 Mn4 1_555 1_555
O7_2 Mn4 1_555 1_555
N5 C19 1_555 1_555
C19 C20 1_555 1_555
C20 C21 1_555 1_555
C21 C22 1_555 1_555
C22 C23 1_555 1_555
C23 N5 1_555 1_555
C24 N6 1_555 1_555
C25 C24 1_555 1_555
C26 C21 1_555 1_555
C27 C26 1_555 1_555
C28 N6 1_555 1_555
H15 C19 1_555 1_555
H16 C20 1_555 1_555
H17 C22 1_555 1_555
H18 C23 1_555 1_555
H19 C24 1_555 1_555
H20 C25 1_555 1_555
H21 C27 1_555 1_555
H22 C28 1_555 1_555
C25 C26 1_555 1_555
C27 C28 1_555 1_555
N5_2 C19_2 1_555 1_555
C19_2 C20_2 1_555 1_555
C20_2 C21_2 1_555 1_555
C21_2 C22_2 1_555 1_555
C22_2 C23_2 1_555 1_555
C23_2 N5_2 1_555 1_555
C24_2 N6_2 1_555 1_555
C25_2 C24_2 1_555 1_555
C26_2 C21_2 1_555 1_555
C27_2 C26_2 1_555 1_555
C28_2 N6_2 1_555 1_555
H15_2 C19_2 1_555 1_555
H16_2 C20_2 1_555 1_555
H17_2 C22_2 1_555 1_555
H18_2 C23_2 1_555 1_555
H19_2 C24_2 1_555 1_555
H20_2 C25_2 1_555 1_555
H21_2 C27_2 1_555 1_555
H22_2 C28_2 1_555 1_555
C25_2 C26_2 1_555 1_555
C27_2 C28_2 1_555 1_555
C18_2 O10_2 1_555 1_555
O4_2 C4_2 1_555 1_555

#END
