
###############################################################################
#
# This file contains modified crystal structure data generated from the
# MOF subset of the Cambridge Structural Database (CSD) v543 
# hosted by the Cambridge Crystallographic Data Centre (CCDC).
#
# This work is licensed under the Creative Commons
# Attribution-NonCommercial-ShareAlike 4.0 International License.
# To view a copy of this license, visit
# http://creativecommons.org/licenses/by-nc-sa/4.0/
# or send a letter to
# Creative Commons, PO Box 1866, Mountain View, CA 94042, USA.
#
# CIF created using the CSD Python API on 29 September 2022
# The structure has been converted into the P1 space group
# The structure has a 3D framework
# The original CSD entry DOQRUY is in the orthorhombic crystal system
# The framework has been calculated to contain at least 10.0% void space
# The void calculation uses a probe of radius 1.32A, grid spacing 0.4
# The framework is charged, counterions have been retained in the structure
#
###############################################################################

data_DOQRUY
_chemical_formula_moiety         '(C768 H288 Co44 Na80 O384 16-)n'
_symmetry_cell_setting           triclinic
_symmetry_space_group_name_H-M   'P 1'
_symmetry_Int_Tables_number      1
_space_group_name_Hall           'P 1'
loop_
_symmetry_equiv_pos_site_id
_symmetry_equiv_pos_as_xyz
1 x,y,z
_cell_length_a                   25.655(5)
_cell_length_b                   28.561(6)
_cell_length_c                   32.001(6)
_cell_angle_alpha                90
_cell_angle_beta                 90
_cell_angle_gamma                90
_cell_volume                     23448.2
loop_
_atom_site_label
_atom_site_type_symbol
_atom_site_fract_x
_atom_site_fract_y
_atom_site_fract_z
Na1 Na 0.6250 0.1250 0.74466(10)
Na1_2 Na 0.1250 0.6250 0.74466(10)
Na1_3 Na 0.1250 0.1250 0.00534(10)
Na1_4 Na 0.6250 0.6250 0.00534(10)
Na1_5 Na 0.6250 0.6250 0.24466(10)
Na1_6 Na 0.1250 0.1250 0.24466(10)
Na1_7 Na 0.1250 0.6250 0.50534(10)
Na1_8 Na 0.6250 0.1250 0.50534(10)
Na1_9 Na 0.3750 0.8750 0.25534(10)
Na1_10 Na 0.8750 0.3750 0.25534(10)
Na1_11 Na 0.8750 0.8750 0.99466(10)
Na1_12 Na 0.3750 0.3750 0.99466(10)
Na1_13 Na 0.3750 0.3750 0.75534(10)
Na1_14 Na 0.8750 0.8750 0.75534(10)
Na1_15 Na 0.8750 0.3750 0.49466(10)
Na1_16 Na 0.3750 0.8750 0.49466(10)
Na2 Na 0.6250 0.1250 0.86421(6)
Na2_2 Na 0.1250 0.6250 0.86421(6)
Na2_3 Na 0.1250 0.1250 0.88579(6)
Na2_4 Na 0.6250 0.6250 0.88579(6)
Na2_5 Na 0.6250 0.6250 0.36421(6)
Na2_6 Na 0.1250 0.1250 0.36421(6)
Na2_7 Na 0.1250 0.6250 0.38579(6)
Na2_8 Na 0.6250 0.1250 0.38579(6)
Na2_9 Na 0.3750 0.8750 0.13579(6)
Na2_10 Na 0.8750 0.3750 0.13579(6)
Na2_11 Na 0.8750 0.8750 0.11421(6)
Na2_12 Na 0.3750 0.3750 0.11421(6)
Na2_13 Na 0.3750 0.3750 0.63579(6)
Na2_14 Na 0.8750 0.8750 0.63579(6)
Na2_15 Na 0.8750 0.3750 0.61421(6)
Na2_16 Na 0.3750 0.8750 0.61421(6)
Na3 Na 0.73839(7) 0.15061(9) 0.94924(7)
Na3_2 Na 0.01161(7) 0.59939(9) 0.94924(7)
Na3_3 Na 0.01161(7) 0.15061(9) 0.80076(7)
Na3_4 Na 0.73839(7) 0.59939(9) 0.80076(7)
Na3_5 Na 0.73839(7) 0.65061(9) 0.44924(7)
Na3_6 Na 0.01161(7) 0.09939(9) 0.44924(7)
Na3_7 Na 0.01161(7) 0.65061(9) 0.30076(7)
Na3_8 Na 0.73839(7) 0.09939(9) 0.30076(7)
Na3_9 Na 0.23839(7) 0.15061(9) 0.44924(7)
Na3_10 Na 0.51161(7) 0.59939(9) 0.44924(7)
Na3_11 Na 0.51161(7) 0.15061(9) 0.30076(7)
Na3_12 Na 0.23839(7) 0.59939(9) 0.30076(7)
Na3_13 Na 0.23839(7) 0.65061(9) 0.94924(7)
Na3_14 Na 0.51161(7) 0.09939(9) 0.94924(7)
Na3_15 Na 0.51161(7) 0.65061(9) 0.80076(7)
Na3_16 Na 0.23839(7) 0.09939(9) 0.80076(7)
Na3_17 Na 0.26161(7) 0.84939(9) 0.05076(7)
Na3_18 Na 0.98839(7) 0.40061(9) 0.05076(7)
Na3_19 Na 0.98839(7) 0.84939(9) 0.19924(7)
Na3_20 Na 0.26161(7) 0.40061(9) 0.19924(7)
Na3_21 Na 0.26161(7) 0.34939(9) 0.55076(7)
Na3_22 Na 0.98839(7) 0.90061(9) 0.55076(7)
Na3_23 Na 0.98839(7) 0.34939(9) 0.69924(7)
Na3_24 Na 0.26161(7) 0.90061(9) 0.69924(7)
Na3_25 Na 0.76161(7) 0.84939(9) 0.55076(7)
Na3_26 Na 0.48839(7) 0.40061(9) 0.55076(7)
Na3_27 Na 0.48839(7) 0.84939(9) 0.69924(7)
Na3_28 Na 0.76161(7) 0.40061(9) 0.69924(7)
Na3_29 Na 0.76161(7) 0.34939(9) 0.05076(7)
Na3_30 Na 0.48839(7) 0.90061(9) 0.05076(7)
Na3_31 Na 0.48839(7) 0.34939(9) 0.19924(7)
Na3_32 Na 0.76161(7) 0.90061(9) 0.19924(7)
Na4 Na 0.6250 0.1250 0.6250
Na4_2 Na 0.1250 0.6250 0.6250
Na4_3 Na 0.1250 0.1250 0.1250
Na4_4 Na 0.6250 0.6250 0.1250
Na4_5 Na 0.3750 0.8750 0.3750
Na4_6 Na 0.8750 0.3750 0.3750
Na4_7 Na 0.8750 0.8750 0.8750
Na4_8 Na 0.3750 0.3750 0.8750
Na5 Na 0.8750 0.3750 0.8750
Na5_2 Na 0.8750 0.8750 0.3750
Na5_3 Na 0.3750 0.3750 0.3750
Na5_4 Na 0.3750 0.8750 0.8750
Na5_5 Na 0.1250 0.6250 0.1250
Na5_6 Na 0.1250 0.1250 0.6250
Na5_7 Na 0.6250 0.6250 0.6250
Na5_8 Na 0.6250 0.1250 0.1250
O18 O 0.03279(14) 0.61422(13) 0.73188(12)
C34 C 0.02997(19) 0.64281(19) 0.70099(17)
O21 O 0.06653(18) 0.65004(17) 0.67745(17)
H14 H 0.0183 0.7327 0.6953
Co5 Co 0.00733(3) 0.87975(2) 0.71550(2)
O25 O 0.0092(2) 0.56005(15) 0.80817(15)
O26 O 0.00781(15) 0.68409(13) 0.80369(12)
C1 C 0.0221(2) 0.54901(19) 0.8444(2)
O5 O 0.0356(2) 0.57626(16) 0.87222(16)
C4 C 0.0197(2) 0.49711(19) 0.85377(18)
C8 C 0.0410(3) 0.4782(2) 0.8892(2)
C14 C 0.0383(3) 0.4310(2) 0.8975(2)
H2 H 0.0580 0.4982 0.9086
C19 C 0.0134(2) 0.40069(19) 0.87013(17)
H5 H 0.0537 0.4190 0.9222
O13 O 0.0092(2) 0.18995(15) 0.94183(15)
C25 C 0.0221(2) 0.20099(19) 0.9056(2)
O14 O 0.0356(2) 0.17374(16) 0.87778(16)
C26 C 0.0197(2) 0.25289(19) 0.89623(18)
C28 C 0.0410(3) 0.2718(2) 0.8608(2)
C30 C 0.0383(3) 0.3190(2) 0.8525(2)
H11 H 0.0580 0.2518 0.8414
C31 C 0.0134(2) 0.34931(19) 0.87987(17)
H12 H 0.0537 0.3310 0.8278
O27 O 0.00781(15) 0.06591(13) 0.94631(12)
C5 C 0.8971(2) 0.17307(18) 0.01702(16)
C6 C 0.9799(2) 0.07948(17) 0.05285(15)
C9 C 0.9232(2) 0.15232(18) 0.05032(17)
C10 C 0.8864(2) 0.2215(2) 0.01714(18)
C11 C 0.9306(2) 0.10018(17) 0.05169(16)
C12 C 0.98467(19) 0.03107(18) 0.05379(16)
O9 O 0.91935(18) 0.32669(14) 0.07363(13)
O11 O 0.8611(2) 0.31537(16) 0.02272(16)
C15 C 0.9390(2) 0.1804(2) 0.08345(16)
C16 C 0.9033(2) 0.24934(19) 0.05019(16)
C17 C 0.8868(2) 0.07145(19) 0.05341(18)
C18 C 0.94064(19) 0.00249(17) 0.05348(16)
C21 C 0.9299(2) 0.22800(18) 0.08354(16)
H6 H 0.9563 0.1665 0.1065
C22 C 0.8949(3) 0.3012(2) 0.04894(18)
C23 C 0.8915(2) 0.02301(18) 0.05362(17)
H7 H 0.8532 0.0852 0.0545
H8 H 0.9417 0.2465 0.1063
H9 H 0.8611 0.0039 0.0539
O18_2 O 0.71721(14) 0.61422(13) 0.01812(12)
O19 O 0.75781(15) 0.81591(13) 0.05369(12)
C34_2 C 0.72003(19) 0.64281(19) 0.04901(17)
C35 C 0.8529(2) 0.57693(18) 0.01702(16)
O21_2 O 0.68347(18) 0.65004(17) 0.07255(17)
C36 C 0.7701(2) 0.67052(17) 0.05285(15)
O22 O 0.84385(15) 0.82427(13) 0.04619(14)
C37 C 0.8268(2) 0.59768(18) 0.05032(17)
C38 C 0.8636(2) 0.5285(2) 0.01714(18)
C39 C 0.8194(2) 0.64982(17) 0.05169(16)
C40 C 0.76533(19) 0.71893(18) 0.05379(16)
O23 O 0.83065(18) 0.42331(14) 0.07363(13)
O24 O 0.8889(2) 0.43463(16) 0.02272(16)
C41 C 0.8110(2) 0.5696(2) 0.08345(16)
C42 C 0.8467(2) 0.50066(19) 0.05019(16)
C43 C 0.8632(2) 0.67855(19) 0.05341(18)
H14_2 H 0.7317 0.7327 0.0547
C44 C 0.80936(19) 0.74751(17) 0.05348(16)
C45 C 0.8201(2) 0.52200(18) 0.08354(16)
H15 H 0.7937 0.5835 0.1065
C46 C 0.8551(3) 0.4488(2) 0.04894(18)
C47 C 0.8585(2) 0.72699(18) 0.05362(17)
H16 H 0.8968 0.6648 0.0545
C48 C 0.8044(2) 0.80019(18) 0.05106(16)
H17 H 0.8083 0.5035 0.1063
H18 H 0.8889 0.7461 0.0539
Co5_2 Co 0.74267(3) 0.87975(2) 0.03450(2)
Co1 Co 0.25733(3) 0.12975(2) 0.28450(2)
O1 O 0.2408(2) 0.18995(15) 0.30817(15)
O2 O 0.33279(16) 0.12327(13) 0.28986(12)
O3 O 0.21721(14) 0.13578(13) 0.23188(12)
C1_2 C 0.2279(2) 0.20099(19) 0.3444(2)
C2 C 0.3690(2) 0.1455(2) 0.27071(19)
C3 C 0.22003(19) 0.10719(19) 0.20099(17)
O5_2 O 0.2144(2) 0.17374(16) 0.37222(16)
C4_2 C 0.2303(2) 0.25289(19) 0.35377(18)
O6 O 0.41509(17) 0.14546(19) 0.28222(17)
C5_2 C 0.3529(2) 0.17307(18) 0.23298(16)
O7 O 0.18347(18) 0.09996(17) 0.17745(17)
C6_2 C 0.2701(2) 0.07948(17) 0.19715(15)
C7 C 0.2540(2) 0.28311(19) 0.32553(17)
C8_2 C 0.2090(3) 0.2718(2) 0.3892(2)
C9_2 C 0.3268(2) 0.15232(18) 0.19968(17)
C10_2 C 0.3636(2) 0.2215(2) 0.23286(18)
C11_2 C 0.3194(2) 0.10018(17) 0.19831(16)
C12_2 C 0.26533(19) 0.03107(18) 0.19621(16)
O9_2 O 0.33065(18) 0.32669(14) 0.17637(13)
O10 O 0.2911(5) 0.3510(2) 0.2676(2)
O11_2 O 0.3889(2) 0.31537(16) 0.22728(16)
H1 H 0.2678 0.2710 0.3002
C13 C 0.25789(19) 0.33110(18) 0.33373(16)
C14_2 C 0.2117(3) 0.3190(2) 0.3975(2)
H2_2 H 0.1920 0.2518 0.4086
C15_2 C 0.3110(2) 0.1804(2) 0.16655(16)
H3 H 0.3824 0.2351 0.2554
C16_2 C 0.3467(2) 0.24934(19) 0.19981(16)
C17_2 C 0.3632(2) 0.07145(19) 0.19659(18)
H4 H 0.2317 0.0173 0.1953
C18_2 C 0.30936(19) 0.00249(17) 0.19652(16)
C19_2 C 0.2366(2) 0.34931(19) 0.37013(17)
C20 C 0.2909(3) 0.3592(2) 0.3036(2)
H5_2 H 0.1963 0.3310 0.4222
C21_2 C 0.3201(2) 0.22800(18) 0.16646(16)
H6_2 H 0.2937 0.1665 0.1435
C22_2 C 0.3551(3) 0.3012(2) 0.20106(18)
C23_2 C 0.3585(2) 0.02301(18) 0.19638(17)
H7_2 H 0.3968 0.0852 0.1955
O12 O 0.3217(3) 0.3870(4) 0.3175(3)
H8_2 H 0.3083 0.2465 0.1437
H9_2 H 0.3889 0.0039 0.1961
Co2 Co 0.3750 0.3750 0.25691(3)
O13_2 O 0.2408(2) 0.56005(15) 0.44183(15)
C25_2 C 0.2279(2) 0.54901(19) 0.4056(2)
O14_2 O 0.2144(2) 0.57626(16) 0.37778(16)
C26_2 C 0.2303(2) 0.49711(19) 0.39623(18)
C27 C 0.2540(2) 0.46689(19) 0.42447(17)
C28_2 C 0.2090(3) 0.4782(2) 0.3608(2)
O15 O 0.2911(5) 0.3990(2) 0.4824(2)
H10 H 0.2678 0.4790 0.4498
C29 C 0.25789(19) 0.41890(18) 0.41627(16)
C30_2 C 0.2117(3) 0.4310(2) 0.3525(2)
H11_2 H 0.1920 0.4982 0.3414
C31_2 C 0.2366(2) 0.40069(19) 0.37987(17)
C32 C 0.2909(3) 0.3908(2) 0.4464(2)
H12_2 H 0.1963 0.4190 0.3278
O16 O 0.3217(3) 0.3630(4) 0.4325(3)
Co3 Co 0.49267(3) 0.62025(2) 0.28450(2)
O17 O 0.41721(16) 0.62673(13) 0.28986(12)
O18_3 O 0.53279(14) 0.61422(13) 0.23188(12)
O19_2 O 0.49219(15) 0.81591(13) 0.19631(12)
C33 C 0.3810(2) 0.6045(2) 0.27071(19)
C34_3 C 0.52997(19) 0.64281(19) 0.20099(17)
O20 O 0.33491(17) 0.60454(19) 0.28222(17)
C35_2 C 0.3971(2) 0.57693(18) 0.23298(16)
O21_3 O 0.56653(18) 0.65004(17) 0.17745(17)
C36_2 C 0.4799(2) 0.67052(17) 0.19715(15)
O22_2 O 0.40615(15) 0.82427(13) 0.20381(14)
C37_2 C 0.4232(2) 0.59768(18) 0.19968(17)
C38_2 C 0.3864(2) 0.5285(2) 0.23286(18)
C39_2 C 0.4306(2) 0.64982(17) 0.19831(16)
C40_2 C 0.48467(19) 0.71893(18) 0.19621(16)
O23_2 O 0.41935(18) 0.42331(14) 0.17637(13)
O24_2 O 0.3611(2) 0.43463(16) 0.22728(16)
C41_2 C 0.4390(2) 0.5696(2) 0.16655(16)
H13 H 0.3676 0.5149 0.2554
C42_2 C 0.4033(2) 0.50066(19) 0.19981(16)
C43_2 C 0.3868(2) 0.67855(19) 0.19659(18)
H14_3 H 0.5183 0.7327 0.1953
C44_2 C 0.44064(19) 0.74751(17) 0.19652(16)
C45_2 C 0.4299(2) 0.52200(18) 0.16646(16)
H15_2 H 0.4563 0.5835 0.1435
C46_2 C 0.3949(3) 0.4488(2) 0.20106(18)
C47_2 C 0.3915(2) 0.72699(18) 0.19638(17)
H16_2 H 0.3532 0.6648 0.1955
C48_2 C 0.4456(2) 0.80019(18) 0.19894(16)
H17_2 H 0.4417 0.5035 0.1437
H18_2 H 0.3611 0.7461 0.1961
Co4 Co 0.25733(3) 0.62025(2) 0.46550(2)
Co5_3 Co 0.50733(3) 0.87975(2) 0.21550(2)
O25_2 O 0.5092(2) 0.56005(15) 0.30817(15)
O26_2 O 0.50781(15) 0.68409(13) 0.30369(12)
O27_2 O 0.24219(15) 0.06591(13) 0.30369(12)
O28 O 0.4589(5) 0.3990(2) 0.2676(2)
O29 O 0.4283(3) 0.3630(4) 0.3175(3)
Co7 Co 0.3750 0.3750 0.49309(3)
C1_3 C 0.5221(2) 0.54901(19) 0.3444(2)
O5_3 O 0.5356(2) 0.57626(16) 0.37222(16)
C4_3 C 0.5197(2) 0.49711(19) 0.35377(18)
C7_2 C 0.4960(2) 0.46689(19) 0.32553(17)
C8_3 C 0.5410(3) 0.4782(2) 0.3892(2)
H1_2 H 0.4822 0.4790 0.3002
C13_2 C 0.49211(19) 0.41890(18) 0.33373(16)
C14_3 C 0.5383(3) 0.4310(2) 0.3975(2)
H2_3 H 0.5580 0.4982 0.4086
C19_3 C 0.5134(2) 0.40069(19) 0.37013(17)
C20_2 C 0.4591(3) 0.3908(2) 0.3036(2)
H5_3 H 0.5537 0.4190 0.4222
O13_3 O 0.5092(2) 0.18995(15) 0.44183(15)
C25_3 C 0.5221(2) 0.20099(19) 0.4056(2)
O14_3 O 0.5356(2) 0.17374(16) 0.37778(16)
C26_3 C 0.5197(2) 0.25289(19) 0.39623(18)
C27_2 C 0.4960(2) 0.28311(19) 0.42447(17)
C28_3 C 0.5410(3) 0.2718(2) 0.3608(2)
O15_2 O 0.4589(5) 0.3510(2) 0.4824(2)
H10_2 H 0.4822 0.2710 0.4498
C29_2 C 0.49211(19) 0.33110(18) 0.41627(16)
C30_3 C 0.5383(3) 0.3190(2) 0.3525(2)
H11_3 H 0.5580 0.2518 0.3414
C31_3 C 0.5134(2) 0.34931(19) 0.37987(17)
C32_2 C 0.4591(3) 0.3592(2) 0.4464(2)
H12_3 H 0.5537 0.3310 0.3278
O16_2 O 0.4283(3) 0.3870(4) 0.4325(3)
Co4_2 Co 0.49267(3) 0.12975(2) 0.46550(2)
O2_2 O 0.41721(16) 0.12327(13) 0.46014(12)
O3_2 O 0.53279(14) 0.13578(13) 0.51812(12)
C2_2 C 0.3810(2) 0.1455(2) 0.47929(19)
C3_2 C 0.52997(19) 0.10719(19) 0.54901(17)
O6_2 O 0.33491(17) 0.14546(19) 0.46778(17)
C5_3 C 0.3971(2) 0.17307(18) 0.51702(16)
O7_2 O 0.56653(18) 0.09996(17) 0.57255(17)
C6_3 C 0.4799(2) 0.07948(17) 0.55285(15)
C9_3 C 0.4232(2) 0.15232(18) 0.55032(17)
C10_3 C 0.3864(2) 0.2215(2) 0.51714(18)
C11_3 C 0.4306(2) 0.10018(17) 0.55169(16)
C12_3 C 0.48467(19) 0.03107(18) 0.55379(16)
O9_3 O 0.41935(18) 0.32669(14) 0.57363(13)
O11_3 O 0.3611(2) 0.31537(16) 0.52272(16)
C15_3 C 0.4390(2) 0.1804(2) 0.58345(16)
H3_2 H 0.3676 0.2351 0.4946
C16_3 C 0.4033(2) 0.24934(19) 0.55019(16)
C17_3 C 0.3868(2) 0.07145(19) 0.55341(18)
H4_2 H 0.5183 0.0173 0.5547
C18_3 C 0.44064(19) 0.00249(17) 0.55348(16)
C21_3 C 0.4299(2) 0.22800(18) 0.58354(16)
H6_3 H 0.4563 0.1665 0.6065
C22_3 C 0.3949(3) 0.3012(2) 0.54894(18)
C23_3 C 0.3915(2) 0.02301(18) 0.55362(17)
H7_3 H 0.3532 0.0852 0.5545
H8_3 H 0.4417 0.2465 0.6063
H9_3 H 0.3611 0.0039 0.5539
O17_2 O 0.33279(16) 0.62673(13) 0.46014(12)
O18_4 O 0.21721(14) 0.61422(13) 0.51812(12)
O19_3 O 0.25781(15) 0.81591(13) 0.55369(12)
C33_2 C 0.3690(2) 0.6045(2) 0.47929(19)
C34_4 C 0.22003(19) 0.64281(19) 0.54901(17)
O20_2 O 0.41509(17) 0.60454(19) 0.46778(17)
C35_3 C 0.3529(2) 0.57693(18) 0.51702(16)
O21_4 O 0.18347(18) 0.65004(17) 0.57255(17)
C36_3 C 0.2701(2) 0.67052(17) 0.55285(15)
O22_3 O 0.34385(15) 0.82427(13) 0.54619(14)
C37_3 C 0.3268(2) 0.59768(18) 0.55032(17)
C38_3 C 0.3636(2) 0.5285(2) 0.51714(18)
C39_3 C 0.3194(2) 0.64982(17) 0.55169(16)
C40_3 C 0.26533(19) 0.71893(18) 0.55379(16)
O23_3 O 0.33065(18) 0.42331(14) 0.57363(13)
O24_3 O 0.3889(2) 0.43463(16) 0.52272(16)
C41_3 C 0.3110(2) 0.5696(2) 0.58345(16)
H13_2 H 0.3824 0.5149 0.4946
C42_3 C 0.3467(2) 0.50066(19) 0.55019(16)
C43_3 C 0.3632(2) 0.67855(19) 0.55341(18)
H14_4 H 0.2317 0.7327 0.5547
C44_3 C 0.30936(19) 0.74751(17) 0.55348(16)
C45_3 C 0.3201(2) 0.52200(18) 0.58354(16)
H15_3 H 0.2937 0.5835 0.6065
C46_3 C 0.3551(3) 0.4488(2) 0.54894(18)
C47_3 C 0.3585(2) 0.72699(18) 0.55362(17)
H16_3 H 0.3968 0.6648 0.5545
C48_3 C 0.3044(2) 0.80019(18) 0.55106(16)
H17_3 H 0.3083 0.5035 0.6063
H18_3 H 0.3889 0.7461 0.5539
Co5_4 Co 0.24267(3) 0.87975(2) 0.53450(2)
O26_3 O 0.24219(15) 0.68409(13) 0.44631(12)
O27_3 O 0.50781(15) 0.06591(13) 0.44631(12)
O8 O 0.15615(15) 0.07427(13) 0.29619(14)
C24 C 0.1956(2) 0.05019(18) 0.30106(16)
O8_2 O 0.09385(15) 0.07427(13) 0.95381(14)
C24_2 C 0.0544(2) 0.05019(18) 0.94894(16)
O13_4 O 0.2592(2) 0.93995(15) 0.55817(15)
C25_4 C 0.2721(2) 0.95099(19) 0.5944(2)
O14_4 O 0.2856(2) 0.92374(16) 0.62222(16)
O17_3 O 0.08279(16) 0.87327(13) 0.71014(12)
C33_3 C 0.1190(2) 0.8955(2) 0.72929(19)
O20_3 O 0.16509(17) 0.89546(19) 0.71778(17)
C35_4 C 0.1029(2) 0.92307(18) 0.76702(16)
C36_4 C 0.0201(2) 0.82948(17) 0.80285(15)
O22_4 O 0.09385(15) 0.67573(13) 0.79619(14)
C37_4 C 0.0768(2) 0.90232(18) 0.80032(17)
C38_4 C 0.1136(2) 0.9715(2) 0.76714(18)
C39_4 C 0.0694(2) 0.85018(17) 0.80169(16)
C40_4 C 0.01533(19) 0.78107(18) 0.80379(16)
C41_4 C 0.0610(2) 0.9304(2) 0.83345(16)
H13_3 H 0.1324 0.9851 0.7446
C42_4 C 0.0967(2) 0.99934(19) 0.80019(16)
C43_4 C 0.1132(2) 0.82145(19) 0.80341(18)
C44_4 C 0.05936(19) 0.75249(17) 0.80348(16)
C45_4 C 0.0701(2) 0.97800(18) 0.83354(16)
H15_4 H 0.0437 0.9165 0.8565
C47_4 C 0.1085(2) 0.77301(18) 0.80362(17)
H16_4 H 0.1468 0.8352 0.8045
C48_4 C 0.0544(2) 0.69981(18) 0.80106(16)
H17_4 H 0.0583 0.9965 0.8563
H18_4 H 0.1389 0.7539 0.8039
O17_4 O 0.16721(16) 0.87327(13) 0.53986(12)
O18_5 O 0.28279(14) 0.88578(13) 0.48188(12)
C33_4 C 0.1310(2) 0.8955(2) 0.52071(19)
C34_5 C 0.27997(19) 0.85719(19) 0.45099(17)
O20_4 O 0.08491(17) 0.89546(19) 0.53222(17)
C35_5 C 0.1471(2) 0.92307(18) 0.48298(16)
O21_5 O 0.31653(18) 0.84996(17) 0.42745(17)
C36_5 C 0.2299(2) 0.82948(17) 0.44715(15)
O22_5 O 0.15615(15) 0.67573(13) 0.45381(14)
C37_5 C 0.1732(2) 0.90232(18) 0.44968(17)
C38_5 C 0.1364(2) 0.9715(2) 0.48286(18)
C39_5 C 0.1806(2) 0.85018(17) 0.44831(16)
C40_5 C 0.23467(19) 0.78107(18) 0.44621(16)
C41_5 C 0.1890(2) 0.9304(2) 0.41655(16)
H13_4 H 0.1176 0.9851 0.5054
C42_5 C 0.1533(2) 0.99934(19) 0.44981(16)
C43_5 C 0.1368(2) 0.82145(19) 0.44659(18)
H14_5 H 0.2683 0.7673 0.4453
C44_5 C 0.19064(19) 0.75249(17) 0.44652(16)
C45_5 C 0.1799(2) 0.97800(18) 0.41646(16)
H15_5 H 0.2063 0.9165 0.3935
C47_5 C 0.1415(2) 0.77301(18) 0.44638(17)
H16_5 H 0.1032 0.8352 0.4455
C48_5 C 0.1956(2) 0.69981(18) 0.44894(16)
H17_5 H 0.1917 0.9965 0.3937
H18_5 H 0.1111 0.7539 0.4461
O8_3 O 0.59385(15) 0.07427(13) 0.45381(14)
C24_3 C 0.5544(2) 0.05019(18) 0.44894(16)
O13_5 O 0.7592(2) 0.93995(15) 0.05817(15)
C25_5 C 0.7721(2) 0.95099(19) 0.0944(2)
O14_5 O 0.7856(2) 0.92374(16) 0.12222(16)
O17_5 O 0.58279(16) 0.87327(13) 0.21014(12)
O18_6 O 0.46721(14) 0.88578(13) 0.26812(12)
C33_5 C 0.6190(2) 0.8955(2) 0.22929(19)
C34_6 C 0.47003(19) 0.85719(19) 0.29901(17)
O20_5 O 0.66509(17) 0.89546(19) 0.21778(17)
C35_6 C 0.6029(2) 0.92307(18) 0.26702(16)
O21_6 O 0.43347(18) 0.84996(17) 0.32255(17)
C36_6 C 0.5201(2) 0.82948(17) 0.30285(15)
O22_6 O 0.59385(15) 0.67573(13) 0.29619(14)
C37_6 C 0.5768(2) 0.90232(18) 0.30032(17)
C38_6 C 0.6136(2) 0.9715(2) 0.26714(18)
C39_6 C 0.5694(2) 0.85018(17) 0.30169(16)
C40_6 C 0.51533(19) 0.78107(18) 0.30379(16)
C41_6 C 0.5610(2) 0.9304(2) 0.33345(16)
H13_5 H 0.6324 0.9851 0.2446
C42_6 C 0.5967(2) 0.99934(19) 0.30019(16)
C43_6 C 0.6132(2) 0.82145(19) 0.30341(18)
H14_6 H 0.4817 0.7673 0.3047
C44_6 C 0.55936(19) 0.75249(17) 0.30348(16)
C45_6 C 0.5701(2) 0.97800(18) 0.33354(16)
H15_6 H 0.5437 0.9165 0.3565
C47_6 C 0.6085(2) 0.77301(18) 0.30362(17)
H16_6 H 0.6468 0.8352 0.3045
C48_6 C 0.5544(2) 0.69981(18) 0.30106(16)
H17_6 H 0.5583 0.9965 0.3563
H18_6 H 0.6389 0.7539 0.3039
O25_3 O 0.4908(2) 0.93995(15) 0.19183(15)
C1_4 C 0.4779(2) 0.95099(19) 0.1556(2)
O5_4 O 0.4644(2) 0.92374(16) 0.12778(16)
O17_6 O 0.66721(16) 0.87327(13) 0.03986(12)
C33_6 C 0.6310(2) 0.8955(2) 0.02071(19)
O20_6 O 0.58491(17) 0.89546(19) 0.03222(17)
H13_6 H 0.6176 0.9851 0.0054
Co1_2 Co 0.75733(3) 0.12975(2) 0.78450(2)
O1_2 O 0.7408(2) 0.18995(15) 0.80817(15)
O2_3 O 0.83279(16) 0.12327(13) 0.78986(12)
O3_3 O 0.71721(14) 0.13578(13) 0.73188(12)
C1_5 C 0.7279(2) 0.20099(19) 0.8444(2)
C2_3 C 0.8690(2) 0.1455(2) 0.77071(19)
C3_3 C 0.72003(19) 0.10719(19) 0.70099(17)
O5_5 O 0.7144(2) 0.17374(16) 0.87222(16)
C4_4 C 0.7303(2) 0.25289(19) 0.85377(18)
O6_3 O 0.91509(17) 0.14546(19) 0.78222(17)
C5_4 C 0.8529(2) 0.17307(18) 0.73298(16)
O7_3 O 0.68347(18) 0.09996(17) 0.67745(17)
C6_4 C 0.7701(2) 0.07948(17) 0.69715(15)
C7_3 C 0.7540(2) 0.28311(19) 0.82553(17)
C8_4 C 0.7090(3) 0.2718(2) 0.8892(2)
C9_4 C 0.8268(2) 0.15232(18) 0.69968(17)
C10_4 C 0.8636(2) 0.2215(2) 0.73286(18)
C11_4 C 0.8194(2) 0.10018(17) 0.69831(16)
C12_4 C 0.76533(19) 0.03107(18) 0.69621(16)
O9_4 O 0.83065(18) 0.32669(14) 0.67637(13)
O10_2 O 0.7911(5) 0.3510(2) 0.7676(2)
O11_4 O 0.8889(2) 0.31537(16) 0.72728(16)
H1_3 H 0.7678 0.2710 0.8002
C13_3 C 0.75789(19) 0.33110(18) 0.83373(16)
C14_4 C 0.7117(3) 0.3190(2) 0.8975(2)
H2_4 H 0.6920 0.2518 0.9086
C15_4 C 0.8110(2) 0.1804(2) 0.66655(16)
H3_3 H 0.8824 0.2351 0.7554
C16_4 C 0.8467(2) 0.24934(19) 0.69981(16)
C17_4 C 0.8632(2) 0.07145(19) 0.69659(18)
H4_3 H 0.7317 0.0173 0.6953
C18_4 C 0.80936(19) 0.00249(17) 0.69652(16)
C19_4 C 0.7366(2) 0.34931(19) 0.87013(17)
C20_3 C 0.7909(3) 0.3592(2) 0.8036(2)
H5_4 H 0.6963 0.3310 0.9222
C21_4 C 0.8201(2) 0.22800(18) 0.66646(16)
H6_4 H 0.7937 0.1665 0.6435
C22_4 C 0.8551(3) 0.3012(2) 0.70106(18)
C23_4 C 0.8585(2) 0.02301(18) 0.69638(17)
H7_4 H 0.8968 0.0852 0.6955
O12_2 O 0.8217(3) 0.3870(4) 0.8175(3)
H8_4 H 0.8083 0.2465 0.6437
H9_4 H 0.8889 0.0039 0.6961
Co2_2 Co 0.8750 0.3750 0.75691(3)
O13_6 O 0.7408(2) 0.56005(15) 0.94183(15)
C25_6 C 0.7279(2) 0.54901(19) 0.9056(2)
O14_6 O 0.7144(2) 0.57626(16) 0.87778(16)
C26_4 C 0.7303(2) 0.49711(19) 0.89623(18)
C27_3 C 0.7540(2) 0.46689(19) 0.92447(17)
C28_4 C 0.7090(3) 0.4782(2) 0.8608(2)
O15_3 O 0.7911(5) 0.3990(2) 0.9824(2)
H10_3 H 0.7678 0.4790 0.9498
C29_3 C 0.75789(19) 0.41890(18) 0.91627(16)
C30_4 C 0.7117(3) 0.4310(2) 0.8525(2)
H11_4 H 0.6920 0.4982 0.8414
C31_4 C 0.7366(2) 0.40069(19) 0.87987(17)
C32_3 C 0.7909(3) 0.3908(2) 0.9464(2)
H12_4 H 0.6963 0.4190 0.8278
O16_3 O 0.8217(3) 0.3630(4) 0.9325(3)
Co3_2 Co 0.99267(3) 0.62025(2) 0.78450(2)
O17_7 O 0.91721(16) 0.62673(13) 0.78986(12)
O19_4 O 0.99219(15) 0.81591(13) 0.69631(12)
C33_7 C 0.8810(2) 0.6045(2) 0.77071(19)
O20_7 O 0.83491(17) 0.60454(19) 0.78222(17)
C35_7 C 0.8971(2) 0.57693(18) 0.73298(16)
C36_7 C 0.9799(2) 0.67052(17) 0.69715(15)
O22_7 O 0.90615(15) 0.82427(13) 0.70381(14)
C37_7 C 0.9232(2) 0.59768(18) 0.69968(17)
C38_7 C 0.8864(2) 0.5285(2) 0.73286(18)
C39_7 C 0.9306(2) 0.64982(17) 0.69831(16)
C40_7 C 0.98467(19) 0.71893(18) 0.69621(16)
O23_4 O 0.91935(18) 0.42331(14) 0.67637(13)
O24_4 O 0.8611(2) 0.43463(16) 0.72728(16)
C41_7 C 0.9390(2) 0.5696(2) 0.66655(16)
H13_7 H 0.8676 0.5149 0.7554
C42_7 C 0.9033(2) 0.50066(19) 0.69981(16)
C43_7 C 0.8868(2) 0.67855(19) 0.69659(18)
C44_7 C 0.94064(19) 0.74751(17) 0.69652(16)
C45_7 C 0.9299(2) 0.52200(18) 0.66646(16)
H15_7 H 0.9563 0.5835 0.6435
C46_4 C 0.8949(3) 0.4488(2) 0.70106(18)
C47_7 C 0.8915(2) 0.72699(18) 0.69638(17)
H16_7 H 0.8532 0.6648 0.6955
C48_7 C 0.9456(2) 0.80019(18) 0.69894(16)
H17_7 H 0.9417 0.5035 0.6437
H18_7 H 0.8611 0.7461 0.6961
Co4_3 Co 0.75733(3) 0.62025(2) 0.96550(2)
O27_4 O 0.74219(15) 0.06591(13) 0.80369(12)
O28_2 O 0.9589(5) 0.3990(2) 0.7676(2)
O29_2 O 0.9283(3) 0.3630(4) 0.8175(3)
Co7_2 Co 0.8750 0.3750 0.99309(3)
C7_4 C 0.9960(2) 0.46689(19) 0.82553(17)
H1_4 H 0.9822 0.4790 0.8002
C13_4 C 0.99211(19) 0.41890(18) 0.83373(16)
C20_4 C 0.9591(3) 0.3908(2) 0.8036(2)
C27_4 C 0.9960(2) 0.28311(19) 0.92447(17)
O15_4 O 0.9589(5) 0.3510(2) 0.9824(2)
H10_4 H 0.9822 0.2710 0.9498
C29_4 C 0.99211(19) 0.33110(18) 0.91627(16)
C32_4 C 0.9591(3) 0.3592(2) 0.9464(2)
O16_4 O 0.9283(3) 0.3870(4) 0.9325(3)
Co4_4 Co 0.99267(3) 0.12975(2) 0.96550(2)
O2_4 O 0.91721(16) 0.12327(13) 0.96014(12)
C2_4 C 0.8810(2) 0.1455(2) 0.97929(19)
O6_4 O 0.83491(17) 0.14546(19) 0.96778(17)
H3_4 H 0.8676 0.2351 0.9946
O17_8 O 0.83279(16) 0.62673(13) 0.96014(12)
C33_8 C 0.8690(2) 0.6045(2) 0.97929(19)
O20_8 O 0.91509(17) 0.60454(19) 0.96778(17)
H13_8 H 0.8824 0.5149 0.9946
O26_4 O 0.74219(15) 0.68409(13) 0.94631(12)
O18_7 O 0.96721(14) 0.88578(13) 0.76812(12)
C34_7 C 0.97003(19) 0.85719(19) 0.79901(17)
O21_7 O 0.93347(18) 0.84996(17) 0.82255(17)
H14_7 H 0.9817 0.7673 0.8047
O25_4 O 0.9908(2) 0.93995(15) 0.69183(15)
C1_6 C 0.9779(2) 0.95099(19) 0.6556(2)
O5_6 O 0.9644(2) 0.92374(16) 0.62778(16)
O8_4 O 0.65615(15) 0.07427(13) 0.79619(14)
C24_4 C 0.6956(2) 0.05019(18) 0.80106(16)
O18_8 O 0.78279(14) 0.88578(13) 0.98188(12)
C34_8 C 0.77997(19) 0.85719(19) 0.95099(17)
C35_8 C 0.6471(2) 0.92307(18) 0.98298(16)
O21_8 O 0.81653(18) 0.84996(17) 0.92745(17)
C36_8 C 0.7299(2) 0.82948(17) 0.94715(15)
O22_8 O 0.65615(15) 0.67573(13) 0.95381(14)
C37_8 C 0.6732(2) 0.90232(18) 0.94968(17)
C38_8 C 0.6364(2) 0.9715(2) 0.98286(18)
C39_8 C 0.6806(2) 0.85018(17) 0.94831(16)
C40_8 C 0.73467(19) 0.78107(18) 0.94621(16)
C41_8 C 0.6890(2) 0.9304(2) 0.91655(16)
C42_8 C 0.6533(2) 0.99934(19) 0.94981(16)
C43_8 C 0.6368(2) 0.82145(19) 0.94659(18)
H14_8 H 0.7683 0.7673 0.9453
C44_8 C 0.69064(19) 0.75249(17) 0.94652(16)
C45_8 C 0.6799(2) 0.97800(18) 0.91646(16)
H15_8 H 0.7063 0.9165 0.8935
C47_8 C 0.6415(2) 0.77301(18) 0.94638(17)
H16_8 H 0.6032 0.8352 0.9455
C48_8 C 0.6956(2) 0.69981(18) 0.94894(16)
H17_8 H 0.6917 0.9965 0.8937
H18_8 H 0.6111 0.7539 0.9461
O4 O 0.75781(15) 0.93409(13) 0.69631(12)
O8_5 O 0.84385(15) 0.92573(13) 0.70381(14)
C24_5 C 0.8044(2) 0.94981(18) 0.69894(16)
Co6 Co 0.74267(3) 0.87025(2) 0.71550(2)
O4_2 O 0.99219(15) 0.93409(13) 0.05369(12)
O8_6 O 0.90615(15) 0.92573(13) 0.04619(14)
C24_6 C 0.9456(2) 0.94981(18) 0.05106(16)
O13_7 O 0.7408(2) 0.06005(15) 0.44183(15)
C25_7 C 0.7279(2) 0.04901(19) 0.4056(2)
O14_7 O 0.7144(2) 0.07626(16) 0.37778(16)
Co3_3 Co 0.99267(3) 0.12025(2) 0.28450(2)
O17_9 O 0.91721(16) 0.12673(13) 0.28986(12)
O19_5 O 0.99219(15) 0.31591(13) 0.19631(12)
C33_9 C 0.8810(2) 0.1045(2) 0.27071(19)
O20_9 O 0.83491(17) 0.10454(19) 0.28222(17)
C35_9 C 0.8971(2) 0.07693(18) 0.23298(16)
C36_9 C 0.9799(2) 0.17052(17) 0.19715(15)
O22_9 O 0.90615(15) 0.32427(13) 0.20381(14)
C37_9 C 0.9232(2) 0.09768(18) 0.19968(17)
C38_9 C 0.8864(2) 0.0285(2) 0.23286(18)
C39_9 C 0.9306(2) 0.14982(17) 0.19831(16)
C40_9 C 0.98467(19) 0.21893(18) 0.19621(16)
C41_9 C 0.9390(2) 0.0696(2) 0.16655(16)
H13_9 H 0.8676 0.0149 0.2554
C42_9 C 0.9033(2) 0.00066(19) 0.19981(16)
C43_9 C 0.8868(2) 0.17855(19) 0.19659(18)
C44_9 C 0.94064(19) 0.24751(17) 0.19652(16)
C45_9 C 0.9299(2) 0.02200(18) 0.16646(16)
H15_9 H 0.9563 0.0835 0.1435
C47_9 C 0.8915(2) 0.22699(18) 0.19638(17)
H16_9 H 0.8532 0.1648 0.1955
C48_9 C 0.9456(2) 0.30019(18) 0.19894(16)
H17_9 H 0.9417 0.0035 0.1437
H18_9 H 0.8611 0.2461 0.1961
Co4_5 Co 0.75733(3) 0.12025(2) 0.46550(2)
O17_10 O 0.83279(16) 0.12673(13) 0.46014(12)
O18_9 O 0.71721(14) 0.11422(13) 0.51812(12)
O19_6 O 0.75781(15) 0.31591(13) 0.55369(12)
C33_10 C 0.8690(2) 0.1045(2) 0.47929(19)
C34_9 C 0.72003(19) 0.14281(19) 0.54901(17)
O20_10 O 0.91509(17) 0.10454(19) 0.46778(17)
C35_10 C 0.8529(2) 0.07693(18) 0.51702(16)
O21_9 O 0.68347(18) 0.15004(17) 0.57255(17)
C36_10 C 0.7701(2) 0.17052(17) 0.55285(15)
O22_10 O 0.84385(15) 0.32427(13) 0.54619(14)
C37_10 C 0.8268(2) 0.09768(18) 0.55032(17)
C38_10 C 0.8636(2) 0.0285(2) 0.51714(18)
C39_10 C 0.8194(2) 0.14982(17) 0.55169(16)
C40_10 C 0.76533(19) 0.21893(18) 0.55379(16)
C41_10 C 0.8110(2) 0.0696(2) 0.58345(16)
H13_10 H 0.8824 0.0149 0.4946
C42_10 C 0.8467(2) 0.00066(19) 0.55019(16)
C43_10 C 0.8632(2) 0.17855(19) 0.55341(18)
H14_9 H 0.7317 0.2327 0.5547
C44_10 C 0.80936(19) 0.24751(17) 0.55348(16)
C45_10 C 0.8201(2) 0.02200(18) 0.58354(16)
H15_10 H 0.7937 0.0835 0.6065
C47_10 C 0.8585(2) 0.22699(18) 0.55362(17)
H16_10 H 0.8968 0.1648 0.5545
C48_10 C 0.8044(2) 0.30019(18) 0.55106(16)
H17_10 H 0.8083 0.0035 0.6063
H18_10 H 0.8889 0.2461 0.5539
Co5_5 Co 0.74267(3) 0.37975(2) 0.53450(2)
O26_5 O 0.74219(15) 0.18409(13) 0.44631(12)
O4_3 O 0.49219(15) 0.93409(13) 0.55369(12)
O8_7 O 0.40615(15) 0.92573(13) 0.54619(14)
C24_7 C 0.4456(2) 0.94981(18) 0.55106(16)
Co6_2 Co 0.50733(3) 0.87025(2) 0.53450(2)
O13_8 O 0.2408(2) 0.06005(15) 0.94183(15)
C25_8 C 0.2279(2) 0.04901(19) 0.9056(2)
O14_8 O 0.2144(2) 0.07626(16) 0.87778(16)
Co3_4 Co 0.49267(3) 0.12025(2) 0.78450(2)
O17_11 O 0.41721(16) 0.12673(13) 0.78986(12)
O18_10 O 0.53279(14) 0.11422(13) 0.73188(12)
O19_7 O 0.49219(15) 0.31591(13) 0.69631(12)
C33_11 C 0.3810(2) 0.1045(2) 0.77071(19)
C34_10 C 0.52997(19) 0.14281(19) 0.70099(17)
O20_11 O 0.33491(17) 0.10454(19) 0.78222(17)
C35_11 C 0.3971(2) 0.07693(18) 0.73298(16)
O21_10 O 0.56653(18) 0.15004(17) 0.67745(17)
C36_11 C 0.4799(2) 0.17052(17) 0.69715(15)
O22_11 O 0.40615(15) 0.32427(13) 0.70381(14)
C37_11 C 0.4232(2) 0.09768(18) 0.69968(17)
C38_11 C 0.3864(2) 0.0285(2) 0.73286(18)
C39_11 C 0.4306(2) 0.14982(17) 0.69831(16)
C40_11 C 0.48467(19) 0.21893(18) 0.69621(16)
C41_11 C 0.4390(2) 0.0696(2) 0.66655(16)
H13_11 H 0.3676 0.0149 0.7554
C42_11 C 0.4033(2) 0.00066(19) 0.69981(16)
C43_11 C 0.3868(2) 0.17855(19) 0.69659(18)
H14_10 H 0.5183 0.2327 0.6953
C44_11 C 0.44064(19) 0.24751(17) 0.69652(16)
C45_11 C 0.4299(2) 0.02200(18) 0.66646(16)
H15_11 H 0.4563 0.0835 0.6435
C47_11 C 0.3915(2) 0.22699(18) 0.69638(17)
H16_11 H 0.3532 0.1648 0.6955
C48_11 C 0.4456(2) 0.30019(18) 0.69894(16)
H17_11 H 0.4417 0.0035 0.6437
H18_11 H 0.3611 0.2461 0.6961
Co4_6 Co 0.25733(3) 0.12025(2) 0.96550(2)
Co5_6 Co 0.50733(3) 0.37975(2) 0.71550(2)
O25_5 O 0.5092(2) 0.06005(15) 0.80817(15)
O26_6 O 0.50781(15) 0.18409(13) 0.80369(12)
C1_7 C 0.5221(2) 0.04901(19) 0.8444(2)
O5_7 O 0.5356(2) 0.07626(16) 0.87222(16)
O17_12 O 0.33279(16) 0.12673(13) 0.96014(12)
C33_12 C 0.3690(2) 0.1045(2) 0.97929(19)
O20_12 O 0.41509(17) 0.10454(19) 0.96778(17)
H13_12 H 0.3824 0.0149 0.9946
O26_7 O 0.24219(15) 0.18409(13) 0.94631(12)
O18_11 O 0.96721(14) 0.38578(13) 0.26812(12)
C34_11 C 0.97003(19) 0.35719(19) 0.29901(17)
O21_11 O 0.93347(18) 0.34996(17) 0.32255(17)
H14_11 H 0.9817 0.2673 0.3047
O25_6 O 0.9908(2) 0.43995(15) 0.19183(15)
C1_8 C 0.9779(2) 0.45099(19) 0.1556(2)
O5_8 O 0.9644(2) 0.42374(16) 0.12778(16)
C4_5 C 0.9803(2) 0.50289(19) 0.14623(18)
C8_5 C 0.9590(3) 0.5218(2) 0.1108(2)
C14_5 C 0.9617(3) 0.5690(2) 0.1025(2)
H2_5 H 0.9420 0.5018 0.0914
C19_5 C 0.9866(2) 0.59931(19) 0.12987(17)
H5_5 H 0.9463 0.5810 0.0778
O13_9 O 0.9908(2) 0.81005(15) 0.05817(15)
C25_9 C 0.9779(2) 0.79901(19) 0.0944(2)
O14_9 O 0.9644(2) 0.82626(16) 0.12222(16)
C26_5 C 0.9803(2) 0.74711(19) 0.10377(18)
C28_5 C 0.9590(3) 0.7282(2) 0.1392(2)
C30_5 C 0.9617(3) 0.6810(2) 0.1475(2)
H11_5 H 0.9420 0.7482 0.1586
C31_5 C 0.9866(2) 0.65069(19) 0.12013(17)
H12_5 H 0.9463 0.6690 0.1722
C5_5 C 0.1029(2) 0.82693(18) 0.98298(16)
C6_5 C 0.0201(2) 0.92052(17) 0.94715(15)
C9_5 C 0.0768(2) 0.84768(18) 0.94968(17)
C10_5 C 0.1136(2) 0.7785(2) 0.98286(18)
C11_5 C 0.0694(2) 0.89982(17) 0.94831(16)
C12_5 C 0.01533(19) 0.96893(18) 0.94621(16)
O9_5 O 0.08065(18) 0.67331(14) 0.92637(13)
O11_5 O 0.1389(2) 0.68463(16) 0.97728(16)
C15_5 C 0.0610(2) 0.8196(2) 0.91655(16)
C16_5 C 0.0967(2) 0.75066(19) 0.94981(16)
C17_5 C 0.1132(2) 0.92855(19) 0.94659(18)
C18_5 C 0.05936(19) 0.99751(17) 0.94652(16)
C21_5 C 0.0701(2) 0.77200(18) 0.91646(16)
H6_5 H 0.0437 0.8335 0.8935
C22_5 C 0.1051(3) 0.6988(2) 0.95106(18)
C23_5 C 0.1085(2) 0.97699(18) 0.94638(17)
H7_5 H 0.1468 0.9148 0.9455
H8_5 H 0.0583 0.7535 0.8937
H9_5 H 0.1389 0.9961 0.9461
O18_12 O 0.28279(14) 0.38578(13) 0.98188(12)
C34_12 C 0.27997(19) 0.35719(19) 0.95099(17)
C35_12 C 0.1471(2) 0.42307(18) 0.98298(16)
O21_12 O 0.31653(18) 0.34996(17) 0.92745(17)
C36_12 C 0.2299(2) 0.32948(17) 0.94715(15)
O22_12 O 0.15615(15) 0.17573(13) 0.95381(14)
C37_12 C 0.1732(2) 0.40232(18) 0.94968(17)
C38_12 C 0.1364(2) 0.4715(2) 0.98286(18)
C39_12 C 0.1806(2) 0.35018(17) 0.94831(16)
C40_12 C 0.23467(19) 0.28107(18) 0.94621(16)
O23_5 O 0.16935(18) 0.57669(14) 0.92637(13)
O24_5 O 0.1111(2) 0.56537(16) 0.97728(16)
C41_12 C 0.1890(2) 0.4304(2) 0.91655(16)
C42_12 C 0.1533(2) 0.49934(19) 0.94981(16)
C43_12 C 0.1368(2) 0.32145(19) 0.94659(18)
H14_12 H 0.2683 0.2673 0.9453
C44_12 C 0.19064(19) 0.25249(17) 0.94652(16)
C45_12 C 0.1799(2) 0.47800(18) 0.91646(16)
H15_12 H 0.2063 0.4165 0.8935
C46_5 C 0.1449(3) 0.5512(2) 0.95106(18)
C47_12 C 0.1415(2) 0.27301(18) 0.94638(17)
H16_12 H 0.1032 0.3352 0.9455
C48_12 C 0.1956(2) 0.19981(18) 0.94894(16)
H17_12 H 0.1917 0.4965 0.8937
H18_12 H 0.1111 0.2539 0.9461
O1_3 O 0.7592(2) 0.81005(15) 0.69183(15)
O2_5 O 0.66721(16) 0.87673(13) 0.71014(12)
O3_4 O 0.78279(14) 0.86422(13) 0.76812(12)
C1_9 C 0.7721(2) 0.79901(19) 0.6556(2)
C2_5 C 0.6310(2) 0.8545(2) 0.72929(19)
C3_4 C 0.77997(19) 0.89281(19) 0.79901(17)
O5_9 O 0.7856(2) 0.82626(16) 0.62778(16)
C4_6 C 0.7697(2) 0.74711(19) 0.64623(18)
O6_5 O 0.58491(17) 0.85454(19) 0.71778(17)
C5_6 C 0.6471(2) 0.82693(18) 0.76702(16)
O7_4 O 0.81653(18) 0.90004(17) 0.82255(17)
C6_6 C 0.7299(2) 0.92052(17) 0.80285(15)
C7_5 C 0.7460(2) 0.71689(19) 0.67447(17)
C8_6 C 0.7910(3) 0.7282(2) 0.6108(2)
C9_6 C 0.6732(2) 0.84768(18) 0.80032(17)
C10_6 C 0.6364(2) 0.7785(2) 0.76714(18)
C11_6 C 0.6806(2) 0.89982(17) 0.80169(16)
C12_6 C 0.73467(19) 0.96893(18) 0.80379(16)
O9_6 O 0.66935(18) 0.67331(14) 0.82363(13)
O10_3 O 0.7089(5) 0.6490(2) 0.7324(2)
O11_6 O 0.6111(2) 0.68463(16) 0.77272(16)
H1_5 H 0.7322 0.7290 0.6998
C13_5 C 0.74211(19) 0.66890(18) 0.66627(16)
C14_6 C 0.7883(3) 0.6810(2) 0.6025(2)
H2_6 H 0.8080 0.7482 0.5914
C15_6 C 0.6890(2) 0.8196(2) 0.83345(16)
H3_5 H 0.6176 0.7649 0.7446
C16_6 C 0.6533(2) 0.75066(19) 0.80019(16)
C17_6 C 0.6368(2) 0.92855(19) 0.80341(18)
H4_4 H 0.7683 0.9827 0.8047
C18_6 C 0.69064(19) 0.99751(17) 0.80348(16)
C19_6 C 0.7634(2) 0.65069(19) 0.62987(17)
C20_5 C 0.7091(3) 0.6408(2) 0.6964(2)
H5_6 H 0.8037 0.6690 0.5778
C21_6 C 0.6799(2) 0.77200(18) 0.83354(16)
H6_6 H 0.7063 0.8335 0.8565
C22_6 C 0.6449(3) 0.6988(2) 0.79894(18)
C23_6 C 0.6415(2) 0.97699(18) 0.80362(17)
H7_6 H 0.6032 0.9148 0.8045
O12_3 O 0.6783(3) 0.6130(4) 0.6825(3)
H8_6 H 0.6917 0.7535 0.8563
H9_6 H 0.6111 0.9961 0.8039
Co2_3 Co 0.6250 0.6250 0.74309(3)
O13_10 O 0.7592(2) 0.43995(15) 0.55817(15)
C25_10 C 0.7721(2) 0.45099(19) 0.5944(2)
O14_10 O 0.7856(2) 0.42374(16) 0.62222(16)
C26_6 C 0.7697(2) 0.50289(19) 0.60377(18)
C27_5 C 0.7460(2) 0.53311(19) 0.57553(17)
C28_6 C 0.7910(3) 0.5218(2) 0.6392(2)
O15_5 O 0.7089(5) 0.6010(2) 0.5176(2)
H10_5 H 0.7322 0.5210 0.5502
C29_5 C 0.74211(19) 0.58110(18) 0.58373(16)
C30_6 C 0.7883(3) 0.5690(2) 0.6475(2)
H11_6 H 0.8080 0.5018 0.6586
C31_6 C 0.7634(2) 0.59931(19) 0.62013(17)
C32_5 C 0.7091(3) 0.6092(2) 0.5536(2)
H12_6 H 0.8037 0.5810 0.6722
O16_5 O 0.6783(3) 0.6370(4) 0.5675(3)
O17_13 O 0.58279(16) 0.37327(13) 0.71014(12)
O18_13 O 0.46721(14) 0.38578(13) 0.76812(12)
C33_13 C 0.6190(2) 0.3955(2) 0.72929(19)
C34_13 C 0.47003(19) 0.35719(19) 0.79901(17)
O20_13 O 0.66509(17) 0.39546(19) 0.71778(17)
C35_13 C 0.6029(2) 0.42307(18) 0.76702(16)
O21_13 O 0.43347(18) 0.34996(17) 0.82255(17)
C36_13 C 0.5201(2) 0.32948(17) 0.80285(15)
O22_13 O 0.59385(15) 0.17573(13) 0.79619(14)
C37_13 C 0.5768(2) 0.40232(18) 0.80032(17)
C38_13 C 0.6136(2) 0.4715(2) 0.76714(18)
C39_13 C 0.5694(2) 0.35018(17) 0.80169(16)
C40_13 C 0.51533(19) 0.28107(18) 0.80379(16)
O23_6 O 0.58065(18) 0.57669(14) 0.82363(13)
O24_6 O 0.6389(2) 0.56537(16) 0.77272(16)
C41_13 C 0.5610(2) 0.4304(2) 0.83345(16)
H13_13 H 0.6324 0.4851 0.7446
C42_13 C 0.5967(2) 0.49934(19) 0.80019(16)
C43_13 C 0.6132(2) 0.32145(19) 0.80341(18)
H14_13 H 0.4817 0.2673 0.8047
C44_13 C 0.55936(19) 0.25249(17) 0.80348(16)
C45_13 C 0.5701(2) 0.47800(18) 0.83354(16)
H15_13 H 0.5437 0.4165 0.8565
C46_6 C 0.6051(3) 0.5512(2) 0.79894(18)
C47_13 C 0.6085(2) 0.27301(18) 0.80362(17)
H16_13 H 0.6468 0.3352 0.8045
C48_13 C 0.5544(2) 0.19981(18) 0.80106(16)
H17_13 H 0.5583 0.4965 0.8563
H18_13 H 0.6389 0.2539 0.8039
O25_7 O 0.4908(2) 0.43995(15) 0.69183(15)
O28_3 O 0.5411(5) 0.6010(2) 0.7324(2)
O29_3 O 0.5717(3) 0.6370(4) 0.6825(3)
Co7_3 Co 0.6250 0.6250 0.50691(3)
C1_10 C 0.4779(2) 0.45099(19) 0.6556(2)
O5_10 O 0.4644(2) 0.42374(16) 0.62778(16)
C4_7 C 0.4803(2) 0.50289(19) 0.64623(18)
C7_6 C 0.5040(2) 0.53311(19) 0.67447(17)
C8_7 C 0.4590(3) 0.5218(2) 0.6108(2)
H1_6 H 0.5178 0.5210 0.6998
C13_6 C 0.50789(19) 0.58110(18) 0.66627(16)
C14_7 C 0.4617(3) 0.5690(2) 0.6025(2)
H2_7 H 0.4420 0.5018 0.5914
C19_7 C 0.4866(2) 0.59931(19) 0.62987(17)
C20_6 C 0.5409(3) 0.6092(2) 0.6964(2)
H5_7 H 0.4463 0.5810 0.5778
O13_11 O 0.4908(2) 0.81005(15) 0.55817(15)
C25_11 C 0.4779(2) 0.79901(19) 0.5944(2)
O14_11 O 0.4644(2) 0.82626(16) 0.62222(16)
C26_7 C 0.4803(2) 0.74711(19) 0.60377(18)
C27_6 C 0.5040(2) 0.71689(19) 0.57553(17)
C28_7 C 0.4590(3) 0.7282(2) 0.6392(2)
O15_6 O 0.5411(5) 0.6490(2) 0.5176(2)
H10_6 H 0.5178 0.7290 0.5502
C29_6 C 0.50789(19) 0.66890(18) 0.58373(16)
C30_7 C 0.4617(3) 0.6810(2) 0.6475(2)
H11_7 H 0.4420 0.7482 0.6586
C31_7 C 0.4866(2) 0.65069(19) 0.62013(17)
C32_6 C 0.5409(3) 0.6408(2) 0.5536(2)
H12_7 H 0.4463 0.6690 0.6722
O16_6 O 0.5717(3) 0.6130(4) 0.5675(3)
O2_6 O 0.58279(16) 0.87673(13) 0.53986(12)
O3_5 O 0.46721(14) 0.86422(13) 0.48188(12)
C2_6 C 0.6190(2) 0.8545(2) 0.52071(19)
C3_5 C 0.47003(19) 0.89281(19) 0.45099(17)
O6_6 O 0.66509(17) 0.85454(19) 0.53222(17)
C5_7 C 0.6029(2) 0.82693(18) 0.48298(16)
O7_5 O 0.43347(18) 0.90004(17) 0.42745(17)
C6_7 C 0.5201(2) 0.92052(17) 0.44715(15)
C9_7 C 0.5768(2) 0.84768(18) 0.44968(17)
C10_7 C 0.6136(2) 0.7785(2) 0.48286(18)
C11_7 C 0.5694(2) 0.89982(17) 0.44831(16)
C12_7 C 0.51533(19) 0.96893(18) 0.44621(16)
O9_7 O 0.58065(18) 0.67331(14) 0.42637(13)
O11_7 O 0.6389(2) 0.68463(16) 0.47728(16)
C15_7 C 0.5610(2) 0.8196(2) 0.41655(16)
H3_6 H 0.6324 0.7649 0.5054
C16_7 C 0.5967(2) 0.75066(19) 0.44981(16)
C17_7 C 0.6132(2) 0.92855(19) 0.44659(18)
H4_5 H 0.4817 0.9827 0.4453
C18_7 C 0.55936(19) 0.99751(17) 0.44652(16)
C21_7 C 0.5701(2) 0.77200(18) 0.41646(16)
H6_7 H 0.5437 0.8335 0.3935
C22_7 C 0.6051(3) 0.6988(2) 0.45106(18)
C23_7 C 0.6085(2) 0.97699(18) 0.44638(17)
H7_7 H 0.6468 0.9148 0.4455
H8_7 H 0.5583 0.7535 0.3937
H9_7 H 0.6389 0.9961 0.4461
O17_14 O 0.66721(16) 0.37327(13) 0.53986(12)
O18_14 O 0.78279(14) 0.38578(13) 0.48188(12)
C33_14 C 0.6310(2) 0.3955(2) 0.52071(19)
C34_14 C 0.77997(19) 0.35719(19) 0.45099(17)
O20_14 O 0.58491(17) 0.39546(19) 0.53222(17)
C35_14 C 0.6471(2) 0.42307(18) 0.48298(16)
O21_14 O 0.81653(18) 0.34996(17) 0.42745(17)
C36_14 C 0.7299(2) 0.32948(17) 0.44715(15)
O22_14 O 0.65615(15) 0.17573(13) 0.45381(14)
C37_14 C 0.6732(2) 0.40232(18) 0.44968(17)
C38_14 C 0.6364(2) 0.4715(2) 0.48286(18)
C39_14 C 0.6806(2) 0.35018(17) 0.44831(16)
C40_14 C 0.73467(19) 0.28107(18) 0.44621(16)
O23_7 O 0.66935(18) 0.57669(14) 0.42637(13)
O24_7 O 0.6111(2) 0.56537(16) 0.47728(16)
C41_14 C 0.6890(2) 0.4304(2) 0.41655(16)
H13_14 H 0.6176 0.4851 0.5054
C42_14 C 0.6533(2) 0.49934(19) 0.44981(16)
C43_14 C 0.6368(2) 0.32145(19) 0.44659(18)
H14_14 H 0.7683 0.2673 0.4453
C44_14 C 0.69064(19) 0.25249(17) 0.44652(16)
C45_14 C 0.6799(2) 0.47800(18) 0.41646(16)
H15_14 H 0.7063 0.4165 0.3935
C46_7 C 0.6449(3) 0.5512(2) 0.45106(18)
C47_14 C 0.6415(2) 0.27301(18) 0.44638(17)
H16_14 H 0.6032 0.3352 0.4455
C48_14 C 0.6956(2) 0.19981(18) 0.44894(16)
H17_14 H 0.6917 0.4965 0.3937
H18_14 H 0.6111 0.2539 0.4461
O3_6 O 0.03279(14) 0.13578(13) 0.01812(12)
C3_6 C 0.02997(19) 0.10719(19) 0.04901(17)
O7_6 O 0.06653(18) 0.09996(17) 0.07255(17)
H4_6 H 0.0183 0.0173 0.0547
Co6_3 Co 0.00733(3) 0.87025(2) 0.03450(2)
O18_15 O 0.03279(14) 0.11422(13) 0.23188(12)
C34_15 C 0.02997(19) 0.14281(19) 0.20099(17)
O21_15 O 0.06653(18) 0.15004(17) 0.17745(17)
H14_15 H 0.0183 0.2327 0.1953
Co5_7 Co 0.00733(3) 0.37975(2) 0.21550(2)
O25_8 O 0.0092(2) 0.06005(15) 0.30817(15)
O26_8 O 0.00781(15) 0.18409(13) 0.30369(12)
C1_11 C 0.0221(2) 0.04901(19) 0.3444(2)
O5_11 O 0.0356(2) 0.07626(16) 0.37222(16)
O4_4 O 0.25781(15) 0.93409(13) 0.19631(12)
O8_8 O 0.34385(15) 0.92573(13) 0.20381(14)
C24_8 C 0.3044(2) 0.94981(18) 0.19894(16)
Co6_4 Co 0.24267(3) 0.87025(2) 0.21550(2)
O18_16 O 0.21721(14) 0.11422(13) 0.01812(12)
O19_8 O 0.25781(15) 0.31591(13) 0.05369(12)
C34_16 C 0.22003(19) 0.14281(19) 0.04901(17)
C35_15 C 0.3529(2) 0.07693(18) 0.01702(16)
O21_16 O 0.18347(18) 0.15004(17) 0.07255(17)
C36_15 C 0.2701(2) 0.17052(17) 0.05285(15)
O22_15 O 0.34385(15) 0.32427(13) 0.04619(14)
C37_15 C 0.3268(2) 0.09768(18) 0.05032(17)
C38_15 C 0.3636(2) 0.0285(2) 0.01714(18)
C39_15 C 0.3194(2) 0.14982(17) 0.05169(16)
C40_15 C 0.26533(19) 0.21893(18) 0.05379(16)
C41_15 C 0.3110(2) 0.0696(2) 0.08345(16)
C42_15 C 0.3467(2) 0.00066(19) 0.05019(16)
C43_15 C 0.3632(2) 0.17855(19) 0.05341(18)
H14_16 H 0.2317 0.2327 0.0547
C44_15 C 0.30936(19) 0.24751(17) 0.05348(16)
C45_15 C 0.3201(2) 0.02200(18) 0.08354(16)
H15_15 H 0.2937 0.0835 0.1065
C47_15 C 0.3585(2) 0.22699(18) 0.05362(17)
H16_15 H 0.3968 0.1648 0.0545
C48_15 C 0.3044(2) 0.30019(18) 0.05106(16)
H17_15 H 0.3083 0.0035 0.1063
H18_15 H 0.3889 0.2461 0.0539
Co5_8 Co 0.24267(3) 0.37975(2) 0.03450(2)
O1_4 O 0.2592(2) 0.81005(15) 0.19183(15)
O2_7 O 0.16721(16) 0.87673(13) 0.21014(12)
O3_7 O 0.28279(14) 0.86422(13) 0.26812(12)
C1_12 C 0.2721(2) 0.79901(19) 0.1556(2)
C2_7 C 0.1310(2) 0.8545(2) 0.22929(19)
C3_7 C 0.27997(19) 0.89281(19) 0.29901(17)
O5_12 O 0.2856(2) 0.82626(16) 0.12778(16)
C4_8 C 0.2697(2) 0.74711(19) 0.14623(18)
O6_7 O 0.08491(17) 0.85454(19) 0.21778(17)
C5_8 C 0.1471(2) 0.82693(18) 0.26702(16)
O7_7 O 0.31653(18) 0.90004(17) 0.32255(17)
C6_8 C 0.2299(2) 0.92052(17) 0.30285(15)
C7_7 C 0.2460(2) 0.71689(19) 0.17447(17)
C8_8 C 0.2910(3) 0.7282(2) 0.1108(2)
C9_8 C 0.1732(2) 0.84768(18) 0.30032(17)
C10_8 C 0.1364(2) 0.7785(2) 0.26714(18)
C11_8 C 0.1806(2) 0.89982(17) 0.30169(16)
C12_8 C 0.23467(19) 0.96893(18) 0.30379(16)
O9_8 O 0.16935(18) 0.67331(14) 0.32363(13)
O10_4 O 0.2089(5) 0.6490(2) 0.2324(2)
O11_8 O 0.1111(2) 0.68463(16) 0.27272(16)
H1_7 H 0.2322 0.7290 0.1998
C13_7 C 0.24211(19) 0.66890(18) 0.16627(16)
C14_8 C 0.2883(3) 0.6810(2) 0.1025(2)
H2_8 H 0.3080 0.7482 0.0914
C15_8 C 0.1890(2) 0.8196(2) 0.33345(16)
H3_7 H 0.1176 0.7649 0.2446
C16_8 C 0.1533(2) 0.75066(19) 0.30019(16)
C17_8 C 0.1368(2) 0.92855(19) 0.30341(18)
H4_7 H 0.2683 0.9827 0.3047
C18_8 C 0.19064(19) 0.99751(17) 0.30348(16)
C19_8 C 0.2634(2) 0.65069(19) 0.12987(17)
C20_7 C 0.2091(3) 0.6408(2) 0.1964(2)
H5_8 H 0.3037 0.6690 0.0778
C21_8 C 0.1799(2) 0.77200(18) 0.33354(16)
H6_8 H 0.2063 0.8335 0.3565
C22_8 C 0.1449(3) 0.6988(2) 0.29894(18)
C23_8 C 0.1415(2) 0.97699(18) 0.30362(17)
H7_8 H 0.1032 0.9148 0.3045
O12_4 O 0.1783(3) 0.6130(4) 0.1825(3)
H8_8 H 0.1917 0.7535 0.3563
H9_8 H 0.1111 0.9961 0.3039
Co2_4 Co 0.1250 0.6250 0.24309(3)
O13_12 O 0.2592(2) 0.43995(15) 0.05817(15)
C25_12 C 0.2721(2) 0.45099(19) 0.0944(2)
O14_12 O 0.2856(2) 0.42374(16) 0.12222(16)
C26_8 C 0.2697(2) 0.50289(19) 0.10377(18)
C27_7 C 0.2460(2) 0.53311(19) 0.07553(17)
C28_8 C 0.2910(3) 0.5218(2) 0.1392(2)
O15_7 O 0.2089(5) 0.6010(2) 0.0176(2)
H10_7 H 0.2322 0.5210 0.0502
C29_7 C 0.24211(19) 0.58110(18) 0.08373(16)
C30_8 C 0.2883(3) 0.5690(2) 0.1475(2)
H11_8 H 0.3080 0.5018 0.1586
C31_8 C 0.2634(2) 0.59931(19) 0.12013(17)
C32_7 C 0.2091(3) 0.6092(2) 0.0536(2)
H12_8 H 0.3037 0.5810 0.1722
O16_7 O 0.1783(3) 0.6370(4) 0.0675(3)
O17_15 O 0.08279(16) 0.37327(13) 0.21014(12)
C33_15 C 0.1190(2) 0.3955(2) 0.22929(19)
O20_15 O 0.16509(17) 0.39546(19) 0.21778(17)
C35_16 C 0.1029(2) 0.42307(18) 0.26702(16)
C36_16 C 0.0201(2) 0.32948(17) 0.30285(15)
O22_16 O 0.09385(15) 0.17573(13) 0.29619(14)
C37_16 C 0.0768(2) 0.40232(18) 0.30032(17)
C38_16 C 0.1136(2) 0.4715(2) 0.26714(18)
C39_16 C 0.0694(2) 0.35018(17) 0.30169(16)
C40_16 C 0.01533(19) 0.28107(18) 0.30379(16)
O23_8 O 0.08065(18) 0.57669(14) 0.32363(13)
O24_8 O 0.1389(2) 0.56537(16) 0.27272(16)
C41_16 C 0.0610(2) 0.4304(2) 0.33345(16)
H13_15 H 0.1324 0.4851 0.2446
C42_16 C 0.0967(2) 0.49934(19) 0.30019(16)
C43_16 C 0.1132(2) 0.32145(19) 0.30341(18)
C44_16 C 0.05936(19) 0.25249(17) 0.30348(16)
C45_16 C 0.0701(2) 0.47800(18) 0.33354(16)
H15_16 H 0.0437 0.4165 0.3565
C46_8 C 0.1051(3) 0.5512(2) 0.29894(18)
C47_16 C 0.1085(2) 0.27301(18) 0.30362(17)
H16_16 H 0.1468 0.3352 0.3045
C48_16 C 0.0544(2) 0.19981(18) 0.30106(16)
H17_16 H 0.0583 0.4965 0.3563
H18_16 H 0.1389 0.2539 0.3039
O28_4 O 0.0411(5) 0.6010(2) 0.2324(2)
O29_4 O 0.0717(3) 0.6370(4) 0.1825(3)
Co7_4 Co 0.1250 0.6250 0.00691(3)
C7_8 C 0.0040(2) 0.53311(19) 0.17447(17)
H1_8 H 0.0178 0.5210 0.1998
C13_8 C 0.00789(19) 0.58110(18) 0.16627(16)
C20_8 C 0.0409(3) 0.6092(2) 0.1964(2)
C27_8 C 0.0040(2) 0.71689(19) 0.07553(17)
O15_8 O 0.0411(5) 0.6490(2) 0.0176(2)
H10_8 H 0.0178 0.7290 0.0502
C29_8 C 0.00789(19) 0.66890(18) 0.08373(16)
C32_8 C 0.0409(3) 0.6408(2) 0.0536(2)
O16_8 O 0.0717(3) 0.6130(4) 0.0675(3)
O2_8 O 0.08279(16) 0.87673(13) 0.03986(12)
C2_8 C 0.1190(2) 0.8545(2) 0.02071(19)
O6_8 O 0.16509(17) 0.85454(19) 0.03222(17)
H3_8 H 0.1324 0.7649 0.0054
O17_16 O 0.16721(16) 0.37327(13) 0.03986(12)
C33_16 C 0.1310(2) 0.3955(2) 0.02071(19)
O20_16 O 0.08491(17) 0.39546(19) 0.03222(17)
H13_16 H 0.1176 0.4851 0.0054
Co1_3 Co 0.75733(3) 0.62975(2) 0.28450(2)
O1_5 O 0.7408(2) 0.68995(15) 0.30817(15)
O2_9 O 0.83279(16) 0.62327(13) 0.28986(12)
O3_8 O 0.71721(14) 0.63578(13) 0.23188(12)
O4_5 O 0.75781(15) 0.43409(13) 0.19631(12)
C1_13 C 0.7279(2) 0.70099(19) 0.3444(2)
C2_9 C 0.8690(2) 0.6455(2) 0.27071(19)
C3_8 C 0.72003(19) 0.60719(19) 0.20099(17)
O5_13 O 0.7144(2) 0.67374(16) 0.37222(16)
C4_9 C 0.7303(2) 0.75289(19) 0.35377(18)
O6_9 O 0.91509(17) 0.64546(19) 0.28222(17)
C5_9 C 0.8529(2) 0.67307(18) 0.23298(16)
O7_8 O 0.68347(18) 0.59996(17) 0.17745(17)
C6_9 C 0.7701(2) 0.57948(17) 0.19715(15)
O8_9 O 0.84385(15) 0.42573(13) 0.20381(14)
C7_9 C 0.7540(2) 0.78311(19) 0.32553(17)
C8_9 C 0.7090(3) 0.7718(2) 0.3892(2)
C9_9 C 0.8268(2) 0.65232(18) 0.19968(17)
C10_9 C 0.8636(2) 0.7215(2) 0.23286(18)
C11_9 C 0.8194(2) 0.60018(17) 0.19831(16)
C12_9 C 0.76533(19) 0.53107(18) 0.19621(16)
O9_9 O 0.83065(18) 0.82669(14) 0.17637(13)
O10_5 O 0.7911(5) 0.8510(2) 0.2676(2)
O11_9 O 0.8889(2) 0.81537(16) 0.22728(16)
H1_9 H 0.7678 0.7710 0.3002
C13_9 C 0.75789(19) 0.83110(18) 0.33373(16)
C14_9 C 0.7117(3) 0.8190(2) 0.3975(2)
H2_9 H 0.6920 0.7518 0.4086
C15_9 C 0.8110(2) 0.6804(2) 0.16655(16)
H3_9 H 0.8824 0.7351 0.2554
C16_9 C 0.8467(2) 0.74934(19) 0.19981(16)
C17_9 C 0.8632(2) 0.57145(19) 0.19659(18)
H4_8 H 0.7317 0.5173 0.1953
C18_9 C 0.80936(19) 0.50249(17) 0.19652(16)
C19_9 C 0.7366(2) 0.84931(19) 0.37013(17)
C20_9 C 0.7909(3) 0.8592(2) 0.3036(2)
H5_9 H 0.6963 0.8310 0.4222
C21_9 C 0.8201(2) 0.72800(18) 0.16646(16)
H6_9 H 0.7937 0.6665 0.1435
C22_9 C 0.8551(3) 0.8012(2) 0.20106(18)
C23_9 C 0.8585(2) 0.52301(18) 0.19638(17)
H7_9 H 0.8968 0.5852 0.1955
C24_9 C 0.8044(2) 0.44981(18) 0.19894(16)
O12_5 O 0.8217(3) 0.8870(4) 0.3175(3)
H8_9 H 0.8083 0.7465 0.1437
H9_9 H 0.8889 0.5039 0.1961
Co2_5 Co 0.8750 0.8750 0.25691(3)
C26_9 C 0.7303(2) 0.99711(19) 0.39623(18)
C27_9 C 0.7540(2) 0.96689(19) 0.42447(17)
C28_9 C 0.7090(3) 0.9782(2) 0.3608(2)
O15_9 O 0.7911(5) 0.8990(2) 0.4824(2)
H10_9 H 0.7678 0.9790 0.4498
C29_9 C 0.75789(19) 0.91890(18) 0.41627(16)
C30_9 C 0.7117(3) 0.9310(2) 0.3525(2)
H11_9 H 0.6920 0.9982 0.3414
C31_9 C 0.7366(2) 0.90069(19) 0.37987(17)
C32_9 C 0.7909(3) 0.8908(2) 0.4464(2)
H12_9 H 0.6963 0.9190 0.3278
O16_9 O 0.8217(3) 0.8630(4) 0.4325(3)
O23_9 O 0.91935(18) 0.92331(14) 0.17637(13)
O24_9 O 0.8611(2) 0.93463(16) 0.22728(16)
C46_9 C 0.8949(3) 0.9488(2) 0.20106(18)
Co6_5 Co 0.74267(3) 0.37025(2) 0.21550(2)
O27_5 O 0.74219(15) 0.56591(13) 0.30369(12)
O28_5 O 0.9589(5) 0.8990(2) 0.2676(2)
O29_5 O 0.9283(3) 0.8630(4) 0.3175(3)
Co7_5 Co 0.8750 0.8750 0.49309(3)
C7_10 C 0.9960(2) 0.96689(19) 0.32553(17)
H1_10 H 0.9822 0.9790 0.3002
C13_10 C 0.99211(19) 0.91890(18) 0.33373(16)
C20_10 C 0.9591(3) 0.8908(2) 0.3036(2)
C27_10 C 0.9960(2) 0.78311(19) 0.42447(17)
O15_10 O 0.9589(5) 0.8510(2) 0.4824(2)
H10_10 H 0.9822 0.7710 0.4498
C29_10 C 0.99211(19) 0.83110(18) 0.41627(16)
C32_10 C 0.9591(3) 0.8592(2) 0.4464(2)
O16_10 O 0.9283(3) 0.8870(4) 0.4325(3)
Co4_7 Co 0.99267(3) 0.62975(2) 0.46550(2)
O2_10 O 0.91721(16) 0.62327(13) 0.46014(12)
O4_6 O 0.99219(15) 0.43409(13) 0.55369(12)
C2_10 C 0.8810(2) 0.6455(2) 0.47929(19)
O6_10 O 0.83491(17) 0.64546(19) 0.46778(17)
C5_10 C 0.8971(2) 0.67307(18) 0.51702(16)
C6_10 C 0.9799(2) 0.57948(17) 0.55285(15)
O8_10 O 0.90615(15) 0.42573(13) 0.54619(14)
C9_10 C 0.9232(2) 0.65232(18) 0.55032(17)
C10_10 C 0.8864(2) 0.7215(2) 0.51714(18)
C11_10 C 0.9306(2) 0.60018(17) 0.55169(16)
C12_10 C 0.98467(19) 0.53107(18) 0.55379(16)
O9_10 O 0.91935(18) 0.82669(14) 0.57363(13)
O11_10 O 0.8611(2) 0.81537(16) 0.52272(16)
C15_10 C 0.9390(2) 0.6804(2) 0.58345(16)
H3_10 H 0.8676 0.7351 0.4946
C16_10 C 0.9033(2) 0.74934(19) 0.55019(16)
C17_10 C 0.8868(2) 0.57145(19) 0.55341(18)
C18_10 C 0.94064(19) 0.50249(17) 0.55348(16)
C21_10 C 0.9299(2) 0.72800(18) 0.58354(16)
H6_10 H 0.9563 0.6665 0.6065
C22_10 C 0.8949(3) 0.8012(2) 0.54894(18)
C23_10 C 0.8915(2) 0.52301(18) 0.55362(17)
H7_10 H 0.8532 0.5852 0.5545
C24_10 C 0.9456(2) 0.44981(18) 0.55106(16)
H8_10 H 0.9417 0.7465 0.6063
H9_10 H 0.8611 0.5039 0.5539
O23_10 O 0.83065(18) 0.92331(14) 0.57363(13)
O24_10 O 0.8889(2) 0.93463(16) 0.52272(16)
C46_10 C 0.8551(3) 0.9488(2) 0.54894(18)
O3_9 O 0.53279(14) 0.63578(13) 0.01812(12)
O4_7 O 0.49219(15) 0.43409(13) 0.05369(12)
C3_9 C 0.52997(19) 0.60719(19) 0.04901(17)
C5_11 C 0.3971(2) 0.67307(18) 0.01702(16)
O7_9 O 0.56653(18) 0.59996(17) 0.07255(17)
C6_11 C 0.4799(2) 0.57948(17) 0.05285(15)
O8_11 O 0.40615(15) 0.42573(13) 0.04619(14)
C9_11 C 0.4232(2) 0.65232(18) 0.05032(17)
C10_11 C 0.3864(2) 0.7215(2) 0.01714(18)
C11_11 C 0.4306(2) 0.60018(17) 0.05169(16)
C12_11 C 0.48467(19) 0.53107(18) 0.05379(16)
O9_11 O 0.41935(18) 0.82669(14) 0.07363(13)
O11_11 O 0.3611(2) 0.81537(16) 0.02272(16)
C15_11 C 0.4390(2) 0.6804(2) 0.08345(16)
C16_11 C 0.4033(2) 0.74934(19) 0.05019(16)
C17_11 C 0.3868(2) 0.57145(19) 0.05341(18)
H4_9 H 0.5183 0.5173 0.0547
C18_11 C 0.44064(19) 0.50249(17) 0.05348(16)
C21_11 C 0.4299(2) 0.72800(18) 0.08354(16)
H6_11 H 0.4563 0.6665 0.1065
C22_11 C 0.3949(3) 0.8012(2) 0.04894(18)
C23_11 C 0.3915(2) 0.52301(18) 0.05362(17)
H7_11 H 0.3532 0.5852 0.0545
C24_11 C 0.4456(2) 0.44981(18) 0.05106(16)
H8_11 H 0.4417 0.7465 0.1063
H9_11 H 0.3611 0.5039 0.0539
O23_11 O 0.33065(18) 0.92331(14) 0.07363(13)
O24_11 O 0.3889(2) 0.93463(16) 0.02272(16)
C46_11 C 0.3551(3) 0.9488(2) 0.04894(18)
Co6_6 Co 0.50733(3) 0.37025(2) 0.03450(2)
C4_10 C 0.9803(2) 0.00289(19) 0.64623(18)
C8_10 C 0.9590(3) 0.0218(2) 0.6108(2)
C14_10 C 0.9617(3) 0.0690(2) 0.6025(2)
H2_10 H 0.9420 0.0018 0.5914
C19_10 C 0.9866(2) 0.09931(19) 0.62987(17)
H5_10 H 0.9463 0.0810 0.5778
O13_13 O 0.9908(2) 0.31005(15) 0.55817(15)
C25_13 C 0.9779(2) 0.29901(19) 0.5944(2)
O14_13 O 0.9644(2) 0.32626(16) 0.62222(16)
C26_10 C 0.9803(2) 0.24711(19) 0.60377(18)
C28_10 C 0.9590(3) 0.2282(2) 0.6392(2)
C30_10 C 0.9617(3) 0.1810(2) 0.6475(2)
H11_10 H 0.9420 0.2482 0.6586
C31_10 C 0.9866(2) 0.15069(19) 0.62013(17)
H12_10 H 0.9463 0.1690 0.6722
O3_10 O 0.96721(14) 0.36422(13) 0.48188(12)
C3_10 C 0.97003(19) 0.39281(19) 0.45099(17)
O7_10 O 0.93347(18) 0.40004(17) 0.42745(17)
H4_10 H 0.9817 0.4827 0.4453
O1_6 O 0.7592(2) 0.31005(15) 0.19183(15)
O2_11 O 0.66721(16) 0.37673(13) 0.21014(12)
O3_11 O 0.78279(14) 0.36422(13) 0.26812(12)
C1_14 C 0.7721(2) 0.29901(19) 0.1556(2)
C2_11 C 0.6310(2) 0.3545(2) 0.22929(19)
C3_11 C 0.77997(19) 0.39281(19) 0.29901(17)
O5_14 O 0.7856(2) 0.32626(16) 0.12778(16)
C4_11 C 0.7697(2) 0.24711(19) 0.14623(18)
O6_11 O 0.58491(17) 0.35454(19) 0.21778(17)
C5_12 C 0.6471(2) 0.32693(18) 0.26702(16)
O7_11 O 0.81653(18) 0.40004(17) 0.32255(17)
C6_12 C 0.7299(2) 0.42052(17) 0.30285(15)
O8_12 O 0.65615(15) 0.57427(13) 0.29619(14)
C7_11 C 0.7460(2) 0.21689(19) 0.17447(17)
C8_11 C 0.7910(3) 0.2282(2) 0.1108(2)
C9_12 C 0.6732(2) 0.34768(18) 0.30032(17)
C10_12 C 0.6364(2) 0.2785(2) 0.26714(18)
C11_12 C 0.6806(2) 0.39982(17) 0.30169(16)
C12_12 C 0.73467(19) 0.46893(18) 0.30379(16)
O9_12 O 0.66935(18) 0.17331(14) 0.32363(13)
O10_6 O 0.7089(5) 0.1490(2) 0.2324(2)
O11_12 O 0.6111(2) 0.18463(16) 0.27272(16)
H1_11 H 0.7322 0.2290 0.1998
C13_11 C 0.74211(19) 0.16890(18) 0.16627(16)
C14_11 C 0.7883(3) 0.1810(2) 0.1025(2)
H2_11 H 0.8080 0.2482 0.0914
C15_12 C 0.6890(2) 0.3196(2) 0.33345(16)
H3_11 H 0.6176 0.2649 0.2446
C16_12 C 0.6533(2) 0.25066(19) 0.30019(16)
C17_12 C 0.6368(2) 0.42855(19) 0.30341(18)
H4_11 H 0.7683 0.4827 0.3047
C18_12 C 0.69064(19) 0.49751(17) 0.30348(16)
C19_11 C 0.7634(2) 0.15069(19) 0.12987(17)
C20_11 C 0.7091(3) 0.1408(2) 0.1964(2)
H5_11 H 0.8037 0.1690 0.0778
C21_12 C 0.6799(2) 0.27200(18) 0.33354(16)
H6_12 H 0.7063 0.3335 0.3565
C22_12 C 0.6449(3) 0.1988(2) 0.29894(18)
C23_12 C 0.6415(2) 0.47699(18) 0.30362(17)
H7_12 H 0.6032 0.4148 0.3045
C24_12 C 0.6956(2) 0.55019(18) 0.30106(16)
O12_6 O 0.6783(3) 0.1130(4) 0.1825(3)
H8_12 H 0.6917 0.2535 0.3563
H9_12 H 0.6111 0.4961 0.3039
Co2_6 Co 0.6250 0.1250 0.24309(3)
C26_11 C 0.7697(2) 0.00289(19) 0.10377(18)
C27_11 C 0.7460(2) 0.03311(19) 0.07553(17)
C28_11 C 0.7910(3) 0.0218(2) 0.1392(2)
O15_11 O 0.7089(5) 0.1010(2) 0.0176(2)
H10_11 H 0.7322 0.0210 0.0502
C29_11 C 0.74211(19) 0.08110(18) 0.08373(16)
C30_11 C 0.7883(3) 0.0690(2) 0.1475(2)
H11_11 H 0.8080 0.0018 0.1586
C31_11 C 0.7634(2) 0.09931(19) 0.12013(17)
C32_11 C 0.7091(3) 0.1092(2) 0.0536(2)
H12_11 H 0.8037 0.0810 0.1722
O16_11 O 0.6783(3) 0.1370(4) 0.0675(3)
O23_12 O 0.58065(18) 0.07669(14) 0.32363(13)
O24_12 O 0.6389(2) 0.06537(16) 0.27272(16)
C46_12 C 0.6051(3) 0.0512(2) 0.29894(18)
O28_6 O 0.5411(5) 0.1010(2) 0.2324(2)
O29_6 O 0.5717(3) 0.1370(4) 0.1825(3)
Co7_6 Co 0.6250 0.1250 0.00691(3)
C4_12 C 0.4803(2) 0.00289(19) 0.14623(18)
C7_12 C 0.5040(2) 0.03311(19) 0.17447(17)
C8_12 C 0.4590(3) 0.0218(2) 0.1108(2)
H1_12 H 0.5178 0.0210 0.1998
C13_12 C 0.50789(19) 0.08110(18) 0.16627(16)
C14_12 C 0.4617(3) 0.0690(2) 0.1025(2)
H2_12 H 0.4420 0.0018 0.0914
C19_12 C 0.4866(2) 0.09931(19) 0.12987(17)
C20_12 C 0.5409(3) 0.1092(2) 0.1964(2)
H5_12 H 0.4463 0.0810 0.0778
O13_14 O 0.4908(2) 0.31005(15) 0.05817(15)
C25_14 C 0.4779(2) 0.29901(19) 0.0944(2)
O14_14 O 0.4644(2) 0.32626(16) 0.12222(16)
C26_12 C 0.4803(2) 0.24711(19) 0.10377(18)
C27_12 C 0.5040(2) 0.21689(19) 0.07553(17)
C28_12 C 0.4590(3) 0.2282(2) 0.1392(2)
O15_12 O 0.5411(5) 0.1490(2) 0.0176(2)
H10_12 H 0.5178 0.2290 0.0502
C29_12 C 0.50789(19) 0.16890(18) 0.08373(16)
C30_12 C 0.4617(3) 0.1810(2) 0.1475(2)
H11_12 H 0.4420 0.2482 0.1586
C31_12 C 0.4866(2) 0.15069(19) 0.12013(17)
C32_12 C 0.5409(3) 0.1408(2) 0.0536(2)
H12_12 H 0.4463 0.1690 0.1722
O16_12 O 0.5717(3) 0.1130(4) 0.0675(3)
O2_12 O 0.58279(16) 0.37673(13) 0.03986(12)
C2_12 C 0.6190(2) 0.3545(2) 0.02071(19)
O6_12 O 0.66509(17) 0.35454(19) 0.03222(17)
H3_12 H 0.6324 0.2649 0.0054
C4_13 C 0.0197(2) 0.99711(19) 0.35377(18)
C8_13 C 0.0410(3) 0.9782(2) 0.3892(2)
C14_13 C 0.0383(3) 0.9310(2) 0.3975(2)
H2_13 H 0.0580 0.9982 0.4086
C19_13 C 0.0134(2) 0.90069(19) 0.37013(17)
H5_13 H 0.0537 0.9190 0.4222
O13_15 O 0.0092(2) 0.68995(15) 0.44183(15)
C25_15 C 0.0221(2) 0.70099(19) 0.4056(2)
O14_15 O 0.0356(2) 0.67374(16) 0.37778(16)
C26_13 C 0.0197(2) 0.75289(19) 0.39623(18)
C28_13 C 0.0410(3) 0.7718(2) 0.3608(2)
C30_13 C 0.0383(3) 0.8190(2) 0.3525(2)
H11_13 H 0.0580 0.7518 0.3414
C31_13 C 0.0134(2) 0.84931(19) 0.37987(17)
H12_13 H 0.0537 0.8310 0.3278
O3_12 O 0.03279(14) 0.63578(13) 0.51812(12)
C3_12 C 0.02997(19) 0.60719(19) 0.54901(17)
O7_12 O 0.06653(18) 0.59996(17) 0.57255(17)
H4_12 H 0.0183 0.5173 0.5547
Co6_7 Co 0.00733(3) 0.37025(2) 0.53450(2)
O27_6 O 0.00781(15) 0.56591(13) 0.44631(12)
Co1_4 Co 0.25733(3) 0.62975(2) 0.78450(2)
O1_7 O 0.2408(2) 0.68995(15) 0.80817(15)
O2_13 O 0.33279(16) 0.62327(13) 0.78986(12)
O3_13 O 0.21721(14) 0.63578(13) 0.73188(12)
O4_8 O 0.25781(15) 0.43409(13) 0.69631(12)
C1_15 C 0.2279(2) 0.70099(19) 0.8444(2)
C2_13 C 0.3690(2) 0.6455(2) 0.77071(19)
C3_13 C 0.22003(19) 0.60719(19) 0.70099(17)
O5_15 O 0.2144(2) 0.67374(16) 0.87222(16)
C4_14 C 0.2303(2) 0.75289(19) 0.85377(18)
O6_13 O 0.41509(17) 0.64546(19) 0.78222(17)
C5_13 C 0.3529(2) 0.67307(18) 0.73298(16)
O7_13 O 0.18347(18) 0.59996(17) 0.67745(17)
C6_13 C 0.2701(2) 0.57948(17) 0.69715(15)
O8_13 O 0.34385(15) 0.42573(13) 0.70381(14)
C7_13 C 0.2540(2) 0.78311(19) 0.82553(17)
C8_14 C 0.2090(3) 0.7718(2) 0.8892(2)
C9_13 C 0.3268(2) 0.65232(18) 0.69968(17)
C10_13 C 0.3636(2) 0.7215(2) 0.73286(18)
C11_13 C 0.3194(2) 0.60018(17) 0.69831(16)
C12_13 C 0.26533(19) 0.53107(18) 0.69621(16)
O9_13 O 0.33065(18) 0.82669(14) 0.67637(13)
O10_7 O 0.2911(5) 0.8510(2) 0.7676(2)
O11_13 O 0.3889(2) 0.81537(16) 0.72728(16)
H1_13 H 0.2678 0.7710 0.8002
C13_13 C 0.25789(19) 0.83110(18) 0.83373(16)
C14_14 C 0.2117(3) 0.8190(2) 0.8975(2)
H2_14 H 0.1920 0.7518 0.9086
C15_13 C 0.3110(2) 0.6804(2) 0.66655(16)
H3_13 H 0.3824 0.7351 0.7554
C16_13 C 0.3467(2) 0.74934(19) 0.69981(16)
C17_13 C 0.3632(2) 0.57145(19) 0.69659(18)
H4_13 H 0.2317 0.5173 0.6953
C18_13 C 0.30936(19) 0.50249(17) 0.69652(16)
C19_14 C 0.2366(2) 0.84931(19) 0.87013(17)
C20_13 C 0.2909(3) 0.8592(2) 0.8036(2)
H5_14 H 0.1963 0.8310 0.9222
C21_13 C 0.3201(2) 0.72800(18) 0.66646(16)
H6_13 H 0.2937 0.6665 0.6435
C22_13 C 0.3551(3) 0.8012(2) 0.70106(18)
C23_13 C 0.3585(2) 0.52301(18) 0.69638(17)
H7_13 H 0.3968 0.5852 0.6955
C24_13 C 0.3044(2) 0.44981(18) 0.69894(16)
O12_7 O 0.3217(3) 0.8870(4) 0.8175(3)
H8_13 H 0.3083 0.7465 0.6437
H9_13 H 0.3889 0.5039 0.6961
Co2_7 Co 0.3750 0.8750 0.75691(3)
C26_14 C 0.2303(2) 0.99711(19) 0.89623(18)
C27_13 C 0.2540(2) 0.96689(19) 0.92447(17)
C28_14 C 0.2090(3) 0.9782(2) 0.8608(2)
O15_13 O 0.2911(5) 0.8990(2) 0.9824(2)
H10_13 H 0.2678 0.9790 0.9498
C29_13 C 0.25789(19) 0.91890(18) 0.91627(16)
C30_14 C 0.2117(3) 0.9310(2) 0.8525(2)
H11_14 H 0.1920 0.9982 0.8414
C31_14 C 0.2366(2) 0.90069(19) 0.87987(17)
C32_13 C 0.2909(3) 0.8908(2) 0.9464(2)
H12_14 H 0.1963 0.9190 0.8278
O16_13 O 0.3217(3) 0.8630(4) 0.9325(3)
O23_13 O 0.41935(18) 0.92331(14) 0.67637(13)
O24_13 O 0.3611(2) 0.93463(16) 0.72728(16)
C46_13 C 0.3949(3) 0.9488(2) 0.70106(18)
Co6_8 Co 0.24267(3) 0.37025(2) 0.71550(2)
O27_7 O 0.24219(15) 0.56591(13) 0.80369(12)
O28_7 O 0.4589(5) 0.8990(2) 0.7676(2)
O29_7 O 0.4283(3) 0.8630(4) 0.8175(3)
Co7_7 Co 0.3750 0.8750 0.99309(3)
C4_15 C 0.5197(2) 0.99711(19) 0.85377(18)
C7_14 C 0.4960(2) 0.96689(19) 0.82553(17)
C8_15 C 0.5410(3) 0.9782(2) 0.8892(2)
H1_14 H 0.4822 0.9790 0.8002
C13_14 C 0.49211(19) 0.91890(18) 0.83373(16)
C14_15 C 0.5383(3) 0.9310(2) 0.8975(2)
H2_15 H 0.5580 0.9982 0.9086
C19_15 C 0.5134(2) 0.90069(19) 0.87013(17)
C20_14 C 0.4591(3) 0.8908(2) 0.8036(2)
H5_15 H 0.5537 0.9190 0.9222
O13_16 O 0.5092(2) 0.68995(15) 0.94183(15)
C25_16 C 0.5221(2) 0.70099(19) 0.9056(2)
O14_16 O 0.5356(2) 0.67374(16) 0.87778(16)
C26_15 C 0.5197(2) 0.75289(19) 0.89623(18)
C27_14 C 0.4960(2) 0.78311(19) 0.92447(17)
C28_15 C 0.5410(3) 0.7718(2) 0.8608(2)
O15_14 O 0.4589(5) 0.8510(2) 0.9824(2)
H10_14 H 0.4822 0.7710 0.9498
C29_14 C 0.49211(19) 0.83110(18) 0.91627(16)
C30_15 C 0.5383(3) 0.8190(2) 0.8525(2)
H11_15 H 0.5580 0.7518 0.8414
C31_15 C 0.5134(2) 0.84931(19) 0.87987(17)
C32_14 C 0.4591(3) 0.8592(2) 0.9464(2)
H12_15 H 0.5537 0.8310 0.8278
O16_14 O 0.4283(3) 0.8870(4) 0.9325(3)
Co4_8 Co 0.49267(3) 0.62975(2) 0.96550(2)
O2_14 O 0.41721(16) 0.62327(13) 0.96014(12)
C2_14 C 0.3810(2) 0.6455(2) 0.97929(19)
O6_14 O 0.33491(17) 0.64546(19) 0.96778(17)
H3_14 H 0.3676 0.7351 0.9946
O27_8 O 0.50781(15) 0.56591(13) 0.94631(12)
O1_8 O 0.2592(2) 0.31005(15) 0.69183(15)
O2_15 O 0.16721(16) 0.37673(13) 0.71014(12)
O3_14 O 0.28279(14) 0.36422(13) 0.76812(12)
C1_16 C 0.2721(2) 0.29901(19) 0.6556(2)
C2_15 C 0.1310(2) 0.3545(2) 0.72929(19)
C3_14 C 0.27997(19) 0.39281(19) 0.79901(17)
O5_16 O 0.2856(2) 0.32626(16) 0.62778(16)
C4_16 C 0.2697(2) 0.24711(19) 0.64623(18)
O6_15 O 0.08491(17) 0.35454(19) 0.71778(17)
C5_14 C 0.1471(2) 0.32693(18) 0.76702(16)
O7_14 O 0.31653(18) 0.40004(17) 0.82255(17)
C6_14 C 0.2299(2) 0.42052(17) 0.80285(15)
O8_14 O 0.15615(15) 0.57427(13) 0.79619(14)
C7_15 C 0.2460(2) 0.21689(19) 0.67447(17)
C8_16 C 0.2910(3) 0.2282(2) 0.6108(2)
C9_14 C 0.1732(2) 0.34768(18) 0.80032(17)
C10_14 C 0.1364(2) 0.2785(2) 0.76714(18)
C11_14 C 0.1806(2) 0.39982(17) 0.80169(16)
C12_14 C 0.23467(19) 0.46893(18) 0.80379(16)
O9_14 O 0.16935(18) 0.17331(14) 0.82363(13)
O10_8 O 0.2089(5) 0.1490(2) 0.7324(2)
O11_14 O 0.1111(2) 0.18463(16) 0.77272(16)
H1_15 H 0.2322 0.2290 0.6998
C13_15 C 0.24211(19) 0.16890(18) 0.66627(16)
C14_16 C 0.2883(3) 0.1810(2) 0.6025(2)
H2_16 H 0.3080 0.2482 0.5914
C15_14 C 0.1890(2) 0.3196(2) 0.83345(16)
H3_15 H 0.1176 0.2649 0.7446
C16_14 C 0.1533(2) 0.25066(19) 0.80019(16)
C17_14 C 0.1368(2) 0.42855(19) 0.80341(18)
H4_14 H 0.2683 0.4827 0.8047
C18_14 C 0.19064(19) 0.49751(17) 0.80348(16)
C19_16 C 0.2634(2) 0.15069(19) 0.62987(17)
C20_15 C 0.2091(3) 0.1408(2) 0.6964(2)
H5_16 H 0.3037 0.1690 0.5778
C21_14 C 0.1799(2) 0.27200(18) 0.83354(16)
H6_14 H 0.2063 0.3335 0.8565
C22_14 C 0.1449(3) 0.1988(2) 0.79894(18)
C23_14 C 0.1415(2) 0.47699(18) 0.80362(17)
H7_14 H 0.1032 0.4148 0.8045
C24_14 C 0.1956(2) 0.55019(18) 0.80106(16)
O12_8 O 0.1783(3) 0.1130(4) 0.6825(3)
H8_14 H 0.1917 0.2535 0.8563
H9_14 H 0.1111 0.4961 0.8039
Co2_8 Co 0.1250 0.1250 0.74309(3)
C26_16 C 0.2697(2) 0.00289(19) 0.60377(18)
C27_15 C 0.2460(2) 0.03311(19) 0.57553(17)
C28_16 C 0.2910(3) 0.0218(2) 0.6392(2)
O15_15 O 0.2089(5) 0.1010(2) 0.5176(2)
H10_15 H 0.2322 0.0210 0.5502
C29_15 C 0.24211(19) 0.08110(18) 0.58373(16)
C30_16 C 0.2883(3) 0.0690(2) 0.6475(2)
H11_16 H 0.3080 0.0018 0.6586
C31_16 C 0.2634(2) 0.09931(19) 0.62013(17)
C32_15 C 0.2091(3) 0.1092(2) 0.5536(2)
H12_16 H 0.3037 0.0810 0.6722
O16_15 O 0.1783(3) 0.1370(4) 0.5675(3)
O23_14 O 0.08065(18) 0.07669(14) 0.82363(13)
O24_14 O 0.1389(2) 0.06537(16) 0.77272(16)
C46_14 C 0.1051(3) 0.0512(2) 0.79894(18)
O28_8 O 0.0411(5) 0.1010(2) 0.7324(2)
O29_8 O 0.0717(3) 0.1370(4) 0.6825(3)
Co7_8 Co 0.1250 0.1250 0.50691(3)
C7_16 C 0.0040(2) 0.03311(19) 0.67447(17)
H1_16 H 0.0178 0.0210 0.6998
C13_16 C 0.00789(19) 0.08110(18) 0.66627(16)
C20_16 C 0.0409(3) 0.1092(2) 0.6964(2)
C27_16 C 0.0040(2) 0.21689(19) 0.57553(17)
O15_16 O 0.0411(5) 0.1490(2) 0.5176(2)
H10_16 H 0.0178 0.2290 0.5502
C29_16 C 0.00789(19) 0.16890(18) 0.58373(16)
C32_16 C 0.0409(3) 0.1408(2) 0.5536(2)
O16_16 O 0.0717(3) 0.1130(4) 0.5675(3)
O2_16 O 0.08279(16) 0.37673(13) 0.53986(12)
C2_16 C 0.1190(2) 0.3545(2) 0.52071(19)
O6_16 O 0.16509(17) 0.35454(19) 0.53222(17)
C5_15 C 0.1029(2) 0.32693(18) 0.48298(16)
C6_15 C 0.0201(2) 0.42052(17) 0.44715(15)
O8_15 O 0.09385(15) 0.57427(13) 0.45381(14)
C9_15 C 0.0768(2) 0.34768(18) 0.44968(17)
C10_15 C 0.1136(2) 0.2785(2) 0.48286(18)
C11_15 C 0.0694(2) 0.39982(17) 0.44831(16)
C12_15 C 0.01533(19) 0.46893(18) 0.44621(16)
O9_15 O 0.08065(18) 0.17331(14) 0.42637(13)
O11_15 O 0.1389(2) 0.18463(16) 0.47728(16)
C15_15 C 0.0610(2) 0.3196(2) 0.41655(16)
H3_16 H 0.1324 0.2649 0.5054
C16_15 C 0.0967(2) 0.25066(19) 0.44981(16)
C17_15 C 0.1132(2) 0.42855(19) 0.44659(18)
C18_15 C 0.05936(19) 0.49751(17) 0.44652(16)
C21_15 C 0.0701(2) 0.27200(18) 0.41646(16)
H6_15 H 0.0437 0.3335 0.3935
C22_15 C 0.1051(3) 0.1988(2) 0.45106(18)
C23_15 C 0.1085(2) 0.47699(18) 0.44638(17)
H7_15 H 0.1468 0.4148 0.4455
C24_15 C 0.0544(2) 0.55019(18) 0.44894(16)
H8_15 H 0.0583 0.2535 0.3937
H9_15 H 0.1389 0.4961 0.4461
O23_15 O 0.16935(18) 0.07669(14) 0.42637(13)
O24_15 O 0.1111(2) 0.06537(16) 0.47728(16)
C46_15 C 0.1449(3) 0.0512(2) 0.45106(18)
O3_15 O 0.46721(14) 0.36422(13) 0.98188(12)
C3_15 C 0.47003(19) 0.39281(19) 0.95099(17)
C5_16 C 0.6029(2) 0.32693(18) 0.98298(16)
O7_15 O 0.43347(18) 0.40004(17) 0.92745(17)
C6_16 C 0.5201(2) 0.42052(17) 0.94715(15)
O8_16 O 0.59385(15) 0.57427(13) 0.95381(14)
C9_16 C 0.5768(2) 0.34768(18) 0.94968(17)
C10_16 C 0.6136(2) 0.2785(2) 0.98286(18)
C11_16 C 0.5694(2) 0.39982(17) 0.94831(16)
C12_16 C 0.51533(19) 0.46893(18) 0.94621(16)
O9_16 O 0.58065(18) 0.17331(14) 0.92637(13)
O11_16 O 0.6389(2) 0.18463(16) 0.97728(16)
C15_16 C 0.5610(2) 0.3196(2) 0.91655(16)
C16_16 C 0.5967(2) 0.25066(19) 0.94981(16)
C17_16 C 0.6132(2) 0.42855(19) 0.94659(18)
H4_15 H 0.4817 0.4827 0.9453
C18_16 C 0.55936(19) 0.49751(17) 0.94652(16)
C21_16 C 0.5701(2) 0.27200(18) 0.91646(16)
H6_16 H 0.5437 0.3335 0.8935
C22_16 C 0.6051(3) 0.1988(2) 0.95106(18)
C23_16 C 0.6085(2) 0.47699(18) 0.94638(17)
H7_16 H 0.6468 0.4148 0.9455
C24_16 C 0.5544(2) 0.55019(18) 0.94894(16)
H8_16 H 0.5583 0.2535 0.8937
H9_16 H 0.6389 0.4961 0.9461
O23_16 O 0.66935(18) 0.07669(14) 0.92637(13)
O24_16 O 0.6111(2) 0.06537(16) 0.97728(16)
C46_16 C 0.6449(3) 0.0512(2) 0.95106(18)
O3_16 O 0.96721(14) 0.86422(13) 0.98188(12)
C3_16 C 0.97003(19) 0.89281(19) 0.95099(17)
O7_16 O 0.93347(18) 0.90004(17) 0.92745(17)
H4_16 H 0.9817 0.9827 0.9453
loop_
_geom_bond_atom_site_label_1
_geom_bond_atom_site_label_2
_geom_bond_site_symmetry_1
_geom_bond_site_symmetry_2
C34 O18 1_555 1_555
O21 C34 1_555 1_555
O25 C1 1_555 1_555
C1 O5 1_555 1_555
C4 C1 1_555 1_555
C8 C4 1_555 1_555
C14 C8 1_555 1_555
H2 C8 1_555 1_555
H5 C14 1_555 1_555
O13 C25 1_555 1_555
C25 O14 1_555 1_555
C26 C25 1_555 1_555
C28 C26 1_555 1_555
C30 C28 1_555 1_555
H11 C28 1_555 1_555
C31 C19 1_555 1_555
H12 C30 1_555 1_555
C14 C19 1_555 1_555
C30 C31 1_555 1_555
C9 C5 1_555 1_555
C10 C5 1_555 1_555
C11 C6 1_555 1_555
C12 C6 1_555 1_555
O9 C22 1_555 1_555
O11 C22 1_555 1_555
C15 C9 1_555 1_555
C16 C10 1_555 1_555
C17 C11 1_555 1_555
C18 C12 1_555 1_555
C21 C15 1_555 1_555
H6 C15 1_555 1_555
C22 C16 1_555 1_555
C23 C17 1_555 1_555
H7 C17 1_555 1_555
H8 C21 1_555 1_555
H9 C23 1_555 1_555
O19 C48 1_555 1_555
C34_2 O18_2 1_555 1_555
O21_2 C34_2 1_555 1_555
C36 C34_2 1_555 1_555
O22 C48 1_555 1_555
C37 C35 1_555 1_555
C38 C35 1_555 1_555
C39 C36 1_555 1_555
C40 C36 1_555 1_555
O23 C46 1_555 1_555
C41 C37 1_555 1_555
C42 C38 1_555 1_555
C43 C39 1_555 1_555
H14_2 C40 1_555 1_555
C44 C40 1_555 1_555
C45 C41 1_555 1_555
H15 C41 1_555 1_555
C46 O24 1_555 1_555
C47 C43 1_555 1_555
H16 C43 1_555 1_555
C48 C44 1_555 1_555
H17 C45 1_555 1_555
H18 C47 1_555 1_555
Co5_2 O19 1_555 1_555
C9 C11 1_555 1_555
C16 C21 1_555 1_555
C18 C23 1_555 1_555
C37 C39 1_555 1_555
C42 C45 1_555 1_555
C42 C46 1_555 1_555
C44 C47 1_555 1_555
Co1 O1 1_555 1_555
O1 C1_2 1_555 1_555
O2 Co1 1_555 1_555
O3 Co1 1_555 1_555
C1_2 O5_2 1_555 1_555
C2 O2 1_555 1_555
C3 O3 1_555 1_555
C4_2 C1_2 1_555 1_555
O6 C2 1_555 1_555
C5_2 C2 1_555 1_555
O7 C3 1_555 1_555
C6_2 C3 1_555 1_555
C7 C4_2 1_555 1_555
C8_2 C4_2 1_555 1_555
C9_2 C5_2 1_555 1_555
C10_2 C5_2 1_555 1_555
C11_2 C6_2 1_555 1_555
C12_2 C6_2 1_555 1_555
O9_2 C22_2 1_555 1_555
O10 C20 1_555 1_555
O11_2 C22_2 1_555 1_555
H1 C7 1_555 1_555
C13 C7 1_555 1_555
C14_2 C8_2 1_555 1_555
H2_2 C8_2 1_555 1_555
C15_2 C9_2 1_555 1_555
H3 C10_2 1_555 1_555
C16_2 C10_2 1_555 1_555
C17_2 C11_2 1_555 1_555
H4 C12_2 1_555 1_555
C18_2 C12_2 1_555 1_555
C19_2 C13 1_555 1_555
C20 C13 1_555 1_555
H5_2 C14_2 1_555 1_555
C21_2 C15_2 1_555 1_555
H6_2 C15_2 1_555 1_555
C22_2 C16_2 1_555 1_555
C23_2 C17_2 1_555 1_555
H7_2 C17_2 1_555 1_555
O12 C20 1_555 1_555
H8_2 C21_2 1_555 1_555
H9_2 C23_2 1_555 1_555
Co2 O10 1_555 1_555
O13_2 C25_2 1_555 1_555
C25_2 O14_2 1_555 1_555
C26_2 C25_2 1_555 1_555
C27 C26_2 1_555 1_555
C28_2 C26_2 1_555 1_555
O15 C32 1_555 1_555
H10 C27 1_555 1_555
C29 C27 1_555 1_555
C30_2 C28_2 1_555 1_555
H11_2 C28_2 1_555 1_555
C31_2 C19_2 1_555 1_555
C32 C29 1_555 1_555
H12_2 C30_2 1_555 1_555
O16 C32 1_555 1_555
Co3 O17 1_555 1_555
O17 C33 1_555 1_555
O18_3 Co3 1_555 1_555
O19_2 C48_2 1_555 1_555
C33 O20 1_555 1_555
C34_3 O18_3 1_555 1_555
C35_2 C33 1_555 1_555
O21_3 C34_3 1_555 1_555
C36_2 C34_3 1_555 1_555
O22_2 C48_2 1_555 1_555
C37_2 C35_2 1_555 1_555
C38_2 C35_2 1_555 1_555
C39_2 C36_2 1_555 1_555
C40_2 C36_2 1_555 1_555
O23_2 C46_2 1_555 1_555
O24_2 Co2 1_555 1_555
C41_2 C37_2 1_555 1_555
H13 C38_2 1_555 1_555
C42_2 C38_2 1_555 1_555
C43_2 C39_2 1_555 1_555
H14_3 C40_2 1_555 1_555
C44_2 C40_2 1_555 1_555
C45_2 C41_2 1_555 1_555
H15_2 C41_2 1_555 1_555
C46_2 O24_2 1_555 1_555
C47_2 C43_2 1_555 1_555
H16_2 C43_2 1_555 1_555
C48_2 C44_2 1_555 1_555
H17_2 C45_2 1_555 1_555
H18_2 C47_2 1_555 1_555
Co4 O13_2 1_555 1_555
Co5_3 O19_2 1_555 1_555
O25_2 Co3 1_555 1_555
O26_2 Co3 1_555 1_555
O27_2 Co1 1_555 1_555
O28 Co2 1_555 1_555
O29 Co2 1_555 1_555
Co7 O15 1_555 1_555
C9_2 C11_2 1_555 1_555
O11_2 Co2 1_555 1_555
C14_2 C19_2 1_555 1_555
C16_2 C21_2 1_555 1_555
C18_2 C23_2 1_555 1_555
O12 Co2 1_555 1_555
C29 C31_2 1_555 1_555
C30_2 C31_2 1_555 1_555
O16 Co7 1_555 1_555
C37_2 C39_2 1_555 1_555
C42_2 C45_2 1_555 1_555
C42_2 C46_2 1_555 1_555
C44_2 C47_2 1_555 1_555
O25_2 C1_3 1_555 1_555
C1_3 O5_3 1_555 1_555
C4_3 C1_3 1_555 1_555
C7_2 C4_3 1_555 1_555
C8_3 C4_3 1_555 1_555
O28 C20_2 1_555 1_555
H1_2 C7_2 1_555 1_555
C13_2 C7_2 1_555 1_555
C14_3 C8_3 1_555 1_555
H2_3 C8_3 1_555 1_555
C19_3 C13_2 1_555 1_555
C20_2 C13_2 1_555 1_555
H5_3 C14_3 1_555 1_555
O29 C20_2 1_555 1_555
O13_3 C25_3 1_555 1_555
C25_3 O14_3 1_555 1_555
C26_3 C25_3 1_555 1_555
C27_2 C26_3 1_555 1_555
C28_3 C26_3 1_555 1_555
O15_2 C32_2 1_555 1_555
H10_2 C27_2 1_555 1_555
C29_2 C27_2 1_555 1_555
C30_3 C28_3 1_555 1_555
H11_3 C28_3 1_555 1_555
C31_3 C19_3 1_555 1_555
C32_2 C29_2 1_555 1_555
H12_3 C30_3 1_555 1_555
O16_2 C32_2 1_555 1_555
Co4_2 O13_3 1_555 1_555
Co7 O15_2 1_555 1_555
C14_3 C19_3 1_555 1_555
C29_2 C31_3 1_555 1_555
C30_3 C31_3 1_555 1_555
O16_2 Co7 1_555 1_555
O2_2 Co4_2 1_555 1_555
O3_2 Co4_2 1_555 1_555
C2_2 O2_2 1_555 1_555
C3_2 O3_2 1_555 1_555
O6_2 C2_2 1_555 1_555
C5_3 C2_2 1_555 1_555
O7_2 C3_2 1_555 1_555
C6_3 C3_2 1_555 1_555
C9_3 C5_3 1_555 1_555
C10_3 C5_3 1_555 1_555
C11_3 C6_3 1_555 1_555
C12_3 C6_3 1_555 1_555
O9_3 C22_3 1_555 1_555
O11_3 C22_3 1_555 1_555
C15_3 C9_3 1_555 1_555
H3_2 C10_3 1_555 1_555
C16_3 C10_3 1_555 1_555
C17_3 C11_3 1_555 1_555
H4_2 C12_3 1_555 1_555
C18_3 C12_3 1_555 1_555
C21_3 C15_3 1_555 1_555
H6_3 C15_3 1_555 1_555
C22_3 C16_3 1_555 1_555
C23_3 C17_3 1_555 1_555
H7_3 C17_3 1_555 1_555
H8_3 C21_3 1_555 1_555
H9_3 C23_3 1_555 1_555
Co4 O17_2 1_555 1_555
O17_2 C33_2 1_555 1_555
O18_4 Co4 1_555 1_555
O19_3 C48_3 1_555 1_555
C33_2 O20_2 1_555 1_555
C34_4 O18_4 1_555 1_555
C35_3 C33_2 1_555 1_555
O21_4 C34_4 1_555 1_555
C36_3 C34_4 1_555 1_555
O22_3 C48_3 1_555 1_555
C37_3 C35_3 1_555 1_555
C38_3 C35_3 1_555 1_555
C39_3 C36_3 1_555 1_555
C40_3 C36_3 1_555 1_555
O23_3 C46_3 1_555 1_555
O24_3 Co7 1_555 1_555
C41_3 C37_3 1_555 1_555
H13_2 C38_3 1_555 1_555
C42_3 C38_3 1_555 1_555
C43_3 C39_3 1_555 1_555
H14_4 C40_3 1_555 1_555
C44_3 C40_3 1_555 1_555
C45_3 C41_3 1_555 1_555
H15_3 C41_3 1_555 1_555
C46_3 O24_3 1_555 1_555
C47_3 C43_3 1_555 1_555
H16_3 C43_3 1_555 1_555
C48_3 C44_3 1_555 1_555
H17_3 C45_3 1_555 1_555
H18_3 C47_3 1_555 1_555
Co5_4 O19_3 1_555 1_555
O26_3 Co4 1_555 1_555
O27_3 Co4_2 1_555 1_555
C9_3 C11_3 1_555 1_555
O11_3 Co7 1_555 1_555
C16_3 C21_3 1_555 1_555
C18_3 C23_3 1_555 1_555
C37_3 C39_3 1_555 1_555
C42_3 C45_3 1_555 1_555
C42_3 C46_3 1_555 1_555
C44_3 C47_3 1_555 1_555
O27_2 C24 1_555 1_555
O8 C24 1_555 1_555
O27 C24_2 1_555 1_555
O8_2 C24_2 1_555 1_555
O13_4 C25_4 1_555 1_555
C25_4 O14_4 1_555 1_555
Co5 O17_3 1_555 1_555
O17_3 C33_3 1_555 1_555
O26 C48_4 1_555 1_555
C33_3 O20_3 1_555 1_555
C35_4 C33_3 1_555 1_555
O22_4 C48_4 1_555 1_555
C37_4 C35_4 1_555 1_555
C38_4 C35_4 1_555 1_555
C39_4 C36_4 1_555 1_555
C40_4 C36_4 1_555 1_555
C41_4 C37_4 1_555 1_555
H13_3 C38_4 1_555 1_555
C42_4 C38_4 1_555 1_555
C43_4 C39_4 1_555 1_555
C44_4 C40_4 1_555 1_555
C45_4 C41_4 1_555 1_555
H15_4 C41_4 1_555 1_555
C47_4 C43_4 1_555 1_555
H16_4 C43_4 1_555 1_555
C48_4 C44_4 1_555 1_555
H17_4 C45_4 1_555 1_555
H18_4 C47_4 1_555 1_555
Co5_4 O13_4 1_555 1_555
C37_4 C39_4 1_555 1_555
C42_4 C45_4 1_555 1_555
C44_4 C47_4 1_555 1_555
Co5_4 O17_4 1_555 1_555
O17_4 C33_4 1_555 1_555
O18_5 Co5_4 1_555 1_555
O26_3 C48_5 1_555 1_555
C33_4 O20_4 1_555 1_555
C34_5 O18_5 1_555 1_555
C35_5 C33_4 1_555 1_555
O21_5 C34_5 1_555 1_555
C36_5 C34_5 1_555 1_555
O22_5 C48_5 1_555 1_555
C37_5 C35_5 1_555 1_555
C38_5 C35_5 1_555 1_555
C39_5 C36_5 1_555 1_555
C40_5 C36_5 1_555 1_555
C41_5 C37_5 1_555 1_555
H13_4 C38_5 1_555 1_555
C42_5 C38_5 1_555 1_555
C43_5 C39_5 1_555 1_555
H14_5 C40_5 1_555 1_555
C44_5 C40_5 1_555 1_555
C45_5 C41_5 1_555 1_555
H15_5 C41_5 1_555 1_555
C47_5 C43_5 1_555 1_555
H16_5 C43_5 1_555 1_555
C48_5 C44_5 1_555 1_555
H17_5 C45_5 1_555 1_555
H18_5 C47_5 1_555 1_555
C37_5 C39_5 1_555 1_555
C42_5 C45_5 1_555 1_555
C44_5 C47_5 1_555 1_555
O27_3 C24_3 1_555 1_555
O8_3 C24_3 1_555 1_555
O13_5 C25_5 1_555 1_555
C25_5 O14_5 1_555 1_555
Co5_3 O17_5 1_555 1_555
O17_5 C33_5 1_555 1_555
O18_6 Co5_3 1_555 1_555
O26_2 C48_6 1_555 1_555
C33_5 O20_5 1_555 1_555
C34_6 O18_6 1_555 1_555
C35_6 C33_5 1_555 1_555
O21_6 C34_6 1_555 1_555
C36_6 C34_6 1_555 1_555
O22_6 C48_6 1_555 1_555
C37_6 C35_6 1_555 1_555
C38_6 C35_6 1_555 1_555
C39_6 C36_6 1_555 1_555
C40_6 C36_6 1_555 1_555
C41_6 C37_6 1_555 1_555
H13_5 C38_6 1_555 1_555
C42_6 C38_6 1_555 1_555
C43_6 C39_6 1_555 1_555
H14_6 C40_6 1_555 1_555
C44_6 C40_6 1_555 1_555
C45_6 C41_6 1_555 1_555
H15_6 C41_6 1_555 1_555
C47_6 C43_6 1_555 1_555
H16_6 C43_6 1_555 1_555
C48_6 C44_6 1_555 1_555
H17_6 C45_6 1_555 1_555
H18_6 C47_6 1_555 1_555
Co5_2 O13_5 1_555 1_555
O25_3 Co5_3 1_555 1_555
C37_6 C39_6 1_555 1_555
C42_6 C45_6 1_555 1_555
C44_6 C47_6 1_555 1_555
O25_3 C1_4 1_555 1_555
C1_4 O5_4 1_555 1_555
Co5_2 O17_6 1_555 1_555
O17_6 C33_6 1_555 1_555
C33_6 O20_6 1_555 1_555
Co1_2 O1_2 1_555 1_555
O1_2 C1_5 1_555 1_555
O2_3 Co1_2 1_555 1_555
O3_3 Co1_2 1_555 1_555
C1_5 O5_5 1_555 1_555
C2_3 O2_3 1_555 1_555
C3_3 O3_3 1_555 1_555
C4_4 C1_5 1_555 1_555
O6_3 C2_3 1_555 1_555
C5_4 C2_3 1_555 1_555
O7_3 C3_3 1_555 1_555
C6_4 C3_3 1_555 1_555
C7_3 C4_4 1_555 1_555
C8_4 C4_4 1_555 1_555
C9_4 C5_4 1_555 1_555
C10_4 C5_4 1_555 1_555
C11_4 C6_4 1_555 1_555
C12_4 C6_4 1_555 1_555
O9_4 C22_4 1_555 1_555
O10_2 C20_3 1_555 1_555
O11_4 C22_4 1_555 1_555
H1_3 C7_3 1_555 1_555
C13_3 C7_3 1_555 1_555
C14_4 C8_4 1_555 1_555
H2_4 C8_4 1_555 1_555
C15_4 C9_4 1_555 1_555
H3_3 C10_4 1_555 1_555
C16_4 C10_4 1_555 1_555
C17_4 C11_4 1_555 1_555
H4_3 C12_4 1_555 1_555
C18_4 C12_4 1_555 1_555
C19_4 C13_3 1_555 1_555
C20_3 C13_3 1_555 1_555
H5_4 C14_4 1_555 1_555
C21_4 C15_4 1_555 1_555
H6_4 C15_4 1_555 1_555
C22_4 C16_4 1_555 1_555
C23_4 C17_4 1_555 1_555
H7_4 C17_4 1_555 1_555
O12_2 C20_3 1_555 1_555
H8_4 C21_4 1_555 1_555
H9_4 C23_4 1_555 1_555
Co2_2 O10_2 1_555 1_555
O13_6 C25_6 1_555 1_555
C25_6 O14_6 1_555 1_555
C26_4 C25_6 1_555 1_555
C27_3 C26_4 1_555 1_555
C28_4 C26_4 1_555 1_555
O15_3 C32_3 1_555 1_555
H10_3 C27_3 1_555 1_555
C29_3 C27_3 1_555 1_555
C30_4 C28_4 1_555 1_555
H11_4 C28_4 1_555 1_555
C31_4 C19_4 1_555 1_555
C32_3 C29_3 1_555 1_555
H12_4 C30_4 1_555 1_555
O16_3 C32_3 1_555 1_555
Co3_2 O17_7 1_555 1_555
O17_7 C33_7 1_555 1_555
O19_4 C48_7 1_555 1_555
C33_7 O20_7 1_555 1_555
C35_7 C33_7 1_555 1_555
O22_7 C48_7 1_555 1_555
C37_7 C35_7 1_555 1_555
C38_7 C35_7 1_555 1_555
C39_7 C36_7 1_555 1_555
C40_7 C36_7 1_555 1_555
O23_4 C46_4 1_555 1_555
O24_4 Co2_2 1_555 1_555
C41_7 C37_7 1_555 1_555
H13_7 C38_7 1_555 1_555
C42_7 C38_7 1_555 1_555
C43_7 C39_7 1_555 1_555
C44_7 C40_7 1_555 1_555
C45_7 C41_7 1_555 1_555
H15_7 C41_7 1_555 1_555
C46_4 O24_4 1_555 1_555
C47_7 C43_7 1_555 1_555
H16_7 C43_7 1_555 1_555
C48_7 C44_7 1_555 1_555
H17_7 C45_7 1_555 1_555
H18_7 C47_7 1_555 1_555
Co4_3 O13_6 1_555 1_555
O27_4 Co1_2 1_555 1_555
O28_2 Co2_2 1_555 1_555
O29_2 Co2_2 1_555 1_555
Co7_2 O15_3 1_555 1_555
C9_4 C11_4 1_555 1_555
O11_4 Co2_2 1_555 1_555
C14_4 C19_4 1_555 1_555
C16_4 C21_4 1_555 1_555
C18_4 C23_4 1_555 1_555
O12_2 Co2_2 1_555 1_555
C29_3 C31_4 1_555 1_555
C30_4 C31_4 1_555 1_555
O16_3 Co7_2 1_555 1_555
C37_7 C39_7 1_555 1_555
C42_7 C45_7 1_555 1_555
C42_7 C46_4 1_555 1_555
C44_7 C47_7 1_555 1_555
O28_2 C20_4 1_555 1_555
H1_4 C7_4 1_555 1_555
C13_4 C7_4 1_555 1_555
C20_4 C13_4 1_555 1_555
O29_2 C20_4 1_555 1_555
O15_4 C32_4 1_555 1_555
H10_4 C27_4 1_555 1_555
C29_4 C27_4 1_555 1_555
C32_4 C29_4 1_555 1_555
O16_4 C32_4 1_555 1_555
Co7_2 O15_4 1_555 1_555
O16_4 Co7_2 1_555 1_555
O2_4 Co4_4 1_555 1_555
C2_4 O2_4 1_555 1_555
O6_4 C2_4 1_555 1_555
Co4_3 O17_8 1_555 1_555
O17_8 C33_8 1_555 1_555
C33_8 O20_8 1_555 1_555
O26_4 Co4_3 1_555 1_555
C34_7 O18_7 1_555 1_555
O21_7 C34_7 1_555 1_555
O25_4 C1_6 1_555 1_555
C1_6 O5_6 1_555 1_555
O27_4 C24_4 1_555 1_555
O8_4 C24_4 1_555 1_555
O26_4 C48_8 1_555 1_555
C34_8 O18_8 1_555 1_555
O21_8 C34_8 1_555 1_555
C36_8 C34_8 1_555 1_555
O22_8 C48_8 1_555 1_555
C37_8 C35_8 1_555 1_555
C38_8 C35_8 1_555 1_555
C39_8 C36_8 1_555 1_555
C40_8 C36_8 1_555 1_555
C41_8 C37_8 1_555 1_555
C42_8 C38_8 1_555 1_555
C43_8 C39_8 1_555 1_555
H14_8 C40_8 1_555 1_555
C44_8 C40_8 1_555 1_555
C45_8 C41_8 1_555 1_555
H15_8 C41_8 1_555 1_555
C47_8 C43_8 1_555 1_555
H16_8 C43_8 1_555 1_555
C48_8 C44_8 1_555 1_555
H17_8 C45_8 1_555 1_555
H18_8 C47_8 1_555 1_555
C37_8 C39_8 1_555 1_555
C42_8 C45_8 1_555 1_555
C44_8 C47_8 1_555 1_555
O4 C24_5 1_555 1_555
O8_5 C24_5 1_555 1_555
Co6 O4 1_555 1_555
O4_2 C24_6 1_555 1_555
O8_6 C24_6 1_555 1_555
O13_7 C25_7 1_555 1_555
C25_7 O14_7 1_555 1_555
Co3_3 O17_9 1_555 1_555
O17_9 C33_9 1_555 1_555
O19_5 C48_9 1_555 1_555
C33_9 O20_9 1_555 1_555
C35_9 C33_9 1_555 1_555
O22_9 C48_9 1_555 1_555
C37_9 C35_9 1_555 1_555
C38_9 C35_9 1_555 1_555
C39_9 C36_9 1_555 1_555
C40_9 C36_9 1_555 1_555
C41_9 C37_9 1_555 1_555
H13_9 C38_9 1_555 1_555
C42_9 C38_9 1_555 1_555
C43_9 C39_9 1_555 1_555
C44_9 C40_9 1_555 1_555
C45_9 C41_9 1_555 1_555
H15_9 C41_9 1_555 1_555
C47_9 C43_9 1_555 1_555
H16_9 C43_9 1_555 1_555
C48_9 C44_9 1_555 1_555
H17_9 C45_9 1_555 1_555
H18_9 C47_9 1_555 1_555
Co4_5 O13_7 1_555 1_555
C37_9 C39_9 1_555 1_555
C42_9 C45_9 1_555 1_555
C44_9 C47_9 1_555 1_555
Co4_5 O17_10 1_555 1_555
O17_10 C33_10 1_555 1_555
O18_9 Co4_5 1_555 1_555
O19_6 C48_10 1_555 1_555
C33_10 O20_10 1_555 1_555
C34_9 O18_9 1_555 1_555
C35_10 C33_10 1_555 1_555
O21_9 C34_9 1_555 1_555
C36_10 C34_9 1_555 1_555
O22_10 C48_10 1_555 1_555
C37_10 C35_10 1_555 1_555
C38_10 C35_10 1_555 1_555
C39_10 C36_10 1_555 1_555
C40_10 C36_10 1_555 1_555
C41_10 C37_10 1_555 1_555
H13_10 C38_10 1_555 1_555
C42_10 C38_10 1_555 1_555
C43_10 C39_10 1_555 1_555
H14_9 C40_10 1_555 1_555
C44_10 C40_10 1_555 1_555
C45_10 C41_10 1_555 1_555
H15_10 C41_10 1_555 1_555
C47_10 C43_10 1_555 1_555
H16_10 C43_10 1_555 1_555
C48_10 C44_10 1_555 1_555
H17_10 C45_10 1_555 1_555
H18_10 C47_10 1_555 1_555
Co5_5 O19_6 1_555 1_555
O26_5 Co4_5 1_555 1_555
C37_10 C39_10 1_555 1_555
C42_10 C45_10 1_555 1_555
C44_10 C47_10 1_555 1_555
O4_3 C24_7 1_555 1_555
O8_7 C24_7 1_555 1_555
Co6_2 O4_3 1_555 1_555
O13_8 C25_8 1_555 1_555
C25_8 O14_8 1_555 1_555
Co3_4 O17_11 1_555 1_555
O17_11 C33_11 1_555 1_555
O18_10 Co3_4 1_555 1_555
O19_7 C48_11 1_555 1_555
C33_11 O20_11 1_555 1_555
C34_10 O18_10 1_555 1_555
C35_11 C33_11 1_555 1_555
O21_10 C34_10 1_555 1_555
C36_11 C34_10 1_555 1_555
O22_11 C48_11 1_555 1_555
C37_11 C35_11 1_555 1_555
C38_11 C35_11 1_555 1_555
C39_11 C36_11 1_555 1_555
C40_11 C36_11 1_555 1_555
C41_11 C37_11 1_555 1_555
H13_11 C38_11 1_555 1_555
C42_11 C38_11 1_555 1_555
C43_11 C39_11 1_555 1_555
H14_10 C40_11 1_555 1_555
C44_11 C40_11 1_555 1_555
C45_11 C41_11 1_555 1_555
H15_11 C41_11 1_555 1_555
C47_11 C43_11 1_555 1_555
H16_11 C43_11 1_555 1_555
C48_11 C44_11 1_555 1_555
H17_11 C45_11 1_555 1_555
H18_11 C47_11 1_555 1_555
Co4_6 O13_8 1_555 1_555
Co5_6 O19_7 1_555 1_555
O25_5 Co3_4 1_555 1_555
O26_6 Co3_4 1_555 1_555
C37_11 C39_11 1_555 1_555
C42_11 C45_11 1_555 1_555
C44_11 C47_11 1_555 1_555
O25_5 C1_7 1_555 1_555
C1_7 O5_7 1_555 1_555
Co4_6 O17_12 1_555 1_555
O17_12 C33_12 1_555 1_555
C33_12 O20_12 1_555 1_555
O26_7 Co4_6 1_555 1_555
C34_11 O18_11 1_555 1_555
O21_11 C34_11 1_555 1_555
O25_6 C1_8 1_555 1_555
C1_8 O5_8 1_555 1_555
C4_5 C1_8 1_555 1_555
C8_5 C4_5 1_555 1_555
C14_5 C8_5 1_555 1_555
H2_5 C8_5 1_555 1_555
H5_5 C14_5 1_555 1_555
O13_9 C25_9 1_555 1_555
C25_9 O14_9 1_555 1_555
C26_5 C25_9 1_555 1_555
C28_5 C26_5 1_555 1_555
C30_5 C28_5 1_555 1_555
H11_5 C28_5 1_555 1_555
C31_5 C19_5 1_555 1_555
H12_5 C30_5 1_555 1_555
C14_5 C19_5 1_555 1_555
C30_5 C31_5 1_555 1_555
C9_5 C5_5 1_555 1_555
C10_5 C5_5 1_555 1_555
C11_5 C6_5 1_555 1_555
C12_5 C6_5 1_555 1_555
O9_5 C22_5 1_555 1_555
O11_5 C22_5 1_555 1_555
C15_5 C9_5 1_555 1_555
C16_5 C10_5 1_555 1_555
C17_5 C11_5 1_555 1_555
C18_5 C12_5 1_555 1_555
C21_5 C15_5 1_555 1_555
H6_5 C15_5 1_555 1_555
C22_5 C16_5 1_555 1_555
C23_5 C17_5 1_555 1_555
H7_5 C17_5 1_555 1_555
H8_5 C21_5 1_555 1_555
H9_5 C23_5 1_555 1_555
O26_7 C48_12 1_555 1_555
C34_12 O18_12 1_555 1_555
O21_12 C34_12 1_555 1_555
C36_12 C34_12 1_555 1_555
O22_12 C48_12 1_555 1_555
C37_12 C35_12 1_555 1_555
C38_12 C35_12 1_555 1_555
C39_12 C36_12 1_555 1_555
C40_12 C36_12 1_555 1_555
O23_5 C46_5 1_555 1_555
C41_12 C37_12 1_555 1_555
C42_12 C38_12 1_555 1_555
C43_12 C39_12 1_555 1_555
H14_12 C40_12 1_555 1_555
C44_12 C40_12 1_555 1_555
C45_12 C41_12 1_555 1_555
H15_12 C41_12 1_555 1_555
C46_5 O24_5 1_555 1_555
C47_12 C43_12 1_555 1_555
H16_12 C43_12 1_555 1_555
C48_12 C44_12 1_555 1_555
H17_12 C45_12 1_555 1_555
H18_12 C47_12 1_555 1_555
C9_5 C11_5 1_555 1_555
C16_5 C21_5 1_555 1_555
C18_5 C23_5 1_555 1_555
C37_12 C39_12 1_555 1_555
C42_12 C45_12 1_555 1_555
C42_12 C46_5 1_555 1_555
C44_12 C47_12 1_555 1_555
Co6 O1_3 1_555 1_555
O1_3 C1_9 1_555 1_555
O2_5 Co6 1_555 1_555
O3_4 Co6 1_555 1_555
C1_9 O5_9 1_555 1_555
C2_5 O2_5 1_555 1_555
C3_4 O3_4 1_555 1_555
C4_6 C1_9 1_555 1_555
O6_5 C2_5 1_555 1_555
C5_6 C2_5 1_555 1_555
O7_4 C3_4 1_555 1_555
C6_6 C3_4 1_555 1_555
C7_5 C4_6 1_555 1_555
C8_6 C4_6 1_555 1_555
C9_6 C5_6 1_555 1_555
C10_6 C5_6 1_555 1_555
C11_6 C6_6 1_555 1_555
C12_6 C6_6 1_555 1_555
O9_6 C22_6 1_555 1_555
O10_3 C20_5 1_555 1_555
O11_6 C22_6 1_555 1_555
H1_5 C7_5 1_555 1_555
C13_5 C7_5 1_555 1_555
C14_6 C8_6 1_555 1_555
H2_6 C8_6 1_555 1_555
C15_6 C9_6 1_555 1_555
H3_5 C10_6 1_555 1_555
C16_6 C10_6 1_555 1_555
C17_6 C11_6 1_555 1_555
H4_4 C12_6 1_555 1_555
C18_6 C12_6 1_555 1_555
C19_6 C13_5 1_555 1_555
C20_5 C13_5 1_555 1_555
H5_6 C14_6 1_555 1_555
C21_6 C15_6 1_555 1_555
H6_6 C15_6 1_555 1_555
C22_6 C16_6 1_555 1_555
C23_6 C17_6 1_555 1_555
H7_6 C17_6 1_555 1_555
O12_3 C20_5 1_555 1_555
H8_6 C21_6 1_555 1_555
H9_6 C23_6 1_555 1_555
Co2_3 O10_3 1_555 1_555
O13_10 C25_10 1_555 1_555
C25_10 O14_10 1_555 1_555
C26_6 C25_10 1_555 1_555
C27_5 C26_6 1_555 1_555
C28_6 C26_6 1_555 1_555
O15_5 C32_5 1_555 1_555
H10_5 C27_5 1_555 1_555
C29_5 C27_5 1_555 1_555
C30_6 C28_6 1_555 1_555
H11_6 C28_6 1_555 1_555
C31_6 C19_6 1_555 1_555
C32_5 C29_5 1_555 1_555
H12_6 C30_6 1_555 1_555
O16_5 C32_5 1_555 1_555
Co5_6 O17_13 1_555 1_555
O17_13 C33_13 1_555 1_555
O18_13 Co5_6 1_555 1_555
O26_6 C48_13 1_555 1_555
C33_13 O20_13 1_555 1_555
C34_13 O18_13 1_555 1_555
C35_13 C33_13 1_555 1_555
O21_13 C34_13 1_555 1_555
C36_13 C34_13 1_555 1_555
O22_13 C48_13 1_555 1_555
C37_13 C35_13 1_555 1_555
C38_13 C35_13 1_555 1_555
C39_13 C36_13 1_555 1_555
C40_13 C36_13 1_555 1_555
O23_6 C46_6 1_555 1_555
O24_6 Co2_3 1_555 1_555
C41_13 C37_13 1_555 1_555
H13_13 C38_13 1_555 1_555
C42_13 C38_13 1_555 1_555
C43_13 C39_13 1_555 1_555
H14_13 C40_13 1_555 1_555
C44_13 C40_13 1_555 1_555
C45_13 C41_13 1_555 1_555
H15_13 C41_13 1_555 1_555
C46_6 O24_6 1_555 1_555
C47_13 C43_13 1_555 1_555
H16_13 C43_13 1_555 1_555
C48_13 C44_13 1_555 1_555
H17_13 C45_13 1_555 1_555
H18_13 C47_13 1_555 1_555
Co5_5 O13_10 1_555 1_555
O25_7 Co5_6 1_555 1_555
O28_3 Co2_3 1_555 1_555
O29_3 Co2_3 1_555 1_555
Co7_3 O15_5 1_555 1_555
C9_6 C11_6 1_555 1_555
O11_6 Co2_3 1_555 1_555
C14_6 C19_6 1_555 1_555
C16_6 C21_6 1_555 1_555
C18_6 C23_6 1_555 1_555
O12_3 Co2_3 1_555 1_555
C29_5 C31_6 1_555 1_555
C30_6 C31_6 1_555 1_555
O16_5 Co7_3 1_555 1_555
C37_13 C39_13 1_555 1_555
C42_13 C45_13 1_555 1_555
C42_13 C46_6 1_555 1_555
C44_13 C47_13 1_555 1_555
O25_7 C1_10 1_555 1_555
C1_10 O5_10 1_555 1_555
C4_7 C1_10 1_555 1_555
C7_6 C4_7 1_555 1_555
C8_7 C4_7 1_555 1_555
O28_3 C20_6 1_555 1_555
H1_6 C7_6 1_555 1_555
C13_6 C7_6 1_555 1_555
C14_7 C8_7 1_555 1_555
H2_7 C8_7 1_555 1_555
C19_7 C13_6 1_555 1_555
C20_6 C13_6 1_555 1_555
H5_7 C14_7 1_555 1_555
O29_3 C20_6 1_555 1_555
O13_11 C25_11 1_555 1_555
C25_11 O14_11 1_555 1_555
C26_7 C25_11 1_555 1_555
C27_6 C26_7 1_555 1_555
C28_7 C26_7 1_555 1_555
O15_6 C32_6 1_555 1_555
H10_6 C27_6 1_555 1_555
C29_6 C27_6 1_555 1_555
C30_7 C28_7 1_555 1_555
H11_7 C28_7 1_555 1_555
C31_7 C19_7 1_555 1_555
C32_6 C29_6 1_555 1_555
H12_7 C30_7 1_555 1_555
O16_6 C32_6 1_555 1_555
Co6_2 O13_11 1_555 1_555
Co7_3 O15_6 1_555 1_555
C14_7 C19_7 1_555 1_555
C29_6 C31_7 1_555 1_555
C30_7 C31_7 1_555 1_555
O16_6 Co7_3 1_555 1_555
O2_6 Co6_2 1_555 1_555
O3_5 Co6_2 1_555 1_555
C2_6 O2_6 1_555 1_555
C3_5 O3_5 1_555 1_555
O6_6 C2_6 1_555 1_555
C5_7 C2_6 1_555 1_555
O7_5 C3_5 1_555 1_555
C6_7 C3_5 1_555 1_555
C9_7 C5_7 1_555 1_555
C10_7 C5_7 1_555 1_555
C11_7 C6_7 1_555 1_555
C12_7 C6_7 1_555 1_555
O9_7 C22_7 1_555 1_555
O11_7 C22_7 1_555 1_555
C15_7 C9_7 1_555 1_555
H3_6 C10_7 1_555 1_555
C16_7 C10_7 1_555 1_555
C17_7 C11_7 1_555 1_555
H4_5 C12_7 1_555 1_555
C18_7 C12_7 1_555 1_555
C21_7 C15_7 1_555 1_555
H6_7 C15_7 1_555 1_555
C22_7 C16_7 1_555 1_555
C23_7 C17_7 1_555 1_555
H7_7 C17_7 1_555 1_555
H8_7 C21_7 1_555 1_555
H9_7 C23_7 1_555 1_555
Co5_5 O17_14 1_555 1_555
O17_14 C33_14 1_555 1_555
O18_14 Co5_5 1_555 1_555
O26_5 C48_14 1_555 1_555
C33_14 O20_14 1_555 1_555
C34_14 O18_14 1_555 1_555
C35_14 C33_14 1_555 1_555
O21_14 C34_14 1_555 1_555
C36_14 C34_14 1_555 1_555
O22_14 C48_14 1_555 1_555
C37_14 C35_14 1_555 1_555
C38_14 C35_14 1_555 1_555
C39_14 C36_14 1_555 1_555
C40_14 C36_14 1_555 1_555
O23_7 C46_7 1_555 1_555
O24_7 Co7_3 1_555 1_555
C41_14 C37_14 1_555 1_555
H13_14 C38_14 1_555 1_555
C42_14 C38_14 1_555 1_555
C43_14 C39_14 1_555 1_555
H14_14 C40_14 1_555 1_555
C44_14 C40_14 1_555 1_555
C45_14 C41_14 1_555 1_555
H15_14 C41_14 1_555 1_555
C46_7 O24_7 1_555 1_555
C47_14 C43_14 1_555 1_555
H16_14 C43_14 1_555 1_555
C48_14 C44_14 1_555 1_555
H17_14 C45_14 1_555 1_555
H18_14 C47_14 1_555 1_555
C9_7 C11_7 1_555 1_555
O11_7 Co7_3 1_555 1_555
C16_7 C21_7 1_555 1_555
C18_7 C23_7 1_555 1_555
C37_14 C39_14 1_555 1_555
C42_14 C45_14 1_555 1_555
C42_14 C46_7 1_555 1_555
C44_14 C47_14 1_555 1_555
C3_6 O3_6 1_555 1_555
O7_6 C3_6 1_555 1_555
C34_15 O18_15 1_555 1_555
O21_15 C34_15 1_555 1_555
O25_8 C1_11 1_555 1_555
C1_11 O5_11 1_555 1_555
O4_4 C24_8 1_555 1_555
O8_8 C24_8 1_555 1_555
Co6_4 O4_4 1_555 1_555
O19_8 C48_15 1_555 1_555
C34_16 O18_16 1_555 1_555
O21_16 C34_16 1_555 1_555
C36_15 C34_16 1_555 1_555
O22_15 C48_15 1_555 1_555
C37_15 C35_15 1_555 1_555
C38_15 C35_15 1_555 1_555
C39_15 C36_15 1_555 1_555
C40_15 C36_15 1_555 1_555
C41_15 C37_15 1_555 1_555
C42_15 C38_15 1_555 1_555
C43_15 C39_15 1_555 1_555
H14_16 C40_15 1_555 1_555
C44_15 C40_15 1_555 1_555
C45_15 C41_15 1_555 1_555
H15_15 C41_15 1_555 1_555
C47_15 C43_15 1_555 1_555
H16_15 C43_15 1_555 1_555
C48_15 C44_15 1_555 1_555
H17_15 C45_15 1_555 1_555
H18_15 C47_15 1_555 1_555
Co5_8 O19_8 1_555 1_555
C37_15 C39_15 1_555 1_555
C42_15 C45_15 1_555 1_555
C44_15 C47_15 1_555 1_555
Co6_4 O1_4 1_555 1_555
O1_4 C1_12 1_555 1_555
O2_7 Co6_4 1_555 1_555
O3_7 Co6_4 1_555 1_555
C1_12 O5_12 1_555 1_555
C2_7 O2_7 1_555 1_555
C3_7 O3_7 1_555 1_555
C4_8 C1_12 1_555 1_555
O6_7 C2_7 1_555 1_555
C5_8 C2_7 1_555 1_555
O7_7 C3_7 1_555 1_555
C6_8 C3_7 1_555 1_555
C7_7 C4_8 1_555 1_555
C8_8 C4_8 1_555 1_555
C9_8 C5_8 1_555 1_555
C10_8 C5_8 1_555 1_555
C11_8 C6_8 1_555 1_555
C12_8 C6_8 1_555 1_555
O9_8 C22_8 1_555 1_555
O10_4 C20_7 1_555 1_555
O11_8 C22_8 1_555 1_555
H1_7 C7_7 1_555 1_555
C13_7 C7_7 1_555 1_555
C14_8 C8_8 1_555 1_555
H2_8 C8_8 1_555 1_555
C15_8 C9_8 1_555 1_555
H3_7 C10_8 1_555 1_555
C16_8 C10_8 1_555 1_555
C17_8 C11_8 1_555 1_555
H4_7 C12_8 1_555 1_555
C18_8 C12_8 1_555 1_555
C19_8 C13_7 1_555 1_555
C20_7 C13_7 1_555 1_555
H5_8 C14_8 1_555 1_555
C21_8 C15_8 1_555 1_555
H6_8 C15_8 1_555 1_555
C22_8 C16_8 1_555 1_555
C23_8 C17_8 1_555 1_555
H7_8 C17_8 1_555 1_555
O12_4 C20_7 1_555 1_555
H8_8 C21_8 1_555 1_555
H9_8 C23_8 1_555 1_555
Co2_4 O10_4 1_555 1_555
O13_12 C25_12 1_555 1_555
C25_12 O14_12 1_555 1_555
C26_8 C25_12 1_555 1_555
C27_7 C26_8 1_555 1_555
C28_8 C26_8 1_555 1_555
O15_7 C32_7 1_555 1_555
H10_7 C27_7 1_555 1_555
C29_7 C27_7 1_555 1_555
C30_8 C28_8 1_555 1_555
H11_8 C28_8 1_555 1_555
C31_8 C19_8 1_555 1_555
C32_7 C29_7 1_555 1_555
H12_8 C30_8 1_555 1_555
O16_7 C32_7 1_555 1_555
Co5_7 O17_15 1_555 1_555
O17_15 C33_15 1_555 1_555
O26_8 C48_16 1_555 1_555
C33_15 O20_15 1_555 1_555
C35_16 C33_15 1_555 1_555
O22_16 C48_16 1_555 1_555
C37_16 C35_16 1_555 1_555
C38_16 C35_16 1_555 1_555
C39_16 C36_16 1_555 1_555
C40_16 C36_16 1_555 1_555
O23_8 C46_8 1_555 1_555
O24_8 Co2_4 1_555 1_555
C41_16 C37_16 1_555 1_555
H13_15 C38_16 1_555 1_555
C42_16 C38_16 1_555 1_555
C43_16 C39_16 1_555 1_555
C44_16 C40_16 1_555 1_555
C45_16 C41_16 1_555 1_555
H15_16 C41_16 1_555 1_555
C46_8 O24_8 1_555 1_555
C47_16 C43_16 1_555 1_555
H16_16 C43_16 1_555 1_555
C48_16 C44_16 1_555 1_555
H17_16 C45_16 1_555 1_555
H18_16 C47_16 1_555 1_555
Co5_8 O13_12 1_555 1_555
O28_4 Co2_4 1_555 1_555
O29_4 Co2_4 1_555 1_555
Co7_4 O15_7 1_555 1_555
C9_8 C11_8 1_555 1_555
O11_8 Co2_4 1_555 1_555
C14_8 C19_8 1_555 1_555
C16_8 C21_8 1_555 1_555
C18_8 C23_8 1_555 1_555
O12_4 Co2_4 1_555 1_555
C29_7 C31_8 1_555 1_555
C30_8 C31_8 1_555 1_555
O16_7 Co7_4 1_555 1_555
C37_16 C39_16 1_555 1_555
C42_16 C45_16 1_555 1_555
C42_16 C46_8 1_555 1_555
C44_16 C47_16 1_555 1_555
O28_4 C20_8 1_555 1_555
H1_8 C7_8 1_555 1_555
C13_8 C7_8 1_555 1_555
C20_8 C13_8 1_555 1_555
O29_4 C20_8 1_555 1_555
O15_8 C32_8 1_555 1_555
H10_8 C27_8 1_555 1_555
C29_8 C27_8 1_555 1_555
C32_8 C29_8 1_555 1_555
O16_8 C32_8 1_555 1_555
Co7_4 O15_8 1_555 1_555
O16_8 Co7_4 1_555 1_555
O2_8 Co6_3 1_555 1_555
C2_8 O2_8 1_555 1_555
O6_8 C2_8 1_555 1_555
Co5_8 O17_16 1_555 1_555
O17_16 C33_16 1_555 1_555
C33_16 O20_16 1_555 1_555
Co1_3 O1_5 1_555 1_555
O1_5 C1_13 1_555 1_555
O2_9 Co1_3 1_555 1_555
O3_8 Co1_3 1_555 1_555
O4_5 C24_9 1_555 1_555
C1_13 O5_13 1_555 1_555
C2_9 O2_9 1_555 1_555
C3_8 O3_8 1_555 1_555
C4_9 C1_13 1_555 1_555
O6_9 C2_9 1_555 1_555
C5_9 C2_9 1_555 1_555
O7_8 C3_8 1_555 1_555
C6_9 C3_8 1_555 1_555
O8_9 C24_9 1_555 1_555
C7_9 C4_9 1_555 1_555
C8_9 C4_9 1_555 1_555
C9_9 C5_9 1_555 1_555
C10_9 C5_9 1_555 1_555
C11_9 C6_9 1_555 1_555
C12_9 C6_9 1_555 1_555
O9_9 C22_9 1_555 1_555
O10_5 C20_9 1_555 1_555
O11_9 C22_9 1_555 1_555
H1_9 C7_9 1_555 1_555
C13_9 C7_9 1_555 1_555
C14_9 C8_9 1_555 1_555
H2_9 C8_9 1_555 1_555
C15_9 C9_9 1_555 1_555
H3_9 C10_9 1_555 1_555
C16_9 C10_9 1_555 1_555
C17_9 C11_9 1_555 1_555
H4_8 C12_9 1_555 1_555
C18_9 C12_9 1_555 1_555
C19_9 C13_9 1_555 1_555
C20_9 C13_9 1_555 1_555
H5_9 C14_9 1_555 1_555
C21_9 C15_9 1_555 1_555
H6_9 C15_9 1_555 1_555
C22_9 C16_9 1_555 1_555
C23_9 C17_9 1_555 1_555
H7_9 C17_9 1_555 1_555
C24_9 C18_9 1_555 1_555
O12_5 C20_9 1_555 1_555
H8_9 C21_9 1_555 1_555
H9_9 C23_9 1_555 1_555
Co2_5 O10_5 1_555 1_555
C27_9 C26_9 1_555 1_555
C28_9 C26_9 1_555 1_555
O15_9 C32_9 1_555 1_555
H10_9 C27_9 1_555 1_555
C29_9 C27_9 1_555 1_555
C30_9 C28_9 1_555 1_555
H11_9 C28_9 1_555 1_555
C31_9 C19_9 1_555 1_555
C32_9 C29_9 1_555 1_555
H12_9 C30_9 1_555 1_555
O16_9 C32_9 1_555 1_555
O23_9 C46_9 1_555 1_555
O24_9 Co2_5 1_555 1_555
C46_9 O24_9 1_555 1_555
Co6_5 O4_5 1_555 1_555
O27_5 Co1_3 1_555 1_555
O28_5 Co2_5 1_555 1_555
O29_5 Co2_5 1_555 1_555
Co7_5 O15_9 1_555 1_555
C9_9 C11_9 1_555 1_555
O11_9 Co2_5 1_555 1_555
C14_9 C19_9 1_555 1_555
C16_9 C21_9 1_555 1_555
C18_9 C23_9 1_555 1_555
O12_5 Co2_5 1_555 1_555
C29_9 C31_9 1_555 1_555
C30_9 C31_9 1_555 1_555
O16_9 Co7_5 1_555 1_555
O28_5 C20_10 1_555 1_555
H1_10 C7_10 1_555 1_555
C13_10 C7_10 1_555 1_555
C20_10 C13_10 1_555 1_555
O29_5 C20_10 1_555 1_555
O15_10 C32_10 1_555 1_555
H10_10 C27_10 1_555 1_555
C29_10 C27_10 1_555 1_555
C32_10 C29_10 1_555 1_555
O16_10 C32_10 1_555 1_555
Co7_5 O15_10 1_555 1_555
O16_10 Co7_5 1_555 1_555
O2_10 Co4_7 1_555 1_555
O4_6 C24_10 1_555 1_555
C2_10 O2_10 1_555 1_555
O6_10 C2_10 1_555 1_555
C5_10 C2_10 1_555 1_555
O8_10 C24_10 1_555 1_555
C9_10 C5_10 1_555 1_555
C10_10 C5_10 1_555 1_555
C11_10 C6_10 1_555 1_555
C12_10 C6_10 1_555 1_555
O9_10 C22_10 1_555 1_555
O11_10 C22_10 1_555 1_555
C15_10 C9_10 1_555 1_555
H3_10 C10_10 1_555 1_555
C16_10 C10_10 1_555 1_555
C17_10 C11_10 1_555 1_555
C18_10 C12_10 1_555 1_555
C21_10 C15_10 1_555 1_555
H6_10 C15_10 1_555 1_555
C22_10 C16_10 1_555 1_555
C23_10 C17_10 1_555 1_555
H7_10 C17_10 1_555 1_555
C24_10 C18_10 1_555 1_555
H8_10 C21_10 1_555 1_555
H9_10 C23_10 1_555 1_555
O23_10 C46_10 1_555 1_555
O24_10 Co7_5 1_555 1_555
C46_10 O24_10 1_555 1_555
C9_10 C11_10 1_555 1_555
O11_10 Co7_5 1_555 1_555
C16_10 C21_10 1_555 1_555
C18_10 C23_10 1_555 1_555
O4_7 C24_11 1_555 1_555
C3_9 O3_9 1_555 1_555
O7_9 C3_9 1_555 1_555
C6_11 C3_9 1_555 1_555
O8_11 C24_11 1_555 1_555
C9_11 C5_11 1_555 1_555
C10_11 C5_11 1_555 1_555
C11_11 C6_11 1_555 1_555
C12_11 C6_11 1_555 1_555
O9_11 C22_11 1_555 1_555
O11_11 C22_11 1_555 1_555
C15_11 C9_11 1_555 1_555
C16_11 C10_11 1_555 1_555
C17_11 C11_11 1_555 1_555
H4_9 C12_11 1_555 1_555
C18_11 C12_11 1_555 1_555
C21_11 C15_11 1_555 1_555
H6_11 C15_11 1_555 1_555
C22_11 C16_11 1_555 1_555
C23_11 C17_11 1_555 1_555
H7_11 C17_11 1_555 1_555
C24_11 C18_11 1_555 1_555
H8_11 C21_11 1_555 1_555
H9_11 C23_11 1_555 1_555
O23_11 C46_11 1_555 1_555
C46_11 O24_11 1_555 1_555
Co6_6 O4_7 1_555 1_555
C9_11 C11_11 1_555 1_555
C16_11 C21_11 1_555 1_555
C18_11 C23_11 1_555 1_555
C8_10 C4_10 1_555 1_555
C14_10 C8_10 1_555 1_555
H2_10 C8_10 1_555 1_555
H5_10 C14_10 1_555 1_555
O13_13 C25_13 1_555 1_555
C25_13 O14_13 1_555 1_555
C26_10 C25_13 1_555 1_555
C28_10 C26_10 1_555 1_555
C30_10 C28_10 1_555 1_555
H11_10 C28_10 1_555 1_555
C31_10 C19_10 1_555 1_555
H12_10 C30_10 1_555 1_555
C14_10 C19_10 1_555 1_555
C30_10 C31_10 1_555 1_555
C3_10 O3_10 1_555 1_555
O7_10 C3_10 1_555 1_555
Co6_5 O1_6 1_555 1_555
O1_6 C1_14 1_555 1_555
O2_11 Co6_5 1_555 1_555
O3_11 Co6_5 1_555 1_555
O27_5 C24_12 1_555 1_555
C1_14 O5_14 1_555 1_555
C2_11 O2_11 1_555 1_555
C3_11 O3_11 1_555 1_555
C4_11 C1_14 1_555 1_555
O6_11 C2_11 1_555 1_555
C5_12 C2_11 1_555 1_555
O7_11 C3_11 1_555 1_555
C6_12 C3_11 1_555 1_555
O8_12 C24_12 1_555 1_555
C7_11 C4_11 1_555 1_555
C8_11 C4_11 1_555 1_555
C9_12 C5_12 1_555 1_555
C10_12 C5_12 1_555 1_555
C11_12 C6_12 1_555 1_555
C12_12 C6_12 1_555 1_555
O9_12 C22_12 1_555 1_555
O10_6 C20_11 1_555 1_555
O11_12 C22_12 1_555 1_555
H1_11 C7_11 1_555 1_555
C13_11 C7_11 1_555 1_555
C14_11 C8_11 1_555 1_555
H2_11 C8_11 1_555 1_555
C15_12 C9_12 1_555 1_555
H3_11 C10_12 1_555 1_555
C16_12 C10_12 1_555 1_555
C17_12 C11_12 1_555 1_555
H4_11 C12_12 1_555 1_555
C18_12 C12_12 1_555 1_555
C19_11 C13_11 1_555 1_555
C20_11 C13_11 1_555 1_555
H5_11 C14_11 1_555 1_555
C21_12 C15_12 1_555 1_555
H6_12 C15_12 1_555 1_555
C22_12 C16_12 1_555 1_555
C23_12 C17_12 1_555 1_555
H7_12 C17_12 1_555 1_555
C24_12 C18_12 1_555 1_555
O12_6 C20_11 1_555 1_555
H8_12 C21_12 1_555 1_555
H9_12 C23_12 1_555 1_555
Co2_6 O10_6 1_555 1_555
C27_11 C26_11 1_555 1_555
C28_11 C26_11 1_555 1_555
O15_11 C32_11 1_555 1_555
H10_11 C27_11 1_555 1_555
C29_11 C27_11 1_555 1_555
C30_11 C28_11 1_555 1_555
H11_11 C28_11 1_555 1_555
C31_11 C19_11 1_555 1_555
C32_11 C29_11 1_555 1_555
H12_11 C30_11 1_555 1_555
O16_11 C32_11 1_555 1_555
O23_12 C46_12 1_555 1_555
O24_12 Co2_6 1_555 1_555
C46_12 O24_12 1_555 1_555
O28_6 Co2_6 1_555 1_555
O29_6 Co2_6 1_555 1_555
Co7_6 O15_11 1_555 1_555
C9_12 C11_12 1_555 1_555
O11_12 Co2_6 1_555 1_555
C14_11 C19_11 1_555 1_555
C16_12 C21_12 1_555 1_555
C18_12 C23_12 1_555 1_555
O12_6 Co2_6 1_555 1_555
C29_11 C31_11 1_555 1_555
C30_11 C31_11 1_555 1_555
O16_11 Co7_6 1_555 1_555
C7_12 C4_12 1_555 1_555
C8_12 C4_12 1_555 1_555
O28_6 C20_12 1_555 1_555
H1_12 C7_12 1_555 1_555
C13_12 C7_12 1_555 1_555
C14_12 C8_12 1_555 1_555
H2_12 C8_12 1_555 1_555
C19_12 C13_12 1_555 1_555
C20_12 C13_12 1_555 1_555
H5_12 C14_12 1_555 1_555
O29_6 C20_12 1_555 1_555
O13_14 C25_14 1_555 1_555
C25_14 O14_14 1_555 1_555
C26_12 C25_14 1_555 1_555
C27_12 C26_12 1_555 1_555
C28_12 C26_12 1_555 1_555
O15_12 C32_12 1_555 1_555
H10_12 C27_12 1_555 1_555
C29_12 C27_12 1_555 1_555
C30_12 C28_12 1_555 1_555
H11_12 C28_12 1_555 1_555
C31_12 C19_12 1_555 1_555
C32_12 C29_12 1_555 1_555
H12_12 C30_12 1_555 1_555
O16_12 C32_12 1_555 1_555
Co6_6 O13_14 1_555 1_555
Co7_6 O15_12 1_555 1_555
C14_12 C19_12 1_555 1_555
C29_12 C31_12 1_555 1_555
C30_12 C31_12 1_555 1_555
O16_12 Co7_6 1_555 1_555
O2_12 Co6_6 1_555 1_555
C2_12 O2_12 1_555 1_555
O6_12 C2_12 1_555 1_555
C8_13 C4_13 1_555 1_555
C14_13 C8_13 1_555 1_555
H2_13 C8_13 1_555 1_555
H5_13 C14_13 1_555 1_555
O13_15 C25_15 1_555 1_555
C25_15 O14_15 1_555 1_555
C26_13 C25_15 1_555 1_555
C28_13 C26_13 1_555 1_555
C30_13 C28_13 1_555 1_555
H11_13 C28_13 1_555 1_555
C31_13 C19_13 1_555 1_555
H12_13 C30_13 1_555 1_555
C14_13 C19_13 1_555 1_555
C30_13 C31_13 1_555 1_555
C3_12 O3_12 1_555 1_555
O7_12 C3_12 1_555 1_555
Co1_4 O1_7 1_555 1_555
O1_7 C1_15 1_555 1_555
O2_13 Co1_4 1_555 1_555
O3_13 Co1_4 1_555 1_555
O4_8 C24_13 1_555 1_555
C1_15 O5_15 1_555 1_555
C2_13 O2_13 1_555 1_555
C3_13 O3_13 1_555 1_555
C4_14 C1_15 1_555 1_555
O6_13 C2_13 1_555 1_555
C5_13 C2_13 1_555 1_555
O7_13 C3_13 1_555 1_555
C6_13 C3_13 1_555 1_555
O8_13 C24_13 1_555 1_555
C7_13 C4_14 1_555 1_555
C8_14 C4_14 1_555 1_555
C9_13 C5_13 1_555 1_555
C10_13 C5_13 1_555 1_555
C11_13 C6_13 1_555 1_555
C12_13 C6_13 1_555 1_555
O9_13 C22_13 1_555 1_555
O10_7 C20_13 1_555 1_555
O11_13 C22_13 1_555 1_555
H1_13 C7_13 1_555 1_555
C13_13 C7_13 1_555 1_555
C14_14 C8_14 1_555 1_555
H2_14 C8_14 1_555 1_555
C15_13 C9_13 1_555 1_555
H3_13 C10_13 1_555 1_555
C16_13 C10_13 1_555 1_555
C17_13 C11_13 1_555 1_555
H4_13 C12_13 1_555 1_555
C18_13 C12_13 1_555 1_555
C19_14 C13_13 1_555 1_555
C20_13 C13_13 1_555 1_555
H5_14 C14_14 1_555 1_555
C21_13 C15_13 1_555 1_555
H6_13 C15_13 1_555 1_555
C22_13 C16_13 1_555 1_555
C23_13 C17_13 1_555 1_555
H7_13 C17_13 1_555 1_555
C24_13 C18_13 1_555 1_555
O12_7 C20_13 1_555 1_555
H8_13 C21_13 1_555 1_555
H9_13 C23_13 1_555 1_555
Co2_7 O10_7 1_555 1_555
C27_13 C26_14 1_555 1_555
C28_14 C26_14 1_555 1_555
O15_13 C32_13 1_555 1_555
H10_13 C27_13 1_555 1_555
C29_13 C27_13 1_555 1_555
C30_14 C28_14 1_555 1_555
H11_14 C28_14 1_555 1_555
C31_14 C19_14 1_555 1_555
C32_13 C29_13 1_555 1_555
H12_14 C30_14 1_555 1_555
O16_13 C32_13 1_555 1_555
O23_13 C46_13 1_555 1_555
O24_13 Co2_7 1_555 1_555
C46_13 O24_13 1_555 1_555
Co6_8 O4_8 1_555 1_555
O27_7 Co1_4 1_555 1_555
O28_7 Co2_7 1_555 1_555
O29_7 Co2_7 1_555 1_555
Co7_7 O15_13 1_555 1_555
C9_13 C11_13 1_555 1_555
O11_13 Co2_7 1_555 1_555
C14_14 C19_14 1_555 1_555
C16_13 C21_13 1_555 1_555
C18_13 C23_13 1_555 1_555
O12_7 Co2_7 1_555 1_555
C29_13 C31_14 1_555 1_555
C30_14 C31_14 1_555 1_555
O16_13 Co7_7 1_555 1_555
C7_14 C4_15 1_555 1_555
C8_15 C4_15 1_555 1_555
O28_7 C20_14 1_555 1_555
H1_14 C7_14 1_555 1_555
C13_14 C7_14 1_555 1_555
C14_15 C8_15 1_555 1_555
H2_15 C8_15 1_555 1_555
C19_15 C13_14 1_555 1_555
C20_14 C13_14 1_555 1_555
H5_15 C14_15 1_555 1_555
O29_7 C20_14 1_555 1_555
O13_16 C25_16 1_555 1_555
C25_16 O14_16 1_555 1_555
C26_15 C25_16 1_555 1_555
C27_14 C26_15 1_555 1_555
C28_15 C26_15 1_555 1_555
O15_14 C32_14 1_555 1_555
H10_14 C27_14 1_555 1_555
C29_14 C27_14 1_555 1_555
C30_15 C28_15 1_555 1_555
H11_15 C28_15 1_555 1_555
C31_15 C19_15 1_555 1_555
C32_14 C29_14 1_555 1_555
H12_15 C30_15 1_555 1_555
O16_14 C32_14 1_555 1_555
Co4_8 O13_16 1_555 1_555
Co7_7 O15_14 1_555 1_555
C14_15 C19_15 1_555 1_555
C29_14 C31_15 1_555 1_555
C30_15 C31_15 1_555 1_555
O16_14 Co7_7 1_555 1_555
O2_14 Co4_8 1_555 1_555
C2_14 O2_14 1_555 1_555
O6_14 C2_14 1_555 1_555
O27_8 Co4_8 1_555 1_555
Co6_8 O1_8 1_555 1_555
O1_8 C1_16 1_555 1_555
O2_15 Co6_8 1_555 1_555
O3_14 Co6_8 1_555 1_555
O27_7 C24_14 1_555 1_555
C1_16 O5_16 1_555 1_555
C2_15 O2_15 1_555 1_555
C3_14 O3_14 1_555 1_555
C4_16 C1_16 1_555 1_555
O6_15 C2_15 1_555 1_555
C5_14 C2_15 1_555 1_555
O7_14 C3_14 1_555 1_555
C6_14 C3_14 1_555 1_555
O8_14 C24_14 1_555 1_555
C7_15 C4_16 1_555 1_555
C8_16 C4_16 1_555 1_555
C9_14 C5_14 1_555 1_555
C10_14 C5_14 1_555 1_555
C11_14 C6_14 1_555 1_555
C12_14 C6_14 1_555 1_555
O9_14 C22_14 1_555 1_555
O10_8 C20_15 1_555 1_555
O11_14 C22_14 1_555 1_555
H1_15 C7_15 1_555 1_555
C13_15 C7_15 1_555 1_555
C14_16 C8_16 1_555 1_555
H2_16 C8_16 1_555 1_555
C15_14 C9_14 1_555 1_555
H3_15 C10_14 1_555 1_555
C16_14 C10_14 1_555 1_555
C17_14 C11_14 1_555 1_555
H4_14 C12_14 1_555 1_555
C18_14 C12_14 1_555 1_555
C19_16 C13_15 1_555 1_555
C20_15 C13_15 1_555 1_555
H5_16 C14_16 1_555 1_555
C21_14 C15_14 1_555 1_555
H6_14 C15_14 1_555 1_555
C22_14 C16_14 1_555 1_555
C23_14 C17_14 1_555 1_555
H7_14 C17_14 1_555 1_555
C24_14 C18_14 1_555 1_555
O12_8 C20_15 1_555 1_555
H8_14 C21_14 1_555 1_555
H9_14 C23_14 1_555 1_555
Co2_8 O10_8 1_555 1_555
C27_15 C26_16 1_555 1_555
C28_16 C26_16 1_555 1_555
O15_15 C32_15 1_555 1_555
H10_15 C27_15 1_555 1_555
C29_15 C27_15 1_555 1_555
C30_16 C28_16 1_555 1_555
H11_16 C28_16 1_555 1_555
C31_16 C19_16 1_555 1_555
C32_15 C29_15 1_555 1_555
H12_16 C30_16 1_555 1_555
O16_15 C32_15 1_555 1_555
O23_14 C46_14 1_555 1_555
O24_14 Co2_8 1_555 1_555
C46_14 O24_14 1_555 1_555
O28_8 Co2_8 1_555 1_555
O29_8 Co2_8 1_555 1_555
Co7_8 O15_15 1_555 1_555
C9_14 C11_14 1_555 1_555
O11_14 Co2_8 1_555 1_555
C14_16 C19_16 1_555 1_555
C16_14 C21_14 1_555 1_555
C18_14 C23_14 1_555 1_555
O12_8 Co2_8 1_555 1_555
C29_15 C31_16 1_555 1_555
C30_16 C31_16 1_555 1_555
O16_15 Co7_8 1_555 1_555
O28_8 C20_16 1_555 1_555
H1_16 C7_16 1_555 1_555
C13_16 C7_16 1_555 1_555
C20_16 C13_16 1_555 1_555
O29_8 C20_16 1_555 1_555
O15_16 C32_16 1_555 1_555
H10_16 C27_16 1_555 1_555
C29_16 C27_16 1_555 1_555
C32_16 C29_16 1_555 1_555
O16_16 C32_16 1_555 1_555
Co7_8 O15_16 1_555 1_555
O16_16 Co7_8 1_555 1_555
O2_16 Co6_7 1_555 1_555
O27_6 C24_15 1_555 1_555
C2_16 O2_16 1_555 1_555
O6_16 C2_16 1_555 1_555
C5_15 C2_16 1_555 1_555
O8_15 C24_15 1_555 1_555
C9_15 C5_15 1_555 1_555
C10_15 C5_15 1_555 1_555
C11_15 C6_15 1_555 1_555
C12_15 C6_15 1_555 1_555
O9_15 C22_15 1_555 1_555
O11_15 C22_15 1_555 1_555
C15_15 C9_15 1_555 1_555
H3_16 C10_15 1_555 1_555
C16_15 C10_15 1_555 1_555
C17_15 C11_15 1_555 1_555
C18_15 C12_15 1_555 1_555
C21_15 C15_15 1_555 1_555
H6_15 C15_15 1_555 1_555
C22_15 C16_15 1_555 1_555
C23_15 C17_15 1_555 1_555
H7_15 C17_15 1_555 1_555
C24_15 C18_15 1_555 1_555
H8_15 C21_15 1_555 1_555
H9_15 C23_15 1_555 1_555
O23_15 C46_15 1_555 1_555
O24_15 Co7_8 1_555 1_555
C46_15 O24_15 1_555 1_555
C9_15 C11_15 1_555 1_555
O11_15 Co7_8 1_555 1_555
C16_15 C21_15 1_555 1_555
C18_15 C23_15 1_555 1_555
O27_8 C24_16 1_555 1_555
C3_15 O3_15 1_555 1_555
O7_15 C3_15 1_555 1_555
C6_16 C3_15 1_555 1_555
O8_16 C24_16 1_555 1_555
C9_16 C5_16 1_555 1_555
C10_16 C5_16 1_555 1_555
C11_16 C6_16 1_555 1_555
C12_16 C6_16 1_555 1_555
O9_16 C22_16 1_555 1_555
O11_16 C22_16 1_555 1_555
C15_16 C9_16 1_555 1_555
C16_16 C10_16 1_555 1_555
C17_16 C11_16 1_555 1_555
H4_15 C12_16 1_555 1_555
C18_16 C12_16 1_555 1_555
C21_16 C15_16 1_555 1_555
H6_16 C15_16 1_555 1_555
C22_16 C16_16 1_555 1_555
C23_16 C17_16 1_555 1_555
H7_16 C17_16 1_555 1_555
C24_16 C18_16 1_555 1_555
H8_16 C21_16 1_555 1_555
H9_16 C23_16 1_555 1_555
O23_16 C46_16 1_555 1_555
C46_16 O24_16 1_555 1_555
C9_16 C11_16 1_555 1_555
C16_16 C21_16 1_555 1_555
C18_16 C23_16 1_555 1_555
C3_16 O3_16 1_555 1_555
O7_16 C3_16 1_555 1_555

#END
