
###############################################################################
#
# This file contains modified crystal structure data generated from the
# MOF subset of the Cambridge Structural Database (CSD) v543 
# hosted by the Cambridge Crystallographic Data Centre (CCDC).
#
# This work is licensed under the Creative Commons
# Attribution-NonCommercial-ShareAlike 4.0 International License.
# To view a copy of this license, visit
# http://creativecommons.org/licenses/by-nc-sa/4.0/
# or send a letter to
# Creative Commons, PO Box 1866, Mountain View, CA 94042, USA.
#
# CIF created using the CSD Python API on 29 September 2022
# The structure has been converted into the P1 space group
# The structure has a 3D framework
# The original CSD entry DOQSAF is in the monoclinic crystal system
# The framework has been calculated to contain at least 10.0% void space
# The void calculation uses a probe of radius 1.32A, grid spacing 0.4
# The framework is charged, counterions have been retained in the structure
#
###############################################################################

data_DOQSAF
_chemical_formula_moiety         '(C144 H72 Mn14 O78 8-)n'
_symmetry_cell_setting           triclinic
_symmetry_space_group_name_H-M   'P 1'
_symmetry_Int_Tables_number      1
_space_group_name_Hall           'P 1'
loop_
_symmetry_equiv_pos_site_id
_symmetry_equiv_pos_as_xyz
1 x,y,z
_cell_length_a                   30.577(6)
_cell_length_b                   13.818(3)
_cell_length_c                   16.241(3)
_cell_angle_alpha                90
_cell_angle_beta                 115.81(3)
_cell_angle_gamma                90
_cell_volume                     6177.5
loop_
_atom_site_label
_atom_site_type_symbol
_atom_site_fract_x
_atom_site_fract_y
_atom_site_fract_z
Mn1 Mn 0.15163(3) 0.44344(7) 0.48858(5)
Mn2 Mn 0.14793(3) 0.47027(8) 0.71392(5)
O3 O 0.08098(12) 0.4085(3) 0.6234(2)
O5 O 0.15479(15) 0.6337(4) 0.3169(3)
O7 O 0.19211(14) 0.5459(4) 0.4414(3)
O8 O 0.10195(13) 0.3502(4) 0.5182(3)
C4 C 0.01965(17) 0.3420(4) 0.4899(3)
C9 C 0.07130(18) 0.3680(5) 0.5485(4)
C15 C 0.00752(17) 0.2760(5) 0.4171(3)
H6 H 0.0322 0.2479 0.4043
C17 C 0.1756(2) 0.6190(7) 0.4030(5)
C18 C 0.1779(5) 0.7132(8) 0.4569(6)
H7 H 0.1940 0.6997 0.5227
H8 H 0.1449 0.7368 0.4402
H9 H 0.1963 0.7626 0.4420
Mn7 Mn 0.14793(3) 0.52973(8) 0.21392(5)
O11 O 0.14302(11) 0.5615(3) 0.5981(2)
O12 O 0.11933(12) 0.5756(3) 0.7729(2)
O13 O 0.09251(13) 0.5515(3) 0.4526(2)
O14 O 0.15479(15) 0.3663(4) 0.8169(3)
O15 O 0.21669(12) 0.3871(4) 0.5933(3)
O16 O 0.14867(16) 0.3316(3) 0.3968(2)
O17 O 0.21172(16) 0.4146(5) 0.7248(3)
O1 O 0.85698(11) 0.4385(3) 0.4019(2)
O2 O 0.88067(12) 0.4244(3) 0.2271(2)
O4 O 0.90749(13) 0.4485(3) 0.5474(2)
C1 C 0.89744(17) 0.4170(5) 0.4701(3)
C2 C 0.92220(16) 0.2925(4) 0.3817(3)
O6 O 0.71669(12) 0.1129(4) 0.0933(3)
C3 C 0.98278(16) 0.3795(4) 0.5080(3)
H1 H 0.9909 0.4207 0.5595
C5 C 0.87124(16) 0.2555(4) 0.3280(3)
C6 C 0.86062(18) 0.3473(5) 0.1847(3)
O9 O 0.85133(16) 0.3316(3) 0.1032(2)
C7 C 0.78139(17) 0.1656(4) 0.2303(3)
C8 C 0.80089(16) 0.2248(4) 0.1853(3)
H2 H 0.7841 0.2325 0.1209
C10 C 0.93370(16) 0.3584(4) 0.4526(3)
C11 C 0.80687(18) 0.1515(5) 0.3227(3)
H3 H 0.7935 0.1133 0.3547
C12 C 0.84460(16) 0.2727(4) 0.2334(3)
C13 C 0.85211(18) 0.1931(5) 0.3691(3)
H4 H 0.8707 0.1778 0.4319
C14 C 0.95912(18) 0.2524(4) 0.3643(3)
H5 H 0.9510 0.2078 0.3153
O10 O 0.71172(16) 0.0854(5) 0.2248(3)
C16 C 0.73220(18) 0.1206(5) 0.1768(4)
Mn3 Mn 0.84837(3) 0.44344(7) 0.01142(5)
Mn4 Mn 0.84837(3) 0.55656(7) 0.51142(5)
Mn6 Mn 0.85207(3) 0.52973(8) 0.28608(5)
Mn8 Mn 0.64793(3) 0.02973(8) 0.21392(5)
Mn5 Mn 0.65163(3) 0.05656(7) 0.98858(5)
O1_2 O 0.14302(11) 0.4385(3) 0.0981(2)
O2_2 O 0.11933(12) 0.4244(3) 0.2729(2)
C1_2 C 0.10256(17) 0.4170(5) 0.0299(3)
C2_2 C 0.07780(16) 0.2925(4) 0.1183(3)
O6_2 O 0.28331(12) 0.1129(4) 0.4067(3)
C5_2 C 0.12876(16) 0.2555(4) 0.1720(3)
C6_2 C 0.13938(18) 0.3473(5) 0.3153(3)
C7_2 C 0.21861(17) 0.1656(4) 0.2697(3)
C8_2 C 0.19911(16) 0.2248(4) 0.3147(3)
H2_2 H 0.2159 0.2325 0.3791
C10_2 C 0.06630(16) 0.3584(4) 0.0474(3)
C11_2 C 0.19313(18) 0.1515(5) 0.1773(3)
H3_2 H 0.2065 0.1133 0.1453
C12_2 C 0.15540(16) 0.2727(4) 0.2666(3)
C13_2 C 0.14789(18) 0.1931(5) 0.1309(3)
H4_2 H 0.1293 0.1778 0.0681
C14_2 C 0.04088(18) 0.2524(4) 0.1357(3)
H5_2 H 0.0490 0.2078 0.1847
O10_2 O 0.28828(16) 0.0854(5) 0.2752(3)
C16_2 C 0.26780(18) 0.1206(5) 0.3232(4)
Mn5_2 Mn 0.34837(3) 0.05656(7) 0.51142(5)
Mn8_2 Mn 0.35207(3) 0.02973(8) 0.28608(5)
O4_2 O 0.09251(13) 0.4485(3) 0.9526(2)
C3_2 C 0.01722(16) 0.3795(4) 0.9920(3)
H1_2 H 0.0091 0.4207 0.9405
Mn4_2 Mn 0.15163(3) 0.55656(7) 0.98858(5)
O5_2 O 0.84521(15) 0.6337(4) 0.1831(3)
O7_2 O 0.80789(14) 0.5459(4) 0.0586(3)
C4_2 C 0.98035(17) 0.3420(4) 0.0101(3)
C15_2 C 0.99248(17) 0.2760(5) 0.0829(3)
H6_2 H 0.9678 0.2479 0.0957
C17_2 C 0.8244(2) 0.6190(7) 0.0970(5)
C18_2 C 0.8221(5) 0.7132(8) 0.0431(6)
H8_2 H 0.8551 0.7368 0.0598
H9_2 H 0.8037 0.7626 0.0580
O13_2 O 0.90749(13) 0.5515(3) 0.0474(2)
Mn2_2 Mn 0.85207(3) 0.47027(8) 0.78608(5)
O3_2 O 0.91902(12) 0.4085(3) 0.8766(2)
O8_2 O 0.89805(13) 0.3502(4) 0.9818(3)
C9_2 C 0.92870(18) 0.3680(5) 0.9515(4)
H7_2 H 0.8060 0.6997 0.9773
O11_2 O 0.85698(11) 0.5615(3) 0.9019(2)
O12_2 O 0.88067(12) 0.5756(3) 0.7271(2)
O14_2 O 0.84521(15) 0.3663(4) 0.6831(3)
O15_2 O 0.78331(12) 0.3871(4) 0.9067(3)
O17_2 O 0.78828(16) 0.4146(5) 0.7752(3)
O5_3 O 0.65479(15) 0.1337(4) 0.3169(3)
O7_3 O 0.69211(14) 0.0459(4) 0.4414(3)
C17_3 C 0.6756(2) 0.1190(7) 0.4030(5)
C18_3 C 0.6779(5) 0.2132(8) 0.4569(6)
H7_3 H 0.6940 0.1997 0.5227
H8_3 H 0.6449 0.2368 0.4402
H9_3 H 0.6963 0.2626 0.4420
O11_3 O 0.64302(11) 0.0615(3) 0.5981(2)
O12_3 O 0.61933(12) 0.0756(3) 0.7729(2)
O13_3 O 0.59251(13) 0.0515(3) 0.4526(2)
Mn1_2 Mn 0.65163(3) 0.94344(7) 0.48858(5)
Mn2_3 Mn 0.64793(3) 0.97027(8) 0.71392(5)
O1_3 O 0.35698(11) 0.9385(3) 0.4019(2)
O2_3 O 0.38067(12) 0.9244(3) 0.2271(2)
O3_3 O 0.58098(12) 0.9085(3) 0.6234(2)
O4_3 O 0.40749(13) 0.9485(3) 0.5474(2)
C1_3 C 0.39744(17) 0.9170(5) 0.4701(3)
C2_3 C 0.42220(16) 0.7925(4) 0.3817(3)
O6_3 O 0.21669(12) 0.6129(4) 0.0933(3)
C3_3 C 0.48278(16) 0.8795(4) 0.5080(3)
H1_3 H 0.4909 0.9207 0.5595
O8_3 O 0.60195(13) 0.8502(4) 0.5182(3)
C4_3 C 0.51965(17) 0.8420(4) 0.4899(3)
C5_3 C 0.37124(16) 0.7555(4) 0.3280(3)
C6_3 C 0.36062(18) 0.8473(5) 0.1847(3)
O9_2 O 0.35133(16) 0.8316(3) 0.1032(2)
C7_3 C 0.28139(17) 0.6656(4) 0.2303(3)
C8_3 C 0.30089(16) 0.7248(4) 0.1853(3)
H2_3 H 0.2841 0.7325 0.1209
C9_3 C 0.57130(18) 0.8680(5) 0.5485(4)
C10_3 C 0.43370(16) 0.8584(4) 0.4526(3)
C11_3 C 0.30687(18) 0.6515(5) 0.3227(3)
H3_3 H 0.2935 0.6133 0.3547
C12_3 C 0.34460(16) 0.7727(4) 0.2334(3)
C13_3 C 0.35211(18) 0.6931(5) 0.3691(3)
H4_3 H 0.3707 0.6778 0.4319
C14_3 C 0.45912(18) 0.7524(4) 0.3643(3)
H5_3 H 0.4510 0.7078 0.3153
C15_3 C 0.50752(17) 0.7760(5) 0.4171(3)
H6_3 H 0.5322 0.7479 0.4043
O10_3 O 0.21172(16) 0.5854(5) 0.2248(3)
C16_3 C 0.23220(18) 0.6206(5) 0.1768(4)
Mn3_2 Mn 0.34837(3) 0.94344(7) 0.01142(5)
O14_3 O 0.65479(15) 0.8663(4) 0.8169(3)
O15_3 O 0.71669(12) 0.8871(4) 0.5933(3)
O16_2 O 0.64867(16) 0.8316(3) 0.3968(2)
O17_3 O 0.71172(16) 0.9146(5) 0.7248(3)
O5_4 O 0.34521(15) 0.1337(4) 0.1831(3)
O7_4 O 0.30789(14) 0.0459(4) 0.0586(3)
C17_4 C 0.3244(2) 0.1190(7) 0.0970(5)
C18_4 C 0.3221(5) 0.2132(8) 0.0431(6)
H8_4 H 0.3551 0.2368 0.0598
H9_4 H 0.3037 0.2626 0.0580
O13_4 O 0.40749(13) 0.0515(3) 0.0474(2)
H7_4 H 0.3060 0.1997 0.9773
O11_4 O 0.35698(11) 0.0615(3) 0.9019(2)
O12_4 O 0.38067(12) 0.0756(3) 0.7271(2)
O1_4 O 0.64302(11) 0.9385(3) 0.0981(2)
O2_4 O 0.61933(12) 0.9244(3) 0.2729(2)
C1_4 C 0.60256(17) 0.9170(5) 0.0299(3)
C2_4 C 0.57780(16) 0.7925(4) 0.1183(3)
O6_4 O 0.78331(12) 0.6129(4) 0.4067(3)
C4_4 C 0.48035(17) 0.8420(4) 0.0101(3)
C5_4 C 0.62876(16) 0.7555(4) 0.1720(3)
C6_4 C 0.63938(18) 0.8473(5) 0.3153(3)
C7_4 C 0.71861(17) 0.6656(4) 0.2697(3)
C8_4 C 0.69911(16) 0.7248(4) 0.3147(3)
H2_4 H 0.7159 0.7325 0.3791
C10_4 C 0.56630(16) 0.8584(4) 0.0474(3)
C11_4 C 0.69313(18) 0.6515(5) 0.1773(3)
H3_4 H 0.7065 0.6133 0.1453
C12_4 C 0.65540(16) 0.7727(4) 0.2666(3)
C13_4 C 0.64789(18) 0.6931(5) 0.1309(3)
H4_4 H 0.6293 0.6778 0.0681
C14_4 C 0.54088(18) 0.7524(4) 0.1357(3)
H5_4 H 0.5490 0.7078 0.1847
C15_4 C 0.49248(17) 0.7760(5) 0.0829(3)
H6_4 H 0.4678 0.7479 0.0957
O10_4 O 0.78828(16) 0.5854(5) 0.2752(3)
C16_4 C 0.76780(18) 0.6206(5) 0.3232(4)
Mn2_4 Mn 0.35207(3) 0.97027(8) 0.78608(5)
O3_4 O 0.41902(12) 0.9085(3) 0.8766(2)
O4_4 O 0.59251(13) 0.9485(3) 0.9526(2)
C3_4 C 0.51722(16) 0.8795(4) 0.9920(3)
H1_4 H 0.5091 0.9207 0.9405
O8_4 O 0.39805(13) 0.8502(4) 0.9818(3)
C9_4 C 0.42870(18) 0.8680(5) 0.9515(4)
O14_4 O 0.34521(15) 0.8663(4) 0.6831(3)
O15_4 O 0.28331(12) 0.8871(4) 0.9067(3)
O17_4 O 0.28828(16) 0.9146(5) 0.7752(3)
C1_5 C 0.10256(17) 0.5830(5) 0.5299(3)
C2_5 C 0.07780(16) 0.7075(4) 0.6183(3)
C3_5 C 0.01722(16) 0.6205(4) 0.4920(3)
H1_5 H 0.0091 0.5793 0.4405
C5_5 C 0.12876(16) 0.7445(4) 0.6720(3)
C6_5 C 0.13938(18) 0.6527(5) 0.8153(3)
O9_3 O 0.14867(16) 0.6684(3) 0.8968(2)
C7_5 C 0.21861(17) 0.8344(4) 0.7697(3)
C8_5 C 0.19911(16) 0.7752(4) 0.8147(3)
H2_5 H 0.2159 0.7675 0.8791
C10_5 C 0.06630(16) 0.6416(4) 0.5474(3)
C11_5 C 0.19313(18) 0.8485(5) 0.6773(3)
H3_5 H 0.2065 0.8867 0.6453
C12_5 C 0.15540(16) 0.7273(4) 0.7666(3)
C13_5 C 0.14789(18) 0.8069(5) 0.6309(3)
H4_5 H 0.1293 0.8222 0.5681
C14_5 C 0.04088(18) 0.7476(4) 0.6357(3)
H5_5 H 0.0490 0.7922 0.6847
C16_5 C 0.26780(18) 0.8794(5) 0.8232(4)
O3_5 O 0.91902(12) 0.5915(3) 0.3766(2)
O7_5 O 0.80789(14) 0.4541(4) 0.5586(3)
O8_5 O 0.89805(13) 0.6498(4) 0.4818(3)
C4_5 C 0.98035(17) 0.6580(4) 0.5101(3)
C9_5 C 0.92870(18) 0.6320(5) 0.4515(4)
C15_5 C 0.99248(17) 0.7240(5) 0.5829(3)
H6_5 H 0.9678 0.7521 0.5957
C17_5 C 0.8244(2) 0.3810(7) 0.5970(5)
C18_5 C 0.8221(5) 0.2868(8) 0.5431(6)
H7_5 H 0.8060 0.3003 0.4773
H8_5 H 0.8551 0.2632 0.5598
H9_5 H 0.8037 0.2374 0.5580
O16_3 O 0.85133(16) 0.6684(3) 0.6032(2)
O3_6 O 0.08098(12) 0.5915(3) 0.1234(2)
O8_6 O 0.10195(13) 0.6498(4) 0.0182(3)
C9_6 C 0.07130(18) 0.6320(5) 0.0485(4)
H7_6 H 0.1940 0.3003 0.0227
O7_6 O 0.19211(14) 0.4541(4) 0.9414(3)
C4_6 C 0.01965(17) 0.6580(4) 0.9899(3)
C15_6 C 0.00752(17) 0.7240(5) 0.9171(3)
H6_6 H 0.0322 0.7521 0.9043
C17_6 C 0.1756(2) 0.3810(7) 0.9030(5)
C18_6 C 0.1779(5) 0.2868(8) 0.9569(6)
H8_6 H 0.1449 0.2632 0.9402
H9_6 H 0.1963 0.2374 0.9420
C3_6 C 0.98278(16) 0.6205(4) 0.0080(3)
H1_6 H 0.9909 0.5793 0.0595
C1_6 C 0.89744(17) 0.5830(5) 0.9701(3)
C2_6 C 0.92220(16) 0.7075(4) 0.8817(3)
C5_6 C 0.87124(16) 0.7445(4) 0.8280(3)
C6_6 C 0.86062(18) 0.6527(5) 0.6847(3)
C7_6 C 0.78139(17) 0.8344(4) 0.7303(3)
C8_6 C 0.80089(16) 0.7752(4) 0.6853(3)
H2_6 H 0.7841 0.7675 0.6209
C10_6 C 0.93370(16) 0.6416(4) 0.9526(3)
C11_6 C 0.80687(18) 0.8485(5) 0.8227(3)
H3_6 H 0.7935 0.8867 0.8547
C12_6 C 0.84460(16) 0.7273(4) 0.7334(3)
C13_6 C 0.85211(18) 0.8069(5) 0.8691(3)
H4_6 H 0.8707 0.8222 0.9319
C14_6 C 0.95912(18) 0.7476(4) 0.8643(3)
H5_6 H 0.9510 0.7922 0.8153
C16_6 C 0.73220(18) 0.8794(5) 0.6768(4)
O3_7 O 0.41902(12) 0.0915(3) 0.3766(2)
C1_7 C 0.60256(17) 0.0830(5) 0.5299(3)
C2_7 C 0.57780(16) 0.2075(4) 0.6183(3)
C3_7 C 0.51722(16) 0.1205(4) 0.4920(3)
H1_7 H 0.5091 0.0793 0.4405
O8_7 O 0.39805(13) 0.1498(4) 0.4818(3)
C4_7 C 0.48035(17) 0.1580(4) 0.5101(3)
C5_7 C 0.62876(16) 0.2445(4) 0.6720(3)
C6_7 C 0.63938(18) 0.1527(5) 0.8153(3)
O9_4 O 0.64867(16) 0.1684(3) 0.8968(2)
C7_7 C 0.71861(17) 0.3344(4) 0.7697(3)
C8_7 C 0.69911(16) 0.2752(4) 0.8147(3)
H2_7 H 0.7159 0.2675 0.8791
C9_7 C 0.42870(18) 0.1320(5) 0.4515(4)
C10_7 C 0.56630(16) 0.1416(4) 0.5474(3)
C11_7 C 0.69313(18) 0.3485(5) 0.6773(3)
H3_7 H 0.7065 0.3867 0.6453
C12_7 C 0.65540(16) 0.2273(4) 0.7666(3)
C13_7 C 0.64789(18) 0.3069(5) 0.6309(3)
H4_7 H 0.6293 0.3222 0.5681
C14_7 C 0.54088(18) 0.2476(4) 0.6357(3)
H5_7 H 0.5490 0.2922 0.6847
C15_7 C 0.49248(17) 0.2240(5) 0.5829(3)
H6_7 H 0.4678 0.2521 0.5957
C16_7 C 0.76780(18) 0.3794(5) 0.8232(4)
O16_4 O 0.35133(16) 0.1684(3) 0.6032(2)
O7_7 O 0.30789(14) 0.9541(4) 0.5586(3)
C17_7 C 0.3244(2) 0.8810(7) 0.5970(5)
C18_7 C 0.3221(5) 0.7868(8) 0.5431(6)
H7_7 H 0.3060 0.8003 0.4773
H8_7 H 0.3551 0.7632 0.5598
H9_7 H 0.3037 0.7374 0.5580
O3_8 O 0.58098(12) 0.0915(3) 0.1234(2)
C3_8 C 0.48278(16) 0.1205(4) 0.0080(3)
H1_8 H 0.4909 0.0793 0.0595
O8_8 O 0.60195(13) 0.1498(4) 0.0182(3)
C9_8 C 0.57130(18) 0.1320(5) 0.0485(4)
C1_8 C 0.39744(17) 0.0830(5) 0.9701(3)
C2_8 C 0.42220(16) 0.2075(4) 0.8817(3)
C4_8 C 0.51965(17) 0.1580(4) 0.9899(3)
C5_8 C 0.37124(16) 0.2445(4) 0.8280(3)
C6_8 C 0.36062(18) 0.1527(5) 0.6847(3)
C7_8 C 0.28139(17) 0.3344(4) 0.7303(3)
C8_8 C 0.30089(16) 0.2752(4) 0.6853(3)
H2_8 H 0.2841 0.2675 0.6209
C10_8 C 0.43370(16) 0.1416(4) 0.9526(3)
C11_8 C 0.30687(18) 0.3485(5) 0.8227(3)
H3_8 H 0.2935 0.3867 0.8547
C12_8 C 0.34460(16) 0.2273(4) 0.7334(3)
C13_8 C 0.35211(18) 0.3069(5) 0.8691(3)
H4_8 H 0.3707 0.3222 0.9319
C14_8 C 0.45912(18) 0.2476(4) 0.8643(3)
H5_8 H 0.4510 0.2922 0.8153
C15_8 C 0.50752(17) 0.2240(5) 0.9171(3)
H6_8 H 0.5322 0.2521 0.9043
C16_8 C 0.23220(18) 0.3794(5) 0.6768(4)
H7_8 H 0.6940 0.8003 0.0227
O7_8 O 0.69211(14) 0.9541(4) 0.9414(3)
C17_8 C 0.6756(2) 0.8810(7) 0.9030(5)
C18_8 C 0.6779(5) 0.7868(8) 0.9569(6)
H8_8 H 0.6449 0.7632 0.9402
H9_8 H 0.6963 0.7374 0.9420
loop_
_geom_bond_atom_site_label_1
_geom_bond_atom_site_label_2
_geom_bond_site_symmetry_1
_geom_bond_site_symmetry_2
Mn1 O7 1_555 1_555
Mn2 O3 1_555 1_555
O3 C9 1_555 1_555
O5 C17 1_555 1_555
O7 C17 1_555 1_555
O8 Mn1 1_555 1_555
C9 O8 1_555 1_555
C15 C4 1_555 1_555
H6 C15 1_555 1_555
C17 C18 1_555 1_555
C18 H7 1_555 1_555
H8 C18 1_555 1_555
H9 C18 1_555 1_555
Mn7 O5 1_555 1_555
O11 Mn2 1_555 1_555
O12 Mn2 1_555 1_555
O13 Mn1 1_555 1_555
O14 Mn2 1_555 1_555
O15 Mn1 1_555 1_555
O16 Mn1 1_555 1_555
O17 Mn2 1_555 1_555
C4 C9 1_555 1_555
O1 C1 1_555 1_555
O2 C6 1_555 1_555
O4 C1 1_555 1_555
C1 C10 1_555 1_555
C2 C5 1_555 1_555
O6 C16 1_555 1_555
C3 H1 1_555 1_555
C5 C12 1_555 1_555
C6 O9 1_555 1_555
O9 Mn3 1_555 1_555
C7 C8 1_555 1_555
C8 H2 1_555 1_555
C10 C2 1_555 1_555
C11 C7 1_555 1_555
H3 C11 1_555 1_555
C12 C6 1_555 1_555
C13 C5 1_555 1_555
H4 C13 1_555 1_555
C14 C2 1_555 1_555
H5 C14 1_555 1_555
O10 C16 1_555 1_555
C16 C7 1_555 1_555
Mn4 O4 1_555 1_555
Mn6 O1 1_555 1_555
Mn8 O10 1_555 1_555
O2 Mn6 1_555 1_555
C3 C10 1_555 1_555
C8 C12 1_555 1_555
C11 C13 1_555 1_555
O1_2 C1_2 1_555 1_555
O2_2 C6_2 1_555 1_555
C1_2 C10_2 1_555 1_555
C2_2 C5_2 1_555 1_555
O6_2 C16_2 1_555 1_555
C5_2 C12_2 1_555 1_555
C6_2 O16 1_555 1_555
C7_2 C8_2 1_555 1_555
C8_2 H2_2 1_555 1_555
C10_2 C2_2 1_555 1_555
C11_2 C7_2 1_555 1_555
H3_2 C11_2 1_555 1_555
C12_2 C6_2 1_555 1_555
C13_2 C5_2 1_555 1_555
H4_2 C13_2 1_555 1_555
C14_2 C2_2 1_555 1_555
H5_2 C14_2 1_555 1_555
O10_2 C16_2 1_555 1_555
C16_2 C7_2 1_555 1_555
Mn5_2 O6_2 1_555 1_555
Mn7 O1_2 1_555 1_555
Mn8_2 O10_2 1_555 1_555
O2_2 Mn7 1_555 1_555
C8_2 C12_2 1_555 1_555
C11_2 C13_2 1_555 1_555
C3_2 H1_2 1_555 1_555
Mn4_2 O4_2 1_555 1_555
Mn3 O7_2 1_555 1_555
O5_2 C17_2 1_555 1_555
O7_2 C17_2 1_555 1_555
C15_2 C4_2 1_555 1_555
H6_2 C15_2 1_555 1_555
C17_2 C18_2 1_555 1_555
H8_2 C18_2 1_555 1_555
H9_2 C18_2 1_555 1_555
Mn6 O5_2 1_555 1_555
O13_2 Mn3 1_555 1_555
Mn2_2 O3_2 1_555 1_555
O3_2 C9_2 1_555 1_555
C9_2 O8_2 1_555 1_555
O11_2 Mn2_2 1_555 1_555
O12_2 Mn2_2 1_555 1_555
O14_2 Mn2_2 1_555 1_555
O17_2 Mn2_2 1_555 1_555
O5_3 C17_3 1_555 1_555
O7_3 C17_3 1_555 1_555
C17_3 C18_3 1_555 1_555
C18_3 H7_3 1_555 1_555
H8_3 C18_3 1_555 1_555
H9_3 C18_3 1_555 1_555
Mn8 O5_3 1_555 1_555
Mn2_3 O3_3 1_555 1_555
O1_3 C1_3 1_555 1_555
O2_3 C6_3 1_555 1_555
O3_3 C9_3 1_555 1_555
O4_3 C1_3 1_555 1_555
C1_3 C10_3 1_555 1_555
C2_3 C5_3 1_555 1_555
O6_3 C16_3 1_555 1_555
C3_3 H1_3 1_555 1_555
O8_3 Mn1_2 1_555 1_555
C4_3 C3_3 1_555 1_555
C5_3 C12_3 1_555 1_555
C6_3 O9_2 1_555 1_555
O9_2 Mn3_2 1_555 1_555
C7_3 C8_3 1_555 1_555
C8_3 H2_3 1_555 1_555
C9_3 O8_3 1_555 1_555
C10_3 C2_3 1_555 1_555
C11_3 C7_3 1_555 1_555
H3_3 C11_3 1_555 1_555
C12_3 C6_3 1_555 1_555
C13_3 C5_3 1_555 1_555
H4_3 C13_3 1_555 1_555
C14_3 C2_3 1_555 1_555
H5_3 C14_3 1_555 1_555
C15_3 C4_3 1_555 1_555
H6_3 C15_3 1_555 1_555
O10_3 C16_3 1_555 1_555
C16_3 C7_3 1_555 1_555
Mn7 O10_3 1_555 1_555
O14_3 Mn2_3 1_555 1_555
O15_3 Mn1_2 1_555 1_555
O16_2 Mn1_2 1_555 1_555
O17_3 Mn2_3 1_555 1_555
C3_3 C10_3 1_555 1_555
C4_3 C9_3 1_555 1_555
C8_3 C12_3 1_555 1_555
C11_3 C13_3 1_555 1_555
C14_3 C15_3 1_555 1_555
O5_4 C17_4 1_555 1_555
O7_4 C17_4 1_555 1_555
C17_4 C18_4 1_555 1_555
H8_4 C18_4 1_555 1_555
H9_4 C18_4 1_555 1_555
Mn8_2 O5_4 1_555 1_555
O1_4 C1_4 1_555 1_555
O2_4 C6_4 1_555 1_555
C1_4 C10_4 1_555 1_555
C2_4 C5_4 1_555 1_555
O6_4 C16_4 1_555 1_555
C5_4 C12_4 1_555 1_555
C6_4 O16_2 1_555 1_555
C7_4 C8_4 1_555 1_555
C8_4 H2_4 1_555 1_555
C10_4 C2_4 1_555 1_555
C11_4 C7_4 1_555 1_555
H3_4 C11_4 1_555 1_555
C12_4 C6_4 1_555 1_555
C13_4 C5_4 1_555 1_555
H4_4 C13_4 1_555 1_555
C14_4 C2_4 1_555 1_555
H5_4 C14_4 1_555 1_555
C15_4 C4_4 1_555 1_555
H6_4 C15_4 1_555 1_555
O10_4 C16_4 1_555 1_555
C16_4 C7_4 1_555 1_555
Mn4 O6_4 1_555 1_555
Mn6 O10_4 1_555 1_555
C8_4 C12_4 1_555 1_555
C11_4 C13_4 1_555 1_555
C14_4 C15_4 1_555 1_555
Mn2_4 O3_4 1_555 1_555
O3_4 C9_4 1_555 1_555
C3_4 H1_4 1_555 1_555
C9_4 O8_4 1_555 1_555
O14_4 Mn2_4 1_555 1_555
O17_4 Mn2_4 1_555 1_555
O11 C1_5 1_555 1_555
O12 C6_5 1_555 1_555
O13 C1_5 1_555 1_555
C1_5 C10_5 1_555 1_555
C2_5 C5_5 1_555 1_555
O15_4 C16_5 1_555 1_555
C3_5 H1_5 1_555 1_555
C5_5 C12_5 1_555 1_555
C6_5 O9_3 1_555 1_555
O9_3 Mn4_2 1_555 1_555
C7_5 C8_5 1_555 1_555
C8_5 H2_5 1_555 1_555
C10_5 C2_5 1_555 1_555
C11_5 C7_5 1_555 1_555
H3_5 C11_5 1_555 1_555
C12_5 C6_5 1_555 1_555
C13_5 C5_5 1_555 1_555
H4_5 C13_5 1_555 1_555
C14_5 C2_5 1_555 1_555
H5_5 C14_5 1_555 1_555
O17_4 C16_5 1_555 1_555
C16_5 C7_5 1_555 1_555
C3_5 C10_5 1_555 1_555
C8_5 C12_5 1_555 1_555
C11_5 C13_5 1_555 1_555
Mn4 O7_5 1_555 1_555
Mn6 O3_5 1_555 1_555
O3_5 C9_5 1_555 1_555
O14_2 C17_5 1_555 1_555
O7_5 C17_5 1_555 1_555
O8_5 Mn4 1_555 1_555
C9_5 O8_5 1_555 1_555
C15_5 C4_5 1_555 1_555
H6_5 C15_5 1_555 1_555
C17_5 C18_5 1_555 1_555
C18_5 H7_5 1_555 1_555
H8_5 C18_5 1_555 1_555
H9_5 C18_5 1_555 1_555
O16_3 Mn4 1_555 1_555
C4_5 C9_5 1_555 1_555
Mn7 O3_6 1_555 1_555
O3_6 C9_6 1_555 1_555
C9_6 O8_6 1_555 1_555
Mn4_2 O7_6 1_555 1_555
O14 C17_6 1_555 1_555
O7_6 C17_6 1_555 1_555
C15_6 C4_6 1_555 1_555
H6_6 C15_6 1_555 1_555
C17_6 C18_6 1_555 1_555
H8_6 C18_6 1_555 1_555
H9_6 C18_6 1_555 1_555
C3_6 H1_6 1_555 1_555
O11_2 C1_6 1_555 1_555
O12_2 C6_6 1_555 1_555
C1_6 C10_6 1_555 1_555
C2_6 C5_6 1_555 1_555
O15_3 C16_6 1_555 1_555
C5_6 C12_6 1_555 1_555
C6_6 O16_3 1_555 1_555
C7_6 C8_6 1_555 1_555
C8_6 H2_6 1_555 1_555
C10_6 C2_6 1_555 1_555
C11_6 C7_6 1_555 1_555
H3_6 C11_6 1_555 1_555
C12_6 C6_6 1_555 1_555
C13_6 C5_6 1_555 1_555
H4_6 C13_6 1_555 1_555
C14_6 C2_6 1_555 1_555
H5_6 C14_6 1_555 1_555
O17_3 C16_6 1_555 1_555
C16_6 C7_6 1_555 1_555
C8_6 C12_6 1_555 1_555
C11_6 C13_6 1_555 1_555
Mn8_2 O3_7 1_555 1_555
O11_3 C1_7 1_555 1_555
O12_3 C6_7 1_555 1_555
O3_7 C9_7 1_555 1_555
O13_3 C1_7 1_555 1_555
C1_7 C10_7 1_555 1_555
C2_7 C5_7 1_555 1_555
O15_2 C16_7 1_555 1_555
C3_7 H1_7 1_555 1_555
O8_7 Mn5_2 1_555 1_555
C4_7 C3_7 1_555 1_555
C5_7 C12_7 1_555 1_555
C6_7 O9_4 1_555 1_555
O9_4 Mn5 1_555 1_555
C7_7 C8_7 1_555 1_555
C8_7 H2_7 1_555 1_555
C9_7 O8_7 1_555 1_555
C10_7 C2_7 1_555 1_555
C11_7 C7_7 1_555 1_555
H3_7 C11_7 1_555 1_555
C12_7 C6_7 1_555 1_555
C13_7 C5_7 1_555 1_555
H4_7 C13_7 1_555 1_555
C14_7 C2_7 1_555 1_555
H5_7 C14_7 1_555 1_555
C15_7 C4_7 1_555 1_555
H6_7 C15_7 1_555 1_555
O17_2 C16_7 1_555 1_555
C16_7 C7_7 1_555 1_555
O16_4 Mn5_2 1_555 1_555
C3_7 C10_7 1_555 1_555
C4_7 C9_7 1_555 1_555
C8_7 C12_7 1_555 1_555
C11_7 C13_7 1_555 1_555
C14_7 C15_7 1_555 1_555
O14_4 C17_7 1_555 1_555
O7_7 C17_7 1_555 1_555
C17_7 C18_7 1_555 1_555
C18_7 H7_7 1_555 1_555
H8_7 C18_7 1_555 1_555
H9_7 C18_7 1_555 1_555
Mn8 O3_8 1_555 1_555
O3_8 C9_8 1_555 1_555
C3_8 H1_8 1_555 1_555
C9_8 O8_8 1_555 1_555
O11_4 C1_8 1_555 1_555
O12_4 C6_8 1_555 1_555
C1_8 C10_8 1_555 1_555
C2_8 C5_8 1_555 1_555
O15 C16_8 1_555 1_555
C5_8 C12_8 1_555 1_555
C6_8 O16_4 1_555 1_555
C7_8 C8_8 1_555 1_555
C8_8 H2_8 1_555 1_555
C10_8 C2_8 1_555 1_555
C11_8 C7_8 1_555 1_555
H3_8 C11_8 1_555 1_555
C12_8 C6_8 1_555 1_555
C13_8 C5_8 1_555 1_555
H4_8 C13_8 1_555 1_555
C14_8 C2_8 1_555 1_555
H5_8 C14_8 1_555 1_555
C15_8 C4_8 1_555 1_555
H6_8 C15_8 1_555 1_555
O17 C16_8 1_555 1_555
C16_8 C7_8 1_555 1_555
C8_8 C12_8 1_555 1_555
C11_8 C13_8 1_555 1_555
C14_8 C15_8 1_555 1_555
O14_3 C17_8 1_555 1_555
O7_8 C17_8 1_555 1_555
C17_8 C18_8 1_555 1_555
H8_8 C18_8 1_555 1_555
H9_8 C18_8 1_555 1_555

#END
