
###############################################################################
#
# This file contains modified crystal structure data generated from the
# MOF subset of the Cambridge Structural Database (CSD) v543 
# hosted by the Cambridge Crystallographic Data Centre (CCDC).
#
# This work is licensed under the Creative Commons
# Attribution-NonCommercial-ShareAlike 4.0 International License.
# To view a copy of this license, visit
# http://creativecommons.org/licenses/by-nc-sa/4.0/
# or send a letter to
# Creative Commons, PO Box 1866, Mountain View, CA 94042, USA.
#
# CIF created using the CSD Python API on 29 September 2022
# The structure has been converted into the P1 space group
# The structure has a 3D framework
# The original CSD entry DORDUK is in the trigonal crystal system
# The original CSD entry DORDUK is in a Sohncke space group
# The framework has been calculated to contain at least 10.0% void space
# The void calculation uses a probe of radius 1.32A, grid spacing 0.4
#
###############################################################################

data_DORDUK
_chemical_formula_moiety         '(C72 H120 In5 N6 O20 3+)n'
_symmetry_cell_setting           triclinic
_symmetry_space_group_name_H-M   'P 1'
_symmetry_Int_Tables_number      1
_space_group_name_Hall           'P 1'
loop_
_symmetry_equiv_pos_site_id
_symmetry_equiv_pos_as_xyz
1 x,y,z
_cell_length_a                   12.7624(2)
_cell_length_b                   12.7624(2)
_cell_length_c                   17.6291(5)
_cell_angle_alpha                90
_cell_angle_beta                 90
_cell_angle_gamma                120
_cell_volume                     2486.71
loop_
_atom_site_label
_atom_site_type_symbol
_atom_site_fract_x
_atom_site_fract_y
_atom_site_fract_z
In1 In -0.0000 0.37204(7) 0.1667
O1 O 0.2057(7) 0.5026(8) 0.1548(4)
O2 O 0.5161(8) 0.4936(7) 0.4142(4)
O3 O 0.1411(6) 0.3153(8) 0.1800(3)
O4 O 0.6477(7) 0.6696(8) 0.3677(4)
C1 C 0.3575(8) 0.4524(10) 0.1870(5)
C2 C 0.4135(9) 0.5383(10) 0.2543(5)
C3 C 0.5186(9) 0.5184(10) 0.2777(5)
H1 H 0.5862 0.5636 0.2427
C4 C 0.4700(14) 0.3846(13) 0.2654(7)
H2 H 0.5327 0.3709 0.2448
H3 H 0.4423 0.3412 0.3130
C5 C 0.3664(13) 0.3416(14) 0.2104(8)
H4 H 0.2916 0.2817 0.2342
H5 H 0.3809 0.3052 0.1663
C6 C 0.4293(11) 0.5113(16) 0.1109(6)
H6 H 0.5128 0.5342 0.1175
H7 H 0.4236 0.5816 0.0989
H8 H 0.3951 0.4537 0.0704
C7 C 0.3209(10) 0.5082(13) 0.3182(5)
H9 H 0.2885 0.4254 0.3334
H10 H 0.2565 0.5201 0.3005
H11 H 0.3598 0.5602 0.3608
C8 C 0.4584(16) 0.6745(12) 0.2340(9)
H12 H 0.5189 0.7009 0.1951
H13 H 0.4922 0.7237 0.2784
H14 H 0.3913 0.6819 0.2162
C9 C 0.2259(9) 0.4199(13) 0.1726(5)
C10 C 0.5631(10) 0.5616(12) 0.3586(6)
In2 In 0.62796(7) 0.62796(7) 0.5000
O8 O 0.0225(11) 0.5064(7) 0.2525(4)
O11 O 0.0219(11) 0.3523(7) 0.0344(4)
In1_2 In 1.0000 0.37204(7) 0.1667
O5 O 0.7943(7) 0.2969(11) 0.1785(4)
O7 O 0.9775(11) 0.4839(8) 0.0809(4)
O9 O 0.8589(6) 0.1742(10) 0.1533(3)
O12 O 0.9781(11) 0.3304(8) 0.2990(4)
C11 C 0.6425(8) 0.0949(13) 0.1463(5)
C12 C 0.5865(9) 0.1248(13) 0.0790(5)
C16 C 0.5707(11) 0.0820(19) 0.2224(6)
H20 H 0.4872 0.0214 0.2158
H21 H 0.5764 0.1580 0.2344
H22 H 0.6049 0.0586 0.2629
C17 C 0.6791(10) 0.1873(16) 0.0151(5)
H24 H 0.7435 0.2636 0.0328
C18 C 0.5416(16) 0.2161(20) 0.0993(9)
H26 H 0.4811 0.1820 0.1382
H27 H 0.5078 0.2315 0.0549
H28 H 0.6087 0.2906 0.1171
C19 C 0.7741(9) 0.1940(16) 0.1607(5)
In3 In 0.37204(7) 0.0000 0.8333
O10 O 0.3523(7) 0.0219(11) 0.9656(4)
H23 H 0.7115 0.1369 0.9999
H25 H 0.6402 0.2004 0.9725
In3_2 In 0.37204(7) 1.0000 0.8333
O6 O 0.4839(8) 0.9775(11) 0.9191(4)
C20 C 0.4369(10) 0.9985(16) 0.9747(6)
C13 C 0.0002(13) 0.4816(16) 0.3890(5)
H15 H 0.0226 0.4364 0.4240
C14 C 0.0854(19) 0.6154(24) 0.4013(7)
H16 H 0.1618 0.6291 0.4219
H17 H 0.1011 0.6588 0.3537
C15 C 0.0248(19) 0.6584(23) 0.4563(8)
H18 H 0.0099 0.7183 0.4325
H19 H 0.0757 0.6948 0.5004
C20_2 C 0.0015(16) 0.4384(19) 0.3081(6)
O2_2 O 0.5064(7) 0.0225(11) 0.7475(4)
C3_2 C 0.4816(10) 0.0002(13) 0.6110(5)
H1_2 H 0.4364 0.0226 0.5760
C4_2 C 0.6154(13) 0.0854(19) 0.5987(7)
H2_2 H 0.6291 0.1618 0.5781
H3_2 H 0.6588 0.1011 0.6463
C5_2 C 0.6584(14) 0.0248(19) 0.5437(8)
H4_2 H 0.7183 0.0099 0.5675
H5_2 H 0.6948 0.0757 0.4996
C10_2 C 0.4384(12) 0.0015(16) 0.6919(6)
O1_2 O 0.4974(8) 0.7031(11) 0.4881(4)
O3_2 O 0.6847(8) 0.8258(10) 0.5133(3)
O4_2 O 0.3304(8) 0.9781(11) 0.7010(4)
C1_2 C 0.5476(10) 0.9051(13) 0.5203(5)
C2_2 C 0.4617(10) 0.8752(13) 0.5876(5)
C6_2 C 0.4887(16) 0.9180(19) 0.4442(6)
H6_2 H 0.4658 0.9786 0.4508
H7_2 H 0.4184 0.8420 0.4322
H8_2 H 0.5463 0.9414 0.4037
C7_2 C 0.4918(13) 0.8127(16) 0.6515(5)
H9_2 H 0.5746 0.8631 0.6667
H10_2 H 0.4799 0.7364 0.6338
H11_2 H 0.4398 0.7996 0.6941
C8_2 C 0.3255(12) 0.7839(20) 0.5673(9)
H12_2 H 0.2991 0.8180 0.5284
H13_2 H 0.2763 0.7685 0.6117
H14_2 H 0.3181 0.7094 0.5495
C9_2 C 0.5801(13) 0.8060(16) 0.5059(5)
O5_2 O 0.7031(11) 0.4974(13) 0.5119(4)
O8_2 O 0.4936(7) 0.5161(13) 0.5858(4)
O9_2 O 0.8258(10) 0.6847(12) 0.4867(3)
O12_2 O 0.6696(8) 0.6477(14) 0.6323(4)
C11_2 C 0.9051(13) 0.5476(15) 0.4797(5)
C12_2 C 0.8752(13) 0.4617(16) 0.4124(5)
C16_2 C 0.9180(19) 0.4887(22) 0.5558(6)
H20_2 H 0.9786 0.4658 0.5492
H21_2 H 0.8420 0.4184 0.5678
H22_2 H 0.9414 0.5463 0.5963
C17_2 C 0.8127(16) 0.4918(19) 0.3485(5)
H23_2 H 0.8631 0.5746 0.3333
H24_2 H 0.7364 0.4799 0.3662
H25_2 H 0.7996 0.4398 0.3059
C18_2 C 0.7839(20) 0.3255(26) 0.4327(9)
H26_2 H 0.8180 0.2991 0.4716
H27_2 H 0.7685 0.2763 0.3883
H28_2 H 0.7094 0.3181 0.4505
C19_2 C 0.8060(16) 0.5801(18) 0.4941(5)
O5_3 O 0.5026(13) 0.2057(7) 0.8452(4)
O9_3 O 0.3153(12) 0.1411(6) 0.8200(3)
C11_3 C 0.4524(15) 0.3575(8) 0.8130(5)
C12_3 C 0.5383(16) 0.4135(9) 0.7457(5)
C13_2 C 0.5184(16) 0.5186(9) 0.7223(5)
H15_2 H 0.5636 0.5862 0.7573
C14_2 C 0.3846(24) 0.4700(14) 0.7346(7)
H16_2 H 0.3709 0.5327 0.7552
H17_2 H 0.3412 0.4423 0.6870
C15_2 C 0.3416(23) 0.3664(13) 0.7896(8)
H18_2 H 0.2817 0.2916 0.7658
H19_2 H 0.3052 0.3809 0.8337
C16_3 C 0.5113(22) 0.4293(11) 0.8891(6)
H20_3 H 0.5342 0.5128 0.8825
H21_3 H 0.5816 0.4236 0.9011
H22_3 H 0.4537 0.3951 0.9296
C17_3 C 0.5082(19) 0.3209(10) 0.6818(5)
H23_3 H 0.4254 0.2885 0.6666
H24_3 H 0.5201 0.2565 0.6995
H25_3 H 0.5602 0.3598 0.6392
C18_3 C 0.6745(26) 0.4584(16) 0.7660(9)
H26_3 H 0.7009 0.5189 0.8049
H27_3 H 0.7237 0.4922 0.7216
H28_3 H 0.6819 0.3913 0.7838
C19_3 C 0.4199(18) 0.2259(9) 0.8274(5)
C20_3 C 0.5616(19) 0.5631(10) 0.6414(6)
H9_3 H 0.1369 0.7115 0.0001
H11_3 H 0.2004 0.6402 0.0275
O1_3 O 0.2969(11) 0.7943(7) 0.8215(4)
O3_3 O 0.1742(10) 0.8589(6) 0.8467(3)
C1_3 C 0.0949(13) 0.6425(8) 0.8537(5)
C2_3 C 0.1248(13) 0.5865(9) 0.9210(5)
C6_3 C 0.0820(19) 0.5707(11) 0.7776(6)
H6_3 H 0.0214 0.4872 0.7842
H7_3 H 0.1580 0.5764 0.7656
H8_3 H 0.0586 0.6049 0.7371
C7_3 C 0.1873(16) 0.6791(10) 0.9849(5)
H10_3 H 0.2636 0.7435 0.9672
C8_3 C 0.2161(20) 0.5416(16) 0.9007(9)
H12_3 H 0.1820 0.4811 0.8618
H13_3 H 0.2315 0.5078 0.9451
H14_3 H 0.2906 0.6087 0.8829
C9_3 C 0.1940(16) 0.7741(9) 0.8393(5)
C10_3 C 0.9985(16) 0.4369(10) 0.0253(6)
C13_3 C 0.4814(9) 0.9998(13) 0.0556(5)
H15_3 H 0.4138 0.9774 0.0906
C14_3 C 0.5300(14) 0.9146(19) 0.0679(7)
H16_3 H 0.4673 0.8382 0.0885
H17_3 H 0.5577 0.8989 0.0203
C15_3 C 0.6336(13) 0.9752(19) 0.1229(8)
H18_3 H 0.7084 0.9901 0.0991
H19_3 H 0.6191 0.9243 0.1670
C3_3 C 0.9998(13) 0.4814(9) 0.9444(5)
H1_3 H 0.9774 0.4138 0.9094
C4_3 C 0.9146(19) 0.5300(14) 0.9321(7)
H2_3 H 0.8382 0.4673 0.9115
H3_3 H 0.8989 0.5577 0.9797
C5_3 C 0.9752(19) 0.6336(13) 0.8771(8)
H4_3 H 0.9901 0.7084 0.9009
H5_3 H 0.9243 0.6191 0.8330
C21 C 0.0343(16) 0.0911(15) 0.2975(8)
H29 H 0.0883 0.1450 0.3355
H30 H 0.0154 0.1361 0.2618
H31 H 0.0722 0.0528 0.2716
H37 H 0.0194 0.9472 0.3951
N1 N 0.9242(14) 0.0000 0.3333
C24 C 0.891(4) 0.063(3) 0.3912(12)
H38 H 0.8800 0.1243 0.3670
H39 H 0.9542 0.0997 0.4283
H40 H 0.8169 0.0056 0.4156
C22 C 0.828(3) 0.937(3) 0.2755(12)
H32 H 0.7557 0.8757 0.2997
H33 H 0.8545 0.9003 0.2384
H34 H 0.8113 0.9944 0.2511
N1_2 N 0.9242(14) 1.0000 0.3333
C23 C 0.9432(22) 0.9089(15) 0.3692(8)
H35 H 0.9433 0.8550 0.3312
H36 H 0.8793 0.8639 0.4049
C23_2 C 0.0911(15) 0.0343(27) 0.7025(8)
H35_2 H 0.1450 0.0883 0.6645
H36_2 H 0.1361 0.0154 0.7382
H37_2 H 0.0528 0.0722 0.7284
C22_2 C 0.063(3) 0.891(4) 0.6088(12)
H32_2 H 0.1243 0.8800 0.6330
H33_2 H 0.0997 0.9542 0.5717
H34_2 H 0.0056 0.8169 0.5844
N1_3 N 0.0000 0.9242(14) 0.6666
H31_2 H 0.9472 0.0194 0.6049
C21_2 C 0.9089(15) 0.9432(22) 0.6308(8)
H29_2 H 0.8550 0.9433 0.6688
H30_2 H 0.8639 0.8793 0.5951
N1_4 N 1.0000 0.9242(14) 0.6666
C24_2 C 0.937(3) 0.828(5) 0.7245(12)
H38_2 H 0.8757 0.7557 0.7003
H39_2 H 0.9003 0.8545 0.7616
H40_2 H 0.9944 0.8113 0.7489
N1_5 N 0.0758(14) 0.0758(14) -0.0000
C24_3 C 0.172(5) 0.109(4) 0.0578(12)
H38_3 H 0.2443 0.1200 0.0336
H39_3 H 0.1455 0.0458 0.0949
H40_3 H 0.1887 0.1831 0.0822
C22_3 C 0.109(4) 0.172(3) 0.9422(12)
H32_3 H 0.1200 0.2443 0.9664
H33_3 H 0.0458 0.1455 0.9051
H34_3 H 0.1831 0.1887 0.9178
N1_6 N 0.0758(14) 0.0758(14) 1.0000
H29_3 H 0.0567 0.9117 0.0022
C21_3 C 0.0568(22) 0.9657(16) 0.9642(8)
H30_3 H 0.1207 0.9846 0.9285
C23_3 C 0.9657(27) 0.0568(22) 0.0358(8)
H36_3 H 0.9846 0.1207 0.0715
H35_3 H 0.9117 0.0567 0.9978
H37_3 H 0.9278 0.9806 0.0617
H31_3 H 0.9806 0.9278 0.9383
loop_
_geom_bond_atom_site_label_1
_geom_bond_atom_site_label_2
_geom_bond_site_symmetry_1
_geom_bond_site_symmetry_2
In1 O1 1_555 1_555
O1 C9 1_555 1_555
O2 C10 1_555 1_555
O3 In1 1_555 1_555
O4 C10 1_555 1_555
C1 C2 1_555 1_555
C2 C3 1_555 1_555
C3 H1 1_555 1_555
C4 C3 1_555 1_555
H2 C4 1_555 1_555
H3 C4 1_555 1_555
C5 C1 1_555 1_555
H4 C5 1_555 1_555
H5 C5 1_555 1_555
C6 C1 1_555 1_555
H6 C6 1_555 1_555
H7 C6 1_555 1_555
H8 C6 1_555 1_555
C7 C2 1_555 1_555
H9 C7 1_555 1_555
H10 C7 1_555 1_555
H11 C7 1_555 1_555
C8 C2 1_555 1_555
H12 C8 1_555 1_555
H13 C8 1_555 1_555
H14 C8 1_555 1_555
C9 O3 1_555 1_555
C10 C3 1_555 1_555
In2 O2 1_555 1_555
O8 In1 1_555 1_555
O11 In1 1_555 1_555
O4 In2 1_555 1_555
C1 C9 1_555 1_555
C4 C5 1_555 1_555
O5 In1_2 1_555 1_555
O7 In1_2 1_555 1_555
O9 In1_2 1_555 1_555
O12 In1_2 1_555 1_555
C11 C12 1_555 1_555
C16 C11 1_555 1_555
H20 C16 1_555 1_555
H21 C16 1_555 1_555
H22 C16 1_555 1_555
C17 C12 1_555 1_555
H24 C17 1_555 1_555
C18 C12 1_555 1_555
H26 C18 1_555 1_555
H27 C18 1_555 1_555
H28 C18 1_555 1_555
C19 O5 1_555 1_555
O9 C19 1_555 1_555
C11 C19 1_555 1_555
O10 In3 1_555 1_555
In3_2 O6 1_555 1_555
O6 C20 1_555 1_555
O8 C20_2 1_555 1_555
C13 H15 1_555 1_555
C14 C13 1_555 1_555
H16 C14 1_555 1_555
H17 C14 1_555 1_555
H18 C15 1_555 1_555
H19 C15 1_555 1_555
C13 C20_2 1_555 1_555
C14 C15 1_555 1_555
O2_2 C10_2 1_555 1_555
C3_2 H1_2 1_555 1_555
C4_2 C3_2 1_555 1_555
H2_2 C4_2 1_555 1_555
H3_2 C4_2 1_555 1_555
H4_2 C5_2 1_555 1_555
H5_2 C5_2 1_555 1_555
C10_2 C3_2 1_555 1_555
In3 O2_2 1_555 1_555
C4_2 C5_2 1_555 1_555
In2 O1_2 1_555 1_555
O1_2 C9_2 1_555 1_555
O3_2 In2 1_555 1_555
C1_2 C2_2 1_555 1_555
C6_2 C1_2 1_555 1_555
H6_2 C6_2 1_555 1_555
H7_2 C6_2 1_555 1_555
H8_2 C6_2 1_555 1_555
C7_2 C2_2 1_555 1_555
H9_2 C7_2 1_555 1_555
H10_2 C7_2 1_555 1_555
H11_2 C7_2 1_555 1_555
C8_2 C2_2 1_555 1_555
H12_2 C8_2 1_555 1_555
H13_2 C8_2 1_555 1_555
H14_2 C8_2 1_555 1_555
C9_2 O3_2 1_555 1_555
O5_2 In2 1_555 1_555
O8_2 In2 1_555 1_555
O9_2 In2 1_555 1_555
O12_2 In2 1_555 1_555
C11_2 C12_2 1_555 1_555
C16_2 C11_2 1_555 1_555
H20_2 C16_2 1_555 1_555
H21_2 C16_2 1_555 1_555
H22_2 C16_2 1_555 1_555
C17_2 C12_2 1_555 1_555
H23_2 C17_2 1_555 1_555
H24_2 C17_2 1_555 1_555
H25_2 C17_2 1_555 1_555
C18_2 C12_2 1_555 1_555
H26_2 C18_2 1_555 1_555
H27_2 C18_2 1_555 1_555
H28_2 C18_2 1_555 1_555
C19_2 O5_2 1_555 1_555
O4_2 In3_2 1_555 1_555
C1_2 C9_2 1_555 1_555
O9_2 C19_2 1_555 1_555
C11_2 C19_2 1_555 1_555
O5_3 In3 1_555 1_555
O8_2 C20_3 1_555 1_555
O9_3 In3 1_555 1_555
C11_3 C12_3 1_555 1_555
C12_3 C13_2 1_555 1_555
C13_2 H15_2 1_555 1_555
C14_2 C13_2 1_555 1_555
H16_2 C14_2 1_555 1_555
H17_2 C14_2 1_555 1_555
C15_2 C11_3 1_555 1_555
H18_2 C15_2 1_555 1_555
H19_2 C15_2 1_555 1_555
C16_3 C11_3 1_555 1_555
H20_3 C16_3 1_555 1_555
H21_3 C16_3 1_555 1_555
H22_3 C16_3 1_555 1_555
C17_3 C12_3 1_555 1_555
H23_3 C17_3 1_555 1_555
H24_3 C17_3 1_555 1_555
H25_3 C17_3 1_555 1_555
C18_3 C12_3 1_555 1_555
H26_3 C18_3 1_555 1_555
H27_3 C18_3 1_555 1_555
H28_3 C18_3 1_555 1_555
C19_3 O5_3 1_555 1_555
C20_3 O12_2 1_555 1_555
O9_3 C19_3 1_555 1_555
C11_3 C19_3 1_555 1_555
C13_2 C20_3 1_555 1_555
C14_2 C15_2 1_555 1_555
In3_2 O1_3 1_555 1_555
O1_3 C9_3 1_555 1_555
O3_3 In3_2 1_555 1_555
C1_3 C2_3 1_555 1_555
C6_3 C1_3 1_555 1_555
H6_3 C6_3 1_555 1_555
H7_3 C6_3 1_555 1_555
H8_3 C6_3 1_555 1_555
C7_3 C2_3 1_555 1_555
H10_3 C7_3 1_555 1_555
C8_3 C2_3 1_555 1_555
H12_3 C8_3 1_555 1_555
H13_3 C8_3 1_555 1_555
H14_3 C8_3 1_555 1_555
C9_3 O3_3 1_555 1_555
C1_3 C9_3 1_555 1_555
O7 C10_3 1_555 1_555
C13_3 H15_3 1_555 1_555
C14_3 C13_3 1_555 1_555
H16_3 C14_3 1_555 1_555
H17_3 C14_3 1_555 1_555
H18_3 C15_3 1_555 1_555
H19_3 C15_3 1_555 1_555
C14_3 C15_3 1_555 1_555
C3_3 H1_3 1_555 1_555
C4_3 C3_3 1_555 1_555
H2_3 C4_3 1_555 1_555
H3_3 C4_3 1_555 1_555
H4_3 C5_3 1_555 1_555
H5_3 C5_3 1_555 1_555
C4_3 C5_3 1_555 1_555
C21 H29 1_555 1_555
H30 C21 1_555 1_555
H31 C21 1_555 1_555
C24 N1 1_555 1_555
H38 C24 1_555 1_555
H39 C24 1_555 1_555
H40 C24 1_555 1_555
C22 H32 1_555 1_555
H33 C22 1_555 1_555
H34 C22 1_555 1_555
C23 N1_2 1_555 1_555
H35 C23 1_555 1_555
H36 C23 1_555 1_555
C22 N1_2 1_555 1_555
H35_2 C23_2 1_555 1_555
H36_2 C23_2 1_555 1_555
H37_2 C23_2 1_555 1_555
C22_2 H32_2 1_555 1_555
H33_2 C22_2 1_555 1_555
H34_2 C22_2 1_555 1_555
C22_2 N1_3 1_555 1_555
C21_2 H29_2 1_555 1_555
H30_2 C21_2 1_555 1_555
N1_4 C21_2 1_555 1_555
C24_2 N1_4 1_555 1_555
H38_2 C24_2 1_555 1_555
H39_2 C24_2 1_555 1_555
H40_2 C24_2 1_555 1_555
C24_3 N1_5 1_555 1_555
H38_3 C24_3 1_555 1_555
H39_3 C24_3 1_555 1_555
H40_3 C24_3 1_555 1_555
C22_3 H32_3 1_555 1_555
H33_3 C22_3 1_555 1_555
H34_3 C22_3 1_555 1_555
C22_3 N1_6 1_555 1_555
H30_3 C21_3 1_555 1_555
H36_3 C23_3 1_555 1_555

#END
