
###############################################################################
#
# This file contains modified crystal structure data generated from the
# MOF subset of the Cambridge Structural Database (CSD) v543 
# hosted by the Cambridge Crystallographic Data Centre (CCDC).
#
# This work is licensed under the Creative Commons
# Attribution-NonCommercial-ShareAlike 4.0 International License.
# To view a copy of this license, visit
# http://creativecommons.org/licenses/by-nc-sa/4.0/
# or send a letter to
# Creative Commons, PO Box 1866, Mountain View, CA 94042, USA.
#
# CIF created using the CSD Python API on 29 September 2022
# The structure has been converted into the P1 space group
# The structure has a 3D framework
# The original CSD entry DORFAS is in the trigonal crystal system
# The original CSD entry DORFAS is in a Sohncke space group
# The framework has been calculated to contain at least 10.0% void space
# The void calculation uses a probe of radius 1.32A, grid spacing 0.4
# The framework is charged, counterions have been retained in the structure
#
###############################################################################

data_DORFAS
_chemical_formula_moiety         '(C60 H84 In6 O20 3-)n'
_symmetry_cell_setting           triclinic
_symmetry_space_group_name_H-M   'P 1'
_symmetry_Int_Tables_number      1
_space_group_name_Hall           'P 1'
loop_
_symmetry_equiv_pos_site_id
_symmetry_equiv_pos_as_xyz
1 x,y,z
_cell_length_a                   12.8708(1)
_cell_length_b                   12.8708(1)
_cell_length_c                   17.2433(4)
_cell_angle_alpha                90
_cell_angle_beta                 90
_cell_angle_gamma                120
_cell_volume                     2473.79
loop_
_atom_site_label
_atom_site_type_symbol
_atom_site_fract_x
_atom_site_fract_y
_atom_site_fract_z
H19 H 0.0734 0.6812 0.0118
In3 In -0.00000(7) 0.37530(5) 0.6667
O10 O 0.0240(5) 0.5135(5) 0.7544(3)
C13 C 0.0013(7) 0.4887(8) 0.8935(4)
H15 H 0.0269 0.4480 0.9304
C14 C 0.0786(10) 0.6254(10) 0.9042(5)
H16 H 0.1602 0.6476 0.9180
H17 H 0.0803 0.6669 0.8568
C15 C 0.0216(9) 0.6551(10) 0.9666(6)
H18 H 0.0095 0.7205 0.9504
C20 C 0.0045(6) 0.4460(8) 0.8107(4)
O4 O 0.5135(5) 0.0240(5) 0.2456(3)
C3 C 0.4887(8) 0.0013(7) 0.1065(4)
H1 H 0.4480 0.0269 0.0696
C4 C 0.6254(10) 0.0786(10) 0.0958(5)
H2 H 0.6476 0.1602 0.0820
H3 H 0.6669 0.0803 0.1432
C5 C 0.6551(10) 0.0216(9) 0.0334(6)
H4 H 0.7205 0.0095 0.0496
C10 C 0.4460(8) 0.0045(6) 0.1893(4)
In2 In 0.37530(5) 0.00000(7) 0.3333
In1 In 0.62470(5) 0.62470(5) 0.0000
O1 O 0.6808(5) 0.8195(5) 0.0105(3)
O3 O 0.3402(5) 0.9837(5) 0.1995(3)
C1 C 0.5446(8) 0.8996(7) 0.0124(4)
C2 C 0.4631(8) 0.8738(8) 0.0851(4)
C7 C 0.3223(9) 0.7906(10) 0.0659(6)
H9 H 0.2764 0.7777 0.1124
H10 H 0.3076 0.7148 0.0459
H11 H 0.2990 0.8297 0.0280
C8 C 0.4933(9) 0.8132(8) 0.1494(4)
H12 H 0.5770 0.8605 0.1619
H13 H 0.4757 0.7349 0.1327
H14 H 0.4464 0.8058 0.1945
C9 C 0.5746(9) 0.7995(8) 0.0013(3)
In2_2 In 0.37530(5) 1.00000(7) 0.3333
O6 O 0.6964(6) 0.4923(5) 0.0151(3)
O9 O 0.6598(5) 0.6435(7) 0.1338(3)
O12 O 0.4865(5) 0.5105(7) 0.0877(3)
C16 C 0.9071(11) 0.4861(12) 0.0620(5)
H20 H 0.9226 0.5397 0.1047
H21 H 0.9709 0.4682 0.0580
H22 H 0.8326 0.4132 0.0704
In1_2 In 0.62470(5) 0.62470(5) 1.0000
O2 O 0.4923(5) 0.6964(6) 0.9849(3)
C6 C 0.4861(12) 0.9071(11) 0.9380(5)
H6 H 0.5397 0.9226 0.8953
H7 H 0.4682 0.9709 0.9420
H8 H 0.4132 0.8326 0.9296
In3_2 In 1.00000(7) 0.37530(5) 0.6667
O5 O 0.8195(5) 0.6808(5) 0.9895(3)
O7 O 0.9837(5) 0.3402(5) 0.8005(3)
O8 O 0.6435(7) 0.6598(5) 0.8662(3)
O11 O 0.5105(7) 0.4865(5) 0.9123(3)
C11 C 0.8996(7) 0.5446(8) 0.9876(4)
C12 C 0.8738(8) 0.4631(8) 0.9149(4)
C17 C 0.7906(10) 0.3223(9) 0.9341(6)
H23 H 0.7777 0.2764 0.8876
H24 H 0.7148 0.3076 0.9541
H25 H 0.8297 0.2990 0.9720
C18 C 0.8132(8) 0.4933(9) 0.8506(4)
H26 H 0.8605 0.5770 0.8381
H27 H 0.7349 0.4757 0.8673
H28 H 0.8058 0.4464 0.8055
C19 C 0.7995(8) 0.5746(9) 0.9987(3)
O5_2 O 0.3192(5) 0.1387(7) 0.3228(3)
O6_2 O 0.5077(5) 0.2041(8) 0.3484(3)
O9_2 O 0.3565(7) 0.0163(9) 0.4672(3)
C11_2 C 0.4554(8) 0.3550(11) 0.3209(4)
C12_2 C 0.5369(8) 0.4107(11) 0.2482(4)
C13_2 C 0.5113(8) 0.5126(11) 0.2268(4)
H15_2 H 0.5520 0.5789 0.2637
C14_2 C 0.3746(10) 0.4532(14) 0.2375(5)
H16_2 H 0.3524 0.5126 0.2513
H17_2 H 0.3331 0.4134 0.1901
C15_2 C 0.3449(10) 0.3665(13) 0.2999(6)
H18_2 H 0.2795 0.2890 0.2837
H19_2 H 0.3188 0.3922 0.3451
C16_2 C 0.5139(12) 0.4210(16) 0.3953(5)
H20_2 H 0.4603 0.3829 0.4380
H21_2 H 0.5318 0.5027 0.3913
H22_2 H 0.5868 0.4194 0.4037
C17_2 C 0.6777(9) 0.4683(13) 0.2674(6)
H23_2 H 0.7236 0.5013 0.2209
H24_2 H 0.6924 0.4072 0.2874
H25_2 H 0.7010 0.5307 0.3053
C18_2 C 0.5067(9) 0.3199(12) 0.1839(4)
H26_2 H 0.4230 0.2835 0.1714
H27_2 H 0.5243 0.2592 0.2006
H28_2 H 0.5536 0.3594 0.1388
C19_2 C 0.4254(9) 0.2249(12) 0.3320(3)
C20_2 C 0.5540(8) 0.5585(10) 0.1440(4)
O1_2 O 0.1805(5) 0.8613(7) 0.3438(3)
O2_2 O 0.3036(6) 0.7959(8) 0.3182(3)
O3_2 O 0.0163(5) 0.3565(7) 0.5328(3)
C1_2 C 0.1004(7) 0.6450(11) 0.3457(4)
C2_2 C 0.1262(8) 0.5893(11) 0.4184(4)
C6_2 C 0.0929(11) 0.5790(16) 0.2713(5)
H6_2 H 0.0774 0.6171 0.2286
H7_2 H 0.0291 0.4973 0.2753
H8_2 H 0.1674 0.5806 0.2629
C7_2 C 0.2094(10) 0.5317(13) 0.3992(6)
H9_2 H 0.2223 0.4987 0.4457
H10_2 H 0.2852 0.5928 0.3792
H11_2 H 0.1703 0.4693 0.3613
C8_2 C 0.1868(8) 0.6801(12) 0.4827(4)
H12_2 H 0.1395 0.7165 0.4952
H13_2 H 0.2651 0.7408 0.4660
H14_2 H 0.1942 0.6406 0.5278
C9_2 C 0.2005(8) 0.7751(12) 0.3346(3)
O12_2 O 0.4895(7) 0.9760(9) 0.4211(3)
O4_2 O 0.9760(5) 0.4895(7) 0.5789(3)
C3_2 C 0.9987(7) 0.4874(11) 0.4398(4)
H1_2 H 0.9731 0.4211 0.4029
C4_2 C 0.9214(10) 0.5468(14) 0.4291(5)
H2_2 H 0.8398 0.4874 0.4153
H3_2 H 0.9197 0.5866 0.4765
C5_2 C 0.9784(9) 0.6335(13) 0.3667(6)
H4_2 H 0.9905 0.7110 0.3829
H5 H 0.9266 0.6078 0.3215
C10_2 C 0.9955(6) 0.4415(10) 0.5226(4)
O1_3 O 0.1387(7) 0.3192(5) 0.6772(3)
O2_3 O 0.2041(8) 0.5077(5) 0.6516(3)
C1_3 C 0.3550(11) 0.4554(8) 0.6791(4)
C2_3 C 0.4107(11) 0.5369(8) 0.7518(4)
C3_3 C 0.5126(11) 0.5113(8) 0.7732(4)
H1_3 H 0.5789 0.5520 0.7363
C4_3 C 0.4532(14) 0.3746(10) 0.7625(5)
H2_3 H 0.5126 0.3524 0.7487
H3_3 H 0.4134 0.3331 0.8099
C5_3 C 0.3665(13) 0.3449(10) 0.7001(6)
H4_3 H 0.2890 0.2795 0.7163
H5_2 H 0.3922 0.3188 0.6549
C6_3 C 0.4210(16) 0.5139(12) 0.6047(5)
H6_3 H 0.3829 0.4603 0.5620
H7_3 H 0.5027 0.5318 0.6087
H8_3 H 0.4194 0.5868 0.5963
C7_3 C 0.4683(13) 0.6777(9) 0.7326(6)
H9_3 H 0.5013 0.7236 0.7791
H10_3 H 0.4072 0.6924 0.7126
H11_3 H 0.5307 0.7010 0.6947
C8_3 C 0.3199(12) 0.5067(9) 0.8161(4)
H12_3 H 0.2835 0.4230 0.8286
H13_3 H 0.2592 0.5243 0.7994
H14_3 H 0.3594 0.5536 0.8612
C9_3 C 0.2249(12) 0.4254(9) 0.6680(3)
C10_3 C 0.5585(10) 0.5540(8) 0.8560(4)
O5_3 O 0.8613(7) 0.1805(5) 0.6562(3)
O6_3 O 0.7959(8) 0.3036(6) 0.6818(3)
C11_3 C 0.6450(11) 0.1004(7) 0.6543(4)
C12_3 C 0.5893(11) 0.1262(8) 0.5816(4)
C16_3 C 0.5790(16) 0.0929(11) 0.7287(5)
H20_3 H 0.6171 0.0774 0.7714
H21_3 H 0.4973 0.0291 0.7247
H22_3 H 0.5806 0.1674 0.7371
C17_3 C 0.5317(13) 0.2094(10) 0.6008(6)
H23_3 H 0.4987 0.2223 0.5543
H24_3 H 0.5928 0.2852 0.6208
H25_3 H 0.4693 0.1703 0.6387
C18_3 C 0.6801(12) 0.1868(8) 0.5173(4)
H26_3 H 0.7165 0.1395 0.5048
H27_3 H 0.7408 0.2651 0.5340
H28_3 H 0.6406 0.1942 0.4722
C19_3 C 0.7751(12) 0.2005(8) 0.6654(3)
C13_3 C 0.4874(11) 0.9987(7) 0.5602(4)
H15_3 H 0.4211 0.9731 0.5971
C14_3 C 0.5468(14) 0.9214(10) 0.5709(5)
H16_3 H 0.4874 0.8398 0.5847
H17_3 H 0.5866 0.9197 0.5235
C15_3 C 0.6335(13) 0.9784(9) 0.6333(6)
H18_3 H 0.7110 0.9905 0.6171
H19_3 H 0.6078 0.9266 0.6785
C20_3 C 0.4415(10) 0.9955(6) 0.4774(4)
H5_3 H 0.6812 0.0734 0.9882
loop_
_geom_bond_atom_site_label_1
_geom_bond_atom_site_label_2
_geom_bond_site_symmetry_1
_geom_bond_site_symmetry_2
O10 In3 1_555 1_555
C13 H15 1_555 1_555
C14 C13 1_555 1_555
H16 C14 1_555 1_555
H17 C14 1_555 1_555
H18 C15 1_555 1_555
C20 O10 1_555 1_555
C13 C20 1_555 1_555
C14 C15 1_555 1_555
O4 C10 1_555 1_555
C3 H1 1_555 1_555
C4 C3 1_555 1_555
H2 C4 1_555 1_555
H3 C4 1_555 1_555
H4 C5 1_555 1_555
C10 C3 1_555 1_555
O4 In2 1_555 1_555
C4 C5 1_555 1_555
In1 O1 1_555 1_555
O1 C9 1_555 1_555
C1 C2 1_555 1_555
C7 C2 1_555 1_555
H9 C7 1_555 1_555
H10 C7 1_555 1_555
H11 C7 1_555 1_555
C8 C2 1_555 1_555
H12 C8 1_555 1_555
H13 C8 1_555 1_555
H14 C8 1_555 1_555
In2_2 O3 1_555 1_555
O6 In1 1_555 1_555
O9 In1 1_555 1_555
O12 In1 1_555 1_555
H20 C16 1_555 1_555
H21 C16 1_555 1_555
H22 C16 1_555 1_555
C1 C9 1_555 1_555
O2 In1_2 1_555 1_555
H6 C6 1_555 1_555
H7 C6 1_555 1_555
H8 C6 1_555 1_555
In3_2 O7 1_555 1_555
O5 In1_2 1_555 1_555
O8 In1_2 1_555 1_555
O11 In1_2 1_555 1_555
C11 C12 1_555 1_555
C17 C12 1_555 1_555
H23 C17 1_555 1_555
H24 C17 1_555 1_555
H25 C17 1_555 1_555
C18 C12 1_555 1_555
H26 C18 1_555 1_555
H27 C18 1_555 1_555
H28 C18 1_555 1_555
C19 O5 1_555 1_555
C11 C19 1_555 1_555
O5_2 In2 1_555 1_555
O6_2 In2 1_555 1_555
O9 C20_2 1_555 1_555
O9_2 In2 1_555 1_555
C11_2 C12_2 1_555 1_555
C12_2 C13_2 1_555 1_555
C13_2 H15_2 1_555 1_555
C14_2 C13_2 1_555 1_555
H16_2 C14_2 1_555 1_555
H17_2 C14_2 1_555 1_555
C15_2 C11_2 1_555 1_555
H18_2 C15_2 1_555 1_555
H19_2 C15_2 1_555 1_555
C16_2 C11_2 1_555 1_555
H20_2 C16_2 1_555 1_555
H21_2 C16_2 1_555 1_555
H22_2 C16_2 1_555 1_555
C17_2 C12_2 1_555 1_555
H23_2 C17_2 1_555 1_555
H24_2 C17_2 1_555 1_555
H25_2 C17_2 1_555 1_555
C18_2 C12_2 1_555 1_555
H26_2 C18_2 1_555 1_555
H27_2 C18_2 1_555 1_555
H28_2 C18_2 1_555 1_555
C19_2 O5_2 1_555 1_555
C20_2 O12 1_555 1_555
O6_2 C19_2 1_555 1_555
C11_2 C19_2 1_555 1_555
C13_2 C20_2 1_555 1_555
C14_2 C15_2 1_555 1_555
In2_2 O1_2 1_555 1_555
O1_2 C9_2 1_555 1_555
O2_2 In2_2 1_555 1_555
C1_2 C2_2 1_555 1_555
C6_2 C1_2 1_555 1_555
H6_2 C6_2 1_555 1_555
H7_2 C6_2 1_555 1_555
H8_2 C6_2 1_555 1_555
C7_2 C2_2 1_555 1_555
H9_2 C7_2 1_555 1_555
H10_2 C7_2 1_555 1_555
H11_2 C7_2 1_555 1_555
C8_2 C2_2 1_555 1_555
H12_2 C8_2 1_555 1_555
H13_2 C8_2 1_555 1_555
H14_2 C8_2 1_555 1_555
C9_2 O2_2 1_555 1_555
In3 O3_2 1_555 1_555
O12_2 In2_2 1_555 1_555
C1_2 C9_2 1_555 1_555
O4_2 C10_2 1_555 1_555
C3_2 H1_2 1_555 1_555
C4_2 C3_2 1_555 1_555
H2_2 C4_2 1_555 1_555
H3_2 C4_2 1_555 1_555
H4_2 C5_2 1_555 1_555
H5 C5_2 1_555 1_555
C10_2 C3_2 1_555 1_555
O4_2 In3_2 1_555 1_555
C4_2 C5_2 1_555 1_555
In3 O1_3 1_555 1_555
O1_3 C9_3 1_555 1_555
O2_3 In3 1_555 1_555
O8 C10_3 1_555 1_555
O11 C10_3 1_555 1_555
C1_3 C2_3 1_555 1_555
C2_3 C3_3 1_555 1_555
C3_3 H1_3 1_555 1_555
C4_3 C3_3 1_555 1_555
H2_3 C4_3 1_555 1_555
H3_3 C4_3 1_555 1_555
C5_3 C1_3 1_555 1_555
H4_3 C5_3 1_555 1_555
H5_2 C5_3 1_555 1_555
C6_3 C1_3 1_555 1_555
H6_3 C6_3 1_555 1_555
H7_3 C6_3 1_555 1_555
H8_3 C6_3 1_555 1_555
C7_3 C2_3 1_555 1_555
H9_3 C7_3 1_555 1_555
H10_3 C7_3 1_555 1_555
H11_3 C7_3 1_555 1_555
C8_3 C2_3 1_555 1_555
H12_3 C8_3 1_555 1_555
H13_3 C8_3 1_555 1_555
H14_3 C8_3 1_555 1_555
C9_3 O2_3 1_555 1_555
C10_3 C3_3 1_555 1_555
C1_3 C9_3 1_555 1_555
C4_3 C5_3 1_555 1_555
O5_3 In3_2 1_555 1_555
O6_3 In3_2 1_555 1_555
C11_3 C12_3 1_555 1_555
C16_3 C11_3 1_555 1_555
H20_3 C16_3 1_555 1_555
H21_3 C16_3 1_555 1_555
H22_3 C16_3 1_555 1_555
C17_3 C12_3 1_555 1_555
H23_3 C17_3 1_555 1_555
H24_3 C17_3 1_555 1_555
H25_3 C17_3 1_555 1_555
C18_3 C12_3 1_555 1_555
H26_3 C18_3 1_555 1_555
H27_3 C18_3 1_555 1_555
H28_3 C18_3 1_555 1_555
C19_3 O5_3 1_555 1_555
O6_3 C19_3 1_555 1_555
C11_3 C19_3 1_555 1_555
C13_3 H15_3 1_555 1_555
C14_3 C13_3 1_555 1_555
H16_3 C14_3 1_555 1_555
H17_3 C14_3 1_555 1_555
H18_3 C15_3 1_555 1_555
H19_3 C15_3 1_555 1_555
C20_3 O12_2 1_555 1_555
C13_3 C20_3 1_555 1_555
C14_3 C15_3 1_555 1_555

#END
