
###############################################################################
#
# This file contains modified crystal structure data generated from the
# MOF subset of the Cambridge Structural Database (CSD) v543 
# hosted by the Cambridge Crystallographic Data Centre (CCDC).
#
# This work is licensed under the Creative Commons
# Attribution-NonCommercial-ShareAlike 4.0 International License.
# To view a copy of this license, visit
# http://creativecommons.org/licenses/by-nc-sa/4.0/
# or send a letter to
# Creative Commons, PO Box 1866, Mountain View, CA 94042, USA.
#
# CIF created using the CSD Python API on 29 September 2022
# The structure has been converted into the P1 space group
# The structure has a 3D framework
# The original CSD entry DORGOI is in the monoclinic crystal system
# The framework has been calculated to contain at least 10.0% void space
# The void calculation uses a probe of radius 1.32A, grid spacing 0.4
#
###############################################################################

data_DORGOI
_chemical_formula_moiety         '(C188 H124 Co8 N16 O32)n'
_symmetry_cell_setting           triclinic
_symmetry_space_group_name_H-M   'P 1'
_symmetry_Int_Tables_number      1
_space_group_name_Hall           'P 1'
loop_
_symmetry_equiv_pos_site_id
_symmetry_equiv_pos_as_xyz
1 x,y,z
_cell_length_a                   22.146(12)
_cell_length_b                   13.686(7)
_cell_length_c                   14.997(8)
_cell_angle_alpha                90
_cell_angle_beta                 117.308(5)
_cell_angle_gamma                90
_cell_volume                     4038.87
loop_
_atom_site_label
_atom_site_type_symbol
_atom_site_fract_x
_atom_site_fract_y
_atom_site_fract_z
Co1 Co 0.308199(17) 0.77720(3) 0.14905(3)
O1 O 0.33517(11) 0.77812(15) 0.03589(15)
O3 O 0.58641(11) 0.76744(17) 0.24987(16)
O4 O 0.65300(11) 0.7585(2) 0.17823(18)
N1 N 0.29516(12) 0.62121(18) 0.13750(18)
C3 C 0.46836(14) 0.7465(2) 0.0660(2)
H1 H 0.4629 0.7733 0.1189
C4 C 0.53344(14) 0.7321(2) 0.0755(2)
H2 H 0.5845 0.6835 0.0016
C8 C 0.59489(14) 0.7551(2) 0.1731(2)
C13 C 0.33927(15) 0.5658(2) 0.1221(2)
H7 H 0.3738 0.5969 0.1141
C14 C 0.33650(16) 0.4651(2) 0.1175(3)
H8 H 0.3686 0.4301 0.1068
C15 C 0.28539(15) 0.4161(2) 0.1290(2)
C16 C 0.23824(17) 0.4736(2) 0.1421(3)
H9 H 0.2021 0.4446 0.1475
C17 C 0.24537(17) 0.5742(2) 0.1469(3)
H10 H 0.2139 0.6111 0.1572
C18 C 0.28001(17) 0.3095(2) 0.1304(2)
H11 H 0.2417 0.2839 0.1322
C19 C 0.32495(17) 0.2462(2) 0.1292(3)
H12 H 0.3624 0.2714 0.1246
C20 C 0.32023(16) 0.1401(2) 0.1348(2)
C21 C 0.37264(19) 0.0796(3) 0.1415(3)
H13 H 0.4111 0.1068 0.1416
C24 C 0.26407(16) 0.0935(2) 0.1336(3)
H16 H 0.2273 0.1301 0.1288
Co6 Co 0.691801(17) 0.77720(3) 0.35095(3)
O9 O 0.20807(10) 0.79314(15) 0.11393(16)
O12 O 0.41359(11) 0.76744(17) 0.25013(16)
O14 O 0.34700(11) 0.7585(2) 0.32177(18)
N5 N 0.31373(12) 0.93494(19) 0.14730(18)
O2 O 0.29193(10) 0.70686(15) 0.88607(16)
C1 C 0.34092(13) 0.73652(19) 0.9664(2)
C2 C 0.41144(13) 0.7209(2) 0.9772(2)
C5 C 0.54111(14) 0.6916(2) 0.9958(2)
C6 C 0.48454(14) 0.6631(2) 0.90744(19)
C7 C 0.42001(13) 0.6781(2) 0.89923(19)
H3 H 0.3820 0.6594 0.8408
C9 C 0.49275(13) 0.6116(2) 0.82573(19)
C10 C 0.5000 0.6616(3) 0.7500
H4 H 0.5000 0.7296 0.7500
C11 C 0.49235(15) 0.5095(2) 0.8242(2)
H5 H 0.4869 0.4752 0.8735
C12 C 0.5000 0.4588(3) 0.7500
H6 H 0.5000 0.3909 0.7500
O5 O 0.66483(11) 0.77812(15) 0.46411(15)
O6 O 0.70807(10) 0.70686(15) 0.61393(16)
C25 C 0.65908(13) 0.73652(19) 0.5336(2)
C26 C 0.58856(13) 0.7209(2) 0.5228(2)
C27 C 0.53164(14) 0.7465(2) 0.4340(2)
H17 H 0.5371 0.7733 0.3811
C28 C 0.46656(14) 0.7321(2) 0.4245(2)
C29 C 0.45889(14) 0.6916(2) 0.5042(2)
H18 H 0.4155 0.6835 0.4984
C30 C 0.51546(14) 0.6631(2) 0.59256(19)
C31 C 0.57999(13) 0.6781(2) 0.60077(19)
H19 H 0.6180 0.6594 0.6592
C32 C 0.40511(14) 0.7551(2) 0.3269(2)
C33 C 0.50725(13) 0.6116(2) 0.67427(19)
C34 C 0.50765(15) 0.5095(2) 0.6758(2)
H20 H 0.5131 0.4752 0.6265
N3 N 0.70484(12) 0.62121(18) 0.36250(18)
C35 C 0.66073(15) 0.5658(2) 0.3779(2)
H21 H 0.6262 0.5969 0.3859
C36 C 0.66350(16) 0.4651(2) 0.3825(3)
H22 H 0.6314 0.4301 0.3932
C37 C 0.71461(15) 0.4161(2) 0.3710(2)
C38 C 0.76176(17) 0.4736(2) 0.3579(3)
H23 H 0.7979 0.4446 0.3525
C39 C 0.75463(17) 0.5742(2) 0.3531(3)
H24 H 0.7861 0.6111 0.3428
C40 C 0.71999(17) 0.3095(2) 0.3696(2)
H25 H 0.7583 0.2839 0.3678
C41 C 0.67505(17) 0.2462(2) 0.3708(3)
H26 H 0.6376 0.2714 0.3754
C42 C 0.67977(16) 0.1401(2) 0.3652(2)
C43 C 0.62736(19) 0.0796(3) 0.3585(3)
H27 H 0.5889 0.1068 0.3584
C46 C 0.73593(16) 0.0935(2) 0.3664(3)
H30 H 0.7727 0.1301 0.3712
Co7 Co 0.191801(17) 0.72280(3) 0.85095(3)
Co8 Co 0.808199(17) 0.72280(3) 0.64905(3)
O10 O 0.79193(10) 0.79314(15) 0.38607(16)
N6 N 0.68627(12) 0.93494(19) 0.35270(18)
C22 C 0.36806(18) 0.9793(3) 0.1481(3)
H14 H 0.4042 0.9409 0.1532
C23 C 0.26305(16) 0.9931(2) 0.1395(3)
H15 H 0.2247 0.9640 0.1381
C44 C 0.63194(18) 0.9793(3) 0.3519(3)
H28 H 0.5958 0.9409 0.3468
C45 C 0.73695(16) 0.9931(2) 0.3605(3)
H29 H 0.7753 0.9640 0.3619
N2 N 0.18627(12) 0.56506(19) 0.85270(18)
C14_2 C 0.16350(16) 0.0349(2) 0.8825(3)
H8_2 H 0.1314 0.0699 0.8932
C15_2 C 0.21461(15) 0.0839(2) 0.8710(2)
C16_2 C 0.26176(17) 0.0264(2) 0.8579(3)
H9_2 H 0.2979 0.0554 0.8525
C18_2 C 0.21999(17) 0.1905(2) 0.8696(2)
H11_2 H 0.2583 0.2161 0.8678
C19_2 C 0.17505(17) 0.2538(2) 0.8708(3)
H12_2 H 0.1376 0.2286 0.8754
C20_2 C 0.17977(16) 0.3599(2) 0.8652(2)
C21_2 C 0.12736(19) 0.4204(3) 0.8585(3)
H13_2 H 0.0889 0.3932 0.8584
C22_2 C 0.13194(18) 0.5207(3) 0.8519(3)
H14_2 H 0.0958 0.5591 0.8468
C23_2 C 0.23695(16) 0.5069(2) 0.8605(3)
H15_2 H 0.2753 0.5360 0.8619
C24_2 C 0.23593(16) 0.4065(2) 0.8664(3)
H16_2 H 0.2727 0.3699 0.8712
C1_2 C 0.15908(13) 0.76348(19) 0.0336(2)
C2_2 C 0.08856(13) 0.7791(2) 0.0228(2)
C6_2 C 0.01546(14) 0.8369(2) 0.09256(19)
C7_2 C 0.07999(13) 0.8219(2) 0.10077(19)
H3_2 H 0.1180 0.8406 0.1592
C9_2 C 0.00725(13) 0.8884(2) 0.17427(19)
C10_2 C 0.0000 0.8384(3) 0.2500
H4_2 H 0.0000 0.7704 0.2500
C11_2 C 0.00765(15) 0.9905(2) 0.1758(2)
O7 O 0.08641(11) 0.73256(17) 0.74987(16)
O8 O 0.15300(11) 0.7415(2) 0.67823(18)
C28_2 C 0.03344(14) 0.7679(2) 0.5755(2)
C29_2 C 0.04111(14) 0.8084(2) 0.4958(2)
H18_2 H 0.0845 0.8165 0.5016
C32_2 C 0.09489(14) 0.7449(2) 0.6731(2)
O1_2 O 0.16483(11) 0.72188(15) 0.96411(15)
N1_2 N 0.20484(12) 0.87879(18) 0.86250(18)
C3_2 C 0.03164(14) 0.7535(2) 0.9340(2)
H1_2 H 0.0371 0.7267 0.8811
C13_2 C 0.16073(15) 0.9342(2) 0.8779(2)
H7_2 H 0.1262 0.9031 0.8859
C17_2 C 0.25463(17) 0.9258(2) 0.8531(3)
H10_2 H 0.2861 0.8889 0.8428
C12_2 C 1.0000 0.0412(3) 0.2500
H6_2 H 1.0000 0.1091 0.2500
H20_2 H 0.9869 0.0248 0.3735
N4 N 0.81373(12) 0.56506(19) 0.64730(18)
C36_2 C 0.83650(16) 0.0349(2) 0.6175(3)
H22_2 H 0.8686 0.0699 0.6068
C37_2 C 0.78539(15) 0.0839(2) 0.6290(2)
C38_2 C 0.73824(17) 0.0264(2) 0.6421(3)
H23_2 H 0.7021 0.0554 0.6475
C40_2 C 0.78001(17) 0.1905(2) 0.6304(2)
H25_2 H 0.7417 0.2161 0.6322
C41_2 C 0.82495(17) 0.2538(2) 0.6292(3)
H26_2 H 0.8624 0.2286 0.6246
C42_2 C 0.82023(16) 0.3599(2) 0.6348(2)
C43_2 C 0.87264(19) 0.4204(3) 0.6415(3)
H27_2 H 0.9111 0.3932 0.6416
C44_2 C 0.86806(18) 0.5207(3) 0.6481(3)
H28_2 H 0.9042 0.5591 0.6532
C45_2 C 0.76305(16) 0.5069(2) 0.6395(3)
H29_2 H 0.7247 0.5360 0.6381
C46_2 C 0.76407(16) 0.4065(2) 0.6336(3)
H30_2 H 0.7273 0.3699 0.6288
C5_2 C 0.95889(14) 0.8084(2) 0.0042(2)
C10_3 C 1.0000 0.8384(3) 0.2500
H4_3 H 1.0000 0.7704 0.2500
O5_2 O 0.83517(11) 0.72188(15) 0.53589(15)
C25_2 C 0.84092(13) 0.76348(19) 0.4664(2)
C26_2 C 0.91144(13) 0.7791(2) 0.4772(2)
C27_2 C 0.96836(14) 0.7535(2) 0.5660(2)
H17_2 H 0.9629 0.7267 0.6189
C30_2 C 0.98454(14) 0.8369(2) 0.40744(19)
C31_2 C 0.92001(13) 0.8219(2) 0.39923(19)
H19_2 H 0.8820 0.8406 0.3408
C33_2 C 0.99275(13) 0.8884(2) 0.32573(19)
C34_2 C 0.99235(15) 0.9905(2) 0.3242(2)
N3_2 N 0.79516(12) 0.87879(18) 0.63750(18)
C35_2 C 0.83927(15) 0.9342(2) 0.6221(2)
H21_2 H 0.8738 0.9031 0.6141
C39_2 C 0.74537(17) 0.9258(2) 0.6469(3)
H24_2 H 0.7139 0.8889 0.6572
O11 O 0.91359(11) 0.73256(17) 0.75013(16)
O13 O 0.84700(11) 0.7415(2) 0.82177(18)
C4_2 C 0.96656(14) 0.7679(2) 0.9245(2)
H2_2 H 0.9155 0.8165 0.9984
C8_2 C 0.90511(14) 0.7449(2) 0.8269(2)
O3_2 O 0.08641(11) 0.26744(17) 0.24987(16)
O4_2 O 0.15300(11) 0.2585(2) 0.17823(18)
C4_3 C 0.03344(14) 0.2321(2) 0.0755(2)
H2_3 H 0.0845 0.1835 0.0016
C8_3 C 0.09489(14) 0.2551(2) 0.1731(2)
Co6_2 Co 0.191801(17) 0.27720(3) 0.35095(3)
C5_3 C 0.04111(14) 0.1916(2) 0.9958(2)
C10_4 C 0.0000 0.1616(3) 0.7500
H4_4 H 0.0000 0.2296 0.7500
O5_3 O 0.16483(11) 0.27812(15) 0.46411(15)
O6_2 O 0.20807(10) 0.20686(15) 0.61393(16)
C25_3 C 0.15908(13) 0.23652(19) 0.5336(2)
C26_3 C 0.08856(13) 0.2209(2) 0.5228(2)
C27_3 C 0.03164(14) 0.2465(2) 0.4340(2)
H17_3 H 0.0371 0.2733 0.3811
C30_3 C 0.01546(14) 0.1631(2) 0.59256(19)
C31_3 C 0.07999(13) 0.1781(2) 0.60077(19)
H19_3 H 0.1180 0.1594 0.6592
C33_3 C 0.00725(13) 0.1116(2) 0.67427(19)
C34_3 C 0.00765(15) 0.0095(2) 0.6758(2)
N3_3 N 0.20484(12) 0.12121(18) 0.36250(18)
C35_3 C 0.16073(15) 0.0658(2) 0.3779(2)
H21_3 H 0.1262 0.0969 0.3859
C39_3 C 0.25463(17) 0.0742(2) 0.3531(3)
H24_3 H 0.2861 0.1111 0.3428
Co8_2 Co 0.308199(17) 0.22280(3) 0.64905(3)
O10_2 O 0.29193(10) 0.29314(15) 0.38607(16)
N6_2 N 0.18627(12) 0.43494(19) 0.35270(18)
C12_3 C 0.0000 0.9588(3) 0.7500
H6_3 H 0.0000 0.8909 0.7500
H20_3 H 0.0131 0.9752 0.6265
C36_3 C 0.16350(16) 0.9651(2) 0.3825(3)
H22_3 H 0.1314 0.9301 0.3932
C37_3 C 0.21461(15) 0.9161(2) 0.3710(2)
C38_3 C 0.26176(17) 0.9736(2) 0.3579(3)
H23_3 H 0.2979 0.9446 0.3525
C40_3 C 0.21999(17) 0.8095(2) 0.3696(2)
H25_3 H 0.2583 0.7839 0.3678
C41_3 C 0.17505(17) 0.7462(2) 0.3708(3)
H26_3 H 0.1376 0.7714 0.3754
C42_3 C 0.17977(16) 0.6401(2) 0.3652(2)
C43_3 C 0.12736(19) 0.5796(3) 0.3585(3)
H27_3 H 0.0889 0.6068 0.3584
C44_3 C 0.13194(18) 0.4793(3) 0.3519(3)
H28_3 H 0.0958 0.4409 0.3468
C45_3 C 0.23695(16) 0.4931(2) 0.3605(3)
H29_3 H 0.2753 0.4640 0.3619
C46_3 C 0.23593(16) 0.5935(2) 0.3664(3)
H30_3 H 0.2727 0.6301 0.3712
Co1_2 Co 0.808199(17) 0.27720(3) 0.14905(3)
O1_3 O 0.83517(11) 0.27812(15) 0.03589(15)
N1_3 N 0.79516(12) 0.12121(18) 0.13750(18)
C3_3 C 0.96836(14) 0.2465(2) 0.0660(2)
H1_3 H 0.9629 0.2733 0.1189
C13_3 C 0.83927(15) 0.0658(2) 0.1221(2)
H7_3 H 0.8738 0.0969 0.1141
C17_3 C 0.74537(17) 0.0742(2) 0.1469(3)
H10_3 H 0.7139 0.1111 0.1572
O9_2 O 0.70807(10) 0.29314(15) 0.11393(16)
O12_2 O 0.91359(11) 0.26744(17) 0.25013(16)
O14_2 O 0.84700(11) 0.2585(2) 0.32177(18)
N5_2 N 0.81373(12) 0.43494(19) 0.14730(18)
O2_2 O 0.79193(10) 0.20686(15) 0.88607(16)
C1_3 C 0.84092(13) 0.23652(19) 0.9664(2)
C2_3 C 0.91144(13) 0.2209(2) 0.9772(2)
C6_3 C 0.98454(14) 0.1631(2) 0.90744(19)
C7_3 C 0.92001(13) 0.1781(2) 0.89923(19)
H3_3 H 0.8820 0.1594 0.8408
C9_3 C 0.99275(13) 0.1116(2) 0.82573(19)
C10_5 C 1.0000 0.1616(3) 0.7500
H4_5 H 1.0000 0.2296 0.7500
C11_3 C 0.99235(15) 0.0095(2) 0.8242(2)
C28_3 C 0.96656(14) 0.2321(2) 0.4245(2)
C29_3 C 0.95889(14) 0.1916(2) 0.5042(2)
H18_3 H 0.9155 0.1835 0.4984
C32_3 C 0.90511(14) 0.2551(2) 0.3269(2)
Co7_2 Co 0.691801(17) 0.22280(3) 0.85095(3)
C14_3 C 0.83650(16) 0.9651(2) 0.1175(3)
H8_3 H 0.8686 0.9301 0.1068
C15_3 C 0.78539(15) 0.9161(2) 0.1290(2)
C16_3 C 0.73824(17) 0.9736(2) 0.1421(3)
H9_3 H 0.7021 0.9446 0.1475
C18_3 C 0.78001(17) 0.8095(2) 0.1304(2)
H11_3 H 0.7417 0.7839 0.1322
C19_3 C 0.82495(17) 0.7462(2) 0.1292(3)
H12_3 H 0.8624 0.7714 0.1246
C20_3 C 0.82023(16) 0.6401(2) 0.1348(2)
C21_3 C 0.87264(19) 0.5796(3) 0.1415(3)
H13_3 H 0.9111 0.6068 0.1416
C22_3 C 0.86806(18) 0.4793(3) 0.1481(3)
H14_3 H 0.9042 0.4409 0.1532
C23_3 C 0.76305(16) 0.4931(2) 0.1395(3)
H15_3 H 0.7247 0.4640 0.1381
C24_3 C 0.76407(16) 0.5935(2) 0.1336(3)
H16_3 H 0.7273 0.6301 0.1288
N4_2 N 0.31373(12) 0.06506(19) 0.64730(18)
C44_4 C 0.36806(18) 0.0207(3) 0.6481(3)
H28_4 H 0.4042 0.0591 0.6532
C45_4 C 0.26305(16) 0.0069(2) 0.6395(3)
H29_4 H 0.2247 0.0360 0.6381
N2_2 N 0.68627(12) 0.06506(19) 0.85270(18)
C22_4 C 0.63194(18) 0.0207(3) 0.8519(3)
H14_4 H 0.5958 0.0591 0.8468
C23_4 C 0.73695(16) 0.0069(2) 0.8605(3)
H15_4 H 0.7753 0.0360 0.8619
C1_4 C 0.65908(13) 0.26348(19) 0.0336(2)
C2_4 C 0.58856(13) 0.2791(2) 0.0228(2)
C5_4 C 0.45889(14) 0.3084(2) 0.0042(2)
C6_4 C 0.51546(14) 0.3369(2) 0.09256(19)
C7_4 C 0.57999(13) 0.3219(2) 0.10077(19)
H3_4 H 0.6180 0.3406 0.1592
C9_4 C 0.50725(13) 0.3884(2) 0.17427(19)
C10_6 C 0.5000 0.3384(3) 0.2500
H4_6 H 0.5000 0.2704 0.2500
C11_4 C 0.50765(15) 0.4905(2) 0.1758(2)
H5_2 H 0.5131 0.5248 0.1265
C12_4 C 0.5000 0.5412(3) 0.2500
H6_4 H 0.5000 0.6091 0.2500
O5_4 O 0.33517(11) 0.22188(15) 0.53589(15)
O7_2 O 0.58641(11) 0.23256(17) 0.74987(16)
O8_2 O 0.65300(11) 0.2415(2) 0.67823(18)
C25_4 C 0.34092(13) 0.26348(19) 0.4664(2)
C26_4 C 0.41144(13) 0.2791(2) 0.4772(2)
C27_4 C 0.46836(14) 0.2535(2) 0.5660(2)
H17_4 H 0.4629 0.2267 0.6189
C28_4 C 0.53344(14) 0.2679(2) 0.5755(2)
C29_4 C 0.54111(14) 0.3084(2) 0.4958(2)
H18_4 H 0.5845 0.3165 0.5016
C30_4 C 0.48454(14) 0.3369(2) 0.40744(19)
C31_4 C 0.42001(13) 0.3219(2) 0.39923(19)
H19_4 H 0.3820 0.3406 0.3408
C32_4 C 0.59489(14) 0.2449(2) 0.6731(2)
C33_4 C 0.49275(13) 0.3884(2) 0.32573(19)
C34_4 C 0.49235(15) 0.4905(2) 0.3242(2)
H20_4 H 0.4869 0.5248 0.3735
N3_4 N 0.29516(12) 0.37879(18) 0.63750(18)
C35_4 C 0.33927(15) 0.4342(2) 0.6221(2)
H21_4 H 0.3738 0.4031 0.6141
C36_4 C 0.33650(16) 0.5349(2) 0.6175(3)
H22_4 H 0.3686 0.5699 0.6068
C37_4 C 0.28539(15) 0.5839(2) 0.6290(2)
C38_4 C 0.23824(17) 0.5264(2) 0.6421(3)
H23_4 H 0.2021 0.5554 0.6475
C39_4 C 0.24537(17) 0.4258(2) 0.6469(3)
H24_4 H 0.2139 0.3889 0.6572
C40_4 C 0.28001(17) 0.6905(2) 0.6304(2)
H25_4 H 0.2417 0.7161 0.6322
C41_4 C 0.32495(17) 0.7538(2) 0.6292(3)
H26_4 H 0.3624 0.7286 0.6246
C42_4 C 0.32023(16) 0.8599(2) 0.6348(2)
C43_4 C 0.37264(19) 0.9204(3) 0.6415(3)
H27_4 H 0.4111 0.8932 0.6416
C46_4 C 0.26407(16) 0.9065(2) 0.6336(3)
H30_4 H 0.2273 0.8699 0.6288
O11_2 O 0.41359(11) 0.23256(17) 0.75013(16)
O13_2 O 0.34700(11) 0.2415(2) 0.82177(18)
O1_4 O 0.66483(11) 0.22188(15) 0.96411(15)
N1_4 N 0.70484(12) 0.37879(18) 0.86250(18)
C3_4 C 0.53164(14) 0.2535(2) 0.9340(2)
H1_4 H 0.5371 0.2267 0.8811
C4_4 C 0.46656(14) 0.2679(2) 0.9245(2)
H2_4 H 0.4155 0.3165 0.9984
C8_4 C 0.40511(14) 0.2449(2) 0.8269(2)
C13_4 C 0.66073(15) 0.4342(2) 0.8779(2)
H7_4 H 0.6262 0.4031 0.8859
C14_4 C 0.66350(16) 0.5349(2) 0.8825(3)
H8_4 H 0.6314 0.5699 0.8932
C15_4 C 0.71461(15) 0.5839(2) 0.8710(2)
C16_4 C 0.76176(17) 0.5264(2) 0.8579(3)
H9_4 H 0.7979 0.5554 0.8525
C17_4 C 0.75463(17) 0.4258(2) 0.8531(3)
H10_4 H 0.7861 0.3889 0.8428
C18_4 C 0.71999(17) 0.6905(2) 0.8696(2)
H11_4 H 0.7583 0.7161 0.8678
C19_4 C 0.67505(17) 0.7538(2) 0.8708(3)
H12_4 H 0.6376 0.7286 0.8754
C20_4 C 0.67977(16) 0.8599(2) 0.8652(2)
C21_4 C 0.62736(19) 0.9204(3) 0.8585(3)
H13_4 H 0.5889 0.8932 0.8584
C24_4 C 0.73593(16) 0.9065(2) 0.8664(3)
H16_4 H 0.7727 0.8699 0.8712
H5_3 H 0.9869 0.9752 0.8735
C12_5 C 1.0000 0.9588(3) 0.7500
H6_5 H 1.0000 0.8909 0.7500
H5_4 H 0.0131 0.0248 0.1265
C12_6 C 0.0000 0.0412(3) 0.2500
H6_6 H 0.0000 0.1091 0.2500
loop_
_geom_bond_atom_site_label_1
_geom_bond_atom_site_label_2
_geom_bond_site_symmetry_1
_geom_bond_site_symmetry_2
Co1 O1 1_555 1_555
O3 C8 1_555 1_555
O4 C8 1_555 1_555
N1 Co1 1_555 1_555
C3 H1 1_555 1_555
C4 C3 1_555 1_555
C8 C4 1_555 1_555
C13 N1 1_555 1_555
H7 C13 1_555 1_555
C14 C13 1_555 1_555
H8 C14 1_555 1_555
C15 C14 1_555 1_555
C16 C15 1_555 1_555
H9 C16 1_555 1_555
C17 N1 1_555 1_555
H10 C17 1_555 1_555
C18 C15 1_555 1_555
H11 C18 1_555 1_555
C19 C18 1_555 1_555
H12 C19 1_555 1_555
C20 C19 1_555 1_555
C21 C20 1_555 1_555
H13 C21 1_555 1_555
C24 C20 1_555 1_555
H16 C24 1_555 1_555
Co6 O3 1_555 1_555
O9 Co1 1_555 1_555
O12 Co1 1_555 1_555
O14 Co1 1_555 1_555
N5 Co1 1_555 1_555
O4 Co6 1_555 1_555
C16 C17 1_555 1_555
O2 C1 1_555 1_555
C1 C2 1_555 1_555
C6 C5 1_555 1_555
C7 C2 1_555 1_555
H3 C7 1_555 1_555
C9 C6 1_555 1_555
C10 C9 1_555 1_555
H4 C10 1_555 1_555
C11 C9 1_555 1_555
H5 C11 1_555 1_555
C12 C11 1_555 1_555
H6 C12 1_555 1_555
O5 C25 1_555 1_555
O6 C25 1_555 1_555
O12 C32 1_555 1_555
O14 C32 1_555 1_555
C25 C26 1_555 1_555
C26 C27 1_555 1_555
C27 H17 1_555 1_555
C28 C27 1_555 1_555
C29 C28 1_555 1_555
H18 C29 1_555 1_555
C30 C29 1_555 1_555
C31 C26 1_555 1_555
H19 C31 1_555 1_555
C32 C28 1_555 1_555
C33 C10 1_555 1_555
C34 C12 1_555 1_555
H20 C34 1_555 1_555
Co6 O5 1_555 1_555
N3 Co6 1_555 1_555
C35 N3 1_555 1_555
H21 C35 1_555 1_555
C36 C35 1_555 1_555
H22 C36 1_555 1_555
C37 C36 1_555 1_555
C38 C37 1_555 1_555
H23 C38 1_555 1_555
C39 N3 1_555 1_555
H24 C39 1_555 1_555
C40 C37 1_555 1_555
H25 C40 1_555 1_555
C41 C40 1_555 1_555
H26 C41 1_555 1_555
C42 C41 1_555 1_555
C43 C42 1_555 1_555
H27 C43 1_555 1_555
C46 C42 1_555 1_555
H30 C46 1_555 1_555
Co7 O2 1_555 1_555
Co8 O6 1_555 1_555
O10 Co6 1_555 1_555
N6 Co6 1_555 1_555
C6 C7 1_555 1_555
C30 C31 1_555 1_555
C30 C33 1_555 1_555
C33 C34 1_555 1_555
C38 C39 1_555 1_555
N5 C22 1_555 1_555
H14 C22 1_555 1_555
C23 N5 1_555 1_555
H15 C23 1_555 1_555
N6 C44 1_555 1_555
H28 C44 1_555 1_555
C45 N6 1_555 1_555
H29 C45 1_555 1_555
N2 C22_2 1_555 1_555
H8_2 C14_2 1_555 1_555
C15_2 C14_2 1_555 1_555
C16_2 C15_2 1_555 1_555
H9_2 C16_2 1_555 1_555
C18_2 C15_2 1_555 1_555
H11_2 C18_2 1_555 1_555
C19_2 C18_2 1_555 1_555
H12_2 C19_2 1_555 1_555
C20_2 C19_2 1_555 1_555
C21_2 C20_2 1_555 1_555
H13_2 C21_2 1_555 1_555
C22_2 C21_2 1_555 1_555
H14_2 C22_2 1_555 1_555
C23_2 N2 1_555 1_555
H15_2 C23_2 1_555 1_555
C24_2 C20_2 1_555 1_555
H16_2 C24_2 1_555 1_555
Co7 N2 1_555 1_555
C23_2 C24_2 1_555 1_555
O9 C1_2 1_555 1_555
C1_2 C2_2 1_555 1_555
C7_2 C2_2 1_555 1_555
H3_2 C7_2 1_555 1_555
C9_2 C6_2 1_555 1_555
C10_2 C9_2 1_555 1_555
H4_2 C10_2 1_555 1_555
C11_2 C9_2 1_555 1_555
O7 C32_2 1_555 1_555
O8 C32_2 1_555 1_555
C29_2 C28_2 1_555 1_555
H18_2 C29_2 1_555 1_555
C32_2 C28_2 1_555 1_555
Co7 O7 1_555 1_555
C6_2 C7_2 1_555 1_555
O8 Co7 1_555 1_555
Co7 O1_2 1_555 1_555
N1_2 Co7 1_555 1_555
C3_2 H1_2 1_555 1_555
C13_2 N1_2 1_555 1_555
H7_2 C13_2 1_555 1_555
C17_2 N1_2 1_555 1_555
H10_2 C17_2 1_555 1_555
H6_2 C12_2 1_555 1_555
N4 C44_2 1_555 1_555
H22_2 C36_2 1_555 1_555
C37_2 C36_2 1_555 1_555
C38_2 C37_2 1_555 1_555
H23_2 C38_2 1_555 1_555
C40_2 C37_2 1_555 1_555
H25_2 C40_2 1_555 1_555
C41_2 C40_2 1_555 1_555
H26_2 C41_2 1_555 1_555
C42_2 C41_2 1_555 1_555
C43_2 C42_2 1_555 1_555
H27_2 C43_2 1_555 1_555
C44_2 C43_2 1_555 1_555
H28_2 C44_2 1_555 1_555
C45_2 N4 1_555 1_555
H29_2 C45_2 1_555 1_555
C46_2 C42_2 1_555 1_555
H30_2 C46_2 1_555 1_555
Co8 N4 1_555 1_555
C45_2 C46_2 1_555 1_555
H4_3 C10_3 1_555 1_555
O5_2 C25_2 1_555 1_555
O10 C25_2 1_555 1_555
C25_2 C26_2 1_555 1_555
C26_2 C27_2 1_555 1_555
C27_2 H17_2 1_555 1_555
C31_2 C26_2 1_555 1_555
H19_2 C31_2 1_555 1_555
C33_2 C10_3 1_555 1_555
Co8 O5_2 1_555 1_555
N3_2 Co8 1_555 1_555
C35_2 N3_2 1_555 1_555
H21_2 C35_2 1_555 1_555
C39_2 N3_2 1_555 1_555
H24_2 C39_2 1_555 1_555
O11 Co8 1_555 1_555
O13 Co8 1_555 1_555
C30_2 C31_2 1_555 1_555
C30_2 C33_2 1_555 1_555
C33_2 C34_2 1_555 1_555
O11 C8_2 1_555 1_555
O13 C8_2 1_555 1_555
C8_2 C4_2 1_555 1_555
O3_2 C8_3 1_555 1_555
O4_2 C8_3 1_555 1_555
C8_3 C4_3 1_555 1_555
Co6_2 O3_2 1_555 1_555
O4_2 Co6_2 1_555 1_555
H4_4 C10_4 1_555 1_555
O5_3 C25_3 1_555 1_555
O6_2 C25_3 1_555 1_555
C25_3 C26_3 1_555 1_555
C26_3 C27_3 1_555 1_555
C27_3 H17_3 1_555 1_555
C31_3 C26_3 1_555 1_555
H19_3 C31_3 1_555 1_555
C33_3 C10_4 1_555 1_555
Co6_2 O5_3 1_555 1_555
N3_3 Co6_2 1_555 1_555
C35_3 N3_3 1_555 1_555
H21_3 C35_3 1_555 1_555
C39_3 N3_3 1_555 1_555
H24_3 C39_3 1_555 1_555
Co8_2 O6_2 1_555 1_555
O10_2 Co6_2 1_555 1_555
N6_2 Co6_2 1_555 1_555
C30_3 C31_3 1_555 1_555
C30_3 C33_3 1_555 1_555
C33_3 C34_3 1_555 1_555
H6_3 C12_3 1_555 1_555
N6_2 C44_3 1_555 1_555
H22_3 C36_3 1_555 1_555
C37_3 C36_3 1_555 1_555
C38_3 C37_3 1_555 1_555
H23_3 C38_3 1_555 1_555
C40_3 C37_3 1_555 1_555
H25_3 C40_3 1_555 1_555
C41_3 C40_3 1_555 1_555
H26_3 C41_3 1_555 1_555
C42_3 C41_3 1_555 1_555
C43_3 C42_3 1_555 1_555
H27_3 C43_3 1_555 1_555
C44_3 C43_3 1_555 1_555
H28_3 C44_3 1_555 1_555
C45_3 N6_2 1_555 1_555
H29_3 C45_3 1_555 1_555
C46_3 C42_3 1_555 1_555
H30_3 C46_3 1_555 1_555
C45_3 C46_3 1_555 1_555
Co1_2 O1_3 1_555 1_555
N1_3 Co1_2 1_555 1_555
C3_3 H1_3 1_555 1_555
C13_3 N1_3 1_555 1_555
H7_3 C13_3 1_555 1_555
C17_3 N1_3 1_555 1_555
H10_3 C17_3 1_555 1_555
O9_2 Co1_2 1_555 1_555
O12_2 Co1_2 1_555 1_555
O14_2 Co1_2 1_555 1_555
N5_2 Co1_2 1_555 1_555
O2_2 C1_3 1_555 1_555
C1_3 C2_3 1_555 1_555
C7_3 C2_3 1_555 1_555
H3_3 C7_3 1_555 1_555
C9_3 C6_3 1_555 1_555
C10_5 C9_3 1_555 1_555
H4_5 C10_5 1_555 1_555
C11_3 C9_3 1_555 1_555
O12_2 C32_3 1_555 1_555
O14_2 C32_3 1_555 1_555
C29_3 C28_3 1_555 1_555
H18_3 C29_3 1_555 1_555
C32_3 C28_3 1_555 1_555
Co7_2 O2_2 1_555 1_555
C6_3 C7_3 1_555 1_555
N5_2 C22_3 1_555 1_555
H8_3 C14_3 1_555 1_555
C15_3 C14_3 1_555 1_555
C16_3 C15_3 1_555 1_555
H9_3 C16_3 1_555 1_555
C18_3 C15_3 1_555 1_555
H11_3 C18_3 1_555 1_555
C19_3 C18_3 1_555 1_555
H12_3 C19_3 1_555 1_555
C20_3 C19_3 1_555 1_555
C21_3 C20_3 1_555 1_555
H13_3 C21_3 1_555 1_555
C22_3 C21_3 1_555 1_555
H14_3 C22_3 1_555 1_555
C23_3 N5_2 1_555 1_555
H15_3 C23_3 1_555 1_555
C24_3 C20_3 1_555 1_555
H16_3 C24_3 1_555 1_555
C23_3 C24_3 1_555 1_555
N4_2 C44_4 1_555 1_555
H28_4 C44_4 1_555 1_555
C45_4 N4_2 1_555 1_555
H29_4 C45_4 1_555 1_555
Co8_2 N4_2 1_555 1_555
N2_2 C22_4 1_555 1_555
H14_4 C22_4 1_555 1_555
C23_4 N2_2 1_555 1_555
H15_4 C23_4 1_555 1_555
Co7_2 N2_2 1_555 1_555
O9_2 C1_4 1_555 1_555
C1_4 C2_4 1_555 1_555
C6_4 C5_4 1_555 1_555
C7_4 C2_4 1_555 1_555
H3_4 C7_4 1_555 1_555
C9_4 C6_4 1_555 1_555
C10_6 C9_4 1_555 1_555
H4_6 C10_6 1_555 1_555
C11_4 C9_4 1_555 1_555
H5_2 C11_4 1_555 1_555
C12_4 C11_4 1_555 1_555
H6_4 C12_4 1_555 1_555
O5_4 C25_4 1_555 1_555
O10_2 C25_4 1_555 1_555
O7_2 C32_4 1_555 1_555
O8_2 C32_4 1_555 1_555
C25_4 C26_4 1_555 1_555
C26_4 C27_4 1_555 1_555
C27_4 H17_4 1_555 1_555
C28_4 C27_4 1_555 1_555
C29_4 C28_4 1_555 1_555
H18_4 C29_4 1_555 1_555
C30_4 C29_4 1_555 1_555
C31_4 C26_4 1_555 1_555
H19_4 C31_4 1_555 1_555
C32_4 C28_4 1_555 1_555
C33_4 C10_6 1_555 1_555
C34_4 C12_4 1_555 1_555
H20_4 C34_4 1_555 1_555
Co8_2 O5_4 1_555 1_555
N3_4 Co8_2 1_555 1_555
C35_4 N3_4 1_555 1_555
H21_4 C35_4 1_555 1_555
C36_4 C35_4 1_555 1_555
H22_4 C36_4 1_555 1_555
C37_4 C36_4 1_555 1_555
C38_4 C37_4 1_555 1_555
H23_4 C38_4 1_555 1_555
C39_4 N3_4 1_555 1_555
H24_4 C39_4 1_555 1_555
C40_4 C37_4 1_555 1_555
H25_4 C40_4 1_555 1_555
C41_4 C40_4 1_555 1_555
H26_4 C41_4 1_555 1_555
C42_4 C41_4 1_555 1_555
C43_4 C42_4 1_555 1_555
H27_4 C43_4 1_555 1_555
C46_4 C42_4 1_555 1_555
H30_4 C46_4 1_555 1_555
Co7_2 O7_2 1_555 1_555
O11_2 Co8_2 1_555 1_555
O13_2 Co8_2 1_555 1_555
C6_4 C7_4 1_555 1_555
O8_2 Co7_2 1_555 1_555
C30_4 C31_4 1_555 1_555
C30_4 C33_4 1_555 1_555
C33_4 C34_4 1_555 1_555
C38_4 C39_4 1_555 1_555
Co7_2 O1_4 1_555 1_555
O11_2 C8_4 1_555 1_555
O13_2 C8_4 1_555 1_555
N1_4 Co7_2 1_555 1_555
C3_4 H1_4 1_555 1_555
C4_4 C3_4 1_555 1_555
C8_4 C4_4 1_555 1_555
C13_4 N1_4 1_555 1_555
H7_4 C13_4 1_555 1_555
C14_4 C13_4 1_555 1_555
H8_4 C14_4 1_555 1_555
C15_4 C14_4 1_555 1_555
C16_4 C15_4 1_555 1_555
H9_4 C16_4 1_555 1_555
C17_4 N1_4 1_555 1_555
H10_4 C17_4 1_555 1_555
C18_4 C15_4 1_555 1_555
H11_4 C18_4 1_555 1_555
C19_4 C18_4 1_555 1_555
H12_4 C19_4 1_555 1_555
C20_4 C19_4 1_555 1_555
C21_4 C20_4 1_555 1_555
H13_4 C21_4 1_555 1_555
C24_4 C20_4 1_555 1_555
H16_4 C24_4 1_555 1_555
C16_4 C17_4 1_555 1_555
H6_5 C12_5 1_555 1_555
H6_6 C12_6 1_555 1_555

#END
