
###############################################################################
#
# This file contains modified crystal structure data generated from the
# MOF subset of the Cambridge Structural Database (CSD) v543 
# hosted by the Cambridge Crystallographic Data Centre (CCDC).
#
# This work is licensed under the Creative Commons
# Attribution-NonCommercial-ShareAlike 4.0 International License.
# To view a copy of this license, visit
# http://creativecommons.org/licenses/by-nc-sa/4.0/
# or send a letter to
# Creative Commons, PO Box 1866, Mountain View, CA 94042, USA.
#
# CIF created using the CSD Python API on 29 September 2022
# The structure has been converted into the P1 space group
# The structure has a 3D framework
# The original CSD entry DORGUO is in the monoclinic crystal system
# The framework has been calculated to contain at least 10.0% void space
# The void calculation uses a probe of radius 1.32A, grid spacing 0.4
#
###############################################################################

data_DORGUO
_chemical_formula_moiety         '(C188 H124 N16 Ni8 O32)n'
_symmetry_cell_setting           triclinic
_symmetry_space_group_name_H-M   'P 1'
_symmetry_Int_Tables_number      1
_space_group_name_Hall           'P 1'
loop_
_symmetry_equiv_pos_site_id
_symmetry_equiv_pos_as_xyz
1 x,y,z
_cell_length_a                   22.040(16)
_cell_length_b                   13.585(8)
_cell_length_c                   14.953(11)
_cell_angle_alpha                90
_cell_angle_beta                 116.939(10)
_cell_angle_gamma                90
_cell_volume                     3991.31
loop_
_atom_site_label
_atom_site_type_symbol
_atom_site_fract_x
_atom_site_fract_y
_atom_site_fract_z
Ni1 Ni 0.30957(2) 0.27845(3) 0.15331(3)
C3 C 0.46776(18) 0.2464(3) 0.0669(3)
H1 H 0.4623 0.2725 0.1203
C4 C 0.53280(18) 0.2321(3) 0.0763(3)
H2 H 0.5839 0.1850 0.0014
C8 C 0.59417(18) 0.2547(3) 0.1740(3)
C13 C 0.3403(2) 0.0692(3) 0.1231(3)
H7 H 0.3750 0.1001 0.1147
C17 C 0.2475(2) 0.0775(3) 0.1502(3)
H10 H 0.2164 0.1144 0.1621
N1 N 0.29712(16) 0.1252(2) 0.1407(2)
O1 O 0.33448(13) 0.28347(19) 0.03670(19)
O3 O 0.58569(13) 0.2662(2) 0.25090(18)
O4 O 0.65271(13) 0.2606(2) 0.1785(2)
Ni6 Ni 0.69043(2) 0.27845(3) 0.34669(3)
N5 N 0.31547(15) 0.4335(2) 0.1530(2)
O9 O 0.20910(12) 0.29387(18) 0.11091(19)
O12 O 0.41431(13) 0.2662(2) 0.24910(18)
O14 O 0.34729(13) 0.2606(2) 0.3215(2)
C1 C 0.34009(17) 0.2385(2) 0.9683(3)
C2 C 0.41046(18) 0.2221(2) 0.9782(3)
C5 C 0.54049(18) 0.1928(3) 0.9960(3)
C6 C 0.48437(17) 0.1649(3) 0.9080(2)
C7 C 0.41957(18) 0.1799(3) 0.9002(3)
H3 H 0.3816 0.1614 0.8417
C9 C 0.49229(17) 0.1132(3) 0.8254(3)
C10 C 0.5000 0.1641(4) 0.7500
H4 H 0.5000 0.2326 0.7500
C11 C 0.4920(2) 0.0107(3) 0.8240(3)
O2 O 0.29090(12) 0.20613(18) 0.88909(19)
C25 C 0.65991(17) 0.2385(2) 0.5317(3)
C26 C 0.58954(18) 0.2221(2) 0.5218(3)
C27 C 0.53224(18) 0.2464(3) 0.4331(3)
H17 H 0.5377 0.2725 0.3797
C28 C 0.46720(18) 0.2321(3) 0.4237(3)
C29 C 0.45951(18) 0.1928(3) 0.5040(3)
H18 H 0.4161 0.1850 0.4986
C30 C 0.51563(17) 0.1649(3) 0.5920(2)
C31 C 0.58043(18) 0.1799(3) 0.5998(3)
H19 H 0.6184 0.1614 0.6583
C32 C 0.40583(18) 0.2547(3) 0.3260(3)
C33 C 0.50771(17) 0.1132(3) 0.6746(3)
C34 C 0.5080(2) 0.0107(3) 0.6760(3)
O5 O 0.66552(13) 0.28347(19) 0.46330(19)
O6 O 0.70910(12) 0.20613(18) 0.61091(19)
C35 C 0.6597(2) 0.0692(3) 0.3769(3)
H21 H 0.6250 0.1001 0.3853
C39 C 0.7525(2) 0.0775(3) 0.3498(3)
H24 H 0.7836 0.1144 0.3379
N3 N 0.70288(16) 0.1252(2) 0.3593(2)
Ni7 Ni 0.19043(2) 0.22155(3) 0.84669(3)
Ni8 Ni 0.80957(2) 0.22155(3) 0.65331(3)
N6 N 0.68453(15) 0.4335(2) 0.3470(2)
O10 O 0.79090(12) 0.29387(18) 0.38909(19)
C14 C 0.3362(2) 0.9678(3) 0.1167(3)
H8 H 0.3679 0.9325 0.1044
C15 C 0.28578(19) 0.9186(3) 0.1283(3)
C16 C 0.2395(2) 0.9766(3) 0.1434(4)
H9 H 0.2031 0.9476 0.1490
C18 C 0.2802(2) 0.8110(3) 0.1297(3)
H11 H 0.2414 0.7857 0.1307
C19 C 0.3250(2) 0.7471(3) 0.1296(3)
H12 H 0.3628 0.7720 0.1250
C20 C 0.3205(2) 0.6394(3) 0.1362(3)
C21 C 0.3733(2) 0.5789(3) 0.1447(4)
H13 H 0.4119 0.6064 0.1446
C22 C 0.3694(2) 0.4780(3) 0.1534(4)
H14 H 0.4061 0.4395 0.1599
C23 C 0.2641(2) 0.4917(3) 0.1429(3)
H15 H 0.2254 0.4625 0.1412
C24 C 0.2648(2) 0.5934(3) 0.1349(3)
H16 H 0.2276 0.6303 0.1287
H5 H 0.4865 0.9761 0.8735
C12 C 0.5000 0.9598(4) 0.7500
H6 H 0.5000 0.8913 0.7500
H20 H 0.5135 0.9761 0.6265
C36 C 0.6638(2) 0.9678(3) 0.3833(3)
H22 H 0.6321 0.9325 0.3956
C37 C 0.71422(19) 0.9186(3) 0.3717(3)
C38 C 0.7605(2) 0.9766(3) 0.3566(4)
H23 H 0.7969 0.9476 0.3510
C40 C 0.7198(2) 0.8110(3) 0.3703(3)
H25 H 0.7586 0.7857 0.3693
C41 C 0.6750(2) 0.7471(3) 0.3704(3)
H26 H 0.6372 0.7720 0.3750
C42 C 0.6795(2) 0.6394(3) 0.3638(3)
C43 C 0.6267(2) 0.5789(3) 0.3553(4)
H27 H 0.5881 0.6064 0.3554
C44 C 0.6306(2) 0.4780(3) 0.3466(4)
H28 H 0.5939 0.4395 0.3401
C45 C 0.7359(2) 0.4917(3) 0.3571(3)
H29 H 0.7746 0.4625 0.3588
C46 C 0.7352(2) 0.5934(3) 0.3651(3)
H30 H 0.7724 0.6303 0.3713
C22_2 C 0.1306(2) 0.0220(3) 0.8466(4)
H14_2 H 0.0939 0.0605 0.8401
C23_2 C 0.2359(2) 0.0083(3) 0.8571(3)
H15_2 H 0.2746 0.0375 0.8588
N2 N 0.18453(15) 0.0665(2) 0.8470(2)
C1_2 C 0.15991(17) 0.2615(2) 0.0317(3)
C2_2 C 0.08954(18) 0.2779(2) 0.0218(3)
C6_2 C 0.01563(17) 0.3351(3) 0.0920(2)
C7_2 C 0.08043(18) 0.3201(3) 0.0998(3)
H3_2 H 0.1184 0.3386 0.1583
C9_2 C 0.00771(17) 0.3868(3) 0.1746(3)
C10_2 C -0.0000 0.3359(4) 0.2500
H4_2 H -0.0000 0.2674 0.2500
C11_2 C 0.0080(2) 0.4893(3) 0.1760(3)
H5_2 H 0.0135 0.5239 0.1265
C12_2 C 0.0000 0.5402(4) 0.2500
H6_2 H -0.0000 0.6087 0.2500
C28_2 C 0.03280(18) 0.2679(3) 0.5763(3)
C29_2 C 0.04049(18) 0.3072(3) 0.4960(3)
H18_2 H 0.0839 0.3150 0.5014
C32_2 C 0.09417(18) 0.2453(3) 0.6740(3)
O7 O 0.08569(13) 0.2338(2) 0.75090(18)
O8 O 0.15271(13) 0.2394(2) 0.6785(2)
C3_2 C 0.03224(18) 0.2536(3) 0.9331(3)
H1_2 H 0.0377 0.2275 0.8797
C13_2 C 0.1597(2) 0.4308(3) 0.8769(3)
H7_2 H 0.1250 0.3999 0.8853
C14_2 C 0.1638(2) 0.5322(3) 0.8833(3)
H8_2 H 0.1321 0.5675 0.8956
C15_2 C 0.21422(19) 0.5814(3) 0.8717(3)
C16_2 C 0.2605(2) 0.5234(3) 0.8566(4)
H9_2 H 0.2969 0.5524 0.8510
C17_2 C 0.2525(2) 0.4225(3) 0.8498(3)
H10_2 H 0.2836 0.3856 0.8379
C18_2 C 0.2198(2) 0.6890(3) 0.8703(3)
H11_2 H 0.2586 0.7143 0.8693
C19_2 C 0.1750(2) 0.7529(3) 0.8704(3)
H12_2 H 0.1372 0.7280 0.8750
C20_2 C 0.1795(2) 0.8606(3) 0.8638(3)
C21_2 C 0.1267(2) 0.9211(3) 0.8553(4)
H13_2 H 0.0881 0.8936 0.8554
C24_2 C 0.2352(2) 0.9066(3) 0.8651(3)
H16_2 H 0.2724 0.8697 0.8713
N1_2 N 0.20288(16) 0.3748(2) 0.8593(2)
O1_2 O 0.16552(13) 0.21653(19) 0.96330(19)
C44_2 C 0.8694(2) 0.0220(3) 0.6534(4)
H28_2 H 0.9061 0.0605 0.6599
C45_2 C 0.7641(2) 0.0083(3) 0.6429(3)
H29_2 H 0.7254 0.0375 0.6412
N4 N 0.81547(15) 0.0665(2) 0.6530(2)
C5_2 C 0.95951(18) 0.3072(3) 0.0040(3)
C10_3 C 1.0000 0.3359(4) 0.2500
H4_3 H 1.0000 0.2674 0.2500
C12_3 C 1.0000 0.5402(4) 0.2500
H6_3 H 1.0000 0.6087 0.2500
C25_2 C 0.84009(17) 0.2615(2) 0.4683(3)
C26_2 C 0.91046(18) 0.2779(2) 0.4782(3)
C27_2 C 0.96776(18) 0.2536(3) 0.5669(3)
H17_2 H 0.9623 0.2275 0.6203
C30_2 C 0.98437(17) 0.3351(3) 0.4080(2)
C31_2 C 0.91957(18) 0.3201(3) 0.4002(3)
H19_2 H 0.8816 0.3386 0.3417
C33_2 C 0.99229(17) 0.3868(3) 0.3254(3)
C34_2 C 0.9920(2) 0.4893(3) 0.3240(3)
H20_2 H 0.9865 0.5239 0.3735
O5_2 O 0.83448(13) 0.21653(19) 0.53670(19)
C35_2 C 0.8403(2) 0.4308(3) 0.6231(3)
H21_2 H 0.8750 0.3999 0.6147
C36_2 C 0.8362(2) 0.5322(3) 0.6167(3)
H22_2 H 0.8679 0.5675 0.6044
C37_2 C 0.78578(19) 0.5814(3) 0.6283(3)
C38_2 C 0.7395(2) 0.5234(3) 0.6434(4)
H23_2 H 0.7031 0.5524 0.6490
C39_2 C 0.7475(2) 0.4225(3) 0.6502(3)
H24_2 H 0.7164 0.3856 0.6621
C40_2 C 0.7802(2) 0.6890(3) 0.6297(3)
H25_2 H 0.7414 0.7143 0.6307
C41_2 C 0.8250(2) 0.7529(3) 0.6296(3)
H26_2 H 0.8628 0.7280 0.6250
C42_2 C 0.8205(2) 0.8606(3) 0.6362(3)
C43_2 C 0.8733(2) 0.9211(3) 0.6447(4)
H27_2 H 0.9119 0.8936 0.6446
C46_2 C 0.7648(2) 0.9066(3) 0.6349(3)
H30_2 H 0.7276 0.8697 0.6287
N3_2 N 0.79712(16) 0.3748(2) 0.6407(2)
O11 O 0.91431(13) 0.2338(2) 0.74910(18)
O13 O 0.84729(13) 0.2394(2) 0.8215(2)
C4_2 C 0.96720(18) 0.2679(3) 0.9237(3)
H2_2 H 0.9161 0.3150 0.9986
C8_2 C 0.90583(18) 0.2453(3) 0.8260(3)
C4_3 C 0.03280(18) 0.7321(3) 0.0763(3)
H2_3 H 0.0839 0.6850 0.0014
C8_3 C 0.09417(18) 0.7547(3) 0.1740(3)
O3_2 O 0.08569(13) 0.7662(2) 0.25090(18)
O4_2 O 0.15271(13) 0.7606(2) 0.1785(2)
Ni6_2 Ni 0.19043(2) 0.77845(3) 0.34669(3)
C5_3 C 0.04049(18) 0.6928(3) 0.9960(3)
C10_4 C -0.0000 0.6641(4) 0.7500
H4_4 H -0.0000 0.7326 0.7500
C12_4 C -0.0000 0.4598(4) 0.7500
H6_4 H -0.0000 0.3913 0.7500
C25_3 C 0.15991(17) 0.7385(2) 0.5317(3)
C26_3 C 0.08954(18) 0.7221(2) 0.5218(3)
C27_3 C 0.03224(18) 0.7464(3) 0.4331(3)
H17_3 H 0.0377 0.7725 0.3797
C30_3 C 0.01563(17) 0.6649(3) 0.5920(2)
C31_3 C 0.08043(18) 0.6799(3) 0.5998(3)
H19_3 H 0.1184 0.6614 0.6583
C33_3 C 0.00771(17) 0.6132(3) 0.6746(3)
C34_3 C 0.0080(2) 0.5107(3) 0.6760(3)
H20_3 H 0.0135 0.4761 0.6265
O5_3 O 0.16552(13) 0.78347(19) 0.46330(19)
O6_2 O 0.20910(12) 0.70613(18) 0.61091(19)
C35_3 C 0.1597(2) 0.5692(3) 0.3769(3)
H21_3 H 0.1250 0.6001 0.3853
C36_3 C 0.1638(2) 0.4678(3) 0.3833(3)
H22_3 H 0.1321 0.4325 0.3956
C37_3 C 0.21422(19) 0.4186(3) 0.3717(3)
C38_3 C 0.2605(2) 0.4766(3) 0.3566(4)
H23_3 H 0.2969 0.4476 0.3510
C39_3 C 0.2525(2) 0.5775(3) 0.3498(3)
H24_3 H 0.2836 0.6144 0.3379
C40_3 C 0.2198(2) 0.3110(3) 0.3703(3)
H25_3 H 0.2586 0.2857 0.3693
C41_3 C 0.1750(2) 0.2471(3) 0.3704(3)
H26_3 H 0.1372 0.2720 0.3750
C42_3 C 0.1795(2) 0.1394(3) 0.3638(3)
C43_3 C 0.1267(2) 0.0789(3) 0.3553(4)
H27_3 H 0.0881 0.1064 0.3554
C46_3 C 0.2352(2) 0.0934(3) 0.3651(3)
H30_3 H 0.2724 0.1303 0.3713
N3_3 N 0.20288(16) 0.6252(2) 0.3593(2)
Ni8_2 Ni 0.30957(2) 0.72155(3) 0.65331(3)
N6_2 N 0.18453(15) 0.9335(2) 0.3470(2)
O10_2 O 0.29090(12) 0.79387(18) 0.38909(19)
C44_3 C 0.1306(2) 0.9780(3) 0.3466(4)
H28_3 H 0.0939 0.9395 0.3401
C45_3 C 0.2359(2) 0.9917(3) 0.3571(3)
H29_3 H 0.2746 0.9625 0.3588
Ni1_2 Ni 0.80957(2) 0.77845(3) 0.15331(3)
C3_3 C 0.96776(18) 0.7464(3) 0.0669(3)
H1_3 H 0.9623 0.7725 0.1203
C13_3 C 0.8403(2) 0.5692(3) 0.1231(3)
H7_3 H 0.8750 0.6001 0.1147
C14_3 C 0.8362(2) 0.4678(3) 0.1167(3)
H8_3 H 0.8679 0.4325 0.1044
C15_3 C 0.78578(19) 0.4186(3) 0.1283(3)
C16_3 C 0.7395(2) 0.4766(3) 0.1434(4)
H9_3 H 0.7031 0.4476 0.1490
C17_3 C 0.7475(2) 0.5775(3) 0.1502(3)
H10_3 H 0.7164 0.6144 0.1621
C18_3 C 0.7802(2) 0.3110(3) 0.1297(3)
H11_3 H 0.7414 0.2857 0.1307
C19_3 C 0.8250(2) 0.2471(3) 0.1296(3)
H12_3 H 0.8628 0.2720 0.1250
C20_3 C 0.8205(2) 0.1394(3) 0.1362(3)
C21_3 C 0.8733(2) 0.0789(3) 0.1447(4)
H13_3 H 0.9119 0.1064 0.1446
C24_3 C 0.7648(2) 0.0934(3) 0.1349(3)
H16_3 H 0.7276 0.1303 0.1287
N1_3 N 0.79712(16) 0.6252(2) 0.1407(2)
O1_3 O 0.83448(13) 0.78347(19) 0.03670(19)
N5_2 N 0.81547(15) 0.9335(2) 0.1530(2)
O9_2 O 0.70910(12) 0.79387(18) 0.11091(19)
O12_2 O 0.91431(13) 0.7662(2) 0.24910(18)
O14_2 O 0.84729(13) 0.7606(2) 0.3215(2)
C1_3 C 0.84009(17) 0.7385(2) 0.9683(3)
C2_3 C 0.91046(18) 0.7221(2) 0.9782(3)
C6_3 C 0.98437(17) 0.6649(3) 0.9080(2)
C7_3 C 0.91957(18) 0.6799(3) 0.9002(3)
H3_3 H 0.8816 0.6614 0.8417
C9_3 C 0.99229(17) 0.6132(3) 0.8254(3)
C10_5 C 1.0000 0.6641(4) 0.7500
H4_5 H 1.0000 0.7326 0.7500
C11_3 C 0.9920(2) 0.5107(3) 0.8240(3)
H5_3 H 0.9865 0.4761 0.8735
C12_5 C 1.0000 0.4598(4) 0.7500
H6_5 H 1.0000 0.3913 0.7500
O2_2 O 0.79090(12) 0.70613(18) 0.88909(19)
C28_3 C 0.96720(18) 0.7321(3) 0.4237(3)
C29_3 C 0.95951(18) 0.6928(3) 0.5040(3)
H18_3 H 0.9161 0.6850 0.4986
C32_3 C 0.90583(18) 0.7547(3) 0.3260(3)
Ni7_2 Ni 0.69043(2) 0.72155(3) 0.84669(3)
C22_3 C 0.8694(2) 0.9780(3) 0.1534(4)
H14_3 H 0.9061 0.9395 0.1599
C23_3 C 0.7641(2) 0.9917(3) 0.1429(3)
H15_3 H 0.7254 0.9625 0.1412
H5_4 H 0.5135 0.0239 0.1265
C12_6 C 0.5000 0.0402(4) 0.2500
H6_6 H 0.5000 0.1087 0.2500
H20_4 H 0.4865 0.0239 0.3735
C36_4 C 0.3362(2) 0.0322(3) 0.6167(3)
H22_4 H 0.3679 0.0675 0.6044
C37_4 C 0.28578(19) 0.0814(3) 0.6283(3)
C38_4 C 0.2395(2) 0.0234(3) 0.6434(4)
H23_4 H 0.2031 0.0524 0.6490
C40_4 C 0.2802(2) 0.1890(3) 0.6297(3)
H25_4 H 0.2414 0.2143 0.6307
C41_4 C 0.3250(2) 0.2529(3) 0.6296(3)
H26_4 H 0.3628 0.2280 0.6250
C42_4 C 0.3205(2) 0.3606(3) 0.6362(3)
C43_4 C 0.3733(2) 0.4211(3) 0.6447(4)
H27_4 H 0.4119 0.3936 0.6446
C44_4 C 0.3694(2) 0.5220(3) 0.6534(4)
H28_4 H 0.4061 0.5605 0.6599
C45_4 C 0.2641(2) 0.5083(3) 0.6429(3)
H29_4 H 0.2254 0.5375 0.6412
C46_4 C 0.2648(2) 0.4066(3) 0.6349(3)
H30_4 H 0.2276 0.3697 0.6287
N4_2 N 0.31547(15) 0.5665(2) 0.6530(2)
C14_4 C 0.6638(2) 0.0322(3) 0.8833(3)
H8_4 H 0.6321 0.0675 0.8956
C15_4 C 0.71422(19) 0.0814(3) 0.8717(3)
C16_4 C 0.7605(2) 0.0234(3) 0.8566(4)
H9_4 H 0.7969 0.0524 0.8510
C18_4 C 0.7198(2) 0.1890(3) 0.8703(3)
H11_4 H 0.7586 0.2143 0.8693
C19_4 C 0.6750(2) 0.2529(3) 0.8704(3)
H12_4 H 0.6372 0.2280 0.8750
C20_4 C 0.6795(2) 0.3606(3) 0.8638(3)
C21_4 C 0.6267(2) 0.4211(3) 0.8553(4)
H13_4 H 0.5881 0.3936 0.8554
C22_4 C 0.6306(2) 0.5220(3) 0.8466(4)
H14_4 H 0.5939 0.5605 0.8401
C23_4 C 0.7359(2) 0.5083(3) 0.8571(3)
H15_4 H 0.7746 0.5375 0.8588
C24_4 C 0.7352(2) 0.4066(3) 0.8651(3)
H16_4 H 0.7724 0.3697 0.8713
N2_2 N 0.68453(15) 0.5665(2) 0.8470(2)
C1_4 C 0.65991(17) 0.7615(2) 0.0317(3)
C2_4 C 0.58954(18) 0.7779(2) 0.0218(3)
C5_4 C 0.45951(18) 0.8072(3) 0.0040(3)
C6_4 C 0.51563(17) 0.8351(3) 0.0920(2)
C7_4 C 0.58043(18) 0.8201(3) 0.0998(3)
H3_4 H 0.6184 0.8386 0.1583
C9_4 C 0.50771(17) 0.8868(3) 0.1746(3)
C10_6 C 0.5000 0.8359(4) 0.2500
H4_6 H 0.5000 0.7674 0.2500
C11_4 C 0.5080(2) 0.9893(3) 0.1760(3)
C25_4 C 0.34009(17) 0.7615(2) 0.4683(3)
C26_4 C 0.41046(18) 0.7779(2) 0.4782(3)
C27_4 C 0.46776(18) 0.7536(3) 0.5669(3)
H17_4 H 0.4623 0.7275 0.6203
C28_4 C 0.53280(18) 0.7679(3) 0.5763(3)
C29_4 C 0.54049(18) 0.8072(3) 0.4960(3)
H18_4 H 0.5839 0.8150 0.5014
C30_4 C 0.48437(17) 0.8351(3) 0.4080(2)
C31_4 C 0.41957(18) 0.8201(3) 0.4002(3)
H19_4 H 0.3816 0.8386 0.3417
C32_4 C 0.59417(18) 0.7453(3) 0.6740(3)
C33_4 C 0.49229(17) 0.8868(3) 0.3254(3)
C34_4 C 0.4920(2) 0.9893(3) 0.3240(3)
O5_4 O 0.33448(13) 0.71653(19) 0.53670(19)
O7_2 O 0.58569(13) 0.7338(2) 0.75090(18)
O8_2 O 0.65271(13) 0.7394(2) 0.6785(2)
C35_4 C 0.3403(2) 0.9308(3) 0.6231(3)
H21_4 H 0.3750 0.8999 0.6147
C39_4 C 0.2475(2) 0.9225(3) 0.6502(3)
H24_4 H 0.2164 0.8856 0.6621
N3_4 N 0.29712(16) 0.8748(2) 0.6407(2)
O11_2 O 0.41431(13) 0.7338(2) 0.74910(18)
O13_2 O 0.34729(13) 0.7394(2) 0.8215(2)
C3_4 C 0.53224(18) 0.7536(3) 0.9331(3)
H1_4 H 0.5377 0.7275 0.8797
C4_4 C 0.46720(18) 0.7679(3) 0.9237(3)
H2_4 H 0.4161 0.8150 0.9986
C8_4 C 0.40583(18) 0.7453(3) 0.8260(3)
C13_4 C 0.6597(2) 0.9308(3) 0.8769(3)
H7_4 H 0.6250 0.8999 0.8853
C17_4 C 0.7525(2) 0.9225(3) 0.8498(3)
H10_4 H 0.7836 0.8856 0.8379
N1_4 N 0.70288(16) 0.8748(2) 0.8593(2)
O1_4 O 0.66552(13) 0.71653(19) 0.96330(19)
loop_
_geom_bond_atom_site_label_1
_geom_bond_atom_site_label_2
_geom_bond_site_symmetry_1
_geom_bond_site_symmetry_2
Ni1 N1 1_555 1_555
C3 H1 1_555 1_555
C4 C3 1_555 1_555
C8 C4 1_555 1_555
C13 H7 1_555 1_555
H10 C17 1_555 1_555
N1 C13 1_555 1_555
O1 Ni1 1_555 1_555
O3 C8 1_555 1_555
O4 C8 1_555 1_555
Ni6 O3 1_555 1_555
N5 Ni1 1_555 1_555
O9 Ni1 1_555 1_555
O12 Ni1 1_555 1_555
O14 Ni1 1_555 1_555
C17 N1 1_555 1_555
O4 Ni6 1_555 1_555
C1 C2 1_555 1_555
C6 C5 1_555 1_555
C7 C2 1_555 1_555
H3 C7 1_555 1_555
C9 C6 1_555 1_555
C10 C9 1_555 1_555
H4 C10 1_555 1_555
C11 C9 1_555 1_555
O2 C1 1_555 1_555
C25 C26 1_555 1_555
C26 C27 1_555 1_555
C27 H17 1_555 1_555
C28 C27 1_555 1_555
C29 C28 1_555 1_555
H18 C29 1_555 1_555
C30 C29 1_555 1_555
C31 C26 1_555 1_555
H19 C31 1_555 1_555
C32 C28 1_555 1_555
C33 C10 1_555 1_555
O5 C25 1_555 1_555
O6 C25 1_555 1_555
O12 C32 1_555 1_555
O14 C32 1_555 1_555
Ni6 O5 1_555 1_555
C35 H21 1_555 1_555
H24 C39 1_555 1_555
N3 Ni6 1_555 1_555
Ni7 O2 1_555 1_555
Ni8 O6 1_555 1_555
N6 Ni6 1_555 1_555
O10 Ni6 1_555 1_555
C6 C7 1_555 1_555
C30 C31 1_555 1_555
C30 C33 1_555 1_555
C33 C34 1_555 1_555
C35 N3 1_555 1_555
C39 N3 1_555 1_555
H8 C14 1_555 1_555
C15 C14 1_555 1_555
C16 C15 1_555 1_555
H9 C16 1_555 1_555
C18 C15 1_555 1_555
H11 C18 1_555 1_555
C19 C18 1_555 1_555
H12 C19 1_555 1_555
C20 C19 1_555 1_555
C21 C20 1_555 1_555
H13 C21 1_555 1_555
C22 C21 1_555 1_555
H14 C22 1_555 1_555
C23 H15 1_555 1_555
C24 C20 1_555 1_555
H16 C24 1_555 1_555
N5 C22 1_555 1_555
C23 C24 1_555 1_555
C23 N5 1_555 1_555
H6 C12 1_555 1_555
H22 C36 1_555 1_555
C37 C36 1_555 1_555
C38 C37 1_555 1_555
H23 C38 1_555 1_555
C40 C37 1_555 1_555
H25 C40 1_555 1_555
C41 C40 1_555 1_555
H26 C41 1_555 1_555
C42 C41 1_555 1_555
C43 C42 1_555 1_555
H27 C43 1_555 1_555
C44 C43 1_555 1_555
H28 C44 1_555 1_555
C45 H29 1_555 1_555
C46 C42 1_555 1_555
H30 C46 1_555 1_555
N6 C44 1_555 1_555
C45 C46 1_555 1_555
C45 N6 1_555 1_555
H14_2 C22_2 1_555 1_555
C23_2 H15_2 1_555 1_555
N2 C22_2 1_555 1_555
Ni7 N2 1_555 1_555
C23_2 N2 1_555 1_555
C1_2 C2_2 1_555 1_555
C7_2 C2_2 1_555 1_555
H3_2 C7_2 1_555 1_555
C9_2 C6_2 1_555 1_555
C10_2 C9_2 1_555 1_555
H4_2 C10_2 1_555 1_555
C11_2 C9_2 1_555 1_555
H5_2 C11_2 1_555 1_555
C12_2 C11_2 1_555 1_555
H6_2 C12_2 1_555 1_555
O9 C1_2 1_555 1_555
C29_2 C28_2 1_555 1_555
H18_2 C29_2 1_555 1_555
C32_2 C28_2 1_555 1_555
O7 C32_2 1_555 1_555
O8 C32_2 1_555 1_555
Ni7 O7 1_555 1_555
C6_2 C7_2 1_555 1_555
O8 Ni7 1_555 1_555
Ni7 N1_2 1_555 1_555
C3_2 H1_2 1_555 1_555
C13_2 H7_2 1_555 1_555
C14_2 C13_2 1_555 1_555
H8_2 C14_2 1_555 1_555
C15_2 C14_2 1_555 1_555
C16_2 C15_2 1_555 1_555
H9_2 C16_2 1_555 1_555
C17_2 C16_2 1_555 1_555
H10_2 C17_2 1_555 1_555
C18_2 C15_2 1_555 1_555
H11_2 C18_2 1_555 1_555
C19_2 C18_2 1_555 1_555
H12_2 C19_2 1_555 1_555
C20_2 C19_2 1_555 1_555
C21_2 C20_2 1_555 1_555
H13_2 C21_2 1_555 1_555
C24_2 C20_2 1_555 1_555
H16_2 C24_2 1_555 1_555
N1_2 C13_2 1_555 1_555
O1_2 Ni7 1_555 1_555
C17_2 N1_2 1_555 1_555
H28_2 C44_2 1_555 1_555
C45_2 H29_2 1_555 1_555
N4 C44_2 1_555 1_555
Ni8 N4 1_555 1_555
C45_2 N4 1_555 1_555
H4_3 C10_3 1_555 1_555
H6_3 C12_3 1_555 1_555
C25_2 C26_2 1_555 1_555
C26_2 C27_2 1_555 1_555
C27_2 H17_2 1_555 1_555
C31_2 C26_2 1_555 1_555
H19_2 C31_2 1_555 1_555
C33_2 C10_3 1_555 1_555
C34_2 C12_3 1_555 1_555
H20_2 C34_2 1_555 1_555
O5_2 C25_2 1_555 1_555
O10 C25_2 1_555 1_555
Ni8 O5_2 1_555 1_555
C35_2 H21_2 1_555 1_555
C36_2 C35_2 1_555 1_555
H22_2 C36_2 1_555 1_555
C37_2 C36_2 1_555 1_555
C38_2 C37_2 1_555 1_555
H23_2 C38_2 1_555 1_555
C39_2 C38_2 1_555 1_555
H24_2 C39_2 1_555 1_555
C40_2 C37_2 1_555 1_555
H25_2 C40_2 1_555 1_555
C41_2 C40_2 1_555 1_555
H26_2 C41_2 1_555 1_555
C42_2 C41_2 1_555 1_555
C43_2 C42_2 1_555 1_555
H27_2 C43_2 1_555 1_555
C46_2 C42_2 1_555 1_555
H30_2 C46_2 1_555 1_555
N3_2 Ni8 1_555 1_555
O11 Ni8 1_555 1_555
O13 Ni8 1_555 1_555
C30_2 C31_2 1_555 1_555
C30_2 C33_2 1_555 1_555
C33_2 C34_2 1_555 1_555
C35_2 N3_2 1_555 1_555
C39_2 N3_2 1_555 1_555
C8_2 C4_2 1_555 1_555
O11 C8_2 1_555 1_555
O13 C8_2 1_555 1_555
C8_3 C4_3 1_555 1_555
O3_2 C8_3 1_555 1_555
O4_2 C8_3 1_555 1_555
Ni6_2 O3_2 1_555 1_555
O4_2 Ni6_2 1_555 1_555
H4_4 C10_4 1_555 1_555
H6_4 C12_4 1_555 1_555
C25_3 C26_3 1_555 1_555
C26_3 C27_3 1_555 1_555
C27_3 H17_3 1_555 1_555
C31_3 C26_3 1_555 1_555
H19_3 C31_3 1_555 1_555
C33_3 C10_4 1_555 1_555
C34_3 C12_4 1_555 1_555
H20_3 C34_3 1_555 1_555
O5_3 C25_3 1_555 1_555
O6_2 C25_3 1_555 1_555
Ni6_2 O5_3 1_555 1_555
C35_3 H21_3 1_555 1_555
C36_3 C35_3 1_555 1_555
H22_3 C36_3 1_555 1_555
C37_3 C36_3 1_555 1_555
C38_3 C37_3 1_555 1_555
H23_3 C38_3 1_555 1_555
C39_3 C38_3 1_555 1_555
H24_3 C39_3 1_555 1_555
C40_3 C37_3 1_555 1_555
H25_3 C40_3 1_555 1_555
C41_3 C40_3 1_555 1_555
H26_3 C41_3 1_555 1_555
C42_3 C41_3 1_555 1_555
C43_3 C42_3 1_555 1_555
H27_3 C43_3 1_555 1_555
C46_3 C42_3 1_555 1_555
H30_3 C46_3 1_555 1_555
N3_3 Ni6_2 1_555 1_555
Ni8_2 O6_2 1_555 1_555
N6_2 Ni6_2 1_555 1_555
O10_2 Ni6_2 1_555 1_555
C30_3 C31_3 1_555 1_555
C30_3 C33_3 1_555 1_555
C33_3 C34_3 1_555 1_555
C35_3 N3_3 1_555 1_555
C39_3 N3_3 1_555 1_555
H28_3 C44_3 1_555 1_555
C45_3 H29_3 1_555 1_555
N6_2 C44_3 1_555 1_555
C45_3 N6_2 1_555 1_555
Ni1_2 N1_3 1_555 1_555
C3_3 H1_3 1_555 1_555
C13_3 H7_3 1_555 1_555
C14_3 C13_3 1_555 1_555
H8_3 C14_3 1_555 1_555
C15_3 C14_3 1_555 1_555
C16_3 C15_3 1_555 1_555
H9_3 C16_3 1_555 1_555
C17_3 C16_3 1_555 1_555
H10_3 C17_3 1_555 1_555
C18_3 C15_3 1_555 1_555
H11_3 C18_3 1_555 1_555
C19_3 C18_3 1_555 1_555
H12_3 C19_3 1_555 1_555
C20_3 C19_3 1_555 1_555
C21_3 C20_3 1_555 1_555
H13_3 C21_3 1_555 1_555
C24_3 C20_3 1_555 1_555
H16_3 C24_3 1_555 1_555
N1_3 C13_3 1_555 1_555
O1_3 Ni1_2 1_555 1_555
N5_2 Ni1_2 1_555 1_555
O9_2 Ni1_2 1_555 1_555
O12_2 Ni1_2 1_555 1_555
O14_2 Ni1_2 1_555 1_555
C17_3 N1_3 1_555 1_555
C1_3 C2_3 1_555 1_555
C7_3 C2_3 1_555 1_555
H3_3 C7_3 1_555 1_555
C9_3 C6_3 1_555 1_555
C10_5 C9_3 1_555 1_555
H4_5 C10_5 1_555 1_555
C11_3 C9_3 1_555 1_555
H5_3 C11_3 1_555 1_555
C12_5 C11_3 1_555 1_555
H6_5 C12_5 1_555 1_555
O2_2 C1_3 1_555 1_555
C29_3 C28_3 1_555 1_555
H18_3 C29_3 1_555 1_555
C32_3 C28_3 1_555 1_555
O12_2 C32_3 1_555 1_555
O14_2 C32_3 1_555 1_555
Ni7_2 O2_2 1_555 1_555
C6_3 C7_3 1_555 1_555
H14_3 C22_3 1_555 1_555
C23_3 H15_3 1_555 1_555
N5_2 C22_3 1_555 1_555
C23_3 N5_2 1_555 1_555
H6_6 C12_6 1_555 1_555
H22_4 C36_4 1_555 1_555
C37_4 C36_4 1_555 1_555
C38_4 C37_4 1_555 1_555
H23_4 C38_4 1_555 1_555
C40_4 C37_4 1_555 1_555
H25_4 C40_4 1_555 1_555
C41_4 C40_4 1_555 1_555
H26_4 C41_4 1_555 1_555
C42_4 C41_4 1_555 1_555
C43_4 C42_4 1_555 1_555
H27_4 C43_4 1_555 1_555
C44_4 C43_4 1_555 1_555
H28_4 C44_4 1_555 1_555
C45_4 H29_4 1_555 1_555
C46_4 C42_4 1_555 1_555
H30_4 C46_4 1_555 1_555
N4_2 C44_4 1_555 1_555
Ni8_2 N4_2 1_555 1_555
C45_4 C46_4 1_555 1_555
C45_4 N4_2 1_555 1_555
H8_4 C14_4 1_555 1_555
C15_4 C14_4 1_555 1_555
C16_4 C15_4 1_555 1_555
H9_4 C16_4 1_555 1_555
C18_4 C15_4 1_555 1_555
H11_4 C18_4 1_555 1_555
C19_4 C18_4 1_555 1_555
H12_4 C19_4 1_555 1_555
C20_4 C19_4 1_555 1_555
C21_4 C20_4 1_555 1_555
H13_4 C21_4 1_555 1_555
C22_4 C21_4 1_555 1_555
H14_4 C22_4 1_555 1_555
C23_4 H15_4 1_555 1_555
C24_4 C20_4 1_555 1_555
H16_4 C24_4 1_555 1_555
N2_2 C22_4 1_555 1_555
Ni7_2 N2_2 1_555 1_555
C23_4 C24_4 1_555 1_555
C23_4 N2_2 1_555 1_555
C1_4 C2_4 1_555 1_555
C6_4 C5_4 1_555 1_555
C7_4 C2_4 1_555 1_555
H3_4 C7_4 1_555 1_555
C9_4 C6_4 1_555 1_555
C10_6 C9_4 1_555 1_555
H4_6 C10_6 1_555 1_555
C11_4 C9_4 1_555 1_555
O9_2 C1_4 1_555 1_555
C25_4 C26_4 1_555 1_555
C26_4 C27_4 1_555 1_555
C27_4 H17_4 1_555 1_555
C28_4 C27_4 1_555 1_555
C29_4 C28_4 1_555 1_555
H18_4 C29_4 1_555 1_555
C30_4 C29_4 1_555 1_555
C31_4 C26_4 1_555 1_555
H19_4 C31_4 1_555 1_555
C32_4 C28_4 1_555 1_555
C33_4 C10_6 1_555 1_555
O5_4 C25_4 1_555 1_555
O10_2 C25_4 1_555 1_555
O7_2 C32_4 1_555 1_555
O8_2 C32_4 1_555 1_555
Ni8_2 O5_4 1_555 1_555
C35_4 H21_4 1_555 1_555
H24_4 C39_4 1_555 1_555
N3_4 Ni8_2 1_555 1_555
Ni7_2 O7_2 1_555 1_555
O11_2 Ni8_2 1_555 1_555
O13_2 Ni8_2 1_555 1_555
C6_4 C7_4 1_555 1_555
C30_4 C31_4 1_555 1_555
C30_4 C33_4 1_555 1_555
C33_4 C34_4 1_555 1_555
O8_2 Ni7_2 1_555 1_555
C35_4 N3_4 1_555 1_555
C39_4 N3_4 1_555 1_555
Ni7_2 N1_4 1_555 1_555
C3_4 H1_4 1_555 1_555
C4_4 C3_4 1_555 1_555
C8_4 C4_4 1_555 1_555
C13_4 H7_4 1_555 1_555
H10_4 C17_4 1_555 1_555
N1_4 C13_4 1_555 1_555
O1_4 Ni7_2 1_555 1_555
O11_2 C8_4 1_555 1_555
O13_2 C8_4 1_555 1_555
C17_4 N1_4 1_555 1_555

#END
