
###############################################################################
#
# This file contains modified crystal structure data generated from the
# MOF subset of the Cambridge Structural Database (CSD) v543 
# hosted by the Cambridge Crystallographic Data Centre (CCDC).
#
# This work is licensed under the Creative Commons
# Attribution-NonCommercial-ShareAlike 4.0 International License.
# To view a copy of this license, visit
# http://creativecommons.org/licenses/by-nc-sa/4.0/
# or send a letter to
# Creative Commons, PO Box 1866, Mountain View, CA 94042, USA.
#
# CIF created using the CSD Python API on 29 September 2022
# The structure has been converted into the P1 space group
# The structure has a 3D framework
# The original CSD entry DORNAB is in the orthorhombic crystal system
# The framework has been calculated to contain at least 10.0% void space
# The void calculation uses a probe of radius 1.32A, grid spacing 0.4
# H atom positions have been added when not included in the experimental data
# Generated hydrogen atom positions removed from atoms on special positions
#
###############################################################################

data_DORNAB
_chemical_formula_moiety         '(C576 H432 Cu72 N16 O264)n'
_symmetry_cell_setting           triclinic
_symmetry_space_group_name_H-M   'P 1'
_symmetry_Int_Tables_number      1
_space_group_name_Hall           'P 1'
loop_
_symmetry_equiv_pos_site_id
_symmetry_equiv_pos_as_xyz
1 x,y,z
_cell_length_a                   14.4693(8)
_cell_length_b                   65.138(3)
_cell_length_c                   28.8888(13)
_cell_angle_alpha                90
_cell_angle_beta                 90
_cell_angle_gamma                90
_cell_volume                     27227.7
loop_
_atom_site_label
_atom_site_type_symbol
_atom_site_fract_x
_atom_site_fract_y
_atom_site_fract_z
Cu1 Cu 0.5000 0.37000(3) 0.17007(6)
Cu2 Cu 0.5000 0.37889(3) 0.07890(6)
Cu7 Cu 0.5000 0.59289(3) 0.36730(7)
Cu8 Cu 0.5000 0.57334(3) 0.28684(7)
Cu9 Cu -0.0000 0.35597(4) 0.61480(7)
Cu10 Cu -0.0000 0.39529(4) 0.63298(8)
Cu11 Cu 0.0000 0.43433(2) 0.00976(6)
Cu12 Cu -0.0000 0.47313(3) 0.03828(7)
O3 O 0.4039(5) 0.35726(11) 0.0777(3)
O9 O 0.0944(5) 0.28378(11) 0.1692(3)
O11 O 0.0938(6) 0.31640(12) 0.1942(3)
O12 O 0.4059(5) 0.35051(11) 0.1527(2)
O13 O 0.4026(6) 0.35956(12) 0.4124(3)
O14 O 0.4068(6) 0.55507(12) 0.3178(3)
O15 O 0.3993(6) 0.57212(11) 0.3852(3)
O16 O 0.0965(7) 0.36335(14) 0.5710(3)
O17 O 0.4012(7) 0.34314(12) 0.4808(3)
O18 O 0.4067(5) 0.39155(11) 0.1763(2)
O19 O 0.0921(6) 0.46483(11) 0.0876(3)
O20 O 0.0904(7) 0.39803(14) 0.5847(3)
O21 O 0.0946(5) 0.55702(10) 0.4674(3)
O22 O 0.0957(5) 0.43207(10) 0.0577(3)
O23 O 0.4014(5) 0.39811(11) 0.0989(2)
O24 O 0.0932(6) 0.52442(10) 0.4929(3)
O25 O 0.5000 0.5581(2) 0.2207(5)
O30 O 0.0000 0.50710(19) 0.0508(6)
O31 O 0.5000 0.36556(19) 0.2454(4)
O32 O 0.5000 0.38384(18) 0.0061(4)
O33 O 0.5000 0.60979(16) 0.4292(4)
O34 O -0.0000 0.4273(2) 0.6537(6)
O35 O -0.0000 0.3247(2) 0.6074(7)
O36 O 0.0000 0.1925(2) 0.0292(5)
N2 N 0.2586(7) 0.48505(15) 0.3669(4)
C6 C 0.2483(6) 0.30361(18) 0.0521(4)
C13 C 0.1919(9) 0.2976(2) 0.0860(5)
H7 H 0.1534 0.2863 0.0820
C14 C 0.3830(7) 0.34731(16) 0.1112(4)
C17 C 0.1914(7) 0.30901(19) 0.1297(4)
C18 C 0.3042(9) 0.32111(19) 0.0597(4)
H9 H 0.3372 0.3265 0.0349
C19 C 0.2417(8) 0.2728(2) 0.0018(5)
H10 H 0.2367 0.2656 0.0295
C20 C 0.2495(6) 0.3242(2) 0.1374(5)
H11 H 0.2493 0.3306 0.1661
C21 C 0.3121(9) 0.33078(16) 0.1032(4)
C27 C 0.1209(7) 0.30231(17) 0.1674(4)
C34 C 0.2479(6) 0.2913(2) 0.0064(4)
C37 C 0.1985(10) 0.4048(2) 0.5052(4)
H16 H 0.1677 0.4157 0.5192
C38 C 0.3075(9) 0.3921(2) 0.4493(5)
H17 H 0.3447 0.3944 0.4236
C39 C 0.2536(10) 0.4913(3) 0.2833(6)
H18 H 0.2501 0.5055 0.2826
C40 C 0.3069(7) 0.41820(18) 0.1502(5)
C41 C 0.2572(9) 0.4671(2) 0.4511(5)
H19 H 0.2542 0.4787 0.4699
C42 C 0.2574(6) 0.50700(15) 0.3830(4)
C43 C 0.3779(9) 0.35638(19) 0.4532(5)
C44 C 0.2529(8) 0.4453(2) 0.1953(5)
C45 C 0.3786(7) 0.40060(17) 0.1409(4)
C46 C 0.1990(10) 0.51222(16) 0.4213(4)
H20 H 0.1678 0.5024 0.4387
C47 C 0.2518(9) 0.4287(2) 0.4404(5)
C48 C 0.1951(9) 0.45137(16) 0.1624(4)
H21 H 0.1568 0.4626 0.1673
C49 C 0.3759(9) 0.5582(2) 0.3585(5)
C50 C 0.2612(9) 0.4798(2) 0.3253(5)
C51 C 0.1239(9) 0.3820(3) 0.5666(5)
C52 C 0.3130(8) 0.54195(16) 0.3790(4)
C53 C 0.3027(10) 0.37181(18) 0.4725(5)
C54 C 0.1899(9) 0.38520(17) 0.5217(4)
C55 C 0.3190(9) 0.5199(2) 0.3664(5)
H22 H 0.3659 0.5153 0.3471
C56 C 0.2518(8) 0.36773(18) 0.5030(4)
H23 H 0.2489 0.3545 0.5152
C57 C 0.2519(6) 0.47934(18) 0.2435(4)
H24 H 0.2503 0.4861 0.2151
C58 C 0.2553(8) 0.46809(17) 0.4032(4)
C59 C 0.2525(8) 0.4550(2) 0.2429(5)
C60 C 0.3069(7) 0.42860(18) 0.1892(4)
H25 H 0.3450 0.4243 0.2133
C61 C 0.2495(7) 0.4239(2) 0.1138(5)
H26 H 0.2495 0.4167 0.0861
C62 C 0.2523(5) 0.44588(17) 0.2840(4)
H27 H 0.2515 0.4316 0.2849
C63 C 0.1191(7) 0.5363(2) 0.4702(4)
C64 C 0.1926(8) 0.53308(16) 0.4304(4)
C65 C 0.1919(8) 0.44080(18) 0.1203(4)
C66 C 0.1189(8) 0.44638(17) 0.0869(4)
C67 C 0.2636(16) 0.4481(3) 0.4677(7)
H28 H 0.2765 0.4467 0.4991
C68 C 0.2516(7) 0.40776(17) 0.4689(4)
C69 C 0.2531(5) 0.45631(19) 0.3248(4)
C70 C 0.2521(7) 0.4301(2) 0.3948(5)
H29 H 0.2520 0.4184 0.3762
C71 C 0.2496(6) 0.5470(2) 0.4089(5)
H30 H 0.2425 0.5608 0.4162
C72 C 0.2527(6) 0.45044(17) 0.3750(4)
Cu16 Cu -0.0000 0.27557(3) 0.21070(7)
Cu18 Cu -0.0000 0.31452(3) 0.23988(7)
Cu20 Cu 0.5000 0.32303(3) 0.46242(8)
Cu22 Cu 0.5000 0.34214(3) 0.38133(7)
Cu31 Cu -0.0000 0.56567(2) 0.50976(6)
Cu32 Cu -0.0000 0.52687(3) 0.53828(7)
O61 O 0.5944(7) 0.61008(15) 0.3398(3)
O62 O 0.4056(7) 0.61008(15) 0.3398(3)
O63 O 0.5961(5) 0.35726(11) 0.0777(3)
O64 O 0.6006(7) 0.59372(14) 0.2734(4)
O65 O 0.3994(7) 0.59372(14) 0.2734(4)
O66 O 0.1004(7) 0.38856(13) 0.6811(3)
O68 O 0.0947(6) 0.35498(14) 0.6657(3)
O76 O 0.5941(5) 0.35051(11) 0.1527(2)
O79 O 0.5932(6) 0.55507(12) 0.3178(3)
O80 O 0.6007(6) 0.57212(11) 0.3852(3)
O83 O 0.5933(5) 0.39155(11) 0.1763(2)
O86 O 0.5986(5) 0.39811(11) 0.0989(2)
H61 H 0.0633485 0.512587 0.0461381
H67 H 0.061923 0.319211 0.61555
Cu3 Cu 0.5000 0.22443(3) 0.71070(7)
Cu4 Cu 0.5000 0.18548(3) 0.73988(7)
Cu5 Cu 0.0000 0.17697(3) 0.96242(8)
Cu6 Cu -0.0000 0.15786(3) 0.88133(7)
O1 O 0.4056(7) 0.38992(15) 0.8398(3)
O2 O 0.0909(6) 0.19496(15) 0.9337(4)
O4 O 0.3994(7) 0.40628(14) 0.7734(4)
O5 O 0.0948(6) 0.17874(13) 0.8689(3)
O8 O 0.4043(5) 0.19384(12) 0.7849(3)
O10 O 0.4041(5) 0.22661(12) 0.7602(3)
O26 O 0.5000 0.2572(2) 0.7017(6)
O27 O 0.5000 0.15218(18) 0.7620(5)
O28 O 0.0000 0.40061(19) 0.9893(5)
O29 O -0.0000 0.1428(2) 0.8100(5)
N1 N 0.2350(9) 0.26592(15) 0.8751(4)
C1 C 0.2329(12) 0.2859(2) 0.8000(6)
H1 H 0.2229 0.2747 0.7809
C2 C 0.2409(7) 0.30343(18) 0.7807(5)
H2 H 0.2457 0.3045 0.7487
C3 C 0.1906(9) 0.34624(18) 0.7471(4)
H3 H 0.1529 0.3363 0.7336
C4 C 0.1864(9) 0.20916(16) 0.8728(4)
C5 C 0.2271(12) 0.2451(2) 0.8604(7)
C7 C 0.3755(8) 0.39279(18) 0.8007(4)
C8 C 0.2409(7) 0.26170(18) 0.9661(4)
H4 H 0.2385 0.2474 0.9671
C9 C 0.2423(7) 0.3208(2) 0.8079(5)
C10 C 0.1167(8) 0.19192(16) 0.8936(4)
C11 C 0.1777(9) 0.22922(18) 0.8867(4)
H5 H 0.1415 0.2327 0.9121
C12 C 0.2973(8) 0.23772(19) 0.8361(5)
H6 H 0.3453 0.2468 0.8296
C15 C 0.3049(10) 0.35685(17) 0.8012(4)
H8 H 0.3468 0.3543 0.8250
C16 C 0.2440(8) 0.27361(19) 0.9223(5)
C22 C 0.1918(9) 0.3659(2) 0.7257(4)
C23 C 0.3061(8) 0.21897(15) 0.8203(4)
C24 C 0.3091(9) 0.37604(17) 0.7822(4)
C25 C 0.2445(11) 0.3054(3) 0.9661(8)
H12 H 0.2448 0.3196 0.9678
C26 C 0.3798(7) 0.21245(16) 0.7893(4)
C28 C 0.2497(7) 0.37862(19) 0.7385(4)
H13 H 0.2579 0.3904 0.7207
C29 C 0.2508(8) 0.3199(2) 0.8576(6)
H14 H 0.2600 0.3321 0.8738
C30 C 0.1188(7) 0.36896(19) 0.6878(3)
C31 C 0.2406(10) 0.2936(2) 0.9238(5)
C32 C 0.2440(10) 0.3399(3) 0.7894(6)
C33 C 0.2386(11) 0.2819(3) 0.8528(7)
C35 C 0.2458(10) 0.3013(3) 0.8830(9)
C36 C 0.2500(8) 0.2029(2) 0.8394(5)
H15 H 0.2557 0.1892 0.8301
Cu25 Cu 0.5000 0.40711(3) 0.86730(7)
Cu28 Cu 0.5000 0.42666(3) 0.78684(7)
O70 O 0.5957(5) 0.19384(12) 0.7849(3)
O71 O 0.4056(5) 0.21622(11) 0.6692(3)
O72 O 0.5944(5) 0.21622(11) 0.6692(3)
O73 O 0.5959(5) 0.22661(12) 0.7602(3)
O74 O 0.4062(6) 0.18360(12) 0.6942(3)
O75 O 0.5938(6) 0.18360(12) 0.6942(3)
O77 O 0.0974(6) 0.14044(12) 0.9124(3)
O81 O 0.0988(7) 0.15686(12) 0.9808(3)
O85 O 0.0946(5) 0.44298(10) 0.9674(3)
O88 O 0.0932(6) 0.47558(10) 0.9929(3)
H65 H 0.062563 0.137306 0.803208
H75 H 0.437457 0.388251 0.996033
H76 H 0.54563 0.394682 0.998256
Cu9_2 Cu 1.0000 0.35597(4) 0.61480(7)
Cu10_2 Cu 1.0000 0.39529(4) 0.63298(8)
Cu11_2 Cu 1.0000 0.43433(2) 0.00976(6)
Cu12_2 Cu 1.0000 0.47313(3) 0.03828(7)
O30_2 O 1.0000 0.50710(19) 0.0508(6)
O34_2 O 1.0000 0.4273(2) 0.6537(6)
O35_2 O 1.0000 0.3247(2) 0.6074(7)
O36_2 O 1.0000 0.1925(2) 0.0292(5)
O45 O 0.9056(5) 0.28378(11) 0.1692(3)
O47 O 0.9062(6) 0.31640(12) 0.1942(3)
O49 O 0.5974(6) 0.35956(12) 0.4124(3)
O52 O 0.9035(7) 0.36335(14) 0.5710(3)
O53 O 0.5988(7) 0.34314(12) 0.4808(3)
O55 O 0.9079(6) 0.46483(11) 0.0876(3)
O56 O 0.9096(7) 0.39803(14) 0.5847(3)
O57 O 0.9054(5) 0.55702(10) 0.4674(3)
O58 O 0.9043(5) 0.43207(10) 0.0577(3)
O60 O 0.9068(6) 0.52442(10) 0.4929(3)
N4 N 0.7414(7) 0.48505(15) 0.3669(4)
C78 C 0.7517(6) 0.30361(18) 0.0521(4)
C85 C 0.8081(9) 0.2976(2) 0.0860(5)
H37 H 0.8466 0.2863 0.0820
C86 C 0.6170(7) 0.34731(16) 0.1112(4)
C89 C 0.8086(7) 0.30901(19) 0.1297(4)
C90 C 0.6958(9) 0.32111(19) 0.0597(4)
H39 H 0.6628 0.3265 0.0349
C91 C 0.7583(8) 0.2728(2) 0.0018(5)
H40 H 0.7633 0.2656 0.0295
C92 C 0.7505(6) 0.3242(2) 0.1374(5)
H41 H 0.7507 0.3306 0.1661
C93 C 0.6879(9) 0.33078(16) 0.1032(4)
C99 C 0.8791(7) 0.30231(17) 0.1674(4)
C106 C 0.7521(6) 0.2913(2) 0.0064(4)
C109 C 0.8015(10) 0.4048(2) 0.5052(4)
H46 H 0.8323 0.4157 0.5192
C110 C 0.6925(9) 0.3921(2) 0.4493(5)
H47 H 0.6553 0.3944 0.4236
C111 C 0.7464(10) 0.4913(3) 0.2833(6)
H48 H 0.7499 0.5055 0.2826
C112 C 0.6931(7) 0.41820(18) 0.1502(5)
C113 C 0.7428(9) 0.4671(2) 0.4511(5)
H49 H 0.7458 0.4787 0.4699
C114 C 0.7426(6) 0.50700(15) 0.3830(4)
C115 C 0.6221(9) 0.35638(19) 0.4532(5)
C116 C 0.7471(8) 0.4453(2) 0.1953(5)
C117 C 0.6214(7) 0.40060(17) 0.1409(4)
C118 C 0.8010(10) 0.51222(16) 0.4213(4)
H50 H 0.8322 0.5024 0.4387
C119 C 0.7482(9) 0.4287(2) 0.4404(5)
C120 C 0.8049(9) 0.45137(16) 0.1624(4)
H51 H 0.8432 0.4626 0.1673
C121 C 0.6241(9) 0.5582(2) 0.3585(5)
C122 C 0.7388(9) 0.4798(2) 0.3253(5)
C123 C 0.8761(9) 0.3820(3) 0.5666(5)
C124 C 0.6870(8) 0.54195(16) 0.3790(4)
C125 C 0.6973(10) 0.37181(18) 0.4725(5)
C126 C 0.8101(9) 0.38520(17) 0.5217(4)
C127 C 0.6810(9) 0.5199(2) 0.3664(5)
H52 H 0.6341 0.5153 0.3471
C128 C 0.7482(8) 0.36773(18) 0.5030(4)
H53 H 0.7511 0.3545 0.5152
C129 C 0.7481(6) 0.47934(18) 0.2435(4)
H54 H 0.7497 0.4861 0.2151
C130 C 0.7447(8) 0.46809(17) 0.4032(4)
C131 C 0.7475(8) 0.4550(2) 0.2429(5)
C132 C 0.6931(7) 0.42860(18) 0.1892(4)
H55 H 0.6550 0.4243 0.2133
C133 C 0.7505(7) 0.4239(2) 0.1138(5)
H56 H 0.7505 0.4167 0.0861
C134 C 0.7477(5) 0.44588(17) 0.2840(4)
H57 H 0.7485 0.4316 0.2849
C135 C 0.8809(7) 0.5363(2) 0.4702(4)
C136 C 0.8074(8) 0.53308(16) 0.4304(4)
C137 C 0.8081(8) 0.44080(18) 0.1203(4)
C138 C 0.8811(8) 0.44638(17) 0.0869(4)
C139 C 0.7364(16) 0.4481(3) 0.4677(7)
H58 H 0.7235 0.4467 0.4991
C140 C 0.7484(7) 0.40776(17) 0.4689(4)
C141 C 0.7469(5) 0.45631(19) 0.3248(4)
C142 C 0.7479(7) 0.4301(2) 0.3948(5)
H59 H 0.7480 0.4184 0.3762
C143 C 0.7504(6) 0.5470(2) 0.4089(5)
H60 H 0.7575 0.5608 0.4162
C144 C 0.7473(6) 0.45044(17) 0.3750(4)
Cu16_2 Cu 1.0000 0.27557(3) 0.21070(7)
Cu18_2 Cu 1.0000 0.31452(3) 0.23988(7)
Cu31_2 Cu 1.0000 0.56567(2) 0.50976(6)
Cu32_2 Cu 1.0000 0.52687(3) 0.53828(7)
O67 O 0.8996(7) 0.38856(13) 0.6811(3)
O69 O 0.9053(6) 0.35498(14) 0.6657(3)
H62 H 0.95692 0.513845 0.0287853
H63 H 0.981367 0.435982 0.627032
H64 H 0.955656 0.429296 0.679545
H68 H 0.952789 0.31862 0.628244
H79 H 0.980807 0.207016 0.024975
H80 H 0.956084 0.185512 0.0503996
H83 H 0.98346 0.392092 0.016577
Cu5_2 Cu 1.0000 0.17697(3) 0.96242(8)
Cu6_2 Cu 1.0000 0.15786(3) 0.88133(7)
O28_2 O 1.0000 0.40061(19) 0.9893(5)
O29_2 O 1.0000 0.1428(2) 0.8100(5)
O37 O 0.5944(7) 0.38992(15) 0.8398(3)
O38 O 0.9091(6) 0.19496(15) 0.9337(4)
O40 O 0.6006(7) 0.40628(14) 0.7734(4)
O41 O 0.9052(6) 0.17874(13) 0.8689(3)
N3 N 0.7650(9) 0.26592(15) 0.8751(4)
C73 C 0.7671(12) 0.2859(2) 0.8000(6)
H31 H 0.7771 0.2747 0.7809
C74 C 0.7591(7) 0.30343(18) 0.7807(5)
H32 H 0.7543 0.3045 0.7487
C75 C 0.8094(9) 0.34624(18) 0.7471(4)
H33 H 0.8471 0.3363 0.7336
C76 C 0.8136(9) 0.20916(16) 0.8728(4)
C77 C 0.7729(12) 0.2451(2) 0.8604(7)
C79 C 0.6245(8) 0.39279(18) 0.8007(4)
C80 C 0.7591(7) 0.26170(18) 0.9661(4)
H34 H 0.7615 0.2474 0.9671
C81 C 0.7577(7) 0.3208(2) 0.8079(5)
C82 C 0.8833(8) 0.19192(16) 0.8936(4)
C83 C 0.8223(9) 0.22922(18) 0.8867(4)
H35 H 0.8585 0.2327 0.9121
C84 C 0.7027(8) 0.23772(19) 0.8361(5)
H36 H 0.6547 0.2468 0.8296
C87 C 0.6951(10) 0.35685(17) 0.8012(4)
H38 H 0.6532 0.3543 0.8250
C88 C 0.7560(8) 0.27361(19) 0.9223(5)
C94 C 0.8082(9) 0.3659(2) 0.7257(4)
C95 C 0.6939(8) 0.21897(15) 0.8203(4)
C96 C 0.6909(9) 0.37604(17) 0.7822(4)
C97 C 0.7555(11) 0.3054(3) 0.9661(8)
H42 H 0.7552 0.3196 0.9678
C98 C 0.6202(7) 0.21245(16) 0.7893(4)
C100 C 0.7503(7) 0.37862(19) 0.7385(4)
H43 H 0.7421 0.3904 0.7207
C101 C 0.7492(8) 0.3199(2) 0.8576(6)
H44 H 0.7400 0.3321 0.8738
C102 C 0.8812(7) 0.36896(19) 0.6878(3)
C103 C 0.7594(10) 0.2936(2) 0.9238(5)
C104 C 0.7560(10) 0.3399(3) 0.7894(6)
C105 C 0.7614(11) 0.2819(3) 0.8528(7)
C107 C 0.7542(10) 0.3013(3) 0.8830(9)
C108 C 0.7500(8) 0.2029(2) 0.8394(5)
H45 H 0.7443 0.1892 0.8301
O78 O 0.9026(6) 0.14044(12) 0.9124(3)
O82 O 0.9012(7) 0.15686(12) 0.9808(3)
O84 O 0.9054(5) 0.44298(10) 0.9674(3)
O87 O 0.9068(6) 0.47558(10) 0.9929(3)
H66 H 0.954426 0.131404 0.809543
H84 H 0.954097 0.398335 0.964268
Cu9_3 Cu -0.0000 0.64403(4) 0.11480(7)
Cu10_3 Cu -0.0000 0.60471(4) 0.13298(8)
O34_3 O -0.0000 0.5727(2) 0.1537(6)
O35_3 O -0.0000 0.6753(2) 0.1074(7)
O52_2 O 0.0965(7) 0.63665(14) 0.0710(3)
O56_2 O 0.0904(7) 0.60197(14) 0.0847(3)
C109_2 C 0.1985(10) 0.5952(2) 0.0052(4)
H46_2 H 0.1677 0.5843 0.0192
C123_2 C 0.1239(9) 0.6180(3) 0.0666(5)
C126_2 C 0.1899(9) 0.61480(17) 0.0217(4)
C128_2 C 0.2518(8) 0.63227(18) 0.0030(4)
H53_2 H 0.2489 0.6455 0.0152
O67_2 O 0.1004(7) 0.61144(13) 0.1811(3)
O69_2 O 0.0947(6) 0.64502(14) 0.1657(3)
H63_2 H 0.0186334 0.564018 0.127032
H64_2 H 0.044344 0.570704 0.179545
H68_2 H 0.0472105 0.68138 0.128244
Cu5_3 Cu -0.0000 0.82303(3) 0.46242(8)
Cu6_3 Cu -0.0000 0.84214(3) 0.38133(7)
O28_3 O -0.0000 0.59939(19) 0.4893(5)
O29_3 O -0.0000 0.8572(2) 0.3100(5)
O30_3 O -0.0000 0.49290(19) 0.5508(6)
O36_3 O -0.0000 0.8075(2) 0.5292(5)
O38_2 O 0.0909(6) 0.80504(15) 0.4337(4)
O39 O 0.4039(5) 0.64274(11) 0.5777(3)
O41_2 O 0.0948(6) 0.82126(13) 0.3689(3)
O44 O 0.4043(5) 0.80616(12) 0.2849(3)
O45_2 O 0.0944(5) 0.71622(11) 0.6692(3)
O46 O 0.4041(5) 0.77339(12) 0.2602(3)
O47_2 O 0.0938(6) 0.68360(12) 0.6942(3)
O48 O 0.4059(5) 0.64949(11) 0.6527(2)
O49_2 O 0.4026(6) 0.64044(12) 0.9124(3)
O50 O 0.4068(6) 0.44493(12) 0.8178(3)
O51 O 0.3993(6) 0.42788(11) 0.8852(3)
O53_2 O 0.4012(7) 0.65686(12) 0.9808(3)
O54 O 0.4067(5) 0.60845(11) 0.6763(2)
O55_2 O 0.0921(6) 0.53517(11) 0.5876(3)
O58_2 O 0.0957(5) 0.56793(10) 0.5577(3)
O59 O 0.4014(5) 0.60189(11) 0.5989(2)
N3_2 N 0.2350(9) 0.73408(15) 0.3751(4)
N4_2 N 0.2586(7) 0.51495(15) 0.8669(4)
C73_2 C 0.2329(12) 0.7141(2) 0.3000(6)
H31_2 H 0.2229 0.7253 0.2809
C74_2 C 0.2409(7) 0.69657(18) 0.2807(5)
H32_2 H 0.2457 0.6955 0.2487
C75_2 C 0.1906(9) 0.65376(18) 0.2471(4)
H33_2 H 0.1529 0.6637 0.2336
C76_2 C 0.1864(9) 0.79084(16) 0.3728(4)
C77_2 C 0.2271(12) 0.7549(2) 0.3604(7)
C78_2 C 0.2483(6) 0.69639(18) 0.5521(4)
C79_2 C 0.3755(8) 0.60721(18) 0.3007(4)
C80_2 C 0.2409(7) 0.73830(18) 0.4661(4)
H34_2 H 0.2385 0.7526 0.4671
C81_2 C 0.2423(7) 0.6792(2) 0.3079(5)
C82_2 C 0.1167(8) 0.80808(16) 0.3936(4)
C83_2 C 0.1777(9) 0.77078(18) 0.3867(4)
H35_2 H 0.1415 0.7673 0.4121
C84_2 C 0.2973(8) 0.76228(19) 0.3361(5)
H36_2 H 0.3453 0.7532 0.3296
C85_2 C 0.1919(9) 0.7024(2) 0.5860(5)
H37_2 H 0.1534 0.7137 0.5820
C86_2 C 0.3830(7) 0.65269(16) 0.6112(4)
C87_2 C 0.3049(10) 0.64315(17) 0.3012(4)
H38_2 H 0.3468 0.6457 0.3250
C88_2 C 0.2440(8) 0.72639(19) 0.4223(5)
C89_2 C 0.1914(7) 0.69099(19) 0.6297(4)
C90_2 C 0.3042(9) 0.67889(19) 0.5597(4)
H39_2 H 0.3372 0.6735 0.5349
C91_2 C 0.2417(8) 0.7272(2) 0.5018(5)
H40_2 H 0.2367 0.7344 0.5295
C92_2 C 0.2495(6) 0.6758(2) 0.6374(5)
H41_2 H 0.2493 0.6694 0.6661
C93_2 C 0.3121(9) 0.66922(16) 0.6032(4)
C94_2 C 0.1918(9) 0.6341(2) 0.2257(4)
C95_2 C 0.3061(8) 0.78103(15) 0.3203(4)
C96_2 C 0.3091(9) 0.62396(17) 0.2822(4)
C97_2 C 0.2445(11) 0.6946(3) 0.4661(8)
H42_2 H 0.2448 0.6804 0.4678
C98_2 C 0.3798(7) 0.78755(16) 0.2893(4)
C99_2 C 0.1209(7) 0.69769(17) 0.6674(4)
C100_2 C 0.2497(7) 0.62138(19) 0.2385(4)
H43_2 H 0.2579 0.6096 0.2207
C101_2 C 0.2508(8) 0.6801(2) 0.3576(6)
H44_2 H 0.2600 0.6679 0.3738
C102_2 C 0.1188(7) 0.63104(19) 0.1878(3)
C103_2 C 0.2406(10) 0.7064(2) 0.4238(5)
C104_2 C 0.2440(10) 0.6601(3) 0.2894(6)
C105_2 C 0.2386(11) 0.7181(3) 0.3528(7)
C106_2 C 0.2479(6) 0.7087(2) 0.5064(4)
C107_2 C 0.2458(10) 0.6987(3) 0.3830(9)
C108_2 C 0.2500(8) 0.7971(2) 0.3394(5)
H45_2 H 0.2557 0.8108 0.3301
C110_2 C 0.3075(9) 0.6079(2) 0.9493(5)
H47_2 H 0.3447 0.6056 0.9236
C111_2 C 0.2536(10) 0.5087(3) 0.7833(6)
H48_2 H 0.2501 0.4945 0.7826
C112_2 C 0.3069(7) 0.58180(18) 0.6502(5)
C113_2 C 0.2572(9) 0.5329(2) 0.9511(5)
H49_2 H 0.2542 0.5213 0.9699
C114_2 C 0.2574(6) 0.49300(15) 0.8830(4)
C115_2 C 0.3779(9) 0.64362(19) 0.9532(5)
C116_2 C 0.2529(8) 0.5547(2) 0.6953(5)
C117_2 C 0.3786(7) 0.59940(17) 0.6409(4)
C118_2 C 0.1990(10) 0.48778(16) 0.9213(4)
H50_2 H 0.1678 0.4976 0.9387
C119_2 C 0.2518(9) 0.5713(2) 0.9404(5)
C120_2 C 0.1951(9) 0.54863(16) 0.6624(4)
H51_2 H 0.1568 0.5374 0.6673
C121_2 C 0.3759(9) 0.4418(2) 0.8585(5)
C122_2 C 0.2612(9) 0.5202(2) 0.8253(5)
C124_2 C 0.3130(8) 0.45805(16) 0.8790(4)
C125_2 C 0.3027(10) 0.62819(18) 0.9725(5)
C127_2 C 0.3190(9) 0.4801(2) 0.8664(5)
H52_2 H 0.3659 0.4847 0.8471
C129_2 C 0.2519(6) 0.52066(18) 0.7435(4)
H54_2 H 0.2503 0.5139 0.7151
C130_2 C 0.2553(8) 0.53191(17) 0.9032(4)
C131_2 C 0.2525(8) 0.5450(2) 0.7429(5)
C132_2 C 0.3069(7) 0.57140(18) 0.6892(4)
H55_2 H 0.3450 0.5757 0.7133
C133_2 C 0.2495(7) 0.5761(2) 0.6138(5)
H56_2 H 0.2495 0.5833 0.5861
C134_2 C 0.2523(5) 0.55412(17) 0.7840(4)
H57_2 H 0.2515 0.5684 0.7849
C135_2 C 0.1191(7) 0.4637(2) 0.9702(4)
C136_2 C 0.1926(8) 0.46692(16) 0.9304(4)
C137_2 C 0.1919(8) 0.55920(18) 0.6203(4)
C138_2 C 0.1189(8) 0.55362(17) 0.5869(4)
C139_2 C 0.2636(16) 0.5519(3) 0.9677(7)
H58_2 H 0.2765 0.5533 0.9991
C140_2 C 0.2516(7) 0.59224(17) 0.9689(4)
C141_2 C 0.2531(5) 0.54369(19) 0.8248(4)
C142_2 C 0.2521(7) 0.5699(2) 0.8948(5)
H59_2 H 0.2520 0.5816 0.8762
C143_2 C 0.2496(6) 0.4530(2) 0.9089(5)
H60_2 H 0.2425 0.4392 0.9162
C144_2 C 0.2527(6) 0.54956(17) 0.8750(4)
Cu13 Cu 0.5000 0.63000(3) 0.67007(6)
Cu14 Cu 0.5000 0.62111(3) 0.57890(6)
Cu15 Cu 0.5000 0.77557(3) 0.21070(7)
Cu16_3 Cu -0.0000 0.72443(3) 0.71070(7)
Cu17 Cu 0.5000 0.81452(3) 0.23988(7)
Cu18_3 Cu -0.0000 0.68548(3) 0.73988(7)
Cu19 Cu 0.5000 0.67697(3) 0.96242(8)
Cu21 Cu 0.5000 0.65786(3) 0.88133(7)
O78_2 O 0.0974(6) 0.85956(12) 0.4124(3)
O82_2 O 0.0988(7) 0.84314(12) 0.4808(3)
H62_2 H 0.0430803 0.486155 0.528785
H66_2 H 0.0455742 0.868596 0.309543
H79_2 H 0.019193 0.792984 0.524975
H80_2 H 0.0439161 0.814488 0.5504
H83_2 H 0.0165402 0.607908 0.516577
H84_2 H 0.0459027 0.601665 0.464268
Cu9_4 Cu 1.0000 0.64403(4) 0.11480(7)
Cu10_4 Cu 1.0000 0.60471(4) 0.13298(8)
O16_2 O 0.9035(7) 0.63665(14) 0.0710(3)
O20_2 O 0.9096(7) 0.60197(14) 0.0847(3)
O34_4 O 1.0000 0.5727(2) 0.1537(6)
O35_4 O 1.0000 0.6753(2) 0.1074(7)
C37_2 C 0.8015(10) 0.5952(2) 0.0052(4)
H16_2 H 0.8323 0.5843 0.0192
C51_2 C 0.8761(9) 0.6180(3) 0.0666(5)
C54_2 C 0.8101(9) 0.61480(17) 0.0217(4)
C56_2 C 0.7482(8) 0.63227(18) 0.0030(4)
H23_2 H 0.7511 0.6455 0.0152
O66_2 O 0.8996(7) 0.61144(13) 0.1811(3)
O68_2 O 0.9053(6) 0.64502(14) 0.1657(3)
H67_2 H 0.938077 0.680789 0.11555
Cu5_4 Cu 1.0000 0.82303(3) 0.46242(8)
Cu6_4 Cu 1.0000 0.84214(3) 0.38133(7)
O2_2 O 0.9091(6) 0.80504(15) 0.4337(4)
O3_2 O 0.5961(5) 0.64274(11) 0.5777(3)
O5_2 O 0.9052(6) 0.82126(13) 0.3689(3)
O8_2 O 0.5957(5) 0.80616(12) 0.2849(3)
O9_2 O 0.9056(5) 0.71622(11) 0.6692(3)
O10_2 O 0.5959(5) 0.77339(12) 0.2602(3)
O11_2 O 0.9062(6) 0.68360(12) 0.6942(3)
O12_2 O 0.5941(5) 0.64949(11) 0.6527(2)
O13_2 O 0.5974(6) 0.64044(12) 0.9124(3)
O14_2 O 0.5932(6) 0.44493(12) 0.8178(3)
O15_2 O 0.6007(6) 0.42788(11) 0.8852(3)
O17_2 O 0.5988(7) 0.65686(12) 0.9808(3)
O18_2 O 0.5933(5) 0.60845(11) 0.6763(2)
O19_2 O 0.9079(6) 0.53517(11) 0.5876(3)
O22_2 O 0.9043(5) 0.56793(10) 0.5577(3)
O23_2 O 0.5986(5) 0.60189(11) 0.5989(2)
O25_2 O 0.5000 0.4419(2) 0.7207(5)
O26_2 O 0.5000 0.7428(2) 0.2017(6)
O27_2 O 0.5000 0.84782(18) 0.2620(5)
O28_4 O 1.0000 0.59939(19) 0.4893(5)
O29_4 O 1.0000 0.8572(2) 0.3100(5)
O30_4 O 1.0000 0.49290(19) 0.5508(6)
O31_2 O 0.5000 0.63444(19) 0.7454(4)
O32_2 O 0.5000 0.61616(18) 0.5061(4)
O33_2 O 0.5000 0.39021(16) 0.9292(4)
O36_4 O 1.0000 0.8075(2) 0.5292(5)
N1_2 N 0.7650(9) 0.73408(15) 0.3751(4)
N2_2 N 0.7414(7) 0.51495(15) 0.8669(4)
C1_2 C 0.7671(12) 0.7141(2) 0.3000(6)
H1_2 H 0.7771 0.7253 0.2809
C2_2 C 0.7591(7) 0.69657(18) 0.2807(5)
H2_2 H 0.7543 0.6955 0.2487
C3_2 C 0.8094(9) 0.65376(18) 0.2471(4)
H3_2 H 0.8471 0.6637 0.2336
C4_2 C 0.8136(9) 0.79084(16) 0.3728(4)
C5_2 C 0.7729(12) 0.7549(2) 0.3604(7)
C6_2 C 0.7517(6) 0.69639(18) 0.5521(4)
C7_2 C 0.6245(8) 0.60721(18) 0.3007(4)
C8_2 C 0.7591(7) 0.73830(18) 0.4661(4)
H4_2 H 0.7615 0.7526 0.4671
C9_2 C 0.7577(7) 0.6792(2) 0.3079(5)
C10_2 C 0.8833(8) 0.80808(16) 0.3936(4)
C11_2 C 0.8223(9) 0.77078(18) 0.3867(4)
H5_2 H 0.8585 0.7673 0.4121
C12_2 C 0.7027(8) 0.76228(19) 0.3361(5)
H6_2 H 0.6547 0.7532 0.3296
C13_2 C 0.8081(9) 0.7024(2) 0.5860(5)
H7_2 H 0.8466 0.7137 0.5820
C14_2 C 0.6170(7) 0.65269(16) 0.6112(4)
C15_2 C 0.6951(10) 0.64315(17) 0.3012(4)
H8_2 H 0.6532 0.6457 0.3250
C16_2 C 0.7560(8) 0.72639(19) 0.4223(5)
C17_2 C 0.8086(7) 0.69099(19) 0.6297(4)
C18_2 C 0.6958(9) 0.67889(19) 0.5597(4)
H9_2 H 0.6628 0.6735 0.5349
C19_2 C 0.7583(8) 0.7272(2) 0.5018(5)
H10_2 H 0.7633 0.7344 0.5295
C20_2 C 0.7505(6) 0.6758(2) 0.6374(5)
H11_2 H 0.7507 0.6694 0.6661
C21_2 C 0.6879(9) 0.66922(16) 0.6032(4)
C22_2 C 0.8082(9) 0.6341(2) 0.2257(4)
C23_2 C 0.6939(8) 0.78103(15) 0.3203(4)
C24_2 C 0.6909(9) 0.62396(17) 0.2822(4)
C25_2 C 0.7555(11) 0.6946(3) 0.4661(8)
H12_2 H 0.7552 0.6804 0.4678
C26_2 C 0.6202(7) 0.78755(16) 0.2893(4)
C27_2 C 0.8791(7) 0.69769(17) 0.6674(4)
C28_2 C 0.7503(7) 0.62138(19) 0.2385(4)
H13_2 H 0.7421 0.6096 0.2207
C29_2 C 0.7492(8) 0.6801(2) 0.3576(6)
H14_2 H 0.7400 0.6679 0.3738
C30_2 C 0.8812(7) 0.63104(19) 0.1878(3)
C31_2 C 0.7594(10) 0.7064(2) 0.4238(5)
C32_2 C 0.7560(10) 0.6601(3) 0.2894(6)
C33_2 C 0.7614(11) 0.7181(3) 0.3528(7)
C34_2 C 0.7521(6) 0.7087(2) 0.5064(4)
C35_2 C 0.7542(10) 0.6987(3) 0.3830(9)
C36_2 C 0.7500(8) 0.7971(2) 0.3394(5)
H15_2 H 0.7443 0.8108 0.3301
C38_2 C 0.6925(9) 0.6079(2) 0.9493(5)
H17_2 H 0.6553 0.6056 0.9236
C39_2 C 0.7464(10) 0.5087(3) 0.7833(6)
H18_2 H 0.7499 0.4945 0.7826
C40_2 C 0.6931(7) 0.58180(18) 0.6502(5)
C41_2 C 0.7428(9) 0.5329(2) 0.9511(5)
H19_2 H 0.7458 0.5213 0.9699
C42_2 C 0.7426(6) 0.49300(15) 0.8830(4)
C43_2 C 0.6221(9) 0.64362(19) 0.9532(5)
C44_2 C 0.7471(8) 0.5547(2) 0.6953(5)
C45_2 C 0.6214(7) 0.59940(17) 0.6409(4)
C46_2 C 0.8010(10) 0.48778(16) 0.9213(4)
H20_2 H 0.8322 0.4976 0.9387
C47_2 C 0.7482(9) 0.5713(2) 0.9404(5)
C48_2 C 0.8049(9) 0.54863(16) 0.6624(4)
H21_2 H 0.8432 0.5374 0.6673
C49_2 C 0.6241(9) 0.4418(2) 0.8585(5)
C50_2 C 0.7388(9) 0.5202(2) 0.8253(5)
C52_2 C 0.6870(8) 0.45805(16) 0.8790(4)
C53_2 C 0.6973(10) 0.62819(18) 0.9725(5)
C55_2 C 0.6810(9) 0.4801(2) 0.8664(5)
H22_2 H 0.6341 0.4847 0.8471
C57_2 C 0.7481(6) 0.52066(18) 0.7435(4)
H24_2 H 0.7497 0.5139 0.7151
C58_2 C 0.7447(8) 0.53191(17) 0.9032(4)
C59_2 C 0.7475(8) 0.5450(2) 0.7429(5)
C60_2 C 0.6931(7) 0.57140(18) 0.6892(4)
H25_2 H 0.6550 0.5757 0.7133
C61_2 C 0.7505(7) 0.5761(2) 0.6138(5)
H26_2 H 0.7505 0.5833 0.5861
C62_2 C 0.7477(5) 0.55412(17) 0.7840(4)
H27_2 H 0.7485 0.5684 0.7849
C63_2 C 0.8809(7) 0.4637(2) 0.9702(4)
C64_2 C 0.8074(8) 0.46692(16) 0.9304(4)
C65_2 C 0.8081(8) 0.55920(18) 0.6203(4)
C66_2 C 0.8811(8) 0.55362(17) 0.5869(4)
C67_2 C 0.7364(16) 0.5519(3) 0.9677(7)
H28_2 H 0.7235 0.5533 0.9991
C68_2 C 0.7484(7) 0.59224(17) 0.9689(4)
C69_2 C 0.7469(5) 0.54369(19) 0.8248(4)
C70_2 C 0.7479(7) 0.5699(2) 0.8948(5)
H29_2 H 0.7480 0.5816 0.8762
C71_2 C 0.7504(6) 0.4530(2) 0.9089(5)
H30_2 H 0.7575 0.4392 0.9162
C72_2 C 0.7473(6) 0.54956(17) 0.8750(4)
Cu16_4 Cu 1.0000 0.72443(3) 0.71070(7)
Cu18_4 Cu 1.0000 0.68548(3) 0.73988(7)
O71_2 O 0.5944(5) 0.78378(11) 0.1692(3)
O72_2 O 0.4056(5) 0.78378(11) 0.1692(3)
O74_2 O 0.5938(6) 0.81640(12) 0.1942(3)
O75_2 O 0.4062(6) 0.81640(12) 0.1942(3)
O77_2 O 0.9026(6) 0.85956(12) 0.4124(3)
O81_2 O 0.9012(7) 0.84314(12) 0.4808(3)
H61_2 H 0.936651 0.487413 0.546138
H65_2 H 0.937437 0.862694 0.303208
H67_3 H 0.061923 0.680789 0.11555
H61_3 H 0.0633485 0.487413 0.546138
H65_3 H 0.062563 0.862694 0.303208
H63_3 H 0.981367 0.564018 0.127032
H64_3 H 0.955656 0.570704 0.179545
H68_3 H 0.952789 0.68138 0.128244
H62_3 H 0.95692 0.486155 0.528785
H66_3 H 0.954426 0.868596 0.309543
H79_3 H 0.980807 0.792984 0.524975
H80_3 H 0.956084 0.814488 0.5504
H83_3 H 0.98346 0.607908 0.516577
H84_3 H 0.954097 0.601665 0.464268
H62_4 H 0.0430803 0.513845 0.0287853
H63_4 H 0.0186334 0.435982 0.627032
H64_4 H 0.044344 0.429296 0.679545
H68_4 H 0.0472105 0.31862 0.628244
H79_4 H 0.019193 0.207016 0.024975
H80_4 H 0.0439161 0.185512 0.0503996
H83_4 H 0.0165402 0.392092 0.016577
H66_4 H 0.0455742 0.131404 0.809543
H84_4 H 0.0459027 0.398335 0.964268
H61_4 H 0.936651 0.512587 0.0461381
H67_4 H 0.938077 0.319211 0.61555
H65_4 H 0.937437 0.137306 0.803208
H75_2 H 0.562543 0.388251 0.996033
H76_2 H 0.45437 0.394682 0.998256
Cu7_2 Cu -0.0000 0.09289(3) 0.36730(7)
Cu8_2 Cu -0.0000 0.07334(3) 0.28684(7)
O25_3 O -0.0000 0.0581(2) 0.2207(5)
O33_3 O -0.0000 0.10979(16) 0.4292(4)
O61_2 O 0.0944(7) 0.11008(15) 0.3398(3)
O64_2 O 0.1006(7) 0.09372(14) 0.2734(4)
O79_2 O 0.0932(6) 0.05507(12) 0.3178(3)
O80_2 O 0.1007(6) 0.07212(11) 0.3852(3)
H70 H 0.0437657 0.0651509 0.199528
H71 H 0.0160105 0.100595 0.455418
H72 H 0.0462867 0.121006 0.427086
Cu1_2 Cu -0.0000 0.87000(3) 0.17007(6)
Cu2_2 Cu -0.0000 0.87889(3) 0.07890(6)
O31_3 O -0.0000 0.86556(19) 0.2454(4)
O32_3 O -0.0000 0.88384(18) 0.0061(4)
O63_2 O 0.0961(5) 0.85726(11) 0.0777(3)
O76_2 O 0.0941(5) 0.85051(11) 0.1527(2)
O83_2 O 0.0933(5) 0.89155(11) 0.1763(2)
O86_2 O 0.0986(5) 0.89811(11) 0.0989(2)
H77 H 0.0158845 0.851079 0.252619
H78 H 0.0463775 0.874825 0.259735
O26_3 O -0.0000 0.7572(2) 0.7017(6)
O27_3 O -0.0000 0.65218(18) 0.7620(5)
Cu25_2 Cu 0.0000 0.90711(3) 0.86730(7)
Cu28_2 Cu -0.0000 0.92666(3) 0.78684(7)
O70_2 O 0.0957(5) 0.69384(12) 0.7849(3)
O73_2 O 0.0959(5) 0.72661(12) 0.7602(3)
H74 H 0.0454764 0.644416 0.743125
H76_3 H 0.0456302 0.894682 0.998256
H81 H 0.0178295 0.763915 0.731239
H82 H 0.0449504 0.760994 0.677176
Cu7_3 Cu 1.0000 0.09289(3) 0.36730(7)
Cu8_3 Cu 1.0000 0.07334(3) 0.28684(7)
O14_3 O 0.9068(6) 0.05507(12) 0.3178(3)
O15_3 O 0.8993(6) 0.07212(11) 0.3852(3)
O21_2 O 0.5946(5) 0.05702(10) 0.4674(3)
O24_2 O 0.5932(6) 0.02442(10) 0.4929(3)
O25_4 O 1.0000 0.0581(2) 0.2207(5)
O30_5 O 0.5000 0.00710(19) 0.0508(6)
O33_4 O 1.0000 0.10979(16) 0.4292(4)
H18_3 H 0.7501 0.0055 0.2826
C42_3 C 0.7574(6) 0.00700(15) 0.3830(4)
C46_3 C 0.6990(10) 0.01222(16) 0.4213(4)
H20_3 H 0.6678 0.0024 0.4387
C49_3 C 0.8759(9) 0.0582(2) 0.3585(5)
C52_3 C 0.8130(8) 0.04195(16) 0.3790(4)
C55_3 C 0.8190(9) 0.0199(2) 0.3664(5)
H22_3 H 0.8659 0.0153 0.3471
C63_3 C 0.6191(7) 0.0363(2) 0.4702(4)
C64_3 C 0.6926(8) 0.03308(16) 0.4304(4)
C71_3 C 0.7496(6) 0.0470(2) 0.4089(5)
H30_3 H 0.7425 0.0608 0.4162
O57_2 O 0.4054(5) 0.05702(10) 0.4674(3)
O60_2 O 0.4068(6) 0.02442(10) 0.4929(3)
H48_3 H 0.2499 0.0055 0.2826
C114_3 C 0.2426(6) 0.00700(15) 0.3830(4)
C118_3 C 0.3010(10) 0.01222(16) 0.4213(4)
H50_3 H 0.3322 0.0024 0.4387
C121_3 C 0.1241(9) 0.0582(2) 0.3585(5)
C124_3 C 0.1870(8) 0.04195(16) 0.3790(4)
C127_3 C 0.1810(9) 0.0199(2) 0.3664(5)
H52_3 H 0.1341 0.0153 0.3471
C135_3 C 0.3809(7) 0.0363(2) 0.4702(4)
C136_3 C 0.3074(8) 0.03308(16) 0.4304(4)
C143_3 C 0.2504(6) 0.0470(2) 0.4089(5)
H60_3 H 0.2575 0.0608 0.4162
Cu31_3 Cu 0.5000 0.06567(2) 0.50976(6)
Cu32_3 Cu 0.5000 0.02687(3) 0.53828(7)
O62_2 O 0.9056(7) 0.11008(15) 0.3398(3)
O65_2 O 0.8994(7) 0.09372(14) 0.2734(4)
H69 H 0.936846 0.0585315 0.207283
Cu1_3 Cu 1.0000 0.87000(3) 0.17007(6)
Cu2_3 Cu 1.0000 0.87889(3) 0.07890(6)
Cu9_5 Cu 0.5000 0.85597(4) 0.61480(7)
Cu10_5 Cu 0.5000 0.89529(4) 0.63298(8)
Cu11_3 Cu 0.5000 0.93433(2) 0.00976(6)
Cu12_3 Cu 0.5000 0.97313(3) 0.03828(7)
O3_3 O 0.9039(5) 0.85726(11) 0.0777(3)
O12_3 O 0.9059(5) 0.85051(11) 0.1527(2)
O16_3 O 0.5965(7) 0.86335(14) 0.5710(3)
O18_3 O 0.9067(5) 0.89155(11) 0.1763(2)
O19_3 O 0.5921(6) 0.96483(11) 0.0876(3)
O20_3 O 0.5904(7) 0.89803(14) 0.5847(3)
O22_3 O 0.5957(5) 0.93207(10) 0.0577(3)
O23_3 O 0.9014(5) 0.89811(11) 0.0989(2)
O31_4 O 1.0000 0.86556(19) 0.2454(4)
O32_4 O 1.0000 0.88384(18) 0.0061(4)
O34_5 O 0.5000 0.9273(2) 0.6537(6)
O35_5 O 0.5000 0.8247(2) 0.6074(7)
O36_5 O 0.5000 0.6925(2) 0.0292(5)
N2_3 N 0.7586(7) 0.98505(15) 0.3669(4)
C6_3 C 0.7483(6) 0.80361(18) 0.0521(4)
C13_3 C 0.6919(9) 0.7976(2) 0.0860(5)
H7_3 H 0.6534 0.7863 0.0820
C14_3 C 0.8830(7) 0.84731(16) 0.1112(4)
C17_3 C 0.6914(7) 0.80901(19) 0.1297(4)
C18_3 C 0.8042(9) 0.82111(19) 0.0597(4)
H9_3 H 0.8372 0.8265 0.0349
C19_3 C 0.7417(8) 0.7728(2) 0.0018(5)
H10_3 H 0.7367 0.7656 0.0295
C20_3 C 0.7495(6) 0.8242(2) 0.1374(5)
H11_3 H 0.7493 0.8306 0.1661
C21_3 C 0.8121(9) 0.83078(16) 0.1032(4)
C27_3 C 0.6209(7) 0.80231(17) 0.1674(4)
C34_3 C 0.7479(6) 0.7913(2) 0.0064(4)
C37_3 C 0.6985(10) 0.9048(2) 0.5052(4)
H16_3 H 0.6677 0.9157 0.5192
C38_3 C 0.8075(9) 0.8921(2) 0.4493(5)
H17_3 H 0.8447 0.8944 0.4236
C39_3 C 0.7536(10) 0.9913(3) 0.2833(6)
C40_3 C 0.8069(7) 0.91820(18) 0.1502(5)
C41_3 C 0.7572(9) 0.9671(2) 0.4511(5)
H19_3 H 0.7542 0.9787 0.4699
C43_3 C 0.8779(9) 0.85638(19) 0.4532(5)
C44_3 C 0.7529(8) 0.9453(2) 0.1953(5)
C45_3 C 0.8786(7) 0.90060(17) 0.1409(4)
C47_3 C 0.7518(9) 0.9287(2) 0.4404(5)
C48_3 C 0.6951(9) 0.95137(16) 0.1624(4)
H21_3 H 0.6568 0.9626 0.1673
C50_3 C 0.7612(9) 0.9798(2) 0.3253(5)
C51_3 C 0.6239(9) 0.8820(3) 0.5666(5)
C53_3 C 0.8027(10) 0.87181(18) 0.4725(5)
C54_3 C 0.6899(9) 0.88520(17) 0.5217(4)
C56_3 C 0.7518(8) 0.86773(18) 0.5030(4)
H23_3 H 0.7489 0.8545 0.5152
C57_3 C 0.7519(6) 0.97934(18) 0.2435(4)
H24_3 H 0.7503 0.9861 0.2151
C58_3 C 0.7553(8) 0.96809(17) 0.4032(4)
C59_3 C 0.7525(8) 0.9550(2) 0.2429(5)
C60_3 C 0.8069(7) 0.92860(18) 0.1892(4)
H25_3 H 0.8450 0.9243 0.2133
C61_3 C 0.7495(7) 0.9239(2) 0.1138(5)
H26_3 H 0.7495 0.9167 0.0861
C62_3 C 0.7523(5) 0.94588(17) 0.2840(4)
H27_3 H 0.7515 0.9316 0.2849
C65_3 C 0.6919(8) 0.94080(18) 0.1203(4)
C66_3 C 0.6189(8) 0.94638(17) 0.0869(4)
C67_3 C 0.7636(16) 0.9481(3) 0.4677(7)
H28_3 H 0.7765 0.9467 0.4991
C68_3 C 0.7516(7) 0.90776(17) 0.4689(4)
C69_3 C 0.7531(5) 0.95631(19) 0.3248(4)
C70_3 C 0.7521(7) 0.9301(2) 0.3948(5)
H29_3 H 0.7520 0.9184 0.3762
C72_3 C 0.7527(6) 0.95044(17) 0.3750(4)
O52_3 O 0.4035(7) 0.86335(14) 0.5710(3)
O55_3 O 0.4079(6) 0.96483(11) 0.0876(3)
O56_3 O 0.4096(7) 0.89803(14) 0.5847(3)
O58_3 O 0.4043(5) 0.93207(10) 0.0577(3)
N4_3 N 0.2414(7) 0.98505(15) 0.3669(4)
C78_3 C 0.2517(6) 0.80361(18) 0.0521(4)
C85_3 C 0.3081(9) 0.7976(2) 0.0860(5)
H37_3 H 0.3466 0.7863 0.0820
C86_3 C 0.1170(7) 0.84731(16) 0.1112(4)
C89_3 C 0.3086(7) 0.80901(19) 0.1297(4)
C90_3 C 0.1958(9) 0.82111(19) 0.0597(4)
H39_3 H 0.1628 0.8265 0.0349
C91_3 C 0.2583(8) 0.7728(2) 0.0018(5)
H40_3 H 0.2633 0.7656 0.0295
C92_3 C 0.2505(6) 0.8242(2) 0.1374(5)
H41_3 H 0.2507 0.8306 0.1661
C93_3 C 0.1879(9) 0.83078(16) 0.1032(4)
C99_3 C 0.3791(7) 0.80231(17) 0.1674(4)
C106_3 C 0.2521(6) 0.7913(2) 0.0064(4)
C109_3 C 0.3015(10) 0.9048(2) 0.5052(4)
H46_3 H 0.3323 0.9157 0.5192
C110_3 C 0.1925(9) 0.8921(2) 0.4493(5)
H47_3 H 0.1553 0.8944 0.4236
C111_3 C 0.2464(10) 0.9913(3) 0.2833(6)
C112_3 C 0.1931(7) 0.91820(18) 0.1502(5)
C113_3 C 0.2428(9) 0.9671(2) 0.4511(5)
H49_3 H 0.2458 0.9787 0.4699
C115_3 C 0.1221(9) 0.85638(19) 0.4532(5)
C116_3 C 0.2471(8) 0.9453(2) 0.1953(5)
C117_3 C 0.1214(7) 0.90060(17) 0.1409(4)
C119_3 C 0.2482(9) 0.9287(2) 0.4404(5)
C120_3 C 0.3049(9) 0.95137(16) 0.1624(4)
H51_3 H 0.3432 0.9626 0.1673
C122_3 C 0.2388(9) 0.9798(2) 0.3253(5)
C123_3 C 0.3761(9) 0.8820(3) 0.5666(5)
C125_3 C 0.1973(10) 0.87181(18) 0.4725(5)
C126_3 C 0.3101(9) 0.88520(17) 0.5217(4)
C128_3 C 0.2482(8) 0.86773(18) 0.5030(4)
H53_3 H 0.2511 0.8545 0.5152
C129_3 C 0.2481(6) 0.97934(18) 0.2435(4)
H54_3 H 0.2497 0.9861 0.2151
C130_3 C 0.2447(8) 0.96809(17) 0.4032(4)
C131_3 C 0.2475(8) 0.9550(2) 0.2429(5)
C132_3 C 0.1931(7) 0.92860(18) 0.1892(4)
H55_3 H 0.1550 0.9243 0.2133
C133_3 C 0.2505(7) 0.9239(2) 0.1138(5)
H56_3 H 0.2505 0.9167 0.0861
C134_3 C 0.2477(5) 0.94588(17) 0.2840(4)
H57_3 H 0.2485 0.9316 0.2849
C137_3 C 0.3081(8) 0.94080(18) 0.1203(4)
C138_3 C 0.3811(8) 0.94638(17) 0.0869(4)
C139_3 C 0.2364(16) 0.9481(3) 0.4677(7)
H58_3 H 0.2235 0.9467 0.4991
C140_3 C 0.2484(7) 0.90776(17) 0.4689(4)
C141_3 C 0.2469(5) 0.95631(19) 0.3248(4)
C142_3 C 0.2479(7) 0.9301(2) 0.3948(5)
H59_3 H 0.2480 0.9184 0.3762
C144_3 C 0.2473(6) 0.95044(17) 0.3750(4)
O66_3 O 0.6004(7) 0.88856(13) 0.6811(3)
O67_3 O 0.3996(7) 0.88856(13) 0.6811(3)
O68_3 O 0.5947(6) 0.85498(14) 0.6657(3)
O69_3 O 0.4053(6) 0.85498(14) 0.6657(3)
H83_5 H 0.48346 0.892092 0.016577
O1_2 O 0.9056(7) 0.88992(15) 0.8398(3)
O2_3 O 0.5909(6) 0.69496(15) 0.9337(4)
O4_2 O 0.8994(7) 0.90628(14) 0.7734(4)
O5_3 O 0.5948(6) 0.67874(13) 0.8689(3)
O8_3 O 0.9043(5) 0.69384(12) 0.7849(3)
O10_3 O 0.9041(5) 0.72661(12) 0.7602(3)
O26_4 O 1.0000 0.7572(2) 0.7017(6)
O27_4 O 1.0000 0.65218(18) 0.7620(5)
O28_5 O 0.5000 0.90061(19) 0.9893(5)
O29_5 O 0.5000 0.6428(2) 0.8100(5)
N1_3 N 0.7350(9) 0.76592(15) 0.8751(4)
C1_3 C 0.7329(12) 0.7859(2) 0.8000(6)
H1_3 H 0.7229 0.7747 0.7809
C2_3 C 0.7409(7) 0.80343(18) 0.7807(5)
H2_3 H 0.7457 0.8045 0.7487
C3_3 C 0.6906(9) 0.84624(18) 0.7471(4)
H3_3 H 0.6529 0.8363 0.7336
C4_3 C 0.6864(9) 0.70916(16) 0.8728(4)
C5_3 C 0.7271(12) 0.7451(2) 0.8604(7)
C7_3 C 0.8755(8) 0.89279(18) 0.8007(4)
C8_3 C 0.7409(7) 0.76170(18) 0.9661(4)
H4_3 H 0.7385 0.7474 0.9671
C9_3 C 0.7423(7) 0.8208(2) 0.8079(5)
C10_3 C 0.6167(8) 0.69192(16) 0.8936(4)
C11_3 C 0.6777(9) 0.72922(18) 0.8867(4)
H5_3 H 0.6415 0.7327 0.9121
C12_3 C 0.7973(8) 0.73772(19) 0.8361(5)
H6_3 H 0.8453 0.7468 0.8296
C15_3 C 0.8049(10) 0.85685(17) 0.8012(4)
H8_3 H 0.8468 0.8543 0.8250
C16_3 C 0.7440(8) 0.77361(19) 0.9223(5)
C22_3 C 0.6918(9) 0.8659(2) 0.7257(4)
C23_3 C 0.8061(8) 0.71897(15) 0.8203(4)
C24_3 C 0.8091(9) 0.87604(17) 0.7822(4)
C25_3 C 0.7445(11) 0.8054(3) 0.9661(8)
H12_3 H 0.7448 0.8196 0.9678
C26_3 C 0.8798(7) 0.71245(16) 0.7893(4)
C28_3 C 0.7497(7) 0.87862(19) 0.7385(4)
H13_3 H 0.7579 0.8904 0.7207
C29_3 C 0.7508(8) 0.8199(2) 0.8576(6)
H14_3 H 0.7600 0.8321 0.8738
C30_3 C 0.6188(7) 0.86896(19) 0.6878(3)
C31_3 C 0.7406(10) 0.7936(2) 0.9238(5)
C32_3 C 0.7440(10) 0.8399(3) 0.7894(6)
C33_3 C 0.7386(11) 0.7819(3) 0.8528(7)
C35_3 C 0.7458(10) 0.8013(3) 0.8830(9)
C36_3 C 0.7500(8) 0.7029(2) 0.8394(5)
H15_3 H 0.7557 0.6892 0.8301
O37_2 O 0.0944(7) 0.88992(15) 0.8398(3)
O38_3 O 0.4091(6) 0.69496(15) 0.9337(4)
O40_2 O 0.1006(7) 0.90628(14) 0.7734(4)
O41_3 O 0.4052(6) 0.67874(13) 0.8689(3)
N3_3 N 0.2650(9) 0.76592(15) 0.8751(4)
C73_3 C 0.2671(12) 0.7859(2) 0.8000(6)
H31_3 H 0.2771 0.7747 0.7809
C74_3 C 0.2591(7) 0.80343(18) 0.7807(5)
H32_3 H 0.2543 0.8045 0.7487
C75_3 C 0.3094(9) 0.84624(18) 0.7471(4)
H33_3 H 0.3471 0.8363 0.7336
C76_3 C 0.3136(9) 0.70916(16) 0.8728(4)
C77_3 C 0.2729(12) 0.7451(2) 0.8604(7)
C79_3 C 0.1245(8) 0.89279(18) 0.8007(4)
C80_3 C 0.2591(7) 0.76170(18) 0.9661(4)
H34_3 H 0.2615 0.7474 0.9671
C81_3 C 0.2577(7) 0.8208(2) 0.8079(5)
C82_3 C 0.3833(8) 0.69192(16) 0.8936(4)
C83_3 C 0.3223(9) 0.72922(18) 0.8867(4)
H35_3 H 0.3585 0.7327 0.9121
C84_3 C 0.2027(8) 0.73772(19) 0.8361(5)
H36_3 H 0.1547 0.7468 0.8296
C87_3 C 0.1951(10) 0.85685(17) 0.8012(4)
H38_3 H 0.1532 0.8543 0.8250
C88_3 C 0.2560(8) 0.77361(19) 0.9223(5)
C94_3 C 0.3082(9) 0.8659(2) 0.7257(4)
C95_3 C 0.1939(8) 0.71897(15) 0.8203(4)
C96_3 C 0.1909(9) 0.87604(17) 0.7822(4)
C97_3 C 0.2555(11) 0.8054(3) 0.9661(8)
H42_3 H 0.2552 0.8196 0.9678
C98_3 C 0.1202(7) 0.71245(16) 0.7893(4)
C100_3 C 0.2503(7) 0.87862(19) 0.7385(4)
H43_3 H 0.2421 0.8904 0.7207
C101_3 C 0.2492(8) 0.8199(2) 0.8576(6)
H44_3 H 0.2400 0.8321 0.8738
C102_3 C 0.3812(7) 0.86896(19) 0.6878(3)
C103_3 C 0.2594(10) 0.7936(2) 0.9238(5)
C104_3 C 0.2560(10) 0.8399(3) 0.7894(6)
C105_3 C 0.2614(11) 0.7819(3) 0.8528(7)
C107_3 C 0.2542(10) 0.8013(3) 0.8830(9)
C108_3 C 0.2500(8) 0.7029(2) 0.8394(5)
H45_3 H 0.2443 0.6892 0.8301
Cu25_3 Cu 1.0000 0.90711(3) 0.86730(7)
Cu28_3 Cu 1.0000 0.92666(3) 0.78684(7)
O84_2 O 0.4054(5) 0.94298(10) 0.9674(3)
O85_2 O 0.5946(5) 0.94298(10) 0.9674(3)
O87_2 O 0.4068(6) 0.97558(10) 0.9929(3)
O88_2 O 0.5932(6) 0.97558(10) 0.9929(3)
H73 H 0.937402 0.646278 0.757373
H75_3 H 0.937457 0.888251 0.996033
H84_5 H 0.454097 0.898335 0.964268
Cu13_2 Cu -0.0000 0.13000(3) 0.67007(6)
Cu14_2 Cu -0.0000 0.12111(3) 0.57890(6)
Cu9_6 Cu 0.5000 0.14403(4) 0.11480(7)
Cu10_6 Cu 0.5000 0.10471(4) 0.13298(8)
O16_4 O 0.4035(7) 0.13665(14) 0.0710(3)
O20_4 O 0.4096(7) 0.10197(14) 0.0847(3)
O34_6 O 0.5000 0.0727(2) 0.1537(6)
O35_6 O 0.5000 0.1753(2) 0.1074(7)
C37_4 C 0.3015(10) 0.0952(2) 0.0052(4)
H16_4 H 0.3323 0.0843 0.0192
C51_4 C 0.3761(9) 0.1180(3) 0.0666(5)
C54_4 C 0.3101(9) 0.11480(17) 0.0217(4)
C56_4 C 0.2482(8) 0.13227(18) 0.0030(4)
H23_4 H 0.2511 0.1455 0.0152
O52_4 O 0.5965(7) 0.13665(14) 0.0710(3)
O56_4 O 0.5904(7) 0.10197(14) 0.0847(3)
C109_4 C 0.6985(10) 0.0952(2) 0.0052(4)
H46_4 H 0.6677 0.0843 0.0192
C123_4 C 0.6239(9) 0.1180(3) 0.0666(5)
C126_4 C 0.6899(9) 0.11480(17) 0.0217(4)
C128_4 C 0.7518(8) 0.13227(18) 0.0030(4)
H53_4 H 0.7489 0.1455 0.0152
O66_4 O 0.3996(7) 0.11144(13) 0.1811(3)
O67_4 O 0.6004(7) 0.11144(13) 0.1811(3)
O68_4 O 0.4053(6) 0.14502(14) 0.1657(3)
O69_4 O 0.5947(6) 0.14502(14) 0.1657(3)
O2_4 O 0.4091(6) 0.30504(15) 0.4337(4)
O3_4 O 0.0961(5) 0.14274(11) 0.5777(3)
O5_4 O 0.4052(6) 0.32126(13) 0.3689(3)
O8_4 O 0.0957(5) 0.30616(12) 0.2849(3)
O10_4 O 0.0959(5) 0.27339(12) 0.2602(3)
O12_4 O 0.0941(5) 0.14949(11) 0.6527(2)
O18_4 O 0.0933(5) 0.10845(11) 0.6763(2)
O19_4 O 0.4079(6) 0.03517(11) 0.5876(3)
O22_4 O 0.4043(5) 0.06793(10) 0.5577(3)
O23_4 O 0.0986(5) 0.10189(11) 0.5989(2)
O26_5 O 0.0000 0.2428(2) 0.2017(6)
O27_5 O 0.0000 0.34782(18) 0.2620(5)
O28_6 O 0.5000 0.09939(19) 0.4893(5)
O29_6 O 0.5000 0.3572(2) 0.3100(5)
O31_5 O -0.0000 0.13444(19) 0.7454(4)
O32_5 O -0.0000 0.11616(18) 0.5061(4)
O36_6 O 0.5000 0.3075(2) 0.5292(5)
N1_4 N 0.2650(9) 0.23408(15) 0.3751(4)
N2_4 N 0.2414(7) 0.01495(15) 0.8669(4)
C1_4 C 0.2671(12) 0.2141(2) 0.3000(6)
H1_4 H 0.2771 0.2253 0.2809
C2_4 C 0.2591(7) 0.19657(18) 0.2807(5)
H2_4 H 0.2543 0.1955 0.2487
C3_4 C 0.3094(9) 0.15376(18) 0.2471(4)
H3_4 H 0.3471 0.1637 0.2336
C4_4 C 0.3136(9) 0.29084(16) 0.3728(4)
C5_4 C 0.2729(12) 0.2549(2) 0.3604(7)
C6_4 C 0.2517(6) 0.19639(18) 0.5521(4)
C7_4 C 0.1245(8) 0.10721(18) 0.3007(4)
C8_4 C 0.2591(7) 0.23830(18) 0.4661(4)
H4_4 H 0.2615 0.2526 0.4671
C9_4 C 0.2577(7) 0.1792(2) 0.3079(5)
C10_4 C 0.3833(8) 0.30808(16) 0.3936(4)
C11_4 C 0.3223(9) 0.27078(18) 0.3867(4)
H5_4 H 0.3585 0.2673 0.4121
C12_4 C 0.2027(8) 0.26228(19) 0.3361(5)
H6_4 H 0.1547 0.2532 0.3296
C13_4 C 0.3081(9) 0.2024(2) 0.5860(5)
H7_4 H 0.3466 0.2137 0.5820
C14_4 C 0.1170(7) 0.15269(16) 0.6112(4)
C15_4 C 0.1951(10) 0.14315(17) 0.3012(4)
H8_4 H 0.1532 0.1457 0.3250
C16_4 C 0.2560(8) 0.22639(19) 0.4223(5)
C17_4 C 0.3086(7) 0.19099(19) 0.6297(4)
C18_4 C 0.1958(9) 0.17889(19) 0.5597(4)
H9_4 H 0.1628 0.1735 0.5349
C19_4 C 0.2583(8) 0.2272(2) 0.5018(5)
H10_4 H 0.2633 0.2344 0.5295
C20_4 C 0.2505(6) 0.1758(2) 0.6374(5)
H11_4 H 0.2507 0.1694 0.6661
C21_4 C 0.1879(9) 0.16922(16) 0.6032(4)
C22_4 C 0.3082(9) 0.1341(2) 0.2257(4)
C23_4 C 0.1939(8) 0.28103(15) 0.3203(4)
C24_4 C 0.1909(9) 0.12396(17) 0.2822(4)
C25_4 C 0.2555(11) 0.1946(3) 0.4661(8)
H12_4 H 0.2552 0.1804 0.4678
C26_4 C 0.1202(7) 0.28755(16) 0.2893(4)
C27_4 C 0.3791(7) 0.19769(17) 0.6674(4)
C28_4 C 0.2503(7) 0.12138(19) 0.2385(4)
H13_4 H 0.2421 0.1096 0.2207
C29_4 C 0.2492(8) 0.1801(2) 0.3576(6)
H14_4 H 0.2400 0.1679 0.3738
C30_4 C 0.3812(7) 0.13104(19) 0.1878(3)
C31_4 C 0.2594(10) 0.2064(2) 0.4238(5)
C32_4 C 0.2560(10) 0.1601(3) 0.2894(6)
C33_4 C 0.2614(11) 0.2181(3) 0.3528(7)
C34_4 C 0.2521(6) 0.2087(2) 0.5064(4)
C35_4 C 0.2542(10) 0.1987(3) 0.3830(9)
C36_4 C 0.2500(8) 0.2971(2) 0.3394(5)
H15_4 H 0.2443 0.3108 0.3301
C38_4 C 0.1925(9) 0.1079(2) 0.9493(5)
H17_4 H 0.1553 0.1056 0.9236
C39_4 C 0.2464(10) 0.0087(3) 0.7833(6)
C40_4 C 0.1931(7) 0.08180(18) 0.6502(5)
C41_4 C 0.2428(9) 0.0329(2) 0.9511(5)
H19_4 H 0.2458 0.0213 0.9699
C43_4 C 0.1221(9) 0.14362(19) 0.9532(5)
C44_4 C 0.2471(8) 0.0547(2) 0.6953(5)
C45_4 C 0.1214(7) 0.09940(17) 0.6409(4)
C47_4 C 0.2482(9) 0.0713(2) 0.9404(5)
C48_4 C 0.3049(9) 0.04863(16) 0.6624(4)
H21_4 H 0.3432 0.0374 0.6673
C50_4 C 0.2388(9) 0.0202(2) 0.8253(5)
C53_4 C 0.1973(10) 0.12819(18) 0.9725(5)
C57_4 C 0.2481(6) 0.02066(18) 0.7435(4)
H24_4 H 0.2497 0.0139 0.7151
C58_4 C 0.2447(8) 0.03191(17) 0.9032(4)
C59_4 C 0.2475(8) 0.0450(2) 0.7429(5)
C60_4 C 0.1931(7) 0.07140(18) 0.6892(4)
H25_4 H 0.1550 0.0757 0.7133
C61_4 C 0.2505(7) 0.0761(2) 0.6138(5)
H26_4 H 0.2505 0.0833 0.5861
C62_4 C 0.2477(5) 0.05412(17) 0.7840(4)
H27_4 H 0.2485 0.0684 0.7849
C65_4 C 0.3081(8) 0.05920(18) 0.6203(4)
C66_4 C 0.3811(8) 0.05362(17) 0.5869(4)
C67_4 C 0.2364(16) 0.0519(3) 0.9677(7)
H28_4 H 0.2235 0.0533 0.9991
C68_4 C 0.2484(7) 0.09224(17) 0.9689(4)
C69_4 C 0.2469(5) 0.04369(19) 0.8248(4)
C70_4 C 0.2479(7) 0.0699(2) 0.8948(5)
H29_4 H 0.2480 0.0816 0.8762
C72_4 C 0.2473(6) 0.04956(17) 0.8750(4)
O38_4 O 0.5909(6) 0.30504(15) 0.4337(4)
O39_2 O 0.9039(5) 0.14274(11) 0.5777(3)
O41_4 O 0.5948(6) 0.32126(13) 0.3689(3)
O44_2 O 0.9043(5) 0.30616(12) 0.2849(3)
O46_2 O 0.9041(5) 0.27339(12) 0.2602(3)
O48_2 O 0.9059(5) 0.14949(11) 0.6527(2)
O54_2 O 0.9067(5) 0.10845(11) 0.6763(2)
O55_4 O 0.5921(6) 0.03517(11) 0.5876(3)
O58_4 O 0.5957(5) 0.06793(10) 0.5577(3)
O59_2 O 0.9014(5) 0.10189(11) 0.5989(2)
N3_4 N 0.7350(9) 0.23408(15) 0.3751(4)
N4_4 N 0.7586(7) 0.01495(15) 0.8669(4)
C73_4 C 0.7329(12) 0.2141(2) 0.3000(6)
H31_4 H 0.7229 0.2253 0.2809
C74_4 C 0.7409(7) 0.19657(18) 0.2807(5)
H32_4 H 0.7457 0.1955 0.2487
C75_4 C 0.6906(9) 0.15376(18) 0.2471(4)
H33_4 H 0.6529 0.1637 0.2336
C76_4 C 0.6864(9) 0.29084(16) 0.3728(4)
C77_4 C 0.7271(12) 0.2549(2) 0.3604(7)
C78_4 C 0.7483(6) 0.19639(18) 0.5521(4)
C79_4 C 0.8755(8) 0.10721(18) 0.3007(4)
C80_4 C 0.7409(7) 0.23830(18) 0.4661(4)
H34_4 H 0.7385 0.2526 0.4671
C81_4 C 0.7423(7) 0.1792(2) 0.3079(5)
C82_4 C 0.6167(8) 0.30808(16) 0.3936(4)
C83_4 C 0.6777(9) 0.27078(18) 0.3867(4)
H35_4 H 0.6415 0.2673 0.4121
C84_4 C 0.7973(8) 0.26228(19) 0.3361(5)
H36_4 H 0.8453 0.2532 0.3296
C85_4 C 0.6919(9) 0.2024(2) 0.5860(5)
H37_4 H 0.6534 0.2137 0.5820
C86_4 C 0.8830(7) 0.15269(16) 0.6112(4)
C87_4 C 0.8049(10) 0.14315(17) 0.3012(4)
H38_4 H 0.8468 0.1457 0.3250
C88_4 C 0.7440(8) 0.22639(19) 0.4223(5)
C89_4 C 0.6914(7) 0.19099(19) 0.6297(4)
C90_4 C 0.8042(9) 0.17889(19) 0.5597(4)
H39_4 H 0.8372 0.1735 0.5349
C91_4 C 0.7417(8) 0.2272(2) 0.5018(5)
H40_4 H 0.7367 0.2344 0.5295
C92_4 C 0.7495(6) 0.1758(2) 0.6374(5)
H41_4 H 0.7493 0.1694 0.6661
C93_4 C 0.8121(9) 0.16922(16) 0.6032(4)
C94_4 C 0.6918(9) 0.1341(2) 0.2257(4)
C95_4 C 0.8061(8) 0.28103(15) 0.3203(4)
C96_4 C 0.8091(9) 0.12396(17) 0.2822(4)
C97_4 C 0.7445(11) 0.1946(3) 0.4661(8)
H42_4 H 0.7448 0.1804 0.4678
C98_4 C 0.8798(7) 0.28755(16) 0.2893(4)
C99_4 C 0.6209(7) 0.19769(17) 0.6674(4)
C100_4 C 0.7497(7) 0.12138(19) 0.2385(4)
H43_4 H 0.7579 0.1096 0.2207
C101_4 C 0.7508(8) 0.1801(2) 0.3576(6)
H44_4 H 0.7600 0.1679 0.3738
C102_4 C 0.6188(7) 0.13104(19) 0.1878(3)
C103_4 C 0.7406(10) 0.2064(2) 0.4238(5)
C104_4 C 0.7440(10) 0.1601(3) 0.2894(6)
C105_4 C 0.7386(11) 0.2181(3) 0.3528(7)
C106_4 C 0.7479(6) 0.2087(2) 0.5064(4)
C107_4 C 0.7458(10) 0.1987(3) 0.3830(9)
C108_4 C 0.7500(8) 0.2971(2) 0.3394(5)
H45_4 H 0.7557 0.3108 0.3301
C110_4 C 0.8075(9) 0.1079(2) 0.9493(5)
H47_4 H 0.8447 0.1056 0.9236
C111_4 C 0.7536(10) 0.0087(3) 0.7833(6)
C112_4 C 0.8069(7) 0.08180(18) 0.6502(5)
C113_4 C 0.7572(9) 0.0329(2) 0.9511(5)
H49_4 H 0.7542 0.0213 0.9699
C115_4 C 0.8779(9) 0.14362(19) 0.9532(5)
C116_4 C 0.7529(8) 0.0547(2) 0.6953(5)
C117_4 C 0.8786(7) 0.09940(17) 0.6409(4)
C119_4 C 0.7518(9) 0.0713(2) 0.9404(5)
C120_4 C 0.6951(9) 0.04863(16) 0.6624(4)
H51_4 H 0.6568 0.0374 0.6673
C122_4 C 0.7612(9) 0.0202(2) 0.8253(5)
C125_4 C 0.8027(10) 0.12819(18) 0.9725(5)
C129_4 C 0.7519(6) 0.02066(18) 0.7435(4)
H54_4 H 0.7503 0.0139 0.7151
C130_4 C 0.7553(8) 0.03191(17) 0.9032(4)
C131_4 C 0.7525(8) 0.0450(2) 0.7429(5)
C132_4 C 0.8069(7) 0.07140(18) 0.6892(4)
H55_4 H 0.8450 0.0757 0.7133
C133_4 C 0.7495(7) 0.0761(2) 0.6138(5)
H56_4 H 0.7495 0.0833 0.5861
C134_4 C 0.7523(5) 0.05412(17) 0.7840(4)
H57_4 H 0.7515 0.0684 0.7849
C137_4 C 0.6919(8) 0.05920(18) 0.6203(4)
C138_4 C 0.6189(8) 0.05362(17) 0.5869(4)
C139_4 C 0.7636(16) 0.0519(3) 0.9677(7)
H58_4 H 0.7765 0.0533 0.9991
C140_4 C 0.7516(7) 0.09224(17) 0.9689(4)
C141_4 C 0.7531(5) 0.04369(19) 0.8248(4)
C142_4 C 0.7521(7) 0.0699(2) 0.8948(5)
H59_4 H 0.7520 0.0816 0.8762
C144_4 C 0.7527(6) 0.04956(17) 0.8750(4)
Cu13_3 Cu 1.0000 0.13000(3) 0.67007(6)
Cu14_3 Cu 1.0000 0.12111(3) 0.57890(6)
H73_2 H 0.0625979 0.353722 0.257373
H75_4 H 0.0625428 0.111749 0.496033
O14_4 O 0.0932(6) 0.94493(12) 0.8178(3)
O15_4 O 0.1007(6) 0.92788(11) 0.8852(3)
O25_5 O -0.0000 0.9419(2) 0.7207(5)
O30_6 O 0.5000 0.99290(19) 0.5508(6)
O33_5 O -0.0000 0.89021(16) 0.9292(4)
H18_4 H 0.2499 0.9945 0.7826
C42_4 C 0.2426(6) 0.99300(15) 0.8830(4)
C46_4 C 0.3010(10) 0.98778(16) 0.9213(4)
H20_4 H 0.3322 0.9976 0.9387
C49_4 C 0.1241(9) 0.9418(2) 0.8585(5)
C52_4 C 0.1870(8) 0.95805(16) 0.8790(4)
C55_4 C 0.1810(9) 0.9801(2) 0.8664(5)
H22_4 H 0.1341 0.9847 0.8471
C63_4 C 0.3809(7) 0.9637(2) 0.9702(4)
C64_4 C 0.3074(8) 0.96692(16) 0.9304(4)
C71_4 C 0.2504(6) 0.9530(2) 0.9089(5)
H30_4 H 0.2575 0.9392 0.9162
O50_2 O 0.9068(6) 0.94493(12) 0.8178(3)
O51_2 O 0.8993(6) 0.92788(11) 0.8852(3)
H48_4 H 0.7501 0.9945 0.7826
C114_4 C 0.7574(6) 0.99300(15) 0.8830(4)
C118_4 C 0.6990(10) 0.98778(16) 0.9213(4)
H50_4 H 0.6678 0.9976 0.9387
C121_4 C 0.8759(9) 0.9418(2) 0.8585(5)
C124_4 C 0.8130(8) 0.95805(16) 0.8790(4)
C127_4 C 0.8190(9) 0.9801(2) 0.8664(5)
H52_4 H 0.8659 0.9847 0.8471
C135_4 C 0.6191(7) 0.9637(2) 0.9702(4)
C136_4 C 0.6926(8) 0.96692(16) 0.9304(4)
C143_4 C 0.7496(6) 0.9530(2) 0.9089(5)
H60_4 H 0.7425 0.9392 0.9162
H69_2 H 0.0631539 0.941468 0.707283
O26_6 O 1.0000 0.2428(2) 0.2017(6)
O27_6 O 1.0000 0.34782(18) 0.2620(5)
O31_6 O 1.0000 0.13444(19) 0.7454(4)
O32_6 O 1.0000 0.11616(18) 0.5061(4)
H74_2 H 0.954524 0.355584 0.243125
H76_4 H 0.95437 0.105318 0.498256
H77_2 H 0.984115 0.148921 0.752619
H78_2 H 0.953622 0.125175 0.759735
H81_2 H 0.98217 0.236085 0.231239
H82_2 H 0.95505 0.239006 0.177176
O25_6 O 1.0000 0.9419(2) 0.7207(5)
O33_6 O 1.0000 0.89021(16) 0.9292(4)
H70_2 H 0.956234 0.934849 0.699528
H71_2 H 0.983989 0.899405 0.955418
H72_2 H 0.953713 0.878994 0.927086
H74_3 H 0.0454764 0.355584 0.243125
H76_5 H 0.0456302 0.105318 0.498256
H77_3 H 0.0158845 0.148921 0.752619
H78_3 H 0.0463775 0.125175 0.759735
H81_3 H 0.0178295 0.236085 0.231239
H82_3 H 0.0449504 0.239006 0.177176
H70_3 H 0.0437657 0.934849 0.699528
H71_3 H 0.0160105 0.899405 0.955418
H72_3 H 0.0462867 0.878994 0.927086
H73_3 H 0.937402 0.353722 0.257373
H75_5 H 0.937457 0.111749 0.496033
H69_3 H 0.936846 0.941468 0.707283
H69_4 H 0.0631539 0.0585315 0.207283
H83_6 H 0.51654 0.892092 0.016577
H73_4 H 0.0625979 0.646278 0.757373
H75_6 H 0.0625428 0.888251 0.996033
H84_6 H 0.545903 0.898335 0.964268
H70_4 H 0.956234 0.0651509 0.199528
H71_4 H 0.983989 0.100595 0.455418
H72_4 H 0.953713 0.121006 0.427086
H77_4 H 0.984115 0.851079 0.252619
H78_4 H 0.953622 0.874825 0.259735
H74_4 H 0.954524 0.644416 0.743125
H76_6 H 0.95437 0.894682 0.998256
H81_4 H 0.98217 0.763915 0.731239
H82_4 H 0.95505 0.760994 0.677176
loop_
_geom_bond_atom_site_label_1
_geom_bond_atom_site_label_2
_geom_bond_site_symmetry_1
_geom_bond_site_symmetry_2
Cu1 O12 1_555 1_555
Cu2 O3 1_555 1_555
Cu7 O15 1_555 1_555
Cu8 O14 1_555 1_555
Cu9 O16 1_555 1_555
Cu10 O20 1_555 1_555
Cu11 O22 1_555 1_555
Cu12 O19 1_555 1_555
O3 C14 1_555 1_555
O9 C27 1_555 1_555
O11 C27 1_555 1_555
O12 C14 1_555 1_555
O13 C43 1_555 1_555
O14 C49 1_555 1_555
O15 C49 1_555 1_555
O16 C51 1_555 1_555
O17 C43 1_555 1_555
O18 Cu1 1_555 1_555
O19 C66 1_555 1_555
O20 C51 1_555 1_555
O21 C63 1_555 1_555
O22 C66 1_555 1_555
O23 Cu2 1_555 1_555
O24 C63 1_555 1_555
O25 Cu8 1_555 1_555
O30 Cu12 1_555 1_555
O31 Cu1 1_555 1_555
O32 Cu2 1_555 1_555
O33 Cu7 1_555 1_555
O34 Cu10 1_555 1_555
O35 Cu9 1_555 1_555
N2 C42 1_555 1_555
C6 C13 1_555 1_555
C13 H7 1_555 1_555
C14 C21 1_555 1_555
C17 C13 1_555 1_555
C18 C6 1_555 1_555
H9 C18 1_555 1_555
H10 C19 1_555 1_555
C20 C17 1_555 1_555
H11 C20 1_555 1_555
C21 C18 1_555 1_555
C27 C17 1_555 1_555
C34 C6 1_555 1_555
C37 H16 1_555 1_555
C38 H17 1_555 1_555
C39 H18 1_555 1_555
C40 C45 1_555 1_555
C41 H19 1_555 1_555
C42 C46 1_555 1_555
C43 C53 1_555 1_555
C44 C48 1_555 1_555
C45 O18 1_555 1_555
C46 H20 1_555 1_555
C47 C67 1_555 1_555
C48 H21 1_555 1_555
C49 C52 1_555 1_555
C50 N2 1_555 1_555
C51 C54 1_555 1_555
C52 C55 1_555 1_555
C53 C38 1_555 1_555
C54 C37 1_555 1_555
C55 C42 1_555 1_555
H22 C55 1_555 1_555
C56 C53 1_555 1_555
H23 C56 1_555 1_555
C57 C39 1_555 1_555
H24 C57 1_555 1_555
C58 N2 1_555 1_555
C59 C44 1_555 1_555
C60 C40 1_555 1_555
H25 C60 1_555 1_555
C61 C40 1_555 1_555
H26 C61 1_555 1_555
C62 C59 1_555 1_555
H27 C62 1_555 1_555
C63 C64 1_555 1_555
C64 C46 1_555 1_555
C65 C48 1_555 1_555
C66 C65 1_555 1_555
C67 C41 1_555 1_555
H28 C67 1_555 1_555
C68 C37 1_555 1_555
C69 C50 1_555 1_555
C70 C47 1_555 1_555
H29 C70 1_555 1_555
C71 C52 1_555 1_555
H30 C71 1_555 1_555
C72 C58 1_555 1_555
Cu16 O9 1_555 1_555
Cu18 O11 1_555 1_555
Cu20 O17 1_555 1_555
Cu22 O13 1_555 1_555
Cu31 O21 1_555 1_555
Cu32 O24 1_555 1_555
O61 Cu7 1_555 1_555
O62 Cu7 1_555 1_555
O63 Cu2 1_555 1_555
O64 Cu8 1_555 1_555
O65 Cu8 1_555 1_555
O66 Cu10 1_555 1_555
O68 Cu9 1_555 1_555
O76 Cu1 1_555 1_555
O79 Cu8 1_555 1_555
O80 Cu7 1_555 1_555
O83 Cu1 1_555 1_555
O86 Cu2 1_555 1_555
O23 C45 1_555 1_555
C19 C34 1_555 1_555
C20 C21 1_555 1_555
C38 C68 1_555 1_555
C39 C50 1_555 1_555
C41 C58 1_555 1_555
C44 C60 1_555 1_555
C47 C68 1_555 1_555
C54 C56 1_555 1_555
C57 C59 1_555 1_555
C61 C65 1_555 1_555
C62 C69 1_555 1_555
C64 C71 1_555 1_555
C69 C72 1_555 1_555
C70 C72 1_555 1_555
O30 H61 1_555 1_555
O35 H67 1_555 1_555
Cu3 O10 1_555 1_555
Cu4 O8 1_555 1_555
Cu5 O2 1_555 1_555
Cu6 O5 1_555 1_555
O1 C7 1_555 1_555
O2 C10 1_555 1_555
O4 C7 1_555 1_555
O5 C10 1_555 1_555
O66 C30 1_555 1_555
O68 C30 1_555 1_555
O8 C26 1_555 1_555
O10 C26 1_555 1_555
O26 Cu3 1_555 1_555
O27 Cu4 1_555 1_555
O29 Cu6 1_555 1_555
N1 C5 1_555 1_555
C1 H1 1_555 1_555
C2 C1 1_555 1_555
H2 C2 1_555 1_555
C3 H3 1_555 1_555
C4 C10 1_555 1_555
C5 C11 1_555 1_555
C7 C24 1_555 1_555
C8 H4 1_555 1_555
C9 C2 1_555 1_555
C11 C4 1_555 1_555
H5 C11 1_555 1_555
C12 C5 1_555 1_555
H6 C12 1_555 1_555
C15 H8 1_555 1_555
C16 N1 1_555 1_555
C22 C3 1_555 1_555
C23 C12 1_555 1_555
C24 C15 1_555 1_555
C25 H12 1_555 1_555
C26 C23 1_555 1_555
C28 C22 1_555 1_555
H13 C28 1_555 1_555
C29 C9 1_555 1_555
H14 C29 1_555 1_555
C30 C22 1_555 1_555
C31 C16 1_555 1_555
C32 C3 1_555 1_555
C33 N1 1_555 1_555
C35 C29 1_555 1_555
C36 C4 1_555 1_555
H15 C36 1_555 1_555
Cu25 O1 1_555 1_555
Cu28 O4 1_555 1_555
O70 Cu4 1_555 1_555
O71 Cu3 1_555 1_555
O72 Cu3 1_555 1_555
O73 Cu3 1_555 1_555
O74 Cu4 1_555 1_555
O75 Cu4 1_555 1_555
O77 Cu6 1_555 1_555
O81 Cu5 1_555 1_555
C1 C33 1_555 1_555
C8 C16 1_555 1_555
C9 C32 1_555 1_555
C15 C32 1_555 1_555
C23 C36 1_555 1_555
C24 C28 1_555 1_555
C25 C31 1_555 1_555
C31 C35 1_555 1_555
C33 C35 1_555 1_555
O29 H65 1_555 1_555
O30_2 Cu12_2 1_555 1_555
O34_2 Cu10_2 1_555 1_555
O35_2 Cu9_2 1_555 1_555
O63 C86 1_555 1_555
O45 C99 1_555 1_555
O47 C99 1_555 1_555
O76 C86 1_555 1_555
O49 C115 1_555 1_555
O79 C121 1_555 1_555
O80 C121 1_555 1_555
O52 Cu9_2 1_555 1_555
O53 C115 1_555 1_555
O83 C117 1_555 1_555
O55 Cu12_2 1_555 1_555
O56 Cu10_2 1_555 1_555
O57 C135 1_555 1_555
O58 Cu11_2 1_555 1_555
O86 C117 1_555 1_555
O60 C135 1_555 1_555
N4 C114 1_555 1_555
C78 C85 1_555 1_555
C85 H37 1_555 1_555
C86 C93 1_555 1_555
C89 C85 1_555 1_555
C90 C78 1_555 1_555
H39 C90 1_555 1_555
H40 C91 1_555 1_555
C92 C89 1_555 1_555
H41 C92 1_555 1_555
C93 C90 1_555 1_555
C99 C89 1_555 1_555
C106 C78 1_555 1_555
C109 H46 1_555 1_555
C110 H47 1_555 1_555
C111 H48 1_555 1_555
C112 C117 1_555 1_555
C113 H49 1_555 1_555
C114 C118 1_555 1_555
C115 C125 1_555 1_555
C116 C120 1_555 1_555
C118 H50 1_555 1_555
C119 C139 1_555 1_555
C120 H51 1_555 1_555
C121 C124 1_555 1_555
C122 N4 1_555 1_555
C123 O52 1_555 1_555
C124 C127 1_555 1_555
C125 C110 1_555 1_555
C126 C109 1_555 1_555
C127 C114 1_555 1_555
H52 C127 1_555 1_555
C128 C125 1_555 1_555
H53 C128 1_555 1_555
C129 C111 1_555 1_555
H54 C129 1_555 1_555
C130 N4 1_555 1_555
C131 C116 1_555 1_555
C132 C112 1_555 1_555
H55 C132 1_555 1_555
C133 C112 1_555 1_555
H56 C133 1_555 1_555
C134 C131 1_555 1_555
H57 C134 1_555 1_555
C135 C136 1_555 1_555
C136 C118 1_555 1_555
C137 C120 1_555 1_555
C138 O55 1_555 1_555
C139 C113 1_555 1_555
H58 C139 1_555 1_555
C140 C109 1_555 1_555
C141 C122 1_555 1_555
C142 C119 1_555 1_555
H59 C142 1_555 1_555
C143 C124 1_555 1_555
H60 C143 1_555 1_555
C144 C130 1_555 1_555
Cu20 O53 1_555 1_555
Cu22 O49 1_555 1_555
O67 Cu10_2 1_555 1_555
O69 Cu9_2 1_555 1_555
O45 Cu16_2 1_555 1_555
O47 Cu18_2 1_555 1_555
O56 C123 1_555 1_555
O57 Cu31_2 1_555 1_555
O58 C138 1_555 1_555
O60 Cu32_2 1_555 1_555
C91 C106 1_555 1_555
C92 C93 1_555 1_555
C110 C140 1_555 1_555
C111 C122 1_555 1_555
C113 C130 1_555 1_555
C116 C132 1_555 1_555
C119 C140 1_555 1_555
C123 C126 1_555 1_555
C126 C128 1_555 1_555
C129 C131 1_555 1_555
C133 C137 1_555 1_555
C134 C141 1_555 1_555
C136 C143 1_555 1_555
C137 C138 1_555 1_555
C141 C144 1_555 1_555
C142 C144 1_555 1_555
O30_2 H62 1_555 1_555
O34_2 H63 1_555 1_555
O34_2 H64 1_555 1_555
O35_2 H68 1_555 1_555
O36_2 H79 1_555 1_555
O36_2 H80 1_555 1_555
O29_2 Cu6_2 1_555 1_555
O37 C79 1_555 1_555
O38 Cu5_2 1_555 1_555
O40 C79 1_555 1_555
O41 Cu6_2 1_555 1_555
O67 C102 1_555 1_555
O69 C102 1_555 1_555
O70 C98 1_555 1_555
O73 C98 1_555 1_555
N3 C77 1_555 1_555
C73 H31 1_555 1_555
C74 C73 1_555 1_555
H32 C74 1_555 1_555
C75 H33 1_555 1_555
C76 C82 1_555 1_555
C77 C83 1_555 1_555
C79 C96 1_555 1_555
C80 H34 1_555 1_555
C81 C74 1_555 1_555
C82 O38 1_555 1_555
C83 C76 1_555 1_555
H35 C83 1_555 1_555
C84 C77 1_555 1_555
H36 C84 1_555 1_555
C87 H38 1_555 1_555
C88 N3 1_555 1_555
C94 C75 1_555 1_555
C95 C84 1_555 1_555
C96 C87 1_555 1_555
C97 H42 1_555 1_555
C98 C95 1_555 1_555
C100 C94 1_555 1_555
H43 C100 1_555 1_555
C101 C81 1_555 1_555
H44 C101 1_555 1_555
C102 C94 1_555 1_555
C103 C88 1_555 1_555
C104 C75 1_555 1_555
C105 N3 1_555 1_555
C107 C101 1_555 1_555
C108 C76 1_555 1_555
H45 C108 1_555 1_555
Cu25 O37 1_555 1_555
Cu28 O40 1_555 1_555
O78 Cu6_2 1_555 1_555
O82 Cu5_2 1_555 1_555
O41 C82 1_555 1_555
C73 C105 1_555 1_555
C80 C88 1_555 1_555
C81 C104 1_555 1_555
C87 C104 1_555 1_555
C95 C108 1_555 1_555
C96 C100 1_555 1_555
C97 C103 1_555 1_555
C103 C107 1_555 1_555
C105 C107 1_555 1_555
O29_2 H66 1_555 1_555
O28_2 H84 1_555 1_555
O34_3 Cu10_3 1_555 1_555
O35_3 Cu9_3 1_555 1_555
O52_2 Cu9_3 1_555 1_555
O56_2 Cu10_3 1_555 1_555
C109_2 H46_2 1_555 1_555
C123_2 O52_2 1_555 1_555
C126_2 C109_2 1_555 1_555
H53_2 C128_2 1_555 1_555
O67_2 Cu10_3 1_555 1_555
O69_2 Cu9_3 1_555 1_555
O56_2 C123_2 1_555 1_555
C123_2 C126_2 1_555 1_555
C126_2 C128_2 1_555 1_555
O34_3 H63_2 1_555 1_555
O34_3 H64_2 1_555 1_555
O35_3 H68_2 1_555 1_555
O28_3 Cu31 1_555 1_555
O29_3 Cu6_3 1_555 1_555
O30_3 Cu32 1_555 1_555
O36_3 Cu5_3 1_555 1_555
O62 C79_2 1_555 1_555
O38_2 Cu5_3 1_555 1_555
O39 C86_2 1_555 1_555
O65 C79_2 1_555 1_555
O41_2 Cu6_3 1_555 1_555
O67_2 C102_2 1_555 1_555
O69_2 C102_2 1_555 1_555
O44 C98_2 1_555 1_555
O45_2 C99_2 1_555 1_555
O46 C98_2 1_555 1_555
O47_2 C99_2 1_555 1_555
O48 C86_2 1_555 1_555
O49_2 C115_2 1_555 1_555
O50 C121_2 1_555 1_555
O51 C121_2 1_555 1_555
O53_2 C115_2 1_555 1_555
O54 C117_2 1_555 1_555
O55_2 Cu32 1_555 1_555
O85 C135_2 1_555 1_555
O58_2 Cu31 1_555 1_555
O59 C117_2 1_555 1_555
O88 C135_2 1_555 1_555
N3_2 C77_2 1_555 1_555
N4_2 C114_2 1_555 1_555
C73_2 H31_2 1_555 1_555
C74_2 C73_2 1_555 1_555
H32_2 C74_2 1_555 1_555
C75_2 H33_2 1_555 1_555
C76_2 C82_2 1_555 1_555
C77_2 C83_2 1_555 1_555
C78_2 C85_2 1_555 1_555
C79_2 C96_2 1_555 1_555
C80_2 H34_2 1_555 1_555
C81_2 C74_2 1_555 1_555
C82_2 O38_2 1_555 1_555
C83_2 C76_2 1_555 1_555
H35_2 C83_2 1_555 1_555
C84_2 C77_2 1_555 1_555
H36_2 C84_2 1_555 1_555
C85_2 H37_2 1_555 1_555
C86_2 C93_2 1_555 1_555
C87_2 H38_2 1_555 1_555
C88_2 N3_2 1_555 1_555
C89_2 C85_2 1_555 1_555
C90_2 C78_2 1_555 1_555
H39_2 C90_2 1_555 1_555
C91_2 C80_2 1_555 1_555
H40_2 C91_2 1_555 1_555
C92_2 C89_2 1_555 1_555
H41_2 C92_2 1_555 1_555
C93_2 C90_2 1_555 1_555
C94_2 C75_2 1_555 1_555
C95_2 C84_2 1_555 1_555
C96_2 C87_2 1_555 1_555
C97_2 H42_2 1_555 1_555
C98_2 C95_2 1_555 1_555
C99_2 C89_2 1_555 1_555
C100_2 C94_2 1_555 1_555
H43_2 C100_2 1_555 1_555
C101_2 C81_2 1_555 1_555
H44_2 C101_2 1_555 1_555
C102_2 C94_2 1_555 1_555
C103_2 C88_2 1_555 1_555
C104_2 C75_2 1_555 1_555
C105_2 N3_2 1_555 1_555
C106_2 C78_2 1_555 1_555
C107_2 C101_2 1_555 1_555
C108_2 C76_2 1_555 1_555
H45_2 C108_2 1_555 1_555
C110_2 H47_2 1_555 1_555
C111_2 H48_2 1_555 1_555
C112_2 C117_2 1_555 1_555
C113_2 H49_2 1_555 1_555
C114_2 C118_2 1_555 1_555
C115_2 C125_2 1_555 1_555
C116_2 C120_2 1_555 1_555
C118_2 H50_2 1_555 1_555
C119_2 C139_2 1_555 1_555
C120_2 H51_2 1_555 1_555
C121_2 C124_2 1_555 1_555
C122_2 N4_2 1_555 1_555
C124_2 C127_2 1_555 1_555
C125_2 C110_2 1_555 1_555
C127_2 C114_2 1_555 1_555
H52_2 C127_2 1_555 1_555
C129_2 C111_2 1_555 1_555
H54_2 C129_2 1_555 1_555
C130_2 N4_2 1_555 1_555
C131_2 C116_2 1_555 1_555
C132_2 C112_2 1_555 1_555
H55_2 C132_2 1_555 1_555
C133_2 C112_2 1_555 1_555
H56_2 C133_2 1_555 1_555
C134_2 C131_2 1_555 1_555
H57_2 C134_2 1_555 1_555
C135_2 C136_2 1_555 1_555
C136_2 C118_2 1_555 1_555
C137_2 C120_2 1_555 1_555
C138_2 O55_2 1_555 1_555
C139_2 C113_2 1_555 1_555
H58_2 C139_2 1_555 1_555
C141_2 C122_2 1_555 1_555
C142_2 C119_2 1_555 1_555
H59_2 C142_2 1_555 1_555
C143_2 C124_2 1_555 1_555
H60_2 C143_2 1_555 1_555
C144_2 C130_2 1_555 1_555
Cu13 O48 1_555 1_555
Cu14 O39 1_555 1_555
Cu15 O46 1_555 1_555
Cu17 O44 1_555 1_555
Cu19 O53_2 1_555 1_555
Cu21 O49_2 1_555 1_555
Cu25 O51 1_555 1_555
Cu28 O50 1_555 1_555
O78_2 Cu6_3 1_555 1_555
O82_2 Cu5_3 1_555 1_555
O41_2 C82_2 1_555 1_555
O45_2 Cu16_3 1_555 1_555
O47_2 Cu18_3 1_555 1_555
O54 Cu13 1_555 1_555
O58_2 C138_2 1_555 1_555
O59 Cu14 1_555 1_555
C73_2 C105_2 1_555 1_555
C80_2 C88_2 1_555 1_555
C81_2 C104_2 1_555 1_555
C87_2 C104_2 1_555 1_555
C91_2 C106_2 1_555 1_555
C92_2 C93_2 1_555 1_555
C95_2 C108_2 1_555 1_555
C96_2 C100_2 1_555 1_555
C97_2 C103_2 1_555 1_555
C97_2 C106_2 1_555 1_555
C103_2 C107_2 1_555 1_555
C105_2 C107_2 1_555 1_555
C110_2 C140_2 1_555 1_555
C111_2 C122_2 1_555 1_555
C113_2 C130_2 1_555 1_555
C116_2 C132_2 1_555 1_555
C119_2 C140_2 1_555 1_555
C129_2 C131_2 1_555 1_555
C133_2 C137_2 1_555 1_555
C134_2 C141_2 1_555 1_555
C136_2 C143_2 1_555 1_555
C137_2 C138_2 1_555 1_555
C141_2 C144_2 1_555 1_555
C142_2 C144_2 1_555 1_555
O30_3 H62_2 1_555 1_555
O29_3 H66_2 1_555 1_555
O36_3 H79_2 1_555 1_555
O36_3 H80_2 1_555 1_555
O28_3 H83_2 1_555 1_555
O28_3 H84_2 1_555 1_555
Cu9_4 O16_2 1_555 1_555
Cu10_4 O20_2 1_555 1_555
O16_2 C51_2 1_555 1_555
O20_2 C51_2 1_555 1_555
O34_4 Cu10_4 1_555 1_555
O35_4 Cu9_4 1_555 1_555
C37_2 H16_2 1_555 1_555
C51_2 C54_2 1_555 1_555
C54_2 C37_2 1_555 1_555
H23_2 C56_2 1_555 1_555
O66_2 Cu10_4 1_555 1_555
O68_2 Cu9_4 1_555 1_555
C54_2 C56_2 1_555 1_555
O35_4 H67_2 1_555 1_555
Cu13 O12_2 1_555 1_555
Cu14 O3_2 1_555 1_555
Cu15 O10_2 1_555 1_555
Cu17 O8_2 1_555 1_555
Cu5_4 O2_2 1_555 1_555
Cu6_4 O5_2 1_555 1_555
Cu25 O15_2 1_555 1_555
Cu28 O14_2 1_555 1_555
Cu31_2 O22_2 1_555 1_555
Cu32_2 O19_2 1_555 1_555
O61 C7_2 1_555 1_555
O2_2 C10_2 1_555 1_555
O3_2 C14_2 1_555 1_555
O64 C7_2 1_555 1_555
O5_2 C10_2 1_555 1_555
O66_2 C30_2 1_555 1_555
O68_2 C30_2 1_555 1_555
O8_2 C26_2 1_555 1_555
O9_2 C27_2 1_555 1_555
O10_2 C26_2 1_555 1_555
O11_2 C27_2 1_555 1_555
O12_2 C14_2 1_555 1_555
O13_2 C43_2 1_555 1_555
O14_2 C49_2 1_555 1_555
O15_2 C49_2 1_555 1_555
O17_2 C43_2 1_555 1_555
O18_2 Cu13 1_555 1_555
O19_2 C66_2 1_555 1_555
O84 C63_2 1_555 1_555
O22_2 C66_2 1_555 1_555
O23_2 Cu14 1_555 1_555
O87 C63_2 1_555 1_555
O25_2 Cu28 1_555 1_555
O26_2 Cu15 1_555 1_555
O27_2 Cu17 1_555 1_555
O28_4 Cu31_2 1_555 1_555
O29_4 Cu6_4 1_555 1_555
O30_4 Cu32_2 1_555 1_555
O31_2 Cu13 1_555 1_555
O32_2 Cu14 1_555 1_555
O33_2 Cu25 1_555 1_555
O36_4 Cu5_4 1_555 1_555
N1_2 C5_2 1_555 1_555
N2_2 C42_2 1_555 1_555
C1_2 H1_2 1_555 1_555
C2_2 C1_2 1_555 1_555
H2_2 C2_2 1_555 1_555
C3_2 H3_2 1_555 1_555
C4_2 C10_2 1_555 1_555
C5_2 C11_2 1_555 1_555
C6_2 C13_2 1_555 1_555
C7_2 C24_2 1_555 1_555
C8_2 H4_2 1_555 1_555
C9_2 C2_2 1_555 1_555
C11_2 C4_2 1_555 1_555
H5_2 C11_2 1_555 1_555
C12_2 C5_2 1_555 1_555
H6_2 C12_2 1_555 1_555
C13_2 H7_2 1_555 1_555
C14_2 C21_2 1_555 1_555
C15_2 H8_2 1_555 1_555
C16_2 N1_2 1_555 1_555
C17_2 C13_2 1_555 1_555
C18_2 C6_2 1_555 1_555
H9_2 C18_2 1_555 1_555
C19_2 C8_2 1_555 1_555
H10_2 C19_2 1_555 1_555
C20_2 C17_2 1_555 1_555
H11_2 C20_2 1_555 1_555
C21_2 C18_2 1_555 1_555
C22_2 C3_2 1_555 1_555
C23_2 C12_2 1_555 1_555
C24_2 C15_2 1_555 1_555
C25_2 H12_2 1_555 1_555
C26_2 C23_2 1_555 1_555
C27_2 C17_2 1_555 1_555
C28_2 C22_2 1_555 1_555
H13_2 C28_2 1_555 1_555
C29_2 C9_2 1_555 1_555
H14_2 C29_2 1_555 1_555
C30_2 C22_2 1_555 1_555
C31_2 C16_2 1_555 1_555
C32_2 C3_2 1_555 1_555
C33_2 N1_2 1_555 1_555
C34_2 C6_2 1_555 1_555
C35_2 C29_2 1_555 1_555
C36_2 C4_2 1_555 1_555
H15_2 C36_2 1_555 1_555
C38_2 H17_2 1_555 1_555
C39_2 H18_2 1_555 1_555
C40_2 C45_2 1_555 1_555
C41_2 H19_2 1_555 1_555
C42_2 C46_2 1_555 1_555
C43_2 C53_2 1_555 1_555
C44_2 C48_2 1_555 1_555
C45_2 O18_2 1_555 1_555
C46_2 H20_2 1_555 1_555
C47_2 C67_2 1_555 1_555
C48_2 H21_2 1_555 1_555
C49_2 C52_2 1_555 1_555
C50_2 N2_2 1_555 1_555
C52_2 C55_2 1_555 1_555
C53_2 C38_2 1_555 1_555
C55_2 C42_2 1_555 1_555
H22_2 C55_2 1_555 1_555
C57_2 C39_2 1_555 1_555
H24_2 C57_2 1_555 1_555
C58_2 N2_2 1_555 1_555
C59_2 C44_2 1_555 1_555
C60_2 C40_2 1_555 1_555
H25_2 C60_2 1_555 1_555
C61_2 C40_2 1_555 1_555
H26_2 C61_2 1_555 1_555
C62_2 C59_2 1_555 1_555
H27_2 C62_2 1_555 1_555
C63_2 C64_2 1_555 1_555
C64_2 C46_2 1_555 1_555
C65_2 C48_2 1_555 1_555
C66_2 C65_2 1_555 1_555
C67_2 C41_2 1_555 1_555
H28_2 C67_2 1_555 1_555
C69_2 C50_2 1_555 1_555
C70_2 C47_2 1_555 1_555
H29_2 C70_2 1_555 1_555
C71_2 C52_2 1_555 1_555
H30_2 C71_2 1_555 1_555
C72_2 C58_2 1_555 1_555
Cu16_4 O9_2 1_555 1_555
Cu18_4 O11_2 1_555 1_555
Cu19 O17_2 1_555 1_555
Cu21 O13_2 1_555 1_555
O71_2 Cu15 1_555 1_555
O72_2 Cu15 1_555 1_555
O74_2 Cu17 1_555 1_555
O75_2 Cu17 1_555 1_555
O77_2 Cu6_4 1_555 1_555
O81_2 Cu5_4 1_555 1_555
O23_2 C45_2 1_555 1_555
C1_2 C33_2 1_555 1_555
C8_2 C16_2 1_555 1_555
C9_2 C32_2 1_555 1_555
C15_2 C32_2 1_555 1_555
C19_2 C34_2 1_555 1_555
C20_2 C21_2 1_555 1_555
C23_2 C36_2 1_555 1_555
C24_2 C28_2 1_555 1_555
C25_2 C31_2 1_555 1_555
C25_2 C34_2 1_555 1_555
C31_2 C35_2 1_555 1_555
C33_2 C35_2 1_555 1_555
C38_2 C68_2 1_555 1_555
C39_2 C50_2 1_555 1_555
C41_2 C58_2 1_555 1_555
C44_2 C60_2 1_555 1_555
C47_2 C68_2 1_555 1_555
C57_2 C59_2 1_555 1_555
C61_2 C65_2 1_555 1_555
C62_2 C69_2 1_555 1_555
C64_2 C71_2 1_555 1_555
C69_2 C72_2 1_555 1_555
C70_2 C72_2 1_555 1_555
O30_4 H61_2 1_555 1_555
O29_4 H65_2 1_555 1_555
O35_3 H67_3 1_555 1_555
O30_3 H61_3 1_555 1_555
O29_3 H65_3 1_555 1_555
O34_4 H63_3 1_555 1_555
O34_4 H64_3 1_555 1_555
O35_4 H68_3 1_555 1_555
O30_4 H62_3 1_555 1_555
O29_4 H66_3 1_555 1_555
O36_4 H79_3 1_555 1_555
O36_4 H80_3 1_555 1_555
O28_4 H83_3 1_555 1_555
O28_4 H84_3 1_555 1_555
O30 H62_4 1_555 1_555
O34 H63_4 1_555 1_555
O34 H64_4 1_555 1_555
O35 H68_4 1_555 1_555
O36 H79_4 1_555 1_555
O36 H80_4 1_555 1_555
O29 H66_4 1_555 1_555
O28 H84_4 1_555 1_555
O30_2 H61_4 1_555 1_555
O35_2 H67_4 1_555 1_555
O29_2 H65_4 1_555 1_555
O25_3 Cu8_2 1_555 1_555
O33_3 Cu7_2 1_555 1_555
O61_2 Cu7_2 1_555 1_555
O64_2 Cu8_2 1_555 1_555
O79_2 Cu8_2 1_555 1_555
O80_2 Cu7_2 1_555 1_555
O25_3 H70 1_555 1_555
O33_3 H71 1_555 1_555
O33_3 H72 1_555 1_555
O31_3 Cu1_2 1_555 1_555
O32_3 Cu2_2 1_555 1_555
O63_2 Cu2_2 1_555 1_555
O76_2 Cu1_2 1_555 1_555
O83_2 Cu1_2 1_555 1_555
O86_2 Cu2_2 1_555 1_555
O31_3 H77 1_555 1_555
O31_3 H78 1_555 1_555
O26_3 Cu16_3 1_555 1_555
O27_3 Cu18_3 1_555 1_555
O70_2 Cu18_3 1_555 1_555
O73_2 Cu16_3 1_555 1_555
O27_3 H74 1_555 1_555
O26_3 H81 1_555 1_555
O26_3 H82 1_555 1_555
Cu7_3 O15_3 1_555 1_555
Cu8_3 O14_3 1_555 1_555
O14_3 C49_3 1_555 1_555
O15_3 C49_3 1_555 1_555
O21_2 C63_3 1_555 1_555
O24_2 C63_3 1_555 1_555
O25_4 Cu8_3 1_555 1_555
O33_4 Cu7_3 1_555 1_555
C42_3 C46_3 1_555 1_555
C46_3 H20_3 1_555 1_555
C49_3 C52_3 1_555 1_555
C52_3 C55_3 1_555 1_555
C55_3 C42_3 1_555 1_555
H22_3 C55_3 1_555 1_555
C63_3 C64_3 1_555 1_555
C64_3 C46_3 1_555 1_555
C71_3 C52_3 1_555 1_555
H30_3 C71_3 1_555 1_555
O79_2 C121_3 1_555 1_555
O80_2 C121_3 1_555 1_555
O57_2 C135_3 1_555 1_555
O60_2 C135_3 1_555 1_555
C114_3 C118_3 1_555 1_555
C118_3 H50_3 1_555 1_555
C121_3 C124_3 1_555 1_555
C124_3 C127_3 1_555 1_555
C127_3 C114_3 1_555 1_555
H52_3 C127_3 1_555 1_555
C135_3 C136_3 1_555 1_555
C136_3 C118_3 1_555 1_555
C143_3 C124_3 1_555 1_555
H60_3 C143_3 1_555 1_555
Cu31_3 O21_2 1_555 1_555
Cu32_3 O24_2 1_555 1_555
O62_2 Cu7_3 1_555 1_555
O65_2 Cu8_3 1_555 1_555
C64_3 C71_3 1_555 1_555
O57_2 Cu31_3 1_555 1_555
O60_2 Cu32_3 1_555 1_555
C136_3 C143_3 1_555 1_555
O25_4 H69 1_555 1_555
Cu1_3 O12_3 1_555 1_555
Cu2_3 O3_3 1_555 1_555
Cu9_5 O16_3 1_555 1_555
Cu10_5 O20_3 1_555 1_555
Cu11_3 O22_3 1_555 1_555
Cu12_3 O19_3 1_555 1_555
O3_3 C14_3 1_555 1_555
O71_2 C27_3 1_555 1_555
O74_2 C27_3 1_555 1_555
O12_3 C14_3 1_555 1_555
O77_2 C43_3 1_555 1_555
O16_3 C51_3 1_555 1_555
O81_2 C43_3 1_555 1_555
O18_3 Cu1_3 1_555 1_555
O19_3 C66_3 1_555 1_555
O20_3 C51_3 1_555 1_555
O22_3 C66_3 1_555 1_555
O23_3 Cu2_3 1_555 1_555
O31_4 Cu1_3 1_555 1_555
O32_4 Cu2_3 1_555 1_555
O34_5 Cu10_5 1_555 1_555
O35_5 Cu9_5 1_555 1_555
C6_3 C13_3 1_555 1_555
C13_3 H7_3 1_555 1_555
C14_3 C21_3 1_555 1_555
C17_3 C13_3 1_555 1_555
C18_3 C6_3 1_555 1_555
H9_3 C18_3 1_555 1_555
H10_3 C19_3 1_555 1_555
C20_3 C17_3 1_555 1_555
H11_3 C20_3 1_555 1_555
C21_3 C18_3 1_555 1_555
C27_3 C17_3 1_555 1_555
C34_3 C6_3 1_555 1_555
C37_3 H16_3 1_555 1_555
C38_3 H17_3 1_555 1_555
C40_3 C45_3 1_555 1_555
C41_3 H19_3 1_555 1_555
C43_3 C53_3 1_555 1_555
C44_3 C48_3 1_555 1_555
C45_3 O18_3 1_555 1_555
C47_3 C67_3 1_555 1_555
C48_3 H21_3 1_555 1_555
C50_3 N2_3 1_555 1_555
C51_3 C54_3 1_555 1_555
C53_3 C38_3 1_555 1_555
C54_3 C37_3 1_555 1_555
C56_3 C53_3 1_555 1_555
H23_3 C56_3 1_555 1_555
C57_3 C39_3 1_555 1_555
H24_3 C57_3 1_555 1_555
C58_3 N2_3 1_555 1_555
C59_3 C44_3 1_555 1_555
C60_3 C40_3 1_555 1_555
H25_3 C60_3 1_555 1_555
C61_3 C40_3 1_555 1_555
H26_3 C61_3 1_555 1_555
C62_3 C59_3 1_555 1_555
H27_3 C62_3 1_555 1_555
C65_3 C48_3 1_555 1_555
C66_3 C65_3 1_555 1_555
C67_3 C41_3 1_555 1_555
H28_3 C67_3 1_555 1_555
C68_3 C37_3 1_555 1_555
C69_3 C50_3 1_555 1_555
C70_3 C47_3 1_555 1_555
H29_3 C70_3 1_555 1_555
C72_3 C58_3 1_555 1_555
O63_2 C86_3 1_555 1_555
O72_2 C99_3 1_555 1_555
O75_2 C99_3 1_555 1_555
O76_2 C86_3 1_555 1_555
O78_2 C115_3 1_555 1_555
O52_3 Cu9_5 1_555 1_555
O82_2 C115_3 1_555 1_555
O83_2 C117_3 1_555 1_555
O55_3 Cu12_3 1_555 1_555
O56_3 Cu10_5 1_555 1_555
O58_3 Cu11_3 1_555 1_555
O86_2 C117_3 1_555 1_555
C78_3 C85_3 1_555 1_555
C85_3 H37_3 1_555 1_555
C86_3 C93_3 1_555 1_555
C89_3 C85_3 1_555 1_555
C90_3 C78_3 1_555 1_555
H39_3 C90_3 1_555 1_555
H40_3 C91_3 1_555 1_555
C92_3 C89_3 1_555 1_555
H41_3 C92_3 1_555 1_555
C93_3 C90_3 1_555 1_555
C99_3 C89_3 1_555 1_555
C106_3 C78_3 1_555 1_555
C109_3 H46_3 1_555 1_555
C110_3 H47_3 1_555 1_555
C112_3 C117_3 1_555 1_555
C113_3 H49_3 1_555 1_555
C115_3 C125_3 1_555 1_555
C116_3 C120_3 1_555 1_555
C119_3 C139_3 1_555 1_555
C120_3 H51_3 1_555 1_555
C122_3 N4_3 1_555 1_555
C123_3 O52_3 1_555 1_555
C125_3 C110_3 1_555 1_555
C126_3 C109_3 1_555 1_555
C128_3 C125_3 1_555 1_555
H53_3 C128_3 1_555 1_555
C129_3 C111_3 1_555 1_555
H54_3 C129_3 1_555 1_555
C130_3 N4_3 1_555 1_555
C131_3 C116_3 1_555 1_555
C132_3 C112_3 1_555 1_555
H55_3 C132_3 1_555 1_555
C133_3 C112_3 1_555 1_555
H56_3 C133_3 1_555 1_555
C134_3 C131_3 1_555 1_555
H57_3 C134_3 1_555 1_555
C137_3 C120_3 1_555 1_555
C138_3 O55_3 1_555 1_555
C139_3 C113_3 1_555 1_555
H58_3 C139_3 1_555 1_555
C140_3 C109_3 1_555 1_555
C141_3 C122_3 1_555 1_555
C142_3 C119_3 1_555 1_555
H59_3 C142_3 1_555 1_555
C144_3 C130_3 1_555 1_555
O66_3 Cu10_5 1_555 1_555
O67_3 Cu10_5 1_555 1_555
O68_3 Cu9_5 1_555 1_555
O69_3 Cu9_5 1_555 1_555
O23_3 C45_3 1_555 1_555
C19_3 C34_3 1_555 1_555
C20_3 C21_3 1_555 1_555
C38_3 C68_3 1_555 1_555
C39_3 C50_3 1_555 1_555
C41_3 C58_3 1_555 1_555
C44_3 C60_3 1_555 1_555
C47_3 C68_3 1_555 1_555
C54_3 C56_3 1_555 1_555
C57_3 C59_3 1_555 1_555
C61_3 C65_3 1_555 1_555
C62_3 C69_3 1_555 1_555
C69_3 C72_3 1_555 1_555
C70_3 C72_3 1_555 1_555
O56_3 C123_3 1_555 1_555
O58_3 C138_3 1_555 1_555
C91_3 C106_3 1_555 1_555
C92_3 C93_3 1_555 1_555
C110_3 C140_3 1_555 1_555
C111_3 C122_3 1_555 1_555
C113_3 C130_3 1_555 1_555
C116_3 C132_3 1_555 1_555
C119_3 C140_3 1_555 1_555
C123_3 C126_3 1_555 1_555
C126_3 C128_3 1_555 1_555
C129_3 C131_3 1_555 1_555
C133_3 C137_3 1_555 1_555
C134_3 C141_3 1_555 1_555
C137_3 C138_3 1_555 1_555
C141_3 C144_3 1_555 1_555
C142_3 C144_3 1_555 1_555
Cu16_4 O10_3 1_555 1_555
Cu18_4 O8_3 1_555 1_555
Cu19 O2_3 1_555 1_555
Cu21 O5_3 1_555 1_555
O1_2 C7_3 1_555 1_555
O2_3 C10_3 1_555 1_555
O4_2 C7_3 1_555 1_555
O5_3 C10_3 1_555 1_555
O66_3 C30_3 1_555 1_555
O68_3 C30_3 1_555 1_555
O8_3 C26_3 1_555 1_555
O10_3 C26_3 1_555 1_555
O26_4 Cu16_4 1_555 1_555
O27_4 Cu18_4 1_555 1_555
O29_5 Cu21 1_555 1_555
N1_3 C5_3 1_555 1_555
C1_3 H1_3 1_555 1_555
C2_3 C1_3 1_555 1_555
H2_3 C2_3 1_555 1_555
C3_3 H3_3 1_555 1_555
C4_3 C10_3 1_555 1_555
C5_3 C11_3 1_555 1_555
C7_3 C24_3 1_555 1_555
C8_3 H4_3 1_555 1_555
C9_3 C2_3 1_555 1_555
C11_3 C4_3 1_555 1_555
H5_3 C11_3 1_555 1_555
C12_3 C5_3 1_555 1_555
H6_3 C12_3 1_555 1_555
C15_3 H8_3 1_555 1_555
C16_3 N1_3 1_555 1_555
C22_3 C3_3 1_555 1_555
C23_3 C12_3 1_555 1_555
C24_3 C15_3 1_555 1_555
C25_3 H12_3 1_555 1_555
C26_3 C23_3 1_555 1_555
C28_3 C22_3 1_555 1_555
H13_3 C28_3 1_555 1_555
C29_3 C9_3 1_555 1_555
H14_3 C29_3 1_555 1_555
C30_3 C22_3 1_555 1_555
C31_3 C16_3 1_555 1_555
C32_3 C3_3 1_555 1_555
C33_3 N1_3 1_555 1_555
C35_3 C29_3 1_555 1_555
C36_3 C4_3 1_555 1_555
H15_3 C36_3 1_555 1_555
O37_2 C79_3 1_555 1_555
O38_3 Cu19 1_555 1_555
O40_2 C79_3 1_555 1_555
O41_3 Cu21 1_555 1_555
O67_3 C102_3 1_555 1_555
O69_3 C102_3 1_555 1_555
O70_2 C98_3 1_555 1_555
O73_2 C98_3 1_555 1_555
N3_3 C77_3 1_555 1_555
C73_3 H31_3 1_555 1_555
C74_3 C73_3 1_555 1_555
H32_3 C74_3 1_555 1_555
C75_3 H33_3 1_555 1_555
C76_3 C82_3 1_555 1_555
C77_3 C83_3 1_555 1_555
C79_3 C96_3 1_555 1_555
C80_3 H34_3 1_555 1_555
C81_3 C74_3 1_555 1_555
C82_3 O38_3 1_555 1_555
C83_3 C76_3 1_555 1_555
H35_3 C83_3 1_555 1_555
C84_3 C77_3 1_555 1_555
H36_3 C84_3 1_555 1_555
C87_3 H38_3 1_555 1_555
C88_3 N3_3 1_555 1_555
C94_3 C75_3 1_555 1_555
C95_3 C84_3 1_555 1_555
C96_3 C87_3 1_555 1_555
C97_3 H42_3 1_555 1_555
C98_3 C95_3 1_555 1_555
C100_3 C94_3 1_555 1_555
H43_3 C100_3 1_555 1_555
C101_3 C81_3 1_555 1_555
H44_3 C101_3 1_555 1_555
C102_3 C94_3 1_555 1_555
C103_3 C88_3 1_555 1_555
C104_3 C75_3 1_555 1_555
C105_3 N3_3 1_555 1_555
C107_3 C101_3 1_555 1_555
C108_3 C76_3 1_555 1_555
H45_3 C108_3 1_555 1_555
Cu25_2 O37_2 1_555 1_555
Cu25_3 O1_2 1_555 1_555
Cu28_2 O40_2 1_555 1_555
Cu28_3 O4_2 1_555 1_555
C1_3 C33_3 1_555 1_555
C8_3 C16_3 1_555 1_555
C9_3 C32_3 1_555 1_555
C15_3 C32_3 1_555 1_555
C23_3 C36_3 1_555 1_555
C24_3 C28_3 1_555 1_555
C25_3 C31_3 1_555 1_555
C31_3 C35_3 1_555 1_555
C33_3 C35_3 1_555 1_555
O41_3 C82_3 1_555 1_555
C73_3 C105_3 1_555 1_555
C80_3 C88_3 1_555 1_555
C81_3 C104_3 1_555 1_555
C87_3 C104_3 1_555 1_555
C95_3 C108_3 1_555 1_555
C96_3 C100_3 1_555 1_555
C97_3 C103_3 1_555 1_555
C103_3 C107_3 1_555 1_555
C105_3 C107_3 1_555 1_555
O27_4 H73 1_555 1_555
O28_5 H84_5 1_555 1_555
Cu9_6 O16_4 1_555 1_555
Cu10_6 O20_4 1_555 1_555
O16_4 C51_4 1_555 1_555
O20_4 C51_4 1_555 1_555
O34_6 Cu10_6 1_555 1_555
O35_6 Cu9_6 1_555 1_555
C37_4 H16_4 1_555 1_555
C51_4 C54_4 1_555 1_555
C54_4 C37_4 1_555 1_555
H23_4 C56_4 1_555 1_555
O52_4 Cu9_6 1_555 1_555
O56_4 Cu10_6 1_555 1_555
C109_4 H46_4 1_555 1_555
C123_4 O52_4 1_555 1_555
C126_4 C109_4 1_555 1_555
H53_4 C128_4 1_555 1_555
O66_4 Cu10_6 1_555 1_555
O67_4 Cu10_6 1_555 1_555
O68_4 Cu9_6 1_555 1_555
O69_4 Cu9_6 1_555 1_555
C54_4 C56_4 1_555 1_555
O56_4 C123_4 1_555 1_555
C123_4 C126_4 1_555 1_555
C126_4 C128_4 1_555 1_555
Cu13_2 O12_4 1_555 1_555
Cu14_2 O3_4 1_555 1_555
Cu16 O10_4 1_555 1_555
Cu18 O8_4 1_555 1_555
Cu20 O2_4 1_555 1_555
Cu22 O5_4 1_555 1_555
Cu31_3 O22_4 1_555 1_555
Cu32_3 O19_4 1_555 1_555
O61_2 C7_4 1_555 1_555
O2_4 C10_4 1_555 1_555
O3_4 C14_4 1_555 1_555
O64_2 C7_4 1_555 1_555
O5_4 C10_4 1_555 1_555
O66_4 C30_4 1_555 1_555
O68_4 C30_4 1_555 1_555
O8_4 C26_4 1_555 1_555
O71 C27_4 1_555 1_555
O10_4 C26_4 1_555 1_555
O74 C27_4 1_555 1_555
O12_4 C14_4 1_555 1_555
O77 C43_4 1_555 1_555
O81 C43_4 1_555 1_555
O18_4 Cu13_2 1_555 1_555
O19_4 C66_4 1_555 1_555
O22_4 C66_4 1_555 1_555
O23_4 Cu14_2 1_555 1_555
O26_5 Cu16 1_555 1_555
O27_5 Cu18 1_555 1_555
O28_6 Cu31_3 1_555 1_555
O29_6 Cu22 1_555 1_555
O31_5 Cu13_2 1_555 1_555
O32_5 Cu14_2 1_555 1_555
O36_6 Cu20 1_555 1_555
N1_4 C5_4 1_555 1_555
C1_4 H1_4 1_555 1_555
C2_4 C1_4 1_555 1_555
H2_4 C2_4 1_555 1_555
C3_4 H3_4 1_555 1_555
C4_4 C10_4 1_555 1_555
C5_4 C11_4 1_555 1_555
C6_4 C13_4 1_555 1_555
C7_4 C24_4 1_555 1_555
C8_4 H4_4 1_555 1_555
C9_4 C2_4 1_555 1_555
C11_4 C4_4 1_555 1_555
H5_4 C11_4 1_555 1_555
C12_4 C5_4 1_555 1_555
H6_4 C12_4 1_555 1_555
C13_4 H7_4 1_555 1_555
C14_4 C21_4 1_555 1_555
C15_4 H8_4 1_555 1_555
C16_4 N1_4 1_555 1_555
C17_4 C13_4 1_555 1_555
C18_4 C6_4 1_555 1_555
H9_4 C18_4 1_555 1_555
C19_4 C8_4 1_555 1_555
H10_4 C19_4 1_555 1_555
C20_4 C17_4 1_555 1_555
H11_4 C20_4 1_555 1_555
C21_4 C18_4 1_555 1_555
C22_4 C3_4 1_555 1_555
C23_4 C12_4 1_555 1_555
C24_4 C15_4 1_555 1_555
C25_4 H12_4 1_555 1_555
C26_4 C23_4 1_555 1_555
C27_4 C17_4 1_555 1_555
C28_4 C22_4 1_555 1_555
H13_4 C28_4 1_555 1_555
C29_4 C9_4 1_555 1_555
H14_4 C29_4 1_555 1_555
C30_4 C22_4 1_555 1_555
C31_4 C16_4 1_555 1_555
C32_4 C3_4 1_555 1_555
C33_4 N1_4 1_555 1_555
C34_4 C6_4 1_555 1_555
C35_4 C29_4 1_555 1_555
C36_4 C4_4 1_555 1_555
H15_4 C36_4 1_555 1_555
C38_4 H17_4 1_555 1_555
C40_4 C45_4 1_555 1_555
C41_4 H19_4 1_555 1_555
C43_4 C53_4 1_555 1_555
C44_4 C48_4 1_555 1_555
C45_4 O18_4 1_555 1_555
C47_4 C67_4 1_555 1_555
C48_4 H21_4 1_555 1_555
C50_4 N2_4 1_555 1_555
C53_4 C38_4 1_555 1_555
C57_4 C39_4 1_555 1_555
H24_4 C57_4 1_555 1_555
C58_4 N2_4 1_555 1_555
C59_4 C44_4 1_555 1_555
C60_4 C40_4 1_555 1_555
H25_4 C60_4 1_555 1_555
C61_4 C40_4 1_555 1_555
H26_4 C61_4 1_555 1_555
C62_4 C59_4 1_555 1_555
H27_4 C62_4 1_555 1_555
C65_4 C48_4 1_555 1_555
C66_4 C65_4 1_555 1_555
C67_4 C41_4 1_555 1_555
H28_4 C67_4 1_555 1_555
C69_4 C50_4 1_555 1_555
C70_4 C47_4 1_555 1_555
H29_4 C70_4 1_555 1_555
C72_4 C58_4 1_555 1_555
O62_2 C79_4 1_555 1_555
O38_4 Cu20 1_555 1_555
O39_2 C86_4 1_555 1_555
O65_2 C79_4 1_555 1_555
O41_4 Cu22 1_555 1_555
O67_4 C102_4 1_555 1_555
O69_4 C102_4 1_555 1_555
O44_2 C98_4 1_555 1_555
O72 C99_4 1_555 1_555
O46_2 C98_4 1_555 1_555
O75 C99_4 1_555 1_555
O48_2 C86_4 1_555 1_555
O78 C115_4 1_555 1_555
O82 C115_4 1_555 1_555
O54_2 C117_4 1_555 1_555
O55_4 Cu32_3 1_555 1_555
O58_4 Cu31_3 1_555 1_555
O59_2 C117_4 1_555 1_555
N3_4 C77_4 1_555 1_555
C73_4 H31_4 1_555 1_555
C74_4 C73_4 1_555 1_555
H32_4 C74_4 1_555 1_555
C75_4 H33_4 1_555 1_555
C76_4 C82_4 1_555 1_555
C77_4 C83_4 1_555 1_555
C78_4 C85_4 1_555 1_555
C79_4 C96_4 1_555 1_555
C80_4 H34_4 1_555 1_555
C81_4 C74_4 1_555 1_555
C82_4 O38_4 1_555 1_555
C83_4 C76_4 1_555 1_555
H35_4 C83_4 1_555 1_555
C84_4 C77_4 1_555 1_555
H36_4 C84_4 1_555 1_555
C85_4 H37_4 1_555 1_555
C86_4 C93_4 1_555 1_555
C87_4 H38_4 1_555 1_555
C88_4 N3_4 1_555 1_555
C89_4 C85_4 1_555 1_555
C90_4 C78_4 1_555 1_555
H39_4 C90_4 1_555 1_555
C91_4 C80_4 1_555 1_555
H40_4 C91_4 1_555 1_555
C92_4 C89_4 1_555 1_555
H41_4 C92_4 1_555 1_555
C93_4 C90_4 1_555 1_555
C94_4 C75_4 1_555 1_555
C95_4 C84_4 1_555 1_555
C96_4 C87_4 1_555 1_555
C97_4 H42_4 1_555 1_555
C98_4 C95_4 1_555 1_555
C99_4 C89_4 1_555 1_555
C100_4 C94_4 1_555 1_555
H43_4 C100_4 1_555 1_555
C101_4 C81_4 1_555 1_555
H44_4 C101_4 1_555 1_555
C102_4 C94_4 1_555 1_555
C103_4 C88_4 1_555 1_555
C104_4 C75_4 1_555 1_555
C105_4 N3_4 1_555 1_555
C106_4 C78_4 1_555 1_555
C107_4 C101_4 1_555 1_555
C108_4 C76_4 1_555 1_555
H45_4 C108_4 1_555 1_555
C110_4 H47_4 1_555 1_555
C112_4 C117_4 1_555 1_555
C113_4 H49_4 1_555 1_555
C115_4 C125_4 1_555 1_555
C116_4 C120_4 1_555 1_555
C119_4 C139_4 1_555 1_555
C120_4 H51_4 1_555 1_555
C122_4 N4_4 1_555 1_555
C125_4 C110_4 1_555 1_555
C129_4 C111_4 1_555 1_555
H54_4 C129_4 1_555 1_555
C130_4 N4_4 1_555 1_555
C131_4 C116_4 1_555 1_555
C132_4 C112_4 1_555 1_555
H55_4 C132_4 1_555 1_555
C133_4 C112_4 1_555 1_555
H56_4 C133_4 1_555 1_555
C134_4 C131_4 1_555 1_555
H57_4 C134_4 1_555 1_555
C137_4 C120_4 1_555 1_555
C138_4 O55_4 1_555 1_555
C139_4 C113_4 1_555 1_555
H58_4 C139_4 1_555 1_555
C141_4 C122_4 1_555 1_555
C142_4 C119_4 1_555 1_555
H59_4 C142_4 1_555 1_555
C144_4 C130_4 1_555 1_555
Cu13_3 O48_2 1_555 1_555
Cu14_3 O39_2 1_555 1_555
Cu16_2 O46_2 1_555 1_555
Cu18_2 O44_2 1_555 1_555
O23_4 C45_4 1_555 1_555
C1_4 C33_4 1_555 1_555
C8_4 C16_4 1_555 1_555
C9_4 C32_4 1_555 1_555
C15_4 C32_4 1_555 1_555
C19_4 C34_4 1_555 1_555
C20_4 C21_4 1_555 1_555
C23_4 C36_4 1_555 1_555
C24_4 C28_4 1_555 1_555
C25_4 C31_4 1_555 1_555
C25_4 C34_4 1_555 1_555
C31_4 C35_4 1_555 1_555
C33_4 C35_4 1_555 1_555
C38_4 C68_4 1_555 1_555
C39_4 C50_4 1_555 1_555
C41_4 C58_4 1_555 1_555
C44_4 C60_4 1_555 1_555
C47_4 C68_4 1_555 1_555
C57_4 C59_4 1_555 1_555
C61_4 C65_4 1_555 1_555
C62_4 C69_4 1_555 1_555
C69_4 C72_4 1_555 1_555
C70_4 C72_4 1_555 1_555
O41_4 C82_4 1_555 1_555
O54_2 Cu13_3 1_555 1_555
O58_4 C138_4 1_555 1_555
O59_2 Cu14_3 1_555 1_555
C73_4 C105_4 1_555 1_555
C80_4 C88_4 1_555 1_555
C81_4 C104_4 1_555 1_555
C87_4 C104_4 1_555 1_555
C91_4 C106_4 1_555 1_555
C92_4 C93_4 1_555 1_555
C95_4 C108_4 1_555 1_555
C96_4 C100_4 1_555 1_555
C97_4 C103_4 1_555 1_555
C97_4 C106_4 1_555 1_555
C103_4 C107_4 1_555 1_555
C105_4 C107_4 1_555 1_555
C110_4 C140_4 1_555 1_555
C111_4 C122_4 1_555 1_555
C113_4 C130_4 1_555 1_555
C116_4 C132_4 1_555 1_555
C119_4 C140_4 1_555 1_555
C129_4 C131_4 1_555 1_555
C133_4 C137_4 1_555 1_555
C134_4 C141_4 1_555 1_555
C137_4 C138_4 1_555 1_555
C141_4 C144_4 1_555 1_555
C142_4 C144_4 1_555 1_555
O27_5 H73_2 1_555 1_555
O32_5 H75_4 1_555 1_555
Cu25_2 O15_4 1_555 1_555
Cu28_2 O14_4 1_555 1_555
O14_4 C49_4 1_555 1_555
O15_4 C49_4 1_555 1_555
O84_2 C63_4 1_555 1_555
O87_2 C63_4 1_555 1_555
O25_5 Cu28_2 1_555 1_555
O33_5 Cu25_2 1_555 1_555
C42_4 C46_4 1_555 1_555
C46_4 H20_4 1_555 1_555
C49_4 C52_4 1_555 1_555
C52_4 C55_4 1_555 1_555
C55_4 C42_4 1_555 1_555
H22_4 C55_4 1_555 1_555
C63_4 C64_4 1_555 1_555
C64_4 C46_4 1_555 1_555
C71_4 C52_4 1_555 1_555
H30_4 C71_4 1_555 1_555
O50_2 C121_4 1_555 1_555
O51_2 C121_4 1_555 1_555
O85_2 C135_4 1_555 1_555
O88_2 C135_4 1_555 1_555
C114_4 C118_4 1_555 1_555
C118_4 H50_4 1_555 1_555
C121_4 C124_4 1_555 1_555
C124_4 C127_4 1_555 1_555
C127_4 C114_4 1_555 1_555
H52_4 C127_4 1_555 1_555
C135_4 C136_4 1_555 1_555
C136_4 C118_4 1_555 1_555
C143_4 C124_4 1_555 1_555
H60_4 C143_4 1_555 1_555
Cu25_3 O51_2 1_555 1_555
Cu28_3 O50_2 1_555 1_555
C64_4 C71_4 1_555 1_555
C136_4 C143_4 1_555 1_555
O25_5 H69_2 1_555 1_555
O26_6 Cu16_2 1_555 1_555
O27_6 Cu18_2 1_555 1_555
O31_6 Cu13_3 1_555 1_555
O32_6 Cu14_3 1_555 1_555
O27_6 H74_2 1_555 1_555
O32_6 H76_4 1_555 1_555
O31_6 H77_2 1_555 1_555
O31_6 H78_2 1_555 1_555
O26_6 H81_2 1_555 1_555
O26_6 H82_2 1_555 1_555
O25_6 Cu28_3 1_555 1_555
O33_6 Cu25_3 1_555 1_555
O25_6 H70_2 1_555 1_555
O33_6 H71_2 1_555 1_555
O33_6 H72_2 1_555 1_555
O27_5 H74_3 1_555 1_555
O32_5 H76_5 1_555 1_555
O31_5 H77_3 1_555 1_555
O31_5 H78_3 1_555 1_555
O26_5 H81_3 1_555 1_555
O26_5 H82_3 1_555 1_555
O25_5 H70_3 1_555 1_555
O33_5 H71_3 1_555 1_555
O33_5 H72_3 1_555 1_555
O27_6 H73_3 1_555 1_555
O32_6 H75_5 1_555 1_555
O25_6 H69_3 1_555 1_555
O25_3 H69_4 1_555 1_555
O27_3 H73_4 1_555 1_555
O28_5 H84_6 1_555 1_555
O25_4 H70_4 1_555 1_555
O33_4 H71_4 1_555 1_555
O33_4 H72_4 1_555 1_555
O31_4 H77_4 1_555 1_555
O31_4 H78_4 1_555 1_555
O27_4 H74_4 1_555 1_555
O26_4 H81_4 1_555 1_555
O26_4 H82_4 1_555 1_555

#END
