
###############################################################################
#
# This file contains modified crystal structure data generated from the
# MOF subset of the Cambridge Structural Database (CSD) v543 
# hosted by the Cambridge Crystallographic Data Centre (CCDC).
#
# This work is licensed under the Creative Commons
# Attribution-NonCommercial-ShareAlike 4.0 International License.
# To view a copy of this license, visit
# http://creativecommons.org/licenses/by-nc-sa/4.0/
# or send a letter to
# Creative Commons, PO Box 1866, Mountain View, CA 94042, USA.
#
# CIF created using the CSD Python API on 29 September 2022
# The structure has been converted into the P1 space group
# The structure has a 3D framework
# The original CSD entry DORRAG is in the orthorhombic crystal system
# The framework has been calculated to contain at least 10.0% void space
# The void calculation uses a probe of radius 1.32A, grid spacing 0.4
#
###############################################################################

data_DORRAG
_chemical_formula_moiety         '(C1728 H1152 N288 O482 Zn90)n'
_symmetry_cell_setting           triclinic
_symmetry_space_group_name_H-M   'P 1'
_symmetry_Int_Tables_number      1
_space_group_name_Hall           'P 1'
loop_
_symmetry_equiv_pos_site_id
_symmetry_equiv_pos_as_xyz
1 x,y,z
_cell_length_a                   39.603
_cell_length_b                   43.585
_cell_length_c                   38.789
_cell_angle_alpha                90
_cell_angle_beta                 90
_cell_angle_gamma                90
_cell_volume                     66953.6
loop_
_atom_site_label
_atom_site_type_symbol
_atom_site_fract_x
_atom_site_fract_y
_atom_site_fract_z
Zn1 Zn 0.15132(3) 0.38078(3) 0.46868(3)
Zn2 Zn 0.10024(2) 0.36869(3) 0.52224(3)
C1 C 0.0952(2) 0.3360(3) 0.4574(3)
C2 C 0.0788(3) 0.3131(3) 0.4341(3)
C3 C 0.0520(3) 0.2958(4) 0.4453(4)
H1 H 0.0430 0.3005 0.4668
C4 C 0.0880(3) 0.3093(5) 0.4009(4)
H2 H 0.1038 0.3226 0.3914
C5 C 0.0372(4) 0.2719(5) 0.4272(6)
H3 H 0.0190 0.2611 0.4361
C6 C 0.0751(4) 0.2868(6) 0.3807(6)
H4 H 0.0814 0.2845 0.3577
C7 C 0.0495(4) 0.2655(6) 0.3979(8)
C8 C 0.0484(4) 0.2265(6) 0.3520(7)
C9 C 0.0338(4) 0.2229(5) 0.3209(7)
H5 H 0.0137 0.2329 0.3155
C10 C 0.0774(4) 0.2138(5) 0.3612(6)
H6 H 0.0875 0.2194 0.3819
C11 C 0.0492(3) 0.2038(4) 0.2971(5)
H7 H 0.0405 0.2016 0.2750
C12 C 0.0779(3) 0.1882(3) 0.3068(4)
C13 C 0.0929(3) 0.1920(4) 0.3404(4)
H8 H 0.1116 0.1807 0.3476
C14 C 0.0937(2) 0.1647(3) 0.2845(3)
N1 N 0.31321(17) 0.38294(19) 0.3081(2)
O1 O 0.1205(2) 0.3480(2) 0.44596(19)
O2 O 0.08202(17) 0.34045(17) 0.48519(18)
O3 O 0.0308(2) 0.2469(4) 0.3745(5)
O4 O 0.08069(18) 0.16087(18) 0.25510(19)
O5 O 0.11884(17) 0.15013(19) 0.29561(18)
O6 O 0.1330(2) 0.16237(19) 0.2034(2)
O7 O 0.17039(17) 0.15428(18) 0.24505(19)
N2 N 0.0618(2) 0.1329(3) 0.1824(3)
O8 O 0.08010(18) 0.09654(19) 0.2502(2)
O9 O 0.11876(16) 0.08544(18) 0.2896(2)
C15 C 0.1722(4) 0.2083(4) 0.1741(4)
C16 C 0.1972(5) 0.2289(4) 0.1584(4)
C17 C 0.2149(3) 0.1951(3) 0.2161(3)
H9 H 0.2212 0.1850 0.2362
C18 C 0.1840(3) 0.1901(3) 0.2032(3)
C19 C 0.2383(4) 0.2151(4) 0.2004(4)
C20 C 0.2268(5) 0.2316(5) 0.1704(4)
C21 C 0.0897(2) 0.0813(2) 0.2765(3)
C22 C 0.0736(3) 0.0449(3) 0.3234(3)
C23 C 0.0532(3) 0.0245(3) 0.3381(3)
C24 C 0.0220(3) 0.0193(3) 0.3234(3)
C25 C 0.0348(3) 0.0534(3) 0.2784(3)
C26 C 0.0128(3) 0.0333(3) 0.2934(3)
H10 H 0.2601 0.2176 0.2090
H12 H 0.0285 0.0636 0.2583
C27 C 0.0639(2) 0.1524(3) 0.1543(3)
O10 O 0.2500 0.2500 0.1550(4)
C28 C 0.0664(2) 0.0591(3) 0.2924(3)
H13 H 0.0938 0.0498 0.3344
C29 C 0.1612(3) 0.1672(3) 0.2174(3)
H14 H 0.1911 0.2404 0.1391
H15 H 0.0597 0.0141 0.3579
O11 O -0.0000 -0.0000 0.3413(3)
N3 N 0.0902(3) 0.1685(4) 0.1499(4)
H16 H 0.1502 0.2070 0.1659
N4 N 0.0402(2) 0.1535(2) 0.1288(3)
H17 H 0.0925 0.1794 0.1316
C34 C 0.0349(3) 0.1155(3) 0.1832(3)
N5 N 0.0090(2) 0.1165(3) 0.1601(3)
N6 N 0.0270(3) 0.1009(3) 0.2093(3)
H19 H 0.0393 0.1020 0.2275
C35 C 0.0131(3) 0.1357(3) 0.1331(3)
H21 H 0.1059 0.1685 0.1653
H24 H 0.0092 0.0896 0.2092
Zn3 Zn 0.09868(3) 0.13078(3) 0.21868(3)
Zn4 Zn 0.14976(2) 0.11869(3) 0.27224(3)
Zn5 Zn 0.35024(2) 0.38131(3) 0.27224(3)
C37 C 0.2005(4) 0.0155(6) 0.1479(8)
C38 C 0.1620(3) 0.0593(5) 0.1509(4)
C39 C 0.1749(4) 0.0368(6) 0.1307(6)
C41 C 0.1712(3) 0.0631(3) 0.1841(3)
C42 C 0.1548(2) 0.0860(3) 0.2074(3)
C43 C 0.1980(3) 0.0458(4) 0.1953(4)
C45 C 0.2128(4) 0.0219(5) 0.1772(6)
H26 H 0.2310 0.0111 0.1861
O13 O 0.1295(2) 0.0980(2) 0.19596(19)
H27 H 0.1462 0.0726 0.1414
H28 H 0.1686 0.0345 0.1077
O14 O 0.16798(17) 0.09045(17) 0.23519(18)
H31 H 0.2070 0.0505 0.2168
N7 N 0.18679(17) 0.11706(19) 0.3081(2)
C51 C 0.2732(5) 0.2684(5) 0.1704(4)
C53 C 0.3160(3) 0.3099(3) 0.2032(3)
C54 C 0.2851(3) 0.3049(3) 0.2161(3)
H33 H 0.2788 0.3150 0.2362
C55 C 0.2617(4) 0.2849(4) 0.2004(4)
C56 C 0.3388(3) 0.3328(3) 0.2174(3)
O17 O 0.3670(2) 0.33763(19) 0.2034(2)
O18 O 0.32961(17) 0.34572(18) 0.24505(19)
C57 C 0.3278(4) 0.2917(4) 0.1741(4)
Zn10 Zn 0.40132(3) 0.36922(3) 0.21868(3)
O21 O 0.41931(18) 0.33913(18) 0.25510(19)
H34 H 0.2399 0.2824 0.2090
C60 C 0.3028(5) 0.2711(4) 0.1584(4)
H36 H 0.3089 0.2596 0.1391
O22 O 0.41990(18) 0.40346(19) 0.2502(2)
O23 O 0.3705(2) 0.4020(2) 0.19596(19)
O24 O 0.33202(17) 0.40955(17) 0.23519(18)
N9 N 0.4382(2) 0.3671(3) 0.1824(3)
O25 O 0.38116(17) 0.34987(19) 0.29561(18)
O26 O 0.38124(16) 0.41456(18) 0.2896(2)
H39 H 0.3498 0.2930 0.1659
C65 C 0.4361(2) 0.3476(3) 0.1543(3)
N10 N 0.4098(3) 0.3315(4) 0.1499(4)
N11 N 0.4598(2) 0.3465(2) 0.1288(3)
C66 C 0.4651(3) 0.3845(3) 0.1832(3)
N12 N 0.4730(3) 0.3991(3) 0.2093(3)
C67 C 0.4869(3) 0.3643(3) 0.1331(3)
N13 N 0.4910(2) 0.3835(3) 0.1601(3)
C68 C 0.5436(3) 0.3426(3) 0.0633(3)
H41 H 0.5476 0.3253 0.0499
C69 C 0.5137(2) 0.3650(3) 0.1063(3)
H42 H 0.3941 0.3315 0.1653
C70 C 0.5323(3) 0.3903(3) 0.1036(3)
C71 C 0.5554(3) 0.3901(3) 0.0786(3)
C72 C 0.5186(3) 0.3409(3) 0.0865(3)
H43 H 0.4075 0.3206 0.1316
N14 N 0.56321(17) 0.36706(19) 0.0581(2)
Zn12 Zn 0.60024(2) 0.36869(3) 0.02224(3)
H44 H 0.5295 0.4070 0.1182
H45 H 0.5052 0.3234 0.0885
H46 H 0.5673 0.4082 0.0753
H47 H 0.4607 0.3980 0.2275
H48 H 0.4908 0.4104 0.2092
O11_2 O -0.0000 1.0000 0.3413(3)
O12 O 0.2192(2) 0.9969(4) 0.1245(5)
C40 C 0.2016(4) 0.9765(6) 0.1020(7)
C44 C 0.2162(4) 0.9729(5) 0.0709(7)
H25 H 0.2363 0.9829 0.0655
C46 C 0.1726(4) 0.9638(5) 0.1112(6)
C47 C 0.2008(3) 0.9538(4) 0.0471(5)
H29 H 0.1625 0.9694 0.1319
C48 C 0.1571(3) 0.9420(4) 0.0904(4)
H30 H 0.2095 0.9516 0.0250
C49 C 0.1721(3) 0.9382(3) 0.0568(4)
C50 C 0.1563(2) 0.9147(3) 0.0345(3)
H32 H 0.1384 0.9307 0.0976
O15 O 0.16931(18) 0.91087(18) 0.00510(19)
O16 O 0.13116(17) 0.90013(19) 0.04561(18)
Zn7 Zn 0.10024(2) 0.86869(3) 0.02224(3)
H38 H 0.0081 0.9708 0.2833
Zn6 Zn 0.15132(3) 0.88078(3) 0.96868(3)
H11 H 0.9919 0.0292 0.2833
O11_3 O 1.0000 -0.0000 0.3413(3)
C30 C 0.9863(2) 0.1350(3) 0.1063(3)
C31 C 0.9814(3) 0.1591(3) 0.0865(3)
C32 C 0.9446(3) 0.1099(3) 0.0786(3)
H18 H 0.9327 0.0918 0.0753
C33 C 0.9564(3) 0.1574(3) 0.0633(3)
H20 H 0.9948 0.1766 0.0885
H22 H 0.9524 0.1747 0.0499
C36 C 0.9677(3) 0.1097(3) 0.1036(3)
H23 H 0.9705 0.0930 0.1182
N8 N 0.93679(17) 0.13294(19) 0.0581(2)
Zn8 Zn 0.89976(2) 0.13131(3) 0.02224(3)
O11_4 O 1.0000 1.0000 0.3413(3)
C52 C 0.9780(3) 0.9807(3) 0.3234(3)
C58 C 0.9468(3) 0.9755(3) 0.3381(3)
C59 C 0.9103(2) 0.9187(2) 0.2765(3)
O19 O 0.91990(18) 0.90346(19) 0.2502(2)
O20 O 0.88124(16) 0.91456(18) 0.2896(2)
Zn9 Zn 0.85024(2) 0.88131(3) 0.27224(3)
Zn11 Zn 0.90132(3) 0.86922(3) 0.21868(3)
H35 H 0.9403 0.9859 0.3579
C61 C 0.9872(3) 0.9667(3) 0.2934(3)
C62 C 0.9264(3) 0.9551(3) 0.3234(3)
H37 H 0.9062 0.9502 0.3344
C63 C 0.9652(3) 0.9466(3) 0.2784(3)
C64 C 0.9336(2) 0.9409(3) 0.2924(3)
H40 H 0.9715 0.9364 0.2583
C30_2 C 0.0137(2) 0.8650(3) 0.1063(3)
C31_2 C 0.0186(3) 0.8409(3) 0.0865(3)
C32_2 C 0.0554(3) 0.8901(3) 0.0786(3)
H18_2 H 0.0673 0.9082 0.0753
C33_2 C 0.0436(3) 0.8426(3) 0.0633(3)
H20_2 H 0.0052 0.8234 0.0885
H22_2 H 0.0476 0.8253 0.0499
C36_2 C 0.0323(3) 0.8903(3) 0.1036(3)
H23_2 H 0.0295 0.9070 0.1182
N8_2 N 0.06321(17) 0.86706(19) 0.0581(2)
O12_2 O 0.7808(2) 0.0031(4) 0.1245(5)
C40_2 C 0.7984(4) 0.0235(6) 0.1020(7)
C44_2 C 0.7838(4) 0.0271(5) 0.0709(7)
H25_2 H 0.7637 0.0171 0.0655
C46_2 C 0.8274(4) 0.0362(5) 0.1112(6)
C47_2 C 0.7992(3) 0.0462(4) 0.0471(5)
H29_2 H 0.8375 0.0306 0.1319
C48_2 C 0.8429(3) 0.0580(4) 0.0904(4)
H30_2 H 0.7905 0.0484 0.0250
C49_2 C 0.8279(3) 0.0618(3) 0.0568(4)
C50_2 C 0.8437(2) 0.0853(3) 0.0345(3)
H32_2 H 0.8616 0.0693 0.0976
O15_2 O 0.83069(18) 0.08913(18) 0.00510(19)
O16_2 O 0.86884(17) 0.09987(19) 0.04561(18)
Zn6_2 Zn 0.84868(3) 0.11922(3) 0.96868(3)
Zn1_2 Zn 0.84868(3) 0.61922(3) 0.46868(3)
Zn2_2 Zn 0.89976(2) 0.63131(3) 0.52224(3)
C1_2 C 0.9048(2) 0.6640(3) 0.4574(3)
C2_2 C 0.9212(3) 0.6869(3) 0.4341(3)
C3_2 C 0.9480(3) 0.7042(4) 0.4453(4)
H1_2 H 0.9570 0.6995 0.4668
C4_2 C 0.9120(3) 0.6907(5) 0.4009(4)
H2_2 H 0.8962 0.6774 0.3914
C5_2 C 0.9628(4) 0.7281(5) 0.4272(6)
H3_2 H 0.9810 0.7389 0.4361
C6_2 C 0.9249(4) 0.7132(6) 0.3807(6)
H4_2 H 0.9186 0.7155 0.3577
C7_2 C 0.9505(4) 0.7345(6) 0.3979(8)
C8_2 C 0.9516(4) 0.7735(6) 0.3520(7)
C9_2 C 0.9662(4) 0.7771(5) 0.3209(7)
H5_2 H 0.9863 0.7671 0.3155
C10_2 C 0.9226(4) 0.7862(5) 0.3612(6)
H6_2 H 0.9125 0.7806 0.3819
C11_2 C 0.9508(3) 0.7962(4) 0.2971(5)
H7_2 H 0.9595 0.7984 0.2750
C12_2 C 0.9221(3) 0.8118(3) 0.3068(4)
C13_2 C 0.9071(3) 0.8080(4) 0.3404(4)
H8_2 H 0.8884 0.8193 0.3476
C14_2 C 0.9063(2) 0.8353(3) 0.2845(3)
N1_2 N 0.68679(17) 0.61706(19) 0.3081(2)
O1_2 O 0.8795(2) 0.6520(2) 0.44596(19)
O2_2 O 0.91798(17) 0.65955(17) 0.48519(18)
O3_2 O 0.9692(2) 0.7531(4) 0.3745(5)
O4_2 O 0.91931(18) 0.83913(18) 0.25510(19)
O5_2 O 0.88116(17) 0.84987(19) 0.29561(18)
O6_2 O 0.8670(2) 0.83763(19) 0.2034(2)
O7_2 O 0.82961(17) 0.84572(18) 0.24505(19)
N2_2 N 0.9382(2) 0.8671(3) 0.1824(3)
C15_2 C 0.8278(4) 0.7917(4) 0.1741(4)
C16_2 C 0.8028(5) 0.7711(4) 0.1584(4)
C17_2 C 0.7851(3) 0.8049(3) 0.2161(3)
H9_2 H 0.7788 0.8150 0.2362
C18_2 C 0.8160(3) 0.8099(3) 0.2032(3)
C19_2 C 0.7617(4) 0.7849(4) 0.2004(4)
C20_2 C 0.7732(5) 0.7684(5) 0.1704(4)
H10_2 H 0.7399 0.7824 0.2090
C27_2 C 0.9361(2) 0.8476(3) 0.1543(3)
O10_2 O 0.7500 0.7500 0.1550(4)
C29_2 C 0.8388(3) 0.8328(3) 0.2174(3)
H14_2 H 0.8089 0.7596 0.1391
N3_2 N 0.9098(3) 0.8315(4) 0.1499(4)
H16_2 H 0.8498 0.7930 0.1659
N4_2 N 0.9598(2) 0.8465(2) 0.1288(3)
H17_2 H 0.9075 0.8206 0.1316
C34_2 C 0.9651(3) 0.8845(3) 0.1832(3)
N5_2 N 0.9910(2) 0.8835(3) 0.1601(3)
N6_2 N 0.9730(3) 0.8991(3) 0.2093(3)
H19_2 H 0.9607 0.8980 0.2275
C35_2 C 0.9869(3) 0.8643(3) 0.1331(3)
H21_2 H 0.8941 0.8315 0.1653
H24_2 H 0.9908 0.9104 0.2092
Zn5_2 Zn 0.64976(2) 0.61869(3) 0.27224(3)
C37_2 C 0.7995(4) 0.9845(6) 0.1479(8)
C38_2 C 0.8380(3) 0.9407(5) 0.1509(4)
C39_2 C 0.8251(4) 0.9632(6) 0.1307(6)
C41_2 C 0.8288(3) 0.9369(3) 0.1841(3)
C42_2 C 0.8452(2) 0.9140(3) 0.2074(3)
C43_2 C 0.8020(3) 0.9542(4) 0.1953(4)
C45_2 C 0.7872(4) 0.9781(5) 0.1772(6)
H26_2 H 0.7690 0.9889 0.1861
O13_2 O 0.8705(2) 0.9020(2) 0.19596(19)
H27_2 H 0.8538 0.9274 0.1414
H28_2 H 0.8314 0.9655 0.1077
O14_2 O 0.83202(17) 0.90955(17) 0.23519(18)
H31_2 H 0.7930 0.9495 0.2168
N7_2 N 0.81321(17) 0.88294(19) 0.3081(2)
C51_2 C 0.7268(5) 0.7316(5) 0.1704(4)
C53_2 C 0.6840(3) 0.6901(3) 0.2032(3)
C54_2 C 0.7149(3) 0.6951(3) 0.2161(3)
H33_2 H 0.7212 0.6850 0.2362
C55_2 C 0.7383(4) 0.7151(4) 0.2004(4)
C56_2 C 0.6612(3) 0.6672(3) 0.2174(3)
O17_2 O 0.6330(2) 0.66237(19) 0.2034(2)
O18_2 O 0.67039(17) 0.65428(18) 0.24505(19)
C57_2 C 0.6722(4) 0.7083(4) 0.1741(4)
Zn10_2 Zn 0.59868(3) 0.63078(3) 0.21868(3)
O21_2 O 0.58069(18) 0.66087(18) 0.25510(19)
H34_2 H 0.7601 0.7176 0.2090
C60_2 C 0.6972(5) 0.7289(4) 0.1584(4)
H36_2 H 0.6911 0.7404 0.1391
O22_2 O 0.58010(18) 0.59654(19) 0.2502(2)
O23_2 O 0.6295(2) 0.5980(2) 0.19596(19)
O24_2 O 0.66798(17) 0.59045(17) 0.23519(18)
N9_2 N 0.5618(2) 0.6329(3) 0.1824(3)
O25_2 O 0.61884(17) 0.65013(19) 0.29561(18)
O26_2 O 0.61876(16) 0.58544(18) 0.2896(2)
H39_2 H 0.6502 0.7070 0.1659
C65_2 C 0.5639(2) 0.6524(3) 0.1543(3)
N10_2 N 0.5902(3) 0.6685(4) 0.1499(4)
N11_2 N 0.5402(2) 0.6535(2) 0.1288(3)
C66_2 C 0.5349(3) 0.6155(3) 0.1832(3)
N12_2 N 0.5270(3) 0.6009(3) 0.2093(3)
C67_2 C 0.5131(3) 0.6357(3) 0.1331(3)
N13_2 N 0.5090(2) 0.6165(3) 0.1601(3)
C68_2 C 0.4564(3) 0.6574(3) 0.0633(3)
H41_2 H 0.4524 0.6747 0.0499
C69_2 C 0.4863(2) 0.6350(3) 0.1063(3)
H42_2 H 0.6059 0.6685 0.1653
C70_2 C 0.4677(3) 0.6097(3) 0.1036(3)
C71_2 C 0.4446(3) 0.6099(3) 0.0786(3)
C72_2 C 0.4814(3) 0.6591(3) 0.0865(3)
H43_2 H 0.5925 0.6794 0.1316
N14_2 N 0.43679(17) 0.63294(19) 0.0581(2)
Zn12_2 Zn 0.39976(2) 0.63131(3) 0.02224(3)
H44_2 H 0.4705 0.5930 0.1182
H45_2 H 0.4948 0.6766 0.0885
H46_2 H 0.4327 0.5918 0.0753
H47_2 H 0.5393 0.6020 0.2275
H48_2 H 0.5092 0.5896 0.2092
Zn1_3 Zn 0.09868(3) 0.63078(3) 0.71868(3)
Zn2_3 Zn 0.14976(2) 0.61869(3) 0.77224(3)
C1_3 C 0.1548(2) 0.5860(3) 0.7074(3)
C2_3 C 0.1712(3) 0.5631(3) 0.6841(3)
C3_3 C 0.1980(3) 0.5458(4) 0.6953(4)
H1_3 H 0.2070 0.5505 0.7168
C4_3 C 0.1620(3) 0.5593(5) 0.6509(4)
H2_3 H 0.1462 0.5726 0.6414
C5_3 C 0.2128(4) 0.5219(5) 0.6772(6)
H3_3 H 0.2310 0.5111 0.6861
C6_3 C 0.1749(4) 0.5368(6) 0.6307(6)
H4_3 H 0.1686 0.5345 0.6077
C7_3 C 0.2005(4) 0.5155(6) 0.6479(8)
C8_3 C 0.2016(4) 0.4765(6) 0.6020(7)
C9_3 C 0.2162(4) 0.4729(5) 0.5709(7)
H5_3 H 0.2363 0.4829 0.5655
C10_3 C 0.1726(4) 0.4638(5) 0.6112(6)
H6_3 H 0.1625 0.4694 0.6319
C11_3 C 0.2008(3) 0.4538(4) 0.5471(5)
H7_3 H 0.2095 0.4516 0.5250
C12_3 C 0.1721(3) 0.4382(3) 0.5568(4)
C13_3 C 0.1571(3) 0.4420(4) 0.5904(4)
H8_3 H 0.1384 0.4307 0.5976
C14_3 C 0.1563(2) 0.4147(3) 0.5345(3)
O1_3 O 0.1295(2) 0.5980(2) 0.69596(19)
O2_3 O 0.16798(17) 0.59045(17) 0.73519(18)
O3_3 O 0.2192(2) 0.4969(4) 0.6245(5)
O4_3 O 0.16931(18) 0.41087(18) 0.50510(19)
O5_3 O 0.13116(17) 0.40013(19) 0.54561(18)
O6_3 O 0.1170(2) 0.41237(19) 0.4534(2)
O7_3 O 0.07961(17) 0.40428(18) 0.49505(19)
N2_3 N 0.1882(2) 0.3829(3) 0.4324(3)
O8_2 O 0.16990(18) 0.34654(19) 0.5002(2)
O9_2 O 0.13124(16) 0.33544(18) 0.5396(2)
C15_3 C 0.0778(4) 0.4583(4) 0.4241(4)
C16_3 C 0.0528(5) 0.4789(4) 0.4084(4)
C17_3 C 0.0351(3) 0.4451(3) 0.4661(3)
H9_3 H 0.0288 0.4350 0.4862
C18_3 C 0.0660(3) 0.4401(3) 0.4532(3)
C19_3 C 0.0117(4) 0.4651(4) 0.4504(4)
C20_3 C 0.0232(5) 0.4816(5) 0.4204(4)
C21_2 C 0.1603(2) 0.3313(2) 0.5265(3)
C22_2 C 0.1764(3) 0.2949(3) 0.5734(3)
C23_2 C 0.1968(3) 0.2745(3) 0.5881(3)
C24_2 C 0.2280(3) 0.2693(3) 0.5734(3)
C25_2 C 0.2152(3) 0.3034(3) 0.5284(3)
C26_2 C 0.2372(3) 0.2833(3) 0.5434(3)
H11_2 H 0.2581 0.2792 0.5333
H12_2 H 0.2215 0.3136 0.5083
C27_3 C 0.1861(2) 0.4024(3) 0.4043(3)
O10_3 O 0.0000 0.5000 0.4050(4)
C28_2 C 0.1836(2) 0.3091(3) 0.5424(3)
H13_2 H 0.1562 0.2998 0.5844
C29_3 C 0.0888(3) 0.4172(3) 0.4674(3)
H14_3 H 0.0589 0.4904 0.3891
H15_2 H 0.1903 0.2641 0.6079
O11_5 O 0.2500 0.2500 0.5913(3)
N3_3 N 0.1598(3) 0.4185(4) 0.3999(4)
H16_3 H 0.0998 0.4570 0.4159
N4_3 N 0.2098(2) 0.4035(2) 0.3788(3)
H17_3 H 0.1575 0.4294 0.3816
C30_3 C 0.2637(2) 0.3850(3) 0.3563(3)
C31_3 C 0.2686(3) 0.4091(3) 0.3365(3)
C32_3 C 0.3054(3) 0.3599(3) 0.3286(3)
H18_3 H 0.3173 0.3418 0.3253
C33_3 C 0.2936(3) 0.4074(3) 0.3133(3)
C34_3 C 0.2151(3) 0.3655(3) 0.4332(3)
N5_3 N 0.2410(2) 0.3665(3) 0.4101(3)
N6_3 N 0.2230(3) 0.3509(3) 0.4593(3)
H19_3 H 0.2107 0.3520 0.4775
C35_3 C 0.2369(3) 0.3857(3) 0.3831(3)
H20_3 H 0.2552 0.4266 0.3385
H21_3 H 0.1441 0.4185 0.4153
H22_3 H 0.2976 0.4247 0.2999
C36_3 C 0.2823(3) 0.3597(3) 0.3536(3)
H23_3 H 0.2795 0.3430 0.3682
H24_3 H 0.2408 0.3396 0.4592
N7_3 N 0.06321(17) 0.36706(19) 0.5581(2)
C52_2 C 0.2720(3) 0.2307(3) 0.5734(3)
C58_2 C 0.3032(3) 0.2255(3) 0.5881(3)
C59_2 C 0.3397(2) 0.1687(2) 0.5265(3)
O19_2 O 0.33010(18) 0.15346(19) 0.5002(2)
O20_2 O 0.36876(16) 0.16456(18) 0.5396(2)
Zn9_2 Zn 0.39976(2) 0.13131(3) 0.52224(3)
Zn11_2 Zn 0.34868(3) 0.11922(3) 0.46868(3)
H34_3 H 0.0101 0.5324 0.4590
H35_2 H 0.3097 0.2359 0.6079
C61_2 C 0.2628(3) 0.2167(3) 0.5434(3)
C62_2 C 0.3236(3) 0.2051(3) 0.5734(3)
H37_2 H 0.3438 0.2002 0.5844
C63_2 C 0.2848(3) 0.1966(3) 0.5284(3)
C64_2 C 0.3164(2) 0.1909(3) 0.5424(3)
H38_2 H 0.2419 0.2208 0.5333
H40_2 H 0.2785 0.1864 0.5083
N1_3 N 0.93679(17) 0.63294(19) 0.5581(2)
H10_3 H 0.9899 0.4676 0.4590
O10_4 O 1.0000 0.5000 0.4050(4)
C51_3 C 0.9768(5) 0.5184(5) 0.4204(4)
C53_3 C 0.9340(3) 0.5599(3) 0.4532(3)
C54_3 C 0.9649(3) 0.5549(3) 0.4661(3)
H33_3 H 0.9712 0.5650 0.4862
C55_3 C 0.9883(4) 0.5349(4) 0.4504(4)
C56_3 C 0.9112(3) 0.5828(3) 0.4674(3)
O17_3 O 0.8830(2) 0.58763(19) 0.4534(2)
O18_3 O 0.92039(17) 0.59572(18) 0.49505(19)
C57_3 C 0.9222(4) 0.5417(4) 0.4241(4)
O21_3 O 0.83069(18) 0.58913(18) 0.50510(19)
C60_3 C 0.9472(5) 0.5211(4) 0.4084(4)
H36_3 H 0.9411 0.5096 0.3891
O22_3 O 0.83010(18) 0.65346(19) 0.5002(2)
N9_3 N 0.8118(2) 0.6171(3) 0.4324(3)
O25_3 O 0.86884(17) 0.59987(19) 0.54561(18)
O26_3 O 0.86876(16) 0.66456(18) 0.5396(2)
H39_3 H 0.9002 0.5430 0.4159
C65_3 C 0.8139(2) 0.5976(3) 0.4043(3)
N10_3 N 0.8402(3) 0.5815(4) 0.3999(4)
N11_3 N 0.7902(2) 0.5965(2) 0.3788(3)
C66_3 C 0.7849(3) 0.6345(3) 0.4332(3)
N12_3 N 0.7770(3) 0.6491(3) 0.4593(3)
C67_3 C 0.7631(3) 0.6143(3) 0.3831(3)
N13_3 N 0.7590(2) 0.6335(3) 0.4101(3)
C68_3 C 0.7064(3) 0.5926(3) 0.3133(3)
H41_3 H 0.7024 0.5753 0.2999
C69_3 C 0.7363(2) 0.6150(3) 0.3563(3)
H42_3 H 0.8559 0.5815 0.4153
C70_3 C 0.7177(3) 0.6403(3) 0.3536(3)
C71_3 C 0.6946(3) 0.6401(3) 0.3286(3)
C72_3 C 0.7314(3) 0.5909(3) 0.3365(3)
H43_3 H 0.8425 0.5706 0.3816
H44_3 H 0.7205 0.6570 0.3682
H45_3 H 0.7448 0.5734 0.3385
H46_3 H 0.6827 0.6582 0.3253
H47_3 H 0.7893 0.6480 0.4775
H48_3 H 0.7592 0.6604 0.4592
C8_4 C 0.2984(4) 0.0235(6) 0.6020(7)
C9_4 C 0.2838(4) 0.0271(5) 0.5709(7)
H5_4 H 0.2637 0.0171 0.5655
C10_4 C 0.3274(4) 0.0362(5) 0.6112(6)
H6_4 H 0.3375 0.0306 0.6319
C11_4 C 0.2992(3) 0.0462(4) 0.5471(5)
H7_4 H 0.2905 0.0484 0.5250
C12_4 C 0.3279(3) 0.0618(3) 0.5568(4)
C13_4 C 0.3429(3) 0.0580(4) 0.5904(4)
H8_4 H 0.3616 0.0693 0.5976
C14_4 C 0.3437(2) 0.0853(3) 0.5345(3)
O3_4 O 0.2808(2) 0.0031(4) 0.6245(5)
O4_4 O 0.33069(18) 0.08913(18) 0.50510(19)
O5_4 O 0.36884(17) 0.09987(19) 0.54561(18)
O6_4 O 0.3830(2) 0.08763(19) 0.4534(2)
O7_4 O 0.42039(17) 0.09572(18) 0.49505(19)
N2_4 N 0.3118(2) 0.1171(3) 0.4324(3)
C15_4 C 0.4222(4) 0.0417(4) 0.4241(4)
C16_4 C 0.4472(5) 0.0211(4) 0.4084(4)
C17_4 C 0.4649(3) 0.0549(3) 0.4661(3)
H9_4 H 0.4712 0.0650 0.4862
C18_4 C 0.4340(3) 0.0599(3) 0.4532(3)
C19_4 C 0.4883(4) 0.0349(4) 0.4504(4)
C20_4 C 0.4768(5) 0.0184(5) 0.4204(4)
H10_4 H 0.5101 0.0324 0.4590
C27_4 C 0.3139(2) 0.0976(3) 0.4043(3)
O10_5 O 0.5000 -0.0000 0.4050(4)
C29_4 C 0.4112(3) 0.0828(3) 0.4674(3)
H14_4 H 0.4411 0.0096 0.3891
N3_4 N 0.3402(3) 0.0815(4) 0.3999(4)
H16_4 H 0.4002 0.0430 0.4159
N4_4 N 0.2902(2) 0.0965(2) 0.3788(3)
H17_4 H 0.3425 0.0706 0.3816
C30_4 C 0.2363(2) 0.1150(3) 0.3563(3)
C31_4 C 0.2314(3) 0.0909(3) 0.3365(3)
C32_4 C 0.1946(3) 0.1401(3) 0.3286(3)
H18_4 H 0.1827 0.1582 0.3253
C33_4 C 0.2064(3) 0.0926(3) 0.3133(3)
C34_4 C 0.2849(3) 0.1345(3) 0.4332(3)
N5_4 N 0.2590(2) 0.1335(3) 0.4101(3)
N6_4 N 0.2770(3) 0.1491(3) 0.4593(3)
H19_4 H 0.2893 0.1480 0.4775
C35_4 C 0.2631(3) 0.1143(3) 0.3831(3)
H20_4 H 0.2448 0.0734 0.3385
H21_4 H 0.3559 0.0815 0.4153
H22_4 H 0.2024 0.0753 0.2999
C36_4 C 0.2177(3) 0.1403(3) 0.3536(3)
H23_4 H 0.2205 0.1570 0.3682
H24_4 H 0.2592 0.1604 0.4592
C37_3 C 0.4505(4) 0.2345(6) 0.3979(8)
O12_3 O 0.4692(2) 0.2531(4) 0.3745(5)
C38_3 C 0.4120(3) 0.1907(5) 0.4009(4)
C39_3 C 0.4249(4) 0.2132(6) 0.3807(6)
C40_3 C 0.4516(4) 0.2735(6) 0.3520(7)
C41_3 C 0.4212(3) 0.1869(3) 0.4341(3)
C42_3 C 0.4048(2) 0.1640(3) 0.4574(3)
C43_3 C 0.4480(3) 0.2042(4) 0.4453(4)
C44_3 C 0.4662(4) 0.2771(5) 0.3209(7)
H25_3 H 0.4863 0.2671 0.3155
C45_3 C 0.4628(4) 0.2281(5) 0.4272(6)
H26_3 H 0.4810 0.2389 0.4361
O13_3 O 0.3795(2) 0.1520(2) 0.44596(19)
H27_3 H 0.3962 0.1774 0.3914
H28_3 H 0.4186 0.2155 0.3577
O14_3 O 0.41798(17) 0.15955(17) 0.48519(18)
C46_3 C 0.4226(4) 0.2862(5) 0.3612(6)
C47_3 C 0.4508(3) 0.2962(4) 0.2971(5)
H29_3 H 0.4125 0.2806 0.3819
C48_3 C 0.4071(3) 0.3080(4) 0.3404(4)
H30_3 H 0.4595 0.2984 0.2750
H31_3 H 0.4570 0.1995 0.4668
N7_4 N 0.43679(17) 0.13294(19) 0.5581(2)
C49_3 C 0.4221(3) 0.3118(3) 0.3068(4)
C50_3 C 0.4063(2) 0.3353(3) 0.2845(3)
H32_3 H 0.3884 0.3193 0.3476
Zn1_4 Zn 0.40132(3) 0.86922(3) 0.71868(3)
Zn2_4 Zn 0.35024(2) 0.88131(3) 0.77224(3)
C1_4 C 0.3452(2) 0.9140(3) 0.7074(3)
C2_4 C 0.3288(3) 0.9369(3) 0.6841(3)
C3_4 C 0.3020(3) 0.9542(4) 0.6953(4)
H1_4 H 0.2930 0.9495 0.7168
C4_4 C 0.3380(3) 0.9407(5) 0.6509(4)
H2_4 H 0.3538 0.9274 0.6414
C5_4 C 0.2872(4) 0.9781(5) 0.6772(6)
H3_4 H 0.2690 0.9889 0.6861
C6_4 C 0.3251(4) 0.9632(6) 0.6307(6)
H4_4 H 0.3314 0.9655 0.6077
C7_4 C 0.2995(4) 0.9845(6) 0.6479(8)
N1_4 N 0.56321(17) 0.86706(19) 0.5581(2)
O1_4 O 0.3705(2) 0.9020(2) 0.69596(19)
O2_4 O 0.33202(17) 0.90955(17) 0.73519(18)
O10_6 O 0.5000 1.0000 0.4050(4)
Zn5_3 Zn 0.60024(2) 0.86869(3) 0.52224(3)
C51_4 C 0.5232(5) 0.9816(5) 0.4204(4)
C53_4 C 0.5660(3) 0.9401(3) 0.4532(3)
C54_4 C 0.5351(3) 0.9451(3) 0.4661(3)
H33_4 H 0.5288 0.9350 0.4862
C55_4 C 0.5117(4) 0.9651(4) 0.4504(4)
C56_4 C 0.5888(3) 0.9172(3) 0.4674(3)
O17_4 O 0.6170(2) 0.91237(19) 0.4534(2)
O18_4 O 0.57961(17) 0.90428(18) 0.49505(19)
C57_4 C 0.5778(4) 0.9583(4) 0.4241(4)
Zn10_3 Zn 0.65132(3) 0.88078(3) 0.46868(3)
O21_4 O 0.66931(18) 0.91087(18) 0.50510(19)
H34_4 H 0.4899 0.9676 0.4590
C60_4 C 0.5528(5) 0.9789(4) 0.4084(4)
H36_4 H 0.5589 0.9904 0.3891
O22_4 O 0.66990(18) 0.84654(19) 0.5002(2)
O23_3 O 0.6205(2) 0.8480(2) 0.44596(19)
O24_3 O 0.58202(17) 0.84045(17) 0.48519(18)
N9_4 N 0.6882(2) 0.8829(3) 0.4324(3)
O25_4 O 0.63116(17) 0.90013(19) 0.54561(18)
O26_4 O 0.63124(16) 0.83544(18) 0.5396(2)
H39_4 H 0.5998 0.9570 0.4159
C65_4 C 0.6861(2) 0.9024(3) 0.4043(3)
N10_4 N 0.6598(3) 0.9185(4) 0.3999(4)
N11_4 N 0.7098(2) 0.9035(2) 0.3788(3)
C66_4 C 0.7151(3) 0.8655(3) 0.4332(3)
N12_4 N 0.7230(3) 0.8509(3) 0.4593(3)
C67_4 C 0.7369(3) 0.8857(3) 0.3831(3)
N13_4 N 0.7410(2) 0.8665(3) 0.4101(3)
C68_4 C 0.7936(3) 0.9074(3) 0.3133(3)
H41_4 H 0.7976 0.9247 0.2999
C69_4 C 0.7637(2) 0.8850(3) 0.3563(3)
H42_4 H 0.6441 0.9185 0.4153
C70_4 C 0.7823(3) 0.8597(3) 0.3536(3)
C71_4 C 0.8054(3) 0.8599(3) 0.3286(3)
C72_4 C 0.7686(3) 0.9091(3) 0.3365(3)
H43_4 H 0.6575 0.9294 0.3816
H44_4 H 0.7795 0.8430 0.3682
H45_4 H 0.7552 0.9266 0.3385
H46_4 H 0.8173 0.8418 0.3253
H47_4 H 0.7107 0.8520 0.4775
H48_4 H 0.7408 0.8396 0.4592
C1_5 C 0.0952(2) 0.8360(3) 0.9574(3)
C2_5 C 0.0788(3) 0.8131(3) 0.9341(3)
C3_5 C 0.0520(3) 0.7958(4) 0.9453(4)
H1_5 H 0.0430 0.8005 0.9668
C4_5 C 0.0880(3) 0.8093(5) 0.9009(4)
H2_5 H 0.1038 0.8226 0.8914
C5_5 C 0.0372(4) 0.7719(5) 0.9272(6)
H3_5 H 0.0190 0.7611 0.9361
C6_5 C 0.0751(4) 0.7868(6) 0.8807(6)
H4_5 H 0.0814 0.7845 0.8577
C7_5 C 0.0495(4) 0.7655(6) 0.8979(8)
C8_5 C 0.0484(4) 0.7265(6) 0.8520(7)
C9_5 C 0.0338(4) 0.7229(5) 0.8209(7)
H5_5 H 0.0137 0.7329 0.8155
C10_5 C 0.0774(4) 0.7138(5) 0.8612(6)
H6_5 H 0.0875 0.7194 0.8819
C11_5 C 0.0492(3) 0.7038(4) 0.7971(5)
H7_5 H 0.0405 0.7016 0.7750
C12_5 C 0.0779(3) 0.6882(3) 0.8068(4)
C13_5 C 0.0929(3) 0.6920(4) 0.8404(4)
H8_5 H 0.1116 0.6807 0.8476
C14_5 C 0.0937(2) 0.6647(3) 0.7845(3)
N1_5 N 0.31321(17) 0.88294(19) 0.8081(2)
O1_5 O 0.1205(2) 0.8480(2) 0.94596(19)
O2_5 O 0.08202(17) 0.84045(17) 0.98519(18)
O3_5 O 0.0308(2) 0.7469(4) 0.8745(5)
O4_5 O 0.08069(18) 0.66087(18) 0.75510(19)
O5_5 O 0.11884(17) 0.65013(19) 0.79561(18)
O6_5 O 0.1330(2) 0.66237(19) 0.7034(2)
O7_5 O 0.17039(17) 0.65428(18) 0.74505(19)
N2_5 N 0.0618(2) 0.6329(3) 0.6824(3)
O8_3 O 0.08010(18) 0.59654(19) 0.7502(2)
O9_3 O 0.11876(16) 0.58544(18) 0.7896(2)
C15_5 C 0.1722(4) 0.7083(4) 0.6741(4)
C16_5 C 0.1972(5) 0.7289(4) 0.6584(4)
C17_5 C 0.2149(3) 0.6951(3) 0.7161(3)
H9_5 H 0.2212 0.6850 0.7362
C18_5 C 0.1840(3) 0.6901(3) 0.7032(3)
C19_5 C 0.2383(4) 0.7151(4) 0.7004(4)
C20_5 C 0.2268(5) 0.7316(5) 0.6704(4)
C21_3 C 0.0897(2) 0.5813(2) 0.7765(3)
C22_3 C 0.0736(3) 0.5449(3) 0.8234(3)
C23_3 C 0.0532(3) 0.5245(3) 0.8381(3)
C24_3 C 0.0220(3) 0.5193(3) 0.8234(3)
C25_3 C 0.0348(3) 0.5534(3) 0.7784(3)
C26_3 C 0.0128(3) 0.5333(3) 0.7934(3)
H10_5 H 0.2601 0.7176 0.7090
H12_3 H 0.0285 0.5636 0.7583
C27_5 C 0.0639(2) 0.6524(3) 0.6543(3)
O10_7 O 0.2500 0.7500 0.6550(4)
C28_3 C 0.0664(2) 0.5591(3) 0.7924(3)
H13_3 H 0.0938 0.5498 0.8344
C29_5 C 0.1612(3) 0.6672(3) 0.7174(3)
H14_5 H 0.1911 0.7404 0.6391
H15_3 H 0.0597 0.5141 0.8579
O11_6 O -0.0000 0.5000 0.8413(3)
N3_5 N 0.0902(3) 0.6685(4) 0.6499(4)
H16_5 H 0.1502 0.7070 0.6659
N4_5 N 0.0402(2) 0.6535(2) 0.6288(3)
H17_5 H 0.0925 0.6794 0.6316
C34_5 C 0.0349(3) 0.6155(3) 0.6832(3)
N5_5 N 0.0090(2) 0.6165(3) 0.6601(3)
N6_5 N 0.0270(3) 0.6009(3) 0.7093(3)
H19_5 H 0.0393 0.6020 0.7275
C35_5 C 0.0131(3) 0.6357(3) 0.6331(3)
H21_5 H 0.1059 0.6685 0.6653
H24_5 H 0.0092 0.5896 0.7092
N7_5 N 0.18679(17) 0.61706(19) 0.8081(2)
C51_5 C 0.2732(5) 0.7684(5) 0.6704(4)
C53_5 C 0.3160(3) 0.8099(3) 0.7032(3)
C54_5 C 0.2851(3) 0.8049(3) 0.7161(3)
H33_5 H 0.2788 0.8150 0.7362
C55_5 C 0.2617(4) 0.7849(4) 0.7004(4)
C56_5 C 0.3388(3) 0.8328(3) 0.7174(3)
O17_5 O 0.3670(2) 0.83763(19) 0.7034(2)
O18_5 O 0.32961(17) 0.84572(18) 0.74505(19)
C57_5 C 0.3278(4) 0.7917(4) 0.6741(4)
O21_5 O 0.41931(18) 0.83913(18) 0.75510(19)
H34_5 H 0.2399 0.7824 0.7090
C60_5 C 0.3028(5) 0.7711(4) 0.6584(4)
H36_5 H 0.3089 0.7596 0.6391
O22_5 O 0.41990(18) 0.90346(19) 0.7502(2)
H38_3 H 0.0081 0.4708 0.7833
N9_5 N 0.4382(2) 0.8671(3) 0.6824(3)
O25_5 O 0.38116(17) 0.84987(19) 0.79561(18)
O26_5 O 0.38124(16) 0.91456(18) 0.7896(2)
H39_5 H 0.3498 0.7930 0.6659
C65_5 C 0.4361(2) 0.8476(3) 0.6543(3)
N10_5 N 0.4098(3) 0.8315(4) 0.6499(4)
N11_5 N 0.4598(2) 0.8465(2) 0.6288(3)
C66_5 C 0.4651(3) 0.8845(3) 0.6832(3)
N12_5 N 0.4730(3) 0.8991(3) 0.7093(3)
C67_5 C 0.4869(3) 0.8643(3) 0.6331(3)
N13_5 N 0.4910(2) 0.8835(3) 0.6601(3)
C68_5 C 0.5436(3) 0.8426(3) 0.5633(3)
H41_5 H 0.5476 0.8253 0.5499
C69_5 C 0.5137(2) 0.8650(3) 0.6063(3)
H42_5 H 0.3941 0.8315 0.6653
C70_5 C 0.5323(3) 0.8903(3) 0.6036(3)
C71_5 C 0.5554(3) 0.8901(3) 0.5786(3)
C72_5 C 0.5186(3) 0.8409(3) 0.5865(3)
H43_5 H 0.4075 0.8206 0.6316
H44_5 H 0.5295 0.9070 0.6182
H45_5 H 0.5052 0.8234 0.5885
H46_5 H 0.5673 0.9082 0.5753
H47_5 H 0.4607 0.8980 0.7275
H48_5 H 0.4908 0.9104 0.7092
H11_3 H 0.9919 0.5292 0.7833
O11_7 O 1.0000 0.5000 0.8413(3)
C30_5 C 0.9863(2) 0.6350(3) 0.6063(3)
C31_5 C 0.9814(3) 0.6591(3) 0.5865(3)
C32_5 C 0.9446(3) 0.6099(3) 0.5786(3)
H18_5 H 0.9327 0.5918 0.5753
C33_5 C 0.9564(3) 0.6574(3) 0.5633(3)
H20_5 H 0.9948 0.6766 0.5885
H22_5 H 0.9524 0.6747 0.5499
C36_5 C 0.9677(3) 0.6097(3) 0.6036(3)
H23_5 H 0.9705 0.5930 0.6182
C52_3 C 0.9780(3) 0.4807(3) 0.8234(3)
C58_3 C 0.9468(3) 0.4755(3) 0.8381(3)
C59_3 C 0.9103(2) 0.4187(2) 0.7765(3)
O19_3 O 0.91990(18) 0.40346(19) 0.7502(2)
O20_3 O 0.88124(16) 0.41456(18) 0.7896(2)
Zn9_3 Zn 0.85024(2) 0.38131(3) 0.77224(3)
Zn11_3 Zn 0.90132(3) 0.36922(3) 0.71868(3)
H35_3 H 0.9403 0.4859 0.8579
C61_3 C 0.9872(3) 0.4667(3) 0.7934(3)
C62_3 C 0.9264(3) 0.4551(3) 0.8234(3)
H37_3 H 0.9062 0.4502 0.8344
C63_3 C 0.9652(3) 0.4466(3) 0.7784(3)
C64_3 C 0.9336(2) 0.4409(3) 0.7924(3)
H40_3 H 0.9715 0.4364 0.7583
C30_6 C 0.0137(2) 0.3650(3) 0.6063(3)
C31_6 C 0.0186(3) 0.3409(3) 0.5865(3)
C32_6 C 0.0554(3) 0.3901(3) 0.5786(3)
H18_6 H 0.0673 0.4082 0.5753
C33_6 C 0.0436(3) 0.3426(3) 0.5633(3)
H20_6 H 0.0052 0.3234 0.5885
H22_6 H 0.0476 0.3253 0.5499
C36_6 C 0.0323(3) 0.3903(3) 0.6036(3)
H23_6 H 0.0295 0.4070 0.6182
C1_6 C 0.9048(2) 0.1640(3) 0.9574(3)
C2_6 C 0.9212(3) 0.1869(3) 0.9341(3)
C3_6 C 0.9480(3) 0.2042(4) 0.9453(4)
H1_6 H 0.9570 0.1995 0.9668
C4_6 C 0.9120(3) 0.1907(5) 0.9009(4)
H2_6 H 0.8962 0.1774 0.8914
C5_6 C 0.9628(4) 0.2281(5) 0.9272(6)
H3_6 H 0.9810 0.2389 0.9361
C6_6 C 0.9249(4) 0.2132(6) 0.8807(6)
H4_6 H 0.9186 0.2155 0.8577
C7_6 C 0.9505(4) 0.2345(6) 0.8979(8)
C8_6 C 0.9516(4) 0.2735(6) 0.8520(7)
C9_6 C 0.9662(4) 0.2771(5) 0.8209(7)
H5_6 H 0.9863 0.2671 0.8155
C10_6 C 0.9226(4) 0.2862(5) 0.8612(6)
H6_6 H 0.9125 0.2806 0.8819
C11_6 C 0.9508(3) 0.2962(4) 0.7971(5)
H7_6 H 0.9595 0.2984 0.7750
C12_6 C 0.9221(3) 0.3118(3) 0.8068(4)
C13_6 C 0.9071(3) 0.3080(4) 0.8404(4)
H8_6 H 0.8884 0.3193 0.8476
C14_6 C 0.9063(2) 0.3353(3) 0.7845(3)
N1_6 N 0.68679(17) 0.11706(19) 0.8081(2)
O1_6 O 0.8795(2) 0.1520(2) 0.94596(19)
O2_6 O 0.91798(17) 0.15955(17) 0.98519(18)
O3_6 O 0.9692(2) 0.2531(4) 0.8745(5)
O4_6 O 0.91931(18) 0.33913(18) 0.75510(19)
O5_6 O 0.88116(17) 0.34987(19) 0.79561(18)
O6_6 O 0.8670(2) 0.33763(19) 0.7034(2)
O7_6 O 0.82961(17) 0.34572(18) 0.74505(19)
N2_6 N 0.9382(2) 0.3671(3) 0.6824(3)
C15_6 C 0.8278(4) 0.2917(4) 0.6741(4)
C16_6 C 0.8028(5) 0.2711(4) 0.6584(4)
C17_6 C 0.7851(3) 0.3049(3) 0.7161(3)
H9_6 H 0.7788 0.3150 0.7362
C18_6 C 0.8160(3) 0.3099(3) 0.7032(3)
C19_6 C 0.7617(4) 0.2849(4) 0.7004(4)
C20_6 C 0.7732(5) 0.2684(5) 0.6704(4)
H10_6 H 0.7399 0.2824 0.7090
C27_6 C 0.9361(2) 0.3476(3) 0.6543(3)
O10_8 O 0.7500 0.2500 0.6550(4)
C29_6 C 0.8388(3) 0.3328(3) 0.7174(3)
H14_6 H 0.8089 0.2596 0.6391
N3_6 N 0.9098(3) 0.3315(4) 0.6499(4)
H16_6 H 0.8498 0.2930 0.6659
N4_6 N 0.9598(2) 0.3465(2) 0.6288(3)
H17_6 H 0.9075 0.3206 0.6316
C34_6 C 0.9651(3) 0.3845(3) 0.6832(3)
N5_6 N 0.9910(2) 0.3835(3) 0.6601(3)
N6_6 N 0.9730(3) 0.3991(3) 0.7093(3)
H19_6 H 0.9607 0.3980 0.7275
C35_6 C 0.9869(3) 0.3643(3) 0.6331(3)
H21_6 H 0.8941 0.3315 0.6653
H24_6 H 0.9908 0.4104 0.7092
Zn5_4 Zn 0.64976(2) 0.11869(3) 0.77224(3)
C37_4 C 0.7995(4) 0.4845(6) 0.6479(8)
O12_4 O 0.7808(2) 0.5031(4) 0.6245(5)
C38_4 C 0.8380(3) 0.4407(5) 0.6509(4)
C39_4 C 0.8251(4) 0.4632(6) 0.6307(6)
C40_4 C 0.7984(4) 0.5235(6) 0.6020(7)
C41_4 C 0.8288(3) 0.4369(3) 0.6841(3)
C42_4 C 0.8452(2) 0.4140(3) 0.7074(3)
C43_4 C 0.8020(3) 0.4542(4) 0.6953(4)
C44_4 C 0.7838(4) 0.5271(5) 0.5709(7)
H25_4 H 0.7637 0.5171 0.5655
C45_4 C 0.7872(4) 0.4781(5) 0.6772(6)
H26_4 H 0.7690 0.4889 0.6861
O13_4 O 0.8705(2) 0.4020(2) 0.69596(19)
H27_4 H 0.8538 0.4274 0.6414
H28_4 H 0.8314 0.4655 0.6077
O14_4 O 0.83202(17) 0.40955(17) 0.73519(18)
C46_4 C 0.8274(4) 0.5362(5) 0.6112(6)
C47_4 C 0.7992(3) 0.5462(4) 0.5471(5)
H29_4 H 0.8375 0.5306 0.6319
C48_4 C 0.8429(3) 0.5580(4) 0.5904(4)
H30_4 H 0.7905 0.5484 0.5250
H31_4 H 0.7930 0.4495 0.7168
N7_6 N 0.81321(17) 0.38294(19) 0.8081(2)
C49_4 C 0.8279(3) 0.5618(3) 0.5568(4)
C50_4 C 0.8437(2) 0.5853(3) 0.5345(3)
H32_4 H 0.8616 0.5693 0.5976
C51_6 C 0.7268(5) 0.2316(5) 0.6704(4)
C53_6 C 0.6840(3) 0.1901(3) 0.7032(3)
C54_6 C 0.7149(3) 0.1951(3) 0.7161(3)
H33_6 H 0.7212 0.1850 0.7362
C55_6 C 0.7383(4) 0.2151(4) 0.7004(4)
C56_6 C 0.6612(3) 0.1672(3) 0.7174(3)
O17_6 O 0.6330(2) 0.16237(19) 0.7034(2)
O18_6 O 0.67039(17) 0.15428(18) 0.74505(19)
C57_6 C 0.6722(4) 0.2083(4) 0.6741(4)
Zn10_4 Zn 0.59868(3) 0.13078(3) 0.71868(3)
O21_6 O 0.58069(18) 0.16087(18) 0.75510(19)
H34_6 H 0.7601 0.2176 0.7090
C60_6 C 0.6972(5) 0.2289(4) 0.6584(4)
H36_6 H 0.6911 0.2404 0.6391
O22_6 O 0.58010(18) 0.09654(19) 0.7502(2)
O23_4 O 0.6295(2) 0.0980(2) 0.69596(19)
O24_4 O 0.66798(17) 0.09045(17) 0.73519(18)
N9_6 N 0.5618(2) 0.1329(3) 0.6824(3)
O25_6 O 0.61884(17) 0.15013(19) 0.79561(18)
O26_6 O 0.61876(16) 0.08544(18) 0.7896(2)
H39_6 H 0.6502 0.2070 0.6659
C65_6 C 0.5639(2) 0.1524(3) 0.6543(3)
N10_6 N 0.5902(3) 0.1685(4) 0.6499(4)
N11_6 N 0.5402(2) 0.1535(2) 0.6288(3)
C66_6 C 0.5349(3) 0.1155(3) 0.6832(3)
N12_6 N 0.5270(3) 0.1009(3) 0.7093(3)
C67_6 C 0.5131(3) 0.1357(3) 0.6331(3)
N13_6 N 0.5090(2) 0.1165(3) 0.6601(3)
C68_6 C 0.4564(3) 0.1574(3) 0.5633(3)
H41_6 H 0.4524 0.1747 0.5499
C69_6 C 0.4863(2) 0.1350(3) 0.6063(3)
H42_6 H 0.6059 0.1685 0.6653
C70_6 C 0.4677(3) 0.1097(3) 0.6036(3)
C71_6 C 0.4446(3) 0.1099(3) 0.5786(3)
C72_6 C 0.4814(3) 0.1591(3) 0.5865(3)
H43_6 H 0.5925 0.1794 0.6316
H44_6 H 0.4705 0.0930 0.6182
H45_6 H 0.4948 0.1766 0.5885
H46_6 H 0.4327 0.0918 0.5753
H47_6 H 0.5393 0.1020 0.7275
H48_6 H 0.5092 0.0896 0.7092
O8_4 O 0.16990(18) 0.84654(19) 0.0002(2)
O9_4 O 0.13124(16) 0.83544(18) 0.0396(2)
C21_4 C 0.1603(2) 0.8313(2) 0.0265(3)
C22_4 C 0.1764(3) 0.7949(3) 0.0734(3)
C23_4 C 0.1968(3) 0.7745(3) 0.0881(3)
C24_4 C 0.2280(3) 0.7693(3) 0.0734(3)
C25_4 C 0.2152(3) 0.8034(3) 0.0284(3)
C26_4 C 0.2372(3) 0.7833(3) 0.0434(3)
H11_4 H 0.2581 0.7792 0.0333
H12_4 H 0.2215 0.8136 0.0083
C28_4 C 0.1836(2) 0.8091(3) 0.0424(3)
H13_4 H 0.1562 0.7998 0.0844
H15_4 H 0.1903 0.7641 0.1079
O11_8 O 0.2500 0.7500 0.0913(3)
C52_4 C 0.2720(3) 0.7307(3) 0.0734(3)
C58_4 C 0.3032(3) 0.7255(3) 0.0881(3)
C59_4 C 0.3397(2) 0.6687(2) 0.0265(3)
O19_4 O 0.33010(18) 0.65346(19) 0.0002(2)
O20_4 O 0.36876(16) 0.66456(18) 0.0396(2)
H35_4 H 0.3097 0.7359 0.1079
C61_4 C 0.2628(3) 0.7167(3) 0.0434(3)
C62_4 C 0.3236(3) 0.7051(3) 0.0734(3)
H37_4 H 0.3438 0.7002 0.0844
C63_4 C 0.2848(3) 0.6966(3) 0.0284(3)
C64_4 C 0.3164(2) 0.6909(3) 0.0424(3)
H38_4 H 0.2419 0.7208 0.0333
H40_4 H 0.2785 0.6864 0.0083
O6_7 O 0.1170(2) 0.91237(19) 0.9534(2)
O7_7 O 0.07961(17) 0.90428(18) 0.99505(19)
N2_7 N 0.1882(2) 0.8829(3) 0.9324(3)
C15_7 C 0.0778(4) 0.9583(4) 0.9241(4)
C16_7 C 0.0528(5) 0.9789(4) 0.9084(4)
C17_7 C 0.0351(3) 0.9451(3) 0.9661(3)
H9_7 H 0.0288 0.9350 0.9862
C18_7 C 0.0660(3) 0.9401(3) 0.9532(3)
C19_7 C 0.0117(4) 0.9651(4) 0.9504(4)
C20_7 C 0.0232(5) 0.9816(5) 0.9204(4)
C27_7 C 0.1861(2) 0.9024(3) 0.9043(3)
O10_9 O 0.0000 1.0000 0.9050(4)
C29_7 C 0.0888(3) 0.9172(3) 0.9674(3)
H14_7 H 0.0589 0.9904 0.8891
N3_7 N 0.1598(3) 0.9185(4) 0.8999(4)
H16_7 H 0.0998 0.9570 0.9159
N4_7 N 0.2098(2) 0.9035(2) 0.8788(3)
H17_7 H 0.1575 0.9294 0.8816
C30_7 C 0.2637(2) 0.8850(3) 0.8563(3)
C31_7 C 0.2686(3) 0.9091(3) 0.8365(3)
C32_7 C 0.3054(3) 0.8599(3) 0.8286(3)
H18_7 H 0.3173 0.8418 0.8253
C33_7 C 0.2936(3) 0.9074(3) 0.8133(3)
C34_7 C 0.2151(3) 0.8655(3) 0.9332(3)
N5_7 N 0.2410(2) 0.8665(3) 0.9101(3)
N6_7 N 0.2230(3) 0.8509(3) 0.9593(3)
H19_7 H 0.2107 0.8520 0.9775
C35_7 C 0.2369(3) 0.8857(3) 0.8831(3)
H20_7 H 0.2552 0.9266 0.8385
H21_7 H 0.1441 0.9185 0.9153
H22_7 H 0.2976 0.9247 0.7999
C36_7 C 0.2823(3) 0.8597(3) 0.8536(3)
H23_7 H 0.2795 0.8430 0.8682
H24_7 H 0.2408 0.8396 0.9592
Zn11_4 Zn 0.34868(3) 0.61922(3) 0.96868(3)
O22_7 O 0.83010(18) 0.15346(19) 0.0002(2)
O26_7 O 0.86876(16) 0.16456(18) 0.0396(2)
O10_10 O 1.0000 0.0000 0.9050(4)
C51_7 C 0.9768(5) 0.0184(5) 0.9204(4)
C53_7 C 0.9340(3) 0.0599(3) 0.9532(3)
C54_7 C 0.9649(3) 0.0549(3) 0.9661(3)
H33_7 H 0.9712 0.0650 0.9862
C55_7 C 0.9883(4) 0.0349(4) 0.9504(4)
C56_7 C 0.9112(3) 0.0828(3) 0.9674(3)
O17_7 O 0.8830(2) 0.08763(19) 0.9534(2)
O18_7 O 0.92039(17) 0.09572(18) 0.99505(19)
C57_7 C 0.9222(4) 0.0417(4) 0.9241(4)
C60_7 C 0.9472(5) 0.0211(4) 0.9084(4)
H36_7 H 0.9411 0.0096 0.8891
N9_7 N 0.8118(2) 0.1171(3) 0.9324(3)
H39_7 H 0.9002 0.0430 0.9159
C65_7 C 0.8139(2) 0.0976(3) 0.9043(3)
N10_7 N 0.8402(3) 0.0815(4) 0.8999(4)
N11_7 N 0.7902(2) 0.0965(2) 0.8788(3)
C66_7 C 0.7849(3) 0.1345(3) 0.9332(3)
N12_7 N 0.7770(3) 0.1491(3) 0.9593(3)
C67_7 C 0.7631(3) 0.1143(3) 0.8831(3)
N13_7 N 0.7590(2) 0.1335(3) 0.9101(3)
C68_7 C 0.7064(3) 0.0926(3) 0.8133(3)
H41_7 H 0.7024 0.0753 0.7999
C69_7 C 0.7363(2) 0.1150(3) 0.8563(3)
H42_7 H 0.8559 0.0815 0.9153
C70_7 C 0.7177(3) 0.1403(3) 0.8536(3)
C71_7 C 0.6946(3) 0.1401(3) 0.8286(3)
C72_7 C 0.7314(3) 0.0909(3) 0.8365(3)
H43_7 H 0.8425 0.0706 0.8816
H44_7 H 0.7205 0.1570 0.8682
H45_7 H 0.7448 0.0734 0.8385
H46_7 H 0.6827 0.1582 0.8253
H47_7 H 0.7893 0.1480 0.9775
H48_7 H 0.7592 0.1604 0.9592
C1_7 C 0.3452(2) 0.4140(3) 0.2074(3)
C2_7 C 0.3288(3) 0.4369(3) 0.1841(3)
C3_7 C 0.3020(3) 0.4542(4) 0.1953(4)
H1_7 H 0.2930 0.4495 0.2168
C4_7 C 0.3380(3) 0.4407(5) 0.1509(4)
H2_7 H 0.3538 0.4274 0.1414
C5_7 C 0.2872(4) 0.4781(5) 0.1772(6)
H3_7 H 0.2690 0.4889 0.1861
C6_7 C 0.3251(4) 0.4632(6) 0.1307(6)
H4_7 H 0.3314 0.4655 0.1077
C7_7 C 0.2995(4) 0.4845(6) 0.1479(8)
C8_7 C 0.2984(4) 0.5235(6) 0.1020(7)
C9_7 C 0.2838(4) 0.5271(5) 0.0709(7)
H5_7 H 0.2637 0.5171 0.0655
C10_7 C 0.3274(4) 0.5362(5) 0.1112(6)
H6_7 H 0.3375 0.5306 0.1319
C11_7 C 0.2992(3) 0.5462(4) 0.0471(5)
H7_7 H 0.2905 0.5484 0.0250
C12_7 C 0.3279(3) 0.5618(3) 0.0568(4)
C13_7 C 0.3429(3) 0.5580(4) 0.0904(4)
H8_7 H 0.3616 0.5693 0.0976
C14_7 C 0.3437(2) 0.5853(3) 0.0345(3)
O3_7 O 0.2808(2) 0.5031(4) 0.1245(5)
O4_7 O 0.33069(18) 0.58913(18) 0.00510(19)
O5_7 O 0.36884(17) 0.59987(19) 0.04561(18)
O21_7 O 0.66931(18) 0.41087(18) 0.00510(19)
O22_8 O 0.66990(18) 0.34654(19) 0.0002(2)
O25_7 O 0.63116(17) 0.40013(19) 0.04561(18)
O26_8 O 0.63124(16) 0.33544(18) 0.0396(2)
O6_8 O 0.3830(2) 0.58763(19) 0.9534(2)
O7_8 O 0.42039(17) 0.59572(18) 0.99505(19)
N2_8 N 0.3118(2) 0.6171(3) 0.9324(3)
C15_8 C 0.4222(4) 0.5417(4) 0.9241(4)
C16_8 C 0.4472(5) 0.5211(4) 0.9084(4)
C17_8 C 0.4649(3) 0.5549(3) 0.9661(3)
H9_8 H 0.4712 0.5650 0.9862
C18_8 C 0.4340(3) 0.5599(3) 0.9532(3)
C19_8 C 0.4883(4) 0.5349(4) 0.9504(4)
C20_8 C 0.4768(5) 0.5184(5) 0.9204(4)
H10_7 H 0.5101 0.5324 0.9590
C27_8 C 0.3139(2) 0.5976(3) 0.9043(3)
O10_11 O 0.5000 0.5000 0.9050(4)
C29_8 C 0.4112(3) 0.5828(3) 0.9674(3)
H14_8 H 0.4411 0.5096 0.8891
N3_8 N 0.3402(3) 0.5815(4) 0.8999(4)
H16_8 H 0.4002 0.5430 0.9159
N4_8 N 0.2902(2) 0.5965(2) 0.8788(3)
H17_8 H 0.3425 0.5706 0.8816
C30_8 C 0.2363(2) 0.6150(3) 0.8563(3)
C31_8 C 0.2314(3) 0.5909(3) 0.8365(3)
C32_8 C 0.1946(3) 0.6401(3) 0.8286(3)
H18_8 H 0.1827 0.6582 0.8253
C33_8 C 0.2064(3) 0.5926(3) 0.8133(3)
C34_8 C 0.2849(3) 0.6345(3) 0.9332(3)
N5_8 N 0.2590(2) 0.6335(3) 0.9101(3)
N6_8 N 0.2770(3) 0.6491(3) 0.9593(3)
H19_8 H 0.2893 0.6480 0.9775
C35_8 C 0.2631(3) 0.6143(3) 0.8831(3)
H20_8 H 0.2448 0.5734 0.8385
H21_8 H 0.3559 0.5815 0.9153
H22_8 H 0.2024 0.5753 0.7999
C36_8 C 0.2177(3) 0.6403(3) 0.8536(3)
H23_8 H 0.2205 0.6570 0.8682
H24_8 H 0.2592 0.6604 0.9592
C37_5 C 0.4505(4) 0.7345(6) 0.8979(8)
O12_5 O 0.4692(2) 0.7531(4) 0.8745(5)
C38_5 C 0.4120(3) 0.6907(5) 0.9009(4)
C39_5 C 0.4249(4) 0.7132(6) 0.8807(6)
C40_5 C 0.4516(4) 0.7735(6) 0.8520(7)
C41_5 C 0.4212(3) 0.6869(3) 0.9341(3)
C42_5 C 0.4048(2) 0.6640(3) 0.9574(3)
C43_5 C 0.4480(3) 0.7042(4) 0.9453(4)
C44_5 C 0.4662(4) 0.7771(5) 0.8209(7)
H25_5 H 0.4863 0.7671 0.8155
C45_5 C 0.4628(4) 0.7281(5) 0.9272(6)
H26_5 H 0.4810 0.7389 0.9361
O13_5 O 0.3795(2) 0.6520(2) 0.94596(19)
H27_5 H 0.3962 0.6774 0.8914
H28_5 H 0.4186 0.7155 0.8577
O14_5 O 0.41798(17) 0.65955(17) 0.98519(18)
C46_5 C 0.4226(4) 0.7862(5) 0.8612(6)
C47_5 C 0.4508(3) 0.7962(4) 0.7971(5)
H29_5 H 0.4125 0.7806 0.8819
C48_5 C 0.4071(3) 0.8080(4) 0.8404(4)
H30_5 H 0.4595 0.7984 0.7750
H31_5 H 0.4570 0.6995 0.9668
C49_5 C 0.4221(3) 0.8118(3) 0.8068(4)
C50_5 C 0.4063(2) 0.8353(3) 0.7845(3)
H32_5 H 0.3884 0.8193 0.8476
C51_8 C 0.5232(5) 0.4816(5) 0.9204(4)
C53_8 C 0.5660(3) 0.4401(3) 0.9532(3)
C54_8 C 0.5351(3) 0.4451(3) 0.9661(3)
H33_8 H 0.5288 0.4350 0.9862
C55_8 C 0.5117(4) 0.4651(4) 0.9504(4)
C56_8 C 0.5888(3) 0.4172(3) 0.9674(3)
O17_8 O 0.6170(2) 0.41237(19) 0.9534(2)
O18_8 O 0.57961(17) 0.40428(18) 0.99505(19)
C57_8 C 0.5778(4) 0.4583(4) 0.9241(4)
Zn10_5 Zn 0.65132(3) 0.38078(3) 0.96868(3)
H34_7 H 0.4899 0.4676 0.9590
C60_8 C 0.5528(5) 0.4789(4) 0.9084(4)
H36_8 H 0.5589 0.4904 0.8891
O23_5 O 0.6205(2) 0.3480(2) 0.94596(19)
O24_5 O 0.58202(17) 0.34045(17) 0.98519(18)
N9_8 N 0.6882(2) 0.3829(3) 0.9324(3)
H39_8 H 0.5998 0.4570 0.9159
C65_8 C 0.6861(2) 0.4024(3) 0.9043(3)
N10_8 N 0.6598(3) 0.4185(4) 0.8999(4)
N11_8 N 0.7098(2) 0.4035(2) 0.8788(3)
C66_8 C 0.7151(3) 0.3655(3) 0.9332(3)
N12_8 N 0.7230(3) 0.3509(3) 0.9593(3)
C67_8 C 0.7369(3) 0.3857(3) 0.8831(3)
N13_8 N 0.7410(2) 0.3665(3) 0.9101(3)
C68_8 C 0.7936(3) 0.4074(3) 0.8133(3)
H41_8 H 0.7976 0.4247 0.7999
C69_8 C 0.7637(2) 0.3850(3) 0.8563(3)
H42_8 H 0.6441 0.4185 0.9153
C70_8 C 0.7823(3) 0.3597(3) 0.8536(3)
C71_8 C 0.8054(3) 0.3599(3) 0.8286(3)
C72_8 C 0.7686(3) 0.4091(3) 0.8365(3)
H43_8 H 0.6575 0.4294 0.8816
H44_8 H 0.7795 0.3430 0.8682
H45_8 H 0.7552 0.4266 0.8385
H46_8 H 0.8173 0.3418 0.8253
H47_8 H 0.7107 0.3520 0.9775
H48_8 H 0.7408 0.3396 0.9592
C1_8 C 0.5952(2) 0.3360(3) 0.9574(3)
C2_8 C 0.5788(3) 0.3131(3) 0.9341(3)
C3_8 C 0.5520(3) 0.2958(4) 0.9453(4)
H1_8 H 0.5430 0.3005 0.9668
C4_8 C 0.5880(3) 0.3093(5) 0.9009(4)
H2_8 H 0.6038 0.3226 0.8914
C5_8 C 0.5372(4) 0.2719(5) 0.9272(6)
H3_8 H 0.5190 0.2611 0.9361
C6_8 C 0.5751(4) 0.2868(6) 0.8807(6)
H4_8 H 0.5814 0.2845 0.8577
C7_8 C 0.5495(4) 0.2655(6) 0.8979(8)
C8_8 C 0.5484(4) 0.2265(6) 0.8520(7)
C9_8 C 0.5338(4) 0.2229(5) 0.8209(7)
H5_8 H 0.5137 0.2329 0.8155
C10_8 C 0.5774(4) 0.2138(5) 0.8612(6)
H6_8 H 0.5875 0.2194 0.8819
C11_8 C 0.5492(3) 0.2038(4) 0.7971(5)
H7_8 H 0.5405 0.2016 0.7750
C12_8 C 0.5779(3) 0.1882(3) 0.8068(4)
C13_8 C 0.5929(3) 0.1920(4) 0.8404(4)
H8_8 H 0.6116 0.1807 0.8476
C14_8 C 0.5937(2) 0.1647(3) 0.7845(3)
O3_8 O 0.5308(2) 0.2469(4) 0.8745(5)
C21_5 C 0.5897(2) 0.0813(2) 0.7765(3)
C22_5 C 0.5736(3) 0.0449(3) 0.8234(3)
C23_5 C 0.5532(3) 0.0245(3) 0.8381(3)
C24_5 C 0.5220(3) 0.0193(3) 0.8234(3)
C25_5 C 0.5348(3) 0.0534(3) 0.7784(3)
C26_5 C 0.5128(3) 0.0333(3) 0.7934(3)
H11_5 H 0.4919 0.0292 0.7833
H12_5 H 0.5285 0.0636 0.7583
C28_5 C 0.5664(2) 0.0591(3) 0.7924(3)
H13_5 H 0.5938 0.0498 0.8344
H15_5 H 0.5597 0.0141 0.8579
O11_9 O 0.5000 -0.0000 0.8413(3)
C37_6 C 0.7005(4) 0.0155(6) 0.6479(8)
C38_6 C 0.6620(3) 0.0593(5) 0.6509(4)
C39_6 C 0.6749(4) 0.0368(6) 0.6307(6)
C41_6 C 0.6712(3) 0.0631(3) 0.6841(3)
C42_6 C 0.6548(2) 0.0860(3) 0.7074(3)
C43_6 C 0.6980(3) 0.0458(4) 0.6953(4)
C45_6 C 0.7128(4) 0.0219(5) 0.6772(6)
H26_6 H 0.7310 0.0111 0.6861
H27_6 H 0.6462 0.0726 0.6414
H28_6 H 0.6686 0.0345 0.6077
H31_6 H 0.7070 0.0505 0.7168
O11_10 O 0.5000 1.0000 0.8413(3)
O12_6 O 0.7192(2) 0.9969(4) 0.6245(5)
C40_6 C 0.7016(4) 0.9765(6) 0.6020(7)
C44_6 C 0.7162(4) 0.9729(5) 0.5709(7)
H25_6 H 0.7363 0.9829 0.5655
C46_6 C 0.6726(4) 0.9638(5) 0.6112(6)
C47_6 C 0.7008(3) 0.9538(4) 0.5471(5)
H29_6 H 0.6625 0.9694 0.6319
C48_6 C 0.6571(3) 0.9420(4) 0.5904(4)
H30_6 H 0.7095 0.9516 0.5250
C49_6 C 0.6721(3) 0.9382(3) 0.5568(4)
C50_6 C 0.6563(2) 0.9147(3) 0.5345(3)
H32_6 H 0.6384 0.9307 0.5976
C52_5 C 0.4780(3) 0.9807(3) 0.8234(3)
C58_5 C 0.4468(3) 0.9755(3) 0.8381(3)
C59_5 C 0.4103(2) 0.9187(2) 0.7765(3)
H35_5 H 0.4403 0.9859 0.8579
C61_5 C 0.4872(3) 0.9667(3) 0.7934(3)
C62_5 C 0.4264(3) 0.9551(3) 0.8234(3)
H37_5 H 0.4062 0.9502 0.8344
C63_5 C 0.4652(3) 0.9466(3) 0.7784(3)
C64_5 C 0.4336(2) 0.9409(3) 0.7924(3)
H38_5 H 0.5081 0.9708 0.7833
H40_5 H 0.4715 0.9364 0.7583
C1_9 C 0.6548(2) 0.5860(3) 0.2074(3)
C2_9 C 0.6712(3) 0.5631(3) 0.1841(3)
C3_9 C 0.6980(3) 0.5458(4) 0.1953(4)
H1_9 H 0.7070 0.5505 0.2168
C4_9 C 0.6620(3) 0.5593(5) 0.1509(4)
H2_9 H 0.6462 0.5726 0.1414
C5_9 C 0.7128(4) 0.5219(5) 0.1772(6)
H3_9 H 0.7310 0.5111 0.1861
C6_9 C 0.6749(4) 0.5368(6) 0.1307(6)
H4_9 H 0.6686 0.5345 0.1077
C7_9 C 0.7005(4) 0.5155(6) 0.1479(8)
C8_9 C 0.7016(4) 0.4765(6) 0.1020(7)
C9_9 C 0.7162(4) 0.4729(5) 0.0709(7)
H5_9 H 0.7363 0.4829 0.0655
C10_9 C 0.6726(4) 0.4638(5) 0.1112(6)
H6_9 H 0.6625 0.4694 0.1319
C11_9 C 0.7008(3) 0.4538(4) 0.0471(5)
H7_9 H 0.7095 0.4516 0.0250
C12_9 C 0.6721(3) 0.4382(3) 0.0568(4)
C13_9 C 0.6571(3) 0.4420(4) 0.0904(4)
H8_9 H 0.6384 0.4307 0.0976
C14_9 C 0.6563(2) 0.4147(3) 0.0345(3)
O3_9 O 0.7192(2) 0.4969(4) 0.1245(5)
C21_6 C 0.6603(2) 0.3313(2) 0.0265(3)
C22_6 C 0.6764(3) 0.2949(3) 0.0734(3)
C23_6 C 0.6968(3) 0.2745(3) 0.0881(3)
C24_6 C 0.7280(3) 0.2693(3) 0.0734(3)
C25_6 C 0.7152(3) 0.3034(3) 0.0284(3)
C26_6 C 0.7372(3) 0.2833(3) 0.0434(3)
H11_6 H 0.7581 0.2792 0.0333
H12_6 H 0.7215 0.3136 0.0083
C28_6 C 0.6836(2) 0.3091(3) 0.0424(3)
H13_6 H 0.6562 0.2998 0.0844
H15_6 H 0.6903 0.2641 0.1079
O11_11 O 0.7500 0.2500 0.0913(3)
C52_6 C 0.7720(3) 0.2307(3) 0.0734(3)
C58_6 C 0.8032(3) 0.2255(3) 0.0881(3)
C59_6 C 0.8397(2) 0.1687(2) 0.0265(3)
H35_6 H 0.8097 0.2359 0.1079
C61_6 C 0.7628(3) 0.2167(3) 0.0434(3)
C62_6 C 0.8236(3) 0.2051(3) 0.0734(3)
H37_6 H 0.8438 0.2002 0.0844
C63_6 C 0.7848(3) 0.1966(3) 0.0284(3)
C64_6 C 0.8164(2) 0.1909(3) 0.0424(3)
H38_6 H 0.7419 0.2208 0.0333
H40_6 H 0.7785 0.1864 0.0083
C1_10 C 0.5952(2) 0.8360(3) 0.4574(3)
C2_10 C 0.5788(3) 0.8131(3) 0.4341(3)
C3_10 C 0.5520(3) 0.7958(4) 0.4453(4)
H1_10 H 0.5430 0.8005 0.4668
C4_10 C 0.5880(3) 0.8093(5) 0.4009(4)
H2_10 H 0.6038 0.8226 0.3914
C5_10 C 0.5372(4) 0.7719(5) 0.4272(6)
H3_10 H 0.5190 0.7611 0.4361
C6_10 C 0.5751(4) 0.7868(6) 0.3807(6)
H4_10 H 0.5814 0.7845 0.3577
C7_10 C 0.5495(4) 0.7655(6) 0.3979(8)
C8_10 C 0.5484(4) 0.7265(6) 0.3520(7)
C9_10 C 0.5338(4) 0.7229(5) 0.3209(7)
H5_10 H 0.5137 0.7329 0.3155
C10_10 C 0.5774(4) 0.7138(5) 0.3612(6)
H6_10 H 0.5875 0.7194 0.3819
C11_10 C 0.5492(3) 0.7038(4) 0.2971(5)
H7_10 H 0.5405 0.7016 0.2750
C12_10 C 0.5779(3) 0.6882(3) 0.3068(4)
C13_10 C 0.5929(3) 0.6920(4) 0.3404(4)
H8_10 H 0.6116 0.6807 0.3476
C14_10 C 0.5937(2) 0.6647(3) 0.2845(3)
O3_10 O 0.5308(2) 0.7469(4) 0.3745(5)
C21_7 C 0.5897(2) 0.5813(2) 0.2765(3)
C22_7 C 0.5736(3) 0.5449(3) 0.3234(3)
C23_7 C 0.5532(3) 0.5245(3) 0.3381(3)
C24_7 C 0.5220(3) 0.5193(3) 0.3234(3)
C25_7 C 0.5348(3) 0.5534(3) 0.2784(3)
C26_7 C 0.5128(3) 0.5333(3) 0.2934(3)
H11_7 H 0.4919 0.5292 0.2833
H12_7 H 0.5285 0.5636 0.2583
C28_7 C 0.5664(2) 0.5591(3) 0.2924(3)
H13_7 H 0.5938 0.5498 0.3344
H15_7 H 0.5597 0.5141 0.3579
O11_12 O 0.5000 0.5000 0.3413(3)
C52_7 C 0.4780(3) 0.4807(3) 0.3234(3)
C58_7 C 0.4468(3) 0.4755(3) 0.3381(3)
C59_7 C 0.4103(2) 0.4187(2) 0.2765(3)
H35_7 H 0.4403 0.4859 0.3579
C61_7 C 0.4872(3) 0.4667(3) 0.2934(3)
C62_7 C 0.4264(3) 0.4551(3) 0.3234(3)
H37_7 H 0.4062 0.4502 0.3344
C63_7 C 0.4652(3) 0.4466(3) 0.2784(3)
C64_7 C 0.4336(2) 0.4409(3) 0.2924(3)
H38_7 H 0.5081 0.4708 0.2833
H40_7 H 0.4715 0.4364 0.2583
C21_8 C 0.6603(2) 0.8313(2) 0.5265(3)
C22_8 C 0.6764(3) 0.7949(3) 0.5734(3)
C23_8 C 0.6968(3) 0.7745(3) 0.5881(3)
C24_8 C 0.7280(3) 0.7693(3) 0.5734(3)
C25_8 C 0.7152(3) 0.8034(3) 0.5284(3)
C26_8 C 0.7372(3) 0.7833(3) 0.5434(3)
H11_8 H 0.7581 0.7792 0.5333
H12_8 H 0.7215 0.8136 0.5083
C28_8 C 0.6836(2) 0.8091(3) 0.5424(3)
H13_8 H 0.6562 0.7998 0.5844
H15_8 H 0.6903 0.7641 0.6079
O11_13 O 0.7500 0.7500 0.5913(3)
C52_8 C 0.7720(3) 0.7307(3) 0.5734(3)
C58_8 C 0.8032(3) 0.7255(3) 0.5881(3)
C59_8 C 0.8397(2) 0.6687(2) 0.5265(3)
H35_8 H 0.8097 0.7359 0.6079
C61_8 C 0.7628(3) 0.7167(3) 0.5434(3)
C62_8 C 0.8236(3) 0.7051(3) 0.5734(3)
H37_8 H 0.8438 0.7002 0.5844
C63_8 C 0.7848(3) 0.6966(3) 0.5284(3)
C64_8 C 0.8164(2) 0.6909(3) 0.5424(3)
H38_8 H 0.7419 0.7208 0.5333
H40_8 H 0.7785 0.6864 0.5083
O10_12 O 0.0000 0.0000 0.9050(4)
H34_8 H 0.0101 0.0324 0.9590
H10_8 H 0.9899 0.9676 0.9590
O10_13 O 1.0000 1.0000 0.9050(4)
Zn13 Zn 0.18100(3) 0.37087(3) 0.22651(3)
N15 N 0.21794(19) 0.3641(2) 0.1892(2)
O27 O 0.19651(18) 0.41020(18) 0.2506(2)
O28 O 0.1476(2) 0.3973(2) 0.1977(2)
O29 O 0.14764(18) 0.33580(19) 0.21574(19)
O30 O 0.19974(17) 0.34615(17) 0.26699(18)
C73 C 0.2505(2) 0.3728(3) 0.1947(3)
C74 C 0.2109(3) 0.3537(4) 0.1573(3)
C75 C 0.1800(2) 0.4264(3) 0.2717(3)
C76 C 0.1207(3) 0.4104(3) 0.2020(4)
C77 C 0.1177(3) 0.3331(3) 0.2244(3)
C78 C 0.1810(2) 0.3450(2) 0.2929(3)
N16 N 0.25943(19) 0.3832(3) 0.2252(2)
N17 N 0.27484(19) 0.3707(2) 0.1707(2)
N18 N 0.1804(3) 0.3429(4) 0.1499(3)
N19 N 0.2335(2) 0.3520(3) 0.1329(2)
C79 C 0.1989(2) 0.4553(3) 0.2854(3)
O31 O 0.15196(16) 0.42193(18) 0.2828(2)
C80 C 0.1061(4) 0.4245(4) 0.1699(4)
O32 O 0.1028(2) 0.4100(2) 0.2287(2)
C81 C 0.0985(3) 0.3073(3) 0.2067(3)
O33 O 0.10178(18) 0.3484(2) 0.2452(2)
C82 C 0.1919(3) 0.3257(2) 0.3228(3)
O34 O 0.15329(19) 0.3590(2) 0.29530(19)
H49 H 0.2801 0.3882 0.2291
H50 H 0.2446 0.3849 0.2413
C83 C 0.2640(3) 0.3607(3) 0.1399(3)
H51 H 0.1764 0.3353 0.1298
H52 H 0.1646 0.3435 0.1652
C84 C 0.2304(3) 0.4623(3) 0.2716(4)
C85 C 0.1836(3) 0.4724(3) 0.3088(3)
Zn14 Zn 0.12083(3) 0.38659(3) 0.26939(3)
C86 C 0.1214(5) 0.4240(5) 0.1392(4)
C87 C 0.0745(4) 0.4434(4) 0.1755(5)
C88 C 0.0649(3) 0.3017(3) 0.2166(4)
C89 C 0.1123(3) 0.2900(3) 0.1798(3)
C90 C 0.2207(3) 0.3106(3) 0.3245(3)
C91 C 0.1696(3) 0.3240(4) 0.3502(4)
C92 C 0.2897(3) 0.3598(3) 0.1110(3)
H53 H 0.2406 0.4503 0.2547
C93 C 0.2460(3) 0.4894(4) 0.2855(4)
H54 H 0.1628 0.4666 0.3176
C94 C 0.1992(3) 0.4993(3) 0.3202(3)
N20 N 0.08587(19) 0.3905(2) 0.3083(2)
H55 H 0.1419 0.4137 0.1374
C95 C 0.1085(6) 0.4378(6) 0.1098(5)
H56 H 0.0639 0.4451 0.1968
C96 C 0.0625(5) 0.4582(5) 0.1457(6)
H57 H 0.0547 0.3135 0.2337
C97 C 0.0471(3) 0.2780(4) 0.2004(4)
H58 H 0.1344 0.2941 0.1732
C98 C 0.0950(3) 0.2673(3) 0.1626(3)
H59 H 0.2357 0.3117 0.3061
C99 C 0.2290(3) 0.2934(3) 0.3529(4)
H60 H 0.1486 0.3334 0.3489
C100 C 0.1798(3) 0.3072(4) 0.3815(4)
C101 C 0.2803(3) 0.3575(4) 0.0789(3)
C102 C 0.3242(2) 0.3629(3) 0.1181(3)
H61 H 0.2675 0.4951 0.2782
C103 C 0.2306(3) 0.5057(4) 0.3077(3)
H62 H 0.1885 0.5123 0.3358
H63 H 0.1192 0.4360 0.0885
C104 C 0.0798(6) 0.4538(6) 0.1137(6)
H64 H 0.0435 0.4707 0.1468
H65 H 0.0254 0.2730 0.2075
C105 C 0.0629(3) 0.2616(3) 0.1726(3)
H66 H 0.1051 0.2563 0.1448
H67 H 0.2491 0.2824 0.3528
C106 C 0.2089(3) 0.2919(3) 0.3808(4)
H68 H 0.1662 0.3072 0.4010
H69 H 0.2574 0.3561 0.0737
C107 C 0.3035(3) 0.3572(4) 0.0524(3)
H70 H 0.3319 0.3665 0.1404
C108 C 0.3458(3) 0.3606(3) 0.0915(3)
O35 O 0.2439(3) 0.5326(2) 0.3236(3)
O36 O 0.0635(3) 0.4682(4) 0.0851(4)
O37 O 0.0452(3) 0.2406(3) 0.1529(2)
O38 O 0.2181(3) 0.2776(2) 0.4098(3)
H71 H 0.2959 0.3552 0.0298
H72 H 0.3688 0.3596 0.0962
C109 C 0.2712(3) 0.5482(3) 0.3074(4)
C110 C 0.0786(4) 0.4945(5) 0.0703(5)
C111 C 0.0183(3) 0.2246(3) 0.1672(3)
C112 C 0.2034(3) 0.2507(3) 0.4199(3)
C113 C 0.2702(4) 0.5571(4) 0.2743(4)
C114 C 0.2967(4) 0.5558(4) 0.3283(4)
C115 C 0.0677(4) 0.5017(4) 0.0386(4)
C116 C 0.1049(5) 0.5091(5) 0.0839(4)
C118 C 0.0213(3) 0.2090(3) 0.1967(3)
C119 C 0.2071(3) 0.2421(3) 0.4530(3)
C120 C 0.1883(3) 0.2331(3) 0.3968(3)
H73 H 0.2526 0.5507 0.2601
C121 C 0.2949(3) 0.5754(3) 0.2615(3)
H74 H 0.2962 0.5501 0.3514
C122 C 0.3239(4) 0.5721(4) 0.3153(4)
H75 H 0.0500 0.4910 0.0285
C123 C 0.0837(4) 0.5258(4) 0.0208(4)
H76 H 0.1141 0.5025 0.1047
C124 C 0.1186(4) 0.5342(4) 0.0671(4)
H78 H 0.0411 0.2111 0.2094
H79 H 0.2172 0.2556 0.4685
C127 C 0.1967(3) 0.2151(3) 0.4640(3)
H80 H 0.1867 0.2390 0.3738
C128 C 0.1743(3) 0.2041(3) 0.4090(3)
H81 H 0.2929 0.5831 0.2392
C129 C 0.3224(3) 0.5828(3) 0.2808(3)
H82 H 0.3427 0.5760 0.3289
C130 C 0.1073(3) 0.5424(3) 0.0358(3)
H84 H 0.1357 0.5455 0.0775
H87 H 0.2005 0.2095 0.4868
C132 C 0.1798(3) 0.1943(3) 0.4414(3)
H88 H 0.1614 0.1922 0.3942
C133 C 0.3508(3) 0.6009(3) 0.2661(3)
C134 C 0.1234(3) 0.5685(3) 0.0171(3)
C136 C 0.1669(3) 0.1649(3) 0.4544(3)
O39 O 0.34747(19) 0.61110(19) 0.2365(2)
O40 O 0.37672(19) 0.6055(2) 0.2846(2)
O41 O 0.1465(2) 0.58209(19) 0.0330(2)
O45 O 0.14840(19) 0.14833(17) 0.43565(19)
O46 O 0.1759(2) 0.15747(19) 0.4844(2)
Zn15 Zn 0.37371(3) 0.63927(3) 0.20374(3)
Zn16 Zn 0.41720(3) 0.62807(3) 0.26561(3)
N27 N 0.33587(19) 0.3595(2) 0.0583(2)
Zn17 Zn 0.37083(3) 0.36341(3) 0.01939(3)
Zn18 Zn 0.16720(3) 0.62193(3) 0.01561(3)
Zn22 Zn 0.12371(3) 0.11073(3) 0.45374(3)
Zn23 Zn 0.16720(3) 0.12193(3) 0.51561(3)
H83 H 0.0776 0.5300 0.9982
O42 O 0.11177(19) 0.57569(19) 0.98920(19)
Zn19 Zn 0.12371(3) 0.61073(3) 0.95374(3)
C117 C 0.9900(3) 0.2221(3) 0.1484(3)
H77 H 0.9877 0.2328 0.1278
C125 C 0.9637(3) 0.2029(3) 0.1605(3)
C126 C 0.9969(3) 0.1903(3) 0.2090(3)
H85 H 0.9441 0.2009 0.1474
C131 C 0.9662(2) 0.1880(3) 0.1895(3)
H86 H 0.9999 0.1794 0.2294
C135 C 0.9392(2) 0.1679(3) 0.2038(3)
O43 O 0.91251(17) 0.16495(17) 0.18523(19)
O44 O 0.94439(19) 0.15454(19) 0.2312(2)
N21 N 0.83610(19) 0.1454(2) 0.1672(2)
N22 N 0.9553(2) 0.1190(2) 0.3015(2)
C137 C 0.8405(3) 0.1398(3) 0.1346(3)
C138 C 0.8039(3) 0.1534(3) 0.1757(3)
N23 N 0.8722(2) 0.1354(4) 0.1212(3)
N24 N 0.8152(2) 0.1374(3) 0.1106(2)
N25 N 0.7974(3) 0.1617(4) 0.2069(3)
N26 N 0.7778(2) 0.1519(3) 0.1548(2)
H89 H 0.8896 0.1364 0.1344
H90 H 0.8747 0.1317 0.0996
C139 C 0.7863(2) 0.1424(3) 0.1222(3)
H91 H 0.7769 0.1658 0.2129
H92 H 0.8134 0.1631 0.2217
C140 C 0.7576(2) 0.1391(3) 0.0963(3)
C141 C 0.7632(2) 0.1268(3) 0.0662(3)
C142 C 0.7250(3) 0.1495(3) 0.1048(3)
H93 H 0.7847 0.1201 0.0603
C143 C 0.7364(3) 0.1236(3) 0.0428(3)
H94 H 0.7208 0.1598 0.1253
C144 C 0.6986(3) 0.1437(3) 0.0806(3)
H95 H 0.7407 0.1162 0.0208
H96 H 0.6765 0.1492 0.0859
Zn20 Zn 0.87371(3) 0.13927(3) 0.20374(3)
Zn21 Zn 0.91720(3) 0.12807(3) 0.26561(3)
O47 O 0.84747(19) 0.11110(19) 0.2365(2)
O48 O 0.86177(19) 0.17431(19) 0.23920(19)
O49 O 0.89840(19) 0.10167(17) 0.18565(19)
O50 O 0.87672(19) 0.1055(2) 0.2846(2)
O51 O 0.8965(2) 0.16791(19) 0.2830(2)
O52 O 0.9259(2) 0.09253(19) 0.2344(2)
N28 N 0.7053(2) 0.1310(2) 0.0515(2)
Zn24 Zn 0.66720(3) 0.12193(3) 0.01561(3)
O37_2 O 0.2952(3) 0.0094(3) 0.4029(2)
C111_2 C 0.2683(3) 0.0254(3) 0.4172(3)
C117_2 C 0.2400(3) 0.0279(3) 0.3984(3)
C118_2 C 0.2713(3) 0.0410(3) 0.4467(3)
C119_2 C 0.4571(3) 0.0079(3) 0.7030(3)
C120_2 C 0.4383(3) 0.0169(3) 0.6468(3)
H77_2 H 0.2377 0.0172 0.3778
C125_2 C 0.2137(3) 0.0471(3) 0.4105(3)
H78_2 H 0.2911 0.0389 0.4594
C126_2 C 0.2469(3) 0.0597(3) 0.4590(3)
C127_2 C 0.4467(3) 0.0349(3) 0.7140(3)
H80_2 H 0.4367 0.0110 0.6238
C128_2 C 0.4243(3) 0.0459(3) 0.6590(3)
H85_2 H 0.1941 0.0491 0.3974
C131_2 C 0.2162(2) 0.0620(3) 0.4395(3)
H86_2 H 0.2499 0.0706 0.4794
H87_2 H 0.4505 0.0405 0.7368
C132_2 C 0.4298(3) 0.0557(3) 0.6914(3)
H88_2 H 0.4114 0.0578 0.6442
C135_2 C 0.1892(2) 0.0821(3) 0.4538(3)
C136_2 C 0.4169(3) 0.0851(3) 0.7044(3)
O43_2 O 0.16251(17) 0.08505(17) 0.43523(19)
O44_2 O 0.19439(19) 0.09546(19) 0.4812(2)
O45_2 O 0.39840(19) 0.10167(17) 0.68565(19)
O46_2 O 0.4259(2) 0.09253(19) 0.7344(2)
N21_2 N 0.08610(19) 0.1046(2) 0.4172(2)
N22_2 N 0.2053(2) 0.1310(2) 0.5515(2)
C137_2 C 0.0905(3) 0.1102(3) 0.3846(3)
C138_2 C 0.0539(3) 0.0966(3) 0.4257(3)
N23_2 N 0.1222(2) 0.1146(4) 0.3712(3)
N24_2 N 0.0652(2) 0.1126(3) 0.3606(2)
N25_2 N 0.0474(3) 0.0883(4) 0.4569(3)
N26_2 N 0.0278(2) 0.0981(3) 0.4048(2)
H89_2 H 0.1396 0.1136 0.3844
H90_2 H 0.1247 0.1183 0.3496
C139_2 C 0.0363(2) 0.1076(3) 0.3722(3)
H91_2 H 0.0269 0.0842 0.4629
H92_2 H 0.0634 0.0869 0.4717
C140_2 C 0.0076(2) 0.1109(3) 0.3463(3)
C141_2 C 0.0132(2) 0.1232(3) 0.3162(3)
H93_2 H 0.0347 0.1299 0.3103
Zn22_2 Zn 0.37371(3) 0.13927(3) 0.70374(3)
Zn23_2 Zn 0.41720(3) 0.12807(3) 0.76561(3)
O47_2 O 0.09747(19) 0.13890(19) 0.4865(2)
O48_2 O 0.11177(19) 0.07569(19) 0.48920(19)
O50_2 O 0.12672(19) 0.1445(2) 0.5346(2)
O51_2 O 0.1465(2) 0.08209(19) 0.5330(2)
Zn13_2 Zn 0.43100(3) 0.87913(3) 0.47651(3)
N15_2 N 0.46794(19) 0.8859(2) 0.4392(2)
O27_2 O 0.44651(18) 0.83980(18) 0.5006(2)
O28_2 O 0.3976(2) 0.8527(2) 0.4477(2)
O29_2 O 0.39764(18) 0.91420(19) 0.46574(19)
O30_2 O 0.44974(17) 0.90385(17) 0.51699(18)
C73_2 C 0.5005(2) 0.8772(3) 0.4447(3)
C74_2 C 0.4609(3) 0.8963(4) 0.4073(3)
C75_2 C 0.4300(2) 0.8236(3) 0.5217(3)
C76_2 C 0.3707(3) 0.8396(3) 0.4520(4)
C77_2 C 0.3677(3) 0.9169(3) 0.4744(3)
C78_2 C 0.4310(2) 0.9050(2) 0.5429(3)
N16_2 N 0.50943(19) 0.8668(3) 0.4752(2)
N17_2 N 0.52484(19) 0.8793(2) 0.4207(2)
N18_2 N 0.4304(3) 0.9071(4) 0.3999(3)
N19_2 N 0.4835(2) 0.8980(3) 0.3829(2)
C79_2 C 0.4489(2) 0.7947(3) 0.5354(3)
O31_2 O 0.40196(16) 0.82807(18) 0.5328(2)
C80_2 C 0.3561(4) 0.8255(4) 0.4199(4)
O32_2 O 0.3528(2) 0.8400(2) 0.4787(2)
C81_2 C 0.3485(3) 0.9427(3) 0.4567(3)
O33_2 O 0.35178(18) 0.9016(2) 0.4952(2)
C82_2 C 0.4419(3) 0.9243(2) 0.5728(3)
O34_2 O 0.40329(19) 0.8910(2) 0.54530(19)
H49_2 H 0.5301 0.8618 0.4791
H50_2 H 0.4946 0.8651 0.4913
C83_2 C 0.5140(3) 0.8893(3) 0.3899(3)
H51_2 H 0.4264 0.9147 0.3798
H52_2 H 0.4146 0.9065 0.4152
C84_2 C 0.4804(3) 0.7877(3) 0.5216(4)
C85_2 C 0.4336(3) 0.7776(3) 0.5588(3)
Zn14_2 Zn 0.37083(3) 0.86341(3) 0.51939(3)
C86_2 C 0.3714(5) 0.8260(5) 0.3892(4)
C87_2 C 0.3245(4) 0.8066(4) 0.4255(5)
C88_2 C 0.3149(3) 0.9483(3) 0.4666(4)
C89_2 C 0.3623(3) 0.9600(3) 0.4298(3)
C90_2 C 0.4707(3) 0.9394(3) 0.5745(3)
C91_2 C 0.4196(3) 0.9260(4) 0.6002(4)
C92_2 C 0.5397(3) 0.8902(3) 0.3610(3)
H53_2 H 0.4906 0.7997 0.5047
C93_2 C 0.4960(3) 0.7606(4) 0.5355(4)
H54_2 H 0.4128 0.7834 0.5676
C94_2 C 0.4492(3) 0.7507(3) 0.5702(3)
N20_2 N 0.33587(19) 0.8595(2) 0.5583(2)
H55_2 H 0.3919 0.8363 0.3874
C95_2 C 0.3585(6) 0.8122(6) 0.3598(5)
H56_2 H 0.3139 0.8049 0.4468
C96_2 C 0.3125(5) 0.7918(5) 0.3957(6)
H57_2 H 0.3047 0.9365 0.4837
C97_2 C 0.2971(3) 0.9720(4) 0.4504(4)
H58_2 H 0.3844 0.9559 0.4232
C98_2 C 0.3450(3) 0.9827(3) 0.4126(3)
H59_2 H 0.4857 0.9383 0.5561
C99_2 C 0.4790(3) 0.9566(3) 0.6029(4)
H60_2 H 0.3986 0.9166 0.5989
C100_2 C 0.4298(3) 0.9428(4) 0.6315(4)
C101_2 C 0.5303(3) 0.8925(4) 0.3289(3)
C102_2 C 0.5742(2) 0.8871(3) 0.3681(3)
H61_2 H 0.5175 0.7549 0.5282
C103_2 C 0.4806(3) 0.7443(4) 0.5577(3)
H62_2 H 0.4385 0.7377 0.5858
H63_2 H 0.3692 0.8140 0.3385
C104_2 C 0.3298(6) 0.7962(6) 0.3637(6)
H64_2 H 0.2935 0.7793 0.3968
H65_2 H 0.2754 0.9770 0.4575
C105_2 C 0.3129(3) 0.9884(3) 0.4226(3)
H66_2 H 0.3551 0.9937 0.3948
H67_2 H 0.4991 0.9676 0.6028
C106_2 C 0.4589(3) 0.9581(3) 0.6308(4)
H68_2 H 0.4162 0.9428 0.6510
H69_2 H 0.5074 0.8939 0.3237
C107_2 C 0.5535(3) 0.8928(4) 0.3024(3)
H70_2 H 0.5819 0.8835 0.3904
C108_2 C 0.5958(3) 0.8894(3) 0.3415(3)
O35_2 O 0.4939(3) 0.7174(2) 0.5736(3)
O36_2 O 0.3135(3) 0.7818(4) 0.3351(4)
O38_2 O 0.4681(3) 0.9724(2) 0.6598(3)
H71_2 H 0.5459 0.8948 0.2798
H72_2 H 0.6188 0.8904 0.3462
C109_2 C 0.5212(3) 0.7018(3) 0.5574(4)
C110_2 C 0.3286(4) 0.7555(5) 0.3203(5)
C112_2 C 0.4534(3) 0.9993(3) 0.6699(3)
C113_2 C 0.5202(4) 0.6929(4) 0.5243(4)
C114_2 C 0.5467(4) 0.6942(4) 0.5783(4)
C115_2 C 0.3177(4) 0.7483(4) 0.2886(4)
C116_2 C 0.3549(5) 0.7409(5) 0.3339(4)
H73_2 H 0.5026 0.6993 0.5101
C121_2 C 0.5449(3) 0.6746(3) 0.5115(3)
H74_2 H 0.5462 0.6999 0.6014
C122_2 C 0.5739(4) 0.6779(4) 0.5653(4)
H75_2 H 0.3000 0.7590 0.2785
C123_2 C 0.3337(4) 0.7242(4) 0.2708(4)
H76_2 H 0.3641 0.7475 0.3547
C124_2 C 0.3686(4) 0.7158(4) 0.3171(4)
H79_2 H 0.4672 0.9944 0.7185
H81_2 H 0.5429 0.6669 0.4892
C129_2 C 0.5724(3) 0.6672(3) 0.5308(3)
H82_2 H 0.5927 0.6740 0.5789
H83_2 H 0.3276 0.7200 0.2482
C130_2 C 0.3573(3) 0.7076(3) 0.2858(3)
H84_2 H 0.3857 0.7045 0.3275
C133_2 C 0.6008(3) 0.6491(3) 0.5161(3)
C134_2 C 0.3734(3) 0.6815(3) 0.2671(3)
O39_2 O 0.59747(19) 0.63890(19) 0.4865(2)
O40_2 O 0.62672(19) 0.6445(2) 0.5346(2)
O41_2 O 0.3965(2) 0.66791(19) 0.2830(2)
O42_2 O 0.36177(19) 0.67431(19) 0.23920(19)
Zn15_2 Zn 0.62371(3) 0.61073(3) 0.45374(3)
Zn16_2 Zn 0.66720(3) 0.62193(3) 0.51561(3)
N27_2 N 0.58587(19) 0.8905(2) 0.3083(2)
Zn17_2 Zn 0.62083(3) 0.88659(3) 0.26939(3)
C142_2 C 0.9750(3) 0.1005(3) 0.3548(3)
C143_2 C 0.9864(3) 0.1264(3) 0.2928(3)
H94_2 H 0.9708 0.0902 0.3753
C144_2 C 0.9486(3) 0.1063(3) 0.3306(3)
H95_2 H 0.9907 0.1338 0.2708
H96_2 H 0.9265 0.1008 0.3359
C103_3 C 0.2306(3) 0.0057(4) 0.8077(3)
H62_3 H 0.1885 0.0123 0.8358
O35_3 O 0.2439(3) 0.0326(2) 0.8236(3)
C109_3 C 0.2712(3) 0.0482(3) 0.8074(4)
C113_3 C 0.2702(4) 0.0571(4) 0.7743(4)
C114_3 C 0.2967(4) 0.0558(4) 0.8283(4)
C115_3 C 0.0677(4) 0.0017(4) 0.5386(4)
C116_3 C 0.1049(5) 0.0091(5) 0.5839(4)
H73_3 H 0.2526 0.0507 0.7601
C121_3 C 0.2949(3) 0.0754(3) 0.7615(3)
H74_3 H 0.2962 0.0501 0.8514
C122_3 C 0.3239(4) 0.0721(4) 0.8153(4)
C123_3 C 0.0837(4) 0.0258(4) 0.5208(4)
H76_3 H 0.1141 0.0025 0.6047
C124_3 C 0.1186(4) 0.0342(4) 0.5671(4)
H81_3 H 0.2929 0.0831 0.7392
C129_3 C 0.3224(3) 0.0828(3) 0.7808(3)
H82_3 H 0.3427 0.0760 0.8289
H83_3 H 0.0776 0.0300 0.4982
C130_3 C 0.1073(3) 0.0424(3) 0.5358(3)
H84_3 H 0.1357 0.0455 0.5775
C133_3 C 0.3508(3) 0.1009(3) 0.7661(3)
C134_3 C 0.1234(3) 0.0685(3) 0.5171(3)
O39_3 O 0.34747(19) 0.11110(19) 0.7365(2)
O40_3 O 0.37672(19) 0.1055(2) 0.7846(2)
Zn13_3 Zn 0.18100(3) 0.87087(3) 0.72651(3)
N15_3 N 0.21794(19) 0.8641(2) 0.6892(2)
O27_3 O 0.19651(18) 0.91020(18) 0.7506(2)
O28_3 O 0.1476(2) 0.8973(2) 0.6977(2)
O29_3 O 0.14764(18) 0.83580(19) 0.71574(19)
O30_3 O 0.19974(17) 0.84615(17) 0.76699(18)
C73_3 C 0.2505(2) 0.8728(3) 0.6947(3)
C74_3 C 0.2109(3) 0.8537(4) 0.6573(3)
C75_3 C 0.1800(2) 0.9264(3) 0.7717(3)
C76_3 C 0.1207(3) 0.9104(3) 0.7020(4)
C77_3 C 0.1177(3) 0.8331(3) 0.7244(3)
C78_3 C 0.1810(2) 0.8450(2) 0.7929(3)
N16_3 N 0.25943(19) 0.8832(3) 0.7252(2)
N17_3 N 0.27484(19) 0.8707(2) 0.6707(2)
N18_3 N 0.1804(3) 0.8429(4) 0.6499(3)
N19_3 N 0.2335(2) 0.8520(3) 0.6329(2)
C79_3 C 0.1989(2) 0.9553(3) 0.7854(3)
O31_3 O 0.15196(16) 0.92193(18) 0.7828(2)
C80_3 C 0.1061(4) 0.9245(4) 0.6699(4)
O32_3 O 0.1028(2) 0.9100(2) 0.7287(2)
C81_3 C 0.0985(3) 0.8073(3) 0.7067(3)
O33_3 O 0.10178(18) 0.8484(2) 0.7452(2)
C82_3 C 0.1919(3) 0.8257(2) 0.8228(3)
O34_3 O 0.15329(19) 0.8590(2) 0.79530(19)
H49_3 H 0.2801 0.8882 0.7291
H50_3 H 0.2446 0.8849 0.7413
C83_3 C 0.2640(3) 0.8607(3) 0.6399(3)
H51_3 H 0.1764 0.8353 0.6298
H52_3 H 0.1646 0.8435 0.6652
C84_3 C 0.2304(3) 0.9623(3) 0.7716(4)
C85_3 C 0.1836(3) 0.9724(3) 0.8088(3)
Zn14_3 Zn 0.12083(3) 0.88659(3) 0.76939(3)
C86_3 C 0.1214(5) 0.9240(5) 0.6392(4)
C87_3 C 0.0745(4) 0.9434(4) 0.6755(5)
C88_3 C 0.0649(3) 0.8017(3) 0.7166(4)
C89_3 C 0.1123(3) 0.7900(3) 0.6798(3)
C90_3 C 0.2207(3) 0.8106(3) 0.8245(3)
C91_3 C 0.1696(3) 0.8240(4) 0.8502(4)
C92_3 C 0.2897(3) 0.8598(3) 0.6110(3)
H53_3 H 0.2406 0.9503 0.7547
C93_3 C 0.2460(3) 0.9894(4) 0.7855(4)
H54_3 H 0.1628 0.9666 0.8176
C94_3 C 0.1992(3) 0.9993(3) 0.8202(3)
N20_3 N 0.08587(19) 0.8905(2) 0.8083(2)
H55_3 H 0.1419 0.9137 0.6374
C95_3 C 0.1085(6) 0.9378(6) 0.6098(5)
H56_3 H 0.0639 0.9451 0.6968
C96_3 C 0.0625(5) 0.9582(5) 0.6457(6)
H57_3 H 0.0547 0.8135 0.7337
C97_3 C 0.0471(3) 0.7780(4) 0.7004(4)
H58_3 H 0.1344 0.7941 0.6732
C98_3 C 0.0950(3) 0.7673(3) 0.6626(3)
H59_3 H 0.2357 0.8117 0.8061
C99_3 C 0.2290(3) 0.7934(3) 0.8529(4)
H60_3 H 0.1486 0.8334 0.8489
C100_3 C 0.1798(3) 0.8072(4) 0.8815(4)
C101_3 C 0.2803(3) 0.8575(4) 0.5789(3)
C102_3 C 0.3242(2) 0.8629(3) 0.6181(3)
H61_3 H 0.2675 0.9951 0.7782
H63_3 H 0.1192 0.9360 0.5885
C104_3 C 0.0798(6) 0.9538(6) 0.6137(6)
H64_3 H 0.0435 0.9707 0.6468
H65_3 H 0.0254 0.7730 0.7075
C105_3 C 0.0629(3) 0.7616(3) 0.6726(3)
H66_3 H 0.1051 0.7563 0.6448
H67_3 H 0.2491 0.7824 0.8528
C106_3 C 0.2089(3) 0.7919(3) 0.8808(4)
H68_3 H 0.1662 0.8072 0.9010
H69_3 H 0.2574 0.8561 0.5737
C107_3 C 0.3035(3) 0.8572(4) 0.5524(3)
H70_3 H 0.3319 0.8665 0.6404
C108_3 C 0.3458(3) 0.8606(3) 0.5915(3)
O36_3 O 0.0635(3) 0.9682(4) 0.5851(4)
O37_3 O 0.0452(3) 0.7406(3) 0.6529(2)
O38_3 O 0.2181(3) 0.7776(2) 0.9098(3)
H71_3 H 0.2959 0.8552 0.5298
H72_3 H 0.3688 0.8596 0.5962
C110_3 C 0.0786(4) 0.9945(5) 0.5703(5)
C111_3 C 0.0183(3) 0.7246(3) 0.6672(3)
C112_3 C 0.2034(3) 0.7507(3) 0.9199(3)
C118_3 C 0.0213(3) 0.7090(3) 0.6967(3)
C119_3 C 0.2071(3) 0.7421(3) 0.9530(3)
C120_3 C 0.1883(3) 0.7331(3) 0.8968(3)
H75_3 H 0.0500 0.9910 0.5285
H78_3 H 0.0411 0.7111 0.7094
H79_3 H 0.2172 0.7556 0.9685
C127_3 C 0.1967(3) 0.7151(3) 0.9640(3)
H80_3 H 0.1867 0.7390 0.8738
C128_3 C 0.1743(3) 0.7041(3) 0.9090(3)
H87_3 H 0.2005 0.7095 0.9868
C132_3 C 0.1798(3) 0.6943(3) 0.9414(3)
H88_3 H 0.1614 0.6922 0.8942
C136_3 C 0.1669(3) 0.6649(3) 0.9544(3)
O45_3 O 0.14840(19) 0.64833(17) 0.93565(19)
O46_3 O 0.1759(2) 0.65747(19) 0.9844(2)
C117_3 C 0.9900(3) 0.7221(3) 0.6484(3)
H77_3 H 0.9877 0.7328 0.6278
C125_3 C 0.9637(3) 0.7029(3) 0.6605(3)
C126_3 C 0.9969(3) 0.6903(3) 0.7090(3)
H85_3 H 0.9441 0.7009 0.6474
C131_3 C 0.9662(2) 0.6880(3) 0.6895(3)
H86_3 H 0.9999 0.6794 0.7294
C135_3 C 0.9392(2) 0.6679(3) 0.7038(3)
O43_3 O 0.91251(17) 0.66495(17) 0.68523(19)
O44_3 O 0.94439(19) 0.65454(19) 0.7312(2)
N21_3 N 0.83610(19) 0.6454(2) 0.6672(2)
N22_3 N 0.9553(2) 0.6190(2) 0.8015(2)
C137_3 C 0.8405(3) 0.6398(3) 0.6346(3)
C138_3 C 0.8039(3) 0.6534(3) 0.6757(3)
N23_3 N 0.8722(2) 0.6354(4) 0.6212(3)
N24_3 N 0.8152(2) 0.6374(3) 0.6106(2)
N25_3 N 0.7974(3) 0.6617(4) 0.7069(3)
N26_3 N 0.7778(2) 0.6519(3) 0.6548(2)
H89_3 H 0.8896 0.6364 0.6344
H90_3 H 0.8747 0.6317 0.5996
C139_3 C 0.7863(2) 0.6424(3) 0.6222(3)
H91_3 H 0.7769 0.6658 0.7129
H92_3 H 0.8134 0.6631 0.7217
C140_3 C 0.7576(2) 0.6391(3) 0.5963(3)
C141_3 C 0.7632(2) 0.6268(3) 0.5662(3)
C142_3 C 0.7250(3) 0.6495(3) 0.6048(3)
H93_3 H 0.7847 0.6201 0.5603
C143_3 C 0.7364(3) 0.6236(3) 0.5428(3)
H94_3 H 0.7208 0.6598 0.6253
C144_3 C 0.6986(3) 0.6437(3) 0.5806(3)
H95_3 H 0.7407 0.6162 0.5208
H96_3 H 0.6765 0.6492 0.5859
Zn20_2 Zn 0.87371(3) 0.63927(3) 0.70374(3)
Zn21_2 Zn 0.91720(3) 0.62807(3) 0.76561(3)
O47_3 O 0.84747(19) 0.61110(19) 0.7365(2)
O48_3 O 0.86177(19) 0.67431(19) 0.73920(19)
O49_2 O 0.89840(19) 0.60167(17) 0.68565(19)
O50_3 O 0.87672(19) 0.6055(2) 0.7846(2)
O51_3 O 0.8965(2) 0.66791(19) 0.7830(2)
O52_2 O 0.9259(2) 0.59253(19) 0.7344(2)
N28_2 N 0.7053(2) 0.6310(2) 0.5515(2)
O27_4 O 0.44651(18) 0.33980(18) 0.0006(2)
O30_4 O 0.44974(17) 0.40385(17) 0.01699(18)
C75_4 C 0.4300(2) 0.3236(3) 0.0217(3)
C78_4 C 0.4310(2) 0.4050(2) 0.0429(3)
C79_4 C 0.4489(2) 0.2947(3) 0.0354(3)
O31_4 O 0.40196(16) 0.32807(18) 0.0328(2)
C82_4 C 0.4419(3) 0.4243(2) 0.0728(3)
O34_4 O 0.40329(19) 0.3910(2) 0.04530(19)
C84_4 C 0.4804(3) 0.2877(3) 0.0216(4)
C85_4 C 0.4336(3) 0.2776(3) 0.0588(3)
C90_4 C 0.4707(3) 0.4394(3) 0.0745(3)
C91_4 C 0.4196(3) 0.4260(4) 0.1002(4)
H53_4 H 0.4906 0.2997 0.0047
C93_4 C 0.4960(3) 0.2606(4) 0.0355(4)
H54_4 H 0.4128 0.2834 0.0676
C94_4 C 0.4492(3) 0.2507(3) 0.0702(3)
H59_4 H 0.4857 0.4383 0.0561
C99_4 C 0.4790(3) 0.4566(3) 0.1029(4)
H60_4 H 0.3986 0.4166 0.0989
C100_4 C 0.4298(3) 0.4428(4) 0.1315(4)
H61_4 H 0.5175 0.2549 0.0282
C103_4 C 0.4806(3) 0.2443(4) 0.0577(3)
H62_4 H 0.4385 0.2377 0.0858
H67_4 H 0.4991 0.4676 0.1028
C106_4 C 0.4589(3) 0.4581(3) 0.1308(4)
H68_4 H 0.4162 0.4428 0.1510
O35_4 O 0.4939(3) 0.2174(2) 0.0736(3)
O38_4 O 0.4681(3) 0.4724(2) 0.1598(3)
C109_4 C 0.5212(3) 0.2018(3) 0.0574(4)
C112_4 C 0.4534(3) 0.4993(3) 0.1699(3)
C113_4 C 0.5202(4) 0.1929(4) 0.0243(4)
C114_4 C 0.5467(4) 0.1942(4) 0.0783(4)
C119_4 C 0.4571(3) 0.5079(3) 0.2030(3)
C120_4 C 0.4383(3) 0.5169(3) 0.1468(3)
H73_4 H 0.5026 0.1993 0.0101
C121_4 C 0.5449(3) 0.1746(3) 0.0115(3)
H74_4 H 0.5462 0.1999 0.1014
C122_4 C 0.5739(4) 0.1779(4) 0.0653(4)
H79_4 H 0.4672 0.4944 0.2185
C127_4 C 0.4467(3) 0.5349(3) 0.2140(3)
H80_4 H 0.4367 0.5110 0.1238
C128_4 C 0.4243(3) 0.5459(3) 0.1590(3)
C129_4 C 0.5724(3) 0.1672(3) 0.0308(3)
H82_4 H 0.5927 0.1740 0.0789
H87_4 H 0.4505 0.5405 0.2368
C132_4 C 0.4298(3) 0.5557(3) 0.1914(3)
H88_4 H 0.4114 0.5578 0.1442
C133_4 C 0.6008(3) 0.1491(3) 0.0161(3)
C136_4 C 0.4169(3) 0.5851(3) 0.2044(3)
O40_4 O 0.62672(19) 0.1445(2) 0.0346(2)
O45_4 O 0.39840(19) 0.60167(17) 0.18565(19)
O46_4 O 0.4259(2) 0.59253(19) 0.2344(2)
N22_4 N 0.2053(2) 0.6310(2) 0.0515(2)
O50_4 O 0.12672(19) 0.6445(2) 0.0346(2)
Zn13_4 Zn 0.43100(3) 0.37913(3) 0.97651(3)
N15_4 N 0.46794(19) 0.3859(2) 0.9392(2)
O28_4 O 0.3976(2) 0.3527(2) 0.9477(2)
O29_4 O 0.39764(18) 0.41420(19) 0.96574(19)
C73_4 C 0.5005(2) 0.3772(3) 0.9447(3)
C74_4 C 0.4609(3) 0.3963(4) 0.9073(3)
C76_4 C 0.3707(3) 0.3396(3) 0.9520(4)
C77_4 C 0.3677(3) 0.4169(3) 0.9744(3)
N16_4 N 0.50943(19) 0.3668(3) 0.9752(2)
N17_4 N 0.52484(19) 0.3793(2) 0.9207(2)
N18_4 N 0.4304(3) 0.4071(4) 0.8999(3)
N19_4 N 0.4835(2) 0.3980(3) 0.8829(2)
C80_4 C 0.3561(4) 0.3255(4) 0.9199(4)
O32_4 O 0.3528(2) 0.3400(2) 0.9787(2)
C81_4 C 0.3485(3) 0.4427(3) 0.9567(3)
O33_4 O 0.35178(18) 0.4016(2) 0.9952(2)
H49_4 H 0.5301 0.3618 0.9791
H50_4 H 0.4946 0.3651 0.9913
C83_4 C 0.5140(3) 0.3893(3) 0.8899(3)
H51_4 H 0.4264 0.4147 0.8798
H52_4 H 0.4146 0.4065 0.9152
C86_4 C 0.3714(5) 0.3260(5) 0.8892(4)
C87_4 C 0.3245(4) 0.3066(4) 0.9255(5)
C88_4 C 0.3149(3) 0.4483(3) 0.9666(4)
C89_4 C 0.3623(3) 0.4600(3) 0.9298(3)
C92_4 C 0.5397(3) 0.3902(3) 0.8610(3)
H55_4 H 0.3919 0.3363 0.8874
C95_4 C 0.3585(6) 0.3122(6) 0.8598(5)
H56_4 H 0.3139 0.3049 0.9468
C96_4 C 0.3125(5) 0.2918(5) 0.8957(6)
H57_4 H 0.3047 0.4365 0.9837
C97_4 C 0.2971(3) 0.4720(4) 0.9504(4)
H58_4 H 0.3844 0.4559 0.9232
C98_4 C 0.3450(3) 0.4827(3) 0.9126(3)
C101_4 C 0.5303(3) 0.3925(4) 0.8289(3)
C102_4 C 0.5742(2) 0.3871(3) 0.8681(3)
H63_4 H 0.3692 0.3140 0.8385
C104_4 C 0.3298(6) 0.2962(6) 0.8637(6)
H64_4 H 0.2935 0.2793 0.8968
H65_4 H 0.2754 0.4770 0.9575
C105_4 C 0.3129(3) 0.4884(3) 0.9226(3)
H66_4 H 0.3551 0.4937 0.8948
H69_4 H 0.5074 0.3939 0.8237
C107_4 C 0.5535(3) 0.3928(4) 0.8024(3)
H70_4 H 0.5819 0.3835 0.8904
C108_4 C 0.5958(3) 0.3894(3) 0.8415(3)
O36_4 O 0.3135(3) 0.2818(4) 0.8351(4)
O37_4 O 0.2952(3) 0.5094(3) 0.9029(2)
H71_4 H 0.5459 0.3948 0.7798
H72_4 H 0.6188 0.3904 0.8462
C110_4 C 0.3286(4) 0.2555(5) 0.8203(5)
C111_4 C 0.2683(3) 0.5254(3) 0.9172(3)
C115_4 C 0.3177(4) 0.2483(4) 0.7886(4)
C116_4 C 0.3549(5) 0.2409(5) 0.8339(4)
C117_4 C 0.2400(3) 0.5279(3) 0.8984(3)
C118_4 C 0.2713(3) 0.5410(3) 0.9467(3)
H75_4 H 0.3000 0.2590 0.7785
C123_4 C 0.3337(4) 0.2242(4) 0.7708(4)
H76_4 H 0.3641 0.2475 0.8547
C124_4 C 0.3686(4) 0.2158(4) 0.8171(4)
H77_4 H 0.2377 0.5172 0.8778
C125_4 C 0.2137(3) 0.5471(3) 0.9105(3)
H78_4 H 0.2911 0.5389 0.9594
C126_4 C 0.2469(3) 0.5597(3) 0.9590(3)
H81_4 H 0.5429 0.1669 0.9892
H83_4 H 0.3276 0.2200 0.7482
C130_4 C 0.3573(3) 0.2076(3) 0.7858(3)
H84_4 H 0.3857 0.2045 0.8275
H85_4 H 0.1941 0.5491 0.8974
C131_4 C 0.2162(2) 0.5620(3) 0.9395(3)
H86_4 H 0.2499 0.5706 0.9794
C134_4 C 0.3734(3) 0.1815(3) 0.7671(3)
C135_4 C 0.1892(2) 0.5821(3) 0.9538(3)
O39_4 O 0.59747(19) 0.13890(19) 0.9865(2)
O41_3 O 0.3965(2) 0.16791(19) 0.7830(2)
O42_3 O 0.36177(19) 0.17431(19) 0.73920(19)
O43_4 O 0.16251(17) 0.58505(17) 0.93523(19)
O44_4 O 0.19439(19) 0.59546(19) 0.9812(2)
Zn15_3 Zn 0.62371(3) 0.11073(3) 0.95374(3)
N21_4 N 0.08610(19) 0.6046(2) 0.9172(2)
C137_4 C 0.0905(3) 0.6102(3) 0.8846(3)
C138_4 C 0.0539(3) 0.5966(3) 0.9257(3)
N23_4 N 0.1222(2) 0.6146(4) 0.8712(3)
N24_4 N 0.0652(2) 0.6126(3) 0.8606(2)
N25_4 N 0.0474(3) 0.5883(4) 0.9569(3)
N26_4 N 0.0278(2) 0.5981(3) 0.9048(2)
H89_4 H 0.1396 0.6136 0.8844
H90_4 H 0.1247 0.6183 0.8496
C139_4 C 0.0363(2) 0.6076(3) 0.8722(3)
H91_4 H 0.0269 0.5842 0.9629
H92_4 H 0.0634 0.5869 0.9717
C140_4 C 0.0076(2) 0.6109(3) 0.8463(3)
C141_4 C 0.0132(2) 0.6232(3) 0.8162(3)
H93_4 H 0.0347 0.6299 0.8103
N27_3 N 0.58587(19) 0.3905(2) 0.8083(2)
Zn17_3 Zn 0.62083(3) 0.38659(3) 0.76939(3)
O47_4 O 0.09747(19) 0.63890(19) 0.9865(2)
C142_4 C 0.9750(3) 0.6005(3) 0.8548(3)
C143_4 C 0.9864(3) 0.6264(3) 0.7928(3)
H94_4 H 0.9708 0.5902 0.8753
C144_4 C 0.9486(3) 0.6063(3) 0.8306(3)
H95_4 H 0.9907 0.6338 0.7708
H96_4 H 0.9265 0.6008 0.8359
Zn13_5 Zn 0.68100(3) 0.37087(3) 0.72651(3)
N15_5 N 0.71794(19) 0.3641(2) 0.6892(2)
O27_5 O 0.69651(18) 0.41020(18) 0.7506(2)
O28_5 O 0.6476(2) 0.3973(2) 0.6977(2)
O29_5 O 0.64764(18) 0.33580(19) 0.71574(19)
O30_5 O 0.69974(17) 0.34615(17) 0.76699(18)
C73_5 C 0.7505(2) 0.3728(3) 0.6947(3)
C74_5 C 0.7109(3) 0.3537(4) 0.6573(3)
C75_5 C 0.6800(2) 0.4264(3) 0.7717(3)
C76_5 C 0.6207(3) 0.4104(3) 0.7020(4)
C77_5 C 0.6177(3) 0.3331(3) 0.7244(3)
C78_5 C 0.6810(2) 0.3450(2) 0.7929(3)
N16_5 N 0.75943(19) 0.3832(3) 0.7252(2)
N17_5 N 0.77484(19) 0.3707(2) 0.6707(2)
N18_5 N 0.6804(3) 0.3429(4) 0.6499(3)
N19_5 N 0.7335(2) 0.3520(3) 0.6329(2)
C79_5 C 0.6989(2) 0.4553(3) 0.7854(3)
O31_5 O 0.65196(16) 0.42193(18) 0.7828(2)
C80_5 C 0.6061(4) 0.4245(4) 0.6699(4)
O32_5 O 0.6028(2) 0.4100(2) 0.7287(2)
C81_5 C 0.5985(3) 0.3073(3) 0.7067(3)
O33_5 O 0.60178(18) 0.3484(2) 0.7452(2)
C82_5 C 0.6919(3) 0.3257(2) 0.8228(3)
O34_5 O 0.65329(19) 0.3590(2) 0.79530(19)
H49_5 H 0.7801 0.3882 0.7291
H50_5 H 0.7446 0.3849 0.7413
C83_5 C 0.7640(3) 0.3607(3) 0.6399(3)
H51_5 H 0.6764 0.3353 0.6298
H52_5 H 0.6646 0.3435 0.6652
C84_5 C 0.7304(3) 0.4623(3) 0.7716(4)
C85_5 C 0.6836(3) 0.4724(3) 0.8088(3)
C86_5 C 0.6214(5) 0.4240(5) 0.6392(4)
C87_5 C 0.5745(4) 0.4434(4) 0.6755(5)
C88_5 C 0.5649(3) 0.3017(3) 0.7166(4)
C89_5 C 0.6123(3) 0.2900(3) 0.6798(3)
C90_5 C 0.7207(3) 0.3106(3) 0.8245(3)
C91_5 C 0.6696(3) 0.3240(4) 0.8502(4)
C92_5 C 0.7897(3) 0.3598(3) 0.6110(3)
H53_5 H 0.7406 0.4503 0.7547
C93_5 C 0.7460(3) 0.4894(4) 0.7855(4)
H54_5 H 0.6628 0.4666 0.8176
C94_5 C 0.6992(3) 0.4993(3) 0.8202(3)
H55_5 H 0.6419 0.4137 0.6374
C95_5 C 0.6085(6) 0.4378(6) 0.6098(5)
H56_5 H 0.5639 0.4451 0.6968
C96_5 C 0.5625(5) 0.4582(5) 0.6457(6)
H57_5 H 0.5547 0.3135 0.7337
C97_5 C 0.5471(3) 0.2780(4) 0.7004(4)
H58_5 H 0.6344 0.2941 0.6732
C98_5 C 0.5950(3) 0.2673(3) 0.6626(3)
H59_5 H 0.7357 0.3117 0.8061
C99_5 C 0.7290(3) 0.2934(3) 0.8529(4)
H60_5 H 0.6486 0.3334 0.8489
C100_5 C 0.6798(3) 0.3072(4) 0.8815(4)
C101_5 C 0.7803(3) 0.3575(4) 0.5789(3)
C102_5 C 0.8242(2) 0.3629(3) 0.6181(3)
H61_5 H 0.7675 0.4951 0.7782
C103_5 C 0.7306(3) 0.5057(4) 0.8077(3)
H62_5 H 0.6885 0.5123 0.8358
H63_5 H 0.6192 0.4360 0.5885
C104_5 C 0.5798(6) 0.4538(6) 0.6137(6)
H64_5 H 0.5435 0.4707 0.6468
H65_5 H 0.5254 0.2730 0.7075
C105_5 C 0.5629(3) 0.2616(3) 0.6726(3)
H66_5 H 0.6051 0.2563 0.6448
H67_5 H 0.7491 0.2824 0.8528
C106_5 C 0.7089(3) 0.2919(3) 0.8808(4)
H68_5 H 0.6662 0.3072 0.9010
H69_5 H 0.7574 0.3561 0.5737
C107_5 C 0.8035(3) 0.3572(4) 0.5524(3)
H70_5 H 0.8319 0.3665 0.6404
C108_5 C 0.8458(3) 0.3606(3) 0.5915(3)
O35_5 O 0.7439(3) 0.5326(2) 0.8236(3)
O36_5 O 0.5635(3) 0.4682(4) 0.5851(4)
O37_5 O 0.5452(3) 0.2406(3) 0.6529(2)
O38_5 O 0.7181(3) 0.2776(2) 0.9098(3)
H71_5 H 0.7959 0.3552 0.5298
H72_5 H 0.8688 0.3596 0.5962
C109_5 C 0.7712(3) 0.5482(3) 0.8074(4)
C110_5 C 0.5786(4) 0.4945(5) 0.5703(5)
C111_5 C 0.5183(3) 0.2246(3) 0.6672(3)
C112_5 C 0.7034(3) 0.2507(3) 0.9199(3)
C113_5 C 0.7702(4) 0.5571(4) 0.7743(4)
C114_5 C 0.7967(4) 0.5558(4) 0.8283(4)
C115_5 C 0.5677(4) 0.5017(4) 0.5386(4)
C116_5 C 0.6049(5) 0.5091(5) 0.5839(4)
C117_5 C 0.4900(3) 0.2221(3) 0.6484(3)
C118_5 C 0.5213(3) 0.2090(3) 0.6967(3)
C119_5 C 0.7071(3) 0.2421(3) 0.9530(3)
C120_5 C 0.6883(3) 0.2331(3) 0.8968(3)
H73_5 H 0.7526 0.5507 0.7601
C121_5 C 0.7949(3) 0.5754(3) 0.7615(3)
H74_5 H 0.7962 0.5501 0.8514
C122_5 C 0.8239(4) 0.5721(4) 0.8153(4)
H75_5 H 0.5500 0.4910 0.5285
C123_5 C 0.5837(4) 0.5258(4) 0.5208(4)
H76_5 H 0.6141 0.5025 0.6047
C124_5 C 0.6186(4) 0.5342(4) 0.5671(4)
H77_5 H 0.4877 0.2328 0.6278
C125_5 C 0.4637(3) 0.2029(3) 0.6605(3)
H78_5 H 0.5411 0.2111 0.7094
C126_5 C 0.4969(3) 0.1903(3) 0.7090(3)
H79_5 H 0.7172 0.2556 0.9685
C127_5 C 0.6967(3) 0.2151(3) 0.9640(3)
H80_5 H 0.6867 0.2390 0.8738
C128_5 C 0.6743(3) 0.2041(3) 0.9090(3)
H81_5 H 0.7929 0.5831 0.7392
C129_5 C 0.8224(3) 0.5828(3) 0.7808(3)
H82_5 H 0.8427 0.5760 0.8289
H83_5 H 0.5776 0.5300 0.4982
C130_5 C 0.6073(3) 0.5424(3) 0.5358(3)
H84_5 H 0.6357 0.5455 0.5775
H85_5 H 0.4441 0.2009 0.6474
C131_5 C 0.4662(2) 0.1880(3) 0.6895(3)
H86_5 H 0.4999 0.1794 0.7294
H87_5 H 0.7005 0.2095 0.9868
C132_5 C 0.6798(3) 0.1943(3) 0.9414(3)
H88_5 H 0.6614 0.1922 0.8942
C133_5 C 0.8508(3) 0.6009(3) 0.7661(3)
C134_5 C 0.6234(3) 0.5685(3) 0.5171(3)
C135_5 C 0.4392(2) 0.1679(3) 0.7038(3)
C136_5 C 0.6669(3) 0.1649(3) 0.9544(3)
O41_4 O 0.6465(2) 0.58209(19) 0.5330(2)
O42_4 O 0.61177(19) 0.57569(19) 0.48920(19)
O43_5 O 0.41251(17) 0.16495(17) 0.68523(19)
O44_5 O 0.44439(19) 0.15454(19) 0.7312(2)
O45_5 O 0.64840(19) 0.14833(17) 0.93565(19)
O46_5 O 0.6759(2) 0.15747(19) 0.9844(2)
N21_5 N 0.33610(19) 0.1454(2) 0.6672(2)
N22_5 N 0.4553(2) 0.1190(2) 0.8015(2)
C137_5 C 0.3405(3) 0.1398(3) 0.6346(3)
C138_5 C 0.3039(3) 0.1534(3) 0.6757(3)
N23_5 N 0.3722(2) 0.1354(4) 0.6212(3)
N24_5 N 0.3152(2) 0.1374(3) 0.6106(2)
N25_5 N 0.2974(3) 0.1617(4) 0.7069(3)
N26_5 N 0.2778(2) 0.1519(3) 0.6548(2)
H89_5 H 0.3896 0.1364 0.6344
H90_5 H 0.3747 0.1317 0.5996
C139_5 C 0.2863(2) 0.1424(3) 0.6222(3)
H91_5 H 0.2769 0.1658 0.7129
H92_5 H 0.3134 0.1631 0.7217
C140_5 C 0.2576(2) 0.1391(3) 0.5963(3)
C141_5 C 0.2632(2) 0.1268(3) 0.5662(3)
C142_5 C 0.2250(3) 0.1495(3) 0.6048(3)
H93_5 H 0.2847 0.1201 0.5603
C143_5 C 0.2364(3) 0.1236(3) 0.5428(3)
H94_5 H 0.2208 0.1598 0.6253
C144_5 C 0.1986(3) 0.1437(3) 0.5806(3)
H95_5 H 0.2407 0.1162 0.5208
H96_5 H 0.1765 0.1492 0.5859
N27_4 N 0.83587(19) 0.3595(2) 0.5583(2)
Zn17_4 Zn 0.87083(3) 0.36341(3) 0.51939(3)
H61_6 H 0.0175 0.7549 0.0282
C109_6 C 0.0212(3) 0.7018(3) 0.0574(4)
C113_6 C 0.0202(4) 0.6929(4) 0.0243(4)
C114_6 C 0.0467(4) 0.6942(4) 0.0783(4)
H73_6 H 0.0026 0.6993 0.0101
C121_6 C 0.0449(3) 0.6746(3) 0.0115(3)
H74_6 H 0.0462 0.6999 0.1014
C122_6 C 0.0739(4) 0.6779(4) 0.0653(4)
C129_6 C 0.0724(3) 0.6672(3) 0.0308(3)
H82_6 H 0.0927 0.6740 0.0789
C133_6 C 0.1008(3) 0.6491(3) 0.0161(3)
C73_6 C 0.0005(2) 0.8772(3) 0.9447(3)
N16_6 N 0.00943(19) 0.8668(3) 0.9752(2)
N17_6 N 0.02484(19) 0.8793(2) 0.9207(2)
H49_6 H 0.0301 0.8618 0.9791
C83_6 C 0.0140(3) 0.8893(3) 0.8899(3)
C92_6 C 0.0397(3) 0.8902(3) 0.8610(3)
C101_6 C 0.0303(3) 0.8925(4) 0.8289(3)
C102_6 C 0.0742(2) 0.8871(3) 0.8681(3)
H69_6 H 0.0074 0.8939 0.8237
C107_6 C 0.0535(3) 0.8928(4) 0.8024(3)
H70_6 H 0.0819 0.8835 0.8904
C108_6 C 0.0958(3) 0.8894(3) 0.8415(3)
H71_6 H 0.0459 0.8948 0.7798
H72_6 H 0.1188 0.8904 0.8462
H81_6 H 0.0429 0.6669 0.9892
C119_6 C 0.9571(3) 0.0079(3) 0.2030(3)
C120_6 C 0.9383(3) 0.0169(3) 0.1468(3)
C127_6 C 0.9467(3) 0.0349(3) 0.2140(3)
H80_6 H 0.9367 0.0110 0.1238
C128_6 C 0.9243(3) 0.0459(3) 0.1590(3)
H87_6 H 0.9505 0.0405 0.2368
C132_6 C 0.9298(3) 0.0557(3) 0.1914(3)
H88_6 H 0.9114 0.0578 0.1442
C136_6 C 0.9169(3) 0.0851(3) 0.2044(3)
O51_4 O 0.6465(2) 0.08209(19) 0.0330(2)
O37_6 O 0.7952(3) 0.0094(3) 0.9029(2)
C111_6 C 0.7683(3) 0.0254(3) 0.9172(3)
C117_6 C 0.7400(3) 0.0279(3) 0.8984(3)
C118_6 C 0.7713(3) 0.0410(3) 0.9467(3)
H77_6 H 0.7377 0.0172 0.8778
C125_6 C 0.7137(3) 0.0471(3) 0.9105(3)
H78_6 H 0.7911 0.0389 0.9594
C126_6 C 0.7469(3) 0.0597(3) 0.9590(3)
H85_6 H 0.6941 0.0491 0.8974
C131_6 C 0.7162(2) 0.0620(3) 0.9395(3)
H86_6 H 0.7499 0.0706 0.9794
C135_6 C 0.6892(2) 0.0821(3) 0.9538(3)
O43_6 O 0.66251(17) 0.08505(17) 0.93523(19)
O44_6 O 0.69439(19) 0.09546(19) 0.9812(2)
N21_6 N 0.58610(19) 0.1046(2) 0.9172(2)
C137_6 C 0.5905(3) 0.1102(3) 0.8846(3)
C138_6 C 0.5539(3) 0.0966(3) 0.9257(3)
N23_6 N 0.6222(2) 0.1146(4) 0.8712(3)
N24_6 N 0.5652(2) 0.1126(3) 0.8606(2)
N25_6 N 0.5474(3) 0.0883(4) 0.9569(3)
N26_6 N 0.5278(2) 0.0981(3) 0.9048(2)
H89_6 H 0.6396 0.1136 0.8844
H90_6 H 0.6247 0.1183 0.8496
C139_6 C 0.5363(2) 0.1076(3) 0.8722(3)
H91_6 H 0.5269 0.0842 0.9629
H92_6 H 0.5634 0.0869 0.9717
C140_6 C 0.5076(2) 0.1109(3) 0.8463(3)
C141_6 C 0.5132(2) 0.1232(3) 0.8162(3)
C142_6 C 0.4750(3) 0.1005(3) 0.8548(3)
H93_6 H 0.5347 0.1299 0.8103
C143_6 C 0.4864(3) 0.1264(3) 0.7928(3)
H94_6 H 0.4708 0.0902 0.8753
C144_6 C 0.4486(3) 0.1063(3) 0.8306(3)
H95_6 H 0.4907 0.1338 0.7708
H96_6 H 0.4265 0.1008 0.8359
O48_4 O 0.61177(19) 0.07569(19) 0.98920(19)
O27_6 O 0.94651(18) 0.83980(18) 0.0006(2)
O30_6 O 0.94974(17) 0.90385(17) 0.01699(18)
C75_6 C 0.9300(2) 0.8236(3) 0.0217(3)
C78_6 C 0.9310(2) 0.9050(2) 0.0429(3)
C79_6 C 0.9489(2) 0.7947(3) 0.0354(3)
O31_6 O 0.90196(16) 0.82807(18) 0.0328(2)
C82_6 C 0.9419(3) 0.9243(2) 0.0728(3)
O34_6 O 0.90329(19) 0.8910(2) 0.04530(19)
C84_6 C 0.9804(3) 0.7877(3) 0.0216(4)
C85_6 C 0.9336(3) 0.7776(3) 0.0588(3)
Zn14_4 Zn 0.87083(3) 0.86341(3) 0.01939(3)
C90_6 C 0.9707(3) 0.9394(3) 0.0745(3)
C91_6 C 0.9196(3) 0.9260(4) 0.1002(4)
H53_6 H 0.9906 0.7997 0.0047
C93_6 C 0.9960(3) 0.7606(4) 0.0355(4)
H54_6 H 0.9128 0.7834 0.0676
C94_6 C 0.9492(3) 0.7507(3) 0.0702(3)
N20_4 N 0.83587(19) 0.8595(2) 0.0583(2)
H59_6 H 0.9857 0.9383 0.0561
C99_6 C 0.9790(3) 0.9566(3) 0.1029(4)
H60_6 H 0.8986 0.9166 0.0989
C100_6 C 0.9298(3) 0.9428(4) 0.1315(4)
C103_6 C 0.9806(3) 0.7443(4) 0.0577(3)
H62_6 H 0.9385 0.7377 0.0858
H67_6 H 0.9991 0.9676 0.1028
C106_6 C 0.9589(3) 0.9581(3) 0.1308(4)
H68_6 H 0.9162 0.9428 0.1510
O35_6 O 0.9939(3) 0.7174(2) 0.0736(3)
O38_6 O 0.9681(3) 0.9724(2) 0.1598(3)
C112_6 C 0.9534(3) 0.9993(3) 0.1699(3)
H79_6 H 0.9672 0.9944 0.2185
Zn13_6 Zn 0.93100(3) 0.87913(3) 0.97651(3)
N15_6 N 0.96794(19) 0.8859(2) 0.9392(2)
O28_6 O 0.8976(2) 0.8527(2) 0.9477(2)
O29_6 O 0.89764(18) 0.91420(19) 0.96574(19)
C74_6 C 0.9609(3) 0.8963(4) 0.9073(3)
C76_6 C 0.8707(3) 0.8396(3) 0.9520(4)
C77_6 C 0.8677(3) 0.9169(3) 0.9744(3)
N18_6 N 0.9304(3) 0.9071(4) 0.8999(3)
N19_6 N 0.9835(2) 0.8980(3) 0.8829(2)
C80_6 C 0.8561(4) 0.8255(4) 0.9199(4)
O32_6 O 0.8528(2) 0.8400(2) 0.9787(2)
C81_6 C 0.8485(3) 0.9427(3) 0.9567(3)
O33_6 O 0.85178(18) 0.9016(2) 0.9952(2)
H50_6 H 0.9946 0.8651 0.9913
H51_6 H 0.9264 0.9147 0.8798
H52_6 H 0.9146 0.9065 0.9152
C86_6 C 0.8714(5) 0.8260(5) 0.8892(4)
C87_6 C 0.8245(4) 0.8066(4) 0.9255(5)
C88_6 C 0.8149(3) 0.9483(3) 0.9666(4)
C89_6 C 0.8623(3) 0.9600(3) 0.9298(3)
H55_6 H 0.8919 0.8363 0.8874
C95_6 C 0.8585(6) 0.8122(6) 0.8598(5)
H56_6 H 0.8139 0.8049 0.9468
C96_6 C 0.8125(5) 0.7918(5) 0.8957(6)
H57_6 H 0.8047 0.9365 0.9837
C97_6 C 0.7971(3) 0.9720(4) 0.9504(4)
H58_6 H 0.8844 0.9559 0.9232
C98_6 C 0.8450(3) 0.9827(3) 0.9126(3)
H63_6 H 0.8692 0.8140 0.8385
C104_6 C 0.8298(6) 0.7962(6) 0.8637(6)
H64_6 H 0.7935 0.7793 0.8968
H65_6 H 0.7754 0.9770 0.9575
C105_6 C 0.8129(3) 0.9884(3) 0.9226(3)
H66_6 H 0.8551 0.9937 0.8948
O36_6 O 0.8135(3) 0.7818(4) 0.8351(4)
C110_6 C 0.8286(4) 0.7555(5) 0.8203(5)
C115_6 C 0.8177(4) 0.7483(4) 0.7886(4)
C116_6 C 0.8549(5) 0.7409(5) 0.8339(4)
H75_6 H 0.8000 0.7590 0.7785
C123_6 C 0.8337(4) 0.7242(4) 0.7708(4)
H76_6 H 0.8641 0.7475 0.8547
C124_6 C 0.8686(4) 0.7158(4) 0.8171(4)
H83_6 H 0.8276 0.7200 0.7482
C130_6 C 0.8573(3) 0.7076(3) 0.7858(3)
H84_6 H 0.8857 0.7045 0.8275
C134_6 C 0.8734(3) 0.6815(3) 0.7671(3)
C103_7 C 0.7306(3) 0.0057(4) 0.3077(3)
H62_7 H 0.6885 0.0123 0.3358
O35_7 O 0.7439(3) 0.0326(2) 0.3236(3)
C109_7 C 0.7712(3) 0.0482(3) 0.3074(4)
C113_7 C 0.7702(4) 0.0571(4) 0.2743(4)
C114_7 C 0.7967(4) 0.0558(4) 0.3283(4)
C115_7 C 0.5677(4) 0.0017(4) 0.0386(4)
C116_7 C 0.6049(5) 0.0091(5) 0.0839(4)
H73_7 H 0.7526 0.0507 0.2601
C121_7 C 0.7949(3) 0.0754(3) 0.2615(3)
H74_7 H 0.7962 0.0501 0.3514
C122_7 C 0.8239(4) 0.0721(4) 0.3153(4)
C123_7 C 0.5837(4) 0.0258(4) 0.0208(4)
H76_7 H 0.6141 0.0025 0.1047
C124_7 C 0.6186(4) 0.0342(4) 0.0671(4)
H81_7 H 0.7929 0.0831 0.2392
C129_7 C 0.8224(3) 0.0828(3) 0.2808(3)
H82_7 H 0.8427 0.0760 0.3289
C130_7 C 0.6073(3) 0.0424(3) 0.0358(3)
H84_7 H 0.6357 0.0455 0.0775
C133_7 C 0.8508(3) 0.1009(3) 0.2661(3)
C134_7 C 0.6234(3) 0.0685(3) 0.0171(3)
H83_7 H 0.5776 0.0300 0.9982
Zn13_7 Zn 0.68100(3) 0.87087(3) 0.22651(3)
N15_7 N 0.71794(19) 0.8641(2) 0.1892(2)
O27_7 O 0.69651(18) 0.91020(18) 0.2506(2)
O28_7 O 0.6476(2) 0.8973(2) 0.1977(2)
O29_7 O 0.64764(18) 0.83580(19) 0.21574(19)
O30_7 O 0.69974(17) 0.84615(17) 0.26699(18)
C73_7 C 0.7505(2) 0.8728(3) 0.1947(3)
C74_7 C 0.7109(3) 0.8537(4) 0.1573(3)
C75_7 C 0.6800(2) 0.9264(3) 0.2717(3)
C76_7 C 0.6207(3) 0.9104(3) 0.2020(4)
C77_7 C 0.6177(3) 0.8331(3) 0.2244(3)
C78_7 C 0.6810(2) 0.8450(2) 0.2929(3)
N16_7 N 0.75943(19) 0.8832(3) 0.2252(2)
N17_7 N 0.77484(19) 0.8707(2) 0.1707(2)
N18_7 N 0.6804(3) 0.8429(4) 0.1499(3)
N19_7 N 0.7335(2) 0.8520(3) 0.1329(2)
C79_7 C 0.6989(2) 0.9553(3) 0.2854(3)
O31_7 O 0.65196(16) 0.92193(18) 0.2828(2)
C80_7 C 0.6061(4) 0.9245(4) 0.1699(4)
O32_7 O 0.6028(2) 0.9100(2) 0.2287(2)
C81_7 C 0.5985(3) 0.8073(3) 0.2067(3)
O33_7 O 0.60178(18) 0.8484(2) 0.2452(2)
C82_7 C 0.6919(3) 0.8257(2) 0.3228(3)
O34_7 O 0.65329(19) 0.8590(2) 0.29530(19)
H49_7 H 0.7801 0.8882 0.2291
H50_7 H 0.7446 0.8849 0.2413
C83_7 C 0.7640(3) 0.8607(3) 0.1399(3)
H51_7 H 0.6764 0.8353 0.1298
H52_7 H 0.6646 0.8435 0.1652
C84_7 C 0.7304(3) 0.9623(3) 0.2716(4)
C85_7 C 0.6836(3) 0.9724(3) 0.3088(3)
C86_7 C 0.6214(5) 0.9240(5) 0.1392(4)
C87_7 C 0.5745(4) 0.9434(4) 0.1755(5)
C88_7 C 0.5649(3) 0.8017(3) 0.2166(4)
C89_7 C 0.6123(3) 0.7900(3) 0.1798(3)
C90_7 C 0.7207(3) 0.8106(3) 0.3245(3)
C91_7 C 0.6696(3) 0.8240(4) 0.3502(4)
C92_7 C 0.7897(3) 0.8598(3) 0.1110(3)
H53_7 H 0.7406 0.9503 0.2547
C93_7 C 0.7460(3) 0.9894(4) 0.2855(4)
H54_7 H 0.6628 0.9666 0.3176
C94_7 C 0.6992(3) 0.9993(3) 0.3202(3)
H55_7 H 0.6419 0.9137 0.1374
C95_7 C 0.6085(6) 0.9378(6) 0.1098(5)
H56_7 H 0.5639 0.9451 0.1968
C96_7 C 0.5625(5) 0.9582(5) 0.1457(6)
H57_7 H 0.5547 0.8135 0.2337
C97_7 C 0.5471(3) 0.7780(4) 0.2004(4)
H58_7 H 0.6344 0.7941 0.1732
C98_7 C 0.5950(3) 0.7673(3) 0.1626(3)
H59_7 H 0.7357 0.8117 0.3061
C99_7 C 0.7290(3) 0.7934(3) 0.3529(4)
H60_7 H 0.6486 0.8334 0.3489
C100_7 C 0.6798(3) 0.8072(4) 0.3815(4)
C101_7 C 0.7803(3) 0.8575(4) 0.0789(3)
C102_7 C 0.8242(2) 0.8629(3) 0.1181(3)
H61_7 H 0.7675 0.9951 0.2782
H63_7 H 0.6192 0.9360 0.0885
C104_7 C 0.5798(6) 0.9538(6) 0.1137(6)
H64_7 H 0.5435 0.9707 0.1468
H65_7 H 0.5254 0.7730 0.2075
C105_7 C 0.5629(3) 0.7616(3) 0.1726(3)
H66_7 H 0.6051 0.7563 0.1448
H67_7 H 0.7491 0.7824 0.3528
C106_7 C 0.7089(3) 0.7919(3) 0.3808(4)
H68_7 H 0.6662 0.8072 0.4010
H69_7 H 0.7574 0.8561 0.0737
C107_7 C 0.8035(3) 0.8572(4) 0.0524(3)
H70_7 H 0.8319 0.8665 0.1404
C108_7 C 0.8458(3) 0.8606(3) 0.0915(3)
O36_7 O 0.5635(3) 0.9682(4) 0.0851(4)
O37_7 O 0.5452(3) 0.7406(3) 0.1529(2)
O38_7 O 0.7181(3) 0.7776(2) 0.4098(3)
H71_7 H 0.7959 0.8552 0.0298
H72_7 H 0.8688 0.8596 0.0962
C110_7 C 0.5786(4) 0.9945(5) 0.0703(5)
C111_7 C 0.5183(3) 0.7246(3) 0.1672(3)
C112_7 C 0.7034(3) 0.7507(3) 0.4199(3)
C117_7 C 0.4900(3) 0.7221(3) 0.1484(3)
C118_7 C 0.5213(3) 0.7090(3) 0.1967(3)
C119_7 C 0.7071(3) 0.7421(3) 0.4530(3)
C120_7 C 0.6883(3) 0.7331(3) 0.3968(3)
H75_7 H 0.5500 0.9910 0.0285
H77_7 H 0.4877 0.7328 0.1278
C125_7 C 0.4637(3) 0.7029(3) 0.1605(3)
H78_7 H 0.5411 0.7111 0.2094
C126_7 C 0.4969(3) 0.6903(3) 0.2090(3)
H79_7 H 0.7172 0.7556 0.4685
C127_7 C 0.6967(3) 0.7151(3) 0.4640(3)
H80_7 H 0.6867 0.7390 0.3738
C128_7 C 0.6743(3) 0.7041(3) 0.4090(3)
H85_7 H 0.4441 0.7009 0.1474
C131_7 C 0.4662(2) 0.6880(3) 0.1895(3)
H86_7 H 0.4999 0.6794 0.2294
H87_7 H 0.7005 0.7095 0.4868
C132_7 C 0.6798(3) 0.6943(3) 0.4414(3)
H88_7 H 0.6614 0.6922 0.3942
C135_7 C 0.4392(2) 0.6679(3) 0.2038(3)
C136_7 C 0.6669(3) 0.6649(3) 0.4544(3)
O43_7 O 0.41251(17) 0.66495(17) 0.18523(19)
O44_7 O 0.44439(19) 0.65454(19) 0.2312(2)
O45_6 O 0.64840(19) 0.64833(17) 0.43565(19)
O46_6 O 0.6759(2) 0.65747(19) 0.4844(2)
N21_7 N 0.33610(19) 0.6454(2) 0.1672(2)
N22_6 N 0.4553(2) 0.6190(2) 0.3015(2)
C137_7 C 0.3405(3) 0.6398(3) 0.1346(3)
C138_7 C 0.3039(3) 0.6534(3) 0.1757(3)
N23_7 N 0.3722(2) 0.6354(4) 0.1212(3)
N24_7 N 0.3152(2) 0.6374(3) 0.1106(2)
N25_7 N 0.2974(3) 0.6617(4) 0.2069(3)
N26_7 N 0.2778(2) 0.6519(3) 0.1548(2)
H89_7 H 0.3896 0.6364 0.1344
H90_7 H 0.3747 0.6317 0.0996
C139_7 C 0.2863(2) 0.6424(3) 0.1222(3)
H91_7 H 0.2769 0.6658 0.2129
H92_7 H 0.3134 0.6631 0.2217
C140_7 C 0.2576(2) 0.6391(3) 0.0963(3)
C141_7 C 0.2632(2) 0.6268(3) 0.0662(3)
C142_7 C 0.2250(3) 0.6495(3) 0.1048(3)
H93_7 H 0.2847 0.6201 0.0603
C143_7 C 0.2364(3) 0.6236(3) 0.0428(3)
H94_7 H 0.2208 0.6598 0.1253
C144_7 C 0.1986(3) 0.6437(3) 0.0806(3)
H95_7 H 0.2407 0.6162 0.0208
H96_7 H 0.1765 0.6492 0.0859
C73_8 C 0.0005(2) 0.3772(3) 0.4447(3)
N16_8 N 0.00943(19) 0.3668(3) 0.4752(2)
N17_8 N 0.02484(19) 0.3793(2) 0.4207(2)
H49_8 H 0.0301 0.3618 0.4791
C83_8 C 0.0140(3) 0.3893(3) 0.3899(3)
C92_8 C 0.0397(3) 0.3902(3) 0.3610(3)
C101_8 C 0.0303(3) 0.3925(4) 0.3289(3)
C102_8 C 0.0742(2) 0.3871(3) 0.3681(3)
H61_8 H 0.0175 0.2549 0.5282
H69_8 H 0.0074 0.3939 0.3237
C107_8 C 0.0535(3) 0.3928(4) 0.3024(3)
H70_8 H 0.0819 0.3835 0.3904
C108_8 C 0.0958(3) 0.3894(3) 0.3415(3)
H71_8 H 0.0459 0.3948 0.2798
H72_8 H 0.1188 0.3904 0.3462
C109_8 C 0.0212(3) 0.2018(3) 0.5574(4)
C113_8 C 0.0202(4) 0.1929(4) 0.5243(4)
C114_8 C 0.0467(4) 0.1942(4) 0.5783(4)
H73_8 H 0.0026 0.1993 0.5101
C121_8 C 0.0449(3) 0.1746(3) 0.5115(3)
H74_8 H 0.0462 0.1999 0.6014
C122_8 C 0.0739(4) 0.1779(4) 0.5653(4)
H81_8 H 0.0429 0.1669 0.4892
C129_8 C 0.0724(3) 0.1672(3) 0.5308(3)
H82_8 H 0.0927 0.1740 0.5789
C133_8 C 0.1008(3) 0.1491(3) 0.5161(3)
Zn13_8 Zn 0.93100(3) 0.37913(3) 0.47651(3)
N15_8 N 0.96794(19) 0.3859(2) 0.4392(2)
O27_8 O 0.94651(18) 0.33980(18) 0.5006(2)
O28_8 O 0.8976(2) 0.3527(2) 0.4477(2)
O29_8 O 0.89764(18) 0.41420(19) 0.46574(19)
O30_8 O 0.94974(17) 0.40385(17) 0.51699(18)
C74_8 C 0.9609(3) 0.3963(4) 0.4073(3)
C75_8 C 0.9300(2) 0.3236(3) 0.5217(3)
C76_8 C 0.8707(3) 0.3396(3) 0.4520(4)
C77_8 C 0.8677(3) 0.4169(3) 0.4744(3)
C78_8 C 0.9310(2) 0.4050(2) 0.5429(3)
N18_8 N 0.9304(3) 0.4071(4) 0.3999(3)
N19_8 N 0.9835(2) 0.3980(3) 0.3829(2)
C79_8 C 0.9489(2) 0.2947(3) 0.5354(3)
O31_8 O 0.90196(16) 0.32807(18) 0.5328(2)
C80_8 C 0.8561(4) 0.3255(4) 0.4199(4)
O32_8 O 0.8528(2) 0.3400(2) 0.4787(2)
C81_8 C 0.8485(3) 0.4427(3) 0.4567(3)
O33_8 O 0.85178(18) 0.4016(2) 0.4952(2)
C82_8 C 0.9419(3) 0.4243(2) 0.5728(3)
O34_8 O 0.90329(19) 0.3910(2) 0.54530(19)
H50_8 H 0.9946 0.3651 0.4913
H51_8 H 0.9264 0.4147 0.3798
H52_8 H 0.9146 0.4065 0.4152
C84_8 C 0.9804(3) 0.2877(3) 0.5216(4)
C85_8 C 0.9336(3) 0.2776(3) 0.5588(3)
C86_8 C 0.8714(5) 0.3260(5) 0.3892(4)
C87_8 C 0.8245(4) 0.3066(4) 0.4255(5)
C88_8 C 0.8149(3) 0.4483(3) 0.4666(4)
C89_8 C 0.8623(3) 0.4600(3) 0.4298(3)
C90_8 C 0.9707(3) 0.4394(3) 0.5745(3)
C91_8 C 0.9196(3) 0.4260(4) 0.6002(4)
H53_8 H 0.9906 0.2997 0.5047
C93_8 C 0.9960(3) 0.2606(4) 0.5355(4)
H54_8 H 0.9128 0.2834 0.5676
C94_8 C 0.9492(3) 0.2507(3) 0.5702(3)
H55_8 H 0.8919 0.3363 0.3874
C95_8 C 0.8585(6) 0.3122(6) 0.3598(5)
H56_8 H 0.8139 0.3049 0.4468
C96_8 C 0.8125(5) 0.2918(5) 0.3957(6)
H57_8 H 0.8047 0.4365 0.4837
C97_8 C 0.7971(3) 0.4720(4) 0.4504(4)
H58_8 H 0.8844 0.4559 0.4232
C98_8 C 0.8450(3) 0.4827(3) 0.4126(3)
H59_8 H 0.9857 0.4383 0.5561
C99_8 C 0.9790(3) 0.4566(3) 0.6029(4)
H60_8 H 0.8986 0.4166 0.5989
C100_8 C 0.9298(3) 0.4428(4) 0.6315(4)
C103_8 C 0.9806(3) 0.2443(4) 0.5577(3)
H62_8 H 0.9385 0.2377 0.5858
H63_8 H 0.8692 0.3140 0.3385
C104_8 C 0.8298(6) 0.2962(6) 0.3637(6)
H64_8 H 0.7935 0.2793 0.3968
H65_8 H 0.7754 0.4770 0.4575
C105_8 C 0.8129(3) 0.4884(3) 0.4226(3)
H66_8 H 0.8551 0.4937 0.3948
H67_8 H 0.9991 0.4676 0.6028
C106_8 C 0.9589(3) 0.4581(3) 0.6308(4)
H68_8 H 0.9162 0.4428 0.6510
O35_8 O 0.9939(3) 0.2174(2) 0.5736(3)
O36_8 O 0.8135(3) 0.2818(4) 0.3351(4)
O37_8 O 0.7952(3) 0.5094(3) 0.4029(2)
O38_8 O 0.9681(3) 0.4724(2) 0.6598(3)
C110_8 C 0.8286(4) 0.2555(5) 0.3203(5)
C111_8 C 0.7683(3) 0.5254(3) 0.4172(3)
C112_8 C 0.9534(3) 0.4993(3) 0.6699(3)
C115_8 C 0.8177(4) 0.2483(4) 0.2886(4)
C116_8 C 0.8549(5) 0.2409(5) 0.3339(4)
C117_8 C 0.7400(3) 0.5279(3) 0.3984(3)
C118_8 C 0.7713(3) 0.5410(3) 0.4467(3)
C119_8 C 0.9571(3) 0.5079(3) 0.7030(3)
C120_8 C 0.9383(3) 0.5169(3) 0.6468(3)
H75_8 H 0.8000 0.2590 0.2785
C123_8 C 0.8337(4) 0.2242(4) 0.2708(4)
H76_8 H 0.8641 0.2475 0.3547
C124_8 C 0.8686(4) 0.2158(4) 0.3171(4)
H77_8 H 0.7377 0.5172 0.3778
C125_8 C 0.7137(3) 0.5471(3) 0.4105(3)
H78_8 H 0.7911 0.5389 0.4594
C126_8 C 0.7469(3) 0.5597(3) 0.4590(3)
H79_8 H 0.9672 0.4944 0.7185
C127_8 C 0.9467(3) 0.5349(3) 0.7140(3)
H80_8 H 0.9367 0.5110 0.6238
C128_8 C 0.9243(3) 0.5459(3) 0.6590(3)
H83_8 H 0.8276 0.2200 0.2482
C130_8 C 0.8573(3) 0.2076(3) 0.2858(3)
H84_8 H 0.8857 0.2045 0.3275
H85_8 H 0.6941 0.5491 0.3974
C131_8 C 0.7162(2) 0.5620(3) 0.4395(3)
H86_8 H 0.7499 0.5706 0.4794
H87_8 H 0.9505 0.5405 0.7368
C132_8 C 0.9298(3) 0.5557(3) 0.6914(3)
H88_8 H 0.9114 0.5578 0.6442
C134_8 C 0.8734(3) 0.1815(3) 0.2671(3)
C135_8 C 0.6892(2) 0.5821(3) 0.4538(3)
C136_8 C 0.9169(3) 0.5851(3) 0.7044(3)
O43_8 O 0.66251(17) 0.58505(17) 0.43523(19)
O44_8 O 0.69439(19) 0.59546(19) 0.4812(2)
N21_8 N 0.58610(19) 0.6046(2) 0.4172(2)
C137_8 C 0.5905(3) 0.6102(3) 0.3846(3)
C138_8 C 0.5539(3) 0.5966(3) 0.4257(3)
N23_8 N 0.6222(2) 0.6146(4) 0.3712(3)
N24_8 N 0.5652(2) 0.6126(3) 0.3606(2)
N25_8 N 0.5474(3) 0.5883(4) 0.4569(3)
N26_8 N 0.5278(2) 0.5981(3) 0.4048(2)
H89_8 H 0.6396 0.6136 0.3844
H90_8 H 0.6247 0.6183 0.3496
C139_8 C 0.5363(2) 0.6076(3) 0.3722(3)
H91_8 H 0.5269 0.5842 0.4629
H92_8 H 0.5634 0.5869 0.4717
C140_8 C 0.5076(2) 0.6109(3) 0.3463(3)
C141_8 C 0.5132(2) 0.6232(3) 0.3162(3)
C142_8 C 0.4750(3) 0.6005(3) 0.3548(3)
H93_8 H 0.5347 0.6299 0.3103
C143_8 C 0.4864(3) 0.6264(3) 0.2928(3)
H94_8 H 0.4708 0.5902 0.3753
C144_8 C 0.4486(3) 0.6063(3) 0.3306(3)
H95_8 H 0.4907 0.6338 0.2708
H96_8 H 0.4265 0.6008 0.3359
C117_9 C 0.0100(3) 0.7779(3) 0.1484(3)
H77_9 H 0.0123 0.7672 0.1278
C125_9 C 0.0363(3) 0.7971(3) 0.1605(3)
C126_9 C 0.0031(3) 0.8097(3) 0.2090(3)
H85_9 H 0.0559 0.7991 0.1474
C131_9 C 0.0338(2) 0.8120(3) 0.1895(3)
H86_9 H 0.0001 0.8206 0.2294
C135_9 C 0.0608(2) 0.8321(3) 0.2038(3)
O43_9 O 0.08749(17) 0.83505(17) 0.18523(19)
O44_9 O 0.05561(19) 0.84546(19) 0.2312(2)
N21_9 N 0.16390(19) 0.8546(2) 0.1672(2)
N22_7 N 0.0447(2) 0.8810(2) 0.3015(2)
C137_9 C 0.1595(3) 0.8602(3) 0.1346(3)
C138_9 C 0.1961(3) 0.8466(3) 0.1757(3)
N23_9 N 0.1278(2) 0.8646(4) 0.1212(3)
N24_9 N 0.1848(2) 0.8626(3) 0.1106(2)
N25_9 N 0.2026(3) 0.8383(4) 0.2069(3)
N26_9 N 0.2222(2) 0.8481(3) 0.1548(2)
H89_9 H 0.1104 0.8636 0.1344
H90_9 H 0.1253 0.8683 0.0996
C139_9 C 0.2137(2) 0.8576(3) 0.1222(3)
H91_9 H 0.2231 0.8342 0.2129
H92_9 H 0.1866 0.8369 0.2217
C140_9 C 0.2424(2) 0.8609(3) 0.0963(3)
C141_9 C 0.2368(2) 0.8732(3) 0.0662(3)
C142_9 C 0.2750(3) 0.8505(3) 0.1048(3)
H93_9 H 0.2153 0.8799 0.0603
C143_9 C 0.2636(3) 0.8764(3) 0.0428(3)
H94_9 H 0.2792 0.8402 0.1253
C144_9 C 0.3014(3) 0.8563(3) 0.0806(3)
H95_9 H 0.2593 0.8838 0.0208
H96_9 H 0.3235 0.8508 0.0859
Zn20_3 Zn 0.12629(3) 0.86073(3) 0.20374(3)
Zn21_3 Zn 0.08280(3) 0.87193(3) 0.26561(3)
O47_5 O 0.15253(19) 0.88890(19) 0.2365(2)
O48_5 O 0.13823(19) 0.82569(19) 0.23920(19)
O49_3 O 0.10160(19) 0.89833(17) 0.18565(19)
O50_5 O 0.12328(19) 0.8945(2) 0.2846(2)
O51_5 O 0.1035(2) 0.83209(19) 0.2830(2)
O52_3 O 0.0741(2) 0.90747(19) 0.2344(2)
N28_3 N 0.2947(2) 0.8690(2) 0.0515(2)
Zn24_2 Zn 0.33280(3) 0.87807(3) 0.01561(3)
Zn13_9 Zn 0.81900(3) 0.62913(3) 0.22651(3)
N15_9 N 0.78206(19) 0.6359(2) 0.1892(2)
O27_9 O 0.80349(18) 0.58980(18) 0.2506(2)
O28_9 O 0.8524(2) 0.6027(2) 0.1977(2)
O29_9 O 0.85236(18) 0.66420(19) 0.21574(19)
O30_9 O 0.80026(17) 0.65385(17) 0.26699(18)
C73_9 C 0.7495(2) 0.6272(3) 0.1947(3)
C74_9 C 0.7891(3) 0.6463(4) 0.1573(3)
C75_9 C 0.8200(2) 0.5736(3) 0.2717(3)
C76_9 C 0.8793(3) 0.5896(3) 0.2020(4)
C77_9 C 0.8823(3) 0.6669(3) 0.2244(3)
C78_9 C 0.8190(2) 0.6550(2) 0.2929(3)
N16_9 N 0.74057(19) 0.6168(3) 0.2252(2)
N17_9 N 0.72516(19) 0.6293(2) 0.1707(2)
N18_9 N 0.8196(3) 0.6571(4) 0.1499(3)
N19_9 N 0.7665(2) 0.6480(3) 0.1329(2)
C79_9 C 0.8011(2) 0.5447(3) 0.2854(3)
O31_9 O 0.84804(16) 0.57807(18) 0.2828(2)
C80_9 C 0.8939(4) 0.5755(4) 0.1699(4)
O32_9 O 0.8972(2) 0.5900(2) 0.2287(2)
C81_9 C 0.9015(3) 0.6927(3) 0.2067(3)
O33_9 O 0.89822(18) 0.6516(2) 0.2452(2)
C82_9 C 0.8081(3) 0.6743(2) 0.3228(3)
O34_9 O 0.84671(19) 0.6410(2) 0.29530(19)
H49_9 H 0.7199 0.6118 0.2291
H50_9 H 0.7554 0.6151 0.2413
C83_9 C 0.7360(3) 0.6393(3) 0.1399(3)
H51_9 H 0.8236 0.6647 0.1298
H52_9 H 0.8354 0.6565 0.1652
C84_9 C 0.7696(3) 0.5377(3) 0.2716(4)
C85_9 C 0.8164(3) 0.5276(3) 0.3088(3)
Zn14_5 Zn 0.87917(3) 0.61341(3) 0.26939(3)
C86_9 C 0.8786(5) 0.5760(5) 0.1392(4)
C87_9 C 0.9255(4) 0.5566(4) 0.1755(5)
C88_9 C 0.9351(3) 0.6983(3) 0.2166(4)
C89_9 C 0.8877(3) 0.7100(3) 0.1798(3)
C90_9 C 0.7793(3) 0.6894(3) 0.3245(3)
C91_9 C 0.8304(3) 0.6760(4) 0.3502(4)
C92_9 C 0.7103(3) 0.6402(3) 0.1110(3)
H53_9 H 0.7594 0.5497 0.2547
C93_9 C 0.7540(3) 0.5106(4) 0.2855(4)
H54_9 H 0.8372 0.5334 0.3176
C94_9 C 0.8008(3) 0.5007(3) 0.3202(3)
N20_5 N 0.91413(19) 0.6095(2) 0.3083(2)
H55_9 H 0.8581 0.5863 0.1374
C95_9 C 0.8915(6) 0.5622(6) 0.1098(5)
H56_9 H 0.9361 0.5549 0.1968
C96_9 C 0.9375(5) 0.5418(5) 0.1457(6)
H57_9 H 0.9453 0.6865 0.2337
C97_9 C 0.9529(3) 0.7220(4) 0.2004(4)
H58_9 H 0.8656 0.7059 0.1732
C98_9 C 0.9050(3) 0.7327(3) 0.1626(3)
H59_9 H 0.7643 0.6883 0.3061
C99_9 C 0.7710(3) 0.7066(3) 0.3529(4)
H60_9 H 0.8514 0.6666 0.3489
C100_9 C 0.8202(3) 0.6928(4) 0.3815(4)
C101_9 C 0.7197(3) 0.6425(4) 0.0789(3)
C102_9 C 0.6758(2) 0.6371(3) 0.1181(3)
H61_9 H 0.7325 0.5049 0.2782
C103_9 C 0.7694(3) 0.4943(4) 0.3077(3)
H62_9 H 0.8115 0.4877 0.3358
H63_9 H 0.8808 0.5640 0.0885
C104_9 C 0.9202(6) 0.5462(6) 0.1137(6)
H64_9 H 0.9565 0.5293 0.1468
H65_9 H 0.9746 0.7270 0.2075
C105_9 C 0.9371(3) 0.7384(3) 0.1726(3)
H66_9 H 0.8949 0.7437 0.1448
H67_9 H 0.7509 0.7176 0.3528
C106_9 C 0.7911(3) 0.7081(3) 0.3808(4)
H68_9 H 0.8338 0.6928 0.4010
H69_9 H 0.7426 0.6439 0.0737
C107_9 C 0.6965(3) 0.6428(4) 0.0524(3)
H70_9 H 0.6681 0.6335 0.1404
C108_9 C 0.6542(3) 0.6394(3) 0.0915(3)
O35_9 O 0.7561(3) 0.4674(2) 0.3236(3)
O36_9 O 0.9365(3) 0.5318(4) 0.0851(4)
O37_9 O 0.9548(3) 0.7594(3) 0.1529(2)
O38_9 O 0.7819(3) 0.7224(2) 0.4098(3)
H71_9 H 0.7041 0.6448 0.0298
H72_9 H 0.6312 0.6404 0.0962
C109_9 C 0.7288(3) 0.4518(3) 0.3074(4)
C110_9 C 0.9214(4) 0.5055(5) 0.0703(5)
C111_9 C 0.9817(3) 0.7754(3) 0.1672(3)
C112_9 C 0.7966(3) 0.7493(3) 0.4199(3)
C113_9 C 0.7298(4) 0.4429(4) 0.2743(4)
C114_9 C 0.7033(4) 0.4442(4) 0.3283(4)
C115_9 C 0.9323(4) 0.4983(4) 0.0386(4)
C116_9 C 0.8951(5) 0.4909(5) 0.0839(4)
C118_9 C 0.9787(3) 0.7910(3) 0.1967(3)
C119_9 C 0.7929(3) 0.7579(3) 0.4530(3)
C120_9 C 0.8117(3) 0.7669(3) 0.3968(3)
H73_9 H 0.7474 0.4493 0.2601
C121_9 C 0.7051(3) 0.4246(3) 0.2615(3)
H74_9 H 0.7038 0.4499 0.3514
C122_9 C 0.6761(4) 0.4279(4) 0.3153(4)
H75_9 H 0.9500 0.5090 0.0285
C123_9 C 0.9163(4) 0.4742(4) 0.0208(4)
H76_9 H 0.8859 0.4975 0.1047
C124_9 C 0.8814(4) 0.4658(4) 0.0671(4)
H78_9 H 0.9589 0.7889 0.2094
H79_9 H 0.7828 0.7444 0.4685
C127_9 C 0.8033(3) 0.7849(3) 0.4640(3)
H80_9 H 0.8133 0.7610 0.3738
C128_9 C 0.8257(3) 0.7959(3) 0.4090(3)
H81_9 H 0.7071 0.4169 0.2392
C129_9 C 0.6776(3) 0.4172(3) 0.2808(3)
H82_9 H 0.6573 0.4240 0.3289
C130_9 C 0.8927(3) 0.4576(3) 0.0358(3)
H84_9 H 0.8643 0.4545 0.0775
H87_9 H 0.7995 0.7905 0.4868
C132_9 C 0.8202(3) 0.8057(3) 0.4414(3)
H88_9 H 0.8386 0.8078 0.3942
C133_9 C 0.6492(3) 0.3991(3) 0.2661(3)
C134_9 C 0.8766(3) 0.4315(3) 0.0171(3)
C136_9 C 0.8331(3) 0.8351(3) 0.4544(3)
O39_5 O 0.65253(19) 0.38890(19) 0.2365(2)
O40_5 O 0.62328(19) 0.3945(2) 0.2846(2)
O41_5 O 0.8535(2) 0.41791(19) 0.0330(2)
O45_7 O 0.85160(19) 0.85167(17) 0.43565(19)
O46_7 O 0.8241(2) 0.84253(19) 0.4844(2)
Zn15_4 Zn 0.62629(3) 0.36073(3) 0.20374(3)
Zn16_3 Zn 0.58280(3) 0.37193(3) 0.26561(3)
N27_5 N 0.66413(19) 0.6405(2) 0.0583(2)
Zn17_5 Zn 0.62917(3) 0.63659(3) 0.01939(3)
Zn18_2 Zn 0.83280(3) 0.37807(3) 0.01561(3)
Zn22_3 Zn 0.87629(3) 0.88927(3) 0.45374(3)
Zn23_3 Zn 0.83280(3) 0.87807(3) 0.51561(3)
H83_9 H 0.9224 0.4700 0.9982
O42_5 O 0.88823(19) 0.42431(19) 0.98920(19)
Zn19_2 Zn 0.87629(3) 0.38927(3) 0.95374(3)
Zn13_10 Zn 0.06900(3) 0.62087(3) 0.47651(3)
N15_10 N 0.03206(19) 0.6141(2) 0.4392(2)
O27_10 O 0.05349(18) 0.66020(18) 0.5006(2)
O28_10 O 0.1024(2) 0.6473(2) 0.4477(2)
O29_10 O 0.10236(18) 0.58580(19) 0.46574(19)
O30_10 O 0.05026(17) 0.59615(17) 0.51699(18)
C74_10 C 0.0391(3) 0.6037(4) 0.4073(3)
C75_10 C 0.0700(2) 0.6764(3) 0.5217(3)
C76_10 C 0.1293(3) 0.6604(3) 0.4520(4)
C77_10 C 0.1323(3) 0.5831(3) 0.4744(3)
C78_10 C 0.0690(2) 0.5950(2) 0.5429(3)
N18_10 N 0.0696(3) 0.5929(4) 0.3999(3)
N19_10 N 0.0165(2) 0.6020(3) 0.3829(2)
C79_10 C 0.0511(2) 0.7053(3) 0.5354(3)
O31_10 O 0.09804(16) 0.67193(18) 0.5328(2)
C80_10 C 0.1439(4) 0.6745(4) 0.4199(4)
O32_10 O 0.1472(2) 0.6600(2) 0.4787(2)
C81_10 C 0.1515(3) 0.5573(3) 0.4567(3)
O33_10 O 0.14822(18) 0.5984(2) 0.4952(2)
C82_10 C 0.0581(3) 0.5757(2) 0.5728(3)
O34_10 O 0.09671(19) 0.6090(2) 0.54530(19)
H50_10 H 0.0054 0.6349 0.4913
H51_10 H 0.0736 0.5853 0.3798
H52_10 H 0.0854 0.5935 0.4152
C84_10 C 0.0196(3) 0.7123(3) 0.5216(4)
C85_10 C 0.0664(3) 0.7224(3) 0.5588(3)
Zn14_6 Zn 0.12917(3) 0.63659(3) 0.51939(3)
C86_10 C 0.1286(5) 0.6740(5) 0.3892(4)
C87_10 C 0.1755(4) 0.6934(4) 0.4255(5)
C88_10 C 0.1851(3) 0.5517(3) 0.4666(4)
C89_10 C 0.1377(3) 0.5400(3) 0.4298(3)
C90_10 C 0.0293(3) 0.5606(3) 0.5745(3)
C91_10 C 0.0804(3) 0.5740(4) 0.6002(4)
H53_10 H 0.0094 0.7003 0.5047
C93_10 C 0.0040(3) 0.7394(4) 0.5355(4)
H54_10 H 0.0872 0.7166 0.5676
C94_10 C 0.0508(3) 0.7493(3) 0.5702(3)
N20_6 N 0.16413(19) 0.6405(2) 0.5583(2)
H55_10 H 0.1081 0.6637 0.3874
C95_10 C 0.1415(6) 0.6878(6) 0.3598(5)
H56_10 H 0.1861 0.6951 0.4468
C96_10 C 0.1875(5) 0.7082(5) 0.3957(6)
H57_10 H 0.1953 0.5635 0.4837
C97_10 C 0.2029(3) 0.5280(4) 0.4504(4)
H58_10 H 0.1156 0.5441 0.4232
C98_10 C 0.1550(3) 0.5173(3) 0.4126(3)
H59_10 H 0.0143 0.5617 0.5561
C99_10 C 0.0210(3) 0.5434(3) 0.6029(4)
H60_10 H 0.1014 0.5834 0.5989
C100_10 C 0.0702(3) 0.5572(4) 0.6315(4)
C103_10 C 0.0194(3) 0.7557(4) 0.5577(3)
H62_10 H 0.0615 0.7623 0.5858
H63_10 H 0.1308 0.6860 0.3385
C104_10 C 0.1702(6) 0.7038(6) 0.3637(6)
H64_10 H 0.2065 0.7207 0.3968
H65_10 H 0.2246 0.5230 0.4575
C105_10 C 0.1871(3) 0.5116(3) 0.4226(3)
H66_10 H 0.1449 0.5063 0.3948
H67_10 H 0.0009 0.5324 0.6028
C106_10 C 0.0411(3) 0.5419(3) 0.6308(4)
H68_10 H 0.0838 0.5572 0.6510
O35_10 O 0.0061(3) 0.7826(2) 0.5736(3)
O36_10 O 0.1865(3) 0.7182(4) 0.3351(4)
O37_10 O 0.2048(3) 0.4906(3) 0.4029(2)
O38_10 O 0.0319(3) 0.5276(2) 0.6598(3)
C110_10 C 0.1714(4) 0.7445(5) 0.3203(5)
C111_10 C 0.2317(3) 0.4746(3) 0.4172(3)
C112_10 C 0.0466(3) 0.5007(3) 0.6699(3)
C115_10 C 0.1823(4) 0.7517(4) 0.2886(4)
C116_10 C 0.1451(5) 0.7591(5) 0.3339(4)
C117_10 C 0.2600(3) 0.4721(3) 0.3984(3)
C118_10 C 0.2287(3) 0.4590(3) 0.4467(3)
C119_10 C 0.0429(3) 0.4921(3) 0.7030(3)
C120_10 C 0.0617(3) 0.4831(3) 0.6468(3)
H75_10 H 0.2000 0.7410 0.2785
C123_10 C 0.1663(4) 0.7758(4) 0.2708(4)
H76_10 H 0.1359 0.7525 0.3547
C124_10 C 0.1314(4) 0.7842(4) 0.3171(4)
H77_10 H 0.2623 0.4828 0.3778
C125_10 C 0.2863(3) 0.4529(3) 0.4105(3)
H78_10 H 0.2089 0.4611 0.4594
C126_10 C 0.2531(3) 0.4403(3) 0.4590(3)
H79_10 H 0.0328 0.5056 0.7185
C127_10 C 0.0533(3) 0.4651(3) 0.7140(3)
H80_10 H 0.0633 0.4890 0.6238
C128_10 C 0.0757(3) 0.4541(3) 0.6590(3)
H83_10 H 0.1724 0.7800 0.2482
C130_10 C 0.1427(3) 0.7924(3) 0.2858(3)
H84_10 H 0.1143 0.7955 0.3275
H85_10 H 0.3059 0.4509 0.3974
C131_10 C 0.2838(2) 0.4380(3) 0.4395(3)
H86_10 H 0.2501 0.4294 0.4794
H87_10 H 0.0495 0.4595 0.7368
C132_10 C 0.0702(3) 0.4443(3) 0.6914(3)
H88_10 H 0.0886 0.4422 0.6442
C134_10 C 0.1266(3) 0.8185(3) 0.2671(3)
C135_10 C 0.3108(2) 0.4179(3) 0.4538(3)
C136_10 C 0.0831(3) 0.4149(3) 0.7044(3)
O43_10 O 0.33749(17) 0.41495(17) 0.43523(19)
O44_10 O 0.30561(19) 0.40454(19) 0.4812(2)
O45_8 O 0.10160(19) 0.39833(17) 0.68565(19)
O46_8 O 0.0741(2) 0.40747(19) 0.7344(2)
N21_10 N 0.41390(19) 0.3954(2) 0.4172(2)
N22_8 N 0.2947(2) 0.3690(2) 0.5515(2)
C137_10 C 0.4095(3) 0.3898(3) 0.3846(3)
C138_10 C 0.4461(3) 0.4034(3) 0.4257(3)
N23_10 N 0.3778(2) 0.3854(4) 0.3712(3)
N24_10 N 0.4348(2) 0.3874(3) 0.3606(2)
N25_10 N 0.4526(3) 0.4117(4) 0.4569(3)
N26_10 N 0.4722(2) 0.4019(3) 0.4048(2)
H89_10 H 0.3604 0.3864 0.3844
H90_10 H 0.3753 0.3817 0.3496
C139_10 C 0.4637(2) 0.3924(3) 0.3722(3)
H91_10 H 0.4731 0.4158 0.4629
H92_10 H 0.4366 0.4131 0.4717
C140_10 C 0.4924(2) 0.3891(3) 0.3463(3)
C141_10 C 0.4868(2) 0.3768(3) 0.3162(3)
C142_10 C 0.5250(3) 0.3995(3) 0.3548(3)
H93_10 H 0.4653 0.3701 0.3103
C143_10 C 0.5136(3) 0.3736(3) 0.2928(3)
H94_10 H 0.5292 0.4098 0.3753
C144_10 C 0.5514(3) 0.3937(3) 0.3306(3)
H95_10 H 0.5093 0.3662 0.2708
H96_10 H 0.5735 0.3992 0.3359
Zn20_4 Zn 0.37629(3) 0.38927(3) 0.45374(3)
Zn21_4 Zn 0.33280(3) 0.37807(3) 0.51561(3)
Zn22_4 Zn 0.12629(3) 0.36073(3) 0.70374(3)
Zn23_4 Zn 0.08280(3) 0.37193(3) 0.76561(3)
O47_6 O 0.40253(19) 0.36110(19) 0.4865(2)
O48_6 O 0.38823(19) 0.42431(19) 0.48920(19)
O49_4 O 0.35160(19) 0.35167(17) 0.43565(19)
O50_6 O 0.37328(19) 0.3555(2) 0.5346(2)
O51_6 O 0.3535(2) 0.41791(19) 0.5330(2)
O52_4 O 0.3241(2) 0.34253(19) 0.4844(2)
N28_4 N 0.5447(2) 0.3810(2) 0.3015(2)
C73_10 C 0.9995(2) 0.6228(3) 0.4447(3)
N16_10 N 0.99057(19) 0.6332(3) 0.4752(2)
N17_10 N 0.97516(19) 0.6207(2) 0.4207(2)
H49_10 H 0.9699 0.6382 0.4791
C83_10 C 0.9860(3) 0.6107(3) 0.3899(3)
C92_10 C 0.9603(3) 0.6098(3) 0.3610(3)
C101_10 C 0.9697(3) 0.6075(4) 0.3289(3)
C102_10 C 0.9258(2) 0.6129(3) 0.3681(3)
H61_10 H 0.9825 0.7451 0.5282
H69_10 H 0.9926 0.6061 0.3237
C107_10 C 0.9465(3) 0.6072(4) 0.3024(3)
H70_10 H 0.9181 0.6165 0.3904
C108_10 C 0.9042(3) 0.6106(3) 0.3415(3)
H71_10 H 0.9541 0.6052 0.2798
H72_10 H 0.8812 0.6096 0.3462
C109_10 C 0.9788(3) 0.7982(3) 0.5574(4)
C113_10 C 0.9798(4) 0.8071(4) 0.5243(4)
C114_10 C 0.9533(4) 0.8058(4) 0.5783(4)
H73_10 H 0.9974 0.8007 0.5101
C121_10 C 0.9551(3) 0.8254(3) 0.5115(3)
H74_10 H 0.9538 0.8001 0.6014
C122_10 C 0.9261(4) 0.8221(4) 0.5653(4)
H81_10 H 0.9571 0.8331 0.4892
C129_10 C 0.9276(3) 0.8328(3) 0.5308(3)
H82_10 H 0.9073 0.8260 0.5789
C133_10 C 0.8992(3) 0.8509(3) 0.5161(3)
O39_6 O 0.90253(19) 0.86110(19) 0.4865(2)
O40_6 O 0.87328(19) 0.8555(2) 0.5346(2)
C117_11 C 0.0100(3) 0.2779(3) 0.6484(3)
H77_11 H 0.0123 0.2672 0.6278
C125_11 C 0.0363(3) 0.2971(3) 0.6605(3)
C126_11 C 0.0031(3) 0.3097(3) 0.7090(3)
H85_11 H 0.0559 0.2991 0.6474
C131_11 C 0.0338(2) 0.3120(3) 0.6895(3)
H86_11 H 0.0001 0.3206 0.7294
C135_11 C 0.0608(2) 0.3321(3) 0.7038(3)
O43_11 O 0.08749(17) 0.33505(17) 0.68523(19)
O44_11 O 0.05561(19) 0.34546(19) 0.7312(2)
N21_11 N 0.16390(19) 0.3546(2) 0.6672(2)
N22_9 N 0.0447(2) 0.3810(2) 0.8015(2)
C137_11 C 0.1595(3) 0.3602(3) 0.6346(3)
C138_11 C 0.1961(3) 0.3466(3) 0.6757(3)
N23_11 N 0.1278(2) 0.3646(4) 0.6212(3)
N24_11 N 0.1848(2) 0.3626(3) 0.6106(2)
N25_11 N 0.2026(3) 0.3383(4) 0.7069(3)
N26_11 N 0.2222(2) 0.3481(3) 0.6548(2)
H89_11 H 0.1104 0.3636 0.6344
H90_11 H 0.1253 0.3683 0.5996
C139_11 C 0.2137(2) 0.3576(3) 0.6222(3)
H91_11 H 0.2231 0.3342 0.7129
H92_11 H 0.1866 0.3369 0.7217
C140_11 C 0.2424(2) 0.3609(3) 0.5963(3)
C141_11 C 0.2368(2) 0.3732(3) 0.5662(3)
C142_11 C 0.2750(3) 0.3505(3) 0.6048(3)
H93_11 H 0.2153 0.3799 0.5603
C143_11 C 0.2636(3) 0.3764(3) 0.5428(3)
H94_11 H 0.2792 0.3402 0.6253
C144_11 C 0.3014(3) 0.3563(3) 0.5806(3)
H95_11 H 0.2593 0.3838 0.5208
H96_11 H 0.3235 0.3508 0.5859
O47_7 O 0.15253(19) 0.38890(19) 0.7365(2)
O48_7 O 0.13823(19) 0.32569(19) 0.73920(19)
O50_7 O 0.12328(19) 0.3945(2) 0.7846(2)
O51_7 O 0.1035(2) 0.33209(19) 0.7830(2)
Zn13_11 Zn 0.81900(3) 0.12913(3) 0.72651(3)
N15_11 N 0.78206(19) 0.1359(2) 0.6892(2)
O27_11 O 0.80349(18) 0.08980(18) 0.7506(2)
O28_11 O 0.8524(2) 0.1027(2) 0.6977(2)
O29_11 O 0.85236(18) 0.16420(19) 0.71574(19)
O30_11 O 0.80026(17) 0.15385(17) 0.76699(18)
C73_11 C 0.7495(2) 0.1272(3) 0.6947(3)
C74_11 C 0.7891(3) 0.1463(4) 0.6573(3)
C75_11 C 0.8200(2) 0.0736(3) 0.7717(3)
C76_11 C 0.8793(3) 0.0896(3) 0.7020(4)
C77_11 C 0.8823(3) 0.1669(3) 0.7244(3)
C78_11 C 0.8190(2) 0.1550(2) 0.7929(3)
N16_11 N 0.74057(19) 0.1168(3) 0.7252(2)
N17_11 N 0.72516(19) 0.1293(2) 0.6707(2)
N18_11 N 0.8196(3) 0.1571(4) 0.6499(3)
N19_11 N 0.7665(2) 0.1480(3) 0.6329(2)
C79_11 C 0.8011(2) 0.0447(3) 0.7854(3)
O31_11 O 0.84804(16) 0.07807(18) 0.7828(2)
C80_11 C 0.8939(4) 0.0755(4) 0.6699(4)
O32_11 O 0.8972(2) 0.0900(2) 0.7287(2)
C81_11 C 0.9015(3) 0.1927(3) 0.7067(3)
O33_11 O 0.89822(18) 0.1516(2) 0.7452(2)
C82_11 C 0.8081(3) 0.1743(2) 0.8228(3)
O34_11 O 0.84671(19) 0.1410(2) 0.79530(19)
H49_11 H 0.7199 0.1118 0.7291
H50_11 H 0.7554 0.1151 0.7413
C83_11 C 0.7360(3) 0.1393(3) 0.6399(3)
H51_11 H 0.8236 0.1647 0.6298
H52_11 H 0.8354 0.1565 0.6652
C84_11 C 0.7696(3) 0.0377(3) 0.7716(4)
C85_11 C 0.8164(3) 0.0276(3) 0.8088(3)
Zn14_7 Zn 0.87917(3) 0.11341(3) 0.76939(3)
C86_11 C 0.8786(5) 0.0760(5) 0.6392(4)
C87_11 C 0.9255(4) 0.0566(4) 0.6755(5)
C88_11 C 0.9351(3) 0.1983(3) 0.7166(4)
C89_11 C 0.8877(3) 0.2100(3) 0.6798(3)
C90_11 C 0.7793(3) 0.1894(3) 0.8245(3)
C91_11 C 0.8304(3) 0.1760(4) 0.8502(4)
C92_11 C 0.7103(3) 0.1402(3) 0.6110(3)
H53_11 H 0.7594 0.0497 0.7547
C93_11 C 0.7540(3) 0.0106(4) 0.7855(4)
H54_11 H 0.8372 0.0334 0.8176
C94_11 C 0.8008(3) 0.0007(3) 0.8202(3)
N20_7 N 0.91413(19) 0.1095(2) 0.8083(2)
H55_11 H 0.8581 0.0863 0.6374
C95_11 C 0.8915(6) 0.0622(6) 0.6098(5)
H56_11 H 0.9361 0.0549 0.6968
C96_11 C 0.9375(5) 0.0418(5) 0.6457(6)
H57_11 H 0.9453 0.1865 0.7337
C97_11 C 0.9529(3) 0.2220(4) 0.7004(4)
H58_11 H 0.8656 0.2059 0.6732
C98_11 C 0.9050(3) 0.2327(3) 0.6626(3)
H59_11 H 0.7643 0.1883 0.8061
C99_11 C 0.7710(3) 0.2066(3) 0.8529(4)
H60_11 H 0.8514 0.1666 0.8489
C100_11 C 0.8202(3) 0.1928(4) 0.8815(4)
C101_11 C 0.7197(3) 0.1425(4) 0.5789(3)
C102_11 C 0.6758(2) 0.1371(3) 0.6181(3)
H61_11 H 0.7325 0.0049 0.7782
H63_11 H 0.8808 0.0640 0.5885
C104_11 C 0.9202(6) 0.0462(6) 0.6137(6)
H64_11 H 0.9565 0.0293 0.6468
H65_11 H 0.9746 0.2270 0.7075
C105_11 C 0.9371(3) 0.2384(3) 0.6726(3)
H66_11 H 0.8949 0.2437 0.6448
H67_11 H 0.7509 0.2176 0.8528
C106_11 C 0.7911(3) 0.2081(3) 0.8808(4)
H68_11 H 0.8338 0.1928 0.9010
H69_11 H 0.7426 0.1439 0.5737
C107_11 C 0.6965(3) 0.1428(4) 0.5524(3)
H70_11 H 0.6681 0.1335 0.6404
C108_11 C 0.6542(3) 0.1394(3) 0.5915(3)
O36_11 O 0.9365(3) 0.0318(4) 0.5851(4)
O37_11 O 0.9548(3) 0.2594(3) 0.6529(2)
O38_11 O 0.7819(3) 0.2224(2) 0.9098(3)
H71_11 H 0.7041 0.1448 0.5298
H72_11 H 0.6312 0.1404 0.5962
C110_11 C 0.9214(4) 0.0055(5) 0.5703(5)
C111_11 C 0.9817(3) 0.2754(3) 0.6672(3)
C112_11 C 0.7966(3) 0.2493(3) 0.9199(3)
C118_11 C 0.9787(3) 0.2910(3) 0.6967(3)
C119_11 C 0.7929(3) 0.2579(3) 0.9530(3)
C120_11 C 0.8117(3) 0.2669(3) 0.8968(3)
H75_11 H 0.9500 0.0090 0.5285
H78_11 H 0.9589 0.2889 0.7094
H79_11 H 0.7828 0.2444 0.9685
C127_11 C 0.8033(3) 0.2849(3) 0.9640(3)
H80_11 H 0.8133 0.2610 0.8738
C128_11 C 0.8257(3) 0.2959(3) 0.9090(3)
H87_11 H 0.7995 0.2905 0.9868
C132_11 C 0.8202(3) 0.3057(3) 0.9414(3)
H88_11 H 0.8386 0.3078 0.8942
C136_11 C 0.8331(3) 0.3351(3) 0.9544(3)
O45_9 O 0.85160(19) 0.35167(17) 0.93565(19)
O46_9 O 0.8241(2) 0.34253(19) 0.9844(2)
N27_6 N 0.66413(19) 0.1405(2) 0.5583(2)
Zn17_6 Zn 0.62917(3) 0.13659(3) 0.51939(3)
C103_11 C 0.7694(3) 0.9943(4) 0.8077(3)
H62_11 H 0.8115 0.9877 0.8358
O35_11 O 0.7561(3) 0.9674(2) 0.8236(3)
C109_11 C 0.7288(3) 0.9518(3) 0.8074(4)
C113_11 C 0.7298(4) 0.9429(4) 0.7743(4)
C114_11 C 0.7033(4) 0.9442(4) 0.8283(4)
C115_11 C 0.9323(4) 0.9983(4) 0.5386(4)
C116_11 C 0.8951(5) 0.9909(5) 0.5839(4)
H73_11 H 0.7474 0.9493 0.7601
C121_11 C 0.7051(3) 0.9246(3) 0.7615(3)
H74_11 H 0.7038 0.9499 0.8514
C122_11 C 0.6761(4) 0.9279(4) 0.8153(4)
C123_11 C 0.9163(4) 0.9742(4) 0.5208(4)
H76_11 H 0.8859 0.9975 0.6047
C124_11 C 0.8814(4) 0.9658(4) 0.5671(4)
H81_11 H 0.7071 0.9169 0.7392
C129_11 C 0.6776(3) 0.9172(3) 0.7808(3)
H82_11 H 0.6573 0.9240 0.8289
H83_11 H 0.9224 0.9700 0.4982
C130_11 C 0.8927(3) 0.9576(3) 0.5358(3)
H84_11 H 0.8643 0.9545 0.5775
C133_11 C 0.6492(3) 0.8991(3) 0.7661(3)
C134_11 C 0.8766(3) 0.9315(3) 0.5171(3)
O39_7 O 0.65253(19) 0.88890(19) 0.7365(2)
O40_7 O 0.62328(19) 0.8945(2) 0.7846(2)
O41_6 O 0.8535(2) 0.91791(19) 0.5330(2)
O42_6 O 0.88823(19) 0.92431(19) 0.48920(19)
Zn15_5 Zn 0.62629(3) 0.86073(3) 0.70374(3)
Zn16_4 Zn 0.58280(3) 0.87193(3) 0.76561(3)
O27_12 O 0.05349(18) 0.16020(18) 0.0006(2)
O30_12 O 0.05026(17) 0.09615(17) 0.01699(18)
C75_12 C 0.0700(2) 0.1764(3) 0.0217(3)
C78_12 C 0.0690(2) 0.0950(2) 0.0429(3)
C79_12 C 0.0511(2) 0.2053(3) 0.0354(3)
O31_12 O 0.09804(16) 0.17193(18) 0.0328(2)
C82_12 C 0.0581(3) 0.0757(2) 0.0728(3)
O34_12 O 0.09671(19) 0.1090(2) 0.04530(19)
C84_12 C 0.0196(3) 0.2123(3) 0.0216(4)
C85_12 C 0.0664(3) 0.2224(3) 0.0588(3)
Zn14_8 Zn 0.12917(3) 0.13659(3) 0.01939(3)
C90_12 C 0.0293(3) 0.0606(3) 0.0745(3)
C91_12 C 0.0804(3) 0.0740(4) 0.1002(4)
H53_12 H 0.0094 0.2003 0.0047
C93_12 C 0.0040(3) 0.2394(4) 0.0355(4)
H54_12 H 0.0872 0.2166 0.0676
C94_12 C 0.0508(3) 0.2493(3) 0.0702(3)
N20_8 N 0.16413(19) 0.1405(2) 0.0583(2)
H59_12 H 0.0143 0.0617 0.0561
C99_12 C 0.0210(3) 0.0434(3) 0.1029(4)
H60_12 H 0.1014 0.0834 0.0989
C100_12 C 0.0702(3) 0.0572(4) 0.1315(4)
C103_12 C 0.0194(3) 0.2557(4) 0.0577(3)
H62_12 H 0.0615 0.2623 0.0858
H67_12 H 0.0009 0.0324 0.1028
C106_12 C 0.0411(3) 0.0419(3) 0.1308(4)
H68_12 H 0.0838 0.0572 0.1510
O35_12 O 0.0061(3) 0.2826(2) 0.0736(3)
O38_12 O 0.0319(3) 0.0276(2) 0.1598(3)
C112_12 C 0.0466(3) 0.0007(3) 0.1699(3)
H79_12 H 0.0328 0.0056 0.2185
Zn13_12 Zn 0.06900(3) 0.12087(3) 0.97651(3)
N15_12 N 0.03206(19) 0.1141(2) 0.9392(2)
O28_12 O 0.1024(2) 0.1473(2) 0.9477(2)
O29_12 O 0.10236(18) 0.08580(19) 0.96574(19)
C74_12 C 0.0391(3) 0.1037(4) 0.9073(3)
C76_12 C 0.1293(3) 0.1604(3) 0.9520(4)
C77_12 C 0.1323(3) 0.0831(3) 0.9744(3)
N18_12 N 0.0696(3) 0.0929(4) 0.8999(3)
N19_12 N 0.0165(2) 0.1020(3) 0.8829(2)
C80_12 C 0.1439(4) 0.1745(4) 0.9199(4)
O32_12 O 0.1472(2) 0.1600(2) 0.9787(2)
C81_12 C 0.1515(3) 0.0573(3) 0.9567(3)
O33_12 O 0.14822(18) 0.0984(2) 0.9952(2)
H50_12 H 0.0054 0.1349 0.9913
H51_12 H 0.0736 0.0853 0.8798
H52_12 H 0.0854 0.0935 0.9152
C86_12 C 0.1286(5) 0.1740(5) 0.8892(4)
C87_12 C 0.1755(4) 0.1934(4) 0.9255(5)
C88_12 C 0.1851(3) 0.0517(3) 0.9666(4)
C89_12 C 0.1377(3) 0.0400(3) 0.9298(3)
H55_12 H 0.1081 0.1637 0.8874
C95_12 C 0.1415(6) 0.1878(6) 0.8598(5)
H56_12 H 0.1861 0.1951 0.9468
C96_12 C 0.1875(5) 0.2082(5) 0.8957(6)
H57_12 H 0.1953 0.0635 0.9837
C97_12 C 0.2029(3) 0.0280(4) 0.9504(4)
H58_12 H 0.1156 0.0441 0.9232
C98_12 C 0.1550(3) 0.0173(3) 0.9126(3)
H63_12 H 0.1308 0.1860 0.8385
C104_12 C 0.1702(6) 0.2038(6) 0.8637(6)
H64_12 H 0.2065 0.2207 0.8968
H65_12 H 0.2246 0.0230 0.9575
C105_12 C 0.1871(3) 0.0116(3) 0.9226(3)
H66_12 H 0.1449 0.0063 0.8948
O36_12 O 0.1865(3) 0.2182(4) 0.8351(4)
C110_12 C 0.1714(4) 0.2445(5) 0.8203(5)
C115_12 C 0.1823(4) 0.2517(4) 0.7886(4)
C116_12 C 0.1451(5) 0.2591(5) 0.8339(4)
H75_12 H 0.2000 0.2410 0.7785
C123_12 C 0.1663(4) 0.2758(4) 0.7708(4)
H76_12 H 0.1359 0.2525 0.8547
C124_12 C 0.1314(4) 0.2842(4) 0.8171(4)
H83_12 H 0.1724 0.2800 0.7482
C130_12 C 0.1427(3) 0.2924(3) 0.7858(3)
H84_12 H 0.1143 0.2955 0.8275
C134_12 C 0.1266(3) 0.3185(3) 0.7671(3)
C119_12 C 0.0429(3) 0.9921(3) 0.2030(3)
C120_12 C 0.0617(3) 0.9831(3) 0.1468(3)
C127_12 C 0.0533(3) 0.9651(3) 0.2140(3)
H80_12 H 0.0633 0.9890 0.1238
C128_12 C 0.0757(3) 0.9541(3) 0.1590(3)
H87_12 H 0.0495 0.9595 0.2368
C132_12 C 0.0702(3) 0.9443(3) 0.1914(3)
H88_12 H 0.0886 0.9422 0.1442
C136_12 C 0.0831(3) 0.9149(3) 0.2044(3)
O50_8 O 0.37328(19) 0.8555(2) 0.0346(2)
O51_8 O 0.3535(2) 0.91791(19) 0.0330(2)
O37_12 O 0.2048(3) 0.9906(3) 0.9029(2)
C111_12 C 0.2317(3) 0.9746(3) 0.9172(3)
C117_12 C 0.2600(3) 0.9721(3) 0.8984(3)
C118_12 C 0.2287(3) 0.9590(3) 0.9467(3)
H77_12 H 0.2623 0.9828 0.8778
C125_12 C 0.2863(3) 0.9529(3) 0.9105(3)
H78_12 H 0.2089 0.9611 0.9594
C126_12 C 0.2531(3) 0.9403(3) 0.9590(3)
H85_12 H 0.3059 0.9509 0.8974
C131_12 C 0.2838(2) 0.9380(3) 0.9395(3)
H86_12 H 0.2501 0.9294 0.9794
C135_12 C 0.3108(2) 0.9179(3) 0.9538(3)
O43_12 O 0.33749(17) 0.91495(17) 0.93523(19)
O44_12 O 0.30561(19) 0.90454(19) 0.9812(2)
N21_12 N 0.41390(19) 0.8954(2) 0.9172(2)
C137_12 C 0.4095(3) 0.8898(3) 0.8846(3)
C138_12 C 0.4461(3) 0.9034(3) 0.9257(3)
N23_12 N 0.3778(2) 0.8854(4) 0.8712(3)
N24_12 N 0.4348(2) 0.8874(3) 0.8606(2)
N25_12 N 0.4526(3) 0.9117(4) 0.9569(3)
N26_12 N 0.4722(2) 0.9019(3) 0.9048(2)
H89_12 H 0.3604 0.8864 0.8844
H90_12 H 0.3753 0.8817 0.8496
C139_12 C 0.4637(2) 0.8924(3) 0.8722(3)
H91_12 H 0.4731 0.9158 0.9629
H92_12 H 0.4366 0.9131 0.9717
C140_12 C 0.4924(2) 0.8891(3) 0.8463(3)
C141_12 C 0.4868(2) 0.8768(3) 0.8162(3)
C142_12 C 0.5250(3) 0.8995(3) 0.8548(3)
H93_12 H 0.4653 0.8701 0.8103
C143_12 C 0.5136(3) 0.8736(3) 0.7928(3)
H94_12 H 0.5292 0.9098 0.8753
C144_12 C 0.5514(3) 0.8937(3) 0.8306(3)
H95_12 H 0.5093 0.8662 0.7708
H96_12 H 0.5735 0.8992 0.8359
Zn20_5 Zn 0.37629(3) 0.88927(3) 0.95374(3)
O47_8 O 0.40253(19) 0.86110(19) 0.9865(2)
O48_8 O 0.38823(19) 0.92431(19) 0.98920(19)
O49_5 O 0.35160(19) 0.85167(17) 0.93565(19)
O52_5 O 0.3241(2) 0.84253(19) 0.9844(2)
N28_5 N 0.5447(2) 0.8810(2) 0.8015(2)
H61_12 H 0.9825 0.2451 0.0282
C109_12 C 0.9788(3) 0.2982(3) 0.0574(4)
C113_12 C 0.9798(4) 0.3071(4) 0.0243(4)
C114_12 C 0.9533(4) 0.3058(4) 0.0783(4)
H73_12 H 0.9974 0.3007 0.0101
C121_12 C 0.9551(3) 0.3254(3) 0.0115(3)
H74_12 H 0.9538 0.3001 0.1014
C122_12 C 0.9261(4) 0.3221(4) 0.0653(4)
C129_12 C 0.9276(3) 0.3328(3) 0.0308(3)
H82_12 H 0.9073 0.3260 0.0789
C133_12 C 0.8992(3) 0.3509(3) 0.0161(3)
O40_8 O 0.87328(19) 0.3555(2) 0.0346(2)
C73_12 C 0.9995(2) 0.1228(3) 0.9447(3)
N16_12 N 0.99057(19) 0.1332(3) 0.9752(2)
N17_12 N 0.97516(19) 0.1207(2) 0.9207(2)
H49_12 H 0.9699 0.1382 0.9791
C83_12 C 0.9860(3) 0.1107(3) 0.8899(3)
C92_12 C 0.9603(3) 0.1098(3) 0.8610(3)
C101_12 C 0.9697(3) 0.1075(4) 0.8289(3)
C102_12 C 0.9258(2) 0.1129(3) 0.8681(3)
H69_12 H 0.9926 0.1061 0.8237
C107_12 C 0.9465(3) 0.1072(4) 0.8024(3)
H70_12 H 0.9181 0.1165 0.8904
C108_12 C 0.9042(3) 0.1106(3) 0.8415(3)
H71_12 H 0.9541 0.1052 0.7798
H72_12 H 0.8812 0.1096 0.8462
H81_12 H 0.9571 0.3331 0.9892
O39_8 O 0.90253(19) 0.36110(19) 0.9865(2)
Zn13_13 Zn 0.31900(3) 0.62913(3) 0.72651(3)
N15_13 N 0.28206(19) 0.6359(2) 0.6892(2)
O27_13 O 0.30349(18) 0.58980(18) 0.7506(2)
O28_13 O 0.3524(2) 0.6027(2) 0.6977(2)
O29_13 O 0.35236(18) 0.66420(19) 0.71574(19)
O30_13 O 0.30026(17) 0.65385(17) 0.76699(18)
C73_13 C 0.2495(2) 0.6272(3) 0.6947(3)
C74_13 C 0.2891(3) 0.6463(4) 0.6573(3)
C75_13 C 0.3200(2) 0.5736(3) 0.7717(3)
C76_13 C 0.3793(3) 0.5896(3) 0.7020(4)
C77_13 C 0.3823(3) 0.6669(3) 0.7244(3)
C78_13 C 0.3190(2) 0.6550(2) 0.7929(3)
N16_13 N 0.24057(19) 0.6168(3) 0.7252(2)
N17_13 N 0.22516(19) 0.6293(2) 0.6707(2)
N18_13 N 0.3196(3) 0.6571(4) 0.6499(3)
N19_13 N 0.2665(2) 0.6480(3) 0.6329(2)
C79_13 C 0.3011(2) 0.5447(3) 0.7854(3)
O31_13 O 0.34804(16) 0.57807(18) 0.7828(2)
C80_13 C 0.3939(4) 0.5755(4) 0.6699(4)
O32_13 O 0.3972(2) 0.5900(2) 0.7287(2)
C81_13 C 0.4015(3) 0.6927(3) 0.7067(3)
O33_13 O 0.39822(18) 0.6516(2) 0.7452(2)
C82_13 C 0.3081(3) 0.6743(2) 0.8228(3)
O34_13 O 0.34671(19) 0.6410(2) 0.79530(19)
H49_13 H 0.2199 0.6118 0.7291
H50_13 H 0.2554 0.6151 0.7413
C83_13 C 0.2360(3) 0.6393(3) 0.6399(3)
H51_13 H 0.3236 0.6647 0.6298
H52_13 H 0.3354 0.6565 0.6652
C84_13 C 0.2696(3) 0.5377(3) 0.7716(4)
C85_13 C 0.3164(3) 0.5276(3) 0.8088(3)
Zn14_9 Zn 0.37917(3) 0.61341(3) 0.76939(3)
C86_13 C 0.3786(5) 0.5760(5) 0.6392(4)
C87_13 C 0.4255(4) 0.5566(4) 0.6755(5)
C88_13 C 0.4351(3) 0.6983(3) 0.7166(4)
C89_13 C 0.3877(3) 0.7100(3) 0.6798(3)
C90_13 C 0.2793(3) 0.6894(3) 0.8245(3)
C91_13 C 0.3304(3) 0.6760(4) 0.8502(4)
C92_13 C 0.2103(3) 0.6402(3) 0.6110(3)
H53_13 H 0.2594 0.5497 0.7547
C93_13 C 0.2540(3) 0.5106(4) 0.7855(4)
H54_13 H 0.3372 0.5334 0.8176
C94_13 C 0.3008(3) 0.5007(3) 0.8202(3)
N20_9 N 0.41413(19) 0.6095(2) 0.8083(2)
H55_13 H 0.3581 0.5863 0.6374
C95_13 C 0.3915(6) 0.5622(6) 0.6098(5)
H56_13 H 0.4361 0.5549 0.6968
C96_13 C 0.4375(5) 0.5418(5) 0.6457(6)
H57_13 H 0.4453 0.6865 0.7337
C97_13 C 0.4529(3) 0.7220(4) 0.7004(4)
H58_13 H 0.3656 0.7059 0.6732
C98_13 C 0.4050(3) 0.7327(3) 0.6626(3)
H59_13 H 0.2643 0.6883 0.8061
C99_13 C 0.2710(3) 0.7066(3) 0.8529(4)
H60_13 H 0.3514 0.6666 0.8489
C100_13 C 0.3202(3) 0.6928(4) 0.8815(4)
C101_13 C 0.2197(3) 0.6425(4) 0.5789(3)
C102_13 C 0.1758(2) 0.6371(3) 0.6181(3)
H61_13 H 0.2325 0.5049 0.7782
C103_13 C 0.2694(3) 0.4943(4) 0.8077(3)
H62_13 H 0.3115 0.4877 0.8358
H63_13 H 0.3808 0.5640 0.5885
C104_13 C 0.4202(6) 0.5462(6) 0.6137(6)
H64_13 H 0.4565 0.5293 0.6468
H65_13 H 0.4746 0.7270 0.7075
C105_13 C 0.4371(3) 0.7384(3) 0.6726(3)
H66_13 H 0.3949 0.7437 0.6448
H67_13 H 0.2509 0.7176 0.8528
C106_13 C 0.2911(3) 0.7081(3) 0.8808(4)
H68_13 H 0.3338 0.6928 0.9010
H69_13 H 0.2426 0.6439 0.5737
C107_13 C 0.1965(3) 0.6428(4) 0.5524(3)
H70_13 H 0.1681 0.6335 0.6404
C108_13 C 0.1542(3) 0.6394(3) 0.5915(3)
O35_13 O 0.2561(3) 0.4674(2) 0.8236(3)
O36_13 O 0.4365(3) 0.5318(4) 0.5851(4)
O37_13 O 0.4548(3) 0.7594(3) 0.6529(2)
O38_13 O 0.2819(3) 0.7224(2) 0.9098(3)
H71_13 H 0.2041 0.6448 0.5298
H72_13 H 0.1312 0.6404 0.5962
C109_13 C 0.2288(3) 0.4518(3) 0.8074(4)
C110_13 C 0.4214(4) 0.5055(5) 0.5703(5)
C111_13 C 0.4817(3) 0.7754(3) 0.6672(3)
C112_13 C 0.2966(3) 0.7493(3) 0.9199(3)
C113_13 C 0.2298(4) 0.4429(4) 0.7743(4)
C114_13 C 0.2033(4) 0.4442(4) 0.8283(4)
C115_13 C 0.4323(4) 0.4983(4) 0.5386(4)
C116_13 C 0.3951(5) 0.4909(5) 0.5839(4)
C117_13 C 0.5100(3) 0.7779(3) 0.6484(3)
C118_13 C 0.4787(3) 0.7910(3) 0.6967(3)
C119_13 C 0.2929(3) 0.7579(3) 0.9530(3)
C120_13 C 0.3117(3) 0.7669(3) 0.8968(3)
H73_13 H 0.2474 0.4493 0.7601
C121_13 C 0.2051(3) 0.4246(3) 0.7615(3)
H74_13 H 0.2038 0.4499 0.8514
C122_13 C 0.1761(4) 0.4279(4) 0.8153(4)
H75_13 H 0.4500 0.5090 0.5285
C123_13 C 0.4163(4) 0.4742(4) 0.5208(4)
H76_13 H 0.3859 0.4975 0.6047
C124_13 C 0.3814(4) 0.4658(4) 0.5671(4)
H77_13 H 0.5123 0.7672 0.6278
C125_13 C 0.5363(3) 0.7971(3) 0.6605(3)
H78_13 H 0.4589 0.7889 0.7094
C126_13 C 0.5031(3) 0.8097(3) 0.7090(3)
H79_13 H 0.2828 0.7444 0.9685
C127_13 C 0.3033(3) 0.7849(3) 0.9640(3)
H80_13 H 0.3133 0.7610 0.8738
C128_13 C 0.3257(3) 0.7959(3) 0.9090(3)
H81_13 H 0.2071 0.4169 0.7392
C129_13 C 0.1776(3) 0.4172(3) 0.7808(3)
H82_13 H 0.1573 0.4240 0.8289
H83_13 H 0.4224 0.4700 0.4982
C130_13 C 0.3927(3) 0.4576(3) 0.5358(3)
H84_13 H 0.3643 0.4545 0.5775
H85_13 H 0.5559 0.7991 0.6474
C131_13 C 0.5338(2) 0.8120(3) 0.6895(3)
H86_13 H 0.5001 0.8206 0.7294
H87_13 H 0.2995 0.7905 0.9868
C132_13 C 0.3202(3) 0.8057(3) 0.9414(3)
H88_13 H 0.3386 0.8078 0.8942
C133_13 C 0.1492(3) 0.3991(3) 0.7661(3)
C134_13 C 0.3766(3) 0.4315(3) 0.5171(3)
C135_13 C 0.5608(2) 0.8321(3) 0.7038(3)
C136_13 C 0.3331(3) 0.8351(3) 0.9544(3)
O43_13 O 0.58749(17) 0.83505(17) 0.68523(19)
O44_13 O 0.55561(19) 0.84546(19) 0.7312(2)
N21_13 N 0.66390(19) 0.8546(2) 0.6672(2)
C137_13 C 0.6595(3) 0.8602(3) 0.6346(3)
C138_13 C 0.6961(3) 0.8466(3) 0.6757(3)
N23_13 N 0.6278(2) 0.8646(4) 0.6212(3)
N24_13 N 0.6848(2) 0.8626(3) 0.6106(2)
N25_13 N 0.7026(3) 0.8383(4) 0.7069(3)
N26_13 N 0.7222(2) 0.8481(3) 0.6548(2)
H89_13 H 0.6104 0.8636 0.6344
H90_13 H 0.6253 0.8683 0.5996
C139_13 C 0.7137(2) 0.8576(3) 0.6222(3)
H91_13 H 0.7231 0.8342 0.7129
H92_13 H 0.6866 0.8369 0.7217
C140_13 C 0.7424(2) 0.8609(3) 0.5963(3)
C141_13 C 0.7368(2) 0.8732(3) 0.5662(3)
C142_13 C 0.7750(3) 0.8505(3) 0.6048(3)
H93_13 H 0.7153 0.8799 0.5603
C143_13 C 0.7636(3) 0.8764(3) 0.5428(3)
H94_13 H 0.7792 0.8402 0.6253
C144_13 C 0.8014(3) 0.8563(3) 0.5806(3)
H95_13 H 0.7593 0.8838 0.5208
H96_13 H 0.8235 0.8508 0.5859
O48_9 O 0.63823(19) 0.82569(19) 0.73920(19)
O49_6 O 0.60160(19) 0.89833(17) 0.68565(19)
O51_9 O 0.6035(2) 0.83209(19) 0.7830(2)
O52_6 O 0.5741(2) 0.90747(19) 0.7344(2)
N28_6 N 0.7947(2) 0.8690(2) 0.5515(2)
C142_14 C 0.0250(3) 0.3995(3) 0.8548(3)
C143_14 C 0.0136(3) 0.3736(3) 0.7928(3)
H94_14 H 0.0292 0.4098 0.8753
C144_14 C 0.0514(3) 0.3937(3) 0.8306(3)
H95_14 H 0.0093 0.3662 0.7708
H96_14 H 0.0735 0.3992 0.8359
O27_14 O 0.55349(18) 0.66020(18) 0.0006(2)
O30_14 O 0.55026(17) 0.59615(17) 0.01699(18)
C75_14 C 0.5700(2) 0.6764(3) 0.0217(3)
C78_14 C 0.5690(2) 0.5950(2) 0.0429(3)
C79_14 C 0.5511(2) 0.7053(3) 0.0354(3)
O31_14 O 0.59804(16) 0.67193(18) 0.0328(2)
C82_14 C 0.5581(3) 0.5757(2) 0.0728(3)
O34_14 O 0.59671(19) 0.6090(2) 0.04530(19)
C84_14 C 0.5196(3) 0.7123(3) 0.0216(4)
C85_14 C 0.5664(3) 0.7224(3) 0.0588(3)
C90_14 C 0.5293(3) 0.5606(3) 0.0745(3)
C91_14 C 0.5804(3) 0.5740(4) 0.1002(4)
H53_14 H 0.5094 0.7003 0.0047
C93_14 C 0.5040(3) 0.7394(4) 0.0355(4)
H54_14 H 0.5872 0.7166 0.0676
C94_14 C 0.5508(3) 0.7493(3) 0.0702(3)
H59_14 H 0.5143 0.5617 0.0561
C99_14 C 0.5210(3) 0.5434(3) 0.1029(4)
H60_14 H 0.6014 0.5834 0.0989
C100_14 C 0.5702(3) 0.5572(4) 0.1315(4)
H61_14 H 0.4825 0.7451 0.0282
C103_14 C 0.5194(3) 0.7557(4) 0.0577(3)
H62_14 H 0.5615 0.7623 0.0858
H67_14 H 0.5009 0.5324 0.1028
C106_14 C 0.5411(3) 0.5419(3) 0.1308(4)
H68_14 H 0.5838 0.5572 0.1510
O35_14 O 0.5061(3) 0.7826(2) 0.0736(3)
O38_14 O 0.5319(3) 0.5276(2) 0.1598(3)
C109_14 C 0.4788(3) 0.7982(3) 0.0574(4)
C112_14 C 0.5466(3) 0.5007(3) 0.1699(3)
C113_14 C 0.4798(4) 0.8071(4) 0.0243(4)
C114_14 C 0.4533(4) 0.8058(4) 0.0783(4)
C119_14 C 0.5429(3) 0.4921(3) 0.2030(3)
C120_14 C 0.5617(3) 0.4831(3) 0.1468(3)
H73_14 H 0.4974 0.8007 0.0101
C121_14 C 0.4551(3) 0.8254(3) 0.0115(3)
H74_14 H 0.4538 0.8001 0.1014
C122_14 C 0.4261(4) 0.8221(4) 0.0653(4)
H79_14 H 0.5328 0.5056 0.2185
C127_14 C 0.5533(3) 0.4651(3) 0.2140(3)
H80_14 H 0.5633 0.4890 0.1238
C128_14 C 0.5757(3) 0.4541(3) 0.1590(3)
C129_14 C 0.4276(3) 0.8328(3) 0.0308(3)
H82_14 H 0.4073 0.8260 0.0789
H87_14 H 0.5495 0.4595 0.2368
C132_14 C 0.5702(3) 0.4443(3) 0.1914(3)
H88_14 H 0.5886 0.4422 0.1442
C133_14 C 0.3992(3) 0.8509(3) 0.0161(3)
C136_14 C 0.5831(3) 0.4149(3) 0.2044(3)
O45_10 O 0.60160(19) 0.39833(17) 0.18565(19)
O46_10 O 0.5741(2) 0.40747(19) 0.2344(2)
N22_10 N 0.7947(2) 0.3690(2) 0.0515(2)
Zn13_14 Zn 0.56900(3) 0.62087(3) 0.97651(3)
N15_14 N 0.53206(19) 0.6141(2) 0.9392(2)
O28_14 O 0.6024(2) 0.6473(2) 0.9477(2)
O29_14 O 0.60236(18) 0.58580(19) 0.96574(19)
C73_14 C 0.4995(2) 0.6228(3) 0.9447(3)
C74_14 C 0.5391(3) 0.6037(4) 0.9073(3)
C76_14 C 0.6293(3) 0.6604(3) 0.9520(4)
C77_14 C 0.6323(3) 0.5831(3) 0.9744(3)
N16_14 N 0.49057(19) 0.6332(3) 0.9752(2)
N17_14 N 0.47516(19) 0.6207(2) 0.9207(2)
N18_14 N 0.5696(3) 0.5929(4) 0.8999(3)
N19_14 N 0.5165(2) 0.6020(3) 0.8829(2)
C80_14 C 0.6439(4) 0.6745(4) 0.9199(4)
O32_14 O 0.6472(2) 0.6600(2) 0.9787(2)
C81_14 C 0.6515(3) 0.5573(3) 0.9567(3)
O33_14 O 0.64822(18) 0.5984(2) 0.9952(2)
H49_14 H 0.4699 0.6382 0.9791
H50_14 H 0.5054 0.6349 0.9913
C83_14 C 0.4860(3) 0.6107(3) 0.8899(3)
H51_14 H 0.5736 0.5853 0.8798
H52_14 H 0.5854 0.5935 0.9152
C86_14 C 0.6286(5) 0.6740(5) 0.8892(4)
C87_14 C 0.6755(4) 0.6934(4) 0.9255(5)
C88_14 C 0.6851(3) 0.5517(3) 0.9666(4)
C89_14 C 0.6377(3) 0.5400(3) 0.9298(3)
C92_14 C 0.4603(3) 0.6098(3) 0.8610(3)
H55_14 H 0.6081 0.6637 0.8874
C95_14 C 0.6415(6) 0.6878(6) 0.8598(5)
H56_14 H 0.6861 0.6951 0.9468
C96_14 C 0.6875(5) 0.7082(5) 0.8957(6)
H57_14 H 0.6953 0.5635 0.9837
C97_14 C 0.7029(3) 0.5280(4) 0.9504(4)
H58_14 H 0.6156 0.5441 0.9232
C98_14 C 0.6550(3) 0.5173(3) 0.9126(3)
C101_14 C 0.4697(3) 0.6075(4) 0.8289(3)
C102_14 C 0.4258(2) 0.6129(3) 0.8681(3)
H63_14 H 0.6308 0.6860 0.8385
C104_14 C 0.6702(6) 0.7038(6) 0.8637(6)
H64_14 H 0.7065 0.7207 0.8968
H65_14 H 0.7246 0.5230 0.9575
C105_14 C 0.6871(3) 0.5116(3) 0.9226(3)
H66_14 H 0.6449 0.5063 0.8948
H69_14 H 0.4926 0.6061 0.8237
C107_14 C 0.4465(3) 0.6072(4) 0.8024(3)
H70_14 H 0.4181 0.6165 0.8904
C108_14 C 0.4042(3) 0.6106(3) 0.8415(3)
O36_14 O 0.6865(3) 0.7182(4) 0.8351(4)
O37_14 O 0.7048(3) 0.4906(3) 0.9029(2)
H71_14 H 0.4541 0.6052 0.7798
H72_14 H 0.3812 0.6096 0.8462
C110_14 C 0.6714(4) 0.7445(5) 0.8203(5)
C111_14 C 0.7317(3) 0.4746(3) 0.9172(3)
C115_14 C 0.6823(4) 0.7517(4) 0.7886(4)
C116_14 C 0.6451(5) 0.7591(5) 0.8339(4)
C117_14 C 0.7600(3) 0.4721(3) 0.8984(3)
C118_14 C 0.7287(3) 0.4590(3) 0.9467(3)
H75_14 H 0.7000 0.7410 0.7785
C123_14 C 0.6663(4) 0.7758(4) 0.7708(4)
H76_14 H 0.6359 0.7525 0.8547
C124_14 C 0.6314(4) 0.7842(4) 0.8171(4)
H77_14 H 0.7623 0.4828 0.8778
C125_14 C 0.7863(3) 0.4529(3) 0.9105(3)
H78_14 H 0.7089 0.4611 0.9594
C126_14 C 0.7531(3) 0.4403(3) 0.9590(3)
H81_14 H 0.4571 0.8331 0.9892
H83_14 H 0.6724 0.7800 0.7482
C130_14 C 0.6427(3) 0.7924(3) 0.7858(3)
H84_14 H 0.6143 0.7955 0.8275
H85_14 H 0.8059 0.4509 0.8974
C131_14 C 0.7838(2) 0.4380(3) 0.9395(3)
H86_14 H 0.7501 0.4294 0.9794
C134_14 C 0.6266(3) 0.8185(3) 0.7671(3)
C135_14 C 0.8108(2) 0.4179(3) 0.9538(3)
O43_14 O 0.83749(17) 0.41495(17) 0.93523(19)
O44_14 O 0.80561(19) 0.40454(19) 0.9812(2)
N21_14 N 0.91390(19) 0.3954(2) 0.9172(2)
C137_14 C 0.9095(3) 0.3898(3) 0.8846(3)
C138_14 C 0.9461(3) 0.4034(3) 0.9257(3)
N23_14 N 0.8778(2) 0.3854(4) 0.8712(3)
N24_14 N 0.9348(2) 0.3874(3) 0.8606(2)
N25_14 N 0.9526(3) 0.4117(4) 0.9569(3)
N26_14 N 0.9722(2) 0.4019(3) 0.9048(2)
H89_14 H 0.8604 0.3864 0.8844
H90_14 H 0.8753 0.3817 0.8496
C139_14 C 0.9637(2) 0.3924(3) 0.8722(3)
H91_14 H 0.9731 0.4158 0.9629
H92_14 H 0.9366 0.4131 0.9717
C140_14 C 0.9924(2) 0.3891(3) 0.8463(3)
C141_14 C 0.9868(2) 0.3768(3) 0.8162(3)
H93_14 H 0.9653 0.3701 0.8103
Zn13_15 Zn 0.31900(3) 0.12913(3) 0.22651(3)
N15_15 N 0.28206(19) 0.1359(2) 0.1892(2)
O27_15 O 0.30349(18) 0.08980(18) 0.2506(2)
O28_15 O 0.3524(2) 0.1027(2) 0.1977(2)
O29_15 O 0.35236(18) 0.16420(19) 0.21574(19)
O30_15 O 0.30026(17) 0.15385(17) 0.26699(18)
C73_15 C 0.2495(2) 0.1272(3) 0.1947(3)
C74_15 C 0.2891(3) 0.1463(4) 0.1573(3)
C75_15 C 0.3200(2) 0.0736(3) 0.2717(3)
C76_15 C 0.3793(3) 0.0896(3) 0.2020(4)
C77_15 C 0.3823(3) 0.1669(3) 0.2244(3)
C78_15 C 0.3190(2) 0.1550(2) 0.2929(3)
N16_15 N 0.24057(19) 0.1168(3) 0.2252(2)
N17_15 N 0.22516(19) 0.1293(2) 0.1707(2)
N18_15 N 0.3196(3) 0.1571(4) 0.1499(3)
N19_15 N 0.2665(2) 0.1480(3) 0.1329(2)
C79_15 C 0.3011(2) 0.0447(3) 0.2854(3)
O31_15 O 0.34804(16) 0.07807(18) 0.2828(2)
C80_15 C 0.3939(4) 0.0755(4) 0.1699(4)
O32_15 O 0.3972(2) 0.0900(2) 0.2287(2)
C81_15 C 0.4015(3) 0.1927(3) 0.2067(3)
O33_15 O 0.39822(18) 0.1516(2) 0.2452(2)
C82_15 C 0.3081(3) 0.1743(2) 0.3228(3)
O34_15 O 0.34671(19) 0.1410(2) 0.29530(19)
H49_15 H 0.2199 0.1118 0.2291
H50_15 H 0.2554 0.1151 0.2413
C83_15 C 0.2360(3) 0.1393(3) 0.1399(3)
H51_15 H 0.3236 0.1647 0.1298
H52_15 H 0.3354 0.1565 0.1652
C84_15 C 0.2696(3) 0.0377(3) 0.2716(4)
C85_15 C 0.3164(3) 0.0276(3) 0.3088(3)
Zn14_10 Zn 0.37917(3) 0.11341(3) 0.26939(3)
C86_15 C 0.3786(5) 0.0760(5) 0.1392(4)
C87_15 C 0.4255(4) 0.0566(4) 0.1755(5)
C88_15 C 0.4351(3) 0.1983(3) 0.2166(4)
C89_15 C 0.3877(3) 0.2100(3) 0.1798(3)
C90_15 C 0.2793(3) 0.1894(3) 0.3245(3)
C91_15 C 0.3304(3) 0.1760(4) 0.3502(4)
C92_15 C 0.2103(3) 0.1402(3) 0.1110(3)
H53_15 H 0.2594 0.0497 0.2547
C93_15 C 0.2540(3) 0.0106(4) 0.2855(4)
H54_15 H 0.3372 0.0334 0.3176
C94_15 C 0.3008(3) 0.0007(3) 0.3202(3)
N20_10 N 0.41413(19) 0.1095(2) 0.3083(2)
H55_15 H 0.3581 0.0863 0.1374
C95_15 C 0.3915(6) 0.0622(6) 0.1098(5)
H56_15 H 0.4361 0.0549 0.1968
C96_15 C 0.4375(5) 0.0418(5) 0.1457(6)
H57_15 H 0.4453 0.1865 0.2337
C97_15 C 0.4529(3) 0.2220(4) 0.2004(4)
H58_15 H 0.3656 0.2059 0.1732
C98_15 C 0.4050(3) 0.2327(3) 0.1626(3)
H59_15 H 0.2643 0.1883 0.3061
C99_15 C 0.2710(3) 0.2066(3) 0.3529(4)
H60_15 H 0.3514 0.1666 0.3489
C100_15 C 0.3202(3) 0.1928(4) 0.3815(4)
C101_15 C 0.2197(3) 0.1425(4) 0.0789(3)
C102_15 C 0.1758(2) 0.1371(3) 0.1181(3)
H61_15 H 0.2325 0.0049 0.2782
H63_15 H 0.3808 0.0640 0.0885
C104_15 C 0.4202(6) 0.0462(6) 0.1137(6)
H64_15 H 0.4565 0.0293 0.1468
H65_15 H 0.4746 0.2270 0.2075
C105_15 C 0.4371(3) 0.2384(3) 0.1726(3)
H66_15 H 0.3949 0.2437 0.1448
H67_15 H 0.2509 0.2176 0.3528
C106_15 C 0.2911(3) 0.2081(3) 0.3808(4)
H68_15 H 0.3338 0.1928 0.4010
H69_15 H 0.2426 0.1439 0.0737
C107_15 C 0.1965(3) 0.1428(4) 0.0524(3)
H70_15 H 0.1681 0.1335 0.1404
C108_15 C 0.1542(3) 0.1394(3) 0.0915(3)
O36_15 O 0.4365(3) 0.0318(4) 0.0851(4)
O37_15 O 0.4548(3) 0.2594(3) 0.1529(2)
O38_15 O 0.2819(3) 0.2224(2) 0.4098(3)
H71_15 H 0.2041 0.1448 0.0298
H72_15 H 0.1312 0.1404 0.0962
C110_15 C 0.4214(4) 0.0055(5) 0.0703(5)
C111_15 C 0.4817(3) 0.2754(3) 0.1672(3)
C112_15 C 0.2966(3) 0.2493(3) 0.4199(3)
C117_15 C 0.5100(3) 0.2779(3) 0.1484(3)
C118_15 C 0.4787(3) 0.2910(3) 0.1967(3)
C119_15 C 0.2929(3) 0.2579(3) 0.4530(3)
C120_15 C 0.3117(3) 0.2669(3) 0.3968(3)
H75_15 H 0.4500 0.0090 0.0285
H77_15 H 0.5123 0.2672 0.1278
C125_15 C 0.5363(3) 0.2971(3) 0.1605(3)
H78_15 H 0.4589 0.2889 0.2094
C126_15 C 0.5031(3) 0.3097(3) 0.2090(3)
H79_15 H 0.2828 0.2444 0.4685
C127_15 C 0.3033(3) 0.2849(3) 0.4640(3)
H80_15 H 0.3133 0.2610 0.3738
C128_15 C 0.3257(3) 0.2959(3) 0.4090(3)
H85_15 H 0.5559 0.2991 0.1474
C131_15 C 0.5338(2) 0.3120(3) 0.1895(3)
H86_15 H 0.5001 0.3206 0.2294
H87_15 H 0.2995 0.2905 0.4868
C132_15 C 0.3202(3) 0.3057(3) 0.4414(3)
H88_15 H 0.3386 0.3078 0.3942
C135_15 C 0.5608(2) 0.3321(3) 0.2038(3)
C136_15 C 0.3331(3) 0.3351(3) 0.4544(3)
O43_15 O 0.58749(17) 0.33505(17) 0.18523(19)
O44_15 O 0.55561(19) 0.34546(19) 0.2312(2)
N21_15 N 0.66390(19) 0.3546(2) 0.1672(2)
C137_15 C 0.6595(3) 0.3602(3) 0.1346(3)
C138_15 C 0.6961(3) 0.3466(3) 0.1757(3)
N23_15 N 0.6278(2) 0.3646(4) 0.1212(3)
N24_15 N 0.6848(2) 0.3626(3) 0.1106(2)
N25_15 N 0.7026(3) 0.3383(4) 0.2069(3)
N26_15 N 0.7222(2) 0.3481(3) 0.1548(2)
H89_15 H 0.6104 0.3636 0.1344
H90_15 H 0.6253 0.3683 0.0996
C139_15 C 0.7137(2) 0.3576(3) 0.1222(3)
H91_15 H 0.7231 0.3342 0.2129
H92_15 H 0.6866 0.3369 0.2217
C140_15 C 0.7424(2) 0.3609(3) 0.0963(3)
C141_15 C 0.7368(2) 0.3732(3) 0.0662(3)
C142_15 C 0.7750(3) 0.3505(3) 0.1048(3)
H93_15 H 0.7153 0.3799 0.0603
C143_15 C 0.7636(3) 0.3764(3) 0.0428(3)
H94_15 H 0.7792 0.3402 0.1253
C144_15 C 0.8014(3) 0.3563(3) 0.0806(3)
H95_15 H 0.7593 0.3838 0.0208
H96_15 H 0.8235 0.3508 0.0859
O48_10 O 0.63823(19) 0.32569(19) 0.23920(19)
O51_10 O 0.6035(2) 0.33209(19) 0.2830(2)
C103_15 C 0.2694(3) 0.9943(4) 0.3077(3)
H62_15 H 0.3115 0.9877 0.3358
O35_15 O 0.2561(3) 0.9674(2) 0.3236(3)
C109_15 C 0.2288(3) 0.9518(3) 0.3074(4)
C113_15 C 0.2298(4) 0.9429(4) 0.2743(4)
C114_15 C 0.2033(4) 0.9442(4) 0.3283(4)
C115_15 C 0.4323(4) 0.9983(4) 0.0386(4)
C116_15 C 0.3951(5) 0.9909(5) 0.0839(4)
H73_15 H 0.2474 0.9493 0.2601
C121_15 C 0.2051(3) 0.9246(3) 0.2615(3)
H74_15 H 0.2038 0.9499 0.3514
C122_15 C 0.1761(4) 0.9279(4) 0.3153(4)
C123_15 C 0.4163(4) 0.9742(4) 0.0208(4)
H76_15 H 0.3859 0.9975 0.1047
C124_15 C 0.3814(4) 0.9658(4) 0.0671(4)
H81_15 H 0.2071 0.9169 0.2392
C129_15 C 0.1776(3) 0.9172(3) 0.2808(3)
H82_15 H 0.1573 0.9240 0.3289
C130_15 C 0.3927(3) 0.9576(3) 0.0358(3)
H84_15 H 0.3643 0.9545 0.0775
C133_15 C 0.1492(3) 0.8991(3) 0.2661(3)
C134_15 C 0.3766(3) 0.9315(3) 0.0171(3)
H83_15 H 0.4224 0.9700 0.9982
C142_16 C 0.0250(3) 0.8995(3) 0.3548(3)
C143_16 C 0.0136(3) 0.8736(3) 0.2928(3)
H94_16 H 0.0292 0.9098 0.3753
C144_16 C 0.0514(3) 0.8937(3) 0.3306(3)
H95_16 H 0.0093 0.8662 0.2708
H96_16 H 0.0735 0.8992 0.3359
Zn13_16 Zn 0.56900(3) 0.12087(3) 0.47651(3)
N15_16 N 0.53206(19) 0.1141(2) 0.4392(2)
O27_16 O 0.55349(18) 0.16020(18) 0.5006(2)
O28_16 O 0.6024(2) 0.1473(2) 0.4477(2)
O29_16 O 0.60236(18) 0.08580(19) 0.46574(19)
O30_16 O 0.55026(17) 0.09615(17) 0.51699(18)
C73_16 C 0.4995(2) 0.1228(3) 0.4447(3)
C74_16 C 0.5391(3) 0.1037(4) 0.4073(3)
C75_16 C 0.5700(2) 0.1764(3) 0.5217(3)
C76_16 C 0.6293(3) 0.1604(3) 0.4520(4)
C77_16 C 0.6323(3) 0.0831(3) 0.4744(3)
C78_16 C 0.5690(2) 0.0950(2) 0.5429(3)
N16_16 N 0.49057(19) 0.1332(3) 0.4752(2)
N17_16 N 0.47516(19) 0.1207(2) 0.4207(2)
N18_16 N 0.5696(3) 0.0929(4) 0.3999(3)
N19_16 N 0.5165(2) 0.1020(3) 0.3829(2)
C79_16 C 0.5511(2) 0.2053(3) 0.5354(3)
O31_16 O 0.59804(16) 0.17193(18) 0.5328(2)
C80_16 C 0.6439(4) 0.1745(4) 0.4199(4)
O32_16 O 0.6472(2) 0.1600(2) 0.4787(2)
C81_16 C 0.6515(3) 0.0573(3) 0.4567(3)
O33_16 O 0.64822(18) 0.0984(2) 0.4952(2)
C82_16 C 0.5581(3) 0.0757(2) 0.5728(3)
O34_16 O 0.59671(19) 0.1090(2) 0.54530(19)
H49_16 H 0.4699 0.1382 0.4791
H50_16 H 0.5054 0.1349 0.4913
C83_16 C 0.4860(3) 0.1107(3) 0.3899(3)
H51_16 H 0.5736 0.0853 0.3798
H52_16 H 0.5854 0.0935 0.4152
C84_16 C 0.5196(3) 0.2123(3) 0.5216(4)
C85_16 C 0.5664(3) 0.2224(3) 0.5588(3)
C86_16 C 0.6286(5) 0.1740(5) 0.3892(4)
C87_16 C 0.6755(4) 0.1934(4) 0.4255(5)
C88_16 C 0.6851(3) 0.0517(3) 0.4666(4)
C89_16 C 0.6377(3) 0.0400(3) 0.4298(3)
C90_16 C 0.5293(3) 0.0606(3) 0.5745(3)
C91_16 C 0.5804(3) 0.0740(4) 0.6002(4)
C92_16 C 0.4603(3) 0.1098(3) 0.3610(3)
H53_16 H 0.5094 0.2003 0.5047
C93_16 C 0.5040(3) 0.2394(4) 0.5355(4)
H54_16 H 0.5872 0.2166 0.5676
C94_16 C 0.5508(3) 0.2493(3) 0.5702(3)
H55_16 H 0.6081 0.1637 0.3874
C95_16 C 0.6415(6) 0.1878(6) 0.3598(5)
H56_16 H 0.6861 0.1951 0.4468
C96_16 C 0.6875(5) 0.2082(5) 0.3957(6)
H57_16 H 0.6953 0.0635 0.4837
C97_16 C 0.7029(3) 0.0280(4) 0.4504(4)
H58_16 H 0.6156 0.0441 0.4232
C98_16 C 0.6550(3) 0.0173(3) 0.4126(3)
H59_16 H 0.5143 0.0617 0.5561
C99_16 C 0.5210(3) 0.0434(3) 0.6029(4)
H60_16 H 0.6014 0.0834 0.5989
C100_16 C 0.5702(3) 0.0572(4) 0.6315(4)
C101_16 C 0.4697(3) 0.1075(4) 0.3289(3)
C102_16 C 0.4258(2) 0.1129(3) 0.3681(3)
H61_16 H 0.4825 0.2451 0.5282
C103_16 C 0.5194(3) 0.2557(4) 0.5577(3)
H62_16 H 0.5615 0.2623 0.5858
H63_16 H 0.6308 0.1860 0.3385
C104_16 C 0.6702(6) 0.2038(6) 0.3637(6)
H64_16 H 0.7065 0.2207 0.3968
H65_16 H 0.7246 0.0230 0.4575
C105_16 C 0.6871(3) 0.0116(3) 0.4226(3)
H66_16 H 0.6449 0.0063 0.3948
H67_16 H 0.5009 0.0324 0.6028
C106_16 C 0.5411(3) 0.0419(3) 0.6308(4)
H68_16 H 0.5838 0.0572 0.6510
H69_16 H 0.4926 0.1061 0.3237
C107_16 C 0.4465(3) 0.1072(4) 0.3024(3)
H70_16 H 0.4181 0.1165 0.3904
C108_16 C 0.4042(3) 0.1106(3) 0.3415(3)
O35_16 O 0.5061(3) 0.2826(2) 0.5736(3)
O36_16 O 0.6865(3) 0.2182(4) 0.3351(4)
O38_16 O 0.5319(3) 0.0276(2) 0.6598(3)
H71_16 H 0.4541 0.1052 0.2798
H72_16 H 0.3812 0.1096 0.3462
C109_16 C 0.4788(3) 0.2982(3) 0.5574(4)
C110_16 C 0.6714(4) 0.2445(5) 0.3203(5)
C112_16 C 0.5466(3) 0.0007(3) 0.6699(3)
C113_16 C 0.4798(4) 0.3071(4) 0.5243(4)
C114_16 C 0.4533(4) 0.3058(4) 0.5783(4)
C115_16 C 0.6823(4) 0.2517(4) 0.2886(4)
C116_16 C 0.6451(5) 0.2591(5) 0.3339(4)
H73_16 H 0.4974 0.3007 0.5101
C121_16 C 0.4551(3) 0.3254(3) 0.5115(3)
H74_16 H 0.4538 0.3001 0.6014
C122_16 C 0.4261(4) 0.3221(4) 0.5653(4)
H75_16 H 0.7000 0.2410 0.2785
C123_16 C 0.6663(4) 0.2758(4) 0.2708(4)
H76_16 H 0.6359 0.2525 0.3547
C124_16 C 0.6314(4) 0.2842(4) 0.3171(4)
H79_16 H 0.5328 0.0056 0.7185
H81_16 H 0.4571 0.3331 0.4892
C129_16 C 0.4276(3) 0.3328(3) 0.5308(3)
H82_16 H 0.4073 0.3260 0.5789
H83_16 H 0.6724 0.2800 0.2482
C130_16 C 0.6427(3) 0.2924(3) 0.2858(3)
H84_16 H 0.6143 0.2955 0.3275
C133_16 C 0.3992(3) 0.3509(3) 0.5161(3)
C134_16 C 0.6266(3) 0.3185(3) 0.2671(3)
O37_16 O 0.7048(3) 0.9906(3) 0.4029(2)
C111_16 C 0.7317(3) 0.9746(3) 0.4172(3)
C117_16 C 0.7600(3) 0.9721(3) 0.3984(3)
C118_16 C 0.7287(3) 0.9590(3) 0.4467(3)
C119_16 C 0.5429(3) 0.9921(3) 0.7030(3)
C120_16 C 0.5617(3) 0.9831(3) 0.6468(3)
H77_16 H 0.7623 0.9828 0.3778
C125_16 C 0.7863(3) 0.9529(3) 0.4105(3)
H78_16 H 0.7089 0.9611 0.4594
C126_16 C 0.7531(3) 0.9403(3) 0.4590(3)
C127_16 C 0.5533(3) 0.9651(3) 0.7140(3)
H80_16 H 0.5633 0.9890 0.6238
C128_16 C 0.5757(3) 0.9541(3) 0.6590(3)
H85_16 H 0.8059 0.9509 0.3974
C131_16 C 0.7838(2) 0.9380(3) 0.4395(3)
H86_16 H 0.7501 0.9294 0.4794
H87_16 H 0.5495 0.9595 0.7368
C132_16 C 0.5702(3) 0.9443(3) 0.6914(3)
H88_16 H 0.5886 0.9422 0.6442
C135_16 C 0.8108(2) 0.9179(3) 0.4538(3)
C136_16 C 0.5831(3) 0.9149(3) 0.7044(3)
O43_16 O 0.83749(17) 0.91495(17) 0.43523(19)
O44_16 O 0.80561(19) 0.90454(19) 0.4812(2)
N21_16 N 0.91390(19) 0.8954(2) 0.4172(2)
C137_16 C 0.9095(3) 0.8898(3) 0.3846(3)
C138_16 C 0.9461(3) 0.9034(3) 0.4257(3)
N23_16 N 0.8778(2) 0.8854(4) 0.3712(3)
N24_16 N 0.9348(2) 0.8874(3) 0.3606(2)
N25_16 N 0.9526(3) 0.9117(4) 0.4569(3)
N26_16 N 0.9722(2) 0.9019(3) 0.4048(2)
H89_16 H 0.8604 0.8864 0.3844
H90_16 H 0.8753 0.8817 0.3496
C139_16 C 0.9637(2) 0.8924(3) 0.3722(3)
H91_16 H 0.9731 0.9158 0.4629
H92_16 H 0.9366 0.9131 0.4717
C140_16 C 0.9924(2) 0.8891(3) 0.3463(3)
C141_16 C 0.9868(2) 0.8768(3) 0.3162(3)
H93_16 H 0.9653 0.8701 0.3103
loop_
_geom_bond_atom_site_label_1
_geom_bond_atom_site_label_2
_geom_bond_site_symmetry_1
_geom_bond_site_symmetry_2
Zn1 O1 1_555 1_555
Zn2 O2 1_555 1_555
C1 C2 1_555 1_555
C2 C3 1_555 1_555
C3 H1 1_555 1_555
C4 C2 1_555 1_555
H2 C4 1_555 1_555
C5 C3 1_555 1_555
H3 C5 1_555 1_555
C6 C4 1_555 1_555
H4 C6 1_555 1_555
C7 C5 1_555 1_555
C8 C9 1_555 1_555
C9 H5 1_555 1_555
C10 C8 1_555 1_555
H6 C10 1_555 1_555
C11 C9 1_555 1_555
H7 C11 1_555 1_555
C12 C11 1_555 1_555
C13 C10 1_555 1_555
H8 C13 1_555 1_555
C14 C12 1_555 1_555
N1 Zn5 1_555 1_555
O1 C1 1_555 1_555
O2 C1 1_555 1_555
O3 C7 1_555 1_555
O4 C14 1_555 1_555
O5 C14 1_555 1_555
O6 C29 1_555 1_555
O7 C29 1_555 1_555
N2 C27 1_555 1_555
O8 C21 1_555 1_555
O9 C21 1_555 1_555
C15 C16 1_555 1_555
C16 C20 1_555 1_555
C17 H9 1_555 1_555
C18 C15 1_555 1_555
C19 C17 1_555 1_555
C20 C19 1_555 1_555
C21 C28 1_555 1_555
C22 C23 1_555 1_555
C23 C24 1_555 1_555
C24 C26 1_555 1_555
C25 C26 1_555 1_555
H10 C19 1_555 1_555
H12 C25 1_555 1_555
C27 N3 1_555 1_555
O10 C20 1_555 1_555
C28 C22 1_555 1_555
H13 C22 1_555 1_555
C29 C18 1_555 1_555
H14 C16 1_555 1_555
H15 C23 1_555 1_555
O11 C24 1_555 1_555
N3 H17 1_555 1_555
H16 C15 1_555 1_555
N4 C27 1_555 1_555
C34 N2 1_555 1_555
N5 C34 1_555 1_555
N6 C34 1_555 1_555
H19 N6 1_555 1_555
C35 N4 1_555 1_555
H21 N3 1_555 1_555
H24 N6 1_555 1_555
Zn3 O4 1_555 1_555
Zn4 O5 1_555 1_555
Zn5 O18 1_555 1_555
C38 C39 1_555 1_555
C39 C37 1_555 1_555
C41 C38 1_555 1_555
C42 C41 1_555 1_555
C43 C41 1_555 1_555
C45 C37 1_555 1_555
H26 C45 1_555 1_555
O13 Zn3 1_555 1_555
H27 C38 1_555 1_555
H28 C39 1_555 1_555
O14 Zn4 1_555 1_555
H31 C43 1_555 1_555
N7 Zn4 1_555 1_555
C51 O10 1_555 1_555
C53 C54 1_555 1_555
C54 H33 1_555 1_555
C55 C51 1_555 1_555
C56 C53 1_555 1_555
O17 C56 1_555 1_555
O18 C56 1_555 1_555
C57 C53 1_555 1_555
Zn10 O17 1_555 1_555
O21 Zn10 1_555 1_555
H34 C55 1_555 1_555
C60 C51 1_555 1_555
H36 C60 1_555 1_555
O22 Zn10 1_555 1_555
O23 Zn10 1_555 1_555
O24 Zn5 1_555 1_555
N9 Zn10 1_555 1_555
O25 Zn5 1_555 1_555
O26 Zn5 1_555 1_555
H39 C57 1_555 1_555
C65 N9 1_555 1_555
N10 C65 1_555 1_555
N11 C65 1_555 1_555
C66 N9 1_555 1_555
N12 C66 1_555 1_555
C67 N11 1_555 1_555
N13 C66 1_555 1_555
C68 H41 1_555 1_555
C69 C67 1_555 1_555
H42 N10 1_555 1_555
C70 C69 1_555 1_555
C71 C70 1_555 1_555
C72 C68 1_555 1_555
H43 N10 1_555 1_555
N14 C68 1_555 1_555
Zn12 N14 1_555 1_555
H44 C70 1_555 1_555
H45 C72 1_555 1_555
H46 C71 1_555 1_555
H47 N12 1_555 1_555
H48 N12 1_555 1_555
C6 C7 1_555 1_555
C8 O3 1_555 1_555
C12 C13 1_555 1_555
O6 Zn3 1_555 1_555
O7 Zn4 1_555 1_555
N2 Zn3 1_555 1_555
O8 Zn3 1_555 1_555
O9 Zn4 1_555 1_555
C17 C18 1_555 1_555
C25 C28 1_555 1_555
N5 C35 1_555 1_555
C42 O13 1_555 1_555
C42 O14 1_555 1_555
C43 C45 1_555 1_555
C54 C55 1_555 1_555
C57 C60 1_555 1_555
C67 N13 1_555 1_555
C69 C72 1_555 1_555
C71 N14 1_555 1_555
O12 C40 1_555 1_555
C40 C44 1_555 1_555
C44 H25 1_555 1_555
C46 C40 1_555 1_555
C47 C44 1_555 1_555
H29 C46 1_555 1_555
C48 C46 1_555 1_555
H30 C47 1_555 1_555
C49 C47 1_555 1_555
C50 C49 1_555 1_555
H32 C48 1_555 1_555
O15 C50 1_555 1_555
O16 C50 1_555 1_555
Zn7 O16 1_555 1_555
C48 C49 1_555 1_555
C30 C31 1_555 1_555
C31 C33 1_555 1_555
C32 H18 1_555 1_555
C33 H22 1_555 1_555
H20 C31 1_555 1_555
C36 C30 1_555 1_555
H23 C36 1_555 1_555
N8 C32 1_555 1_555
Zn8 N8 1_555 1_555
C32 C36 1_555 1_555
C33 N8 1_555 1_555
C52 O11_4 1_555 1_555
C58 C52 1_555 1_555
C59 O19 1_555 1_555
O19 Zn11 1_555 1_555
O20 C59 1_555 1_555
Zn9 O20 1_555 1_555
H35 C58 1_555 1_555
C61 C52 1_555 1_555
C62 C58 1_555 1_555
H37 C62 1_555 1_555
C63 C61 1_555 1_555
C64 C59 1_555 1_555
H40 C63 1_555 1_555
C62 C64 1_555 1_555
C63 C64 1_555 1_555
C30_2 C31_2 1_555 1_555
C31_2 C33_2 1_555 1_555
C32_2 H18_2 1_555 1_555
C33_2 H22_2 1_555 1_555
H20_2 C31_2 1_555 1_555
C36_2 C30_2 1_555 1_555
H23_2 C36_2 1_555 1_555
N8_2 C32_2 1_555 1_555
Zn7 N8_2 1_555 1_555
C32_2 C36_2 1_555 1_555
C33_2 N8_2 1_555 1_555
O12_2 C40_2 1_555 1_555
C40_2 C44_2 1_555 1_555
C44_2 H25_2 1_555 1_555
C46_2 C40_2 1_555 1_555
C47_2 C44_2 1_555 1_555
H29_2 C46_2 1_555 1_555
C48_2 C46_2 1_555 1_555
H30_2 C47_2 1_555 1_555
C49_2 C47_2 1_555 1_555
C50_2 C49_2 1_555 1_555
H32_2 C48_2 1_555 1_555
O15_2 C50_2 1_555 1_555
O16_2 C50_2 1_555 1_555
Zn8 O16_2 1_555 1_555
C48_2 C49_2 1_555 1_555
Zn1_2 O1_2 1_555 1_555
Zn2_2 O2_2 1_555 1_555
C1_2 C2_2 1_555 1_555
C2_2 C3_2 1_555 1_555
C3_2 H1_2 1_555 1_555
C4_2 C2_2 1_555 1_555
H2_2 C4_2 1_555 1_555
C5_2 C3_2 1_555 1_555
H3_2 C5_2 1_555 1_555
C6_2 C4_2 1_555 1_555
H4_2 C6_2 1_555 1_555
C7_2 C5_2 1_555 1_555
C8_2 C9_2 1_555 1_555
C9_2 H5_2 1_555 1_555
C10_2 C8_2 1_555 1_555
H6_2 C10_2 1_555 1_555
C11_2 C9_2 1_555 1_555
H7_2 C11_2 1_555 1_555
C12_2 C11_2 1_555 1_555
C13_2 C10_2 1_555 1_555
H8_2 C13_2 1_555 1_555
C14_2 C12_2 1_555 1_555
N1_2 Zn5_2 1_555 1_555
O1_2 C1_2 1_555 1_555
O2_2 C1_2 1_555 1_555
O3_2 C7_2 1_555 1_555
O4_2 C14_2 1_555 1_555
O5_2 C14_2 1_555 1_555
O6_2 C29_2 1_555 1_555
O7_2 C29_2 1_555 1_555
N2_2 C27_2 1_555 1_555
C15_2 C16_2 1_555 1_555
C16_2 C20_2 1_555 1_555
C17_2 H9_2 1_555 1_555
C18_2 C15_2 1_555 1_555
C19_2 C17_2 1_555 1_555
C20_2 C19_2 1_555 1_555
H10_2 C19_2 1_555 1_555
C27_2 N3_2 1_555 1_555
O10_2 C20_2 1_555 1_555
C29_2 C18_2 1_555 1_555
H14_2 C16_2 1_555 1_555
N3_2 H17_2 1_555 1_555
H16_2 C15_2 1_555 1_555
N4_2 C27_2 1_555 1_555
C34_2 N2_2 1_555 1_555
N5_2 C34_2 1_555 1_555
N6_2 C34_2 1_555 1_555
H19_2 N6_2 1_555 1_555
C35_2 N4_2 1_555 1_555
H21_2 N3_2 1_555 1_555
H24_2 N6_2 1_555 1_555
Zn11 O4_2 1_555 1_555
Zn9 O5_2 1_555 1_555
Zn5_2 O18_2 1_555 1_555
C38_2 C39_2 1_555 1_555
C39_2 C37_2 1_555 1_555
C41_2 C38_2 1_555 1_555
C42_2 C41_2 1_555 1_555
C43_2 C41_2 1_555 1_555
C45_2 C37_2 1_555 1_555
H26_2 C45_2 1_555 1_555
O13_2 Zn11 1_555 1_555
H27_2 C38_2 1_555 1_555
H28_2 C39_2 1_555 1_555
O14_2 Zn9 1_555 1_555
H31_2 C43_2 1_555 1_555
N7_2 Zn9 1_555 1_555
C51_2 O10_2 1_555 1_555
C53_2 C54_2 1_555 1_555
C54_2 H33_2 1_555 1_555
C55_2 C51_2 1_555 1_555
C56_2 C53_2 1_555 1_555
O17_2 C56_2 1_555 1_555
O18_2 C56_2 1_555 1_555
C57_2 C53_2 1_555 1_555
Zn10_2 O17_2 1_555 1_555
O21_2 Zn10_2 1_555 1_555
H34_2 C55_2 1_555 1_555
C60_2 C51_2 1_555 1_555
H36_2 C60_2 1_555 1_555
O22_2 Zn10_2 1_555 1_555
O23_2 Zn10_2 1_555 1_555
O24_2 Zn5_2 1_555 1_555
N9_2 Zn10_2 1_555 1_555
O25_2 Zn5_2 1_555 1_555
O26_2 Zn5_2 1_555 1_555
H39_2 C57_2 1_555 1_555
C65_2 N9_2 1_555 1_555
N10_2 C65_2 1_555 1_555
N11_2 C65_2 1_555 1_555
C66_2 N9_2 1_555 1_555
N12_2 C66_2 1_555 1_555
C67_2 N11_2 1_555 1_555
N13_2 C66_2 1_555 1_555
C68_2 H41_2 1_555 1_555
C69_2 C67_2 1_555 1_555
H42_2 N10_2 1_555 1_555
C70_2 C69_2 1_555 1_555
C71_2 C70_2 1_555 1_555
C72_2 C68_2 1_555 1_555
H43_2 N10_2 1_555 1_555
N14_2 C68_2 1_555 1_555
Zn12_2 N14_2 1_555 1_555
H44_2 C70_2 1_555 1_555
H45_2 C72_2 1_555 1_555
H46_2 C71_2 1_555 1_555
H47_2 N12_2 1_555 1_555
H48_2 N12_2 1_555 1_555
C6_2 C7_2 1_555 1_555
C8_2 O3_2 1_555 1_555
C12_2 C13_2 1_555 1_555
O6_2 Zn11 1_555 1_555
O7_2 Zn9 1_555 1_555
N2_2 Zn11 1_555 1_555
C17_2 C18_2 1_555 1_555
N5_2 C35_2 1_555 1_555
C42_2 O13_2 1_555 1_555
C42_2 O14_2 1_555 1_555
C43_2 C45_2 1_555 1_555
C54_2 C55_2 1_555 1_555
C57_2 C60_2 1_555 1_555
C67_2 N13_2 1_555 1_555
C69_2 C72_2 1_555 1_555
C71_2 N14_2 1_555 1_555
Zn1_3 O1_3 1_555 1_555
Zn2_3 O2_3 1_555 1_555
C1_3 C2_3 1_555 1_555
C2_3 C3_3 1_555 1_555
C3_3 H1_3 1_555 1_555
C4_3 C2_3 1_555 1_555
H2_3 C4_3 1_555 1_555
C5_3 C3_3 1_555 1_555
H3_3 C5_3 1_555 1_555
C6_3 C4_3 1_555 1_555
H4_3 C6_3 1_555 1_555
C7_3 C5_3 1_555 1_555
C8_3 C9_3 1_555 1_555
C9_3 H5_3 1_555 1_555
C10_3 C8_3 1_555 1_555
H6_3 C10_3 1_555 1_555
C11_3 C9_3 1_555 1_555
H7_3 C11_3 1_555 1_555
C12_3 C11_3 1_555 1_555
C13_3 C10_3 1_555 1_555
H8_3 C13_3 1_555 1_555
C14_3 C12_3 1_555 1_555
O1_3 C1_3 1_555 1_555
O2_3 C1_3 1_555 1_555
O3_3 C7_3 1_555 1_555
O4_3 C14_3 1_555 1_555
O5_3 C14_3 1_555 1_555
O6_3 C29_3 1_555 1_555
O7_3 C29_3 1_555 1_555
N2_3 C27_3 1_555 1_555
O8_2 C21_2 1_555 1_555
O9_2 C21_2 1_555 1_555
C15_3 C16_3 1_555 1_555
C16_3 C20_3 1_555 1_555
C17_3 H9_3 1_555 1_555
C18_3 C15_3 1_555 1_555
C19_3 C17_3 1_555 1_555
C20_3 C19_3 1_555 1_555
C21_2 C28_2 1_555 1_555
C22_2 C23_2 1_555 1_555
C23_2 C24_2 1_555 1_555
C24_2 C26_2 1_555 1_555
C25_2 C26_2 1_555 1_555
C26_2 H11_2 1_555 1_555
H12_2 C25_2 1_555 1_555
C27_3 N3_3 1_555 1_555
O10_3 C20_3 1_555 1_555
C28_2 C22_2 1_555 1_555
H13_2 C22_2 1_555 1_555
C29_3 C18_3 1_555 1_555
H14_3 C16_3 1_555 1_555
H15_2 C23_2 1_555 1_555
O11_5 C24_2 1_555 1_555
N3_3 H17_3 1_555 1_555
H16_3 C15_3 1_555 1_555
N4_3 C27_3 1_555 1_555
C30_3 C31_3 1_555 1_555
C31_3 C33_3 1_555 1_555
C32_3 H18_3 1_555 1_555
C33_3 H22_3 1_555 1_555
C34_3 N2_3 1_555 1_555
N5_3 C34_3 1_555 1_555
N6_3 C34_3 1_555 1_555
H19_3 N6_3 1_555 1_555
C35_3 N4_3 1_555 1_555
H20_3 C31_3 1_555 1_555
H21_3 N3_3 1_555 1_555
C36_3 C30_3 1_555 1_555
H23_3 C36_3 1_555 1_555
H24_3 N6_3 1_555 1_555
Zn1 O4_3 1_555 1_555
Zn2 O5_3 1_555 1_555
N7_3 Zn2 1_555 1_555
N1 C32_3 1_555 1_555
C52_2 O11_5 1_555 1_555
C58_2 C52_2 1_555 1_555
C59_2 O19_2 1_555 1_555
O19_2 Zn11_2 1_555 1_555
O20_2 C59_2 1_555 1_555
Zn9_2 O20_2 1_555 1_555
H35_2 C58_2 1_555 1_555
C61_2 C52_2 1_555 1_555
C62_2 C58_2 1_555 1_555
H37_2 C62_2 1_555 1_555
C63_2 C61_2 1_555 1_555
C64_2 C59_2 1_555 1_555
H38_2 C61_2 1_555 1_555
H40_2 C63_2 1_555 1_555
C6_3 C7_3 1_555 1_555
C8_3 O3_3 1_555 1_555
C12_3 C13_3 1_555 1_555
O6_3 Zn1 1_555 1_555
O7_3 Zn2 1_555 1_555
N2_3 Zn1 1_555 1_555
O8_2 Zn1 1_555 1_555
O9_2 Zn2 1_555 1_555
C17_3 C18_3 1_555 1_555
C25_2 C28_2 1_555 1_555
C30_3 C35_3 1_555 1_555
C32_3 C36_3 1_555 1_555
C33_3 N1 1_555 1_555
N5_3 C35_3 1_555 1_555
C62_2 C64_2 1_555 1_555
C63_2 C64_2 1_555 1_555
N1_3 Zn2_2 1_555 1_555
Zn2_2 O18_3 1_555 1_555
C51_3 O10_4 1_555 1_555
C53_3 C54_3 1_555 1_555
C54_3 H33_3 1_555 1_555
C55_3 C51_3 1_555 1_555
C56_3 C53_3 1_555 1_555
O17_3 C56_3 1_555 1_555
O18_3 C56_3 1_555 1_555
C57_3 C53_3 1_555 1_555
Zn1_2 O17_3 1_555 1_555
O21_3 Zn1_2 1_555 1_555
C60_3 C51_3 1_555 1_555
H36_3 C60_3 1_555 1_555
O22_3 Zn1_2 1_555 1_555
N9_3 Zn1_2 1_555 1_555
O25_3 Zn2_2 1_555 1_555
O26_3 Zn2_2 1_555 1_555
H39_3 C57_3 1_555 1_555
C65_3 N9_3 1_555 1_555
N10_3 C65_3 1_555 1_555
N11_3 C65_3 1_555 1_555
C66_3 N9_3 1_555 1_555
N12_3 C66_3 1_555 1_555
C67_3 N11_3 1_555 1_555
N13_3 C66_3 1_555 1_555
C68_3 H41_3 1_555 1_555
C69_3 C67_3 1_555 1_555
H42_3 N10_3 1_555 1_555
C70_3 C69_3 1_555 1_555
C71_3 C70_3 1_555 1_555
C72_3 C68_3 1_555 1_555
H43_3 N10_3 1_555 1_555
N1_2 C68_3 1_555 1_555
H44_3 C70_3 1_555 1_555
H45_3 C72_3 1_555 1_555
H46_3 C71_3 1_555 1_555
H47_3 N12_3 1_555 1_555
H48_3 N12_3 1_555 1_555
C54_3 C55_3 1_555 1_555
C57_3 C60_3 1_555 1_555
C67_3 N13_3 1_555 1_555
C69_3 C72_3 1_555 1_555
C71_3 N1_2 1_555 1_555
C8_4 C9_4 1_555 1_555
C9_4 H5_4 1_555 1_555
C10_4 C8_4 1_555 1_555
H6_4 C10_4 1_555 1_555
C11_4 C9_4 1_555 1_555
H7_4 C11_4 1_555 1_555
C12_4 C11_4 1_555 1_555
C13_4 C10_4 1_555 1_555
H8_4 C13_4 1_555 1_555
C14_4 C12_4 1_555 1_555
O4_4 C14_4 1_555 1_555
O5_4 C14_4 1_555 1_555
O6_4 C29_4 1_555 1_555
O7_4 C29_4 1_555 1_555
N2_4 C27_4 1_555 1_555
C15_4 C16_4 1_555 1_555
C16_4 C20_4 1_555 1_555
C17_4 H9_4 1_555 1_555
C18_4 C15_4 1_555 1_555
C19_4 C17_4 1_555 1_555
C20_4 C19_4 1_555 1_555
H10_4 C19_4 1_555 1_555
C27_4 N3_4 1_555 1_555
O10_5 C20_4 1_555 1_555
C29_4 C18_4 1_555 1_555
H14_4 C16_4 1_555 1_555
N3_4 H17_4 1_555 1_555
H16_4 C15_4 1_555 1_555
N4_4 C27_4 1_555 1_555
C30_4 C31_4 1_555 1_555
C31_4 C33_4 1_555 1_555
C32_4 H18_4 1_555 1_555
C33_4 H22_4 1_555 1_555
C34_4 N2_4 1_555 1_555
N5_4 C34_4 1_555 1_555
N6_4 C34_4 1_555 1_555
H19_4 N6_4 1_555 1_555
C35_4 N4_4 1_555 1_555
H20_4 C31_4 1_555 1_555
H21_4 N3_4 1_555 1_555
C36_4 C30_4 1_555 1_555
H23_4 C36_4 1_555 1_555
H24_4 N6_4 1_555 1_555
Zn11_2 O4_4 1_555 1_555
Zn9_2 O5_4 1_555 1_555
C37_3 O12_3 1_555 1_555
O12_3 C40_3 1_555 1_555
C38_3 C39_3 1_555 1_555
C39_3 C37_3 1_555 1_555
C40_3 C44_3 1_555 1_555
C41_3 C38_3 1_555 1_555
C42_3 C41_3 1_555 1_555
C43_3 C41_3 1_555 1_555
C44_3 H25_3 1_555 1_555
C45_3 C37_3 1_555 1_555
H26_3 C45_3 1_555 1_555
O13_3 Zn11_2 1_555 1_555
H27_3 C38_3 1_555 1_555
H28_3 C39_3 1_555 1_555
O14_3 Zn9_2 1_555 1_555
C46_3 C40_3 1_555 1_555
C47_3 C44_3 1_555 1_555
H29_3 C46_3 1_555 1_555
C48_3 C46_3 1_555 1_555
H30_3 C47_3 1_555 1_555
H31_3 C43_3 1_555 1_555
N7_4 Zn9_2 1_555 1_555
C49_3 C47_3 1_555 1_555
C50_3 C49_3 1_555 1_555
H32_3 C48_3 1_555 1_555
O21 C50_3 1_555 1_555
O25 C50_3 1_555 1_555
N7 C32_4 1_555 1_555
C8_4 O3_4 1_555 1_555
C12_4 C13_4 1_555 1_555
O6_4 Zn11_2 1_555 1_555
O7_4 Zn9_2 1_555 1_555
N2_4 Zn11_2 1_555 1_555
C17_4 C18_4 1_555 1_555
C30_4 C35_4 1_555 1_555
C32_4 C36_4 1_555 1_555
C33_4 N7 1_555 1_555
N5_4 C35_4 1_555 1_555
C42_3 O13_3 1_555 1_555
C42_3 O14_3 1_555 1_555
C43_3 C45_3 1_555 1_555
C48_3 C49_3 1_555 1_555
Zn1_4 O1_4 1_555 1_555
Zn2_4 O2_4 1_555 1_555
C1_4 C2_4 1_555 1_555
C2_4 C3_4 1_555 1_555
C3_4 H1_4 1_555 1_555
C4_4 C2_4 1_555 1_555
H2_4 C4_4 1_555 1_555
C5_4 C3_4 1_555 1_555
H3_4 C5_4 1_555 1_555
C6_4 C4_4 1_555 1_555
H4_4 C6_4 1_555 1_555
C7_4 C5_4 1_555 1_555
N1_4 Zn5_3 1_555 1_555
O1_4 C1_4 1_555 1_555
O2_4 C1_4 1_555 1_555
Zn5_3 O18_4 1_555 1_555
C51_4 O10_6 1_555 1_555
C53_4 C54_4 1_555 1_555
C54_4 H33_4 1_555 1_555
C55_4 C51_4 1_555 1_555
C56_4 C53_4 1_555 1_555
O17_4 C56_4 1_555 1_555
O18_4 C56_4 1_555 1_555
C57_4 C53_4 1_555 1_555
Zn10_3 O17_4 1_555 1_555
O21_4 Zn10_3 1_555 1_555
H34_4 C55_4 1_555 1_555
C60_4 C51_4 1_555 1_555
H36_4 C60_4 1_555 1_555
O22_4 Zn10_3 1_555 1_555
O23_3 Zn10_3 1_555 1_555
O24_3 Zn5_3 1_555 1_555
N9_4 Zn10_3 1_555 1_555
O25_4 Zn5_3 1_555 1_555
O26_4 Zn5_3 1_555 1_555
H39_4 C57_4 1_555 1_555
C65_4 N9_4 1_555 1_555
N10_4 C65_4 1_555 1_555
N11_4 C65_4 1_555 1_555
C66_4 N9_4 1_555 1_555
N12_4 C66_4 1_555 1_555
C67_4 N11_4 1_555 1_555
N13_4 C66_4 1_555 1_555
C68_4 H41_4 1_555 1_555
C69_4 C67_4 1_555 1_555
H42_4 N10_4 1_555 1_555
C70_4 C69_4 1_555 1_555
C71_4 C70_4 1_555 1_555
C72_4 C68_4 1_555 1_555
H43_4 N10_4 1_555 1_555
N7_2 C68_4 1_555 1_555
H44_4 C70_4 1_555 1_555
H45_4 C72_4 1_555 1_555
H46_4 C71_4 1_555 1_555
H47_4 N12_4 1_555 1_555
H48_4 N12_4 1_555 1_555
C6_4 C7_4 1_555 1_555
C54_4 C55_4 1_555 1_555
C57_4 C60_4 1_555 1_555
C67_4 N13_4 1_555 1_555
C69_4 C72_4 1_555 1_555
C71_4 N7_2 1_555 1_555
Zn6 O1_5 1_555 1_555
C1_5 C2_5 1_555 1_555
C2_5 C3_5 1_555 1_555
C3_5 H1_5 1_555 1_555
C4_5 C2_5 1_555 1_555
H2_5 C4_5 1_555 1_555
C5_5 C3_5 1_555 1_555
H3_5 C5_5 1_555 1_555
C6_5 C4_5 1_555 1_555
H4_5 C6_5 1_555 1_555
C7_5 C5_5 1_555 1_555
C8_5 C9_5 1_555 1_555
C9_5 H5_5 1_555 1_555
C10_5 C8_5 1_555 1_555
H6_5 C10_5 1_555 1_555
C11_5 C9_5 1_555 1_555
H7_5 C11_5 1_555 1_555
C12_5 C11_5 1_555 1_555
C13_5 C10_5 1_555 1_555
H8_5 C13_5 1_555 1_555
C14_5 C12_5 1_555 1_555
N1_5 Zn2_4 1_555 1_555
O1_5 C1_5 1_555 1_555
O2_5 C1_5 1_555 1_555
O3_5 C7_5 1_555 1_555
O4_5 C14_5 1_555 1_555
O5_5 C14_5 1_555 1_555
O6_5 C29_5 1_555 1_555
O7_5 C29_5 1_555 1_555
N2_5 C27_5 1_555 1_555
O8_3 C21_3 1_555 1_555
O9_3 C21_3 1_555 1_555
C15_5 C16_5 1_555 1_555
C16_5 C20_5 1_555 1_555
C17_5 H9_5 1_555 1_555
C18_5 C15_5 1_555 1_555
C19_5 C17_5 1_555 1_555
C20_5 C19_5 1_555 1_555
C21_3 C28_3 1_555 1_555
C22_3 C23_3 1_555 1_555
C23_3 C24_3 1_555 1_555
C24_3 C26_3 1_555 1_555
C25_3 C26_3 1_555 1_555
H10_5 C19_5 1_555 1_555
H12_3 C25_3 1_555 1_555
C27_5 N3_5 1_555 1_555
O10_7 C20_5 1_555 1_555
C28_3 C22_3 1_555 1_555
H13_3 C22_3 1_555 1_555
C29_5 C18_5 1_555 1_555
H14_5 C16_5 1_555 1_555
H15_3 C23_3 1_555 1_555
O11_6 C24_3 1_555 1_555
N3_5 H17_5 1_555 1_555
H16_5 C15_5 1_555 1_555
N4_5 C27_5 1_555 1_555
C34_5 N2_5 1_555 1_555
N5_5 C34_5 1_555 1_555
N6_5 C34_5 1_555 1_555
H19_5 N6_5 1_555 1_555
C35_5 N4_5 1_555 1_555
H21_5 N3_5 1_555 1_555
H24_5 N6_5 1_555 1_555
Zn1_3 O4_5 1_555 1_555
Zn2_3 O5_5 1_555 1_555
Zn2_4 O18_5 1_555 1_555
N7_5 Zn2_3 1_555 1_555
C51_5 O10_7 1_555 1_555
C53_5 C54_5 1_555 1_555
C54_5 H33_5 1_555 1_555
C55_5 C51_5 1_555 1_555
C56_5 C53_5 1_555 1_555
O17_5 C56_5 1_555 1_555
O18_5 C56_5 1_555 1_555
C57_5 C53_5 1_555 1_555
Zn1_4 O17_5 1_555 1_555
O21_5 Zn1_4 1_555 1_555
H34_5 C55_5 1_555 1_555
C60_5 C51_5 1_555 1_555
H36_5 C60_5 1_555 1_555
O22_5 Zn1_4 1_555 1_555
N9_5 Zn1_4 1_555 1_555
O25_5 Zn2_4 1_555 1_555
O26_5 Zn2_4 1_555 1_555
H39_5 C57_5 1_555 1_555
C65_5 N9_5 1_555 1_555
N10_5 C65_5 1_555 1_555
N11_5 C65_5 1_555 1_555
C66_5 N9_5 1_555 1_555
N12_5 C66_5 1_555 1_555
C67_5 N11_5 1_555 1_555
N13_5 C66_5 1_555 1_555
C68_5 H41_5 1_555 1_555
C69_5 C67_5 1_555 1_555
H42_5 N10_5 1_555 1_555
C70_5 C69_5 1_555 1_555
C71_5 C70_5 1_555 1_555
C72_5 C68_5 1_555 1_555
H43_5 N10_5 1_555 1_555
N1_4 C68_5 1_555 1_555
H44_5 C70_5 1_555 1_555
H45_5 C72_5 1_555 1_555
H46_5 C71_5 1_555 1_555
H47_5 N12_5 1_555 1_555
H48_5 N12_5 1_555 1_555
C6_5 C7_5 1_555 1_555
C8_5 O3_5 1_555 1_555
C12_5 C13_5 1_555 1_555
O6_5 Zn1_3 1_555 1_555
O7_5 Zn2_3 1_555 1_555
N2_5 Zn1_3 1_555 1_555
O8_3 Zn1_3 1_555 1_555
O9_3 Zn2_3 1_555 1_555
C17_5 C18_5 1_555 1_555
C25_3 C28_3 1_555 1_555
N5_5 C35_5 1_555 1_555
C54_5 C55_5 1_555 1_555
C57_5 C60_5 1_555 1_555
C67_5 N13_5 1_555 1_555
C69_5 C72_5 1_555 1_555
C71_5 N1_4 1_555 1_555
C30_5 C31_5 1_555 1_555
C31_5 C33_5 1_555 1_555
C32_5 H18_5 1_555 1_555
C33_5 H22_5 1_555 1_555
H20_5 C31_5 1_555 1_555
C36_5 C30_5 1_555 1_555
H23_5 C36_5 1_555 1_555
N1_3 C32_5 1_555 1_555
C52_3 O11_7 1_555 1_555
C58_3 C52_3 1_555 1_555
C59_3 O19_3 1_555 1_555
O19_3 Zn11_3 1_555 1_555
O20_3 C59_3 1_555 1_555
Zn9_3 O20_3 1_555 1_555
H35_3 C58_3 1_555 1_555
C61_3 C52_3 1_555 1_555
C62_3 C58_3 1_555 1_555
H37_3 C62_3 1_555 1_555
C63_3 C61_3 1_555 1_555
C64_3 C59_3 1_555 1_555
H40_3 C63_3 1_555 1_555
C32_5 C36_5 1_555 1_555
C33_5 N1_3 1_555 1_555
C62_3 C64_3 1_555 1_555
C63_3 C64_3 1_555 1_555
C30_6 C31_6 1_555 1_555
C31_6 C33_6 1_555 1_555
C32_6 H18_6 1_555 1_555
C33_6 H22_6 1_555 1_555
H20_6 C31_6 1_555 1_555
C36_6 C30_6 1_555 1_555
H23_6 C36_6 1_555 1_555
N7_3 C32_6 1_555 1_555
C32_6 C36_6 1_555 1_555
C33_6 N7_3 1_555 1_555
Zn6_2 O1_6 1_555 1_555
C1_6 C2_6 1_555 1_555
C2_6 C3_6 1_555 1_555
C3_6 H1_6 1_555 1_555
C4_6 C2_6 1_555 1_555
H2_6 C4_6 1_555 1_555
C5_6 C3_6 1_555 1_555
H3_6 C5_6 1_555 1_555
C6_6 C4_6 1_555 1_555
H4_6 C6_6 1_555 1_555
C7_6 C5_6 1_555 1_555
C8_6 C9_6 1_555 1_555
C9_6 H5_6 1_555 1_555
C10_6 C8_6 1_555 1_555
H6_6 C10_6 1_555 1_555
C11_6 C9_6 1_555 1_555
H7_6 C11_6 1_555 1_555
C12_6 C11_6 1_555 1_555
C13_6 C10_6 1_555 1_555
H8_6 C13_6 1_555 1_555
C14_6 C12_6 1_555 1_555
N1_6 Zn5_4 1_555 1_555
O1_6 C1_6 1_555 1_555
O2_6 C1_6 1_555 1_555
O3_6 C7_6 1_555 1_555
O4_6 C14_6 1_555 1_555
O5_6 C14_6 1_555 1_555
O6_6 C29_6 1_555 1_555
O7_6 C29_6 1_555 1_555
N2_6 C27_6 1_555 1_555
C15_6 C16_6 1_555 1_555
C16_6 C20_6 1_555 1_555
C17_6 H9_6 1_555 1_555
C18_6 C15_6 1_555 1_555
C19_6 C17_6 1_555 1_555
C20_6 C19_6 1_555 1_555
H10_6 C19_6 1_555 1_555
C27_6 N3_6 1_555 1_555
O10_8 C20_6 1_555 1_555
C29_6 C18_6 1_555 1_555
H14_6 C16_6 1_555 1_555
N3_6 H17_6 1_555 1_555
H16_6 C15_6 1_555 1_555
N4_6 C27_6 1_555 1_555
C34_6 N2_6 1_555 1_555
N5_6 C34_6 1_555 1_555
N6_6 C34_6 1_555 1_555
H19_6 N6_6 1_555 1_555
C35_6 N4_6 1_555 1_555
H21_6 N3_6 1_555 1_555
H24_6 N6_6 1_555 1_555
Zn11_3 O4_6 1_555 1_555
Zn9_3 O5_6 1_555 1_555
Zn5_4 O18_6 1_555 1_555
C37_4 O12_4 1_555 1_555
O12_4 C40_4 1_555 1_555
C38_4 C39_4 1_555 1_555
C39_4 C37_4 1_555 1_555
C40_4 C44_4 1_555 1_555
C41_4 C38_4 1_555 1_555
C42_4 C41_4 1_555 1_555
C43_4 C41_4 1_555 1_555
C44_4 H25_4 1_555 1_555
C45_4 C37_4 1_555 1_555
H26_4 C45_4 1_555 1_555
O13_4 Zn11_3 1_555 1_555
H27_4 C38_4 1_555 1_555
H28_4 C39_4 1_555 1_555
O14_4 Zn9_3 1_555 1_555
C46_4 C40_4 1_555 1_555
C47_4 C44_4 1_555 1_555
H29_4 C46_4 1_555 1_555
C48_4 C46_4 1_555 1_555
H30_4 C47_4 1_555 1_555
H31_4 C43_4 1_555 1_555
N7_6 Zn9_3 1_555 1_555
C49_4 C47_4 1_555 1_555
C50_4 C49_4 1_555 1_555
H32_4 C48_4 1_555 1_555
O21_3 C50_4 1_555 1_555
O25_3 C50_4 1_555 1_555
C51_6 O10_8 1_555 1_555
C53_6 C54_6 1_555 1_555
C54_6 H33_6 1_555 1_555
C55_6 C51_6 1_555 1_555
C56_6 C53_6 1_555 1_555
O17_6 C56_6 1_555 1_555
O18_6 C56_6 1_555 1_555
C57_6 C53_6 1_555 1_555
Zn10_4 O17_6 1_555 1_555
O21_6 Zn10_4 1_555 1_555
H34_6 C55_6 1_555 1_555
C60_6 C51_6 1_555 1_555
H36_6 C60_6 1_555 1_555
O22_6 Zn10_4 1_555 1_555
O23_4 Zn10_4 1_555 1_555
O24_4 Zn5_4 1_555 1_555
N9_6 Zn10_4 1_555 1_555
O25_6 Zn5_4 1_555 1_555
O26_6 Zn5_4 1_555 1_555
H39_6 C57_6 1_555 1_555
C65_6 N9_6 1_555 1_555
N10_6 C65_6 1_555 1_555
N11_6 C65_6 1_555 1_555
C66_6 N9_6 1_555 1_555
N12_6 C66_6 1_555 1_555
C67_6 N11_6 1_555 1_555
N13_6 C66_6 1_555 1_555
C68_6 H41_6 1_555 1_555
C69_6 C67_6 1_555 1_555
H42_6 N10_6 1_555 1_555
C70_6 C69_6 1_555 1_555
C71_6 C70_6 1_555 1_555
C72_6 C68_6 1_555 1_555
H43_6 N10_6 1_555 1_555
N7_4 C68_6 1_555 1_555
H44_6 C70_6 1_555 1_555
H45_6 C72_6 1_555 1_555
H46_6 C71_6 1_555 1_555
H47_6 N12_6 1_555 1_555
H48_6 N12_6 1_555 1_555
C6_6 C7_6 1_555 1_555
C8_6 O3_6 1_555 1_555
C12_6 C13_6 1_555 1_555
O6_6 Zn11_3 1_555 1_555
O7_6 Zn9_3 1_555 1_555
N2_6 Zn11_3 1_555 1_555
C17_6 C18_6 1_555 1_555
N5_6 C35_6 1_555 1_555
C42_4 O13_4 1_555 1_555
C42_4 O14_4 1_555 1_555
C43_4 C45_4 1_555 1_555
C48_4 C49_4 1_555 1_555
C54_6 C55_6 1_555 1_555
C57_6 C60_6 1_555 1_555
C67_6 N13_6 1_555 1_555
C69_6 C72_6 1_555 1_555
C71_6 N7_4 1_555 1_555
O8_4 C21_4 1_555 1_555
O9_4 C21_4 1_555 1_555
C21_4 C28_4 1_555 1_555
C22_4 C23_4 1_555 1_555
C23_4 C24_4 1_555 1_555
C24_4 C26_4 1_555 1_555
C25_4 C26_4 1_555 1_555
C26_4 H11_4 1_555 1_555
H12_4 C25_4 1_555 1_555
C28_4 C22_4 1_555 1_555
H13_4 C22_4 1_555 1_555
H15_4 C23_4 1_555 1_555
O11_8 C24_4 1_555 1_555
C52_4 O11_8 1_555 1_555
C58_4 C52_4 1_555 1_555
C59_4 O19_4 1_555 1_555
O20_4 C59_4 1_555 1_555
Zn12_2 O20_4 1_555 1_555
H35_4 C58_4 1_555 1_555
C61_4 C52_4 1_555 1_555
C62_4 C58_4 1_555 1_555
H37_4 C62_4 1_555 1_555
C63_4 C61_4 1_555 1_555
C64_4 C59_4 1_555 1_555
H38_4 C61_4 1_555 1_555
H40_4 C63_4 1_555 1_555
O9_4 Zn7 1_555 1_555
C25_4 C28_4 1_555 1_555
C62_4 C64_4 1_555 1_555
C63_4 C64_4 1_555 1_555
O6_7 C29_7 1_555 1_555
O7_7 C29_7 1_555 1_555
N2_7 C27_7 1_555 1_555
C15_7 C16_7 1_555 1_555
C16_7 C20_7 1_555 1_555
C17_7 H9_7 1_555 1_555
C18_7 C15_7 1_555 1_555
C19_7 C17_7 1_555 1_555
C20_7 C19_7 1_555 1_555
C27_7 N3_7 1_555 1_555
O10_9 C20_7 1_555 1_555
C29_7 C18_7 1_555 1_555
H14_7 C16_7 1_555 1_555
N3_7 H17_7 1_555 1_555
H16_7 C15_7 1_555 1_555
N4_7 C27_7 1_555 1_555
C30_7 C31_7 1_555 1_555
C31_7 C33_7 1_555 1_555
C32_7 H18_7 1_555 1_555
C33_7 H22_7 1_555 1_555
C34_7 N2_7 1_555 1_555
N5_7 C34_7 1_555 1_555
N6_7 C34_7 1_555 1_555
H19_7 N6_7 1_555 1_555
C35_7 N4_7 1_555 1_555
H20_7 C31_7 1_555 1_555
H21_7 N3_7 1_555 1_555
C36_7 C30_7 1_555 1_555
H23_7 C36_7 1_555 1_555
H24_7 N6_7 1_555 1_555
N1_5 C32_7 1_555 1_555
O6_7 Zn6 1_555 1_555
N2_7 Zn6 1_555 1_555
C17_7 C18_7 1_555 1_555
C30_7 C35_7 1_555 1_555
C32_7 C36_7 1_555 1_555
C33_7 N1_5 1_555 1_555
N5_7 C35_7 1_555 1_555
O26_7 Zn8 1_555 1_555
C51_7 O10_10 1_555 1_555
C53_7 C54_7 1_555 1_555
C54_7 H33_7 1_555 1_555
C55_7 C51_7 1_555 1_555
C56_7 C53_7 1_555 1_555
O17_7 C56_7 1_555 1_555
O18_7 C56_7 1_555 1_555
C57_7 C53_7 1_555 1_555
Zn6_2 O17_7 1_555 1_555
C60_7 C51_7 1_555 1_555
H36_7 C60_7 1_555 1_555
N9_7 Zn6_2 1_555 1_555
H39_7 C57_7 1_555 1_555
C65_7 N9_7 1_555 1_555
N10_7 C65_7 1_555 1_555
N11_7 C65_7 1_555 1_555
C66_7 N9_7 1_555 1_555
N12_7 C66_7 1_555 1_555
C67_7 N11_7 1_555 1_555
N13_7 C66_7 1_555 1_555
C68_7 H41_7 1_555 1_555
C69_7 C67_7 1_555 1_555
H42_7 N10_7 1_555 1_555
C70_7 C69_7 1_555 1_555
C71_7 C70_7 1_555 1_555
C72_7 C68_7 1_555 1_555
H43_7 N10_7 1_555 1_555
N1_6 C68_7 1_555 1_555
H44_7 C70_7 1_555 1_555
H45_7 C72_7 1_555 1_555
H46_7 C71_7 1_555 1_555
H47_7 N12_7 1_555 1_555
H48_7 N12_7 1_555 1_555
C54_7 C55_7 1_555 1_555
C57_7 C60_7 1_555 1_555
C67_7 N13_7 1_555 1_555
C69_7 C72_7 1_555 1_555
C71_7 N1_6 1_555 1_555
C1_7 C2_7 1_555 1_555
C2_7 C3_7 1_555 1_555
C3_7 H1_7 1_555 1_555
C4_7 C2_7 1_555 1_555
H2_7 C4_7 1_555 1_555
C5_7 C3_7 1_555 1_555
H3_7 C5_7 1_555 1_555
C6_7 C4_7 1_555 1_555
H4_7 C6_7 1_555 1_555
C7_7 C5_7 1_555 1_555
C8_7 C9_7 1_555 1_555
C9_7 H5_7 1_555 1_555
C10_7 C8_7 1_555 1_555
H6_7 C10_7 1_555 1_555
C11_7 C9_7 1_555 1_555
H7_7 C11_7 1_555 1_555
C12_7 C11_7 1_555 1_555
C13_7 C10_7 1_555 1_555
H8_7 C13_7 1_555 1_555
C14_7 C12_7 1_555 1_555
O23 C1_7 1_555 1_555
O24 C1_7 1_555 1_555
O3_7 C7_7 1_555 1_555
O4_7 C14_7 1_555 1_555
O5_7 C14_7 1_555 1_555
Zn12_2 O5_7 1_555 1_555
O25_7 Zn12 1_555 1_555
O26_8 Zn12 1_555 1_555
C6_7 C7_7 1_555 1_555
C8_7 O3_7 1_555 1_555
C12_7 C13_7 1_555 1_555
O6_8 C29_8 1_555 1_555
O7_8 C29_8 1_555 1_555
N2_8 C27_8 1_555 1_555
C15_8 C16_8 1_555 1_555
C16_8 C20_8 1_555 1_555
C17_8 H9_8 1_555 1_555
C18_8 C15_8 1_555 1_555
C19_8 C17_8 1_555 1_555
C20_8 C19_8 1_555 1_555
H10_7 C19_8 1_555 1_555
C27_8 N3_8 1_555 1_555
O10_11 C20_8 1_555 1_555
C29_8 C18_8 1_555 1_555
H14_8 C16_8 1_555 1_555
N3_8 H17_8 1_555 1_555
H16_8 C15_8 1_555 1_555
N4_8 C27_8 1_555 1_555
C30_8 C31_8 1_555 1_555
C31_8 C33_8 1_555 1_555
C32_8 H18_8 1_555 1_555
C33_8 H22_8 1_555 1_555
C34_8 N2_8 1_555 1_555
N5_8 C34_8 1_555 1_555
N6_8 C34_8 1_555 1_555
H19_8 N6_8 1_555 1_555
C35_8 N4_8 1_555 1_555
H20_8 C31_8 1_555 1_555
H21_8 N3_8 1_555 1_555
C36_8 C30_8 1_555 1_555
H23_8 C36_8 1_555 1_555
H24_8 N6_8 1_555 1_555
C37_5 O12_5 1_555 1_555
O12_5 C40_5 1_555 1_555
C38_5 C39_5 1_555 1_555
C39_5 C37_5 1_555 1_555
C40_5 C44_5 1_555 1_555
C41_5 C38_5 1_555 1_555
C42_5 C41_5 1_555 1_555
C43_5 C41_5 1_555 1_555
C44_5 H25_5 1_555 1_555
C45_5 C37_5 1_555 1_555
H26_5 C45_5 1_555 1_555
O13_5 Zn11_4 1_555 1_555
H27_5 C38_5 1_555 1_555
H28_5 C39_5 1_555 1_555
C46_5 C40_5 1_555 1_555
C47_5 C44_5 1_555 1_555
H29_5 C46_5 1_555 1_555
C48_5 C46_5 1_555 1_555
H30_5 C47_5 1_555 1_555
H31_5 C43_5 1_555 1_555
C49_5 C47_5 1_555 1_555
C50_5 C49_5 1_555 1_555
H32_5 C48_5 1_555 1_555
O21_5 C50_5 1_555 1_555
O25_5 C50_5 1_555 1_555
C51_8 O10_11 1_555 1_555
N7_5 C32_8 1_555 1_555
C53_8 C54_8 1_555 1_555
C54_8 H33_8 1_555 1_555
C55_8 C51_8 1_555 1_555
C56_8 C53_8 1_555 1_555
O17_8 C56_8 1_555 1_555
O18_8 C56_8 1_555 1_555
C57_8 C53_8 1_555 1_555
Zn10_5 O17_8 1_555 1_555
H34_7 C55_8 1_555 1_555
C60_8 C51_8 1_555 1_555
H36_8 C60_8 1_555 1_555
O23_5 Zn10_5 1_555 1_555
N9_8 Zn10_5 1_555 1_555
H39_8 C57_8 1_555 1_555
C65_8 N9_8 1_555 1_555
N10_8 C65_8 1_555 1_555
N11_8 C65_8 1_555 1_555
C66_8 N9_8 1_555 1_555
N12_8 C66_8 1_555 1_555
C67_8 N11_8 1_555 1_555
N13_8 C66_8 1_555 1_555
C68_8 H41_8 1_555 1_555
C69_8 C67_8 1_555 1_555
H42_8 N10_8 1_555 1_555
C70_8 C69_8 1_555 1_555
C71_8 C70_8 1_555 1_555
C72_8 C68_8 1_555 1_555
H43_8 N10_8 1_555 1_555
N7_6 C68_8 1_555 1_555
H44_8 C70_8 1_555 1_555
H45_8 C72_8 1_555 1_555
H46_8 C71_8 1_555 1_555
H47_8 N12_8 1_555 1_555
H48_8 N12_8 1_555 1_555
O6_8 Zn11_4 1_555 1_555
N2_8 Zn11_4 1_555 1_555
C17_8 C18_8 1_555 1_555
C30_8 C35_8 1_555 1_555
C32_8 C36_8 1_555 1_555
C33_8 N7_5 1_555 1_555
N5_8 C35_8 1_555 1_555
C42_5 O13_5 1_555 1_555
C42_5 O14_5 1_555 1_555
C43_5 C45_5 1_555 1_555
C48_5 C49_5 1_555 1_555
C54_8 C55_8 1_555 1_555
C57_8 C60_8 1_555 1_555
C67_8 N13_8 1_555 1_555
C69_8 C72_8 1_555 1_555
C71_8 N7_6 1_555 1_555
C1_8 C2_8 1_555 1_555
C2_8 C3_8 1_555 1_555
C3_8 H1_8 1_555 1_555
C4_8 C2_8 1_555 1_555
H2_8 C4_8 1_555 1_555
C5_8 C3_8 1_555 1_555
H3_8 C5_8 1_555 1_555
C6_8 C4_8 1_555 1_555
H4_8 C6_8 1_555 1_555
C7_8 C5_8 1_555 1_555
C8_8 C9_8 1_555 1_555
C9_8 H5_8 1_555 1_555
C10_8 C8_8 1_555 1_555
H6_8 C10_8 1_555 1_555
C11_8 C9_8 1_555 1_555
H7_8 C11_8 1_555 1_555
C12_8 C11_8 1_555 1_555
C13_8 C10_8 1_555 1_555
H8_8 C13_8 1_555 1_555
C14_8 C12_8 1_555 1_555
O23_5 C1_8 1_555 1_555
O24_5 C1_8 1_555 1_555
O3_8 C7_8 1_555 1_555
O21_6 C14_8 1_555 1_555
O25_6 C14_8 1_555 1_555
O22_6 C21_5 1_555 1_555
O26_6 C21_5 1_555 1_555
C21_5 C28_5 1_555 1_555
C22_5 C23_5 1_555 1_555
C23_5 C24_5 1_555 1_555
C24_5 C26_5 1_555 1_555
C25_5 C26_5 1_555 1_555
C26_5 H11_5 1_555 1_555
H12_5 C25_5 1_555 1_555
C28_5 C22_5 1_555 1_555
H13_5 C22_5 1_555 1_555
H15_5 C23_5 1_555 1_555
O11_9 C24_5 1_555 1_555
C38_6 C39_6 1_555 1_555
C39_6 C37_6 1_555 1_555
C41_6 C38_6 1_555 1_555
C42_6 C41_6 1_555 1_555
C43_6 C41_6 1_555 1_555
C45_6 C37_6 1_555 1_555
H26_6 C45_6 1_555 1_555
H27_6 C38_6 1_555 1_555
H28_6 C39_6 1_555 1_555
H31_6 C43_6 1_555 1_555
C6_8 C7_8 1_555 1_555
C8_8 O3_8 1_555 1_555
C12_8 C13_8 1_555 1_555
C25_5 C28_5 1_555 1_555
C42_6 O23_4 1_555 1_555
C42_6 O24_4 1_555 1_555
C43_6 C45_6 1_555 1_555
O12_6 C40_6 1_555 1_555
C40_6 C44_6 1_555 1_555
C44_6 H25_6 1_555 1_555
C46_6 C40_6 1_555 1_555
C47_6 C44_6 1_555 1_555
H29_6 C46_6 1_555 1_555
C48_6 C46_6 1_555 1_555
H30_6 C47_6 1_555 1_555
C49_6 C47_6 1_555 1_555
C50_6 C49_6 1_555 1_555
H32_6 C48_6 1_555 1_555
O21_4 C50_6 1_555 1_555
O25_4 C50_6 1_555 1_555
C52_5 O11_10 1_555 1_555
C58_5 C52_5 1_555 1_555
C59_5 O22_5 1_555 1_555
O26_5 C59_5 1_555 1_555
H35_5 C58_5 1_555 1_555
C61_5 C52_5 1_555 1_555
C62_5 C58_5 1_555 1_555
H37_5 C62_5 1_555 1_555
C63_5 C61_5 1_555 1_555
C64_5 C59_5 1_555 1_555
H38_5 C61_5 1_555 1_555
H40_5 C63_5 1_555 1_555
C48_6 C49_6 1_555 1_555
C62_5 C64_5 1_555 1_555
C63_5 C64_5 1_555 1_555
C1_9 C2_9 1_555 1_555
C2_9 C3_9 1_555 1_555
C3_9 H1_9 1_555 1_555
C4_9 C2_9 1_555 1_555
H2_9 C4_9 1_555 1_555
C5_9 C3_9 1_555 1_555
H3_9 C5_9 1_555 1_555
C6_9 C4_9 1_555 1_555
H4_9 C6_9 1_555 1_555
C7_9 C5_9 1_555 1_555
C8_9 C9_9 1_555 1_555
C9_9 H5_9 1_555 1_555
C10_9 C8_9 1_555 1_555
H6_9 C10_9 1_555 1_555
C11_9 C9_9 1_555 1_555
H7_9 C11_9 1_555 1_555
C12_9 C11_9 1_555 1_555
C13_9 C10_9 1_555 1_555
H8_9 C13_9 1_555 1_555
C14_9 C12_9 1_555 1_555
O23_2 C1_9 1_555 1_555
O24_2 C1_9 1_555 1_555
O3_9 C7_9 1_555 1_555
O21_7 C14_9 1_555 1_555
O25_7 C14_9 1_555 1_555
O22_8 C21_6 1_555 1_555
O26_8 C21_6 1_555 1_555
C21_6 C28_6 1_555 1_555
C22_6 C23_6 1_555 1_555
C23_6 C24_6 1_555 1_555
C24_6 C26_6 1_555 1_555
C25_6 C26_6 1_555 1_555
C26_6 H11_6 1_555 1_555
H12_6 C25_6 1_555 1_555
C28_6 C22_6 1_555 1_555
H13_6 C22_6 1_555 1_555
H15_6 C23_6 1_555 1_555
O11_11 C24_6 1_555 1_555
C52_6 O11_11 1_555 1_555
C58_6 C52_6 1_555 1_555
C59_6 O22_7 1_555 1_555
O26_7 C59_6 1_555 1_555
H35_6 C58_6 1_555 1_555
C61_6 C52_6 1_555 1_555
C62_6 C58_6 1_555 1_555
H37_6 C62_6 1_555 1_555
C63_6 C61_6 1_555 1_555
C64_6 C59_6 1_555 1_555
H38_6 C61_6 1_555 1_555
H40_6 C63_6 1_555 1_555
C6_9 C7_9 1_555 1_555
C8_9 O3_9 1_555 1_555
C12_9 C13_9 1_555 1_555
C25_6 C28_6 1_555 1_555
C62_6 C64_6 1_555 1_555
C63_6 C64_6 1_555 1_555
C1_10 C2_10 1_555 1_555
C2_10 C3_10 1_555 1_555
C3_10 H1_10 1_555 1_555
C4_10 C2_10 1_555 1_555
H2_10 C4_10 1_555 1_555
C5_10 C3_10 1_555 1_555
H3_10 C5_10 1_555 1_555
C6_10 C4_10 1_555 1_555
H4_10 C6_10 1_555 1_555
C7_10 C5_10 1_555 1_555
C8_10 C9_10 1_555 1_555
C9_10 H5_10 1_555 1_555
C10_10 C8_10 1_555 1_555
H6_10 C10_10 1_555 1_555
C11_10 C9_10 1_555 1_555
H7_10 C11_10 1_555 1_555
C12_10 C11_10 1_555 1_555
C13_10 C10_10 1_555 1_555
H8_10 C13_10 1_555 1_555
C14_10 C12_10 1_555 1_555
O23_3 C1_10 1_555 1_555
O24_3 C1_10 1_555 1_555
O3_10 C7_10 1_555 1_555
O21_2 C14_10 1_555 1_555
O25_2 C14_10 1_555 1_555
O22_2 C21_7 1_555 1_555
O26_2 C21_7 1_555 1_555
C21_7 C28_7 1_555 1_555
C22_7 C23_7 1_555 1_555
C23_7 C24_7 1_555 1_555
C24_7 C26_7 1_555 1_555
C25_7 C26_7 1_555 1_555
C26_7 H11_7 1_555 1_555
H12_7 C25_7 1_555 1_555
C28_7 C22_7 1_555 1_555
H13_7 C22_7 1_555 1_555
H15_7 C23_7 1_555 1_555
O11_12 C24_7 1_555 1_555
C52_7 O11_12 1_555 1_555
C58_7 C52_7 1_555 1_555
C59_7 O22 1_555 1_555
O26 C59_7 1_555 1_555
H35_7 C58_7 1_555 1_555
C61_7 C52_7 1_555 1_555
C62_7 C58_7 1_555 1_555
H37_7 C62_7 1_555 1_555
C63_7 C61_7 1_555 1_555
C64_7 C59_7 1_555 1_555
H38_7 C61_7 1_555 1_555
H40_7 C63_7 1_555 1_555
C6_10 C7_10 1_555 1_555
C8_10 O3_10 1_555 1_555
C12_10 C13_10 1_555 1_555
C25_7 C28_7 1_555 1_555
C62_7 C64_7 1_555 1_555
C63_7 C64_7 1_555 1_555
O22_4 C21_8 1_555 1_555
O26_4 C21_8 1_555 1_555
C21_8 C28_8 1_555 1_555
C22_8 C23_8 1_555 1_555
C23_8 C24_8 1_555 1_555
C24_8 C26_8 1_555 1_555
C25_8 C26_8 1_555 1_555
C26_8 H11_8 1_555 1_555
H12_8 C25_8 1_555 1_555
C28_8 C22_8 1_555 1_555
H13_8 C22_8 1_555 1_555
H15_8 C23_8 1_555 1_555
O11_13 C24_8 1_555 1_555
C52_8 O11_13 1_555 1_555
C58_8 C52_8 1_555 1_555
C59_8 O22_3 1_555 1_555
O26_3 C59_8 1_555 1_555
H35_8 C58_8 1_555 1_555
C61_8 C52_8 1_555 1_555
C62_8 C58_8 1_555 1_555
H37_8 C62_8 1_555 1_555
C63_8 C61_8 1_555 1_555
C64_8 C59_8 1_555 1_555
H38_8 C61_8 1_555 1_555
H40_8 C63_8 1_555 1_555
C25_8 C28_8 1_555 1_555
C62_8 C64_8 1_555 1_555
C63_8 C64_8 1_555 1_555
Zn13 N15 1_555 1_555
N15 C73 1_555 1_555
O27 Zn13 1_555 1_555
O28 Zn13 1_555 1_555
O29 Zn13 1_555 1_555
O30 Zn13 1_555 1_555
C73 N16 1_555 1_555
C74 N15 1_555 1_555
C75 O27 1_555 1_555
C76 O28 1_555 1_555
C77 O29 1_555 1_555
C78 O30 1_555 1_555
N16 H49 1_555 1_555
N17 C73 1_555 1_555
N18 C74 1_555 1_555
N19 C74 1_555 1_555
C79 C75 1_555 1_555
O31 C75 1_555 1_555
C80 C76 1_555 1_555
O32 C76 1_555 1_555
C81 C77 1_555 1_555
O33 C77 1_555 1_555
C82 C78 1_555 1_555
O34 C78 1_555 1_555
H50 N16 1_555 1_555
C83 N17 1_555 1_555
H51 N18 1_555 1_555
H52 N18 1_555 1_555
C84 C79 1_555 1_555
C85 C79 1_555 1_555
Zn14 O31 1_555 1_555
C86 C80 1_555 1_555
C87 C80 1_555 1_555
C88 C81 1_555 1_555
C89 C81 1_555 1_555
C90 C82 1_555 1_555
C91 C82 1_555 1_555
C92 C83 1_555 1_555
H53 C84 1_555 1_555
C93 C84 1_555 1_555
H54 C85 1_555 1_555
C94 C85 1_555 1_555
N20 Zn14 1_555 1_555
H55 C86 1_555 1_555
C95 C86 1_555 1_555
H56 C87 1_555 1_555
C96 C87 1_555 1_555
H57 C88 1_555 1_555
C97 C88 1_555 1_555
H58 C89 1_555 1_555
C98 C89 1_555 1_555
H59 C90 1_555 1_555
C99 C90 1_555 1_555
H60 C91 1_555 1_555
C100 C91 1_555 1_555
C101 C92 1_555 1_555
C102 C92 1_555 1_555
H61 C93 1_555 1_555
C103 C93 1_555 1_555
H62 C94 1_555 1_555
H63 C95 1_555 1_555
C104 C95 1_555 1_555
H64 C96 1_555 1_555
H65 C97 1_555 1_555
C105 C97 1_555 1_555
H66 C98 1_555 1_555
H67 C99 1_555 1_555
C106 C99 1_555 1_555
H68 C100 1_555 1_555
H69 C101 1_555 1_555
C107 C101 1_555 1_555
H70 C102 1_555 1_555
C108 C102 1_555 1_555
O35 C103 1_555 1_555
O36 C104 1_555 1_555
O37 C105 1_555 1_555
O38 C106 1_555 1_555
H71 C107 1_555 1_555
H72 C108 1_555 1_555
C109 O35 1_555 1_555
C110 O36 1_555 1_555
C111 O37 1_555 1_555
C112 O38 1_555 1_555
C113 C109 1_555 1_555
C114 C109 1_555 1_555
C115 C110 1_555 1_555
C116 C110 1_555 1_555
C118 C111 1_555 1_555
C119 C112 1_555 1_555
C120 C112 1_555 1_555
H73 C113 1_555 1_555
C121 C113 1_555 1_555
H74 C114 1_555 1_555
C122 C114 1_555 1_555
H75 C115 1_555 1_555
C123 C115 1_555 1_555
H76 C116 1_555 1_555
C124 C116 1_555 1_555
H78 C118 1_555 1_555
H79 C119 1_555 1_555
C127 C119 1_555 1_555
H80 C120 1_555 1_555
C128 C120 1_555 1_555
H81 C121 1_555 1_555
C129 C121 1_555 1_555
H82 C122 1_555 1_555
C130 C123 1_555 1_555
H84 C124 1_555 1_555
H87 C127 1_555 1_555
C132 C127 1_555 1_555
H88 C128 1_555 1_555
C133 C129 1_555 1_555
C134 C130 1_555 1_555
C136 C132 1_555 1_555
O39 C133 1_555 1_555
O40 C133 1_555 1_555
O41 C134 1_555 1_555
O45 C136 1_555 1_555
O46 C136 1_555 1_555
Zn15 O39 1_555 1_555
Zn16 O40 1_555 1_555
N27 C107 1_555 1_555
Zn17 N27 1_555 1_555
Zn18 O41 1_555 1_555
Zn22 O45 1_555 1_555
Zn23 O46 1_555 1_555
N19 C83 1_555 1_555
O32 Zn14 1_555 1_555
O33 Zn14 1_555 1_555
O34 Zn14 1_555 1_555
C94 C103 1_555 1_555
C96 C104 1_555 1_555
C98 C105 1_555 1_555
C100 C106 1_555 1_555
C108 N27 1_555 1_555
C122 C129 1_555 1_555
C124 C130 1_555 1_555
C128 C132 1_555 1_555
Zn19 O42 1_555 1_555
H77 C117 1_555 1_555
C125 C117 1_555 1_555
H85 C125 1_555 1_555
C131 C125 1_555 1_555
H86 C126 1_555 1_555
C135 C131 1_555 1_555
O43 C135 1_555 1_555
O44 C135 1_555 1_555
N21 C137 1_555 1_555
N22 Zn21 1_555 1_555
C137 N23 1_555 1_555
C138 N21 1_555 1_555
N23 H89 1_555 1_555
N24 C137 1_555 1_555
N25 C138 1_555 1_555
N26 C138 1_555 1_555
H90 N23 1_555 1_555
C139 N24 1_555 1_555
H91 N25 1_555 1_555
H92 N25 1_555 1_555
C140 C139 1_555 1_555
C141 C140 1_555 1_555
C142 C140 1_555 1_555
H93 C141 1_555 1_555
C143 C141 1_555 1_555
H94 C142 1_555 1_555
C144 C142 1_555 1_555
H95 C143 1_555 1_555
H96 C144 1_555 1_555
Zn20 O43 1_555 1_555
Zn21 O44 1_555 1_555
O47 Zn20 1_555 1_555
O48 Zn20 1_555 1_555
O49 Zn20 1_555 1_555
O50 Zn21 1_555 1_555
O51 Zn21 1_555 1_555
O52 Zn21 1_555 1_555
N28 C143 1_555 1_555
Zn24 N28 1_555 1_555
C126 C131 1_555 1_555
N21 Zn20 1_555 1_555
N26 C139 1_555 1_555
C144 N28 1_555 1_555
C111_2 O37_2 1_555 1_555
C117_2 C111_2 1_555 1_555
C118_2 C111_2 1_555 1_555
H77_2 C117_2 1_555 1_555
C125_2 C117_2 1_555 1_555
H78_2 C118_2 1_555 1_555
C126_2 C118_2 1_555 1_555
C127_2 C119_2 1_555 1_555
H80_2 C120_2 1_555 1_555
C128_2 C120_2 1_555 1_555
H85_2 C125_2 1_555 1_555
C131_2 C125_2 1_555 1_555
H86_2 C126_2 1_555 1_555
H87_2 C127_2 1_555 1_555
C132_2 C127_2 1_555 1_555
H88_2 C128_2 1_555 1_555
C135_2 C131_2 1_555 1_555
C136_2 C132_2 1_555 1_555
O43_2 C135_2 1_555 1_555
O44_2 C135_2 1_555 1_555
O45_2 C136_2 1_555 1_555
O46_2 C136_2 1_555 1_555
N21_2 C137_2 1_555 1_555
N22_2 Zn23 1_555 1_555
C137_2 N23_2 1_555 1_555
C138_2 N21_2 1_555 1_555
N23_2 H89_2 1_555 1_555
N24_2 C137_2 1_555 1_555
N25_2 C138_2 1_555 1_555
N26_2 C138_2 1_555 1_555
H90_2 N23_2 1_555 1_555
C139_2 N24_2 1_555 1_555
H91_2 N25_2 1_555 1_555
H92_2 N25_2 1_555 1_555
C140_2 C139_2 1_555 1_555
C141_2 C140_2 1_555 1_555
H93_2 C141_2 1_555 1_555
Zn22 O43_2 1_555 1_555
Zn23 O44_2 1_555 1_555
Zn22_2 O45_2 1_555 1_555
Zn23_2 O46_2 1_555 1_555
O47_2 Zn22 1_555 1_555
O48_2 Zn22 1_555 1_555
O50_2 Zn23 1_555 1_555
O51_2 Zn23 1_555 1_555
C126_2 C131_2 1_555 1_555
C128_2 C132_2 1_555 1_555
N21_2 Zn22 1_555 1_555
N26_2 C139_2 1_555 1_555
Zn13_2 N15_2 1_555 1_555
N15_2 C73_2 1_555 1_555
O27_2 Zn13_2 1_555 1_555
O28_2 Zn13_2 1_555 1_555
O29_2 Zn13_2 1_555 1_555
O30_2 Zn13_2 1_555 1_555
C73_2 N16_2 1_555 1_555
C74_2 N15_2 1_555 1_555
C75_2 O27_2 1_555 1_555
C76_2 O28_2 1_555 1_555
C77_2 O29_2 1_555 1_555
C78_2 O30_2 1_555 1_555
N16_2 H49_2 1_555 1_555
N17_2 C73_2 1_555 1_555
N18_2 C74_2 1_555 1_555
N19_2 C74_2 1_555 1_555
C79_2 C75_2 1_555 1_555
O31_2 C75_2 1_555 1_555
C80_2 C76_2 1_555 1_555
O32_2 C76_2 1_555 1_555
C81_2 C77_2 1_555 1_555
O33_2 C77_2 1_555 1_555
C82_2 C78_2 1_555 1_555
O34_2 C78_2 1_555 1_555
H50_2 N16_2 1_555 1_555
C83_2 N17_2 1_555 1_555
H51_2 N18_2 1_555 1_555
H52_2 N18_2 1_555 1_555
C84_2 C79_2 1_555 1_555
C85_2 C79_2 1_555 1_555
Zn14_2 O31_2 1_555 1_555
C86_2 C80_2 1_555 1_555
C87_2 C80_2 1_555 1_555
C88_2 C81_2 1_555 1_555
C89_2 C81_2 1_555 1_555
C90_2 C82_2 1_555 1_555
C91_2 C82_2 1_555 1_555
C92_2 C83_2 1_555 1_555
H53_2 C84_2 1_555 1_555
C93_2 C84_2 1_555 1_555
H54_2 C85_2 1_555 1_555
C94_2 C85_2 1_555 1_555
N20_2 Zn14_2 1_555 1_555
H55_2 C86_2 1_555 1_555
C95_2 C86_2 1_555 1_555
H56_2 C87_2 1_555 1_555
C96_2 C87_2 1_555 1_555
H57_2 C88_2 1_555 1_555
C97_2 C88_2 1_555 1_555
H58_2 C89_2 1_555 1_555
C98_2 C89_2 1_555 1_555
H59_2 C90_2 1_555 1_555
C99_2 C90_2 1_555 1_555
H60_2 C91_2 1_555 1_555
C100_2 C91_2 1_555 1_555
C101_2 C92_2 1_555 1_555
C102_2 C92_2 1_555 1_555
H61_2 C93_2 1_555 1_555
C103_2 C93_2 1_555 1_555
H62_2 C94_2 1_555 1_555
H63_2 C95_2 1_555 1_555
C104_2 C95_2 1_555 1_555
H64_2 C96_2 1_555 1_555
H65_2 C97_2 1_555 1_555
C105_2 C97_2 1_555 1_555
H66_2 C98_2 1_555 1_555
H67_2 C99_2 1_555 1_555
C106_2 C99_2 1_555 1_555
H68_2 C100_2 1_555 1_555
H69_2 C101_2 1_555 1_555
C107_2 C101_2 1_555 1_555
H70_2 C102_2 1_555 1_555
C108_2 C102_2 1_555 1_555
O35_2 C103_2 1_555 1_555
O36_2 C104_2 1_555 1_555
O38_2 C106_2 1_555 1_555
H71_2 C107_2 1_555 1_555
H72_2 C108_2 1_555 1_555
C109_2 O35_2 1_555 1_555
C110_2 O36_2 1_555 1_555
C112_2 O38_2 1_555 1_555
C113_2 C109_2 1_555 1_555
C114_2 C109_2 1_555 1_555
C115_2 C110_2 1_555 1_555
C116_2 C110_2 1_555 1_555
H73_2 C113_2 1_555 1_555
C121_2 C113_2 1_555 1_555
H74_2 C114_2 1_555 1_555
C122_2 C114_2 1_555 1_555
H75_2 C115_2 1_555 1_555
C123_2 C115_2 1_555 1_555
H76_2 C116_2 1_555 1_555
C124_2 C116_2 1_555 1_555
H81_2 C121_2 1_555 1_555
C129_2 C121_2 1_555 1_555
H82_2 C122_2 1_555 1_555
H83_2 C123_2 1_555 1_555
C130_2 C123_2 1_555 1_555
H84_2 C124_2 1_555 1_555
C133_2 C129_2 1_555 1_555
C134_2 C130_2 1_555 1_555
O39_2 C133_2 1_555 1_555
O40_2 C133_2 1_555 1_555
O41_2 C134_2 1_555 1_555
O42_2 C134_2 1_555 1_555
Zn15_2 O39_2 1_555 1_555
Zn16_2 O40_2 1_555 1_555
N27_2 C107_2 1_555 1_555
Zn17_2 N27_2 1_555 1_555
Zn16 O41_2 1_555 1_555
Zn15 O42_2 1_555 1_555
N19_2 C83_2 1_555 1_555
O32_2 Zn14_2 1_555 1_555
O33_2 Zn14_2 1_555 1_555
O34_2 Zn14_2 1_555 1_555
C94_2 C103_2 1_555 1_555
C96_2 C104_2 1_555 1_555
C98_2 C105_2 1_555 1_555
C100_2 C106_2 1_555 1_555
C108_2 N27_2 1_555 1_555
C122_2 C129_2 1_555 1_555
C124_2 C130_2 1_555 1_555
H94_2 C142_2 1_555 1_555
C144_2 C142_2 1_555 1_555
H95_2 C143_2 1_555 1_555
H96_2 C144_2 1_555 1_555
N22 C143_2 1_555 1_555
C144_2 N22 1_555 1_555
O35_3 C103_3 1_555 1_555
C109_3 O35_3 1_555 1_555
C113_3 C109_3 1_555 1_555
C114_3 C109_3 1_555 1_555
H73_3 C113_3 1_555 1_555
C121_3 C113_3 1_555 1_555
H74_3 C114_3 1_555 1_555
C122_3 C114_3 1_555 1_555
C123_3 C115_3 1_555 1_555
H76_3 C116_3 1_555 1_555
C124_3 C116_3 1_555 1_555
H81_3 C121_3 1_555 1_555
C129_3 C121_3 1_555 1_555
H82_3 C122_3 1_555 1_555
H83_3 C123_3 1_555 1_555
C130_3 C123_3 1_555 1_555
H84_3 C124_3 1_555 1_555
C133_3 C129_3 1_555 1_555
C134_3 C130_3 1_555 1_555
O39_3 C133_3 1_555 1_555
O40_3 C133_3 1_555 1_555
O51_2 C134_3 1_555 1_555
O48_2 C134_3 1_555 1_555
Zn22_2 O39_3 1_555 1_555
Zn23_2 O40_3 1_555 1_555
C122_3 C129_3 1_555 1_555
C124_3 C130_3 1_555 1_555
Zn13_3 N15_3 1_555 1_555
N15_3 C73_3 1_555 1_555
O27_3 Zn13_3 1_555 1_555
O28_3 Zn13_3 1_555 1_555
O29_3 Zn13_3 1_555 1_555
O30_3 Zn13_3 1_555 1_555
C73_3 N16_3 1_555 1_555
C74_3 N15_3 1_555 1_555
C75_3 O27_3 1_555 1_555
C76_3 O28_3 1_555 1_555
C77_3 O29_3 1_555 1_555
C78_3 O30_3 1_555 1_555
N16_3 H49_3 1_555 1_555
N17_3 C73_3 1_555 1_555
N18_3 C74_3 1_555 1_555
N19_3 C74_3 1_555 1_555
C79_3 C75_3 1_555 1_555
O31_3 C75_3 1_555 1_555
C80_3 C76_3 1_555 1_555
O32_3 C76_3 1_555 1_555
C81_3 C77_3 1_555 1_555
O33_3 C77_3 1_555 1_555
C82_3 C78_3 1_555 1_555
O34_3 C78_3 1_555 1_555
H50_3 N16_3 1_555 1_555
C83_3 N17_3 1_555 1_555
H51_3 N18_3 1_555 1_555
H52_3 N18_3 1_555 1_555
C84_3 C79_3 1_555 1_555
C85_3 C79_3 1_555 1_555
Zn14_3 O31_3 1_555 1_555
C86_3 C80_3 1_555 1_555
C87_3 C80_3 1_555 1_555
C88_3 C81_3 1_555 1_555
C89_3 C81_3 1_555 1_555
C90_3 C82_3 1_555 1_555
C91_3 C82_3 1_555 1_555
C92_3 C83_3 1_555 1_555
H53_3 C84_3 1_555 1_555
C93_3 C84_3 1_555 1_555
H54_3 C85_3 1_555 1_555
C94_3 C85_3 1_555 1_555
N20_3 Zn14_3 1_555 1_555
H55_3 C86_3 1_555 1_555
C95_3 C86_3 1_555 1_555
H56_3 C87_3 1_555 1_555
C96_3 C87_3 1_555 1_555
H57_3 C88_3 1_555 1_555
C97_3 C88_3 1_555 1_555
H58_3 C89_3 1_555 1_555
C98_3 C89_3 1_555 1_555
H59_3 C90_3 1_555 1_555
C99_3 C90_3 1_555 1_555
H60_3 C91_3 1_555 1_555
C100_3 C91_3 1_555 1_555
C101_3 C92_3 1_555 1_555
C102_3 C92_3 1_555 1_555
H61_3 C93_3 1_555 1_555
H63_3 C95_3 1_555 1_555
C104_3 C95_3 1_555 1_555
H64_3 C96_3 1_555 1_555
H65_3 C97_3 1_555 1_555
C105_3 C97_3 1_555 1_555
H66_3 C98_3 1_555 1_555
H67_3 C99_3 1_555 1_555
C106_3 C99_3 1_555 1_555
H68_3 C100_3 1_555 1_555
H69_3 C101_3 1_555 1_555
C107_3 C101_3 1_555 1_555
H70_3 C102_3 1_555 1_555
C108_3 C102_3 1_555 1_555
O36_3 C104_3 1_555 1_555
O37_3 C105_3 1_555 1_555
O38_3 C106_3 1_555 1_555
H71_3 C107_3 1_555 1_555
H72_3 C108_3 1_555 1_555
C110_3 O36_3 1_555 1_555
C111_3 O37_3 1_555 1_555
C112_3 O38_3 1_555 1_555
C118_3 C111_3 1_555 1_555
C119_3 C112_3 1_555 1_555
C120_3 C112_3 1_555 1_555
H78_3 C118_3 1_555 1_555
H79_3 C119_3 1_555 1_555
C127_3 C119_3 1_555 1_555
H80_3 C120_3 1_555 1_555
C128_3 C120_3 1_555 1_555
H87_3 C127_3 1_555 1_555
C132_3 C127_3 1_555 1_555
H88_3 C128_3 1_555 1_555
C136_3 C132_3 1_555 1_555
O45_3 C136_3 1_555 1_555
O46_3 C136_3 1_555 1_555
N20_2 C107_3 1_555 1_555
Zn19 O45_3 1_555 1_555
N19_3 C83_3 1_555 1_555
O32_3 Zn14_3 1_555 1_555
O33_3 Zn14_3 1_555 1_555
O34_3 Zn14_3 1_555 1_555
C96_3 C104_3 1_555 1_555
C98_3 C105_3 1_555 1_555
C100_3 C106_3 1_555 1_555
C108_3 N20_2 1_555 1_555
C128_3 C132_3 1_555 1_555
H77_3 C117_3 1_555 1_555
C125_3 C117_3 1_555 1_555
H85_3 C125_3 1_555 1_555
C131_3 C125_3 1_555 1_555
H86_3 C126_3 1_555 1_555
C135_3 C131_3 1_555 1_555
O43_3 C135_3 1_555 1_555
O44_3 C135_3 1_555 1_555
N21_3 C137_3 1_555 1_555
N22_3 Zn21_2 1_555 1_555
C137_3 N23_3 1_555 1_555
C138_3 N21_3 1_555 1_555
N23_3 H89_3 1_555 1_555
N24_3 C137_3 1_555 1_555
N25_3 C138_3 1_555 1_555
N26_3 C138_3 1_555 1_555
H90_3 N23_3 1_555 1_555
C139_3 N24_3 1_555 1_555
H91_3 N25_3 1_555 1_555
H92_3 N25_3 1_555 1_555
C140_3 C139_3 1_555 1_555
C141_3 C140_3 1_555 1_555
C142_3 C140_3 1_555 1_555
H93_3 C141_3 1_555 1_555
C143_3 C141_3 1_555 1_555
H94_3 C142_3 1_555 1_555
C144_3 C142_3 1_555 1_555
H95_3 C143_3 1_555 1_555
H96_3 C144_3 1_555 1_555
Zn20_2 O43_3 1_555 1_555
Zn21_2 O44_3 1_555 1_555
O47_3 Zn20_2 1_555 1_555
O48_3 Zn20_2 1_555 1_555
O49_2 Zn20_2 1_555 1_555
O50_3 Zn21_2 1_555 1_555
O51_3 Zn21_2 1_555 1_555
O52_2 Zn21_2 1_555 1_555
N28_2 C143_3 1_555 1_555
Zn16_2 N28_2 1_555 1_555
C126_3 C131_3 1_555 1_555
N21_3 Zn20_2 1_555 1_555
N26_3 C139_3 1_555 1_555
C144_3 N28_2 1_555 1_555
C75_4 O27_4 1_555 1_555
C78_4 O30_4 1_555 1_555
C79_4 C75_4 1_555 1_555
O31_4 C75_4 1_555 1_555
C82_4 C78_4 1_555 1_555
O34_4 C78_4 1_555 1_555
C84_4 C79_4 1_555 1_555
C85_4 C79_4 1_555 1_555
Zn17 O31_4 1_555 1_555
C90_4 C82_4 1_555 1_555
C91_4 C82_4 1_555 1_555
H53_4 C84_4 1_555 1_555
C93_4 C84_4 1_555 1_555
H54_4 C85_4 1_555 1_555
C94_4 C85_4 1_555 1_555
H59_4 C90_4 1_555 1_555
C99_4 C90_4 1_555 1_555
H60_4 C91_4 1_555 1_555
C100_4 C91_4 1_555 1_555
H61_4 C93_4 1_555 1_555
C103_4 C93_4 1_555 1_555
H62_4 C94_4 1_555 1_555
H67_4 C99_4 1_555 1_555
C106_4 C99_4 1_555 1_555
H68_4 C100_4 1_555 1_555
O35_4 C103_4 1_555 1_555
O38_4 C106_4 1_555 1_555
C109_4 O35_4 1_555 1_555
C112_4 O38_4 1_555 1_555
C113_4 C109_4 1_555 1_555
C114_4 C109_4 1_555 1_555
C119_4 C112_4 1_555 1_555
C120_4 C112_4 1_555 1_555
H73_4 C113_4 1_555 1_555
C121_4 C113_4 1_555 1_555
H74_4 C114_4 1_555 1_555
C122_4 C114_4 1_555 1_555
H79_4 C119_4 1_555 1_555
C127_4 C119_4 1_555 1_555
H80_4 C120_4 1_555 1_555
C128_4 C120_4 1_555 1_555
C129_4 C121_4 1_555 1_555
H82_4 C122_4 1_555 1_555
H87_4 C127_4 1_555 1_555
C132_4 C127_4 1_555 1_555
H88_4 C128_4 1_555 1_555
C133_4 C129_4 1_555 1_555
C136_4 C132_4 1_555 1_555
O40_4 C133_4 1_555 1_555
O45_4 C136_4 1_555 1_555
O46_4 C136_4 1_555 1_555
Zn24 O40_4 1_555 1_555
N22_4 Zn18 1_555 1_555
Zn15 O45_4 1_555 1_555
Zn16 O46_4 1_555 1_555
O50_4 Zn18 1_555 1_555
O34_4 Zn17 1_555 1_555
C94_4 C103_4 1_555 1_555
C100_4 C106_4 1_555 1_555
C122_4 C129_4 1_555 1_555
C128_4 C132_4 1_555 1_555
Zn13_4 N15_4 1_555 1_555
N15_4 C73_4 1_555 1_555
O28_4 Zn13_4 1_555 1_555
O29_4 Zn13_4 1_555 1_555
C73_4 N16_4 1_555 1_555
C74_4 N15_4 1_555 1_555
C76_4 O28_4 1_555 1_555
C77_4 O29_4 1_555 1_555
N16_4 H49_4 1_555 1_555
N17_4 C73_4 1_555 1_555
N18_4 C74_4 1_555 1_555
N19_4 C74_4 1_555 1_555
C80_4 C76_4 1_555 1_555
O32_4 C76_4 1_555 1_555
C81_4 C77_4 1_555 1_555
O33_4 C77_4 1_555 1_555
H50_4 N16_4 1_555 1_555
C83_4 N17_4 1_555 1_555
H51_4 N18_4 1_555 1_555
H52_4 N18_4 1_555 1_555
C86_4 C80_4 1_555 1_555
C87_4 C80_4 1_555 1_555
C88_4 C81_4 1_555 1_555
C89_4 C81_4 1_555 1_555
C92_4 C83_4 1_555 1_555
H55_4 C86_4 1_555 1_555
C95_4 C86_4 1_555 1_555
H56_4 C87_4 1_555 1_555
C96_4 C87_4 1_555 1_555
H57_4 C88_4 1_555 1_555
C97_4 C88_4 1_555 1_555
H58_4 C89_4 1_555 1_555
C98_4 C89_4 1_555 1_555
C101_4 C92_4 1_555 1_555
C102_4 C92_4 1_555 1_555
H63_4 C95_4 1_555 1_555
C104_4 C95_4 1_555 1_555
H64_4 C96_4 1_555 1_555
H65_4 C97_4 1_555 1_555
C105_4 C97_4 1_555 1_555
H66_4 C98_4 1_555 1_555
H69_4 C101_4 1_555 1_555
C107_4 C101_4 1_555 1_555
H70_4 C102_4 1_555 1_555
C108_4 C102_4 1_555 1_555
O36_4 C104_4 1_555 1_555
O37_4 C105_4 1_555 1_555
H71_4 C107_4 1_555 1_555
H72_4 C108_4 1_555 1_555
C110_4 O36_4 1_555 1_555
C111_4 O37_4 1_555 1_555
C115_4 C110_4 1_555 1_555
C116_4 C110_4 1_555 1_555
C117_4 C111_4 1_555 1_555
C118_4 C111_4 1_555 1_555
H75_4 C115_4 1_555 1_555
C123_4 C115_4 1_555 1_555
H76_4 C116_4 1_555 1_555
C124_4 C116_4 1_555 1_555
H77_4 C117_4 1_555 1_555
C125_4 C117_4 1_555 1_555
H78_4 C118_4 1_555 1_555
C126_4 C118_4 1_555 1_555
H83_4 C123_4 1_555 1_555
C130_4 C123_4 1_555 1_555
H84_4 C124_4 1_555 1_555
H85_4 C125_4 1_555 1_555
C131_4 C125_4 1_555 1_555
H86_4 C126_4 1_555 1_555
C134_4 C130_4 1_555 1_555
C135_4 C131_4 1_555 1_555
O41_3 C134_4 1_555 1_555
O42_3 C134_4 1_555 1_555
O43_4 C135_4 1_555 1_555
O44_4 C135_4 1_555 1_555
Zn15_3 O39_4 1_555 1_555
N21_4 C137_4 1_555 1_555
C137_4 N23_4 1_555 1_555
C138_4 N21_4 1_555 1_555
N23_4 H89_4 1_555 1_555
N24_4 C137_4 1_555 1_555
N25_4 C138_4 1_555 1_555
N26_4 C138_4 1_555 1_555
H90_4 N23_4 1_555 1_555
C139_4 N24_4 1_555 1_555
H91_4 N25_4 1_555 1_555
H92_4 N25_4 1_555 1_555
C140_4 C139_4 1_555 1_555
C141_4 C140_4 1_555 1_555
H93_4 C141_4 1_555 1_555
N27_3 C107_4 1_555 1_555
Zn17_3 N27_3 1_555 1_555
Zn23_2 O41_3 1_555 1_555
Zn22_2 O42_3 1_555 1_555
Zn19 O43_4 1_555 1_555
O47_4 Zn19 1_555 1_555
N19_4 C83_4 1_555 1_555
C96_4 C104_4 1_555 1_555
C98_4 C105_4 1_555 1_555
C108_4 N27_3 1_555 1_555
C124_4 C130_4 1_555 1_555
C126_4 C131_4 1_555 1_555
N21_4 Zn19 1_555 1_555
N26_4 C139_4 1_555 1_555
H94_4 C142_4 1_555 1_555
C144_4 C142_4 1_555 1_555
H95_4 C143_4 1_555 1_555
H96_4 C144_4 1_555 1_555
N22_3 C143_4 1_555 1_555
C144_4 N22_3 1_555 1_555
Zn13_5 N15_5 1_555 1_555
N15_5 C73_5 1_555 1_555
O27_5 Zn13_5 1_555 1_555
O28_5 Zn13_5 1_555 1_555
O29_5 Zn13_5 1_555 1_555
O30_5 Zn13_5 1_555 1_555
C73_5 N16_5 1_555 1_555
C74_5 N15_5 1_555 1_555
C75_5 O27_5 1_555 1_555
C76_5 O28_5 1_555 1_555
C77_5 O29_5 1_555 1_555
C78_5 O30_5 1_555 1_555
N16_5 H49_5 1_555 1_555
N17_5 C73_5 1_555 1_555
N18_5 C74_5 1_555 1_555
N19_5 C74_5 1_555 1_555
C79_5 C75_5 1_555 1_555
O31_5 C75_5 1_555 1_555
C80_5 C76_5 1_555 1_555
O32_5 C76_5 1_555 1_555
C81_5 C77_5 1_555 1_555
O33_5 C77_5 1_555 1_555
C82_5 C78_5 1_555 1_555
O34_5 C78_5 1_555 1_555
H50_5 N16_5 1_555 1_555
C83_5 N17_5 1_555 1_555
H51_5 N18_5 1_555 1_555
H52_5 N18_5 1_555 1_555
C84_5 C79_5 1_555 1_555
C85_5 C79_5 1_555 1_555
Zn17_3 O31_5 1_555 1_555
C86_5 C80_5 1_555 1_555
C87_5 C80_5 1_555 1_555
C88_5 C81_5 1_555 1_555
C89_5 C81_5 1_555 1_555
C90_5 C82_5 1_555 1_555
C91_5 C82_5 1_555 1_555
C92_5 C83_5 1_555 1_555
H53_5 C84_5 1_555 1_555
C93_5 C84_5 1_555 1_555
H54_5 C85_5 1_555 1_555
C94_5 C85_5 1_555 1_555
H55_5 C86_5 1_555 1_555
C95_5 C86_5 1_555 1_555
H56_5 C87_5 1_555 1_555
C96_5 C87_5 1_555 1_555
H57_5 C88_5 1_555 1_555
C97_5 C88_5 1_555 1_555
H58_5 C89_5 1_555 1_555
C98_5 C89_5 1_555 1_555
H59_5 C90_5 1_555 1_555
C99_5 C90_5 1_555 1_555
H60_5 C91_5 1_555 1_555
C100_5 C91_5 1_555 1_555
C101_5 C92_5 1_555 1_555
C102_5 C92_5 1_555 1_555
H61_5 C93_5 1_555 1_555
C103_5 C93_5 1_555 1_555
H62_5 C94_5 1_555 1_555
H63_5 C95_5 1_555 1_555
C104_5 C95_5 1_555 1_555
H64_5 C96_5 1_555 1_555
H65_5 C97_5 1_555 1_555
C105_5 C97_5 1_555 1_555
H66_5 C98_5 1_555 1_555
H67_5 C99_5 1_555 1_555
C106_5 C99_5 1_555 1_555
H68_5 C100_5 1_555 1_555
H69_5 C101_5 1_555 1_555
C107_5 C101_5 1_555 1_555
H70_5 C102_5 1_555 1_555
C108_5 C102_5 1_555 1_555
O35_5 C103_5 1_555 1_555
O36_5 C104_5 1_555 1_555
O37_5 C105_5 1_555 1_555
O38_5 C106_5 1_555 1_555
H71_5 C107_5 1_555 1_555
H72_5 C108_5 1_555 1_555
C109_5 O35_5 1_555 1_555
C110_5 O36_5 1_555 1_555
C111_5 O37_5 1_555 1_555
C112_5 O38_5 1_555 1_555
C113_5 C109_5 1_555 1_555
C114_5 C109_5 1_555 1_555
C115_5 C110_5 1_555 1_555
C116_5 C110_5 1_555 1_555
C117_5 C111_5 1_555 1_555
C118_5 C111_5 1_555 1_555
C119_5 C112_5 1_555 1_555
C120_5 C112_5 1_555 1_555
H73_5 C113_5 1_555 1_555
C121_5 C113_5 1_555 1_555
H74_5 C114_5 1_555 1_555
C122_5 C114_5 1_555 1_555
H75_5 C115_5 1_555 1_555
C123_5 C115_5 1_555 1_555
H76_5 C116_5 1_555 1_555
C124_5 C116_5 1_555 1_555
H77_5 C117_5 1_555 1_555
C125_5 C117_5 1_555 1_555
H78_5 C118_5 1_555 1_555
C126_5 C118_5 1_555 1_555
H79_5 C119_5 1_555 1_555
C127_5 C119_5 1_555 1_555
H80_5 C120_5 1_555 1_555
C128_5 C120_5 1_555 1_555
H81_5 C121_5 1_555 1_555
C129_5 C121_5 1_555 1_555
H82_5 C122_5 1_555 1_555
H83_5 C123_5 1_555 1_555
C130_5 C123_5 1_555 1_555
H84_5 C124_5 1_555 1_555
H85_5 C125_5 1_555 1_555
C131_5 C125_5 1_555 1_555
H86_5 C126_5 1_555 1_555
H87_5 C127_5 1_555 1_555
C132_5 C127_5 1_555 1_555
H88_5 C128_5 1_555 1_555
C133_5 C129_5 1_555 1_555
C134_5 C130_5 1_555 1_555
C135_5 C131_5 1_555 1_555
C136_5 C132_5 1_555 1_555
O47_3 C133_5 1_555 1_555
O50_3 C133_5 1_555 1_555
O41_4 C134_5 1_555 1_555
O42_4 C134_5 1_555 1_555
O43_5 C135_5 1_555 1_555
O44_5 C135_5 1_555 1_555
O45_5 C136_5 1_555 1_555
O46_5 C136_5 1_555 1_555
N21_5 C137_5 1_555 1_555
N22_5 Zn23_2 1_555 1_555
C137_5 N23_5 1_555 1_555
C138_5 N21_5 1_555 1_555
N23_5 H89_5 1_555 1_555
N24_5 C137_5 1_555 1_555
N25_5 C138_5 1_555 1_555
N26_5 C138_5 1_555 1_555
H90_5 N23_5 1_555 1_555
C139_5 N24_5 1_555 1_555
H91_5 N25_5 1_555 1_555
H92_5 N25_5 1_555 1_555
C140_5 C139_5 1_555 1_555
C141_5 C140_5 1_555 1_555
C142_5 C140_5 1_555 1_555
H93_5 C141_5 1_555 1_555
C143_5 C141_5 1_555 1_555
H94_5 C142_5 1_555 1_555
C144_5 C142_5 1_555 1_555
H95_5 C143_5 1_555 1_555
H96_5 C144_5 1_555 1_555
N27_4 C107_5 1_555 1_555
Zn17_4 N27_4 1_555 1_555
Zn16_2 O41_4 1_555 1_555
Zn15_2 O42_4 1_555 1_555
Zn22_2 O43_5 1_555 1_555
Zn23_2 O44_5 1_555 1_555
Zn15_3 O45_5 1_555 1_555
N22_2 C143_5 1_555 1_555
N19_5 C83_5 1_555 1_555
O32_5 Zn17_3 1_555 1_555
O33_5 Zn17_3 1_555 1_555
O34_5 Zn17_3 1_555 1_555
C94_5 C103_5 1_555 1_555
C96_5 C104_5 1_555 1_555
C98_5 C105_5 1_555 1_555
C100_5 C106_5 1_555 1_555
C108_5 N27_4 1_555 1_555
C122_5 C129_5 1_555 1_555
C124_5 C130_5 1_555 1_555
C126_5 C131_5 1_555 1_555
C128_5 C132_5 1_555 1_555
N21_5 Zn22_2 1_555 1_555
N26_5 C139_5 1_555 1_555
C144_5 N22_2 1_555 1_555
C113_6 C109_6 1_555 1_555
C114_6 C109_6 1_555 1_555
H73_6 C113_6 1_555 1_555
C121_6 C113_6 1_555 1_555
H74_6 C114_6 1_555 1_555
C122_6 C114_6 1_555 1_555
C129_6 C121_6 1_555 1_555
H82_6 C122_6 1_555 1_555
C133_6 C129_6 1_555 1_555
O50_4 C133_6 1_555 1_555
C122_6 C129_6 1_555 1_555
C73_6 N16_6 1_555 1_555
N16_6 H49_6 1_555 1_555
N17_6 C73_6 1_555 1_555
C83_6 N17_6 1_555 1_555
C92_6 C83_6 1_555 1_555
C101_6 C92_6 1_555 1_555
C102_6 C92_6 1_555 1_555
H69_6 C101_6 1_555 1_555
C107_6 C101_6 1_555 1_555
H70_6 C102_6 1_555 1_555
C108_6 C102_6 1_555 1_555
H71_6 C107_6 1_555 1_555
H72_6 C108_6 1_555 1_555
N20_3 C107_6 1_555 1_555
C108_6 N20_3 1_555 1_555
C127_6 C119_6 1_555 1_555
H80_6 C120_6 1_555 1_555
C128_6 C120_6 1_555 1_555
H87_6 C127_6 1_555 1_555
C132_6 C127_6 1_555 1_555
H88_6 C128_6 1_555 1_555
C136_6 C132_6 1_555 1_555
O49 C136_6 1_555 1_555
O52 C136_6 1_555 1_555
O51_4 Zn24 1_555 1_555
C128_6 C132_6 1_555 1_555
C111_6 O37_6 1_555 1_555
C117_6 C111_6 1_555 1_555
C118_6 C111_6 1_555 1_555
H77_6 C117_6 1_555 1_555
C125_6 C117_6 1_555 1_555
H78_6 C118_6 1_555 1_555
C126_6 C118_6 1_555 1_555
H85_6 C125_6 1_555 1_555
C131_6 C125_6 1_555 1_555
H86_6 C126_6 1_555 1_555
C135_6 C131_6 1_555 1_555
O43_6 C135_6 1_555 1_555
O44_6 C135_6 1_555 1_555
N21_6 C137_6 1_555 1_555
C137_6 N23_6 1_555 1_555
C138_6 N21_6 1_555 1_555
N23_6 H89_6 1_555 1_555
N24_6 C137_6 1_555 1_555
N25_6 C138_6 1_555 1_555
N26_6 C138_6 1_555 1_555
H90_6 N23_6 1_555 1_555
C139_6 N24_6 1_555 1_555
H91_6 N25_6 1_555 1_555
H92_6 N25_6 1_555 1_555
C140_6 C139_6 1_555 1_555
C141_6 C140_6 1_555 1_555
C142_6 C140_6 1_555 1_555
H93_6 C141_6 1_555 1_555
C143_6 C141_6 1_555 1_555
H94_6 C142_6 1_555 1_555
C144_6 C142_6 1_555 1_555
H95_6 C143_6 1_555 1_555
H96_6 C144_6 1_555 1_555
Zn15_3 O43_6 1_555 1_555
O48_4 Zn15_3 1_555 1_555
N22_5 C143_6 1_555 1_555
C126_6 C131_6 1_555 1_555
N21_6 Zn15_3 1_555 1_555
N26_6 C139_6 1_555 1_555
C144_6 N22_5 1_555 1_555
C75_6 O27_6 1_555 1_555
C78_6 O30_6 1_555 1_555
C79_6 C75_6 1_555 1_555
O31_6 C75_6 1_555 1_555
C82_6 C78_6 1_555 1_555
O34_6 C78_6 1_555 1_555
C84_6 C79_6 1_555 1_555
C85_6 C79_6 1_555 1_555
Zn14_4 O31_6 1_555 1_555
C90_6 C82_6 1_555 1_555
C91_6 C82_6 1_555 1_555
H53_6 C84_6 1_555 1_555
C93_6 C84_6 1_555 1_555
H54_6 C85_6 1_555 1_555
C94_6 C85_6 1_555 1_555
N20_4 Zn14_4 1_555 1_555
H59_6 C90_6 1_555 1_555
C99_6 C90_6 1_555 1_555
H60_6 C91_6 1_555 1_555
C100_6 C91_6 1_555 1_555
C103_6 C93_6 1_555 1_555
H62_6 C94_6 1_555 1_555
H67_6 C99_6 1_555 1_555
C106_6 C99_6 1_555 1_555
H68_6 C100_6 1_555 1_555
O35_6 C103_6 1_555 1_555
O38_6 C106_6 1_555 1_555
C112_6 O38_6 1_555 1_555
O34_6 Zn14_4 1_555 1_555
C94_6 C103_6 1_555 1_555
C100_6 C106_6 1_555 1_555
Zn13_6 N15_6 1_555 1_555
O28_6 Zn13_6 1_555 1_555
O29_6 Zn13_6 1_555 1_555
C74_6 N15_6 1_555 1_555
C76_6 O28_6 1_555 1_555
C77_6 O29_6 1_555 1_555
N18_6 C74_6 1_555 1_555
N19_6 C74_6 1_555 1_555
C80_6 C76_6 1_555 1_555
O32_6 C76_6 1_555 1_555
C81_6 C77_6 1_555 1_555
O33_6 C77_6 1_555 1_555
H51_6 N18_6 1_555 1_555
H52_6 N18_6 1_555 1_555
C86_6 C80_6 1_555 1_555
C87_6 C80_6 1_555 1_555
C88_6 C81_6 1_555 1_555
C89_6 C81_6 1_555 1_555
H55_6 C86_6 1_555 1_555
C95_6 C86_6 1_555 1_555
H56_6 C87_6 1_555 1_555
C96_6 C87_6 1_555 1_555
H57_6 C88_6 1_555 1_555
C97_6 C88_6 1_555 1_555
H58_6 C89_6 1_555 1_555
C98_6 C89_6 1_555 1_555
H63_6 C95_6 1_555 1_555
C104_6 C95_6 1_555 1_555
H64_6 C96_6 1_555 1_555
H65_6 C97_6 1_555 1_555
C105_6 C97_6 1_555 1_555
H66_6 C98_6 1_555 1_555
O36_6 C104_6 1_555 1_555
C110_6 O36_6 1_555 1_555
C115_6 C110_6 1_555 1_555
C116_6 C110_6 1_555 1_555
H75_6 C115_6 1_555 1_555
C123_6 C115_6 1_555 1_555
H76_6 C116_6 1_555 1_555
C124_6 C116_6 1_555 1_555
H83_6 C123_6 1_555 1_555
C130_6 C123_6 1_555 1_555
H84_6 C124_6 1_555 1_555
C134_6 C130_6 1_555 1_555
O51_3 C134_6 1_555 1_555
O48_3 C134_6 1_555 1_555
C96_6 C104_6 1_555 1_555
C98_6 C105_6 1_555 1_555
C124_6 C130_6 1_555 1_555
O35_7 C103_7 1_555 1_555
C109_7 O35_7 1_555 1_555
C113_7 C109_7 1_555 1_555
C114_7 C109_7 1_555 1_555
H73_7 C113_7 1_555 1_555
C121_7 C113_7 1_555 1_555
H74_7 C114_7 1_555 1_555
C122_7 C114_7 1_555 1_555
C123_7 C115_7 1_555 1_555
H76_7 C116_7 1_555 1_555
C124_7 C116_7 1_555 1_555
H81_7 C121_7 1_555 1_555
C129_7 C121_7 1_555 1_555
H82_7 C122_7 1_555 1_555
C130_7 C123_7 1_555 1_555
H84_7 C124_7 1_555 1_555
C133_7 C129_7 1_555 1_555
C134_7 C130_7 1_555 1_555
O47 C133_7 1_555 1_555
O50 C133_7 1_555 1_555
O51_4 C134_7 1_555 1_555
C122_7 C129_7 1_555 1_555
C124_7 C130_7 1_555 1_555
Zn13_7 N15_7 1_555 1_555
N15_7 C73_7 1_555 1_555
O27_7 Zn13_7 1_555 1_555
O28_7 Zn13_7 1_555 1_555
O29_7 Zn13_7 1_555 1_555
O30_7 Zn13_7 1_555 1_555
C73_7 N16_7 1_555 1_555
C74_7 N15_7 1_555 1_555
C75_7 O27_7 1_555 1_555
C76_7 O28_7 1_555 1_555
C77_7 O29_7 1_555 1_555
C78_7 O30_7 1_555 1_555
N16_7 H49_7 1_555 1_555
N17_7 C73_7 1_555 1_555
N18_7 C74_7 1_555 1_555
N19_7 C74_7 1_555 1_555
C79_7 C75_7 1_555 1_555
O31_7 C75_7 1_555 1_555
C80_7 C76_7 1_555 1_555
O32_7 C76_7 1_555 1_555
C81_7 C77_7 1_555 1_555
O33_7 C77_7 1_555 1_555
C82_7 C78_7 1_555 1_555
O34_7 C78_7 1_555 1_555
H50_7 N16_7 1_555 1_555
C83_7 N17_7 1_555 1_555
H51_7 N18_7 1_555 1_555
H52_7 N18_7 1_555 1_555
C84_7 C79_7 1_555 1_555
C85_7 C79_7 1_555 1_555
Zn17_2 O31_7 1_555 1_555
C86_7 C80_7 1_555 1_555
C87_7 C80_7 1_555 1_555
C88_7 C81_7 1_555 1_555
C89_7 C81_7 1_555 1_555
C90_7 C82_7 1_555 1_555
C91_7 C82_7 1_555 1_555
C92_7 C83_7 1_555 1_555
H53_7 C84_7 1_555 1_555
C93_7 C84_7 1_555 1_555
H54_7 C85_7 1_555 1_555
C94_7 C85_7 1_555 1_555
H55_7 C86_7 1_555 1_555
C95_7 C86_7 1_555 1_555
H56_7 C87_7 1_555 1_555
C96_7 C87_7 1_555 1_555
H57_7 C88_7 1_555 1_555
C97_7 C88_7 1_555 1_555
H58_7 C89_7 1_555 1_555
C98_7 C89_7 1_555 1_555
H59_7 C90_7 1_555 1_555
C99_7 C90_7 1_555 1_555
H60_7 C91_7 1_555 1_555
C100_7 C91_7 1_555 1_555
C101_7 C92_7 1_555 1_555
C102_7 C92_7 1_555 1_555
H61_7 C93_7 1_555 1_555
H63_7 C95_7 1_555 1_555
C104_7 C95_7 1_555 1_555
H64_7 C96_7 1_555 1_555
H65_7 C97_7 1_555 1_555
C105_7 C97_7 1_555 1_555
H66_7 C98_7 1_555 1_555
H67_7 C99_7 1_555 1_555
C106_7 C99_7 1_555 1_555
H68_7 C100_7 1_555 1_555
H69_7 C101_7 1_555 1_555
C107_7 C101_7 1_555 1_555
H70_7 C102_7 1_555 1_555
C108_7 C102_7 1_555 1_555
O36_7 C104_7 1_555 1_555
O37_7 C105_7 1_555 1_555
O38_7 C106_7 1_555 1_555
H71_7 C107_7 1_555 1_555
H72_7 C108_7 1_555 1_555
C110_7 O36_7 1_555 1_555
C111_7 O37_7 1_555 1_555
C112_7 O38_7 1_555 1_555
C117_7 C111_7 1_555 1_555
C118_7 C111_7 1_555 1_555
C119_7 C112_7 1_555 1_555
C120_7 C112_7 1_555 1_555
H77_7 C117_7 1_555 1_555
C125_7 C117_7 1_555 1_555
H78_7 C118_7 1_555 1_555
C126_7 C118_7 1_555 1_555
H79_7 C119_7 1_555 1_555
C127_7 C119_7 1_555 1_555
H80_7 C120_7 1_555 1_555
C128_7 C120_7 1_555 1_555
H85_7 C125_7 1_555 1_555
C131_7 C125_7 1_555 1_555
H86_7 C126_7 1_555 1_555
H87_7 C127_7 1_555 1_555
C132_7 C127_7 1_555 1_555
H88_7 C128_7 1_555 1_555
C135_7 C131_7 1_555 1_555
C136_7 C132_7 1_555 1_555
O43_7 C135_7 1_555 1_555
O44_7 C135_7 1_555 1_555
O45_6 C136_7 1_555 1_555
O46_6 C136_7 1_555 1_555
N21_7 C137_7 1_555 1_555
N22_6 Zn16 1_555 1_555
C137_7 N23_7 1_555 1_555
C138_7 N21_7 1_555 1_555
N23_7 H89_7 1_555 1_555
N24_7 C137_7 1_555 1_555
N25_7 C138_7 1_555 1_555
N26_7 C138_7 1_555 1_555
H90_7 N23_7 1_555 1_555
C139_7 N24_7 1_555 1_555
H91_7 N25_7 1_555 1_555
H92_7 N25_7 1_555 1_555
C140_7 C139_7 1_555 1_555
C141_7 C140_7 1_555 1_555
C142_7 C140_7 1_555 1_555
H93_7 C141_7 1_555 1_555
C143_7 C141_7 1_555 1_555
H94_7 C142_7 1_555 1_555
C144_7 C142_7 1_555 1_555
H95_7 C143_7 1_555 1_555
H96_7 C144_7 1_555 1_555
N20_4 C107_7 1_555 1_555
Zn15 O43_7 1_555 1_555
Zn16 O44_7 1_555 1_555
Zn15_2 O45_6 1_555 1_555
Zn16_2 O46_6 1_555 1_555
N22_4 C143_7 1_555 1_555
N19_7 C83_7 1_555 1_555
O32_7 Zn17_2 1_555 1_555
O33_7 Zn17_2 1_555 1_555
O34_7 Zn17_2 1_555 1_555
C96_7 C104_7 1_555 1_555
C98_7 C105_7 1_555 1_555
C100_7 C106_7 1_555 1_555
C108_7 N20_4 1_555 1_555
C126_7 C131_7 1_555 1_555
C128_7 C132_7 1_555 1_555
N21_7 Zn15 1_555 1_555
N26_7 C139_7 1_555 1_555
C144_7 N22_4 1_555 1_555
C73_8 N16_8 1_555 1_555
N16_8 H49_8 1_555 1_555
N17_8 C73_8 1_555 1_555
C83_8 N17_8 1_555 1_555
C92_8 C83_8 1_555 1_555
C101_8 C92_8 1_555 1_555
C102_8 C92_8 1_555 1_555
H69_8 C101_8 1_555 1_555
C107_8 C101_8 1_555 1_555
H70_8 C102_8 1_555 1_555
C108_8 C102_8 1_555 1_555
H71_8 C107_8 1_555 1_555
H72_8 C108_8 1_555 1_555
C113_8 C109_8 1_555 1_555
C114_8 C109_8 1_555 1_555
H73_8 C113_8 1_555 1_555
C121_8 C113_8 1_555 1_555
H74_8 C114_8 1_555 1_555
C122_8 C114_8 1_555 1_555
H81_8 C121_8 1_555 1_555
C129_8 C121_8 1_555 1_555
H82_8 C122_8 1_555 1_555
C133_8 C129_8 1_555 1_555
O47_2 C133_8 1_555 1_555
O50_2 C133_8 1_555 1_555
N20 C107_8 1_555 1_555
C108_8 N20 1_555 1_555
C122_8 C129_8 1_555 1_555
Zn13_8 N15_8 1_555 1_555
O27_8 Zn13_8 1_555 1_555
O28_8 Zn13_8 1_555 1_555
O29_8 Zn13_8 1_555 1_555
O30_8 Zn13_8 1_555 1_555
C74_8 N15_8 1_555 1_555
C75_8 O27_8 1_555 1_555
C76_8 O28_8 1_555 1_555
C77_8 O29_8 1_555 1_555
C78_8 O30_8 1_555 1_555
N18_8 C74_8 1_555 1_555
N19_8 C74_8 1_555 1_555
C79_8 C75_8 1_555 1_555
O31_8 C75_8 1_555 1_555
C80_8 C76_8 1_555 1_555
O32_8 C76_8 1_555 1_555
C81_8 C77_8 1_555 1_555
O33_8 C77_8 1_555 1_555
C82_8 C78_8 1_555 1_555
O34_8 C78_8 1_555 1_555
H51_8 N18_8 1_555 1_555
H52_8 N18_8 1_555 1_555
C84_8 C79_8 1_555 1_555
C85_8 C79_8 1_555 1_555
Zn17_4 O31_8 1_555 1_555
C86_8 C80_8 1_555 1_555
C87_8 C80_8 1_555 1_555
C88_8 C81_8 1_555 1_555
C89_8 C81_8 1_555 1_555
C90_8 C82_8 1_555 1_555
C91_8 C82_8 1_555 1_555
H53_8 C84_8 1_555 1_555
C93_8 C84_8 1_555 1_555
H54_8 C85_8 1_555 1_555
C94_8 C85_8 1_555 1_555
H55_8 C86_8 1_555 1_555
C95_8 C86_8 1_555 1_555
H56_8 C87_8 1_555 1_555
C96_8 C87_8 1_555 1_555
H57_8 C88_8 1_555 1_555
C97_8 C88_8 1_555 1_555
H58_8 C89_8 1_555 1_555
C98_8 C89_8 1_555 1_555
H59_8 C90_8 1_555 1_555
C99_8 C90_8 1_555 1_555
H60_8 C91_8 1_555 1_555
C100_8 C91_8 1_555 1_555
C103_8 C93_8 1_555 1_555
H62_8 C94_8 1_555 1_555
H63_8 C95_8 1_555 1_555
C104_8 C95_8 1_555 1_555
H64_8 C96_8 1_555 1_555
H65_8 C97_8 1_555 1_555
C105_8 C97_8 1_555 1_555
H66_8 C98_8 1_555 1_555
H67_8 C99_8 1_555 1_555
C106_8 C99_8 1_555 1_555
H68_8 C100_8 1_555 1_555
O35_8 C103_8 1_555 1_555
O36_8 C104_8 1_555 1_555
O37_8 C105_8 1_555 1_555
O38_8 C106_8 1_555 1_555
C110_8 O36_8 1_555 1_555
C111_8 O37_8 1_555 1_555
C112_8 O38_8 1_555 1_555
C115_8 C110_8 1_555 1_555
C116_8 C110_8 1_555 1_555
C117_8 C111_8 1_555 1_555
C118_8 C111_8 1_555 1_555
C119_8 C112_8 1_555 1_555
C120_8 C112_8 1_555 1_555
H75_8 C115_8 1_555 1_555
C123_8 C115_8 1_555 1_555
H76_8 C116_8 1_555 1_555
C124_8 C116_8 1_555 1_555
H77_8 C117_8 1_555 1_555
C125_8 C117_8 1_555 1_555
H78_8 C118_8 1_555 1_555
C126_8 C118_8 1_555 1_555
H79_8 C119_8 1_555 1_555
C127_8 C119_8 1_555 1_555
H80_8 C120_8 1_555 1_555
C128_8 C120_8 1_555 1_555
H83_8 C123_8 1_555 1_555
C130_8 C123_8 1_555 1_555
H84_8 C124_8 1_555 1_555
H85_8 C125_8 1_555 1_555
C131_8 C125_8 1_555 1_555
H86_8 C126_8 1_555 1_555
H87_8 C127_8 1_555 1_555
C132_8 C127_8 1_555 1_555
H88_8 C128_8 1_555 1_555
C134_8 C130_8 1_555 1_555
C135_8 C131_8 1_555 1_555
C136_8 C132_8 1_555 1_555
O51 C134_8 1_555 1_555
O48 C134_8 1_555 1_555
O43_8 C135_8 1_555 1_555
O44_8 C135_8 1_555 1_555
O49_2 C136_8 1_555 1_555
O52_2 C136_8 1_555 1_555
N21_8 C137_8 1_555 1_555
C137_8 N23_8 1_555 1_555
C138_8 N21_8 1_555 1_555
N23_8 H89_8 1_555 1_555
N24_8 C137_8 1_555 1_555
N25_8 C138_8 1_555 1_555
N26_8 C138_8 1_555 1_555
H90_8 N23_8 1_555 1_555
C139_8 N24_8 1_555 1_555
H91_8 N25_8 1_555 1_555
H92_8 N25_8 1_555 1_555
C140_8 C139_8 1_555 1_555
C141_8 C140_8 1_555 1_555
C142_8 C140_8 1_555 1_555
H93_8 C141_8 1_555 1_555
C143_8 C141_8 1_555 1_555
H94_8 C142_8 1_555 1_555
C144_8 C142_8 1_555 1_555
H95_8 C143_8 1_555 1_555
H96_8 C144_8 1_555 1_555
Zn15_2 O43_8 1_555 1_555
Zn16_2 O44_8 1_555 1_555
N22_6 C143_8 1_555 1_555
O32_8 Zn17_4 1_555 1_555
O33_8 Zn17_4 1_555 1_555
O34_8 Zn17_4 1_555 1_555
C94_8 C103_8 1_555 1_555
C96_8 C104_8 1_555 1_555
C98_8 C105_8 1_555 1_555
C100_8 C106_8 1_555 1_555
C124_8 C130_8 1_555 1_555
C126_8 C131_8 1_555 1_555
C128_8 C132_8 1_555 1_555
N21_8 Zn15_2 1_555 1_555
N26_8 C139_8 1_555 1_555
C144_8 N22_6 1_555 1_555
H77_9 C117_9 1_555 1_555
C125_9 C117_9 1_555 1_555
H85_9 C125_9 1_555 1_555
C131_9 C125_9 1_555 1_555
H86_9 C126_9 1_555 1_555
C135_9 C131_9 1_555 1_555
O43_9 C135_9 1_555 1_555
O44_9 C135_9 1_555 1_555
N21_9 C137_9 1_555 1_555
N22_7 Zn21_3 1_555 1_555
C137_9 N23_9 1_555 1_555
C138_9 N21_9 1_555 1_555
N23_9 H89_9 1_555 1_555
N24_9 C137_9 1_555 1_555
N25_9 C138_9 1_555 1_555
N26_9 C138_9 1_555 1_555
H90_9 N23_9 1_555 1_555
C139_9 N24_9 1_555 1_555
H91_9 N25_9 1_555 1_555
H92_9 N25_9 1_555 1_555
C140_9 C139_9 1_555 1_555
C141_9 C140_9 1_555 1_555
C142_9 C140_9 1_555 1_555
H93_9 C141_9 1_555 1_555
C143_9 C141_9 1_555 1_555
H94_9 C142_9 1_555 1_555
C144_9 C142_9 1_555 1_555
H95_9 C143_9 1_555 1_555
H96_9 C144_9 1_555 1_555
Zn20_3 O43_9 1_555 1_555
Zn21_3 O44_9 1_555 1_555
O47_5 Zn20_3 1_555 1_555
O48_5 Zn20_3 1_555 1_555
O49_3 Zn20_3 1_555 1_555
O50_5 Zn21_3 1_555 1_555
O51_5 Zn21_3 1_555 1_555
O52_3 Zn21_3 1_555 1_555
N28_3 C143_9 1_555 1_555
Zn24_2 N28_3 1_555 1_555
C126_9 C131_9 1_555 1_555
N21_9 Zn20_3 1_555 1_555
N26_9 C139_9 1_555 1_555
C144_9 N28_3 1_555 1_555
Zn13_9 N15_9 1_555 1_555
N15_9 C73_9 1_555 1_555
O27_9 Zn13_9 1_555 1_555
O28_9 Zn13_9 1_555 1_555
O29_9 Zn13_9 1_555 1_555
O30_9 Zn13_9 1_555 1_555
C73_9 N16_9 1_555 1_555
C74_9 N15_9 1_555 1_555
C75_9 O27_9 1_555 1_555
C76_9 O28_9 1_555 1_555
C77_9 O29_9 1_555 1_555
C78_9 O30_9 1_555 1_555
N16_9 H49_9 1_555 1_555
N17_9 C73_9 1_555 1_555
N18_9 C74_9 1_555 1_555
N19_9 C74_9 1_555 1_555
C79_9 C75_9 1_555 1_555
O31_9 C75_9 1_555 1_555
C80_9 C76_9 1_555 1_555
O32_9 C76_9 1_555 1_555
C81_9 C77_9 1_555 1_555
O33_9 C77_9 1_555 1_555
C82_9 C78_9 1_555 1_555
O34_9 C78_9 1_555 1_555
H50_9 N16_9 1_555 1_555
C83_9 N17_9 1_555 1_555
H51_9 N18_9 1_555 1_555
H52_9 N18_9 1_555 1_555
C84_9 C79_9 1_555 1_555
C85_9 C79_9 1_555 1_555
Zn14_5 O31_9 1_555 1_555
C86_9 C80_9 1_555 1_555
C87_9 C80_9 1_555 1_555
C88_9 C81_9 1_555 1_555
C89_9 C81_9 1_555 1_555
C90_9 C82_9 1_555 1_555
C91_9 C82_9 1_555 1_555
C92_9 C83_9 1_555 1_555
H53_9 C84_9 1_555 1_555
C93_9 C84_9 1_555 1_555
H54_9 C85_9 1_555 1_555
C94_9 C85_9 1_555 1_555
N20_5 Zn14_5 1_555 1_555
H55_9 C86_9 1_555 1_555
C95_9 C86_9 1_555 1_555
H56_9 C87_9 1_555 1_555
C96_9 C87_9 1_555 1_555
H57_9 C88_9 1_555 1_555
C97_9 C88_9 1_555 1_555
H58_9 C89_9 1_555 1_555
C98_9 C89_9 1_555 1_555
H59_9 C90_9 1_555 1_555
C99_9 C90_9 1_555 1_555
H60_9 C91_9 1_555 1_555
C100_9 C91_9 1_555 1_555
C101_9 C92_9 1_555 1_555
C102_9 C92_9 1_555 1_555
H61_9 C93_9 1_555 1_555
C103_9 C93_9 1_555 1_555
H62_9 C94_9 1_555 1_555
H63_9 C95_9 1_555 1_555
C104_9 C95_9 1_555 1_555
H64_9 C96_9 1_555 1_555
H65_9 C97_9 1_555 1_555
C105_9 C97_9 1_555 1_555
H66_9 C98_9 1_555 1_555
H67_9 C99_9 1_555 1_555
C106_9 C99_9 1_555 1_555
H68_9 C100_9 1_555 1_555
H69_9 C101_9 1_555 1_555
C107_9 C101_9 1_555 1_555
H70_9 C102_9 1_555 1_555
C108_9 C102_9 1_555 1_555
O35_9 C103_9 1_555 1_555
O36_9 C104_9 1_555 1_555
O37_9 C105_9 1_555 1_555
O38_9 C106_9 1_555 1_555
H71_9 C107_9 1_555 1_555
H72_9 C108_9 1_555 1_555
C109_9 O35_9 1_555 1_555
C110_9 O36_9 1_555 1_555
C111_9 O37_9 1_555 1_555
C112_9 O38_9 1_555 1_555
C113_9 C109_9 1_555 1_555
C114_9 C109_9 1_555 1_555
C115_9 C110_9 1_555 1_555
C116_9 C110_9 1_555 1_555
C118_9 C111_9 1_555 1_555
C119_9 C112_9 1_555 1_555
C120_9 C112_9 1_555 1_555
H73_9 C113_9 1_555 1_555
C121_9 C113_9 1_555 1_555
H74_9 C114_9 1_555 1_555
C122_9 C114_9 1_555 1_555
H75_9 C115_9 1_555 1_555
C123_9 C115_9 1_555 1_555
H76_9 C116_9 1_555 1_555
C124_9 C116_9 1_555 1_555
H78_9 C118_9 1_555 1_555
H79_9 C119_9 1_555 1_555
C127_9 C119_9 1_555 1_555
H80_9 C120_9 1_555 1_555
C128_9 C120_9 1_555 1_555
H81_9 C121_9 1_555 1_555
C129_9 C121_9 1_555 1_555
H82_9 C122_9 1_555 1_555
C130_9 C123_9 1_555 1_555
H84_9 C124_9 1_555 1_555
H87_9 C127_9 1_555 1_555
C132_9 C127_9 1_555 1_555
H88_9 C128_9 1_555 1_555
C133_9 C129_9 1_555 1_555
C134_9 C130_9 1_555 1_555
C136_9 C132_9 1_555 1_555
O39_5 C133_9 1_555 1_555
O40_5 C133_9 1_555 1_555
O41_5 C134_9 1_555 1_555
O45_7 C136_9 1_555 1_555
O46_7 C136_9 1_555 1_555
Zn15_4 O39_5 1_555 1_555
Zn16_3 O40_5 1_555 1_555
N27_5 C107_9 1_555 1_555
Zn17_5 N27_5 1_555 1_555
Zn18_2 O41_5 1_555 1_555
Zn22_3 O45_7 1_555 1_555
Zn23_3 O46_7 1_555 1_555
N19_9 C83_9 1_555 1_555
O32_9 Zn14_5 1_555 1_555
O33_9 Zn14_5 1_555 1_555
O34_9 Zn14_5 1_555 1_555
C94_9 C103_9 1_555 1_555
C96_9 C104_9 1_555 1_555
C98_9 C105_9 1_555 1_555
C100_9 C106_9 1_555 1_555
C108_9 N27_5 1_555 1_555
C122_9 C129_9 1_555 1_555
C124_9 C130_9 1_555 1_555
C128_9 C132_9 1_555 1_555
Zn19_2 O42_5 1_555 1_555
Zn13_10 N15_10 1_555 1_555
O27_10 Zn13_10 1_555 1_555
O28_10 Zn13_10 1_555 1_555
O29_10 Zn13_10 1_555 1_555
O30_10 Zn13_10 1_555 1_555
C74_10 N15_10 1_555 1_555
C75_10 O27_10 1_555 1_555
C76_10 O28_10 1_555 1_555
C77_10 O29_10 1_555 1_555
C78_10 O30_10 1_555 1_555
N18_10 C74_10 1_555 1_555
N19_10 C74_10 1_555 1_555
C79_10 C75_10 1_555 1_555
O31_10 C75_10 1_555 1_555
C80_10 C76_10 1_555 1_555
O32_10 C76_10 1_555 1_555
C81_10 C77_10 1_555 1_555
O33_10 C77_10 1_555 1_555
C82_10 C78_10 1_555 1_555
O34_10 C78_10 1_555 1_555
H51_10 N18_10 1_555 1_555
H52_10 N18_10 1_555 1_555
C84_10 C79_10 1_555 1_555
C85_10 C79_10 1_555 1_555
Zn14_6 O31_10 1_555 1_555
C86_10 C80_10 1_555 1_555
C87_10 C80_10 1_555 1_555
C88_10 C81_10 1_555 1_555
C89_10 C81_10 1_555 1_555
C90_10 C82_10 1_555 1_555
C91_10 C82_10 1_555 1_555
H53_10 C84_10 1_555 1_555
C93_10 C84_10 1_555 1_555
H54_10 C85_10 1_555 1_555
C94_10 C85_10 1_555 1_555
N20_6 Zn14_6 1_555 1_555
H55_10 C86_10 1_555 1_555
C95_10 C86_10 1_555 1_555
H56_10 C87_10 1_555 1_555
C96_10 C87_10 1_555 1_555
H57_10 C88_10 1_555 1_555
C97_10 C88_10 1_555 1_555
H58_10 C89_10 1_555 1_555
C98_10 C89_10 1_555 1_555
H59_10 C90_10 1_555 1_555
C99_10 C90_10 1_555 1_555
H60_10 C91_10 1_555 1_555
C100_10 C91_10 1_555 1_555
C103_10 C93_10 1_555 1_555
H62_10 C94_10 1_555 1_555
H63_10 C95_10 1_555 1_555
C104_10 C95_10 1_555 1_555
H64_10 C96_10 1_555 1_555
H65_10 C97_10 1_555 1_555
C105_10 C97_10 1_555 1_555
H66_10 C98_10 1_555 1_555
H67_10 C99_10 1_555 1_555
C106_10 C99_10 1_555 1_555
H68_10 C100_10 1_555 1_555
O35_10 C103_10 1_555 1_555
O36_10 C104_10 1_555 1_555
O37_10 C105_10 1_555 1_555
O38_10 C106_10 1_555 1_555
C110_10 O36_10 1_555 1_555
C111_10 O37_10 1_555 1_555
C112_10 O38_10 1_555 1_555
C115_10 C110_10 1_555 1_555
C116_10 C110_10 1_555 1_555
C117_10 C111_10 1_555 1_555
C118_10 C111_10 1_555 1_555
C119_10 C112_10 1_555 1_555
C120_10 C112_10 1_555 1_555
H75_10 C115_10 1_555 1_555
C123_10 C115_10 1_555 1_555
H76_10 C116_10 1_555 1_555
C124_10 C116_10 1_555 1_555
H77_10 C117_10 1_555 1_555
C125_10 C117_10 1_555 1_555
H78_10 C118_10 1_555 1_555
C126_10 C118_10 1_555 1_555
H79_10 C119_10 1_555 1_555
C127_10 C119_10 1_555 1_555
H80_10 C120_10 1_555 1_555
C128_10 C120_10 1_555 1_555
H83_10 C123_10 1_555 1_555
C130_10 C123_10 1_555 1_555
H84_10 C124_10 1_555 1_555
H85_10 C125_10 1_555 1_555
C131_10 C125_10 1_555 1_555
H86_10 C126_10 1_555 1_555
H87_10 C127_10 1_555 1_555
C132_10 C127_10 1_555 1_555
H88_10 C128_10 1_555 1_555
C134_10 C130_10 1_555 1_555
C135_10 C131_10 1_555 1_555
C136_10 C132_10 1_555 1_555
O51_5 C134_10 1_555 1_555
O48_5 C134_10 1_555 1_555
O43_10 C135_10 1_555 1_555
O44_10 C135_10 1_555 1_555
O45_8 C136_10 1_555 1_555
O46_8 C136_10 1_555 1_555
N21_10 C137_10 1_555 1_555
N22_8 Zn21_4 1_555 1_555
C137_10 N23_10 1_555 1_555
C138_10 N21_10 1_555 1_555
N23_10 H89_10 1_555 1_555
N24_10 C137_10 1_555 1_555
N25_10 C138_10 1_555 1_555
N26_10 C138_10 1_555 1_555
H90_10 N23_10 1_555 1_555
C139_10 N24_10 1_555 1_555
H91_10 N25_10 1_555 1_555
H92_10 N25_10 1_555 1_555
C140_10 C139_10 1_555 1_555
C141_10 C140_10 1_555 1_555
C142_10 C140_10 1_555 1_555
H93_10 C141_10 1_555 1_555
C143_10 C141_10 1_555 1_555
H94_10 C142_10 1_555 1_555
C144_10 C142_10 1_555 1_555
H95_10 C143_10 1_555 1_555
H96_10 C144_10 1_555 1_555
Zn20_4 O43_10 1_555 1_555
Zn21_4 O44_10 1_555 1_555
Zn22_4 O45_8 1_555 1_555
Zn23_4 O46_8 1_555 1_555
O47_6 Zn20_4 1_555 1_555
O48_6 Zn20_4 1_555 1_555
O49_4 Zn20_4 1_555 1_555
O50_6 Zn21_4 1_555 1_555
O51_6 Zn21_4 1_555 1_555
O52_4 Zn21_4 1_555 1_555
N28_4 C143_10 1_555 1_555
Zn16_3 N28_4 1_555 1_555
O32_10 Zn14_6 1_555 1_555
O33_10 Zn14_6 1_555 1_555
O34_10 Zn14_6 1_555 1_555
C94_10 C103_10 1_555 1_555
C96_10 C104_10 1_555 1_555
C98_10 C105_10 1_555 1_555
C100_10 C106_10 1_555 1_555
C124_10 C130_10 1_555 1_555
C126_10 C131_10 1_555 1_555
C128_10 C132_10 1_555 1_555
N21_10 Zn20_4 1_555 1_555
N26_10 C139_10 1_555 1_555
C144_10 N28_4 1_555 1_555
C73_10 N16_10 1_555 1_555
N16_10 H49_10 1_555 1_555
N17_10 C73_10 1_555 1_555
C83_10 N17_10 1_555 1_555
C92_10 C83_10 1_555 1_555
C101_10 C92_10 1_555 1_555
C102_10 C92_10 1_555 1_555
H69_10 C101_10 1_555 1_555
C107_10 C101_10 1_555 1_555
H70_10 C102_10 1_555 1_555
C108_10 C102_10 1_555 1_555
H71_10 C107_10 1_555 1_555
H72_10 C108_10 1_555 1_555
C113_10 C109_10 1_555 1_555
C114_10 C109_10 1_555 1_555
H73_10 C113_10 1_555 1_555
C121_10 C113_10 1_555 1_555
H74_10 C114_10 1_555 1_555
C122_10 C114_10 1_555 1_555
H81_10 C121_10 1_555 1_555
C129_10 C121_10 1_555 1_555
H82_10 C122_10 1_555 1_555
C133_10 C129_10 1_555 1_555
O39_6 C133_10 1_555 1_555
O40_6 C133_10 1_555 1_555
Zn22_3 O39_6 1_555 1_555
Zn23_3 O40_6 1_555 1_555
N20_5 C107_10 1_555 1_555
C108_10 N20_5 1_555 1_555
C122_10 C129_10 1_555 1_555
H77_11 C117_11 1_555 1_555
C125_11 C117_11 1_555 1_555
H85_11 C125_11 1_555 1_555
C131_11 C125_11 1_555 1_555
H86_11 C126_11 1_555 1_555
C135_11 C131_11 1_555 1_555
O43_11 C135_11 1_555 1_555
O44_11 C135_11 1_555 1_555
N21_11 C137_11 1_555 1_555
N22_9 Zn23_4 1_555 1_555
C137_11 N23_11 1_555 1_555
C138_11 N21_11 1_555 1_555
N23_11 H89_11 1_555 1_555
N24_11 C137_11 1_555 1_555
N25_11 C138_11 1_555 1_555
N26_11 C138_11 1_555 1_555
H90_11 N23_11 1_555 1_555
C139_11 N24_11 1_555 1_555
H91_11 N25_11 1_555 1_555
H92_11 N25_11 1_555 1_555
C140_11 C139_11 1_555 1_555
C141_11 C140_11 1_555 1_555
C142_11 C140_11 1_555 1_555
H93_11 C141_11 1_555 1_555
C143_11 C141_11 1_555 1_555
H94_11 C142_11 1_555 1_555
C144_11 C142_11 1_555 1_555
H95_11 C143_11 1_555 1_555
H96_11 C144_11 1_555 1_555
Zn22_4 O43_11 1_555 1_555
Zn23_4 O44_11 1_555 1_555
O47_7 Zn22_4 1_555 1_555
O48_7 Zn22_4 1_555 1_555
O50_7 Zn23_4 1_555 1_555
O51_7 Zn23_4 1_555 1_555
N22_8 C143_11 1_555 1_555
C126_11 C131_11 1_555 1_555
N21_11 Zn22_4 1_555 1_555
N26_11 C139_11 1_555 1_555
C144_11 N22_8 1_555 1_555
Zn13_11 N15_11 1_555 1_555
N15_11 C73_11 1_555 1_555
O27_11 Zn13_11 1_555 1_555
O28_11 Zn13_11 1_555 1_555
O29_11 Zn13_11 1_555 1_555
O30_11 Zn13_11 1_555 1_555
C73_11 N16_11 1_555 1_555
C74_11 N15_11 1_555 1_555
C75_11 O27_11 1_555 1_555
C76_11 O28_11 1_555 1_555
C77_11 O29_11 1_555 1_555
C78_11 O30_11 1_555 1_555
N16_11 H49_11 1_555 1_555
N17_11 C73_11 1_555 1_555
N18_11 C74_11 1_555 1_555
N19_11 C74_11 1_555 1_555
C79_11 C75_11 1_555 1_555
O31_11 C75_11 1_555 1_555
C80_11 C76_11 1_555 1_555
O32_11 C76_11 1_555 1_555
C81_11 C77_11 1_555 1_555
O33_11 C77_11 1_555 1_555
C82_11 C78_11 1_555 1_555
O34_11 C78_11 1_555 1_555
H50_11 N16_11 1_555 1_555
C83_11 N17_11 1_555 1_555
H51_11 N18_11 1_555 1_555
H52_11 N18_11 1_555 1_555
C84_11 C79_11 1_555 1_555
C85_11 C79_11 1_555 1_555
Zn14_7 O31_11 1_555 1_555
C86_11 C80_11 1_555 1_555
C87_11 C80_11 1_555 1_555
C88_11 C81_11 1_555 1_555
C89_11 C81_11 1_555 1_555
C90_11 C82_11 1_555 1_555
C91_11 C82_11 1_555 1_555
C92_11 C83_11 1_555 1_555
H53_11 C84_11 1_555 1_555
C93_11 C84_11 1_555 1_555
H54_11 C85_11 1_555 1_555
C94_11 C85_11 1_555 1_555
N20_7 Zn14_7 1_555 1_555
H55_11 C86_11 1_555 1_555
C95_11 C86_11 1_555 1_555
H56_11 C87_11 1_555 1_555
C96_11 C87_11 1_555 1_555
H57_11 C88_11 1_555 1_555
C97_11 C88_11 1_555 1_555
H58_11 C89_11 1_555 1_555
C98_11 C89_11 1_555 1_555
H59_11 C90_11 1_555 1_555
C99_11 C90_11 1_555 1_555
H60_11 C91_11 1_555 1_555
C100_11 C91_11 1_555 1_555
C101_11 C92_11 1_555 1_555
C102_11 C92_11 1_555 1_555
H61_11 C93_11 1_555 1_555
H63_11 C95_11 1_555 1_555
C104_11 C95_11 1_555 1_555
H64_11 C96_11 1_555 1_555
H65_11 C97_11 1_555 1_555
C105_11 C97_11 1_555 1_555
H66_11 C98_11 1_555 1_555
H67_11 C99_11 1_555 1_555
C106_11 C99_11 1_555 1_555
H68_11 C100_11 1_555 1_555
H69_11 C101_11 1_555 1_555
C107_11 C101_11 1_555 1_555
H70_11 C102_11 1_555 1_555
C108_11 C102_11 1_555 1_555
O36_11 C104_11 1_555 1_555
O37_11 C105_11 1_555 1_555
O38_11 C106_11 1_555 1_555
H71_11 C107_11 1_555 1_555
H72_11 C108_11 1_555 1_555
C110_11 O36_11 1_555 1_555
C111_11 O37_11 1_555 1_555
C112_11 O38_11 1_555 1_555
C118_11 C111_11 1_555 1_555
C119_11 C112_11 1_555 1_555
C120_11 C112_11 1_555 1_555
H78_11 C118_11 1_555 1_555
H79_11 C119_11 1_555 1_555
C127_11 C119_11 1_555 1_555
H80_11 C120_11 1_555 1_555
C128_11 C120_11 1_555 1_555
H87_11 C127_11 1_555 1_555
C132_11 C127_11 1_555 1_555
H88_11 C128_11 1_555 1_555
C136_11 C132_11 1_555 1_555
O45_9 C136_11 1_555 1_555
O46_9 C136_11 1_555 1_555
N27_6 C107_11 1_555 1_555
Zn17_6 N27_6 1_555 1_555
Zn19_2 O45_9 1_555 1_555
N19_11 C83_11 1_555 1_555
O32_11 Zn14_7 1_555 1_555
O33_11 Zn14_7 1_555 1_555
O34_11 Zn14_7 1_555 1_555
C96_11 C104_11 1_555 1_555
C98_11 C105_11 1_555 1_555
C100_11 C106_11 1_555 1_555
C108_11 N27_6 1_555 1_555
C128_11 C132_11 1_555 1_555
O35_11 C103_11 1_555 1_555
C109_11 O35_11 1_555 1_555
C113_11 C109_11 1_555 1_555
C114_11 C109_11 1_555 1_555
H73_11 C113_11 1_555 1_555
C121_11 C113_11 1_555 1_555
H74_11 C114_11 1_555 1_555
C122_11 C114_11 1_555 1_555
C123_11 C115_11 1_555 1_555
H76_11 C116_11 1_555 1_555
C124_11 C116_11 1_555 1_555
H81_11 C121_11 1_555 1_555
C129_11 C121_11 1_555 1_555
H82_11 C122_11 1_555 1_555
H83_11 C123_11 1_555 1_555
C130_11 C123_11 1_555 1_555
H84_11 C124_11 1_555 1_555
C133_11 C129_11 1_555 1_555
C134_11 C130_11 1_555 1_555
O39_7 C133_11 1_555 1_555
O40_7 C133_11 1_555 1_555
O41_6 C134_11 1_555 1_555
O42_6 C134_11 1_555 1_555
Zn15_5 O39_7 1_555 1_555
Zn16_4 O40_7 1_555 1_555
Zn23_3 O41_6 1_555 1_555
Zn22_3 O42_6 1_555 1_555
C122_11 C129_11 1_555 1_555
C124_11 C130_11 1_555 1_555
C75_12 O27_12 1_555 1_555
C78_12 O30_12 1_555 1_555
C79_12 C75_12 1_555 1_555
O31_12 C75_12 1_555 1_555
C82_12 C78_12 1_555 1_555
O34_12 C78_12 1_555 1_555
C84_12 C79_12 1_555 1_555
C85_12 C79_12 1_555 1_555
Zn14_8 O31_12 1_555 1_555
C90_12 C82_12 1_555 1_555
C91_12 C82_12 1_555 1_555
H53_12 C84_12 1_555 1_555
C93_12 C84_12 1_555 1_555
H54_12 C85_12 1_555 1_555
C94_12 C85_12 1_555 1_555
N20_8 Zn14_8 1_555 1_555
H59_12 C90_12 1_555 1_555
C99_12 C90_12 1_555 1_555
H60_12 C91_12 1_555 1_555
C100_12 C91_12 1_555 1_555
C103_12 C93_12 1_555 1_555
H62_12 C94_12 1_555 1_555
H67_12 C99_12 1_555 1_555
C106_12 C99_12 1_555 1_555
H68_12 C100_12 1_555 1_555
O35_12 C103_12 1_555 1_555
O38_12 C106_12 1_555 1_555
C112_12 O38_12 1_555 1_555
O34_12 Zn14_8 1_555 1_555
C94_12 C103_12 1_555 1_555
C100_12 C106_12 1_555 1_555
Zn13_12 N15_12 1_555 1_555
O28_12 Zn13_12 1_555 1_555
O29_12 Zn13_12 1_555 1_555
C74_12 N15_12 1_555 1_555
C76_12 O28_12 1_555 1_555
C77_12 O29_12 1_555 1_555
N18_12 C74_12 1_555 1_555
N19_12 C74_12 1_555 1_555
C80_12 C76_12 1_555 1_555
O32_12 C76_12 1_555 1_555
C81_12 C77_12 1_555 1_555
O33_12 C77_12 1_555 1_555
H51_12 N18_12 1_555 1_555
H52_12 N18_12 1_555 1_555
C86_12 C80_12 1_555 1_555
C87_12 C80_12 1_555 1_555
C88_12 C81_12 1_555 1_555
C89_12 C81_12 1_555 1_555
H55_12 C86_12 1_555 1_555
C95_12 C86_12 1_555 1_555
H56_12 C87_12 1_555 1_555
C96_12 C87_12 1_555 1_555
H57_12 C88_12 1_555 1_555
C97_12 C88_12 1_555 1_555
H58_12 C89_12 1_555 1_555
C98_12 C89_12 1_555 1_555
H63_12 C95_12 1_555 1_555
C104_12 C95_12 1_555 1_555
H64_12 C96_12 1_555 1_555
H65_12 C97_12 1_555 1_555
C105_12 C97_12 1_555 1_555
H66_12 C98_12 1_555 1_555
O36_12 C104_12 1_555 1_555
C110_12 O36_12 1_555 1_555
C115_12 C110_12 1_555 1_555
C116_12 C110_12 1_555 1_555
H75_12 C115_12 1_555 1_555
C123_12 C115_12 1_555 1_555
H76_12 C116_12 1_555 1_555
C124_12 C116_12 1_555 1_555
H83_12 C123_12 1_555 1_555
C130_12 C123_12 1_555 1_555
H84_12 C124_12 1_555 1_555
C134_12 C130_12 1_555 1_555
O51_7 C134_12 1_555 1_555
O48_7 C134_12 1_555 1_555
C96_12 C104_12 1_555 1_555
C98_12 C105_12 1_555 1_555
C124_12 C130_12 1_555 1_555
C127_12 C119_12 1_555 1_555
H80_12 C120_12 1_555 1_555
C128_12 C120_12 1_555 1_555
H87_12 C127_12 1_555 1_555
C132_12 C127_12 1_555 1_555
H88_12 C128_12 1_555 1_555
C136_12 C132_12 1_555 1_555
O49_3 C136_12 1_555 1_555
O52_3 C136_12 1_555 1_555
O50_8 Zn24_2 1_555 1_555
O51_8 Zn24_2 1_555 1_555
C128_12 C132_12 1_555 1_555
C111_12 O37_12 1_555 1_555
C117_12 C111_12 1_555 1_555
C118_12 C111_12 1_555 1_555
H77_12 C117_12 1_555 1_555
C125_12 C117_12 1_555 1_555
H78_12 C118_12 1_555 1_555
C126_12 C118_12 1_555 1_555
H85_12 C125_12 1_555 1_555
C131_12 C125_12 1_555 1_555
H86_12 C126_12 1_555 1_555
C135_12 C131_12 1_555 1_555
O43_12 C135_12 1_555 1_555
O44_12 C135_12 1_555 1_555
N21_12 C137_12 1_555 1_555
C137_12 N23_12 1_555 1_555
C138_12 N21_12 1_555 1_555
N23_12 H89_12 1_555 1_555
N24_12 C137_12 1_555 1_555
N25_12 C138_12 1_555 1_555
N26_12 C138_12 1_555 1_555
H90_12 N23_12 1_555 1_555
C139_12 N24_12 1_555 1_555
H91_12 N25_12 1_555 1_555
H92_12 N25_12 1_555 1_555
C140_12 C139_12 1_555 1_555
C141_12 C140_12 1_555 1_555
C142_12 C140_12 1_555 1_555
H93_12 C141_12 1_555 1_555
C143_12 C141_12 1_555 1_555
H94_12 C142_12 1_555 1_555
C144_12 C142_12 1_555 1_555
H95_12 C143_12 1_555 1_555
H96_12 C144_12 1_555 1_555
Zn20_5 O43_12 1_555 1_555
O47_8 Zn20_5 1_555 1_555
O48_8 Zn20_5 1_555 1_555
O49_5 Zn20_5 1_555 1_555
N28_5 C143_12 1_555 1_555
Zn16_4 N28_5 1_555 1_555
C126_12 C131_12 1_555 1_555
N21_12 Zn20_5 1_555 1_555
N26_12 C139_12 1_555 1_555
C144_12 N28_5 1_555 1_555
C113_12 C109_12 1_555 1_555
C114_12 C109_12 1_555 1_555
H73_12 C113_12 1_555 1_555
C121_12 C113_12 1_555 1_555
H74_12 C114_12 1_555 1_555
C122_12 C114_12 1_555 1_555
C129_12 C121_12 1_555 1_555
H82_12 C122_12 1_555 1_555
C133_12 C129_12 1_555 1_555
O40_8 C133_12 1_555 1_555
Zn18_2 O40_8 1_555 1_555
C122_12 C129_12 1_555 1_555
C73_12 N16_12 1_555 1_555
N16_12 H49_12 1_555 1_555
N17_12 C73_12 1_555 1_555
C83_12 N17_12 1_555 1_555
C92_12 C83_12 1_555 1_555
C101_12 C92_12 1_555 1_555
C102_12 C92_12 1_555 1_555
H69_12 C101_12 1_555 1_555
C107_12 C101_12 1_555 1_555
H70_12 C102_12 1_555 1_555
C108_12 C102_12 1_555 1_555
H71_12 C107_12 1_555 1_555
H72_12 C108_12 1_555 1_555
Zn19_2 O39_8 1_555 1_555
N20_7 C107_12 1_555 1_555
C108_12 N20_7 1_555 1_555
Zn13_13 N15_13 1_555 1_555
N15_13 C73_13 1_555 1_555
O27_13 Zn13_13 1_555 1_555
O28_13 Zn13_13 1_555 1_555
O29_13 Zn13_13 1_555 1_555
O30_13 Zn13_13 1_555 1_555
C73_13 N16_13 1_555 1_555
C74_13 N15_13 1_555 1_555
C75_13 O27_13 1_555 1_555
C76_13 O28_13 1_555 1_555
C77_13 O29_13 1_555 1_555
C78_13 O30_13 1_555 1_555
N16_13 H49_13 1_555 1_555
N17_13 C73_13 1_555 1_555
N18_13 C74_13 1_555 1_555
N19_13 C74_13 1_555 1_555
C79_13 C75_13 1_555 1_555
O31_13 C75_13 1_555 1_555
C80_13 C76_13 1_555 1_555
O32_13 C76_13 1_555 1_555
C81_13 C77_13 1_555 1_555
O33_13 C77_13 1_555 1_555
C82_13 C78_13 1_555 1_555
O34_13 C78_13 1_555 1_555
H50_13 N16_13 1_555 1_555
C83_13 N17_13 1_555 1_555
H51_13 N18_13 1_555 1_555
H52_13 N18_13 1_555 1_555
C84_13 C79_13 1_555 1_555
C85_13 C79_13 1_555 1_555
Zn14_9 O31_13 1_555 1_555
C86_13 C80_13 1_555 1_555
C87_13 C80_13 1_555 1_555
C88_13 C81_13 1_555 1_555
C89_13 C81_13 1_555 1_555
C90_13 C82_13 1_555 1_555
C91_13 C82_13 1_555 1_555
C92_13 C83_13 1_555 1_555
H53_13 C84_13 1_555 1_555
C93_13 C84_13 1_555 1_555
H54_13 C85_13 1_555 1_555
C94_13 C85_13 1_555 1_555
N20_9 Zn14_9 1_555 1_555
H55_13 C86_13 1_555 1_555
C95_13 C86_13 1_555 1_555
H56_13 C87_13 1_555 1_555
C96_13 C87_13 1_555 1_555
H57_13 C88_13 1_555 1_555
C97_13 C88_13 1_555 1_555
H58_13 C89_13 1_555 1_555
C98_13 C89_13 1_555 1_555
H59_13 C90_13 1_555 1_555
C99_13 C90_13 1_555 1_555
H60_13 C91_13 1_555 1_555
C100_13 C91_13 1_555 1_555
C101_13 C92_13 1_555 1_555
C102_13 C92_13 1_555 1_555
H61_13 C93_13 1_555 1_555
C103_13 C93_13 1_555 1_555
H62_13 C94_13 1_555 1_555
H63_13 C95_13 1_555 1_555
C104_13 C95_13 1_555 1_555
H64_13 C96_13 1_555 1_555
H65_13 C97_13 1_555 1_555
C105_13 C97_13 1_555 1_555
H66_13 C98_13 1_555 1_555
H67_13 C99_13 1_555 1_555
C106_13 C99_13 1_555 1_555
H68_13 C100_13 1_555 1_555
H69_13 C101_13 1_555 1_555
C107_13 C101_13 1_555 1_555
H70_13 C102_13 1_555 1_555
C108_13 C102_13 1_555 1_555
O35_13 C103_13 1_555 1_555
O36_13 C104_13 1_555 1_555
O37_13 C105_13 1_555 1_555
O38_13 C106_13 1_555 1_555
H71_13 C107_13 1_555 1_555
H72_13 C108_13 1_555 1_555
C109_13 O35_13 1_555 1_555
C110_13 O36_13 1_555 1_555
C111_13 O37_13 1_555 1_555
C112_13 O38_13 1_555 1_555
C113_13 C109_13 1_555 1_555
C114_13 C109_13 1_555 1_555
C115_13 C110_13 1_555 1_555
C116_13 C110_13 1_555 1_555
C117_13 C111_13 1_555 1_555
C118_13 C111_13 1_555 1_555
C119_13 C112_13 1_555 1_555
C120_13 C112_13 1_555 1_555
H73_13 C113_13 1_555 1_555
C121_13 C113_13 1_555 1_555
H74_13 C114_13 1_555 1_555
C122_13 C114_13 1_555 1_555
H75_13 C115_13 1_555 1_555
C123_13 C115_13 1_555 1_555
H76_13 C116_13 1_555 1_555
C124_13 C116_13 1_555 1_555
H77_13 C117_13 1_555 1_555
C125_13 C117_13 1_555 1_555
H78_13 C118_13 1_555 1_555
C126_13 C118_13 1_555 1_555
H79_13 C119_13 1_555 1_555
C127_13 C119_13 1_555 1_555
H80_13 C120_13 1_555 1_555
C128_13 C120_13 1_555 1_555
H81_13 C121_13 1_555 1_555
C129_13 C121_13 1_555 1_555
H82_13 C122_13 1_555 1_555
H83_13 C123_13 1_555 1_555
C130_13 C123_13 1_555 1_555
H84_13 C124_13 1_555 1_555
H85_13 C125_13 1_555 1_555
C131_13 C125_13 1_555 1_555
H86_13 C126_13 1_555 1_555
H87_13 C127_13 1_555 1_555
C132_13 C127_13 1_555 1_555
H88_13 C128_13 1_555 1_555
C133_13 C129_13 1_555 1_555
C134_13 C130_13 1_555 1_555
C135_13 C131_13 1_555 1_555
C136_13 C132_13 1_555 1_555
O47_7 C133_13 1_555 1_555
O50_7 C133_13 1_555 1_555
O51_6 C134_13 1_555 1_555
O48_6 C134_13 1_555 1_555
O43_13 C135_13 1_555 1_555
O44_13 C135_13 1_555 1_555
O49_5 C136_13 1_555 1_555
O52_5 C136_13 1_555 1_555
N21_13 C137_13 1_555 1_555
C137_13 N23_13 1_555 1_555
C138_13 N21_13 1_555 1_555
N23_13 H89_13 1_555 1_555
N24_13 C137_13 1_555 1_555
N25_13 C138_13 1_555 1_555
N26_13 C138_13 1_555 1_555
H90_13 N23_13 1_555 1_555
C139_13 N24_13 1_555 1_555
H91_13 N25_13 1_555 1_555
H92_13 N25_13 1_555 1_555
C140_13 C139_13 1_555 1_555
C141_13 C140_13 1_555 1_555
C142_13 C140_13 1_555 1_555
H93_13 C141_13 1_555 1_555
C143_13 C141_13 1_555 1_555
H94_13 C142_13 1_555 1_555
C144_13 C142_13 1_555 1_555
H95_13 C143_13 1_555 1_555
H96_13 C144_13 1_555 1_555
N20_6 C107_13 1_555 1_555
Zn15_5 O43_13 1_555 1_555
Zn16_4 O44_13 1_555 1_555
O48_9 Zn15_5 1_555 1_555
O49_6 Zn15_5 1_555 1_555
O51_9 Zn16_4 1_555 1_555
O52_6 Zn16_4 1_555 1_555
N28_6 C143_13 1_555 1_555
Zn23_3 N28_6 1_555 1_555
N19_13 C83_13 1_555 1_555
O32_13 Zn14_9 1_555 1_555
O33_13 Zn14_9 1_555 1_555
O34_13 Zn14_9 1_555 1_555
C94_13 C103_13 1_555 1_555
C96_13 C104_13 1_555 1_555
C98_13 C105_13 1_555 1_555
C100_13 C106_13 1_555 1_555
C108_13 N20_6 1_555 1_555
C122_13 C129_13 1_555 1_555
C124_13 C130_13 1_555 1_555
C126_13 C131_13 1_555 1_555
C128_13 C132_13 1_555 1_555
N21_13 Zn15_5 1_555 1_555
N26_13 C139_13 1_555 1_555
C144_13 N28_6 1_555 1_555
H94_14 C142_14 1_555 1_555
C144_14 C142_14 1_555 1_555
H95_14 C143_14 1_555 1_555
H96_14 C144_14 1_555 1_555
N22_9 C143_14 1_555 1_555
C144_14 N22_9 1_555 1_555
C75_14 O27_14 1_555 1_555
C78_14 O30_14 1_555 1_555
C79_14 C75_14 1_555 1_555
O31_14 C75_14 1_555 1_555
C82_14 C78_14 1_555 1_555
O34_14 C78_14 1_555 1_555
C84_14 C79_14 1_555 1_555
C85_14 C79_14 1_555 1_555
Zn17_5 O31_14 1_555 1_555
C90_14 C82_14 1_555 1_555
C91_14 C82_14 1_555 1_555
H53_14 C84_14 1_555 1_555
C93_14 C84_14 1_555 1_555
H54_14 C85_14 1_555 1_555
C94_14 C85_14 1_555 1_555
H59_14 C90_14 1_555 1_555
C99_14 C90_14 1_555 1_555
H60_14 C91_14 1_555 1_555
C100_14 C91_14 1_555 1_555
H61_14 C93_14 1_555 1_555
C103_14 C93_14 1_555 1_555
H62_14 C94_14 1_555 1_555
H67_14 C99_14 1_555 1_555
C106_14 C99_14 1_555 1_555
H68_14 C100_14 1_555 1_555
O35_14 C103_14 1_555 1_555
O38_14 C106_14 1_555 1_555
C109_14 O35_14 1_555 1_555
C112_14 O38_14 1_555 1_555
C113_14 C109_14 1_555 1_555
C114_14 C109_14 1_555 1_555
C119_14 C112_14 1_555 1_555
C120_14 C112_14 1_555 1_555
H73_14 C113_14 1_555 1_555
C121_14 C113_14 1_555 1_555
H74_14 C114_14 1_555 1_555
C122_14 C114_14 1_555 1_555
H79_14 C119_14 1_555 1_555
C127_14 C119_14 1_555 1_555
H80_14 C120_14 1_555 1_555
C128_14 C120_14 1_555 1_555
C129_14 C121_14 1_555 1_555
H82_14 C122_14 1_555 1_555
H87_14 C127_14 1_555 1_555
C132_14 C127_14 1_555 1_555
H88_14 C128_14 1_555 1_555
C133_14 C129_14 1_555 1_555
C136_14 C132_14 1_555 1_555
O50_8 C133_14 1_555 1_555
O45_10 C136_14 1_555 1_555
O46_10 C136_14 1_555 1_555
N22_10 Zn18_2 1_555 1_555
Zn15_4 O45_10 1_555 1_555
Zn16_3 O46_10 1_555 1_555
O34_14 Zn17_5 1_555 1_555
C94_14 C103_14 1_555 1_555
C100_14 C106_14 1_555 1_555
C122_14 C129_14 1_555 1_555
C128_14 C132_14 1_555 1_555
Zn13_14 N15_14 1_555 1_555
N15_14 C73_14 1_555 1_555
O28_14 Zn13_14 1_555 1_555
O29_14 Zn13_14 1_555 1_555
C73_14 N16_14 1_555 1_555
C74_14 N15_14 1_555 1_555
C76_14 O28_14 1_555 1_555
C77_14 O29_14 1_555 1_555
N16_14 H49_14 1_555 1_555
N17_14 C73_14 1_555 1_555
N18_14 C74_14 1_555 1_555
N19_14 C74_14 1_555 1_555
C80_14 C76_14 1_555 1_555
O32_14 C76_14 1_555 1_555
C81_14 C77_14 1_555 1_555
O33_14 C77_14 1_555 1_555
H50_14 N16_14 1_555 1_555
C83_14 N17_14 1_555 1_555
H51_14 N18_14 1_555 1_555
H52_14 N18_14 1_555 1_555
C86_14 C80_14 1_555 1_555
C87_14 C80_14 1_555 1_555
C88_14 C81_14 1_555 1_555
C89_14 C81_14 1_555 1_555
C92_14 C83_14 1_555 1_555
H55_14 C86_14 1_555 1_555
C95_14 C86_14 1_555 1_555
H56_14 C87_14 1_555 1_555
C96_14 C87_14 1_555 1_555
H57_14 C88_14 1_555 1_555
C97_14 C88_14 1_555 1_555
H58_14 C89_14 1_555 1_555
C98_14 C89_14 1_555 1_555
C101_14 C92_14 1_555 1_555
C102_14 C92_14 1_555 1_555
H63_14 C95_14 1_555 1_555
C104_14 C95_14 1_555 1_555
H64_14 C96_14 1_555 1_555
H65_14 C97_14 1_555 1_555
C105_14 C97_14 1_555 1_555
H66_14 C98_14 1_555 1_555
H69_14 C101_14 1_555 1_555
C107_14 C101_14 1_555 1_555
H70_14 C102_14 1_555 1_555
C108_14 C102_14 1_555 1_555
O36_14 C104_14 1_555 1_555
O37_14 C105_14 1_555 1_555
H71_14 C107_14 1_555 1_555
H72_14 C108_14 1_555 1_555
C110_14 O36_14 1_555 1_555
C111_14 O37_14 1_555 1_555
C115_14 C110_14 1_555 1_555
C116_14 C110_14 1_555 1_555
C117_14 C111_14 1_555 1_555
C118_14 C111_14 1_555 1_555
H75_14 C115_14 1_555 1_555
C123_14 C115_14 1_555 1_555
H76_14 C116_14 1_555 1_555
C124_14 C116_14 1_555 1_555
H77_14 C117_14 1_555 1_555
C125_14 C117_14 1_555 1_555
H78_14 C118_14 1_555 1_555
C126_14 C118_14 1_555 1_555
H83_14 C123_14 1_555 1_555
C130_14 C123_14 1_555 1_555
H84_14 C124_14 1_555 1_555
H85_14 C125_14 1_555 1_555
C131_14 C125_14 1_555 1_555
H86_14 C126_14 1_555 1_555
C134_14 C130_14 1_555 1_555
C135_14 C131_14 1_555 1_555
O51_9 C134_14 1_555 1_555
O48_9 C134_14 1_555 1_555
O43_14 C135_14 1_555 1_555
O44_14 C135_14 1_555 1_555
N21_14 C137_14 1_555 1_555
C137_14 N23_14 1_555 1_555
C138_14 N21_14 1_555 1_555
N23_14 H89_14 1_555 1_555
N24_14 C137_14 1_555 1_555
N25_14 C138_14 1_555 1_555
N26_14 C138_14 1_555 1_555
H90_14 N23_14 1_555 1_555
C139_14 N24_14 1_555 1_555
H91_14 N25_14 1_555 1_555
H92_14 N25_14 1_555 1_555
C140_14 C139_14 1_555 1_555
C141_14 C140_14 1_555 1_555
H93_14 C141_14 1_555 1_555
N20_9 C107_14 1_555 1_555
Zn19_2 O43_14 1_555 1_555
N19_14 C83_14 1_555 1_555
C96_14 C104_14 1_555 1_555
C98_14 C105_14 1_555 1_555
C108_14 N20_9 1_555 1_555
C124_14 C130_14 1_555 1_555
C126_14 C131_14 1_555 1_555
N21_14 Zn19_2 1_555 1_555
N26_14 C139_14 1_555 1_555
Zn13_15 N15_15 1_555 1_555
N15_15 C73_15 1_555 1_555
O27_15 Zn13_15 1_555 1_555
O28_15 Zn13_15 1_555 1_555
O29_15 Zn13_15 1_555 1_555
O30_15 Zn13_15 1_555 1_555
C73_15 N16_15 1_555 1_555
C74_15 N15_15 1_555 1_555
C75_15 O27_15 1_555 1_555
C76_15 O28_15 1_555 1_555
C77_15 O29_15 1_555 1_555
C78_15 O30_15 1_555 1_555
N16_15 H49_15 1_555 1_555
N17_15 C73_15 1_555 1_555
N18_15 C74_15 1_555 1_555
N19_15 C74_15 1_555 1_555
C79_15 C75_15 1_555 1_555
O31_15 C75_15 1_555 1_555
C80_15 C76_15 1_555 1_555
O32_15 C76_15 1_555 1_555
C81_15 C77_15 1_555 1_555
O33_15 C77_15 1_555 1_555
C82_15 C78_15 1_555 1_555
O34_15 C78_15 1_555 1_555
H50_15 N16_15 1_555 1_555
C83_15 N17_15 1_555 1_555
H51_15 N18_15 1_555 1_555
H52_15 N18_15 1_555 1_555
C84_15 C79_15 1_555 1_555
C85_15 C79_15 1_555 1_555
Zn14_10 O31_15 1_555 1_555
C86_15 C80_15 1_555 1_555
C87_15 C80_15 1_555 1_555
C88_15 C81_15 1_555 1_555
C89_15 C81_15 1_555 1_555
C90_15 C82_15 1_555 1_555
C91_15 C82_15 1_555 1_555
C92_15 C83_15 1_555 1_555
H53_15 C84_15 1_555 1_555
C93_15 C84_15 1_555 1_555
H54_15 C85_15 1_555 1_555
C94_15 C85_15 1_555 1_555
N20_10 Zn14_10 1_555 1_555
H55_15 C86_15 1_555 1_555
C95_15 C86_15 1_555 1_555
H56_15 C87_15 1_555 1_555
C96_15 C87_15 1_555 1_555
H57_15 C88_15 1_555 1_555
C97_15 C88_15 1_555 1_555
H58_15 C89_15 1_555 1_555
C98_15 C89_15 1_555 1_555
H59_15 C90_15 1_555 1_555
C99_15 C90_15 1_555 1_555
H60_15 C91_15 1_555 1_555
C100_15 C91_15 1_555 1_555
C101_15 C92_15 1_555 1_555
C102_15 C92_15 1_555 1_555
H61_15 C93_15 1_555 1_555
H63_15 C95_15 1_555 1_555
C104_15 C95_15 1_555 1_555
H64_15 C96_15 1_555 1_555
H65_15 C97_15 1_555 1_555
C105_15 C97_15 1_555 1_555
H66_15 C98_15 1_555 1_555
H67_15 C99_15 1_555 1_555
C106_15 C99_15 1_555 1_555
H68_15 C100_15 1_555 1_555
H69_15 C101_15 1_555 1_555
C107_15 C101_15 1_555 1_555
H70_15 C102_15 1_555 1_555
C108_15 C102_15 1_555 1_555
O36_15 C104_15 1_555 1_555
O37_15 C105_15 1_555 1_555
O38_15 C106_15 1_555 1_555
H71_15 C107_15 1_555 1_555
H72_15 C108_15 1_555 1_555
C110_15 O36_15 1_555 1_555
C111_15 O37_15 1_555 1_555
C112_15 O38_15 1_555 1_555
C117_15 C111_15 1_555 1_555
C118_15 C111_15 1_555 1_555
C119_15 C112_15 1_555 1_555
C120_15 C112_15 1_555 1_555
H77_15 C117_15 1_555 1_555
C125_15 C117_15 1_555 1_555
H78_15 C118_15 1_555 1_555
C126_15 C118_15 1_555 1_555
H79_15 C119_15 1_555 1_555
C127_15 C119_15 1_555 1_555
H80_15 C120_15 1_555 1_555
C128_15 C120_15 1_555 1_555
H85_15 C125_15 1_555 1_555
C131_15 C125_15 1_555 1_555
H86_15 C126_15 1_555 1_555
H87_15 C127_15 1_555 1_555
C132_15 C127_15 1_555 1_555
H88_15 C128_15 1_555 1_555
C135_15 C131_15 1_555 1_555
C136_15 C132_15 1_555 1_555
O43_15 C135_15 1_555 1_555
O44_15 C135_15 1_555 1_555
O49_4 C136_15 1_555 1_555
O52_4 C136_15 1_555 1_555
N21_15 C137_15 1_555 1_555
C137_15 N23_15 1_555 1_555
C138_15 N21_15 1_555 1_555
N23_15 H89_15 1_555 1_555
N24_15 C137_15 1_555 1_555
N25_15 C138_15 1_555 1_555
N26_15 C138_15 1_555 1_555
H90_15 N23_15 1_555 1_555
C139_15 N24_15 1_555 1_555
H91_15 N25_15 1_555 1_555
H92_15 N25_15 1_555 1_555
C140_15 C139_15 1_555 1_555
C141_15 C140_15 1_555 1_555
C142_15 C140_15 1_555 1_555
H93_15 C141_15 1_555 1_555
C143_15 C141_15 1_555 1_555
H94_15 C142_15 1_555 1_555
C144_15 C142_15 1_555 1_555
H95_15 C143_15 1_555 1_555
H96_15 C144_15 1_555 1_555
N20_8 C107_15 1_555 1_555
Zn15_4 O43_15 1_555 1_555
Zn16_3 O44_15 1_555 1_555
O48_10 Zn15_4 1_555 1_555
O51_10 Zn16_3 1_555 1_555
N22_10 C143_15 1_555 1_555
N19_15 C83_15 1_555 1_555
O32_15 Zn14_10 1_555 1_555
O33_15 Zn14_10 1_555 1_555
O34_15 Zn14_10 1_555 1_555
C96_15 C104_15 1_555 1_555
C98_15 C105_15 1_555 1_555
C100_15 C106_15 1_555 1_555
C108_15 N20_8 1_555 1_555
C126_15 C131_15 1_555 1_555
C128_15 C132_15 1_555 1_555
N21_15 Zn15_4 1_555 1_555
N26_15 C139_15 1_555 1_555
C144_15 N22_10 1_555 1_555
O35_15 C103_15 1_555 1_555
C109_15 O35_15 1_555 1_555
C113_15 C109_15 1_555 1_555
C114_15 C109_15 1_555 1_555
H73_15 C113_15 1_555 1_555
C121_15 C113_15 1_555 1_555
H74_15 C114_15 1_555 1_555
C122_15 C114_15 1_555 1_555
C123_15 C115_15 1_555 1_555
H76_15 C116_15 1_555 1_555
C124_15 C116_15 1_555 1_555
H81_15 C121_15 1_555 1_555
C129_15 C121_15 1_555 1_555
H82_15 C122_15 1_555 1_555
C130_15 C123_15 1_555 1_555
H84_15 C124_15 1_555 1_555
C133_15 C129_15 1_555 1_555
C134_15 C130_15 1_555 1_555
O47_5 C133_15 1_555 1_555
O50_5 C133_15 1_555 1_555
O51_8 C134_15 1_555 1_555
C122_15 C129_15 1_555 1_555
C124_15 C130_15 1_555 1_555
H94_16 C142_16 1_555 1_555
C144_16 C142_16 1_555 1_555
H95_16 C143_16 1_555 1_555
H96_16 C144_16 1_555 1_555
N22_7 C143_16 1_555 1_555
C144_16 N22_7 1_555 1_555
Zn13_16 N15_16 1_555 1_555
N15_16 C73_16 1_555 1_555
O27_16 Zn13_16 1_555 1_555
O28_16 Zn13_16 1_555 1_555
O29_16 Zn13_16 1_555 1_555
O30_16 Zn13_16 1_555 1_555
C73_16 N16_16 1_555 1_555
C74_16 N15_16 1_555 1_555
C75_16 O27_16 1_555 1_555
C76_16 O28_16 1_555 1_555
C77_16 O29_16 1_555 1_555
C78_16 O30_16 1_555 1_555
N16_16 H49_16 1_555 1_555
N17_16 C73_16 1_555 1_555
N18_16 C74_16 1_555 1_555
N19_16 C74_16 1_555 1_555
C79_16 C75_16 1_555 1_555
O31_16 C75_16 1_555 1_555
C80_16 C76_16 1_555 1_555
O32_16 C76_16 1_555 1_555
C81_16 C77_16 1_555 1_555
O33_16 C77_16 1_555 1_555
C82_16 C78_16 1_555 1_555
O34_16 C78_16 1_555 1_555
H50_16 N16_16 1_555 1_555
C83_16 N17_16 1_555 1_555
H51_16 N18_16 1_555 1_555
H52_16 N18_16 1_555 1_555
C84_16 C79_16 1_555 1_555
C85_16 C79_16 1_555 1_555
Zn17_6 O31_16 1_555 1_555
C86_16 C80_16 1_555 1_555
C87_16 C80_16 1_555 1_555
C88_16 C81_16 1_555 1_555
C89_16 C81_16 1_555 1_555
C90_16 C82_16 1_555 1_555
C91_16 C82_16 1_555 1_555
C92_16 C83_16 1_555 1_555
H53_16 C84_16 1_555 1_555
C93_16 C84_16 1_555 1_555
H54_16 C85_16 1_555 1_555
C94_16 C85_16 1_555 1_555
H55_16 C86_16 1_555 1_555
C95_16 C86_16 1_555 1_555
H56_16 C87_16 1_555 1_555
C96_16 C87_16 1_555 1_555
H57_16 C88_16 1_555 1_555
C97_16 C88_16 1_555 1_555
H58_16 C89_16 1_555 1_555
C98_16 C89_16 1_555 1_555
H59_16 C90_16 1_555 1_555
C99_16 C90_16 1_555 1_555
H60_16 C91_16 1_555 1_555
C100_16 C91_16 1_555 1_555
C101_16 C92_16 1_555 1_555
C102_16 C92_16 1_555 1_555
H61_16 C93_16 1_555 1_555
C103_16 C93_16 1_555 1_555
H62_16 C94_16 1_555 1_555
H63_16 C95_16 1_555 1_555
C104_16 C95_16 1_555 1_555
H64_16 C96_16 1_555 1_555
H65_16 C97_16 1_555 1_555
C105_16 C97_16 1_555 1_555
H66_16 C98_16 1_555 1_555
H67_16 C99_16 1_555 1_555
C106_16 C99_16 1_555 1_555
H68_16 C100_16 1_555 1_555
H69_16 C101_16 1_555 1_555
C107_16 C101_16 1_555 1_555
H70_16 C102_16 1_555 1_555
C108_16 C102_16 1_555 1_555
O35_16 C103_16 1_555 1_555
O36_16 C104_16 1_555 1_555
O38_16 C106_16 1_555 1_555
H71_16 C107_16 1_555 1_555
H72_16 C108_16 1_555 1_555
C109_16 O35_16 1_555 1_555
C110_16 O36_16 1_555 1_555
C112_16 O38_16 1_555 1_555
C113_16 C109_16 1_555 1_555
C114_16 C109_16 1_555 1_555
C115_16 C110_16 1_555 1_555
C116_16 C110_16 1_555 1_555
H73_16 C113_16 1_555 1_555
C121_16 C113_16 1_555 1_555
H74_16 C114_16 1_555 1_555
C122_16 C114_16 1_555 1_555
H75_16 C115_16 1_555 1_555
C123_16 C115_16 1_555 1_555
H76_16 C116_16 1_555 1_555
C124_16 C116_16 1_555 1_555
H81_16 C121_16 1_555 1_555
C129_16 C121_16 1_555 1_555
H82_16 C122_16 1_555 1_555
H83_16 C123_16 1_555 1_555
C130_16 C123_16 1_555 1_555
H84_16 C124_16 1_555 1_555
C133_16 C129_16 1_555 1_555
C134_16 C130_16 1_555 1_555
O47_6 C133_16 1_555 1_555
O50_6 C133_16 1_555 1_555
O51_10 C134_16 1_555 1_555
O48_10 C134_16 1_555 1_555
N20_10 C107_16 1_555 1_555
N19_16 C83_16 1_555 1_555
O32_16 Zn17_6 1_555 1_555
O33_16 Zn17_6 1_555 1_555
O34_16 Zn17_6 1_555 1_555
C94_16 C103_16 1_555 1_555
C96_16 C104_16 1_555 1_555
C98_16 C105_16 1_555 1_555
C100_16 C106_16 1_555 1_555
C108_16 N20_10 1_555 1_555
C122_16 C129_16 1_555 1_555
C124_16 C130_16 1_555 1_555
C111_16 O37_16 1_555 1_555
C117_16 C111_16 1_555 1_555
C118_16 C111_16 1_555 1_555
H77_16 C117_16 1_555 1_555
C125_16 C117_16 1_555 1_555
H78_16 C118_16 1_555 1_555
C126_16 C118_16 1_555 1_555
C127_16 C119_16 1_555 1_555
H80_16 C120_16 1_555 1_555
C128_16 C120_16 1_555 1_555
H85_16 C125_16 1_555 1_555
C131_16 C125_16 1_555 1_555
H86_16 C126_16 1_555 1_555
H87_16 C127_16 1_555 1_555
C132_16 C127_16 1_555 1_555
H88_16 C128_16 1_555 1_555
C135_16 C131_16 1_555 1_555
C136_16 C132_16 1_555 1_555
O43_16 C135_16 1_555 1_555
O44_16 C135_16 1_555 1_555
O49_6 C136_16 1_555 1_555
O52_6 C136_16 1_555 1_555
N21_16 C137_16 1_555 1_555
C137_16 N23_16 1_555 1_555
C138_16 N21_16 1_555 1_555
N23_16 H89_16 1_555 1_555
N24_16 C137_16 1_555 1_555
N25_16 C138_16 1_555 1_555
N26_16 C138_16 1_555 1_555
H90_16 N23_16 1_555 1_555
C139_16 N24_16 1_555 1_555
H91_16 N25_16 1_555 1_555
H92_16 N25_16 1_555 1_555
C140_16 C139_16 1_555 1_555
C141_16 C140_16 1_555 1_555
H93_16 C141_16 1_555 1_555
Zn22_3 O43_16 1_555 1_555
Zn23_3 O44_16 1_555 1_555
C126_16 C131_16 1_555 1_555
C128_16 C132_16 1_555 1_555
N21_16 Zn22_3 1_555 1_555
N26_16 C139_16 1_555 1_555

#END
