
###############################################################################
#
# This file contains modified crystal structure data generated from the
# MOF subset of the Cambridge Structural Database (CSD) v543 
# hosted by the Cambridge Crystallographic Data Centre (CCDC).
#
# This work is licensed under the Creative Commons
# Attribution-NonCommercial-ShareAlike 4.0 International License.
# To view a copy of this license, visit
# http://creativecommons.org/licenses/by-nc-sa/4.0/
# or send a letter to
# Creative Commons, PO Box 1866, Mountain View, CA 94042, USA.
#
# CIF created using the CSD Python API on 29 September 2022
# The structure has been converted into the P1 space group
# The structure has a 3D framework
# The original CSD entry DORYUG is in the monoclinic crystal system
# The framework has been calculated to contain at least 10.0% void space
# The void calculation uses a probe of radius 1.32A, grid spacing 0.4
#
###############################################################################

data_DORYUG
_chemical_formula_moiety         '(C184 H120 Cu8 N24 O32)n'
_symmetry_cell_setting           triclinic
_symmetry_space_group_name_H-M   'P 1'
_symmetry_Int_Tables_number      1
_space_group_name_Hall           'P 1'
loop_
_symmetry_equiv_pos_site_id
_symmetry_equiv_pos_as_xyz
1 x,y,z
_cell_length_a                   27.579(3)
_cell_length_b                   10.1540(13)
_cell_length_c                   20.350(3)
_cell_angle_alpha                90
_cell_angle_beta                 127.3340(10)
_cell_angle_gamma                90
_cell_volume                     4531.16
loop_
_atom_site_label
_atom_site_type_symbol
_atom_site_fract_x
_atom_site_fract_y
_atom_site_fract_z
Cu1 Cu 0.16050(2) 0.74110(5) 0.26550(3)
O1 O 0.15547(14) 0.5920(3) 0.3308(2)
O2 O 0.1625(2) 0.4740(4) 0.2459(3)
N1 N 0.06853(19) 0.7307(4) 0.1791(3)
N2 N 0.16888(19) 0.2516(3) 0.6685(2)
C1 C 0.0433(2) 0.6516(6) 0.1152(4)
H1 H 0.0687 0.5956 0.1124
C5 C 0.0306(2) 0.8048(6) 0.1832(3)
H4 H 0.0469 0.8593 0.2288
C12 C 0.1912(2) 0.3515(4) 0.6515(3)
H9 H 0.2082 0.4224 0.6879
C13 C 0.1456(3) 0.1513(5) 0.6157(3)
H10 H 0.1302 0.0799 0.6262
C14 C 0.1600(2) 0.4839(5) 0.3048(3)
C15 C 0.1611(2) 0.3594(4) 0.3461(3)
C16 C 0.1592(2) 0.2389(4) 0.3134(3)
H11 H 0.1579 0.2359 0.2667
C17 C 0.1592(2) 0.1229(4) 0.3485(3)
C18 C 0.1633(2) 0.1277(4) 0.4197(3)
H12 H 0.1648 0.0497 0.4449
C19 C 0.1650(2) 0.2481(4) 0.4540(3)
C20 C 0.1643(2) 0.3634(4) 0.4168(3)
H13 H 0.1660 0.4443 0.4396
C21 C 0.1433(3) 0.1477(5) 0.5464(3)
H14 H 0.1257 0.0757 0.5111
C22 C 0.1668(2) 0.2506(4) 0.5285(3)
C23 C 0.1903(2) 0.3552(4) 0.5834(3)
H15 H 0.2057 0.4284 0.5741
Cu3 Cu 0.16050(2) 0.25890(5) 0.76550(3)
O5 O 0.15410(16) 0.8897(3) 0.3413(2)
O6 O 0.1548(2) 0.9932(4) 0.2487(3)
N4 N 0.16888(19) 0.7484(3) 0.1685(2)
N5 N 0.25188(17) 0.7516(3) 0.3543(2)
C11 C 0.1558(2) 0.9921(5) 0.3105(3)
N3 N 0.75188(17) 0.7484(3) 0.8543(2)
C6 C 0.8764(2) 0.7299(4) 0.9852(3)
C7 C 0.8542(2) 0.7038(6) 0.9048(3)
H5 H 0.8808 0.6809 0.8931
C8 C 0.7920(2) 0.7120(5) 0.8417(3)
H6 H 0.7778 0.6911 0.7882
C9 C 0.7734(2) 0.7719(5) 0.9327(3)
H7 H 0.7458 0.7951 0.9428
C10 C 0.8339(2) 0.7636(5) 0.9984(3)
Cu4 Cu 0.66050(2) 0.75890(5) 0.76550(3)
Cu1_2 Cu 0.66050(2) 0.24110(5) 0.26550(3)
O1_2 O 0.65547(14) 0.0920(3) 0.3308(2)
N1_2 N 0.56853(19) 0.2307(4) 0.1791(3)
C1_2 C 0.5433(2) 0.1516(6) 0.1152(4)
H1_2 H 0.5687 0.0956 0.1124
C2 C 0.4820(2) 0.1460(6) 0.0524(4)
H2 H 0.4671 0.0882 0.0086
C3 C 0.4425(2) 0.2261(5) 0.0540(3)
C4 C 0.4684(2) 0.3046(7) 0.1229(4)
H3 H 0.4437 0.3577 0.1287
C5_2 C 0.5306(2) 0.3048(6) 0.1832(3)
H4_2 H 0.5469 0.3593 0.2288
H8 H 0.3466 0.2803 0.0516
O5_2 O 0.65410(16) 0.3897(3) 0.3413(2)
O6_2 O 0.6548(2) 0.4932(4) 0.2487(3)
N4_2 N 0.66888(19) 0.2484(3) 0.1685(2)
N5_2 N 0.75188(17) 0.2516(3) 0.3543(2)
N3_2 N 0.25188(17) 0.2484(3) 0.8543(2)
C6_2 C 0.3764(2) 0.2299(4) 0.9852(3)
C7_2 C 0.3542(2) 0.2038(6) 0.9048(3)
H5_2 H 0.3808 0.1809 0.8931
C8_2 C 0.2920(2) 0.2120(5) 0.8417(3)
H6_2 H 0.2778 0.1911 0.7882
C9_2 C 0.2734(2) 0.2719(5) 0.9327(3)
H7_2 H 0.2458 0.2951 0.9428
C10_2 C 0.3339(2) 0.2636(5) 0.9984(3)
O2_2 O 0.6625(2) 0.9740(4) 0.2459(3)
N2_2 N 0.66888(19) 0.7516(3) 0.6685(2)
C11_2 C 0.6558(2) 0.4921(5) 0.3105(3)
C12_2 C 0.6912(2) 0.8515(4) 0.6515(3)
H9_2 H 0.7082 0.9224 0.6879
C13_2 C 0.6456(3) 0.6513(5) 0.6157(3)
H10_2 H 0.6302 0.5799 0.6262
C14_2 C 0.6600(2) 0.9839(5) 0.3048(3)
C15_2 C 0.6611(2) 0.8594(4) 0.3461(3)
C16_2 C 0.6592(2) 0.7389(4) 0.3134(3)
H11_2 H 0.6579 0.7359 0.2667
C17_2 C 0.6592(2) 0.6229(4) 0.3485(3)
C18_2 C 0.6633(2) 0.6277(4) 0.4197(3)
H12_2 H 0.6648 0.5497 0.4449
C19_2 C 0.6650(2) 0.7481(4) 0.4540(3)
C20_2 C 0.6643(2) 0.8634(4) 0.4168(3)
H13_2 H 0.6660 0.9443 0.4396
C21_2 C 0.6433(3) 0.6477(5) 0.5464(3)
H14_2 H 0.6257 0.5757 0.5111
C22_2 C 0.6668(2) 0.7506(4) 0.5285(3)
C23_2 C 0.6903(2) 0.8552(4) 0.5834(3)
H15_2 H 0.7057 0.9284 0.5741
O3 O 0.15410(16) 0.1103(3) 0.8413(2)
O4 O 0.1548(2) 0.0068(4) 0.7487(3)
C11_3 C 0.1558(2) 0.0079(5) 0.8105(3)
C12_3 C 0.1912(2) 0.6485(4) 0.1515(3)
H9_3 H 0.2082 0.5776 0.1879
C13_3 C 0.1456(3) 0.8487(5) 0.1157(3)
H10_3 H 0.1302 0.9201 0.1262
C21_3 C 0.1433(3) 0.8523(5) 0.0464(3)
H14_3 H 0.1257 0.9243 0.0111
C22_3 C 0.1668(2) 0.7494(4) 0.0285(3)
C23_3 C 0.1903(2) 0.6448(4) 0.0834(3)
H15_3 H 0.2057 0.5716 0.0741
O1_3 O 0.15547(14) 0.4080(3) 0.8308(2)
O2_3 O 0.1625(2) 0.5260(4) 0.7459(3)
N1_3 N 0.06853(19) 0.2693(4) 0.6791(3)
C1_3 C 0.0433(2) 0.3484(6) 0.6152(4)
H1_3 H 0.0687 0.4044 0.6124
C5_3 C 0.0306(2) 0.1952(6) 0.6832(3)
H4_3 H 0.0469 0.1407 0.7288
C14_3 C 0.1600(2) 0.5161(5) 0.8048(3)
C15_3 C 0.1611(2) 0.6406(4) 0.8461(3)
C16_3 C 0.1592(2) 0.7611(4) 0.8134(3)
H11_3 H 0.1579 0.7641 0.7667
C17_3 C 0.1592(2) 0.8771(4) 0.8485(3)
C18_3 C 0.1633(2) 0.8723(4) 0.9197(3)
H12_3 H 0.1648 0.9503 0.9449
C19_3 C 0.1650(2) 0.7519(4) 0.9540(3)
C20_3 C 0.1643(2) 0.6366(4) 0.9168(3)
H13_3 H 0.1660 0.5557 0.9396
C2_2 C 0.9820(2) 0.3540(6) 0.5524(4)
H2_2 H 0.9671 0.4118 0.5086
C3_2 C 0.9425(2) 0.2739(5) 0.5540(3)
C4_2 C 0.9684(2) 0.1954(7) 0.6229(4)
H3_2 H 0.9437 0.1423 0.6287
C6_3 C 0.8764(2) 0.2701(4) 0.4852(3)
C7_3 C 0.8542(2) 0.2962(6) 0.4048(3)
H5_3 H 0.8808 0.3191 0.3931
C8_3 C 0.7920(2) 0.2880(5) 0.3417(3)
H6_3 H 0.7778 0.3089 0.2882
C9_3 C 0.7734(2) 0.2281(5) 0.4327(3)
H7_3 H 0.7458 0.2049 0.4428
C10_3 C 0.8339(2) 0.2364(5) 0.4984(3)
H8_2 H 0.8466 0.2197 0.5516
C12_4 C 0.6912(2) 0.1485(4) 0.1515(3)
H9_4 H 0.7082 0.0776 0.1879
C13_4 C 0.6456(3) 0.3487(5) 0.1157(3)
H10_4 H 0.6302 0.4201 0.1262
C21_4 C 0.6433(3) 0.3523(5) 0.0464(3)
H14_4 H 0.6257 0.4243 0.0111
C22_4 C 0.6668(2) 0.2494(4) 0.0285(3)
C23_4 C 0.6903(2) 0.1448(4) 0.0834(3)
H15_4 H 0.7057 0.0716 0.0741
O2_4 O 0.6625(2) 0.0260(4) 0.7459(3)
O3_2 O 0.65410(16) 0.6103(3) 0.8413(2)
O4_2 O 0.6548(2) 0.5068(4) 0.7487(3)
C11_4 C 0.6558(2) 0.5079(5) 0.8105(3)
C14_4 C 0.6600(2) 0.0161(5) 0.8048(3)
C15_4 C 0.6611(2) 0.1406(4) 0.8461(3)
C16_4 C 0.6592(2) 0.2611(4) 0.8134(3)
H11_4 H 0.6579 0.2641 0.7667
C17_4 C 0.6592(2) 0.3771(4) 0.8485(3)
C18_4 C 0.6633(2) 0.3723(4) 0.9197(3)
H12_4 H 0.6648 0.4503 0.9449
C19_4 C 0.6650(2) 0.2519(4) 0.9540(3)
C20_4 C 0.6643(2) 0.1366(4) 0.9168(3)
H13_4 H 0.6660 0.0557 0.9396
O1_4 O 0.65547(14) 0.9080(3) 0.8308(2)
N1_4 N 0.56853(19) 0.7693(4) 0.6791(3)
C1_4 C 0.5433(2) 0.8484(6) 0.6152(4)
H1_4 H 0.5687 0.9044 0.6124
C2_3 C 0.4820(2) 0.8540(6) 0.5524(4)
H2_3 H 0.4671 0.9118 0.5086
C3_3 C 0.4425(2) 0.7739(5) 0.5540(3)
C4_3 C 0.4684(2) 0.6954(7) 0.6229(4)
H3_3 H 0.4437 0.6423 0.6287
C5_4 C 0.5306(2) 0.6952(6) 0.6832(3)
H4_4 H 0.5469 0.6407 0.7288
C6_4 C 0.3764(2) 0.7701(4) 0.4852(3)
C7_4 C 0.3542(2) 0.7962(6) 0.4048(3)
H5_4 H 0.3808 0.8191 0.3931
C8_4 C 0.2920(2) 0.7880(5) 0.3417(3)
H6_4 H 0.2778 0.8089 0.2882
C9_4 C 0.2734(2) 0.7281(5) 0.4327(3)
H7_4 H 0.2458 0.7049 0.4428
C10_4 C 0.3339(2) 0.7364(5) 0.4984(3)
H8_3 H 0.3466 0.7197 0.5516
C2_4 C 0.9820(2) 0.6460(6) 0.0524(4)
H2_4 H 0.9671 0.5882 0.0086
C3_4 C 0.9425(2) 0.7261(5) 0.0540(3)
C4_4 C 0.9684(2) 0.8046(7) 0.1229(4)
H3_4 H 0.9437 0.8577 0.1287
H8_4 H 0.8466 0.7803 0.0516
N3_3 N 0.24812(17) 0.7484(3) 0.6457(2)
C2_5 C 0.0180(2) 0.6460(6) 0.4476(4)
H2_5 H 0.0329 0.5882 0.4914
C3_5 C 0.0575(2) 0.7261(5) 0.4460(3)
C4_5 C 0.0316(2) 0.8046(7) 0.3771(4)
H3_5 H 0.0563 0.8577 0.3713
C6_5 C 0.1236(2) 0.7299(4) 0.5148(3)
C7_5 C 0.1458(2) 0.7038(6) 0.5952(3)
H5_5 H 0.1192 0.6809 0.6069
C8_5 C 0.2080(2) 0.7120(5) 0.6583(3)
H6_5 H 0.2222 0.6911 0.7118
C9_5 C 0.2266(2) 0.7719(5) 0.5673(3)
H7_5 H 0.2542 0.7951 0.5572
C10_5 C 0.1661(2) 0.7636(5) 0.5016(3)
H8_5 H 0.1534 0.7803 0.4484
Cu4_2 Cu 0.33950(2) 0.75890(5) 0.73450(3)
Cu1_3 Cu 0.83950(2) 0.74110(5) 0.23450(3)
O1_5 O 0.84453(14) 0.5920(3) 0.1692(2)
O2_5 O 0.8375(2) 0.4740(4) 0.2541(3)
N1_5 N 0.93147(19) 0.7307(4) 0.3209(3)
C1_5 C 0.9567(2) 0.6516(6) 0.3848(4)
H1_5 H 0.9313 0.5956 0.3876
C5_5 C 0.9694(2) 0.8048(6) 0.3168(3)
H4_5 H 0.9531 0.8593 0.2712
C14_5 C 0.8400(2) 0.4839(5) 0.1952(3)
C15_5 C 0.8389(2) 0.3594(4) 0.1539(3)
C16_5 C 0.8408(2) 0.2389(4) 0.1866(3)
H11_5 H 0.8421 0.2359 0.2333
C17_5 C 0.8408(2) 0.1229(4) 0.1515(3)
C18_5 C 0.8367(2) 0.1277(4) 0.0803(3)
H12_5 H 0.8352 0.0497 0.0551
C19_5 C 0.8350(2) 0.2481(4) 0.0460(3)
C20_5 C 0.8357(2) 0.3634(4) 0.0832(3)
H13_5 H 0.8340 0.4443 0.0604
O5_3 O 0.84590(16) 0.8897(3) 0.1587(2)
O6_3 O 0.8452(2) 0.9932(4) 0.2513(3)
N4_3 N 0.83112(19) 0.7484(3) 0.3315(2)
N5_3 N 0.74812(17) 0.7516(3) 0.1457(2)
N2_3 N 0.83112(19) 0.2516(3) 0.8315(2)
C12_5 C 0.8088(2) 0.3515(4) 0.8485(3)
H9_5 H 0.7918 0.4224 0.8121
C13_5 C 0.8544(3) 0.1513(5) 0.8843(3)
H10_5 H 0.8698 0.0799 0.8738
C21_5 C 0.8567(3) 0.1477(5) 0.9536(3)
H14_5 H 0.8743 0.0757 0.9889
C22_5 C 0.8332(2) 0.2506(4) 0.9715(3)
C23_5 C 0.8097(2) 0.3552(4) 0.9166(3)
H15_5 H 0.7943 0.4284 0.9259
Cu3_2 Cu 0.83950(2) 0.25890(5) 0.73450(3)
C11_5 C 0.8442(2) 0.9921(5) 0.1895(3)
Cu1_4 Cu 0.33950(2) 0.24110(5) 0.23450(3)
O1_6 O 0.34453(14) 0.0920(3) 0.1692(2)
N1_6 N 0.43147(19) 0.2307(4) 0.3209(3)
N3_4 N 0.74812(17) 0.2484(3) 0.6457(2)
C1_6 C 0.4567(2) 0.1516(6) 0.3848(4)
H1_6 H 0.4313 0.0956 0.3876
C2_6 C 0.5180(2) 0.1460(6) 0.4476(4)
H2_6 H 0.5329 0.0882 0.4914
C3_6 C 0.5575(2) 0.2261(5) 0.4460(3)
C4_6 C 0.5316(2) 0.3046(7) 0.3771(4)
H3_6 H 0.5563 0.3577 0.3713
C5_6 C 0.4694(2) 0.3048(6) 0.3168(3)
H4_6 H 0.4531 0.3593 0.2712
C6_6 C 0.6236(2) 0.2299(4) 0.5148(3)
C7_6 C 0.6458(2) 0.2038(6) 0.5952(3)
H5_6 H 0.6192 0.1809 0.6069
C8_6 C 0.7080(2) 0.2120(5) 0.6583(3)
H6_6 H 0.7222 0.1911 0.7118
C9_6 C 0.7266(2) 0.2719(5) 0.5673(3)
H7_6 H 0.7542 0.2951 0.5572
C10_6 C 0.6661(2) 0.2636(5) 0.5016(3)
H8_6 H 0.6534 0.2803 0.4484
O5_4 O 0.34590(16) 0.3897(3) 0.1587(2)
O6_4 O 0.3452(2) 0.4932(4) 0.2513(3)
N4_4 N 0.33112(19) 0.2484(3) 0.3315(2)
N5_4 N 0.24812(17) 0.2516(3) 0.1457(2)
O2_6 O 0.3375(2) 0.9740(4) 0.2541(3)
C11_6 C 0.3442(2) 0.4921(5) 0.1895(3)
C14_6 C 0.3400(2) 0.9839(5) 0.1952(3)
C15_6 C 0.3389(2) 0.8594(4) 0.1539(3)
C16_6 C 0.3408(2) 0.7389(4) 0.1866(3)
H11_6 H 0.3421 0.7359 0.2333
C17_6 C 0.3408(2) 0.6229(4) 0.1515(3)
C18_6 C 0.3367(2) 0.6277(4) 0.0803(3)
H12_6 H 0.3352 0.5497 0.0551
C19_6 C 0.3350(2) 0.7481(4) 0.0460(3)
C20_6 C 0.3357(2) 0.8634(4) 0.0832(3)
H13_6 H 0.3340 0.9443 0.0604
N2_4 N 0.33112(19) 0.7516(3) 0.8315(2)
C12_6 C 0.3088(2) 0.8515(4) 0.8485(3)
H9_6 H 0.2918 0.9224 0.8121
C13_6 C 0.3544(3) 0.6513(5) 0.8843(3)
H10_6 H 0.3698 0.5799 0.8738
C21_6 C 0.3567(3) 0.6477(5) 0.9536(3)
H14_6 H 0.3743 0.5757 0.9889
C22_6 C 0.3332(2) 0.7506(4) 0.9715(3)
C23_6 C 0.3097(2) 0.8552(4) 0.9166(3)
H15_6 H 0.2943 0.9284 0.9259
C6_7 C 0.1236(2) 0.2701(4) 0.0148(3)
C7_7 C 0.1458(2) 0.2962(6) 0.0952(3)
H5_7 H 0.1192 0.3191 0.1069
C8_7 C 0.2080(2) 0.2880(5) 0.1583(3)
H6_7 H 0.2222 0.3089 0.2118
C9_7 C 0.2266(2) 0.2281(5) 0.0673(3)
H7_7 H 0.2542 0.2049 0.0572
C10_7 C 0.1661(2) 0.2364(5) 0.0016(3)
O3_3 O 0.84590(16) 0.1103(3) 0.6587(2)
O4_3 O 0.8452(2) 0.0068(4) 0.7513(3)
C11_7 C 0.8442(2) 0.0079(5) 0.6895(3)
O1_7 O 0.84453(14) 0.4080(3) 0.6692(2)
O2_7 O 0.8375(2) 0.5260(4) 0.7541(3)
N1_7 N 0.93147(19) 0.2693(4) 0.8209(3)
C1_7 C 0.9567(2) 0.3484(6) 0.8848(4)
H1_7 H 0.9313 0.4044 0.8876
C5_7 C 0.9694(2) 0.1952(6) 0.8168(3)
H4_7 H 0.9531 0.1407 0.7712
C12_7 C 0.8088(2) 0.6485(4) 0.3485(3)
H9_7 H 0.7918 0.5776 0.3121
C13_7 C 0.8544(3) 0.8487(5) 0.3843(3)
H10_7 H 0.8698 0.9201 0.3738
C14_7 C 0.8400(2) 0.5161(5) 0.6952(3)
C15_7 C 0.8389(2) 0.6406(4) 0.6539(3)
C16_7 C 0.8408(2) 0.7611(4) 0.6866(3)
H11_7 H 0.8421 0.7641 0.7333
C17_7 C 0.8408(2) 0.8771(4) 0.6515(3)
C18_7 C 0.8367(2) 0.8723(4) 0.5803(3)
H12_7 H 0.8352 0.9503 0.5551
C19_7 C 0.8350(2) 0.7519(4) 0.5460(3)
C20_7 C 0.8357(2) 0.6366(4) 0.5832(3)
H13_7 H 0.8340 0.5557 0.5604
C21_7 C 0.8567(3) 0.8523(5) 0.4536(3)
H14_7 H 0.8743 0.9243 0.4889
C22_7 C 0.8332(2) 0.7494(4) 0.4715(3)
C23_7 C 0.8097(2) 0.6448(4) 0.4166(3)
H15_7 H 0.7943 0.5716 0.4259
O2_8 O 0.3375(2) 0.0260(4) 0.7541(3)
O3_4 O 0.34590(16) 0.6103(3) 0.6587(2)
O4_4 O 0.3452(2) 0.5068(4) 0.7513(3)
C11_8 C 0.3442(2) 0.5079(5) 0.6895(3)
C12_8 C 0.3088(2) 0.1485(4) 0.3485(3)
H9_8 H 0.2918 0.0776 0.3121
C13_8 C 0.3544(3) 0.3487(5) 0.3843(3)
H10_8 H 0.3698 0.4201 0.3738
C14_8 C 0.3400(2) 0.0161(5) 0.6952(3)
C15_8 C 0.3389(2) 0.1406(4) 0.6539(3)
C16_8 C 0.3408(2) 0.2611(4) 0.6866(3)
H11_8 H 0.3421 0.2641 0.7333
C17_8 C 0.3408(2) 0.3771(4) 0.6515(3)
C18_8 C 0.3367(2) 0.3723(4) 0.5803(3)
H12_8 H 0.3352 0.4503 0.5551
C19_8 C 0.3350(2) 0.2519(4) 0.5460(3)
C20_8 C 0.3357(2) 0.1366(4) 0.5832(3)
H13_8 H 0.3340 0.0557 0.5604
C21_8 C 0.3567(3) 0.3523(5) 0.4536(3)
H14_8 H 0.3743 0.4243 0.4889
C22_8 C 0.3332(2) 0.2494(4) 0.4715(3)
C23_8 C 0.3097(2) 0.1448(4) 0.4166(3)
H15_8 H 0.2943 0.0716 0.4259
C6_8 C 0.6236(2) 0.7701(4) 0.0148(3)
C7_8 C 0.6458(2) 0.7962(6) 0.0952(3)
H5_8 H 0.6192 0.8191 0.1069
C8_8 C 0.7080(2) 0.7880(5) 0.1583(3)
H6_8 H 0.7222 0.8089 0.2118
C9_8 C 0.7266(2) 0.7281(5) 0.0673(3)
H7_8 H 0.7542 0.7049 0.0572
C10_8 C 0.6661(2) 0.7364(5) 0.0016(3)
O1_8 O 0.34453(14) 0.9080(3) 0.6692(2)
N1_8 N 0.43147(19) 0.7693(4) 0.8209(3)
C1_8 C 0.4567(2) 0.8484(6) 0.8848(4)
H1_8 H 0.4313 0.9044 0.8876
C2_7 C 0.5180(2) 0.8540(6) 0.9476(4)
H2_7 H 0.5329 0.9118 0.9914
C3_7 C 0.5575(2) 0.7739(5) 0.9460(3)
C4_7 C 0.5316(2) 0.6954(7) 0.8771(4)
H3_7 H 0.5563 0.6423 0.8713
C5_8 C 0.4694(2) 0.6952(6) 0.8168(3)
H4_8 H 0.4531 0.6407 0.7712
H8_7 H 0.6534 0.7197 0.9484
C2_8 C 0.0180(2) 0.3540(6) 0.9476(4)
H2_8 H 0.0329 0.4118 0.9914
C3_8 C 0.0575(2) 0.2739(5) 0.9460(3)
C4_8 C 0.0316(2) 0.1954(7) 0.8771(4)
H3_8 H 0.0563 0.1423 0.8713
H8_8 H 0.1534 0.2197 0.9484
loop_
_geom_bond_atom_site_label_1
_geom_bond_atom_site_label_2
_geom_bond_site_symmetry_1
_geom_bond_site_symmetry_2
Cu1 O1 1_555 1_555
O1 C14 1_555 1_555
O2 Cu1 1_555 1_555
N1 Cu1 1_555 1_555
N2 C12 1_555 1_555
C1 N1 1_555 1_555
H1 C1 1_555 1_555
C5 N1 1_555 1_555
H4 C5 1_555 1_555
C12 H9 1_555 1_555
C13 N2 1_555 1_555
H10 C13 1_555 1_555
C14 O2 1_555 1_555
C15 C14 1_555 1_555
C16 C15 1_555 1_555
H11 C16 1_555 1_555
C17 C16 1_555 1_555
C18 C17 1_555 1_555
H12 C18 1_555 1_555
C19 C18 1_555 1_555
C20 C15 1_555 1_555
H13 C20 1_555 1_555
C21 C13 1_555 1_555
H14 C21 1_555 1_555
C22 C19 1_555 1_555
C23 C12 1_555 1_555
H15 C23 1_555 1_555
Cu3 N2 1_555 1_555
O5 Cu1 1_555 1_555
O6 Cu1 1_555 1_555
N4 Cu1 1_555 1_555
N5 Cu1 1_555 1_555
C19 C20 1_555 1_555
C21 C22 1_555 1_555
C22 C23 1_555 1_555
O5 C11 1_555 1_555
O6 C11 1_555 1_555
N3 C8 1_555 1_555
C7 C6 1_555 1_555
H5 C7 1_555 1_555
C8 C7 1_555 1_555
H6 C8 1_555 1_555
C9 N3 1_555 1_555
H7 C9 1_555 1_555
C10 C6 1_555 1_555
Cu4 N3 1_555 1_555
C9 C10 1_555 1_555
Cu1_2 O1_2 1_555 1_555
N1_2 Cu1_2 1_555 1_555
C1_2 N1_2 1_555 1_555
H1_2 C1_2 1_555 1_555
C2 C1_2 1_555 1_555
H2 C2 1_555 1_555
C3 C2 1_555 1_555
C4 C3 1_555 1_555
H3 C4 1_555 1_555
C5_2 N1_2 1_555 1_555
H4_2 C5_2 1_555 1_555
O5_2 Cu1_2 1_555 1_555
O6_2 Cu1_2 1_555 1_555
N4_2 Cu1_2 1_555 1_555
N5_2 Cu1_2 1_555 1_555
C4 C5_2 1_555 1_555
N3_2 C8_2 1_555 1_555
C7_2 C6_2 1_555 1_555
H5_2 C7_2 1_555 1_555
C8_2 C7_2 1_555 1_555
H6_2 C8_2 1_555 1_555
C9_2 N3_2 1_555 1_555
H7_2 C9_2 1_555 1_555
C10_2 C6_2 1_555 1_555
Cu3 N3_2 1_555 1_555
C9_2 C10_2 1_555 1_555
O5_2 C11_2 1_555 1_555
O6_2 C11_2 1_555 1_555
N2_2 C12_2 1_555 1_555
C11_2 C17_2 1_555 1_555
C12_2 H9_2 1_555 1_555
C13_2 N2_2 1_555 1_555
H10_2 C13_2 1_555 1_555
C14_2 O2_2 1_555 1_555
C15_2 C14_2 1_555 1_555
C16_2 C15_2 1_555 1_555
H11_2 C16_2 1_555 1_555
C17_2 C16_2 1_555 1_555
C18_2 C17_2 1_555 1_555
H12_2 C18_2 1_555 1_555
C19_2 C18_2 1_555 1_555
C20_2 C15_2 1_555 1_555
H13_2 C20_2 1_555 1_555
C21_2 C13_2 1_555 1_555
H14_2 C21_2 1_555 1_555
C22_2 C19_2 1_555 1_555
C23_2 C12_2 1_555 1_555
H15_2 C23_2 1_555 1_555
Cu4 N2_2 1_555 1_555
C19_2 C20_2 1_555 1_555
C21_2 C22_2 1_555 1_555
C22_2 C23_2 1_555 1_555
O3 C11_3 1_555 1_555
O4 C11_3 1_555 1_555
Cu3 O3 1_555 1_555
O4 Cu3 1_555 1_555
N4 C12_3 1_555 1_555
C12_3 H9_3 1_555 1_555
C13_3 N4 1_555 1_555
H10_3 C13_3 1_555 1_555
C21_3 C13_3 1_555 1_555
H14_3 C21_3 1_555 1_555
C23_3 C12_3 1_555 1_555
H15_3 C23_3 1_555 1_555
C21_3 C22_3 1_555 1_555
C22_3 C23_3 1_555 1_555
Cu3 O1_3 1_555 1_555
O1_3 C14_3 1_555 1_555
O2_3 Cu3 1_555 1_555
N1_3 Cu3 1_555 1_555
C1_3 N1_3 1_555 1_555
H1_3 C1_3 1_555 1_555
C5_3 N1_3 1_555 1_555
H4_3 C5_3 1_555 1_555
C14_3 O2_3 1_555 1_555
C15_3 C14_3 1_555 1_555
C16_3 C15_3 1_555 1_555
H11_3 C16_3 1_555 1_555
C17_3 C16_3 1_555 1_555
C18_3 C17_3 1_555 1_555
H12_3 C18_3 1_555 1_555
C19_3 C18_3 1_555 1_555
C20_3 C15_3 1_555 1_555
H13_3 C20_3 1_555 1_555
C19_3 C20_3 1_555 1_555
N5_2 C8_3 1_555 1_555
H2_2 C2_2 1_555 1_555
C3_2 C2_2 1_555 1_555
C4_2 C3_2 1_555 1_555
H3_2 C4_2 1_555 1_555
C6_3 C3_2 1_555 1_555
C7_3 C6_3 1_555 1_555
H5_3 C7_3 1_555 1_555
C8_3 C7_3 1_555 1_555
H6_3 C8_3 1_555 1_555
C9_3 N5_2 1_555 1_555
H7_3 C9_3 1_555 1_555
C10_3 C6_3 1_555 1_555
H8_2 C10_3 1_555 1_555
C9_3 C10_3 1_555 1_555
N4_2 C12_4 1_555 1_555
C12_4 H9_4 1_555 1_555
C13_4 N4_2 1_555 1_555
H10_4 C13_4 1_555 1_555
C21_4 C13_4 1_555 1_555
H14_4 C21_4 1_555 1_555
C23_4 C12_4 1_555 1_555
H15_4 C23_4 1_555 1_555
C21_4 C22_4 1_555 1_555
C22_4 C23_4 1_555 1_555
O3_2 C11_4 1_555 1_555
O4_2 C11_4 1_555 1_555
C11_4 C17_4 1_555 1_555
C14_4 O2_4 1_555 1_555
C15_4 C14_4 1_555 1_555
C16_4 C15_4 1_555 1_555
H11_4 C16_4 1_555 1_555
C17_4 C16_4 1_555 1_555
C18_4 C17_4 1_555 1_555
H12_4 C18_4 1_555 1_555
C19_4 C18_4 1_555 1_555
C20_4 C15_4 1_555 1_555
H13_4 C20_4 1_555 1_555
Cu4 O3_2 1_555 1_555
O4_2 Cu4 1_555 1_555
C19_4 C20_4 1_555 1_555
Cu4 O1_4 1_555 1_555
N1_4 Cu4 1_555 1_555
N5 C8_4 1_555 1_555
C1_4 N1_4 1_555 1_555
H1_4 C1_4 1_555 1_555
C2_3 C1_4 1_555 1_555
H2_3 C2_3 1_555 1_555
C3_3 C2_3 1_555 1_555
C4_3 C3_3 1_555 1_555
H3_3 C4_3 1_555 1_555
C5_4 N1_4 1_555 1_555
H4_4 C5_4 1_555 1_555
C6_4 C3_3 1_555 1_555
C7_4 C6_4 1_555 1_555
H5_4 C7_4 1_555 1_555
C8_4 C7_4 1_555 1_555
H6_4 C8_4 1_555 1_555
C9_4 N5 1_555 1_555
H7_4 C9_4 1_555 1_555
C10_4 C6_4 1_555 1_555
H8_3 C10_4 1_555 1_555
C4_3 C5_4 1_555 1_555
C9_4 C10_4 1_555 1_555
H2_4 C2_4 1_555 1_555
C3_4 C2_4 1_555 1_555
C4_4 C3_4 1_555 1_555
H3_4 C4_4 1_555 1_555
N3_3 C8_5 1_555 1_555
H2_5 C2_5 1_555 1_555
C3_5 C2_5 1_555 1_555
C4_5 C3_5 1_555 1_555
H3_5 C4_5 1_555 1_555
C6_5 C3_5 1_555 1_555
C7_5 C6_5 1_555 1_555
H5_5 C7_5 1_555 1_555
C8_5 C7_5 1_555 1_555
H6_5 C8_5 1_555 1_555
C9_5 N3_3 1_555 1_555
H7_5 C9_5 1_555 1_555
C10_5 C6_5 1_555 1_555
H8_5 C10_5 1_555 1_555
Cu4_2 N3_3 1_555 1_555
C9_5 C10_5 1_555 1_555
Cu1_3 O1_5 1_555 1_555
O1_5 C14_5 1_555 1_555
O2_5 Cu1_3 1_555 1_555
N1_5 Cu1_3 1_555 1_555
C1_5 N1_5 1_555 1_555
H1_5 C1_5 1_555 1_555
C5_5 N1_5 1_555 1_555
H4_5 C5_5 1_555 1_555
C14_5 O2_5 1_555 1_555
C15_5 C14_5 1_555 1_555
C16_5 C15_5 1_555 1_555
H11_5 C16_5 1_555 1_555
C17_5 C16_5 1_555 1_555
C18_5 C17_5 1_555 1_555
H12_5 C18_5 1_555 1_555
C19_5 C18_5 1_555 1_555
C20_5 C15_5 1_555 1_555
H13_5 C20_5 1_555 1_555
O5_3 Cu1_3 1_555 1_555
O6_3 Cu1_3 1_555 1_555
N4_3 Cu1_3 1_555 1_555
N5_3 Cu1_3 1_555 1_555
C19_5 C20_5 1_555 1_555
N2_3 C12_5 1_555 1_555
C12_5 H9_5 1_555 1_555
C13_5 N2_3 1_555 1_555
H10_5 C13_5 1_555 1_555
C21_5 C13_5 1_555 1_555
H14_5 C21_5 1_555 1_555
C23_5 C12_5 1_555 1_555
H15_5 C23_5 1_555 1_555
Cu3_2 N2_3 1_555 1_555
C21_5 C22_5 1_555 1_555
C22_5 C23_5 1_555 1_555
O5_3 C11_5 1_555 1_555
O6_3 C11_5 1_555 1_555
Cu1_4 O1_6 1_555 1_555
N1_6 Cu1_4 1_555 1_555
N3_4 C8_6 1_555 1_555
C1_6 N1_6 1_555 1_555
H1_6 C1_6 1_555 1_555
C2_6 C1_6 1_555 1_555
H2_6 C2_6 1_555 1_555
C3_6 C2_6 1_555 1_555
C4_6 C3_6 1_555 1_555
H3_6 C4_6 1_555 1_555
C5_6 N1_6 1_555 1_555
H4_6 C5_6 1_555 1_555
C6_6 C3_6 1_555 1_555
C7_6 C6_6 1_555 1_555
H5_6 C7_6 1_555 1_555
C8_6 C7_6 1_555 1_555
H6_6 C8_6 1_555 1_555
C9_6 N3_4 1_555 1_555
H7_6 C9_6 1_555 1_555
C10_6 C6_6 1_555 1_555
H8_6 C10_6 1_555 1_555
Cu3_2 N3_4 1_555 1_555
O5_4 Cu1_4 1_555 1_555
O6_4 Cu1_4 1_555 1_555
N4_4 Cu1_4 1_555 1_555
N5_4 Cu1_4 1_555 1_555
C4_6 C5_6 1_555 1_555
C9_6 C10_6 1_555 1_555
O5_4 C11_6 1_555 1_555
O6_4 C11_6 1_555 1_555
C11_6 C17_6 1_555 1_555
C14_6 O2_6 1_555 1_555
C15_6 C14_6 1_555 1_555
C16_6 C15_6 1_555 1_555
H11_6 C16_6 1_555 1_555
C17_6 C16_6 1_555 1_555
C18_6 C17_6 1_555 1_555
H12_6 C18_6 1_555 1_555
C19_6 C18_6 1_555 1_555
C20_6 C15_6 1_555 1_555
H13_6 C20_6 1_555 1_555
C19_6 C20_6 1_555 1_555
N2_4 C12_6 1_555 1_555
C12_6 H9_6 1_555 1_555
C13_6 N2_4 1_555 1_555
H10_6 C13_6 1_555 1_555
C21_6 C13_6 1_555 1_555
H14_6 C21_6 1_555 1_555
C23_6 C12_6 1_555 1_555
H15_6 C23_6 1_555 1_555
Cu4_2 N2_4 1_555 1_555
C21_6 C22_6 1_555 1_555
C22_6 C23_6 1_555 1_555
N5_4 C8_7 1_555 1_555
C7_7 C6_7 1_555 1_555
H5_7 C7_7 1_555 1_555
C8_7 C7_7 1_555 1_555
H6_7 C8_7 1_555 1_555
C9_7 N5_4 1_555 1_555
H7_7 C9_7 1_555 1_555
C10_7 C6_7 1_555 1_555
C9_7 C10_7 1_555 1_555
O3_3 C11_7 1_555 1_555
O4_3 C11_7 1_555 1_555
Cu3_2 O3_3 1_555 1_555
O4_3 Cu3_2 1_555 1_555
Cu3_2 O1_7 1_555 1_555
O1_7 C14_7 1_555 1_555
O2_7 Cu3_2 1_555 1_555
N1_7 Cu3_2 1_555 1_555
N4_3 C12_7 1_555 1_555
C1_7 N1_7 1_555 1_555
H1_7 C1_7 1_555 1_555
C5_7 N1_7 1_555 1_555
H4_7 C5_7 1_555 1_555
C12_7 H9_7 1_555 1_555
C13_7 N4_3 1_555 1_555
H10_7 C13_7 1_555 1_555
C14_7 O2_7 1_555 1_555
C15_7 C14_7 1_555 1_555
C16_7 C15_7 1_555 1_555
H11_7 C16_7 1_555 1_555
C17_7 C16_7 1_555 1_555
C18_7 C17_7 1_555 1_555
H12_7 C18_7 1_555 1_555
C19_7 C18_7 1_555 1_555
C20_7 C15_7 1_555 1_555
H13_7 C20_7 1_555 1_555
C21_7 C13_7 1_555 1_555
H14_7 C21_7 1_555 1_555
C22_7 C19_7 1_555 1_555
C23_7 C12_7 1_555 1_555
H15_7 C23_7 1_555 1_555
C19_7 C20_7 1_555 1_555
C21_7 C22_7 1_555 1_555
C22_7 C23_7 1_555 1_555
O3_4 C11_8 1_555 1_555
O4_4 C11_8 1_555 1_555
N4_4 C12_8 1_555 1_555
C11_8 C17_8 1_555 1_555
C12_8 H9_8 1_555 1_555
C13_8 N4_4 1_555 1_555
H10_8 C13_8 1_555 1_555
C14_8 O2_8 1_555 1_555
C15_8 C14_8 1_555 1_555
C16_8 C15_8 1_555 1_555
H11_8 C16_8 1_555 1_555
C17_8 C16_8 1_555 1_555
C18_8 C17_8 1_555 1_555
H12_8 C18_8 1_555 1_555
C19_8 C18_8 1_555 1_555
C20_8 C15_8 1_555 1_555
H13_8 C20_8 1_555 1_555
C21_8 C13_8 1_555 1_555
H14_8 C21_8 1_555 1_555
C22_8 C19_8 1_555 1_555
C23_8 C12_8 1_555 1_555
H15_8 C23_8 1_555 1_555
Cu4_2 O3_4 1_555 1_555
O4_4 Cu4_2 1_555 1_555
C19_8 C20_8 1_555 1_555
C21_8 C22_8 1_555 1_555
C22_8 C23_8 1_555 1_555
N5_3 C8_8 1_555 1_555
C7_8 C6_8 1_555 1_555
H5_8 C7_8 1_555 1_555
C8_8 C7_8 1_555 1_555
H6_8 C8_8 1_555 1_555
C9_8 N5_3 1_555 1_555
H7_8 C9_8 1_555 1_555
C10_8 C6_8 1_555 1_555
C9_8 C10_8 1_555 1_555
Cu4_2 O1_8 1_555 1_555
N1_8 Cu4_2 1_555 1_555
C1_8 N1_8 1_555 1_555
H1_8 C1_8 1_555 1_555
C2_7 C1_8 1_555 1_555
H2_7 C2_7 1_555 1_555
C3_7 C2_7 1_555 1_555
C4_7 C3_7 1_555 1_555
H3_7 C4_7 1_555 1_555
C5_8 N1_8 1_555 1_555
H4_8 C5_8 1_555 1_555
C4_7 C5_8 1_555 1_555
H2_8 C2_8 1_555 1_555
C3_8 C2_8 1_555 1_555
C4_8 C3_8 1_555 1_555
H3_8 C4_8 1_555 1_555

#END
