
###############################################################################
#
# This file contains modified crystal structure data generated from the
# MOF subset of the Cambridge Structural Database (CSD) v543 
# hosted by the Cambridge Crystallographic Data Centre (CCDC).
#
# This work is licensed under the Creative Commons
# Attribution-NonCommercial-ShareAlike 4.0 International License.
# To view a copy of this license, visit
# http://creativecommons.org/licenses/by-nc-sa/4.0/
# or send a letter to
# Creative Commons, PO Box 1866, Mountain View, CA 94042, USA.
#
# CIF created using the CSD Python API on 29 September 2022
# The structure has been converted into the P1 space group
# The structure has a 3D framework
# The original CSD entry DOTFID is in the monoclinic crystal system
# The framework has been calculated to contain at least 10.0% void space
# The void calculation uses a probe of radius 1.32A, grid spacing 0.4
# The framework is charged, counterions have been retained in the structure
#
###############################################################################

data_DOTFID
_chemical_formula_moiety         '(C480 H408 Cl24 Cu14 N72 O196)n'
_symmetry_cell_setting           triclinic
_symmetry_space_group_name_H-M   'P 1'
_symmetry_Int_Tables_number      1
_space_group_name_Hall           'P 1'
loop_
_symmetry_equiv_pos_site_id
_symmetry_equiv_pos_as_xyz
1 x,y,z
_cell_length_a                   41.1895(11)
_cell_length_b                   20.6334(4)
_cell_length_c                   27.0979(8)
_cell_angle_alpha                90
_cell_angle_beta                 129.772(3)
_cell_angle_gamma                90
_cell_volume                     17700.7
loop_
_atom_site_label
_atom_site_type_symbol
_atom_site_fract_x
_atom_site_fract_y
_atom_site_fract_z
O1 O 0.5818(18) 0.000(4) 0.921(4)
O2 O 0.6620(10) 0.003(4) 0.958(3)
O4 O 0.592(2) 0.012(5) 0.830(2)
Cl1 Cl 0.6117(5) 0.9780(7) 0.9008(8)
O1_2 O 0.5818(18) 1.000(4) 0.921(4)
O3 O 0.611(3) 0.8963(10) 0.894(5)
O1_3 O 0.4182(18) 0.000(4) 0.579(4)
O2_2 O 0.3380(10) 0.003(4) 0.542(3)
O4_2 O 0.408(2) 0.012(5) 0.670(2)
Cl1_2 Cl 0.3883(5) 0.9780(7) 0.5992(8)
O1_4 O 0.4182(18) 1.000(4) 0.579(4)
O3_2 O 0.389(3) 0.8963(10) 0.606(5)
Cl1_3 Cl 0.1117(5) 0.4780(7) 0.9008(8)
O1_5 O 0.0818(18) 0.500(4) 0.921(4)
O2_3 O 0.1620(10) 0.503(4) 0.958(3)
O3_3 O 0.111(3) 0.3963(10) 0.894(5)
O4_3 O 0.092(2) 0.512(5) 0.830(2)
Cl1_4 Cl 0.8883(5) 0.4780(7) 0.5992(8)
O1_6 O 0.9182(18) 0.500(4) 0.579(4)
O2_4 O 0.8380(10) 0.503(4) 0.542(3)
O3_4 O 0.889(3) 0.3963(10) 0.606(5)
O4_4 O 0.908(2) 0.512(5) 0.670(2)
Cl1_5 Cl 0.3883(5) 0.0220(7) 0.0992(8)
O1_7 O 0.4182(18) 0.000(4) 0.079(4)
O3_5 O 0.389(3) 0.1037(10) 0.106(5)
O1_8 O 0.4182(18) 1.000(4) 0.079(4)
O2_5 O 0.3380(10) 0.997(4) 0.042(3)
O4_5 O 0.408(2) 0.988(5) 0.170(2)
Cl1_6 Cl 0.6117(5) 0.0220(7) 0.4008(8)
O1_9 O 0.5818(18) 0.000(4) 0.421(4)
O3_6 O 0.611(3) 0.1037(10) 0.394(5)
O1_10 O 0.5818(18) 1.000(4) 0.421(4)
O2_6 O 0.6620(10) 0.997(4) 0.458(3)
O4_6 O 0.592(2) 0.988(5) 0.330(2)
Cl1_7 Cl 0.8883(5) 0.5220(7) 0.0992(8)
O1_11 O 0.9182(18) 0.500(4) 0.079(4)
O2_7 O 0.8380(10) 0.497(4) 0.042(3)
O3_7 O 0.889(3) 0.6037(10) 0.106(5)
O4_7 O 0.908(2) 0.488(5) 0.170(2)
Cl1_8 Cl 0.1117(5) 0.5220(7) 0.4008(8)
O1_12 O 0.0818(18) 0.500(4) 0.421(4)
O2_8 O 0.1620(10) 0.497(4) 0.458(3)
O3_8 O 0.111(3) 0.6037(10) 0.394(5)
O4_8 O 0.092(2) 0.488(5) 0.330(2)
Cl2 Cl 0.8635(9) 0.1295(16) 0.8545(13)
O5 O 0.909(2) 0.129(6) 0.867(5)
O6 O 0.829(3) 0.180(5) 0.792(4)
O7 O 0.873(3) 0.156(5) 0.921(3)
O8 O 0.843(4) 0.054(3) 0.837(5)
Cl2_2 Cl 0.1365(9) 0.1295(16) 0.6455(13)
O5_2 O 0.091(2) 0.129(6) 0.633(5)
O6_2 O 0.171(3) 0.180(5) 0.708(4)
O7_2 O 0.127(3) 0.156(5) 0.579(3)
O8_2 O 0.157(4) 0.054(3) 0.663(5)
Cl2_3 Cl 0.3635(9) 0.6295(16) 0.8545(13)
O5_3 O 0.409(2) 0.629(6) 0.867(5)
O6_3 O 0.329(3) 0.680(5) 0.792(4)
O7_3 O 0.373(3) 0.656(5) 0.921(3)
O8_3 O 0.343(4) 0.554(3) 0.837(5)
Cl2_4 Cl 0.6365(9) 0.6295(16) 0.6455(13)
O5_4 O 0.591(2) 0.629(6) 0.633(5)
O6_4 O 0.671(3) 0.680(5) 0.708(4)
O7_4 O 0.627(3) 0.656(5) 0.579(3)
O8_4 O 0.657(4) 0.554(3) 0.663(5)
Cl2_5 Cl 0.1365(9) 0.8705(16) 0.1455(13)
O5_5 O 0.091(2) 0.871(6) 0.133(5)
O6_5 O 0.171(3) 0.820(5) 0.208(4)
O7_5 O 0.127(3) 0.844(5) 0.079(3)
O8_5 O 0.157(4) 0.946(3) 0.163(5)
Cl2_6 Cl 0.8635(9) 0.8705(16) 0.3545(13)
O5_6 O 0.909(2) 0.871(6) 0.367(5)
O6_6 O 0.829(3) 0.820(5) 0.292(4)
O7_6 O 0.873(3) 0.844(5) 0.421(3)
O8_6 O 0.843(4) 0.946(3) 0.337(5)
Cl2_7 Cl 0.6365(9) 0.3705(16) 0.1455(13)
O5_7 O 0.591(2) 0.371(6) 0.133(5)
O6_7 O 0.671(3) 0.320(5) 0.208(4)
O7_7 O 0.627(3) 0.344(5) 0.079(3)
O8_7 O 0.657(4) 0.446(3) 0.163(5)
Cl2_8 Cl 0.3635(9) 0.3705(16) 0.3545(13)
O5_8 O 0.409(2) 0.371(6) 0.367(5)
O6_8 O 0.329(3) 0.320(5) 0.292(4)
O7_8 O 0.373(3) 0.344(5) 0.421(3)
O8_8 O 0.343(4) 0.446(3) 0.337(5)
Cl3 Cl 0.708(3) 0.726(4) 0.220(4)
O9 O 0.714(5) 0.645(5) 0.223(7)
O10 O 0.720(3) 0.752(4) 0.290(4)
O11 O 0.657(5) 0.745(10) 0.158(4)
O12 O 0.740(8) 0.763(11) 0.210(12)
Cl3_2 Cl 0.292(3) 0.726(4) 0.280(4)
O9_2 O 0.286(5) 0.645(5) 0.277(7)
O10_2 O 0.280(3) 0.752(4) 0.210(4)
O11_2 O 0.343(5) 0.745(10) 0.342(4)
O12_2 O 0.260(8) 0.763(11) 0.290(12)
Cl3_3 Cl 0.208(3) 0.226(4) 0.220(4)
O9_3 O 0.214(5) 0.145(5) 0.223(7)
O10_3 O 0.220(3) 0.252(4) 0.290(4)
O11_3 O 0.157(5) 0.245(10) 0.158(4)
O12_3 O 0.240(8) 0.263(11) 0.210(12)
Cl3_4 Cl 0.792(3) 0.226(4) 0.280(4)
O9_4 O 0.786(5) 0.145(5) 0.277(7)
O10_4 O 0.780(3) 0.252(4) 0.210(4)
O11_4 O 0.843(5) 0.245(10) 0.342(4)
O12_4 O 0.760(8) 0.263(11) 0.290(12)
Cl3_5 Cl 0.292(3) 0.274(4) 0.780(4)
O9_5 O 0.286(5) 0.355(5) 0.777(7)
O10_5 O 0.280(3) 0.248(4) 0.710(4)
O11_5 O 0.343(5) 0.255(10) 0.842(4)
O12_5 O 0.260(8) 0.237(11) 0.790(12)
Cl3_6 Cl 0.708(3) 0.274(4) 0.720(4)
O9_6 O 0.714(5) 0.355(5) 0.723(7)
O10_6 O 0.720(3) 0.248(4) 0.790(4)
O11_6 O 0.657(5) 0.255(10) 0.658(4)
O12_6 O 0.740(8) 0.237(11) 0.710(12)
Cl3_7 Cl 0.792(3) 0.774(4) 0.780(4)
O9_7 O 0.786(5) 0.855(5) 0.777(7)
O10_7 O 0.780(3) 0.748(4) 0.710(4)
O11_7 O 0.843(5) 0.755(10) 0.842(4)
O12_7 O 0.760(8) 0.737(11) 0.790(12)
Cl3_8 Cl 0.208(3) 0.774(4) 0.720(4)
O9_8 O 0.214(5) 0.855(5) 0.723(7)
O10_8 O 0.220(3) 0.748(4) 0.790(4)
O11_8 O 0.157(5) 0.755(10) 0.658(4)
O12_8 O 0.240(8) 0.737(11) 0.710(12)
O35 O 0.5830(8) 0.2127(13) 0.1975(12)
O36 O 0.5975(8) 0.1859(11) 0.1344(11)
N14 N 0.7083(10) 0.4228(13) 0.0534(15)
N15 N 0.7031(8) 0.0567(12) 0.3253(13)
N17 N 0.7470(9) 0.0275(16) 0.4730(17)
C98 C 0.6732(16) 0.324(2) 0.034(2)
H81 H 0.6728 0.2835 0.0510
C99 C 0.7080(14) 0.368(2) 0.074(2)
H82 H 0.7312 0.3556 0.1169
C102 C 0.6733(11) 0.0721(17) 0.3277(16)
H85 H 0.6738 0.0542 0.3605
C103 C 0.6406(11) 0.1146(19) 0.2828(18)
H86 H 0.6191 0.1241 0.2852
C104 C 0.6390(10) 0.1425(15) 0.2356(14)
C105 C 0.6712(12) 0.1259(18) 0.2349(17)
H87 H 0.6713 0.1430 0.2024
C106 C 0.7030(12) 0.0852(19) 0.2803(19)
H88 H 0.7256 0.0768 0.2802
C107 C 0.6044(11) 0.1838(15) 0.1885(17)
C108 C 0.5623(12) 0.2233(17) 0.0820(14)
H89 H 0.5710 0.2688 0.0851
H90 H 0.5390 0.2228 0.0837
H92 H 0.5913 0.2405 0.0188
C113 C 0.5482(13) 0.1944(15) 0.0217(16)
H93 H 0.5028 0.1387 0.0070
C117 C 0.7446(14) 0.045(2) 0.509(2)
C118 C 0.742(2) 0.059(4) 0.558(3)
H97 H 0.7292 0.1020 0.5501
H98 H 0.7705 0.0592 0.5999
H99 H 0.7247 0.0264 0.5576
H102 H 0.7453 0.0002 0.1892
Cu4 Cu 0.75288(12) 0.49004(19) 0.1136(2)
N20 N 0.7943(9) 0.0519(13) 0.4141(13)
O20 O 0.5274(8) 0.0198(10) 0.6303(11)
O21 O 0.4272(13) 0.314(2) 0.615(2)
O22 O 0.3870(14) 0.2361(19) 0.5484(17)
O23 O 0.4170(8) 0.2127(13) 0.3025(12)
O24 O 0.4025(8) 0.1859(11) 0.3656(11)
N5 N 0.2917(10) 0.4228(13) 0.4466(15)
N6 N 0.2969(8) 0.0567(12) 0.1747(13)
N8 N 0.2530(9) 0.0275(16) 0.0270(17)
C34 C 0.5329(12) 0.0717(16) 0.5986(19)
H26 H 0.5348 0.0524 0.5671
H27 H 0.5595 0.0954 0.6310
C35 C 0.3229(12) 0.4376(18) 0.5062(19)
H28 H 0.3223 0.4786 0.5216
C36 C 0.3572(13) 0.397(2) 0.549(2)
H29 H 0.3789 0.4095 0.5923
C37 C 0.3585(14) 0.340(2) 0.527(2)
C38 C 0.3268(16) 0.324(2) 0.466(2)
H30 H 0.3272 0.2835 0.4490
C39 C 0.2920(14) 0.368(2) 0.426(2)
H31 H 0.2688 0.3556 0.3831
C40 C 0.3940(17) 0.293(3) 0.569(3)
C41 C 0.420(2) 0.189(3) 0.588(3)
H32 H 0.4078 0.1467 0.5864
H33 H 0.4397 0.2036 0.6333
C42 C 0.3267(11) 0.0721(17) 0.1723(16)
H34 H 0.3262 0.0542 0.1395
C43 C 0.3594(11) 0.1146(19) 0.2172(18)
H35 H 0.3809 0.1241 0.2148
C44 C 0.3610(10) 0.1425(15) 0.2644(14)
C45 C 0.3288(12) 0.1259(18) 0.2651(17)
H36 H 0.3287 0.1430 0.2976
C46 C 0.2970(12) 0.0852(19) 0.2197(19)
H37 H 0.2744 0.0768 0.2198
C47 C 0.3956(11) 0.1838(15) 0.3115(17)
C48 C 0.4377(12) 0.2233(17) 0.4180(14)
H38 H 0.4290 0.2688 0.4149
H39 H 0.4610 0.2228 0.4163
C49 C 0.4964(12) 0.1180(14) 0.5649(17)
C50 C 0.4761(13) 0.1346(16) 0.5891(17)
H40 H 0.4840 0.1133 0.6264
C51 C 0.4452(15) 0.1804(17) 0.5605(18)
C52 C 0.4314(13) 0.2103(16) 0.5028(18)
H41 H 0.4087 0.2405 0.4812
C53 C 0.4518(13) 0.1944(15) 0.4783(16)
C54 C 0.4835(12) 0.1492(15) 0.5098(16)
H42 H 0.4972 0.1387 0.4930
H51 H 0.2547 0.0002 0.3108
O32 O 0.4726(8) 0.0198(10) 0.8697(11)
O33 O 0.5728(13) 0.314(2) 0.885(2)
O34 O 0.6130(14) 0.2361(19) 0.9516(17)
C94 C 0.4671(12) 0.0717(16) 0.9014(19)
H77 H 0.4652 0.0524 0.9329
H78 H 0.4405 0.0954 0.8690
C95 C 0.6771(12) 0.4376(18) 0.9938(19)
H79 H 0.6777 0.4786 0.9784
C96 C 0.6428(13) 0.397(2) 0.951(2)
H80 H 0.6211 0.4095 0.9077
C97 C 0.6415(14) 0.340(2) 0.973(2)
C100 C 0.6060(17) 0.293(3) 0.931(3)
C101 C 0.580(2) 0.189(3) 0.912(3)
H83 H 0.5922 0.1467 0.9136
H84 H 0.5603 0.2036 0.8667
C109 C 0.5036(12) 0.1180(14) 0.9351(17)
C110 C 0.5239(13) 0.1346(16) 0.9109(17)
H91 H 0.5160 0.1133 0.8736
C111 C 0.5548(15) 0.1804(17) 0.9395(18)
C112 C 0.5686(13) 0.2103(16) 0.9972(18)
C114 C 0.5165(12) 0.1492(15) 0.9902(16)
Cu5 Cu 0.24712(12) 0.49004(19) 0.3864(2)
N19 N 0.2057(9) 0.0519(13) 0.0859(13)
O15 O 0.4044(8) 0.2749(12) 0.0170(13)
H5 H 0.5493 0.4508 0.0121
H11 H 0.4746 0.2929 0.0281
H20 H 0.5084 0.3779 0.0136
Cu3 Cu 0.74712(12) 0.99004(19) 0.3864(2)
N18 N 0.7497(12) 0.952(2) 0.2972(19)
C119 C 0.7494(14) 0.952(2) 0.258(2)
C120 C 0.756(3) 0.958(8) 0.210(3)
H100 H 0.7401 0.9234 0.1784
H101 H 0.7859 0.9541 0.2322
N21 N 0.7002(9) 0.9256(13) 0.3534(15)
N23 N 0.7917(10) 0.9228(13) 0.4466(15)
Cu1 Cu 0.5000 0.7499(2) 0.7500
Cu2 Cu 0.25288(12) 0.99004(19) 0.1136(2)
O13 O 0.4876(10) 0.5220(10) 0.9296(13)
O14 O 0.5395(7) 0.4810(10) 0.9326(11)
O16 O 0.4170(7) 0.3354(9) 0.9623(10)
O17 O 0.3930(16) 0.247(2) 0.672(2)
O18 O 0.4182(9) 0.2317(13) 0.7730(14)
O19 O 0.4796(9) 0.9707(10) 0.5358(13)
N1 N 0.5039(8) 0.6788(10) 0.8054(11)
N2 N 0.2943(9) 0.4481(13) 0.9141(13)
N3 N 0.2998(9) 0.0744(13) 0.6466(15)
N4 N 0.5010(8) 0.8201(9) 0.6982(11)
N7 N 0.4211(12) 0.7541(13) 0.6739(16)
C1 C 0.5344(10) 0.6343(14) 0.8318(15)
H1 H 0.5546 0.6379 0.8256
C2 C 0.5375(10) 0.5837(13) 0.8674(14)
H2 H 0.5596 0.5527 0.8854
C3 C 0.5090(10) 0.5778(12) 0.8771(14)
C4 C 0.4782(10) 0.6229(14) 0.8509(14)
H3 H 0.4578 0.6204 0.8566
C5 C 0.4769(10) 0.6732(13) 0.8152(15)
H4 H 0.4552 0.7048 0.7971
C6 C 0.5115(13) 0.5240(15) 0.9156(17)
C7 C 0.5472(11) 0.4305(15) 0.9770(16)
H6 H 0.5745 0.4092 0.9965
C8 C 0.3250(12) 0.4651(16) 0.9130(18)
H7 H 0.3242 0.5069 0.8975
C9 C 0.3579(11) 0.4245(16) 0.9333(15)
H8 H 0.3784 0.4378 0.9297
C10 C 0.3614(9) 0.3658(14) 0.9586(14)
C11 C 0.3306(12) 0.3482(17) 0.9616(18)
H9 H 0.3324 0.3082 0.9806
C12 C 0.2972(12) 0.3894(19) 0.937(2)
H10 H 0.2749 0.3751 0.9361
C13 C 0.3964(11) 0.3202(16) 0.9827(16)
C14 C 0.4514(10) 0.2910(14) 0.9811(16)
H12 H 0.4408 0.2459 0.9692
C15 C 0.3046(14) 0.100(2) 0.6066(19)
H13 H 0.2875 0.0852 0.5635
C16 C 0.3348(14) 0.149(2) 0.627(2)
H14 H 0.3366 0.1701 0.5978
C17 C 0.3610(12) 0.165(2) 0.690(2)
C18 C 0.3563(12) 0.1396(18) 0.7303(18)
H15 H 0.3735 0.1534 0.7738
C19 C 0.3265(12) 0.0940(19) 0.7079(18)
H16 H 0.3242 0.0745 0.7373
C20 C 0.393(2) 0.220(3) 0.712(3)
C21 C 0.4520(16) 0.278(2) 0.796(2)
H17 H 0.4415 0.3137 0.7646
H18 H 0.4759 0.2568 0.8027
C22 C 0.4661(11) 0.3052(16) 0.8576(17)
C23 C 0.4959(12) 0.3522(16) 0.8855(19)
H19 H 0.5058 0.3669 0.8640
C24 C 0.5127(9) 0.3799(13) 0.9443(15)
C25 C 0.4975(10) 0.3592(13) 0.9736(16)
C26 C 0.4666(10) 0.3116(14) 0.9472(16)
C27 C 0.4505(11) 0.2855(15) 0.8883(17)
H21 H 0.4287 0.2539 0.8686
C28 C 0.4749(9) 0.8196(13) 0.6343(14)
H22 H 0.4557 0.7846 0.6122
C29 C 0.4746(10) 0.8673(13) 0.5996(14)
H23 H 0.4558 0.8652 0.5541
C30 C 0.5026(10) 0.9197(13) 0.6321(15)
C31 C 0.5296(9) 0.9199(12) 0.6972(14)
H24 H 0.5488 0.9549 0.7202
C32 C 0.5292(10) 0.8694(13) 0.7297(15)
H25 H 0.5490 0.8689 0.7753
C33 C 0.5005(12) 0.9728(15) 0.593(2)
C55 C 0.3885(17) 0.766(2) 0.637(2)
C56 C 0.348(2) 0.788(4) 0.584(3)
H43 H 0.3267 0.7555 0.5732
H44 H 0.3464 0.7957 0.5473
H45 H 0.3416 0.8288 0.5958
N9 N 0.2503(12) 0.952(2) 0.2028(19)
C59 C 0.2506(14) 0.952(2) 0.242(2)
C60 C 0.244(3) 0.958(8) 0.290(3)
H49 H 0.2599 0.9234 0.3216
H50 H 0.2141 0.9541 0.2678
O25 O 0.5124(10) 0.5220(10) 0.5704(13)
O26 O 0.4605(7) 0.4810(10) 0.5674(11)
O27 O 0.5956(8) 0.2749(12) 0.4830(13)
O28 O 0.5830(7) 0.3354(9) 0.5377(10)
O29 O 0.6070(16) 0.247(2) 0.828(2)
O30 O 0.5818(9) 0.2317(13) 0.7270(14)
O31 O 0.5204(9) 0.9707(10) 0.9642(13)
N10 N 0.4961(8) 0.6788(10) 0.6946(11)
N11 N 0.7057(9) 0.4481(13) 0.5859(13)
N12 N 0.7002(9) 0.0744(13) 0.8534(15)
N13 N 0.4990(8) 0.8201(9) 0.8018(11)
N16 N 0.5789(12) 0.7541(13) 0.8261(16)
C61 C 0.4656(10) 0.6343(14) 0.6682(15)
H52 H 0.4454 0.6379 0.6744
C62 C 0.4625(10) 0.5837(13) 0.6326(14)
H53 H 0.4404 0.5527 0.6146
C63 C 0.4910(10) 0.5778(12) 0.6229(14)
C64 C 0.5218(10) 0.6229(14) 0.6491(14)
H54 H 0.5422 0.6204 0.6434
C65 C 0.5231(10) 0.6732(13) 0.6848(15)
H55 H 0.5448 0.7048 0.7029
C66 C 0.4885(13) 0.5240(15) 0.5844(17)
C67 C 0.4528(11) 0.4305(15) 0.5230(16)
H56 H 0.4507 0.4508 0.4879
H57 H 0.4255 0.4092 0.5035
C68 C 0.6750(12) 0.4651(16) 0.5870(18)
H58 H 0.6758 0.5069 0.6025
C69 C 0.6421(11) 0.4245(16) 0.5667(15)
H59 H 0.6216 0.4378 0.5703
C70 C 0.6386(9) 0.3658(14) 0.5414(14)
C71 C 0.6694(12) 0.3482(17) 0.5384(18)
H60 H 0.6676 0.3082 0.5194
C72 C 0.7028(12) 0.3894(19) 0.563(2)
H61 H 0.7251 0.3751 0.5639
C73 C 0.6036(11) 0.3202(16) 0.5173(16)
C74 C 0.5486(10) 0.2910(14) 0.5189(16)
H62 H 0.5254 0.2929 0.4719
H63 H 0.5592 0.2459 0.5308
C75 C 0.6954(14) 0.100(2) 0.8934(19)
H64 H 0.7125 0.0852 0.9365
C76 C 0.6652(14) 0.149(2) 0.873(2)
H65 H 0.6634 0.1701 0.9022
C77 C 0.6390(12) 0.165(2) 0.810(2)
C78 C 0.6437(12) 0.1396(18) 0.7697(18)
H66 H 0.6265 0.1534 0.7262
C79 C 0.6735(12) 0.0940(19) 0.7921(18)
H67 H 0.6758 0.0745 0.7627
C80 C 0.607(2) 0.220(3) 0.788(3)
C81 C 0.5480(16) 0.278(2) 0.704(2)
H68 H 0.5585 0.3137 0.7354
H69 H 0.5241 0.2568 0.6973
C82 C 0.5339(11) 0.3052(16) 0.6424(17)
C83 C 0.5041(12) 0.3522(16) 0.6145(19)
H70 H 0.4942 0.3669 0.6360
C84 C 0.4873(9) 0.3799(13) 0.5557(15)
C85 C 0.5025(10) 0.3592(13) 0.5264(16)
H71 H 0.4916 0.3779 0.4864
C86 C 0.5334(10) 0.3116(14) 0.5528(16)
C87 C 0.5495(11) 0.2855(15) 0.6117(17)
H72 H 0.5713 0.2539 0.6314
C88 C 0.5251(9) 0.8196(13) 0.8657(14)
H73 H 0.5443 0.7846 0.8878
C89 C 0.5254(10) 0.8673(13) 0.9004(14)
H74 H 0.5442 0.8652 0.9459
C90 C 0.4974(10) 0.9197(13) 0.8679(15)
C91 C 0.4704(9) 0.9199(12) 0.8028(14)
H75 H 0.4512 0.9549 0.7798
C92 C 0.4708(10) 0.8694(13) 0.7703(15)
H76 H 0.4510 0.8689 0.7247
C93 C 0.4995(12) 0.9728(15) 0.907(2)
C115 C 0.6115(17) 0.766(2) 0.863(2)
C116 C 0.652(2) 0.788(4) 0.916(3)
H94 H 0.6733 0.7555 0.9268
H95 H 0.6536 0.7957 0.9527
H96 H 0.6584 0.8288 0.9042
Cu6 Cu 0.74712(12) 0.00996(19) 0.8864(2)
Cu7 Cu 0.25288(12) 0.00996(19) 0.6136(2)
Cu8 Cu 0.24712(12) 0.50996(19) 0.8864(2)
Cu9 Cu 0.75288(12) 0.50996(19) 0.6136(2)
N22 N 0.2998(9) 0.9256(13) 0.1466(15)
N24 N 0.2083(10) 0.9228(13) 0.0534(15)
O35_2 O 0.0830(8) 0.7127(13) 0.1975(12)
O36_2 O 0.0975(8) 0.6859(11) 0.1344(11)
N15_2 N 0.2031(8) 0.5567(12) 0.3253(13)
N17_2 N 0.2470(9) 0.5275(16) 0.4730(17)
C98_2 C 0.1732(16) 0.824(2) 0.034(2)
H81_2 H 0.1728 0.7835 0.0510
C99_2 C 0.2080(14) 0.868(2) 0.074(2)
H82_2 H 0.2312 0.8556 0.1169
C102_2 C 0.1733(11) 0.5721(17) 0.3277(16)
H85_2 H 0.1738 0.5542 0.3605
C103_2 C 0.1406(11) 0.6146(19) 0.2828(18)
H86_2 H 0.1191 0.6241 0.2852
C104_2 C 0.1390(10) 0.6425(15) 0.2356(14)
C105_2 C 0.1712(12) 0.6259(18) 0.2349(17)
H87_2 H 0.1713 0.6430 0.2024
C106_2 C 0.2030(12) 0.5852(19) 0.2803(19)
H88_2 H 0.2256 0.5768 0.2802
C107_2 C 0.1044(11) 0.6838(15) 0.1885(17)
C108_2 C 0.0623(12) 0.7233(17) 0.0820(14)
H89_2 H 0.0710 0.7688 0.0851
H90_2 H 0.0390 0.7228 0.0837
H92_2 H 0.0913 0.7405 0.0188
C113_2 C 0.0482(13) 0.6944(15) 0.0217(16)
H93_2 H 0.0028 0.6387 0.0070
C117_2 C 0.2446(14) 0.545(2) 0.509(2)
C118_2 C 0.242(2) 0.559(4) 0.558(3)
H97_2 H 0.2292 0.6020 0.5501
H98_2 H 0.2705 0.5592 0.5999
H99_2 H 0.2247 0.5264 0.5576
N18_2 N 0.2497(12) 0.452(2) 0.2972(19)
C119_2 C 0.2494(14) 0.452(2) 0.258(2)
C120_2 C 0.256(3) 0.458(8) 0.210(3)
H100_2 H 0.2401 0.4234 0.1784
H101_2 H 0.2859 0.4541 0.2322
H102_2 H 0.2453 0.5002 0.1892
N20_2 N 0.2943(9) 0.5519(13) 0.4141(13)
N21_2 N 0.2002(9) 0.4256(13) 0.3534(15)
Cu1_2 Cu 0.0000 0.2499(2) 0.7500
O20_2 O 0.0274(8) 0.5198(10) 0.6303(11)
N1_2 N 0.0039(8) 0.1788(10) 0.8054(11)
N4_2 N 0.0010(8) 0.3201(9) 0.6982(11)
C1_2 C 0.0344(10) 0.1343(14) 0.8318(15)
H1_2 H 0.0546 0.1379 0.8256
C2_2 C 0.0375(10) 0.0837(13) 0.8674(14)
H2_2 H 0.0596 0.0527 0.8854
C3_2 C 0.0090(10) 0.0778(12) 0.8771(14)
C6_2 C 0.0115(13) 0.0240(15) 0.9156(17)
C30_2 C 0.0026(10) 0.4197(13) 0.6321(15)
C31_2 C 0.0296(9) 0.4199(12) 0.6972(14)
H24_2 H 0.0488 0.4549 0.7202
C32_2 C 0.0292(10) 0.3694(13) 0.7297(15)
H25_2 H 0.0490 0.3689 0.7753
C33_2 C 0.0005(12) 0.4728(15) 0.593(2)
C34_2 C 0.0329(12) 0.5717(16) 0.5986(19)
H26_2 H 0.0348 0.5524 0.5671
H27_2 H 0.0595 0.5954 0.6310
O25_2 O 0.0124(10) 0.0220(10) 0.5704(13)
O31_2 O 0.0204(9) 0.4707(10) 0.9642(13)
O33_2 O 0.0728(13) 0.814(2) 0.885(2)
O34_2 O 0.1130(14) 0.7361(19) 0.9516(17)
N16_2 N 0.0789(12) 0.2541(13) 0.8261(16)
C64_2 C 0.0218(10) 0.1229(14) 0.6491(14)
H54_2 H 0.0422 0.1204 0.6434
C65_2 C 0.0231(10) 0.1732(13) 0.6848(15)
H55_2 H 0.0448 0.2048 0.7029
H58_2 H 0.1758 0.0069 0.6025
C88_2 C 0.0251(9) 0.3196(13) 0.8657(14)
H73_2 H 0.0443 0.2846 0.8878
C89_2 C 0.0254(10) 0.3673(13) 0.9004(14)
H74_2 H 0.0442 0.3652 0.9459
C95_2 C 0.1771(12) 0.9376(18) 0.9938(19)
H79_2 H 0.1777 0.9786 0.9784
C96_2 C 0.1428(13) 0.897(2) 0.951(2)
H80_2 H 0.1211 0.9095 0.9077
C97_2 C 0.1415(14) 0.840(2) 0.973(2)
C100_2 C 0.1060(17) 0.793(3) 0.931(3)
C101_2 C 0.080(2) 0.689(3) 0.912(3)
H83_2 H 0.0922 0.6467 0.9136
H84_2 H 0.0603 0.7036 0.8667
C109_2 C 0.0036(12) 0.6180(14) 0.9351(17)
C110_2 C 0.0239(13) 0.6346(16) 0.9109(17)
H91_2 H 0.0160 0.6133 0.8736
C111_2 C 0.0548(15) 0.6804(17) 0.9395(18)
C112_2 C 0.0686(13) 0.7103(16) 0.9972(18)
C114_2 C 0.0165(12) 0.6492(15) 0.9902(16)
C115_2 C 0.1115(17) 0.266(2) 0.863(2)
C116_2 C 0.152(2) 0.288(4) 0.916(3)
H94_2 H 0.1733 0.2555 0.9268
H95_2 H 0.1536 0.2957 0.9527
H96_2 H 0.1584 0.3288 0.9042
O14_2 O 0.0395(7) 0.9810(10) 0.9326(11)
C7_2 C 0.0472(11) 0.9305(15) 0.9770(16)
H6_2 H 0.0745 0.9092 0.9965
H19_2 H 0.0058 0.8669 0.8640
C24_2 C 0.0127(9) 0.8799(13) 0.9443(15)
O27_2 O 0.0956(8) 0.7749(12) 0.4830(13)
O28_2 O 0.0830(7) 0.8354(9) 0.5377(10)
O29_2 O 0.1070(16) 0.747(2) 0.828(2)
O30_2 O 0.0818(9) 0.7317(13) 0.7270(14)
N11_2 N 0.2057(9) 0.9481(13) 0.5859(13)
N12_2 N 0.2002(9) 0.5744(13) 0.8534(15)
C68_2 C 0.1750(12) 0.9651(16) 0.5870(18)
C69_2 C 0.1421(11) 0.9245(16) 0.5667(15)
H59_2 H 0.1216 0.9378 0.5703
C70_2 C 0.1386(9) 0.8658(14) 0.5414(14)
C71_2 C 0.1694(12) 0.8482(17) 0.5384(18)
H60_2 H 0.1676 0.8082 0.5194
C72_2 C 0.2028(12) 0.8894(19) 0.563(2)
H61_2 H 0.2251 0.8751 0.5639
C73_2 C 0.1036(11) 0.8202(16) 0.5173(16)
C74_2 C 0.0486(10) 0.7910(14) 0.5189(16)
H62_2 H 0.0254 0.7929 0.4719
H63_2 H 0.0592 0.7459 0.5308
C75_2 C 0.1954(14) 0.600(2) 0.8934(19)
H64_2 H 0.2125 0.5852 0.9365
C76_2 C 0.1652(14) 0.649(2) 0.873(2)
H65_2 H 0.1634 0.6701 0.9022
C77_2 C 0.1390(12) 0.665(2) 0.810(2)
C78_2 C 0.1437(12) 0.6396(18) 0.7697(18)
H66_2 H 0.1265 0.6534 0.7262
C79_2 C 0.1735(12) 0.5940(19) 0.7921(18)
H67_2 H 0.1758 0.5745 0.7627
C80_2 C 0.107(2) 0.720(3) 0.788(3)
C81_2 C 0.0480(16) 0.778(2) 0.704(2)
H68_2 H 0.0585 0.8137 0.7354
H69_2 H 0.0241 0.7568 0.6973
C82_2 C 0.0339(11) 0.8052(16) 0.6424(17)
C83_2 C 0.0041(12) 0.8522(16) 0.6145(19)
C85_2 C 0.0025(10) 0.8592(13) 0.5264(16)
C86_2 C 0.0334(10) 0.8116(14) 0.5528(16)
C87_2 C 0.0495(11) 0.7855(15) 0.6117(17)
H72_2 H 0.0713 0.7539 0.6314
Cu1_3 Cu 1.0000 0.2499(2) 0.7500
O13_2 O 0.9876(10) 0.0220(10) 0.9296(13)
O19_2 O 0.9796(9) 0.4707(10) 0.5358(13)
O21_2 O 0.9272(13) 0.814(2) 0.615(2)
O22_2 O 0.8870(14) 0.7361(19) 0.5484(17)
O23_2 O 0.9170(8) 0.7127(13) 0.3025(12)
O24_2 O 0.9025(8) 0.6859(11) 0.3656(11)
N6_2 N 0.7969(8) 0.5567(12) 0.1747(13)
N7_2 N 0.9211(12) 0.2541(13) 0.6739(16)
N8_2 N 0.7530(9) 0.5275(16) 0.0270(17)
C4_2 C 0.9782(10) 0.1229(14) 0.8509(14)
H3_2 H 0.9578 0.1204 0.8566
C5_2 C 0.9769(10) 0.1732(13) 0.8152(15)
H4_2 H 0.9552 0.2048 0.7971
H7_2 H 0.8242 0.0069 0.8975
C28_2 C 0.9749(9) 0.3196(13) 0.6343(14)
H22_2 H 0.9557 0.2846 0.6122
C29_2 C 0.9746(10) 0.3673(13) 0.5996(14)
H23_2 H 0.9558 0.3652 0.5541
C35_2 C 0.8229(12) 0.9376(18) 0.5062(19)
H28_2 H 0.8223 0.9786 0.5216
C36_2 C 0.8572(13) 0.897(2) 0.549(2)
H29_2 H 0.8789 0.9095 0.5923
C37_2 C 0.8585(14) 0.840(2) 0.527(2)
C38_2 C 0.8268(16) 0.824(2) 0.466(2)
H30_2 H 0.8272 0.7835 0.4490
C39_2 C 0.7920(14) 0.868(2) 0.426(2)
H31_2 H 0.7688 0.8556 0.3831
C40_2 C 0.8940(17) 0.793(3) 0.569(3)
C41_2 C 0.920(2) 0.689(3) 0.588(3)
H32_2 H 0.9078 0.6467 0.5864
H33_2 H 0.9397 0.7036 0.6333
C42_2 C 0.8267(11) 0.5721(17) 0.1723(16)
H34_2 H 0.8262 0.5542 0.1395
C43_2 C 0.8594(11) 0.6146(19) 0.2172(18)
H35_2 H 0.8809 0.6241 0.2148
C44_2 C 0.8610(10) 0.6425(15) 0.2644(14)
C45_2 C 0.8288(12) 0.6259(18) 0.2651(17)
H36_2 H 0.8287 0.6430 0.2976
C46_2 C 0.7970(12) 0.5852(19) 0.2197(19)
H37_2 H 0.7744 0.5768 0.2198
C47_2 C 0.8956(11) 0.6838(15) 0.3115(17)
C48_2 C 0.9377(12) 0.7233(17) 0.4180(14)
H38_2 H 0.9290 0.7688 0.4149
H39_2 H 0.9610 0.7228 0.4163
C49_2 C 0.9964(12) 0.6180(14) 0.5649(17)
C50_2 C 0.9761(13) 0.6346(16) 0.5891(17)
H40_2 H 0.9840 0.6133 0.6264
C51_2 C 0.9452(15) 0.6804(17) 0.5605(18)
C52_2 C 0.9314(13) 0.7103(16) 0.5028(18)
H41_2 H 0.9087 0.7405 0.4812
C53_2 C 0.9518(13) 0.6944(15) 0.4783(16)
C54_2 C 0.9835(12) 0.6492(15) 0.5098(16)
H42_2 H 0.9972 0.6387 0.4930
C55_2 C 0.8885(17) 0.266(2) 0.637(2)
C56_2 C 0.848(2) 0.288(4) 0.584(3)
H43_2 H 0.8267 0.2555 0.5732
H44_2 H 0.8464 0.2957 0.5473
H45_2 H 0.8416 0.3288 0.5958
N9_2 N 0.7503(12) 0.452(2) 0.2028(19)
C59_2 C 0.7506(14) 0.452(2) 0.242(2)
C60_2 C 0.744(3) 0.458(8) 0.290(3)
H49_2 H 0.7599 0.4234 0.3216
H50_2 H 0.7141 0.4541 0.2678
H51_2 H 0.7547 0.5002 0.3108
O32_2 O 0.9726(8) 0.5198(10) 0.8697(11)
N10_2 N 0.9961(8) 0.1788(10) 0.6946(11)
N13_2 N 0.9990(8) 0.3201(9) 0.8018(11)
C61_2 C 0.9656(10) 0.1343(14) 0.6682(15)
H52_2 H 0.9454 0.1379 0.6744
C62_2 C 0.9625(10) 0.0837(13) 0.6326(14)
H53_2 H 0.9404 0.0527 0.6146
C63_2 C 0.9910(10) 0.0778(12) 0.6229(14)
C66_2 C 0.9885(13) 0.0240(15) 0.5844(17)
C90_2 C 0.9974(10) 0.4197(13) 0.8679(15)
C91_2 C 0.9704(9) 0.4199(12) 0.8028(14)
H75_2 H 0.9512 0.4549 0.7798
C92_2 C 0.9708(10) 0.3694(13) 0.7703(15)
H76_2 H 0.9510 0.3689 0.7247
C93_2 C 0.9995(12) 0.4728(15) 0.907(2)
C94_2 C 0.9671(12) 0.5717(16) 0.9014(19)
H77_2 H 0.9652 0.5524 0.9329
H78_2 H 0.9405 0.5954 0.8690
N19_2 N 0.7057(9) 0.5519(13) 0.0859(13)
N22_2 N 0.7998(9) 0.4256(13) 0.1466(15)
O16_2 O 0.9170(7) 0.8354(9) 0.9623(10)
O17_2 O 0.8930(16) 0.747(2) 0.672(2)
O18_2 O 0.9182(9) 0.7317(13) 0.7730(14)
N2_2 N 0.7943(9) 0.9481(13) 0.9141(13)
N3_2 N 0.7998(9) 0.5744(13) 0.6466(15)
C8_2 C 0.8250(12) 0.9651(16) 0.9130(18)
C9_2 C 0.8579(11) 0.9245(16) 0.9333(15)
H8_2 H 0.8784 0.9378 0.9297
C10_2 C 0.8614(9) 0.8658(14) 0.9586(14)
C11_2 C 0.8306(12) 0.8482(17) 0.9616(18)
H9_2 H 0.8324 0.8082 0.9806
C12_2 C 0.7972(12) 0.8894(19) 0.937(2)
H10_2 H 0.7749 0.8751 0.9361
C13_2 C 0.8964(11) 0.8202(16) 0.9827(16)
C14_2 C 0.9514(10) 0.7910(14) 0.9811(16)
H12_2 H 0.9408 0.7459 0.9692
C15_2 C 0.8046(14) 0.600(2) 0.6066(19)
H13_2 H 0.7875 0.5852 0.5635
C16_2 C 0.8348(14) 0.649(2) 0.627(2)
H14_2 H 0.8366 0.6701 0.5978
C17_2 C 0.8610(12) 0.665(2) 0.690(2)
C18_2 C 0.8563(12) 0.6396(18) 0.7303(18)
H15_2 H 0.8735 0.6534 0.7738
C19_2 C 0.8265(12) 0.5940(19) 0.7079(18)
H16_2 H 0.8242 0.5745 0.7373
C20_2 C 0.893(2) 0.720(3) 0.712(3)
C21_2 C 0.9520(16) 0.778(2) 0.796(2)
H17_2 H 0.9415 0.8137 0.7646
H18_2 H 0.9759 0.7568 0.8027
C22_2 C 0.9661(11) 0.8052(16) 0.8576(17)
C23_2 C 0.9959(12) 0.8522(16) 0.8855(19)
C25_2 C 0.9975(10) 0.8592(13) 0.9736(16)
C26_2 C 0.9666(10) 0.8116(14) 0.9472(16)
C27_2 C 0.9505(11) 0.7855(15) 0.8883(17)
H21_2 H 0.9287 0.7539 0.8686
O26_2 O 0.9605(7) 0.9810(10) 0.5674(11)
C67_2 C 0.9528(11) 0.9305(15) 0.5230(16)
H56_2 H 0.9507 0.9508 0.4879
H57_2 H 0.9255 0.9092 0.5035
H70_2 H 0.9942 0.8669 0.6360
C84_2 C 0.9873(9) 0.8799(13) 0.5557(15)
H71_2 H 0.9916 0.8779 0.4864
Cu1_4 Cu 0.5000 0.2501(2) 0.2500
O13_3 O 0.5124(10) 0.4780(10) 0.0704(13)
O14_3 O 0.4605(7) 0.5190(10) 0.0674(11)
O16_3 O 0.5830(7) 0.6646(9) 0.0377(10)
O17_3 O 0.6070(16) 0.753(2) 0.328(2)
O18_3 O 0.5818(9) 0.7683(13) 0.2270(14)
O19_3 O 0.5204(9) 0.0293(10) 0.4642(13)
N1_3 N 0.4961(8) 0.3212(10) 0.1946(11)
N4_3 N 0.4990(8) 0.1799(9) 0.3018(11)
N7_3 N 0.5789(12) 0.2459(13) 0.3261(16)
C1_3 C 0.4656(10) 0.3657(14) 0.1682(15)
H1_3 H 0.4454 0.3621 0.1744
C2_3 C 0.4625(10) 0.4163(13) 0.1326(14)
H2_3 H 0.4404 0.4473 0.1146
C3_3 C 0.4910(10) 0.4222(12) 0.1229(14)
C4_3 C 0.5218(10) 0.3771(14) 0.1491(14)
H3_3 H 0.5422 0.3796 0.1434
C5_3 C 0.5231(10) 0.3268(13) 0.1848(15)
H4_3 H 0.5448 0.2952 0.2029
C6_3 C 0.4885(13) 0.4760(15) 0.0844(17)
C7_3 C 0.4528(11) 0.5695(15) 0.0230(16)
H6_3 H 0.4255 0.5908 0.0035
C8_3 C 0.6750(12) 0.5349(16) 0.0870(18)
H7_3 H 0.6758 0.4931 0.1025
C9_3 C 0.6421(11) 0.5755(16) 0.0667(15)
H8_3 H 0.6216 0.5622 0.0703
C10_3 C 0.6386(9) 0.6342(14) 0.0414(14)
C11_3 C 0.6694(12) 0.6518(17) 0.0384(18)
H9_3 H 0.6676 0.6918 0.0194
C12_3 C 0.7028(12) 0.6106(19) 0.063(2)
H10_3 H 0.7251 0.6249 0.0639
C13_3 C 0.6036(11) 0.6798(16) 0.0173(16)
C14_3 C 0.5486(10) 0.7090(14) 0.0189(16)
H12_3 H 0.5592 0.7541 0.0308
C15_3 C 0.6954(14) 0.900(2) 0.3934(19)
H13_3 H 0.7125 0.9148 0.4365
C16_3 C 0.6652(14) 0.851(2) 0.373(2)
H14_3 H 0.6634 0.8299 0.4022
C17_3 C 0.6390(12) 0.835(2) 0.310(2)
C18_3 C 0.6437(12) 0.8604(18) 0.2697(18)
H15_3 H 0.6265 0.8466 0.2262
C19_3 C 0.6735(12) 0.9060(19) 0.2921(18)
H16_3 H 0.6758 0.9255 0.2627
C20_3 C 0.607(2) 0.780(3) 0.288(3)
C21_3 C 0.5480(16) 0.722(2) 0.204(2)
H17_3 H 0.5585 0.6863 0.2354
H18_3 H 0.5241 0.7432 0.1973
C22_3 C 0.5339(11) 0.6948(16) 0.1424(17)
C23_3 C 0.5041(12) 0.6478(16) 0.1145(19)
H19_3 H 0.4942 0.6331 0.1360
C24_3 C 0.4873(9) 0.6201(13) 0.0557(15)
C25_3 C 0.5025(10) 0.6408(13) 0.0264(16)
C26_3 C 0.5334(10) 0.6884(14) 0.0528(16)
C27_3 C 0.5495(11) 0.7145(15) 0.1117(17)
H21_3 H 0.5713 0.7461 0.1314
C28_3 C 0.5251(9) 0.1804(13) 0.3657(14)
H22_3 H 0.5443 0.2154 0.3878
C29_3 C 0.5254(10) 0.1327(13) 0.4004(14)
H23_3 H 0.5442 0.1348 0.4459
C30_3 C 0.4974(10) 0.0803(13) 0.3679(15)
C31_3 C 0.4704(9) 0.0801(12) 0.3028(14)
H24_3 H 0.4512 0.0451 0.2798
C32_3 C 0.4708(10) 0.1306(13) 0.2703(15)
H25_3 H 0.4510 0.1311 0.2247
C33_3 C 0.4995(12) 0.0272(15) 0.407(2)
C55_3 C 0.6115(17) 0.234(2) 0.363(2)
C56_3 C 0.652(2) 0.212(4) 0.416(3)
H43_3 H 0.6733 0.2445 0.4268
H44_3 H 0.6536 0.2043 0.4527
H45_3 H 0.6584 0.1712 0.4042
N9_3 N 0.7497(12) 0.048(2) 0.7972(19)
C59_3 C 0.7494(14) 0.048(2) 0.758(2)
C60_3 C 0.756(3) 0.042(8) 0.710(3)
H49_3 H 0.7401 0.0766 0.6784
H50_3 H 0.7859 0.0459 0.7322
O25_3 O 0.4876(10) 0.4780(10) 0.4296(13)
O26_3 O 0.5395(7) 0.5190(10) 0.4326(11)
O27_3 O 0.4044(8) 0.7251(12) 0.5170(13)
O28_3 O 0.4170(7) 0.6646(9) 0.4623(10)
O29_3 O 0.3930(16) 0.753(2) 0.172(2)
O30_3 O 0.4182(9) 0.7683(13) 0.2730(14)
O31_3 O 0.4796(9) 0.0293(10) 0.0358(13)
N10_3 N 0.5039(8) 0.3212(10) 0.3054(11)
N13_3 N 0.5010(8) 0.1799(9) 0.1982(11)
N16_3 N 0.4211(12) 0.2459(13) 0.1739(16)
C61_3 C 0.5344(10) 0.3657(14) 0.3318(15)
H52_3 H 0.5546 0.3621 0.3256
C62_3 C 0.5375(10) 0.4163(13) 0.3674(14)
H53_3 H 0.5596 0.4473 0.3854
C63_3 C 0.5090(10) 0.4222(12) 0.3771(14)
C64_3 C 0.4782(10) 0.3771(14) 0.3509(14)
H54_3 H 0.4578 0.3796 0.3566
C65_3 C 0.4769(10) 0.3268(13) 0.3152(15)
H55_3 H 0.4552 0.2952 0.2971
C66_3 C 0.5115(13) 0.4760(15) 0.4156(17)
C67_3 C 0.5472(11) 0.5695(15) 0.4770(16)
H56_3 H 0.5493 0.5492 0.5121
H57_3 H 0.5745 0.5908 0.4965
C68_3 C 0.3250(12) 0.5349(16) 0.4130(18)
H58_3 H 0.3242 0.4931 0.3975
C69_3 C 0.3579(11) 0.5755(16) 0.4333(15)
H59_3 H 0.3784 0.5622 0.4297
C70_3 C 0.3614(9) 0.6342(14) 0.4586(14)
C71_3 C 0.3306(12) 0.6518(17) 0.4616(18)
H60_3 H 0.3324 0.6918 0.4806
C72_3 C 0.2972(12) 0.6106(19) 0.437(2)
H61_3 H 0.2749 0.6249 0.4361
C73_3 C 0.3964(11) 0.6798(16) 0.4827(16)
C74_3 C 0.4514(10) 0.7090(14) 0.4811(16)
H62_3 H 0.4746 0.7071 0.5281
H63_3 H 0.4408 0.7541 0.4692
C75_3 C 0.3046(14) 0.900(2) 0.1066(19)
H64_3 H 0.2875 0.9148 0.0635
C76_3 C 0.3348(14) 0.851(2) 0.127(2)
H65_3 H 0.3366 0.8299 0.0978
C77_3 C 0.3610(12) 0.835(2) 0.190(2)
C78_3 C 0.3563(12) 0.8604(18) 0.2303(18)
H66_3 H 0.3735 0.8466 0.2738
C79_3 C 0.3265(12) 0.9060(19) 0.2079(18)
H67_3 H 0.3242 0.9255 0.2373
C80_3 C 0.393(2) 0.780(3) 0.212(3)
C81_3 C 0.4520(16) 0.722(2) 0.296(2)
H68_3 H 0.4415 0.6863 0.2646
H69_3 H 0.4759 0.7432 0.3027
C82_3 C 0.4661(11) 0.6948(16) 0.3576(17)
C83_3 C 0.4959(12) 0.6478(16) 0.3855(19)
H70_3 H 0.5058 0.6331 0.3640
C84_3 C 0.5127(9) 0.6201(13) 0.4443(15)
C85_3 C 0.4975(10) 0.6408(13) 0.4736(16)
H71_3 H 0.5084 0.6221 0.5136
C86_3 C 0.4666(10) 0.6884(14) 0.4472(16)
C87_3 C 0.4505(11) 0.7145(15) 0.3883(17)
H72_3 H 0.4287 0.7461 0.3686
C88_3 C 0.4749(9) 0.1804(13) 0.1343(14)
H73_3 H 0.4557 0.2154 0.1122
C89_3 C 0.4746(10) 0.1327(13) 0.0996(14)
H74_3 H 0.4558 0.1348 0.0541
C90_3 C 0.5026(10) 0.0803(13) 0.1321(15)
C91_3 C 0.5296(9) 0.0801(12) 0.1972(14)
H75_3 H 0.5488 0.0451 0.2202
C92_3 C 0.5292(10) 0.1306(13) 0.2297(15)
H76_3 H 0.5490 0.1311 0.2753
C93_3 C 0.5005(12) 0.0272(15) 0.093(2)
C115_3 C 0.3885(17) 0.234(2) 0.137(2)
C116_3 C 0.348(2) 0.212(4) 0.084(3)
H94_3 H 0.3267 0.2445 0.0732
H95_3 H 0.3464 0.2043 0.0473
H96_3 H 0.3416 0.1712 0.0958
N24_2 N 0.7917(10) 0.0772(13) 0.9466(15)
O15_2 O 0.5956(8) 0.7251(12) 0.9830(13)
H5_2 H 0.4507 0.5492 0.9879
H11_2 H 0.5254 0.7071 0.9719
H20_2 H 0.4916 0.6221 0.9864
N18_3 N 0.2503(12) 0.048(2) 0.7028(19)
C119_3 C 0.2506(14) 0.048(2) 0.742(2)
C120_3 C 0.244(3) 0.042(8) 0.790(3)
H100_3 H 0.2599 0.0766 0.8216
H101_3 H 0.2141 0.0459 0.7678
N23_2 N 0.2083(10) 0.0772(13) 0.5534(15)
O20_3 O 0.4726(8) 0.9802(10) 0.3697(11)
O21_3 O 0.5728(13) 0.686(2) 0.385(2)
O22_3 O 0.6130(14) 0.7639(19) 0.4516(17)
O23_3 O 0.5830(8) 0.7873(13) 0.6975(12)
O24_3 O 0.5975(8) 0.8141(11) 0.6344(11)
N5_2 N 0.7083(10) 0.5772(13) 0.5534(15)
N6_3 N 0.7031(8) 0.9433(12) 0.8253(13)
N8_3 N 0.7470(9) 0.9725(16) 0.9730(17)
C34_3 C 0.4671(12) 0.9283(16) 0.4014(19)
H26_3 H 0.4652 0.9476 0.4329
H27_3 H 0.4405 0.9046 0.3690
C35_3 C 0.6771(12) 0.5624(18) 0.4938(19)
H28_3 H 0.6777 0.5214 0.4784
C36_3 C 0.6428(13) 0.603(2) 0.451(2)
H29_3 H 0.6211 0.5905 0.4077
C37_3 C 0.6415(14) 0.660(2) 0.473(2)
C38_3 C 0.6732(16) 0.676(2) 0.534(2)
H30_3 H 0.6728 0.7165 0.5510
C39_3 C 0.7080(14) 0.632(2) 0.574(2)
H31_3 H 0.7312 0.6444 0.6169
C40_3 C 0.6060(17) 0.707(3) 0.431(3)
C41_3 C 0.580(2) 0.811(3) 0.412(3)
H32_3 H 0.5922 0.8533 0.4136
H33_3 H 0.5603 0.7964 0.3667
C42_3 C 0.6733(11) 0.9279(17) 0.8277(16)
H34_3 H 0.6738 0.9458 0.8605
C43_3 C 0.6406(11) 0.8854(19) 0.7828(18)
H35_3 H 0.6191 0.8759 0.7852
C44_3 C 0.6390(10) 0.8575(15) 0.7356(14)
C45_3 C 0.6712(12) 0.8741(18) 0.7349(17)
H36_3 H 0.6713 0.8570 0.7024
C46_3 C 0.7030(12) 0.9148(19) 0.7803(19)
H37_3 H 0.7256 0.9232 0.7802
C47_3 C 0.6044(11) 0.8162(15) 0.6885(17)
C48_3 C 0.5623(12) 0.7767(17) 0.5820(14)
H38_3 H 0.5710 0.7312 0.5851
H39_3 H 0.5390 0.7772 0.5837
C49_3 C 0.5036(12) 0.8820(14) 0.4351(17)
C50_3 C 0.5239(13) 0.8654(16) 0.4109(17)
H40_3 H 0.5160 0.8867 0.3736
C51_3 C 0.5548(15) 0.8196(17) 0.4395(18)
C52_3 C 0.5686(13) 0.7897(16) 0.4972(18)
H41_3 H 0.5913 0.7595 0.5188
C53_3 C 0.5482(13) 0.8056(15) 0.5217(16)
C54_3 C 0.5165(12) 0.8508(15) 0.4902(16)
H42_3 H 0.5028 0.8613 0.5070
H51_3 H 0.7453 0.9998 0.6892
O32_3 O 0.5274(8) 0.9802(10) 0.1303(11)
O33_3 O 0.4272(13) 0.686(2) 0.115(2)
O34_3 O 0.3870(14) 0.7639(19) 0.0484(17)
C94_3 C 0.5329(12) 0.9283(16) 0.0986(19)
H77_3 H 0.5348 0.9476 0.0671
H78_3 H 0.5595 0.9046 0.1310
C95_3 C 0.3229(12) 0.5624(18) 0.0062(19)
H79_3 H 0.3223 0.5214 0.0216
C96_3 C 0.3572(13) 0.603(2) 0.049(2)
H80_3 H 0.3789 0.5905 0.0923
C97_3 C 0.3585(14) 0.660(2) 0.027(2)
C100_3 C 0.3940(17) 0.707(3) 0.069(3)
C101_3 C 0.420(2) 0.811(3) 0.088(3)
H83_3 H 0.4078 0.8533 0.0864
H84_3 H 0.4397 0.7964 0.1333
C109_3 C 0.4964(12) 0.8820(14) 0.0649(17)
C110_3 C 0.4761(13) 0.8654(16) 0.0891(17)
H91_3 H 0.4840 0.8867 0.1264
C111_3 C 0.4452(15) 0.8196(17) 0.0605(18)
C112_3 C 0.4314(13) 0.7897(16) 0.0028(18)
C114_3 C 0.4835(12) 0.8508(15) 0.0098(16)
O35_3 O 0.4170(8) 0.7873(13) 0.8025(12)
O36_3 O 0.4025(8) 0.8141(11) 0.8656(11)
N14_2 N 0.2917(10) 0.5772(13) 0.9466(15)
N15_3 N 0.2969(8) 0.9433(12) 0.6747(13)
N17_3 N 0.2530(9) 0.9725(16) 0.5270(17)
C98_3 C 0.3268(16) 0.676(2) 0.966(2)
H81_3 H 0.3272 0.7165 0.9490
C99_3 C 0.2920(14) 0.632(2) 0.926(2)
H82_3 H 0.2688 0.6444 0.8831
C102_3 C 0.3267(11) 0.9279(17) 0.6723(16)
H85_3 H 0.3262 0.9458 0.6395
C103_3 C 0.3594(11) 0.8854(19) 0.7172(18)
H86_3 H 0.3809 0.8759 0.7148
C104_3 C 0.3610(10) 0.8575(15) 0.7644(14)
C105_3 C 0.3288(12) 0.8741(18) 0.7651(17)
H87_3 H 0.3287 0.8570 0.7976
C106_3 C 0.2970(12) 0.9148(19) 0.7197(19)
H88_3 H 0.2744 0.9232 0.7198
C107_3 C 0.3956(11) 0.8162(15) 0.8115(17)
C108_3 C 0.4377(12) 0.7767(17) 0.9180(14)
H89_3 H 0.4290 0.7312 0.9149
H90_3 H 0.4610 0.7772 0.9163
H92_3 H 0.4087 0.7595 0.9812
C113_3 C 0.4518(13) 0.8056(15) 0.9783(16)
H93_3 H 0.4972 0.8613 0.9930
C117_3 C 0.2554(14) 0.955(2) 0.491(2)
C118_3 C 0.258(2) 0.941(4) 0.442(3)
H97_3 H 0.2708 0.8980 0.4499
H98_3 H 0.2295 0.9408 0.4001
H99_3 H 0.2753 0.9736 0.4424
H102_3 H 0.2547 0.9998 0.8108
O16_4 O 0.0830(7) 0.1646(9) 0.0377(10)
O17_4 O 0.1070(16) 0.253(2) 0.328(2)
O18_4 O 0.0818(9) 0.2683(13) 0.2270(14)
C8_4 C 0.1750(12) 0.0349(16) 0.0870(18)
C9_4 C 0.1421(11) 0.0755(16) 0.0667(15)
H8_4 H 0.1216 0.0622 0.0703
C10_4 C 0.1386(9) 0.1342(14) 0.0414(14)
C11_4 C 0.1694(12) 0.1518(17) 0.0384(18)
H9_4 H 0.1676 0.1918 0.0194
C12_4 C 0.2028(12) 0.1106(19) 0.063(2)
H10_4 H 0.2251 0.1249 0.0639
C13_4 C 0.1036(11) 0.1798(16) 0.0173(16)
C14_4 C 0.0486(10) 0.2090(14) 0.0189(16)
H12_4 H 0.0592 0.2541 0.0308
C15_4 C 0.1954(14) 0.400(2) 0.3934(19)
H13_4 H 0.2125 0.4148 0.4365
C16_4 C 0.1652(14) 0.351(2) 0.373(2)
H14_4 H 0.1634 0.3299 0.4022
C17_4 C 0.1390(12) 0.335(2) 0.310(2)
C18_4 C 0.1437(12) 0.3604(18) 0.2697(18)
H15_4 H 0.1265 0.3466 0.2262
C19_4 C 0.1735(12) 0.4060(19) 0.2921(18)
H16_4 H 0.1758 0.4255 0.2627
C20_4 C 0.107(2) 0.280(3) 0.288(3)
C21_4 C 0.0480(16) 0.222(2) 0.204(2)
H17_4 H 0.0585 0.1863 0.2354
H18_4 H 0.0241 0.2432 0.1973
C22_4 C 0.0339(11) 0.1948(16) 0.1424(17)
C23_4 C 0.0041(12) 0.1478(16) 0.1145(19)
C25_4 C 0.0025(10) 0.1408(13) 0.0264(16)
C26_4 C 0.0334(10) 0.1884(14) 0.0528(16)
C27_4 C 0.0495(11) 0.2145(15) 0.1117(17)
H21_4 H 0.0713 0.2461 0.1314
O26_4 O 0.0395(7) 0.0190(10) 0.4326(11)
C67_4 C 0.0472(11) 0.0695(15) 0.4770(16)
H56_4 H 0.0493 0.0492 0.5121
H57_4 H 0.0745 0.0908 0.4965
H70_4 H 0.0058 0.1331 0.3640
C84_4 C 0.0127(9) 0.1201(13) 0.4443(15)
H71_4 H 0.0084 0.1221 0.5136
Cu1_5 Cu -0.0000 0.7501(2) 0.2500
O13_4 O 0.0124(10) 0.9780(10) 0.0704(13)
O19_4 O 0.0204(9) 0.5293(10) 0.4642(13)
O21_4 O 0.0728(13) 0.186(2) 0.385(2)
O22_4 O 0.1130(14) 0.2639(19) 0.4516(17)
O23_4 O 0.0830(8) 0.2873(13) 0.6975(12)
O24_4 O 0.0975(8) 0.3141(11) 0.6344(11)
N6_4 N 0.2031(8) 0.4433(12) 0.8253(13)
N7_4 N 0.0789(12) 0.7459(13) 0.3261(16)
N8_4 N 0.2470(9) 0.4725(16) 0.9730(17)
C4_4 C 0.0218(10) 0.8771(14) 0.1491(14)
H3_4 H 0.0422 0.8796 0.1434
C5_4 C 0.0231(10) 0.8268(13) 0.1848(15)
H4_4 H 0.0448 0.7952 0.2029
H7_4 H 0.1758 0.9931 0.1025
C28_4 C 0.0251(9) 0.6804(13) 0.3657(14)
H22_4 H 0.0443 0.7154 0.3878
C29_4 C 0.0254(10) 0.6327(13) 0.4004(14)
H23_4 H 0.0442 0.6348 0.4459
C35_4 C 0.1771(12) 0.0624(18) 0.4938(19)
H28_4 H 0.1777 0.0214 0.4784
C36_4 C 0.1428(13) 0.103(2) 0.451(2)
H29_4 H 0.1211 0.0905 0.4077
C37_4 C 0.1415(14) 0.160(2) 0.473(2)
C38_4 C 0.1732(16) 0.176(2) 0.534(2)
H30_4 H 0.1728 0.2165 0.5510
C39_4 C 0.2080(14) 0.132(2) 0.574(2)
H31_4 H 0.2312 0.1444 0.6169
C40_4 C 0.1060(17) 0.207(3) 0.431(3)
C41_4 C 0.080(2) 0.311(3) 0.412(3)
H32_4 H 0.0922 0.3533 0.4136
H33_4 H 0.0603 0.2964 0.3667
C42_4 C 0.1733(11) 0.4279(17) 0.8277(16)
H34_4 H 0.1738 0.4458 0.8605
C43_4 C 0.1406(11) 0.3854(19) 0.7828(18)
H35_4 H 0.1191 0.3759 0.7852
C44_4 C 0.1390(10) 0.3575(15) 0.7356(14)
C45_4 C 0.1712(12) 0.3741(18) 0.7349(17)
H36_4 H 0.1713 0.3570 0.7024
C46_4 C 0.2030(12) 0.4148(19) 0.7803(19)
H37_4 H 0.2256 0.4232 0.7802
C47_4 C 0.1044(11) 0.3162(15) 0.6885(17)
C48_4 C 0.0623(12) 0.2767(17) 0.5820(14)
H38_4 H 0.0710 0.2312 0.5851
H39_4 H 0.0390 0.2772 0.5837
C49_4 C 0.0036(12) 0.3820(14) 0.4351(17)
C50_4 C 0.0239(13) 0.3654(16) 0.4109(17)
H40_4 H 0.0160 0.3867 0.3736
C51_4 C 0.0548(15) 0.3196(17) 0.4395(18)
C52_4 C 0.0686(13) 0.2897(16) 0.4972(18)
H41_4 H 0.0913 0.2595 0.5188
C53_4 C 0.0482(13) 0.3056(15) 0.5217(16)
C54_4 C 0.0165(12) 0.3508(15) 0.4902(16)
H42_4 H 0.0028 0.3613 0.5070
C55_4 C 0.1115(17) 0.734(2) 0.363(2)
C56_4 C 0.152(2) 0.712(4) 0.416(3)
H43_4 H 0.1733 0.7445 0.4268
H44_4 H 0.1536 0.7043 0.4527
H45_4 H 0.1584 0.6712 0.4042
N9_4 N 0.2497(12) 0.548(2) 0.7972(19)
C59_4 C 0.2494(14) 0.548(2) 0.758(2)
C60_4 C 0.256(3) 0.542(8) 0.710(3)
H49_4 H 0.2401 0.5766 0.6784
H50_4 H 0.2859 0.5459 0.7322
H51_4 H 0.2453 0.4998 0.6892
O32_4 O 0.0274(8) 0.4802(10) 0.1303(11)
N10_4 N 0.0039(8) 0.8212(10) 0.3054(11)
N13_4 N 0.0010(8) 0.6799(9) 0.1982(11)
C61_4 C 0.0344(10) 0.8657(14) 0.3318(15)
H52_4 H 0.0546 0.8621 0.3256
C62_4 C 0.0375(10) 0.9163(13) 0.3674(14)
H53_4 H 0.0596 0.9473 0.3854
C63_4 C 0.0090(10) 0.9222(12) 0.3771(14)
C66_4 C 0.0115(13) 0.9760(15) 0.4156(17)
C90_4 C 0.0026(10) 0.5803(13) 0.1321(15)
C91_4 C 0.0296(9) 0.5801(12) 0.1972(14)
H75_4 H 0.0488 0.5451 0.2202
C92_4 C 0.0292(10) 0.6306(13) 0.2297(15)
H76_4 H 0.0490 0.6311 0.2753
C93_4 C 0.0005(12) 0.5272(15) 0.093(2)
C94_4 C 0.0329(12) 0.4283(16) 0.0986(19)
H77_4 H 0.0348 0.4476 0.0671
H78_4 H 0.0595 0.4046 0.1310
O14_4 O 0.9605(7) 0.0190(10) 0.0674(11)
C7_4 C 0.9528(11) 0.0695(15) 0.0230(16)
H6_4 H 0.9255 0.0908 0.0035
H19_4 H 0.9942 0.1331 0.1360
C24_4 C 0.9873(9) 0.1201(13) 0.0557(15)
O27_4 O 0.9044(8) 0.2251(12) 0.5170(13)
O28_4 O 0.9170(7) 0.1646(9) 0.4623(10)
O29_4 O 0.8930(16) 0.253(2) 0.172(2)
O30_4 O 0.9182(9) 0.2683(13) 0.2730(14)
C68_4 C 0.8250(12) 0.0349(16) 0.4130(18)
C69_4 C 0.8579(11) 0.0755(16) 0.4333(15)
H59_4 H 0.8784 0.0622 0.4297
C70_4 C 0.8614(9) 0.1342(14) 0.4586(14)
C71_4 C 0.8306(12) 0.1518(17) 0.4616(18)
H60_4 H 0.8324 0.1918 0.4806
C72_4 C 0.7972(12) 0.1106(19) 0.437(2)
H61_4 H 0.7749 0.1249 0.4361
C73_4 C 0.8964(11) 0.1798(16) 0.4827(16)
C74_4 C 0.9514(10) 0.2090(14) 0.4811(16)
H62_4 H 0.9746 0.2071 0.5281
H63_4 H 0.9408 0.2541 0.4692
C75_4 C 0.8046(14) 0.400(2) 0.1066(19)
H64_4 H 0.7875 0.4148 0.0635
C76_4 C 0.8348(14) 0.351(2) 0.127(2)
H65_4 H 0.8366 0.3299 0.0978
C77_4 C 0.8610(12) 0.335(2) 0.190(2)
C78_4 C 0.8563(12) 0.3604(18) 0.2303(18)
H66_4 H 0.8735 0.3466 0.2738
C79_4 C 0.8265(12) 0.4060(19) 0.2079(18)
H67_4 H 0.8242 0.4255 0.2373
C80_4 C 0.893(2) 0.280(3) 0.212(3)
C81_4 C 0.9520(16) 0.222(2) 0.296(2)
H68_4 H 0.9415 0.1863 0.2646
H69_4 H 0.9759 0.2432 0.3027
C82_4 C 0.9661(11) 0.1948(16) 0.3576(17)
C83_4 C 0.9959(12) 0.1478(16) 0.3855(19)
C85_4 C 0.9975(10) 0.1408(13) 0.4736(16)
C86_4 C 0.9666(10) 0.1884(14) 0.4472(16)
C87_4 C 0.9505(11) 0.2145(15) 0.3883(17)
H72_4 H 0.9287 0.2461 0.3686
Cu1_6 Cu 1.0000 0.7501(2) 0.2500
O20_4 O 0.9726(8) 0.4802(10) 0.3697(11)
N1_4 N 0.9961(8) 0.8212(10) 0.1946(11)
N4_4 N 0.9990(8) 0.6799(9) 0.3018(11)
C1_4 C 0.9656(10) 0.8657(14) 0.1682(15)
H1_4 H 0.9454 0.8621 0.1744
C2_4 C 0.9625(10) 0.9163(13) 0.1326(14)
H2_4 H 0.9404 0.9473 0.1146
C3_4 C 0.9910(10) 0.9222(12) 0.1229(14)
C6_4 C 0.9885(13) 0.9760(15) 0.0844(17)
C30_4 C 0.9974(10) 0.5803(13) 0.3679(15)
C31_4 C 0.9704(9) 0.5801(12) 0.3028(14)
H24_4 H 0.9512 0.5451 0.2798
C32_4 C 0.9708(10) 0.6306(13) 0.2703(15)
H25_4 H 0.9510 0.6311 0.2247
C33_4 C 0.9995(12) 0.5272(15) 0.407(2)
C34_4 C 0.9671(12) 0.4283(16) 0.4014(19)
H26_4 H 0.9652 0.4476 0.4329
H27_4 H 0.9405 0.4046 0.3690
O25_4 O 0.9876(10) 0.9780(10) 0.4296(13)
O31_4 O 0.9796(9) 0.5293(10) 0.0358(13)
O33_4 O 0.9272(13) 0.186(2) 0.115(2)
O34_4 O 0.8870(14) 0.2639(19) 0.0484(17)
N16_4 N 0.9211(12) 0.7459(13) 0.1739(16)
C64_4 C 0.9782(10) 0.8771(14) 0.3509(14)
H54_4 H 0.9578 0.8796 0.3566
C65_4 C 0.9769(10) 0.8268(13) 0.3152(15)
H55_4 H 0.9552 0.7952 0.2971
H58_4 H 0.8242 0.9931 0.3975
C88_4 C 0.9749(9) 0.6804(13) 0.1343(14)
H73_4 H 0.9557 0.7154 0.1122
C89_4 C 0.9746(10) 0.6327(13) 0.0996(14)
H74_4 H 0.9558 0.6348 0.0541
C95_4 C 0.8229(12) 0.0624(18) 0.0062(19)
H79_4 H 0.8223 0.0214 0.0216
C96_4 C 0.8572(13) 0.103(2) 0.049(2)
H80_4 H 0.8789 0.0905 0.0923
C97_4 C 0.8585(14) 0.160(2) 0.027(2)
C100_4 C 0.8940(17) 0.207(3) 0.069(3)
C101_4 C 0.920(2) 0.311(3) 0.088(3)
H83_4 H 0.9078 0.3533 0.0864
H84_4 H 0.9397 0.2964 0.1333
C109_4 C 0.9964(12) 0.3820(14) 0.0649(17)
C110_4 C 0.9761(13) 0.3654(16) 0.0891(17)
H91_4 H 0.9840 0.3867 0.1264
C111_4 C 0.9452(15) 0.3196(17) 0.0605(18)
C112_4 C 0.9314(13) 0.2897(16) 0.0028(18)
C114_4 C 0.9835(12) 0.3508(15) 0.0098(16)
C115_4 C 0.8885(17) 0.734(2) 0.137(2)
C116_4 C 0.848(2) 0.712(4) 0.084(3)
H94_4 H 0.8267 0.7445 0.0732
H95_4 H 0.8464 0.7043 0.0473
H96_4 H 0.8416 0.6712 0.0958
O35_4 O 0.9170(8) 0.2873(13) 0.8025(12)
O36_4 O 0.9025(8) 0.3141(11) 0.8656(11)
N15_4 N 0.7969(8) 0.4433(12) 0.6747(13)
N17_4 N 0.7530(9) 0.4725(16) 0.5270(17)
C98_4 C 0.8268(16) 0.176(2) 0.966(2)
H81_4 H 0.8272 0.2165 0.9490
C99_4 C 0.7920(14) 0.132(2) 0.926(2)
H82_4 H 0.7688 0.1444 0.8831
C102_4 C 0.8267(11) 0.4279(17) 0.6723(16)
H85_4 H 0.8262 0.4458 0.6395
C103_4 C 0.8594(11) 0.3854(19) 0.7172(18)
H86_4 H 0.8809 0.3759 0.7148
C104_4 C 0.8610(10) 0.3575(15) 0.7644(14)
C105_4 C 0.8288(12) 0.3741(18) 0.7651(17)
H87_4 H 0.8287 0.3570 0.7976
C106_4 C 0.7970(12) 0.4148(19) 0.7197(19)
H88_4 H 0.7744 0.4232 0.7198
C107_4 C 0.8956(11) 0.3162(15) 0.8115(17)
C108_4 C 0.9377(12) 0.2767(17) 0.9180(14)
H89_4 H 0.9290 0.2312 0.9149
H90_4 H 0.9610 0.2772 0.9163
H92_4 H 0.9087 0.2595 0.9812
C113_4 C 0.9518(13) 0.3056(15) 0.9783(16)
H93_4 H 0.9972 0.3613 0.9930
C117_4 C 0.7554(14) 0.455(2) 0.491(2)
C118_4 C 0.758(2) 0.441(4) 0.442(3)
H97_4 H 0.7708 0.3980 0.4499
H98_4 H 0.7295 0.4408 0.4001
H99_4 H 0.7753 0.4736 0.4424
N18_4 N 0.7503(12) 0.548(2) 0.7028(19)
C119_4 C 0.7506(14) 0.548(2) 0.742(2)
C120_4 C 0.744(3) 0.542(8) 0.790(3)
H100_4 H 0.7599 0.5766 0.8216
H101_4 H 0.7141 0.5459 0.7678
H102_4 H 0.7547 0.4998 0.8108
C57 C 0.2554(14) 0.045(2) 0.991(2)
C58 C 0.258(2) 0.059(4) 0.942(3)
H46 H 0.2708 0.1020 0.9499
H47 H 0.2295 0.0592 0.9001
H48 H 0.2753 0.0264 0.9424
H5_3 H 0.0493 0.9508 0.0121
H20_3 H 0.0084 0.8779 0.0136
C57_2 C 0.7554(14) 0.545(2) 0.991(2)
C58_2 C 0.758(2) 0.559(4) 0.942(3)
H46_2 H 0.7708 0.6020 0.9499
H47_2 H 0.7295 0.5592 0.9001
H48_2 H 0.7753 0.5264 0.9424
O15_3 O 0.9044(8) 0.7749(12) 0.0170(13)
H11_3 H 0.9746 0.7929 0.0281
C57_3 C 0.7446(14) 0.955(2) 0.009(2)
C58_3 C 0.742(2) 0.941(4) 0.058(3)
H46_3 H 0.7292 0.8980 0.0501
H47_3 H 0.7705 0.9408 0.0999
H48_3 H 0.7247 0.9736 0.0576
O15_4 O 0.0956(8) 0.2251(12) 0.9830(13)
H11_4 H 0.0254 0.2071 0.9719
C57_4 C 0.2446(14) 0.455(2) 0.009(2)
C58_4 C 0.242(2) 0.441(4) 0.058(3)
H46_4 H 0.2292 0.3980 0.0501
H47_4 H 0.2705 0.4408 0.0999
H48_4 H 0.2247 0.4736 0.0576
H5_4 H 0.9507 0.0492 0.9879
H20_4 H 0.9916 0.1221 0.9864
loop_
_geom_bond_atom_site_label_1
_geom_bond_atom_site_label_2
_geom_bond_site_symmetry_1
_geom_bond_site_symmetry_2
Cl1 O1_2 1_555 1_555
O3 Cl1 1_555 1_555
Cl1_2 O1_4 1_555 1_555
O3_2 Cl1_2 1_555 1_555
Cl1_3 O1_5 1_555 1_555
O2_3 Cl1_3 1_555 1_555
O3_3 Cl1_3 1_555 1_555
O4_3 Cl1_3 1_555 1_555
Cl1_4 O1_6 1_555 1_555
O2_4 Cl1_4 1_555 1_555
O3_4 Cl1_4 1_555 1_555
O4_4 Cl1_4 1_555 1_555
Cl1_5 O1_7 1_555 1_555
O3_5 Cl1_5 1_555 1_555
Cl1_6 O1_9 1_555 1_555
O3_6 Cl1_6 1_555 1_555
Cl1_7 O1_11 1_555 1_555
O2_7 Cl1_7 1_555 1_555
O3_7 Cl1_7 1_555 1_555
O4_7 Cl1_7 1_555 1_555
Cl1_8 O1_12 1_555 1_555
O2_8 Cl1_8 1_555 1_555
O3_8 Cl1_8 1_555 1_555
O4_8 Cl1_8 1_555 1_555
Cl2 O5 1_555 1_555
O6 Cl2 1_555 1_555
O7 Cl2 1_555 1_555
O8 Cl2 1_555 1_555
Cl2_2 O5_2 1_555 1_555
O6_2 Cl2_2 1_555 1_555
O7_2 Cl2_2 1_555 1_555
O8_2 Cl2_2 1_555 1_555
Cl2_3 O5_3 1_555 1_555
O6_3 Cl2_3 1_555 1_555
O7_3 Cl2_3 1_555 1_555
O8_3 Cl2_3 1_555 1_555
Cl2_4 O5_4 1_555 1_555
O6_4 Cl2_4 1_555 1_555
O7_4 Cl2_4 1_555 1_555
O8_4 Cl2_4 1_555 1_555
Cl2_5 O5_5 1_555 1_555
O6_5 Cl2_5 1_555 1_555
O7_5 Cl2_5 1_555 1_555
O8_5 Cl2_5 1_555 1_555
Cl2_6 O5_6 1_555 1_555
O6_6 Cl2_6 1_555 1_555
O7_6 Cl2_6 1_555 1_555
O8_6 Cl2_6 1_555 1_555
Cl2_7 O5_7 1_555 1_555
O6_7 Cl2_7 1_555 1_555
O7_7 Cl2_7 1_555 1_555
O8_7 Cl2_7 1_555 1_555
Cl2_8 O5_8 1_555 1_555
O6_8 Cl2_8 1_555 1_555
O7_8 Cl2_8 1_555 1_555
O8_8 Cl2_8 1_555 1_555
Cl3 O9 1_555 1_555
O10 Cl3 1_555 1_555
O11 Cl3 1_555 1_555
O12 Cl3 1_555 1_555
Cl3_2 O9_2 1_555 1_555
O10_2 Cl3_2 1_555 1_555
O11_2 Cl3_2 1_555 1_555
O12_2 Cl3_2 1_555 1_555
Cl3_3 O9_3 1_555 1_555
O10_3 Cl3_3 1_555 1_555
O11_3 Cl3_3 1_555 1_555
O12_3 Cl3_3 1_555 1_555
Cl3_4 O9_4 1_555 1_555
O10_4 Cl3_4 1_555 1_555
O11_4 Cl3_4 1_555 1_555
O12_4 Cl3_4 1_555 1_555
Cl3_5 O9_5 1_555 1_555
O10_5 Cl3_5 1_555 1_555
O11_5 Cl3_5 1_555 1_555
O12_5 Cl3_5 1_555 1_555
Cl3_6 O9_6 1_555 1_555
O10_6 Cl3_6 1_555 1_555
O11_6 Cl3_6 1_555 1_555
O12_6 Cl3_6 1_555 1_555
Cl3_7 O9_7 1_555 1_555
O10_7 Cl3_7 1_555 1_555
O11_7 Cl3_7 1_555 1_555
O12_7 Cl3_7 1_555 1_555
Cl3_8 O9_8 1_555 1_555
O10_8 Cl3_8 1_555 1_555
O11_8 Cl3_8 1_555 1_555
O12_8 Cl3_8 1_555 1_555
O35 C107 1_555 1_555
O36 C107 1_555 1_555
N15 C102 1_555 1_555
H81 C98 1_555 1_555
C99 N14 1_555 1_555
H82 C99 1_555 1_555
C102 H85 1_555 1_555
C103 C102 1_555 1_555
H86 C103 1_555 1_555
C104 C103 1_555 1_555
C105 C104 1_555 1_555
H87 C105 1_555 1_555
C106 N15 1_555 1_555
H88 C106 1_555 1_555
C107 C104 1_555 1_555
C108 O36 1_555 1_555
H89 C108 1_555 1_555
H90 C108 1_555 1_555
C113 C108 1_555 1_555
C117 N17 1_555 1_555
C118 C117 1_555 1_555
H97 C118 1_555 1_555
H98 C118 1_555 1_555
H99 C118 1_555 1_555
Cu4 N14 1_555 1_555
C98 C99 1_555 1_555
C105 C106 1_555 1_555
O21 C40 1_555 1_555
O22 C40 1_555 1_555
O23 C47 1_555 1_555
O24 C47 1_555 1_555
N5 C35 1_555 1_555
N6 C42 1_555 1_555
C34 O20 1_555 1_555
H26 C34 1_555 1_555
H27 C34 1_555 1_555
C35 H28 1_555 1_555
C36 C35 1_555 1_555
H29 C36 1_555 1_555
C37 C36 1_555 1_555
C38 C37 1_555 1_555
H30 C38 1_555 1_555
C39 N5 1_555 1_555
H31 C39 1_555 1_555
C40 C37 1_555 1_555
C41 O22 1_555 1_555
H32 C41 1_555 1_555
H33 C41 1_555 1_555
C42 H34 1_555 1_555
C43 C42 1_555 1_555
H35 C43 1_555 1_555
C44 C43 1_555 1_555
C45 C44 1_555 1_555
H36 C45 1_555 1_555
C46 N6 1_555 1_555
H37 C46 1_555 1_555
C47 C44 1_555 1_555
C48 O24 1_555 1_555
H38 C48 1_555 1_555
H39 C48 1_555 1_555
C49 C34 1_555 1_555
C50 C49 1_555 1_555
H40 C50 1_555 1_555
C51 C41 1_555 1_555
C52 C51 1_555 1_555
H41 C52 1_555 1_555
C53 C48 1_555 1_555
C54 C49 1_555 1_555
H42 C54 1_555 1_555
O33 C100 1_555 1_555
O34 C100 1_555 1_555
C94 O32 1_555 1_555
H77 C94 1_555 1_555
H78 C94 1_555 1_555
C95 H79 1_555 1_555
C96 C95 1_555 1_555
H80 C96 1_555 1_555
C97 C96 1_555 1_555
C100 C97 1_555 1_555
C101 O34 1_555 1_555
H83 C101 1_555 1_555
H84 C101 1_555 1_555
C109 C94 1_555 1_555
C110 C109 1_555 1_555
H91 C110 1_555 1_555
C111 C101 1_555 1_555
C112 C111 1_555 1_555
C114 C109 1_555 1_555
Cu5 N5 1_555 1_555
C38 C39 1_555 1_555
C45 C46 1_555 1_555
C50 C51 1_555 1_555
C52 C53 1_555 1_555
C53 C54 1_555 1_555
C110 C111 1_555 1_555
N18 Cu3 1_555 1_555
C119 N18 1_555 1_555
C120 C119 1_555 1_555
H100 C120 1_555 1_555
H101 C120 1_555 1_555
N21 Cu3 1_555 1_555
N23 Cu3 1_555 1_555
Cu1 N1 1_555 1_555
O13 C6 1_555 1_555
O14 C6 1_555 1_555
O16 C13 1_555 1_555
O17 C20 1_555 1_555
O18 C20 1_555 1_555
O19 C33 1_555 1_555
N1 C1 1_555 1_555
N2 C8 1_555 1_555
N3 C15 1_555 1_555
N4 Cu1 1_555 1_555
N7 Cu1 1_555 1_555
C1 H1 1_555 1_555
C2 C1 1_555 1_555
H2 C2 1_555 1_555
C3 C2 1_555 1_555
C4 C3 1_555 1_555
H3 C4 1_555 1_555
C5 N1 1_555 1_555
H4 C5 1_555 1_555
C6 C3 1_555 1_555
C7 O14 1_555 1_555
H6 C7 1_555 1_555
C8 H7 1_555 1_555
C9 C8 1_555 1_555
H8 C9 1_555 1_555
C10 C9 1_555 1_555
C11 C10 1_555 1_555
H9 C11 1_555 1_555
C12 N2 1_555 1_555
H10 C12 1_555 1_555
C13 C10 1_555 1_555
C14 O16 1_555 1_555
H12 C14 1_555 1_555
C15 H13 1_555 1_555
C16 C15 1_555 1_555
H14 C16 1_555 1_555
C17 C16 1_555 1_555
C18 C17 1_555 1_555
H15 C18 1_555 1_555
C19 N3 1_555 1_555
H16 C19 1_555 1_555
C20 C17 1_555 1_555
C21 O18 1_555 1_555
H17 C21 1_555 1_555
H18 C21 1_555 1_555
C22 C21 1_555 1_555
C23 C22 1_555 1_555
H19 C23 1_555 1_555
C24 C7 1_555 1_555
C25 C24 1_555 1_555
C26 C14 1_555 1_555
C27 C22 1_555 1_555
H21 C27 1_555 1_555
C28 N4 1_555 1_555
H22 C28 1_555 1_555
C29 C28 1_555 1_555
H23 C29 1_555 1_555
C30 C29 1_555 1_555
C31 C30 1_555 1_555
H24 C31 1_555 1_555
C32 N4 1_555 1_555
H25 C32 1_555 1_555
C33 C30 1_555 1_555
C55 N7 1_555 1_555
C56 C55 1_555 1_555
H43 C56 1_555 1_555
H44 C56 1_555 1_555
H45 C56 1_555 1_555
N9 Cu2 1_555 1_555
C59 N9 1_555 1_555
C60 C59 1_555 1_555
H49 C60 1_555 1_555
H50 C60 1_555 1_555
O25 C66 1_555 1_555
O26 C66 1_555 1_555
O27 C73 1_555 1_555
O28 C73 1_555 1_555
O29 C80 1_555 1_555
O30 C80 1_555 1_555
O31 C93 1_555 1_555
N10 Cu1 1_555 1_555
N11 C68 1_555 1_555
N12 C75 1_555 1_555
N13 Cu1 1_555 1_555
N16 Cu1 1_555 1_555
C61 N10 1_555 1_555
H52 C61 1_555 1_555
C62 C61 1_555 1_555
H53 C62 1_555 1_555
C63 C62 1_555 1_555
C64 C63 1_555 1_555
H54 C64 1_555 1_555
C65 N10 1_555 1_555
H55 C65 1_555 1_555
C66 C63 1_555 1_555
C67 O26 1_555 1_555
H56 C67 1_555 1_555
H57 C67 1_555 1_555
C68 H58 1_555 1_555
C69 C68 1_555 1_555
H59 C69 1_555 1_555
C70 C69 1_555 1_555
C71 C70 1_555 1_555
H60 C71 1_555 1_555
C72 N11 1_555 1_555
H61 C72 1_555 1_555
C73 C70 1_555 1_555
C74 O28 1_555 1_555
H62 C74 1_555 1_555
H63 C74 1_555 1_555
C75 H64 1_555 1_555
C76 C75 1_555 1_555
H65 C76 1_555 1_555
C77 C76 1_555 1_555
C78 C77 1_555 1_555
H66 C78 1_555 1_555
C79 N12 1_555 1_555
H67 C79 1_555 1_555
C80 C77 1_555 1_555
C81 O30 1_555 1_555
H68 C81 1_555 1_555
H69 C81 1_555 1_555
C82 C81 1_555 1_555
C83 C82 1_555 1_555
H70 C83 1_555 1_555
C84 C67 1_555 1_555
C85 C84 1_555 1_555
H71 C85 1_555 1_555
C86 C74 1_555 1_555
C87 C82 1_555 1_555
H72 C87 1_555 1_555
C88 N13 1_555 1_555
H73 C88 1_555 1_555
C89 C88 1_555 1_555
H74 C89 1_555 1_555
C90 C89 1_555 1_555
C91 C90 1_555 1_555
H75 C91 1_555 1_555
C92 N13 1_555 1_555
H76 C92 1_555 1_555
C93 C90 1_555 1_555
C115 N16 1_555 1_555
C116 C115 1_555 1_555
H94 C116 1_555 1_555
H95 C116 1_555 1_555
H96 C116 1_555 1_555
Cu6 N12 1_555 1_555
Cu7 N3 1_555 1_555
Cu8 N2 1_555 1_555
Cu9 N11 1_555 1_555
N22 Cu2 1_555 1_555
N24 Cu2 1_555 1_555
C4 C5 1_555 1_555
C11 C12 1_555 1_555
C18 C19 1_555 1_555
C23 C24 1_555 1_555
C25 C26 1_555 1_555
C26 C27 1_555 1_555
C31 C32 1_555 1_555
C64 C65 1_555 1_555
C71 C72 1_555 1_555
C78 C79 1_555 1_555
C83 C84 1_555 1_555
C85 C86 1_555 1_555
C86 C87 1_555 1_555
C91 C92 1_555 1_555
Cu5 N15_2 1_555 1_555
O35_2 C107_2 1_555 1_555
O36_2 C107_2 1_555 1_555
N15_2 C102_2 1_555 1_555
N17_2 Cu5 1_555 1_555
H81_2 C98_2 1_555 1_555
C99_2 N24 1_555 1_555
H82_2 C99_2 1_555 1_555
C102_2 H85_2 1_555 1_555
C103_2 C102_2 1_555 1_555
H86_2 C103_2 1_555 1_555
C104_2 C103_2 1_555 1_555
C105_2 C104_2 1_555 1_555
H87_2 C105_2 1_555 1_555
C106_2 N15_2 1_555 1_555
H88_2 C106_2 1_555 1_555
C107_2 C104_2 1_555 1_555
C108_2 O36_2 1_555 1_555
H89_2 C108_2 1_555 1_555
H90_2 C108_2 1_555 1_555
C113_2 C108_2 1_555 1_555
C117_2 N17_2 1_555 1_555
C118_2 C117_2 1_555 1_555
H97_2 C118_2 1_555 1_555
H98_2 C118_2 1_555 1_555
H99_2 C118_2 1_555 1_555
N18_2 Cu5 1_555 1_555
C119_2 N18_2 1_555 1_555
C120_2 C119_2 1_555 1_555
H100_2 C120_2 1_555 1_555
H101_2 C120_2 1_555 1_555
H102_2 C120_2 1_555 1_555
N20_2 Cu5 1_555 1_555
N21_2 Cu5 1_555 1_555
C98_2 C99_2 1_555 1_555
C105_2 C106_2 1_555 1_555
Cu1_2 N1_2 1_555 1_555
O20_2 C33_2 1_555 1_555
N1_2 C1_2 1_555 1_555
N4_2 Cu1_2 1_555 1_555
C1_2 H1_2 1_555 1_555
C2_2 C1_2 1_555 1_555
H2_2 C2_2 1_555 1_555
C3_2 C2_2 1_555 1_555
C6_2 C3_2 1_555 1_555
C31_2 C30_2 1_555 1_555
H24_2 C31_2 1_555 1_555
C32_2 N4_2 1_555 1_555
H25_2 C32_2 1_555 1_555
C33_2 C30_2 1_555 1_555
C34_2 O20_2 1_555 1_555
H26_2 C34_2 1_555 1_555
H27_2 C34_2 1_555 1_555
O33_2 C100_2 1_555 1_555
O34_2 C100_2 1_555 1_555
N16_2 Cu1_2 1_555 1_555
H54_2 C64_2 1_555 1_555
H55_2 C65_2 1_555 1_555
H73_2 C88_2 1_555 1_555
C89_2 C88_2 1_555 1_555
H74_2 C89_2 1_555 1_555
C95_2 H79_2 1_555 1_555
C96_2 C95_2 1_555 1_555
H80_2 C96_2 1_555 1_555
C97_2 C96_2 1_555 1_555
C100_2 C97_2 1_555 1_555
C101_2 O34_2 1_555 1_555
H83_2 C101_2 1_555 1_555
H84_2 C101_2 1_555 1_555
C110_2 C109_2 1_555 1_555
H91_2 C110_2 1_555 1_555
C111_2 C101_2 1_555 1_555
C112_2 C111_2 1_555 1_555
C114_2 C109_2 1_555 1_555
C115_2 N16_2 1_555 1_555
C116_2 C115_2 1_555 1_555
H94_2 C116_2 1_555 1_555
H95_2 C116_2 1_555 1_555
H96_2 C116_2 1_555 1_555
C31_2 C32_2 1_555 1_555
C64_2 C65_2 1_555 1_555
C110_2 C111_2 1_555 1_555
C7_2 O14_2 1_555 1_555
H6_2 C7_2 1_555 1_555
C24_2 C7_2 1_555 1_555
O27_2 C73_2 1_555 1_555
O28_2 C73_2 1_555 1_555
O29_2 C80_2 1_555 1_555
O30_2 C80_2 1_555 1_555
N11_2 C68_2 1_555 1_555
N12_2 C75_2 1_555 1_555
C69_2 C68_2 1_555 1_555
H59_2 C69_2 1_555 1_555
C70_2 C69_2 1_555 1_555
C71_2 C70_2 1_555 1_555
H60_2 C71_2 1_555 1_555
C72_2 N11_2 1_555 1_555
H61_2 C72_2 1_555 1_555
C73_2 C70_2 1_555 1_555
C74_2 O28_2 1_555 1_555
H62_2 C74_2 1_555 1_555
H63_2 C74_2 1_555 1_555
C75_2 H64_2 1_555 1_555
C76_2 C75_2 1_555 1_555
H65_2 C76_2 1_555 1_555
C77_2 C76_2 1_555 1_555
C78_2 C77_2 1_555 1_555
H66_2 C78_2 1_555 1_555
C79_2 N12_2 1_555 1_555
H67_2 C79_2 1_555 1_555
C80_2 C77_2 1_555 1_555
C81_2 O30_2 1_555 1_555
H68_2 C81_2 1_555 1_555
H69_2 C81_2 1_555 1_555
C82_2 C81_2 1_555 1_555
C83_2 C82_2 1_555 1_555
C86_2 C74_2 1_555 1_555
C87_2 C82_2 1_555 1_555
H72_2 C87_2 1_555 1_555
Cu8 N12_2 1_555 1_555
C71_2 C72_2 1_555 1_555
C78_2 C79_2 1_555 1_555
C85_2 C86_2 1_555 1_555
C86_2 C87_2 1_555 1_555
Cu4 N6_2 1_555 1_555
O21_2 C40_2 1_555 1_555
O22_2 C40_2 1_555 1_555
O23_2 C47_2 1_555 1_555
O24_2 C47_2 1_555 1_555
N23 C35_2 1_555 1_555
N6_2 C42_2 1_555 1_555
N7_2 Cu1_3 1_555 1_555
N8_2 Cu4 1_555 1_555
H3_2 C4_2 1_555 1_555
H4_2 C5_2 1_555 1_555
H22_2 C28_2 1_555 1_555
C29_2 C28_2 1_555 1_555
H23_2 C29_2 1_555 1_555
C35_2 H28_2 1_555 1_555
C36_2 C35_2 1_555 1_555
H29_2 C36_2 1_555 1_555
C37_2 C36_2 1_555 1_555
C38_2 C37_2 1_555 1_555
H30_2 C38_2 1_555 1_555
C39_2 N23 1_555 1_555
H31_2 C39_2 1_555 1_555
C40_2 C37_2 1_555 1_555
C41_2 O22_2 1_555 1_555
H32_2 C41_2 1_555 1_555
H33_2 C41_2 1_555 1_555
C42_2 H34_2 1_555 1_555
C43_2 C42_2 1_555 1_555
H35_2 C43_2 1_555 1_555
C44_2 C43_2 1_555 1_555
C45_2 C44_2 1_555 1_555
H36_2 C45_2 1_555 1_555
C46_2 N6_2 1_555 1_555
H37_2 C46_2 1_555 1_555
C47_2 C44_2 1_555 1_555
C48_2 O24_2 1_555 1_555
H38_2 C48_2 1_555 1_555
H39_2 C48_2 1_555 1_555
C50_2 C49_2 1_555 1_555
H40_2 C50_2 1_555 1_555
C51_2 C41_2 1_555 1_555
C52_2 C51_2 1_555 1_555
H41_2 C52_2 1_555 1_555
C53_2 C48_2 1_555 1_555
C54_2 C49_2 1_555 1_555
H42_2 C54_2 1_555 1_555
C55_2 N7_2 1_555 1_555
C56_2 C55_2 1_555 1_555
H43_2 C56_2 1_555 1_555
H44_2 C56_2 1_555 1_555
H45_2 C56_2 1_555 1_555
N9_2 Cu4 1_555 1_555
C59_2 N9_2 1_555 1_555
C60_2 C59_2 1_555 1_555
H49_2 C60_2 1_555 1_555
H50_2 C60_2 1_555 1_555
H51_2 C60_2 1_555 1_555
O32_2 C93_2 1_555 1_555
N10_2 Cu1_3 1_555 1_555
N13_2 Cu1_3 1_555 1_555
C61_2 N10_2 1_555 1_555
H52_2 C61_2 1_555 1_555
C62_2 C61_2 1_555 1_555
H53_2 C62_2 1_555 1_555
C63_2 C62_2 1_555 1_555
C66_2 C63_2 1_555 1_555
C91_2 C90_2 1_555 1_555
H75_2 C91_2 1_555 1_555
C92_2 N13_2 1_555 1_555
H76_2 C92_2 1_555 1_555
C93_2 C90_2 1_555 1_555
C94_2 O32_2 1_555 1_555
H77_2 C94_2 1_555 1_555
H78_2 C94_2 1_555 1_555
N19_2 Cu4 1_555 1_555
N22_2 Cu4 1_555 1_555
C4_2 C5_2 1_555 1_555
C38_2 C39_2 1_555 1_555
C45_2 C46_2 1_555 1_555
C50_2 C51_2 1_555 1_555
C52_2 C53_2 1_555 1_555
C53_2 C54_2 1_555 1_555
C91_2 C92_2 1_555 1_555
O16_2 C13_2 1_555 1_555
O17_2 C20_2 1_555 1_555
O18_2 C20_2 1_555 1_555
N2_2 C8_2 1_555 1_555
N3_2 C15_2 1_555 1_555
C9_2 C8_2 1_555 1_555
H8_2 C9_2 1_555 1_555
C10_2 C9_2 1_555 1_555
C11_2 C10_2 1_555 1_555
H9_2 C11_2 1_555 1_555
C12_2 N2_2 1_555 1_555
H10_2 C12_2 1_555 1_555
C13_2 C10_2 1_555 1_555
C14_2 O16_2 1_555 1_555
H12_2 C14_2 1_555 1_555
C15_2 H13_2 1_555 1_555
C16_2 C15_2 1_555 1_555
H14_2 C16_2 1_555 1_555
C17_2 C16_2 1_555 1_555
C18_2 C17_2 1_555 1_555
H15_2 C18_2 1_555 1_555
C19_2 N3_2 1_555 1_555
H16_2 C19_2 1_555 1_555
C20_2 C17_2 1_555 1_555
C21_2 O18_2 1_555 1_555
H17_2 C21_2 1_555 1_555
H18_2 C21_2 1_555 1_555
C22_2 C21_2 1_555 1_555
C23_2 C22_2 1_555 1_555
C26_2 C14_2 1_555 1_555
C27_2 C22_2 1_555 1_555
H21_2 C27_2 1_555 1_555
C67_2 O26_2 1_555 1_555
H56_2 C67_2 1_555 1_555
H57_2 C67_2 1_555 1_555
C84_2 C67_2 1_555 1_555
Cu9 N3_2 1_555 1_555
C11_2 C12_2 1_555 1_555
C18_2 C19_2 1_555 1_555
C25_2 C26_2 1_555 1_555
C26_2 C27_2 1_555 1_555
Cu1_4 N1_3 1_555 1_555
O13_3 C6_3 1_555 1_555
O14_3 C6_3 1_555 1_555
O16_3 C13_3 1_555 1_555
O17_3 C20_3 1_555 1_555
O18_3 C20_3 1_555 1_555
O19_3 C33_3 1_555 1_555
N1_3 C1_3 1_555 1_555
N19_2 C8_3 1_555 1_555
N21 C15_3 1_555 1_555
N4_3 Cu1_4 1_555 1_555
N7_3 Cu1_4 1_555 1_555
C1_3 H1_3 1_555 1_555
C2_3 C1_3 1_555 1_555
H2_3 C2_3 1_555 1_555
C3_3 C2_3 1_555 1_555
C4_3 C3_3 1_555 1_555
H3_3 C4_3 1_555 1_555
C5_3 N1_3 1_555 1_555
H4_3 C5_3 1_555 1_555
C6_3 C3_3 1_555 1_555
C7_3 O14_3 1_555 1_555
H6_3 C7_3 1_555 1_555
C8_3 H7_3 1_555 1_555
C9_3 C8_3 1_555 1_555
H8_3 C9_3 1_555 1_555
C10_3 C9_3 1_555 1_555
C11_3 C10_3 1_555 1_555
H9_3 C11_3 1_555 1_555
C12_3 N19_2 1_555 1_555
H10_3 C12_3 1_555 1_555
C13_3 C10_3 1_555 1_555
C14_3 O16_3 1_555 1_555
H12_3 C14_3 1_555 1_555
C15_3 H13_3 1_555 1_555
C16_3 C15_3 1_555 1_555
H14_3 C16_3 1_555 1_555
C17_3 C16_3 1_555 1_555
C18_3 C17_3 1_555 1_555
H15_3 C18_3 1_555 1_555
C19_3 N21 1_555 1_555
H16_3 C19_3 1_555 1_555
C20_3 C17_3 1_555 1_555
C21_3 O18_3 1_555 1_555
H17_3 C21_3 1_555 1_555
H18_3 C21_3 1_555 1_555
C22_3 C21_3 1_555 1_555
C23_3 C22_3 1_555 1_555
H19_3 C23_3 1_555 1_555
C24_3 C7_3 1_555 1_555
C25_3 C24_3 1_555 1_555
C26_3 C14_3 1_555 1_555
C27_3 C22_3 1_555 1_555
H21_3 C27_3 1_555 1_555
C28_3 N4_3 1_555 1_555
H22_3 C28_3 1_555 1_555
C29_3 C28_3 1_555 1_555
H23_3 C29_3 1_555 1_555
C30_3 C29_3 1_555 1_555
C31_3 C30_3 1_555 1_555
H24_3 C31_3 1_555 1_555
C32_3 N4_3 1_555 1_555
H25_3 C32_3 1_555 1_555
C33_3 C30_3 1_555 1_555
C55_3 N7_3 1_555 1_555
C56_3 C55_3 1_555 1_555
H43_3 C56_3 1_555 1_555
H44_3 C56_3 1_555 1_555
H45_3 C56_3 1_555 1_555
N9_3 Cu6 1_555 1_555
C59_3 N9_3 1_555 1_555
C60_3 C59_3 1_555 1_555
H49_3 C60_3 1_555 1_555
H50_3 C60_3 1_555 1_555
O25_3 C66_3 1_555 1_555
O26_3 C66_3 1_555 1_555
O27_3 C73_3 1_555 1_555
O28_3 C73_3 1_555 1_555
O29_3 C80_3 1_555 1_555
O30_3 C80_3 1_555 1_555
O31_3 C93_3 1_555 1_555
N10_3 Cu1_4 1_555 1_555
N20_2 C68_3 1_555 1_555
N22 C75_3 1_555 1_555
N13_3 Cu1_4 1_555 1_555
N16_3 Cu1_4 1_555 1_555
C61_3 N10_3 1_555 1_555
H52_3 C61_3 1_555 1_555
C62_3 C61_3 1_555 1_555
H53_3 C62_3 1_555 1_555
C63_3 C62_3 1_555 1_555
C64_3 C63_3 1_555 1_555
H54_3 C64_3 1_555 1_555
C65_3 N10_3 1_555 1_555
H55_3 C65_3 1_555 1_555
C66_3 C63_3 1_555 1_555
C67_3 O26_3 1_555 1_555
H56_3 C67_3 1_555 1_555
H57_3 C67_3 1_555 1_555
C68_3 H58_3 1_555 1_555
C69_3 C68_3 1_555 1_555
H59_3 C69_3 1_555 1_555
C70_3 C69_3 1_555 1_555
C71_3 C70_3 1_555 1_555
H60_3 C71_3 1_555 1_555
C72_3 N20_2 1_555 1_555
H61_3 C72_3 1_555 1_555
C73_3 C70_3 1_555 1_555
C74_3 O28_3 1_555 1_555
H62_3 C74_3 1_555 1_555
H63_3 C74_3 1_555 1_555
C75_3 H64_3 1_555 1_555
C76_3 C75_3 1_555 1_555
H65_3 C76_3 1_555 1_555
C77_3 C76_3 1_555 1_555
C78_3 C77_3 1_555 1_555
H66_3 C78_3 1_555 1_555
C79_3 N22 1_555 1_555
H67_3 C79_3 1_555 1_555
C80_3 C77_3 1_555 1_555
C81_3 O30_3 1_555 1_555
H68_3 C81_3 1_555 1_555
H69_3 C81_3 1_555 1_555
C82_3 C81_3 1_555 1_555
C83_3 C82_3 1_555 1_555
H70_3 C83_3 1_555 1_555
C84_3 C67_3 1_555 1_555
C85_3 C84_3 1_555 1_555
H71_3 C85_3 1_555 1_555
C86_3 C74_3 1_555 1_555
C87_3 C82_3 1_555 1_555
H72_3 C87_3 1_555 1_555
C88_3 N13_3 1_555 1_555
H73_3 C88_3 1_555 1_555
C89_3 C88_3 1_555 1_555
H74_3 C89_3 1_555 1_555
C90_3 C89_3 1_555 1_555
C91_3 C90_3 1_555 1_555
H75_3 C91_3 1_555 1_555
C92_3 N13_3 1_555 1_555
H76_3 C92_3 1_555 1_555
C93_3 C90_3 1_555 1_555
C115_3 N16_3 1_555 1_555
C116_3 C115_3 1_555 1_555
H94_3 C116_3 1_555 1_555
H95_3 C116_3 1_555 1_555
H96_3 C116_3 1_555 1_555
N24_2 Cu6 1_555 1_555
C4_3 C5_3 1_555 1_555
C11_3 C12_3 1_555 1_555
C18_3 C19_3 1_555 1_555
C23_3 C24_3 1_555 1_555
C25_3 C26_3 1_555 1_555
C26_3 C27_3 1_555 1_555
C31_3 C32_3 1_555 1_555
C64_3 C65_3 1_555 1_555
C71_3 C72_3 1_555 1_555
C78_3 C79_3 1_555 1_555
C83_3 C84_3 1_555 1_555
C85_3 C86_3 1_555 1_555
C86_3 C87_3 1_555 1_555
C91_3 C92_3 1_555 1_555
N18_3 Cu7 1_555 1_555
C119_3 N18_3 1_555 1_555
C120_3 C119_3 1_555 1_555
H100_3 C120_3 1_555 1_555
H101_3 C120_3 1_555 1_555
N23_2 Cu7 1_555 1_555
O21_3 C40_3 1_555 1_555
O22_3 C40_3 1_555 1_555
O23_3 C47_3 1_555 1_555
O24_3 C47_3 1_555 1_555
N5_2 C35_3 1_555 1_555
N6_3 C42_3 1_555 1_555
C34_3 O20_3 1_555 1_555
H26_3 C34_3 1_555 1_555
H27_3 C34_3 1_555 1_555
C35_3 H28_3 1_555 1_555
C36_3 C35_3 1_555 1_555
H29_3 C36_3 1_555 1_555
C37_3 C36_3 1_555 1_555
C38_3 C37_3 1_555 1_555
H30_3 C38_3 1_555 1_555
C39_3 N5_2 1_555 1_555
H31_3 C39_3 1_555 1_555
C40_3 C37_3 1_555 1_555
C41_3 O22_3 1_555 1_555
H32_3 C41_3 1_555 1_555
H33_3 C41_3 1_555 1_555
C42_3 H34_3 1_555 1_555
C43_3 C42_3 1_555 1_555
H35_3 C43_3 1_555 1_555
C44_3 C43_3 1_555 1_555
C45_3 C44_3 1_555 1_555
H36_3 C45_3 1_555 1_555
C46_3 N6_3 1_555 1_555
H37_3 C46_3 1_555 1_555
C47_3 C44_3 1_555 1_555
C48_3 O24_3 1_555 1_555
H38_3 C48_3 1_555 1_555
H39_3 C48_3 1_555 1_555
C49_3 C34_3 1_555 1_555
C50_3 C49_3 1_555 1_555
H40_3 C50_3 1_555 1_555
C51_3 C41_3 1_555 1_555
C52_3 C51_3 1_555 1_555
H41_3 C52_3 1_555 1_555
C53_3 C48_3 1_555 1_555
C54_3 C49_3 1_555 1_555
H42_3 C54_3 1_555 1_555
O33_3 C100_3 1_555 1_555
O34_3 C100_3 1_555 1_555
C94_3 O32_3 1_555 1_555
H77_3 C94_3 1_555 1_555
H78_3 C94_3 1_555 1_555
C95_3 H79_3 1_555 1_555
C96_3 C95_3 1_555 1_555
H80_3 C96_3 1_555 1_555
C97_3 C96_3 1_555 1_555
C100_3 C97_3 1_555 1_555
C101_3 O34_3 1_555 1_555
H83_3 C101_3 1_555 1_555
H84_3 C101_3 1_555 1_555
C109_3 C94_3 1_555 1_555
C110_3 C109_3 1_555 1_555
H91_3 C110_3 1_555 1_555
C111_3 C101_3 1_555 1_555
C112_3 C111_3 1_555 1_555
C114_3 C109_3 1_555 1_555
Cu9 N5_2 1_555 1_555
C38_3 C39_3 1_555 1_555
C45_3 C46_3 1_555 1_555
C50_3 C51_3 1_555 1_555
C52_3 C53_3 1_555 1_555
C53_3 C54_3 1_555 1_555
C110_3 C111_3 1_555 1_555
O35_3 C107_3 1_555 1_555
O36_3 C107_3 1_555 1_555
N15_3 C102_3 1_555 1_555
H81_3 C98_3 1_555 1_555
C99_3 N14_2 1_555 1_555
H82_3 C99_3 1_555 1_555
C102_3 H85_3 1_555 1_555
C103_3 C102_3 1_555 1_555
H86_3 C103_3 1_555 1_555
C104_3 C103_3 1_555 1_555
C105_3 C104_3 1_555 1_555
H87_3 C105_3 1_555 1_555
C106_3 N15_3 1_555 1_555
H88_3 C106_3 1_555 1_555
C107_3 C104_3 1_555 1_555
C108_3 O36_3 1_555 1_555
H89_3 C108_3 1_555 1_555
H90_3 C108_3 1_555 1_555
C113_3 C108_3 1_555 1_555
C117_3 N17_3 1_555 1_555
C118_3 C117_3 1_555 1_555
H97_3 C118_3 1_555 1_555
H98_3 C118_3 1_555 1_555
H99_3 C118_3 1_555 1_555
Cu8 N14_2 1_555 1_555
C98_3 C99_3 1_555 1_555
C105_3 C106_3 1_555 1_555
O16_4 C13_4 1_555 1_555
O17_4 C20_4 1_555 1_555
O18_4 C20_4 1_555 1_555
N19 C8_4 1_555 1_555
N21_2 C15_4 1_555 1_555
C9_4 C8_4 1_555 1_555
H8_4 C9_4 1_555 1_555
C10_4 C9_4 1_555 1_555
C11_4 C10_4 1_555 1_555
H9_4 C11_4 1_555 1_555
C12_4 N19 1_555 1_555
H10_4 C12_4 1_555 1_555
C13_4 C10_4 1_555 1_555
C14_4 O16_4 1_555 1_555
H12_4 C14_4 1_555 1_555
C15_4 H13_4 1_555 1_555
C16_4 C15_4 1_555 1_555
H14_4 C16_4 1_555 1_555
C17_4 C16_4 1_555 1_555
C18_4 C17_4 1_555 1_555
H15_4 C18_4 1_555 1_555
C19_4 N21_2 1_555 1_555
H16_4 C19_4 1_555 1_555
C20_4 C17_4 1_555 1_555
C21_4 O18_4 1_555 1_555
H17_4 C21_4 1_555 1_555
H18_4 C21_4 1_555 1_555
C22_4 C21_4 1_555 1_555
C23_4 C22_4 1_555 1_555
C26_4 C14_4 1_555 1_555
C27_4 C22_4 1_555 1_555
H21_4 C27_4 1_555 1_555
C67_4 O26_4 1_555 1_555
H56_4 C67_4 1_555 1_555
H57_4 C67_4 1_555 1_555
C84_4 C67_4 1_555 1_555
C11_4 C12_4 1_555 1_555
C18_4 C19_4 1_555 1_555
C25_4 C26_4 1_555 1_555
C26_4 C27_4 1_555 1_555
Cu8 N6_4 1_555 1_555
O21_4 C40_4 1_555 1_555
O22_4 C40_4 1_555 1_555
O23_4 C47_4 1_555 1_555
O24_4 C47_4 1_555 1_555
N23_2 C35_4 1_555 1_555
N6_4 C42_4 1_555 1_555
N7_4 Cu1_5 1_555 1_555
N8_4 Cu8 1_555 1_555
H3_4 C4_4 1_555 1_555
H4_4 C5_4 1_555 1_555
H22_4 C28_4 1_555 1_555
C29_4 C28_4 1_555 1_555
H23_4 C29_4 1_555 1_555
C35_4 H28_4 1_555 1_555
C36_4 C35_4 1_555 1_555
H29_4 C36_4 1_555 1_555
C37_4 C36_4 1_555 1_555
C38_4 C37_4 1_555 1_555
H30_4 C38_4 1_555 1_555
C39_4 N23_2 1_555 1_555
H31_4 C39_4 1_555 1_555
C40_4 C37_4 1_555 1_555
C41_4 O22_4 1_555 1_555
H32_4 C41_4 1_555 1_555
H33_4 C41_4 1_555 1_555
C42_4 H34_4 1_555 1_555
C43_4 C42_4 1_555 1_555
H35_4 C43_4 1_555 1_555
C44_4 C43_4 1_555 1_555
C45_4 C44_4 1_555 1_555
H36_4 C45_4 1_555 1_555
C46_4 N6_4 1_555 1_555
H37_4 C46_4 1_555 1_555
C47_4 C44_4 1_555 1_555
C48_4 O24_4 1_555 1_555
H38_4 C48_4 1_555 1_555
H39_4 C48_4 1_555 1_555
C50_4 C49_4 1_555 1_555
H40_4 C50_4 1_555 1_555
C51_4 C41_4 1_555 1_555
C52_4 C51_4 1_555 1_555
H41_4 C52_4 1_555 1_555
C53_4 C48_4 1_555 1_555
C54_4 C49_4 1_555 1_555
H42_4 C54_4 1_555 1_555
C55_4 N7_4 1_555 1_555
C56_4 C55_4 1_555 1_555
H43_4 C56_4 1_555 1_555
H44_4 C56_4 1_555 1_555
H45_4 C56_4 1_555 1_555
N9_4 Cu8 1_555 1_555
C59_4 N9_4 1_555 1_555
C60_4 C59_4 1_555 1_555
H49_4 C60_4 1_555 1_555
H50_4 C60_4 1_555 1_555
H51_4 C60_4 1_555 1_555
O32_4 C93_4 1_555 1_555
N10_4 Cu1_5 1_555 1_555
N13_4 Cu1_5 1_555 1_555
C61_4 N10_4 1_555 1_555
H52_4 C61_4 1_555 1_555
C62_4 C61_4 1_555 1_555
H53_4 C62_4 1_555 1_555
C63_4 C62_4 1_555 1_555
C66_4 C63_4 1_555 1_555
C91_4 C90_4 1_555 1_555
H75_4 C91_4 1_555 1_555
C92_4 N13_4 1_555 1_555
H76_4 C92_4 1_555 1_555
C93_4 C90_4 1_555 1_555
C94_4 O32_4 1_555 1_555
H77_4 C94_4 1_555 1_555
H78_4 C94_4 1_555 1_555
C4_4 C5_4 1_555 1_555
C38_4 C39_4 1_555 1_555
C45_4 C46_4 1_555 1_555
C50_4 C51_4 1_555 1_555
C52_4 C53_4 1_555 1_555
C53_4 C54_4 1_555 1_555
C91_4 C92_4 1_555 1_555
C7_4 O14_4 1_555 1_555
H6_4 C7_4 1_555 1_555
C24_4 C7_4 1_555 1_555
O27_4 C73_4 1_555 1_555
O28_4 C73_4 1_555 1_555
O29_4 C80_4 1_555 1_555
O30_4 C80_4 1_555 1_555
N20 C68_4 1_555 1_555
N22_2 C75_4 1_555 1_555
C69_4 C68_4 1_555 1_555
H59_4 C69_4 1_555 1_555
C70_4 C69_4 1_555 1_555
C71_4 C70_4 1_555 1_555
H60_4 C71_4 1_555 1_555
C72_4 N20 1_555 1_555
H61_4 C72_4 1_555 1_555
C73_4 C70_4 1_555 1_555
C74_4 O28_4 1_555 1_555
H62_4 C74_4 1_555 1_555
H63_4 C74_4 1_555 1_555
C75_4 H64_4 1_555 1_555
C76_4 C75_4 1_555 1_555
H65_4 C76_4 1_555 1_555
C77_4 C76_4 1_555 1_555
C78_4 C77_4 1_555 1_555
H66_4 C78_4 1_555 1_555
C79_4 N22_2 1_555 1_555
H67_4 C79_4 1_555 1_555
C80_4 C77_4 1_555 1_555
C81_4 O30_4 1_555 1_555
H68_4 C81_4 1_555 1_555
H69_4 C81_4 1_555 1_555
C82_4 C81_4 1_555 1_555
C83_4 C82_4 1_555 1_555
C86_4 C74_4 1_555 1_555
C87_4 C82_4 1_555 1_555
H72_4 C87_4 1_555 1_555
C71_4 C72_4 1_555 1_555
C78_4 C79_4 1_555 1_555
C85_4 C86_4 1_555 1_555
C86_4 C87_4 1_555 1_555
Cu1_6 N1_4 1_555 1_555
O20_4 C33_4 1_555 1_555
N1_4 C1_4 1_555 1_555
N4_4 Cu1_6 1_555 1_555
C1_4 H1_4 1_555 1_555
C2_4 C1_4 1_555 1_555
H2_4 C2_4 1_555 1_555
C3_4 C2_4 1_555 1_555
C6_4 C3_4 1_555 1_555
C31_4 C30_4 1_555 1_555
H24_4 C31_4 1_555 1_555
C32_4 N4_4 1_555 1_555
H25_4 C32_4 1_555 1_555
C33_4 C30_4 1_555 1_555
C34_4 O20_4 1_555 1_555
H26_4 C34_4 1_555 1_555
H27_4 C34_4 1_555 1_555
O33_4 C100_4 1_555 1_555
O34_4 C100_4 1_555 1_555
N16_4 Cu1_6 1_555 1_555
H54_4 C64_4 1_555 1_555
H55_4 C65_4 1_555 1_555
H73_4 C88_4 1_555 1_555
C89_4 C88_4 1_555 1_555
H74_4 C89_4 1_555 1_555
C95_4 H79_4 1_555 1_555
C96_4 C95_4 1_555 1_555
H80_4 C96_4 1_555 1_555
C97_4 C96_4 1_555 1_555
C100_4 C97_4 1_555 1_555
C101_4 O34_4 1_555 1_555
H83_4 C101_4 1_555 1_555
H84_4 C101_4 1_555 1_555
C110_4 C109_4 1_555 1_555
H91_4 C110_4 1_555 1_555
C111_4 C101_4 1_555 1_555
C112_4 C111_4 1_555 1_555
C114_4 C109_4 1_555 1_555
C115_4 N16_4 1_555 1_555
C116_4 C115_4 1_555 1_555
H94_4 C116_4 1_555 1_555
H95_4 C116_4 1_555 1_555
H96_4 C116_4 1_555 1_555
C31_4 C32_4 1_555 1_555
C64_4 C65_4 1_555 1_555
C110_4 C111_4 1_555 1_555
Cu9 N15_4 1_555 1_555
O35_4 C107_4 1_555 1_555
O36_4 C107_4 1_555 1_555
N15_4 C102_4 1_555 1_555
N17_4 Cu9 1_555 1_555
H81_4 C98_4 1_555 1_555
C99_4 N24_2 1_555 1_555
H82_4 C99_4 1_555 1_555
C102_4 H85_4 1_555 1_555
C103_4 C102_4 1_555 1_555
H86_4 C103_4 1_555 1_555
C104_4 C103_4 1_555 1_555
C105_4 C104_4 1_555 1_555
H87_4 C105_4 1_555 1_555
C106_4 N15_4 1_555 1_555
H88_4 C106_4 1_555 1_555
C107_4 C104_4 1_555 1_555
C108_4 O36_4 1_555 1_555
H89_4 C108_4 1_555 1_555
H90_4 C108_4 1_555 1_555
C113_4 C108_4 1_555 1_555
C117_4 N17_4 1_555 1_555
C118_4 C117_4 1_555 1_555
H97_4 C118_4 1_555 1_555
H98_4 C118_4 1_555 1_555
H99_4 C118_4 1_555 1_555
N18_4 Cu9 1_555 1_555
C119_4 N18_4 1_555 1_555
C120_4 C119_4 1_555 1_555
H100_4 C120_4 1_555 1_555
H101_4 C120_4 1_555 1_555
H102_4 C120_4 1_555 1_555
C98_4 C99_4 1_555 1_555
C105_4 C106_4 1_555 1_555
C58 C57 1_555 1_555
H46 C58 1_555 1_555
H47 C58 1_555 1_555
H48 C58 1_555 1_555
C58_2 C57_2 1_555 1_555
H46_2 C58_2 1_555 1_555
H47_2 C58_2 1_555 1_555
H48_2 C58_2 1_555 1_555
C58_3 C57_3 1_555 1_555
H46_3 C58_3 1_555 1_555
H47_3 C58_3 1_555 1_555
H48_3 C58_3 1_555 1_555
C58_4 C57_4 1_555 1_555
H46_4 C58_4 1_555 1_555
H47_4 C58_4 1_555 1_555
H48_4 C58_4 1_555 1_555

#END
