
###############################################################################
#
# This file contains modified crystal structure data generated from the
# MOF subset of the Cambridge Structural Database (CSD) v543 
# hosted by the Cambridge Crystallographic Data Centre (CCDC).
#
# This work is licensed under the Creative Commons
# Attribution-NonCommercial-ShareAlike 4.0 International License.
# To view a copy of this license, visit
# http://creativecommons.org/licenses/by-nc-sa/4.0/
# or send a letter to
# Creative Commons, PO Box 1866, Mountain View, CA 94042, USA.
#
# CIF created using the CSD Python API on 29 September 2022
# The structure has been converted into the P1 space group
# The structure has a 3D framework
# The original CSD entry DOTFOK is in the monoclinic crystal system
# The original CSD entry DOTFOK is in a Sohncke space group
# The framework has been calculated to contain at least 10.0% void space
# The void calculation uses a probe of radius 1.32A, grid spacing 0.4
# The framework is charged, counterions have been retained in the structure
#
###############################################################################

data_DOTFOK
_chemical_formula_moiety         '(C154 H164 Ag12 N24 O24)n'
_symmetry_cell_setting           triclinic
_symmetry_space_group_name_H-M   'P 1'
_symmetry_Int_Tables_number      1
_space_group_name_Hall           'P 1'
loop_
_symmetry_equiv_pos_site_id
_symmetry_equiv_pos_as_xyz
1 x,y,z
_cell_length_a                   12.2297(4)
_cell_length_b                   24.9752(6)
_cell_length_c                   15.6402(5)
_cell_angle_alpha                90
_cell_angle_beta                 101.807(3)
_cell_angle_gamma                90
_cell_volume                     4676.06
loop_
_atom_site_label
_atom_site_type_symbol
_atom_site_fract_x
_atom_site_fract_y
_atom_site_fract_z
O4 O 0.2707(7) 0.0486(3) 0.2606(5)
H22 H 0.0526 0.0645 0.3625
H47 H 0.1054 0.0104 0.1637
C46 C 0.2586(9) 0.0002(4) 0.2429(6)
C48 C 0.0130(10) 0.2388(4) 0.4242(7)
H52 H 0.0262 0.2470 0.4861
H53 H 0.0846 0.2380 0.4066
C49 C 0.0135(10) 0.1404(4) 0.4696(7)
H54 H 0.0915 0.1379 0.4656
H55 H 0.0104 0.1499 0.5292
H62 H 0.0143 0.2884 0.2678
Ag1 Ag 0.26973(7) 0.87357(3) 0.22498(5)
O1 O 0.2546(7) 0.8589(3) 0.0619(5)
N1 N 0.1406(7) 0.9337(3) 0.1458(5)
O7 O 0.0458(7) 0.8392(3) 0.2273(5)
O10 O 0.3350(7) 0.9654(3) 0.2614(5)
N6 N 0.3132(7) 0.8240(3) 0.3432(5)
N8 N 0.5145(8) 0.5476(3) 0.4560(6)
C3 C 0.3688(9) 0.7605(4) 0.4940(7)
C7 C 0.5045(10) 0.6429(4) 0.4307(7)
H8 H 0.4770 0.6709 0.3935
C8 C 0.3001(10) 0.7415(4) 0.4190(7)
H9 H 0.2711 0.7070 0.4179
C16 C 0.1797(9) 0.9473(4) 0.0648(6)
H17 H 0.2443 0.9706 0.0793
H18 H 0.1212 0.9668 0.0258
C18 C 0.4001(10) 0.7251(4) 0.5743(7)
H20 H 0.3751 0.6888 0.5589
H21 H 0.3612 0.7377 0.6187
C21 C 0.4063(9) 0.8132(4) 0.4923(7)
H24 H 0.4503 0.8283 0.5420
C22 C 0.0275(9) 0.9102(4) 0.1221(6)
H25 H 0.0249 0.8842 0.0757
C23 C 0.3776(9) 0.8428(4) 0.4164(7)
H27 H 0.4047 0.8776 0.4163
C33 C 0.5991(10) 0.7088(4) 0.5470(7)
H39 H 0.5860 0.7341 0.4989
H40 H 0.6774 0.7109 0.5751
C35 C 0.5818(9) 0.5578(4) 0.5326(6)
H42 H 0.6089 0.5290 0.5684
C38 C 0.5731(10) 0.6530(4) 0.5120(7)
C39 C 0.4777(10) 0.5901(4) 0.4063(7)
H44 H 0.4315 0.5840 0.3521
C40 C 0.6134(9) 0.6086(4) 0.5619(7)
H45 H 0.6622 0.6131 0.6154
C41 C 0.1430(9) 0.9816(4) 0.1998(6)
H46 H 0.1010 0.9744 0.2449
C51 C 0.2109(9) 0.8976(4) 0.0174(7)
C53 C 0.5272(10) 0.7243(4) 0.6128(6)
H58 H 0.5498 0.7596 0.6360
H59 H 0.5418 0.6992 0.6612
C54 C 0.2740(10) 0.7738(4) 0.3450(7)
H60 H 0.2277 0.7602 0.2950
H61 H 0.0542 0.4000 0.4618
Ag9 Ag 0.44071(7) 0.46901(3) 0.41282(5)
Ag11 Ag 0.04199(7) 0.33776(3) 0.63309(5)
N15 N 0.0492(8) 0.8962(3) 0.4573(5)
O8 O 0.7236(7) 0.0196(3) 0.7068(5)
N10 N 0.7904(8) 0.3549(3) 0.2754(5)
C9 C 0.9563(9) 0.1841(4) 0.4074(7)
H10 H 0.9560 0.1734 0.3477
H11 H 0.8792 0.1874 0.4134
C17 C 0.7760(8) 0.3364(4) 0.3532(6)
H19 H 0.7146 0.3482 0.3746
C19 C 0.9923(10) 0.0546(4) 0.3868(7)
C31 C 0.8484(9) 0.3011(4) 0.4019(6)
H37 H 0.8354 0.2899 0.4556
C42 C 0.8691(11) 0.0706(4) 0.4807(7)
H48 H 0.8451 0.0910 0.5231
C44 C 0.9401(10) 0.2814(4) 0.3735(6)
C50 C 0.8790(9) 0.3368(4) 0.2462(6)
H56 H 0.8904 0.3494 0.1927
C55 C 0.9587(10) 0.0875(4) 0.4480(7)
C57 C 0.9547(10) 0.3003(4) 0.2913(7)
C71 C 0.8145(10) 0.0245(4) 0.4523(7)
H76 H 0.7525 0.0151 0.4749
C74 C 0.9363(9) 0.0069(4) 0.3616(6)
Ag7 Ag 0.67075(7) 0.41089(3) 0.20574(5)
N14 N 0.4855(8) 0.0476(3) 0.5440(6)
Ag3 Ag 0.55929(7) 0.96901(3) 0.58718(5)
Ag4 Ag 0.76316(7) 0.91763(3) 0.33977(5)
Ag5 Ag 0.59870(7) 0.34007(3) 0.05291(5)
Ag6 Ag 0.95801(7) 0.83776(3) 0.36691(5)
O2 O 0.5056(6) 0.8494(3) 0.7838(4)
O3 O 0.9291(7) 0.9057(3) 0.2398(5)
N2 N 0.6978(7) 0.9084(3) 0.6631(5)
O5 O 0.4707(7) 0.9000(3) 0.6652(5)
O6 O 0.8686(7) 0.9932(3) 0.8091(5)
C1 C 0.7609(9) 0.5072(4) 0.3551(7)
H1 H 0.6833 0.5069 0.3606
H2 H 0.7640 0.4946 0.2970
O11 O 0.7636(7) 0.8551(3) 0.4685(5)
N4 N 0.5836(7) 0.4824(3) 0.1512(5)
N5 N 0.8456(7) 0.9917(3) 0.3928(5)
O12 O 0.6385(7) 0.9180(3) 0.4789(4)
N7 N 0.8836(8) 0.7588(3) 0.3337(6)
C4 C 0.7970(10) 0.9874(4) 0.7379(7)
N9 N 0.9508(8) 0.3962(3) 0.5427(5)
C5 C 0.4489(9) 0.6372(4) 0.0623(7)
H4 H 0.3699 0.6399 0.0627
H5 H 0.4587 0.6444 0.0033
C10 C 0.7040(9) 0.8352(4) 0.1837(7)
H12 H 0.7690 0.8484 0.1692
C11 C 0.8037(10) 0.9360(4) 0.6841(7)
H13 H 0.8272 0.9453 0.6304
H14 H 0.8595 0.9121 0.7170
C12 C 0.8265(9) 0.4694(4) 0.4216(6)
C13 C 0.7468(9) 0.6934(4) 0.3466(6)
H15 H 0.6830 0.6846 0.3673
C15 C 0.5471(9) 0.7760(4) 0.1499(6)
N12 N 0.6739(8) 0.8550(3) 0.2556(6)
C20 C 0.5160(10) 0.7964(4) 0.2240(7)
H23 H 0.4510 0.7842 0.2396
H26 H 0.9733 0.9380 0.1013
C24 C 0.7938(10) 0.7434(4) 0.3626(7)
H28 H 0.7611 0.7675 0.3952
C25 C 0.7882(9) 0.4519(4) 0.4955(7)
H29 H 0.7203 0.4641 0.5059
C26 C 0.7488(9) 0.5997(4) 0.2895(7)
H30 H 0.7614 0.5845 0.2353
H31 H 0.6689 0.6004 0.2869
C29 C 0.7052(9) 0.8639(4) 0.6030(6)
H35 H 0.6430 0.8397 0.6029
H36 H 0.7735 0.8441 0.6248
C30 C 0.7945(9) 0.6560(4) 0.2998(6)
C32 C 0.9270(9) 0.4496(4) 0.4112(7)
H38 H 0.9563 0.4604 0.3636
C34 C 0.5730(9) 0.5559(4) 0.0534(6)
H41 H 0.5994 0.5720 0.0079
C36 C 0.6144(9) 0.5084(4) 0.0854(6)
H43 H 0.6685 0.4925 0.0597
C43 C 0.4548(9) 0.5533(4) 0.1559(6)
H49 H 0.3978 0.5672 0.1805
C45 C 0.5037(9) 0.5055(4) 0.1861(7)
H50 H 0.4807 0.4886 0.2323
C56 C 0.9866(9) 0.4131(4) 0.4715(7)
C58 C 0.5794(9) 0.8342(4) 0.2740(6)
H63 H 0.5564 0.8463 0.3237
C59 C 0.8054(10) 0.5649(4) 0.3659(7)
H64 H 0.7915 0.5797 0.4201
H65 H 0.8854 0.5648 0.3692
C60 C 0.6447(9) 0.7967(4) 0.1302(6)
H66 H 0.6697 0.7847 0.0813
C61 C 0.9988(9) 0.8826(4) 0.2039(6)
C65 C 0.9276(10) 0.7244(4) 0.2859(8)
H71 H 0.9889 0.7350 0.2633
C66 C 0.6625(9) 0.8882(4) 0.7406(7)
H72 H 0.6844 0.9137 0.7878
H73 H 0.7013 0.8549 0.7582
C67 C 0.8845(11) 0.6723(5) 0.2684(7)
H74 H 0.9179 0.6490 0.2350
C68 C 0.3943(10) 0.4141(4) 0.0189(6)
H75 H 0.3841 0.3990 0.0710
C69 C 0.5368(9) 0.8785(4) 0.7269(7)
C72 C 0.7039(8) 0.8812(4) 0.5086(6)
C73 C 0.5138(9) 0.6784(4) 0.1249(6)
H77 H 0.5933 0.6735 0.1283
H78 H 0.4987 0.6732 0.1828
H79 H 0.9619 0.9848 0.3221
C75 C 0.8515(8) 0.4165(4) 0.5524(6)
H80 H 0.8242 0.4058 0.6009
C76 C 0.4802(10) 0.7349(4) 0.0934(7)
H81 H 0.4906 0.7391 0.0340
H82 H 0.4016 0.7403 0.0934
C77 C 0.4897(9) 0.5812(4) 0.0889(6)
Ag8 Ag 0.32925(7) 0.91089(3) 0.79426(5)
O13 O 0.4944(6) 0.3494(3) 0.2162(4)
N13 N 0.6807(7) 0.2697(3) 0.1152(5)
N3 N 0.3193(7) 0.7697(3) 0.8848(5)
C2 C 0.3245(9) 0.6919(4) 0.7976(6)
H3 H 0.3566 0.6744 0.7563
C6 C 0.2462(10) 0.5130(4) 0.8489(7)
H6 H 0.1734 0.5067 0.8627
H7 H 0.2399 0.5070 0.7868
N11 N 0.4856(7) 0.3997(3) 0.9883(5)
C14 C 0.2367(10) 0.7464(4) 0.9166(7)
H16 H 0.2050 0.7652 0.9568
C27 C 0.2082(10) 0.6101(4) 0.8083(7)
H32 H 0.2157 0.6026 0.7489
H33 H 0.1306 0.6048 0.8116
C28 C 0.4230(9) 0.4595(4) 0.8693(7)
H34 H 0.4364 0.4747 0.8182
C37 C 0.2410(9) 0.6667(4) 0.8310(6)
C47 C 0.3607(9) 0.7429(4) 0.8249(6)
H51 H 0.4157 0.7590 0.8005
C52 C 0.4977(9) 0.4225(4) 0.9136(6)
H57 H 0.5591 0.4131 0.8903
C62 C 0.1973(10) 0.6959(4) 0.8921(7)
H67 H 0.1409 0.6812 0.9165
C63 C 0.2822(9) 0.5715(4) 0.8713(6)
H68 H 0.2759 0.5794 0.9308
H69 H 0.3596 0.5762 0.8670
C64 C 0.3144(9) 0.4502(4) 0.9765(7)
H70 H 0.2520 0.4581 0.9996
C70 C 0.3292(9) 0.4743(4) 0.8994(7)
Ag10 Ag 0.40130(7) 0.84007(3) 0.94709(5)
C2_2 C 0.6755(9) 0.1919(4) 0.2024(6)
H3_2 H 0.6434 0.1744 0.2437
C6_2 C 0.7538(10) 0.0130(4) 0.1511(7)
H6_2 H 0.8266 0.0067 0.1373
H7_2 H 0.7601 0.0070 0.2132
C14_2 C 0.7633(10) 0.2464(4) 0.0834(7)
H16_2 H 0.7950 0.2652 0.0432
C27_2 C 0.7918(10) 0.1101(4) 0.1917(7)
H32_2 H 0.7843 0.1026 0.2511
H33_2 H 0.8694 0.1048 0.1884
C37_2 C 0.7590(9) 0.1667(4) 0.1690(6)
C47_2 C 0.6393(9) 0.2429(4) 0.1751(6)
H51_2 H 0.5843 0.2590 0.1995
C62_2 C 0.8027(10) 0.1959(4) 0.1079(7)
H67_2 H 0.8591 0.1812 0.0835
C63_2 C 0.7178(9) 0.0715(4) 0.1287(6)
H68_2 H 0.7241 0.0794 0.0692
H69_2 H 0.6404 0.0762 0.1330
Ag4_2 Ag 0.23684(7) 0.41763(3) 0.66023(5)
O3_2 O 0.0709(7) 0.4057(3) 0.7602(5)
N2_2 N 0.3022(7) 0.4084(3) 0.3369(5)
O5_2 O 0.5293(7) 0.4000(3) 0.3348(5)
O6_2 O 0.1314(7) 0.4932(3) 0.1909(5)
O8_2 O 0.2764(7) 0.5196(3) 0.2932(5)
C1_2 C 0.2391(9) 0.0072(4) 0.6449(7)
H1_2 H 0.3167 0.0069 0.6394
O11_2 O 0.2364(7) 0.3551(3) 0.5315(5)
N5_2 N 0.1544(7) 0.4917(3) 0.6072(5)
O12_2 O 0.3615(7) 0.4180(3) 0.5211(4)
N7_2 N 0.1164(8) 0.2588(3) 0.6663(6)
C4_2 C 0.2030(10) 0.4874(4) 0.2621(7)
C5_2 C 0.5511(9) 0.1372(4) 0.9377(7)
H4_2 H 0.6301 0.1399 0.9373
H5_2 H 0.5413 0.1444 0.9967
N10_2 N 0.2096(8) 0.8549(3) 0.7246(5)
C9_2 C 0.0437(9) 0.6841(4) 0.5926(7)
H10_2 H 0.0440 0.6734 0.6523
H11_2 H 0.1208 0.6874 0.5866
C10_2 C 0.2960(9) 0.3352(4) 0.8163(7)
H12_2 H 0.2310 0.3484 0.8308
C11_2 C 0.1963(10) 0.4360(4) 0.3159(7)
H13_2 H 0.1728 0.4453 0.3696
H14_2 H 0.1405 0.4121 0.2830
C13_2 C 0.2532(9) 0.1934(4) 0.6534(6)
H15_2 H 0.3170 0.1846 0.6327
C15_2 C 0.4529(9) 0.2760(4) 0.8501(6)
C17_2 C 0.2240(8) 0.8364(4) 0.6468(6)
H19_2 H 0.2854 0.8482 0.6254
N12_2 N 0.3261(8) 0.3550(3) 0.7444(6)
C19_2 C 0.0077(10) 0.5546(4) 0.6132(7)
C20_2 C 0.4840(10) 0.2964(4) 0.7760(7)
H23_2 H 0.5490 0.2842 0.7604
H26_2 H 0.0267 0.4380 0.8987
C24_2 C 0.2062(10) 0.2434(4) 0.6374(7)
H28_2 H 0.2389 0.2675 0.6048
C26_2 C 0.2512(9) 0.0997(4) 0.7105(7)
H30_2 H 0.2386 0.0845 0.7647
H31_2 H 0.3311 0.1004 0.7131
C29_2 C 0.2948(9) 0.3639(4) 0.3970(6)
H35_2 H 0.3570 0.3397 0.3971
H36_2 H 0.2265 0.3441 0.3752
C30_2 C 0.2055(9) 0.1560(4) 0.7002(6)
C31_2 C 0.1516(9) 0.8011(4) 0.5981(6)
H37_2 H 0.1646 0.7899 0.5444
C34_2 C 0.4270(9) 0.0559(4) 0.9466(6)
H41_2 H 0.4006 0.0720 0.9921
C36_2 C 0.3856(9) 0.0084(4) 0.9146(6)
C42_2 C 0.1309(11) 0.5706(4) 0.5193(7)
H48_2 H 0.1549 0.5910 0.4769
C43_2 C 0.5452(9) 0.0533(4) 0.8441(6)
H49_2 H 0.6022 0.0672 0.8195
C44_2 C 0.0599(10) 0.7814(4) 0.6265(6)
C45_2 C 0.4963(9) 0.0055(4) 0.8139(7)
C50_2 C 0.1210(9) 0.8368(4) 0.7538(6)
H56_2 H 0.1096 0.8494 0.8073
C55_2 C 0.0413(10) 0.5875(4) 0.5520(7)
C57_2 C 0.0453(10) 0.8003(4) 0.7087(7)
C58_2 C 0.4206(9) 0.3342(4) 0.7260(6)
H63_2 H 0.4436 0.3463 0.6763
C59_2 C 0.1946(10) 0.0649(4) 0.6341(7)
H64_2 H 0.2085 0.0797 0.5799
H65_2 H 0.1146 0.0648 0.6308
C60_2 C 0.3553(9) 0.2967(4) 0.8698(6)
H66_2 H 0.3303 0.2847 0.9187
C61_2 C 0.0012(9) 0.3826(4) 0.7961(6)
C65_2 C 0.0724(10) 0.2244(4) 0.7141(8)
H71_2 H 0.0111 0.2350 0.7367
C66_2 C 0.3375(9) 0.3882(4) 0.2594(7)
H72_2 H 0.3156 0.4137 0.2122
H73_2 H 0.2987 0.3549 0.2418
C67_2 C 0.1155(11) 0.1723(5) 0.7316(7)
H74_2 H 0.0821 0.1490 0.7650
C69_2 C 0.4632(9) 0.3785(4) 0.2731(7)
C71_2 C 0.1855(10) 0.5245(4) 0.5477(7)
H76_2 H 0.2475 0.5151 0.5251
C72_2 C 0.2961(8) 0.3812(4) 0.4914(6)
C73_2 C 0.4862(9) 0.1784(4) 0.8751(6)
H77_2 H 0.4067 0.1735 0.8717
H78_2 H 0.5013 0.1732 0.8172
C74_2 C 0.0637(9) 0.5069(4) 0.6384(6)
H79_2 H 0.0381 0.4848 0.6779
C76_2 C 0.5198(10) 0.2349(4) 0.9066(7)
H81_2 H 0.5094 0.2391 0.9660
H82_2 H 0.5984 0.2403 0.9066
C77_2 C 0.5103(9) 0.0812(4) 0.9111(6)
H2_2 H 0.2360 0.9946 0.7030
N4_2 N 0.4164(7) 0.9824(3) 0.8488(5)
C12_2 C 0.1735(9) 0.9694(4) 0.5784(6)
C25_2 C 0.2118(9) 0.9519(4) 0.5045(7)
H29_2 H 0.2797 0.9641 0.4941
C32_2 C 0.0730(9) 0.9496(4) 0.5888(7)
H38_2 H 0.0437 0.9604 0.6364
H43_2 H 0.3315 0.9925 0.9403
H50_2 H 0.5193 0.9886 0.7677
C56_2 C 0.0134(9) 0.9131(4) 0.5285(7)
C68_2 C 0.6057(10) 0.9141(4) 0.9811(6)
H75_2 H 0.6159 0.8990 0.9290
C75_2 C 0.1485(8) 0.9165(4) 0.4476(6)
H80_2 H 0.1758 0.9058 0.3991
Ag1_2 Ag 0.73027(7) 0.37357(3) 0.77502(5)
O1_2 O 0.7454(7) 0.3589(3) 0.9381(5)
N1_2 N 0.8594(7) 0.4337(3) 0.8542(5)
O4_2 O 0.7293(7) 0.5486(3) 0.7394(5)
O7_2 O 0.9542(7) 0.3392(3) 0.7727(5)
O10_2 O 0.6650(7) 0.4654(3) 0.7386(5)
N6_2 N 0.6868(7) 0.3240(3) 0.6568(5)
C3_2 C 0.6312(9) 0.2605(4) 0.5060(7)
C7_2 C 0.4955(10) 0.1429(4) 0.5693(7)
H8_2 H 0.5230 0.1709 0.6065
C8_2 C 0.6999(10) 0.2415(4) 0.5810(7)
H9_2 H 0.7289 0.2070 0.5821
C16_2 C 0.8203(9) 0.4473(4) 0.9352(6)
H17_2 H 0.7557 0.4706 0.9207
H18_2 H 0.8788 0.4668 0.9742
C18_2 C 0.5999(10) 0.2251(4) 0.4257(7)
H20_2 H 0.6249 0.1888 0.4411
H21_2 H 0.6388 0.2377 0.3813
H22_2 H 0.9474 0.5645 0.6375
C21_2 C 0.5937(9) 0.3132(4) 0.5077(7)
H24_2 H 0.5497 0.3283 0.4580
C22_2 C 0.9725(9) 0.4102(4) 0.8779(6)
H25_2 H 0.9751 0.3842 0.9243
C23_2 C 0.6224(9) 0.3428(4) 0.5836(7)
H27_2 H 0.5953 0.3776 0.5837
C33_2 C 0.4009(10) 0.2088(4) 0.4530(7)
H39_2 H 0.4140 0.2341 0.5011
H40_2 H 0.3226 0.2109 0.4249
C35_2 C 0.4182(9) 0.0578(4) 0.4674(6)
H42_2 H 0.3911 0.0290 0.4316
C38_2 C 0.4269(10) 0.1530(4) 0.4880(7)
C39_2 C 0.5223(10) 0.0901(4) 0.5937(7)
H44_2 H 0.5685 0.0840 0.6479
C40_2 C 0.3866(9) 0.1086(4) 0.4381(7)
H45_2 H 0.3378 0.1131 0.3846
C41_2 C 0.8570(9) 0.4816(4) 0.8002(6)
H46_2 H 0.8990 0.4744 0.7551
H47_2 H 0.8946 0.5104 0.8363
C46_2 C 0.7414(9) 0.5002(4) 0.7571(6)
C48_2 C 0.9870(10) 0.7388(4) 0.5758(7)
H52_2 H 0.9738 0.7470 0.5139
H53_2 H 0.9154 0.7380 0.5934
C49_2 C 0.9865(10) 0.6404(4) 0.5304(7)
H54_2 H 0.9085 0.6379 0.5344
H55_2 H 0.9896 0.6499 0.4708
C51_2 C 0.7891(9) 0.3976(4) 0.9826(7)
C53_2 C 0.4728(10) 0.2243(4) 0.3872(6)
H58_2 H 0.4502 0.2596 0.3640
H59_2 H 0.4582 0.1992 0.3388
C54_2 C 0.7260(10) 0.2738(4) 0.6550(7)
H60_2 H 0.7723 0.2602 0.7050
H62_2 H 0.9857 0.7884 0.7322
H61_2 H 0.9458 0.9000 0.5382
O9 O 0.1919(7) 0.9010(3) 0.9348(4)
N11_2 N 0.5144(7) 0.8997(3) 0.0117(5)
C28_2 C 0.5770(9) 0.9595(4) 0.1307(7)
H34_2 H 0.5636 0.9747 0.1818
C52_2 C 0.5023(9) 0.9225(4) 0.0864(6)
H57_2 H 0.4409 0.9131 0.1097
C64_2 C 0.6856(9) 0.9502(4) 0.0235(7)
H70_2 H 0.7480 0.9581 0.0004
C70_2 C 0.6708(9) 0.9743(4) 0.1006(7)
O9_2 O 0.8081(7) 0.4010(3) 0.0652(4)
loop_
_geom_bond_atom_site_label_1
_geom_bond_atom_site_label_2
_geom_bond_site_symmetry_1
_geom_bond_site_symmetry_2
O4 C46 1_555 1_555
H52 C48 1_555 1_555
H53 C48 1_555 1_555
H54 C49 1_555 1_555
H55 C49 1_555 1_555
Ag1 O1 1_555 1_555
O1 C51 1_555 1_555
N1 Ag1 1_555 1_555
O10 Ag1 1_555 1_555
N6 Ag1 1_555 1_555
N8 C35 1_555 1_555
C3 C8 1_555 1_555
C7 H8 1_555 1_555
C8 H9 1_555 1_555
C16 N1 1_555 1_555
H17 C16 1_555 1_555
H18 C16 1_555 1_555
C18 C3 1_555 1_555
H20 C18 1_555 1_555
H21 C18 1_555 1_555
C21 C3 1_555 1_555
H24 C21 1_555 1_555
C22 N1 1_555 1_555
H25 C22 1_555 1_555
C23 N6 1_555 1_555
H27 C23 1_555 1_555
C33 H39 1_555 1_555
H40 C33 1_555 1_555
C35 H42 1_555 1_555
C38 C7 1_555 1_555
C39 N8 1_555 1_555
H44 C39 1_555 1_555
C40 C35 1_555 1_555
H45 C40 1_555 1_555
C41 N1 1_555 1_555
H46 C41 1_555 1_555
C51 C16 1_555 1_555
C53 C18 1_555 1_555
H58 C53 1_555 1_555
H59 C53 1_555 1_555
C54 N6 1_555 1_555
H60 C54 1_555 1_555
Ag9 N8 1_555 1_555
C7 C39 1_555 1_555
C8 C54 1_555 1_555
C21 C23 1_555 1_555
C33 C38 1_555 1_555
C33 C53 1_555 1_555
C38 C40 1_555 1_555
N10 C17 1_555 1_555
C9 H10 1_555 1_555
H11 C9 1_555 1_555
C17 H19 1_555 1_555
C31 C17 1_555 1_555
H37 C31 1_555 1_555
C42 H48 1_555 1_555
C44 C31 1_555 1_555
C50 N10 1_555 1_555
H56 C50 1_555 1_555
C55 C19 1_555 1_555
C57 C44 1_555 1_555
H76 C71 1_555 1_555
Ag7 N10 1_555 1_555
C19 C74 1_555 1_555
C42 C55 1_555 1_555
C42 C71 1_555 1_555
C50 C57 1_555 1_555
Ag7 Ag5 1_555 1_555
Ag3 N2 1_555 1_555
Ag4 Ag6 1_555 1_555
Ag6 O3 1_555 1_555
O2 C69 1_555 1_555
O3 C61 1_555 1_555
N2 C11 1_555 1_555
O5 Ag3 1_555 1_555
O6 C4 1_555 1_555
C1 H1 1_555 1_555
H2 C1 1_555 1_555
O11 Ag4 1_555 1_555
N4 Ag7 1_555 1_555
N5 Ag4 1_555 1_555
O12 Ag3 1_555 1_555
N7 Ag6 1_555 1_555
C4 C11 1_555 1_555
N9 C56 1_555 1_555
C5 H4 1_555 1_555
H5 C5 1_555 1_555
C10 H12 1_555 1_555
C11 H13 1_555 1_555
H14 C11 1_555 1_555
C12 C1 1_555 1_555
C13 H15 1_555 1_555
C15 C20 1_555 1_555
N12 Ag4 1_555 1_555
C20 H23 1_555 1_555
C24 N7 1_555 1_555
H28 C24 1_555 1_555
C25 C12 1_555 1_555
H29 C25 1_555 1_555
C26 H30 1_555 1_555
H31 C26 1_555 1_555
C29 N2 1_555 1_555
H35 C29 1_555 1_555
H36 C29 1_555 1_555
C30 C13 1_555 1_555
C32 C12 1_555 1_555
H38 C32 1_555 1_555
C34 H41 1_555 1_555
C36 N4 1_555 1_555
H43 C36 1_555 1_555
C43 H49 1_555 1_555
C45 N4 1_555 1_555
H50 C45 1_555 1_555
C56 C32 1_555 1_555
C58 N12 1_555 1_555
H63 C58 1_555 1_555
C59 C1 1_555 1_555
H64 C59 1_555 1_555
H65 C59 1_555 1_555
C60 C10 1_555 1_555
H66 C60 1_555 1_555
C65 N7 1_555 1_555
H71 C65 1_555 1_555
C66 N2 1_555 1_555
H72 C66 1_555 1_555
H73 C66 1_555 1_555
C67 C30 1_555 1_555
H74 C67 1_555 1_555
H75 C68 1_555 1_555
C69 O5 1_555 1_555
C72 O11 1_555 1_555
C73 C5 1_555 1_555
H77 C73 1_555 1_555
H78 C73 1_555 1_555
C75 N9 1_555 1_555
H80 C75 1_555 1_555
C76 C15 1_555 1_555
H81 C76 1_555 1_555
H82 C76 1_555 1_555
C77 C5 1_555 1_555
Ag8 O2 1_555 1_555
O13 Ag7 1_555 1_555
N13 Ag5 1_555 1_555
O12 C72 1_555 1_555
C10 N12 1_555 1_555
C13 C24 1_555 1_555
C15 C60 1_555 1_555
C20 C58 1_555 1_555
C25 C75 1_555 1_555
C26 C30 1_555 1_555
C26 C59 1_555 1_555
C29 C72 1_555 1_555
C34 C36 1_555 1_555
C34 C77 1_555 1_555
C43 C45 1_555 1_555
C43 C77 1_555 1_555
C65 C67 1_555 1_555
C66 C69 1_555 1_555
C73 C76 1_555 1_555
N3 C14 1_555 1_555
C2 H3 1_555 1_555
C6 H6 1_555 1_555
H7 C6 1_555 1_555
N11 C52 1_555 1_555
C14 H16 1_555 1_555
C27 H32 1_555 1_555
H33 C27 1_555 1_555
C28 H34 1_555 1_555
C37 C2 1_555 1_555
C47 N3 1_555 1_555
H51 C47 1_555 1_555
C52 C28 1_555 1_555
H57 C52 1_555 1_555
C62 C14 1_555 1_555
H67 C62 1_555 1_555
C63 C6 1_555 1_555
H68 C63 1_555 1_555
H69 C63 1_555 1_555
C64 H70 1_555 1_555
C70 C6 1_555 1_555
Ag10 N3 1_555 1_555
C2 C47 1_555 1_555
C27 C37 1_555 1_555
C27 C63 1_555 1_555
C28 C70 1_555 1_555
C37 C62 1_555 1_555
C64 C70 1_555 1_555
N13 C14_2 1_555 1_555
C2_2 H3_2 1_555 1_555
C6_2 H6_2 1_555 1_555
H7_2 C6_2 1_555 1_555
C14_2 H16_2 1_555 1_555
C27_2 H32_2 1_555 1_555
H33_2 C27_2 1_555 1_555
C37_2 C2_2 1_555 1_555
C47_2 N13 1_555 1_555
H51_2 C47_2 1_555 1_555
C62_2 C14_2 1_555 1_555
H67_2 C62_2 1_555 1_555
C63_2 C6_2 1_555 1_555
H68_2 C63_2 1_555 1_555
H69_2 C63_2 1_555 1_555
C2_2 C47_2 1_555 1_555
C27_2 C37_2 1_555 1_555
C27_2 C63_2 1_555 1_555
C37_2 C62_2 1_555 1_555
Ag9 N2_2 1_555 1_555
Ag4_2 Ag11 1_555 1_555
Ag11 O3_2 1_555 1_555
O13 C69_2 1_555 1_555
O3_2 C61_2 1_555 1_555
N2_2 C11_2 1_555 1_555
O5_2 Ag9 1_555 1_555
O6_2 C4_2 1_555 1_555
O8_2 C4_2 1_555 1_555
C1_2 H1_2 1_555 1_555
O11_2 Ag4_2 1_555 1_555
N5_2 Ag4_2 1_555 1_555
O12_2 Ag9 1_555 1_555
N7_2 Ag11 1_555 1_555
C4_2 C11_2 1_555 1_555
C5_2 H4_2 1_555 1_555
H5_2 C5_2 1_555 1_555
N10_2 C17_2 1_555 1_555
C9_2 H10_2 1_555 1_555
H11_2 C9_2 1_555 1_555
C10_2 H12_2 1_555 1_555
C11_2 H13_2 1_555 1_555
H14_2 C11_2 1_555 1_555
C13_2 H15_2 1_555 1_555
C15_2 C20_2 1_555 1_555
C17_2 H19_2 1_555 1_555
N12_2 Ag4_2 1_555 1_555
C20_2 H23_2 1_555 1_555
C24_2 N7_2 1_555 1_555
H28_2 C24_2 1_555 1_555
C26_2 H30_2 1_555 1_555
H31_2 C26_2 1_555 1_555
C29_2 N2_2 1_555 1_555
H35_2 C29_2 1_555 1_555
H36_2 C29_2 1_555 1_555
C30_2 C13_2 1_555 1_555
C31_2 C17_2 1_555 1_555
H37_2 C31_2 1_555 1_555
C34_2 H41_2 1_555 1_555
C42_2 H48_2 1_555 1_555
C43_2 H49_2 1_555 1_555
C44_2 C31_2 1_555 1_555
C50_2 N10_2 1_555 1_555
H56_2 C50_2 1_555 1_555
C55_2 C19_2 1_555 1_555
C57_2 C44_2 1_555 1_555
C58_2 N12_2 1_555 1_555
H63_2 C58_2 1_555 1_555
C59_2 C1_2 1_555 1_555
H64_2 C59_2 1_555 1_555
H65_2 C59_2 1_555 1_555
C60_2 C10_2 1_555 1_555
H66_2 C60_2 1_555 1_555
C65_2 N7_2 1_555 1_555
H71_2 C65_2 1_555 1_555
C66_2 N2_2 1_555 1_555
H72_2 C66_2 1_555 1_555
H73_2 C66_2 1_555 1_555
C67_2 C30_2 1_555 1_555
H74_2 C67_2 1_555 1_555
C69_2 O5_2 1_555 1_555
C71_2 N5_2 1_555 1_555
H76_2 C71_2 1_555 1_555
C72_2 O11_2 1_555 1_555
C73_2 C5_2 1_555 1_555
H77_2 C73_2 1_555 1_555
H78_2 C73_2 1_555 1_555
C74_2 N5_2 1_555 1_555
H79_2 C74_2 1_555 1_555
C76_2 C15_2 1_555 1_555
H81_2 C76_2 1_555 1_555
H82_2 C76_2 1_555 1_555
C77_2 C5_2 1_555 1_555
Ag8 N10_2 1_555 1_555
O12_2 C72_2 1_555 1_555
C10_2 N12_2 1_555 1_555
C13_2 C24_2 1_555 1_555
C15_2 C60_2 1_555 1_555
C19_2 C74_2 1_555 1_555
C20_2 C58_2 1_555 1_555
C26_2 C30_2 1_555 1_555
C26_2 C59_2 1_555 1_555
C29_2 C72_2 1_555 1_555
C34_2 C36_2 1_555 1_555
C34_2 C77_2 1_555 1_555
C42_2 C55_2 1_555 1_555
C42_2 C71_2 1_555 1_555
C43_2 C45_2 1_555 1_555
C43_2 C77_2 1_555 1_555
C50_2 C57_2 1_555 1_555
C65_2 C67_2 1_555 1_555
C66_2 C69_2 1_555 1_555
C73_2 C76_2 1_555 1_555
Ag8 Ag10 1_555 1_555
N4_2 Ag8 1_555 1_555
N15 C56_2 1_555 1_555
C25_2 C12_2 1_555 1_555
H29_2 C25_2 1_555 1_555
C32_2 C12_2 1_555 1_555
H38_2 C32_2 1_555 1_555
C56_2 C32_2 1_555 1_555
H75_2 C68_2 1_555 1_555
C75_2 N15 1_555 1_555
H80_2 C75_2 1_555 1_555
C25_2 C75_2 1_555 1_555
Ag1_2 O1_2 1_555 1_555
O1_2 C51_2 1_555 1_555
N1_2 Ag1_2 1_555 1_555
O4_2 C46_2 1_555 1_555
O10_2 Ag1_2 1_555 1_555
N6_2 Ag1_2 1_555 1_555
N14 C35_2 1_555 1_555
C3_2 C8_2 1_555 1_555
C7_2 H8_2 1_555 1_555
C8_2 H9_2 1_555 1_555
C16_2 N1_2 1_555 1_555
H17_2 C16_2 1_555 1_555
H18_2 C16_2 1_555 1_555
C18_2 C3_2 1_555 1_555
H20_2 C18_2 1_555 1_555
H21_2 C18_2 1_555 1_555
C21_2 C3_2 1_555 1_555
H24_2 C21_2 1_555 1_555
C22_2 N1_2 1_555 1_555
H25_2 C22_2 1_555 1_555
C23_2 N6_2 1_555 1_555
H27_2 C23_2 1_555 1_555
C33_2 H39_2 1_555 1_555
H40_2 C33_2 1_555 1_555
C35_2 H42_2 1_555 1_555
C38_2 C7_2 1_555 1_555
C39_2 N14 1_555 1_555
H44_2 C39_2 1_555 1_555
C40_2 C35_2 1_555 1_555
H45_2 C40_2 1_555 1_555
C41_2 N1_2 1_555 1_555
H46_2 C41_2 1_555 1_555
H47_2 C41_2 1_555 1_555
C46_2 O10_2 1_555 1_555
H52_2 C48_2 1_555 1_555
H53_2 C48_2 1_555 1_555
H54_2 C49_2 1_555 1_555
H55_2 C49_2 1_555 1_555
C51_2 C16_2 1_555 1_555
C53_2 C18_2 1_555 1_555
H58_2 C53_2 1_555 1_555
H59_2 C53_2 1_555 1_555
C54_2 N6_2 1_555 1_555
H60_2 C54_2 1_555 1_555
C7_2 C39_2 1_555 1_555
C8_2 C54_2 1_555 1_555
C21_2 C23_2 1_555 1_555
C33_2 C38_2 1_555 1_555
C33_2 C53_2 1_555 1_555
C38_2 C40_2 1_555 1_555
C41_2 C46_2 1_555 1_555
N11_2 C52_2 1_555 1_555
C28_2 H34_2 1_555 1_555
C52_2 C28_2 1_555 1_555
H57_2 C52_2 1_555 1_555
C64_2 H70_2 1_555 1_555
C28_2 C70_2 1_555 1_555
C64_2 C70_2 1_555 1_555

#END
