
###############################################################################
#
# This file contains modified crystal structure data generated from the
# MOF subset of the Cambridge Structural Database (CSD) v543 
# hosted by the Cambridge Crystallographic Data Centre (CCDC).
#
# This work is licensed under the Creative Commons
# Attribution-NonCommercial-ShareAlike 4.0 International License.
# To view a copy of this license, visit
# http://creativecommons.org/licenses/by-nc-sa/4.0/
# or send a letter to
# Creative Commons, PO Box 1866, Mountain View, CA 94042, USA.
#
# CIF created using the CSD Python API on 29 September 2022
# The structure has been converted into the P1 space group
# The structure has a 3D framework
# The original CSD entry DOTHIF is in the orthorhombic crystal system
# The framework has been calculated to contain at least 10.0% void space
# The void calculation uses a probe of radius 1.32A, grid spacing 0.4
#
###############################################################################

data_DOTHIF
_chemical_formula_moiety         '(C72 H72 N16 O16 Zn4)n'
_symmetry_cell_setting           triclinic
_symmetry_space_group_name_H-M   'P 1'
_symmetry_Int_Tables_number      1
_space_group_name_Hall           'P 1'
loop_
_symmetry_equiv_pos_site_id
_symmetry_equiv_pos_as_xyz
1 x,y,z
_cell_length_a                   17.752(5)
_cell_length_b                   11.878(4)
_cell_length_c                   10.359(3)
_cell_angle_alpha                90
_cell_angle_beta                 90
_cell_angle_gamma                90
_cell_volume                     2184.28
loop_
_atom_site_label
_atom_site_type_symbol
_atom_site_fract_x
_atom_site_fract_y
_atom_site_fract_z
Zn3 Zn 0.00960(3) 0.36598(5) 0.43325(10)
Zn1 Zn 0.50960(3) 0.13402(5) 0.43325(10)
N1 N 0.5987(3) 0.2057(5) 0.3406(5)
N2 N 0.6127(3) 0.1728(6) 0.2153(6)
H1 H 0.5816 0.1346 0.1691
N3 N 0.8814(3) 0.4334(5) 0.2680(5)
H2 H 0.9063 0.4933 0.2494
N4 N 0.9098(3) 0.3462(4) 0.3359(5)
C1 C 0.7081(5) 0.1788(10) 0.0403(9)
H4 H 0.6977 0.1012 0.0215
H5 H 0.7614 0.1917 0.0362
C2 C 0.6797(4) 0.2068(7) 0.1742(7)
C3 C 0.7140(4) 0.2637(6) 0.2783(7)
C4 C 0.6615(3) 0.2601(5) 0.3777(6)
C5 C 0.6696(4) 0.3094(7) 0.5102(7)
H6 H 0.6916 0.2546 0.5668
H7 H 0.6209 0.3306 0.5423
H8 H 0.7014 0.3746 0.5063
C6 C 0.7647(5) 0.4980(8) 0.1593(11)
H9 H 0.7613 0.5672 0.2067
H10 H 0.7151 0.4680 0.1461
H11 H 0.7880 0.5118 0.0772
C7 C 0.8106(3) 0.4158(6) 0.2332(7)
C8 C 0.7887(3) 0.3141(6) 0.2848(7)
C9 C 0.8540(3) 0.2717(6) 0.3450(6)
C10 C 0.8631(4) 0.1623(6) 0.4132(10)
H12 H 0.8538 0.1726 0.5037
H13 H 0.9135 0.1350 0.4009
H14 H 0.8279 0.1087 0.3789
O5 O 0.4828(3) 0.2172(4) 0.5882(4)
N5 N 0.4098(3) 0.1538(4) 0.3359(5)
Zn2 Zn 0.49040(3) 0.86598(5) 0.93325(10)
O1 O 0.4646(3) 0.0229(4) 0.8705(4)
O3 O 0.5748(3) 0.1429(4) 0.7065(5)
C11 C 0.4892(3) 0.0903(6) 0.9511(9)
C12 C 0.4780(3) 0.2136(5) 0.9294(9)
C15 C 0.4459(6) 0.4426(7) 0.8935(8)
H17 H 0.4357 0.5185 0.8805
C16 C 0.4693(6) 0.3781(7) 0.7939(10)
H18 H 0.4743 0.4111 0.7129
C17 C 0.4865(4) 0.2633(6) 0.8075(7)
C18 C 0.5175(4) 0.2020(5) 0.6928(7)
N1_2 N 0.4013(3) 0.7943(5) 0.8406(5)
N2_2 N 0.3873(3) 0.8272(6) 0.7153(6)
H1_2 H 0.4184 0.8654 0.6691
N3_2 N 0.1186(3) 0.5666(5) 0.7680(5)
H2_2 H 0.0937 0.5067 0.7494
N4_2 N 0.0902(3) 0.6538(4) 0.8359(5)
C1_2 C 0.2919(5) 0.8212(10) 0.5403(9)
H3 H 0.3169 0.7742 0.4782
H4_2 H 0.3023 0.8988 0.5215
H5_2 H 0.2386 0.8083 0.5362
C2_2 C 0.3203(4) 0.7932(7) 0.6742(7)
C3_2 C 0.2860(4) 0.7363(6) 0.7783(7)
C4_2 C 0.3385(3) 0.7399(5) 0.8777(6)
C6_2 C 0.2353(5) 0.5020(8) 0.6593(11)
H9_2 H 0.2387 0.4328 0.7067
H10_2 H 0.2849 0.5320 0.6461
H11_2 H 0.2120 0.4882 0.5772
C7_2 C 0.1894(3) 0.5842(6) 0.7332(7)
C8_2 C 0.2113(3) 0.6859(6) 0.7848(7)
C9_2 C 0.1460(3) 0.7283(6) 0.8450(6)
C10_2 C 0.1369(4) 0.8377(6) 0.9132(10)
H13_2 H 0.0865 0.8650 0.9009
H14_2 H 0.1721 0.8913 0.8789
N5_2 N 0.5902(3) 0.8462(4) 0.8359(5)
Zn3_2 Zn 0.99040(3) 0.63402(5) 0.93325(10)
O1_2 O 0.0354(3) 0.5229(4) 0.3705(4)
O4 O 0.0172(3) 0.7172(4) 0.0882(4)
N1_3 N 0.0987(3) 0.2943(5) 0.3406(5)
N2_3 N 0.1127(3) 0.3272(6) 0.2153(6)
H1_3 H 0.0816 0.3654 0.1691
N3_3 N 0.3814(3) 0.0666(5) 0.2680(5)
H2_3 H 0.4063 0.0067 0.2494
C1_3 C 0.2081(5) 0.3212(10) 0.0403(9)
H4_3 H 0.1977 0.3988 0.0215
H5_3 H 0.2614 0.3083 0.0362
C2_3 C 0.1797(4) 0.2932(7) 0.1742(7)
C3_3 C 0.2140(4) 0.2363(6) 0.2783(7)
C4_3 C 0.1615(3) 0.2399(5) 0.3777(6)
C5_2 C 0.1696(4) 0.1906(7) 0.5102(7)
H6_2 H 0.1916 0.2454 0.5668
H7_2 H 0.1209 0.1694 0.5423
H8_2 H 0.2014 0.1254 0.5063
C6_3 C 0.2647(5) 0.0020(8) 0.1593(11)
H10_3 H 0.2151 0.0320 0.1461
C7_3 C 0.3106(3) 0.0842(6) 0.2332(7)
C8_3 C 0.2887(3) 0.1859(6) 0.2848(7)
C9_3 C 0.3540(3) 0.2283(6) 0.3450(6)
C10_3 C 0.3631(4) 0.3377(6) 0.4132(10)
H12_2 H 0.3538 0.3274 0.5037
H13_3 H 0.4135 0.3650 0.4009
H14_3 H 0.3279 0.3913 0.3789
C11_2 C 0.0108(3) 0.5903(6) 0.4511(9)
C12_2 C 0.0220(3) 0.7136(5) 0.4294(9)
C13 C 0.0465(5) 0.7796(7) 0.5329(7)
H15 H 0.0521 0.7469 0.6140
C14 C 0.0630(7) 0.8949(7) 0.5164(9)
H16 H 0.0795 0.9383 0.5856
C15_2 C 0.0541(6) 0.9426(7) 0.3935(8)
C16_2 C 0.0307(6) 0.8781(7) 0.2939(10)
H18_2 H 0.0257 0.9111 0.2129
C17_2 C 0.0135(4) 0.7633(6) 0.3075(7)
O2 O 0.9791(3) 0.5580(4) 0.5526(5)
O3_2 O 0.9252(3) 0.6429(4) 0.2065(5)
C18_2 C 0.9825(4) 0.7020(5) 0.1928(7)
O5_2 O 0.9828(3) 0.2828(4) 0.5882(4)
O2_2 O 0.0209(3) 0.4420(4) 0.0526(5)
O3_3 O 0.0748(3) 0.3571(4) 0.7065(5)
C18_3 C 0.0175(4) 0.2980(5) 0.6928(7)
O1_3 O 0.9646(3) 0.4771(4) 0.8705(4)
N1_4 N 0.9013(3) 0.7057(5) 0.8406(5)
N2_4 N 0.8873(3) 0.6728(6) 0.7153(6)
H1_4 H 0.9184 0.6346 0.6691
N3_4 N 0.6186(3) 0.9334(5) 0.7680(5)
H2_4 H 0.5937 0.9933 0.7494
C1_4 C 0.7919(5) 0.6788(10) 0.5403(9)
H3_2 H 0.8169 0.7258 0.4782
H4_4 H 0.8023 0.6012 0.5215
H5_4 H 0.7386 0.6917 0.5362
C2_4 C 0.8203(4) 0.7068(7) 0.6742(7)
C3_4 C 0.7860(4) 0.7637(6) 0.7783(7)
C4_4 C 0.8385(3) 0.7601(5) 0.8777(6)
C6_4 C 0.7353(5) 0.9980(8) 0.6593(11)
H10_4 H 0.7849 0.9680 0.6461
C7_4 C 0.6894(3) 0.9158(6) 0.7332(7)
C8_4 C 0.7113(3) 0.8141(6) 0.7848(7)
C9_4 C 0.6460(3) 0.7717(6) 0.8450(6)
C10_4 C 0.6369(4) 0.6623(6) 0.9132(10)
H13_4 H 0.5865 0.6350 0.9009
H14_4 H 0.6721 0.6087 0.8789
C11_3 C 0.9892(3) 0.4097(6) 0.9511(9)
C12_3 C 0.9780(3) 0.2864(5) 0.9294(9)
C15_3 C 0.9459(6) 0.0574(7) 0.8935(8)
C16_3 C 0.9693(6) 0.1219(7) 0.7939(10)
H18_3 H 0.9743 0.0889 0.7129
C17_3 C 0.9865(4) 0.2367(6) 0.8075(7)
H3_3 H 0.6831 0.2258 0.9782
O1_4 O 0.5354(3) 0.9771(4) 0.3705(4)
O2_3 O 0.4791(3) 0.9420(4) 0.5526(5)
O3_4 O 0.4252(3) 0.8571(4) 0.2065(5)
O4_2 O 0.5172(3) 0.7828(4) 0.0882(4)
C11_4 C 0.5108(3) 0.9097(6) 0.4511(9)
C12_4 C 0.5220(3) 0.7864(5) 0.4294(9)
C13_2 C 0.5465(5) 0.7204(7) 0.5329(7)
H15_2 H 0.5521 0.7531 0.6140
C14_2 C 0.5630(7) 0.6051(7) 0.5164(9)
H16_2 H 0.5795 0.5617 0.5856
C15_4 C 0.5541(6) 0.5574(7) 0.3935(8)
H17_2 H 0.5643 0.4815 0.3805
C16_4 C 0.5307(6) 0.6219(7) 0.2939(10)
H18_4 H 0.5257 0.5889 0.2129
C17_4 C 0.5135(4) 0.7367(6) 0.3075(7)
C18_4 C 0.4825(4) 0.7980(5) 0.1928(7)
C5_3 C 0.3304(4) 0.6906(7) 0.0102(7)
H6_3 H 0.3084 0.7454 0.0668
H7_3 H 0.3791 0.6694 0.0423
H8_3 H 0.2986 0.6254 0.0063
H12_3 H 0.1462 0.8274 0.0037
O2_4 O 0.5209(3) 0.0580(4) 0.0526(5)
C13_3 C 0.4535(5) 0.2796(7) 0.0329(7)
H15_3 H 0.4479 0.2469 0.1140
C14_3 C 0.4370(7) 0.3949(7) 0.0164(9)
H16_3 H 0.4205 0.4383 0.0856
H17_3 H 0.0643 0.0185 0.3805
H3_4 H 0.1831 0.2742 0.9782
H9_3 H 0.2613 0.9328 0.2067
H11_3 H 0.2880 0.9882 0.0772
H9_4 H 0.7387 0.0672 0.7067
H11_4 H 0.7120 0.0118 0.5772
C5_4 C 0.8304(4) 0.8094(7) 0.0102(7)
H6_4 H 0.8084 0.7546 0.0668
H7_4 H 0.8791 0.8306 0.0423
H8_4 H 0.7986 0.8746 0.0063
H12_4 H 0.6462 0.6726 0.0037
C13_4 C 0.9535(5) 0.2204(7) 0.0329(7)
H15_4 H 0.9479 0.2531 0.1140
C14_4 C 0.9370(7) 0.1051(7) 0.0164(9)
H16_4 H 0.9205 0.0617 0.0856
H17_4 H 0.9357 0.9815 0.8805
loop_
_geom_bond_atom_site_label_1
_geom_bond_atom_site_label_2
_geom_bond_site_symmetry_1
_geom_bond_site_symmetry_2
N1 Zn1 1_555 1_555
N2 N1 1_555 1_555
H1 N2 1_555 1_555
N3 H2 1_555 1_555
N4 N3 1_555 1_555
H4 C1 1_555 1_555
H5 C1 1_555 1_555
C2 N2 1_555 1_555
C3 C2 1_555 1_555
C4 N1 1_555 1_555
C5 C4 1_555 1_555
H6 C5 1_555 1_555
H7 C5 1_555 1_555
H8 C5 1_555 1_555
C6 H9 1_555 1_555
H10 C6 1_555 1_555
H11 C6 1_555 1_555
C7 N3 1_555 1_555
C8 C3 1_555 1_555
C9 N4 1_555 1_555
C10 C9 1_555 1_555
H12 C10 1_555 1_555
H13 C10 1_555 1_555
H14 C10 1_555 1_555
O5 Zn1 1_555 1_555
N5 Zn1 1_555 1_555
C1 C2 1_555 1_555
C3 C4 1_555 1_555
C6 C7 1_555 1_555
C7 C8 1_555 1_555
C8 C9 1_555 1_555
O1 C11 1_555 1_555
O3 C18 1_555 1_555
O5 C18 1_555 1_555
C11 C12 1_555 1_555
H17 C15 1_555 1_555
C16 C15 1_555 1_555
H18 C16 1_555 1_555
C17 C12 1_555 1_555
C18 C17 1_555 1_555
C16 C17 1_555 1_555
N1_2 Zn2 1_555 1_555
N2_2 N1_2 1_555 1_555
H1_2 N2_2 1_555 1_555
N3_2 H2_2 1_555 1_555
N4_2 N3_2 1_555 1_555
C1_2 H3 1_555 1_555
H4_2 C1_2 1_555 1_555
H5_2 C1_2 1_555 1_555
C2_2 N2_2 1_555 1_555
C3_2 C2_2 1_555 1_555
C4_2 N1_2 1_555 1_555
C6_2 H9_2 1_555 1_555
H10_2 C6_2 1_555 1_555
H11_2 C6_2 1_555 1_555
C7_2 N3_2 1_555 1_555
C8_2 C3_2 1_555 1_555
C9_2 N4_2 1_555 1_555
C10_2 C9_2 1_555 1_555
H13_2 C10_2 1_555 1_555
H14_2 C10_2 1_555 1_555
N5_2 Zn2 1_555 1_555
C1_2 C2_2 1_555 1_555
C3_2 C4_2 1_555 1_555
C6_2 C7_2 1_555 1_555
C7_2 C8_2 1_555 1_555
C8_2 C9_2 1_555 1_555
Zn3 O1_2 1_555 1_555
O1_2 C11_2 1_555 1_555
N1_3 Zn3 1_555 1_555
N2_3 N1_3 1_555 1_555
H1_3 N2_3 1_555 1_555
N3_3 H2_3 1_555 1_555
N5 N3_3 1_555 1_555
H4_3 C1_3 1_555 1_555
H5_3 C1_3 1_555 1_555
C2_3 N2_3 1_555 1_555
C3_3 C2_3 1_555 1_555
C4_3 N1_3 1_555 1_555
C5_2 C4_3 1_555 1_555
H6_2 C5_2 1_555 1_555
H7_2 C5_2 1_555 1_555
H8_2 C5_2 1_555 1_555
H10_3 C6_3 1_555 1_555
C7_3 N3_3 1_555 1_555
C8_3 C3_3 1_555 1_555
C9_3 N5 1_555 1_555
C10_3 C9_3 1_555 1_555
H12_2 C10_3 1_555 1_555
H13_3 C10_3 1_555 1_555
H14_3 C10_3 1_555 1_555
C11_2 C12_2 1_555 1_555
C12_2 C13 1_555 1_555
C13 H15 1_555 1_555
C14 C13 1_555 1_555
H16 C14 1_555 1_555
C15_2 C14 1_555 1_555
C16_2 C15_2 1_555 1_555
H18_2 C16_2 1_555 1_555
C17_2 C12_2 1_555 1_555
C1_3 C2_3 1_555 1_555
C3_3 C4_3 1_555 1_555
C6_3 C7_3 1_555 1_555
C7_3 C8_3 1_555 1_555
C8_3 C9_3 1_555 1_555
C16_2 C17_2 1_555 1_555
O3_2 C18_2 1_555 1_555
O3_3 C18_3 1_555 1_555
Zn3_2 O1_3 1_555 1_555
O1_3 C11_3 1_555 1_555
N1_4 Zn3_2 1_555 1_555
N2_4 N1_4 1_555 1_555
H1_4 N2_4 1_555 1_555
N3_4 H2_4 1_555 1_555
N5_2 N3_4 1_555 1_555
C1_4 H3_2 1_555 1_555
H4_4 C1_4 1_555 1_555
H5_4 C1_4 1_555 1_555
C2_4 N2_4 1_555 1_555
C3_4 C2_4 1_555 1_555
C4_4 N1_4 1_555 1_555
H10_4 C6_4 1_555 1_555
C7_4 N3_4 1_555 1_555
C8_4 C3_4 1_555 1_555
C9_4 N5_2 1_555 1_555
C10_4 C9_4 1_555 1_555
H13_4 C10_4 1_555 1_555
H14_4 C10_4 1_555 1_555
C11_3 C12_3 1_555 1_555
C16_3 C15_3 1_555 1_555
H18_3 C16_3 1_555 1_555
C17_3 C12_3 1_555 1_555
C1_4 C2_4 1_555 1_555
C3_4 C4_4 1_555 1_555
C6_4 C7_4 1_555 1_555
C7_4 C8_4 1_555 1_555
C8_4 C9_4 1_555 1_555
C16_3 C17_3 1_555 1_555
O1_4 C11_4 1_555 1_555
O2_3 C11_4 1_555 1_555
O3_4 C18_4 1_555 1_555
O4_2 C18_4 1_555 1_555
C11_4 C12_4 1_555 1_555
C12_4 C13_2 1_555 1_555
C13_2 H15_2 1_555 1_555
C14_2 C13_2 1_555 1_555
H16_2 C14_2 1_555 1_555
C15_4 C14_2 1_555 1_555
H17_2 C15_4 1_555 1_555
C16_4 C15_4 1_555 1_555
H18_4 C16_4 1_555 1_555
C17_4 C12_4 1_555 1_555
C18_4 C17_4 1_555 1_555
C16_4 C17_4 1_555 1_555
H6_3 C5_3 1_555 1_555
H7_3 C5_3 1_555 1_555
H8_3 C5_3 1_555 1_555
C13_3 H15_3 1_555 1_555
C14_3 C13_3 1_555 1_555
H16_3 C14_3 1_555 1_555
H6_4 C5_4 1_555 1_555
H7_4 C5_4 1_555 1_555
H8_4 C5_4 1_555 1_555
C13_4 H15_4 1_555 1_555
C14_4 C13_4 1_555 1_555
H16_4 C14_4 1_555 1_555

#END
