
###############################################################################
#
# This file contains modified crystal structure data generated from the
# MOF subset of the Cambridge Structural Database (CSD) v543 
# hosted by the Cambridge Crystallographic Data Centre (CCDC).
#
# This work is licensed under the Creative Commons
# Attribution-NonCommercial-ShareAlike 4.0 International License.
# To view a copy of this license, visit
# http://creativecommons.org/licenses/by-nc-sa/4.0/
# or send a letter to
# Creative Commons, PO Box 1866, Mountain View, CA 94042, USA.
#
# CIF created using the CSD Python API on 29 September 2022
# The structure has been converted into the P1 space group
# The structure has a 3D framework
# The original CSD entry DOTHUR is in the trigonal crystal system
# The original CSD entry DOTHUR is in a Sohncke space group
# The framework has been calculated to contain at least 10.0% void space
# The void calculation uses a probe of radius 1.32A, grid spacing 0.4
#
###############################################################################

data_DOTHUR
_chemical_formula_moiety         '(C54 H54 N12 O12 Zn3)n'
_symmetry_cell_setting           triclinic
_symmetry_space_group_name_H-M   'P 1'
_symmetry_Int_Tables_number      1
_space_group_name_Hall           'P 1'
loop_
_symmetry_equiv_pos_site_id
_symmetry_equiv_pos_as_xyz
1 x,y,z
_cell_length_a                   14.933(8)
_cell_length_b                   14.933(8)
_cell_length_c                   10.539(6)
_cell_angle_alpha                90
_cell_angle_beta                 90
_cell_angle_gamma                120
_cell_volume                     2035.28
loop_
_atom_site_label
_atom_site_type_symbol
_atom_site_fract_x
_atom_site_fract_y
_atom_site_fract_z
Zn3 Zn 0.36873(6) 0.18437(7) -0.0000
O1 O 0.3694(4) 0.3717(6) 0.1362(4)
O2 O 0.2753(3) 0.2038(4) 0.1081(3)
N1 N 0.4679(3) 0.0704(5) 0.0826(4)
H1 H 0.4482 0.0376 0.0118
N2 N 0.4561(3) 0.1510(4) 0.1127(4)
C2 C 0.5139(5) 0.0463(6) 0.1758(5)
C3 C 0.5348(4) 0.1169(6) 0.2711(4)
C4 C 0.4991(4) 0.1804(6) 0.2293(4)
C5 C 0.5012(6) 0.2700(8) 0.2958(6)
H5 H 0.4867 0.3096 0.2360
H6 H 0.5684 0.3130 0.3323
H7 H 0.4500 0.2450 0.3616
C6 C 0.2917(6) 0.2889(8) 0.1539(6)
C7 C 0.2220(5) 0.3758(7) 0.2904(5)
H8 H 0.2759 0.4382 0.2605
C8 C 0.2117(5) 0.2854(7) 0.2481(5)
C9 C 0.1318(6) 0.1929(8) 0.2883(6)
H9 H 0.1237 0.1310 0.2572
O3 O 0.0023(4) 0.3717(6) 0.5305(4)
C11 C 0.1538(5) 0.3758(7) 0.3763(5)
H10 H 0.1623 0.4382 0.4062
C12 C 0.0737(5) 0.2854(7) 0.4186(5)
C13 C 0.0611(5) 0.1929(8) 0.3784(6)
H11 H 0.0073 0.1310 0.4095
N3 N 0.6025(4) 0.0704(5) 0.5841(4)
H12 H 0.5894 0.0376 0.6549
N4 N 0.6949(3) 0.1510(4) 0.5540(4)
C15 C 0.5324(4) 0.0463(6) 0.4909(5)
C16 C 0.5821(4) 0.1169(6) 0.3956(4)
C17 C 0.6813(4) 0.1804(6) 0.4374(4)
C18 C 0.7688(5) 0.2700(8) 0.3709(6)
H16 H 0.8229 0.3096 0.4307
H17 H 0.7446 0.3130 0.3344
H18 H 0.7950 0.2450 0.3051
Zn2 Zn 0.81563(7) 0.18436(9) 0.6666
O4 O 0.9285(3) 0.2038(4) 0.5586(3)
C10 C 0.9972(6) 0.2889(8) 0.5128(6)
O2_2 O 0.7962(4) 0.0715(3) 0.7747(3)
N1_2 N 0.9296(5) 0.3975(4) 0.7492(4)
H1_2 H 0.9624 0.4106 0.6784
N2_2 N 0.8490(4) 0.3051(3) 0.7793(4)
C2_2 C 0.9537(6) 0.4676(4) 0.8424(5)
C3_2 C 0.8831(6) 0.4179(4) 0.9377(4)
C4_2 C 0.8196(6) 0.3187(4) 0.8959(4)
C5_2 C 0.7300(8) 0.2312(5) 0.9624(6)
H5_2 H 0.6904 0.1771 0.9026
H6_2 H 0.6870 0.2554 0.9989
C6_2 C 0.7111(8) 0.0028(6) 0.8205(6)
H18_2 H 0.7550 0.5500 0.9718
O1_2 O 0.6283(6) 0.9977(4) 0.8028(4)
C7_2 C 0.6242(7) 0.8462(5) 0.9570(5)
H8_2 H 0.5618 0.8377 0.9271
C8_2 C 0.7146(7) 0.9263(5) 0.9147(5)
C9_2 C 0.8071(8) 0.9389(5) 0.9549(6)
H9_2 H 0.8690 0.9927 0.9238
O4_2 O 0.2753(3) 0.0715(3) 0.8919(3)
C10_2 C 0.2917(6) 0.0028(6) 0.8461(6)
Zn3_2 Zn 0.36873(6) 0.18437(7) 1.0000
Zn1 Zn 0.81564(3) 0.63127(6) 0.3333
O2_3 O 0.9285(3) 0.7247(3) 0.4414(3)
N1_3 N 0.6025(4) 0.5321(3) 0.4159(4)
H1_3 H 0.5894 0.5518 0.3451
N2_3 N 0.6949(3) 0.5439(3) 0.4460(4)
C1 C 0.4241(5) 0.4674(7) 0.4966(6)
H2 H 0.4211 0.5076 0.4273
H3 H 0.4047 0.4875 0.5738
H4 H 0.3774 0.3954 0.4808
C2_3 C 0.5324(4) 0.4861(5) 0.5091(5)
C3_3 C 0.5821(4) 0.4652(4) 0.6044(4)
C4_3 C 0.6813(4) 0.5009(4) 0.5626(4)
C5_3 C 0.7688(5) 0.4988(6) 0.6291(6)
H5_3 H 0.8229 0.5133 0.5693
H6_3 H 0.7446 0.4316 0.6656
H7_2 H 0.7950 0.5500 0.6949
C6_3 C 0.9972(6) 0.7083(6) 0.4872(6)
N3_2 N 0.4679(3) 0.3975(4) 0.9174(4)
H12_2 H 0.4482 0.4106 0.9882
N4_2 N 0.4561(3) 0.3051(3) 0.8873(4)
C14 C 0.5326(7) 0.5759(5) 0.8367(6)
H13 H 0.4924 0.5789 0.9060
H14 H 0.5125 0.5953 0.7595
H15 H 0.6046 0.6226 0.8525
C15_2 C 0.5139(5) 0.4676(4) 0.8242(5)
C16_2 C 0.5348(4) 0.4179(4) 0.7289(4)
C17_2 C 0.4991(4) 0.3187(4) 0.7707(4)
C18_2 C 0.5012(6) 0.2312(5) 0.7042(6)
H16_2 H 0.4867 0.1771 0.7640
H17_2 H 0.5684 0.2554 0.6677
H18_3 H 0.4500 0.2050 0.6384
O5 O 0.7962(4) 0.7247(3) 0.2253(3)
N5 N 0.8490(4) 0.5439(3) 0.2207(4)
H7_3 H 0.7550 0.2050 0.0282
N3_3 N 0.9296(5) 0.5321(3) 0.2508(4)
H12_3 H 0.9624 0.5518 0.3216
C15_3 C 0.9537(6) 0.4861(5) 0.1576(5)
C16_3 C 0.8831(6) 0.4652(4) 0.0623(4)
C17_3 C 0.8196(6) 0.5009(4) 0.1041(4)
C18_3 C 0.7300(8) 0.4988(6) 0.0376(6)
H16_3 H 0.6904 0.5133 0.0974
H17_3 H 0.6870 0.4316 0.0011
O3_2 O 0.6283(6) 0.6306(4) 0.1972(4)
C10_3 C 0.7111(8) 0.7083(6) 0.1795(6)
C11_2 C 0.6242(7) 0.7780(5) 0.0430(5)
H10_2 H 0.5618 0.7241 0.0729
C12_2 C 0.7146(7) 0.7883(5) 0.0853(5)
C13_2 C 0.8071(8) 0.8682(6) 0.0451(6)
H11_2 H 0.8690 0.8763 0.0762
O1_3 O 0.0023(4) 0.6306(4) 0.4695(4)
C7_3 C 0.1538(5) 0.7780(5) 0.6237(5)
H8_3 H 0.1623 0.7241 0.5938
C8_3 C 0.0737(5) 0.7883(5) 0.5814(5)
C9_3 C 0.0611(5) 0.8682(6) 0.6216(6)
H9_3 H 0.0073 0.8763 0.5905
O3_3 O 0.3694(4) 0.9977(4) 0.8638(4)
C11_3 C 0.2220(5) 0.8462(5) 0.7096(5)
H10_3 H 0.2759 0.8377 0.7395
C12_3 C 0.2117(5) 0.9263(5) 0.7519(5)
C13_3 C 0.1318(6) 0.9389(5) 0.7117(6)
H11_3 H 0.1237 0.9927 0.7428
C1_2 C 0.5326(7) 0.9567(9) 0.1633(6)
H2_2 H 0.4924 0.9135 0.0940
H3_2 H 0.5125 0.9172 0.2405
H4_2 H 0.6046 0.9820 0.1475
C14_2 C 0.4241(5) 0.9567(9) 0.5034(6)
H13_2 H 0.4211 0.9135 0.5727
H14_2 H 0.4047 0.9172 0.4262
H15_2 H 0.3774 0.9820 0.5192
C14_3 C 0.0433(9) 0.4674(7) 0.1701(6)
H13_3 H 0.0865 0.5076 0.2394
H14_3 H 0.0828 0.4875 0.0929
H15_3 H 0.0180 0.3954 0.1859
C1_3 C 0.0433(9) 0.5759(5) 0.8299(6)
H2_3 H 0.0865 0.5789 0.7606
H3_3 H 0.0828 0.5953 0.9071
H4_3 H 0.0180 0.6226 0.8141
loop_
_geom_bond_atom_site_label_1
_geom_bond_atom_site_label_2
_geom_bond_site_symmetry_1
_geom_bond_site_symmetry_2
Zn3 O2 1_555 1_555
O1 C6 1_555 1_555
O2 C6 1_555 1_555
N1 H1 1_555 1_555
N2 Zn3 1_555 1_555
C2 N1 1_555 1_555
C3 C2 1_555 1_555
C4 N2 1_555 1_555
C5 C4 1_555 1_555
H5 C5 1_555 1_555
H6 C5 1_555 1_555
H7 C5 1_555 1_555
C6 C8 1_555 1_555
C7 H8 1_555 1_555
C8 C7 1_555 1_555
C9 C8 1_555 1_555
H9 C9 1_555 1_555
C11 C7 1_555 1_555
H10 C11 1_555 1_555
C12 C11 1_555 1_555
C13 C9 1_555 1_555
H11 C13 1_555 1_555
N3 H12 1_555 1_555
N4 N3 1_555 1_555
C15 N3 1_555 1_555
C16 C3 1_555 1_555
C17 N4 1_555 1_555
C18 C17 1_555 1_555
H16 C18 1_555 1_555
H17 C18 1_555 1_555
H18 C18 1_555 1_555
Zn2 N4 1_555 1_555
N1 N2 1_555 1_555
C3 C4 1_555 1_555
C12 C13 1_555 1_555
C15 C16 1_555 1_555
C16 C17 1_555 1_555
O4 C10 1_555 1_555
Zn2 O4 1_555 1_555
Zn2 O2_2 1_555 1_555
O2_2 C6_2 1_555 1_555
N1_2 H1_2 1_555 1_555
N2_2 Zn2 1_555 1_555
C2_2 N1_2 1_555 1_555
C3_2 C2_2 1_555 1_555
C4_2 N2_2 1_555 1_555
C5_2 C4_2 1_555 1_555
H5_2 C5_2 1_555 1_555
H6_2 C5_2 1_555 1_555
N1_2 N2_2 1_555 1_555
C3_2 C4_2 1_555 1_555
C7_2 H8_2 1_555 1_555
C8_2 C7_2 1_555 1_555
C9_2 C8_2 1_555 1_555
H9_2 C9_2 1_555 1_555
O4_2 C10_2 1_555 1_555
Zn3_2 O4_2 1_555 1_555
Zn1 O2_3 1_555 1_555
O2_3 C6_3 1_555 1_555
N1_3 H1_3 1_555 1_555
N2_3 Zn1 1_555 1_555
C1 H2 1_555 1_555
H3 C1 1_555 1_555
H4 C1 1_555 1_555
C2_3 N1_3 1_555 1_555
C3_3 C2_3 1_555 1_555
C4_3 N2_3 1_555 1_555
C5_3 C4_3 1_555 1_555
H5_3 C5_3 1_555 1_555
H6_3 C5_3 1_555 1_555
H7_2 C5_3 1_555 1_555
N3_2 H12_2 1_555 1_555
N4_2 N3_2 1_555 1_555
C14 H13 1_555 1_555
H14 C14 1_555 1_555
H15 C14 1_555 1_555
C15_2 N3_2 1_555 1_555
C16_2 C3_3 1_555 1_555
C17_2 N4_2 1_555 1_555
C18_2 C17_2 1_555 1_555
H16_2 C18_2 1_555 1_555
H17_2 C18_2 1_555 1_555
H18_3 C18_2 1_555 1_555
Zn3_2 N4_2 1_555 1_555
O5 Zn1 1_555 1_555
N5 Zn1 1_555 1_555
N1_3 N2_3 1_555 1_555
C1 C2_3 1_555 1_555
C3_3 C4_3 1_555 1_555
C14 C15_2 1_555 1_555
C15_2 C16_2 1_555 1_555
C16_2 C17_2 1_555 1_555
N3_3 H12_3 1_555 1_555
N5 N3_3 1_555 1_555
C15_3 N3_3 1_555 1_555
C17_3 N5 1_555 1_555
C18_3 C17_3 1_555 1_555
H16_3 C18_3 1_555 1_555
H17_3 C18_3 1_555 1_555
C15_3 C16_3 1_555 1_555
C16_3 C17_3 1_555 1_555
O3_2 C10_3 1_555 1_555
O5 C10_3 1_555 1_555
C10_3 C12_2 1_555 1_555
H10_2 C11_2 1_555 1_555
C12_2 C11_2 1_555 1_555
H11_2 C13_2 1_555 1_555
C12_2 C13_2 1_555 1_555
C7_3 H8_3 1_555 1_555
C8_3 C7_3 1_555 1_555
C9_3 C8_3 1_555 1_555
H9_3 C9_3 1_555 1_555
C11_3 C7_3 1_555 1_555
H10_3 C11_3 1_555 1_555
C12_3 C11_3 1_555 1_555
C13_3 C9_3 1_555 1_555
H11_3 C13_3 1_555 1_555
C12_3 C13_3 1_555 1_555
C1_2 H2_2 1_555 1_555
H3_2 C1_2 1_555 1_555
H4_2 C1_2 1_555 1_555
C14_2 H13_2 1_555 1_555
H14_2 C14_2 1_555 1_555
H15_2 C14_2 1_555 1_555
C14_3 H13_3 1_555 1_555
H14_3 C14_3 1_555 1_555
H15_3 C14_3 1_555 1_555
C1_3 H2_3 1_555 1_555
H3_3 C1_3 1_555 1_555
H4_3 C1_3 1_555 1_555

#END
