
###############################################################################
#
# This file contains modified crystal structure data generated from the
# MOF subset of the Cambridge Structural Database (CSD) v543 
# hosted by the Cambridge Crystallographic Data Centre (CCDC).
#
# This work is licensed under the Creative Commons
# Attribution-NonCommercial-ShareAlike 4.0 International License.
# To view a copy of this license, visit
# http://creativecommons.org/licenses/by-nc-sa/4.0/
# or send a letter to
# Creative Commons, PO Box 1866, Mountain View, CA 94042, USA.
#
# CIF created using the CSD Python API on 29 September 2022
# The structure has been converted into the P1 space group
# The structure has a 3D framework
# The original CSD entry DOTSOV43 is in the cubic crystal system
# The framework has been calculated to contain at least 10.0% void space
# The void calculation uses a probe of radius 1.32A, grid spacing 0.4
#
###############################################################################

data_DOTSOV43
_chemical_formula_moiety         '(C288 H96 Cu22 O192)n'
_symmetry_cell_setting           triclinic
_symmetry_space_group_name_H-M   'P 1'
_symmetry_Int_Tables_number      1
_space_group_name_Hall           'P 1'
loop_
_symmetry_equiv_pos_site_id
_symmetry_equiv_pos_as_xyz
1 x,y,z
_cell_length_a                   26.2711(4)
_cell_length_b                   26.2711(4)
_cell_length_c                   26.2711(4)
_cell_angle_alpha                90
_cell_angle_beta                 90
_cell_angle_gamma                90
_cell_volume                     18131.5
loop_
_atom_site_label
_atom_site_type_symbol
_atom_site_fract_x
_atom_site_fract_y
_atom_site_fract_z
Cu1 Cu 0.283508(8) 0.283508(8) 0.0000
O1 O 0.24372(4) 0.31657(4) 0.05226(4)
C1 C 0.17857(5) 0.32143(5) 0.11371(7)
C2 C 0.20359(5) 0.29641(5) 0.06908(7)
C3 C 0.13531(5) 0.29998(7) 0.13531(5)
H1 H 0.1208 0.2712 0.1208
O2 O 0.05226(4) 0.25628(4) 0.18343(4)
C4 C 0.11371(7) 0.32143(5) 0.17857(5)
C5 C 0.06908(7) 0.29641(5) 0.20359(5)
C6 C 0.13531(5) 0.36469(5) 0.20002(7)
H2 H 0.1208 0.3792 0.2288
O3 O 0.18343(4) 0.44774(4) 0.24372(4)
C7 C 0.17857(5) 0.38629(7) 0.17857(5)
C8 C 0.20359(5) 0.43092(7) 0.20359(5)
C9 C 0.20002(7) 0.36469(5) 0.13531(5)
H3 H 0.2288 0.3792 0.1208
O4 O 0.05226(4) 0.31657(4) 0.24372(4)
O5 O 0.24372(4) 0.44774(4) 0.18343(4)
O6 O 0.18343(4) 0.25628(4) 0.05226(4)
Cu3 Cu 0.0000 0.283508(8) 0.283508(8)
Cu5 Cu 0.283508(8) 0.5000 0.216492(8)
Cu6 Cu 0.0000 0.216492(8) 0.216492(8)
Cu8 Cu 0.216492(8) 0.216492(8) 0.0000
Cu9 Cu 0.216492(8) 0.5000 0.283508(8)
O14 O 0.05226(4) 0.24372(4) 0.31657(4)
O19 O 0.31657(4) 0.24372(4) 0.05226(4)
Cu1_2 Cu 0.283508(8) 0.283508(8) 1.0000
Cu2 Cu 0.0000 0.283508(8) 0.716492(8)
O7 O 0.05226(4) 0.31657(4) 0.75628(4)
C10 C 0.11371(7) 0.32143(5) 0.82143(5)
C11 C 0.06908(7) 0.29641(5) 0.79641(5)
C12 C 0.13531(5) 0.29998(7) 0.86469(5)
H4 H 0.1208 0.2712 0.8792
O8 O 0.18343(4) 0.25628(4) 0.94774(4)
C13 C 0.17857(5) 0.32143(5) 0.88629(7)
C14 C 0.20359(5) 0.29641(5) 0.93092(7)
C15 C 0.20002(7) 0.36469(5) 0.86469(5)
H5 H 0.2288 0.3792 0.8792
O9 O 0.24372(4) 0.44774(4) 0.81657(4)
C16 C 0.17857(5) 0.38629(7) 0.82143(5)
C17 C 0.20359(5) 0.43092(7) 0.79641(5)
C18 C 0.13531(5) 0.36469(5) 0.79998(7)
H6 H 0.1208 0.3792 0.7712
O10 O 0.24372(4) 0.31657(4) 0.94774(4)
O11 O 0.18343(4) 0.44774(4) 0.75628(4)
O12 O 0.05226(4) 0.25628(4) 0.81657(4)
Cu4 Cu 0.283508(8) 0.5000 0.783508(8)
Cu7 Cu 0.0000 0.216492(8) 0.783508(8)
Cu8_2 Cu 0.216492(8) 0.216492(8) 1.0000
Cu10 Cu 0.216492(8) 0.5000 0.716492(8)
O16 O 0.31657(4) 0.24372(4) 0.94774(4)
O18 O 0.05226(4) 0.24372(4) 0.68343(4)
Cu3_2 Cu 1.0000 0.283508(8) 0.283508(8)
Cu6_2 Cu 1.0000 0.216492(8) 0.216492(8)
O13 O 0.94774(4) 0.31657(4) 0.24372(4)
O17 O 0.94774(4) 0.24372(4) 0.31657(4)
Cu2_2 Cu 1.0000 0.283508(8) 0.716492(8)
Cu7_2 Cu 1.0000 0.216492(8) 0.783508(8)
O15 O 0.94774(4) 0.24372(4) 0.68343(4)
O20 O 0.94774(4) 0.31657(4) 0.75628(4)
Cu1_3 Cu 0.716492(8) 0.283508(8) 0.0000
O1_2 O 0.68343(4) 0.24372(4) 0.05226(4)
C1_2 C 0.67857(5) 0.17857(5) 0.11371(7)
C2_2 C 0.70359(5) 0.20359(5) 0.06908(7)
C3_2 C 0.70002(7) 0.13531(5) 0.13531(5)
H1_2 H 0.7288 0.1208 0.1208
O2_2 O 0.74372(4) 0.05226(4) 0.18343(4)
C4_2 C 0.67857(5) 0.11371(7) 0.17857(5)
C5_2 C 0.70359(5) 0.06908(7) 0.20359(5)
C6_2 C 0.63531(5) 0.13531(5) 0.20002(7)
H2_2 H 0.6208 0.1208 0.2288
O3_2 O 0.55226(4) 0.18343(4) 0.24372(4)
C7_2 C 0.61371(7) 0.17857(5) 0.17857(5)
C8_2 C 0.56908(7) 0.20359(5) 0.20359(5)
C9_2 C 0.63531(5) 0.20002(7) 0.13531(5)
H3_2 H 0.6208 0.2288 0.1208
O4_2 O 0.68343(4) 0.05226(4) 0.24372(4)
O5_2 O 0.55226(4) 0.24372(4) 0.18343(4)
O6_2 O 0.74372(4) 0.18343(4) 0.05226(4)
Cu3_3 Cu 0.716492(8) 0.0000 0.283508(8)
Cu5_2 Cu 0.5000 0.283508(8) 0.216492(8)
Cu6_3 Cu 0.783508(8) 0.0000 0.216492(8)
Cu8_3 Cu 0.783508(8) 0.216492(8) 0.0000
Cu9_2 Cu 0.5000 0.216492(8) 0.283508(8)
O14_2 O 0.75628(4) 0.05226(4) 0.31657(4)
O19_2 O 0.75628(4) 0.31657(4) 0.05226(4)
Cu1_4 Cu 0.716492(8) 0.283508(8) 1.0000
Cu2_3 Cu 0.716492(8) 0.0000 0.716492(8)
O7_2 O 0.68343(4) 0.05226(4) 0.75628(4)
C10_2 C 0.67857(5) 0.11371(7) 0.82143(5)
C11_2 C 0.70359(5) 0.06908(7) 0.79641(5)
C12_2 C 0.70002(7) 0.13531(5) 0.86469(5)
H4_2 H 0.7288 0.1208 0.8792
O8_2 O 0.74372(4) 0.18343(4) 0.94774(4)
C13_2 C 0.67857(5) 0.17857(5) 0.88629(7)
C14_2 C 0.70359(5) 0.20359(5) 0.93092(7)
C15_2 C 0.63531(5) 0.20002(7) 0.86469(5)
H5_2 H 0.6208 0.2288 0.8792
O9_2 O 0.55226(4) 0.24372(4) 0.81657(4)
C16_2 C 0.61371(7) 0.17857(5) 0.82143(5)
C17_2 C 0.56908(7) 0.20359(5) 0.79641(5)
C18_2 C 0.63531(5) 0.13531(5) 0.79998(7)
H6_2 H 0.6208 0.1208 0.7712
O10_2 O 0.68343(4) 0.24372(4) 0.94774(4)
O11_2 O 0.55226(4) 0.18343(4) 0.75628(4)
O12_2 O 0.74372(4) 0.05226(4) 0.81657(4)
Cu4_2 Cu 0.5000 0.283508(8) 0.783508(8)
Cu7_3 Cu 0.783508(8) 0.0000 0.783508(8)
Cu8_4 Cu 0.783508(8) 0.216492(8) 1.0000
Cu10_2 Cu 0.5000 0.216492(8) 0.716492(8)
O16_2 O 0.75628(4) 0.31657(4) 0.94774(4)
O18_2 O 0.75628(4) 0.05226(4) 0.68343(4)
Cu3_4 Cu 0.716492(8) 1.0000 0.283508(8)
Cu6_4 Cu 0.783508(8) 1.0000 0.216492(8)
O13_2 O 0.68343(4) 0.94774(4) 0.24372(4)
O17_2 O 0.75628(4) 0.94774(4) 0.31657(4)
Cu2_4 Cu 0.716492(8) 1.0000 0.716492(8)
Cu7_4 Cu 0.783508(8) 1.0000 0.783508(8)
O15_2 O 0.75628(4) 0.94774(4) 0.68343(4)
O20_2 O 0.68343(4) 0.94774(4) 0.75628(4)
Cu3_5 Cu 0.0000 0.716492(8) 0.283508(8)
Cu6_5 Cu 0.0000 0.783508(8) 0.216492(8)
O13_3 O 0.05226(4) 0.68343(4) 0.24372(4)
O17_3 O 0.05226(4) 0.75628(4) 0.31657(4)
Cu2_5 Cu 0.0000 0.716492(8) 0.716492(8)
Cu7_5 Cu 0.0000 0.783508(8) 0.783508(8)
O15_3 O 0.05226(4) 0.75628(4) 0.68343(4)
O20_3 O 0.05226(4) 0.68343(4) 0.75628(4)
Cu1_5 Cu 0.716492(8) 0.716492(8) 0.0000
O1_3 O 0.75628(4) 0.68343(4) 0.05226(4)
C1_3 C 0.82143(5) 0.67857(5) 0.11371(7)
C2_3 C 0.79641(5) 0.70359(5) 0.06908(7)
C3_3 C 0.86469(5) 0.70002(7) 0.13531(5)
H1_3 H 0.8792 0.7288 0.1208
O2_3 O 0.94774(4) 0.74372(4) 0.18343(4)
C4_3 C 0.88629(7) 0.67857(5) 0.17857(5)
C5_3 C 0.93092(7) 0.70359(5) 0.20359(5)
C6_3 C 0.86469(5) 0.63531(5) 0.20002(7)
H2_3 H 0.8792 0.6208 0.2288
O3_3 O 0.81657(4) 0.55226(4) 0.24372(4)
C7_3 C 0.82143(5) 0.61371(7) 0.17857(5)
C8_3 C 0.79641(5) 0.56908(7) 0.20359(5)
C9_3 C 0.79998(7) 0.63531(5) 0.13531(5)
H3_3 H 0.7712 0.6208 0.1208
O4_3 O 0.94774(4) 0.68343(4) 0.24372(4)
O5_3 O 0.75628(4) 0.55226(4) 0.18343(4)
O6_3 O 0.81657(4) 0.74372(4) 0.05226(4)
Cu3_6 Cu 1.0000 0.716492(8) 0.283508(8)
Cu5_3 Cu 0.716492(8) 0.5000 0.216492(8)
Cu6_6 Cu 1.0000 0.783508(8) 0.216492(8)
Cu8_5 Cu 0.783508(8) 0.783508(8) 0.0000
Cu9_3 Cu 0.783508(8) 0.5000 0.283508(8)
O14_3 O 0.94774(4) 0.75628(4) 0.31657(4)
O19_3 O 0.68343(4) 0.75628(4) 0.05226(4)
Cu1_6 Cu 0.716492(8) 0.716492(8) 1.0000
Cu2_6 Cu 1.0000 0.716492(8) 0.716492(8)
O7_3 O 0.94774(4) 0.68343(4) 0.75628(4)
C10_3 C 0.88629(7) 0.67857(5) 0.82143(5)
C11_3 C 0.93092(7) 0.70359(5) 0.79641(5)
C12_3 C 0.86469(5) 0.70002(7) 0.86469(5)
H4_3 H 0.8792 0.7288 0.8792
O8_3 O 0.81657(4) 0.74372(4) 0.94774(4)
C13_3 C 0.82143(5) 0.67857(5) 0.88629(7)
C14_3 C 0.79641(5) 0.70359(5) 0.93092(7)
C15_3 C 0.79998(7) 0.63531(5) 0.86469(5)
H5_3 H 0.7712 0.6208 0.8792
O9_3 O 0.75628(4) 0.55226(4) 0.81657(4)
C16_3 C 0.82143(5) 0.61371(7) 0.82143(5)
C17_3 C 0.79641(5) 0.56908(7) 0.79641(5)
C18_3 C 0.86469(5) 0.63531(5) 0.79998(7)
H6_3 H 0.8792 0.6208 0.7712
O10_3 O 0.75628(4) 0.68343(4) 0.94774(4)
O11_3 O 0.81657(4) 0.55226(4) 0.75628(4)
O12_3 O 0.94774(4) 0.74372(4) 0.81657(4)
Cu4_3 Cu 0.716492(8) 0.5000 0.783508(8)
Cu7_6 Cu 1.0000 0.783508(8) 0.783508(8)
Cu8_6 Cu 0.783508(8) 0.783508(8) 1.0000
Cu10_3 Cu 0.783508(8) 0.5000 0.716492(8)
O16_3 O 0.68343(4) 0.75628(4) 0.94774(4)
O18_3 O 0.94774(4) 0.75628(4) 0.68343(4)
Cu3_7 Cu 0.283508(8) -0.0000 0.283508(8)
Cu6_7 Cu 0.216492(8) -0.0000 0.216492(8)
O13_4 O 0.31657(4) 0.05226(4) 0.24372(4)
O17_4 O 0.24372(4) 0.05226(4) 0.31657(4)
Cu2_7 Cu 0.283508(8) 0.0000 0.716492(8)
Cu7_7 Cu 0.216492(8) 0.0000 0.783508(8)
O15_4 O 0.24372(4) 0.05226(4) 0.68343(4)
O20_4 O 0.31657(4) 0.05226(4) 0.75628(4)
Cu1_7 Cu 0.283508(8) 0.716492(8) 0.0000
O1_4 O 0.31657(4) 0.75628(4) 0.05226(4)
C1_4 C 0.32143(5) 0.82143(5) 0.11371(7)
C2_4 C 0.29641(5) 0.79641(5) 0.06908(7)
C3_4 C 0.29998(7) 0.86469(5) 0.13531(5)
H1_4 H 0.2712 0.8792 0.1208
O2_4 O 0.25628(4) 0.94774(4) 0.18343(4)
C4_4 C 0.32143(5) 0.88629(7) 0.17857(5)
C5_4 C 0.29641(5) 0.93092(7) 0.20359(5)
C6_4 C 0.36469(5) 0.86469(5) 0.20002(7)
H2_4 H 0.3792 0.8792 0.2288
O3_4 O 0.44774(4) 0.81657(4) 0.24372(4)
C7_4 C 0.38629(7) 0.82143(5) 0.17857(5)
C8_4 C 0.43092(7) 0.79641(5) 0.20359(5)
C9_4 C 0.36469(5) 0.79998(7) 0.13531(5)
H3_4 H 0.3792 0.7712 0.1208
O4_4 O 0.31657(4) 0.94774(4) 0.24372(4)
O5_4 O 0.44774(4) 0.75628(4) 0.18343(4)
O6_4 O 0.25628(4) 0.81657(4) 0.05226(4)
Cu3_8 Cu 0.283508(8) 1.0000 0.283508(8)
Cu5_4 Cu 0.5000 0.716492(8) 0.216492(8)
Cu6_8 Cu 0.216492(8) 1.0000 0.216492(8)
Cu8_7 Cu 0.216492(8) 0.783508(8) 0.0000
Cu9_4 Cu 0.5000 0.783508(8) 0.283508(8)
O14_4 O 0.24372(4) 0.94774(4) 0.31657(4)
O19_4 O 0.24372(4) 0.68343(4) 0.05226(4)
Cu1_8 Cu 0.283508(8) 0.716492(8) 1.0000
Cu2_8 Cu 0.283508(8) 1.0000 0.716492(8)
O7_4 O 0.31657(4) 0.94774(4) 0.75628(4)
C10_4 C 0.32143(5) 0.88629(7) 0.82143(5)
C11_4 C 0.29641(5) 0.93092(7) 0.79641(5)
C12_4 C 0.29998(7) 0.86469(5) 0.86469(5)
H4_4 H 0.2712 0.8792 0.8792
O8_4 O 0.25628(4) 0.81657(4) 0.94774(4)
C13_4 C 0.32143(5) 0.82143(5) 0.88629(7)
C14_4 C 0.29641(5) 0.79641(5) 0.93092(7)
C15_4 C 0.36469(5) 0.79998(7) 0.86469(5)
H5_4 H 0.3792 0.7712 0.8792
O9_4 O 0.44774(4) 0.75628(4) 0.81657(4)
C16_4 C 0.38629(7) 0.82143(5) 0.82143(5)
C17_4 C 0.43092(7) 0.79641(5) 0.79641(5)
C18_4 C 0.36469(5) 0.86469(5) 0.79998(7)
H6_4 H 0.3792 0.8792 0.7712
O10_4 O 0.31657(4) 0.75628(4) 0.94774(4)
O11_4 O 0.44774(4) 0.81657(4) 0.75628(4)
O12_4 O 0.25628(4) 0.94774(4) 0.81657(4)
Cu4_4 Cu 0.5000 0.716492(8) 0.783508(8)
Cu7_8 Cu 0.216492(8) 1.0000 0.783508(8)
Cu8_8 Cu 0.216492(8) 0.783508(8) 1.0000
Cu10_4 Cu 0.5000 0.783508(8) 0.716492(8)
O16_4 O 0.24372(4) 0.68343(4) 0.94774(4)
O18_4 O 0.24372(4) 0.94774(4) 0.68343(4)
C10_5 C 0.11371(7) 0.17857(5) 0.32143(5)
C11_5 C 0.06908(7) 0.20359(5) 0.29641(5)
C12_5 C 0.13531(5) 0.13531(5) 0.29998(7)
H4_5 H 0.1208 0.1208 0.2712
O8_5 O 0.18343(4) 0.05226(4) 0.25628(4)
C13_5 C 0.17857(5) 0.11371(7) 0.32143(5)
C14_5 C 0.20359(5) 0.06908(7) 0.29641(5)
C15_5 C 0.20002(7) 0.13531(5) 0.36469(5)
H5_5 H 0.2288 0.1208 0.3792
O9_5 O 0.24372(4) 0.18343(4) 0.44774(4)
C16_5 C 0.17857(5) 0.17857(5) 0.38629(7)
C17_5 C 0.20359(5) 0.20359(5) 0.43092(7)
C18_5 C 0.13531(5) 0.20002(7) 0.36469(5)
H6_5 H 0.1208 0.2288 0.3792
O11_5 O 0.18343(4) 0.24372(4) 0.44774(4)
O12_5 O 0.05226(4) 0.18343(4) 0.25628(4)
Cu4_5 Cu 0.283508(8) 0.216492(8) 0.5000
Cu10_5 Cu 0.216492(8) 0.283508(8) 0.5000
C1_5 C 0.17857(5) 0.88629(7) 0.32143(5)
C2_5 C 0.20359(5) 0.93092(7) 0.29641(5)
C3_5 C 0.13531(5) 0.86469(5) 0.29998(7)
H1_5 H 0.1208 0.8792 0.2712
O2_5 O 0.05226(4) 0.81657(4) 0.25628(4)
C4_5 C 0.11371(7) 0.82143(5) 0.32143(5)
C5_5 C 0.06908(7) 0.79641(5) 0.29641(5)
C6_5 C 0.13531(5) 0.79998(7) 0.36469(5)
H2_5 H 0.1208 0.7712 0.3792
O3_5 O 0.18343(4) 0.75628(4) 0.44774(4)
C7_5 C 0.17857(5) 0.82143(5) 0.38629(7)
C8_5 C 0.20359(5) 0.79641(5) 0.43092(7)
C9_5 C 0.20002(7) 0.86469(5) 0.36469(5)
H3_5 H 0.2288 0.8792 0.3792
O5_5 O 0.24372(4) 0.81657(4) 0.44774(4)
O6_5 O 0.18343(4) 0.94774(4) 0.25628(4)
Cu5_5 Cu 0.283508(8) 0.783508(8) 0.5000
Cu9_5 Cu 0.216492(8) 0.716492(8) 0.5000
C10_6 C 0.11371(7) 0.67857(5) 0.17857(5)
C11_6 C 0.06908(7) 0.70359(5) 0.20359(5)
C12_6 C 0.13531(5) 0.70002(7) 0.13531(5)
H4_6 H 0.1208 0.7288 0.1208
O8_6 O 0.18343(4) 0.74372(4) 0.05226(4)
C13_6 C 0.17857(5) 0.67857(5) 0.11371(7)
C14_6 C 0.20359(5) 0.70359(5) 0.06908(7)
C15_6 C 0.20002(7) 0.63531(5) 0.13531(5)
H5_6 H 0.2288 0.6208 0.1208
O9_6 O 0.24372(4) 0.55226(4) 0.18343(4)
C16_6 C 0.17857(5) 0.61371(7) 0.17857(5)
C17_6 C 0.20359(5) 0.56908(7) 0.20359(5)
C18_6 C 0.13531(5) 0.63531(5) 0.20002(7)
H6_6 H 0.1208 0.6208 0.2288
O11_6 O 0.18343(4) 0.55226(4) 0.24372(4)
O12_6 O 0.05226(4) 0.74372(4) 0.18343(4)
C1_6 C 0.17857(5) 0.67857(5) 0.88629(7)
C2_6 C 0.20359(5) 0.70359(5) 0.93092(7)
C3_6 C 0.13531(5) 0.70002(7) 0.86469(5)
H1_6 H 0.1208 0.7288 0.8792
O2_6 O 0.05226(4) 0.74372(4) 0.81657(4)
C4_6 C 0.11371(7) 0.67857(5) 0.82143(5)
C5_6 C 0.06908(7) 0.70359(5) 0.79641(5)
C6_6 C 0.13531(5) 0.63531(5) 0.79998(7)
H2_6 H 0.1208 0.6208 0.7712
O3_6 O 0.18343(4) 0.55226(4) 0.75628(4)
C7_6 C 0.17857(5) 0.61371(7) 0.82143(5)
C8_6 C 0.20359(5) 0.56908(7) 0.79641(5)
C9_6 C 0.20002(7) 0.63531(5) 0.86469(5)
H3_6 H 0.2288 0.6208 0.8792
O5_6 O 0.24372(4) 0.55226(4) 0.81657(4)
O6_6 O 0.18343(4) 0.74372(4) 0.94774(4)
C1_7 C 0.17857(5) 0.11371(7) 0.67857(5)
C2_7 C 0.20359(5) 0.06908(7) 0.70359(5)
C3_7 C 0.13531(5) 0.13531(5) 0.70002(7)
H1_7 H 0.1208 0.1208 0.7288
O2_7 O 0.05226(4) 0.18343(4) 0.74372(4)
C4_7 C 0.11371(7) 0.17857(5) 0.67857(5)
C5_7 C 0.06908(7) 0.20359(5) 0.70359(5)
C6_7 C 0.13531(5) 0.20002(7) 0.63531(5)
H2_7 H 0.1208 0.2288 0.6208
O3_7 O 0.18343(4) 0.24372(4) 0.55226(4)
C7_7 C 0.17857(5) 0.17857(5) 0.61371(7)
C8_7 C 0.20359(5) 0.20359(5) 0.56908(7)
C9_7 C 0.20002(7) 0.13531(5) 0.63531(5)
H3_7 H 0.2288 0.1208 0.6208
O5_7 O 0.24372(4) 0.18343(4) 0.55226(4)
O6_7 O 0.18343(4) 0.05226(4) 0.74372(4)
C10_7 C 0.11371(7) 0.82143(5) 0.67857(5)
C11_7 C 0.06908(7) 0.79641(5) 0.70359(5)
C12_7 C 0.13531(5) 0.86469(5) 0.70002(7)
H4_7 H 0.1208 0.8792 0.7288
O8_7 O 0.18343(4) 0.94774(4) 0.74372(4)
C13_7 C 0.17857(5) 0.88629(7) 0.67857(5)
C14_7 C 0.20359(5) 0.93092(7) 0.70359(5)
C15_7 C 0.20002(7) 0.86469(5) 0.63531(5)
H5_7 H 0.2288 0.8792 0.6208
O9_7 O 0.24372(4) 0.81657(4) 0.55226(4)
C16_7 C 0.17857(5) 0.82143(5) 0.61371(7)
C17_7 C 0.20359(5) 0.79641(5) 0.56908(7)
C18_7 C 0.13531(5) 0.79998(7) 0.63531(5)
H6_7 H 0.1208 0.7712 0.6208
O11_7 O 0.18343(4) 0.75628(4) 0.55226(4)
O12_7 O 0.05226(4) 0.81657(4) 0.74372(4)
C10_8 C 0.82143(5) 0.32143(5) 0.88629(7)
C11_8 C 0.79641(5) 0.29641(5) 0.93092(7)
C12_8 C 0.86469(5) 0.29998(7) 0.86469(5)
H4_8 H 0.8792 0.2712 0.8792
O8_8 O 0.94774(4) 0.25628(4) 0.81657(4)
C13_8 C 0.88629(7) 0.32143(5) 0.82143(5)
C14_8 C 0.93092(7) 0.29641(5) 0.79641(5)
C15_8 C 0.86469(5) 0.36469(5) 0.79998(7)
H5_8 H 0.8792 0.3792 0.7712
O9_8 O 0.81657(4) 0.44774(4) 0.75628(4)
C16_8 C 0.82143(5) 0.38629(7) 0.82143(5)
C17_8 C 0.79641(5) 0.43092(7) 0.79641(5)
C18_8 C 0.79998(7) 0.36469(5) 0.86469(5)
H6_8 H 0.7712 0.3792 0.8792
O11_8 O 0.75628(4) 0.44774(4) 0.81657(4)
O12_8 O 0.81657(4) 0.25628(4) 0.94774(4)
C10_9 C 0.88629(7) 0.32143(5) 0.17857(5)
C11_9 C 0.93092(7) 0.29641(5) 0.20359(5)
C12_9 C 0.86469(5) 0.29998(7) 0.13531(5)
H4_9 H 0.8792 0.2712 0.1208
O8_9 O 0.81657(4) 0.25628(4) 0.05226(4)
C13_9 C 0.82143(5) 0.32143(5) 0.11371(7)
C14_9 C 0.79641(5) 0.29641(5) 0.06908(7)
C15_9 C 0.79998(7) 0.36469(5) 0.13531(5)
H5_9 H 0.7712 0.3792 0.1208
O9_9 O 0.75628(4) 0.44774(4) 0.18343(4)
C16_9 C 0.82143(5) 0.38629(7) 0.17857(5)
C17_9 C 0.79641(5) 0.43092(7) 0.20359(5)
C18_9 C 0.86469(5) 0.36469(5) 0.20002(7)
H6_9 H 0.8792 0.3792 0.2288
O11_9 O 0.81657(4) 0.44774(4) 0.24372(4)
O12_9 O 0.94774(4) 0.25628(4) 0.18343(4)
C10_10 C 0.82143(5) 0.11371(7) 0.32143(5)
C11_10 C 0.79641(5) 0.06908(7) 0.29641(5)
C12_10 C 0.86469(5) 0.13531(5) 0.29998(7)
H4_10 H 0.8792 0.1208 0.2712
O8_10 O 0.94774(4) 0.18343(4) 0.25628(4)
C13_10 C 0.88629(7) 0.17857(5) 0.32143(5)
C14_10 C 0.93092(7) 0.20359(5) 0.29641(5)
C15_10 C 0.86469(5) 0.20002(7) 0.36469(5)
H5_10 H 0.8792 0.2288 0.3792
O9_10 O 0.81657(4) 0.24372(4) 0.44774(4)
C16_10 C 0.82143(5) 0.17857(5) 0.38629(7)
C17_10 C 0.79641(5) 0.20359(5) 0.43092(7)
C18_10 C 0.79998(7) 0.13531(5) 0.36469(5)
H6_10 H 0.7712 0.1208 0.3792
O11_10 O 0.75628(4) 0.18343(4) 0.44774(4)
O12_10 O 0.81657(4) 0.05226(4) 0.25628(4)
Cu4_6 Cu 0.783508(8) 0.283508(8) 0.5000
Cu10_6 Cu 0.716492(8) 0.216492(8) 0.5000
C1_8 C 0.32143(5) 0.11371(7) 0.17857(5)
C2_8 C 0.29641(5) 0.06908(7) 0.20359(5)
C3_8 C 0.29998(7) 0.13531(5) 0.13531(5)
H1_8 H 0.2712 0.1208 0.1208
O2_8 O 0.25628(4) 0.18343(4) 0.05226(4)
C4_8 C 0.32143(5) 0.17857(5) 0.11371(7)
C5_8 C 0.29641(5) 0.20359(5) 0.06908(7)
C6_8 C 0.36469(5) 0.20002(7) 0.13531(5)
H2_8 H 0.3792 0.2288 0.1208
O3_8 O 0.44774(4) 0.24372(4) 0.18343(4)
C7_8 C 0.38629(7) 0.17857(5) 0.17857(5)
C8_8 C 0.43092(7) 0.20359(5) 0.20359(5)
C9_8 C 0.36469(5) 0.13531(5) 0.20002(7)
H3_8 H 0.3792 0.1208 0.2288
O5_8 O 0.44774(4) 0.18343(4) 0.24372(4)
O6_8 O 0.25628(4) 0.05226(4) 0.18343(4)
C1_9 C 0.67857(5) 0.88629(7) 0.17857(5)
C2_9 C 0.70359(5) 0.93092(7) 0.20359(5)
C3_9 C 0.70002(7) 0.86469(5) 0.13531(5)
H1_9 H 0.7288 0.8792 0.1208
O2_9 O 0.74372(4) 0.81657(4) 0.05226(4)
C4_9 C 0.67857(5) 0.82143(5) 0.11371(7)
C5_9 C 0.70359(5) 0.79641(5) 0.06908(7)
C6_9 C 0.63531(5) 0.79998(7) 0.13531(5)
H2_9 H 0.6208 0.7712 0.1208
O3_9 O 0.55226(4) 0.75628(4) 0.18343(4)
C7_9 C 0.61371(7) 0.82143(5) 0.17857(5)
C8_9 C 0.56908(7) 0.79641(5) 0.20359(5)
C9_9 C 0.63531(5) 0.86469(5) 0.20002(7)
H3_9 H 0.6208 0.8792 0.2288
O5_9 O 0.55226(4) 0.81657(4) 0.24372(4)
O6_9 O 0.74372(4) 0.94774(4) 0.18343(4)
C10_11 C 0.82143(5) 0.88629(7) 0.67857(5)
C11_11 C 0.79641(5) 0.93092(7) 0.70359(5)
C12_11 C 0.86469(5) 0.86469(5) 0.70002(7)
H4_11 H 0.8792 0.8792 0.7288
O8_11 O 0.94774(4) 0.81657(4) 0.74372(4)
C13_11 C 0.88629(7) 0.82143(5) 0.67857(5)
C14_11 C 0.93092(7) 0.79641(5) 0.70359(5)
C15_11 C 0.86469(5) 0.79998(7) 0.63531(5)
H5_11 H 0.8792 0.7712 0.6208
O9_11 O 0.81657(4) 0.75628(4) 0.55226(4)
C16_11 C 0.82143(5) 0.82143(5) 0.61371(7)
C17_11 C 0.79641(5) 0.79641(5) 0.56908(7)
C18_11 C 0.79998(7) 0.86469(5) 0.63531(5)
H6_11 H 0.7712 0.8792 0.6208
O11_11 O 0.75628(4) 0.81657(4) 0.55226(4)
O12_11 O 0.81657(4) 0.94774(4) 0.74372(4)
Cu4_7 Cu 0.783508(8) 0.716492(8) 0.5000
Cu10_7 Cu 0.716492(8) 0.783508(8) 0.5000
C10_12 C 0.67857(5) 0.82143(5) 0.88629(7)
C11_12 C 0.70359(5) 0.79641(5) 0.93092(7)
C12_12 C 0.70002(7) 0.86469(5) 0.86469(5)
H4_12 H 0.7288 0.8792 0.8792
O8_12 O 0.74372(4) 0.94774(4) 0.81657(4)
C13_12 C 0.67857(5) 0.88629(7) 0.82143(5)
C14_12 C 0.70359(5) 0.93092(7) 0.79641(5)
C15_12 C 0.63531(5) 0.86469(5) 0.79998(7)
H5_12 H 0.6208 0.8792 0.7712
O9_12 O 0.55226(4) 0.81657(4) 0.75628(4)
C16_12 C 0.61371(7) 0.82143(5) 0.82143(5)
C17_12 C 0.56908(7) 0.79641(5) 0.79641(5)
C18_12 C 0.63531(5) 0.79998(7) 0.86469(5)
H6_12 H 0.6208 0.7712 0.8792
O11_12 O 0.55226(4) 0.75628(4) 0.81657(4)
O12_12 O 0.74372(4) 0.81657(4) 0.94774(4)
C1_10 C 0.88629(7) 0.82143(5) 0.32143(5)
C2_10 C 0.93092(7) 0.79641(5) 0.29641(5)
C3_10 C 0.86469(5) 0.86469(5) 0.29998(7)
H1_10 H 0.8792 0.8792 0.2712
O2_10 O 0.81657(4) 0.94774(4) 0.25628(4)
C4_10 C 0.82143(5) 0.88629(7) 0.32143(5)
C5_10 C 0.79641(5) 0.93092(7) 0.29641(5)
C6_10 C 0.79998(7) 0.86469(5) 0.36469(5)
H2_10 H 0.7712 0.8792 0.3792
O3_10 O 0.75628(4) 0.81657(4) 0.44774(4)
C7_10 C 0.82143(5) 0.82143(5) 0.38629(7)
C8_10 C 0.79641(5) 0.79641(5) 0.43092(7)
C9_10 C 0.86469(5) 0.79998(7) 0.36469(5)
H3_10 H 0.8792 0.7712 0.3792
O5_10 O 0.81657(4) 0.75628(4) 0.44774(4)
O6_10 O 0.94774(4) 0.81657(4) 0.25628(4)
C1_11 C 0.88629(7) 0.17857(5) 0.67857(5)
C2_11 C 0.93092(7) 0.20359(5) 0.70359(5)
C3_11 C 0.86469(5) 0.13531(5) 0.70002(7)
H1_11 H 0.8792 0.1208 0.7288
O2_11 O 0.81657(4) 0.05226(4) 0.74372(4)
C4_11 C 0.82143(5) 0.11371(7) 0.67857(5)
C5_11 C 0.79641(5) 0.06908(7) 0.70359(5)
C6_11 C 0.79998(7) 0.13531(5) 0.63531(5)
H2_11 H 0.7712 0.1208 0.6208
O3_11 O 0.75628(4) 0.18343(4) 0.55226(4)
C7_11 C 0.82143(5) 0.17857(5) 0.61371(7)
C8_11 C 0.79641(5) 0.20359(5) 0.56908(7)
C9_11 C 0.86469(5) 0.20002(7) 0.63531(5)
H3_11 H 0.8792 0.2288 0.6208
O5_11 O 0.81657(4) 0.24372(4) 0.55226(4)
O6_11 O 0.94774(4) 0.18343(4) 0.74372(4)
C10_13 C 0.32143(5) 0.17857(5) 0.88629(7)
C11_13 C 0.29641(5) 0.20359(5) 0.93092(7)
C12_13 C 0.29998(7) 0.13531(5) 0.86469(5)
H4_13 H 0.2712 0.1208 0.8792
O8_13 O 0.25628(4) 0.05226(4) 0.81657(4)
C13_13 C 0.32143(5) 0.11371(7) 0.82143(5)
C14_13 C 0.29641(5) 0.06908(7) 0.79641(5)
C15_13 C 0.36469(5) 0.13531(5) 0.79998(7)
H5_13 H 0.3792 0.1208 0.7712
O9_13 O 0.44774(4) 0.18343(4) 0.75628(4)
C16_13 C 0.38629(7) 0.17857(5) 0.82143(5)
C17_13 C 0.43092(7) 0.20359(5) 0.79641(5)
C18_13 C 0.36469(5) 0.20002(7) 0.86469(5)
H6_13 H 0.3792 0.2288 0.8792
O11_13 O 0.44774(4) 0.24372(4) 0.81657(4)
O12_13 O 0.25628(4) 0.18343(4) 0.94774(4)
O16_5 O 0.31657(4) 0.74372(4) 0.44774(4)
O19_5 O 0.31657(4) 0.74372(4) 0.55226(4)
O1_5 O 0.68343(4) 0.74372(4) 0.55226(4)
C1_12 C 0.67857(5) 0.67857(5) 0.61371(7)
C2_12 C 0.70359(5) 0.70359(5) 0.56908(7)
C3_12 C 0.70002(7) 0.63531(5) 0.63531(5)
H1_12 H 0.7288 0.6208 0.6208
O2_12 O 0.74372(4) 0.55226(4) 0.68343(4)
C4_12 C 0.67857(5) 0.61371(7) 0.67857(5)
C5_12 C 0.70359(5) 0.56908(7) 0.70359(5)
C6_12 C 0.63531(5) 0.63531(5) 0.70002(7)
H2_12 H 0.6208 0.6208 0.7288
O3_12 O 0.55226(4) 0.68343(4) 0.74372(4)
C7_12 C 0.61371(7) 0.67857(5) 0.67857(5)
C8_12 C 0.56908(7) 0.70359(5) 0.70359(5)
C9_12 C 0.63531(5) 0.70002(7) 0.63531(5)
H3_12 H 0.6208 0.7288 0.6208
O4_5 O 0.68343(4) 0.55226(4) 0.74372(4)
O5_12 O 0.55226(4) 0.74372(4) 0.68343(4)
O6_12 O 0.74372(4) 0.68343(4) 0.55226(4)
O7_5 O 0.68343(4) 0.55226(4) 0.25628(4)
C10_14 C 0.67857(5) 0.61371(7) 0.32143(5)
C11_14 C 0.70359(5) 0.56908(7) 0.29641(5)
C12_14 C 0.70002(7) 0.63531(5) 0.36469(5)
H4_14 H 0.7288 0.6208 0.3792
O8_14 O 0.74372(4) 0.68343(4) 0.44774(4)
C13_14 C 0.67857(5) 0.67857(5) 0.38629(7)
C14_14 C 0.70359(5) 0.70359(5) 0.43092(7)
C15_14 C 0.63531(5) 0.70002(7) 0.36469(5)
H5_14 H 0.6208 0.7288 0.3792
O9_14 O 0.55226(4) 0.74372(4) 0.31657(4)
C16_14 C 0.61371(7) 0.67857(5) 0.32143(5)
C17_14 C 0.56908(7) 0.70359(5) 0.29641(5)
C18_14 C 0.63531(5) 0.63531(5) 0.29998(7)
H6_14 H 0.6208 0.6208 0.2712
O10_5 O 0.68343(4) 0.74372(4) 0.44774(4)
O11_14 O 0.55226(4) 0.68343(4) 0.25628(4)
O12_14 O 0.74372(4) 0.55226(4) 0.31657(4)
O13_5 O 0.68343(4) 0.44774(4) 0.74372(4)
O20_5 O 0.68343(4) 0.44774(4) 0.25628(4)
O16_6 O 0.68343(4) 0.25628(4) 0.44774(4)
O19_6 O 0.68343(4) 0.25628(4) 0.55226(4)
O1_6 O 0.31657(4) 0.25628(4) 0.55226(4)
C1_13 C 0.32143(5) 0.32143(5) 0.61371(7)
C2_13 C 0.29641(5) 0.29641(5) 0.56908(7)
C3_13 C 0.29998(7) 0.36469(5) 0.63531(5)
H1_13 H 0.2712 0.3792 0.6208
O2_13 O 0.25628(4) 0.44774(4) 0.68343(4)
C4_13 C 0.32143(5) 0.38629(7) 0.67857(5)
C5_13 C 0.29641(5) 0.43092(7) 0.70359(5)
C6_13 C 0.36469(5) 0.36469(5) 0.70002(7)
H2_13 H 0.3792 0.3792 0.7288
O3_13 O 0.44774(4) 0.31657(4) 0.74372(4)
C7_13 C 0.38629(7) 0.32143(5) 0.67857(5)
C8_13 C 0.43092(7) 0.29641(5) 0.70359(5)
C9_13 C 0.36469(5) 0.29998(7) 0.63531(5)
H3_13 H 0.3792 0.2712 0.6208
O4_6 O 0.31657(4) 0.44774(4) 0.74372(4)
O5_13 O 0.44774(4) 0.25628(4) 0.68343(4)
O6_13 O 0.25628(4) 0.31657(4) 0.55226(4)
O7_6 O 0.31657(4) 0.44774(4) 0.25628(4)
C10_15 C 0.32143(5) 0.38629(7) 0.32143(5)
C11_15 C 0.29641(5) 0.43092(7) 0.29641(5)
C12_15 C 0.29998(7) 0.36469(5) 0.36469(5)
H4_15 H 0.2712 0.3792 0.3792
O8_15 O 0.25628(4) 0.31657(4) 0.44774(4)
C13_15 C 0.32143(5) 0.32143(5) 0.38629(7)
C14_15 C 0.29641(5) 0.29641(5) 0.43092(7)
C15_15 C 0.36469(5) 0.29998(7) 0.36469(5)
H5_15 H 0.3792 0.2712 0.3792
O9_15 O 0.44774(4) 0.25628(4) 0.31657(4)
C16_15 C 0.38629(7) 0.32143(5) 0.32143(5)
C17_15 C 0.43092(7) 0.29641(5) 0.29641(5)
C18_15 C 0.36469(5) 0.36469(5) 0.29998(7)
H6_15 H 0.3792 0.3792 0.2712
O10_6 O 0.31657(4) 0.25628(4) 0.44774(4)
O11_15 O 0.44774(4) 0.31657(4) 0.25628(4)
O12_15 O 0.25628(4) 0.44774(4) 0.31657(4)
O13_6 O 0.31657(4) 0.55226(4) 0.74372(4)
O20_6 O 0.31657(4) 0.55226(4) 0.25628(4)
C1_14 C 0.32143(5) 0.61371(7) 0.67857(5)
C2_14 C 0.29641(5) 0.56908(7) 0.70359(5)
C3_14 C 0.29998(7) 0.63531(5) 0.63531(5)
H1_14 H 0.2712 0.6208 0.6208
O2_14 O 0.25628(4) 0.68343(4) 0.55226(4)
C4_14 C 0.32143(5) 0.67857(5) 0.61371(7)
C5_14 C 0.29641(5) 0.70359(5) 0.56908(7)
C6_14 C 0.36469(5) 0.70002(7) 0.63531(5)
H2_14 H 0.3792 0.7288 0.6208
O3_14 O 0.44774(4) 0.74372(4) 0.68343(4)
C7_14 C 0.38629(7) 0.67857(5) 0.67857(5)
C8_14 C 0.43092(7) 0.70359(5) 0.70359(5)
C9_14 C 0.36469(5) 0.63531(5) 0.70002(7)
H3_14 H 0.3792 0.6208 0.7288
O5_14 O 0.44774(4) 0.68343(4) 0.74372(4)
O6_14 O 0.25628(4) 0.55226(4) 0.68343(4)
C1_15 C 0.67857(5) 0.38629(7) 0.67857(5)
C2_15 C 0.70359(5) 0.43092(7) 0.70359(5)
C3_15 C 0.70002(7) 0.36469(5) 0.63531(5)
H1_15 H 0.7288 0.3792 0.6208
O2_15 O 0.74372(4) 0.31657(4) 0.55226(4)
C4_15 C 0.67857(5) 0.32143(5) 0.61371(7)
C5_15 C 0.70359(5) 0.29641(5) 0.56908(7)
C6_15 C 0.63531(5) 0.29998(7) 0.63531(5)
H2_15 H 0.6208 0.2712 0.6208
O3_15 O 0.55226(4) 0.25628(4) 0.68343(4)
C7_15 C 0.61371(7) 0.32143(5) 0.67857(5)
C8_15 C 0.56908(7) 0.29641(5) 0.70359(5)
C9_15 C 0.63531(5) 0.36469(5) 0.70002(7)
H3_15 H 0.6208 0.3792 0.7288
O5_15 O 0.55226(4) 0.31657(4) 0.74372(4)
O6_15 O 0.74372(4) 0.44774(4) 0.68343(4)
C10_16 C 0.67857(5) 0.32143(5) 0.38629(7)
C11_16 C 0.70359(5) 0.29641(5) 0.43092(7)
C12_16 C 0.70002(7) 0.36469(5) 0.36469(5)
H4_16 H 0.7288 0.3792 0.3792
O8_16 O 0.74372(4) 0.44774(4) 0.31657(4)
C13_16 C 0.67857(5) 0.38629(7) 0.32143(5)
C14_16 C 0.70359(5) 0.43092(7) 0.29641(5)
C15_16 C 0.63531(5) 0.36469(5) 0.29998(7)
H5_16 H 0.6208 0.3792 0.2712
O9_16 O 0.55226(4) 0.31657(4) 0.25628(4)
C16_16 C 0.61371(7) 0.32143(5) 0.32143(5)
C17_16 C 0.56908(7) 0.29641(5) 0.29641(5)
C18_16 C 0.63531(5) 0.29998(7) 0.36469(5)
H6_16 H 0.6208 0.2712 0.3792
O11_16 O 0.55226(4) 0.25628(4) 0.31657(4)
O12_16 O 0.74372(4) 0.31657(4) 0.44774(4)
C10_17 C 0.32143(5) 0.67857(5) 0.38629(7)
C11_17 C 0.29641(5) 0.70359(5) 0.43092(7)
C12_17 C 0.29998(7) 0.63531(5) 0.36469(5)
H4_17 H 0.2712 0.6208 0.3792
O8_17 O 0.25628(4) 0.55226(4) 0.31657(4)
C13_17 C 0.32143(5) 0.61371(7) 0.32143(5)
C14_17 C 0.29641(5) 0.56908(7) 0.29641(5)
C15_17 C 0.36469(5) 0.63531(5) 0.29998(7)
H5_17 H 0.3792 0.6208 0.2712
O9_17 O 0.44774(4) 0.68343(4) 0.25628(4)
C16_17 C 0.38629(7) 0.67857(5) 0.32143(5)
C17_17 C 0.43092(7) 0.70359(5) 0.29641(5)
C18_17 C 0.36469(5) 0.70002(7) 0.36469(5)
H6_17 H 0.3792 0.7288 0.3792
O11_17 O 0.44774(4) 0.74372(4) 0.31657(4)
O12_17 O 0.25628(4) 0.68343(4) 0.44774(4)
loop_
_geom_bond_atom_site_label_1
_geom_bond_atom_site_label_2
_geom_bond_site_symmetry_1
_geom_bond_site_symmetry_2
Cu1 O1 1_555 1_555
O1 C2 1_555 1_555
C1 C2 1_555 1_555
C2 O6 1_555 1_555
C3 C1 1_555 1_555
H1 C3 1_555 1_555
O2 C5 1_555 1_555
C4 C3 1_555 1_555
C5 C4 1_555 1_555
C6 C4 1_555 1_555
H2 C6 1_555 1_555
O3 C8 1_555 1_555
C7 C6 1_555 1_555
C8 C7 1_555 1_555
C9 C1 1_555 1_555
H3 C9 1_555 1_555
O4 C5 1_555 1_555
O5 C8 1_555 1_555
O6 Cu8 1_555 1_555
Cu3 O4 1_555 1_555
Cu5 O5 1_555 1_555
Cu6 O2 1_555 1_555
Cu8 Cu1 1_555 1_555
Cu9 O3 1_555 1_555
O14 Cu3 1_555 1_555
O19 Cu1 1_555 1_555
C7 C9 1_555 1_555
Cu3 Cu6 1_555 1_555
Cu5 Cu9 1_555 1_555
Cu2 O7 1_555 1_555
O7 C11 1_555 1_555
C10 C11 1_555 1_555
C11 O12 1_555 1_555
C12 C10 1_555 1_555
H4 C12 1_555 1_555
O8 C14 1_555 1_555
C13 C12 1_555 1_555
C14 C13 1_555 1_555
C15 C13 1_555 1_555
H5 C15 1_555 1_555
O9 C17 1_555 1_555
C16 C15 1_555 1_555
C17 C16 1_555 1_555
C18 C10 1_555 1_555
H6 C18 1_555 1_555
O10 Cu1_2 1_555 1_555
O11 C17 1_555 1_555
O12 Cu7 1_555 1_555
Cu4 O9 1_555 1_555
Cu7 Cu2 1_555 1_555
Cu8_2 Cu1_2 1_555 1_555
Cu10 O11 1_555 1_555
O16 Cu1_2 1_555 1_555
O18 Cu2 1_555 1_555
O8 Cu8_2 1_555 1_555
C14 O10 1_555 1_555
C16 C18 1_555 1_555
Cu4 Cu10 1_555 1_555
O13 Cu3_2 1_555 1_555
O17 Cu3_2 1_555 1_555
Cu3_2 Cu6_2 1_555 1_555
Cu7_2 Cu2_2 1_555 1_555
O15 Cu2_2 1_555 1_555
O20 Cu2_2 1_555 1_555
Cu1_3 O1_2 1_555 1_555
O1_2 C2_2 1_555 1_555
C1_2 C2_2 1_555 1_555
C2_2 O6_2 1_555 1_555
C3_2 C1_2 1_555 1_555
H1_2 C3_2 1_555 1_555
O2_2 C5_2 1_555 1_555
C4_2 C3_2 1_555 1_555
C5_2 C4_2 1_555 1_555
C6_2 C4_2 1_555 1_555
H2_2 C6_2 1_555 1_555
O3_2 C8_2 1_555 1_555
C7_2 C6_2 1_555 1_555
C8_2 C7_2 1_555 1_555
C9_2 C1_2 1_555 1_555
H3_2 C9_2 1_555 1_555
O4_2 C5_2 1_555 1_555
O5_2 C8_2 1_555 1_555
O6_2 Cu8_3 1_555 1_555
Cu3_3 O4_2 1_555 1_555
Cu5_2 O5_2 1_555 1_555
Cu6_3 O2_2 1_555 1_555
Cu8_3 Cu1_3 1_555 1_555
Cu9_2 O3_2 1_555 1_555
O14_2 Cu3_3 1_555 1_555
O19_2 Cu1_3 1_555 1_555
C7_2 C9_2 1_555 1_555
Cu3_3 Cu6_3 1_555 1_555
Cu5_2 Cu9_2 1_555 1_555
Cu2_3 O7_2 1_555 1_555
O7_2 C11_2 1_555 1_555
C10_2 C11_2 1_555 1_555
C11_2 O12_2 1_555 1_555
C12_2 C10_2 1_555 1_555
H4_2 C12_2 1_555 1_555
O8_2 C14_2 1_555 1_555
C13_2 C12_2 1_555 1_555
C14_2 C13_2 1_555 1_555
C15_2 C13_2 1_555 1_555
H5_2 C15_2 1_555 1_555
O9_2 C17_2 1_555 1_555
C16_2 C15_2 1_555 1_555
C17_2 C16_2 1_555 1_555
C18_2 C10_2 1_555 1_555
H6_2 C18_2 1_555 1_555
O10_2 Cu1_4 1_555 1_555
O11_2 C17_2 1_555 1_555
O12_2 Cu7_3 1_555 1_555
Cu4_2 O9_2 1_555 1_555
Cu7_3 Cu2_3 1_555 1_555
Cu8_4 Cu1_4 1_555 1_555
Cu10_2 O11_2 1_555 1_555
O16_2 Cu1_4 1_555 1_555
O18_2 Cu2_3 1_555 1_555
O8_2 Cu8_4 1_555 1_555
C14_2 O10_2 1_555 1_555
C16_2 C18_2 1_555 1_555
Cu4_2 Cu10_2 1_555 1_555
O13_2 Cu3_4 1_555 1_555
O17_2 Cu3_4 1_555 1_555
Cu3_4 Cu6_4 1_555 1_555
Cu7_4 Cu2_4 1_555 1_555
O15_2 Cu2_4 1_555 1_555
O20_2 Cu2_4 1_555 1_555
O13_3 Cu3_5 1_555 1_555
O17_3 Cu3_5 1_555 1_555
Cu3_5 Cu6_5 1_555 1_555
Cu7_5 Cu2_5 1_555 1_555
O15_3 Cu2_5 1_555 1_555
O20_3 Cu2_5 1_555 1_555
Cu1_5 O1_3 1_555 1_555
O1_3 C2_3 1_555 1_555
C1_3 C2_3 1_555 1_555
C2_3 O6_3 1_555 1_555
C3_3 C1_3 1_555 1_555
H1_3 C3_3 1_555 1_555
O2_3 C5_3 1_555 1_555
C4_3 C3_3 1_555 1_555
C5_3 C4_3 1_555 1_555
C6_3 C4_3 1_555 1_555
H2_3 C6_3 1_555 1_555
O3_3 C8_3 1_555 1_555
C7_3 C6_3 1_555 1_555
C8_3 C7_3 1_555 1_555
C9_3 C1_3 1_555 1_555
H3_3 C9_3 1_555 1_555
O4_3 C5_3 1_555 1_555
O5_3 C8_3 1_555 1_555
O6_3 Cu8_5 1_555 1_555
Cu3_6 O4_3 1_555 1_555
Cu5_3 O5_3 1_555 1_555
Cu6_6 O2_3 1_555 1_555
Cu8_5 Cu1_5 1_555 1_555
Cu9_3 O3_3 1_555 1_555
O14_3 Cu3_6 1_555 1_555
O19_3 Cu1_5 1_555 1_555
C7_3 C9_3 1_555 1_555
Cu3_6 Cu6_6 1_555 1_555
Cu5_3 Cu9_3 1_555 1_555
Cu2_6 O7_3 1_555 1_555
O7_3 C11_3 1_555 1_555
C10_3 C11_3 1_555 1_555
C11_3 O12_3 1_555 1_555
C12_3 C10_3 1_555 1_555
H4_3 C12_3 1_555 1_555
O8_3 C14_3 1_555 1_555
C13_3 C12_3 1_555 1_555
C14_3 C13_3 1_555 1_555
C15_3 C13_3 1_555 1_555
H5_3 C15_3 1_555 1_555
O9_3 C17_3 1_555 1_555
C16_3 C15_3 1_555 1_555
C17_3 C16_3 1_555 1_555
C18_3 C10_3 1_555 1_555
H6_3 C18_3 1_555 1_555
O10_3 Cu1_6 1_555 1_555
O11_3 C17_3 1_555 1_555
O12_3 Cu7_6 1_555 1_555
Cu4_3 O9_3 1_555 1_555
Cu7_6 Cu2_6 1_555 1_555
Cu8_6 Cu1_6 1_555 1_555
Cu10_3 O11_3 1_555 1_555
O16_3 Cu1_6 1_555 1_555
O18_3 Cu2_6 1_555 1_555
O8_3 Cu8_6 1_555 1_555
C14_3 O10_3 1_555 1_555
C16_3 C18_3 1_555 1_555
Cu4_3 Cu10_3 1_555 1_555
O13_4 Cu3_7 1_555 1_555
O17_4 Cu3_7 1_555 1_555
Cu3_7 Cu6_7 1_555 1_555
Cu7_7 Cu2_7 1_555 1_555
O15_4 Cu2_7 1_555 1_555
O20_4 Cu2_7 1_555 1_555
Cu1_7 O1_4 1_555 1_555
O1_4 C2_4 1_555 1_555
C1_4 C2_4 1_555 1_555
C2_4 O6_4 1_555 1_555
C3_4 C1_4 1_555 1_555
H1_4 C3_4 1_555 1_555
O2_4 C5_4 1_555 1_555
C4_4 C3_4 1_555 1_555
C5_4 C4_4 1_555 1_555
C6_4 C4_4 1_555 1_555
H2_4 C6_4 1_555 1_555
O3_4 C8_4 1_555 1_555
C7_4 C6_4 1_555 1_555
C8_4 C7_4 1_555 1_555
C9_4 C1_4 1_555 1_555
H3_4 C9_4 1_555 1_555
O4_4 C5_4 1_555 1_555
O5_4 C8_4 1_555 1_555
O6_4 Cu8_7 1_555 1_555
Cu3_8 O4_4 1_555 1_555
Cu5_4 O5_4 1_555 1_555
Cu6_8 O2_4 1_555 1_555
Cu8_7 Cu1_7 1_555 1_555
Cu9_4 O3_4 1_555 1_555
O14_4 Cu3_8 1_555 1_555
O19_4 Cu1_7 1_555 1_555
C7_4 C9_4 1_555 1_555
Cu3_8 Cu6_8 1_555 1_555
Cu5_4 Cu9_4 1_555 1_555
Cu2_8 O7_4 1_555 1_555
O7_4 C11_4 1_555 1_555
C10_4 C11_4 1_555 1_555
C11_4 O12_4 1_555 1_555
C12_4 C10_4 1_555 1_555
H4_4 C12_4 1_555 1_555
O8_4 C14_4 1_555 1_555
C13_4 C12_4 1_555 1_555
C14_4 C13_4 1_555 1_555
C15_4 C13_4 1_555 1_555
H5_4 C15_4 1_555 1_555
O9_4 C17_4 1_555 1_555
C16_4 C15_4 1_555 1_555
C17_4 C16_4 1_555 1_555
C18_4 C10_4 1_555 1_555
H6_4 C18_4 1_555 1_555
O10_4 Cu1_8 1_555 1_555
O11_4 C17_4 1_555 1_555
O12_4 Cu7_8 1_555 1_555
Cu4_4 O9_4 1_555 1_555
Cu7_8 Cu2_8 1_555 1_555
Cu8_8 Cu1_8 1_555 1_555
Cu10_4 O11_4 1_555 1_555
O16_4 Cu1_8 1_555 1_555
O18_4 Cu2_8 1_555 1_555
O8_4 Cu8_8 1_555 1_555
C14_4 O10_4 1_555 1_555
C16_4 C18_4 1_555 1_555
Cu4_4 Cu10_4 1_555 1_555
O14 C11_5 1_555 1_555
C10_5 C11_5 1_555 1_555
C11_5 O12_5 1_555 1_555
C12_5 C10_5 1_555 1_555
H4_5 C12_5 1_555 1_555
O8_5 C14_5 1_555 1_555
C13_5 C12_5 1_555 1_555
C14_5 C13_5 1_555 1_555
C15_5 C13_5 1_555 1_555
H5_5 C15_5 1_555 1_555
O9_5 C17_5 1_555 1_555
C16_5 C15_5 1_555 1_555
C17_5 C16_5 1_555 1_555
C18_5 C10_5 1_555 1_555
H6_5 C18_5 1_555 1_555
O11_5 C17_5 1_555 1_555
O12_5 Cu6 1_555 1_555
Cu4_5 O9_5 1_555 1_555
Cu10_5 O11_5 1_555 1_555
O8_5 Cu6_7 1_555 1_555
C14_5 O17_4 1_555 1_555
C16_5 C18_5 1_555 1_555
Cu4_5 Cu10_5 1_555 1_555
O14_4 C2_5 1_555 1_555
C1_5 C2_5 1_555 1_555
C2_5 O6_5 1_555 1_555
C3_5 C1_5 1_555 1_555
H1_5 C3_5 1_555 1_555
O2_5 C5_5 1_555 1_555
C4_5 C3_5 1_555 1_555
C5_5 C4_5 1_555 1_555
C6_5 C4_5 1_555 1_555
H2_5 C6_5 1_555 1_555
O3_5 C8_5 1_555 1_555
C7_5 C6_5 1_555 1_555
C8_5 C7_5 1_555 1_555
C9_5 C1_5 1_555 1_555
H3_5 C9_5 1_555 1_555
O17_3 C5_5 1_555 1_555
O5_5 C8_5 1_555 1_555
O6_5 Cu6_8 1_555 1_555
Cu5_5 O5_5 1_555 1_555
Cu6_5 O2_5 1_555 1_555
Cu9_5 O3_5 1_555 1_555
C7_5 C9_5 1_555 1_555
Cu5_5 Cu9_5 1_555 1_555
O13_3 C11_6 1_555 1_555
C10_6 C11_6 1_555 1_555
C11_6 O12_6 1_555 1_555
C12_6 C10_6 1_555 1_555
H4_6 C12_6 1_555 1_555
O8_6 C14_6 1_555 1_555
C13_6 C12_6 1_555 1_555
C14_6 C13_6 1_555 1_555
C15_6 C13_6 1_555 1_555
H5_6 C15_6 1_555 1_555
O9_6 C17_6 1_555 1_555
C16_6 C15_6 1_555 1_555
C17_6 C16_6 1_555 1_555
C18_6 C10_6 1_555 1_555
H6_6 C18_6 1_555 1_555
O11_6 C17_6 1_555 1_555
O12_6 Cu6_5 1_555 1_555
Cu5 O9_6 1_555 1_555
Cu9 O11_6 1_555 1_555
O8_6 Cu8_7 1_555 1_555
C14_6 O19_4 1_555 1_555
C16_6 C18_6 1_555 1_555
O16_4 C2_6 1_555 1_555
C1_6 C2_6 1_555 1_555
C2_6 O6_6 1_555 1_555
C3_6 C1_6 1_555 1_555
H1_6 C3_6 1_555 1_555
O2_6 C5_6 1_555 1_555
C4_6 C3_6 1_555 1_555
C5_6 C4_6 1_555 1_555
C6_6 C4_6 1_555 1_555
H2_6 C6_6 1_555 1_555
O3_6 C8_6 1_555 1_555
C7_6 C6_6 1_555 1_555
C8_6 C7_6 1_555 1_555
C9_6 C1_6 1_555 1_555
H3_6 C9_6 1_555 1_555
O20_3 C5_6 1_555 1_555
O5_6 C8_6 1_555 1_555
O6_6 Cu8_8 1_555 1_555
Cu4 O5_6 1_555 1_555
Cu7_5 O2_6 1_555 1_555
Cu10 O3_6 1_555 1_555
C7_6 C9_6 1_555 1_555
O15_4 C2_7 1_555 1_555
C1_7 C2_7 1_555 1_555
C2_7 O6_7 1_555 1_555
C3_7 C1_7 1_555 1_555
H1_7 C3_7 1_555 1_555
O2_7 C5_7 1_555 1_555
C4_7 C3_7 1_555 1_555
C5_7 C4_7 1_555 1_555
C6_7 C4_7 1_555 1_555
H2_7 C6_7 1_555 1_555
O3_7 C8_7 1_555 1_555
C7_7 C6_7 1_555 1_555
C8_7 C7_7 1_555 1_555
C9_7 C1_7 1_555 1_555
H3_7 C9_7 1_555 1_555
O18 C5_7 1_555 1_555
O5_7 C8_7 1_555 1_555
O6_7 Cu7_7 1_555 1_555
Cu4_5 O5_7 1_555 1_555
Cu7 O2_7 1_555 1_555
Cu10_5 O3_7 1_555 1_555
C7_7 C9_7 1_555 1_555
O15_3 C11_7 1_555 1_555
C10_7 C11_7 1_555 1_555
C11_7 O12_7 1_555 1_555
C12_7 C10_7 1_555 1_555
H4_7 C12_7 1_555 1_555
O8_7 C14_7 1_555 1_555
C13_7 C12_7 1_555 1_555
C14_7 C13_7 1_555 1_555
C15_7 C13_7 1_555 1_555
H5_7 C15_7 1_555 1_555
O9_7 C17_7 1_555 1_555
C16_7 C15_7 1_555 1_555
C17_7 C16_7 1_555 1_555
C18_7 C10_7 1_555 1_555
H6_7 C18_7 1_555 1_555
O11_7 C17_7 1_555 1_555
O12_7 Cu7_5 1_555 1_555
Cu5_5 O9_7 1_555 1_555
Cu9_5 O11_7 1_555 1_555
O8_7 Cu7_8 1_555 1_555
C14_7 O18_4 1_555 1_555
C16_7 C18_7 1_555 1_555
O16_2 C11_8 1_555 1_555
C10_8 C11_8 1_555 1_555
C11_8 O12_8 1_555 1_555
C12_8 C10_8 1_555 1_555
H4_8 C12_8 1_555 1_555
O8_8 C14_8 1_555 1_555
C13_8 C12_8 1_555 1_555
C14_8 C13_8 1_555 1_555
C15_8 C13_8 1_555 1_555
H5_8 C15_8 1_555 1_555
O9_8 C17_8 1_555 1_555
C16_8 C15_8 1_555 1_555
C17_8 C16_8 1_555 1_555
C18_8 C10_8 1_555 1_555
H6_8 C18_8 1_555 1_555
O11_8 C17_8 1_555 1_555
O12_8 Cu8_4 1_555 1_555
Cu10_3 O9_8 1_555 1_555
Cu4_3 O11_8 1_555 1_555
O8_8 Cu7_2 1_555 1_555
C14_8 O20 1_555 1_555
C16_8 C18_8 1_555 1_555
O13 C11_9 1_555 1_555
C10_9 C11_9 1_555 1_555
C11_9 O12_9 1_555 1_555
C12_9 C10_9 1_555 1_555
H4_9 C12_9 1_555 1_555
O8_9 C14_9 1_555 1_555
C13_9 C12_9 1_555 1_555
C14_9 C13_9 1_555 1_555
C15_9 C13_9 1_555 1_555
H5_9 C15_9 1_555 1_555
O9_9 C17_9 1_555 1_555
C16_9 C15_9 1_555 1_555
C17_9 C16_9 1_555 1_555
C18_9 C10_9 1_555 1_555
H6_9 C18_9 1_555 1_555
O11_9 C17_9 1_555 1_555
O12_9 Cu6_2 1_555 1_555
Cu5_3 O9_9 1_555 1_555
Cu9_3 O11_9 1_555 1_555
O8_9 Cu8_3 1_555 1_555
C14_9 O19_2 1_555 1_555
C16_9 C18_9 1_555 1_555
O14_2 C11_10 1_555 1_555
C10_10 C11_10 1_555 1_555
C11_10 O12_10 1_555 1_555
C12_10 C10_10 1_555 1_555
H4_10 C12_10 1_555 1_555
O8_10 C14_10 1_555 1_555
C13_10 C12_10 1_555 1_555
C14_10 C13_10 1_555 1_555
C15_10 C13_10 1_555 1_555
H5_10 C15_10 1_555 1_555
O9_10 C17_10 1_555 1_555
C16_10 C15_10 1_555 1_555
C17_10 C16_10 1_555 1_555
C18_10 C10_10 1_555 1_555
H6_10 C18_10 1_555 1_555
O11_10 C17_10 1_555 1_555
O12_10 Cu6_3 1_555 1_555
Cu4_6 O9_10 1_555 1_555
Cu10_6 O11_10 1_555 1_555
O8_10 Cu6_2 1_555 1_555
C14_10 O17 1_555 1_555
C16_10 C18_10 1_555 1_555
Cu4_6 Cu10_6 1_555 1_555
O13_4 C2_8 1_555 1_555
C1_8 C2_8 1_555 1_555
C2_8 O6_8 1_555 1_555
C3_8 C1_8 1_555 1_555
H1_8 C3_8 1_555 1_555
O2_8 C5_8 1_555 1_555
C4_8 C3_8 1_555 1_555
C5_8 C4_8 1_555 1_555
C6_8 C4_8 1_555 1_555
H2_8 C6_8 1_555 1_555
O3_8 C8_8 1_555 1_555
C7_8 C6_8 1_555 1_555
C8_8 C7_8 1_555 1_555
C9_8 C1_8 1_555 1_555
H3_8 C9_8 1_555 1_555
O19 C5_8 1_555 1_555
O5_8 C8_8 1_555 1_555
O6_8 Cu6_7 1_555 1_555
Cu9_2 O5_8 1_555 1_555
Cu8 O2_8 1_555 1_555
Cu5_2 O3_8 1_555 1_555
C7_8 C9_8 1_555 1_555
O13_2 C2_9 1_555 1_555
C1_9 C2_9 1_555 1_555
C2_9 O6_9 1_555 1_555
C3_9 C1_9 1_555 1_555
H1_9 C3_9 1_555 1_555
O2_9 C5_9 1_555 1_555
C4_9 C3_9 1_555 1_555
C5_9 C4_9 1_555 1_555
C6_9 C4_9 1_555 1_555
H2_9 C6_9 1_555 1_555
O3_9 C8_9 1_555 1_555
C7_9 C6_9 1_555 1_555
C8_9 C7_9 1_555 1_555
C9_9 C1_9 1_555 1_555
H3_9 C9_9 1_555 1_555
O19_3 C5_9 1_555 1_555
O5_9 C8_9 1_555 1_555
O6_9 Cu6_4 1_555 1_555
Cu9_4 O5_9 1_555 1_555
Cu8_5 O2_9 1_555 1_555
Cu5_4 O3_9 1_555 1_555
C7_9 C9_9 1_555 1_555
O15_2 C11_11 1_555 1_555
C10_11 C11_11 1_555 1_555
C11_11 O12_11 1_555 1_555
C12_11 C10_11 1_555 1_555
H4_11 C12_11 1_555 1_555
O8_11 C14_11 1_555 1_555
C13_11 C12_11 1_555 1_555
C14_11 C13_11 1_555 1_555
C15_11 C13_11 1_555 1_555
H5_11 C15_11 1_555 1_555
O9_11 C17_11 1_555 1_555
C16_11 C15_11 1_555 1_555
C17_11 C16_11 1_555 1_555
C18_11 C10_11 1_555 1_555
H6_11 C18_11 1_555 1_555
O11_11 C17_11 1_555 1_555
O12_11 Cu7_4 1_555 1_555
Cu4_7 O9_11 1_555 1_555
Cu10_7 O11_11 1_555 1_555
O8_11 Cu7_6 1_555 1_555
C14_11 O18_3 1_555 1_555
C16_11 C18_11 1_555 1_555
Cu4_7 Cu10_7 1_555 1_555
O16_3 C11_12 1_555 1_555
C10_12 C11_12 1_555 1_555
C11_12 O12_12 1_555 1_555
C12_12 C10_12 1_555 1_555
H4_12 C12_12 1_555 1_555
O8_12 C14_12 1_555 1_555
C13_12 C12_12 1_555 1_555
C14_12 C13_12 1_555 1_555
C15_12 C13_12 1_555 1_555
H5_12 C15_12 1_555 1_555
O9_12 C17_12 1_555 1_555
C16_12 C15_12 1_555 1_555
C17_12 C16_12 1_555 1_555
C18_12 C10_12 1_555 1_555
H6_12 C18_12 1_555 1_555
O11_12 C17_12 1_555 1_555
O12_12 Cu8_6 1_555 1_555
Cu10_4 O9_12 1_555 1_555
Cu4_4 O11_12 1_555 1_555
O8_12 Cu7_4 1_555 1_555
C14_12 O20_2 1_555 1_555
C16_12 C18_12 1_555 1_555
O14_3 C2_10 1_555 1_555
C1_10 C2_10 1_555 1_555
C2_10 O6_10 1_555 1_555
C3_10 C1_10 1_555 1_555
H1_10 C3_10 1_555 1_555
O2_10 C5_10 1_555 1_555
C4_10 C3_10 1_555 1_555
C5_10 C4_10 1_555 1_555
C6_10 C4_10 1_555 1_555
H2_10 C6_10 1_555 1_555
O3_10 C8_10 1_555 1_555
C7_10 C6_10 1_555 1_555
C8_10 C7_10 1_555 1_555
C9_10 C1_10 1_555 1_555
H3_10 C9_10 1_555 1_555
O17_2 C5_10 1_555 1_555
O5_10 C8_10 1_555 1_555
O6_10 Cu6_6 1_555 1_555
Cu4_7 O5_10 1_555 1_555
Cu6_4 O2_10 1_555 1_555
Cu10_7 O3_10 1_555 1_555
C7_10 C9_10 1_555 1_555
O15 C2_11 1_555 1_555
C1_11 C2_11 1_555 1_555
C2_11 O6_11 1_555 1_555
C3_11 C1_11 1_555 1_555
H1_11 C3_11 1_555 1_555
O2_11 C5_11 1_555 1_555
C4_11 C3_11 1_555 1_555
C5_11 C4_11 1_555 1_555
C6_11 C4_11 1_555 1_555
H2_11 C6_11 1_555 1_555
O3_11 C8_11 1_555 1_555
C7_11 C6_11 1_555 1_555
C8_11 C7_11 1_555 1_555
C9_11 C1_11 1_555 1_555
H3_11 C9_11 1_555 1_555
O18_2 C5_11 1_555 1_555
O5_11 C8_11 1_555 1_555
O6_11 Cu7_2 1_555 1_555
Cu4_6 O5_11 1_555 1_555
Cu7_3 O2_11 1_555 1_555
Cu10_6 O3_11 1_555 1_555
C7_11 C9_11 1_555 1_555
O16 C11_13 1_555 1_555
C10_13 C11_13 1_555 1_555
C11_13 O12_13 1_555 1_555
C12_13 C10_13 1_555 1_555
H4_13 C12_13 1_555 1_555
O8_13 C14_13 1_555 1_555
C13_13 C12_13 1_555 1_555
C14_13 C13_13 1_555 1_555
C15_13 C13_13 1_555 1_555
H5_13 C15_13 1_555 1_555
O9_13 C17_13 1_555 1_555
C16_13 C15_13 1_555 1_555
C17_13 C16_13 1_555 1_555
C18_13 C10_13 1_555 1_555
H6_13 C18_13 1_555 1_555
O11_13 C17_13 1_555 1_555
O12_13 Cu8_2 1_555 1_555
Cu10_2 O9_13 1_555 1_555
Cu4_2 O11_13 1_555 1_555
O8_13 Cu7_7 1_555 1_555
C14_13 O20_4 1_555 1_555
C16_13 C18_13 1_555 1_555
O16_5 Cu5_5 1_555 1_555
O19_5 Cu5_5 1_555 1_555
Cu10_7 O1_5 1_555 1_555
O1_5 C2_12 1_555 1_555
C1_12 C2_12 1_555 1_555
C2_12 O6_12 1_555 1_555
C3_12 C1_12 1_555 1_555
H1_12 C3_12 1_555 1_555
O2_12 C5_12 1_555 1_555
C4_12 C3_12 1_555 1_555
C5_12 C4_12 1_555 1_555
C6_12 C4_12 1_555 1_555
H2_12 C6_12 1_555 1_555
O3_12 C8_12 1_555 1_555
C7_12 C6_12 1_555 1_555
C8_12 C7_12 1_555 1_555
C9_12 C1_12 1_555 1_555
H3_12 C9_12 1_555 1_555
O4_5 C5_12 1_555 1_555
O5_12 C8_12 1_555 1_555
O6_12 Cu4_7 1_555 1_555
Cu5_3 O7_5 1_555 1_555
O7_5 C11_14 1_555 1_555
C10_14 C11_14 1_555 1_555
C11_14 O12_14 1_555 1_555
C12_14 C10_14 1_555 1_555
H4_14 C12_14 1_555 1_555
O8_14 C14_14 1_555 1_555
C13_14 C12_14 1_555 1_555
C14_14 C13_14 1_555 1_555
C15_14 C13_14 1_555 1_555
H5_14 C15_14 1_555 1_555
O9_14 C17_14 1_555 1_555
C16_14 C15_14 1_555 1_555
C17_14 C16_14 1_555 1_555
C18_14 C10_14 1_555 1_555
H6_14 C18_14 1_555 1_555
O10_5 Cu10_7 1_555 1_555
O11_14 C17_14 1_555 1_555
O12_14 Cu9_3 1_555 1_555
Cu4_3 O4_5 1_555 1_555
Cu9_4 O9_14 1_555 1_555
Cu10_4 O5_12 1_555 1_555
Cu10_3 O2_12 1_555 1_555
Cu4_4 O3_12 1_555 1_555
Cu5_4 O11_14 1_555 1_555
O13_5 Cu4_3 1_555 1_555
O20_5 Cu5_3 1_555 1_555
C7_12 C9_12 1_555 1_555
O8_14 Cu4_7 1_555 1_555
C14_14 O10_5 1_555 1_555
C16_14 C18_14 1_555 1_555
O16_6 Cu10_6 1_555 1_555
O19_6 Cu10_6 1_555 1_555
Cu4_5 O1_6 1_555 1_555
O1_6 C2_13 1_555 1_555
C1_13 C2_13 1_555 1_555
C2_13 O6_13 1_555 1_555
C3_13 C1_13 1_555 1_555
H1_13 C3_13 1_555 1_555
O2_13 C5_13 1_555 1_555
C4_13 C3_13 1_555 1_555
C5_13 C4_13 1_555 1_555
C6_13 C4_13 1_555 1_555
H2_13 C6_13 1_555 1_555
O3_13 C8_13 1_555 1_555
C7_13 C6_13 1_555 1_555
C8_13 C7_13 1_555 1_555
C9_13 C1_13 1_555 1_555
H3_13 C9_13 1_555 1_555
O4_6 C5_13 1_555 1_555
O5_13 C8_13 1_555 1_555
O6_13 Cu10_5 1_555 1_555
Cu5 O7_6 1_555 1_555
O7_6 C11_15 1_555 1_555
C10_15 C11_15 1_555 1_555
C11_15 O12_15 1_555 1_555
C12_15 C10_15 1_555 1_555
H4_15 C12_15 1_555 1_555
O8_15 C14_15 1_555 1_555
C13_15 C12_15 1_555 1_555
C14_15 C13_15 1_555 1_555
C15_15 C13_15 1_555 1_555
H5_15 C15_15 1_555 1_555
O9_15 C17_15 1_555 1_555
C16_15 C15_15 1_555 1_555
C17_15 C16_15 1_555 1_555
C18_15 C10_15 1_555 1_555
H6_15 C18_15 1_555 1_555
O10_6 Cu4_5 1_555 1_555
O11_15 C17_15 1_555 1_555
O12_15 Cu9 1_555 1_555
Cu4 O4_6 1_555 1_555
Cu9_2 O9_15 1_555 1_555
Cu10_2 O5_13 1_555 1_555
Cu10 O2_13 1_555 1_555
Cu4_2 O3_13 1_555 1_555
Cu5_2 O11_15 1_555 1_555
O13_6 Cu4 1_555 1_555
O20_6 Cu5 1_555 1_555
C7_13 C9_13 1_555 1_555
O8_15 Cu10_5 1_555 1_555
C14_15 O10_6 1_555 1_555
C16_15 C18_15 1_555 1_555
O13_6 C2_14 1_555 1_555
C1_14 C2_14 1_555 1_555
C2_14 O6_14 1_555 1_555
C3_14 C1_14 1_555 1_555
H1_14 C3_14 1_555 1_555
O2_14 C5_14 1_555 1_555
C4_14 C3_14 1_555 1_555
C5_14 C4_14 1_555 1_555
C6_14 C4_14 1_555 1_555
H2_14 C6_14 1_555 1_555
O3_14 C8_14 1_555 1_555
C7_14 C6_14 1_555 1_555
C8_14 C7_14 1_555 1_555
C9_14 C1_14 1_555 1_555
H3_14 C9_14 1_555 1_555
O19_5 C5_14 1_555 1_555
O5_14 C8_14 1_555 1_555
O6_14 Cu10 1_555 1_555
Cu4_4 O5_14 1_555 1_555
Cu9_5 O2_14 1_555 1_555
Cu10_4 O3_14 1_555 1_555
C7_14 C9_14 1_555 1_555
O13_5 C2_15 1_555 1_555
C1_15 C2_15 1_555 1_555
C2_15 O6_15 1_555 1_555
C3_15 C1_15 1_555 1_555
H1_15 C3_15 1_555 1_555
O2_15 C5_15 1_555 1_555
C4_15 C3_15 1_555 1_555
C5_15 C4_15 1_555 1_555
C6_15 C4_15 1_555 1_555
H2_15 C6_15 1_555 1_555
O3_15 C8_15 1_555 1_555
C7_15 C6_15 1_555 1_555
C8_15 C7_15 1_555 1_555
C9_15 C1_15 1_555 1_555
H3_15 C9_15 1_555 1_555
O19_6 C5_15 1_555 1_555
O5_15 C8_15 1_555 1_555
O6_15 Cu10_3 1_555 1_555
Cu4_2 O5_15 1_555 1_555
Cu4_6 O2_15 1_555 1_555
Cu10_2 O3_15 1_555 1_555
C7_15 C9_15 1_555 1_555
O16_6 C11_16 1_555 1_555
C10_16 C11_16 1_555 1_555
C11_16 O12_16 1_555 1_555
C12_16 C10_16 1_555 1_555
H4_16 C12_16 1_555 1_555
O8_16 C14_16 1_555 1_555
C13_16 C12_16 1_555 1_555
C14_16 C13_16 1_555 1_555
C15_16 C13_16 1_555 1_555
H5_16 C15_16 1_555 1_555
O9_16 C17_16 1_555 1_555
C16_16 C15_16 1_555 1_555
C17_16 C16_16 1_555 1_555
C18_16 C10_16 1_555 1_555
H6_16 C18_16 1_555 1_555
O11_16 C17_16 1_555 1_555
O12_16 Cu4_6 1_555 1_555
Cu5_2 O9_16 1_555 1_555
Cu9_2 O11_16 1_555 1_555
O8_16 Cu9_3 1_555 1_555
C14_16 O20_5 1_555 1_555
C16_16 C18_16 1_555 1_555
O16_5 C11_17 1_555 1_555
C10_17 C11_17 1_555 1_555
C11_17 O12_17 1_555 1_555
C12_17 C10_17 1_555 1_555
H4_17 C12_17 1_555 1_555
O8_17 C14_17 1_555 1_555
C13_17 C12_17 1_555 1_555
C14_17 C13_17 1_555 1_555
C15_17 C13_17 1_555 1_555
H5_17 C15_17 1_555 1_555
O9_17 C17_17 1_555 1_555
C16_17 C15_17 1_555 1_555
C17_17 C16_17 1_555 1_555
C18_17 C10_17 1_555 1_555
H6_17 C18_17 1_555 1_555
O11_17 C17_17 1_555 1_555
O12_17 Cu9_5 1_555 1_555
Cu5_4 O9_17 1_555 1_555
Cu9_4 O11_17 1_555 1_555
O8_17 Cu9 1_555 1_555
C14_17 O20_6 1_555 1_555
C16_17 C18_17 1_555 1_555

#END
