
###############################################################################
#
# This file contains modified crystal structure data generated from the
# MOF subset of the Cambridge Structural Database (CSD) v543 
# hosted by the Cambridge Crystallographic Data Centre (CCDC).
#
# This work is licensed under the Creative Commons
# Attribution-NonCommercial-ShareAlike 4.0 International License.
# To view a copy of this license, visit
# http://creativecommons.org/licenses/by-nc-sa/4.0/
# or send a letter to
# Creative Commons, PO Box 1866, Mountain View, CA 94042, USA.
#
# CIF created using the CSD Python API on 29 September 2022
# The structure has been converted into the P1 space group
# The structure has a 3D framework
# The original CSD entry DOTSOV02 is in the cubic crystal system
# The framework has been calculated to contain at least 10.0% void space
# The void calculation uses a probe of radius 1.32A, grid spacing 0.4
#
###############################################################################

data_DOTSOV02
_chemical_formula_moiety         '(C288 H96 Cu48 O192)n'
_symmetry_cell_setting           triclinic
_symmetry_space_group_name_H-M   'P 1'
_symmetry_Int_Tables_number      1
_space_group_name_Hall           'P 1'
loop_
_symmetry_equiv_pos_site_id
_symmetry_equiv_pos_as_xyz
1 x,y,z
_cell_length_a                   26.2614(2)
_cell_length_b                   26.2614(2)
_cell_length_c                   26.2614(2)
_cell_angle_alpha                90
_cell_angle_beta                 90
_cell_angle_gamma                90
_cell_volume                     18111.5
loop_
_atom_site_label
_atom_site_type_symbol
_atom_site_fract_x
_atom_site_fract_y
_atom_site_fract_z
Cu1 Cu 0.283614(17) 0.283614(17) 0.0000
O1 O 0.24359(9) 0.31655(9) 0.05224(9)
C1 C 0.17852(12) 0.32148(12) 0.11373(15)
C2 C 0.20330(11) 0.29670(11) 0.06909(16)
C3 C 0.13536(12) 0.29999(17) 0.13536(12)
H1 H 0.1206 0.2705 0.1206
Cu2 Cu 0.216386(17) 0.216386(17) 0.0000
Cu3 Cu 0.0000 0.216386(17) 0.216386(17)
Cu4 Cu 0.0000 0.283614(17) 0.283614(17)
Cu5 Cu 0.216386(17) 0.5000 0.283614(17)
Cu6 Cu 0.283614(17) 0.5000 0.216386(17)
Cu11 Cu 0.216386(17) 0.0000 0.216386(17)
Cu12 Cu 0.283614(17) 0.0000 0.283614(17)
Cu13 Cu 0.5000 0.216386(17) 0.283614(17)
Cu14 Cu 0.5000 0.283614(17) 0.216386(17)
O2 O 0.18345(9) 0.25641(9) 0.05224(9)
O3 O 0.05224(9) 0.25641(9) 0.18345(9)
O4 O 0.05224(9) 0.31655(9) 0.24359(9)
O5 O 0.18345(9) 0.44776(9) 0.24359(9)
O6 O 0.24359(9) 0.44776(9) 0.18345(9)
O13 O 0.31655(9) 0.24359(9) 0.05224(9)
O14 O 0.25641(9) 0.18345(9) 0.05224(9)
O15 O 0.25641(9) 0.05224(9) 0.18345(9)
O16 O 0.31655(9) 0.05224(9) 0.24359(9)
O17 O 0.44776(9) 0.18345(9) 0.24359(9)
O18 O 0.44776(9) 0.24359(9) 0.18345(9)
O26 O 0.05224(9) 0.18345(9) 0.25641(9)
O29 O 0.05224(9) 0.24359(9) 0.31655(9)
O31 O 0.18345(9) 0.55224(9) 0.24359(9)
O32 O 0.25641(9) 0.44776(9) 0.31655(9)
O33 O 0.25641(9) 0.55224(9) 0.31655(9)
O34 O 0.24359(9) 0.55224(9) 0.18345(9)
O35 O 0.31655(9) 0.44776(9) 0.25641(9)
O36 O 0.31655(9) 0.55224(9) 0.25641(9)
C4 C 0.11373(15) 0.32148(12) 0.17852(12)
C5 C 0.17852(12) 0.38627(15) 0.17852(12)
C9 C 0.32148(12) 0.17852(12) 0.11373(15)
C10 C 0.32148(12) 0.11373(15) 0.17852(12)
C11 C 0.38627(15) 0.17852(12) 0.17852(12)
C15 C 0.06909(16) 0.29670(11) 0.20330(11)
C16 C 0.20330(11) 0.43091(16) 0.20330(11)
C20 C 0.29670(11) 0.20330(11) 0.06909(16)
C21 C 0.29670(11) 0.06909(16) 0.20330(11)
C22 C 0.43091(16) 0.20330(11) 0.20330(11)
C26 C 0.13536(12) 0.36464(12) 0.20001(17)
C27 C 0.20001(17) 0.36464(12) 0.13536(12)
C31 C 0.29999(17) 0.13536(12) 0.13536(12)
C32 C 0.36464(12) 0.13536(12) 0.20001(17)
C33 C 0.36464(12) 0.20001(17) 0.13536(12)
H2 H 0.2295 0.3794 0.1206
H3 H 0.1206 0.3794 0.2295
H7 H 0.2705 0.1206 0.1206
H8 H 0.3794 0.2295 0.1206
H9 H 0.3794 0.1206 0.2295
Cu1_2 Cu 0.283614(17) 0.283614(17) 1.0000
Cu2_2 Cu 0.216386(17) 0.216386(17) 1.0000
Cu7 Cu 0.0000 0.216386(17) 0.783614(17)
Cu8 Cu 0.0000 0.283614(17) 0.716386(17)
Cu9 Cu 0.216386(17) 0.5000 0.716386(17)
Cu10 Cu 0.283614(17) 0.5000 0.783614(17)
Cu15 Cu 0.216386(17) 0.0000 0.783614(17)
Cu16 Cu 0.283614(17) 0.0000 0.716386(17)
Cu17 Cu 0.5000 0.216386(17) 0.716386(17)
Cu18 Cu 0.5000 0.283614(17) 0.783614(17)
O7 O 0.24359(9) 0.31655(9) 0.94776(9)
O8 O 0.18345(9) 0.25641(9) 0.94776(9)
O9 O 0.05224(9) 0.25641(9) 0.81655(9)
O10 O 0.05224(9) 0.31655(9) 0.75641(9)
O11 O 0.18345(9) 0.44776(9) 0.75641(9)
O12 O 0.24359(9) 0.44776(9) 0.81655(9)
O19 O 0.31655(9) 0.24359(9) 0.94776(9)
O20 O 0.25641(9) 0.18345(9) 0.94776(9)
O21 O 0.25641(9) 0.05224(9) 0.81655(9)
O22 O 0.31655(9) 0.05224(9) 0.75641(9)
O23 O 0.44776(9) 0.18345(9) 0.75641(9)
O24 O 0.44776(9) 0.24359(9) 0.81655(9)
C6 C 0.17852(12) 0.32148(12) 0.88627(15)
C7 C 0.11373(15) 0.32148(12) 0.82148(12)
C8 C 0.17852(12) 0.38627(15) 0.82148(12)
C12 C 0.32148(12) 0.17852(12) 0.88627(15)
C13 C 0.32148(12) 0.11373(15) 0.82148(12)
C14 C 0.38627(15) 0.17852(12) 0.82148(12)
C17 C 0.20330(11) 0.29670(11) 0.93091(16)
C18 C 0.06909(16) 0.29670(11) 0.79670(11)
C19 C 0.20330(11) 0.43091(16) 0.79670(11)
C23 C 0.29670(11) 0.20330(11) 0.93091(16)
C24 C 0.29670(11) 0.06909(16) 0.79670(11)
C25 C 0.43091(16) 0.20330(11) 0.79670(11)
C28 C 0.13536(12) 0.29999(17) 0.86464(12)
C29 C 0.13536(12) 0.36464(12) 0.79999(17)
C30 C 0.20001(17) 0.36464(12) 0.86464(12)
C34 C 0.29999(17) 0.13536(12) 0.86464(12)
C35 C 0.36464(12) 0.13536(12) 0.79999(17)
C36 C 0.36464(12) 0.20001(17) 0.86464(12)
H4 H 0.1206 0.2705 0.8794
H5 H 0.2295 0.3794 0.8794
H6 H 0.1206 0.3794 0.7705
H10 H 0.2705 0.1206 0.8794
H11 H 0.3794 0.2295 0.8794
H12 H 0.3794 0.1206 0.7705
Cu11_2 Cu 0.216386(17) 1.0000 0.216386(17)
Cu12_2 Cu 0.283614(17) 1.0000 0.283614(17)
Cu15_2 Cu 0.216386(17) 1.0000 0.783614(17)
Cu16_2 Cu 0.283614(17) 1.0000 0.716386(17)
Cu3_2 Cu 1.0000 0.216386(17) 0.216386(17)
Cu4_2 Cu 1.0000 0.283614(17) 0.283614(17)
O25 O 0.94776(9) 0.25641(9) 0.18345(9)
O27 O 0.94776(9) 0.18345(9) 0.25641(9)
O28 O 0.94776(9) 0.31655(9) 0.24359(9)
O30 O 0.94776(9) 0.24359(9) 0.31655(9)
Cu7_2 Cu 1.0000 0.216386(17) 0.783614(17)
Cu8_2 Cu 1.0000 0.283614(17) 0.716386(17)
Cu1_3 Cu 0.716386(17) 0.283614(17) 0.0000
O1_2 O 0.68345(9) 0.24359(9) 0.05224(9)
C1_2 C 0.67852(12) 0.17852(12) 0.11373(15)
C2_2 C 0.70330(11) 0.20330(11) 0.06909(16)
C3_2 C 0.70001(17) 0.13536(12) 0.13536(12)
H1_2 H 0.7295 0.1206 0.1206
Cu2_3 Cu 0.783614(17) 0.216386(17) 0.0000
Cu3_3 Cu 0.783614(17) 0.0000 0.216386(17)
Cu4_3 Cu 0.716386(17) 0.0000 0.283614(17)
Cu13_2 Cu 0.783614(17) 0.5000 0.283614(17)
Cu14_2 Cu 0.716386(17) 0.5000 0.216386(17)
O2_2 O 0.74359(9) 0.18345(9) 0.05224(9)
O3_2 O 0.74359(9) 0.05224(9) 0.18345(9)
O4_2 O 0.68345(9) 0.05224(9) 0.24359(9)
O5_2 O 0.55224(9) 0.18345(9) 0.24359(9)
O6_2 O 0.55224(9) 0.24359(9) 0.18345(9)
O13_2 O 0.75641(9) 0.31655(9) 0.05224(9)
O14_2 O 0.81655(9) 0.25641(9) 0.05224(9)
O17_2 O 0.81655(9) 0.44776(9) 0.24359(9)
O18_2 O 0.75641(9) 0.44776(9) 0.18345(9)
O26_2 O 0.81655(9) 0.05224(9) 0.25641(9)
O29_2 O 0.75641(9) 0.05224(9) 0.31655(9)
O32_2 O 0.55224(9) 0.25641(9) 0.31655(9)
O33_2 O 0.44776(9) 0.25641(9) 0.31655(9)
O35_2 O 0.55224(9) 0.31655(9) 0.25641(9)
O36_2 O 0.44776(9) 0.31655(9) 0.25641(9)
C4_2 C 0.67852(12) 0.11373(15) 0.17852(12)
C5_2 C 0.61373(15) 0.17852(12) 0.17852(12)
C9_2 C 0.82148(12) 0.32148(12) 0.11373(15)
C10_2 C 0.88627(15) 0.32148(12) 0.17852(12)
C11_2 C 0.82148(12) 0.38627(15) 0.17852(12)
C15_2 C 0.70330(11) 0.06909(16) 0.20330(11)
C16_2 C 0.56909(16) 0.20330(11) 0.20330(11)
C20_2 C 0.79670(11) 0.29670(11) 0.06909(16)
C21_2 C 0.93091(16) 0.29670(11) 0.20330(11)
C22_2 C 0.79670(11) 0.43091(16) 0.20330(11)
C26_2 C 0.63536(12) 0.13536(12) 0.20001(17)
C27_2 C 0.63536(12) 0.20001(17) 0.13536(12)
C31_2 C 0.86464(12) 0.29999(17) 0.13536(12)
C32_2 C 0.86464(12) 0.36464(12) 0.20001(17)
C33_2 C 0.79999(17) 0.36464(12) 0.13536(12)
H2_2 H 0.6206 0.2295 0.1206
H3_2 H 0.6206 0.1206 0.2295
H7_2 H 0.8794 0.2705 0.1206
H8_2 H 0.7705 0.3794 0.1206
H9_2 H 0.8794 0.3794 0.2295
Cu1_4 Cu 0.716386(17) 0.283614(17) 1.0000
Cu2_4 Cu 0.783614(17) 0.216386(17) 1.0000
Cu7_3 Cu 0.783614(17) 0.0000 0.783614(17)
Cu8_3 Cu 0.716386(17) 0.0000 0.716386(17)
Cu17_2 Cu 0.783614(17) 0.5000 0.716386(17)
Cu18_2 Cu 0.716386(17) 0.5000 0.783614(17)
O7_2 O 0.68345(9) 0.24359(9) 0.94776(9)
O8_2 O 0.74359(9) 0.18345(9) 0.94776(9)
O9_2 O 0.74359(9) 0.05224(9) 0.81655(9)
O10_2 O 0.68345(9) 0.05224(9) 0.75641(9)
O11_2 O 0.55224(9) 0.18345(9) 0.75641(9)
O12_2 O 0.55224(9) 0.24359(9) 0.81655(9)
O19_2 O 0.75641(9) 0.31655(9) 0.94776(9)
O20_2 O 0.81655(9) 0.25641(9) 0.94776(9)
O21_2 O 0.94776(9) 0.25641(9) 0.81655(9)
O22_2 O 0.94776(9) 0.31655(9) 0.75641(9)
O23_2 O 0.81655(9) 0.44776(9) 0.75641(9)
O24_2 O 0.75641(9) 0.44776(9) 0.81655(9)
C6_2 C 0.67852(12) 0.17852(12) 0.88627(15)
C7_2 C 0.67852(12) 0.11373(15) 0.82148(12)
C8_2 C 0.61373(15) 0.17852(12) 0.82148(12)
C12_2 C 0.82148(12) 0.32148(12) 0.88627(15)
C13_2 C 0.88627(15) 0.32148(12) 0.82148(12)
C14_2 C 0.82148(12) 0.38627(15) 0.82148(12)
C17_2 C 0.70330(11) 0.20330(11) 0.93091(16)
C18_2 C 0.70330(11) 0.06909(16) 0.79670(11)
C19_2 C 0.56909(16) 0.20330(11) 0.79670(11)
C23_2 C 0.79670(11) 0.29670(11) 0.93091(16)
C24_2 C 0.93091(16) 0.29670(11) 0.79670(11)
C25_2 C 0.79670(11) 0.43091(16) 0.79670(11)
C28_2 C 0.70001(17) 0.13536(12) 0.86464(12)
C29_2 C 0.63536(12) 0.13536(12) 0.79999(17)
C30_2 C 0.63536(12) 0.20001(17) 0.86464(12)
C34_2 C 0.86464(12) 0.29999(17) 0.86464(12)
C35_2 C 0.86464(12) 0.36464(12) 0.79999(17)
C36_2 C 0.79999(17) 0.36464(12) 0.86464(12)
H4_2 H 0.7295 0.1206 0.8794
H5_2 H 0.6206 0.2295 0.8794
H6_2 H 0.6206 0.1206 0.7705
H10_2 H 0.8794 0.2705 0.8794
H11_2 H 0.7705 0.3794 0.8794
H12_2 H 0.8794 0.3794 0.7705
Cu3_4 Cu 0.783614(17) 1.0000 0.216386(17)
Cu4_4 Cu 0.716386(17) 1.0000 0.283614(17)
O25_2 O 0.74359(9) 0.94776(9) 0.18345(9)
O27_2 O 0.81655(9) 0.94776(9) 0.25641(9)
O28_2 O 0.68345(9) 0.94776(9) 0.24359(9)
O30_2 O 0.75641(9) 0.94776(9) 0.31655(9)
Cu7_4 Cu 0.783614(17) 1.0000 0.783614(17)
Cu8_4 Cu 0.716386(17) 1.0000 0.716386(17)
Cu3_5 Cu 0.0000 0.783614(17) 0.216386(17)
Cu4_5 Cu 0.0000 0.716386(17) 0.283614(17)
O25_3 O 0.05224(9) 0.74359(9) 0.18345(9)
O27_3 O 0.05224(9) 0.81655(9) 0.25641(9)
O28_3 O 0.05224(9) 0.68345(9) 0.24359(9)
O30_3 O 0.05224(9) 0.75641(9) 0.31655(9)
Cu7_5 Cu 0.0000 0.783614(17) 0.783614(17)
Cu8_5 Cu 0.0000 0.716386(17) 0.716386(17)
Cu1_5 Cu 0.716386(17) 0.716386(17) 0.0000
O1_3 O 0.75641(9) 0.68345(9) 0.05224(9)
C1_3 C 0.82148(12) 0.67852(12) 0.11373(15)
C2_3 C 0.79670(11) 0.70330(11) 0.06909(16)
C3_3 C 0.86464(12) 0.70001(17) 0.13536(12)
H1_3 H 0.8794 0.7295 0.1206
Cu2_5 Cu 0.783614(17) 0.783614(17) 0.0000
Cu3_6 Cu 1.0000 0.783614(17) 0.216386(17)
Cu4_6 Cu 1.0000 0.716386(17) 0.283614(17)
Cu13_3 Cu 0.5000 0.783614(17) 0.283614(17)
Cu14_3 Cu 0.5000 0.716386(17) 0.216386(17)
O2_3 O 0.81655(9) 0.74359(9) 0.05224(9)
O3_3 O 0.94776(9) 0.74359(9) 0.18345(9)
O4_3 O 0.94776(9) 0.68345(9) 0.24359(9)
O5_3 O 0.81655(9) 0.55224(9) 0.24359(9)
O6_3 O 0.75641(9) 0.55224(9) 0.18345(9)
O13_3 O 0.68345(9) 0.75641(9) 0.05224(9)
O14_3 O 0.74359(9) 0.81655(9) 0.05224(9)
O17_3 O 0.55224(9) 0.81655(9) 0.24359(9)
O18_3 O 0.55224(9) 0.75641(9) 0.18345(9)
O26_3 O 0.94776(9) 0.81655(9) 0.25641(9)
O29_3 O 0.94776(9) 0.75641(9) 0.31655(9)
O32_3 O 0.74359(9) 0.55224(9) 0.31655(9)
O33_3 O 0.74359(9) 0.44776(9) 0.31655(9)
O35_3 O 0.68345(9) 0.55224(9) 0.25641(9)
O36_3 O 0.68345(9) 0.44776(9) 0.25641(9)
C4_3 C 0.88627(15) 0.67852(12) 0.17852(12)
C5_3 C 0.82148(12) 0.61373(15) 0.17852(12)
C9_3 C 0.67852(12) 0.82148(12) 0.11373(15)
C10_3 C 0.67852(12) 0.88627(15) 0.17852(12)
C11_3 C 0.61373(15) 0.82148(12) 0.17852(12)
C15_3 C 0.93091(16) 0.70330(11) 0.20330(11)
C16_3 C 0.79670(11) 0.56909(16) 0.20330(11)
C20_3 C 0.70330(11) 0.79670(11) 0.06909(16)
C21_3 C 0.70330(11) 0.93091(16) 0.20330(11)
C22_3 C 0.56909(16) 0.79670(11) 0.20330(11)
C26_3 C 0.86464(12) 0.63536(12) 0.20001(17)
C27_3 C 0.79999(17) 0.63536(12) 0.13536(12)
C31_3 C 0.70001(17) 0.86464(12) 0.13536(12)
C32_3 C 0.63536(12) 0.86464(12) 0.20001(17)
C33_3 C 0.63536(12) 0.79999(17) 0.13536(12)
H2_3 H 0.7705 0.6206 0.1206
H3_3 H 0.8794 0.6206 0.2295
H7_3 H 0.7295 0.8794 0.1206
H8_3 H 0.6206 0.7705 0.1206
H9_3 H 0.6206 0.8794 0.2295
Cu1_6 Cu 0.716386(17) 0.716386(17) 1.0000
Cu2_6 Cu 0.783614(17) 0.783614(17) 1.0000
Cu7_6 Cu 1.0000 0.783614(17) 0.783614(17)
Cu8_6 Cu 1.0000 0.716386(17) 0.716386(17)
Cu17_3 Cu 0.5000 0.783614(17) 0.716386(17)
Cu18_3 Cu 0.5000 0.716386(17) 0.783614(17)
O7_3 O 0.75641(9) 0.68345(9) 0.94776(9)
O8_3 O 0.81655(9) 0.74359(9) 0.94776(9)
O9_3 O 0.94776(9) 0.74359(9) 0.81655(9)
O10_3 O 0.94776(9) 0.68345(9) 0.75641(9)
O11_3 O 0.81655(9) 0.55224(9) 0.75641(9)
O12_3 O 0.75641(9) 0.55224(9) 0.81655(9)
O19_3 O 0.68345(9) 0.75641(9) 0.94776(9)
O20_3 O 0.74359(9) 0.81655(9) 0.94776(9)
O21_3 O 0.74359(9) 0.94776(9) 0.81655(9)
O22_3 O 0.68345(9) 0.94776(9) 0.75641(9)
O23_3 O 0.55224(9) 0.81655(9) 0.75641(9)
O24_3 O 0.55224(9) 0.75641(9) 0.81655(9)
C6_3 C 0.82148(12) 0.67852(12) 0.88627(15)
C7_3 C 0.88627(15) 0.67852(12) 0.82148(12)
C8_3 C 0.82148(12) 0.61373(15) 0.82148(12)
C12_3 C 0.67852(12) 0.82148(12) 0.88627(15)
C13_3 C 0.67852(12) 0.88627(15) 0.82148(12)
C14_3 C 0.61373(15) 0.82148(12) 0.82148(12)
C17_3 C 0.79670(11) 0.70330(11) 0.93091(16)
C18_3 C 0.93091(16) 0.70330(11) 0.79670(11)
C19_3 C 0.79670(11) 0.56909(16) 0.79670(11)
C23_3 C 0.70330(11) 0.79670(11) 0.93091(16)
C24_3 C 0.70330(11) 0.93091(16) 0.79670(11)
C25_3 C 0.56909(16) 0.79670(11) 0.79670(11)
C28_3 C 0.86464(12) 0.70001(17) 0.86464(12)
C29_3 C 0.86464(12) 0.63536(12) 0.79999(17)
C30_3 C 0.79999(17) 0.63536(12) 0.86464(12)
C34_3 C 0.70001(17) 0.86464(12) 0.86464(12)
C35_3 C 0.63536(12) 0.86464(12) 0.79999(17)
C36_3 C 0.63536(12) 0.79999(17) 0.86464(12)
H4_3 H 0.8794 0.7295 0.8794
H5_3 H 0.7705 0.6206 0.8794
H6_3 H 0.8794 0.6206 0.7705
H10_3 H 0.7295 0.8794 0.8794
H11_3 H 0.6206 0.7705 0.8794
H12_3 H 0.6206 0.8794 0.7705
O27_4 O 0.18345(9) 0.05224(9) 0.25641(9)
O30_4 O 0.24359(9) 0.05224(9) 0.31655(9)
Cu1_7 Cu 0.283614(17) 0.716386(17) 0.0000
O1_4 O 0.31655(9) 0.75641(9) 0.05224(9)
C1_4 C 0.32148(12) 0.82148(12) 0.11373(15)
C2_4 C 0.29670(11) 0.79670(11) 0.06909(16)
C3_4 C 0.29999(17) 0.86464(12) 0.13536(12)
H1_4 H 0.2705 0.8794 0.1206
Cu2_7 Cu 0.216386(17) 0.783614(17) 0.0000
O2_4 O 0.25641(9) 0.81655(9) 0.05224(9)
O3_4 O 0.25641(9) 0.94776(9) 0.18345(9)
O4_4 O 0.31655(9) 0.94776(9) 0.24359(9)
O5_4 O 0.44776(9) 0.81655(9) 0.24359(9)
O6_4 O 0.44776(9) 0.75641(9) 0.18345(9)
O13_4 O 0.24359(9) 0.68345(9) 0.05224(9)
O14_4 O 0.18345(9) 0.74359(9) 0.05224(9)
O26_4 O 0.18345(9) 0.94776(9) 0.25641(9)
O29_4 O 0.24359(9) 0.94776(9) 0.31655(9)
O32_4 O 0.44776(9) 0.74359(9) 0.31655(9)
O33_4 O 0.55224(9) 0.74359(9) 0.31655(9)
O35_4 O 0.44776(9) 0.68345(9) 0.25641(9)
O36_4 O 0.55224(9) 0.68345(9) 0.25641(9)
C4_4 C 0.32148(12) 0.88627(15) 0.17852(12)
C5_4 C 0.38627(15) 0.82148(12) 0.17852(12)
C9_4 C 0.17852(12) 0.67852(12) 0.11373(15)
C10_4 C 0.11373(15) 0.67852(12) 0.17852(12)
C11_4 C 0.17852(12) 0.61373(15) 0.17852(12)
C15_4 C 0.29670(11) 0.93091(16) 0.20330(11)
C16_4 C 0.43091(16) 0.79670(11) 0.20330(11)
C20_4 C 0.20330(11) 0.70330(11) 0.06909(16)
C21_4 C 0.06909(16) 0.70330(11) 0.20330(11)
C22_4 C 0.20330(11) 0.56909(16) 0.20330(11)
C26_4 C 0.36464(12) 0.86464(12) 0.20001(17)
C27_4 C 0.36464(12) 0.79999(17) 0.13536(12)
C31_4 C 0.13536(12) 0.70001(17) 0.13536(12)
C32_4 C 0.13536(12) 0.63536(12) 0.20001(17)
C33_4 C 0.20001(17) 0.63536(12) 0.13536(12)
H2_4 H 0.3794 0.7705 0.1206
H3_4 H 0.3794 0.8794 0.2295
H7_4 H 0.1206 0.7295 0.1206
H8_4 H 0.2295 0.6206 0.1206
H9_4 H 0.1206 0.6206 0.2295
Cu1_8 Cu 0.283614(17) 0.716386(17) 1.0000
Cu2_8 Cu 0.216386(17) 0.783614(17) 1.0000
O7_4 O 0.31655(9) 0.75641(9) 0.94776(9)
O8_4 O 0.25641(9) 0.81655(9) 0.94776(9)
O9_4 O 0.25641(9) 0.94776(9) 0.81655(9)
O10_4 O 0.31655(9) 0.94776(9) 0.75641(9)
O11_4 O 0.44776(9) 0.81655(9) 0.75641(9)
O12_4 O 0.44776(9) 0.75641(9) 0.81655(9)
O19_4 O 0.24359(9) 0.68345(9) 0.94776(9)
O20_4 O 0.18345(9) 0.74359(9) 0.94776(9)
O21_4 O 0.05224(9) 0.74359(9) 0.81655(9)
O22_4 O 0.05224(9) 0.68345(9) 0.75641(9)
O23_4 O 0.18345(9) 0.55224(9) 0.75641(9)
O24_4 O 0.24359(9) 0.55224(9) 0.81655(9)
C6_4 C 0.32148(12) 0.82148(12) 0.88627(15)
C7_4 C 0.32148(12) 0.88627(15) 0.82148(12)
C8_4 C 0.38627(15) 0.82148(12) 0.82148(12)
C12_4 C 0.17852(12) 0.67852(12) 0.88627(15)
C13_4 C 0.11373(15) 0.67852(12) 0.82148(12)
C14_4 C 0.17852(12) 0.61373(15) 0.82148(12)
C17_4 C 0.29670(11) 0.79670(11) 0.93091(16)
C18_4 C 0.29670(11) 0.93091(16) 0.79670(11)
C19_4 C 0.43091(16) 0.79670(11) 0.79670(11)
C23_4 C 0.20330(11) 0.70330(11) 0.93091(16)
C24_4 C 0.06909(16) 0.70330(11) 0.79670(11)
C25_4 C 0.20330(11) 0.56909(16) 0.79670(11)
C28_4 C 0.29999(17) 0.86464(12) 0.86464(12)
C29_4 C 0.36464(12) 0.86464(12) 0.79999(17)
C30_4 C 0.36464(12) 0.79999(17) 0.86464(12)
C34_4 C 0.13536(12) 0.70001(17) 0.86464(12)
C35_4 C 0.13536(12) 0.63536(12) 0.79999(17)
C36_4 C 0.20001(17) 0.63536(12) 0.86464(12)
H4_4 H 0.2705 0.8794 0.8794
H5_4 H 0.3794 0.7705 0.8794
H6_4 H 0.3794 0.8794 0.7705
H10_4 H 0.1206 0.7295 0.8794
H11_4 H 0.2295 0.6206 0.8794
H12_4 H 0.1206 0.6206 0.7705
Cu9_2 Cu 0.216386(17) 0.283614(17) 0.5000
Cu10_2 Cu 0.283614(17) 0.216386(17) 0.5000
O11_5 O 0.18345(9) 0.24359(9) 0.44776(9)
O12_5 O 0.24359(9) 0.18345(9) 0.44776(9)
C6_5 C 0.17852(12) 0.11373(15) 0.32148(12)
C7_5 C 0.11373(15) 0.17852(12) 0.32148(12)
C8_5 C 0.17852(12) 0.17852(12) 0.38627(15)
C17_5 C 0.20330(11) 0.06909(16) 0.29670(11)
C18_5 C 0.06909(16) 0.20330(11) 0.29670(11)
C19_5 C 0.20330(11) 0.20330(11) 0.43091(16)
C28_5 C 0.13536(12) 0.13536(12) 0.29999(17)
C29_5 C 0.13536(12) 0.20001(17) 0.36464(12)
C30_5 C 0.20001(17) 0.13536(12) 0.36464(12)
H4_5 H 0.1206 0.1206 0.2705
H5_5 H 0.2295 0.1206 0.3794
H6_5 H 0.1206 0.2295 0.3794
C1_5 C 0.17852(12) 0.88627(15) 0.32148(12)
C2_5 C 0.20330(11) 0.93091(16) 0.29670(11)
C3_5 C 0.13536(12) 0.86464(12) 0.29999(17)
H1_5 H 0.1206 0.8794 0.2705
Cu5_2 Cu 0.216386(17) 0.716386(17) 0.5000
Cu6_2 Cu 0.283614(17) 0.783614(17) 0.5000
O5_5 O 0.18345(9) 0.75641(9) 0.44776(9)
O6_5 O 0.24359(9) 0.81655(9) 0.44776(9)
O31_2 O 0.18345(9) 0.75641(9) 0.55224(9)
O32_5 O 0.25641(9) 0.68345(9) 0.44776(9)
O33_5 O 0.25641(9) 0.68345(9) 0.55224(9)
O34_2 O 0.24359(9) 0.81655(9) 0.55224(9)
O35_5 O 0.31655(9) 0.74359(9) 0.44776(9)
O36_5 O 0.31655(9) 0.74359(9) 0.55224(9)
C4_5 C 0.11373(15) 0.82148(12) 0.32148(12)
C5_5 C 0.17852(12) 0.82148(12) 0.38627(15)
C15_5 C 0.06909(16) 0.79670(11) 0.29670(11)
C16_5 C 0.20330(11) 0.79670(11) 0.43091(16)
C26_5 C 0.13536(12) 0.79999(17) 0.36464(12)
C27_5 C 0.20001(17) 0.86464(12) 0.36464(12)
H2_5 H 0.2295 0.8794 0.3794
H3_5 H 0.1206 0.7705 0.3794
O26_5 O 0.05224(9) 0.81655(9) 0.74359(9)
O29_5 O 0.05224(9) 0.75641(9) 0.68345(9)
O32_6 O 0.25641(9) 0.55224(9) 0.68345(9)
O33_6 O 0.25641(9) 0.44776(9) 0.68345(9)
O35_6 O 0.31655(9) 0.55224(9) 0.74359(9)
O36_6 O 0.31655(9) 0.44776(9) 0.74359(9)
O27_5 O 0.94776(9) 0.81655(9) 0.74359(9)
O30_5 O 0.94776(9) 0.75641(9) 0.68345(9)
O1_5 O 0.24359(9) 0.05224(9) 0.68345(9)
C1_6 C 0.17852(12) 0.11373(15) 0.67852(12)
C2_6 C 0.20330(11) 0.06909(16) 0.70330(11)
C3_6 C 0.13536(12) 0.13536(12) 0.70001(17)
H1_6 H 0.1206 0.1206 0.7295
O2_5 O 0.18345(9) 0.05224(9) 0.74359(9)
O3_5 O 0.05224(9) 0.18345(9) 0.74359(9)
O4_5 O 0.05224(9) 0.24359(9) 0.68345(9)
O5_6 O 0.18345(9) 0.24359(9) 0.55224(9)
O6_6 O 0.24359(9) 0.18345(9) 0.55224(9)
O32_7 O 0.25641(9) 0.31655(9) 0.55224(9)
O33_7 O 0.25641(9) 0.31655(9) 0.44776(9)
O35_7 O 0.31655(9) 0.25641(9) 0.55224(9)
O36_7 O 0.31655(9) 0.25641(9) 0.44776(9)
C4_6 C 0.11373(15) 0.17852(12) 0.67852(12)
C5_6 C 0.17852(12) 0.17852(12) 0.61373(15)
C15_6 C 0.06909(16) 0.20330(11) 0.70330(11)
C16_6 C 0.20330(11) 0.20330(11) 0.56909(16)
C26_6 C 0.13536(12) 0.20001(17) 0.63536(12)
C27_6 C 0.20001(17) 0.13536(12) 0.63536(12)
H2_6 H 0.2295 0.1206 0.6206
H3_6 H 0.1206 0.2295 0.6206
O7_5 O 0.24359(9) 0.94776(9) 0.68345(9)
O8_5 O 0.18345(9) 0.94776(9) 0.74359(9)
C6_6 C 0.17852(12) 0.88627(15) 0.67852(12)
C7_6 C 0.11373(15) 0.82148(12) 0.67852(12)
C8_6 C 0.17852(12) 0.82148(12) 0.61373(15)
C17_6 C 0.20330(11) 0.93091(16) 0.70330(11)
C18_6 C 0.06909(16) 0.79670(11) 0.70330(11)
C19_6 C 0.20330(11) 0.79670(11) 0.56909(16)
C28_6 C 0.13536(12) 0.86464(12) 0.70001(17)
C29_6 C 0.13536(12) 0.79999(17) 0.63536(12)
C30_6 C 0.20001(17) 0.86464(12) 0.63536(12)
H4_6 H 0.1206 0.8794 0.7295
H5_6 H 0.2295 0.8794 0.6206
H6_6 H 0.1206 0.7705 0.6206
O25_4 O 0.94776(9) 0.18345(9) 0.74359(9)
O28_4 O 0.94776(9) 0.24359(9) 0.68345(9)
Cu17_4 Cu 0.716386(17) 0.216386(17) 0.5000
Cu18_4 Cu 0.783614(17) 0.283614(17) 0.5000
O21_5 O 0.81655(9) 0.05224(9) 0.74359(9)
O22_5 O 0.75641(9) 0.05224(9) 0.68345(9)
O23_5 O 0.75641(9) 0.18345(9) 0.55224(9)
O24_5 O 0.81655(9) 0.24359(9) 0.55224(9)
C12_5 C 0.88627(15) 0.17852(12) 0.67852(12)
C13_5 C 0.82148(12) 0.11373(15) 0.67852(12)
C14_5 C 0.82148(12) 0.17852(12) 0.61373(15)
C23_5 C 0.93091(16) 0.20330(11) 0.70330(11)
C24_5 C 0.79670(11) 0.06909(16) 0.70330(11)
C25_5 C 0.79670(11) 0.20330(11) 0.56909(16)
C34_5 C 0.86464(12) 0.13536(12) 0.70001(17)
C35_5 C 0.79999(17) 0.13536(12) 0.63536(12)
C36_5 C 0.86464(12) 0.20001(17) 0.63536(12)
H10_5 H 0.8794 0.1206 0.7295
H11_5 H 0.8794 0.2295 0.6206
H12_5 H 0.7705 0.1206 0.6206
O32_8 O 0.74359(9) 0.44776(9) 0.68345(9)
O33_8 O 0.74359(9) 0.55224(9) 0.68345(9)
O35_8 O 0.68345(9) 0.44776(9) 0.74359(9)
O36_8 O 0.68345(9) 0.55224(9) 0.74359(9)
O17_4 O 0.75641(9) 0.18345(9) 0.44776(9)
O18_4 O 0.81655(9) 0.24359(9) 0.44776(9)
C9_5 C 0.88627(15) 0.17852(12) 0.32148(12)
C10_5 C 0.82148(12) 0.11373(15) 0.32148(12)
C11_5 C 0.82148(12) 0.17852(12) 0.38627(15)
C20_5 C 0.93091(16) 0.20330(11) 0.29670(11)
C21_5 C 0.79670(11) 0.06909(16) 0.29670(11)
C22_5 C 0.79670(11) 0.20330(11) 0.43091(16)
C31_5 C 0.86464(12) 0.13536(12) 0.29999(17)
C32_5 C 0.79999(17) 0.13536(12) 0.36464(12)
C33_5 C 0.86464(12) 0.20001(17) 0.36464(12)
H7_5 H 0.8794 0.1206 0.2705
H8_5 H 0.8794 0.2295 0.3794
H9_5 H 0.7705 0.1206 0.3794
Cu13_4 Cu 0.783614(17) 0.716386(17) 0.5000
Cu14_4 Cu 0.716386(17) 0.783614(17) 0.5000
O17_5 O 0.81655(9) 0.75641(9) 0.44776(9)
O18_5 O 0.75641(9) 0.81655(9) 0.44776(9)
C9_6 C 0.82148(12) 0.88627(15) 0.32148(12)
C10_6 C 0.88627(15) 0.82148(12) 0.32148(12)
C11_6 C 0.82148(12) 0.82148(12) 0.38627(15)
C20_6 C 0.79670(11) 0.93091(16) 0.29670(11)
C21_6 C 0.93091(16) 0.79670(11) 0.29670(11)
C22_6 C 0.79670(11) 0.79670(11) 0.43091(16)
C31_6 C 0.86464(12) 0.86464(12) 0.29999(17)
C32_6 C 0.86464(12) 0.79999(17) 0.36464(12)
C33_6 C 0.79999(17) 0.86464(12) 0.36464(12)
H7_6 H 0.8794 0.8794 0.2705
H8_6 H 0.7705 0.8794 0.3794
H9_6 H 0.8794 0.7705 0.3794
O9_5 O 0.81655(9) 0.94776(9) 0.74359(9)
O10_5 O 0.75641(9) 0.94776(9) 0.68345(9)
O11_6 O 0.75641(9) 0.81655(9) 0.55224(9)
O12_6 O 0.81655(9) 0.75641(9) 0.55224(9)
C6_7 C 0.88627(15) 0.82148(12) 0.67852(12)
C7_7 C 0.82148(12) 0.88627(15) 0.67852(12)
C8_7 C 0.82148(12) 0.82148(12) 0.61373(15)
C17_7 C 0.93091(16) 0.79670(11) 0.70330(11)
C18_7 C 0.79670(11) 0.93091(16) 0.70330(11)
C19_7 C 0.79670(11) 0.79670(11) 0.56909(16)
C28_7 C 0.86464(12) 0.86464(12) 0.70001(17)
C29_7 C 0.79999(17) 0.86464(12) 0.63536(12)
C30_7 C 0.86464(12) 0.79999(17) 0.63536(12)
H4_7 H 0.8794 0.8794 0.7295
H5_7 H 0.8794 0.7705 0.6206
H6_7 H 0.7705 0.8794 0.6206
O32_9 O 0.55224(9) 0.31655(9) 0.74359(9)
O33_9 O 0.44776(9) 0.31655(9) 0.74359(9)
O35_9 O 0.55224(9) 0.25641(9) 0.68345(9)
O36_9 O 0.44776(9) 0.25641(9) 0.68345(9)
O32_10 O 0.68345(9) 0.74359(9) 0.44776(9)
O33_10 O 0.68345(9) 0.74359(9) 0.55224(9)
O35_10 O 0.74359(9) 0.68345(9) 0.44776(9)
O36_10 O 0.74359(9) 0.68345(9) 0.55224(9)
O32_11 O 0.68345(9) 0.25641(9) 0.55224(9)
O33_11 O 0.68345(9) 0.25641(9) 0.44776(9)
O35_11 O 0.74359(9) 0.31655(9) 0.55224(9)
O36_11 O 0.74359(9) 0.31655(9) 0.44776(9)
O32_12 O 0.44776(9) 0.68345(9) 0.74359(9)
O33_12 O 0.55224(9) 0.68345(9) 0.74359(9)
O35_12 O 0.44776(9) 0.74359(9) 0.68345(9)
O36_12 O 0.55224(9) 0.74359(9) 0.68345(9)
C9_7 C 0.32148(12) 0.67852(12) 0.61373(15)
C10_7 C 0.32148(12) 0.61373(15) 0.67852(12)
C11_7 C 0.38627(15) 0.67852(12) 0.67852(12)
C12_6 C 0.32148(12) 0.67852(12) 0.38627(15)
C13_6 C 0.32148(12) 0.61373(15) 0.32148(12)
C14_6 C 0.38627(15) 0.67852(12) 0.32148(12)
C20_7 C 0.29670(11) 0.70330(11) 0.56909(16)
C21_7 C 0.29670(11) 0.56909(16) 0.70330(11)
C22_7 C 0.43091(16) 0.70330(11) 0.70330(11)
C23_6 C 0.29670(11) 0.70330(11) 0.43091(16)
C24_6 C 0.29670(11) 0.56909(16) 0.29670(11)
C25_6 C 0.43091(16) 0.70330(11) 0.29670(11)
C31_7 C 0.29999(17) 0.63536(12) 0.63536(12)
C32_7 C 0.36464(12) 0.63536(12) 0.70001(17)
C33_7 C 0.36464(12) 0.70001(17) 0.63536(12)
C34_6 C 0.29999(17) 0.63536(12) 0.36464(12)
C35_6 C 0.36464(12) 0.63536(12) 0.29999(17)
C36_6 C 0.36464(12) 0.70001(17) 0.36464(12)
H7_7 H 0.2705 0.6206 0.6206
H8_7 H 0.3794 0.7295 0.6206
H9_7 H 0.3794 0.6206 0.7295
H10_6 H 0.2705 0.6206 0.3794
H11_6 H 0.3794 0.7295 0.3794
H12_6 H 0.3794 0.6206 0.2705
C1_7 C 0.67852(12) 0.67852(12) 0.61373(15)
C2_7 C 0.70330(11) 0.70330(11) 0.56909(16)
C3_7 C 0.70001(17) 0.63536(12) 0.63536(12)
H1_7 H 0.7295 0.6206 0.6206
C4_7 C 0.67852(12) 0.61373(15) 0.67852(12)
C5_7 C 0.61373(15) 0.67852(12) 0.67852(12)
C6_8 C 0.67852(12) 0.67852(12) 0.38627(15)
C7_8 C 0.67852(12) 0.61373(15) 0.32148(12)
C8_8 C 0.61373(15) 0.67852(12) 0.32148(12)
C15_7 C 0.70330(11) 0.56909(16) 0.70330(11)
C16_7 C 0.56909(16) 0.70330(11) 0.70330(11)
C17_8 C 0.70330(11) 0.70330(11) 0.43091(16)
C18_8 C 0.70330(11) 0.56909(16) 0.29670(11)
C19_8 C 0.56909(16) 0.70330(11) 0.29670(11)
C26_7 C 0.63536(12) 0.63536(12) 0.70001(17)
C27_7 C 0.63536(12) 0.70001(17) 0.63536(12)
C28_8 C 0.70001(17) 0.63536(12) 0.36464(12)
C29_8 C 0.63536(12) 0.63536(12) 0.29999(17)
C30_8 C 0.63536(12) 0.70001(17) 0.36464(12)
H2_7 H 0.6206 0.7295 0.6206
H3_7 H 0.6206 0.6206 0.7295
H4_8 H 0.7295 0.6206 0.3794
H5_8 H 0.6206 0.7295 0.3794
H6_8 H 0.6206 0.6206 0.2705
C9_8 C 0.67852(12) 0.32148(12) 0.61373(15)
C10_8 C 0.67852(12) 0.38627(15) 0.67852(12)
C11_8 C 0.61373(15) 0.32148(12) 0.67852(12)
C12_7 C 0.67852(12) 0.32148(12) 0.38627(15)
C13_7 C 0.67852(12) 0.38627(15) 0.32148(12)
C14_7 C 0.61373(15) 0.32148(12) 0.32148(12)
C20_8 C 0.70330(11) 0.29670(11) 0.56909(16)
C21_8 C 0.70330(11) 0.43091(16) 0.70330(11)
C22_8 C 0.56909(16) 0.29670(11) 0.70330(11)
C23_7 C 0.70330(11) 0.29670(11) 0.43091(16)
C24_7 C 0.70330(11) 0.43091(16) 0.29670(11)
C25_7 C 0.56909(16) 0.29670(11) 0.29670(11)
C31_8 C 0.70001(17) 0.36464(12) 0.63536(12)
C32_8 C 0.63536(12) 0.36464(12) 0.70001(17)
C33_8 C 0.63536(12) 0.29999(17) 0.63536(12)
C34_7 C 0.70001(17) 0.36464(12) 0.36464(12)
C35_7 C 0.63536(12) 0.36464(12) 0.29999(17)
C36_7 C 0.63536(12) 0.29999(17) 0.36464(12)
H7_8 H 0.7295 0.3794 0.6206
H8_8 H 0.6206 0.2705 0.6206
H9_8 H 0.6206 0.3794 0.7295
H10_7 H 0.7295 0.3794 0.3794
H11_7 H 0.6206 0.2705 0.3794
H12_7 H 0.6206 0.3794 0.2705
C1_8 C 0.32148(12) 0.32148(12) 0.61373(15)
C2_8 C 0.29670(11) 0.29670(11) 0.56909(16)
C3_8 C 0.29999(17) 0.36464(12) 0.63536(12)
H1_8 H 0.2705 0.3794 0.6206
C4_8 C 0.32148(12) 0.38627(15) 0.67852(12)
C5_8 C 0.38627(15) 0.32148(12) 0.67852(12)
C6_9 C 0.32148(12) 0.32148(12) 0.38627(15)
C7_9 C 0.32148(12) 0.38627(15) 0.32148(12)
C8_9 C 0.38627(15) 0.32148(12) 0.32148(12)
C15_8 C 0.29670(11) 0.43091(16) 0.70330(11)
C16_8 C 0.43091(16) 0.29670(11) 0.70330(11)
C17_9 C 0.29670(11) 0.29670(11) 0.43091(16)
C18_9 C 0.29670(11) 0.43091(16) 0.29670(11)
C19_9 C 0.43091(16) 0.29670(11) 0.29670(11)
C26_8 C 0.36464(12) 0.36464(12) 0.70001(17)
C27_8 C 0.36464(12) 0.29999(17) 0.63536(12)
C28_9 C 0.29999(17) 0.36464(12) 0.36464(12)
C29_9 C 0.36464(12) 0.36464(12) 0.29999(17)
C30_9 C 0.36464(12) 0.29999(17) 0.36464(12)
H2_8 H 0.3794 0.2705 0.6206
H3_8 H 0.3794 0.3794 0.7295
H4_9 H 0.2705 0.3794 0.3794
H5_9 H 0.3794 0.2705 0.3794
H6_9 H 0.3794 0.3794 0.2705
loop_
_geom_bond_atom_site_label_1
_geom_bond_atom_site_label_2
_geom_bond_site_symmetry_1
_geom_bond_site_symmetry_2
Cu1 O1 1_555 1_555
O1 C2 1_555 1_555
C1 C2 1_555 1_555
C2 O2 1_555 1_555
C3 C1 1_555 1_555
H1 C3 1_555 1_555
Cu2 Cu1 1_555 1_555
Cu3 Cu4 1_555 1_555
Cu4 O4 1_555 1_555
Cu5 Cu6 1_555 1_555
Cu6 O6 1_555 1_555
Cu11 Cu12 1_555 1_555
Cu12 O16 1_555 1_555
Cu13 Cu14 1_555 1_555
Cu14 O18 1_555 1_555
O2 Cu2 1_555 1_555
O3 Cu3 1_555 1_555
O4 C15 1_555 1_555
O5 Cu5 1_555 1_555
O6 C16 1_555 1_555
O13 Cu1 1_555 1_555
O14 Cu2 1_555 1_555
O15 Cu11 1_555 1_555
O16 C21 1_555 1_555
O17 Cu13 1_555 1_555
O18 C22 1_555 1_555
O26 Cu3 1_555 1_555
O29 Cu4 1_555 1_555
O31 Cu5 1_555 1_555
O32 Cu5 1_555 1_555
O33 Cu5 1_555 1_555
O34 Cu6 1_555 1_555
O35 Cu6 1_555 1_555
O36 Cu6 1_555 1_555
C4 C3 1_555 1_555
C5 C16 1_555 1_555
C9 C20 1_555 1_555
C10 C21 1_555 1_555
C11 C22 1_555 1_555
C15 O3 1_555 1_555
C16 O5 1_555 1_555
C20 O13 1_555 1_555
C21 O15 1_555 1_555
C22 O17 1_555 1_555
C26 C4 1_555 1_555
C27 C1 1_555 1_555
C31 C9 1_555 1_555
C32 C10 1_555 1_555
C33 C9 1_555 1_555
H2 C27 1_555 1_555
H3 C26 1_555 1_555
H7 C31 1_555 1_555
H8 C33 1_555 1_555
H9 C32 1_555 1_555
O14 C20 1_555 1_555
C4 C15 1_555 1_555
C5 C26 1_555 1_555
C5 C27 1_555 1_555
C10 C31 1_555 1_555
C11 C32 1_555 1_555
C11 C33 1_555 1_555
Cu2_2 Cu1_2 1_555 1_555
Cu7 Cu8 1_555 1_555
Cu8 O10 1_555 1_555
Cu9 Cu10 1_555 1_555
Cu10 O12 1_555 1_555
Cu15 Cu16 1_555 1_555
Cu16 O22 1_555 1_555
Cu17 Cu18 1_555 1_555
Cu18 O24 1_555 1_555
O7 Cu1_2 1_555 1_555
O8 Cu2_2 1_555 1_555
O9 Cu7 1_555 1_555
O10 C18 1_555 1_555
O11 Cu9 1_555 1_555
O12 C19 1_555 1_555
O19 Cu1_2 1_555 1_555
O20 Cu2_2 1_555 1_555
O21 Cu15 1_555 1_555
O22 C24 1_555 1_555
O23 Cu17 1_555 1_555
O24 C25 1_555 1_555
C6 C17 1_555 1_555
C7 C18 1_555 1_555
C8 C19 1_555 1_555
C12 C23 1_555 1_555
C13 C24 1_555 1_555
C14 C25 1_555 1_555
C17 O7 1_555 1_555
C18 O9 1_555 1_555
C19 O11 1_555 1_555
C23 O19 1_555 1_555
C24 O21 1_555 1_555
C25 O23 1_555 1_555
C28 C6 1_555 1_555
C29 C7 1_555 1_555
C30 C6 1_555 1_555
C34 C12 1_555 1_555
C35 C13 1_555 1_555
C36 C12 1_555 1_555
H4 C28 1_555 1_555
H5 C30 1_555 1_555
H6 C29 1_555 1_555
H10 C34 1_555 1_555
H11 C36 1_555 1_555
H12 C35 1_555 1_555
O8 C17 1_555 1_555
O20 C23 1_555 1_555
C7 C28 1_555 1_555
C8 C29 1_555 1_555
C8 C30 1_555 1_555
C13 C34 1_555 1_555
C14 C35 1_555 1_555
C14 C36 1_555 1_555
Cu11_2 Cu12_2 1_555 1_555
Cu15_2 Cu16_2 1_555 1_555
Cu3_2 Cu4_2 1_555 1_555
O25 Cu3_2 1_555 1_555
O27 Cu3_2 1_555 1_555
O28 Cu4_2 1_555 1_555
O30 Cu4_2 1_555 1_555
Cu7_2 Cu8_2 1_555 1_555
Cu1_3 O1_2 1_555 1_555
O1_2 C2_2 1_555 1_555
C1_2 C2_2 1_555 1_555
C2_2 O2_2 1_555 1_555
C3_2 C1_2 1_555 1_555
H1_2 C3_2 1_555 1_555
Cu2_3 Cu1_3 1_555 1_555
Cu3_3 Cu4_3 1_555 1_555
Cu4_3 O4_2 1_555 1_555
Cu14 O6_2 1_555 1_555
Cu13_2 Cu14_2 1_555 1_555
Cu14_2 O18_2 1_555 1_555
O2_2 Cu2_3 1_555 1_555
O3_2 Cu3_3 1_555 1_555
O4_2 C15_2 1_555 1_555
O5_2 Cu13 1_555 1_555
O6_2 C16_2 1_555 1_555
O13_2 Cu1_3 1_555 1_555
O14_2 Cu2_3 1_555 1_555
O28 C21_2 1_555 1_555
O17_2 Cu13_2 1_555 1_555
O18_2 C22_2 1_555 1_555
O26_2 Cu3_3 1_555 1_555
O29_2 Cu4_3 1_555 1_555
O32_2 Cu13 1_555 1_555
O33_2 Cu13 1_555 1_555
O35_2 Cu14 1_555 1_555
O36_2 Cu14 1_555 1_555
C4_2 C3_2 1_555 1_555
C5_2 C16_2 1_555 1_555
C9_2 C20_2 1_555 1_555
C10_2 C21_2 1_555 1_555
C11_2 C22_2 1_555 1_555
C15_2 O3_2 1_555 1_555
C16_2 O5_2 1_555 1_555
C20_2 O13_2 1_555 1_555
C21_2 O25 1_555 1_555
C22_2 O17_2 1_555 1_555
C26_2 C4_2 1_555 1_555
C27_2 C1_2 1_555 1_555
C31_2 C9_2 1_555 1_555
C32_2 C10_2 1_555 1_555
C33_2 C9_2 1_555 1_555
H2_2 C27_2 1_555 1_555
H3_2 C26_2 1_555 1_555
H7_2 C31_2 1_555 1_555
H8_2 C33_2 1_555 1_555
H9_2 C32_2 1_555 1_555
O14_2 C20_2 1_555 1_555
C4_2 C15_2 1_555 1_555
C5_2 C26_2 1_555 1_555
C5_2 C27_2 1_555 1_555
C10_2 C31_2 1_555 1_555
C11_2 C32_2 1_555 1_555
C11_2 C33_2 1_555 1_555
Cu2_4 Cu1_4 1_555 1_555
Cu7_3 Cu8_3 1_555 1_555
Cu8_3 O10_2 1_555 1_555
Cu18 O12_2 1_555 1_555
Cu8_2 O22_2 1_555 1_555
Cu17_2 Cu18_2 1_555 1_555
Cu18_2 O24_2 1_555 1_555
O7_2 Cu1_4 1_555 1_555
O8_2 Cu2_4 1_555 1_555
O9_2 Cu7_3 1_555 1_555
O10_2 C18_2 1_555 1_555
O11_2 Cu17 1_555 1_555
O12_2 C19_2 1_555 1_555
O19_2 Cu1_4 1_555 1_555
O20_2 Cu2_4 1_555 1_555
O21_2 Cu7_2 1_555 1_555
O22_2 C24_2 1_555 1_555
O23_2 Cu17_2 1_555 1_555
O24_2 C25_2 1_555 1_555
C6_2 C17_2 1_555 1_555
C7_2 C18_2 1_555 1_555
C8_2 C19_2 1_555 1_555
C12_2 C23_2 1_555 1_555
C13_2 C24_2 1_555 1_555
C14_2 C25_2 1_555 1_555
C17_2 O7_2 1_555 1_555
C18_2 O9_2 1_555 1_555
C19_2 O11_2 1_555 1_555
C23_2 O19_2 1_555 1_555
C24_2 O21_2 1_555 1_555
C25_2 O23_2 1_555 1_555
C28_2 C6_2 1_555 1_555
C29_2 C7_2 1_555 1_555
C30_2 C6_2 1_555 1_555
C34_2 C12_2 1_555 1_555
C35_2 C13_2 1_555 1_555
C36_2 C12_2 1_555 1_555
H4_2 C28_2 1_555 1_555
H5_2 C30_2 1_555 1_555
H6_2 C29_2 1_555 1_555
H10_2 C34_2 1_555 1_555
H11_2 C36_2 1_555 1_555
H12_2 C35_2 1_555 1_555
O8_2 C17_2 1_555 1_555
O20_2 C23_2 1_555 1_555
C7_2 C28_2 1_555 1_555
C8_2 C29_2 1_555 1_555
C8_2 C30_2 1_555 1_555
C13_2 C34_2 1_555 1_555
C14_2 C35_2 1_555 1_555
C14_2 C36_2 1_555 1_555
Cu3_4 Cu4_4 1_555 1_555
O25_2 Cu3_4 1_555 1_555
O27_2 Cu3_4 1_555 1_555
O28_2 Cu4_4 1_555 1_555
O30_2 Cu4_4 1_555 1_555
Cu7_4 Cu8_4 1_555 1_555
Cu3_5 Cu4_5 1_555 1_555
O25_3 Cu3_5 1_555 1_555
O27_3 Cu3_5 1_555 1_555
O28_3 Cu4_5 1_555 1_555
O30_3 Cu4_5 1_555 1_555
Cu7_5 Cu8_5 1_555 1_555
Cu1_5 O1_3 1_555 1_555
O1_3 C2_3 1_555 1_555
C1_3 C2_3 1_555 1_555
C2_3 O2_3 1_555 1_555
C3_3 C1_3 1_555 1_555
H1_3 C3_3 1_555 1_555
Cu2_5 Cu1_5 1_555 1_555
Cu3_6 Cu4_6 1_555 1_555
Cu4_6 O4_3 1_555 1_555
Cu14_2 O6_3 1_555 1_555
Cu13_3 Cu14_3 1_555 1_555
Cu14_3 O18_3 1_555 1_555
O2_3 Cu2_5 1_555 1_555
O3_3 Cu3_6 1_555 1_555
O4_3 C15_3 1_555 1_555
O5_3 Cu13_2 1_555 1_555
O6_3 C16_3 1_555 1_555
O13_3 Cu1_5 1_555 1_555
O14_3 Cu2_5 1_555 1_555
O28_2 C21_3 1_555 1_555
O17_3 Cu13_3 1_555 1_555
O18_3 C22_3 1_555 1_555
O26_3 Cu3_6 1_555 1_555
O29_3 Cu4_6 1_555 1_555
O32_3 Cu13_2 1_555 1_555
O33_3 Cu13_2 1_555 1_555
O35_3 Cu14_2 1_555 1_555
O36_3 Cu14_2 1_555 1_555
C4_3 C3_3 1_555 1_555
C5_3 C16_3 1_555 1_555
C9_3 C20_3 1_555 1_555
C10_3 C21_3 1_555 1_555
C11_3 C22_3 1_555 1_555
C15_3 O3_3 1_555 1_555
C16_3 O5_3 1_555 1_555
C20_3 O13_3 1_555 1_555
C21_3 O25_2 1_555 1_555
C22_3 O17_3 1_555 1_555
C26_3 C4_3 1_555 1_555
C27_3 C1_3 1_555 1_555
C31_3 C9_3 1_555 1_555
C32_3 C10_3 1_555 1_555
C33_3 C9_3 1_555 1_555
H2_3 C27_3 1_555 1_555
H3_3 C26_3 1_555 1_555
H7_3 C31_3 1_555 1_555
H8_3 C33_3 1_555 1_555
H9_3 C32_3 1_555 1_555
O14_3 C20_3 1_555 1_555
C4_3 C15_3 1_555 1_555
C5_3 C26_3 1_555 1_555
C5_3 C27_3 1_555 1_555
C10_3 C31_3 1_555 1_555
C11_3 C32_3 1_555 1_555
C11_3 C33_3 1_555 1_555
Cu2_6 Cu1_6 1_555 1_555
Cu7_6 Cu8_6 1_555 1_555
Cu8_6 O10_3 1_555 1_555
Cu18_2 O12_3 1_555 1_555
Cu8_4 O22_3 1_555 1_555
Cu17_3 Cu18_3 1_555 1_555
Cu18_3 O24_3 1_555 1_555
O7_3 Cu1_6 1_555 1_555
O8_3 Cu2_6 1_555 1_555
O9_3 Cu7_6 1_555 1_555
O10_3 C18_3 1_555 1_555
O11_3 Cu17_2 1_555 1_555
O12_3 C19_3 1_555 1_555
O19_3 Cu1_6 1_555 1_555
O20_3 Cu2_6 1_555 1_555
O21_3 Cu7_4 1_555 1_555
O22_3 C24_3 1_555 1_555
O23_3 Cu17_3 1_555 1_555
O24_3 C25_3 1_555 1_555
C6_3 C17_3 1_555 1_555
C7_3 C18_3 1_555 1_555
C8_3 C19_3 1_555 1_555
C12_3 C23_3 1_555 1_555
C13_3 C24_3 1_555 1_555
C14_3 C25_3 1_555 1_555
C17_3 O7_3 1_555 1_555
C18_3 O9_3 1_555 1_555
C19_3 O11_3 1_555 1_555
C23_3 O19_3 1_555 1_555
C24_3 O21_3 1_555 1_555
C25_3 O23_3 1_555 1_555
C28_3 C6_3 1_555 1_555
C29_3 C7_3 1_555 1_555
C30_3 C6_3 1_555 1_555
C34_3 C12_3 1_555 1_555
C35_3 C13_3 1_555 1_555
C36_3 C12_3 1_555 1_555
H4_3 C28_3 1_555 1_555
H5_3 C30_3 1_555 1_555
H6_3 C29_3 1_555 1_555
H10_3 C34_3 1_555 1_555
H11_3 C36_3 1_555 1_555
H12_3 C35_3 1_555 1_555
O8_3 C17_3 1_555 1_555
O20_3 C23_3 1_555 1_555
C7_3 C28_3 1_555 1_555
C8_3 C29_3 1_555 1_555
C8_3 C30_3 1_555 1_555
C13_3 C34_3 1_555 1_555
C14_3 C35_3 1_555 1_555
C14_3 C36_3 1_555 1_555
O27_4 Cu11 1_555 1_555
O30_4 Cu12 1_555 1_555
Cu1_7 O1_4 1_555 1_555
O1_4 C2_4 1_555 1_555
C1_4 C2_4 1_555 1_555
C2_4 O2_4 1_555 1_555
C3_4 C1_4 1_555 1_555
H1_4 C3_4 1_555 1_555
Cu2_7 Cu1_7 1_555 1_555
Cu12_2 O4_4 1_555 1_555
Cu14_3 O6_4 1_555 1_555
O2_4 Cu2_7 1_555 1_555
O3_4 Cu11_2 1_555 1_555
O4_4 C15_4 1_555 1_555
O5_4 Cu13_3 1_555 1_555
O6_4 C16_4 1_555 1_555
O13_4 Cu1_7 1_555 1_555
O14_4 Cu2_7 1_555 1_555
O28_3 C21_4 1_555 1_555
O34 C22_4 1_555 1_555
O26_4 Cu11_2 1_555 1_555
O29_4 Cu12_2 1_555 1_555
O32_4 Cu13_3 1_555 1_555
O33_4 Cu13_3 1_555 1_555
O35_4 Cu14_3 1_555 1_555
O36_4 Cu14_3 1_555 1_555
C4_4 C3_4 1_555 1_555
C5_4 C16_4 1_555 1_555
C9_4 C20_4 1_555 1_555
C10_4 C21_4 1_555 1_555
C11_4 C22_4 1_555 1_555
C15_4 O3_4 1_555 1_555
C16_4 O5_4 1_555 1_555
C20_4 O13_4 1_555 1_555
C21_4 O25_3 1_555 1_555
C22_4 O31 1_555 1_555
C26_4 C4_4 1_555 1_555
C27_4 C1_4 1_555 1_555
C31_4 C9_4 1_555 1_555
C32_4 C10_4 1_555 1_555
C33_4 C9_4 1_555 1_555
H2_4 C27_4 1_555 1_555
H3_4 C26_4 1_555 1_555
H7_4 C31_4 1_555 1_555
H8_4 C33_4 1_555 1_555
H9_4 C32_4 1_555 1_555
O14_4 C20_4 1_555 1_555
C4_4 C15_4 1_555 1_555
C5_4 C26_4 1_555 1_555
C5_4 C27_4 1_555 1_555
C10_4 C31_4 1_555 1_555
C11_4 C32_4 1_555 1_555
C11_4 C33_4 1_555 1_555
Cu2_8 Cu1_8 1_555 1_555
Cu16_2 O10_4 1_555 1_555
Cu18_3 O12_4 1_555 1_555
Cu8_5 O22_4 1_555 1_555
Cu10 O24_4 1_555 1_555
O7_4 Cu1_8 1_555 1_555
O8_4 Cu2_8 1_555 1_555
O9_4 Cu15_2 1_555 1_555
O10_4 C18_4 1_555 1_555
O11_4 Cu17_3 1_555 1_555
O12_4 C19_4 1_555 1_555
O19_4 Cu1_8 1_555 1_555
O20_4 Cu2_8 1_555 1_555
O21_4 Cu7_5 1_555 1_555
O22_4 C24_4 1_555 1_555
O23_4 Cu9 1_555 1_555
O24_4 C25_4 1_555 1_555
C6_4 C17_4 1_555 1_555
C7_4 C18_4 1_555 1_555
C8_4 C19_4 1_555 1_555
C12_4 C23_4 1_555 1_555
C13_4 C24_4 1_555 1_555
C14_4 C25_4 1_555 1_555
C17_4 O7_4 1_555 1_555
C18_4 O9_4 1_555 1_555
C19_4 O11_4 1_555 1_555
C23_4 O19_4 1_555 1_555
C24_4 O21_4 1_555 1_555
C25_4 O23_4 1_555 1_555
C28_4 C6_4 1_555 1_555
C29_4 C7_4 1_555 1_555
C30_4 C6_4 1_555 1_555
C34_4 C12_4 1_555 1_555
C35_4 C13_4 1_555 1_555
C36_4 C12_4 1_555 1_555
H4_4 C28_4 1_555 1_555
H5_4 C30_4 1_555 1_555
H6_4 C29_4 1_555 1_555
H10_4 C34_4 1_555 1_555
H11_4 C36_4 1_555 1_555
H12_4 C35_4 1_555 1_555
O8_4 C17_4 1_555 1_555
O20_4 C23_4 1_555 1_555
C7_4 C28_4 1_555 1_555
C8_4 C29_4 1_555 1_555
C8_4 C30_4 1_555 1_555
C13_4 C34_4 1_555 1_555
C14_4 C35_4 1_555 1_555
C14_4 C36_4 1_555 1_555
Cu9_2 Cu10_2 1_555 1_555
Cu10_2 O12_5 1_555 1_555
O29 C18_5 1_555 1_555
O11_5 Cu9_2 1_555 1_555
O12_5 C19_5 1_555 1_555
C6_5 C17_5 1_555 1_555
C7_5 C18_5 1_555 1_555
C8_5 C19_5 1_555 1_555
C17_5 O30_4 1_555 1_555
C18_5 O26 1_555 1_555
C19_5 O11_5 1_555 1_555
C28_5 C6_5 1_555 1_555
C29_5 C7_5 1_555 1_555
C30_5 C6_5 1_555 1_555
H4_5 C28_5 1_555 1_555
H5_5 C30_5 1_555 1_555
H6_5 C29_5 1_555 1_555
O27_4 C17_5 1_555 1_555
C7_5 C28_5 1_555 1_555
C8_5 C29_5 1_555 1_555
C8_5 C30_5 1_555 1_555
O29_4 C2_5 1_555 1_555
C1_5 C2_5 1_555 1_555
C2_5 O26_4 1_555 1_555
C3_5 C1_5 1_555 1_555
H1_5 C3_5 1_555 1_555
Cu5_2 Cu6_2 1_555 1_555
Cu6_2 O6_5 1_555 1_555
O30_3 C15_5 1_555 1_555
O5_5 Cu5_2 1_555 1_555
O6_5 C16_5 1_555 1_555
O31_2 Cu5_2 1_555 1_555
O32_5 Cu5_2 1_555 1_555
O33_5 Cu5_2 1_555 1_555
O34_2 Cu6_2 1_555 1_555
O35_5 Cu6_2 1_555 1_555
O36_5 Cu6_2 1_555 1_555
C4_5 C3_5 1_555 1_555
C5_5 C16_5 1_555 1_555
C15_5 O27_3 1_555 1_555
C16_5 O5_5 1_555 1_555
C26_5 C4_5 1_555 1_555
C27_5 C1_5 1_555 1_555
H2_5 C27_5 1_555 1_555
H3_5 C26_5 1_555 1_555
C4_5 C15_5 1_555 1_555
C5_5 C26_5 1_555 1_555
C5_5 C27_5 1_555 1_555
O26_5 Cu7_5 1_555 1_555
O29_5 Cu8_5 1_555 1_555
O32_6 Cu9 1_555 1_555
O33_6 Cu9 1_555 1_555
O35_6 Cu10 1_555 1_555
O36_6 Cu10 1_555 1_555
O27_5 Cu7_6 1_555 1_555
O30_5 Cu8_6 1_555 1_555
Cu16 O1_5 1_555 1_555
O1_5 C2_6 1_555 1_555
C1_6 C2_6 1_555 1_555
C2_6 O2_5 1_555 1_555
C3_6 C1_6 1_555 1_555
H1_6 C3_6 1_555 1_555
Cu8 O4_5 1_555 1_555
Cu10_2 O6_6 1_555 1_555
O2_5 Cu15 1_555 1_555
O3_5 Cu7 1_555 1_555
O4_5 C15_6 1_555 1_555
O5_6 Cu9_2 1_555 1_555
O6_6 C16_6 1_555 1_555
O32_7 Cu9_2 1_555 1_555
O33_7 Cu9_2 1_555 1_555
O35_7 Cu10_2 1_555 1_555
O36_7 Cu10_2 1_555 1_555
C4_6 C3_6 1_555 1_555
C5_6 C16_6 1_555 1_555
C15_6 O3_5 1_555 1_555
C16_6 O5_6 1_555 1_555
C26_6 C4_6 1_555 1_555
C27_6 C1_6 1_555 1_555
H2_6 C27_6 1_555 1_555
H3_6 C26_6 1_555 1_555
C4_6 C15_6 1_555 1_555
C5_6 C26_6 1_555 1_555
C5_6 C27_6 1_555 1_555
O7_5 Cu16_2 1_555 1_555
O8_5 Cu15_2 1_555 1_555
O29_5 C18_6 1_555 1_555
O34_2 C19_6 1_555 1_555
C6_6 C17_6 1_555 1_555
C7_6 C18_6 1_555 1_555
C8_6 C19_6 1_555 1_555
C17_6 O7_5 1_555 1_555
C18_6 O26_5 1_555 1_555
C19_6 O31_2 1_555 1_555
C28_6 C6_6 1_555 1_555
C29_6 C7_6 1_555 1_555
C30_6 C6_6 1_555 1_555
H4_6 C28_6 1_555 1_555
H5_6 C30_6 1_555 1_555
H6_6 C29_6 1_555 1_555
O8_5 C17_6 1_555 1_555
C7_6 C28_6 1_555 1_555
C8_6 C29_6 1_555 1_555
C8_6 C30_6 1_555 1_555
O25_4 Cu7_2 1_555 1_555
O28_4 Cu8_2 1_555 1_555
Cu8_3 O22_5 1_555 1_555
Cu17_4 Cu18_4 1_555 1_555
Cu18_4 O24_5 1_555 1_555
O21_5 Cu7_3 1_555 1_555
O22_5 C24_5 1_555 1_555
O23_5 Cu17_4 1_555 1_555
O24_5 C25_5 1_555 1_555
C12_5 C23_5 1_555 1_555
C13_5 C24_5 1_555 1_555
C14_5 C25_5 1_555 1_555
C23_5 O28_4 1_555 1_555
C24_5 O21_5 1_555 1_555
C25_5 O23_5 1_555 1_555
C34_5 C12_5 1_555 1_555
C35_5 C13_5 1_555 1_555
C36_5 C12_5 1_555 1_555
H10_5 C34_5 1_555 1_555
H11_5 C36_5 1_555 1_555
H12_5 C35_5 1_555 1_555
O25_4 C23_5 1_555 1_555
C13_5 C34_5 1_555 1_555
C14_5 C35_5 1_555 1_555
C14_5 C36_5 1_555 1_555
O32_8 Cu17_2 1_555 1_555
O33_8 Cu17_2 1_555 1_555
O35_8 Cu18_2 1_555 1_555
O36_8 Cu18_2 1_555 1_555
Cu18_4 O18_4 1_555 1_555
O29_2 C21_5 1_555 1_555
O17_4 Cu17_4 1_555 1_555
O18_4 C22_5 1_555 1_555
C9_5 C20_5 1_555 1_555
C10_5 C21_5 1_555 1_555
C11_5 C22_5 1_555 1_555
C20_5 O30 1_555 1_555
C21_5 O26_2 1_555 1_555
C22_5 O17_4 1_555 1_555
C31_5 C9_5 1_555 1_555
C32_5 C10_5 1_555 1_555
C33_5 C9_5 1_555 1_555
H7_5 C31_5 1_555 1_555
H8_5 C33_5 1_555 1_555
H9_5 C32_5 1_555 1_555
O27 C20_5 1_555 1_555
C10_5 C31_5 1_555 1_555
C11_5 C32_5 1_555 1_555
C11_5 C33_5 1_555 1_555
Cu13_4 Cu14_4 1_555 1_555
Cu14_4 O18_5 1_555 1_555
O29_3 C21_6 1_555 1_555
O17_5 Cu13_4 1_555 1_555
O18_5 C22_6 1_555 1_555
C9_6 C20_6 1_555 1_555
C10_6 C21_6 1_555 1_555
C11_6 C22_6 1_555 1_555
C20_6 O30_2 1_555 1_555
C21_6 O26_3 1_555 1_555
C22_6 O17_5 1_555 1_555
C31_6 C9_6 1_555 1_555
C32_6 C10_6 1_555 1_555
C33_6 C9_6 1_555 1_555
H7_6 C31_6 1_555 1_555
H8_6 C33_6 1_555 1_555
H9_6 C32_6 1_555 1_555
O27_2 C20_6 1_555 1_555
C10_6 C31_6 1_555 1_555
C11_6 C32_6 1_555 1_555
C11_6 C33_6 1_555 1_555
Cu8_4 O10_5 1_555 1_555
Cu13_4 O12_6 1_555 1_555
O9_5 Cu7_4 1_555 1_555
O10_5 C18_7 1_555 1_555
O11_6 Cu14_4 1_555 1_555
O12_6 C19_7 1_555 1_555
C6_7 C17_7 1_555 1_555
C7_7 C18_7 1_555 1_555
C8_7 C19_7 1_555 1_555
C17_7 O30_5 1_555 1_555
C18_7 O9_5 1_555 1_555
C19_7 O11_6 1_555 1_555
C28_7 C6_7 1_555 1_555
C29_7 C7_7 1_555 1_555
C30_7 C6_7 1_555 1_555
H4_7 C28_7 1_555 1_555
H5_7 C30_7 1_555 1_555
H6_7 C29_7 1_555 1_555
O27_5 C17_7 1_555 1_555
C7_7 C28_7 1_555 1_555
C8_7 C29_7 1_555 1_555
C8_7 C30_7 1_555 1_555
O32_9 Cu18 1_555 1_555
O33_9 Cu18 1_555 1_555
O35_9 Cu17 1_555 1_555
O36_9 Cu17 1_555 1_555
O32_10 Cu14_4 1_555 1_555
O33_10 Cu14_4 1_555 1_555
O35_10 Cu13_4 1_555 1_555
O36_10 Cu13_4 1_555 1_555
O32_11 Cu17_4 1_555 1_555
O33_11 Cu17_4 1_555 1_555
O35_11 Cu18_4 1_555 1_555
O36_11 Cu18_4 1_555 1_555
O32_12 Cu18_3 1_555 1_555
O33_12 Cu18_3 1_555 1_555
O35_12 Cu17_3 1_555 1_555
O36_12 Cu17_3 1_555 1_555
O35_6 C21_7 1_555 1_555
O35_12 C22_7 1_555 1_555
O36 C24_6 1_555 1_555
O32_4 C25_6 1_555 1_555
C9_7 C20_7 1_555 1_555
C10_7 C21_7 1_555 1_555
C11_7 C22_7 1_555 1_555
C12_6 C23_6 1_555 1_555
C13_6 C24_6 1_555 1_555
C14_6 C25_6 1_555 1_555
C20_7 O36_5 1_555 1_555
C21_7 O32_6 1_555 1_555
C22_7 O32_12 1_555 1_555
C23_6 O35_5 1_555 1_555
C24_6 O33 1_555 1_555
C25_6 O35_4 1_555 1_555
C31_7 C9_7 1_555 1_555
C32_7 C10_7 1_555 1_555
C33_7 C9_7 1_555 1_555
C34_6 C12_6 1_555 1_555
C35_6 C13_6 1_555 1_555
C36_6 C12_6 1_555 1_555
H7_7 C31_7 1_555 1_555
H8_7 C33_7 1_555 1_555
H9_7 C32_7 1_555 1_555
H10_6 C34_6 1_555 1_555
H11_6 C36_6 1_555 1_555
H12_6 C35_6 1_555 1_555
O33_5 C20_7 1_555 1_555
O32_5 C23_6 1_555 1_555
C10_7 C31_7 1_555 1_555
C11_7 C32_7 1_555 1_555
C11_7 C33_7 1_555 1_555
C13_6 C34_6 1_555 1_555
C14_6 C35_6 1_555 1_555
C14_6 C36_6 1_555 1_555
O33_10 C2_7 1_555 1_555
C1_7 C2_7 1_555 1_555
C2_7 O36_10 1_555 1_555
C3_7 C1_7 1_555 1_555
H1_7 C3_7 1_555 1_555
O36_8 C15_7 1_555 1_555
O36_12 C16_7 1_555 1_555
O35_3 C18_8 1_555 1_555
O33_4 C19_8 1_555 1_555
C4_7 C3_7 1_555 1_555
C5_7 C16_7 1_555 1_555
C6_8 C17_8 1_555 1_555
C7_8 C18_8 1_555 1_555
C8_8 C19_8 1_555 1_555
C15_7 O33_8 1_555 1_555
C16_7 O33_12 1_555 1_555
C17_8 O32_10 1_555 1_555
C18_8 O32_3 1_555 1_555
C19_8 O36_4 1_555 1_555
C26_7 C4_7 1_555 1_555
C27_7 C1_7 1_555 1_555
C28_8 C6_8 1_555 1_555
C29_8 C7_8 1_555 1_555
C30_8 C6_8 1_555 1_555
H2_7 C27_7 1_555 1_555
H3_7 C26_7 1_555 1_555
H4_8 C28_8 1_555 1_555
H5_8 C30_8 1_555 1_555
H6_8 C29_8 1_555 1_555
O35_10 C17_8 1_555 1_555
C4_7 C15_7 1_555 1_555
C5_7 C26_7 1_555 1_555
C5_7 C27_7 1_555 1_555
C7_8 C28_8 1_555 1_555
C8_8 C29_8 1_555 1_555
C8_8 C30_8 1_555 1_555
O35_8 C21_8 1_555 1_555
O35_9 C22_8 1_555 1_555
O36_3 C24_7 1_555 1_555
O32_2 C25_7 1_555 1_555
C9_8 C20_8 1_555 1_555
C10_8 C21_8 1_555 1_555
C11_8 C22_8 1_555 1_555
C12_7 C23_7 1_555 1_555
C13_7 C24_7 1_555 1_555
C14_7 C25_7 1_555 1_555
C20_8 O32_11 1_555 1_555
C21_8 O32_8 1_555 1_555
C22_8 O32_9 1_555 1_555
C23_7 O33_11 1_555 1_555
C24_7 O33_3 1_555 1_555
C25_7 O35_2 1_555 1_555
C31_8 C9_8 1_555 1_555
C32_8 C10_8 1_555 1_555
C33_8 C9_8 1_555 1_555
C34_7 C12_7 1_555 1_555
C35_7 C13_7 1_555 1_555
C36_7 C12_7 1_555 1_555
H7_8 C31_8 1_555 1_555
H8_8 C33_8 1_555 1_555
H9_8 C32_8 1_555 1_555
H10_7 C34_7 1_555 1_555
H11_7 C36_7 1_555 1_555
H12_7 C35_7 1_555 1_555
O35_11 C20_8 1_555 1_555
O36_11 C23_7 1_555 1_555
C10_8 C31_8 1_555 1_555
C11_8 C32_8 1_555 1_555
C11_8 C33_8 1_555 1_555
C13_7 C34_7 1_555 1_555
C14_7 C35_7 1_555 1_555
C14_7 C36_7 1_555 1_555
O35_7 C2_8 1_555 1_555
C1_8 C2_8 1_555 1_555
C2_8 O32_7 1_555 1_555
C3_8 C1_8 1_555 1_555
H1_8 C3_8 1_555 1_555
O36_6 C15_8 1_555 1_555
O36_9 C16_8 1_555 1_555
O35 C18_9 1_555 1_555
O33_2 C19_9 1_555 1_555
C4_8 C3_8 1_555 1_555
C5_8 C16_8 1_555 1_555
C6_9 C17_9 1_555 1_555
C7_9 C18_9 1_555 1_555
C8_9 C19_9 1_555 1_555
C15_8 O33_6 1_555 1_555
C16_8 O33_9 1_555 1_555
C17_9 O36_7 1_555 1_555
C18_9 O32 1_555 1_555
C19_9 O36_2 1_555 1_555
C26_8 C4_8 1_555 1_555
C27_8 C1_8 1_555 1_555
C28_9 C6_9 1_555 1_555
C29_9 C7_9 1_555 1_555
C30_9 C6_9 1_555 1_555
H2_8 C27_8 1_555 1_555
H3_8 C26_8 1_555 1_555
H4_9 C28_9 1_555 1_555
H5_9 C30_9 1_555 1_555
H6_9 C29_9 1_555 1_555
O33_7 C17_9 1_555 1_555
C4_8 C15_8 1_555 1_555
C5_8 C26_8 1_555 1_555
C5_8 C27_8 1_555 1_555
C7_9 C28_9 1_555 1_555
C8_9 C29_9 1_555 1_555
C8_9 C30_9 1_555 1_555

#END
