
###############################################################################
#
# This file contains modified crystal structure data generated from the
# MOF subset of the Cambridge Structural Database (CSD) v543 
# hosted by the Cambridge Crystallographic Data Centre (CCDC).
#
# This work is licensed under the Creative Commons
# Attribution-NonCommercial-ShareAlike 4.0 International License.
# To view a copy of this license, visit
# http://creativecommons.org/licenses/by-nc-sa/4.0/
# or send a letter to
# Creative Commons, PO Box 1866, Mountain View, CA 94042, USA.
#
# CIF created using the CSD Python API on 29 September 2022
# The structure has been converted into the P1 space group
# The structure has a 3D framework
# The original CSD entry DOTSOV42 is in the cubic crystal system
# The framework has been calculated to contain at least 10.0% void space
# The void calculation uses a probe of radius 1.32A, grid spacing 0.4
#
###############################################################################

data_DOTSOV42
_chemical_formula_moiety         '(C288 H96 Cu48 O192)n'
_symmetry_cell_setting           triclinic
_symmetry_space_group_name_H-M   'P 1'
_symmetry_Int_Tables_number      1
_space_group_name_Hall           'P 1'
loop_
_symmetry_equiv_pos_site_id
_symmetry_equiv_pos_as_xyz
1 x,y,z
_cell_length_a                   26.28791(29)
_cell_length_b                   26.28791(29)
_cell_length_c                   26.28791(29)
_cell_angle_alpha                90
_cell_angle_beta                 90
_cell_angle_gamma                90
_cell_volume                     18166.4
loop_
_atom_site_label
_atom_site_type_symbol
_atom_site_fract_x
_atom_site_fract_y
_atom_site_fract_z
_atom_site_U_iso_or_equiv
_atom_site_thermal_displace_type
Cu1 Cu 0.28322 0.28322 0.00000 0.0033 Uiso
Cu2 Cu 0.21678 0.21678 0.00000 0.0033 Uiso
Cu7 Cu 0.50000 0.28322 0.21678 0.0033 Uiso
Cu8 Cu 0.50000 0.21678 0.28322 0.0033 Uiso
Cu9 Cu 0.28322 0.00000 0.28322 0.0033 Uiso
Cu10 Cu 0.21678 0.00000 0.21678 0.0033 Uiso
Cu15 Cu 0.28322 0.50000 0.21678 0.0033 Uiso
Cu16 Cu 0.21678 0.50000 0.28322 0.0033 Uiso
Cu17 Cu -0.00000 0.28322 0.28322 0.0033 Uiso
Cu18 Cu 0.00000 0.21678 0.21678 0.0033 Uiso
O7 O 0.31698 0.24421 0.05251 0.0111 Uiso
O8 O 0.25579 0.18302 0.05251 0.0111 Uiso
O9 O 0.44749 0.24421 0.18302 0.0111 Uiso
O10 O 0.44749 0.18302 0.24421 0.0111 Uiso
O11 O 0.31698 0.05251 0.24421 0.0111 Uiso
O12 O 0.25579 0.05251 0.18302 0.0111 Uiso
O19 O 0.24421 0.31698 0.05251 0.0111 Uiso
O20 O 0.18302 0.25579 0.05251 0.0111 Uiso
O21 O 0.24421 0.44749 0.18302 0.0111 Uiso
O22 O 0.18302 0.44749 0.24421 0.0111 Uiso
O23 O 0.05251 0.31698 0.24421 0.0111 Uiso
O24 O 0.05251 0.25579 0.18302 0.0111 Uiso
C6 C 0.32187 0.17813 0.11334 0.0073 Uiso
C7 C 0.38666 0.17813 0.17813 0.0073 Uiso
C8 C 0.32187 0.11334 0.17813 0.0073 Uiso
C12 C 0.17813 0.32187 0.11334 0.0073 Uiso
C13 C 0.17813 0.38666 0.17813 0.0073 Uiso
C14 C 0.11334 0.32187 0.17813 0.0073 Uiso
C17 C 0.29644 0.20356 0.06939 0.0099 Uiso
C18 C 0.43061 0.20356 0.20356 0.0099 Uiso
C19 C 0.29644 0.06939 0.20356 0.0099 Uiso
C23 C 0.20356 0.29644 0.06939 0.0099 Uiso
C24 C 0.20356 0.43061 0.20356 0.0099 Uiso
C25 C 0.06939 0.29644 0.20356 0.0099 Uiso
C28 C 0.36497 0.20129 0.13503 0.0112 Uiso
C29 C 0.36497 0.13503 0.20129 0.0112 Uiso
C30 C 0.29871 0.13503 0.13503 0.0112 Uiso
C34 C 0.20129 0.36497 0.13503 0.0112 Uiso
C35 C 0.13503 0.36497 0.20129 0.0112 Uiso
C36 C 0.13503 0.29871 0.13503 0.0112 Uiso
H4 H 0.38019 0.23407 0.11982 0.0283 Uiso
H5 H 0.26593 0.11981 0.11982 0.0283 Uiso
H6 H 0.38019 0.11982 0.23407 0.0283 Uiso
H10 H 0.23407 0.38019 0.11982 0.0283 Uiso
H11 H 0.11981 0.26593 0.11982 0.0283 Uiso
H12 H 0.11982 0.38019 0.23407 0.0283 Uiso
Cu1_2 Cu 0.28322 0.28322 1.00000 0.0033 Uiso
O1 O 0.31698 0.24421 0.94749 0.0111 Uiso
C1 C 0.32187 0.17813 0.88666 0.0073 Uiso
C2 C 0.29644 0.20356 0.93061 0.0099 Uiso
C3 C 0.36497 0.20129 0.86497 0.0112 Uiso
H1 H 0.38019 0.23407 0.88018 0.0283 Uiso
Cu2_2 Cu 0.21678 0.21678 1.00000 0.0033 Uiso
Cu3 Cu 0.50000 0.28322 0.78322 0.0033 Uiso
Cu4 Cu 0.50000 0.21678 0.71678 0.0033 Uiso
Cu5 Cu 0.28322 0.00000 0.71678 0.0033 Uiso
Cu6 Cu 0.21678 0.00000 0.78322 0.0033 Uiso
Cu11 Cu 0.28322 0.50000 0.78322 0.0033 Uiso
Cu12 Cu 0.21678 0.50000 0.71678 0.0033 Uiso
Cu13 Cu -0.00000 0.28322 0.71678 0.0033 Uiso
Cu14 Cu -0.00000 0.21678 0.78322 0.0033 Uiso
O2 O 0.25579 0.18302 0.94749 0.0111 Uiso
O3 O 0.44749 0.24421 0.81698 0.0111 Uiso
O4 O 0.44749 0.18302 0.75579 0.0111 Uiso
O5 O 0.31698 0.05251 0.75579 0.0111 Uiso
O6 O 0.25579 0.05251 0.81698 0.0111 Uiso
O13 O 0.24421 0.31698 0.94749 0.0111 Uiso
O14 O 0.18302 0.25579 0.94749 0.0111 Uiso
O15 O 0.24421 0.44749 0.81698 0.0111 Uiso
O16 O 0.18302 0.44749 0.75579 0.0111 Uiso
O17 O 0.05251 0.31698 0.75579 0.0111 Uiso
O18 O 0.05251 0.25579 0.81698 0.0111 Uiso
O25 O 0.55251 0.24421 0.81698 0.0111 Uiso
O26 O 0.44749 0.31698 0.74421 0.0111 Uiso
O27 O 0.55251 0.31698 0.74421 0.0111 Uiso
O28 O 0.55251 0.18302 0.75579 0.0111 Uiso
O29 O 0.44749 0.25579 0.68302 0.0111 Uiso
O30 O 0.55251 0.25579 0.68302 0.0111 Uiso
O32 O 0.24421 0.05251 0.68302 0.0111 Uiso
O35 O 0.18302 0.05251 0.74421 0.0111 Uiso
C4 C 0.38666 0.17813 0.82187 0.0073 Uiso
C5 C 0.32187 0.11334 0.82187 0.0073 Uiso
C9 C 0.17813 0.32187 0.88666 0.0073 Uiso
C10 C 0.17813 0.38666 0.82187 0.0073 Uiso
C11 C 0.11334 0.32187 0.82187 0.0073 Uiso
C15 C 0.43061 0.20356 0.79644 0.0099 Uiso
C16 C 0.29644 0.06939 0.79644 0.0099 Uiso
C20 C 0.20356 0.29644 0.93061 0.0099 Uiso
C21 C 0.20356 0.43061 0.79644 0.0099 Uiso
C22 C 0.06939 0.29644 0.79644 0.0099 Uiso
C26 C 0.36497 0.13503 0.79871 0.0112 Uiso
C27 C 0.29871 0.13503 0.86497 0.0112 Uiso
C31 C 0.20129 0.36497 0.86497 0.0112 Uiso
C32 C 0.13503 0.36497 0.79871 0.0112 Uiso
C33 C 0.13503 0.29871 0.86497 0.0112 Uiso
H2 H 0.26593 0.11981 0.88018 0.0283 Uiso
H3 H 0.38019 0.11982 0.76593 0.0283 Uiso
H7 H 0.23407 0.38019 0.88018 0.0283 Uiso
H8 H 0.11981 0.26593 0.88018 0.0283 Uiso
H9 H 0.11982 0.38019 0.76593 0.0283 Uiso
Cu9_2 Cu 0.28322 1.00000 0.28322 0.0033 Uiso
Cu10_2 Cu 0.21678 1.00000 0.21678 0.0033 Uiso
Cu5_2 Cu 0.28322 1.00000 0.71678 0.0033 Uiso
Cu6_2 Cu 0.21678 1.00000 0.78322 0.0033 Uiso
O31 O 0.31698 0.94749 0.75579 0.0111 Uiso
O33 O 0.24421 0.94749 0.68302 0.0111 Uiso
O34 O 0.25579 0.94749 0.81698 0.0111 Uiso
O36 O 0.18302 0.94749 0.74421 0.0111 Uiso
Cu17_2 Cu 1.00000 0.28322 0.28322 0.0033 Uiso
Cu18_2 Cu 1.00000 0.21678 0.21678 0.0033 Uiso
Cu13_2 Cu 1.00000 0.28322 0.71678 0.0033 Uiso
Cu14_2 Cu 1.00000 0.21678 0.78322 0.0033 Uiso
Cu15_2 Cu 0.21678 0.28322 0.50000 0.0033 Uiso
Cu16_2 Cu 0.28322 0.21678 0.50000 0.0033 Uiso
O19_2 O 0.05251 0.24421 0.31698 0.0111 Uiso
O20_2 O 0.05251 0.18302 0.25579 0.0111 Uiso
O21_2 O 0.18302 0.24421 0.44749 0.0111 Uiso
O22_2 O 0.24421 0.18302 0.44749 0.0111 Uiso
O23_2 O 0.24421 0.05251 0.31698 0.0111 Uiso
O24_2 O 0.18302 0.05251 0.25579 0.0111 Uiso
C12_2 C 0.11334 0.17813 0.32187 0.0073 Uiso
C13_2 C 0.17813 0.17813 0.38666 0.0073 Uiso
C14_2 C 0.17813 0.11334 0.32187 0.0073 Uiso
C23_2 C 0.06939 0.20356 0.29644 0.0099 Uiso
C24_2 C 0.20356 0.20356 0.43061 0.0099 Uiso
C25_2 C 0.20356 0.06939 0.29644 0.0099 Uiso
C34_2 C 0.13503 0.20129 0.36497 0.0112 Uiso
C35_2 C 0.20129 0.13503 0.36497 0.0112 Uiso
C36_2 C 0.13503 0.13503 0.29871 0.0112 Uiso
H10_2 H 0.11982 0.23407 0.38019 0.0283 Uiso
H11_2 H 0.11982 0.11981 0.26593 0.0283 Uiso
H12_2 H 0.23407 0.11982 0.38019 0.0283 Uiso
O1_2 O 0.94749 0.31698 0.24421 0.0111 Uiso
C1_2 C 0.88666 0.32187 0.17813 0.0073 Uiso
C2_2 C 0.93061 0.29644 0.20356 0.0099 Uiso
C3_2 C 0.86497 0.36497 0.20129 0.0112 Uiso
H1_2 H 0.88018 0.38019 0.23407 0.0283 Uiso
Cu3_2 Cu 0.78322 0.50000 0.28322 0.0033 Uiso
Cu4_2 Cu 0.71678 0.50000 0.21678 0.0033 Uiso
Cu5_3 Cu 0.71678 0.28322 0.00000 0.0033 Uiso
Cu6_3 Cu 0.78322 0.21678 -0.00000 0.0033 Uiso
Cu11_2 Cu 0.78322 0.28322 0.50000 0.0033 Uiso
Cu12_2 Cu 0.71678 0.21678 0.50000 0.0033 Uiso
Cu13_3 Cu 0.71678 0.00000 0.28322 0.0033 Uiso
Cu14_3 Cu 0.78322 0.00000 0.21678 0.0033 Uiso
O2_2 O 0.94749 0.25579 0.18302 0.0111 Uiso
O3_2 O 0.81698 0.44749 0.24421 0.0111 Uiso
O4_2 O 0.75579 0.44749 0.18302 0.0111 Uiso
O5_2 O 0.75579 0.31698 0.05251 0.0111 Uiso
O6_2 O 0.81698 0.25579 0.05251 0.0111 Uiso
O13_2 O 0.94749 0.24421 0.31698 0.0111 Uiso
O14_2 O 0.94749 0.18302 0.25579 0.0111 Uiso
O15_2 O 0.81698 0.24421 0.44749 0.0111 Uiso
O16_2 O 0.75579 0.18302 0.44749 0.0111 Uiso
O17_2 O 0.75579 0.05251 0.31698 0.0111 Uiso
O18_2 O 0.81698 0.05251 0.25579 0.0111 Uiso
O25_2 O 0.81698 0.55251 0.24421 0.0111 Uiso
O26_2 O 0.74421 0.44749 0.31698 0.0111 Uiso
O27_2 O 0.74421 0.55251 0.31698 0.0111 Uiso
O28_2 O 0.75579 0.55251 0.18302 0.0111 Uiso
O29_2 O 0.68302 0.44749 0.25579 0.0111 Uiso
O30_2 O 0.68302 0.55251 0.25579 0.0111 Uiso
O32_2 O 0.68302 0.24421 0.05251 0.0111 Uiso
O35_2 O 0.74421 0.18302 0.05251 0.0111 Uiso
C4_2 C 0.82187 0.38666 0.17813 0.0073 Uiso
C5_2 C 0.82187 0.32187 0.11334 0.0073 Uiso
C9_2 C 0.88666 0.17813 0.32187 0.0073 Uiso
C10_2 C 0.82187 0.17813 0.38666 0.0073 Uiso
C11_2 C 0.82187 0.11334 0.32187 0.0073 Uiso
C15_2 C 0.79644 0.43061 0.20356 0.0099 Uiso
C16_2 C 0.79644 0.29644 0.06939 0.0099 Uiso
C20_2 C 0.93061 0.20356 0.29644 0.0099 Uiso
C21_2 C 0.79644 0.20356 0.43061 0.0099 Uiso
C22_2 C 0.79644 0.06939 0.29644 0.0099 Uiso
C26_2 C 0.79871 0.36497 0.13503 0.0112 Uiso
C27_2 C 0.86497 0.29871 0.13503 0.0112 Uiso
C31_2 C 0.86497 0.20129 0.36497 0.0112 Uiso
C32_2 C 0.79871 0.13503 0.36497 0.0112 Uiso
C33_2 C 0.86497 0.13503 0.29871 0.0112 Uiso
H2_2 H 0.88018 0.26593 0.11981 0.0283 Uiso
H3_2 H 0.76593 0.38019 0.11982 0.0283 Uiso
H7_2 H 0.88018 0.23407 0.38019 0.0283 Uiso
H8_2 H 0.88018 0.11981 0.26593 0.0283 Uiso
H9_2 H 0.76593 0.11982 0.38019 0.0283 Uiso
Cu5_4 Cu 0.71678 0.28322 1.00000 0.0033 Uiso
Cu6_4 Cu 0.78322 0.21678 1.00000 0.0033 Uiso
O31_2 O 0.75579 0.31698 0.94749 0.0111 Uiso
O33_2 O 0.68302 0.24421 0.94749 0.0111 Uiso
O34_2 O 0.81698 0.25579 0.94749 0.0111 Uiso
O36_2 O 0.74421 0.18302 0.94749 0.0111 Uiso
Cu13_4 Cu 0.71678 1.00000 0.28322 0.0033 Uiso
Cu14_4 Cu 0.78322 1.00000 0.21678 0.0033 Uiso
O1_3 O 0.24421 0.94749 0.31698 0.0111 Uiso
C1_3 C 0.17813 0.88666 0.32187 0.0073 Uiso
C2_3 C 0.20356 0.93061 0.29644 0.0099 Uiso
C3_3 C 0.20129 0.86497 0.36497 0.0112 Uiso
H1_3 H 0.23407 0.88018 0.38019 0.0283 Uiso
Cu3_3 Cu 0.28322 0.78322 0.50000 0.0033 Uiso
Cu4_3 Cu 0.21678 0.71678 0.50000 0.0033 Uiso
Cu5_5 Cu -0.00000 0.71678 0.28322 0.0033 Uiso
Cu6_5 Cu -0.00000 0.78322 0.21678 0.0033 Uiso
Cu11_3 Cu 0.50000 0.78322 0.28322 0.0033 Uiso
Cu12_3 Cu 0.50000 0.71678 0.21678 0.0033 Uiso
Cu13_5 Cu 0.28322 0.71678 0.00000 0.0033 Uiso
Cu14_5 Cu 0.21678 0.78322 0.00000 0.0033 Uiso
O2_3 O 0.18302 0.94749 0.25579 0.0111 Uiso
O3_3 O 0.24421 0.81698 0.44749 0.0111 Uiso
O4_3 O 0.18302 0.75579 0.44749 0.0111 Uiso
O5_3 O 0.05251 0.75579 0.31698 0.0111 Uiso
O6_3 O 0.05251 0.81698 0.25579 0.0111 Uiso
O13_3 O 0.31698 0.94749 0.24421 0.0111 Uiso
O14_3 O 0.25579 0.94749 0.18302 0.0111 Uiso
O15_3 O 0.44749 0.81698 0.24421 0.0111 Uiso
O16_3 O 0.44749 0.75579 0.18302 0.0111 Uiso
O17_3 O 0.31698 0.75579 0.05251 0.0111 Uiso
O18_3 O 0.25579 0.81698 0.05251 0.0111 Uiso
O25_3 O 0.24421 0.81698 0.55251 0.0111 Uiso
O26_3 O 0.31698 0.74421 0.44749 0.0111 Uiso
O27_3 O 0.31698 0.74421 0.55251 0.0111 Uiso
O28_3 O 0.18302 0.75579 0.55251 0.0111 Uiso
O29_3 O 0.25579 0.68302 0.44749 0.0111 Uiso
O30_3 O 0.25579 0.68302 0.55251 0.0111 Uiso
O32_3 O 0.05251 0.68302 0.24421 0.0111 Uiso
O35_3 O 0.05251 0.74421 0.18302 0.0111 Uiso
C4_3 C 0.17813 0.82187 0.38666 0.0073 Uiso
C5_3 C 0.11334 0.82187 0.32187 0.0073 Uiso
C9_3 C 0.32187 0.88666 0.17813 0.0073 Uiso
C10_3 C 0.38666 0.82187 0.17813 0.0073 Uiso
C11_3 C 0.32187 0.82187 0.11334 0.0073 Uiso
C15_3 C 0.20356 0.79644 0.43061 0.0099 Uiso
C16_3 C 0.06939 0.79644 0.29644 0.0099 Uiso
C20_3 C 0.29644 0.93061 0.20356 0.0099 Uiso
C21_3 C 0.43061 0.79644 0.20356 0.0099 Uiso
C22_3 C 0.29644 0.79644 0.06939 0.0099 Uiso
C26_3 C 0.13503 0.79871 0.36497 0.0112 Uiso
C27_3 C 0.13503 0.86497 0.29871 0.0112 Uiso
C31_3 C 0.36497 0.86497 0.20129 0.0112 Uiso
C32_3 C 0.36497 0.79871 0.13503 0.0112 Uiso
C33_3 C 0.29871 0.86497 0.13503 0.0112 Uiso
H2_3 H 0.11981 0.88018 0.26593 0.0283 Uiso
H3_3 H 0.11982 0.76593 0.38019 0.0283 Uiso
H7_3 H 0.38019 0.88018 0.23407 0.0283 Uiso
H8_3 H 0.26593 0.88018 0.11981 0.0283 Uiso
H9_3 H 0.38019 0.76593 0.11982 0.0283 Uiso
Cu13_6 Cu 0.28322 0.71678 1.00000 0.0033 Uiso
Cu14_6 Cu 0.21678 0.78322 1.00000 0.0033 Uiso
Cu5_6 Cu 1.00000 0.71678 0.28322 0.0033 Uiso
Cu6_6 Cu 1.00000 0.78322 0.21678 0.0033 Uiso
O31_3 O 0.94749 0.75579 0.31698 0.0111 Uiso
O33_3 O 0.94749 0.68302 0.24421 0.0111 Uiso
O34_3 O 0.94749 0.81698 0.25579 0.0111 Uiso
O36_3 O 0.94749 0.74421 0.18302 0.0111 Uiso
O13_4 O 0.05251 0.24421 0.68302 0.0111 Uiso
O14_4 O 0.05251 0.18302 0.74421 0.0111 Uiso
O15_4 O 0.18302 0.24421 0.55251 0.0111 Uiso
O16_4 O 0.24421 0.18302 0.55251 0.0111 Uiso
O25_4 O 0.18302 0.55251 0.75579 0.0111 Uiso
O26_4 O 0.25579 0.44749 0.68302 0.0111 Uiso
O27_4 O 0.25579 0.55251 0.68302 0.0111 Uiso
O28_4 O 0.24421 0.55251 0.81698 0.0111 Uiso
O29_4 O 0.31698 0.44749 0.74421 0.0111 Uiso
O30_4 O 0.31698 0.55251 0.74421 0.0111 Uiso
C9_4 C 0.11334 0.17813 0.67813 0.0073 Uiso
C10_4 C 0.17813 0.17813 0.61334 0.0073 Uiso
C11_4 C 0.17813 0.11334 0.67813 0.0073 Uiso
C20_4 C 0.06939 0.20356 0.70356 0.0099 Uiso
C21_4 C 0.20356 0.20356 0.56939 0.0099 Uiso
C22_4 C 0.20356 0.06939 0.70356 0.0099 Uiso
C31_4 C 0.13503 0.20129 0.63503 0.0112 Uiso
C32_4 C 0.20129 0.13503 0.63503 0.0112 Uiso
C33_4 C 0.13503 0.13503 0.70129 0.0112 Uiso
H7_4 H 0.11982 0.23407 0.61981 0.0283 Uiso
H8_4 H 0.11982 0.11981 0.73407 0.0283 Uiso
H9_4 H 0.23407 0.11982 0.61981 0.0283 Uiso
Cu7_2 Cu 0.78322 0.50000 0.71678 0.0033 Uiso
Cu8_2 Cu 0.71678 0.50000 0.78322 0.0033 Uiso
Cu17_3 Cu 0.71678 0.00000 0.71678 0.0033 Uiso
Cu18_3 Cu 0.78322 0.00000 0.78322 0.0033 Uiso
O7_2 O 0.94749 0.31698 0.75579 0.0111 Uiso
O8_2 O 0.94749 0.25579 0.81698 0.0111 Uiso
O9_2 O 0.81698 0.44749 0.75579 0.0111 Uiso
O10_2 O 0.75579 0.44749 0.81698 0.0111 Uiso
O19_3 O 0.94749 0.24421 0.68302 0.0111 Uiso
O20_3 O 0.94749 0.18302 0.74421 0.0111 Uiso
O21_3 O 0.81698 0.24421 0.55251 0.0111 Uiso
O22_3 O 0.75579 0.18302 0.55251 0.0111 Uiso
O23_3 O 0.75579 0.05251 0.68302 0.0111 Uiso
O24_3 O 0.81698 0.05251 0.74421 0.0111 Uiso
C6_2 C 0.88666 0.32187 0.82187 0.0073 Uiso
C7_2 C 0.82187 0.38666 0.82187 0.0073 Uiso
C8_2 C 0.82187 0.32187 0.88666 0.0073 Uiso
C12_3 C 0.88666 0.17813 0.67813 0.0073 Uiso
C13_3 C 0.82187 0.17813 0.61334 0.0073 Uiso
C14_3 C 0.82187 0.11334 0.67813 0.0073 Uiso
C17_2 C 0.93061 0.29644 0.79644 0.0099 Uiso
C18_2 C 0.79644 0.43061 0.79644 0.0099 Uiso
C19_2 C 0.79644 0.29644 0.93061 0.0099 Uiso
C23_3 C 0.93061 0.20356 0.70356 0.0099 Uiso
C24_3 C 0.79644 0.20356 0.56939 0.0099 Uiso
C25_3 C 0.79644 0.06939 0.70356 0.0099 Uiso
C28_2 C 0.86497 0.36497 0.79871 0.0112 Uiso
C29_2 C 0.79871 0.36497 0.86497 0.0112 Uiso
C30_2 C 0.86497 0.29871 0.86497 0.0112 Uiso
C34_3 C 0.86497 0.20129 0.63503 0.0112 Uiso
C35_3 C 0.79871 0.13503 0.63503 0.0112 Uiso
C36_3 C 0.86497 0.13503 0.70129 0.0112 Uiso
H4_2 H 0.88018 0.38019 0.76593 0.0283 Uiso
H5_2 H 0.88018 0.26593 0.88019 0.0283 Uiso
H6_2 H 0.76593 0.38019 0.88018 0.0283 Uiso
H10_3 H 0.88018 0.23407 0.61981 0.0283 Uiso
H11_3 H 0.88018 0.11981 0.73407 0.0283 Uiso
H12_3 H 0.76593 0.11982 0.61981 0.0283 Uiso
Cu17_4 Cu 0.71678 1.00000 0.71678 0.0033 Uiso
Cu18_4 Cu 0.78322 1.00000 0.78322 0.0033 Uiso
O13_5 O 0.68302 0.05251 0.24421 0.0111 Uiso
O14_5 O 0.74421 0.05251 0.18302 0.0111 Uiso
O15_5 O 0.55251 0.18302 0.24421 0.0111 Uiso
O16_5 O 0.55251 0.24421 0.18302 0.0111 Uiso
O26_5 O 0.68302 0.25579 0.44749 0.0111 Uiso
O27_5 O 0.68302 0.25579 0.55251 0.0111 Uiso
O29_5 O 0.74421 0.31698 0.44749 0.0111 Uiso
O30_5 O 0.74421 0.31698 0.55251 0.0111 Uiso
C9_5 C 0.67813 0.11334 0.17813 0.0073 Uiso
C10_5 C 0.61334 0.17813 0.17813 0.0073 Uiso
C11_5 C 0.67813 0.17813 0.11334 0.0073 Uiso
C20_5 C 0.70356 0.06939 0.20356 0.0099 Uiso
C21_5 C 0.56939 0.20356 0.20356 0.0099 Uiso
C22_5 C 0.70356 0.20356 0.06939 0.0099 Uiso
C31_5 C 0.63503 0.13503 0.20129 0.0112 Uiso
C32_5 C 0.63503 0.20129 0.13503 0.0112 Uiso
C33_5 C 0.70129 0.13503 0.13503 0.0112 Uiso
H7_5 H 0.61981 0.11982 0.23407 0.0283 Uiso
H8_5 H 0.73407 0.11982 0.11981 0.0283 Uiso
H9_5 H 0.61981 0.23407 0.11982 0.0283 Uiso
Cu7_3 Cu 0.71678 0.78322 0.50000 0.0033 Uiso
Cu8_3 Cu 0.78322 0.71678 0.50000 0.0033 Uiso
Cu17_5 Cu 0.71678 0.71678 0.00000 0.0033 Uiso
Cu18_5 Cu 0.78322 0.78322 0.00000 0.0033 Uiso
O7_3 O 0.75579 0.94749 0.31698 0.0111 Uiso
O8_3 O 0.81698 0.94749 0.25579 0.0111 Uiso
O9_3 O 0.75579 0.81698 0.44749 0.0111 Uiso
O10_3 O 0.81698 0.75579 0.44749 0.0111 Uiso
O19_4 O 0.68302 0.94749 0.24421 0.0111 Uiso
O20_4 O 0.74421 0.94749 0.18302 0.0111 Uiso
O21_4 O 0.55251 0.81698 0.24421 0.0111 Uiso
O22_4 O 0.55251 0.75579 0.18302 0.0111 Uiso
O23_4 O 0.68302 0.75579 0.05251 0.0111 Uiso
O24_4 O 0.74421 0.81698 0.05251 0.0111 Uiso
C6_3 C 0.82187 0.88666 0.32187 0.0073 Uiso
C7_3 C 0.82187 0.82187 0.38666 0.0073 Uiso
C8_3 C 0.88666 0.82187 0.32187 0.0073 Uiso
C12_4 C 0.67813 0.88666 0.17813 0.0073 Uiso
C13_4 C 0.61334 0.82187 0.17813 0.0073 Uiso
C14_4 C 0.67813 0.82187 0.11334 0.0073 Uiso
C17_3 C 0.79644 0.93061 0.29644 0.0099 Uiso
C18_3 C 0.79644 0.79644 0.43061 0.0099 Uiso
C19_3 C 0.93061 0.79644 0.29644 0.0099 Uiso
C23_4 C 0.70356 0.93061 0.20356 0.0099 Uiso
C24_4 C 0.56939 0.79644 0.20356 0.0099 Uiso
C25_4 C 0.70356 0.79644 0.06939 0.0099 Uiso
C28_3 C 0.79871 0.86497 0.36497 0.0112 Uiso
C29_3 C 0.86497 0.79871 0.36497 0.0112 Uiso
C30_3 C 0.86497 0.86497 0.29871 0.0112 Uiso
C34_4 C 0.63503 0.86497 0.20129 0.0112 Uiso
C35_4 C 0.63503 0.79871 0.13503 0.0112 Uiso
C36_4 C 0.70129 0.86497 0.13503 0.0112 Uiso
H4_3 H 0.76593 0.88018 0.38019 0.0283 Uiso
H5_3 H 0.88019 0.88018 0.26593 0.0283 Uiso
H6_3 H 0.88018 0.76593 0.38019 0.0283 Uiso
H10_4 H 0.61981 0.88018 0.23407 0.0283 Uiso
H11_4 H 0.73407 0.88018 0.11981 0.0283 Uiso
H12_4 H 0.61981 0.76593 0.11982 0.0283 Uiso
Cu17_6 Cu 0.71678 0.71678 1.00000 0.0033 Uiso
Cu18_6 Cu 0.78322 0.78322 1.00000 0.0033 Uiso
O26_6 O 0.31698 0.25579 0.55251 0.0111 Uiso
O27_6 O 0.31698 0.25579 0.44749 0.0111 Uiso
O29_6 O 0.25579 0.31698 0.55251 0.0111 Uiso
O30_6 O 0.25579 0.31698 0.44749 0.0111 Uiso
Cu9_3 Cu 0.00000 0.71678 0.71678 0.0033 Uiso
Cu10_3 Cu 0.00000 0.78322 0.78322 0.0033 Uiso
Cu15_3 Cu 0.50000 0.78322 0.71678 0.0033 Uiso
Cu16_3 Cu 0.50000 0.71678 0.78322 0.0033 Uiso
O11_2 O 0.05251 0.75579 0.68302 0.0111 Uiso
O12_2 O 0.05251 0.81698 0.74421 0.0111 Uiso
O21_5 O 0.44749 0.81698 0.75579 0.0111 Uiso
O22_5 O 0.44749 0.75579 0.81698 0.0111 Uiso
O23_5 O 0.31698 0.75579 0.94749 0.0111 Uiso
O24_5 O 0.25579 0.81698 0.94749 0.0111 Uiso
C6_4 C 0.17813 0.88666 0.67813 0.0073 Uiso
C7_4 C 0.17813 0.82187 0.61334 0.0073 Uiso
C8_4 C 0.11334 0.82187 0.67813 0.0073 Uiso
C12_5 C 0.32187 0.88666 0.82187 0.0073 Uiso
C13_5 C 0.38666 0.82187 0.82187 0.0073 Uiso
C14_5 C 0.32187 0.82187 0.88666 0.0073 Uiso
C17_4 C 0.20356 0.93061 0.70356 0.0099 Uiso
C18_4 C 0.20356 0.79644 0.56939 0.0099 Uiso
C19_4 C 0.06939 0.79644 0.70356 0.0099 Uiso
C23_5 C 0.29644 0.93061 0.79644 0.0099 Uiso
C24_5 C 0.43061 0.79644 0.79644 0.0099 Uiso
C25_5 C 0.29644 0.79644 0.93061 0.0099 Uiso
C28_4 C 0.20129 0.86497 0.63503 0.0112 Uiso
C29_4 C 0.13503 0.79871 0.63503 0.0112 Uiso
C30_4 C 0.13503 0.86497 0.70129 0.0112 Uiso
C34_5 C 0.36497 0.86497 0.79871 0.0112 Uiso
C35_5 C 0.36497 0.79871 0.86497 0.0112 Uiso
C36_5 C 0.29871 0.86497 0.86497 0.0112 Uiso
H4_4 H 0.23407 0.88018 0.61981 0.0283 Uiso
H5_4 H 0.11981 0.88018 0.73407 0.0283 Uiso
H6_4 H 0.11982 0.76593 0.61981 0.0283 Uiso
H10_5 H 0.38019 0.88018 0.76593 0.0283 Uiso
H11_5 H 0.26593 0.88018 0.88019 0.0283 Uiso
H12_5 H 0.38019 0.76593 0.88018 0.0283 Uiso
Cu9_4 Cu 1.00000 0.71678 0.71678 0.0033 Uiso
Cu10_4 Cu 1.00000 0.78322 0.78322 0.0033 Uiso
O26_7 O 0.55251 0.31698 0.25579 0.0111 Uiso
O27_7 O 0.44749 0.31698 0.25579 0.0111 Uiso
O29_7 O 0.55251 0.25579 0.31698 0.0111 Uiso
O30_7 O 0.44749 0.25579 0.31698 0.0111 Uiso
O11_3 O 0.68302 0.05251 0.75579 0.0111 Uiso
O12_3 O 0.74421 0.05251 0.81698 0.0111 Uiso
C6_5 C 0.67813 0.17813 0.88666 0.0073 Uiso
C7_5 C 0.61334 0.17813 0.82187 0.0073 Uiso
C8_5 C 0.67813 0.11334 0.82187 0.0073 Uiso
C17_5 C 0.70356 0.20356 0.93061 0.0099 Uiso
C18_5 C 0.56939 0.20356 0.79644 0.0099 Uiso
C19_5 C 0.70356 0.06939 0.79644 0.0099 Uiso
C28_5 C 0.63503 0.20129 0.86497 0.0112 Uiso
C29_5 C 0.63503 0.13503 0.79871 0.0112 Uiso
C30_5 C 0.70129 0.13503 0.86497 0.0112 Uiso
H4_5 H 0.61981 0.23407 0.88018 0.0283 Uiso
H5_5 H 0.73407 0.11981 0.88018 0.0283 Uiso
H6_5 H 0.61981 0.11982 0.76593 0.0283 Uiso
C1_4 C 0.11334 0.67813 0.17813 0.0073 Uiso
C2_4 C 0.06939 0.70356 0.20356 0.0099 Uiso
C3_4 C 0.13503 0.63503 0.20129 0.0112 Uiso
H1_4 H 0.11982 0.61981 0.23407 0.0283 Uiso
O3_4 O 0.18302 0.55251 0.24421 0.0111 Uiso
O4_4 O 0.24421 0.55251 0.18302 0.0111 Uiso
O5_4 O 0.24421 0.68302 0.05251 0.0111 Uiso
O6_4 O 0.18302 0.74421 0.05251 0.0111 Uiso
O26_8 O 0.25579 0.55251 0.31698 0.0111 Uiso
O27_8 O 0.25579 0.44749 0.31698 0.0111 Uiso
O29_8 O 0.31698 0.55251 0.25579 0.0111 Uiso
O30_8 O 0.31698 0.44749 0.25579 0.0111 Uiso
C4_4 C 0.17813 0.61334 0.17813 0.0073 Uiso
C5_4 C 0.17813 0.67813 0.11334 0.0073 Uiso
C15_4 C 0.20356 0.56939 0.20356 0.0099 Uiso
C16_4 C 0.20356 0.70356 0.06939 0.0099 Uiso
C26_4 C 0.20129 0.63503 0.13503 0.0112 Uiso
C27_4 C 0.13503 0.70129 0.13503 0.0112 Uiso
H2_4 H 0.11982 0.73407 0.11981 0.0283 Uiso
H3_4 H 0.23407 0.61981 0.11982 0.0283 Uiso
O31_4 O 0.24421 0.68302 0.94749 0.0111 Uiso
O34_4 O 0.18302 0.74421 0.94749 0.0111 Uiso
O11_4 O 0.75579 0.68302 0.05251 0.0111 Uiso
O12_4 O 0.81698 0.74421 0.05251 0.0111 Uiso
C6_6 C 0.88666 0.67813 0.17813 0.0073 Uiso
C7_6 C 0.82187 0.61334 0.17813 0.0073 Uiso
C8_6 C 0.82187 0.67813 0.11334 0.0073 Uiso
C17_6 C 0.93061 0.70356 0.20356 0.0099 Uiso
C18_6 C 0.79644 0.56939 0.20356 0.0099 Uiso
C19_6 C 0.79644 0.70356 0.06939 0.0099 Uiso
C28_6 C 0.86497 0.63503 0.20129 0.0112 Uiso
C29_6 C 0.79871 0.63503 0.13503 0.0112 Uiso
C30_6 C 0.86497 0.70129 0.13503 0.0112 Uiso
H4_6 H 0.88018 0.61981 0.23407 0.0283 Uiso
H5_6 H 0.88018 0.73407 0.11981 0.0283 Uiso
H6_6 H 0.76593 0.61981 0.11982 0.0283 Uiso
O26_9 O 0.44749 0.68302 0.25579 0.0111 Uiso
O27_9 O 0.55251 0.68302 0.25579 0.0111 Uiso
O29_9 O 0.44749 0.74421 0.31698 0.0111 Uiso
O30_9 O 0.55251 0.74421 0.31698 0.0111 Uiso
O23_6 O 0.05251 0.68302 0.75579 0.0111 Uiso
O24_6 O 0.05251 0.74421 0.81698 0.0111 Uiso
C12_6 C 0.17813 0.67813 0.88666 0.0073 Uiso
C13_6 C 0.17813 0.61334 0.82187 0.0073 Uiso
C14_6 C 0.11334 0.67813 0.82187 0.0073 Uiso
C23_6 C 0.20356 0.70356 0.93061 0.0099 Uiso
C24_6 C 0.20356 0.56939 0.79644 0.0099 Uiso
C25_6 C 0.06939 0.70356 0.79644 0.0099 Uiso
C34_6 C 0.20129 0.63503 0.86497 0.0112 Uiso
C35_6 C 0.13503 0.63503 0.79871 0.0112 Uiso
C36_6 C 0.13503 0.70129 0.86497 0.0112 Uiso
H10_6 H 0.23407 0.61981 0.88018 0.0283 Uiso
H11_6 H 0.11981 0.73407 0.88018 0.0283 Uiso
H12_6 H 0.11982 0.61981 0.76593 0.0283 Uiso
O1_4 O 0.68302 0.75579 0.94749 0.0111 Uiso
C1_5 C 0.67813 0.82187 0.88666 0.0073 Uiso
C2_5 C 0.70356 0.79644 0.93061 0.0099 Uiso
C3_5 C 0.63503 0.79871 0.86497 0.0112 Uiso
H1_5 H 0.61981 0.76593 0.88018 0.0283 Uiso
O2_4 O 0.74421 0.81698 0.94749 0.0111 Uiso
O3_5 O 0.55251 0.75579 0.81698 0.0111 Uiso
O4_5 O 0.55251 0.81698 0.75579 0.0111 Uiso
O5_5 O 0.68302 0.94749 0.75579 0.0111 Uiso
O6_5 O 0.74421 0.94749 0.81698 0.0111 Uiso
O13_6 O 0.75579 0.68302 0.94749 0.0111 Uiso
O14_6 O 0.81698 0.74421 0.94749 0.0111 Uiso
O15_6 O 0.75579 0.55251 0.81698 0.0111 Uiso
O16_6 O 0.81698 0.55251 0.75579 0.0111 Uiso
O17_4 O 0.94749 0.68302 0.75579 0.0111 Uiso
O18_4 O 0.94749 0.74421 0.81698 0.0111 Uiso
O26_10 O 0.55251 0.68302 0.74421 0.0111 Uiso
O27_10 O 0.44749 0.68302 0.74421 0.0111 Uiso
O29_10 O 0.55251 0.74421 0.68302 0.0111 Uiso
O30_10 O 0.44749 0.74421 0.68302 0.0111 Uiso
O32_4 O 0.75579 0.94749 0.68302 0.0111 Uiso
O35_4 O 0.81698 0.94749 0.74421 0.0111 Uiso
C4_5 C 0.61334 0.82187 0.82187 0.0073 Uiso
C5_5 C 0.67813 0.88666 0.82187 0.0073 Uiso
C9_6 C 0.82187 0.67813 0.88666 0.0073 Uiso
C10_6 C 0.82187 0.61334 0.82187 0.0073 Uiso
C11_6 C 0.88666 0.67813 0.82187 0.0073 Uiso
C15_5 C 0.56939 0.79644 0.79644 0.0099 Uiso
C16_5 C 0.70356 0.93061 0.79644 0.0099 Uiso
C20_6 C 0.79644 0.70356 0.93061 0.0099 Uiso
C21_6 C 0.79644 0.56939 0.79644 0.0099 Uiso
C22_6 C 0.93061 0.70356 0.79644 0.0099 Uiso
C26_5 C 0.63503 0.86497 0.79871 0.0112 Uiso
C27_5 C 0.70129 0.86497 0.86497 0.0112 Uiso
C31_6 C 0.79871 0.63503 0.86497 0.0112 Uiso
C32_6 C 0.86497 0.63503 0.79871 0.0112 Uiso
C33_6 C 0.86497 0.70129 0.86497 0.0112 Uiso
H2_5 H 0.73407 0.88019 0.88018 0.0283 Uiso
H3_5 H 0.61981 0.88018 0.76593 0.0283 Uiso
H7_6 H 0.76593 0.61981 0.88018 0.0283 Uiso
H8_6 H 0.88019 0.73407 0.88018 0.0283 Uiso
H9_6 H 0.88018 0.61981 0.76593 0.0283 Uiso
O13_7 O 0.94749 0.75579 0.68302 0.0111 Uiso
O14_7 O 0.94749 0.81698 0.74421 0.0111 Uiso
O15_7 O 0.81698 0.75579 0.55251 0.0111 Uiso
O16_7 O 0.75579 0.81698 0.55251 0.0111 Uiso
O26_11 O 0.74421 0.55251 0.68302 0.0111 Uiso
O27_11 O 0.74421 0.44749 0.68302 0.0111 Uiso
O29_11 O 0.68302 0.55251 0.74421 0.0111 Uiso
O30_11 O 0.68302 0.44749 0.74421 0.0111 Uiso
C9_7 C 0.88666 0.82187 0.67813 0.0073 Uiso
C10_7 C 0.82187 0.82187 0.61334 0.0073 Uiso
C11_7 C 0.82187 0.88666 0.67813 0.0073 Uiso
C20_7 C 0.93061 0.79644 0.70356 0.0099 Uiso
C21_7 C 0.79644 0.79644 0.56939 0.0099 Uiso
C22_7 C 0.79644 0.93061 0.70356 0.0099 Uiso
C31_7 C 0.86497 0.79871 0.63503 0.0112 Uiso
C32_7 C 0.79871 0.86497 0.63503 0.0112 Uiso
C33_7 C 0.86497 0.86497 0.70129 0.0112 Uiso
H7_7 H 0.88018 0.76593 0.61981 0.0283 Uiso
H8_7 H 0.88018 0.88019 0.73407 0.0283 Uiso
H9_7 H 0.76593 0.88018 0.61981 0.0283 Uiso
O26_12 O 0.68302 0.74421 0.55251 0.0111 Uiso
O27_12 O 0.68302 0.74421 0.44749 0.0111 Uiso
O29_12 O 0.74421 0.68302 0.55251 0.0111 Uiso
O30_12 O 0.74421 0.68302 0.44749 0.0111 Uiso
C1_6 C 0.32187 0.67813 0.38666 0.0073 Uiso
C2_6 C 0.29644 0.70356 0.43061 0.0099 Uiso
C3_6 C 0.36497 0.70129 0.36497 0.0112 Uiso
H1_6 H 0.38019 0.73407 0.38018 0.0283 Uiso
C4_6 C 0.38666 0.67813 0.32187 0.0073 Uiso
C5_6 C 0.32187 0.61334 0.32187 0.0073 Uiso
C6_7 C 0.32187 0.67813 0.61334 0.0073 Uiso
C7_7 C 0.38666 0.67813 0.67813 0.0073 Uiso
C8_7 C 0.32187 0.61334 0.67813 0.0073 Uiso
C15_6 C 0.43061 0.70356 0.29644 0.0099 Uiso
C16_6 C 0.29644 0.56939 0.29644 0.0099 Uiso
C17_7 C 0.29644 0.70356 0.56939 0.0099 Uiso
C18_7 C 0.43061 0.70356 0.70356 0.0099 Uiso
C19_7 C 0.29644 0.56939 0.70356 0.0099 Uiso
C26_6 C 0.36497 0.63503 0.29871 0.0112 Uiso
C27_6 C 0.29871 0.63503 0.36497 0.0112 Uiso
C28_7 C 0.36497 0.70129 0.63503 0.0112 Uiso
C29_7 C 0.36497 0.63503 0.70129 0.0112 Uiso
C30_7 C 0.29871 0.63503 0.63503 0.0112 Uiso
H2_6 H 0.26593 0.61981 0.38018 0.0283 Uiso
H3_6 H 0.38019 0.61982 0.26593 0.0283 Uiso
H4_7 H 0.38019 0.73407 0.61982 0.0283 Uiso
H5_7 H 0.26593 0.61981 0.61982 0.0283 Uiso
H6_7 H 0.38019 0.61982 0.73407 0.0283 Uiso
C9_8 C 0.32187 0.38666 0.67813 0.0073 Uiso
C10_8 C 0.38666 0.32187 0.67813 0.0073 Uiso
C11_8 C 0.32187 0.32187 0.61334 0.0073 Uiso
C20_8 C 0.29644 0.43061 0.70356 0.0099 Uiso
C21_8 C 0.43061 0.29644 0.70356 0.0099 Uiso
C22_8 C 0.29644 0.29644 0.56939 0.0099 Uiso
C31_8 C 0.36497 0.36497 0.70129 0.0112 Uiso
C32_8 C 0.36497 0.29871 0.63503 0.0112 Uiso
C33_8 C 0.29871 0.36497 0.63503 0.0112 Uiso
H7_8 H 0.38019 0.38018 0.73407 0.0283 Uiso
H8_8 H 0.26593 0.38018 0.61981 0.0283 Uiso
H9_8 H 0.38019 0.26593 0.61982 0.0283 Uiso
C9_9 C 0.67813 0.61334 0.67813 0.0073 Uiso
C10_9 C 0.61334 0.67813 0.67813 0.0073 Uiso
C11_9 C 0.67813 0.67813 0.61334 0.0073 Uiso
C12_7 C 0.67813 0.38666 0.67813 0.0073 Uiso
C13_7 C 0.61334 0.32187 0.67813 0.0073 Uiso
C14_7 C 0.67813 0.32187 0.61334 0.0073 Uiso
C20_9 C 0.70356 0.56939 0.70356 0.0099 Uiso
C21_9 C 0.56939 0.70356 0.70356 0.0099 Uiso
C22_9 C 0.70356 0.70356 0.56939 0.0099 Uiso
C23_7 C 0.70356 0.43061 0.70356 0.0099 Uiso
C24_7 C 0.56939 0.29644 0.70356 0.0099 Uiso
C25_7 C 0.70356 0.29644 0.56939 0.0099 Uiso
C31_9 C 0.63503 0.63503 0.70129 0.0112 Uiso
C32_9 C 0.63503 0.70129 0.63503 0.0112 Uiso
C33_9 C 0.70129 0.63503 0.63503 0.0112 Uiso
C34_7 C 0.63503 0.36497 0.70129 0.0112 Uiso
C35_7 C 0.63503 0.29871 0.63503 0.0112 Uiso
C36_7 C 0.70129 0.36497 0.63503 0.0112 Uiso
H7_9 H 0.61981 0.61982 0.73407 0.0283 Uiso
H8_9 H 0.73407 0.61982 0.61981 0.0283 Uiso
H9_9 H 0.61981 0.73407 0.61982 0.0283 Uiso
H10_7 H 0.61981 0.38018 0.73407 0.0283 Uiso
H11_7 H 0.73407 0.38018 0.61981 0.0283 Uiso
H12_7 H 0.61981 0.26593 0.61982 0.0283 Uiso
C12_8 C 0.32187 0.38666 0.32187 0.0073 Uiso
C13_8 C 0.38666 0.32187 0.32187 0.0073 Uiso
C14_8 C 0.32187 0.32187 0.38666 0.0073 Uiso
C23_8 C 0.29644 0.43061 0.29644 0.0099 Uiso
C24_8 C 0.43061 0.29644 0.29644 0.0099 Uiso
C25_8 C 0.29644 0.29644 0.43061 0.0099 Uiso
C34_8 C 0.36497 0.36497 0.29871 0.0112 Uiso
C35_8 C 0.36497 0.29871 0.36497 0.0112 Uiso
C36_8 C 0.29871 0.36497 0.36497 0.0112 Uiso
H10_8 H 0.38019 0.38018 0.26593 0.0283 Uiso
H11_8 H 0.26593 0.38018 0.38019 0.0283 Uiso
H12_8 H 0.38019 0.26593 0.38018 0.0283 Uiso
C6_8 C 0.67813 0.67813 0.38666 0.0073 Uiso
C7_8 C 0.61334 0.67813 0.32187 0.0073 Uiso
C8_8 C 0.67813 0.61334 0.32187 0.0073 Uiso
C17_8 C 0.70356 0.70356 0.43061 0.0099 Uiso
C18_8 C 0.56939 0.70356 0.29644 0.0099 Uiso
C19_8 C 0.70356 0.56939 0.29644 0.0099 Uiso
C28_8 C 0.63503 0.70129 0.36497 0.0112 Uiso
C29_8 C 0.63503 0.63503 0.29871 0.0112 Uiso
C30_8 C 0.70129 0.63503 0.36497 0.0112 Uiso
H4_8 H 0.61981 0.73407 0.38018 0.0283 Uiso
H5_8 H 0.73407 0.61981 0.38018 0.0283 Uiso
H6_8 H 0.61981 0.61982 0.26593 0.0283 Uiso
C1_7 C 0.67813 0.32187 0.38666 0.0073 Uiso
C2_7 C 0.70356 0.29644 0.43061 0.0099 Uiso
C3_7 C 0.63503 0.29871 0.36497 0.0112 Uiso
H1_7 H 0.61981 0.26593 0.38018 0.0283 Uiso
C4_7 C 0.61334 0.32187 0.32187 0.0073 Uiso
C5_7 C 0.67813 0.38666 0.32187 0.0073 Uiso
C15_7 C 0.56939 0.29644 0.29644 0.0099 Uiso
C16_7 C 0.70356 0.43061 0.29644 0.0099 Uiso
C26_7 C 0.63503 0.36497 0.29871 0.0112 Uiso
C27_7 C 0.70129 0.36497 0.36497 0.0112 Uiso
H2_7 H 0.73407 0.38019 0.38018 0.0283 Uiso
H3_7 H 0.61981 0.38018 0.26593 0.0283 Uiso
loop_
_geom_bond_atom_site_label_1
_geom_bond_atom_site_label_2
_geom_bond_site_symmetry_1
_geom_bond_site_symmetry_2
Cu2 Cu1 1_555 1_555
Cu7 Cu8 1_555 1_555
Cu8 O10 1_555 1_555
Cu9 Cu10 1_555 1_555
Cu10 O12 1_555 1_555
Cu15 Cu16 1_555 1_555
Cu16 O22 1_555 1_555
Cu17 Cu18 1_555 1_555
Cu18 O24 1_555 1_555
O7 Cu1 1_555 1_555
O8 Cu2 1_555 1_555
O9 Cu7 1_555 1_555
O10 C18 1_555 1_555
O11 Cu9 1_555 1_555
O12 C19 1_555 1_555
O19 Cu1 1_555 1_555
O20 Cu2 1_555 1_555
O21 Cu15 1_555 1_555
O22 C24 1_555 1_555
O23 Cu17 1_555 1_555
O24 C25 1_555 1_555
C6 C17 1_555 1_555
C7 C18 1_555 1_555
C8 C19 1_555 1_555
C12 C23 1_555 1_555
C13 C24 1_555 1_555
C14 C25 1_555 1_555
C17 O7 1_555 1_555
C18 O9 1_555 1_555
C19 O11 1_555 1_555
C23 O19 1_555 1_555
C24 O21 1_555 1_555
C25 O23 1_555 1_555
C28 C6 1_555 1_555
C29 C7 1_555 1_555
C30 C6 1_555 1_555
C34 C12 1_555 1_555
C35 C13 1_555 1_555
C36 C12 1_555 1_555
H4 C28 1_555 1_555
H5 C30 1_555 1_555
H6 C29 1_555 1_555
H10 C34 1_555 1_555
H11 C36 1_555 1_555
H12 C35 1_555 1_555
O8 C17 1_555 1_555
O20 C23 1_555 1_555
C7 C28 1_555 1_555
C8 C29 1_555 1_555
C8 C30 1_555 1_555
C13 C34 1_555 1_555
C14 C35 1_555 1_555
C14 C36 1_555 1_555
Cu1_2 O1 1_555 1_555
O1 C2 1_555 1_555
C1 C2 1_555 1_555
C2 O2 1_555 1_555
C3 C1 1_555 1_555
H1 C3 1_555 1_555
Cu2_2 Cu1_2 1_555 1_555
Cu3 Cu4 1_555 1_555
Cu4 O4 1_555 1_555
Cu5 Cu6 1_555 1_555
Cu6 O6 1_555 1_555
Cu11 Cu12 1_555 1_555
Cu12 O16 1_555 1_555
Cu13 Cu14 1_555 1_555
Cu14 O18 1_555 1_555
O2 Cu2_2 1_555 1_555
O3 Cu3 1_555 1_555
O4 C15 1_555 1_555
O5 Cu5 1_555 1_555
O6 C16 1_555 1_555
O13 Cu1_2 1_555 1_555
O14 Cu2_2 1_555 1_555
O15 Cu11 1_555 1_555
O16 C21 1_555 1_555
O17 Cu13 1_555 1_555
O18 C22 1_555 1_555
O25 Cu3 1_555 1_555
O26 Cu3 1_555 1_555
O27 Cu3 1_555 1_555
O28 Cu4 1_555 1_555
O29 Cu4 1_555 1_555
O30 Cu4 1_555 1_555
O32 Cu5 1_555 1_555
O35 Cu6 1_555 1_555
C4 C3 1_555 1_555
C5 C16 1_555 1_555
C9 C20 1_555 1_555
C10 C21 1_555 1_555
C11 C22 1_555 1_555
C15 O3 1_555 1_555
C16 O5 1_555 1_555
C20 O13 1_555 1_555
C21 O15 1_555 1_555
C22 O17 1_555 1_555
C26 C4 1_555 1_555
C27 C1 1_555 1_555
C31 C9 1_555 1_555
C32 C10 1_555 1_555
C33 C9 1_555 1_555
H2 C27 1_555 1_555
H3 C26 1_555 1_555
H7 C31 1_555 1_555
H8 C33 1_555 1_555
H9 C32 1_555 1_555
O14 C20 1_555 1_555
C4 C15 1_555 1_555
C5 C26 1_555 1_555
C5 C27 1_555 1_555
C10 C31 1_555 1_555
C11 C32 1_555 1_555
C11 C33 1_555 1_555
Cu9_2 Cu10_2 1_555 1_555
Cu5_2 Cu6_2 1_555 1_555
O31 Cu5_2 1_555 1_555
O33 Cu5_2 1_555 1_555
O34 Cu6_2 1_555 1_555
O36 Cu6_2 1_555 1_555
Cu17_2 Cu18_2 1_555 1_555
Cu13_2 Cu14_2 1_555 1_555
Cu15_2 Cu16_2 1_555 1_555
Cu16_2 O22_2 1_555 1_555
Cu10 O24_2 1_555 1_555
O19_2 Cu17 1_555 1_555
O20_2 Cu18 1_555 1_555
O21_2 Cu15_2 1_555 1_555
O22_2 C24_2 1_555 1_555
O23_2 Cu9 1_555 1_555
O24_2 C25_2 1_555 1_555
C12_2 C23_2 1_555 1_555
C13_2 C24_2 1_555 1_555
C14_2 C25_2 1_555 1_555
C23_2 O19_2 1_555 1_555
C24_2 O21_2 1_555 1_555
C25_2 O23_2 1_555 1_555
C34_2 C12_2 1_555 1_555
C35_2 C13_2 1_555 1_555
C36_2 C12_2 1_555 1_555
H10_2 C34_2 1_555 1_555
H11_2 C36_2 1_555 1_555
H12_2 C35_2 1_555 1_555
O20_2 C23_2 1_555 1_555
C13_2 C34_2 1_555 1_555
C14_2 C35_2 1_555 1_555
C14_2 C36_2 1_555 1_555
Cu17_2 O1_2 1_555 1_555
O1_2 C2_2 1_555 1_555
C1_2 C2_2 1_555 1_555
C2_2 O2_2 1_555 1_555
C3_2 C1_2 1_555 1_555
H1_2 C3_2 1_555 1_555
Cu3_2 Cu4_2 1_555 1_555
Cu4_2 O4_2 1_555 1_555
Cu5_3 Cu6_3 1_555 1_555
Cu6_3 O6_2 1_555 1_555
Cu11_2 Cu12_2 1_555 1_555
Cu12_2 O16_2 1_555 1_555
Cu13_3 Cu14_3 1_555 1_555
Cu14_3 O18_2 1_555 1_555
O2_2 Cu18_2 1_555 1_555
O3_2 Cu3_2 1_555 1_555
O4_2 C15_2 1_555 1_555
O5_2 Cu5_3 1_555 1_555
O6_2 C16_2 1_555 1_555
O13_2 Cu17_2 1_555 1_555
O14_2 Cu18_2 1_555 1_555
O15_2 Cu11_2 1_555 1_555
O16_2 C21_2 1_555 1_555
O17_2 Cu13_3 1_555 1_555
O18_2 C22_2 1_555 1_555
O25_2 Cu3_2 1_555 1_555
O26_2 Cu3_2 1_555 1_555
O27_2 Cu3_2 1_555 1_555
O28_2 Cu4_2 1_555 1_555
O29_2 Cu4_2 1_555 1_555
O30_2 Cu4_2 1_555 1_555
O32_2 Cu5_3 1_555 1_555
O35_2 Cu6_3 1_555 1_555
C4_2 C3_2 1_555 1_555
C5_2 C16_2 1_555 1_555
C9_2 C20_2 1_555 1_555
C10_2 C21_2 1_555 1_555
C11_2 C22_2 1_555 1_555
C15_2 O3_2 1_555 1_555
C16_2 O5_2 1_555 1_555
C20_2 O13_2 1_555 1_555
C21_2 O15_2 1_555 1_555
C22_2 O17_2 1_555 1_555
C26_2 C4_2 1_555 1_555
C27_2 C1_2 1_555 1_555
C31_2 C9_2 1_555 1_555
C32_2 C10_2 1_555 1_555
C33_2 C9_2 1_555 1_555
H2_2 C27_2 1_555 1_555
H3_2 C26_2 1_555 1_555
H7_2 C31_2 1_555 1_555
H8_2 C33_2 1_555 1_555
H9_2 C32_2 1_555 1_555
O14_2 C20_2 1_555 1_555
C4_2 C15_2 1_555 1_555
C5_2 C26_2 1_555 1_555
C5_2 C27_2 1_555 1_555
C10_2 C31_2 1_555 1_555
C11_2 C32_2 1_555 1_555
C11_2 C33_2 1_555 1_555
Cu5_4 Cu6_4 1_555 1_555
O31_2 Cu5_4 1_555 1_555
O33_2 Cu5_4 1_555 1_555
O34_2 Cu6_4 1_555 1_555
O36_2 Cu6_4 1_555 1_555
Cu13_4 Cu14_4 1_555 1_555
Cu9_2 O1_3 1_555 1_555
O1_3 C2_3 1_555 1_555
C1_3 C2_3 1_555 1_555
C2_3 O2_3 1_555 1_555
C3_3 C1_3 1_555 1_555
H1_3 C3_3 1_555 1_555
Cu3_3 Cu4_3 1_555 1_555
Cu4_3 O4_3 1_555 1_555
Cu5_5 Cu6_5 1_555 1_555
Cu6_5 O6_3 1_555 1_555
Cu11_3 Cu12_3 1_555 1_555
Cu12_3 O16_3 1_555 1_555
Cu13_5 Cu14_5 1_555 1_555
Cu14_5 O18_3 1_555 1_555
O2_3 Cu10_2 1_555 1_555
O3_3 Cu3_3 1_555 1_555
O4_3 C15_3 1_555 1_555
O5_3 Cu5_5 1_555 1_555
O6_3 C16_3 1_555 1_555
O13_3 Cu9_2 1_555 1_555
O14_3 Cu10_2 1_555 1_555
O15_3 Cu11_3 1_555 1_555
O16_3 C21_3 1_555 1_555
O17_3 Cu13_5 1_555 1_555
O18_3 C22_3 1_555 1_555
O25_3 Cu3_3 1_555 1_555
O26_3 Cu3_3 1_555 1_555
O27_3 Cu3_3 1_555 1_555
O28_3 Cu4_3 1_555 1_555
O29_3 Cu4_3 1_555 1_555
O30_3 Cu4_3 1_555 1_555
O32_3 Cu5_5 1_555 1_555
O35_3 Cu6_5 1_555 1_555
C4_3 C3_3 1_555 1_555
C5_3 C16_3 1_555 1_555
C9_3 C20_3 1_555 1_555
C10_3 C21_3 1_555 1_555
C11_3 C22_3 1_555 1_555
C15_3 O3_3 1_555 1_555
C16_3 O5_3 1_555 1_555
C20_3 O13_3 1_555 1_555
C21_3 O15_3 1_555 1_555
C22_3 O17_3 1_555 1_555
C26_3 C4_3 1_555 1_555
C27_3 C1_3 1_555 1_555
C31_3 C9_3 1_555 1_555
C32_3 C10_3 1_555 1_555
C33_3 C9_3 1_555 1_555
H2_3 C27_3 1_555 1_555
H3_3 C26_3 1_555 1_555
H7_3 C31_3 1_555 1_555
H8_3 C33_3 1_555 1_555
H9_3 C32_3 1_555 1_555
O14_3 C20_3 1_555 1_555
C4_3 C15_3 1_555 1_555
C5_3 C26_3 1_555 1_555
C5_3 C27_3 1_555 1_555
C10_3 C31_3 1_555 1_555
C11_3 C32_3 1_555 1_555
C11_3 C33_3 1_555 1_555
Cu13_6 Cu14_6 1_555 1_555
Cu5_6 Cu6_6 1_555 1_555
O31_3 Cu5_6 1_555 1_555
O33_3 Cu5_6 1_555 1_555
O34_3 Cu6_6 1_555 1_555
O36_3 Cu6_6 1_555 1_555
Cu16_2 O16_4 1_555 1_555
O13_4 Cu13 1_555 1_555
O14_4 Cu14 1_555 1_555
O15_4 Cu15_2 1_555 1_555
O16_4 C21_4 1_555 1_555
O35 C22_4 1_555 1_555
O25_4 Cu12 1_555 1_555
O26_4 Cu12 1_555 1_555
O27_4 Cu12 1_555 1_555
O28_4 Cu11 1_555 1_555
O29_4 Cu11 1_555 1_555
O30_4 Cu11 1_555 1_555
C9_4 C20_4 1_555 1_555
C10_4 C21_4 1_555 1_555
C11_4 C22_4 1_555 1_555
C20_4 O13_4 1_555 1_555
C21_4 O15_4 1_555 1_555
C22_4 O32 1_555 1_555
C31_4 C9_4 1_555 1_555
C32_4 C10_4 1_555 1_555
C33_4 C9_4 1_555 1_555
H7_4 C31_4 1_555 1_555
H8_4 C33_4 1_555 1_555
H9_4 C32_4 1_555 1_555
O14_4 C20_4 1_555 1_555
C10_4 C31_4 1_555 1_555
C11_4 C32_4 1_555 1_555
C11_4 C33_4 1_555 1_555
Cu7_2 Cu8_2 1_555 1_555
Cu8_2 O10_2 1_555 1_555
Cu12_2 O22_3 1_555 1_555
Cu17_3 Cu18_3 1_555 1_555
Cu18_3 O24_3 1_555 1_555
O7_2 Cu13_2 1_555 1_555
O8_2 Cu14_2 1_555 1_555
O9_2 Cu7_2 1_555 1_555
O10_2 C18_2 1_555 1_555
O34_2 C19_2 1_555 1_555
O19_3 Cu13_2 1_555 1_555
O20_3 Cu14_2 1_555 1_555
O21_3 Cu11_2 1_555 1_555
O22_3 C24_3 1_555 1_555
O23_3 Cu17_3 1_555 1_555
O24_3 C25_3 1_555 1_555
C6_2 C17_2 1_555 1_555
C7_2 C18_2 1_555 1_555
C8_2 C19_2 1_555 1_555
C12_3 C23_3 1_555 1_555
C13_3 C24_3 1_555 1_555
C14_3 C25_3 1_555 1_555
C17_2 O7_2 1_555 1_555
C18_2 O9_2 1_555 1_555
C19_2 O31_2 1_555 1_555
C23_3 O19_3 1_555 1_555
C24_3 O21_3 1_555 1_555
C25_3 O23_3 1_555 1_555
C28_2 C6_2 1_555 1_555
C29_2 C7_2 1_555 1_555
C30_2 C6_2 1_555 1_555
C34_3 C12_3 1_555 1_555
C35_3 C13_3 1_555 1_555
C36_3 C12_3 1_555 1_555
H4_2 C28_2 1_555 1_555
H5_2 C30_2 1_555 1_555
H6_2 C29_2 1_555 1_555
H10_3 C34_3 1_555 1_555
H11_3 C36_3 1_555 1_555
H12_3 C35_3 1_555 1_555
O8_2 C17_2 1_555 1_555
O20_3 C23_3 1_555 1_555
C7_2 C28_2 1_555 1_555
C8_2 C29_2 1_555 1_555
C8_2 C30_2 1_555 1_555
C13_3 C34_3 1_555 1_555
C14_3 C35_3 1_555 1_555
C14_3 C36_3 1_555 1_555
Cu17_4 Cu18_4 1_555 1_555
Cu7 O16_5 1_555 1_555
O13_5 Cu13_3 1_555 1_555
O14_5 Cu14_3 1_555 1_555
O15_5 Cu8 1_555 1_555
O16_5 C21_5 1_555 1_555
O35_2 C22_5 1_555 1_555
O26_5 Cu12_2 1_555 1_555
O27_5 Cu12_2 1_555 1_555
O29_5 Cu11_2 1_555 1_555
O30_5 Cu11_2 1_555 1_555
C9_5 C20_5 1_555 1_555
C10_5 C21_5 1_555 1_555
C11_5 C22_5 1_555 1_555
C20_5 O13_5 1_555 1_555
C21_5 O15_5 1_555 1_555
C22_5 O32_2 1_555 1_555
C31_5 C9_5 1_555 1_555
C32_5 C10_5 1_555 1_555
C33_5 C9_5 1_555 1_555
H7_5 C31_5 1_555 1_555
H8_5 C33_5 1_555 1_555
H9_5 C32_5 1_555 1_555
O14_5 C20_5 1_555 1_555
C10_5 C31_5 1_555 1_555
C11_5 C32_5 1_555 1_555
C11_5 C33_5 1_555 1_555
Cu7_3 Cu8_3 1_555 1_555
Cu8_3 O10_3 1_555 1_555
Cu12_3 O22_4 1_555 1_555
Cu17_5 Cu18_5 1_555 1_555
Cu18_5 O24_4 1_555 1_555
O7_3 Cu13_4 1_555 1_555
O8_3 Cu14_4 1_555 1_555
O9_3 Cu7_3 1_555 1_555
O10_3 C18_3 1_555 1_555
O34_3 C19_3 1_555 1_555
O19_4 Cu13_4 1_555 1_555
O20_4 Cu14_4 1_555 1_555
O21_4 Cu11_3 1_555 1_555
O22_4 C24_4 1_555 1_555
O23_4 Cu17_5 1_555 1_555
O24_4 C25_4 1_555 1_555
C6_3 C17_3 1_555 1_555
C7_3 C18_3 1_555 1_555
C8_3 C19_3 1_555 1_555
C12_4 C23_4 1_555 1_555
C13_4 C24_4 1_555 1_555
C14_4 C25_4 1_555 1_555
C17_3 O7_3 1_555 1_555
C18_3 O9_3 1_555 1_555
C19_3 O31_3 1_555 1_555
C23_4 O19_4 1_555 1_555
C24_4 O21_4 1_555 1_555
C25_4 O23_4 1_555 1_555
C28_3 C6_3 1_555 1_555
C29_3 C7_3 1_555 1_555
C30_3 C6_3 1_555 1_555
C34_4 C12_4 1_555 1_555
C35_4 C13_4 1_555 1_555
C36_4 C12_4 1_555 1_555
H4_3 C28_3 1_555 1_555
H5_3 C30_3 1_555 1_555
H6_3 C29_3 1_555 1_555
H10_4 C34_4 1_555 1_555
H11_4 C36_4 1_555 1_555
H12_4 C35_4 1_555 1_555
O8_3 C17_3 1_555 1_555
O20_4 C23_4 1_555 1_555
C7_3 C28_3 1_555 1_555
C8_3 C29_3 1_555 1_555
C8_3 C30_3 1_555 1_555
C13_4 C34_4 1_555 1_555
C14_4 C35_4 1_555 1_555
C14_4 C36_4 1_555 1_555
Cu17_6 Cu18_6 1_555 1_555
O26_6 Cu16_2 1_555 1_555
O27_6 Cu16_2 1_555 1_555
O29_6 Cu15_2 1_555 1_555
O30_6 Cu15_2 1_555 1_555
Cu9_3 Cu10_3 1_555 1_555
Cu10_3 O12_2 1_555 1_555
Cu15_3 Cu16_3 1_555 1_555
Cu16_3 O22_5 1_555 1_555
Cu14_6 O24_5 1_555 1_555
O28_3 C18_4 1_555 1_555
O11_2 Cu9_3 1_555 1_555
O12_2 C19_4 1_555 1_555
O21_5 Cu15_3 1_555 1_555
O22_5 C24_5 1_555 1_555
O23_5 Cu13_6 1_555 1_555
O24_5 C25_5 1_555 1_555
C6_4 C17_4 1_555 1_555
C7_4 C18_4 1_555 1_555
C8_4 C19_4 1_555 1_555
C12_5 C23_5 1_555 1_555
C13_5 C24_5 1_555 1_555
C14_5 C25_5 1_555 1_555
C17_4 O33 1_555 1_555
C18_4 O25_3 1_555 1_555
C19_4 O11_2 1_555 1_555
C23_5 O31 1_555 1_555
C24_5 O21_5 1_555 1_555
C25_5 O23_5 1_555 1_555
C28_4 C6_4 1_555 1_555
C29_4 C7_4 1_555 1_555
C30_4 C6_4 1_555 1_555
C34_5 C12_5 1_555 1_555
C35_5 C13_5 1_555 1_555
C36_5 C12_5 1_555 1_555
H4_4 C28_4 1_555 1_555
H5_4 C30_4 1_555 1_555
H6_4 C29_4 1_555 1_555
H10_5 C34_5 1_555 1_555
H11_5 C36_5 1_555 1_555
H12_5 C35_5 1_555 1_555
O36 C17_4 1_555 1_555
O34 C23_5 1_555 1_555
C7_4 C28_4 1_555 1_555
C8_4 C29_4 1_555 1_555
C8_4 C30_4 1_555 1_555
C13_5 C34_5 1_555 1_555
C14_5 C35_5 1_555 1_555
C14_5 C36_5 1_555 1_555
Cu9_4 Cu10_4 1_555 1_555
O26_7 Cu7 1_555 1_555
O27_7 Cu7 1_555 1_555
O29_7 Cu8 1_555 1_555
O30_7 Cu8 1_555 1_555
Cu18_3 O12_3 1_555 1_555
O28 C18_5 1_555 1_555
O11_3 Cu17_3 1_555 1_555
O12_3 C19_5 1_555 1_555
C6_5 C17_5 1_555 1_555
C7_5 C18_5 1_555 1_555
C8_5 C19_5 1_555 1_555
C17_5 O33_2 1_555 1_555
C18_5 O25 1_555 1_555
C19_5 O11_3 1_555 1_555
C28_5 C6_5 1_555 1_555
C29_5 C7_5 1_555 1_555
C30_5 C6_5 1_555 1_555
H4_5 C28_5 1_555 1_555
H5_5 C30_5 1_555 1_555
H6_5 C29_5 1_555 1_555
O36_2 C17_5 1_555 1_555
C7_5 C28_5 1_555 1_555
C8_5 C29_5 1_555 1_555
C8_5 C30_5 1_555 1_555
O32_3 C2_4 1_555 1_555
C1_4 C2_4 1_555 1_555
C2_4 O35_3 1_555 1_555
C3_4 C1_4 1_555 1_555
H1_4 C3_4 1_555 1_555
Cu15 O4_4 1_555 1_555
Cu14_5 O6_4 1_555 1_555
O3_4 Cu16 1_555 1_555
O4_4 C15_4 1_555 1_555
O5_4 Cu13_5 1_555 1_555
O6_4 C16_4 1_555 1_555
O26_8 Cu16 1_555 1_555
O27_8 Cu16 1_555 1_555
O29_8 Cu15 1_555 1_555
O30_8 Cu15 1_555 1_555
C4_4 C3_4 1_555 1_555
C5_4 C16_4 1_555 1_555
C15_4 O3_4 1_555 1_555
C16_4 O5_4 1_555 1_555
C26_4 C4_4 1_555 1_555
C27_4 C1_4 1_555 1_555
H2_4 C27_4 1_555 1_555
H3_4 C26_4 1_555 1_555
C4_4 C15_4 1_555 1_555
C5_4 C26_4 1_555 1_555
C5_4 C27_4 1_555 1_555
O31_4 Cu13_6 1_555 1_555
O34_4 Cu14_6 1_555 1_555
Cu18_5 O12_4 1_555 1_555
O28_2 C18_6 1_555 1_555
O11_4 Cu17_5 1_555 1_555
O12_4 C19_6 1_555 1_555
C6_6 C17_6 1_555 1_555
C7_6 C18_6 1_555 1_555
C8_6 C19_6 1_555 1_555
C17_6 O33_3 1_555 1_555
C18_6 O25_2 1_555 1_555
C19_6 O11_4 1_555 1_555
C28_6 C6_6 1_555 1_555
C29_6 C7_6 1_555 1_555
C30_6 C6_6 1_555 1_555
H4_6 C28_6 1_555 1_555
H5_6 C30_6 1_555 1_555
H6_6 C29_6 1_555 1_555
O36_3 C17_6 1_555 1_555
C7_6 C28_6 1_555 1_555
C8_6 C29_6 1_555 1_555
C8_6 C30_6 1_555 1_555
O26_9 Cu12_3 1_555 1_555
O27_9 Cu12_3 1_555 1_555
O29_9 Cu11_3 1_555 1_555
O30_9 Cu11_3 1_555 1_555
Cu10_3 O24_6 1_555 1_555
O25_4 C24_6 1_555 1_555
O23_6 Cu9_3 1_555 1_555
O24_6 C25_6 1_555 1_555
C12_6 C23_6 1_555 1_555
C13_6 C24_6 1_555 1_555
C14_6 C25_6 1_555 1_555
C23_6 O31_4 1_555 1_555
C24_6 O28_4 1_555 1_555
C25_6 O23_6 1_555 1_555
C34_6 C12_6 1_555 1_555
C35_6 C13_6 1_555 1_555
C36_6 C12_6 1_555 1_555
H10_6 C34_6 1_555 1_555
H11_6 C36_6 1_555 1_555
H12_6 C35_6 1_555 1_555
O34_4 C23_6 1_555 1_555
C13_6 C34_6 1_555 1_555
C14_6 C35_6 1_555 1_555
C14_6 C36_6 1_555 1_555
Cu17_6 O1_4 1_555 1_555
O1_4 C2_5 1_555 1_555
C1_5 C2_5 1_555 1_555
C2_5 O2_4 1_555 1_555
C3_5 C1_5 1_555 1_555
H1_5 C3_5 1_555 1_555
Cu15_3 O4_5 1_555 1_555
Cu18_4 O6_5 1_555 1_555
Cu7_2 O16_6 1_555 1_555
Cu10_4 O18_4 1_555 1_555
O2_4 Cu18_6 1_555 1_555
O3_5 Cu16_3 1_555 1_555
O4_5 C15_5 1_555 1_555
O5_5 Cu17_4 1_555 1_555
O6_5 C16_5 1_555 1_555
O13_6 Cu17_6 1_555 1_555
O14_6 Cu18_6 1_555 1_555
O15_6 Cu8_2 1_555 1_555
O16_6 C21_6 1_555 1_555
O17_4 Cu9_4 1_555 1_555
O18_4 C22_6 1_555 1_555
O26_10 Cu16_3 1_555 1_555
O27_10 Cu16_3 1_555 1_555
O29_10 Cu15_3 1_555 1_555
O30_10 Cu15_3 1_555 1_555
O32_4 Cu17_4 1_555 1_555
O35_4 Cu18_4 1_555 1_555
C4_5 C3_5 1_555 1_555
C5_5 C16_5 1_555 1_555
C9_6 C20_6 1_555 1_555
C10_6 C21_6 1_555 1_555
C11_6 C22_6 1_555 1_555
C15_5 O3_5 1_555 1_555
C16_5 O5_5 1_555 1_555
C20_6 O13_6 1_555 1_555
C21_6 O15_6 1_555 1_555
C22_6 O17_4 1_555 1_555
C26_5 C4_5 1_555 1_555
C27_5 C1_5 1_555 1_555
C31_6 C9_6 1_555 1_555
C32_6 C10_6 1_555 1_555
C33_6 C9_6 1_555 1_555
H2_5 C27_5 1_555 1_555
H3_5 C26_5 1_555 1_555
H7_6 C31_6 1_555 1_555
H8_6 C33_6 1_555 1_555
H9_6 C32_6 1_555 1_555
O14_6 C20_6 1_555 1_555
C4_5 C15_5 1_555 1_555
C5_5 C26_5 1_555 1_555
C5_5 C27_5 1_555 1_555
C10_6 C31_6 1_555 1_555
C11_6 C32_6 1_555 1_555
C11_6 C33_6 1_555 1_555
Cu7_3 O16_7 1_555 1_555
O13_7 Cu9_4 1_555 1_555
O14_7 Cu10_4 1_555 1_555
O15_7 Cu8_3 1_555 1_555
O16_7 C21_7 1_555 1_555
O35_4 C22_7 1_555 1_555
O26_11 Cu7_2 1_555 1_555
O27_11 Cu7_2 1_555 1_555
O29_11 Cu8_2 1_555 1_555
O30_11 Cu8_2 1_555 1_555
C9_7 C20_7 1_555 1_555
C10_7 C21_7 1_555 1_555
C11_7 C22_7 1_555 1_555
C20_7 O13_7 1_555 1_555
C21_7 O15_7 1_555 1_555
C22_7 O32_4 1_555 1_555
C31_7 C9_7 1_555 1_555
C32_7 C10_7 1_555 1_555
C33_7 C9_7 1_555 1_555
H7_7 C31_7 1_555 1_555
H8_7 C33_7 1_555 1_555
H9_7 C32_7 1_555 1_555
O14_7 C20_7 1_555 1_555
C10_7 C31_7 1_555 1_555
C11_7 C32_7 1_555 1_555
C11_7 C33_7 1_555 1_555
O26_12 Cu7_3 1_555 1_555
O27_12 Cu7_3 1_555 1_555
O29_12 Cu8_3 1_555 1_555
O30_12 Cu8_3 1_555 1_555
O26_3 C2_6 1_555 1_555
C1_6 C2_6 1_555 1_555
C2_6 O29_3 1_555 1_555
C3_6 C1_6 1_555 1_555
H1_6 C3_6 1_555 1_555
O26_9 C15_6 1_555 1_555
O26_8 C16_6 1_555 1_555
O27_10 C18_7 1_555 1_555
O27_4 C19_7 1_555 1_555
C4_6 C3_6 1_555 1_555
C5_6 C16_6 1_555 1_555
C6_7 C17_7 1_555 1_555
C7_7 C18_7 1_555 1_555
C8_7 C19_7 1_555 1_555
C15_6 O29_9 1_555 1_555
C16_6 O29_8 1_555 1_555
C17_7 O27_3 1_555 1_555
C18_7 O30_10 1_555 1_555
C19_7 O30_4 1_555 1_555
C26_6 C4_6 1_555 1_555
C27_6 C1_6 1_555 1_555
C28_7 C6_7 1_555 1_555
C29_7 C7_7 1_555 1_555
C30_7 C6_7 1_555 1_555
H2_6 C27_6 1_555 1_555
H3_6 C26_6 1_555 1_555
H4_7 C28_7 1_555 1_555
H5_7 C30_7 1_555 1_555
H6_7 C29_7 1_555 1_555
O30_3 C17_7 1_555 1_555
C4_6 C15_6 1_555 1_555
C5_6 C26_6 1_555 1_555
C5_6 C27_6 1_555 1_555
C7_7 C28_7 1_555 1_555
C8_7 C29_7 1_555 1_555
C8_7 C30_7 1_555 1_555
O29 C21_8 1_555 1_555
O29_6 C22_8 1_555 1_555
C9_8 C20_8 1_555 1_555
C10_8 C21_8 1_555 1_555
C11_8 C22_8 1_555 1_555
C20_8 O29_4 1_555 1_555
C21_8 O26 1_555 1_555
C22_8 O26_6 1_555 1_555
C31_8 C9_8 1_555 1_555
C32_8 C10_8 1_555 1_555
C33_8 C9_8 1_555 1_555
H7_8 C31_8 1_555 1_555
H8_8 C33_8 1_555 1_555
H9_8 C32_8 1_555 1_555
O26_4 C20_8 1_555 1_555
C10_8 C31_8 1_555 1_555
C11_8 C32_8 1_555 1_555
C11_8 C33_8 1_555 1_555
O29_10 C21_9 1_555 1_555
O29_12 C22_9 1_555 1_555
O30 C24_7 1_555 1_555
O30_5 C25_7 1_555 1_555
C9_9 C20_9 1_555 1_555
C10_9 C21_9 1_555 1_555
C11_9 C22_9 1_555 1_555
C12_7 C23_7 1_555 1_555
C13_7 C24_7 1_555 1_555
C14_7 C25_7 1_555 1_555
C20_9 O29_11 1_555 1_555
C21_9 O26_10 1_555 1_555
C22_9 O26_12 1_555 1_555
C23_7 O30_11 1_555 1_555
C24_7 O27 1_555 1_555
C25_7 O27_5 1_555 1_555
C31_9 C9_9 1_555 1_555
C32_9 C10_9 1_555 1_555
C33_9 C9_9 1_555 1_555
C34_7 C12_7 1_555 1_555
C35_7 C13_7 1_555 1_555
C36_7 C12_7 1_555 1_555
H7_9 C31_9 1_555 1_555
H8_9 C33_9 1_555 1_555
H9_9 C32_9 1_555 1_555
H10_7 C34_7 1_555 1_555
H11_7 C36_7 1_555 1_555
H12_7 C35_7 1_555 1_555
O26_11 C20_9 1_555 1_555
O27_11 C23_7 1_555 1_555
C10_9 C31_9 1_555 1_555
C11_9 C32_9 1_555 1_555
C11_9 C33_9 1_555 1_555
C13_7 C34_7 1_555 1_555
C14_7 C35_7 1_555 1_555
C14_7 C36_7 1_555 1_555
O30_7 C24_8 1_555 1_555
O30_6 C25_8 1_555 1_555
C12_8 C23_8 1_555 1_555
C13_8 C24_8 1_555 1_555
C14_8 C25_8 1_555 1_555
C23_8 O30_8 1_555 1_555
C24_8 O27_7 1_555 1_555
C25_8 O27_6 1_555 1_555
C34_8 C12_8 1_555 1_555
C35_8 C13_8 1_555 1_555
C36_8 C12_8 1_555 1_555
H10_8 C34_8 1_555 1_555
H11_8 C36_8 1_555 1_555
H12_8 C35_8 1_555 1_555
O27_8 C23_8 1_555 1_555
C13_8 C34_8 1_555 1_555
C14_8 C35_8 1_555 1_555
C14_8 C36_8 1_555 1_555
O27_9 C18_8 1_555 1_555
O27_2 C19_8 1_555 1_555
C6_8 C17_8 1_555 1_555
C7_8 C18_8 1_555 1_555
C8_8 C19_8 1_555 1_555
C17_8 O27_12 1_555 1_555
C18_8 O30_9 1_555 1_555
C19_8 O30_2 1_555 1_555
C28_8 C6_8 1_555 1_555
C29_8 C7_8 1_555 1_555
C30_8 C6_8 1_555 1_555
H4_8 C28_8 1_555 1_555
H5_8 C30_8 1_555 1_555
H6_8 C29_8 1_555 1_555
O30_12 C17_8 1_555 1_555
C7_8 C28_8 1_555 1_555
C8_8 C29_8 1_555 1_555
C8_8 C30_8 1_555 1_555
O26_5 C2_7 1_555 1_555
C1_7 C2_7 1_555 1_555
C2_7 O29_5 1_555 1_555
C3_7 C1_7 1_555 1_555
H1_7 C3_7 1_555 1_555
O26_7 C15_7 1_555 1_555
O26_2 C16_7 1_555 1_555
C4_7 C3_7 1_555 1_555
C5_7 C16_7 1_555 1_555
C15_7 O29_7 1_555 1_555
C16_7 O29_2 1_555 1_555
C26_7 C4_7 1_555 1_555
C27_7 C1_7 1_555 1_555
H2_7 C27_7 1_555 1_555
H3_7 C26_7 1_555 1_555
C4_7 C15_7 1_555 1_555
C5_7 C26_7 1_555 1_555
C5_7 C27_7 1_555 1_555

#END
