
###############################################################################
#
# This file contains modified crystal structure data generated from the
# MOF subset of the Cambridge Structural Database (CSD) v543 
# hosted by the Cambridge Crystallographic Data Centre (CCDC).
#
# This work is licensed under the Creative Commons
# Attribution-NonCommercial-ShareAlike 4.0 International License.
# To view a copy of this license, visit
# http://creativecommons.org/licenses/by-nc-sa/4.0/
# or send a letter to
# Creative Commons, PO Box 1866, Mountain View, CA 94042, USA.
#
# CIF created using the CSD Python API on 29 September 2022
# The structure has been converted into the P1 space group
# The structure has a 3D framework
# The original CSD entry DOTTUC is in the trigonal crystal system
# The original CSD entry DOTTUC is in a Sohncke space group
# The framework has been calculated to contain at least 10.0% void space
# The void calculation uses a probe of radius 1.32A, grid spacing 0.4
#
###############################################################################

data_DOTTUC
_chemical_formula_moiety         '(C72 H120 In5 N6 O20 3+)n'
_symmetry_cell_setting           triclinic
_symmetry_space_group_name_H-M   'P 1'
_symmetry_Int_Tables_number      1
_space_group_name_Hall           'P 1'
loop_
_symmetry_equiv_pos_site_id
_symmetry_equiv_pos_as_xyz
1 x,y,z
_cell_length_a                   12.9913(3)
_cell_length_b                   12.9913(3)
_cell_length_c                   17.3911(11)
_cell_angle_alpha                90
_cell_angle_beta                 90
_cell_angle_gamma                120
_cell_volume                     2541.93
loop_
_atom_site_label
_atom_site_type_symbol
_atom_site_fract_x
_atom_site_fract_y
_atom_site_fract_z
In3 In 0.00000(10) 0.37710(7) 0.8333
O7 O 0.0186(8) 0.5029(8) 0.7433(5)
H15 H 0.0126 0.4369 0.5696
C14 C 0.0743(13) 0.6151(13) 0.5945(9)
H16 H 0.0826 0.6591 0.6414
H17 H 0.1525 0.6323 0.5774
C15 C 0.0126(12) 0.6444(14) 0.5338(10)
H18 H 0.0610 0.6691 0.4876
H19 H 0.0036 0.7105 0.5509
O3 O 0.5029(8) 0.0186(8) 0.2567(5)
H1 H 0.4369 0.0126 0.4304
C4 C 0.6151(13) 0.0743(13) 0.4055(9)
H2 H 0.6591 0.0826 0.3586
H3 H 0.6323 0.1525 0.4226
C5 C 0.6444(14) 0.0126(12) 0.4662(10)
H4 H 0.6691 0.0610 0.5124
H5 H 0.7105 0.0036 0.4491
In2 In 0.37710(7) 0.00000(10) 0.1667
In1 In 0.62290(7) 0.62290(7) 0.5000
O1 O 0.6755(8) 0.8135(7) 0.4857(4)
O2 O 0.4884(7) 0.6914(7) 0.5129(4)
O4 O 0.3327(8) 0.9764(8) 0.3021(4)
C1 C 0.5407(10) 0.8924(9) 0.4849(6)
C2 C 0.4558(11) 0.8662(10) 0.4135(6)
C3 C 0.4791(11) 0.9907(11) 0.3930(6)
C6 C 0.4918(16) 0.9093(18) 0.5615(7)
H6 H 0.5477 0.9234 0.6019
H7 H 0.4176 0.8389 0.5729
H8 H 0.4794 0.9760 0.5574
C7 C 0.3295(12) 0.7846(14) 0.4318(10)
H9 H 0.2821 0.7723 0.3866
H10 H 0.3047 0.8185 0.4717
H11 H 0.3194 0.7098 0.4488
C8 C 0.4793(14) 0.8057(11) 0.3527(6)
H12 H 0.4269 0.7930 0.3103
H13 H 0.4663 0.7305 0.3712
H14 H 0.5602 0.8532 0.3361
C9 C 0.5711(12) 0.7944(12) 0.4963(5)
C10 C 0.4355(12) 0.9979(9) 0.3133(6)
In2_2 In 0.37710(7) 1.00000(10) 0.1667
In3_2 In 1.00000(10) 0.37710(7) 0.8333
O5 O 0.8135(7) 0.6755(8) 0.5143(4)
O6 O 0.6914(7) 0.4884(7) 0.4871(4)
O8 O 0.5157(11) 0.4971(8) 0.5900(5)
O9 O 0.4971(8) 0.5157(11) 0.4100(5)
O10 O 0.9764(8) 0.3327(8) 0.6979(4)
O11 O 0.6437(11) 0.6673(8) 0.6354(4)
O12 O 0.6673(8) 0.6437(11) 0.3646(4)
C11 C 0.8924(9) 0.5407(10) 0.5151(6)
C12 C 0.8662(10) 0.4558(11) 0.5865(6)
C13 C 0.9907(11) 0.4791(11) 0.6070(6)
C16 C 0.9093(18) 0.4918(16) 0.4385(7)
H20 H 0.9234 0.5477 0.3981
H21 H 0.8389 0.4176 0.4271
H22 H 0.9760 0.4794 0.4426
C17 C 0.7846(14) 0.3295(12) 0.5682(10)
H23 H 0.7723 0.2821 0.6134
H24 H 0.8185 0.3047 0.5283
H25 H 0.7098 0.3194 0.5512
C18 C 0.8057(11) 0.4793(14) 0.6473(6)
H26 H 0.7930 0.4269 0.6897
H27 H 0.7305 0.4663 0.6288
H28 H 0.8532 0.5602 0.6639
C19 C 0.7944(12) 0.5711(12) 0.5037(5)
C20 C 0.9979(9) 0.4355(12) 0.6867(6)
O5_2 O 0.3245(8) 0.1380(11) 0.1810(4)
O6_2 O 0.5116(7) 0.2030(10) 0.1538(4)
O12_2 O 0.3563(11) 0.0236(14) 0.0312(4)
C11_2 C 0.4593(10) 0.3517(13) 0.1818(6)
C12_2 C 0.5442(11) 0.4104(15) 0.2532(6)
C13_2 C 0.5209(11) 0.5116(16) 0.2737(6)
H15_2 H 0.5631 0.5757 0.2363
C14_2 C 0.3849(13) 0.4592(18) 0.2612(9)
H16_2 H 0.3409 0.4235 0.3081
H17_2 H 0.3677 0.5202 0.2441
C15_2 C 0.3556(14) 0.3682(18) 0.2005(10)
H18_2 H 0.3309 0.3919 0.1543
H19_2 H 0.2895 0.2931 0.2176
C16_2 C 0.5082(16) 0.4175(24) 0.1052(7)
H20_2 H 0.4523 0.3757 0.0648
H21_2 H 0.5824 0.4213 0.0938
H22_2 H 0.5206 0.4966 0.1093
C17_2 C 0.6705(12) 0.4551(18) 0.2349(10)
H23_2 H 0.7179 0.4902 0.2801
H24_2 H 0.6953 0.5138 0.1950
H25_2 H 0.6806 0.3904 0.2179
C18_2 C 0.5207(14) 0.3264(18) 0.3140(6)
H26_2 H 0.5731 0.3661 0.3564
H27_2 H 0.5337 0.2642 0.2955
H28_2 H 0.4398 0.2930 0.3306
C19_2 C 0.4289(12) 0.2233(17) 0.1704(5)
C20_2 C 0.5645(12) 0.5624(15) 0.3534(6)
O1_2 O 0.1865(7) 0.8620(11) 0.1524(4)
O2_2 O 0.3086(7) 0.7970(10) 0.1796(4)
C1_2 C 0.1076(9) 0.6483(13) 0.1516(6)
C2_2 C 0.1338(10) 0.5896(15) 0.0802(6)
C3_2 C 0.0093(11) 0.4884(16) 0.0597(6)
C6_2 C 0.0907(18) 0.5825(24) 0.2282(7)
H6_2 H 0.0766 0.6243 0.2686
H7_2 H 0.1611 0.5787 0.2396
H8_2 H 0.0240 0.5034 0.2241
C7_2 C 0.2154(14) 0.5449(18) 0.0985(10)
H9_2 H 0.2277 0.5098 0.0533
H10_2 H 0.1815 0.4862 0.1384
H11_2 H 0.2902 0.6096 0.1155
C8_2 C 0.1943(11) 0.6736(18) 0.0194(6)
H13_2 H 0.2695 0.7358 0.0379
H14_2 H 0.1468 0.7070 0.0028
C9_2 C 0.2056(12) 0.7767(17) 0.1630(5)
O9_2 O 0.4843(11) 0.9814(14) 0.0766(5)
O4_2 O 0.0236(8) 0.3563(11) 0.9688(4)
H12_2 H 0.2070 0.6339 0.9770
C10_2 C 0.0021(9) 0.4376(15) 0.9800(6)
O3_2 O 0.9814(8) 0.4843(11) 0.9234(5)
O1_3 O 0.1380(11) 0.3245(8) 0.8190(4)
O2_3 O 0.2030(10) 0.5116(7) 0.8462(4)
C1_3 C 0.3517(13) 0.4593(10) 0.8182(6)
C2_3 C 0.4104(15) 0.5442(11) 0.7468(6)
C3_3 C 0.5116(16) 0.5209(11) 0.7263(6)
H1_2 H 0.5757 0.5631 0.7637
C4_2 C 0.4592(18) 0.3849(13) 0.7388(9)
H2_2 H 0.4235 0.3409 0.6919
H3_2 H 0.5202 0.3677 0.7559
C5_2 C 0.3682(18) 0.3556(14) 0.7995(10)
H4_2 H 0.3919 0.3309 0.8457
H5_2 H 0.2931 0.2895 0.7824
C6_3 C 0.4175(24) 0.5082(16) 0.8948(7)
H6_3 H 0.3757 0.4523 0.9352
H7_3 H 0.4213 0.5824 0.9062
H8_3 H 0.4966 0.5206 0.8907
C7_3 C 0.4551(18) 0.6705(12) 0.7651(10)
H9_3 H 0.4902 0.7179 0.7199
H10_3 H 0.5138 0.6953 0.8050
H11_3 H 0.3904 0.6806 0.7821
C8_3 C 0.3264(18) 0.5207(14) 0.6860(6)
H12_3 H 0.3661 0.5731 0.6436
H13_3 H 0.2642 0.5337 0.7045
H14_3 H 0.2930 0.4398 0.6694
C9_3 C 0.2233(17) 0.4289(12) 0.8296(5)
C10_3 C 0.5624(15) 0.5645(12) 0.6466(6)
H26_3 H 0.6339 0.2070 0.0230
C20_3 C 0.4376(15) 0.0021(9) 0.0200(6)
O5_3 O 0.8620(11) 0.1865(7) 0.8476(4)
O6_3 O 0.7970(10) 0.3086(7) 0.8204(4)
C11_3 C 0.6483(13) 0.1076(9) 0.8484(6)
C12_3 C 0.5896(15) 0.1338(10) 0.9198(6)
C13_3 C 0.4884(16) 0.0093(11) 0.9403(6)
C16_3 C 0.5825(24) 0.0907(18) 0.7718(7)
H20_3 H 0.6243 0.0766 0.7314
H21_3 H 0.5787 0.1611 0.7604
H22_3 H 0.5034 0.0240 0.7759
C17_3 C 0.5449(18) 0.2154(14) 0.9015(10)
H23_3 H 0.5098 0.2277 0.9467
H24_3 H 0.4862 0.1815 0.8616
H25_3 H 0.6096 0.2902 0.8845
C18_3 C 0.6736(18) 0.1943(11) 0.9806(6)
H27_3 H 0.7358 0.2695 0.9621
H28_3 H 0.7070 0.1468 0.9972
C19_3 C 0.7767(17) 0.2056(12) 0.8370(5)
H1_3 H 0.9874 0.4243 0.0971
C4_3 C 0.9257(13) 0.5408(18) 0.0722(9)
H2_3 H 0.9174 0.5765 0.0253
H3_3 H 0.8475 0.4798 0.0893
C5_3 C 0.9874(12) 0.6318(18) 0.1329(10)
H4_3 H 0.9390 0.6081 0.1791
H5_3 H 0.9964 0.7069 0.1158
H15_3 H 0.4243 0.9874 0.9029
C14_3 C 0.5408(18) 0.9257(13) 0.9278(9)
H16_3 H 0.5765 0.9174 0.9747
H17_3 H 0.4798 0.8475 0.9107
C15_3 C 0.6318(18) 0.9874(12) 0.8671(10)
H18_3 H 0.6081 0.9390 0.8209
H19_3 H 0.7069 0.9964 0.8842
C24 C 0.0904(18) 0.0160(26) 0.2965(10)
H38 H 0.0653 0.0212 0.2454
H39 H 0.1607 0.0094 0.2938
H40 H 0.1072 0.0861 0.3249
H29 H 0.0106 0.8422 0.2174
N1 N -0.0000 0.9159(12) 0.3333
C23 C 0.050(4) 0.901(6) 0.4243(18)
H36 H 0.0684 0.9702 0.4549
H37 H 0.1204 0.8954 0.4186
C21 C 0.950(4) 0.851(4) 0.2424(18)
H30 H 0.9316 0.9018 0.2118
H31 H 0.8796 0.7750 0.2481
C22 C 0.9096(18) 0.9256(19) 0.3702(10)
H32 H 0.9347 0.9559 0.4213
H33 H 0.8393 0.8487 0.3729
H34 H 0.8928 0.9789 0.3418
N1_2 N 1.0000 0.9159(12) 0.3333
H35 H 0.9894 0.8316 0.4493
N1_3 N 0.0841(12) 0.0841(12) -0.0000
C23_2 C 0.099(6) 0.149(7) 0.0909(18)
H35_2 H 0.1684 0.1578 0.1159
H36_2 H 0.0298 0.0982 0.1215
H37_2 H 0.1046 0.2250 0.0852
C21_2 C 0.149(4) 0.099(6) 0.9091(18)
H29_2 H 0.1578 0.1684 0.8841
H30_2 H 0.0982 0.0298 0.8785
H31_2 H 0.2250 0.1046 0.9148
N1_4 N 0.0841(12) 0.0841(12) 1.0000
C22_2 C 0.0744(19) 0.9840(26) 0.0369(10)
H32_2 H 0.0441 0.9788 0.0880
H33_2 H 0.1513 0.9906 0.0396
H34_2 H 0.0211 0.9139 0.0085
C24_2 C 0.9840(26) 0.0744(32) 0.9631(10)
H38_2 H 0.9788 0.0441 0.9120
H39_2 H 0.9906 0.1513 0.9604
H40_2 H 0.9139 0.0211 0.9915
C22_3 C 0.0160(26) 0.0904(18) 0.7035(10)
H32_3 H 0.0212 0.0653 0.7546
H33_3 H 0.0094 0.1607 0.7062
H34_3 H 0.0861 0.1072 0.6751
C21_3 C 0.901(6) 0.050(4) 0.5757(18)
H30_3 H 0.9702 0.0684 0.5451
H31_3 H 0.8954 0.1204 0.5814
N1_5 N 0.9159(12) 0.0000 0.6666
H35_3 H 0.8422 0.0106 0.7826
H29_3 H 0.8316 0.9894 0.5507
N1_6 N 0.9159(12) 1.0000 0.6666
C23_3 C 0.851(7) 0.950(4) 0.7576(18)
H36_3 H 0.9018 0.9316 0.7882
H37_3 H 0.7750 0.8796 0.7519
C24_3 C 0.9256(32) 0.9096(18) 0.6298(10)
H38_3 H 0.9559 0.9347 0.5787
H39_3 H 0.8487 0.8393 0.6271
H40_3 H 0.9789 0.8928 0.6582
loop_
_geom_bond_atom_site_label_1
_geom_bond_atom_site_label_2
_geom_bond_site_symmetry_1
_geom_bond_site_symmetry_2
In3 O7 1_555 1_555
H16 C14 1_555 1_555
H17 C14 1_555 1_555
H18 C15 1_555 1_555
H19 C15 1_555 1_555
C14 C15 1_555 1_555
H2 C4 1_555 1_555
H3 C4 1_555 1_555
H4 C5 1_555 1_555
H5 C5 1_555 1_555
In2 O3 1_555 1_555
C4 C5 1_555 1_555
In1 O1 1_555 1_555
O1 C9 1_555 1_555
O2 In1 1_555 1_555
O4 C10 1_555 1_555
C1 C2 1_555 1_555
C2 C3 1_555 1_555
C6 C1 1_555 1_555
H6 C6 1_555 1_555
H7 C6 1_555 1_555
H8 C6 1_555 1_555
C7 C2 1_555 1_555
H9 C7 1_555 1_555
H10 C7 1_555 1_555
H11 C7 1_555 1_555
C8 C2 1_555 1_555
H12 C8 1_555 1_555
H13 C8 1_555 1_555
H14 C8 1_555 1_555
C9 O2 1_555 1_555
C10 C3 1_555 1_555
O5 In1 1_555 1_555
O6 In1 1_555 1_555
O8 In1 1_555 1_555
O9 In1 1_555 1_555
O10 In3_2 1_555 1_555
O11 In1 1_555 1_555
O12 In1 1_555 1_555
C11 C12 1_555 1_555
C12 C13 1_555 1_555
C16 C11 1_555 1_555
H20 C16 1_555 1_555
H21 C16 1_555 1_555
H22 C16 1_555 1_555
C17 C12 1_555 1_555
H23 C17 1_555 1_555
H24 C17 1_555 1_555
H25 C17 1_555 1_555
C18 C12 1_555 1_555
H26 C18 1_555 1_555
H27 C18 1_555 1_555
H28 C18 1_555 1_555
C19 O5 1_555 1_555
C20 O10 1_555 1_555
O4 In2_2 1_555 1_555
C1 C9 1_555 1_555
O6 C19 1_555 1_555
C11 C19 1_555 1_555
C13 C20 1_555 1_555
O5_2 In2 1_555 1_555
O6_2 In2 1_555 1_555
O9 C20_2 1_555 1_555
O12_2 In2 1_555 1_555
C11_2 C12_2 1_555 1_555
C12_2 C13_2 1_555 1_555
C13_2 H15_2 1_555 1_555
C14_2 C13_2 1_555 1_555
H16_2 C14_2 1_555 1_555
H17_2 C14_2 1_555 1_555
C15_2 C11_2 1_555 1_555
H18_2 C15_2 1_555 1_555
H19_2 C15_2 1_555 1_555
C16_2 C11_2 1_555 1_555
H20_2 C16_2 1_555 1_555
H21_2 C16_2 1_555 1_555
H22_2 C16_2 1_555 1_555
C17_2 C12_2 1_555 1_555
H23_2 C17_2 1_555 1_555
H24_2 C17_2 1_555 1_555
H25_2 C17_2 1_555 1_555
C18_2 C12_2 1_555 1_555
H26_2 C18_2 1_555 1_555
H27_2 C18_2 1_555 1_555
H28_2 C18_2 1_555 1_555
C19_2 O5_2 1_555 1_555
C20_2 O12 1_555 1_555
O6_2 C19_2 1_555 1_555
C11_2 C19_2 1_555 1_555
C13_2 C20_2 1_555 1_555
C14_2 C15_2 1_555 1_555
In2_2 O1_2 1_555 1_555
O1_2 C9_2 1_555 1_555
O2_2 In2_2 1_555 1_555
C1_2 C2_2 1_555 1_555
C2_2 C3_2 1_555 1_555
C6_2 C1_2 1_555 1_555
H6_2 C6_2 1_555 1_555
H7_2 C6_2 1_555 1_555
H8_2 C6_2 1_555 1_555
C7_2 C2_2 1_555 1_555
H9_2 C7_2 1_555 1_555
H10_2 C7_2 1_555 1_555
H11_2 C7_2 1_555 1_555
C8_2 C2_2 1_555 1_555
H13_2 C8_2 1_555 1_555
H14_2 C8_2 1_555 1_555
C9_2 O2_2 1_555 1_555
O9_2 In2_2 1_555 1_555
C1_2 C9_2 1_555 1_555
O4_2 C10_2 1_555 1_555
O4_2 In3 1_555 1_555
In3_2 O3_2 1_555 1_555
In3 O1_3 1_555 1_555
O1_3 C9_3 1_555 1_555
O2_3 In3 1_555 1_555
O8 C10_3 1_555 1_555
O11 C10_3 1_555 1_555
C1_3 C2_3 1_555 1_555
C2_3 C3_3 1_555 1_555
C3_3 H1_2 1_555 1_555
C4_2 C3_3 1_555 1_555
H2_2 C4_2 1_555 1_555
H3_2 C4_2 1_555 1_555
C5_2 C1_3 1_555 1_555
H4_2 C5_2 1_555 1_555
H5_2 C5_2 1_555 1_555
C6_3 C1_3 1_555 1_555
H6_3 C6_3 1_555 1_555
H7_3 C6_3 1_555 1_555
H8_3 C6_3 1_555 1_555
C7_3 C2_3 1_555 1_555
H9_3 C7_3 1_555 1_555
H10_3 C7_3 1_555 1_555
H11_3 C7_3 1_555 1_555
C8_3 C2_3 1_555 1_555
H12_3 C8_3 1_555 1_555
H13_3 C8_3 1_555 1_555
H14_3 C8_3 1_555 1_555
C9_3 O2_3 1_555 1_555
C10_3 C3_3 1_555 1_555
C1_3 C9_3 1_555 1_555
C4_2 C5_2 1_555 1_555
C20_3 O12_2 1_555 1_555
O5_3 In3_2 1_555 1_555
O6_3 In3_2 1_555 1_555
C11_3 C12_3 1_555 1_555
C12_3 C13_3 1_555 1_555
C16_3 C11_3 1_555 1_555
H20_3 C16_3 1_555 1_555
H21_3 C16_3 1_555 1_555
H22_3 C16_3 1_555 1_555
C17_3 C12_3 1_555 1_555
H23_3 C17_3 1_555 1_555
H24_3 C17_3 1_555 1_555
H25_3 C17_3 1_555 1_555
C18_3 C12_3 1_555 1_555
H27_3 C18_3 1_555 1_555
H28_3 C18_3 1_555 1_555
C19_3 O5_3 1_555 1_555
O6_3 C19_3 1_555 1_555
C11_3 C19_3 1_555 1_555
H2_3 C4_3 1_555 1_555
H3_3 C4_3 1_555 1_555
H4_3 C5_3 1_555 1_555
H5_3 C5_3 1_555 1_555
C4_3 C5_3 1_555 1_555
H16_3 C14_3 1_555 1_555
H17_3 C14_3 1_555 1_555
H18_3 C15_3 1_555 1_555
H19_3 C15_3 1_555 1_555
C14_3 C15_3 1_555 1_555
H38 C24 1_555 1_555
H39 C24 1_555 1_555
H40 C24 1_555 1_555
C23 N1 1_555 1_555
H36 C23 1_555 1_555
H37 C23 1_555 1_555
H30 C21 1_555 1_555
H31 C21 1_555 1_555
C22 H32 1_555 1_555
H33 C22 1_555 1_555
H34 C22 1_555 1_555
N1_2 C21 1_555 1_555
C22 N1_2 1_555 1_555
C23_2 N1_3 1_555 1_555
H35_2 C23_2 1_555 1_555
H36_2 C23_2 1_555 1_555
H37_2 C23_2 1_555 1_555
C21_2 H29_2 1_555 1_555
H30_2 C21_2 1_555 1_555
H31_2 C21_2 1_555 1_555
N1_4 C21_2 1_555 1_555
C22_2 H32_2 1_555 1_555
H33_2 C22_2 1_555 1_555
H34_2 C22_2 1_555 1_555
H38_2 C24_2 1_555 1_555
H39_2 C24_2 1_555 1_555
H40_2 C24_2 1_555 1_555
C22_3 H32_3 1_555 1_555
H33_3 C22_3 1_555 1_555
H34_3 C22_3 1_555 1_555
H30_3 C21_3 1_555 1_555
H31_3 C21_3 1_555 1_555
N1_5 C21_3 1_555 1_555
C23_3 N1_6 1_555 1_555
H36_3 C23_3 1_555 1_555
H37_3 C23_3 1_555 1_555
C24_3 N1_6 1_555 1_555
H38_3 C24_3 1_555 1_555
H39_3 C24_3 1_555 1_555
H40_3 C24_3 1_555 1_555

#END
