
###############################################################################
#
# This file contains modified crystal structure data generated from the
# MOF subset of the Cambridge Structural Database (CSD) v543 
# hosted by the Cambridge Crystallographic Data Centre (CCDC).
#
# This work is licensed under the Creative Commons
# Attribution-NonCommercial-ShareAlike 4.0 International License.
# To view a copy of this license, visit
# http://creativecommons.org/licenses/by-nc-sa/4.0/
# or send a letter to
# Creative Commons, PO Box 1866, Mountain View, CA 94042, USA.
#
# CIF created using the CSD Python API on 29 September 2022
# The structure has been converted into the P1 space group
# The structure has a 3D framework
# The original CSD entry DOTVUF is in the tetragonal crystal system
# The framework has been calculated to contain at least 10.0% void space
# The void calculation uses a probe of radius 1.32A, grid spacing 0.4
#
###############################################################################

data_DOTVUF
_chemical_formula_moiety         '(C276 H128 F96 Mn8 O58)n'
_symmetry_cell_setting           triclinic
_symmetry_space_group_name_H-M   'P 1'
_symmetry_Int_Tables_number      1
_space_group_name_Hall           'P 1'
loop_
_symmetry_equiv_pos_site_id
_symmetry_equiv_pos_as_xyz
1 x,y,z
_cell_length_a                   28.5047(3)
_cell_length_b                   28.5047(3)
_cell_length_c                   10.5027(3)
_cell_angle_alpha                90
_cell_angle_beta                 90
_cell_angle_gamma                90
_cell_volume                     8533.63
loop_
_atom_site_label
_atom_site_type_symbol
_atom_site_fract_x
_atom_site_fract_y
_atom_site_fract_z
O8 O 0.76802(5) 0.03619(5) 0.06491(17)
O6 O 0.70829(5) 0.00348(5) 0.96676(16)
F5 F 0.58788(7) 0.71029(6) 0.1013(2)
Mn1 Mn 0.768750(11) 0.954742(12) 0.00889(3)
O1 O 0.70829(5) 0.50348(5) 0.03324(16)
H3 H 0.7130 0.8102 0.0409
H4 H 0.6765 0.7388 0.0363
C12 C 0.65388(9) 0.58500(9) 0.0166(3)
H5 H 0.6425 0.5605 0.0661
H6 H 0.5965 0.6257 0.0306
Mn4 Mn 0.704742(12) 0.481250(11) 0.24111(3)
O5 O 0.74652(5) 0.95829(5) 0.21676(16)
O9 O 0.83621(6) 0.94060(6) 0.05705(19)
F1 F 0.55250(8) 0.71703(7) 0.7243(2)
F2 F 0.55007(6) 0.75200(6) 0.9667(3)
F3 F 0.53761(6) 0.67767(6) 0.9766(2)
F4 F 0.57169(8) 0.64547(6) 0.7594(2)
F6 F 0.61990(9) 0.69106(7) 0.6634(2)
O2 O 0.76802(5) 0.53619(5) 0.93509(17)
O3 O 0.73642(6) 0.89215(6) 0.96846(19)
O4 O 0.69060(6) 0.91379(6) 0.80705(19)
C1 C 0.69868(8) 0.58211(8) 0.9637(2)
C2 C 0.63802(8) 0.75000(8) 0.8784(3)
C3 C 0.72648(8) 0.53872(8) 0.9788(2)
C4 C 0.68779(9) 0.65887(8) 0.8732(3)
H1 H 0.6993 0.6838 0.8252
C5 C 0.64291(8) 0.66127(7) 0.9231(3)
C6 C 0.71561(9) 0.62004(8) 0.8936(3)
H2 H 0.7458 0.6191 0.8605
C7 C 0.69178(10) 0.80360(9) 0.9761(3)
C8 C 0.70517(8) 0.88443(8) 0.8872(2)
C9 C 0.57131(10) 0.71064(9) 0.9837(4)
C10 C 0.68286(8) 0.83711(8) 0.8843(2)
C11 C 0.66990(9) 0.76081(8) 0.9735(3)
C13 C 0.62640(9) 0.62423(9) 0.9956(3)
C14 C 0.61060(8) 0.70312(8) 0.8853(3)
C15 C 0.65108(11) 0.82616(9) 0.7892(3)
H7 H 0.6444 0.8482 0.7265
C16 C 0.62925(12) 0.78328(10) 0.7859(3)
H8 H 0.6083 0.7765 0.7206
C17 C 0.58844(13) 0.68988(10) 0.7580(4)
Mn2 Mn 0.704742(12) 0.981250(11) 0.75889(3)
Mn3 Mn 0.768750(11) 0.454742(12) 0.99111(3)
Mn5 Mn 0.795258(12) 0.518750(11) 0.74111(3)
O7 O 0.78619(5) 0.98198(5) 0.81491(17)
F1_2 F 0.94750(8) 0.28297(7) 0.2243(2)
F2_2 F 0.94993(6) 0.24800(6) 0.4667(3)
F3_2 F 0.96239(6) 0.32233(6) 0.4766(2)
F4_2 F 0.92831(8) 0.35453(6) 0.2594(2)
F5_2 F 0.91212(7) 0.28971(6) 0.6013(2)
F6_2 F 0.88010(9) 0.30894(7) 0.1634(2)
Mn1_2 Mn 0.731250(11) 0.045258(12) 0.50889(3)
O1_2 O 0.79171(5) 0.49652(5) 0.53324(16)
O2_2 O 0.73198(5) 0.46381(5) 0.43509(17)
O3_2 O 0.76358(6) 0.10785(6) 0.46846(19)
O4_2 O 0.80940(6) 0.08621(6) 0.30705(19)
C1_2 C 0.80132(8) 0.41789(8) 0.4637(2)
C2_2 C 0.86198(8) 0.25000(8) 0.3784(3)
C3_2 C 0.77352(8) 0.46128(8) 0.4788(2)
C4_2 C 0.81221(9) 0.34113(8) 0.3732(3)
H1_2 H 0.8007 0.3162 0.3252
C5_2 C 0.85709(8) 0.33873(7) 0.4231(3)
C6_2 C 0.78439(9) 0.37996(8) 0.3936(3)
H2_2 H 0.7542 0.3809 0.3605
C7_2 C 0.80822(10) 0.19640(9) 0.4761(3)
H3_2 H 0.7870 0.1898 0.5409
C8_2 C 0.79483(8) 0.11557(8) 0.3872(2)
C9_2 C 0.92869(10) 0.28936(9) 0.4837(4)
C10_2 C 0.81714(8) 0.16289(8) 0.3843(2)
C11_2 C 0.83010(9) 0.23919(8) 0.4735(3)
H4_2 H 0.8235 0.2612 0.5363
C12_2 C 0.84612(9) 0.41500(9) 0.5166(3)
H5_2 H 0.8575 0.4395 0.5661
C13_2 C 0.87360(9) 0.37577(9) 0.4956(3)
H6_2 H 0.9035 0.3743 0.5306
C14_2 C 0.88940(8) 0.29688(8) 0.3853(3)
C15_2 C 0.84892(11) 0.17384(9) 0.2892(3)
H7_2 H 0.8556 0.1518 0.2265
C16_2 C 0.87075(12) 0.21672(10) 0.2859(3)
H8_2 H 0.8917 0.2235 0.2206
C17_2 C 0.91156(13) 0.31012(10) 0.2580(4)
Mn2_2 Mn 0.795258(12) 0.018750(11) 0.25889(3)
Mn3_2 Mn 0.731250(11) 0.545258(12) 0.49111(3)
O5_2 O 0.75348(5) 0.04171(5) 0.71676(16)
O7_2 O 0.71381(5) 0.01802(5) 0.31491(17)
O9_2 O 0.66379(6) 0.05940(6) 0.55705(19)
O6_2 O 0.79171(5) 0.99652(5) 0.46676(16)
O8_2 O 0.73198(5) 0.96381(5) 0.56491(17)
O2_3 O 0.21381(5) 0.01802(5) 0.18509(17)
Mn3_3 Mn 0.295258(12) 0.018750(11) 0.24111(3)
Mn5_2 Mn 0.231250(11) 0.045258(12) 0.99111(3)
F3_3 F 0.07233(6) 0.78761(6) 0.2266(2)
F4_3 F 0.10453(6) 0.82169(8) 0.0094(2)
F5_3 F 0.03971(6) 0.83788(7) 0.3513(2)
O1_3 O 0.24652(5) 0.95829(5) 0.28324(16)
C1_3 C 0.16789(8) 0.94868(8) 0.2137(2)
C2_3 C -0.00000(8) 0.88802(8) 0.1284(3)
C3_3 C 0.21128(8) 0.97648(8) 0.2288(2)
C4_3 C 0.09113(8) 0.93779(9) 0.1232(3)
H1_3 H 0.0662 0.9493 0.0752
C5_3 C 0.08873(7) 0.89291(8) 0.1731(3)
C6_3 C 0.12996(8) 0.96561(9) 0.1436(3)
H2_3 H 0.1309 0.9958 0.1105
C9_3 C 0.03936(9) 0.82131(10) 0.2337(4)
H4_3 H 0.0112 0.9265 0.2863
C12_3 C 0.16500(9) 0.90388(9) 0.2666(3)
H5_3 H 0.1895 0.8925 0.3161
C13_3 C 0.12577(9) 0.87640(9) 0.2456(3)
H6_3 H 0.1243 0.8465 0.2806
C14_3 C 0.04688(8) 0.86060(8) 0.1353(3)
C17_3 C 0.06012(10) 0.83844(13) 0.0080(4)
Mn4_2 Mn 0.268750(11) 0.954742(12) 0.49111(3)
F2_3 F 0.99800(6) 0.80007(6) 0.2167(3)
O3_3 O 0.85785(6) 0.98642(6) 0.21846(19)
C2_4 C 1.00000(8) 0.88802(8) 0.1284(3)
C7_3 C 0.94640(9) 0.94178(10) 0.2261(3)
H3_3 H 0.9398 0.9630 0.2909
C8_3 C 0.86557(8) 0.95517(8) 0.1372(2)
C10_3 C 0.91289(8) 0.93286(8) 0.1343(2)
C11_3 C 0.98919(8) 0.91990(9) 0.2235(3)
C15_3 C 0.92384(9) 0.90108(11) 0.0392(3)
C16_3 C 0.96672(10) 0.87925(12) 0.0359(3)
F1_3 F 0.46703(7) 0.19750(8) 0.4743(2)
F2_4 F 0.50200(6) 0.19993(6) 0.7167(3)
F3_4 F 0.42767(6) 0.21239(6) 0.7266(2)
F4_4 F 0.39547(6) 0.17831(8) 0.5094(2)
F5_4 F 0.46029(6) 0.16212(7) 0.8513(2)
F6_3 F 0.44106(7) 0.13010(9) 0.4134(2)
O1_4 O 0.25348(5) 0.04171(5) 0.78324(16)
O3_4 O 0.64215(6) 0.01358(6) 0.71846(19)
C1_4 C 0.33211(8) 0.05132(8) 0.7137(2)
C2_5 C 0.50000(8) 0.11198(8) 0.6284(3)
C3_4 C 0.28872(8) 0.02352(8) 0.7288(2)
C4_4 C 0.40887(8) 0.06221(9) 0.6232(3)
H1_4 H 0.4338 0.0507 0.5752
C5_4 C 0.41127(7) 0.10709(8) 0.6731(3)
C6_4 C 0.37004(8) 0.03439(9) 0.6436(3)
H2_4 H 0.3691 0.0042 0.6105
C7_4 C 0.55360(9) 0.05822(10) 0.7261(3)
H3_4 H 0.5602 0.0370 0.7909
C8_4 C 0.63443(8) 0.04483(8) 0.6372(2)
C9_4 C 0.46064(9) 0.17869(10) 0.7337(4)
C10_4 C 0.58711(8) 0.06714(8) 0.6343(2)
C11_4 C 0.51081(8) 0.08010(9) 0.7235(3)
H4_4 H 0.4888 0.0735 0.7863
C12_4 C 0.33500(9) 0.09612(9) 0.7666(3)
H5_4 H 0.3105 0.1075 0.8161
C13_4 C 0.37423(9) 0.12360(9) 0.7456(3)
H6_4 H 0.3757 0.1535 0.7806
C14_4 C 0.45312(8) 0.13940(8) 0.6353(3)
C15_4 C 0.57616(9) 0.09892(11) 0.5392(3)
H7_3 H 0.5982 0.1056 0.4765
C16_4 C 0.53328(10) 0.12075(12) 0.5359(3)
H8_3 H 0.5265 0.1417 0.4706
C17_4 C 0.43988(10) 0.16156(13) 0.5080(4)
O2_4 O 0.28619(5) 0.98198(5) 0.68509(17)
Mn3_4 Mn 0.204742(12) 0.981250(11) 0.74111(3)
F1_4 F 0.05250(8) 0.21703(7) 0.2243(2)
F2_5 F 0.05007(6) 0.25200(6) 0.4667(3)
F3_5 F 0.03761(6) 0.17767(6) 0.4766(2)
F4_5 F 0.07169(8) 0.14547(6) 0.2594(2)
F5_5 F 0.08788(7) 0.21029(6) 0.6013(2)
F6_4 F 0.11990(9) 0.19106(7) 0.1634(2)
Mn1_3 Mn 0.268750(11) 0.454742(12) 0.50889(3)
O1_5 O 0.20829(5) 0.00348(5) 0.53324(16)
O2_5 O 0.26802(5) 0.03619(5) 0.43509(17)
O3_5 O 0.23642(6) 0.39215(6) 0.46846(19)
O4_3 O 0.19060(6) 0.41379(6) 0.30705(19)
C1_5 C 0.19868(8) 0.08211(8) 0.4637(2)
C2_6 C 0.13802(8) 0.25000(8) 0.3784(3)
C3_5 C 0.22648(8) 0.03872(8) 0.4788(2)
C4_5 C 0.18779(9) 0.15887(8) 0.3732(3)
H1_5 H 0.1993 0.1838 0.3252
C5_5 C 0.14291(8) 0.16127(7) 0.4231(3)
C6_5 C 0.21561(9) 0.12004(8) 0.3936(3)
H2_5 H 0.2458 0.1191 0.3605
C7_5 C 0.19178(10) 0.30360(9) 0.4761(3)
H3_5 H 0.2130 0.3102 0.5409
C8_5 C 0.20517(8) 0.38443(8) 0.3872(2)
C9_5 C 0.07131(10) 0.21064(9) 0.4837(4)
C10_5 C 0.18286(8) 0.33711(8) 0.3843(2)
C11_5 C 0.16990(9) 0.26081(8) 0.4735(3)
H4_5 H 0.1765 0.2388 0.5363
C12_5 C 0.15388(9) 0.08500(9) 0.5166(3)
H5_5 H 0.1425 0.0605 0.5661
C13_5 C 0.12640(9) 0.12423(9) 0.4956(3)
H6_5 H 0.0965 0.1257 0.5306
C14_5 C 0.11060(8) 0.20312(8) 0.3853(3)
C15_5 C 0.15108(11) 0.32616(9) 0.2892(3)
H7_4 H 0.1444 0.3482 0.2265
C16_5 C 0.12925(12) 0.28328(10) 0.2859(3)
H8_4 H 0.1083 0.2765 0.2206
C17_5 C 0.08844(13) 0.18988(10) 0.2580(4)
Mn2_3 Mn 0.204742(12) 0.481250(11) 0.25889(3)
O5_3 O 0.24652(5) 0.45829(5) 0.71676(16)
O6_3 O 0.20829(5) 0.50348(5) 0.46676(16)
O7_3 O 0.28619(5) 0.48198(5) 0.31491(17)
O8_3 O 0.26802(5) 0.53619(5) 0.56491(17)
O9_3 O 0.33621(6) 0.44060(6) 0.55705(19)
F5_6 F 0.41212(7) 0.78971(6) 0.1013(2)
Mn1_4 Mn 0.231250(11) 0.545258(12) 0.00889(3)
O1_6 O 0.29171(5) 0.99652(5) 0.03324(16)
H3_6 H 0.2870 0.6898 0.0409
H4_6 H 0.3235 0.7612 0.0363
C12_6 C 0.34612(9) 0.91500(9) 0.0166(3)
H5_6 H 0.3575 0.9395 0.0661
H6_6 H 0.4035 0.8743 0.0306
O5_4 O 0.25348(5) 0.54171(5) 0.21676(16)
O8_4 O 0.23198(5) 0.46381(5) 0.06491(17)
O9_4 O 0.16379(6) 0.55940(6) 0.05705(19)
F1_5 F 0.44750(8) 0.78297(7) 0.7243(2)
F2_6 F 0.44993(6) 0.74800(6) 0.9667(3)
F3_6 F 0.46239(6) 0.82233(6) 0.9766(2)
F4_6 F 0.42831(8) 0.85453(6) 0.7594(2)
F6_5 F 0.38010(9) 0.80894(7) 0.6634(2)
O2_6 O 0.23198(5) 0.96381(5) 0.93509(17)
O3_6 O 0.26358(6) 0.60785(6) 0.96846(19)
O4_4 O 0.30940(6) 0.58621(6) 0.80705(19)
C1_6 C 0.30132(8) 0.91789(8) 0.9637(2)
C2_7 C 0.36198(8) 0.75000(8) 0.8784(3)
C3_6 C 0.27352(8) 0.96128(8) 0.9788(2)
C4_6 C 0.31221(9) 0.84113(8) 0.8732(3)
H1_6 H 0.3007 0.8162 0.8252
C5_6 C 0.35709(8) 0.83873(7) 0.9231(3)
C6_6 C 0.28439(9) 0.87996(8) 0.8936(3)
H2_6 H 0.2542 0.8809 0.8605
C7_6 C 0.30822(10) 0.69640(9) 0.9761(3)
C8_6 C 0.29483(8) 0.61557(8) 0.8872(2)
C9_6 C 0.42869(10) 0.78936(9) 0.9837(4)
C10_6 C 0.31714(8) 0.66289(8) 0.8843(2)
C11_6 C 0.33010(9) 0.73919(8) 0.9735(3)
C13_6 C 0.37360(9) 0.87577(9) 0.9956(3)
C14_6 C 0.38940(8) 0.79688(8) 0.8853(3)
C15_6 C 0.34892(11) 0.67384(9) 0.7892(3)
H7_5 H 0.3556 0.6518 0.7265
C16_6 C 0.37075(12) 0.71672(10) 0.7859(3)
H8_5 H 0.3917 0.7235 0.7206
C17_6 C 0.41156(13) 0.81012(10) 0.7580(4)
Mn2_4 Mn 0.295258(12) 0.518750(11) 0.75889(3)
O6_4 O 0.29171(5) 0.49652(5) 0.96676(16)
O7_4 O 0.21381(5) 0.51802(5) 0.81491(17)
F1_6 F 0.53297(7) 0.30250(8) 0.4743(2)
F2_7 F 0.49800(6) 0.30007(6) 0.7167(3)
F3_7 F 0.57233(6) 0.28761(6) 0.7266(2)
F4_7 F 0.60453(6) 0.32169(8) 0.5094(2)
F5_7 F 0.53971(6) 0.33788(7) 0.8513(2)
F6_6 F 0.55894(7) 0.36990(9) 0.4134(2)
O1_7 O 0.74652(5) 0.45829(5) 0.78324(16)
O2_7 O 0.71381(5) 0.51802(5) 0.68509(17)
O3_7 O 0.35785(6) 0.48642(6) 0.71846(19)
C1_7 C 0.66789(8) 0.44868(8) 0.7137(2)
C2_8 C 0.50000(8) 0.38802(8) 0.6284(3)
C3_7 C 0.71128(8) 0.47648(8) 0.7288(2)
C4_7 C 0.59113(8) 0.43779(9) 0.6232(3)
H1_7 H 0.5662 0.4493 0.5752
C5_7 C 0.58873(7) 0.39291(8) 0.6731(3)
C6_7 C 0.62996(8) 0.46561(9) 0.6436(3)
H2_7 H 0.6309 0.4958 0.6105
C7_7 C 0.44640(9) 0.44178(10) 0.7261(3)
H3_7 H 0.4398 0.4630 0.7909
C8_7 C 0.36557(8) 0.45517(8) 0.6372(2)
C9_7 C 0.53936(9) 0.32131(10) 0.7337(4)
C10_7 C 0.41289(8) 0.43286(8) 0.6343(2)
C11_7 C 0.48919(8) 0.41990(9) 0.7235(3)
H4_7 H 0.5112 0.4265 0.7863
C12_7 C 0.66500(9) 0.40388(9) 0.7666(3)
H5_7 H 0.6895 0.3925 0.8161
C13_7 C 0.62577(9) 0.37640(9) 0.7456(3)
H6_7 H 0.6243 0.3465 0.7806
C14_7 C 0.54688(8) 0.36060(8) 0.6353(3)
C15_7 C 0.42384(9) 0.40108(11) 0.5392(3)
H7_6 H 0.4018 0.3944 0.4765
C16_7 C 0.46672(10) 0.37925(12) 0.5359(3)
H8_6 H 0.4735 0.3583 0.4706
C17_7 C 0.56012(10) 0.33844(13) 0.5080(4)
F2_8 F 0.00200(6) 0.69993(6) 0.2167(3)
O3_8 O 0.14215(6) 0.51358(6) 0.21846(19)
C2_9 C 0.00000(8) 0.61198(8) 0.1284(3)
C7_8 C 0.05360(9) 0.55822(10) 0.2261(3)
H3_8 H 0.0602 0.5370 0.2909
C8_8 C 0.13443(8) 0.54483(8) 0.1372(2)
C10_8 C 0.08711(8) 0.56714(8) 0.1343(2)
C11_8 C 0.01081(8) 0.58010(9) 0.2235(3)
C15_8 C 0.07616(9) 0.59892(11) 0.0392(3)
C16_8 C 0.03328(10) 0.62075(12) 0.0359(3)
F3_8 F 0.92767(6) 0.71239(6) 0.2266(2)
F4_8 F 0.89547(6) 0.67831(8) 0.0094(2)
F5_8 F 0.96029(6) 0.66212(7) 0.3513(2)
O1_8 O 0.75348(5) 0.54171(5) 0.28324(16)
O2_8 O 0.78619(5) 0.48198(5) 0.18509(17)
C1_8 C 0.83211(8) 0.55132(8) 0.2137(2)
C2_10 C 1.00000(8) 0.61198(8) 0.1284(3)
C3_8 C 0.78872(8) 0.52352(8) 0.2288(2)
C4_8 C 0.90887(8) 0.56221(9) 0.1232(3)
H1_8 H 0.9338 0.5507 0.0752
C5_8 C 0.91127(7) 0.60709(8) 0.1731(3)
C6_8 C 0.87004(8) 0.53439(9) 0.1436(3)
H2_8 H 0.8691 0.5042 0.1105
C9_8 C 0.96064(9) 0.67869(10) 0.2337(4)
H4_8 H 0.9888 0.5735 0.2863
C12_8 C 0.83500(9) 0.59612(9) 0.2666(3)
H5_8 H 0.8105 0.6075 0.3161
C13_8 C 0.87423(9) 0.62360(9) 0.2456(3)
H6_8 H 0.8757 0.6535 0.2806
C14_8 C 0.95312(8) 0.63940(8) 0.1353(3)
C17_8 C 0.93988(10) 0.66156(13) 0.0080(4)
F1_7 F 0.96703(7) 0.69750(8) 0.9743(2)
F6_7 F 0.94106(7) 0.63010(9) 0.9134(2)
F1_8 F 0.44750(8) 0.28297(7) 0.2757(2)
F2_9 F 0.44993(6) 0.24800(6) 0.0333(3)
F3_9 F 0.46239(6) 0.32233(6) 0.0234(2)
F4_9 F 0.42831(8) 0.35453(6) 0.2406(2)
F6_8 F 0.38010(9) 0.30894(7) 0.3366(2)
O3_9 O 0.26358(6) 0.10785(6) 0.03154(19)
O4_5 O 0.30940(6) 0.08621(6) 0.19295(19)
C1_9 C 0.30132(8) 0.41789(8) 0.0363(2)
C2_11 C 0.36198(8) 0.25000(8) 0.1216(3)
C3_9 C 0.27352(8) 0.46128(8) 0.0212(2)
C4_9 C 0.31221(9) 0.34113(8) 0.1268(3)
H1_9 H 0.3007 0.3162 0.1748
C5_9 C 0.35709(8) 0.33873(7) 0.0769(3)
C6_9 C 0.28439(9) 0.37996(8) 0.1064(3)
H2_9 H 0.2542 0.3809 0.1395
C7_9 C 0.30822(10) 0.19640(9) 0.0239(3)
C8_9 C 0.29483(8) 0.11557(8) 0.1128(2)
C9_9 C 0.42869(10) 0.28936(9) 0.0163(4)
C10_9 C 0.31714(8) 0.16289(8) 0.1157(2)
C11_9 C 0.33010(9) 0.23919(8) 0.0265(3)
C13_9 C 0.37360(9) 0.37577(9) 0.0044(3)
C14_9 C 0.38940(8) 0.29688(8) 0.1147(3)
C15_9 C 0.34892(11) 0.17384(9) 0.2108(3)
H7_7 H 0.3556 0.1518 0.2735
C16_9 C 0.37075(12) 0.21672(10) 0.2141(3)
H8_7 H 0.3917 0.2235 0.2794
C17_9 C 0.41156(13) 0.31012(10) 0.2420(4)
F5_9 F 0.41212(7) 0.28971(6) 0.8987(2)
H3_9 H 0.2870 0.1898 0.9591
H4_9 H 0.3235 0.2612 0.9637
C12_9 C 0.34612(9) 0.41500(9) 0.9834(3)
H5_9 H 0.3575 0.4395 0.9339
H6_9 H 0.4035 0.3743 0.9694
O9_5 O 0.16379(6) 0.05940(6) 0.94295(19)
F1_9 F 0.05250(8) 0.71703(7) 0.7757(2)
F2_10 F 0.05007(6) 0.75200(6) 0.5333(3)
F3_10 F 0.03761(6) 0.67767(6) 0.5234(2)
F4_10 F 0.07169(8) 0.64547(6) 0.7406(2)
F5_10 F 0.08788(7) 0.71029(6) 0.3987(2)
F6_9 F 0.11990(9) 0.69106(7) 0.8366(2)
O3_10 O 0.23642(6) 0.89215(6) 0.53154(19)
O4_6 O 0.19060(6) 0.91379(6) 0.69295(19)
C1_10 C 0.19868(8) 0.58211(8) 0.5363(2)
C2_12 C 0.13802(8) 0.75000(8) 0.6216(3)
C3_10 C 0.22648(8) 0.53872(8) 0.5212(2)
C4_10 C 0.18779(9) 0.65887(8) 0.6268(3)
H1_10 H 0.1993 0.6838 0.6748
C5_10 C 0.14291(8) 0.66127(7) 0.5769(3)
C6_10 C 0.21561(9) 0.62004(8) 0.6064(3)
H2_10 H 0.2458 0.6191 0.6395
C7_10 C 0.19178(10) 0.80360(9) 0.5239(3)
H3_10 H 0.2130 0.8102 0.4591
C8_10 C 0.20517(8) 0.88443(8) 0.6128(2)
C9_10 C 0.07131(10) 0.71064(9) 0.5163(4)
C10_10 C 0.18286(8) 0.83711(8) 0.6157(2)
C11_10 C 0.16990(9) 0.76081(8) 0.5265(3)
H4_10 H 0.1765 0.7388 0.4637
C12_10 C 0.15388(9) 0.58500(9) 0.4834(3)
H5_10 H 0.1425 0.5605 0.4339
C13_10 C 0.12640(9) 0.62423(9) 0.5044(3)
H6_10 H 0.0965 0.6257 0.4694
C14_10 C 0.11060(8) 0.70312(8) 0.6147(3)
C15_10 C 0.15108(11) 0.82616(9) 0.7108(3)
H7_8 H 0.1444 0.8482 0.7735
C16_10 C 0.12925(12) 0.78328(10) 0.7141(3)
H8_8 H 0.1083 0.7765 0.7794
C17_10 C 0.08844(13) 0.68988(10) 0.7420(4)
O9_6 O 0.33621(6) 0.94060(6) 0.44295(19)
F2_11 F 0.00200(6) 0.19993(6) 0.7833(3)
O3_11 O 0.14215(6) 0.01358(6) 0.78154(19)
C2_13 C 0.00000(8) 0.11198(8) 0.8716(3)
C7_11 C 0.05360(9) 0.05822(10) 0.7739(3)
H3_11 H 0.0602 0.0370 0.7091
C8_11 C 0.13443(8) 0.04483(8) 0.8628(2)
C10_11 C 0.08711(8) 0.06714(8) 0.8657(2)
C11_11 C 0.01081(8) 0.08010(9) 0.7765(3)
C15_11 C 0.07616(9) 0.09892(11) 0.9608(3)
C16_11 C 0.03328(10) 0.12075(12) 0.9641(3)
F3_11 F 0.92767(6) 0.21239(6) 0.7734(2)
F4_11 F 0.89547(6) 0.17831(8) 0.9906(2)
F5_11 F 0.96029(6) 0.16212(7) 0.6487(2)
C1_11 C 0.83211(8) 0.05132(8) 0.7863(2)
C2_14 C 1.00000(8) 0.11198(8) 0.8716(3)
C3_11 C 0.78872(8) 0.02352(8) 0.7712(2)
C4_11 C 0.90887(8) 0.06221(9) 0.8768(3)
H1_11 H 0.9338 0.0507 0.9248
C5_11 C 0.91127(7) 0.10709(8) 0.8269(3)
C6_11 C 0.87004(8) 0.03439(9) 0.8564(3)
H2_11 H 0.8691 0.0042 0.8895
C9_11 C 0.96064(9) 0.17869(10) 0.7663(4)
H4_11 H 0.9888 0.0735 0.7137
C12_11 C 0.83500(9) 0.09612(9) 0.7334(3)
H5_11 H 0.8105 0.1075 0.6839
C13_11 C 0.87423(9) 0.12360(9) 0.7544(3)
H6_11 H 0.8757 0.1535 0.7194
C14_11 C 0.95312(8) 0.13940(8) 0.8647(3)
C17_11 C 0.93988(10) 0.16156(13) 0.9920(4)
F1_10 F 0.53297(7) 0.80250(8) 0.5257(2)
F2_12 F 0.49800(6) 0.80007(6) 0.2833(3)
F3_12 F 0.57233(6) 0.78761(6) 0.2734(2)
F4_12 F 0.60453(6) 0.82169(8) 0.4906(2)
F5_12 F 0.53971(6) 0.83788(7) 0.1487(2)
F6_10 F 0.55894(7) 0.86990(9) 0.5866(2)
O3_12 O 0.35785(6) 0.98642(6) 0.28154(19)
C1_12 C 0.66789(8) 0.94868(8) 0.2863(2)
C2_15 C 0.50000(8) 0.88802(8) 0.3716(3)
C3_12 C 0.71128(8) 0.97648(8) 0.2712(2)
C4_12 C 0.59113(8) 0.93779(9) 0.3768(3)
H1_12 H 0.5662 0.9493 0.4248
C5_12 C 0.58873(7) 0.89291(8) 0.3269(3)
C6_12 C 0.62996(8) 0.96561(9) 0.3564(3)
H2_12 H 0.6309 0.9958 0.3895
C7_12 C 0.44640(9) 0.94178(10) 0.2739(3)
H3_12 H 0.4398 0.9630 0.2091
C8_12 C 0.36557(8) 0.95517(8) 0.3628(2)
C9_12 C 0.53936(9) 0.82131(10) 0.2663(4)
C10_12 C 0.41289(8) 0.93286(8) 0.3657(2)
C11_12 C 0.48919(8) 0.91990(9) 0.2765(3)
H4_12 H 0.5112 0.9265 0.2137
C12_12 C 0.66500(9) 0.90388(9) 0.2334(3)
H5_12 H 0.6895 0.8925 0.1839
C13_12 C 0.62577(9) 0.87640(9) 0.2544(3)
H6_12 H 0.6243 0.8465 0.2194
C14_12 C 0.54688(8) 0.86060(8) 0.3647(3)
C15_12 C 0.42384(9) 0.90108(11) 0.4608(3)
H7_9 H 0.4018 0.8944 0.5235
C16_12 C 0.46672(10) 0.87925(12) 0.4641(3)
H8_9 H 0.4735 0.8583 0.5294
C17_12 C 0.56012(10) 0.83844(13) 0.4920(4)
F1_11 F 0.94750(8) 0.78297(7) 0.7757(2)
F2_13 F 0.94993(6) 0.74800(6) 0.5333(3)
F3_13 F 0.96239(6) 0.82233(6) 0.5234(2)
F4_13 F 0.92831(8) 0.85453(6) 0.7406(2)
F5_13 F 0.91212(7) 0.78971(6) 0.3987(2)
F6_11 F 0.88010(9) 0.80894(7) 0.8366(2)
O3_13 O 0.76358(6) 0.60785(6) 0.53154(19)
O4_7 O 0.80940(6) 0.58621(6) 0.69295(19)
C1_13 C 0.80132(8) 0.91789(8) 0.5363(2)
C2_16 C 0.86198(8) 0.75000(8) 0.6216(3)
C3_13 C 0.77352(8) 0.96128(8) 0.5212(2)
C4_13 C 0.81221(9) 0.84113(8) 0.6268(3)
H1_13 H 0.8007 0.8162 0.6748
C5_13 C 0.85709(8) 0.83873(7) 0.5769(3)
C6_13 C 0.78439(9) 0.87996(8) 0.6064(3)
H2_13 H 0.7542 0.8809 0.6395
C7_13 C 0.80822(10) 0.69640(9) 0.5239(3)
H3_13 H 0.7870 0.6898 0.4591
C8_13 C 0.79483(8) 0.61557(8) 0.6128(2)
C9_13 C 0.92869(10) 0.78936(9) 0.5163(4)
C10_13 C 0.81714(8) 0.66289(8) 0.6157(2)
C11_13 C 0.83010(9) 0.73919(8) 0.5265(3)
H4_13 H 0.8235 0.7612 0.4637
C12_13 C 0.84612(9) 0.91500(9) 0.4834(3)
H5_13 H 0.8575 0.9395 0.4339
C13_13 C 0.87360(9) 0.87577(9) 0.5044(3)
H6_13 H 0.9035 0.8743 0.4694
C14_13 C 0.88940(8) 0.79688(8) 0.6147(3)
C15_13 C 0.84892(11) 0.67384(9) 0.7108(3)
H7_10 H 0.8556 0.6518 0.7735
C16_13 C 0.87075(12) 0.71672(10) 0.7141(3)
H8_10 H 0.8917 0.7235 0.7794
C17_13 C 0.91156(13) 0.81012(10) 0.7420(4)
O9_7 O 0.66379(6) 0.55940(6) 0.44295(19)
F1_12 F 0.55250(8) 0.21703(7) 0.2757(2)
F2_14 F 0.55007(6) 0.25200(6) 0.0333(3)
F3_14 F 0.53761(6) 0.17767(6) 0.0234(2)
F4_14 F 0.57169(8) 0.14547(6) 0.2406(2)
F6_12 F 0.61990(9) 0.19106(7) 0.3366(2)
O3_14 O 0.73642(6) 0.39215(6) 0.03154(19)
O4_8 O 0.69060(6) 0.41379(6) 0.19295(19)
C1_14 C 0.69868(8) 0.08211(8) 0.0363(2)
C2_17 C 0.63802(8) 0.25000(8) 0.1216(3)
C3_14 C 0.72648(8) 0.03872(8) 0.0212(2)
C4_14 C 0.68779(9) 0.15887(8) 0.1268(3)
H1_14 H 0.6993 0.1838 0.1748
C5_14 C 0.64291(8) 0.16127(7) 0.0769(3)
C6_14 C 0.71561(9) 0.12004(8) 0.1064(3)
H2_14 H 0.7458 0.1191 0.1395
C7_14 C 0.69178(10) 0.30360(9) 0.0239(3)
C8_14 C 0.70517(8) 0.38443(8) 0.1128(2)
C9_14 C 0.57131(10) 0.21064(9) 0.0163(4)
C10_14 C 0.68286(8) 0.33711(8) 0.1157(2)
C11_14 C 0.66990(9) 0.26081(8) 0.0265(3)
C13_14 C 0.62640(9) 0.12423(9) 0.0044(3)
C14_14 C 0.61060(8) 0.20312(8) 0.1147(3)
C15_14 C 0.65108(11) 0.32616(9) 0.2108(3)
H7_11 H 0.6444 0.3482 0.2735
C16_14 C 0.62925(12) 0.28328(10) 0.2141(3)
H8_11 H 0.6083 0.2765 0.2794
C17_14 C 0.58844(13) 0.18988(10) 0.2420(4)
F5_14 F 0.58788(7) 0.21029(6) 0.8987(2)
H3_14 H 0.7130 0.3102 0.9591
H4_14 H 0.6765 0.2388 0.9637
C12_14 C 0.65388(9) 0.08500(9) 0.9834(3)
H5_14 H 0.6425 0.0605 0.9339
H6_14 H 0.5965 0.1257 0.9694
O9_8 O 0.83621(6) 0.44060(6) 0.94295(19)
F1_13 F 0.46703(7) 0.69750(8) 0.5257(2)
F2_15 F 0.50200(6) 0.69993(6) 0.2833(3)
F3_15 F 0.42767(6) 0.71239(6) 0.2734(2)
F4_15 F 0.39547(6) 0.67831(8) 0.4906(2)
F5_15 F 0.46029(6) 0.66212(7) 0.1487(2)
F6_13 F 0.44106(7) 0.63010(9) 0.5866(2)
O3_15 O 0.64215(6) 0.51358(6) 0.28154(19)
C1_15 C 0.33211(8) 0.55132(8) 0.2863(2)
C2_18 C 0.50000(8) 0.61198(8) 0.3716(3)
C3_15 C 0.28872(8) 0.52352(8) 0.2712(2)
C4_15 C 0.40887(8) 0.56221(9) 0.3768(3)
H1_15 H 0.4338 0.5507 0.4248
C5_15 C 0.41127(7) 0.60709(8) 0.3269(3)
C6_15 C 0.37004(8) 0.53439(9) 0.3564(3)
H2_15 H 0.3691 0.5042 0.3895
C7_15 C 0.55360(9) 0.55822(10) 0.2739(3)
H3_15 H 0.5602 0.5370 0.2091
C8_15 C 0.63443(8) 0.54483(8) 0.3628(2)
C9_15 C 0.46064(9) 0.67869(10) 0.2663(4)
C10_15 C 0.58711(8) 0.56714(8) 0.3657(2)
C11_15 C 0.51081(8) 0.58010(9) 0.2765(3)
H4_15 H 0.4888 0.5735 0.2137
C12_15 C 0.33500(9) 0.59612(9) 0.2334(3)
H5_15 H 0.3105 0.6075 0.1839
C13_15 C 0.37423(9) 0.62360(9) 0.2544(3)
H6_15 H 0.3757 0.6535 0.2194
C14_15 C 0.45312(8) 0.63940(8) 0.3647(3)
C15_15 C 0.57616(9) 0.59892(11) 0.4608(3)
H7_12 H 0.5982 0.6056 0.5235
C16_15 C 0.53328(10) 0.62075(12) 0.4641(3)
H8_12 H 0.5265 0.6417 0.5294
C17_15 C 0.43988(10) 0.66156(13) 0.4920(4)
F1_14 F 0.03297(7) 0.30250(8) 0.0257(2)
F6_14 F 0.05894(7) 0.36990(9) 0.0866(2)
F3_16 F 0.07233(6) 0.28761(6) 0.7734(2)
F4_16 F 0.10453(6) 0.32169(8) 0.9906(2)
F5_16 F 0.03971(6) 0.33788(7) 0.6487(2)
C1_16 C 0.16789(8) 0.44868(8) 0.7863(2)
C2_19 C -0.00000(8) 0.38802(8) 0.8716(3)
C3_16 C 0.21128(8) 0.47648(8) 0.7712(2)
C4_16 C 0.09113(8) 0.43779(9) 0.8768(3)
H1_16 H 0.0662 0.4493 0.9248
C5_16 C 0.08873(7) 0.39291(8) 0.8269(3)
C6_16 C 0.12996(8) 0.46561(9) 0.8564(3)
H2_16 H 0.1309 0.4958 0.8895
C9_16 C 0.03936(9) 0.32131(10) 0.7663(4)
H4_16 H 0.0112 0.4265 0.7137
C12_16 C 0.16500(9) 0.40388(9) 0.7334(3)
H5_16 H 0.1895 0.3925 0.6839
C13_16 C 0.12577(9) 0.37640(9) 0.7544(3)
H6_16 H 0.1243 0.3465 0.7194
C14_16 C 0.04688(8) 0.36060(8) 0.8647(3)
C17_16 C 0.06012(10) 0.33844(13) 0.9920(4)
F2_16 F 0.99800(6) 0.30007(6) 0.7833(3)
O3_16 O 0.85785(6) 0.48642(6) 0.78154(19)
C2_20 C 1.00000(8) 0.38802(8) 0.8716(3)
C7_16 C 0.94640(9) 0.44178(10) 0.7739(3)
H3_16 H 0.9398 0.4630 0.7091
C8_16 C 0.86557(8) 0.45517(8) 0.8628(2)
C10_16 C 0.91289(8) 0.43286(8) 0.8657(2)
C11_16 C 0.98919(8) 0.41990(9) 0.7765(3)
C15_16 C 0.92384(9) 0.40108(11) 0.9608(3)
C16_16 C 0.96672(10) 0.37925(12) 0.9641(3)
F1_15 F 0.03297(7) 0.80250(8) 0.9743(2)
F6_15 F 0.05894(7) 0.86990(9) 0.9134(2)
H7_13 H 0.9018 0.8944 0.9765
H8_13 H 0.9735 0.8583 0.9706
H7_14 H 0.0982 0.6056 0.9765
H8_14 H 0.0265 0.6417 0.9706
H7_15 H 0.0982 0.1056 0.0235
H8_15 H 0.0265 0.1417 0.0294
F1_16 F 0.96703(7) 0.19750(8) 0.0257(2)
F6_16 F 0.94106(7) 0.13010(9) 0.0866(2)
H7_16 H 0.9018 0.3944 0.0235
H8_16 H 0.9735 0.3583 0.0294
loop_
_geom_bond_atom_site_label_1
_geom_bond_atom_site_label_2
_geom_bond_site_symmetry_1
_geom_bond_site_symmetry_2
H5 C12 1_555 1_555
Mn4 O1 1_555 1_555
O5 Mn1 1_555 1_555
O9 Mn1 1_555 1_555
F1 C17 1_555 1_555
F2 C9 1_555 1_555
F3 C9 1_555 1_555
F4 C17 1_555 1_555
F6 C17 1_555 1_555
O2 C3 1_555 1_555
O3 C8 1_555 1_555
O4 C8 1_555 1_555
C1 C3 1_555 1_555
C2 C11 1_555 1_555
C4 H1 1_555 1_555
C5 C4 1_555 1_555
C6 C1 1_555 1_555
H2 C6 1_555 1_555
C8 C10 1_555 1_555
C9 C14 1_555 1_555
C10 C7 1_555 1_555
C11 C7 1_555 1_555
C13 C5 1_555 1_555
C14 C2 1_555 1_555
C15 C10 1_555 1_555
H7 C15 1_555 1_555
C16 C2 1_555 1_555
H8 C16 1_555 1_555
C17 C14 1_555 1_555
Mn2 O4 1_555 1_555
Mn5 O2 1_555 1_555
O2 Mn3 1_555 1_555
C4 C6 1_555 1_555
C5 C14 1_555 1_555
C15 C16 1_555 1_555
Mn2 O7 1_555 1_555
F1_2 C17_2 1_555 1_555
F2_2 C9_2 1_555 1_555
F3_2 C9_2 1_555 1_555
F4_2 C17_2 1_555 1_555
F5_2 C9_2 1_555 1_555
F6_2 C17_2 1_555 1_555
Mn1_2 O3_2 1_555 1_555
O1_2 C3_2 1_555 1_555
O2_2 C3_2 1_555 1_555
O3_2 C8_2 1_555 1_555
O4_2 C8_2 1_555 1_555
C1_2 C3_2 1_555 1_555
C2_2 C11_2 1_555 1_555
C4_2 H1_2 1_555 1_555
C5_2 C4_2 1_555 1_555
C6_2 C1_2 1_555 1_555
H2_2 C6_2 1_555 1_555
C7_2 H3_2 1_555 1_555
C8_2 C10_2 1_555 1_555
C9_2 C14_2 1_555 1_555
C10_2 C7_2 1_555 1_555
C11_2 C7_2 1_555 1_555
H4_2 C11_2 1_555 1_555
C12_2 C1_2 1_555 1_555
H5_2 C12_2 1_555 1_555
C13_2 C5_2 1_555 1_555
H6_2 C13_2 1_555 1_555
C14_2 C2_2 1_555 1_555
C15_2 C10_2 1_555 1_555
H7_2 C15_2 1_555 1_555
C16_2 C2_2 1_555 1_555
H8_2 C16_2 1_555 1_555
C17_2 C14_2 1_555 1_555
Mn2_2 O4_2 1_555 1_555
Mn3_2 O1_2 1_555 1_555
Mn5 O1_2 1_555 1_555
Mn4 O2_2 1_555 1_555
O5_2 Mn1_2 1_555 1_555
O7_2 Mn1_2 1_555 1_555
O9_2 Mn1_2 1_555 1_555
O2_2 Mn3_2 1_555 1_555
C4_2 C6_2 1_555 1_555
C5_2 C14_2 1_555 1_555
C12_2 C13_2 1_555 1_555
C15_2 C16_2 1_555 1_555
Mn2_2 O7_2 1_555 1_555
O2_3 Mn3_3 1_555 1_555
F3_3 C9_3 1_555 1_555
F4_3 C17_3 1_555 1_555
F5_3 C9_3 1_555 1_555
O1_3 C3_3 1_555 1_555
C1_3 C3_3 1_555 1_555
C4_3 H1_3 1_555 1_555
C5_3 C4_3 1_555 1_555
C6_3 C1_3 1_555 1_555
H2_3 C6_3 1_555 1_555
C9_3 C14_3 1_555 1_555
C12_3 C1_3 1_555 1_555
H5_3 C12_3 1_555 1_555
C13_3 C5_3 1_555 1_555
H6_3 C13_3 1_555 1_555
C14_3 C2_3 1_555 1_555
C17_3 C14_3 1_555 1_555
Mn4_2 O1_3 1_555 1_555
C4_3 C6_3 1_555 1_555
C5_3 C14_3 1_555 1_555
C12_3 C13_3 1_555 1_555
O8 Mn2_2 1_555 1_555
O3_3 C8_3 1_555 1_555
O9 C8_3 1_555 1_555
C2_4 C11_3 1_555 1_555
C7_3 H3_3 1_555 1_555
C8_3 C10_3 1_555 1_555
C10_3 C7_3 1_555 1_555
C11_3 C7_3 1_555 1_555
C15_3 C10_3 1_555 1_555
C16_3 C2_4 1_555 1_555
C15_3 C16_3 1_555 1_555
F1_3 C17_4 1_555 1_555
F2_4 C9_4 1_555 1_555
F3_4 C9_4 1_555 1_555
F4_4 C17_4 1_555 1_555
F5_4 C9_4 1_555 1_555
F6_3 C17_4 1_555 1_555
O1_4 C3_4 1_555 1_555
O3_4 C8_4 1_555 1_555
O9_2 C8_4 1_555 1_555
C1_4 C3_4 1_555 1_555
C2_5 C11_4 1_555 1_555
C4_4 H1_4 1_555 1_555
C5_4 C4_4 1_555 1_555
C6_4 C1_4 1_555 1_555
H2_4 C6_4 1_555 1_555
C7_4 H3_4 1_555 1_555
C8_4 C10_4 1_555 1_555
C9_4 C14_4 1_555 1_555
C10_4 C7_4 1_555 1_555
C11_4 C7_4 1_555 1_555
H4_4 C11_4 1_555 1_555
C12_4 C1_4 1_555 1_555
H5_4 C12_4 1_555 1_555
C13_4 C5_4 1_555 1_555
H6_4 C13_4 1_555 1_555
C14_4 C2_5 1_555 1_555
C15_4 C10_4 1_555 1_555
H7_3 C15_4 1_555 1_555
C16_4 C2_5 1_555 1_555
H8_3 C16_4 1_555 1_555
C17_4 C14_4 1_555 1_555
Mn5_2 O1_4 1_555 1_555
C4_4 C6_4 1_555 1_555
C5_4 C14_4 1_555 1_555
C12_4 C13_4 1_555 1_555
C15_4 C16_4 1_555 1_555
Mn4_2 O2_4 1_555 1_555
O8_2 Mn2 1_555 1_555
O2_4 Mn3_4 1_555 1_555
F1_4 C17_5 1_555 1_555
F2_5 C9_5 1_555 1_555
F3_5 C9_5 1_555 1_555
F4_5 C17_5 1_555 1_555
F5_5 C9_5 1_555 1_555
F6_4 C17_5 1_555 1_555
Mn1_3 O3_5 1_555 1_555
O1_5 C3_5 1_555 1_555
O2_5 C3_5 1_555 1_555
O3_5 C8_5 1_555 1_555
O4_3 C8_5 1_555 1_555
C1_5 C3_5 1_555 1_555
C2_6 C11_5 1_555 1_555
C4_5 H1_5 1_555 1_555
C5_5 C4_5 1_555 1_555
C6_5 C1_5 1_555 1_555
H2_5 C6_5 1_555 1_555
C7_5 H3_5 1_555 1_555
C8_5 C10_5 1_555 1_555
C9_5 C14_5 1_555 1_555
C10_5 C7_5 1_555 1_555
C11_5 C7_5 1_555 1_555
H4_5 C11_5 1_555 1_555
C12_5 C1_5 1_555 1_555
H5_5 C12_5 1_555 1_555
C13_5 C5_5 1_555 1_555
H6_5 C13_5 1_555 1_555
C14_5 C2_6 1_555 1_555
C15_5 C10_5 1_555 1_555
H7_4 C15_5 1_555 1_555
C16_5 C2_6 1_555 1_555
H8_4 C16_5 1_555 1_555
C17_5 C14_5 1_555 1_555
Mn2_3 O4_3 1_555 1_555
Mn3_3 O2_5 1_555 1_555
O5_3 Mn1_3 1_555 1_555
O6_3 Mn1_3 1_555 1_555
O7_3 Mn1_3 1_555 1_555
O8_3 Mn1_3 1_555 1_555
O9_3 Mn1_3 1_555 1_555
C4_5 C6_5 1_555 1_555
C5_5 C14_5 1_555 1_555
C12_5 C13_5 1_555 1_555
C15_5 C16_5 1_555 1_555
Mn2_3 O6_3 1_555 1_555
Mn2_3 O7_3 1_555 1_555
H5_6 C12_6 1_555 1_555
O5_4 Mn1_4 1_555 1_555
O8_4 Mn1_4 1_555 1_555
O9_4 Mn1_4 1_555 1_555
F1_5 C17_6 1_555 1_555
F2_6 C9_6 1_555 1_555
F3_6 C9_6 1_555 1_555
F4_6 C17_6 1_555 1_555
F6_5 C17_6 1_555 1_555
O2_6 C3_6 1_555 1_555
O3_6 C8_6 1_555 1_555
O4_4 C8_6 1_555 1_555
C1_6 C3_6 1_555 1_555
C2_7 C11_6 1_555 1_555
C4_6 H1_6 1_555 1_555
C5_6 C4_6 1_555 1_555
C6_6 C1_6 1_555 1_555
H2_6 C6_6 1_555 1_555
C8_6 C10_6 1_555 1_555
C9_6 C14_6 1_555 1_555
C10_6 C7_6 1_555 1_555
C11_6 C7_6 1_555 1_555
C13_6 C5_6 1_555 1_555
C14_6 C2_7 1_555 1_555
C15_6 C10_6 1_555 1_555
H7_5 C15_6 1_555 1_555
C16_6 C2_7 1_555 1_555
H8_5 C16_6 1_555 1_555
C17_6 C14_6 1_555 1_555
Mn2_4 O4_4 1_555 1_555
Mn3_4 O2_6 1_555 1_555
C4_6 C6_6 1_555 1_555
C5_6 C14_6 1_555 1_555
C15_6 C16_6 1_555 1_555
Mn2_4 O6_4 1_555 1_555
Mn2_4 O7_4 1_555 1_555
F1_6 C17_7 1_555 1_555
F2_7 C9_7 1_555 1_555
F3_7 C9_7 1_555 1_555
F4_7 C17_7 1_555 1_555
F5_7 C9_7 1_555 1_555
F6_6 C17_7 1_555 1_555
Mn2_4 O3_7 1_555 1_555
O1_7 C3_7 1_555 1_555
O2_7 C3_7 1_555 1_555
O3_7 C8_7 1_555 1_555
O9_3 C8_7 1_555 1_555
C1_7 C3_7 1_555 1_555
C2_8 C11_7 1_555 1_555
C4_7 H1_7 1_555 1_555
C5_7 C4_7 1_555 1_555
C6_7 C1_7 1_555 1_555
H2_7 C6_7 1_555 1_555
C7_7 H3_7 1_555 1_555
C8_7 C10_7 1_555 1_555
C9_7 C14_7 1_555 1_555
C10_7 C7_7 1_555 1_555
C11_7 C7_7 1_555 1_555
H4_7 C11_7 1_555 1_555
C12_7 C1_7 1_555 1_555
H5_7 C12_7 1_555 1_555
C13_7 C5_7 1_555 1_555
H6_7 C13_7 1_555 1_555
C14_7 C2_8 1_555 1_555
C15_7 C10_7 1_555 1_555
H7_6 C15_7 1_555 1_555
C16_7 C2_8 1_555 1_555
H8_6 C16_7 1_555 1_555
C17_7 C14_7 1_555 1_555
Mn5 O1_7 1_555 1_555
Mn3 O1_7 1_555 1_555
Mn3_2 O2_7 1_555 1_555
O5_3 Mn2_4 1_555 1_555
O8_3 Mn2_4 1_555 1_555
O2_7 Mn5 1_555 1_555
C4_7 C6_7 1_555 1_555
C5_7 C14_7 1_555 1_555
C12_7 C13_7 1_555 1_555
C15_7 C16_7 1_555 1_555
Mn2_3 O3_8 1_555 1_555
O3_8 C8_8 1_555 1_555
O9_4 C8_8 1_555 1_555
C2_9 C11_8 1_555 1_555
C7_8 H3_8 1_555 1_555
C8_8 C10_8 1_555 1_555
C10_8 C7_8 1_555 1_555
C11_8 C7_8 1_555 1_555
C15_8 C10_8 1_555 1_555
C16_8 C2_9 1_555 1_555
O5_4 Mn2_3 1_555 1_555
O8_4 Mn2_3 1_555 1_555
C15_8 C16_8 1_555 1_555
F3_8 C9_8 1_555 1_555
F4_8 C17_8 1_555 1_555
F5_8 C9_8 1_555 1_555
O1_8 C3_8 1_555 1_555
O2_8 C3_8 1_555 1_555
C1_8 C3_8 1_555 1_555
C4_8 H1_8 1_555 1_555
C5_8 C4_8 1_555 1_555
C6_8 C1_8 1_555 1_555
H2_8 C6_8 1_555 1_555
C9_8 C14_8 1_555 1_555
C12_8 C1_8 1_555 1_555
H5_8 C12_8 1_555 1_555
C13_8 C5_8 1_555 1_555
H6_8 C13_8 1_555 1_555
C14_8 C2_10 1_555 1_555
C17_8 C14_8 1_555 1_555
Mn4 O1_8 1_555 1_555
Mn3_2 O1_8 1_555 1_555
O2_8 Mn4 1_555 1_555
C4_8 C6_8 1_555 1_555
C5_8 C14_8 1_555 1_555
C12_8 C13_8 1_555 1_555
F1_8 C17_9 1_555 1_555
F2_9 C9_9 1_555 1_555
F3_9 C9_9 1_555 1_555
F4_9 C17_9 1_555 1_555
F6_8 C17_9 1_555 1_555
O8_4 C3_9 1_555 1_555
O3_9 C8_9 1_555 1_555
O4_5 C8_9 1_555 1_555
C1_9 C3_9 1_555 1_555
C2_11 C11_9 1_555 1_555
C4_9 H1_9 1_555 1_555
C5_9 C4_9 1_555 1_555
C6_9 C1_9 1_555 1_555
H2_9 C6_9 1_555 1_555
C8_9 C10_9 1_555 1_555
C9_9 C14_9 1_555 1_555
C10_9 C7_9 1_555 1_555
C11_9 C7_9 1_555 1_555
C13_9 C5_9 1_555 1_555
C14_9 C2_11 1_555 1_555
C15_9 C10_9 1_555 1_555
H7_7 C15_9 1_555 1_555
C16_9 C2_11 1_555 1_555
H8_7 C16_9 1_555 1_555
C17_9 C14_9 1_555 1_555
Mn3_3 O4_5 1_555 1_555
C4_9 C6_9 1_555 1_555
C5_9 C14_9 1_555 1_555
C15_9 C16_9 1_555 1_555
H5_9 C12_9 1_555 1_555
O9_5 Mn5_2 1_555 1_555
F1_9 C17_10 1_555 1_555
F2_10 C9_10 1_555 1_555
F3_10 C9_10 1_555 1_555
F4_10 C17_10 1_555 1_555
F5_10 C9_10 1_555 1_555
F6_9 C17_10 1_555 1_555
Mn4_2 O3_10 1_555 1_555
O6_3 C3_10 1_555 1_555
O8_3 C3_10 1_555 1_555
O3_10 C8_10 1_555 1_555
O4_6 C8_10 1_555 1_555
C1_10 C3_10 1_555 1_555
C2_12 C11_10 1_555 1_555
C4_10 H1_10 1_555 1_555
C5_10 C4_10 1_555 1_555
C6_10 C1_10 1_555 1_555
H2_10 C6_10 1_555 1_555
C7_10 H3_10 1_555 1_555
C8_10 C10_10 1_555 1_555
C9_10 C14_10 1_555 1_555
C10_10 C7_10 1_555 1_555
C11_10 C7_10 1_555 1_555
H4_10 C11_10 1_555 1_555
C12_10 C1_10 1_555 1_555
H5_10 C12_10 1_555 1_555
C13_10 C5_10 1_555 1_555
H6_10 C13_10 1_555 1_555
C14_10 C2_12 1_555 1_555
C15_10 C10_10 1_555 1_555
H7_8 C15_10 1_555 1_555
C16_10 C2_12 1_555 1_555
H8_8 C16_10 1_555 1_555
C17_10 C14_10 1_555 1_555
Mn3_4 O4_6 1_555 1_555
O9_6 Mn4_2 1_555 1_555
C4_10 C6_10 1_555 1_555
C5_10 C14_10 1_555 1_555
C12_10 C13_10 1_555 1_555
C15_10 C16_10 1_555 1_555
O3_11 C8_11 1_555 1_555
O9_5 C8_11 1_555 1_555
C2_13 C11_11 1_555 1_555
C7_11 H3_11 1_555 1_555
C8_11 C10_11 1_555 1_555
C10_11 C7_11 1_555 1_555
C11_11 C7_11 1_555 1_555
C15_11 C10_11 1_555 1_555
C16_11 C2_13 1_555 1_555
C15_11 C16_11 1_555 1_555
F3_11 C9_11 1_555 1_555
F4_11 C17_11 1_555 1_555
F5_11 C9_11 1_555 1_555
O5_2 C3_11 1_555 1_555
C1_11 C3_11 1_555 1_555
C4_11 H1_11 1_555 1_555
C5_11 C4_11 1_555 1_555
C6_11 C1_11 1_555 1_555
H2_11 C6_11 1_555 1_555
C9_11 C14_11 1_555 1_555
C12_11 C1_11 1_555 1_555
H5_11 C12_11 1_555 1_555
C13_11 C5_11 1_555 1_555
H6_11 C13_11 1_555 1_555
C14_11 C2_14 1_555 1_555
C17_11 C14_11 1_555 1_555
C4_11 C6_11 1_555 1_555
C5_11 C14_11 1_555 1_555
C12_11 C13_11 1_555 1_555
F1_10 C17_12 1_555 1_555
F2_12 C9_12 1_555 1_555
F3_12 C9_12 1_555 1_555
F4_12 C17_12 1_555 1_555
F5_12 C9_12 1_555 1_555
F6_10 C17_12 1_555 1_555
O5 C3_12 1_555 1_555
O3_12 C8_12 1_555 1_555
O9_6 C8_12 1_555 1_555
C1_12 C3_12 1_555 1_555
C2_15 C11_12 1_555 1_555
C4_12 H1_12 1_555 1_555
C5_12 C4_12 1_555 1_555
C6_12 C1_12 1_555 1_555
H2_12 C6_12 1_555 1_555
C7_12 H3_12 1_555 1_555
C8_12 C10_12 1_555 1_555
C9_12 C14_12 1_555 1_555
C10_12 C7_12 1_555 1_555
C11_12 C7_12 1_555 1_555
H4_12 C11_12 1_555 1_555
C12_12 C1_12 1_555 1_555
H5_12 C12_12 1_555 1_555
C13_12 C5_12 1_555 1_555
H6_12 C13_12 1_555 1_555
C14_12 C2_15 1_555 1_555
C15_12 C10_12 1_555 1_555
H7_9 C15_12 1_555 1_555
C16_12 C2_15 1_555 1_555
H8_9 C16_12 1_555 1_555
C17_12 C14_12 1_555 1_555
C4_12 C6_12 1_555 1_555
C5_12 C14_12 1_555 1_555
C12_12 C13_12 1_555 1_555
C15_12 C16_12 1_555 1_555
F1_11 C17_13 1_555 1_555
F2_13 C9_13 1_555 1_555
F3_13 C9_13 1_555 1_555
F4_13 C17_13 1_555 1_555
F5_13 C9_13 1_555 1_555
F6_11 C17_13 1_555 1_555
Mn3_2 O3_13 1_555 1_555
O6_2 C3_13 1_555 1_555
O8_2 C3_13 1_555 1_555
O3_13 C8_13 1_555 1_555
O4_7 C8_13 1_555 1_555
C1_13 C3_13 1_555 1_555
C2_16 C11_13 1_555 1_555
C4_13 H1_13 1_555 1_555
C5_13 C4_13 1_555 1_555
C6_13 C1_13 1_555 1_555
H2_13 C6_13 1_555 1_555
C7_13 H3_13 1_555 1_555
C8_13 C10_13 1_555 1_555
C9_13 C14_13 1_555 1_555
C10_13 C7_13 1_555 1_555
C11_13 C7_13 1_555 1_555
H4_13 C11_13 1_555 1_555
C12_13 C1_13 1_555 1_555
H5_13 C12_13 1_555 1_555
C13_13 C5_13 1_555 1_555
H6_13 C13_13 1_555 1_555
C14_13 C2_16 1_555 1_555
C15_13 C10_13 1_555 1_555
H7_10 C15_13 1_555 1_555
C16_13 C2_16 1_555 1_555
H8_10 C16_13 1_555 1_555
C17_13 C14_13 1_555 1_555
Mn5 O4_7 1_555 1_555
O9_7 Mn3_2 1_555 1_555
C4_13 C6_13 1_555 1_555
C5_13 C14_13 1_555 1_555
C12_13 C13_13 1_555 1_555
C15_13 C16_13 1_555 1_555
F1_12 C17_14 1_555 1_555
F2_14 C9_14 1_555 1_555
F3_14 C9_14 1_555 1_555
F4_14 C17_14 1_555 1_555
F6_12 C17_14 1_555 1_555
O8 C3_14 1_555 1_555
O3_14 C8_14 1_555 1_555
O4_8 C8_14 1_555 1_555
C1_14 C3_14 1_555 1_555
C2_17 C11_14 1_555 1_555
C4_14 H1_14 1_555 1_555
C5_14 C4_14 1_555 1_555
C6_14 C1_14 1_555 1_555
H2_14 C6_14 1_555 1_555
C8_14 C10_14 1_555 1_555
C9_14 C14_14 1_555 1_555
C10_14 C7_14 1_555 1_555
C11_14 C7_14 1_555 1_555
C13_14 C5_14 1_555 1_555
C14_14 C2_17 1_555 1_555
C15_14 C10_14 1_555 1_555
H7_11 C15_14 1_555 1_555
C16_14 C2_17 1_555 1_555
H8_11 C16_14 1_555 1_555
C17_14 C14_14 1_555 1_555
Mn4 O4_8 1_555 1_555
C4_14 C6_14 1_555 1_555
C5_14 C14_14 1_555 1_555
C15_14 C16_14 1_555 1_555
H5_14 C12_14 1_555 1_555
O9_8 Mn3 1_555 1_555
F1_13 C17_15 1_555 1_555
F2_15 C9_15 1_555 1_555
F3_15 C9_15 1_555 1_555
F4_15 C17_15 1_555 1_555
F5_15 C9_15 1_555 1_555
F6_13 C17_15 1_555 1_555
Mn4 O3_15 1_555 1_555
O5_4 C3_15 1_555 1_555
O7_3 C3_15 1_555 1_555
O3_15 C8_15 1_555 1_555
O9_7 C8_15 1_555 1_555
C1_15 C3_15 1_555 1_555
C2_18 C11_15 1_555 1_555
C4_15 H1_15 1_555 1_555
C5_15 C4_15 1_555 1_555
C6_15 C1_15 1_555 1_555
H2_15 C6_15 1_555 1_555
C7_15 H3_15 1_555 1_555
C8_15 C10_15 1_555 1_555
C9_15 C14_15 1_555 1_555
C10_15 C7_15 1_555 1_555
C11_15 C7_15 1_555 1_555
H4_15 C11_15 1_555 1_555
C12_15 C1_15 1_555 1_555
H5_15 C12_15 1_555 1_555
C13_15 C5_15 1_555 1_555
H6_15 C13_15 1_555 1_555
C14_15 C2_18 1_555 1_555
C15_15 C10_15 1_555 1_555
H7_12 C15_15 1_555 1_555
C16_15 C2_18 1_555 1_555
H8_12 C16_15 1_555 1_555
C17_15 C14_15 1_555 1_555
C4_15 C6_15 1_555 1_555
C5_15 C14_15 1_555 1_555
C12_15 C13_15 1_555 1_555
C15_15 C16_15 1_555 1_555
F3_16 C9_16 1_555 1_555
F4_16 C17_16 1_555 1_555
F5_16 C9_16 1_555 1_555
O5_3 C3_16 1_555 1_555
O7_4 C3_16 1_555 1_555
C1_16 C3_16 1_555 1_555
C4_16 H1_16 1_555 1_555
C5_16 C4_16 1_555 1_555
C6_16 C1_16 1_555 1_555
H2_16 C6_16 1_555 1_555
C9_16 C14_16 1_555 1_555
C12_16 C1_16 1_555 1_555
H5_16 C12_16 1_555 1_555
C13_16 C5_16 1_555 1_555
H6_16 C13_16 1_555 1_555
C14_16 C2_19 1_555 1_555
C17_16 C14_16 1_555 1_555
C4_16 C6_16 1_555 1_555
C5_16 C14_16 1_555 1_555
C12_16 C13_16 1_555 1_555
Mn5 O3_16 1_555 1_555
O3_16 C8_16 1_555 1_555
O9_8 C8_16 1_555 1_555
C2_20 C11_16 1_555 1_555
C7_16 H3_16 1_555 1_555
C8_16 C10_16 1_555 1_555
C10_16 C7_16 1_555 1_555
C11_16 C7_16 1_555 1_555
C15_16 C10_16 1_555 1_555
C16_16 C2_20 1_555 1_555
C15_16 C16_16 1_555 1_555

#END
