
###############################################################################
#
# This file contains modified crystal structure data generated from the
# MOF subset of the Cambridge Structural Database (CSD) v543 
# hosted by the Cambridge Crystallographic Data Centre (CCDC).
#
# This work is licensed under the Creative Commons
# Attribution-NonCommercial-ShareAlike 4.0 International License.
# To view a copy of this license, visit
# http://creativecommons.org/licenses/by-nc-sa/4.0/
# or send a letter to
# Creative Commons, PO Box 1866, Mountain View, CA 94042, USA.
#
# CIF created using the CSD Python API on 29 September 2022
# The structure has been converted into the P1 space group
# The structure has a 3D framework
# The original CSD entry DOTVOZ is in the tetragonal crystal system
# The framework has been calculated to contain at least 10.0% void space
# The void calculation uses a probe of radius 1.32A, grid spacing 0.4
#
###############################################################################

data_DOTVOZ
_chemical_formula_moiety         '(C272 H128 Co8 F96 O58)n'
_symmetry_cell_setting           triclinic
_symmetry_space_group_name_H-M   'P 1'
_symmetry_Int_Tables_number      1
_space_group_name_Hall           'P 1'
loop_
_symmetry_equiv_pos_site_id
_symmetry_equiv_pos_as_xyz
1 x,y,z
_cell_length_a                   28.3363(3)
_cell_length_b                   28.3363(3)
_cell_length_c                   10.5361(3)
_cell_angle_alpha                90
_cell_angle_beta                 90
_cell_angle_gamma                90
_cell_volume                     8459.92
loop_
_atom_site_label
_atom_site_type_symbol
_atom_site_fract_x
_atom_site_fract_y
_atom_site_fract_z
Co1 Co 0.26790(3) 0.04223(3) 0.00842(9)
O1 O 0.20827(15) 0.49672(15) 0.0325(4)
F4 F 0.08799(19) 0.28728(17) 0.0987(6)
H2 H 0.1757 0.2587 0.0394
H3 H 0.2142 0.1861 0.0416
C14 C 0.1542(3) 0.4142(2) 0.0157(7)
H6 H 0.1422 0.4389 0.0639
H7 H 0.0967 0.3726 0.0271
Co4 Co 0.20777(3) 0.51790(3) 0.24158(9)
O6 O 0.24672(15) 0.04173(15) 0.2175(4)
O9 O 0.33374(15) 0.05728(16) 0.0519(5)
O2 O 0.26840(15) 0.46449(14) 0.9373(4)
O3 O 0.23567(17) 0.10357(15) 0.9710(5)
O4 O 0.19272(16) 0.08374(15) 0.8019(5)
F1 F 0.1215(3) 0.30788(18) 0.6640(5)
C1 C 0.1995(2) 0.4170(2) 0.9652(6)
C2 C 0.1393(2) 0.2483(2) 0.8755(7)
F2 F 0.05128(18) 0.24559(17) 0.9622(7)
F3 F 0.03777(16) 0.32023(18) 0.9732(6)
C3 C 0.1896(2) 0.3396(2) 0.8745(6)
H1 H 0.2014 0.3148 0.8259
C4 C 0.2055(2) 0.1126(2) 0.8848(6)
F5 F 0.0729(2) 0.35335(18) 0.7577(5)
F6 F 0.0543(2) 0.28163(19) 0.7217(7)
C5 C 0.1835(2) 0.1595(2) 0.8824(6)
C6 C 0.2268(2) 0.4610(2) 0.9798(6)
C7 C 0.1702(3) 0.2370(2) 0.9748(6)
C8 C 0.1929(3) 0.1931(2) 0.9772(7)
C9 C 0.0717(3) 0.2868(3) 0.9804(10)
C10 C 0.1539(3) 0.1714(3) 0.7879(9)
H4 H 0.1483 0.1496 0.7237
C11 C 0.1122(2) 0.2950(2) 0.8825(7)
C12 C 0.2175(2) 0.3790(2) 0.8985(7)
H5 H 0.2484 0.3799 0.8694
C13 C 0.1440(2) 0.33729(19) 0.9237(6)
C15 C 0.1270(3) 0.3743(2) 0.9937(7)
C16 C 0.1311(3) 0.2154(3) 0.7819(8)
H8 H 0.1107 0.2223 0.7154
C17 C 0.0901(4) 0.3091(3) 0.7553(9)
Co2 Co 0.20777(3) 0.01790(3) 0.75842(9)
Co3 Co 0.29223(3) 0.48210(3) 0.74158(9)
Co5 Co 0.26790(3) 0.54223(3) 0.99158(9)
O8 O 0.28551(14) 0.01840(15) 0.8127(4)
O7 O 0.26840(15) 0.96449(14) 0.0627(4)
O5 O 0.20827(15) 0.99672(15) 0.9675(4)
O5_2 O 0.29173(15) 0.00328(15) 0.4675(4)
O7_2 O 0.23160(15) 0.03551(14) 0.5627(4)
Co1_2 Co 0.23210(3) 0.95777(3) 0.50842(9)
O1_2 O 0.29173(15) 0.50328(15) 0.5325(4)
O2_2 O 0.23160(15) 0.53551(14) 0.4373(4)
O3_2 O 0.26433(17) 0.89643(15) 0.4710(5)
O4_2 O 0.30728(16) 0.91626(15) 0.3019(5)
F1_2 F 0.3785(3) 0.69212(18) 0.1640(5)
C1_2 C 0.3005(2) 0.5830(2) 0.4652(6)
C2_2 C 0.3607(2) 0.7517(2) 0.3755(7)
F2_2 F 0.44872(18) 0.75441(17) 0.4622(7)
F3_2 F 0.46223(16) 0.67977(18) 0.4732(6)
F4_2 F 0.41201(19) 0.71272(17) 0.5987(6)
C3_2 C 0.3104(2) 0.6604(2) 0.3745(6)
H1_2 H 0.2986 0.6852 0.3259
C4_2 C 0.2945(2) 0.8874(2) 0.3848(6)
F5_2 F 0.4271(2) 0.64665(18) 0.2577(5)
F6_2 F 0.4457(2) 0.71837(19) 0.2217(7)
C5_2 C 0.3165(2) 0.8405(2) 0.3824(6)
C6_2 C 0.2732(2) 0.5390(2) 0.4798(6)
C7_2 C 0.3298(3) 0.7630(2) 0.4748(6)
H2_2 H 0.3243 0.7413 0.5394
C8_2 C 0.3071(3) 0.8069(2) 0.4772(7)
H3_2 H 0.2858 0.8139 0.5416
C9_2 C 0.4283(3) 0.7132(3) 0.4804(10)
C10_2 C 0.3461(3) 0.8286(3) 0.2879(9)
H4_2 H 0.3517 0.8504 0.2237
C11_2 C 0.3878(2) 0.7050(2) 0.3825(7)
C12_2 C 0.2825(2) 0.6210(2) 0.3985(7)
H5_2 H 0.2516 0.6201 0.3694
C13_2 C 0.3560(2) 0.66271(19) 0.4237(6)
C14_2 C 0.3458(3) 0.5858(2) 0.5157(7)
H6_2 H 0.3578 0.5611 0.5639
C15_2 C 0.3730(3) 0.6257(2) 0.4937(7)
H7_2 H 0.4033 0.6274 0.5271
C16_2 C 0.3689(3) 0.7846(3) 0.2819(8)
H8_2 H 0.3893 0.7777 0.2154
C17_2 C 0.4099(4) 0.6909(3) 0.2553(9)
Co2_2 Co 0.29223(3) 0.98210(3) 0.25842(9)
Co5_2 Co 0.23210(3) 0.45777(3) 0.49158(9)
O6_2 O 0.25328(15) 0.95827(15) 0.7175(4)
O8_2 O 0.21449(14) 0.98160(15) 0.3127(4)
O9_2 O 0.16626(15) 0.94272(16) 0.5519(5)
Co1_3 Co 0.70777(3) 0.51790(3) 0.25842(9)
O1_3 O 0.25328(15) 0.45827(15) 0.2825(4)
O2_3 O 0.28551(14) 0.51840(15) 0.1873(4)
O3_3 O 0.64643(15) 0.48567(17) 0.2210(5)
O4_3 O 0.66626(15) 0.44272(16) 0.0519(5)
C1_3 C 0.3330(2) 0.4495(2) 0.2152(6)
C2_3 C 0.5017(2) 0.3893(2) 0.1255(7)
F2_3 F 0.50441(17) 0.30128(18) 0.2122(7)
F3_3 F 0.42977(18) 0.28777(16) 0.2232(6)
F4_3 F 0.46272(17) 0.33799(19) 0.3487(6)
C3_3 C 0.4104(2) 0.4396(2) 0.1245(6)
H1_3 H 0.4352 0.4514 0.0759
C4_3 C 0.6374(2) 0.4555(2) 0.1348(6)
F5_3 F 0.39665(18) 0.3229(2) 0.0077(5)
C5_3 C 0.5905(2) 0.4335(2) 0.1324(6)
C6_3 C 0.2890(2) 0.4768(2) 0.2298(6)
C7_3 C 0.5130(2) 0.4202(3) 0.2248(6)
H2_3 H 0.4913 0.4257 0.2894
C8_3 C 0.5569(2) 0.4429(3) 0.2272(7)
H3_3 H 0.5639 0.4642 0.2916
C9_3 C 0.4632(3) 0.3217(3) 0.2304(10)
C10_3 C 0.5786(3) 0.4039(3) 0.0379(9)
C11_3 C 0.4550(2) 0.3622(2) 0.1325(7)
C12_3 C 0.3710(2) 0.4675(2) 0.1485(7)
H5_3 H 0.3701 0.4984 0.1194
C13_3 C 0.41271(19) 0.3940(2) 0.1737(6)
C14_3 C 0.3358(2) 0.4042(3) 0.2657(7)
H6_3 H 0.3111 0.3922 0.3139
C15_3 C 0.3757(2) 0.3770(3) 0.2437(7)
H7_3 H 0.3774 0.3467 0.2771
C16_3 C 0.5346(3) 0.3811(3) 0.0319(8)
C17_3 C 0.4409(3) 0.3401(4) 0.0053(9)
Co2_3 Co 0.73210(3) 0.45777(3) 0.00842(9)
O5_3 O 0.75328(15) 0.45827(15) 0.2175(4)
O6_3 O 0.70827(15) 0.49672(15) 0.4675(4)
O7_3 O 0.78551(14) 0.51840(15) 0.3127(4)
O8_3 O 0.73160(15) 0.53551(14) 0.0627(4)
O9_3 O 0.69272(16) 0.58374(15) 0.3019(5)
F1_3 F 0.44212(18) 0.3715(3) 0.9140(5)
F6_3 F 0.46837(19) 0.3043(2) 0.9717(7)
H4_3 H 0.6004 0.3983 0.9737
H8_3 H 0.5277 0.3607 0.9654
O1_4 O 0.24672(15) 0.54173(15) 0.7825(4)
O2_4 O 0.21449(14) 0.48160(15) 0.6873(4)
F1_4 F 0.05788(18) 0.6285(3) 0.4140(5)
C1_4 C 0.1670(2) 0.5505(2) 0.7152(6)
F3_4 F 0.07023(18) 0.71223(16) 0.7232(6)
F4_4 F 0.03728(17) 0.66201(19) 0.8487(6)
C3_4 C 0.0896(2) 0.5604(2) 0.6245(6)
H1_4 H 0.0648 0.5486 0.5759
F5_4 F 0.10335(18) 0.6771(2) 0.5077(5)
F6_4 F 0.03163(19) 0.6957(2) 0.4717(7)
C6_4 C 0.2110(2) 0.5232(2) 0.7298(6)
H2_4 H 0.0087 0.5743 0.7894
C9_4 C 0.0368(3) 0.6783(3) 0.7304(10)
C11_4 C 0.0450(2) 0.6378(2) 0.6325(7)
C12_4 C 0.1290(2) 0.5325(2) 0.6485(7)
H5_4 H 0.1299 0.5016 0.6194
C13_4 C 0.08729(19) 0.6060(2) 0.6737(6)
C14_4 C 0.1642(2) 0.5958(3) 0.7657(7)
H6_4 H 0.1889 0.6078 0.8139
C15_4 C 0.1243(2) 0.6230(3) 0.7437(7)
H7_4 H 0.1226 0.6533 0.7771
C17_4 C 0.0591(3) 0.6599(4) 0.5053(9)
Co1_4 Co 0.79223(3) 0.48210(3) 0.75842(9)
O3_4 O 0.85357(15) 0.51433(17) 0.7210(5)
O4_4 O 0.83374(15) 0.55728(16) 0.5519(5)
C2_4 C 0.9983(2) 0.6107(2) 0.6255(7)
F2_4 F 0.99559(17) 0.69872(18) 0.7122(7)
C4_4 C 0.8626(2) 0.5445(2) 0.6348(6)
C5_4 C 0.9095(2) 0.5665(2) 0.6324(6)
C7_4 C 0.9870(2) 0.5798(3) 0.7248(6)
C8_4 C 0.9431(2) 0.5571(3) 0.7272(7)
H3_4 H 0.9361 0.5358 0.7916
C10_4 C 0.9214(3) 0.5961(3) 0.5379(9)
H4_4 H 0.8996 0.6017 0.4737
C16_4 C 0.9654(3) 0.6189(3) 0.5319(8)
H8_4 H 0.9723 0.6393 0.4654
Co2_4 Co 0.76790(3) 0.54223(3) 0.50842(9)
O5_4 O 0.74672(15) 0.54173(15) 0.7175(4)
O6_4 O 0.79173(15) 0.50328(15) 0.9675(4)
O7_4 O 0.71449(14) 0.48160(15) 0.8127(4)
O8_4 O 0.76840(15) 0.46449(14) 0.5627(4)
O9_4 O 0.80728(16) 0.41626(15) 0.8019(5)
Co4_2 Co 0.70777(3) 0.01790(3) 0.74158(9)
Co5_3 Co 0.76790(3) 0.04223(3) 0.49158(9)
O1_5 O 0.70827(15) 0.99672(15) 0.5325(4)
O2_5 O 0.76840(15) 0.96449(14) 0.4373(4)
O3_5 O 0.73567(17) 0.60357(15) 0.4710(5)
F1_5 F 0.6215(3) 0.80788(18) 0.1640(5)
C1_5 C 0.6995(2) 0.9170(2) 0.4652(6)
C2_5 C 0.6393(2) 0.7483(2) 0.3755(7)
F2_5 F 0.55128(18) 0.74559(17) 0.4622(7)
F3_5 F 0.53777(16) 0.82023(18) 0.4732(6)
F4_5 F 0.58799(19) 0.78728(17) 0.5987(6)
C3_5 C 0.6896(2) 0.8396(2) 0.3745(6)
H1_5 H 0.7014 0.8148 0.3259
C4_5 C 0.7055(2) 0.6126(2) 0.3848(6)
F5_5 F 0.5729(2) 0.85335(18) 0.2577(5)
F6_5 F 0.5543(2) 0.78163(19) 0.2217(7)
C5_5 C 0.6835(2) 0.6595(2) 0.3824(6)
C6_5 C 0.7268(2) 0.9610(2) 0.4798(6)
C7_5 C 0.6702(3) 0.7370(2) 0.4748(6)
H2_5 H 0.6757 0.7587 0.5394
C8_5 C 0.6929(3) 0.6931(2) 0.4772(7)
H3_5 H 0.7142 0.6861 0.5416
C9_5 C 0.5717(3) 0.7868(3) 0.4804(10)
C10_5 C 0.6539(3) 0.6714(3) 0.2879(9)
H4_5 H 0.6483 0.6496 0.2237
C11_5 C 0.6122(2) 0.7950(2) 0.3825(7)
C12_5 C 0.7175(2) 0.8790(2) 0.3985(7)
H5_5 H 0.7484 0.8799 0.3694
C13_5 C 0.6440(2) 0.83729(19) 0.4237(6)
C14_5 C 0.6542(3) 0.9142(2) 0.5157(7)
H6_5 H 0.6422 0.9389 0.5639
C15_5 C 0.6270(3) 0.8743(2) 0.4937(7)
H7_5 H 0.5967 0.8726 0.5271
C16_5 C 0.6311(3) 0.7154(3) 0.2819(8)
H8_5 H 0.6107 0.7223 0.2154
C17_5 C 0.5901(4) 0.8091(3) 0.2553(9)
Co3_2 Co 0.79223(3) 0.98210(3) 0.24158(9)
O1_6 O 0.79173(15) 0.00328(15) 0.0325(4)
F4_6 F 0.91201(19) 0.21272(17) 0.0987(6)
H2_6 H 0.8243 0.2413 0.0394
H3_6 H 0.7858 0.3139 0.0416
C14_6 C 0.8458(3) 0.0858(2) 0.0157(7)
H6_6 H 0.8578 0.0611 0.0639
H7_6 H 0.9033 0.1274 0.0271
O2_6 O 0.73160(15) 0.03551(14) 0.9373(4)
O3_6 O 0.76433(17) 0.39643(15) 0.9710(5)
F1_6 F 0.8785(3) 0.19212(18) 0.6640(5)
C1_6 C 0.8005(2) 0.0830(2) 0.9652(6)
C2_6 C 0.8607(2) 0.2517(2) 0.8755(7)
F2_6 F 0.94872(18) 0.25441(17) 0.9622(7)
F3_6 F 0.96223(16) 0.17977(18) 0.9732(6)
C3_6 C 0.8104(2) 0.1604(2) 0.8745(6)
H1_6 H 0.7986 0.1852 0.8259
C4_6 C 0.7945(2) 0.3874(2) 0.8848(6)
F5_6 F 0.9271(2) 0.14665(18) 0.7577(5)
F6_6 F 0.9457(2) 0.21837(19) 0.7217(7)
C5_6 C 0.8165(2) 0.3405(2) 0.8824(6)
C6_6 C 0.7732(2) 0.0390(2) 0.9798(6)
C7_6 C 0.8298(3) 0.2630(2) 0.9748(6)
C8_6 C 0.8071(3) 0.3069(2) 0.9772(7)
C9_6 C 0.9283(3) 0.2132(3) 0.9804(10)
C10_6 C 0.8461(3) 0.3286(3) 0.7879(9)
H4_6 H 0.8517 0.3504 0.7237
C11_6 C 0.8878(2) 0.2050(2) 0.8825(7)
C12_6 C 0.7825(2) 0.1210(2) 0.8985(7)
H5_6 H 0.7516 0.1201 0.8694
C13_6 C 0.8560(2) 0.16271(19) 0.9237(6)
C15_6 C 0.8730(3) 0.1257(2) 0.9937(7)
C16_6 C 0.8689(3) 0.2846(3) 0.7819(8)
H8_6 H 0.8893 0.2777 0.7154
C17_6 C 0.9099(4) 0.1909(3) 0.7553(9)
Co5_4 Co 0.73210(3) 0.95777(3) 0.99158(9)
O3_7 O 0.14643(15) 0.98567(17) 0.7210(5)
C2_7 C 0.0017(2) 0.8893(2) 0.6255(7)
F2_7 F 0.00441(17) 0.80128(18) 0.7122(7)
C4_7 C 0.1374(2) 0.9555(2) 0.6348(6)
C5_7 C 0.0905(2) 0.9335(2) 0.6324(6)
C7_7 C 0.0130(2) 0.9202(3) 0.7248(6)
C8_7 C 0.0569(2) 0.9429(3) 0.7272(7)
H3_7 H 0.0639 0.9642 0.7916
C10_7 C 0.0786(3) 0.9039(3) 0.5379(9)
H4_7 H 0.1004 0.8983 0.4737
C16_7 C 0.0346(3) 0.8811(3) 0.5319(8)
H8_7 H 0.0277 0.8607 0.4654
O2_7 O 0.78551(14) 0.01840(15) 0.6873(4)
O1_7 O 0.75328(15) 0.95827(15) 0.7825(4)
F1_7 F 0.94212(18) 0.8715(3) 0.4140(5)
C1_7 C 0.8330(2) 0.9495(2) 0.7152(6)
F3_7 F 0.92977(18) 0.78777(16) 0.7232(6)
F4_7 F 0.96272(17) 0.83799(19) 0.8487(6)
C3_7 C 0.9104(2) 0.9396(2) 0.6245(6)
H1_7 H 0.9352 0.9514 0.5759
F5_7 F 0.89665(18) 0.8229(2) 0.5077(5)
F6_7 F 0.96837(19) 0.8043(2) 0.4717(7)
C6_7 C 0.7890(2) 0.9768(2) 0.7298(6)
H2_7 H 0.9913 0.9257 0.7894
C9_7 C 0.9632(3) 0.8217(3) 0.7304(10)
C11_7 C 0.9550(2) 0.8622(2) 0.6325(7)
C12_7 C 0.8710(2) 0.9675(2) 0.6485(7)
H5_7 H 0.8701 0.9984 0.6194
C13_7 C 0.91271(19) 0.8940(2) 0.6737(6)
C14_7 C 0.8358(2) 0.9042(3) 0.7657(7)
H6_7 H 0.8111 0.8922 0.8139
C15_7 C 0.8757(2) 0.8770(3) 0.7437(7)
H7_7 H 0.8774 0.8467 0.7771
C17_7 C 0.9409(3) 0.8401(4) 0.5053(9)
O1_8 O 0.74672(15) 0.04173(15) 0.2825(4)
O3_8 O 0.35357(15) 0.01433(17) 0.2210(5)
C1_8 C 0.6670(2) 0.0505(2) 0.2152(6)
C2_8 C 0.4983(2) 0.1107(2) 0.1255(7)
F2_8 F 0.49559(17) 0.19872(18) 0.2122(7)
F3_8 F 0.57023(18) 0.21223(16) 0.2232(6)
F4_8 F 0.53728(17) 0.16201(19) 0.3487(6)
C3_8 C 0.5896(2) 0.0604(2) 0.1245(6)
H1_8 H 0.5648 0.0486 0.0759
C4_8 C 0.3626(2) 0.0445(2) 0.1348(6)
F5_8 F 0.60335(18) 0.1771(2) 0.0077(5)
C5_8 C 0.4095(2) 0.0665(2) 0.1324(6)
C6_8 C 0.7110(2) 0.0232(2) 0.2298(6)
C7_8 C 0.4870(2) 0.0798(3) 0.2248(6)
H2_8 H 0.5087 0.0743 0.2894
C8_8 C 0.4431(2) 0.0571(3) 0.2272(7)
H3_8 H 0.4361 0.0358 0.2916
C9_8 C 0.5368(3) 0.1783(3) 0.2304(10)
C10_8 C 0.4214(3) 0.0961(3) 0.0379(9)
C11_8 C 0.5450(2) 0.1378(2) 0.1325(7)
C12_8 C 0.6290(2) 0.0325(2) 0.1485(7)
H5_8 H 0.6299 0.0016 0.1194
C13_8 C 0.58729(19) 0.1060(2) 0.1737(6)
C14_8 C 0.6642(2) 0.0958(3) 0.2657(7)
H6_8 H 0.6889 0.1078 0.3139
C15_8 C 0.6243(2) 0.1230(3) 0.2437(7)
H7_8 H 0.6226 0.1533 0.2771
C16_8 C 0.4654(3) 0.1189(3) 0.0319(8)
C17_8 C 0.5591(3) 0.1599(4) 0.0053(9)
O2_8 O 0.71449(14) 0.98160(15) 0.1873(4)
O3_9 O 0.76433(17) 0.89643(15) 0.0290(5)
O4_5 O 0.80728(16) 0.91626(15) 0.1981(5)
F1_8 F 0.8785(3) 0.69212(18) 0.3360(5)
C1_9 C 0.8005(2) 0.5830(2) 0.0348(6)
C2_9 C 0.8607(2) 0.7517(2) 0.1245(7)
F2_9 F 0.94872(18) 0.75441(17) 0.0378(7)
F3_9 F 0.96223(16) 0.67977(18) 0.0268(6)
C3_9 C 0.8104(2) 0.6604(2) 0.1255(6)
H1_9 H 0.7986 0.6852 0.1741
C4_9 C 0.7945(2) 0.8874(2) 0.1152(6)
F5_9 F 0.9271(2) 0.64665(18) 0.2423(5)
F6_8 F 0.9457(2) 0.71837(19) 0.2783(7)
C5_9 C 0.8165(2) 0.8405(2) 0.1176(6)
C6_9 C 0.7732(2) 0.5390(2) 0.0202(6)
C7_9 C 0.8298(3) 0.7630(2) 0.0252(6)
C8_9 C 0.8071(3) 0.8069(2) 0.0228(7)
C9_9 C 0.9283(3) 0.7132(3) 0.0196(10)
C10_9 C 0.8461(3) 0.8286(3) 0.2121(9)
H4_8 H 0.8517 0.8504 0.2763
C11_9 C 0.8878(2) 0.7050(2) 0.1175(7)
C12_9 C 0.7825(2) 0.6210(2) 0.1015(7)
H5_9 H 0.7516 0.6201 0.1306
C13_9 C 0.8560(2) 0.66271(19) 0.0763(6)
C15_9 C 0.8730(3) 0.6257(2) 0.0063(7)
C16_9 C 0.8689(3) 0.7846(3) 0.2181(8)
H8_8 H 0.8893 0.7777 0.2846
C17_9 C 0.9099(4) 0.6909(3) 0.2447(9)
F4_9 F 0.91201(19) 0.71272(17) 0.9013(6)
H2_9 H 0.8243 0.7413 0.9606
H3_9 H 0.7858 0.8139 0.9584
C14_9 C 0.8458(3) 0.5858(2) 0.9843(7)
H6_9 H 0.8578 0.5611 0.9361
H7_9 H 0.9033 0.6274 0.9729
O9_5 O 0.66626(15) 0.94272(16) 0.9481(5)
O3_10 O 0.73567(17) 0.10357(15) 0.5290(5)
O4_6 O 0.69272(16) 0.08374(15) 0.6981(5)
F1_9 F 0.6215(3) 0.30788(18) 0.8360(5)
C1_10 C 0.6995(2) 0.4170(2) 0.5348(6)
C2_10 C 0.6393(2) 0.2483(2) 0.6245(7)
F2_10 F 0.55128(18) 0.24559(17) 0.5378(7)
F3_10 F 0.53777(16) 0.32023(18) 0.5268(6)
F4_10 F 0.58799(19) 0.28728(17) 0.4013(6)
C3_10 C 0.6896(2) 0.3396(2) 0.6255(6)
H1_10 H 0.7014 0.3148 0.6741
C4_10 C 0.7055(2) 0.1126(2) 0.6152(6)
F5_10 F 0.5729(2) 0.35335(18) 0.7423(5)
F6_9 F 0.5543(2) 0.28163(19) 0.7783(7)
C5_10 C 0.6835(2) 0.1595(2) 0.6176(6)
C6_10 C 0.7268(2) 0.4610(2) 0.5202(6)
C7_10 C 0.6702(3) 0.2370(2) 0.5252(6)
H2_10 H 0.6757 0.2587 0.4606
C8_10 C 0.6929(3) 0.1931(2) 0.5228(7)
H3_10 H 0.7142 0.1861 0.4584
C9_10 C 0.5717(3) 0.2868(3) 0.5196(10)
C10_10 C 0.6539(3) 0.1714(3) 0.7121(9)
H4_9 H 0.6483 0.1496 0.7763
C11_10 C 0.6122(2) 0.2950(2) 0.6175(7)
C12_10 C 0.7175(2) 0.3790(2) 0.6015(7)
H5_10 H 0.7484 0.3799 0.6306
C13_10 C 0.6440(2) 0.33729(19) 0.5763(6)
C14_10 C 0.6542(3) 0.4142(2) 0.4843(7)
H6_10 H 0.6422 0.4389 0.4361
C15_10 C 0.6270(3) 0.3743(2) 0.5063(7)
H7_10 H 0.5967 0.3726 0.4729
C16_10 C 0.6311(3) 0.2154(3) 0.7181(8)
H8_9 H 0.6107 0.2223 0.7846
C17_10 C 0.5901(4) 0.3091(3) 0.7447(9)
O9_6 O 0.83374(15) 0.05728(16) 0.4481(5)
F1_10 F 0.55788(18) 0.6285(3) 0.0860(5)
F6_10 F 0.53163(19) 0.6957(2) 0.0283(7)
H4_10 H 0.3996 0.6017 0.0263
H8_10 H 0.4723 0.6393 0.0346
O3_11 O 0.35357(15) 0.51433(17) 0.7790(5)
O4_7 O 0.33374(15) 0.55728(16) 0.9481(5)
C1_11 C 0.6670(2) 0.5505(2) 0.7848(6)
C2_11 C 0.4983(2) 0.6107(2) 0.8745(7)
F2_11 F 0.49559(17) 0.69872(18) 0.7878(7)
F3_11 F 0.57023(18) 0.71223(16) 0.7768(6)
F4_11 F 0.53728(17) 0.66201(19) 0.6513(6)
C3_11 C 0.5896(2) 0.5604(2) 0.8755(6)
H1_11 H 0.5648 0.5486 0.9241
C4_11 C 0.3626(2) 0.5445(2) 0.8652(6)
F5_11 F 0.60335(18) 0.6771(2) 0.9923(5)
C5_11 C 0.4095(2) 0.5665(2) 0.8676(6)
C6_11 C 0.7110(2) 0.5232(2) 0.7702(6)
C7_11 C 0.4870(2) 0.5798(3) 0.7752(6)
H2_11 H 0.5087 0.5743 0.7106
C8_11 C 0.4431(2) 0.5571(3) 0.7728(7)
H3_11 H 0.4361 0.5358 0.7084
C9_11 C 0.5368(3) 0.6783(3) 0.7696(10)
C10_11 C 0.4214(3) 0.5961(3) 0.9621(9)
C11_11 C 0.5450(2) 0.6378(2) 0.8675(7)
C12_11 C 0.6290(2) 0.5325(2) 0.8515(7)
H5_11 H 0.6299 0.5016 0.8806
C13_11 C 0.58729(19) 0.6060(2) 0.8263(6)
C14_11 C 0.6642(2) 0.5958(3) 0.7343(7)
H6_11 H 0.6889 0.6078 0.6861
C15_11 C 0.6243(2) 0.6230(3) 0.7563(7)
H7_11 H 0.6226 0.6533 0.7229
C16_11 C 0.4654(3) 0.6189(3) 0.9681(8)
C17_11 C 0.5591(3) 0.6599(4) 0.9947(9)
O9_7 O 0.30728(16) 0.41626(15) 0.6981(5)
O3_12 O 0.14643(15) 0.48567(17) 0.2790(5)
O4_8 O 0.16626(15) 0.44272(16) 0.4481(5)
C2_12 C 0.0017(2) 0.3893(2) 0.3745(7)
F2_12 F 0.00441(17) 0.30128(18) 0.2878(7)
C4_12 C 0.1374(2) 0.4555(2) 0.3652(6)
C5_12 C 0.0905(2) 0.4335(2) 0.3676(6)
C7_12 C 0.0130(2) 0.4202(3) 0.2752(6)
C8_12 C 0.0569(2) 0.4429(3) 0.2728(7)
H3_12 H 0.0639 0.4642 0.2084
C10_12 C 0.0786(3) 0.4039(3) 0.4621(9)
H4_11 H 0.1004 0.3983 0.5263
C16_12 C 0.0346(3) 0.3811(3) 0.4681(8)
H8_11 H 0.0277 0.3607 0.5346
O9_8 O 0.19272(16) 0.58374(15) 0.1981(5)
F1_11 F 0.94212(18) 0.3715(3) 0.5860(5)
C1_12 C 0.8330(2) 0.4495(2) 0.2848(6)
F3_12 F 0.92977(18) 0.28777(16) 0.2768(6)
F4_12 F 0.96272(17) 0.33799(19) 0.1513(6)
C3_12 C 0.9104(2) 0.4396(2) 0.3755(6)
H1_12 H 0.9352 0.4514 0.4241
F5_12 F 0.89665(18) 0.3229(2) 0.4923(5)
F6_11 F 0.96837(19) 0.3043(2) 0.5283(7)
C6_12 C 0.7890(2) 0.4768(2) 0.2702(6)
H2_12 H 0.9913 0.4257 0.2106
C9_12 C 0.9632(3) 0.3217(3) 0.2696(10)
C11_12 C 0.9550(2) 0.3622(2) 0.3675(7)
C12_12 C 0.8710(2) 0.4675(2) 0.3515(7)
H5_12 H 0.8701 0.4984 0.3806
C13_12 C 0.91271(19) 0.3940(2) 0.3263(6)
C14_12 C 0.8358(2) 0.4042(3) 0.2343(7)
H6_12 H 0.8111 0.3922 0.1861
C15_12 C 0.8757(2) 0.3770(3) 0.2563(7)
H7_12 H 0.8774 0.3467 0.2229
C17_12 C 0.9409(3) 0.3401(4) 0.4947(9)
O3_13 O 0.26433(17) 0.39643(15) 0.5290(5)
F1_12 F 0.3785(3) 0.19212(18) 0.8360(5)
C1_13 C 0.3005(2) 0.0830(2) 0.5348(6)
C2_13 C 0.3607(2) 0.2517(2) 0.6245(7)
F2_13 F 0.44872(18) 0.25441(17) 0.5378(7)
F3_13 F 0.46223(16) 0.17977(18) 0.5268(6)
F4_13 F 0.41201(19) 0.21272(17) 0.4013(6)
C3_13 C 0.3104(2) 0.1604(2) 0.6255(6)
H1_13 H 0.2986 0.1852 0.6741
C4_13 C 0.2945(2) 0.3874(2) 0.6152(6)
F5_13 F 0.4271(2) 0.14665(18) 0.7423(5)
F6_12 F 0.4457(2) 0.21837(19) 0.7783(7)
C5_13 C 0.3165(2) 0.3405(2) 0.6176(6)
C6_13 C 0.2732(2) 0.0390(2) 0.5202(6)
C7_13 C 0.3298(3) 0.2630(2) 0.5252(6)
H2_13 H 0.3243 0.2413 0.4606
C8_13 C 0.3071(3) 0.3069(2) 0.5228(7)
H3_13 H 0.2858 0.3139 0.4584
C9_13 C 0.4283(3) 0.2132(3) 0.5196(10)
C10_13 C 0.3461(3) 0.3286(3) 0.7121(9)
H4_12 H 0.3517 0.3504 0.7763
C11_13 C 0.3878(2) 0.2050(2) 0.6175(7)
C12_13 C 0.2825(2) 0.1210(2) 0.6015(7)
H5_13 H 0.2516 0.1201 0.6306
C13_13 C 0.3560(2) 0.16271(19) 0.5763(6)
C14_13 C 0.3458(3) 0.0858(2) 0.4843(7)
H6_13 H 0.3578 0.0611 0.4361
C15_13 C 0.3730(3) 0.1257(2) 0.5063(7)
H7_13 H 0.4033 0.1274 0.4729
C16_13 C 0.3689(3) 0.2846(3) 0.7181(8)
H8_12 H 0.3893 0.2777 0.7846
C17_13 C 0.4099(4) 0.1909(3) 0.7447(9)
O3_14 O 0.23567(17) 0.60357(15) 0.0290(5)
F1_13 F 0.1215(3) 0.80788(18) 0.3360(5)
C1_14 C 0.1995(2) 0.9170(2) 0.0348(6)
C2_14 C 0.1393(2) 0.7483(2) 0.1245(7)
F2_14 F 0.05128(18) 0.74559(17) 0.0378(7)
F3_14 F 0.03777(16) 0.82023(18) 0.0268(6)
C3_14 C 0.1896(2) 0.8396(2) 0.1255(6)
H1_14 H 0.2014 0.8148 0.1741
C4_14 C 0.2055(2) 0.6126(2) 0.1152(6)
F5_14 F 0.0729(2) 0.85335(18) 0.2423(5)
F6_13 F 0.0543(2) 0.78163(19) 0.2783(7)
C5_14 C 0.1835(2) 0.6595(2) 0.1176(6)
C6_14 C 0.2268(2) 0.9610(2) 0.0202(6)
C7_14 C 0.1702(3) 0.7370(2) 0.0252(6)
C8_14 C 0.1929(3) 0.6931(2) 0.0228(7)
C9_14 C 0.0717(3) 0.7868(3) 0.0196(10)
C10_14 C 0.1539(3) 0.6714(3) 0.2121(9)
H4_13 H 0.1483 0.6496 0.2763
C11_14 C 0.1122(2) 0.7950(2) 0.1175(7)
C12_14 C 0.2175(2) 0.8790(2) 0.1015(7)
H5_14 H 0.2484 0.8799 0.1306
C13_14 C 0.1440(2) 0.83729(19) 0.0763(6)
C15_14 C 0.1270(3) 0.8743(2) 0.0063(7)
C16_14 C 0.1311(3) 0.7154(3) 0.2181(8)
H8_13 H 0.1107 0.7223 0.2846
C17_14 C 0.0901(4) 0.8091(3) 0.2447(9)
F4_14 F 0.08799(19) 0.78728(17) 0.9013(6)
H2_14 H 0.1757 0.7587 0.9606
H3_14 H 0.2142 0.6861 0.9584
C14_14 C 0.1542(3) 0.9142(2) 0.9843(7)
H6_14 H 0.1422 0.9389 0.9361
H7_14 H 0.0967 0.8726 0.9729
F1_14 F 0.05788(18) 0.1285(3) 0.5860(5)
C1_15 C 0.1670(2) 0.0505(2) 0.2848(6)
F3_15 F 0.07023(18) 0.21223(16) 0.2768(6)
F4_15 F 0.03728(17) 0.16201(19) 0.1513(6)
C3_15 C 0.0896(2) 0.0604(2) 0.3755(6)
H1_15 H 0.0648 0.0486 0.4241
F5_15 F 0.10335(18) 0.1771(2) 0.4923(5)
F6_14 F 0.03163(19) 0.1957(2) 0.5283(7)
C6_15 C 0.2110(2) 0.0232(2) 0.2702(6)
H2_15 H 0.0087 0.0743 0.2106
C9_15 C 0.0368(3) 0.1783(3) 0.2696(10)
C11_15 C 0.0450(2) 0.1378(2) 0.3675(7)
C12_15 C 0.1290(2) 0.0325(2) 0.3515(7)
H5_15 H 0.1299 0.0016 0.3806
C13_15 C 0.08729(19) 0.1060(2) 0.3263(6)
C14_15 C 0.1642(2) 0.0958(3) 0.2343(7)
H6_15 H 0.1889 0.1078 0.1861
C15_15 C 0.1243(2) 0.1230(3) 0.2563(7)
H7_15 H 0.1226 0.1533 0.2229
C17_15 C 0.0591(3) 0.1599(4) 0.4947(9)
O3_15 O 0.85357(15) 0.01433(17) 0.2790(5)
C2_15 C 0.9983(2) 0.1107(2) 0.3745(7)
F2_15 F 0.99559(17) 0.19872(18) 0.2878(7)
C4_15 C 0.8626(2) 0.0445(2) 0.3652(6)
C5_15 C 0.9095(2) 0.0665(2) 0.3676(6)
C7_15 C 0.9870(2) 0.0798(3) 0.2752(6)
C8_15 C 0.9431(2) 0.0571(3) 0.2728(7)
H3_15 H 0.9361 0.0358 0.2084
C10_15 C 0.9214(3) 0.0961(3) 0.4621(9)
H4_14 H 0.8996 0.1017 0.5263
C16_15 C 0.9654(3) 0.1189(3) 0.4681(8)
H8_14 H 0.9723 0.1393 0.5346
O3_16 O 0.64643(15) 0.98567(17) 0.7790(5)
C1_16 C 0.3330(2) 0.9495(2) 0.7848(6)
C2_16 C 0.5017(2) 0.8893(2) 0.8745(7)
F2_16 F 0.50441(17) 0.80128(18) 0.7878(7)
F3_16 F 0.42977(18) 0.78777(16) 0.7768(6)
F4_16 F 0.46272(17) 0.83799(19) 0.6513(6)
C3_16 C 0.4104(2) 0.9396(2) 0.8755(6)
H1_16 H 0.4352 0.9514 0.9241
C4_16 C 0.6374(2) 0.9555(2) 0.8652(6)
F5_16 F 0.39665(18) 0.8229(2) 0.9923(5)
C5_16 C 0.5905(2) 0.9335(2) 0.8676(6)
C6_16 C 0.2890(2) 0.9768(2) 0.7702(6)
C7_16 C 0.5130(2) 0.9202(3) 0.7752(6)
H2_16 H 0.4913 0.9257 0.7106
C8_16 C 0.5569(2) 0.9429(3) 0.7728(7)
H3_16 H 0.5639 0.9642 0.7084
C9_16 C 0.4632(3) 0.8217(3) 0.7696(10)
C10_16 C 0.5786(3) 0.9039(3) 0.9621(9)
C11_16 C 0.4550(2) 0.8622(2) 0.8675(7)
C12_16 C 0.3710(2) 0.9675(2) 0.8515(7)
H5_16 H 0.3701 0.9984 0.8806
C13_16 C 0.41271(19) 0.8940(2) 0.8263(6)
C14_16 C 0.3358(2) 0.9042(3) 0.7343(7)
H6_16 H 0.3111 0.8922 0.6861
C15_16 C 0.3757(2) 0.8770(3) 0.7563(7)
H7_16 H 0.3774 0.8467 0.7229
C16_16 C 0.5346(3) 0.8811(3) 0.9681(8)
C17_16 C 0.4409(3) 0.8401(4) 0.9947(9)
F1_15 F 0.55788(18) 0.1285(3) 0.9140(5)
F6_15 F 0.53163(19) 0.1957(2) 0.9717(7)
H4_15 H 0.3996 0.1017 0.9737
H8_15 H 0.4723 0.1393 0.9654
F1_16 F 0.44212(18) 0.8715(3) 0.0860(5)
F6_16 F 0.46837(19) 0.8043(2) 0.0283(7)
H4_16 H 0.6004 0.8983 0.0263
H8_16 H 0.5277 0.8607 0.0346
loop_
_geom_bond_atom_site_label_1
_geom_bond_atom_site_label_2
_geom_bond_site_symmetry_1
_geom_bond_site_symmetry_2
H6 C14 1_555 1_555
Co4 O1 1_555 1_555
O6 Co1 1_555 1_555
O9 Co1 1_555 1_555
O2 C6 1_555 1_555
O3 C4 1_555 1_555
O4 C4 1_555 1_555
F1 C17 1_555 1_555
C1 C6 1_555 1_555
C2 C7 1_555 1_555
F2 C9 1_555 1_555
F3 C9 1_555 1_555
C3 H1 1_555 1_555
C4 C5 1_555 1_555
F5 C17 1_555 1_555
F6 C17 1_555 1_555
C5 C8 1_555 1_555
C8 C7 1_555 1_555
C9 C11 1_555 1_555
C10 C5 1_555 1_555
H4 C10 1_555 1_555
C11 C2 1_555 1_555
C12 C1 1_555 1_555
H5 C12 1_555 1_555
C13 C3 1_555 1_555
C15 C13 1_555 1_555
C16 C2 1_555 1_555
H8 C16 1_555 1_555
C17 C11 1_555 1_555
Co2 O4 1_555 1_555
Co3 O2 1_555 1_555
O2 Co5 1_555 1_555
C3 C12 1_555 1_555
C10 C16 1_555 1_555
C11 C13 1_555 1_555
Co2 O8 1_555 1_555
Co1_2 O3_2 1_555 1_555
O1_2 C6_2 1_555 1_555
O2_2 C6_2 1_555 1_555
O3_2 C4_2 1_555 1_555
O4_2 C4_2 1_555 1_555
F1_2 C17_2 1_555 1_555
C1_2 C6_2 1_555 1_555
C2_2 C7_2 1_555 1_555
F2_2 C9_2 1_555 1_555
F3_2 C9_2 1_555 1_555
F4_2 C9_2 1_555 1_555
C3_2 H1_2 1_555 1_555
C4_2 C5_2 1_555 1_555
F5_2 C17_2 1_555 1_555
F6_2 C17_2 1_555 1_555
C5_2 C8_2 1_555 1_555
C7_2 H2_2 1_555 1_555
C8_2 C7_2 1_555 1_555
H3_2 C8_2 1_555 1_555
C9_2 C11_2 1_555 1_555
C10_2 C5_2 1_555 1_555
H4_2 C10_2 1_555 1_555
C11_2 C2_2 1_555 1_555
C12_2 C1_2 1_555 1_555
H5_2 C12_2 1_555 1_555
C13_2 C3_2 1_555 1_555
C14_2 C1_2 1_555 1_555
H6_2 C14_2 1_555 1_555
C15_2 C13_2 1_555 1_555
H7_2 C15_2 1_555 1_555
C16_2 C2_2 1_555 1_555
H8_2 C16_2 1_555 1_555
C17_2 C11_2 1_555 1_555
Co2_2 O4_2 1_555 1_555
Co4 O2_2 1_555 1_555
Co3 O1_2 1_555 1_555
Co5_2 O1_2 1_555 1_555
O6_2 Co1_2 1_555 1_555
O8_2 Co1_2 1_555 1_555
O9_2 Co1_2 1_555 1_555
O2_2 Co5_2 1_555 1_555
C3_2 C12_2 1_555 1_555
C10_2 C16_2 1_555 1_555
C11_2 C13_2 1_555 1_555
C14_2 C15_2 1_555 1_555
Co2_2 O8_2 1_555 1_555
Co1_3 O3_3 1_555 1_555
O1_3 C6_3 1_555 1_555
O2_3 C6_3 1_555 1_555
O3_3 C4_3 1_555 1_555
O4_3 C4_3 1_555 1_555
C1_3 C6_3 1_555 1_555
C2_3 C7_3 1_555 1_555
F2_3 C9_3 1_555 1_555
F3_3 C9_3 1_555 1_555
F4_3 C9_3 1_555 1_555
C3_3 H1_3 1_555 1_555
C4_3 C5_3 1_555 1_555
F5_3 C17_3 1_555 1_555
C5_3 C8_3 1_555 1_555
C7_3 H2_3 1_555 1_555
C8_3 C7_3 1_555 1_555
H3_3 C8_3 1_555 1_555
C9_3 C11_3 1_555 1_555
C10_3 C5_3 1_555 1_555
C11_3 C2_3 1_555 1_555
C12_3 C1_3 1_555 1_555
H5_3 C12_3 1_555 1_555
C13_3 C3_3 1_555 1_555
C14_3 C1_3 1_555 1_555
H6_3 C14_3 1_555 1_555
C15_3 C13_3 1_555 1_555
H7_3 C15_3 1_555 1_555
C16_3 C2_3 1_555 1_555
C17_3 C11_3 1_555 1_555
Co2_3 O4_3 1_555 1_555
Co5_2 O1_3 1_555 1_555
Co4 O1_3 1_555 1_555
O5_3 Co1_3 1_555 1_555
O6_3 Co1_3 1_555 1_555
O7_3 Co1_3 1_555 1_555
O8_3 Co1_3 1_555 1_555
O9_3 Co1_3 1_555 1_555
O2_3 Co4 1_555 1_555
C3_3 C12_3 1_555 1_555
C10_3 C16_3 1_555 1_555
C11_3 C13_3 1_555 1_555
C14_3 C15_3 1_555 1_555
Co2_3 O5_3 1_555 1_555
Co2_3 O8_3 1_555 1_555
O1_4 C6_4 1_555 1_555
O2_4 C6_4 1_555 1_555
F1_4 C17_4 1_555 1_555
C1_4 C6_4 1_555 1_555
F3_4 C9_4 1_555 1_555
F4_4 C9_4 1_555 1_555
C3_4 H1_4 1_555 1_555
F5_4 C17_4 1_555 1_555
F6_4 C17_4 1_555 1_555
C9_4 C11_4 1_555 1_555
C12_4 C1_4 1_555 1_555
H5_4 C12_4 1_555 1_555
C13_4 C3_4 1_555 1_555
C14_4 C1_4 1_555 1_555
H6_4 C14_4 1_555 1_555
C15_4 C13_4 1_555 1_555
H7_4 C15_4 1_555 1_555
C17_4 C11_4 1_555 1_555
Co5_2 O2_4 1_555 1_555
Co5 O1_4 1_555 1_555
Co3 O1_4 1_555 1_555
O2_4 Co3 1_555 1_555
C3_4 C12_4 1_555 1_555
C11_4 C13_4 1_555 1_555
C14_4 C15_4 1_555 1_555
Co1_4 O3_4 1_555 1_555
O3_4 C4_4 1_555 1_555
O4_4 C4_4 1_555 1_555
C2_4 C7_4 1_555 1_555
C4_4 C5_4 1_555 1_555
C5_4 C8_4 1_555 1_555
C8_4 C7_4 1_555 1_555
H3_4 C8_4 1_555 1_555
C10_4 C5_4 1_555 1_555
H4_4 C10_4 1_555 1_555
C16_4 C2_4 1_555 1_555
H8_4 C16_4 1_555 1_555
Co2_4 O4_4 1_555 1_555
O5_4 Co1_4 1_555 1_555
O6_4 Co1_4 1_555 1_555
O7_4 Co1_4 1_555 1_555
O8_4 Co1_4 1_555 1_555
O9_4 Co1_4 1_555 1_555
C10_4 C16_4 1_555 1_555
Co2_4 O5_4 1_555 1_555
Co2_4 O8_4 1_555 1_555
Co2_4 O3_5 1_555 1_555
O1_5 C6_5 1_555 1_555
O2_5 C6_5 1_555 1_555
O3_5 C4_5 1_555 1_555
O9_3 C4_5 1_555 1_555
F1_5 C17_5 1_555 1_555
C1_5 C6_5 1_555 1_555
C2_5 C7_5 1_555 1_555
F2_5 C9_5 1_555 1_555
F3_5 C9_5 1_555 1_555
F4_5 C9_5 1_555 1_555
C3_5 H1_5 1_555 1_555
C4_5 C5_5 1_555 1_555
F5_5 C17_5 1_555 1_555
F6_5 C17_5 1_555 1_555
C5_5 C8_5 1_555 1_555
C7_5 H2_5 1_555 1_555
C8_5 C7_5 1_555 1_555
H3_5 C8_5 1_555 1_555
C9_5 C11_5 1_555 1_555
C10_5 C5_5 1_555 1_555
H4_5 C10_5 1_555 1_555
C11_5 C2_5 1_555 1_555
C12_5 C1_5 1_555 1_555
H5_5 C12_5 1_555 1_555
C13_5 C3_5 1_555 1_555
C14_5 C1_5 1_555 1_555
H6_5 C14_5 1_555 1_555
C15_5 C13_5 1_555 1_555
H7_5 C15_5 1_555 1_555
C16_5 C2_5 1_555 1_555
H8_5 C16_5 1_555 1_555
C17_5 C11_5 1_555 1_555
Co3_2 O2_5 1_555 1_555
O6_3 Co2_4 1_555 1_555
O7_3 Co2_4 1_555 1_555
C3_5 C12_5 1_555 1_555
C10_5 C16_5 1_555 1_555
C11_5 C13_5 1_555 1_555
C14_5 C15_5 1_555 1_555
H6_6 C14_6 1_555 1_555
O2_6 C6_6 1_555 1_555
O3_6 C4_6 1_555 1_555
O9_4 C4_6 1_555 1_555
F1_6 C17_6 1_555 1_555
C1_6 C6_6 1_555 1_555
C2_6 C7_6 1_555 1_555
F2_6 C9_6 1_555 1_555
F3_6 C9_6 1_555 1_555
C3_6 H1_6 1_555 1_555
C4_6 C5_6 1_555 1_555
F5_6 C17_6 1_555 1_555
F6_6 C17_6 1_555 1_555
C5_6 C8_6 1_555 1_555
C8_6 C7_6 1_555 1_555
C9_6 C11_6 1_555 1_555
C10_6 C5_6 1_555 1_555
H4_6 C10_6 1_555 1_555
C11_6 C2_6 1_555 1_555
C12_6 C1_6 1_555 1_555
H5_6 C12_6 1_555 1_555
C13_6 C3_6 1_555 1_555
C15_6 C13_6 1_555 1_555
C16_6 C2_6 1_555 1_555
H8_6 C16_6 1_555 1_555
C17_6 C11_6 1_555 1_555
Co4_2 O2_6 1_555 1_555
C3_6 C12_6 1_555 1_555
C10_6 C16_6 1_555 1_555
C11_6 C13_6 1_555 1_555
O7_2 Co2 1_555 1_555
O3_7 C4_7 1_555 1_555
O9_2 C4_7 1_555 1_555
C2_7 C7_7 1_555 1_555
C4_7 C5_7 1_555 1_555
C5_7 C8_7 1_555 1_555
C8_7 C7_7 1_555 1_555
H3_7 C8_7 1_555 1_555
C10_7 C5_7 1_555 1_555
H4_7 C10_7 1_555 1_555
C16_7 C2_7 1_555 1_555
H8_7 C16_7 1_555 1_555
C10_7 C16_7 1_555 1_555
Co5_3 O2_7 1_555 1_555
O2_7 Co4_2 1_555 1_555
O1_7 C6_7 1_555 1_555
F1_7 C17_7 1_555 1_555
C1_7 C6_7 1_555 1_555
F3_7 C9_7 1_555 1_555
F4_7 C9_7 1_555 1_555
C3_7 H1_7 1_555 1_555
F5_7 C17_7 1_555 1_555
F6_7 C17_7 1_555 1_555
C9_7 C11_7 1_555 1_555
C12_7 C1_7 1_555 1_555
H5_7 C12_7 1_555 1_555
C13_7 C3_7 1_555 1_555
C14_7 C1_7 1_555 1_555
H6_7 C14_7 1_555 1_555
C15_7 C13_7 1_555 1_555
H7_7 C15_7 1_555 1_555
C17_7 C11_7 1_555 1_555
Co5_4 O1_7 1_555 1_555
C3_7 C12_7 1_555 1_555
C11_7 C13_7 1_555 1_555
C14_7 C15_7 1_555 1_555
O1_8 C6_8 1_555 1_555
O3_8 C4_8 1_555 1_555
O9 C4_8 1_555 1_555
C1_8 C6_8 1_555 1_555
C2_8 C7_8 1_555 1_555
F2_8 C9_8 1_555 1_555
F3_8 C9_8 1_555 1_555
F4_8 C9_8 1_555 1_555
C3_8 H1_8 1_555 1_555
C4_8 C5_8 1_555 1_555
F5_8 C17_8 1_555 1_555
C5_8 C8_8 1_555 1_555
C7_8 H2_8 1_555 1_555
C8_8 C7_8 1_555 1_555
H3_8 C8_8 1_555 1_555
C9_8 C11_8 1_555 1_555
C10_8 C5_8 1_555 1_555
C11_8 C2_8 1_555 1_555
C12_8 C1_8 1_555 1_555
H5_8 C12_8 1_555 1_555
C13_8 C3_8 1_555 1_555
C14_8 C1_8 1_555 1_555
H6_8 C14_8 1_555 1_555
C15_8 C13_8 1_555 1_555
H7_8 C15_8 1_555 1_555
C16_8 C2_8 1_555 1_555
C17_8 C11_8 1_555 1_555
Co5_3 O1_8 1_555 1_555
C3_8 C12_8 1_555 1_555
C10_8 C16_8 1_555 1_555
C11_8 C13_8 1_555 1_555
C14_8 C15_8 1_555 1_555
O7 Co2_2 1_555 1_555
O2_8 Co3_2 1_555 1_555
O8_3 C6_9 1_555 1_555
O3_9 C4_9 1_555 1_555
O4_5 C4_9 1_555 1_555
F1_8 C17_9 1_555 1_555
C1_9 C6_9 1_555 1_555
C2_9 C7_9 1_555 1_555
F2_9 C9_9 1_555 1_555
F3_9 C9_9 1_555 1_555
C3_9 H1_9 1_555 1_555
C4_9 C5_9 1_555 1_555
F5_9 C17_9 1_555 1_555
F6_8 C17_9 1_555 1_555
C5_9 C8_9 1_555 1_555
C8_9 C7_9 1_555 1_555
C9_9 C11_9 1_555 1_555
C10_9 C5_9 1_555 1_555
H4_8 C10_9 1_555 1_555
C11_9 C2_9 1_555 1_555
C12_9 C1_9 1_555 1_555
H5_9 C12_9 1_555 1_555
C13_9 C3_9 1_555 1_555
C15_9 C13_9 1_555 1_555
C16_9 C2_9 1_555 1_555
H8_8 C16_9 1_555 1_555
C17_9 C11_9 1_555 1_555
Co3_2 O4_5 1_555 1_555
C3_9 C12_9 1_555 1_555
C10_9 C16_9 1_555 1_555
C11_9 C13_9 1_555 1_555
H6_9 C14_9 1_555 1_555
O9_5 Co5_4 1_555 1_555
Co5_3 O3_10 1_555 1_555
O6_3 C6_10 1_555 1_555
O8_4 C6_10 1_555 1_555
O3_10 C4_10 1_555 1_555
O4_6 C4_10 1_555 1_555
F1_9 C17_10 1_555 1_555
C1_10 C6_10 1_555 1_555
C2_10 C7_10 1_555 1_555
F2_10 C9_10 1_555 1_555
F3_10 C9_10 1_555 1_555
F4_10 C9_10 1_555 1_555
C3_10 H1_10 1_555 1_555
C4_10 C5_10 1_555 1_555
F5_10 C17_10 1_555 1_555
F6_9 C17_10 1_555 1_555
C5_10 C8_10 1_555 1_555
C7_10 H2_10 1_555 1_555
C8_10 C7_10 1_555 1_555
H3_10 C8_10 1_555 1_555
C9_10 C11_10 1_555 1_555
C10_10 C5_10 1_555 1_555
H4_9 C10_10 1_555 1_555
C11_10 C2_10 1_555 1_555
C12_10 C1_10 1_555 1_555
H5_10 C12_10 1_555 1_555
C13_10 C3_10 1_555 1_555
C14_10 C1_10 1_555 1_555
H6_10 C14_10 1_555 1_555
C15_10 C13_10 1_555 1_555
H7_10 C15_10 1_555 1_555
C16_10 C2_10 1_555 1_555
H8_9 C16_10 1_555 1_555
C17_10 C11_10 1_555 1_555
Co4_2 O4_6 1_555 1_555
O9_6 Co5_3 1_555 1_555
C3_10 C12_10 1_555 1_555
C10_10 C16_10 1_555 1_555
C11_10 C13_10 1_555 1_555
C14_10 C15_10 1_555 1_555
Co3 O3_11 1_555 1_555
O5_4 C6_11 1_555 1_555
O7_4 C6_11 1_555 1_555
O3_11 C4_11 1_555 1_555
O4_7 C4_11 1_555 1_555
C1_11 C6_11 1_555 1_555
C2_11 C7_11 1_555 1_555
F2_11 C9_11 1_555 1_555
F3_11 C9_11 1_555 1_555
F4_11 C9_11 1_555 1_555
C3_11 H1_11 1_555 1_555
C4_11 C5_11 1_555 1_555
F5_11 C17_11 1_555 1_555
C5_11 C8_11 1_555 1_555
C7_11 H2_11 1_555 1_555
C8_11 C7_11 1_555 1_555
H3_11 C8_11 1_555 1_555
C9_11 C11_11 1_555 1_555
C10_11 C5_11 1_555 1_555
C11_11 C2_11 1_555 1_555
C12_11 C1_11 1_555 1_555
H5_11 C12_11 1_555 1_555
C13_11 C3_11 1_555 1_555
C14_11 C1_11 1_555 1_555
H6_11 C14_11 1_555 1_555
C15_11 C13_11 1_555 1_555
H7_11 C15_11 1_555 1_555
C16_11 C2_11 1_555 1_555
C17_11 C11_11 1_555 1_555
Co5 O4_7 1_555 1_555
O9_7 Co3 1_555 1_555
C3_11 C12_11 1_555 1_555
C10_11 C16_11 1_555 1_555
C11_11 C13_11 1_555 1_555
C14_11 C15_11 1_555 1_555
Co4 O3_12 1_555 1_555
O3_12 C4_12 1_555 1_555
O4_8 C4_12 1_555 1_555
C2_12 C7_12 1_555 1_555
C4_12 C5_12 1_555 1_555
C5_12 C8_12 1_555 1_555
C8_12 C7_12 1_555 1_555
H3_12 C8_12 1_555 1_555
C10_12 C5_12 1_555 1_555
H4_11 C10_12 1_555 1_555
C16_12 C2_12 1_555 1_555
H8_11 C16_12 1_555 1_555
Co5_2 O4_8 1_555 1_555
O9_8 Co4 1_555 1_555
C10_12 C16_12 1_555 1_555
O5_3 C6_12 1_555 1_555
O7_3 C6_12 1_555 1_555
F1_11 C17_12 1_555 1_555
C1_12 C6_12 1_555 1_555
F3_12 C9_12 1_555 1_555
F4_12 C9_12 1_555 1_555
C3_12 H1_12 1_555 1_555
F5_12 C17_12 1_555 1_555
F6_11 C17_12 1_555 1_555
C9_12 C11_12 1_555 1_555
C12_12 C1_12 1_555 1_555
H5_12 C12_12 1_555 1_555
C13_12 C3_12 1_555 1_555
C14_12 C1_12 1_555 1_555
H6_12 C14_12 1_555 1_555
C15_12 C13_12 1_555 1_555
H7_12 C15_12 1_555 1_555
C17_12 C11_12 1_555 1_555
C3_12 C12_12 1_555 1_555
C11_12 C13_12 1_555 1_555
C14_12 C15_12 1_555 1_555
Co5_2 O3_13 1_555 1_555
O5_2 C6_13 1_555 1_555
O7_2 C6_13 1_555 1_555
O3_13 C4_13 1_555 1_555
O9_7 C4_13 1_555 1_555
F1_12 C17_13 1_555 1_555
C1_13 C6_13 1_555 1_555
C2_13 C7_13 1_555 1_555
F2_13 C9_13 1_555 1_555
F3_13 C9_13 1_555 1_555
F4_13 C9_13 1_555 1_555
C3_13 H1_13 1_555 1_555
C4_13 C5_13 1_555 1_555
F5_13 C17_13 1_555 1_555
F6_12 C17_13 1_555 1_555
C5_13 C8_13 1_555 1_555
C7_13 H2_13 1_555 1_555
C8_13 C7_13 1_555 1_555
H3_13 C8_13 1_555 1_555
C9_13 C11_13 1_555 1_555
C10_13 C5_13 1_555 1_555
H4_12 C10_13 1_555 1_555
C11_13 C2_13 1_555 1_555
C12_13 C1_13 1_555 1_555
H5_13 C12_13 1_555 1_555
C13_13 C3_13 1_555 1_555
C14_13 C1_13 1_555 1_555
H6_13 C14_13 1_555 1_555
C15_13 C13_13 1_555 1_555
H7_13 C15_13 1_555 1_555
C16_13 C2_13 1_555 1_555
H8_12 C16_13 1_555 1_555
C17_13 C11_13 1_555 1_555
C3_13 C12_13 1_555 1_555
C10_13 C16_13 1_555 1_555
C11_13 C13_13 1_555 1_555
C14_13 C15_13 1_555 1_555
O7 C6_14 1_555 1_555
O3_14 C4_14 1_555 1_555
O9_8 C4_14 1_555 1_555
F1_13 C17_14 1_555 1_555
C1_14 C6_14 1_555 1_555
C2_14 C7_14 1_555 1_555
F2_14 C9_14 1_555 1_555
F3_14 C9_14 1_555 1_555
C3_14 H1_14 1_555 1_555
C4_14 C5_14 1_555 1_555
F5_14 C17_14 1_555 1_555
F6_13 C17_14 1_555 1_555
C5_14 C8_14 1_555 1_555
C8_14 C7_14 1_555 1_555
C9_14 C11_14 1_555 1_555
C10_14 C5_14 1_555 1_555
H4_13 C10_14 1_555 1_555
C11_14 C2_14 1_555 1_555
C12_14 C1_14 1_555 1_555
H5_14 C12_14 1_555 1_555
C13_14 C3_14 1_555 1_555
C15_14 C13_14 1_555 1_555
C16_14 C2_14 1_555 1_555
H8_13 C16_14 1_555 1_555
C17_14 C11_14 1_555 1_555
C3_14 C12_14 1_555 1_555
C10_14 C16_14 1_555 1_555
C11_14 C13_14 1_555 1_555
H6_14 C14_14 1_555 1_555
O6 C6_15 1_555 1_555
F1_14 C17_15 1_555 1_555
C1_15 C6_15 1_555 1_555
F3_15 C9_15 1_555 1_555
F4_15 C9_15 1_555 1_555
C3_15 H1_15 1_555 1_555
F5_15 C17_15 1_555 1_555
F6_14 C17_15 1_555 1_555
C9_15 C11_15 1_555 1_555
C12_15 C1_15 1_555 1_555
H5_15 C12_15 1_555 1_555
C13_15 C3_15 1_555 1_555
C14_15 C1_15 1_555 1_555
H6_15 C14_15 1_555 1_555
C15_15 C13_15 1_555 1_555
H7_15 C15_15 1_555 1_555
C17_15 C11_15 1_555 1_555
C3_15 C12_15 1_555 1_555
C11_15 C13_15 1_555 1_555
C14_15 C15_15 1_555 1_555
O3_15 C4_15 1_555 1_555
O9_6 C4_15 1_555 1_555
C2_15 C7_15 1_555 1_555
C4_15 C5_15 1_555 1_555
C5_15 C8_15 1_555 1_555
C8_15 C7_15 1_555 1_555
H3_15 C8_15 1_555 1_555
C10_15 C5_15 1_555 1_555
H4_14 C10_15 1_555 1_555
C16_15 C2_15 1_555 1_555
H8_14 C16_15 1_555 1_555
C10_15 C16_15 1_555 1_555
O6_2 C6_16 1_555 1_555
O3_16 C4_16 1_555 1_555
O9_5 C4_16 1_555 1_555
C1_16 C6_16 1_555 1_555
C2_16 C7_16 1_555 1_555
F2_16 C9_16 1_555 1_555
F3_16 C9_16 1_555 1_555
F4_16 C9_16 1_555 1_555
C3_16 H1_16 1_555 1_555
C4_16 C5_16 1_555 1_555
F5_16 C17_16 1_555 1_555
C5_16 C8_16 1_555 1_555
C7_16 H2_16 1_555 1_555
C8_16 C7_16 1_555 1_555
H3_16 C8_16 1_555 1_555
C9_16 C11_16 1_555 1_555
C10_16 C5_16 1_555 1_555
C11_16 C2_16 1_555 1_555
C12_16 C1_16 1_555 1_555
H5_16 C12_16 1_555 1_555
C13_16 C3_16 1_555 1_555
C14_16 C1_16 1_555 1_555
H6_16 C14_16 1_555 1_555
C15_16 C13_16 1_555 1_555
H7_16 C15_16 1_555 1_555
C16_16 C2_16 1_555 1_555
C17_16 C11_16 1_555 1_555
C3_16 C12_16 1_555 1_555
C10_16 C16_16 1_555 1_555
C11_16 C13_16 1_555 1_555
C14_16 C15_16 1_555 1_555

#END
