
###############################################################################
#
# This file contains modified crystal structure data generated from the
# MOF subset of the Cambridge Structural Database (CSD) v543 
# hosted by the Cambridge Crystallographic Data Centre (CCDC).
#
# This work is licensed under the Creative Commons
# Attribution-NonCommercial-ShareAlike 4.0 International License.
# To view a copy of this license, visit
# http://creativecommons.org/licenses/by-nc-sa/4.0/
# or send a letter to
# Creative Commons, PO Box 1866, Mountain View, CA 94042, USA.
#
# CIF created using the CSD Python API on 29 September 2022
# The structure has been converted into the P1 space group
# The structure has a 3D framework
# The original CSD entry DOTWER is in the monoclinic crystal system
# The framework has been calculated to contain at least 10.0% void space
# The void calculation uses a probe of radius 1.32A, grid spacing 0.4
#
###############################################################################

data_DOTWER
_chemical_formula_moiety         '(C248 H184 Ca16 N8 O100 S16)n'
_symmetry_cell_setting           triclinic
_symmetry_space_group_name_H-M   'P 1'
_symmetry_Int_Tables_number      1
_space_group_name_Hall           'P 1'
loop_
_symmetry_equiv_pos_site_id
_symmetry_equiv_pos_as_xyz
1 x,y,z
_cell_length_a                   14.4348(11)
_cell_length_b                   22.4224(17)
_cell_length_c                   23.3587(18)
_cell_angle_alpha                90
_cell_angle_beta                 98.194(2)
_cell_angle_gamma                90
_cell_volume                     7483.16
loop_
_atom_site_label
_atom_site_type_symbol
_atom_site_fract_x
_atom_site_fract_y
_atom_site_fract_z
C10 C 0.1311(4) 0.1632(3) 0.0301(3)
C12 C 0.0589(4) 0.1179(3) 0.0418(3)
C13 C 0.0595(5) 0.0929(3) 0.0963(3)
H7 H 0.1065 0.1030 0.1262
O18 O 0.2015(3) 0.1739(2) 0.06842(19)
H37 H 0.5259 0.2329 0.0196
H38 H 0.6264 0.2590 0.0187
C60 C 0.1774(7) 0.3687(4) 0.0626(4)
H40 H 0.1813 0.4047 0.0434
C61 C 0.1560(8) 0.3189(6) 0.1502(5)
H41 H 0.1487 0.2846 0.1254
H42 H 0.1019 0.3231 0.1695
H43 H 0.2107 0.3141 0.1785
C62 C 0.1653(9) 0.4277(5) 0.1473(5)
H44 H 0.2190 0.4296 0.1767
H45 H 0.1093 0.4301 0.1650
H46 H 0.1671 0.4604 0.1209
N2 N 0.1663(5) 0.3717(4) 0.1160(3)
O26 O 0.1834(4) 0.3235(3) 0.0343(2)
Ca4 Ca 0.26992(9) 0.24885(6) 0.00047(5)
O38 O 0.3667(3) 0.2629(2) 0.0857(2)
O41 O 0.3825(3) 0.1486(2) 0.02479(19)
Ca13 Ca 0.35405(8) 0.16272(5) 0.12418(5)
O1 O 0.1177(3) 0.19066(19) 0.98281(19)
C57 C 0.4599(6) 0.2859(4) 0.9328(4)
H33 H 0.4412 0.3037 0.8970
C58 C 0.6079(10) 0.2635(7) 0.8974(7)
H34 H 0.6230 0.2228 0.8897
H35 H 0.6643 0.2848 0.9114
H36 H 0.5779 0.2818 0.8625
C59 C 0.5770(8) 0.2358(6) 0.9976(6)
H39 H 0.5998 0.1965 0.9910
N1 N 0.5445(5) 0.2649(3) 0.9414(3)
O25 O 0.4034(3) 0.2852(2) 0.9656(2)
O29 O 0.2853(3) 0.1615(2) 0.94347(19)
O31 O 0.2075(3) 0.27206(18) 0.90591(18)
Ca7 Ca 0.13722(8) 0.17286(5) 0.88476(5)
H8 H 0.0106 0.4250 0.5073
C28 C 0.4091(5) 0.3361(3) 0.3288(3)
C29 C 0.3930(4) 0.2892(3) 0.1329(3)
C30 C 0.4253(4) 0.3534(3) 0.1318(3)
C31 C 0.4471(5) 0.3845(3) 0.1829(3)
H16 H 0.4411 0.3664 0.2179
C32 C 0.4324(5) 0.3803(3) 0.0791(3)
H17 H 0.4174 0.3587 0.0451
C33 C 0.4617(5) 0.4388(3) 0.0767(3)
H18 H 0.4656 0.4575 0.0416
C34 C 0.4776(5) 0.4423(3) 0.1817(3)
H19 H 0.4931 0.4637 0.2159
C35 C 0.2063(5) 0.6451(3) 0.2454(4)
C36 C 0.2840(5) 0.6238(3) 0.2128(3)
C37 C 0.3762(5) 0.6250(3) 0.2406(3)
H20 H 0.3898 0.6408 0.2777
C38 C 0.2654(5) 0.6029(3) 0.1567(3)
H21 H 0.2047 0.6038 0.1370
C39 C 0.3380(5) 0.5805(3) 0.1299(3)
H22 H 0.3257 0.5653 0.0925
C40 C 0.4276(5) 0.5807(3) 0.1585(3)
C41 C 0.4469(5) 0.6030(3) 0.2133(3)
H23 H 0.5082 0.6032 0.2321
C42 C 0.4850(5) 0.4684(3) 0.1289(3)
C43 C 0.1878(4) 0.4593(3) 0.3320(3)
C44 C 0.1681(5) 0.4036(3) 0.3077(3)
H24 H 0.1072 0.3932 0.2924
C45 C 0.2400(5) 0.3644(3) 0.3068(3)
H25 H 0.2277 0.3267 0.2910
C46 C 0.3306(4) 0.3796(3) 0.3288(3)
C47 C 0.3487(5) 0.4360(3) 0.3525(3)
H26 H 0.4096 0.4470 0.3671
C48 C 0.2766(5) 0.4756(3) 0.3545(4)
H27 H 0.2882 0.5131 0.3709
C49 C 0.0225(4) 0.4700(3) 0.3780(3)
C50 C 0.0494(5) 0.4637(3) 0.4369(3)
H28 H 0.1033 0.4820 0.4553
O7 O 0.4876(3) 0.3515(2) 0.3544(3)
O9 O 0.3914(3) 0.2884(2) 0.3035(2)
O10 O 0.3927(3) 0.2637(2) 0.18064(19)
O13 O 0.1281(4) 0.6548(2) 0.2156(2)
O14 O 0.2257(4) 0.6502(2) 0.2986(2)
O15 O 0.1337(3) 0.55960(19) 0.3708(2)
O21 O 0.0445(3) 0.5197(2) 0.2798(2)
O22 O 0.5144(5) 0.5628(2) 0.0687(3)
O24 O 0.6043(4) 0.5527(3) 0.1667(3)
S3 S 0.09465(11) 0.50947(7) 0.33629(7)
S4 S 0.51882(15) 0.54491(8) 0.12761(10)
Ca2 Ca 0.01429(8) 0.72190(5) 0.23745(5)
Ca3 Ca 0.14595(8) 0.66272(5) 0.37582(5)
O32 O 0.0124(3) 0.8515(2) 0.1456(3)
O34 O 0.1086(3) 0.7884(2) 0.1965(2)
O35 O 0.1073(3) 0.7637(2) 0.31936(19)
O39 O 0.1333(3) 0.7629(2) 0.4143(2)
O40 O 0.1175(3) 0.6486(2) 0.47521(19)
O42 O 0.2985(3) 0.6739(2) 0.43158(19)
Ca6 Ca 0.63722(8) 0.32714(5) 0.38476(5)
Ca10 Ca 0.48571(8) 0.22190(5) 0.26255(5)
C17 C 0.7582(4) 0.0336(3) 0.1123(3)
C18 C 0.7634(5) 0.0263(3) 0.1717(3)
C19 C 0.6979(5) 0.0727(3) 0.0818(3)
H10 H 0.6967 0.0772 0.0421
C20 C 0.9204(5) 0.0626(3) 0.0073(3)
C21 C 0.9222(5) 0.0384(3) 0.0606(3)
C22 C 0.9902(5) 0.0528(3) 0.1064(3)
H12 H 0.9896 0.0361 0.1429
C53 C 0.5773(4) 0.1366(3) 0.2011(3)
C54 C 0.6423(4) 0.0994(3) 0.1698(3)
C55 C 0.6390(5) 0.1053(3) 0.1109(3)
H31 H 0.5965 0.1315 0.0907
C56 C 0.7062(4) 0.0615(3) 0.2006(3)
H32 H 0.7109 0.0597 0.2407
O11 O 0.5994(3) 0.1446(2) 0.2543(2)
O12 O 0.5061(3) 0.1592(2) 0.1722(2)
C1 C 0.8627(4) 0.6977(3) 0.1157(3)
C2 C 0.8604(4) 0.6315(3) 0.1044(3)
C3 C 0.7775(5) 0.6035(3) 0.0837(3)
H1 H 0.7223 0.6255 0.0787
C4 C 0.7743(5) 0.5436(3) 0.0703(3)
H2 H 0.7181 0.5251 0.0561
C5 C 0.9425(5) 0.5987(3) 0.1144(3)
H3 H 0.9982 0.6169 0.1303
C6 C 0.9410(5) 0.5389(3) 0.1007(3)
H4 H 0.9960 0.5167 0.1064
C7 C 0.8572(5) 0.5121(3) 0.0784(3)
C8 C 0.7966(5) 0.4026(3) 0.1155(3)
C9 C 0.8304(6) 0.4132(4) 0.1725(3)
H5 H 0.8825 0.4375 0.1823
C14 C 0.8569(4) 0.3622(3) 0.4721(3)
C15 C 0.9141(4) 0.4018(3) 0.4397(3)
C16 C 0.9941(5) 0.4295(3) 0.4676(3)
H9 H 0.8041 0.9986 0.1914
C23 C 0.6628(5) 0.3235(3) 0.2489(3)
C24 C 0.7100(5) 0.3512(3) 0.2011(3)
C25 C 0.6776(5) 0.3411(3) 0.1442(3)
H13 H 0.6262 0.3162 0.1345
C26 C 0.7200(5) 0.3672(3) 0.1003(3)
H14 H 0.6966 0.3608 0.0616
C27 C 0.7866(6) 0.3877(4) 0.2152(3)
H15 H 0.8090 0.3952 0.2539
C51 C 0.9431(4) 0.4433(3) 0.3493(3)
H29 H 0.9261 0.4486 0.3097
C52 C 0.8896(4) 0.4084(3) 0.3809(3)
H30 H 0.8365 0.3893 0.3622
O2 O 0.7853(3) 0.3385(2) 0.44347(19)
O3 O 0.8676(3) 0.93985(19) 0.1080(2)
O4 O 0.6938(3) 0.3396(2) 0.2997(2)
O5 O 0.7925(3) 0.72794(18) 0.09409(18)
O6 O 0.9322(3) 0.72204(19) 0.14361(19)
O8 O 0.5988(3) 0.2872(2) 0.2351(2)
O17 O 0.8825(3) 0.3514(2) 0.52479(19)
O19 O 0.7972(4) 0.4264(2) 0.0061(2)
O20 O 0.9492(4) 0.4140(2) 0.0688(3)
O23 O 0.7767(3) 0.9756(2) 0.0167(2)
S1 S 0.85476(14) 0.43503(7) 0.06085(8)
S2 S 0.82883(11) 0.98891(7) 0.07221(7)
Ca1 Ca 0.86278(8) 0.82714(5) 0.11524(5)
O27 O 0.8823(3) 0.80934(19) 0.01719(19)
O28 O 0.7147(3) 0.8385(2) 0.05653(19)
O30 O 0.8062(3) 0.8396(2) 0.2003(2)
O33 O 0.9012(3) 0.7872(2) 0.2649(2)
O36 O 0.9006(3) 0.6446(2) 0.2457(2)
O37 O 0.9939(3) 0.6592(2) 0.3278(2)
Ca14 Ca 0.85405(8) 0.33728(5) 0.62418(5)
Ca17 Ca 0.76992(9) 0.25115(6) 0.50047(5)
Ca16 Ca 0.73008(9) 0.75115(6) 0.99953(5)
C1_2 C 0.6373(4) 0.1977(3) 0.3843(3)
C2_2 C 0.6396(4) 0.1315(3) 0.3956(3)
C3_2 C 0.7225(5) 0.1035(3) 0.4163(3)
H1_2 H 0.7777 0.1255 0.4213
C4_2 C 0.7257(5) 0.0436(3) 0.4297(3)
H2_2 H 0.7819 0.0251 0.4439
C5_2 C 0.5575(5) 0.0987(3) 0.3856(3)
H3_2 H 0.5018 0.1169 0.3697
C6_2 C 0.5590(5) 0.0389(3) 0.3993(3)
H4_2 H 0.5040 0.0167 0.3936
C7_2 C 0.6428(5) 0.0121(3) 0.4216(3)
C10_2 C 0.3689(4) 0.6632(3) 0.4699(3)
C11 C 0.5114(4) 0.6026(3) 0.5023(3)
H6 H 0.5126 0.6195 0.5387
C12_2 C 0.4411(4) 0.6179(3) 0.4582(3)
C13_2 C 0.4405(5) 0.5929(3) 0.4037(3)
H7_2 H 0.3935 0.6030 0.3738
C17_2 C 0.7418(4) 0.5336(3) 0.3877(3)
C18_2 C 0.7366(5) 0.5263(3) 0.3283(3)
H9_2 H 0.6959 0.4986 0.3086
C19_2 C 0.8021(5) 0.5727(3) 0.4182(3)
H10_2 H 0.8033 0.5772 0.4579
C20_2 C 0.5796(5) 0.5626(3) 0.4927(3)
H11 H 0.6266 0.5522 0.5225
C21_2 C 0.5778(5) 0.5384(3) 0.4394(3)
C22_2 C 0.5098(5) 0.5528(3) 0.3936(3)
H12_2 H 0.5104 0.5361 0.3571
C35_2 C 0.2937(5) 0.1451(3) 0.2546(4)
C36_2 C 0.2160(5) 0.1238(3) 0.2872(3)
C37_2 C 0.1238(5) 0.1250(3) 0.2594(3)
H20_2 H 0.1102 0.1408 0.2223
C38_2 C 0.2346(5) 0.1029(3) 0.3433(3)
H21_2 H 0.2953 0.1038 0.3630
C39_2 C 0.1620(5) 0.0805(3) 0.3701(3)
H22_2 H 0.1743 0.0653 0.4075
C40_2 C 0.0724(5) 0.0807(3) 0.3415(3)
C41_2 C 0.0531(5) 0.1030(3) 0.2867(3)
H27_2 H 0.2118 0.0131 0.1291
C53_2 C 0.9227(4) 0.6366(3) 0.2989(3)
C54_2 C 0.8577(4) 0.5994(3) 0.3302(3)
C55_2 C 0.8610(5) 0.6053(3) 0.3891(3)
H31_2 H 0.9035 0.6315 0.4093
C56_2 C 0.7938(4) 0.5615(3) 0.2994(3)
H32_2 H 0.7891 0.5597 0.2593
O1_2 O 0.3823(3) 0.69066(19) 0.51719(19)
O3_2 O 0.6324(3) 0.43985(19) 0.3920(2)
O5_2 O 0.7075(3) 0.22794(18) 0.40591(18)
O6_2 O 0.5678(3) 0.22204(19) 0.35639(19)
O13_2 O 0.3719(4) 0.1548(2) 0.2844(2)
O14_2 O 0.2743(4) 0.1502(2) 0.2014(2)
O15_2 O 0.3663(3) 0.05960(19) 0.1292(2)
O21_2 O 0.4555(3) 0.0197(2) 0.2202(2)
O23_2 O 0.7233(3) 0.4756(2) 0.4833(2)
S2_2 S 0.67117(11) 0.48891(7) 0.42779(7)
S3_2 S 0.40535(11) 0.00947(7) 0.16371(7)
C57_2 C 0.0401(6) 0.7859(4) 0.5672(4)
H33_2 H 0.0588 0.8037 0.6030
C60_2 C 0.3226(7) 0.8687(4) 0.4374(4)
H40_2 H 0.3187 0.9047 0.4566
C61_2 C 0.3440(8) 0.8189(6) 0.3498(5)
H41_2 H 0.3513 0.7846 0.3746
H42_2 H 0.3981 0.8231 0.3305
H43_2 H 0.2893 0.8141 0.3215
C62_2 C 0.3347(9) 0.9277(5) 0.3527(5)
H44_2 H 0.2810 0.9296 0.3233
H45_2 H 0.3907 0.9301 0.3350
H46_2 H 0.3329 0.9604 0.3791
N2_2 N 0.3337(5) 0.8717(4) 0.3840(3)
O25_2 O 0.0966(3) 0.7852(2) 0.5344(2)
O26_2 O 0.3166(4) 0.8235(3) 0.4657(2)
Ca4_2 Ca 0.23008(9) 0.74885(6) 0.49953(5)
O27_2 O 0.6177(3) 0.30934(19) 0.48281(19)
O29_2 O 0.2147(3) 0.6615(2) 0.55653(19)
O31_2 O 0.2925(3) 0.77206(18) 0.59409(18)
Ca7_2 Ca 0.36278(8) 0.67286(5) 0.61524(5)
C8_2 C 0.7034(5) 0.9026(3) 0.3845(3)
C9_2 C 0.6696(6) 0.9132(4) 0.3275(3)
H5_2 H 0.6175 0.9375 0.3177
C14_2 C 0.6431(4) 0.8622(3) 0.0279(3)
C15_2 C 0.5859(4) 0.9018(3) 0.0603(3)
C16_2 C 0.5059(5) 0.9295(3) 0.0324(3)
C23_2 C 0.8372(5) 0.8235(3) 0.2511(3)
C24_2 C 0.7900(5) 0.8512(3) 0.2989(3)
C25_2 C 0.8224(5) 0.8411(3) 0.3558(3)
H13_2 H 0.8738 0.8162 0.3655
C26_2 C 0.7800(5) 0.8672(3) 0.3997(3)
H14_2 H 0.8034 0.8608 0.4384
C27_2 C 0.7134(6) 0.8877(4) 0.2848(3)
H15_2 H 0.6910 0.8952 0.2461
C28_2 C 0.0909(5) 0.8361(3) 0.1712(3)
C29_2 C 0.1070(4) 0.7892(3) 0.3671(3)
C30_2 C 0.0747(4) 0.8534(3) 0.3682(3)
C31_2 C 0.0529(5) 0.8845(3) 0.3171(3)
H16_2 H 0.0589 0.8664 0.2821
C32_2 C 0.0676(5) 0.8803(3) 0.4209(3)
H17_2 H 0.0826 0.8587 0.4549
C33_2 C 0.0383(5) 0.9388(3) 0.4233(3)
H18_2 H 0.0344 0.9575 0.4584
C34_2 C 0.0224(5) 0.9423(3) 0.3183(3)
H19_2 H 0.0069 0.9637 0.2841
C42_2 C 0.0150(5) 0.9684(3) 0.3711(3)
C43_2 C 0.3122(4) 0.9593(3) 0.1680(3)
C44_2 C 0.3319(5) 0.9036(3) 0.1923(3)
H24_2 H 0.3928 0.8932 0.2076
C45_2 C 0.2600(5) 0.8644(3) 0.1932(3)
H25_2 H 0.2723 0.8267 0.2090
C46_2 C 0.1694(4) 0.8796(3) 0.1712(3)
C47_2 C 0.1513(5) 0.9360(3) 0.1475(3)
H26_2 H 0.0904 0.9470 0.1329
C48_2 C 0.2234(5) 0.9756(3) 0.1455(4)
C49_2 C 0.4775(4) 0.9700(3) 0.1220(3)
C50_2 C 0.4506(5) 0.9637(3) 0.0631(3)
H28_2 H 0.3967 0.9820 0.0447
C51_2 C 0.5569(4) 0.9433(3) 0.1507(3)
H29_2 H 0.5739 0.9486 0.1903
C52_2 C 0.6104(4) 0.9084(3) 0.1191(3)
H30_2 H 0.6635 0.8893 0.1378
O19_2 O 0.7028(4) 0.9264(2) 0.4939(2)
O20_2 O 0.5508(4) 0.9140(2) 0.4312(3)
S1_2 S 0.64524(14) 0.93503(7) 0.43915(8)
H8_2 H 0.4894 0.9250 0.9927
O17_2 O 0.6175(3) 0.8514(2) 0.97521(19)
Ca14_2 Ca 0.64595(8) 0.83728(5) 0.87582(5)
C1_3 C 0.1373(4) 0.3023(3) 0.8843(3)
C2_3 C 0.1396(4) 0.3685(3) 0.8956(3)
C3_3 C 0.2225(5) 0.3965(3) 0.9163(3)
H1_3 H 0.2777 0.3745 0.9213
C4_3 C 0.2257(5) 0.4564(3) 0.9297(3)
H2_3 H 0.2819 0.4749 0.9439
C5_3 C 0.0575(5) 0.4013(3) 0.8856(3)
H3_3 H 0.0018 0.3831 0.8697
C6_3 C 0.0590(5) 0.4611(3) 0.8993(3)
H4_3 H 0.0040 0.4833 0.8936
C7_3 C 0.1428(5) 0.4879(3) 0.9216(3)
C8_3 C 0.2034(5) 0.5974(3) 0.8845(3)
C9_3 C 0.1696(6) 0.5868(4) 0.8275(3)
H5_3 H 0.1175 0.5625 0.8177
C14_3 C 0.1431(4) 0.6378(3) 0.5279(3)
C15_3 C 0.0859(4) 0.5982(3) 0.5603(3)
C16_3 C 0.0059(5) 0.5705(3) 0.5324(3)
H9_3 H 0.1959 0.0014 0.8086
C23_3 C 0.3372(5) 0.6765(3) 0.7511(3)
C24_3 C 0.2900(5) 0.6488(3) 0.7989(3)
C25_3 C 0.3224(5) 0.6589(3) 0.8558(3)
H13_3 H 0.3738 0.6838 0.8655
C26_3 C 0.2800(5) 0.6328(3) 0.8997(3)
H14_3 H 0.3034 0.6392 0.9384
C27_3 C 0.2134(6) 0.6123(4) 0.7848(3)
H15_3 H 0.1910 0.6048 0.7461
C51_3 C 0.0569(4) 0.5567(3) 0.6507(3)
H29_3 H 0.0739 0.5514 0.6903
C52_3 C 0.1104(4) 0.5916(3) 0.6191(3)
H30_3 H 0.1635 0.6107 0.6378
O3_3 O 0.1324(3) 0.06015(19) 0.8920(2)
O4_2 O 0.3062(3) 0.6604(2) 0.7003(2)
O6_3 O 0.0678(3) 0.27796(19) 0.85639(19)
O8_2 O 0.4012(3) 0.7128(2) 0.7649(2)
O19_3 O 0.2028(4) 0.5736(2) 0.9939(2)
O20_3 O 0.0508(4) 0.5860(2) 0.9312(3)
O23_3 O 0.2233(3) 0.0244(2) 0.9833(2)
S1_3 S 0.14524(14) 0.56497(7) 0.93915(8)
S2_3 S 0.17117(11) 0.01109(7) 0.92779(7)
O30_2 O 0.1938(3) 0.1604(2) 0.7997(2)
O33_2 O 0.0988(3) 0.2128(2) 0.7351(2)
O36_2 O 0.0994(3) 0.3554(2) 0.7543(2)
O37_2 O 0.0061(3) 0.3408(2) 0.6722(2)
Ca8 Ca 0.51429(8) 0.77810(5) 0.73745(5)
C17_3 C 0.2418(4) 0.9664(3) 0.8877(3)
C18_3 C 0.2366(5) 0.9737(3) 0.8283(3)
C19_3 C 0.3021(5) 0.9273(3) 0.9182(3)
H10_3 H 0.3033 0.9228 0.9579
C20_3 C 0.0796(5) 0.9374(3) 0.9927(3)
C21_3 C 0.0778(5) 0.9616(3) 0.9394(3)
C22_3 C 0.0098(5) 0.9472(3) 0.8936(3)
H12_3 H 0.0104 0.9639 0.8571
C53_3 C 0.4227(4) 0.8634(3) 0.7989(3)
C54_3 C 0.3577(4) 0.9006(3) 0.8302(3)
C55_3 C 0.3610(5) 0.8947(3) 0.8891(3)
H31_3 H 0.4035 0.8685 0.9093
C56_3 C 0.2938(4) 0.9385(3) 0.7994(3)
H32_3 H 0.2891 0.9403 0.7593
O11_2 O 0.4006(3) 0.8554(2) 0.7457(2)
O12_2 O 0.4939(3) 0.8408(2) 0.8278(2)
H8_3 H 0.9894 0.5750 0.4927
C28_3 C 0.5909(5) 0.6639(3) 0.6712(3)
C29_3 C 0.6070(4) 0.7108(3) 0.8671(3)
C30_3 C 0.5747(4) 0.6466(3) 0.8682(3)
C31_3 C 0.5529(5) 0.6155(3) 0.8171(3)
H16_3 H 0.5589 0.6336 0.7821
C32_3 C 0.5676(5) 0.6197(3) 0.9209(3)
H17_3 H 0.5826 0.6413 0.9549
C33_3 C 0.5383(5) 0.5612(3) 0.9233(3)
H18_3 H 0.5344 0.5425 0.9584
C34_3 C 0.5224(5) 0.5577(3) 0.8183(3)
H19_3 H 0.5069 0.5363 0.7841
C35_3 C 0.7937(5) 0.3549(3) 0.7546(4)
C36_3 C 0.7160(5) 0.3762(3) 0.7872(3)
C37_3 C 0.6238(5) 0.3750(3) 0.7594(3)
H20_3 H 0.6102 0.3592 0.7223
C38_3 C 0.7346(5) 0.3971(3) 0.8433(3)
H21_3 H 0.7953 0.3962 0.8630
C39_3 C 0.6620(5) 0.4195(3) 0.8701(3)
H22_3 H 0.6743 0.4347 0.9075
C40_3 C 0.5724(5) 0.4193(3) 0.8415(3)
C41_3 C 0.5531(5) 0.3970(3) 0.7867(3)
H23_2 H 0.4918 0.3968 0.7679
C42_3 C 0.5150(5) 0.5316(3) 0.8711(3)
C43_3 C 0.8122(4) 0.5407(3) 0.6680(3)
C44_3 C 0.8319(5) 0.5964(3) 0.6923(3)
H24_3 H 0.8928 0.6068 0.7076
C45_3 C 0.7600(5) 0.6356(3) 0.6932(3)
H25_3 H 0.7723 0.6733 0.7090
C46_3 C 0.6694(4) 0.6204(3) 0.6712(3)
C47_3 C 0.6513(5) 0.5640(3) 0.6475(3)
H26_3 H 0.5904 0.5530 0.6329
C48_3 C 0.7234(5) 0.5244(3) 0.6455(4)
H27_3 H 0.7118 0.4869 0.6291
C49_3 C 0.9775(4) 0.5300(3) 0.6220(3)
C50_3 C 0.9506(5) 0.5363(3) 0.5631(3)
H28_3 H 0.8967 0.5180 0.5447
O7_2 O 0.5124(3) 0.6485(2) 0.6456(3)
O9_2 O 0.6086(3) 0.7116(2) 0.6965(2)
O10_2 O 0.6073(3) 0.7363(2) 0.81936(19)
O13_3 O 0.8719(4) 0.3452(2) 0.7844(2)
O14_3 O 0.7743(4) 0.3498(2) 0.7014(2)
O15_3 O 0.8663(3) 0.44040(19) 0.6292(2)
O16 O 0.6333(3) 0.7371(2) 0.9143(2)
O21_3 O 0.9555(3) 0.4803(2) 0.7202(2)
O22_2 O 0.4856(5) 0.4372(2) 0.9313(3)
O24_2 O 0.3957(4) 0.4473(3) 0.8333(3)
S3_3 S 0.90535(11) 0.49053(7) 0.66371(7)
S4_2 S 0.48118(15) 0.45509(8) 0.87239(10)
Ca2_2 Ca 0.98571(8) 0.27810(5) 0.76255(5)
O32_2 O 0.9876(3) 0.1485(2) 0.8544(3)
O34_2 O 0.8914(3) 0.2116(2) 0.8035(2)
O35_2 O 0.8927(3) 0.2363(2) 0.68064(19)
O39_2 O 0.8667(3) 0.2371(2) 0.5857(2)
O42_2 O 0.7015(3) 0.3261(2) 0.56842(19)
C57_3 C 0.5401(6) 0.7141(4) 0.0672(4)
H33_3 H 0.5588 0.6963 0.1030
C58_2 C 0.3921(10) 0.7365(7) 0.1026(7)
H34_2 H 0.3770 0.7772 0.1103
H35_2 H 0.3357 0.7152 0.0886
H36_2 H 0.4221 0.7182 0.1375
C59_2 C 0.4230(8) 0.7642(6) 0.0024(6)
H39_2 H 0.4002 0.8035 0.0090
N1_2 N 0.4555(5) 0.7351(3) 0.0586(3)
O25_3 O 0.5966(3) 0.7148(2) 0.0344(2)
C10_3 C 0.8689(4) 0.8368(3) 0.9699(3)
C12_3 C 0.9411(4) 0.8821(3) 0.9582(3)
C13_3 C 0.9405(5) 0.9071(3) 0.9037(3)
H7_3 H 0.8935 0.8970 0.8738
O18_2 O 0.7985(3) 0.8261(2) 0.93158(19)
H37_2 H 0.4741 0.7671 0.9804
H38_2 H 0.3736 0.7410 0.9813
C60_3 C 0.8226(7) 0.6313(4) 0.9374(4)
H40_3 H 0.8187 0.5953 0.9566
C61_3 C 0.8440(8) 0.6811(6) 0.8498(5)
H41_3 H 0.8513 0.7154 0.8746
H42_3 H 0.8981 0.6769 0.8305
H43_3 H 0.7893 0.6859 0.8215
C62_3 C 0.8347(9) 0.5723(5) 0.8527(5)
H44_3 H 0.7810 0.5704 0.8233
H45_3 H 0.8907 0.5699 0.8350
H46_3 H 0.8329 0.5396 0.8791
N2_3 N 0.8337(5) 0.6283(4) 0.8840(3)
O26_3 O 0.8166(4) 0.6765(3) 0.9657(2)
H8_4 H 0.5106 0.0750 0.0073
C8_4 C 0.2966(5) 0.0974(3) 0.6155(3)
C9_4 C 0.3304(6) 0.0868(4) 0.6725(3)
H5_4 H 0.3825 0.0625 0.6823
C14_4 C 0.3569(4) 0.1378(3) 0.9721(3)
C15_4 C 0.4141(4) 0.0982(3) 0.9397(3)
C16_4 C 0.4941(5) 0.0705(3) 0.9676(3)
C23_4 C 0.1628(5) 0.1765(3) 0.7489(3)
C24_4 C 0.2100(5) 0.1488(3) 0.7011(3)
C25_4 C 0.1776(5) 0.1589(3) 0.6442(3)
H13_4 H 0.1262 0.1838 0.6345
C26_4 C 0.2200(5) 0.1328(3) 0.6003(3)
H14_4 H 0.1966 0.1392 0.5616
C27_4 C 0.2866(6) 0.1123(4) 0.7152(3)
H15_4 H 0.3090 0.1048 0.7539
C28_4 C 0.9091(5) 0.1639(3) 0.8288(3)
C29_4 C 0.8930(4) 0.2108(3) 0.6329(3)
C30_4 C 0.9253(4) 0.1466(3) 0.6318(3)
C31_4 C 0.9471(5) 0.1155(3) 0.6829(3)
H16_4 H 0.9411 0.1336 0.7179
C32_4 C 0.9324(5) 0.1197(3) 0.5791(3)
H17_4 H 0.9174 0.1413 0.5451
C33_4 C 0.9617(5) 0.0612(3) 0.5767(3)
H18_4 H 0.9656 0.0425 0.5416
C34_4 C 0.9776(5) 0.0577(3) 0.6817(3)
H19_4 H 0.9931 0.0363 0.7159
C42_4 C 0.9850(5) 0.0316(3) 0.6289(3)
C43_4 C 0.6878(4) 0.0407(3) 0.8320(3)
C44_4 C 0.6681(5) 0.0964(3) 0.8077(3)
H24_4 H 0.6072 0.1068 0.7924
C45_4 C 0.7400(5) 0.1356(3) 0.8068(3)
H25_4 H 0.7277 0.1733 0.7910
C46_4 C 0.8306(4) 0.1204(3) 0.8288(3)
C47_4 C 0.8487(5) 0.0640(3) 0.8525(3)
H26_4 H 0.9096 0.0530 0.8671
C48_4 C 0.7766(5) 0.0244(3) 0.8545(4)
C49_4 C 0.5225(4) 0.0300(3) 0.8780(3)
C50_4 C 0.5494(5) 0.0363(3) 0.9369(3)
H28_4 H 0.6033 0.0180 0.9553
C51_4 C 0.4431(4) 0.0567(3) 0.8493(3)
H29_4 H 0.4261 0.0514 0.8097
C52_4 C 0.3896(4) 0.0916(3) 0.8809(3)
H30_4 H 0.3365 0.1107 0.8622
O19_4 O 0.2972(4) 0.0736(2) 0.5061(2)
O20_4 O 0.4492(4) 0.0860(2) 0.5688(3)
S1_4 S 0.35476(14) 0.06497(7) 0.56085(8)
C1_4 C 0.3627(4) 0.8023(3) 0.6157(3)
C2_4 C 0.3604(4) 0.8685(3) 0.6044(3)
C3_4 C 0.2775(5) 0.8965(3) 0.5837(3)
H1_4 H 0.2223 0.8745 0.5787
C4_4 C 0.2743(5) 0.9564(3) 0.5703(3)
H2_4 H 0.2181 0.9749 0.5561
C5_4 C 0.4425(5) 0.9013(3) 0.6144(3)
H3_4 H 0.4982 0.8831 0.6303
C6_4 C 0.4410(5) 0.9611(3) 0.6007(3)
H4_4 H 0.4960 0.9833 0.6064
C7_4 C 0.3572(5) 0.9879(3) 0.5784(3)
C10_4 C 0.6311(4) 0.3368(3) 0.5301(3)
C11_2 C 0.4886(4) 0.3974(3) 0.4977(3)
H6_2 H 0.4874 0.3805 0.4613
C12_4 C 0.5589(4) 0.3821(3) 0.5418(3)
C13_4 C 0.5595(5) 0.4071(3) 0.5963(3)
H7_4 H 0.6065 0.3970 0.6262
C17_4 C 0.2582(4) 0.4664(3) 0.6123(3)
C18_4 C 0.2634(5) 0.4737(3) 0.6717(3)
H9_4 H 0.3041 0.5014 0.6914
C19_4 C 0.1979(5) 0.4273(3) 0.5818(3)
H10_4 H 0.1967 0.4228 0.5421
C20_4 C 0.4204(5) 0.4374(3) 0.5073(3)
H11_2 H 0.3734 0.4478 0.4775
C21_4 C 0.4222(5) 0.4616(3) 0.5606(3)
C22_4 C 0.4902(5) 0.4472(3) 0.6064(3)
H12_4 H 0.4896 0.4639 0.6429
C35_4 C 0.7063(5) 0.8549(3) 0.7454(4)
C36_4 C 0.7840(5) 0.8762(3) 0.7128(3)
C37_4 C 0.8762(5) 0.8750(3) 0.7406(3)
H20_4 H 0.8898 0.8592 0.7777
C38_4 C 0.7654(5) 0.8971(3) 0.6567(3)
H21_4 H 0.7047 0.8962 0.6370
C39_4 C 0.8380(5) 0.9195(3) 0.6299(3)
H22_4 H 0.8257 0.9347 0.5925
C40_4 C 0.9276(5) 0.9193(3) 0.6585(3)
C41_4 C 0.9469(5) 0.8970(3) 0.7133(3)
H27_4 H 0.7882 0.9869 0.8709
C53_4 C 0.0773(4) 0.3634(3) 0.7011(3)
C54_4 C 0.1423(4) 0.4006(3) 0.6698(3)
C55_4 C 0.1390(5) 0.3947(3) 0.6109(3)
H31_4 H 0.0965 0.3685 0.5907
C56_4 C 0.2062(4) 0.4385(3) 0.7006(3)
H32_4 H 0.2109 0.4403 0.7407
O3_4 O 0.3676(3) 0.56015(19) 0.6080(2)
O6_4 O 0.4322(3) 0.77796(19) 0.64361(19)
O13_4 O 0.6281(4) 0.8452(2) 0.7156(2)
O14_4 O 0.7257(4) 0.8498(2) 0.7986(2)
O15_4 O 0.6337(3) 0.94040(19) 0.8708(2)
O21_4 O 0.5445(3) 0.9803(2) 0.7798(2)
O23_4 O 0.2767(3) 0.5244(2) 0.5167(2)
S2_4 S 0.32883(11) 0.51109(7) 0.57221(7)
S3_4 S 0.59465(11) 0.99053(7) 0.83629(7)
C57_4 C 0.9599(6) 0.2141(4) 0.4328(4)
H33_4 H 0.9412 0.1963 0.3970
C60_4 C 0.6774(7) 0.1313(4) 0.5626(4)
H40_4 H 0.6813 0.0953 0.5434
C61_4 C 0.6560(8) 0.1811(6) 0.6502(5)
H41_4 H 0.6487 0.2154 0.6254
H42_4 H 0.6019 0.1769 0.6695
H43_4 H 0.7107 0.1859 0.6785
C62_4 C 0.6653(9) 0.0723(5) 0.6473(5)
H44_4 H 0.7190 0.0704 0.6767
H45_4 H 0.6093 0.0699 0.6650
H46_4 H 0.6671 0.0396 0.6209
N2_4 N 0.6663(5) 0.1283(4) 0.6160(3)
O25_4 O 0.9034(3) 0.2148(2) 0.4656(2)
O26_4 O 0.6834(4) 0.1765(3) 0.5343(2)
C11_3 C 0.9886(4) 0.1026(3) 0.9977(3)
H6_3 H 0.9874 0.1195 0.9613
H11_3 H 0.8734 0.0522 0.9775
H23_3 H 0.9918 0.1032 0.2679
O22_3 O 0.9856(5) 0.0628(2) 0.4313(3)
O24_3 O 0.8957(4) 0.0527(3) 0.3333(3)
S4_3 S 0.98118(15) 0.04491(8) 0.37239(10)
C58_3 C 0.8921(10) 0.7635(7) 0.6026(7)
H34_3 H 0.8770 0.7228 0.6103
H35_3 H 0.8357 0.7848 0.5886
H36_3 H 0.9221 0.7818 0.6375
C59_3 C 0.9230(8) 0.7358(6) 0.5024(6)
H37_3 H 0.9741 0.7329 0.4804
H38_3 H 0.8736 0.7590 0.4813
H39_3 H 0.9002 0.6965 0.5090
N1_3 N 0.9555(5) 0.7649(3) 0.5586(3)
C11_4 C 0.0114(4) 0.8974(3) 0.0023(3)
H6_4 H 0.0126 0.8805 0.0387
H11_4 H 0.1266 0.9478 0.0225
H23_4 H 0.0082 0.8968 0.7321
O22_4 O 0.0144(5) 0.9372(2) 0.5687(3)
O24_4 O 0.1043(4) 0.9473(3) 0.6667(3)
S4_4 S 0.01882(15) 0.95509(8) 0.62761(10)
C58_4 C 0.1079(10) 0.2365(7) 0.3974(7)
H34_4 H 0.1230 0.2772 0.3897
H35_4 H 0.1643 0.2152 0.4114
H36_4 H 0.0779 0.2182 0.3625
C59_4 C 0.0770(8) 0.2642(6) 0.4976(6)
H37_4 H 0.0259 0.2671 0.5196
H38_4 H 0.1264 0.2410 0.5187
H39_4 H 0.0998 0.3035 0.4910
N1_4 N 0.0445(5) 0.2351(3) 0.4414(3)
loop_
_geom_bond_atom_site_label_1
_geom_bond_atom_site_label_2
_geom_bond_site_symmetry_1
_geom_bond_site_symmetry_2
C10 C12 1_555 1_555
C13 C12 1_555 1_555
H7 C13 1_555 1_555
O18 C10 1_555 1_555
C60 H40 1_555 1_555
C61 H41 1_555 1_555
H42 C61 1_555 1_555
H43 C61 1_555 1_555
C62 H44 1_555 1_555
H45 C62 1_555 1_555
H46 C62 1_555 1_555
N2 C60 1_555 1_555
O26 C60 1_555 1_555
O38 Ca4 1_555 1_555
O41 Ca4 1_555 1_555
Ca13 O18 1_555 1_555
O18 Ca4 1_555 1_555
C61 N2 1_555 1_555
C62 N2 1_555 1_555
O26 Ca4 1_555 1_555
O38 Ca13 1_555 1_555
O41 Ca13 1_555 1_555
C57 H33 1_555 1_555
C58 H34 1_555 1_555
H35 C58 1_555 1_555
H36 C58 1_555 1_555
H39 C59 1_555 1_555
N1 C57 1_555 1_555
O25 C57 1_555 1_555
Ca7 O1 1_555 1_555
C58 N1 1_555 1_555
C59 N1 1_555 1_555
O29 Ca7 1_555 1_555
O31 Ca7 1_555 1_555
C28 C46 1_555 1_555
C29 C30 1_555 1_555
C30 C31 1_555 1_555
C31 H16 1_555 1_555
C32 C30 1_555 1_555
H17 C32 1_555 1_555
C33 C32 1_555 1_555
H18 C33 1_555 1_555
C34 C31 1_555 1_555
H19 C34 1_555 1_555
C35 C36 1_555 1_555
C36 C37 1_555 1_555
C37 H20 1_555 1_555
C38 C36 1_555 1_555
H21 C38 1_555 1_555
C39 C38 1_555 1_555
H22 C39 1_555 1_555
C40 C39 1_555 1_555
C41 C37 1_555 1_555
H23 C41 1_555 1_555
C42 C33 1_555 1_555
C43 C44 1_555 1_555
C44 H24 1_555 1_555
C45 C44 1_555 1_555
H25 C45 1_555 1_555
C46 C45 1_555 1_555
C47 C46 1_555 1_555
H26 C47 1_555 1_555
C48 C43 1_555 1_555
H27 C48 1_555 1_555
C49 C50 1_555 1_555
H28 C50 1_555 1_555
O7 C28 1_555 1_555
O9 C28 1_555 1_555
O10 C29 1_555 1_555
O13 C35 1_555 1_555
O14 C35 1_555 1_555
O15 S3 1_555 1_555
O38 C29 1_555 1_555
O21 S3 1_555 1_555
O22 S4 1_555 1_555
O24 S4 1_555 1_555
S3 C43 1_555 1_555
S4 C40 1_555 1_555
Ca3 O14 1_555 1_555
O34 Ca2 1_555 1_555
O35 Ca2 1_555 1_555
O39 Ca3 1_555 1_555
O40 Ca3 1_555 1_555
O42 Ca3 1_555 1_555
Ca6 O7 1_555 1_555
Ca10 O9 1_555 1_555
Ca13 O10 1_555 1_555
C34 C42 1_555 1_555
C40 C41 1_555 1_555
C42 S4 1_555 1_555
C47 C48 1_555 1_555
C49 S3 1_555 1_555
O10 Ca10 1_555 1_555
O13 Ca2 1_555 1_555
O15 Ca3 1_555 1_555
Ca3 O35 1_555 1_555
C17 C18 1_555 1_555
C19 C17 1_555 1_555
H10 C19 1_555 1_555
C21 C20 1_555 1_555
H12 C22 1_555 1_555
C53 C54 1_555 1_555
C54 C55 1_555 1_555
C55 C19 1_555 1_555
H31 C55 1_555 1_555
C56 C18 1_555 1_555
H32 C56 1_555 1_555
O11 C53 1_555 1_555
O12 C53 1_555 1_555
Ca10 O11 1_555 1_555
Ca13 O12 1_555 1_555
C21 C22 1_555 1_555
C54 C56 1_555 1_555
O12 Ca10 1_555 1_555
C1 C2 1_555 1_555
C2 C3 1_555 1_555
C3 H1 1_555 1_555
C4 C3 1_555 1_555
H2 C4 1_555 1_555
C5 C2 1_555 1_555
H3 C5 1_555 1_555
C6 C5 1_555 1_555
H4 C6 1_555 1_555
C7 C4 1_555 1_555
C8 C9 1_555 1_555
C9 H5 1_555 1_555
C14 C15 1_555 1_555
C15 C16 1_555 1_555
C23 C24 1_555 1_555
C24 C25 1_555 1_555
C25 H13 1_555 1_555
C26 C8 1_555 1_555
H14 C26 1_555 1_555
C27 C9 1_555 1_555
H15 C27 1_555 1_555
H29 C51 1_555 1_555
C52 C15 1_555 1_555
H30 C52 1_555 1_555
O2 C14 1_555 1_555
O3 S2 1_555 1_555
O4 C23 1_555 1_555
O5 C1 1_555 1_555
O6 C1 1_555 1_555
O8 C23 1_555 1_555
O17 C14 1_555 1_555
O19 S1 1_555 1_555
O20 S1 1_555 1_555
O23 S2 1_555 1_555
S1 C7 1_555 1_555
Ca1 O3 1_555 1_555
O27 Ca1 1_555 1_555
O28 Ca1 1_555 1_555
O30 Ca1 1_555 1_555
Ca6 O2 1_555 1_555
Ca10 O8 1_555 1_555
Ca14 O17 1_555 1_555
Ca17 O2 1_555 1_555
C6 C7 1_555 1_555
C8 S1 1_555 1_555
C24 C27 1_555 1_555
C25 C26 1_555 1_555
C51 C52 1_555 1_555
O4 Ca6 1_555 1_555
O5 Ca1 1_555 1_555
O6 Ca1 1_555 1_555
O17 Ca17 1_555 1_555
C1_2 C2_2 1_555 1_555
C2_2 C3_2 1_555 1_555
C3_2 H1_2 1_555 1_555
C4_2 C3_2 1_555 1_555
H2_2 C4_2 1_555 1_555
C5_2 C2_2 1_555 1_555
H3_2 C5_2 1_555 1_555
C6_2 C5_2 1_555 1_555
H4_2 C6_2 1_555 1_555
C7_2 C4_2 1_555 1_555
C10_2 C12_2 1_555 1_555
C11 H6 1_555 1_555
C12_2 C11 1_555 1_555
C13_2 C12_2 1_555 1_555
H7_2 C13_2 1_555 1_555
C17_2 C18_2 1_555 1_555
C18_2 H9_2 1_555 1_555
C19_2 C17_2 1_555 1_555
H10_2 C19_2 1_555 1_555
C20_2 C11 1_555 1_555
H11 C20_2 1_555 1_555
C21_2 C20_2 1_555 1_555
C22_2 C13_2 1_555 1_555
H12_2 C22_2 1_555 1_555
C35_2 C36_2 1_555 1_555
C36_2 C37_2 1_555 1_555
C37_2 H20_2 1_555 1_555
C38_2 C36_2 1_555 1_555
H21_2 C38_2 1_555 1_555
C39_2 C38_2 1_555 1_555
H22_2 C39_2 1_555 1_555
C40_2 C39_2 1_555 1_555
C41_2 C37_2 1_555 1_555
C53_2 C54_2 1_555 1_555
C54_2 C55_2 1_555 1_555
C55_2 C19_2 1_555 1_555
H31_2 C55_2 1_555 1_555
C56_2 C18_2 1_555 1_555
H32_2 C56_2 1_555 1_555
O1_2 C10_2 1_555 1_555
O3_2 S2_2 1_555 1_555
O5_2 C1_2 1_555 1_555
O6_2 C1_2 1_555 1_555
O36 C53_2 1_555 1_555
O37 C53_2 1_555 1_555
O13_2 C35_2 1_555 1_555
O14_2 C35_2 1_555 1_555
O15_2 S3_2 1_555 1_555
O42 C10_2 1_555 1_555
O21_2 S3_2 1_555 1_555
O23_2 S2_2 1_555 1_555
S2_2 C17_2 1_555 1_555
Ca6 O3_2 1_555 1_555
Ca10 O6_2 1_555 1_555
Ca13 O14_2 1_555 1_555
C57_2 H33_2 1_555 1_555
C60_2 H40_2 1_555 1_555
C61_2 H41_2 1_555 1_555
H42_2 C61_2 1_555 1_555
H43_2 C61_2 1_555 1_555
C62_2 H44_2 1_555 1_555
H45_2 C62_2 1_555 1_555
H46_2 C62_2 1_555 1_555
N2_2 C60_2 1_555 1_555
O25_2 C57_2 1_555 1_555
O26_2 C60_2 1_555 1_555
Ca4_2 O1_2 1_555 1_555
O27_2 Ca6 1_555 1_555
O29_2 Ca4_2 1_555 1_555
O31_2 Ca4_2 1_555 1_555
O39 Ca4_2 1_555 1_555
O40 Ca4_2 1_555 1_555
Ca7_2 O1_2 1_555 1_555
Ca17 O5_2 1_555 1_555
C6_2 C7_2 1_555 1_555
C21_2 C22_2 1_555 1_555
C21_2 S2_2 1_555 1_555
C40_2 C41_2 1_555 1_555
C54_2 C56_2 1_555 1_555
O5_2 Ca6 1_555 1_555
O6_2 Ca6 1_555 1_555
O13_2 Ca10 1_555 1_555
O15_2 Ca13 1_555 1_555
O42 Ca4_2 1_555 1_555
C61_2 N2_2 1_555 1_555
C62_2 N2_2 1_555 1_555
O25_2 Ca4_2 1_555 1_555
O26_2 Ca4_2 1_555 1_555
O27_2 Ca17 1_555 1_555
O29_2 Ca7_2 1_555 1_555
O31_2 Ca7_2 1_555 1_555
C8_2 C9_2 1_555 1_555
C9_2 H5_2 1_555 1_555
C14_2 C15_2 1_555 1_555
C15_2 C16_2 1_555 1_555
C23_2 C24_2 1_555 1_555
C24_2 C25_2 1_555 1_555
C25_2 H13_2 1_555 1_555
C26_2 C8_2 1_555 1_555
H14_2 C26_2 1_555 1_555
C27_2 C9_2 1_555 1_555
H15_2 C27_2 1_555 1_555
C28_2 C46_2 1_555 1_555
C29_2 C30_2 1_555 1_555
C30_2 C31_2 1_555 1_555
C31_2 H16_2 1_555 1_555
C32_2 C30_2 1_555 1_555
H17_2 C32_2 1_555 1_555
C33_2 C32_2 1_555 1_555
H18_2 C33_2 1_555 1_555
C34_2 C31_2 1_555 1_555
H19_2 C34_2 1_555 1_555
C42_2 C33_2 1_555 1_555
C43_2 C44_2 1_555 1_555
C44_2 H24_2 1_555 1_555
C45_2 C44_2 1_555 1_555
H25_2 C45_2 1_555 1_555
C46_2 C45_2 1_555 1_555
C47_2 C46_2 1_555 1_555
H26_2 C47_2 1_555 1_555
C48_2 C43_2 1_555 1_555
C49_2 C50_2 1_555 1_555
C50_2 C16_2 1_555 1_555
H28_2 C50_2 1_555 1_555
C51_2 C49_2 1_555 1_555
H29_2 C51_2 1_555 1_555
C52_2 C15_2 1_555 1_555
H30_2 C52_2 1_555 1_555
O28 C14_2 1_555 1_555
O30 C23_2 1_555 1_555
O32 C28_2 1_555 1_555
O33 C23_2 1_555 1_555
O34 C28_2 1_555 1_555
O35 C29_2 1_555 1_555
O39 C29_2 1_555 1_555
O19_2 S1_2 1_555 1_555
O20_2 S1_2 1_555 1_555
C8_2 S1_2 1_555 1_555
C24_2 C27_2 1_555 1_555
C25_2 C26_2 1_555 1_555
C34_2 C42_2 1_555 1_555
C47_2 C48_2 1_555 1_555
C51_2 C52_2 1_555 1_555
Ca14_2 O17_2 1_555 1_555
O17_2 Ca16 1_555 1_555
C1_3 C2_3 1_555 1_555
C2_3 C3_3 1_555 1_555
C3_3 H1_3 1_555 1_555
C4_3 C3_3 1_555 1_555
H2_3 C4_3 1_555 1_555
C5_3 C2_3 1_555 1_555
H3_3 C5_3 1_555 1_555
C6_3 C5_3 1_555 1_555
H4_3 C6_3 1_555 1_555
C7_3 C4_3 1_555 1_555
C8_3 C9_3 1_555 1_555
C9_3 H5_3 1_555 1_555
C14_3 C15_3 1_555 1_555
C15_3 C16_3 1_555 1_555
C23_3 C24_3 1_555 1_555
C24_3 C25_3 1_555 1_555
C25_3 H13_3 1_555 1_555
C26_3 C8_3 1_555 1_555
H14_3 C26_3 1_555 1_555
C27_3 C9_3 1_555 1_555
H15_3 C27_3 1_555 1_555
H29_3 C51_3 1_555 1_555
C52_3 C15_3 1_555 1_555
H30_3 C52_3 1_555 1_555
O29_2 C14_3 1_555 1_555
O3_3 S2_3 1_555 1_555
O4_2 C23_3 1_555 1_555
O31 C1_3 1_555 1_555
O6_3 C1_3 1_555 1_555
O8_2 C23_3 1_555 1_555
O40 C14_3 1_555 1_555
O19_3 S1_3 1_555 1_555
O20_3 S1_3 1_555 1_555
O23_3 S2_3 1_555 1_555
S1_3 C7_3 1_555 1_555
Ca7 O3_3 1_555 1_555
O30_2 Ca7 1_555 1_555
Ca8 O8_2 1_555 1_555
C6_3 C7_3 1_555 1_555
C8_3 S1_3 1_555 1_555
C24_3 C27_3 1_555 1_555
C25_3 C26_3 1_555 1_555
C51_3 C52_3 1_555 1_555
O4_2 Ca7_2 1_555 1_555
O6_3 Ca7 1_555 1_555
C17_3 C18_3 1_555 1_555
C19_3 C17_3 1_555 1_555
H10_3 C19_3 1_555 1_555
C21_3 C20_3 1_555 1_555
H12_3 C22_3 1_555 1_555
C53_3 C54_3 1_555 1_555
C54_3 C55_3 1_555 1_555
C55_3 C19_3 1_555 1_555
H31_3 C55_3 1_555 1_555
C56_3 C18_3 1_555 1_555
H32_3 C56_3 1_555 1_555
O11_2 C53_3 1_555 1_555
O12_2 C53_3 1_555 1_555
Ca8 O11_2 1_555 1_555
Ca14_2 O12_2 1_555 1_555
C21_3 C22_3 1_555 1_555
C54_3 C56_3 1_555 1_555
O12_2 Ca8 1_555 1_555
C28_3 C46_3 1_555 1_555
C29_3 C30_3 1_555 1_555
C30_3 C31_3 1_555 1_555
C31_3 H16_3 1_555 1_555
C32_3 C30_3 1_555 1_555
H17_3 C32_3 1_555 1_555
C33_3 C32_3 1_555 1_555
H18_3 C33_3 1_555 1_555
C34_3 C31_3 1_555 1_555
H19_3 C34_3 1_555 1_555
C35_3 C36_3 1_555 1_555
C36_3 C37_3 1_555 1_555
C37_3 H20_3 1_555 1_555
C38_3 C36_3 1_555 1_555
H21_3 C38_3 1_555 1_555
C39_3 C38_3 1_555 1_555
H22_3 C39_3 1_555 1_555
C40_3 C39_3 1_555 1_555
C41_3 C37_3 1_555 1_555
H23_2 C41_3 1_555 1_555
C42_3 C33_3 1_555 1_555
C43_3 C44_3 1_555 1_555
C44_3 H24_3 1_555 1_555
C45_3 C44_3 1_555 1_555
H25_3 C45_3 1_555 1_555
C46_3 C45_3 1_555 1_555
C47_3 C46_3 1_555 1_555
H26_3 C47_3 1_555 1_555
C48_3 C43_3 1_555 1_555
H27_3 C48_3 1_555 1_555
C49_3 C50_3 1_555 1_555
H28_3 C50_3 1_555 1_555
O7_2 C28_3 1_555 1_555
O9_2 C28_3 1_555 1_555
O10_2 C29_3 1_555 1_555
O13_3 C35_3 1_555 1_555
O14_3 C35_3 1_555 1_555
O15_3 S3_3 1_555 1_555
O16 C29_3 1_555 1_555
O21_3 S3_3 1_555 1_555
O22_2 S4_2 1_555 1_555
O24_2 S4_2 1_555 1_555
S3_3 C43_3 1_555 1_555
S4_2 C40_3 1_555 1_555
Ca14 O14_3 1_555 1_555
O34_2 Ca2_2 1_555 1_555
O35_2 Ca2_2 1_555 1_555
O39_2 Ca14 1_555 1_555
O42_2 Ca14 1_555 1_555
Ca7_2 O7_2 1_555 1_555
Ca8 O9_2 1_555 1_555
Ca14_2 O10_2 1_555 1_555
Ca16 O16 1_555 1_555
C34_3 C42_3 1_555 1_555
C40_3 C41_3 1_555 1_555
C42_3 S4_2 1_555 1_555
C47_3 C48_3 1_555 1_555
C49_3 S3_3 1_555 1_555
O10_2 Ca8 1_555 1_555
O13_3 Ca2_2 1_555 1_555
O15_3 Ca14 1_555 1_555
O16 Ca14_2 1_555 1_555
Ca14 O35_2 1_555 1_555
C57_3 H33_3 1_555 1_555
C58_2 H34_2 1_555 1_555
H35_2 C58_2 1_555 1_555
H36_2 C58_2 1_555 1_555
H39_2 C59_2 1_555 1_555
N1_2 C57_3 1_555 1_555
O25_3 C57_3 1_555 1_555
C58_2 N1_2 1_555 1_555
C59_2 N1_2 1_555 1_555
C10_3 C12_3 1_555 1_555
C13_3 C12_3 1_555 1_555
H7_3 C13_3 1_555 1_555
O18_2 C10_3 1_555 1_555
C60_3 H40_3 1_555 1_555
C61_3 H41_3 1_555 1_555
H42_3 C61_3 1_555 1_555
H43_3 C61_3 1_555 1_555
C62_3 H44_3 1_555 1_555
H45_3 C62_3 1_555 1_555
H46_3 C62_3 1_555 1_555
N2_3 C60_3 1_555 1_555
O26_3 C60_3 1_555 1_555
Ca14_2 O18_2 1_555 1_555
O18_2 Ca16 1_555 1_555
C61_3 N2_3 1_555 1_555
C62_3 N2_3 1_555 1_555
O26_3 Ca16 1_555 1_555
C8_4 C9_4 1_555 1_555
C9_4 H5_4 1_555 1_555
C14_4 C15_4 1_555 1_555
C15_4 C16_4 1_555 1_555
C23_4 C24_4 1_555 1_555
C24_4 C25_4 1_555 1_555
C25_4 H13_4 1_555 1_555
C26_4 C8_4 1_555 1_555
H14_4 C26_4 1_555 1_555
C27_4 C9_4 1_555 1_555
H15_4 C27_4 1_555 1_555
C28_4 C46_4 1_555 1_555
C29_4 C30_4 1_555 1_555
C30_4 C31_4 1_555 1_555
C31_4 H16_4 1_555 1_555
C32_4 C30_4 1_555 1_555
H17_4 C32_4 1_555 1_555
C33_4 C32_4 1_555 1_555
H18_4 C33_4 1_555 1_555
C34_4 C31_4 1_555 1_555
H19_4 C34_4 1_555 1_555
C42_4 C33_4 1_555 1_555
C43_4 C44_4 1_555 1_555
C44_4 H24_4 1_555 1_555
C45_4 C44_4 1_555 1_555
H25_4 C45_4 1_555 1_555
C46_4 C45_4 1_555 1_555
C47_4 C46_4 1_555 1_555
H26_4 C47_4 1_555 1_555
C48_4 C43_4 1_555 1_555
C49_4 C50_4 1_555 1_555
C50_4 C16_4 1_555 1_555
H28_4 C50_4 1_555 1_555
C51_4 C49_4 1_555 1_555
H29_4 C51_4 1_555 1_555
C52_4 C15_4 1_555 1_555
H30_4 C52_4 1_555 1_555
O29 C14_4 1_555 1_555
O30_2 C23_4 1_555 1_555
O32_2 C28_4 1_555 1_555
O33_2 C23_4 1_555 1_555
O34_2 C28_4 1_555 1_555
O35_2 C29_4 1_555 1_555
O39_2 C29_4 1_555 1_555
O19_4 S1_4 1_555 1_555
O20_4 S1_4 1_555 1_555
Ca17 O39_2 1_555 1_555
C8_4 S1_4 1_555 1_555
C24_4 C27_4 1_555 1_555
C25_4 C26_4 1_555 1_555
C34_4 C42_4 1_555 1_555
C47_4 C48_4 1_555 1_555
C51_4 C52_4 1_555 1_555
C1_4 C2_4 1_555 1_555
C2_4 C3_4 1_555 1_555
C3_4 H1_4 1_555 1_555
C4_4 C3_4 1_555 1_555
H2_4 C4_4 1_555 1_555
C5_4 C2_4 1_555 1_555
H3_4 C5_4 1_555 1_555
C6_4 C5_4 1_555 1_555
H4_4 C6_4 1_555 1_555
C7_4 C4_4 1_555 1_555
C10_4 C12_4 1_555 1_555
C11_2 H6_2 1_555 1_555
C12_4 C11_2 1_555 1_555
C13_4 C12_4 1_555 1_555
H7_4 C13_4 1_555 1_555
C17_4 C18_4 1_555 1_555
C18_4 H9_4 1_555 1_555
C19_4 C17_4 1_555 1_555
H10_4 C19_4 1_555 1_555
C20_4 C11_2 1_555 1_555
H11_2 C20_4 1_555 1_555
C21_4 C20_4 1_555 1_555
C22_4 C13_4 1_555 1_555
H12_4 C22_4 1_555 1_555
C35_4 C36_4 1_555 1_555
C36_4 C37_4 1_555 1_555
C37_4 H20_4 1_555 1_555
C38_4 C36_4 1_555 1_555
H21_4 C38_4 1_555 1_555
C39_4 C38_4 1_555 1_555
H22_4 C39_4 1_555 1_555
C40_4 C39_4 1_555 1_555
C41_4 C37_4 1_555 1_555
C53_4 C54_4 1_555 1_555
C54_4 C55_4 1_555 1_555
C55_4 C19_4 1_555 1_555
H31_4 C55_4 1_555 1_555
C56_4 C18_4 1_555 1_555
H32_4 C56_4 1_555 1_555
O27_2 C10_4 1_555 1_555
O3_4 S2_4 1_555 1_555
O31_2 C1_4 1_555 1_555
O6_4 C1_4 1_555 1_555
O36_2 C53_4 1_555 1_555
O37_2 C53_4 1_555 1_555
O13_4 C35_4 1_555 1_555
O14_4 C35_4 1_555 1_555
O15_4 S3_4 1_555 1_555
O42_2 C10_4 1_555 1_555
O21_4 S3_4 1_555 1_555
O23_4 S2_4 1_555 1_555
S2_4 C17_4 1_555 1_555
Ca7_2 O3_4 1_555 1_555
Ca8 O6_4 1_555 1_555
Ca14_2 O14_4 1_555 1_555
C57_4 H33_4 1_555 1_555
C60_4 H40_4 1_555 1_555
C61_4 H41_4 1_555 1_555
H42_4 C61_4 1_555 1_555
H43_4 C61_4 1_555 1_555
C62_4 H44_4 1_555 1_555
H45_4 C62_4 1_555 1_555
H46_4 C62_4 1_555 1_555
N2_4 C60_4 1_555 1_555
O25_4 C57_4 1_555 1_555
O26_4 C60_4 1_555 1_555
C6_4 C7_4 1_555 1_555
C21_4 C22_4 1_555 1_555
C21_4 S2_4 1_555 1_555
C40_4 C41_4 1_555 1_555
C54_4 C56_4 1_555 1_555
O6_4 Ca7_2 1_555 1_555
O13_4 Ca8 1_555 1_555
O15_4 Ca14_2 1_555 1_555
O42_2 Ca17 1_555 1_555
C61_4 N2_4 1_555 1_555
C62_4 N2_4 1_555 1_555
O25_4 Ca17 1_555 1_555
O26_4 Ca17 1_555 1_555
C11_3 H6_3 1_555 1_555
O22_3 S4_3 1_555 1_555
O24_3 S4_3 1_555 1_555
C58_3 H34_3 1_555 1_555
H35_3 C58_3 1_555 1_555
H36_3 C58_3 1_555 1_555
C59_3 H37_3 1_555 1_555
H38_3 C59_3 1_555 1_555
H39_3 C59_3 1_555 1_555
C58_3 N1_3 1_555 1_555
C59_3 N1_3 1_555 1_555
C11_4 H6_4 1_555 1_555
O22_4 S4_4 1_555 1_555
O24_4 S4_4 1_555 1_555
C58_4 H34_4 1_555 1_555
H35_4 C58_4 1_555 1_555
H36_4 C58_4 1_555 1_555
C59_4 H37_4 1_555 1_555
H38_4 C59_4 1_555 1_555
H39_4 C59_4 1_555 1_555
C58_4 N1_4 1_555 1_555
C59_4 N1_4 1_555 1_555

#END
