
###############################################################################
#
# This file contains modified crystal structure data generated from the
# MOF subset of the Cambridge Structural Database (CSD) v543 
# hosted by the Cambridge Crystallographic Data Centre (CCDC).
#
# This work is licensed under the Creative Commons
# Attribution-NonCommercial-ShareAlike 4.0 International License.
# To view a copy of this license, visit
# http://creativecommons.org/licenses/by-nc-sa/4.0/
# or send a letter to
# Creative Commons, PO Box 1866, Mountain View, CA 94042, USA.
#
# CIF created using the CSD Python API on 29 September 2022
# The structure has been converted into the P1 space group
# The structure has a 3D framework
# The original CSD entry DOVMUZ is in the orthorhombic crystal system
# The framework has been calculated to contain at least 10.0% void space
# The void calculation uses a probe of radius 1.32A, grid spacing 0.4
#
###############################################################################

data_DOVMUZ
_chemical_formula_moiety         '(C200 H184 N32 O40 Zn8)n'
_symmetry_cell_setting           triclinic
_symmetry_space_group_name_H-M   'P 1'
_symmetry_Int_Tables_number      1
_space_group_name_Hall           'P 1'
loop_
_symmetry_equiv_pos_site_id
_symmetry_equiv_pos_as_xyz
1 x,y,z
_cell_length_a                   32.984(6)
_cell_length_b                   11.556(2)
_cell_length_c                   15.213(3)
_cell_angle_alpha                90
_cell_angle_beta                 90
_cell_angle_gamma                90
_cell_volume                     5798.63
loop_
_atom_site_label
_atom_site_type_symbol
_atom_site_fract_x
_atom_site_fract_y
_atom_site_fract_z
Zn1 Zn 0.14196(2) 0.23747(5) 0.20452(4)
O1 O 0.14588(12) 0.2193(3) 0.0795(2)
O2 O 0.11857(14) 0.3877(3) 0.0416(2)
N1 N 0.21096(15) 0.2800(4) 0.3201(3)
H1 H 0.2077 0.2119 0.3420
N2 N 0.18679(15) 0.3262(4) 0.2587(3)
N3 N 0.08098(16) 0.3601(4) 0.3174(3)
H2 H 0.0995 0.3844 0.3526
N4 N 0.08822(14) 0.2933(4) 0.2456(3)
C1 C 0.12992(18) 0.2891(5) 0.0243(4)
C13 C 0.0254(2) 0.4524(6) 0.4033(5)
H10 H 0.0200 0.4014 0.4518
H11 H 0.0008 0.4906 0.3863
H12 H 0.0451 0.5092 0.4207
C14 C 0.0415(2) 0.3837(5) 0.3269(4)
C15 C 0.02180(17) 0.3313(5) 0.2594(4)
C16 C 0.05135(18) 0.2757(5) 0.2117(4)
C17 C 0.0462(2) 0.1994(7) 0.1318(5)
H13 H 0.0504 0.2445 0.0795
H14 H 0.0194 0.1675 0.1312
H15 H 0.0657 0.1377 0.1338
C18 C 0.1832(3) 0.5119(6) 0.1800(5)
H16 H 0.1814 0.4757 0.1233
H17 H 0.1992 0.5810 0.1755
H18 H 0.1565 0.5312 0.2003
C19 C 0.2027(2) 0.4306(5) 0.2435(4)
C20 C 0.23665(17) 0.4482(4) 0.2934(4)
C21 C 0.2407(2) 0.3521(6) 0.3433(5)
C22 C 0.2725(3) 0.3194(7) 0.4105(7)
H19 H 0.2595 0.2897 0.4623
H20 H 0.2882 0.3865 0.4256
H21 H 0.2901 0.2612 0.3863
N5 N 0.28904(15) 0.7200(4) 0.3201(3)
H33 H 0.2923 0.7881 0.3420
N6 N 0.31321(15) 0.6738(4) 0.2587(3)
C41 C 0.3168(3) 0.4881(6) 0.1800(5)
H34 H 0.3186 0.5243 0.1233
H35 H 0.3008 0.4190 0.1755
H36 H 0.3435 0.4688 0.2003
C42 C 0.2973(2) 0.5694(5) 0.2435(4)
C43 C 0.26335(17) 0.5518(4) 0.2934(4)
C44 C 0.2593(2) 0.6479(6) 0.3433(5)
C45 C 0.2275(3) 0.6806(7) 0.4105(7)
H37 H 0.2405 0.7103 0.4623
H38 H 0.2118 0.6135 0.4256
H39 H 0.2099 0.7388 0.3863
Zn2 Zn 0.35804(2) 0.76253(5) 0.20452(4)
O11 O 0.35412(12) 0.7807(3) 0.0795(2)
O12 O 0.35774(14) 0.9265(3) 0.2342(3)
O13 O 0.14226(14) 0.0735(3) 0.2342(3)
N9 N 0.41178(14) 0.7067(4) 0.2456(3)
N7 N 0.91902(16) 0.3601(4) 0.1826(3)
H40 H 0.9005 0.3844 0.1474
N8 N 0.91178(14) 0.2933(4) 0.2544(3)
C46 C 0.9746(2) 0.4524(6) 0.0967(5)
H41 H 0.9800 0.4014 0.0482
H42 H 0.9992 0.4906 0.1137
H43 H 0.9549 0.5092 0.0793
C47 C 0.9585(2) 0.3837(5) 0.1731(4)
C48 C 0.97820(17) 0.3313(5) 0.2406(4)
C49 C 0.94865(18) 0.2757(5) 0.2883(4)
C50 C 0.9538(2) 0.1994(7) 0.3682(5)
H44 H 0.9496 0.2445 0.4205
H45 H 0.9806 0.1675 0.3688
H46 H 0.9343 0.1377 0.3662
Zn4 Zn 0.85804(2) 0.23747(5) 0.29548(4)
C10 C 0.9990(2) 0.1141(7) 0.5878(5)
H8 H 0.9728 0.1026 0.6089
O8 O 0.8276(2) 0.0802(5) 0.1377(4)
O9 O 0.85774(14) 0.0735(3) 0.2658(3)
C33 C 0.8489(2) 0.0302(5) 0.1935(5)
O2_2 O 0.38143(14) 0.6123(3) 0.0416(2)
N3_2 N 0.41902(16) 0.6399(4) 0.3174(3)
H2_2 H 0.4005 0.6156 0.3526
C1_2 C 0.37008(18) 0.7109(5) 0.0243(4)
C13_2 C 0.4746(2) 0.5476(6) 0.4033(5)
H10_2 H 0.4800 0.5986 0.4518
H11_2 H 0.4992 0.5094 0.3863
H12_2 H 0.4549 0.4908 0.4207
C14_2 C 0.4585(2) 0.6163(5) 0.3269(4)
C15_2 C 0.47820(17) 0.6687(5) 0.2594(4)
C16_2 C 0.44865(18) 0.7243(5) 0.2117(4)
C17_2 C 0.4538(2) 0.8006(7) 0.1318(5)
H13_2 H 0.4496 0.7555 0.0795
H14_2 H 0.4806 0.8325 0.1312
H15_2 H 0.4343 0.8623 0.1338
N7_2 N 0.58098(16) 0.6399(4) 0.1826(3)
H40_2 H 0.5995 0.6156 0.1474
N8_2 N 0.58822(14) 0.7067(4) 0.2544(3)
C46_2 C 0.5254(2) 0.5476(6) 0.0967(5)
H41_2 H 0.5200 0.5986 0.0482
H42_2 H 0.5008 0.5094 0.1137
H43_2 H 0.5451 0.4908 0.0793
C47_2 C 0.5415(2) 0.6163(5) 0.1731(4)
C48_2 C 0.52180(17) 0.6687(5) 0.2406(4)
C49_2 C 0.55135(18) 0.7243(5) 0.2883(4)
C50_2 C 0.5462(2) 0.8006(7) 0.3682(5)
H44_2 H 0.5504 0.7555 0.4205
H45_2 H 0.5194 0.8325 0.3688
H46_2 H 0.5657 0.8623 0.3662
Zn4_2 Zn 0.64196(2) 0.76253(5) 0.29548(4)
O5 O 0.41905(15) 0.6667(3) 0.7271(3)
C2 C 0.37553(17) 0.7602(5) 0.9336(3)
C3 C 0.39538(18) 0.6958(5) 0.8693(4)
H3 H 0.4063 0.6240 0.8835
C4 C 0.39906(18) 0.7378(5) 0.7841(4)
C5 C 0.38451(19) 0.8464(5) 0.7635(4)
H4 H 0.3879 0.8761 0.7072
C6 C 0.3646(2) 0.9116(5) 0.8282(4)
C7 C 0.36057(19) 0.8691(5) 0.9126(4)
H5 H 0.3478 0.9135 0.9555
C9 C 0.4134(2) 0.6835(5) 0.6347(4)
H6 H 0.3853 0.7027 0.6239
H7 H 0.4191 0.6113 0.6046
C10_2 C 0.5010(2) 0.8859(7) 0.5878(5)
H8_2 H 0.5272 0.8974 0.6089
C11 C 0.4877(2) 0.9535(5) 0.5201(4)
C12 C 0.4497(2) 0.9265(6) 0.4903(5)
H9 H 0.4393 0.9675 0.4428
C23 C 0.4772(3) 0.8004(6) 0.6266(5)
H22 H 0.4874 0.7592 0.6743
C24 C 0.4394(2) 0.7758(6) 0.5963(4)
C25 C 0.4259(2) 0.8396(7) 0.5284(5)
H23 H 0.4000 0.8256 0.5062
O8_2 O 0.6724(2) 0.9198(5) 0.1377(4)
O9_2 O 0.64226(14) 0.9265(3) 0.2658(3)
C33_2 C 0.6511(2) 0.9698(5) 0.1935(5)
C12_2 C 0.5503(2) 0.9265(6) 0.0097(5)
H9_2 H 0.5607 0.9675 0.0572
O8_3 O 0.3276(2) 0.9198(5) 0.3623(4)
C33_3 C 0.3489(2) 0.9698(5) 0.3065(5)
O1_2 O 0.64588(12) 0.7807(3) 0.4205(2)
O2_3 O 0.61857(14) 0.6123(3) 0.4584(2)
O5_2 O 0.58095(15) 0.6667(3) 0.7729(3)
N1_2 N 0.71096(15) 0.7200(4) 0.1799(3)
H1_2 H 0.7077 0.7881 0.1580
N2_2 N 0.68679(15) 0.6738(4) 0.2413(3)
C1_3 C 0.62992(18) 0.7109(5) 0.4757(4)
C2_2 C 0.62447(17) 0.7602(5) 0.5664(3)
C3_2 C 0.60462(18) 0.6958(5) 0.6307(4)
H3_2 H 0.5937 0.6240 0.6165
C4_2 C 0.60094(18) 0.7378(5) 0.7159(4)
C5_2 C 0.61549(19) 0.8464(5) 0.7365(4)
H4_2 H 0.6121 0.8761 0.7928
C6_2 C 0.6354(2) 0.9116(5) 0.6718(4)
C7_2 C 0.63943(19) 0.8691(5) 0.5874(4)
H5_2 H 0.6522 0.9135 0.5445
C9_2 C 0.5866(2) 0.6835(5) 0.8653(4)
H6_2 H 0.6147 0.7027 0.8761
H7_2 H 0.5809 0.6113 0.8954
C10_3 C 0.4990(2) 0.8859(7) 0.9122(5)
H8_3 H 0.4728 0.8974 0.8911
C11_2 C 0.5123(2) 0.9535(5) 0.9799(4)
C18_2 C 0.6832(3) 0.4881(6) 0.3200(5)
H16_2 H 0.6814 0.5243 0.3767
H17_2 H 0.6992 0.4190 0.3245
H18_2 H 0.6565 0.4688 0.2997
C19_2 C 0.7027(2) 0.5694(5) 0.2565(4)
C20_2 C 0.73665(17) 0.5518(4) 0.2066(4)
C21_2 C 0.7407(2) 0.6479(6) 0.1567(5)
C22_2 C 0.7725(3) 0.6806(7) 0.0895(7)
H19_2 H 0.7595 0.7103 0.0377
H20_2 H 0.7882 0.6135 0.0744
H21_2 H 0.7901 0.7388 0.1137
C23_2 C 0.5228(3) 0.8004(6) 0.8734(5)
H22_2 H 0.5126 0.7592 0.8257
C24_2 C 0.5606(2) 0.7758(6) 0.9037(4)
C25_2 C 0.5741(2) 0.8396(7) 0.9716(5)
H23_2 H 0.6000 0.8256 0.9938
N5_2 N 0.78904(15) 0.2800(4) 0.1799(3)
H33_2 H 0.7923 0.2119 0.1580
N6_2 N 0.81321(15) 0.3262(4) 0.2413(3)
C41_2 C 0.8168(3) 0.5119(6) 0.3200(5)
H34_2 H 0.8186 0.4757 0.3767
H35_2 H 0.8008 0.5810 0.3245
H36_2 H 0.8435 0.5312 0.2997
C42_2 C 0.7973(2) 0.4306(5) 0.2565(4)
C43_2 C 0.76335(17) 0.4482(4) 0.2066(4)
C44_2 C 0.7593(2) 0.3521(6) 0.1567(5)
C45_2 C 0.7275(3) 0.3194(7) 0.0895(7)
H37_2 H 0.7405 0.2897 0.0377
H38_2 H 0.7118 0.3865 0.0744
H39_2 H 0.7099 0.2612 0.1137
O11_2 O 0.85412(12) 0.2193(3) 0.4205(2)
O8_4 O 0.1724(2) 0.0802(5) 0.3623(4)
C33_4 C 0.1511(2) 0.0302(5) 0.3065(5)
C10_4 C 0.0010(2) 0.1141(7) 0.9122(5)
H8_4 H 0.0272 0.1026 0.8911
O2_4 O 0.88143(14) 0.3877(3) 0.4584(2)
O5_3 O 0.91905(15) 0.3333(3) 0.7729(3)
C1_4 C 0.87008(18) 0.2891(5) 0.4757(4)
C2_3 C 0.87553(17) 0.2398(5) 0.5664(3)
C3_3 C 0.89538(18) 0.3042(5) 0.6307(4)
H3_3 H 0.9063 0.3760 0.6165
C4_3 C 0.89906(18) 0.2622(5) 0.7159(4)
C5_3 C 0.88451(19) 0.1536(5) 0.7365(4)
H4_3 H 0.8879 0.1239 0.7928
C6_3 C 0.8646(2) 0.0884(5) 0.6718(4)
C7_3 C 0.86057(19) 0.1309(5) 0.5874(4)
H5_3 H 0.8478 0.0865 0.5445
C9_3 C 0.9134(2) 0.3165(5) 0.8653(4)
H6_3 H 0.8853 0.2973 0.8761
H7_3 H 0.9191 0.3887 0.8954
C11_3 C 0.9877(2) 0.0465(5) 0.9799(4)
C23_3 C 0.9772(3) 0.1996(6) 0.8734(5)
H22_3 H 0.9874 0.2408 0.8257
C24_3 C 0.9394(2) 0.2242(6) 0.9037(4)
C25_3 C 0.9259(2) 0.1604(7) 0.9716(5)
H23_3 H 0.9000 0.1744 0.9938
O5_4 O 0.08095(15) 0.3333(3) 0.7271(3)
C2_4 C 0.12447(17) 0.2398(5) 0.9336(3)
C3_4 C 0.10462(18) 0.3042(5) 0.8693(4)
H3_4 H 0.0937 0.3760 0.8835
C4_4 C 0.10094(18) 0.2622(5) 0.7841(4)
C5_4 C 0.11549(19) 0.1536(5) 0.7635(4)
H4_4 H 0.1121 0.1239 0.7072
C6_4 C 0.1354(2) 0.0884(5) 0.8282(4)
C7_4 C 0.13943(19) 0.1309(5) 0.9126(4)
H5_4 H 0.1522 0.0865 0.9555
C9_4 C 0.0866(2) 0.3165(5) 0.6347(4)
H6_4 H 0.1147 0.2973 0.6239
H7_4 H 0.0809 0.3887 0.6046
C11_4 C 0.0123(2) 0.0465(5) 0.5201(4)
C12_3 C 0.0503(2) 0.0735(6) 0.4903(5)
H9_3 H 0.0607 0.0325 0.4428
C23_4 C 0.0228(3) 0.1996(6) 0.6266(5)
H22_4 H 0.0126 0.2408 0.6743
C24_4 C 0.0606(2) 0.2242(6) 0.5963(4)
C25_4 C 0.0741(2) 0.1604(7) 0.5284(5)
H23_4 H 0.1000 0.1744 0.5062
O3 O 0.1724(2) 0.9198(5) 0.8623(4)
O4 O 0.14226(14) 0.9265(3) 0.7342(3)
C8 C 0.1511(2) 0.9698(5) 0.8065(5)
C35 C 0.0010(2) 0.8859(7) 0.4122(5)
H29 H 0.0272 0.8974 0.3911
Zn6 Zn 0.14196(2) 0.76253(5) 0.70452(4)
O6 O 0.85412(12) 0.7807(3) 0.9205(2)
O7 O 0.88143(14) 0.6123(3) 0.9584(2)
C26 C 0.87008(18) 0.7109(5) 0.9757(4)
Zn5 Zn 0.85804(2) 0.76253(5) 0.79548(4)
O3_2 O 0.3276(2) 0.0802(5) 0.8623(4)
O4_2 O 0.35774(14) 0.0735(3) 0.7342(3)
C8_2 C 0.3489(2) 0.0302(5) 0.8065(5)
O10 O 0.58095(15) 0.3333(3) 0.2729(3)
C27 C 0.62447(17) 0.2398(5) 0.0664(3)
C28 C 0.60462(18) 0.3042(5) 0.1307(4)
H24 H 0.5937 0.3760 0.1165
C29 C 0.60094(18) 0.2622(5) 0.2159(4)
C30 C 0.61549(19) 0.1536(5) 0.2365(4)
H25 H 0.6121 0.1239 0.2928
C31 C 0.6354(2) 0.0884(5) 0.1718(4)
C32 C 0.63943(19) 0.1309(5) 0.0874(4)
H26 H 0.6522 0.0865 0.0445
C34 C 0.5866(2) 0.3165(5) 0.3653(4)
H27 H 0.6147 0.2973 0.3761
H28 H 0.5809 0.3887 0.3954
C35_2 C 0.4990(2) 0.1141(7) 0.4122(5)
H29_2 H 0.4728 0.1026 0.3911
C36 C 0.5123(2) 0.0465(5) 0.4799(4)
C37 C 0.5503(2) 0.0735(6) 0.5097(5)
H30 H 0.5607 0.0325 0.5572
C38 C 0.5228(3) 0.1996(6) 0.3734(5)
H31 H 0.5126 0.2408 0.3257
C39 C 0.5606(2) 0.2242(6) 0.4037(4)
C40 C 0.5741(2) 0.1604(7) 0.4716(5)
H32 H 0.6000 0.1744 0.4938
Zn6_2 Zn 0.35804(2) 0.23747(5) 0.70452(4)
O6_2 O 0.64588(12) 0.2193(3) 0.9205(2)
O7_2 O 0.61857(14) 0.3877(3) 0.9584(2)
C26_2 C 0.62992(18) 0.2891(5) 0.9757(4)
Zn5_2 Zn 0.64196(2) 0.23747(5) 0.79548(4)
O6_3 O 0.35412(12) 0.2193(3) 0.5795(2)
O7_3 O 0.38143(14) 0.3877(3) 0.5416(2)
O10_2 O 0.41905(15) 0.3333(3) 0.2271(3)
C26_3 C 0.37008(18) 0.2891(5) 0.5243(4)
C27_2 C 0.37553(17) 0.2398(5) 0.4336(3)
C28_2 C 0.39538(18) 0.3042(5) 0.3693(4)
H24_2 H 0.4063 0.3760 0.3835
C29_2 C 0.39906(18) 0.2622(5) 0.2841(4)
C30_2 C 0.38451(19) 0.1536(5) 0.2635(4)
H25_2 H 0.3879 0.1239 0.2072
C31_2 C 0.3646(2) 0.0884(5) 0.3282(4)
C32_2 C 0.36057(19) 0.1309(5) 0.4126(4)
H26_2 H 0.3478 0.0865 0.4555
C34_2 C 0.4134(2) 0.3165(5) 0.1347(4)
H27_2 H 0.3853 0.2973 0.1239
H28_2 H 0.4191 0.3887 0.1046
C35_3 C 0.5010(2) 0.1141(7) 0.0878(5)
H29_3 H 0.5272 0.1026 0.1089
C36_2 C 0.4877(2) 0.0465(5) 0.0201(4)
C38_2 C 0.4772(3) 0.1996(6) 0.1266(5)
H31_2 H 0.4874 0.2408 0.1743
C39_2 C 0.4394(2) 0.2242(6) 0.0963(4)
C40_2 C 0.4259(2) 0.1604(7) 0.0284(5)
H32_2 H 0.4000 0.1744 0.0062
O3_3 O 0.6724(2) 0.0802(5) 0.6377(4)
O4_3 O 0.64226(14) 0.0735(3) 0.7658(3)
C8_3 C 0.6511(2) 0.0302(5) 0.6935(5)
C37_2 C 0.4497(2) 0.0735(6) 0.9903(5)
H30_2 H 0.4393 0.0325 0.9428
O6_4 O 0.14588(12) 0.7807(3) 0.5795(2)
O7_4 O 0.11857(14) 0.6123(3) 0.5416(2)
O10_3 O 0.08095(15) 0.6667(3) 0.2271(3)
C26_4 C 0.12992(18) 0.7109(5) 0.5243(4)
C27_3 C 0.12447(17) 0.7602(5) 0.4336(3)
C28_3 C 0.10462(18) 0.6958(5) 0.3693(4)
H24_3 H 0.0937 0.6240 0.3835
C29_3 C 0.10094(18) 0.7378(5) 0.2841(4)
C30_3 C 0.11549(19) 0.8464(5) 0.2635(4)
H25_3 H 0.1121 0.8761 0.2072
C31_3 C 0.1354(2) 0.9116(5) 0.3282(4)
C32_3 C 0.13943(19) 0.8691(5) 0.4126(4)
H26_3 H 0.1522 0.9135 0.4555
C34_3 C 0.0866(2) 0.6835(5) 0.1347(4)
H27_3 H 0.1147 0.7027 0.1239
H28_3 H 0.0809 0.6113 0.1046
C36_3 C 0.0123(2) 0.9535(5) 0.0201(4)
C38_3 C 0.0228(3) 0.8004(6) 0.1266(5)
H31_3 H 0.0126 0.7592 0.1743
C39_3 C 0.0606(2) 0.7758(6) 0.0963(4)
C40_3 C 0.0741(2) 0.8396(7) 0.0284(5)
H32_3 H 0.1000 0.8256 0.0062
C35_4 C 0.9990(2) 0.8859(7) 0.0878(5)
H29_4 H 0.9728 0.8974 0.1089
O3_4 O 0.8276(2) 0.9198(5) 0.6377(4)
O4_4 O 0.85774(14) 0.9265(3) 0.7658(3)
C8_4 C 0.8489(2) 0.9698(5) 0.6935(5)
N7_3 N 0.08098(16) 0.6399(4) 0.8174(3)
H40_3 H 0.0995 0.6156 0.8526
N8_3 N 0.08822(14) 0.7067(4) 0.7456(3)
C46_3 C 0.0254(2) 0.5476(6) 0.9033(5)
H41_3 H 0.0200 0.5986 0.9518
H42_3 H 0.0008 0.5094 0.8863
H43_3 H 0.0451 0.4908 0.9207
C47_3 C 0.0415(2) 0.6163(5) 0.8269(4)
C48_3 C 0.02180(17) 0.6687(5) 0.7594(4)
C49_3 C 0.05135(18) 0.7243(5) 0.7117(4)
C50_3 C 0.0462(2) 0.8006(7) 0.6318(5)
H44_3 H 0.0504 0.7555 0.5795
H45_3 H 0.0194 0.8325 0.6312
H46_3 H 0.0657 0.8623 0.6338
N1_3 N 0.78904(15) 0.7200(4) 0.6799(3)
H1_3 H 0.7923 0.7881 0.6580
N2_3 N 0.81321(15) 0.6738(4) 0.7413(3)
N3_3 N 0.91902(16) 0.6399(4) 0.6826(3)
H2_3 H 0.9005 0.6156 0.6474
N4_2 N 0.91178(14) 0.7067(4) 0.7544(3)
C13_3 C 0.9746(2) 0.5476(6) 0.5967(5)
H10_3 H 0.9800 0.5986 0.5482
H11_3 H 0.9992 0.5094 0.6137
H12_3 H 0.9549 0.4908 0.5793
C14_3 C 0.9585(2) 0.6163(5) 0.6731(4)
C15_3 C 0.97820(17) 0.6687(5) 0.7406(4)
C16_3 C 0.94865(18) 0.7243(5) 0.7883(4)
C17_3 C 0.9538(2) 0.8006(7) 0.8682(5)
H13_3 H 0.9496 0.7555 0.9205
H14_3 H 0.9806 0.8325 0.8688
H15_3 H 0.9343 0.8623 0.8662
C18_3 C 0.8168(3) 0.4881(6) 0.8200(5)
H16_3 H 0.8186 0.5243 0.8767
H17_3 H 0.8008 0.4190 0.8245
H18_3 H 0.8435 0.4688 0.7997
C19_3 C 0.7973(2) 0.5694(5) 0.7565(4)
C20_3 C 0.76335(17) 0.5518(4) 0.7066(4)
C21_3 C 0.7593(2) 0.6479(6) 0.6567(5)
C22_3 C 0.7275(3) 0.6806(7) 0.5895(7)
H19_3 H 0.7405 0.7103 0.5377
H20_3 H 0.7118 0.6135 0.5744
H21_3 H 0.7099 0.7388 0.6137
N5_3 N 0.71096(15) 0.2800(4) 0.6799(3)
H33_3 H 0.7077 0.2119 0.6580
N6_3 N 0.68679(15) 0.3262(4) 0.7413(3)
C41_3 C 0.6832(3) 0.5119(6) 0.8200(5)
H34_3 H 0.6814 0.4757 0.8767
H35_3 H 0.6992 0.5810 0.8245
H36_3 H 0.6565 0.5312 0.7997
C42_3 C 0.7027(2) 0.4306(5) 0.7565(4)
C43_3 C 0.73665(17) 0.4482(4) 0.7066(4)
C44_3 C 0.7407(2) 0.3521(6) 0.6567(5)
C45_3 C 0.7725(3) 0.3194(7) 0.5895(7)
H37_3 H 0.7595 0.2897 0.5377
H38_3 H 0.7882 0.3865 0.5744
H39_3 H 0.7901 0.2612 0.6137
N9_2 N 0.58822(14) 0.2933(4) 0.7544(3)
N3_4 N 0.58098(16) 0.3601(4) 0.6826(3)
H2_4 H 0.5995 0.3844 0.6474
C13_4 C 0.5254(2) 0.4524(6) 0.5967(5)
H10_4 H 0.5200 0.4014 0.5482
H11_4 H 0.5008 0.4906 0.6137
H12_4 H 0.5451 0.5092 0.5793
C14_4 C 0.5415(2) 0.3837(5) 0.6731(4)
C15_4 C 0.52180(17) 0.3313(5) 0.7406(4)
C16_4 C 0.55135(18) 0.2757(5) 0.7883(4)
C17_4 C 0.5462(2) 0.1994(7) 0.8682(5)
H13_4 H 0.5504 0.2445 0.9205
H14_4 H 0.5194 0.1675 0.8688
H15_4 H 0.5657 0.1377 0.8662
N7_4 N 0.41902(16) 0.3601(4) 0.8174(3)
H40_4 H 0.4005 0.3844 0.8526
N8_4 N 0.41178(14) 0.2933(4) 0.7456(3)
C46_4 C 0.4746(2) 0.4524(6) 0.9033(5)
H41_4 H 0.4800 0.4014 0.9518
H42_4 H 0.4992 0.4906 0.8863
H43_4 H 0.4549 0.5092 0.9207
C47_4 C 0.4585(2) 0.3837(5) 0.8269(4)
C48_4 C 0.47820(17) 0.3313(5) 0.7594(4)
C49_4 C 0.44865(18) 0.2757(5) 0.7117(4)
C50_4 C 0.4538(2) 0.1994(7) 0.6318(5)
H44_4 H 0.4496 0.2445 0.5795
H45_4 H 0.4806 0.1675 0.6312
H46_4 H 0.4343 0.1377 0.6338
N1_4 N 0.28904(15) 0.2800(4) 0.8201(3)
H1_4 H 0.2923 0.2119 0.8420
N2_4 N 0.31321(15) 0.3262(4) 0.7587(3)
C18_4 C 0.3168(3) 0.5119(6) 0.6800(5)
H16_4 H 0.3186 0.4757 0.6233
H17_4 H 0.3008 0.5810 0.6755
H18_4 H 0.3435 0.5312 0.7003
C19_4 C 0.2973(2) 0.4306(5) 0.7435(4)
C20_4 C 0.26335(17) 0.4482(4) 0.7934(4)
C21_4 C 0.2593(2) 0.3521(6) 0.8433(5)
C22_4 C 0.2275(3) 0.3194(7) 0.9105(7)
H19_4 H 0.2405 0.2897 0.9623
H20_4 H 0.2118 0.3865 0.9256
H21_4 H 0.2099 0.2612 0.8863
N5_4 N 0.21096(15) 0.7200(4) 0.8201(3)
H33_4 H 0.2077 0.7881 0.8420
N6_4 N 0.18679(15) 0.6738(4) 0.7587(3)
C41_4 C 0.1832(3) 0.4881(6) 0.6800(5)
H34_4 H 0.1814 0.5243 0.6233
H35_4 H 0.1992 0.4190 0.6755
H36_4 H 0.1565 0.4688 0.7003
C42_4 C 0.2027(2) 0.5694(5) 0.7435(4)
C43_4 C 0.23665(17) 0.5518(4) 0.7934(4)
C44_4 C 0.2407(2) 0.6479(6) 0.8433(5)
C45_4 C 0.2725(3) 0.6806(7) 0.9105(7)
H37_4 H 0.2595 0.7103 0.9623
H38_4 H 0.2882 0.6135 0.9256
H39_4 H 0.2901 0.7388 0.8863
O10_4 O 0.91905(15) 0.6667(3) 0.2729(3)
C27_4 C 0.87553(17) 0.7602(5) 0.0664(3)
C28_4 C 0.89538(18) 0.6958(5) 0.1307(4)
H24_4 H 0.9063 0.6240 0.1165
C29_4 C 0.89906(18) 0.7378(5) 0.2159(4)
C30_4 C 0.88451(19) 0.8464(5) 0.2365(4)
H25_4 H 0.8879 0.8761 0.2928
C31_4 C 0.8646(2) 0.9116(5) 0.1718(4)
C32_4 C 0.86057(19) 0.8691(5) 0.0874(4)
H26_4 H 0.8478 0.9135 0.0445
C34_4 C 0.9134(2) 0.6835(5) 0.3653(4)
H27_4 H 0.8853 0.7027 0.3761
H28_4 H 0.9191 0.6113 0.3954
C36_4 C 0.9877(2) 0.9535(5) 0.4799(4)
C37_3 C 0.9497(2) 0.9265(6) 0.5097(5)
H30_3 H 0.9393 0.9675 0.5572
C38_4 C 0.9772(3) 0.8004(6) 0.3734(5)
H31_4 H 0.9874 0.7592 0.3257
C39_4 C 0.9394(2) 0.7758(6) 0.4037(4)
C40_4 C 0.9259(2) 0.8396(7) 0.4716(5)
H32_4 H 0.9000 0.8256 0.4938
C37_4 C 0.0503(2) 0.9265(6) 0.9903(5)
H30_4 H 0.0607 0.9675 0.9428
C12_4 C 0.9497(2) 0.0735(6) 0.0097(5)
H9_4 H 0.9393 0.0325 0.0572
loop_
_geom_bond_atom_site_label_1
_geom_bond_atom_site_label_2
_geom_bond_site_symmetry_1
_geom_bond_site_symmetry_2
Zn1 O1 1_555 1_555
O1 C1 1_555 1_555
O2 C1 1_555 1_555
N1 H1 1_555 1_555
N2 Zn1 1_555 1_555
N3 H2 1_555 1_555
N4 Zn1 1_555 1_555
C13 H10 1_555 1_555
H11 C13 1_555 1_555
H12 C13 1_555 1_555
C14 N3 1_555 1_555
C15 C14 1_555 1_555
C16 N4 1_555 1_555
C17 C16 1_555 1_555
H13 C17 1_555 1_555
H14 C17 1_555 1_555
H15 C17 1_555 1_555
C18 H16 1_555 1_555
H17 C18 1_555 1_555
H18 C18 1_555 1_555
C19 N2 1_555 1_555
C20 C19 1_555 1_555
C21 N1 1_555 1_555
C22 C21 1_555 1_555
H19 C22 1_555 1_555
H20 C22 1_555 1_555
H21 C22 1_555 1_555
N5 H33 1_555 1_555
N6 N5 1_555 1_555
C41 H34 1_555 1_555
H35 C41 1_555 1_555
H36 C41 1_555 1_555
C42 N6 1_555 1_555
C43 C20 1_555 1_555
C44 N5 1_555 1_555
C45 C44 1_555 1_555
H37 C45 1_555 1_555
H38 C45 1_555 1_555
H39 C45 1_555 1_555
Zn2 N6 1_555 1_555
O11 Zn2 1_555 1_555
O12 Zn2 1_555 1_555
O13 Zn1 1_555 1_555
N9 Zn2 1_555 1_555
N1 N2 1_555 1_555
N3 N4 1_555 1_555
C13 C14 1_555 1_555
C15 C16 1_555 1_555
C18 C19 1_555 1_555
C20 C21 1_555 1_555
C41 C42 1_555 1_555
C42 C43 1_555 1_555
C43 C44 1_555 1_555
N7 H40 1_555 1_555
N8 N7 1_555 1_555
C46 H41 1_555 1_555
H42 C46 1_555 1_555
H43 C46 1_555 1_555
C47 N7 1_555 1_555
C49 N8 1_555 1_555
C50 C49 1_555 1_555
H44 C50 1_555 1_555
H45 C50 1_555 1_555
H46 C50 1_555 1_555
Zn4 N8 1_555 1_555
C46 C47 1_555 1_555
C47 C48 1_555 1_555
C48 C49 1_555 1_555
C10 H8 1_555 1_555
O8 C33 1_555 1_555
O9 C33 1_555 1_555
Zn4 O9 1_555 1_555
O11 C1_2 1_555 1_555
O2_2 C1_2 1_555 1_555
N3_2 H2_2 1_555 1_555
C13_2 H10_2 1_555 1_555
H11_2 C13_2 1_555 1_555
H12_2 C13_2 1_555 1_555
C14_2 N3_2 1_555 1_555
C15_2 C14_2 1_555 1_555
C16_2 N9 1_555 1_555
C17_2 C16_2 1_555 1_555
H13_2 C17_2 1_555 1_555
H14_2 C17_2 1_555 1_555
H15_2 C17_2 1_555 1_555
N7_2 H40_2 1_555 1_555
N8_2 N7_2 1_555 1_555
C46_2 H41_2 1_555 1_555
H42_2 C46_2 1_555 1_555
H43_2 C46_2 1_555 1_555
C47_2 N7_2 1_555 1_555
C48_2 C15_2 1_555 1_555
C49_2 N8_2 1_555 1_555
C50_2 C49_2 1_555 1_555
H44_2 C50_2 1_555 1_555
H45_2 C50_2 1_555 1_555
H46_2 C50_2 1_555 1_555
Zn4_2 N8_2 1_555 1_555
N3_2 N9 1_555 1_555
C13_2 C14_2 1_555 1_555
C15_2 C16_2 1_555 1_555
C46_2 C47_2 1_555 1_555
C47_2 C48_2 1_555 1_555
C48_2 C49_2 1_555 1_555
O5 C4 1_555 1_555
C2 C3 1_555 1_555
C3 H3 1_555 1_555
C4 C3 1_555 1_555
C5 C4 1_555 1_555
H4 C5 1_555 1_555
C6 C5 1_555 1_555
C7 C2 1_555 1_555
H5 C7 1_555 1_555
C9 O5 1_555 1_555
H6 C9 1_555 1_555
H7 C9 1_555 1_555
C10_2 H8_2 1_555 1_555
C11 C10_2 1_555 1_555
C12 C11 1_555 1_555
H9 C12 1_555 1_555
C23 C10_2 1_555 1_555
H22 C23 1_555 1_555
C24 C9 1_555 1_555
C25 C12 1_555 1_555
H23 C25 1_555 1_555
O8_2 C33_2 1_555 1_555
O9_2 C33_2 1_555 1_555
Zn4_2 O9_2 1_555 1_555
C6 C7 1_555 1_555
C23 C24 1_555 1_555
C24 C25 1_555 1_555
H9_2 C12_2 1_555 1_555
O8_3 C33_3 1_555 1_555
O12 C33_3 1_555 1_555
Zn4_2 O1_2 1_555 1_555
O1_2 C1_3 1_555 1_555
O2_3 C1_3 1_555 1_555
O5_2 C4_2 1_555 1_555
N1_2 H1_2 1_555 1_555
N2_2 Zn4_2 1_555 1_555
C1_3 C2_2 1_555 1_555
C2_2 C3_2 1_555 1_555
C3_2 H3_2 1_555 1_555
C4_2 C3_2 1_555 1_555
C5_2 C4_2 1_555 1_555
H4_2 C5_2 1_555 1_555
C6_2 C5_2 1_555 1_555
C7_2 C2_2 1_555 1_555
H5_2 C7_2 1_555 1_555
C9_2 O5_2 1_555 1_555
H6_2 C9_2 1_555 1_555
H7_2 C9_2 1_555 1_555
C10_3 H8_3 1_555 1_555
C11_2 C10_3 1_555 1_555
C18_2 H16_2 1_555 1_555
H17_2 C18_2 1_555 1_555
H18_2 C18_2 1_555 1_555
C19_2 N2_2 1_555 1_555
C20_2 C19_2 1_555 1_555
C21_2 N1_2 1_555 1_555
C22_2 C21_2 1_555 1_555
H19_2 C22_2 1_555 1_555
H20_2 C22_2 1_555 1_555
H21_2 C22_2 1_555 1_555
C23_2 C10_3 1_555 1_555
H22_2 C23_2 1_555 1_555
C24_2 C9_2 1_555 1_555
H23_2 C25_2 1_555 1_555
N5_2 H33_2 1_555 1_555
N6_2 N5_2 1_555 1_555
C41_2 H34_2 1_555 1_555
H35_2 C41_2 1_555 1_555
H36_2 C41_2 1_555 1_555
C42_2 N6_2 1_555 1_555
C43_2 C20_2 1_555 1_555
C44_2 N5_2 1_555 1_555
C45_2 C44_2 1_555 1_555
H37_2 C45_2 1_555 1_555
H38_2 C45_2 1_555 1_555
H39_2 C45_2 1_555 1_555
Zn4 N6_2 1_555 1_555
O11_2 Zn4 1_555 1_555
N1_2 N2_2 1_555 1_555
C6_2 C7_2 1_555 1_555
C18_2 C19_2 1_555 1_555
C20_2 C21_2 1_555 1_555
C23_2 C24_2 1_555 1_555
C24_2 C25_2 1_555 1_555
C41_2 C42_2 1_555 1_555
C42_2 C43_2 1_555 1_555
C43_2 C44_2 1_555 1_555
O8_4 C33_4 1_555 1_555
O13 C33_4 1_555 1_555
C10_4 H8_4 1_555 1_555
O11_2 C1_4 1_555 1_555
O2_4 C1_4 1_555 1_555
O5_3 C4_3 1_555 1_555
C1_4 C2_3 1_555 1_555
C2_3 C3_3 1_555 1_555
C3_3 H3_3 1_555 1_555
C4_3 C3_3 1_555 1_555
C5_3 C4_3 1_555 1_555
H4_3 C5_3 1_555 1_555
C6_3 C5_3 1_555 1_555
C7_3 C2_3 1_555 1_555
H5_3 C7_3 1_555 1_555
C9_3 O5_3 1_555 1_555
H6_3 C9_3 1_555 1_555
H7_3 C9_3 1_555 1_555
H22_3 C23_3 1_555 1_555
C24_3 C9_3 1_555 1_555
H23_3 C25_3 1_555 1_555
C6_3 C7_3 1_555 1_555
C23_3 C24_3 1_555 1_555
C24_3 C25_3 1_555 1_555
O5_4 C4_4 1_555 1_555
C2_4 C3_4 1_555 1_555
C3_4 H3_4 1_555 1_555
C4_4 C3_4 1_555 1_555
C5_4 C4_4 1_555 1_555
H4_4 C5_4 1_555 1_555
C6_4 C5_4 1_555 1_555
C7_4 C2_4 1_555 1_555
H5_4 C7_4 1_555 1_555
C9_4 O5_4 1_555 1_555
H6_4 C9_4 1_555 1_555
H7_4 C9_4 1_555 1_555
C12_3 C11_4 1_555 1_555
H9_3 C12_3 1_555 1_555
H22_4 C23_4 1_555 1_555
C24_4 C9_4 1_555 1_555
C25_4 C12_3 1_555 1_555
H23_4 C25_4 1_555 1_555
C6_4 C7_4 1_555 1_555
C23_4 C24_4 1_555 1_555
C24_4 C25_4 1_555 1_555
O3 C8 1_555 1_555
O4 C8 1_555 1_555
C35 H29 1_555 1_555
Zn6 O4 1_555 1_555
O6 C26 1_555 1_555
O7 C26 1_555 1_555
Zn5 O6 1_555 1_555
O3_2 C8_2 1_555 1_555
O4_2 C8_2 1_555 1_555
O10 C29 1_555 1_555
C27 C28 1_555 1_555
C28 H24 1_555 1_555
C29 C28 1_555 1_555
C30 C29 1_555 1_555
H25 C30 1_555 1_555
C31 C30 1_555 1_555
C32 C27 1_555 1_555
H26 C32 1_555 1_555
C34 O10 1_555 1_555
H27 C34 1_555 1_555
H28 C34 1_555 1_555
C35_2 H29_2 1_555 1_555
C37 C36 1_555 1_555
H30 C37 1_555 1_555
C38 C35_2 1_555 1_555
H31 C38 1_555 1_555
C39 C34 1_555 1_555
C40 C37 1_555 1_555
H32 C40 1_555 1_555
Zn6_2 O4_2 1_555 1_555
C31 C32 1_555 1_555
C35_2 C36 1_555 1_555
C38 C39 1_555 1_555
C39 C40 1_555 1_555
O6_2 C26_2 1_555 1_555
O7_2 C26_2 1_555 1_555
Zn5_2 O6_2 1_555 1_555
O6_3 C26_3 1_555 1_555
O7_3 C26_3 1_555 1_555
O10_2 C29_2 1_555 1_555
C26_3 C27_2 1_555 1_555
C27_2 C28_2 1_555 1_555
C28_2 H24_2 1_555 1_555
C29_2 C28_2 1_555 1_555
C30_2 C29_2 1_555 1_555
H25_2 C30_2 1_555 1_555
C31_2 C30_2 1_555 1_555
C32_2 C27_2 1_555 1_555
H26_2 C32_2 1_555 1_555
C34_2 O10_2 1_555 1_555
H27_2 C34_2 1_555 1_555
H28_2 C34_2 1_555 1_555
C35_3 H29_3 1_555 1_555
C38_2 C35_3 1_555 1_555
H31_2 C38_2 1_555 1_555
C39_2 C34_2 1_555 1_555
H32_2 C40_2 1_555 1_555
Zn6_2 O6_3 1_555 1_555
C31_2 C32_2 1_555 1_555
C35_3 C36_2 1_555 1_555
C38_2 C39_2 1_555 1_555
C39_2 C40_2 1_555 1_555
O3_3 C8_3 1_555 1_555
O4_3 C8_3 1_555 1_555
H30_2 C37_2 1_555 1_555
Zn5_2 O4_3 1_555 1_555
O6_4 C26_4 1_555 1_555
O7_4 C26_4 1_555 1_555
O10_3 C29_3 1_555 1_555
C26_4 C27_3 1_555 1_555
C27_3 C28_3 1_555 1_555
C28_3 H24_3 1_555 1_555
C29_3 C28_3 1_555 1_555
C30_3 C29_3 1_555 1_555
H25_3 C30_3 1_555 1_555
C31_3 C30_3 1_555 1_555
C32_3 C27_3 1_555 1_555
H26_3 C32_3 1_555 1_555
C34_3 O10_3 1_555 1_555
H27_3 C34_3 1_555 1_555
H28_3 C34_3 1_555 1_555
H31_3 C38_3 1_555 1_555
C39_3 C34_3 1_555 1_555
H32_3 C40_3 1_555 1_555
Zn6 O6_4 1_555 1_555
C31_3 C32_3 1_555 1_555
C38_3 C39_3 1_555 1_555
C39_3 C40_3 1_555 1_555
C35_4 H29_4 1_555 1_555
O3_4 C8_4 1_555 1_555
O4_4 C8_4 1_555 1_555
Zn5 O4_4 1_555 1_555
N7_3 H40_3 1_555 1_555
N8_3 N7_3 1_555 1_555
C46_3 H41_3 1_555 1_555
H42_3 C46_3 1_555 1_555
H43_3 C46_3 1_555 1_555
C47_3 N7_3 1_555 1_555
C49_3 N8_3 1_555 1_555
C50_3 C49_3 1_555 1_555
H44_3 C50_3 1_555 1_555
H45_3 C50_3 1_555 1_555
H46_3 C50_3 1_555 1_555
Zn6 N8_3 1_555 1_555
C46_3 C47_3 1_555 1_555
C47_3 C48_3 1_555 1_555
C48_3 C49_3 1_555 1_555
N1_3 H1_3 1_555 1_555
N2_3 Zn5 1_555 1_555
N3_3 H2_3 1_555 1_555
N4_2 Zn5 1_555 1_555
C13_3 H10_3 1_555 1_555
H11_3 C13_3 1_555 1_555
H12_3 C13_3 1_555 1_555
C14_3 N3_3 1_555 1_555
C15_3 C14_3 1_555 1_555
C16_3 N4_2 1_555 1_555
C17_3 C16_3 1_555 1_555
H13_3 C17_3 1_555 1_555
H14_3 C17_3 1_555 1_555
H15_3 C17_3 1_555 1_555
C18_3 H16_3 1_555 1_555
H17_3 C18_3 1_555 1_555
H18_3 C18_3 1_555 1_555
C19_3 N2_3 1_555 1_555
C20_3 C19_3 1_555 1_555
C21_3 N1_3 1_555 1_555
C22_3 C21_3 1_555 1_555
H19_3 C22_3 1_555 1_555
H20_3 C22_3 1_555 1_555
H21_3 C22_3 1_555 1_555
N5_3 H33_3 1_555 1_555
N6_3 N5_3 1_555 1_555
C41_3 H34_3 1_555 1_555
H35_3 C41_3 1_555 1_555
H36_3 C41_3 1_555 1_555
C42_3 N6_3 1_555 1_555
C43_3 C20_3 1_555 1_555
C44_3 N5_3 1_555 1_555
C45_3 C44_3 1_555 1_555
H37_3 C45_3 1_555 1_555
H38_3 C45_3 1_555 1_555
H39_3 C45_3 1_555 1_555
Zn5_2 N6_3 1_555 1_555
N9_2 Zn5_2 1_555 1_555
N1_3 N2_3 1_555 1_555
N3_3 N4_2 1_555 1_555
C13_3 C14_3 1_555 1_555
C15_3 C16_3 1_555 1_555
C18_3 C19_3 1_555 1_555
C20_3 C21_3 1_555 1_555
C41_3 C42_3 1_555 1_555
C42_3 C43_3 1_555 1_555
C43_3 C44_3 1_555 1_555
N3_4 H2_4 1_555 1_555
C13_4 H10_4 1_555 1_555
H11_4 C13_4 1_555 1_555
H12_4 C13_4 1_555 1_555
C14_4 N3_4 1_555 1_555
C15_4 C14_4 1_555 1_555
C16_4 N9_2 1_555 1_555
C17_4 C16_4 1_555 1_555
H13_4 C17_4 1_555 1_555
H14_4 C17_4 1_555 1_555
H15_4 C17_4 1_555 1_555
N7_4 H40_4 1_555 1_555
N8_4 N7_4 1_555 1_555
C46_4 H41_4 1_555 1_555
H42_4 C46_4 1_555 1_555
H43_4 C46_4 1_555 1_555
C47_4 N7_4 1_555 1_555
C48_4 C15_4 1_555 1_555
C49_4 N8_4 1_555 1_555
C50_4 C49_4 1_555 1_555
H44_4 C50_4 1_555 1_555
H45_4 C50_4 1_555 1_555
H46_4 C50_4 1_555 1_555
Zn6_2 N8_4 1_555 1_555
N3_4 N9_2 1_555 1_555
C13_4 C14_4 1_555 1_555
C15_4 C16_4 1_555 1_555
C46_4 C47_4 1_555 1_555
C47_4 C48_4 1_555 1_555
C48_4 C49_4 1_555 1_555
N1_4 H1_4 1_555 1_555
N2_4 Zn6_2 1_555 1_555
C18_4 H16_4 1_555 1_555
H17_4 C18_4 1_555 1_555
H18_4 C18_4 1_555 1_555
C19_4 N2_4 1_555 1_555
C20_4 C19_4 1_555 1_555
C21_4 N1_4 1_555 1_555
C22_4 C21_4 1_555 1_555
H19_4 C22_4 1_555 1_555
H20_4 C22_4 1_555 1_555
H21_4 C22_4 1_555 1_555
N5_4 H33_4 1_555 1_555
N6_4 N5_4 1_555 1_555
C41_4 H34_4 1_555 1_555
H35_4 C41_4 1_555 1_555
H36_4 C41_4 1_555 1_555
C42_4 N6_4 1_555 1_555
C43_4 C20_4 1_555 1_555
C44_4 N5_4 1_555 1_555
C45_4 C44_4 1_555 1_555
H37_4 C45_4 1_555 1_555
H38_4 C45_4 1_555 1_555
H39_4 C45_4 1_555 1_555
Zn6 N6_4 1_555 1_555
N1_4 N2_4 1_555 1_555
C18_4 C19_4 1_555 1_555
C20_4 C21_4 1_555 1_555
C41_4 C42_4 1_555 1_555
C42_4 C43_4 1_555 1_555
C43_4 C44_4 1_555 1_555
O10_4 C29_4 1_555 1_555
C27_4 C28_4 1_555 1_555
C28_4 H24_4 1_555 1_555
C29_4 C28_4 1_555 1_555
C30_4 C29_4 1_555 1_555
H25_4 C30_4 1_555 1_555
C31_4 C30_4 1_555 1_555
C32_4 C27_4 1_555 1_555
H26_4 C32_4 1_555 1_555
C34_4 O10_4 1_555 1_555
H27_4 C34_4 1_555 1_555
H28_4 C34_4 1_555 1_555
C37_3 C36_4 1_555 1_555
H30_3 C37_3 1_555 1_555
H31_4 C38_4 1_555 1_555
C39_4 C34_4 1_555 1_555
C40_4 C37_3 1_555 1_555
H32_4 C40_4 1_555 1_555
C31_4 C32_4 1_555 1_555
C38_4 C39_4 1_555 1_555
C39_4 C40_4 1_555 1_555
H30_4 C37_4 1_555 1_555
H9_4 C12_4 1_555 1_555

#END
