
###############################################################################
#
# This file contains modified crystal structure data generated from the
# MOF subset of the Cambridge Structural Database (CSD) v543 
# hosted by the Cambridge Crystallographic Data Centre (CCDC).
#
# This work is licensed under the Creative Commons
# Attribution-NonCommercial-ShareAlike 4.0 International License.
# To view a copy of this license, visit
# http://creativecommons.org/licenses/by-nc-sa/4.0/
# or send a letter to
# Creative Commons, PO Box 1866, Mountain View, CA 94042, USA.
#
# CIF created using the CSD Python API on 29 September 2022
# The structure has been converted into the P1 space group
# The structure has a 3D framework
# The original CSD entry DOXGAB is in the monoclinic crystal system
# The framework has been calculated to contain at least 10.0% void space
# The void calculation uses a probe of radius 1.32A, grid spacing 0.4
#
###############################################################################

data_DOXGAB
_chemical_formula_moiety         '(C180 H132 N36 O24 Zn5)n'
_symmetry_cell_setting           triclinic
_symmetry_space_group_name_H-M   'P 1'
_symmetry_Int_Tables_number      1
_space_group_name_Hall           'P 1'
loop_
_symmetry_equiv_pos_site_id
_symmetry_equiv_pos_as_xyz
1 x,y,z
_cell_length_a                   16.9080(11)
_cell_length_b                   8.4320(6)
_cell_length_c                   34.872(3)
_cell_angle_alpha                90
_cell_angle_beta                 102.782(2)
_cell_angle_gamma                90
_cell_volume                     4848.44
loop_
_atom_site_label
_atom_site_type_symbol
_atom_site_fract_x
_atom_site_fract_y
_atom_site_fract_z
C56 C 0.1972(6) 0.0559(13) 0.0455(3)
H45 H 0.245496 0.026471 0.038807
C58 C 0.1876(7) 0.2094(14) 0.0581(4)
H46 H 0.228812 0.283365 0.059240
C59 C 0.1166(7) 0.2523(13) 0.0688(3)
H47 H 0.110747 0.355146 0.077423
C60 C 0.0540(5) 0.1441(10) 0.0670(2)
Zn1 Zn 0.26501(5) 0.44412(11) 0.16555(3)
C31 C 0.4802(6) 0.1163(13) 0.5866(3)
H19 H 0.499288 0.203550 0.602256
C32 C 0.4769(5) 0.1199(11) 0.5471(3)
C34 C 0.5050(7) 0.2644(11) 0.5275(3)
H21 H 0.462325 0.295126 0.505306
H22 H 0.513219 0.351750 0.546114
C35 C 0.6556(6) 0.2597(12) 0.5349(3)
H23 H 0.667954 0.290619 0.561146
C36 C 0.5867(6) 0.1937(12) 0.4776(3)
H24 H 0.544517 0.170575 0.456237
C37 C 0.6669(6) 0.1881(12) 0.4784(3)
H25 H 0.689313 0.158981 0.457418
C40 C 0.5674(6) 0.0405(12) 0.3793(3)
H28 H 0.585998 0.139964 0.388787
C41 C 0.4964(6) 0.1208(11) 0.3093(3)
H29 H 0.440952 0.152148 0.308716
H30 H 0.530168 0.215028 0.313389
C42 C 0.5777(6) 0.0257(13) 0.2610(3)
H31 H 0.624374 0.067358 0.277119
C44 C 0.5013(6) 0.0431(10) 0.2713(3)
C50 C 0.1882(6) 0.1080(14) 0.1678(3)
H38 H 0.134310 0.136541 0.165917
C51 C 0.3155(6) 0.1175(10) 0.1675(3)
H39 H 0.366046 0.153712 0.164914
C52 C 0.1918(5) 0.6315(10) 0.0948(2)
H40 H 0.142746 0.636758 0.102634
C53 C 0.3168(5) 0.5829(11) 0.0937(3)
H41 H 0.369966 0.546925 0.101204
C54 C 0.2843(6) 0.6600(12) 0.0595(3)
H42 H 0.310699 0.686686 0.039671
C55 C 0.1460(6) 0.7760(12) 0.0297(3)
H43 H 0.094263 0.721349 0.024638
H44 H 0.165264 0.777553 0.005493
C57 C 0.1349(5) 0.9460(10) 0.0428(2)
C61 C 0.0640(5) 0.9905(11) 0.0546(2)
H48 H 0.023239 0.916021 0.054195
C66 C 0.1153(5) 0.5140(11) 0.1796(3)
C67 C 0.0551(5) 0.5511(10) 0.2039(2)
C68 C 0.0746(5) 0.6445(12) 0.2376(3)
H54 H 0.126181 0.688411 0.245304
C69 C 0.0185(5) 0.6717(12) 0.2594(3)
H55 H 0.032909 0.731754 0.282203
N1 N 0.2577(4) 0.5666(8) 0.1154(2)
N2 N 0.2043(4) 0.6909(9) 0.0600(2)
N3 N 0.2506(4) 0.2081(8) 0.1631(2)
N5 N 0.5252(4) 0.0045(9) 0.3423(2)
N17 N 0.5797(5) 0.2395(9) 0.5138(2)
N18 N 0.7100(4) 0.2313(9) 0.5146(2)
O7 O 0.1903(4) 0.5468(7) 0.19462(19)
O8 O 0.0928(4) 0.4529(9) 0.14648(19)
Zn6 Zn 0.83192(6) 0.24880(12) 0.52930(3)
O15 O 0.3646(3) 0.4747(8) 0.20803(18)
C62 C 0.9794(5) 0.1921(10) 0.0803(2)
H49 H 0.948325 0.097661 0.082972
H50 H 0.995446 0.240521 0.106079
C63 C 0.9218(5) 0.4595(10) 0.0590(3)
H51 H 0.951616 0.514688 0.080534
C64 C 0.8384(6) 0.4038(11) 0.0035(3)
C65 C 0.8740(5) 0.2687(11) 0.0182(3)
H53 H 0.865068 0.168888 0.006677
C78 C 0.9417(6) 0.0239(11) 0.4045(3)
H59 H 0.989595 0.081785 0.411146
C79 C 0.8866(5) 0.0297(10) 0.4290(2)
C81 C 0.9033(6) 0.1293(11) 0.4661(3)
N9 N 0.9267(4) 0.3039(8) 0.0537(2)
N10 N 0.8682(4) 0.5259(8) 0.0294(2)
O11 O 0.8515(4) 0.1106(8) 0.48773(19)
O12 O 0.9630(4) 0.2177(9) 0.4732(2)
Zn8 Zn 0.83192(6) 0.75120(12) 0.02930(3)
N19 N 0.8682(4) 0.4741(8) 0.5294(2)
O14 O 0.8857(4) 0.1620(7) 0.58136(17)
C70 C 0.9406(5) 0.6125(11) 0.2485(2)
C71 C 0.9203(6) 0.5169(13) 0.2150(3)
H56 H 0.868994 0.471590 0.207878
C72 C 0.9769(5) 0.4899(12) 0.1925(3)
H57 H 0.962602 0.430288 0.169590
C73 C 0.8781(5) 0.6456(10) 0.2708(2)
C74 C 0.7466(5) 0.6219(11) 0.2754(2)
C75 C 0.8359(5) 0.7578(10) 0.3216(2)
C76 C 0.8536(5) 0.8505(10) 0.3589(2)
C77 C 0.9266(5) 0.9344(11) 0.3707(3)
H58 H 0.965262 0.929404 0.355496
C80 C 0.8151(5) 0.9446(10) 0.4178(3)
H60 H 0.777874 0.945222 0.433893
C82 C 0.7979(5) 0.8575(11) 0.3827(3)
H61 H 0.748841 0.803930 0.375359
C83 C 0.6651(5) 0.5619(12) 0.2577(3)
C84 C 0.5993(5) 0.5783(12) 0.2757(2)
H62 H 0.607396 0.618528 0.301077
C85 C 0.5221(5) 0.5348(11) 0.2557(3)
H63 H 0.478733 0.547203 0.267880
C86 C 0.6506(6) 0.4997(19) 0.2196(4)
H64 H 0.693384 0.488080 0.207056
C87 C 0.5726(6) 0.4551(18) 0.2002(4)
H65 H 0.564222 0.412669 0.175022
C88 C 0.5083(5) 0.4725(12) 0.2175(3)
C89 C 0.4253(5) 0.4436(10) 0.1934(3)
N14 N 0.8049(4) 0.5878(9) 0.2561(2)
N15 N 0.8972(4) 0.7326(9) 0.30387(19)
N16 N 0.7591(4) 0.7058(9) 0.3090(2)
O10 O 0.4184(4) 0.3934(9) 0.15923(19)
C1 C 0.8507(5) 0.7950(10) 0.1084(2)
C2 C 0.8793(5) 0.8749(10) 0.1478(2)
C3 C 0.9571(5) 0.9413(10) 0.1586(2)
H1 H 0.992815 0.932622 0.141936
C6 C 0.8498(5) 0.9734(11) 0.2083(3)
H3 H 0.813793 0.985699 0.224728
C7 C 0.8266(6) 0.8886(11) 0.1731(2)
H4 H 0.775738 0.841231 0.166552
O3 O 0.8857(4) 0.8380(7) 0.08136(17)
O4 O 0.7967(4) 0.6962(8) 0.10418(18)
C31_2 C 0.4802(6) 0.8837(13) 0.0866(3)
H19_2 H 0.499288 0.796450 0.102256
C32_2 C 0.4769(5) 0.8801(11) 0.0471(3)
C34_2 C 0.5050(7) 0.7356(11) 0.0275(3)
H21_2 H 0.462325 0.704874 0.005306
H22_2 H 0.513219 0.648250 0.046114
C35_2 C 0.6556(6) 0.7403(12) 0.0349(3)
H23_2 H 0.667954 0.709381 0.061146
N17_2 N 0.5797(5) 0.7605(9) 0.0138(2)
N18_2 N 0.7100(4) 0.7687(9) 0.0146(2)
C1_2 C 0.8507(5) 0.2050(10) 0.6084(2)
C2_2 C 0.8793(5) 0.1251(10) 0.6478(2)
C3_2 C 0.9571(5) 0.0587(10) 0.6586(2)
H1_2 H 0.992815 0.067378 0.641936
C6_2 C 0.8498(5) 0.0266(11) 0.7083(3)
H3_2 H 0.813793 0.014301 0.724728
C7_2 C 0.8266(6) 0.1114(11) 0.6731(2)
H4_2 H 0.775738 0.158769 0.666552
O4_2 O 0.7967(4) 0.3038(8) 0.60418(18)
C62_2 C 0.9794(5) 0.8079(10) 0.5803(2)
H49_2 H 0.948325 0.902339 0.582972
H50_2 H 0.995446 0.759479 0.606079
C63_2 C 0.9218(5) 0.5405(10) 0.5590(3)
H51_2 H 0.951616 0.485312 0.580534
C64_2 C 0.8384(6) 0.5962(11) 0.5035(3)
H52 H 0.800192 0.585729 0.479969
C65_2 C 0.8740(5) 0.7313(11) 0.5182(3)
H53_2 H 0.865068 0.831112 0.506677
C78_2 C 0.9417(6) 0.9761(11) 0.9045(3)
H59_2 H 0.989595 0.918215 0.911146
C79_2 C 0.8866(5) 0.9703(10) 0.9290(2)
C81_2 C 0.9033(6) 0.8707(11) 0.9661(3)
N9_2 N 0.9267(4) 0.6961(8) 0.5537(2)
O11_2 O 0.8515(4) 0.8894(8) 0.98773(19)
O12_2 O 0.9630(4) 0.7823(9) 0.9732(2)
Zn2 Zn 0.52968(5) 0.55678(11) 0.39260(2)
H2 H 0.032682 0.059578 0.201404
C17 C 0.0516(5) 0.2540(11) 0.2994(2)
C18 C 0.1859(5) 0.3088(11) 0.2838(2)
H9 H 0.165267 0.271351 0.258481
C19 C 0.1375(5) 0.3088(12) 0.3108(2)
C20 C 0.1695(5) 0.3565(14) 0.3497(2)
H10 H 0.138000 0.353651 0.368465
C21 C 0.2495(5) 0.4081(13) 0.3595(2)
H11 H 0.271727 0.440744 0.385099
C22 C 0.2963(5) 0.4117(11) 0.3319(2)
C23 C 0.3818(5) 0.4766(11) 0.3433(3)
C24 C 0.5842(6) 0.6094(12) 0.4825(3)
H12 H 0.639661 0.596417 0.484570
C25 C 0.5490(7) 0.6529(13) 0.5118(3)
H13 H 0.575503 0.676084 0.537496
C26 C 0.4555(6) 0.6152(11) 0.4601(3)
H14 H 0.404308 0.606320 0.443670
C27 C 0.4058(8) 0.6990(14) 0.5183(3)
H15 H 0.398613 0.612744 0.535602
H16 H 0.354843 0.715369 0.499533
C28 C 0.4292(5) 0.8504(11) 0.5425(3)
C29 C 0.4309(6) 0.8491(12) 0.5823(3)
H17 H 0.415872 0.759412 0.594538
C30 C 0.4551(8) 0.9831(15) 0.6029(3)
H18 H 0.454681 0.984716 0.629530
C33 C 0.4511(6) 0.9853(11) 0.5243(3)
H20 H 0.448559 0.985970 0.497359
C38 C 0.5768(6) 0.9003(12) 0.3997(3)
H26 H 0.604556 0.887053 0.425663
C39 C 0.5091(5) 0.8502(10) 0.3415(3)
H27 H 0.480488 0.796492 0.319455
C43 C 0.4335(6) 0.9839(11) 0.2468(3)
H32 H 0.383603 0.996159 0.253487
C45 C 0.5819(7) 0.9461(13) 0.2268(3)
H33 H 0.631779 0.932384 0.220151
C46 C 0.5117(7) 0.8864(13) 0.2022(3)
H34 H 0.514946 0.833299 0.179256
C47 C 0.4365(6) 0.9062(11) 0.2121(3)
C48 C 0.3609(7) 0.8431(11) 0.1856(3)
H35 H 0.373581 0.802651 0.161611
H36 H 0.339544 0.756311 0.198513
C49 C 0.2196(8) 0.9646(13) 0.1753(3)
H37 H 0.190665 0.874864 0.179506
C90 C 0.2635(5) 0.3627(12) 0.2937(3)
H66 H 0.294668 0.366875 0.274828
N4 N 0.3003(5) 0.9678(9) 0.1761(2)
N6 N 0.5384(4) 0.7831(8) 0.37536(19)
N7 N 0.5252(4) 0.5872(9) 0.44889(19)
N8 N 0.4687(5) 0.6569(9) 0.4974(2)
N11 N 0.0302(4) 0.1699(9) 0.2662(2)
N12 N 0.0001(4) 0.2981(9) 0.3223(2)
O5 O 0.4086(4) 0.5514(9) 0.31775(18)
O6 O 0.4217(4) 0.4517(8) 0.37772(18)
O13 O 0.6086(3) 0.4206(7) 0.37600(17)
C4 C 0.9803(5) 0.0195(11) 0.1940(3)
C5 C 0.9273(5) 0.0395(10) 0.2186(2)
C8 C 0.9520(5) 0.1287(10) 0.2559(2)
C9 C 0.9231(5) 0.2512(11) 0.3092(3)
C10 C 0.8627(5) 0.2982(10) 0.3314(2)
C11 C 0.8837(5) 0.3933(11) 0.3654(3)
H5 H 0.937327 0.424607 0.374432
C12 C 0.8267(5) 0.4405(10) 0.3855(2)
H6 H 0.842045 0.502774 0.407948
C13 C 0.7458(5) 0.3956(10) 0.3726(2)
C14 C 0.7248(5) 0.3016(11) 0.3391(2)
H7 H 0.670932 0.272896 0.329703
C15 C 0.6815(5) 0.4615(10) 0.3919(2)
C16 C 0.7819(5) 0.2510(12) 0.3199(3)
H8 H 0.766675 0.183165 0.298521
N13 N 0.8958(4) 0.1656(9) 0.27640(19)
O2 O 0.7000(4) 0.5529(8) 0.42057(19)
H52_2 H 0.800192 0.414271 0.979969
C25_2 C 0.5490(7) 0.3471(13) 0.0118(3)
H13_2 H 0.575503 0.323916 0.037496
C27_2 C 0.4058(8) 0.3010(14) 0.0183(3)
H15_2 H 0.398613 0.387256 0.035602
C28_2 C 0.4292(5) 0.1496(11) 0.0425(3)
C29_2 C 0.4309(6) 0.1509(12) 0.0823(3)
H17_2 H 0.415872 0.240588 0.094538
C30_2 C 0.4551(8) 0.0169(15) 0.1029(3)
H18_2 H 0.454681 0.015284 0.129530
C33_2 C 0.4511(6) 0.0147(11) 0.0243(3)
Zn2_2 Zn 0.52968(5) 0.44322(11) 0.89260(2)
H2_2 H 0.032682 0.940422 0.701404
C17_2 C 0.0516(5) 0.7460(11) 0.7994(2)
C18_2 C 0.1859(5) 0.6912(11) 0.7838(2)
H9_2 H 0.165267 0.728649 0.758481
C19_2 C 0.1375(5) 0.6912(12) 0.8108(2)
C20_2 C 0.1695(5) 0.6435(14) 0.8497(2)
H10_2 H 0.138000 0.646349 0.868465
C21_2 C 0.2495(5) 0.5919(13) 0.8595(2)
H11_2 H 0.271727 0.559256 0.885099
C22_2 C 0.2963(5) 0.5883(11) 0.8319(2)
C23_2 C 0.3818(5) 0.5234(11) 0.8433(3)
C24_2 C 0.5842(6) 0.3906(12) 0.9825(3)
H12_2 H 0.639661 0.403583 0.984570
C26_2 C 0.4555(6) 0.3848(11) 0.9601(3)
H14_2 H 0.404308 0.393680 0.943670
H16_2 H 0.354843 0.284631 0.999533
H20_2 H 0.448559 0.014030 0.997359
C38_2 C 0.5768(6) 0.0997(12) 0.8997(3)
H26_2 H 0.604556 0.112947 0.925663
C39_2 C 0.5091(5) 0.1498(10) 0.8415(3)
H27_2 H 0.480488 0.203508 0.819455
C43_2 C 0.4335(6) 0.0161(11) 0.7468(3)
H32_2 H 0.383603 0.003841 0.753487
C45_2 C 0.5819(7) 0.0539(13) 0.7268(3)
H33_2 H 0.631779 0.067616 0.720151
C46_2 C 0.5117(7) 0.1136(13) 0.7022(3)
H34_2 H 0.514946 0.166701 0.679256
C47_2 C 0.4365(6) 0.0938(11) 0.7121(3)
C48_2 C 0.3609(7) 0.1569(11) 0.6856(3)
H35_2 H 0.373581 0.197349 0.661611
H36_2 H 0.339544 0.243689 0.698513
C49_2 C 0.2196(8) 0.0354(13) 0.6753(3)
H37_2 H 0.190665 0.125136 0.679506
C90_2 C 0.2635(5) 0.6373(12) 0.7937(3)
H66_2 H 0.294668 0.633125 0.774828
N4_2 N 0.3003(5) 0.0322(9) 0.6761(2)
N6_2 N 0.5384(4) 0.2169(8) 0.87536(19)
N7_2 N 0.5252(4) 0.4128(9) 0.94889(19)
N8_2 N 0.4687(5) 0.3431(9) 0.9974(2)
N11_2 N 0.0302(4) 0.8301(9) 0.7662(2)
N12_2 N 0.0001(4) 0.7019(9) 0.8223(2)
O5_2 O 0.4086(4) 0.4486(9) 0.81775(18)
O6_2 O 0.4217(4) 0.5483(8) 0.87772(18)
O13_2 O 0.6086(3) 0.5794(7) 0.87600(17)
C4_2 C 0.9803(5) 0.9805(11) 0.6940(3)
C5_2 C 0.9273(5) 0.9605(10) 0.7186(2)
C8_2 C 0.9520(5) 0.8713(10) 0.7559(2)
C9_2 C 0.9231(5) 0.7488(11) 0.8092(3)
C10_2 C 0.8627(5) 0.7018(10) 0.8314(2)
C11_2 C 0.8837(5) 0.6067(11) 0.8654(3)
H5_2 H 0.937327 0.575393 0.874432
C12_2 C 0.8267(5) 0.5595(10) 0.8855(2)
H6_2 H 0.842045 0.497226 0.907948
C13_2 C 0.7458(5) 0.6044(10) 0.8726(2)
C14_2 C 0.7248(5) 0.6984(11) 0.8391(2)
H7_2 H 0.670932 0.727104 0.829703
C15_2 C 0.6815(5) 0.5385(10) 0.8919(2)
C16_2 C 0.7819(5) 0.7490(12) 0.8199(3)
H8_2 H 0.766675 0.816835 0.798521
N13_2 N 0.8958(4) 0.8344(9) 0.77640(19)
O2_2 O 0.7000(4) 0.4471(8) 0.92057(19)
Zn1_2 Zn 0.26501(5) 0.55588(11) 0.66555(3)
C36_2 C 0.5867(6) 0.8063(12) 0.9776(3)
H24_2 H 0.544517 0.829425 0.956237
C37_2 C 0.6669(6) 0.8119(12) 0.9784(3)
H25_2 H 0.689313 0.841019 0.957418
C40_2 C 0.5674(6) 0.9595(12) 0.8793(3)
H28_2 H 0.585998 0.860036 0.888787
C41_2 C 0.4964(6) 0.8792(11) 0.8093(3)
H29_2 H 0.440952 0.847852 0.808716
H30_2 H 0.530168 0.784972 0.813389
C42_2 C 0.5777(6) 0.9743(13) 0.7610(3)
H31_2 H 0.624374 0.932642 0.777119
C44_2 C 0.5013(6) 0.9569(10) 0.7713(3)
C50_2 C 0.1882(6) 0.8920(14) 0.6678(3)
H38_2 H 0.134310 0.863459 0.665917
C51_2 C 0.3155(6) 0.8825(10) 0.6675(3)
H39_2 H 0.366046 0.846288 0.664914
C52_2 C 0.1918(5) 0.3685(10) 0.5948(2)
H40_2 H 0.142746 0.363242 0.602634
C53_2 C 0.3168(5) 0.4171(11) 0.5937(3)
H41_2 H 0.369966 0.453075 0.601204
C54_2 C 0.2843(6) 0.3400(12) 0.5595(3)
H42_2 H 0.310699 0.313314 0.539671
C55_2 C 0.1460(6) 0.2240(12) 0.5297(3)
H43_2 H 0.094263 0.278651 0.524638
H44_2 H 0.165264 0.222447 0.505493
C57_2 C 0.1349(5) 0.0540(10) 0.5428(2)
C61_2 C 0.0640(5) 0.0095(11) 0.5546(2)
H48_2 H 0.023239 0.083979 0.554195
C66_2 C 0.1153(5) 0.4860(11) 0.6796(3)
C67_2 C 0.0551(5) 0.4489(10) 0.7039(2)
C68_2 C 0.0746(5) 0.3555(12) 0.7376(3)
H54_2 H 0.126181 0.311589 0.745304
C69_2 C 0.0185(5) 0.3283(12) 0.7594(3)
H55_2 H 0.032909 0.268246 0.782203
N1_2 N 0.2577(4) 0.4334(8) 0.6154(2)
N2_2 N 0.2043(4) 0.3091(9) 0.5600(2)
N3_2 N 0.2506(4) 0.7919(8) 0.6631(2)
N5_2 N 0.5252(4) 0.9955(9) 0.8423(2)
O7_2 O 0.1903(4) 0.4532(7) 0.69462(19)
O8_2 O 0.0928(4) 0.5471(9) 0.64648(19)
O15_2 O 0.3646(3) 0.5253(8) 0.70803(18)
C70_2 C 0.9406(5) 0.3875(11) 0.7485(2)
C71_2 C 0.9203(6) 0.4831(13) 0.7150(3)
H56_2 H 0.868994 0.528410 0.707878
C72_2 C 0.9769(5) 0.5101(12) 0.6925(3)
H57_2 H 0.962602 0.569712 0.669590
C73_2 C 0.8781(5) 0.3544(10) 0.7708(2)
C74_2 C 0.7466(5) 0.3781(11) 0.7754(2)
C75_2 C 0.8359(5) 0.2422(10) 0.8216(2)
C76_2 C 0.8536(5) 0.1495(10) 0.8589(2)
C77_2 C 0.9266(5) 0.0656(11) 0.8707(3)
H58_2 H 0.965262 0.070596 0.855496
C80_2 C 0.8151(5) 0.0554(10) 0.9178(3)
H60_2 H 0.777874 0.054778 0.933893
C82_2 C 0.7979(5) 0.1425(11) 0.8827(3)
H61_2 H 0.748841 0.196070 0.875359
C83_2 C 0.6651(5) 0.4381(12) 0.7577(3)
C84_2 C 0.5993(5) 0.4217(12) 0.7757(2)
H62_2 H 0.607396 0.381472 0.801077
C85_2 C 0.5221(5) 0.4652(11) 0.7557(3)
H63_2 H 0.478733 0.452797 0.767880
C86_2 C 0.6506(6) 0.5003(19) 0.7196(4)
H64_2 H 0.693384 0.511920 0.707056
C87_2 C 0.5726(6) 0.5449(18) 0.7002(4)
H65_2 H 0.564222 0.587331 0.675022
C88_2 C 0.5083(5) 0.5275(12) 0.7175(3)
C89_2 C 0.4253(5) 0.5564(10) 0.6934(3)
N14_2 N 0.8049(4) 0.4122(9) 0.7561(2)
N15_2 N 0.8972(4) 0.2674(9) 0.80387(19)
N16_2 N 0.7591(4) 0.2942(9) 0.8090(2)
O10_2 O 0.4184(4) 0.6066(9) 0.65923(19)
C56_2 C 0.1972(6) 0.9441(13) 0.5455(3)
H45_2 H 0.245496 0.973529 0.538807
C58_2 C 0.1876(7) 0.7906(14) 0.5581(4)
H46_2 H 0.228812 0.716635 0.559240
C59_2 C 0.1166(7) 0.7477(13) 0.5688(3)
H47_2 H 0.110747 0.644854 0.577423
C60_2 C 0.0540(5) 0.8559(10) 0.5670(2)
loop_
_geom_bond_atom_site_label_1
_geom_bond_atom_site_label_2
_geom_bond_site_symmetry_1
_geom_bond_site_symmetry_2
C56 H45 1_555 1_555
C58 C56 1_555 1_555
H46 C58 1_555 1_555
C59 C58 1_555 1_555
H47 C59 1_555 1_555
C60 C59 1_555 1_555
Zn1 N1 1_555 1_555
H19 C31 1_555 1_555
C32 C31 1_555 1_555
C34 C32 1_555 1_555
H21 C34 1_555 1_555
H22 C34 1_555 1_555
C35 H23 1_555 1_555
C36 H24 1_555 1_555
C37 C36 1_555 1_555
H25 C37 1_555 1_555
H28 C40 1_555 1_555
C41 H29 1_555 1_555
H30 C41 1_555 1_555
C42 H31 1_555 1_555
C44 C41 1_555 1_555
H38 C50 1_555 1_555
C51 H39 1_555 1_555
C52 H40 1_555 1_555
C53 H41 1_555 1_555
C54 C53 1_555 1_555
H42 C54 1_555 1_555
C55 H43 1_555 1_555
H44 C55 1_555 1_555
C57 C55 1_555 1_555
C61 C57 1_555 1_555
H48 C61 1_555 1_555
C66 C67 1_555 1_555
C67 C68 1_555 1_555
C68 H54 1_555 1_555
C69 C68 1_555 1_555
H55 C69 1_555 1_555
N1 C52 1_555 1_555
N2 C52 1_555 1_555
N3 Zn1 1_555 1_555
N17 C34 1_555 1_555
N18 C35 1_555 1_555
O7 Zn1 1_555 1_555
O8 C66 1_555 1_555
Zn6 N18 1_555 1_555
O15 Zn1 1_555 1_555
C35 N17 1_555 1_555
C36 N17 1_555 1_555
C37 N18 1_555 1_555
C40 N5 1_555 1_555
C41 N5 1_555 1_555
C42 C44 1_555 1_555
C50 N3 1_555 1_555
C51 N3 1_555 1_555
C53 N1 1_555 1_555
C54 N2 1_555 1_555
C55 N2 1_555 1_555
C66 O7 1_555 1_555
Zn6 O11 1_555 1_555
H49 C62 1_555 1_555
H50 C62 1_555 1_555
C63 H51 1_555 1_555
C65 C64 1_555 1_555
H53 C65 1_555 1_555
H59 C78 1_555 1_555
C79 C78 1_555 1_555
C81 C79 1_555 1_555
N9 C62 1_555 1_555
N10 C63 1_555 1_555
O11 C81 1_555 1_555
O12 C81 1_555 1_555
Zn8 N10 1_555 1_555
N19 Zn6 1_555 1_555
O14 Zn6 1_555 1_555
C63 N9 1_555 1_555
C64 N10 1_555 1_555
C65 N9 1_555 1_555
C71 C70 1_555 1_555
H56 C71 1_555 1_555
H57 C72 1_555 1_555
C73 C70 1_555 1_555
C74 C83 1_555 1_555
C75 C76 1_555 1_555
C76 C77 1_555 1_555
C77 H58 1_555 1_555
H60 C80 1_555 1_555
C82 C76 1_555 1_555
H61 C82 1_555 1_555
C83 C84 1_555 1_555
C84 H62 1_555 1_555
C85 C84 1_555 1_555
H63 C85 1_555 1_555
C86 C83 1_555 1_555
H64 C86 1_555 1_555
C87 C86 1_555 1_555
H65 C87 1_555 1_555
C88 C85 1_555 1_555
C89 C88 1_555 1_555
N14 C73 1_555 1_555
N15 C73 1_555 1_555
N16 C74 1_555 1_555
O15 C89 1_555 1_555
O10 C89 1_555 1_555
C71 C72 1_555 1_555
C74 N14 1_555 1_555
C75 N15 1_555 1_555
C75 N16 1_555 1_555
C80 C82 1_555 1_555
C87 C88 1_555 1_555
C1 C2 1_555 1_555
C2 C3 1_555 1_555
C3 H1 1_555 1_555
H3 C6 1_555 1_555
C7 C2 1_555 1_555
H4 C7 1_555 1_555
O3 C1 1_555 1_555
O4 C1 1_555 1_555
Zn8 O3 1_555 1_555
C6 C7 1_555 1_555
H19_2 C31_2 1_555 1_555
C32_2 C31_2 1_555 1_555
C34_2 C32_2 1_555 1_555
H21_2 C34_2 1_555 1_555
H22_2 C34_2 1_555 1_555
C35_2 H23_2 1_555 1_555
N17_2 C34_2 1_555 1_555
N18_2 C35_2 1_555 1_555
Zn8 N18_2 1_555 1_555
C35_2 N17_2 1_555 1_555
C1_2 C2_2 1_555 1_555
C2_2 C3_2 1_555 1_555
C3_2 H1_2 1_555 1_555
H3_2 C6_2 1_555 1_555
C7_2 C2_2 1_555 1_555
H4_2 C7_2 1_555 1_555
O14 C1_2 1_555 1_555
O4_2 C1_2 1_555 1_555
C6_2 C7_2 1_555 1_555
H49_2 C62_2 1_555 1_555
H50_2 C62_2 1_555 1_555
C63_2 H51_2 1_555 1_555
C64_2 H52 1_555 1_555
C65_2 C64_2 1_555 1_555
H53_2 C65_2 1_555 1_555
H59_2 C78_2 1_555 1_555
C79_2 C78_2 1_555 1_555
C81_2 C79_2 1_555 1_555
N9_2 C62_2 1_555 1_555
N19 C63_2 1_555 1_555
O11_2 C81_2 1_555 1_555
O12_2 C81_2 1_555 1_555
C63_2 N9_2 1_555 1_555
C64_2 N19 1_555 1_555
C65_2 N9_2 1_555 1_555
Zn2 N6 1_555 1_555
C17 C19 1_555 1_555
C18 H9 1_555 1_555
C19 C18 1_555 1_555
C20 C19 1_555 1_555
H10 C20 1_555 1_555
C21 C20 1_555 1_555
H11 C21 1_555 1_555
C22 C21 1_555 1_555
C23 C22 1_555 1_555
C24 H12 1_555 1_555
C25 C24 1_555 1_555
H13 C25 1_555 1_555
C26 H14 1_555 1_555
C27 H15 1_555 1_555
H16 C27 1_555 1_555
C28 C27 1_555 1_555
C29 C28 1_555 1_555
H17 C29 1_555 1_555
C30 C29 1_555 1_555
H18 C30 1_555 1_555
C33 C28 1_555 1_555
H20 C33 1_555 1_555
C38 H26 1_555 1_555
C39 H27 1_555 1_555
C43 H32 1_555 1_555
H33 C45 1_555 1_555
C46 C45 1_555 1_555
H34 C46 1_555 1_555
C47 C43 1_555 1_555
C48 C47 1_555 1_555
H35 C48 1_555 1_555
H36 C48 1_555 1_555
C49 H37 1_555 1_555
C90 C18 1_555 1_555
H66 C90 1_555 1_555
N4 C48 1_555 1_555
N6 C38 1_555 1_555
N7 Zn2 1_555 1_555
N8 C25 1_555 1_555
O5 C23 1_555 1_555
O6 Zn2 1_555 1_555
O13 Zn2 1_555 1_555
C17 N11 1_555 1_555
C17 N12 1_555 1_555
C22 C90 1_555 1_555
C23 O6 1_555 1_555
C24 N7 1_555 1_555
C26 N7 1_555 1_555
C26 N8 1_555 1_555
C27 N8 1_555 1_555
C39 N6 1_555 1_555
C46 C47 1_555 1_555
C49 N4 1_555 1_555
C5 C4 1_555 1_555
C8 C5 1_555 1_555
C9 C10 1_555 1_555
C10 C11 1_555 1_555
C11 H5 1_555 1_555
C12 C11 1_555 1_555
H6 C12 1_555 1_555
C13 C12 1_555 1_555
C14 C13 1_555 1_555
H7 C14 1_555 1_555
C15 C13 1_555 1_555
C16 C10 1_555 1_555
H8 C16 1_555 1_555
N13 C8 1_555 1_555
O13 C15 1_555 1_555
O2 C15 1_555 1_555
C9 N13 1_555 1_555
C14 C16 1_555 1_555
H13_2 C25_2 1_555 1_555
C27_2 H15_2 1_555 1_555
C28_2 C27_2 1_555 1_555
C29_2 C28_2 1_555 1_555
H17_2 C29_2 1_555 1_555
C30_2 C29_2 1_555 1_555
H18_2 C30_2 1_555 1_555
C33_2 C28_2 1_555 1_555
Zn2_2 N6_2 1_555 1_555
C17_2 C19_2 1_555 1_555
C18_2 H9_2 1_555 1_555
C19_2 C18_2 1_555 1_555
C20_2 C19_2 1_555 1_555
H10_2 C20_2 1_555 1_555
C21_2 C20_2 1_555 1_555
H11_2 C21_2 1_555 1_555
C22_2 C21_2 1_555 1_555
C23_2 C22_2 1_555 1_555
C24_2 H12_2 1_555 1_555
C26_2 H14_2 1_555 1_555
C38_2 H26_2 1_555 1_555
C39_2 H27_2 1_555 1_555
C43_2 H32_2 1_555 1_555
H33_2 C45_2 1_555 1_555
C46_2 C45_2 1_555 1_555
H34_2 C46_2 1_555 1_555
C47_2 C43_2 1_555 1_555
C48_2 C47_2 1_555 1_555
H35_2 C48_2 1_555 1_555
H36_2 C48_2 1_555 1_555
C49_2 H37_2 1_555 1_555
C90_2 C18_2 1_555 1_555
H66_2 C90_2 1_555 1_555
N4_2 C48_2 1_555 1_555
N6_2 C38_2 1_555 1_555
N7_2 Zn2_2 1_555 1_555
O5_2 C23_2 1_555 1_555
O6_2 Zn2_2 1_555 1_555
O13_2 Zn2_2 1_555 1_555
C17_2 N11_2 1_555 1_555
C17_2 N12_2 1_555 1_555
C22_2 C90_2 1_555 1_555
C23_2 O6_2 1_555 1_555
C24_2 N7_2 1_555 1_555
C26_2 N7_2 1_555 1_555
C26_2 N8_2 1_555 1_555
C39_2 N6_2 1_555 1_555
C46_2 C47_2 1_555 1_555
C49_2 N4_2 1_555 1_555
C5_2 C4_2 1_555 1_555
C8_2 C5_2 1_555 1_555
C9_2 C10_2 1_555 1_555
C10_2 C11_2 1_555 1_555
C11_2 H5_2 1_555 1_555
C12_2 C11_2 1_555 1_555
H6_2 C12_2 1_555 1_555
C13_2 C12_2 1_555 1_555
C14_2 C13_2 1_555 1_555
H7_2 C14_2 1_555 1_555
C15_2 C13_2 1_555 1_555
C16_2 C10_2 1_555 1_555
H8_2 C16_2 1_555 1_555
N13_2 C8_2 1_555 1_555
O13_2 C15_2 1_555 1_555
O2_2 C15_2 1_555 1_555
C9_2 N13_2 1_555 1_555
C14_2 C16_2 1_555 1_555
Zn1_2 N1_2 1_555 1_555
C36_2 H24_2 1_555 1_555
C37_2 C36_2 1_555 1_555
H25_2 C37_2 1_555 1_555
H28_2 C40_2 1_555 1_555
C41_2 H29_2 1_555 1_555
H30_2 C41_2 1_555 1_555
C42_2 H31_2 1_555 1_555
C44_2 C41_2 1_555 1_555
H38_2 C50_2 1_555 1_555
C51_2 H39_2 1_555 1_555
C52_2 H40_2 1_555 1_555
C53_2 H41_2 1_555 1_555
C54_2 C53_2 1_555 1_555
H42_2 C54_2 1_555 1_555
C55_2 H43_2 1_555 1_555
H44_2 C55_2 1_555 1_555
C57_2 C55_2 1_555 1_555
C61_2 C57_2 1_555 1_555
H48_2 C61_2 1_555 1_555
C66_2 C67_2 1_555 1_555
C67_2 C68_2 1_555 1_555
C68_2 H54_2 1_555 1_555
C69_2 C68_2 1_555 1_555
H55_2 C69_2 1_555 1_555
N1_2 C52_2 1_555 1_555
N2_2 C52_2 1_555 1_555
N3_2 Zn1_2 1_555 1_555
O7_2 Zn1_2 1_555 1_555
O8_2 C66_2 1_555 1_555
O15_2 Zn1_2 1_555 1_555
C40_2 N5_2 1_555 1_555
C41_2 N5_2 1_555 1_555
C42_2 C44_2 1_555 1_555
C50_2 N3_2 1_555 1_555
C51_2 N3_2 1_555 1_555
C53_2 N1_2 1_555 1_555
C54_2 N2_2 1_555 1_555
C55_2 N2_2 1_555 1_555
C66_2 O7_2 1_555 1_555
C71_2 C70_2 1_555 1_555
H56_2 C71_2 1_555 1_555
H57_2 C72_2 1_555 1_555
C73_2 C70_2 1_555 1_555
C74_2 C83_2 1_555 1_555
C75_2 C76_2 1_555 1_555
C76_2 C77_2 1_555 1_555
C77_2 H58_2 1_555 1_555
H60_2 C80_2 1_555 1_555
C82_2 C76_2 1_555 1_555
H61_2 C82_2 1_555 1_555
C83_2 C84_2 1_555 1_555
C84_2 H62_2 1_555 1_555
C85_2 C84_2 1_555 1_555
H63_2 C85_2 1_555 1_555
C86_2 C83_2 1_555 1_555
H64_2 C86_2 1_555 1_555
C87_2 C86_2 1_555 1_555
H65_2 C87_2 1_555 1_555
C88_2 C85_2 1_555 1_555
C89_2 C88_2 1_555 1_555
N14_2 C73_2 1_555 1_555
N15_2 C73_2 1_555 1_555
N16_2 C74_2 1_555 1_555
O15_2 C89_2 1_555 1_555
O10_2 C89_2 1_555 1_555
C71_2 C72_2 1_555 1_555
C74_2 N14_2 1_555 1_555
C75_2 N15_2 1_555 1_555
C75_2 N16_2 1_555 1_555
C80_2 C82_2 1_555 1_555
C87_2 C88_2 1_555 1_555
C56_2 H45_2 1_555 1_555
C58_2 C56_2 1_555 1_555
H46_2 C58_2 1_555 1_555
C59_2 C58_2 1_555 1_555
H47_2 C59_2 1_555 1_555
C60_2 C59_2 1_555 1_555

#END
