
###############################################################################
#
# This file contains modified crystal structure data generated from the
# MOF subset of the Cambridge Structural Database (CSD) v543 
# hosted by the Cambridge Crystallographic Data Centre (CCDC).
#
# This work is licensed under the Creative Commons
# Attribution-NonCommercial-ShareAlike 4.0 International License.
# To view a copy of this license, visit
# http://creativecommons.org/licenses/by-nc-sa/4.0/
# or send a letter to
# Creative Commons, PO Box 1866, Mountain View, CA 94042, USA.
#
# CIF created using the CSD Python API on 29 September 2022
# The structure has been converted into the P1 space group
# The structure has a 3D framework
# The original CSD entry DOYBAV is in the hexagonal crystal system
# The original CSD entry DOYBAV is in a Sohncke space group
# The framework has been calculated to contain at least 10.0% void space
# The void calculation uses a probe of radius 1.32A, grid spacing 0.4
#
###############################################################################

data_DOYBAV
_chemical_formula_moiety         '(C216 H180 Cd12 N34 O60)n'
_symmetry_cell_setting           triclinic
_symmetry_space_group_name_H-M   'P 1'
_symmetry_Int_Tables_number      1
_space_group_name_Hall           'P 1'
loop_
_symmetry_equiv_pos_site_id
_symmetry_equiv_pos_as_xyz
1 x,y,z
_cell_length_a                   11.5693(10)
_cell_length_b                   11.5693(10)
_cell_length_c                   56.235(10)
_cell_angle_alpha                90
_cell_angle_beta                 90
_cell_angle_gamma                120
_cell_volume                     6518.56
loop_
_atom_site_label
_atom_site_type_symbol
_atom_site_fract_x
_atom_site_fract_y
_atom_site_fract_z
O2 O 0.0779(3) 0.2538(3) 0.50599(5)
O5 O 0.0420(3) 0.5047(3) 0.51517(5)
H1 H 0.0517 0.4376 0.5127
H2 H 0.0034 0.5501 0.5176
N1 N 0.0872(4) 0.3641(4) 0.55997(6)
N2 N 0.4273(4) 0.5865(4) 0.60173(6)
H3 H 0.501(3) 0.608(5) 0.5943(7)
N3 N 0.5458(4) 0.7785(4) 0.66790(6)
C1 C 0.2117(5) 0.4207(5) 0.55156(8)
H4 H 0.2234 0.4109 0.5351
C2 C 0.3238(4) 0.4923(5) 0.56526(8)
H5 H 0.4100 0.5296 0.5583
C3 C 0.3100(4) 0.5101(4) 0.58970(7)
C4 C 0.1801(5) 0.4468(5) 0.59856(7)
H6 H 0.1649 0.4511 0.6151
C5 C 0.0740(5) 0.3782(5) 0.58342(7)
C6 C 0.4155(5) 0.7079(5) 0.66233(8)
H8 H 0.3531 0.7063 0.6735
C7 C 0.3670(5) 0.6380(5) 0.64155(7)
H9 H 0.2736 0.5874 0.6388
C8 C 0.4570(4) 0.6418(4) 0.62435(7)
C9 C 0.5921(4) 0.7137(5) 0.63028(8)
H10 H 0.6572 0.7175 0.6195
C10 C 0.6307(5) 0.7788(5) 0.65168(8)
H11 H 0.7234 0.8270 0.6552
C15 C 0.3141(5) 0.0624(6) 0.50490(9)
H14 H 0.4068 0.1054 0.5084
C16 C 0.2423(5) 0.1268(5) 0.50981(8)
H15 H 0.2866 0.2141 0.5164
C17 C 0.1063(4) 0.0641(5) 0.50513(7)
C18 C 0.0333(4) 0.1351(4) 0.51234(7)
Cd3 Cd 0.63669(4) 0.92350(3) 0.698832(5)
Cd1 Cd 0.92350(3) 0.28681(3) 0.532165(5)
O1 O 0.9324(3) 0.0761(3) 0.52591(5)
O3 O 0.7495(3) 0.1878(3) 0.56049(5)
O4 O 0.8010(4) 0.3958(3) 0.55322(6)
H7 H 0.9865 0.3385 0.5899
C11 C 0.7270(5) 0.2845(4) 0.56223(6)
C12 C 0.6001(4) 0.2589(4) 0.57401(7)
C13 C 0.4793(5) 0.1587(5) 0.56537(8)
H12 H 0.4790 0.1024 0.5531
C14 C 0.3580(5) 0.1382(5) 0.57425(9)
H13 H 0.2762 0.0693 0.5680
Cd4 Cd 0.92350(3) 0.63669(4) 0.634502(5)
Cd5 Cd 0.28681(3) 0.36331(4) 0.365498(5)
O8 O 0.7495(3) 0.5617(4) 0.60618(5)
O10 O 0.8010(4) 0.4052(5) 0.61345(6)
N4 N 0.3641(4) 0.2769(6) 0.39330(6)
N6 N 0.5865(4) 0.1592(6) 0.43506(6)
H18 H 0.608(5) 0.107(6) 0.4276(7)
N7 N 0.7785(4) 0.2327(6) 0.50123(6)
C19 C 0.4207(5) 0.2090(7) 0.38489(8)
H19 H 0.4109 0.1875 0.3684
C20 C 0.4923(5) 0.1685(6) 0.39859(8)
H20 H 0.5296 0.1196 0.3916
C21 C 0.5101(4) 0.2001(6) 0.42303(7)
C22 C 0.4468(5) 0.2667(7) 0.43189(7)
H21 H 0.4511 0.2862 0.4484
C23 C 0.3782(5) 0.3042(7) 0.41675(7)
H22 H 0.3385 0.3520 0.4232
C24 C 0.7079(5) 0.2924(7) 0.49566(8)
H23 H 0.7063 0.3532 0.5068
C25 C 0.6380(5) 0.2710(7) 0.47488(7)
H24 H 0.5874 0.3138 0.4721
C26 C 0.6418(4) 0.1848(6) 0.45768(7)
C27 C 0.7137(5) 0.1216(6) 0.46361(8)
H25 H 0.7175 0.0603 0.4528
C28 C 0.7788(5) 0.1481(7) 0.48501(8)
H26 H 0.8270 0.1036 0.4885
C29 C 0.7270(5) 0.4425(6) 0.60444(6)
C30 C 0.6001(4) 0.3412(6) 0.59266(7)
C31 C 0.4793(5) 0.3206(7) 0.60130(8)
H27 H 0.4790 0.3766 0.6136
C32 C 0.3580(5) 0.2198(7) 0.59242(9)
H28 H 0.2762 0.2069 0.5987
Cd2 Cd 0.63669(4) 0.71319(3) 0.467835(5)
O6 O 0.8563(4) 0.9239(3) 0.47409(5)
O7 O 0.8241(4) 0.7462(3) 0.49401(5)
O9 O 0.5617(4) 0.8122(3) 0.43951(5)
O11 O 0.4052(5) 0.6042(3) 0.44678(6)
O12 O 0.5373(4) 0.4953(3) 0.48483(5)
H16 H 0.6141 0.5624 0.4873
H17 H 0.4533 0.4499 0.4824
N5 N 0.7231(6) 0.6359(4) 0.44003(6)
N8 N 0.5458(4) 0.7673(6) 0.49877(6)
C36 C 0.8982(6) 0.8649(4) 0.48766(7)
O7_2 O 0.2538(3) 0.0779(5) 0.82734(5)
O12_2 O 0.5047(3) 0.0420(5) 0.81816(5)
H16_2 H 0.4376 0.0517 0.8206
H17_2 H 0.5501 0.0034 0.8157
N5_2 N 0.3641(4) 0.0872(7) 0.77336(6)
C33 C 0.0624(6) 0.3141(10) 0.82843(9)
H29 H 0.1054 0.4068 0.8249
C34 C 0.1268(5) 0.2423(9) 0.82352(8)
H30 H 0.2141 0.2866 0.8169
C35 C 0.0641(5) 0.1063(8) 0.82820(7)
C36_2 C 0.1351(4) 0.0333(7) 0.82099(7)
Cd2_2 Cd 0.28681(3) 0.92350(5) 0.801168(5)
O6_2 O 0.0761(3) 0.9324(5) 0.80742(5)
O9_2 O 0.1878(3) 0.7495(5) 0.77284(5)
O11_2 O 0.3958(3) 0.8010(6) 0.78011(6)
N8_2 N 0.2327(6) 0.7785(7) 0.83210(6)
N3_2 N 0.2215(4) 0.7673(6) 0.00123(6)
H8_2 H 0.2937 0.6468 0.0068
Cd3_2 Cd 0.07650(3) 0.71319(5) 0.032165(5)
Cd1_2 Cd 0.71319(3) 0.63669(4) 0.865498(5)
O1_2 O 0.9239(3) 0.8563(4) 0.85924(5)
O2_2 O 0.7462(3) 0.8241(4) 0.83932(5)
O3_2 O 0.8122(3) 0.5617(4) 0.89382(5)
O4_2 O 0.6042(3) 0.4052(5) 0.88655(6)
O5_2 O 0.4953(3) 0.5373(4) 0.84850(5)
H1_2 H 0.5624 0.6141 0.8460
H2_2 H 0.4499 0.4533 0.8509
N1_2 N 0.6359(4) 0.7231(6) 0.89330(6)
N2_2 N 0.4135(4) 0.8408(6) 0.93506(6)
H3_2 H 0.392(5) 0.893(6) 0.9276(7)
C1_2 C 0.5793(5) 0.7910(7) 0.88489(8)
H4_2 H 0.5891 0.8125 0.8684
C2_2 C 0.5077(5) 0.8315(6) 0.89859(8)
H5_2 H 0.4704 0.8804 0.8916
C3_2 C 0.4899(4) 0.7999(6) 0.92303(7)
C4_2 C 0.5532(5) 0.7333(7) 0.93189(7)
H6_2 H 0.5489 0.7138 0.9484
C5_2 C 0.6218(5) 0.6958(7) 0.91675(7)
H7_2 H 0.6615 0.6480 0.9232
C6_2 C 0.2921(5) 0.7076(7) 0.99566(8)
C7_2 C 0.3620(5) 0.7290(7) 0.97488(7)
H9_2 H 0.4126 0.6862 0.9721
C8_2 C 0.3582(4) 0.8152(6) 0.95768(7)
C9_2 C 0.2863(5) 0.8784(6) 0.96361(8)
H10_2 H 0.2825 0.9397 0.9528
C10_2 C 0.2212(5) 0.8519(7) 0.98501(8)
H11_2 H 0.1730 0.8964 0.9885
C11_2 C 0.7155(4) 0.4425(6) 0.89556(6)
C12_2 C 0.7411(4) 0.3412(6) 0.90734(7)
C13_2 C 0.8413(5) 0.3206(7) 0.89870(8)
H12_2 H 0.8976 0.3766 0.8864
C14_2 C 0.8618(5) 0.2198(7) 0.90758(9)
H13_2 H 0.9307 0.2069 0.9013
C18_2 C 0.8649(4) 0.8982(6) 0.84567(7)
Cd4_2 Cd 0.36331(4) 0.28681(5) 0.967835(5)
O8_2 O 0.4383(4) 0.1878(5) 0.93951(5)
O10_2 O 0.5948(5) 0.3958(6) 0.94678(6)
N4_2 N 0.7231(6) 0.0872(7) 0.72664(6)
N6_2 N 0.8408(6) 0.4273(7) 0.76840(6)
H18_2 H 0.893(6) 0.501(8) 0.7610(7)
N7_2 N 0.7673(6) 0.5458(7) 0.83457(6)
C19_2 C 0.7910(7) 0.2117(9) 0.71823(8)
H19_2 H 0.8125 0.2234 0.7018
C20_2 C 0.8315(6) 0.3238(8) 0.73193(8)
H20_2 H 0.8804 0.4100 0.7250
C21_2 C 0.7999(6) 0.3100(7) 0.75637(7)
C22_2 C 0.7333(7) 0.1801(9) 0.76523(7)
H21_2 H 0.7138 0.1649 0.7818
C23_2 C 0.6958(7) 0.0740(9) 0.75009(7)
C24_2 C 0.7076(7) 0.4155(9) 0.82900(8)
H23_2 H 0.6468 0.3531 0.8402
C25_2 C 0.7290(7) 0.3670(9) 0.80822(7)
H24_2 H 0.6862 0.2736 0.8055
C26_2 C 0.8152(6) 0.4570(7) 0.79102(7)
C27_2 C 0.8784(6) 0.5921(8) 0.79695(8)
H25_2 H 0.9397 0.6572 0.7862
C28_2 C 0.8519(7) 0.6307(9) 0.81835(8)
H26_2 H 0.8964 0.7234 0.8219
C29_2 C 0.5575(6) 0.2845(8) 0.93777(6)
C30_2 C 0.6588(6) 0.2589(7) 0.92599(7)
C31_2 C 0.6794(7) 0.1587(9) 0.93463(8)
H27_2 H 0.6234 0.1024 0.9469
C32_2 C 0.7802(7) 0.1382(9) 0.92575(9)
H28_2 H 0.7931 0.0693 0.9320
H22_2 H 0.6480 0.9865 0.7566
H22_3 H 0.0135 0.6615 0.0899
Cd1_3 Cd 0.36331(4) 0.07650(3) 0.198832(5)
O1_3 O 0.1437(4) 0.0676(3) 0.19258(5)
O3_3 O 0.4383(4) 0.2505(3) 0.22716(5)
O4_3 O 0.5948(5) 0.1990(4) 0.21989(6)
H7_3 H 0.3520 0.0135 0.2566
C11_3 C 0.5575(6) 0.2730(5) 0.22890(6)
C12_3 C 0.6588(6) 0.3999(4) 0.24068(7)
C13_3 C 0.6794(7) 0.5207(5) 0.23204(8)
H12_3 H 0.6234 0.5210 0.2198
C14_3 C 0.7802(7) 0.6420(5) 0.24092(9)
H13_3 H 0.7931 0.7238 0.2347
Cd2_3 Cd 0.07650(5) 0.36331(4) 0.134502(5)
Cd4_3 Cd 0.71319(5) 0.07650(3) 0.301168(5)
O6_3 O 0.0676(5) 0.1437(4) 0.14076(5)
O8_3 O 0.8122(5) 0.2505(3) 0.27284(5)
O9_3 O 0.2505(5) 0.4383(4) 0.10618(5)
O10_3 O 0.6042(6) 0.1990(4) 0.28011(6)
O11_3 O 0.1990(6) 0.5948(5) 0.11345(6)
N4_3 N 0.9128(7) 0.6359(4) 0.05997(6)
N6_3 N 0.5727(7) 0.4135(4) 0.10173(6)
H18_3 H 0.499(8) 0.392(5) 0.0943(7)
N7_3 N 0.4542(7) 0.2215(4) 0.16790(6)
N8_3 N 0.2215(7) 0.4542(4) 0.16543(6)
C19_3 C 0.7883(9) 0.5793(5) 0.05156(8)
H19_3 H 0.7766 0.5891 0.0351
C20_3 C 0.6762(8) 0.5077(5) 0.06526(8)
H20_3 H 0.5900 0.4704 0.0583
C21_3 C 0.6900(7) 0.4899(4) 0.08970(7)
C22_3 C 0.8199(9) 0.5532(5) 0.09856(7)
H21_3 H 0.8351 0.5489 0.1151
C23_3 C 0.9260(9) 0.6218(5) 0.08342(7)
C24_3 C 0.5845(9) 0.2921(5) 0.16233(8)
H23_3 H 0.6469 0.2937 0.1735
C25_3 C 0.6330(9) 0.3620(5) 0.14155(7)
H24_3 H 0.7264 0.4126 0.1388
C26_3 C 0.5430(7) 0.3582(4) 0.12435(7)
C27_3 C 0.4079(8) 0.2863(5) 0.13028(8)
H25_3 H 0.3428 0.2825 0.1195
C28_3 C 0.3693(9) 0.2212(5) 0.15168(8)
H26_3 H 0.2766 0.1730 0.1552
C29_3 C 0.7155(8) 0.2730(5) 0.27110(6)
C30_3 C 0.7411(7) 0.3999(4) 0.25932(7)
C31_3 C 0.8413(9) 0.5207(5) 0.26796(8)
H27_3 H 0.8976 0.5210 0.2802
C32_3 C 0.8618(9) 0.6420(5) 0.25908(9)
H28_3 H 0.9307 0.7238 0.2653
O2_3 O 0.1759(4) 0.9221(3) 0.17266(5)
O5_3 O 0.4627(4) 0.9580(3) 0.18184(5)
H1_3 H 0.3859 0.9483 0.1794
H2_3 H 0.5467 0.9966 0.1843
N1_3 N 0.2769(6) 0.9128(4) 0.22664(6)
N2_3 N 0.1592(6) 0.5727(4) 0.26840(6)
H3_3 H 0.107(6) 0.499(3) 0.2610(7)
N3_3 N 0.2327(6) 0.4542(4) 0.33457(6)
C1_3 C 0.2090(7) 0.7883(5) 0.21823(8)
H4_3 H 0.1875 0.7766 0.2018
C2_3 C 0.1685(6) 0.6762(4) 0.23193(8)
H5_3 H 0.1196 0.5900 0.2250
C3_3 C 0.2001(6) 0.6900(4) 0.25637(7)
C4_3 C 0.2667(7) 0.8199(5) 0.26523(7)
H6_3 H 0.2862 0.8351 0.2818
C5_3 C 0.3042(7) 0.9260(5) 0.25009(7)
C6_3 C 0.2924(7) 0.5845(5) 0.32900(8)
H8_3 H 0.3532 0.6469 0.3402
C7_3 C 0.2710(7) 0.6330(5) 0.30822(7)
H9_3 H 0.3138 0.7264 0.3055
C8_3 C 0.1848(6) 0.5430(4) 0.29102(7)
C9_3 C 0.1216(6) 0.4079(4) 0.29695(8)
H10_3 H 0.0603 0.3428 0.2862
C10_3 C 0.1481(7) 0.3693(5) 0.31835(8)
H11_3 H 0.1036 0.2766 0.3219
C18_3 C 0.1018(6) 0.9667(4) 0.17901(7)
O6_4 O 0.1437(4) 0.0761(3) 0.97409(5)
O7_3 O 0.1759(4) 0.2538(3) 0.99401(5)
O12_3 O 0.4627(4) 0.5047(3) 0.98483(5)
H16_3 H 0.3859 0.4376 0.9873
H17_3 H 0.5467 0.5501 0.9824
N5_3 N 0.2769(6) 0.3641(4) 0.94003(6)
N8_4 N 0.4542(4) 0.2327(6) 0.99877(6)
C36_3 C 0.1018(6) 0.1351(4) 0.98766(7)
O1_4 O 0.0676(3) 0.9239(3) 0.02591(5)
O3_4 O 0.2505(3) 0.8122(3) 0.06049(5)
O4_4 O 0.1990(4) 0.6042(3) 0.05322(6)
C11_4 C 0.2730(5) 0.7155(4) 0.06223(6)
C12_4 C 0.3999(4) 0.7411(4) 0.07401(7)
C13_4 C 0.5207(5) 0.8413(5) 0.06537(8)
H12_4 H 0.5210 0.8976 0.0531
C14_4 C 0.6420(5) 0.8618(5) 0.07425(9)
H13_4 H 0.7238 0.9307 0.0680
C29_4 C 0.2730(5) 0.5575(6) 0.10444(6)
C30_4 C 0.3999(4) 0.6588(6) 0.09266(7)
C31_4 C 0.5207(5) 0.6794(7) 0.10130(8)
H27_4 H 0.5210 0.6234 0.1136
C32_4 C 0.6420(5) 0.7802(7) 0.09242(9)
H28_4 H 0.7238 0.7931 0.0987
O2_4 O 0.9221(3) 0.7462(3) 0.00599(5)
O5_4 O 0.9580(3) 0.4953(3) 0.01517(5)
H1_4 H 0.9483 0.5624 0.0127
H2_4 H 0.9966 0.4499 0.0176
C15_2 C 0.6859(5) 0.9376(6) 0.00490(9)
H14_2 H 0.5932 0.8946 0.0084
C16_2 C 0.7577(5) 0.8732(5) 0.00981(8)
H15_2 H 0.7134 0.7859 0.0164
C17_2 C 0.8937(4) 0.9359(5) 0.00513(7)
C18_4 C 0.9667(4) 0.8649(4) 0.01234(7)
O1_5 O 0.0761(3) 0.1437(4) 0.35924(5)
O2_5 O 0.2538(3) 0.1759(4) 0.33932(5)
O3_5 O 0.1878(3) 0.4383(4) 0.39382(5)
O4_5 O 0.3958(3) 0.5948(5) 0.38655(6)
O5_5 O 0.5047(3) 0.4627(4) 0.34850(5)
H1_5 H 0.4376 0.3859 0.3460
H2_5 H 0.5501 0.5467 0.3509
C11_5 C 0.2845(4) 0.5575(6) 0.39556(6)
C12_5 C 0.2589(4) 0.6588(6) 0.40734(7)
C13_5 C 0.1587(5) 0.6794(7) 0.39870(8)
H12_5 H 0.1024 0.6234 0.3864
C14_5 C 0.1382(5) 0.7802(7) 0.40758(9)
H13_5 H 0.0693 0.7931 0.4013
C18_5 C 0.1351(4) 0.1018(6) 0.34567(7)
C29_5 C 0.4425(6) 0.7155(8) 0.43777(6)
C30_5 C 0.3412(6) 0.7411(7) 0.42599(7)
C31_5 C 0.3206(7) 0.8413(9) 0.43463(8)
H27_5 H 0.3766 0.8976 0.4469
C32_5 C 0.2198(7) 0.8618(9) 0.42575(9)
H28_5 H 0.2069 0.9307 0.4320
O6_5 O 0.9239(3) 0.0676(5) 0.30742(5)
N8_5 N 0.7673(6) 0.2215(7) 0.33210(6)
O7_4 O 0.7462(3) 0.9221(5) 0.32734(5)
O12_4 O 0.4953(3) 0.9580(5) 0.31816(5)
H16_4 H 0.5624 0.9483 0.3206
H17_4 H 0.4499 0.9966 0.3157
N5_4 N 0.6359(4) 0.9128(7) 0.27336(6)
C33_2 C 0.9376(6) 0.6859(10) 0.32843(9)
H29_2 H 0.8946 0.5932 0.3249
C34_2 C 0.8732(5) 0.7577(9) 0.32352(8)
H30_2 H 0.7859 0.7134 0.3169
C35_2 C 0.9359(5) 0.8937(8) 0.32820(7)
C36_4 C 0.8649(4) 0.9667(7) 0.32099(7)
O7_5 O 0.0779(5) 0.8241(4) 0.66068(5)
O12_5 O 0.0420(5) 0.5373(4) 0.65150(5)
H16_5 H 0.0517 0.6141 0.6540
H17_5 H 0.0034 0.4533 0.6491
N5_5 N 0.0872(7) 0.7231(6) 0.60670(6)
C36_5 C 0.0333(7) 0.8982(6) 0.65433(7)
O2_6 O 0.8241(4) 0.0779(3) 0.67266(5)
O5_6 O 0.5373(4) 0.0420(3) 0.68184(5)
H1_6 H 0.6141 0.0517 0.6794
H2_6 H 0.4533 0.0034 0.6843
C18_6 C 0.8982(6) 0.0333(4) 0.67901(7)
O1_6 O 0.8563(4) 0.9324(3) 0.69258(5)
O3_6 O 0.5617(4) 0.7495(3) 0.72716(5)
O4_6 O 0.4052(5) 0.8010(4) 0.71989(6)
C11_6 C 0.4425(6) 0.7270(5) 0.72890(6)
C12_6 C 0.3412(6) 0.6001(4) 0.74068(7)
C13_6 C 0.3206(7) 0.4793(5) 0.73204(8)
H12_6 H 0.3766 0.4790 0.7198
C14_6 C 0.2198(7) 0.3580(5) 0.74092(9)
H13_6 H 0.2069 0.2762 0.7347
O6_6 O 0.9324(5) 0.8563(4) 0.64076(5)
N8_6 N 0.7785(7) 0.5458(4) 0.66543(6)
C29_6 C 0.2845(8) 0.7270(5) 0.77110(6)
C30_6 C 0.2589(7) 0.6001(4) 0.75932(7)
C31_6 C 0.1587(9) 0.4793(5) 0.76796(8)
H27_6 H 0.1024 0.4790 0.7802
C32_6 C 0.1382(9) 0.3580(5) 0.75908(9)
H28_6 H 0.0693 0.2762 0.7653
N2_4 N 0.5865(4) 0.4273(4) 0.73160(6)
H3_4 H 0.608(5) 0.501(3) 0.7390(7)
C1_4 C 0.4207(5) 0.2117(5) 0.78177(8)
H4_4 H 0.4109 0.2234 0.7982
C2_4 C 0.4923(5) 0.3238(4) 0.76807(8)
H5_4 H 0.5296 0.4100 0.7750
C3_4 C 0.5101(4) 0.3100(4) 0.74363(7)
C4_4 C 0.4468(5) 0.1801(5) 0.73477(7)
H6_4 H 0.4511 0.1649 0.7182
C5_4 C 0.3782(5) 0.0740(5) 0.74991(7)
C6_4 C 0.7079(5) 0.4155(5) 0.67100(8)
H8_4 H 0.7063 0.3531 0.6598
C7_4 C 0.6380(5) 0.3670(5) 0.69178(7)
H9_4 H 0.5874 0.2736 0.6945
C8_4 C 0.6418(4) 0.4570(4) 0.70898(7)
C9_4 C 0.7137(5) 0.5921(4) 0.70305(8)
H10_4 H 0.7175 0.6572 0.7138
C10_4 C 0.7788(5) 0.6307(5) 0.68165(8)
H11_4 H 0.8270 0.7234 0.6781
H7_4 H 0.3385 0.9865 0.7434
N6_4 N 0.1592(6) 0.5865(4) 0.89827(6)
H18_4 H 0.107(6) 0.608(5) 0.9057(7)
C19_4 C 0.2090(7) 0.4207(5) 0.94844(8)
H19_4 H 0.1875 0.4109 0.9649
C20_4 C 0.1685(6) 0.4923(5) 0.93474(8)
H20_4 H 0.1196 0.5296 0.9417
C21_4 C 0.2001(6) 0.5101(4) 0.91030(7)
C22_4 C 0.2667(7) 0.4468(5) 0.90144(7)
H21_4 H 0.2862 0.4511 0.8849
C23_4 C 0.3042(7) 0.3782(5) 0.91658(7)
H22_4 H 0.3520 0.3385 0.9101
C24_4 C 0.2924(7) 0.7079(5) 0.83767(8)
H23_4 H 0.3532 0.7063 0.8265
C25_4 C 0.2710(7) 0.6380(5) 0.85845(7)
H24_4 H 0.3138 0.5874 0.8612
C26_4 C 0.1848(6) 0.6418(4) 0.87565(7)
C27_4 C 0.1216(6) 0.7137(5) 0.86972(8)
H25_4 H 0.0603 0.7175 0.8805
C28_4 C 0.1481(7) 0.7788(5) 0.84832(8)
H26_4 H 0.1036 0.8270 0.8448
N2_5 N 0.8408(6) 0.4135(4) 0.39827(6)
H3_5 H 0.893(6) 0.392(5) 0.4057(7)
C1_5 C 0.7910(7) 0.5793(5) 0.44844(8)
H4_5 H 0.8125 0.5891 0.4649
C2_5 C 0.8315(6) 0.5077(5) 0.43474(8)
H5_5 H 0.8804 0.4704 0.4417
C3_5 C 0.7999(6) 0.4899(4) 0.41030(7)
C4_5 C 0.7333(7) 0.5532(5) 0.40144(7)
H6_5 H 0.7138 0.5489 0.3849
C5_5 C 0.6958(7) 0.6218(5) 0.41658(7)
H7_5 H 0.6480 0.6615 0.4101
C6_5 C 0.7076(7) 0.2921(5) 0.33767(8)
H8_5 H 0.6468 0.2937 0.3265
C7_5 C 0.7290(7) 0.3620(5) 0.35845(7)
H9_5 H 0.6862 0.4126 0.3612
C8_5 C 0.8152(6) 0.3582(4) 0.37565(7)
C9_5 C 0.8784(6) 0.2863(5) 0.36972(8)
H10_5 H 0.9397 0.2825 0.3805
C10_5 C 0.8519(7) 0.2212(5) 0.34832(8)
H11_5 H 0.8964 0.1730 0.3448
N6_5 N 0.4273(7) 0.8408(6) 0.56494(6)
H18_5 H 0.501(8) 0.893(6) 0.5724(7)
C19_5 C 0.2117(9) 0.7910(7) 0.61511(8)
H19_5 H 0.2234 0.8125 0.6316
C20_5 C 0.3238(8) 0.8315(6) 0.60141(8)
H20_5 H 0.4100 0.8804 0.6084
C21_5 C 0.3100(7) 0.7999(6) 0.57697(7)
C22_5 C 0.1801(9) 0.7333(7) 0.56811(7)
H21_5 H 0.1649 0.7138 0.5516
C23_5 C 0.0740(9) 0.6958(7) 0.58325(7)
C24_5 C 0.4155(9) 0.7076(7) 0.50434(8)
H23_5 H 0.3531 0.6468 0.4932
C25_5 C 0.3670(9) 0.7290(7) 0.52512(7)
H24_5 H 0.2736 0.6862 0.5279
C26_5 C 0.4570(7) 0.8152(6) 0.54232(7)
C27_5 C 0.5921(8) 0.8784(6) 0.53639(8)
H25_5 H 0.6572 0.9397 0.5472
C28_5 C 0.6307(9) 0.8519(7) 0.51499(8)
H26_5 H 0.7234 0.8964 0.5115
H22_5 H 0.9865 0.6480 0.5768
H22_6 H 0.6615 0.0135 0.2434
H7_6 H 0.0135 0.3520 0.0768
N6_6 N 0.4135(4) 0.5727(7) 0.23160(6)
H18_6 H 0.392(5) 0.499(8) 0.2390(7)
C19_6 C 0.5793(5) 0.7883(9) 0.28177(8)
H19_6 H 0.5891 0.7766 0.2982
C20_6 C 0.5077(5) 0.6762(8) 0.26807(8)
H20_6 H 0.4704 0.5900 0.2750
C21_6 C 0.4899(4) 0.6900(7) 0.24363(7)
C22_6 C 0.5532(5) 0.8199(9) 0.23477(7)
H21_6 H 0.5489 0.8351 0.2182
C23_6 C 0.6218(5) 0.9260(9) 0.24991(7)
C24_6 C 0.2921(5) 0.5845(9) 0.17100(8)
H23_6 H 0.2937 0.6469 0.1598
C25_6 C 0.3620(5) 0.6330(9) 0.19178(7)
H24_6 H 0.4126 0.7264 0.1945
C26_6 C 0.3582(4) 0.5430(7) 0.20898(7)
C27_6 C 0.2863(5) 0.4079(8) 0.20305(8)
H25_6 H 0.2825 0.3428 0.2138
C28_6 C 0.2212(5) 0.3693(9) 0.18165(8)
H26_6 H 0.1730 0.2766 0.1781
H8_6 H 0.6469 0.3532 0.9932
C33_3 C 0.2517(8) 0.9376(6) 0.49510(9)
H29_3 H 0.3014 0.8946 0.4916
C34_3 C 0.1155(7) 0.8732(5) 0.49019(8)
H30_3 H 0.0725 0.7859 0.4836
C35_3 C 0.0422(6) 0.9359(5) 0.49487(7)
C15_3 C 0.9376(6) 0.2517(8) 0.83823(9)
H14_3 H 0.8946 0.3014 0.8417
C16_3 C 0.8732(5) 0.1155(7) 0.84314(8)
H15_3 H 0.7859 0.0725 0.8497
C17_3 C 0.9359(5) 0.0422(6) 0.83846(7)
O7_6 O 0.9221(5) 0.1759(4) 0.16068(5)
O12_6 O 0.9580(5) 0.4627(4) 0.15150(5)
H16_6 H 0.9483 0.3859 0.1540
H17_6 H 0.9966 0.5467 0.1491
N5_6 N 0.9128(7) 0.2769(6) 0.10670(6)
C36_6 C 0.9667(7) 0.1018(6) 0.15433(7)
N2_6 N 0.5727(4) 0.1592(6) 0.06494(6)
H3_6 H 0.499(3) 0.107(6) 0.0724(7)
C1_6 C 0.7883(5) 0.2090(7) 0.11511(8)
H4_6 H 0.7766 0.1875 0.1316
C2_6 C 0.6762(4) 0.1685(6) 0.10141(8)
H5_6 H 0.5900 0.1196 0.1084
C3_6 C 0.6900(4) 0.2001(6) 0.07697(7)
C4_6 C 0.8199(5) 0.2667(7) 0.06811(7)
H6_6 H 0.8351 0.2862 0.0516
C5_6 C 0.9260(5) 0.3042(7) 0.08325(7)
C6_6 C 0.5845(5) 0.2924(7) 0.00434(8)
C7_6 C 0.6330(5) 0.2710(7) 0.02512(7)
H9_6 H 0.7264 0.3138 0.0279
C8_6 C 0.5430(4) 0.1848(6) 0.04232(7)
C9_6 C 0.4079(4) 0.1216(6) 0.03639(8)
H10_6 H 0.3428 0.0603 0.0472
C10_6 C 0.3693(5) 0.1481(7) 0.01499(8)
H11_6 H 0.2766 0.1036 0.0115
C15_4 C 0.7483(8) 0.6859(5) 0.17157(9)
H14_4 H 0.6986 0.5932 0.1751
C16_4 C 0.8845(7) 0.7577(5) 0.17648(8)
H15_4 H 0.9275 0.7134 0.1831
C17_4 C 0.9578(6) 0.8937(4) 0.17180(7)
C33_4 C 0.6859(10) 0.7483(8) 0.16177(9)
H29_4 H 0.5932 0.6986 0.1583
C34_4 C 0.7577(9) 0.8845(7) 0.15686(8)
H30_4 H 0.7134 0.9275 0.1503
C35_4 C 0.8937(8) 0.9578(6) 0.16154(7)
C33_5 C 0.7483(8) 0.0624(6) 0.99510(9)
H29_5 H 0.6986 0.1054 0.9916
C34_5 C 0.8845(7) 0.1268(5) 0.99019(8)
H30_5 H 0.9275 0.2141 0.9836
C35_5 C 0.9578(6) 0.0641(5) 0.99487(7)
C15_5 C 0.0624(6) 0.7483(8) 0.33823(9)
H14_5 H 0.1054 0.6986 0.3417
C16_5 C 0.1268(5) 0.8845(7) 0.34314(8)
H15_5 H 0.2141 0.9275 0.3497
C17_5 C 0.0641(5) 0.9578(6) 0.33846(7)
C15_6 C 0.2517(8) 0.3141(5) 0.67157(9)
H14_6 H 0.3014 0.4068 0.6751
C16_6 C 0.1155(7) 0.2423(5) 0.67648(8)
H15_6 H 0.0725 0.2866 0.6831
C17_6 C 0.0422(6) 0.1063(4) 0.67180(7)
C33_6 C 0.3141(10) 0.2517(8) 0.66177(9)
H29_6 H 0.4068 0.3014 0.6583
C34_6 C 0.2423(9) 0.1155(7) 0.65686(8)
H30_6 H 0.2866 0.0725 0.6503
C35_6 C 0.1063(8) 0.0422(6) 0.66154(7)
loop_
_geom_bond_atom_site_label_1
_geom_bond_atom_site_label_2
_geom_bond_site_symmetry_1
_geom_bond_site_symmetry_2
H1 O5 1_555 1_555
H2 O5 1_555 1_555
N2 H3 1_555 1_555
N3 C6 1_555 1_555
C1 N1 1_555 1_555
H4 C1 1_555 1_555
C2 C1 1_555 1_555
H5 C2 1_555 1_555
C3 N2 1_555 1_555
C4 C3 1_555 1_555
H6 C4 1_555 1_555
C5 N1 1_555 1_555
C6 H8 1_555 1_555
C7 C6 1_555 1_555
H9 C7 1_555 1_555
C8 N2 1_555 1_555
C9 C8 1_555 1_555
H10 C9 1_555 1_555
C10 N3 1_555 1_555
H11 C10 1_555 1_555
C15 H14 1_555 1_555
C16 C15 1_555 1_555
H15 C16 1_555 1_555
C17 C16 1_555 1_555
C18 O2 1_555 1_555
Cd3 N3 1_555 1_555
C2 C3 1_555 1_555
C4 C5 1_555 1_555
C7 C8 1_555 1_555
C9 C10 1_555 1_555
C17 C18 1_555 1_555
Cd1 O1 1_555 1_555
O3 Cd1 1_555 1_555
O4 Cd1 1_555 1_555
C11 O3 1_555 1_555
C12 C11 1_555 1_555
C13 C12 1_555 1_555
H12 C13 1_555 1_555
C14 C13 1_555 1_555
H13 C14 1_555 1_555
Cd4 O8 1_555 1_555
Cd5 N4 1_555 1_555
O8 C29 1_555 1_555
O10 Cd4 1_555 1_555
N4 C19 1_555 1_555
N6 H18 1_555 1_555
N7 Cd1 1_555 1_555
C19 H19 1_555 1_555
C20 C19 1_555 1_555
H20 C20 1_555 1_555
C21 N6 1_555 1_555
C22 C21 1_555 1_555
H21 C22 1_555 1_555
C23 N4 1_555 1_555
H22 C23 1_555 1_555
C24 N7 1_555 1_555
H23 C24 1_555 1_555
C25 C24 1_555 1_555
H24 C25 1_555 1_555
C26 N6 1_555 1_555
C27 C26 1_555 1_555
H25 C27 1_555 1_555
C28 N7 1_555 1_555
H26 C28 1_555 1_555
C29 O10 1_555 1_555
C30 C12 1_555 1_555
C31 C30 1_555 1_555
H27 C31 1_555 1_555
C32 C14 1_555 1_555
H28 C32 1_555 1_555
O4 C11 1_555 1_555
C20 C21 1_555 1_555
C22 C23 1_555 1_555
C25 C26 1_555 1_555
C27 C28 1_555 1_555
C29 C30 1_555 1_555
C31 C32 1_555 1_555
Cd2 O6 1_555 1_555
O6 C36 1_555 1_555
O7 Cd2 1_555 1_555
O9 Cd2 1_555 1_555
O11 Cd2 1_555 1_555
O12 Cd2 1_555 1_555
H16 O12 1_555 1_555
H17 O12 1_555 1_555
N5 Cd2 1_555 1_555
N8 Cd2 1_555 1_555
C36 O7 1_555 1_555
H16_2 O12_2 1_555 1_555
H17_2 O12_2 1_555 1_555
H29 C33 1_555 1_555
C34 C33 1_555 1_555
H30 C34 1_555 1_555
C36_2 O7_2 1_555 1_555
C34 C35 1_555 1_555
C35 C36_2 1_555 1_555
Cd2_2 O6_2 1_555 1_555
O9_2 Cd2_2 1_555 1_555
O11_2 Cd2_2 1_555 1_555
N8_2 Cd2_2 1_555 1_555
Cd3_2 N3_2 1_555 1_555
Cd1_2 O1_2 1_555 1_555
O1_2 C18_2 1_555 1_555
O2_2 Cd1_2 1_555 1_555
O3_2 Cd1_2 1_555 1_555
O4_2 Cd1_2 1_555 1_555
O5_2 Cd1_2 1_555 1_555
H1_2 O5_2 1_555 1_555
H2_2 O5_2 1_555 1_555
N1_2 Cd1_2 1_555 1_555
N2_2 H3_2 1_555 1_555
C1_2 N1_2 1_555 1_555
H4_2 C1_2 1_555 1_555
C2_2 C1_2 1_555 1_555
H5_2 C2_2 1_555 1_555
C3_2 N2_2 1_555 1_555
C4_2 C3_2 1_555 1_555
H6_2 C4_2 1_555 1_555
C5_2 N1_2 1_555 1_555
H7_2 C5_2 1_555 1_555
C7_2 C6_2 1_555 1_555
H9_2 C7_2 1_555 1_555
C8_2 N2_2 1_555 1_555
C9_2 C8_2 1_555 1_555
H10_2 C9_2 1_555 1_555
H11_2 C10_2 1_555 1_555
C11_2 O3_2 1_555 1_555
C12_2 C11_2 1_555 1_555
C13_2 C12_2 1_555 1_555
H12_2 C13_2 1_555 1_555
C14_2 C13_2 1_555 1_555
H13_2 C14_2 1_555 1_555
C18_2 O2_2 1_555 1_555
Cd4_2 O8_2 1_555 1_555
O8_2 C29_2 1_555 1_555
O10_2 Cd4_2 1_555 1_555
N4_2 C19_2 1_555 1_555
N6_2 H18_2 1_555 1_555
N7_2 Cd1_2 1_555 1_555
C19_2 H19_2 1_555 1_555
C20_2 C19_2 1_555 1_555
H20_2 C20_2 1_555 1_555
C21_2 N6_2 1_555 1_555
C22_2 C21_2 1_555 1_555
H21_2 C22_2 1_555 1_555
C23_2 N4_2 1_555 1_555
C24_2 N7_2 1_555 1_555
H23_2 C24_2 1_555 1_555
C25_2 C24_2 1_555 1_555
H24_2 C25_2 1_555 1_555
C26_2 N6_2 1_555 1_555
C27_2 C26_2 1_555 1_555
H25_2 C27_2 1_555 1_555
C28_2 N7_2 1_555 1_555
H26_2 C28_2 1_555 1_555
C29_2 O10_2 1_555 1_555
C30_2 C12_2 1_555 1_555
C31_2 C30_2 1_555 1_555
H27_2 C31_2 1_555 1_555
C32_2 C14_2 1_555 1_555
H28_2 C32_2 1_555 1_555
O4_2 C11_2 1_555 1_555
C2_2 C3_2 1_555 1_555
C4_2 C5_2 1_555 1_555
C7_2 C8_2 1_555 1_555
C9_2 C10_2 1_555 1_555
C20_2 C21_2 1_555 1_555
C22_2 C23_2 1_555 1_555
C25_2 C26_2 1_555 1_555
C27_2 C28_2 1_555 1_555
C29_2 C30_2 1_555 1_555
C31_2 C32_2 1_555 1_555
Cd1_3 O1_3 1_555 1_555
O3_3 Cd1_3 1_555 1_555
O4_3 Cd1_3 1_555 1_555
C11_3 O3_3 1_555 1_555
C12_3 C11_3 1_555 1_555
C13_3 C12_3 1_555 1_555
H12_3 C13_3 1_555 1_555
C14_3 C13_3 1_555 1_555
H13_3 C14_3 1_555 1_555
Cd2_3 O6_3 1_555 1_555
Cd4_3 O8_3 1_555 1_555
O8_3 C29_3 1_555 1_555
O9_3 Cd2_3 1_555 1_555
O10_3 Cd4_3 1_555 1_555
O11_3 Cd2_3 1_555 1_555
N4_3 C19_3 1_555 1_555
N6_3 H18_3 1_555 1_555
N7_3 Cd1_3 1_555 1_555
N8_3 Cd2_3 1_555 1_555
C19_3 H19_3 1_555 1_555
C20_3 C19_3 1_555 1_555
H20_3 C20_3 1_555 1_555
C21_3 N6_3 1_555 1_555
C22_3 C21_3 1_555 1_555
H21_3 C22_3 1_555 1_555
C23_3 N4_3 1_555 1_555
C24_3 N7_3 1_555 1_555
H23_3 C24_3 1_555 1_555
C25_3 C24_3 1_555 1_555
H24_3 C25_3 1_555 1_555
C26_3 N6_3 1_555 1_555
C27_3 C26_3 1_555 1_555
H25_3 C27_3 1_555 1_555
C28_3 N7_3 1_555 1_555
H26_3 C28_3 1_555 1_555
C29_3 O10_3 1_555 1_555
C30_3 C12_3 1_555 1_555
C31_3 C30_3 1_555 1_555
H27_3 C31_3 1_555 1_555
C32_3 C14_3 1_555 1_555
H28_3 C32_3 1_555 1_555
O4_3 C11_3 1_555 1_555
C20_3 C21_3 1_555 1_555
C22_3 C23_3 1_555 1_555
C25_3 C26_3 1_555 1_555
C27_3 C28_3 1_555 1_555
C29_3 C30_3 1_555 1_555
C31_3 C32_3 1_555 1_555
H1_3 O5_3 1_555 1_555
H2_3 O5_3 1_555 1_555
N2_3 H3_3 1_555 1_555
N3_3 C6_3 1_555 1_555
C1_3 N1_3 1_555 1_555
H4_3 C1_3 1_555 1_555
C2_3 C1_3 1_555 1_555
H5_3 C2_3 1_555 1_555
C3_3 N2_3 1_555 1_555
C4_3 C3_3 1_555 1_555
H6_3 C4_3 1_555 1_555
C5_3 N1_3 1_555 1_555
C6_3 H8_3 1_555 1_555
C7_3 C6_3 1_555 1_555
H9_3 C7_3 1_555 1_555
C8_3 N2_3 1_555 1_555
C9_3 C8_3 1_555 1_555
H10_3 C9_3 1_555 1_555
C10_3 N3_3 1_555 1_555
H11_3 C10_3 1_555 1_555
C18_3 O2_3 1_555 1_555
Cd5 N3_3 1_555 1_555
C2_3 C3_3 1_555 1_555
C4_3 C5_3 1_555 1_555
C7_3 C8_3 1_555 1_555
C9_3 C10_3 1_555 1_555
Cd4_2 O6_4 1_555 1_555
O6_4 C36_3 1_555 1_555
O7_3 Cd4_2 1_555 1_555
O12_3 Cd4_2 1_555 1_555
H16_3 O12_3 1_555 1_555
H17_3 O12_3 1_555 1_555
N5_3 Cd4_2 1_555 1_555
N8_4 Cd4_2 1_555 1_555
C36_3 O7_3 1_555 1_555
Cd3_2 O1_4 1_555 1_555
O3_4 Cd3_2 1_555 1_555
O4_4 Cd3_2 1_555 1_555
C11_4 O3_4 1_555 1_555
C12_4 C11_4 1_555 1_555
C13_4 C12_4 1_555 1_555
H12_4 C13_4 1_555 1_555
C14_4 C13_4 1_555 1_555
H13_4 C14_4 1_555 1_555
O9_3 C29_4 1_555 1_555
C29_4 O11_3 1_555 1_555
C30_4 C12_4 1_555 1_555
C31_4 C30_4 1_555 1_555
H27_4 C31_4 1_555 1_555
C32_4 C14_4 1_555 1_555
H28_4 C32_4 1_555 1_555
O4_4 C11_4 1_555 1_555
C29_4 C30_4 1_555 1_555
C31_4 C32_4 1_555 1_555
H1_4 O5_4 1_555 1_555
H2_4 O5_4 1_555 1_555
C15_2 H14_2 1_555 1_555
C16_2 C15_2 1_555 1_555
H15_2 C16_2 1_555 1_555
C17_2 C16_2 1_555 1_555
C18_4 O2_4 1_555 1_555
C17_2 C18_4 1_555 1_555
Cd5 O1_5 1_555 1_555
O1_5 C18_5 1_555 1_555
O2_5 Cd5 1_555 1_555
O3_5 Cd5 1_555 1_555
O4_5 Cd5 1_555 1_555
O5_5 Cd5 1_555 1_555
H1_5 O5_5 1_555 1_555
H2_5 O5_5 1_555 1_555
C11_5 O3_5 1_555 1_555
C12_5 C11_5 1_555 1_555
C13_5 C12_5 1_555 1_555
H12_5 C13_5 1_555 1_555
C14_5 C13_5 1_555 1_555
H13_5 C14_5 1_555 1_555
C18_5 O2_5 1_555 1_555
O9 C29_5 1_555 1_555
C29_5 O11 1_555 1_555
C30_5 C12_5 1_555 1_555
C31_5 C30_5 1_555 1_555
H27_5 C31_5 1_555 1_555
C32_5 C14_5 1_555 1_555
H28_5 C32_5 1_555 1_555
O4_5 C11_5 1_555 1_555
C29_5 C30_5 1_555 1_555
C31_5 C32_5 1_555 1_555
Cd4_3 O6_5 1_555 1_555
N8_5 Cd4_3 1_555 1_555
H16_4 O12_4 1_555 1_555
H17_4 O12_4 1_555 1_555
H29_2 C33_2 1_555 1_555
C34_2 C33_2 1_555 1_555
H30_2 C34_2 1_555 1_555
C36_4 O7_4 1_555 1_555
C34_2 C35_2 1_555 1_555
C35_2 C36_4 1_555 1_555
H16_5 O12_5 1_555 1_555
H17_5 O12_5 1_555 1_555
C36_5 O7_5 1_555 1_555
H1_6 O5_6 1_555 1_555
H2_6 O5_6 1_555 1_555
C18_6 O2_6 1_555 1_555
Cd3 O1_6 1_555 1_555
O3_6 Cd3 1_555 1_555
O4_6 Cd3 1_555 1_555
C11_6 O3_6 1_555 1_555
C12_6 C11_6 1_555 1_555
C13_6 C12_6 1_555 1_555
H12_6 C13_6 1_555 1_555
C14_6 C13_6 1_555 1_555
H13_6 C14_6 1_555 1_555
Cd4 O6_6 1_555 1_555
O9_2 C29_6 1_555 1_555
N8_6 Cd4 1_555 1_555
C29_6 O11_2 1_555 1_555
C30_6 C12_6 1_555 1_555
C31_6 C30_6 1_555 1_555
H27_6 C31_6 1_555 1_555
C32_6 C14_6 1_555 1_555
H28_6 C32_6 1_555 1_555
O4_6 C11_6 1_555 1_555
C29_6 C30_6 1_555 1_555
C31_6 C32_6 1_555 1_555
N2_4 H3_4 1_555 1_555
N8_6 C6_4 1_555 1_555
C1_4 N5_2 1_555 1_555
H4_4 C1_4 1_555 1_555
C2_4 C1_4 1_555 1_555
H5_4 C2_4 1_555 1_555
C3_4 N2_4 1_555 1_555
C4_4 C3_4 1_555 1_555
H6_4 C4_4 1_555 1_555
C5_4 N5_2 1_555 1_555
C6_4 H8_4 1_555 1_555
C7_4 C6_4 1_555 1_555
H9_4 C7_4 1_555 1_555
C8_4 N2_4 1_555 1_555
C9_4 C8_4 1_555 1_555
H10_4 C9_4 1_555 1_555
C10_4 N8_6 1_555 1_555
H11_4 C10_4 1_555 1_555
C2_4 C3_4 1_555 1_555
C4_4 C5_4 1_555 1_555
C7_4 C8_4 1_555 1_555
C9_4 C10_4 1_555 1_555
N5_3 C19_4 1_555 1_555
N6_4 H18_4 1_555 1_555
C19_4 H19_4 1_555 1_555
C20_4 C19_4 1_555 1_555
H20_4 C20_4 1_555 1_555
C21_4 N6_4 1_555 1_555
C22_4 C21_4 1_555 1_555
H21_4 C22_4 1_555 1_555
C23_4 N5_3 1_555 1_555
H22_4 C23_4 1_555 1_555
C24_4 N8_2 1_555 1_555
H23_4 C24_4 1_555 1_555
C25_4 C24_4 1_555 1_555
H24_4 C25_4 1_555 1_555
C26_4 N6_4 1_555 1_555
C27_4 C26_4 1_555 1_555
H25_4 C27_4 1_555 1_555
C28_4 N8_2 1_555 1_555
H26_4 C28_4 1_555 1_555
C20_4 C21_4 1_555 1_555
C22_4 C23_4 1_555 1_555
C25_4 C26_4 1_555 1_555
C27_4 C28_4 1_555 1_555
N2_5 H3_5 1_555 1_555
N8_5 C6_5 1_555 1_555
C1_5 N5 1_555 1_555
H4_5 C1_5 1_555 1_555
C2_5 C1_5 1_555 1_555
H5_5 C2_5 1_555 1_555
C3_5 N2_5 1_555 1_555
C4_5 C3_5 1_555 1_555
H6_5 C4_5 1_555 1_555
C5_5 N5 1_555 1_555
H7_5 C5_5 1_555 1_555
C6_5 H8_5 1_555 1_555
C7_5 C6_5 1_555 1_555
H9_5 C7_5 1_555 1_555
C8_5 N2_5 1_555 1_555
C9_5 C8_5 1_555 1_555
H10_5 C9_5 1_555 1_555
C10_5 N8_5 1_555 1_555
H11_5 C10_5 1_555 1_555
N5_5 C19_5 1_555 1_555
N6_5 H18_5 1_555 1_555
C19_5 H19_5 1_555 1_555
C20_5 C19_5 1_555 1_555
H20_5 C20_5 1_555 1_555
C21_5 N6_5 1_555 1_555
C22_5 C21_5 1_555 1_555
H21_5 C22_5 1_555 1_555
C23_5 N5_5 1_555 1_555
C24_5 N8 1_555 1_555
H23_5 C24_5 1_555 1_555
C25_5 C24_5 1_555 1_555
H24_5 C25_5 1_555 1_555
C26_5 N6_5 1_555 1_555
C27_5 C26_5 1_555 1_555
H25_5 C27_5 1_555 1_555
C28_5 N8 1_555 1_555
H26_5 C28_5 1_555 1_555
C2_5 C3_5 1_555 1_555
C4_5 C5_5 1_555 1_555
C7_5 C8_5 1_555 1_555
C9_5 C10_5 1_555 1_555
C20_5 C21_5 1_555 1_555
C22_5 C23_5 1_555 1_555
C25_5 C26_5 1_555 1_555
C27_5 C28_5 1_555 1_555
N5_4 C19_6 1_555 1_555
N6_6 H18_6 1_555 1_555
C19_6 H19_6 1_555 1_555
C20_6 C19_6 1_555 1_555
H20_6 C20_6 1_555 1_555
C21_6 N6_6 1_555 1_555
C22_6 C21_6 1_555 1_555
H21_6 C22_6 1_555 1_555
C23_6 N5_4 1_555 1_555
C24_6 N8_3 1_555 1_555
H23_6 C24_6 1_555 1_555
C25_6 C24_6 1_555 1_555
H24_6 C25_6 1_555 1_555
C26_6 N6_6 1_555 1_555
C27_6 C26_6 1_555 1_555
H25_6 C27_6 1_555 1_555
C28_6 N8_3 1_555 1_555
H26_6 C28_6 1_555 1_555
C20_6 C21_6 1_555 1_555
C22_6 C23_6 1_555 1_555
C25_6 C26_6 1_555 1_555
C27_6 C28_6 1_555 1_555
H29_3 C33_3 1_555 1_555
C34_3 C33_3 1_555 1_555
H30_3 C34_3 1_555 1_555
C34_3 C35_3 1_555 1_555
C15_3 H14_3 1_555 1_555
C16_3 C15_3 1_555 1_555
H15_3 C16_3 1_555 1_555
C17_3 C16_3 1_555 1_555
H16_6 O12_6 1_555 1_555
H17_6 O12_6 1_555 1_555
C36_6 O7_6 1_555 1_555
N2_6 H3_6 1_555 1_555
C1_6 N5_6 1_555 1_555
H4_6 C1_6 1_555 1_555
C2_6 C1_6 1_555 1_555
H5_6 C2_6 1_555 1_555
C3_6 N2_6 1_555 1_555
C4_6 C3_6 1_555 1_555
H6_6 C4_6 1_555 1_555
C5_6 N5_6 1_555 1_555
C7_6 C6_6 1_555 1_555
H9_6 C7_6 1_555 1_555
C8_6 N2_6 1_555 1_555
C9_6 C8_6 1_555 1_555
H10_6 C9_6 1_555 1_555
H11_6 C10_6 1_555 1_555
C2_6 C3_6 1_555 1_555
C4_6 C5_6 1_555 1_555
C7_6 C8_6 1_555 1_555
C9_6 C10_6 1_555 1_555
C15_4 H14_4 1_555 1_555
C16_4 C15_4 1_555 1_555
H15_4 C16_4 1_555 1_555
C17_4 C16_4 1_555 1_555
C33_4 C15_4 1_555 1_555
H29_4 C33_4 1_555 1_555
C34_4 C33_4 1_555 1_555
H30_4 C34_4 1_555 1_555
C35_4 C17_4 1_555 1_555
C34_4 C35_4 1_555 1_555
H29_5 C33_5 1_555 1_555
C34_5 C33_5 1_555 1_555
H30_5 C34_5 1_555 1_555
C34_5 C35_5 1_555 1_555
C15_5 H14_5 1_555 1_555
C16_5 C15_5 1_555 1_555
H15_5 C16_5 1_555 1_555
C17_5 C16_5 1_555 1_555
C15_6 H14_6 1_555 1_555
C16_6 C15_6 1_555 1_555
H15_6 C16_6 1_555 1_555
C17_6 C16_6 1_555 1_555
C33_6 C15_6 1_555 1_555
H29_6 C33_6 1_555 1_555
C34_6 C33_6 1_555 1_555
H30_6 C34_6 1_555 1_555
C35_6 C17_6 1_555 1_555
C34_6 C35_6 1_555 1_555

#END
