
###############################################################################
#
# This file contains modified crystal structure data generated from the
# MOF subset of the Cambridge Structural Database (CSD) v543 
# hosted by the Cambridge Crystallographic Data Centre (CCDC).
#
# This work is licensed under the Creative Commons
# Attribution-NonCommercial-ShareAlike 4.0 International License.
# To view a copy of this license, visit
# http://creativecommons.org/licenses/by-nc-sa/4.0/
# or send a letter to
# Creative Commons, PO Box 1866, Mountain View, CA 94042, USA.
#
# CIF created using the CSD Python API on 29 September 2022
# The structure has been converted into the P1 space group
# The structure has a 3D framework
# The original CSD entry DOYBEA is in the monoclinic crystal system
# The framework has been calculated to contain at least 10.0% void space
# The void calculation uses a probe of radius 1.32A, grid spacing 0.4
#
###############################################################################

data_DOYBEA
_chemical_formula_moiety         '(C16 H12 Al10 O19)n'
_symmetry_cell_setting           triclinic
_symmetry_space_group_name_H-M   'P 1'
_symmetry_Int_Tables_number      1
_space_group_name_Hall           'P 1'
loop_
_symmetry_equiv_pos_site_id
_symmetry_equiv_pos_as_xyz
1 x,y,z
_cell_length_a                   6.8419(30)
_cell_length_b                   12.0877(22)
_cell_length_c                   14.207(10)
_cell_angle_alpha                90
_cell_angle_beta                 122.547(62)
_cell_angle_gamma                90
_cell_volume                     990.432
loop_
_atom_site_label
_atom_site_type_symbol
_atom_site_fract_x
_atom_site_fract_y
_atom_site_fract_z
_atom_site_U_iso_or_equiv
_atom_site_thermal_displace_type
Al6 Al 0.00000 0.50000 0.00000 0.0000 Uiso
Al8 Al -0.00000 -0.00000 0.50000 0.0000 Uiso
Al6_2 Al 0.00000 0.50000 1.00000 0.0000 Uiso
Al8_2 Al -0.00000 1.00000 0.50000 0.0000 Uiso
Al1 Al 0.50000 0.50000 0.00000 0.0000 Uiso
O1 O 0.24705 0.40015 0.11591 0.0000 Uiso
O2 O 0.53844 0.36877 0.08438 0.0000 Uiso
O3 O 0.4506 0.0933 0.37967 0.0000 Uiso
O4 O 0.78276 0.11334 0.39942 0.0000 Uiso
C1 C 0.42977 0.34699 0.13382 0.0000 Uiso
C2 C 0.55444 0.26496 0.22203 0.0000 Uiso
C3 C 0.45578 0.22792 0.27381 0.0000 Uiso
C4 C 0.57869 0.14099 0.3604 0.0000 Uiso
H1 H 0.72968 0.23217 0.24306 0.0507 Uiso
H2 H 0.27772 0.25787 0.25162 0.0507 Uiso
O5 O 0.81988 0.48269 0.05985 0.0000 Uiso
H3 H 0.92295 0.52558 0.13066 0.0507 Uiso
Al5 Al 0.50000 -0.00000 0.50000 0.0000 Uiso
Al6_3 Al 1.00000 0.50000 0.00000 0.0000 Uiso
Al8_3 Al 1.00000 -0.00000 0.50000 0.0000 Uiso
O12 O 0.5494 0.5933 0.12033 0.0000 Uiso
O14 O 0.21724 0.61334 0.10058 0.0000 Uiso
Al1_2 Al 0.50000 0.50000 1.00000 0.0000 Uiso
O10 O 0.18012 0.51731 0.94015 0.0000 Uiso
H6 H 0.07705 0.47442 0.86934 0.0507 Uiso
Al6_4 Al 1.00000 0.50000 1.00000 0.0000 Uiso
O11 O 0.46156 0.63123 0.91562 0.0000 Uiso
O13 O 0.4506 0.4067 0.87967 0.0000 Uiso
Al5_2 Al 0.50000 1.00000 0.50000 0.0000 Uiso
Al8_4 Al 1.00000 1.00000 0.50000 0.0000 Uiso
O6 O 0.75295 0.59985 0.88409 0.0000 Uiso
O8 O 0.5494 0.9067 0.62033 0.0000 Uiso
O9 O 0.21724 0.88666 0.60058 0.0000 Uiso
C5 C 0.57023 0.65301 0.86618 0.0000 Uiso
C6 C 0.44556 0.73504 0.77797 0.0000 Uiso
C7 C 0.54422 0.77208 0.72619 0.0000 Uiso
C8 C 0.42131 0.85901 0.6396 0.0000 Uiso
H4 H 0.27032 0.76783 0.75694 0.0507 Uiso
H5 H 0.72228 0.74213 0.74838 0.0507 Uiso
O15 O 0.78276 0.38666 0.89942 0.0000 Uiso
O6_2 O 0.24705 0.09985 0.61591 0.0000 Uiso
O7 O 0.53844 0.13123 0.58438 0.0000 Uiso
C5_2 C 0.42977 0.15301 0.63382 0.0000 Uiso
C6_2 C 0.55444 0.23504 0.72203 0.0000 Uiso
C7_2 C 0.45578 0.27208 0.77381 0.0000 Uiso
C8_2 C 0.57869 0.35901 0.8604 0.0000 Uiso
H4_2 H 0.72968 0.26783 0.74306 0.0507 Uiso
H5_2 H 0.27772 0.24213 0.75162 0.0507 Uiso
O16 O 0.18012 0.98269 0.44015 0.0000 Uiso
H3_2 H 0.07705 0.02558 0.36934 0.0507 Uiso
O10_2 O 0.81988 0.01731 0.55985 0.0000 Uiso
O1_2 O 0.75295 0.90015 0.38409 0.0000 Uiso
O2_2 O 0.46156 0.86877 0.41562 0.0000 Uiso
C1_2 C 0.57023 0.84699 0.36618 0.0000 Uiso
C2_2 C 0.44556 0.76496 0.27797 0.0000 Uiso
C3_2 C 0.54422 0.72792 0.22619 0.0000 Uiso
C4_2 C 0.42131 0.64099 0.1396 0.0000 Uiso
H1_2 H 0.27032 0.73217 0.25694 0.0507 Uiso
H2_2 H 0.72228 0.75787 0.24838 0.0507 Uiso
H6_2 H 0.92295 0.97442 0.63066 0.0507 Uiso
loop_
_geom_bond_atom_site_label_1
_geom_bond_atom_site_label_2
_geom_bond_site_symmetry_1
_geom_bond_site_symmetry_2
Al1 O2 1_555 1_555
Al6 O1 1_555 1_555
O1 C1 1_555 1_555
O2 C1 1_555 1_555
O3 C4 1_555 1_555
O4 C4 1_555 1_555
C1 C2 1_555 1_555
C2 C3 1_555 1_555
C3 C4 1_555 1_555
H1 C2 1_555 1_555
H2 C3 1_555 1_555
O5 Al1 1_555 1_555
H3 O5 1_555 1_555
Al5 O3 1_555 1_555
Al6_3 O5 1_555 1_555
Al8_3 O4 1_555 1_555
O12 Al1 1_555 1_555
O14 Al6 1_555 1_555
O10 Al1_2 1_555 1_555
H6 O10 1_555 1_555
O11 Al1_2 1_555 1_555
O13 Al1_2 1_555 1_555
Al6_2 O10 1_555 1_555
O6 Al6_4 1_555 1_555
O11 C5 1_555 1_555
O8 C8 1_555 1_555
O9 C8 1_555 1_555
C5 O6 1_555 1_555
C6 C5 1_555 1_555
C7 C6 1_555 1_555
C8 C7 1_555 1_555
H4 C6 1_555 1_555
H5 C7 1_555 1_555
Al5_2 O8 1_555 1_555
Al8_2 O9 1_555 1_555
O15 Al6_4 1_555 1_555
O6_2 Al8 1_555 1_555
O7 C5_2 1_555 1_555
O13 C8_2 1_555 1_555
O15 C8_2 1_555 1_555
C5_2 O6_2 1_555 1_555
C6_2 C5_2 1_555 1_555
C7_2 C6_2 1_555 1_555
C8_2 C7_2 1_555 1_555
H4_2 C6_2 1_555 1_555
H5_2 C7_2 1_555 1_555
Al5 O7 1_555 1_555
O16 Al8_2 1_555 1_555
Al5_2 O16 1_555 1_555
O10_2 Al5 1_555 1_555
Al8_3 O10_2 1_555 1_555
Al5_2 O2_2 1_555 1_555
Al8_4 O1_2 1_555 1_555
O1_2 C1_2 1_555 1_555
O2_2 C1_2 1_555 1_555
O12 C4_2 1_555 1_555
O14 C4_2 1_555 1_555
C1_2 C2_2 1_555 1_555
C2_2 C3_2 1_555 1_555
C3_2 C4_2 1_555 1_555
H1_2 C2_2 1_555 1_555
H2_2 C3_2 1_555 1_555

#END
