
###############################################################################
#
# This file contains modified crystal structure data generated from the
# MOF subset of the Cambridge Structural Database (CSD) v543 
# hosted by the Cambridge Crystallographic Data Centre (CCDC).
#
# This work is licensed under the Creative Commons
# Attribution-NonCommercial-ShareAlike 4.0 International License.
# To view a copy of this license, visit
# http://creativecommons.org/licenses/by-nc-sa/4.0/
# or send a letter to
# Creative Commons, PO Box 1866, Mountain View, CA 94042, USA.
#
# CIF created using the CSD Python API on 29 September 2022
# The structure has been converted into the P1 space group
# The structure has a 3D framework
# The original CSD entry DOYBUQ is in the orthorhombic crystal system
# The framework has been calculated to contain at least 10.0% void space
# The void calculation uses a probe of radius 1.32A, grid spacing 0.4
#
###############################################################################

data_DOYBUQ
_chemical_formula_moiety         '(C144 H80 Fe10 N104 Pt24)n'
_symmetry_cell_setting           triclinic
_symmetry_space_group_name_H-M   'P 1'
_symmetry_Int_Tables_number      1
_space_group_name_Hall           'P 1'
loop_
_symmetry_equiv_pos_site_id
_symmetry_equiv_pos_as_xyz
1 x,y,z
_cell_length_a                   14.652(4)
_cell_length_b                   14.894(4)
_cell_length_c                   29.736(8)
_cell_angle_alpha                90
_cell_angle_beta                 90
_cell_angle_gamma                90
_cell_volume                     6489.19
loop_
_atom_site_label
_atom_site_type_symbol
_atom_site_fract_x
_atom_site_fract_y
_atom_site_fract_z
Pt1 Pt 0.26694(2) 0.0000 0.374987(10)
Fe1 Fe 0.2500 0.2500 0.5000
Fe2 Fe 0.2500 0.2500 0.2500
N1 N 0.2572(3) 0.1474(3) 0.30008(18)
N2 N 0.2588(3) 0.1477(3) 0.45000(19)
N3 N 0.0951(5) 0.2438(4) 0.5000
N4 N 0.0956(5) 0.2500 0.2500
C1 C 0.2643(3) 0.0941(3) 0.42245(19)
C2 C 0.2635(4) 0.0936(4) 0.32740(19)
C3 C 0.0482(7) 0.1698(6) 0.5000
C4 C 0.0482(7) 0.3175(7) 0.5000
C5 C 0.0466(4) 0.3242(5) 0.2428(2)
H1 H 0.0793 0.1146 0.5000
H2 H 0.0793 0.3727 0.5000
H3 H 0.0774 0.3785 0.2376
C10 C 0.0466(4) 0.1758(5) 0.2572(2)
H8 H 0.0774 0.1215 0.2624
Pt2 Pt 0.26694(2) 0.0000 0.625013(10)
N9 N 0.2572(3) 0.1474(3) 0.69992(18)
N10 N 0.2588(3) 0.1477(3) 0.55000(19)
C13 C 0.2643(3) 0.0941(3) 0.57755(19)
C14 C 0.2635(4) 0.0936(4) 0.67260(19)
Fe8 Fe 0.2500 0.2500 0.7500
N13 N 0.2572(3) 0.3526(3) 0.19992(18)
N14 N 0.2428(3) 0.1474(3) 0.19992(18)
N15 N 0.2428(3) 0.3526(3) 0.30008(18)
N16 N 0.2412(3) 0.3523(3) 0.45000(19)
N17 N 0.2412(3) 0.3523(3) 0.55000(19)
N18 N 0.4049(5) 0.2562(4) 0.5000
N19 N 0.4044(5) 0.2500 0.2500
Pt1_2 Pt 0.26694(2) 1.0000 0.374987(10)
N7 N 0.2572(3) 0.8526(3) 0.30008(18)
N8 N 0.2588(3) 0.8523(3) 0.45000(19)
C11 C 0.2643(3) 0.9059(3) 0.42245(19)
C12 C 0.2635(4) 0.9064(4) 0.32740(19)
Pt2_2 Pt 0.26694(2) 1.0000 0.625013(10)
N11 N 0.2572(3) 0.8526(3) 0.69992(18)
N12 N 0.2588(3) 0.8523(3) 0.55000(19)
C15 C 0.2643(3) 0.9059(3) 0.57755(19)
C16 C 0.2635(4) 0.9064(4) 0.67260(19)
Fe4 Fe 0.2500 0.7500 0.5000
Fe6 Fe 0.2500 0.7500 0.2500
Fe7 Fe 0.2500 0.7500 0.7500
N5 N 0.9049(5) 0.2438(4) 0.5000
C6 C 0.9518(7) 0.1698(6) 0.5000
C7 C 0.9518(7) 0.3175(7) 0.5000
H4 H 0.9207 0.1146 0.5000
H5 H 0.9207 0.3727 0.5000
N6 N 0.9044(5) 0.2500 0.2500
C8 C 0.9534(4) 0.3242(5) 0.2428(2)
H6 H 0.9226 0.3785 0.2376
C9 C 0.9534(4) 0.1758(5) 0.2572(2)
H7 H 0.9226 0.1215 0.2624
Fe3 Fe 0.7500 0.2500 0.5000
Fe5 Fe 0.7500 0.2500 0.2500
N5_2 N 0.0951(5) 0.7562(4) 0.5000
C6_2 C 0.0482(7) 0.8302(6) 0.5000
C7_2 C 0.0482(7) 0.6825(7) 0.5000
H4_2 H 0.0793 0.8854 0.5000
H5_2 H 0.0793 0.6273 0.5000
N6_2 N 0.0956(5) 0.7500 0.2500
C8_2 C 0.0466(4) 0.6758(5) 0.2428(2)
H6_2 H 0.0774 0.6215 0.2376
C9_2 C 0.0466(4) 0.8242(5) 0.2572(2)
H7_2 H 0.0774 0.8785 0.2624
Pt1_3 Pt 0.73306(2) -0.0000 0.374987(10)
N7_2 N 0.7428(3) 0.1474(3) 0.30008(18)
N8_2 N 0.7412(3) 0.1477(3) 0.45000(19)
C11_2 C 0.7357(3) 0.0941(3) 0.42245(19)
C12_2 C 0.7365(4) 0.0936(4) 0.32740(19)
Pt2_3 Pt 0.73306(2) -0.0000 0.625013(10)
N11_2 N 0.7428(3) 0.1474(3) 0.69992(18)
N12_2 N 0.7412(3) 0.1477(3) 0.55000(19)
C15_2 C 0.7357(3) 0.0941(3) 0.57755(19)
C16_2 C 0.7365(4) 0.0936(4) 0.67260(19)
Fe7_2 Fe 0.7500 0.2500 0.7500
Pt1_4 Pt 0.73306(2) 1.0000 0.374987(10)
Fe1_2 Fe 0.7500 0.7500 0.5000
Fe2_2 Fe 0.7500 0.7500 0.2500
N1_2 N 0.7428(3) 0.8526(3) 0.30008(18)
N2_2 N 0.7412(3) 0.8523(3) 0.45000(19)
N3_2 N 0.9049(5) 0.7562(4) 0.5000
N4_2 N 0.9044(5) 0.7500 0.2500
C1_2 C 0.7357(3) 0.9059(3) 0.42245(19)
C2_2 C 0.7365(4) 0.9064(4) 0.32740(19)
C3_2 C 0.9518(7) 0.8302(6) 0.5000
C4_2 C 0.9518(7) 0.6825(7) 0.5000
C5_2 C 0.9534(4) 0.6758(5) 0.2428(2)
H1_2 H 0.9207 0.8854 0.5000
H2_2 H 0.9207 0.6273 0.5000
H3_2 H 0.9226 0.6215 0.2376
C10_2 C 0.9534(4) 0.8242(5) 0.2572(2)
H8_2 H 0.9226 0.8785 0.2624
Pt2_4 Pt 0.73306(2) 1.0000 0.625013(10)
N9_2 N 0.7428(3) 0.8526(3) 0.69992(18)
N10_2 N 0.7412(3) 0.8523(3) 0.55000(19)
C13_2 C 0.7357(3) 0.9059(3) 0.57755(19)
C14_2 C 0.7365(4) 0.9064(4) 0.67260(19)
Fe8_2 Fe 0.7500 0.7500 0.7500
N13_2 N 0.7428(3) 0.6474(3) 0.19992(18)
N14_2 N 0.7572(3) 0.8526(3) 0.19992(18)
N15_2 N 0.7572(3) 0.6474(3) 0.30008(18)
N16_2 N 0.7588(3) 0.6477(3) 0.45000(19)
N17_2 N 0.7588(3) 0.6477(3) 0.55000(19)
N18_2 N 0.5951(5) 0.7438(4) 0.5000
N19_2 N 0.5956(5) 0.7500 0.2500
N4_3 N 0.0956(5) 0.7500 0.7500
C5_3 C 0.0466(4) 0.6758(5) 0.7572(2)
H3_3 H 0.0774 0.6215 0.7624
C10_3 C 0.0466(4) 0.8242(5) 0.7428(2)
H8_3 H 0.0774 0.8785 0.7376
N13_3 N 0.2572(3) 0.6474(3) 0.80008(18)
N14_3 N 0.2428(3) 0.8526(3) 0.80008(18)
N15_3 N 0.2428(3) 0.6474(3) 0.69992(18)
N16_3 N 0.2412(3) 0.6477(3) 0.55000(19)
N17_3 N 0.2412(3) 0.6477(3) 0.45000(19)
N18_3 N 0.4049(5) 0.7438(4) 0.5000
N19_3 N 0.4044(5) 0.7500 0.7500
N6_3 N 0.9044(5) 0.7500 0.7500
C8_3 C 0.9534(4) 0.6758(5) 0.7572(2)
H6_3 H 0.9226 0.6215 0.7624
C9_3 C 0.9534(4) 0.8242(5) 0.7428(2)
H7_3 H 0.9226 0.8785 0.7376
N6_4 N 0.0956(5) 0.2500 0.7500
C8_4 C 0.0466(4) 0.3242(5) 0.7572(2)
H6_4 H 0.0774 0.3785 0.7624
C9_4 C 0.0466(4) 0.1758(5) 0.7428(2)
H7_4 H 0.0774 0.1215 0.7376
N4_4 N 0.9044(5) 0.2500 0.7500
C5_4 C 0.9534(4) 0.3242(5) 0.7572(2)
H3_4 H 0.9226 0.3785 0.7624
C10_4 C 0.9534(4) 0.1758(5) 0.7428(2)
H8_4 H 0.9226 0.1215 0.7376
N13_4 N 0.7428(3) 0.3526(3) 0.80008(18)
N14_4 N 0.7572(3) 0.1474(3) 0.80008(18)
N15_4 N 0.7572(3) 0.3526(3) 0.69992(18)
N16_4 N 0.7588(3) 0.3523(3) 0.55000(19)
N17_4 N 0.7588(3) 0.3523(3) 0.45000(19)
N18_4 N 0.5951(5) 0.2562(4) 0.5000
N19_4 N 0.5956(5) 0.2500 0.7500
Fe1_3 Fe 0.2500 0.7500 0.0000
N3_3 N 0.0951(5) 0.7438(4) 0.0000
C3_3 C 0.0482(7) 0.6698(6) 0.0000
C4_3 C 0.0482(7) 0.8175(7) 0.0000
H1_3 H 0.0793 0.6146 0.0000
H2_3 H 0.0793 0.8727 0.0000
Pt2_5 Pt 0.26694(2) 0.5000 0.125013(10)
N9_3 N 0.2572(3) 0.6474(3) 0.19992(18)
N10_3 N 0.2588(3) 0.6477(3) 0.05000(19)
C13_3 C 0.2643(3) 0.5941(3) 0.07755(19)
C14_3 C 0.2635(4) 0.5936(4) 0.17260(19)
N12_3 N 0.2588(3) 0.3523(3) 0.05000(19)
C15_3 C 0.2643(3) 0.4059(3) 0.07755(19)
C16_3 C 0.2635(4) 0.4064(4) 0.17260(19)
Fe4_2 Fe 0.2500 0.2500 0.0000
N17_5 N 0.2412(3) 0.8523(3) 0.05000(19)
N18_5 N 0.4049(5) 0.7562(4) 0.0000
Pt1_5 Pt 0.26694(2) 0.5000 0.874987(10)
Fe1_4 Fe 0.2500 0.7500 1.0000
N2_3 N 0.2588(3) 0.6477(3) 0.95000(19)
N3_4 N 0.0951(5) 0.7438(4) 1.0000
C1_3 C 0.2643(3) 0.5941(3) 0.92245(19)
C2_3 C 0.2635(4) 0.5936(4) 0.82740(19)
C3_4 C 0.0482(7) 0.6698(6) 1.0000
C4_4 C 0.0482(7) 0.8175(7) 1.0000
H1_4 H 0.0793 0.6146 1.0000
H2_4 H 0.0793 0.8727 1.0000
N7_3 N 0.2572(3) 0.3526(3) 0.80008(18)
N8_3 N 0.2588(3) 0.3523(3) 0.95000(19)
C11_3 C 0.2643(3) 0.4059(3) 0.92245(19)
C12_3 C 0.2635(4) 0.4064(4) 0.82740(19)
Fe4_3 Fe 0.2500 0.2500 1.0000
N16_5 N 0.2412(3) 0.8523(3) 0.95000(19)
N18_6 N 0.4049(5) 0.7562(4) 1.0000
N5_3 N 0.9049(5) 0.7438(4) 0.0000
C6_3 C 0.9518(7) 0.6698(6) 0.0000
C7_3 C 0.9518(7) 0.8175(7) 0.0000
H4_3 H 0.9207 0.6146 0.0000
H5_3 H 0.9207 0.8727 0.0000
Fe3_2 Fe 0.7500 0.7500 0.0000
N5_4 N 0.9049(5) 0.7438(4) 1.0000
C6_4 C 0.9518(7) 0.6698(6) 1.0000
C7_4 C 0.9518(7) 0.8175(7) 1.0000
H4_4 H 0.9207 0.6146 1.0000
H5_4 H 0.9207 0.8727 1.0000
Fe3_3 Fe 0.7500 0.7500 1.0000
N5_5 N 0.0951(5) 0.2562(4) 0.0000
C6_5 C 0.0482(7) 0.3302(6) 0.0000
C7_5 C 0.0482(7) 0.1825(7) 0.0000
H4_5 H 0.0793 0.3854 0.0000
H5_5 H 0.0793 0.1273 0.0000
N5_6 N 0.0951(5) 0.2562(4) 1.0000
C6_6 C 0.0482(7) 0.3302(6) 1.0000
C7_6 C 0.0482(7) 0.1825(7) 1.0000
H4_6 H 0.0793 0.3854 1.0000
H5_6 H 0.0793 0.1273 1.0000
Fe1_5 Fe 0.7500 0.2500 0.0000
N3_5 N 0.9049(5) 0.2562(4) 0.0000
C3_5 C 0.9518(7) 0.3302(6) 0.0000
C4_5 C 0.9518(7) 0.1825(7) 0.0000
H1_5 H 0.9207 0.3854 0.0000
H2_5 H 0.9207 0.1273 0.0000
Pt2_6 Pt 0.73306(2) 0.5000 0.125013(10)
N9_4 N 0.7428(3) 0.3526(3) 0.19992(18)
N10_4 N 0.7412(3) 0.3523(3) 0.05000(19)
C13_4 C 0.7357(3) 0.4059(3) 0.07755(19)
C14_4 C 0.7365(4) 0.4064(4) 0.17260(19)
N12_4 N 0.7412(3) 0.6477(3) 0.05000(19)
C15_4 C 0.7357(3) 0.5941(3) 0.07755(19)
C16_4 C 0.7365(4) 0.5936(4) 0.17260(19)
N17_6 N 0.7588(3) 0.1477(3) 0.05000(19)
N18_7 N 0.5951(5) 0.2438(4) 0.0000
Pt1_6 Pt 0.73306(2) 0.5000 0.874987(10)
Fe1_6 Fe 0.7500 0.2500 1.0000
N2_4 N 0.7412(3) 0.3523(3) 0.95000(19)
N3_6 N 0.9049(5) 0.2562(4) 1.0000
C1_4 C 0.7357(3) 0.4059(3) 0.92245(19)
C2_4 C 0.7365(4) 0.4064(4) 0.82740(19)
C3_6 C 0.9518(7) 0.3302(6) 1.0000
C4_6 C 0.9518(7) 0.1825(7) 1.0000
H1_6 H 0.9207 0.3854 1.0000
H2_6 H 0.9207 0.1273 1.0000
N7_4 N 0.7428(3) 0.6474(3) 0.80008(18)
N8_4 N 0.7412(3) 0.6477(3) 0.95000(19)
C11_4 C 0.7357(3) 0.5941(3) 0.92245(19)
C12_4 C 0.7365(4) 0.5936(4) 0.82740(19)
N16_6 N 0.7588(3) 0.1477(3) 0.95000(19)
N18_8 N 0.5951(5) 0.2438(4) 1.0000
N16_7 N 0.2412(3) 0.1477(3) 0.05000(19)
N18_9 N 0.4049(5) 0.2438(4) -0.0000
N17_7 N 0.2412(3) 0.1477(3) 0.95000(19)
N18_10 N 0.4049(5) 0.2438(4) 1.0000
N16_8 N 0.7588(3) 0.8523(3) 0.05000(19)
N18_11 N 0.5951(5) 0.7562(4) -0.0000
N17_8 N 0.7588(3) 0.8523(3) 0.95000(19)
N18_12 N 0.5951(5) 0.7562(4) 1.0000
C3_7 C 0.5482(7) 0.1698(6) 0.0000
C4_7 C 0.5482(7) 0.3175(7) 0.0000
H1_7 H 0.5793 0.1146 0.0000
H2_7 H 0.5793 0.3727 0.0000
C6_7 C 0.4518(7) 0.1698(6) 0.0000
C7_7 C 0.4518(7) 0.3175(7) 0.0000
H4_7 H 0.4207 0.1146 0.0000
H5_7 H 0.4207 0.3727 0.0000
Pt2_7 Pt 0.76694(2) 0.0000 0.125013(10)
N9_5 N 0.7572(3) 0.1474(3) 0.19992(18)
C13_5 C 0.7643(3) 0.0941(3) 0.07755(19)
C14_5 C 0.7635(4) 0.0936(4) 0.17260(19)
Pt1_7 Pt 0.76694(2) 0.0000 0.874987(10)
C1_5 C 0.7643(3) 0.0941(3) 0.92245(19)
C2_5 C 0.7635(4) 0.0936(4) 0.82740(19)
C3_8 C 0.5482(7) 0.1698(6) 1.0000
C4_8 C 0.5482(7) 0.3175(7) 1.0000
C5_5 C 0.5466(4) 0.3242(5) 0.7428(2)
H1_8 H 0.5793 0.1146 1.0000
H2_8 H 0.5793 0.3727 1.0000
H3_5 H 0.5774 0.3785 0.7376
C6_8 C 0.4518(7) 0.1698(6) 1.0000
C7_8 C 0.4518(7) 0.3175(7) 1.0000
H4_8 H 0.4207 0.1146 1.0000
H5_8 H 0.4207 0.3727 1.0000
N6_5 N 0.4044(5) 0.2500 0.7500
C8_5 C 0.4534(4) 0.3242(5) 0.7428(2)
H6_5 H 0.4226 0.3785 0.7376
C9_5 C 0.4534(4) 0.1758(5) 0.7572(2)
H7_5 H 0.4226 0.1215 0.7624
C10_5 C 0.5466(4) 0.1758(5) 0.7572(2)
H8_5 H 0.5774 0.1215 0.7624
Pt2_8 Pt 0.76694(2) 1.0000 0.125013(10)
C15_5 C 0.7643(3) 0.9059(3) 0.07755(19)
C16_5 C 0.7635(4) 0.9064(4) 0.17260(19)
Pt1_8 Pt 0.76694(2) 1.0000 0.874987(10)
N7_5 N 0.7572(3) 0.8526(3) 0.80008(18)
C11_5 C 0.7643(3) 0.9059(3) 0.92245(19)
C12_5 C 0.7635(4) 0.9064(4) 0.82740(19)
Pt2_9 Pt 0.23306(2) -0.0000 0.125013(10)
C15_6 C 0.2357(3) 0.0941(3) 0.07755(19)
C16_6 C 0.2365(4) 0.0936(4) 0.17260(19)
Pt1_9 Pt 0.23306(2) 0.0000 0.874987(10)
N7_6 N 0.2428(3) 0.1474(3) 0.80008(18)
C11_6 C 0.2357(3) 0.0941(3) 0.92245(19)
C12_6 C 0.2365(4) 0.0936(4) 0.82740(19)
C3_9 C 0.4518(7) 0.8302(6) 0.0000
C4_9 C 0.4518(7) 0.6825(7) 0.0000
H1_9 H 0.4207 0.8854 0.0000
H2_9 H 0.4207 0.6273 0.0000
C6_9 C 0.5482(7) 0.8302(6) 0.0000
C7_9 C 0.5482(7) 0.6825(7) 0.0000
H4_9 H 0.5793 0.8854 0.0000
H5_9 H 0.5793 0.6273 0.0000
Pt2_10 Pt 0.23306(2) 1.0000 0.125013(10)
N9_6 N 0.2428(3) 0.8526(3) 0.19992(18)
C13_6 C 0.2357(3) 0.9059(3) 0.07755(19)
C14_6 C 0.2365(4) 0.9064(4) 0.17260(19)
Pt1_10 Pt 0.23306(2) 1.0000 0.874987(10)
C1_6 C 0.2357(3) 0.9059(3) 0.92245(19)
C2_6 C 0.2365(4) 0.9064(4) 0.82740(19)
C3_10 C 0.4518(7) 0.8302(6) 1.0000
C4_10 C 0.4518(7) 0.6825(7) 1.0000
C5_6 C 0.4534(4) 0.6758(5) 0.7428(2)
H1_10 H 0.4207 0.8854 1.0000
H2_10 H 0.4207 0.6273 1.0000
H3_6 H 0.4226 0.6215 0.7376
C6_10 C 0.5482(7) 0.8302(6) 1.0000
C7_10 C 0.5482(7) 0.6825(7) 1.0000
H4_10 H 0.5793 0.8854 1.0000
H5_10 H 0.5793 0.6273 1.0000
N6_6 N 0.5956(5) 0.7500 0.7500
C8_6 C 0.5466(4) 0.6758(5) 0.7428(2)
H6_6 H 0.5774 0.6215 0.7376
C9_6 C 0.5466(4) 0.8242(5) 0.7572(2)
H7_6 H 0.5774 0.8785 0.7624
C10_6 C 0.4534(4) 0.8242(5) 0.7572(2)
H8_6 H 0.4226 0.8785 0.7624
C5_7 C 0.5466(4) 0.6758(5) 0.2572(2)
H3_7 H 0.5774 0.6215 0.2624
N6_7 N 0.4044(5) 0.7500 0.2500
C8_7 C 0.4534(4) 0.6758(5) 0.2572(2)
H6_7 H 0.4226 0.6215 0.2624
C9_7 C 0.4534(4) 0.8242(5) 0.2428(2)
H7_7 H 0.4226 0.8785 0.2376
C10_7 C 0.5466(4) 0.8242(5) 0.2428(2)
H8_7 H 0.5774 0.8785 0.2376
C5_8 C 0.4534(4) 0.3242(5) 0.2572(2)
H3_8 H 0.4226 0.3785 0.2624
N6_8 N 0.5956(5) 0.2500 0.2500
C8_8 C 0.5466(4) 0.3242(5) 0.2572(2)
H6_8 H 0.5774 0.3785 0.2624
C9_8 C 0.5466(4) 0.1758(5) 0.2428(2)
H7_8 H 0.5774 0.1215 0.2376
C10_8 C 0.4534(4) 0.1758(5) 0.2428(2)
H8_8 H 0.4226 0.1215 0.2376
Pt1_11 Pt 0.76694(2) 0.5000 0.374987(10)
C1_7 C 0.7643(3) 0.5941(3) 0.42245(19)
C2_7 C 0.7635(4) 0.5936(4) 0.32740(19)
C3_11 C 0.5482(7) 0.6698(6) 0.5000
C4_11 C 0.5482(7) 0.8175(7) 0.5000
H1_11 H 0.5793 0.6146 0.5000
H2_11 H 0.5793 0.8727 0.5000
C6_11 C 0.4518(7) 0.6698(6) 0.5000
C7_11 C 0.4518(7) 0.8175(7) 0.5000
H4_11 H 0.4207 0.6146 0.5000
H5_11 H 0.4207 0.8727 0.5000
N7_7 N 0.7572(3) 0.3526(3) 0.30008(18)
C11_7 C 0.7643(3) 0.4059(3) 0.42245(19)
C12_7 C 0.7635(4) 0.4064(4) 0.32740(19)
Pt2_11 Pt 0.76694(2) 0.5000 0.625013(10)
N9_7 N 0.7572(3) 0.6474(3) 0.69992(18)
C13_7 C 0.7643(3) 0.5941(3) 0.57755(19)
C14_7 C 0.7635(4) 0.5936(4) 0.67260(19)
C15_7 C 0.7643(3) 0.4059(3) 0.57755(19)
C16_7 C 0.7635(4) 0.4064(4) 0.67260(19)
Pt1_12 Pt 0.23306(2) 0.5000 0.374987(10)
C1_8 C 0.2357(3) 0.4059(3) 0.42245(19)
C2_8 C 0.2365(4) 0.4064(4) 0.32740(19)
C3_12 C 0.4518(7) 0.3302(6) 0.5000
C4_12 C 0.4518(7) 0.1825(7) 0.5000
H1_12 H 0.4207 0.3854 0.5000
H2_12 H 0.4207 0.1273 0.5000
C6_12 C 0.5482(7) 0.3302(6) 0.5000
C7_12 C 0.5482(7) 0.1825(7) 0.5000
H4_12 H 0.5793 0.3854 0.5000
H5_12 H 0.5793 0.1273 0.5000
N7_8 N 0.2428(3) 0.6474(3) 0.30008(18)
C11_8 C 0.2357(3) 0.5941(3) 0.42245(19)
C12_8 C 0.2365(4) 0.5936(4) 0.32740(19)
Pt2_12 Pt 0.23306(2) 0.5000 0.625013(10)
N9_8 N 0.2428(3) 0.3526(3) 0.69992(18)
C13_8 C 0.2357(3) 0.4059(3) 0.57755(19)
C14_8 C 0.2365(4) 0.4064(4) 0.67260(19)
C15_8 C 0.2357(3) 0.5941(3) 0.57755(19)
C16_8 C 0.2365(4) 0.5936(4) 0.67260(19)
loop_
_geom_bond_atom_site_label_1
_geom_bond_atom_site_label_2
_geom_bond_site_symmetry_1
_geom_bond_site_symmetry_2
Pt1 C1 1_555 1_555
Fe1 N2 1_555 1_555
Fe2 N1 1_555 1_555
N1 C2 1_555 1_555
N2 C1 1_555 1_555
N3 Fe1 1_555 1_555
N4 Fe2 1_555 1_555
C2 Pt1 1_555 1_555
C3 N3 1_555 1_555
C4 N3 1_555 1_555
C5 N4 1_555 1_555
H1 C3 1_555 1_555
H2 C4 1_555 1_555
H3 C5 1_555 1_555
C10 N4 1_555 1_555
H8 C10 1_555 1_555
Pt2 C13 1_555 1_555
N9 C14 1_555 1_555
N10 Fe1 1_555 1_555
C13 N10 1_555 1_555
C14 Pt2 1_555 1_555
Fe8 N9 1_555 1_555
N13 Fe2 1_555 1_555
N14 Fe2 1_555 1_555
N15 Fe2 1_555 1_555
N16 Fe1 1_555 1_555
N17 Fe1 1_555 1_555
N18 Fe1 1_555 1_555
N19 Fe2 1_555 1_555
N7 C12 1_555 1_555
N8 C11 1_555 1_555
C11 Pt1_2 1_555 1_555
C12 Pt1_2 1_555 1_555
N11 C16 1_555 1_555
N12 C15 1_555 1_555
C15 Pt2_2 1_555 1_555
C16 Pt2_2 1_555 1_555
Fe4 N8 1_555 1_555
Fe6 N7 1_555 1_555
Fe7 N11 1_555 1_555
N12 Fe4 1_555 1_555
N5 C6 1_555 1_555
H4 C6 1_555 1_555
H5 C7 1_555 1_555
N6 C8 1_555 1_555
H6 C8 1_555 1_555
C9 N6 1_555 1_555
H7 C9 1_555 1_555
Fe3 N5 1_555 1_555
Fe5 N6 1_555 1_555
N5 C7 1_555 1_555
N5_2 C6_2 1_555 1_555
H4_2 C6_2 1_555 1_555
H5_2 C7_2 1_555 1_555
N6_2 C8_2 1_555 1_555
H6_2 C8_2 1_555 1_555
C9_2 N6_2 1_555 1_555
H7_2 C9_2 1_555 1_555
Fe4 N5_2 1_555 1_555
Fe6 N6_2 1_555 1_555
N5_2 C7_2 1_555 1_555
N7_2 C12_2 1_555 1_555
N8_2 C11_2 1_555 1_555
C11_2 Pt1_3 1_555 1_555
C12_2 Pt1_3 1_555 1_555
N11_2 C16_2 1_555 1_555
N12_2 C15_2 1_555 1_555
C15_2 Pt2_3 1_555 1_555
C16_2 Pt2_3 1_555 1_555
Fe3 N8_2 1_555 1_555
Fe5 N7_2 1_555 1_555
Fe7_2 N11_2 1_555 1_555
N12_2 Fe3 1_555 1_555
Pt1_4 C1_2 1_555 1_555
Fe1_2 N2_2 1_555 1_555
Fe2_2 N1_2 1_555 1_555
N1_2 C2_2 1_555 1_555
N2_2 C1_2 1_555 1_555
N3_2 Fe1_2 1_555 1_555
N4_2 Fe2_2 1_555 1_555
C2_2 Pt1_4 1_555 1_555
C3_2 N3_2 1_555 1_555
C4_2 N3_2 1_555 1_555
C5_2 N4_2 1_555 1_555
H1_2 C3_2 1_555 1_555
H2_2 C4_2 1_555 1_555
H3_2 C5_2 1_555 1_555
C10_2 N4_2 1_555 1_555
H8_2 C10_2 1_555 1_555
Pt2_4 C13_2 1_555 1_555
N9_2 C14_2 1_555 1_555
N10_2 Fe1_2 1_555 1_555
C13_2 N10_2 1_555 1_555
C14_2 Pt2_4 1_555 1_555
Fe8_2 N9_2 1_555 1_555
N13_2 Fe2_2 1_555 1_555
N14_2 Fe2_2 1_555 1_555
N15_2 Fe2_2 1_555 1_555
N16_2 Fe1_2 1_555 1_555
N17_2 Fe1_2 1_555 1_555
N18_2 Fe1_2 1_555 1_555
N19_2 Fe2_2 1_555 1_555
N4_3 Fe7 1_555 1_555
C5_3 N4_3 1_555 1_555
H3_3 C5_3 1_555 1_555
C10_3 N4_3 1_555 1_555
H8_3 C10_3 1_555 1_555
N13_3 Fe7 1_555 1_555
N14_3 Fe7 1_555 1_555
N15_3 Fe7 1_555 1_555
N16_3 Fe4 1_555 1_555
N17_3 Fe4 1_555 1_555
N18_3 Fe4 1_555 1_555
N19_3 Fe7 1_555 1_555
N6_3 C8_3 1_555 1_555
H6_3 C8_3 1_555 1_555
C9_3 N6_3 1_555 1_555
H7_3 C9_3 1_555 1_555
Fe8_2 N6_3 1_555 1_555
N6_4 C8_4 1_555 1_555
H6_4 C8_4 1_555 1_555
C9_4 N6_4 1_555 1_555
H7_4 C9_4 1_555 1_555
Fe8 N6_4 1_555 1_555
N4_4 Fe7_2 1_555 1_555
C5_4 N4_4 1_555 1_555
H3_4 C5_4 1_555 1_555
C10_4 N4_4 1_555 1_555
H8_4 C10_4 1_555 1_555
N13_4 Fe7_2 1_555 1_555
N14_4 Fe7_2 1_555 1_555
N15_4 Fe7_2 1_555 1_555
N16_4 Fe3 1_555 1_555
N17_4 Fe3 1_555 1_555
N18_4 Fe3 1_555 1_555
N19_4 Fe7_2 1_555 1_555
N3_3 Fe1_3 1_555 1_555
C3_3 N3_3 1_555 1_555
C4_3 N3_3 1_555 1_555
H1_3 C3_3 1_555 1_555
H2_3 C4_3 1_555 1_555
Pt2_5 C13_3 1_555 1_555
N9_3 C14_3 1_555 1_555
N10_3 Fe1_3 1_555 1_555
C13_3 N10_3 1_555 1_555
C14_3 Pt2_5 1_555 1_555
N13 C16_3 1_555 1_555
N12_3 C15_3 1_555 1_555
C15_3 Pt2_5 1_555 1_555
C16_3 Pt2_5 1_555 1_555
Fe6 N9_3 1_555 1_555
N17_5 Fe1_3 1_555 1_555
N18_5 Fe1_3 1_555 1_555
N12_3 Fe4_2 1_555 1_555
Pt1_5 C1_3 1_555 1_555
Fe1_4 N2_3 1_555 1_555
N13_3 C2_3 1_555 1_555
N2_3 C1_3 1_555 1_555
N3_4 Fe1_4 1_555 1_555
C2_3 Pt1_5 1_555 1_555
C3_4 N3_4 1_555 1_555
C4_4 N3_4 1_555 1_555
H1_4 C3_4 1_555 1_555
H2_4 C4_4 1_555 1_555
N7_3 C12_3 1_555 1_555
N8_3 C11_3 1_555 1_555
C11_3 Pt1_5 1_555 1_555
C12_3 Pt1_5 1_555 1_555
Fe4_3 N8_3 1_555 1_555
Fe8 N7_3 1_555 1_555
N16_5 Fe1_4 1_555 1_555
N18_6 Fe1_4 1_555 1_555
N5_3 C6_3 1_555 1_555
H4_3 C6_3 1_555 1_555
H5_3 C7_3 1_555 1_555
Fe3_2 N5_3 1_555 1_555
N5_3 C7_3 1_555 1_555
N5_4 C6_4 1_555 1_555
H4_4 C6_4 1_555 1_555
H5_4 C7_4 1_555 1_555
Fe3_3 N5_4 1_555 1_555
N5_4 C7_4 1_555 1_555
N5_5 C6_5 1_555 1_555
H4_5 C6_5 1_555 1_555
H5_5 C7_5 1_555 1_555
Fe4_2 N5_5 1_555 1_555
N5_5 C7_5 1_555 1_555
N5_6 C6_6 1_555 1_555
H4_6 C6_6 1_555 1_555
H5_6 C7_6 1_555 1_555
Fe4_3 N5_6 1_555 1_555
N5_6 C7_6 1_555 1_555
N3_5 Fe1_5 1_555 1_555
C3_5 N3_5 1_555 1_555
C4_5 N3_5 1_555 1_555
H1_5 C3_5 1_555 1_555
H2_5 C4_5 1_555 1_555
Pt2_6 C13_4 1_555 1_555
N9_4 C14_4 1_555 1_555
N10_4 Fe1_5 1_555 1_555
C13_4 N10_4 1_555 1_555
C14_4 Pt2_6 1_555 1_555
N13_2 C16_4 1_555 1_555
N12_4 C15_4 1_555 1_555
C15_4 Pt2_6 1_555 1_555
C16_4 Pt2_6 1_555 1_555
Fe5 N9_4 1_555 1_555
N17_6 Fe1_5 1_555 1_555
N18_7 Fe1_5 1_555 1_555
N12_4 Fe3_2 1_555 1_555
Pt1_6 C1_4 1_555 1_555
Fe1_6 N2_4 1_555 1_555
N13_4 C2_4 1_555 1_555
N2_4 C1_4 1_555 1_555
N3_6 Fe1_6 1_555 1_555
C2_4 Pt1_6 1_555 1_555
C3_6 N3_6 1_555 1_555
C4_6 N3_6 1_555 1_555
H1_6 C3_6 1_555 1_555
H2_6 C4_6 1_555 1_555
N7_4 C12_4 1_555 1_555
N8_4 C11_4 1_555 1_555
C11_4 Pt1_6 1_555 1_555
C12_4 Pt1_6 1_555 1_555
Fe3_3 N8_4 1_555 1_555
Fe8_2 N7_4 1_555 1_555
N16_6 Fe1_6 1_555 1_555
N18_8 Fe1_6 1_555 1_555
N16_7 Fe4_2 1_555 1_555
N18_9 Fe4_2 1_555 1_555
N17_7 Fe4_3 1_555 1_555
N18_10 Fe4_3 1_555 1_555
N16_8 Fe3_2 1_555 1_555
N18_11 Fe3_2 1_555 1_555
N17_8 Fe3_3 1_555 1_555
N18_12 Fe3_3 1_555 1_555
C3_7 N18_7 1_555 1_555
C4_7 N18_7 1_555 1_555
H1_7 C3_7 1_555 1_555
H2_7 C4_7 1_555 1_555
N18_9 C6_7 1_555 1_555
C6_7 C3_7 1_555 1_555
C7_7 C4_7 1_555 1_555
H4_7 C6_7 1_555 1_555
H5_7 C7_7 1_555 1_555
Pt2_7 C13_5 1_555 1_555
N9_5 C14_5 1_555 1_555
C13_5 N17_6 1_555 1_555
C14_5 Pt2_7 1_555 1_555
Fe5 N9_5 1_555 1_555
N18_9 C7_7 1_555 1_555
Pt1_7 C1_5 1_555 1_555
N14_4 C2_5 1_555 1_555
N16_6 C1_5 1_555 1_555
C2_5 Pt1_7 1_555 1_555
C3_8 N18_8 1_555 1_555
C4_8 N18_8 1_555 1_555
C5_5 N19_4 1_555 1_555
H1_8 C3_8 1_555 1_555
H2_8 C4_8 1_555 1_555
H3_5 C5_5 1_555 1_555
N18_10 C6_8 1_555 1_555
C6_8 C3_8 1_555 1_555
C7_8 C4_8 1_555 1_555
H4_8 C6_8 1_555 1_555
H5_8 C7_8 1_555 1_555
N6_5 C8_5 1_555 1_555
C8_5 C5_5 1_555 1_555
H6_5 C8_5 1_555 1_555
C9_5 N6_5 1_555 1_555
H7_5 C9_5 1_555 1_555
C10_5 N19_4 1_555 1_555
H8_5 C10_5 1_555 1_555
Fe8 N6_5 1_555 1_555
N18_10 C7_8 1_555 1_555
C9_5 C10_5 1_555 1_555
N14_2 C16_5 1_555 1_555
N16_8 C15_5 1_555 1_555
C15_5 Pt2_8 1_555 1_555
C16_5 Pt2_8 1_555 1_555
N7_5 C12_5 1_555 1_555
N17_8 C11_5 1_555 1_555
C11_5 Pt1_8 1_555 1_555
C12_5 Pt1_8 1_555 1_555
Fe8_2 N7_5 1_555 1_555
N14 C16_6 1_555 1_555
N16_7 C15_6 1_555 1_555
C15_6 Pt2_9 1_555 1_555
C16_6 Pt2_9 1_555 1_555
N7_6 C12_6 1_555 1_555
N17_7 C11_6 1_555 1_555
C11_6 Pt1_9 1_555 1_555
C12_6 Pt1_9 1_555 1_555
Fe8 N7_6 1_555 1_555
C3_9 N18_5 1_555 1_555
C4_9 N18_5 1_555 1_555
H1_9 C3_9 1_555 1_555
H2_9 C4_9 1_555 1_555
N18_11 C6_9 1_555 1_555
C6_9 C3_9 1_555 1_555
C7_9 C4_9 1_555 1_555
H4_9 C6_9 1_555 1_555
H5_9 C7_9 1_555 1_555
Pt2_10 C13_6 1_555 1_555
N9_6 C14_6 1_555 1_555
C13_6 N17_5 1_555 1_555
C14_6 Pt2_10 1_555 1_555
Fe6 N9_6 1_555 1_555
N18_11 C7_9 1_555 1_555
Pt1_10 C1_6 1_555 1_555
N14_3 C2_6 1_555 1_555
N16_5 C1_6 1_555 1_555
C2_6 Pt1_10 1_555 1_555
C3_10 N18_6 1_555 1_555
C4_10 N18_6 1_555 1_555
C5_6 N19_3 1_555 1_555
H1_10 C3_10 1_555 1_555
H2_10 C4_10 1_555 1_555
H3_6 C5_6 1_555 1_555
N18_12 C6_10 1_555 1_555
C6_10 C3_10 1_555 1_555
C7_10 C4_10 1_555 1_555
H4_10 C6_10 1_555 1_555
H5_10 C7_10 1_555 1_555
N6_6 C8_6 1_555 1_555
C8_6 C5_6 1_555 1_555
H6_6 C8_6 1_555 1_555
C9_6 N6_6 1_555 1_555
H7_6 C9_6 1_555 1_555
C10_6 N19_3 1_555 1_555
H8_6 C10_6 1_555 1_555
Fe8_2 N6_6 1_555 1_555
N18_12 C7_10 1_555 1_555
C9_6 C10_6 1_555 1_555
C5_7 N19_2 1_555 1_555
H3_7 C5_7 1_555 1_555
N6_7 C8_7 1_555 1_555
C8_7 C5_7 1_555 1_555
H6_7 C8_7 1_555 1_555
C9_7 N6_7 1_555 1_555
H7_7 C9_7 1_555 1_555
C10_7 N19_2 1_555 1_555
H8_7 C10_7 1_555 1_555
Fe6 N6_7 1_555 1_555
C9_7 C10_7 1_555 1_555
C5_8 N19 1_555 1_555
H3_8 C5_8 1_555 1_555
N6_8 C8_8 1_555 1_555
C8_8 C5_8 1_555 1_555
H6_8 C8_8 1_555 1_555
C9_8 N6_8 1_555 1_555
H7_8 C9_8 1_555 1_555
C10_8 N19 1_555 1_555
H8_8 C10_8 1_555 1_555
Fe5 N6_8 1_555 1_555
C9_8 C10_8 1_555 1_555
Pt1_11 C1_7 1_555 1_555
N15_2 C2_7 1_555 1_555
N16_2 C1_7 1_555 1_555
C2_7 Pt1_11 1_555 1_555
C3_11 N18_2 1_555 1_555
C4_11 N18_2 1_555 1_555
H1_11 C3_11 1_555 1_555
H2_11 C4_11 1_555 1_555
N18_3 C6_11 1_555 1_555
C6_11 C3_11 1_555 1_555
C7_11 C4_11 1_555 1_555
H4_11 C6_11 1_555 1_555
H5_11 C7_11 1_555 1_555
N7_7 C12_7 1_555 1_555
N17_4 C11_7 1_555 1_555
C11_7 Pt1_11 1_555 1_555
C12_7 Pt1_11 1_555 1_555
Pt2_11 C13_7 1_555 1_555
N9_7 C14_7 1_555 1_555
C13_7 N17_2 1_555 1_555
C14_7 Pt2_11 1_555 1_555
N15_4 C16_7 1_555 1_555
N16_4 C15_7 1_555 1_555
C15_7 Pt2_11 1_555 1_555
C16_7 Pt2_11 1_555 1_555
Fe5 N7_7 1_555 1_555
Fe8_2 N9_7 1_555 1_555
N18_3 C7_11 1_555 1_555
Pt1_12 C1_8 1_555 1_555
N15 C2_8 1_555 1_555
N16 C1_8 1_555 1_555
C2_8 Pt1_12 1_555 1_555
C3_12 N18 1_555 1_555
C4_12 N18 1_555 1_555
H1_12 C3_12 1_555 1_555
H2_12 C4_12 1_555 1_555
N18_4 C6_12 1_555 1_555
C6_12 C3_12 1_555 1_555
C7_12 C4_12 1_555 1_555
H4_12 C6_12 1_555 1_555
H5_12 C7_12 1_555 1_555
N7_8 C12_8 1_555 1_555
N17_3 C11_8 1_555 1_555
C11_8 Pt1_12 1_555 1_555
C12_8 Pt1_12 1_555 1_555
Pt2_12 C13_8 1_555 1_555
N9_8 C14_8 1_555 1_555
C13_8 N17 1_555 1_555
C14_8 Pt2_12 1_555 1_555
N15_3 C16_8 1_555 1_555
N16_3 C15_8 1_555 1_555
C15_8 Pt2_12 1_555 1_555
C16_8 Pt2_12 1_555 1_555
Fe6 N7_8 1_555 1_555
Fe8 N9_8 1_555 1_555
N18_4 C7_12 1_555 1_555

#END
