
###############################################################################
#
# This file contains modified crystal structure data generated from the
# MOF subset of the Cambridge Structural Database (CSD) v543 
# hosted by the Cambridge Crystallographic Data Centre (CCDC).
#
# This work is licensed under the Creative Commons
# Attribution-NonCommercial-ShareAlike 4.0 International License.
# To view a copy of this license, visit
# http://creativecommons.org/licenses/by-nc-sa/4.0/
# or send a letter to
# Creative Commons, PO Box 1866, Mountain View, CA 94042, USA.
#
# CIF created using the CSD Python API on 29 September 2022
# The structure has been converted into the P1 space group
# The structure has a 3D framework
# The original CSD entry DOYHOQ is in the triclinic crystal system
# The framework has been calculated to contain at least 10.0% void space
# The void calculation uses a probe of radius 1.32A, grid spacing 0.4
# The framework is charged, counterions have been retained in the structure
# H atom positions have been added when not included in the experimental data
#
###############################################################################

data_DOYHOQ
_chemical_formula_moiety         '(C72 H34 O34 Zn6 2-)n'
_symmetry_cell_setting           triclinic
_symmetry_space_group_name_H-M   'P 1'
_symmetry_Int_Tables_number      1
_space_group_name_Hall           'P 1'
loop_
_symmetry_equiv_pos_site_id
_symmetry_equiv_pos_as_xyz
1 x,y,z
_cell_length_a                   12.4752(7)
_cell_length_b                   15.3763(9)
_cell_length_c                   17.9551(12)
_cell_angle_alpha                69.517(6)
_cell_angle_beta                 75.565(5)
_cell_angle_gamma                86.284(5)
_cell_volume                     3123.63
loop_
_atom_site_label
_atom_site_type_symbol
_atom_site_fract_x
_atom_site_fract_y
_atom_site_fract_z
_atom_site_U_iso_or_equiv
_atom_site_thermal_displace_type
O3 O 0.0123(3) 0.3327(3) 0.1683(3) 0.0602 Uani
Zn8 Zn 0.00627(4) 0.23868(4) 0.34808(4) 0.0338 Uani
Zn13 Zn 0.12737(4) 0.41399(4) 0.16799(4) 0.0341 Uani
O14 O 0.0620(3) 0.4690(3) 0.2512(3) 0.0559 Uani
O30 O 0.0187(3) 0.1542(2) 0.4568(2) 0.0442 Uani
O36 O 0.1062(3) 0.0185(3) 0.7340(3) 0.0504 Uani
H23 H 0.0412 0.0749 0.6028 0.0470 Uiso
Zn18 Zn 0.17783(5) 0.03843(4) 0.81144(4) 0.0389 Uani
O39 O 0.1701(2) 0.2466(2) 0.3007(2) 0.0384 Uani
O41 O 0.2570(2) 0.3401(2) 0.17599(19) 0.0324 Uani
O46 O 0.1386(3) 0.5034(3) 0.0604(2) 0.0509 Uani
O6 O 0.9211(3) 0.2200(2) 0.2763(2) 0.0416 Uani
O7 O 0.6994(3) 0.0458(2) 0.1705(2) 0.0408 Uani
C1 C 0.3486(3) 0.2047(3) 0.2397(3) 0.0276 Uani
C3 C 0.8421(3) 0.2818(3) 0.1616(3) 0.0380 Uani
C4 C 0.2283(4) 0.0589(3) 0.3145(3) 0.0321 Uani
C5 C 0.3370(3) 0.1093(3) 0.2797(2) 0.0285 Uani
C6 C 0.6591(3) 0.2443(3) 0.1592(3) 0.0322 Uani
C7 C 0.7449(3) 0.2295(3) 0.1987(3) 0.0368 Uani
H2 H 0.7366 0.1833 0.2515 0.0440 Uiso
C8 C 0.4534(3) 0.2468(3) 0.2008(3) 0.0271 Uani
H3 H 0.4598 0.3122 0.1736 0.0330 Uiso
C9 C 0.0536(4) 0.0194(4) 0.2953(3) 0.0471 Uani
C10 C 0.5483(3) 0.1944(3) 0.2012(3) 0.0297 Uani
C11 C 0.9314(4) 0.2761(3) 0.2052(3) 0.0386 Uani
C13 C 0.4326(4) 0.0567(3) 0.2811(3) 0.0315 Uani
C14 C 0.5377(4) 0.0970(3) 0.2422(3) 0.0331 Uani
C16 C 0.2501(3) 0.2665(3) 0.2395(3) 0.0277 Uani
C17 C 0.6310(3) 0.0334(3) 0.2395(3) 0.0326 Uani
C18 C 0.6743(3) 0.3088(3) 0.0813(3) 0.0332 Uani
H5 H 0.6160 0.3177 0.0542 0.0390 Uiso
C19 C 0.8560(4) 0.3490(3) 0.0827(3) 0.0404 Uani
H6 H 0.9222 0.3859 0.0579 0.0490 Uiso
C21 C 0.7718(4) 0.3616(3) 0.0408(3) 0.0400 Uani
C24 C 0.1537(4) 0.0710(3) 0.2644(3) 0.0359 Uani
H8 H 0.1712 0.1140 0.2099 0.0430 Uiso
O17 O 0.0169(5) 0.0777(5) 0.1638(3) 0.0932 Uani
H25 H 0.931259 0.0653492 0.0517416 . .
O4 O 0.8614(3) 0.4966(3) 0.9396(2) 0.0509 Uani
O9 O 0.7305(3) 0.4331(3) 0.9118(2) 0.0602 Uani
C25 C 0.7865(4) 0.4342(4) 0.9578(3) 0.0488 Uani
Zn16 Zn 0.87263(4) 0.58601(4) 0.83201(4) 0.0341 Uani
Zn3 Zn 0.82217(5) 0.96157(4) 0.18856(4) 0.0389 Uani
O8 O 0.1583(4) 0.8422(3) 0.5404(3) 0.0634 Uani
O10 O 0.7862(3) 0.8278(2) 0.2244(3) 0.0474 Uani
O11 O 0.6408(3) 0.9694(3) 0.3034(2) 0.0478 Uani
O13 O 0.9525(3) 0.3601(2) 0.3569(3) 0.0518 Uani
C2 C 0.2027(4) 0.9934(3) 0.3928(3) 0.0330 Uani
H1 H 0.2548 0.9810 0.4256 0.0400 Uiso
O15 O 0.9106(5) 0.9983(4) 0.0724(4) 0.0916 Uani
O16 O 0.9688(4) 0.8029(3) 0.2088(3) 0.0704 Uani
C12 C 0.1004(4) 0.9450(3) 0.4239(3) 0.0330 Uani
H4 H 0.4257 0.9916 0.3095 0.0380 Uiso
C15 C 0.9756(5) 0.4433(4) 0.3084(4) 0.0484 Uani
C20 C 0.0279(4) 0.9582(3) 0.3757(3) 0.0387 Uani
C22 C 0.0784(5) 0.8737(3) 0.5083(3) 0.0408 Uani
C23 C 0.8958(4) 0.5173(4) 0.3209(4) 0.0498 Uani
C26 C 0.5052(4) 0.5647(4) 0.4249(4) 0.0437 Uani
C28 C 0.9203(4) 0.6095(4) 0.2733(4) 0.0479 Uani
H9 H 0.9898 0.6273 0.2350 0.0570 Uiso
C29 C 0.8420(4) 0.6757(4) 0.2823(4) 0.0463 Uani
C30 C 0.6035(4) 0.5296(4) 0.4431(3) 0.0426 Uani
C31 C 0.7387(4) 0.6502(4) 0.3347(3) 0.0429 Uani
H10 H 0.6849 0.6963 0.3375 0.0510 Uiso
C32 C 0.7914(5) 0.4900(4) 0.3773(4) 0.0580 Uani
H11 H 0.7753 0.4267 0.4104 0.0700 Uiso
C33 C 0.7119(4) 0.5581(4) 0.3835(4) 0.0490 Uani
C34 C 0.8703(5) 0.7769(4) 0.2333(4) 0.0497 Uani
C35 C 0.4036(5) 0.5370(4) 0.4794(4) 0.0555 Uani
H12 H 0.3380 0.5635 0.4640 0.0670 Uiso
O18 O 0.5221(8) 0.6270(7) 0.2821(6) 0.1366 Uani
O19 O 0.4292(10) 0.7169(8) 0.3499(8) 0.1608 Uani
C36 C 0.4827(8) 0.6419(7) 0.3491(6) 0.0848 Uani
O20 O 0.2138(3) 0.1722(2) 0.7756(3) 0.0474 Uani
O21 O 0.0475(3) 0.6399(2) 0.6431(3) 0.0518 Uani
O23 O 0.0312(4) 0.1971(3) 0.7912(3) 0.0704 Uani
C37 C 0.0244(5) 0.5567(4) 0.6916(4) 0.0484 Uani
C38 C 0.1042(4) 0.4827(4) 0.6791(4) 0.0498 Uani
C39 C 0.4948(4) 0.4353(4) 0.5751(4) 0.0437 Uani
C40 C 0.0797(4) 0.3905(4) 0.7267(4) 0.0479 Uani
H13 H 0.0102 0.3727 0.7650 0.0570 Uiso
C41 C 0.1580(4) 0.3243(4) 0.7177(4) 0.0463 Uani
C42 C 0.3965(4) 0.4704(4) 0.5569(3) 0.0426 Uani
C43 C 0.2613(4) 0.3498(4) 0.6653(3) 0.0429 Uani
H14 H 0.3151 0.3037 0.6625 0.0510 Uiso
C44 C 0.2086(5) 0.5100(4) 0.6227(4) 0.0580 Uani
H15 H 0.2247 0.5733 0.5896 0.0700 Uiso
C45 C 0.2881(4) 0.4419(4) 0.6165(4) 0.0490 Uani
C46 C 0.1297(5) 0.2231(4) 0.7667(4) 0.0497 Uani
C47 C 0.5964(5) 0.4630(4) 0.5206(4) 0.0555 Uani
H16 H 0.6620 0.4365 0.5360 0.0670 Uiso
O24 O 0.4779(8) 0.3730(7) 0.7179(6) 0.1366 Uani
O25 O 0.5708(10) 0.2831(8) 0.6501(8) 0.1608 Uani
C48 C 0.5173(8) 0.3581(7) 0.6509(6) 0.0848 Uani
O33 O 0.8417(4) 0.1578(3) 0.4596(3) 0.0634 Uani
O35 O 0.3592(3) 0.0306(3) 0.6966(2) 0.0478 Uani
C50 C 0.7973(4) 0.0066(3) 0.6072(3) 0.0330 Uani
H17 H 0.7452 0.0190 0.5744 0.0400 Uiso
O37 O 0.0894(5) 0.0017(4) 0.9276(4) 0.0916 Uani
C60 C 0.8996(4) 0.0550(3) 0.5761(3) 0.0330 Uani
H20 H 0.5743 0.0084 0.6905 0.0380 Uiso
C67 C 0.9721(4) 0.0418(3) 0.6243(3) 0.0387 Uani
C69 C 0.9216(5) 0.1263(3) 0.4917(3) 0.0408 Uani
O48 O 0.0789(3) 0.7800(2) 0.7237(2) 0.0416 Uani
O49 O 0.8938(3) 0.9815(3) 0.2660(3) 0.0504 Uani
H26 H 0.97874 0.961226 0.0695915 . .
H27 H 0.46785 0.752548 0.372538 . .
H28 H 0.647163 0.299935 0.615386 . .
H29 H 0.0209579 0.0384074 0.930346 . .
O34 O 0.2695(3) 0.5669(3) 0.0882(2) 0.0602 Uani
C71 C 0.2135(4) 0.5658(4) 0.0422(3) 0.0488 Uani
O26 O 0.8299(2) 0.7534(2) 0.6993(2) 0.0384 Uani
O27 O 0.7430(2) 0.6599(2) 0.82401(19) 0.0324 Uani
O32 O 0.3006(3) 0.9542(2) 0.8295(2) 0.0408 Uani
C49 C 0.6514(3) 0.7953(3) 0.7603(3) 0.0276 Uani
C51 C 0.1579(3) 0.7182(3) 0.8384(3) 0.0380 Uani
C52 C 0.7717(4) 0.9411(3) 0.6855(3) 0.0321 Uani
C53 C 0.6630(3) 0.8907(3) 0.7203(2) 0.0285 Uani
C54 C 0.3409(3) 0.7557(3) 0.8408(3) 0.0322 Uani
C55 C 0.2551(3) 0.7705(3) 0.8013(3) 0.0368 Uani
H18 H 0.2634 0.8167 0.7485 0.0440 Uiso
C56 C 0.5466(3) 0.7532(3) 0.7992(3) 0.0271 Uani
H19 H 0.5402 0.6878 0.8264 0.0330 Uiso
C57 C 0.9464(4) 0.9806(4) 0.7047(3) 0.0471 Uani
C58 C 0.4517(3) 0.8056(3) 0.7988(3) 0.0297 Uani
C59 C 0.0686(4) 0.7239(3) 0.7948(3) 0.0386 Uani
C61 C 0.5674(4) 0.9433(3) 0.7189(3) 0.0315 Uani
C62 C 0.4623(4) 0.9030(3) 0.7578(3) 0.0331 Uani
C63 C 0.7499(3) 0.7335(3) 0.7605(3) 0.0277 Uani
C64 C 0.3690(3) 0.9666(3) 0.7605(3) 0.0326 Uani
C65 C 0.3257(3) 0.6912(3) 0.9187(3) 0.0332 Uani
H21 H 0.3840 0.6823 0.9458 0.0390 Uiso
C66 C 0.1440(4) 0.6510(3) 0.9173(3) 0.0404 Uani
H22 H 0.0778 0.6141 0.9421 0.0490 Uiso
C68 C 0.2282(4) 0.6384(3) 0.9592(3) 0.0400 Uani
C70 C 0.8463(4) 0.9290(3) 0.7356(3) 0.0359 Uani
H24 H 0.8288 0.8860 0.7901 0.0430 Uiso
O38 O 0.9831(5) 0.9223(5) 0.8362(3) 0.0932 Uani
Zn10 Zn 0.99373(4) 0.76132(4) 0.65192(4) 0.0338 Uani
H30 H 0.0692644 0.934535 0.948404 . .
O5 O 0.9813(3) 0.8458(2) 0.5432(2) 0.0442 Uani
H7 H 0.9588 0.9251 0.3972 0.0470 Uiso
O22 O 0.9380(3) 0.5310(3) 0.7488(3) 0.0559 Uani
O44 O 0.9877(3) 0.6673(3) 0.8317(3) 0.0602 Uani
H30_2 H 0.930736 0.0654646 0.0515961 . .
H27_2 H 0.53215 0.247452 0.627462 . .
H28_2 H 0.352837 0.700065 0.384614 . .
H25_2 H 0.068741 0.934651 0.948258 . .
C72 C 0.0176(4) 0.9715(5) 0.7631(4) 0.0555 Uani
C27 C 0.9824(4) 0.0285(5) 0.2369(4) 0.0555 Uani
loop_
_atom_site_aniso_label
_atom_site_aniso_U_11
_atom_site_aniso_U_22
_atom_site_aniso_U_33
_atom_site_aniso_U_23
_atom_site_aniso_U_13
_atom_site_aniso_U_12
O3 0.0345 0.063 0.052 0.0252 -0.0149 -0.0239
Zn8 0.0197 0.0318 0.0328 0.0058 -0.001 0.0009
Zn13 0.0169 0.0297 0.0363 0.0101 -0.0027 -0.0024
O14 0.038 0.042 0.065 -0.012 0.0186 -0.001
O30 0.0405 0.0349 0.0348 0.0067 0.0048 -0.0052
O36 0.0324 0.056 0.058 -0.0078 -0.0163 -0.0126
Zn18 0.0316 0.0337 0.0471 -0.0081 -0.0108 0.0027
O39 0.0209 0.0454 0.0338 -0.0001 0.0009 -0.0013
O41 0.019 0.0322 0.0306 0.0052 -0.0023 0.002
O46 0.0347 0.0355 0.05 0.0226 -0.0055 -0.006
O6 0.0223 0.0369 0.0449 0.0112 -0.0067 -0.0057
O7 0.0349 0.0403 0.0426 -0.009 -0.0104 0.0072
C1 0.0123 0.03 0.029 0.0037 -0.0053 0.0023
C3 0.0192 0.036 0.041 0.007 -0.005 -0.0012
C4 0.027 0.029 0.025 0.009 -0.0046 -0.0047
C5 0.025 0.025 0.0247 0.0039 -0.0039 -0.0043
C6 0.0181 0.0236 0.039 0.0091 -0.0069 -0.0025
C7 0.0193 0.03 0.04 0.0155 -0.0097 -0.0011
C8 0.0173 0.0238 0.03 0.0029 -0.0048 -0.0016
C9 0.024 0.058 0.04 0.01 -0.0083 -0.016
C10 0.0181 0.029 0.029 0.0048 -0.0032 -0.0026
C11 0.0204 0.034 0.045 0.008 -0.0075 -0.0106
C13 0.027 0.0246 0.03 0.0092 -0.01 -0.0041
C14 0.026 0.032 0.03 0.0037 -0.0063 -0.0058
C16 0.0189 0.029 0.029 -0.0042 -0.0028 -0.0024
C17 0.0245 0.0211 0.037 0.009 -0.008 -0.0011
C18 0.0216 0.032 0.036 0.0011 -0.008 0.0001
C19 0.021 0.032 0.05 0.009 -0.009 -0.0035
C21 0.025 0.028 0.041 0.0163 -0.0029 -0.0008
C24 0.025 0.032 0.034 0.0099 -0.0066 -0.007
O17 0.079 0.127 0.054 0.016 -0.038 -0.045
O4 0.0347 0.0355 0.05 0.0226 -0.0055 -0.006
O9 0.046 0.065 0.041 0.0183 -0.0117 -0.0043
C25 0.025 0.05 0.041 0.016 0.001 -0.004
Zn16 0.0169 0.0297 0.0363 0.0101 -0.0027 -0.0024
Zn3 0.0316 0.0337 0.0471 -0.0081 -0.0108 0.0027
O8 0.054 0.064 0.049 0.019 -0.0212 -0.023
O10 0.0404 0.0279 0.072 -0.0191 -0.0085 0.0053
O11 0.031 0.0424 0.052 0.0039 -0.0083 0.0034
O13 0.0403 0.029 0.061 -0.0004 0.0089 0.0048
C2 0.031 0.024 0.028 0.0087 -0.0034 -0.0037
O15 0.083 0.089 0.065 -0.006 0.013 0.025
O16 0.055 0.048 0.085 -0.008 0.006 -0.013
C12 0.029 0.032 0.026 0.0014 0.0014 -0.0129
C15 0.039 0.033 0.057 -0.005 0.005 -0.012
C20 0.023 0.037 0.04 0.005 -0.0027 -0.0122
C22 0.049 0.03 0.033 0.0006 -0.004 -0.016
C23 0.033 0.04 0.059 -0.012 0.014 -0.007
C26 0.035 0.042 0.056 -0.018 -0.013 0.001
C28 0.029 0.049 0.055 -0.016 0.007 -0.004
C29 0.04 0.037 0.053 -0.012 0 -0.002
C30 0.038 0.038 0.046 -0.014 -0.003 0.01
C31 0.039 0.041 0.045 -0.018 0.001 0.001
C32 0.035 0.04 0.079 -0.014 0.013 -0.004
C33 0.032 0.04 0.066 -0.017 0.003 -0.002
C34 0.047 0.041 0.058 -0.016 -0.009 0.001
C35 0.032 0.038 0.087 -0.011 -0.014 0.005
O18 0.135 0.139 0.136 -0.054 -0.026 0.012
O19 0.173 0.143 0.177 -0.048 -0.073 0.01
C36 0.08 0.087 0.092 -0.04 -0.016 0.002
O20 0.0404 0.0279 0.072 -0.0191 -0.0085 0.0053
O21 0.0403 0.029 0.061 -0.0004 0.0089 0.0048
O23 0.055 0.048 0.085 -0.008 0.006 -0.013
C37 0.039 0.033 0.057 -0.005 0.005 -0.012
C38 0.033 0.04 0.059 -0.012 0.014 -0.007
C39 0.035 0.042 0.056 -0.018 -0.013 0.001
C40 0.029 0.049 0.055 -0.016 0.007 -0.004
C41 0.04 0.037 0.053 -0.012 0 -0.002
C42 0.038 0.038 0.046 -0.014 -0.003 0.01
C43 0.039 0.041 0.045 -0.018 0.001 0.001
C44 0.035 0.04 0.079 -0.014 0.013 -0.004
C45 0.032 0.04 0.066 -0.017 0.003 -0.002
C46 0.047 0.041 0.058 -0.016 -0.009 0.001
C47 0.032 0.038 0.087 -0.011 -0.014 0.005
O24 0.135 0.139 0.136 -0.054 -0.026 0.012
O25 0.173 0.143 0.177 -0.048 -0.073 0.01
C48 0.08 0.087 0.092 -0.04 -0.016 0.002
O33 0.054 0.064 0.049 0.019 -0.0212 -0.023
O35 0.031 0.0424 0.052 0.0039 -0.0083 0.0034
C50 0.031 0.024 0.028 0.0087 -0.0034 -0.0037
O37 0.083 0.089 0.065 -0.006 0.013 0.025
C60 0.029 0.032 0.026 0.0014 0.0014 -0.0129
C67 0.023 0.037 0.04 0.005 -0.0027 -0.0122
C69 0.049 0.03 0.033 0.0006 -0.004 -0.016
O48 0.0223 0.0369 0.0449 0.0112 -0.0067 -0.0057
O49 0.0324 0.056 0.058 -0.0078 -0.0163 -0.0126
O34 0.046 0.065 0.041 0.0183 -0.0117 -0.0043
C71 0.025 0.05 0.041 0.016 0.001 -0.004
O26 0.0209 0.0454 0.0338 -0.0001 0.0009 -0.0013
O27 0.019 0.0322 0.0306 0.0052 -0.0023 0.002
O32 0.0349 0.0403 0.0426 -0.009 -0.0104 0.0072
C49 0.0123 0.03 0.029 0.0037 -0.0053 0.0023
C51 0.0192 0.036 0.041 0.007 -0.005 -0.0012
C52 0.027 0.029 0.025 0.009 -0.0046 -0.0047
C53 0.025 0.025 0.0247 0.0039 -0.0039 -0.0043
C54 0.0181 0.0236 0.039 0.0091 -0.0069 -0.0025
C55 0.0193 0.03 0.04 0.0155 -0.0097 -0.0011
C56 0.0173 0.0238 0.03 0.0029 -0.0048 -0.0016
C57 0.024 0.058 0.04 0.01 -0.0083 -0.016
C58 0.0181 0.029 0.029 0.0048 -0.0032 -0.0026
C59 0.0204 0.034 0.045 0.008 -0.0075 -0.0106
C61 0.027 0.0246 0.03 0.0092 -0.01 -0.0041
C62 0.026 0.032 0.03 0.0037 -0.0063 -0.0058
C63 0.0189 0.029 0.029 -0.0042 -0.0028 -0.0024
C64 0.0245 0.0211 0.037 0.009 -0.008 -0.0011
C65 0.0216 0.032 0.036 0.0011 -0.008 0.0001
C66 0.021 0.032 0.05 0.009 -0.009 -0.0035
C68 0.025 0.028 0.041 0.0163 -0.0029 -0.0008
C70 0.025 0.032 0.034 0.0099 -0.0066 -0.007
O38 0.079 0.127 0.054 0.016 -0.038 -0.045
Zn10 0.0197 0.0318 0.0328 0.0058 -0.001 0.0009
O5 0.0405 0.0349 0.0348 0.0067 0.0048 -0.0052
O22 0.038 0.042 0.065 -0.012 0.0186 -0.001
O44 0.0345 0.063 0.052 0.0252 -0.0149 -0.0239
C72 0.031 0.065 0.058 -0.001 -0.012 -0.022
C27 0.031 0.065 0.058 -0.001 -0.012 -0.022
loop_
_geom_bond_atom_site_label_1
_geom_bond_atom_site_label_2
_geom_bond_site_symmetry_1
_geom_bond_site_symmetry_2
Zn13 O3 1_555 1_555
Zn13 O14 1_555 1_555
O30 Zn8 1_555 1_555
Zn18 O36 1_555 1_555
O39 Zn8 1_555 1_555
O41 Zn13 1_555 1_555
O46 Zn13 1_555 1_555
O39 C16 1_555 1_555
O41 C16 1_555 1_555
O6 C11 1_555 1_555
O7 C17 1_555 1_555
C1 C5 1_555 1_555
C3 C7 1_555 1_555
C5 C4 1_555 1_555
C6 C7 1_555 1_555
C7 H2 1_555 1_555
C8 C1 1_555 1_555
H3 C8 1_555 1_555
C10 C6 1_555 1_555
C11 C3 1_555 1_555
C13 C5 1_555 1_555
C14 C10 1_555 1_555
C16 C1 1_555 1_555
C17 C14 1_555 1_555
C18 C6 1_555 1_555
H5 C18 1_555 1_555
C19 C3 1_555 1_555
H6 C19 1_555 1_555
C21 C18 1_555 1_555
C24 C4 1_555 1_555
H8 C24 1_555 1_555
C8 C10 1_555 1_555
C9 C24 1_555 1_555
C13 C14 1_555 1_555
C19 C21 1_555 1_555
O4 C25 1_555 1_555
O9 C25 1_555 1_555
Zn16 O4 1_555 1_555
O8 C22 1_555 1_555
O10 Zn3 1_555 1_555
O13 C15 1_555 1_555
C2 H1 1_555 1_555
O15 Zn3 1_555 1_555
O16 C34 1_555 1_555
C12 C2 1_555 1_555
C15 C23 1_555 1_555
C20 C12 1_555 1_555
C22 C12 1_555 1_555
C23 C28 1_555 1_555
C26 C30 1_555 1_555
C28 H9 1_555 1_555
C29 C28 1_555 1_555
C30 C33 1_555 1_555
C31 C29 1_555 1_555
H10 C31 1_555 1_555
C32 C23 1_555 1_555
H11 C32 1_555 1_555
C33 C31 1_555 1_555
C34 O10 1_555 1_555
C35 C26 1_555 1_555
H12 C35 1_555 1_555
O18 C36 1_555 1_555
O19 C36 1_555 1_555
C36 C26 1_555 1_555
O20 C46 1_555 1_555
O21 C37 1_555 1_555
O23 C46 1_555 1_555
C37 C38 1_555 1_555
C38 C40 1_555 1_555
C39 C42 1_555 1_555
C40 H13 1_555 1_555
C41 C40 1_555 1_555
C42 C35 1_555 1_555
C43 C41 1_555 1_555
H14 C43 1_555 1_555
C44 C38 1_555 1_555
H15 C44 1_555 1_555
C45 C42 1_555 1_555
C46 C41 1_555 1_555
C47 C30 1_555 1_555
H16 C47 1_555 1_555
O24 C48 1_555 1_555
O25 C48 1_555 1_555
C48 C39 1_555 1_555
Zn18 O20 1_555 1_555
C50 H17 1_555 1_555
O37 Zn18 1_555 1_555
C60 C50 1_555 1_555
C67 C60 1_555 1_555
O49 Zn3 1_555 1_555
C29 C34 1_555 1_555
C32 C33 1_555 1_555
C39 C47 1_555 1_555
C43 C45 1_555 1_555
C44 C45 1_555 1_555
O33 C69 1_555 1_555
C60 C69 1_555 1_555
O15 H26 1_555 1_555
O19 H27 1_555 1_555
O25 H28 1_555 1_555
O37 H29 1_555 1_555
O46 C71 1_555 1_555
O34 C71 1_555 1_555
O26 C63 1_555 1_555
O27 C63 1_555 1_555
O48 C59 1_555 1_555
C49 C53 1_555 1_555
C51 C55 1_555 1_555
C53 C52 1_555 1_555
C54 C55 1_555 1_555
C55 H18 1_555 1_555
C56 C49 1_555 1_555
H19 C56 1_555 1_555
C58 C54 1_555 1_555
C59 C51 1_555 1_555
C61 C53 1_555 1_555
C62 C58 1_555 1_555
C63 C49 1_555 1_555
C64 O32 1_555 1_555
C65 C54 1_555 1_555
H21 C65 1_555 1_555
C66 C51 1_555 1_555
H22 C66 1_555 1_555
C68 C65 1_555 1_555
C70 C52 1_555 1_555
H24 C70 1_555 1_555
Zn10 O26 1_555 1_555
Zn16 O27 1_555 1_555
C56 C58 1_555 1_555
C57 C70 1_555 1_555
C61 C62 1_555 1_555
C62 C64 1_555 1_555
C66 C68 1_555 1_555
Zn10 O5 1_555 1_555
Zn16 O22 1_555 1_555
O44 Zn16 1_555 1_555
O25 H27_2 1_555 1_555
O19 H28_2 1_555 1_555

#END
