
###############################################################################
#
# This file contains modified crystal structure data generated from the
# MOF subset of the Cambridge Structural Database (CSD) v543 
# hosted by the Cambridge Crystallographic Data Centre (CCDC).
#
# This work is licensed under the Creative Commons
# Attribution-NonCommercial-ShareAlike 4.0 International License.
# To view a copy of this license, visit
# http://creativecommons.org/licenses/by-nc-sa/4.0/
# or send a letter to
# Creative Commons, PO Box 1866, Mountain View, CA 94042, USA.
#
# CIF created using the CSD Python API on 29 September 2022
# The structure has been converted into the P1 space group
# The structure has a 3D framework
# The original CSD entry DOYHUW is in the triclinic crystal system
# The framework has been calculated to contain at least 10.0% void space
# The void calculation uses a probe of radius 1.32A, grid spacing 0.4
# The framework is charged, counterions have been retained in the structure
#
###############################################################################

data_DOYHUW
_chemical_formula_moiety         '(C96 H40 O52 Zn4 8-)n'
_symmetry_cell_setting           triclinic
_symmetry_space_group_name_H-M   'P 1'
_symmetry_Int_Tables_number      1
_space_group_name_Hall           'P 1'
loop_
_symmetry_equiv_pos_site_id
_symmetry_equiv_pos_as_xyz
1 x,y,z
_cell_length_a                   9.5137(3)
_cell_length_b                   16.1134(4)
_cell_length_c                   27.5845(7)
_cell_angle_alpha                91.802(2)
_cell_angle_beta                 91.489(2)
_cell_angle_gamma                94.441(2)
_cell_volume                     4212.16
loop_
_atom_site_label
_atom_site_type_symbol
_atom_site_fract_x
_atom_site_fract_y
_atom_site_fract_z
O19 O 0.12139(13) 0.03816(7) 0.10511(4)
H3 H 0.2027 0.0137 0.1033
H4 H 0.1200 0.0759 0.0820
O5 O 0.2019(3) 0.41608(15) 0.05759(9)
O25 O 0.2499(3) 0.32219(18) 0.11322(10)
C16 C 0.1693(4) 0.3662(2) 0.09127(13)
H10 H 0.0389 0.2973 0.1660
C27 C 0.0165(4) 0.3633(2) 0.10474(13)
Zn7 Zn 0.37893(5) 0.46171(3) 0.03075(2)
Zn10 Zn 0.12525(5) 0.04650(3) 0.47407(2)
O31 O 0.1036(3) 0.94803(17) 0.19152(10)
Zn1 Zn 0.97161(5) 0.01331(3) 0.15163(2)
O27 O 0.3014(3) 0.09479(15) 0.44689(9)
O29 O 0.9463(3) 0.09313(16) 0.20771(10)
O32 O 0.8422(3) 0.14432(16) 0.14463(9)
O34 O 0.0926(4) 0.12945(19) 0.53023(11)
Zn4 Zn 0.52723(5) 0.53236(3) 0.34459(2)
O1 O 0.4043(3) 0.59245(15) 0.30059(9)
O3 O 0.5758(3) 0.63457(15) 0.01718(9)
O6 O 0.5432(3) 0.42824(16) 0.07127(9)
O7 O 0.4099(3) 0.57762(15) 0.06478(10)
O9 O 0.5494(3) 0.42708(15) 0.30686(9)
O10 O 0.6968(3) 0.39143(16) 0.36534(9)
O12 O 0.7154(3) 0.48034(16) 0.02428(9)
O13 O 0.2605(3) 0.20671(16) 0.40403(10)
O15 O 0.41472(11) 0.49200(7) 0.40214(4)
H1 H 0.4705 0.4774 0.4256
H2 H 0.3571 0.4487 0.3937
O16 O 0.78377(16) 0.02565(9) 0.47753(6)
O17 O 0.79182(13) 0.94879(6) 0.14784(4)
O18 O 0.95853(16) 0.09179(9) 0.43989(6)
O21 O 0.23804(11) 0.90137(7) 0.13301(4)
O22 O 0.83805(12) 0.90373(6) 0.07329(4)
C1 C 0.08975(12) 0.81644(6) 0.36212(4)
H5 H 0.1632 0.8600 0.3639
C2 C 0.8152(4) 0.2098(2) 0.22308(12)
C3 C 0.8702(4) 0.1462(2) 0.18901(13)
C4 C 0.1609(4) 0.8249(2) 0.25139(14)
H6 H 0.0867 0.8598 0.2573
O24 O 0.3307(3) 0.67635(19) 0.35890(10)
C5 C 0.8321(4) 0.0752(2) 0.44802(12)
C6 C 0.7313(4) 0.3438(2) 0.24281(13)
H7 H 0.7163 0.3989 0.2337
C7 C 0.6438(4) 0.3832(2) 0.32376(14)
C8 C 0.7794(4) 0.1855(2) 0.26944(13)
H8 H 0.7968 0.1308 0.2787
C9 C 0.8341(4) 0.32450(19) 0.16145(12)
C10 C 0.3379(4) 0.1535(2) 0.41934(12)
C11 C 0.7272(4) 0.1191(2) 0.41875(12)
C12 C 0.5874(4) 0.1154(2) 0.43110(12)
H9 H 0.5570 0.0833 0.4578
O26 O 0.0789(4) 0.9403(2) 0.43218(13)
C13 C 0.3003(4) 0.7151(2) 0.27762(13)
C14 C 0.7192(4) 0.2374(2) 0.30268(13)
C15 C 0.2369(4) 0.8359(2) 0.20964(13)
C17 C 0.9728(4) 0.3243(2) 0.14692(12)
C18 C 0.7906(3) 0.2909(2) 0.20932(12)
C19 C 0.3463(4) 0.7838(2) 0.20119(13)
C20 C 0.3477(4) 0.6569(2) 0.31564(13)
C21 C 0.5100(4) 0.7122(2) 0.08613(13)
C22 C 0.0869(4) 0.7558(2) 0.32519(13)
C23 C 0.6709(4) 0.43961(19) 0.05946(12)
C24 C 0.7696(4) 0.1620(2) 0.37761(12)
H11 H 0.8653 0.1635 0.3684
C25 C 0.6931(4) 0.3193(2) 0.28908(13)
C26 C 0.7647(5) 0.9019(2) 0.11010(14)
C28 C 0.7771(4) 0.3994(2) 0.08987(12)
C29 C 0.4899(4) 0.1580(2) 0.40495(13)
C30 C 0.1878(4) 0.7655(2) 0.28502(13)
C31 C 0.9173(4) 0.4018(2) 0.07677(12)
H12 H 0.9460 0.4299 0.0485
C32 C 0.6734(4) 0.2026(2) 0.35002(13)
C34 C 0.4210(4) 0.7178(2) 0.12460(13)
H14 H 0.3483 0.6750 0.1288
C35 C 0.6202(4) 0.7739(2) 0.08004(13)
H15 H 0.6816 0.7698 0.0536
C36 C 0.7349(4) 0.3606(2) 0.13267(12)
H16 H 0.6392 0.3591 0.1419
C37 C 0.4967(4) 0.6353(2) 0.05344(13)
C40 C 0.3763(4) 0.7251(2) 0.23553(13)
H17 H 0.4514 0.6908 0.2299
C41 C 0.6384(4) 0.8416(2) 0.11338(14)
C42 C 0.5450(4) 0.8468(2) 0.15170(14)
H18 H 0.5563 0.8930 0.1741
C43 C 0.5339(4) 0.2030(2) 0.36475(13)
H19 H 0.4690 0.2338 0.3475
C47 C 0.4368(4) 0.7859(2) 0.15751(14)
C48 C 0.1916(4) 0.8994(2) 0.17470(14)
O35 O 0.21623(16) 0.97435(9) 0.52247(6)
O37 O 0.66307(10) 0.61560(7) 0.38321(4)
O38 O 0.7319(3) 0.58713(19) 0.30955(11)
Zn8 Zn 0.62107(5) 0.53829(3) 0.96925(2)
O28 O 0.4242(3) 0.36543(15) 0.98282(9)
O33 O 0.2846(3) 0.51966(16) 0.97572(9)
Zn12 Zn 0.87475(5) 0.95350(3) 0.52593(2)
O14 O 0.9074(4) 0.87055(19) 0.46977(11)
C33 C 0.8755(4) 0.7511(2) 0.39337(13)
H13 H 0.8029 0.7497 0.4164
C38 C 0.9911(4) 0.8815(2) 0.43612(13)
C39 C 0.9845(4) 0.8136(2) 0.39679(13)
C44 C 0.9792(4) 0.6934(2) 0.32265(14)
H20 H 0.9779 0.6516 0.2975
C45 C 0.7493(4) 0.6263(2) 0.34867(15)
C46 C 0.8726(4) 0.6905(2) 0.35615(14)
O20 O 0.33693(10) 0.38440(7) 0.61679(4)
O23 O 0.2681(3) 0.41287(19) 0.69045(11)
C33_2 C 0.1245(4) 0.2489(2) 0.60663(13)
H13_2 H 0.1971 0.2503 0.5836
C38_2 C 0.0089(4) 0.1185(2) 0.56388(13)
C39_2 C 0.0155(4) 0.1864(2) 0.60321(13)
C44_2 C 0.0208(4) 0.3066(2) 0.67735(14)
H20_2 H 0.0221 0.3484 0.7025
C45_2 C 0.2507(4) 0.3737(2) 0.65133(15)
C46_2 C 0.1274(4) 0.3095(2) 0.64385(14)
Zn13 Zn 0.47277(5) 0.46764(3) 0.65541(2)
Zn5 Zn 0.02839(5) 0.98669(3) 0.84837(2)
O36 O 0.04147(16) 0.90821(9) 0.56011(6)
O1_2 O 0.5957(3) 0.40755(15) 0.69941(9)
O2 O 0.6986(3) 0.90521(15) 0.55311(9)
O4 O 0.0537(3) 0.90687(16) 0.79229(10)
O6_2 O 0.4568(3) 0.57176(16) 0.92873(9)
O7_2 O 0.5901(3) 0.42238(15) 0.93522(10)
O8 O 0.8964(3) 0.05197(17) 0.80848(10)
O9_2 O 0.4506(3) 0.57292(15) 0.69314(9)
O10_2 O 0.3032(3) 0.60857(16) 0.63466(9)
O11 O 0.1578(3) 0.85568(16) 0.85537(9)
O13_2 O 0.7395(3) 0.79329(16) 0.59597(10)
O15_2 O 0.58528(11) 0.50800(7) 0.59786(4)
H1_2 H 0.5295 0.5226 0.5744
H2_2 H 0.6429 0.5513 0.6063
O17_2 O 0.20818(13) 0.05121(6) 0.85216(4)
O21_2 O 0.76196(11) 0.09863(7) 0.86699(4)
O22_2 O 0.16195(12) 0.09627(6) 0.92671(4)
C1_2 C 0.91025(12) 0.18356(6) 0.63788(4)
H5_2 H 0.8368 0.1400 0.6361
C2_2 C 0.1848(4) 0.7902(2) 0.77692(12)
C3_2 C 0.1298(4) 0.8538(2) 0.81099(13)
C4_2 C 0.8391(4) 0.1751(2) 0.74861(14)
H6_2 H 0.9133 0.1402 0.7427
O24_2 O 0.6693(3) 0.32365(19) 0.64110(10)
C5_2 C 0.1679(4) 0.9248(2) 0.55198(12)
C6_2 C 0.2687(4) 0.6562(2) 0.75719(13)
H7_2 H 0.2837 0.6011 0.7663
C7_2 C 0.3562(4) 0.6168(2) 0.67624(14)
C8_2 C 0.2206(4) 0.8145(2) 0.73056(13)
H8_2 H 0.2032 0.8692 0.7213
C9_2 C 0.1659(4) 0.67550(19) 0.83855(12)
C10_2 C 0.6621(4) 0.8465(2) 0.58066(12)
C11_2 C 0.2728(4) 0.8809(2) 0.58125(12)
C12_2 C 0.4126(4) 0.8846(2) 0.56890(12)
H9_2 H 0.4430 0.9167 0.5422
O26_2 O 0.9211(4) 0.0597(2) 0.56782(13)
C13_2 C 0.6997(4) 0.2849(2) 0.72238(13)
C14_2 C 0.2808(4) 0.7626(2) 0.69732(13)
C15_2 C 0.7631(4) 0.1641(2) 0.79036(13)
C17_2 C 0.0272(4) 0.6757(2) 0.85308(12)
C18_2 C 0.2094(3) 0.7091(2) 0.79068(12)
C19_2 C 0.6537(4) 0.2162(2) 0.79881(13)
C20_2 C 0.6523(4) 0.3431(2) 0.68436(13)
C21_2 C 0.4900(4) 0.2878(2) 0.91387(13)
C22_2 C 0.9131(4) 0.2442(2) 0.67481(13)
C23_2 C 0.3291(4) 0.56039(19) 0.94054(12)
C24_2 C 0.2304(4) 0.8380(2) 0.62239(12)
H11_2 H 0.1347 0.8365 0.6316
C25_2 C 0.3069(4) 0.6807(2) 0.71092(13)
C26_2 C 0.2353(5) 0.0981(2) 0.88990(14)
C28_2 C 0.2229(4) 0.6006(2) 0.91013(12)
C29_2 C 0.5101(4) 0.8420(2) 0.59505(13)
C30_2 C 0.8122(4) 0.2345(2) 0.71498(13)
C31_2 C 0.0827(4) 0.5982(2) 0.92323(12)
H12_2 H 0.0540 0.5701 0.9515
C32_2 C 0.3266(4) 0.7974(2) 0.64998(13)
C34_2 C 0.5790(4) 0.2822(2) 0.87540(13)
H14_2 H 0.6517 0.3250 0.8712
C35_2 C 0.3798(4) 0.2261(2) 0.91996(13)
H15_2 H 0.3184 0.2302 0.9464
C36_2 C 0.2651(4) 0.6394(2) 0.86733(12)
H16_2 H 0.3608 0.6409 0.8581
C37_2 C 0.5033(4) 0.3647(2) 0.94656(13)
C40_2 C 0.6237(4) 0.2749(2) 0.76447(13)
H17_2 H 0.5486 0.3092 0.7701
C41_2 C 0.3616(4) 0.1584(2) 0.88662(14)
C42_2 C 0.4550(4) 0.1532(2) 0.84830(14)
H18_2 H 0.4437 0.1070 0.8259
C43_2 C 0.4661(4) 0.7970(2) 0.63525(13)
H19_2 H 0.5310 0.7662 0.6525
C47_2 C 0.5632(4) 0.2141(2) 0.84249(14)
C48_2 C 0.8084(4) 0.1006(2) 0.82530(14)
O30 O 0.7981(3) 0.58392(15) 0.94241(9)
O25_2 O 0.7501(3) 0.67781(18) 0.88678(10)
C16_2 C 0.8307(4) 0.6338(2) 0.90873(13)
H10_2 H 0.9611 0.7027 0.8340
C27_2 C 0.9835(4) 0.6367(2) 0.89526(13)
O19_2 O 0.87861(13) 0.96184(7) 0.89489(4)
H3_2 H 0.7973 0.9863 0.8967
H4_2 H 0.8800 0.9241 0.9180
loop_
_geom_bond_atom_site_label_1
_geom_bond_atom_site_label_2
_geom_bond_site_symmetry_1
_geom_bond_site_symmetry_2
H3 O19 1_555 1_555
H4 O19 1_555 1_555
O5 C16 1_555 1_555
O25 C16 1_555 1_555
C16 C27 1_555 1_555
Zn7 O5 1_555 1_555
O27 Zn10 1_555 1_555
O29 Zn1 1_555 1_555
O32 Zn1 1_555 1_555
O34 Zn10 1_555 1_555
Zn7 O6 1_555 1_555
Zn4 O1 1_555 1_555
O1 C20 1_555 1_555
O27 C10 1_555 1_555
O3 C37 1_555 1_555
O29 C3 1_555 1_555
O6 C23 1_555 1_555
O7 Zn7 1_555 1_555
O31 C48 1_555 1_555
O9 Zn4 1_555 1_555
O10 C7 1_555 1_555
O32 C3 1_555 1_555
O12 C23 1_555 1_555
O13 C10 1_555 1_555
O15 Zn4 1_555 1_555
H1 O15 1_555 1_555
H2 O15 1_555 1_555
O16 C5 1_555 1_555
O17 C26 1_555 1_555
O18 C5 1_555 1_555
O21 C48 1_555 1_555
O22 C26 1_555 1_555
C1 H5 1_555 1_555
C2 C3 1_555 1_555
C4 H6 1_555 1_555
O24 C20 1_555 1_555
C5 C11 1_555 1_555
C6 H7 1_555 1_555
C7 O9 1_555 1_555
C8 C2 1_555 1_555
H8 C8 1_555 1_555
C9 C17 1_555 1_555
C10 C29 1_555 1_555
C11 C12 1_555 1_555
C12 H9 1_555 1_555
C13 C20 1_555 1_555
C14 C8 1_555 1_555
C15 C4 1_555 1_555
C18 C2 1_555 1_555
C19 C15 1_555 1_555
C21 C34 1_555 1_555
C22 C1 1_555 1_555
C23 C28 1_555 1_555
C24 C11 1_555 1_555
H11 C24 1_555 1_555
C25 C6 1_555 1_555
C26 C41 1_555 1_555
C28 C31 1_555 1_555
C29 C12 1_555 1_555
C30 C4 1_555 1_555
H12 C31 1_555 1_555
C32 C14 1_555 1_555
C34 H14 1_555 1_555
C35 C21 1_555 1_555
H15 C35 1_555 1_555
C36 C9 1_555 1_555
H16 C36 1_555 1_555
C37 O7 1_555 1_555
C40 C13 1_555 1_555
H17 C40 1_555 1_555
C41 C35 1_555 1_555
C42 C41 1_555 1_555
H18 C42 1_555 1_555
C43 C29 1_555 1_555
H19 C43 1_555 1_555
C47 C19 1_555 1_555
C48 C15 1_555 1_555
O37 Zn4 1_555 1_555
O38 Zn4 1_555 1_555
C6 C18 1_555 1_555
C7 C25 1_555 1_555
C9 C18 1_555 1_555
C13 C30 1_555 1_555
C14 C25 1_555 1_555
C19 C40 1_555 1_555
C21 C37 1_555 1_555
C22 C30 1_555 1_555
C24 C32 1_555 1_555
C28 C36 1_555 1_555
C32 C43 1_555 1_555
C34 C47 1_555 1_555
C42 C47 1_555 1_555
O14 C38 1_555 1_555
O37 C45 1_555 1_555
O38 C45 1_555 1_555
C33 H13 1_555 1_555
C38 C39 1_555 1_555
H20 C44 1_555 1_555
C45 C46 1_555 1_555
C46 C33 1_555 1_555
Zn12 O14 1_555 1_555
C33 C39 1_555 1_555
C44 C46 1_555 1_555
O34 C38_2 1_555 1_555
O20 C45_2 1_555 1_555
O23 C45_2 1_555 1_555
C33_2 H13_2 1_555 1_555
C38_2 C39_2 1_555 1_555
H20_2 C44_2 1_555 1_555
C45_2 C46_2 1_555 1_555
C46_2 C33_2 1_555 1_555
Zn13 O20 1_555 1_555
O23 Zn13 1_555 1_555
C33_2 C39_2 1_555 1_555
C44_2 C46_2 1_555 1_555
Zn8 O6_2 1_555 1_555
Zn13 O1_2 1_555 1_555
O1_2 C20_2 1_555 1_555
O2 C10_2 1_555 1_555
O28 C37_2 1_555 1_555
O4 C3_2 1_555 1_555
O6_2 C23_2 1_555 1_555
O7_2 Zn8 1_555 1_555
O8 C48_2 1_555 1_555
O9_2 Zn13 1_555 1_555
O10_2 C7_2 1_555 1_555
O11 C3_2 1_555 1_555
O33 C23_2 1_555 1_555
O13_2 C10_2 1_555 1_555
O15_2 Zn13 1_555 1_555
H1_2 O15_2 1_555 1_555
H2_2 O15_2 1_555 1_555
O35 C5_2 1_555 1_555
O17_2 C26_2 1_555 1_555
O36 C5_2 1_555 1_555
O21_2 C48_2 1_555 1_555
O22_2 C26_2 1_555 1_555
C1_2 H5_2 1_555 1_555
C2_2 C3_2 1_555 1_555
C4_2 H6_2 1_555 1_555
O24_2 C20_2 1_555 1_555
C5_2 C11_2 1_555 1_555
C6_2 H7_2 1_555 1_555
C7_2 O9_2 1_555 1_555
C8_2 C2_2 1_555 1_555
H8_2 C8_2 1_555 1_555
C9_2 C17_2 1_555 1_555
C10_2 C29_2 1_555 1_555
C11_2 C12_2 1_555 1_555
C12_2 H9_2 1_555 1_555
C13_2 C20_2 1_555 1_555
C14_2 C8_2 1_555 1_555
C15_2 C4_2 1_555 1_555
C18_2 C2_2 1_555 1_555
C19_2 C15_2 1_555 1_555
C21_2 C34_2 1_555 1_555
C22_2 C1_2 1_555 1_555
C23_2 C28_2 1_555 1_555
C24_2 C11_2 1_555 1_555
H11_2 C24_2 1_555 1_555
C25_2 C6_2 1_555 1_555
C26_2 C41_2 1_555 1_555
C28_2 C31_2 1_555 1_555
C29_2 C12_2 1_555 1_555
C30_2 C4_2 1_555 1_555
H12_2 C31_2 1_555 1_555
C32_2 C14_2 1_555 1_555
C34_2 H14_2 1_555 1_555
C35_2 C21_2 1_555 1_555
H15_2 C35_2 1_555 1_555
C36_2 C9_2 1_555 1_555
H16_2 C36_2 1_555 1_555
C37_2 O7_2 1_555 1_555
C40_2 C13_2 1_555 1_555
H17_2 C40_2 1_555 1_555
C41_2 C35_2 1_555 1_555
C42_2 C41_2 1_555 1_555
H18_2 C42_2 1_555 1_555
C43_2 C29_2 1_555 1_555
H19_2 C43_2 1_555 1_555
C47_2 C19_2 1_555 1_555
C48_2 C15_2 1_555 1_555
Zn5 O4 1_555 1_555
Zn12 O2 1_555 1_555
O30 Zn8 1_555 1_555
O11 Zn5 1_555 1_555
C6_2 C18_2 1_555 1_555
C7_2 C25_2 1_555 1_555
C9_2 C18_2 1_555 1_555
C13_2 C30_2 1_555 1_555
C14_2 C25_2 1_555 1_555
C19_2 C40_2 1_555 1_555
C21_2 C37_2 1_555 1_555
C22_2 C30_2 1_555 1_555
C24_2 C32_2 1_555 1_555
C28_2 C36_2 1_555 1_555
C32_2 C43_2 1_555 1_555
C34_2 C47_2 1_555 1_555
C42_2 C47_2 1_555 1_555
O30 C16_2 1_555 1_555
O25_2 C16_2 1_555 1_555
C16_2 C27_2 1_555 1_555
H3_2 O19_2 1_555 1_555
H4_2 O19_2 1_555 1_555

#END
