
###############################################################################
#
# This file contains modified crystal structure data generated from the
# MOF subset of the Cambridge Structural Database (CSD) v543 
# hosted by the Cambridge Crystallographic Data Centre (CCDC).
#
# This work is licensed under the Creative Commons
# Attribution-NonCommercial-ShareAlike 4.0 International License.
# To view a copy of this license, visit
# http://creativecommons.org/licenses/by-nc-sa/4.0/
# or send a letter to
# Creative Commons, PO Box 1866, Mountain View, CA 94042, USA.
#
# CIF created using the CSD Python API on 29 September 2022
# The structure has been converted into the P1 space group
# The structure has a 3D framework
# The original CSD entry DOYHIK is in the triclinic crystal system
# The framework has been calculated to contain at least 10.0% void space
# The void calculation uses a probe of radius 1.32A, grid spacing 0.4
#
###############################################################################

data_DOYHIK
_chemical_formula_moiety         '(C96 H38 O48 Zn6)n'
_symmetry_cell_setting           triclinic
_symmetry_space_group_name_H-M   'P 1'
_symmetry_Int_Tables_number      1
_space_group_name_Hall           'P 1'
loop_
_symmetry_equiv_pos_site_id
_symmetry_equiv_pos_as_xyz
1 x,y,z
_cell_length_a                   16.2364(7)
_cell_length_b                   16.9453(10)
_cell_length_c                   18.8524(7)
_cell_angle_alpha                114.997(5)
_cell_angle_beta                 90.916(3)
_cell_angle_gamma                113.540(5)
_cell_volume                     4201.91
loop_
_atom_site_label
_atom_site_type_symbol
_atom_site_fract_x
_atom_site_fract_y
_atom_site_fract_z
Zn3 Zn 0.00888(3) 0.06460(4) 0.34801(3)
O52 O 0.07337(17) 0.1024(2) 0.45270(15)
O54 O 0.10248(18) 0.1074(2) 0.29126(17)
O61 O 0.0176(2) 0.0604(4) 0.1769(2)
O46 O 0.0455(2) 0.5042(2) 0.86638(19)
H32 H 0.1002 0.5309 0.8627
O47 O 0.0921(2) 0.6402(2) 0.9838(2)
C96 C 0.0320(3) 0.5638(3) 0.9327(3)
Zn19 Zn 0.11014(3) 0.98178(4) 0.82917(3)
O11 O 0.2886(2) 0.7116(2) 0.24357(16)
O12 O 0.38360(19) 0.7074(2) 0.16185(18)
C15 C 0.2446(3) 0.5389(3) 0.0349(2)
H8 H 0.3054 0.5622 0.0263
C18 C 0.3063(3) 0.6745(3) 0.1745(2)
C24 C 0.2275(3) 0.5884(3) 0.1088(2)
C34 C 0.1383(3) 0.5570(3) 0.1217(2)
H16 H 0.1265 0.5914 0.1719
C39 C 0.0667(3) 0.4748(3) 0.0599(2)
Zn10 Zn 0.40227(3) 0.82312(4) 0.31583(3)
Zn1 Zn 0.5000 0.0000 0.5000
Zn4 Zn 0.88986(3) 0.01822(4) 0.17083(3)
O1 O 0.61814(16) 0.14316(19) 0.57374(15)
O2 O 0.48167(17) 0.1847(2) 0.66976(15)
O3 O 0.41258(17) 0.0442(2) 0.55585(17)
O4 O 0.92357(18) 0.1221(2) 0.37218(16)
O6 O 0.8455(2) 0.0889(3) 0.25690(17)
C1 C 0.7002(2) 0.1619(3) 0.5603(2)
C2 C 0.5231(3) 0.2725(3) 0.2010(3)
O8 O 0.76492(19) 0.1791(3) 0.60764(18)
O9 O 0.1349(2) 0.0032(3) 0.39058(18)
O10 O 0.4672(2) 0.0432(2) 0.41854(18)
C3 C 0.2678(3) 0.0893(3) 0.5348(2)
H1 H 0.2772 0.0456 0.4874
C4 C 0.2360(2) 0.2101(3) 0.6746(2)
C5 C 0.2577(2) 0.1260(3) 0.2250(2)
H2 H 0.2656 0.1429 0.2804
O14 O 0.0712(2) 0.0743(2) 0.71108(16)
C6 C 0.1716(2) 0.2363(3) 0.8000(2)
C7 C 0.8577(2) 0.1154(3) 0.3309(2)
C8 C 0.1767(3) 0.1677(3) 0.6016(2)
H3 H 0.1245 0.1796 0.5994
C9 C 0.4148(2) 0.1211(3) 0.6107(2)
O15 O 0.2245(2) 0.5785(2) 0.8759(2)
C10 C 0.2768(3) 0.5390(3) 0.8672(2)
O16 O 0.3610(2) 0.5829(2) 0.8708(2)
H4 H 0.3814 0.5421 0.8483
C11 C 0.1740(2) 0.4559(3) 0.9735(2)
C12 C 0.3131(2) 0.1953(3) 0.6773(2)
H6 H 0.3555 0.2265 0.7270
C13 C 0.2187(2) 0.2733(3) 0.7512(2)
C14 C 0.7847(3) 0.1497(3) 0.4481(2)
H7 H 0.8301 0.1444 0.4758
C16 C 0.3194(3) 0.1039(3) 0.1072(2)
H9 H 0.3695 0.1053 0.0816
C17 C 0.0909(3) 0.0888(4) 0.2203(3)
C19 C 0.1299(3) 0.0675(3) 0.4523(2)
O20 O 0.5943(2) 0.2822(3) 0.1679(2)
H10 H 0.6054 0.3254 0.1536
C20 C 0.1595(2) 0.2982(3) 0.8720(2)
H11 H 0.1285 0.2723 0.9051
C21 C 0.3294(2) 0.1348(3) 0.6073(2)
O21 O 0.4770(2) 0.3135(3) 0.2020(3)
C22 C 0.5053(2) 0.2067(3) 0.2376(2)
C23 C 0.1289(3) 0.1301(3) 0.7766(2)
C25 C 0.5694(3) 0.1566(3) 0.3199(2)
C26 C 0.1921(2) 0.3974(3) 0.8962(2)
C27 C 0.7185(2) 0.1448(3) 0.3303(2)
H12 H 0.7179 0.1330 0.2763
C28 C 0.5814(3) 0.2120(3) 0.2802(3)
H13 H 0.6420 0.2543 0.2818
C29 C 0.1616(3) 0.0765(3) 0.1019(2)
H14 H 0.1039 0.0590 0.0721
C30 C 0.2403(2) 0.4346(3) 0.8482(2)
C31 C 0.2543(3) 0.3735(3) 0.7772(2)
H15 H 0.2886 0.4004 0.7458
C32 C 0.7884(3) 0.1423(3) 0.3721(2)
C33 C 0.6500(3) 0.1639(3) 0.3656(3)
C35 C 0.2351(3) 0.0783(3) 0.0642(2)
C36 C 0.4165(3) 0.1431(3) 0.2342(2)
C37 C 0.1922(3) 0.1079(3) 0.5315(2)
C38 C 0.6492(3) 0.1745(3) 0.4430(3)
H17 H 0.6032 0.1886 0.4686
C40 C 0.4806(3) 0.0906(3) 0.3136(2)
C41 C 0.0862(3) 0.4248(3) 0.9872(2)
H18 H 0.0375 0.3675 0.9458
C42 C 0.3307(3) 0.1277(3) 0.1889(2)
C43 C 0.1722(3) 0.1000(3) 0.1823(3)
C44 C 0.4061(3) 0.0856(3) 0.2710(2)
H19 H 0.3457 0.0408 0.2672
O22 O 0.1513(3) 0.1056(2) 0.8233(2)
C46 C 0.4584(3) 0.0166(3) 0.3444(3)
C47 C 0.7133(3) 0.1649(3) 0.4836(3)
Zn12 Zn 0.59773(3) 0.17688(4) 0.68417(3)
O18 O 0.1448(3) 0.0266(3) 0.94151(19)
C48 C 0.2214(3) 0.0496(4) 0.9762(3)
O24 O 0.2826(3) 0.0468(5) 0.9423(2)
O31 O 0.57131(19) 0.0695(2) 0.70942(17)
O58 O 0.7114(2) 0.2884(2) 0.75643(16)
Zn1_2 Zn 0.5000 1.0000 0.5000
O13 O 0.42869(19) 0.9305(2) 0.29058(17)
O32 O 0.8552(3) 0.9734(3) 0.05849(19)
C72 C 0.7786(3) 0.9504(4) 0.0238(3)
O36 O 0.7174(3) 0.9532(5) 0.0577(2)
O37 O 0.51833(17) 0.8153(2) 0.33024(15)
O38 O 0.58742(17) 0.9558(2) 0.44415(17)
O39 O 0.92663(17) 0.8976(2) 0.54730(15)
O40 O 0.8651(2) 0.9968(3) 0.60942(18)
C73 C 0.7322(3) 0.9107(3) 0.4652(2)
H29 H 0.7228 0.9544 0.5126
C74 C 0.7640(2) 0.7899(3) 0.3254(2)
O43 O 0.9288(2) 0.9257(2) 0.28892(16)
C75 C 0.8284(2) 0.7637(3) 0.2000(2)
C76 C 0.8233(3) 0.8323(3) 0.3984(2)
H30 H 0.8755 0.8204 0.4006
C77 C 0.5852(2) 0.8789(3) 0.3893(2)
O44 O 0.7755(2) 0.4215(2) 0.1241(2)
C78 C 0.7232(3) 0.4610(3) 0.1328(2)
O45 O 0.6390(2) 0.4171(2) 0.1292(2)
H31 H 0.6186 0.4579 0.1517
C79 C 0.8260(2) 0.5441(3) 0.0265(2)
C80 C 0.6869(2) 0.8047(3) 0.3227(2)
H33 H 0.6445 0.7735 0.2730
C81 C 0.7813(2) 0.7267(3) 0.2488(2)
C84 C 0.8701(3) 0.9325(3) 0.5477(2)
C85 C 0.8405(2) 0.7018(3) 0.1280(2)
H35 H 0.8715 0.7277 0.0949
C86 C 0.6706(2) 0.8652(3) 0.3927(2)
C87 C 0.8711(3) 0.8699(3) 0.2234(2)
C89 C 0.8079(2) 0.6026(3) 0.1038(2)
C90 C 0.7597(2) 0.5654(3) 0.1518(2)
C91 C 0.7457(3) 0.6265(3) 0.2228(2)
H36 H 0.7114 0.5996 0.2542
C93 C 0.8078(3) 0.8921(3) 0.4685(2)
C95 C 0.9138(3) 0.5752(3) 0.0128(2)
H38 H 0.9625 0.6325 0.0542
O48 O 0.8487(3) 0.8944(2) 0.1767(2)
Zn16 Zn 0.99112(3) 0.93540(4) 0.65199(3)
O50 O 0.38186(16) 0.85684(19) 0.42626(15)
O56 O 0.5328(2) 0.9568(2) 0.58146(18)
O26 O 0.07643(18) 0.8779(2) 0.62782(16)
O27 O 0.1545(2) 0.9111(3) 0.74310(17)
O28 O 0.89752(18) 0.8926(2) 0.70874(17)
C49 C 0.2998(2) 0.8381(3) 0.4397(2)
C50 C 0.4769(3) 0.7275(3) 0.7990(3)
O29 O 0.23508(19) 0.8209(3) 0.39236(18)
C51 C 0.7423(2) 0.8740(3) 0.7750(2)
H20 H 0.7344 0.8571 0.7196
C52 C 0.1423(2) 0.8846(3) 0.6691(2)
C53 C 0.2153(3) 0.8503(3) 0.5519(2)
H21 H 0.1699 0.8556 0.5242
C54 C 0.6806(3) 0.8961(3) 0.8928(2)
H22 H 0.6305 0.8947 0.9184
C55 C 0.9091(3) 0.9112(4) 0.7797(3)
O33 O 0.4057(2) 0.7178(3) 0.8321(2)
H23 H 0.3946 0.6746 0.8464
O34 O 0.5230(2) 0.6865(3) 0.7980(3)
C56 C 0.4947(2) 0.7933(3) 0.7624(2)
C57 C 0.4306(3) 0.8434(3) 0.6801(2)
C58 C 0.2815(2) 0.8552(3) 0.6697(2)
H24 H 0.2821 0.8670 0.7237
C59 C 0.4186(3) 0.7880(3) 0.7198(3)
H25 H 0.3580 0.7457 0.7182
C60 C 0.8384(3) 0.9235(3) 0.8981(2)
H26 H 0.8961 0.9410 0.9279
C61 C 0.2116(3) 0.8577(3) 0.6279(2)
C62 C 0.3500(3) 0.8361(3) 0.6344(3)
C63 C 0.7649(3) 0.9217(3) 0.9358(2)
C64 C 0.5835(3) 0.8569(3) 0.7658(2)
C65 C 0.3508(3) 0.8255(3) 0.5570(3)
H27 H 0.3968 0.8114 0.5314
C66 C 0.5194(3) 0.9094(3) 0.6864(2)
C67 C 0.6693(3) 0.8723(3) 0.8111(2)
C68 C 0.8278(3) 0.9000(3) 0.8177(3)
C69 C 0.5939(3) 0.9144(3) 0.7290(2)
H28 H 0.6543 0.9592 0.7328
C70 C 0.5416(3) 0.9834(3) 0.6556(3)
C71 C 0.2867(3) 0.8351(3) 0.5164(3)
O35 O 0.9824(2) 0.9396(4) 0.8231(2)
O42 O 0.61640(19) 0.2926(2) 0.83815(18)
C82 C 0.7554(3) 0.4611(3) 0.9651(2)
H34 H 0.6946 0.4378 0.9737
C83 C 0.6937(3) 0.3255(3) 0.8255(2)
C88 C 0.7725(3) 0.4116(3) 0.8912(2)
C92 C 0.8617(3) 0.4430(3) 0.8783(2)
H37 H 0.8735 0.4086 0.8281
C94 C 0.9333(3) 0.5252(3) 0.9401(2)
O17 O 0.9545(2) 0.4958(2) 0.13362(19)
H5 H 0.8998 0.4691 0.1373
O19 O 0.9079(2) 0.3598(2) 0.0162(2)
C45 C 0.9680(3) 0.4362(3) 0.0673(3)
loop_
_geom_bond_atom_site_label_1
_geom_bond_atom_site_label_2
_geom_bond_site_symmetry_1
_geom_bond_site_symmetry_2
O52 Zn3 1_555 1_555
O54 Zn3 1_555 1_555
O46 H32 1_555 1_555
O47 C96 1_555 1_555
C96 O46 1_555 1_555
O11 C18 1_555 1_555
O12 C18 1_555 1_555
C15 H8 1_555 1_555
C18 C24 1_555 1_555
C24 C15 1_555 1_555
C34 C24 1_555 1_555
H16 C34 1_555 1_555
C39 C34 1_555 1_555
Zn10 O11 1_555 1_555
Zn1 O1 1_555 1_555
Zn4 O6 1_555 1_555
O1 C1 1_555 1_555
O2 C9 1_555 1_555
O3 Zn1 1_555 1_555
O4 C7 1_555 1_555
O52 C19 1_555 1_555
O6 C7 1_555 1_555
O54 C17 1_555 1_555
C1 O8 1_555 1_555
C2 O20 1_555 1_555
O9 C19 1_555 1_555
O10 Zn1 1_555 1_555
C3 H1 1_555 1_555
C4 C8 1_555 1_555
C5 H2 1_555 1_555
O14 C23 1_555 1_555
C6 C13 1_555 1_555
C7 C32 1_555 1_555
C8 H3 1_555 1_555
C9 O3 1_555 1_555
O15 C10 1_555 1_555
C10 O16 1_555 1_555
O16 H4 1_555 1_555
C12 C4 1_555 1_555
H6 C12 1_555 1_555
C13 C4 1_555 1_555
C14 H7 1_555 1_555
C16 H9 1_555 1_555
C17 C43 1_555 1_555
C19 C37 1_555 1_555
O20 H10 1_555 1_555
C20 C6 1_555 1_555
H11 C20 1_555 1_555
C21 C3 1_555 1_555
O21 C2 1_555 1_555
C22 C2 1_555 1_555
C23 C6 1_555 1_555
C25 C28 1_555 1_555
C26 C11 1_555 1_555
C27 H12 1_555 1_555
C28 C22 1_555 1_555
H13 C28 1_555 1_555
C29 H14 1_555 1_555
C30 C10 1_555 1_555
C31 C13 1_555 1_555
H15 C31 1_555 1_555
C32 C14 1_555 1_555
C33 C25 1_555 1_555
C35 C16 1_555 1_555
C36 C22 1_555 1_555
C37 C3 1_555 1_555
C38 C33 1_555 1_555
H17 C38 1_555 1_555
C40 C25 1_555 1_555
C41 C11 1_555 1_555
H18 C41 1_555 1_555
C42 C5 1_555 1_555
C43 C5 1_555 1_555
C44 C36 1_555 1_555
H19 C44 1_555 1_555
O22 C23 1_555 1_555
C46 O10 1_555 1_555
C47 C1 1_555 1_555
O61 C17 1_555 1_555
Zn12 O1 1_555 1_555
O2 Zn12 1_555 1_555
C8 C37 1_555 1_555
C9 C21 1_555 1_555
C12 C21 1_555 1_555
C14 C47 1_555 1_555
C16 C42 1_555 1_555
C20 C26 1_555 1_555
C26 C30 1_555 1_555
C27 C32 1_555 1_555
C27 C33 1_555 1_555
C29 C35 1_555 1_555
C29 C43 1_555 1_555
C30 C31 1_555 1_555
C36 C42 1_555 1_555
C38 C47 1_555 1_555
C40 C44 1_555 1_555
C40 C46 1_555 1_555
O18 C48 1_555 1_555
O24 C48 1_555 1_555
Zn12 O31 1_555 1_555
O58 Zn12 1_555 1_555
Zn10 O13 1_555 1_555
C72 O32 1_555 1_555
O36 C72 1_555 1_555
O37 Zn10 1_555 1_555
O38 Zn1_2 1_555 1_555
O39 C84 1_555 1_555
O40 C84 1_555 1_555
C73 H29 1_555 1_555
C74 C76 1_555 1_555
C75 C81 1_555 1_555
C76 H30 1_555 1_555
C77 O37 1_555 1_555
O44 C78 1_555 1_555
C78 O45 1_555 1_555
O45 H31 1_555 1_555
C80 C74 1_555 1_555
H33 C80 1_555 1_555
C81 C74 1_555 1_555
C84 C93 1_555 1_555
C85 C75 1_555 1_555
H35 C85 1_555 1_555
C86 C73 1_555 1_555
C87 O43 1_555 1_555
C89 C79 1_555 1_555
C90 C78 1_555 1_555
C91 C81 1_555 1_555
H36 C91 1_555 1_555
C93 C73 1_555 1_555
C95 C79 1_555 1_555
H38 C95 1_555 1_555
Zn16 O39 1_555 1_555
O50 Zn1_2 1_555 1_555
O56 Zn1_2 1_555 1_555
Zn10 O50 1_555 1_555
O38 C77 1_555 1_555
C75 C87 1_555 1_555
C76 C93 1_555 1_555
C77 C86 1_555 1_555
C80 C86 1_555 1_555
C85 C89 1_555 1_555
C87 O48 1_555 1_555
C89 C90 1_555 1_555
C90 C91 1_555 1_555
O50 C49 1_555 1_555
O26 C52 1_555 1_555
O27 Zn19 1_555 1_555
O28 C55 1_555 1_555
C49 O29 1_555 1_555
C50 O33 1_555 1_555
O56 C70 1_555 1_555
C51 H20 1_555 1_555
C52 O27 1_555 1_555
C53 H21 1_555 1_555
C54 H22 1_555 1_555
C55 C68 1_555 1_555
O33 H23 1_555 1_555
O34 C50 1_555 1_555
C56 C50 1_555 1_555
C57 C59 1_555 1_555
C58 H24 1_555 1_555
C59 C56 1_555 1_555
H25 C59 1_555 1_555
C60 H26 1_555 1_555
C61 C52 1_555 1_555
C62 C57 1_555 1_555
C63 C54 1_555 1_555
C64 C56 1_555 1_555
C65 C62 1_555 1_555
H27 C65 1_555 1_555
C66 C57 1_555 1_555
C67 C51 1_555 1_555
C68 C51 1_555 1_555
C69 C64 1_555 1_555
H28 C69 1_555 1_555
C70 C66 1_555 1_555
C71 C49 1_555 1_555
O35 C55 1_555 1_555
O58 C83 1_555 1_555
O42 C83 1_555 1_555
C82 H34 1_555 1_555
C83 C88 1_555 1_555
C88 C82 1_555 1_555
C92 C88 1_555 1_555
H37 C92 1_555 1_555
C94 C92 1_555 1_555
Zn16 O28 1_555 1_555
C53 C61 1_555 1_555
C53 C71 1_555 1_555
C54 C67 1_555 1_555
C58 C61 1_555 1_555
C58 C62 1_555 1_555
C60 C63 1_555 1_555
C60 C68 1_555 1_555
C64 C67 1_555 1_555
C65 C71 1_555 1_555
C66 C69 1_555 1_555
O17 H5 1_555 1_555
O19 C45 1_555 1_555
C45 O17 1_555 1_555

#END
