
###############################################################################
#
# This file contains modified crystal structure data generated from the
# MOF subset of the Cambridge Structural Database (CSD) v543 
# hosted by the Cambridge Crystallographic Data Centre (CCDC).
#
# This work is licensed under the Creative Commons
# Attribution-NonCommercial-ShareAlike 4.0 International License.
# To view a copy of this license, visit
# http://creativecommons.org/licenses/by-nc-sa/4.0/
# or send a letter to
# Creative Commons, PO Box 1866, Mountain View, CA 94042, USA.
#
# CIF created using the CSD Python API on 29 September 2022
# The structure has been converted into the P1 space group
# The structure has a 3D framework
# The original CSD entry DOYLEI is in the triclinic crystal system
# The framework has been calculated to contain at least 10.0% void space
# The void calculation uses a probe of radius 1.32A, grid spacing 0.4
#
###############################################################################

data_DOYLEI
_chemical_formula_moiety         '(C16 H24 Cd2 N12 Ni9)n'
_symmetry_cell_setting           triclinic
_symmetry_space_group_name_H-M   'P 1'
_symmetry_Int_Tables_number      1
_space_group_name_Hall           'P 1'
loop_
_symmetry_equiv_pos_site_id
_symmetry_equiv_pos_as_xyz
1 x,y,z
_cell_length_a                   9.774(3)
_cell_length_b                   13.918(8)
_cell_length_c                   7.715(4)
_cell_angle_alpha                90.41(4)
_cell_angle_beta                 90.43(5)
_cell_angle_gamma                93.18(4)
_cell_volume                     1047.83
loop_
_atom_site_label
_atom_site_type_symbol
_atom_site_fract_x
_atom_site_fract_y
_atom_site_fract_z
Cd4 Cd 0.09521(7) 0.26437(5) 0.50349(8)
Ni4 Ni 0.00000 0.50000 0.00000
Ni1 Ni 0.00000 0.00000 0.00000
C1 C 0.029(1) 0.0923(7) 0.173(1)
C2 C 0.073(1) 0.4259(7) 0.173(1)
C5 C 0.418(1) 0.3204(8) 0.513(2)
C6 C 0.568(1) 0.299(1) 0.494(2)
C7 C 0.664(1) 0.3856(9) 0.522(2)
C8 C 0.814(1) 0.371(1) 0.480(2)
N1 N 0.048(1) 0.1479(6) 0.279(1)
N2 N 0.115(1) 0.3799(7) 0.283(1)
N5 N 0.3221(9) 0.2386(7) 0.485(1)
N6 N 0.864(1) 0.2861(8) 0.539(2)
H1 H 0.33969 0.21227 0.35318
H2 H 0.34559 0.18517 0.57520
H3 H 0.40157 0.34882 0.64085
H4 H 0.39414 0.37672 0.41925
H5 H 0.58276 0.27122 0.36448
H6 H 0.59126 0.24600 0.58711
H7 H 0.66014 0.40661 0.65423
H8 H 0.62985 0.44289 0.44022
H9 H 0.87627 0.43165 0.52635
H10 H 0.82416 0.36898 0.33636
H11 H 0.80682 0.22314 0.48741
H12 H 0.84533 0.28331 0.68437
C16 C 0.083(1) 0.4286(7) 0.831(1)
N12 N 0.130(1) 0.3840(7) 0.724(1)
Ni4_2 Ni 0.00000 0.50000 1.00000
N14 N 0.069(1) 0.1472(7) 0.726(1)
Ni1_2 Ni -0.00000 0.00000 1.00000
C4 C 0.043(1) 0.0915(7) 0.831(1)
Ni1_3 Ni 0.00000 1.00000 0.00000
Ni1_4 Ni 0.00000 1.00000 1.00000
N17 N 0.136(1) 0.7139(8) 0.461(2)
Ni4_3 Ni 1.00000 0.50000 0.00000
Ni1_5 Ni 1.00000 0.00000 0.00000
Ni4_4 Ni 1.00000 0.50000 1.00000
C18 C 0.917(1) 0.5714(7) 0.169(1)
Ni1_6 Ni 1.00000 0.00000 1.00000
C17 C 0.927(1) 0.5741(7) 0.827(1)
Ni1_7 Ni 1.00000 1.00000 0.00000
C11 C 0.957(1) 0.9085(7) 0.169(1)
N9 N 0.931(1) 0.8528(7) 0.274(1)
Cd6 Cd 0.90479(7) 0.73563(5) 0.49651(8)
Ni1_8 Ni 1.00000 1.00000 1.00000
C9 C 0.971(1) 0.9077(7) 0.827(1)
C12 C 0.582(1) 0.6796(8) 0.487(2)
C13 C 0.432(1) 0.701(1) 0.506(2)
C14 C 0.336(1) 0.6144(9) 0.478(2)
C15 C 0.186(1) 0.629(1) 0.520(2)
N7 N 0.952(1) 0.8521(6) 0.721(1)
N8 N 0.885(1) 0.6201(7) 0.717(1)
N10 N 0.6779(9) 0.7614(7) 0.515(1)
H13 H 0.66031 0.78773 0.64682
H14 H 0.65441 0.81483 0.42480
H15 H 0.59843 0.65118 0.35915
H16 H 0.60586 0.62328 0.58075
H17 H 0.41724 0.72878 0.63552
H18 H 0.40874 0.75400 0.41289
H19 H 0.33986 0.59339 0.34577
H20 H 0.37015 0.55711 0.55978
H21 H 0.12373 0.56835 0.47365
H22 H 0.17584 0.63102 0.66364
H23 H 0.19318 0.77686 0.51259
H24 H 0.15467 0.71669 0.31563
N13 N 0.870(1) 0.6160(7) 0.276(1)
loop_
_geom_bond_atom_site_label_1
_geom_bond_atom_site_label_2
_geom_bond_site_symmetry_1
_geom_bond_site_symmetry_2
Cd4 N1 1_555 1_555
Ni1 C1 1_555 1_555
Ni4 C2 1_555 1_555
C1 N1 1_555 1_555
C2 N2 1_555 1_555
C5 C6 1_555 1_555
C6 C7 1_555 1_555
C7 C8 1_555 1_555
C8 N6 1_555 1_555
N2 Cd4 1_555 1_555
N5 Cd4 1_555 1_555
N6 H11 1_555 1_555
H1 N5 1_555 1_555
H2 N5 1_555 1_555
H3 C5 1_555 1_555
H4 C5 1_555 1_555
H5 C6 1_555 1_555
H6 C6 1_555 1_555
H7 C7 1_555 1_555
H8 C7 1_555 1_555
H9 C8 1_555 1_555
H10 C8 1_555 1_555
H12 N6 1_555 1_555
C16 N12 1_555 1_555
N12 Cd4 1_555 1_555
Ni4_2 C16 1_555 1_555
N14 Cd4 1_555 1_555
C5 N5 1_555 1_555
C4 Ni1_2 1_555 1_555
N14 C4 1_555 1_555
C18 Ni4_3 1_555 1_555
C17 Ni4_4 1_555 1_555
C11 Ni1_7 1_555 1_555
N9 C11 1_555 1_555
Cd6 N9 1_555 1_555
Cd6 N7 1_555 1_555
C9 Ni1_8 1_555 1_555
C17 N8 1_555 1_555
C12 C13 1_555 1_555
C13 C14 1_555 1_555
C14 C15 1_555 1_555
C15 N17 1_555 1_555
N7 C9 1_555 1_555
N8 Cd6 1_555 1_555
N10 Cd6 1_555 1_555
N17 H23 1_555 1_555
H13 N10 1_555 1_555
H14 N10 1_555 1_555
H15 C12 1_555 1_555
H16 C12 1_555 1_555
H17 C13 1_555 1_555
H18 C13 1_555 1_555
H19 C14 1_555 1_555
H20 C14 1_555 1_555
H21 C15 1_555 1_555
H22 C15 1_555 1_555
H24 N17 1_555 1_555
N13 Cd6 1_555 1_555
C12 N10 1_555 1_555
N13 C18 1_555 1_555

#END
