
###############################################################################
#
# This file contains modified crystal structure data generated from the
# MOF subset of the Cambridge Structural Database (CSD) v543 
# hosted by the Cambridge Crystallographic Data Centre (CCDC).
#
# This work is licensed under the Creative Commons
# Attribution-NonCommercial-ShareAlike 4.0 International License.
# To view a copy of this license, visit
# http://creativecommons.org/licenses/by-nc-sa/4.0/
# or send a letter to
# Creative Commons, PO Box 1866, Mountain View, CA 94042, USA.
#
# CIF created using the CSD Python API on 29 September 2022
# The structure has been converted into the P1 space group
# The structure has a 3D framework
# The original CSD entry DOYLIM is in the monoclinic crystal system
# The framework has been calculated to contain at least 10.0% void space
# The void calculation uses a probe of radius 1.32A, grid spacing 0.4
# H atom positions have been added when not included in the experimental data
#
###############################################################################

data_DOYLIM
_chemical_formula_moiety         '(C16 H24 N12 Ni6)n'
_symmetry_cell_setting           triclinic
_symmetry_space_group_name_H-M   'P 1'
_symmetry_Int_Tables_number      1
_space_group_name_Hall           'P 1'
loop_
_symmetry_equiv_pos_site_id
_symmetry_equiv_pos_as_xyz
1 x,y,z
_cell_length_a                   9.860(5)
_cell_length_b                   15.267(6)
_cell_length_c                   7.309(4)
_cell_angle_alpha                90
_cell_angle_beta                 113.92(4)
_cell_angle_gamma                90
_cell_volume                     1005.75
loop_
_atom_site_label
_atom_site_type_symbol
_atom_site_fract_x
_atom_site_fract_y
_atom_site_fract_z
Ni1 Ni 0.00000 0.0000 0.50000
C1 C 0.0168(5) 0.0885(3) 0.3333(6)
N1 N 0.0243(5) 0.1423(3) 0.2312(6)
N3 N 0.2174(6) 0.2500 0.010(1)
H1 H 0.2704 0.1924 0.0958
H5 H 0.7161 0.1924 0.0105
H6 H 0.2704 0.3076 0.0958
H10 H 0.7161 0.3076 0.0105
N7 N 0.0243(5) 0.3577(3) 0.2312(6)
Cd5 Cd 0.02612(5) 0.7500 0.02234(7)
Ni1_2 Ni 0.00000 1.0000 0.50000
C8 C 0.0479(5) 0.9148(3) 0.3516(6)
N6 N 0.0730(5) 0.8627(3) 0.2599(6)
N8 N 0.0730(5) 0.6373(3) 0.2599(6)
N10 N 0.2674(7) 0.7500 0.064(1)
Ni1_3 Ni 0.00000 0.5000 0.50000
C2 C 0.0479(5) 0.5852(3) 0.3516(6)
C7 C 0.0168(5) 0.4115(3) 0.3333(6)
C3 C 0.7479(9) 0.7500 0.162(1)
C4 C 0.589(1) 0.7500 0.127(1)
C5 C 0.545(1) 0.7500 0.283(2)
C6 C 0.3881(8) 0.7500 0.254(1)
H2 H 0.5347 0.6924 0.0248
H3 H 0.5880 0.6924 0.3847
H4 H 0.3730 0.6924 0.3291
H7 H 0.5347 0.8076 0.0248
H8 H 0.5880 0.8076 0.3847
H9 H 0.3730 0.8076 0.3291
H11 H 0.798168 0.691759 0.249138
H12 H 0.798168 0.808241 0.249138
C3_2 C 0.2521(9) 0.2500 0.838(1)
C4_2 C 0.411(1) 0.2500 0.873(1)
C5_2 C 0.455(1) 0.2500 0.717(2)
C6_2 C 0.6119(8) 0.2500 0.746(1)
N4 N 0.7326(7) 0.2500 0.936(1)
H2_2 H 0.4653 0.1924 0.9752
H3_2 H 0.4120 0.1924 0.6153
H4_2 H 0.6270 0.1924 0.6709
H7_2 H 0.4653 0.3076 0.9752
H8_2 H 0.4120 0.3076 0.6153
H9_2 H 0.6270 0.3076 0.6709
Cd3 Cd 0.97388(5) 0.2500 0.97766(7)
H11_2 H 0.201832 0.191759 0.750862
H12_2 H 0.201832 0.308241 0.750862
Ni1_4 Ni 1.00000 0.0000 0.50000
C2_2 C 0.9521(5) 0.0852(3) 0.6484(6)
N2 N 0.9270(5) 0.1373(3) 0.7401(6)
N9 N 0.9270(5) 0.3627(3) 0.7401(6)
Ni1_5 Ni 1.00000 1.0000 0.50000
C7_2 C 0.9832(5) 0.9115(3) 0.6667(6)
N5 N 0.9757(5) 0.8577(3) 0.7688(6)
Ni1_6 Ni 1.00000 0.5000 0.50000
C1_2 C 0.9832(5) 0.5885(3) 0.6667(6)
N1_2 N 0.9757(5) 0.6423(3) 0.7688(6)
N3_2 N 0.7826(6) 0.7500 0.990(1)
H1_2 H 0.7296 0.6924 0.9042
H5_2 H 0.2839 0.6924 0.9895
H6_2 H 0.7296 0.8076 0.9042
H10_2 H 0.2839 0.8076 0.9895
C8_2 C 0.9521(5) 0.4148(3) 0.6484(6)
loop_
_geom_bond_atom_site_label_1
_geom_bond_atom_site_label_2
_geom_bond_site_symmetry_1
_geom_bond_site_symmetry_2
Ni1 C1 1_555 1_555
C1 N1 1_555 1_555
H1 N3 1_555 1_555
H6 N3 1_555 1_555
C8 Ni1_2 1_555 1_555
N6 C8 1_555 1_555
Cd5 N6 1_555 1_555
N8 Cd5 1_555 1_555
N10 Cd5 1_555 1_555
C2 Ni1_3 1_555 1_555
N8 C2 1_555 1_555
C7 Ni1_3 1_555 1_555
N7 C7 1_555 1_555
C3 C4 1_555 1_555
C4 C5 1_555 1_555
C5 C6 1_555 1_555
C6 N10 1_555 1_555
H2 C4 1_555 1_555
H3 C5 1_555 1_555
H4 C6 1_555 1_555
H7 C4 1_555 1_555
H8 C5 1_555 1_555
H9 C6 1_555 1_555
C3 H11 1_555 1_555
C3 H12 1_555 1_555
C3_2 C4_2 1_555 1_555
C4_2 C5_2 1_555 1_555
C5_2 C6_2 1_555 1_555
C6_2 N4 1_555 1_555
H2_2 C4_2 1_555 1_555
H3_2 C5_2 1_555 1_555
H4_2 C6_2 1_555 1_555
H7_2 C4_2 1_555 1_555
H8_2 C5_2 1_555 1_555
H9_2 C6_2 1_555 1_555
Cd3 N4 1_555 1_555
C3_2 H11_2 1_555 1_555
C3_2 H12_2 1_555 1_555
C2_2 Ni1_4 1_555 1_555
N2 C2_2 1_555 1_555
Cd3 N2 1_555 1_555
N9 Cd3 1_555 1_555
C7_2 Ni1_5 1_555 1_555
N5 C7_2 1_555 1_555
Ni1_6 C1_2 1_555 1_555
C1_2 N1_2 1_555 1_555
H1_2 N3_2 1_555 1_555
H6_2 N3_2 1_555 1_555
C8_2 Ni1_6 1_555 1_555
N9 C8_2 1_555 1_555

#END
