
###############################################################################
#
# This file contains modified crystal structure data generated from the
# MOF subset of the Cambridge Structural Database (CSD) v543 
# hosted by the Cambridge Crystallographic Data Centre (CCDC).
#
# This work is licensed under the Creative Commons
# Attribution-NonCommercial-ShareAlike 4.0 International License.
# To view a copy of this license, visit
# http://creativecommons.org/licenses/by-nc-sa/4.0/
# or send a letter to
# Creative Commons, PO Box 1866, Mountain View, CA 94042, USA.
#
# CIF created using the CSD Python API on 29 September 2022
# The structure has been converted into the P1 space group
# The structure has a 3D framework
# The original CSD entry DOYLAE is in the monoclinic crystal system
# The framework has been calculated to contain at least 10.0% void space
# The void calculation uses a probe of radius 1.32A, grid spacing 0.4
# H atom positions have been added when not included in the experimental data
#
###############################################################################

data_DOYLAE
_chemical_formula_moiety         '(C12 H16 Cd3 N8 Ni2)n'
_symmetry_cell_setting           triclinic
_symmetry_space_group_name_H-M   'P 1'
_symmetry_Int_Tables_number      1
_space_group_name_Hall           'P 1'
loop_
_symmetry_equiv_pos_site_id
_symmetry_equiv_pos_as_xyz
1 x,y,z
_cell_length_a                   7.840(4)
_cell_length_b                   7.634(2)
_cell_length_c                   7.060(2)
_cell_angle_alpha                90
_cell_angle_beta                 90.15(6)
_cell_angle_gamma                90
_cell_volume                     422.544
loop_
_atom_site_label
_atom_site_type_symbol
_atom_site_fract_x
_atom_site_fract_y
_atom_site_fract_z
Cd2 Cd 0.00000 -0.00000 -0.00000
Cd2_2 Cd 0.00000 -0.00000 1.00000
Cd2_3 Cd 0.00000 1.00000 -0.00000
Cd2_4 Cd 0.00000 1.00000 1.00000
Cd2_5 Cd 1.00000 -0.00000 -0.00000
Ni1 Ni -0.00000 0.50000 0.50000
C2 C 0.3063(8) -0.00000 0.3289(8)
C3 C 0.4919(7) -0.00000 0.3926(7)
N2 N 0.2794(6) -0.00000 0.1224(7)
H1 H 0.34463 0.11513 0.06186
H2 H 0.24493 0.11513 0.38568
H3 H 0.55625 0.11513 0.33726
C4 C 0.5081(7) -0.00000 0.6074(7)
C5 C 0.6937(8) -0.00000 0.6711(8)
N3 N 0.7206(6) -0.00000 0.8776(7)
H4 H 0.65537 0.11513 0.93814
H6 H 0.75507 0.11513 0.61432
H8 H 0.44375 0.11513 0.66274
C6 C 0.0462(5) 0.3277(5) 0.6768(5)
C7 C 0.0462(5) 0.6723(5) 0.6768(5)
Cd2_6 Cd 1.00000 -0.00000 1.00000
N8 N 0.0689(5) 0.2191(5) 0.7852(5)
N9 N 0.0689(5) 0.7809(5) 0.7852(5)
Cd2_7 Cd 1.00000 1.00000 -0.00000
C2_2 C 0.3063(8) 1.00000 0.3289(8)
C3_2 C 0.4919(7) 1.00000 0.3926(7)
N2_2 N 0.2794(6) 1.00000 0.1224(7)
C4_2 C 0.5081(7) 1.00000 0.6074(7)
C5_2 C 0.6937(8) 1.00000 0.6711(8)
N3_2 N 0.7206(6) 1.00000 0.8776(7)
H5 H 0.65537 0.88487 0.93814
H7 H 0.75507 0.88487 0.61432
H9 H 0.44375 0.88487 0.66274
H10 H 0.55625 0.88487 0.33726
H11 H 0.34463 0.88487 0.06186
H12 H 0.24493 0.88487 0.38568
Cd2_8 Cd 1.00000 1.00000 1.00000
Ni1_2 Ni 1.00000 0.50000 0.50000
C1 C 0.9538(5) 0.3277(5) 0.3232(5)
N1 N 0.9311(5) 0.2191(5) 0.2148(5)
C8 C 0.9538(5) 0.6723(5) 0.3232(5)
N10 N 0.9311(5) 0.7809(5) 0.2148(5)
H15 H 0.718404 8.16182e-18 0.733847
H15_2 H 0.718404 1 0.733847
H15_3 H 0.281596 8.16182e-18 0.266153
H15_4 H 0.281596 1 0.266153
loop_
_geom_bond_atom_site_label_1
_geom_bond_atom_site_label_2
_geom_bond_site_symmetry_1
_geom_bond_site_symmetry_2
C2 C3 1_555 1_555
C3 H3 1_555 1_555
N2 Cd2 1_555 1_555
H1 N2 1_555 1_555
H2 C2 1_555 1_555
C4 C3 1_555 1_555
C5 C4 1_555 1_555
N3 C5 1_555 1_555
H4 N3 1_555 1_555
H6 C5 1_555 1_555
H8 C4 1_555 1_555
C6 Ni1 1_555 1_555
C7 Ni1 1_555 1_555
Cd2_6 N3 1_555 1_555
N8 C6 1_555 1_555
N9 C7 1_555 1_555
Cd2_2 N8 1_555 1_555
Cd2_4 N9 1_555 1_555
C2 N2 1_555 1_555
C2_2 C3_2 1_555 1_555
N2_2 Cd2_3 1_555 1_555
C4_2 C3_2 1_555 1_555
C5_2 C4_2 1_555 1_555
N3_2 C5_2 1_555 1_555
H5 N3_2 1_555 1_555
H7 C5_2 1_555 1_555
H9 C4_2 1_555 1_555
H10 C3_2 1_555 1_555
H11 N2_2 1_555 1_555
H12 C2_2 1_555 1_555
Cd2_8 N3_2 1_555 1_555
C2_2 N2_2 1_555 1_555
Cd2_5 N1 1_555 1_555
Ni1_2 C1 1_555 1_555
C1 N1 1_555 1_555
C8 Ni1_2 1_555 1_555
N10 C8 1_555 1_555
Cd2_7 N10 1_555 1_555
N3 H15 1_555 1_555
N3_2 H15_2 1_555 1_555
N2 H15_3 1_555 1_555
N2_2 H15_4 1_555 1_555

#END
