
###############################################################################
#
# This file contains modified crystal structure data generated from the
# MOF subset of the Cambridge Structural Database (CSD) v543 
# hosted by the Cambridge Crystallographic Data Centre (CCDC).
#
# This work is licensed under the Creative Commons
# Attribution-NonCommercial-ShareAlike 4.0 International License.
# To view a copy of this license, visit
# http://creativecommons.org/licenses/by-nc-sa/4.0/
# or send a letter to
# Creative Commons, PO Box 1866, Mountain View, CA 94042, USA.
#
# CIF created using the CSD Python API on 29 September 2022
# The structure has been converted into the P1 space group
# The structure has a 3D framework
# The original CSD entry DOZCEC is in the tetragonal crystal system
# The framework has been calculated to contain at least 10.0% void space
# The void calculation uses a probe of radius 1.32A, grid spacing 0.4
# The framework is charged, counterions have been retained in the structure
# H atom positions have been added when not included in the experimental data
# Generated hydrogen atom positions removed from atoms on special positions
#
###############################################################################

data_DOZCEC
_chemical_formula_moiety         '(C160 H112 Cl24 Mn76 N48 O8 114+)n'
_symmetry_cell_setting           triclinic
_symmetry_space_group_name_H-M   'P 1'
_symmetry_Int_Tables_number      1
_space_group_name_Hall           'P 1'
loop_
_symmetry_equiv_pos_site_id
_symmetry_equiv_pos_as_xyz
1 x,y,z
_cell_length_a                   20.3157(6)
_cell_length_b                   20.3157(6)
_cell_length_c                   19.9180(10)
_cell_angle_alpha                90
_cell_angle_beta                 90
_cell_angle_gamma                90
_cell_volume                     8220.71
loop_
_atom_site_label
_atom_site_type_symbol
_atom_site_fract_x
_atom_site_fract_y
_atom_site_fract_z
Cl1 Cl 0.1258(5) 0.5000 0.5000
Cl1_2 Cl 0.8742(5) 0.5000 0.5000
Cl1_3 Cl 0.5000 0.1258(5) 0.5000
Cl1_4 Cl 0.5000 0.8742(5) 0.5000
Cl2 Cl 0.8742(5) 0.5000 0.5000
Cl2_2 Cl 0.1258(5) 0.5000 0.5000
Cl2_3 Cl 0.5000 0.8742(5) 0.5000
Cl2_4 Cl 0.5000 0.1258(5) 0.5000
Cl3 Cl 0.8742(5) 0.5000 0.5000
Cl3_2 Cl 0.1258(5) 0.5000 0.5000
Cl3_3 Cl 0.5000 0.8742(5) 0.5000
Cl3_4 Cl 0.5000 0.1258(5) 0.5000
Cl4 Cl 0.1258(5) 0.5000 0.5000
Cl4_2 Cl 0.8742(5) 0.5000 0.5000
Cl4_3 Cl 0.5000 0.1258(5) 0.5000
Cl4_4 Cl 0.5000 0.8742(5) 0.5000
Mn1 Mn -0.0000 0.0320(10) 0.2148(12)
Mn1_2 Mn 1.0000 0.0320(10) 0.2148(12)
Mn1_3 Mn 0.0000 0.9680(10) 0.2148(12)
Mn1_4 Mn 1.0000 0.9680(10) 0.2148(12)
Mn1_5 Mn 0.9680(10) -0.0000 0.2148(12)
Mn1_6 Mn 0.9680(10) 1.0000 0.2148(12)
Mn1_7 Mn 0.0320(10) 0.0000 0.2148(12)
Mn1_8 Mn 0.0320(10) 1.0000 0.2148(12)
Mn1_9 Mn -0.0000 0.0320(10) 0.7852(12)
Mn1_10 Mn 1.0000 0.0320(10) 0.7852(12)
Mn1_11 Mn -0.0000 0.9680(10) 0.7852(12)
Mn1_12 Mn 1.0000 0.9680(10) 0.7852(12)
Mn1_13 Mn 0.0320(10) 0.0000 0.7852(12)
Mn1_14 Mn 0.0320(10) 1.0000 0.7852(12)
Mn1_15 Mn 0.9680(10) 0.0000 0.7852(12)
Mn1_16 Mn 0.9680(10) 1.0000 0.7852(12)
Mn2 Mn 0.0000 0.9680(10) 0.2148(12)
Mn2_2 Mn 1.0000 0.9680(10) 0.2148(12)
Mn2_3 Mn -0.0000 0.0320(10) 0.2148(12)
Mn2_4 Mn 1.0000 0.0320(10) 0.2148(12)
Mn2_5 Mn 0.0320(10) 0.0000 0.2148(12)
Mn2_6 Mn 0.0320(10) 1.0000 0.2148(12)
Mn2_7 Mn 0.9680(10) 0.0000 0.2148(12)
Mn2_8 Mn 0.9680(10) 1.0000 0.2148(12)
Mn2_9 Mn -0.0000 0.9680(10) 0.7852(12)
Mn2_10 Mn 1.0000 0.9680(10) 0.7852(12)
Mn2_11 Mn -0.0000 0.0320(10) 0.7852(12)
Mn2_12 Mn 1.0000 0.0320(10) 0.7852(12)
Mn2_13 Mn 0.9680(10) 0.0000 0.7852(12)
Mn2_14 Mn 0.9680(10) 1.0000 0.7852(12)
Mn2_15 Mn 0.0320(10) 0.0000 0.7852(12)
Mn2_16 Mn 0.0320(10) 1.0000 0.7852(12)
Mn3 Mn 0.9680(10) 0.0000 0.2148(12)
Mn3_2 Mn 0.9680(10) 1.0000 0.2148(12)
Mn3_3 Mn 0.0320(10) 0.0000 0.2148(12)
Mn3_4 Mn 0.0320(10) 1.0000 0.2148(12)
Mn3_5 Mn 0.0000 0.9680(10) 0.2148(12)
Mn3_6 Mn 1.0000 0.9680(10) 0.2148(12)
Mn3_7 Mn -0.0000 0.0320(10) 0.2148(12)
Mn3_8 Mn 1.0000 0.0320(10) 0.2148(12)
Mn3_9 Mn 0.0320(10) 0.0000 0.7852(12)
Mn3_10 Mn 0.0320(10) 1.0000 0.7852(12)
Mn3_11 Mn 0.9680(10) 0.0000 0.7852(12)
Mn3_12 Mn 0.9680(10) 1.0000 0.7852(12)
Mn3_13 Mn -0.0000 0.9680(10) 0.7852(12)
Mn3_14 Mn 1.0000 0.9680(10) 0.7852(12)
Mn3_15 Mn -0.0000 0.0320(10) 0.7852(12)
Mn3_16 Mn 1.0000 0.0320(10) 0.7852(12)
Mn4 Mn 0.0320(10) 0.0000 0.2148(12)
Mn4_2 Mn 0.0320(10) 1.0000 0.2148(12)
Mn4_3 Mn 0.9680(10) 0.0000 0.2148(12)
Mn4_4 Mn 0.9680(10) 1.0000 0.2148(12)
Mn4_5 Mn -0.0000 0.0320(10) 0.2148(12)
Mn4_6 Mn 1.0000 0.0320(10) 0.2148(12)
Mn4_7 Mn 0.0000 0.9680(10) 0.2148(12)
Mn4_8 Mn 1.0000 0.9680(10) 0.2148(12)
Mn4_9 Mn 0.9680(10) 0.0000 0.7852(12)
Mn4_10 Mn 0.9680(10) 1.0000 0.7852(12)
Mn4_11 Mn 0.0320(10) 0.0000 0.7852(12)
Mn4_12 Mn 0.0320(10) 1.0000 0.7852(12)
Mn4_13 Mn -0.0000 0.0320(10) 0.7852(12)
Mn4_14 Mn 1.0000 0.0320(10) 0.7852(12)
Mn4_15 Mn -0.0000 0.9680(10) 0.7852(12)
Mn4_16 Mn 1.0000 0.9680(10) 0.7852(12)
Mn13 Mn 0.09427(3) 0.09427(3) 0.0000
Mn22 Mn 0.09427(3) 0.90573(3) 0.0000
Mn5 Mn -0.0000 0.5000 0.5000
Cl5 Cl 0.0000 0.0000 0.0000
O1 O 0.16875(18) 0.16875(18) 0.0000
N1 N -0.0000 0.4016(3) 0.5000
N2 N 0.0000 0.5000 0.4002(3)
N3 N 0.05469(16) 0.17932(13) 0.12765(13)
N4 N 0.03192(12) 0.14304(11) 0.07726(12)
C1 C -0.0000 0.3602(2) 0.4447(3)
C2 C -0.0000 0.3797(3) 0.3795(3)
C3 C 0.0000 0.4474(2) 0.3582(3)
C4 C -0.0000 0.2930(3) 0.4672(3)
H1 H -0.0000 0.2559 0.4398
C5 C -0.0000 0.4678(3) 0.2904(3)
H2 H 0.0000 0.4406 0.2528
C6 C -0.0000 0.3304(3) 0.3247(3)
C9 C 0.0000 0.2434(2) 0.2171(2)
C10 C 0.0000 0.2001(2) 0.1576(2)
N5 N -0.0000 0.5984(3) 0.5000
C11 C -0.0000 0.6398(2) 0.4447(3)
C12 C 0.0000 0.6203(3) 0.3795(3)
C13 C -0.0000 0.5526(2) 0.3582(3)
C14 C -0.0000 0.7070(3) 0.4672(3)
H5 H 0.0000 0.7441 0.4398
C15 C 0.0000 0.5322(3) 0.2904(3)
H6 H 0.0000 0.5594 0.2528
C16 C -0.0000 0.6696(3) 0.3247(3)
C17 C 0.0588(4) 0.6913(3) 0.2992(3)
H7 H 0.0985 0.6774 0.3175
C18 C 0.0571(3) 0.7353(4) 0.2445(3)
H8 H 0.0967 0.7503 0.2266
C19 C 0.0000 0.7566(2) 0.2171(2)
C20 C 0.0000 0.7999(2) 0.1576(2)
N8 N -0.0000 0.5000 0.5998(3)
C21 C -0.0000 0.3602(2) 0.5553(3)
C22 C 0.0000 0.3797(3) 0.6205(3)
C23 C 0.0000 0.4474(2) 0.6418(3)
C24 C -0.0000 0.2930(3) 0.5328(3)
H9 H -0.0000 0.2559 0.5602
C25 C 0.0000 0.4678(3) 0.7096(3)
H10 H -0.0000 0.4406 0.7472
C26 C 0.0000 0.3304(3) 0.6753(3)
C27 C 0.0588(4) 0.3087(3) 0.7008(3)
H11 H 0.0985 0.3226 0.6825
C28 C 0.0571(3) 0.2647(4) 0.7555(3)
H12 H 0.0967 0.2497 0.7734
C29 C 0.0000 0.2434(2) 0.7829(2)
C30 C -0.0000 0.2001(2) 0.8424(2)
N11 N 0.05469(16) 0.17932(13) 0.87235(13)
N12 N 0.03192(12) 0.14304(11) 0.92274(12)
N13 N 0.05469(16) 0.82068(13) 0.12765(13)
N14 N 0.03192(12) 0.85696(11) 0.07726(12)
C35 C 0.0588(4) 0.3087(3) 0.2992(3)
H17 H 0.0985 0.3226 0.3175
C36 C 0.0571(3) 0.2647(4) 0.2445(3)
H18 H 0.0967 0.2497 0.2266
N17 N 0.05469(16) 0.82068(13) 0.87235(13)
N18 N 0.03192(12) 0.85696(11) 0.92274(12)
C37 C -0.0000 0.6398(2) 0.5553(3)
C38 C -0.0000 0.6203(3) 0.6205(3)
C39 C 0.0000 0.5526(2) 0.6418(3)
C40 C -0.0000 0.7070(3) 0.5328(3)
H19 H 0.0000 0.7441 0.5602
C41 C -0.0000 0.5322(3) 0.7096(3)
H20 H -0.0000 0.5594 0.7472
C42 C 0.0000 0.6696(3) 0.6753(3)
C45 C -0.0000 0.7566(2) 0.7829(2)
C46 C 0.0000 0.7999(2) 0.8424(2)
C47 C 0.0588(4) 0.6913(3) 0.7008(3)
H23 H 0.0985 0.6774 0.6825
C48 C 0.0571(3) 0.7353(4) 0.7555(3)
H24 H 0.0967 0.7503 0.7734
Mn13_2 Mn 0.09427(3) 0.09427(3) 1.0000
Mn22_2 Mn 0.09427(3) 0.90573(3) 1.0000
N52 N 0.14304(11) 0.03192(12) 0.07726(12)
Cl5_2 Cl 0.0000 0.0000 1.0000
O1_2 O 0.16875(18) 0.16875(18) 1.0000
N45 N 0.14304(11) 0.03192(12) 0.92274(12)
Cl5_3 Cl 0.0000 1.0000 0.0000
O4 O 0.16875(18) 0.83125(18) 0.0000
N42 N 0.14304(11) 0.96808(12) 0.07726(12)
Cl5_4 Cl 0.0000 1.0000 1.0000
O4_2 O 0.16875(18) 0.83125(18) 1.0000
N49 N 0.14304(11) 0.96808(12) 0.92274(12)
Mn16 Mn 0.90573(3) 0.90573(3) 0.0000
Mn19 Mn 0.90573(3) 0.09427(3) 0.0000
Mn5_2 Mn 1.0000 0.5000 0.5000
Cl5_5 Cl 1.0000 0.0000 0.0000
N1_2 N 1.0000 0.4016(3) 0.5000
N2_2 N 1.0000 0.5000 0.4002(3)
C1_2 C 1.0000 0.3602(2) 0.4447(3)
C2_2 C 1.0000 0.3797(3) 0.3795(3)
C3_2 C 1.0000 0.4474(2) 0.3582(3)
C4_2 C 1.0000 0.2930(3) 0.4672(3)
H1_2 H 1.0000 0.2559 0.4398
C5_2 C 1.0000 0.4678(3) 0.2904(3)
H2_2 H 1.0000 0.4406 0.2528
C6_2 C 1.0000 0.3304(3) 0.3247(3)
C7 C 0.9412(4) 0.3087(3) 0.2992(3)
H3 H 0.9015 0.3226 0.3175
C8 C 0.9429(3) 0.2647(4) 0.2445(3)
H4 H 0.9033 0.2497 0.2266
C9_2 C 1.0000 0.2434(2) 0.2171(2)
C10_2 C 1.0000 0.2001(2) 0.1576(2)
N5_2 N 1.0000 0.5984(3) 0.5000
N6 N 0.94531(16) 0.82068(13) 0.12765(13)
N7 N 0.96808(12) 0.85696(11) 0.07726(12)
C11_2 C 1.0000 0.6398(2) 0.4447(3)
C12_2 C 1.0000 0.6203(3) 0.3795(3)
C13_2 C 1.0000 0.5526(2) 0.3582(3)
C14_2 C 1.0000 0.7070(3) 0.4672(3)
H5_2 H 1.0000 0.7441 0.4398
C15_2 C 1.0000 0.5322(3) 0.2904(3)
H6_2 H 1.0000 0.5594 0.2528
C16_2 C 1.0000 0.6696(3) 0.3247(3)
C19_2 C 1.0000 0.7566(2) 0.2171(2)
C20_2 C 1.0000 0.7999(2) 0.1576(2)
N8_2 N 1.0000 0.5000 0.5998(3)
N9 N 0.94531(16) 0.17932(13) 0.87235(13)
N10 N 0.96808(12) 0.14304(11) 0.92274(12)
C21_2 C 1.0000 0.3602(2) 0.5553(3)
C22_2 C 1.0000 0.3797(3) 0.6205(3)
C23_2 C 1.0000 0.4474(2) 0.6418(3)
C24_2 C 1.0000 0.2930(3) 0.5328(3)
H9_2 H 1.0000 0.2559 0.5602
C25_2 C 1.0000 0.4678(3) 0.7096(3)
H10_2 H 1.0000 0.4406 0.7472
C26_2 C 1.0000 0.3304(3) 0.6753(3)
C29_2 C 1.0000 0.2434(2) 0.7829(2)
C30_2 C 1.0000 0.2001(2) 0.8424(2)
C31 C 0.9412(4) 0.3087(3) 0.7008(3)
H13 H 0.9015 0.3226 0.6825
C32 C 0.9429(3) 0.2647(4) 0.7555(3)
H14 H 0.9033 0.2497 0.7734
C33 C 0.9412(4) 0.6913(3) 0.2992(3)
H15 H 0.9015 0.6774 0.3175
C34 C 0.9429(3) 0.7353(4) 0.2445(3)
H16 H 0.9033 0.7503 0.2266
N15 N 0.94531(16) 0.17932(13) 0.12765(13)
N16 N 0.96808(12) 0.14304(11) 0.07726(12)
C37_2 C 1.0000 0.6398(2) 0.5553(3)
C38_2 C 1.0000 0.6203(3) 0.6205(3)
C39_2 C 1.0000 0.5526(2) 0.6418(3)
C40_2 C 1.0000 0.7070(3) 0.5328(3)
H19_2 H 1.0000 0.7441 0.5602
C41_2 C 1.0000 0.5322(3) 0.7096(3)
H20_2 H 1.0000 0.5594 0.7472
C42_2 C 1.0000 0.6696(3) 0.6753(3)
C43 C 0.9412(4) 0.6913(3) 0.7008(3)
H21 H 0.9015 0.6774 0.6825
C44 C 0.9429(3) 0.7353(4) 0.7555(3)
H22 H 0.9033 0.7503 0.7734
C45_2 C 1.0000 0.7566(2) 0.7829(2)
C46_2 C 1.0000 0.7999(2) 0.8424(2)
N19 N 0.94531(16) 0.82068(13) 0.87235(13)
N20 N 0.96808(12) 0.85696(11) 0.92274(12)
O3 O 0.83125(18) 0.16875(18) 0.0000
Mn16_2 Mn 0.90573(3) 0.90573(3) 1.0000
Mn19_2 Mn 0.90573(3) 0.09427(3) 1.0000
N41 N 0.85696(11) 0.03192(12) 0.07726(12)
Cl5_6 Cl 1.0000 0.0000 1.0000
O3_2 O 0.83125(18) 0.16875(18) 1.0000
N50 N 0.85696(11) 0.03192(12) 0.92274(12)
Cl5_7 Cl 1.0000 1.0000 0.0000
O2 O 0.83125(18) 0.83125(18) 0.0000
N51 N 0.85696(11) 0.96808(12) 0.07726(12)
Cl5_8 Cl 1.0000 1.0000 1.0000
O2_2 O 0.83125(18) 0.83125(18) 1.0000
N46 N 0.85696(11) 0.96808(12) 0.92274(12)
Mn7 Mn 0.5000 -0.0000 0.5000
N21 N 0.4016(3) 0.0000 0.5000
N22 N 0.5000 -0.0000 0.4002(3)
C49 C 0.3602(2) -0.0000 0.4447(3)
C50 C 0.3797(3) 0.0000 0.3795(3)
C51 C 0.4474(2) -0.0000 0.3582(3)
C52 C 0.2930(3) -0.0000 0.4672(3)
H25 H 0.2559 -0.0000 0.4398
C53 C 0.4678(3) -0.0000 0.2904(3)
H26 H 0.4406 -0.0000 0.2528
C54 C 0.3304(3) -0.0000 0.3247(3)
C55 C 0.3087(3) 0.0588(4) 0.2992(3)
H27 H 0.3226 0.0985 0.3175
C56 C 0.2647(4) 0.0571(3) 0.2445(3)
H28 H 0.2497 0.0967 0.2266
C57 C 0.2434(2) -0.0000 0.2171(2)
C58 C 0.2001(2) 0.0000 0.1576(2)
N25 N 0.5984(3) -0.0000 0.5000
N26 N 0.82068(13) 0.05469(16) 0.12765(13)
C59 C 0.6398(2) -0.0000 0.4447(3)
C60 C 0.6203(3) 0.0000 0.3795(3)
C61 C 0.5526(2) 0.0000 0.3582(3)
C62 C 0.7070(3) 0.0000 0.4672(3)
H29 H 0.7441 -0.0000 0.4398
C63 C 0.5322(3) -0.0000 0.2904(3)
H30 H 0.5594 0.0000 0.2528
C64 C 0.6696(3) 0.0000 0.3247(3)
C67 C 0.7566(2) -0.0000 0.2171(2)
C68 C 0.7999(2) -0.0000 0.1576(2)
N28 N 0.5000 -0.0000 0.5998(3)
N29 N 0.17932(13) 0.05469(16) 0.87235(13)
C69 C 0.3602(2) -0.0000 0.5553(3)
C70 C 0.3797(3) -0.0000 0.6205(3)
C71 C 0.4474(2) 0.0000 0.6418(3)
C72 C 0.2930(3) -0.0000 0.5328(3)
H33 H 0.2559 -0.0000 0.5602
C73 C 0.4678(3) -0.0000 0.7096(3)
H34 H 0.4406 -0.0000 0.7472
C74 C 0.3304(3) 0.0000 0.6753(3)
C77 C 0.2434(2) 0.0000 0.7829(2)
C78 C 0.2001(2) -0.0000 0.8424(2)
C79 C 0.3087(3) 0.0588(4) 0.7008(3)
H37 H 0.3226 0.0985 0.6825
C80 C 0.2647(4) 0.0571(3) 0.7555(3)
H38 H 0.2497 0.0967 0.7734
C81 C 0.6913(3) 0.0588(4) 0.2992(3)
H39 H 0.6774 0.0985 0.3175
C82 C 0.7353(4) 0.0571(3) 0.2445(3)
H40 H 0.7503 0.0967 0.2266
N35 N 0.17932(13) 0.05469(16) 0.12765(13)
C85 C 0.6398(2) -0.0000 0.5553(3)
C86 C 0.6203(3) 0.0000 0.6205(3)
C87 C 0.5526(2) 0.0000 0.6418(3)
C88 C 0.7070(3) -0.0000 0.5328(3)
H43 H 0.7441 -0.0000 0.5602
C89 C 0.5322(3) -0.0000 0.7096(3)
H44 H 0.5594 -0.0000 0.7472
C90 C 0.6696(3) 0.0000 0.6753(3)
C91 C 0.6913(3) 0.0588(4) 0.7008(3)
H45 H 0.6774 0.0985 0.6825
C92 C 0.7353(4) 0.0571(3) 0.7555(3)
H46 H 0.7503 0.0967 0.7734
C93 C 0.7566(2) -0.0000 0.7829(2)
C94 C 0.7999(2) -0.0000 0.8424(2)
N39 N 0.82068(13) 0.05469(16) 0.87235(13)
Mn7_2 Mn 0.5000 1.0000 0.5000
N21_2 N 0.4016(3) 1.0000 0.5000
N22_2 N 0.5000 1.0000 0.4002(3)
N23 N 0.17932(13) 0.94531(16) 0.12765(13)
C49_2 C 0.3602(2) 1.0000 0.4447(3)
C50_2 C 0.3797(3) 1.0000 0.3795(3)
C51_2 C 0.4474(2) 1.0000 0.3582(3)
C52_2 C 0.2930(3) 1.0000 0.4672(3)
H25_2 H 0.2559 1.0000 0.4398
C53_2 C 0.4678(3) 1.0000 0.2904(3)
H26_2 H 0.4406 1.0000 0.2528
C54_2 C 0.3304(3) 1.0000 0.3247(3)
C57_2 C 0.2434(2) 1.0000 0.2171(2)
C58_2 C 0.2001(2) 1.0000 0.1576(2)
N25_2 N 0.5984(3) 1.0000 0.5000
C59_2 C 0.6398(2) 1.0000 0.4447(3)
C60_2 C 0.6203(3) 1.0000 0.3795(3)
C61_2 C 0.5526(2) 1.0000 0.3582(3)
C62_2 C 0.7070(3) 1.0000 0.4672(3)
H29_2 H 0.7441 1.0000 0.4398
C63_2 C 0.5322(3) 1.0000 0.2904(3)
H30_2 H 0.5594 1.0000 0.2528
C64_2 C 0.6696(3) 1.0000 0.3247(3)
C65 C 0.6913(3) 0.9412(4) 0.2992(3)
H31 H 0.6774 0.9015 0.3175
C66 C 0.7353(4) 0.9429(3) 0.2445(3)
H32 H 0.7503 0.9033 0.2266
C67_2 C 0.7566(2) 1.0000 0.2171(2)
C68_2 C 0.7999(2) 1.0000 0.1576(2)
N28_2 N 0.5000 1.0000 0.5998(3)
C69_2 C 0.3602(2) 1.0000 0.5553(3)
C70_2 C 0.3797(3) 1.0000 0.6205(3)
C71_2 C 0.4474(2) 1.0000 0.6418(3)
C72_2 C 0.2930(3) 1.0000 0.5328(3)
H33_2 H 0.2559 1.0000 0.5602
C73_2 C 0.4678(3) 1.0000 0.7096(3)
H34_2 H 0.4406 1.0000 0.7472
C74_2 C 0.3304(3) 1.0000 0.6753(3)
C75 C 0.3087(3) 0.9412(4) 0.7008(3)
H35 H 0.3226 0.9015 0.6825
C76 C 0.2647(4) 0.9429(3) 0.7555(3)
H36 H 0.2497 0.9033 0.7734
C77_2 C 0.2434(2) 1.0000 0.7829(2)
C78_2 C 0.2001(2) 1.0000 0.8424(2)
N31 N 0.17932(13) 0.94531(16) 0.87235(13)
N33 N 0.82068(13) 0.94531(16) 0.12765(13)
C83 C 0.3087(3) 0.9412(4) 0.2992(3)
H41 H 0.3226 0.9015 0.3175
C84 C 0.2647(4) 0.9429(3) 0.2445(3)
H42 H 0.2497 0.9033 0.2266
N37 N 0.82068(13) 0.94531(16) 0.87235(13)
C85_2 C 0.6398(2) 1.0000 0.5553(3)
C86_2 C 0.6203(3) 1.0000 0.6205(3)
C87_2 C 0.5526(2) 1.0000 0.6418(3)
C88_2 C 0.7070(3) 1.0000 0.5328(3)
H43_2 H 0.7441 1.0000 0.5602
C89_2 C 0.5322(3) 1.0000 0.7096(3)
H44_2 H 0.5594 1.0000 0.7472
C90_2 C 0.6696(3) 1.0000 0.6753(3)
C93_2 C 0.7566(2) 1.0000 0.7829(2)
C94_2 C 0.7999(2) 1.0000 0.8424(2)
C95 C 0.6913(3) 0.9412(4) 0.7008(3)
H47 H 0.6774 0.9015 0.6825
C96 C 0.7353(4) 0.9429(3) 0.7555(3)
H48 H 0.7503 0.9033 0.7734
loop_
_geom_bond_atom_site_label_1
_geom_bond_atom_site_label_2
_geom_bond_site_symmetry_1
_geom_bond_site_symmetry_2
Mn5 N1 1_555 1_555
Mn13 Cl5 1_555 1_555
O1 Mn13 1_555 1_555
N1 C1 1_555 1_555
N2 Mn5 1_555 1_555
N3 N4 1_555 1_555
N4 Mn13 1_555 1_555
C1 C2 1_555 1_555
C2 C3 1_555 1_555
C3 N2 1_555 1_555
C4 C1 1_555 1_555
H1 C4 1_555 1_555
C5 C3 1_555 1_555
H2 C5 1_555 1_555
C6 C2 1_555 1_555
C10 N3 1_555 1_555
N5 Mn5 1_555 1_555
C11 N5 1_555 1_555
C12 C11 1_555 1_555
C13 N2 1_555 1_555
C14 C11 1_555 1_555
H5 C14 1_555 1_555
C15 C5 1_555 1_555
H6 C15 1_555 1_555
C16 C12 1_555 1_555
C17 C16 1_555 1_555
H7 C17 1_555 1_555
C18 C17 1_555 1_555
H8 C18 1_555 1_555
C19 C18 1_555 1_555
N8 Mn5 1_555 1_555
C21 N1 1_555 1_555
C22 C21 1_555 1_555
C23 N8 1_555 1_555
C24 C4 1_555 1_555
H9 C24 1_555 1_555
C25 C23 1_555 1_555
H10 C25 1_555 1_555
C26 C22 1_555 1_555
C27 C26 1_555 1_555
H11 C27 1_555 1_555
C28 C27 1_555 1_555
H12 C28 1_555 1_555
C29 C28 1_555 1_555
N11 C30 1_555 1_555
N12 N11 1_555 1_555
N13 C20 1_555 1_555
N14 N13 1_555 1_555
C35 C6 1_555 1_555
H17 C35 1_555 1_555
C36 C9 1_555 1_555
H18 C36 1_555 1_555
N17 N18 1_555 1_555
C37 N5 1_555 1_555
C38 C37 1_555 1_555
C39 N8 1_555 1_555
C40 C14 1_555 1_555
H19 C40 1_555 1_555
C41 C25 1_555 1_555
H20 C41 1_555 1_555
C42 C38 1_555 1_555
C46 N17 1_555 1_555
C47 C42 1_555 1_555
H23 C47 1_555 1_555
C48 C45 1_555 1_555
H24 C48 1_555 1_555
Mn13_2 N12 1_555 1_555
Mn22 N14 1_555 1_555
Mn22_2 N18 1_555 1_555
N52 Mn13 1_555 1_555
C9 C10 1_555 1_555
C12 C13 1_555 1_555
C13 C15 1_555 1_555
C19 C20 1_555 1_555
C21 C24 1_555 1_555
C22 C23 1_555 1_555
C29 C30 1_555 1_555
C35 C36 1_555 1_555
C37 C40 1_555 1_555
C38 C39 1_555 1_555
C39 C41 1_555 1_555
C45 C46 1_555 1_555
C47 C48 1_555 1_555
Mn13_2 Cl5_2 1_555 1_555
O1_2 Mn13_2 1_555 1_555
N45 Mn13_2 1_555 1_555
Mn22 Cl5_3 1_555 1_555
O4 Mn22 1_555 1_555
N42 Mn22 1_555 1_555
Mn22_2 Cl5_4 1_555 1_555
O4_2 Mn22_2 1_555 1_555
N49 Mn22_2 1_555 1_555
Mn5_2 N1_2 1_555 1_555
N1_2 C1_2 1_555 1_555
N2_2 Mn5_2 1_555 1_555
C1_2 C2_2 1_555 1_555
C2_2 C3_2 1_555 1_555
C3_2 N2_2 1_555 1_555
C4_2 C1_2 1_555 1_555
H1_2 C4_2 1_555 1_555
C5_2 C3_2 1_555 1_555
H2_2 C5_2 1_555 1_555
C6_2 C2_2 1_555 1_555
C7 C6_2 1_555 1_555
H3 C7 1_555 1_555
C8 C7 1_555 1_555
H4 C8 1_555 1_555
C9_2 C8 1_555 1_555
N5_2 Mn5_2 1_555 1_555
N6 N7 1_555 1_555
C11_2 N5_2 1_555 1_555
C12_2 C11_2 1_555 1_555
C13_2 N2_2 1_555 1_555
C14_2 C11_2 1_555 1_555
H5_2 C14_2 1_555 1_555
C15_2 C5_2 1_555 1_555
H6_2 C15_2 1_555 1_555
C16_2 C12_2 1_555 1_555
C20_2 N6 1_555 1_555
N8_2 Mn5_2 1_555 1_555
N9 N10 1_555 1_555
C21_2 N1_2 1_555 1_555
C22_2 C21_2 1_555 1_555
C23_2 N8_2 1_555 1_555
C24_2 C4_2 1_555 1_555
H9_2 C24_2 1_555 1_555
C25_2 C23_2 1_555 1_555
H10_2 C25_2 1_555 1_555
C26_2 C22_2 1_555 1_555
C30_2 N9 1_555 1_555
C31 C26_2 1_555 1_555
H13 C31 1_555 1_555
C32 C29_2 1_555 1_555
H14 C32 1_555 1_555
C33 C16_2 1_555 1_555
H15 C33 1_555 1_555
C34 C19_2 1_555 1_555
H16 C34 1_555 1_555
N15 C10_2 1_555 1_555
C37_2 N5_2 1_555 1_555
C38_2 C37_2 1_555 1_555
C39_2 N8_2 1_555 1_555
C40_2 C14_2 1_555 1_555
H19_2 C40_2 1_555 1_555
C41_2 C25_2 1_555 1_555
H20_2 C41_2 1_555 1_555
C42_2 C38_2 1_555 1_555
C43 C42_2 1_555 1_555
H21 C43 1_555 1_555
C44 C43 1_555 1_555
H22 C44 1_555 1_555
C45_2 C44 1_555 1_555
N19 C46_2 1_555 1_555
N20 N19 1_555 1_555
Mn19 Cl5_5 1_555 1_555
O3 Mn19 1_555 1_555
Mn16 N7 1_555 1_555
Mn16_2 N20 1_555 1_555
Mn19_2 N10 1_555 1_555
N41 Mn19 1_555 1_555
C9_2 C10_2 1_555 1_555
C12_2 C13_2 1_555 1_555
C13_2 C15_2 1_555 1_555
C19_2 C20_2 1_555 1_555
C21_2 C24_2 1_555 1_555
C22_2 C23_2 1_555 1_555
C29_2 C30_2 1_555 1_555
C31 C32 1_555 1_555
C33 C34 1_555 1_555
N15 N16 1_555 1_555
N16 Mn19 1_555 1_555
C37_2 C40_2 1_555 1_555
C38_2 C39_2 1_555 1_555
C39_2 C41_2 1_555 1_555
C45_2 C46_2 1_555 1_555
Mn19_2 Cl5_6 1_555 1_555
O3_2 Mn19_2 1_555 1_555
N50 Mn19_2 1_555 1_555
Cl5_7 Mn16 1_555 1_555
Mn16 O2 1_555 1_555
N51 Mn16 1_555 1_555
Cl5_8 Mn16_2 1_555 1_555
Mn16_2 O2_2 1_555 1_555
N46 Mn16_2 1_555 1_555
Mn7 N21 1_555 1_555
N21 C49 1_555 1_555
N22 Mn7 1_555 1_555
C49 C50 1_555 1_555
C50 C51 1_555 1_555
C51 N22 1_555 1_555
C52 C49 1_555 1_555
H25 C52 1_555 1_555
C53 C51 1_555 1_555
H26 C53 1_555 1_555
C54 C50 1_555 1_555
C55 C54 1_555 1_555
H27 C55 1_555 1_555
C56 C55 1_555 1_555
H28 C56 1_555 1_555
C57 C56 1_555 1_555
N25 Mn7 1_555 1_555
N26 N41 1_555 1_555
C59 N25 1_555 1_555
C60 C59 1_555 1_555
C61 N22 1_555 1_555
C62 C59 1_555 1_555
H29 C62 1_555 1_555
C63 C53 1_555 1_555
H30 C63 1_555 1_555
C64 C60 1_555 1_555
C68 N26 1_555 1_555
N28 Mn7 1_555 1_555
N29 N45 1_555 1_555
C69 N21 1_555 1_555
C70 C69 1_555 1_555
C71 N28 1_555 1_555
C72 C52 1_555 1_555
H33 C72 1_555 1_555
C73 C71 1_555 1_555
H34 C73 1_555 1_555
C74 C70 1_555 1_555
C78 N29 1_555 1_555
C79 C74 1_555 1_555
H37 C79 1_555 1_555
C80 C77 1_555 1_555
H38 C80 1_555 1_555
C81 C64 1_555 1_555
H39 C81 1_555 1_555
C82 C67 1_555 1_555
H40 C82 1_555 1_555
N35 C58 1_555 1_555
C85 N25 1_555 1_555
C86 C85 1_555 1_555
C87 N28 1_555 1_555
C88 C62 1_555 1_555
H43 C88 1_555 1_555
C89 C73 1_555 1_555
H44 C89 1_555 1_555
C90 C86 1_555 1_555
C91 C90 1_555 1_555
H45 C91 1_555 1_555
C92 C91 1_555 1_555
H46 C92 1_555 1_555
C93 C92 1_555 1_555
N39 C94 1_555 1_555
N50 N39 1_555 1_555
C57 C58 1_555 1_555
C60 C61 1_555 1_555
C61 C63 1_555 1_555
C67 C68 1_555 1_555
C69 C72 1_555 1_555
C70 C71 1_555 1_555
C77 C78 1_555 1_555
C79 C80 1_555 1_555
C81 C82 1_555 1_555
N35 N52 1_555 1_555
C85 C88 1_555 1_555
C86 C87 1_555 1_555
C87 C89 1_555 1_555
C93 C94 1_555 1_555
Mn7_2 N21_2 1_555 1_555
N21_2 C49_2 1_555 1_555
N22_2 Mn7_2 1_555 1_555
N23 N42 1_555 1_555
C49_2 C50_2 1_555 1_555
C50_2 C51_2 1_555 1_555
C51_2 N22_2 1_555 1_555
C52_2 C49_2 1_555 1_555
H25_2 C52_2 1_555 1_555
C53_2 C51_2 1_555 1_555
H26_2 C53_2 1_555 1_555
C54_2 C50_2 1_555 1_555
C58_2 N23 1_555 1_555
N25_2 Mn7_2 1_555 1_555
C59_2 N25_2 1_555 1_555
C60_2 C59_2 1_555 1_555
C61_2 N22_2 1_555 1_555
C62_2 C59_2 1_555 1_555
H29_2 C62_2 1_555 1_555
C63_2 C53_2 1_555 1_555
H30_2 C63_2 1_555 1_555
C64_2 C60_2 1_555 1_555
C65 C64_2 1_555 1_555
H31 C65 1_555 1_555
C66 C65 1_555 1_555
H32 C66 1_555 1_555
C67_2 C66 1_555 1_555
N28_2 Mn7_2 1_555 1_555
C69_2 N21_2 1_555 1_555
C70_2 C69_2 1_555 1_555
C71_2 N28_2 1_555 1_555
C72_2 C52_2 1_555 1_555
H33_2 C72_2 1_555 1_555
C73_2 C71_2 1_555 1_555
H34_2 C73_2 1_555 1_555
C74_2 C70_2 1_555 1_555
C75 C74_2 1_555 1_555
H35 C75 1_555 1_555
C76 C75 1_555 1_555
H36 C76 1_555 1_555
C77_2 C76 1_555 1_555
N31 C78_2 1_555 1_555
N49 N31 1_555 1_555
N33 C68_2 1_555 1_555
N51 N33 1_555 1_555
C83 C54_2 1_555 1_555
H41 C83 1_555 1_555
C84 C57_2 1_555 1_555
H42 C84 1_555 1_555
N37 N46 1_555 1_555
C85_2 N25_2 1_555 1_555
C86_2 C85_2 1_555 1_555
C87_2 N28_2 1_555 1_555
C88_2 C62_2 1_555 1_555
H43_2 C88_2 1_555 1_555
C89_2 C73_2 1_555 1_555
H44_2 C89_2 1_555 1_555
C90_2 C86_2 1_555 1_555
C94_2 N37 1_555 1_555
C95 C90_2 1_555 1_555
H47 C95 1_555 1_555
C96 C93_2 1_555 1_555
H48 C96 1_555 1_555
C57_2 C58_2 1_555 1_555
C60_2 C61_2 1_555 1_555
C61_2 C63_2 1_555 1_555
C67_2 C68_2 1_555 1_555
C69_2 C72_2 1_555 1_555
C70_2 C71_2 1_555 1_555
C77_2 C78_2 1_555 1_555
C83 C84 1_555 1_555
C85_2 C88_2 1_555 1_555
C86_2 C87_2 1_555 1_555
C87_2 C89_2 1_555 1_555
C93_2 C94_2 1_555 1_555
C95 C96 1_555 1_555

#END
