
###############################################################################
#
# This file contains modified crystal structure data generated from the
# MOF subset of the Cambridge Structural Database (CSD) v543 
# hosted by the Cambridge Crystallographic Data Centre (CCDC).
#
# This work is licensed under the Creative Commons
# Attribution-NonCommercial-ShareAlike 4.0 International License.
# To view a copy of this license, visit
# http://creativecommons.org/licenses/by-nc-sa/4.0/
# or send a letter to
# Creative Commons, PO Box 1866, Mountain View, CA 94042, USA.
#
# CIF created using the CSD Python API on 29 September 2022
# The structure has been converted into the P1 space group
# The structure has a 3D framework
# The original CSD entry DOZKIO is in the triclinic crystal system
# The framework has been calculated to contain at least 10.0% void space
# The void calculation uses a probe of radius 1.32A, grid spacing 0.4
# H atom positions have been added when not included in the experimental data
# Generated hydrogen atom positions removed from atoms on special positions
#
###############################################################################

data_DOZKIO
_chemical_formula_moiety         '(C48 H38 Eu2 O19)n'
_symmetry_cell_setting           triclinic
_symmetry_space_group_name_H-M   'P 1'
_symmetry_Int_Tables_number      1
_space_group_name_Hall           'P 1'
loop_
_symmetry_equiv_pos_site_id
_symmetry_equiv_pos_as_xyz
1 x,y,z
_cell_length_a                   10.2187(10)
_cell_length_b                   11.5176(11)
_cell_length_c                   16.3127(16)
_cell_angle_alpha                82.710(2)
_cell_angle_beta                 75.9110(10)
_cell_angle_gamma                77.542(2)
_cell_volume                     1812.71
loop_
_atom_site_label
_atom_site_type_symbol
_atom_site_fract_x
_atom_site_fract_y
_atom_site_fract_z
_atom_site_U_iso_or_equiv
_atom_site_thermal_displace_type
Eu6 Eu 0.33850(2) 0.12977(2) 0.478414(15) 0.0370 Uani
C18 C 0.0003(5) 0.1987(5) 0.3552(3) 0.0490 Uani
H7 H 0.0756 0.3161 0.2625 0.0600 Uiso
C21 C 0.1247(5) 0.1644(5) 0.3919(3) 0.0509 Uani
C22 C 0.0653(6) 0.3043(5) 0.0848(3) 0.0523 Uani
H8 H 0.0705 0.2398 0.1252 0.0630 Uiso
O9 O 0.1373(4) 0.0748(4) 0.4422(3) 0.0663 Uani
O10 O 0.2135(4) 0.2305(4) 0.3722(3) 0.0632 Uani
C47 C 0.1528(6) 0.2964(5) 0.0083(3) 0.0505 Uani
H24 H 0.53469 0.119576 0.0226295 . .
C25 C 0.4857(6) 0.0899(5) 0.6497(3) 0.0476 Uani
C26 C 0.4687(6) 0.1328(5) 0.7340(3) 0.0500 Uani
C27 C 0.5563(6) 0.0803(5) 0.7882(4) 0.0581 Uani
H10 H 0.6234 0.0136 0.7724 0.0700 Uiso
C28 C 0.5448(6) 0.1254(6) 0.8642(4) 0.0602 Uani
C29 C 0.4424(7) 0.2249(6) 0.8877(4) 0.0598 Uani
H11 H 0.4362 0.2573 0.9382 0.0720 Uiso
C30 C 0.3520(6) 0.2752(5) 0.8391(3) 0.0457 Uani
C31 C 0.3664(6) 0.2295(5) 0.7610(3) 0.0534 Uani
H12 H 0.3060 0.2647 0.7266 0.0640 Uiso
C32 C 0.2401(5) 0.3823(5) 0.8630(3) 0.0430 Uani
C33 C 0.1510(5) 0.3904(4) 0.9427(3) 0.0408 Uani
C34 C 0.0468(5) 0.4941(4) 0.9591(3) 0.0395 Uani
C35 C 0.0347(5) 0.5909(4) 0.8952(3) 0.0416 Uani
C36 C 0.1239(5) 0.5779(5) 0.8150(3) 0.0430 Uani
C37 C 0.2241(5) 0.4765(5) 0.8021(3) 0.0479 Uani
H13 H 0.2847 0.4710 0.7494 0.0570 Uiso
C38 C 0.1194(5) 0.6737(5) 0.7434(3) 0.0457 Uani
C39 C 0.2360(5) 0.7171(5) 0.7040(3) 0.0487 Uani
H14 H 0.3166 0.6875 0.7228 0.0580 Uiso
C40 C 0.2367(5) 0.8056(5) 0.6355(3) 0.0444 Uani
C41 C 0.1158(5) 0.8473(5) 0.6085(3) 0.0463 Uani
H15 H 0.1129 0.9075 0.5648 0.0560 Uiso
C43 C 0.0031(5) 0.7147(5) 0.7126(3) 0.0500 Uani
C44 C 0.3668(6) 0.8442(5) 0.5949(3) 0.0474 Uani
H18 H 0.2172 0.2263 0.9979 0.0610 Uiso
C48 C 0.6424(8) 0.0704(7) 0.9171(5) 0.0827 Uani
O12 O 0.4132(4) 0.1504(4) 0.6016(2) 0.0630 Uani
O14 O 0.6279(7) 0.1214(6) 0.9866(4) 0.1278 Uani
O15 O 0.4760(4) 0.7832(4) 0.6070(3) 0.0685 Uani
O16 O 0.3640(4) 0.9379(3) 0.5468(2) 0.0567 Uani
Eu10 Eu 0.66150(2) 0.87023(2) 0.521586(15) 0.0370 Uani
O11 O 0.5695(4) 0.9952(3) 0.6331(2) 0.0516 Uani
O13 O 0.7317(6) 0.9826(6) 0.8998(4) 0.1090 Uani
O1 O 0.1292(6) 0.1929(8) 0.5870(4) 0.1475 Uani
O2 O 0.2922(8) 0.3514(6) 0.4933(5) 0.1424 Uani
O3 O 0.4305(4) 0.0048(3) 0.3669(2) 0.0516 Uani
O5 O 0.2683(6) 0.0174(6) 0.1002(4) 0.1090 Uani
O24 O 0.5240(4) 0.2168(4) 0.3930(3) 0.0685 Uani
O26 O 0.6360(4) 0.0621(3) 0.4532(2) 0.0567 Uani
C1 C 0.5143(6) 0.9101(5) 0.3503(3) 0.0476 Uani
C2 C 0.5313(6) 0.8672(5) 0.2660(3) 0.0500 Uani
C3 C 0.4437(6) 0.9197(5) 0.2118(4) 0.0581 Uani
H1 H 0.3766 0.9864 0.2276 0.0700 Uiso
C4 C 0.4552(6) 0.8746(6) 0.1358(4) 0.0602 Uani
C5 C 0.5576(7) 0.7751(6) 0.1123(4) 0.0598 Uani
H2 H 0.5638 0.7427 0.0618 0.0720 Uiso
C6 C 0.6480(6) 0.7248(5) 0.1609(3) 0.0457 Uani
C7 C 0.6336(6) 0.7705(5) 0.2390(3) 0.0534 Uani
H3 H 0.6940 0.7353 0.2734 0.0640 Uiso
C8 C 0.7599(5) 0.6177(5) 0.1370(3) 0.0430 Uani
C9 C 0.8490(5) 0.6096(4) 0.0573(3) 0.0408 Uani
C10 C 0.9532(5) 0.5059(4) 0.0409(3) 0.0395 Uani
C11 C 0.9653(5) 0.4091(4) 0.1048(3) 0.0416 Uani
C12 C 0.8761(5) 0.4221(5) 0.1850(3) 0.0430 Uani
C13 C 0.7759(5) 0.5235(5) 0.1979(3) 0.0479 Uani
H4 H 0.7153 0.5290 0.2506 0.0570 Uiso
C14 C 0.8806(5) 0.3263(5) 0.2566(3) 0.0457 Uani
C15 C 0.7640(5) 0.2829(5) 0.2960(3) 0.0487 Uani
H5 H 0.6834 0.3125 0.2772 0.0580 Uiso
C16 C 0.7633(5) 0.1944(5) 0.3645(3) 0.0444 Uani
C17 C 0.8842(5) 0.1527(5) 0.3915(3) 0.0463 Uani
H6 H 0.8871 0.0925 0.4352 0.0560 Uiso
C19 C 0.9969(5) 0.2853(5) 0.2874(3) 0.0500 Uani
C20 C 0.6332(6) 0.1558(5) 0.4051(3) 0.0474 Uani
H9 H 0.7828 0.7737 0.0021 0.0610 Uiso
C24 C 0.3576(8) 0.9296(7) 0.0829(5) 0.0827 Uani
O4 O 0.5868(4) 0.8496(4) 0.3984(2) 0.0630 Uani
O6 O 0.3721(7) 0.8786(6) 0.0134(4) 0.1278 Uani
H19 H 0.360259 0.794549 0.0278305 . .
C23 C 0.8472(6) 0.7036(5) 0.9917(3) 0.0505 Uani
C42 C 0.9997(5) 0.8013(5) 0.6448(3) 0.0490 Uani
H16 H 0.9244 0.6839 0.7375 0.0600 Uiso
C45 C 0.8753(5) 0.8356(5) 0.6081(3) 0.0509 Uani
C46 C 0.9347(6) 0.6957(5) 0.9152(3) 0.0523 Uani
H17 H 0.9295 0.7602 0.8748 0.0630 Uiso
O17 O 0.8627(4) 0.9252(4) 0.5578(3) 0.0663 Uani
O18 O 0.7865(4) 0.7695(4) 0.6278(3) 0.0632 Uani
O19 O 0.8708(6) 0.8071(8) 0.4130(4) 0.1475 Uani
O20 O 0.7078(8) 0.6486(6) 0.5067(5) 0.1424 Uani
H19_2 H 0.639741 0.205451 0.972169 . .
H24_2 H 0.46531 0.880424 0.977371 . .
loop_
_atom_site_aniso_label
_atom_site_aniso_U_11
_atom_site_aniso_U_22
_atom_site_aniso_U_33
_atom_site_aniso_U_23
_atom_site_aniso_U_13
_atom_site_aniso_U_12
Eu6 0.03128 0.03874 0.03918 0.00552 -0.01116 -0.00404
C18 0.036 0.063 0.041 0.022 -0.011 -0.007
C21 0.034 0.068 0.044 0.023 -0.01 -0.01
C22 0.051 0.046 0.043 0.018 -0.004 0.007
O9 0.047 0.078 0.077 0.042 -0.033 -0.025
O10 0.044 0.073 0.073 0.035 -0.026 -0.021
C47 0.053 0.038 0.045 0.007 -0.005 0.012
C25 0.052 0.054 0.039 -0.007 -0.016 -0.006
C26 0.045 0.055 0.045 0 -0.013 0.002
C27 0.049 0.055 0.062 -0.011 -0.01 0.009
C28 0.063 0.063 0.048 -0.008 -0.023 0.016
C29 0.068 0.063 0.042 -0.01 -0.009 0.001
C30 0.053 0.044 0.032 0.003 -0.003 -0.003
C31 0.049 0.057 0.049 0.003 -0.013 -0.001
C32 0.041 0.044 0.035 0.008 -0.006 0.002
C33 0.043 0.036 0.035 0.007 -0.007 0.003
C34 0.043 0.039 0.03 0.007 -0.005 -0.003
C35 0.038 0.038 0.036 0.015 -0.004 0.005
C36 0.037 0.047 0.036 0.016 -0.009 0.001
C37 0.041 0.06 0.03 0.006 0.002 0.001
C38 0.036 0.055 0.036 0.01 -0.002 -0.002
C39 0.039 0.057 0.044 0.016 -0.014 -0.002
C40 0.041 0.05 0.038 0.013 -0.011 -0.007
C41 0.044 0.049 0.042 0.018 -0.012 -0.01
C43 0.033 0.064 0.046 0.021 -0.008 -0.01
C44 0.048 0.059 0.036 0.009 -0.009 -0.02
C48 0.087 0.085 0.067 -0.006 -0.031 0.019
O12 0.068 0.067 0.056 -0.016 -0.033 0.011
O14 0.138 0.146 0.098 -0.055 -0.071 0.053
O15 0.037 0.074 0.089 0.033 -0.019 -0.016
O16 0.068 0.058 0.052 0.0251 -0.026 -0.032
Eu10 0.03128 0.03874 0.03918 0.00552 -0.01116 -0.00404
O11 0.053 0.052 0.047 -0.0114 -0.0169 0.0066
O13 0.105 0.109 0.101 -0.021 -0.05 0.043
O1 0.076 0.246 0.095 -0.032 -0.006 0.02
O2 0.159 0.091 0.183 -0.051 -0.094 0.05
O3 0.053 0.052 0.047 -0.0114 -0.0169 0.0066
O5 0.105 0.109 0.101 -0.021 -0.05 0.043
O24 0.037 0.074 0.089 0.033 -0.019 -0.016
O26 0.068 0.058 0.052 0.0251 -0.026 -0.032
C1 0.052 0.054 0.039 -0.007 -0.016 -0.006
C2 0.045 0.055 0.045 0 -0.013 0.002
C3 0.049 0.055 0.062 -0.011 -0.01 0.009
C4 0.063 0.063 0.048 -0.008 -0.023 0.016
C5 0.068 0.063 0.042 -0.01 -0.009 0.001
C6 0.053 0.044 0.032 0.003 -0.003 -0.003
C7 0.049 0.057 0.049 0.003 -0.013 -0.001
C8 0.041 0.044 0.035 0.008 -0.006 0.002
C9 0.043 0.036 0.035 0.007 -0.007 0.003
C10 0.043 0.039 0.03 0.007 -0.005 -0.003
C11 0.038 0.038 0.036 0.015 -0.004 0.005
C12 0.037 0.047 0.036 0.016 -0.009 0.001
C13 0.041 0.06 0.03 0.006 0.002 0.001
C14 0.036 0.055 0.036 0.01 -0.002 -0.002
C15 0.039 0.057 0.044 0.016 -0.014 -0.002
C16 0.041 0.05 0.038 0.013 -0.011 -0.007
C17 0.044 0.049 0.042 0.018 -0.012 -0.01
C19 0.033 0.064 0.046 0.021 -0.008 -0.01
C20 0.048 0.059 0.036 0.009 -0.009 -0.02
C24 0.087 0.085 0.067 -0.006 -0.031 0.019
O4 0.068 0.067 0.056 -0.016 -0.033 0.011
O6 0.138 0.146 0.098 -0.055 -0.071 0.053
C23 0.053 0.038 0.045 0.007 -0.005 0.012
C42 0.036 0.063 0.041 0.022 -0.011 -0.007
C45 0.034 0.068 0.044 0.023 -0.01 -0.01
C46 0.051 0.046 0.043 0.018 -0.004 0.007
O17 0.047 0.078 0.077 0.042 -0.033 -0.025
O18 0.044 0.073 0.073 0.035 -0.026 -0.021
O19 0.076 0.246 0.095 -0.032 -0.006 0.02
O20 0.159 0.091 0.183 -0.051 -0.094 0.05
loop_
_geom_bond_atom_site_label_1
_geom_bond_atom_site_label_2
_geom_bond_site_symmetry_1
_geom_bond_site_symmetry_2
C21 C18 1_555 1_555
H8 C22 1_555 1_555
O9 C21 1_555 1_555
O10 C21 1_555 1_555
C47 C22 1_555 1_555
Eu6 O9 1_555 1_555
O10 Eu6 1_555 1_555
C25 C26 1_555 1_555
C26 C27 1_555 1_555
C27 H10 1_555 1_555
C28 C27 1_555 1_555
C29 C28 1_555 1_555
H11 C29 1_555 1_555
C30 C29 1_555 1_555
C31 C26 1_555 1_555
H12 C31 1_555 1_555
C32 C30 1_555 1_555
C33 C32 1_555 1_555
C35 C34 1_555 1_555
C36 C35 1_555 1_555
C37 C32 1_555 1_555
H13 C37 1_555 1_555
C38 C36 1_555 1_555
C39 C38 1_555 1_555
H14 C39 1_555 1_555
C40 C39 1_555 1_555
C41 C40 1_555 1_555
H15 C41 1_555 1_555
C43 C38 1_555 1_555
C44 C40 1_555 1_555
C48 C28 1_555 1_555
O12 C25 1_555 1_555
O14 C48 1_555 1_555
O15 C44 1_555 1_555
O16 C44 1_555 1_555
Eu6 O12 1_555 1_555
Eu10 O15 1_555 1_555
C30 C31 1_555 1_555
C33 C34 1_555 1_555
C36 C37 1_555 1_555
O16 Eu10 1_555 1_555
Eu10 O11 1_555 1_555
Eu6 O1 1_555 1_555
O2 Eu6 1_555 1_555
O24 Eu6 1_555 1_555
O26 Eu6 1_555 1_555
Eu6 O3 1_555 1_555
C1 C2 1_555 1_555
C2 C3 1_555 1_555
C3 H1 1_555 1_555
C4 C3 1_555 1_555
C5 C4 1_555 1_555
H2 C5 1_555 1_555
C6 C5 1_555 1_555
C7 C2 1_555 1_555
H3 C7 1_555 1_555
C8 C6 1_555 1_555
C9 C8 1_555 1_555
C10 C9 1_555 1_555
C11 C10 1_555 1_555
C12 C11 1_555 1_555
C13 C8 1_555 1_555
H4 C13 1_555 1_555
C14 C12 1_555 1_555
C15 C14 1_555 1_555
H5 C15 1_555 1_555
C16 C15 1_555 1_555
C17 C16 1_555 1_555
H6 C17 1_555 1_555
C19 C14 1_555 1_555
C20 C16 1_555 1_555
C24 C4 1_555 1_555
O4 C1 1_555 1_555
O6 C24 1_555 1_555
O24 C20 1_555 1_555
O26 C20 1_555 1_555
Eu10 O4 1_555 1_555
C6 C7 1_555 1_555
C12 C13 1_555 1_555
O6 H19 1_555 1_555
C45 C42 1_555 1_555
C46 C23 1_555 1_555
H17 C46 1_555 1_555
O17 C45 1_555 1_555
O18 C45 1_555 1_555
Eu10 O17 1_555 1_555
O18 Eu10 1_555 1_555
O19 Eu10 1_555 1_555
O20 Eu10 1_555 1_555
O14 H19_2 1_555 1_555

#END
