
###############################################################################
#
# This file contains modified crystal structure data generated from the
# MOF subset of the Cambridge Structural Database (CSD) v543 
# hosted by the Cambridge Crystallographic Data Centre (CCDC).
#
# This work is licensed under the Creative Commons
# Attribution-NonCommercial-ShareAlike 4.0 International License.
# To view a copy of this license, visit
# http://creativecommons.org/licenses/by-nc-sa/4.0/
# or send a letter to
# Creative Commons, PO Box 1866, Mountain View, CA 94042, USA.
#
# CIF created using the CSD Python API on 29 September 2022
# The structure has been converted into the P1 space group
# The structure has a 3D framework
# The original CSD entry DUBJUH is in the monoclinic crystal system
# The framework has been calculated to contain at least 10.0% void space
# The void calculation uses a probe of radius 1.32A, grid spacing 0.4
#
###############################################################################

data_DUBJUH
_chemical_formula_moiety         '(C140 H80 Co8 N24 O32)n'
_symmetry_cell_setting           triclinic
_symmetry_space_group_name_H-M   'P 1'
_symmetry_Int_Tables_number      1
_space_group_name_Hall           'P 1'
loop_
_symmetry_equiv_pos_site_id
_symmetry_equiv_pos_as_xyz
1 x,y,z
_cell_length_a                   19.860(2)
_cell_length_b                   22.140(2)
_cell_length_c                   11.6844(12)
_cell_angle_alpha                90
_cell_angle_beta                 116.318(2)
_cell_angle_gamma                90
_cell_volume                     4605.11
loop_
_atom_site_label
_atom_site_type_symbol
_atom_site_fract_x
_atom_site_fract_y
_atom_site_fract_z
N3 N 0.28160(18) 0.14144(16) 0.4228(3)
C10 C 0.2060(2) 0.1785(2) 0.0256(4)
C11 C 0.3254(3) 0.1304(2) 0.3650(4)
H7 H 0.3731 0.1145 0.4134
C12 C 0.3034(3) 0.1413(3) 0.2378(4)
H8 H 0.3357 0.1327 0.2019
C13 C 0.2331(2) 0.16513(19) 0.1630(4)
C14 C 0.1887(3) 0.1770(3) 0.2233(4)
H9 H 0.1410 0.1934 0.1776
C15 C 0.2148(3) 0.1646(2) 0.3509(4)
H10 H 0.1835 0.1730 0.3890
Co3 Co 0.31289(3) 0.12295(2) 0.61349(5)
N2 N 0.1407(2) 0.20892(17) 0.9705(3)
O1 O 0.31314(17) 0.12376(14) 0.8024(3)
O2 O 0.23248(17) 0.17575(14) 0.6404(3)
O3 O 0.23641(15) 0.05012(13) 0.5629(3)
O4 O 0.38474(15) 0.05017(13) 0.6393(3)
C3 C 0.0400(2) 0.2534(2) 0.7900(4)
C4 C 0.0273(3) 0.2997(2) 0.8596(4)
H3 H 0.0633 0.3091 0.9416
C6 C 0.1118(2) 0.2201(2) 0.8453(4)
C7 C 0.1472(2) 0.2036(2) 0.7710(4)
H5 H 0.1256 0.2123 0.6841
C8 C 0.2155(2) 0.17393(19) 0.8292(4)
C9 C 0.2448(2) 0.16011(19) 0.9574(4)
H6 H 0.2897 0.1389 0.9975
C16 C 0.2565(2) 0.15689(19) 0.7528(4)
C17 C 0.2671(3) -0.0000 0.5786(5)
C18 C 0.3532(3) -0.0000 0.6227(5)
N8 N 0.40633(18) 0.18033(16) 0.6870(3)
N6 N 0.28160(18) 0.85856(16) 0.4228(3)
C28 C 0.2060(2) 0.8215(2) 0.0256(4)
C29 C 0.3254(3) 0.8696(2) 0.3650(4)
H17 H 0.3731 0.8855 0.4134
C30 C 0.3034(3) 0.8587(3) 0.2378(4)
H18 H 0.3357 0.8673 0.2019
C31 C 0.2331(2) 0.83487(19) 0.1630(4)
C32 C 0.1887(3) 0.8230(3) 0.2233(4)
H19 H 0.1410 0.8066 0.1776
C33 C 0.2148(3) 0.8354(2) 0.3509(4)
H20 H 0.1835 0.8270 0.3890
Co5 Co 0.31289(3) 0.87705(2) 0.61349(5)
C17_2 C 0.2671(3) 1.0000 0.5786(5)
C18_2 C 0.3532(3) 1.0000 0.6227(5)
O5 O 0.23641(15) 0.94988(13) 0.5629(3)
O6 O 0.38474(15) 0.94983(13) 0.6393(3)
N5 N 0.1407(2) 0.79108(17) 0.9705(3)
O7 O 0.31314(17) 0.87624(14) 0.8024(3)
O8 O 0.23248(17) 0.82425(14) 0.6404(3)
C21 C 0.0400(2) 0.7466(2) 0.7900(4)
C22 C 0.0273(3) 0.7003(2) 0.8596(4)
H13 H 0.0633 0.6909 0.9416
C24 C 0.1118(2) 0.7799(2) 0.8453(4)
C25 C 0.1472(2) 0.7964(2) 0.7710(4)
H15 H 0.1256 0.7877 0.6841
C26 C 0.2155(2) 0.82607(19) 0.8292(4)
C27 C 0.2448(2) 0.83989(19) 0.9574(4)
H16 H 0.2897 0.8611 0.9975
C34 C 0.2565(2) 0.84311(19) 0.7528(4)
N7 N 0.40633(18) 0.81967(16) 0.6870(3)
N1 N 0.90633(18) 0.31967(16) 0.6870(3)
C1 C 0.9185(2) 0.2741(2) 0.6235(4)
H1 H 0.8807 0.2642 0.5434
C2 C 0.9838(3) 0.2411(2) 0.6699(4)
H2 H 0.9901 0.2107 0.6206
C5 C 0.9605(3) 0.3311(2) 0.8045(4)
H4 H 0.9527 0.3619 0.8514
Co6 Co 0.81289(3) 0.37705(2) 0.61349(5)
N4 N 0.90633(18) 0.68033(16) 0.6870(3)
C19 C 0.9185(2) 0.7259(2) 0.6235(4)
H11 H 0.8807 0.7358 0.5434
C20 C 0.9838(3) 0.7589(2) 0.6699(4)
H12 H 0.9901 0.7893 0.6206
C23 C 0.9605(3) 0.6689(2) 0.8045(4)
H14 H 0.9527 0.6381 0.8514
Co4 Co 0.81289(3) 0.62295(2) 0.61349(5)
N3_2 N 0.78160(18) 0.64144(16) 0.4228(3)
C10_2 C 0.7060(2) 0.6785(2) 0.0256(4)
C11_2 C 0.8254(3) 0.6304(2) 0.3650(4)
H7_2 H 0.8731 0.6145 0.4134
C12_2 C 0.8034(3) 0.6413(3) 0.2378(4)
H8_2 H 0.8357 0.6327 0.2019
C13_2 C 0.7331(2) 0.66513(19) 0.1630(4)
C14_2 C 0.6887(3) 0.6770(3) 0.2233(4)
H9_2 H 0.6410 0.6934 0.1776
C15_2 C 0.7148(3) 0.6646(2) 0.3509(4)
H10_2 H 0.6835 0.6730 0.3890
N6_2 N 0.78160(18) 0.35856(16) 0.4228(3)
C28_2 C 0.7060(2) 0.3215(2) 0.0256(4)
C29_2 C 0.8254(3) 0.3696(2) 0.3650(4)
H17_2 H 0.8731 0.3855 0.4134
C30_2 C 0.8034(3) 0.3587(3) 0.2378(4)
H18_2 H 0.8357 0.3673 0.2019
C31_2 C 0.7331(2) 0.33487(19) 0.1630(4)
C32_2 C 0.6887(3) 0.3230(3) 0.2233(4)
H19_2 H 0.6410 0.3066 0.1776
C33_2 C 0.7148(3) 0.3354(2) 0.3509(4)
H20_2 H 0.6835 0.3270 0.3890
N2_2 N 0.6407(2) 0.70892(17) 0.9705(3)
O1_2 O 0.81314(17) 0.62376(14) 0.8024(3)
O2_2 O 0.73248(17) 0.67575(14) 0.6404(3)
O3_2 O 0.73641(15) 0.55012(13) 0.5629(3)
O4_2 O 0.88474(15) 0.55017(13) 0.6393(3)
C1_2 C 0.4185(2) 0.7741(2) 0.6235(4)
H1_2 H 0.3807 0.7642 0.5434
C2_2 C 0.4838(3) 0.7411(2) 0.6699(4)
H2_2 H 0.4901 0.7107 0.6206
C3_2 C 0.5400(2) 0.7534(2) 0.7900(4)
C4_2 C 0.5273(3) 0.7997(2) 0.8596(4)
H3_2 H 0.5633 0.8091 0.9416
C5_2 C 0.4605(3) 0.8311(2) 0.8045(4)
H4_2 H 0.4527 0.8619 0.8514
C6_2 C 0.6118(2) 0.7201(2) 0.8453(4)
C7_2 C 0.6472(2) 0.7036(2) 0.7710(4)
H5_2 H 0.6256 0.7123 0.6841
C8_2 C 0.7155(2) 0.67393(19) 0.8292(4)
C9_2 C 0.7448(2) 0.66011(19) 0.9574(4)
H6_2 H 0.7897 0.6389 0.9975
C16_2 C 0.7565(2) 0.65689(19) 0.7528(4)
C17_3 C 0.7671(3) 0.5000 0.5786(5)
C18_3 C 0.8532(3) 0.5000 0.6227(5)
O5_2 O 0.73641(15) 0.44988(13) 0.5629(3)
O6_2 O 0.88474(15) 0.44983(13) 0.6393(3)
N5_2 N 0.6407(2) 0.29108(17) 0.9705(3)
O7_2 O 0.81314(17) 0.37624(14) 0.8024(3)
O8_2 O 0.73248(17) 0.32425(14) 0.6404(3)
C19_2 C 0.4185(2) 0.2259(2) 0.6235(4)
H11_2 H 0.3807 0.2358 0.5434
C20_2 C 0.4838(3) 0.2589(2) 0.6699(4)
H12_2 H 0.4901 0.2893 0.6206
C21_2 C 0.5400(2) 0.2466(2) 0.7900(4)
C22_2 C 0.5273(3) 0.2003(2) 0.8596(4)
H13_2 H 0.5633 0.1909 0.9416
C23_2 C 0.4605(3) 0.1689(2) 0.8045(4)
H14_2 H 0.4527 0.1381 0.8514
C24_2 C 0.6118(2) 0.2799(2) 0.8453(4)
C25_2 C 0.6472(2) 0.2964(2) 0.7710(4)
H15_2 H 0.6256 0.2877 0.6841
C26_2 C 0.7155(2) 0.32607(19) 0.8292(4)
C27_2 C 0.7448(2) 0.33989(19) 0.9574(4)
H16_2 H 0.7897 0.3611 0.9975
C34_2 C 0.7565(2) 0.34311(19) 0.7528(4)
N1_2 N 0.09367(18) 0.31967(16) 0.3130(3)
C1_3 C 0.0815(2) 0.2741(2) 0.3765(4)
H1_3 H 0.1193 0.2642 0.4566
C2_3 C 0.0162(3) 0.2411(2) 0.3301(4)
H2_3 H 0.0099 0.2107 0.3794
C5_3 C 0.0395(3) 0.3311(2) 0.1955(4)
H4_3 H 0.0473 0.3619 0.1486
Co6_2 Co 0.18711(3) 0.37705(2) 0.38651(5)
N4_2 N 0.09367(18) 0.68033(16) 0.3130(3)
C19_3 C 0.0815(2) 0.7259(2) 0.3765(4)
H11_3 H 0.1193 0.7358 0.4566
C20_3 C 0.0162(3) 0.7589(2) 0.3301(4)
H12_3 H 0.0099 0.7893 0.3794
C23_3 C 0.0395(3) 0.6689(2) 0.1955(4)
H14_3 H 0.0473 0.6381 0.1486
Co4_2 Co 0.18711(3) 0.62295(2) 0.38651(5)
Co1 Co 0.68711(3) 0.12295(2) 0.38651(5)
N2_3 N 0.8593(2) 0.20892(17) 0.0295(3)
O1_3 O 0.68686(17) 0.12376(14) 0.1976(3)
O2_3 O 0.76752(17) 0.17575(14) 0.3596(3)
O3_3 O 0.76359(15) 0.05012(13) 0.4371(3)
O4_3 O 0.61526(15) 0.05017(13) 0.3607(3)
C3_3 C 0.9600(2) 0.2534(2) 0.2100(4)
C4_3 C 0.9727(3) 0.2997(2) 0.1404(4)
H3_3 H 0.9367 0.3091 0.0584
C6_3 C 0.8882(2) 0.2201(2) 0.1547(4)
C7_3 C 0.8528(2) 0.2036(2) 0.2290(4)
H5_3 H 0.8744 0.2123 0.3159
C8_3 C 0.7845(2) 0.17393(19) 0.1708(4)
C9_3 C 0.7552(2) 0.16011(19) 0.0426(4)
H6_3 H 0.7103 0.1389 0.0025
C16_3 C 0.7435(2) 0.15689(19) 0.2472(4)
C17_4 C 0.7329(3) -0.0000 0.4214(5)
C18_4 C 0.6468(3) -0.0000 0.3773(5)
N8_2 N 0.59367(18) 0.18033(16) 0.3130(3)
N9 N 0.71840(18) 0.14144(16) 0.5772(3)
C10_3 C 0.7940(2) 0.1785(2) 0.9744(4)
C11_3 C 0.6746(3) 0.1304(2) 0.6350(4)
H7_3 H 0.6269 0.1145 0.5866
C12_3 C 0.6966(3) 0.1413(3) 0.7622(4)
H8_3 H 0.6643 0.1327 0.7981
C13_3 C 0.7669(2) 0.16513(19) 0.8370(4)
C14_3 C 0.8113(3) 0.1770(3) 0.7767(4)
H9_3 H 0.8590 0.1934 0.8224
C15_3 C 0.7852(3) 0.1646(2) 0.6491(4)
H10_3 H 0.8165 0.1730 0.6110
C17_5 C 0.7329(3) 1.0000 0.4214(5)
C18_5 C 0.6468(3) 1.0000 0.3773(5)
O5_3 O 0.76359(15) 0.94988(13) 0.4371(3)
O6_3 O 0.61526(15) 0.94983(13) 0.3607(3)
Co2 Co 0.68711(3) 0.87705(2) 0.38651(5)
N5_3 N 0.8593(2) 0.79108(17) 0.0295(3)
O7_3 O 0.68686(17) 0.87624(14) 0.1976(3)
O8_3 O 0.76752(17) 0.82425(14) 0.3596(3)
C21_3 C 0.9600(2) 0.7466(2) 0.2100(4)
C22_3 C 0.9727(3) 0.7003(2) 0.1404(4)
H13_3 H 0.9367 0.6909 0.0584
C24_3 C 0.8882(2) 0.7799(2) 0.1547(4)
C25_3 C 0.8528(2) 0.7964(2) 0.2290(4)
H15_3 H 0.8744 0.7877 0.3159
C26_3 C 0.7845(2) 0.82607(19) 0.1708(4)
C27_3 C 0.7552(2) 0.83989(19) 0.0426(4)
H16_3 H 0.7103 0.8611 0.0025
C34_3 C 0.7435(2) 0.84311(19) 0.2472(4)
N7_2 N 0.59367(18) 0.81967(16) 0.3130(3)
N10 N 0.71840(18) 0.85856(16) 0.5772(3)
C28_3 C 0.7940(2) 0.8215(2) 0.9744(4)
C29_3 C 0.6746(3) 0.8696(2) 0.6350(4)
H17_3 H 0.6269 0.8855 0.5866
C30_3 C 0.6966(3) 0.8587(3) 0.7622(4)
H18_3 H 0.6643 0.8673 0.7981
C31_3 C 0.7669(2) 0.83487(19) 0.8370(4)
C32_3 C 0.8113(3) 0.8230(3) 0.7767(4)
H19_3 H 0.8590 0.8066 0.8224
C33_3 C 0.7852(3) 0.8354(2) 0.6491(4)
H20_3 H 0.8165 0.8270 0.6110
N2_4 N 0.3593(2) 0.70892(17) 0.0295(3)
O1_4 O 0.18686(17) 0.62376(14) 0.1976(3)
O2_4 O 0.26752(17) 0.67575(14) 0.3596(3)
O3_4 O 0.26359(15) 0.55012(13) 0.4371(3)
O4_4 O 0.11526(15) 0.55017(13) 0.3607(3)
C1_4 C 0.5815(2) 0.7741(2) 0.3765(4)
H1_4 H 0.6193 0.7642 0.4566
C2_4 C 0.5162(3) 0.7411(2) 0.3301(4)
H2_4 H 0.5099 0.7107 0.3794
C3_4 C 0.4600(2) 0.7534(2) 0.2100(4)
C4_4 C 0.4727(3) 0.7997(2) 0.1404(4)
H3_4 H 0.4367 0.8091 0.0584
C5_4 C 0.5395(3) 0.8311(2) 0.1955(4)
H4_4 H 0.5473 0.8619 0.1486
C6_4 C 0.3882(2) 0.7201(2) 0.1547(4)
C7_4 C 0.3528(2) 0.7036(2) 0.2290(4)
H5_4 H 0.3744 0.7123 0.3159
C8_4 C 0.2845(2) 0.67393(19) 0.1708(4)
C9_4 C 0.2552(2) 0.66011(19) 0.0426(4)
H6_4 H 0.2103 0.6389 0.0025
C16_4 C 0.2435(2) 0.65689(19) 0.2472(4)
C17_6 C 0.2329(3) 0.5000 0.4214(5)
C18_6 C 0.1468(3) 0.5000 0.3773(5)
O5_4 O 0.26359(15) 0.44988(13) 0.4371(3)
O6_4 O 0.11526(15) 0.44983(13) 0.3607(3)
N5_4 N 0.3593(2) 0.29108(17) 0.0295(3)
O7_4 O 0.18686(17) 0.37624(14) 0.1976(3)
O8_4 O 0.26752(17) 0.32425(14) 0.3596(3)
C19_4 C 0.5815(2) 0.2259(2) 0.3765(4)
H11_4 H 0.6193 0.2358 0.4566
C20_4 C 0.5162(3) 0.2589(2) 0.3301(4)
H12_4 H 0.5099 0.2893 0.3794
C21_4 C 0.4600(2) 0.2466(2) 0.2100(4)
C22_4 C 0.4727(3) 0.2003(2) 0.1404(4)
H13_4 H 0.4367 0.1909 0.0584
C23_4 C 0.5395(3) 0.1689(2) 0.1955(4)
H14_4 H 0.5473 0.1381 0.1486
C24_4 C 0.3882(2) 0.2799(2) 0.1547(4)
C25_4 C 0.3528(2) 0.2964(2) 0.2290(4)
H15_4 H 0.3744 0.2877 0.3159
C26_4 C 0.2845(2) 0.32607(19) 0.1708(4)
C27_4 C 0.2552(2) 0.33989(19) 0.0426(4)
H16_4 H 0.2103 0.3611 0.0025
C34_4 C 0.2435(2) 0.34311(19) 0.2472(4)
N9_2 N 0.21840(18) 0.64144(16) 0.5772(3)
N10_2 N 0.21840(18) 0.35856(16) 0.5772(3)
C10_4 C 0.2940(2) 0.6785(2) 0.9744(4)
C11_4 C 0.1746(3) 0.6304(2) 0.6350(4)
H7_4 H 0.1269 0.6145 0.5866
C12_4 C 0.1966(3) 0.6413(3) 0.7622(4)
H8_4 H 0.1643 0.6327 0.7981
C13_4 C 0.2669(2) 0.66513(19) 0.8370(4)
C14_4 C 0.3113(3) 0.6770(3) 0.7767(4)
H9_4 H 0.3590 0.6934 0.8224
C15_4 C 0.2852(3) 0.6646(2) 0.6491(4)
H10_4 H 0.3165 0.6730 0.6110
C28_4 C 0.2940(2) 0.3215(2) 0.9744(4)
C29_4 C 0.1746(3) 0.3696(2) 0.6350(4)
H17_4 H 0.1269 0.3855 0.5866
C30_4 C 0.1966(3) 0.3587(3) 0.7622(4)
H18_4 H 0.1643 0.3673 0.7981
C31_4 C 0.2669(2) 0.33487(19) 0.8370(4)
C32_4 C 0.3113(3) 0.3230(3) 0.7767(4)
H19_4 H 0.3590 0.3066 0.8224
C33_4 C 0.2852(3) 0.3354(2) 0.6491(4)
H20_4 H 0.3165 0.3270 0.6110
loop_
_geom_bond_atom_site_label_1
_geom_bond_atom_site_label_2
_geom_bond_site_symmetry_1
_geom_bond_site_symmetry_2
N3 C11 1_555 1_555
C11 H7 1_555 1_555
C12 C11 1_555 1_555
H8 C12 1_555 1_555
C13 C10 1_555 1_555
C14 C13 1_555 1_555
H9 C14 1_555 1_555
C15 N3 1_555 1_555
H10 C15 1_555 1_555
Co3 N3 1_555 1_555
C12 C13 1_555 1_555
C14 C15 1_555 1_555
Co3 O1 1_555 1_555
N2 C6 1_555 1_555
O1 C16 1_555 1_555
O2 Co3 1_555 1_555
O3 Co3 1_555 1_555
O4 Co3 1_555 1_555
C4 C3 1_555 1_555
H3 C4 1_555 1_555
C6 C3 1_555 1_555
C7 C6 1_555 1_555
H5 C7 1_555 1_555
C8 C7 1_555 1_555
C9 C8 1_555 1_555
H6 C9 1_555 1_555
C16 O2 1_555 1_555
C17 O3 1_555 1_555
C18 O4 1_555 1_555
N8 Co3 1_555 1_555
C8 C16 1_555 1_555
C17 C18 1_555 1_555
N6 C29 1_555 1_555
C29 H17 1_555 1_555
C30 C29 1_555 1_555
H18 C30 1_555 1_555
C31 C28 1_555 1_555
C32 C31 1_555 1_555
H19 C32 1_555 1_555
C33 N6 1_555 1_555
H20 C33 1_555 1_555
Co5 N6 1_555 1_555
C30 C31 1_555 1_555
C32 C33 1_555 1_555
O5 C17_2 1_555 1_555
O6 C18_2 1_555 1_555
Co5 O5 1_555 1_555
N5 C24 1_555 1_555
O7 Co5 1_555 1_555
O8 Co5 1_555 1_555
C22 C21 1_555 1_555
H13 C22 1_555 1_555
C24 C21 1_555 1_555
C25 C24 1_555 1_555
H15 C25 1_555 1_555
C26 C25 1_555 1_555
C27 C26 1_555 1_555
H16 C27 1_555 1_555
C34 O7 1_555 1_555
N7 Co5 1_555 1_555
C17_2 C18_2 1_555 1_555
O6 Co5 1_555 1_555
O8 C34 1_555 1_555
C26 C34 1_555 1_555
N1 C1 1_555 1_555
C1 H1 1_555 1_555
C2 C1 1_555 1_555
H2 C2 1_555 1_555
C5 N1 1_555 1_555
H4 C5 1_555 1_555
Co6 N1 1_555 1_555
N4 C19 1_555 1_555
C19 H11 1_555 1_555
C20 C19 1_555 1_555
H12 C20 1_555 1_555
C23 N4 1_555 1_555
H14 C23 1_555 1_555
Co4 N4 1_555 1_555
N3_2 C11_2 1_555 1_555
C11_2 H7_2 1_555 1_555
C12_2 C11_2 1_555 1_555
H8_2 C12_2 1_555 1_555
C13_2 C10_2 1_555 1_555
C14_2 C13_2 1_555 1_555
H9_2 C14_2 1_555 1_555
C15_2 N3_2 1_555 1_555
H10_2 C15_2 1_555 1_555
N6_2 C29_2 1_555 1_555
C29_2 H17_2 1_555 1_555
C30_2 C29_2 1_555 1_555
H18_2 C30_2 1_555 1_555
C31_2 C28_2 1_555 1_555
C32_2 C31_2 1_555 1_555
H19_2 C32_2 1_555 1_555
C33_2 N6_2 1_555 1_555
H20_2 C33_2 1_555 1_555
Co4 N3_2 1_555 1_555
Co6 N6_2 1_555 1_555
C12_2 C13_2 1_555 1_555
C14_2 C15_2 1_555 1_555
C30_2 C31_2 1_555 1_555
C32_2 C33_2 1_555 1_555
Co4 O1_2 1_555 1_555
N7 C1_2 1_555 1_555
N2_2 C6_2 1_555 1_555
O1_2 C16_2 1_555 1_555
O2_2 Co4 1_555 1_555
O3_2 Co4 1_555 1_555
O4_2 Co4 1_555 1_555
C1_2 H1_2 1_555 1_555
C2_2 C1_2 1_555 1_555
H2_2 C2_2 1_555 1_555
C3_2 C2_2 1_555 1_555
C4_2 C3_2 1_555 1_555
H3_2 C4_2 1_555 1_555
C5_2 N7 1_555 1_555
H4_2 C5_2 1_555 1_555
C6_2 C3_2 1_555 1_555
C7_2 C6_2 1_555 1_555
H5_2 C7_2 1_555 1_555
C8_2 C7_2 1_555 1_555
C9_2 C8_2 1_555 1_555
H6_2 C9_2 1_555 1_555
C16_2 O2_2 1_555 1_555
C17_3 O3_2 1_555 1_555
C18_3 O4_2 1_555 1_555
O5_2 C17_3 1_555 1_555
O6_2 C18_3 1_555 1_555
Co6 O5_2 1_555 1_555
N8 C19_2 1_555 1_555
N5_2 C24_2 1_555 1_555
O7_2 Co6 1_555 1_555
O8_2 Co6 1_555 1_555
C19_2 H11_2 1_555 1_555
C20_2 C19_2 1_555 1_555
H12_2 C20_2 1_555 1_555
C21_2 C20_2 1_555 1_555
C22_2 C21_2 1_555 1_555
H13_2 C22_2 1_555 1_555
C23_2 N8 1_555 1_555
H14_2 C23_2 1_555 1_555
C24_2 C21_2 1_555 1_555
C25_2 C24_2 1_555 1_555
H15_2 C25_2 1_555 1_555
C26_2 C25_2 1_555 1_555
C27_2 C26_2 1_555 1_555
H16_2 C27_2 1_555 1_555
C34_2 O7_2 1_555 1_555
C4_2 C5_2 1_555 1_555
C8_2 C16_2 1_555 1_555
C17_3 C18_3 1_555 1_555
O6_2 Co6 1_555 1_555
O8_2 C34_2 1_555 1_555
C22_2 C23_2 1_555 1_555
C26_2 C34_2 1_555 1_555
N1_2 C1_3 1_555 1_555
C1_3 H1_3 1_555 1_555
C2_3 C1_3 1_555 1_555
H2_3 C2_3 1_555 1_555
C5_3 N1_2 1_555 1_555
H4_3 C5_3 1_555 1_555
Co6_2 N1_2 1_555 1_555
N4_2 C19_3 1_555 1_555
C19_3 H11_3 1_555 1_555
C20_3 C19_3 1_555 1_555
H12_3 C20_3 1_555 1_555
C23_3 N4_2 1_555 1_555
H14_3 C23_3 1_555 1_555
Co4_2 N4_2 1_555 1_555
Co1 O1_3 1_555 1_555
N2_3 C6_3 1_555 1_555
O1_3 C16_3 1_555 1_555
O2_3 Co1 1_555 1_555
O3_3 Co1 1_555 1_555
O4_3 Co1 1_555 1_555
C4_3 C3_3 1_555 1_555
H3_3 C4_3 1_555 1_555
C6_3 C3_3 1_555 1_555
C7_3 C6_3 1_555 1_555
H5_3 C7_3 1_555 1_555
C8_3 C7_3 1_555 1_555
C9_3 C8_3 1_555 1_555
H6_3 C9_3 1_555 1_555
C16_3 O2_3 1_555 1_555
C17_4 O3_3 1_555 1_555
C18_4 O4_3 1_555 1_555
N8_2 Co1 1_555 1_555
N9 Co1 1_555 1_555
C8_3 C16_3 1_555 1_555
C17_4 C18_4 1_555 1_555
N9 C11_3 1_555 1_555
C11_3 H7_3 1_555 1_555
C12_3 C11_3 1_555 1_555
H8_3 C12_3 1_555 1_555
C13_3 C10_3 1_555 1_555
C14_3 C13_3 1_555 1_555
H9_3 C14_3 1_555 1_555
C15_3 N9 1_555 1_555
H10_3 C15_3 1_555 1_555
C12_3 C13_3 1_555 1_555
C14_3 C15_3 1_555 1_555
O5_3 C17_5 1_555 1_555
O6_3 C18_5 1_555 1_555
Co2 O5_3 1_555 1_555
N5_3 C24_3 1_555 1_555
O7_3 Co2 1_555 1_555
O8_3 Co2 1_555 1_555
C22_3 C21_3 1_555 1_555
H13_3 C22_3 1_555 1_555
C24_3 C21_3 1_555 1_555
C25_3 C24_3 1_555 1_555
H15_3 C25_3 1_555 1_555
C26_3 C25_3 1_555 1_555
C27_3 C26_3 1_555 1_555
H16_3 C27_3 1_555 1_555
C34_3 O7_3 1_555 1_555
N7_2 Co2 1_555 1_555
N10 Co2 1_555 1_555
C17_5 C18_5 1_555 1_555
O6_3 Co2 1_555 1_555
O8_3 C34_3 1_555 1_555
C26_3 C34_3 1_555 1_555
N10 C29_3 1_555 1_555
C29_3 H17_3 1_555 1_555
C30_3 C29_3 1_555 1_555
H18_3 C30_3 1_555 1_555
C31_3 C28_3 1_555 1_555
C32_3 C31_3 1_555 1_555
H19_3 C32_3 1_555 1_555
C33_3 N10 1_555 1_555
H20_3 C33_3 1_555 1_555
C30_3 C31_3 1_555 1_555
C32_3 C33_3 1_555 1_555
Co4_2 O1_4 1_555 1_555
N7_2 C1_4 1_555 1_555
N2_4 C6_4 1_555 1_555
O1_4 C16_4 1_555 1_555
O2_4 Co4_2 1_555 1_555
O3_4 Co4_2 1_555 1_555
O4_4 Co4_2 1_555 1_555
C1_4 H1_4 1_555 1_555
C2_4 C1_4 1_555 1_555
H2_4 C2_4 1_555 1_555
C3_4 C2_4 1_555 1_555
C4_4 C3_4 1_555 1_555
H3_4 C4_4 1_555 1_555
C5_4 N7_2 1_555 1_555
H4_4 C5_4 1_555 1_555
C6_4 C3_4 1_555 1_555
C7_4 C6_4 1_555 1_555
H5_4 C7_4 1_555 1_555
C8_4 C7_4 1_555 1_555
C9_4 C8_4 1_555 1_555
H6_4 C9_4 1_555 1_555
C16_4 O2_4 1_555 1_555
C17_6 O3_4 1_555 1_555
C18_6 O4_4 1_555 1_555
O5_4 C17_6 1_555 1_555
O6_4 C18_6 1_555 1_555
Co6_2 O5_4 1_555 1_555
N8_2 C19_4 1_555 1_555
N5_4 C24_4 1_555 1_555
O7_4 Co6_2 1_555 1_555
O8_4 Co6_2 1_555 1_555
C19_4 H11_4 1_555 1_555
C20_4 C19_4 1_555 1_555
H12_4 C20_4 1_555 1_555
C21_4 C20_4 1_555 1_555
C22_4 C21_4 1_555 1_555
H13_4 C22_4 1_555 1_555
C23_4 N8_2 1_555 1_555
H14_4 C23_4 1_555 1_555
C24_4 C21_4 1_555 1_555
C25_4 C24_4 1_555 1_555
H15_4 C25_4 1_555 1_555
C26_4 C25_4 1_555 1_555
C27_4 C26_4 1_555 1_555
H16_4 C27_4 1_555 1_555
C34_4 O7_4 1_555 1_555
N9_2 Co4_2 1_555 1_555
N10_2 Co6_2 1_555 1_555
C4_4 C5_4 1_555 1_555
C8_4 C16_4 1_555 1_555
C17_6 C18_6 1_555 1_555
O6_4 Co6_2 1_555 1_555
O8_4 C34_4 1_555 1_555
C22_4 C23_4 1_555 1_555
C26_4 C34_4 1_555 1_555
N9_2 C11_4 1_555 1_555
C11_4 H7_4 1_555 1_555
C12_4 C11_4 1_555 1_555
H8_4 C12_4 1_555 1_555
C13_4 C10_4 1_555 1_555
C14_4 C13_4 1_555 1_555
H9_4 C14_4 1_555 1_555
C15_4 N9_2 1_555 1_555
H10_4 C15_4 1_555 1_555
N10_2 C29_4 1_555 1_555
C29_4 H17_4 1_555 1_555
C30_4 C29_4 1_555 1_555
H18_4 C30_4 1_555 1_555
C31_4 C28_4 1_555 1_555
C32_4 C31_4 1_555 1_555
H19_4 C32_4 1_555 1_555
C33_4 N10_2 1_555 1_555
H20_4 C33_4 1_555 1_555
C12_4 C13_4 1_555 1_555
C14_4 C15_4 1_555 1_555
C30_4 C31_4 1_555 1_555
C32_4 C33_4 1_555 1_555

#END
