
###############################################################################
#
# This file contains modified crystal structure data generated from the
# MOF subset of the Cambridge Structural Database (CSD) v543 
# hosted by the Cambridge Crystallographic Data Centre (CCDC).
#
# This work is licensed under the Creative Commons
# Attribution-NonCommercial-ShareAlike 4.0 International License.
# To view a copy of this license, visit
# http://creativecommons.org/licenses/by-nc-sa/4.0/
# or send a letter to
# Creative Commons, PO Box 1866, Mountain View, CA 94042, USA.
#
# CIF created using the CSD Python API on 29 September 2022
# The structure has been converted into the P1 space group
# The structure has a 3D framework
# The original CSD entry DUCJOC is in the orthorhombic crystal system
# The framework has been calculated to contain at least 10.0% void space
# The void calculation uses a probe of radius 1.32A, grid spacing 0.4
#
###############################################################################

data_DUCJOC
_chemical_formula_moiety         '(C296 H172 N40 Ni20 O60)n'
_symmetry_cell_setting           triclinic
_symmetry_space_group_name_H-M   'P 1'
_symmetry_Int_Tables_number      1
_space_group_name_Hall           'P 1'
loop_
_symmetry_equiv_pos_site_id
_symmetry_equiv_pos_as_xyz
1 x,y,z
_cell_length_a                   31.395(15)
_cell_length_b                   13.702(7)
_cell_length_c                   15.808(8)
_cell_angle_alpha                90
_cell_angle_beta                 90
_cell_angle_gamma                90
_cell_volume                     6800.2
loop_
_atom_site_label
_atom_site_type_symbol
_atom_site_fract_x
_atom_site_fract_y
_atom_site_fract_z
Ni1 Ni 0.0000 0.40331(5) 0.49782(4)
Ni2 Ni 0.2500 0.28651(8) 0.2500
O1 O 0.04435(10) 0.4127(2) 0.40668(19)
O2 O 0.04450(10) 0.5757(2) 0.41373(19)
O3 O 0.18839(12) 0.3149(3) 0.2853(3)
O4 O 0.21500(13) 0.3985(3) 0.1796(3)
N1 N 0.0000 0.5829(4) 0.2439(3)
N2 N 0.26060(15) 0.1861(4) 0.3445(3)
N3 N 0.0000 0.2568(4) 0.5058(3)
C1 C 0.05456(13) 0.4961(3) 0.3809(3)
C2 C 0.08256(14) 0.5017(3) 0.3037(3)
C3 C 0.11723(14) 0.4381(3) 0.2983(3)
H1 H 0.1207 0.3892 0.3386
C4 C 0.14672(16) 0.4475(4) 0.2328(3)
C5 C 0.1415(2) 0.5213(5) 0.1733(4)
H2 H 0.1615 0.5298 0.1306
C6 C 0.1066(2) 0.5815(4) 0.1778(4)
H3 H 0.1030 0.6294 0.1368
C7 C 0.07619(17) 0.5731(4) 0.2424(3)
C8 C 0.18502(17) 0.3827(4) 0.2309(3)
C9 C 0.03646(16) 0.6326(4) 0.2421(3)
C10 C 0.0375(2) 0.7347(4) 0.2402(4)
H4 H 0.0634 0.7678 0.2397
C11 C 0.0000 0.7851(6) 0.2394(5)
H5 H -0.0000 0.8530 0.2382
C12 C 0.2324(2) 0.1789(5) 0.4069(4)
H6 H 0.2104 0.2242 0.4092
C13 C 0.2342(2) 0.1075(6) 0.4684(4)
H7 H 0.2133 0.1054 0.5101
C14 C 0.26591(18) 0.0405(4) 0.4686(4)
C15 C 0.2953(3) 0.0508(7) 0.4076(6)
H8 H 0.3180 0.0074 0.4052
C16 C 0.2925(3) 0.1246(7) 0.3482(6)
H9 H 0.3143 0.1308 0.3089
C19 C 0.0000 0.0543(4) 0.5016(4)
C40 C 0.0344(2) 0.2079(5) 0.5043(7)
H24 H 0.0600 0.2419 0.5022
C41 C 0.0359(3) 0.1069(5) 0.5055(7)
H25 H 0.0621 0.0754 0.5091
N7 N 0.23940(15) 0.1861(4) 0.1555(3)
C63 C 0.2676(2) 0.1789(5) 0.0931(4)
H35 H 0.2896 0.2242 0.0908
C64 C 0.2658(2) 0.1075(6) 0.0316(4)
C65 C 0.23409(18) 0.0405(4) 0.0314(4)
C66 C 0.2047(3) 0.0508(7) 0.0924(6)
H37 H 0.1820 0.0074 0.0948
C67 C 0.2075(3) 0.1246(7) 0.1518(6)
H38 H 0.1857 0.1308 0.1911
Ni6 Ni -0.0000 0.59669(5) 0.50218(4)
O18 O 0.04450(10) 0.4243(2) 0.58627(19)
O22 O 0.31161(12) 0.3149(3) 0.2147(3)
O24 O 0.28500(13) 0.3985(3) 0.3204(3)
H36 H 0.2867 0.1054 0.9899
N4 N 0.26060(15) 0.8139(4) 0.6555(3)
C30 C 0.2324(2) 0.8211(5) 0.5931(4)
H16 H 0.2104 0.7758 0.5908
C31 C 0.2342(2) 0.8925(6) 0.5316(4)
H17 H 0.2133 0.8946 0.4899
C32 C 0.26591(18) 0.9595(4) 0.5314(4)
C33 C 0.2953(3) 0.9492(7) 0.5924(6)
H18 H 0.3180 0.9926 0.5948
C34 C 0.2925(3) 0.8754(7) 0.6518(6)
H19 H 0.3143 0.8692 0.6911
N5 N 0.0000 0.7432(4) 0.4942(3)
C37 C 0.0000 0.9457(4) 0.4984(4)
C38 C 0.0344(2) 0.7921(5) 0.4957(7)
H22 H 0.0600 0.7581 0.4978
C39 C 0.0359(3) 0.8931(5) 0.4945(7)
H23 H 0.0621 0.9246 0.4909
Ni4 Ni 0.2500 0.71349(8) 0.7500
O9 O 0.04435(10) 0.5873(2) 0.59332(19)
O11 O 0.18839(12) 0.6851(3) 0.7147(3)
O12 O 0.21500(13) 0.6015(3) 0.8204(3)
N6 N 0.0000 0.4171(4) 0.7561(3)
C42 C 0.05456(13) 0.5039(3) 0.6191(3)
C43 C 0.08256(14) 0.4983(3) 0.6963(3)
C44 C 0.11723(14) 0.5619(3) 0.7017(3)
H26 H 0.1207 0.6108 0.6614
C45 C 0.14672(16) 0.5525(4) 0.7672(3)
C46 C 0.1415(2) 0.4787(5) 0.8267(4)
H27 H 0.1615 0.4702 0.8694
C47 C 0.1066(2) 0.4185(4) 0.8222(4)
H28 H 0.1030 0.3706 0.8632
C48 C 0.07619(17) 0.4269(4) 0.7576(3)
C49 C 0.18502(17) 0.6173(4) 0.7691(3)
C50 C 0.03646(16) 0.3674(4) 0.7579(3)
C51 C 0.0375(2) 0.2653(4) 0.7598(4)
H29 H 0.0634 0.2322 0.7603
C52 C 0.0000 0.2149(6) 0.7606(5)
H30 H 0.0000 0.1470 0.7618
H40 H 0.2867 0.8946 0.0101
O21 O 0.31161(12) 0.6851(3) 0.7853(3)
O23 O 0.28500(13) 0.6015(3) 0.6796(3)
N9 N 0.23940(15) 0.8139(4) 0.8445(3)
C68 C 0.2676(2) 0.8211(5) 0.9069(4)
H39 H 0.2896 0.7758 0.9092
C69 C 0.2658(2) 0.8925(6) 0.9684(4)
C70 C 0.23409(18) 0.9595(4) 0.9686(4)
C71 C 0.2047(3) 0.9492(7) 0.9076(6)
H41 H 0.1820 0.9926 0.9052
C72 C 0.2075(3) 0.8754(7) 0.8482(6)
H42 H 0.1857 0.8692 0.8089
Ni1_2 Ni 1.0000 0.40331(5) 0.49782(4)
N1_2 N 1.0000 0.5829(4) 0.2439(3)
N3_2 N 1.0000 0.2568(4) 0.5058(3)
C11_2 C 1.0000 0.7851(6) 0.2394(5)
H5_2 H 1.0000 0.8530 0.2382
C17 C 0.9656(2) 0.2079(5) 0.5043(7)
H10 H 0.9400 0.2419 0.5022
C18 C 0.9641(3) 0.1069(5) 0.5055(7)
H11 H 0.9379 0.0754 0.5091
C19_2 C 1.0000 0.0543(4) 0.5016(4)
O5 O 0.95565(10) 0.4127(2) 0.40668(19)
O6 O 0.95550(10) 0.5757(2) 0.41373(19)
O7 O 0.81161(12) 0.3149(3) 0.2853(3)
O8 O 0.78500(13) 0.3985(3) 0.1796(3)
C20 C 0.94544(13) 0.4961(3) 0.3809(3)
C21 C 0.91744(14) 0.5017(3) 0.3037(3)
C22 C 0.88277(14) 0.4381(3) 0.2983(3)
H12 H 0.8793 0.3892 0.3386
C23 C 0.85328(16) 0.4475(4) 0.2328(3)
C24 C 0.8585(2) 0.5213(5) 0.1733(4)
H13 H 0.8385 0.5298 0.1306
C25 C 0.8934(2) 0.5815(4) 0.1778(4)
H14 H 0.8970 0.6294 0.1368
C26 C 0.92381(17) 0.5731(4) 0.2424(3)
C27 C 0.81498(17) 0.3827(4) 0.2309(3)
C28 C 0.96354(16) 0.6326(4) 0.2421(3)
C29 C 0.9625(2) 0.7347(4) 0.2402(4)
H15 H 0.9366 0.7678 0.2397
Ni6_2 Ni 1.0000 0.59669(5) 0.50218(4)
Ni9 Ni 0.7500 0.28651(8) 0.2500
O19 O 0.95550(10) 0.4243(2) 0.58627(19)
N5_2 N 1.0000 0.7432(4) 0.4942(3)
C35 C 0.9656(2) 0.7921(5) 0.4957(7)
H20 H 0.9400 0.7581 0.4978
C36 C 0.9641(3) 0.8931(5) 0.4945(7)
H21 H 0.9379 0.9246 0.4909
C37_2 C 1.0000 0.9457(4) 0.4984(4)
N6_2 N 1.0000 0.4171(4) 0.7561(3)
C52_2 C 1.0000 0.2149(6) 0.7606(5)
H30_2 H 1.0000 0.1470 0.7618
O13 O 0.95565(10) 0.5873(2) 0.59332(19)
O15 O 0.81161(12) 0.6851(3) 0.7147(3)
O16 O 0.78500(13) 0.6015(3) 0.8204(3)
C53 C 0.94544(13) 0.5039(3) 0.6191(3)
C54 C 0.91744(14) 0.4983(3) 0.6963(3)
C55 C 0.88277(14) 0.5619(3) 0.7017(3)
H31 H 0.8793 0.6108 0.6614
C56 C 0.85328(16) 0.5525(4) 0.7672(3)
C57 C 0.8585(2) 0.4787(5) 0.8267(4)
H32 H 0.8385 0.4702 0.8694
C58 C 0.8934(2) 0.4185(4) 0.8222(4)
H33 H 0.8970 0.3706 0.8632
C59 C 0.92381(17) 0.4269(4) 0.7576(3)
C60 C 0.81498(17) 0.6173(4) 0.7691(3)
C61 C 0.96354(16) 0.3674(4) 0.7579(3)
C62 C 0.9625(2) 0.2653(4) 0.7598(4)
H34 H 0.9366 0.2322 0.7603
Ni8 Ni 0.7500 0.71349(8) 0.7500
Ni3 Ni 0.5000 0.40331(5) 0.00218(4)
O9_2 O 0.45565(10) 0.4127(2) 0.09332(19)
O10 O 0.45550(10) 0.5757(2) 0.08627(19)
N6_3 N 0.5000 0.5829(4) 0.2561(3)
C42_2 C 0.44544(13) 0.4961(3) 0.1191(3)
C43_2 C 0.41744(14) 0.5017(3) 0.1963(3)
C44_2 C 0.38277(14) 0.4381(3) 0.2017(3)
H26_2 H 0.3793 0.3892 0.1614
C45_2 C 0.35328(16) 0.4475(4) 0.2672(3)
C46_2 C 0.3585(2) 0.5213(5) 0.3267(4)
H27_2 H 0.3385 0.5298 0.3694
C47_2 C 0.3934(2) 0.5815(4) 0.3222(4)
H28_2 H 0.3970 0.6294 0.3632
C48_2 C 0.42381(17) 0.5731(4) 0.2576(3)
C49_2 C 0.31498(17) 0.3827(4) 0.2691(3)
C50_2 C 0.46354(16) 0.6326(4) 0.2579(3)
C51_2 C 0.4625(2) 0.7347(4) 0.2598(4)
H29_2 H 0.4366 0.7678 0.2603
C52_3 C 0.5000 0.7851(6) 0.2606(5)
H30_3 H 0.5000 0.8530 0.2618
O13_2 O 0.54435(10) 0.4127(2) 0.09332(19)
O14 O 0.54450(10) 0.5757(2) 0.08627(19)
O15_2 O 0.68839(12) 0.3149(3) 0.2147(3)
O16_2 O 0.71500(13) 0.3985(3) 0.3204(3)
C53_2 C 0.55456(13) 0.4961(3) 0.1191(3)
C54_2 C 0.58256(14) 0.5017(3) 0.1963(3)
C55_2 C 0.61723(14) 0.4381(3) 0.2017(3)
H31_2 H 0.6207 0.3892 0.1614
C56_2 C 0.64672(16) 0.4475(4) 0.2672(3)
C57_2 C 0.6415(2) 0.5213(5) 0.3267(4)
H32_2 H 0.6615 0.5298 0.3694
C58_2 C 0.6066(2) 0.5815(4) 0.3222(4)
H33_2 H 0.6030 0.6294 0.3632
C59_2 C 0.57619(17) 0.5731(4) 0.2576(3)
C60_2 C 0.68502(17) 0.3827(4) 0.2691(3)
C61_2 C 0.53646(16) 0.6326(4) 0.2579(3)
C62_2 C 0.5375(2) 0.7347(4) 0.2598(4)
H34_2 H 0.5634 0.7678 0.2603
N5_3 N 0.5000 0.2568(4) 0.9942(3)
C35_2 C 0.5344(2) 0.2079(5) 0.9957(7)
H20_2 H 0.5600 0.2419 0.9978
C36_2 C 0.5359(3) 0.1069(5) 0.9945(7)
H21_2 H 0.5621 0.0754 0.9909
C37_3 C 0.5000 0.0543(4) 0.9984(4)
C38_2 C 0.4656(2) 0.2079(5) 0.9957(7)
H22_2 H 0.4400 0.2419 0.9978
C39_2 C 0.4641(3) 0.1069(5) 0.9945(7)
H23_2 H 0.4379 0.0754 0.9909
Ni5 Ni 0.5000 0.59669(5) 0.99782(4)
O17 O 0.45550(10) 0.4243(2) 0.91373(19)
O20 O 0.54450(10) 0.4243(2) 0.91373(19)
N3_3 N 0.5000 0.7432(4) 0.0058(3)
C17_2 C 0.5344(2) 0.7921(5) 0.0043(7)
H10_2 H 0.5600 0.7581 0.0022
C18_2 C 0.5359(3) 0.8931(5) 0.0055(7)
H11_2 H 0.5621 0.9246 0.0091
C19_3 C 0.5000 0.9457(4) 0.0016(4)
C40_2 C 0.4656(2) 0.7921(5) 0.0043(7)
H24_2 H 0.4400 0.7581 0.0022
C41_2 C 0.4641(3) 0.8931(5) 0.0055(7)
H25_2 H 0.4379 0.9246 0.0091
O1_2 O 0.45565(10) 0.5873(2) 0.90668(19)
N1_3 N 0.5000 0.4171(4) 0.7439(3)
C1_2 C 0.44544(13) 0.5039(3) 0.8809(3)
C2_2 C 0.41744(14) 0.4983(3) 0.8037(3)
C3_2 C 0.38277(14) 0.5619(3) 0.7983(3)
H1_2 H 0.3793 0.6108 0.8386
C4_2 C 0.35328(16) 0.5525(4) 0.7328(3)
C5_2 C 0.3585(2) 0.4787(5) 0.6733(4)
H2_2 H 0.3385 0.4702 0.6306
C6_2 C 0.3934(2) 0.4185(4) 0.6778(4)
H3_2 H 0.3970 0.3706 0.6368
C7_2 C 0.42381(17) 0.4269(4) 0.7424(3)
C8_2 C 0.31498(17) 0.6173(4) 0.7309(3)
C9_2 C 0.46354(16) 0.3674(4) 0.7421(3)
C10_2 C 0.4625(2) 0.2653(4) 0.7402(4)
H4_2 H 0.4366 0.2322 0.7397
C11_3 C 0.5000 0.2149(6) 0.7394(5)
H5_3 H 0.5000 0.1470 0.7382
O5_2 O 0.54435(10) 0.5873(2) 0.90668(19)
O7_2 O 0.68839(12) 0.6851(3) 0.7853(3)
O8_2 O 0.71500(13) 0.6015(3) 0.6796(3)
C20_2 C 0.55456(13) 0.5039(3) 0.8809(3)
C21_2 C 0.58256(14) 0.4983(3) 0.8037(3)
C22_2 C 0.61723(14) 0.5619(3) 0.7983(3)
H12_2 H 0.6207 0.6108 0.8386
C23_2 C 0.64672(16) 0.5525(4) 0.7328(3)
C24_2 C 0.6415(2) 0.4787(5) 0.6733(4)
H13_2 H 0.6615 0.4702 0.6306
C25_2 C 0.6066(2) 0.4185(4) 0.6778(4)
H14_2 H 0.6030 0.3706 0.6368
C26_2 C 0.57619(17) 0.4269(4) 0.7424(3)
C27_2 C 0.68502(17) 0.6173(4) 0.7309(3)
C28_2 C 0.53646(16) 0.3674(4) 0.7421(3)
C29_2 C 0.5375(2) 0.2653(4) 0.7402(4)
H15_2 H 0.5634 0.2322 0.7397
N8 N 0.76060(15) 0.1861(4) 0.1555(3)
C68_2 C 0.7324(2) 0.1789(5) 0.0931(4)
H39_2 H 0.7104 0.2242 0.0908
C69_2 C 0.7342(2) 0.1075(6) 0.0316(4)
C70_2 C 0.76591(18) 0.0405(4) 0.0314(4)
C71_2 C 0.7953(3) 0.0508(7) 0.0924(6)
H41_2 H 0.8180 0.0074 0.0948
C72_2 C 0.7925(3) 0.1246(7) 0.1518(6)
H42_2 H 0.8143 0.1308 0.1911
N4_2 N 0.73940(15) 0.1861(4) 0.3445(3)
C30_2 C 0.7676(2) 0.1789(5) 0.4069(4)
H16_2 H 0.7896 0.2242 0.4092
C31_2 C 0.7658(2) 0.1075(6) 0.4684(4)
H17_2 H 0.7867 0.1054 0.5101
C32_2 C 0.73409(18) 0.0405(4) 0.4686(4)
C33_2 C 0.7047(3) 0.0508(7) 0.4076(6)
H18_2 H 0.6820 0.0074 0.4052
C34_2 C 0.7075(3) 0.1246(7) 0.3482(6)
H19_2 H 0.6857 0.1308 0.3089
H40_2 H 0.7133 0.1054 0.9899
H36_2 H 0.7133 0.8946 0.0101
N2_2 N 0.73940(15) 0.8139(4) 0.6555(3)
C12_2 C 0.7676(2) 0.8211(5) 0.5931(4)
H6_2 H 0.7896 0.7758 0.5908
C13_2 C 0.7658(2) 0.8925(6) 0.5316(4)
H7_2 H 0.7867 0.8946 0.4899
C14_2 C 0.73409(18) 0.9595(4) 0.5314(4)
C15_2 C 0.7047(3) 0.9492(7) 0.5924(6)
H8_2 H 0.6820 0.9926 0.5948
C16_2 C 0.7075(3) 0.8754(7) 0.6518(6)
H9_2 H 0.6857 0.8692 0.6911
N7_2 N 0.76060(15) 0.8139(4) 0.8445(3)
C63_2 C 0.7324(2) 0.8211(5) 0.9069(4)
H35_2 H 0.7104 0.7758 0.9092
C64_2 C 0.7342(2) 0.8925(6) 0.9684(4)
C65_2 C 0.76591(18) 0.9595(4) 0.9686(4)
C66_2 C 0.7953(3) 0.9492(7) 0.9076(6)
H37_2 H 0.8180 0.9926 0.9052
C67_2 C 0.7925(3) 0.8754(7) 0.8482(6)
H38_2 H 0.8143 0.8692 0.8089
N6_4 N -0.0000 0.0829(4) 0.2561(3)
C52_4 C -0.0000 0.2851(6) 0.2606(5)
H30_4 H -0.0000 0.3530 0.2618
O14_2 O 0.04450(10) 0.0757(2) 0.08627(19)
C54_3 C 0.08256(14) 0.0017(3) 0.1963(3)
C57_3 C 0.1415(2) 0.0213(5) 0.3267(4)
H32_3 H 0.1615 0.0298 0.3694
C58_3 C 0.1066(2) 0.0815(4) 0.3222(4)
H33_3 H 0.1030 0.1294 0.3632
C59_3 C 0.07619(17) 0.0731(4) 0.2576(3)
C61_3 C 0.03646(16) 0.1326(4) 0.2579(3)
C62_3 C 0.0375(2) 0.2347(4) 0.2598(4)
H34_3 H 0.0634 0.2678 0.2603
Ni5_2 Ni 0.0000 0.09669(5) 0.99782(4)
N3_4 N -0.0000 0.2432(4) 0.0058(3)
C17_3 C 0.0344(2) 0.2921(5) 0.0043(7)
H10_3 H 0.0600 0.2581 0.0022
C18_3 C 0.0359(3) 0.3931(5) 0.0055(7)
H11_3 H 0.0621 0.4246 0.0091
C19_4 C -0.0000 0.4457(4) 0.0016(4)
Ni3_2 Ni -0.0000 0.90331(5) 0.00218(4)
O13_3 O 0.04435(10) 0.9127(2) 0.09332(19)
O15_3 O 0.18839(12) 0.8149(3) 0.2147(3)
O16_3 O 0.21500(13) 0.8985(3) 0.3204(3)
C53_3 C 0.05456(13) 0.9961(3) 0.1191(3)
C55_3 C 0.11723(14) 0.9381(3) 0.2017(3)
H31_3 H 0.1207 0.8892 0.1614
C56_3 C 0.14672(16) 0.9475(4) 0.2672(3)
C60_3 C 0.18502(17) 0.8827(4) 0.2691(3)
Ni8_2 Ni 0.2500 0.78651(8) 0.2500
O5_3 O 0.04435(10) 0.0873(2) 0.90668(19)
O7_3 O 0.18839(12) 0.1851(3) 0.7853(3)
O8_3 O 0.21500(13) 0.1015(3) 0.6796(3)
C20_3 C 0.05456(13) 0.0039(3) 0.8809(3)
C22_3 C 0.11723(14) 0.0619(3) 0.7983(3)
H12_3 H 0.1207 0.1108 0.8386
C23_3 C 0.14672(16) 0.0525(4) 0.7328(3)
C27_3 C 0.18502(17) 0.1173(4) 0.7309(3)
N5_4 N 0.0000 0.7568(4) 0.9942(3)
C35_3 C 0.0344(2) 0.7079(5) 0.9957(7)
H20_3 H 0.0600 0.7419 0.9978
C36_3 C 0.0359(3) 0.6069(5) 0.9945(7)
H21_3 H 0.0621 0.5754 0.9909
C37_4 C 0.0000 0.5543(4) 0.9984(4)
Ni9_2 Ni 0.2500 0.21349(8) 0.7500
O20_2 O 0.04450(10) 0.9243(2) 0.91373(19)
N1_4 N 0.0000 0.9171(4) 0.7439(3)
C11_4 C 0.0000 0.7149(6) 0.7394(5)
H5_4 H 0.0000 0.6470 0.7382
C21_3 C 0.08256(14) 0.9983(3) 0.8037(3)
C24_3 C 0.1415(2) 0.9787(5) 0.6733(4)
H13_3 H 0.1615 0.9702 0.6306
C25_3 C 0.1066(2) 0.9185(4) 0.6778(4)
H14_3 H 0.1030 0.8706 0.6368
C26_3 C 0.07619(17) 0.9269(4) 0.7424(3)
C28_3 C 0.03646(16) 0.8674(4) 0.7421(3)
C29_3 C 0.0375(2) 0.7653(4) 0.7402(4)
H15_3 H 0.0634 0.7322 0.7397
O10_2 O 0.95550(10) 0.0757(2) 0.08627(19)
N6_5 N 1.0000 0.0829(4) 0.2561(3)
C43_3 C 0.91744(14) 0.0017(3) 0.1963(3)
C46_3 C 0.8585(2) 0.0213(5) 0.3267(4)
H27_3 H 0.8385 0.0298 0.3694
C47_3 C 0.8934(2) 0.0815(4) 0.3222(4)
H28_3 H 0.8970 0.1294 0.3632
C48_3 C 0.92381(17) 0.0731(4) 0.2576(3)
C50_3 C 0.96354(16) 0.1326(4) 0.2579(3)
C51_3 C 0.9625(2) 0.2347(4) 0.2598(4)
H29_3 H 0.9366 0.2678 0.2603
C52_5 C 1.0000 0.2851(6) 0.2606(5)
H30_5 H 1.0000 0.3530 0.2618
Ni5_3 Ni 1.0000 0.09669(5) 0.99782(4)
N3_5 N 1.0000 0.2432(4) 0.0058(3)
H7_3 H 0.7867 0.3946 0.0101
C19_5 C 1.0000 0.4457(4) 0.0016(4)
N4_3 N 0.73940(15) 0.6861(4) 0.1555(3)
C30_3 C 0.7676(2) 0.6789(5) 0.0931(4)
H16_3 H 0.7896 0.7242 0.0908
C31_3 C 0.7658(2) 0.6075(6) 0.0316(4)
C32_3 C 0.73409(18) 0.5405(4) 0.0314(4)
C33_3 C 0.7047(3) 0.5508(7) 0.0924(6)
H18_3 H 0.6820 0.5074 0.0948
C34_3 C 0.7075(3) 0.6246(7) 0.1518(6)
H19_3 H 0.6857 0.6308 0.1911
C40_3 C 0.9656(2) 0.2921(5) 0.0043(7)
H24_3 H 0.9400 0.2581 0.0022
C41_3 C 0.9641(3) 0.3931(5) 0.0055(7)
H25_3 H 0.9379 0.4246 0.0091
Ni3_3 Ni 1.0000 0.90331(5) 0.00218(4)
Ni4_2 Ni 0.7500 0.78651(8) 0.2500
O9_3 O 0.95565(10) 0.9127(2) 0.09332(19)
O11_2 O 0.81161(12) 0.8149(3) 0.2147(3)
O12_2 O 0.78500(13) 0.8985(3) 0.3204(3)
C42_3 C 0.94544(13) 0.9961(3) 0.1191(3)
C44_3 C 0.88277(14) 0.9381(3) 0.2017(3)
H26_3 H 0.8793 0.8892 0.1614
C45_3 C 0.85328(16) 0.9475(4) 0.2672(3)
C49_3 C 0.81498(17) 0.8827(4) 0.2691(3)
O21_2 O 0.68839(12) 0.8149(3) 0.2853(3)
O23_2 O 0.71500(13) 0.8985(3) 0.1796(3)
N9_2 N 0.76060(15) 0.6861(4) 0.3445(3)
Ni2_2 Ni 0.7500 0.21349(8) 0.7500
O1_3 O 0.95565(10) 0.0873(2) 0.90668(19)
O3_2 O 0.81161(12) 0.1851(3) 0.7853(3)
O4_2 O 0.78500(13) 0.1015(3) 0.6796(3)
N2_3 N 0.73940(15) 0.3139(4) 0.8445(3)
C1_3 C 0.94544(13) 0.0039(3) 0.8809(3)
C3_3 C 0.88277(14) 0.0619(3) 0.7983(3)
H1_3 H 0.8793 0.1108 0.8386
C4_3 C 0.85328(16) 0.0525(4) 0.7328(3)
C8_3 C 0.81498(17) 0.1173(4) 0.7309(3)
C12_3 C 0.7676(2) 0.3211(5) 0.9069(4)
H6_3 H 0.7896 0.2758 0.9092
C13_3 C 0.7658(2) 0.3925(6) 0.9684(4)
C14_3 C 0.73409(18) 0.4595(4) 0.9686(4)
C15_3 C 0.7047(3) 0.4492(7) 0.9076(6)
H8_3 H 0.6820 0.4926 0.9052
C16_3 C 0.7075(3) 0.3754(7) 0.8482(6)
H9_3 H 0.6857 0.3692 0.8089
H17_3 H 0.7867 0.6054 0.9899
N5_5 N 1.0000 0.7568(4) 0.9942(3)
C37_5 C 1.0000 0.5543(4) 0.9984(4)
C38_3 C 0.9656(2) 0.7079(5) 0.9957(7)
H22_3 H 0.9400 0.7419 0.9978
C39_3 C 0.9641(3) 0.6069(5) 0.9945(7)
H23_3 H 0.9379 0.5754 0.9909
N7_3 N 0.76060(15) 0.3139(4) 0.6555(3)
C63_3 C 0.7324(2) 0.3211(5) 0.5931(4)
H35_3 H 0.7104 0.2758 0.5908
C64_3 C 0.7342(2) 0.3925(6) 0.5316(4)
H36_3 H 0.7133 0.3946 0.4899
C65_3 C 0.76591(18) 0.4595(4) 0.5314(4)
C66_3 C 0.7953(3) 0.4492(7) 0.5924(6)
H37_3 H 0.8180 0.4926 0.5948
C67_3 C 0.7925(3) 0.3754(7) 0.6518(6)
H38_3 H 0.8143 0.3692 0.6911
C68_3 C 0.7324(2) 0.6789(5) 0.4069(4)
H39_3 H 0.7104 0.7242 0.4092
C69_3 C 0.7342(2) 0.6075(6) 0.4684(4)
H40_3 H 0.7133 0.6054 0.5101
C70_3 C 0.76591(18) 0.5405(4) 0.4686(4)
C71_3 C 0.7953(3) 0.5508(7) 0.4076(6)
H41_3 H 0.8180 0.5074 0.4052
C72_3 C 0.7925(3) 0.6246(7) 0.3482(6)
H42_3 H 0.8143 0.6308 0.3089
O17_2 O 0.95550(10) 0.9243(2) 0.91373(19)
O22_2 O 0.68839(12) 0.1851(3) 0.7147(3)
O24_2 O 0.71500(13) 0.1015(3) 0.8204(3)
N1_5 N 1.0000 0.9171(4) 0.7439(3)
C2_3 C 0.91744(14) 0.9983(3) 0.8037(3)
C5_3 C 0.8585(2) 0.9787(5) 0.6733(4)
H2_3 H 0.8385 0.9702 0.6306
C6_3 C 0.8934(2) 0.9185(4) 0.6778(4)
H3_3 H 0.8970 0.8706 0.6368
C7_3 C 0.92381(17) 0.9269(4) 0.7424(3)
C9_3 C 0.96354(16) 0.8674(4) 0.7421(3)
C10_3 C 0.9625(2) 0.7653(4) 0.7402(4)
H4_3 H 0.9366 0.7322 0.7397
C11_5 C 1.0000 0.7149(6) 0.7394(5)
H5_5 H 1.0000 0.6470 0.7382
O2_2 O 0.54450(10) 0.0757(2) 0.41373(19)
N1_6 N 0.5000 0.0829(4) 0.2439(3)
C2_4 C 0.58256(14) 0.0017(3) 0.3037(3)
C5_4 C 0.6415(2) 0.0213(5) 0.1733(4)
H2_4 H 0.6615 0.0298 0.1306
C6_4 C 0.6066(2) 0.0815(4) 0.1778(4)
H3_4 H 0.6030 0.1294 0.1368
C7_4 C 0.57619(17) 0.0731(4) 0.2424(3)
C9_4 C 0.53646(16) 0.1326(4) 0.2421(3)
C10_4 C 0.5375(2) 0.2347(4) 0.2402(4)
H4_4 H 0.5634 0.2678 0.2397
C11_6 C 0.5000 0.2851(6) 0.2394(5)
H5_6 H 0.5000 0.3530 0.2382
O6_2 O 0.45550(10) 0.0757(2) 0.41373(19)
C21_4 C 0.41744(14) 0.0017(3) 0.3037(3)
C24_4 C 0.3585(2) 0.0213(5) 0.1733(4)
H13_4 H 0.3385 0.0298 0.1306
C25_4 C 0.3934(2) 0.0815(4) 0.1778(4)
H14_4 H 0.3970 0.1294 0.1368
C26_4 C 0.42381(17) 0.0731(4) 0.2424(3)
C28_4 C 0.46354(16) 0.1326(4) 0.2421(3)
C29_4 C 0.4625(2) 0.2347(4) 0.2402(4)
H15_4 H 0.4366 0.2678 0.2397
Ni6_3 Ni 0.5000 0.09669(5) 0.50218(4)
Ni1_3 Ni 0.5000 0.90331(5) 0.49782(4)
O1_4 O 0.54435(10) 0.9127(2) 0.40668(19)
N3_6 N 0.5000 0.7568(4) 0.5058(3)
C1_4 C 0.55456(13) 0.9961(3) 0.3809(3)
C3_4 C 0.61723(14) 0.9381(3) 0.2983(3)
H1_4 H 0.6207 0.8892 0.3386
C4_4 C 0.64672(16) 0.9475(4) 0.2328(3)
C8_4 C 0.68502(17) 0.8827(4) 0.2309(3)
C17_4 C 0.4656(2) 0.7079(5) 0.5043(7)
H10_4 H 0.4400 0.7419 0.5022
C18_4 C 0.4641(3) 0.6069(5) 0.5055(7)
H11_4 H 0.4379 0.5754 0.5091
C19_6 C 0.5000 0.5543(4) 0.5016(4)
O5_4 O 0.45565(10) 0.9127(2) 0.40668(19)
O7_4 O 0.31161(12) 0.8149(3) 0.2853(3)
O8_4 O 0.28500(13) 0.8985(3) 0.1796(3)
C20_4 C 0.44544(13) 0.9961(3) 0.3809(3)
C22_4 C 0.38277(14) 0.9381(3) 0.2983(3)
H12_4 H 0.3793 0.8892 0.3386
C23_4 C 0.35328(16) 0.9475(4) 0.2328(3)
C27_4 C 0.31498(17) 0.8827(4) 0.2309(3)
N5_6 N 0.5000 0.2432(4) 0.4942(3)
C35_4 C 0.4656(2) 0.2921(5) 0.4957(7)
H20_4 H 0.4400 0.2581 0.4978
C36_4 C 0.4641(3) 0.3931(5) 0.4945(7)
H21_4 H 0.4379 0.4246 0.4909
C37_6 C 0.5000 0.4457(4) 0.4984(4)
C38_4 C 0.5344(2) 0.2921(5) 0.4957(7)
H22_4 H 0.5600 0.2581 0.4978
C39_4 C 0.5359(3) 0.3931(5) 0.4945(7)
H23_4 H 0.5621 0.4246 0.4909
C40_4 C 0.5344(2) 0.7079(5) 0.5043(7)
H24_4 H 0.5600 0.7419 0.5022
C41_4 C 0.5359(3) 0.6069(5) 0.5055(7)
H25_4 H 0.5621 0.5754 0.5091
O9_4 O 0.54435(10) 0.0873(2) 0.59332(19)
C42_4 C 0.55456(13) 0.0039(3) 0.6191(3)
C44_4 C 0.61723(14) 0.0619(3) 0.7017(3)
H26_4 H 0.6207 0.1108 0.6614
C45_4 C 0.64672(16) 0.0525(4) 0.7672(3)
C49_4 C 0.68502(17) 0.1173(4) 0.7691(3)
O13_4 O 0.45565(10) 0.0873(2) 0.59332(19)
O15_4 O 0.31161(12) 0.1851(3) 0.7147(3)
O16_4 O 0.28500(13) 0.1015(3) 0.8204(3)
C53_4 C 0.44544(13) 0.0039(3) 0.6191(3)
C55_4 C 0.38277(14) 0.0619(3) 0.7017(3)
H31_4 H 0.3793 0.1108 0.6614
C56_4 C 0.35328(16) 0.0525(4) 0.7672(3)
C60_4 C 0.31498(17) 0.1173(4) 0.7691(3)
O18_2 O 0.54450(10) 0.9243(2) 0.58627(19)
O19_2 O 0.45550(10) 0.9243(2) 0.58627(19)
N6_6 N 0.5000 0.9171(4) 0.7561(3)
C43_4 C 0.58256(14) 0.9983(3) 0.6963(3)
C46_4 C 0.6415(2) 0.9787(5) 0.8267(4)
H27_4 H 0.6615 0.9702 0.8694
C47_4 C 0.6066(2) 0.9185(4) 0.8222(4)
H28_4 H 0.6030 0.8706 0.8632
C48_4 C 0.57619(17) 0.9269(4) 0.7576(3)
C50_4 C 0.53646(16) 0.8674(4) 0.7579(3)
C51_4 C 0.5375(2) 0.7653(4) 0.7598(4)
H29_4 H 0.5634 0.7322 0.7603
C52_6 C 0.5000 0.7149(6) 0.7606(5)
H30_6 H 0.5000 0.6470 0.7618
C54_4 C 0.41744(14) 0.9983(3) 0.6963(3)
C57_4 C 0.3585(2) 0.9787(5) 0.8267(4)
H32_4 H 0.3385 0.9702 0.8694
C58_4 C 0.3934(2) 0.9185(4) 0.8222(4)
H33_4 H 0.3970 0.8706 0.8632
C59_4 C 0.42381(17) 0.9269(4) 0.7576(3)
C61_4 C 0.46354(16) 0.8674(4) 0.7579(3)
C62_4 C 0.4625(2) 0.7653(4) 0.7598(4)
H34_4 H 0.4366 0.7322 0.7603
N2_4 N 0.26060(15) 0.6861(4) 0.1555(3)
C12_4 C 0.2324(2) 0.6789(5) 0.0931(4)
H6_4 H 0.2104 0.7242 0.0908
C13_4 C 0.2342(2) 0.6075(6) 0.0316(4)
C14_4 C 0.26591(18) 0.5405(4) 0.0314(4)
C15_4 C 0.2953(3) 0.5508(7) 0.0924(6)
H8_4 H 0.3180 0.5074 0.0948
C16_4 C 0.2925(3) 0.6246(7) 0.1518(6)
H9_4 H 0.3143 0.6308 0.1911
H17_4 H 0.2133 0.3946 0.0101
N7_4 N 0.23940(15) 0.6861(4) 0.3445(3)
C63_4 C 0.2676(2) 0.6789(5) 0.4069(4)
H35_4 H 0.2896 0.7242 0.4092
C64_4 C 0.2658(2) 0.6075(6) 0.4684(4)
H36_4 H 0.2867 0.6054 0.5101
C65_4 C 0.23409(18) 0.5405(4) 0.4686(4)
C66_4 C 0.2047(3) 0.5508(7) 0.4076(6)
H37_4 H 0.1820 0.5074 0.4052
C67_4 C 0.2075(3) 0.6246(7) 0.3482(6)
H38_4 H 0.1857 0.6308 0.3089
N8_2 N 0.23940(15) 0.3139(4) 0.6555(3)
C68_4 C 0.2676(2) 0.3211(5) 0.5931(4)
H39_4 H 0.2896 0.2758 0.5908
C69_4 C 0.2658(2) 0.3925(6) 0.5316(4)
H40_4 H 0.2867 0.3946 0.4899
C70_4 C 0.23409(18) 0.4595(4) 0.5314(4)
C71_4 C 0.2047(3) 0.4492(7) 0.5924(6)
H41_4 H 0.1820 0.4926 0.5948
C72_4 C 0.2075(3) 0.3754(7) 0.6518(6)
H42_4 H 0.1857 0.3692 0.6911
H7_4 H 0.2133 0.6054 0.9899
N4_4 N 0.26060(15) 0.3139(4) 0.8445(3)
C30_4 C 0.2324(2) 0.3211(5) 0.9069(4)
H16_4 H 0.2104 0.2758 0.9092
C31_4 C 0.2342(2) 0.3925(6) 0.9684(4)
C32_4 C 0.26591(18) 0.4595(4) 0.9686(4)
C33_4 C 0.2953(3) 0.4492(7) 0.9076(6)
H18_4 H 0.3180 0.4926 0.9052
C34_4 C 0.2925(3) 0.3754(7) 0.8482(6)
H19_4 H 0.3143 0.3692 0.8089
loop_
_geom_bond_atom_site_label_1
_geom_bond_atom_site_label_2
_geom_bond_site_symmetry_1
_geom_bond_site_symmetry_2
Ni1 O1 1_555 1_555
Ni2 O3 1_555 1_555
O1 C1 1_555 1_555
O2 C1 1_555 1_555
O3 C8 1_555 1_555
O4 Ni2 1_555 1_555
N1 C9 1_555 1_555
N2 Ni2 1_555 1_555
N3 Ni1 1_555 1_555
C1 C2 1_555 1_555
C2 C3 1_555 1_555
C3 H1 1_555 1_555
C4 C3 1_555 1_555
C5 C4 1_555 1_555
H2 C5 1_555 1_555
C6 C5 1_555 1_555
H3 C6 1_555 1_555
C7 C2 1_555 1_555
C8 O4 1_555 1_555
C9 C7 1_555 1_555
C10 C9 1_555 1_555
H4 C10 1_555 1_555
C11 C10 1_555 1_555
H5 C11 1_555 1_555
C12 N2 1_555 1_555
H6 C12 1_555 1_555
C13 C12 1_555 1_555
H7 C13 1_555 1_555
C14 C13 1_555 1_555
C15 C14 1_555 1_555
H8 C15 1_555 1_555
C16 N2 1_555 1_555
H9 C16 1_555 1_555
C40 N3 1_555 1_555
H24 C40 1_555 1_555
C41 C19 1_555 1_555
H25 C41 1_555 1_555
N7 Ni2 1_555 1_555
C63 N7 1_555 1_555
H35 C63 1_555 1_555
C64 C63 1_555 1_555
C65 C64 1_555 1_555
C66 C65 1_555 1_555
H37 C66 1_555 1_555
C67 N7 1_555 1_555
H38 C67 1_555 1_555
Ni6 O2 1_555 1_555
O18 Ni1 1_555 1_555
O22 Ni2 1_555 1_555
O24 Ni2 1_555 1_555
C4 C8 1_555 1_555
C6 C7 1_555 1_555
C15 C16 1_555 1_555
C40 C41 1_555 1_555
C66 C67 1_555 1_555
N4 C30 1_555 1_555
C30 H16 1_555 1_555
C31 C30 1_555 1_555
H17 C31 1_555 1_555
C33 C32 1_555 1_555
H18 C33 1_555 1_555
C34 N4 1_555 1_555
H19 C34 1_555 1_555
C38 N5 1_555 1_555
H22 C38 1_555 1_555
C39 C37 1_555 1_555
H23 C39 1_555 1_555
Ni6 N5 1_555 1_555
Ni4 N4 1_555 1_555
O9 Ni6 1_555 1_555
O18 C42 1_555 1_555
O11 Ni4 1_555 1_555
O12 Ni4 1_555 1_555
N6 C50 1_555 1_555
C42 O9 1_555 1_555
C43 C42 1_555 1_555
C44 C43 1_555 1_555
H26 C44 1_555 1_555
C45 C44 1_555 1_555
C46 C45 1_555 1_555
H27 C46 1_555 1_555
C47 C46 1_555 1_555
H28 C47 1_555 1_555
C48 C43 1_555 1_555
C49 O11 1_555 1_555
C50 C48 1_555 1_555
C51 C50 1_555 1_555
H29 C51 1_555 1_555
C52 C51 1_555 1_555
H30 C52 1_555 1_555
O21 Ni4 1_555 1_555
O23 Ni4 1_555 1_555
N9 Ni4 1_555 1_555
C31 C32 1_555 1_555
C33 C34 1_555 1_555
C38 C39 1_555 1_555
O12 C49 1_555 1_555
C45 C49 1_555 1_555
C47 C48 1_555 1_555
N9 C68 1_555 1_555
C68 H39 1_555 1_555
C69 C68 1_555 1_555
C71 C70 1_555 1_555
H41 C71 1_555 1_555
C72 N9 1_555 1_555
H42 C72 1_555 1_555
C69 C70 1_555 1_555
C71 C72 1_555 1_555
N3_2 Ni1_2 1_555 1_555
H5_2 C11_2 1_555 1_555
C17 N3_2 1_555 1_555
H10 C17 1_555 1_555
C18 C17 1_555 1_555
H11 C18 1_555 1_555
C19_2 C18 1_555 1_555
O5 Ni1_2 1_555 1_555
O6 C20 1_555 1_555
O7 C27 1_555 1_555
O8 C27 1_555 1_555
C20 O5 1_555 1_555
C21 C20 1_555 1_555
C22 C21 1_555 1_555
H12 C22 1_555 1_555
C23 C22 1_555 1_555
C24 C23 1_555 1_555
H13 C24 1_555 1_555
C25 C24 1_555 1_555
H14 C25 1_555 1_555
C26 C21 1_555 1_555
C27 C23 1_555 1_555
C28 N1_2 1_555 1_555
C29 C11_2 1_555 1_555
H15 C29 1_555 1_555
Ni9 O7 1_555 1_555
O19 Ni1_2 1_555 1_555
O6 Ni6_2 1_555 1_555
O8 Ni9 1_555 1_555
C25 C26 1_555 1_555
C26 C28 1_555 1_555
C28 C29 1_555 1_555
N5_2 C35 1_555 1_555
C35 H20 1_555 1_555
C36 C35 1_555 1_555
H21 C36 1_555 1_555
Ni6_2 N5_2 1_555 1_555
H30_2 C52_2 1_555 1_555
O13 Ni6_2 1_555 1_555
O19 C53 1_555 1_555
O15 C60 1_555 1_555
O16 C60 1_555 1_555
C53 O13 1_555 1_555
C54 C53 1_555 1_555
C55 C54 1_555 1_555
H31 C55 1_555 1_555
C56 C55 1_555 1_555
C57 C56 1_555 1_555
H32 C57 1_555 1_555
C58 C57 1_555 1_555
H33 C58 1_555 1_555
C59 C54 1_555 1_555
C60 C56 1_555 1_555
C61 N6_2 1_555 1_555
C62 C52_2 1_555 1_555
H34 C62 1_555 1_555
Ni8 O15 1_555 1_555
C36 C37_2 1_555 1_555
O16 Ni8 1_555 1_555
C58 C59 1_555 1_555
C59 C61 1_555 1_555
C61 C62 1_555 1_555
O9_2 Ni3 1_555 1_555
O10 C42_2 1_555 1_555
N6_3 C50_2 1_555 1_555
C42_2 O9_2 1_555 1_555
C43_2 C42_2 1_555 1_555
C44_2 C43_2 1_555 1_555
H26_2 C44_2 1_555 1_555
C45_2 C44_2 1_555 1_555
C46_2 C45_2 1_555 1_555
H27_2 C46_2 1_555 1_555
C47_2 C46_2 1_555 1_555
H28_2 C47_2 1_555 1_555
C48_2 C43_2 1_555 1_555
C49_2 O22 1_555 1_555
C50_2 C48_2 1_555 1_555
C51_2 C50_2 1_555 1_555
H29_2 C51_2 1_555 1_555
C52_3 C51_2 1_555 1_555
H30_3 C52_3 1_555 1_555
O13_2 Ni3 1_555 1_555
O14 C53_2 1_555 1_555
O15_2 C60_2 1_555 1_555
O16_2 C60_2 1_555 1_555
C53_2 O13_2 1_555 1_555
C54_2 C53_2 1_555 1_555
C55_2 C54_2 1_555 1_555
H31_2 C55_2 1_555 1_555
C56_2 C55_2 1_555 1_555
C57_2 C56_2 1_555 1_555
H32_2 C57_2 1_555 1_555
C58_2 C57_2 1_555 1_555
H33_2 C58_2 1_555 1_555
C59_2 C54_2 1_555 1_555
C60_2 C56_2 1_555 1_555
C61_2 N6_3 1_555 1_555
C62_2 C52_3 1_555 1_555
H34_2 C62_2 1_555 1_555
Ni9 O15_2 1_555 1_555
O24 C49_2 1_555 1_555
C45_2 C49_2 1_555 1_555
C47_2 C48_2 1_555 1_555
O16_2 Ni9 1_555 1_555
C58_2 C59_2 1_555 1_555
C59_2 C61_2 1_555 1_555
C61_2 C62_2 1_555 1_555
N5_3 C35_2 1_555 1_555
C35_2 H20_2 1_555 1_555
C36_2 C35_2 1_555 1_555
H21_2 C36_2 1_555 1_555
C38_2 N5_3 1_555 1_555
H22_2 C38_2 1_555 1_555
C39_2 C37_3 1_555 1_555
H23_2 C39_2 1_555 1_555
C36_2 C37_3 1_555 1_555
C38_2 C39_2 1_555 1_555
C17_2 N3_3 1_555 1_555
H10_2 C17_2 1_555 1_555
C18_2 C17_2 1_555 1_555
H11_2 C18_2 1_555 1_555
C19_3 C18_2 1_555 1_555
C40_2 N3_3 1_555 1_555
H24_2 C40_2 1_555 1_555
C41_2 C19_3 1_555 1_555
H25_2 C41_2 1_555 1_555
C40_2 C41_2 1_555 1_555
Ni5 O1_2 1_555 1_555
O1_2 C1_2 1_555 1_555
O17 C1_2 1_555 1_555
O21 C8_2 1_555 1_555
N1_3 C9_2 1_555 1_555
C1_2 C2_2 1_555 1_555
C2_2 C3_2 1_555 1_555
C3_2 H1_2 1_555 1_555
C4_2 C3_2 1_555 1_555
C5_2 C4_2 1_555 1_555
H2_2 C5_2 1_555 1_555
C6_2 C5_2 1_555 1_555
H3_2 C6_2 1_555 1_555
C7_2 C2_2 1_555 1_555
C8_2 O23 1_555 1_555
C9_2 C7_2 1_555 1_555
C10_2 C9_2 1_555 1_555
H4_2 C10_2 1_555 1_555
C11_3 C10_2 1_555 1_555
H5_3 C11_3 1_555 1_555
O5_2 Ni5 1_555 1_555
O20 C20_2 1_555 1_555
O7_2 C27_2 1_555 1_555
O8_2 C27_2 1_555 1_555
C20_2 O5_2 1_555 1_555
C21_2 C20_2 1_555 1_555
C22_2 C21_2 1_555 1_555
H12_2 C22_2 1_555 1_555
C23_2 C22_2 1_555 1_555
C24_2 C23_2 1_555 1_555
H13_2 C24_2 1_555 1_555
C25_2 C24_2 1_555 1_555
H14_2 C25_2 1_555 1_555
C26_2 C21_2 1_555 1_555
C27_2 C23_2 1_555 1_555
C28_2 N1_3 1_555 1_555
C29_2 C11_3 1_555 1_555
H15_2 C29_2 1_555 1_555
Ni8 O7_2 1_555 1_555
C4_2 C8_2 1_555 1_555
C6_2 C7_2 1_555 1_555
O8_2 Ni8 1_555 1_555
C25_2 C26_2 1_555 1_555
C26_2 C28_2 1_555 1_555
C28_2 C29_2 1_555 1_555
N8 C68_2 1_555 1_555
C68_2 H39_2 1_555 1_555
C69_2 C68_2 1_555 1_555
C71_2 C70_2 1_555 1_555
H41_2 C71_2 1_555 1_555
C72_2 N8 1_555 1_555
H42_2 C72_2 1_555 1_555
Ni9 N8 1_555 1_555
C69_2 C70_2 1_555 1_555
C71_2 C72_2 1_555 1_555
N4_2 C30_2 1_555 1_555
C30_2 H16_2 1_555 1_555
C31_2 C30_2 1_555 1_555
H17_2 C31_2 1_555 1_555
C33_2 C32_2 1_555 1_555
H18_2 C33_2 1_555 1_555
C34_2 N4_2 1_555 1_555
H19_2 C34_2 1_555 1_555
Ni9 N4_2 1_555 1_555
C31_2 C32_2 1_555 1_555
C33_2 C34_2 1_555 1_555
N2_2 Ni8 1_555 1_555
C12_2 N2_2 1_555 1_555
H6_2 C12_2 1_555 1_555
C13_2 C12_2 1_555 1_555
H7_2 C13_2 1_555 1_555
C14_2 C13_2 1_555 1_555
C15_2 C14_2 1_555 1_555
H8_2 C15_2 1_555 1_555
C16_2 N2_2 1_555 1_555
H9_2 C16_2 1_555 1_555
N7_2 Ni8 1_555 1_555
C63_2 N7_2 1_555 1_555
H35_2 C63_2 1_555 1_555
C64_2 C63_2 1_555 1_555
C65_2 C64_2 1_555 1_555
C66_2 C65_2 1_555 1_555
H37_2 C66_2 1_555 1_555
C67_2 N7_2 1_555 1_555
H38_2 C67_2 1_555 1_555
C15_2 C16_2 1_555 1_555
C66_2 C67_2 1_555 1_555
H30_4 C52_4 1_555 1_555
H32_3 C57_3 1_555 1_555
C58_3 C57_3 1_555 1_555
H33_3 C58_3 1_555 1_555
C59_3 C54_3 1_555 1_555
C61_3 N6_4 1_555 1_555
C62_3 C52_4 1_555 1_555
H34_3 C62_3 1_555 1_555
C58_3 C59_3 1_555 1_555
C59_3 C61_3 1_555 1_555
C61_3 C62_3 1_555 1_555
C17_3 N3_4 1_555 1_555
H10_3 C17_3 1_555 1_555
C18_3 C17_3 1_555 1_555
H11_3 C18_3 1_555 1_555
C19_4 C18_3 1_555 1_555
O13_3 Ni3_2 1_555 1_555
O15_3 C60_3 1_555 1_555
O16_3 C60_3 1_555 1_555
C53_3 O13_3 1_555 1_555
H31_3 C55_3 1_555 1_555
C56_3 C55_3 1_555 1_555
C60_3 C56_3 1_555 1_555
Ni8_2 O15_3 1_555 1_555
O16_3 Ni8_2 1_555 1_555
O5_3 Ni5_2 1_555 1_555
O7_3 C27_3 1_555 1_555
O8_3 C27_3 1_555 1_555
C20_3 O5_3 1_555 1_555
H12_3 C22_3 1_555 1_555
C23_3 C22_3 1_555 1_555
C27_3 C23_3 1_555 1_555
N5_4 C35_3 1_555 1_555
C35_3 H20_3 1_555 1_555
C36_3 C35_3 1_555 1_555
H21_3 C36_3 1_555 1_555
Ni9_2 O7_3 1_555 1_555
O8_3 Ni9_2 1_555 1_555
C36_3 C37_4 1_555 1_555
H5_4 C11_4 1_555 1_555
H13_3 C24_3 1_555 1_555
C25_3 C24_3 1_555 1_555
H14_3 C25_3 1_555 1_555
C26_3 C21_3 1_555 1_555
C28_3 N1_4 1_555 1_555
C29_3 C11_4 1_555 1_555
H15_3 C29_3 1_555 1_555
C25_3 C26_3 1_555 1_555
C26_3 C28_3 1_555 1_555
C28_3 C29_3 1_555 1_555
N6_5 C50_3 1_555 1_555
H27_3 C46_3 1_555 1_555
C47_3 C46_3 1_555 1_555
H28_3 C47_3 1_555 1_555
C48_3 C43_3 1_555 1_555
C50_3 C48_3 1_555 1_555
C51_3 C50_3 1_555 1_555
H29_3 C51_3 1_555 1_555
C52_5 C51_3 1_555 1_555
H30_5 C52_5 1_555 1_555
C47_3 C48_3 1_555 1_555
N4_3 C30_3 1_555 1_555
C30_3 H16_3 1_555 1_555
C31_3 C30_3 1_555 1_555
C33_3 C32_3 1_555 1_555
H18_3 C33_3 1_555 1_555
C34_3 N4_3 1_555 1_555
H19_3 C34_3 1_555 1_555
C40_3 N3_5 1_555 1_555
H24_3 C40_3 1_555 1_555
C41_3 C19_5 1_555 1_555
H25_3 C41_3 1_555 1_555
Ni4_2 N4_3 1_555 1_555
O9_3 Ni3_3 1_555 1_555
O11_2 Ni4_2 1_555 1_555
O12_2 Ni4_2 1_555 1_555
C42_3 O9_3 1_555 1_555
H26_3 C44_3 1_555 1_555
C45_3 C44_3 1_555 1_555
C49_3 O11_2 1_555 1_555
O21_2 Ni4_2 1_555 1_555
O23_2 Ni4_2 1_555 1_555
N9_2 Ni4_2 1_555 1_555
C31_3 C32_3 1_555 1_555
C33_3 C34_3 1_555 1_555
C40_3 C41_3 1_555 1_555
O12_2 C49_3 1_555 1_555
C45_3 C49_3 1_555 1_555
Ni5_3 O1_3 1_555 1_555
Ni2_2 O3_2 1_555 1_555
O1_3 C1_3 1_555 1_555
O3_2 C8_3 1_555 1_555
O4_2 Ni2_2 1_555 1_555
N2_3 Ni2_2 1_555 1_555
C3_3 H1_3 1_555 1_555
C4_3 C3_3 1_555 1_555
C8_3 O4_2 1_555 1_555
C12_3 N2_3 1_555 1_555
H6_3 C12_3 1_555 1_555
C13_3 C12_3 1_555 1_555
C14_3 C13_3 1_555 1_555
C15_3 C14_3 1_555 1_555
H8_3 C15_3 1_555 1_555
C16_3 N2_3 1_555 1_555
H9_3 C16_3 1_555 1_555
C38_3 N5_5 1_555 1_555
H22_3 C38_3 1_555 1_555
C39_3 C37_5 1_555 1_555
H23_3 C39_3 1_555 1_555
N7_3 Ni2_2 1_555 1_555
C63_3 N7_3 1_555 1_555
H35_3 C63_3 1_555 1_555
C64_3 C63_3 1_555 1_555
H36_3 C64_3 1_555 1_555
C65_3 C64_3 1_555 1_555
C66_3 C65_3 1_555 1_555
H37_3 C66_3 1_555 1_555
C67_3 N7_3 1_555 1_555
H38_3 C67_3 1_555 1_555
N9_2 C68_3 1_555 1_555
C68_3 H39_3 1_555 1_555
C69_3 C68_3 1_555 1_555
H40_3 C69_3 1_555 1_555
C70_3 C65_3 1_555 1_555
C71_3 C70_3 1_555 1_555
H41_3 C71_3 1_555 1_555
C72_3 N9_2 1_555 1_555
H42_3 C72_3 1_555 1_555
O22_2 Ni2_2 1_555 1_555
O24_2 Ni2_2 1_555 1_555
C4_3 C8_3 1_555 1_555
C15_3 C16_3 1_555 1_555
C38_3 C39_3 1_555 1_555
C66_3 C67_3 1_555 1_555
C69_3 C70_3 1_555 1_555
C71_3 C72_3 1_555 1_555
N1_5 C9_3 1_555 1_555
H2_3 C5_3 1_555 1_555
C6_3 C5_3 1_555 1_555
H3_3 C6_3 1_555 1_555
C7_3 C2_3 1_555 1_555
C9_3 C7_3 1_555 1_555
C10_3 C9_3 1_555 1_555
H4_3 C10_3 1_555 1_555
C11_5 C10_3 1_555 1_555
H5_5 C11_5 1_555 1_555
C6_3 C7_3 1_555 1_555
N1_6 C9_4 1_555 1_555
H2_4 C5_4 1_555 1_555
C6_4 C5_4 1_555 1_555
H3_4 C6_4 1_555 1_555
C7_4 C2_4 1_555 1_555
C9_4 C7_4 1_555 1_555
C10_4 C9_4 1_555 1_555
H4_4 C10_4 1_555 1_555
C11_6 C10_4 1_555 1_555
H5_6 C11_6 1_555 1_555
H13_4 C24_4 1_555 1_555
C25_4 C24_4 1_555 1_555
H14_4 C25_4 1_555 1_555
C26_4 C21_4 1_555 1_555
C28_4 N1_6 1_555 1_555
C29_4 C11_6 1_555 1_555
H15_4 C29_4 1_555 1_555
Ni6_3 O2_2 1_555 1_555
C6_4 C7_4 1_555 1_555
O6_2 Ni6_3 1_555 1_555
C25_4 C26_4 1_555 1_555
C26_4 C28_4 1_555 1_555
C28_4 C29_4 1_555 1_555
Ni1_3 O1_4 1_555 1_555
O1_4 C1_4 1_555 1_555
O21_2 C8_4 1_555 1_555
N3_6 Ni1_3 1_555 1_555
C3_4 H1_4 1_555 1_555
C4_4 C3_4 1_555 1_555
C8_4 O23_2 1_555 1_555
C17_4 N3_6 1_555 1_555
H10_4 C17_4 1_555 1_555
C18_4 C17_4 1_555 1_555
H11_4 C18_4 1_555 1_555
C19_6 C18_4 1_555 1_555
O5_4 Ni1_3 1_555 1_555
O7_4 C27_4 1_555 1_555
O8_4 C27_4 1_555 1_555
C20_4 O5_4 1_555 1_555
H12_4 C22_4 1_555 1_555
C23_4 C22_4 1_555 1_555
C27_4 C23_4 1_555 1_555
N5_6 C35_4 1_555 1_555
C35_4 H20_4 1_555 1_555
C36_4 C35_4 1_555 1_555
H21_4 C36_4 1_555 1_555
C37_6 C19_6 1_555 1_555
C38_4 N5_6 1_555 1_555
H22_4 C38_4 1_555 1_555
C39_4 C37_6 1_555 1_555
H23_4 C39_4 1_555 1_555
C40_4 N3_6 1_555 1_555
H24_4 C40_4 1_555 1_555
C41_4 C19_6 1_555 1_555
H25_4 C41_4 1_555 1_555
Ni6_3 N5_6 1_555 1_555
O9_4 Ni6_3 1_555 1_555
C42_4 O9_4 1_555 1_555
H26_4 C44_4 1_555 1_555
C45_4 C44_4 1_555 1_555
C49_4 O22_2 1_555 1_555
O13_4 Ni6_3 1_555 1_555
O15_4 C60_4 1_555 1_555
O16_4 C60_4 1_555 1_555
C53_4 O13_4 1_555 1_555
H31_4 C55_4 1_555 1_555
C56_4 C55_4 1_555 1_555
C60_4 C56_4 1_555 1_555
Ni9_2 O15_4 1_555 1_555
Ni8_2 O7_4 1_555 1_555
O18_2 Ni1_3 1_555 1_555
O19_2 Ni1_3 1_555 1_555
C4_4 C8_4 1_555 1_555
O8_4 Ni8_2 1_555 1_555
C36_4 C37_6 1_555 1_555
C38_4 C39_4 1_555 1_555
C40_4 C41_4 1_555 1_555
O24_2 C49_4 1_555 1_555
C45_4 C49_4 1_555 1_555
O16_4 Ni9_2 1_555 1_555
N6_6 C50_4 1_555 1_555
H27_4 C46_4 1_555 1_555
C47_4 C46_4 1_555 1_555
H28_4 C47_4 1_555 1_555
C48_4 C43_4 1_555 1_555
C50_4 C48_4 1_555 1_555
C51_4 C50_4 1_555 1_555
H29_4 C51_4 1_555 1_555
C52_6 C51_4 1_555 1_555
H30_6 C52_6 1_555 1_555
H32_4 C57_4 1_555 1_555
C58_4 C57_4 1_555 1_555
H33_4 C58_4 1_555 1_555
C59_4 C54_4 1_555 1_555
C61_4 N6_6 1_555 1_555
C62_4 C52_6 1_555 1_555
H34_4 C62_4 1_555 1_555
C47_4 C48_4 1_555 1_555
C58_4 C59_4 1_555 1_555
C59_4 C61_4 1_555 1_555
C61_4 C62_4 1_555 1_555
N2_4 Ni8_2 1_555 1_555
C12_4 N2_4 1_555 1_555
H6_4 C12_4 1_555 1_555
C13_4 C12_4 1_555 1_555
C14_4 C13_4 1_555 1_555
C15_4 C14_4 1_555 1_555
H8_4 C15_4 1_555 1_555
C16_4 N2_4 1_555 1_555
H9_4 C16_4 1_555 1_555
N7_4 Ni8_2 1_555 1_555
C63_4 N7_4 1_555 1_555
H35_4 C63_4 1_555 1_555
C64_4 C63_4 1_555 1_555
H36_4 C64_4 1_555 1_555
C65_4 C64_4 1_555 1_555
C66_4 C65_4 1_555 1_555
H37_4 C66_4 1_555 1_555
C67_4 N7_4 1_555 1_555
H38_4 C67_4 1_555 1_555
N8_2 C68_4 1_555 1_555
C68_4 H39_4 1_555 1_555
C69_4 C68_4 1_555 1_555
H40_4 C69_4 1_555 1_555
C70_4 C65_4 1_555 1_555
C71_4 C70_4 1_555 1_555
H41_4 C71_4 1_555 1_555
C72_4 N8_2 1_555 1_555
H42_4 C72_4 1_555 1_555
Ni9_2 N8_2 1_555 1_555
C15_4 C16_4 1_555 1_555
C66_4 C67_4 1_555 1_555
C69_4 C70_4 1_555 1_555
C71_4 C72_4 1_555 1_555
N4_4 C30_4 1_555 1_555
C30_4 H16_4 1_555 1_555
C31_4 C30_4 1_555 1_555
C33_4 C32_4 1_555 1_555
H18_4 C33_4 1_555 1_555
C34_4 N4_4 1_555 1_555
H19_4 C34_4 1_555 1_555
Ni9_2 N4_4 1_555 1_555
C31_4 C32_4 1_555 1_555
C33_4 C34_4 1_555 1_555

#END
