
###############################################################################
#
# This file contains modified crystal structure data generated from the
# MOF subset of the Cambridge Structural Database (CSD) v543 
# hosted by the Cambridge Crystallographic Data Centre (CCDC).
#
# This work is licensed under the Creative Commons
# Attribution-NonCommercial-ShareAlike 4.0 International License.
# To view a copy of this license, visit
# http://creativecommons.org/licenses/by-nc-sa/4.0/
# or send a letter to
# Creative Commons, PO Box 1866, Mountain View, CA 94042, USA.
#
# CIF created using the CSD Python API on 29 September 2022
# The structure has been converted into the P1 space group
# The structure has a 3D framework
# The original CSD entry DUDHES is in the rhombohedral crystal system
# The framework has been calculated to contain at least 10.0% void space
# The void calculation uses a probe of radius 1.32A, grid spacing 0.4
# The framework is charged, counterions have been retained in the structure
#
###############################################################################

data_DUDHES
_chemical_formula_moiety         '(C288 H288 Ho18 N18 O110)n'
_symmetry_cell_setting           triclinic
_symmetry_space_group_name_H-M   'P 1'
_symmetry_Int_Tables_number      1
_space_group_name_Hall           'P 1'
loop_
_symmetry_equiv_pos_site_id
_symmetry_equiv_pos_as_xyz
1 x,y,z
_cell_length_a                   27.7647(11)
_cell_length_b                   27.7647(11)
_cell_length_c                   24.6333(13)
_cell_angle_alpha                90
_cell_angle_beta                 90
_cell_angle_gamma                120
_cell_volume                     16445.2
loop_
_atom_site_label
_atom_site_type_symbol
_atom_site_fract_x
_atom_site_fract_y
_atom_site_fract_z
Ho12 Ho 0.08780(3) 0.01765(2) 0.43557(2)
C1 C 0.4406(2) 0.6885(2) 0.3207(2)
C2 C 0.4778(2) 0.6966(2) 0.3680(2)
C3 C 0.4731(3) 0.6508(3) 0.3959(3)
H1 H 0.447181 0.614869 0.385078
C4 C 0.5180(2) 0.7488(3) 0.3821(3)
H2 H 0.522260 0.779010 0.361878
C5 C 0.5078(3) 0.6596(3) 0.4401(3)
H3 H 0.504400 0.629466 0.459745
C6 C 0.5538(2) 0.7580(3) 0.4275(3)
H4 H 0.580625 0.793780 0.437625
C7 C 0.5474(2) 0.7134(3) 0.4549(3)
C8 C 0.6359(2) 0.7573(3) 0.4976(3)
C9 C 0.6677(3) 0.7597(3) 0.4540(3)
H5 H 0.651572 0.736298 0.424365
C10 C 0.6585(2) 0.7921(3) 0.5438(3)
H6 H 0.636417 0.791014 0.572696
C11 C 0.7246(2) 0.7979(3) 0.4547(3)
H7 H 0.746878 0.800820 0.425270
C12 C 0.7155(2) 0.8277(3) 0.5431(3)
H8 H 0.732455 0.849841 0.573390
C13 C 0.74766(19) 0.8315(2) 0.5000(2)
C14 C 0.80959(19) 0.8727(2) 0.5006(2)
O1 O 0.333333 0.666667 0.2546(2)
O2 O 0.26942(11) 0.58652(12) 0.19597(13)
O3 O 0.40993(14) 0.63846(16) 0.30398(15)
O4 O 0.44176(14) 0.73127(16) 0.30173(15)
O5 O 0.57866(17) 0.7176(2) 0.49999(19)
O6 O 0.83836(14) 0.86829(21) 0.46282(16)
O7 O 0.82751(21) 0.90782(14) 0.53888(15)
Ho1 Ho 0.35098(2) 0.59651(2) 0.23110(2)
C15 C 0.3115(2) 0.7521(3) 0.3207(2)
C16 C 0.3034(2) 0.7812(3) 0.3680(2)
C17 C 0.3492(3) 0.8223(4) 0.3959(3)
H9 H 0.385131 0.832312 0.385078
C18 C 0.2512(3) 0.7692(4) 0.3821(3)
H10 H 0.220990 0.743250 0.361878
C19 C 0.3404(3) 0.8482(4) 0.4401(3)
H11 H 0.370534 0.874934 0.459745
C20 C 0.2420(3) 0.7958(4) 0.4275(3)
H12 H 0.206220 0.786845 0.437625
C21 C 0.2866(3) 0.8340(4) 0.4549(3)
C22 C 0.2427(3) 0.8786(4) 0.4976(3)
C23 C 0.2403(3) 0.9080(4) 0.4540(3)
H13 H 0.263702 0.915274 0.424365
C24 C 0.2079(3) 0.8664(4) 0.5438(3)
H14 H 0.208986 0.845403 0.572696
C25 C 0.2021(3) 0.9267(4) 0.4547(3)
H15 H 0.199180 0.946058 0.425270
C26 C 0.1723(3) 0.8878(4) 0.5431(3)
H16 H 0.150159 0.882614 0.573390
C27 C 0.1685(2) 0.91616(28) 0.5000(2)
C28 C 0.1273(2) 0.93689(28) 0.5006(2)
O8 O 0.41348(12) 0.68290(16) 0.19597(13)
O9 O 0.36154(16) 0.77147(21) 0.30398(15)
O10 O 0.26873(16) 0.71049(21) 0.30173(15)
O11 O 0.2824(2) 0.86106(26) 0.49999(19)
O12 O 0.13171(21) 0.97007(25) 0.46282(16)
O13 O 0.09218(14) 0.91969(25) 0.53888(15)
Ho2 Ho 0.40349(2) 0.75447(3) 0.23110(2)
C29 C 0.2479(3) 0.5594(2) 0.3207(2)
C30 C 0.2188(3) 0.5222(2) 0.3680(2)
C31 C 0.1777(4) 0.5269(3) 0.3959(3)
H17 H 0.167688 0.552819 0.385078
C32 C 0.2308(4) 0.4820(2) 0.3821(3)
H18 H 0.256750 0.477740 0.361878
C33 C 0.1518(4) 0.4922(3) 0.4401(3)
H19 H 0.125066 0.495600 0.459745
C34 C 0.2042(4) 0.4462(2) 0.4275(3)
H20 H 0.213155 0.419375 0.437625
C35 C 0.1660(4) 0.4526(2) 0.4549(3)
C36 C 0.1214(4) 0.3641(2) 0.4976(3)
C37 C 0.0920(4) 0.3323(3) 0.4540(3)
H21 H 0.084726 0.348428 0.424365
C38 C 0.1336(4) 0.3415(2) 0.5438(3)
H22 H 0.154597 0.363583 0.572696
C39 C 0.0733(4) 0.2754(2) 0.4547(3)
H23 H 0.053942 0.253122 0.425270
C40 C 0.1122(4) 0.2845(2) 0.5431(3)
H24 H 0.117386 0.267545 0.573390
C41 C 0.08384(28) 0.25234(19) 0.5000(2)
C42 C 0.06311(28) 0.19041(19) 0.5006(2)
O14 O 0.31710(16) 0.73058(11) 0.19597(13)
O15 O 0.22853(21) 0.59007(14) 0.30398(15)
O16 O 0.28951(21) 0.55824(14) 0.30173(15)
O17 O 0.13894(26) 0.42134(17) 0.49999(19)
O18 O 0.02993(25) 0.16164(14) 0.46282(16)
O19 O 0.08031(25) 0.17249(21) 0.53888(15)
Ho3 Ho 0.24553(3) 0.64902(2) 0.23110(2)
O20 O 0.39725(11) 0.74681(12) 0.13736(13)
O21 O 0.25319(12) 0.65043(16) 0.13736(13)
O22 O 0.34957(16) 0.60275(11) 0.13736(13)
O23 O 0.49497(14) 0.79838(21) 0.20385(16)
O24 O 0.20162(21) 0.69660(25) 0.20385(16)
O25 O 0.30340(25) 0.50503(14) 0.20385(16)
O26 O 0.16084(21) 0.57449(14) 0.20555(15)
O27 O 0.42551(14) 0.58636(25) 0.20555(15)
O28 O 0.41364(25) 0.83916(21) 0.20555(15)
Ho4 Ho 0.01765(2) 0.92984(2) 0.56443(2)
Ho5 Ho 0.07016(2) 0.08780(3) 0.56443(2)
Ho6 Ho 0.91220(3) 0.98235(2) 0.56443(2)
Ho7 Ho 0.31569(2) 0.73682(2) 0.10223(2)
Ho8 Ho 0.26318(2) 0.57886(3) 0.10223(2)
Ho9 Ho 0.42114(3) 0.68431(2) 0.10223(2)
Ho11 Ho 0.92984(2) 0.91220(3) 0.43557(2)
Ho10 Ho 0.98235(2) 0.07016(2) 0.43557(2)
C1_2 C 0.1073(2) 0.0218(2) 0.6540(2)
C2_2 C 0.1445(2) 0.0299(2) 0.7013(2)
C4_2 C 0.1847(2) 0.0821(3) 0.7154(3)
H2_2 H 0.188927 0.112343 0.695211
C6_2 C 0.2205(2) 0.0913(3) 0.7608(3)
H4_2 H 0.247292 0.127113 0.770958
C7_2 C 0.2141(2) 0.0467(3) 0.7882(3)
C8_2 C 0.3026(2) 0.0906(3) 0.8309(3)
C9_2 C 0.3344(3) 0.0930(3) 0.7873(3)
H5_2 H 0.318239 0.069631 0.757698
C10_2 C 0.3252(2) 0.1254(3) 0.8771(3)
H6_2 H 0.303084 0.124347 0.906029
C11_2 C 0.3913(2) 0.1312(3) 0.7880(3)
H7_2 H 0.413545 0.134153 0.758603
C12_2 C 0.3822(2) 0.1610(3) 0.8764(3)
H8_2 H 0.399122 0.183174 0.906723
C13_2 C 0.41433(19) 0.1648(2) 0.8333(2)
C14_2 C 0.47626(19) 0.2060(2) 0.8339(2)
O1_2 O -0.000000 0.000000 0.5879(2)
O4_2 O 0.10843(14) 0.06460(16) 0.63506(15)
O5_2 O 0.24533(17) 0.0509(2) 0.83332(19)
O6_2 O 0.50503(14) 0.20162(21) 0.79615(16)
O7_2 O 0.49418(21) 0.24115(14) 0.87221(15)
C17_2 C 0.0159(3) 0.1556(4) 0.7292(3)
H9_2 H 0.051798 0.165645 0.718411
C19_2 C 0.0071(3) 0.1815(4) 0.7734(3)
H11_2 H 0.037201 0.208267 0.793078
O8_2 O 0.08015(12) 0.01623(16) 0.52930(13)
O9_2 O 0.02821(16) 0.10480(21) 0.63731(15)
O20_2 O 0.06391(11) 0.08015(12) 0.47070(13)
O23_2 O 0.16164(14) 0.13171(21) 0.53718(16)
Ho6_2 Ho 0.57886(3) 0.31569(2) 0.89777(2)
Ho11_2 Ho 0.59651(2) 0.24553(3) 0.76890(2)
C3_2 C 0.1398(3) 0.9841(3) 0.7292(3)
H1_2 H 0.113848 0.948202 0.718411
C5_2 C 0.1745(3) 0.9929(3) 0.7734(3)
H3_2 H 0.171067 0.962799 0.793078
O1_3 O -0.000000 1.000000 0.5879(2)
O3_2 O 0.07660(14) 0.97179(16) 0.63731(15)
O22_2 O 0.01623(16) 0.93609(11) 0.47070(13)
O1_4 O 1.000000 0.000000 0.5879(2)
C15_2 C 0.9782(2) 0.0854(3) 0.6540(2)
C16_2 C 0.9701(2) 0.1145(3) 0.7013(2)
C18_2 C 0.9179(3) 0.1025(4) 0.7154(3)
H10_2 H 0.887657 0.076583 0.695211
C20_2 C 0.9087(3) 0.1291(4) 0.7608(3)
H12_2 H 0.872887 0.120178 0.770958
C21_2 C 0.9533(3) 0.1673(4) 0.7882(3)
C22_2 C 0.9094(3) 0.2119(4) 0.8309(3)
C23_2 C 0.9070(3) 0.2413(4) 0.7873(3)
H13_2 H 0.930369 0.248607 0.757698
C24_2 C 0.8746(3) 0.1997(4) 0.8771(3)
H14_2 H 0.875653 0.178736 0.906029
C25_2 C 0.8688(3) 0.2600(4) 0.7880(3)
H15_2 H 0.865847 0.279391 0.758603
C26_2 C 0.8390(3) 0.2211(4) 0.8764(3)
H16_2 H 0.816826 0.215947 0.906723
C27_2 C 0.8352(2) 0.24949(28) 0.8333(2)
C28_2 C 0.7940(2) 0.27022(28) 0.8339(2)
O10_2 O 0.93540(16) 0.04382(21) 0.63506(15)
O11_2 O 0.9491(2) 0.19439(26) 0.83332(19)
O12_2 O 0.79838(21) 0.30340(25) 0.79615(16)
O13_2 O 0.75885(14) 0.25302(25) 0.87221(15)
O14_2 O 0.98377(16) 0.06391(11) 0.52930(13)
O24_2 O 0.86829(21) 0.02993(25) 0.53718(16)
Ho4_2 Ho 0.68431(2) 0.26318(2) 0.89777(2)
Ho12_2 Ho 0.75447(3) 0.35098(2) 0.76890(2)
O1_5 O 1.000000 1.000000 0.5879(2)
O2_2 O 0.93609(11) 0.91985(12) 0.52930(13)
C29_2 C 0.9146(3) 0.8927(2) 0.6540(2)
C30_2 C 0.8855(3) 0.8555(2) 0.7013(2)
C31_2 C 0.8444(4) 0.8602(3) 0.7292(3)
H17_2 H 0.834355 0.886152 0.718411
C32_2 C 0.8975(4) 0.8153(2) 0.7154(3)
H18_2 H 0.923417 0.811073 0.695211
C33_2 C 0.8185(4) 0.8255(3) 0.7734(3)
H19_2 H 0.791733 0.828933 0.793078
C34_2 C 0.8709(4) 0.7795(2) 0.7608(3)
H20_2 H 0.879822 0.752708 0.770958
C35_2 C 0.8327(4) 0.7859(2) 0.7882(3)
C36_2 C 0.7881(4) 0.6974(2) 0.8309(3)
C37_2 C 0.7587(4) 0.6656(3) 0.7873(3)
H21_2 H 0.751393 0.681761 0.757698
C38_2 C 0.8003(4) 0.6748(2) 0.8771(3)
H22_2 H 0.821264 0.696916 0.906029
C39_2 C 0.7400(4) 0.6087(2) 0.7880(3)
H23_2 H 0.720609 0.586455 0.758603
C40_2 C 0.7789(4) 0.6178(2) 0.8764(3)
H24_2 H 0.784053 0.600878 0.906723
C41_2 C 0.75051(28) 0.58567(19) 0.8333(2)
C42_2 C 0.72978(28) 0.52374(19) 0.8339(2)
O15_2 O 0.89520(21) 0.92340(14) 0.63731(15)
O16_2 O 0.95618(21) 0.89157(14) 0.63506(15)
O17_2 O 0.80561(26) 0.75467(17) 0.83332(19)
O18_2 O 0.69660(25) 0.49497(14) 0.79615(16)
O19_2 O 0.74698(25) 0.50582(21) 0.87221(15)
O21_2 O 0.91985(12) 0.98377(16) 0.47070(13)
O25_2 O 0.97007(25) 0.83836(14) 0.53718(16)
Ho5_2 Ho 0.73682(2) 0.42114(3) 0.89777(2)
Ho10_2 Ho 0.64902(2) 0.40349(2) 0.76890(2)
C9_3 C 0.0010(3) 0.4264(3) 0.1207(3)
C11_3 C 0.0579(2) 0.4646(3) 0.1214(3)
H7_3 H 0.080211 0.467487 0.091937
C12_3 C 0.0488(2) 0.4944(3) 0.2098(3)
H8_3 H 0.065788 0.516508 0.240057
C13_3 C 0.08099(19) 0.4982(2) 0.1667(2)
C14_3 C 0.14292(19) 0.5394(2) 0.1673(2)
O6_3 O 0.17169(14) 0.53496(21) 0.12949(16)
C2_3 C 0.8111(2) 0.3633(2) 0.0347(2)
C3_3 C 0.8064(3) 0.3175(3) 0.0626(3)
H1_3 H 0.780514 0.281536 0.051745
C4_3 C 0.8513(2) 0.4155(3) 0.0488(3)
H2_3 H 0.855593 0.445677 0.028545
C5_3 C 0.8411(3) 0.3263(3) 0.1068(3)
H3_3 H 0.837733 0.296133 0.126412
C6_3 C 0.8871(2) 0.4247(3) 0.0942(3)
H4_3 H 0.913958 0.460447 0.104292
C7_3 C 0.8807(2) 0.3801(3) 0.1216(3)
C8_3 C 0.9692(2) 0.4240(3) 0.1643(3)
H5_3 H 0.984905 0.402965 0.091032
C10_3 C 0.9918(2) 0.4588(3) 0.2105(3)
H6_3 H 0.969750 0.457681 0.239363
O5_3 O 0.91199(17) 0.3843(2) 0.16666(19)
C16_3 C 0.6367(2) 0.4479(3) 0.0347(2)
C17_3 C 0.6825(3) 0.4890(4) 0.0626(3)
H9_3 H 0.718464 0.498979 0.051745
C18_3 C 0.5845(3) 0.4359(4) 0.0488(3)
H10_3 H 0.554323 0.409917 0.028545
C19_3 C 0.6737(3) 0.5149(4) 0.1068(3)
H11_3 H 0.703867 0.541601 0.126412
C20_3 C 0.5753(3) 0.4625(4) 0.0942(3)
H12_3 H 0.539553 0.453512 0.104292
C21_3 C 0.6199(3) 0.5007(4) 0.1216(3)
C22_3 C 0.5760(3) 0.5453(4) 0.1643(3)
C23_3 C 0.5736(3) 0.5747(4) 0.1207(3)
H13_3 H 0.597035 0.581941 0.091032
C24_3 C 0.5412(3) 0.5331(4) 0.2105(3)
H14_3 H 0.542319 0.512070 0.239363
C25_3 C 0.5354(3) 0.5934(4) 0.1214(3)
H15_3 H 0.532513 0.612725 0.091937
C26_3 C 0.5056(3) 0.5545(4) 0.2098(3)
H16_3 H 0.483492 0.549281 0.240057
C27_3 C 0.5018(2) 0.58283(28) 0.1667(2)
C28_3 C 0.4606(2) 0.60356(28) 0.1673(2)
O11_3 O 0.6157(2) 0.52773(26) 0.16666(19)
O12_3 O 0.46504(21) 0.63674(25) 0.12949(16)
C30_3 C 0.5521(3) 0.1889(2) 0.0347(2)
C31_3 C 0.5110(4) 0.1936(3) 0.0626(3)
H17_3 H 0.501021 0.219486 0.051745
C32_3 C 0.5641(4) 0.1487(2) 0.0488(3)
H18_3 H 0.590083 0.144407 0.028545
C33_3 C 0.4851(4) 0.1589(3) 0.1068(3)
H19_3 H 0.458399 0.162267 0.126412
C34_3 C 0.5375(4) 0.1129(2) 0.0942(3)
H20_3 H 0.546488 0.086042 0.104292
C35_3 C 0.4993(4) 0.1193(2) 0.1216(3)
C36_3 C 0.4547(4) 0.0308(2) 0.1643(3)
H21_3 H 0.418059 0.015095 0.091032
C38_3 C 0.4669(4) 0.0082(2) 0.2105(3)
H22_3 H 0.487930 0.030250 0.239363
O17_3 O 0.47227(26) 0.08801(17) 0.16666(19)
C1_3 C 0.7739(2) 0.3552(2) 0.9874(2)
O1_6 O 0.666666 0.333334 0.9213(2)
O2_3 O 0.60275(11) 0.25319(12) 0.86264(13)
O3_3 O 0.74326(14) 0.30513(16) 0.97065(15)
O4_3 O 0.77509(14) 0.39794(16) 0.96840(15)
C15_3 C 0.6448(2) 0.4188(3) 0.9874(2)
O8_3 O 0.74681(12) 0.34957(16) 0.86264(13)
O9_3 O 0.69487(16) 0.43814(21) 0.97065(15)
O10_3 O 0.60206(16) 0.37716(21) 0.96840(15)
C29_3 C 0.5812(3) 0.2261(2) 0.9874(2)
O14_3 O 0.65043(16) 0.39725(11) 0.86264(13)
O15_3 O 0.56186(21) 0.25674(14) 0.97065(15)
O16_3 O 0.62284(21) 0.22491(14) 0.96840(15)
O20_3 O 0.73058(11) 0.41348(12) 0.80403(13)
O21_3 O 0.58652(12) 0.31710(16) 0.80403(13)
O22_3 O 0.68290(16) 0.26942(11) 0.80403(13)
O23_3 O 0.82831(14) 0.46504(21) 0.87051(16)
O24_3 O 0.53496(21) 0.36326(25) 0.87051(16)
O25_3 O 0.63674(25) 0.17169(14) 0.87051(16)
C37_3 C 0.4253(4) 0.9990(3) 0.1207(3)
C39_3 C 0.4066(4) 0.9421(2) 0.1214(3)
H23_3 H 0.387275 0.919789 0.091937
C40_3 C 0.4455(4) 0.9512(2) 0.2098(3)
H24_3 H 0.450719 0.934212 0.240057
C41_3 C 0.41717(28) 0.91901(19) 0.1667(2)
C42_3 C 0.39644(28) 0.85708(19) 0.1673(2)
O18_3 O 0.36326(25) 0.82831(14) 0.12949(16)
C1_4 C 0.5594(2) 0.3115(2) 0.6793(2)
C2_4 C 0.5222(2) 0.3034(2) 0.6320(2)
C3_4 C 0.5269(3) 0.3492(3) 0.6041(3)
H1_4 H 0.552819 0.385131 0.614922
C4_4 C 0.4820(2) 0.2512(3) 0.6179(3)
H2_4 H 0.477740 0.220990 0.638122
C5_4 C 0.4922(3) 0.3404(3) 0.5599(3)
H3_4 H 0.495600 0.370534 0.540255
C6_4 C 0.4462(2) 0.2420(3) 0.5725(3)
H4_4 H 0.419375 0.206220 0.562375
C7_4 C 0.4526(2) 0.2866(3) 0.5451(3)
C8_4 C 0.3641(2) 0.2427(3) 0.5024(3)
C9_4 C 0.3323(3) 0.2403(3) 0.5460(3)
H5_4 H 0.348428 0.263702 0.575635
C10_4 C 0.3415(2) 0.2079(3) 0.4562(3)
H6_4 H 0.363583 0.208986 0.427304
C11_4 C 0.2754(2) 0.2021(3) 0.5453(3)
H7_4 H 0.253122 0.199180 0.574730
C12_4 C 0.2845(2) 0.1723(3) 0.4569(3)
H8_4 H 0.267545 0.150159 0.426610
C13_4 C 0.25234(19) 0.1685(2) 0.5000(2)
C14_4 C 0.19041(19) 0.1273(2) 0.4994(2)
O1_7 O 0.666667 0.333333 0.7454(2)
O3_4 O 0.59007(14) 0.36154(16) 0.69602(15)
O4_4 O 0.55824(14) 0.26873(16) 0.69827(15)
O5_4 O 0.42134(17) 0.2824(2) 0.50001(19)
O7_3 O 0.17249(21) 0.09218(14) 0.46112(15)
C15_4 C 0.6885(2) 0.2479(3) 0.6793(2)
C16_4 C 0.6966(2) 0.2188(3) 0.6320(2)
C17_4 C 0.6508(3) 0.1777(4) 0.6041(3)
H9_4 H 0.614869 0.167688 0.614922
C18_4 C 0.7488(3) 0.2308(4) 0.6179(3)
H10_4 H 0.779010 0.256750 0.638122
C19_4 C 0.6596(3) 0.1518(4) 0.5599(3)
H11_4 H 0.629466 0.125066 0.540255
C20_4 C 0.7580(3) 0.2042(4) 0.5725(3)
H12_4 H 0.793780 0.213155 0.562375
C21_4 C 0.7134(3) 0.1660(4) 0.5451(3)
C22_4 C 0.7573(3) 0.1214(4) 0.5024(3)
C23_4 C 0.7597(3) 0.0920(4) 0.5460(3)
H13_4 H 0.736298 0.084726 0.575635
C24_4 C 0.7921(3) 0.1336(4) 0.4562(3)
H14_4 H 0.791014 0.154597 0.427304
C25_4 C 0.7979(3) 0.0733(4) 0.5453(3)
H15_4 H 0.800820 0.053942 0.574730
C26_4 C 0.8277(3) 0.1122(4) 0.4569(3)
H16_4 H 0.849841 0.117386 0.426610
C27_4 C 0.8315(2) 0.08384(28) 0.5000(2)
C28_4 C 0.8727(2) 0.06311(28) 0.4994(2)
O9_4 O 0.63846(16) 0.22853(21) 0.69602(15)
O10_4 O 0.73127(16) 0.28951(21) 0.69827(15)
O11_4 O 0.7176(2) 0.13894(26) 0.50001(19)
O13_3 O 0.90782(14) 0.08031(25) 0.46112(15)
C29_4 C 0.7521(3) 0.4406(2) 0.6793(2)
C30_4 C 0.7812(3) 0.4778(2) 0.6320(2)
C31_4 C 0.8223(4) 0.4731(3) 0.6041(3)
H17_4 H 0.832312 0.447181 0.614922
C32_4 C 0.7692(4) 0.5180(2) 0.6179(3)
H18_4 H 0.743250 0.522260 0.638122
C33_4 C 0.8482(4) 0.5078(3) 0.5599(3)
H19_4 H 0.874934 0.504400 0.540255
C34_4 C 0.7958(4) 0.5538(2) 0.5725(3)
H20_4 H 0.786845 0.580625 0.562375
C35_4 C 0.8340(4) 0.5474(2) 0.5451(3)
C36_4 C 0.8786(4) 0.6359(2) 0.5024(3)
C37_4 C 0.9080(4) 0.6677(3) 0.5460(3)
H21_4 H 0.915274 0.651572 0.575635
C38_4 C 0.8664(4) 0.6585(2) 0.4562(3)
H22_4 H 0.845403 0.636417 0.427304
C39_4 C 0.9267(4) 0.7246(2) 0.5453(3)
H23_4 H 0.946058 0.746878 0.574730
C40_4 C 0.8878(4) 0.7155(2) 0.4569(3)
H24_4 H 0.882614 0.732455 0.426610
C41_4 C 0.91616(28) 0.74766(19) 0.5000(2)
C42_4 C 0.93689(28) 0.80959(19) 0.4994(2)
O15_4 O 0.77147(21) 0.40993(14) 0.69602(15)
O16_4 O 0.71049(21) 0.44176(14) 0.69827(15)
O17_4 O 0.86106(26) 0.57866(17) 0.50001(19)
O19_3 O 0.91969(25) 0.82751(21) 0.46112(15)
O26_2 O 0.83916(21) 0.42551(14) 0.79445(15)
O27_2 O 0.57449(14) 0.41364(25) 0.79445(15)
O28_2 O 0.58636(25) 0.16084(21) 0.79445(15)
O1_8 O 0.000000 -0.000000 0.4121(2)
C29_5 C 0.0854(3) 0.1073(2) 0.3460(2)
C30_5 C 0.1145(3) 0.1445(2) 0.2987(2)
C31_5 C 0.1556(4) 0.1398(3) 0.2708(3)
H17_5 H 0.165645 0.113848 0.281589
C32_5 C 0.1025(4) 0.1847(2) 0.2846(3)
H18_5 H 0.076583 0.188927 0.304789
C33_5 C 0.1815(4) 0.1745(3) 0.2266(3)
H19_5 H 0.208267 0.171067 0.206922
C34_5 C 0.1291(4) 0.2205(2) 0.2392(3)
H20_5 H 0.120178 0.247292 0.229042
C35_5 C 0.1673(4) 0.2141(2) 0.2118(3)
C36_5 C 0.2119(4) 0.3026(2) 0.1691(3)
C37_5 C 0.2413(4) 0.3344(3) 0.2127(3)
H21_5 H 0.248607 0.318239 0.242302
C38_5 C 0.1997(4) 0.3252(2) 0.1229(3)
H22_5 H 0.178736 0.303084 0.093971
C39_5 C 0.2600(4) 0.3913(2) 0.2120(3)
H23_5 H 0.279391 0.413545 0.241397
C40_5 C 0.2211(4) 0.3822(2) 0.1236(3)
H24_5 H 0.215947 0.399122 0.093277
C41_5 C 0.24949(28) 0.41433(19) 0.1667(2)
C42_5 C 0.27022(28) 0.47626(19) 0.1661(2)
O15_5 O 0.10480(21) 0.07660(14) 0.36269(15)
O16_5 O 0.04382(21) 0.10843(14) 0.36494(15)
O17_5 O 0.19439(26) 0.24533(17) 0.16668(19)
O19_4 O 0.25302(25) 0.49418(21) 0.12779(15)
O1_9 O 0.000000 1.000000 0.4121(2)
C15_5 C 0.0218(2) 0.9146(3) 0.3460(2)
C16_5 C 0.0299(2) 0.8855(3) 0.2987(2)
C18_5 C 0.0821(3) 0.8975(4) 0.2846(3)
H10_5 H 0.112343 0.923417 0.304789
C20_5 C 0.0913(3) 0.8709(4) 0.2392(3)
H12_5 H 0.127113 0.879822 0.229042
C21_5 C 0.0467(3) 0.8327(4) 0.2118(3)
C22_5 C 0.0906(3) 0.7881(4) 0.1691(3)
C23_5 C 0.0930(3) 0.7587(4) 0.2127(3)
H13_5 H 0.069631 0.751393 0.242302
C24_5 C 0.1254(3) 0.8003(4) 0.1229(3)
H14_5 H 0.124347 0.821264 0.093971
C25_5 C 0.1312(3) 0.7400(4) 0.2120(3)
H15_5 H 0.134153 0.720609 0.241397
C26_5 C 0.1610(3) 0.7789(4) 0.1236(3)
H16_5 H 0.183174 0.784053 0.093277
C27_5 C 0.1648(2) 0.75051(28) 0.1667(2)
C28_5 C 0.2060(2) 0.72978(28) 0.1661(2)
O10_5 O 0.06460(16) 0.95618(21) 0.36494(15)
O11_5 O 0.0509(2) 0.80561(26) 0.16668(19)
O13_4 O 0.24115(14) 0.74698(25) 0.12779(15)
C3_5 C 0.8602(3) 0.0159(3) 0.2708(3)
H1_5 H 0.886152 0.051798 0.281589
C5_5 C 0.8255(3) 0.0071(3) 0.2266(3)
H3_5 H 0.828933 0.037201 0.206922
O1_10 O 1.000000 -0.000000 0.4121(2)
O3_5 O 0.92340(14) 0.02821(16) 0.36269(15)
C1_5 C 0.8927(2) 0.9782(2) 0.3460(2)
C2_5 C 0.8555(2) 0.9701(2) 0.2987(2)
C4_5 C 0.8153(2) 0.9179(3) 0.2846(3)
H2_5 H 0.811073 0.887657 0.304789
C6_5 C 0.7795(2) 0.9087(3) 0.2392(3)
H4_5 H 0.752708 0.872887 0.229042
C7_5 C 0.7859(2) 0.9533(3) 0.2118(3)
C8_5 C 0.6974(2) 0.9094(3) 0.1691(3)
C9_5 C 0.6656(3) 0.9070(3) 0.2127(3)
H5_5 H 0.681761 0.930369 0.242302
C10_5 C 0.6748(2) 0.8746(3) 0.1229(3)
H6_5 H 0.696916 0.875653 0.093971
C11_5 C 0.6087(2) 0.8688(3) 0.2120(3)
H7_5 H 0.586455 0.865847 0.241397
C12_5 C 0.6178(2) 0.8390(3) 0.1236(3)
H8_5 H 0.600878 0.816826 0.093277
C13_5 C 0.58567(19) 0.8352(2) 0.1667(2)
C14_5 C 0.52374(19) 0.7940(2) 0.1661(2)
O1_11 O 1.000000 1.000000 0.4121(2)
O4_5 O 0.89157(14) 0.93540(16) 0.36494(15)
O5_5 O 0.75467(17) 0.9491(2) 0.16668(19)
O7_4 O 0.50582(21) 0.75885(14) 0.12779(15)
C17_5 C 0.9841(3) 0.8444(4) 0.2708(3)
H9_5 H 0.948202 0.834355 0.281589
C19_5 C 0.9929(3) 0.8185(4) 0.2266(3)
H11_5 H 0.962799 0.791733 0.206922
O9_5 O 0.97179(16) 0.89520(21) 0.36269(15)
C37_6 C 0.5747(4) 0.0010(3) 0.8793(3)
C39_6 C 0.5934(4) 0.0579(2) 0.8786(3)
H23_6 H 0.612725 0.080211 0.908063
C40_6 C 0.5545(4) 0.0488(2) 0.7902(3)
H24_6 H 0.549281 0.065788 0.759943
C41_6 C 0.58283(28) 0.08099(19) 0.8333(2)
C42_6 C 0.60356(28) 0.14292(19) 0.8327(2)
C1_6 C 0.2261(2) 0.6448(2) 0.0126(2)
O1_12 O 0.333334 0.666666 0.0787(2)
O3_6 O 0.25674(14) 0.69487(16) 0.02935(15)
O4_6 O 0.22491(14) 0.60206(16) 0.03160(15)
C15_6 C 0.3552(2) 0.5812(3) 0.0126(2)
O9_6 O 0.30513(16) 0.56186(21) 0.02935(15)
O10_6 O 0.39794(16) 0.62284(21) 0.03160(15)
C29_6 C 0.4188(3) 0.7739(2) 0.0126(2)
O15_6 O 0.43814(21) 0.74326(14) 0.02935(15)
O16_6 O 0.37716(21) 0.77509(14) 0.03160(15)
C2_6 C 0.1889(2) 0.6367(2) 0.9653(2)
C3_6 C 0.1936(3) 0.6825(3) 0.9374(3)
H1_6 H 0.219486 0.718464 0.948255
C4_6 C 0.1487(2) 0.5845(3) 0.9512(3)
H2_6 H 0.144407 0.554323 0.971455
C5_6 C 0.1589(3) 0.6737(3) 0.8932(3)
H3_6 H 0.162267 0.703867 0.873588
C6_6 C 0.1129(2) 0.5753(3) 0.9058(3)
H4_6 H 0.086042 0.539553 0.895708
C7_6 C 0.1193(2) 0.6199(3) 0.8784(3)
C8_6 C 0.0308(2) 0.5760(3) 0.8357(3)
H5_6 H 0.015095 0.597035 0.908968
C10_6 C 0.0082(2) 0.5412(3) 0.7895(3)
H6_6 H 0.030250 0.542319 0.760637
O5_6 O 0.08801(17) 0.6157(2) 0.83334(19)
C16_6 C 0.3633(2) 0.5521(3) 0.9653(2)
C17_6 C 0.3175(3) 0.5110(4) 0.9374(3)
H9_6 H 0.281536 0.501021 0.948255
C18_6 C 0.4155(3) 0.5641(4) 0.9512(3)
H10_6 H 0.445677 0.590083 0.971455
C19_6 C 0.3263(3) 0.4851(4) 0.8932(3)
H11_6 H 0.296133 0.458399 0.873588
C20_6 C 0.4247(3) 0.5375(4) 0.9058(3)
H12_6 H 0.460447 0.546488 0.895708
C21_6 C 0.3801(3) 0.4993(4) 0.8784(3)
C22_6 C 0.4240(3) 0.4547(4) 0.8357(3)
C23_6 C 0.4264(3) 0.4253(4) 0.8793(3)
H13_6 H 0.402965 0.418059 0.908968
C24_6 C 0.4588(3) 0.4669(4) 0.7895(3)
H14_6 H 0.457681 0.487930 0.760637
C25_6 C 0.4646(3) 0.4066(4) 0.8786(3)
H15_6 H 0.467487 0.387275 0.908063
C26_6 C 0.4944(3) 0.4455(4) 0.7902(3)
H16_6 H 0.516508 0.450719 0.759943
C27_6 C 0.4982(2) 0.41717(28) 0.8333(2)
C28_6 C 0.5394(2) 0.39644(28) 0.8327(2)
O11_6 O 0.3843(2) 0.47227(26) 0.83334(19)
C30_6 C 0.4479(3) 0.8111(2) 0.9653(2)
C31_6 C 0.4890(4) 0.8064(3) 0.9374(3)
H17_6 H 0.498979 0.780514 0.948255
C32_6 C 0.4359(4) 0.8513(2) 0.9512(3)
H18_6 H 0.409917 0.855593 0.971455
C33_6 C 0.5149(4) 0.8411(3) 0.8932(3)
H19_6 H 0.541601 0.837733 0.873588
C34_6 C 0.4625(4) 0.8871(2) 0.9058(3)
H20_6 H 0.453512 0.913958 0.895708
C35_6 C 0.5007(4) 0.8807(2) 0.8784(3)
C36_6 C 0.5453(4) 0.9692(2) 0.8357(3)
H21_6 H 0.581941 0.984905 0.908968
C38_6 C 0.5331(4) 0.9918(2) 0.7895(3)
H22_6 H 0.512070 0.969750 0.760637
O17_6 O 0.52773(26) 0.91199(17) 0.83334(19)
C9_6 C 0.9990(3) 0.5736(3) 0.8793(3)
C11_6 C 0.9421(2) 0.5354(3) 0.8786(3)
H7_6 H 0.919789 0.532513 0.908063
C12_6 C 0.9512(2) 0.5056(3) 0.7902(3)
H8_6 H 0.934212 0.483492 0.759943
C13_6 C 0.91901(19) 0.5018(2) 0.8333(2)
C14_6 C 0.85708(19) 0.4606(2) 0.8327(2)
C43 C 0.4363(4) 0.4600(4) 0.0432(5)
H25 H 0.457981 0.497705 0.030868
H26 H 0.436070 0.435283 0.015778
H27 H 0.452349 0.455315 0.075927
C44 C 0.3779(3) 0.4920(3) 0.0863(3)
H28 H 0.385709 0.488934 0.123717
H29 H 0.341331 0.487255 0.083229
H30 H 0.404799 0.527939 0.072724
N1 N 0.3809(6) 0.4475(5) 0.0537(7)
H31 H 0.363052 0.415436 0.071549
H32 H 0.363445 0.443274 0.022190
H26_2 H 0.564717 0.000787 0.015778
C43_2 C 0.5400(4) 0.9763(6) 0.0432(5)
H25_2 H 0.502295 0.960276 0.030868
H27_2 H 0.544685 0.997034 0.075927
C44_2 C 0.5080(3) 0.8859(4) 0.0863(3)
H28_2 H 0.511066 0.896775 0.123717
H29_2 H 0.512745 0.854076 0.083229
H30_2 H 0.472061 0.876860 0.072724
N1_2 N 0.5525(5) 0.9334(8) 0.0537(7)
H31_2 H 0.584564 0.947616 0.071549
H32_2 H 0.556726 0.920171 0.022190
C43_3 C 0.0237(6) 0.5637(4) 0.0432(5)
H25_3 H 0.039724 0.542019 0.030868
H27_3 H 0.002966 0.547651 0.075927
C44_3 C 0.1141(4) 0.6221(3) 0.0863(3)
H28_3 H 0.103225 0.614291 0.123717
H29_3 H 0.145924 0.658669 0.083229
H30_3 H 0.123140 0.595201 0.072724
N1_3 N 0.0666(8) 0.6191(6) 0.0537(7)
H31_3 H 0.052384 0.636948 0.071549
H32_3 H 0.079829 0.636555 0.022190
H26_3 H 0.999213 0.563930 0.015778
C43_4 C 0.1030(4) 0.7933(4) 0.3765(5)
H25_4 H 0.124648 0.831038 0.364201
H26_4 H 0.102737 0.768616 0.349111
H27_4 H 0.119016 0.788648 0.409260
C44_4 C 0.0446(3) 0.8253(3) 0.4196(3)
H28_4 H 0.052376 0.822267 0.457050
H29_4 H 0.007998 0.820588 0.416562
H30_4 H 0.071466 0.861272 0.406057
N1_4 N 0.0476(6) 0.7808(5) 0.3870(7)
H31_4 H 0.029719 0.748769 0.404882
H32_4 H 0.030112 0.776607 0.355523
C43_5 C 0.2067(4) 0.3096(6) 0.3765(5)
H25_5 H 0.168962 0.293609 0.364201
H26_5 H 0.231384 0.334120 0.349111
H27_5 H 0.211352 0.330367 0.409260
C44_5 C 0.1747(3) 0.2192(4) 0.4196(3)
H28_5 H 0.177733 0.230108 0.457050
H29_5 H 0.179412 0.187409 0.416562
H30_5 H 0.138728 0.210193 0.406057
N1_5 N 0.2192(5) 0.2667(8) 0.3870(7)
H31_5 H 0.251231 0.280949 0.404882
H32_5 H 0.223393 0.253504 0.355523
C43_6 C 0.6904(6) 0.8970(4) 0.3765(5)
H25_6 H 0.706391 0.875352 0.364201
H26_6 H 0.665880 0.897263 0.349111
H27_6 H 0.669633 0.880984 0.409260
C44_6 C 0.7808(4) 0.9554(3) 0.4196(3)
H28_6 H 0.769892 0.947624 0.457050
H29_6 H 0.812591 0.992002 0.416562
H30_6 H 0.789807 0.928534 0.406057
N1_6 N 0.7333(8) 0.9524(6) 0.3870(7)
H31_6 H 0.719051 0.970281 0.404882
H32_6 H 0.746496 0.969888 0.355523
C43_7 C 0.7696(4) 0.1267(4) 0.7099(5)
H25_7 H 0.791314 0.164372 0.697535
H26_7 H 0.769403 0.101950 0.682445
H27_7 H 0.785682 0.121982 0.742594
C44_7 C 0.7112(3) 0.1587(3) 0.7530(3)
H28_7 H 0.719042 0.155601 0.790384
H29_7 H 0.674664 0.153922 0.749896
H30_7 H 0.738132 0.194606 0.739391
N1_7 N 0.7142(6) 0.1142(5) 0.7204(7)
H31_7 H 0.696385 0.082103 0.738216
H32_7 H 0.696778 0.109941 0.688857
C43_8 C 0.8733(4) 0.6430(6) 0.7099(5)
H25_8 H 0.835628 0.626943 0.697535
H26_8 H 0.898050 0.667454 0.682445
H27_8 H 0.878018 0.663701 0.742594
C44_8 C 0.8413(3) 0.5526(4) 0.7530(3)
H28_8 H 0.844399 0.563442 0.790384
H29_8 H 0.846078 0.520743 0.749896
H30_8 H 0.805394 0.543527 0.739391
N1_8 N 0.8858(5) 0.6001(8) 0.7204(7)
H31_8 H 0.917897 0.614283 0.738216
H32_8 H 0.890059 0.586838 0.688857
C43_9 C 0.3570(6) 0.2304(4) 0.7099(5)
H25_9 H 0.373057 0.208686 0.697535
H26_9 H 0.332546 0.230597 0.682445
H27_9 H 0.336299 0.214318 0.742594
C44_9 C 0.4474(4) 0.2888(3) 0.7530(3)
H28_9 H 0.436558 0.280958 0.790384
H29_9 H 0.479257 0.325336 0.749896
H30_9 H 0.456473 0.261868 0.739391
N1_9 N 0.3999(8) 0.2858(6) 0.7204(7)
H31_9 H 0.385717 0.303615 0.738216
H32_9 H 0.413162 0.303222 0.688857
C43_10 C 0.5637(4) 0.5400(4) 0.9568(5)
H25_10 H 0.542019 0.502295 0.969132
H26_10 H 0.563930 0.564717 0.984222
H27_10 H 0.547651 0.544685 0.924073
C44_10 C 0.6221(3) 0.5080(3) 0.9137(3)
H28_10 H 0.614291 0.511066 0.876283
H29_10 H 0.658669 0.512745 0.916771
H30_10 H 0.595201 0.472061 0.927276
N1_10 N 0.6191(6) 0.5525(5) 0.9463(7)
H31_10 H 0.636948 0.584564 0.928451
H32_10 H 0.636555 0.556726 0.977810
C43_11 C 0.4600(4) 0.0237(6) 0.9568(5)
H25_11 H 0.497705 0.039724 0.969132
H27_11 H 0.455315 0.002966 0.924073
C44_11 C 0.4920(3) 0.1141(4) 0.9137(3)
H28_11 H 0.488934 0.103225 0.876283
H29_11 H 0.487255 0.145924 0.916771
H30_11 H 0.527939 0.123140 0.927276
N1_11 N 0.4475(5) 0.0666(8) 0.9463(7)
H31_11 H 0.415436 0.052384 0.928451
H32_11 H 0.443274 0.079829 0.977810
H26_11 H 0.435283 0.999213 0.984222
H26_12 H 0.000787 0.436070 0.984222
C43_12 C 0.9763(6) 0.4363(4) 0.9568(5)
H25_12 H 0.960276 0.457981 0.969132
H27_12 H 0.997034 0.452349 0.924073
C44_12 C 0.8859(4) 0.3779(3) 0.9137(3)
H28_12 H 0.896775 0.385709 0.876283
H29_12 H 0.854076 0.341331 0.916771
H30_12 H 0.876860 0.404799 0.927276
N1_12 N 0.9334(8) 0.3809(6) 0.9463(7)
H31_12 H 0.947616 0.363052 0.928451
H32_12 H 0.920171 0.363445 0.977810
C43_13 C 0.8970(4) 0.2067(4) 0.6235(5)
H25_13 H 0.875352 0.168962 0.635799
H26_13 H 0.897263 0.231384 0.650889
H27_13 H 0.880984 0.211352 0.590740
C44_13 C 0.9554(3) 0.1747(3) 0.5804(3)
H28_13 H 0.947624 0.177733 0.542950
H29_13 H 0.992002 0.179412 0.583438
H30_13 H 0.928534 0.138728 0.593943
N1_13 N 0.9524(6) 0.2192(5) 0.6130(7)
H31_13 H 0.970281 0.251231 0.595118
H32_13 H 0.969888 0.223393 0.644477
C43_14 C 0.7933(4) 0.6904(6) 0.6235(5)
H25_14 H 0.831038 0.706391 0.635799
H26_14 H 0.768616 0.665880 0.650889
H27_14 H 0.788648 0.669633 0.590740
C44_14 C 0.8253(3) 0.7808(4) 0.5804(3)
H28_14 H 0.822267 0.769892 0.542950
H29_14 H 0.820588 0.812591 0.583438
H30_14 H 0.861272 0.789807 0.593943
N1_14 N 0.7808(5) 0.7333(8) 0.6130(7)
H31_14 H 0.748769 0.719051 0.595118
H32_14 H 0.776607 0.746496 0.644477
C43_15 C 0.3096(6) 0.1030(4) 0.6235(5)
H25_15 H 0.293609 0.124648 0.635799
H26_15 H 0.334120 0.102737 0.650889
H27_15 H 0.330367 0.119016 0.590740
C44_15 C 0.2192(4) 0.0446(3) 0.5804(3)
H28_15 H 0.230108 0.052376 0.542950
H29_15 H 0.187409 0.007998 0.583438
H30_15 H 0.210193 0.071466 0.593943
N1_15 N 0.2667(8) 0.0476(6) 0.6130(7)
H31_15 H 0.280949 0.029719 0.595118
H32_15 H 0.253504 0.030112 0.644477
C43_16 C 0.2304(4) 0.8733(4) 0.2901(5)
H25_16 H 0.208686 0.835628 0.302465
H26_16 H 0.230597 0.898050 0.317555
H27_16 H 0.214318 0.878018 0.257406
C44_16 C 0.2888(3) 0.8413(3) 0.2470(3)
H28_16 H 0.280958 0.844399 0.209616
H29_16 H 0.325336 0.846078 0.250104
H30_16 H 0.261868 0.805394 0.260609
N1_16 N 0.2858(6) 0.8858(5) 0.2796(7)
H31_16 H 0.303615 0.917897 0.261784
H32_16 H 0.303222 0.890059 0.311143
C43_17 C 0.1267(4) 0.3570(6) 0.2901(5)
H25_17 H 0.164372 0.373057 0.302465
H26_17 H 0.101950 0.332546 0.317555
H27_17 H 0.121982 0.336299 0.257406
C44_17 C 0.1587(3) 0.4474(4) 0.2470(3)
H28_17 H 0.155601 0.436558 0.209616
H29_17 H 0.153922 0.479257 0.250104
H30_17 H 0.194606 0.456473 0.260609
N1_17 N 0.1142(5) 0.3999(8) 0.2796(7)
H31_17 H 0.082103 0.385717 0.261784
H32_17 H 0.109941 0.413162 0.311143
C43_18 C 0.6430(6) 0.7696(4) 0.2901(5)
H25_18 H 0.626943 0.791314 0.302465
H26_18 H 0.667454 0.769403 0.317555
H27_18 H 0.663701 0.785682 0.257406
C44_18 C 0.5526(4) 0.7112(3) 0.2470(3)
H28_18 H 0.563442 0.719042 0.209616
H29_18 H 0.520743 0.674664 0.250104
H30_18 H 0.543527 0.738132 0.260609
N1_18 N 0.6001(8) 0.7142(6) 0.2796(7)
H31_18 H 0.614283 0.696385 0.261784
H32_18 H 0.586838 0.696778 0.311143
loop_
_geom_bond_atom_site_label_1
_geom_bond_atom_site_label_2
_geom_bond_site_symmetry_1
_geom_bond_site_symmetry_2
C1 C2 1_555 1_555
C2 C3 1_555 1_555
C3 H1 1_555 1_555
C4 C2 1_555 1_555
H2 C4 1_555 1_555
C5 C3 1_555 1_555
H3 C5 1_555 1_555
C6 C4 1_555 1_555
H4 C6 1_555 1_555
C7 C5 1_555 1_555
C8 C9 1_555 1_555
C9 H5 1_555 1_555
C10 C8 1_555 1_555
H6 C10 1_555 1_555
C11 C9 1_555 1_555
H7 C11 1_555 1_555
C12 C10 1_555 1_555
H8 C12 1_555 1_555
C13 C11 1_555 1_555
C14 C13 1_555 1_555
O1 Ho1 1_555 1_555
O2 Ho1 1_555 1_555
O3 C1 1_555 1_555
O4 C1 1_555 1_555
O5 C7 1_555 1_555
O6 C14 1_555 1_555
O7 C14 1_555 1_555
Ho1 O3 1_555 1_555
C15 C16 1_555 1_555
C16 C17 1_555 1_555
C17 H9 1_555 1_555
C18 C16 1_555 1_555
H10 C18 1_555 1_555
C19 C17 1_555 1_555
H11 C19 1_555 1_555
C20 C18 1_555 1_555
H12 C20 1_555 1_555
C21 C19 1_555 1_555
C22 C23 1_555 1_555
C23 H13 1_555 1_555
C24 C22 1_555 1_555
H14 C24 1_555 1_555
C25 C23 1_555 1_555
H15 C25 1_555 1_555
C26 C24 1_555 1_555
H16 C26 1_555 1_555
C27 C25 1_555 1_555
C28 C27 1_555 1_555
O8 Ho1 1_555 1_555
O9 C15 1_555 1_555
O10 C15 1_555 1_555
O11 C21 1_555 1_555
O12 C28 1_555 1_555
O13 C28 1_555 1_555
Ho2 O1 1_555 1_555
C29 C30 1_555 1_555
C30 C31 1_555 1_555
C31 H17 1_555 1_555
C32 C30 1_555 1_555
H18 C32 1_555 1_555
C33 C31 1_555 1_555
H19 C33 1_555 1_555
C34 C32 1_555 1_555
H20 C34 1_555 1_555
C35 C33 1_555 1_555
C36 C37 1_555 1_555
C37 H21 1_555 1_555
C38 C36 1_555 1_555
H22 C38 1_555 1_555
C39 C37 1_555 1_555
H23 C39 1_555 1_555
C40 C38 1_555 1_555
H24 C40 1_555 1_555
C41 C39 1_555 1_555
C42 C41 1_555 1_555
O14 Ho2 1_555 1_555
O15 C29 1_555 1_555
O16 Ho1 1_555 1_555
O17 C35 1_555 1_555
O18 C42 1_555 1_555
O19 C42 1_555 1_555
Ho3 O1 1_555 1_555
O20 Ho2 1_555 1_555
O21 Ho3 1_555 1_555
O22 Ho1 1_555 1_555
O23 Ho2 1_555 1_555
O24 Ho3 1_555 1_555
O25 Ho1 1_555 1_555
O26 Ho3 1_555 1_555
O27 Ho1 1_555 1_555
O28 Ho2 1_555 1_555
Ho4 O13 1_555 1_555
Ho5 O19 1_555 1_555
Ho6 O7 1_555 1_555
Ho7 O14 1_555 1_555
Ho8 O2 1_555 1_555
Ho9 O8 1_555 1_555
Ho11 O6 1_555 1_555
C6 C7 1_555 1_555
C8 O5 1_555 1_555
C12 C13 1_555 1_555
O2 Ho3 1_555 1_555
O4 Ho2 1_555 1_555
C20 C21 1_555 1_555
C22 O11 1_555 1_555
C26 C27 1_555 1_555
O8 Ho2 1_555 1_555
O9 Ho2 1_555 1_555
O10 Ho3 1_555 1_555
C29 O16 1_555 1_555
C34 C35 1_555 1_555
C36 O17 1_555 1_555
C40 C41 1_555 1_555
O14 Ho3 1_555 1_555
O15 Ho3 1_555 1_555
O20 Ho7 1_555 1_555
O20 Ho9 1_555 1_555
O21 Ho7 1_555 1_555
O21 Ho8 1_555 1_555
O22 Ho8 1_555 1_555
O22 Ho9 1_555 1_555
C1_2 C2_2 1_555 1_555
C4_2 C2_2 1_555 1_555
H2_2 C4_2 1_555 1_555
C6_2 C4_2 1_555 1_555
H4_2 C6_2 1_555 1_555
C8_2 C9_2 1_555 1_555
C9_2 H5_2 1_555 1_555
C10_2 C8_2 1_555 1_555
H6_2 C10_2 1_555 1_555
C11_2 C9_2 1_555 1_555
H7_2 C11_2 1_555 1_555
C12_2 C10_2 1_555 1_555
H8_2 C12_2 1_555 1_555
C13_2 C11_2 1_555 1_555
C14_2 C13_2 1_555 1_555
O4_2 C1_2 1_555 1_555
O5_2 C7_2 1_555 1_555
O6_2 C14_2 1_555 1_555
O7_2 C14_2 1_555 1_555
C17_2 H9_2 1_555 1_555
C19_2 C17_2 1_555 1_555
H11_2 C19_2 1_555 1_555
Ho5 O1_2 1_555 1_555
O20_2 Ho5 1_555 1_555
O23_2 Ho5 1_555 1_555
Ho6_2 O7_2 1_555 1_555
Ho12 O8_2 1_555 1_555
Ho11_2 O6_2 1_555 1_555
C6_2 C7_2 1_555 1_555
C8_2 O5_2 1_555 1_555
C12_2 C13_2 1_555 1_555
O4_2 Ho5 1_555 1_555
O8_2 Ho5 1_555 1_555
O9_2 Ho5 1_555 1_555
O20_2 Ho12 1_555 1_555
C3_2 H1_2 1_555 1_555
C5_2 C3_2 1_555 1_555
H3_2 C5_2 1_555 1_555
O1_3 Ho4 1_555 1_555
Ho4 O3_2 1_555 1_555
O22_2 Ho4 1_555 1_555
C15_2 C16_2 1_555 1_555
C18_2 C16_2 1_555 1_555
H10_2 C18_2 1_555 1_555
C20_2 C18_2 1_555 1_555
H12_2 C20_2 1_555 1_555
C22_2 C23_2 1_555 1_555
C23_2 H13_2 1_555 1_555
C24_2 C22_2 1_555 1_555
H14_2 C24_2 1_555 1_555
C25_2 C23_2 1_555 1_555
H15_2 C25_2 1_555 1_555
C26_2 C24_2 1_555 1_555
H16_2 C26_2 1_555 1_555
C27_2 C25_2 1_555 1_555
C28_2 C27_2 1_555 1_555
O10_2 C15_2 1_555 1_555
O11_2 C21_2 1_555 1_555
O12_2 C28_2 1_555 1_555
O13_2 C28_2 1_555 1_555
Ho4_2 O13_2 1_555 1_555
Ho10 O14_2 1_555 1_555
Ho12_2 O12_2 1_555 1_555
C20_2 C21_2 1_555 1_555
C22_2 O11_2 1_555 1_555
C26_2 C27_2 1_555 1_555
C29_2 C30_2 1_555 1_555
C30_2 C31_2 1_555 1_555
C31_2 H17_2 1_555 1_555
C32_2 C30_2 1_555 1_555
H18_2 C32_2 1_555 1_555
C33_2 C31_2 1_555 1_555
H19_2 C33_2 1_555 1_555
C34_2 C32_2 1_555 1_555
H20_2 C34_2 1_555 1_555
C35_2 C33_2 1_555 1_555
C36_2 C37_2 1_555 1_555
C37_2 H21_2 1_555 1_555
C38_2 C36_2 1_555 1_555
H22_2 C38_2 1_555 1_555
C39_2 C37_2 1_555 1_555
H23_2 C39_2 1_555 1_555
C40_2 C38_2 1_555 1_555
H24_2 C40_2 1_555 1_555
C41_2 C39_2 1_555 1_555
C42_2 C41_2 1_555 1_555
O15_2 C29_2 1_555 1_555
O17_2 C35_2 1_555 1_555
O18_2 C42_2 1_555 1_555
O19_2 C42_2 1_555 1_555
Ho6 O1_5 1_555 1_555
O21_2 Ho6 1_555 1_555
Ho5_2 O19_2 1_555 1_555
Ho11 O2_2 1_555 1_555
Ho10_2 O18_2 1_555 1_555
O2_2 Ho6 1_555 1_555
C29_2 O16_2 1_555 1_555
C34_2 C35_2 1_555 1_555
C36_2 O17_2 1_555 1_555
C40_2 C41_2 1_555 1_555
O15_2 Ho6 1_555 1_555
O21_2 Ho11 1_555 1_555
C11_3 C9_3 1_555 1_555
H7_3 C11_3 1_555 1_555
H8_3 C12_3 1_555 1_555
C13_3 C11_3 1_555 1_555
C14_3 C13_3 1_555 1_555
O6_3 C14_3 1_555 1_555
O26 C14_3 1_555 1_555
Ho8 O6_3 1_555 1_555
C12_3 C13_3 1_555 1_555
C2_3 C3_3 1_555 1_555
C3_3 H1_3 1_555 1_555
C4_3 C2_3 1_555 1_555
H2_3 C4_3 1_555 1_555
C5_3 C3_3 1_555 1_555
H3_3 C5_3 1_555 1_555
C6_3 C4_3 1_555 1_555
H4_3 C6_3 1_555 1_555
C7_3 C5_3 1_555 1_555
C10_3 C8_3 1_555 1_555
H6_3 C10_3 1_555 1_555
O5_3 C7_3 1_555 1_555
C16_3 C17_3 1_555 1_555
C17_3 H9_3 1_555 1_555
C18_3 C16_3 1_555 1_555
H10_3 C18_3 1_555 1_555
C19_3 C17_3 1_555 1_555
H11_3 C19_3 1_555 1_555
C20_3 C18_3 1_555 1_555
H12_3 C20_3 1_555 1_555
C21_3 C19_3 1_555 1_555
C22_3 C23_3 1_555 1_555
C23_3 H13_3 1_555 1_555
C24_3 C22_3 1_555 1_555
H14_3 C24_3 1_555 1_555
C25_3 C23_3 1_555 1_555
H15_3 C25_3 1_555 1_555
C26_3 C24_3 1_555 1_555
H16_3 C26_3 1_555 1_555
C27_3 C25_3 1_555 1_555
C28_3 C27_3 1_555 1_555
O11_3 C21_3 1_555 1_555
O12_3 C28_3 1_555 1_555
O27 C28_3 1_555 1_555
C30_3 C31_3 1_555 1_555
C31_3 H17_3 1_555 1_555
C32_3 C30_3 1_555 1_555
H18_3 C32_3 1_555 1_555
C33_3 C31_3 1_555 1_555
H19_3 C33_3 1_555 1_555
C34_3 C32_3 1_555 1_555
H20_3 C34_3 1_555 1_555
C35_3 C33_3 1_555 1_555
C38_3 C36_3 1_555 1_555
H22_3 C38_3 1_555 1_555
O17_3 C35_3 1_555 1_555
Ho9 O12_3 1_555 1_555
C6_3 C7_3 1_555 1_555
C8_3 O5_3 1_555 1_555
C20_3 C21_3 1_555 1_555
C22_3 O11_3 1_555 1_555
C26_3 C27_3 1_555 1_555
C34_3 C35_3 1_555 1_555
C36_3 O17_3 1_555 1_555
O1_6 Ho4_2 1_555 1_555
O2_3 Ho4_2 1_555 1_555
O3_3 C1_3 1_555 1_555
O4_3 C1_3 1_555 1_555
Ho4_2 O3_3 1_555 1_555
O8_3 Ho4_2 1_555 1_555
O9_3 C15_3 1_555 1_555
O10_3 C15_3 1_555 1_555
Ho5_2 O1_6 1_555 1_555
O14_3 Ho5_2 1_555 1_555
O15_3 C29_3 1_555 1_555
O16_3 Ho4_2 1_555 1_555
Ho6_2 O1_6 1_555 1_555
O20_3 Ho5_2 1_555 1_555
O21_3 Ho6_2 1_555 1_555
O22_3 Ho4_2 1_555 1_555
O23_3 Ho5_2 1_555 1_555
O24_3 Ho6_2 1_555 1_555
O25_3 Ho4_2 1_555 1_555
Ho10_2 O14_3 1_555 1_555
Ho11_2 O2_3 1_555 1_555
Ho12_2 O8_3 1_555 1_555
O2_3 Ho6_2 1_555 1_555
O4_3 Ho5_2 1_555 1_555
O8_3 Ho5_2 1_555 1_555
O9_3 Ho5_2 1_555 1_555
O10_3 Ho6_2 1_555 1_555
C29_3 O16_3 1_555 1_555
O14_3 Ho6_2 1_555 1_555
O15_3 Ho6_2 1_555 1_555
O20_3 Ho10_2 1_555 1_555
O20_3 Ho12_2 1_555 1_555
O21_3 Ho10_2 1_555 1_555
O21_3 Ho11_2 1_555 1_555
O22_3 Ho11_2 1_555 1_555
O22_3 Ho12_2 1_555 1_555
C39_3 C37_3 1_555 1_555
H23_3 C39_3 1_555 1_555
H24_3 C40_3 1_555 1_555
C41_3 C39_3 1_555 1_555
C42_3 C41_3 1_555 1_555
O18_3 C42_3 1_555 1_555
O28 C42_3 1_555 1_555
Ho7 O18_3 1_555 1_555
C40_3 C41_3 1_555 1_555
C1_4 C2_4 1_555 1_555
C2_4 C3_4 1_555 1_555
C3_4 H1_4 1_555 1_555
C4_4 C2_4 1_555 1_555
H2_4 C4_4 1_555 1_555
C5_4 C3_4 1_555 1_555
H3_4 C5_4 1_555 1_555
C6_4 C4_4 1_555 1_555
H4_4 C6_4 1_555 1_555
C7_4 C5_4 1_555 1_555
C8_4 C9_4 1_555 1_555
C9_4 H5_4 1_555 1_555
C10_4 C8_4 1_555 1_555
H6_4 C10_4 1_555 1_555
C11_4 C9_4 1_555 1_555
H7_4 C11_4 1_555 1_555
C12_4 C10_4 1_555 1_555
H8_4 C12_4 1_555 1_555
C13_4 C11_4 1_555 1_555
C14_4 C13_4 1_555 1_555
O1_7 Ho10_2 1_555 1_555
O3_4 C1_4 1_555 1_555
O4_4 C1_4 1_555 1_555
O5_4 C7_4 1_555 1_555
O23_2 C14_4 1_555 1_555
O7_3 C14_4 1_555 1_555
Ho10_2 O3_4 1_555 1_555
C15_4 C16_4 1_555 1_555
C16_4 C17_4 1_555 1_555
C17_4 H9_4 1_555 1_555
C18_4 C16_4 1_555 1_555
H10_4 C18_4 1_555 1_555
C19_4 C17_4 1_555 1_555
H11_4 C19_4 1_555 1_555
C20_4 C18_4 1_555 1_555
H12_4 C20_4 1_555 1_555
C21_4 C19_4 1_555 1_555
C22_4 C23_4 1_555 1_555
C23_4 H13_4 1_555 1_555
C24_4 C22_4 1_555 1_555
H14_4 C24_4 1_555 1_555
C25_4 C23_4 1_555 1_555
H15_4 C25_4 1_555 1_555
C26_4 C24_4 1_555 1_555
H16_4 C26_4 1_555 1_555
C27_4 C25_4 1_555 1_555
C28_4 C27_4 1_555 1_555
O9_4 C15_4 1_555 1_555
O10_4 C15_4 1_555 1_555
O11_4 C21_4 1_555 1_555
O24_2 C28_4 1_555 1_555
O13_3 C28_4 1_555 1_555
Ho11_2 O1_7 1_555 1_555
C29_4 C30_4 1_555 1_555
C30_4 C31_4 1_555 1_555
C31_4 H17_4 1_555 1_555
C32_4 C30_4 1_555 1_555
H18_4 C32_4 1_555 1_555
C33_4 C31_4 1_555 1_555
H19_4 C33_4 1_555 1_555
C34_4 C32_4 1_555 1_555
H20_4 C34_4 1_555 1_555
C35_4 C33_4 1_555 1_555
C36_4 C37_4 1_555 1_555
C37_4 H21_4 1_555 1_555
C38_4 C36_4 1_555 1_555
H22_4 C38_4 1_555 1_555
C39_4 C37_4 1_555 1_555
H23_4 C39_4 1_555 1_555
C40_4 C38_4 1_555 1_555
H24_4 C40_4 1_555 1_555
C41_4 C39_4 1_555 1_555
C42_4 C41_4 1_555 1_555
O15_4 C29_4 1_555 1_555
O16_4 Ho10_2 1_555 1_555
O17_4 C35_4 1_555 1_555
O25_2 C42_4 1_555 1_555
O19_3 C42_4 1_555 1_555
Ho12_2 O1_7 1_555 1_555
O26_2 Ho12_2 1_555 1_555
O27_2 Ho10_2 1_555 1_555
O28_2 Ho11_2 1_555 1_555
Ho10 O13_3 1_555 1_555
Ho11 O19_3 1_555 1_555
Ho12 O7_3 1_555 1_555
C6_4 C7_4 1_555 1_555
C8_4 O5_4 1_555 1_555
C12_4 C13_4 1_555 1_555
O4_4 Ho11_2 1_555 1_555
C20_4 C21_4 1_555 1_555
C22_4 O11_4 1_555 1_555
C26_4 C27_4 1_555 1_555
O9_4 Ho11_2 1_555 1_555
O10_4 Ho12_2 1_555 1_555
C29_4 O16_4 1_555 1_555
C34_4 C35_4 1_555 1_555
C36_4 O17_4 1_555 1_555
C40_4 C41_4 1_555 1_555
O15_4 Ho12_2 1_555 1_555
C29_5 C30_5 1_555 1_555
C30_5 C31_5 1_555 1_555
C31_5 H17_5 1_555 1_555
C32_5 C30_5 1_555 1_555
H18_5 C32_5 1_555 1_555
C33_5 C31_5 1_555 1_555
H19_5 C33_5 1_555 1_555
C34_5 C32_5 1_555 1_555
H20_5 C34_5 1_555 1_555
C35_5 C33_5 1_555 1_555
C36_5 C37_5 1_555 1_555
C37_5 H21_5 1_555 1_555
C38_5 C36_5 1_555 1_555
H22_5 C38_5 1_555 1_555
C39_5 C37_5 1_555 1_555
H23_5 C39_5 1_555 1_555
C40_5 C38_5 1_555 1_555
H24_5 C40_5 1_555 1_555
C41_5 C39_5 1_555 1_555
C42_5 C41_5 1_555 1_555
O15_5 C29_5 1_555 1_555
O17_5 C35_5 1_555 1_555
O25 C42_5 1_555 1_555
O19_4 C42_5 1_555 1_555
Ho12 O1_8 1_555 1_555
Ho8 O19_4 1_555 1_555
C29_5 O16_5 1_555 1_555
C34_5 C35_5 1_555 1_555
C36_5 O17_5 1_555 1_555
C40_5 C41_5 1_555 1_555
O15_5 Ho12 1_555 1_555
C15_5 C16_5 1_555 1_555
C18_5 C16_5 1_555 1_555
H10_5 C18_5 1_555 1_555
C20_5 C18_5 1_555 1_555
H12_5 C20_5 1_555 1_555
C22_5 C23_5 1_555 1_555
C23_5 H13_5 1_555 1_555
C24_5 C22_5 1_555 1_555
H14_5 C24_5 1_555 1_555
C25_5 C23_5 1_555 1_555
H15_5 C25_5 1_555 1_555
C26_5 C24_5 1_555 1_555
H16_5 C26_5 1_555 1_555
C27_5 C25_5 1_555 1_555
C28_5 C27_5 1_555 1_555
O10_5 C15_5 1_555 1_555
O11_5 C21_5 1_555 1_555
O24 C28_5 1_555 1_555
O13_4 C28_5 1_555 1_555
Ho7 O13_4 1_555 1_555
C20_5 C21_5 1_555 1_555
C22_5 O11_5 1_555 1_555
C26_5 C27_5 1_555 1_555
C3_5 H1_5 1_555 1_555
C5_5 C3_5 1_555 1_555
H3_5 C5_5 1_555 1_555
O1_10 Ho10 1_555 1_555
Ho10 O3_5 1_555 1_555
C1_5 C2_5 1_555 1_555
C4_5 C2_5 1_555 1_555
H2_5 C4_5 1_555 1_555
C6_5 C4_5 1_555 1_555
H4_5 C6_5 1_555 1_555
C8_5 C9_5 1_555 1_555
C9_5 H5_5 1_555 1_555
C10_5 C8_5 1_555 1_555
H6_5 C10_5 1_555 1_555
C11_5 C9_5 1_555 1_555
H7_5 C11_5 1_555 1_555
C12_5 C10_5 1_555 1_555
H8_5 C12_5 1_555 1_555
C13_5 C11_5 1_555 1_555
C14_5 C13_5 1_555 1_555
O4_5 C1_5 1_555 1_555
O5_5 C7_5 1_555 1_555
O23 C14_5 1_555 1_555
O7_4 C14_5 1_555 1_555
C17_5 H9_5 1_555 1_555
C19_5 C17_5 1_555 1_555
H11_5 C19_5 1_555 1_555
Ho11 O1_11 1_555 1_555
Ho9 O7_4 1_555 1_555
C6_5 C7_5 1_555 1_555
C8_5 O5_5 1_555 1_555
C12_5 C13_5 1_555 1_555
O4_5 Ho11 1_555 1_555
O9_5 Ho11 1_555 1_555
C39_6 C37_6 1_555 1_555
H23_6 C39_6 1_555 1_555
H24_6 C40_6 1_555 1_555
C41_6 C39_6 1_555 1_555
C42_6 C41_6 1_555 1_555
O25_3 C42_6 1_555 1_555
O28_2 C42_6 1_555 1_555
C40_6 C41_6 1_555 1_555
O1_12 Ho7 1_555 1_555
O3_6 C1_6 1_555 1_555
O4_6 C1_6 1_555 1_555
Ho7 O3_6 1_555 1_555
O9_6 C15_6 1_555 1_555
O10_6 C15_6 1_555 1_555
Ho8 O1_12 1_555 1_555
O15_6 C29_6 1_555 1_555
O16_6 Ho7 1_555 1_555
Ho9 O1_12 1_555 1_555
O4_6 Ho8 1_555 1_555
O9_6 Ho8 1_555 1_555
O10_6 Ho9 1_555 1_555
C29_6 O16_6 1_555 1_555
O15_6 Ho9 1_555 1_555
C2_6 C3_6 1_555 1_555
C3_6 H1_6 1_555 1_555
C4_6 C2_6 1_555 1_555
H2_6 C4_6 1_555 1_555
C5_6 C3_6 1_555 1_555
H3_6 C5_6 1_555 1_555
C6_6 C4_6 1_555 1_555
H4_6 C6_6 1_555 1_555
C7_6 C5_6 1_555 1_555
C10_6 C8_6 1_555 1_555
H6_6 C10_6 1_555 1_555
O5_6 C7_6 1_555 1_555
C16_6 C17_6 1_555 1_555
C17_6 H9_6 1_555 1_555
C18_6 C16_6 1_555 1_555
H10_6 C18_6 1_555 1_555
C19_6 C17_6 1_555 1_555
H11_6 C19_6 1_555 1_555
C20_6 C18_6 1_555 1_555
H12_6 C20_6 1_555 1_555
C21_6 C19_6 1_555 1_555
C22_6 C23_6 1_555 1_555
C23_6 H13_6 1_555 1_555
C24_6 C22_6 1_555 1_555
H14_6 C24_6 1_555 1_555
C25_6 C23_6 1_555 1_555
H15_6 C25_6 1_555 1_555
C26_6 C24_6 1_555 1_555
H16_6 C26_6 1_555 1_555
C27_6 C25_6 1_555 1_555
C28_6 C27_6 1_555 1_555
O11_6 C21_6 1_555 1_555
O24_3 C28_6 1_555 1_555
O27_2 C28_6 1_555 1_555
C30_6 C31_6 1_555 1_555
C31_6 H17_6 1_555 1_555
C32_6 C30_6 1_555 1_555
H18_6 C32_6 1_555 1_555
C33_6 C31_6 1_555 1_555
H19_6 C33_6 1_555 1_555
C34_6 C32_6 1_555 1_555
H20_6 C34_6 1_555 1_555
C35_6 C33_6 1_555 1_555
C38_6 C36_6 1_555 1_555
H22_6 C38_6 1_555 1_555
O17_6 C35_6 1_555 1_555
C6_6 C7_6 1_555 1_555
C8_6 O5_6 1_555 1_555
C20_6 C21_6 1_555 1_555
C22_6 O11_6 1_555 1_555
C26_6 C27_6 1_555 1_555
C34_6 C35_6 1_555 1_555
C36_6 O17_6 1_555 1_555
C11_6 C9_6 1_555 1_555
H7_6 C11_6 1_555 1_555
H8_6 C12_6 1_555 1_555
C13_6 C11_6 1_555 1_555
C14_6 C13_6 1_555 1_555
O23_3 C14_6 1_555 1_555
O26_2 C14_6 1_555 1_555
C12_6 C13_6 1_555 1_555
C43 H25 1_555 1_555
H26 C43 1_555 1_555
H27 C43 1_555 1_555
C44 H28 1_555 1_555
H29 C44 1_555 1_555
H30 C44 1_555 1_555
N1 C43 1_555 1_555
H31 N1 1_555 1_555
H32 N1 1_555 1_555
C44 N1 1_555 1_555
C43_2 H25_2 1_555 1_555
H27_2 C43_2 1_555 1_555
C44_2 H28_2 1_555 1_555
H29_2 C44_2 1_555 1_555
H30_2 C44_2 1_555 1_555
N1_2 C43_2 1_555 1_555
H31_2 N1_2 1_555 1_555
H32_2 N1_2 1_555 1_555
C44_2 N1_2 1_555 1_555
C43_3 H25_3 1_555 1_555
H27_3 C43_3 1_555 1_555
C44_3 H28_3 1_555 1_555
H29_3 C44_3 1_555 1_555
H30_3 C44_3 1_555 1_555
N1_3 C43_3 1_555 1_555
H31_3 N1_3 1_555 1_555
H32_3 N1_3 1_555 1_555
C44_3 N1_3 1_555 1_555
C43_4 H25_4 1_555 1_555
H26_4 C43_4 1_555 1_555
H27_4 C43_4 1_555 1_555
C44_4 H28_4 1_555 1_555
H29_4 C44_4 1_555 1_555
H30_4 C44_4 1_555 1_555
N1_4 C43_4 1_555 1_555
H31_4 N1_4 1_555 1_555
H32_4 N1_4 1_555 1_555
C44_4 N1_4 1_555 1_555
C43_5 H25_5 1_555 1_555
H26_5 C43_5 1_555 1_555
H27_5 C43_5 1_555 1_555
C44_5 H28_5 1_555 1_555
H29_5 C44_5 1_555 1_555
H30_5 C44_5 1_555 1_555
N1_5 C43_5 1_555 1_555
H31_5 N1_5 1_555 1_555
H32_5 N1_5 1_555 1_555
C44_5 N1_5 1_555 1_555
C43_6 H25_6 1_555 1_555
H26_6 C43_6 1_555 1_555
H27_6 C43_6 1_555 1_555
C44_6 H28_6 1_555 1_555
H29_6 C44_6 1_555 1_555
H30_6 C44_6 1_555 1_555
N1_6 C43_6 1_555 1_555
H31_6 N1_6 1_555 1_555
H32_6 N1_6 1_555 1_555
C44_6 N1_6 1_555 1_555
C43_7 H25_7 1_555 1_555
H26_7 C43_7 1_555 1_555
H27_7 C43_7 1_555 1_555
C44_7 H28_7 1_555 1_555
H29_7 C44_7 1_555 1_555
H30_7 C44_7 1_555 1_555
N1_7 C43_7 1_555 1_555
H31_7 N1_7 1_555 1_555
H32_7 N1_7 1_555 1_555
C44_7 N1_7 1_555 1_555
C43_8 H25_8 1_555 1_555
H26_8 C43_8 1_555 1_555
H27_8 C43_8 1_555 1_555
C44_8 H28_8 1_555 1_555
H29_8 C44_8 1_555 1_555
H30_8 C44_8 1_555 1_555
N1_8 C43_8 1_555 1_555
H31_8 N1_8 1_555 1_555
H32_8 N1_8 1_555 1_555
C44_8 N1_8 1_555 1_555
C43_9 H25_9 1_555 1_555
H26_9 C43_9 1_555 1_555
H27_9 C43_9 1_555 1_555
C44_9 H28_9 1_555 1_555
H29_9 C44_9 1_555 1_555
H30_9 C44_9 1_555 1_555
N1_9 C43_9 1_555 1_555
H31_9 N1_9 1_555 1_555
H32_9 N1_9 1_555 1_555
C44_9 N1_9 1_555 1_555
C43_10 H25_10 1_555 1_555
H26_10 C43_10 1_555 1_555
H27_10 C43_10 1_555 1_555
C44_10 H28_10 1_555 1_555
H29_10 C44_10 1_555 1_555
H30_10 C44_10 1_555 1_555
N1_10 C43_10 1_555 1_555
H31_10 N1_10 1_555 1_555
H32_10 N1_10 1_555 1_555
C44_10 N1_10 1_555 1_555
C43_11 H25_11 1_555 1_555
H27_11 C43_11 1_555 1_555
C44_11 H28_11 1_555 1_555
H29_11 C44_11 1_555 1_555
H30_11 C44_11 1_555 1_555
N1_11 C43_11 1_555 1_555
H31_11 N1_11 1_555 1_555
H32_11 N1_11 1_555 1_555
C44_11 N1_11 1_555 1_555
C43_12 H25_12 1_555 1_555
H27_12 C43_12 1_555 1_555
C44_12 H28_12 1_555 1_555
H29_12 C44_12 1_555 1_555
H30_12 C44_12 1_555 1_555
N1_12 C43_12 1_555 1_555
H31_12 N1_12 1_555 1_555
H32_12 N1_12 1_555 1_555
C44_12 N1_12 1_555 1_555
C43_13 H25_13 1_555 1_555
H26_13 C43_13 1_555 1_555
H27_13 C43_13 1_555 1_555
C44_13 H28_13 1_555 1_555
H29_13 C44_13 1_555 1_555
H30_13 C44_13 1_555 1_555
N1_13 C43_13 1_555 1_555
H31_13 N1_13 1_555 1_555
H32_13 N1_13 1_555 1_555
C44_13 N1_13 1_555 1_555
C43_14 H25_14 1_555 1_555
H26_14 C43_14 1_555 1_555
H27_14 C43_14 1_555 1_555
C44_14 H28_14 1_555 1_555
H29_14 C44_14 1_555 1_555
H30_14 C44_14 1_555 1_555
N1_14 C43_14 1_555 1_555
H31_14 N1_14 1_555 1_555
H32_14 N1_14 1_555 1_555
C44_14 N1_14 1_555 1_555
C43_15 H25_15 1_555 1_555
H26_15 C43_15 1_555 1_555
H27_15 C43_15 1_555 1_555
C44_15 H28_15 1_555 1_555
H29_15 C44_15 1_555 1_555
H30_15 C44_15 1_555 1_555
N1_15 C43_15 1_555 1_555
H31_15 N1_15 1_555 1_555
H32_15 N1_15 1_555 1_555
C44_15 N1_15 1_555 1_555
C43_16 H25_16 1_555 1_555
H26_16 C43_16 1_555 1_555
H27_16 C43_16 1_555 1_555
C44_16 H28_16 1_555 1_555
H29_16 C44_16 1_555 1_555
H30_16 C44_16 1_555 1_555
N1_16 C43_16 1_555 1_555
H31_16 N1_16 1_555 1_555
H32_16 N1_16 1_555 1_555
C44_16 N1_16 1_555 1_555
C43_17 H25_17 1_555 1_555
H26_17 C43_17 1_555 1_555
H27_17 C43_17 1_555 1_555
C44_17 H28_17 1_555 1_555
H29_17 C44_17 1_555 1_555
H30_17 C44_17 1_555 1_555
N1_17 C43_17 1_555 1_555
H31_17 N1_17 1_555 1_555
H32_17 N1_17 1_555 1_555
C44_17 N1_17 1_555 1_555
C43_18 H25_18 1_555 1_555
H26_18 C43_18 1_555 1_555
H27_18 C43_18 1_555 1_555
C44_18 H28_18 1_555 1_555
H29_18 C44_18 1_555 1_555
H30_18 C44_18 1_555 1_555
N1_18 C43_18 1_555 1_555
H31_18 N1_18 1_555 1_555
H32_18 N1_18 1_555 1_555
C44_18 N1_18 1_555 1_555

#END
