
###############################################################################
#
# This file contains modified crystal structure data generated from the
# MOF subset of the Cambridge Structural Database (CSD) v543 
# hosted by the Cambridge Crystallographic Data Centre (CCDC).
#
# This work is licensed under the Creative Commons
# Attribution-NonCommercial-ShareAlike 4.0 International License.
# To view a copy of this license, visit
# http://creativecommons.org/licenses/by-nc-sa/4.0/
# or send a letter to
# Creative Commons, PO Box 1866, Mountain View, CA 94042, USA.
#
# CIF created using the CSD Python API on 29 September 2022
# The structure has been converted into the P1 space group
# The structure has a 3D framework
# The original CSD entry DUDHAO is in the rhombohedral crystal system
# The framework has been calculated to contain at least 10.0% void space
# The void calculation uses a probe of radius 1.32A, grid spacing 0.4
# The framework is charged, counterions have been retained in the structure
#
###############################################################################

data_DUDHAO
_chemical_formula_moiety         '(C252 H144 O106 Y18 17-)n'
_symmetry_cell_setting           triclinic
_symmetry_space_group_name_H-M   'P 1'
_symmetry_Int_Tables_number      1
_space_group_name_Hall           'P 1'
loop_
_symmetry_equiv_pos_site_id
_symmetry_equiv_pos_as_xyz
1 x,y,z
_cell_length_a                   27.755(2)
_cell_length_b                   27.755(2)
_cell_length_c                   24.566(4)
_cell_angle_alpha                90
_cell_angle_beta                 90
_cell_angle_gamma                120
_cell_volume                     16388.8
loop_
_atom_site_label
_atom_site_type_symbol
_atom_site_fract_x
_atom_site_fract_y
_atom_site_fract_z
C19 C 0.4665(5) 0.0089(6) 0.2087(4)
H11 H 0.487421 0.031705 0.237353
H12 H 0.421070 0.015335 0.090375
C21 C 0.4556(5) 0.0311(6) 0.1646(3)
C22 C 0.4988(4) 0.1189(6) 0.1211(3)
C23 C 0.4845(5) 0.1582(6) 0.1069(4)
H13 H 0.457214 0.161154 0.126151
C24 C 0.5378(4) 0.1137(6) 0.0936(3)
H14 H 0.546391 0.086575 0.103658
C25 C 0.5123(4) 0.1941(6) 0.0624(4)
H15 H 0.503356 0.220998 0.052328
C26 C 0.5656(4) 0.1492(5) 0.0496(3)
H16 H 0.593015 0.146017 0.030856
C27 C 0.5521(3) 0.1893(4) 0.0342(3)
O11 O 0.4729(4) 0.0876(5) 0.1663(2)
C28 C 0.5811(3) 0.2259(5) 0.9878(3)
O9 O 0.56148(26) 0.25659(32) 0.96975(19)
O10 O 0.6231(2) 0.22561(34) 0.96876(19)
Y5 Y 0.68437(2) 0.26269(2) 0.89787(2)
Y9 Y 0.57831(3) 0.31563(2) 0.89787(2)
C1 C 0.4602(3) 0.6031(3) 0.1676(3)
C2 C 0.5020(3) 0.5834(3) 0.1664(3)
C3 C 0.5051(4) 0.5540(4) 0.2107(4)
H1 H 0.482977 0.547882 0.241188
C4 C 0.5359(3) 0.5935(4) 0.1212(3)
H2 H 0.534232 0.613749 0.091813
C5 C 0.5424(4) 0.5335(5) 0.2087(4)
H3 H 0.544284 0.512579 0.237353
C6 C 0.5720(4) 0.5732(5) 0.1207(4)
H4 H 0.594265 0.578930 0.090375
C7 C 0.5755(4) 0.5444(5) 0.1646(3)
C8 C 0.6201(4) 0.5012(4) 0.1211(3)
C9 C 0.6737(4) 0.5155(5) 0.1069(4)
H5 H 0.703940 0.542786 0.126151
C10 C 0.5759(4) 0.4622(4) 0.0936(3)
H6 H 0.540184 0.453609 0.103658
C11 C 0.6818(4) 0.4877(4) 0.0624(4)
H7 H 0.717642 0.496644 0.052328
C12 C 0.5836(3) 0.4344(4) 0.0496(3)
H8 H 0.553002 0.406985 0.030856
C13 C 0.6372(3) 0.4479(3) 0.0342(3)
O1 O 0.333333 0.666667 0.2530(3)
O2 O 0.27039(16) 0.58696(17) 0.19594(19)
O5 O 0.6147(3) 0.5271(4) 0.1663(2)
O6 O 0.42574(18) 0.58624(19) 0.20625(18)
O7 O 0.4651(2) 0.6365(2) 0.12920(19)
Y1 Y 0.35104(2) 0.59602(2) 0.23120(2)
C15 C 0.3969(3) 0.8571(4) 0.1676(3)
C16 C 0.4166(3) 0.9186(4) 0.1664(3)
C17 C 0.4460(4) 0.9511(6) 0.2107(4)
H9 H 0.452118 0.935095 0.241188
C18 C 0.4065(4) 0.9424(5) 0.1212(3)
H10 H 0.386251 0.920483 0.091813
C20 C 0.4268(5) 0.9988(6) 0.1207(4)
O8 O 0.41304(17) 0.68343(23) 0.19594(19)
O12 O 0.41376(19) 0.83950(26) 0.20625(18)
O13 O 0.3635(2) 0.8286(3) 0.12920(19)
Y2 Y 0.40398(2) 0.75502(3) 0.23120(2)
C29 C 0.1429(4) 0.5398(3) 0.1676(3)
C30 C 0.0814(4) 0.4980(3) 0.1664(3)
C31 C 0.0489(6) 0.4949(4) 0.2107(4)
H17 H 0.064905 0.517023 0.241188
C32 C 0.0576(5) 0.4641(3) 0.1212(3)
H18 H 0.079517 0.465768 0.091813
C34 C 0.0012(6) 0.4280(4) 0.1207(4)
O14 O 0.31657(23) 0.72961(16) 0.19594(19)
O18 O 0.16050(26) 0.57426(18) 0.20625(18)
O19 O 0.1714(3) 0.5349(2) 0.12920(19)
Y3 Y 0.24498(3) 0.64896(2) 0.23120(2)
O20 O 0.39628(16) 0.74637(17) 0.13739(19)
O21 O 0.25363(17) 0.64990(23) 0.13739(19)
O22 O 0.35010(23) 0.60372(16) 0.13739(19)
O23 O 0.36178(19) 0.77185(26) 0.30308(19)
O24 O 0.22815(26) 0.58992(32) 0.30308(19)
O25 O 0.41008(32) 0.63822(19) 0.30308(19)
O26 O 0.26918(28) 0.7102(2) 0.30209(19)
O27 O 0.2898(2) 0.55894(34) 0.30209(19)
O28 O 0.44106(34) 0.73082(28) 0.30209(19)
O29 O 0.2016(2) 0.6968(2) 0.20413(19)
O30 O 0.3032(2) 0.5047(3) 0.20413(19)
O31 O 0.4953(3) 0.7984(2) 0.20413(19)
Y10 Y 0.31563(2) 0.73731(2) 0.10213(2)
Y11 Y 0.26269(2) 0.57831(3) 0.10213(2)
Y12 Y 0.42169(3) 0.68437(2) 0.10213(2)
C14 C 0.6448(4) 0.4189(3) 0.9878(3)
O3 O 0.69511(19) 0.43852(26) 0.96975(19)
O4 O 0.60251(28) 0.3769(2) 0.96876(19)
Y7 Y 0.73731(2) 0.42169(3) 0.89787(2)
C42 C 0.7741(5) 0.3552(4) 0.9878(3)
O15 O 0.74341(32) 0.30489(19) 0.96975(19)
O16 O 0.77439(34) 0.39749(28) 0.96876(19)
O1_2 O -0.000000 0.000000 0.5863(3)
C15_2 C 0.0636(3) 0.1904(4) 0.5009(3)
C16_2 C 0.0833(3) 0.2519(4) 0.4997(3)
C17_2 C 0.1127(4) 0.2844(6) 0.5440(4)
H9_2 H 0.118785 0.268428 0.574521
C18_2 C 0.0732(4) 0.2757(5) 0.4545(3)
H10_2 H 0.052918 0.253816 0.425146
C19_2 C 0.1332(5) 0.3422(6) 0.5420(4)
H11_2 H 0.154088 0.365038 0.570686
C20_2 C 0.0935(5) 0.3321(6) 0.4540(4)
H12_2 H 0.087737 0.348668 0.423708
C21_2 C 0.1223(5) 0.3644(6) 0.4979(3)
C22_2 C 0.1655(4) 0.4522(6) 0.4544(3)
C23_2 C 0.1512(5) 0.4915(6) 0.4402(4)
H13_2 H 0.123881 0.494487 0.459484
C24_2 C 0.2045(4) 0.4470(6) 0.4269(3)
H14_2 H 0.213058 0.419908 0.436991
C25_2 C 0.1790(4) 0.5274(6) 0.3957(4)
H15_2 H 0.170023 0.554331 0.385661
C26_2 C 0.2323(4) 0.4825(5) 0.3829(3)
H16_2 H 0.259682 0.479350 0.364189
C27_2 C 0.2188(3) 0.5226(4) 0.3675(3)
C28_2 C 0.2478(3) 0.5592(5) 0.3211(3)
O8_2 O 0.07971(17) 0.01676(23) 0.52927(19)
O11_2 O 0.1396(4) 0.4209(5) 0.4996(2)
O12_2 O 0.08043(19) 0.17283(26) 0.53958(18)
O13_2 O 0.0302(2) 0.1619(3) 0.46253(19)
Y2_2 Y 0.07065(2) 0.08835(3) 0.56453(2)
O20_2 O 0.06294(16) 0.07971(17) 0.47073(19)
O23_2 O 0.02844(19) 0.10519(26) 0.63642(19)
O28_2 O 0.10772(34) 0.06416(28) 0.63543(19)
O31_2 O 0.1619(3) 0.1318(2) 0.53747(19)
Y12_2 Y 0.08835(3) 0.01771(2) 0.43547(2)
C1_2 C 0.1269(3) 0.9364(3) 0.5009(3)
C2_2 C 0.1687(3) 0.9167(3) 0.4997(3)
C3_2 C 0.1718(4) 0.8873(4) 0.5440(4)
H1_2 H 0.149644 0.881215 0.574521
C4_2 C 0.2026(3) 0.9268(4) 0.4545(3)
H2_2 H 0.200899 0.947082 0.425146
C5_2 C 0.2091(4) 0.8668(5) 0.5420(4)
H3_2 H 0.210951 0.845912 0.570686
C6_2 C 0.2387(4) 0.9065(5) 0.4540(4)
H4_2 H 0.260932 0.912263 0.423708
C7_2 C 0.2422(4) 0.8777(5) 0.4979(3)
C8_2 C 0.2868(4) 0.8345(4) 0.4544(3)
C9_2 C 0.3404(4) 0.8488(5) 0.4402(4)
H5_2 H 0.370607 0.876119 0.459484
C10_2 C 0.2426(4) 0.7955(4) 0.4269(3)
H6_2 H 0.206851 0.786942 0.436991
C11_2 C 0.3485(4) 0.8210(4) 0.3957(4)
H7_2 H 0.384309 0.829977 0.385661
C12_2 C 0.2503(3) 0.7677(4) 0.3829(3)
H8_2 H 0.219669 0.740318 0.364189
C13_2 C 0.3039(3) 0.7812(3) 0.3675(3)
C14_2 C 0.3115(4) 0.7522(3) 0.3211(3)
O1_3 O -0.000000 1.000000 0.5863(3)
O5_2 O 0.2814(3) 0.8604(4) 0.4996(2)
O6_2 O 0.09241(18) 0.91957(19) 0.53958(18)
O7_2 O 0.1318(2) 0.9698(2) 0.46253(19)
Y1_2 Y 0.01771(2) 0.92935(2) 0.56453(2)
O22_2 O 0.01676(23) 0.93706(16) 0.47073(19)
O25_2 O 0.07674(32) 0.97156(19) 0.63642(19)
O1_4 O 1.000000 0.000000 0.5863(3)
O14_2 O 0.98324(23) 0.06294(16) 0.52927(19)
O26_2 O 0.93584(28) 0.0436(2) 0.63543(19)
O29_2 O 0.8682(2) 0.0302(2) 0.53747(19)
Y10_2 Y 0.98229(2) 0.07065(2) 0.43547(2)
O1_5 O 1.000000 1.000000 0.5863(3)
O2_2 O 0.93706(16) 0.92029(17) 0.52927(19)
C29_2 C 0.8096(4) 0.8731(3) 0.5009(3)
C30_2 C 0.7481(4) 0.8313(3) 0.4997(3)
C31_2 C 0.7156(6) 0.8282(4) 0.5440(4)
H17_2 H 0.731572 0.850356 0.574521
C32_2 C 0.7243(5) 0.7974(3) 0.4545(3)
H18_2 H 0.746184 0.799101 0.425146
C33 C 0.6578(6) 0.7909(4) 0.5420(4)
H19 H 0.634962 0.789049 0.570686
C34_2 C 0.6679(6) 0.7613(4) 0.4540(4)
H20 H 0.651332 0.739068 0.423708
C35 C 0.6356(6) 0.7578(4) 0.4979(3)
C36 C 0.5478(6) 0.7132(4) 0.4544(3)
C37 C 0.5085(6) 0.6596(4) 0.4402(4)
H21 H 0.505513 0.629393 0.459484
C38 C 0.5530(6) 0.7574(4) 0.4269(3)
H22 H 0.580092 0.793149 0.436991
C39 C 0.4726(6) 0.6515(4) 0.3957(4)
H23 H 0.445669 0.615691 0.385661
C40 C 0.5175(5) 0.7497(3) 0.3829(3)
H24 H 0.520650 0.780331 0.364189
C41 C 0.4774(4) 0.6961(3) 0.3675(3)
C42_2 C 0.4408(5) 0.6885(4) 0.3211(3)
O17 O 0.5791(5) 0.7186(3) 0.4996(2)
O18_2 O 0.82717(26) 0.90759(18) 0.53958(18)
O19_2 O 0.8381(3) 0.8682(2) 0.46253(19)
Y3_2 Y 0.91165(3) 0.98229(2) 0.56453(2)
O21_2 O 0.92029(17) 0.98324(23) 0.47073(19)
O24_2 O 0.89481(26) 0.92326(32) 0.63642(19)
O27_2 O 0.9564(2) 0.89228(34) 0.63543(19)
O30_2 O 0.9698(2) 0.8381(3) 0.53747(19)
Y11_2 Y 0.92935(2) 0.91165(3) 0.43547(2)
C9_3 C 0.0070(4) 0.1822(5) 0.7736(4)
H5_3 H 0.037273 0.209453 0.792818
C11_3 C 0.0151(4) 0.1544(4) 0.7291(4)
H7_3 H 0.050975 0.163311 0.718995
C1_3 C 0.7935(3) 0.2698(3) 0.8343(3)
C2_3 C 0.8353(3) 0.2501(3) 0.8331(3)
C3_3 C 0.8384(4) 0.2207(4) 0.8774(4)
H1_3 H 0.816310 0.214549 0.907855
C4_3 C 0.8692(3) 0.2602(4) 0.7879(3)
H2_3 H 0.867565 0.280416 0.758480
C5_3 C 0.8757(4) 0.2002(5) 0.8754(4)
H3_3 H 0.877617 0.179246 0.904020
C6_3 C 0.9053(4) 0.2399(5) 0.7874(4)
H4_3 H 0.927598 0.245597 0.757042
C7_3 C 0.9088(4) 0.2111(5) 0.8313(3)
C8_3 C 0.9534(4) 0.1679(4) 0.7878(3)
C10_3 C 0.9092(4) 0.1289(4) 0.7603(3)
H6_3 H 0.873517 0.120276 0.770325
C12_3 C 0.9169(3) 0.1011(4) 0.7163(3)
H8_3 H 0.886335 0.073652 0.697523
C13_3 C 0.9705(3) 0.1146(3) 0.7009(3)
C14_3 C 0.9781(4) 0.0856(3) 0.6545(3)
O1_6 O 0.666666 0.333334 0.9197(3)
O2_3 O 0.60372(16) 0.25363(17) 0.86261(19)
O5_3 O 0.9480(3) 0.1938(4) 0.8330(2)
O6_3 O 0.75907(18) 0.25291(19) 0.87292(18)
O7_3 O 0.7984(2) 0.3032(2) 0.79587(19)
C15_3 C 0.7302(3) 0.5238(4) 0.8343(3)
C16_3 C 0.7499(3) 0.5853(4) 0.8331(3)
C17_3 C 0.7793(4) 0.6178(6) 0.8774(4)
H9_3 H 0.785451 0.601762 0.907855
C18_3 C 0.7398(4) 0.6091(5) 0.7879(3)
H10_3 H 0.719584 0.587150 0.758480
C19_3 C 0.7998(5) 0.6756(6) 0.8754(4)
H11_3 H 0.820754 0.698372 0.904020
C20_3 C 0.7601(5) 0.6655(6) 0.7874(4)
H12_3 H 0.754403 0.682002 0.757042
C21_3 C 0.7889(5) 0.6978(6) 0.8313(3)
C22_3 C 0.8321(4) 0.7856(6) 0.7878(3)
C23_3 C 0.8178(5) 0.8249(6) 0.7736(4)
H13_3 H 0.790547 0.827821 0.792818
C24_3 C 0.8711(4) 0.7804(6) 0.7603(3)
H14_3 H 0.879724 0.753242 0.770325
C25_3 C 0.8456(4) 0.8608(6) 0.7291(4)
H15_3 H 0.836689 0.887665 0.718995
C26_3 C 0.8989(4) 0.8159(5) 0.7163(3)
H16_3 H 0.926348 0.812684 0.697523
C27_3 C 0.8854(3) 0.8560(4) 0.7009(3)
C28_3 C 0.9144(3) 0.8926(5) 0.6545(3)
O8_3 O 0.74637(17) 0.35010(23) 0.86261(19)
O11_3 O 0.8062(4) 0.7543(5) 0.8330(2)
O12_3 O 0.74709(19) 0.50617(26) 0.87292(18)
O13_3 O 0.6968(2) 0.4953(3) 0.79587(19)
C29_3 C 0.4762(4) 0.2065(3) 0.8343(3)
C30_3 C 0.4147(4) 0.1647(3) 0.8331(3)
C31_3 C 0.3822(6) 0.1616(4) 0.8774(4)
H17_3 H 0.398238 0.183690 0.907855
C32_3 C 0.3909(5) 0.1308(3) 0.7879(3)
H18_3 H 0.412850 0.132435 0.758480
C33_2 C 0.3244(6) 0.1243(4) 0.8754(4)
H19_2 H 0.301628 0.122383 0.904020
C34_3 C 0.3345(6) 0.0947(4) 0.7874(4)
H20_2 H 0.317998 0.072402 0.757042
C35_2 C 0.3022(6) 0.0912(4) 0.8313(3)
C36_2 C 0.2144(6) 0.0466(4) 0.7878(3)
C38_2 C 0.2196(6) 0.0908(4) 0.7603(3)
H22_2 H 0.246758 0.126483 0.770325
C40_2 C 0.1841(5) 0.0831(3) 0.7163(3)
H24_2 H 0.187316 0.113665 0.697523
C41_2 C 0.1440(4) 0.0295(3) 0.7009(3)
C42_3 C 0.1074(5) 0.0219(4) 0.6545(3)
O14_3 O 0.64990(23) 0.39628(16) 0.86261(19)
O17_2 O 0.2457(5) 0.0520(3) 0.8330(2)
O18_3 O 0.49383(26) 0.24093(18) 0.87292(18)
O19_3 O 0.5047(3) 0.2016(2) 0.79587(19)
O20_3 O 0.72961(16) 0.41304(17) 0.80406(19)
O21_3 O 0.58696(17) 0.31657(23) 0.80406(19)
O22_3 O 0.68343(23) 0.27039(16) 0.80406(19)
O29_3 O 0.5349(2) 0.3635(2) 0.87080(19)
O30_3 O 0.6365(2) 0.1714(3) 0.87080(19)
O31_3 O 0.8286(3) 0.4651(2) 0.87080(19)
Y10_3 Y 0.64896(2) 0.40398(2) 0.76880(2)
Y11_3 Y 0.59602(2) 0.24498(3) 0.76880(2)
Y12_3 Y 0.75502(3) 0.35104(2) 0.76880(2)
C37_2 C 0.1751(6) 0.9930(4) 0.7736(4)
H21_2 H 0.172179 0.962727 0.792818
C39_2 C 0.1392(6) 0.9849(4) 0.7291(4)
H23_2 H 0.112335 0.949025 0.718995
C42_4 C 0.2259(5) 0.6448(4) 0.0122(3)
O15_2 O 0.25659(32) 0.69511(19) 0.03025(19)
O16_2 O 0.22561(34) 0.60251(28) 0.03124(19)
C14_4 C 0.3552(4) 0.5811(3) 0.0122(3)
O3_2 O 0.30489(19) 0.56148(26) 0.03025(19)
O4_2 O 0.39749(28) 0.6231(2) 0.03124(19)
C1_4 C 0.5398(3) 0.3969(3) 0.8324(3)
C2_4 C 0.4980(3) 0.4166(3) 0.8336(3)
C3_4 C 0.4949(4) 0.4460(4) 0.7893(4)
H1_4 H 0.517023 0.452118 0.758812
C4_4 C 0.4641(3) 0.4065(4) 0.8788(3)
H2_4 H 0.465768 0.386251 0.908187
C5_4 C 0.4576(4) 0.4665(5) 0.7913(4)
H3_4 H 0.455716 0.487421 0.762647
C6_4 C 0.4280(4) 0.4268(5) 0.8793(4)
H4_4 H 0.405735 0.421070 0.909625
C7_4 C 0.4245(4) 0.4556(5) 0.8354(3)
C8_4 C 0.3799(4) 0.4988(4) 0.8789(3)
C9_4 C 0.3263(4) 0.4845(5) 0.8931(4)
H5_4 H 0.296060 0.457214 0.873849
C10_4 C 0.4241(4) 0.5378(4) 0.9064(3)
H6_4 H 0.459816 0.546391 0.896342
C11_4 C 0.3182(4) 0.5123(4) 0.9376(4)
H7_4 H 0.282358 0.503356 0.947672
C12_4 C 0.4164(3) 0.5656(4) 0.9504(3)
H8_4 H 0.446998 0.593015 0.969144
C13_4 C 0.3628(3) 0.5521(3) 0.9658(3)
O1_7 O 0.666667 0.333333 0.7470(3)
O5_4 O 0.3853(3) 0.4729(4) 0.8337(2)
O6_4 O 0.57426(18) 0.41376(19) 0.79375(18)
C15_4 C 0.6031(3) 0.1429(4) 0.8324(3)
C16_4 C 0.5834(3) 0.0814(4) 0.8336(3)
C17_4 C 0.5540(4) 0.0489(6) 0.7893(4)
H9_4 H 0.547882 0.064905 0.758812
C18_4 C 0.5935(4) 0.0576(5) 0.8788(3)
H10_4 H 0.613749 0.079517 0.908187
C20_4 C 0.5732(5) 0.0012(6) 0.8793(4)
O12_4 O 0.58624(19) 0.16050(26) 0.79375(18)
C29_4 C 0.8571(4) 0.4602(3) 0.8324(3)
C30_4 C 0.9186(4) 0.5020(3) 0.8336(3)
C31_4 C 0.9511(6) 0.5051(4) 0.7893(4)
H17_4 H 0.935095 0.482977 0.758812
C32_4 C 0.9424(5) 0.5359(3) 0.8788(3)
H18_4 H 0.920483 0.534232 0.908187
C34_4 C 0.9988(6) 0.5720(4) 0.8793(4)
O18_4 O 0.83950(26) 0.42574(18) 0.79375(18)
O23_3 O 0.63822(19) 0.22815(26) 0.69692(19)
O24_3 O 0.77185(26) 0.41008(32) 0.69692(19)
O25_3 O 0.58992(32) 0.36178(19) 0.69692(19)
O26_3 O 0.73082(28) 0.2898(2) 0.69791(19)
O27_3 O 0.7102(2) 0.44106(34) 0.69791(19)
O28_3 O 0.55894(34) 0.26918(28) 0.69791(19)
C28_4 C 0.4189(3) 0.7741(5) 0.0122(3)
O9_2 O 0.43852(26) 0.74341(32) 0.03025(19)
O10_2 O 0.3769(2) 0.77439(34) 0.03124(19)
O1_8 O 0.000000 -0.000000 0.4137(3)
C29_5 C 0.1904(4) 0.1269(3) 0.4991(3)
C30_5 C 0.2519(4) 0.1687(3) 0.5003(3)
C31_5 C 0.2844(6) 0.1718(4) 0.4560(4)
H17_5 H 0.268428 0.149644 0.425479
C32_5 C 0.2757(5) 0.2026(3) 0.5455(3)
H18_5 H 0.253816 0.200899 0.574854
C33_3 C 0.3422(6) 0.2091(4) 0.4580(4)
H19_3 H 0.365038 0.210951 0.429314
C34_5 C 0.3321(6) 0.2387(4) 0.5460(4)
H20_3 H 0.348668 0.260932 0.576292
C35_3 C 0.3644(6) 0.2422(4) 0.5021(3)
C36_3 C 0.4522(6) 0.2868(4) 0.5456(3)
C37_3 C 0.4915(6) 0.3404(4) 0.5598(4)
H21_3 H 0.494487 0.370607 0.540516
C38_3 C 0.4470(6) 0.2426(4) 0.5731(3)
H22_3 H 0.419908 0.206851 0.563009
C39_3 C 0.5274(6) 0.3485(4) 0.6043(4)
H23_3 H 0.554331 0.384309 0.614339
C40_3 C 0.4825(5) 0.2503(3) 0.6171(3)
H24_3 H 0.479350 0.219669 0.635811
C41_3 C 0.5226(4) 0.3039(3) 0.6325(3)
C42_5 C 0.5592(5) 0.3115(4) 0.6789(3)
O17_3 O 0.4209(5) 0.2814(3) 0.5004(2)
O18_5 O 0.17283(26) 0.09241(18) 0.46042(18)
O24_4 O 0.10519(26) 0.07674(32) 0.36358(19)
O27_4 O 0.0436(2) 0.10772(34) 0.36457(19)
O1_9 O 0.000000 1.000000 0.4137(3)
O26_4 O 0.06416(28) 0.9564(2) 0.36457(19)
C1_5 C 0.8731(3) 0.0636(3) 0.4991(3)
C2_5 C 0.8313(3) 0.0833(3) 0.5003(3)
C3_5 C 0.8282(4) 0.1127(4) 0.4560(4)
H1_5 H 0.850356 0.118785 0.425479
C4_5 C 0.7974(3) 0.0732(4) 0.5455(3)
H2_5 H 0.799101 0.052918 0.574854
C5_5 C 0.7909(4) 0.1332(5) 0.4580(4)
H3_5 H 0.789049 0.154088 0.429314
C6_5 C 0.7613(4) 0.0935(5) 0.5460(4)
H4_5 H 0.739068 0.087737 0.576292
C7_5 C 0.7578(4) 0.1223(5) 0.5021(3)
C8_5 C 0.7132(4) 0.1655(4) 0.5456(3)
C9_5 C 0.6596(4) 0.1512(5) 0.5598(4)
H5_5 H 0.629393 0.123881 0.540516
C10_5 C 0.7574(4) 0.2045(4) 0.5731(3)
H6_5 H 0.793149 0.213058 0.563009
C11_5 C 0.6515(4) 0.1790(4) 0.6043(4)
H7_5 H 0.615691 0.170023 0.614339
C12_5 C 0.7497(3) 0.2323(4) 0.6171(3)
H8_5 H 0.780331 0.259682 0.635811
C13_5 C 0.6961(3) 0.2188(3) 0.6325(3)
C14_5 C 0.6885(4) 0.2478(3) 0.6789(3)
O1_10 O 1.000000 -0.000000 0.4137(3)
O5_5 O 0.7186(3) 0.1396(4) 0.5004(2)
O6_5 O 0.90759(18) 0.08043(19) 0.46042(18)
O25_4 O 0.92326(32) 0.02844(19) 0.36358(19)
O1_11 O 1.000000 1.000000 0.4137(3)
C15_5 C 0.9364(3) 0.8096(4) 0.4991(3)
C16_5 C 0.9167(3) 0.7481(4) 0.5003(3)
C17_5 C 0.8873(4) 0.7156(6) 0.4560(4)
H9_5 H 0.881215 0.731572 0.425479
C18_5 C 0.9268(4) 0.7243(5) 0.5455(3)
H10_5 H 0.947082 0.746184 0.574854
C19_4 C 0.8668(5) 0.6578(6) 0.4580(4)
H11_4 H 0.845912 0.634962 0.429314
C20_5 C 0.9065(5) 0.6679(6) 0.5460(4)
H12_4 H 0.912263 0.651332 0.576292
C21_4 C 0.8777(5) 0.6356(6) 0.5021(3)
C22_4 C 0.8345(4) 0.5478(6) 0.5456(3)
C23_4 C 0.8488(5) 0.5085(6) 0.5598(4)
H13_4 H 0.876119 0.505513 0.540516
C24_4 C 0.7955(4) 0.5530(6) 0.5731(3)
H14_4 H 0.786942 0.580092 0.563009
C25_4 C 0.8210(4) 0.4726(6) 0.6043(4)
H15_4 H 0.829977 0.445669 0.614339
C26_4 C 0.7677(4) 0.5175(5) 0.6171(3)
H16_4 H 0.740318 0.520650 0.635811
C27_4 C 0.7812(3) 0.4774(4) 0.6325(3)
C28_5 C 0.7522(3) 0.4408(5) 0.6789(3)
O11_4 O 0.8604(4) 0.5791(5) 0.5004(2)
O12_5 O 0.91957(19) 0.82717(26) 0.46042(18)
O23_4 O 0.97156(19) 0.89481(26) 0.36358(19)
O28_4 O 0.89228(34) 0.93584(28) 0.36457(19)
C37_4 C 0.8249(6) 0.0070(4) 0.2264(4)
H21_4 H 0.827821 0.037273 0.207182
C39_4 C 0.8608(6) 0.0151(4) 0.2709(4)
H23_4 H 0.887665 0.050975 0.281005
C1_6 C 0.2065(3) 0.7302(3) 0.1657(3)
C2_6 C 0.1647(3) 0.7499(3) 0.1669(3)
C3_6 C 0.1616(4) 0.7793(4) 0.1226(4)
H1_6 H 0.183690 0.785451 0.092145
C4_6 C 0.1308(3) 0.7398(4) 0.2121(3)
H2_6 H 0.132435 0.719584 0.241520
C5_6 C 0.1243(4) 0.7998(5) 0.1246(4)
H3_6 H 0.122383 0.820754 0.095980
C6_6 C 0.0947(4) 0.7601(5) 0.2126(4)
H4_6 H 0.072402 0.754403 0.242958
C7_6 C 0.0912(4) 0.7889(5) 0.1687(3)
C8_6 C 0.0466(4) 0.8321(4) 0.2122(3)
C10_6 C 0.0908(4) 0.8711(4) 0.2397(3)
H6_6 H 0.126483 0.879724 0.229675
C12_6 C 0.0831(3) 0.8989(4) 0.2837(3)
H8_6 H 0.113665 0.926348 0.302477
C13_6 C 0.0295(3) 0.8854(3) 0.2991(3)
C14_6 C 0.0219(4) 0.9144(3) 0.3455(3)
O1_12 O 0.333334 0.666666 0.0803(3)
O5_6 O 0.0520(3) 0.8062(4) 0.1670(2)
O6_6 O 0.24093(18) 0.74709(19) 0.12708(18)
C15_6 C 0.2698(3) 0.4762(4) 0.1657(3)
C16_6 C 0.2501(3) 0.4147(4) 0.1669(3)
C17_6 C 0.2207(4) 0.3822(6) 0.1226(4)
H9_6 H 0.214549 0.398238 0.092145
C18_6 C 0.2602(4) 0.3909(5) 0.2121(3)
H10_6 H 0.280416 0.412850 0.241520
C19_5 C 0.2002(5) 0.3244(6) 0.1246(4)
H11_5 H 0.179246 0.301628 0.095980
C20_6 C 0.2399(5) 0.3345(6) 0.2126(4)
H12_5 H 0.245597 0.317998 0.242958
C21_5 C 0.2111(5) 0.3022(6) 0.1687(3)
C22_5 C 0.1679(4) 0.2144(6) 0.2122(3)
C23_5 C 0.1822(5) 0.1751(6) 0.2264(4)
H13_5 H 0.209453 0.172179 0.207182
C24_5 C 0.1289(4) 0.2196(6) 0.2397(3)
H14_5 H 0.120276 0.246758 0.229675
C25_5 C 0.1544(4) 0.1392(6) 0.2709(4)
H15_5 H 0.163311 0.112335 0.281005
C26_5 C 0.1011(4) 0.1841(5) 0.2837(3)
H16_5 H 0.073652 0.187316 0.302477
C27_5 C 0.1146(3) 0.1440(4) 0.2991(3)
C28_6 C 0.0856(3) 0.1074(5) 0.3455(3)
O11_5 O 0.1938(4) 0.2457(5) 0.1670(2)
O12_6 O 0.25291(19) 0.49383(26) 0.12708(18)
C29_6 C 0.5238(4) 0.7935(3) 0.1657(3)
C30_6 C 0.5853(4) 0.8353(3) 0.1669(3)
C31_6 C 0.6178(6) 0.8384(4) 0.1226(4)
H17_6 H 0.601762 0.816310 0.092145
C32_6 C 0.6091(5) 0.8692(3) 0.2121(3)
H18_6 H 0.587150 0.867565 0.241520
C33_4 C 0.6756(6) 0.8757(4) 0.1246(4)
H19_4 H 0.698372 0.877617 0.095980
C34_6 C 0.6655(6) 0.9053(4) 0.2126(4)
H20_4 H 0.682002 0.927598 0.242958
C35_4 C 0.6978(6) 0.9088(4) 0.1687(3)
C36_4 C 0.7856(6) 0.9534(4) 0.2122(3)
C38_4 C 0.7804(6) 0.9092(4) 0.2397(3)
H22_4 H 0.753242 0.873517 0.229675
C40_4 C 0.8159(5) 0.9169(3) 0.2837(3)
H24_4 H 0.812684 0.886335 0.302477
C41_4 C 0.8560(4) 0.9705(3) 0.2991(3)
C42_6 C 0.8926(5) 0.9781(4) 0.3455(3)
O17_4 O 0.7543(5) 0.9480(3) 0.1670(2)
O18_6 O 0.50617(26) 0.75907(18) 0.12708(18)
C9_6 C 0.9930(4) 0.8178(5) 0.2264(4)
H5_6 H 0.962727 0.790547 0.207182
C11_6 C 0.9849(4) 0.8456(4) 0.2709(4)
H7_6 H 0.949025 0.836689 0.281005
C33_5 C 0.9911(6) 0.4576(4) 0.2087(4)
H19_5 H 0.968295 0.455716 0.237353
H20_5 H 0.984665 0.405735 0.090375
C35_5 C 0.9689(6) 0.4245(4) 0.1646(3)
C36_5 C 0.8811(6) 0.3799(4) 0.1211(3)
C37_5 C 0.8418(6) 0.3263(4) 0.1069(4)
H21_5 H 0.838846 0.296060 0.126151
C38_5 C 0.8863(6) 0.4241(4) 0.0936(3)
H22_5 H 0.913425 0.459816 0.103658
C39_5 C 0.8059(6) 0.3182(4) 0.0624(4)
H23_5 H 0.779002 0.282358 0.052328
C40_5 C 0.8508(5) 0.4164(3) 0.0496(3)
H24_5 H 0.853983 0.446998 0.030856
C41_5 C 0.8107(4) 0.3628(3) 0.0342(3)
O17_5 O 0.9124(5) 0.3853(3) 0.1663(2)
C33_6 C 0.0089(6) 0.5424(4) 0.7913(4)
H19_6 H 0.031705 0.544284 0.762647
H20_6 H 0.015335 0.594265 0.909625
C35_6 C 0.0311(6) 0.5755(4) 0.8354(3)
C36_6 C 0.1189(6) 0.6201(4) 0.8789(3)
C37_6 C 0.1582(6) 0.6737(4) 0.8931(4)
H21_6 H 0.161154 0.703940 0.873849
C38_6 C 0.1137(6) 0.5759(4) 0.9064(3)
H22_6 H 0.086575 0.540184 0.896342
C39_6 C 0.1941(6) 0.6818(4) 0.9376(4)
H23_6 H 0.220998 0.717642 0.947672
C40_6 C 0.1492(5) 0.5836(3) 0.9504(3)
H24_6 H 0.146017 0.553002 0.969144
C41_6 C 0.1893(4) 0.6372(3) 0.9658(3)
O17_6 O 0.0876(5) 0.6147(3) 0.8337(2)
C19_6 C 0.5335(5) 0.9911(6) 0.7913(4)
H11_6 H 0.512579 0.968295 0.762647
H12_6 H 0.578930 0.984665 0.909625
C21_6 C 0.5444(5) 0.9689(6) 0.8354(3)
C22_6 C 0.5012(4) 0.8811(6) 0.8789(3)
C23_6 C 0.5155(5) 0.8418(6) 0.8931(4)
H13_6 H 0.542786 0.838846 0.873849
C24_6 C 0.4622(4) 0.8863(6) 0.9064(3)
H14_6 H 0.453609 0.913425 0.896342
C25_6 C 0.4877(4) 0.8059(6) 0.9376(4)
H15_6 H 0.496644 0.779002 0.947672
C26_6 C 0.4344(4) 0.8508(5) 0.9504(3)
H16_6 H 0.406985 0.853983 0.969144
C27_6 C 0.4479(3) 0.8107(4) 0.9658(3)
O11_6 O 0.5271(4) 0.9124(5) 0.8337(2)
loop_
_geom_bond_atom_site_label_1
_geom_bond_atom_site_label_2
_geom_bond_site_symmetry_1
_geom_bond_site_symmetry_2
H11 C19 1_555 1_555
C21 C19 1_555 1_555
C22 C23 1_555 1_555
C23 H13 1_555 1_555
C24 C22 1_555 1_555
H14 C24 1_555 1_555
C25 C23 1_555 1_555
H15 C25 1_555 1_555
C26 C24 1_555 1_555
H16 C26 1_555 1_555
C27 C25 1_555 1_555
O11 C21 1_555 1_555
C22 O11 1_555 1_555
C26 C27 1_555 1_555
O9 C28 1_555 1_555
O10 C28 1_555 1_555
Y5 O10 1_555 1_555
Y9 O9 1_555 1_555
C1 C2 1_555 1_555
C2 C3 1_555 1_555
C3 H1 1_555 1_555
C4 C2 1_555 1_555
H2 C4 1_555 1_555
C5 C3 1_555 1_555
H3 C5 1_555 1_555
C6 C4 1_555 1_555
H4 C6 1_555 1_555
C7 C5 1_555 1_555
C8 C9 1_555 1_555
C9 H5 1_555 1_555
C10 C8 1_555 1_555
H6 C10 1_555 1_555
C11 C9 1_555 1_555
H7 C11 1_555 1_555
C12 C10 1_555 1_555
H8 C12 1_555 1_555
C13 C11 1_555 1_555
O1 Y1 1_555 1_555
O2 Y1 1_555 1_555
O5 C7 1_555 1_555
O6 C1 1_555 1_555
O7 C1 1_555 1_555
Y1 O6 1_555 1_555
C15 C16 1_555 1_555
C16 C17 1_555 1_555
C17 H9 1_555 1_555
C18 C16 1_555 1_555
H10 C18 1_555 1_555
C20 C18 1_555 1_555
O8 Y1 1_555 1_555
O12 C15 1_555 1_555
O13 C15 1_555 1_555
Y2 O1 1_555 1_555
C29 C30 1_555 1_555
C30 C31 1_555 1_555
C31 H17 1_555 1_555
C32 C30 1_555 1_555
H18 C32 1_555 1_555
C34 C32 1_555 1_555
O14 Y2 1_555 1_555
O18 C29 1_555 1_555
O19 C29 1_555 1_555
Y3 O1 1_555 1_555
O20 Y2 1_555 1_555
O21 Y3 1_555 1_555
O22 Y1 1_555 1_555
O23 Y2 1_555 1_555
O24 Y3 1_555 1_555
O25 Y1 1_555 1_555
O26 Y3 1_555 1_555
O27 Y1 1_555 1_555
O28 Y2 1_555 1_555
O29 Y3 1_555 1_555
O30 Y1 1_555 1_555
O31 Y2 1_555 1_555
Y10 O13 1_555 1_555
Y11 O2 1_555 1_555
Y12 O7 1_555 1_555
C6 C7 1_555 1_555
C8 O5 1_555 1_555
C12 C13 1_555 1_555
O2 Y3 1_555 1_555
O8 Y2 1_555 1_555
O8 Y12 1_555 1_555
O12 Y2 1_555 1_555
O14 Y3 1_555 1_555
O14 Y10 1_555 1_555
O18 Y3 1_555 1_555
O19 Y11 1_555 1_555
O20 Y10 1_555 1_555
O20 Y12 1_555 1_555
O21 Y10 1_555 1_555
O21 Y11 1_555 1_555
O22 Y11 1_555 1_555
O22 Y12 1_555 1_555
O3 C14 1_555 1_555
O4 C14 1_555 1_555
Y7 O3 1_555 1_555
Y9 O4 1_555 1_555
O15 C42 1_555 1_555
O16 C42 1_555 1_555
Y5 O15 1_555 1_555
Y7 O16 1_555 1_555
C15_2 C16_2 1_555 1_555
C16_2 C17_2 1_555 1_555
C17_2 H9_2 1_555 1_555
C18_2 C16_2 1_555 1_555
H10_2 C18_2 1_555 1_555
C19_2 C17_2 1_555 1_555
H11_2 C19_2 1_555 1_555
C20_2 C18_2 1_555 1_555
H12_2 C20_2 1_555 1_555
C21_2 C19_2 1_555 1_555
C22_2 C23_2 1_555 1_555
C23_2 H13_2 1_555 1_555
C24_2 C22_2 1_555 1_555
H14_2 C24_2 1_555 1_555
C25_2 C23_2 1_555 1_555
H15_2 C25_2 1_555 1_555
C26_2 C24_2 1_555 1_555
H16_2 C26_2 1_555 1_555
C27_2 C25_2 1_555 1_555
C28_2 C27_2 1_555 1_555
O24 C28_2 1_555 1_555
O27 C28_2 1_555 1_555
O11_2 C21_2 1_555 1_555
O12_2 C15_2 1_555 1_555
O13_2 C15_2 1_555 1_555
Y2_2 O1_2 1_555 1_555
O20_2 Y2_2 1_555 1_555
O23_2 Y2_2 1_555 1_555
O28_2 Y2_2 1_555 1_555
O31_2 Y2_2 1_555 1_555
C20_2 C21_2 1_555 1_555
C22_2 O11_2 1_555 1_555
C26_2 C27_2 1_555 1_555
O8_2 Y2_2 1_555 1_555
O8_2 Y12_2 1_555 1_555
O12_2 Y2_2 1_555 1_555
O20_2 Y12_2 1_555 1_555
C1_2 C2_2 1_555 1_555
C2_2 C3_2 1_555 1_555
C3_2 H1_2 1_555 1_555
C4_2 C2_2 1_555 1_555
H2_2 C4_2 1_555 1_555
C5_2 C3_2 1_555 1_555
H3_2 C5_2 1_555 1_555
C6_2 C4_2 1_555 1_555
H4_2 C6_2 1_555 1_555
C7_2 C5_2 1_555 1_555
C8_2 C9_2 1_555 1_555
C9_2 H5_2 1_555 1_555
C10_2 C8_2 1_555 1_555
H6_2 C10_2 1_555 1_555
C11_2 C9_2 1_555 1_555
H7_2 C11_2 1_555 1_555
C12_2 C10_2 1_555 1_555
H8_2 C12_2 1_555 1_555
C13_2 C11_2 1_555 1_555
C14_2 C13_2 1_555 1_555
O1_3 Y1_2 1_555 1_555
O23 C14_2 1_555 1_555
O26 C14_2 1_555 1_555
O5_2 C7_2 1_555 1_555
O6_2 C1_2 1_555 1_555
O7_2 C1_2 1_555 1_555
Y1_2 O6_2 1_555 1_555
O22_2 Y1_2 1_555 1_555
O25_2 Y1_2 1_555 1_555
C6_2 C7_2 1_555 1_555
C8_2 O5_2 1_555 1_555
C12_2 C13_2 1_555 1_555
O14_2 Y10_2 1_555 1_555
C29_2 C30_2 1_555 1_555
C30_2 C31_2 1_555 1_555
C31_2 H17_2 1_555 1_555
C32_2 C30_2 1_555 1_555
H18_2 C32_2 1_555 1_555
C33 C31_2 1_555 1_555
H19 C33 1_555 1_555
C34_2 C32_2 1_555 1_555
H20 C34_2 1_555 1_555
C35 C33 1_555 1_555
C36 C37 1_555 1_555
C37 H21 1_555 1_555
C38 C36 1_555 1_555
H22 C38 1_555 1_555
C39 C37 1_555 1_555
H23 C39 1_555 1_555
C40 C38 1_555 1_555
H24 C40 1_555 1_555
C41 C39 1_555 1_555
C42_2 C41 1_555 1_555
O25 C42_2 1_555 1_555
O28 C42_2 1_555 1_555
O17 C35 1_555 1_555
O18_2 C29_2 1_555 1_555
O19_2 C29_2 1_555 1_555
Y3_2 O1_5 1_555 1_555
O21_2 Y3_2 1_555 1_555
O24_2 Y3_2 1_555 1_555
Y11_2 O2_2 1_555 1_555
O2_2 Y3_2 1_555 1_555
C34_2 C35 1_555 1_555
C36 O17 1_555 1_555
C40 C41 1_555 1_555
O18_2 Y3_2 1_555 1_555
O19_2 Y11_2 1_555 1_555
O21_2 Y11_2 1_555 1_555
C9_3 H5_3 1_555 1_555
C11_3 C9_3 1_555 1_555
H7_3 C11_3 1_555 1_555
C1_3 C2_3 1_555 1_555
C2_3 C3_3 1_555 1_555
C3_3 H1_3 1_555 1_555
C4_3 C2_3 1_555 1_555
H2_3 C4_3 1_555 1_555
C5_3 C3_3 1_555 1_555
H3_3 C5_3 1_555 1_555
C6_3 C4_3 1_555 1_555
H4_3 C6_3 1_555 1_555
C7_3 C5_3 1_555 1_555
C10_3 C8_3 1_555 1_555
H6_3 C10_3 1_555 1_555
C12_3 C10_3 1_555 1_555
H8_3 C12_3 1_555 1_555
C14_3 C13_3 1_555 1_555
O1_6 Y5 1_555 1_555
O2_3 Y5 1_555 1_555
O26_2 C14_3 1_555 1_555
O5_3 C7_3 1_555 1_555
O6_3 C1_3 1_555 1_555
O7_3 C1_3 1_555 1_555
Y5 O6_3 1_555 1_555
C15_3 C16_3 1_555 1_555
C16_3 C17_3 1_555 1_555
C17_3 H9_3 1_555 1_555
C18_3 C16_3 1_555 1_555
H10_3 C18_3 1_555 1_555
C19_3 C17_3 1_555 1_555
H11_3 C19_3 1_555 1_555
C20_3 C18_3 1_555 1_555
H12_3 C20_3 1_555 1_555
C21_3 C19_3 1_555 1_555
C22_3 C23_3 1_555 1_555
C23_3 H13_3 1_555 1_555
C24_3 C22_3 1_555 1_555
H14_3 C24_3 1_555 1_555
C25_3 C23_3 1_555 1_555
H15_3 C25_3 1_555 1_555
C26_3 C24_3 1_555 1_555
H16_3 C26_3 1_555 1_555
C27_3 C25_3 1_555 1_555
C28_3 C27_3 1_555 1_555
O8_3 Y5 1_555 1_555
O24_2 C28_3 1_555 1_555
O27_2 C28_3 1_555 1_555
O11_3 C21_3 1_555 1_555
O12_3 C15_3 1_555 1_555
O13_3 C15_3 1_555 1_555
Y7 O1_6 1_555 1_555
C29_3 C30_3 1_555 1_555
C30_3 C31_3 1_555 1_555
C31_3 H17_3 1_555 1_555
C32_3 C30_3 1_555 1_555
H18_3 C32_3 1_555 1_555
C33_2 C31_3 1_555 1_555
H19_2 C33_2 1_555 1_555
C34_3 C32_3 1_555 1_555
H20_2 C34_3 1_555 1_555
C35_2 C33_2 1_555 1_555
C38_2 C36_2 1_555 1_555
H22_2 C38_2 1_555 1_555
C40_2 C38_2 1_555 1_555
H24_2 C40_2 1_555 1_555
C42_3 C41_2 1_555 1_555
O14_3 Y7 1_555 1_555
O28_2 C42_3 1_555 1_555
O17_2 C35_2 1_555 1_555
O18_3 C29_3 1_555 1_555
O19_3 C29_3 1_555 1_555
Y9 O1_6 1_555 1_555
O20_3 Y7 1_555 1_555
O21_3 Y9 1_555 1_555
O22_3 Y5 1_555 1_555
O29_3 Y9 1_555 1_555
O30_3 Y5 1_555 1_555
O31_3 Y7 1_555 1_555
Y10_3 O13_3 1_555 1_555
Y11_3 O2_3 1_555 1_555
Y12_3 O7_3 1_555 1_555
C6_3 C7_3 1_555 1_555
C8_3 O5_3 1_555 1_555
C12_3 C13_3 1_555 1_555
O2_3 Y9 1_555 1_555
C20_3 C21_3 1_555 1_555
C22_3 O11_3 1_555 1_555
C26_3 C27_3 1_555 1_555
O8_3 Y7 1_555 1_555
O8_3 Y12_3 1_555 1_555
O12_3 Y7 1_555 1_555
C34_3 C35_2 1_555 1_555
C36_2 O17_2 1_555 1_555
C40_2 C41_2 1_555 1_555
O14_3 Y9 1_555 1_555
O14_3 Y10_3 1_555 1_555
O18_3 Y9 1_555 1_555
O19_3 Y11_3 1_555 1_555
O20_3 Y10_3 1_555 1_555
O20_3 Y12_3 1_555 1_555
O21_3 Y10_3 1_555 1_555
O21_3 Y11_3 1_555 1_555
O22_3 Y11_3 1_555 1_555
O22_3 Y12_3 1_555 1_555
C37_2 H21_2 1_555 1_555
C39_2 C37_2 1_555 1_555
H23_2 C39_2 1_555 1_555
O15_2 C42_4 1_555 1_555
O16_2 C42_4 1_555 1_555
Y10 O15_2 1_555 1_555
Y11 O16_2 1_555 1_555
O3_2 C14_4 1_555 1_555
O4_2 C14_4 1_555 1_555
Y11 O3_2 1_555 1_555
Y12 O4_2 1_555 1_555
C1_4 C2_4 1_555 1_555
C2_4 C3_4 1_555 1_555
C3_4 H1_4 1_555 1_555
C4_4 C2_4 1_555 1_555
H2_4 C4_4 1_555 1_555
C5_4 C3_4 1_555 1_555
H3_4 C5_4 1_555 1_555
C6_4 C4_4 1_555 1_555
H4_4 C6_4 1_555 1_555
C7_4 C5_4 1_555 1_555
C8_4 C9_4 1_555 1_555
C9_4 H5_4 1_555 1_555
C10_4 C8_4 1_555 1_555
H6_4 C10_4 1_555 1_555
C11_4 C9_4 1_555 1_555
H7_4 C11_4 1_555 1_555
C12_4 C10_4 1_555 1_555
H8_4 C12_4 1_555 1_555
C13_4 C11_4 1_555 1_555
O1_7 Y10_3 1_555 1_555
O5_4 C7_4 1_555 1_555
O6_4 C1_4 1_555 1_555
O29_3 C1_4 1_555 1_555
Y10_3 O6_4 1_555 1_555
C15_4 C16_4 1_555 1_555
C16_4 C17_4 1_555 1_555
C17_4 H9_4 1_555 1_555
C18_4 C16_4 1_555 1_555
H10_4 C18_4 1_555 1_555
C20_4 C18_4 1_555 1_555
O12_4 C15_4 1_555 1_555
O30_3 C15_4 1_555 1_555
Y11_3 O1_7 1_555 1_555
C29_4 C30_4 1_555 1_555
C30_4 C31_4 1_555 1_555
C31_4 H17_4 1_555 1_555
C32_4 C30_4 1_555 1_555
H18_4 C32_4 1_555 1_555
C34_4 C32_4 1_555 1_555
O18_4 C29_4 1_555 1_555
O31_3 C29_4 1_555 1_555
Y12_3 O1_7 1_555 1_555
O23_3 Y11_3 1_555 1_555
O24_3 Y12_3 1_555 1_555
O25_3 Y10_3 1_555 1_555
O26_3 Y12_3 1_555 1_555
O27_3 Y10_3 1_555 1_555
O28_3 Y11_3 1_555 1_555
C6_4 C7_4 1_555 1_555
C8_4 O5_4 1_555 1_555
C12_4 C13_4 1_555 1_555
O12_4 Y11_3 1_555 1_555
O18_4 Y12_3 1_555 1_555
O9_2 C28_4 1_555 1_555
O10_2 C28_4 1_555 1_555
Y10 O10_2 1_555 1_555
Y12 O9_2 1_555 1_555
C29_5 C30_5 1_555 1_555
C30_5 C31_5 1_555 1_555
C31_5 H17_5 1_555 1_555
C32_5 C30_5 1_555 1_555
H18_5 C32_5 1_555 1_555
C33_3 C31_5 1_555 1_555
H19_3 C33_3 1_555 1_555
C34_5 C32_5 1_555 1_555
H20_3 C34_5 1_555 1_555
C35_3 C33_3 1_555 1_555
C36_3 C37_3 1_555 1_555
C37_3 H21_3 1_555 1_555
C38_3 C36_3 1_555 1_555
H22_3 C38_3 1_555 1_555
C39_3 C37_3 1_555 1_555
H23_3 C39_3 1_555 1_555
C40_3 C38_3 1_555 1_555
H24_3 C40_3 1_555 1_555
C41_3 C39_3 1_555 1_555
C42_5 C41_3 1_555 1_555
O25_3 C42_5 1_555 1_555
O28_3 C42_5 1_555 1_555
O17_3 C35_3 1_555 1_555
O18_5 C29_5 1_555 1_555
O31_2 C29_5 1_555 1_555
Y12_2 O1_8 1_555 1_555
O24_4 Y12_2 1_555 1_555
C34_5 C35_3 1_555 1_555
C36_3 O17_3 1_555 1_555
C40_3 C41_3 1_555 1_555
O18_5 Y12_2 1_555 1_555
C1_5 C2_5 1_555 1_555
C2_5 C3_5 1_555 1_555
C3_5 H1_5 1_555 1_555
C4_5 C2_5 1_555 1_555
H2_5 C4_5 1_555 1_555
C5_5 C3_5 1_555 1_555
H3_5 C5_5 1_555 1_555
C6_5 C4_5 1_555 1_555
H4_5 C6_5 1_555 1_555
C7_5 C5_5 1_555 1_555
C8_5 C9_5 1_555 1_555
C9_5 H5_5 1_555 1_555
C10_5 C8_5 1_555 1_555
H6_5 C10_5 1_555 1_555
C11_5 C9_5 1_555 1_555
H7_5 C11_5 1_555 1_555
C12_5 C10_5 1_555 1_555
H8_5 C12_5 1_555 1_555
C13_5 C11_5 1_555 1_555
C14_5 C13_5 1_555 1_555
O1_10 Y10_2 1_555 1_555
O23_3 C14_5 1_555 1_555
O26_3 C14_5 1_555 1_555
O5_5 C7_5 1_555 1_555
O6_5 C1_5 1_555 1_555
O29_2 C1_5 1_555 1_555
Y10_2 O6_5 1_555 1_555
O25_4 Y10_2 1_555 1_555
C6_5 C7_5 1_555 1_555
C8_5 O5_5 1_555 1_555
C12_5 C13_5 1_555 1_555
C15_5 C16_5 1_555 1_555
C16_5 C17_5 1_555 1_555
C17_5 H9_5 1_555 1_555
C18_5 C16_5 1_555 1_555
H10_5 C18_5 1_555 1_555
C19_4 C17_5 1_555 1_555
H11_4 C19_4 1_555 1_555
C20_5 C18_5 1_555 1_555
H12_4 C20_5 1_555 1_555
C21_4 C19_4 1_555 1_555
C22_4 C23_4 1_555 1_555
C23_4 H13_4 1_555 1_555
C24_4 C22_4 1_555 1_555
H14_4 C24_4 1_555 1_555
C25_4 C23_4 1_555 1_555
H15_4 C25_4 1_555 1_555
C26_4 C24_4 1_555 1_555
H16_4 C26_4 1_555 1_555
C27_4 C25_4 1_555 1_555
C28_5 C27_4 1_555 1_555
O24_3 C28_5 1_555 1_555
O27_3 C28_5 1_555 1_555
O11_4 C21_4 1_555 1_555
O12_5 C15_5 1_555 1_555
O30_2 C15_5 1_555 1_555
Y11_2 O1_11 1_555 1_555
O23_4 Y11_2 1_555 1_555
O28_4 Y11_2 1_555 1_555
C20_5 C21_4 1_555 1_555
C22_4 O11_4 1_555 1_555
C26_4 C27_4 1_555 1_555
O12_5 Y11_2 1_555 1_555
C37_4 H21_4 1_555 1_555
C39_4 C37_4 1_555 1_555
H23_4 C39_4 1_555 1_555
C1_6 C2_6 1_555 1_555
C2_6 C3_6 1_555 1_555
C3_6 H1_6 1_555 1_555
C4_6 C2_6 1_555 1_555
H2_6 C4_6 1_555 1_555
C5_6 C3_6 1_555 1_555
H3_6 C5_6 1_555 1_555
C6_6 C4_6 1_555 1_555
H4_6 C6_6 1_555 1_555
C7_6 C5_6 1_555 1_555
C10_6 C8_6 1_555 1_555
H6_6 C10_6 1_555 1_555
C12_6 C10_6 1_555 1_555
H8_6 C12_6 1_555 1_555
C14_6 C13_6 1_555 1_555
O1_12 Y10 1_555 1_555
O26_4 C14_6 1_555 1_555
O5_6 C7_6 1_555 1_555
O6_6 C1_6 1_555 1_555
O29 C1_6 1_555 1_555
Y10 O6_6 1_555 1_555
C15_6 C16_6 1_555 1_555
C16_6 C17_6 1_555 1_555
C17_6 H9_6 1_555 1_555
C18_6 C16_6 1_555 1_555
H10_6 C18_6 1_555 1_555
C19_5 C17_6 1_555 1_555
H11_5 C19_5 1_555 1_555
C20_6 C18_6 1_555 1_555
H12_5 C20_6 1_555 1_555
C21_5 C19_5 1_555 1_555
C22_5 C23_5 1_555 1_555
C23_5 H13_5 1_555 1_555
C24_5 C22_5 1_555 1_555
H14_5 C24_5 1_555 1_555
C25_5 C23_5 1_555 1_555
H15_5 C25_5 1_555 1_555
C26_5 C24_5 1_555 1_555
H16_5 C26_5 1_555 1_555
C27_5 C25_5 1_555 1_555
C28_6 C27_5 1_555 1_555
O24_4 C28_6 1_555 1_555
O27_4 C28_6 1_555 1_555
O11_5 C21_5 1_555 1_555
O12_6 C15_6 1_555 1_555
O30 C15_6 1_555 1_555
Y11 O1_12 1_555 1_555
C29_6 C30_6 1_555 1_555
C30_6 C31_6 1_555 1_555
C31_6 H17_6 1_555 1_555
C32_6 C30_6 1_555 1_555
H18_6 C32_6 1_555 1_555
C33_4 C31_6 1_555 1_555
H19_4 C33_4 1_555 1_555
C34_6 C32_6 1_555 1_555
H20_4 C34_6 1_555 1_555
C35_4 C33_4 1_555 1_555
C38_4 C36_4 1_555 1_555
H22_4 C38_4 1_555 1_555
C40_4 C38_4 1_555 1_555
H24_4 C40_4 1_555 1_555
C42_6 C41_4 1_555 1_555
O28_4 C42_6 1_555 1_555
O17_4 C35_4 1_555 1_555
O18_6 C29_6 1_555 1_555
O31 C29_6 1_555 1_555
Y12 O1_12 1_555 1_555
C6_6 C7_6 1_555 1_555
C8_6 O5_6 1_555 1_555
C12_6 C13_6 1_555 1_555
C20_6 C21_5 1_555 1_555
C22_5 O11_5 1_555 1_555
C26_5 C27_5 1_555 1_555
O12_6 Y11 1_555 1_555
C34_6 C35_4 1_555 1_555
C36_4 O17_4 1_555 1_555
C40_4 C41_4 1_555 1_555
O18_6 Y12 1_555 1_555
C9_6 H5_6 1_555 1_555
C11_6 C9_6 1_555 1_555
H7_6 C11_6 1_555 1_555
H19_5 C33_5 1_555 1_555
C35_5 C33_5 1_555 1_555
C36_5 C37_5 1_555 1_555
C37_5 H21_5 1_555 1_555
C38_5 C36_5 1_555 1_555
H22_5 C38_5 1_555 1_555
C39_5 C37_5 1_555 1_555
H23_5 C39_5 1_555 1_555
C40_5 C38_5 1_555 1_555
H24_5 C40_5 1_555 1_555
C41_5 C39_5 1_555 1_555
O17_5 C35_5 1_555 1_555
C36_5 O17_5 1_555 1_555
C40_5 C41_5 1_555 1_555
H19_6 C33_6 1_555 1_555
C35_6 C33_6 1_555 1_555
C36_6 C37_6 1_555 1_555
C37_6 H21_6 1_555 1_555
C38_6 C36_6 1_555 1_555
H22_6 C38_6 1_555 1_555
C39_6 C37_6 1_555 1_555
H23_6 C39_6 1_555 1_555
C40_6 C38_6 1_555 1_555
H24_6 C40_6 1_555 1_555
C41_6 C39_6 1_555 1_555
O17_6 C35_6 1_555 1_555
C36_6 O17_6 1_555 1_555
C40_6 C41_6 1_555 1_555
H11_6 C19_6 1_555 1_555
C21_6 C19_6 1_555 1_555
C22_6 C23_6 1_555 1_555
C23_6 H13_6 1_555 1_555
C24_6 C22_6 1_555 1_555
H14_6 C24_6 1_555 1_555
C25_6 C23_6 1_555 1_555
H15_6 C25_6 1_555 1_555
C26_6 C24_6 1_555 1_555
H16_6 C26_6 1_555 1_555
C27_6 C25_6 1_555 1_555
O11_6 C21_6 1_555 1_555
C22_6 O11_6 1_555 1_555
C26_6 C27_6 1_555 1_555

#END
