
###############################################################################
#
# This file contains modified crystal structure data generated from the
# MOF subset of the Cambridge Structural Database (CSD) v543 
# hosted by the Cambridge Crystallographic Data Centre (CCDC).
#
# This work is licensed under the Creative Commons
# Attribution-NonCommercial-ShareAlike 4.0 International License.
# To view a copy of this license, visit
# http://creativecommons.org/licenses/by-nc-sa/4.0/
# or send a letter to
# Creative Commons, PO Box 1866, Mountain View, CA 94042, USA.
#
# CIF created using the CSD Python API on 29 September 2022
# The structure has been converted into the P1 space group
# The structure has a 3D framework
# The original CSD entry DUDMEX is in the trigonal crystal system
# The framework has been calculated to contain at least 10.0% void space
# The void calculation uses a probe of radius 1.32A, grid spacing 0.4
#
###############################################################################

data_DUDMEX
_chemical_formula_moiety         '(C180 H120 N12 O120 Pr12)n'
_symmetry_cell_setting           triclinic
_symmetry_space_group_name_H-M   'P 1'
_symmetry_Int_Tables_number      1
_space_group_name_Hall           'P 1'
loop_
_symmetry_equiv_pos_site_id
_symmetry_equiv_pos_as_xyz
1 x,y,z
_cell_length_a                   23.2883(16)
_cell_length_b                   23.2883(16)
_cell_length_c                   14.1304(11)
_cell_angle_alpha                90
_cell_angle_beta                 90
_cell_angle_gamma                120
_cell_volume                     6636.83
loop_
_atom_site_label
_atom_site_type_symbol
_atom_site_fract_x
_atom_site_fract_y
_atom_site_fract_z
O2 O 0.0431(2) 0.55858(19) 0.3878(3)
O7 O 0.0126(3) 0.3545(2) 0.0645(3)
O9 O 0.01206(18) 0.3766(2) 0.4858(2)
O11 O 0.24322(17) 0.41560(19) 0.5217(2)
O12 O 0.29337(19) 0.4097(2) 0.3946(3)
O15 O 0.1902(3) 0.4536(2) 0.1254(4)
O16 O 0.2704(3) 0.4480(3) 0.0659(5)
N1 N 0.0188(2) 0.4054(2) 0.0325(3)
N2 N 0.2134(3) 0.4240(3) 0.0872(4)
C1 C 0.0242(3) 0.5076(2) 0.3391(3)
C2 C 0.0530(2) 0.5141(2) 0.2423(3)
C3 C 0.1018(3) 0.5742(3) 0.2078(4)
H9 H 0.119845 0.611262 0.246959
C4 C 0.1245(3) 0.5804(3) 0.1153(3)
H10 H 0.157376 0.621505 0.093517
C5 C 0.0991(3) 0.5263(3) 0.0550(3)
C6 C 0.0514(2) 0.4654(2) 0.0936(3)
C7 C 0.0293(2) 0.4584(2) 0.1845(3)
C16 C 0.0060(2) 0.3451(3) 0.4092(4)
C17 C 0.0655(2) 0.3470(2) 0.3665(3)
C18 C 0.0638(3) 0.3262(3) 0.2737(3)
H15 H 0.024448 0.308065 0.239592
C19 C 0.1213(3) 0.3324(3) 0.2313(3)
C20 C 0.1778(3) 0.3559(3) 0.2856(4)
H16 H 0.215479 0.358326 0.258933
C21 C 0.1805(2) 0.3763(3) 0.3797(3)
C22 C 0.1237(2) 0.3725(3) 0.4192(4)
H17 H 0.124781 0.386990 0.480822
C23 C 0.2425(3) 0.4014(3) 0.4334(4)
C24 C 0.1226(3) 0.3120(3) 0.1314(4)
C25 C 0.0793(3) 0.2478(3) 0.1019(4)
H18 H 0.046024 0.218909 0.142773
C26 C 0.0844(3) 0.2256(3) 0.0129(4)
C29 C 0.1715(3) 0.3531(3) 0.0672(4)
Pr4 Pr 0.09671(2) 0.62340(2) 0.52332(2)
Pr5 Pr 0.37660(2) 0.47331(3) 0.52332(2)
Pr8 Pr 0.21548(2) 0.36887(3) 0.68390(2)
O3 O 0.1350(2) 0.6961(2) 0.7995(3)
O4 O 0.15975(17) 0.66192(18) 0.6687(2)
O5 O 0.1935(2) 0.4648(2) 0.6817(3)
O6 O 0.1635(2) 0.4048(2) 0.8112(3)
O13 O 0.1056(3) 0.1834(2) 0.8353(4)
O14 O 0.1860(2) 0.2856(2) 0.7982(3)
C8 C 0.1214(3) 0.5361(3) 0.9532(3)
C9 C 0.1265(3) 0.5904(3) 0.9040(3)
H12 H 0.117506 0.620345 0.934806
C10 C 0.1450(2) 0.6001(3) 0.8088(3)
C11 C 0.1596(3) 0.5562(3) 0.7642(3)
H13 H 0.171702 0.562204 0.700685
C12 C 0.1565(3) 0.5029(3) 0.8134(4)
C13 C 0.1372(3) 0.4929(3) 0.9077(4)
H14 H 0.134954 0.457207 0.940543
C14 C 0.1715(3) 0.4543(3) 0.7668(4)
C15 C 0.1466(2) 0.6563(3) 0.7571(4)
H19 H 0.053829 0.182641 0.994262
C27 C 0.1351(3) 0.2674(3) 0.9508(4)
C28 C 0.1793(3) 0.3324(3) 0.9786(4)
H20 H 0.213257 0.361137 0.938610
C30 C 0.1425(4) 0.2433(3) 0.8552(4)
Pr6 Pr 0.15339(2) 0.78452(2) 0.68390(2)
Pr1 Pr 0.90329(2) 0.37660(2) 0.47668(2)
Pr2 Pr 0.84661(2) 0.21548(2) 0.31610(2)
O1 O 0.9794(2) 0.45285(18) 0.3644(3)
O10 O 0.95061(16) 0.31522(17) 0.3676(2)
O17 O 0.7773(3) 0.0953(2) 0.3468(4)
H1 H 0.784288 0.065192 0.312602
H2 H 0.744199 0.080094 0.392626
O18 O 0.9087(3) 0.1767(2) 0.4198(3)
H3 H 0.935126 0.161622 0.392480
H4 H 0.905259 0.177450 0.485256
O19 O 0.8868(2) 0.4780(2) 0.4740(3)
H5 H 0.904517 0.509441 0.522044
H6 H 0.863097 0.483185 0.425005
O20 O 0.7940(2) 0.3473(2) 0.5484(4)
H7 H 0.792283 0.363988 0.607481
H8 H 0.754907 0.319673 0.516018
H11 H 0.998709 0.416749 0.207736
O21 O 0.9569(2) 0.44142(19) 0.6122(3)
O22 O 0.8650(2) 0.3039(2) 0.2005(3)
O23 O 0.84025(17) 0.33808(18) 0.3313(2)
O24 O 0.7287(3) 0.1935(2) 0.3183(3)
O25 O 0.7587(3) 0.1635(2) 0.1888(3)
O26 O 0.82762(25) 0.24322(17) 0.4783(2)
O27 O 0.88367(28) 0.29337(19) 0.6054(3)
O28 O 0.9004(3) 0.1860(2) 0.2018(3)
Pr1_2 Pr 0.62340(2) 0.52669(3) 0.47668(2)
Pr2_2 Pr 0.78452(2) 0.63113(3) 0.31610(2)
O1_2 O 0.54715(18) 0.52655(27) 0.3644(3)
O2_2 O 0.44142(19) 0.48452(28) 0.3878(3)
O7_2 O 0.6455(2) 0.6581(4) 0.0645(3)
O9_2 O 0.6234(2) 0.63546(27) 0.4858(2)
O10_2 O 0.68478(17) 0.63539(23) 0.3676(2)
O11_2 O 0.58440(19) 0.82762(25) 0.5217(2)
O12_2 O 0.5903(2) 0.88367(28) 0.3946(3)
O15_2 O 0.5464(2) 0.7366(4) 0.1254(4)
O16_2 O 0.5520(3) 0.8224(4) 0.0659(5)
O17_2 O 0.9047(2) 0.6820(4) 0.3468(4)
H1_2 H 0.934808 0.719096 0.312602
H2_2 H 0.919906 0.664105 0.392626
O18_2 O 0.8233(2) 0.7320(4) 0.4198(3)
H3_2 H 0.838378 0.773504 0.392480
H4_2 H 0.822550 0.727809 0.485256
O19_2 O 0.5220(2) 0.4088(3) 0.4740(3)
H5_2 H 0.490559 0.395076 0.522044
H6_2 H 0.516815 0.379912 0.425005
O20_2 O 0.6527(2) 0.4467(3) 0.5484(4)
H7_2 H 0.636012 0.428295 0.607481
H8_2 H 0.680327 0.435234 0.516018
N1_2 N 0.5946(2) 0.6134(3) 0.0325(3)
N2_2 N 0.5760(3) 0.7894(4) 0.0872(4)
C1_2 C 0.4924(2) 0.5166(4) 0.3391(3)
C2_2 C 0.4859(2) 0.5389(3) 0.2423(3)
C3_2 C 0.4258(3) 0.5276(4) 0.2078(4)
H9_2 H 0.388738 0.508583 0.246959
C4_2 C 0.4196(3) 0.5441(4) 0.1153(3)
H10_2 H 0.378495 0.535871 0.093517
C5_2 C 0.4737(3) 0.5728(4) 0.0550(3)
C6_2 C 0.5346(2) 0.5860(3) 0.0936(3)
C7_2 C 0.5416(2) 0.5709(3) 0.1845(3)
H11_2 H 0.583251 0.581960 0.207736
C16_2 C 0.6549(3) 0.6609(4) 0.4092(4)
C17_2 C 0.6530(2) 0.7185(3) 0.3665(3)
C18_2 C 0.6738(3) 0.7376(4) 0.2737(3)
H15_2 H 0.691935 0.716383 0.239592
C19_2 C 0.6676(3) 0.7889(4) 0.2313(3)
C20_2 C 0.6441(3) 0.8219(4) 0.2856(4)
H16_2 H 0.641674 0.857153 0.258933
C21_2 C 0.6237(3) 0.8042(4) 0.3797(3)
C22_2 C 0.6275(3) 0.7512(4) 0.4192(4)
H17_2 H 0.613010 0.737791 0.480822
C23_2 C 0.5986(3) 0.8411(4) 0.4334(4)
C24_2 C 0.6880(3) 0.8106(4) 0.1314(4)
C25_2 C 0.7522(3) 0.8315(4) 0.1019(4)
H18_2 H 0.781091 0.827115 0.142773
C26_2 C 0.7744(3) 0.8588(4) 0.0129(4)
C29_2 C 0.6469(3) 0.8184(4) 0.0672(4)
Pr5_2 Pr 0.52669(3) 0.90329(4) 0.52332(2)
Pr8_2 Pr 0.63113(3) 0.84661(4) 0.68390(2)
O21_2 O 0.55858(19) 0.51548(28) 0.6122(3)
O22_2 O 0.6961(2) 0.5611(3) 0.2005(3)
O23_2 O 0.66192(18) 0.50217(25) 0.3313(2)
O24_2 O 0.8065(2) 0.5352(4) 0.3183(3)
O25_2 O 0.8365(2) 0.5952(4) 0.1888(3)
O26_2 O 0.75678(17) 0.58440(30) 0.4783(2)
O27_2 O 0.70663(19) 0.59030(34) 0.6054(3)
O28_2 O 0.8140(2) 0.7144(4) 0.2018(3)
O3_2 O 0.3039(2) 0.4389(3) 0.7995(3)
O4_2 O 0.33808(18) 0.49783(25) 0.6687(2)
O5_2 O 0.5352(2) 0.7287(3) 0.6817(3)
O6_2 O 0.5952(2) 0.7587(3) 0.8112(3)
O8 O 0.5904(2) 0.5882(3) 0.9555(3)
O13_2 O 0.8166(2) 0.9222(4) 0.8353(4)
O14_2 O 0.7144(2) 0.9004(3) 0.7982(3)
C8_2 C 0.4639(3) 0.5853(4) 0.9532(3)
C9_2 C 0.4096(3) 0.5361(4) 0.9040(3)
H12_2 H 0.379655 0.497161 0.934806
C10_2 C 0.3999(3) 0.5449(4) 0.8088(3)
C11_2 C 0.4438(3) 0.6034(4) 0.7642(3)
H13_2 H 0.437796 0.609498 0.700685
C12_2 C 0.4971(3) 0.6536(4) 0.8134(4)
C13_2 C 0.5071(3) 0.6443(4) 0.9077(4)
H14_2 H 0.542793 0.677747 0.940543
C14_2 C 0.5457(3) 0.7172(4) 0.7668(4)
C15_2 C 0.3437(3) 0.4903(4) 0.7571(4)
H19_2 H 0.817359 0.871188 0.994262
C27_2 C 0.7326(3) 0.8677(4) 0.9508(4)
C28_2 C 0.6676(3) 0.8469(4) 0.9786(4)
H20_2 H 0.638863 0.852120 0.938610
C30_2 C 0.7567(3) 0.8992(5) 0.8552(4)
Pr1_3 Pr 0.47331(3) 0.09671(2) 0.47668(2)
Pr2_3 Pr 0.36887(3) 0.15339(2) 0.31610(2)
O1_3 O 0.47345(27) 0.0206(2) 0.3644(3)
O10_3 O 0.36461(23) 0.04939(16) 0.3676(2)
O17_3 O 0.3180(4) 0.2227(3) 0.3468(4)
H1_3 H 0.280904 0.215712 0.312602
H2_3 H 0.335895 0.255801 0.392626
O18_3 O 0.2680(4) 0.0913(3) 0.4198(3)
H3_3 H 0.226496 0.064874 0.392480
H4_3 H 0.272191 0.094741 0.485256
O19_3 O 0.5912(3) 0.1132(2) 0.4740(3)
H5_3 H 0.604924 0.095483 0.522044
H6_3 H 0.620088 0.136903 0.425005
O20_3 O 0.5533(3) 0.2060(2) 0.5484(4)
H7_3 H 0.571705 0.207717 0.607481
H8_3 H 0.564766 0.245093 0.516018
H11_3 H 0.418040 0.001291 0.207736
O21_3 O 0.48452(28) 0.0431(2) 0.6122(3)
O22_3 O 0.4389(3) 0.1350(2) 0.2005(3)
O23_3 O 0.49783(25) 0.15975(17) 0.3313(2)
O24_3 O 0.4648(4) 0.2713(3) 0.3183(3)
O25_3 O 0.4048(4) 0.2413(3) 0.1888(3)
O26_3 O 0.41560(30) 0.17238(25) 0.4783(2)
O27_3 O 0.40970(34) 0.11633(28) 0.6054(3)
O28_3 O 0.2856(4) 0.0996(3) 0.2018(3)
O2_3 O 0.51548(28) 0.9569(2) 0.3878(3)
O7_3 O 0.3419(4) 0.9874(3) 0.0645(3)
O9_3 O 0.36454(27) 0.98794(18) 0.4858(2)
O11_3 O 0.17238(25) 0.75678(17) 0.5217(2)
O12_3 O 0.11633(28) 0.70663(19) 0.3946(3)
O15_3 O 0.2634(4) 0.8098(3) 0.1254(4)
O16_3 O 0.1776(4) 0.7296(3) 0.0659(5)
N1_3 N 0.3866(3) 0.9812(2) 0.0325(3)
N2_3 N 0.2106(4) 0.7866(3) 0.0872(4)
C1_3 C 0.4834(4) 0.9758(3) 0.3391(3)
C2_3 C 0.4611(3) 0.9470(2) 0.2423(3)
C3_3 C 0.4724(4) 0.8982(3) 0.2078(4)
H9_3 H 0.491417 0.880155 0.246959
C4_3 C 0.4559(4) 0.8755(3) 0.1153(3)
H10_3 H 0.464129 0.842624 0.093517
C5_3 C 0.4272(4) 0.9009(3) 0.0550(3)
C6_3 C 0.4140(3) 0.9486(2) 0.0936(3)
C7_3 C 0.4291(3) 0.9707(2) 0.1845(3)
C16_3 C 0.3391(4) 0.9940(2) 0.4092(4)
C17_3 C 0.2815(3) 0.9345(2) 0.3665(3)
C18_3 C 0.2624(4) 0.9362(3) 0.2737(3)
H15_3 H 0.283617 0.975552 0.239592
C19_3 C 0.2111(4) 0.8787(3) 0.2313(3)
C20_3 C 0.1781(4) 0.8222(3) 0.2856(4)
H16_3 H 0.142847 0.784521 0.258933
C21_3 C 0.1958(4) 0.8195(2) 0.3797(3)
C22_3 C 0.2488(4) 0.8763(2) 0.4192(4)
H17_3 H 0.262209 0.875219 0.480822
C23_3 C 0.1589(4) 0.7575(3) 0.4334(4)
C24_3 C 0.1894(4) 0.8774(3) 0.1314(4)
C25_3 C 0.1685(4) 0.9207(3) 0.1019(4)
H18_3 H 0.172885 0.953976 0.142773
C26_3 C 0.1412(4) 0.9156(3) 0.0129(4)
C29_3 C 0.1816(4) 0.8285(3) 0.0672(4)
O3_3 O 0.5611(3) 0.8650(2) 0.7995(3)
O4_3 O 0.50217(25) 0.84025(17) 0.6687(2)
O5_3 O 0.2713(3) 0.8065(2) 0.6817(3)
O6_3 O 0.2413(3) 0.8365(2) 0.8112(3)
O13_3 O 0.0778(4) 0.8944(3) 0.8353(4)
O14_3 O 0.0996(3) 0.8140(2) 0.7982(3)
C8_3 C 0.4147(4) 0.8786(3) 0.9532(3)
C9_3 C 0.4639(4) 0.8735(3) 0.9040(3)
H12_3 H 0.502839 0.882494 0.934806
C10_3 C 0.4551(4) 0.8550(2) 0.8088(3)
C11_3 C 0.3966(4) 0.8404(3) 0.7642(3)
H13_3 H 0.390502 0.828298 0.700685
C12_3 C 0.3464(4) 0.8435(3) 0.8134(4)
C13_3 C 0.3557(4) 0.8628(3) 0.9077(4)
H14_3 H 0.322253 0.865046 0.940543
C14_3 C 0.2828(4) 0.8285(3) 0.7668(4)
C15_3 C 0.5097(4) 0.8534(2) 0.7571(4)
H19_3 H 0.128812 0.946171 0.994262
C27_3 C 0.1323(4) 0.8649(3) 0.9508(4)
C28_3 C 0.1531(4) 0.8207(3) 0.9786(4)
H20_3 H 0.147880 0.786743 0.938610
C30_3 C 0.1008(5) 0.8575(4) 0.8552(4)
O1_4 O 0.0206(2) 0.54715(18) 0.6356(3)
O10_4 O 0.04939(16) 0.68478(17) 0.6324(2)
O17_4 O 0.2227(3) 0.9047(2) 0.6532(4)
H1_4 H 0.215712 0.934808 0.687398
H2_4 H 0.255801 0.919906 0.607374
O18_4 O 0.0913(3) 0.8233(2) 0.5802(3)
H3_4 H 0.064874 0.838378 0.607520
H4_4 H 0.094741 0.822550 0.514744
O19_4 O 0.1132(2) 0.5220(2) 0.5260(3)
H5_4 H 0.095483 0.490559 0.477956
H6_4 H 0.136903 0.516815 0.574995
O20_4 O 0.2060(2) 0.6527(2) 0.4516(4)
H7_4 H 0.207717 0.636012 0.392519
H8_4 H 0.245093 0.680327 0.483982
H11_4 H 0.001291 0.583251 0.792264
O13_4 O 0.8944(3) 0.8166(2) 0.1647(4)
C8_4 C 0.8786(3) 0.4639(3) 0.0468(3)
C9_4 C 0.8735(3) 0.4096(3) 0.0960(3)
H12_4 H 0.882494 0.379655 0.065194
C10_4 C 0.8550(2) 0.3999(3) 0.1912(3)
C11_4 C 0.8404(3) 0.4438(3) 0.2358(3)
H13_4 H 0.828298 0.437796 0.299315
C12_4 C 0.8435(3) 0.4971(3) 0.1866(4)
C13_4 C 0.8628(3) 0.5071(3) 0.0923(4)
H14_4 H 0.865046 0.542793 0.059457
C14_4 C 0.8285(3) 0.5457(3) 0.2332(4)
C15_4 C 0.8534(2) 0.3437(3) 0.2429(4)
H19_4 H 0.946171 0.817359 0.005738
C27_4 C 0.8649(3) 0.7326(3) 0.0492(4)
C28_4 C 0.8207(3) 0.6676(3) 0.0214(4)
H20_4 H 0.786743 0.638863 0.061390
C30_4 C 0.8575(4) 0.7567(3) 0.1448(4)
O7_4 O 0.9874(3) 0.6455(2) 0.9355(3)
O9_4 O 0.98794(18) 0.6234(2) 0.5142(2)
O15_4 O 0.8098(3) 0.5464(2) 0.8746(4)
O16_4 O 0.7296(3) 0.5520(3) 0.9341(5)
N1_4 N 0.9812(2) 0.5946(2) 0.9675(3)
N2_4 N 0.7866(3) 0.5760(3) 0.9128(4)
C1_4 C 0.9758(3) 0.4924(2) 0.6609(3)
C2_4 C 0.9470(2) 0.4859(2) 0.7577(3)
C3_4 C 0.8982(3) 0.4258(3) 0.7922(4)
H9_4 H 0.880155 0.388738 0.753041
C4_4 C 0.8755(3) 0.4196(3) 0.8847(3)
H10_4 H 0.842624 0.378495 0.906483
C5_4 C 0.9009(3) 0.4737(3) 0.9450(3)
C6_4 C 0.9486(2) 0.5346(2) 0.9064(3)
C7_4 C 0.9707(2) 0.5416(2) 0.8155(3)
C16_4 C 0.9940(2) 0.6549(3) 0.5908(4)
C17_4 C 0.9345(2) 0.6530(2) 0.6335(3)
C18_4 C 0.9362(3) 0.6738(3) 0.7263(3)
H15_4 H 0.975552 0.691935 0.760408
C19_4 C 0.8787(3) 0.6676(3) 0.7687(3)
C20_4 C 0.8222(3) 0.6441(3) 0.7144(4)
H16_4 H 0.784521 0.641674 0.741067
C21_4 C 0.8195(2) 0.6237(3) 0.6203(3)
C22_4 C 0.8763(2) 0.6275(3) 0.5808(4)
H17_4 H 0.875219 0.613010 0.519178
C23_4 C 0.7575(3) 0.5986(3) 0.5666(4)
C24_4 C 0.8774(3) 0.6880(3) 0.8686(4)
C25_4 C 0.9207(3) 0.7522(3) 0.8981(4)
H18_4 H 0.953976 0.781091 0.857227
C26_4 C 0.9156(3) 0.7744(3) 0.9871(4)
C29_4 C 0.8285(3) 0.6469(3) 0.9328(4)
O8_2 O 0.4096(2) 0.4118(3) 0.0445(3)
O13_5 O 0.1834(2) 0.0778(4) 0.1647(4)
C8_5 C 0.5361(3) 0.4147(4) 0.0468(3)
C9_5 C 0.5904(3) 0.4639(4) 0.0960(3)
H12_5 H 0.620345 0.502839 0.065194
C10_5 C 0.6001(3) 0.4551(4) 0.1912(3)
C11_5 C 0.5562(3) 0.3966(4) 0.2358(3)
H13_5 H 0.562204 0.390502 0.299315
C12_5 C 0.5029(3) 0.3464(4) 0.1866(4)
C13_5 C 0.4929(3) 0.3557(4) 0.0923(4)
H14_5 H 0.457207 0.322253 0.059457
C14_5 C 0.4543(3) 0.2828(4) 0.2332(4)
C15_5 C 0.6563(3) 0.5097(4) 0.2429(4)
H19_5 H 0.182641 0.128812 0.005738
C27_5 C 0.2674(3) 0.1323(4) 0.0492(4)
C28_5 C 0.3324(3) 0.1531(4) 0.0214(4)
H20_5 H 0.361137 0.147880 0.061390
C30_5 C 0.2433(3) 0.1008(5) 0.1448(4)
O1_5 O 0.45285(18) 0.47345(27) 0.6356(3)
O7_5 O 0.3545(2) 0.3419(4) 0.9355(3)
O9_5 O 0.3766(2) 0.36454(27) 0.5142(2)
O10_5 O 0.31522(17) 0.36461(23) 0.6324(2)
O15_5 O 0.4536(2) 0.2634(4) 0.8746(4)
O16_5 O 0.4480(3) 0.1776(4) 0.9341(5)
O17_5 O 0.0953(2) 0.3180(4) 0.6532(4)
H1_5 H 0.065192 0.280904 0.687398
H2_5 H 0.080094 0.335895 0.607374
O18_5 O 0.1767(2) 0.2680(4) 0.5802(3)
H3_5 H 0.161622 0.226496 0.607520
H4_5 H 0.177450 0.272191 0.514744
O19_5 O 0.4780(2) 0.5912(3) 0.5260(3)
H5_5 H 0.509441 0.604924 0.477956
H6_5 H 0.483185 0.620088 0.574995
O20_5 O 0.3473(2) 0.5533(3) 0.4516(4)
H7_5 H 0.363988 0.571705 0.392519
H8_5 H 0.319673 0.564766 0.483982
N1_5 N 0.4054(2) 0.3866(3) 0.9675(3)
N2_5 N 0.4240(3) 0.2106(4) 0.9128(4)
C1_5 C 0.5076(2) 0.4834(4) 0.6609(3)
C2_5 C 0.5141(2) 0.4611(3) 0.7577(3)
C3_5 C 0.5742(3) 0.4724(4) 0.7922(4)
H9_5 H 0.611262 0.491417 0.753041
C4_5 C 0.5804(3) 0.4559(4) 0.8847(3)
H10_5 H 0.621505 0.464129 0.906483
C5_5 C 0.5263(3) 0.4272(4) 0.9450(3)
C6_5 C 0.4654(2) 0.4140(3) 0.9064(3)
C7_5 C 0.4584(2) 0.4291(3) 0.8155(3)
H11_5 H 0.416749 0.418040 0.792264
C16_5 C 0.3451(3) 0.3391(4) 0.5908(4)
C17_5 C 0.3470(2) 0.2815(3) 0.6335(3)
C18_5 C 0.3262(3) 0.2624(4) 0.7263(3)
H15_5 H 0.308065 0.283617 0.760408
C19_5 C 0.3324(3) 0.2111(4) 0.7687(3)
C20_5 C 0.3559(3) 0.1781(4) 0.7144(4)
H16_5 H 0.358326 0.142847 0.741067
C21_5 C 0.3763(3) 0.1958(4) 0.6203(3)
C22_5 C 0.3725(3) 0.2488(4) 0.5808(4)
H17_5 H 0.386990 0.262209 0.519178
C23_5 C 0.4014(3) 0.1589(4) 0.5666(4)
C24_5 C 0.3120(3) 0.1894(4) 0.8686(4)
C25_5 C 0.2478(3) 0.1685(4) 0.8981(4)
H18_5 H 0.218909 0.172885 0.857227
C26_5 C 0.2256(3) 0.1412(4) 0.9871(4)
C29_5 C 0.3531(3) 0.1816(4) 0.9328(4)
O13_6 O 0.9222(4) 0.1056(3) 0.1647(4)
C8_6 C 0.5853(4) 0.1214(3) 0.0468(3)
C9_6 C 0.5361(4) 0.1265(3) 0.0960(3)
H12_6 H 0.497161 0.117506 0.065194
C10_6 C 0.5449(4) 0.1450(2) 0.1912(3)
C11_6 C 0.6034(4) 0.1596(3) 0.2358(3)
H13_6 H 0.609498 0.171702 0.299315
C12_6 C 0.6536(4) 0.1565(3) 0.1866(4)
C13_6 C 0.6443(4) 0.1372(3) 0.0923(4)
H14_6 H 0.677747 0.134954 0.059457
C14_6 C 0.7172(4) 0.1715(3) 0.2332(4)
C15_6 C 0.4903(4) 0.1466(2) 0.2429(4)
H19_6 H 0.871188 0.053829 0.005738
C27_6 C 0.8677(4) 0.1351(3) 0.0492(4)
C28_6 C 0.8469(4) 0.1793(3) 0.0214(4)
H20_6 H 0.852120 0.213257 0.061390
C30_6 C 0.8992(5) 0.1425(4) 0.1448(4)
O7_6 O 0.6581(4) 0.0126(3) 0.9355(3)
O9_6 O 0.63546(27) 0.01206(18) 0.5142(2)
O15_6 O 0.7366(4) 0.1902(3) 0.8746(4)
O16_6 O 0.8224(4) 0.2704(3) 0.9341(5)
N1_6 N 0.6134(3) 0.0188(2) 0.9675(3)
N2_6 N 0.7894(4) 0.2134(3) 0.9128(4)
C1_6 C 0.5166(4) 0.0242(3) 0.6609(3)
C2_6 C 0.5389(3) 0.0530(2) 0.7577(3)
C3_6 C 0.5276(4) 0.1018(3) 0.7922(4)
H9_6 H 0.508583 0.119845 0.753041
C4_6 C 0.5441(4) 0.1245(3) 0.8847(3)
H10_6 H 0.535871 0.157376 0.906483
C5_6 C 0.5728(4) 0.0991(3) 0.9450(3)
C6_6 C 0.5860(3) 0.0514(2) 0.9064(3)
C7_6 C 0.5709(3) 0.0293(2) 0.8155(3)
C16_6 C 0.6609(4) 0.0060(2) 0.5908(4)
C17_6 C 0.7185(3) 0.0655(2) 0.6335(3)
C18_6 C 0.7376(4) 0.0638(3) 0.7263(3)
H15_6 H 0.716383 0.024448 0.760408
C19_6 C 0.7889(4) 0.1213(3) 0.7687(3)
C20_6 C 0.8219(4) 0.1778(3) 0.7144(4)
H16_6 H 0.857153 0.215479 0.741067
C21_6 C 0.8042(4) 0.1805(2) 0.6203(3)
C22_6 C 0.7512(4) 0.1237(2) 0.5808(4)
H17_6 H 0.737791 0.124781 0.519178
C23_6 C 0.8411(4) 0.2425(3) 0.5666(4)
C24_6 C 0.8106(4) 0.1226(3) 0.8686(4)
C25_6 C 0.8315(4) 0.0793(3) 0.8981(4)
H18_6 H 0.827115 0.046024 0.857227
C26_6 C 0.8588(4) 0.0844(3) 0.9871(4)
C29_6 C 0.8184(4) 0.1715(3) 0.9328(4)
O1_6 O 0.52655(27) 0.9794(2) 0.6356(3)
O10_6 O 0.63539(23) 0.95061(16) 0.6324(2)
O17_6 O 0.6820(4) 0.7773(3) 0.6532(4)
H1_6 H 0.719096 0.784288 0.687398
H2_6 H 0.664105 0.744199 0.607374
O18_6 O 0.7320(4) 0.9087(3) 0.5802(3)
H3_6 H 0.773504 0.935126 0.607520
H4_6 H 0.727809 0.905259 0.514744
O19_6 O 0.4088(3) 0.8868(2) 0.5260(3)
H5_6 H 0.395076 0.904517 0.477956
H6_6 H 0.379912 0.863097 0.574995
O20_6 O 0.4467(3) 0.7940(2) 0.4516(4)
H7_6 H 0.428295 0.792283 0.392519
H8_6 H 0.435234 0.754907 0.483982
H11_6 H 0.581960 0.998709 0.792264
O8_3 O 0.9978(2) 0.4096(2) 0.9555(3)
O8_4 O 0.4118(3) 0.0022(2) 0.9555(3)
O8_5 O 0.0022(2) 0.5904(2) 0.0445(3)
O8_6 O 0.5882(3) 0.9978(2) 0.0445(3)
loop_
_geom_bond_atom_site_label_1
_geom_bond_atom_site_label_2
_geom_bond_site_symmetry_1
_geom_bond_site_symmetry_2
O2 C1 1_555 1_555
O7 N1 1_555 1_555
O11 C23 1_555 1_555
O12 C23 1_555 1_555
O15 N2 1_555 1_555
O16 N2 1_555 1_555
N1 C6 1_555 1_555
N2 C29 1_555 1_555
C1 C2 1_555 1_555
C2 C3 1_555 1_555
C3 H9 1_555 1_555
C4 C3 1_555 1_555
H10 C4 1_555 1_555
C5 C4 1_555 1_555
C6 C5 1_555 1_555
C7 C2 1_555 1_555
C16 O9 1_555 1_555
C17 C16 1_555 1_555
C18 C17 1_555 1_555
H15 C18 1_555 1_555
C19 C18 1_555 1_555
C20 C19 1_555 1_555
H16 C20 1_555 1_555
C21 C20 1_555 1_555
C22 C17 1_555 1_555
H17 C22 1_555 1_555
C23 C21 1_555 1_555
C24 C19 1_555 1_555
C25 C24 1_555 1_555
H18 C25 1_555 1_555
C26 C25 1_555 1_555
C29 C24 1_555 1_555
Pr4 O2 1_555 1_555
Pr5 O11 1_555 1_555
Pr8 O11 1_555 1_555
O12 Pr5 1_555 1_555
C6 C7 1_555 1_555
C21 C22 1_555 1_555
O3 C15 1_555 1_555
O4 C15 1_555 1_555
O5 C14 1_555 1_555
O6 C14 1_555 1_555
O13 C30 1_555 1_555
O14 C30 1_555 1_555
C9 C8 1_555 1_555
H12 C9 1_555 1_555
C10 C9 1_555 1_555
C11 C10 1_555 1_555
H13 C11 1_555 1_555
C12 C11 1_555 1_555
C13 C8 1_555 1_555
H14 C13 1_555 1_555
C14 C12 1_555 1_555
C15 C10 1_555 1_555
C28 C27 1_555 1_555
H20 C28 1_555 1_555
C30 C27 1_555 1_555
Pr4 O4 1_555 1_555
Pr6 O3 1_555 1_555
Pr8 O5 1_555 1_555
O4 Pr6 1_555 1_555
O6 Pr8 1_555 1_555
O14 Pr8 1_555 1_555
C12 C13 1_555 1_555
Pr1 O1 1_555 1_555
Pr2 O10 1_555 1_555
O10 Pr1 1_555 1_555
O17 Pr2 1_555 1_555
H1 O17 1_555 1_555
H2 O17 1_555 1_555
O18 Pr2 1_555 1_555
H3 O18 1_555 1_555
H4 O18 1_555 1_555
O19 Pr1 1_555 1_555
H5 O19 1_555 1_555
H6 O19 1_555 1_555
O20 Pr1 1_555 1_555
H7 O20 1_555 1_555
H8 O20 1_555 1_555
O21 Pr1 1_555 1_555
O22 Pr2 1_555 1_555
O23 Pr1 1_555 1_555
O24 Pr2 1_555 1_555
O25 Pr2 1_555 1_555
O26 Pr1 1_555 1_555
O27 Pr1 1_555 1_555
O28 Pr2 1_555 1_555
Pr2 O23 1_555 1_555
Pr2 O26 1_555 1_555
Pr1_2 O1_2 1_555 1_555
Pr2_2 O10_2 1_555 1_555
O1_2 C1_2 1_555 1_555
O2_2 C1_2 1_555 1_555
O7_2 N1_2 1_555 1_555
O9_2 Pr1_2 1_555 1_555
O10_2 Pr1_2 1_555 1_555
O11_2 C23_2 1_555 1_555
O12_2 C23_2 1_555 1_555
O15_2 N2_2 1_555 1_555
O16_2 N2_2 1_555 1_555
O17_2 Pr2_2 1_555 1_555
H1_2 O17_2 1_555 1_555
H2_2 O17_2 1_555 1_555
O18_2 Pr2_2 1_555 1_555
H3_2 O18_2 1_555 1_555
H4_2 O18_2 1_555 1_555
O19_2 Pr1_2 1_555 1_555
H5_2 O19_2 1_555 1_555
H6_2 O19_2 1_555 1_555
O20_2 Pr1_2 1_555 1_555
H7_2 O20_2 1_555 1_555
H8_2 O20_2 1_555 1_555
N1_2 C6_2 1_555 1_555
N2_2 C29_2 1_555 1_555
C1_2 C2_2 1_555 1_555
C2_2 C3_2 1_555 1_555
C3_2 H9_2 1_555 1_555
C4_2 C3_2 1_555 1_555
H10_2 C4_2 1_555 1_555
C5_2 C4_2 1_555 1_555
C6_2 C5_2 1_555 1_555
C7_2 C2_2 1_555 1_555
H11_2 C7_2 1_555 1_555
C16_2 O9_2 1_555 1_555
C17_2 C16_2 1_555 1_555
C18_2 C17_2 1_555 1_555
H15_2 C18_2 1_555 1_555
C19_2 C18_2 1_555 1_555
C20_2 C19_2 1_555 1_555
H16_2 C20_2 1_555 1_555
C21_2 C20_2 1_555 1_555
C22_2 C17_2 1_555 1_555
H17_2 C22_2 1_555 1_555
C23_2 C21_2 1_555 1_555
C24_2 C19_2 1_555 1_555
C25_2 C24_2 1_555 1_555
H18_2 C25_2 1_555 1_555
C26_2 C25_2 1_555 1_555
C29_2 C24_2 1_555 1_555
Pr5 O2_2 1_555 1_555
Pr5_2 O11_2 1_555 1_555
Pr8_2 O11_2 1_555 1_555
O21_2 Pr1_2 1_555 1_555
O22_2 Pr2_2 1_555 1_555
O23_2 Pr1_2 1_555 1_555
O24_2 Pr2_2 1_555 1_555
O25_2 Pr2_2 1_555 1_555
O26_2 Pr1_2 1_555 1_555
O27_2 Pr1_2 1_555 1_555
O28_2 Pr2_2 1_555 1_555
Pr2_2 O23_2 1_555 1_555
Pr2_2 O26_2 1_555 1_555
O10_2 C16_2 1_555 1_555
O12_2 Pr5_2 1_555 1_555
C6_2 C7_2 1_555 1_555
C21_2 C22_2 1_555 1_555
O3_2 C15_2 1_555 1_555
O4_2 C15_2 1_555 1_555
O5_2 C14_2 1_555 1_555
O6_2 C14_2 1_555 1_555
O13_2 C30_2 1_555 1_555
O14_2 C30_2 1_555 1_555
C9_2 C8_2 1_555 1_555
H12_2 C9_2 1_555 1_555
C10_2 C9_2 1_555 1_555
C11_2 C10_2 1_555 1_555
H13_2 C11_2 1_555 1_555
C12_2 C11_2 1_555 1_555
C13_2 C8_2 1_555 1_555
H14_2 C13_2 1_555 1_555
C14_2 C12_2 1_555 1_555
C15_2 C10_2 1_555 1_555
C28_2 C27_2 1_555 1_555
H20_2 C28_2 1_555 1_555
C30_2 C27_2 1_555 1_555
Pr5 O4_2 1_555 1_555
Pr8 O3_2 1_555 1_555
Pr8_2 O5_2 1_555 1_555
O4_2 Pr8 1_555 1_555
O6_2 Pr8_2 1_555 1_555
O14_2 Pr8_2 1_555 1_555
C12_2 C13_2 1_555 1_555
Pr1_3 O1_3 1_555 1_555
Pr2_3 O10_3 1_555 1_555
O10_3 Pr1_3 1_555 1_555
O17_3 Pr2_3 1_555 1_555
H1_3 O17_3 1_555 1_555
H2_3 O17_3 1_555 1_555
O18_3 Pr2_3 1_555 1_555
H3_3 O18_3 1_555 1_555
H4_3 O18_3 1_555 1_555
O19_3 Pr1_3 1_555 1_555
H5_3 O19_3 1_555 1_555
H6_3 O19_3 1_555 1_555
O20_3 Pr1_3 1_555 1_555
H7_3 O20_3 1_555 1_555
H8_3 O20_3 1_555 1_555
O21_3 Pr1_3 1_555 1_555
O22_3 Pr2_3 1_555 1_555
O23_3 Pr1_3 1_555 1_555
O24_3 Pr2_3 1_555 1_555
O25_3 Pr2_3 1_555 1_555
O26_3 Pr1_3 1_555 1_555
O27_3 Pr1_3 1_555 1_555
O28_3 Pr2_3 1_555 1_555
Pr2_3 O23_3 1_555 1_555
Pr2_3 O26_3 1_555 1_555
O2_3 C1_3 1_555 1_555
O7_3 N1_3 1_555 1_555
O11_3 C23_3 1_555 1_555
O12_3 C23_3 1_555 1_555
O15_3 N2_3 1_555 1_555
O16_3 N2_3 1_555 1_555
N1_3 C6_3 1_555 1_555
N2_3 C29_3 1_555 1_555
C1_3 C2_3 1_555 1_555
C2_3 C3_3 1_555 1_555
C3_3 H9_3 1_555 1_555
C4_3 C3_3 1_555 1_555
H10_3 C4_3 1_555 1_555
C5_3 C4_3 1_555 1_555
C6_3 C5_3 1_555 1_555
C7_3 C2_3 1_555 1_555
C16_3 O9_3 1_555 1_555
C17_3 C16_3 1_555 1_555
C18_3 C17_3 1_555 1_555
H15_3 C18_3 1_555 1_555
C19_3 C18_3 1_555 1_555
C20_3 C19_3 1_555 1_555
H16_3 C20_3 1_555 1_555
C21_3 C20_3 1_555 1_555
C22_3 C17_3 1_555 1_555
H17_3 C22_3 1_555 1_555
C23_3 C21_3 1_555 1_555
C24_3 C19_3 1_555 1_555
C25_3 C24_3 1_555 1_555
H18_3 C25_3 1_555 1_555
C26_3 C25_3 1_555 1_555
C29_3 C24_3 1_555 1_555
Pr5_2 O2_3 1_555 1_555
Pr4 O11_3 1_555 1_555
Pr6 O11_3 1_555 1_555
O12_3 Pr4 1_555 1_555
C6_3 C7_3 1_555 1_555
C21_3 C22_3 1_555 1_555
O3_3 C15_3 1_555 1_555
O4_3 C15_3 1_555 1_555
O5_3 C14_3 1_555 1_555
O6_3 C14_3 1_555 1_555
O13_3 C30_3 1_555 1_555
O14_3 C30_3 1_555 1_555
C9_3 C8_3 1_555 1_555
H12_3 C9_3 1_555 1_555
C10_3 C9_3 1_555 1_555
C11_3 C10_3 1_555 1_555
H13_3 C11_3 1_555 1_555
C12_3 C11_3 1_555 1_555
C13_3 C8_3 1_555 1_555
H14_3 C13_3 1_555 1_555
C14_3 C12_3 1_555 1_555
C15_3 C10_3 1_555 1_555
C28_3 C27_3 1_555 1_555
H20_3 C28_3 1_555 1_555
C30_3 C27_3 1_555 1_555
Pr5_2 O4_3 1_555 1_555
Pr8_2 O3_3 1_555 1_555
Pr6 O5_3 1_555 1_555
O4_3 Pr8_2 1_555 1_555
O6_3 Pr6 1_555 1_555
O14_3 Pr6 1_555 1_555
C12_3 C13_3 1_555 1_555
Pr4 O1_4 1_555 1_555
Pr6 O10_4 1_555 1_555
O10_4 Pr4 1_555 1_555
O17_4 Pr6 1_555 1_555
H1_4 O17_4 1_555 1_555
H2_4 O17_4 1_555 1_555
O18_4 Pr6 1_555 1_555
H3_4 O18_4 1_555 1_555
H4_4 O18_4 1_555 1_555
O19_4 Pr4 1_555 1_555
H5_4 O19_4 1_555 1_555
H6_4 O19_4 1_555 1_555
O20_4 Pr4 1_555 1_555
H7_4 O20_4 1_555 1_555
H8_4 O20_4 1_555 1_555
O22 C15_4 1_555 1_555
O23 C15_4 1_555 1_555
O24_2 C14_4 1_555 1_555
O25_2 C14_4 1_555 1_555
O13_4 C30_4 1_555 1_555
O28_2 C30_4 1_555 1_555
C9_4 C8_4 1_555 1_555
H12_4 C9_4 1_555 1_555
C10_4 C9_4 1_555 1_555
C11_4 C10_4 1_555 1_555
H13_4 C11_4 1_555 1_555
C12_4 C11_4 1_555 1_555
C13_4 C8_4 1_555 1_555
H14_4 C13_4 1_555 1_555
C14_4 C12_4 1_555 1_555
C15_4 C10_4 1_555 1_555
C28_4 C27_4 1_555 1_555
H20_4 C28_4 1_555 1_555
C30_4 C27_4 1_555 1_555
C12_4 C13_4 1_555 1_555
O21 C1_4 1_555 1_555
O7_4 N1_4 1_555 1_555
O26_2 C23_4 1_555 1_555
O27_2 C23_4 1_555 1_555
O15_4 N2_4 1_555 1_555
O16_4 N2_4 1_555 1_555
N1_4 C6_4 1_555 1_555
N2_4 C29_4 1_555 1_555
C1_4 C2_4 1_555 1_555
C2_4 C3_4 1_555 1_555
C3_4 H9_4 1_555 1_555
C4_4 C3_4 1_555 1_555
H10_4 C4_4 1_555 1_555
C5_4 C4_4 1_555 1_555
C6_4 C5_4 1_555 1_555
C7_4 C2_4 1_555 1_555
C16_4 O9_4 1_555 1_555
C17_4 C16_4 1_555 1_555
C18_4 C17_4 1_555 1_555
H15_4 C18_4 1_555 1_555
C19_4 C18_4 1_555 1_555
C20_4 C19_4 1_555 1_555
H16_4 C20_4 1_555 1_555
C21_4 C20_4 1_555 1_555
C22_4 C17_4 1_555 1_555
H17_4 C22_4 1_555 1_555
C23_4 C21_4 1_555 1_555
C24_4 C19_4 1_555 1_555
C25_4 C24_4 1_555 1_555
H18_4 C25_4 1_555 1_555
C26_4 C25_4 1_555 1_555
C29_4 C24_4 1_555 1_555
C6_4 C7_4 1_555 1_555
C21_4 C22_4 1_555 1_555
O22_2 C15_5 1_555 1_555
O23_2 C15_5 1_555 1_555
O24_3 C14_5 1_555 1_555
O25_3 C14_5 1_555 1_555
O13_5 C30_5 1_555 1_555
O28_3 C30_5 1_555 1_555
C9_5 C8_5 1_555 1_555
H12_5 C9_5 1_555 1_555
C10_5 C9_5 1_555 1_555
C11_5 C10_5 1_555 1_555
H13_5 C11_5 1_555 1_555
C12_5 C11_5 1_555 1_555
C13_5 C8_5 1_555 1_555
H14_5 C13_5 1_555 1_555
C14_5 C12_5 1_555 1_555
C15_5 C10_5 1_555 1_555
C28_5 C27_5 1_555 1_555
H20_5 C28_5 1_555 1_555
C30_5 C27_5 1_555 1_555
C12_5 C13_5 1_555 1_555
Pr5 O1_5 1_555 1_555
Pr8 O10_5 1_555 1_555
O1_5 C1_5 1_555 1_555
O21_2 C1_5 1_555 1_555
O7_5 N1_5 1_555 1_555
O9_5 Pr5 1_555 1_555
O10_5 Pr5 1_555 1_555
O26_3 C23_5 1_555 1_555
O27_3 C23_5 1_555 1_555
O15_5 N2_5 1_555 1_555
O16_5 N2_5 1_555 1_555
O17_5 Pr8 1_555 1_555
H1_5 O17_5 1_555 1_555
H2_5 O17_5 1_555 1_555
O18_5 Pr8 1_555 1_555
H3_5 O18_5 1_555 1_555
H4_5 O18_5 1_555 1_555
O19_5 Pr5 1_555 1_555
H5_5 O19_5 1_555 1_555
H6_5 O19_5 1_555 1_555
O20_5 Pr5 1_555 1_555
H7_5 O20_5 1_555 1_555
H8_5 O20_5 1_555 1_555
N1_5 C6_5 1_555 1_555
N2_5 C29_5 1_555 1_555
C1_5 C2_5 1_555 1_555
C2_5 C3_5 1_555 1_555
C3_5 H9_5 1_555 1_555
C4_5 C3_5 1_555 1_555
H10_5 C4_5 1_555 1_555
C5_5 C4_5 1_555 1_555
C6_5 C5_5 1_555 1_555
C7_5 C2_5 1_555 1_555
H11_5 C7_5 1_555 1_555
C16_5 O9_5 1_555 1_555
C17_5 C16_5 1_555 1_555
C18_5 C17_5 1_555 1_555
H15_5 C18_5 1_555 1_555
C19_5 C18_5 1_555 1_555
C20_5 C19_5 1_555 1_555
H16_5 C20_5 1_555 1_555
C21_5 C20_5 1_555 1_555
C22_5 C17_5 1_555 1_555
H17_5 C22_5 1_555 1_555
C23_5 C21_5 1_555 1_555
C24_5 C19_5 1_555 1_555
C25_5 C24_5 1_555 1_555
H18_5 C25_5 1_555 1_555
C26_5 C25_5 1_555 1_555
C29_5 C24_5 1_555 1_555
O10_5 C16_5 1_555 1_555
C6_5 C7_5 1_555 1_555
C21_5 C22_5 1_555 1_555
O22_3 C15_6 1_555 1_555
O23_3 C15_6 1_555 1_555
O24 C14_6 1_555 1_555
O25 C14_6 1_555 1_555
O13_6 C30_6 1_555 1_555
O28 C30_6 1_555 1_555
C9_6 C8_6 1_555 1_555
H12_6 C9_6 1_555 1_555
C10_6 C9_6 1_555 1_555
C11_6 C10_6 1_555 1_555
H13_6 C11_6 1_555 1_555
C12_6 C11_6 1_555 1_555
C13_6 C8_6 1_555 1_555
H14_6 C13_6 1_555 1_555
C14_6 C12_6 1_555 1_555
C15_6 C10_6 1_555 1_555
C28_6 C27_6 1_555 1_555
H20_6 C28_6 1_555 1_555
C30_6 C27_6 1_555 1_555
C12_6 C13_6 1_555 1_555
O21_3 C1_6 1_555 1_555
O7_6 N1_6 1_555 1_555
O26 C23_6 1_555 1_555
O27 C23_6 1_555 1_555
O15_6 N2_6 1_555 1_555
O16_6 N2_6 1_555 1_555
N1_6 C6_6 1_555 1_555
N2_6 C29_6 1_555 1_555
C1_6 C2_6 1_555 1_555
C2_6 C3_6 1_555 1_555
C3_6 H9_6 1_555 1_555
C4_6 C3_6 1_555 1_555
H10_6 C4_6 1_555 1_555
C5_6 C4_6 1_555 1_555
C6_6 C5_6 1_555 1_555
C7_6 C2_6 1_555 1_555
C16_6 O9_6 1_555 1_555
C17_6 C16_6 1_555 1_555
C18_6 C17_6 1_555 1_555
H15_6 C18_6 1_555 1_555
C19_6 C18_6 1_555 1_555
C20_6 C19_6 1_555 1_555
H16_6 C20_6 1_555 1_555
C21_6 C20_6 1_555 1_555
C22_6 C17_6 1_555 1_555
H17_6 C22_6 1_555 1_555
C23_6 C21_6 1_555 1_555
C24_6 C19_6 1_555 1_555
C25_6 C24_6 1_555 1_555
H18_6 C25_6 1_555 1_555
C26_6 C25_6 1_555 1_555
C29_6 C24_6 1_555 1_555
C6_6 C7_6 1_555 1_555
C21_6 C22_6 1_555 1_555
Pr5_2 O1_6 1_555 1_555
Pr8_2 O10_6 1_555 1_555
O10_6 Pr5_2 1_555 1_555
O17_6 Pr8_2 1_555 1_555
H1_6 O17_6 1_555 1_555
H2_6 O17_6 1_555 1_555
O18_6 Pr8_2 1_555 1_555
H3_6 O18_6 1_555 1_555
H4_6 O18_6 1_555 1_555
O19_6 Pr5_2 1_555 1_555
H5_6 O19_6 1_555 1_555
H6_6 O19_6 1_555 1_555
O20_6 Pr5_2 1_555 1_555
H7_6 O20_6 1_555 1_555
H8_6 O20_6 1_555 1_555

#END
