
###############################################################################
#
# This file contains modified crystal structure data generated from the
# MOF subset of the Cambridge Structural Database (CSD) v543 
# hosted by the Cambridge Crystallographic Data Centre (CCDC).
#
# This work is licensed under the Creative Commons
# Attribution-NonCommercial-ShareAlike 4.0 International License.
# To view a copy of this license, visit
# http://creativecommons.org/licenses/by-nc-sa/4.0/
# or send a letter to
# Creative Commons, PO Box 1866, Mountain View, CA 94042, USA.
#
# CIF created using the CSD Python API on 29 September 2022
# The structure has been converted into the P1 space group
# The structure has a 3D framework
# The original CSD entry DUDVUV is in the orthorhombic crystal system
# The framework has been calculated to contain at least 10.0% void space
# The void calculation uses a probe of radius 1.32A, grid spacing 0.4
# The framework is charged, counterions have been retained in the structure
#
###############################################################################

data_DUDVUV
_chemical_formula_moiety         '(C212 H160 O90 Zn14 4-)n'
_symmetry_cell_setting           triclinic
_symmetry_space_group_name_H-M   'P 1'
_symmetry_Int_Tables_number      1
_space_group_name_Hall           'P 1'
loop_
_symmetry_equiv_pos_site_id
_symmetry_equiv_pos_as_xyz
1 x,y,z
_cell_length_a                   19.7928(16)
_cell_length_b                   17.7591(14)
_cell_length_c                   28.543(2)
_cell_angle_alpha                90
_cell_angle_beta                 90
_cell_angle_gamma                90
_cell_volume                     10032.9
loop_
_atom_site_label
_atom_site_type_symbol
_atom_site_fract_x
_atom_site_fract_y
_atom_site_fract_z
O11 O 0.1934(4) 0.1176(3) 0.6161(2)
O12 O 0.0954(3) 0.1322(3) 0.6382(3)
C24 C 0.1482(4) 0.0282(3) 0.6686(2)
C25 C 0.0977(3) 0.0122(3) 0.7017(3)
H19 H 0.0613 0.0450 0.7047
C27 C 0.1415(6) 0.1022(5) 0.6365(3)
Zn11 Zn 0.09291(2) 0.22091(2) 0.597931(12)
O10 O 0.35491(14) 0.77027(14) 0.03972(8)
C20 C 0.3703(2) 0.7361(2) 0.00263(13)
Zn8 Zn 0.5000 0.66109(3) 0.039922(17)
Zn12 Zn 0.40709(2) 0.77909(2) 0.097931(12)
Zn1 Zn -0.0000 0.33891(3) 0.539922(17)
O1 O 0.0000 0.22965(15) 0.57196(10)
O2 O -0.0000 0.4385(2) 0.50686(14)
O3 O 0.13735(14) 0.60469(13) 0.75551(8)
O4 O 0.18202(13) 0.76344(12) 0.85557(8)
O5 O 0.16119(12) 0.83362(12) 0.74639(9)
O6 O -0.0000 0.71020(17) 0.79394(10)
O7 O 0.07122(15) 0.38417(14) 0.58764(9)
O8 O 0.10901(16) 0.30468(15) 0.64029(9)
O9 O 0.42154(14) 0.69587(14) 0.99646(7)
C1 C 0.0000 0.5000 0.5000
C2 C 0.11919(17) 0.72608(17) 0.78883(11)
C3 C 0.12014(18) 0.68121(17) 0.74440(11)
H1 H 0.0761 0.6830 0.7295
H2 H 0.1531 0.7021 0.7229
C4 C 0.18433(17) 0.71711(18) 0.81504(11)
H3 H 0.1905 0.6649 0.8240
H4 H 0.2220 0.7318 0.7953
C5 C 0.10714(18) 0.80874(18) 0.77547(12)
H5 H 0.0646 0.8135 0.7589
H6 H 0.1049 0.8395 0.8035
C6 C 0.06081(17) 0.70190(17) 0.81962(11)
H7 H 0.0665 0.6498 0.8290
H8 H 0.0593 0.7328 0.8476
C7 C 0.1288(2) 0.55167(19) 0.72136(12)
C8 C 0.09806(18) 0.5643(2) 0.67847(11)
H9 H 0.0836 0.6124 0.6703
C9 C 0.08912(19) 0.5044(2) 0.64798(12)
H10 H 0.0686 0.5127 0.6191
C10 C 0.1097(2) 0.4335(2) 0.65940(12)
C11 C 0.1414(2) 0.4224(2) 0.70150(14)
H11 H 0.1560 0.3742 0.7092
C12 C 0.1523(2) 0.4799(2) 0.73266(14)
H12 H 0.1750 0.4713 0.7607
C13 C 0.0950(2) 0.3697(2) 0.62657(14)
C14 C 0.2305(2) 0.7540(2) 0.88898(12)
C15 C 0.2856(2) 0.7075(2) 0.88580(12)
H13 H 0.2927 0.6797 0.8586
C16 C 0.3306(2) 0.7017(2) 0.92240(13)
H14 H 0.3677 0.6700 0.9194
C17 C 0.3219(2) 0.7415(2) 0.96329(12)
C18 C 0.2665(2) 0.7887(2) 0.96600(13)
H15 H 0.2599 0.8168 0.9931
C19 C 0.2211(2) 0.7956(2) 0.93016(14)
H16 H 0.1841 0.8276 0.9331
C21 C 0.1527(2) 0.8995(2) 0.72310(15)
C22 C 0.2026(3) 0.9171(2) 0.69129(16)
H17 H 0.2387 0.8842 0.6872
C23 C 0.1999(3) 0.9821(3) 0.66564(18)
H18 H 0.2355 0.9939 0.6457
C26 C 0.1008(2) 0.9475(2) 0.7304(2)
H20 H 0.0685 0.9384 0.7533
O13 O -0.0000 0.5615(2) 0.49314(14)
Zn3 Zn 0.0000 0.66109(3) 0.460078(17)
Zn4 Zn 0.09291(2) 0.77909(2) 0.402069(12)
O23 O 0.0000 0.77035(15) 0.42804(10)
O24 O 0.13735(14) 0.39531(13) 0.24449(8)
O25 O 0.18202(13) 0.23656(12) 0.14443(8)
O26 O 0.16119(12) 0.16638(12) 0.25361(9)
O27 O -0.0000 0.28980(17) 0.20606(10)
O28 O 0.07122(15) 0.61583(14) 0.41236(9)
O29 O 0.10901(16) 0.69532(15) 0.35971(9)
O30 O 0.42154(14) 0.30413(14) 0.00354(7)
C54 C 0.11919(17) 0.27392(17) 0.21117(11)
C55 C 0.12014(18) 0.31879(17) 0.25560(11)
H41 H 0.0761 0.3170 0.2705
H42 H 0.1531 0.2979 0.2771
C56 C 0.18433(17) 0.28289(18) 0.18496(11)
H43 H 0.1905 0.3351 0.1760
H44 H 0.2220 0.2682 0.2047
C57 C 0.10714(18) 0.19126(18) 0.22453(12)
H45 H 0.0646 0.1865 0.2411
H46 H 0.1049 0.1605 0.1965
C58 C 0.06081(17) 0.29810(17) 0.18038(11)
H47 H 0.0665 0.3502 0.1710
H48 H 0.0593 0.2672 0.1524
C59 C 0.1288(2) 0.44833(19) 0.27864(12)
C60 C 0.09806(18) 0.4357(2) 0.32153(11)
H49 H 0.0836 0.3876 0.3297
C61 C 0.08912(19) 0.4956(2) 0.35202(12)
H50 H 0.0686 0.4873 0.3809
C62 C 0.1097(2) 0.5665(2) 0.34060(12)
C63 C 0.1414(2) 0.5776(2) 0.29850(14)
H51 H 0.1560 0.6258 0.2908
C64 C 0.1523(2) 0.5201(2) 0.26734(14)
H52 H 0.1750 0.5287 0.2393
C65 C 0.0950(2) 0.6303(2) 0.37343(14)
C66 C 0.2305(2) 0.2460(2) 0.11102(12)
C67 C 0.2856(2) 0.2925(2) 0.11420(12)
H53 H 0.2927 0.3203 0.1414
C68 C 0.3306(2) 0.2983(2) 0.07760(13)
H54 H 0.3677 0.3300 0.0806
C69 C 0.3219(2) 0.2585(2) 0.03671(12)
C70 C 0.2665(2) 0.2113(2) 0.03400(13)
H55 H 0.2599 0.1832 0.0069
C71 C 0.2211(2) 0.2044(2) 0.06984(14)
H56 H 0.1841 0.1724 0.0669
C73 C 0.1527(2) 0.1005(2) 0.27690(15)
C74 C 0.2026(3) 0.0829(2) 0.30871(16)
H57 H 0.2387 0.1158 0.3128
C75 C 0.1999(3) 0.0179(3) 0.33436(18)
H58 H 0.2355 0.0061 0.3543
C78 C 0.1008(2) 0.0525(2) 0.2696(2)
H60 H 0.0685 0.0616 0.2467
O43 O 0.07846(14) 0.30413(14) 0.49646(7)
O44 O 0.07846(14) 0.69587(14) 0.50354(7)
O47 O 0.14509(14) 0.22973(14) 0.53972(8)
O48 O 0.14509(14) 0.77027(14) 0.46028(8)
O52 O 0.0954(3) 0.8678(3) 0.3618(3)
O31 O 0.35491(14) 0.22973(14) 0.96028(8)
C72 C 0.3703(2) 0.2639(2) 0.99737(13)
Zn10 Zn 0.5000 0.33891(3) 0.960078(17)
Zn13 Zn 0.40709(2) 0.22091(2) 0.902069(12)
O32 O 0.1934(4) 0.8824(3) 0.3839(2)
C76 C 0.1482(4) 0.9718(3) 0.3314(2)
C77 C 0.0977(3) 0.9878(3) 0.2983(3)
H59 H 0.0613 0.9550 0.2953
C79 C 0.1415(6) 0.8978(5) 0.3635(3)
O21 O 0.8066(4) 0.1176(3) 0.6161(2)
O22 O 0.9046(3) 0.1322(3) 0.6382(3)
C50 C 0.8518(4) 0.0282(3) 0.6686(2)
C51 C 0.9023(3) 0.0122(3) 0.7017(3)
H39 H 0.9387 0.0450 0.7047
C53 C 0.8585(6) 0.1022(5) 0.6365(3)
Zn18 Zn 0.90709(2) 0.22091(2) 0.597931(12)
O20 O 0.64509(14) 0.77027(14) 0.03972(8)
C46 C 0.6297(2) 0.7361(2) 0.00263(13)
Zn17 Zn 0.59291(2) 0.77909(2) 0.097931(12)
Zn1_2 Zn 1.0000 0.33891(3) 0.539922(17)
O1_2 O 1.0000 0.22965(15) 0.57196(10)
O2_2 O 1.0000 0.4385(2) 0.50686(14)
O6_2 O 1.0000 0.71020(17) 0.79394(10)
C1_2 C 1.0000 0.5000 0.5000
O13_2 O 1.0000 0.5615(2) 0.49314(14)
O14 O 0.86265(14) 0.60469(13) 0.75551(8)
O15 O 0.81798(13) 0.76344(12) 0.85557(8)
O16 O 0.83881(12) 0.83362(12) 0.74639(9)
O17 O 0.92878(15) 0.38417(14) 0.58764(9)
O18 O 0.89099(16) 0.30468(15) 0.64029(9)
O19 O 0.57846(14) 0.69587(14) 0.99646(7)
C28 C 0.88081(17) 0.72608(17) 0.78883(11)
C29 C 0.87986(18) 0.68121(17) 0.74440(11)
H21 H 0.9239 0.6830 0.7295
H22 H 0.8469 0.7021 0.7229
C30 C 0.81567(17) 0.71711(18) 0.81504(11)
H23 H 0.8095 0.6649 0.8240
H24 H 0.7780 0.7318 0.7953
C31 C 0.89286(18) 0.80874(18) 0.77547(12)
H25 H 0.9354 0.8135 0.7589
H26 H 0.8951 0.8395 0.8035
C32 C 0.93919(17) 0.70190(17) 0.81962(11)
H27 H 0.9335 0.6498 0.8290
H28 H 0.9407 0.7328 0.8476
C33 C 0.8712(2) 0.55167(19) 0.72136(12)
C34 C 0.90194(18) 0.5643(2) 0.67847(11)
H29 H 0.9164 0.6124 0.6703
C35 C 0.91088(19) 0.5044(2) 0.64798(12)
H30 H 0.9314 0.5127 0.6191
C36 C 0.8903(2) 0.4335(2) 0.65940(12)
C37 C 0.8586(2) 0.4224(2) 0.70150(14)
H31 H 0.8440 0.3742 0.7092
C38 C 0.8477(2) 0.4799(2) 0.73266(14)
H32 H 0.8250 0.4713 0.7607
C39 C 0.9050(2) 0.3697(2) 0.62657(14)
C40 C 0.7695(2) 0.7540(2) 0.88898(12)
C41 C 0.7144(2) 0.7075(2) 0.88580(12)
H33 H 0.7073 0.6797 0.8586
C42 C 0.6694(2) 0.7017(2) 0.92240(13)
H34 H 0.6323 0.6700 0.9194
C43 C 0.6781(2) 0.7415(2) 0.96329(12)
C44 C 0.7335(2) 0.7887(2) 0.96600(13)
H35 H 0.7401 0.8168 0.9931
C45 C 0.7789(2) 0.7956(2) 0.93016(14)
H36 H 0.8159 0.8276 0.9331
C47 C 0.8473(2) 0.8995(2) 0.72310(15)
C48 C 0.7974(3) 0.9171(2) 0.69129(16)
H37 H 0.7613 0.8842 0.6872
C49 C 0.8001(3) 0.9821(3) 0.66564(18)
H38 H 0.7645 0.9939 0.6457
C52 C 0.8992(2) 0.9475(2) 0.7304(2)
H40 H 0.9315 0.9384 0.7533
Zn3_2 Zn 1.0000 0.66109(3) 0.460078(17)
O23_2 O 1.0000 0.77035(15) 0.42804(10)
O27_2 O 1.0000 0.28980(17) 0.20606(10)
O34 O 0.86265(14) 0.39531(13) 0.24449(8)
O35 O 0.81798(13) 0.23656(12) 0.14443(8)
O36 O 0.83881(12) 0.16638(12) 0.25361(9)
O37 O 0.92878(15) 0.61583(14) 0.41236(9)
O38 O 0.89099(16) 0.69532(15) 0.35971(9)
O39 O 0.57846(14) 0.30413(14) 0.00354(7)
C80 C 0.88081(17) 0.27392(17) 0.21117(11)
C81 C 0.87986(18) 0.31879(17) 0.25560(11)
H61 H 0.9239 0.3170 0.2705
H62 H 0.8469 0.2979 0.2771
C82 C 0.81567(17) 0.28289(18) 0.18496(11)
H63 H 0.8095 0.3351 0.1760
H64 H 0.7780 0.2682 0.2047
C83 C 0.89286(18) 0.19126(18) 0.22453(12)
H65 H 0.9354 0.1865 0.2411
H66 H 0.8951 0.1605 0.1965
C84 C 0.93919(17) 0.29810(17) 0.18038(11)
H67 H 0.9335 0.3502 0.1710
H68 H 0.9407 0.2672 0.1524
C85 C 0.8712(2) 0.44833(19) 0.27864(12)
C86 C 0.90194(18) 0.4357(2) 0.32153(11)
H69 H 0.9164 0.3876 0.3297
C87 C 0.91088(19) 0.4956(2) 0.35202(12)
H70 H 0.9314 0.4873 0.3809
C88 C 0.8903(2) 0.5665(2) 0.34060(12)
C89 C 0.8586(2) 0.5776(2) 0.29850(14)
H71 H 0.8440 0.6258 0.2908
C90 C 0.8477(2) 0.5201(2) 0.26734(14)
H72 H 0.8250 0.5287 0.2393
C91 C 0.9050(2) 0.6303(2) 0.37343(14)
C92 C 0.7695(2) 0.2460(2) 0.11102(12)
C93 C 0.7144(2) 0.2925(2) 0.11420(12)
H73 H 0.7073 0.3203 0.1414
C94 C 0.6694(2) 0.2983(2) 0.07760(13)
H74 H 0.6323 0.3300 0.0806
C95 C 0.6781(2) 0.2585(2) 0.03671(12)
C96 C 0.7335(2) 0.2113(2) 0.03400(13)
H75 H 0.7401 0.1832 0.0069
C97 C 0.7789(2) 0.2044(2) 0.06984(14)
H76 H 0.8159 0.1724 0.0669
C99 C 0.8473(2) 0.1005(2) 0.27690(15)
C100 C 0.7974(3) 0.0829(2) 0.30871(16)
H77 H 0.7613 0.1158 0.3128
C101 C 0.8001(3) 0.0179(3) 0.33436(18)
H78 H 0.7645 0.0061 0.3543
C104 C 0.8992(2) 0.0525(2) 0.2696(2)
H80 H 0.9315 0.0616 0.2467
Zn5 Zn 0.90709(2) 0.77909(2) 0.402069(12)
O45 O 0.92154(14) 0.69587(14) 0.50354(7)
O46 O 0.92154(14) 0.30413(14) 0.49646(7)
O49 O 0.85491(14) 0.77027(14) 0.46028(8)
O50 O 0.85491(14) 0.22973(14) 0.53972(8)
O53 O 0.9046(3) 0.8678(3) 0.3618(3)
O40 O 0.64509(14) 0.22973(14) 0.96028(8)
C98 C 0.6297(2) 0.2639(2) 0.99737(13)
Zn16 Zn 0.59291(2) 0.22091(2) 0.902069(12)
O41 O 0.8066(4) 0.8824(3) 0.3839(2)
C102 C 0.8518(4) 0.9718(3) 0.3314(2)
C103 C 0.9023(3) 0.9878(3) 0.2983(3)
H79 H 0.9387 0.9550 0.2953
C105 C 0.8585(6) 0.8978(5) 0.3635(3)
O32_2 O 0.3066(4) 0.1176(3) 0.8839(2)
O33 O 0.4046(3) 0.1322(3) 0.8618(3)
C76_2 C 0.3518(4) 0.0282(3) 0.8314(2)
C77_2 C 0.4023(3) 0.0122(3) 0.7983(3)
H59_2 H 0.4387 0.0450 0.7953
C79_2 C 0.3585(6) 0.1022(5) 0.8635(3)
O41_2 O 0.6934(4) 0.1176(3) 0.8839(2)
O42 O 0.5954(3) 0.1322(3) 0.8618(3)
C102_2 C 0.6482(4) 0.0282(3) 0.8314(2)
C103_2 C 0.5977(3) 0.0122(3) 0.7983(3)
H79_2 H 0.5613 0.0450 0.7953
C105_2 C 0.6415(6) 0.1022(5) 0.8635(3)
O1_3 O 0.5000 0.77035(15) 0.07196(10)
O2_3 O 0.5000 0.5615(2) 0.00686(14)
O3_2 O 0.36265(14) 0.39531(13) 0.25551(8)
O4_2 O 0.31798(13) 0.23656(12) 0.35557(8)
O5_2 O 0.33881(12) 0.16638(12) 0.24639(9)
O6_3 O 0.5000 0.28980(17) 0.29394(10)
O7_2 O 0.42878(15) 0.61583(14) 0.08764(9)
O8_2 O 0.39099(16) 0.69532(15) 0.14029(9)
C1_3 C 0.5000 0.5000 -0.0000
C2_2 C 0.38081(17) 0.27392(17) 0.28883(11)
C3_2 C 0.37986(18) 0.31879(17) 0.24440(11)
H1_2 H 0.4239 0.3170 0.2295
H2_2 H 0.3469 0.2979 0.2229
C4_2 C 0.31567(17) 0.28289(18) 0.31504(11)
H3_2 H 0.3095 0.3351 0.3240
H4_2 H 0.2780 0.2682 0.2953
C5_2 C 0.39286(18) 0.19126(18) 0.27547(12)
H5_2 H 0.4354 0.1865 0.2589
H6_2 H 0.3951 0.1605 0.3035
C6_2 C 0.43919(17) 0.29810(17) 0.31962(11)
H7_2 H 0.4335 0.3502 0.3290
H8_2 H 0.4407 0.2672 0.3476
C7_2 C 0.3712(2) 0.44833(19) 0.22136(12)
C8_2 C 0.40194(18) 0.4357(2) 0.17847(11)
H9_2 H 0.4164 0.3876 0.1703
C9_2 C 0.41088(19) 0.4956(2) 0.14798(12)
H10_2 H 0.4314 0.4873 0.1191
C10_2 C 0.3903(2) 0.5665(2) 0.15940(12)
C11_2 C 0.3586(2) 0.5776(2) 0.20150(14)
H11_2 H 0.3440 0.6258 0.2092
C12_2 C 0.3477(2) 0.5201(2) 0.23266(14)
H12_2 H 0.3250 0.5287 0.2607
C13_2 C 0.4050(2) 0.6303(2) 0.12657(14)
C14_2 C 0.2695(2) 0.2460(2) 0.38898(12)
C15_2 C 0.2144(2) 0.2925(2) 0.38580(12)
H13_2 H 0.2073 0.3203 0.3586
C16_2 C 0.1694(2) 0.2983(2) 0.42240(13)
H14_2 H 0.1323 0.3300 0.4194
C17_2 C 0.1781(2) 0.2585(2) 0.46329(12)
C18_2 C 0.2335(2) 0.2113(2) 0.46600(13)
H15_2 H 0.2401 0.1832 0.4931
C19_2 C 0.2789(2) 0.2044(2) 0.43016(14)
H16_2 H 0.3159 0.1724 0.4331
C20_2 C 0.1297(2) 0.2639(2) 0.50263(13)
C21_2 C 0.3473(2) 0.1005(2) 0.22310(15)
C22_2 C 0.2974(3) 0.0829(2) 0.19129(16)
H17_2 H 0.2613 0.1158 0.1872
C23_2 C 0.3001(3) 0.0179(3) 0.16564(18)
H18_2 H 0.2645 0.0061 0.1457
C26_2 C 0.3992(2) 0.0525(2) 0.2304(2)
H20_2 H 0.4315 0.0616 0.2533
O14_2 O 0.63735(14) 0.39531(13) 0.25551(8)
O15_2 O 0.68202(13) 0.23656(12) 0.35557(8)
O16_2 O 0.66119(12) 0.16638(12) 0.24639(9)
O17_2 O 0.57122(15) 0.61583(14) 0.08764(9)
O18_2 O 0.60901(16) 0.69532(15) 0.14029(9)
C28_2 C 0.61919(17) 0.27392(17) 0.28883(11)
C29_2 C 0.62014(18) 0.31879(17) 0.24440(11)
H21_2 H 0.5761 0.3170 0.2295
H22_2 H 0.6531 0.2979 0.2229
C30_2 C 0.68433(17) 0.28289(18) 0.31504(11)
H23_2 H 0.6905 0.3351 0.3240
H24_2 H 0.7220 0.2682 0.2953
C31_2 C 0.60714(18) 0.19126(18) 0.27547(12)
H25_2 H 0.5646 0.1865 0.2589
H26_2 H 0.6049 0.1605 0.3035
C32_2 C 0.56081(17) 0.29810(17) 0.31962(11)
H27_2 H 0.5665 0.3502 0.3290
H28_2 H 0.5593 0.2672 0.3476
C33_2 C 0.6288(2) 0.44833(19) 0.22136(12)
C34_2 C 0.59806(18) 0.4357(2) 0.17847(11)
H29_2 H 0.5836 0.3876 0.1703
C35_2 C 0.58912(19) 0.4956(2) 0.14798(12)
H30_2 H 0.5686 0.4873 0.1191
C36_2 C 0.6097(2) 0.5665(2) 0.15940(12)
C37_2 C 0.6414(2) 0.5776(2) 0.20150(14)
H31_2 H 0.6560 0.6258 0.2092
C38_2 C 0.6523(2) 0.5201(2) 0.23266(14)
H32_2 H 0.6750 0.5287 0.2607
C39_2 C 0.5950(2) 0.6303(2) 0.12657(14)
C40_2 C 0.7305(2) 0.2460(2) 0.38898(12)
C41_2 C 0.7856(2) 0.2925(2) 0.38580(12)
H33_2 H 0.7927 0.3203 0.3586
C42_2 C 0.8306(2) 0.2983(2) 0.42240(13)
H34_2 H 0.8677 0.3300 0.4194
C43_2 C 0.8219(2) 0.2585(2) 0.46329(12)
C44_2 C 0.7665(2) 0.2113(2) 0.46600(13)
H35_2 H 0.7599 0.1832 0.4931
C45_2 C 0.7211(2) 0.2044(2) 0.43016(14)
H36_2 H 0.6841 0.1724 0.4331
C46_2 C 0.8703(2) 0.2639(2) 0.50263(13)
C47_2 C 0.6527(2) 0.1005(2) 0.22310(15)
C48_2 C 0.7026(3) 0.0829(2) 0.19129(16)
H37_2 H 0.7387 0.1158 0.1872
C49_2 C 0.6999(3) 0.0179(3) 0.16564(18)
H38_2 H 0.7355 0.0061 0.1457
C52_2 C 0.6008(2) 0.0525(2) 0.2304(2)
H40_2 H 0.5685 0.0616 0.2533
O51 O 0.4046(3) 0.8678(3) 0.1382(3)
O54 O 0.5954(3) 0.8678(3) 0.1382(3)
C1_4 C 0.5000 0.5000 1.0000
O13_3 O 0.5000 0.4385(2) 0.99314(14)
O23_3 O 0.5000 0.22965(15) 0.92804(10)
O24_2 O 0.36265(14) 0.60469(13) 0.74449(8)
O25_2 O 0.31798(13) 0.76344(12) 0.64443(8)
O26_2 O 0.33881(12) 0.83362(12) 0.75361(9)
O27_3 O 0.5000 0.71020(17) 0.70606(10)
O28_2 O 0.42878(15) 0.38417(14) 0.91236(9)
O29_2 O 0.39099(16) 0.30468(15) 0.85971(9)
C54_2 C 0.38081(17) 0.72608(17) 0.71117(11)
C55_2 C 0.37986(18) 0.68121(17) 0.75560(11)
H41_2 H 0.4239 0.6830 0.7705
H42_2 H 0.3469 0.7021 0.7771
C56_2 C 0.31567(17) 0.71711(18) 0.68496(11)
H43_2 H 0.3095 0.6649 0.6760
H44_2 H 0.2780 0.7318 0.7047
C57_2 C 0.39286(18) 0.80874(18) 0.72453(12)
H45_2 H 0.4354 0.8135 0.7411
H46_2 H 0.3951 0.8395 0.6965
C58_2 C 0.43919(17) 0.70190(17) 0.68038(11)
H47_2 H 0.4335 0.6498 0.6710
H48_2 H 0.4407 0.7328 0.6524
C59_2 C 0.3712(2) 0.55167(19) 0.77864(12)
C60_2 C 0.40194(18) 0.5643(2) 0.82153(11)
H49_2 H 0.4164 0.6124 0.8297
C61_2 C 0.41088(19) 0.5044(2) 0.85202(12)
H50_2 H 0.4314 0.5127 0.8809
C62_2 C 0.3903(2) 0.4335(2) 0.84060(12)
C63_2 C 0.3586(2) 0.4224(2) 0.79850(14)
H51_2 H 0.3440 0.3742 0.7908
C64_2 C 0.3477(2) 0.4799(2) 0.76734(14)
H52_2 H 0.3250 0.4713 0.7393
C65_2 C 0.4050(2) 0.3697(2) 0.87343(14)
C66_2 C 0.2695(2) 0.7540(2) 0.61102(12)
C67_2 C 0.2144(2) 0.7075(2) 0.61420(12)
H53_2 H 0.2073 0.6797 0.6414
C68_2 C 0.1694(2) 0.7017(2) 0.57760(13)
H54_2 H 0.1323 0.6700 0.5806
C69_2 C 0.1781(2) 0.7415(2) 0.53671(12)
C70_2 C 0.2335(2) 0.7887(2) 0.53400(13)
H55_2 H 0.2401 0.8168 0.5069
C71_2 C 0.2789(2) 0.7956(2) 0.56984(14)
H56_2 H 0.3159 0.8276 0.5669
C72_2 C 0.1297(2) 0.7361(2) 0.49737(13)
C73_2 C 0.3473(2) 0.8995(2) 0.77690(15)
C74_2 C 0.2974(3) 0.9171(2) 0.80871(16)
H57_2 H 0.2613 0.8842 0.8128
C75_2 C 0.3001(3) 0.9821(3) 0.83436(18)
H58_2 H 0.2645 0.9939 0.8543
C78_2 C 0.3992(2) 0.9475(2) 0.7696(2)
H60_2 H 0.4315 0.9384 0.7467
O34_2 O 0.63735(14) 0.60469(13) 0.74449(8)
O35_2 O 0.68202(13) 0.76344(12) 0.64443(8)
O36_2 O 0.66119(12) 0.83362(12) 0.75361(9)
O37_2 O 0.57122(15) 0.38417(14) 0.91236(9)
O38_2 O 0.60901(16) 0.30468(15) 0.85971(9)
C80_2 C 0.61919(17) 0.72608(17) 0.71117(11)
C81_2 C 0.62014(18) 0.68121(17) 0.75560(11)
H61_2 H 0.5761 0.6830 0.7705
H62_2 H 0.6531 0.7021 0.7771
C82_2 C 0.68433(17) 0.71711(18) 0.68496(11)
H63_2 H 0.6905 0.6649 0.6760
H64_2 H 0.7220 0.7318 0.7047
C83_2 C 0.60714(18) 0.80874(18) 0.72453(12)
H65_2 H 0.5646 0.8135 0.7411
H66_2 H 0.6049 0.8395 0.6965
C84_2 C 0.56081(17) 0.70190(17) 0.68038(11)
H67_2 H 0.5665 0.6498 0.6710
H68_2 H 0.5593 0.7328 0.6524
C85_2 C 0.6288(2) 0.55167(19) 0.77864(12)
C86_2 C 0.59806(18) 0.5643(2) 0.82153(11)
H69_2 H 0.5836 0.6124 0.8297
C87_2 C 0.58912(19) 0.5044(2) 0.85202(12)
H70_2 H 0.5686 0.5127 0.8809
C88_2 C 0.6097(2) 0.4335(2) 0.84060(12)
C89_2 C 0.6414(2) 0.4224(2) 0.79850(14)
H71_2 H 0.6560 0.3742 0.7908
C90_2 C 0.6523(2) 0.4799(2) 0.76734(14)
H72_2 H 0.6750 0.4713 0.7393
C91_2 C 0.5950(2) 0.3697(2) 0.87343(14)
C92_2 C 0.7305(2) 0.7540(2) 0.61102(12)
C93_2 C 0.7856(2) 0.7075(2) 0.61420(12)
H73_2 H 0.7927 0.6797 0.6414
C94_2 C 0.8306(2) 0.7017(2) 0.57760(13)
H74_2 H 0.8677 0.6700 0.5806
C95_2 C 0.8219(2) 0.7415(2) 0.53671(12)
C96_2 C 0.7665(2) 0.7887(2) 0.53400(13)
H75_2 H 0.7599 0.8168 0.5069
C97_2 C 0.7211(2) 0.7956(2) 0.56984(14)
H76_2 H 0.6841 0.8276 0.5669
C98_2 C 0.8703(2) 0.7361(2) 0.49737(13)
C99_2 C 0.6527(2) 0.8995(2) 0.77690(15)
C100_2 C 0.7026(3) 0.9171(2) 0.80871(16)
H77_2 H 0.7387 0.8842 0.8128
C101_2 C 0.6999(3) 0.9821(3) 0.83436(18)
H78_2 H 0.7355 0.9939 0.8543
C104_2 C 0.6008(2) 0.9475(2) 0.7696(2)
H80_2 H 0.5685 0.9384 0.7467
O11_2 O 0.3066(4) 0.8824(3) 0.1161(2)
C24_2 C 0.3518(4) 0.9718(3) 0.1686(2)
C25_2 C 0.4023(3) 0.9878(3) 0.2017(3)
H19_2 H 0.4387 0.9550 0.2047
C27_2 C 0.3585(6) 0.8978(5) 0.1365(3)
O21_2 O 0.6934(4) 0.8824(3) 0.1161(2)
C50_2 C 0.6482(4) 0.9718(3) 0.1686(2)
C51_2 C 0.5977(3) 0.9878(3) 0.2017(3)
H39_2 H 0.5613 0.9550 0.2047
C53_2 C 0.6415(6) 0.8978(5) 0.1365(3)
loop_
_geom_bond_atom_site_label_1
_geom_bond_atom_site_label_2
_geom_bond_site_symmetry_1
_geom_bond_site_symmetry_2
O11 C27 1_555 1_555
O12 C27 1_555 1_555
C25 C24 1_555 1_555
H19 C25 1_555 1_555
C27 C24 1_555 1_555
Zn11 O12 1_555 1_555
O10 C20 1_555 1_555
Zn12 O10 1_555 1_555
Zn1 O1 1_555 1_555
Zn11 O1 1_555 1_555
O2 Zn1 1_555 1_555
O3 C3 1_555 1_555
O4 C4 1_555 1_555
O5 C5 1_555 1_555
O6 C6 1_555 1_555
O7 Zn1 1_555 1_555
O8 Zn11 1_555 1_555
C1 O2 1_555 1_555
C2 C3 1_555 1_555
C3 H1 1_555 1_555
H2 C3 1_555 1_555
C4 C2 1_555 1_555
H3 C4 1_555 1_555
H4 C4 1_555 1_555
C5 C2 1_555 1_555
H5 C5 1_555 1_555
H6 C5 1_555 1_555
C6 C2 1_555 1_555
H7 C6 1_555 1_555
H8 C6 1_555 1_555
C7 O3 1_555 1_555
C8 C7 1_555 1_555
H9 C8 1_555 1_555
C9 C8 1_555 1_555
H10 C9 1_555 1_555
C10 C9 1_555 1_555
C11 C10 1_555 1_555
H11 C11 1_555 1_555
C12 C7 1_555 1_555
H12 C12 1_555 1_555
C13 O7 1_555 1_555
C14 O4 1_555 1_555
C15 C14 1_555 1_555
H13 C15 1_555 1_555
C16 C15 1_555 1_555
H14 C16 1_555 1_555
C17 C16 1_555 1_555
C18 C17 1_555 1_555
H15 C18 1_555 1_555
C19 C14 1_555 1_555
H16 C19 1_555 1_555
C21 O5 1_555 1_555
C22 C21 1_555 1_555
H17 C22 1_555 1_555
C23 C22 1_555 1_555
H18 C23 1_555 1_555
C26 C21 1_555 1_555
H20 C26 1_555 1_555
O13 C1 1_555 1_555
Zn3 O13 1_555 1_555
Zn4 O23 1_555 1_555
O23 Zn3 1_555 1_555
O24 C55 1_555 1_555
O25 C56 1_555 1_555
O26 C57 1_555 1_555
O27 C58 1_555 1_555
O28 Zn3 1_555 1_555
O29 Zn4 1_555 1_555
C54 C55 1_555 1_555
C55 H41 1_555 1_555
H42 C55 1_555 1_555
C56 C54 1_555 1_555
H43 C56 1_555 1_555
H44 C56 1_555 1_555
C57 C54 1_555 1_555
H45 C57 1_555 1_555
H46 C57 1_555 1_555
C58 C54 1_555 1_555
H47 C58 1_555 1_555
H48 C58 1_555 1_555
C59 O24 1_555 1_555
C60 C59 1_555 1_555
H49 C60 1_555 1_555
C61 C60 1_555 1_555
H50 C61 1_555 1_555
C62 C61 1_555 1_555
C63 C62 1_555 1_555
H51 C63 1_555 1_555
C64 C59 1_555 1_555
H52 C64 1_555 1_555
C65 O28 1_555 1_555
C66 O25 1_555 1_555
C67 C66 1_555 1_555
H53 C67 1_555 1_555
C68 C67 1_555 1_555
H54 C68 1_555 1_555
C69 C68 1_555 1_555
C70 C69 1_555 1_555
H55 C70 1_555 1_555
C71 C66 1_555 1_555
H56 C71 1_555 1_555
C73 O26 1_555 1_555
C74 C73 1_555 1_555
H57 C74 1_555 1_555
C75 C74 1_555 1_555
H58 C75 1_555 1_555
C78 C73 1_555 1_555
H60 C78 1_555 1_555
O43 Zn1 1_555 1_555
O44 Zn3 1_555 1_555
O47 Zn11 1_555 1_555
O48 Zn4 1_555 1_555
O52 Zn4 1_555 1_555
O8 C13 1_555 1_555
C10 C13 1_555 1_555
C11 C12 1_555 1_555
C18 C19 1_555 1_555
O29 C65 1_555 1_555
C62 C65 1_555 1_555
C63 C64 1_555 1_555
C70 C71 1_555 1_555
O31 C72 1_555 1_555
Zn13 O31 1_555 1_555
O32 C79 1_555 1_555
O52 C79 1_555 1_555
C77 C76 1_555 1_555
H59 C77 1_555 1_555
C79 C76 1_555 1_555
O21 C53 1_555 1_555
O22 C53 1_555 1_555
C51 C50 1_555 1_555
H39 C51 1_555 1_555
C53 C50 1_555 1_555
Zn18 O22 1_555 1_555
O20 C46 1_555 1_555
Zn17 O20 1_555 1_555
Zn1_2 O1_2 1_555 1_555
O1_2 Zn18 1_555 1_555
O2_2 Zn1_2 1_555 1_555
C1_2 O2_2 1_555 1_555
O13_2 C1_2 1_555 1_555
O14 C29 1_555 1_555
O15 C30 1_555 1_555
O16 C31 1_555 1_555
O17 Zn1_2 1_555 1_555
O18 C39 1_555 1_555
C28 C29 1_555 1_555
C29 H21 1_555 1_555
H22 C29 1_555 1_555
C30 C28 1_555 1_555
H23 C30 1_555 1_555
H24 C30 1_555 1_555
C31 C28 1_555 1_555
H25 C31 1_555 1_555
H26 C31 1_555 1_555
C32 O6_2 1_555 1_555
H27 C32 1_555 1_555
H28 C32 1_555 1_555
C33 O14 1_555 1_555
C34 C33 1_555 1_555
H29 C34 1_555 1_555
C35 C34 1_555 1_555
H30 C35 1_555 1_555
C36 C35 1_555 1_555
C37 C36 1_555 1_555
H31 C37 1_555 1_555
C38 C33 1_555 1_555
H32 C38 1_555 1_555
C39 O17 1_555 1_555
C40 O15 1_555 1_555
C41 C40 1_555 1_555
H33 C41 1_555 1_555
C42 C41 1_555 1_555
H34 C42 1_555 1_555
C43 C42 1_555 1_555
C44 C43 1_555 1_555
H35 C44 1_555 1_555
C45 C40 1_555 1_555
H36 C45 1_555 1_555
C47 O16 1_555 1_555
C48 C47 1_555 1_555
H37 C48 1_555 1_555
C49 C48 1_555 1_555
H38 C49 1_555 1_555
C52 C47 1_555 1_555
H40 C52 1_555 1_555
Zn3_2 O13_2 1_555 1_555
O23_2 Zn3_2 1_555 1_555
O34 C81 1_555 1_555
O35 C82 1_555 1_555
O36 C83 1_555 1_555
O37 Zn3_2 1_555 1_555
O38 C91 1_555 1_555
C80 C81 1_555 1_555
C81 H61 1_555 1_555
H62 C81 1_555 1_555
C82 C80 1_555 1_555
H63 C82 1_555 1_555
H64 C82 1_555 1_555
C83 C80 1_555 1_555
H65 C83 1_555 1_555
H66 C83 1_555 1_555
C84 O27_2 1_555 1_555
H67 C84 1_555 1_555
H68 C84 1_555 1_555
C85 O34 1_555 1_555
C86 C85 1_555 1_555
H69 C86 1_555 1_555
C87 C86 1_555 1_555
H70 C87 1_555 1_555
C88 C87 1_555 1_555
C89 C88 1_555 1_555
H71 C89 1_555 1_555
C90 C85 1_555 1_555
H72 C90 1_555 1_555
C91 O37 1_555 1_555
C92 O35 1_555 1_555
C93 C92 1_555 1_555
H73 C93 1_555 1_555
C94 C93 1_555 1_555
H74 C94 1_555 1_555
C95 C94 1_555 1_555
C96 C95 1_555 1_555
H75 C96 1_555 1_555
C97 C92 1_555 1_555
H76 C97 1_555 1_555
C99 O36 1_555 1_555
C100 C99 1_555 1_555
H77 C100 1_555 1_555
C101 C100 1_555 1_555
H78 C101 1_555 1_555
C104 C99 1_555 1_555
H80 C104 1_555 1_555
Zn5 O23_2 1_555 1_555
Zn18 O18 1_555 1_555
O45 Zn3_2 1_555 1_555
O46 Zn1_2 1_555 1_555
O49 Zn5 1_555 1_555
O50 Zn18 1_555 1_555
O53 Zn5 1_555 1_555
C28 C32 1_555 1_555
C36 C39 1_555 1_555
C37 C38 1_555 1_555
C44 C45 1_555 1_555
O38 Zn5 1_555 1_555
C80 C84 1_555 1_555
C88 C91 1_555 1_555
C89 C90 1_555 1_555
C96 C97 1_555 1_555
O40 C98 1_555 1_555
Zn16 O40 1_555 1_555
O41 C105 1_555 1_555
O53 C105 1_555 1_555
C103 C102 1_555 1_555
H79 C103 1_555 1_555
C105 C102 1_555 1_555
O32_2 C79_2 1_555 1_555
O33 C79_2 1_555 1_555
C77_2 C76_2 1_555 1_555
H59_2 C77_2 1_555 1_555
C79_2 C76_2 1_555 1_555
O41_2 C105_2 1_555 1_555
O42 C105_2 1_555 1_555
C103_2 C102_2 1_555 1_555
H79_2 C103_2 1_555 1_555
C105_2 C102_2 1_555 1_555
Zn13 O33 1_555 1_555
Zn16 O42 1_555 1_555
Zn8 O1_3 1_555 1_555
Zn12 O1_3 1_555 1_555
O1_3 Zn17 1_555 1_555
O2_3 Zn8 1_555 1_555
O3_2 C3_2 1_555 1_555
O4_2 C4_2 1_555 1_555
O5_2 C5_2 1_555 1_555
O6_3 C6_2 1_555 1_555
O7_2 Zn8 1_555 1_555
O8_2 Zn12 1_555 1_555
O43 C20_2 1_555 1_555
O47 C20_2 1_555 1_555
C1_3 O2_3 1_555 1_555
C2_2 C3_2 1_555 1_555
C3_2 H1_2 1_555 1_555
H2_2 C3_2 1_555 1_555
C4_2 C2_2 1_555 1_555
H3_2 C4_2 1_555 1_555
H4_2 C4_2 1_555 1_555
C5_2 C2_2 1_555 1_555
H5_2 C5_2 1_555 1_555
H6_2 C5_2 1_555 1_555
C6_2 C2_2 1_555 1_555
H7_2 C6_2 1_555 1_555
H8_2 C6_2 1_555 1_555
C7_2 O3_2 1_555 1_555
C8_2 C7_2 1_555 1_555
H9_2 C8_2 1_555 1_555
C9_2 C8_2 1_555 1_555
H10_2 C9_2 1_555 1_555
C10_2 C9_2 1_555 1_555
C11_2 C10_2 1_555 1_555
H11_2 C11_2 1_555 1_555
C12_2 C7_2 1_555 1_555
H12_2 C12_2 1_555 1_555
C13_2 O7_2 1_555 1_555
C14_2 O4_2 1_555 1_555
C15_2 C14_2 1_555 1_555
H13_2 C15_2 1_555 1_555
C16_2 C15_2 1_555 1_555
H14_2 C16_2 1_555 1_555
C17_2 C16_2 1_555 1_555
C18_2 C17_2 1_555 1_555
H15_2 C18_2 1_555 1_555
C19_2 C14_2 1_555 1_555
H16_2 C19_2 1_555 1_555
C20_2 C17_2 1_555 1_555
C21_2 O5_2 1_555 1_555
C22_2 C21_2 1_555 1_555
H17_2 C22_2 1_555 1_555
C23_2 C22_2 1_555 1_555
H18_2 C23_2 1_555 1_555
C26_2 C21_2 1_555 1_555
H20_2 C26_2 1_555 1_555
O14_2 C29_2 1_555 1_555
O15_2 C30_2 1_555 1_555
O16_2 C31_2 1_555 1_555
O17_2 Zn8 1_555 1_555
O18_2 C39_2 1_555 1_555
O46 C46_2 1_555 1_555
O50 C46_2 1_555 1_555
C28_2 C29_2 1_555 1_555
C29_2 H21_2 1_555 1_555
H22_2 C29_2 1_555 1_555
C30_2 C28_2 1_555 1_555
H23_2 C30_2 1_555 1_555
H24_2 C30_2 1_555 1_555
C31_2 C28_2 1_555 1_555
H25_2 C31_2 1_555 1_555
H26_2 C31_2 1_555 1_555
C32_2 O6_3 1_555 1_555
H27_2 C32_2 1_555 1_555
H28_2 C32_2 1_555 1_555
C33_2 O14_2 1_555 1_555
C34_2 C33_2 1_555 1_555
H29_2 C34_2 1_555 1_555
C35_2 C34_2 1_555 1_555
H30_2 C35_2 1_555 1_555
C36_2 C35_2 1_555 1_555
C37_2 C36_2 1_555 1_555
H31_2 C37_2 1_555 1_555
C38_2 C33_2 1_555 1_555
H32_2 C38_2 1_555 1_555
C39_2 O17_2 1_555 1_555
C40_2 O15_2 1_555 1_555
C41_2 C40_2 1_555 1_555
H33_2 C41_2 1_555 1_555
C42_2 C41_2 1_555 1_555
H34_2 C42_2 1_555 1_555
C43_2 C42_2 1_555 1_555
C44_2 C43_2 1_555 1_555
H35_2 C44_2 1_555 1_555
C45_2 C40_2 1_555 1_555
H36_2 C45_2 1_555 1_555
C46_2 C43_2 1_555 1_555
C47_2 O16_2 1_555 1_555
C48_2 C47_2 1_555 1_555
H37_2 C48_2 1_555 1_555
C49_2 C48_2 1_555 1_555
H38_2 C49_2 1_555 1_555
C52_2 C47_2 1_555 1_555
H40_2 C52_2 1_555 1_555
Zn17 O18_2 1_555 1_555
O51 Zn12 1_555 1_555
O54 Zn17 1_555 1_555
O8_2 C13_2 1_555 1_555
C10_2 C13_2 1_555 1_555
C11_2 C12_2 1_555 1_555
C18_2 C19_2 1_555 1_555
C28_2 C32_2 1_555 1_555
C36_2 C39_2 1_555 1_555
C37_2 C38_2 1_555 1_555
C44_2 C45_2 1_555 1_555
O13_3 C1_4 1_555 1_555
Zn10 O13_3 1_555 1_555
Zn13 O23_3 1_555 1_555
O23_3 Zn10 1_555 1_555
O24_2 C55_2 1_555 1_555
O25_2 C56_2 1_555 1_555
O26_2 C57_2 1_555 1_555
O27_3 C58_2 1_555 1_555
O28_2 Zn10 1_555 1_555
O29_2 Zn13 1_555 1_555
O44 C72_2 1_555 1_555
O48 C72_2 1_555 1_555
C54_2 C55_2 1_555 1_555
C55_2 H41_2 1_555 1_555
H42_2 C55_2 1_555 1_555
C56_2 C54_2 1_555 1_555
H43_2 C56_2 1_555 1_555
H44_2 C56_2 1_555 1_555
C57_2 C54_2 1_555 1_555
H45_2 C57_2 1_555 1_555
H46_2 C57_2 1_555 1_555
C58_2 C54_2 1_555 1_555
H47_2 C58_2 1_555 1_555
H48_2 C58_2 1_555 1_555
C59_2 O24_2 1_555 1_555
C60_2 C59_2 1_555 1_555
H49_2 C60_2 1_555 1_555
C61_2 C60_2 1_555 1_555
H50_2 C61_2 1_555 1_555
C62_2 C61_2 1_555 1_555
C63_2 C62_2 1_555 1_555
H51_2 C63_2 1_555 1_555
C64_2 C59_2 1_555 1_555
H52_2 C64_2 1_555 1_555
C65_2 O28_2 1_555 1_555
C66_2 O25_2 1_555 1_555
C67_2 C66_2 1_555 1_555
H53_2 C67_2 1_555 1_555
C68_2 C67_2 1_555 1_555
H54_2 C68_2 1_555 1_555
C69_2 C68_2 1_555 1_555
C70_2 C69_2 1_555 1_555
H55_2 C70_2 1_555 1_555
C71_2 C66_2 1_555 1_555
H56_2 C71_2 1_555 1_555
C72_2 C69_2 1_555 1_555
C73_2 O26_2 1_555 1_555
C74_2 C73_2 1_555 1_555
H57_2 C74_2 1_555 1_555
C75_2 C74_2 1_555 1_555
H58_2 C75_2 1_555 1_555
C78_2 C73_2 1_555 1_555
H60_2 C78_2 1_555 1_555
O34_2 C81_2 1_555 1_555
O35_2 C82_2 1_555 1_555
O36_2 C83_2 1_555 1_555
O37_2 Zn10 1_555 1_555
O38_2 C91_2 1_555 1_555
O45 C98_2 1_555 1_555
O49 C98_2 1_555 1_555
C80_2 C81_2 1_555 1_555
C81_2 H61_2 1_555 1_555
H62_2 C81_2 1_555 1_555
C82_2 C80_2 1_555 1_555
H63_2 C82_2 1_555 1_555
H64_2 C82_2 1_555 1_555
C83_2 C80_2 1_555 1_555
H65_2 C83_2 1_555 1_555
H66_2 C83_2 1_555 1_555
C84_2 O27_3 1_555 1_555
H67_2 C84_2 1_555 1_555
H68_2 C84_2 1_555 1_555
C85_2 O34_2 1_555 1_555
C86_2 C85_2 1_555 1_555
H69_2 C86_2 1_555 1_555
C87_2 C86_2 1_555 1_555
H70_2 C87_2 1_555 1_555
C88_2 C87_2 1_555 1_555
C89_2 C88_2 1_555 1_555
H71_2 C89_2 1_555 1_555
C90_2 C85_2 1_555 1_555
H72_2 C90_2 1_555 1_555
C91_2 O37_2 1_555 1_555
C92_2 O35_2 1_555 1_555
C93_2 C92_2 1_555 1_555
H73_2 C93_2 1_555 1_555
C94_2 C93_2 1_555 1_555
H74_2 C94_2 1_555 1_555
C95_2 C94_2 1_555 1_555
C96_2 C95_2 1_555 1_555
H75_2 C96_2 1_555 1_555
C97_2 C92_2 1_555 1_555
H76_2 C97_2 1_555 1_555
C98_2 C95_2 1_555 1_555
C99_2 O36_2 1_555 1_555
C100_2 C99_2 1_555 1_555
H77_2 C100_2 1_555 1_555
C101_2 C100_2 1_555 1_555
H78_2 C101_2 1_555 1_555
C104_2 C99_2 1_555 1_555
H80_2 C104_2 1_555 1_555
Zn16 O23_3 1_555 1_555
O29_2 C65_2 1_555 1_555
C62_2 C65_2 1_555 1_555
C63_2 C64_2 1_555 1_555
C70_2 C71_2 1_555 1_555
O38_2 Zn16 1_555 1_555
C80_2 C84_2 1_555 1_555
C88_2 C91_2 1_555 1_555
C89_2 C90_2 1_555 1_555
C96_2 C97_2 1_555 1_555
O11_2 C27_2 1_555 1_555
O51 C27_2 1_555 1_555
C25_2 C24_2 1_555 1_555
H19_2 C25_2 1_555 1_555
C27_2 C24_2 1_555 1_555
O21_2 C53_2 1_555 1_555
O54 C53_2 1_555 1_555
C51_2 C50_2 1_555 1_555
H39_2 C51_2 1_555 1_555
C53_2 C50_2 1_555 1_555

#END
