
###############################################################################
#
# This file contains modified crystal structure data generated from the
# MOF subset of the Cambridge Structural Database (CSD) v543 
# hosted by the Cambridge Crystallographic Data Centre (CCDC).
#
# This work is licensed under the Creative Commons
# Attribution-NonCommercial-ShareAlike 4.0 International License.
# To view a copy of this license, visit
# http://creativecommons.org/licenses/by-nc-sa/4.0/
# or send a letter to
# Creative Commons, PO Box 1866, Mountain View, CA 94042, USA.
#
# CIF created using the CSD Python API on 29 September 2022
# The structure has been converted into the P1 space group
# The structure has a 3D framework
# The original CSD entry DUDXOS is in the triclinic crystal system
# The framework has been calculated to contain at least 10.0% void space
# The void calculation uses a probe of radius 1.32A, grid spacing 0.4
# H atom positions have been added when not included in the experimental data
#
###############################################################################

data_DUDXOS
_chemical_formula_moiety         '(C48 H52 La2 N4 O22)n'
_symmetry_cell_setting           triclinic
_symmetry_space_group_name_H-M   'P 1'
_symmetry_Int_Tables_number      1
_space_group_name_Hall           'P 1'
loop_
_symmetry_equiv_pos_site_id
_symmetry_equiv_pos_as_xyz
1 x,y,z
_cell_length_a                   12.489(2)
_cell_length_b                   12.747(2)
_cell_length_c                   13.791(2)
_cell_angle_alpha                108.288(2)
_cell_angle_beta                 104.348(2)
_cell_angle_gamma                104.863(2)
_cell_volume                     1881.52
loop_
_atom_site_label
_atom_site_type_symbol
_atom_site_fract_x
_atom_site_fract_y
_atom_site_fract_z
_atom_site_U_iso_or_equiv
_atom_site_thermal_displace_type
C18 C 0.0196(5) 0.3356(5) 0.0598(4) 0.0395 Uani
H18 H 0.0163 0.2622 0.0646 0.0470 Uiso
O15 O 0.1852(3) 0.5341(3) 0.3470(3) 0.0294 Uani
O16 O 0.1405(3) 0.3413(3) 0.2660(3) 0.0287 Uani
C31 C 0.1367(4) 0.4368(5) 0.2612(4) 0.0253 Uani
C32 C 0.0775(4) 0.4415(4) 0.1550(4) 0.0252 Uani
C33 C 0.0822(5) 0.5490(5) 0.1494(4) 0.0296 Uani
C34 C 0.0274(4) 0.5524(5) 0.0459(4) 0.0274 Uani
C35 C 0.0319(6) 0.6632(5) 0.0391(5) 0.0465 Uani
H23 H 0.0704 0.7351 0.1029 0.0560 Uiso
O17 O 0.1356(4) 0.6529(4) 0.2376(3) 0.0540 Uani
La7 La 0.31513(2) 0.45206(2) 0.45446(2) 0.0171 Uani
H46 H 0.220736 0.666086 0.270516 . .
C24 C 0.3584(5) 0.4626(5) 0.0978(4) 0.0345 Uiso
H20 H 0.2911 0.4435 0.1183 0.0410 Uiso
O18 O 0.3920(3) 0.4728(3) 0.3083(3) 0.0303 Uani
O19 O 0.5900(3) 0.5438(3) 0.3584(2) 0.0274 Uani
C37 C 0.4844(4) 0.5052(5) 0.2893(4) 0.0257 Uani
C38 C 0.4728(4) 0.4993(5) 0.1759(4) 0.0284 Uani
C39 C 0.5708(4) 0.5267(5) 0.1467(4) 0.0275 Uani
C40 C 0.5573(4) 0.5189(5) 0.0386(4) 0.0281 Uani
C41 C 0.6579(4) 0.5461(6) 0.0060(4) 0.0407 Uani
H25 H 0.7357 0.5702 0.0568 0.0490 Uiso
O20 O 0.6826(3) 0.5640(3) 0.2179(3) 0.0352 Uiso
La4 La 0.68487(2) 0.54794(2) 0.54554(2) 0.0171 Uani
H45 H 0.691416 0.502155 0.245227 . .
O1 O 0.7308(3) 0.3985(3) 0.4121(3) 0.0339 Uani
C1 C 0.6804(6) 0.3371(6) 0.3132(5) 0.0476 Uani
H1 H 0.5988 0.2895 0.2882 0.0570 Uiso
N1 N 0.7312(7) 0.3324(7) 0.2397(5) 0.0805 Uani
C2 C 0.8540(8) 0.4000(10) 0.2683(9) 0.1087 Uani
H2 H 0.8939 0.4325 0.3478 0.1630 Uiso
H3 H 0.8604 0.4651 0.2440 0.1630 Uiso
H4 H 0.8915 0.3486 0.2327 0.1630 Uiso
C3 C 0.6625(13) 0.2637(12) 0.1228(7) 0.1463 Uani
H5 H 0.6807 0.1918 0.0974 0.2190 Uiso
H6 H 0.6831 0.3117 0.0822 0.2190 Uiso
H7 H 0.5776 0.2418 0.1107 0.2190 Uiso
O2 O 0.8521(3) 0.6660(4) 0.5091(3) 0.0386 Uani
C4 C 0.8830(8) 0.7403(9) 0.4738(9) 0.0904 Uani
H8 H 0.8280 0.7735 0.4478 0.1090 Uiso
N2 N 0.9937(8) 0.7775(8) 0.4702(11) 0.1381 Uani
H12 H 0.9488 0.8882 0.3880 0.3520 Uiso
H13 H 0.9962 0.7957 0.3198 0.3520 Uiso
O3 O 0.4980(3) 0.3685(3) 0.4595(3) 0.0247 Uani
O4 O 0.3157(3) 0.2414(3) 0.4031(3) 0.0288 Uani
C7 C 0.4268(4) 0.2657(4) 0.4401(4) 0.0221 Uani
C8 C 0.4725(4) 0.1764(4) 0.4636(4) 0.0237 Uani
C9 C 0.3947(4) 0.0690(4) 0.4494(4) 0.0260 Uani
O5 O 0.2752(3) 0.0372(3) 0.4094(4) 0.0436 Uani
O6 O 0.8148(3) 0.4659(3) 0.6530(3) 0.0294 Uani
O7 O 0.8595(3) 0.6587(3) 0.7340(3) 0.0287 Uani
C13 C 0.8633(4) 0.5632(5) 0.7388(4) 0.0253 Uani
C14 C 0.9225(4) 0.5585(4) 0.8450(4) 0.0252 Uani
C15 C 0.9178(5) 0.4510(5) 0.8506(4) 0.0296 Uani
C16 C 0.9726(4) 0.4476(5) 0.9541(4) 0.0274 Uani
C17 C 0.9681(6) 0.3368(5) 0.9609(5) 0.0465 Uani
H17 H 0.9296 0.2649 0.8971 0.0560 Uiso
O8 O 0.8644(4) 0.3471(4) 0.7624(3) 0.0540 Uani
O9 O 0.6080(3) 0.5272(3) 0.6917(3) 0.0303 Uani
O10 O 0.4100(3) 0.4562(3) 0.6416(2) 0.0274 Uani
C19 C 0.5156(4) 0.4948(5) 0.7107(4) 0.0257 Uani
C20 C 0.5272(4) 0.5007(5) 0.8241(4) 0.0284 Uani
C21 C 0.4292(4) 0.4733(5) 0.8533(4) 0.0275 Uani
C22 C 0.4427(4) 0.4811(5) 0.9614(4) 0.0281 Uani
C23 C 0.3421(4) 0.4539(6) 0.9940(4) 0.0407 Uani
H19 H 0.2643 0.4298 0.9432 0.0490 Uiso
O11 O 0.3174(3) 0.4360(3) 0.7821(3) 0.0352 Uiso
C28 C 0.5619(4) 0.0139(4) 0.5207(4) 0.0256 Uani
C29 C 0.6403(5) 0.1246(5) 0.5316(5) 0.0374 Uani
H21 H 0.7237 0.1443 0.5593 0.0450 Uiso
C30 C 0.5963(5) 0.2001(5) 0.5029(5) 0.0347 Uani
H22 H 0.6496 0.2721 0.5090 0.0420 Uiso
C36 C 0.9804(5) 0.6644(5) 0.9402(4) 0.0395 Uani
H24 H 0.9837 0.7378 0.9354 0.0470 Uiso
C42 C 0.6416(5) 0.5374(5) 0.9022(4) 0.0345 Uiso
H26 H 0.7089 0.5565 0.8817 0.0410 Uiso
O24 O 0.5020(3) 0.6315(3) 0.5405(3) 0.0247 Uani
O26 O 0.6843(3) 0.7586(3) 0.5969(3) 0.0288 Uani
H41 H 0.249963 0.0361334 0.334809 . .
H42 H 0.903099 0.349133 0.707857 . .
H43 H 0.301158 0.361526 0.71962 . .
C10 C 0.4381(4) 0.9861(4) 0.4793(4) 0.0256 Uani
C11 C 0.3597(5) 0.8754(5) 0.4684(5) 0.0374 Uani
H15 H 0.2763 0.8557 0.4407 0.0450 Uiso
C12 C 0.4037(5) 0.7999(5) 0.4971(5) 0.0347 Uani
H16 H 0.3504 0.7279 0.4910 0.0420 Uiso
C25 C 0.5732(4) 0.7343(4) 0.5599(4) 0.0221 Uani
C26 C 0.5275(4) 0.8236(4) 0.5364(4) 0.0237 Uani
C27 C 0.6053(4) 0.9310(4) 0.5506(4) 0.0260 Uani
O14 O 0.7248(3) 0.9628(3) 0.5906(4) 0.0436 Uani
O21 O 0.2692(3) 0.6015(3) 0.5879(3) 0.0339 Uani
C43 C 0.3196(6) 0.6629(6) 0.6868(5) 0.0476 Uani
H27 H 0.4012 0.7105 0.7118 0.0570 Uiso
N3 N 0.2688(7) 0.6676(7) 0.7603(5) 0.0805 Uani
C44 C 0.1460(8) 0.6000(10) 0.7317(9) 0.1087 Uani
H28 H 0.1061 0.5675 0.6522 0.1630 Uiso
H29 H 0.1396 0.5349 0.7560 0.1630 Uiso
H30 H 0.1085 0.6514 0.7673 0.1630 Uiso
C45 C 0.3375(13) 0.7363(12) 0.8772(7) 0.1463 Uani
H31 H 0.3193 0.8082 0.9026 0.2190 Uiso
H32 H 0.3169 0.6883 0.9178 0.2190 Uiso
H33 H 0.4224 0.7582 0.8893 0.2190 Uiso
O22 O 0.1479(3) 0.3340(4) 0.4909(3) 0.0386 Uani
C46 C 0.1170(8) 0.2597(9) 0.5262(9) 0.0904 Uani
H34 H 0.1720 0.2265 0.5522 0.1090 Uiso
N4 N 0.0063(8) 0.2225(8) 0.5298(11) 0.1381 Uani
H38 H 0.0512 0.1118 0.6120 0.3520 Uiso
H39 H 0.0038 0.2043 0.6802 0.3520 Uiso
H44 H 0.74872 0.904815 0.542024 . .
H44_2 H 0.25128 0.095185 0.457976 . .
H41_2 H 0.750037 0.963867 0.665191 . .
H42_2 H 0.0969012 0.650867 0.292143 . .
H43_2 H 0.698842 0.638474 0.28038 . .
H45_2 H 0.308584 0.497845 0.754773 . .
H46_2 H 0.779264 0.333914 0.729484 . .
C5 C 0.0801(8) 0.7191(14) 0.5063(10) 0.1390 Uani
H9 H 0.0496 0.6734 0.5454 0.2090 Uiso
H10 H 0.1577 0.7805 0.5547 0.2090 Uiso
H11 H 0.0882 0.6661 0.4418 0.2090 Uiso
C6 C 0.0081(14) 0.8505(14) 0.3931(19) 0.2307 Uani
H14 H 0.0878 0.9116 0.4251 0.3520 Uiso
C47 C 0.9199(8) 0.2809(14) 0.4937(10) 0.1390 Uani
H35 H 0.9504 0.3266 0.4546 0.2090 Uiso
H36 H 0.8423 0.2195 0.4453 0.2090 Uiso
H37 H 0.9118 0.3339 0.5582 0.2090 Uiso
C48 C 0.9919(14) 0.1495(14) 0.6069(19) 0.2307 Uani
H40 H 0.9122 0.0884 0.5749 0.3520 Uiso
loop_
_atom_site_aniso_label
_atom_site_aniso_U_11
_atom_site_aniso_U_22
_atom_site_aniso_U_33
_atom_site_aniso_U_23
_atom_site_aniso_U_13
_atom_site_aniso_U_12
C18 0.046 0.035 0.03 0.017 -0.004 0.015
O15 0.033 0.039 0.0187 0.0137 0.0028 0.0205
O16 0.0278 0.034 0.0277 0.0211 0.0042 0.0112
C31 0.02 0.041 0.026 0.023 0.009 0.016
C32 0.021 0.04 0.023 0.02 0.008 0.015
C33 0.032 0.039 0.025 0.018 0.009 0.019
C34 0.029 0.04 0.023 0.02 0.009 0.019
C35 0.066 0.032 0.029 0.011 -0.003 0.019
O17 0.084 0.037 0.028 0.0114 -0.007 0.03
La7 0.01715 0.03004 0.01434 0.01604 0.00725 0.01402
O18 0.0248 0.056 0.0214 0.0246 0.0132 0.0164
O19 0.0217 0.055 0.0176 0.0248 0.0092 0.0182
C37 0.024 0.043 0.02 0.021 0.01 0.015
C38 0.023 0.053 0.018 0.023 0.009 0.015
C39 0.016 0.053 0.018 0.021 0.0044 0.013
C40 0.018 0.054 0.019 0.022 0.008 0.013
C41 0.016 0.087 0.022 0.029 0.006 0.015
La4 0.01715 0.03004 0.01434 0.01604 0.00725 0.01402
O1 0.034 0.045 0.033 0.0177 0.0185 0.0218
C1 0.06 0.062 0.037 0.02 0.028 0.037
N1 0.114 0.119 0.058 0.043 0.063 0.079
C2 0.107 0.176 0.163 0.129 0.116 0.097
C3 0.246 0.197 0.052 0.041 0.07 0.163
O2 0.036 0.055 0.05 0.04 0.0272 0.021
C4 0.068 0.113 0.116 0.06 0.044 0.045
N2 0.081 0.098 0.289 0.103 0.114 0.039
O3 0.0238 0.026 0.0301 0.0149 0.0099 0.0132
O4 0.0209 0.0294 0.039 0.0187 0.0053 0.0127
C7 0.023 0.025 0.023 0.013 0.008 0.012
C8 0.024 0.023 0.028 0.014 0.008 0.011
C9 0.018 0.027 0.033 0.013 0.006 0.01
O5 0.0171 0.038 0.069 0.025 0.0009 0.0093
O6 0.033 0.039 0.0187 0.0137 0.0028 0.0205
O7 0.0278 0.034 0.0277 0.0211 0.0042 0.0112
C13 0.02 0.041 0.026 0.023 0.009 0.016
C14 0.021 0.04 0.023 0.02 0.008 0.015
C15 0.032 0.039 0.025 0.018 0.009 0.019
C16 0.029 0.04 0.023 0.02 0.009 0.019
C17 0.066 0.032 0.029 0.011 -0.003 0.019
O8 0.084 0.037 0.028 0.0114 -0.007 0.03
O9 0.0248 0.056 0.0214 0.0246 0.0132 0.0164
O10 0.0217 0.055 0.0176 0.0248 0.0092 0.0182
C19 0.024 0.043 0.02 0.021 0.01 0.015
C20 0.023 0.053 0.018 0.023 0.009 0.015
C21 0.016 0.053 0.018 0.021 0.0044 0.013
C22 0.018 0.054 0.019 0.022 0.008 0.013
C23 0.016 0.087 0.022 0.029 0.006 0.015
C28 0.021 0.023 0.036 0.015 0.008 0.011
C29 0.018 0.028 0.065 0.022 0.008 0.009
C30 0.026 0.028 0.053 0.02 0.013 0.011
C36 0.046 0.035 0.03 0.017 -0.004 0.015
O24 0.0238 0.026 0.0301 0.0149 0.0099 0.0132
O26 0.0209 0.0294 0.039 0.0187 0.0053 0.0127
C10 0.021 0.023 0.036 0.015 0.008 0.011
C11 0.018 0.028 0.065 0.022 0.008 0.009
C12 0.026 0.028 0.053 0.02 0.013 0.011
C25 0.023 0.025 0.023 0.013 0.008 0.012
C26 0.024 0.023 0.028 0.014 0.008 0.011
C27 0.018 0.027 0.033 0.013 0.006 0.01
O14 0.0171 0.038 0.069 0.025 0.0009 0.0093
O21 0.034 0.045 0.033 0.0177 0.0185 0.0218
C43 0.06 0.062 0.037 0.02 0.028 0.037
N3 0.114 0.119 0.058 0.043 0.063 0.079
C44 0.107 0.176 0.163 0.129 0.116 0.097
C45 0.246 0.197 0.052 0.041 0.07 0.163
O22 0.036 0.055 0.05 0.04 0.0272 0.021
C46 0.068 0.113 0.116 0.06 0.044 0.045
N4 0.081 0.098 0.289 0.103 0.114 0.039
C5 0.046 0.303 0.136 0.153 0.047 0.075
C6 0.182 0.171 0.52 0.23 0.26 0.103
C47 0.046 0.303 0.136 0.153 0.047 0.075
C48 0.182 0.171 0.52 0.23 0.26 0.103
loop_
_geom_bond_atom_site_label_1
_geom_bond_atom_site_label_2
_geom_bond_site_symmetry_1
_geom_bond_site_symmetry_2
H18 C18 1_555 1_555
O15 C31 1_555 1_555
O16 C31 1_555 1_555
C31 C32 1_555 1_555
C32 C18 1_555 1_555
C33 C32 1_555 1_555
C35 C34 1_555 1_555
H23 C35 1_555 1_555
O17 C33 1_555 1_555
La7 O15 1_555 1_555
O16 La7 1_555 1_555
C33 C34 1_555 1_555
O17 H46 1_555 1_555
H20 C24 1_555 1_555
O18 C37 1_555 1_555
O19 C37 1_555 1_555
C37 C38 1_555 1_555
C38 C24 1_555 1_555
C39 C38 1_555 1_555
C41 C40 1_555 1_555
H25 C41 1_555 1_555
O20 C39 1_555 1_555
La4 O19 1_555 1_555
La7 O18 1_555 1_555
C39 C40 1_555 1_555
O20 H45 1_555 1_555
La4 O1 1_555 1_555
O1 C1 1_555 1_555
C1 H1 1_555 1_555
N1 C1 1_555 1_555
C2 N1 1_555 1_555
H2 C2 1_555 1_555
H3 C2 1_555 1_555
H4 C2 1_555 1_555
C3 N1 1_555 1_555
H5 C3 1_555 1_555
H6 C3 1_555 1_555
H7 C3 1_555 1_555
O2 La4 1_555 1_555
C4 O2 1_555 1_555
H8 C4 1_555 1_555
N2 C4 1_555 1_555
O3 La4 1_555 1_555
O4 C7 1_555 1_555
C7 O3 1_555 1_555
C8 C7 1_555 1_555
C9 C8 1_555 1_555
O5 C9 1_555 1_555
O6 La4 1_555 1_555
O7 La4 1_555 1_555
C13 O6 1_555 1_555
C14 C13 1_555 1_555
C15 C14 1_555 1_555
C16 C15 1_555 1_555
C17 C16 1_555 1_555
H17 C17 1_555 1_555
O8 C15 1_555 1_555
O9 La4 1_555 1_555
O10 C19 1_555 1_555
C19 O9 1_555 1_555
C20 C19 1_555 1_555
C21 C20 1_555 1_555
C22 C21 1_555 1_555
C23 C22 1_555 1_555
H19 C23 1_555 1_555
O11 C21 1_555 1_555
C29 C28 1_555 1_555
H21 C29 1_555 1_555
C30 C8 1_555 1_555
H22 C30 1_555 1_555
C36 C14 1_555 1_555
H24 C36 1_555 1_555
C42 C20 1_555 1_555
H26 C42 1_555 1_555
La7 O3 1_555 1_555
O24 La4 1_555 1_555
O26 La4 1_555 1_555
O4 La7 1_555 1_555
O7 C13 1_555 1_555
O10 La7 1_555 1_555
C29 C30 1_555 1_555
La7 O24 1_555 1_555
O5 H41 1_555 1_555
O8 H42 1_555 1_555
O11 H43 1_555 1_555
C11 C10 1_555 1_555
H15 C11 1_555 1_555
C12 C11 1_555 1_555
H16 C12 1_555 1_555
O24 C25 1_555 1_555
O26 C25 1_555 1_555
C25 C26 1_555 1_555
C26 C12 1_555 1_555
C27 C26 1_555 1_555
O14 C27 1_555 1_555
O21 La7 1_555 1_555
C43 O21 1_555 1_555
H27 C43 1_555 1_555
N3 C43 1_555 1_555
C44 N3 1_555 1_555
H28 C44 1_555 1_555
H29 C44 1_555 1_555
H30 C44 1_555 1_555
C45 N3 1_555 1_555
H31 C45 1_555 1_555
H32 C45 1_555 1_555
H33 C45 1_555 1_555
O22 La7 1_555 1_555
C46 O22 1_555 1_555
H34 C46 1_555 1_555
N4 C46 1_555 1_555
O14 H44 1_555 1_555
O5 H44_2 1_555 1_555
O14 H41_2 1_555 1_555
O17 H42_2 1_555 1_555
O20 H43_2 1_555 1_555
O11 H45_2 1_555 1_555
O8 H46_2 1_555 1_555
H9 C5 1_555 1_555
H10 C5 1_555 1_555
H11 C5 1_555 1_555
H14 C6 1_555 1_555
H35 C47 1_555 1_555
H36 C47 1_555 1_555
H37 C47 1_555 1_555
H40 C48 1_555 1_555

#END
