
###############################################################################
#
# This file contains modified crystal structure data generated from the
# MOF subset of the Cambridge Structural Database (CSD) v543 
# hosted by the Cambridge Crystallographic Data Centre (CCDC).
#
# This work is licensed under the Creative Commons
# Attribution-NonCommercial-ShareAlike 4.0 International License.
# To view a copy of this license, visit
# http://creativecommons.org/licenses/by-nc-sa/4.0/
# or send a letter to
# Creative Commons, PO Box 1866, Mountain View, CA 94042, USA.
#
# CIF created using the CSD Python API on 29 September 2022
# The structure has been converted into the P1 space group
# The structure has a 3D framework
# The original CSD entry DUFFUI is in the rhombohedral crystal system
# The framework has been calculated to contain at least 10.0% void space
# The void calculation uses a probe of radius 1.32A, grid spacing 0.4
#
###############################################################################

data_DUFFUI
_chemical_formula_moiety         '(C216 H144 Cu11 N18 O33)n'
_symmetry_cell_setting           triclinic
_symmetry_space_group_name_H-M   'P 1'
_symmetry_Int_Tables_number      1
_space_group_name_Hall           'P 1'
loop_
_symmetry_equiv_pos_site_id
_symmetry_equiv_pos_as_xyz
1 x,y,z
_cell_length_a                   30.1293(19)
_cell_length_b                   30.1293(19)
_cell_length_c                   8.9281(6)
_cell_angle_alpha                90
_cell_angle_beta                 90
_cell_angle_gamma                120
_cell_volume                     7018.88
loop_
_atom_site_label
_atom_site_type_symbol
_atom_site_fract_x
_atom_site_fract_y
_atom_site_fract_z
O3 O 0.22265(7) 0.82416(5) 0.67119(15)
O4 O 0.13095(7) 0.83447(5) 0.65307(13)
C13 C 0.15668(10) 0.78870(7) 0.48325(19)
C14 C 0.12236(9) 0.80464(6) 0.53808(18)
C15 C 0.07590(10) 0.78676(7) 0.45827(18)
H9 H 0.052277 0.796860 0.491262
C16 C 0.06340(10) 0.75516(7) 0.33408(19)
C17 C 0.09750(11) 0.73992(8) 0.2808(2)
H10 H 0.089077 0.718085 0.196082
C18 C 0.14360(10) 0.75736(7) 0.3542(2)
H11 H 0.167329 0.748022 0.316835
C19 C 0.20585(10) 0.80257(7) 0.5506(2)
H12 H 0.227432 0.793991 0.495165
C20 C 0.01211(10) 0.73643(7) 0.26617(18)
H13 H 0.011302 0.803618 0.278712
Cu3 Cu 0.166667 0.833334 0.833334
Cu1 Cu 0.833333 0.666667 0.166667
N1 N 0.69771(6) 0.78742(6) 0.81964(16)
O1 O 0.82416(5) 0.60151(5) 0.32881(15)
O2 O 0.83447(5) 0.70352(5) 0.34693(13)
C1 C 0.78870(7) 0.63202(7) 0.51675(19)
C2 C 0.80464(6) 0.68228(7) 0.46192(18)
C3 C 0.78676(7) 0.71086(7) 0.54173(18)
H1 H 0.796860 0.744583 0.508738
C4 C 0.75516(7) 0.69176(7) 0.66592(19)
C5 C 0.73992(8) 0.64242(7) 0.7192(2)
H2 H 0.718085 0.629008 0.803918
C6 C 0.75736(7) 0.61376(7) 0.6458(2)
H3 H 0.748022 0.580693 0.683165
C7 C 0.80257(7) 0.59672(7) 0.4494(2)
H4 H 0.793991 0.566559 0.504835
C8 C 0.73643(7) 0.72432(7) 0.73383(18)
C9 C 0.76814(7) 0.77703(7) 0.7436(2)
H5 H 0.803618 0.792316 0.721288
C10 C 0.74746(7) 0.80717(7) 0.7865(2)
H6 H 0.769436 0.843231 0.792515
C11 C 0.66761(7) 0.73633(7) 0.81896(19)
H7 H 0.632752 0.722014 0.847813
C12 C 0.68530(7) 0.70350(7) 0.77785(18)
H8 H 0.663014 0.667431 0.779569
N2 N 0.91029(8) 0.69771(6) 0.18036(16)
C21 C 0.99111(10) 0.76814(7) 0.2564(2)
C22 C 0.94029(10) 0.74746(7) 0.2135(2)
H14 H 0.926205 0.769436 0.207485
C23 C 0.93128(10) 0.66761(7) 0.18104(19)
H15 H 0.910738 0.632752 0.152187
C24 C 0.98180(10) 0.68530(7) 0.22215(18)
H16 H 0.995583 0.663014 0.220431
Cu2 Cu 0.666666 0.833333 0.833334
N3 N 0.75638(8) 0.63562(6) 0.15297(16)
O5 O 0.84251(5) 0.73182(5) 0.00452(15)
Cu1_2 Cu 0.333333 0.166666 0.166667
O1_2 O 0.39849(5) 0.22265(7) 0.32881(15)
O2_2 O 0.29648(5) 0.13095(7) 0.34693(13)
C1_2 C 0.36798(7) 0.15668(10) 0.51675(19)
C2_2 C 0.31772(7) 0.12236(9) 0.46192(18)
C3_2 C 0.28914(7) 0.07590(10) 0.54173(18)
H1_2 H 0.255417 0.052277 0.508738
C4_2 C 0.30824(7) 0.06340(10) 0.66592(19)
C5_2 C 0.35758(7) 0.09750(11) 0.7192(2)
H2_2 H 0.370992 0.089077 0.803918
C6_2 C 0.38624(7) 0.14360(10) 0.6458(2)
H3_2 H 0.419307 0.167329 0.683165
C7_2 C 0.40328(7) 0.20585(10) 0.4494(2)
H4_2 H 0.433441 0.227432 0.504835
C8_2 C 0.27568(7) 0.01211(10) 0.73383(18)
H5_2 H 0.207684 0.011302 0.721288
N2_2 N 0.30229(6) 0.21258(10) 0.18036(16)
O3_2 O 0.17584(5) 0.39849(9) 0.67119(15)
O4_2 O 0.16553(5) 0.29648(9) 0.65307(13)
C13_2 C 0.21130(7) 0.36798(12) 0.48325(19)
C14_2 C 0.19536(6) 0.31772(11) 0.53808(18)
C15_2 C 0.21324(7) 0.28914(12) 0.45827(18)
H9_2 H 0.203140 0.255417 0.491262
C16_2 C 0.24484(7) 0.30824(12) 0.33408(19)
C17_2 C 0.26008(8) 0.35758(14) 0.2808(2)
H10_2 H 0.281915 0.370992 0.196082
C18_2 C 0.24264(7) 0.38624(12) 0.3542(2)
H11_2 H 0.251978 0.419307 0.316835
C19_2 C 0.19743(7) 0.40328(12) 0.5506(2)
H12_2 H 0.206009 0.433441 0.495165
C20_2 C 0.26357(7) 0.27568(12) 0.26617(18)
C21_2 C 0.23186(7) 0.22297(12) 0.2564(2)
H13_2 H 0.196382 0.207684 0.278712
C22_2 C 0.25254(7) 0.19283(12) 0.2135(2)
H14_2 H 0.230564 0.156769 0.207485
C23_2 C 0.33239(7) 0.26367(12) 0.18104(19)
H15_2 H 0.367248 0.277986 0.152187
C24_2 C 0.31470(7) 0.29650(12) 0.22215(18)
H16_2 H 0.336986 0.332569 0.220431
Cu3_2 Cu 0.166666 0.333334 0.833334
N3_2 N 0.36438(6) 0.12075(10) 0.15297(16)
O5_2 O 0.26818(5) 0.11068(7) 0.00452(15)
N1_2 N 0.21258(6) 0.91029(8) 0.81964(16)
C9_2 C 0.22297(7) 0.99111(10) 0.7436(2)
C10_2 C 0.19283(7) 0.94029(10) 0.7865(2)
H6_2 H 0.156769 0.926205 0.792515
C11_2 C 0.26367(7) 0.93128(10) 0.81896(19)
H7_2 H 0.277986 0.910738 0.847813
C12_2 C 0.29650(7) 0.98180(10) 0.77785(18)
H8_2 H 0.332569 0.995583 0.779569
N1_3 N 0.08971(8) 0.30229(6) 0.81964(16)
C9_3 C 0.00889(10) 0.23186(7) 0.7436(2)
C10_3 C 0.05971(10) 0.25254(7) 0.7865(2)
H6_3 H 0.073795 0.230564 0.792515
C11_3 C 0.06872(10) 0.33239(7) 0.81896(19)
H7_3 H 0.089262 0.367248 0.847813
C12_3 C 0.01820(10) 0.31470(7) 0.77785(18)
H8_3 H 0.004417 0.336986 0.779569
Cu1_3 Cu 0.833334 0.166667 0.166667
O1_3 O 0.77735(7) 0.17584(5) 0.32881(15)
O2_3 O 0.86905(7) 0.16553(5) 0.34693(13)
C1_3 C 0.84332(10) 0.21130(7) 0.51675(19)
C2_3 C 0.87764(9) 0.19536(6) 0.46192(18)
C3_3 C 0.92410(10) 0.21324(7) 0.54173(18)
H1_3 H 0.947723 0.203140 0.508738
C4_3 C 0.93660(10) 0.24484(7) 0.66592(19)
C5_3 C 0.90250(11) 0.26008(8) 0.7192(2)
H2_3 H 0.910923 0.281915 0.803918
C6_3 C 0.85640(10) 0.24264(7) 0.6458(2)
H3_3 H 0.832671 0.251978 0.683165
C7_3 C 0.79415(10) 0.19743(7) 0.4494(2)
H4_3 H 0.772568 0.206009 0.504835
C8_3 C 0.98789(10) 0.26357(7) 0.73383(18)
H5_3 H 0.988698 0.196382 0.721288
N2_3 N 0.78742(10) 0.08971(8) 0.18036(16)
C21_3 C 0.77703(12) 0.00889(10) 0.2564(2)
C22_3 C 0.80717(12) 0.05971(10) 0.2135(2)
H14_3 H 0.843231 0.073795 0.207485
C23_3 C 0.73633(12) 0.06872(10) 0.18104(19)
H15_3 H 0.722014 0.089262 0.152187
C24_3 C 0.70350(12) 0.01820(10) 0.22215(18)
H16_3 H 0.667431 0.004417 0.220431
N3_3 N 0.87925(10) 0.24362(8) 0.15297(16)
O5_3 O 0.88932(7) 0.15749(5) 0.00452(15)
O3_3 O 0.60151(9) 0.77735(7) 0.67119(15)
O4_3 O 0.70352(9) 0.86905(7) 0.65307(13)
C13_3 C 0.63202(12) 0.84332(10) 0.48325(19)
C14_3 C 0.68228(11) 0.87764(9) 0.53808(18)
C15_3 C 0.71086(12) 0.92410(10) 0.45827(18)
H9_3 H 0.744583 0.947723 0.491262
C16_3 C 0.69176(12) 0.93660(10) 0.33408(19)
C17_3 C 0.64242(14) 0.90250(11) 0.2808(2)
H10_3 H 0.629008 0.910923 0.196082
C18_3 C 0.61376(12) 0.85640(10) 0.3542(2)
H11_3 H 0.580693 0.832671 0.316835
C19_3 C 0.59672(12) 0.79415(10) 0.5506(2)
H12_3 H 0.566559 0.772568 0.495165
C20_3 C 0.72432(12) 0.98789(10) 0.26617(18)
H13_3 H 0.792316 0.988698 0.278712
C8_4 C 0.40310(7) 0.05765(7) 0.06716(18)
C9_4 C 0.43481(7) 0.11036(7) 0.0769(2)
H5_4 H 0.470285 0.125649 0.054621
C10_4 C 0.41413(7) 0.14050(7) 0.1198(2)
H6_4 H 0.436103 0.176564 0.125848
C11_4 C 0.33428(7) 0.06966(7) 0.15229(19)
H7_4 H 0.299419 0.055347 0.181146
C12_4 C 0.35197(7) 0.03683(7) 0.11118(18)
H8_4 H 0.329681 0.000764 0.112902
C8_5 C 0.94235(7) 0.34544(10) 0.06716(18)
C9_5 C 0.88964(7) 0.32444(10) 0.0769(2)
H5_5 H 0.874351 0.344635 0.054621
C10_5 C 0.85950(7) 0.27362(10) 0.1198(2)
H6_5 H 0.823436 0.259538 0.125848
C11_5 C 0.93034(7) 0.26461(10) 0.15229(19)
H7_5 H 0.944653 0.244071 0.181146
C12_5 C 0.96317(7) 0.31513(10) 0.11118(18)
H8_5 H 0.999236 0.328916 0.112902
C5_4 C 0.56917(11) 0.59341(8) 0.0525(2)
H2_4 H 0.577590 0.615248 0.137251
H3_4 H 0.499338 0.585311 0.016498
C8_6 C 0.65456(10) 0.59690(7) 0.06716(18)
C9_6 C 0.67556(10) 0.56519(7) 0.0769(2)
H5_6 H 0.655365 0.529715 0.054621
C10_6 C 0.72638(10) 0.58587(7) 0.1198(2)
H6_6 H 0.740462 0.563897 0.125848
C11_6 C 0.73539(10) 0.66572(7) 0.15229(19)
H7_6 H 0.755929 0.700581 0.181146
C12_6 C 0.68487(10) 0.64803(7) 0.11118(18)
H8_6 H 0.671084 0.670319 0.112902
O1_4 O 0.15749(5) 0.26818(5) 0.99548(15)
N2_4 N 0.24362(8) 0.36438(6) 0.84703(16)
C17_4 C 0.43083(11) 0.40659(8) 0.9475(2)
H10_4 H 0.422410 0.384752 0.862749
H11_4 H 0.500662 0.414689 0.983502
C20_4 C 0.34544(10) 0.40310(7) 0.93284(18)
C21_4 C 0.32444(10) 0.43481(7) 0.9231(2)
H13_4 H 0.344635 0.470285 0.945379
C22_4 C 0.27362(10) 0.41413(7) 0.8802(2)
H14_4 H 0.259538 0.436103 0.874152
C23_4 C 0.26461(10) 0.33428(7) 0.84771(19)
H15_4 H 0.244071 0.299419 0.818854
C24_4 C 0.31513(10) 0.35197(7) 0.88882(18)
H16_4 H 0.328916 0.329681 0.887098
O1_5 O 0.73182(5) 0.88932(7) 0.99548(15)
N2_5 N 0.63562(6) 0.87925(10) 0.84703(16)
C20_5 C 0.59690(7) 0.94235(12) 0.93284(18)
C21_5 C 0.56519(7) 0.88964(12) 0.9231(2)
H13_5 H 0.529715 0.874351 0.945379
C22_5 C 0.58587(7) 0.85950(12) 0.8802(2)
H14_5 H 0.563897 0.823436 0.874152
C23_5 C 0.66572(7) 0.93034(12) 0.84771(19)
H15_5 H 0.700581 0.944653 0.818854
C24_5 C 0.64803(7) 0.96317(12) 0.88882(18)
H16_5 H 0.670319 0.999236 0.887098
O1_6 O 0.11068(7) 0.84251(5) 0.99548(15)
N2_6 N 0.12075(10) 0.75638(8) 0.84703(16)
C20_6 C 0.05765(12) 0.65456(10) 0.93284(18)
C21_6 C 0.11036(12) 0.67556(10) 0.9231(2)
H13_6 H 0.125649 0.655365 0.945379
C22_6 C 0.14050(12) 0.72638(10) 0.8802(2)
H14_6 H 0.176564 0.740462 0.874152
C23_6 C 0.06966(12) 0.73539(10) 0.84771(19)
H15_6 H 0.055347 0.755929 0.818854
C24_6 C 0.03683(12) 0.68487(10) 0.88882(18)
H16_6 H 0.000764 0.671084 0.887098
O6 O 0.83220(5) 0.62981(5) 0.98640(13)
O6_2 O 0.37019(5) 0.20238(7) 0.98640(13)
O6_3 O 0.79762(7) 0.16780(5) 0.98640(13)
Cu1_4 Cu 0.500000 0.000000 0.500000
O2_4 O 0.50114(5) 0.03685(5) 0.68026(13)
C2_4 C 0.47131(6) 0.01561(7) 0.79525(18)
C3_4 C 0.45343(7) 0.04419(7) 0.87506(18)
H1_4 H 0.463527 0.077916 0.842071
C4_4 C 0.42183(7) 0.02509(7) 0.99925(19)
N2_7 N 0.57696(8) 0.03104(6) 0.51369(16)
C13_4 C 0.82335(10) 0.12203(7) 0.81658(19)
C14_4 C 0.78903(9) 0.13797(6) 0.87141(18)
C15_4 C 0.74257(10) 0.12009(7) 0.79160(18)
H9_4 H 0.718944 0.130193 0.824595
C16_4 C 0.73007(10) 0.08849(7) 0.66741(19)
C17_5 C 0.76417(11) 0.07325(8) 0.6141(2)
H10_5 H 0.755744 0.051418 0.529415
C18_4 C 0.81027(10) 0.09069(7) 0.6875(2)
H11_5 H 0.833996 0.081355 0.650168
C19_4 C 0.87252(10) 0.13590(7) 0.8839(2)
H12_4 H 0.894099 0.127324 0.828498
C20_7 C 0.67878(10) 0.06976(7) 0.59950(18)
C21_7 C 0.65778(10) 0.10147(7) 0.5897(2)
H13_7 H 0.677969 0.136951 0.612045
C22_7 C 0.60696(10) 0.08079(7) 0.5468(2)
H14_7 H 0.592872 0.102769 0.540818
C23_7 C 0.59795(10) 0.00094(7) 0.51437(19)
C24_7 C 0.64847(10) 0.01863(7) 0.55548(18)
O5_4 O 0.50917(5) 0.06516(5) 0.33786(15)
Cu1_5 Cu 0.500000 1.000000 0.500000
O1_7 O 0.49083(5) 0.93484(5) 0.66214(15)
C1_4 C 0.45537(7) 0.96535(7) 0.85008(19)
C6_4 C 0.42403(7) 0.94709(7) 0.9791(2)
C7_4 C 0.46924(7) 0.93005(7) 0.7827(2)
H4_4 H 0.460658 0.899892 0.838168
H15_7 H 0.577405 0.966085 0.485520
H16_7 H 0.662250 0.996347 0.553764
N3_4 N 0.42304(8) 0.96896(6) 0.48631(16)
O6_4 O 0.49886(5) 0.96315(5) 0.31974(13)
Cu1_6 Cu -0.000000 0.499999 0.500000
O1_8 O 0.06516(5) 0.55598(7) 0.66214(15)
C1_5 C 0.03465(7) 0.49001(10) 0.85008(19)
C6_5 C 0.05291(7) 0.47693(10) 0.9791(2)
C7_5 C 0.06995(7) 0.53918(10) 0.7827(2)
H4_5 H 0.100108 0.560765 0.838168
H15_8 H 0.033915 0.611319 0.485520
H16_8 H 0.003653 0.665902 0.553764
N3_5 N 0.03104(6) 0.45409(10) 0.48631(16)
O6_5 O 0.03685(5) 0.53572(7) 0.31974(13)
Cu1_7 Cu 1.000000 0.499999 0.500000
O2_5 O 0.96315(5) 0.46428(7) 0.68026(13)
C2_5 C 0.98439(7) 0.45569(9) 0.79525(18)
C3_5 C 0.95581(7) 0.40923(10) 0.87506(18)
H1_5 H 0.922084 0.385610 0.842071
C4_5 C 0.97491(7) 0.39673(10) 0.99925(19)
N2_8 N 0.96896(6) 0.54591(10) 0.51369(16)
C13_5 C 0.87797(7) 0.70131(12) 0.81658(19)
C14_5 C 0.86203(6) 0.65105(11) 0.87141(18)
C15_5 C 0.87991(7) 0.62247(12) 0.79160(18)
H9_5 H 0.869807 0.588750 0.824595
C16_5 C 0.91151(7) 0.64157(12) 0.66741(19)
C17_6 C 0.92675(8) 0.69091(14) 0.6141(2)
H10_6 H 0.948582 0.704325 0.529415
C18_5 C 0.90931(7) 0.71957(12) 0.6875(2)
H11_6 H 0.918645 0.752640 0.650168
C19_5 C 0.86410(7) 0.73661(12) 0.8839(2)
H12_5 H 0.872676 0.766774 0.828498
C20_8 C 0.93024(7) 0.60901(12) 0.59950(18)
C21_8 C 0.89853(7) 0.55630(12) 0.5897(2)
H13_8 H 0.863049 0.541017 0.612045
C22_8 C 0.91921(7) 0.52616(12) 0.5468(2)
H14_8 H 0.897231 0.490102 0.540818
C23_8 C 0.99906(7) 0.59700(12) 0.51437(19)
C24_8 C 0.98137(7) 0.62983(12) 0.55548(18)
O5_5 O 0.93484(5) 0.44402(7) 0.33786(15)
Cu1_8 Cu 0.500001 0.500000 0.500000
O1_9 O 0.44402(7) 0.50917(5) 0.66214(15)
O2_6 O 0.53572(7) 0.49886(5) 0.68026(13)
C1_6 C 0.50999(10) 0.54463(7) 0.85008(19)
C2_6 C 0.54431(9) 0.52869(6) 0.79525(18)
C3_6 C 0.59077(10) 0.54657(7) 0.87506(18)
H1_6 H 0.614390 0.536473 0.842071
C4_6 C 0.60327(10) 0.57817(7) 0.99925(19)
C6_6 C 0.52307(10) 0.57597(7) 0.9791(2)
C7_6 C 0.46082(10) 0.53076(7) 0.7827(2)
H4_6 H 0.439235 0.539342 0.838168
N2_9 N 0.45409(10) 0.42304(8) 0.51369(16)
C13_6 C 0.29869(12) 0.17665(10) 0.81658(19)
C14_6 C 0.34895(11) 0.21097(9) 0.87141(18)
C15_6 C 0.37753(12) 0.25743(10) 0.79160(18)
H9_6 H 0.411250 0.281056 0.824595
C16_6 C 0.35843(12) 0.26993(10) 0.66741(19)
C17_7 C 0.30909(14) 0.23583(11) 0.6141(2)
H10_7 H 0.295675 0.244256 0.529415
C18_6 C 0.28043(12) 0.18973(10) 0.6875(2)
H11_7 H 0.247360 0.166004 0.650168
C19_6 C 0.26339(12) 0.12748(10) 0.8839(2)
H12_6 H 0.233226 0.105901 0.828498
C20_9 C 0.39099(12) 0.32122(10) 0.59950(18)
C21_9 C 0.44370(12) 0.34222(10) 0.5897(2)
H13_9 H 0.458983 0.322031 0.612045
C22_9 C 0.47384(12) 0.39304(10) 0.5468(2)
H14_9 H 0.509898 0.407128 0.540818
C23_9 C 0.40300(12) 0.40205(10) 0.51437(19)
H15_9 H 0.388681 0.422595 0.485520
C24_9 C 0.37017(12) 0.35153(10) 0.55548(18)
H16_9 H 0.334098 0.337750 0.553764
N3_6 N 0.54591(10) 0.57696(8) 0.48631(16)
O5_6 O 0.55598(7) 0.49083(5) 0.33786(15)
O6_6 O 0.46428(7) 0.50114(5) 0.31974(13)
O2_7 O 0.16780(5) 0.37019(5) 0.01360(13)
C1_7 C 0.12203(7) 0.29869(7) 0.18342(19)
C2_7 C 0.13797(6) 0.34895(7) 0.12859(18)
C3_7 C 0.12009(7) 0.37753(7) 0.20840(18)
H1_7 H 0.130193 0.411250 0.175405
C4_7 C 0.08849(7) 0.35843(7) 0.33259(19)
C5_5 C 0.07325(8) 0.30909(7) 0.3859(2)
H2_5 H 0.051418 0.295675 0.470585
C6_7 C 0.09069(7) 0.28043(7) 0.3125(2)
H3_5 H 0.081355 0.247360 0.349832
C7_7 C 0.13590(7) 0.26339(7) 0.1161(2)
H4_7 H 0.127324 0.233226 0.171502
C8_7 C 0.06976(7) 0.39099(7) 0.40050(18)
C9_7 C 0.10147(7) 0.44370(7) 0.4103(2)
H5_7 H 0.136951 0.458983 0.387955
C10_7 C 0.08079(7) 0.47384(7) 0.4532(2)
H6_7 H 0.102769 0.509898 0.459182
C11_7 C 0.00094(7) 0.40300(7) 0.48563(19)
C12_7 C 0.01863(7) 0.37017(7) 0.44452(18)
C13_7 C 0.49001(10) 0.45537(7) 0.14992(19)
C14_7 C 0.45569(9) 0.47131(6) 0.20475(18)
C15_7 C 0.40923(10) 0.45343(7) 0.12494(18)
H9_7 H 0.385610 0.463527 0.157929
C16_7 C 0.39673(10) 0.42183(7) 0.00075(19)
C18_7 C 0.47693(10) 0.42403(7) 0.0209(2)
C19_7 C 0.53918(10) 0.46924(7) 0.2173(2)
H12_7 H 0.560765 0.460658 0.161832
H7_7 H 0.966085 0.388681 0.514480
H8_7 H 0.996347 0.334098 0.446236
C13_8 C 0.54463(7) 0.03465(12) 0.14992(19)
C18_8 C 0.57597(7) 0.05291(12) 0.0209(2)
C19_8 C 0.53076(7) 0.06995(12) 0.2173(2)
H12_8 H 0.539342 0.100108 0.161832
O2_8 O 0.62981(5) 0.79762(7) 0.01360(13)
C1_8 C 0.70131(7) 0.82335(10) 0.18342(19)
C2_8 C 0.65105(7) 0.78903(9) 0.12859(18)
C3_8 C 0.62247(7) 0.74257(10) 0.20840(18)
H1_8 H 0.588750 0.718944 0.175405
C4_8 C 0.64157(7) 0.73007(10) 0.33259(19)
C5_6 C 0.69091(7) 0.76417(11) 0.3859(2)
H2_6 H 0.704325 0.755744 0.470585
C6_8 C 0.71957(7) 0.81027(10) 0.3125(2)
H3_6 H 0.752640 0.833996 0.349832
C7_8 C 0.73661(7) 0.87252(10) 0.1161(2)
H4_8 H 0.766774 0.894099 0.171502
C8_8 C 0.60901(7) 0.67878(10) 0.40050(18)
C9_8 C 0.55630(7) 0.65778(10) 0.4103(2)
H5_8 H 0.541017 0.677969 0.387955
C10_8 C 0.52616(7) 0.60696(10) 0.4532(2)
H6_8 H 0.490102 0.592872 0.459182
C11_8 C 0.59700(7) 0.59795(10) 0.48563(19)
H7_8 H 0.611319 0.577405 0.514480
C12_8 C 0.62983(7) 0.64847(10) 0.44452(18)
H8_8 H 0.665902 0.662250 0.446236
C14_8 C 0.52869(6) 0.98439(11) 0.20475(18)
C15_8 C 0.54657(7) 0.95581(12) 0.12494(18)
H9_8 H 0.536473 0.922084 0.157929
C16_8 C 0.57817(7) 0.97491(12) 0.00075(19)
H7_9 H 0.422595 0.033915 0.514480
H8_9 H 0.337750 0.003653 0.446236
O2_9 O 0.20238(7) 0.83220(5) 0.01360(13)
C1_9 C 0.17665(10) 0.87797(7) 0.18342(19)
C2_9 C 0.21097(9) 0.86203(6) 0.12859(18)
C3_9 C 0.25743(10) 0.87991(7) 0.20840(18)
H1_9 H 0.281056 0.869807 0.175405
C4_9 C 0.26993(10) 0.91151(7) 0.33259(19)
C5_7 C 0.23583(11) 0.92675(8) 0.3859(2)
H2_7 H 0.244256 0.948582 0.470585
C6_9 C 0.18973(10) 0.90931(7) 0.3125(2)
H3_7 H 0.166004 0.918645 0.349832
C7_9 C 0.12748(10) 0.86410(7) 0.1161(2)
H4_9 H 0.105901 0.872676 0.171502
C8_9 C 0.32122(10) 0.93024(7) 0.40050(18)
C9_9 C 0.34222(10) 0.89853(7) 0.4103(2)
H5_9 H 0.322031 0.863049 0.387955
C10_9 C 0.39304(10) 0.91921(7) 0.4532(2)
H6_9 H 0.407128 0.897231 0.459182
C11_9 C 0.40205(10) 0.99906(7) 0.48563(19)
C12_9 C 0.35153(10) 0.98137(7) 0.44452(18)
C14_9 C 0.01561(11) 0.54431(9) 0.20475(18)
C15_9 C 0.04419(12) 0.59077(10) 0.12494(18)
H9_9 H 0.077916 0.614390 0.157929
C16_9 C 0.02509(12) 0.60327(10) 0.00075(19)
C13_9 C 0.96535(12) 0.50999(10) 0.14992(19)
C18_9 C 0.94709(12) 0.52307(10) 0.0209(2)
C19_9 C 0.93005(12) 0.46082(10) 0.2173(2)
H12_9 H 0.899892 0.439235 0.161832
C5_8 C 0.40659(8) 0.97575(7) 0.0525(2)
H2_8 H 0.384752 0.962341 0.137251
H3_8 H 0.414689 0.914026 0.016498
C5_9 C 0.02425(7) 0.43083(11) 0.0525(2)
H2_9 H 0.037659 0.422410 0.137251
H3_9 H 0.085974 0.500662 0.016498
C17_8 C 0.59341(8) 0.02425(14) 0.9475(2)
H10_8 H 0.615248 0.037659 0.862749
H11_8 H 0.585311 0.085974 0.983502
C17_9 C 0.97575(14) 0.56917(11) 0.9475(2)
H10_9 H 0.962341 0.577590 0.862749
H11_9 H 0.914026 0.499338 0.983502
loop_
_geom_bond_atom_site_label_1
_geom_bond_atom_site_label_2
_geom_bond_site_symmetry_1
_geom_bond_site_symmetry_2
O3 C19 1_555 1_555
O4 C14 1_555 1_555
C13 C14 1_555 1_555
C14 C15 1_555 1_555
C15 H9 1_555 1_555
C16 C15 1_555 1_555
C17 C16 1_555 1_555
H10 C17 1_555 1_555
C18 C13 1_555 1_555
H11 C18 1_555 1_555
C19 C13 1_555 1_555
H12 C19 1_555 1_555
C20 C16 1_555 1_555
Cu3 O3 1_555 1_555
O4 Cu3 1_555 1_555
C17 C18 1_555 1_555
Cu1 O1 1_555 1_555
N1 C10 1_555 1_555
O1 C7 1_555 1_555
O2 Cu1 1_555 1_555
C1 C2 1_555 1_555
C2 O2 1_555 1_555
C3 C2 1_555 1_555
H1 C3 1_555 1_555
C4 C3 1_555 1_555
C5 C4 1_555 1_555
H2 C5 1_555 1_555
C6 C1 1_555 1_555
H3 C6 1_555 1_555
C7 C1 1_555 1_555
H4 C7 1_555 1_555
C8 C4 1_555 1_555
C9 C8 1_555 1_555
H5 C9 1_555 1_555
C10 C9 1_555 1_555
H6 C10 1_555 1_555
C11 N1 1_555 1_555
H7 C11 1_555 1_555
C12 C8 1_555 1_555
H8 C12 1_555 1_555
N2 Cu1 1_555 1_555
C22 N2 1_555 1_555
H14 C22 1_555 1_555
C23 N2 1_555 1_555
H15 C23 1_555 1_555
H16 C24 1_555 1_555
Cu2 N1 1_555 1_555
N3 Cu1 1_555 1_555
O5 Cu1 1_555 1_555
C5 C6 1_555 1_555
C11 C12 1_555 1_555
C21 C22 1_555 1_555
C23 C24 1_555 1_555
Cu1_2 O1_2 1_555 1_555
O1_2 C7_2 1_555 1_555
O2_2 Cu1_2 1_555 1_555
C1_2 C2_2 1_555 1_555
C2_2 O2_2 1_555 1_555
C3_2 C2_2 1_555 1_555
H1_2 C3_2 1_555 1_555
C4_2 C3_2 1_555 1_555
C5_2 C4_2 1_555 1_555
H2_2 C5_2 1_555 1_555
C6_2 C1_2 1_555 1_555
H3_2 C6_2 1_555 1_555
C7_2 C1_2 1_555 1_555
H4_2 C7_2 1_555 1_555
C8_2 C4_2 1_555 1_555
N2_2 Cu1_2 1_555 1_555
O3_2 C19_2 1_555 1_555
O4_2 C14_2 1_555 1_555
C13_2 C14_2 1_555 1_555
C14_2 C15_2 1_555 1_555
C15_2 H9_2 1_555 1_555
C16_2 C15_2 1_555 1_555
C17_2 C16_2 1_555 1_555
H10_2 C17_2 1_555 1_555
C18_2 C13_2 1_555 1_555
H11_2 C18_2 1_555 1_555
C19_2 C13_2 1_555 1_555
H12_2 C19_2 1_555 1_555
C20_2 C16_2 1_555 1_555
C21_2 C20_2 1_555 1_555
H13_2 C21_2 1_555 1_555
C22_2 N2_2 1_555 1_555
H14_2 C22_2 1_555 1_555
C23_2 N2_2 1_555 1_555
H15_2 C23_2 1_555 1_555
C24_2 C20_2 1_555 1_555
H16_2 C24_2 1_555 1_555
Cu3_2 O3_2 1_555 1_555
N3_2 Cu1_2 1_555 1_555
O5_2 Cu1_2 1_555 1_555
C5_2 C6_2 1_555 1_555
O4_2 Cu3_2 1_555 1_555
C17_2 C18_2 1_555 1_555
C21_2 C22_2 1_555 1_555
C23_2 C24_2 1_555 1_555
N1_2 C10_2 1_555 1_555
C10_2 C9_2 1_555 1_555
H6_2 C10_2 1_555 1_555
C11_2 N1_2 1_555 1_555
H7_2 C11_2 1_555 1_555
H8_2 C12_2 1_555 1_555
Cu3 N1_2 1_555 1_555
C11_2 C12_2 1_555 1_555
N1_3 C10_3 1_555 1_555
C10_3 C9_3 1_555 1_555
H6_3 C10_3 1_555 1_555
C11_3 N1_3 1_555 1_555
H7_3 C11_3 1_555 1_555
H8_3 C12_3 1_555 1_555
Cu3_2 N1_3 1_555 1_555
C11_3 C12_3 1_555 1_555
Cu1_3 O1_3 1_555 1_555
O1_3 C7_3 1_555 1_555
O2_3 Cu1_3 1_555 1_555
C1_3 C2_3 1_555 1_555
C2_3 O2_3 1_555 1_555
C3_3 C2_3 1_555 1_555
H1_3 C3_3 1_555 1_555
C4_3 C3_3 1_555 1_555
C5_3 C4_3 1_555 1_555
H2_3 C5_3 1_555 1_555
C6_3 C1_3 1_555 1_555
H3_3 C6_3 1_555 1_555
C7_3 C1_3 1_555 1_555
H4_3 C7_3 1_555 1_555
C8_3 C4_3 1_555 1_555
N2_3 Cu1_3 1_555 1_555
C22_3 N2_3 1_555 1_555
H14_3 C22_3 1_555 1_555
C23_3 N2_3 1_555 1_555
H15_3 C23_3 1_555 1_555
H16_3 C24_3 1_555 1_555
N3_3 Cu1_3 1_555 1_555
O5_3 Cu1_3 1_555 1_555
C5_3 C6_3 1_555 1_555
C21_3 C22_3 1_555 1_555
C23_3 C24_3 1_555 1_555
O3_3 C19_3 1_555 1_555
O4_3 C14_3 1_555 1_555
C13_3 C14_3 1_555 1_555
C14_3 C15_3 1_555 1_555
C15_3 H9_3 1_555 1_555
C16_3 C15_3 1_555 1_555
C17_3 C16_3 1_555 1_555
H10_3 C17_3 1_555 1_555
C18_3 C13_3 1_555 1_555
H11_3 C18_3 1_555 1_555
C19_3 C13_3 1_555 1_555
H12_3 C19_3 1_555 1_555
C20_3 C16_3 1_555 1_555
Cu2 O3_3 1_555 1_555
O4_3 Cu2 1_555 1_555
C17_3 C18_3 1_555 1_555
N3_2 C10_4 1_555 1_555
C9_4 C8_4 1_555 1_555
H5_4 C9_4 1_555 1_555
C10_4 C9_4 1_555 1_555
H6_4 C10_4 1_555 1_555
C11_4 N3_2 1_555 1_555
H7_4 C11_4 1_555 1_555
C12_4 C8_4 1_555 1_555
H8_4 C12_4 1_555 1_555
C11_4 C12_4 1_555 1_555
N3_3 C10_5 1_555 1_555
C9_5 C8_5 1_555 1_555
H5_5 C9_5 1_555 1_555
C10_5 C9_5 1_555 1_555
H6_5 C10_5 1_555 1_555
C11_5 N3_3 1_555 1_555
H7_5 C11_5 1_555 1_555
C12_5 C8_5 1_555 1_555
H8_5 C12_5 1_555 1_555
C11_5 C12_5 1_555 1_555
N3 C10_6 1_555 1_555
H2_4 C5_4 1_555 1_555
C9_6 C8_6 1_555 1_555
H5_6 C9_6 1_555 1_555
C10_6 C9_6 1_555 1_555
H6_6 C10_6 1_555 1_555
C11_6 N3 1_555 1_555
H7_6 C11_6 1_555 1_555
C12_6 C8_6 1_555 1_555
H8_6 C12_6 1_555 1_555
C11_6 C12_6 1_555 1_555
Cu3_2 O1_4 1_555 1_555
N2_4 Cu3_2 1_555 1_555
H10_4 C17_4 1_555 1_555
C21_4 C20_4 1_555 1_555
H13_4 C21_4 1_555 1_555
C22_4 N2_4 1_555 1_555
H14_4 C22_4 1_555 1_555
C23_4 N2_4 1_555 1_555
H15_4 C23_4 1_555 1_555
C24_4 C20_4 1_555 1_555
H16_4 C24_4 1_555 1_555
C21_4 C22_4 1_555 1_555
C23_4 C24_4 1_555 1_555
Cu2 O1_5 1_555 1_555
N2_5 Cu2 1_555 1_555
C21_5 C20_5 1_555 1_555
H13_5 C21_5 1_555 1_555
C22_5 N2_5 1_555 1_555
H14_5 C22_5 1_555 1_555
C23_5 N2_5 1_555 1_555
H15_5 C23_5 1_555 1_555
C24_5 C20_5 1_555 1_555
H16_5 C24_5 1_555 1_555
C21_5 C22_5 1_555 1_555
C23_5 C24_5 1_555 1_555
Cu3 O1_6 1_555 1_555
N2_6 Cu3 1_555 1_555
C21_6 C20_6 1_555 1_555
H13_6 C21_6 1_555 1_555
C22_6 N2_6 1_555 1_555
H14_6 C22_6 1_555 1_555
C23_6 N2_6 1_555 1_555
H15_6 C23_6 1_555 1_555
C24_6 C20_6 1_555 1_555
H16_6 C24_6 1_555 1_555
C21_6 C22_6 1_555 1_555
C23_6 C24_6 1_555 1_555
O2_4 Cu1_4 1_555 1_555
C2_4 O2_4 1_555 1_555
C3_4 C2_4 1_555 1_555
H1_4 C3_4 1_555 1_555
C4_4 C3_4 1_555 1_555
N2_7 Cu1_4 1_555 1_555
O6_3 C14_4 1_555 1_555
C13_4 C14_4 1_555 1_555
C14_4 C15_4 1_555 1_555
C15_4 H9_4 1_555 1_555
C16_4 C15_4 1_555 1_555
C17_5 C16_4 1_555 1_555
H10_5 C17_5 1_555 1_555
C18_4 C13_4 1_555 1_555
H11_5 C18_4 1_555 1_555
C19_4 C13_4 1_555 1_555
H12_4 C19_4 1_555 1_555
C20_7 C16_4 1_555 1_555
C21_7 C20_7 1_555 1_555
H13_7 C21_7 1_555 1_555
C22_7 N2_7 1_555 1_555
H14_7 C22_7 1_555 1_555
C23_7 N2_7 1_555 1_555
C24_7 C20_7 1_555 1_555
O5_4 Cu1_4 1_555 1_555
C17_5 C18_4 1_555 1_555
C21_7 C22_7 1_555 1_555
C23_7 C24_7 1_555 1_555
Cu1_5 O1_7 1_555 1_555
O1_7 C7_4 1_555 1_555
C6_4 C1_4 1_555 1_555
C7_4 C1_4 1_555 1_555
H4_4 C7_4 1_555 1_555
N3_4 Cu1_5 1_555 1_555
O6_4 Cu1_5 1_555 1_555
Cu1_6 O1_8 1_555 1_555
O1_8 C7_5 1_555 1_555
C6_5 C1_5 1_555 1_555
C7_5 C1_5 1_555 1_555
H4_5 C7_5 1_555 1_555
N3_5 Cu1_6 1_555 1_555
O6_5 Cu1_6 1_555 1_555
O2_5 Cu1_7 1_555 1_555
C2_5 O2_5 1_555 1_555
C3_5 C2_5 1_555 1_555
H1_5 C3_5 1_555 1_555
C4_5 C3_5 1_555 1_555
N2_8 Cu1_7 1_555 1_555
O6 C14_5 1_555 1_555
C13_5 C14_5 1_555 1_555
C14_5 C15_5 1_555 1_555
C15_5 H9_5 1_555 1_555
C16_5 C15_5 1_555 1_555
C17_6 C16_5 1_555 1_555
H10_6 C17_6 1_555 1_555
C18_5 C13_5 1_555 1_555
H11_6 C18_5 1_555 1_555
C19_5 C13_5 1_555 1_555
H12_5 C19_5 1_555 1_555
C20_8 C16_5 1_555 1_555
C21_8 C20_8 1_555 1_555
H13_8 C21_8 1_555 1_555
C22_8 N2_8 1_555 1_555
H14_8 C22_8 1_555 1_555
C23_8 N2_8 1_555 1_555
C24_8 C20_8 1_555 1_555
O5_5 Cu1_7 1_555 1_555
C17_6 C18_5 1_555 1_555
C21_8 C22_8 1_555 1_555
C23_8 C24_8 1_555 1_555
Cu1_8 O1_9 1_555 1_555
O1_9 C7_6 1_555 1_555
O2_6 Cu1_8 1_555 1_555
C1_6 C2_6 1_555 1_555
C2_6 O2_6 1_555 1_555
C3_6 C2_6 1_555 1_555
H1_6 C3_6 1_555 1_555
C4_6 C3_6 1_555 1_555
C6_6 C1_6 1_555 1_555
C7_6 C1_6 1_555 1_555
H4_6 C7_6 1_555 1_555
N2_9 Cu1_8 1_555 1_555
O6_2 C14_6 1_555 1_555
C13_6 C14_6 1_555 1_555
C14_6 C15_6 1_555 1_555
C15_6 H9_6 1_555 1_555
C16_6 C15_6 1_555 1_555
C17_7 C16_6 1_555 1_555
H10_7 C17_7 1_555 1_555
C18_6 C13_6 1_555 1_555
H11_7 C18_6 1_555 1_555
C19_6 C13_6 1_555 1_555
H12_6 C19_6 1_555 1_555
C20_9 C16_6 1_555 1_555
C21_9 C20_9 1_555 1_555
H13_9 C21_9 1_555 1_555
C22_9 N2_9 1_555 1_555
H14_9 C22_9 1_555 1_555
C23_9 N2_9 1_555 1_555
H15_9 C23_9 1_555 1_555
C24_9 C20_9 1_555 1_555
H16_9 C24_9 1_555 1_555
N3_6 Cu1_8 1_555 1_555
O5_6 Cu1_8 1_555 1_555
O6_6 Cu1_8 1_555 1_555
C17_7 C18_6 1_555 1_555
C21_9 C22_9 1_555 1_555
C23_9 C24_9 1_555 1_555
N3_5 C10_7 1_555 1_555
C1_7 C2_7 1_555 1_555
C2_7 O2_7 1_555 1_555
C3_7 C2_7 1_555 1_555
H1_7 C3_7 1_555 1_555
C4_7 C3_7 1_555 1_555
C5_5 C4_7 1_555 1_555
H2_5 C5_5 1_555 1_555
C6_7 C1_7 1_555 1_555
H3_5 C6_7 1_555 1_555
C7_7 C1_7 1_555 1_555
H4_7 C7_7 1_555 1_555
C8_7 C4_7 1_555 1_555
C9_7 C8_7 1_555 1_555
H5_7 C9_7 1_555 1_555
C10_7 C9_7 1_555 1_555
H6_7 C10_7 1_555 1_555
C11_7 N3_5 1_555 1_555
C12_7 C8_7 1_555 1_555
O5_6 C19_7 1_555 1_555
O6_6 C14_7 1_555 1_555
C13_7 C14_7 1_555 1_555
C14_7 C15_7 1_555 1_555
C15_7 H9_7 1_555 1_555
C16_7 C15_7 1_555 1_555
C18_7 C13_7 1_555 1_555
C19_7 C13_7 1_555 1_555
H12_7 C19_7 1_555 1_555
C5_5 C6_7 1_555 1_555
C11_7 C12_7 1_555 1_555
O5_4 C19_8 1_555 1_555
C18_8 C13_8 1_555 1_555
C19_8 C13_8 1_555 1_555
H12_8 C19_8 1_555 1_555
N3_6 C10_8 1_555 1_555
C1_8 C2_8 1_555 1_555
C2_8 O2_8 1_555 1_555
C3_8 C2_8 1_555 1_555
H1_8 C3_8 1_555 1_555
C4_8 C3_8 1_555 1_555
C5_6 C4_8 1_555 1_555
H2_6 C5_6 1_555 1_555
C6_8 C1_8 1_555 1_555
H3_6 C6_8 1_555 1_555
C7_8 C1_8 1_555 1_555
H4_8 C7_8 1_555 1_555
C8_8 C4_8 1_555 1_555
C9_8 C8_8 1_555 1_555
H5_8 C9_8 1_555 1_555
C10_8 C9_8 1_555 1_555
H6_8 C10_8 1_555 1_555
C11_8 N3_6 1_555 1_555
H7_8 C11_8 1_555 1_555
C12_8 C8_8 1_555 1_555
H8_8 C12_8 1_555 1_555
O6_4 C14_8 1_555 1_555
C14_8 C15_8 1_555 1_555
C15_8 H9_8 1_555 1_555
C16_8 C15_8 1_555 1_555
C5_6 C6_8 1_555 1_555
C11_8 C12_8 1_555 1_555
N3_4 C10_9 1_555 1_555
C1_9 C2_9 1_555 1_555
C2_9 O2_9 1_555 1_555
C3_9 C2_9 1_555 1_555
H1_9 C3_9 1_555 1_555
C4_9 C3_9 1_555 1_555
C5_7 C4_9 1_555 1_555
H2_7 C5_7 1_555 1_555
C6_9 C1_9 1_555 1_555
H3_7 C6_9 1_555 1_555
C7_9 C1_9 1_555 1_555
H4_9 C7_9 1_555 1_555
C8_9 C4_9 1_555 1_555
C9_9 C8_9 1_555 1_555
H5_9 C9_9 1_555 1_555
C10_9 C9_9 1_555 1_555
H6_9 C10_9 1_555 1_555
C11_9 N3_4 1_555 1_555
C12_9 C8_9 1_555 1_555
O6_5 C14_9 1_555 1_555
C14_9 C15_9 1_555 1_555
C15_9 H9_9 1_555 1_555
C16_9 C15_9 1_555 1_555
C5_7 C6_9 1_555 1_555
C11_9 C12_9 1_555 1_555
O5_5 C19_9 1_555 1_555
C18_9 C13_9 1_555 1_555
C19_9 C13_9 1_555 1_555
H12_9 C19_9 1_555 1_555
H2_8 C5_8 1_555 1_555
H2_9 C5_9 1_555 1_555
H10_8 C17_8 1_555 1_555
H10_9 C17_9 1_555 1_555

#END
