
###############################################################################
#
# This file contains modified crystal structure data generated from the
# MOF subset of the Cambridge Structural Database (CSD) v543 
# hosted by the Cambridge Crystallographic Data Centre (CCDC).
#
# This work is licensed under the Creative Commons
# Attribution-NonCommercial-ShareAlike 4.0 International License.
# To view a copy of this license, visit
# http://creativecommons.org/licenses/by-nc-sa/4.0/
# or send a letter to
# Creative Commons, PO Box 1866, Mountain View, CA 94042, USA.
#
# CIF created using the CSD Python API on 29 September 2022
# The structure has been converted into the P1 space group
# The structure has a 3D framework
# The original CSD entry DUFGAP is in the rhombohedral crystal system
# The framework has been calculated to contain at least 10.0% void space
# The void calculation uses a probe of radius 1.32A, grid spacing 0.4
#
###############################################################################

data_DUFGAP
_chemical_formula_moiety         '(C216 H144 Co11 N18 O33)n'
_symmetry_cell_setting           triclinic
_symmetry_space_group_name_H-M   'P 1'
_symmetry_Int_Tables_number      1
_space_group_name_Hall           'P 1'
loop_
_symmetry_equiv_pos_site_id
_symmetry_equiv_pos_as_xyz
1 x,y,z
_cell_length_a                   31.087(8)
_cell_length_b                   31.087(8)
_cell_length_c                   8.954(2)
_cell_angle_alpha                90
_cell_angle_beta                 90
_cell_angle_gamma                120
_cell_volume                     7493.86
loop_
_atom_site_label
_atom_site_type_symbol
_atom_site_fract_x
_atom_site_fract_y
_atom_site_fract_z
C13 C 0.78981(14) 0.15154(21) 0.5122(4)
C14 C 0.80474(14) 0.11823(20) 0.4571(4)
C15 C 0.78765(14) 0.07340(21) 0.5373(4)
H9 H 0.797384 0.051021 0.505898
C16 C 0.75696(14) 0.06158(21) 0.6608(4)
C17 C 0.74260(16) 0.09497(22) 0.7126(4)
H10 H 0.721617 0.087182 0.794511
C18 C 0.76007(16) 0.13927(23) 0.6401(4)
H11 H 0.751871 0.162199 0.677200
C19 C 0.80322(15) 0.19805(22) 0.4406(5)
H12 H 0.795564 0.219258 0.492572
C20 C 0.73769(16) 0.01151(23) 0.7285(4)
H13 H 0.800928 0.008815 0.714740
O3 O 0.82375(10) 0.21317(14) 0.3179(3)
O4 O 0.83304(9) 0.12648(13) 0.3414(3)
Co2 Co 0.833334 0.166667 0.166666
Co1 Co 0.666667 0.833333 0.833333
C1 C 0.63827(15) 0.78981(14) 0.4878(4)
C2 C 0.68651(14) 0.80474(14) 0.5429(4)
C3 C 0.71425(15) 0.78765(14) 0.4627(4)
H1 H 0.746363 0.797384 0.494102
C4 C 0.69538(15) 0.75696(14) 0.3392(4)
C5 C 0.64763(15) 0.74260(16) 0.2874(4)
H2 H 0.634435 0.721617 0.205489
C6 C 0.62080(16) 0.76007(16) 0.3599(4)
H3 H 0.589672 0.751871 0.322800
C7 C 0.60517(16) 0.80322(15) 0.5594(5)
H4 H 0.576306 0.795564 0.507428
C8 C 0.72618(16) 0.73769(16) 0.2715(4)
C9 C 0.77704(17) 0.76727(16) 0.2627(5)
H5 H 0.792113 0.800928 0.285260
C10 C 0.80561(16) 0.74654(17) 0.2200(5)
H6 H 0.839973 0.766747 0.218122
C11 C 0.73646(16) 0.67088(16) 0.1845(4)
H7 H 0.721942 0.637716 0.156328
C12 C 0.70604(15) 0.68921(16) 0.2278(4)
H8 H 0.671741 0.668513 0.227364
N1 N 0.78613(13) 0.69907(13) 0.1815(3)
O1 O 0.61058(10) 0.82375(10) 0.6821(3)
O2 O 0.70656(9) 0.83304(9) 0.6586(3)
C21 C 0.76727(16) 0.99023(23) 0.7373(5)
C22 C 0.74654(17) 0.94093(23) 0.7800(5)
H14 H 0.766747 0.926774 0.781878
C23 C 0.67088(16) 0.93442(23) 0.8155(4)
H15 H 0.637716 0.915774 0.843672
C24 C 0.68921(16) 0.98317(22) 0.7722(4)
H16 H 0.668513 0.996772 0.772636
N2 N 0.69907(13) 0.91294(18) 0.8185(3)
Co3 Co 0.833333 0.666666 0.166666
N3 N 0.63426(13) 0.75373(18) 0.8482(3)
O5 O 0.72275(10) 0.84292(10) 0.9846(3)
C9_2 C 0.23273(16) 0.00977(23) 0.2627(5)
C10_2 C 0.25346(17) 0.05907(23) 0.2200(5)
H6_2 H 0.233253 0.073226 0.218122
C11_2 C 0.32912(16) 0.06558(23) 0.1845(4)
H7_2 H 0.362284 0.084226 0.156328
C12_2 C 0.31079(16) 0.01683(22) 0.2278(4)
H8_2 H 0.331487 0.003228 0.227364
N1_2 N 0.30093(13) 0.08706(18) 0.1815(3)
Co3_2 Co 0.333334 0.166666 0.166666
Co1_2 Co 0.166667 0.833334 0.833333
C1_2 C 0.21019(14) 0.84846(21) 0.4878(4)
C2_2 C 0.19526(14) 0.88177(20) 0.5429(4)
C3_2 C 0.21235(14) 0.92660(21) 0.4627(4)
H1_2 H 0.202616 0.948979 0.494102
C4_2 C 0.24304(14) 0.93842(21) 0.3392(4)
C5_2 C 0.25740(16) 0.90503(22) 0.2874(4)
H2_2 H 0.278383 0.912818 0.205489
C6_2 C 0.23993(16) 0.86073(23) 0.3599(4)
H3_2 H 0.248129 0.837801 0.322800
C7_2 C 0.19678(15) 0.80195(22) 0.5594(5)
H4_2 H 0.204436 0.780742 0.507428
C8_2 C 0.26231(16) 0.98849(23) 0.2715(4)
H5_2 H 0.199072 0.991185 0.285260
O1_2 O 0.17625(10) 0.78683(14) 0.6821(3)
O2_2 O 0.16696(9) 0.87352(13) 0.6586(3)
C21_2 C 0.00977(23) 0.77704(28) 0.7373(5)
C22_2 C 0.05907(23) 0.80561(29) 0.7800(5)
H14_2 H 0.073226 0.839973 0.781878
C23_2 C 0.06558(23) 0.73646(28) 0.8155(4)
H15_2 H 0.084226 0.721942 0.843672
C24_2 C 0.01683(22) 0.70604(27) 0.7722(4)
H16_2 H 0.003228 0.671741 0.772636
N2_2 N 0.08706(18) 0.78613(22) 0.8185(3)
N3_2 N 0.24627(18) 0.88054(22) 0.8482(3)
O5_2 O 0.15708(10) 0.87984(14) 0.9846(3)
C13_2 C 0.84846(21) 0.63827(25) 0.5122(4)
C14_2 C 0.88177(20) 0.68651(24) 0.4571(4)
C15_2 C 0.92660(21) 0.71425(25) 0.5373(4)
H9_2 H 0.948979 0.746363 0.505898
C16_2 C 0.93842(21) 0.69538(25) 0.6608(4)
C17_2 C 0.90503(22) 0.64763(27) 0.7126(4)
H10_2 H 0.912818 0.634435 0.794511
C18_2 C 0.86073(23) 0.62080(28) 0.6401(4)
H11_2 H 0.837801 0.589672 0.677200
C19_2 C 0.80195(22) 0.60517(27) 0.4406(5)
H12_2 H 0.780742 0.576306 0.492572
C20_2 C 0.98849(23) 0.72618(28) 0.7285(4)
H13_2 H 0.991185 0.792113 0.714740
O3_2 O 0.78683(14) 0.61058(17) 0.3179(3)
O4_2 O 0.87352(13) 0.70656(16) 0.3414(3)
Co1_3 Co 0.166666 0.333333 0.833333
C1_3 C 0.15154(21) 0.36173(15) 0.4878(4)
C2_3 C 0.11823(20) 0.31349(14) 0.5429(4)
C3_3 C 0.07340(21) 0.28575(15) 0.4627(4)
H1_3 H 0.051021 0.253637 0.494102
C4_3 C 0.06158(21) 0.30462(15) 0.3392(4)
C5_3 C 0.09497(22) 0.35237(15) 0.2874(4)
H2_3 H 0.087182 0.365565 0.205489
C6_3 C 0.13927(23) 0.37920(16) 0.3599(4)
H3_3 H 0.162199 0.410328 0.322800
C7_3 C 0.19805(22) 0.39483(16) 0.5594(5)
H4_3 H 0.219258 0.423694 0.507428
C8_3 C 0.01151(23) 0.27382(16) 0.2715(4)
H5_3 H 0.008815 0.207887 0.285260
O1_3 O 0.21317(14) 0.38942(10) 0.6821(3)
O2_3 O 0.12648(13) 0.29344(9) 0.6586(3)
C13_3 C 0.36173(25) 0.21019(14) 0.5122(4)
C14_3 C 0.31349(24) 0.19526(14) 0.4571(4)
C15_3 C 0.28575(25) 0.21235(14) 0.5373(4)
H9_3 H 0.253637 0.202616 0.505898
C16_3 C 0.30462(25) 0.24304(14) 0.6608(4)
C17_3 C 0.35237(27) 0.25740(16) 0.7126(4)
H10_3 H 0.365565 0.278383 0.794511
C18_3 C 0.37920(28) 0.23993(16) 0.6401(4)
H11_3 H 0.410328 0.248129 0.677200
C19_3 C 0.39483(27) 0.19678(15) 0.4406(5)
H12_3 H 0.423694 0.204436 0.492572
C20_3 C 0.27382(28) 0.26231(16) 0.7285(4)
C21_3 C 0.22296(28) 0.23273(16) 0.7373(5)
H13_3 H 0.207887 0.199072 0.714740
C22_3 C 0.19439(29) 0.25346(17) 0.7800(5)
H14_3 H 0.160027 0.233253 0.781878
C23_3 C 0.26354(28) 0.32912(16) 0.8155(4)
H15_3 H 0.278058 0.362284 0.843672
C24_3 C 0.29396(27) 0.31079(16) 0.7722(4)
H16_3 H 0.328259 0.331487 0.772636
N2_3 N 0.21387(22) 0.30093(13) 0.8185(3)
O3_3 O 0.38942(17) 0.17625(10) 0.3179(3)
O4_3 O 0.29344(16) 0.16696(9) 0.3414(3)
N3_3 N 0.11946(22) 0.36574(13) 0.8482(3)
O5_3 O 0.12016(14) 0.27725(10) 0.9846(3)
C9_3 C 0.99023(23) 0.22296(17) 0.2627(5)
C10_3 C 0.94093(23) 0.19439(16) 0.2200(5)
H6_3 H 0.926774 0.160027 0.218122
C11_3 C 0.93442(23) 0.26354(16) 0.1845(4)
H7_3 H 0.915774 0.278058 0.156328
C12_3 C 0.98317(22) 0.29396(15) 0.2278(4)
H8_3 H 0.996772 0.328259 0.227364
N1_3 N 0.91294(18) 0.21387(13) 0.1815(3)
O1_4 O 0.27725(10) 0.15708(10) 0.0154(3)
C17_4 C 0.40927(16) 0.42830(22) 0.0459(4)
H10_4 H 0.388284 0.420515 0.127844
H11_4 H 0.418538 0.495532 0.010533
C20_4 C 0.40436(16) 0.34484(23) 0.0618(4)
C21_4 C 0.43394(16) 0.32356(23) 0.0706(5)
H13_4 H 0.467595 0.342148 0.048073
C22_4 C 0.41321(17) 0.27426(23) 0.1133(5)
H14_4 H 0.433414 0.260107 0.115211
C23_4 C 0.33755(16) 0.26775(23) 0.1488(4)
H15_4 H 0.304383 0.249107 0.177005
C24_4 C 0.35588(16) 0.31650(22) 0.1055(4)
H16_4 H 0.335180 0.330105 0.105969
N2_4 N 0.36574(13) 0.24627(18) 0.1518(3)
O1_5 O 0.84292(10) 0.12016(14) 0.0154(3)
C20_5 C 0.65516(23) 0.05951(28) 0.0618(4)
C21_5 C 0.67644(23) 0.11037(28) 0.0706(5)
H13_5 H 0.657852 0.125446 0.048073
C22_5 C 0.72574(23) 0.13894(29) 0.1133(5)
H14_5 H 0.739893 0.173306 0.115211
C23_5 C 0.73225(23) 0.06979(28) 0.1488(4)
H15_5 H 0.750893 0.055275 0.177005
C24_5 C 0.68350(22) 0.03937(27) 0.1055(4)
H16_5 H 0.669895 0.005074 0.105969
N2_5 N 0.75373(18) 0.11946(22) 0.1518(3)
O1_6 O 0.87984(14) 0.72275(10) 0.0154(3)
C20_6 C 0.94049(28) 0.59564(16) 0.0618(4)
C21_6 C 0.88963(28) 0.56606(16) 0.0706(5)
H13_6 H 0.874554 0.532405 0.048073
C22_6 C 0.86106(29) 0.58679(17) 0.1133(5)
H14_6 H 0.826694 0.566586 0.115211
C23_6 C 0.93021(28) 0.66245(16) 0.1488(4)
H15_6 H 0.944725 0.695617 0.177005
C24_6 C 0.96063(27) 0.64412(16) 0.1055(4)
H16_6 H 0.994926 0.664820 0.105969
N2_6 N 0.88054(22) 0.63426(13) 0.1518(3)
C8_4 C 0.05951(16) 0.40436(16) 0.9382(4)
C9_4 C 0.11037(17) 0.43394(16) 0.9294(5)
H5_4 H 0.125446 0.467595 0.951927
C10_4 C 0.13894(16) 0.41321(17) 0.8867(5)
H6_4 H 0.173306 0.433414 0.884789
C11_4 C 0.06979(16) 0.33755(16) 0.8512(4)
H7_4 H 0.055275 0.304383 0.822995
C12_4 C 0.03937(15) 0.35588(16) 0.8945(4)
H8_4 H 0.005074 0.335180 0.894031
C5_4 C 0.59073(16) 0.57170(22) 0.9541(4)
H2_4 H 0.611716 0.579485 0.872156
H3_4 H 0.581462 0.504468 0.989467
C8_5 C 0.59564(16) 0.65516(23) 0.9382(4)
C9_5 C 0.56606(16) 0.67644(23) 0.9294(5)
H5_5 H 0.532405 0.657852 0.951927
C10_5 C 0.58679(17) 0.72574(23) 0.8867(5)
H6_5 H 0.566586 0.739893 0.884789
C11_5 C 0.66245(16) 0.73225(23) 0.8512(4)
H7_5 H 0.695617 0.750893 0.822995
C12_5 C 0.64412(16) 0.68350(22) 0.8945(4)
H8_5 H 0.664820 0.669895 0.894031
C8_6 C 0.34484(23) 0.94049(16) 0.9382(4)
C9_6 C 0.32356(23) 0.88963(17) 0.9294(5)
H5_6 H 0.342148 0.874554 0.951927
C10_6 C 0.27426(23) 0.86106(16) 0.8867(5)
H6_6 H 0.260107 0.826694 0.884789
C11_6 C 0.26775(23) 0.93021(16) 0.8512(4)
H7_6 H 0.249107 0.944725 0.822995
C12_6 C 0.31650(22) 0.96063(15) 0.8945(4)
H8_6 H 0.330105 0.994926 0.894031
O6 O 0.62677(9) 0.83363(9) 0.0081(3)
O6_2 O 0.16637(9) 0.79315(13) 0.0081(3)
O6_3 O 0.20685(13) 0.37323(9) 0.0081(3)
C1_4 C 0.30494(15) 0.12314(14) 0.8211(4)
C2_4 C 0.35318(14) 0.13807(14) 0.8762(4)
C3_4 C 0.38092(15) 0.12098(14) 0.7960(4)
H1_4 H 0.413030 0.130717 0.827435
C4_4 C 0.36205(15) 0.09029(14) 0.6725(4)
C5_5 C 0.31430(15) 0.07593(16) 0.6207(4)
H2_5 H 0.301102 0.054950 0.538822
C6_4 C 0.28747(16) 0.09340(16) 0.6932(4)
H3_5 H 0.256339 0.085204 0.656133
C7_4 C 0.27184(16) 0.13655(15) 0.8927(5)
H4_4 H 0.242973 0.128897 0.840761
C8_7 C 0.39285(16) 0.07102(16) 0.6048(4)
C9_7 C 0.44371(17) 0.10060(16) 0.5960(5)
H5_7 H 0.458780 0.134261 0.618593
C10_7 C 0.47228(16) 0.07987(17) 0.5533(5)
H6_7 H 0.506640 0.100080 0.551455
C11_7 C 0.40313(16) 0.00421(16) 0.5178(4)
C12_7 C 0.37271(15) 0.02254(16) 0.5611(4)
H8_7 H 0.338408 0.001846 0.560697
N1_4 N 0.45280(13) 0.03240(13) 0.5148(3)
O2_4 O 0.37323(9) 0.16637(9) 0.9919(3)
C13_4 C 0.45648(14) 0.48487(21) 0.8455(4)
C14_4 C 0.47141(14) 0.45156(20) 0.7904(4)
C15_4 C 0.45432(14) 0.40673(21) 0.8706(4)
H9_4 H 0.464051 0.384354 0.839231
C16_4 C 0.42363(14) 0.39491(21) 0.9941(4)
C18_4 C 0.42674(16) 0.47260(23) 0.9734(4)
C19_4 C 0.46989(15) 0.53138(22) 0.7739(5)
H12_4 H 0.462231 0.552591 0.825905
O3_4 O 0.49042(10) 0.54650(14) 0.6512(3)
O4_4 O 0.49971(9) 0.45981(13) 0.6747(3)
Co2_2 Co 0.500000 0.500001 0.500000
Co3_3 Co 0.499999 -0.000000 0.500000
H7_7 H 0.388609 0.971049 0.489661
Co3_4 Co 0.499999 1.000000 0.500000
H7_8 H 0.028951 0.417559 0.489661
Co3_5 Co 0.000000 0.500000 0.500000
C1_5 C 0.87686(14) 0.18179(21) 0.8211(4)
C2_5 C 0.86193(14) 0.21510(20) 0.8762(4)
C3_5 C 0.87902(14) 0.25993(21) 0.7960(4)
H1_5 H 0.869283 0.282312 0.827435
C4_5 C 0.90971(14) 0.27175(21) 0.6725(4)
C5_6 C 0.92407(16) 0.23836(22) 0.6207(4)
H2_6 H 0.945050 0.246151 0.538822
C6_5 C 0.90660(16) 0.19406(23) 0.6932(4)
H3_6 H 0.914796 0.171134 0.656133
C7_5 C 0.86345(15) 0.13528(22) 0.8927(5)
H4_5 H 0.871103 0.114075 0.840761
C8_8 C 0.92898(16) 0.32182(23) 0.6048(4)
C9_8 C 0.89940(16) 0.34310(23) 0.5960(5)
H5_8 H 0.865739 0.324518 0.618593
C10_8 C 0.92013(17) 0.39240(23) 0.5533(5)
H6_8 H 0.899920 0.406559 0.551455
C11_8 C 0.99579(16) 0.39891(23) 0.5178(4)
C12_8 C 0.97746(16) 0.35016(22) 0.5611(4)
H8_8 H 0.998154 0.336561 0.560697
N1_5 N 0.96760(13) 0.42039(18) 0.5148(3)
O2_5 O 0.83363(9) 0.20685(13) 0.9919(3)
C14_5 C 0.54844(20) 0.01984(24) 0.7904(4)
C15_5 C 0.59327(21) 0.04758(25) 0.8706(4)
H9_5 H 0.615646 0.079696 0.839231
C16_5 C 0.60509(21) 0.02871(25) 0.9941(4)
O4_5 O 0.54019(13) 0.03989(16) 0.6747(3)
Co3_6 Co 1.000000 0.500000 0.500000
C13_5 C 0.51513(21) 0.97160(25) 0.8455(4)
C18_5 C 0.52740(23) 0.95413(28) 0.9734(4)
C19_5 C 0.46862(22) 0.93850(27) 0.7739(5)
H12_5 H 0.447409 0.909639 0.825905
O3_5 O 0.45350(14) 0.94391(17) 0.6512(3)
C13_6 C 0.02840(25) 0.54352(14) 0.8455(4)
C18_6 C 0.04587(28) 0.57326(16) 0.9734(4)
C19_6 C 0.06150(27) 0.53011(15) 0.7739(5)
H12_6 H 0.090361 0.537769 0.825905
O3_6 O 0.05609(17) 0.50958(10) 0.6512(3)
C1_6 C 0.81821(21) 0.69506(15) 0.8211(4)
C2_6 C 0.78490(20) 0.64682(14) 0.8762(4)
C3_6 C 0.74007(21) 0.61908(15) 0.7960(4)
H1_6 H 0.717688 0.586970 0.827435
C4_6 C 0.72825(21) 0.63795(15) 0.6725(4)
C5_7 C 0.76164(22) 0.68570(15) 0.6207(4)
H2_7 H 0.753849 0.698898 0.538822
C6_6 C 0.80594(23) 0.71253(16) 0.6932(4)
H3_7 H 0.828866 0.743661 0.656133
C7_6 C 0.86472(22) 0.72816(16) 0.8927(5)
H4_6 H 0.885925 0.757027 0.840761
C8_9 C 0.67818(23) 0.60715(16) 0.6048(4)
C9_9 C 0.65690(23) 0.55629(17) 0.5960(5)
H5_9 H 0.675482 0.541220 0.618593
C10_9 C 0.60760(23) 0.52772(16) 0.5533(5)
H6_9 H 0.593441 0.493360 0.551455
C11_9 C 0.60109(23) 0.59687(16) 0.5178(4)
H7_9 H 0.582441 0.611391 0.489661
C12_9 C 0.64984(22) 0.62729(15) 0.5611(4)
H8_9 H 0.663439 0.661592 0.560697
N1_6 N 0.57961(18) 0.54720(13) 0.5148(3)
O2_6 O 0.79315(13) 0.62677(9) 0.9919(3)
C14_6 C 0.98016(24) 0.52859(14) 0.7904(4)
C15_6 C 0.95242(25) 0.54568(14) 0.8706(4)
H9_6 H 0.920304 0.535949 0.839231
C16_6 C 0.97129(25) 0.57637(14) 0.9941(4)
O4_6 O 0.96011(16) 0.50029(9) 0.6747(3)
C2_7 C 0.01984(14) 0.47141(14) 0.2096(4)
C3_7 C 0.04758(15) 0.45432(14) 0.1294(4)
H1_7 H 0.079696 0.464051 0.160769
C4_7 C 0.02871(15) 0.42363(14) 0.0059(4)
O2_7 O 0.03989(9) 0.49971(9) 0.3253(3)
C13_7 C 0.12314(14) 0.81821(21) 0.1789(4)
C14_7 C 0.13807(14) 0.78490(20) 0.1238(4)
C15_7 C 0.12098(14) 0.74007(21) 0.2040(4)
H9_7 H 0.130717 0.717688 0.172565
C16_7 C 0.09029(14) 0.72825(21) 0.3275(4)
C17_5 C 0.07593(16) 0.76164(22) 0.3793(4)
H10_5 H 0.054950 0.753849 0.461178
C18_7 C 0.09340(16) 0.80594(23) 0.3068(4)
H11_5 H 0.085204 0.828866 0.343867
C19_7 C 0.13655(15) 0.86472(22) 0.1073(5)
H12_7 H 0.128897 0.885925 0.159239
C20_7 C 0.07102(16) 0.67818(23) 0.3952(4)
C21_7 C 0.10060(16) 0.65690(23) 0.4040(5)
H13_7 H 0.134261 0.675482 0.381407
C22_7 C 0.07987(17) 0.60760(23) 0.4467(5)
H14_7 H 0.100080 0.593441 0.448545
C23_7 C 0.00421(16) 0.60109(23) 0.4822(4)
C24_7 C 0.02254(16) 0.64984(22) 0.4389(4)
H16_7 H 0.001846 0.663439 0.439303
N2_7 N 0.03240(13) 0.57961(18) 0.4852(3)
C1_7 C 0.97160(15) 0.45648(14) 0.1545(4)
C6_7 C 0.95413(16) 0.42674(16) 0.0266(4)
C7_7 C 0.93850(16) 0.46989(15) 0.2261(5)
H4_7 H 0.909639 0.462231 0.174095
O1_7 O 0.94391(10) 0.49042(10) 0.3488(3)
H15_7 H 0.971049 0.582441 0.510339
C1_8 C 0.54352(14) 0.51513(21) 0.1545(4)
C2_8 C 0.52859(14) 0.54844(20) 0.2096(4)
C3_8 C 0.54568(14) 0.59327(21) 0.1294(4)
H1_8 H 0.535949 0.615646 0.160769
C4_8 C 0.57637(14) 0.60509(21) 0.0059(4)
C6_8 C 0.57326(16) 0.52740(23) 0.0266(4)
C7_8 C 0.53011(15) 0.46862(22) 0.2261(5)
H4_8 H 0.537769 0.447409 0.174095
O1_8 O 0.50958(10) 0.45350(14) 0.3488(3)
O2_8 O 0.50029(9) 0.54019(13) 0.3253(3)
C13_8 C 0.18179(21) 0.30494(25) 0.1789(4)
C14_8 C 0.21510(20) 0.35318(24) 0.1238(4)
C15_8 C 0.25993(21) 0.38092(25) 0.2040(4)
H9_8 H 0.282312 0.413030 0.172565
C16_8 C 0.27175(21) 0.36205(25) 0.3275(4)
C17_6 C 0.23836(22) 0.31430(27) 0.3793(4)
H10_6 H 0.246151 0.301102 0.461178
C18_8 C 0.19406(23) 0.28747(28) 0.3068(4)
H11_6 H 0.171134 0.256339 0.343867
C19_8 C 0.13528(22) 0.27184(27) 0.1073(5)
H12_8 H 0.114075 0.242973 0.159239
C20_8 C 0.32182(23) 0.39285(28) 0.3952(4)
C21_8 C 0.34310(23) 0.44371(28) 0.4040(5)
H13_8 H 0.324518 0.458780 0.381407
C22_8 C 0.39240(23) 0.47228(29) 0.4467(5)
H14_8 H 0.406559 0.506640 0.448545
C23_8 C 0.39891(23) 0.40313(28) 0.4822(4)
H15_8 H 0.417559 0.388609 0.510339
C24_8 C 0.35016(22) 0.37271(27) 0.4389(4)
H16_8 H 0.336561 0.338408 0.439303
N2_8 N 0.42039(18) 0.45280(22) 0.4852(3)
C1_9 C 0.48487(21) 0.02840(15) 0.1545(4)
C6_9 C 0.47260(23) 0.04587(16) 0.0266(4)
C7_9 C 0.53138(22) 0.06150(16) 0.2261(5)
H4_9 H 0.552591 0.090361 0.174095
O1_9 O 0.54650(14) 0.05609(10) 0.3488(3)
H15_9 H 0.611391 0.028951 0.510339
C2_9 C 0.45156(20) 0.98016(14) 0.2096(4)
C3_9 C 0.40673(21) 0.95242(15) 0.1294(4)
H1_9 H 0.384354 0.920304 0.160769
C4_9 C 0.39491(21) 0.97129(15) 0.0059(4)
O2_9 O 0.45981(13) 0.96011(9) 0.3253(3)
C13_9 C 0.69506(25) 0.87686(14) 0.1789(4)
C14_9 C 0.64682(24) 0.86193(14) 0.1238(4)
C15_9 C 0.61908(25) 0.87902(14) 0.2040(4)
H9_9 H 0.586970 0.869283 0.172565
C16_9 C 0.63795(25) 0.90971(14) 0.3275(4)
C17_7 C 0.68570(27) 0.92407(16) 0.3793(4)
H10_7 H 0.698898 0.945050 0.461178
C18_9 C 0.71253(28) 0.90660(16) 0.3068(4)
H11_7 H 0.743661 0.914796 0.343867
C19_9 C 0.72816(27) 0.86345(15) 0.1073(5)
H12_9 H 0.757027 0.871103 0.159239
C20_9 C 0.60715(28) 0.92898(16) 0.3952(4)
C21_9 C 0.55629(28) 0.89940(16) 0.4040(5)
H13_9 H 0.541220 0.865739 0.381407
C22_9 C 0.52772(29) 0.92013(17) 0.4467(5)
H14_9 H 0.493360 0.899920 0.448545
C23_9 C 0.59687(28) 0.99579(16) 0.4822(4)
C24_9 C 0.62729(27) 0.97746(16) 0.4389(4)
H16_9 H 0.661592 0.998154 0.439303
N2_9 N 0.54720(22) 0.96760(13) 0.4852(3)
C17_8 C 0.57170(22) 0.98096(27) 0.0459(4)
H10_8 H 0.579485 0.967768 0.127844
H11_8 H 0.504468 0.923005 0.010533
C17_9 C 0.01904(27) 0.59073(16) 0.0459(4)
H10_9 H 0.032232 0.611716 0.127844
H11_9 H 0.076995 0.581462 0.010533
C5_8 C 0.98096(15) 0.40927(16) 0.9541(4)
H2_8 H 0.967768 0.388284 0.872156
H3_8 H 0.923005 0.418538 0.989467
C5_9 C 0.42830(22) 0.01904(15) 0.9541(4)
H2_9 H 0.420515 0.032232 0.872156
H3_9 H 0.495532 0.076995 0.989467
loop_
_geom_bond_atom_site_label_1
_geom_bond_atom_site_label_2
_geom_bond_site_symmetry_1
_geom_bond_site_symmetry_2
C13 C14 1_555 1_555
C14 C15 1_555 1_555
C15 H9 1_555 1_555
C16 C15 1_555 1_555
C17 C16 1_555 1_555
H10 C17 1_555 1_555
C18 C13 1_555 1_555
H11 C18 1_555 1_555
C19 C13 1_555 1_555
H12 C19 1_555 1_555
C20 C16 1_555 1_555
O3 C19 1_555 1_555
O4 C14 1_555 1_555
Co2 O3 1_555 1_555
C17 C18 1_555 1_555
O4 Co2 1_555 1_555
Co1 O1 1_555 1_555
C1 C2 1_555 1_555
C2 C3 1_555 1_555
C3 H1 1_555 1_555
C4 C3 1_555 1_555
C5 C4 1_555 1_555
H2 C5 1_555 1_555
C6 C1 1_555 1_555
H3 C6 1_555 1_555
C7 C1 1_555 1_555
H4 C7 1_555 1_555
C8 C4 1_555 1_555
C9 C8 1_555 1_555
H5 C9 1_555 1_555
C10 C9 1_555 1_555
H6 C10 1_555 1_555
C11 H7 1_555 1_555
C12 C8 1_555 1_555
H8 C12 1_555 1_555
N1 C10 1_555 1_555
O1 C7 1_555 1_555
O2 Co1 1_555 1_555
C22 C21 1_555 1_555
H14 C22 1_555 1_555
C23 H15 1_555 1_555
H16 C24 1_555 1_555
N2 Co1 1_555 1_555
Co3 N1 1_555 1_555
N3 Co1 1_555 1_555
O5 Co1 1_555 1_555
C2 O2 1_555 1_555
C5 C6 1_555 1_555
C11 C12 1_555 1_555
C11 N1 1_555 1_555
C22 N2 1_555 1_555
C23 C24 1_555 1_555
C23 N2 1_555 1_555
C10_2 C9_2 1_555 1_555
H6_2 C10_2 1_555 1_555
C11_2 H7_2 1_555 1_555
H8_2 C12_2 1_555 1_555
N1_2 C10_2 1_555 1_555
Co3_2 N1_2 1_555 1_555
C11_2 C12_2 1_555 1_555
C11_2 N1_2 1_555 1_555
Co1_2 O1_2 1_555 1_555
C1_2 C2_2 1_555 1_555
C2_2 C3_2 1_555 1_555
C3_2 H1_2 1_555 1_555
C4_2 C3_2 1_555 1_555
C5_2 C4_2 1_555 1_555
H2_2 C5_2 1_555 1_555
C6_2 C1_2 1_555 1_555
H3_2 C6_2 1_555 1_555
C7_2 C1_2 1_555 1_555
H4_2 C7_2 1_555 1_555
C8_2 C4_2 1_555 1_555
O1_2 C7_2 1_555 1_555
O2_2 Co1_2 1_555 1_555
C22_2 C21_2 1_555 1_555
H14_2 C22_2 1_555 1_555
C23_2 H15_2 1_555 1_555
H16_2 C24_2 1_555 1_555
N2_2 Co1_2 1_555 1_555
N3_2 Co1_2 1_555 1_555
O5_2 Co1_2 1_555 1_555
C2_2 O2_2 1_555 1_555
C5_2 C6_2 1_555 1_555
C22_2 N2_2 1_555 1_555
C23_2 C24_2 1_555 1_555
C23_2 N2_2 1_555 1_555
C13_2 C14_2 1_555 1_555
C14_2 C15_2 1_555 1_555
C15_2 H9_2 1_555 1_555
C16_2 C15_2 1_555 1_555
C17_2 C16_2 1_555 1_555
H10_2 C17_2 1_555 1_555
C18_2 C13_2 1_555 1_555
H11_2 C18_2 1_555 1_555
C19_2 C13_2 1_555 1_555
H12_2 C19_2 1_555 1_555
C20_2 C16_2 1_555 1_555
O3_2 C19_2 1_555 1_555
O4_2 C14_2 1_555 1_555
Co3 O3_2 1_555 1_555
C17_2 C18_2 1_555 1_555
O4_2 Co3 1_555 1_555
Co1_3 O1_3 1_555 1_555
C1_3 C2_3 1_555 1_555
C2_3 C3_3 1_555 1_555
C3_3 H1_3 1_555 1_555
C4_3 C3_3 1_555 1_555
C5_3 C4_3 1_555 1_555
H2_3 C5_3 1_555 1_555
C6_3 C1_3 1_555 1_555
H3_3 C6_3 1_555 1_555
C7_3 C1_3 1_555 1_555
H4_3 C7_3 1_555 1_555
C8_3 C4_3 1_555 1_555
O1_3 C7_3 1_555 1_555
O2_3 Co1_3 1_555 1_555
C13_3 C14_3 1_555 1_555
C14_3 C15_3 1_555 1_555
C15_3 H9_3 1_555 1_555
C16_3 C15_3 1_555 1_555
C17_3 C16_3 1_555 1_555
H10_3 C17_3 1_555 1_555
C18_3 C13_3 1_555 1_555
H11_3 C18_3 1_555 1_555
C19_3 C13_3 1_555 1_555
H12_3 C19_3 1_555 1_555
C20_3 C16_3 1_555 1_555
C21_3 C20_3 1_555 1_555
H13_3 C21_3 1_555 1_555
C22_3 C21_3 1_555 1_555
H14_3 C22_3 1_555 1_555
C23_3 H15_3 1_555 1_555
C24_3 C20_3 1_555 1_555
H16_3 C24_3 1_555 1_555
N2_3 Co1_3 1_555 1_555
O3_3 C19_3 1_555 1_555
O4_3 C14_3 1_555 1_555
Co3_2 O3_3 1_555 1_555
N3_3 Co1_3 1_555 1_555
O5_3 Co1_3 1_555 1_555
C2_3 O2_3 1_555 1_555
C5_3 C6_3 1_555 1_555
C17_3 C18_3 1_555 1_555
C22_3 N2_3 1_555 1_555
C23_3 C24_3 1_555 1_555
C23_3 N2_3 1_555 1_555
O4_3 Co3_2 1_555 1_555
C10_3 C9_3 1_555 1_555
H6_3 C10_3 1_555 1_555
C11_3 H7_3 1_555 1_555
H8_3 C12_3 1_555 1_555
N1_3 C10_3 1_555 1_555
Co2 N1_3 1_555 1_555
C11_3 C12_3 1_555 1_555
C11_3 N1_3 1_555 1_555
Co3_2 O1_4 1_555 1_555
H10_4 C17_4 1_555 1_555
C21_4 C20_4 1_555 1_555
H13_4 C21_4 1_555 1_555
C22_4 C21_4 1_555 1_555
H14_4 C22_4 1_555 1_555
C23_4 H15_4 1_555 1_555
C24_4 C20_4 1_555 1_555
H16_4 C24_4 1_555 1_555
N2_4 Co3_2 1_555 1_555
C22_4 N2_4 1_555 1_555
C23_4 C24_4 1_555 1_555
C23_4 N2_4 1_555 1_555
Co2 O1_5 1_555 1_555
C21_5 C20_5 1_555 1_555
H13_5 C21_5 1_555 1_555
C22_5 C21_5 1_555 1_555
H14_5 C22_5 1_555 1_555
C23_5 H15_5 1_555 1_555
C24_5 C20_5 1_555 1_555
H16_5 C24_5 1_555 1_555
N2_5 Co2 1_555 1_555
C22_5 N2_5 1_555 1_555
C23_5 C24_5 1_555 1_555
C23_5 N2_5 1_555 1_555
Co3 O1_6 1_555 1_555
C21_6 C20_6 1_555 1_555
H13_6 C21_6 1_555 1_555
C22_6 C21_6 1_555 1_555
H14_6 C22_6 1_555 1_555
C23_6 H15_6 1_555 1_555
C24_6 C20_6 1_555 1_555
H16_6 C24_6 1_555 1_555
N2_6 Co3 1_555 1_555
C22_6 N2_6 1_555 1_555
C23_6 C24_6 1_555 1_555
C23_6 N2_6 1_555 1_555
C9_4 C8_4 1_555 1_555
H5_4 C9_4 1_555 1_555
C10_4 C9_4 1_555 1_555
H6_4 C10_4 1_555 1_555
C11_4 H7_4 1_555 1_555
C12_4 C8_4 1_555 1_555
H8_4 C12_4 1_555 1_555
N3_3 C10_4 1_555 1_555
C11_4 C12_4 1_555 1_555
C11_4 N3_3 1_555 1_555
H2_4 C5_4 1_555 1_555
C9_5 C8_5 1_555 1_555
H5_5 C9_5 1_555 1_555
C10_5 C9_5 1_555 1_555
H6_5 C10_5 1_555 1_555
C11_5 H7_5 1_555 1_555
C12_5 C8_5 1_555 1_555
H8_5 C12_5 1_555 1_555
N3 C10_5 1_555 1_555
C11_5 C12_5 1_555 1_555
C11_5 N3 1_555 1_555
C9_6 C8_6 1_555 1_555
H5_6 C9_6 1_555 1_555
C10_6 C9_6 1_555 1_555
H6_6 C10_6 1_555 1_555
C11_6 H7_6 1_555 1_555
C12_6 C8_6 1_555 1_555
H8_6 C12_6 1_555 1_555
N3_2 C10_6 1_555 1_555
C11_6 C12_6 1_555 1_555
C11_6 N3_2 1_555 1_555
C1_4 C2_4 1_555 1_555
C2_4 C3_4 1_555 1_555
C3_4 H1_4 1_555 1_555
C4_4 C3_4 1_555 1_555
C5_5 C4_4 1_555 1_555
H2_5 C5_5 1_555 1_555
C6_4 C1_4 1_555 1_555
H3_5 C6_4 1_555 1_555
C7_4 C1_4 1_555 1_555
H4_4 C7_4 1_555 1_555
C8_7 C4_4 1_555 1_555
C9_7 C8_7 1_555 1_555
H5_7 C9_7 1_555 1_555
C10_7 C9_7 1_555 1_555
H6_7 C10_7 1_555 1_555
C12_7 C8_7 1_555 1_555
H8_7 C12_7 1_555 1_555
N1_4 C10_7 1_555 1_555
C13_4 C14_4 1_555 1_555
C14_4 C15_4 1_555 1_555
C15_4 H9_4 1_555 1_555
C16_4 C15_4 1_555 1_555
C18_4 C13_4 1_555 1_555
C19_4 C13_4 1_555 1_555
H12_4 C19_4 1_555 1_555
O3_4 C19_4 1_555 1_555
O4_4 C14_4 1_555 1_555
Co2_2 O3_4 1_555 1_555
Co3_3 N1_4 1_555 1_555
C2_4 O2_4 1_555 1_555
C5_5 C6_4 1_555 1_555
C11_7 C12_7 1_555 1_555
C11_7 N1_4 1_555 1_555
O4_4 Co2_2 1_555 1_555
C1_5 C2_5 1_555 1_555
C2_5 C3_5 1_555 1_555
C3_5 H1_5 1_555 1_555
C4_5 C3_5 1_555 1_555
C5_6 C4_5 1_555 1_555
H2_6 C5_6 1_555 1_555
C6_5 C1_5 1_555 1_555
H3_6 C6_5 1_555 1_555
C7_5 C1_5 1_555 1_555
H4_5 C7_5 1_555 1_555
C8_8 C4_5 1_555 1_555
C9_8 C8_8 1_555 1_555
H5_8 C9_8 1_555 1_555
C10_8 C9_8 1_555 1_555
H6_8 C10_8 1_555 1_555
C12_8 C8_8 1_555 1_555
H8_8 C12_8 1_555 1_555
N1_5 C10_8 1_555 1_555
C14_5 C15_5 1_555 1_555
C15_5 H9_5 1_555 1_555
C16_5 C15_5 1_555 1_555
O4_5 C14_5 1_555 1_555
Co3_6 N1_5 1_555 1_555
C2_5 O2_5 1_555 1_555
C5_6 C6_5 1_555 1_555
C11_8 C12_8 1_555 1_555
C11_8 N1_5 1_555 1_555
O4_5 Co3_3 1_555 1_555
C18_5 C13_5 1_555 1_555
C19_5 C13_5 1_555 1_555
H12_5 C19_5 1_555 1_555
O3_5 C19_5 1_555 1_555
Co3_4 O3_5 1_555 1_555
C18_6 C13_6 1_555 1_555
C19_6 C13_6 1_555 1_555
H12_6 C19_6 1_555 1_555
O3_6 C19_6 1_555 1_555
Co3_5 O3_6 1_555 1_555
C1_6 C2_6 1_555 1_555
C2_6 C3_6 1_555 1_555
C3_6 H1_6 1_555 1_555
C4_6 C3_6 1_555 1_555
C5_7 C4_6 1_555 1_555
H2_7 C5_7 1_555 1_555
C6_6 C1_6 1_555 1_555
H3_7 C6_6 1_555 1_555
C7_6 C1_6 1_555 1_555
H4_6 C7_6 1_555 1_555
C8_9 C4_6 1_555 1_555
C9_9 C8_9 1_555 1_555
H5_9 C9_9 1_555 1_555
C10_9 C9_9 1_555 1_555
H6_9 C10_9 1_555 1_555
C11_9 H7_9 1_555 1_555
C12_9 C8_9 1_555 1_555
H8_9 C12_9 1_555 1_555
N1_6 C10_9 1_555 1_555
C14_6 C15_6 1_555 1_555
C15_6 H9_6 1_555 1_555
C16_6 C15_6 1_555 1_555
O4_6 C14_6 1_555 1_555
Co2_2 N1_6 1_555 1_555
C2_6 O2_6 1_555 1_555
C5_7 C6_6 1_555 1_555
C11_9 C12_9 1_555 1_555
C11_9 N1_6 1_555 1_555
O4_6 Co3_6 1_555 1_555
C2_7 C3_7 1_555 1_555
C3_7 H1_7 1_555 1_555
C4_7 C3_7 1_555 1_555
O2_7 Co3_5 1_555 1_555
C13_7 C14_7 1_555 1_555
C14_7 C15_7 1_555 1_555
C15_7 H9_7 1_555 1_555
C16_7 C15_7 1_555 1_555
C17_5 C16_7 1_555 1_555
H10_5 C17_5 1_555 1_555
C18_7 C13_7 1_555 1_555
H11_5 C18_7 1_555 1_555
C19_7 C13_7 1_555 1_555
H12_7 C19_7 1_555 1_555
C20_7 C16_7 1_555 1_555
C21_7 C20_7 1_555 1_555
H13_7 C21_7 1_555 1_555
C22_7 C21_7 1_555 1_555
H14_7 C22_7 1_555 1_555
C24_7 C20_7 1_555 1_555
H16_7 C24_7 1_555 1_555
N2_7 Co3_5 1_555 1_555
O6_2 C14_7 1_555 1_555
C2_7 O2_7 1_555 1_555
C17_5 C18_7 1_555 1_555
C22_7 N2_7 1_555 1_555
C23_7 C24_7 1_555 1_555
C23_7 N2_7 1_555 1_555
Co3_6 O1_7 1_555 1_555
C6_7 C1_7 1_555 1_555
C7_7 C1_7 1_555 1_555
H4_7 C7_7 1_555 1_555
O1_7 C7_7 1_555 1_555
Co2_2 O1_8 1_555 1_555
C1_8 C2_8 1_555 1_555
C2_8 C3_8 1_555 1_555
C3_8 H1_8 1_555 1_555
C4_8 C3_8 1_555 1_555
C6_8 C1_8 1_555 1_555
C7_8 C1_8 1_555 1_555
H4_8 C7_8 1_555 1_555
O1_8 C7_8 1_555 1_555
O2_8 Co2_2 1_555 1_555
C13_8 C14_8 1_555 1_555
C14_8 C15_8 1_555 1_555
C15_8 H9_8 1_555 1_555
C16_8 C15_8 1_555 1_555
C17_6 C16_8 1_555 1_555
H10_6 C17_6 1_555 1_555
C18_8 C13_8 1_555 1_555
H11_6 C18_8 1_555 1_555
C19_8 C13_8 1_555 1_555
H12_8 C19_8 1_555 1_555
C20_8 C16_8 1_555 1_555
C21_8 C20_8 1_555 1_555
H13_8 C21_8 1_555 1_555
C22_8 C21_8 1_555 1_555
H14_8 C22_8 1_555 1_555
C23_8 H15_8 1_555 1_555
C24_8 C20_8 1_555 1_555
H16_8 C24_8 1_555 1_555
N2_8 Co2_2 1_555 1_555
O6_3 C14_8 1_555 1_555
C2_8 O2_8 1_555 1_555
C17_6 C18_8 1_555 1_555
C22_8 N2_8 1_555 1_555
C23_8 C24_8 1_555 1_555
C23_8 N2_8 1_555 1_555
Co3_3 O1_9 1_555 1_555
C6_9 C1_9 1_555 1_555
C7_9 C1_9 1_555 1_555
H4_9 C7_9 1_555 1_555
O1_9 C7_9 1_555 1_555
C2_9 C3_9 1_555 1_555
C3_9 H1_9 1_555 1_555
C4_9 C3_9 1_555 1_555
O2_9 Co3_4 1_555 1_555
C13_9 C14_9 1_555 1_555
C14_9 C15_9 1_555 1_555
C15_9 H9_9 1_555 1_555
C16_9 C15_9 1_555 1_555
C17_7 C16_9 1_555 1_555
H10_7 C17_7 1_555 1_555
C18_9 C13_9 1_555 1_555
H11_7 C18_9 1_555 1_555
C19_9 C13_9 1_555 1_555
H12_9 C19_9 1_555 1_555
C20_9 C16_9 1_555 1_555
C21_9 C20_9 1_555 1_555
H13_9 C21_9 1_555 1_555
C22_9 C21_9 1_555 1_555
H14_9 C22_9 1_555 1_555
C24_9 C20_9 1_555 1_555
H16_9 C24_9 1_555 1_555
N2_9 Co3_4 1_555 1_555
O6 C14_9 1_555 1_555
C2_9 O2_9 1_555 1_555
C17_7 C18_9 1_555 1_555
C22_9 N2_9 1_555 1_555
C23_9 C24_9 1_555 1_555
C23_9 N2_9 1_555 1_555
H10_8 C17_8 1_555 1_555
H10_9 C17_9 1_555 1_555
H2_8 C5_8 1_555 1_555
H2_9 C5_9 1_555 1_555

#END
