
###############################################################################
#
# This file contains modified crystal structure data generated from the
# MOF subset of the Cambridge Structural Database (CSD) v543 
# hosted by the Cambridge Crystallographic Data Centre (CCDC).
#
# This work is licensed under the Creative Commons
# Attribution-NonCommercial-ShareAlike 4.0 International License.
# To view a copy of this license, visit
# http://creativecommons.org/licenses/by-nc-sa/4.0/
# or send a letter to
# Creative Commons, PO Box 1866, Mountain View, CA 94042, USA.
#
# CIF created using the CSD Python API on 29 September 2022
# The structure has been converted into the P1 space group
# The structure has a 3D framework
# The original CSD entry DUFJOG is in the cubic crystal system
# The framework has been calculated to contain at least 10.0% void space
# The void calculation uses a probe of radius 1.32A, grid spacing 0.4
# H atom positions have been added when not included in the experimental data
# Generated hydrogen atom positions removed from atoms on special positions
#
###############################################################################

data_DUFJOG
_chemical_formula_moiety         '(C2544 H1536 O409 Zn102)n'
_symmetry_cell_setting           triclinic
_symmetry_space_group_name_H-M   'P 1'
_symmetry_Int_Tables_number      1
_space_group_name_Hall           'P 1'
loop_
_symmetry_equiv_pos_site_id
_symmetry_equiv_pos_as_xyz
1 x,y,z
_cell_length_a                   44.210(2)
_cell_length_b                   44.210(2)
_cell_length_c                   44.210(2)
_cell_angle_alpha                90
_cell_angle_beta                 90
_cell_angle_gamma                90
_cell_volume                     86409.5
loop_
_atom_site_label
_atom_site_type_symbol
_atom_site_fract_x
_atom_site_fract_y
_atom_site_fract_z
O4 O 0.03307(5) 0.07652(4) 0.51868(5)
C20 C 0.00270(6) 0.08602(7) 0.47586(7)
C24 C 0.01025(7) 0.06786(7) 0.50325(6)
C26 C 0.02092(8) 0.11017(9) 0.46729(9)
H13 H 0.037972 0.115260 0.478508
C27 C 0.01308(9) 0.12669(10) 0.44138(10)
H14 H 0.024989 0.142873 0.435145
O8 O 0.01868(5) 0.17348(4) 0.21693(5)
O9 O 0.00996(4) 0.20430(4) 0.25584(4)
C50 C 0.00325(6) 0.18214(7) 0.23975(7)
O17 O 0.03307(5) 0.01868(5) 0.07652(4)
C103 C 0.01025(7) 0.00325(6) 0.06786(7)
Zn5 Zn 0.04847(2) 0.04847(2) 0.54847(2)
O19 O 0.07652(4) 0.01868(5) 0.53307(5)
O20 O 0.04570(4) 0.00996(4) 0.49416(4)
O21 O 0.07449(6) 0.07449(6) 0.57449(6)
C117 C 0.06786(7) 0.00325(6) 0.51025(7)
O26 O 0.17348(4) 0.03307(5) 0.23132(5)
C152 C 0.16398(7) 0.00270(6) 0.27414(7)
C156 C 0.18214(7) 0.01025(7) 0.24675(6)
C158 C 0.13983(9) 0.02092(8) 0.28271(9)
H83 H 0.134740 0.037972 0.271492
C159 C 0.12331(10) 0.01308(9) 0.30862(10)
H84 H 0.107127 0.024989 0.314855
Zn7 Zn -0.000000 -0.000000 0.500000
Zn8 Zn 0.250000 -0.000000 0.250000
Zn10 Zn -0.000000 0.250000 0.250000
Zn11 Zn -0.000000 0.000000 0.000000
Zn15 Zn 0.04847(2) 0.20153(2) 0.20153(2)
Zn16 Zn 0.04847(2) 0.04847(2) 0.04847(2)
Zn17 Zn 0.20153(2) 0.04847(2) 0.20153(2)
O29 O 0.01868(5) 0.03307(5) 0.57652(4)
Zn11_2 Zn -0.000000 -0.000000 1.000000
Zn3 Zn -0.000000 0.750000 0.250000
Zn4 Zn 0.04847(2) 0.70153(2) 0.20153(2)
O10 O 0.01868(5) 0.71693(5) 0.17348(4)
O11 O 0.00996(4) 0.75584(4) 0.20430(4)
O12 O 0.07449(6) 0.67551(6) 0.17551(6)
C64 C 0.00325(6) 0.73975(7) 0.18214(7)
C99 C 0.00270(6) 0.97586(7) 0.08602(7)
C105 C 0.02092(8) 0.96729(9) 0.11017(9)
H55 H 0.037972 0.978508 0.115260
C106 C 0.01308(9) 0.94138(10) 0.12669(10)
H56 H 0.024989 0.935145 0.142873
C107 C 0.125000 0.875000 0.375000
C108 C 0.10309(7) 0.88869(7) 0.39767(7)
C109 C 0.07885(6) 0.95940(7) 0.47744(7)
H57 H 0.062768 0.965687 0.465426
C110 C 0.11008(7) 0.90461(7) 0.42352(7)
H58 H 0.130188 0.907509 0.428983
C111 C 0.04973(7) 0.89555(8) 0.40659(9)
H59 H 0.029673 0.892463 0.401043
C112 C 0.09471(7) 0.93378(7) 0.46925(7)
C113 C 0.08602(7) 0.97586(7) 0.50270(6)
C114 C 0.07328(7) 0.88389(7) 0.38895(7)
C115 C 0.05687(8) 0.91191(8) 0.43270(8)
H60 H 0.041384 0.919971 0.444436
C116 C 0.08705(7) 0.91635(7) 0.44144(7)
C118 C 0.11878(10) 0.92517(9) 0.48754(9)
H61 H 0.129872 0.908039 0.482457
C119 C 0.11017(9) 0.96729(9) 0.52092(8)
H62 H 0.115260 0.978508 0.537972
C120 C 0.12669(10) 0.94138(10) 0.51308(9)
H63 H 0.142873 0.935145 0.524989
O22 O 0.07652(4) 0.73132(5) 0.21693(5)
O23 O 0.04570(4) 0.74004(4) 0.25584(4)
C121 C 0.10309(7) 0.86131(7) 0.35233(7)
C122 C 0.07885(6) 0.79060(7) 0.27256(7)
H64 H 0.062768 0.784313 0.284574
C123 C 0.11008(7) 0.84539(7) 0.32648(7)
H65 H 0.130188 0.842491 0.321017
C124 C 0.04973(7) 0.85445(8) 0.34341(9)
H66 H 0.029673 0.857537 0.348957
C125 C 0.09471(7) 0.81622(7) 0.28075(7)
C126 C 0.08602(7) 0.77414(7) 0.24730(6)
C127 C 0.07328(7) 0.86611(7) 0.36105(7)
C128 C 0.05687(8) 0.83809(8) 0.31730(8)
H67 H 0.041384 0.830029 0.305564
C129 C 0.08705(7) 0.83365(7) 0.30856(7)
C130 C 0.06786(7) 0.74675(6) 0.23975(7)
C131 C 0.11878(10) 0.82483(9) 0.26246(9)
H68 H 0.129872 0.841961 0.267543
C132 C 0.11017(9) 0.78271(9) 0.22908(8)
H69 H 0.115260 0.771492 0.212028
C133 C 0.12669(10) 0.80862(10) 0.23692(9)
H70 H 0.142873 0.814855 0.225011
O24 O 0.17348(4) 0.71693(5) 0.51868(5)
O25 O 0.20430(4) 0.75584(4) 0.50996(4)
C134 C 0.14691(7) 0.85233(7) 0.38869(7)
C135 C 0.17115(6) 0.77256(7) 0.45940(7)
H71 H 0.187232 0.784574 0.465687
C136 C 0.13992(7) 0.82648(7) 0.40461(7)
H72 H 0.119812 0.821017 0.407509
C137 C 0.20027(7) 0.84341(9) 0.39555(8)
H73 H 0.220327 0.848957 0.392463
C138 C 0.15529(7) 0.78075(7) 0.43378(7)
C139 C 0.16398(7) 0.74730(6) 0.47586(7)
C140 C 0.17672(7) 0.86105(7) 0.38389(7)
C141 C 0.19313(8) 0.81730(8) 0.41191(8)
H74 H 0.208616 0.805564 0.419971
C142 C 0.16295(7) 0.80856(7) 0.41635(7)
C143 C 0.18214(7) 0.73975(7) 0.50325(6)
C144 C 0.13122(10) 0.76246(9) 0.42517(9)
H75 H 0.120128 0.767543 0.408039
C145 C 0.13983(9) 0.72908(8) 0.46729(9)
H76 H 0.134740 0.712028 0.478508
C146 C 0.12331(10) 0.73692(9) 0.44138(10)
H77 H 0.107127 0.725011 0.435145
O27 O 0.20430(4) 0.99416(4) 0.24004(4)
C147 C 0.14691(7) 0.89767(7) 0.36131(7)
C148 C 0.17115(6) 0.97744(7) 0.29060(7)
H78 H 0.187232 0.965426 0.284313
C149 C 0.13992(7) 0.92352(7) 0.34539(7)
H79 H 0.119812 0.928983 0.342491
C150 C 0.20027(7) 0.90659(9) 0.35445(8)
H80 H 0.220327 0.901043 0.357537
C151 C 0.15529(7) 0.96925(7) 0.31622(7)
C153 C 0.17672(7) 0.88895(7) 0.36611(7)
C154 C 0.19313(8) 0.93270(8) 0.33809(8)
H81 H 0.208616 0.944436 0.330029
C155 C 0.16295(7) 0.94144(7) 0.33365(7)
C157 C 0.13122(10) 0.98754(9) 0.32483(9)
H82 H 0.120128 0.982457 0.341961
Zn7_2 Zn -0.000000 1.000000 0.500000
Zn8_2 Zn 0.250000 1.000000 0.250000
Zn9 Zn 0.250000 0.750000 0.500000
Zn11_3 Zn -0.000000 1.000000 0.000000
Zn18 Zn 0.20153(2) 0.70153(2) 0.54847(2)
O31 O 0.03307(5) 0.67348(4) 0.23132(5)
O41 O 0.00584(4) 0.79570(4) 0.25996(4)
Zn11_4 Zn -0.000000 1.000000 1.000000
Zn1 Zn 0.750000 -0.000000 0.250000
Zn2 Zn 0.70153(2) 0.04847(2) 0.20153(2)
O1 O 0.71693(5) 0.07652(4) 0.23132(5)
O2 O 0.75584(4) 0.04570(4) 0.24004(4)
O3 O 0.67551(6) 0.07449(6) 0.17551(6)
C1 C 0.875000 0.125000 0.375000
C2 C 0.85233(7) 0.10309(7) 0.36131(7)
C3 C 0.77256(7) 0.07885(6) 0.29060(7)
H1 H 0.784574 0.062768 0.284313
C4 C 0.82648(7) 0.11008(7) 0.34539(7)
H2 H 0.821017 0.130188 0.342491
C5 C 0.84341(9) 0.04973(7) 0.35445(8)
H3 H 0.848957 0.029673 0.357537
C6 C 0.78075(7) 0.09471(7) 0.31622(7)
C7 C 0.74730(6) 0.08602(7) 0.27414(7)
C8 C 0.86105(7) 0.07328(7) 0.36611(7)
C9 C 0.81730(8) 0.05687(8) 0.33809(8)
H4 H 0.805564 0.041384 0.330029
C10 C 0.80856(7) 0.08705(7) 0.33365(7)
C11 C 0.73975(7) 0.06786(7) 0.24675(6)
C12 C 0.76246(9) 0.11878(10) 0.32483(9)
H5 H 0.767543 0.129872 0.341961
C13 C 0.72908(8) 0.11017(9) 0.28271(9)
H6 H 0.712028 0.115260 0.271492
C14 C 0.73692(9) 0.12669(10) 0.30862(10)
H7 H 0.725011 0.142873 0.314855
O5 O 0.99416(4) 0.04570(4) 0.50996(4)
C15 C 0.89767(7) 0.10309(7) 0.38869(7)
C16 C 0.97744(7) 0.07885(6) 0.45940(7)
H8 H 0.965426 0.062768 0.465687
C17 C 0.92352(7) 0.11008(7) 0.40461(7)
H9 H 0.928983 0.130188 0.407509
C18 C 0.90659(9) 0.04973(7) 0.39555(8)
H10 H 0.901043 0.029673 0.392463
C19 C 0.96925(7) 0.09471(7) 0.43378(7)
C21 C 0.88895(7) 0.07328(7) 0.38389(7)
C22 C 0.93270(8) 0.05687(8) 0.41191(8)
H11 H 0.944436 0.041384 0.419971
C23 C 0.94144(7) 0.08705(7) 0.41635(7)
C25 C 0.98754(9) 0.11878(10) 0.42517(9)
H12 H 0.982457 0.129872 0.408039
O6 O 0.73132(5) 0.17348(4) 0.53307(5)
O7 O 0.74004(4) 0.20430(4) 0.49416(4)
C28 C 0.86131(7) 0.14691(7) 0.39767(7)
C29 C 0.79060(7) 0.17115(6) 0.47744(7)
H15 H 0.784313 0.187232 0.465426
C30 C 0.84539(7) 0.13992(7) 0.42352(7)
H16 H 0.842491 0.119812 0.428983
C31 C 0.85445(8) 0.20027(7) 0.40659(9)
H17 H 0.857537 0.220327 0.401043
C32 C 0.81622(7) 0.15529(7) 0.46925(7)
C33 C 0.77414(7) 0.16398(7) 0.50270(6)
C34 C 0.86611(7) 0.17672(7) 0.38895(7)
C35 C 0.83809(8) 0.19313(8) 0.43270(8)
H18 H 0.830029 0.208616 0.444436
C36 C 0.83365(7) 0.16295(7) 0.44144(7)
C37 C 0.74675(6) 0.18214(7) 0.51025(7)
C38 C 0.82483(9) 0.13122(10) 0.48754(9)
H19 H 0.841961 0.120128 0.482457
C39 C 0.78271(9) 0.13983(9) 0.52092(8)
H20 H 0.771492 0.134740 0.537972
C40 C 0.80862(10) 0.12331(10) 0.51308(9)
H21 H 0.814855 0.107127 0.524989
C41 C 0.88869(7) 0.14691(7) 0.35233(7)
C42 C 0.95940(7) 0.17115(6) 0.27256(7)
H22 H 0.965687 0.187232 0.284574
C43 C 0.90461(7) 0.13992(7) 0.32648(7)
H23 H 0.907509 0.119812 0.321017
C44 C 0.89555(8) 0.20027(7) 0.34341(9)
H24 H 0.892463 0.220327 0.348957
C45 C 0.93378(7) 0.15529(7) 0.28075(7)
C46 C 0.97586(7) 0.16398(7) 0.24730(6)
C47 C 0.88389(7) 0.17672(7) 0.36105(7)
C48 C 0.91191(8) 0.19313(8) 0.31730(8)
H25 H 0.919971 0.208616 0.305564
C49 C 0.91635(7) 0.16295(7) 0.30856(7)
C51 C 0.92517(9) 0.13122(10) 0.26246(9)
H26 H 0.908039 0.120128 0.267543
C52 C 0.96729(9) 0.13983(9) 0.22908(8)
H27 H 0.978508 0.134740 0.212028
C53 C 0.94138(10) 0.12331(10) 0.23692(9)
H28 H 0.935145 0.107127 0.225011
O13 O 0.73132(5) 0.03307(5) 0.17348(4)
C73 C 0.77414(7) 0.00270(6) 0.16398(7)
C77 C 0.74675(6) 0.01025(7) 0.18214(7)
C79 C 0.78271(9) 0.02092(8) 0.13983(9)
H41 H 0.771492 0.037972 0.134740
C80 C 0.80862(10) 0.01308(9) 0.12331(10)
H42 H 0.814855 0.024989 0.107127
O18 O 0.99416(4) 0.00996(4) 0.04570(4)
Zn6 Zn 0.70153(2) 0.20153(2) 0.54847(2)
O28 O 0.67551(6) 0.17551(6) 0.57449(6)
Zn7_3 Zn 1.000000 -0.000000 0.500000
Zn10_2 Zn 1.000000 0.250000 0.250000
Zn11_5 Zn 1.000000 0.000000 0.000000
Zn12 Zn 0.750000 0.250000 0.500000
O30 O 0.67348(4) 0.01868(5) 0.21693(5)
O32 O 0.71693(5) 0.23132(5) 0.57652(4)
O33 O 0.67348(4) 0.21693(5) 0.51868(5)
O34 O 0.70430(4) 0.00996(4) 0.25584(4)
O38 O 0.75996(4) 0.00584(4) 0.29570(4)
Zn11_6 Zn 1.000000 -0.000000 1.000000
Zn1_2 Zn 0.750000 1.000000 0.250000
Zn3_2 Zn 1.000000 0.750000 0.250000
C54 C 0.875000 0.875000 0.125000
C55 C 0.88869(7) 0.85233(7) 0.14691(7)
C56 C 0.95940(7) 0.77256(7) 0.17115(6)
H29 H 0.965687 0.784574 0.187232
C57 C 0.90461(7) 0.82648(7) 0.13992(7)
H30 H 0.907509 0.821017 0.119812
C58 C 0.89555(8) 0.84341(9) 0.20027(7)
H31 H 0.892463 0.848957 0.220327
C59 C 0.93378(7) 0.78075(7) 0.15529(7)
C60 C 0.97586(7) 0.74730(6) 0.16398(7)
C61 C 0.88389(7) 0.86105(7) 0.17672(7)
C62 C 0.91191(8) 0.81730(8) 0.19313(8)
H32 H 0.919971 0.805564 0.208616
C63 C 0.91635(7) 0.80856(7) 0.16295(7)
C65 C 0.92517(9) 0.76246(9) 0.13122(10)
H33 H 0.908039 0.767543 0.120128
C66 C 0.96729(9) 0.72908(8) 0.13983(9)
H34 H 0.978508 0.712028 0.134740
C67 C 0.94138(10) 0.73692(9) 0.12331(10)
H35 H 0.935145 0.725011 0.107127
O14 O 0.74004(4) 0.99416(4) 0.20430(4)
C68 C 0.86131(7) 0.89767(7) 0.14691(7)
C69 C 0.79060(7) 0.97744(7) 0.17115(6)
H36 H 0.784313 0.965426 0.187232
C70 C 0.84539(7) 0.92352(7) 0.13992(7)
H37 H 0.842491 0.928983 0.119812
C71 C 0.85445(8) 0.90659(9) 0.20027(7)
H38 H 0.857537 0.901043 0.220327
C72 C 0.81622(7) 0.96925(7) 0.15529(7)
C74 C 0.86611(7) 0.88895(7) 0.17672(7)
C75 C 0.83809(8) 0.93270(8) 0.19313(8)
H39 H 0.830029 0.944436 0.208616
C76 C 0.83365(7) 0.94144(7) 0.16295(7)
C78 C 0.82483(9) 0.98754(9) 0.13122(10)
H40 H 0.841961 0.982457 0.120128
O15 O 0.71693(5) 0.73132(5) 0.07652(4)
O16 O 0.75584(4) 0.74004(4) 0.04570(4)
C81 C 0.85233(7) 0.86131(7) 0.10309(7)
C82 C 0.77256(7) 0.79060(7) 0.07885(6)
H43 H 0.784574 0.784313 0.062768
C83 C 0.82648(7) 0.84539(7) 0.11008(7)
H44 H 0.821017 0.842491 0.130188
C84 C 0.84341(9) 0.85445(8) 0.04973(7)
H45 H 0.848957 0.857537 0.029673
C85 C 0.78075(7) 0.81622(7) 0.09471(7)
C86 C 0.74730(6) 0.77414(7) 0.08602(7)
C87 C 0.86105(7) 0.86611(7) 0.07328(7)
C88 C 0.81730(8) 0.83809(8) 0.05687(8)
H46 H 0.805564 0.830029 0.041384
C89 C 0.80856(7) 0.83365(7) 0.08705(7)
C90 C 0.73975(7) 0.74675(6) 0.06786(7)
C91 C 0.76246(9) 0.82483(9) 0.11878(10)
H47 H 0.767543 0.841961 0.129872
C92 C 0.72908(8) 0.78271(9) 0.11017(9)
H48 H 0.712028 0.771492 0.115260
C93 C 0.73692(9) 0.80862(10) 0.12669(10)
H49 H 0.725011 0.814855 0.142873
C94 C 0.89767(7) 0.88869(7) 0.10309(7)
C95 C 0.97744(7) 0.95940(7) 0.07885(6)
H50 H 0.965426 0.965687 0.062768
C96 C 0.92352(7) 0.90461(7) 0.11008(7)
H51 H 0.928983 0.907509 0.130188
C97 C 0.90659(9) 0.89555(8) 0.04973(7)
H52 H 0.901043 0.892463 0.029673
C98 C 0.96925(7) 0.93378(7) 0.09471(7)
C100 C 0.88895(7) 0.88389(7) 0.07328(7)
C101 C 0.93270(8) 0.91191(8) 0.05687(8)
H53 H 0.944436 0.919971 0.041384
C102 C 0.94144(7) 0.91635(7) 0.08705(7)
C104 C 0.98754(9) 0.92517(9) 0.11878(10)
H54 H 0.982457 0.908039 0.129872
Zn7_4 Zn 1.000000 1.000000 0.500000
Zn11_7 Zn 1.000000 1.000000 0.000000
Zn13 Zn 0.750000 0.750000 0.000000
Zn14 Zn 0.70153(2) 0.70153(2) 0.04847(2)
O35 O 0.99416(4) 0.70430(4) 0.24004(4)
O36 O 0.95430(4) 0.75996(4) 0.24416(4)
O37 O 0.79570(4) 0.99004(4) 0.24416(4)
O39 O 0.99004(4) 0.74416(4) 0.29570(4)
O40 O 0.74416(4) 0.95430(4) 0.25996(4)
Zn11_8 Zn 1.000000 1.000000 1.000000
Zn13_2 Zn 0.750000 0.750000 1.000000
Zn1_3 Zn 0.500000 0.250000 0.250000
Zn2_2 Zn 0.54847(2) 0.20153(2) 0.20153(2)
O1_2 O 0.53307(5) 0.17348(4) 0.23132(5)
O2_2 O 0.49416(4) 0.20430(4) 0.24004(4)
O3_2 O 0.57449(6) 0.17551(6) 0.17551(6)
C1_2 C 0.375000 0.125000 0.375000
C2_2 C 0.39767(7) 0.14691(7) 0.36131(7)
C3_2 C 0.47744(7) 0.17115(6) 0.29060(7)
H1_2 H 0.465426 0.187232 0.284313
C4_2 C 0.42352(7) 0.13992(7) 0.34539(7)
H2_2 H 0.428983 0.119812 0.342491
C5_2 C 0.40659(9) 0.20027(7) 0.35445(8)
H3_2 H 0.401043 0.220327 0.357537
C6_2 C 0.46925(7) 0.15529(7) 0.31622(7)
C7_2 C 0.50270(6) 0.16398(7) 0.27414(7)
C8_2 C 0.38895(7) 0.17672(7) 0.36611(7)
C9_2 C 0.43270(8) 0.19313(8) 0.33809(8)
H4_2 H 0.444436 0.208616 0.330029
C10_2 C 0.44144(7) 0.16295(7) 0.33365(7)
C11_2 C 0.51025(7) 0.18214(7) 0.24675(6)
C12_2 C 0.48754(9) 0.13122(10) 0.32483(9)
H5_2 H 0.482457 0.120128 0.341961
C13_2 C 0.52092(8) 0.13983(9) 0.28271(9)
H6_2 H 0.537972 0.134740 0.271492
C14_2 C 0.51308(9) 0.12331(10) 0.30862(10)
H7_2 H 0.524989 0.107127 0.314855
O4_2 O 0.21693(5) 0.17348(4) 0.51868(5)
O5_2 O 0.25584(4) 0.20430(4) 0.50996(4)
C15_2 C 0.35233(7) 0.14691(7) 0.38869(7)
C16_2 C 0.27256(7) 0.17115(6) 0.45940(7)
H8_2 H 0.284574 0.187232 0.465687
C17_2 C 0.32648(7) 0.13992(7) 0.40461(7)
H9_2 H 0.321017 0.119812 0.407509
C18_2 C 0.34341(9) 0.20027(7) 0.39555(8)
H10_2 H 0.348957 0.220327 0.392463
C19_2 C 0.28075(7) 0.15529(7) 0.43378(7)
C20_2 C 0.24730(6) 0.16398(7) 0.47586(7)
C21_2 C 0.36105(7) 0.17672(7) 0.38389(7)
C22_2 C 0.31730(8) 0.19313(8) 0.41191(8)
H11_2 H 0.305564 0.208616 0.419971
C23_2 C 0.30856(7) 0.16295(7) 0.41635(7)
C24_2 C 0.23975(7) 0.18214(7) 0.50325(6)
C25_2 C 0.26246(9) 0.13122(10) 0.42517(9)
H12_2 H 0.267543 0.120128 0.408039
C26_2 C 0.22908(8) 0.13983(9) 0.46729(9)
H13_2 H 0.212028 0.134740 0.478508
C27_2 C 0.23692(9) 0.12331(10) 0.44138(10)
H14_2 H 0.225011 0.107127 0.435145
O6_2 O 0.51868(5) 0.07652(4) 0.53307(5)
O7_2 O 0.50996(4) 0.04570(4) 0.49416(4)
C28_2 C 0.38869(7) 0.10309(7) 0.39767(7)
C29_2 C 0.45940(7) 0.07885(6) 0.47744(7)
H15_2 H 0.465687 0.062768 0.465426
C30_2 C 0.40461(7) 0.11008(7) 0.42352(7)
H16_2 H 0.407509 0.130188 0.428983
C31_2 C 0.39555(8) 0.04973(7) 0.40659(9)
H17_2 H 0.392463 0.029673 0.401043
C32_2 C 0.43378(7) 0.09471(7) 0.46925(7)
C33_2 C 0.47586(7) 0.08602(7) 0.50270(6)
C34_2 C 0.38389(7) 0.07328(7) 0.38895(7)
C35_2 C 0.41191(8) 0.05687(8) 0.43270(8)
H18_2 H 0.419971 0.041384 0.444436
C36_2 C 0.41635(7) 0.08705(7) 0.44144(7)
C37_2 C 0.50325(6) 0.06786(7) 0.51025(7)
C38_2 C 0.42517(9) 0.11878(10) 0.48754(9)
H19_2 H 0.408039 0.129872 0.482457
C39_2 C 0.46729(9) 0.11017(9) 0.52092(8)
H20_2 H 0.478508 0.115260 0.537972
C40_2 C 0.44138(10) 0.12669(10) 0.51308(9)
H21_2 H 0.435145 0.142873 0.524989
O8_2 O 0.23132(5) 0.07652(4) 0.21693(5)
O9_2 O 0.24004(4) 0.04570(4) 0.25584(4)
C41_2 C 0.36131(7) 0.10309(7) 0.35233(7)
C42_2 C 0.29060(7) 0.07885(6) 0.27256(7)
H22_2 H 0.284313 0.062768 0.284574
C43_2 C 0.34539(7) 0.11008(7) 0.32648(7)
H23_2 H 0.342491 0.130188 0.321017
C44_2 C 0.35445(8) 0.04973(7) 0.34341(9)
H24_2 H 0.357537 0.029673 0.348957
C45_2 C 0.31622(7) 0.09471(7) 0.28075(7)
C46_2 C 0.27414(7) 0.08602(7) 0.24730(6)
C47_2 C 0.36611(7) 0.07328(7) 0.36105(7)
C48_2 C 0.33809(8) 0.05687(8) 0.31730(8)
H25_2 H 0.330029 0.041384 0.305564
C49_2 C 0.33365(7) 0.08705(7) 0.30856(7)
C50_2 C 0.24675(6) 0.06786(7) 0.23975(7)
C51_2 C 0.32483(9) 0.11878(10) 0.26246(9)
H26_2 H 0.341961 0.129872 0.267543
C52_2 C 0.28271(9) 0.11017(9) 0.22908(8)
H27_2 H 0.271492 0.115260 0.212028
C53_2 C 0.30862(10) 0.12669(10) 0.23692(9)
H28_2 H 0.314855 0.142873 0.225011
Zn3_3 Zn 0.250000 0.500000 0.250000
Zn4_2 Zn 0.20153(2) 0.54847(2) 0.20153(2)
O10_2 O 0.23132(5) 0.53307(5) 0.17348(4)
O11_2 O 0.24004(4) 0.49416(4) 0.20430(4)
O12_2 O 0.17551(6) 0.57449(6) 0.17551(6)
C54_2 C 0.375000 0.375000 0.125000
C55_2 C 0.36131(7) 0.39767(7) 0.14691(7)
C56_2 C 0.29060(7) 0.47744(7) 0.17115(6)
H29_2 H 0.284313 0.465426 0.187232
C57_2 C 0.34539(7) 0.42352(7) 0.13992(7)
H30_2 H 0.342491 0.428983 0.119812
C58_2 C 0.35445(8) 0.40659(9) 0.20027(7)
H31_2 H 0.357537 0.401043 0.220327
C59_2 C 0.31622(7) 0.46925(7) 0.15529(7)
C60_2 C 0.27414(7) 0.50270(6) 0.16398(7)
C61_2 C 0.36611(7) 0.38895(7) 0.17672(7)
C62_2 C 0.33809(8) 0.43270(8) 0.19313(8)
H32_2 H 0.330029 0.444436 0.208616
C63_2 C 0.33365(7) 0.44144(7) 0.16295(7)
C64_2 C 0.24675(6) 0.51025(7) 0.18214(7)
C65_2 C 0.32483(9) 0.48754(9) 0.13122(10)
H33_2 H 0.341961 0.482457 0.120128
C66_2 C 0.28271(9) 0.52092(8) 0.13983(9)
H34_2 H 0.271492 0.537972 0.134740
C67_2 C 0.30862(10) 0.51308(9) 0.12331(10)
H35_2 H 0.314855 0.524989 0.107127
O13_2 O 0.51868(5) 0.21693(5) 0.17348(4)
O14_2 O 0.50996(4) 0.25584(4) 0.20430(4)
C68_2 C 0.38869(7) 0.35233(7) 0.14691(7)
C69_2 C 0.45940(7) 0.27256(7) 0.17115(6)
H36_2 H 0.465687 0.284574 0.187232
C70_2 C 0.40461(7) 0.32648(7) 0.13992(7)
H37_2 H 0.407509 0.321017 0.119812
C71_2 C 0.39555(8) 0.34341(9) 0.20027(7)
H38_2 H 0.392463 0.348957 0.220327
C72_2 C 0.43378(7) 0.28075(7) 0.15529(7)
C73_2 C 0.47586(7) 0.24730(6) 0.16398(7)
C74_2 C 0.38389(7) 0.36105(7) 0.17672(7)
C75_2 C 0.41191(8) 0.31730(8) 0.19313(8)
H39_2 H 0.419971 0.305564 0.208616
C76_2 C 0.41635(7) 0.30856(7) 0.16295(7)
C77_2 C 0.50325(6) 0.23975(7) 0.18214(7)
C78_2 C 0.42517(9) 0.26246(9) 0.13122(10)
H40_2 H 0.408039 0.267543 0.120128
C79_2 C 0.46729(9) 0.22908(8) 0.13983(9)
H41_2 H 0.478508 0.212028 0.134740
C80_2 C 0.44138(10) 0.23692(9) 0.12331(10)
H42_2 H 0.435145 0.225011 0.107127
O15_2 O 0.53307(5) 0.51868(5) 0.07652(4)
O16_2 O 0.49416(4) 0.50996(4) 0.04570(4)
C81_2 C 0.39767(7) 0.38869(7) 0.10309(7)
C82_2 C 0.47744(7) 0.45940(7) 0.07885(6)
H43_2 H 0.465426 0.465687 0.062768
C83_2 C 0.42352(7) 0.40461(7) 0.11008(7)
H44_2 H 0.428983 0.407509 0.130188
C84_2 C 0.40659(9) 0.39555(8) 0.04973(7)
H45_2 H 0.401043 0.392463 0.029673
C85_2 C 0.46925(7) 0.43378(7) 0.09471(7)
C86_2 C 0.50270(6) 0.47586(7) 0.08602(7)
C87_2 C 0.38895(7) 0.38389(7) 0.07328(7)
C88_2 C 0.43270(8) 0.41191(8) 0.05687(8)
H46_2 H 0.444436 0.419971 0.041384
C89_2 C 0.44144(7) 0.41635(7) 0.08705(7)
C90_2 C 0.51025(7) 0.50325(6) 0.06786(7)
C91_2 C 0.48754(9) 0.42517(9) 0.11878(10)
H47_2 H 0.482457 0.408039 0.129872
C92_2 C 0.52092(8) 0.46729(9) 0.11017(9)
H48_2 H 0.537972 0.478508 0.115260
C93_2 C 0.51308(9) 0.44138(10) 0.12669(10)
H49_2 H 0.524989 0.435145 0.142873
O17_2 O 0.21693(5) 0.23132(5) 0.07652(4)
O18_2 O 0.25584(4) 0.24004(4) 0.04570(4)
C94_2 C 0.35233(7) 0.36131(7) 0.10309(7)
C95_2 C 0.27256(7) 0.29060(7) 0.07885(6)
H50_2 H 0.284574 0.284313 0.062768
C96_2 C 0.32648(7) 0.34539(7) 0.11008(7)
H51_2 H 0.321017 0.342491 0.130188
C97_2 C 0.34341(9) 0.35445(8) 0.04973(7)
H52_2 H 0.348957 0.357537 0.029673
C98_2 C 0.28075(7) 0.31622(7) 0.09471(7)
C99_2 C 0.24730(6) 0.27414(7) 0.08602(7)
C100_2 C 0.36105(7) 0.36611(7) 0.07328(7)
C101_2 C 0.31730(8) 0.33809(8) 0.05687(8)
H53_2 H 0.305564 0.330029 0.041384
C102_2 C 0.30856(7) 0.33365(7) 0.08705(7)
C103_2 C 0.23975(7) 0.24675(6) 0.06786(7)
C104_2 C 0.26246(9) 0.32483(9) 0.11878(10)
H54_2 H 0.267543 0.341961 0.129872
C105_2 C 0.22908(8) 0.28271(9) 0.11017(9)
H55_2 H 0.212028 0.271492 0.115260
C106_2 C 0.23692(9) 0.30862(10) 0.12669(10)
H56_2 H 0.225011 0.314855 0.142873
Zn5_2 Zn 0.20153(2) 0.20153(2) 0.54847(2)
O19_2 O 0.17348(4) 0.23132(5) 0.53307(5)
O20_2 O 0.20430(4) 0.24004(4) 0.49416(4)
O21_2 O 0.17551(6) 0.17551(6) 0.57449(6)
C107_2 C 0.125000 0.375000 0.375000
C108_2 C 0.14691(7) 0.36131(7) 0.39767(7)
C109_2 C 0.17115(6) 0.29060(7) 0.47744(7)
H57_2 H 0.187232 0.284313 0.465426
C110_2 C 0.13992(7) 0.34539(7) 0.42352(7)
H58_2 H 0.119812 0.342491 0.428983
C111_2 C 0.20027(7) 0.35445(8) 0.40659(9)
H59_2 H 0.220327 0.357537 0.401043
C112_2 C 0.15529(7) 0.31622(7) 0.46925(7)
C113_2 C 0.16398(7) 0.27414(7) 0.50270(6)
C114_2 C 0.17672(7) 0.36611(7) 0.38895(7)
C115_2 C 0.19313(8) 0.33809(8) 0.43270(8)
H60_2 H 0.208616 0.330029 0.444436
C116_2 C 0.16295(7) 0.33365(7) 0.44144(7)
C117_2 C 0.18214(7) 0.24675(6) 0.51025(7)
C118_2 C 0.13122(10) 0.32483(9) 0.48754(9)
H61_2 H 0.120128 0.341961 0.482457
C119_2 C 0.13983(9) 0.28271(9) 0.52092(8)
H62_2 H 0.134740 0.271492 0.537972
C120_2 C 0.12331(10) 0.30862(10) 0.51308(9)
H63_2 H 0.107127 0.314855 0.524989
O22_2 O 0.17348(4) 0.51868(5) 0.21693(5)
O23_2 O 0.20430(4) 0.50996(4) 0.25584(4)
C121_2 C 0.14691(7) 0.38869(7) 0.35233(7)
C122_2 C 0.17115(6) 0.45940(7) 0.27256(7)
H64_2 H 0.187232 0.465687 0.284574
C123_2 C 0.13992(7) 0.40461(7) 0.32648(7)
H65_2 H 0.119812 0.407509 0.321017
C124_2 C 0.20027(7) 0.39555(8) 0.34341(9)
H66_2 H 0.220327 0.392463 0.348957
C125_2 C 0.15529(7) 0.43378(7) 0.28075(7)
C126_2 C 0.16398(7) 0.47586(7) 0.24730(6)
C127_2 C 0.17672(7) 0.38389(7) 0.36105(7)
C128_2 C 0.19313(8) 0.41191(8) 0.31730(8)
H67_2 H 0.208616 0.419971 0.305564
C129_2 C 0.16295(7) 0.41635(7) 0.30856(7)
C130_2 C 0.18214(7) 0.50325(6) 0.23975(7)
C131_2 C 0.13122(10) 0.42517(9) 0.26246(9)
H68_2 H 0.120128 0.408039 0.267543
C132_2 C 0.13983(9) 0.46729(9) 0.22908(8)
H69_2 H 0.134740 0.478508 0.212028
C133_2 C 0.12331(10) 0.44138(10) 0.23692(9)
H70_2 H 0.107127 0.435145 0.225011
O24_2 O 0.07652(4) 0.53307(5) 0.51868(5)
O25_2 O 0.04570(4) 0.49416(4) 0.50996(4)
C134_2 C 0.10309(7) 0.39767(7) 0.38869(7)
C135_2 C 0.07885(6) 0.47744(7) 0.45940(7)
H71_2 H 0.062768 0.465426 0.465687
C136_2 C 0.11008(7) 0.42352(7) 0.40461(7)
H72_2 H 0.130188 0.428983 0.407509
C137_2 C 0.04973(7) 0.40659(9) 0.39555(8)
H73_2 H 0.029673 0.401043 0.392463
C138_2 C 0.09471(7) 0.46925(7) 0.43378(7)
C139_2 C 0.08602(7) 0.50270(6) 0.47586(7)
C140_2 C 0.07328(7) 0.38895(7) 0.38389(7)
C141_2 C 0.05687(8) 0.43270(8) 0.41191(8)
H74_2 H 0.041384 0.444436 0.419971
C142_2 C 0.08705(7) 0.44144(7) 0.41635(7)
C143_2 C 0.06786(7) 0.51025(7) 0.50325(6)
C144_2 C 0.11878(10) 0.48754(9) 0.42517(9)
H75_2 H 0.129872 0.482457 0.408039
C145_2 C 0.11017(9) 0.52092(8) 0.46729(9)
H76_2 H 0.115260 0.537972 0.478508
C146_2 C 0.12669(10) 0.51308(9) 0.44138(10)
H77_2 H 0.142873 0.524989 0.435145
O26_2 O 0.07652(4) 0.21693(5) 0.23132(5)
O27_2 O 0.04570(4) 0.25584(4) 0.24004(4)
C147_2 C 0.10309(7) 0.35233(7) 0.36131(7)
C148_2 C 0.07885(6) 0.27256(7) 0.29060(7)
H78_2 H 0.062768 0.284574 0.284313
C149_2 C 0.11008(7) 0.32648(7) 0.34539(7)
H79_2 H 0.130188 0.321017 0.342491
C150_2 C 0.04973(7) 0.34341(9) 0.35445(8)
H80_2 H 0.029673 0.348957 0.357537
C151_2 C 0.09471(7) 0.28075(7) 0.31622(7)
C152_2 C 0.08602(7) 0.24730(6) 0.27414(7)
C153_2 C 0.07328(7) 0.36105(7) 0.36611(7)
C154_2 C 0.05687(8) 0.31730(8) 0.33809(8)
H81_2 H 0.041384 0.305564 0.330029
C155_2 C 0.08705(7) 0.30856(7) 0.33365(7)
C156_2 C 0.06786(7) 0.23975(7) 0.24675(6)
C157_2 C 0.11878(10) 0.26246(9) 0.32483(9)
H82_2 H 0.129872 0.267543 0.341961
C158_2 C 0.11017(9) 0.22908(8) 0.28271(9)
H83_2 H 0.115260 0.212028 0.271492
C159_2 C 0.12669(10) 0.23692(9) 0.30862(10)
H84_2 H 0.142873 0.225011 0.314855
Zn6_2 Zn 0.54847(2) 0.04847(2) 0.54847(2)
O28_2 O 0.57449(6) 0.07449(6) 0.57449(6)
Zn7_5 Zn 0.250000 0.250000 0.500000
Zn9_2 Zn -0.000000 0.500000 0.500000
Zn11_9 Zn 0.250000 0.250000 0.000000
Zn12_2 Zn 0.500000 0.000000 0.500000
Zn13_3 Zn 0.500000 0.500000 0.000000
Zn14_2 Zn 0.54847(2) 0.54847(2) 0.04847(2)
Zn16_2 Zn 0.20153(2) 0.20153(2) 0.04847(2)
Zn18_2 Zn 0.04847(2) 0.54847(2) 0.54847(2)
O29_2 O 0.23132(5) 0.21693(5) 0.57652(4)
O30_2 O 0.57652(4) 0.23132(5) 0.21693(5)
O31_2 O 0.21693(5) 0.57652(4) 0.23132(5)
O32_2 O 0.53307(5) 0.01868(5) 0.57652(4)
O33_2 O 0.57652(4) 0.03307(5) 0.51868(5)
O34_2 O 0.54570(4) 0.24004(4) 0.25584(4)
O35_2 O 0.25584(4) 0.54570(4) 0.24004(4)
O36_2 O 0.29570(4) 0.49004(4) 0.24416(4)
O37_2 O 0.45430(4) 0.25996(4) 0.24416(4)
O38_2 O 0.49004(4) 0.24416(4) 0.29570(4)
O39_2 O 0.25996(4) 0.50584(4) 0.29570(4)
O40_2 O 0.50584(4) 0.29570(4) 0.25996(4)
O41_2 O 0.24416(4) 0.45430(4) 0.25996(4)
Zn11_10 Zn 0.250000 0.250000 1.000000
Zn13_4 Zn 0.500000 0.500000 1.000000
Zn12_3 Zn 0.500000 1.000000 0.500000
Zn9_3 Zn 1.000000 0.500000 0.500000
O8_3 O 0.01868(5) 0.07652(4) 0.03307(5)
C50_3 C 0.00325(6) 0.06786(7) 0.01025(7)
Zn3_4 Zn -0.000000 0.500000 0.000000
Zn4_3 Zn 0.04847(2) 0.54847(2) 0.04847(2)
O10_3 O 0.01868(5) 0.53307(5) 0.07652(4)
O11_3 O 0.00996(4) 0.49416(4) 0.04570(4)
O12_3 O 0.07449(6) 0.57449(6) 0.07449(6)
C64_3 C 0.00325(6) 0.51025(7) 0.06786(7)
O17_3 O 0.03307(5) 0.23132(5) 0.17348(4)
C99_3 C 0.00270(6) 0.27414(7) 0.16398(7)
C103_3 C 0.01025(7) 0.24675(6) 0.18214(7)
C105_3 C 0.02092(8) 0.28271(9) 0.13983(9)
H55_3 H 0.037972 0.271492 0.134740
C106_3 C 0.01308(9) 0.30862(10) 0.12331(10)
H56_3 H 0.024989 0.314855 0.107127
O22_3 O 0.07652(4) 0.51868(5) 0.03307(5)
C126_3 C 0.08602(7) 0.47586(7) 0.00270(6)
C130_3 C 0.06786(7) 0.50325(6) 0.01025(7)
C132_3 C 0.11017(9) 0.46729(9) 0.02092(8)
H69_3 H 0.115260 0.478508 0.037972
C133_3 C 0.12669(10) 0.44138(10) 0.01308(9)
H70_3 H 0.142873 0.435145 0.024989
O26_3 O 0.17348(4) 0.21693(5) 0.01868(5)
O27_3 O 0.20430(4) 0.25584(4) 0.00996(4)
C156_3 C 0.18214(7) 0.23975(7) 0.00325(6)
O31_3 O 0.03307(5) 0.57652(4) 0.01868(5)
O4_3 O 0.03307(5) 0.17348(4) 0.73132(5)
C20_3 C 0.00270(6) 0.16398(7) 0.77414(7)
C24_3 C 0.01025(7) 0.18214(7) 0.74675(6)
C26_3 C 0.02092(8) 0.13983(9) 0.78271(9)
H13_3 H 0.037972 0.134740 0.771492
C27_3 C 0.01308(9) 0.12331(10) 0.80862(10)
H14_3 H 0.024989 0.107127 0.814855
O9_3 O 0.00996(4) 0.04570(4) 0.99416(4)
Zn3_5 Zn -0.000000 0.500000 1.000000
Zn5_3 Zn 0.04847(2) 0.20153(2) 0.70153(2)
O19_3 O 0.07652(4) 0.23132(5) 0.71693(5)
O20_3 O 0.04570(4) 0.24004(4) 0.75584(4)
O21_3 O 0.07449(6) 0.17551(6) 0.67551(6)
C107_3 C 0.125000 0.375000 0.875000
C108_3 C 0.10309(7) 0.36131(7) 0.85233(7)
C109_3 C 0.07885(6) 0.29060(7) 0.77256(7)
H57_3 H 0.062768 0.284313 0.784574
C110_3 C 0.11008(7) 0.34539(7) 0.82648(7)
H58_3 H 0.130188 0.342491 0.821017
C111_3 C 0.04973(7) 0.35445(8) 0.84341(9)
H59_3 H 0.029673 0.357537 0.848957
C112_3 C 0.09471(7) 0.31622(7) 0.78075(7)
C113_3 C 0.08602(7) 0.27414(7) 0.74730(6)
C114_3 C 0.07328(7) 0.36611(7) 0.86105(7)
C115_3 C 0.05687(8) 0.33809(8) 0.81730(8)
H60_3 H 0.041384 0.330029 0.805564
C116_3 C 0.08705(7) 0.33365(7) 0.80856(7)
C117_3 C 0.06786(7) 0.24675(6) 0.73975(7)
C118_3 C 0.11878(10) 0.32483(9) 0.76246(9)
H61_3 H 0.129872 0.341961 0.767543
C119_3 C 0.11017(9) 0.28271(9) 0.72908(8)
H62_3 H 0.115260 0.271492 0.712028
C120_3 C 0.12669(10) 0.30862(10) 0.73692(9)
H63_3 H 0.142873 0.314855 0.725011
O23_3 O 0.04570(4) 0.50996(4) 0.99416(4)
C121_3 C 0.10309(7) 0.38869(7) 0.89767(7)
C122_3 C 0.07885(6) 0.45940(7) 0.97744(7)
H64_3 H 0.062768 0.465687 0.965426
C123_3 C 0.11008(7) 0.40461(7) 0.92352(7)
H65_3 H 0.130188 0.407509 0.928983
C124_3 C 0.04973(7) 0.39555(8) 0.90659(9)
H66_3 H 0.029673 0.392463 0.901043
C125_3 C 0.09471(7) 0.43378(7) 0.96925(7)
C127_3 C 0.07328(7) 0.38389(7) 0.88895(7)
C128_3 C 0.05687(8) 0.41191(8) 0.93270(8)
H67_3 H 0.041384 0.419971 0.944436
C129_3 C 0.08705(7) 0.41635(7) 0.94144(7)
C131_3 C 0.11878(10) 0.42517(9) 0.98754(9)
H68_3 H 0.129872 0.408039 0.982457
O24_3 O 0.17348(4) 0.53307(5) 0.73132(5)
O25_3 O 0.20430(4) 0.49416(4) 0.74004(4)
C134_3 C 0.14691(7) 0.39767(7) 0.86131(7)
C135_3 C 0.17115(6) 0.47744(7) 0.79060(7)
H71_3 H 0.187232 0.465426 0.784313
C136_3 C 0.13992(7) 0.42352(7) 0.84539(7)
H72_3 H 0.119812 0.428983 0.842491
C137_3 C 0.20027(7) 0.40659(9) 0.85445(8)
H73_3 H 0.220327 0.401043 0.857537
C138_3 C 0.15529(7) 0.46925(7) 0.81622(7)
C139_3 C 0.16398(7) 0.50270(6) 0.77414(7)
C140_3 C 0.17672(7) 0.38895(7) 0.86611(7)
C141_3 C 0.19313(8) 0.43270(8) 0.83809(8)
H74_3 H 0.208616 0.444436 0.830029
C142_3 C 0.16295(7) 0.44144(7) 0.83365(7)
C143_3 C 0.18214(7) 0.51025(7) 0.74675(6)
C144_3 C 0.13122(10) 0.48754(9) 0.82483(9)
H75_3 H 0.120128 0.482457 0.841961
C145_3 C 0.13983(9) 0.52092(8) 0.78271(9)
H76_3 H 0.134740 0.537972 0.771492
C146_3 C 0.12331(10) 0.51308(9) 0.80862(10)
H77_3 H 0.107127 0.524989 0.814855
C147_3 C 0.14691(7) 0.35233(7) 0.88869(7)
C148_3 C 0.17115(6) 0.27256(7) 0.95940(7)
H78_3 H 0.187232 0.284574 0.965687
C149_3 C 0.13992(7) 0.32648(7) 0.90461(7)
H79_3 H 0.119812 0.321017 0.907509
C150_3 C 0.20027(7) 0.34341(9) 0.89555(8)
H80_3 H 0.220327 0.348957 0.892463
C151_3 C 0.15529(7) 0.28075(7) 0.93378(7)
C152_3 C 0.16398(7) 0.24730(6) 0.97586(7)
C153_3 C 0.17672(7) 0.36105(7) 0.88389(7)
C154_3 C 0.19313(8) 0.31730(8) 0.91191(8)
H81_3 H 0.208616 0.305564 0.919971
C155_3 C 0.16295(7) 0.30856(7) 0.91635(7)
C157_3 C 0.13122(10) 0.26246(9) 0.92517(9)
H82_3 H 0.120128 0.267543 0.908039
C158_3 C 0.13983(9) 0.22908(8) 0.96729(9)
H83_3 H 0.134740 0.212028 0.978508
C159_3 C 0.12331(10) 0.23692(9) 0.94138(10)
H84_3 H 0.107127 0.225011 0.935145
Zn7_6 Zn -0.000000 0.250000 0.750000
Zn9_4 Zn 0.250000 0.500000 0.750000
Zn18_3 Zn 0.20153(2) 0.54847(2) 0.70153(2)
O29_3 O 0.01868(5) 0.21693(5) 0.67348(4)
O41_3 O 0.00584(4) 0.45430(4) 0.99004(4)
Zn1_4 Zn 0.750000 0.250000 0.000000
Zn2_3 Zn 0.70153(2) 0.20153(2) 0.04847(2)
O1_3 O 0.71693(5) 0.17348(4) 0.01868(5)
O2_3 O 0.75584(4) 0.20430(4) 0.00996(4)
O3_3 O 0.67551(6) 0.17551(6) 0.07449(6)
C11_3 C 0.73975(7) 0.18214(7) 0.00325(6)
C46_3 C 0.97586(7) 0.08602(7) 0.00270(6)
C52_3 C 0.96729(9) 0.11017(9) 0.02092(8)
H27_3 H 0.978508 0.115260 0.037972
C53_3 C 0.94138(10) 0.12669(10) 0.01308(9)
H28_3 H 0.935145 0.142873 0.024989
Zn3_6 Zn 1.000000 0.500000 0.000000
C54_3 C 0.875000 0.375000 0.125000
C55_3 C 0.88869(7) 0.39767(7) 0.10309(7)
C56_3 C 0.95940(7) 0.47744(7) 0.07885(6)
H29_3 H 0.965687 0.465426 0.062768
C57_3 C 0.90461(7) 0.42352(7) 0.11008(7)
H30_3 H 0.907509 0.428983 0.130188
C58_3 C 0.89555(8) 0.40659(9) 0.04973(7)
H31_3 H 0.892463 0.401043 0.029673
C59_3 C 0.93378(7) 0.46925(7) 0.09471(7)
C60_3 C 0.97586(7) 0.50270(6) 0.08602(7)
C61_3 C 0.88389(7) 0.38895(7) 0.07328(7)
C62_3 C 0.91191(8) 0.43270(8) 0.05687(8)
H32_3 H 0.919971 0.444436 0.041384
C63_3 C 0.91635(7) 0.44144(7) 0.08705(7)
C65_3 C 0.92517(9) 0.48754(9) 0.11878(10)
H33_3 H 0.908039 0.482457 0.129872
C66_3 C 0.96729(9) 0.52092(8) 0.11017(9)
H34_3 H 0.978508 0.537972 0.115260
C67_3 C 0.94138(10) 0.51308(9) 0.12669(10)
H35_3 H 0.935145 0.524989 0.142873
O13_3 O 0.73132(5) 0.21693(5) 0.07652(4)
O14_3 O 0.74004(4) 0.25584(4) 0.04570(4)
C68_3 C 0.86131(7) 0.35233(7) 0.10309(7)
C69_3 C 0.79060(7) 0.27256(7) 0.07885(6)
H36_3 H 0.784313 0.284574 0.062768
C70_3 C 0.84539(7) 0.32648(7) 0.11008(7)
H37_3 H 0.842491 0.321017 0.130188
C71_3 C 0.85445(8) 0.34341(9) 0.04973(7)
H38_3 H 0.857537 0.348957 0.029673
C72_3 C 0.81622(7) 0.28075(7) 0.09471(7)
C73_3 C 0.77414(7) 0.24730(6) 0.08602(7)
C74_3 C 0.86611(7) 0.36105(7) 0.07328(7)
C75_3 C 0.83809(8) 0.31730(8) 0.05687(8)
H39_3 H 0.830029 0.305564 0.041384
C76_3 C 0.83365(7) 0.30856(7) 0.08705(7)
C77_3 C 0.74675(6) 0.23975(7) 0.06786(7)
C78_3 C 0.82483(9) 0.26246(9) 0.11878(10)
H40_3 H 0.841961 0.267543 0.129872
C79_3 C 0.78271(9) 0.22908(8) 0.11017(9)
H41_3 H 0.771492 0.212028 0.115260
C80_3 C 0.80862(10) 0.23692(9) 0.12669(10)
H42_3 H 0.814855 0.225011 0.142873
O15_3 O 0.71693(5) 0.51868(5) 0.17348(4)
O16_3 O 0.75584(4) 0.50996(4) 0.20430(4)
C81_3 C 0.85233(7) 0.38869(7) 0.14691(7)
C82_3 C 0.77256(7) 0.45940(7) 0.17115(6)
H43_3 H 0.784574 0.465687 0.187232
C83_3 C 0.82648(7) 0.40461(7) 0.13992(7)
H44_3 H 0.821017 0.407509 0.119812
C84_3 C 0.84341(9) 0.39555(8) 0.20027(7)
H45_3 H 0.848957 0.392463 0.220327
C85_3 C 0.78075(7) 0.43378(7) 0.15529(7)
C86_3 C 0.74730(6) 0.47586(7) 0.16398(7)
C87_3 C 0.86105(7) 0.38389(7) 0.17672(7)
C88_3 C 0.81730(8) 0.41191(8) 0.19313(8)
H46_3 H 0.805564 0.419971 0.208616
C89_3 C 0.80856(7) 0.41635(7) 0.16295(7)
C90_3 C 0.73975(7) 0.50325(6) 0.18214(7)
C91_3 C 0.76246(9) 0.42517(9) 0.13122(10)
H47_3 H 0.767543 0.408039 0.120128
C92_3 C 0.72908(8) 0.46729(9) 0.13983(9)
H48_3 H 0.712028 0.478508 0.134740
C93_3 C 0.73692(9) 0.44138(10) 0.12331(10)
H49_3 H 0.725011 0.435145 0.107127
O18_3 O 0.99416(4) 0.24004(4) 0.20430(4)
C94_3 C 0.89767(7) 0.36131(7) 0.14691(7)
C95_3 C 0.97744(7) 0.29060(7) 0.17115(6)
H50_3 H 0.965426 0.284313 0.187232
C96_3 C 0.92352(7) 0.34539(7) 0.13992(7)
H51_3 H 0.928983 0.342491 0.119812
C97_3 C 0.90659(9) 0.35445(8) 0.20027(7)
H52_3 H 0.901043 0.357537 0.220327
C98_3 C 0.96925(7) 0.31622(7) 0.15529(7)
C100_3 C 0.88895(7) 0.36611(7) 0.17672(7)
C101_3 C 0.93270(8) 0.33809(8) 0.19313(8)
H53_3 H 0.944436 0.330029 0.208616
C102_3 C 0.94144(7) 0.33365(7) 0.16295(7)
C104_3 C 0.98754(9) 0.32483(9) 0.13122(10)
H54_3 H 0.982457 0.341961 0.120128
Zn13_5 Zn 0.750000 0.500000 0.250000
Zn14_3 Zn 0.70153(2) 0.54847(2) 0.20153(2)
O30_3 O 0.67348(4) 0.23132(5) 0.03307(5)
O35_3 O 0.99416(4) 0.54570(4) 0.00996(4)
O36_3 O 0.95430(4) 0.49004(4) 0.00584(4)
O37_3 O 0.79570(4) 0.25996(4) 0.00584(4)
Zn1_5 Zn 0.750000 0.250000 1.000000
C1_3 C 0.875000 0.125000 0.875000
C2_3 C 0.85233(7) 0.14691(7) 0.88869(7)
C3_3 C 0.77256(7) 0.17115(6) 0.95940(7)
H1_3 H 0.784574 0.187232 0.965687
C4_3 C 0.82648(7) 0.13992(7) 0.90461(7)
H2_3 H 0.821017 0.119812 0.907509
C5_3 C 0.84341(9) 0.20027(7) 0.89555(8)
H3_3 H 0.848957 0.220327 0.892463
C6_3 C 0.78075(7) 0.15529(7) 0.93378(7)
C7_3 C 0.74730(6) 0.16398(7) 0.97586(7)
C8_3 C 0.86105(7) 0.17672(7) 0.88389(7)
C9_3 C 0.81730(8) 0.19313(8) 0.91191(8)
H4_3 H 0.805564 0.208616 0.919971
C10_3 C 0.80856(7) 0.16295(7) 0.91635(7)
C12_3 C 0.76246(9) 0.13122(10) 0.92517(9)
H5_3 H 0.767543 0.120128 0.908039
C13_3 C 0.72908(8) 0.13983(9) 0.96729(9)
H6_3 H 0.712028 0.134740 0.978508
C14_3 C 0.73692(9) 0.12331(10) 0.94138(10)
H7_3 H 0.725011 0.107127 0.935145
O5_3 O 0.99416(4) 0.20430(4) 0.74004(4)
C15_3 C 0.89767(7) 0.14691(7) 0.86131(7)
C16_3 C 0.97744(7) 0.17115(6) 0.79060(7)
H8_3 H 0.965426 0.187232 0.784313
C17_3 C 0.92352(7) 0.13992(7) 0.84539(7)
H9_3 H 0.928983 0.119812 0.842491
C18_3 C 0.90659(9) 0.20027(7) 0.85445(8)
H10_3 H 0.901043 0.220327 0.857537
C19_3 C 0.96925(7) 0.15529(7) 0.81622(7)
C21_3 C 0.88895(7) 0.17672(7) 0.86611(7)
C22_3 C 0.93270(8) 0.19313(8) 0.83809(8)
H11_3 H 0.944436 0.208616 0.830029
C23_3 C 0.94144(7) 0.16295(7) 0.83365(7)
C25_3 C 0.98754(9) 0.13122(10) 0.82483(9)
H12_3 H 0.982457 0.120128 0.841961
O6_3 O 0.73132(5) 0.07652(4) 0.71693(5)
O7_3 O 0.74004(4) 0.04570(4) 0.75584(4)
C28_3 C 0.86131(7) 0.10309(7) 0.85233(7)
C29_3 C 0.79060(7) 0.07885(6) 0.77256(7)
H15_3 H 0.784313 0.062768 0.784574
C30_3 C 0.84539(7) 0.11008(7) 0.82648(7)
H16_3 H 0.842491 0.130188 0.821017
C31_3 C 0.85445(8) 0.04973(7) 0.84341(9)
H17_3 H 0.857537 0.029673 0.848957
C32_3 C 0.81622(7) 0.09471(7) 0.78075(7)
C33_3 C 0.77414(7) 0.08602(7) 0.74730(6)
C34_3 C 0.86611(7) 0.07328(7) 0.86105(7)
C35_3 C 0.83809(8) 0.05687(8) 0.81730(8)
H18_3 H 0.830029 0.041384 0.805564
C36_3 C 0.83365(7) 0.08705(7) 0.80856(7)
C37_3 C 0.74675(6) 0.06786(7) 0.73975(7)
C38_3 C 0.82483(9) 0.11878(10) 0.76246(9)
H19_3 H 0.841961 0.129872 0.767543
C39_3 C 0.78271(9) 0.11017(9) 0.72908(8)
H20_3 H 0.771492 0.115260 0.712028
C40_3 C 0.80862(10) 0.12669(10) 0.73692(9)
H21_3 H 0.814855 0.142873 0.725011
C41_3 C 0.88869(7) 0.10309(7) 0.89767(7)
C42_3 C 0.95940(7) 0.07885(6) 0.97744(7)
H22_3 H 0.965687 0.062768 0.965426
C43_3 C 0.90461(7) 0.11008(7) 0.92352(7)
H23_3 H 0.907509 0.130188 0.928983
C44_3 C 0.89555(8) 0.04973(7) 0.90659(9)
H24_3 H 0.892463 0.029673 0.901043
C45_3 C 0.93378(7) 0.09471(7) 0.96925(7)
C47_3 C 0.88389(7) 0.07328(7) 0.88895(7)
C48_3 C 0.91191(8) 0.05687(8) 0.93270(8)
H25_3 H 0.919971 0.041384 0.944436
C49_3 C 0.91635(7) 0.08705(7) 0.94144(7)
C51_3 C 0.92517(9) 0.11878(10) 0.98754(9)
H26_3 H 0.908039 0.129872 0.982457
Zn3_7 Zn 1.000000 0.500000 1.000000
Zn6_3 Zn 0.70153(2) 0.04847(2) 0.70153(2)
O28_3 O 0.67551(6) 0.07449(6) 0.67551(6)
Zn7_7 Zn 1.000000 0.250000 0.750000
Zn12_4 Zn 0.750000 0.000000 0.750000
O32_3 O 0.71693(5) 0.01868(5) 0.67348(4)
O33_3 O 0.67348(4) 0.03307(5) 0.73132(5)
O34_3 O 0.70430(4) 0.24004(4) 0.99416(4)
O38_3 O 0.75996(4) 0.24416(4) 0.95430(4)
O39_3 O 0.99004(4) 0.50584(4) 0.95430(4)
O40_3 O 0.74416(4) 0.29570(4) 0.99004(4)
Zn12_5 Zn 0.750000 1.000000 0.750000
Zn1_6 Zn 0.500000 -0.000000 0.000000
Zn2_4 Zn 0.54847(2) 0.04847(2) 0.04847(2)
O1_4 O 0.53307(5) 0.07652(4) 0.01868(5)
O2_4 O 0.49416(4) 0.04570(4) 0.00996(4)
O3_4 O 0.57449(6) 0.07449(6) 0.07449(6)
C11_4 C 0.51025(7) 0.06786(7) 0.00325(6)
O8_4 O 0.23132(5) 0.17348(4) 0.03307(5)
C46_4 C 0.27414(7) 0.16398(7) 0.00270(6)
C50_4 C 0.24675(6) 0.18214(7) 0.01025(7)
C52_4 C 0.28271(9) 0.13983(9) 0.02092(8)
H27_4 H 0.271492 0.134740 0.037972
C53_4 C 0.30862(10) 0.12331(10) 0.01308(9)
H28_4 H 0.314855 0.107127 0.024989
O13_4 O 0.51868(5) 0.03307(5) 0.07652(4)
C73_4 C 0.47586(7) 0.00270(6) 0.08602(7)
C77_4 C 0.50325(6) 0.01025(7) 0.06786(7)
C79_4 C 0.46729(9) 0.02092(8) 0.11017(9)
H41_4 H 0.478508 0.037972 0.115260
C80_4 C 0.44138(10) 0.01308(9) 0.12669(10)
H42_4 H 0.435145 0.024989 0.142873
O17_4 O 0.21693(5) 0.01868(5) 0.17348(4)
O18_4 O 0.25584(4) 0.00996(4) 0.20430(4)
C103_4 C 0.23975(7) 0.00325(6) 0.18214(7)
O26_4 O 0.07652(4) 0.03307(5) 0.01868(5)
C156_4 C 0.06786(7) 0.01025(7) 0.00325(6)
O30_4 O 0.57652(4) 0.01868(5) 0.03307(5)
Zn1_7 Zn 0.500000 -0.000000 1.000000
C1_4 C 0.375000 0.125000 0.875000
C2_4 C 0.39767(7) 0.10309(7) 0.88869(7)
C3_4 C 0.47744(7) 0.07885(6) 0.95940(7)
H1_4 H 0.465426 0.062768 0.965687
C4_4 C 0.42352(7) 0.11008(7) 0.90461(7)
H2_4 H 0.428983 0.130188 0.907509
C5_4 C 0.40659(9) 0.04973(7) 0.89555(8)
H3_4 H 0.401043 0.029673 0.892463
C6_4 C 0.46925(7) 0.09471(7) 0.93378(7)
C7_4 C 0.50270(6) 0.08602(7) 0.97586(7)
C8_4 C 0.38895(7) 0.07328(7) 0.88389(7)
C9_4 C 0.43270(8) 0.05687(8) 0.91191(8)
H4_4 H 0.444436 0.041384 0.919971
C10_4 C 0.44144(7) 0.08705(7) 0.91635(7)
C12_4 C 0.48754(9) 0.11878(10) 0.92517(9)
H5_4 H 0.482457 0.129872 0.908039
C13_4 C 0.52092(8) 0.11017(9) 0.96729(9)
H6_4 H 0.537972 0.115260 0.978508
C14_4 C 0.51308(9) 0.12669(10) 0.94138(10)
H7_4 H 0.524989 0.142873 0.935145
O4_4 O 0.21693(5) 0.07652(4) 0.73132(5)
O5_4 O 0.25584(4) 0.04570(4) 0.74004(4)
C15_4 C 0.35233(7) 0.10309(7) 0.86131(7)
C16_4 C 0.27256(7) 0.07885(6) 0.79060(7)
H8_4 H 0.284574 0.062768 0.784313
C17_4 C 0.32648(7) 0.11008(7) 0.84539(7)
H9_4 H 0.321017 0.130188 0.842491
C18_4 C 0.34341(9) 0.04973(7) 0.85445(8)
H10_4 H 0.348957 0.029673 0.857537
C19_4 C 0.28075(7) 0.09471(7) 0.81622(7)
C20_4 C 0.24730(6) 0.08602(7) 0.77414(7)
C21_4 C 0.36105(7) 0.07328(7) 0.86611(7)
C22_4 C 0.31730(8) 0.05687(8) 0.83809(8)
H11_4 H 0.305564 0.041384 0.830029
C23_4 C 0.30856(7) 0.08705(7) 0.83365(7)
C24_4 C 0.23975(7) 0.06786(7) 0.74675(6)
C25_4 C 0.26246(9) 0.11878(10) 0.82483(9)
H12_4 H 0.267543 0.129872 0.841961
C26_4 C 0.22908(8) 0.11017(9) 0.78271(9)
H13_4 H 0.212028 0.115260 0.771492
C27_4 C 0.23692(9) 0.12669(10) 0.80862(10)
H14_4 H 0.225011 0.142873 0.814855
O6_4 O 0.51868(5) 0.17348(4) 0.71693(5)
O7_4 O 0.50996(4) 0.20430(4) 0.75584(4)
C28_4 C 0.38869(7) 0.14691(7) 0.85233(7)
C29_4 C 0.45940(7) 0.17115(6) 0.77256(7)
H15_4 H 0.465687 0.187232 0.784574
C30_4 C 0.40461(7) 0.13992(7) 0.82648(7)
H16_4 H 0.407509 0.119812 0.821017
C31_4 C 0.39555(8) 0.20027(7) 0.84341(9)
H17_4 H 0.392463 0.220327 0.848957
C32_4 C 0.43378(7) 0.15529(7) 0.78075(7)
C33_4 C 0.47586(7) 0.16398(7) 0.74730(6)
C34_4 C 0.38389(7) 0.17672(7) 0.86105(7)
C35_4 C 0.41191(8) 0.19313(8) 0.81730(8)
H18_4 H 0.419971 0.208616 0.805564
C36_4 C 0.41635(7) 0.16295(7) 0.80856(7)
C37_4 C 0.50325(6) 0.18214(7) 0.73975(7)
C38_4 C 0.42517(9) 0.13122(10) 0.76246(9)
H19_4 H 0.408039 0.120128 0.767543
C39_4 C 0.46729(9) 0.13983(9) 0.72908(8)
H20_4 H 0.478508 0.134740 0.712028
C40_4 C 0.44138(10) 0.12331(10) 0.73692(9)
H21_4 H 0.435145 0.107127 0.725011
O9_4 O 0.24004(4) 0.20430(4) 0.99416(4)
C41_4 C 0.36131(7) 0.14691(7) 0.89767(7)
C42_4 C 0.29060(7) 0.17115(6) 0.97744(7)
H22_4 H 0.284313 0.187232 0.965426
C43_4 C 0.34539(7) 0.13992(7) 0.92352(7)
H23_4 H 0.342491 0.119812 0.928983
C44_4 C 0.35445(8) 0.20027(7) 0.90659(9)
H24_4 H 0.357537 0.220327 0.901043
C45_4 C 0.31622(7) 0.15529(7) 0.96925(7)
C47_4 C 0.36611(7) 0.17672(7) 0.88895(7)
C48_4 C 0.33809(8) 0.19313(8) 0.93270(8)
H25_4 H 0.330029 0.208616 0.944436
C49_4 C 0.33365(7) 0.16295(7) 0.94144(7)
C51_4 C 0.32483(9) 0.13122(10) 0.98754(9)
H26_4 H 0.341961 0.120128 0.982457
Zn5_4 Zn 0.20153(2) 0.04847(2) 0.70153(2)
O19_4 O 0.17348(4) 0.01868(5) 0.71693(5)
O20_4 O 0.20430(4) 0.00996(4) 0.75584(4)
O21_4 O 0.17551(6) 0.07449(6) 0.67551(6)
C117_4 C 0.18214(7) 0.00325(6) 0.73975(7)
C152_4 C 0.08602(7) 0.00270(6) 0.97586(7)
C158_4 C 0.11017(9) 0.02092(8) 0.96729(9)
H83_4 H 0.115260 0.037972 0.978508
C159_4 C 0.12669(10) 0.01308(9) 0.94138(10)
H84_4 H 0.142873 0.024989 0.935145
Zn6_4 Zn 0.54847(2) 0.20153(2) 0.70153(2)
O28_4 O 0.57449(6) 0.17551(6) 0.67551(6)
Zn7_8 Zn 0.250000 -0.000000 0.750000
Zn12_6 Zn 0.500000 0.250000 0.750000
O29_4 O 0.23132(5) 0.03307(5) 0.67348(4)
O32_4 O 0.53307(5) 0.23132(5) 0.67348(4)
O33_4 O 0.57652(4) 0.21693(5) 0.73132(5)
O34_4 O 0.54570(4) 0.00996(4) 0.99416(4)
O38_4 O 0.49004(4) 0.00584(4) 0.95430(4)
Zn1_8 Zn 0.500000 1.000000 0.000000
Zn3_8 Zn 0.250000 0.750000 0.000000
Zn4_4 Zn 0.20153(2) 0.70153(2) 0.04847(2)
O10_4 O 0.23132(5) 0.71693(5) 0.07652(4)
O11_4 O 0.24004(4) 0.75584(4) 0.04570(4)
O12_4 O 0.17551(6) 0.67551(6) 0.07449(6)
C54_4 C 0.375000 0.875000 0.125000
C55_4 C 0.36131(7) 0.85233(7) 0.10309(7)
C56_4 C 0.29060(7) 0.77256(7) 0.07885(6)
H29_4 H 0.284313 0.784574 0.062768
C57_4 C 0.34539(7) 0.82648(7) 0.11008(7)
H30_4 H 0.342491 0.821017 0.130188
C58_4 C 0.35445(8) 0.84341(9) 0.04973(7)
H31_4 H 0.357537 0.848957 0.029673
C59_4 C 0.31622(7) 0.78075(7) 0.09471(7)
C60_4 C 0.27414(7) 0.74730(6) 0.08602(7)
C61_4 C 0.36611(7) 0.86105(7) 0.07328(7)
C62_4 C 0.33809(8) 0.81730(8) 0.05687(8)
H32_4 H 0.330029 0.805564 0.041384
C63_4 C 0.33365(7) 0.80856(7) 0.08705(7)
C64_4 C 0.24675(6) 0.73975(7) 0.06786(7)
C65_4 C 0.32483(9) 0.76246(9) 0.11878(10)
H33_4 H 0.341961 0.767543 0.129872
C66_4 C 0.28271(9) 0.72908(8) 0.11017(9)
H34_4 H 0.271492 0.712028 0.115260
C67_4 C 0.30862(10) 0.73692(9) 0.12669(10)
H35_4 H 0.314855 0.725011 0.142873
O14_4 O 0.50996(4) 0.99416(4) 0.04570(4)
C68_4 C 0.38869(7) 0.89767(7) 0.10309(7)
C69_4 C 0.45940(7) 0.97744(7) 0.07885(6)
H36_4 H 0.465687 0.965426 0.062768
C70_4 C 0.40461(7) 0.92352(7) 0.11008(7)
H37_4 H 0.407509 0.928983 0.130188
C71_4 C 0.39555(8) 0.90659(9) 0.04973(7)
H38_4 H 0.392463 0.901043 0.029673
C72_4 C 0.43378(7) 0.96925(7) 0.09471(7)
C74_4 C 0.38389(7) 0.88895(7) 0.07328(7)
C75_4 C 0.41191(8) 0.93270(8) 0.05687(8)
H39_4 H 0.419971 0.944436 0.041384
C76_4 C 0.41635(7) 0.94144(7) 0.08705(7)
C78_4 C 0.42517(9) 0.98754(9) 0.11878(10)
H40_4 H 0.408039 0.982457 0.129872
O15_4 O 0.53307(5) 0.73132(5) 0.17348(4)
O16_4 O 0.49416(4) 0.74004(4) 0.20430(4)
C81_4 C 0.39767(7) 0.86131(7) 0.14691(7)
C82_4 C 0.47744(7) 0.79060(7) 0.17115(6)
H43_4 H 0.465426 0.784313 0.187232
C83_4 C 0.42352(7) 0.84539(7) 0.13992(7)
H44_4 H 0.428983 0.842491 0.119812
C84_4 C 0.40659(9) 0.85445(8) 0.20027(7)
H45_4 H 0.401043 0.857537 0.220327
C85_4 C 0.46925(7) 0.81622(7) 0.15529(7)
C86_4 C 0.50270(6) 0.77414(7) 0.16398(7)
C87_4 C 0.38895(7) 0.86611(7) 0.17672(7)
C88_4 C 0.43270(8) 0.83809(8) 0.19313(8)
H46_4 H 0.444436 0.830029 0.208616
C89_4 C 0.44144(7) 0.83365(7) 0.16295(7)
C90_4 C 0.51025(7) 0.74675(6) 0.18214(7)
C91_4 C 0.48754(9) 0.82483(9) 0.13122(10)
H47_4 H 0.482457 0.841961 0.120128
C92_4 C 0.52092(8) 0.78271(9) 0.13983(9)
H48_4 H 0.537972 0.771492 0.134740
C93_4 C 0.51308(9) 0.80862(10) 0.12331(10)
H49_4 H 0.524989 0.814855 0.107127
C94_4 C 0.35233(7) 0.88869(7) 0.14691(7)
C95_4 C 0.27256(7) 0.95940(7) 0.17115(6)
H50_4 H 0.284574 0.965687 0.187232
C96_4 C 0.32648(7) 0.90461(7) 0.13992(7)
H51_4 H 0.321017 0.907509 0.119812
C97_4 C 0.34341(9) 0.89555(8) 0.20027(7)
H52_4 H 0.348957 0.892463 0.220327
C98_4 C 0.28075(7) 0.93378(7) 0.15529(7)
C99_4 C 0.24730(6) 0.97586(7) 0.16398(7)
C100_4 C 0.36105(7) 0.88389(7) 0.17672(7)
C101_4 C 0.31730(8) 0.91191(8) 0.19313(8)
H53_4 H 0.305564 0.919971 0.208616
C102_4 C 0.30856(7) 0.91635(7) 0.16295(7)
C104_4 C 0.26246(9) 0.92517(9) 0.13122(10)
H54_4 H 0.267543 0.908039 0.120128
C105_4 C 0.22908(8) 0.96729(9) 0.13983(9)
H55_4 H 0.212028 0.978508 0.134740
C106_4 C 0.23692(9) 0.94138(10) 0.12331(10)
H56_4 H 0.225011 0.935145 0.107127
O22_4 O 0.17348(4) 0.73132(5) 0.03307(5)
C126_4 C 0.16398(7) 0.77414(7) 0.00270(6)
C130_4 C 0.18214(7) 0.74675(6) 0.01025(7)
C132_4 C 0.13983(9) 0.78271(9) 0.02092(8)
H69_4 H 0.134740 0.771492 0.037972
C133_4 C 0.12331(10) 0.80862(10) 0.01308(9)
H70_4 H 0.107127 0.814855 0.024989
O27_4 O 0.04570(4) 0.99416(4) 0.00996(4)
Zn13_6 Zn 0.500000 0.750000 0.250000
Zn14_4 Zn 0.54847(2) 0.70153(2) 0.20153(2)
O31_4 O 0.21693(5) 0.67348(4) 0.01868(5)
O35_4 O 0.25584(4) 0.70430(4) 0.00996(4)
O36_4 O 0.29570(4) 0.75996(4) 0.00584(4)
O37_4 O 0.45430(4) 0.99004(4) 0.00584(4)
Zn1_9 Zn 0.500000 1.000000 1.000000
Zn3_9 Zn 0.250000 0.750000 1.000000
C107_4 C 0.125000 0.875000 0.875000
C108_4 C 0.14691(7) 0.88869(7) 0.85233(7)
C109_4 C 0.17115(6) 0.95940(7) 0.77256(7)
H57_4 H 0.187232 0.965687 0.784574
C110_4 C 0.13992(7) 0.90461(7) 0.82648(7)
H58_4 H 0.119812 0.907509 0.821017
C111_4 C 0.20027(7) 0.89555(8) 0.84341(9)
H59_4 H 0.220327 0.892463 0.848957
C112_4 C 0.15529(7) 0.93378(7) 0.78075(7)
C113_4 C 0.16398(7) 0.97586(7) 0.74730(6)
C114_4 C 0.17672(7) 0.88389(7) 0.86105(7)
C115_4 C 0.19313(8) 0.91191(8) 0.81730(8)
H60_4 H 0.208616 0.919971 0.805564
C116_4 C 0.16295(7) 0.91635(7) 0.80856(7)
C118_4 C 0.13122(10) 0.92517(9) 0.76246(9)
H61_4 H 0.120128 0.908039 0.767543
C119_4 C 0.13983(9) 0.96729(9) 0.72908(8)
H62_4 H 0.134740 0.978508 0.712028
C120_4 C 0.12331(10) 0.94138(10) 0.73692(9)
H63_4 H 0.107127 0.935145 0.725011
O23_4 O 0.20430(4) 0.74004(4) 0.99416(4)
C121_4 C 0.14691(7) 0.86131(7) 0.89767(7)
C122_4 C 0.17115(6) 0.79060(7) 0.97744(7)
H64_4 H 0.187232 0.784313 0.965426
C123_4 C 0.13992(7) 0.84539(7) 0.92352(7)
H65_4 H 0.119812 0.842491 0.928983
C124_4 C 0.20027(7) 0.85445(8) 0.90659(9)
H66_4 H 0.220327 0.857537 0.901043
C125_4 C 0.15529(7) 0.81622(7) 0.96925(7)
C127_4 C 0.17672(7) 0.86611(7) 0.88895(7)
C128_4 C 0.19313(8) 0.83809(8) 0.93270(8)
H67_4 H 0.208616 0.830029 0.944436
C129_4 C 0.16295(7) 0.83365(7) 0.94144(7)
C131_4 C 0.13122(10) 0.82483(9) 0.98754(9)
H68_4 H 0.120128 0.841961 0.982457
O24_4 O 0.07652(4) 0.71693(5) 0.73132(5)
O25_4 O 0.04570(4) 0.75584(4) 0.74004(4)
C134_4 C 0.10309(7) 0.85233(7) 0.86131(7)
C135_4 C 0.07885(6) 0.77256(7) 0.79060(7)
H71_4 H 0.062768 0.784574 0.784313
C136_4 C 0.11008(7) 0.82648(7) 0.84539(7)
H72_4 H 0.130188 0.821017 0.842491
C137_4 C 0.04973(7) 0.84341(9) 0.85445(8)
H73_4 H 0.029673 0.848957 0.857537
C138_4 C 0.09471(7) 0.78075(7) 0.81622(7)
C139_4 C 0.08602(7) 0.74730(6) 0.77414(7)
C140_4 C 0.07328(7) 0.86105(7) 0.86611(7)
C141_4 C 0.05687(8) 0.81730(8) 0.83809(8)
H74_4 H 0.041384 0.805564 0.830029
C142_4 C 0.08705(7) 0.80856(7) 0.83365(7)
C143_4 C 0.06786(7) 0.73975(7) 0.74675(6)
C144_4 C 0.11878(10) 0.76246(9) 0.82483(9)
H75_4 H 0.129872 0.767543 0.841961
C145_4 C 0.11017(9) 0.72908(8) 0.78271(9)
H76_4 H 0.115260 0.712028 0.771492
C146_4 C 0.12669(10) 0.73692(9) 0.80862(10)
H77_4 H 0.142873 0.725011 0.814855
C147_4 C 0.10309(7) 0.89767(7) 0.88869(7)
C148_4 C 0.07885(6) 0.97744(7) 0.95940(7)
H78_4 H 0.062768 0.965426 0.965687
C149_4 C 0.11008(7) 0.92352(7) 0.90461(7)
H79_4 H 0.130188 0.928983 0.907509
C150_4 C 0.04973(7) 0.90659(9) 0.89555(8)
H80_4 H 0.029673 0.901043 0.892463
C151_4 C 0.09471(7) 0.96925(7) 0.93378(7)
C153_4 C 0.07328(7) 0.88895(7) 0.88389(7)
C154_4 C 0.05687(8) 0.93270(8) 0.91191(8)
H81_4 H 0.041384 0.944436 0.919971
C155_4 C 0.08705(7) 0.94144(7) 0.91635(7)
C157_4 C 0.11878(10) 0.98754(9) 0.92517(9)
H82_4 H 0.129872 0.982457 0.908039
Zn7_9 Zn 0.250000 1.000000 0.750000
Zn9_5 Zn 0.000000 0.750000 0.750000
Zn18_4 Zn 0.04847(2) 0.70153(2) 0.70153(2)
O39_4 O 0.25996(4) 0.74416(4) 0.95430(4)
O40_4 O 0.50584(4) 0.95430(4) 0.99004(4)
O41_4 O 0.24416(4) 0.79570(4) 0.99004(4)
Zn9_6 Zn 1.000000 0.750000 0.750000
O41_5 O 0.25996(4) 0.00584(4) 0.79570(4)
O28_5 O 0.57449(6) 0.67551(6) 0.17551(6)
O32_5 O 0.57652(4) 0.71693(5) 0.23132(5)
O33_5 O 0.51868(5) 0.67348(4) 0.21693(5)
O35_5 O 0.24004(4) 0.99416(4) 0.70430(4)
O36_5 O 0.24416(4) 0.95430(4) 0.75996(4)
O39_5 O 0.29570(4) 0.99004(4) 0.74416(4)
O28_6 O 0.17551(6) 0.57449(6) 0.67551(6)
O32_6 O 0.23132(5) 0.57652(4) 0.71693(5)
O33_6 O 0.21693(5) 0.51868(5) 0.67348(4)
O34_5 O 0.00996(4) 0.25584(4) 0.70430(4)
O38_5 O 0.00584(4) 0.29570(4) 0.75996(4)
O37_5 O 0.99004(4) 0.24416(4) 0.79570(4)
O40_5 O 0.95430(4) 0.25996(4) 0.74416(4)
O28_7 O 0.67551(6) 0.57449(6) 0.17551(6)
O32_7 O 0.67348(4) 0.53307(5) 0.23132(5)
O33_7 O 0.73132(5) 0.57652(4) 0.21693(5)
O28_8 O 0.07449(6) 0.57449(6) 0.57449(6)
O32_8 O 0.01868(5) 0.57652(4) 0.53307(5)
O33_8 O 0.03307(5) 0.51868(5) 0.57652(4)
O34_6 O 0.24004(4) 0.25584(4) 0.54570(4)
O37_6 O 0.25996(4) 0.24416(4) 0.45430(4)
O38_6 O 0.24416(4) 0.29570(4) 0.49004(4)
O40_6 O 0.29570(4) 0.25996(4) 0.50584(4)
O28_9 O 0.57449(6) 0.57449(6) 0.07449(6)
O32_9 O 0.57652(4) 0.53307(5) 0.01868(5)
O33_9 O 0.51868(5) 0.57652(4) 0.03307(5)
O28_10 O 0.07449(6) 0.67551(6) 0.67551(6)
O32_10 O 0.01868(5) 0.67348(4) 0.71693(5)
O33_10 O 0.03307(5) 0.73132(5) 0.67348(4)
O35_6 O 0.00996(4) 0.99416(4) 0.54570(4)
O36_6 O 0.00584(4) 0.95430(4) 0.49004(4)
O41_6 O 0.99004(4) 0.00584(4) 0.45430(4)
O28_11 O 0.67551(6) 0.67551(6) 0.07449(6)
O32_11 O 0.67348(4) 0.71693(5) 0.01868(5)
O33_11 O 0.73132(5) 0.67348(4) 0.03307(5)
O39_6 O 0.95430(4) 0.99004(4) 0.50584(4)
O28_12 O 0.17551(6) 0.67551(6) 0.57449(6)
O32_12 O 0.23132(5) 0.67348(4) 0.53307(5)
O33_12 O 0.21693(5) 0.73132(5) 0.57652(4)
Zn2_5 Zn 0.45153(2) 0.29847(2) 0.79847(2)
O1_5 O 0.42348(4) 0.28307(5) 0.76868(5)
O2_5 O 0.45430(4) 0.24416(4) 0.75996(4)
O3_5 O 0.42551(6) 0.32449(6) 0.82449(6)
C1_5 C 0.375000 0.125000 0.625000
C2_5 C 0.39691(7) 0.14767(7) 0.63869(7)
C3_5 C 0.42115(6) 0.22744(7) 0.70940(7)
H1_5 H 0.437232 0.215426 0.715687
C4_5 C 0.38992(7) 0.17352(7) 0.65461(7)
H2_5 H 0.369812 0.178983 0.657509
C5_5 C 0.45027(7) 0.15659(9) 0.64555(8)
H3_5 H 0.470327 0.151043 0.642463
C6_5 C 0.40529(7) 0.21925(7) 0.68378(7)
C7_5 C 0.41398(7) 0.25270(6) 0.72586(7)
C8_5 C 0.42672(7) 0.13895(7) 0.63389(7)
C9_5 C 0.44313(8) 0.18270(8) 0.66191(8)
H4_5 H 0.458616 0.194436 0.669971
C10_5 C 0.41295(7) 0.19144(7) 0.66635(7)
C11_5 C 0.43214(7) 0.26025(7) 0.75325(6)
C12_5 C 0.38122(10) 0.23754(9) 0.67517(9)
H5_5 H 0.370128 0.232457 0.658039
C13_5 C 0.38983(9) 0.27092(8) 0.71729(9)
H6_5 H 0.384740 0.287972 0.728508
C14_5 C 0.37331(10) 0.26308(9) 0.69138(10)
H7_5 H 0.357127 0.274989 0.685145
O5_5 O 0.45430(4) 0.00584(4) 0.49004(4)
C15_5 C 0.39691(7) 0.10233(7) 0.61131(7)
C16_5 C 0.42115(6) 0.02256(7) 0.54060(7)
H8_5 H 0.437232 0.034574 0.534313
C17_5 C 0.38992(7) 0.07648(7) 0.59539(7)
H9_5 H 0.369812 0.071017 0.592491
C18_5 C 0.45027(7) 0.09341(9) 0.60445(8)
H10_5 H 0.470327 0.098957 0.607537
C19_5 C 0.40529(7) 0.03075(7) 0.56622(7)
C21_5 C 0.42672(7) 0.11105(7) 0.61611(7)
C22_5 C 0.44313(8) 0.06730(8) 0.58809(8)
H11_5 H 0.458616 0.055564 0.580029
C23_5 C 0.41295(7) 0.05856(7) 0.58365(7)
C25_5 C 0.38122(10) 0.01246(9) 0.57483(9)
H12_5 H 0.370128 0.017543 0.591961
O6_5 O 0.32652(4) 0.26868(5) 0.46693(5)
C28_5 C 0.35309(7) 0.13869(7) 0.60233(7)
C29_5 C 0.32885(6) 0.20940(7) 0.52256(7)
H15_5 H 0.312768 0.215687 0.534574
C30_5 C 0.36008(7) 0.15461(7) 0.57648(7)
H16_5 H 0.380188 0.157509 0.571017
C31_5 C 0.29973(7) 0.14555(8) 0.59341(9)
H17_5 H 0.279673 0.142463 0.598957
C32_5 C 0.34471(7) 0.18378(7) 0.53075(7)
C33_5 C 0.33602(7) 0.22586(7) 0.49730(6)
C34_5 C 0.32328(7) 0.13389(7) 0.61105(7)
C35_5 C 0.30687(8) 0.16191(8) 0.56730(8)
H18_5 H 0.291384 0.169971 0.555564
C36_5 C 0.33705(7) 0.16635(7) 0.55856(7)
C37_5 C 0.31786(7) 0.25325(6) 0.48975(7)
C38_5 C 0.36878(10) 0.17517(9) 0.51246(9)
H19_5 H 0.379872 0.158039 0.517543
C39_5 C 0.36017(9) 0.21729(9) 0.47908(8)
H20_5 H 0.365260 0.228508 0.462028
C40_5 C 0.37669(10) 0.19138(10) 0.48692(9)
H21_5 H 0.392873 0.185145 0.475011
C41_5 C 0.35309(7) 0.11131(7) 0.64767(7)
C42_5 C 0.32885(6) 0.04060(7) 0.72744(7)
H22_5 H 0.312768 0.034313 0.715426
C43_5 C 0.36008(7) 0.09539(7) 0.67352(7)
H23_5 H 0.380188 0.092491 0.678983
C44_5 C 0.29973(7) 0.10445(8) 0.65659(9)
H24_5 H 0.279673 0.107537 0.651043
C45_5 C 0.34471(7) 0.06622(7) 0.71925(7)
C46_5 C 0.33602(7) 0.02414(7) 0.75270(6)
C47_5 C 0.32328(7) 0.11611(7) 0.63895(7)
C48_5 C 0.30687(8) 0.08809(8) 0.68270(8)
H25_5 H 0.291384 0.080029 0.694436
C49_5 C 0.33705(7) 0.08365(7) 0.69144(7)
C51_5 C 0.36878(10) 0.07483(9) 0.73754(9)
H26_5 H 0.379872 0.091961 0.732457
C52_5 C 0.36017(9) 0.03271(9) 0.77092(8)
H27_5 H 0.365260 0.021492 0.787972
C53_5 C 0.37669(10) 0.05862(10) 0.76308(9)
H28_5 H 0.392873 0.064855 0.774989
C54_5 C 0.625000 0.125000 0.875000
C55_5 C 0.64767(7) 0.11131(7) 0.85309(7)
C56_5 C 0.72744(7) 0.04060(7) 0.82885(6)
H29_5 H 0.715426 0.034313 0.812768
C57_5 C 0.67352(7) 0.09539(7) 0.86008(7)
H30_5 H 0.678983 0.092491 0.880188
C58_5 C 0.65659(9) 0.10445(8) 0.79973(7)
H31_5 H 0.651043 0.107537 0.779673
C59_5 C 0.71925(7) 0.06622(7) 0.84471(7)
C60_5 C 0.75270(6) 0.02414(7) 0.83602(7)
C61_5 C 0.63895(7) 0.11611(7) 0.82328(7)
C62_5 C 0.68270(8) 0.08809(8) 0.80687(8)
H32_5 H 0.694436 0.080029 0.791384
C63_5 C 0.69144(7) 0.08365(7) 0.83705(7)
C65_5 C 0.73754(9) 0.07483(9) 0.86878(10)
H33_5 H 0.732457 0.091961 0.879872
C66_5 C 0.77092(8) 0.03271(9) 0.86017(9)
H34_5 H 0.787972 0.021492 0.865260
C67_5 C 0.76308(9) 0.05862(10) 0.87669(10)
H35_5 H 0.774989 0.064855 0.892873
O13_5 O 0.46693(5) 0.26868(5) 0.82652(4)
O14_5 O 0.50584(4) 0.25996(4) 0.79570(4)
C68_5 C 0.60233(7) 0.13869(7) 0.85309(7)
C69_5 C 0.52256(7) 0.20940(7) 0.82885(6)
H36_5 H 0.534574 0.215687 0.812768
C70_5 C 0.57648(7) 0.15461(7) 0.86008(7)
H37_5 H 0.571017 0.157509 0.880188
C71_5 C 0.59341(9) 0.14555(8) 0.79973(7)
H38_5 H 0.598957 0.142463 0.779673
C72_5 C 0.53075(7) 0.18378(7) 0.84471(7)
C73_5 C 0.49730(6) 0.22586(7) 0.83602(7)
C74_5 C 0.61105(7) 0.13389(7) 0.82328(7)
C75_5 C 0.56730(8) 0.16191(8) 0.80687(8)
H39_5 H 0.555564 0.169971 0.791384
C76_5 C 0.55856(7) 0.16635(7) 0.83705(7)
C77_5 C 0.48975(7) 0.25325(6) 0.81786(7)
C78_5 C 0.51246(9) 0.17517(9) 0.86878(10)
H40_5 H 0.517543 0.158039 0.879872
C79_5 C 0.47908(8) 0.21729(9) 0.86017(9)
H41_5 H 0.462028 0.228508 0.865260
C80_5 C 0.48692(9) 0.19138(10) 0.87669(10)
H42_5 H 0.475011 0.185145 0.892873
O15_5 O 0.76868(5) 0.28307(5) 0.92348(4)
C81_5 C 0.63869(7) 0.14767(7) 0.89691(7)
C82_5 C 0.70940(7) 0.22744(7) 0.92115(6)
H43_5 H 0.715687 0.215426 0.937232
C83_5 C 0.65461(7) 0.17352(7) 0.88992(7)
H44_5 H 0.657509 0.178983 0.869812
C84_5 C 0.64555(8) 0.15659(9) 0.95027(7)
H45_5 H 0.642463 0.151043 0.970327
C85_5 C 0.68378(7) 0.21925(7) 0.90529(7)
C86_5 C 0.72586(7) 0.25270(6) 0.91398(7)
C87_5 C 0.63389(7) 0.13895(7) 0.92672(7)
C88_5 C 0.66191(8) 0.18270(8) 0.94313(8)
H46_5 H 0.669971 0.194436 0.958616
C89_5 C 0.66635(7) 0.19144(7) 0.91295(7)
C90_5 C 0.75325(6) 0.26025(7) 0.93214(7)
C91_5 C 0.67517(9) 0.23754(9) 0.88122(10)
H47_5 H 0.658039 0.232457 0.870128
C92_5 C 0.71729(9) 0.27092(8) 0.88983(9)
H48_5 H 0.728508 0.287972 0.884740
C93_5 C 0.69138(10) 0.26308(9) 0.87331(10)
H49_5 H 0.685145 0.274989 0.857127
C94_5 C 0.61131(7) 0.10233(7) 0.89691(7)
C95_5 C 0.54060(7) 0.02256(7) 0.92115(6)
H50_5 H 0.534313 0.034574 0.937232
C96_5 C 0.59539(7) 0.07648(7) 0.88992(7)
H51_5 H 0.592491 0.071017 0.869812
C97_5 C 0.60445(8) 0.09341(9) 0.95027(7)
H52_5 H 0.607537 0.098957 0.970327
C98_5 C 0.56622(7) 0.03075(7) 0.90529(7)
C100_5 C 0.61611(7) 0.11105(7) 0.92672(7)
C101_5 C 0.58809(8) 0.06730(8) 0.94313(8)
H53_5 H 0.580029 0.055564 0.958616
C102_5 C 0.58365(7) 0.05856(7) 0.91295(7)
C104_5 C 0.57483(9) 0.01246(9) 0.88122(10)
H54_5 H 0.591961 0.017543 0.870128
Zn6_5 Zn 0.29847(2) 0.29847(2) 0.45153(2)
O28_13 O 0.32449(6) 0.32449(6) 0.42551(6)
Zn14_5 Zn 0.79847(2) 0.29847(2) 0.95153(2)
O30_5 O 0.48132(5) 0.32652(4) 0.78307(5)
O32_13 O 0.26868(5) 0.28307(5) 0.42348(4)
O33_13 O 0.28307(5) 0.32652(4) 0.48132(5)
O34_7 O 0.49004(4) 0.29570(4) 0.74416(4)
O35_7 O 0.79570(4) 0.00584(4) 0.75996(4)
O38_7 O 0.49416(4) 0.24004(4) 0.70430(4)
O39_7 O 0.75584(4) 0.00996(4) 0.70430(4)
O40_7 O 0.54570(4) 0.25584(4) 0.74004(4)
O4_5 O 0.42348(4) 0.96693(5) 0.48132(5)
C20_5 C 0.41398(7) 0.99730(6) 0.52414(7)
C24_5 C 0.43214(7) 0.98975(7) 0.49675(6)
C26_5 C 0.38983(9) 0.97908(8) 0.53271(9)
H13_5 H 0.384740 0.962028 0.521492
C27_5 C 0.37331(10) 0.98692(9) 0.55862(10)
H14_5 H 0.357127 0.975011 0.564855
O8_5 O 0.32652(4) 0.98132(5) 0.78307(5)
C50_5 C 0.31786(7) 0.99675(6) 0.76025(7)
Zn4_5 Zn 0.79847(2) 0.95153(2) 0.79847(2)
O10_5 O 0.78307(5) 0.98132(5) 0.82652(4)
O11_5 O 0.74416(4) 0.99004(4) 0.79570(4)
O12_5 O 0.82449(6) 0.92551(6) 0.82449(6)
C64_5 C 0.76025(7) 0.99675(6) 0.81786(7)
O17_5 O 0.48132(5) 0.96693(5) 0.92348(4)
C99_5 C 0.52414(7) 0.99730(6) 0.91398(7)
C103_5 C 0.49675(6) 0.98975(7) 0.93214(7)
C105_5 C 0.53271(9) 0.97908(8) 0.88983(9)
H55_5 H 0.521492 0.962028 0.884740
C106_5 C 0.55862(10) 0.98692(9) 0.87331(10)
H56_5 H 0.564855 0.975011 0.857127
Zn5_5 Zn 0.45153(2) 0.95153(2) 0.45153(2)
O19_5 O 0.48132(5) 0.92348(4) 0.46693(5)
O20_5 O 0.49004(4) 0.95430(4) 0.50584(4)
O21_5 O 0.42551(6) 0.92551(6) 0.42551(6)
C107_5 C 0.625000 0.875000 0.625000
C108_5 C 0.61131(7) 0.89691(7) 0.60233(7)
C109_5 C 0.54060(7) 0.92115(6) 0.52256(7)
H57_5 H 0.534313 0.937232 0.534574
C110_5 C 0.59539(7) 0.88992(7) 0.57648(7)
H58_5 H 0.592491 0.869812 0.571017
C111_5 C 0.60445(8) 0.95027(7) 0.59341(9)
H59_5 H 0.607537 0.970327 0.598957
C112_5 C 0.56622(7) 0.90529(7) 0.53075(7)
C113_5 C 0.52414(7) 0.91398(7) 0.49730(6)
C114_5 C 0.61611(7) 0.92672(7) 0.61105(7)
C115_5 C 0.58809(8) 0.94313(8) 0.56730(8)
H60_5 H 0.580029 0.958616 0.555564
C116_5 C 0.58365(7) 0.91295(7) 0.55856(7)
C117_5 C 0.49675(6) 0.93214(7) 0.48975(7)
C118_5 C 0.57483(9) 0.88122(10) 0.51246(9)
H61_5 H 0.591961 0.870128 0.517543
C119_5 C 0.53271(9) 0.88983(9) 0.47908(8)
H62_5 H 0.521492 0.884740 0.462028
C120_5 C 0.55862(10) 0.87331(10) 0.48692(9)
H63_5 H 0.564855 0.857127 0.475011
O22_5 O 0.76868(5) 0.92348(4) 0.78307(5)
O23_5 O 0.75996(4) 0.95430(4) 0.74416(4)
C121_5 C 0.63869(7) 0.89691(7) 0.64767(7)
C122_5 C 0.70940(7) 0.92115(6) 0.72744(7)
H64_5 H 0.715687 0.937232 0.715426
C123_5 C 0.65461(7) 0.88992(7) 0.67352(7)
H65_5 H 0.657509 0.869812 0.678983
C124_5 C 0.64555(8) 0.95027(7) 0.65659(9)
H66_5 H 0.642463 0.970327 0.651043
C125_5 C 0.68378(7) 0.90529(7) 0.71925(7)
C126_5 C 0.72586(7) 0.91398(7) 0.75270(6)
C127_5 C 0.63389(7) 0.92672(7) 0.63895(7)
C128_5 C 0.66191(8) 0.94313(8) 0.68270(8)
H67_5 H 0.669971 0.958616 0.694436
C129_5 C 0.66635(7) 0.91295(7) 0.69144(7)
C130_5 C 0.75325(6) 0.93214(7) 0.76025(7)
C131_5 C 0.67517(9) 0.88122(10) 0.73754(9)
H68_5 H 0.658039 0.870128 0.732457
C132_5 C 0.71729(9) 0.88983(9) 0.77092(8)
H69_5 H 0.728508 0.884740 0.787972
C133_5 C 0.69138(10) 0.87331(10) 0.76308(9)
H70_5 H 0.685145 0.857127 0.774989
O24_5 O 0.78307(5) 0.82652(4) 0.48132(5)
O25_5 O 0.74416(4) 0.79570(4) 0.49004(4)
C134_5 C 0.64767(7) 0.85309(7) 0.61131(7)
C135_5 C 0.72744(7) 0.82885(6) 0.54060(7)
H71_5 H 0.715426 0.812768 0.534313
C136_5 C 0.67352(7) 0.86008(7) 0.59539(7)
H72_5 H 0.678983 0.880188 0.592491
C137_5 C 0.65659(9) 0.79973(7) 0.60445(8)
H73_5 H 0.651043 0.779673 0.607537
C138_5 C 0.71925(7) 0.84471(7) 0.56622(7)
C139_5 C 0.75270(6) 0.83602(7) 0.52414(7)
C140_5 C 0.63895(7) 0.82328(7) 0.61611(7)
C141_5 C 0.68270(8) 0.80687(8) 0.58809(8)
H74_5 H 0.694436 0.791384 0.580029
C142_5 C 0.69144(7) 0.83705(7) 0.58365(7)
C143_5 C 0.76025(7) 0.81786(7) 0.49675(6)
C144_5 C 0.73754(9) 0.86878(10) 0.57483(9)
H75_5 H 0.732457 0.879872 0.591961
C145_5 C 0.77092(8) 0.86017(9) 0.53271(9)
H76_5 H 0.787972 0.865260 0.521492
C146_5 C 0.76308(9) 0.87669(10) 0.55862(10)
H77_5 H 0.774989 0.892873 0.564855
O26_5 O 0.46693(5) 0.82652(4) 0.76868(5)
O27_5 O 0.50584(4) 0.79570(4) 0.75996(4)
C147_5 C 0.60233(7) 0.85309(7) 0.63869(7)
C148_5 C 0.52256(7) 0.82885(6) 0.70940(7)
H78_5 H 0.534574 0.812768 0.715687
C149_5 C 0.57648(7) 0.86008(7) 0.65461(7)
H79_5 H 0.571017 0.880188 0.657509
C150_5 C 0.59341(9) 0.79973(7) 0.64555(8)
H80_5 H 0.598957 0.779673 0.642463
C151_5 C 0.53075(7) 0.84471(7) 0.68378(7)
C152_5 C 0.49730(6) 0.83602(7) 0.72586(7)
C153_5 C 0.61105(7) 0.82328(7) 0.63389(7)
C154_5 C 0.56730(8) 0.80687(8) 0.66191(8)
H81_5 H 0.555564 0.791384 0.669971
C155_5 C 0.55856(7) 0.83705(7) 0.66635(7)
C156_5 C 0.48975(7) 0.81786(7) 0.75325(6)
C157_5 C 0.51246(9) 0.86878(10) 0.67517(9)
H82_5 H 0.517543 0.879872 0.658039
C158_5 C 0.47908(8) 0.86017(9) 0.71729(9)
H83_5 H 0.462028 0.865260 0.728508
C159_5 C 0.48692(9) 0.87669(10) 0.69138(10)
H84_5 H 0.475011 0.892873 0.685145
Zn8_3 Zn 0.500000 0.750000 0.750000
Zn9_7 Zn 0.750000 0.750000 0.500000
Zn15_2 Zn 0.29847(2) 0.95153(2) 0.79847(2)
Zn16_3 Zn 0.45153(2) 0.95153(2) 0.95153(2)
Zn17_2 Zn 0.45153(2) 0.79847(2) 0.79847(2)
Zn18_5 Zn 0.79847(2) 0.79847(2) 0.45153(2)
O29_5 O 0.46693(5) 0.98132(5) 0.42348(4)
O31_5 O 0.82652(4) 0.96693(5) 0.76868(5)
O41_7 O 0.70430(4) 0.99416(4) 0.74004(4)
O2_6 O 0.29570(4) 0.00584(4) 0.25996(4)
C1_6 C 0.375000 0.125000 0.125000
C2_6 C 0.35309(7) 0.10233(7) 0.13869(7)
C3_6 C 0.32885(6) 0.02256(7) 0.20940(7)
H1_6 H 0.312768 0.034574 0.215687
C4_6 C 0.36008(7) 0.07648(7) 0.15461(7)
H2_6 H 0.380188 0.071017 0.157509
C5_6 C 0.29973(7) 0.09341(9) 0.14555(8)
H3_6 H 0.279673 0.098957 0.142463
C6_6 C 0.34471(7) 0.03075(7) 0.18378(7)
C8_6 C 0.32328(7) 0.11105(7) 0.13389(7)
C9_6 C 0.30687(8) 0.06730(8) 0.16191(8)
H4_6 H 0.291384 0.055564 0.169971
C10_6 C 0.33705(7) 0.05856(7) 0.16635(7)
C12_6 C 0.36878(10) 0.01246(9) 0.17517(9)
H5_6 H 0.379872 0.017543 0.158039
C15_6 C 0.35309(7) 0.14767(7) 0.11131(7)
C16_6 C 0.32885(6) 0.22744(7) 0.04060(7)
H8_6 H 0.312768 0.215426 0.034313
C17_6 C 0.36008(7) 0.17352(7) 0.09539(7)
H9_6 H 0.380188 0.178983 0.092491
C18_6 C 0.29973(7) 0.15659(9) 0.10445(8)
H10_6 H 0.279673 0.151043 0.107537
C19_6 C 0.34471(7) 0.21925(7) 0.06622(7)
C20_6 C 0.33602(7) 0.25270(6) 0.02414(7)
C21_6 C 0.32328(7) 0.13895(7) 0.11611(7)
C22_6 C 0.30687(8) 0.18270(8) 0.08809(8)
H11_6 H 0.291384 0.194436 0.080029
C23_6 C 0.33705(7) 0.19144(7) 0.08365(7)
C25_6 C 0.36878(10) 0.23754(9) 0.07483(9)
H12_6 H 0.379872 0.232457 0.091961
C26_6 C 0.36017(9) 0.27092(8) 0.03271(9)
H13_6 H 0.365260 0.287972 0.021492
C27_6 C 0.37669(10) 0.26308(9) 0.05862(10)
H14_6 H 0.392873 0.274989 0.064855
C28_6 C 0.39691(7) 0.11131(7) 0.10233(7)
C29_6 C 0.42115(6) 0.04060(7) 0.02256(7)
H15_6 H 0.437232 0.034313 0.034574
C30_6 C 0.38992(7) 0.09539(7) 0.07648(7)
H16_6 H 0.369812 0.092491 0.071017
C31_6 C 0.45027(7) 0.10445(8) 0.09341(9)
H17_6 H 0.470327 0.107537 0.098957
C32_6 C 0.40529(7) 0.06622(7) 0.03075(7)
C34_6 C 0.42672(7) 0.11611(7) 0.11105(7)
C35_6 C 0.44313(8) 0.08809(8) 0.06730(8)
H18_6 H 0.458616 0.080029 0.055564
C36_6 C 0.41295(7) 0.08365(7) 0.05856(7)
C38_6 C 0.38122(10) 0.07483(9) 0.01246(9)
H19_6 H 0.370128 0.091961 0.017543
O8_6 O 0.42348(4) 0.26868(5) 0.28307(5)
C41_6 C 0.39691(7) 0.13869(7) 0.14767(7)
C42_6 C 0.42115(6) 0.20940(7) 0.22744(7)
H22_6 H 0.437232 0.215687 0.215426
C43_6 C 0.38992(7) 0.15461(7) 0.17352(7)
H23_6 H 0.369812 0.157509 0.178983
C44_6 C 0.45027(7) 0.14555(8) 0.15659(9)
H24_6 H 0.470327 0.142463 0.151043
C45_6 C 0.40529(7) 0.18378(7) 0.21925(7)
C46_6 C 0.41398(7) 0.22586(7) 0.25270(6)
C47_6 C 0.42672(7) 0.13389(7) 0.13895(7)
C48_6 C 0.44313(8) 0.16191(8) 0.18270(8)
H25_6 H 0.458616 0.169971 0.194436
C49_6 C 0.41295(7) 0.16635(7) 0.19144(7)
C50_6 C 0.43214(7) 0.25325(6) 0.26025(7)
C51_6 C 0.38122(10) 0.17517(9) 0.23754(9)
H26_6 H 0.370128 0.158039 0.232457
C52_6 C 0.38983(9) 0.21729(9) 0.27092(8)
H27_6 H 0.384740 0.228508 0.287972
C53_6 C 0.37331(10) 0.19138(10) 0.26308(9)
H28_6 H 0.357127 0.185145 0.274989
O11_6 O 0.00584(4) 0.25996(4) 0.29570(4)
C54_6 C 0.125000 0.125000 0.375000
C55_6 C 0.10233(7) 0.13869(7) 0.35309(7)
C56_6 C 0.02256(7) 0.20940(7) 0.32885(6)
H29_6 H 0.034574 0.215687 0.312768
C57_6 C 0.07648(7) 0.15461(7) 0.36008(7)
H30_6 H 0.071017 0.157509 0.380188
C58_6 C 0.09341(9) 0.14555(8) 0.29973(7)
H31_6 H 0.098957 0.142463 0.279673
C59_6 C 0.03075(7) 0.18378(7) 0.34471(7)
C61_6 C 0.11105(7) 0.13389(7) 0.32328(7)
C62_6 C 0.06730(8) 0.16191(8) 0.30687(8)
H32_6 H 0.055564 0.169971 0.291384
C63_6 C 0.05856(7) 0.16635(7) 0.33705(7)
C65_6 C 0.01246(9) 0.17517(9) 0.36878(10)
H33_6 H 0.017543 0.158039 0.379872
C68_6 C 0.14767(7) 0.11131(7) 0.35309(7)
C69_6 C 0.22744(7) 0.04060(7) 0.32885(6)
H36_6 H 0.215426 0.034313 0.312768
C70_6 C 0.17352(7) 0.09539(7) 0.36008(7)
H37_6 H 0.178983 0.092491 0.380188
C71_6 C 0.15659(9) 0.10445(8) 0.29973(7)
H38_6 H 0.151043 0.107537 0.279673
C72_6 C 0.21925(7) 0.06622(7) 0.34471(7)
C73_6 C 0.25270(6) 0.02414(7) 0.33602(7)
C74_6 C 0.13895(7) 0.11611(7) 0.32328(7)
C75_6 C 0.18270(8) 0.08809(8) 0.30687(8)
H39_6 H 0.194436 0.080029 0.291384
C76_6 C 0.19144(7) 0.08365(7) 0.33705(7)
C78_6 C 0.23754(9) 0.07483(9) 0.36878(10)
H40_6 H 0.232457 0.091961 0.379872
C79_6 C 0.27092(8) 0.03271(9) 0.36017(9)
H41_6 H 0.287972 0.021492 0.365260
C80_6 C 0.26308(9) 0.05862(10) 0.37669(10)
H42_6 H 0.274989 0.064855 0.392873
C81_6 C 0.11131(7) 0.10233(7) 0.39691(7)
C82_6 C 0.04060(7) 0.02256(7) 0.42115(6)
H43_6 H 0.034313 0.034574 0.437232
C83_6 C 0.09539(7) 0.07648(7) 0.38992(7)
H44_6 H 0.092491 0.071017 0.369812
C84_6 C 0.10445(8) 0.09341(9) 0.45027(7)
H45_6 H 0.107537 0.098957 0.470327
C85_6 C 0.06622(7) 0.03075(7) 0.40529(7)
C87_6 C 0.11611(7) 0.11105(7) 0.42672(7)
C88_6 C 0.08809(8) 0.06730(8) 0.44313(8)
H46_6 H 0.080029 0.055564 0.458616
C89_6 C 0.08365(7) 0.05856(7) 0.41295(7)
C91_6 C 0.07483(9) 0.01246(9) 0.38122(10)
H47_6 H 0.091961 0.017543 0.370128
C94_6 C 0.13869(7) 0.14767(7) 0.39691(7)
C95_6 C 0.20940(7) 0.22744(7) 0.42115(6)
H50_6 H 0.215687 0.215426 0.437232
C96_6 C 0.15461(7) 0.17352(7) 0.38992(7)
H51_6 H 0.157509 0.178983 0.369812
C97_6 C 0.14555(8) 0.15659(9) 0.45027(7)
H52_6 H 0.142463 0.151043 0.470327
C98_6 C 0.18378(7) 0.21925(7) 0.40529(7)
C99_6 C 0.22586(7) 0.25270(6) 0.41398(7)
C100_6 C 0.13389(7) 0.13895(7) 0.42672(7)
C101_6 C 0.16191(8) 0.18270(8) 0.44313(8)
H53_6 H 0.169971 0.194436 0.458616
C102_6 C 0.16635(7) 0.19144(7) 0.41295(7)
C103_6 C 0.25325(6) 0.26025(7) 0.43214(7)
C104_6 C 0.17517(9) 0.23754(9) 0.38122(10)
H54_6 H 0.158039 0.232457 0.370128
C105_6 C 0.21729(9) 0.27092(8) 0.38983(9)
H55_6 H 0.228508 0.287972 0.384740
C106_6 C 0.19138(10) 0.26308(9) 0.37331(10)
H56_6 H 0.185145 0.274989 0.357127
O20_6 O 0.25996(4) 0.29570(4) 0.00584(4)
C107_6 C 0.125000 0.375000 0.125000
C108_6 C 0.13869(7) 0.35309(7) 0.10233(7)
C109_6 C 0.20940(7) 0.32885(6) 0.02256(7)
H57_6 H 0.215687 0.312768 0.034574
C110_6 C 0.15461(7) 0.36008(7) 0.07648(7)
H58_6 H 0.157509 0.380188 0.071017
C111_6 C 0.14555(8) 0.29973(7) 0.09341(9)
H59_6 H 0.142463 0.279673 0.098957
C112_6 C 0.18378(7) 0.34471(7) 0.03075(7)
C114_6 C 0.13389(7) 0.32328(7) 0.11105(7)
C115_6 C 0.16191(8) 0.30687(8) 0.06730(8)
H60_6 H 0.169971 0.291384 0.055564
C116_6 C 0.16635(7) 0.33705(7) 0.05856(7)
C118_6 C 0.17517(9) 0.36878(10) 0.01246(9)
H61_6 H 0.158039 0.379872 0.017543
C121_6 C 0.11131(7) 0.35309(7) 0.14767(7)
C122_6 C 0.04060(7) 0.32885(6) 0.22744(7)
H64_6 H 0.034313 0.312768 0.215426
C123_6 C 0.09539(7) 0.36008(7) 0.17352(7)
H65_6 H 0.092491 0.380188 0.178983
C124_6 C 0.10445(8) 0.29973(7) 0.15659(9)
H66_6 H 0.107537 0.279673 0.151043
C125_6 C 0.06622(7) 0.34471(7) 0.21925(7)
C126_6 C 0.02414(7) 0.33602(7) 0.25270(6)
C127_6 C 0.11611(7) 0.32328(7) 0.13895(7)
C128_6 C 0.08809(8) 0.30687(8) 0.18270(8)
H67_6 H 0.080029 0.291384 0.194436
C129_6 C 0.08365(7) 0.33705(7) 0.19144(7)
C131_6 C 0.07483(9) 0.36878(10) 0.23754(9)
H68_6 H 0.091961 0.379872 0.232457
C132_6 C 0.03271(9) 0.36017(9) 0.27092(8)
H69_6 H 0.021492 0.365260 0.287972
C133_6 C 0.05862(10) 0.37669(10) 0.26308(9)
H70_6 H 0.064855 0.392873 0.274989
C134_6 C 0.10233(7) 0.39691(7) 0.11131(7)
C135_6 C 0.02256(7) 0.42115(6) 0.04060(7)
H71_6 H 0.034574 0.437232 0.034313
C136_6 C 0.07648(7) 0.38992(7) 0.09539(7)
H72_6 H 0.071017 0.369812 0.092491
C137_6 C 0.09341(9) 0.45027(7) 0.10445(8)
H73_6 H 0.098957 0.470327 0.107537
C138_6 C 0.03075(7) 0.40529(7) 0.06622(7)
C140_6 C 0.11105(7) 0.42672(7) 0.11611(7)
C141_6 C 0.06730(8) 0.44313(8) 0.08809(8)
H74_6 H 0.055564 0.458616 0.080029
C142_6 C 0.05856(7) 0.41295(7) 0.08365(7)
C144_6 C 0.01246(9) 0.38122(10) 0.07483(9)
H75_6 H 0.017543 0.370128 0.091961
O26_6 O 0.28307(5) 0.42348(4) 0.26868(5)
C147_6 C 0.14767(7) 0.39691(7) 0.13869(7)
C148_6 C 0.22744(7) 0.42115(6) 0.20940(7)
H78_6 H 0.215426 0.437232 0.215687
C149_6 C 0.17352(7) 0.38992(7) 0.15461(7)
H79_6 H 0.178983 0.369812 0.157509
C150_6 C 0.15659(9) 0.45027(7) 0.14555(8)
H80_6 H 0.151043 0.470327 0.142463
C151_6 C 0.21925(7) 0.40529(7) 0.18378(7)
C152_6 C 0.25270(6) 0.41398(7) 0.22586(7)
C153_6 C 0.13895(7) 0.42672(7) 0.13389(7)
C154_6 C 0.18270(8) 0.44313(8) 0.16191(8)
H81_6 H 0.194436 0.458616 0.169971
C155_6 C 0.19144(7) 0.41295(7) 0.16635(7)
C156_6 C 0.26025(7) 0.43214(7) 0.25325(6)
C157_6 C 0.23754(9) 0.38122(10) 0.17517(9)
H82_6 H 0.232457 0.370128 0.158039
C158_6 C 0.27092(8) 0.38983(9) 0.21729(9)
H83_6 H 0.287972 0.384740 0.228508
C159_6 C 0.26308(9) 0.37331(10) 0.19138(10)
H84_6 H 0.274989 0.357127 0.185145
Zn15_3 Zn 0.45153(2) 0.29847(2) 0.29847(2)
Zn17_3 Zn 0.29847(2) 0.45153(2) 0.29847(2)
O4_6 O 0.32652(4) 0.28307(5) 0.98132(5)
O5_6 O 0.29570(4) 0.24416(4) 0.99004(4)
C24_6 C 0.31786(7) 0.26025(7) 0.99675(6)
C33_6 C 0.41398(7) 0.02414(7) 0.99730(6)
C39_6 C 0.38983(9) 0.03271(9) 0.97908(8)
H20_6 H 0.384740 0.021492 0.962028
C40_6 C 0.37331(10) 0.05862(10) 0.98692(9)
H21_6 H 0.357127 0.064855 0.975011
Zn5_6 Zn 0.29847(2) 0.29847(2) 0.95153(2)
O19_6 O 0.26868(5) 0.32652(4) 0.96693(5)
O21_6 O 0.32449(6) 0.32449(6) 0.92551(6)
C113_6 C 0.22586(7) 0.33602(7) 0.99730(6)
C117_6 C 0.25325(6) 0.31786(7) 0.98975(7)
C119_6 C 0.21729(9) 0.36017(9) 0.97908(8)
H62_6 H 0.228508 0.365260 0.962028
C120_6 C 0.19138(10) 0.37669(10) 0.98692(9)
H63_6 H 0.185145 0.392873 0.975011
O29_6 O 0.28307(5) 0.26868(5) 0.92348(4)
Zn2_6 Zn 0.29847(2) 0.95153(2) 0.29847(2)
O1_6 O 0.32652(4) 0.96693(5) 0.26868(5)
O3_6 O 0.32449(6) 0.92551(6) 0.32449(6)
C7_6 C 0.33602(7) 0.99730(6) 0.22586(7)
C11_6 C 0.31786(7) 0.98975(7) 0.25325(6)
C13_6 C 0.36017(9) 0.97908(8) 0.21729(9)
H6_6 H 0.365260 0.962028 0.228508
C14_6 C 0.37669(10) 0.98692(9) 0.19138(10)
H7_6 H 0.392873 0.975011 0.185145
O13_6 O 0.28307(5) 0.98132(5) 0.32652(4)
O14_6 O 0.24416(4) 0.99004(4) 0.29570(4)
C77_6 C 0.26025(7) 0.99675(6) 0.31786(7)
C86_6 C 0.02414(7) 0.99730(6) 0.41398(7)
C92_6 C 0.03271(9) 0.97908(8) 0.38983(9)
H48_6 H 0.021492 0.962028 0.384740
C93_6 C 0.05862(10) 0.98692(9) 0.37331(10)
H49_6 H 0.064855 0.975011 0.357127
O30_6 O 0.26868(5) 0.92348(4) 0.28307(5)
O34_8 O 0.25996(4) 0.95430(4) 0.24416(4)
O6_6 O 0.42348(4) 0.98132(5) 0.96693(5)
C37_6 C 0.43214(7) 0.99675(6) 0.98975(7)
O28_14 O 0.42551(6) 0.92551(6) 0.92551(6)
O33_14 O 0.46693(5) 0.92348(4) 0.98132(5)
Zn4_6 Zn 0.95153(2) 0.29847(2) 0.29847(2)
O10_6 O 0.96693(5) 0.26868(5) 0.32652(4)
O12_6 O 0.92551(6) 0.32449(6) 0.32449(6)
C60_6 C 0.99730(6) 0.22586(7) 0.33602(7)
C64_6 C 0.98975(7) 0.25325(6) 0.31786(7)
C66_6 C 0.97908(8) 0.21729(9) 0.36017(9)
H34_6 H 0.962028 0.228508 0.365260
C67_6 C 0.98692(9) 0.19138(10) 0.37669(10)
H35_6 H 0.975011 0.185145 0.392873
O22_6 O 0.98132(5) 0.32652(4) 0.28307(5)
O23_6 O 0.99004(4) 0.29570(4) 0.24416(4)
C130_6 C 0.99675(6) 0.31786(7) 0.26025(7)
C139_6 C 0.99730(6) 0.41398(7) 0.02414(7)
C145_6 C 0.97908(8) 0.38983(9) 0.03271(9)
H76_6 H 0.962028 0.384740 0.021492
C146_6 C 0.98692(9) 0.37331(10) 0.05862(10)
H77_6 H 0.975011 0.357127 0.064855
O31_6 O 0.92348(4) 0.28307(5) 0.26868(5)
O35_8 O 0.95430(4) 0.24416(4) 0.25996(4)
O24_6 O 0.96693(5) 0.42348(4) 0.98132(5)
C143_6 C 0.98975(7) 0.43214(7) 0.99675(6)
Zn18_6 Zn 0.95153(2) 0.45153(2) 0.95153(2)
O15_6 O 0.98132(5) 0.96693(5) 0.42348(4)
C90_6 C 0.99675(6) 0.98975(7) 0.43214(7)
Zn14_6 Zn 0.95153(2) 0.95153(2) 0.45153(2)
O28_15 O 0.42551(6) 0.32449(6) 0.32449(6)
O32_14 O 0.48132(5) 0.28307(5) 0.32652(4)
O33_15 O 0.46693(5) 0.32652(4) 0.26868(5)
C54_7 C 0.125000 0.125000 0.875000
C55_7 C 0.10233(7) 0.11131(7) 0.89691(7)
C56_7 C 0.02256(7) 0.04060(7) 0.92115(6)
H29_7 H 0.034574 0.034313 0.937232
C57_7 C 0.07648(7) 0.09539(7) 0.88992(7)
H30_7 H 0.071017 0.092491 0.869812
C58_7 C 0.09341(9) 0.10445(8) 0.95027(7)
H31_7 H 0.098957 0.107537 0.970327
C59_7 C 0.03075(7) 0.06622(7) 0.90529(7)
C61_7 C 0.11105(7) 0.11611(7) 0.92672(7)
C62_7 C 0.06730(8) 0.08809(8) 0.94313(8)
H32_7 H 0.055564 0.080029 0.958616
C63_7 C 0.05856(7) 0.08365(7) 0.91295(7)
C65_7 C 0.01246(9) 0.07483(9) 0.88122(10)
H33_7 H 0.017543 0.091961 0.870128
O14_7 O 0.24416(4) 0.25996(4) 0.95430(4)
C68_7 C 0.14767(7) 0.13869(7) 0.89691(7)
C69_7 C 0.22744(7) 0.20940(7) 0.92115(6)
H36_7 H 0.215426 0.215687 0.937232
C70_7 C 0.17352(7) 0.15461(7) 0.88992(7)
H37_7 H 0.178983 0.157509 0.869812
C71_7 C 0.15659(9) 0.14555(8) 0.95027(7)
H38_7 H 0.151043 0.142463 0.970327
C72_7 C 0.21925(7) 0.18378(7) 0.90529(7)
C73_7 C 0.25270(6) 0.22586(7) 0.91398(7)
C74_7 C 0.13895(7) 0.13389(7) 0.92672(7)
C75_7 C 0.18270(8) 0.16191(8) 0.94313(8)
H39_7 H 0.194436 0.169971 0.958616
C76_7 C 0.19144(7) 0.16635(7) 0.91295(7)
C77_7 C 0.26025(7) 0.25325(6) 0.93214(7)
C78_7 C 0.23754(9) 0.17517(9) 0.88122(10)
H40_7 H 0.232457 0.158039 0.870128
C79_7 C 0.27092(8) 0.21729(9) 0.88983(9)
H41_7 H 0.287972 0.228508 0.884740
C80_7 C 0.26308(9) 0.19138(10) 0.87331(10)
H42_7 H 0.274989 0.185145 0.857127
C81_7 C 0.11131(7) 0.14767(7) 0.85309(7)
C82_7 C 0.04060(7) 0.22744(7) 0.82885(6)
H43_7 H 0.034313 0.215426 0.812768
C83_7 C 0.09539(7) 0.17352(7) 0.86008(7)
H44_7 H 0.092491 0.178983 0.880188
C84_7 C 0.10445(8) 0.15659(9) 0.79973(7)
H45_7 H 0.107537 0.151043 0.779673
C85_7 C 0.06622(7) 0.21925(7) 0.84471(7)
C86_7 C 0.02414(7) 0.25270(6) 0.83602(7)
C87_7 C 0.11611(7) 0.13895(7) 0.82328(7)
C88_7 C 0.08809(8) 0.18270(8) 0.80687(8)
H46_7 H 0.080029 0.194436 0.791384
C89_7 C 0.08365(7) 0.19144(7) 0.83705(7)
C91_7 C 0.07483(9) 0.23754(9) 0.86878(10)
H47_7 H 0.091961 0.232457 0.879872
C92_7 C 0.03271(9) 0.27092(8) 0.86017(9)
H48_7 H 0.021492 0.287972 0.865260
C93_7 C 0.05862(10) 0.26308(9) 0.87669(10)
H49_7 H 0.064855 0.274989 0.892873
C94_7 C 0.13869(7) 0.10233(7) 0.85309(7)
C95_7 C 0.20940(7) 0.02256(7) 0.82885(6)
H50_7 H 0.215687 0.034574 0.812768
C96_7 C 0.15461(7) 0.07648(7) 0.86008(7)
H51_7 H 0.157509 0.071017 0.880188
C97_7 C 0.14555(8) 0.09341(9) 0.79973(7)
H52_7 H 0.142463 0.098957 0.779673
C98_7 C 0.18378(7) 0.03075(7) 0.84471(7)
C100_7 C 0.13389(7) 0.11105(7) 0.82328(7)
C101_7 C 0.16191(8) 0.06730(8) 0.80687(8)
H53_7 H 0.169971 0.055564 0.791384
C102_7 C 0.16635(7) 0.05856(7) 0.83705(7)
C104_7 C 0.17517(9) 0.01246(9) 0.86878(10)
H54_7 H 0.158039 0.017543 0.879872
C107_7 C 0.125000 0.875000 0.125000
C108_7 C 0.13869(7) 0.89691(7) 0.14767(7)
C109_7 C 0.20940(7) 0.92115(6) 0.22744(7)
H57_7 H 0.215687 0.937232 0.215426
C110_7 C 0.15461(7) 0.88992(7) 0.17352(7)
H58_7 H 0.157509 0.869812 0.178983
C111_7 C 0.14555(8) 0.95027(7) 0.15659(9)
H59_7 H 0.142463 0.970327 0.151043
C112_7 C 0.18378(7) 0.90529(7) 0.21925(7)
C113_7 C 0.22586(7) 0.91398(7) 0.25270(6)
C114_7 C 0.13389(7) 0.92672(7) 0.13895(7)
C115_7 C 0.16191(8) 0.94313(8) 0.18270(8)
H60_7 H 0.169971 0.958616 0.194436
C116_7 C 0.16635(7) 0.91295(7) 0.19144(7)
C117_7 C 0.25325(6) 0.93214(7) 0.26025(7)
C118_7 C 0.17517(9) 0.88122(10) 0.23754(9)
H61_7 H 0.158039 0.870128 0.232457
C119_7 C 0.21729(9) 0.88983(9) 0.27092(8)
H62_7 H 0.228508 0.884740 0.287972
C120_7 C 0.19138(10) 0.87331(10) 0.26308(9)
H63_7 H 0.185145 0.857127 0.274989
C121_7 C 0.11131(7) 0.89691(7) 0.10233(7)
C122_7 C 0.04060(7) 0.92115(6) 0.02256(7)
H64_7 H 0.034313 0.937232 0.034574
C123_7 C 0.09539(7) 0.88992(7) 0.07648(7)
H65_7 H 0.092491 0.869812 0.071017
C124_7 C 0.10445(8) 0.95027(7) 0.09341(9)
H66_7 H 0.107537 0.970327 0.098957
C125_7 C 0.06622(7) 0.90529(7) 0.03075(7)
C127_7 C 0.11611(7) 0.92672(7) 0.11105(7)
C128_7 C 0.08809(8) 0.94313(8) 0.06730(8)
H67_7 H 0.080029 0.958616 0.055564
C129_7 C 0.08365(7) 0.91295(7) 0.05856(7)
C131_7 C 0.07483(9) 0.88122(10) 0.01246(9)
H68_7 H 0.091961 0.870128 0.017543
C134_7 C 0.10233(7) 0.85309(7) 0.13869(7)
C135_7 C 0.02256(7) 0.82885(6) 0.20940(7)
H71_7 H 0.034574 0.812768 0.215687
C136_7 C 0.07648(7) 0.86008(7) 0.15461(7)
H72_7 H 0.071017 0.880188 0.157509
C137_7 C 0.09341(9) 0.79973(7) 0.14555(8)
H73_7 H 0.098957 0.779673 0.142463
C138_7 C 0.03075(7) 0.84471(7) 0.18378(7)
C140_7 C 0.11105(7) 0.82328(7) 0.13389(7)
C141_7 C 0.06730(8) 0.80687(8) 0.16191(8)
H74_7 H 0.055564 0.791384 0.169971
C142_7 C 0.05856(7) 0.83705(7) 0.16635(7)
C144_7 C 0.01246(9) 0.86878(10) 0.17517(9)
H75_7 H 0.017543 0.879872 0.158039
C147_7 C 0.14767(7) 0.85309(7) 0.11131(7)
C148_7 C 0.22744(7) 0.82885(6) 0.04060(7)
H78_7 H 0.215426 0.812768 0.034313
C149_7 C 0.17352(7) 0.86008(7) 0.09539(7)
H79_7 H 0.178983 0.880188 0.092491
C150_7 C 0.15659(9) 0.79973(7) 0.10445(8)
H80_7 H 0.151043 0.779673 0.107537
C151_7 C 0.21925(7) 0.84471(7) 0.06622(7)
C152_7 C 0.25270(6) 0.83602(7) 0.02414(7)
C153_7 C 0.13895(7) 0.82328(7) 0.11611(7)
C154_7 C 0.18270(8) 0.80687(8) 0.08809(8)
H81_7 H 0.194436 0.791384 0.080029
C155_7 C 0.19144(7) 0.83705(7) 0.08365(7)
C157_7 C 0.23754(9) 0.86878(10) 0.07483(9)
H82_7 H 0.232457 0.879872 0.091961
C158_7 C 0.27092(8) 0.86017(9) 0.03271(9)
H83_7 H 0.287972 0.865260 0.021492
C159_7 C 0.26308(9) 0.87669(10) 0.05862(10)
H84_7 H 0.274989 0.892873 0.064855
O11_7 O 0.00584(4) 0.99004(4) 0.95430(4)
O17_6 O 0.26868(5) 0.96693(5) 0.82652(4)
C99_7 C 0.22586(7) 0.99730(6) 0.83602(7)
C103_7 C 0.25325(6) 0.98975(7) 0.81786(7)
C105_7 C 0.21729(9) 0.97908(8) 0.86017(9)
H55_7 H 0.228508 0.962028 0.865260
C106_7 C 0.19138(10) 0.98692(9) 0.87669(10)
H56_7 H 0.185145 0.975011 0.892873
C126_7 C 0.02414(7) 0.91398(7) 0.99730(6)
C132_7 C 0.03271(9) 0.88983(9) 0.97908(8)
H69_7 H 0.021492 0.884740 0.962028
C133_7 C 0.05862(10) 0.87331(10) 0.98692(9)
H70_7 H 0.064855 0.857127 0.975011
O26_7 O 0.28307(5) 0.82652(4) 0.98132(5)
C156_7 C 0.26025(7) 0.81786(7) 0.99675(6)
Zn17_4 Zn 0.29847(2) 0.79847(2) 0.95153(2)
C60_7 C 0.99730(6) 0.02414(7) 0.91398(7)
C66_7 C 0.97908(8) 0.03271(9) 0.88983(9)
H34_7 H 0.962028 0.021492 0.884740
C67_7 C 0.98692(9) 0.05862(10) 0.87331(10)
H35_7 H 0.975011 0.064855 0.857127
O15_7 O 0.98132(5) 0.28307(5) 0.82652(4)
C90_7 C 0.99675(6) 0.26025(7) 0.81786(7)
Zn14_7 Zn 0.95153(2) 0.29847(2) 0.79847(2)
O35_9 O 0.95430(4) 0.00584(4) 0.99004(4)
O23_7 O 0.99004(4) 0.95430(4) 0.00584(4)
O24_7 O 0.96693(5) 0.82652(4) 0.26868(5)
C139_7 C 0.99730(6) 0.83602(7) 0.22586(7)
C143_7 C 0.98975(7) 0.81786(7) 0.25325(6)
C145_7 C 0.97908(8) 0.86017(9) 0.21729(9)
H76_7 H 0.962028 0.865260 0.228508
C146_7 C 0.98692(9) 0.87669(10) 0.19138(10)
H77_7 H 0.975011 0.892873 0.185145
Zn18_7 Zn 0.95153(2) 0.79847(2) 0.29847(2)
Zn4_7 Zn 0.95153(2) 0.95153(2) 0.95153(2)
O10_7 O 0.96693(5) 0.98132(5) 0.92348(4)
O12_7 O 0.92551(6) 0.92551(6) 0.92551(6)
C64_7 C 0.98975(7) 0.99675(6) 0.93214(7)
O22_7 O 0.98132(5) 0.92348(4) 0.96693(5)
C130_7 C 0.99675(6) 0.93214(7) 0.98975(7)
O31_7 O 0.92348(4) 0.96693(5) 0.98132(5)
Zn4_8 Zn 0.79847(2) 0.29847(2) 0.45153(2)
O10_8 O 0.78307(5) 0.26868(5) 0.42348(4)
O11_8 O 0.74416(4) 0.25996(4) 0.45430(4)
O12_8 O 0.82449(6) 0.32449(6) 0.42551(6)
C54_8 C 0.625000 0.125000 0.375000
C55_8 C 0.64767(7) 0.13869(7) 0.39691(7)
C56_8 C 0.72744(7) 0.20940(7) 0.42115(6)
H29_8 H 0.715426 0.215687 0.437232
C57_8 C 0.67352(7) 0.15461(7) 0.38992(7)
H30_8 H 0.678983 0.157509 0.369812
C58_8 C 0.65659(9) 0.14555(8) 0.45027(7)
H31_8 H 0.651043 0.142463 0.470327
C59_8 C 0.71925(7) 0.18378(7) 0.40529(7)
C60_8 C 0.75270(6) 0.22586(7) 0.41398(7)
C61_8 C 0.63895(7) 0.13389(7) 0.42672(7)
C62_8 C 0.68270(8) 0.16191(8) 0.44313(8)
H32_8 H 0.694436 0.169971 0.458616
C63_8 C 0.69144(7) 0.16635(7) 0.41295(7)
C64_8 C 0.76025(7) 0.25325(6) 0.43214(7)
C65_8 C 0.73754(9) 0.17517(9) 0.38122(10)
H33_8 H 0.732457 0.158039 0.370128
C66_8 C 0.77092(8) 0.21729(9) 0.38983(9)
H34_8 H 0.787972 0.228508 0.384740
C67_8 C 0.76308(9) 0.19138(10) 0.37331(10)
H35_8 H 0.774989 0.185145 0.357127
C68_8 C 0.60233(7) 0.11131(7) 0.39691(7)
C69_8 C 0.52256(7) 0.04060(7) 0.42115(6)
H36_8 H 0.534574 0.034313 0.437232
C70_8 C 0.57648(7) 0.09539(7) 0.38992(7)
H37_8 H 0.571017 0.092491 0.369812
C71_8 C 0.59341(9) 0.10445(8) 0.45027(7)
H38_8 H 0.598957 0.107537 0.470327
C72_8 C 0.53075(7) 0.06622(7) 0.40529(7)
C73_8 C 0.49730(6) 0.02414(7) 0.41398(7)
C74_8 C 0.61105(7) 0.11611(7) 0.42672(7)
C75_8 C 0.56730(8) 0.08809(8) 0.44313(8)
H39_8 H 0.555564 0.080029 0.458616
C76_8 C 0.55856(7) 0.08365(7) 0.41295(7)
C78_8 C 0.51246(9) 0.07483(9) 0.38122(10)
H40_8 H 0.517543 0.091961 0.370128
C79_8 C 0.47908(8) 0.03271(9) 0.38983(9)
H41_8 H 0.462028 0.021492 0.384740
C80_8 C 0.48692(9) 0.05862(10) 0.37331(10)
H42_8 H 0.475011 0.064855 0.357127
C81_8 C 0.63869(7) 0.10233(7) 0.35309(7)
C82_8 C 0.70940(7) 0.02256(7) 0.32885(6)
H43_8 H 0.715687 0.034574 0.312768
C83_8 C 0.65461(7) 0.07648(7) 0.36008(7)
H44_8 H 0.657509 0.071017 0.380188
C84_8 C 0.64555(8) 0.09341(9) 0.29973(7)
H45_8 H 0.642463 0.098957 0.279673
C85_8 C 0.68378(7) 0.03075(7) 0.34471(7)
C87_8 C 0.63389(7) 0.11105(7) 0.32328(7)
C88_8 C 0.66191(8) 0.06730(8) 0.30687(8)
H46_8 H 0.669971 0.055564 0.291384
C89_8 C 0.66635(7) 0.05856(7) 0.33705(7)
C91_8 C 0.67517(9) 0.01246(9) 0.36878(10)
H47_8 H 0.658039 0.017543 0.379872
C94_8 C 0.61131(7) 0.14767(7) 0.35309(7)
C95_8 C 0.54060(7) 0.22744(7) 0.32885(6)
H50_8 H 0.534313 0.215426 0.312768
C96_8 C 0.59539(7) 0.17352(7) 0.36008(7)
H51_8 H 0.592491 0.178983 0.380188
C97_8 C 0.60445(8) 0.15659(9) 0.29973(7)
H52_8 H 0.607537 0.151043 0.279673
C98_8 C 0.56622(7) 0.21925(7) 0.34471(7)
C99_8 C 0.52414(7) 0.25270(6) 0.33602(7)
C100_8 C 0.61611(7) 0.13895(7) 0.32328(7)
C101_8 C 0.58809(8) 0.18270(8) 0.30687(8)
H53_8 H 0.580029 0.194436 0.291384
C102_8 C 0.58365(7) 0.19144(7) 0.33705(7)
C103_8 C 0.49675(6) 0.26025(7) 0.31786(7)
C104_8 C 0.57483(9) 0.23754(9) 0.36878(10)
H54_8 H 0.591961 0.232457 0.379872
C105_8 C 0.53271(9) 0.27092(8) 0.36017(9)
H55_8 H 0.521492 0.287972 0.365260
C106_8 C 0.55862(10) 0.26308(9) 0.37669(10)
H56_8 H 0.564855 0.274989 0.392873
C107_8 C 0.625000 0.375000 0.625000
C108_8 C 0.61131(7) 0.35309(7) 0.64767(7)
C109_8 C 0.54060(7) 0.32885(6) 0.72744(7)
H57_8 H 0.534313 0.312768 0.715426
C110_8 C 0.59539(7) 0.36008(7) 0.67352(7)
H58_8 H 0.592491 0.380188 0.678983
C111_8 C 0.60445(8) 0.29973(7) 0.65659(9)
H59_8 H 0.607537 0.279673 0.651043
C112_8 C 0.56622(7) 0.34471(7) 0.71925(7)
C113_8 C 0.52414(7) 0.33602(7) 0.75270(6)
C114_8 C 0.61611(7) 0.32328(7) 0.63895(7)
C115_8 C 0.58809(8) 0.30687(8) 0.68270(8)
H60_8 H 0.580029 0.291384 0.694436
C116_8 C 0.58365(7) 0.33705(7) 0.69144(7)
C117_8 C 0.49675(6) 0.31786(7) 0.76025(7)
C118_8 C 0.57483(9) 0.36878(10) 0.73754(9)
H61_8 H 0.591961 0.379872 0.732457
C119_8 C 0.53271(9) 0.36017(9) 0.77092(8)
H62_8 H 0.521492 0.365260 0.787972
C120_8 C 0.55862(10) 0.37669(10) 0.76308(9)
H63_8 H 0.564855 0.392873 0.774989
O22_8 O 0.76868(5) 0.32652(4) 0.46693(5)
O23_8 O 0.75996(4) 0.29570(4) 0.50584(4)
C121_8 C 0.63869(7) 0.35309(7) 0.60233(7)
C122_8 C 0.70940(7) 0.32885(6) 0.52256(7)
H64_8 H 0.715687 0.312768 0.534574
C123_8 C 0.65461(7) 0.36008(7) 0.57648(7)
H65_8 H 0.657509 0.380188 0.571017
C124_8 C 0.64555(8) 0.29973(7) 0.59341(9)
H66_8 H 0.642463 0.279673 0.598957
C125_8 C 0.68378(7) 0.34471(7) 0.53075(7)
C126_8 C 0.72586(7) 0.33602(7) 0.49730(6)
C127_8 C 0.63389(7) 0.32328(7) 0.61105(7)
C128_8 C 0.66191(8) 0.30687(8) 0.56730(8)
H67_8 H 0.669971 0.291384 0.555564
C129_8 C 0.66635(7) 0.33705(7) 0.55856(7)
C130_8 C 0.75325(6) 0.31786(7) 0.48975(7)
C131_8 C 0.67517(9) 0.36878(10) 0.51246(9)
H68_8 H 0.658039 0.379872 0.517543
C132_8 C 0.71729(9) 0.36017(9) 0.47908(8)
H69_8 H 0.728508 0.365260 0.462028
C133_8 C 0.69138(10) 0.37669(10) 0.48692(9)
H70_8 H 0.685145 0.392873 0.475011
O24_8 O 0.78307(5) 0.42348(4) 0.76868(5)
O25_6 O 0.74416(4) 0.45430(4) 0.75996(4)
C134_8 C 0.64767(7) 0.39691(7) 0.63869(7)
C135_8 C 0.72744(7) 0.42115(6) 0.70940(7)
H71_8 H 0.715426 0.437232 0.715687
C136_8 C 0.67352(7) 0.38992(7) 0.65461(7)
H72_8 H 0.678983 0.369812 0.657509
C137_8 C 0.65659(9) 0.45027(7) 0.64555(8)
H73_8 H 0.651043 0.470327 0.642463
C138_8 C 0.71925(7) 0.40529(7) 0.68378(7)
C139_8 C 0.75270(6) 0.41398(7) 0.72586(7)
C140_8 C 0.63895(7) 0.42672(7) 0.63389(7)
C141_8 C 0.68270(8) 0.44313(8) 0.66191(8)
H74_8 H 0.694436 0.458616 0.669971
C142_8 C 0.69144(7) 0.41295(7) 0.66635(7)
C143_8 C 0.76025(7) 0.43214(7) 0.75325(6)
C144_8 C 0.73754(9) 0.38122(10) 0.67517(9)
H75_8 H 0.732457 0.370128 0.658039
C145_8 C 0.77092(8) 0.38983(9) 0.71729(9)
H76_8 H 0.787972 0.384740 0.728508
C146_8 C 0.76308(9) 0.37331(10) 0.69138(10)
H77_8 H 0.774989 0.357127 0.685145
O26_8 O 0.46693(5) 0.42348(4) 0.48132(5)
O27_6 O 0.50584(4) 0.45430(4) 0.49004(4)
C147_8 C 0.60233(7) 0.39691(7) 0.61131(7)
C148_8 C 0.52256(7) 0.42115(6) 0.54060(7)
H78_8 H 0.534574 0.437232 0.534313
C149_8 C 0.57648(7) 0.38992(7) 0.59539(7)
H79_8 H 0.571017 0.369812 0.592491
C150_8 C 0.59341(9) 0.45027(7) 0.60445(8)
H80_8 H 0.598957 0.470327 0.607537
C151_8 C 0.53075(7) 0.40529(7) 0.56622(7)
C152_8 C 0.49730(6) 0.41398(7) 0.52414(7)
C153_8 C 0.61105(7) 0.42672(7) 0.61611(7)
C154_8 C 0.56730(8) 0.44313(8) 0.58809(8)
H81_8 H 0.555564 0.458616 0.580029
C155_8 C 0.55856(7) 0.41295(7) 0.58365(7)
C156_8 C 0.48975(7) 0.43214(7) 0.49675(6)
C157_8 C 0.51246(9) 0.38122(10) 0.57483(9)
H82_8 H 0.517543 0.370128 0.591961
C158_8 C 0.47908(8) 0.38983(9) 0.53271(9)
H83_8 H 0.462028 0.384740 0.521492
C159_8 C 0.48692(9) 0.37331(10) 0.55862(10)
H84_8 H 0.475011 0.357127 0.564855
Zn8_4 Zn 0.500000 0.500000 0.500000
Zn9_8 Zn 0.750000 0.500000 0.750000
Zn17_5 Zn 0.45153(2) 0.45153(2) 0.45153(2)
Zn18_8 Zn 0.79847(2) 0.45153(2) 0.79847(2)
O31_8 O 0.82652(4) 0.28307(5) 0.48132(5)
O35_10 O 0.79570(4) 0.24416(4) 0.49004(4)
O38_8 O 0.49416(4) 0.00996(4) 0.54570(4)
O39_8 O 0.75584(4) 0.24004(4) 0.54570(4)
O41_8 O 0.70430(4) 0.25584(4) 0.50996(4)
O14_8 O 0.50584(4) 0.99004(4) 0.45430(4)
C77_8 C 0.48975(7) 0.99675(6) 0.43214(7)
O15_8 O 0.76868(5) 0.96693(5) 0.32652(4)
C86_8 C 0.72586(7) 0.99730(6) 0.33602(7)
C90_8 C 0.75325(6) 0.98975(7) 0.31786(7)
C92_8 C 0.71729(9) 0.97908(8) 0.36017(9)
H48_8 H 0.728508 0.962028 0.365260
C93_8 C 0.69138(10) 0.98692(9) 0.37669(10)
H49_8 H 0.685145 0.975011 0.392873
O28_16 O 0.32449(6) 0.92551(6) 0.82449(6)
Zn14_8 Zn 0.79847(2) 0.95153(2) 0.29847(2)
O33_16 O 0.28307(5) 0.92348(4) 0.76868(5)
O40_8 O 0.54570(4) 0.99416(4) 0.50996(4)
Zn2_7 Zn 0.29847(2) 0.79847(2) 0.45153(2)
O1_7 O 0.28307(5) 0.76868(5) 0.42348(4)
O2_7 O 0.24416(4) 0.75996(4) 0.45430(4)
O3_7 O 0.32449(6) 0.82449(6) 0.42551(6)
C1_7 C 0.125000 0.625000 0.375000
C2_7 C 0.14767(7) 0.63869(7) 0.39691(7)
C3_7 C 0.22744(7) 0.70940(7) 0.42115(6)
H1_7 H 0.215426 0.715687 0.437232
C4_7 C 0.17352(7) 0.65461(7) 0.38992(7)
H2_7 H 0.178983 0.657509 0.369812
C5_7 C 0.15659(9) 0.64555(8) 0.45027(7)
H3_7 H 0.151043 0.642463 0.470327
C6_7 C 0.21925(7) 0.68378(7) 0.40529(7)
C7_7 C 0.25270(6) 0.72586(7) 0.41398(7)
C8_7 C 0.13895(7) 0.63389(7) 0.42672(7)
C9_7 C 0.18270(8) 0.66191(8) 0.44313(8)
H4_7 H 0.194436 0.669971 0.458616
C10_7 C 0.19144(7) 0.66635(7) 0.41295(7)
C11_7 C 0.26025(7) 0.75325(6) 0.43214(7)
C12_7 C 0.23754(9) 0.67517(9) 0.38122(10)
H5_7 H 0.232457 0.658039 0.370128
C13_7 C 0.27092(8) 0.71729(9) 0.38983(9)
H6_7 H 0.287972 0.728508 0.384740
C14_7 C 0.26308(9) 0.69138(10) 0.37331(10)
H7_7 H 0.274989 0.685145 0.357127
O5_7 O 0.00584(4) 0.49004(4) 0.45430(4)
C15_7 C 0.10233(7) 0.61131(7) 0.39691(7)
C16_7 C 0.02256(7) 0.54060(7) 0.42115(6)
H8_7 H 0.034574 0.534313 0.437232
C17_7 C 0.07648(7) 0.59539(7) 0.38992(7)
H9_7 H 0.071017 0.592491 0.369812
C18_7 C 0.09341(9) 0.60445(8) 0.45027(7)
H10_7 H 0.098957 0.607537 0.470327
C19_7 C 0.03075(7) 0.56622(7) 0.40529(7)
C21_7 C 0.11105(7) 0.61611(7) 0.42672(7)
C22_7 C 0.06730(8) 0.58809(8) 0.44313(8)
H11_7 H 0.055564 0.580029 0.458616
C23_7 C 0.05856(7) 0.58365(7) 0.41295(7)
C25_7 C 0.01246(9) 0.57483(9) 0.38122(10)
H12_7 H 0.017543 0.591961 0.370128
O6_7 O 0.26868(5) 0.46693(5) 0.32652(4)
C28_7 C 0.13869(7) 0.60233(7) 0.35309(7)
C29_7 C 0.20940(7) 0.52256(7) 0.32885(6)
H15_7 H 0.215687 0.534574 0.312768
C30_7 C 0.15461(7) 0.57648(7) 0.36008(7)
H16_7 H 0.157509 0.571017 0.380188
C31_7 C 0.14555(8) 0.59341(9) 0.29973(7)
H17_7 H 0.142463 0.598957 0.279673
C32_7 C 0.18378(7) 0.53075(7) 0.34471(7)
C33_7 C 0.22586(7) 0.49730(6) 0.33602(7)
C34_7 C 0.13389(7) 0.61105(7) 0.32328(7)
C35_7 C 0.16191(8) 0.56730(8) 0.30687(8)
H18_7 H 0.169971 0.555564 0.291384
C36_7 C 0.16635(7) 0.55856(7) 0.33705(7)
C37_7 C 0.25325(6) 0.48975(7) 0.31786(7)
C38_7 C 0.17517(9) 0.51246(9) 0.36878(10)
H19_7 H 0.158039 0.517543 0.379872
C39_7 C 0.21729(9) 0.47908(8) 0.36017(9)
H20_7 H 0.228508 0.462028 0.365260
C40_7 C 0.19138(10) 0.48692(9) 0.37669(10)
H21_7 H 0.185145 0.475011 0.392873
C41_7 C 0.11131(7) 0.64767(7) 0.35309(7)
C42_7 C 0.04060(7) 0.72744(7) 0.32885(6)
H22_7 H 0.034313 0.715426 0.312768
C43_7 C 0.09539(7) 0.67352(7) 0.36008(7)
H23_7 H 0.092491 0.678983 0.380188
C44_7 C 0.10445(8) 0.65659(9) 0.29973(7)
H24_7 H 0.107537 0.651043 0.279673
C45_7 C 0.06622(7) 0.71925(7) 0.34471(7)
C46_7 C 0.02414(7) 0.75270(6) 0.33602(7)
C47_7 C 0.11611(7) 0.63895(7) 0.32328(7)
C48_7 C 0.08809(8) 0.68270(8) 0.30687(8)
H25_7 H 0.080029 0.694436 0.291384
C49_7 C 0.08365(7) 0.69144(7) 0.33705(7)
C51_7 C 0.07483(9) 0.73754(9) 0.36878(10)
H26_7 H 0.091961 0.732457 0.379872
C52_7 C 0.03271(9) 0.77092(8) 0.36017(9)
H27_7 H 0.021492 0.787972 0.365260
C53_7 C 0.05862(10) 0.76308(9) 0.37669(10)
H28_7 H 0.064855 0.774989 0.392873
C54_9 C 0.125000 0.875000 0.625000
C55_9 C 0.11131(7) 0.85309(7) 0.64767(7)
C56_9 C 0.04060(7) 0.82885(6) 0.72744(7)
H29_9 H 0.034313 0.812768 0.715426
C57_9 C 0.09539(7) 0.86008(7) 0.67352(7)
H30_9 H 0.092491 0.880188 0.678983
C58_9 C 0.10445(8) 0.79973(7) 0.65659(9)
H31_9 H 0.107537 0.779673 0.651043
C59_9 C 0.06622(7) 0.84471(7) 0.71925(7)
C60_9 C 0.02414(7) 0.83602(7) 0.75270(6)
C61_9 C 0.11611(7) 0.82328(7) 0.63895(7)
C62_9 C 0.08809(8) 0.80687(8) 0.68270(8)
H32_9 H 0.080029 0.791384 0.694436
C63_9 C 0.08365(7) 0.83705(7) 0.69144(7)
C65_9 C 0.07483(9) 0.86878(10) 0.73754(9)
H33_9 H 0.091961 0.879872 0.732457
C66_9 C 0.03271(9) 0.86017(9) 0.77092(8)
H34_9 H 0.021492 0.865260 0.787972
C67_9 C 0.05862(10) 0.87669(10) 0.76308(9)
H35_9 H 0.064855 0.892873 0.774989
O13_7 O 0.26868(5) 0.82652(4) 0.46693(5)
O14_9 O 0.25996(4) 0.79570(4) 0.50584(4)
C68_9 C 0.13869(7) 0.85309(7) 0.60233(7)
C69_9 C 0.20940(7) 0.82885(6) 0.52256(7)
H36_9 H 0.215687 0.812768 0.534574
C70_9 C 0.15461(7) 0.86008(7) 0.57648(7)
H37_9 H 0.157509 0.880188 0.571017
C71_9 C 0.14555(8) 0.79973(7) 0.59341(9)
H38_9 H 0.142463 0.779673 0.598957
C72_9 C 0.18378(7) 0.84471(7) 0.53075(7)
C73_9 C 0.22586(7) 0.83602(7) 0.49730(6)
C74_9 C 0.13389(7) 0.82328(7) 0.61105(7)
C75_9 C 0.16191(8) 0.80687(8) 0.56730(8)
H39_9 H 0.169971 0.791384 0.555564
C76_9 C 0.16635(7) 0.83705(7) 0.55856(7)
C77_9 C 0.25325(6) 0.81786(7) 0.48975(7)
C78_9 C 0.17517(9) 0.86878(10) 0.51246(9)
H40_9 H 0.158039 0.879872 0.517543
C79_9 C 0.21729(9) 0.86017(9) 0.47908(8)
H41_9 H 0.228508 0.865260 0.462028
C80_9 C 0.19138(10) 0.87669(10) 0.48692(9)
H42_9 H 0.185145 0.892873 0.475011
C81_9 C 0.14767(7) 0.89691(7) 0.63869(7)
C82_9 C 0.22744(7) 0.92115(6) 0.70940(7)
H43_9 H 0.215426 0.937232 0.715687
C83_9 C 0.17352(7) 0.88992(7) 0.65461(7)
H44_9 H 0.178983 0.869812 0.657509
C84_9 C 0.15659(9) 0.95027(7) 0.64555(8)
H45_9 H 0.151043 0.970327 0.642463
C85_9 C 0.21925(7) 0.90529(7) 0.68378(7)
C86_9 C 0.25270(6) 0.91398(7) 0.72586(7)
C87_9 C 0.13895(7) 0.92672(7) 0.63389(7)
C88_9 C 0.18270(8) 0.94313(8) 0.66191(8)
H46_9 H 0.194436 0.958616 0.669971
C89_9 C 0.19144(7) 0.91295(7) 0.66635(7)
C90_9 C 0.26025(7) 0.93214(7) 0.75325(6)
C91_9 C 0.23754(9) 0.88122(10) 0.67517(9)
H47_9 H 0.232457 0.870128 0.658039
C92_9 C 0.27092(8) 0.88983(9) 0.71729(9)
H48_9 H 0.287972 0.884740 0.728508
C93_9 C 0.26308(9) 0.87331(10) 0.69138(10)
H49_9 H 0.274989 0.857127 0.685145
C94_9 C 0.10233(7) 0.89691(7) 0.61131(7)
C95_9 C 0.02256(7) 0.92115(6) 0.54060(7)
H50_9 H 0.034574 0.937232 0.534313
C96_9 C 0.07648(7) 0.88992(7) 0.59539(7)
H51_9 H 0.071017 0.869812 0.592491
C97_9 C 0.09341(9) 0.95027(7) 0.60445(8)
H52_9 H 0.098957 0.970327 0.607537
C98_9 C 0.03075(7) 0.90529(7) 0.56622(7)
C100_9 C 0.11105(7) 0.92672(7) 0.61611(7)
C101_9 C 0.06730(8) 0.94313(8) 0.58809(8)
H53_9 H 0.055564 0.958616 0.580029
C102_9 C 0.05856(7) 0.91295(7) 0.58365(7)
C104_9 C 0.01246(9) 0.88122(10) 0.57483(9)
H54_9 H 0.017543 0.870128 0.591961
O28_17 O 0.32449(6) 0.42551(6) 0.32449(6)
O30_7 O 0.32652(4) 0.78307(5) 0.48132(5)
O33_17 O 0.32652(4) 0.48132(5) 0.28307(5)
O34_9 O 0.29570(4) 0.74416(4) 0.49004(4)
O35_11 O 0.00584(4) 0.75996(4) 0.79570(4)
O38_9 O 0.24004(4) 0.70430(4) 0.49416(4)
O39_9 O 0.00996(4) 0.70430(4) 0.75584(4)
O40_9 O 0.25584(4) 0.74004(4) 0.54570(4)
O4_7 O 0.96693(5) 0.48132(5) 0.42348(4)
C20_7 C 0.99730(6) 0.52414(7) 0.41398(7)
C24_7 C 0.98975(7) 0.49675(6) 0.43214(7)
C26_7 C 0.97908(8) 0.53271(9) 0.38983(9)
H13_7 H 0.962028 0.521492 0.384740
C27_7 C 0.98692(9) 0.55862(10) 0.37331(10)
H14_7 H 0.975011 0.564855 0.357127
O8_7 O 0.98132(5) 0.78307(5) 0.32652(4)
C50_7 C 0.99675(6) 0.76025(7) 0.31786(7)
Zn4_9 Zn 0.95153(2) 0.79847(2) 0.79847(2)
O10_9 O 0.98132(5) 0.82652(4) 0.78307(5)
O11_9 O 0.99004(4) 0.79570(4) 0.74416(4)
O12_9 O 0.92551(6) 0.82449(6) 0.82449(6)
C64_9 C 0.99675(6) 0.81786(7) 0.76025(7)
O17_7 O 0.96693(5) 0.92348(4) 0.48132(5)
C99_9 C 0.99730(6) 0.91398(7) 0.52414(7)
C103_9 C 0.98975(7) 0.93214(7) 0.49675(6)
C105_9 C 0.97908(8) 0.88983(9) 0.53271(9)
H55_9 H 0.962028 0.884740 0.521492
C106_9 C 0.98692(9) 0.87331(10) 0.55862(10)
H56_9 H 0.975011 0.857127 0.564855
Zn5_7 Zn 0.95153(2) 0.45153(2) 0.45153(2)
O19_7 O 0.92348(4) 0.46693(5) 0.48132(5)
O20_7 O 0.95430(4) 0.50584(4) 0.49004(4)
O21_7 O 0.92551(6) 0.42551(6) 0.42551(6)
C107_9 C 0.875000 0.625000 0.625000
C108_9 C 0.89691(7) 0.60233(7) 0.61131(7)
C109_9 C 0.92115(6) 0.52256(7) 0.54060(7)
H57_9 H 0.937232 0.534574 0.534313
C110_9 C 0.88992(7) 0.57648(7) 0.59539(7)
H58_9 H 0.869812 0.571017 0.592491
C111_9 C 0.95027(7) 0.59341(9) 0.60445(8)
H59_9 H 0.970327 0.598957 0.607537
C112_9 C 0.90529(7) 0.53075(7) 0.56622(7)
C113_9 C 0.91398(7) 0.49730(6) 0.52414(7)
C114_9 C 0.92672(7) 0.61105(7) 0.61611(7)
C115_9 C 0.94313(8) 0.56730(8) 0.58809(8)
H60_9 H 0.958616 0.555564 0.580029
C116_9 C 0.91295(7) 0.55856(7) 0.58365(7)
C117_9 C 0.93214(7) 0.48975(7) 0.49675(6)
C118_9 C 0.88122(10) 0.51246(9) 0.57483(9)
H61_9 H 0.870128 0.517543 0.591961
C119_9 C 0.88983(9) 0.47908(8) 0.53271(9)
H62_9 H 0.884740 0.462028 0.521492
C120_9 C 0.87331(10) 0.48692(9) 0.55862(10)
H63_9 H 0.857127 0.475011 0.564855
O22_9 O 0.92348(4) 0.78307(5) 0.76868(5)
O23_9 O 0.95430(4) 0.74416(4) 0.75996(4)
C121_9 C 0.89691(7) 0.64767(7) 0.63869(7)
C122_9 C 0.92115(6) 0.72744(7) 0.70940(7)
H64_9 H 0.937232 0.715426 0.715687
C123_9 C 0.88992(7) 0.67352(7) 0.65461(7)
H65_9 H 0.869812 0.678983 0.657509
C124_9 C 0.95027(7) 0.65659(9) 0.64555(8)
H66_9 H 0.970327 0.651043 0.642463
C125_9 C 0.90529(7) 0.71925(7) 0.68378(7)
C126_9 C 0.91398(7) 0.75270(6) 0.72586(7)
C127_9 C 0.92672(7) 0.63895(7) 0.63389(7)
C128_9 C 0.94313(8) 0.68270(8) 0.66191(8)
H67_9 H 0.958616 0.694436 0.669971
C129_9 C 0.91295(7) 0.69144(7) 0.66635(7)
C130_9 C 0.93214(7) 0.76025(7) 0.75325(6)
C131_9 C 0.88122(10) 0.73754(9) 0.67517(9)
H68_9 H 0.870128 0.732457 0.658039
C132_9 C 0.88983(9) 0.77092(8) 0.71729(9)
H69_9 H 0.884740 0.787972 0.728508
C133_9 C 0.87331(10) 0.76308(9) 0.69138(10)
H70_9 H 0.857127 0.774989 0.685145
O24_9 O 0.82652(4) 0.48132(5) 0.78307(5)
O25_7 O 0.79570(4) 0.49004(4) 0.74416(4)
C134_9 C 0.85309(7) 0.61131(7) 0.64767(7)
C135_9 C 0.82885(6) 0.54060(7) 0.72744(7)
H71_9 H 0.812768 0.534313 0.715426
C136_9 C 0.86008(7) 0.59539(7) 0.67352(7)
H72_9 H 0.880188 0.592491 0.678983
C137_9 C 0.79973(7) 0.60445(8) 0.65659(9)
H73_9 H 0.779673 0.607537 0.651043
C138_9 C 0.84471(7) 0.56622(7) 0.71925(7)
C139_9 C 0.83602(7) 0.52414(7) 0.75270(6)
C140_9 C 0.82328(7) 0.61611(7) 0.63895(7)
C141_9 C 0.80687(8) 0.58809(8) 0.68270(8)
H74_9 H 0.791384 0.580029 0.694436
C142_9 C 0.83705(7) 0.58365(7) 0.69144(7)
C143_9 C 0.81786(7) 0.49675(6) 0.76025(7)
C144_9 C 0.86878(10) 0.57483(9) 0.73754(9)
H75_9 H 0.879872 0.591961 0.732457
C145_9 C 0.86017(9) 0.53271(9) 0.77092(8)
H76_9 H 0.865260 0.521492 0.787972
C146_9 C 0.87669(10) 0.55862(10) 0.76308(9)
H77_9 H 0.892873 0.564855 0.774989
O26_9 O 0.82652(4) 0.76868(5) 0.46693(5)
O27_7 O 0.79570(4) 0.75996(4) 0.50584(4)
C147_9 C 0.85309(7) 0.63869(7) 0.60233(7)
C148_9 C 0.82885(6) 0.70940(7) 0.52256(7)
H78_9 H 0.812768 0.715687 0.534574
C149_9 C 0.86008(7) 0.65461(7) 0.57648(7)
H79_9 H 0.880188 0.657509 0.571017
C150_9 C 0.79973(7) 0.64555(8) 0.59341(9)
H80_9 H 0.779673 0.642463 0.598957
C151_9 C 0.84471(7) 0.68378(7) 0.53075(7)
C152_9 C 0.83602(7) 0.72586(7) 0.49730(6)
C153_9 C 0.82328(7) 0.63389(7) 0.61105(7)
C154_9 C 0.80687(8) 0.66191(8) 0.56730(8)
H81_9 H 0.791384 0.669971 0.555564
C155_9 C 0.83705(7) 0.66635(7) 0.55856(7)
C156_9 C 0.81786(7) 0.75325(6) 0.48975(7)
C157_9 C 0.86878(10) 0.67517(9) 0.51246(9)
H82_9 H 0.879872 0.658039 0.517543
C158_9 C 0.86017(9) 0.71729(9) 0.47908(8)
H83_9 H 0.865260 0.728508 0.462028
C159_9 C 0.87669(10) 0.69138(10) 0.48692(9)
H84_9 H 0.892873 0.685145 0.475011
O29_7 O 0.98132(5) 0.42348(4) 0.46693(5)
O31_9 O 0.96693(5) 0.76868(5) 0.82652(4)
O41_9 O 0.99416(4) 0.74004(4) 0.70430(4)
O28_18 O 0.92551(6) 0.82449(6) 0.32449(6)
O32_15 O 0.92348(4) 0.76868(5) 0.28307(5)
Zn4_10 Zn 0.29847(2) 0.45153(2) 0.79847(2)
O10_10 O 0.26868(5) 0.42348(4) 0.78307(5)
O11_10 O 0.25996(4) 0.45430(4) 0.74416(4)
O12_10 O 0.32449(6) 0.42551(6) 0.82449(6)
C54_10 C 0.125000 0.375000 0.625000
C55_10 C 0.13869(7) 0.39691(7) 0.64767(7)
C56_10 C 0.20940(7) 0.42115(6) 0.72744(7)
H29_10 H 0.215687 0.437232 0.715426
C57_10 C 0.15461(7) 0.38992(7) 0.67352(7)
H30_10 H 0.157509 0.369812 0.678983
C58_10 C 0.14555(8) 0.45027(7) 0.65659(9)
H31_10 H 0.142463 0.470327 0.651043
C59_10 C 0.18378(7) 0.40529(7) 0.71925(7)
C60_10 C 0.22586(7) 0.41398(7) 0.75270(6)
C61_10 C 0.13389(7) 0.42672(7) 0.63895(7)
C62_10 C 0.16191(8) 0.44313(8) 0.68270(8)
H32_10 H 0.169971 0.458616 0.694436
C63_10 C 0.16635(7) 0.41295(7) 0.69144(7)
C64_10 C 0.25325(6) 0.43214(7) 0.76025(7)
C65_10 C 0.17517(9) 0.38122(10) 0.73754(9)
H33_10 H 0.158039 0.370128 0.732457
C66_10 C 0.21729(9) 0.38983(9) 0.77092(8)
H34_10 H 0.228508 0.384740 0.787972
C67_10 C 0.19138(10) 0.37331(10) 0.76308(9)
H35_10 H 0.185145 0.357127 0.774989
C68_10 C 0.11131(7) 0.39691(7) 0.60233(7)
C69_10 C 0.04060(7) 0.42115(6) 0.52256(7)
H36_10 H 0.034313 0.437232 0.534574
C70_10 C 0.09539(7) 0.38992(7) 0.57648(7)
H37_10 H 0.092491 0.369812 0.571017
C71_10 C 0.10445(8) 0.45027(7) 0.59341(9)
H38_10 H 0.107537 0.470327 0.598957
C72_10 C 0.06622(7) 0.40529(7) 0.53075(7)
C73_10 C 0.02414(7) 0.41398(7) 0.49730(6)
C74_10 C 0.11611(7) 0.42672(7) 0.61105(7)
C75_10 C 0.08809(8) 0.44313(8) 0.56730(8)
H39_10 H 0.080029 0.458616 0.555564
C76_10 C 0.08365(7) 0.41295(7) 0.55856(7)
C78_10 C 0.07483(9) 0.38122(10) 0.51246(9)
H40_10 H 0.091961 0.370128 0.517543
C79_10 C 0.03271(9) 0.38983(9) 0.47908(8)
H41_10 H 0.021492 0.384740 0.462028
C80_10 C 0.05862(10) 0.37331(10) 0.48692(9)
H42_10 H 0.064855 0.357127 0.475011
C81_10 C 0.10233(7) 0.35309(7) 0.63869(7)
C82_10 C 0.02256(7) 0.32885(6) 0.70940(7)
H43_10 H 0.034574 0.312768 0.715687
C83_10 C 0.07648(7) 0.36008(7) 0.65461(7)
H44_10 H 0.071017 0.380188 0.657509
C84_10 C 0.09341(9) 0.29973(7) 0.64555(8)
H45_10 H 0.098957 0.279673 0.642463
C85_10 C 0.03075(7) 0.34471(7) 0.68378(7)
C87_10 C 0.11105(7) 0.32328(7) 0.63389(7)
C88_10 C 0.06730(8) 0.30687(8) 0.66191(8)
H46_10 H 0.055564 0.291384 0.669971
C89_10 C 0.05856(7) 0.33705(7) 0.66635(7)
C91_10 C 0.01246(9) 0.36878(10) 0.67517(9)
H47_10 H 0.017543 0.379872 0.658039
C94_10 C 0.14767(7) 0.35309(7) 0.61131(7)
C95_10 C 0.22744(7) 0.32885(6) 0.54060(7)
H50_10 H 0.215426 0.312768 0.534313
C96_10 C 0.17352(7) 0.36008(7) 0.59539(7)
H51_10 H 0.178983 0.380188 0.592491
C97_10 C 0.15659(9) 0.29973(7) 0.60445(8)
H52_10 H 0.151043 0.279673 0.607537
C98_10 C 0.21925(7) 0.34471(7) 0.56622(7)
C99_10 C 0.25270(6) 0.33602(7) 0.52414(7)
C100_10 C 0.13895(7) 0.32328(7) 0.61611(7)
C101_10 C 0.18270(8) 0.30687(8) 0.58809(8)
H53_10 H 0.194436 0.291384 0.580029
C102_10 C 0.19144(7) 0.33705(7) 0.58365(7)
C103_10 C 0.26025(7) 0.31786(7) 0.49675(6)
C104_10 C 0.23754(9) 0.36878(10) 0.57483(9)
H54_10 H 0.232457 0.379872 0.591961
C105_10 C 0.27092(8) 0.36017(9) 0.53271(9)
H55_10 H 0.287972 0.365260 0.521492
C106_10 C 0.26308(9) 0.37669(10) 0.55862(10)
H56_10 H 0.274989 0.392873 0.564855
C107_10 C 0.375000 0.625000 0.625000
C108_10 C 0.35309(7) 0.64767(7) 0.61131(7)
C109_10 C 0.32885(6) 0.72744(7) 0.54060(7)
H57_10 H 0.312768 0.715426 0.534313
C110_10 C 0.36008(7) 0.67352(7) 0.59539(7)
H58_10 H 0.380188 0.678983 0.592491
C111_10 C 0.29973(7) 0.65659(9) 0.60445(8)
H59_10 H 0.279673 0.651043 0.607537
C112_10 C 0.34471(7) 0.71925(7) 0.56622(7)
C113_10 C 0.33602(7) 0.75270(6) 0.52414(7)
C114_10 C 0.32328(7) 0.63895(7) 0.61611(7)
C115_10 C 0.30687(8) 0.68270(8) 0.58809(8)
H60_10 H 0.291384 0.694436 0.580029
C116_10 C 0.33705(7) 0.69144(7) 0.58365(7)
C117_10 C 0.31786(7) 0.76025(7) 0.49675(6)
C118_10 C 0.36878(10) 0.73754(9) 0.57483(9)
H61_10 H 0.379872 0.732457 0.591961
C119_10 C 0.36017(9) 0.77092(8) 0.53271(9)
H62_10 H 0.365260 0.787972 0.521492
C120_10 C 0.37669(10) 0.76308(9) 0.55862(10)
H63_10 H 0.392873 0.774989 0.564855
O22_10 O 0.32652(4) 0.46693(5) 0.76868(5)
O23_10 O 0.29570(4) 0.50584(4) 0.75996(4)
C121_10 C 0.35309(7) 0.60233(7) 0.63869(7)
C122_10 C 0.32885(6) 0.52256(7) 0.70940(7)
H64_10 H 0.312768 0.534574 0.715687
C123_10 C 0.36008(7) 0.57648(7) 0.65461(7)
H65_10 H 0.380188 0.571017 0.657509
C124_10 C 0.29973(7) 0.59341(9) 0.64555(8)
H66_10 H 0.279673 0.598957 0.642463
C125_10 C 0.34471(7) 0.53075(7) 0.68378(7)
C126_10 C 0.33602(7) 0.49730(6) 0.72586(7)
C127_10 C 0.32328(7) 0.61105(7) 0.63389(7)
C128_10 C 0.30687(8) 0.56730(8) 0.66191(8)
H67_10 H 0.291384 0.555564 0.669971
C129_10 C 0.33705(7) 0.55856(7) 0.66635(7)
C130_10 C 0.31786(7) 0.48975(7) 0.75325(6)
C131_10 C 0.36878(10) 0.51246(9) 0.67517(9)
H68_10 H 0.379872 0.517543 0.658039
C132_10 C 0.36017(9) 0.47908(8) 0.71729(9)
H69_10 H 0.365260 0.462028 0.728508
C133_10 C 0.37669(10) 0.48692(9) 0.69138(10)
H70_10 H 0.392873 0.475011 0.685145
O24_10 O 0.42348(4) 0.76868(5) 0.78307(5)
O25_8 O 0.45430(4) 0.75996(4) 0.74416(4)
C134_10 C 0.39691(7) 0.63869(7) 0.64767(7)
C135_10 C 0.42115(6) 0.70940(7) 0.72744(7)
H71_10 H 0.437232 0.715687 0.715426
C136_10 C 0.38992(7) 0.65461(7) 0.67352(7)
H72_10 H 0.369812 0.657509 0.678983
C137_10 C 0.45027(7) 0.64555(8) 0.65659(9)
H73_10 H 0.470327 0.642463 0.651043
C138_10 C 0.40529(7) 0.68378(7) 0.71925(7)
C139_10 C 0.41398(7) 0.72586(7) 0.75270(6)
C140_10 C 0.42672(7) 0.63389(7) 0.63895(7)
C141_10 C 0.44313(8) 0.66191(8) 0.68270(8)
H74_10 H 0.458616 0.669971 0.694436
C142_10 C 0.41295(7) 0.66635(7) 0.69144(7)
C143_10 C 0.43214(7) 0.75325(6) 0.76025(7)
C144_10 C 0.38122(10) 0.67517(9) 0.73754(9)
H75_10 H 0.370128 0.658039 0.732457
C145_10 C 0.38983(9) 0.71729(9) 0.77092(8)
H76_10 H 0.384740 0.728508 0.787972
C146_10 C 0.37331(10) 0.69138(10) 0.76308(9)
H77_10 H 0.357127 0.685145 0.774989
O26_10 O 0.42348(4) 0.48132(5) 0.46693(5)
O27_8 O 0.45430(4) 0.49004(4) 0.50584(4)
C147_10 C 0.39691(7) 0.61131(7) 0.60233(7)
C148_10 C 0.42115(6) 0.54060(7) 0.52256(7)
H78_10 H 0.437232 0.534313 0.534574
C149_10 C 0.38992(7) 0.59539(7) 0.57648(7)
H79_10 H 0.369812 0.592491 0.571017
C150_10 C 0.45027(7) 0.60445(8) 0.59341(9)
H80_10 H 0.470327 0.607537 0.598957
C151_10 C 0.40529(7) 0.56622(7) 0.53075(7)
C152_10 C 0.41398(7) 0.52414(7) 0.49730(6)
C153_10 C 0.42672(7) 0.61611(7) 0.61105(7)
C154_10 C 0.44313(8) 0.58809(8) 0.56730(8)
H81_10 H 0.458616 0.580029 0.555564
C155_10 C 0.41295(7) 0.58365(7) 0.55856(7)
C156_10 C 0.43214(7) 0.49675(6) 0.48975(7)
C157_10 C 0.38122(10) 0.57483(9) 0.51246(9)
H82_10 H 0.370128 0.591961 0.517543
C158_10 C 0.38983(9) 0.53271(9) 0.47908(8)
H83_10 H 0.384740 0.521492 0.462028
C159_10 C 0.37331(10) 0.55862(10) 0.48692(9)
H84_10 H 0.357127 0.564855 0.475011
O31_10 O 0.28307(5) 0.48132(5) 0.82652(4)
O35_12 O 0.24416(4) 0.49004(4) 0.79570(4)
O38_10 O 0.00996(4) 0.54570(4) 0.49416(4)
O39_10 O 0.24004(4) 0.54570(4) 0.75584(4)
O41_10 O 0.25584(4) 0.50996(4) 0.70430(4)
O14_10 O 0.99004(4) 0.45430(4) 0.50584(4)
C77_10 C 0.99675(6) 0.43214(7) 0.48975(7)
O15_9 O 0.96693(5) 0.32652(4) 0.76868(5)
C86_10 C 0.99730(6) 0.33602(7) 0.72586(7)
C90_10 C 0.98975(7) 0.31786(7) 0.75325(6)
C92_10 C 0.97908(8) 0.36017(9) 0.71729(9)
H48_10 H 0.962028 0.365260 0.728508
C93_10 C 0.98692(9) 0.37669(10) 0.69138(10)
H49_10 H 0.975011 0.392873 0.685145
O40_10 O 0.99416(4) 0.50996(4) 0.54570(4)
O28_19 O 0.92551(6) 0.42551(6) 0.92551(6)
O32_16 O 0.92348(4) 0.48132(5) 0.96693(5)
O33_18 O 0.98132(5) 0.46693(5) 0.92348(4)
C1_8 C 0.125000 0.625000 0.875000
C2_8 C 0.10233(7) 0.63869(7) 0.85309(7)
C3_8 C 0.02256(7) 0.70940(7) 0.82885(6)
H1_8 H 0.034574 0.715687 0.812768
C4_8 C 0.07648(7) 0.65461(7) 0.86008(7)
H2_8 H 0.071017 0.657509 0.880188
C5_8 C 0.09341(9) 0.64555(8) 0.79973(7)
H3_8 H 0.098957 0.642463 0.779673
C6_8 C 0.03075(7) 0.68378(7) 0.84471(7)
C8_8 C 0.11105(7) 0.63389(7) 0.82328(7)
C9_8 C 0.06730(8) 0.66191(8) 0.80687(8)
H4_8 H 0.055564 0.669971 0.791384
C10_8 C 0.05856(7) 0.66635(7) 0.83705(7)
C12_8 C 0.01246(9) 0.67517(9) 0.86878(10)
H5_8 H 0.017543 0.658039 0.879872
C15_8 C 0.14767(7) 0.61131(7) 0.85309(7)
C16_8 C 0.22744(7) 0.54060(7) 0.82885(6)
H8_8 H 0.215426 0.534313 0.812768
C17_8 C 0.17352(7) 0.59539(7) 0.86008(7)
H9_8 H 0.178983 0.592491 0.880188
C18_8 C 0.15659(9) 0.60445(8) 0.79973(7)
H10_8 H 0.151043 0.607537 0.779673
C19_8 C 0.21925(7) 0.56622(7) 0.84471(7)
C20_8 C 0.25270(6) 0.52414(7) 0.83602(7)
C21_8 C 0.13895(7) 0.61611(7) 0.82328(7)
C22_8 C 0.18270(8) 0.58809(8) 0.80687(8)
H11_8 H 0.194436 0.580029 0.791384
C23_8 C 0.19144(7) 0.58365(7) 0.83705(7)
C24_8 C 0.26025(7) 0.49675(6) 0.81786(7)
C25_8 C 0.23754(9) 0.57483(9) 0.86878(10)
H12_8 H 0.232457 0.591961 0.879872
C26_8 C 0.27092(8) 0.53271(9) 0.86017(9)
H13_8 H 0.287972 0.521492 0.865260
C27_8 C 0.26308(9) 0.55862(10) 0.87669(10)
H14_8 H 0.274989 0.564855 0.892873
C28_8 C 0.11131(7) 0.60233(7) 0.89691(7)
C29_8 C 0.04060(7) 0.52256(7) 0.92115(6)
H15_8 H 0.034313 0.534574 0.937232
C30_8 C 0.09539(7) 0.57648(7) 0.88992(7)
H16_8 H 0.092491 0.571017 0.869812
C31_8 C 0.10445(8) 0.59341(9) 0.95027(7)
H17_8 H 0.107537 0.598957 0.970327
C32_8 C 0.06622(7) 0.53075(7) 0.90529(7)
C33_8 C 0.02414(7) 0.49730(6) 0.91398(7)
C34_8 C 0.11611(7) 0.61105(7) 0.92672(7)
C35_8 C 0.08809(8) 0.56730(8) 0.94313(8)
H18_8 H 0.080029 0.555564 0.958616
C36_8 C 0.08365(7) 0.55856(7) 0.91295(7)
C38_8 C 0.07483(9) 0.51246(9) 0.88122(10)
H19_8 H 0.091961 0.517543 0.870128
C39_8 C 0.03271(9) 0.47908(8) 0.88983(9)
H20_8 H 0.021492 0.462028 0.884740
C40_8 C 0.05862(10) 0.48692(9) 0.87331(10)
H21_8 H 0.064855 0.475011 0.857127
O8_8 O 0.26868(5) 0.78307(5) 0.92348(4)
C41_8 C 0.13869(7) 0.64767(7) 0.89691(7)
C42_8 C 0.20940(7) 0.72744(7) 0.92115(6)
H22_8 H 0.215687 0.715426 0.937232
C43_8 C 0.15461(7) 0.67352(7) 0.88992(7)
H23_8 H 0.157509 0.678983 0.869812
C44_8 C 0.14555(8) 0.65659(9) 0.95027(7)
H24_8 H 0.142463 0.651043 0.970327
C45_8 C 0.18378(7) 0.71925(7) 0.90529(7)
C46_8 C 0.22586(7) 0.75270(6) 0.91398(7)
C47_8 C 0.13389(7) 0.63895(7) 0.92672(7)
C48_8 C 0.16191(8) 0.68270(8) 0.94313(8)
H25_8 H 0.169971 0.694436 0.958616
C49_8 C 0.16635(7) 0.69144(7) 0.91295(7)
C50_8 C 0.25325(6) 0.76025(7) 0.93214(7)
C51_8 C 0.17517(9) 0.73754(9) 0.88122(10)
H26_8 H 0.158039 0.732457 0.870128
C52_8 C 0.21729(9) 0.77092(8) 0.88983(9)
H27_8 H 0.228508 0.787972 0.884740
C53_8 C 0.19138(10) 0.76308(9) 0.87331(10)
H28_8 H 0.185145 0.774989 0.857127
C7_8 C 0.99730(6) 0.72586(7) 0.83602(7)
C11_8 C 0.98975(7) 0.75325(6) 0.81786(7)
C13_8 C 0.97908(8) 0.71729(9) 0.86017(9)
H6_8 H 0.962028 0.728508 0.865260
C14_8 C 0.98692(9) 0.69138(10) 0.87669(10)
H7_8 H 0.975011 0.685145 0.892873
C37_8 C 0.99675(6) 0.48975(7) 0.93214(7)
C54_11 C 0.875000 0.125000 0.125000
C55_11 C 0.89691(7) 0.10233(7) 0.11131(7)
C56_11 C 0.92115(6) 0.02256(7) 0.04060(7)
H29_11 H 0.937232 0.034574 0.034313
C57_11 C 0.88992(7) 0.07648(7) 0.09539(7)
H30_11 H 0.869812 0.071017 0.092491
C58_11 C 0.95027(7) 0.09341(9) 0.10445(8)
H31_11 H 0.970327 0.098957 0.107537
C59_11 C 0.90529(7) 0.03075(7) 0.06622(7)
C61_11 C 0.92672(7) 0.11105(7) 0.11611(7)
C62_11 C 0.94313(8) 0.06730(8) 0.08809(8)
H32_11 H 0.958616 0.055564 0.080029
C63_11 C 0.91295(7) 0.05856(7) 0.08365(7)
C65_11 C 0.88122(10) 0.01246(9) 0.07483(9)
H33_11 H 0.870128 0.017543 0.091961
C68_11 C 0.89691(7) 0.14767(7) 0.13869(7)
C69_11 C 0.92115(6) 0.22744(7) 0.20940(7)
H36_11 H 0.937232 0.215426 0.215687
C70_11 C 0.88992(7) 0.17352(7) 0.15461(7)
H37_11 H 0.869812 0.178983 0.157509
C71_11 C 0.95027(7) 0.15659(9) 0.14555(8)
H38_11 H 0.970327 0.151043 0.142463
C72_11 C 0.90529(7) 0.21925(7) 0.18378(7)
C73_11 C 0.91398(7) 0.25270(6) 0.22586(7)
C74_11 C 0.92672(7) 0.13895(7) 0.13389(7)
C75_11 C 0.94313(8) 0.18270(8) 0.16191(8)
H39_11 H 0.958616 0.194436 0.169971
C76_11 C 0.91295(7) 0.19144(7) 0.16635(7)
C77_11 C 0.93214(7) 0.26025(7) 0.25325(6)
C78_11 C 0.88122(10) 0.23754(9) 0.17517(9)
H40_11 H 0.870128 0.232457 0.158039
C79_11 C 0.88983(9) 0.27092(8) 0.21729(9)
H41_11 H 0.884740 0.287972 0.228508
C80_11 C 0.87331(10) 0.26308(9) 0.19138(10)
H42_11 H 0.857127 0.274989 0.185145
C81_11 C 0.85309(7) 0.11131(7) 0.14767(7)
C82_11 C 0.82885(6) 0.04060(7) 0.22744(7)
H43_11 H 0.812768 0.034313 0.215426
C83_11 C 0.86008(7) 0.09539(7) 0.17352(7)
H44_11 H 0.880188 0.092491 0.178983
C84_11 C 0.79973(7) 0.10445(8) 0.15659(9)
H45_11 H 0.779673 0.107537 0.151043
C85_11 C 0.84471(7) 0.06622(7) 0.21925(7)
C86_11 C 0.83602(7) 0.02414(7) 0.25270(6)
C87_11 C 0.82328(7) 0.11611(7) 0.13895(7)
C88_11 C 0.80687(8) 0.08809(8) 0.18270(8)
H46_11 H 0.791384 0.080029 0.194436
C89_11 C 0.83705(7) 0.08365(7) 0.19144(7)
C91_11 C 0.86878(10) 0.07483(9) 0.23754(9)
H47_11 H 0.879872 0.091961 0.232457
C92_11 C 0.86017(9) 0.03271(9) 0.27092(8)
H48_11 H 0.865260 0.021492 0.287972
C93_11 C 0.87669(10) 0.05862(10) 0.26308(9)
H49_11 H 0.892873 0.064855 0.274989
C94_11 C 0.85309(7) 0.13869(7) 0.10233(7)
C95_11 C 0.82885(6) 0.20940(7) 0.02256(7)
H50_11 H 0.812768 0.215687 0.034574
C96_11 C 0.86008(7) 0.15461(7) 0.07648(7)
H51_11 H 0.880188 0.157509 0.071017
C97_11 C 0.79973(7) 0.14555(8) 0.09341(9)
H52_11 H 0.779673 0.142463 0.098957
C98_11 C 0.84471(7) 0.18378(7) 0.03075(7)
C100_11 C 0.82328(7) 0.13389(7) 0.11105(7)
C101_11 C 0.80687(8) 0.16191(8) 0.06730(8)
H53_11 H 0.791384 0.169971 0.055564
C102_11 C 0.83705(7) 0.16635(7) 0.05856(7)
C104_11 C 0.86878(10) 0.17517(9) 0.01246(9)
H54_11 H 0.879872 0.158039 0.017543
O17_8 O 0.82652(4) 0.26868(5) 0.96693(5)
C99_11 C 0.83602(7) 0.22586(7) 0.99730(6)
C103_11 C 0.81786(7) 0.25325(6) 0.98975(7)
C105_11 C 0.86017(9) 0.21729(9) 0.97908(8)
H55_11 H 0.865260 0.228508 0.962028
C106_11 C 0.87669(10) 0.19138(10) 0.98692(9)
H56_11 H 0.892873 0.185145 0.975011
C60_11 C 0.91398(7) 0.99730(6) 0.02414(7)
C66_11 C 0.88983(9) 0.97908(8) 0.03271(9)
H34_11 H 0.884740 0.962028 0.021492
C67_11 C 0.87331(10) 0.98692(9) 0.05862(10)
H35_11 H 0.857127 0.975011 0.064855
O15_10 O 0.82652(4) 0.98132(5) 0.28307(5)
C90_11 C 0.81786(7) 0.99675(6) 0.26025(7)
C64_11 C 0.93214(7) 0.98975(7) 0.99675(6)
O28_20 O 0.82449(6) 0.82449(6) 0.42551(6)
O33_19 O 0.76868(5) 0.78307(5) 0.42348(4)
C24_9 C 0.01025(7) 0.56786(7) 0.00325(6)
C20_9 C 0.00270(6) 0.58602(7) 0.97586(7)
C26_9 C 0.02092(8) 0.61017(9) 0.96729(9)
H13_9 H 0.037972 0.615260 0.978508
C27_9 C 0.01308(9) 0.62669(10) 0.94138(10)
H14_9 H 0.024989 0.642873 0.935145
C50_9 C 0.00325(6) 0.68214(7) 0.73975(7)
C64_12 C 0.00325(6) 0.23975(7) 0.68214(7)
C99_12 C 0.00270(6) 0.47586(7) 0.58602(7)
C103_12 C 0.01025(7) 0.50325(6) 0.56786(7)
C105_12 C 0.02092(8) 0.46729(9) 0.61017(9)
H55_12 H 0.037972 0.478508 0.615260
C106_12 C 0.01308(9) 0.44138(10) 0.62669(10)
H56_12 H 0.024989 0.435145 0.642873
C33_9 C 0.77414(7) 0.66398(7) 0.00270(6)
C37_9 C 0.74675(6) 0.68214(7) 0.01025(7)
C39_9 C 0.78271(9) 0.63983(9) 0.02092(8)
H20_9 H 0.771492 0.634740 0.037972
C40_9 C 0.80862(10) 0.62331(10) 0.01308(9)
H21_9 H 0.814855 0.607127 0.024989
Zn2_8 Zn 0.70153(2) 0.54847(2) 0.70153(2)
O1_8 O 0.71693(5) 0.57652(4) 0.73132(5)
O2_8 O 0.75584(4) 0.54570(4) 0.74004(4)
O3_8 O 0.67551(6) 0.57449(6) 0.67551(6)
C1_9 C 0.875000 0.625000 0.875000
C2_9 C 0.85233(7) 0.60309(7) 0.86131(7)
C3_9 C 0.77256(7) 0.57885(6) 0.79060(7)
H1_9 H 0.784574 0.562768 0.784313
C4_9 C 0.82648(7) 0.61008(7) 0.84539(7)
H2_9 H 0.821017 0.630188 0.842491
C5_9 C 0.84341(9) 0.54973(7) 0.85445(8)
H3_9 H 0.848957 0.529673 0.857537
C6_9 C 0.78075(7) 0.59471(7) 0.81622(7)
C7_9 C 0.74730(6) 0.58602(7) 0.77414(7)
C8_9 C 0.86105(7) 0.57328(7) 0.86611(7)
C9_9 C 0.81730(8) 0.55687(8) 0.83809(8)
H4_9 H 0.805564 0.541384 0.830029
C10_9 C 0.80856(7) 0.58705(7) 0.83365(7)
C11_9 C 0.73975(7) 0.56786(7) 0.74675(6)
C12_9 C 0.76246(9) 0.61878(10) 0.82483(9)
H5_9 H 0.767543 0.629872 0.841961
C13_9 C 0.72908(8) 0.61017(9) 0.78271(9)
H6_9 H 0.712028 0.615260 0.771492
C14_9 C 0.73692(9) 0.62669(10) 0.80862(10)
H7_9 H 0.725011 0.642873 0.814855
C15_9 C 0.89767(7) 0.60309(7) 0.88869(7)
C16_9 C 0.97744(7) 0.57885(6) 0.95940(7)
H8_9 H 0.965426 0.562768 0.965687
C17_9 C 0.92352(7) 0.61008(7) 0.90461(7)
H9_9 H 0.928983 0.630188 0.907509
C18_9 C 0.90659(9) 0.54973(7) 0.89555(8)
H10_9 H 0.901043 0.529673 0.892463
C19_9 C 0.96925(7) 0.59471(7) 0.93378(7)
C21_9 C 0.88895(7) 0.57328(7) 0.88389(7)
C22_9 C 0.93270(8) 0.55687(8) 0.91191(8)
H11_9 H 0.944436 0.541384 0.919971
C23_9 C 0.94144(7) 0.58705(7) 0.91635(7)
C25_9 C 0.98754(9) 0.61878(10) 0.92517(9)
H12_9 H 0.982457 0.629872 0.908039
O7_5 O 0.74004(4) 0.70430(4) 0.99416(4)
C28_9 C 0.86131(7) 0.64691(7) 0.89767(7)
C29_9 C 0.79060(7) 0.67115(6) 0.97744(7)
H15_9 H 0.784313 0.687232 0.965426
C30_9 C 0.84539(7) 0.63992(7) 0.92352(7)
H16_9 H 0.842491 0.619812 0.928983
C31_9 C 0.85445(8) 0.70027(7) 0.90659(9)
H17_9 H 0.857537 0.720327 0.901043
C32_9 C 0.81622(7) 0.65529(7) 0.96925(7)
C34_9 C 0.86611(7) 0.67672(7) 0.88895(7)
C35_9 C 0.83809(8) 0.69313(8) 0.93270(8)
H18_9 H 0.830029 0.708616 0.944436
C36_9 C 0.83365(7) 0.66295(7) 0.94144(7)
C38_9 C 0.82483(9) 0.63122(10) 0.98754(9)
H19_9 H 0.841961 0.620128 0.982457
C41_9 C 0.88869(7) 0.64691(7) 0.85233(7)
C42_9 C 0.95940(7) 0.67115(6) 0.77256(7)
H22_9 H 0.965687 0.687232 0.784574
C43_9 C 0.90461(7) 0.63992(7) 0.82648(7)
H23_9 H 0.907509 0.619812 0.821017
C44_9 C 0.89555(8) 0.70027(7) 0.84341(9)
H24_9 H 0.892463 0.720327 0.848957
C45_9 C 0.93378(7) 0.65529(7) 0.78075(7)
C46_9 C 0.97586(7) 0.66398(7) 0.74730(6)
C47_9 C 0.88389(7) 0.67672(7) 0.86105(7)
C48_9 C 0.91191(8) 0.69313(8) 0.81730(8)
H25_9 H 0.919971 0.708616 0.805564
C49_9 C 0.91635(7) 0.66295(7) 0.80856(7)
C51_9 C 0.92517(9) 0.63122(10) 0.76246(9)
H26_9 H 0.908039 0.620128 0.767543
C52_9 C 0.96729(9) 0.63983(9) 0.72908(8)
H27_9 H 0.978508 0.634740 0.712028
C53_9 C 0.94138(10) 0.62331(10) 0.73692(9)
H28_9 H 0.935145 0.607127 0.725011
C54_12 C 0.875000 0.375000 0.625000
C55_12 C 0.88869(7) 0.35233(7) 0.64691(7)
C56_12 C 0.95940(7) 0.27256(7) 0.67115(6)
H29_12 H 0.965687 0.284574 0.687232
C57_12 C 0.90461(7) 0.32648(7) 0.63992(7)
H30_12 H 0.907509 0.321017 0.619812
C58_12 C 0.89555(8) 0.34341(9) 0.70027(7)
H31_12 H 0.892463 0.348957 0.720327
C59_12 C 0.93378(7) 0.28075(7) 0.65529(7)
C60_12 C 0.97586(7) 0.24730(6) 0.66398(7)
C61_12 C 0.88389(7) 0.36105(7) 0.67672(7)
C62_12 C 0.91191(8) 0.31730(8) 0.69313(8)
H32_12 H 0.919971 0.305564 0.708616
C63_12 C 0.91635(7) 0.30856(7) 0.66295(7)
C65_12 C 0.92517(9) 0.26246(9) 0.63122(10)
H33_12 H 0.908039 0.267543 0.620128
C66_12 C 0.96729(9) 0.22908(8) 0.63983(9)
H34_12 H 0.978508 0.212028 0.634740
C67_12 C 0.94138(10) 0.23692(9) 0.62331(10)
H35_12 H 0.935145 0.225011 0.607127
O13_8 O 0.73132(5) 0.53307(5) 0.67348(4)
O14_11 O 0.74004(4) 0.49416(4) 0.70430(4)
C68_12 C 0.86131(7) 0.39767(7) 0.64691(7)
C69_12 C 0.79060(7) 0.47744(7) 0.67115(6)
H36_12 H 0.784313 0.465426 0.687232
C70_12 C 0.84539(7) 0.42352(7) 0.63992(7)
H37_12 H 0.842491 0.428983 0.619812
C71_12 C 0.85445(8) 0.40659(9) 0.70027(7)
H38_12 H 0.857537 0.401043 0.720327
C72_12 C 0.81622(7) 0.46925(7) 0.65529(7)
C73_12 C 0.77414(7) 0.50270(6) 0.66398(7)
C74_12 C 0.86611(7) 0.38895(7) 0.67672(7)
C75_12 C 0.83809(8) 0.43270(8) 0.69313(8)
H39_12 H 0.830029 0.444436 0.708616
C76_12 C 0.83365(7) 0.44144(7) 0.66295(7)
C77_12 C 0.74675(6) 0.51025(7) 0.68214(7)
C78_12 C 0.82483(9) 0.48754(9) 0.63122(10)
H40_12 H 0.841961 0.482457 0.620128
C79_12 C 0.78271(9) 0.52092(8) 0.63983(9)
H41_12 H 0.771492 0.537972 0.634740
C80_12 C 0.80862(10) 0.51308(9) 0.62331(10)
H42_12 H 0.814855 0.524989 0.607127
C81_12 C 0.85233(7) 0.36131(7) 0.60309(7)
C82_12 C 0.77256(7) 0.29060(7) 0.57885(6)
H43_12 H 0.784574 0.284313 0.562768
C83_12 C 0.82648(7) 0.34539(7) 0.61008(7)
H44_12 H 0.821017 0.342491 0.630188
C84_12 C 0.84341(9) 0.35445(8) 0.54973(7)
H45_12 H 0.848957 0.357537 0.529673
C85_12 C 0.78075(7) 0.31622(7) 0.59471(7)
C86_12 C 0.74730(6) 0.27414(7) 0.58602(7)
C87_12 C 0.86105(7) 0.36611(7) 0.57328(7)
C88_12 C 0.81730(8) 0.33809(8) 0.55687(8)
H46_12 H 0.805564 0.330029 0.541384
C89_12 C 0.80856(7) 0.33365(7) 0.58705(7)
C90_12 C 0.73975(7) 0.24675(6) 0.56786(7)
C91_12 C 0.76246(9) 0.32483(9) 0.61878(10)
H47_12 H 0.767543 0.341961 0.629872
C92_12 C 0.72908(8) 0.28271(9) 0.61017(9)
H48_12 H 0.712028 0.271492 0.615260
C93_12 C 0.73692(9) 0.30862(10) 0.62669(10)
H49_12 H 0.725011 0.314855 0.642873
C94_12 C 0.89767(7) 0.38869(7) 0.60309(7)
C95_12 C 0.97744(7) 0.45940(7) 0.57885(6)
H50_12 H 0.965426 0.465687 0.562768
C96_12 C 0.92352(7) 0.40461(7) 0.61008(7)
H51_12 H 0.928983 0.407509 0.630188
C97_12 C 0.90659(9) 0.39555(8) 0.54973(7)
H52_12 H 0.901043 0.392463 0.529673
C98_12 C 0.96925(7) 0.43378(7) 0.59471(7)
C100_12 C 0.88895(7) 0.38389(7) 0.57328(7)
C101_12 C 0.93270(8) 0.41191(8) 0.55687(8)
H53_12 H 0.944436 0.419971 0.541384
C102_12 C 0.94144(7) 0.41635(7) 0.58705(7)
C104_12 C 0.98754(9) 0.42517(9) 0.61878(10)
H54_12 H 0.982457 0.408039 0.629872
O30_8 O 0.67348(4) 0.51868(5) 0.71693(5)
O34_10 O 0.70430(4) 0.50996(4) 0.75584(4)
O38_11 O 0.75996(4) 0.50584(4) 0.79570(4)
C60_13 C 0.27414(7) 0.00270(6) 0.66398(7)
C64_13 C 0.24675(6) 0.01025(7) 0.68214(7)
C66_13 C 0.28271(9) 0.02092(8) 0.63983(9)
H34_13 H 0.271492 0.037972 0.634740
C67_13 C 0.30862(10) 0.01308(9) 0.62331(10)
H35_13 H 0.314855 0.024989 0.607127
C90_13 C 0.51025(7) 0.00325(6) 0.56786(7)
C24_10 C 0.23975(7) 0.68214(7) 0.00325(6)
C33_10 C 0.47586(7) 0.58602(7) 0.00270(6)
C37_10 C 0.50325(6) 0.56786(7) 0.01025(7)
C39_10 C 0.46729(9) 0.61017(9) 0.02092(8)
H20_10 H 0.478508 0.615260 0.037972
C40_10 C 0.44138(10) 0.62669(10) 0.01308(9)
H21_10 H 0.435145 0.642873 0.024989
Zn2_9 Zn 0.54847(2) 0.70153(2) 0.70153(2)
O1_9 O 0.53307(5) 0.67348(4) 0.73132(5)
O2_9 O 0.49416(4) 0.70430(4) 0.74004(4)
O3_9 O 0.57449(6) 0.67551(6) 0.67551(6)
C1_10 C 0.375000 0.625000 0.875000
C2_10 C 0.39767(7) 0.64691(7) 0.86131(7)
C3_10 C 0.47744(7) 0.67115(6) 0.79060(7)
H1_10 H 0.465426 0.687232 0.784313
C4_10 C 0.42352(7) 0.63992(7) 0.84539(7)
H2_10 H 0.428983 0.619812 0.842491
C5_10 C 0.40659(9) 0.70027(7) 0.85445(8)
H3_10 H 0.401043 0.720327 0.857537
C6_10 C 0.46925(7) 0.65529(7) 0.81622(7)
C7_10 C 0.50270(6) 0.66398(7) 0.77414(7)
C8_10 C 0.38895(7) 0.67672(7) 0.86611(7)
C9_10 C 0.43270(8) 0.69313(8) 0.83809(8)
H4_10 H 0.444436 0.708616 0.830029
C10_10 C 0.44144(7) 0.66295(7) 0.83365(7)
C11_10 C 0.51025(7) 0.68214(7) 0.74675(6)
C12_10 C 0.48754(9) 0.63122(10) 0.82483(9)
H5_10 H 0.482457 0.620128 0.841961
C13_10 C 0.52092(8) 0.63983(9) 0.78271(9)
H6_10 H 0.537972 0.634740 0.771492
C14_10 C 0.51308(9) 0.62331(10) 0.80862(10)
H7_10 H 0.524989 0.607127 0.814855
C15_10 C 0.35233(7) 0.64691(7) 0.88869(7)
C16_10 C 0.27256(7) 0.67115(6) 0.95940(7)
H8_10 H 0.284574 0.687232 0.965687
C17_10 C 0.32648(7) 0.63992(7) 0.90461(7)
H9_10 H 0.321017 0.619812 0.907509
C18_10 C 0.34341(9) 0.70027(7) 0.89555(8)
H10_10 H 0.348957 0.720327 0.892463
C19_10 C 0.28075(7) 0.65529(7) 0.93378(7)
C20_10 C 0.24730(6) 0.66398(7) 0.97586(7)
C21_10 C 0.36105(7) 0.67672(7) 0.88389(7)
C22_10 C 0.31730(8) 0.69313(8) 0.91191(8)
H11_10 H 0.305564 0.708616 0.919971
C23_10 C 0.30856(7) 0.66295(7) 0.91635(7)
C25_10 C 0.26246(9) 0.63122(10) 0.92517(9)
H12_10 H 0.267543 0.620128 0.908039
C26_10 C 0.22908(8) 0.63983(9) 0.96729(9)
H13_10 H 0.212028 0.634740 0.978508
C27_10 C 0.23692(9) 0.62331(10) 0.94138(10)
H14_10 H 0.225011 0.607127 0.935145
O7_6 O 0.50996(4) 0.54570(4) 0.99416(4)
C28_10 C 0.38869(7) 0.60309(7) 0.89767(7)
C29_10 C 0.45940(7) 0.57885(6) 0.97744(7)
H15_10 H 0.465687 0.562768 0.965426
C30_10 C 0.40461(7) 0.61008(7) 0.92352(7)
H16_10 H 0.407509 0.630188 0.928983
C31_10 C 0.39555(8) 0.54973(7) 0.90659(9)
H17_10 H 0.392463 0.529673 0.901043
C32_10 C 0.43378(7) 0.59471(7) 0.96925(7)
C34_10 C 0.38389(7) 0.57328(7) 0.88895(7)
C35_10 C 0.41191(8) 0.55687(8) 0.93270(8)
H18_10 H 0.419971 0.541384 0.944436
C36_10 C 0.41635(7) 0.58705(7) 0.94144(7)
C38_10 C 0.42517(9) 0.61878(10) 0.98754(9)
H19_10 H 0.408039 0.629872 0.982457
C41_10 C 0.36131(7) 0.60309(7) 0.85233(7)
C42_10 C 0.29060(7) 0.57885(6) 0.77256(7)
H22_10 H 0.284313 0.562768 0.784574
C43_10 C 0.34539(7) 0.61008(7) 0.82648(7)
H23_10 H 0.342491 0.630188 0.821017
C44_10 C 0.35445(8) 0.54973(7) 0.84341(9)
H24_10 H 0.357537 0.529673 0.848957
C45_10 C 0.31622(7) 0.59471(7) 0.78075(7)
C46_10 C 0.27414(7) 0.58602(7) 0.74730(6)
C47_10 C 0.36611(7) 0.57328(7) 0.86105(7)
C48_10 C 0.33809(8) 0.55687(8) 0.81730(8)
H25_10 H 0.330029 0.541384 0.805564
C49_10 C 0.33365(7) 0.58705(7) 0.80856(7)
C50_10 C 0.24675(6) 0.56786(7) 0.73975(7)
C51_10 C 0.32483(9) 0.61878(10) 0.76246(9)
H26_10 H 0.341961 0.629872 0.767543
C52_10 C 0.28271(9) 0.61017(9) 0.72908(8)
H27_10 H 0.271492 0.615260 0.712028
C53_10 C 0.30862(10) 0.62669(10) 0.73692(9)
H28_10 H 0.314855 0.642873 0.725011
C54_13 C 0.375000 0.875000 0.625000
C55_13 C 0.36131(7) 0.89767(7) 0.64691(7)
C56_13 C 0.29060(7) 0.97744(7) 0.67115(6)
H29_13 H 0.284313 0.965426 0.687232
C57_13 C 0.34539(7) 0.92352(7) 0.63992(7)
H30_13 H 0.342491 0.928983 0.619812
C58_13 C 0.35445(8) 0.90659(9) 0.70027(7)
H31_13 H 0.357537 0.901043 0.720327
C59_13 C 0.31622(7) 0.96925(7) 0.65529(7)
C61_13 C 0.36611(7) 0.88895(7) 0.67672(7)
C62_13 C 0.33809(8) 0.93270(8) 0.69313(8)
H32_13 H 0.330029 0.944436 0.708616
C63_13 C 0.33365(7) 0.94144(7) 0.66295(7)
C65_13 C 0.32483(9) 0.98754(9) 0.63122(10)
H33_13 H 0.341961 0.982457 0.620128
O13_9 O 0.51868(5) 0.71693(5) 0.67348(4)
O14_12 O 0.50996(4) 0.75584(4) 0.70430(4)
C68_13 C 0.38869(7) 0.85233(7) 0.64691(7)
C69_13 C 0.45940(7) 0.77256(7) 0.67115(6)
H36_13 H 0.465687 0.784574 0.687232
C70_13 C 0.40461(7) 0.82648(7) 0.63992(7)
H37_13 H 0.407509 0.821017 0.619812
C71_13 C 0.39555(8) 0.84341(9) 0.70027(7)
H38_13 H 0.392463 0.848957 0.720327
C72_13 C 0.43378(7) 0.78075(7) 0.65529(7)
C73_13 C 0.47586(7) 0.74730(6) 0.66398(7)
C74_13 C 0.38389(7) 0.86105(7) 0.67672(7)
C75_13 C 0.41191(8) 0.81730(8) 0.69313(8)
H39_13 H 0.419971 0.805564 0.708616
C76_13 C 0.41635(7) 0.80856(7) 0.66295(7)
C77_13 C 0.50325(6) 0.73975(7) 0.68214(7)
C78_13 C 0.42517(9) 0.76246(9) 0.63122(10)
H40_13 H 0.408039 0.767543 0.620128
C79_13 C 0.46729(9) 0.72908(8) 0.63983(9)
H41_13 H 0.478508 0.712028 0.634740
C80_13 C 0.44138(10) 0.73692(9) 0.62331(10)
H42_13 H 0.435145 0.725011 0.607127
C81_13 C 0.39767(7) 0.88869(7) 0.60309(7)
C82_13 C 0.47744(7) 0.95940(7) 0.57885(6)
H43_13 H 0.465426 0.965687 0.562768
C83_13 C 0.42352(7) 0.90461(7) 0.61008(7)
H44_13 H 0.428983 0.907509 0.630188
C84_13 C 0.40659(9) 0.89555(8) 0.54973(7)
H45_13 H 0.401043 0.892463 0.529673
C85_13 C 0.46925(7) 0.93378(7) 0.59471(7)
C86_13 C 0.50270(6) 0.97586(7) 0.58602(7)
C87_13 C 0.38895(7) 0.88389(7) 0.57328(7)
C88_13 C 0.43270(8) 0.91191(8) 0.55687(8)
H46_13 H 0.444436 0.919971 0.541384
C89_13 C 0.44144(7) 0.91635(7) 0.58705(7)
C91_13 C 0.48754(9) 0.92517(9) 0.61878(10)
H47_13 H 0.482457 0.908039 0.629872
C92_13 C 0.52092(8) 0.96729(9) 0.61017(9)
H48_13 H 0.537972 0.978508 0.615260
C93_13 C 0.51308(9) 0.94138(10) 0.62669(10)
H49_13 H 0.524989 0.935145 0.642873
C94_13 C 0.35233(7) 0.86131(7) 0.60309(7)
C95_13 C 0.27256(7) 0.79060(7) 0.57885(6)
H50_13 H 0.284574 0.784313 0.562768
C96_13 C 0.32648(7) 0.84539(7) 0.61008(7)
H51_13 H 0.321017 0.842491 0.630188
C97_13 C 0.34341(9) 0.85445(8) 0.54973(7)
H52_13 H 0.348957 0.857537 0.529673
C98_13 C 0.28075(7) 0.81622(7) 0.59471(7)
C99_13 C 0.24730(6) 0.77414(7) 0.58602(7)
C100_13 C 0.36105(7) 0.86611(7) 0.57328(7)
C101_13 C 0.31730(8) 0.83809(8) 0.55687(8)
H53_13 H 0.305564 0.830029 0.541384
C102_13 C 0.30856(7) 0.83365(7) 0.58705(7)
C103_13 C 0.23975(7) 0.74675(6) 0.56786(7)
C104_13 C 0.26246(9) 0.82483(9) 0.61878(10)
H54_13 H 0.267543 0.841961 0.629872
C105_13 C 0.22908(8) 0.78271(9) 0.61017(9)
H55_13 H 0.212028 0.771492 0.615260
C106_13 C 0.23692(9) 0.80862(10) 0.62669(10)
H56_13 H 0.225011 0.814855 0.642873
O30_9 O 0.57652(4) 0.73132(5) 0.71693(5)
O34_11 O 0.54570(4) 0.74004(4) 0.75584(4)
O38_12 O 0.49004(4) 0.74416(4) 0.79570(4)
C64_14 C 0.00325(6) 0.01025(7) 0.56786(7)
C20_11 C 0.00270(6) 0.66398(7) 0.27414(7)
C24_11 C 0.01025(7) 0.68214(7) 0.24675(6)
C26_11 C 0.02092(8) 0.63983(9) 0.28271(9)
H13_11 H 0.037972 0.634740 0.271492
C27_11 C 0.01308(9) 0.62331(10) 0.30862(10)
H14_11 H 0.024989 0.607127 0.314855
C50_11 C 0.00325(6) 0.56786(7) 0.51025(7)
C99_14 C 0.00270(6) 0.77414(7) 0.66398(7)
C103_14 C 0.01025(7) 0.74675(6) 0.68214(7)
C105_14 C 0.02092(8) 0.78271(9) 0.63983(9)
H55_14 H 0.037972 0.771492 0.634740
C106_14 C 0.01308(9) 0.80862(10) 0.62331(10)
H56_14 H 0.024989 0.814855 0.607127
C60_14 C 0.97586(7) 0.00270(6) 0.58602(7)
C66_14 C 0.96729(9) 0.02092(8) 0.61017(9)
H34_14 H 0.978508 0.037972 0.615260
C67_14 C 0.94138(10) 0.01308(9) 0.62669(10)
H35_14 H 0.935145 0.024989 0.642873
C90_14 C 0.73975(7) 0.00325(6) 0.68214(7)
Zn2_10 Zn 0.70153(2) 0.70153(2) 0.54847(2)
O1_10 O 0.71693(5) 0.67348(4) 0.51868(5)
O2_10 O 0.75584(4) 0.70430(4) 0.50996(4)
O3_10 O 0.67551(6) 0.67551(6) 0.57449(6)
C1_11 C 0.875000 0.625000 0.375000
C2_11 C 0.85233(7) 0.64691(7) 0.38869(7)
C3_11 C 0.77256(7) 0.67115(6) 0.45940(7)
H1_11 H 0.784574 0.687232 0.465687
C4_11 C 0.82648(7) 0.63992(7) 0.40461(7)
H2_11 H 0.821017 0.619812 0.407509
C5_11 C 0.84341(9) 0.70027(7) 0.39555(8)
H3_11 H 0.848957 0.720327 0.392463
C6_11 C 0.78075(7) 0.65529(7) 0.43378(7)
C7_11 C 0.74730(6) 0.66398(7) 0.47586(7)
C8_11 C 0.86105(7) 0.67672(7) 0.38389(7)
C9_11 C 0.81730(8) 0.69313(8) 0.41191(8)
H4_11 H 0.805564 0.708616 0.419971
C10_11 C 0.80856(7) 0.66295(7) 0.41635(7)
C11_11 C 0.73975(7) 0.68214(7) 0.50325(6)
C12_11 C 0.76246(9) 0.63122(10) 0.42517(9)
H5_11 H 0.767543 0.620128 0.408039
C13_11 C 0.72908(8) 0.63983(9) 0.46729(9)
H6_11 H 0.712028 0.634740 0.478508
C14_11 C 0.73692(9) 0.62331(10) 0.44138(10)
H7_11 H 0.725011 0.607127 0.435145
C15_11 C 0.89767(7) 0.64691(7) 0.36131(7)
C16_11 C 0.97744(7) 0.67115(6) 0.29060(7)
H8_11 H 0.965426 0.687232 0.284313
C17_11 C 0.92352(7) 0.63992(7) 0.34539(7)
H9_11 H 0.928983 0.619812 0.342491
C18_11 C 0.90659(9) 0.70027(7) 0.35445(8)
H10_11 H 0.901043 0.720327 0.357537
C19_11 C 0.96925(7) 0.65529(7) 0.31622(7)
C21_11 C 0.88895(7) 0.67672(7) 0.36611(7)
C22_11 C 0.93270(8) 0.69313(8) 0.33809(8)
H11_11 H 0.944436 0.708616 0.330029
C23_11 C 0.94144(7) 0.66295(7) 0.33365(7)
C25_11 C 0.98754(9) 0.63122(10) 0.32483(9)
H12_11 H 0.982457 0.620128 0.341961
O7_7 O 0.74004(4) 0.54570(4) 0.25584(4)
C28_11 C 0.86131(7) 0.60309(7) 0.35233(7)
C29_11 C 0.79060(7) 0.57885(6) 0.27256(7)
H15_11 H 0.784313 0.562768 0.284574
C30_11 C 0.84539(7) 0.61008(7) 0.32648(7)
H16_11 H 0.842491 0.630188 0.321017
C31_11 C 0.85445(8) 0.54973(7) 0.34341(9)
H17_11 H 0.857537 0.529673 0.348957
C32_11 C 0.81622(7) 0.59471(7) 0.28075(7)
C33_11 C 0.77414(7) 0.58602(7) 0.24730(6)
C34_11 C 0.86611(7) 0.57328(7) 0.36105(7)
C35_11 C 0.83809(8) 0.55687(8) 0.31730(8)
H18_11 H 0.830029 0.541384 0.305564
C36_11 C 0.83365(7) 0.58705(7) 0.30856(7)
C37_11 C 0.74675(6) 0.56786(7) 0.23975(7)
C38_11 C 0.82483(9) 0.61878(10) 0.26246(9)
H19_11 H 0.841961 0.629872 0.267543
C39_11 C 0.78271(9) 0.61017(9) 0.22908(8)
H20_11 H 0.771492 0.615260 0.212028
C40_11 C 0.80862(10) 0.62669(10) 0.23692(9)
H21_11 H 0.814855 0.642873 0.225011
C41_11 C 0.88869(7) 0.60309(7) 0.39767(7)
C42_11 C 0.95940(7) 0.57885(6) 0.47744(7)
H22_11 H 0.965687 0.562768 0.465426
C43_11 C 0.90461(7) 0.61008(7) 0.42352(7)
H23_11 H 0.907509 0.630188 0.428983
C44_11 C 0.89555(8) 0.54973(7) 0.40659(9)
H24_11 H 0.892463 0.529673 0.401043
C45_11 C 0.93378(7) 0.59471(7) 0.46925(7)
C46_11 C 0.97586(7) 0.58602(7) 0.50270(6)
C47_11 C 0.88389(7) 0.57328(7) 0.38895(7)
C48_11 C 0.91191(8) 0.55687(8) 0.43270(8)
H25_11 H 0.919971 0.541384 0.444436
C49_11 C 0.91635(7) 0.58705(7) 0.44144(7)
C51_11 C 0.92517(9) 0.61878(10) 0.48754(9)
H26_11 H 0.908039 0.629872 0.482457
C52_11 C 0.96729(9) 0.61017(9) 0.52092(8)
H27_11 H 0.978508 0.615260 0.537972
C53_11 C 0.94138(10) 0.62669(10) 0.51308(9)
H28_11 H 0.935145 0.642873 0.524989
C54_14 C 0.875000 0.875000 0.625000
C55_14 C 0.88869(7) 0.89767(7) 0.60309(7)
C56_14 C 0.95940(7) 0.97744(7) 0.57885(6)
H29_14 H 0.965687 0.965426 0.562768
C57_14 C 0.90461(7) 0.92352(7) 0.61008(7)
H30_14 H 0.907509 0.928983 0.630188
C58_14 C 0.89555(8) 0.90659(9) 0.54973(7)
H31_14 H 0.892463 0.901043 0.529673
C59_14 C 0.93378(7) 0.96925(7) 0.59471(7)
C61_14 C 0.88389(7) 0.88895(7) 0.57328(7)
C62_14 C 0.91191(8) 0.93270(8) 0.55687(8)
H32_14 H 0.919971 0.944436 0.541384
C63_14 C 0.91635(7) 0.94144(7) 0.58705(7)
C65_14 C 0.92517(9) 0.98754(9) 0.61878(10)
H33_14 H 0.908039 0.982457 0.629872
O13_10 O 0.73132(5) 0.71693(5) 0.57652(4)
O14_13 O 0.74004(4) 0.75584(4) 0.54570(4)
C68_14 C 0.86131(7) 0.85233(7) 0.60309(7)
C69_14 C 0.79060(7) 0.77256(7) 0.57885(6)
H36_14 H 0.784313 0.784574 0.562768
C70_14 C 0.84539(7) 0.82648(7) 0.61008(7)
H37_14 H 0.842491 0.821017 0.630188
C71_14 C 0.85445(8) 0.84341(9) 0.54973(7)
H38_14 H 0.857537 0.848957 0.529673
C72_14 C 0.81622(7) 0.78075(7) 0.59471(7)
C73_14 C 0.77414(7) 0.74730(6) 0.58602(7)
C74_14 C 0.86611(7) 0.86105(7) 0.57328(7)
C75_14 C 0.83809(8) 0.81730(8) 0.55687(8)
H39_14 H 0.830029 0.805564 0.541384
C76_14 C 0.83365(7) 0.80856(7) 0.58705(7)
C77_14 C 0.74675(6) 0.73975(7) 0.56786(7)
C78_14 C 0.82483(9) 0.76246(9) 0.61878(10)
H40_14 H 0.841961 0.767543 0.629872
C79_14 C 0.78271(9) 0.72908(8) 0.61017(9)
H41_14 H 0.771492 0.712028 0.615260
C80_14 C 0.80862(10) 0.73692(9) 0.62669(10)
H42_14 H 0.814855 0.725011 0.642873
C81_14 C 0.85233(7) 0.88869(7) 0.64691(7)
C82_14 C 0.77256(7) 0.95940(7) 0.67115(6)
H43_14 H 0.784574 0.965687 0.687232
C83_14 C 0.82648(7) 0.90461(7) 0.63992(7)
H44_14 H 0.821017 0.907509 0.619812
C84_14 C 0.84341(9) 0.89555(8) 0.70027(7)
H45_14 H 0.848957 0.892463 0.720327
C85_14 C 0.78075(7) 0.93378(7) 0.65529(7)
C86_14 C 0.74730(6) 0.97586(7) 0.66398(7)
C87_14 C 0.86105(7) 0.88389(7) 0.67672(7)
C88_14 C 0.81730(8) 0.91191(8) 0.69313(8)
H46_14 H 0.805564 0.919971 0.708616
C89_14 C 0.80856(7) 0.91635(7) 0.66295(7)
C91_14 C 0.76246(9) 0.92517(9) 0.63122(10)
H47_14 H 0.767543 0.908039 0.620128
C92_14 C 0.72908(8) 0.96729(9) 0.63983(9)
H48_14 H 0.712028 0.978508 0.634740
C93_14 C 0.73692(9) 0.94138(10) 0.62331(10)
H49_14 H 0.725011 0.935145 0.607127
C94_14 C 0.89767(7) 0.86131(7) 0.64691(7)
C95_14 C 0.97744(7) 0.79060(7) 0.67115(6)
H50_14 H 0.965426 0.784313 0.687232
C96_14 C 0.92352(7) 0.84539(7) 0.63992(7)
H51_14 H 0.928983 0.842491 0.619812
C97_14 C 0.90659(9) 0.85445(8) 0.70027(7)
H52_14 H 0.901043 0.857537 0.720327
C98_14 C 0.96925(7) 0.81622(7) 0.65529(7)
C100_14 C 0.88895(7) 0.86611(7) 0.67672(7)
C101_14 C 0.93270(8) 0.83809(8) 0.69313(8)
H53_14 H 0.944436 0.830029 0.708616
C102_14 C 0.94144(7) 0.83365(7) 0.66295(7)
C104_14 C 0.98754(9) 0.82483(9) 0.63122(10)
H54_14 H 0.982457 0.841961 0.620128
O30_10 O 0.67348(4) 0.73132(5) 0.53307(5)
O34_12 O 0.70430(4) 0.74004(4) 0.49416(4)
O38_13 O 0.75996(4) 0.74416(4) 0.45430(4)
Zn2_11 Zn 0.54847(2) 0.54847(2) 0.54847(2)
O1_11 O 0.53307(5) 0.57652(4) 0.51868(5)
O2_11 O 0.49416(4) 0.54570(4) 0.50996(4)
O3_11 O 0.57449(6) 0.57449(6) 0.57449(6)
C1_12 C 0.375000 0.625000 0.375000
C2_12 C 0.39767(7) 0.60309(7) 0.38869(7)
C3_12 C 0.47744(7) 0.57885(6) 0.45940(7)
H1_12 H 0.465426 0.562768 0.465687
C4_12 C 0.42352(7) 0.61008(7) 0.40461(7)
H2_12 H 0.428983 0.630188 0.407509
C5_12 C 0.40659(9) 0.54973(7) 0.39555(8)
H3_12 H 0.401043 0.529673 0.392463
C6_12 C 0.46925(7) 0.59471(7) 0.43378(7)
C7_12 C 0.50270(6) 0.58602(7) 0.47586(7)
C8_12 C 0.38895(7) 0.57328(7) 0.38389(7)
C9_12 C 0.43270(8) 0.55687(8) 0.41191(8)
H4_12 H 0.444436 0.541384 0.419971
C10_12 C 0.44144(7) 0.58705(7) 0.41635(7)
C11_12 C 0.51025(7) 0.56786(7) 0.50325(6)
C12_12 C 0.48754(9) 0.61878(10) 0.42517(9)
H5_12 H 0.482457 0.629872 0.408039
C13_12 C 0.52092(8) 0.61017(9) 0.46729(9)
H6_12 H 0.537972 0.615260 0.478508
C14_12 C 0.51308(9) 0.62669(10) 0.44138(10)
H7_12 H 0.524989 0.642873 0.435145
C15_12 C 0.35233(7) 0.60309(7) 0.36131(7)
C16_12 C 0.27256(7) 0.57885(6) 0.29060(7)
H8_12 H 0.284574 0.562768 0.284313
C17_12 C 0.32648(7) 0.61008(7) 0.34539(7)
H9_12 H 0.321017 0.630188 0.342491
C18_12 C 0.34341(9) 0.54973(7) 0.35445(8)
H10_12 H 0.348957 0.529673 0.357537
C19_12 C 0.28075(7) 0.59471(7) 0.31622(7)
C20_12 C 0.24730(6) 0.58602(7) 0.27414(7)
C21_12 C 0.36105(7) 0.57328(7) 0.36611(7)
C22_12 C 0.31730(8) 0.55687(8) 0.33809(8)
H11_12 H 0.305564 0.541384 0.330029
C23_12 C 0.30856(7) 0.58705(7) 0.33365(7)
C24_12 C 0.23975(7) 0.56786(7) 0.24675(6)
C25_12 C 0.26246(9) 0.61878(10) 0.32483(9)
H12_12 H 0.267543 0.629872 0.341961
C26_12 C 0.22908(8) 0.61017(9) 0.28271(9)
H13_12 H 0.212028 0.615260 0.271492
C27_12 C 0.23692(9) 0.62669(10) 0.30862(10)
H14_12 H 0.225011 0.642873 0.314855
O7_8 O 0.50996(4) 0.70430(4) 0.25584(4)
C28_12 C 0.38869(7) 0.64691(7) 0.35233(7)
C29_12 C 0.45940(7) 0.67115(6) 0.27256(7)
H15_12 H 0.465687 0.687232 0.284574
C30_12 C 0.40461(7) 0.63992(7) 0.32648(7)
H16_12 H 0.407509 0.619812 0.321017
C31_12 C 0.39555(8) 0.70027(7) 0.34341(9)
H17_12 H 0.392463 0.720327 0.348957
C32_12 C 0.43378(7) 0.65529(7) 0.28075(7)
C33_12 C 0.47586(7) 0.66398(7) 0.24730(6)
C34_12 C 0.38389(7) 0.67672(7) 0.36105(7)
C35_12 C 0.41191(8) 0.69313(8) 0.31730(8)
H18_12 H 0.419971 0.708616 0.305564
C36_12 C 0.41635(7) 0.66295(7) 0.30856(7)
C37_12 C 0.50325(6) 0.68214(7) 0.23975(7)
C38_12 C 0.42517(9) 0.63122(10) 0.26246(9)
H19_12 H 0.408039 0.620128 0.267543
C39_12 C 0.46729(9) 0.63983(9) 0.22908(8)
H20_12 H 0.478508 0.634740 0.212028
C40_12 C 0.44138(10) 0.62331(10) 0.23692(9)
H21_12 H 0.435145 0.607127 0.225011
C41_12 C 0.36131(7) 0.64691(7) 0.39767(7)
C42_12 C 0.29060(7) 0.67115(6) 0.47744(7)
H22_12 H 0.284313 0.687232 0.465426
C43_12 C 0.34539(7) 0.63992(7) 0.42352(7)
H23_12 H 0.342491 0.619812 0.428983
C44_12 C 0.35445(8) 0.70027(7) 0.40659(9)
H24_12 H 0.357537 0.720327 0.401043
C45_12 C 0.31622(7) 0.65529(7) 0.46925(7)
C46_12 C 0.27414(7) 0.66398(7) 0.50270(6)
C47_12 C 0.36611(7) 0.67672(7) 0.38895(7)
C48_12 C 0.33809(8) 0.69313(8) 0.43270(8)
H25_12 H 0.330029 0.708616 0.444436
C49_12 C 0.33365(7) 0.66295(7) 0.44144(7)
C50_12 C 0.24675(6) 0.68214(7) 0.51025(7)
C51_12 C 0.32483(9) 0.63122(10) 0.48754(9)
H26_12 H 0.341961 0.620128 0.482457
C52_12 C 0.28271(9) 0.63983(9) 0.52092(8)
H27_12 H 0.271492 0.634740 0.537972
C53_12 C 0.30862(10) 0.62331(10) 0.51308(9)
H28_12 H 0.314855 0.607127 0.524989
C54_15 C 0.375000 0.375000 0.625000
C55_15 C 0.36131(7) 0.35233(7) 0.60309(7)
C56_15 C 0.29060(7) 0.27256(7) 0.57885(6)
H29_15 H 0.284313 0.284574 0.562768
C57_15 C 0.34539(7) 0.32648(7) 0.61008(7)
H30_15 H 0.342491 0.321017 0.630188
C58_15 C 0.35445(8) 0.34341(9) 0.54973(7)
H31_15 H 0.357537 0.348957 0.529673
C59_15 C 0.31622(7) 0.28075(7) 0.59471(7)
C60_15 C 0.27414(7) 0.24730(6) 0.58602(7)
C61_15 C 0.36611(7) 0.36105(7) 0.57328(7)
C62_15 C 0.33809(8) 0.31730(8) 0.55687(8)
H32_15 H 0.330029 0.305564 0.541384
C63_15 C 0.33365(7) 0.30856(7) 0.58705(7)
C64_15 C 0.24675(6) 0.23975(7) 0.56786(7)
C65_15 C 0.32483(9) 0.26246(9) 0.61878(10)
H33_15 H 0.341961 0.267543 0.629872
C66_15 C 0.28271(9) 0.22908(8) 0.61017(9)
H34_15 H 0.271492 0.212028 0.615260
C67_15 C 0.30862(10) 0.23692(9) 0.62669(10)
H35_15 H 0.314855 0.225011 0.642873
O13_11 O 0.51868(5) 0.53307(5) 0.57652(4)
O14_14 O 0.50996(4) 0.49416(4) 0.54570(4)
C68_15 C 0.38869(7) 0.39767(7) 0.60309(7)
C69_15 C 0.45940(7) 0.47744(7) 0.57885(6)
H36_15 H 0.465687 0.465426 0.562768
C70_15 C 0.40461(7) 0.42352(7) 0.61008(7)
H37_15 H 0.407509 0.428983 0.630188
C71_15 C 0.39555(8) 0.40659(9) 0.54973(7)
H38_15 H 0.392463 0.401043 0.529673
C72_15 C 0.43378(7) 0.46925(7) 0.59471(7)
C73_15 C 0.47586(7) 0.50270(6) 0.58602(7)
C74_15 C 0.38389(7) 0.38895(7) 0.57328(7)
C75_15 C 0.41191(8) 0.43270(8) 0.55687(8)
H39_15 H 0.419971 0.444436 0.541384
C76_15 C 0.41635(7) 0.44144(7) 0.58705(7)
C77_15 C 0.50325(6) 0.51025(7) 0.56786(7)
C78_15 C 0.42517(9) 0.48754(9) 0.61878(10)
H40_15 H 0.408039 0.482457 0.629872
C79_15 C 0.46729(9) 0.52092(8) 0.61017(9)
H41_15 H 0.478508 0.537972 0.615260
C80_15 C 0.44138(10) 0.51308(9) 0.62669(10)
H42_15 H 0.435145 0.524989 0.642873
C81_15 C 0.39767(7) 0.36131(7) 0.64691(7)
C82_15 C 0.47744(7) 0.29060(7) 0.67115(6)
H43_15 H 0.465426 0.284313 0.687232
C83_15 C 0.42352(7) 0.34539(7) 0.63992(7)
H44_15 H 0.428983 0.342491 0.619812
C84_15 C 0.40659(9) 0.35445(8) 0.70027(7)
H45_15 H 0.401043 0.357537 0.720327
C85_15 C 0.46925(7) 0.31622(7) 0.65529(7)
C86_15 C 0.50270(6) 0.27414(7) 0.66398(7)
C87_15 C 0.38895(7) 0.36611(7) 0.67672(7)
C88_15 C 0.43270(8) 0.33809(8) 0.69313(8)
H46_15 H 0.444436 0.330029 0.708616
C89_15 C 0.44144(7) 0.33365(7) 0.66295(7)
C90_15 C 0.51025(7) 0.24675(6) 0.68214(7)
C91_15 C 0.48754(9) 0.32483(9) 0.63122(10)
H47_15 H 0.482457 0.341961 0.620128
C92_15 C 0.52092(8) 0.28271(9) 0.63983(9)
H48_15 H 0.537972 0.271492 0.634740
C93_15 C 0.51308(9) 0.30862(10) 0.62331(10)
H49_15 H 0.524989 0.314855 0.607127
C94_15 C 0.35233(7) 0.38869(7) 0.64691(7)
C95_15 C 0.27256(7) 0.45940(7) 0.67115(6)
H50_15 H 0.284574 0.465687 0.687232
C96_15 C 0.32648(7) 0.40461(7) 0.63992(7)
H51_15 H 0.321017 0.407509 0.619812
C97_15 C 0.34341(9) 0.39555(8) 0.70027(7)
H52_15 H 0.348957 0.392463 0.720327
C98_15 C 0.28075(7) 0.43378(7) 0.65529(7)
C99_15 C 0.24730(6) 0.47586(7) 0.66398(7)
C100_15 C 0.36105(7) 0.38389(7) 0.67672(7)
C101_15 C 0.31730(8) 0.41191(8) 0.69313(8)
H53_15 H 0.305564 0.419971 0.708616
C102_15 C 0.30856(7) 0.41635(7) 0.66295(7)
C103_15 C 0.23975(7) 0.50325(6) 0.68214(7)
C104_15 C 0.26246(9) 0.42517(9) 0.63122(10)
H54_15 H 0.267543 0.408039 0.620128
C105_15 C 0.22908(8) 0.46729(9) 0.63983(9)
H55_15 H 0.212028 0.478508 0.634740
C106_15 C 0.23692(9) 0.44138(10) 0.62331(10)
H56_15 H 0.225011 0.435145 0.607127
O30_11 O 0.57652(4) 0.51868(5) 0.53307(5)
O34_13 O 0.54570(4) 0.50996(4) 0.49416(4)
O38_14 O 0.49004(4) 0.50584(4) 0.45430(4)
O28_21 O 0.17551(6) 0.07449(6) 0.17551(6)
O28_22 O 0.07449(6) 0.07449(6) 0.07449(6)
O28_23 O 0.07449(6) 0.17551(6) 0.17551(6)
O28_24 O 0.17551(6) 0.17551(6) 0.07449(6)
Zn2_12 Zn 0.45153(2) 0.79847(2) 0.29847(2)
O1_12 O 0.42348(4) 0.78307(5) 0.26868(5)
O2_12 O 0.45430(4) 0.74416(4) 0.25996(4)
O3_12 O 0.42551(6) 0.82449(6) 0.32449(6)
C1_13 C 0.375000 0.625000 0.125000
C2_13 C 0.39691(7) 0.64767(7) 0.13869(7)
C3_13 C 0.42115(6) 0.72744(7) 0.20940(7)
H1_13 H 0.437232 0.715426 0.215687
C4_13 C 0.38992(7) 0.67352(7) 0.15461(7)
H2_13 H 0.369812 0.678983 0.157509
C5_13 C 0.45027(7) 0.65659(9) 0.14555(8)
H3_13 H 0.470327 0.651043 0.142463
C6_13 C 0.40529(7) 0.71925(7) 0.18378(7)
C7_13 C 0.41398(7) 0.75270(6) 0.22586(7)
C8_13 C 0.42672(7) 0.63895(7) 0.13389(7)
C9_13 C 0.44313(8) 0.68270(8) 0.16191(8)
H4_13 H 0.458616 0.694436 0.169971
C10_13 C 0.41295(7) 0.69144(7) 0.16635(7)
C11_13 C 0.43214(7) 0.76025(7) 0.25325(6)
C12_13 C 0.38122(10) 0.73754(9) 0.17517(9)
H5_13 H 0.370128 0.732457 0.158039
C13_13 C 0.38983(9) 0.77092(8) 0.21729(9)
H6_13 H 0.384740 0.787972 0.228508
C14_13 C 0.37331(10) 0.76308(9) 0.19138(10)
H7_13 H 0.357127 0.774989 0.185145
C15_13 C 0.39691(7) 0.60233(7) 0.11131(7)
C16_13 C 0.42115(6) 0.52256(7) 0.04060(7)
H8_13 H 0.437232 0.534574 0.034313
C17_13 C 0.38992(7) 0.57648(7) 0.09539(7)
H9_13 H 0.369812 0.571017 0.092491
C18_13 C 0.45027(7) 0.59341(9) 0.10445(8)
H10_13 H 0.470327 0.598957 0.107537
C19_13 C 0.40529(7) 0.53075(7) 0.06622(7)
C20_13 C 0.41398(7) 0.49730(6) 0.02414(7)
C21_13 C 0.42672(7) 0.61105(7) 0.11611(7)
C22_13 C 0.44313(8) 0.56730(8) 0.08809(8)
H11_13 H 0.458616 0.555564 0.080029
C23_13 C 0.41295(7) 0.55856(7) 0.08365(7)
C25_13 C 0.38122(10) 0.51246(9) 0.07483(9)
H12_13 H 0.370128 0.517543 0.091961
C26_13 C 0.38983(9) 0.47908(8) 0.03271(9)
H13_13 H 0.384740 0.462028 0.021492
C27_13 C 0.37331(10) 0.48692(9) 0.05862(10)
H14_13 H 0.357127 0.475011 0.064855
C28_13 C 0.35309(7) 0.63869(7) 0.10233(7)
C29_13 C 0.32885(6) 0.70940(7) 0.02256(7)
H15_13 H 0.312768 0.715687 0.034574
C30_13 C 0.36008(7) 0.65461(7) 0.07648(7)
H16_13 H 0.380188 0.657509 0.071017
C31_13 C 0.29973(7) 0.64555(8) 0.09341(9)
H17_13 H 0.279673 0.642463 0.098957
C32_13 C 0.34471(7) 0.68378(7) 0.03075(7)
C34_13 C 0.32328(7) 0.63389(7) 0.11105(7)
C35_13 C 0.30687(8) 0.66191(8) 0.06730(8)
H18_13 H 0.291384 0.669971 0.055564
C36_13 C 0.33705(7) 0.66635(7) 0.05856(7)
C38_13 C 0.36878(10) 0.67517(9) 0.01246(9)
H19_13 H 0.379872 0.658039 0.017543
C41_13 C 0.35309(7) 0.61131(7) 0.14767(7)
C42_13 C 0.32885(6) 0.54060(7) 0.22744(7)
H22_13 H 0.312768 0.534313 0.215426
C43_13 C 0.36008(7) 0.59539(7) 0.17352(7)
H23_13 H 0.380188 0.592491 0.178983
C44_13 C 0.29973(7) 0.60445(8) 0.15659(9)
H24_13 H 0.279673 0.607537 0.151043
C45_13 C 0.34471(7) 0.56622(7) 0.21925(7)
C46_13 C 0.33602(7) 0.52414(7) 0.25270(6)
C47_13 C 0.32328(7) 0.61611(7) 0.13895(7)
C48_13 C 0.30687(8) 0.58809(8) 0.18270(8)
H25_13 H 0.291384 0.580029 0.194436
C49_13 C 0.33705(7) 0.58365(7) 0.19144(7)
C50_13 C 0.31786(7) 0.49675(6) 0.26025(7)
C51_13 C 0.36878(10) 0.57483(9) 0.23754(9)
H26_13 H 0.379872 0.591961 0.232457
C52_13 C 0.36017(9) 0.53271(9) 0.27092(8)
H27_13 H 0.365260 0.521492 0.287972
C53_13 C 0.37669(10) 0.55862(10) 0.26308(9)
H28_13 H 0.392873 0.564855 0.274989
Zn4_11 Zn 0.79847(2) 0.45153(2) 0.29847(2)
O10_11 O 0.78307(5) 0.48132(5) 0.32652(4)
O11_11 O 0.74416(4) 0.49004(4) 0.29570(4)
O12_11 O 0.82449(6) 0.42551(6) 0.32449(6)
C54_16 C 0.625000 0.625000 0.375000
C55_16 C 0.64767(7) 0.61131(7) 0.35309(7)
C56_16 C 0.72744(7) 0.54060(7) 0.32885(6)
H29_16 H 0.715426 0.534313 0.312768
C57_16 C 0.67352(7) 0.59539(7) 0.36008(7)
H30_16 H 0.678983 0.592491 0.380188
C58_16 C 0.65659(9) 0.60445(8) 0.29973(7)
H31_16 H 0.651043 0.607537 0.279673
C59_16 C 0.71925(7) 0.56622(7) 0.34471(7)
C60_16 C 0.75270(6) 0.52414(7) 0.33602(7)
C61_16 C 0.63895(7) 0.61611(7) 0.32328(7)
C62_16 C 0.68270(8) 0.58809(8) 0.30687(8)
H32_16 H 0.694436 0.580029 0.291384
C63_16 C 0.69144(7) 0.58365(7) 0.33705(7)
C64_16 C 0.76025(7) 0.49675(6) 0.31786(7)
C65_16 C 0.73754(9) 0.57483(9) 0.36878(10)
H33_16 H 0.732457 0.591961 0.379872
C66_16 C 0.77092(8) 0.53271(9) 0.36017(9)
H34_16 H 0.787972 0.521492 0.365260
C67_16 C 0.76308(9) 0.55862(10) 0.37669(10)
H35_16 H 0.774989 0.564855 0.392873
O13_12 O 0.46693(5) 0.76868(5) 0.32652(4)
O14_15 O 0.50584(4) 0.75996(4) 0.29570(4)
C68_16 C 0.60233(7) 0.63869(7) 0.35309(7)
C69_16 C 0.52256(7) 0.70940(7) 0.32885(6)
H36_16 H 0.534574 0.715687 0.312768
C70_16 C 0.57648(7) 0.65461(7) 0.36008(7)
H37_16 H 0.571017 0.657509 0.380188
C71_16 C 0.59341(9) 0.64555(8) 0.29973(7)
H38_16 H 0.598957 0.642463 0.279673
C72_16 C 0.53075(7) 0.68378(7) 0.34471(7)
C73_16 C 0.49730(6) 0.72586(7) 0.33602(7)
C74_16 C 0.61105(7) 0.63389(7) 0.32328(7)
C75_16 C 0.56730(8) 0.66191(8) 0.30687(8)
H39_16 H 0.555564 0.669971 0.291384
C76_16 C 0.55856(7) 0.66635(7) 0.33705(7)
C77_16 C 0.48975(7) 0.75325(6) 0.31786(7)
C78_16 C 0.51246(9) 0.67517(9) 0.36878(10)
H40_16 H 0.517543 0.658039 0.379872
C79_16 C 0.47908(8) 0.71729(9) 0.36017(9)
H41_16 H 0.462028 0.728508 0.365260
C80_16 C 0.48692(9) 0.69138(10) 0.37669(10)
H42_16 H 0.475011 0.685145 0.392873
C81_16 C 0.63869(7) 0.64767(7) 0.39691(7)
C82_16 C 0.70940(7) 0.72744(7) 0.42115(6)
H43_16 H 0.715687 0.715426 0.437232
C83_16 C 0.65461(7) 0.67352(7) 0.38992(7)
H44_16 H 0.657509 0.678983 0.369812
C84_16 C 0.64555(8) 0.65659(9) 0.45027(7)
H45_16 H 0.642463 0.651043 0.470327
C85_16 C 0.68378(7) 0.71925(7) 0.40529(7)
C86_16 C 0.72586(7) 0.75270(6) 0.41398(7)
C87_16 C 0.63389(7) 0.63895(7) 0.42672(7)
C88_16 C 0.66191(8) 0.68270(8) 0.44313(8)
H46_16 H 0.669971 0.694436 0.458616
C89_16 C 0.66635(7) 0.69144(7) 0.41295(7)
C90_16 C 0.75325(6) 0.76025(7) 0.43214(7)
C91_16 C 0.67517(9) 0.73754(9) 0.38122(10)
H47_16 H 0.658039 0.732457 0.370128
C92_16 C 0.71729(9) 0.77092(8) 0.38983(9)
H48_16 H 0.728508 0.787972 0.384740
C93_16 C 0.69138(10) 0.76308(9) 0.37331(10)
H49_16 H 0.685145 0.774989 0.357127
O17_9 O 0.48132(5) 0.46693(5) 0.42348(4)
C94_16 C 0.61131(7) 0.60233(7) 0.39691(7)
C95_16 C 0.54060(7) 0.52256(7) 0.42115(6)
H50_16 H 0.534313 0.534574 0.437232
C96_16 C 0.59539(7) 0.57648(7) 0.38992(7)
H51_16 H 0.592491 0.571017 0.369812
C97_16 C 0.60445(8) 0.59341(9) 0.45027(7)
H52_16 H 0.607537 0.598957 0.470327
C98_16 C 0.56622(7) 0.53075(7) 0.40529(7)
C99_16 C 0.52414(7) 0.49730(6) 0.41398(7)
C100_16 C 0.61611(7) 0.61105(7) 0.42672(7)
C101_16 C 0.58809(8) 0.56730(8) 0.44313(8)
H53_16 H 0.580029 0.555564 0.458616
C102_16 C 0.58365(7) 0.55856(7) 0.41295(7)
C103_16 C 0.49675(6) 0.48975(7) 0.43214(7)
C104_16 C 0.57483(9) 0.51246(9) 0.38122(10)
H54_16 H 0.591961 0.517543 0.370128
C105_16 C 0.53271(9) 0.47908(8) 0.38983(9)
H55_16 H 0.521492 0.462028 0.384740
C106_16 C 0.55862(10) 0.48692(9) 0.37331(10)
H56_16 H 0.564855 0.475011 0.357127
O20_8 O 0.49004(4) 0.45430(4) 0.00584(4)
C107_11 C 0.625000 0.375000 0.125000
C108_11 C 0.61131(7) 0.39691(7) 0.10233(7)
C109_11 C 0.54060(7) 0.42115(6) 0.02256(7)
H57_11 H 0.534313 0.437232 0.034574
C110_11 C 0.59539(7) 0.38992(7) 0.07648(7)
H58_11 H 0.592491 0.369812 0.071017
C111_11 C 0.60445(8) 0.45027(7) 0.09341(9)
H59_11 H 0.607537 0.470327 0.098957
C112_11 C 0.56622(7) 0.40529(7) 0.03075(7)
C114_11 C 0.61611(7) 0.42672(7) 0.11105(7)
C115_11 C 0.58809(8) 0.44313(8) 0.06730(8)
H60_11 H 0.580029 0.458616 0.055564
C116_11 C 0.58365(7) 0.41295(7) 0.05856(7)
C118_11 C 0.57483(9) 0.38122(10) 0.01246(9)
H61_11 H 0.591961 0.370128 0.017543
O22_11 O 0.76868(5) 0.42348(4) 0.28307(5)
O23_11 O 0.75996(4) 0.45430(4) 0.24416(4)
C121_11 C 0.63869(7) 0.39691(7) 0.14767(7)
C122_11 C 0.70940(7) 0.42115(6) 0.22744(7)
H64_11 H 0.715687 0.437232 0.215426
C123_11 C 0.65461(7) 0.38992(7) 0.17352(7)
H65_11 H 0.657509 0.369812 0.178983
C124_11 C 0.64555(8) 0.45027(7) 0.15659(9)
H66_11 H 0.642463 0.470327 0.151043
C125_11 C 0.68378(7) 0.40529(7) 0.21925(7)
C126_11 C 0.72586(7) 0.41398(7) 0.25270(6)
C127_11 C 0.63389(7) 0.42672(7) 0.13895(7)
C128_11 C 0.66191(8) 0.44313(8) 0.18270(8)
H67_11 H 0.669971 0.458616 0.194436
C129_11 C 0.66635(7) 0.41295(7) 0.19144(7)
C130_11 C 0.75325(6) 0.43214(7) 0.26025(7)
C131_11 C 0.67517(9) 0.38122(10) 0.23754(9)
H68_11 H 0.658039 0.370128 0.232457
C132_11 C 0.71729(9) 0.38983(9) 0.27092(8)
H69_11 H 0.728508 0.384740 0.287972
C133_11 C 0.69138(10) 0.37331(10) 0.26308(9)
H70_11 H 0.685145 0.357127 0.274989
C134_11 C 0.64767(7) 0.35309(7) 0.11131(7)
C135_11 C 0.72744(7) 0.32885(6) 0.04060(7)
H71_11 H 0.715426 0.312768 0.034313
C136_11 C 0.67352(7) 0.36008(7) 0.09539(7)
H72_11 H 0.678983 0.380188 0.092491
C137_11 C 0.65659(9) 0.29973(7) 0.10445(8)
H73_11 H 0.651043 0.279673 0.107537
C138_11 C 0.71925(7) 0.34471(7) 0.06622(7)
C139_11 C 0.75270(6) 0.33602(7) 0.02414(7)
C140_11 C 0.63895(7) 0.32328(7) 0.11611(7)
C141_11 C 0.68270(8) 0.30687(8) 0.08809(8)
H74_11 H 0.694436 0.291384 0.080029
C142_11 C 0.69144(7) 0.33705(7) 0.08365(7)
C144_11 C 0.73754(9) 0.36878(10) 0.07483(9)
H75_11 H 0.732457 0.379872 0.091961
C145_11 C 0.77092(8) 0.36017(9) 0.03271(9)
H76_11 H 0.787972 0.365260 0.021492
C146_11 C 0.76308(9) 0.37669(10) 0.05862(10)
H77_11 H 0.774989 0.392873 0.064855
C147_11 C 0.60233(7) 0.35309(7) 0.13869(7)
C148_11 C 0.52256(7) 0.32885(6) 0.20940(7)
H78_11 H 0.534574 0.312768 0.215687
C149_11 C 0.57648(7) 0.36008(7) 0.15461(7)
H79_11 H 0.571017 0.380188 0.157509
C150_11 C 0.59341(9) 0.29973(7) 0.14555(8)
H80_11 H 0.598957 0.279673 0.142463
C151_11 C 0.53075(7) 0.34471(7) 0.18378(7)
C152_11 C 0.49730(6) 0.33602(7) 0.22586(7)
C153_11 C 0.61105(7) 0.32328(7) 0.13389(7)
C154_11 C 0.56730(8) 0.30687(8) 0.16191(8)
H81_11 H 0.555564 0.291384 0.169971
C155_11 C 0.55856(7) 0.33705(7) 0.16635(7)
C156_11 C 0.48975(7) 0.31786(7) 0.25325(6)
C157_11 C 0.51246(9) 0.36878(10) 0.17517(9)
H82_11 H 0.517543 0.379872 0.158039
C158_11 C 0.47908(8) 0.36017(9) 0.21729(9)
H83_11 H 0.462028 0.365260 0.228508
C159_11 C 0.48692(9) 0.37669(10) 0.19138(10)
H84_11 H 0.475011 0.392873 0.185145
O30_12 O 0.48132(5) 0.82652(4) 0.28307(5)
O31_11 O 0.82652(4) 0.46693(5) 0.26868(5)
O34_14 O 0.49004(4) 0.79570(4) 0.24416(4)
O35_13 O 0.79570(4) 0.50584(4) 0.25996(4)
O40_11 O 0.54570(4) 0.75584(4) 0.24004(4)
O41_11 O 0.70430(4) 0.49416(4) 0.24004(4)
O4_8 O 0.42348(4) 0.46693(5) 0.98132(5)
O5_8 O 0.45430(4) 0.50584(4) 0.99004(4)
C24_13 C 0.43214(7) 0.48975(7) 0.99675(6)
O6_8 O 0.32652(4) 0.76868(5) 0.96693(5)
C33_13 C 0.33602(7) 0.72586(7) 0.99730(6)
C37_13 C 0.31786(7) 0.75325(6) 0.98975(7)
C39_13 C 0.36017(9) 0.71729(9) 0.97908(8)
H20_13 H 0.365260 0.728508 0.962028
C40_13 C 0.37669(10) 0.69138(10) 0.98692(9)
H21_13 H 0.392873 0.685145 0.975011
Zn5_8 Zn 0.45153(2) 0.45153(2) 0.95153(2)
O19_8 O 0.48132(5) 0.42348(4) 0.96693(5)
O21_8 O 0.42551(6) 0.42551(6) 0.92551(6)
C113_11 C 0.52414(7) 0.41398(7) 0.99730(6)
C117_11 C 0.49675(6) 0.43214(7) 0.98975(7)
C119_11 C 0.53271(9) 0.38983(9) 0.97908(8)
H62_11 H 0.521492 0.384740 0.962028
C120_11 C 0.55862(10) 0.37331(10) 0.98692(9)
H63_11 H 0.564855 0.357127 0.975011
O24_11 O 0.78307(5) 0.32652(4) 0.98132(5)
C143_11 C 0.76025(7) 0.31786(7) 0.99675(6)
O28_25 O 0.32449(6) 0.82449(6) 0.92551(6)
O29_8 O 0.46693(5) 0.48132(5) 0.92348(4)
O28_26 O 0.42551(6) 0.42551(6) 0.42551(6)
O28_27 O 0.42551(6) 0.82449(6) 0.82449(6)
O32_17 O 0.48132(5) 0.78307(5) 0.82652(4)
C107_12 C 0.625000 0.875000 0.125000
C108_12 C 0.61131(7) 0.85309(7) 0.14767(7)
C109_12 C 0.54060(7) 0.82885(6) 0.22744(7)
H57_12 H 0.534313 0.812768 0.215426
C110_12 C 0.59539(7) 0.86008(7) 0.17352(7)
H58_12 H 0.592491 0.880188 0.178983
C111_12 C 0.60445(8) 0.79973(7) 0.15659(9)
H59_12 H 0.607537 0.779673 0.151043
C112_12 C 0.56622(7) 0.84471(7) 0.21925(7)
C113_12 C 0.52414(7) 0.83602(7) 0.25270(6)
C114_12 C 0.61611(7) 0.82328(7) 0.13895(7)
C115_12 C 0.58809(8) 0.80687(8) 0.18270(8)
H60_12 H 0.580029 0.791384 0.194436
C116_12 C 0.58365(7) 0.83705(7) 0.19144(7)
C117_12 C 0.49675(6) 0.81786(7) 0.26025(7)
C118_12 C 0.57483(9) 0.86878(10) 0.23754(9)
H61_12 H 0.591961 0.879872 0.232457
C119_12 C 0.53271(9) 0.86017(9) 0.27092(8)
H62_12 H 0.521492 0.865260 0.287972
C120_12 C 0.55862(10) 0.87669(10) 0.26308(9)
H63_12 H 0.564855 0.892873 0.274989
O23_12 O 0.75996(4) 0.79570(4) 0.00584(4)
C121_12 C 0.63869(7) 0.85309(7) 0.10233(7)
C122_12 C 0.70940(7) 0.82885(6) 0.02256(7)
H64_12 H 0.715687 0.812768 0.034574
C123_12 C 0.65461(7) 0.86008(7) 0.07648(7)
H65_12 H 0.657509 0.880188 0.071017
C124_12 C 0.64555(8) 0.79973(7) 0.09341(9)
H66_12 H 0.642463 0.779673 0.098957
C125_12 C 0.68378(7) 0.84471(7) 0.03075(7)
C127_12 C 0.63389(7) 0.82328(7) 0.11105(7)
C128_12 C 0.66191(8) 0.80687(8) 0.06730(8)
H67_12 H 0.669971 0.791384 0.055564
C129_12 C 0.66635(7) 0.83705(7) 0.05856(7)
C131_12 C 0.67517(9) 0.86878(10) 0.01246(9)
H68_12 H 0.658039 0.879872 0.017543
O24_12 O 0.78307(5) 0.92348(4) 0.26868(5)
C134_12 C 0.64767(7) 0.89691(7) 0.13869(7)
C135_12 C 0.72744(7) 0.92115(6) 0.20940(7)
H71_12 H 0.715426 0.937232 0.215687
C136_12 C 0.67352(7) 0.88992(7) 0.15461(7)
H72_12 H 0.678983 0.869812 0.157509
C137_12 C 0.65659(9) 0.95027(7) 0.14555(8)
H73_12 H 0.651043 0.970327 0.142463
C138_12 C 0.71925(7) 0.90529(7) 0.18378(7)
C139_12 C 0.75270(6) 0.91398(7) 0.22586(7)
C140_12 C 0.63895(7) 0.92672(7) 0.13389(7)
C141_12 C 0.68270(8) 0.94313(8) 0.16191(8)
H74_12 H 0.694436 0.958616 0.169971
C142_12 C 0.69144(7) 0.91295(7) 0.16635(7)
C143_12 C 0.76025(7) 0.93214(7) 0.25325(6)
C144_12 C 0.73754(9) 0.88122(10) 0.17517(9)
H75_12 H 0.732457 0.870128 0.158039
C145_12 C 0.77092(8) 0.88983(9) 0.21729(9)
H76_12 H 0.787972 0.884740 0.228508
C146_12 C 0.76308(9) 0.87331(10) 0.19138(10)
H77_12 H 0.774989 0.857127 0.185145
C147_12 C 0.60233(7) 0.89691(7) 0.11131(7)
C148_12 C 0.52256(7) 0.92115(6) 0.04060(7)
H78_12 H 0.534574 0.937232 0.034313
C149_12 C 0.57648(7) 0.88992(7) 0.09539(7)
H79_12 H 0.571017 0.869812 0.092491
C150_12 C 0.59341(9) 0.95027(7) 0.10445(8)
H80_12 H 0.598957 0.970327 0.107537
C151_12 C 0.53075(7) 0.90529(7) 0.06622(7)
C152_12 C 0.49730(6) 0.91398(7) 0.02414(7)
C153_12 C 0.61105(7) 0.92672(7) 0.11611(7)
C154_12 C 0.56730(8) 0.94313(8) 0.08809(8)
H81_12 H 0.555564 0.958616 0.080029
C155_12 C 0.55856(7) 0.91295(7) 0.08365(7)
C157_12 C 0.51246(9) 0.88122(10) 0.07483(9)
H82_12 H 0.517543 0.870128 0.091961
C158_12 C 0.47908(8) 0.88983(9) 0.03271(9)
H83_12 H 0.462028 0.884740 0.021492
C159_12 C 0.48692(9) 0.87331(10) 0.05862(10)
H84_12 H 0.475011 0.857127 0.064855
O40_12 O 0.54570(4) 0.49416(4) 0.00996(4)
O41_12 O 0.70430(4) 0.75584(4) 0.00996(4)
Zn4_12 Zn 0.79847(2) 0.79847(2) 0.95153(2)
O10_12 O 0.78307(5) 0.76868(5) 0.92348(4)
O11_12 O 0.74416(4) 0.75996(4) 0.95430(4)
O12_12 O 0.82449(6) 0.82449(6) 0.92551(6)
C54_17 C 0.625000 0.625000 0.875000
C55_17 C 0.64767(7) 0.63869(7) 0.89691(7)
C56_17 C 0.72744(7) 0.70940(7) 0.92115(6)
H29_17 H 0.715426 0.715687 0.937232
C57_17 C 0.67352(7) 0.65461(7) 0.88992(7)
H30_17 H 0.678983 0.657509 0.869812
C58_17 C 0.65659(9) 0.64555(8) 0.95027(7)
H31_17 H 0.651043 0.642463 0.970327
C59_17 C 0.71925(7) 0.68378(7) 0.90529(7)
C60_17 C 0.75270(6) 0.72586(7) 0.91398(7)
C61_17 C 0.63895(7) 0.63389(7) 0.92672(7)
C62_17 C 0.68270(8) 0.66191(8) 0.94313(8)
H32_17 H 0.694436 0.669971 0.958616
C63_17 C 0.69144(7) 0.66635(7) 0.91295(7)
C64_17 C 0.76025(7) 0.75325(6) 0.93214(7)
C65_17 C 0.73754(9) 0.67517(9) 0.88122(10)
H33_17 H 0.732457 0.658039 0.870128
C66_17 C 0.77092(8) 0.71729(9) 0.88983(9)
H34_17 H 0.787972 0.728508 0.884740
C67_17 C 0.76308(9) 0.69138(10) 0.87331(10)
H35_17 H 0.774989 0.685145 0.857127
O14_16 O 0.50584(4) 0.49004(4) 0.95430(4)
C68_17 C 0.60233(7) 0.61131(7) 0.89691(7)
C69_17 C 0.52256(7) 0.54060(7) 0.92115(6)
H36_17 H 0.534574 0.534313 0.937232
C70_17 C 0.57648(7) 0.59539(7) 0.88992(7)
H37_17 H 0.571017 0.592491 0.869812
C71_17 C 0.59341(9) 0.60445(8) 0.95027(7)
H38_17 H 0.598957 0.607537 0.970327
C72_17 C 0.53075(7) 0.56622(7) 0.90529(7)
C73_17 C 0.49730(6) 0.52414(7) 0.91398(7)
C74_17 C 0.61105(7) 0.61611(7) 0.92672(7)
C75_17 C 0.56730(8) 0.58809(8) 0.94313(8)
H39_17 H 0.555564 0.580029 0.958616
C76_17 C 0.55856(7) 0.58365(7) 0.91295(7)
C77_17 C 0.48975(7) 0.49675(6) 0.93214(7)
C78_17 C 0.51246(9) 0.57483(9) 0.88122(10)
H40_17 H 0.517543 0.591961 0.870128
C79_17 C 0.47908(8) 0.53271(9) 0.88983(9)
H41_17 H 0.462028 0.521492 0.884740
C80_17 C 0.48692(9) 0.55862(10) 0.87331(10)
H42_17 H 0.475011 0.564855 0.857127
O15_11 O 0.76868(5) 0.46693(5) 0.82652(4)
C81_17 C 0.63869(7) 0.60233(7) 0.85309(7)
C82_17 C 0.70940(7) 0.52256(7) 0.82885(6)
H43_17 H 0.715687 0.534574 0.812768
C83_17 C 0.65461(7) 0.57648(7) 0.86008(7)
H44_17 H 0.657509 0.571017 0.880188
C84_17 C 0.64555(8) 0.59341(9) 0.79973(7)
H45_17 H 0.642463 0.598957 0.779673
C85_17 C 0.68378(7) 0.53075(7) 0.84471(7)
C86_17 C 0.72586(7) 0.49730(6) 0.83602(7)
C87_17 C 0.63389(7) 0.61105(7) 0.82328(7)
C88_17 C 0.66191(8) 0.56730(8) 0.80687(8)
H46_17 H 0.669971 0.555564 0.791384
C89_17 C 0.66635(7) 0.55856(7) 0.83705(7)
C90_17 C 0.75325(6) 0.48975(7) 0.81786(7)
C91_17 C 0.67517(9) 0.51246(9) 0.86878(10)
H47_17 H 0.658039 0.517543 0.879872
C92_17 C 0.71729(9) 0.47908(8) 0.86017(9)
H48_17 H 0.728508 0.462028 0.865260
C93_17 C 0.69138(10) 0.48692(9) 0.87669(10)
H49_17 H 0.685145 0.475011 0.892873
C94_17 C 0.61131(7) 0.64767(7) 0.85309(7)
C95_17 C 0.54060(7) 0.72744(7) 0.82885(6)
H50_17 H 0.534313 0.715426 0.812768
C96_17 C 0.59539(7) 0.67352(7) 0.86008(7)
H51_17 H 0.592491 0.678983 0.880188
C97_17 C 0.60445(8) 0.65659(9) 0.79973(7)
H52_17 H 0.607537 0.651043 0.779673
C98_17 C 0.56622(7) 0.71925(7) 0.84471(7)
C99_17 C 0.52414(7) 0.75270(6) 0.83602(7)
C100_17 C 0.61611(7) 0.63895(7) 0.82328(7)
C101_17 C 0.58809(8) 0.68270(8) 0.80687(8)
H53_17 H 0.580029 0.694436 0.791384
C102_17 C 0.58365(7) 0.69144(7) 0.83705(7)
C103_17 C 0.49675(6) 0.76025(7) 0.81786(7)
C104_17 C 0.57483(9) 0.73754(9) 0.86878(10)
H54_17 H 0.591961 0.732457 0.879872
C105_17 C 0.53271(9) 0.77092(8) 0.86017(9)
H55_17 H 0.521492 0.787972 0.865260
C106_17 C 0.55862(10) 0.76308(9) 0.87669(10)
H56_17 H 0.564855 0.774989 0.892873
O22_12 O 0.76868(5) 0.82652(4) 0.96693(5)
C126_12 C 0.72586(7) 0.83602(7) 0.99730(6)
C130_12 C 0.75325(6) 0.81786(7) 0.98975(7)
C132_12 C 0.71729(9) 0.86017(9) 0.97908(8)
H69_12 H 0.728508 0.865260 0.962028
C133_12 C 0.69138(10) 0.87669(10) 0.98692(9)
H70_12 H 0.685145 0.892873 0.975011
C156_12 C 0.48975(7) 0.93214(7) 0.99675(6)
O31_12 O 0.82652(4) 0.78307(5) 0.98132(5)
O35_14 O 0.79570(4) 0.74416(4) 0.99004(4)
O28_28 O 0.92551(6) 0.32449(6) 0.82449(6)
O32_18 O 0.92348(4) 0.26868(5) 0.78307(5)
O28_29 O 0.92551(6) 0.92551(6) 0.42551(6)
O32_19 O 0.92348(4) 0.98132(5) 0.46693(5)
O28_30 O 0.82449(6) 0.32449(6) 0.92551(6)
C117_13 C 0.56786(7) 0.00325(6) 0.01025(7)
C152_13 C 0.66398(7) 0.00270(6) 0.77414(7)
C156_13 C 0.68214(7) 0.01025(7) 0.74675(6)
C158_13 C 0.63983(9) 0.02092(8) 0.78271(9)
H83_13 H 0.634740 0.037972 0.771492
C159_13 C 0.62331(10) 0.01308(9) 0.80862(10)
H84_13 H 0.607127 0.024989 0.814855
C113_13 C 0.58602(7) 0.97586(7) 0.00270(6)
C119_13 C 0.61017(9) 0.96729(9) 0.02092(8)
H62_13 H 0.615260 0.978508 0.037972
C120_13 C 0.62669(10) 0.94138(10) 0.01308(9)
H63_13 H 0.642873 0.935145 0.024989
C143_13 C 0.68214(7) 0.73975(7) 0.00325(6)
C107_13 C 0.625000 0.875000 0.875000
C108_13 C 0.60309(7) 0.88869(7) 0.89767(7)
C109_13 C 0.57885(6) 0.95940(7) 0.97744(7)
H57_13 H 0.562768 0.965687 0.965426
C110_13 C 0.61008(7) 0.90461(7) 0.92352(7)
H58_13 H 0.630188 0.907509 0.928983
C111_13 C 0.54973(7) 0.89555(8) 0.90659(9)
H59_13 H 0.529673 0.892463 0.901043
C112_13 C 0.59471(7) 0.93378(7) 0.96925(7)
C114_13 C 0.57328(7) 0.88389(7) 0.88895(7)
C115_13 C 0.55687(8) 0.91191(8) 0.93270(8)
H60_13 H 0.541384 0.919971 0.944436
C116_13 C 0.58705(7) 0.91635(7) 0.94144(7)
C118_13 C 0.61878(10) 0.92517(9) 0.98754(9)
H61_13 H 0.629872 0.908039 0.982457
C121_13 C 0.60309(7) 0.86131(7) 0.85233(7)
C122_13 C 0.57885(6) 0.79060(7) 0.77256(7)
H64_13 H 0.562768 0.784313 0.784574
C123_13 C 0.61008(7) 0.84539(7) 0.82648(7)
H65_13 H 0.630188 0.842491 0.821017
C124_13 C 0.54973(7) 0.85445(8) 0.84341(9)
H66_13 H 0.529673 0.857537 0.848957
C125_13 C 0.59471(7) 0.81622(7) 0.78075(7)
C126_13 C 0.58602(7) 0.77414(7) 0.74730(6)
C127_13 C 0.57328(7) 0.86611(7) 0.86105(7)
C128_13 C 0.55687(8) 0.83809(8) 0.81730(8)
H67_13 H 0.541384 0.830029 0.805564
C129_13 C 0.58705(7) 0.83365(7) 0.80856(7)
C130_13 C 0.56786(7) 0.74675(6) 0.73975(7)
C131_13 C 0.61878(10) 0.82483(9) 0.76246(9)
H68_13 H 0.629872 0.841961 0.767543
C132_13 C 0.61017(9) 0.78271(9) 0.72908(8)
H69_13 H 0.615260 0.771492 0.712028
C133_13 C 0.62669(10) 0.80862(10) 0.73692(9)
H70_13 H 0.642873 0.814855 0.725011
C134_13 C 0.64691(7) 0.85233(7) 0.88869(7)
C135_13 C 0.67115(6) 0.77256(7) 0.95940(7)
H71_13 H 0.687232 0.784574 0.965687
C136_13 C 0.63992(7) 0.82648(7) 0.90461(7)
H72_13 H 0.619812 0.821017 0.907509
C137_13 C 0.70027(7) 0.84341(9) 0.89555(8)
H73_13 H 0.720327 0.848957 0.892463
C138_13 C 0.65529(7) 0.78075(7) 0.93378(7)
C139_13 C 0.66398(7) 0.74730(6) 0.97586(7)
C140_13 C 0.67672(7) 0.86105(7) 0.88389(7)
C141_13 C 0.69313(8) 0.81730(8) 0.91191(8)
H74_13 H 0.708616 0.805564 0.919971
C142_13 C 0.66295(7) 0.80856(7) 0.91635(7)
C144_13 C 0.63122(10) 0.76246(9) 0.92517(9)
H75_13 H 0.620128 0.767543 0.908039
C145_13 C 0.63983(9) 0.72908(8) 0.96729(9)
H76_13 H 0.634740 0.712028 0.978508
C146_13 C 0.62331(10) 0.73692(9) 0.94138(10)
H77_13 H 0.607127 0.725011 0.935145
C147_13 C 0.64691(7) 0.89767(7) 0.86131(7)
C148_13 C 0.67115(6) 0.97744(7) 0.79060(7)
H78_13 H 0.687232 0.965426 0.784313
C149_13 C 0.63992(7) 0.92352(7) 0.84539(7)
H79_13 H 0.619812 0.928983 0.842491
C150_13 C 0.70027(7) 0.90659(9) 0.85445(8)
H80_13 H 0.720327 0.901043 0.857537
C151_13 C 0.65529(7) 0.96925(7) 0.81622(7)
C153_13 C 0.67672(7) 0.88895(7) 0.86611(7)
C154_13 C 0.69313(8) 0.93270(8) 0.83809(8)
H81_13 H 0.708616 0.944436 0.830029
C155_13 C 0.66295(7) 0.94144(7) 0.83365(7)
C157_13 C 0.63122(10) 0.98754(9) 0.82483(9)
H82_13 H 0.620128 0.982457 0.841961
C113_14 C 0.66398(7) 0.27414(7) 0.00270(6)
C117_14 C 0.68214(7) 0.24675(6) 0.01025(7)
C119_14 C 0.63983(9) 0.28271(9) 0.02092(8)
H62_14 H 0.634740 0.271492 0.037972
C120_14 C 0.62331(10) 0.30862(10) 0.01308(9)
H63_14 H 0.607127 0.314855 0.024989
C143_14 C 0.56786(7) 0.51025(7) 0.00325(6)
C107_14 C 0.625000 0.375000 0.875000
C108_14 C 0.64691(7) 0.36131(7) 0.89767(7)
C109_14 C 0.67115(6) 0.29060(7) 0.97744(7)
H57_14 H 0.687232 0.284313 0.965426
C110_14 C 0.63992(7) 0.34539(7) 0.92352(7)
H58_14 H 0.619812 0.342491 0.928983
C111_14 C 0.70027(7) 0.35445(8) 0.90659(9)
H59_14 H 0.720327 0.357537 0.901043
C112_14 C 0.65529(7) 0.31622(7) 0.96925(7)
C114_14 C 0.67672(7) 0.36611(7) 0.88895(7)
C115_14 C 0.69313(8) 0.33809(8) 0.93270(8)
H60_14 H 0.708616 0.330029 0.944436
C116_14 C 0.66295(7) 0.33365(7) 0.94144(7)
C118_14 C 0.63122(10) 0.32483(9) 0.98754(9)
H61_14 H 0.620128 0.341961 0.982457
C121_14 C 0.64691(7) 0.38869(7) 0.85233(7)
C122_14 C 0.67115(6) 0.45940(7) 0.77256(7)
H64_14 H 0.687232 0.465687 0.784574
C123_14 C 0.63992(7) 0.40461(7) 0.82648(7)
H65_14 H 0.619812 0.407509 0.821017
C124_14 C 0.70027(7) 0.39555(8) 0.84341(9)
H66_14 H 0.720327 0.392463 0.848957
C125_14 C 0.65529(7) 0.43378(7) 0.78075(7)
C126_14 C 0.66398(7) 0.47586(7) 0.74730(6)
C127_14 C 0.67672(7) 0.38389(7) 0.86105(7)
C128_14 C 0.69313(8) 0.41191(8) 0.81730(8)
H67_14 H 0.708616 0.419971 0.805564
C129_14 C 0.66295(7) 0.41635(7) 0.80856(7)
C130_14 C 0.68214(7) 0.50325(6) 0.73975(7)
C131_14 C 0.63122(10) 0.42517(9) 0.76246(9)
H68_14 H 0.620128 0.408039 0.767543
C132_14 C 0.63983(9) 0.46729(9) 0.72908(8)
H69_14 H 0.634740 0.478508 0.712028
C133_14 C 0.62331(10) 0.44138(10) 0.73692(9)
H70_14 H 0.607127 0.435145 0.725011
C134_14 C 0.60309(7) 0.39767(7) 0.88869(7)
C135_14 C 0.57885(6) 0.47744(7) 0.95940(7)
H71_14 H 0.562768 0.465426 0.965687
C136_14 C 0.61008(7) 0.42352(7) 0.90461(7)
H72_14 H 0.630188 0.428983 0.907509
C137_14 C 0.54973(7) 0.40659(9) 0.89555(8)
H73_14 H 0.529673 0.401043 0.892463
C138_14 C 0.59471(7) 0.46925(7) 0.93378(7)
C139_14 C 0.58602(7) 0.50270(6) 0.97586(7)
C140_14 C 0.57328(7) 0.38895(7) 0.88389(7)
C141_14 C 0.55687(8) 0.43270(8) 0.91191(8)
H74_14 H 0.541384 0.444436 0.919971
C142_14 C 0.58705(7) 0.44144(7) 0.91635(7)
C144_14 C 0.61878(10) 0.48754(9) 0.92517(9)
H75_14 H 0.629872 0.482457 0.908039
C145_14 C 0.61017(9) 0.52092(8) 0.96729(9)
H76_14 H 0.615260 0.537972 0.978508
C146_14 C 0.62669(10) 0.51308(9) 0.94138(10)
H77_14 H 0.642873 0.524989 0.935145
C147_14 C 0.60309(7) 0.35233(7) 0.86131(7)
C148_14 C 0.57885(6) 0.27256(7) 0.79060(7)
H78_14 H 0.562768 0.284574 0.784313
C149_14 C 0.61008(7) 0.32648(7) 0.84539(7)
H79_14 H 0.630188 0.321017 0.842491
C150_14 C 0.54973(7) 0.34341(9) 0.85445(8)
H80_14 H 0.529673 0.348957 0.857537
C151_14 C 0.59471(7) 0.28075(7) 0.81622(7)
C152_14 C 0.58602(7) 0.24730(6) 0.77414(7)
C153_14 C 0.57328(7) 0.36105(7) 0.86611(7)
C154_14 C 0.55687(8) 0.31730(8) 0.83809(8)
H81_14 H 0.541384 0.305564 0.830029
C155_14 C 0.58705(7) 0.30856(7) 0.83365(7)
C156_14 C 0.56786(7) 0.23975(7) 0.74675(6)
C157_14 C 0.61878(10) 0.26246(9) 0.82483(9)
H82_14 H 0.629872 0.267543 0.841961
C158_14 C 0.61017(9) 0.22908(8) 0.78271(9)
H83_14 H 0.615260 0.212028 0.771492
C159_14 C 0.62669(10) 0.23692(9) 0.80862(10)
H84_14 H 0.642873 0.225011 0.814855
C107_15 C 0.625000 0.375000 0.375000
C108_15 C 0.60309(7) 0.36131(7) 0.35233(7)
C109_15 C 0.57885(6) 0.29060(7) 0.27256(7)
H57_15 H 0.562768 0.284313 0.284574
C110_15 C 0.61008(7) 0.34539(7) 0.32648(7)
H58_15 H 0.630188 0.342491 0.321017
C111_15 C 0.54973(7) 0.35445(8) 0.34341(9)
H59_15 H 0.529673 0.357537 0.348957
C112_15 C 0.59471(7) 0.31622(7) 0.28075(7)
C113_15 C 0.58602(7) 0.27414(7) 0.24730(6)
C114_15 C 0.57328(7) 0.36611(7) 0.36105(7)
C115_15 C 0.55687(8) 0.33809(8) 0.31730(8)
H60_15 H 0.541384 0.330029 0.305564
C116_15 C 0.58705(7) 0.33365(7) 0.30856(7)
C117_15 C 0.56786(7) 0.24675(6) 0.23975(7)
C118_15 C 0.61878(10) 0.32483(9) 0.26246(9)
H61_15 H 0.629872 0.341961 0.267543
C119_15 C 0.61017(9) 0.28271(9) 0.22908(8)
H62_15 H 0.615260 0.271492 0.212028
C120_15 C 0.62669(10) 0.30862(10) 0.23692(9)
H63_15 H 0.642873 0.314855 0.225011
C121_15 C 0.60309(7) 0.38869(7) 0.39767(7)
C122_15 C 0.57885(6) 0.45940(7) 0.47744(7)
H64_15 H 0.562768 0.465687 0.465426
C123_15 C 0.61008(7) 0.40461(7) 0.42352(7)
H65_15 H 0.630188 0.407509 0.428983
C124_15 C 0.54973(7) 0.39555(8) 0.40659(9)
H66_15 H 0.529673 0.392463 0.401043
C125_15 C 0.59471(7) 0.43378(7) 0.46925(7)
C126_15 C 0.58602(7) 0.47586(7) 0.50270(6)
C127_15 C 0.57328(7) 0.38389(7) 0.38895(7)
C128_15 C 0.55687(8) 0.41191(8) 0.43270(8)
H67_15 H 0.541384 0.419971 0.444436
C129_15 C 0.58705(7) 0.41635(7) 0.44144(7)
C130_15 C 0.56786(7) 0.50325(6) 0.51025(7)
C131_15 C 0.61878(10) 0.42517(9) 0.48754(9)
H68_15 H 0.629872 0.408039 0.482457
C132_15 C 0.61017(9) 0.46729(9) 0.52092(8)
H69_15 H 0.615260 0.478508 0.537972
C133_15 C 0.62669(10) 0.44138(10) 0.51308(9)
H70_15 H 0.642873 0.435145 0.524989
C134_15 C 0.64691(7) 0.39767(7) 0.36131(7)
C135_15 C 0.67115(6) 0.47744(7) 0.29060(7)
H71_15 H 0.687232 0.465426 0.284313
C136_15 C 0.63992(7) 0.42352(7) 0.34539(7)
H72_15 H 0.619812 0.428983 0.342491
C137_15 C 0.70027(7) 0.40659(9) 0.35445(8)
H73_15 H 0.720327 0.401043 0.357537
C138_15 C 0.65529(7) 0.46925(7) 0.31622(7)
C139_15 C 0.66398(7) 0.50270(6) 0.27414(7)
C140_15 C 0.67672(7) 0.38895(7) 0.36611(7)
C141_15 C 0.69313(8) 0.43270(8) 0.33809(8)
H74_15 H 0.708616 0.444436 0.330029
C142_15 C 0.66295(7) 0.44144(7) 0.33365(7)
C143_15 C 0.68214(7) 0.51025(7) 0.24675(6)
C144_15 C 0.63122(10) 0.48754(9) 0.32483(9)
H75_15 H 0.620128 0.482457 0.341961
C145_15 C 0.63983(9) 0.52092(8) 0.28271(9)
H76_15 H 0.634740 0.537972 0.271492
C146_15 C 0.62331(10) 0.51308(9) 0.30862(10)
H77_15 H 0.607127 0.524989 0.314855
C147_15 C 0.64691(7) 0.35233(7) 0.38869(7)
C148_15 C 0.67115(6) 0.27256(7) 0.45940(7)
H78_15 H 0.687232 0.284574 0.465687
C149_15 C 0.63992(7) 0.32648(7) 0.40461(7)
H79_15 H 0.619812 0.321017 0.407509
C150_15 C 0.70027(7) 0.34341(9) 0.39555(8)
H80_15 H 0.720327 0.348957 0.392463
C151_15 C 0.65529(7) 0.28075(7) 0.43378(7)
C152_15 C 0.66398(7) 0.24730(6) 0.47586(7)
C153_15 C 0.67672(7) 0.36105(7) 0.38389(7)
C154_15 C 0.69313(8) 0.31730(8) 0.41191(8)
H81_15 H 0.708616 0.305564 0.419971
C155_15 C 0.66295(7) 0.30856(7) 0.41635(7)
C156_15 C 0.68214(7) 0.23975(7) 0.50325(6)
C157_15 C 0.63122(10) 0.26246(9) 0.42517(9)
H82_15 H 0.620128 0.267543 0.408039
C158_15 C 0.63983(9) 0.22908(8) 0.46729(9)
H83_15 H 0.634740 0.212028 0.478508
C159_15 C 0.62331(10) 0.23692(9) 0.44138(10)
H84_15 H 0.607127 0.225011 0.435145
C117_16 C 0.68214(7) 0.00325(6) 0.23975(7)
C152_16 C 0.58602(7) 0.00270(6) 0.47586(7)
C156_16 C 0.56786(7) 0.01025(7) 0.50325(6)
C158_16 C 0.61017(9) 0.02092(8) 0.46729(9)
H83_16 H 0.615260 0.037972 0.478508
C159_16 C 0.62669(10) 0.01308(9) 0.44138(10)
H84_16 H 0.642873 0.024989 0.435145
C107_16 C 0.625000 0.875000 0.375000
C108_16 C 0.64691(7) 0.88869(7) 0.35233(7)
C109_16 C 0.67115(6) 0.95940(7) 0.27256(7)
H57_16 H 0.687232 0.965687 0.284574
C110_16 C 0.63992(7) 0.90461(7) 0.32648(7)
H58_16 H 0.619812 0.907509 0.321017
C111_16 C 0.70027(7) 0.89555(8) 0.34341(9)
H59_16 H 0.720327 0.892463 0.348957
C112_16 C 0.65529(7) 0.93378(7) 0.28075(7)
C113_16 C 0.66398(7) 0.97586(7) 0.24730(6)
C114_16 C 0.67672(7) 0.88389(7) 0.36105(7)
C115_16 C 0.69313(8) 0.91191(8) 0.31730(8)
H60_16 H 0.708616 0.919971 0.305564
C116_16 C 0.66295(7) 0.91635(7) 0.30856(7)
C118_16 C 0.63122(10) 0.92517(9) 0.26246(9)
H61_16 H 0.620128 0.908039 0.267543
C119_16 C 0.63983(9) 0.96729(9) 0.22908(8)
H62_16 H 0.634740 0.978508 0.212028
C120_16 C 0.62331(10) 0.94138(10) 0.23692(9)
H63_16 H 0.607127 0.935145 0.225011
C121_16 C 0.64691(7) 0.86131(7) 0.39767(7)
C122_16 C 0.67115(6) 0.79060(7) 0.47744(7)
H64_16 H 0.687232 0.784313 0.465426
C123_16 C 0.63992(7) 0.84539(7) 0.42352(7)
H65_16 H 0.619812 0.842491 0.428983
C124_16 C 0.70027(7) 0.85445(8) 0.40659(9)
H66_16 H 0.720327 0.857537 0.401043
C125_16 C 0.65529(7) 0.81622(7) 0.46925(7)
C126_16 C 0.66398(7) 0.77414(7) 0.50270(6)
C127_16 C 0.67672(7) 0.86611(7) 0.38895(7)
C128_16 C 0.69313(8) 0.83809(8) 0.43270(8)
H67_16 H 0.708616 0.830029 0.444436
C129_16 C 0.66295(7) 0.83365(7) 0.44144(7)
C130_16 C 0.68214(7) 0.74675(6) 0.51025(7)
C131_16 C 0.63122(10) 0.82483(9) 0.48754(9)
H68_16 H 0.620128 0.841961 0.482457
C132_16 C 0.63983(9) 0.78271(9) 0.52092(8)
H69_16 H 0.634740 0.771492 0.537972
C133_16 C 0.62331(10) 0.80862(10) 0.51308(9)
H70_16 H 0.607127 0.814855 0.524989
C134_16 C 0.60309(7) 0.85233(7) 0.36131(7)
C135_16 C 0.57885(6) 0.77256(7) 0.29060(7)
H71_16 H 0.562768 0.784574 0.284313
C136_16 C 0.61008(7) 0.82648(7) 0.34539(7)
H72_16 H 0.630188 0.821017 0.342491
C137_16 C 0.54973(7) 0.84341(9) 0.35445(8)
H73_16 H 0.529673 0.848957 0.357537
C138_16 C 0.59471(7) 0.78075(7) 0.31622(7)
C139_16 C 0.58602(7) 0.74730(6) 0.27414(7)
C140_16 C 0.57328(7) 0.86105(7) 0.36611(7)
C141_16 C 0.55687(8) 0.81730(8) 0.33809(8)
H74_16 H 0.541384 0.805564 0.330029
C142_16 C 0.58705(7) 0.80856(7) 0.33365(7)
C143_16 C 0.56786(7) 0.73975(7) 0.24675(6)
C144_16 C 0.61878(10) 0.76246(9) 0.32483(9)
H75_16 H 0.629872 0.767543 0.341961
C145_16 C 0.61017(9) 0.72908(8) 0.28271(9)
H76_16 H 0.615260 0.712028 0.271492
C146_16 C 0.62669(10) 0.73692(9) 0.30862(10)
H77_16 H 0.642873 0.725011 0.314855
C147_16 C 0.60309(7) 0.89767(7) 0.38869(7)
C148_16 C 0.57885(6) 0.97744(7) 0.45940(7)
H78_16 H 0.562768 0.965426 0.465687
C149_16 C 0.61008(7) 0.92352(7) 0.40461(7)
H79_16 H 0.630188 0.928983 0.407509
C150_16 C 0.54973(7) 0.90659(9) 0.39555(8)
H80_16 H 0.529673 0.901043 0.392463
C151_16 C 0.59471(7) 0.96925(7) 0.43378(7)
C153_16 C 0.57328(7) 0.88895(7) 0.38389(7)
C154_16 C 0.55687(8) 0.93270(8) 0.41191(8)
H81_16 H 0.541384 0.944436 0.419971
C155_16 C 0.58705(7) 0.94144(7) 0.41635(7)
C157_16 C 0.61878(10) 0.98754(9) 0.42517(9)
H82_16 H 0.629872 0.982457 0.408039
C1_14 C 0.875000 0.125000 0.625000
C2_14 C 0.85309(7) 0.10233(7) 0.63869(7)
C3_14 C 0.82885(6) 0.02256(7) 0.70940(7)
H1_14 H 0.812768 0.034574 0.715687
C4_14 C 0.86008(7) 0.07648(7) 0.65461(7)
H2_14 H 0.880188 0.071017 0.657509
C5_14 C 0.79973(7) 0.09341(9) 0.64555(8)
H3_14 H 0.779673 0.098957 0.642463
C6_14 C 0.84471(7) 0.03075(7) 0.68378(7)
C8_14 C 0.82328(7) 0.11105(7) 0.63389(7)
C9_14 C 0.80687(8) 0.06730(8) 0.66191(8)
H4_14 H 0.791384 0.055564 0.669971
C10_14 C 0.83705(7) 0.05856(7) 0.66635(7)
C12_14 C 0.86878(10) 0.01246(9) 0.67517(9)
H5_14 H 0.879872 0.017543 0.658039
C15_14 C 0.85309(7) 0.14767(7) 0.61131(7)
C16_14 C 0.82885(6) 0.22744(7) 0.54060(7)
H8_14 H 0.812768 0.215426 0.534313
C17_14 C 0.86008(7) 0.17352(7) 0.59539(7)
H9_14 H 0.880188 0.178983 0.592491
C18_14 C 0.79973(7) 0.15659(9) 0.60445(8)
H10_14 H 0.779673 0.151043 0.607537
C19_14 C 0.84471(7) 0.21925(7) 0.56622(7)
C20_14 C 0.83602(7) 0.25270(6) 0.52414(7)
C21_14 C 0.82328(7) 0.13895(7) 0.61611(7)
C22_14 C 0.80687(8) 0.18270(8) 0.58809(8)
H11_14 H 0.791384 0.194436 0.580029
C23_14 C 0.83705(7) 0.19144(7) 0.58365(7)
C24_14 C 0.81786(7) 0.26025(7) 0.49675(6)
C25_14 C 0.86878(10) 0.23754(9) 0.57483(9)
H12_14 H 0.879872 0.232457 0.591961
C26_14 C 0.86017(9) 0.27092(8) 0.53271(9)
H13_14 H 0.865260 0.287972 0.521492
C27_14 C 0.87669(10) 0.26308(9) 0.55862(10)
H14_14 H 0.892873 0.274989 0.564855
C28_14 C 0.89691(7) 0.11131(7) 0.60233(7)
C29_14 C 0.92115(6) 0.04060(7) 0.52256(7)
H15_14 H 0.937232 0.034313 0.534574
C30_14 C 0.88992(7) 0.09539(7) 0.57648(7)
H16_14 H 0.869812 0.092491 0.571017
C31_14 C 0.95027(7) 0.10445(8) 0.59341(9)
H17_14 H 0.970327 0.107537 0.598957
C32_14 C 0.90529(7) 0.06622(7) 0.53075(7)
C33_14 C 0.91398(7) 0.02414(7) 0.49730(6)
C34_14 C 0.92672(7) 0.11611(7) 0.61105(7)
C35_14 C 0.94313(8) 0.08809(8) 0.56730(8)
H18_14 H 0.958616 0.080029 0.555564
C36_14 C 0.91295(7) 0.08365(7) 0.55856(7)
C38_14 C 0.88122(10) 0.07483(9) 0.51246(9)
H19_14 H 0.870128 0.091961 0.517543
C39_14 C 0.88983(9) 0.03271(9) 0.47908(8)
H20_14 H 0.884740 0.021492 0.462028
C40_14 C 0.87331(10) 0.05862(10) 0.48692(9)
H21_14 H 0.857127 0.064855 0.475011
C41_14 C 0.89691(7) 0.13869(7) 0.64767(7)
C42_14 C 0.92115(6) 0.20940(7) 0.72744(7)
H22_14 H 0.937232 0.215687 0.715426
C43_14 C 0.88992(7) 0.15461(7) 0.67352(7)
H23_14 H 0.869812 0.157509 0.678983
C44_14 C 0.95027(7) 0.14555(8) 0.65659(9)
H24_14 H 0.970327 0.142463 0.651043
C45_14 C 0.90529(7) 0.18378(7) 0.71925(7)
C46_14 C 0.91398(7) 0.22586(7) 0.75270(6)
C47_14 C 0.92672(7) 0.13389(7) 0.63895(7)
C48_14 C 0.94313(8) 0.16191(8) 0.68270(8)
H25_14 H 0.958616 0.169971 0.694436
C49_14 C 0.91295(7) 0.16635(7) 0.69144(7)
C50_14 C 0.93214(7) 0.25325(6) 0.76025(7)
C51_14 C 0.88122(10) 0.17517(9) 0.73754(9)
H26_14 H 0.870128 0.158039 0.732457
C52_14 C 0.88983(9) 0.21729(9) 0.77092(8)
H27_14 H 0.884740 0.228508 0.787972
C53_14 C 0.87331(10) 0.19138(10) 0.76308(9)
H28_14 H 0.857127 0.185145 0.774989
C7_14 C 0.83602(7) 0.99730(6) 0.72586(7)
C11_14 C 0.81786(7) 0.98975(7) 0.75325(6)
C13_14 C 0.86017(9) 0.97908(8) 0.71729(9)
H6_14 H 0.865260 0.962028 0.728508
C14_14 C 0.87669(10) 0.98692(9) 0.69138(10)
H7_14 H 0.892873 0.975011 0.685145
C37_14 C 0.93214(7) 0.99675(6) 0.48975(7)
O28_31 O 0.82449(6) 0.92551(6) 0.32449(6)
O28_32 O 0.82449(6) 0.42551(6) 0.82449(6)
C107_17 C 0.875000 0.625000 0.125000
C108_17 C 0.85309(7) 0.64767(7) 0.11131(7)
C109_17 C 0.82885(6) 0.72744(7) 0.04060(7)
H57_17 H 0.812768 0.715426 0.034313
C110_17 C 0.86008(7) 0.67352(7) 0.09539(7)
H58_17 H 0.880188 0.678983 0.092491
C111_17 C 0.79973(7) 0.65659(9) 0.10445(8)
H59_17 H 0.779673 0.651043 0.107537
C112_17 C 0.84471(7) 0.71925(7) 0.06622(7)
C113_17 C 0.83602(7) 0.75270(6) 0.02414(7)
C114_17 C 0.82328(7) 0.63895(7) 0.11611(7)
C115_17 C 0.80687(8) 0.68270(8) 0.08809(8)
H60_17 H 0.791384 0.694436 0.080029
C116_17 C 0.83705(7) 0.69144(7) 0.08365(7)
C118_17 C 0.86878(10) 0.73754(9) 0.07483(9)
H61_17 H 0.879872 0.732457 0.091961
C119_17 C 0.86017(9) 0.77092(8) 0.03271(9)
H62_17 H 0.865260 0.787972 0.021492
C120_17 C 0.87669(10) 0.76308(9) 0.05862(10)
H63_17 H 0.892873 0.774989 0.064855
C121_17 C 0.85309(7) 0.60233(7) 0.13869(7)
C122_17 C 0.82885(6) 0.52256(7) 0.20940(7)
H64_17 H 0.812768 0.534574 0.215687
C123_17 C 0.86008(7) 0.57648(7) 0.15461(7)
H65_17 H 0.880188 0.571017 0.157509
C124_17 C 0.79973(7) 0.59341(9) 0.14555(8)
H66_17 H 0.779673 0.598957 0.142463
C125_17 C 0.84471(7) 0.53075(7) 0.18378(7)
C126_17 C 0.83602(7) 0.49730(6) 0.22586(7)
C127_17 C 0.82328(7) 0.61105(7) 0.13389(7)
C128_17 C 0.80687(8) 0.56730(8) 0.16191(8)
H67_17 H 0.791384 0.555564 0.169971
C129_17 C 0.83705(7) 0.55856(7) 0.16635(7)
C130_17 C 0.81786(7) 0.48975(7) 0.25325(6)
C131_17 C 0.86878(10) 0.51246(9) 0.17517(9)
H68_17 H 0.879872 0.517543 0.158039
C132_17 C 0.86017(9) 0.47908(8) 0.21729(9)
H69_17 H 0.865260 0.462028 0.228508
C133_17 C 0.87669(10) 0.48692(9) 0.19138(10)
H70_17 H 0.892873 0.475011 0.185145
C134_17 C 0.89691(7) 0.63869(7) 0.14767(7)
C135_17 C 0.92115(6) 0.70940(7) 0.22744(7)
H71_17 H 0.937232 0.715687 0.215426
C136_17 C 0.88992(7) 0.65461(7) 0.17352(7)
H72_17 H 0.869812 0.657509 0.178983
C137_17 C 0.95027(7) 0.64555(8) 0.15659(9)
H73_17 H 0.970327 0.642463 0.151043
C138_17 C 0.90529(7) 0.68378(7) 0.21925(7)
C139_17 C 0.91398(7) 0.72586(7) 0.25270(6)
C140_17 C 0.92672(7) 0.63389(7) 0.13895(7)
C141_17 C 0.94313(8) 0.66191(8) 0.18270(8)
H74_17 H 0.958616 0.669971 0.194436
C142_17 C 0.91295(7) 0.66635(7) 0.19144(7)
C143_17 C 0.93214(7) 0.75325(6) 0.26025(7)
C144_17 C 0.88122(10) 0.67517(9) 0.23754(9)
H75_17 H 0.870128 0.658039 0.232457
C145_17 C 0.88983(9) 0.71729(9) 0.27092(8)
H76_17 H 0.884740 0.728508 0.287972
C146_17 C 0.87331(10) 0.69138(10) 0.26308(9)
H77_17 H 0.857127 0.685145 0.274989
C147_17 C 0.89691(7) 0.61131(7) 0.10233(7)
C148_17 C 0.92115(6) 0.54060(7) 0.02256(7)
H78_17 H 0.937232 0.534313 0.034574
C149_17 C 0.88992(7) 0.59539(7) 0.07648(7)
H79_17 H 0.869812 0.592491 0.071017
C150_17 C 0.95027(7) 0.60445(8) 0.09341(9)
H80_17 H 0.970327 0.607537 0.098957
C151_17 C 0.90529(7) 0.56622(7) 0.03075(7)
C153_17 C 0.92672(7) 0.61611(7) 0.11105(7)
C154_17 C 0.94313(8) 0.58809(8) 0.06730(8)
H81_17 H 0.958616 0.580029 0.055564
C155_17 C 0.91295(7) 0.58365(7) 0.05856(7)
C157_17 C 0.88122(10) 0.57483(9) 0.01246(9)
H82_17 H 0.870128 0.591961 0.017543
C117_17 C 0.81786(7) 0.76025(7) 0.99675(6)
C152_17 C 0.91398(7) 0.52414(7) 0.99730(6)
C156_17 C 0.93214(7) 0.49675(6) 0.98975(7)
C158_17 C 0.88983(9) 0.53271(9) 0.97908(8)
H83_17 H 0.884740 0.521492 0.962028
C159_17 C 0.87331(10) 0.55862(10) 0.98692(9)
H84_17 H 0.857127 0.564855 0.975011
loop_
_geom_bond_atom_site_label_1
_geom_bond_atom_site_label_2
_geom_bond_site_symmetry_1
_geom_bond_site_symmetry_2
O4 C24 1_555 1_555
C24 C20 1_555 1_555
C26 C20 1_555 1_555
H13 C26 1_555 1_555
H14 C27 1_555 1_555
O8 C50 1_555 1_555
O9 C50 1_555 1_555
O17 C103 1_555 1_555
Zn5 O4 1_555 1_555
O19 Zn5 1_555 1_555
O20 C117 1_555 1_555
O21 Zn5 1_555 1_555
C117 O19 1_555 1_555
O26 C156 1_555 1_555
C156 C152 1_555 1_555
C158 C152 1_555 1_555
H83 C158 1_555 1_555
H84 C159 1_555 1_555
Zn10 O9 1_555 1_555
Zn15 O8 1_555 1_555
Zn16 O17 1_555 1_555
Zn17 O26 1_555 1_555
O29 Zn5 1_555 1_555
C26 C27 1_555 1_555
O20 Zn7 1_555 1_555
C158 C159 1_555 1_555
Zn3 O11 1_555 1_555
Zn4 O10 1_555 1_555
O10 C64 1_555 1_555
O11 C64 1_555 1_555
O12 Zn4 1_555 1_555
C105 C99 1_555 1_555
H55 C105 1_555 1_555
H56 C106 1_555 1_555
C107 C108 1_555 1_555
C108 C110 1_555 1_555
C109 H57 1_555 1_555
C110 H58 1_555 1_555
C111 H59 1_555 1_555
C112 C109 1_555 1_555
C113 C109 1_555 1_555
C114 C108 1_555 1_555
C115 C111 1_555 1_555
H60 C115 1_555 1_555
C116 C110 1_555 1_555
C118 C112 1_555 1_555
H61 C118 1_555 1_555
C119 C113 1_555 1_555
H62 C119 1_555 1_555
C120 C118 1_555 1_555
H63 C120 1_555 1_555
O22 Zn4 1_555 1_555
O23 Zn3 1_555 1_555
C121 C107 1_555 1_555
C122 H64 1_555 1_555
C123 C121 1_555 1_555
H65 C123 1_555 1_555
C124 H66 1_555 1_555
C125 C122 1_555 1_555
C126 C122 1_555 1_555
C127 C114 1_555 1_555
C128 C124 1_555 1_555
H67 C128 1_555 1_555
C129 C123 1_555 1_555
C130 O22 1_555 1_555
C131 C125 1_555 1_555
H68 C131 1_555 1_555
C132 C126 1_555 1_555
H69 C132 1_555 1_555
C133 C131 1_555 1_555
H70 C133 1_555 1_555
O24 C143 1_555 1_555
O25 C143 1_555 1_555
C134 C107 1_555 1_555
C135 H71 1_555 1_555
C136 C134 1_555 1_555
H72 C136 1_555 1_555
C137 H73 1_555 1_555
C138 C135 1_555 1_555
C139 C135 1_555 1_555
C140 C134 1_555 1_555
C141 C137 1_555 1_555
H74 C141 1_555 1_555
C142 C136 1_555 1_555
C143 C139 1_555 1_555
C144 C138 1_555 1_555
H75 C144 1_555 1_555
C145 C139 1_555 1_555
H76 C145 1_555 1_555
C146 C144 1_555 1_555
H77 C146 1_555 1_555
C147 C107 1_555 1_555
C148 H78 1_555 1_555
C149 C147 1_555 1_555
H79 C149 1_555 1_555
C150 H80 1_555 1_555
C151 C148 1_555 1_555
C153 C140 1_555 1_555
C154 C150 1_555 1_555
H81 C154 1_555 1_555
C155 C149 1_555 1_555
C157 C151 1_555 1_555
H82 C157 1_555 1_555
Zn8_2 O27 1_555 1_555
Zn9 O25 1_555 1_555
Zn18 O24 1_555 1_555
O31 Zn4 1_555 1_555
O41 Zn3 1_555 1_555
C105 C106 1_555 1_555
C111 C114 1_555 1_555
C112 C116 1_555 1_555
C115 C116 1_555 1_555
C119 C120 1_555 1_555
O23 C130 1_555 1_555
C121 C127 1_555 1_555
C124 C127 1_555 1_555
C125 C129 1_555 1_555
C126 C130 1_555 1_555
C128 C129 1_555 1_555
C132 C133 1_555 1_555
C137 C140 1_555 1_555
C138 C142 1_555 1_555
C141 C142 1_555 1_555
C145 C146 1_555 1_555
C147 C153 1_555 1_555
C150 C153 1_555 1_555
C151 C155 1_555 1_555
C154 C155 1_555 1_555
Zn1 O2 1_555 1_555
Zn2 O1 1_555 1_555
O1 C11 1_555 1_555
O2 C11 1_555 1_555
O3 Zn2 1_555 1_555
C1 C2 1_555 1_555
C2 C4 1_555 1_555
C3 H1 1_555 1_555
C4 H2 1_555 1_555
C5 H3 1_555 1_555
C6 C3 1_555 1_555
C7 C3 1_555 1_555
C8 C2 1_555 1_555
C9 C5 1_555 1_555
H4 C9 1_555 1_555
C10 C4 1_555 1_555
C11 C7 1_555 1_555
C12 C6 1_555 1_555
H5 C12 1_555 1_555
C13 C7 1_555 1_555
H6 C13 1_555 1_555
C14 C12 1_555 1_555
H7 C14 1_555 1_555
C15 C1 1_555 1_555
C16 H8 1_555 1_555
C17 C15 1_555 1_555
H9 C17 1_555 1_555
C18 H10 1_555 1_555
C19 C16 1_555 1_555
C21 C8 1_555 1_555
C22 C18 1_555 1_555
H11 C22 1_555 1_555
C23 C17 1_555 1_555
C25 C19 1_555 1_555
H12 C25 1_555 1_555
O6 C37 1_555 1_555
O7 C37 1_555 1_555
C28 C1 1_555 1_555
C29 H15 1_555 1_555
C30 C28 1_555 1_555
H16 C30 1_555 1_555
C31 H17 1_555 1_555
C32 C29 1_555 1_555
C33 C29 1_555 1_555
C34 C28 1_555 1_555
C35 C31 1_555 1_555
H18 C35 1_555 1_555
C36 C30 1_555 1_555
C37 C33 1_555 1_555
C38 C32 1_555 1_555
H19 C38 1_555 1_555
C39 C33 1_555 1_555
H20 C39 1_555 1_555
C40 C38 1_555 1_555
H21 C40 1_555 1_555
C41 C1 1_555 1_555
C42 H22 1_555 1_555
C43 C41 1_555 1_555
H23 C43 1_555 1_555
C44 H24 1_555 1_555
C45 C42 1_555 1_555
C46 C42 1_555 1_555
C47 C34 1_555 1_555
C48 C44 1_555 1_555
H25 C48 1_555 1_555
C49 C43 1_555 1_555
C51 C45 1_555 1_555
H26 C51 1_555 1_555
C52 C46 1_555 1_555
H27 C52 1_555 1_555
C53 C51 1_555 1_555
H28 C53 1_555 1_555
O13 Zn2 1_555 1_555
C77 O13 1_555 1_555
C79 C73 1_555 1_555
H41 C79 1_555 1_555
H42 C80 1_555 1_555
Zn6 O6 1_555 1_555
O28 Zn6 1_555 1_555
Zn7_3 O5 1_555 1_555
Zn11_5 O18 1_555 1_555
Zn12 O7 1_555 1_555
O30 Zn2 1_555 1_555
O32 Zn6 1_555 1_555
O33 Zn6 1_555 1_555
O34 Zn1 1_555 1_555
O38 Zn1 1_555 1_555
C5 C8 1_555 1_555
C6 C10 1_555 1_555
C9 C10 1_555 1_555
C13 C14 1_555 1_555
C15 C21 1_555 1_555
C18 C21 1_555 1_555
C19 C23 1_555 1_555
C22 C23 1_555 1_555
C31 C34 1_555 1_555
C32 C36 1_555 1_555
C35 C36 1_555 1_555
C39 C40 1_555 1_555
C41 C47 1_555 1_555
C44 C47 1_555 1_555
C45 C49 1_555 1_555
C48 C49 1_555 1_555
C52 C53 1_555 1_555
C73 C77 1_555 1_555
C79 C80 1_555 1_555
C54 C55 1_555 1_555
C55 C57 1_555 1_555
C56 H29 1_555 1_555
C57 H30 1_555 1_555
C58 H31 1_555 1_555
C59 C56 1_555 1_555
C60 C56 1_555 1_555
C61 C55 1_555 1_555
C62 C58 1_555 1_555
H32 C62 1_555 1_555
C63 C57 1_555 1_555
C65 C59 1_555 1_555
H33 C65 1_555 1_555
C66 C60 1_555 1_555
H34 C66 1_555 1_555
C67 C65 1_555 1_555
H35 C67 1_555 1_555
O14 Zn1_2 1_555 1_555
C68 C54 1_555 1_555
C69 H36 1_555 1_555
C70 C68 1_555 1_555
H37 C70 1_555 1_555
C71 H38 1_555 1_555
C72 C69 1_555 1_555
C74 C61 1_555 1_555
C75 C71 1_555 1_555
H39 C75 1_555 1_555
C76 C70 1_555 1_555
C78 C72 1_555 1_555
H40 C78 1_555 1_555
O15 C90 1_555 1_555
O16 C90 1_555 1_555
C81 C54 1_555 1_555
C82 H43 1_555 1_555
C83 C81 1_555 1_555
H44 C83 1_555 1_555
C84 H45 1_555 1_555
C85 C82 1_555 1_555
C86 C82 1_555 1_555
C87 C81 1_555 1_555
C88 C84 1_555 1_555
H46 C88 1_555 1_555
C89 C83 1_555 1_555
C90 C86 1_555 1_555
C91 C85 1_555 1_555
H47 C91 1_555 1_555
C92 C86 1_555 1_555
H48 C92 1_555 1_555
C93 C91 1_555 1_555
H49 C93 1_555 1_555
C94 C54 1_555 1_555
C95 H50 1_555 1_555
C96 C94 1_555 1_555
H51 C96 1_555 1_555
C97 H52 1_555 1_555
C98 C95 1_555 1_555
C100 C87 1_555 1_555
C101 C97 1_555 1_555
H53 C101 1_555 1_555
C102 C96 1_555 1_555
C104 C98 1_555 1_555
H54 C104 1_555 1_555
Zn13 O16 1_555 1_555
Zn14 O15 1_555 1_555
O35 Zn3_2 1_555 1_555
O36 Zn3_2 1_555 1_555
O37 Zn1_2 1_555 1_555
O39 Zn3_2 1_555 1_555
O40 Zn1_2 1_555 1_555
C58 C61 1_555 1_555
C59 C63 1_555 1_555
C62 C63 1_555 1_555
C66 C67 1_555 1_555
C68 C74 1_555 1_555
C71 C74 1_555 1_555
C72 C76 1_555 1_555
C75 C76 1_555 1_555
C84 C87 1_555 1_555
C85 C89 1_555 1_555
C88 C89 1_555 1_555
C92 C93 1_555 1_555
C94 C100 1_555 1_555
C97 C100 1_555 1_555
C98 C102 1_555 1_555
C101 C102 1_555 1_555
Zn1_3 O2_2 1_555 1_555
Zn2_2 O1_2 1_555 1_555
O1_2 C11_2 1_555 1_555
O2_2 C11_2 1_555 1_555
O3_2 Zn2_2 1_555 1_555
C1_2 C2_2 1_555 1_555
C2_2 C4_2 1_555 1_555
C3_2 H1_2 1_555 1_555
C4_2 H2_2 1_555 1_555
C5_2 H3_2 1_555 1_555
C6_2 C3_2 1_555 1_555
C7_2 C3_2 1_555 1_555
C8_2 C2_2 1_555 1_555
C9_2 C5_2 1_555 1_555
H4_2 C9_2 1_555 1_555
C10_2 C4_2 1_555 1_555
C11_2 C7_2 1_555 1_555
C12_2 C6_2 1_555 1_555
H5_2 C12_2 1_555 1_555
C13_2 C7_2 1_555 1_555
H6_2 C13_2 1_555 1_555
C14_2 C12_2 1_555 1_555
H7_2 C14_2 1_555 1_555
O4_2 C24_2 1_555 1_555
O5_2 C24_2 1_555 1_555
C15_2 C1_2 1_555 1_555
C16_2 H8_2 1_555 1_555
C17_2 C15_2 1_555 1_555
H9_2 C17_2 1_555 1_555
C18_2 H10_2 1_555 1_555
C19_2 C16_2 1_555 1_555
C20_2 C16_2 1_555 1_555
C21_2 C8_2 1_555 1_555
C22_2 C18_2 1_555 1_555
H11_2 C22_2 1_555 1_555
C23_2 C17_2 1_555 1_555
C24_2 C20_2 1_555 1_555
C25_2 C19_2 1_555 1_555
H12_2 C25_2 1_555 1_555
C26_2 C20_2 1_555 1_555
H13_2 C26_2 1_555 1_555
C27_2 C25_2 1_555 1_555
H14_2 C27_2 1_555 1_555
O6_2 C37_2 1_555 1_555
O7_2 C37_2 1_555 1_555
C28_2 C1_2 1_555 1_555
C29_2 H15_2 1_555 1_555
C30_2 C28_2 1_555 1_555
H16_2 C30_2 1_555 1_555
C31_2 H17_2 1_555 1_555
C32_2 C29_2 1_555 1_555
C33_2 C29_2 1_555 1_555
C34_2 C28_2 1_555 1_555
C35_2 C31_2 1_555 1_555
H18_2 C35_2 1_555 1_555
C36_2 C30_2 1_555 1_555
C37_2 C33_2 1_555 1_555
C38_2 C32_2 1_555 1_555
H19_2 C38_2 1_555 1_555
C39_2 C33_2 1_555 1_555
H20_2 C39_2 1_555 1_555
C40_2 C38_2 1_555 1_555
H21_2 C40_2 1_555 1_555
O8_2 C50_2 1_555 1_555
O9_2 C50_2 1_555 1_555
C41_2 C1_2 1_555 1_555
C42_2 H22_2 1_555 1_555
C43_2 C41_2 1_555 1_555
H23_2 C43_2 1_555 1_555
C44_2 H24_2 1_555 1_555
C45_2 C42_2 1_555 1_555
C46_2 C42_2 1_555 1_555
C47_2 C34_2 1_555 1_555
C48_2 C44_2 1_555 1_555
H25_2 C48_2 1_555 1_555
C49_2 C43_2 1_555 1_555
C50_2 C46_2 1_555 1_555
C51_2 C45_2 1_555 1_555
H26_2 C51_2 1_555 1_555
C52_2 C46_2 1_555 1_555
H27_2 C52_2 1_555 1_555
C53_2 C51_2 1_555 1_555
H28_2 C53_2 1_555 1_555
Zn3_3 O11_2 1_555 1_555
Zn4_2 O10_2 1_555 1_555
O10_2 C64_2 1_555 1_555
O11_2 C64_2 1_555 1_555
O12_2 Zn4_2 1_555 1_555
C54_2 C55_2 1_555 1_555
C55_2 C57_2 1_555 1_555
C56_2 H29_2 1_555 1_555
C57_2 H30_2 1_555 1_555
C58_2 H31_2 1_555 1_555
C59_2 C56_2 1_555 1_555
C60_2 C56_2 1_555 1_555
C61_2 C55_2 1_555 1_555
C62_2 C58_2 1_555 1_555
H32_2 C62_2 1_555 1_555
C63_2 C57_2 1_555 1_555
C64_2 C60_2 1_555 1_555
C65_2 C59_2 1_555 1_555
H33_2 C65_2 1_555 1_555
C66_2 C60_2 1_555 1_555
H34_2 C66_2 1_555 1_555
C67_2 C65_2 1_555 1_555
H35_2 C67_2 1_555 1_555
O13_2 Zn2_2 1_555 1_555
O14_2 Zn1_3 1_555 1_555
C68_2 C54_2 1_555 1_555
C69_2 H36_2 1_555 1_555
C70_2 C68_2 1_555 1_555
H37_2 C70_2 1_555 1_555
C71_2 H38_2 1_555 1_555
C72_2 C69_2 1_555 1_555
C73_2 C69_2 1_555 1_555
C74_2 C61_2 1_555 1_555
C75_2 C71_2 1_555 1_555
H39_2 C75_2 1_555 1_555
C76_2 C70_2 1_555 1_555
C77_2 O13_2 1_555 1_555
C78_2 C72_2 1_555 1_555
H40_2 C78_2 1_555 1_555
C79_2 C73_2 1_555 1_555
H41_2 C79_2 1_555 1_555
C80_2 C78_2 1_555 1_555
H42_2 C80_2 1_555 1_555
O15_2 C90_2 1_555 1_555
O16_2 C90_2 1_555 1_555
C81_2 C54_2 1_555 1_555
C82_2 H43_2 1_555 1_555
C83_2 C81_2 1_555 1_555
H44_2 C83_2 1_555 1_555
C84_2 H45_2 1_555 1_555
C85_2 C82_2 1_555 1_555
C86_2 C82_2 1_555 1_555
C87_2 C81_2 1_555 1_555
C88_2 C84_2 1_555 1_555
H46_2 C88_2 1_555 1_555
C89_2 C83_2 1_555 1_555
C90_2 C86_2 1_555 1_555
C91_2 C85_2 1_555 1_555
H47_2 C91_2 1_555 1_555
C92_2 C86_2 1_555 1_555
H48_2 C92_2 1_555 1_555
C93_2 C91_2 1_555 1_555
H49_2 C93_2 1_555 1_555
O17_2 C103_2 1_555 1_555
O18_2 C103_2 1_555 1_555
C94_2 C54_2 1_555 1_555
C95_2 H50_2 1_555 1_555
C96_2 C94_2 1_555 1_555
H51_2 C96_2 1_555 1_555
C97_2 H52_2 1_555 1_555
C98_2 C95_2 1_555 1_555
C99_2 C95_2 1_555 1_555
C100_2 C87_2 1_555 1_555
C101_2 C97_2 1_555 1_555
H53_2 C101_2 1_555 1_555
C102_2 C96_2 1_555 1_555
C103_2 C99_2 1_555 1_555
C104_2 C98_2 1_555 1_555
H54_2 C104_2 1_555 1_555
C105_2 C99_2 1_555 1_555
H55_2 C105_2 1_555 1_555
C106_2 C104_2 1_555 1_555
H56_2 C106_2 1_555 1_555
Zn5_2 O4_2 1_555 1_555
O19_2 Zn5_2 1_555 1_555
O20_2 C117_2 1_555 1_555
O21_2 Zn5_2 1_555 1_555
C107_2 C108_2 1_555 1_555
C108_2 C110_2 1_555 1_555
C109_2 H57_2 1_555 1_555
C110_2 H58_2 1_555 1_555
C111_2 H59_2 1_555 1_555
C112_2 C109_2 1_555 1_555
C113_2 C109_2 1_555 1_555
C114_2 C108_2 1_555 1_555
C115_2 C111_2 1_555 1_555
H60_2 C115_2 1_555 1_555
C116_2 C110_2 1_555 1_555
C117_2 O19_2 1_555 1_555
C118_2 C112_2 1_555 1_555
H61_2 C118_2 1_555 1_555
C119_2 C113_2 1_555 1_555
H62_2 C119_2 1_555 1_555
C120_2 C118_2 1_555 1_555
H63_2 C120_2 1_555 1_555
O22_2 Zn4_2 1_555 1_555
O23_2 Zn3_3 1_555 1_555
C121_2 C107_2 1_555 1_555
C122_2 H64_2 1_555 1_555
C123_2 C121_2 1_555 1_555
H65_2 C123_2 1_555 1_555
C124_2 H66_2 1_555 1_555
C125_2 C122_2 1_555 1_555
C126_2 C122_2 1_555 1_555
C127_2 C114_2 1_555 1_555
C128_2 C124_2 1_555 1_555
H67_2 C128_2 1_555 1_555
C129_2 C123_2 1_555 1_555
C130_2 O22_2 1_555 1_555
C131_2 C125_2 1_555 1_555
H68_2 C131_2 1_555 1_555
C132_2 C126_2 1_555 1_555
H69_2 C132_2 1_555 1_555
C133_2 C131_2 1_555 1_555
H70_2 C133_2 1_555 1_555
O24_2 C143_2 1_555 1_555
O25_2 C143_2 1_555 1_555
C134_2 C107_2 1_555 1_555
C135_2 H71_2 1_555 1_555
C136_2 C134_2 1_555 1_555
H72_2 C136_2 1_555 1_555
C137_2 H73_2 1_555 1_555
C138_2 C135_2 1_555 1_555
C139_2 C135_2 1_555 1_555
C140_2 C134_2 1_555 1_555
C141_2 C137_2 1_555 1_555
H74_2 C141_2 1_555 1_555
C142_2 C136_2 1_555 1_555
C143_2 C139_2 1_555 1_555
C144_2 C138_2 1_555 1_555
H75_2 C144_2 1_555 1_555
C145_2 C139_2 1_555 1_555
H76_2 C145_2 1_555 1_555
C146_2 C144_2 1_555 1_555
H77_2 C146_2 1_555 1_555
O26_2 C156_2 1_555 1_555
O27_2 C156_2 1_555 1_555
C147_2 C107_2 1_555 1_555
C148_2 H78_2 1_555 1_555
C149_2 C147_2 1_555 1_555
H79_2 C149_2 1_555 1_555
C150_2 H80_2 1_555 1_555
C151_2 C148_2 1_555 1_555
C152_2 C148_2 1_555 1_555
C153_2 C140_2 1_555 1_555
C154_2 C150_2 1_555 1_555
H81_2 C154_2 1_555 1_555
C155_2 C149_2 1_555 1_555
C156_2 C152_2 1_555 1_555
C157_2 C151_2 1_555 1_555
H82_2 C157_2 1_555 1_555
C158_2 C152_2 1_555 1_555
H83_2 C158_2 1_555 1_555
C159_2 C157_2 1_555 1_555
H84_2 C159_2 1_555 1_555
Zn6_2 O6_2 1_555 1_555
O28_2 Zn6_2 1_555 1_555
Zn7_5 O5_2 1_555 1_555
Zn10 O27_2 1_555 1_555
Zn9_2 O25_2 1_555 1_555
Zn8 O9_2 1_555 1_555
Zn11_9 O18_2 1_555 1_555
Zn12_2 O7_2 1_555 1_555
Zn13_3 O16_2 1_555 1_555
Zn14_2 O15_2 1_555 1_555
Zn17 O8_2 1_555 1_555
Zn16_2 O17_2 1_555 1_555
Zn15 O26_2 1_555 1_555
Zn18_2 O24_2 1_555 1_555
O29_2 Zn5_2 1_555 1_555
O30_2 Zn2_2 1_555 1_555
O31_2 Zn4_2 1_555 1_555
O32_2 Zn6_2 1_555 1_555
O33_2 Zn6_2 1_555 1_555
O34_2 Zn1_3 1_555 1_555
O35_2 Zn3_3 1_555 1_555
O36_2 Zn3_3 1_555 1_555
O37_2 Zn1_3 1_555 1_555
O38_2 Zn1_3 1_555 1_555
O39_2 Zn3_3 1_555 1_555
O40_2 Zn1_3 1_555 1_555
O41_2 Zn3_3 1_555 1_555
C5_2 C8_2 1_555 1_555
C6_2 C10_2 1_555 1_555
C9_2 C10_2 1_555 1_555
C13_2 C14_2 1_555 1_555
C15_2 C21_2 1_555 1_555
C18_2 C21_2 1_555 1_555
C19_2 C23_2 1_555 1_555
C22_2 C23_2 1_555 1_555
C26_2 C27_2 1_555 1_555
C31_2 C34_2 1_555 1_555
C32_2 C36_2 1_555 1_555
C35_2 C36_2 1_555 1_555
C39_2 C40_2 1_555 1_555
C41_2 C47_2 1_555 1_555
C44_2 C47_2 1_555 1_555
C45_2 C49_2 1_555 1_555
C48_2 C49_2 1_555 1_555
C52_2 C53_2 1_555 1_555
C58_2 C61_2 1_555 1_555
C59_2 C63_2 1_555 1_555
C62_2 C63_2 1_555 1_555
C66_2 C67_2 1_555 1_555
O14_2 C77_2 1_555 1_555
C68_2 C74_2 1_555 1_555
C71_2 C74_2 1_555 1_555
C72_2 C76_2 1_555 1_555
C73_2 C77_2 1_555 1_555
C75_2 C76_2 1_555 1_555
C79_2 C80_2 1_555 1_555
C84_2 C87_2 1_555 1_555
C85_2 C89_2 1_555 1_555
C88_2 C89_2 1_555 1_555
C92_2 C93_2 1_555 1_555
C94_2 C100_2 1_555 1_555
C97_2 C100_2 1_555 1_555
C98_2 C102_2 1_555 1_555
C101_2 C102_2 1_555 1_555
C105_2 C106_2 1_555 1_555
O20_2 Zn7_5 1_555 1_555
C111_2 C114_2 1_555 1_555
C112_2 C116_2 1_555 1_555
C113_2 C117_2 1_555 1_555
C115_2 C116_2 1_555 1_555
C119_2 C120_2 1_555 1_555
O23_2 C130_2 1_555 1_555
C121_2 C127_2 1_555 1_555
C124_2 C127_2 1_555 1_555
C125_2 C129_2 1_555 1_555
C126_2 C130_2 1_555 1_555
C128_2 C129_2 1_555 1_555
C132_2 C133_2 1_555 1_555
C137_2 C140_2 1_555 1_555
C138_2 C142_2 1_555 1_555
C141_2 C142_2 1_555 1_555
C145_2 C146_2 1_555 1_555
C147_2 C153_2 1_555 1_555
C150_2 C153_2 1_555 1_555
C151_2 C155_2 1_555 1_555
C154_2 C155_2 1_555 1_555
C158_2 C159_2 1_555 1_555
O8_3 C50_3 1_555 1_555
Zn3_4 O11_3 1_555 1_555
Zn4_3 O10_3 1_555 1_555
O10_3 C64_3 1_555 1_555
O11_3 C64_3 1_555 1_555
O12_3 Zn4_3 1_555 1_555
O17_3 C103_3 1_555 1_555
C103_3 C99_3 1_555 1_555
C105_3 C99_3 1_555 1_555
H55_3 C105_3 1_555 1_555
H56_3 C106_3 1_555 1_555
O22_3 Zn4_3 1_555 1_555
C130_3 O22_3 1_555 1_555
C132_3 C126_3 1_555 1_555
H69_3 C132_3 1_555 1_555
H70_3 C133_3 1_555 1_555
O26_3 C156_3 1_555 1_555
O27_3 C156_3 1_555 1_555
Zn11_9 O27_3 1_555 1_555
Zn16 O8_3 1_555 1_555
Zn15 O17_3 1_555 1_555
Zn16_2 O26_3 1_555 1_555
O31_3 Zn4_3 1_555 1_555
C105_3 C106_3 1_555 1_555
C126_3 C130_3 1_555 1_555
C132_3 C133_3 1_555 1_555
O4_3 C24_3 1_555 1_555
C24_3 C20_3 1_555 1_555
C26_3 C20_3 1_555 1_555
H13_3 C26_3 1_555 1_555
H14_3 C27_3 1_555 1_555
Zn5_3 O4_3 1_555 1_555
O19_3 Zn5_3 1_555 1_555
O20_3 C117_3 1_555 1_555
O21_3 Zn5_3 1_555 1_555
C107_3 C108_3 1_555 1_555
C108_3 C110_3 1_555 1_555
C109_3 H57_3 1_555 1_555
C110_3 H58_3 1_555 1_555
C111_3 H59_3 1_555 1_555
C112_3 C109_3 1_555 1_555
C113_3 C109_3 1_555 1_555
C114_3 C108_3 1_555 1_555
C115_3 C111_3 1_555 1_555
H60_3 C115_3 1_555 1_555
C116_3 C110_3 1_555 1_555
C117_3 O19_3 1_555 1_555
C118_3 C112_3 1_555 1_555
H61_3 C118_3 1_555 1_555
C119_3 C113_3 1_555 1_555
H62_3 C119_3 1_555 1_555
C120_3 C118_3 1_555 1_555
H63_3 C120_3 1_555 1_555
O23_3 Zn3_5 1_555 1_555
C121_3 C107_3 1_555 1_555
C122_3 H64_3 1_555 1_555
C123_3 C121_3 1_555 1_555
H65_3 C123_3 1_555 1_555
C124_3 H66_3 1_555 1_555
C125_3 C122_3 1_555 1_555
C127_3 C114_3 1_555 1_555
C128_3 C124_3 1_555 1_555
H67_3 C128_3 1_555 1_555
C129_3 C123_3 1_555 1_555
C131_3 C125_3 1_555 1_555
H68_3 C131_3 1_555 1_555
O24_3 C143_3 1_555 1_555
O25_3 C143_3 1_555 1_555
C134_3 C107_3 1_555 1_555
C135_3 H71_3 1_555 1_555
C136_3 C134_3 1_555 1_555
H72_3 C136_3 1_555 1_555
C137_3 H73_3 1_555 1_555
C138_3 C135_3 1_555 1_555
C139_3 C135_3 1_555 1_555
C140_3 C134_3 1_555 1_555
C141_3 C137_3 1_555 1_555
H74_3 C141_3 1_555 1_555
C142_3 C136_3 1_555 1_555
C143_3 C139_3 1_555 1_555
C144_3 C138_3 1_555 1_555
H75_3 C144_3 1_555 1_555
C145_3 C139_3 1_555 1_555
H76_3 C145_3 1_555 1_555
C146_3 C144_3 1_555 1_555
H77_3 C146_3 1_555 1_555
C147_3 C107_3 1_555 1_555
C148_3 H78_3 1_555 1_555
C149_3 C147_3 1_555 1_555
H79_3 C149_3 1_555 1_555
C150_3 H80_3 1_555 1_555
C151_3 C148_3 1_555 1_555
C152_3 C148_3 1_555 1_555
C153_3 C140_3 1_555 1_555
C154_3 C150_3 1_555 1_555
H81_3 C154_3 1_555 1_555
C155_3 C149_3 1_555 1_555
C157_3 C151_3 1_555 1_555
H82_3 C157_3 1_555 1_555
C158_3 C152_3 1_555 1_555
H83_3 C158_3 1_555 1_555
C159_3 C157_3 1_555 1_555
H84_3 C159_3 1_555 1_555
Zn9_4 O25_3 1_555 1_555
Zn11_2 O9_3 1_555 1_555
Zn18_3 O24_3 1_555 1_555
O29_3 Zn5_3 1_555 1_555
O41_3 Zn3_5 1_555 1_555
C26_3 C27_3 1_555 1_555
O20_3 Zn7_6 1_555 1_555
C111_3 C114_3 1_555 1_555
C112_3 C116_3 1_555 1_555
C113_3 C117_3 1_555 1_555
C115_3 C116_3 1_555 1_555
C119_3 C120_3 1_555 1_555
C121_3 C127_3 1_555 1_555
C124_3 C127_3 1_555 1_555
C125_3 C129_3 1_555 1_555
C128_3 C129_3 1_555 1_555
C137_3 C140_3 1_555 1_555
C138_3 C142_3 1_555 1_555
C141_3 C142_3 1_555 1_555
C145_3 C146_3 1_555 1_555
C147_3 C153_3 1_555 1_555
C150_3 C153_3 1_555 1_555
C151_3 C155_3 1_555 1_555
C154_3 C155_3 1_555 1_555
C158_3 C159_3 1_555 1_555
Zn1_4 O2_3 1_555 1_555
Zn2_3 O1_3 1_555 1_555
O1_3 C11_3 1_555 1_555
O2_3 C11_3 1_555 1_555
O3_3 Zn2_3 1_555 1_555
C52_3 C46_3 1_555 1_555
H27_3 C52_3 1_555 1_555
H28_3 C53_3 1_555 1_555
C54_3 C55_3 1_555 1_555
C55_3 C57_3 1_555 1_555
C56_3 H29_3 1_555 1_555
C57_3 H30_3 1_555 1_555
C58_3 H31_3 1_555 1_555
C59_3 C56_3 1_555 1_555
C60_3 C56_3 1_555 1_555
C61_3 C55_3 1_555 1_555
C62_3 C58_3 1_555 1_555
H32_3 C62_3 1_555 1_555
C63_3 C57_3 1_555 1_555
C65_3 C59_3 1_555 1_555
H33_3 C65_3 1_555 1_555
C66_3 C60_3 1_555 1_555
H34_3 C66_3 1_555 1_555
C67_3 C65_3 1_555 1_555
H35_3 C67_3 1_555 1_555
O13_3 Zn2_3 1_555 1_555
O14_3 Zn1_4 1_555 1_555
C68_3 C54_3 1_555 1_555
C69_3 H36_3 1_555 1_555
C70_3 C68_3 1_555 1_555
H37_3 C70_3 1_555 1_555
C71_3 H38_3 1_555 1_555
C72_3 C69_3 1_555 1_555
C73_3 C69_3 1_555 1_555
C74_3 C61_3 1_555 1_555
C75_3 C71_3 1_555 1_555
H39_3 C75_3 1_555 1_555
C76_3 C70_3 1_555 1_555
C77_3 O13_3 1_555 1_555
C78_3 C72_3 1_555 1_555
H40_3 C78_3 1_555 1_555
C79_3 C73_3 1_555 1_555
H41_3 C79_3 1_555 1_555
C80_3 C78_3 1_555 1_555
H42_3 C80_3 1_555 1_555
O15_3 C90_3 1_555 1_555
O16_3 C90_3 1_555 1_555
C81_3 C54_3 1_555 1_555
C82_3 H43_3 1_555 1_555
C83_3 C81_3 1_555 1_555
H44_3 C83_3 1_555 1_555
C84_3 H45_3 1_555 1_555
C85_3 C82_3 1_555 1_555
C86_3 C82_3 1_555 1_555
C87_3 C81_3 1_555 1_555
C88_3 C84_3 1_555 1_555
H46_3 C88_3 1_555 1_555
C89_3 C83_3 1_555 1_555
C90_3 C86_3 1_555 1_555
C91_3 C85_3 1_555 1_555
H47_3 C91_3 1_555 1_555
C92_3 C86_3 1_555 1_555
H48_3 C92_3 1_555 1_555
C93_3 C91_3 1_555 1_555
H49_3 C93_3 1_555 1_555
C94_3 C54_3 1_555 1_555
C95_3 H50_3 1_555 1_555
C96_3 C94_3 1_555 1_555
H51_3 C96_3 1_555 1_555
C97_3 H52_3 1_555 1_555
C98_3 C95_3 1_555 1_555
C100_3 C87_3 1_555 1_555
C101_3 C97_3 1_555 1_555
H53_3 C101_3 1_555 1_555
C102_3 C96_3 1_555 1_555
C104_3 C98_3 1_555 1_555
H54_3 C104_3 1_555 1_555
Zn10_2 O18_3 1_555 1_555
Zn13_5 O16_3 1_555 1_555
Zn14_3 O15_3 1_555 1_555
O30_3 Zn2_3 1_555 1_555
O35_3 Zn3_6 1_555 1_555
O36_3 Zn3_6 1_555 1_555
O37_3 Zn1_4 1_555 1_555
C52_3 C53_3 1_555 1_555
C58_3 C61_3 1_555 1_555
C59_3 C63_3 1_555 1_555
C62_3 C63_3 1_555 1_555
C66_3 C67_3 1_555 1_555
O14_3 C77_3 1_555 1_555
C68_3 C74_3 1_555 1_555
C71_3 C74_3 1_555 1_555
C72_3 C76_3 1_555 1_555
C73_3 C77_3 1_555 1_555
C75_3 C76_3 1_555 1_555
C79_3 C80_3 1_555 1_555
C84_3 C87_3 1_555 1_555
C85_3 C89_3 1_555 1_555
C88_3 C89_3 1_555 1_555
C92_3 C93_3 1_555 1_555
C94_3 C100_3 1_555 1_555
C97_3 C100_3 1_555 1_555
C98_3 C102_3 1_555 1_555
C101_3 C102_3 1_555 1_555
C1_3 C2_3 1_555 1_555
C2_3 C4_3 1_555 1_555
C3_3 H1_3 1_555 1_555
C4_3 H2_3 1_555 1_555
C5_3 H3_3 1_555 1_555
C6_3 C3_3 1_555 1_555
C7_3 C3_3 1_555 1_555
C8_3 C2_3 1_555 1_555
C9_3 C5_3 1_555 1_555
H4_3 C9_3 1_555 1_555
C10_3 C4_3 1_555 1_555
C12_3 C6_3 1_555 1_555
H5_3 C12_3 1_555 1_555
C13_3 C7_3 1_555 1_555
H6_3 C13_3 1_555 1_555
C14_3 C12_3 1_555 1_555
H7_3 C14_3 1_555 1_555
C15_3 C1_3 1_555 1_555
C16_3 H8_3 1_555 1_555
C17_3 C15_3 1_555 1_555
H9_3 C17_3 1_555 1_555
C18_3 H10_3 1_555 1_555
C19_3 C16_3 1_555 1_555
C21_3 C8_3 1_555 1_555
C22_3 C18_3 1_555 1_555
H11_3 C22_3 1_555 1_555
C23_3 C17_3 1_555 1_555
C25_3 C19_3 1_555 1_555
H12_3 C25_3 1_555 1_555
O6_3 C37_3 1_555 1_555
O7_3 C37_3 1_555 1_555
C28_3 C1_3 1_555 1_555
C29_3 H15_3 1_555 1_555
C30_3 C28_3 1_555 1_555
H16_3 C30_3 1_555 1_555
C31_3 H17_3 1_555 1_555
C32_3 C29_3 1_555 1_555
C33_3 C29_3 1_555 1_555
C34_3 C28_3 1_555 1_555
C35_3 C31_3 1_555 1_555
H18_3 C35_3 1_555 1_555
C36_3 C30_3 1_555 1_555
C37_3 C33_3 1_555 1_555
C38_3 C32_3 1_555 1_555
H19_3 C38_3 1_555 1_555
C39_3 C33_3 1_555 1_555
H20_3 C39_3 1_555 1_555
C40_3 C38_3 1_555 1_555
H21_3 C40_3 1_555 1_555
C41_3 C1_3 1_555 1_555
C42_3 H22_3 1_555 1_555
C43_3 C41_3 1_555 1_555
H23_3 C43_3 1_555 1_555
C44_3 H24_3 1_555 1_555
C45_3 C42_3 1_555 1_555
C47_3 C34_3 1_555 1_555
C48_3 C44_3 1_555 1_555
H25_3 C48_3 1_555 1_555
C49_3 C43_3 1_555 1_555
C51_3 C45_3 1_555 1_555
H26_3 C51_3 1_555 1_555
Zn6_3 O6_3 1_555 1_555
O28_3 Zn6_3 1_555 1_555
Zn7_7 O5_3 1_555 1_555
Zn12_4 O7_3 1_555 1_555
O32_3 Zn6_3 1_555 1_555
O33_3 Zn6_3 1_555 1_555
O34_3 Zn1_5 1_555 1_555
O38_3 Zn1_5 1_555 1_555
O39_3 Zn3_7 1_555 1_555
O40_3 Zn1_5 1_555 1_555
C5_3 C8_3 1_555 1_555
C6_3 C10_3 1_555 1_555
C9_3 C10_3 1_555 1_555
C13_3 C14_3 1_555 1_555
C15_3 C21_3 1_555 1_555
C18_3 C21_3 1_555 1_555
C19_3 C23_3 1_555 1_555
C22_3 C23_3 1_555 1_555
C31_3 C34_3 1_555 1_555
C32_3 C36_3 1_555 1_555
C35_3 C36_3 1_555 1_555
C39_3 C40_3 1_555 1_555
C41_3 C47_3 1_555 1_555
C44_3 C47_3 1_555 1_555
C45_3 C49_3 1_555 1_555
C48_3 C49_3 1_555 1_555
Zn1_6 O2_4 1_555 1_555
Zn2_4 O1_4 1_555 1_555
O1_4 C11_4 1_555 1_555
O2_4 C11_4 1_555 1_555
O3_4 Zn2_4 1_555 1_555
O8_4 C50_4 1_555 1_555
C50_4 C46_4 1_555 1_555
C52_4 C46_4 1_555 1_555
H27_4 C52_4 1_555 1_555
H28_4 C53_4 1_555 1_555
O13_4 Zn2_4 1_555 1_555
C77_4 O13_4 1_555 1_555
C79_4 C73_4 1_555 1_555
H41_4 C79_4 1_555 1_555
H42_4 C80_4 1_555 1_555
O17_4 C103_4 1_555 1_555
O18_4 C103_4 1_555 1_555
O26_4 C156_4 1_555 1_555
Zn8 O18_4 1_555 1_555
Zn16_2 O8_4 1_555 1_555
Zn17 O17_4 1_555 1_555
Zn16 O26_4 1_555 1_555
O30_4 Zn2_4 1_555 1_555
C52_4 C53_4 1_555 1_555
C73_4 C77_4 1_555 1_555
C79_4 C80_4 1_555 1_555
C1_4 C2_4 1_555 1_555
C2_4 C4_4 1_555 1_555
C3_4 H1_4 1_555 1_555
C4_4 H2_4 1_555 1_555
C5_4 H3_4 1_555 1_555
C6_4 C3_4 1_555 1_555
C7_4 C3_4 1_555 1_555
C8_4 C2_4 1_555 1_555
C9_4 C5_4 1_555 1_555
H4_4 C9_4 1_555 1_555
C10_4 C4_4 1_555 1_555
C12_4 C6_4 1_555 1_555
H5_4 C12_4 1_555 1_555
C13_4 C7_4 1_555 1_555
H6_4 C13_4 1_555 1_555
C14_4 C12_4 1_555 1_555
H7_4 C14_4 1_555 1_555
O4_4 C24_4 1_555 1_555
O5_4 C24_4 1_555 1_555
C15_4 C1_4 1_555 1_555
C16_4 H8_4 1_555 1_555
C17_4 C15_4 1_555 1_555
H9_4 C17_4 1_555 1_555
C18_4 H10_4 1_555 1_555
C19_4 C16_4 1_555 1_555
C20_4 C16_4 1_555 1_555
C21_4 C8_4 1_555 1_555
C22_4 C18_4 1_555 1_555
H11_4 C22_4 1_555 1_555
C23_4 C17_4 1_555 1_555
C24_4 C20_4 1_555 1_555
C25_4 C19_4 1_555 1_555
H12_4 C25_4 1_555 1_555
C26_4 C20_4 1_555 1_555
H13_4 C26_4 1_555 1_555
C27_4 C25_4 1_555 1_555
H14_4 C27_4 1_555 1_555
O6_4 C37_4 1_555 1_555
O7_4 C37_4 1_555 1_555
C28_4 C1_4 1_555 1_555
C29_4 H15_4 1_555 1_555
C30_4 C28_4 1_555 1_555
H16_4 C30_4 1_555 1_555
C31_4 H17_4 1_555 1_555
C32_4 C29_4 1_555 1_555
C33_4 C29_4 1_555 1_555
C34_4 C28_4 1_555 1_555
C35_4 C31_4 1_555 1_555
H18_4 C35_4 1_555 1_555
C36_4 C30_4 1_555 1_555
C37_4 C33_4 1_555 1_555
C38_4 C32_4 1_555 1_555
H19_4 C38_4 1_555 1_555
C39_4 C33_4 1_555 1_555
H20_4 C39_4 1_555 1_555
C40_4 C38_4 1_555 1_555
H21_4 C40_4 1_555 1_555
C41_4 C1_4 1_555 1_555
C42_4 H22_4 1_555 1_555
C43_4 C41_4 1_555 1_555
H23_4 C43_4 1_555 1_555
C44_4 H24_4 1_555 1_555
C45_4 C42_4 1_555 1_555
C47_4 C34_4 1_555 1_555
C48_4 C44_4 1_555 1_555
H25_4 C48_4 1_555 1_555
C49_4 C43_4 1_555 1_555
C51_4 C45_4 1_555 1_555
H26_4 C51_4 1_555 1_555
Zn5_4 O4_4 1_555 1_555
O19_4 Zn5_4 1_555 1_555
O20_4 C117_4 1_555 1_555
O21_4 Zn5_4 1_555 1_555
C117_4 O19_4 1_555 1_555
C158_4 C152_4 1_555 1_555
H83_4 C158_4 1_555 1_555
H84_4 C159_4 1_555 1_555
Zn6_4 O6_4 1_555 1_555
O28_4 Zn6_4 1_555 1_555
Zn7_8 O5_4 1_555 1_555
Zn11_10 O9_4 1_555 1_555
Zn12_6 O7_4 1_555 1_555
O29_4 Zn5_4 1_555 1_555
O32_4 Zn6_4 1_555 1_555
O33_4 Zn6_4 1_555 1_555
O34_4 Zn1_7 1_555 1_555
O38_4 Zn1_7 1_555 1_555
C5_4 C8_4 1_555 1_555
C6_4 C10_4 1_555 1_555
C9_4 C10_4 1_555 1_555
C13_4 C14_4 1_555 1_555
C15_4 C21_4 1_555 1_555
C18_4 C21_4 1_555 1_555
C19_4 C23_4 1_555 1_555
C22_4 C23_4 1_555 1_555
C26_4 C27_4 1_555 1_555
C31_4 C34_4 1_555 1_555
C32_4 C36_4 1_555 1_555
C35_4 C36_4 1_555 1_555
C39_4 C40_4 1_555 1_555
C41_4 C47_4 1_555 1_555
C44_4 C47_4 1_555 1_555
C45_4 C49_4 1_555 1_555
C48_4 C49_4 1_555 1_555
O20_4 Zn7_8 1_555 1_555
C158_4 C159_4 1_555 1_555
Zn3_8 O11_4 1_555 1_555
Zn4_4 O10_4 1_555 1_555
O10_4 C64_4 1_555 1_555
O11_4 C64_4 1_555 1_555
O12_4 Zn4_4 1_555 1_555
C54_4 C55_4 1_555 1_555
C55_4 C57_4 1_555 1_555
C56_4 H29_4 1_555 1_555
C57_4 H30_4 1_555 1_555
C58_4 H31_4 1_555 1_555
C59_4 C56_4 1_555 1_555
C60_4 C56_4 1_555 1_555
C61_4 C55_4 1_555 1_555
C62_4 C58_4 1_555 1_555
H32_4 C62_4 1_555 1_555
C63_4 C57_4 1_555 1_555
C64_4 C60_4 1_555 1_555
C65_4 C59_4 1_555 1_555
H33_4 C65_4 1_555 1_555
C66_4 C60_4 1_555 1_555
H34_4 C66_4 1_555 1_555
C67_4 C65_4 1_555 1_555
H35_4 C67_4 1_555 1_555
O14_4 Zn1_8 1_555 1_555
C68_4 C54_4 1_555 1_555
C69_4 H36_4 1_555 1_555
C70_4 C68_4 1_555 1_555
H37_4 C70_4 1_555 1_555
C71_4 H38_4 1_555 1_555
C72_4 C69_4 1_555 1_555
C74_4 C61_4 1_555 1_555
C75_4 C71_4 1_555 1_555
H39_4 C75_4 1_555 1_555
C76_4 C70_4 1_555 1_555
C78_4 C72_4 1_555 1_555
H40_4 C78_4 1_555 1_555
O15_4 C90_4 1_555 1_555
O16_4 C90_4 1_555 1_555
C81_4 C54_4 1_555 1_555
C82_4 H43_4 1_555 1_555
C83_4 C81_4 1_555 1_555
H44_4 C83_4 1_555 1_555
C84_4 H45_4 1_555 1_555
C85_4 C82_4 1_555 1_555
C86_4 C82_4 1_555 1_555
C87_4 C81_4 1_555 1_555
C88_4 C84_4 1_555 1_555
H46_4 C88_4 1_555 1_555
C89_4 C83_4 1_555 1_555
C90_4 C86_4 1_555 1_555
C91_4 C85_4 1_555 1_555
H47_4 C91_4 1_555 1_555
C92_4 C86_4 1_555 1_555
H48_4 C92_4 1_555 1_555
C93_4 C91_4 1_555 1_555
H49_4 C93_4 1_555 1_555
C94_4 C54_4 1_555 1_555
C95_4 H50_4 1_555 1_555
C96_4 C94_4 1_555 1_555
H51_4 C96_4 1_555 1_555
C97_4 H52_4 1_555 1_555
C98_4 C95_4 1_555 1_555
C99_4 C95_4 1_555 1_555
C100_4 C87_4 1_555 1_555
C101_4 C97_4 1_555 1_555
H53_4 C101_4 1_555 1_555
C102_4 C96_4 1_555 1_555
C104_4 C98_4 1_555 1_555
H54_4 C104_4 1_555 1_555
C105_4 C99_4 1_555 1_555
H55_4 C105_4 1_555 1_555
C106_4 C104_4 1_555 1_555
H56_4 C106_4 1_555 1_555
O22_4 Zn4_4 1_555 1_555
C130_4 O22_4 1_555 1_555
C132_4 C126_4 1_555 1_555
H69_4 C132_4 1_555 1_555
H70_4 C133_4 1_555 1_555
Zn11_3 O27_4 1_555 1_555
Zn13_6 O16_4 1_555 1_555
Zn14_4 O15_4 1_555 1_555
O31_4 Zn4_4 1_555 1_555
O35_4 Zn3_8 1_555 1_555
O36_4 Zn3_8 1_555 1_555
O37_4 Zn1_8 1_555 1_555
C58_4 C61_4 1_555 1_555
C59_4 C63_4 1_555 1_555
C62_4 C63_4 1_555 1_555
C66_4 C67_4 1_555 1_555
C68_4 C74_4 1_555 1_555
C71_4 C74_4 1_555 1_555
C72_4 C76_4 1_555 1_555
C75_4 C76_4 1_555 1_555
C84_4 C87_4 1_555 1_555
C85_4 C89_4 1_555 1_555
C88_4 C89_4 1_555 1_555
C92_4 C93_4 1_555 1_555
C94_4 C100_4 1_555 1_555
C97_4 C100_4 1_555 1_555
C98_4 C102_4 1_555 1_555
C101_4 C102_4 1_555 1_555
C105_4 C106_4 1_555 1_555
C126_4 C130_4 1_555 1_555
C132_4 C133_4 1_555 1_555
C107_4 C108_4 1_555 1_555
C108_4 C110_4 1_555 1_555
C109_4 H57_4 1_555 1_555
C110_4 H58_4 1_555 1_555
C111_4 H59_4 1_555 1_555
C112_4 C109_4 1_555 1_555
C113_4 C109_4 1_555 1_555
C114_4 C108_4 1_555 1_555
C115_4 C111_4 1_555 1_555
H60_4 C115_4 1_555 1_555
C116_4 C110_4 1_555 1_555
C118_4 C112_4 1_555 1_555
H61_4 C118_4 1_555 1_555
C119_4 C113_4 1_555 1_555
H62_4 C119_4 1_555 1_555
C120_4 C118_4 1_555 1_555
H63_4 C120_4 1_555 1_555
O23_4 Zn3_9 1_555 1_555
C121_4 C107_4 1_555 1_555
C122_4 H64_4 1_555 1_555
C123_4 C121_4 1_555 1_555
H65_4 C123_4 1_555 1_555
C124_4 H66_4 1_555 1_555
C125_4 C122_4 1_555 1_555
C127_4 C114_4 1_555 1_555
C128_4 C124_4 1_555 1_555
H67_4 C128_4 1_555 1_555
C129_4 C123_4 1_555 1_555
C131_4 C125_4 1_555 1_555
H68_4 C131_4 1_555 1_555
O24_4 C143_4 1_555 1_555
O25_4 C143_4 1_555 1_555
C134_4 C107_4 1_555 1_555
C135_4 H71_4 1_555 1_555
C136_4 C134_4 1_555 1_555
H72_4 C136_4 1_555 1_555
C137_4 H73_4 1_555 1_555
C138_4 C135_4 1_555 1_555
C139_4 C135_4 1_555 1_555
C140_4 C134_4 1_555 1_555
C141_4 C137_4 1_555 1_555
H74_4 C141_4 1_555 1_555
C142_4 C136_4 1_555 1_555
C143_4 C139_4 1_555 1_555
C144_4 C138_4 1_555 1_555
H75_4 C144_4 1_555 1_555
C145_4 C139_4 1_555 1_555
H76_4 C145_4 1_555 1_555
C146_4 C144_4 1_555 1_555
H77_4 C146_4 1_555 1_555
C147_4 C107_4 1_555 1_555
C148_4 H78_4 1_555 1_555
C149_4 C147_4 1_555 1_555
H79_4 C149_4 1_555 1_555
C150_4 H80_4 1_555 1_555
C151_4 C148_4 1_555 1_555
C153_4 C140_4 1_555 1_555
C154_4 C150_4 1_555 1_555
H81_4 C154_4 1_555 1_555
C155_4 C149_4 1_555 1_555
C157_4 C151_4 1_555 1_555
H82_4 C157_4 1_555 1_555
Zn9_5 O25_4 1_555 1_555
Zn18_4 O24_4 1_555 1_555
O39_4 Zn3_9 1_555 1_555
O40_4 Zn1_9 1_555 1_555
O41_4 Zn3_9 1_555 1_555
C111_4 C114_4 1_555 1_555
C112_4 C116_4 1_555 1_555
C115_4 C116_4 1_555 1_555
C119_4 C120_4 1_555 1_555
C121_4 C127_4 1_555 1_555
C124_4 C127_4 1_555 1_555
C125_4 C129_4 1_555 1_555
C128_4 C129_4 1_555 1_555
C137_4 C140_4 1_555 1_555
C138_4 C142_4 1_555 1_555
C141_4 C142_4 1_555 1_555
C145_4 C146_4 1_555 1_555
C147_4 C153_4 1_555 1_555
C150_4 C153_4 1_555 1_555
C151_4 C155_4 1_555 1_555
C154_4 C155_4 1_555 1_555
O41_5 Zn7_8 1_555 1_555
O28_5 Zn14_4 1_555 1_555
O32_5 Zn14_4 1_555 1_555
O33_5 Zn14_4 1_555 1_555
O35_5 Zn7_9 1_555 1_555
O36_5 Zn7_9 1_555 1_555
O39_5 Zn7_9 1_555 1_555
O28_6 Zn18_3 1_555 1_555
O32_6 Zn18_3 1_555 1_555
O33_6 Zn18_3 1_555 1_555
O34_5 Zn7_6 1_555 1_555
O38_5 Zn7_6 1_555 1_555
O37_5 Zn7_7 1_555 1_555
O40_5 Zn7_7 1_555 1_555
O28_7 Zn14_3 1_555 1_555
O32_7 Zn14_3 1_555 1_555
O33_7 Zn14_3 1_555 1_555
O28_8 Zn18_2 1_555 1_555
O32_8 Zn18_2 1_555 1_555
O33_8 Zn18_2 1_555 1_555
O34_6 Zn7_5 1_555 1_555
O37_6 Zn7_5 1_555 1_555
O38_6 Zn7_5 1_555 1_555
O40_6 Zn7_5 1_555 1_555
O28_9 Zn14_2 1_555 1_555
O32_9 Zn14_2 1_555 1_555
O33_9 Zn14_2 1_555 1_555
O28_10 Zn18_4 1_555 1_555
O32_10 Zn18_4 1_555 1_555
O33_10 Zn18_4 1_555 1_555
O35_6 Zn7_2 1_555 1_555
O36_6 Zn7_2 1_555 1_555
O41_6 Zn7_3 1_555 1_555
O28_11 Zn14 1_555 1_555
O32_11 Zn14 1_555 1_555
O33_11 Zn14 1_555 1_555
O39_6 Zn7_4 1_555 1_555
O28_12 Zn18 1_555 1_555
O32_12 Zn18 1_555 1_555
O33_12 Zn18 1_555 1_555
Zn12_6 O2_5 1_555 1_555
Zn2_5 O1_5 1_555 1_555
O1_5 C11_5 1_555 1_555
O2_5 C11_5 1_555 1_555
O3_5 Zn2_5 1_555 1_555
C1_5 C2_5 1_555 1_555
C2_5 C4_5 1_555 1_555
C3_5 H1_5 1_555 1_555
C4_5 H2_5 1_555 1_555
C5_5 H3_5 1_555 1_555
C6_5 C3_5 1_555 1_555
C7_5 C3_5 1_555 1_555
C8_5 C2_5 1_555 1_555
C9_5 C5_5 1_555 1_555
H4_5 C9_5 1_555 1_555
C10_5 C4_5 1_555 1_555
C11_5 C7_5 1_555 1_555
C12_5 C6_5 1_555 1_555
H5_5 C12_5 1_555 1_555
C13_5 C7_5 1_555 1_555
H6_5 C13_5 1_555 1_555
C14_5 C12_5 1_555 1_555
H7_5 C14_5 1_555 1_555
C15_5 C1_5 1_555 1_555
C16_5 H8_5 1_555 1_555
C17_5 C15_5 1_555 1_555
H9_5 C17_5 1_555 1_555
C18_5 H10_5 1_555 1_555
C19_5 C16_5 1_555 1_555
C21_5 C8_5 1_555 1_555
C22_5 C18_5 1_555 1_555
H11_5 C22_5 1_555 1_555
C23_5 C17_5 1_555 1_555
C25_5 C19_5 1_555 1_555
H12_5 C25_5 1_555 1_555
O6_5 C37_5 1_555 1_555
O40_6 C37_5 1_555 1_555
C28_5 C1_5 1_555 1_555
C29_5 H15_5 1_555 1_555
C30_5 C28_5 1_555 1_555
H16_5 C30_5 1_555 1_555
C31_5 H17_5 1_555 1_555
C32_5 C29_5 1_555 1_555
C33_5 C29_5 1_555 1_555
C34_5 C28_5 1_555 1_555
C35_5 C31_5 1_555 1_555
H18_5 C35_5 1_555 1_555
C36_5 C30_5 1_555 1_555
C37_5 C33_5 1_555 1_555
C38_5 C32_5 1_555 1_555
H19_5 C38_5 1_555 1_555
C39_5 C33_5 1_555 1_555
H20_5 C39_5 1_555 1_555
C40_5 C38_5 1_555 1_555
H21_5 C40_5 1_555 1_555
C41_5 C1_5 1_555 1_555
C42_5 H22_5 1_555 1_555
C43_5 C41_5 1_555 1_555
H23_5 C43_5 1_555 1_555
C44_5 H24_5 1_555 1_555
C45_5 C42_5 1_555 1_555
C46_5 C42_5 1_555 1_555
C47_5 C34_5 1_555 1_555
C48_5 C44_5 1_555 1_555
H25_5 C48_5 1_555 1_555
C49_5 C43_5 1_555 1_555
C51_5 C45_5 1_555 1_555
H26_5 C51_5 1_555 1_555
C52_5 C46_5 1_555 1_555
H27_5 C52_5 1_555 1_555
C53_5 C51_5 1_555 1_555
H28_5 C53_5 1_555 1_555
C54_5 C55_5 1_555 1_555
C55_5 C57_5 1_555 1_555
C56_5 H29_5 1_555 1_555
C57_5 H30_5 1_555 1_555
C58_5 H31_5 1_555 1_555
C59_5 C56_5 1_555 1_555
C60_5 C56_5 1_555 1_555
C61_5 C55_5 1_555 1_555
C62_5 C58_5 1_555 1_555
H32_5 C62_5 1_555 1_555
C63_5 C57_5 1_555 1_555
C65_5 C59_5 1_555 1_555
H33_5 C65_5 1_555 1_555
C66_5 C60_5 1_555 1_555
H34_5 C66_5 1_555 1_555
C67_5 C65_5 1_555 1_555
H35_5 C67_5 1_555 1_555
O13_5 Zn2_5 1_555 1_555
O14_5 Zn12_6 1_555 1_555
C68_5 C54_5 1_555 1_555
C69_5 H36_5 1_555 1_555
C70_5 C68_5 1_555 1_555
H37_5 C70_5 1_555 1_555
C71_5 H38_5 1_555 1_555
C72_5 C69_5 1_555 1_555
C73_5 C69_5 1_555 1_555
C74_5 C61_5 1_555 1_555
C75_5 C71_5 1_555 1_555
H39_5 C75_5 1_555 1_555
C76_5 C70_5 1_555 1_555
C77_5 O13_5 1_555 1_555
C78_5 C72_5 1_555 1_555
H40_5 C78_5 1_555 1_555
C79_5 C73_5 1_555 1_555
H41_5 C79_5 1_555 1_555
C80_5 C78_5 1_555 1_555
H42_5 C80_5 1_555 1_555
O15_5 C90_5 1_555 1_555
O38_3 C90_5 1_555 1_555
C81_5 C54_5 1_555 1_555
C82_5 H43_5 1_555 1_555
C83_5 C81_5 1_555 1_555
H44_5 C83_5 1_555 1_555
C84_5 H45_5 1_555 1_555
C85_5 C82_5 1_555 1_555
C86_5 C82_5 1_555 1_555
C87_5 C81_5 1_555 1_555
C88_5 C84_5 1_555 1_555
H46_5 C88_5 1_555 1_555
C89_5 C83_5 1_555 1_555
C90_5 C86_5 1_555 1_555
C91_5 C85_5 1_555 1_555
H47_5 C91_5 1_555 1_555
C92_5 C86_5 1_555 1_555
H48_5 C92_5 1_555 1_555
C93_5 C91_5 1_555 1_555
H49_5 C93_5 1_555 1_555
C94_5 C54_5 1_555 1_555
C95_5 H50_5 1_555 1_555
C96_5 C94_5 1_555 1_555
H51_5 C96_5 1_555 1_555
C97_5 H52_5 1_555 1_555
C98_5 C95_5 1_555 1_555
C100_5 C87_5 1_555 1_555
C101_5 C97_5 1_555 1_555
H53_5 C101_5 1_555 1_555
C102_5 C96_5 1_555 1_555
C104_5 C98_5 1_555 1_555
H54_5 C104_5 1_555 1_555
Zn6_5 O6_5 1_555 1_555
O28_13 Zn6_5 1_555 1_555
Zn12_2 O5_5 1_555 1_555
Zn14_5 O15_5 1_555 1_555
O30_5 Zn2_5 1_555 1_555
O32_13 Zn6_5 1_555 1_555
O33_13 Zn6_5 1_555 1_555
O34_7 Zn12_6 1_555 1_555
O35_7 Zn12_4 1_555 1_555
O38_7 Zn12_6 1_555 1_555
O39_7 Zn12_4 1_555 1_555
O40_7 Zn12_6 1_555 1_555
C5_5 C8_5 1_555 1_555
C6_5 C10_5 1_555 1_555
C9_5 C10_5 1_555 1_555
C13_5 C14_5 1_555 1_555
C15_5 C21_5 1_555 1_555
C18_5 C21_5 1_555 1_555
C19_5 C23_5 1_555 1_555
C22_5 C23_5 1_555 1_555
C31_5 C34_5 1_555 1_555
C32_5 C36_5 1_555 1_555
C35_5 C36_5 1_555 1_555
C39_5 C40_5 1_555 1_555
C41_5 C47_5 1_555 1_555
C44_5 C47_5 1_555 1_555
C45_5 C49_5 1_555 1_555
C48_5 C49_5 1_555 1_555
C52_5 C53_5 1_555 1_555
C58_5 C61_5 1_555 1_555
C59_5 C63_5 1_555 1_555
C62_5 C63_5 1_555 1_555
C66_5 C67_5 1_555 1_555
O14_5 C77_5 1_555 1_555
C68_5 C74_5 1_555 1_555
C71_5 C74_5 1_555 1_555
C72_5 C76_5 1_555 1_555
C73_5 C77_5 1_555 1_555
C75_5 C76_5 1_555 1_555
C79_5 C80_5 1_555 1_555
C84_5 C87_5 1_555 1_555
C85_5 C89_5 1_555 1_555
C88_5 C89_5 1_555 1_555
C92_5 C93_5 1_555 1_555
C94_5 C100_5 1_555 1_555
C97_5 C100_5 1_555 1_555
C98_5 C102_5 1_555 1_555
C101_5 C102_5 1_555 1_555
O4_5 C24_5 1_555 1_555
C24_5 C20_5 1_555 1_555
C26_5 C20_5 1_555 1_555
H13_5 C26_5 1_555 1_555
H14_5 C27_5 1_555 1_555
O8_5 C50_5 1_555 1_555
O39_5 C50_5 1_555 1_555
Zn12_5 O11_5 1_555 1_555
Zn4_5 O10_5 1_555 1_555
O10_5 C64_5 1_555 1_555
O11_5 C64_5 1_555 1_555
O12_5 Zn4_5 1_555 1_555
O17_5 C103_5 1_555 1_555
C103_5 C99_5 1_555 1_555
C105_5 C99_5 1_555 1_555
H55_5 C105_5 1_555 1_555
H56_5 C106_5 1_555 1_555
Zn5_5 O4_5 1_555 1_555
O19_5 Zn5_5 1_555 1_555
O20_5 C117_5 1_555 1_555
O21_5 Zn5_5 1_555 1_555
C107_5 C108_5 1_555 1_555
C108_5 C110_5 1_555 1_555
C109_5 H57_5 1_555 1_555
C110_5 H58_5 1_555 1_555
C111_5 H59_5 1_555 1_555
C112_5 C109_5 1_555 1_555
C113_5 C109_5 1_555 1_555
C114_5 C108_5 1_555 1_555
C115_5 C111_5 1_555 1_555
H60_5 C115_5 1_555 1_555
C116_5 C110_5 1_555 1_555
C117_5 O19_5 1_555 1_555
C118_5 C112_5 1_555 1_555
H61_5 C118_5 1_555 1_555
C119_5 C113_5 1_555 1_555
H62_5 C119_5 1_555 1_555
C120_5 C118_5 1_555 1_555
H63_5 C120_5 1_555 1_555
O22_5 Zn4_5 1_555 1_555
O23_5 Zn12_5 1_555 1_555
C121_5 C107_5 1_555 1_555
C122_5 H64_5 1_555 1_555
C123_5 C121_5 1_555 1_555
H65_5 C123_5 1_555 1_555
C124_5 H66_5 1_555 1_555
C125_5 C122_5 1_555 1_555
C126_5 C122_5 1_555 1_555
C127_5 C114_5 1_555 1_555
C128_5 C124_5 1_555 1_555
H67_5 C128_5 1_555 1_555
C129_5 C123_5 1_555 1_555
C130_5 O22_5 1_555 1_555
C131_5 C125_5 1_555 1_555
H68_5 C131_5 1_555 1_555
C132_5 C126_5 1_555 1_555
H69_5 C132_5 1_555 1_555
C133_5 C131_5 1_555 1_555
H70_5 C133_5 1_555 1_555
O24_5 C143_5 1_555 1_555
O25_5 C143_5 1_555 1_555
C134_5 C107_5 1_555 1_555
C135_5 H71_5 1_555 1_555
C136_5 C134_5 1_555 1_555
H72_5 C136_5 1_555 1_555
C137_5 H73_5 1_555 1_555
C138_5 C135_5 1_555 1_555
C139_5 C135_5 1_555 1_555
C140_5 C134_5 1_555 1_555
C141_5 C137_5 1_555 1_555
H74_5 C141_5 1_555 1_555
C142_5 C136_5 1_555 1_555
C143_5 C139_5 1_555 1_555
C144_5 C138_5 1_555 1_555
H75_5 C144_5 1_555 1_555
C145_5 C139_5 1_555 1_555
H76_5 C145_5 1_555 1_555
C146_5 C144_5 1_555 1_555
H77_5 C146_5 1_555 1_555
O26_5 C156_5 1_555 1_555
O27_5 C156_5 1_555 1_555
C147_5 C107_5 1_555 1_555
C148_5 H78_5 1_555 1_555
C149_5 C147_5 1_555 1_555
H79_5 C149_5 1_555 1_555
C150_5 H80_5 1_555 1_555
C151_5 C148_5 1_555 1_555
C152_5 C148_5 1_555 1_555
C153_5 C140_5 1_555 1_555
C154_5 C150_5 1_555 1_555
H81_5 C154_5 1_555 1_555
C155_5 C149_5 1_555 1_555
C156_5 C152_5 1_555 1_555
C157_5 C151_5 1_555 1_555
H82_5 C157_5 1_555 1_555
C158_5 C152_5 1_555 1_555
H83_5 C158_5 1_555 1_555
C159_5 C157_5 1_555 1_555
H84_5 C159_5 1_555 1_555
Zn8_3 O27_5 1_555 1_555
Zn9_7 O25_5 1_555 1_555
Zn15_2 O8_5 1_555 1_555
Zn16_3 O17_5 1_555 1_555
Zn17_2 O26_5 1_555 1_555
Zn18_5 O24_5 1_555 1_555
O29_5 Zn5_5 1_555 1_555
O31_5 Zn4_5 1_555 1_555
O41_7 Zn12_5 1_555 1_555
C26_5 C27_5 1_555 1_555
C105_5 C106_5 1_555 1_555
O20_5 Zn12_3 1_555 1_555
C111_5 C114_5 1_555 1_555
C112_5 C116_5 1_555 1_555
C113_5 C117_5 1_555 1_555
C115_5 C116_5 1_555 1_555
C119_5 C120_5 1_555 1_555
O23_5 C130_5 1_555 1_555
C121_5 C127_5 1_555 1_555
C124_5 C127_5 1_555 1_555
C125_5 C129_5 1_555 1_555
C126_5 C130_5 1_555 1_555
C128_5 C129_5 1_555 1_555
C132_5 C133_5 1_555 1_555
C137_5 C140_5 1_555 1_555
C138_5 C142_5 1_555 1_555
C141_5 C142_5 1_555 1_555
C145_5 C146_5 1_555 1_555
C147_5 C153_5 1_555 1_555
C150_5 C153_5 1_555 1_555
C151_5 C155_5 1_555 1_555
C154_5 C155_5 1_555 1_555
C158_5 C159_5 1_555 1_555
Zn8 O2_6 1_555 1_555
C1_6 C2_6 1_555 1_555
C2_6 C4_6 1_555 1_555
C3_6 H1_6 1_555 1_555
C4_6 H2_6 1_555 1_555
C5_6 H3_6 1_555 1_555
C6_6 C3_6 1_555 1_555
C8_6 C2_6 1_555 1_555
C9_6 C5_6 1_555 1_555
H4_6 C9_6 1_555 1_555
C10_6 C4_6 1_555 1_555
C12_6 C6_6 1_555 1_555
H5_6 C12_6 1_555 1_555
C15_6 C1_6 1_555 1_555
C16_6 H8_6 1_555 1_555
C17_6 C15_6 1_555 1_555
H9_6 C17_6 1_555 1_555
C18_6 H10_6 1_555 1_555
C19_6 C16_6 1_555 1_555
C20_6 C16_6 1_555 1_555
C21_6 C8_6 1_555 1_555
C22_6 C18_6 1_555 1_555
H11_6 C22_6 1_555 1_555
C23_6 C17_6 1_555 1_555
C25_6 C19_6 1_555 1_555
H12_6 C25_6 1_555 1_555
C26_6 C20_6 1_555 1_555
H13_6 C26_6 1_555 1_555
C27_6 C25_6 1_555 1_555
H14_6 C27_6 1_555 1_555
C28_6 C1_6 1_555 1_555
C29_6 H15_6 1_555 1_555
C30_6 C28_6 1_555 1_555
H16_6 C30_6 1_555 1_555
C31_6 H17_6 1_555 1_555
C32_6 C29_6 1_555 1_555
C34_6 C28_6 1_555 1_555
C35_6 C31_6 1_555 1_555
H18_6 C35_6 1_555 1_555
C36_6 C30_6 1_555 1_555
C38_6 C32_6 1_555 1_555
H19_6 C38_6 1_555 1_555
O8_6 C50_6 1_555 1_555
O37_2 C50_6 1_555 1_555
C41_6 C1_6 1_555 1_555
C42_6 H22_6 1_555 1_555
C43_6 C41_6 1_555 1_555
H23_6 C43_6 1_555 1_555
C44_6 H24_6 1_555 1_555
C45_6 C42_6 1_555 1_555
C46_6 C42_6 1_555 1_555
C47_6 C34_6 1_555 1_555
C48_6 C44_6 1_555 1_555
H25_6 C48_6 1_555 1_555
C49_6 C43_6 1_555 1_555
C50_6 C46_6 1_555 1_555
C51_6 C45_6 1_555 1_555
H26_6 C51_6 1_555 1_555
C52_6 C46_6 1_555 1_555
H27_6 C52_6 1_555 1_555
C53_6 C51_6 1_555 1_555
H28_6 C53_6 1_555 1_555
Zn10 O11_6 1_555 1_555
C54_6 C55_6 1_555 1_555
C55_6 C57_6 1_555 1_555
C56_6 H29_6 1_555 1_555
C57_6 H30_6 1_555 1_555
C58_6 H31_6 1_555 1_555
C59_6 C56_6 1_555 1_555
C61_6 C55_6 1_555 1_555
C62_6 C58_6 1_555 1_555
H32_6 C62_6 1_555 1_555
C63_6 C57_6 1_555 1_555
C65_6 C59_6 1_555 1_555
H33_6 C65_6 1_555 1_555
C68_6 C54_6 1_555 1_555
C69_6 H36_6 1_555 1_555
C70_6 C68_6 1_555 1_555
H37_6 C70_6 1_555 1_555
C71_6 H38_6 1_555 1_555
C72_6 C69_6 1_555 1_555
C73_6 C69_6 1_555 1_555
C74_6 C61_6 1_555 1_555
C75_6 C71_6 1_555 1_555
H39_6 C75_6 1_555 1_555
C76_6 C70_6 1_555 1_555
C78_6 C72_6 1_555 1_555
H40_6 C78_6 1_555 1_555
C79_6 C73_6 1_555 1_555
H41_6 C79_6 1_555 1_555
C80_6 C78_6 1_555 1_555
H42_6 C80_6 1_555 1_555
C81_6 C54_6 1_555 1_555
C82_6 H43_6 1_555 1_555
C83_6 C81_6 1_555 1_555
H44_6 C83_6 1_555 1_555
C84_6 H45_6 1_555 1_555
C85_6 C82_6 1_555 1_555
C87_6 C81_6 1_555 1_555
C88_6 C84_6 1_555 1_555
H46_6 C88_6 1_555 1_555
C89_6 C83_6 1_555 1_555
C91_6 C85_6 1_555 1_555
H47_6 C91_6 1_555 1_555
O32_13 C103_6 1_555 1_555
O37_6 C103_6 1_555 1_555
C94_6 C54_6 1_555 1_555
C95_6 H50_6 1_555 1_555
C96_6 C94_6 1_555 1_555
H51_6 C96_6 1_555 1_555
C97_6 H52_6 1_555 1_555
C98_6 C95_6 1_555 1_555
C99_6 C95_6 1_555 1_555
C100_6 C87_6 1_555 1_555
C101_6 C97_6 1_555 1_555
H53_6 C101_6 1_555 1_555
C102_6 C96_6 1_555 1_555
C103_6 C99_6 1_555 1_555
C104_6 C98_6 1_555 1_555
H54_6 C104_6 1_555 1_555
C105_6 C99_6 1_555 1_555
H55_6 C105_6 1_555 1_555
C106_6 C104_6 1_555 1_555
H56_6 C106_6 1_555 1_555
C107_6 C108_6 1_555 1_555
C108_6 C110_6 1_555 1_555
C109_6 H57_6 1_555 1_555
C110_6 H58_6 1_555 1_555
C111_6 H59_6 1_555 1_555
C112_6 C109_6 1_555 1_555
C114_6 C108_6 1_555 1_555
C115_6 C111_6 1_555 1_555
H60_6 C115_6 1_555 1_555
C116_6 C110_6 1_555 1_555
C118_6 C112_6 1_555 1_555
H61_6 C118_6 1_555 1_555
C121_6 C107_6 1_555 1_555
C122_6 H64_6 1_555 1_555
C123_6 C121_6 1_555 1_555
H65_6 C123_6 1_555 1_555
C124_6 H66_6 1_555 1_555
C125_6 C122_6 1_555 1_555
C126_6 C122_6 1_555 1_555
C127_6 C114_6 1_555 1_555
C128_6 C124_6 1_555 1_555
H67_6 C128_6 1_555 1_555
C129_6 C123_6 1_555 1_555
C131_6 C125_6 1_555 1_555
H68_6 C131_6 1_555 1_555
C132_6 C126_6 1_555 1_555
H69_6 C132_6 1_555 1_555
C133_6 C131_6 1_555 1_555
H70_6 C133_6 1_555 1_555
C134_6 C107_6 1_555 1_555
C135_6 H71_6 1_555 1_555
C136_6 C134_6 1_555 1_555
H72_6 C136_6 1_555 1_555
C137_6 H73_6 1_555 1_555
C138_6 C135_6 1_555 1_555
C140_6 C134_6 1_555 1_555
C141_6 C137_6 1_555 1_555
H74_6 C141_6 1_555 1_555
C142_6 C136_6 1_555 1_555
C144_6 C138_6 1_555 1_555
H75_6 C144_6 1_555 1_555
O26_6 C156_6 1_555 1_555
O41_2 C156_6 1_555 1_555
C147_6 C107_6 1_555 1_555
C148_6 H78_6 1_555 1_555
C149_6 C147_6 1_555 1_555
H79_6 C149_6 1_555 1_555
C150_6 H80_6 1_555 1_555
C151_6 C148_6 1_555 1_555
C152_6 C148_6 1_555 1_555
C153_6 C140_6 1_555 1_555
C154_6 C150_6 1_555 1_555
H81_6 C154_6 1_555 1_555
C155_6 C149_6 1_555 1_555
C156_6 C152_6 1_555 1_555
C157_6 C151_6 1_555 1_555
H82_6 C157_6 1_555 1_555
C158_6 C152_6 1_555 1_555
H83_6 C158_6 1_555 1_555
C159_6 C157_6 1_555 1_555
H84_6 C159_6 1_555 1_555
Zn15_3 O8_6 1_555 1_555
Zn17_3 O26_6 1_555 1_555
C5_6 C8_6 1_555 1_555
C6_6 C10_6 1_555 1_555
C9_6 C10_6 1_555 1_555
C15_6 C21_6 1_555 1_555
C18_6 C21_6 1_555 1_555
C19_6 C23_6 1_555 1_555
C22_6 C23_6 1_555 1_555
C26_6 C27_6 1_555 1_555
C31_6 C34_6 1_555 1_555
C32_6 C36_6 1_555 1_555
C35_6 C36_6 1_555 1_555
C41_6 C47_6 1_555 1_555
C44_6 C47_6 1_555 1_555
C45_6 C49_6 1_555 1_555
C48_6 C49_6 1_555 1_555
C52_6 C53_6 1_555 1_555
C58_6 C61_6 1_555 1_555
C59_6 C63_6 1_555 1_555
C62_6 C63_6 1_555 1_555
C68_6 C74_6 1_555 1_555
C71_6 C74_6 1_555 1_555
C72_6 C76_6 1_555 1_555
C75_6 C76_6 1_555 1_555
C79_6 C80_6 1_555 1_555
C84_6 C87_6 1_555 1_555
C85_6 C89_6 1_555 1_555
C88_6 C89_6 1_555 1_555
C94_6 C100_6 1_555 1_555
C97_6 C100_6 1_555 1_555
C98_6 C102_6 1_555 1_555
C101_6 C102_6 1_555 1_555
C105_6 C106_6 1_555 1_555
O20_6 Zn11_9 1_555 1_555
C111_6 C114_6 1_555 1_555
C112_6 C116_6 1_555 1_555
C115_6 C116_6 1_555 1_555
C121_6 C127_6 1_555 1_555
C124_6 C127_6 1_555 1_555
C125_6 C129_6 1_555 1_555
C128_6 C129_6 1_555 1_555
C132_6 C133_6 1_555 1_555
C137_6 C140_6 1_555 1_555
C138_6 C142_6 1_555 1_555
C141_6 C142_6 1_555 1_555
C147_6 C153_6 1_555 1_555
C150_6 C153_6 1_555 1_555
C151_6 C155_6 1_555 1_555
C154_6 C155_6 1_555 1_555
C158_6 C159_6 1_555 1_555
O4_6 C24_6 1_555 1_555
O5_6 C24_6 1_555 1_555
C39_6 C33_6 1_555 1_555
H20_6 C39_6 1_555 1_555
H21_6 C40_6 1_555 1_555
Zn5_6 O4_6 1_555 1_555
O19_6 Zn5_6 1_555 1_555
O21_6 Zn5_6 1_555 1_555
C117_6 O19_6 1_555 1_555
C119_6 C113_6 1_555 1_555
H62_6 C119_6 1_555 1_555
H63_6 C120_6 1_555 1_555
Zn11_10 O5_6 1_555 1_555
O29_6 Zn5_6 1_555 1_555
C39_6 C40_6 1_555 1_555
C113_6 C117_6 1_555 1_555
C119_6 C120_6 1_555 1_555
Zn2_6 O1_6 1_555 1_555
O1_6 C11_6 1_555 1_555
O3_6 Zn2_6 1_555 1_555
C11_6 C7_6 1_555 1_555
C13_6 C7_6 1_555 1_555
H6_6 C13_6 1_555 1_555
H7_6 C14_6 1_555 1_555
O13_6 Zn2_6 1_555 1_555
O14_6 Zn8_2 1_555 1_555
C77_6 O13_6 1_555 1_555
C92_6 C86_6 1_555 1_555
H48_6 C92_6 1_555 1_555
H49_6 C93_6 1_555 1_555
O30_6 Zn2_6 1_555 1_555
O34_8 Zn8_2 1_555 1_555
C13_6 C14_6 1_555 1_555
O14_6 C77_6 1_555 1_555
C92_6 C93_6 1_555 1_555
O6_6 C37_6 1_555 1_555
Zn16_3 O6_6 1_555 1_555
O28_14 Zn16_3 1_555 1_555
O33_14 Zn16_3 1_555 1_555
Zn4_6 O10_6 1_555 1_555
O10_6 C64_6 1_555 1_555
O12_6 Zn4_6 1_555 1_555
C64_6 C60_6 1_555 1_555
C66_6 C60_6 1_555 1_555
H34_6 C66_6 1_555 1_555
H35_6 C67_6 1_555 1_555
O22_6 Zn4_6 1_555 1_555
O23_6 Zn10_2 1_555 1_555
C130_6 O22_6 1_555 1_555
C145_6 C139_6 1_555 1_555
H76_6 C145_6 1_555 1_555
H77_6 C146_6 1_555 1_555
O31_6 Zn4_6 1_555 1_555
O35_8 Zn10_2 1_555 1_555
C66_6 C67_6 1_555 1_555
O23_6 C130_6 1_555 1_555
C145_6 C146_6 1_555 1_555
O24_6 C143_6 1_555 1_555
Zn18_6 O24_6 1_555 1_555
O15_6 C90_6 1_555 1_555
Zn14_6 O15_6 1_555 1_555
O28_15 Zn15_3 1_555 1_555
O32_14 Zn15_3 1_555 1_555
O33_15 Zn15_3 1_555 1_555
C54_7 C55_7 1_555 1_555
C55_7 C57_7 1_555 1_555
C56_7 H29_7 1_555 1_555
C57_7 H30_7 1_555 1_555
C58_7 H31_7 1_555 1_555
C59_7 C56_7 1_555 1_555
C61_7 C55_7 1_555 1_555
C62_7 C58_7 1_555 1_555
H32_7 C62_7 1_555 1_555
C63_7 C57_7 1_555 1_555
C65_7 C59_7 1_555 1_555
H33_7 C65_7 1_555 1_555
O14_7 Zn11_10 1_555 1_555
C68_7 C54_7 1_555 1_555
C69_7 H36_7 1_555 1_555
C70_7 C68_7 1_555 1_555
H37_7 C70_7 1_555 1_555
C71_7 H38_7 1_555 1_555
C72_7 C69_7 1_555 1_555
C73_7 C69_7 1_555 1_555
C74_7 C61_7 1_555 1_555
C75_7 C71_7 1_555 1_555
H39_7 C75_7 1_555 1_555
C76_7 C70_7 1_555 1_555
C77_7 O29_6 1_555 1_555
C78_7 C72_7 1_555 1_555
H40_7 C78_7 1_555 1_555
C79_7 C73_7 1_555 1_555
H41_7 C79_7 1_555 1_555
C80_7 C78_7 1_555 1_555
H42_7 C80_7 1_555 1_555
C81_7 C54_7 1_555 1_555
C82_7 H43_7 1_555 1_555
C83_7 C81_7 1_555 1_555
H44_7 C83_7 1_555 1_555
C84_7 H45_7 1_555 1_555
C85_7 C82_7 1_555 1_555
C86_7 C82_7 1_555 1_555
C87_7 C81_7 1_555 1_555
C88_7 C84_7 1_555 1_555
H46_7 C88_7 1_555 1_555
C89_7 C83_7 1_555 1_555
C91_7 C85_7 1_555 1_555
H47_7 C91_7 1_555 1_555
C92_7 C86_7 1_555 1_555
H48_7 C92_7 1_555 1_555
C93_7 C91_7 1_555 1_555
H49_7 C93_7 1_555 1_555
C94_7 C54_7 1_555 1_555
C95_7 H50_7 1_555 1_555
C96_7 C94_7 1_555 1_555
H51_7 C96_7 1_555 1_555
C97_7 H52_7 1_555 1_555
C98_7 C95_7 1_555 1_555
C100_7 C87_7 1_555 1_555
C101_7 C97_7 1_555 1_555
H53_7 C101_7 1_555 1_555
C102_7 C96_7 1_555 1_555
C104_7 C98_7 1_555 1_555
H54_7 C104_7 1_555 1_555
C58_7 C61_7 1_555 1_555
C59_7 C63_7 1_555 1_555
C62_7 C63_7 1_555 1_555
O14_7 C77_7 1_555 1_555
C68_7 C74_7 1_555 1_555
C71_7 C74_7 1_555 1_555
C72_7 C76_7 1_555 1_555
C73_7 C77_7 1_555 1_555
C75_7 C76_7 1_555 1_555
C79_7 C80_7 1_555 1_555
C84_7 C87_7 1_555 1_555
C85_7 C89_7 1_555 1_555
C88_7 C89_7 1_555 1_555
C92_7 C93_7 1_555 1_555
C94_7 C100_7 1_555 1_555
C97_7 C100_7 1_555 1_555
C98_7 C102_7 1_555 1_555
C101_7 C102_7 1_555 1_555
O34_8 C117_7 1_555 1_555
C107_7 C108_7 1_555 1_555
C108_7 C110_7 1_555 1_555
C109_7 H57_7 1_555 1_555
C110_7 H58_7 1_555 1_555
C111_7 H59_7 1_555 1_555
C112_7 C109_7 1_555 1_555
C113_7 C109_7 1_555 1_555
C114_7 C108_7 1_555 1_555
C115_7 C111_7 1_555 1_555
H60_7 C115_7 1_555 1_555
C116_7 C110_7 1_555 1_555
C117_7 O30_6 1_555 1_555
C118_7 C112_7 1_555 1_555
H61_7 C118_7 1_555 1_555
C119_7 C113_7 1_555 1_555
H62_7 C119_7 1_555 1_555
C120_7 C118_7 1_555 1_555
H63_7 C120_7 1_555 1_555
C121_7 C107_7 1_555 1_555
C122_7 H64_7 1_555 1_555
C123_7 C121_7 1_555 1_555
H65_7 C123_7 1_555 1_555
C124_7 H66_7 1_555 1_555
C125_7 C122_7 1_555 1_555
C127_7 C114_7 1_555 1_555
C128_7 C124_7 1_555 1_555
H67_7 C128_7 1_555 1_555
C129_7 C123_7 1_555 1_555
C131_7 C125_7 1_555 1_555
H68_7 C131_7 1_555 1_555
C134_7 C107_7 1_555 1_555
C135_7 H71_7 1_555 1_555
C136_7 C134_7 1_555 1_555
H72_7 C136_7 1_555 1_555
C137_7 H73_7 1_555 1_555
C138_7 C135_7 1_555 1_555
C140_7 C134_7 1_555 1_555
C141_7 C137_7 1_555 1_555
H74_7 C141_7 1_555 1_555
C142_7 C136_7 1_555 1_555
C144_7 C138_7 1_555 1_555
H75_7 C144_7 1_555 1_555
C147_7 C107_7 1_555 1_555
C148_7 H78_7 1_555 1_555
C149_7 C147_7 1_555 1_555
H79_7 C149_7 1_555 1_555
C150_7 H80_7 1_555 1_555
C151_7 C148_7 1_555 1_555
C152_7 C148_7 1_555 1_555
C153_7 C140_7 1_555 1_555
C154_7 C150_7 1_555 1_555
H81_7 C154_7 1_555 1_555
C155_7 C149_7 1_555 1_555
C157_7 C151_7 1_555 1_555
H82_7 C157_7 1_555 1_555
C158_7 C152_7 1_555 1_555
H83_7 C158_7 1_555 1_555
C159_7 C157_7 1_555 1_555
H84_7 C159_7 1_555 1_555
C111_7 C114_7 1_555 1_555
C112_7 C116_7 1_555 1_555
C113_7 C117_7 1_555 1_555
C115_7 C116_7 1_555 1_555
C119_7 C120_7 1_555 1_555
C121_7 C127_7 1_555 1_555
C124_7 C127_7 1_555 1_555
C125_7 C129_7 1_555 1_555
C128_7 C129_7 1_555 1_555
C137_7 C140_7 1_555 1_555
C138_7 C142_7 1_555 1_555
C141_7 C142_7 1_555 1_555
C147_7 C153_7 1_555 1_555
C150_7 C153_7 1_555 1_555
C151_7 C155_7 1_555 1_555
C154_7 C155_7 1_555 1_555
C158_7 C159_7 1_555 1_555
Zn11_4 O11_7 1_555 1_555
O17_6 C103_7 1_555 1_555
C103_7 C99_7 1_555 1_555
C105_7 C99_7 1_555 1_555
H55_7 C105_7 1_555 1_555
H56_7 C106_7 1_555 1_555
C132_7 C126_7 1_555 1_555
H69_7 C132_7 1_555 1_555
H70_7 C133_7 1_555 1_555
O26_7 C156_7 1_555 1_555
O41_4 C156_7 1_555 1_555
Zn15_2 O17_6 1_555 1_555
Zn17_4 O26_7 1_555 1_555
C105_7 C106_7 1_555 1_555
C132_7 C133_7 1_555 1_555
C66_7 C60_7 1_555 1_555
H34_7 C66_7 1_555 1_555
H35_7 C67_7 1_555 1_555
O15_7 C90_7 1_555 1_555
O37_5 C90_7 1_555 1_555
Zn14_7 O15_7 1_555 1_555
O35_9 Zn11_6 1_555 1_555
C66_7 C67_7 1_555 1_555
O23_7 Zn11_7 1_555 1_555
O24_7 C143_7 1_555 1_555
C143_7 C139_7 1_555 1_555
C145_7 C139_7 1_555 1_555
H76_7 C145_7 1_555 1_555
H77_7 C146_7 1_555 1_555
Zn18_7 O24_7 1_555 1_555
C145_7 C146_7 1_555 1_555
Zn4_7 O10_7 1_555 1_555
O10_7 C64_7 1_555 1_555
O12_7 Zn4_7 1_555 1_555
O22_7 Zn4_7 1_555 1_555
C130_7 O22_7 1_555 1_555
O31_7 Zn4_7 1_555 1_555
Zn12 O11_8 1_555 1_555
Zn4_8 O10_8 1_555 1_555
O10_8 C64_8 1_555 1_555
O11_8 C64_8 1_555 1_555
O12_8 Zn4_8 1_555 1_555
C54_8 C55_8 1_555 1_555
C55_8 C57_8 1_555 1_555
C56_8 H29_8 1_555 1_555
C57_8 H30_8 1_555 1_555
C58_8 H31_8 1_555 1_555
C59_8 C56_8 1_555 1_555
C60_8 C56_8 1_555 1_555
C61_8 C55_8 1_555 1_555
C62_8 C58_8 1_555 1_555
H32_8 C62_8 1_555 1_555
C63_8 C57_8 1_555 1_555
C64_8 C60_8 1_555 1_555
C65_8 C59_8 1_555 1_555
H33_8 C65_8 1_555 1_555
C66_8 C60_8 1_555 1_555
H34_8 C66_8 1_555 1_555
C67_8 C65_8 1_555 1_555
H35_8 C67_8 1_555 1_555
C68_8 C54_8 1_555 1_555
C69_8 H36_8 1_555 1_555
C70_8 C68_8 1_555 1_555
H37_8 C70_8 1_555 1_555
C71_8 H38_8 1_555 1_555
C72_8 C69_8 1_555 1_555
C73_8 C69_8 1_555 1_555
C74_8 C61_8 1_555 1_555
C75_8 C71_8 1_555 1_555
H39_8 C75_8 1_555 1_555
C76_8 C70_8 1_555 1_555
C78_8 C72_8 1_555 1_555
H40_8 C78_8 1_555 1_555
C79_8 C73_8 1_555 1_555
H41_8 C79_8 1_555 1_555
C80_8 C78_8 1_555 1_555
H42_8 C80_8 1_555 1_555
C81_8 C54_8 1_555 1_555
C82_8 H43_8 1_555 1_555
C83_8 C81_8 1_555 1_555
H44_8 C83_8 1_555 1_555
C84_8 H45_8 1_555 1_555
C85_8 C82_8 1_555 1_555
C87_8 C81_8 1_555 1_555
C88_8 C84_8 1_555 1_555
H46_8 C88_8 1_555 1_555
C89_8 C83_8 1_555 1_555
C91_8 C85_8 1_555 1_555
H47_8 C91_8 1_555 1_555
O32_14 C103_8 1_555 1_555
O38_2 C103_8 1_555 1_555
C94_8 C54_8 1_555 1_555
C95_8 H50_8 1_555 1_555
C96_8 C94_8 1_555 1_555
H51_8 C96_8 1_555 1_555
C97_8 H52_8 1_555 1_555
C98_8 C95_8 1_555 1_555
C99_8 C95_8 1_555 1_555
C100_8 C87_8 1_555 1_555
C101_8 C97_8 1_555 1_555
H53_8 C101_8 1_555 1_555
C102_8 C96_8 1_555 1_555
C103_8 C99_8 1_555 1_555
C104_8 C98_8 1_555 1_555
H54_8 C104_8 1_555 1_555
C105_8 C99_8 1_555 1_555
H55_8 C105_8 1_555 1_555
C106_8 C104_8 1_555 1_555
H56_8 C106_8 1_555 1_555
O34_7 C117_8 1_555 1_555
C107_8 C108_8 1_555 1_555
C108_8 C110_8 1_555 1_555
C109_8 H57_8 1_555 1_555
C110_8 H58_8 1_555 1_555
C111_8 H59_8 1_555 1_555
C112_8 C109_8 1_555 1_555
C113_8 C109_8 1_555 1_555
C114_8 C108_8 1_555 1_555
C115_8 C111_8 1_555 1_555
H60_8 C115_8 1_555 1_555
C116_8 C110_8 1_555 1_555
C117_8 O30_5 1_555 1_555
C118_8 C112_8 1_555 1_555
H61_8 C118_8 1_555 1_555
C119_8 C113_8 1_555 1_555
H62_8 C119_8 1_555 1_555
C120_8 C118_8 1_555 1_555
H63_8 C120_8 1_555 1_555
O22_8 Zn4_8 1_555 1_555
O23_8 Zn12 1_555 1_555
C121_8 C107_8 1_555 1_555
C122_8 H64_8 1_555 1_555
C123_8 C121_8 1_555 1_555
H65_8 C123_8 1_555 1_555
C124_8 H66_8 1_555 1_555
C125_8 C122_8 1_555 1_555
C126_8 C122_8 1_555 1_555
C127_8 C114_8 1_555 1_555
C128_8 C124_8 1_555 1_555
H67_8 C128_8 1_555 1_555
C129_8 C123_8 1_555 1_555
C130_8 O22_8 1_555 1_555
C131_8 C125_8 1_555 1_555
H68_8 C131_8 1_555 1_555
C132_8 C126_8 1_555 1_555
H69_8 C132_8 1_555 1_555
C133_8 C131_8 1_555 1_555
H70_8 C133_8 1_555 1_555
O24_8 C143_8 1_555 1_555
O25_6 C143_8 1_555 1_555
C134_8 C107_8 1_555 1_555
C135_8 H71_8 1_555 1_555
C136_8 C134_8 1_555 1_555
H72_8 C136_8 1_555 1_555
C137_8 H73_8 1_555 1_555
C138_8 C135_8 1_555 1_555
C139_8 C135_8 1_555 1_555
C140_8 C134_8 1_555 1_555
C141_8 C137_8 1_555 1_555
H74_8 C141_8 1_555 1_555
C142_8 C136_8 1_555 1_555
C143_8 C139_8 1_555 1_555
C144_8 C138_8 1_555 1_555
H75_8 C144_8 1_555 1_555
C145_8 C139_8 1_555 1_555
H76_8 C145_8 1_555 1_555
C146_8 C144_8 1_555 1_555
H77_8 C146_8 1_555 1_555
O26_8 C156_8 1_555 1_555
O27_6 C156_8 1_555 1_555
C147_8 C107_8 1_555 1_555
C148_8 H78_8 1_555 1_555
C149_8 C147_8 1_555 1_555
H79_8 C149_8 1_555 1_555
C150_8 H80_8 1_555 1_555
C151_8 C148_8 1_555 1_555
C152_8 C148_8 1_555 1_555
C153_8 C140_8 1_555 1_555
C154_8 C150_8 1_555 1_555
H81_8 C154_8 1_555 1_555
C155_8 C149_8 1_555 1_555
C156_8 C152_8 1_555 1_555
C157_8 C151_8 1_555 1_555
H82_8 C157_8 1_555 1_555
C158_8 C152_8 1_555 1_555
H83_8 C158_8 1_555 1_555
C159_8 C157_8 1_555 1_555
H84_8 C159_8 1_555 1_555
Zn8_4 O27_6 1_555 1_555
Zn9_8 O25_6 1_555 1_555
Zn17_5 O26_8 1_555 1_555
Zn18_8 O24_8 1_555 1_555
O31_8 Zn4_8 1_555 1_555
O35_10 Zn12 1_555 1_555
O38_8 Zn12_2 1_555 1_555
O39_8 Zn12 1_555 1_555
O41_8 Zn12 1_555 1_555
C58_8 C61_8 1_555 1_555
C59_8 C63_8 1_555 1_555
C62_8 C63_8 1_555 1_555
C66_8 C67_8 1_555 1_555
C68_8 C74_8 1_555 1_555
C71_8 C74_8 1_555 1_555
C72_8 C76_8 1_555 1_555
C75_8 C76_8 1_555 1_555
C79_8 C80_8 1_555 1_555
C84_8 C87_8 1_555 1_555
C85_8 C89_8 1_555 1_555
C88_8 C89_8 1_555 1_555
C94_8 C100_8 1_555 1_555
C97_8 C100_8 1_555 1_555
C98_8 C102_8 1_555 1_555
C101_8 C102_8 1_555 1_555
C105_8 C106_8 1_555 1_555
C111_8 C114_8 1_555 1_555
C112_8 C116_8 1_555 1_555
C113_8 C117_8 1_555 1_555
C115_8 C116_8 1_555 1_555
C119_8 C120_8 1_555 1_555
O23_8 C130_8 1_555 1_555
C121_8 C127_8 1_555 1_555
C124_8 C127_8 1_555 1_555
C125_8 C129_8 1_555 1_555
C126_8 C130_8 1_555 1_555
C128_8 C129_8 1_555 1_555
C132_8 C133_8 1_555 1_555
C137_8 C140_8 1_555 1_555
C138_8 C142_8 1_555 1_555
C141_8 C142_8 1_555 1_555
C145_8 C146_8 1_555 1_555
C147_8 C153_8 1_555 1_555
C150_8 C153_8 1_555 1_555
C151_8 C155_8 1_555 1_555
C154_8 C155_8 1_555 1_555
C158_8 C159_8 1_555 1_555
O14_8 Zn12_3 1_555 1_555
C77_8 O29_5 1_555 1_555
O15_8 C90_8 1_555 1_555
C90_8 C86_8 1_555 1_555
C92_8 C86_8 1_555 1_555
H48_8 C92_8 1_555 1_555
H49_8 C93_8 1_555 1_555
O28_16 Zn15_2 1_555 1_555
Zn14_8 O15_8 1_555 1_555
O33_16 Zn15_2 1_555 1_555
O40_8 Zn12_3 1_555 1_555
O14_8 C77_8 1_555 1_555
C92_8 C93_8 1_555 1_555
Zn9 O2_7 1_555 1_555
Zn2_7 O1_7 1_555 1_555
O1_7 C11_7 1_555 1_555
O2_7 C11_7 1_555 1_555
O3_7 Zn2_7 1_555 1_555
C1_7 C2_7 1_555 1_555
C2_7 C4_7 1_555 1_555
C3_7 H1_7 1_555 1_555
C4_7 H2_7 1_555 1_555
C5_7 H3_7 1_555 1_555
C6_7 C3_7 1_555 1_555
C7_7 C3_7 1_555 1_555
C8_7 C2_7 1_555 1_555
C9_7 C5_7 1_555 1_555
H4_7 C9_7 1_555 1_555
C10_7 C4_7 1_555 1_555
C11_7 C7_7 1_555 1_555
C12_7 C6_7 1_555 1_555
H5_7 C12_7 1_555 1_555
C13_7 C7_7 1_555 1_555
H6_7 C13_7 1_555 1_555
C14_7 C12_7 1_555 1_555
H7_7 C14_7 1_555 1_555
C15_7 C1_7 1_555 1_555
C16_7 H8_7 1_555 1_555
C17_7 C15_7 1_555 1_555
H9_7 C17_7 1_555 1_555
C18_7 H10_7 1_555 1_555
C19_7 C16_7 1_555 1_555
C21_7 C8_7 1_555 1_555
C22_7 C18_7 1_555 1_555
H11_7 C22_7 1_555 1_555
C23_7 C17_7 1_555 1_555
C25_7 C19_7 1_555 1_555
H12_7 C25_7 1_555 1_555
O6_7 C37_7 1_555 1_555
O39_2 C37_7 1_555 1_555
C28_7 C1_7 1_555 1_555
C29_7 H15_7 1_555 1_555
C30_7 C28_7 1_555 1_555
H16_7 C30_7 1_555 1_555
C31_7 H17_7 1_555 1_555
C32_7 C29_7 1_555 1_555
C33_7 C29_7 1_555 1_555
C34_7 C28_7 1_555 1_555
C35_7 C31_7 1_555 1_555
H18_7 C35_7 1_555 1_555
C36_7 C30_7 1_555 1_555
C37_7 C33_7 1_555 1_555
C38_7 C32_7 1_555 1_555
H19_7 C38_7 1_555 1_555
C39_7 C33_7 1_555 1_555
H20_7 C39_7 1_555 1_555
C40_7 C38_7 1_555 1_555
H21_7 C40_7 1_555 1_555
C41_7 C1_7 1_555 1_555
C42_7 H22_7 1_555 1_555
C43_7 C41_7 1_555 1_555
H23_7 C43_7 1_555 1_555
C44_7 H24_7 1_555 1_555
C45_7 C42_7 1_555 1_555
C46_7 C42_7 1_555 1_555
C47_7 C34_7 1_555 1_555
C48_7 C44_7 1_555 1_555
H25_7 C48_7 1_555 1_555
C49_7 C43_7 1_555 1_555
C51_7 C45_7 1_555 1_555
H26_7 C51_7 1_555 1_555
C52_7 C46_7 1_555 1_555
H27_7 C52_7 1_555 1_555
C53_7 C51_7 1_555 1_555
H28_7 C53_7 1_555 1_555
C54_9 C55_9 1_555 1_555
C55_9 C57_9 1_555 1_555
C56_9 H29_9 1_555 1_555
C57_9 H30_9 1_555 1_555
C58_9 H31_9 1_555 1_555
C59_9 C56_9 1_555 1_555
C60_9 C56_9 1_555 1_555
C61_9 C55_9 1_555 1_555
C62_9 C58_9 1_555 1_555
H32_9 C62_9 1_555 1_555
C63_9 C57_9 1_555 1_555
C65_9 C59_9 1_555 1_555
H33_9 C65_9 1_555 1_555
C66_9 C60_9 1_555 1_555
H34_9 C66_9 1_555 1_555
C67_9 C65_9 1_555 1_555
H35_9 C67_9 1_555 1_555
O13_7 Zn2_7 1_555 1_555
O14_9 Zn9 1_555 1_555
C68_9 C54_9 1_555 1_555
C69_9 H36_9 1_555 1_555
C70_9 C68_9 1_555 1_555
H37_9 C70_9 1_555 1_555
C71_9 H38_9 1_555 1_555
C72_9 C69_9 1_555 1_555
C73_9 C69_9 1_555 1_555
C74_9 C61_9 1_555 1_555
C75_9 C71_9 1_555 1_555
H39_9 C75_9 1_555 1_555
C76_9 C70_9 1_555 1_555
C77_9 O13_7 1_555 1_555
C78_9 C72_9 1_555 1_555
H40_9 C78_9 1_555 1_555
C79_9 C73_9 1_555 1_555
H41_9 C79_9 1_555 1_555
C80_9 C78_9 1_555 1_555
H42_9 C80_9 1_555 1_555
O33_16 C90_9 1_555 1_555
O36_5 C90_9 1_555 1_555
C81_9 C54_9 1_555 1_555
C82_9 H43_9 1_555 1_555
C83_9 C81_9 1_555 1_555
H44_9 C83_9 1_555 1_555
C84_9 H45_9 1_555 1_555
C85_9 C82_9 1_555 1_555
C86_9 C82_9 1_555 1_555
C87_9 C81_9 1_555 1_555
C88_9 C84_9 1_555 1_555
H46_9 C88_9 1_555 1_555
C89_9 C83_9 1_555 1_555
C90_9 C86_9 1_555 1_555
C91_9 C85_9 1_555 1_555
H47_9 C91_9 1_555 1_555
C92_9 C86_9 1_555 1_555
H48_9 C92_9 1_555 1_555
C93_9 C91_9 1_555 1_555
H49_9 C93_9 1_555 1_555
C94_9 C54_9 1_555 1_555
C95_9 H50_9 1_555 1_555
C96_9 C94_9 1_555 1_555
H51_9 C96_9 1_555 1_555
C97_9 H52_9 1_555 1_555
C98_9 C95_9 1_555 1_555
C100_9 C87_9 1_555 1_555
C101_9 C97_9 1_555 1_555
H53_9 C101_9 1_555 1_555
C102_9 C96_9 1_555 1_555
C104_9 C98_9 1_555 1_555
H54_9 C104_9 1_555 1_555
Zn17_3 O6_7 1_555 1_555
O28_17 Zn17_3 1_555 1_555
Zn9_2 O5_7 1_555 1_555
O30_7 Zn2_7 1_555 1_555
O33_17 Zn17_3 1_555 1_555
O34_9 Zn9 1_555 1_555
O35_11 Zn9_5 1_555 1_555
O38_9 Zn9 1_555 1_555
O39_9 Zn9_5 1_555 1_555
O40_9 Zn9 1_555 1_555
C5_7 C8_7 1_555 1_555
C6_7 C10_7 1_555 1_555
C9_7 C10_7 1_555 1_555
C13_7 C14_7 1_555 1_555
C15_7 C21_7 1_555 1_555
C18_7 C21_7 1_555 1_555
C19_7 C23_7 1_555 1_555
C22_7 C23_7 1_555 1_555
C31_7 C34_7 1_555 1_555
C32_7 C36_7 1_555 1_555
C35_7 C36_7 1_555 1_555
C39_7 C40_7 1_555 1_555
C41_7 C47_7 1_555 1_555
C44_7 C47_7 1_555 1_555
C45_7 C49_7 1_555 1_555
C48_7 C49_7 1_555 1_555
C52_7 C53_7 1_555 1_555
C58_9 C61_9 1_555 1_555
C59_9 C63_9 1_555 1_555
C62_9 C63_9 1_555 1_555
C66_9 C67_9 1_555 1_555
O14_9 C77_9 1_555 1_555
C68_9 C74_9 1_555 1_555
C71_9 C74_9 1_555 1_555
C72_9 C76_9 1_555 1_555
C73_9 C77_9 1_555 1_555
C75_9 C76_9 1_555 1_555
C79_9 C80_9 1_555 1_555
C84_9 C87_9 1_555 1_555
C85_9 C89_9 1_555 1_555
C88_9 C89_9 1_555 1_555
C92_9 C93_9 1_555 1_555
C94_9 C100_9 1_555 1_555
C97_9 C100_9 1_555 1_555
C98_9 C102_9 1_555 1_555
C101_9 C102_9 1_555 1_555
O4_7 C24_7 1_555 1_555
C24_7 C20_7 1_555 1_555
C26_7 C20_7 1_555 1_555
H13_7 C26_7 1_555 1_555
H14_7 C27_7 1_555 1_555
O8_7 C50_7 1_555 1_555
O39 C50_7 1_555 1_555
Zn9_6 O11_9 1_555 1_555
Zn4_9 O10_9 1_555 1_555
O10_9 C64_9 1_555 1_555
O11_9 C64_9 1_555 1_555
O12_9 Zn4_9 1_555 1_555
O17_7 C103_9 1_555 1_555
C103_9 C99_9 1_555 1_555
C105_9 C99_9 1_555 1_555
H55_9 C105_9 1_555 1_555
H56_9 C106_9 1_555 1_555
Zn5_7 O4_7 1_555 1_555
O19_7 Zn5_7 1_555 1_555
O20_7 C117_9 1_555 1_555
O21_7 Zn5_7 1_555 1_555
C107_9 C108_9 1_555 1_555
C108_9 C110_9 1_555 1_555
C109_9 H57_9 1_555 1_555
C110_9 H58_9 1_555 1_555
C111_9 H59_9 1_555 1_555
C112_9 C109_9 1_555 1_555
C113_9 C109_9 1_555 1_555
C114_9 C108_9 1_555 1_555
C115_9 C111_9 1_555 1_555
H60_9 C115_9 1_555 1_555
C116_9 C110_9 1_555 1_555
C117_9 O19_7 1_555 1_555
C118_9 C112_9 1_555 1_555
H61_9 C118_9 1_555 1_555
C119_9 C113_9 1_555 1_555
H62_9 C119_9 1_555 1_555
C120_9 C118_9 1_555 1_555
H63_9 C120_9 1_555 1_555
O22_9 Zn4_9 1_555 1_555
O23_9 Zn9_6 1_555 1_555
C121_9 C107_9 1_555 1_555
C122_9 H64_9 1_555 1_555
C123_9 C121_9 1_555 1_555
H65_9 C123_9 1_555 1_555
C124_9 H66_9 1_555 1_555
C125_9 C122_9 1_555 1_555
C126_9 C122_9 1_555 1_555
C127_9 C114_9 1_555 1_555
C128_9 C124_9 1_555 1_555
H67_9 C128_9 1_555 1_555
C129_9 C123_9 1_555 1_555
C130_9 O22_9 1_555 1_555
C131_9 C125_9 1_555 1_555
H68_9 C131_9 1_555 1_555
C132_9 C126_9 1_555 1_555
H69_9 C132_9 1_555 1_555
C133_9 C131_9 1_555 1_555
H70_9 C133_9 1_555 1_555
O24_9 C143_9 1_555 1_555
O25_7 C143_9 1_555 1_555
C134_9 C107_9 1_555 1_555
C135_9 H71_9 1_555 1_555
C136_9 C134_9 1_555 1_555
H72_9 C136_9 1_555 1_555
C137_9 H73_9 1_555 1_555
C138_9 C135_9 1_555 1_555
C139_9 C135_9 1_555 1_555
C140_9 C134_9 1_555 1_555
C141_9 C137_9 1_555 1_555
H74_9 C141_9 1_555 1_555
C142_9 C136_9 1_555 1_555
C143_9 C139_9 1_555 1_555
C144_9 C138_9 1_555 1_555
H75_9 C144_9 1_555 1_555
C145_9 C139_9 1_555 1_555
H76_9 C145_9 1_555 1_555
C146_9 C144_9 1_555 1_555
H77_9 C146_9 1_555 1_555
O26_9 C156_9 1_555 1_555
O27_7 C156_9 1_555 1_555
C147_9 C107_9 1_555 1_555
C148_9 H78_9 1_555 1_555
C149_9 C147_9 1_555 1_555
H79_9 C149_9 1_555 1_555
C150_9 H80_9 1_555 1_555
C151_9 C148_9 1_555 1_555
C152_9 C148_9 1_555 1_555
C153_9 C140_9 1_555 1_555
C154_9 C150_9 1_555 1_555
H81_9 C154_9 1_555 1_555
C155_9 C149_9 1_555 1_555
C156_9 C152_9 1_555 1_555
C157_9 C151_9 1_555 1_555
H82_9 C157_9 1_555 1_555
C158_9 C152_9 1_555 1_555
H83_9 C158_9 1_555 1_555
C159_9 C157_9 1_555 1_555
H84_9 C159_9 1_555 1_555
Zn9_7 O27_7 1_555 1_555
Zn9_8 O25_7 1_555 1_555
Zn18_7 O8_7 1_555 1_555
Zn14_6 O17_7 1_555 1_555
Zn18_5 O26_9 1_555 1_555
Zn18_8 O24_9 1_555 1_555
O29_7 Zn5_7 1_555 1_555
O31_9 Zn4_9 1_555 1_555
O41_9 Zn9_6 1_555 1_555
C26_7 C27_7 1_555 1_555
C105_9 C106_9 1_555 1_555
O20_7 Zn9_3 1_555 1_555
C111_9 C114_9 1_555 1_555
C112_9 C116_9 1_555 1_555
C113_9 C117_9 1_555 1_555
C115_9 C116_9 1_555 1_555
C119_9 C120_9 1_555 1_555
O23_9 C130_9 1_555 1_555
C121_9 C127_9 1_555 1_555
C124_9 C127_9 1_555 1_555
C125_9 C129_9 1_555 1_555
C126_9 C130_9 1_555 1_555
C128_9 C129_9 1_555 1_555
C132_9 C133_9 1_555 1_555
C137_9 C140_9 1_555 1_555
C138_9 C142_9 1_555 1_555
C141_9 C142_9 1_555 1_555
C145_9 C146_9 1_555 1_555
C147_9 C153_9 1_555 1_555
C150_9 C153_9 1_555 1_555
C151_9 C155_9 1_555 1_555
C154_9 C155_9 1_555 1_555
C158_9 C159_9 1_555 1_555
O28_18 Zn18_7 1_555 1_555
O32_15 Zn18_7 1_555 1_555
Zn9_4 O11_10 1_555 1_555
Zn4_10 O10_10 1_555 1_555
O10_10 C64_10 1_555 1_555
O11_10 C64_10 1_555 1_555
O12_10 Zn4_10 1_555 1_555
C54_10 C55_10 1_555 1_555
C55_10 C57_10 1_555 1_555
C56_10 H29_10 1_555 1_555
C57_10 H30_10 1_555 1_555
C58_10 H31_10 1_555 1_555
C59_10 C56_10 1_555 1_555
C60_10 C56_10 1_555 1_555
C61_10 C55_10 1_555 1_555
C62_10 C58_10 1_555 1_555
H32_10 C62_10 1_555 1_555
C63_10 C57_10 1_555 1_555
C64_10 C60_10 1_555 1_555
C65_10 C59_10 1_555 1_555
H33_10 C65_10 1_555 1_555
C66_10 C60_10 1_555 1_555
H34_10 C66_10 1_555 1_555
C67_10 C65_10 1_555 1_555
H35_10 C67_10 1_555 1_555
C68_10 C54_10 1_555 1_555
C69_10 H36_10 1_555 1_555
C70_10 C68_10 1_555 1_555
H37_10 C70_10 1_555 1_555
C71_10 H38_10 1_555 1_555
C72_10 C69_10 1_555 1_555
C73_10 C69_10 1_555 1_555
C74_10 C61_10 1_555 1_555
C75_10 C71_10 1_555 1_555
H39_10 C75_10 1_555 1_555
C76_10 C70_10 1_555 1_555
C78_10 C72_10 1_555 1_555
H40_10 C78_10 1_555 1_555
C79_10 C73_10 1_555 1_555
H41_10 C79_10 1_555 1_555
C80_10 C78_10 1_555 1_555
H42_10 C80_10 1_555 1_555
C81_10 C54_10 1_555 1_555
C82_10 H43_10 1_555 1_555
C83_10 C81_10 1_555 1_555
H44_10 C83_10 1_555 1_555
C84_10 H45_10 1_555 1_555
C85_10 C82_10 1_555 1_555
C87_10 C81_10 1_555 1_555
C88_10 C84_10 1_555 1_555
H46_10 C88_10 1_555 1_555
C89_10 C83_10 1_555 1_555
C91_10 C85_10 1_555 1_555
H47_10 C91_10 1_555 1_555
O33_13 C103_10 1_555 1_555
O38_6 C103_10 1_555 1_555
C94_10 C54_10 1_555 1_555
C95_10 H50_10 1_555 1_555
C96_10 C94_10 1_555 1_555
H51_10 C96_10 1_555 1_555
C97_10 H52_10 1_555 1_555
C98_10 C95_10 1_555 1_555
C99_10 C95_10 1_555 1_555
C100_10 C87_10 1_555 1_555
C101_10 C97_10 1_555 1_555
H53_10 C101_10 1_555 1_555
C102_10 C96_10 1_555 1_555
C103_10 C99_10 1_555 1_555
C104_10 C98_10 1_555 1_555
H54_10 C104_10 1_555 1_555
C105_10 C99_10 1_555 1_555
H55_10 C105_10 1_555 1_555
C106_10 C104_10 1_555 1_555
H56_10 C106_10 1_555 1_555
O34_9 C117_10 1_555 1_555
C107_10 C108_10 1_555 1_555
C108_10 C110_10 1_555 1_555
C109_10 H57_10 1_555 1_555
C110_10 H58_10 1_555 1_555
C111_10 H59_10 1_555 1_555
C112_10 C109_10 1_555 1_555
C113_10 C109_10 1_555 1_555
C114_10 C108_10 1_555 1_555
C115_10 C111_10 1_555 1_555
H60_10 C115_10 1_555 1_555
C116_10 C110_10 1_555 1_555
C117_10 O30_7 1_555 1_555
C118_10 C112_10 1_555 1_555
H61_10 C118_10 1_555 1_555
C119_10 C113_10 1_555 1_555
H62_10 C119_10 1_555 1_555
C120_10 C118_10 1_555 1_555
H63_10 C120_10 1_555 1_555
O22_10 Zn4_10 1_555 1_555
O23_10 Zn9_4 1_555 1_555
C121_10 C107_10 1_555 1_555
C122_10 H64_10 1_555 1_555
C123_10 C121_10 1_555 1_555
H65_10 C123_10 1_555 1_555
C124_10 H66_10 1_555 1_555
C125_10 C122_10 1_555 1_555
C126_10 C122_10 1_555 1_555
C127_10 C114_10 1_555 1_555
C128_10 C124_10 1_555 1_555
H67_10 C128_10 1_555 1_555
C129_10 C123_10 1_555 1_555
C130_10 O22_10 1_555 1_555
C131_10 C125_10 1_555 1_555
H68_10 C131_10 1_555 1_555
C132_10 C126_10 1_555 1_555
H69_10 C132_10 1_555 1_555
C133_10 C131_10 1_555 1_555
H70_10 C133_10 1_555 1_555
O24_10 C143_10 1_555 1_555
O25_8 C143_10 1_555 1_555
C134_10 C107_10 1_555 1_555
C135_10 H71_10 1_555 1_555
C136_10 C134_10 1_555 1_555
H72_10 C136_10 1_555 1_555
C137_10 H73_10 1_555 1_555
C138_10 C135_10 1_555 1_555
C139_10 C135_10 1_555 1_555
C140_10 C134_10 1_555 1_555
C141_10 C137_10 1_555 1_555
H74_10 C141_10 1_555 1_555
C142_10 C136_10 1_555 1_555
C143_10 C139_10 1_555 1_555
C144_10 C138_10 1_555 1_555
H75_10 C144_10 1_555 1_555
C145_10 C139_10 1_555 1_555
H76_10 C145_10 1_555 1_555
C146_10 C144_10 1_555 1_555
H77_10 C146_10 1_555 1_555
O26_10 C156_10 1_555 1_555
O27_8 C156_10 1_555 1_555
C147_10 C107_10 1_555 1_555
C148_10 H78_10 1_555 1_555
C149_10 C147_10 1_555 1_555
H79_10 C149_10 1_555 1_555
C150_10 H80_10 1_555 1_555
C151_10 C148_10 1_555 1_555
C152_10 C148_10 1_555 1_555
C153_10 C140_10 1_555 1_555
C154_10 C150_10 1_555 1_555
H81_10 C154_10 1_555 1_555
C155_10 C149_10 1_555 1_555
C156_10 C152_10 1_555 1_555
C157_10 C151_10 1_555 1_555
H82_10 C157_10 1_555 1_555
C158_10 C152_10 1_555 1_555
H83_10 C158_10 1_555 1_555
C159_10 C157_10 1_555 1_555
H84_10 C159_10 1_555 1_555
Zn8_4 O27_8 1_555 1_555
Zn8_3 O25_8 1_555 1_555
Zn17_5 O26_10 1_555 1_555
Zn17_2 O24_10 1_555 1_555
O31_10 Zn4_10 1_555 1_555
O35_12 Zn9_4 1_555 1_555
O38_10 Zn9_2 1_555 1_555
O39_10 Zn9_4 1_555 1_555
O41_10 Zn9_4 1_555 1_555
C58_10 C61_10 1_555 1_555
C59_10 C63_10 1_555 1_555
C62_10 C63_10 1_555 1_555
C66_10 C67_10 1_555 1_555
C68_10 C74_10 1_555 1_555
C71_10 C74_10 1_555 1_555
C72_10 C76_10 1_555 1_555
C75_10 C76_10 1_555 1_555
C79_10 C80_10 1_555 1_555
C84_10 C87_10 1_555 1_555
C85_10 C89_10 1_555 1_555
C88_10 C89_10 1_555 1_555
C94_10 C100_10 1_555 1_555
C97_10 C100_10 1_555 1_555
C98_10 C102_10 1_555 1_555
C101_10 C102_10 1_555 1_555
C105_10 C106_10 1_555 1_555
C111_10 C114_10 1_555 1_555
C112_10 C116_10 1_555 1_555
C113_10 C117_10 1_555 1_555
C115_10 C116_10 1_555 1_555
C119_10 C120_10 1_555 1_555
O23_10 C130_10 1_555 1_555
C121_10 C127_10 1_555 1_555
C124_10 C127_10 1_555 1_555
C125_10 C129_10 1_555 1_555
C126_10 C130_10 1_555 1_555
C128_10 C129_10 1_555 1_555
C132_10 C133_10 1_555 1_555
C137_10 C140_10 1_555 1_555
C138_10 C142_10 1_555 1_555
C141_10 C142_10 1_555 1_555
C145_10 C146_10 1_555 1_555
C147_10 C153_10 1_555 1_555
C150_10 C153_10 1_555 1_555
C151_10 C155_10 1_555 1_555
C154_10 C155_10 1_555 1_555
C158_10 C159_10 1_555 1_555
O14_10 Zn9_3 1_555 1_555
C77_10 O29_7 1_555 1_555
O15_9 C90_10 1_555 1_555
C90_10 C86_10 1_555 1_555
C92_10 C86_10 1_555 1_555
H48_10 C92_10 1_555 1_555
H49_10 C93_10 1_555 1_555
Zn14_7 O15_9 1_555 1_555
O40_10 Zn9_3 1_555 1_555
O14_10 C77_10 1_555 1_555
C92_10 C93_10 1_555 1_555
O28_19 Zn18_6 1_555 1_555
O32_16 Zn18_6 1_555 1_555
O33_18 Zn18_6 1_555 1_555
C1_8 C2_8 1_555 1_555
C2_8 C4_8 1_555 1_555
C3_8 H1_8 1_555 1_555
C4_8 H2_8 1_555 1_555
C5_8 H3_8 1_555 1_555
C6_8 C3_8 1_555 1_555
C8_8 C2_8 1_555 1_555
C9_8 C5_8 1_555 1_555
H4_8 C9_8 1_555 1_555
C10_8 C4_8 1_555 1_555
C12_8 C6_8 1_555 1_555
H5_8 C12_8 1_555 1_555
O31_10 C24_8 1_555 1_555
O35_12 C24_8 1_555 1_555
C15_8 C1_8 1_555 1_555
C16_8 H8_8 1_555 1_555
C17_8 C15_8 1_555 1_555
H9_8 C17_8 1_555 1_555
C18_8 H10_8 1_555 1_555
C19_8 C16_8 1_555 1_555
C20_8 C16_8 1_555 1_555
C21_8 C8_8 1_555 1_555
C22_8 C18_8 1_555 1_555
H11_8 C22_8 1_555 1_555
C23_8 C17_8 1_555 1_555
C24_8 C20_8 1_555 1_555
C25_8 C19_8 1_555 1_555
H12_8 C25_8 1_555 1_555
C26_8 C20_8 1_555 1_555
H13_8 C26_8 1_555 1_555
C27_8 C25_8 1_555 1_555
H14_8 C27_8 1_555 1_555
C28_8 C1_8 1_555 1_555
C29_8 H15_8 1_555 1_555
C30_8 C28_8 1_555 1_555
H16_8 C30_8 1_555 1_555
C31_8 H17_8 1_555 1_555
C32_8 C29_8 1_555 1_555
C33_8 C29_8 1_555 1_555
C34_8 C28_8 1_555 1_555
C35_8 C31_8 1_555 1_555
H18_8 C35_8 1_555 1_555
C36_8 C30_8 1_555 1_555
C38_8 C32_8 1_555 1_555
H19_8 C38_8 1_555 1_555
C39_8 C33_8 1_555 1_555
H20_8 C39_8 1_555 1_555
C40_8 C38_8 1_555 1_555
H21_8 C40_8 1_555 1_555
O8_8 C50_8 1_555 1_555
O39_4 C50_8 1_555 1_555
C41_8 C1_8 1_555 1_555
C42_8 H22_8 1_555 1_555
C43_8 C41_8 1_555 1_555
H23_8 C43_8 1_555 1_555
C44_8 H24_8 1_555 1_555
C45_8 C42_8 1_555 1_555
C46_8 C42_8 1_555 1_555
C47_8 C34_8 1_555 1_555
C48_8 C44_8 1_555 1_555
H25_8 C48_8 1_555 1_555
C49_8 C43_8 1_555 1_555
C50_8 C46_8 1_555 1_555
C51_8 C45_8 1_555 1_555
H26_8 C51_8 1_555 1_555
C52_8 C46_8 1_555 1_555
H27_8 C52_8 1_555 1_555
C53_8 C51_8 1_555 1_555
H28_8 C53_8 1_555 1_555
Zn17_4 O8_8 1_555 1_555
C5_8 C8_8 1_555 1_555
C6_8 C10_8 1_555 1_555
C9_8 C10_8 1_555 1_555
C15_8 C21_8 1_555 1_555
C18_8 C21_8 1_555 1_555
C19_8 C23_8 1_555 1_555
C22_8 C23_8 1_555 1_555
C26_8 C27_8 1_555 1_555
C31_8 C34_8 1_555 1_555
C32_8 C36_8 1_555 1_555
C35_8 C36_8 1_555 1_555
C39_8 C40_8 1_555 1_555
C41_8 C47_8 1_555 1_555
C44_8 C47_8 1_555 1_555
C45_8 C49_8 1_555 1_555
C48_8 C49_8 1_555 1_555
C52_8 C53_8 1_555 1_555
O31_9 C11_8 1_555 1_555
C11_8 C7_8 1_555 1_555
C13_8 C7_8 1_555 1_555
H6_8 C13_8 1_555 1_555
H7_8 C14_8 1_555 1_555
O33_18 C37_8 1_555 1_555
O39_3 C37_8 1_555 1_555
C13_8 C14_8 1_555 1_555
C54_11 C55_11 1_555 1_555
C55_11 C57_11 1_555 1_555
C56_11 H29_11 1_555 1_555
C57_11 H30_11 1_555 1_555
C58_11 H31_11 1_555 1_555
C59_11 C56_11 1_555 1_555
C61_11 C55_11 1_555 1_555
C62_11 C58_11 1_555 1_555
H32_11 C62_11 1_555 1_555
C63_11 C57_11 1_555 1_555
C65_11 C59_11 1_555 1_555
H33_11 C65_11 1_555 1_555
C68_11 C54_11 1_555 1_555
C69_11 H36_11 1_555 1_555
C70_11 C68_11 1_555 1_555
H37_11 C70_11 1_555 1_555
C71_11 H38_11 1_555 1_555
C72_11 C69_11 1_555 1_555
C73_11 C69_11 1_555 1_555
C74_11 C61_11 1_555 1_555
C75_11 C71_11 1_555 1_555
H39_11 C75_11 1_555 1_555
C76_11 C70_11 1_555 1_555
C77_11 O31_6 1_555 1_555
C78_11 C72_11 1_555 1_555
H40_11 C78_11 1_555 1_555
C79_11 C73_11 1_555 1_555
H41_11 C79_11 1_555 1_555
C80_11 C78_11 1_555 1_555
H42_11 C80_11 1_555 1_555
C81_11 C54_11 1_555 1_555
C82_11 H43_11 1_555 1_555
C83_11 C81_11 1_555 1_555
H44_11 C83_11 1_555 1_555
C84_11 H45_11 1_555 1_555
C85_11 C82_11 1_555 1_555
C86_11 C82_11 1_555 1_555
C87_11 C81_11 1_555 1_555
C88_11 C84_11 1_555 1_555
H46_11 C88_11 1_555 1_555
C89_11 C83_11 1_555 1_555
C91_11 C85_11 1_555 1_555
H47_11 C91_11 1_555 1_555
C92_11 C86_11 1_555 1_555
H48_11 C92_11 1_555 1_555
C93_11 C91_11 1_555 1_555
H49_11 C93_11 1_555 1_555
C94_11 C54_11 1_555 1_555
C95_11 H50_11 1_555 1_555
C96_11 C94_11 1_555 1_555
H51_11 C96_11 1_555 1_555
C97_11 H52_11 1_555 1_555
C98_11 C95_11 1_555 1_555
C100_11 C87_11 1_555 1_555
C101_11 C97_11 1_555 1_555
H53_11 C101_11 1_555 1_555
C102_11 C96_11 1_555 1_555
C104_11 C98_11 1_555 1_555
H54_11 C104_11 1_555 1_555
C58_11 C61_11 1_555 1_555
C59_11 C63_11 1_555 1_555
C62_11 C63_11 1_555 1_555
O35_8 C77_11 1_555 1_555
C68_11 C74_11 1_555 1_555
C71_11 C74_11 1_555 1_555
C72_11 C76_11 1_555 1_555
C73_11 C77_11 1_555 1_555
C75_11 C76_11 1_555 1_555
C79_11 C80_11 1_555 1_555
C84_11 C87_11 1_555 1_555
C85_11 C89_11 1_555 1_555
C88_11 C89_11 1_555 1_555
C92_11 C93_11 1_555 1_555
C94_11 C100_11 1_555 1_555
C97_11 C100_11 1_555 1_555
C98_11 C102_11 1_555 1_555
C101_11 C102_11 1_555 1_555
O17_8 C103_11 1_555 1_555
C103_11 C99_11 1_555 1_555
C105_11 C99_11 1_555 1_555
H55_11 C105_11 1_555 1_555
H56_11 C106_11 1_555 1_555
Zn14_5 O17_8 1_555 1_555
C105_11 C106_11 1_555 1_555
C66_11 C60_11 1_555 1_555
H34_11 C66_11 1_555 1_555
H35_11 C67_11 1_555 1_555
O15_10 C90_11 1_555 1_555
O37 C90_11 1_555 1_555
Zn14_8 O15_10 1_555 1_555
C66_11 C67_11 1_555 1_555
O31_7 C64_11 1_555 1_555
O28_20 Zn18_5 1_555 1_555
O33_19 Zn18_5 1_555 1_555
O31_3 C24_9 1_555 1_555
C26_9 C20_9 1_555 1_555
H13_9 C26_9 1_555 1_555
H14_9 C27_9 1_555 1_555
O32_10 C50_9 1_555 1_555
O39_9 C50_9 1_555 1_555
O29_3 C64_12 1_555 1_555
O34_5 C64_12 1_555 1_555
O33_8 C103_12 1_555 1_555
C103_12 C99_12 1_555 1_555
C105_12 C99_12 1_555 1_555
H55_12 C105_12 1_555 1_555
H56_12 C106_12 1_555 1_555
C26_9 C27_9 1_555 1_555
C105_12 C106_12 1_555 1_555
O33_11 C37_9 1_555 1_555
C37_9 C33_9 1_555 1_555
C39_9 C33_9 1_555 1_555
H20_9 C39_9 1_555 1_555
H21_9 C40_9 1_555 1_555
C39_9 C40_9 1_555 1_555
Zn9_8 O2_8 1_555 1_555
Zn2_8 O1_8 1_555 1_555
O1_8 C11_9 1_555 1_555
O2_8 C11_9 1_555 1_555
O3_8 Zn2_8 1_555 1_555
C1_9 C2_9 1_555 1_555
C2_9 C4_9 1_555 1_555
C3_9 H1_9 1_555 1_555
C4_9 H2_9 1_555 1_555
C5_9 H3_9 1_555 1_555
C6_9 C3_9 1_555 1_555
C7_9 C3_9 1_555 1_555
C8_9 C2_9 1_555 1_555
C9_9 C5_9 1_555 1_555
H4_9 C9_9 1_555 1_555
C10_9 C4_9 1_555 1_555
C11_9 C7_9 1_555 1_555
C12_9 C6_9 1_555 1_555
H5_9 C12_9 1_555 1_555
C13_9 C7_9 1_555 1_555
H6_9 C13_9 1_555 1_555
C14_9 C12_9 1_555 1_555
H7_9 C14_9 1_555 1_555
C15_9 C1_9 1_555 1_555
C16_9 H8_9 1_555 1_555
C17_9 C15_9 1_555 1_555
H9_9 C17_9 1_555 1_555
C18_9 H10_9 1_555 1_555
C19_9 C16_9 1_555 1_555
C21_9 C8_9 1_555 1_555
C22_9 C18_9 1_555 1_555
H11_9 C22_9 1_555 1_555
C23_9 C17_9 1_555 1_555
C25_9 C19_9 1_555 1_555
H12_9 C25_9 1_555 1_555
C28_9 C1_9 1_555 1_555
C29_9 H15_9 1_555 1_555
C30_9 C28_9 1_555 1_555
H16_9 C30_9 1_555 1_555
C31_9 H17_9 1_555 1_555
C32_9 C29_9 1_555 1_555
C34_9 C28_9 1_555 1_555
C35_9 C31_9 1_555 1_555
H18_9 C35_9 1_555 1_555
C36_9 C30_9 1_555 1_555
C38_9 C32_9 1_555 1_555
H19_9 C38_9 1_555 1_555
C41_9 C1_9 1_555 1_555
C42_9 H22_9 1_555 1_555
C43_9 C41_9 1_555 1_555
H23_9 C43_9 1_555 1_555
C44_9 H24_9 1_555 1_555
C45_9 C42_9 1_555 1_555
C46_9 C42_9 1_555 1_555
C47_9 C34_9 1_555 1_555
C48_9 C44_9 1_555 1_555
H25_9 C48_9 1_555 1_555
C49_9 C43_9 1_555 1_555
C51_9 C45_9 1_555 1_555
H26_9 C51_9 1_555 1_555
C52_9 C46_9 1_555 1_555
H27_9 C52_9 1_555 1_555
C53_9 C51_9 1_555 1_555
H28_9 C53_9 1_555 1_555
C54_12 C55_12 1_555 1_555
C55_12 C57_12 1_555 1_555
C56_12 H29_12 1_555 1_555
C57_12 H30_12 1_555 1_555
C58_12 H31_12 1_555 1_555
C59_12 C56_12 1_555 1_555
C60_12 C56_12 1_555 1_555
C61_12 C55_12 1_555 1_555
C62_12 C58_12 1_555 1_555
H32_12 C62_12 1_555 1_555
C63_12 C57_12 1_555 1_555
C65_12 C59_12 1_555 1_555
H33_12 C65_12 1_555 1_555
C66_12 C60_12 1_555 1_555
H34_12 C66_12 1_555 1_555
C67_12 C65_12 1_555 1_555
H35_12 C67_12 1_555 1_555
O13_8 Zn2_8 1_555 1_555
O14_11 Zn9_8 1_555 1_555
C68_12 C54_12 1_555 1_555
C69_12 H36_12 1_555 1_555
C70_12 C68_12 1_555 1_555
H37_12 C70_12 1_555 1_555
C71_12 H38_12 1_555 1_555
C72_12 C69_12 1_555 1_555
C73_12 C69_12 1_555 1_555
C74_12 C61_12 1_555 1_555
C75_12 C71_12 1_555 1_555
H39_12 C75_12 1_555 1_555
C76_12 C70_12 1_555 1_555
C77_12 O13_8 1_555 1_555
C78_12 C72_12 1_555 1_555
H40_12 C78_12 1_555 1_555
C79_12 C73_12 1_555 1_555
H41_12 C79_12 1_555 1_555
C80_12 C78_12 1_555 1_555
H42_12 C80_12 1_555 1_555
O32 C90_12 1_555 1_555
O39_8 C90_12 1_555 1_555
C81_12 C54_12 1_555 1_555
C82_12 H43_12 1_555 1_555
C83_12 C81_12 1_555 1_555
H44_12 C83_12 1_555 1_555
C84_12 H45_12 1_555 1_555
C85_12 C82_12 1_555 1_555
C86_12 C82_12 1_555 1_555
C87_12 C81_12 1_555 1_555
C88_12 C84_12 1_555 1_555
H46_12 C88_12 1_555 1_555
C89_12 C83_12 1_555 1_555
C90_12 C86_12 1_555 1_555
C91_12 C85_12 1_555 1_555
H47_12 C91_12 1_555 1_555
C92_12 C86_12 1_555 1_555
H48_12 C92_12 1_555 1_555
C93_12 C91_12 1_555 1_555
H49_12 C93_12 1_555 1_555
C94_12 C54_12 1_555 1_555
C95_12 H50_12 1_555 1_555
C96_12 C94_12 1_555 1_555
H51_12 C96_12 1_555 1_555
C97_12 H52_12 1_555 1_555
C98_12 C95_12 1_555 1_555
C100_12 C87_12 1_555 1_555
C101_12 C97_12 1_555 1_555
H53_12 C101_12 1_555 1_555
C102_12 C96_12 1_555 1_555
C104_12 C98_12 1_555 1_555
H54_12 C104_12 1_555 1_555
Zn13_2 O7_5 1_555 1_555
O30_8 Zn2_8 1_555 1_555
O34_10 Zn9_8 1_555 1_555
O38_11 Zn9_8 1_555 1_555
C5_9 C8_9 1_555 1_555
C6_9 C10_9 1_555 1_555
C9_9 C10_9 1_555 1_555
C13_9 C14_9 1_555 1_555
C15_9 C21_9 1_555 1_555
C18_9 C21_9 1_555 1_555
C19_9 C23_9 1_555 1_555
C22_9 C23_9 1_555 1_555
C31_9 C34_9 1_555 1_555
C32_9 C36_9 1_555 1_555
C35_9 C36_9 1_555 1_555
C41_9 C47_9 1_555 1_555
C44_9 C47_9 1_555 1_555
C45_9 C49_9 1_555 1_555
C48_9 C49_9 1_555 1_555
C52_9 C53_9 1_555 1_555
C58_12 C61_12 1_555 1_555
C59_12 C63_12 1_555 1_555
C62_12 C63_12 1_555 1_555
C66_12 C67_12 1_555 1_555
O14_11 C77_12 1_555 1_555
C68_12 C74_12 1_555 1_555
C71_12 C74_12 1_555 1_555
C72_12 C76_12 1_555 1_555
C73_12 C77_12 1_555 1_555
C75_12 C76_12 1_555 1_555
C79_12 C80_12 1_555 1_555
C84_12 C87_12 1_555 1_555
C85_12 C89_12 1_555 1_555
C88_12 C89_12 1_555 1_555
C92_12 C93_12 1_555 1_555
C94_12 C100_12 1_555 1_555
C97_12 C100_12 1_555 1_555
C98_12 C102_12 1_555 1_555
C101_12 C102_12 1_555 1_555
O29_4 C64_13 1_555 1_555
C64_13 C60_13 1_555 1_555
C66_13 C60_13 1_555 1_555
H34_13 C66_13 1_555 1_555
H35_13 C67_13 1_555 1_555
O32_2 C90_13 1_555 1_555
O38_8 C90_13 1_555 1_555
C66_13 C67_13 1_555 1_555
O31_4 C24_10 1_555 1_555
O35_4 C24_10 1_555 1_555
O33_9 C37_10 1_555 1_555
C37_10 C33_10 1_555 1_555
C39_10 C33_10 1_555 1_555
H20_10 C39_10 1_555 1_555
H21_10 C40_10 1_555 1_555
C39_10 C40_10 1_555 1_555
Zn8_3 O2_9 1_555 1_555
Zn2_9 O1_9 1_555 1_555
O1_9 C11_10 1_555 1_555
O2_9 C11_10 1_555 1_555
O3_9 Zn2_9 1_555 1_555
C1_10 C2_10 1_555 1_555
C2_10 C4_10 1_555 1_555
C3_10 H1_10 1_555 1_555
C4_10 H2_10 1_555 1_555
C5_10 H3_10 1_555 1_555
C6_10 C3_10 1_555 1_555
C7_10 C3_10 1_555 1_555
C8_10 C2_10 1_555 1_555
C9_10 C5_10 1_555 1_555
H4_10 C9_10 1_555 1_555
C10_10 C4_10 1_555 1_555
C11_10 C7_10 1_555 1_555
C12_10 C6_10 1_555 1_555
H5_10 C12_10 1_555 1_555
C13_10 C7_10 1_555 1_555
H6_10 C13_10 1_555 1_555
C14_10 C12_10 1_555 1_555
H7_10 C14_10 1_555 1_555
C15_10 C1_10 1_555 1_555
C16_10 H8_10 1_555 1_555
C17_10 C15_10 1_555 1_555
H9_10 C17_10 1_555 1_555
C18_10 H10_10 1_555 1_555
C19_10 C16_10 1_555 1_555
C20_10 C16_10 1_555 1_555
C21_10 C8_10 1_555 1_555
C22_10 C18_10 1_555 1_555
H11_10 C22_10 1_555 1_555
C23_10 C17_10 1_555 1_555
C25_10 C19_10 1_555 1_555
H12_10 C25_10 1_555 1_555
C26_10 C20_10 1_555 1_555
H13_10 C26_10 1_555 1_555
C27_10 C25_10 1_555 1_555
H14_10 C27_10 1_555 1_555
C28_10 C1_10 1_555 1_555
C29_10 H15_10 1_555 1_555
C30_10 C28_10 1_555 1_555
H16_10 C30_10 1_555 1_555
C31_10 H17_10 1_555 1_555
C32_10 C29_10 1_555 1_555
C34_10 C28_10 1_555 1_555
C35_10 C31_10 1_555 1_555
H18_10 C35_10 1_555 1_555
C36_10 C30_10 1_555 1_555
C38_10 C32_10 1_555 1_555
H19_10 C38_10 1_555 1_555
O32_6 C50_10 1_555 1_555
O39_10 C50_10 1_555 1_555
C41_10 C1_10 1_555 1_555
C42_10 H22_10 1_555 1_555
C43_10 C41_10 1_555 1_555
H23_10 C43_10 1_555 1_555
C44_10 H24_10 1_555 1_555
C45_10 C42_10 1_555 1_555
C46_10 C42_10 1_555 1_555
C47_10 C34_10 1_555 1_555
C48_10 C44_10 1_555 1_555
H25_10 C48_10 1_555 1_555
C49_10 C43_10 1_555 1_555
C50_10 C46_10 1_555 1_555
C51_10 C45_10 1_555 1_555
H26_10 C51_10 1_555 1_555
C52_10 C46_10 1_555 1_555
H27_10 C52_10 1_555 1_555
C53_10 C51_10 1_555 1_555
H28_10 C53_10 1_555 1_555
C54_13 C55_13 1_555 1_555
C55_13 C57_13 1_555 1_555
C56_13 H29_13 1_555 1_555
C57_13 H30_13 1_555 1_555
C58_13 H31_13 1_555 1_555
C59_13 C56_13 1_555 1_555
C61_13 C55_13 1_555 1_555
C62_13 C58_13 1_555 1_555
H32_13 C62_13 1_555 1_555
C63_13 C57_13 1_555 1_555
C65_13 C59_13 1_555 1_555
H33_13 C65_13 1_555 1_555
O13_9 Zn2_9 1_555 1_555
O14_12 Zn8_3 1_555 1_555
C68_13 C54_13 1_555 1_555
C69_13 H36_13 1_555 1_555
C70_13 C68_13 1_555 1_555
H37_13 C70_13 1_555 1_555
C71_13 H38_13 1_555 1_555
C72_13 C69_13 1_555 1_555
C73_13 C69_13 1_555 1_555
C74_13 C61_13 1_555 1_555
C75_13 C71_13 1_555 1_555
H39_13 C75_13 1_555 1_555
C76_13 C70_13 1_555 1_555
C77_13 O13_9 1_555 1_555
C78_13 C72_13 1_555 1_555
H40_13 C78_13 1_555 1_555
C79_13 C73_13 1_555 1_555
H41_13 C79_13 1_555 1_555
C80_13 C78_13 1_555 1_555
H42_13 C80_13 1_555 1_555
C81_13 C54_13 1_555 1_555
C82_13 H43_13 1_555 1_555
C83_13 C81_13 1_555 1_555
H44_13 C83_13 1_555 1_555
C84_13 H45_13 1_555 1_555
C85_13 C82_13 1_555 1_555
C86_13 C82_13 1_555 1_555
C87_13 C81_13 1_555 1_555
C88_13 C84_13 1_555 1_555
H46_13 C88_13 1_555 1_555
C89_13 C83_13 1_555 1_555
C91_13 C85_13 1_555 1_555
H47_13 C91_13 1_555 1_555
C92_13 C86_13 1_555 1_555
H48_13 C92_13 1_555 1_555
C93_13 C91_13 1_555 1_555
H49_13 C93_13 1_555 1_555
O33_12 C103_13 1_555 1_555
O40_9 C103_13 1_555 1_555
C94_13 C54_13 1_555 1_555
C95_13 H50_13 1_555 1_555
C96_13 C94_13 1_555 1_555
H51_13 C96_13 1_555 1_555
C97_13 H52_13 1_555 1_555
C98_13 C95_13 1_555 1_555
C99_13 C95_13 1_555 1_555
C100_13 C87_13 1_555 1_555
C101_13 C97_13 1_555 1_555
H53_13 C101_13 1_555 1_555
C102_13 C96_13 1_555 1_555
C103_13 C99_13 1_555 1_555
C104_13 C98_13 1_555 1_555
H54_13 C104_13 1_555 1_555
C105_13 C99_13 1_555 1_555
H55_13 C105_13 1_555 1_555
C106_13 C104_13 1_555 1_555
H56_13 C106_13 1_555 1_555
Zn13_4 O7_6 1_555 1_555
O30_9 Zn2_9 1_555 1_555
O34_11 Zn8_3 1_555 1_555
O38_12 Zn8_3 1_555 1_555
C5_10 C8_10 1_555 1_555
C6_10 C10_10 1_555 1_555
C9_10 C10_10 1_555 1_555
C13_10 C14_10 1_555 1_555
C15_10 C21_10 1_555 1_555
C18_10 C21_10 1_555 1_555
C19_10 C23_10 1_555 1_555
C22_10 C23_10 1_555 1_555
C26_10 C27_10 1_555 1_555
C31_10 C34_10 1_555 1_555
C32_10 C36_10 1_555 1_555
C35_10 C36_10 1_555 1_555
C41_10 C47_10 1_555 1_555
C44_10 C47_10 1_555 1_555
C45_10 C49_10 1_555 1_555
C48_10 C49_10 1_555 1_555
C52_10 C53_10 1_555 1_555
C58_13 C61_13 1_555 1_555
C59_13 C63_13 1_555 1_555
C62_13 C63_13 1_555 1_555
O14_12 C77_13 1_555 1_555
C68_13 C74_13 1_555 1_555
C71_13 C74_13 1_555 1_555
C72_13 C76_13 1_555 1_555
C73_13 C77_13 1_555 1_555
C75_13 C76_13 1_555 1_555
C79_13 C80_13 1_555 1_555
C84_13 C87_13 1_555 1_555
C85_13 C89_13 1_555 1_555
C88_13 C89_13 1_555 1_555
C92_13 C93_13 1_555 1_555
C94_13 C100_13 1_555 1_555
C97_13 C100_13 1_555 1_555
C98_13 C102_13 1_555 1_555
C101_13 C102_13 1_555 1_555
C105_13 C106_13 1_555 1_555
O29 C64_14 1_555 1_555
O31 C24_11 1_555 1_555
C24_11 C20_11 1_555 1_555
C26_11 C20_11 1_555 1_555
H13_11 C26_11 1_555 1_555
H14_11 C27_11 1_555 1_555
O32_8 C50_11 1_555 1_555
O38_10 C50_11 1_555 1_555
O33_10 C103_14 1_555 1_555
C103_14 C99_14 1_555 1_555
C105_14 C99_14 1_555 1_555
H55_14 C105_14 1_555 1_555
H56_14 C106_14 1_555 1_555
C26_11 C27_11 1_555 1_555
C105_14 C106_14 1_555 1_555
C66_14 C60_14 1_555 1_555
H34_14 C66_14 1_555 1_555
H35_14 C67_14 1_555 1_555
O32_3 C90_14 1_555 1_555
O39_7 C90_14 1_555 1_555
C66_14 C67_14 1_555 1_555
Zn9_7 O2_10 1_555 1_555
Zn2_10 O1_10 1_555 1_555
O1_10 C11_11 1_555 1_555
O2_10 C11_11 1_555 1_555
O3_10 Zn2_10 1_555 1_555
C1_11 C2_11 1_555 1_555
C2_11 C4_11 1_555 1_555
C3_11 H1_11 1_555 1_555
C4_11 H2_11 1_555 1_555
C5_11 H3_11 1_555 1_555
C6_11 C3_11 1_555 1_555
C7_11 C3_11 1_555 1_555
C8_11 C2_11 1_555 1_555
C9_11 C5_11 1_555 1_555
H4_11 C9_11 1_555 1_555
C10_11 C4_11 1_555 1_555
C11_11 C7_11 1_555 1_555
C12_11 C6_11 1_555 1_555
H5_11 C12_11 1_555 1_555
C13_11 C7_11 1_555 1_555
H6_11 C13_11 1_555 1_555
C14_11 C12_11 1_555 1_555
H7_11 C14_11 1_555 1_555
C15_11 C1_11 1_555 1_555
C16_11 H8_11 1_555 1_555
C17_11 C15_11 1_555 1_555
H9_11 C17_11 1_555 1_555
C18_11 H10_11 1_555 1_555
C19_11 C16_11 1_555 1_555
C21_11 C8_11 1_555 1_555
C22_11 C18_11 1_555 1_555
H11_11 C22_11 1_555 1_555
C23_11 C17_11 1_555 1_555
C25_11 C19_11 1_555 1_555
H12_11 C25_11 1_555 1_555
O33_7 C37_11 1_555 1_555
O7_7 C37_11 1_555 1_555
C28_11 C1_11 1_555 1_555
C29_11 H15_11 1_555 1_555
C30_11 C28_11 1_555 1_555
H16_11 C30_11 1_555 1_555
C31_11 H17_11 1_555 1_555
C32_11 C29_11 1_555 1_555
C33_11 C29_11 1_555 1_555
C34_11 C28_11 1_555 1_555
C35_11 C31_11 1_555 1_555
H18_11 C35_11 1_555 1_555
C36_11 C30_11 1_555 1_555
C37_11 C33_11 1_555 1_555
C38_11 C32_11 1_555 1_555
H19_11 C38_11 1_555 1_555
C39_11 C33_11 1_555 1_555
H20_11 C39_11 1_555 1_555
C40_11 C38_11 1_555 1_555
H21_11 C40_11 1_555 1_555
C41_11 C1_11 1_555 1_555
C42_11 H22_11 1_555 1_555
C43_11 C41_11 1_555 1_555
H23_11 C43_11 1_555 1_555
C44_11 H24_11 1_555 1_555
C45_11 C42_11 1_555 1_555
C46_11 C42_11 1_555 1_555
C47_11 C34_11 1_555 1_555
C48_11 C44_11 1_555 1_555
H25_11 C48_11 1_555 1_555
C49_11 C43_11 1_555 1_555
C51_11 C45_11 1_555 1_555
H26_11 C51_11 1_555 1_555
C52_11 C46_11 1_555 1_555
H27_11 C52_11 1_555 1_555
C53_11 C51_11 1_555 1_555
H28_11 C53_11 1_555 1_555
C54_14 C55_14 1_555 1_555
C55_14 C57_14 1_555 1_555
C56_14 H29_14 1_555 1_555
C57_14 H30_14 1_555 1_555
C58_14 H31_14 1_555 1_555
C59_14 C56_14 1_555 1_555
C61_14 C55_14 1_555 1_555
C62_14 C58_14 1_555 1_555
H32_14 C62_14 1_555 1_555
C63_14 C57_14 1_555 1_555
C65_14 C59_14 1_555 1_555
H33_14 C65_14 1_555 1_555
O13_10 Zn2_10 1_555 1_555
O14_13 Zn9_7 1_555 1_555
C68_14 C54_14 1_555 1_555
C69_14 H36_14 1_555 1_555
C70_14 C68_14 1_555 1_555
H37_14 C70_14 1_555 1_555
C71_14 H38_14 1_555 1_555
C72_14 C69_14 1_555 1_555
C73_14 C69_14 1_555 1_555
C74_14 C61_14 1_555 1_555
C75_14 C71_14 1_555 1_555
H39_14 C75_14 1_555 1_555
C76_14 C70_14 1_555 1_555
C77_14 O13_10 1_555 1_555
C78_14 C72_14 1_555 1_555
H40_14 C78_14 1_555 1_555
C79_14 C73_14 1_555 1_555
H41_14 C79_14 1_555 1_555
C80_14 C78_14 1_555 1_555
H42_14 C80_14 1_555 1_555
C81_14 C54_14 1_555 1_555
C82_14 H43_14 1_555 1_555
C83_14 C81_14 1_555 1_555
H44_14 C83_14 1_555 1_555
C84_14 H45_14 1_555 1_555
C85_14 C82_14 1_555 1_555
C86_14 C82_14 1_555 1_555
C87_14 C81_14 1_555 1_555
C88_14 C84_14 1_555 1_555
H46_14 C88_14 1_555 1_555
C89_14 C83_14 1_555 1_555
C91_14 C85_14 1_555 1_555
H47_14 C91_14 1_555 1_555
C92_14 C86_14 1_555 1_555
H48_14 C92_14 1_555 1_555
C93_14 C91_14 1_555 1_555
H49_14 C93_14 1_555 1_555
C94_14 C54_14 1_555 1_555
C95_14 H50_14 1_555 1_555
C96_14 C94_14 1_555 1_555
H51_14 C96_14 1_555 1_555
C97_14 H52_14 1_555 1_555
C98_14 C95_14 1_555 1_555
C100_14 C87_14 1_555 1_555
C101_14 C97_14 1_555 1_555
H53_14 C101_14 1_555 1_555
C102_14 C96_14 1_555 1_555
C104_14 C98_14 1_555 1_555
H54_14 C104_14 1_555 1_555
Zn13_5 O7_7 1_555 1_555
O30_10 Zn2_10 1_555 1_555
O34_12 Zn9_7 1_555 1_555
O38_13 Zn9_7 1_555 1_555
C5_11 C8_11 1_555 1_555
C6_11 C10_11 1_555 1_555
C9_11 C10_11 1_555 1_555
C13_11 C14_11 1_555 1_555
C15_11 C21_11 1_555 1_555
C18_11 C21_11 1_555 1_555
C19_11 C23_11 1_555 1_555
C22_11 C23_11 1_555 1_555
C31_11 C34_11 1_555 1_555
C32_11 C36_11 1_555 1_555
C35_11 C36_11 1_555 1_555
C39_11 C40_11 1_555 1_555
C41_11 C47_11 1_555 1_555
C44_11 C47_11 1_555 1_555
C45_11 C49_11 1_555 1_555
C48_11 C49_11 1_555 1_555
C52_11 C53_11 1_555 1_555
C58_14 C61_14 1_555 1_555
C59_14 C63_14 1_555 1_555
C62_14 C63_14 1_555 1_555
O14_13 C77_14 1_555 1_555
C68_14 C74_14 1_555 1_555
C71_14 C74_14 1_555 1_555
C72_14 C76_14 1_555 1_555
C73_14 C77_14 1_555 1_555
C75_14 C76_14 1_555 1_555
C79_14 C80_14 1_555 1_555
C84_14 C87_14 1_555 1_555
C85_14 C89_14 1_555 1_555
C88_14 C89_14 1_555 1_555
C92_14 C93_14 1_555 1_555
C94_14 C100_14 1_555 1_555
C97_14 C100_14 1_555 1_555
C98_14 C102_14 1_555 1_555
C101_14 C102_14 1_555 1_555
Zn8_4 O2_11 1_555 1_555
Zn2_11 O1_11 1_555 1_555
O1_11 C11_12 1_555 1_555
O2_11 C11_12 1_555 1_555
O3_11 Zn2_11 1_555 1_555
C1_12 C2_12 1_555 1_555
C2_12 C4_12 1_555 1_555
C3_12 H1_12 1_555 1_555
C4_12 H2_12 1_555 1_555
C5_12 H3_12 1_555 1_555
C6_12 C3_12 1_555 1_555
C7_12 C3_12 1_555 1_555
C8_12 C2_12 1_555 1_555
C9_12 C5_12 1_555 1_555
H4_12 C9_12 1_555 1_555
C10_12 C4_12 1_555 1_555
C11_12 C7_12 1_555 1_555
C12_12 C6_12 1_555 1_555
H5_12 C12_12 1_555 1_555
C13_12 C7_12 1_555 1_555
H6_12 C13_12 1_555 1_555
C14_12 C12_12 1_555 1_555
H7_12 C14_12 1_555 1_555
O31_2 C24_12 1_555 1_555
O35_2 C24_12 1_555 1_555
C15_12 C1_12 1_555 1_555
C16_12 H8_12 1_555 1_555
C17_12 C15_12 1_555 1_555
H9_12 C17_12 1_555 1_555
C18_12 H10_12 1_555 1_555
C19_12 C16_12 1_555 1_555
C20_12 C16_12 1_555 1_555
C21_12 C8_12 1_555 1_555
C22_12 C18_12 1_555 1_555
H11_12 C22_12 1_555 1_555
C23_12 C17_12 1_555 1_555
C24_12 C20_12 1_555 1_555
C25_12 C19_12 1_555 1_555
H12_12 C25_12 1_555 1_555
C26_12 C20_12 1_555 1_555
H13_12 C26_12 1_555 1_555
C27_12 C25_12 1_555 1_555
H14_12 C27_12 1_555 1_555
O33_5 C37_12 1_555 1_555
O7_8 C37_12 1_555 1_555
C28_12 C1_12 1_555 1_555
C29_12 H15_12 1_555 1_555
C30_12 C28_12 1_555 1_555
H16_12 C30_12 1_555 1_555
C31_12 H17_12 1_555 1_555
C32_12 C29_12 1_555 1_555
C33_12 C29_12 1_555 1_555
C34_12 C28_12 1_555 1_555
C35_12 C31_12 1_555 1_555
H18_12 C35_12 1_555 1_555
C36_12 C30_12 1_555 1_555
C37_12 C33_12 1_555 1_555
C38_12 C32_12 1_555 1_555
H19_12 C38_12 1_555 1_555
C39_12 C33_12 1_555 1_555
H20_12 C39_12 1_555 1_555
C40_12 C38_12 1_555 1_555
H21_12 C40_12 1_555 1_555
O32_12 C50_12 1_555 1_555
O38_9 C50_12 1_555 1_555
C41_12 C1_12 1_555 1_555
C42_12 H22_12 1_555 1_555
C43_12 C41_12 1_555 1_555
H23_12 C43_12 1_555 1_555
C44_12 H24_12 1_555 1_555
C45_12 C42_12 1_555 1_555
C46_12 C42_12 1_555 1_555
C47_12 C34_12 1_555 1_555
C48_12 C44_12 1_555 1_555
H25_12 C48_12 1_555 1_555
C49_12 C43_12 1_555 1_555
C50_12 C46_12 1_555 1_555
C51_12 C45_12 1_555 1_555
H26_12 C51_12 1_555 1_555
C52_12 C46_12 1_555 1_555
H27_12 C52_12 1_555 1_555
C53_12 C51_12 1_555 1_555
H28_12 C53_12 1_555 1_555
O29_2 C64_15 1_555 1_555
O34_6 C64_15 1_555 1_555
C54_15 C55_15 1_555 1_555
C55_15 C57_15 1_555 1_555
C56_15 H29_15 1_555 1_555
C57_15 H30_15 1_555 1_555
C58_15 H31_15 1_555 1_555
C59_15 C56_15 1_555 1_555
C60_15 C56_15 1_555 1_555
C61_15 C55_15 1_555 1_555
C62_15 C58_15 1_555 1_555
H32_15 C62_15 1_555 1_555
C63_15 C57_15 1_555 1_555
C64_15 C60_15 1_555 1_555
C65_15 C59_15 1_555 1_555
H33_15 C65_15 1_555 1_555
C66_15 C60_15 1_555 1_555
H34_15 C66_15 1_555 1_555
C67_15 C65_15 1_555 1_555
H35_15 C67_15 1_555 1_555
O13_11 Zn2_11 1_555 1_555
O14_14 Zn8_4 1_555 1_555
C68_15 C54_15 1_555 1_555
C69_15 H36_15 1_555 1_555
C70_15 C68_15 1_555 1_555
H37_15 C70_15 1_555 1_555
C71_15 H38_15 1_555 1_555
C72_15 C69_15 1_555 1_555
C73_15 C69_15 1_555 1_555
C74_15 C61_15 1_555 1_555
C75_15 C71_15 1_555 1_555
H39_15 C75_15 1_555 1_555
C76_15 C70_15 1_555 1_555
C77_15 O13_11 1_555 1_555
C78_15 C72_15 1_555 1_555
H40_15 C78_15 1_555 1_555
C79_15 C73_15 1_555 1_555
H41_15 C79_15 1_555 1_555
C80_15 C78_15 1_555 1_555
H42_15 C80_15 1_555 1_555
O32_4 C90_15 1_555 1_555
O38_7 C90_15 1_555 1_555
C81_15 C54_15 1_555 1_555
C82_15 H43_15 1_555 1_555
C83_15 C81_15 1_555 1_555
H44_15 C83_15 1_555 1_555
C84_15 H45_15 1_555 1_555
C85_15 C82_15 1_555 1_555
C86_15 C82_15 1_555 1_555
C87_15 C81_15 1_555 1_555
C88_15 C84_15 1_555 1_555
H46_15 C88_15 1_555 1_555
C89_15 C83_15 1_555 1_555
C90_15 C86_15 1_555 1_555
C91_15 C85_15 1_555 1_555
H47_15 C91_15 1_555 1_555
C92_15 C86_15 1_555 1_555
H48_15 C92_15 1_555 1_555
C93_15 C91_15 1_555 1_555
H49_15 C93_15 1_555 1_555
O33_6 C103_15 1_555 1_555
O41_10 C103_15 1_555 1_555
C94_15 C54_15 1_555 1_555
C95_15 H50_15 1_555 1_555
C96_15 C94_15 1_555 1_555
H51_15 C96_15 1_555 1_555
C97_15 H52_15 1_555 1_555
C98_15 C95_15 1_555 1_555
C99_15 C95_15 1_555 1_555
C100_15 C87_15 1_555 1_555
C101_15 C97_15 1_555 1_555
H53_15 C101_15 1_555 1_555
C102_15 C96_15 1_555 1_555
C103_15 C99_15 1_555 1_555
C104_15 C98_15 1_555 1_555
H54_15 C104_15 1_555 1_555
C105_15 C99_15 1_555 1_555
H55_15 C105_15 1_555 1_555
C106_15 C104_15 1_555 1_555
H56_15 C106_15 1_555 1_555
Zn13_6 O7_8 1_555 1_555
O30_11 Zn2_11 1_555 1_555
O34_13 Zn8_4 1_555 1_555
O38_14 Zn8_4 1_555 1_555
C5_12 C8_12 1_555 1_555
C6_12 C10_12 1_555 1_555
C9_12 C10_12 1_555 1_555
C13_12 C14_12 1_555 1_555
C15_12 C21_12 1_555 1_555
C18_12 C21_12 1_555 1_555
C19_12 C23_12 1_555 1_555
C22_12 C23_12 1_555 1_555
C26_12 C27_12 1_555 1_555
C31_12 C34_12 1_555 1_555
C32_12 C36_12 1_555 1_555
C35_12 C36_12 1_555 1_555
C39_12 C40_12 1_555 1_555
C41_12 C47_12 1_555 1_555
C44_12 C47_12 1_555 1_555
C45_12 C49_12 1_555 1_555
C48_12 C49_12 1_555 1_555
C52_12 C53_12 1_555 1_555
C58_15 C61_15 1_555 1_555
C59_15 C63_15 1_555 1_555
C62_15 C63_15 1_555 1_555
C66_15 C67_15 1_555 1_555
O14_14 C77_15 1_555 1_555
C68_15 C74_15 1_555 1_555
C71_15 C74_15 1_555 1_555
C72_15 C76_15 1_555 1_555
C73_15 C77_15 1_555 1_555
C75_15 C76_15 1_555 1_555
C79_15 C80_15 1_555 1_555
C84_15 C87_15 1_555 1_555
C85_15 C89_15 1_555 1_555
C88_15 C89_15 1_555 1_555
C92_15 C93_15 1_555 1_555
C94_15 C100_15 1_555 1_555
C97_15 C100_15 1_555 1_555
C98_15 C102_15 1_555 1_555
C101_15 C102_15 1_555 1_555
C105_15 C106_15 1_555 1_555
O28_21 Zn17 1_555 1_555
O28_22 Zn16 1_555 1_555
O28_23 Zn15 1_555 1_555
O28_24 Zn16_2 1_555 1_555
Zn13_6 O2_12 1_555 1_555
Zn2_12 O1_12 1_555 1_555
O1_12 C11_13 1_555 1_555
O2_12 C11_13 1_555 1_555
O3_12 Zn2_12 1_555 1_555
C1_13 C2_13 1_555 1_555
C2_13 C4_13 1_555 1_555
C3_13 H1_13 1_555 1_555
C4_13 H2_13 1_555 1_555
C5_13 H3_13 1_555 1_555
C6_13 C3_13 1_555 1_555
C7_13 C3_13 1_555 1_555
C8_13 C2_13 1_555 1_555
C9_13 C5_13 1_555 1_555
H4_13 C9_13 1_555 1_555
C10_13 C4_13 1_555 1_555
C11_13 C7_13 1_555 1_555
C12_13 C6_13 1_555 1_555
H5_13 C12_13 1_555 1_555
C13_13 C7_13 1_555 1_555
H6_13 C13_13 1_555 1_555
C14_13 C12_13 1_555 1_555
H7_13 C14_13 1_555 1_555
C15_13 C1_13 1_555 1_555
C16_13 H8_13 1_555 1_555
C17_13 C15_13 1_555 1_555
H9_13 C17_13 1_555 1_555
C18_13 H10_13 1_555 1_555
C19_13 C16_13 1_555 1_555
C20_13 C16_13 1_555 1_555
C21_13 C8_13 1_555 1_555
C22_13 C18_13 1_555 1_555
H11_13 C22_13 1_555 1_555
C23_13 C17_13 1_555 1_555
C25_13 C19_13 1_555 1_555
H12_13 C25_13 1_555 1_555
C26_13 C20_13 1_555 1_555
H13_13 C26_13 1_555 1_555
C27_13 C25_13 1_555 1_555
H14_13 C27_13 1_555 1_555
C28_13 C1_13 1_555 1_555
C29_13 H15_13 1_555 1_555
C30_13 C28_13 1_555 1_555
H16_13 C30_13 1_555 1_555
C31_13 H17_13 1_555 1_555
C32_13 C29_13 1_555 1_555
C34_13 C28_13 1_555 1_555
C35_13 C31_13 1_555 1_555
H18_13 C35_13 1_555 1_555
C36_13 C30_13 1_555 1_555
C38_13 C32_13 1_555 1_555
H19_13 C38_13 1_555 1_555
O33_17 C50_13 1_555 1_555
O36_2 C50_13 1_555 1_555
C41_13 C1_13 1_555 1_555
C42_13 H22_13 1_555 1_555
C43_13 C41_13 1_555 1_555
H23_13 C43_13 1_555 1_555
C44_13 H24_13 1_555 1_555
C45_13 C42_13 1_555 1_555
C46_13 C42_13 1_555 1_555
C47_13 C34_13 1_555 1_555
C48_13 C44_13 1_555 1_555
H25_13 C48_13 1_555 1_555
C49_13 C43_13 1_555 1_555
C50_13 C46_13 1_555 1_555
C51_13 C45_13 1_555 1_555
H26_13 C51_13 1_555 1_555
C52_13 C46_13 1_555 1_555
H27_13 C52_13 1_555 1_555
C53_13 C51_13 1_555 1_555
H28_13 C53_13 1_555 1_555
Zn13_5 O11_11 1_555 1_555
Zn4_11 O10_11 1_555 1_555
O10_11 C64_16 1_555 1_555
O11_11 C64_16 1_555 1_555
O12_11 Zn4_11 1_555 1_555
C54_16 C55_16 1_555 1_555
C55_16 C57_16 1_555 1_555
C56_16 H29_16 1_555 1_555
C57_16 H30_16 1_555 1_555
C58_16 H31_16 1_555 1_555
C59_16 C56_16 1_555 1_555
C60_16 C56_16 1_555 1_555
C61_16 C55_16 1_555 1_555
C62_16 C58_16 1_555 1_555
H32_16 C62_16 1_555 1_555
C63_16 C57_16 1_555 1_555
C64_16 C60_16 1_555 1_555
C65_16 C59_16 1_555 1_555
H33_16 C65_16 1_555 1_555
C66_16 C60_16 1_555 1_555
H34_16 C66_16 1_555 1_555
C67_16 C65_16 1_555 1_555
H35_16 C67_16 1_555 1_555
O13_12 Zn2_12 1_555 1_555
O14_15 Zn13_6 1_555 1_555
C68_16 C54_16 1_555 1_555
C69_16 H36_16 1_555 1_555
C70_16 C68_16 1_555 1_555
H37_16 C70_16 1_555 1_555
C71_16 H38_16 1_555 1_555
C72_16 C69_16 1_555 1_555
C73_16 C69_16 1_555 1_555
C74_16 C61_16 1_555 1_555
C75_16 C71_16 1_555 1_555
H39_16 C75_16 1_555 1_555
C76_16 C70_16 1_555 1_555
C77_16 O13_12 1_555 1_555
C78_16 C72_16 1_555 1_555
H40_16 C78_16 1_555 1_555
C79_16 C73_16 1_555 1_555
H41_16 C79_16 1_555 1_555
C80_16 C78_16 1_555 1_555
H42_16 C80_16 1_555 1_555
O33_19 C90_16 1_555 1_555
O38_13 C90_16 1_555 1_555
C81_16 C54_16 1_555 1_555
C82_16 H43_16 1_555 1_555
C83_16 C81_16 1_555 1_555
H44_16 C83_16 1_555 1_555
C84_16 H45_16 1_555 1_555
C85_16 C82_16 1_555 1_555
C86_16 C82_16 1_555 1_555
C87_16 C81_16 1_555 1_555
C88_16 C84_16 1_555 1_555
H46_16 C88_16 1_555 1_555
C89_16 C83_16 1_555 1_555
C90_16 C86_16 1_555 1_555
C91_16 C85_16 1_555 1_555
H47_16 C91_16 1_555 1_555
C92_16 C86_16 1_555 1_555
H48_16 C92_16 1_555 1_555
C93_16 C91_16 1_555 1_555
H49_16 C93_16 1_555 1_555
O17_9 C103_16 1_555 1_555
O38_14 C103_16 1_555 1_555
C94_16 C54_16 1_555 1_555
C95_16 H50_16 1_555 1_555
C96_16 C94_16 1_555 1_555
H51_16 C96_16 1_555 1_555
C97_16 H52_16 1_555 1_555
C98_16 C95_16 1_555 1_555
C99_16 C95_16 1_555 1_555
C100_16 C87_16 1_555 1_555
C101_16 C97_16 1_555 1_555
H53_16 C101_16 1_555 1_555
C102_16 C96_16 1_555 1_555
C103_16 C99_16 1_555 1_555
C104_16 C98_16 1_555 1_555
H54_16 C104_16 1_555 1_555
C105_16 C99_16 1_555 1_555
H55_16 C105_16 1_555 1_555
C106_16 C104_16 1_555 1_555
H56_16 C106_16 1_555 1_555
C107_11 C108_11 1_555 1_555
C108_11 C110_11 1_555 1_555
C109_11 H57_11 1_555 1_555
C110_11 H58_11 1_555 1_555
C111_11 H59_11 1_555 1_555
C112_11 C109_11 1_555 1_555
C114_11 C108_11 1_555 1_555
C115_11 C111_11 1_555 1_555
H60_11 C115_11 1_555 1_555
C116_11 C110_11 1_555 1_555
C118_11 C112_11 1_555 1_555
H61_11 C118_11 1_555 1_555
O22_11 Zn4_11 1_555 1_555
O23_11 Zn13_5 1_555 1_555
C121_11 C107_11 1_555 1_555
C122_11 H64_11 1_555 1_555
C123_11 C121_11 1_555 1_555
H65_11 C123_11 1_555 1_555
C124_11 H66_11 1_555 1_555
C125_11 C122_11 1_555 1_555
C126_11 C122_11 1_555 1_555
C127_11 C114_11 1_555 1_555
C128_11 C124_11 1_555 1_555
H67_11 C128_11 1_555 1_555
C129_11 C123_11 1_555 1_555
C130_11 O22_11 1_555 1_555
C131_11 C125_11 1_555 1_555
H68_11 C131_11 1_555 1_555
C132_11 C126_11 1_555 1_555
H69_11 C132_11 1_555 1_555
C133_11 C131_11 1_555 1_555
H70_11 C133_11 1_555 1_555
C134_11 C107_11 1_555 1_555
C135_11 H71_11 1_555 1_555
C136_11 C134_11 1_555 1_555
H72_11 C136_11 1_555 1_555
C137_11 H73_11 1_555 1_555
C138_11 C135_11 1_555 1_555
C139_11 C135_11 1_555 1_555
C140_11 C134_11 1_555 1_555
C141_11 C137_11 1_555 1_555
H74_11 C141_11 1_555 1_555
C142_11 C136_11 1_555 1_555
C144_11 C138_11 1_555 1_555
H75_11 C144_11 1_555 1_555
C145_11 C139_11 1_555 1_555
H76_11 C145_11 1_555 1_555
C146_11 C144_11 1_555 1_555
H77_11 C146_11 1_555 1_555
O33_15 C156_11 1_555 1_555
O40_2 C156_11 1_555 1_555
C147_11 C107_11 1_555 1_555
C148_11 H78_11 1_555 1_555
C149_11 C147_11 1_555 1_555
H79_11 C149_11 1_555 1_555
C150_11 H80_11 1_555 1_555
C151_11 C148_11 1_555 1_555
C152_11 C148_11 1_555 1_555
C153_11 C140_11 1_555 1_555
C154_11 C150_11 1_555 1_555
H81_11 C154_11 1_555 1_555
C155_11 C149_11 1_555 1_555
C156_11 C152_11 1_555 1_555
C157_11 C151_11 1_555 1_555
H82_11 C157_11 1_555 1_555
C158_11 C152_11 1_555 1_555
H83_11 C158_11 1_555 1_555
C159_11 C157_11 1_555 1_555
H84_11 C159_11 1_555 1_555
Zn17_5 O17_9 1_555 1_555
O30_12 Zn2_12 1_555 1_555
O31_11 Zn4_11 1_555 1_555
O34_14 Zn13_6 1_555 1_555
O35_13 Zn13_5 1_555 1_555
O40_11 Zn13_6 1_555 1_555
O41_11 Zn13_5 1_555 1_555
C5_13 C8_13 1_555 1_555
C6_13 C10_13 1_555 1_555
C9_13 C10_13 1_555 1_555
C13_13 C14_13 1_555 1_555
C15_13 C21_13 1_555 1_555
C18_13 C21_13 1_555 1_555
C19_13 C23_13 1_555 1_555
C22_13 C23_13 1_555 1_555
C26_13 C27_13 1_555 1_555
C31_13 C34_13 1_555 1_555
C32_13 C36_13 1_555 1_555
C35_13 C36_13 1_555 1_555
C41_13 C47_13 1_555 1_555
C44_13 C47_13 1_555 1_555
C45_13 C49_13 1_555 1_555
C48_13 C49_13 1_555 1_555
C52_13 C53_13 1_555 1_555
C58_16 C61_16 1_555 1_555
C59_16 C63_16 1_555 1_555
C62_16 C63_16 1_555 1_555
C66_16 C67_16 1_555 1_555
O14_15 C77_16 1_555 1_555
C68_16 C74_16 1_555 1_555
C71_16 C74_16 1_555 1_555
C72_16 C76_16 1_555 1_555
C73_16 C77_16 1_555 1_555
C75_16 C76_16 1_555 1_555
C79_16 C80_16 1_555 1_555
C84_16 C87_16 1_555 1_555
C85_16 C89_16 1_555 1_555
C88_16 C89_16 1_555 1_555
C92_16 C93_16 1_555 1_555
C94_16 C100_16 1_555 1_555
C97_16 C100_16 1_555 1_555
C98_16 C102_16 1_555 1_555
C101_16 C102_16 1_555 1_555
C105_16 C106_16 1_555 1_555
O20_8 Zn13_3 1_555 1_555
C111_11 C114_11 1_555 1_555
C112_11 C116_11 1_555 1_555
C115_11 C116_11 1_555 1_555
O23_11 C130_11 1_555 1_555
C121_11 C127_11 1_555 1_555
C124_11 C127_11 1_555 1_555
C125_11 C129_11 1_555 1_555
C126_11 C130_11 1_555 1_555
C128_11 C129_11 1_555 1_555
C132_11 C133_11 1_555 1_555
C137_11 C140_11 1_555 1_555
C138_11 C142_11 1_555 1_555
C141_11 C142_11 1_555 1_555
C145_11 C146_11 1_555 1_555
C147_11 C153_11 1_555 1_555
C150_11 C153_11 1_555 1_555
C151_11 C155_11 1_555 1_555
C154_11 C155_11 1_555 1_555
C158_11 C159_11 1_555 1_555
O4_8 C24_13 1_555 1_555
O5_8 C24_13 1_555 1_555
O6_8 C37_13 1_555 1_555
C37_13 C33_13 1_555 1_555
C39_13 C33_13 1_555 1_555
H20_13 C39_13 1_555 1_555
H21_13 C40_13 1_555 1_555
Zn5_8 O4_8 1_555 1_555
O19_8 Zn5_8 1_555 1_555
O21_8 Zn5_8 1_555 1_555
C117_11 O19_8 1_555 1_555
C119_11 C113_11 1_555 1_555
H62_11 C119_11 1_555 1_555
H63_11 C120_11 1_555 1_555
O24_11 C143_11 1_555 1_555
O40_3 C143_11 1_555 1_555
Zn17_4 O6_8 1_555 1_555
O28_25 Zn17_4 1_555 1_555
Zn13_4 O5_8 1_555 1_555
Zn14_5 O24_11 1_555 1_555
O29_8 Zn5_8 1_555 1_555
C39_13 C40_13 1_555 1_555
C113_11 C117_11 1_555 1_555
C119_11 C120_11 1_555 1_555
O28_26 Zn17_5 1_555 1_555
O28_27 Zn17_2 1_555 1_555
O32_17 Zn17_2 1_555 1_555
O34_14 C117_12 1_555 1_555
C107_12 C108_12 1_555 1_555
C108_12 C110_12 1_555 1_555
C109_12 H57_12 1_555 1_555
C110_12 H58_12 1_555 1_555
C111_12 H59_12 1_555 1_555
C112_12 C109_12 1_555 1_555
C113_12 C109_12 1_555 1_555
C114_12 C108_12 1_555 1_555
C115_12 C111_12 1_555 1_555
H60_12 C115_12 1_555 1_555
C116_12 C110_12 1_555 1_555
C117_12 O30_12 1_555 1_555
C118_12 C112_12 1_555 1_555
H61_12 C118_12 1_555 1_555
C119_12 C113_12 1_555 1_555
H62_12 C119_12 1_555 1_555
C120_12 C118_12 1_555 1_555
H63_12 C120_12 1_555 1_555
O23_12 Zn13 1_555 1_555
C121_12 C107_12 1_555 1_555
C122_12 H64_12 1_555 1_555
C123_12 C121_12 1_555 1_555
H65_12 C123_12 1_555 1_555
C124_12 H66_12 1_555 1_555
C125_12 C122_12 1_555 1_555
C127_12 C114_12 1_555 1_555
C128_12 C124_12 1_555 1_555
H67_12 C128_12 1_555 1_555
C129_12 C123_12 1_555 1_555
C131_12 C125_12 1_555 1_555
H68_12 C131_12 1_555 1_555
O24_12 C143_12 1_555 1_555
O40 C143_12 1_555 1_555
C134_12 C107_12 1_555 1_555
C135_12 H71_12 1_555 1_555
C136_12 C134_12 1_555 1_555
H72_12 C136_12 1_555 1_555
C137_12 H73_12 1_555 1_555
C138_12 C135_12 1_555 1_555
C139_12 C135_12 1_555 1_555
C140_12 C134_12 1_555 1_555
C141_12 C137_12 1_555 1_555
H74_12 C141_12 1_555 1_555
C142_12 C136_12 1_555 1_555
C143_12 C139_12 1_555 1_555
C144_12 C138_12 1_555 1_555
H75_12 C144_12 1_555 1_555
C145_12 C139_12 1_555 1_555
H76_12 C145_12 1_555 1_555
C146_12 C144_12 1_555 1_555
H77_12 C146_12 1_555 1_555
C147_12 C107_12 1_555 1_555
C148_12 H78_12 1_555 1_555
C149_12 C147_12 1_555 1_555
H79_12 C149_12 1_555 1_555
C150_12 H80_12 1_555 1_555
C151_12 C148_12 1_555 1_555
C152_12 C148_12 1_555 1_555
C153_12 C140_12 1_555 1_555
C154_12 C150_12 1_555 1_555
H81_12 C154_12 1_555 1_555
C155_12 C149_12 1_555 1_555
C157_12 C151_12 1_555 1_555
H82_12 C157_12 1_555 1_555
C158_12 C152_12 1_555 1_555
H83_12 C158_12 1_555 1_555
C159_12 C157_12 1_555 1_555
H84_12 C159_12 1_555 1_555
Zn14_8 O24_12 1_555 1_555
O40_12 Zn13_3 1_555 1_555
O41_12 Zn13 1_555 1_555
C111_12 C114_12 1_555 1_555
C112_12 C116_12 1_555 1_555
C113_12 C117_12 1_555 1_555
C115_12 C116_12 1_555 1_555
C119_12 C120_12 1_555 1_555
C121_12 C127_12 1_555 1_555
C124_12 C127_12 1_555 1_555
C125_12 C129_12 1_555 1_555
C128_12 C129_12 1_555 1_555
C137_12 C140_12 1_555 1_555
C138_12 C142_12 1_555 1_555
C141_12 C142_12 1_555 1_555
C145_12 C146_12 1_555 1_555
C147_12 C153_12 1_555 1_555
C150_12 C153_12 1_555 1_555
C151_12 C155_12 1_555 1_555
C154_12 C155_12 1_555 1_555
C158_12 C159_12 1_555 1_555
Zn13_2 O11_12 1_555 1_555
Zn4_12 O10_12 1_555 1_555
O10_12 C64_17 1_555 1_555
O11_12 C64_17 1_555 1_555
O12_12 Zn4_12 1_555 1_555
C54_17 C55_17 1_555 1_555
C55_17 C57_17 1_555 1_555
C56_17 H29_17 1_555 1_555
C57_17 H30_17 1_555 1_555
C58_17 H31_17 1_555 1_555
C59_17 C56_17 1_555 1_555
C60_17 C56_17 1_555 1_555
C61_17 C55_17 1_555 1_555
C62_17 C58_17 1_555 1_555
H32_17 C62_17 1_555 1_555
C63_17 C57_17 1_555 1_555
C64_17 C60_17 1_555 1_555
C65_17 C59_17 1_555 1_555
H33_17 C65_17 1_555 1_555
C66_17 C60_17 1_555 1_555
H34_17 C66_17 1_555 1_555
C67_17 C65_17 1_555 1_555
H35_17 C67_17 1_555 1_555
O14_16 Zn13_4 1_555 1_555
C68_17 C54_17 1_555 1_555
C69_17 H36_17 1_555 1_555
C70_17 C68_17 1_555 1_555
H37_17 C70_17 1_555 1_555
C71_17 H38_17 1_555 1_555
C72_17 C69_17 1_555 1_555
C73_17 C69_17 1_555 1_555
C74_17 C61_17 1_555 1_555
C75_17 C71_17 1_555 1_555
H39_17 C75_17 1_555 1_555
C76_17 C70_17 1_555 1_555
C77_17 O29_8 1_555 1_555
C78_17 C72_17 1_555 1_555
H40_17 C78_17 1_555 1_555
C79_17 C73_17 1_555 1_555
H41_17 C79_17 1_555 1_555
C80_17 C78_17 1_555 1_555
H42_17 C80_17 1_555 1_555
O15_11 C90_17 1_555 1_555
O38_11 C90_17 1_555 1_555
C81_17 C54_17 1_555 1_555
C82_17 H43_17 1_555 1_555
C83_17 C81_17 1_555 1_555
H44_17 C83_17 1_555 1_555
C84_17 H45_17 1_555 1_555
C85_17 C82_17 1_555 1_555
C86_17 C82_17 1_555 1_555
C87_17 C81_17 1_555 1_555
C88_17 C84_17 1_555 1_555
H46_17 C88_17 1_555 1_555
C89_17 C83_17 1_555 1_555
C90_17 C86_17 1_555 1_555
C91_17 C85_17 1_555 1_555
H47_17 C91_17 1_555 1_555
C92_17 C86_17 1_555 1_555
H48_17 C92_17 1_555 1_555
C93_17 C91_17 1_555 1_555
H49_17 C93_17 1_555 1_555
O32_17 C103_17 1_555 1_555
O38_12 C103_17 1_555 1_555
C94_17 C54_17 1_555 1_555
C95_17 H50_17 1_555 1_555
C96_17 C94_17 1_555 1_555
H51_17 C96_17 1_555 1_555
C97_17 H52_17 1_555 1_555
C98_17 C95_17 1_555 1_555
C99_17 C95_17 1_555 1_555
C100_17 C87_17 1_555 1_555
C101_17 C97_17 1_555 1_555
H53_17 C101_17 1_555 1_555
C102_17 C96_17 1_555 1_555
C103_17 C99_17 1_555 1_555
C104_17 C98_17 1_555 1_555
H54_17 C104_17 1_555 1_555
C105_17 C99_17 1_555 1_555
H55_17 C105_17 1_555 1_555
C106_17 C104_17 1_555 1_555
H56_17 C106_17 1_555 1_555
O22_12 Zn4_12 1_555 1_555
C130_12 O22_12 1_555 1_555
C132_12 C126_12 1_555 1_555
H69_12 C132_12 1_555 1_555
H70_12 C133_12 1_555 1_555
O33_14 C156_12 1_555 1_555
O40_4 C156_12 1_555 1_555
Zn18_8 O15_11 1_555 1_555
O31_12 Zn4_12 1_555 1_555
O35_14 Zn13_2 1_555 1_555
C58_17 C61_17 1_555 1_555
C59_17 C63_17 1_555 1_555
C62_17 C63_17 1_555 1_555
C66_17 C67_17 1_555 1_555
O14_16 C77_17 1_555 1_555
C68_17 C74_17 1_555 1_555
C71_17 C74_17 1_555 1_555
C72_17 C76_17 1_555 1_555
C73_17 C77_17 1_555 1_555
C75_17 C76_17 1_555 1_555
C79_17 C80_17 1_555 1_555
C84_17 C87_17 1_555 1_555
C85_17 C89_17 1_555 1_555
C88_17 C89_17 1_555 1_555
C92_17 C93_17 1_555 1_555
C94_17 C100_17 1_555 1_555
C97_17 C100_17 1_555 1_555
C98_17 C102_17 1_555 1_555
C101_17 C102_17 1_555 1_555
C105_17 C106_17 1_555 1_555
C126_12 C130_12 1_555 1_555
C132_12 C133_12 1_555 1_555
O28_28 Zn14_7 1_555 1_555
O32_18 Zn14_7 1_555 1_555
O28_29 Zn14_6 1_555 1_555
O32_19 Zn14_6 1_555 1_555
O28_30 Zn14_5 1_555 1_555
C117_13 O30_4 1_555 1_555
O33_3 C156_13 1_555 1_555
C156_13 C152_13 1_555 1_555
C158_13 C152_13 1_555 1_555
H83_13 C158_13 1_555 1_555
H84_13 C159_13 1_555 1_555
C158_13 C159_13 1_555 1_555
C119_13 C113_13 1_555 1_555
H62_13 C119_13 1_555 1_555
H63_13 C120_13 1_555 1_555
O32_11 C143_13 1_555 1_555
O41_12 C143_13 1_555 1_555
C119_13 C120_13 1_555 1_555
C107_13 C108_13 1_555 1_555
C108_13 C110_13 1_555 1_555
C109_13 H57_13 1_555 1_555
C110_13 H58_13 1_555 1_555
C111_13 H59_13 1_555 1_555
C112_13 C109_13 1_555 1_555
C114_13 C108_13 1_555 1_555
C115_13 C111_13 1_555 1_555
H60_13 C115_13 1_555 1_555
C116_13 C110_13 1_555 1_555
C118_13 C112_13 1_555 1_555
H61_13 C118_13 1_555 1_555
C121_13 C107_13 1_555 1_555
C122_13 H64_13 1_555 1_555
C123_13 C121_13 1_555 1_555
H65_13 C123_13 1_555 1_555
C124_13 H66_13 1_555 1_555
C125_13 C122_13 1_555 1_555
C126_13 C122_13 1_555 1_555
C127_13 C114_13 1_555 1_555
C128_13 C124_13 1_555 1_555
H67_13 C128_13 1_555 1_555
C129_13 C123_13 1_555 1_555
C130_13 O30_9 1_555 1_555
C131_13 C125_13 1_555 1_555
H68_13 C131_13 1_555 1_555
C132_13 C126_13 1_555 1_555
H69_13 C132_13 1_555 1_555
C133_13 C131_13 1_555 1_555
H70_13 C133_13 1_555 1_555
C134_13 C107_13 1_555 1_555
C135_13 H71_13 1_555 1_555
C136_13 C134_13 1_555 1_555
H72_13 C136_13 1_555 1_555
C137_13 H73_13 1_555 1_555
C138_13 C135_13 1_555 1_555
C139_13 C135_13 1_555 1_555
C140_13 C134_13 1_555 1_555
C141_13 C137_13 1_555 1_555
H74_13 C141_13 1_555 1_555
C142_13 C136_13 1_555 1_555
C144_13 C138_13 1_555 1_555
H75_13 C144_13 1_555 1_555
C145_13 C139_13 1_555 1_555
H76_13 C145_13 1_555 1_555
C146_13 C144_13 1_555 1_555
H77_13 C146_13 1_555 1_555
C147_13 C107_13 1_555 1_555
C148_13 H78_13 1_555 1_555
C149_13 C147_13 1_555 1_555
H79_13 C149_13 1_555 1_555
C150_13 H80_13 1_555 1_555
C151_13 C148_13 1_555 1_555
C153_13 C140_13 1_555 1_555
C154_13 C150_13 1_555 1_555
H81_13 C154_13 1_555 1_555
C155_13 C149_13 1_555 1_555
C157_13 C151_13 1_555 1_555
H82_13 C157_13 1_555 1_555
C111_13 C114_13 1_555 1_555
C112_13 C116_13 1_555 1_555
C115_13 C116_13 1_555 1_555
O34_11 C130_13 1_555 1_555
C121_13 C127_13 1_555 1_555
C124_13 C127_13 1_555 1_555
C125_13 C129_13 1_555 1_555
C126_13 C130_13 1_555 1_555
C128_13 C129_13 1_555 1_555
C132_13 C133_13 1_555 1_555
C137_13 C140_13 1_555 1_555
C138_13 C142_13 1_555 1_555
C141_13 C142_13 1_555 1_555
C145_13 C146_13 1_555 1_555
C147_13 C153_13 1_555 1_555
C150_13 C153_13 1_555 1_555
C151_13 C155_13 1_555 1_555
C154_13 C155_13 1_555 1_555
C117_14 O30_3 1_555 1_555
C119_14 C113_14 1_555 1_555
H62_14 C119_14 1_555 1_555
H63_14 C120_14 1_555 1_555
O32_9 C143_14 1_555 1_555
O40_12 C143_14 1_555 1_555
C113_14 C117_14 1_555 1_555
C119_14 C120_14 1_555 1_555
C107_14 C108_14 1_555 1_555
C108_14 C110_14 1_555 1_555
C109_14 H57_14 1_555 1_555
C110_14 H58_14 1_555 1_555
C111_14 H59_14 1_555 1_555
C112_14 C109_14 1_555 1_555
C114_14 C108_14 1_555 1_555
C115_14 C111_14 1_555 1_555
H60_14 C115_14 1_555 1_555
C116_14 C110_14 1_555 1_555
C118_14 C112_14 1_555 1_555
H61_14 C118_14 1_555 1_555
C121_14 C107_14 1_555 1_555
C122_14 H64_14 1_555 1_555
C123_14 C121_14 1_555 1_555
H65_14 C123_14 1_555 1_555
C124_14 H66_14 1_555 1_555
C125_14 C122_14 1_555 1_555
C126_14 C122_14 1_555 1_555
C127_14 C114_14 1_555 1_555
C128_14 C124_14 1_555 1_555
H67_14 C128_14 1_555 1_555
C129_14 C123_14 1_555 1_555
C130_14 O30_8 1_555 1_555
C131_14 C125_14 1_555 1_555
H68_14 C131_14 1_555 1_555
C132_14 C126_14 1_555 1_555
H69_14 C132_14 1_555 1_555
C133_14 C131_14 1_555 1_555
H70_14 C133_14 1_555 1_555
C134_14 C107_14 1_555 1_555
C135_14 H71_14 1_555 1_555
C136_14 C134_14 1_555 1_555
H72_14 C136_14 1_555 1_555
C137_14 H73_14 1_555 1_555
C138_14 C135_14 1_555 1_555
C139_14 C135_14 1_555 1_555
C140_14 C134_14 1_555 1_555
C141_14 C137_14 1_555 1_555
H74_14 C141_14 1_555 1_555
C142_14 C136_14 1_555 1_555
C144_14 C138_14 1_555 1_555
H75_14 C144_14 1_555 1_555
C145_14 C139_14 1_555 1_555
H76_14 C145_14 1_555 1_555
C146_14 C144_14 1_555 1_555
H77_14 C146_14 1_555 1_555
O33_4 C156_14 1_555 1_555
O40_7 C156_14 1_555 1_555
C147_14 C107_14 1_555 1_555
C148_14 H78_14 1_555 1_555
C149_14 C147_14 1_555 1_555
H79_14 C149_14 1_555 1_555
C150_14 H80_14 1_555 1_555
C151_14 C148_14 1_555 1_555
C152_14 C148_14 1_555 1_555
C153_14 C140_14 1_555 1_555
C154_14 C150_14 1_555 1_555
H81_14 C154_14 1_555 1_555
C155_14 C149_14 1_555 1_555
C156_14 C152_14 1_555 1_555
C157_14 C151_14 1_555 1_555
H82_14 C157_14 1_555 1_555
C158_14 C152_14 1_555 1_555
H83_14 C158_14 1_555 1_555
C159_14 C157_14 1_555 1_555
H84_14 C159_14 1_555 1_555
C111_14 C114_14 1_555 1_555
C112_14 C116_14 1_555 1_555
C115_14 C116_14 1_555 1_555
O34_10 C130_14 1_555 1_555
C121_14 C127_14 1_555 1_555
C124_14 C127_14 1_555 1_555
C125_14 C129_14 1_555 1_555
C126_14 C130_14 1_555 1_555
C128_14 C129_14 1_555 1_555
C132_14 C133_14 1_555 1_555
C137_14 C140_14 1_555 1_555
C138_14 C142_14 1_555 1_555
C141_14 C142_14 1_555 1_555
C145_14 C146_14 1_555 1_555
C147_14 C153_14 1_555 1_555
C150_14 C153_14 1_555 1_555
C151_14 C155_14 1_555 1_555
C154_14 C155_14 1_555 1_555
C158_14 C159_14 1_555 1_555
O34_2 C117_15 1_555 1_555
C107_15 C108_15 1_555 1_555
C108_15 C110_15 1_555 1_555
C109_15 H57_15 1_555 1_555
C110_15 H58_15 1_555 1_555
C111_15 H59_15 1_555 1_555
C112_15 C109_15 1_555 1_555
C113_15 C109_15 1_555 1_555
C114_15 C108_15 1_555 1_555
C115_15 C111_15 1_555 1_555
H60_15 C115_15 1_555 1_555
C116_15 C110_15 1_555 1_555
C117_15 O30_2 1_555 1_555
C118_15 C112_15 1_555 1_555
H61_15 C118_15 1_555 1_555
C119_15 C113_15 1_555 1_555
H62_15 C119_15 1_555 1_555
C120_15 C118_15 1_555 1_555
H63_15 C120_15 1_555 1_555
C121_15 C107_15 1_555 1_555
C122_15 H64_15 1_555 1_555
C123_15 C121_15 1_555 1_555
H65_15 C123_15 1_555 1_555
C124_15 H66_15 1_555 1_555
C125_15 C122_15 1_555 1_555
C126_15 C122_15 1_555 1_555
C127_15 C114_15 1_555 1_555
C128_15 C124_15 1_555 1_555
H67_15 C128_15 1_555 1_555
C129_15 C123_15 1_555 1_555
C130_15 O30_11 1_555 1_555
C131_15 C125_15 1_555 1_555
H68_15 C131_15 1_555 1_555
C132_15 C126_15 1_555 1_555
H69_15 C132_15 1_555 1_555
C133_15 C131_15 1_555 1_555
H70_15 C133_15 1_555 1_555
O32_7 C143_15 1_555 1_555
O41_11 C143_15 1_555 1_555
C134_15 C107_15 1_555 1_555
C135_15 H71_15 1_555 1_555
C136_15 C134_15 1_555 1_555
H72_15 C136_15 1_555 1_555
C137_15 H73_15 1_555 1_555
C138_15 C135_15 1_555 1_555
C139_15 C135_15 1_555 1_555
C140_15 C134_15 1_555 1_555
C141_15 C137_15 1_555 1_555
H74_15 C141_15 1_555 1_555
C142_15 C136_15 1_555 1_555
C143_15 C139_15 1_555 1_555
C144_15 C138_15 1_555 1_555
H75_15 C144_15 1_555 1_555
C145_15 C139_15 1_555 1_555
H76_15 C145_15 1_555 1_555
C146_15 C144_15 1_555 1_555
H77_15 C146_15 1_555 1_555
O33 C156_15 1_555 1_555
O41_8 C156_15 1_555 1_555
C147_15 C107_15 1_555 1_555
C148_15 H78_15 1_555 1_555
C149_15 C147_15 1_555 1_555
H79_15 C149_15 1_555 1_555
C150_15 H80_15 1_555 1_555
C151_15 C148_15 1_555 1_555
C152_15 C148_15 1_555 1_555
C153_15 C140_15 1_555 1_555
C154_15 C150_15 1_555 1_555
H81_15 C154_15 1_555 1_555
C155_15 C149_15 1_555 1_555
C156_15 C152_15 1_555 1_555
C157_15 C151_15 1_555 1_555
H82_15 C157_15 1_555 1_555
C158_15 C152_15 1_555 1_555
H83_15 C158_15 1_555 1_555
C159_15 C157_15 1_555 1_555
H84_15 C159_15 1_555 1_555
C111_15 C114_15 1_555 1_555
C112_15 C116_15 1_555 1_555
C113_15 C117_15 1_555 1_555
C115_15 C116_15 1_555 1_555
C119_15 C120_15 1_555 1_555
O34_13 C130_15 1_555 1_555
C121_15 C127_15 1_555 1_555
C124_15 C127_15 1_555 1_555
C125_15 C129_15 1_555 1_555
C126_15 C130_15 1_555 1_555
C128_15 C129_15 1_555 1_555
C132_15 C133_15 1_555 1_555
C137_15 C140_15 1_555 1_555
C138_15 C142_15 1_555 1_555
C141_15 C142_15 1_555 1_555
C145_15 C146_15 1_555 1_555
C147_15 C153_15 1_555 1_555
C150_15 C153_15 1_555 1_555
C151_15 C155_15 1_555 1_555
C154_15 C155_15 1_555 1_555
C158_15 C159_15 1_555 1_555
O34 C117_16 1_555 1_555
C117_16 O30 1_555 1_555
O33_2 C156_16 1_555 1_555
C156_16 C152_16 1_555 1_555
C158_16 C152_16 1_555 1_555
H83_16 C158_16 1_555 1_555
H84_16 C159_16 1_555 1_555
C158_16 C159_16 1_555 1_555
C107_16 C108_16 1_555 1_555
C108_16 C110_16 1_555 1_555
C109_16 H57_16 1_555 1_555
C110_16 H58_16 1_555 1_555
C111_16 H59_16 1_555 1_555
C112_16 C109_16 1_555 1_555
C113_16 C109_16 1_555 1_555
C114_16 C108_16 1_555 1_555
C115_16 C111_16 1_555 1_555
H60_16 C115_16 1_555 1_555
C116_16 C110_16 1_555 1_555
C118_16 C112_16 1_555 1_555
H61_16 C118_16 1_555 1_555
C119_16 C113_16 1_555 1_555
H62_16 C119_16 1_555 1_555
C120_16 C118_16 1_555 1_555
H63_16 C120_16 1_555 1_555
C121_16 C107_16 1_555 1_555
C122_16 H64_16 1_555 1_555
C123_16 C121_16 1_555 1_555
H65_16 C123_16 1_555 1_555
C124_16 H66_16 1_555 1_555
C125_16 C122_16 1_555 1_555
C126_16 C122_16 1_555 1_555
C127_16 C114_16 1_555 1_555
C128_16 C124_16 1_555 1_555
H67_16 C128_16 1_555 1_555
C129_16 C123_16 1_555 1_555
C130_16 O30_10 1_555 1_555
C131_16 C125_16 1_555 1_555
H68_16 C131_16 1_555 1_555
C132_16 C126_16 1_555 1_555
H69_16 C132_16 1_555 1_555
C133_16 C131_16 1_555 1_555
H70_16 C133_16 1_555 1_555
O32_5 C143_16 1_555 1_555
O40_11 C143_16 1_555 1_555
C134_16 C107_16 1_555 1_555
C135_16 H71_16 1_555 1_555
C136_16 C134_16 1_555 1_555
H72_16 C136_16 1_555 1_555
C137_16 H73_16 1_555 1_555
C138_16 C135_16 1_555 1_555
C139_16 C135_16 1_555 1_555
C140_16 C134_16 1_555 1_555
C141_16 C137_16 1_555 1_555
H74_16 C141_16 1_555 1_555
C142_16 C136_16 1_555 1_555
C143_16 C139_16 1_555 1_555
C144_16 C138_16 1_555 1_555
H75_16 C144_16 1_555 1_555
C145_16 C139_16 1_555 1_555
H76_16 C145_16 1_555 1_555
C146_16 C144_16 1_555 1_555
H77_16 C146_16 1_555 1_555
C147_16 C107_16 1_555 1_555
C148_16 H78_16 1_555 1_555
C149_16 C147_16 1_555 1_555
H79_16 C149_16 1_555 1_555
C150_16 H80_16 1_555 1_555
C151_16 C148_16 1_555 1_555
C153_16 C140_16 1_555 1_555
C154_16 C150_16 1_555 1_555
H81_16 C154_16 1_555 1_555
C155_16 C149_16 1_555 1_555
C157_16 C151_16 1_555 1_555
H82_16 C157_16 1_555 1_555
C111_16 C114_16 1_555 1_555
C112_16 C116_16 1_555 1_555
C115_16 C116_16 1_555 1_555
C119_16 C120_16 1_555 1_555
O34_12 C130_16 1_555 1_555
C121_16 C127_16 1_555 1_555
C124_16 C127_16 1_555 1_555
C125_16 C129_16 1_555 1_555
C126_16 C130_16 1_555 1_555
C128_16 C129_16 1_555 1_555
C132_16 C133_16 1_555 1_555
C137_16 C140_16 1_555 1_555
C138_16 C142_16 1_555 1_555
C141_16 C142_16 1_555 1_555
C145_16 C146_16 1_555 1_555
C147_16 C153_16 1_555 1_555
C150_16 C153_16 1_555 1_555
C151_16 C155_16 1_555 1_555
C154_16 C155_16 1_555 1_555
C1_14 C2_14 1_555 1_555
C2_14 C4_14 1_555 1_555
C3_14 H1_14 1_555 1_555
C4_14 H2_14 1_555 1_555
C5_14 H3_14 1_555 1_555
C6_14 C3_14 1_555 1_555
C8_14 C2_14 1_555 1_555
C9_14 C5_14 1_555 1_555
H4_14 C9_14 1_555 1_555
C10_14 C4_14 1_555 1_555
C12_14 C6_14 1_555 1_555
H5_14 C12_14 1_555 1_555
O31_8 C24_14 1_555 1_555
O35_10 C24_14 1_555 1_555
C15_14 C1_14 1_555 1_555
C16_14 H8_14 1_555 1_555
C17_14 C15_14 1_555 1_555
H9_14 C17_14 1_555 1_555
C18_14 H10_14 1_555 1_555
C19_14 C16_14 1_555 1_555
C20_14 C16_14 1_555 1_555
C21_14 C8_14 1_555 1_555
C22_14 C18_14 1_555 1_555
H11_14 C22_14 1_555 1_555
C23_14 C17_14 1_555 1_555
C24_14 C20_14 1_555 1_555
C25_14 C19_14 1_555 1_555
H12_14 C25_14 1_555 1_555
C26_14 C20_14 1_555 1_555
H13_14 C26_14 1_555 1_555
C27_14 C25_14 1_555 1_555
H14_14 C27_14 1_555 1_555
C28_14 C1_14 1_555 1_555
C29_14 H15_14 1_555 1_555
C30_14 C28_14 1_555 1_555
H16_14 C30_14 1_555 1_555
C31_14 H17_14 1_555 1_555
C32_14 C29_14 1_555 1_555
C33_14 C29_14 1_555 1_555
C34_14 C28_14 1_555 1_555
C35_14 C31_14 1_555 1_555
H18_14 C35_14 1_555 1_555
C36_14 C30_14 1_555 1_555
C38_14 C32_14 1_555 1_555
H19_14 C38_14 1_555 1_555
C39_14 C33_14 1_555 1_555
H20_14 C39_14 1_555 1_555
C40_14 C38_14 1_555 1_555
H21_14 C40_14 1_555 1_555
O32_18 C50_14 1_555 1_555
O40_5 C50_14 1_555 1_555
C41_14 C1_14 1_555 1_555
C42_14 H22_14 1_555 1_555
C43_14 C41_14 1_555 1_555
H23_14 C43_14 1_555 1_555
C44_14 H24_14 1_555 1_555
C45_14 C42_14 1_555 1_555
C46_14 C42_14 1_555 1_555
C47_14 C34_14 1_555 1_555
C48_14 C44_14 1_555 1_555
H25_14 C48_14 1_555 1_555
C49_14 C43_14 1_555 1_555
C50_14 C46_14 1_555 1_555
C51_14 C45_14 1_555 1_555
H26_14 C51_14 1_555 1_555
C52_14 C46_14 1_555 1_555
H27_14 C52_14 1_555 1_555
C53_14 C51_14 1_555 1_555
H28_14 C53_14 1_555 1_555
C5_14 C8_14 1_555 1_555
C6_14 C10_14 1_555 1_555
C9_14 C10_14 1_555 1_555
C15_14 C21_14 1_555 1_555
C18_14 C21_14 1_555 1_555
C19_14 C23_14 1_555 1_555
C22_14 C23_14 1_555 1_555
C26_14 C27_14 1_555 1_555
C31_14 C34_14 1_555 1_555
C32_14 C36_14 1_555 1_555
C35_14 C36_14 1_555 1_555
C39_14 C40_14 1_555 1_555
C41_14 C47_14 1_555 1_555
C44_14 C47_14 1_555 1_555
C45_14 C49_14 1_555 1_555
C48_14 C49_14 1_555 1_555
C52_14 C53_14 1_555 1_555
O31_5 C11_14 1_555 1_555
C11_14 C7_14 1_555 1_555
C13_14 C7_14 1_555 1_555
H6_14 C13_14 1_555 1_555
H7_14 C14_14 1_555 1_555
O32_19 C37_14 1_555 1_555
O39_6 C37_14 1_555 1_555
C13_14 C14_14 1_555 1_555
O28_31 Zn14_8 1_555 1_555
O28_32 Zn18_8 1_555 1_555
C107_17 C108_17 1_555 1_555
C108_17 C110_17 1_555 1_555
C109_17 H57_17 1_555 1_555
C110_17 H58_17 1_555 1_555
C111_17 H59_17 1_555 1_555
C112_17 C109_17 1_555 1_555
C113_17 C109_17 1_555 1_555
C114_17 C108_17 1_555 1_555
C115_17 C111_17 1_555 1_555
H60_17 C115_17 1_555 1_555
C116_17 C110_17 1_555 1_555
C118_17 C112_17 1_555 1_555
H61_17 C118_17 1_555 1_555
C119_17 C113_17 1_555 1_555
H62_17 C119_17 1_555 1_555
C120_17 C118_17 1_555 1_555
H63_17 C120_17 1_555 1_555
C121_17 C107_17 1_555 1_555
C122_17 H64_17 1_555 1_555
C123_17 C121_17 1_555 1_555
H65_17 C123_17 1_555 1_555
C124_17 H66_17 1_555 1_555
C125_17 C122_17 1_555 1_555
C126_17 C122_17 1_555 1_555
C127_17 C114_17 1_555 1_555
C128_17 C124_17 1_555 1_555
H67_17 C128_17 1_555 1_555
C129_17 C123_17 1_555 1_555
C130_17 O31_11 1_555 1_555
C131_17 C125_17 1_555 1_555
H68_17 C131_17 1_555 1_555
C132_17 C126_17 1_555 1_555
H69_17 C132_17 1_555 1_555
C133_17 C131_17 1_555 1_555
H70_17 C133_17 1_555 1_555
O32_15 C143_17 1_555 1_555
O36 C143_17 1_555 1_555
C134_17 C107_17 1_555 1_555
C135_17 H71_17 1_555 1_555
C136_17 C134_17 1_555 1_555
H72_17 C136_17 1_555 1_555
C137_17 H73_17 1_555 1_555
C138_17 C135_17 1_555 1_555
C139_17 C135_17 1_555 1_555
C140_17 C134_17 1_555 1_555
C141_17 C137_17 1_555 1_555
H74_17 C141_17 1_555 1_555
C142_17 C136_17 1_555 1_555
C143_17 C139_17 1_555 1_555
C144_17 C138_17 1_555 1_555
H75_17 C144_17 1_555 1_555
C145_17 C139_17 1_555 1_555
H76_17 C145_17 1_555 1_555
C146_17 C144_17 1_555 1_555
H77_17 C146_17 1_555 1_555
C147_17 C107_17 1_555 1_555
C148_17 H78_17 1_555 1_555
C149_17 C147_17 1_555 1_555
H79_17 C149_17 1_555 1_555
C150_17 H80_17 1_555 1_555
C151_17 C148_17 1_555 1_555
C153_17 C140_17 1_555 1_555
C154_17 C150_17 1_555 1_555
H81_17 C154_17 1_555 1_555
C155_17 C149_17 1_555 1_555
C157_17 C151_17 1_555 1_555
H82_17 C157_17 1_555 1_555
C111_17 C114_17 1_555 1_555
C112_17 C116_17 1_555 1_555
C115_17 C116_17 1_555 1_555
C119_17 C120_17 1_555 1_555
O35_13 C130_17 1_555 1_555
C121_17 C127_17 1_555 1_555
C124_17 C127_17 1_555 1_555
C125_17 C129_17 1_555 1_555
C126_17 C130_17 1_555 1_555
C128_17 C129_17 1_555 1_555
C132_17 C133_17 1_555 1_555
C137_17 C140_17 1_555 1_555
C138_17 C142_17 1_555 1_555
C141_17 C142_17 1_555 1_555
C145_17 C146_17 1_555 1_555
C147_17 C153_17 1_555 1_555
C150_17 C153_17 1_555 1_555
C151_17 C155_17 1_555 1_555
C154_17 C155_17 1_555 1_555
O35_14 C117_17 1_555 1_555
C117_17 O31_12 1_555 1_555
O32_16 C156_17 1_555 1_555
C156_17 C152_17 1_555 1_555
C158_17 C152_17 1_555 1_555
H83_17 C158_17 1_555 1_555
H84_17 C159_17 1_555 1_555
C158_17 C159_17 1_555 1_555

#END
