
###############################################################################
#
# This file contains modified crystal structure data generated from the
# MOF subset of the Cambridge Structural Database (CSD) v543 
# hosted by the Cambridge Crystallographic Data Centre (CCDC).
#
# This work is licensed under the Creative Commons
# Attribution-NonCommercial-ShareAlike 4.0 International License.
# To view a copy of this license, visit
# http://creativecommons.org/licenses/by-nc-sa/4.0/
# or send a letter to
# Creative Commons, PO Box 1866, Mountain View, CA 94042, USA.
#
# CIF created using the CSD Python API on 29 September 2022
# The structure has been converted into the P1 space group
# The structure has a 3D framework
# The original CSD entry DUFKAS is in the orthorhombic crystal system
# The framework has been calculated to contain at least 10.0% void space
# The void calculation uses a probe of radius 1.32A, grid spacing 0.4
# The framework is charged, counterions have been retained in the structure
# H atom positions have been added when not included in the experimental data
# Generated hydrogen atom positions removed from atoms on special positions
#
###############################################################################

data_DUFKAS
_chemical_formula_moiety         '(C794 H722 Ce36 N48 O263 8+)n'
_symmetry_cell_setting           triclinic
_symmetry_space_group_name_H-M   'P 1'
_symmetry_Int_Tables_number      1
_space_group_name_Hall           'P 1'
loop_
_symmetry_equiv_pos_site_id
_symmetry_equiv_pos_as_xyz
1 x,y,z
_cell_length_a                   46.072(14)
_cell_length_b                   35.831(11)
_cell_length_c                   28.608(9)
_cell_angle_alpha                90
_cell_angle_beta                 90
_cell_angle_gamma                90
_cell_volume                     47226.3
loop_
_atom_site_label
_atom_site_type_symbol
_atom_site_fract_x
_atom_site_fract_y
_atom_site_fract_z
Ce1 Ce 0.16935(2) 0.11522(3) 0.23585(3)
Ce2 Ce 0.2500 0.15403(4) 0.2500
C7 C 0.2011(5) 0.1408(4) 0.0077(6)
C8 C 0.2241(5) 0.1628(6) 0.0231(6)
H4 H 0.2345 0.1771 0.0017
C9 C 0.2319(5) 0.1637(5) 0.0707(6)
H5 H 0.2475 0.1782 0.0803
C10 C 0.2167(5) 0.1436(5) 0.1028(5)
C11 C 0.1949(5) 0.1211(5) 0.0888(6)
H6 H 0.1856 0.1060 0.1106
C12 C 0.1860(4) 0.1200(4) 0.0420(6)
H7 H 0.1701 0.1056 0.0335
C25 C 0.2248(5) 0.1462(5) 0.1527(6)
C28 C 0.2236(5) 0.0737(5) 0.3539(6)
C29 C 0.2502(5) 0.0585(5) 0.3461(5)
H16 H 0.2584 0.0604 0.3165
C30 C 0.2658(4) 0.0399(4) 0.3816(6)
H17 H 0.2838 0.0292 0.3756
C31 C 0.2535(5) 0.0381(5) 0.4253(6)
C32 C 0.2266(5) 0.0538(6) 0.4333(6)
H18 H 0.2184 0.0520 0.4629
C33 C 0.2117(4) 0.0718(5) 0.3988(7)
H19 H 0.1938 0.0827 0.4050
C34 C 0.2704(5) 0.0184(4) 0.4641(5)
C35 C 0.2552(6) 0.0000 0.5000
H20 H 0.2350 0.0000 0.5000
C36 C 0.2995(5) 0.0180(4) 0.4655(5)
H21 H 0.3098 0.0305 0.4423
C37 C 0.3147(7) 0.0000 0.5000
C38 C 0.3466(8) 0.0000 0.5000
C39 C 0.3623(5) 0.0293(6) 0.4820(6)
H22 H 0.3524 0.0495 0.4693
C40 C 0.3909(7) 0.0297(6) 0.4821(7)
H23 H 0.4004 0.0504 0.4699
C41 C 0.4075(8) 0.0000 0.5000
C42 C 0.4406(10) 0.0000 0.5000
C43 C 0.2065(6) 0.0927(4) 0.3163(7)
C44 C 0.1234(10) 0.1443(16) 0.1524(19)
C45 C 0.0902(13) 0.0887(12) 0.1366(18)
C46 C 0.0983(14) 0.1377(15) 0.0736(14)
C47 C 0.0994(14) 0.1246(17) 0.2539(19)
C48 C 0.0520(13) 0.1369(15) 0.297(3)
C49 C 0.0748(11) 0.1881(9) 0.2473(18)
N1 N 0.1041(13) 0.1234(12) 0.1207(14)
N2 N 0.0751(10) 0.1499(10) 0.265(2)
N3 N 0.2500 0.2555(6) 0.2500
O1 O 0.2113(3) 0.1290(3) 0.1850(4)
O2 O 0.2468(3) 0.1654(4) 0.1630(4)
O7 O 0.2209(3) 0.1003(3) 0.2773(4)
O8 O 0.1806(3) 0.0989(4) 0.3202(4)
O10 O 0.2500 0.2222(5) 0.2500
O11 O 0.5000 0.0173(13) 0.5600(14)
O12 O 0.1449(3) 0.1582(4) 0.1735(4)
O13 O 0.1161(3) 0.0979(3) 0.2623(4)
O14 O 0.2310(5) 0.2755(6) 0.2368(13)
O19 O 0.4533(4) 0.0280(7) 0.4831(9)
O20 O 0.2690(5) 0.2755(6) 0.2632(13)
C82 C 0.1682(4) 0.0023(5) 0.1763(6)
H44 H 0.1455 0.0134 0.1171
C87 C 0.1685(4) 0.0404(5) 0.1964(7)
O23 O 0.1579(3) 0.0668(3) 0.1728(4)
O24 O 0.1781(3) 0.0458(3) 0.2372(4)
Ce12 Ce 0.5000 0.05510(14) 0.4706(2)
O31 O 0.2887(3) 0.1290(3) 0.3150(4)
O32 O 0.2532(3) 0.1654(4) 0.3370(4)
O34 O 0.1522(4) 0.1757(4) 0.2768(5)
O36 O 0.1994(3) 0.1728(3) 0.2680(4)
O37 O 0.3006(3) 0.1728(3) 0.2320(4)
O39 O 0.2791(3) 0.1003(3) 0.2227(4)
H46 H 0.118616 0.139853 0.0543306
H47 H 0.0836995 0.118715 0.0554144
H48 H 0.0882766 0.165154 0.0760704
H51 H 0.0766165 0.0945565 0.166877
H52 H 0.0768609 0.0773622 0.108566
H53 H 0.10683 0.0684868 0.146131
H54 H 0.117504 0.163059 0.180806
H55 H 0.0751804 0.187666 0.209243
H56 H 0.0552033 0.202172 0.259232
H57 H 0.0937924 0.202965 0.260218
H60 H 0.11193 0.126908 0.221752
H61 H 0.0614449 0.130067 0.33083
H62 H 0.0358929 0.158871 0.301347
H63 H 0.0416545 0.11219 0.282384
C1 C 0.1928(4) 0.1400(4) 0.9583(5)
C2 C 0.1923(4) 0.1720(5) 0.9322(6)
H1 H 0.1968 0.1946 0.9464
C3 C 0.1849(4) 0.1715(5) 0.8845(5)
C4 C 0.1776(5) 0.1376(5) 0.8637(6)
H2 H 0.1725 0.1368 0.8323
C5 C 0.1780(4) 0.1050(4) 0.8901(6)
C6 C 0.1859(4) 0.1065(4) 0.9360(6)
H3 H 0.1867 0.0844 0.9530
C13 C 0.1832(5) 0.2079(5) 0.8573(5)
C14 C 0.2048(5) 0.2331(5) 0.8609(5)
H8 H 0.2209 0.2285 0.8795
C15 C 0.2022(5) 0.2667(5) 0.8358(6)
H9 H 0.2168 0.2844 0.8388
C16 C 0.1791(5) 0.2744(5) 0.8070(6)
C17 C 0.1578(5) 0.2487(6) 0.8046(6)
H10 H 0.1413 0.2535 0.7868
C18 C 0.1603(5) 0.2149(5) 0.8284(7)
H11 H 0.1460 0.1968 0.8245
C19 C 0.1727(4) 0.0677(5) 0.8670(6)
C20 C 0.1843(5) 0.0615(4) 0.8232(7)
H12 H 0.1939 0.0808 0.8080
C21 C 0.1819(5) 0.0264(5) 0.8004(6)
H13 H 0.1895 0.0228 0.7706
C23 C 0.1558(4) 0.0052(5) 0.8675(6)
C24 C 0.1587(4) 0.0397(5) 0.8880(5)
H15 H 0.1507 0.0437 0.9174
C26 C 0.1786(7) 0.3108(5) 0.7814(7)
O5 O 0.1522(4) 0.3243(4) 0.7768(5)
O6 O 0.1994(3) 0.3272(3) 0.7680(4)
Ce7 Ce 0.16935(2) 0.38478(3) 0.73585(3)
Ce11 Ce 0.2500 0.34597(4) 0.7500
Ce3 Ce 0.5000 0.94490(14) 0.5294(2)
C35_2 C 0.2552(6) 1.0000 0.5000
H20_2 H 0.2350 1.0000 0.5000
C37_2 C 0.3147(7) 1.0000 0.5000
C38_2 C 0.3466(8) 1.0000 0.5000
C41_2 C 0.4075(8) 1.0000 0.5000
C42_2 C 0.4406(10) 1.0000 0.5000
O9 O 0.4533(4) 0.9720(7) 0.5169(9)
O15 O 0.4652(9) 0.9192(11) 0.5975(15)
O16 O 0.4625(15) 0.8890(17) 0.5156(16)
C50 C 0.2236(5) 0.9263(5) 0.6461(6)
C51 C 0.2502(5) 0.9415(5) 0.6539(5)
H24 H 0.2584 0.9396 0.6835
C52 C 0.2658(4) 0.9601(4) 0.6184(6)
H25 H 0.2838 0.9708 0.6244
C53 C 0.2535(5) 0.9619(5) 0.5747(6)
C54 C 0.2266(5) 0.9462(6) 0.5667(6)
H26 H 0.2184 0.9480 0.5371
C55 C 0.2117(4) 0.9282(5) 0.6012(7)
H27 H 0.1938 0.9173 0.5950
C56 C 0.2704(5) 0.9816(4) 0.5359(5)
C57 C 0.2995(5) 0.9820(4) 0.5345(5)
H28 H 0.3098 0.9695 0.5577
C58 C 0.3623(5) 0.9707(6) 0.5180(6)
H29 H 0.3524 0.9505 0.5307
C59 C 0.3909(7) 0.9703(6) 0.5179(7)
H30 H 0.4004 0.9496 0.5301
C60 C 0.2065(6) 0.9073(4) 0.6837(7)
O17 O 0.2209(3) 0.8997(3) 0.7227(4)
O18 O 0.1806(3) 0.9011(4) 0.6798(4)
C61 C 0.1928(4) 0.8600(4) 0.0417(5)
C62 C 0.1923(4) 0.8280(5) 0.0678(6)
H31 H 0.1968 0.8054 0.0536
C63 C 0.1849(4) 0.8285(5) 0.1155(5)
C64 C 0.1776(5) 0.8624(5) 0.1363(6)
H32 H 0.1725 0.8632 0.1677
C65 C 0.1780(4) 0.8950(4) 0.1099(6)
C66 C 0.1859(4) 0.8935(4) 0.0640(6)
H33 H 0.1867 0.9156 0.0470
C73 C 0.1832(5) 0.7921(5) 0.1427(5)
C74 C 0.2048(5) 0.7669(5) 0.1391(5)
H38 H 0.2209 0.7715 0.1205
C75 C 0.2022(5) 0.7333(5) 0.1642(6)
H39 H 0.2168 0.7156 0.1612
C76 C 0.1791(5) 0.7256(5) 0.1930(6)
C77 C 0.1578(5) 0.7513(6) 0.1954(6)
H40 H 0.1413 0.7465 0.2132
C78 C 0.1603(5) 0.7851(5) 0.1716(7)
H41 H 0.1460 0.8032 0.1755
C79 C 0.1727(4) 0.9323(5) 0.1330(6)
C80 C 0.1843(5) 0.9385(4) 0.1768(7)
H42 H 0.1939 0.9192 0.1920
C81 C 0.1819(5) 0.9736(5) 0.1996(6)
H43 H 0.1895 0.9772 0.2294
C83 C 0.1558(4) 0.9948(5) 0.1325(6)
C84 C 0.1587(4) 0.9603(5) 0.1120(5)
H45 H 0.1507 0.9563 0.0826
C86 C 0.1786(7) 0.6892(5) 0.2186(7)
O25 O 0.1522(4) 0.6757(4) 0.2232(5)
O26 O 0.1994(3) 0.6728(3) 0.2320(4)
O29 O 0.5348(9) 0.9192(11) 0.5975(15)
O30 O 0.5375(15) 0.8890(17) 0.5156(16)
Ce5 Ce 0.16935(2) 0.88478(3) 0.76415(3)
Ce6 Ce 0.16935(2) 0.61522(3) 0.26415(3)
Ce9 Ce 0.2500 0.84597(4) 0.7500
Ce10 Ce 0.2500 0.65403(4) 0.2500
O41 O 0.5467(4) 0.9720(7) 0.5169(9)
O42 O 0.5000 0.9827(13) 0.4400(14)
C22 C 0.1682(4) 0.9977(5) 0.8237(6)
H14 H 0.1455 0.9866 0.8829
C27 C 0.1685(4) 0.9596(5) 0.8036(7)
O3 O 0.1579(3) 0.9332(3) 0.8272(4)
O4 O 0.1781(3) 0.9542(3) 0.7628(4)
C67 C 0.2011(5) 0.8592(4) 0.9923(6)
C68 C 0.2241(5) 0.8372(6) 0.9769(6)
H34 H 0.2345 0.8229 0.9983
C69 C 0.2319(5) 0.8363(5) 0.9293(6)
H35 H 0.2475 0.8218 0.9197
C70 C 0.2167(5) 0.8564(5) 0.8972(5)
C71 C 0.1949(5) 0.8789(5) 0.9112(6)
H36 H 0.1856 0.8940 0.8894
C72 C 0.1860(4) 0.8800(4) 0.9580(6)
H37 H 0.1701 0.8944 0.9665
C85 C 0.2248(5) 0.8538(5) 0.8473(6)
C88 C 0.1234(10) 0.8557(16) 0.8476(19)
C89 C 0.0902(13) 0.9113(12) 0.8634(18)
C90 C 0.0983(14) 0.8623(15) 0.9264(14)
C91 C 0.0994(14) 0.8754(17) 0.7461(19)
C92 C 0.0520(13) 0.8631(15) 0.703(3)
C93 C 0.0748(11) 0.8119(9) 0.7527(18)
N4 N 0.1041(13) 0.8766(12) 0.8793(14)
N5 N 0.0751(10) 0.8501(10) 0.735(2)
O21 O 0.2113(3) 0.8710(3) 0.8150(4)
O22 O 0.2468(3) 0.8346(4) 0.8370(4)
O27 O 0.1449(3) 0.8418(4) 0.8265(4)
O28 O 0.1161(3) 0.9021(3) 0.7377(4)
O33 O 0.1522(4) 0.8243(4) 0.7232(5)
O35 O 0.1994(3) 0.8272(3) 0.7320(4)
H68 H 0.0614449 0.869933 0.66917
H69 H 0.0358929 0.841129 0.698653
H70 H 0.0416545 0.88781 0.717616
H71 H 0.118616 0.860147 0.945669
H72 H 0.0836995 0.881285 0.944586
H73 H 0.0882766 0.834846 0.92393
H74 H 0.0751804 0.812334 0.790757
H75 H 0.0552033 0.797828 0.740768
H76 H 0.0937924 0.797035 0.739782
H77 H 0.11193 0.873092 0.778248
H78 H 0.0766165 0.905443 0.833123
H79 H 0.0768609 0.922638 0.891434
H80 H 0.10683 0.931513 0.853869
H81 H 0.117504 0.836941 0.819194
Ce3_2 Ce 0.5000 0.55510(14) 0.0294(2)
C35_3 C 0.7448(6) 0.5000 0.0000
H20_3 H 0.7650 0.5000 0.0000
C37_3 C 0.6853(7) 0.5000 0.0000
C38_3 C 0.6534(8) 0.5000 0.0000
C41_3 C 0.5925(8) 0.5000 0.0000
C42_3 C 0.5594(10) 0.5000 0.0000
O9_2 O 0.5467(4) 0.5280(7) 0.0169(9)
O11_2 O 0.5000 0.4827(13) 0.0600(14)
O15_2 O 0.5348(9) 0.5808(11) 0.0975(15)
O16_2 O 0.5375(15) 0.6110(17) 0.0156(16)
C50_2 C 0.7764(5) 0.5737(5) 0.1461(6)
C51_2 C 0.7498(5) 0.5585(5) 0.1539(5)
H24_2 H 0.7416 0.5604 0.1835
C52_2 C 0.7342(4) 0.5399(4) 0.1184(6)
H25_2 H 0.7162 0.5292 0.1244
C53_2 C 0.7465(5) 0.5381(5) 0.0747(6)
C54_2 C 0.7734(5) 0.5538(6) 0.0667(6)
H26_2 H 0.7816 0.5520 0.0371
C55_2 C 0.7883(4) 0.5718(5) 0.1012(7)
H27_2 H 0.8062 0.5827 0.0950
C56_2 C 0.7296(5) 0.5184(4) 0.0359(5)
C57_2 C 0.7005(5) 0.5180(4) 0.0345(5)
H28_2 H 0.6902 0.5305 0.0577
C58_2 C 0.6377(5) 0.5293(6) 0.0180(6)
H29_2 H 0.6476 0.5495 0.0307
C59_2 C 0.6091(7) 0.5297(6) 0.0179(7)
H30_2 H 0.5996 0.5504 0.0301
C60_2 C 0.7935(6) 0.5927(4) 0.1837(7)
O17_2 O 0.7791(3) 0.6003(3) 0.2227(4)
O18_2 O 0.8194(3) 0.5989(4) 0.1798(4)
O29_2 O 0.4652(9) 0.5808(11) 0.0975(15)
O30_2 O 0.4625(15) 0.6110(17) 0.0156(16)
Ce5_2 Ce 0.83065(2) 0.61522(3) 0.26415(3)
Ce9_2 Ce 0.7500 0.65403(4) 0.2500
O41_2 O 0.4533(4) 0.5280(7) 0.0169(9)
H59 H 0.52707 0.635204 0.0175124
H67 H 0.444 0.605391 0.0319645
Ce1_2 Ce 0.83065(2) 0.38478(3) 0.73585(3)
Ce2_2 Ce 0.7500 0.34597(4) 0.7500
C1_2 C 0.8072(4) 0.3600(4) 0.4583(5)
C2_2 C 0.8077(4) 0.3280(5) 0.4322(6)
H1_2 H 0.8032 0.3054 0.4464
C3_2 C 0.8151(4) 0.3285(5) 0.3845(5)
C4_2 C 0.8224(5) 0.3624(5) 0.3637(6)
H2_2 H 0.8275 0.3632 0.3323
C5_2 C 0.8220(4) 0.3950(4) 0.3901(6)
C6_2 C 0.8141(4) 0.3935(4) 0.4360(6)
H3_2 H 0.8133 0.4156 0.4530
C7_2 C 0.7989(5) 0.3592(4) 0.5077(6)
C8_2 C 0.7759(5) 0.3372(6) 0.5231(6)
H4_2 H 0.7655 0.3229 0.5017
C9_2 C 0.7681(5) 0.3363(5) 0.5707(6)
H5_2 H 0.7525 0.3218 0.5803
C10_2 C 0.7833(5) 0.3564(5) 0.6028(5)
C11_2 C 0.8051(5) 0.3789(5) 0.5888(6)
H6_2 H 0.8144 0.3940 0.6106
C12_2 C 0.8140(4) 0.3800(4) 0.5420(6)
H7_2 H 0.8299 0.3944 0.5335
C13_2 C 0.8168(5) 0.2921(5) 0.3573(5)
C14_2 C 0.7952(5) 0.2669(5) 0.3609(5)
H8_2 H 0.7791 0.2715 0.3795
C15_2 C 0.7978(5) 0.2333(5) 0.3358(6)
H9_2 H 0.7832 0.2156 0.3388
C16_2 C 0.8209(5) 0.2256(5) 0.3070(6)
C17_2 C 0.8422(5) 0.2513(6) 0.3046(6)
H10_2 H 0.8587 0.2465 0.2868
C18_2 C 0.8397(5) 0.2851(5) 0.3284(7)
H11_2 H 0.8540 0.3032 0.3245
C19_2 C 0.8273(4) 0.4323(5) 0.3670(6)
C20_2 C 0.8157(5) 0.4385(4) 0.3232(7)
H12_2 H 0.8061 0.4192 0.3080
C21_2 C 0.8181(5) 0.4736(5) 0.3004(6)
H13_2 H 0.8105 0.4772 0.2706
C22_2 C 0.8318(4) 0.5023(5) 0.3237(6)
C23_2 C 0.8442(4) 0.4948(5) 0.3675(6)
H14_2 H 0.8545 0.5134 0.3829
C24_2 C 0.8413(4) 0.4603(5) 0.3880(5)
H15_2 H 0.8493 0.4563 0.4174
C25_2 C 0.7752(5) 0.3538(5) 0.6527(6)
C26_2 C 0.8214(7) 0.1892(5) 0.2814(7)
C27_2 C 0.8315(4) 0.5404(5) 0.3036(7)
C28_2 C 0.7764(5) 0.4263(5) 0.8539(6)
C29_2 C 0.7498(5) 0.4415(5) 0.8461(5)
H16_2 H 0.7416 0.4396 0.8165
C30_2 C 0.7342(4) 0.4601(4) 0.8816(6)
H17_2 H 0.7162 0.4708 0.8756
C31_2 C 0.7465(5) 0.4619(5) 0.9253(6)
C32_2 C 0.7734(5) 0.4462(6) 0.9333(6)
H18_2 H 0.7816 0.4480 0.9629
C33_2 C 0.7883(4) 0.4282(5) 0.8988(7)
H19_2 H 0.8062 0.4173 0.9050
C34_2 C 0.7296(5) 0.4816(4) 0.9641(5)
C35_4 C 0.7448(6) 0.5000 1.0000
H20_4 H 0.7650 0.5000 1.0000
C36_2 C 0.7005(5) 0.4820(4) 0.9655(5)
H21_2 H 0.6902 0.4695 0.9423
C37_4 C 0.6853(7) 0.5000 1.0000
C38_4 C 0.6534(8) 0.5000 1.0000
C39_2 C 0.6377(5) 0.4707(6) 0.9820(6)
H22_2 H 0.6476 0.4505 0.9693
C40_2 C 0.6091(7) 0.4703(6) 0.9821(7)
H23_2 H 0.5996 0.4496 0.9699
C41_4 C 0.5925(8) 0.5000 1.0000
C42_4 C 0.5594(10) 0.5000 1.0000
C43_2 C 0.7935(6) 0.4073(4) 0.8163(7)
C44_2 C 0.8766(10) 0.3557(16) 0.6524(19)
C45_2 C 0.9098(13) 0.4113(12) 0.6366(18)
C46_2 C 0.9017(14) 0.3623(15) 0.5736(14)
C47_2 C 0.9006(14) 0.3754(17) 0.7539(19)
C48_2 C 0.9480(13) 0.3631(15) 0.797(3)
C49_2 C 0.9252(11) 0.3119(9) 0.7473(18)
N1_2 N 0.8959(13) 0.3766(12) 0.6207(14)
N2_2 N 0.9249(10) 0.3501(10) 0.765(2)
N3_2 N 0.7500 0.2445(6) 0.7500
O1_2 O 0.7887(3) 0.3710(3) 0.6850(4)
O2_2 O 0.7532(3) 0.3346(4) 0.6630(4)
O3_2 O 0.8421(3) 0.5668(3) 0.3272(4)
O4_2 O 0.8219(3) 0.5458(3) 0.2628(4)
O5_2 O 0.8478(4) 0.1757(4) 0.2768(5)
O6_2 O 0.8006(3) 0.1728(3) 0.2680(4)
O7_2 O 0.7791(3) 0.3997(3) 0.7773(4)
O8_2 O 0.8194(3) 0.4011(4) 0.8202(4)
O10_2 O 0.7500 0.2778(5) 0.7500
O12_2 O 0.8551(3) 0.3418(4) 0.6735(4)
O13_2 O 0.8839(3) 0.4021(3) 0.7623(4)
O14_2 O 0.7690(5) 0.2245(6) 0.7368(13)
O19_2 O 0.5467(4) 0.4720(7) 0.9831(9)
O20_2 O 0.7310(5) 0.2245(6) 0.7632(13)
C61_2 C 0.8072(4) 0.6400(4) 0.5417(5)
C62_2 C 0.8077(4) 0.6720(5) 0.5678(6)
H31_2 H 0.8032 0.6946 0.5536
C63_2 C 0.8151(4) 0.6715(5) 0.6155(5)
C64_2 C 0.8224(5) 0.6376(5) 0.6363(6)
H32_2 H 0.8275 0.6368 0.6677
C65_2 C 0.8220(4) 0.6050(4) 0.6099(6)
C66_2 C 0.8141(4) 0.6065(4) 0.5640(6)
H33_2 H 0.8133 0.5844 0.5470
C67_2 C 0.7989(5) 0.6408(4) 0.4923(6)
C68_2 C 0.7759(5) 0.6628(6) 0.4769(6)
H34_2 H 0.7655 0.6771 0.4983
C69_2 C 0.7681(5) 0.6637(5) 0.4293(6)
H35_2 H 0.7525 0.6782 0.4197
C70_2 C 0.7833(5) 0.6436(5) 0.3972(5)
C71_2 C 0.8051(5) 0.6211(5) 0.4112(6)
H36_2 H 0.8144 0.6060 0.3894
C72_2 C 0.8140(4) 0.6200(4) 0.4580(6)
H37_2 H 0.8299 0.6056 0.4665
C73_2 C 0.8168(5) 0.7079(5) 0.6427(5)
C74_2 C 0.7952(5) 0.7331(5) 0.6391(5)
H38_2 H 0.7791 0.7285 0.6205
C75_2 C 0.7978(5) 0.7667(5) 0.6642(6)
H39_2 H 0.7832 0.7844 0.6612
C76_2 C 0.8209(5) 0.7744(5) 0.6930(6)
C77_2 C 0.8422(5) 0.7487(6) 0.6954(6)
H40_2 H 0.8587 0.7535 0.7132
C78_2 C 0.8397(5) 0.7149(5) 0.6716(7)
H41_2 H 0.8540 0.6968 0.6755
C79_2 C 0.8273(4) 0.5677(5) 0.6330(6)
C80_2 C 0.8157(5) 0.5615(4) 0.6768(7)
H42_2 H 0.8061 0.5808 0.6920
C81_2 C 0.8181(5) 0.5264(5) 0.6996(6)
H43_2 H 0.8105 0.5228 0.7294
C82_2 C 0.8318(4) 0.4977(5) 0.6763(6)
C83_2 C 0.8442(4) 0.5052(5) 0.6325(6)
H44_2 H 0.8545 0.4866 0.6171
C84_2 C 0.8413(4) 0.5397(5) 0.6120(5)
H45_2 H 0.8493 0.5437 0.5826
C85_2 C 0.7752(5) 0.6462(5) 0.3473(6)
C86_2 C 0.8214(7) 0.8108(5) 0.7186(7)
C87_2 C 0.8315(4) 0.4596(5) 0.6964(7)
C88_2 C 0.8766(10) 0.6443(16) 0.3476(19)
C89_2 C 0.9098(13) 0.5887(12) 0.3634(18)
C90_2 C 0.9017(14) 0.6377(15) 0.4264(14)
C91_2 C 0.9006(14) 0.6246(17) 0.2461(19)
C92_2 C 0.9480(13) 0.6369(15) 0.203(3)
C93_2 C 0.9252(11) 0.6881(9) 0.2527(18)
N4_2 N 0.8959(13) 0.6234(12) 0.3793(14)
N5_2 N 0.9249(10) 0.6499(10) 0.235(2)
O21_2 O 0.7887(3) 0.6290(3) 0.3150(4)
O22_2 O 0.7532(3) 0.6654(4) 0.3370(4)
O23_2 O 0.8421(3) 0.4332(3) 0.6728(4)
O24_2 O 0.8219(3) 0.4542(3) 0.7372(4)
O25_2 O 0.8478(4) 0.8243(4) 0.7232(5)
O26_2 O 0.8006(3) 0.8272(3) 0.7320(4)
O27_2 O 0.8551(3) 0.6582(4) 0.3265(4)
O28_2 O 0.8839(3) 0.5979(3) 0.2377(4)
Ce6_2 Ce 0.83065(2) 0.88478(3) 0.76415(3)
Ce7_2 Ce 0.83065(2) 0.11522(3) 0.23585(3)
Ce10_2 Ce 0.7500 0.84597(4) 0.7500
Ce11_2 Ce 0.7500 0.15403(4) 0.2500
Ce12_2 Ce 0.5000 0.44490(14) 0.9706(2)
O31_2 O 0.7113(3) 0.3710(3) 0.8150(4)
O32_2 O 0.7468(3) 0.3346(4) 0.8370(4)
O33_2 O 0.8478(4) 0.6757(4) 0.2232(5)
O34_2 O 0.8478(4) 0.3243(4) 0.7768(5)
O35_2 O 0.8006(3) 0.6728(3) 0.2320(4)
O36_2 O 0.8006(3) 0.3272(3) 0.7680(4)
O37_2 O 0.6994(3) 0.3272(3) 0.7320(4)
O39_2 O 0.7209(3) 0.3997(3) 0.7227(4)
O42_2 O 0.5000 0.5173(13) 0.9400(14)
H46_2 H 0.881384 0.360147 0.554331
H47_2 H 0.916301 0.381285 0.555414
H48_2 H 0.911723 0.334846 0.57607
H51_2 H 0.923384 0.405443 0.666877
H52_2 H 0.923139 0.422638 0.608566
H53_2 H 0.89317 0.431513 0.646131
H54_2 H 0.882496 0.336941 0.680806
H55_2 H 0.92482 0.312334 0.709243
H56_2 H 0.944797 0.297828 0.759232
H57_2 H 0.906208 0.297035 0.760218
H58 H 0.5465 0.608415 0.984227
H60_2 H 0.88807 0.373092 0.721752
H61_2 H 0.938555 0.369933 0.83083
H62_2 H 0.964107 0.341129 0.801347
H63_2 H 0.958346 0.38781 0.782384
H66 H 0.458755 0.613831 0.981602
H68_2 H 0.938555 0.630067 0.16917
H69_2 H 0.964107 0.658871 0.198653
H70_2 H 0.958346 0.61219 0.217616
H71_2 H 0.881384 0.639853 0.445669
H72_2 H 0.916301 0.618715 0.444586
H73_2 H 0.911723 0.665154 0.42393
H74_2 H 0.92482 0.687666 0.290757
H75_2 H 0.944797 0.702172 0.240768
H76_2 H 0.906208 0.702965 0.239782
H77_2 H 0.88807 0.626908 0.278248
H78_2 H 0.923384 0.594557 0.333123
H79_2 H 0.923139 0.577362 0.391434
H80_2 H 0.89317 0.568487 0.353869
H81_2 H 0.882496 0.663059 0.319194
N3_3 N 0.7500 0.7555(6) 0.2500
O10_3 O 0.7500 0.7222(5) 0.2500
O14_3 O 0.7690(5) 0.7755(6) 0.2632(13)
O20_3 O 0.7310(5) 0.7755(6) 0.2368(13)
O31_3 O 0.7113(3) 0.6290(3) 0.1850(4)
O32_3 O 0.7468(3) 0.6654(4) 0.1630(4)
O37_3 O 0.6994(3) 0.6728(3) 0.2680(4)
O39_3 O 0.7209(3) 0.6003(3) 0.2773(4)
H58_2 H 0.5465 0.391585 0.0157728
H66_2 H 0.458755 0.386169 0.0183983
O15_3 O 0.5348(9) 0.4192(11) 0.9025(15)
O16_3 O 0.5375(15) 0.3890(17) 0.9844(16)
O29_3 O 0.4652(9) 0.4192(11) 0.9025(15)
O30_3 O 0.4625(15) 0.3890(17) 0.9844(16)
O41_3 O 0.4533(4) 0.4720(7) 0.9831(9)
H59_2 H 0.52707 0.364796 0.982488
H67_2 H 0.444 0.394609 0.968036
O15_4 O 0.4652(9) 0.0808(11) 0.4025(15)
O16_4 O 0.4625(15) 0.1110(17) 0.4844(16)
O29_4 O 0.5348(9) 0.0808(11) 0.4025(15)
O30_4 O 0.5375(15) 0.1110(17) 0.4844(16)
O41_4 O 0.5467(4) 0.0280(7) 0.4831(9)
N3_4 N 0.2500 0.7445(6) 0.7500
O10_4 O 0.2500 0.7778(5) 0.7500
O14_4 O 0.2310(5) 0.7245(6) 0.7632(13)
O20_4 O 0.2690(5) 0.7245(6) 0.7368(13)
O31_4 O 0.2887(3) 0.8710(3) 0.6850(4)
O32_4 O 0.2532(3) 0.8346(4) 0.6630(4)
O37_4 O 0.3006(3) 0.8272(3) 0.7680(4)
O39_4 O 0.2791(3) 0.8997(3) 0.7773(4)
Ce3_3 Ce -0.0000 0.44490(14) 0.5294(2)
O11_3 O 0.0000 0.5173(13) 0.5600(14)
O29_5 O 0.0348(9) 0.4192(11) 0.5975(15)
O30_5 O 0.0375(15) 0.3890(17) 0.5156(16)
Ce12_3 Ce 0.0000 0.55510(14) 0.4706(2)
O41_5 O 0.0467(4) 0.4720(7) 0.5169(9)
O42_3 O 0.0000 0.4827(13) 0.4400(14)
Ce1_3 Ce 0.66935(2) 0.61522(3) 0.23585(3)
Ce3_4 Ce 1.0000 0.44490(14) 0.5294(2)
C7_3 C 0.7011(5) 0.6408(4) 0.0077(6)
C8_3 C 0.7241(5) 0.6628(6) 0.0231(6)
H4_3 H 0.7345 0.6771 0.0017
C9_3 C 0.7319(5) 0.6637(5) 0.0707(6)
H5_3 H 0.7475 0.6782 0.0803
C10_3 C 0.7167(5) 0.6436(5) 0.1028(5)
C11_3 C 0.6949(5) 0.6211(5) 0.0888(6)
H6_3 H 0.6856 0.6060 0.1106
C12_3 C 0.6860(4) 0.6200(4) 0.0420(6)
H7_3 H 0.6701 0.6056 0.0335
C25_3 C 0.7248(5) 0.6462(5) 0.1527(6)
C28_3 C 0.7236(5) 0.5737(5) 0.3539(6)
C29_3 C 0.7502(5) 0.5585(5) 0.3461(5)
H16_3 H 0.7584 0.5604 0.3165
C30_3 C 0.7658(4) 0.5399(4) 0.3816(6)
H17_3 H 0.7838 0.5292 0.3756
C31_3 C 0.7535(5) 0.5381(5) 0.4253(6)
C32_3 C 0.7266(5) 0.5538(6) 0.4333(6)
H18_3 H 0.7184 0.5520 0.4629
C33_3 C 0.7117(4) 0.5718(5) 0.3988(7)
H19_3 H 0.6938 0.5827 0.4050
C34_3 C 0.7704(5) 0.5184(4) 0.4641(5)
C35_5 C 0.7552(6) 0.5000 0.5000
H20_5 H 0.7350 0.5000 0.5000
C36_3 C 0.7995(5) 0.5180(4) 0.4655(5)
H21_3 H 0.8098 0.5305 0.4423
C37_5 C 0.8147(7) 0.5000 0.5000
C38_5 C 0.8466(8) 0.5000 0.5000
C39_3 C 0.8623(5) 0.5293(6) 0.4820(6)
H22_3 H 0.8524 0.5495 0.4693
C40_3 C 0.8909(7) 0.5297(6) 0.4821(7)
H23_3 H 0.9004 0.5504 0.4699
C41_5 C 0.9075(8) 0.5000 0.5000
C42_5 C 0.9406(10) 0.5000 0.5000
C43_3 C 0.7065(6) 0.5927(4) 0.3163(7)
C44_3 C 0.6234(10) 0.6443(16) 0.1524(19)
C45_3 C 0.5902(13) 0.5887(12) 0.1366(18)
C46_3 C 0.5983(14) 0.6377(15) 0.0736(14)
C47_3 C 0.5994(14) 0.6246(17) 0.2539(19)
C48_3 C 0.5520(13) 0.6369(15) 0.297(3)
C49_3 C 0.5748(11) 0.6881(9) 0.2473(18)
N1_3 N 0.6041(13) 0.6234(12) 0.1207(14)
N2_3 N 0.5751(10) 0.6499(10) 0.265(2)
O8_3 O 0.6806(3) 0.5989(4) 0.3202(4)
O9_3 O 0.9533(4) 0.4720(7) 0.5169(9)
O11_4 O 1.0000 0.5173(13) 0.5600(14)
O12_3 O 0.6449(3) 0.6582(4) 0.1735(4)
O13_3 O 0.6161(3) 0.5979(3) 0.2623(4)
O15_5 O 0.9652(9) 0.4192(11) 0.5975(15)
O16_5 O 0.9625(15) 0.3890(17) 0.5156(16)
C50_3 C 0.7236(5) 0.4263(5) 0.6461(6)
C51_3 C 0.7502(5) 0.4415(5) 0.6539(5)
H24_3 H 0.7584 0.4396 0.6835
C52_3 C 0.7658(4) 0.4601(4) 0.6184(6)
H25_3 H 0.7838 0.4708 0.6244
C53_3 C 0.7535(5) 0.4619(5) 0.5747(6)
C54_3 C 0.7266(5) 0.4462(6) 0.5667(6)
H26_3 H 0.7184 0.4480 0.5371
C55_3 C 0.7117(4) 0.4282(5) 0.6012(7)
H27_3 H 0.6938 0.4173 0.5950
C56_3 C 0.7704(5) 0.4816(4) 0.5359(5)
C57_3 C 0.7995(5) 0.4820(4) 0.5345(5)
H28_3 H 0.8098 0.4695 0.5577
C58_3 C 0.8623(5) 0.4707(6) 0.5180(6)
H29_3 H 0.8524 0.4505 0.5307
C59_3 C 0.8909(7) 0.4703(6) 0.5179(7)
H30_3 H 0.9004 0.4496 0.5301
C60_3 C 0.7065(6) 0.4073(4) 0.6837(7)
O18_3 O 0.6806(3) 0.4011(4) 0.6798(4)
O19_3 O 0.9533(4) 0.5280(7) 0.4831(9)
C61_3 C 0.6928(4) 0.3600(4) 0.0417(5)
C62_3 C 0.6923(4) 0.3280(5) 0.0678(6)
H31_3 H 0.6968 0.3054 0.0536
C63_3 C 0.6849(4) 0.3285(5) 0.1155(5)
C64_3 C 0.6776(5) 0.3624(5) 0.1363(6)
H32_3 H 0.6725 0.3632 0.1677
C65_3 C 0.6780(4) 0.3950(4) 0.1099(6)
C66_3 C 0.6859(4) 0.3935(4) 0.0640(6)
H33_3 H 0.6867 0.4156 0.0470
C73_3 C 0.6832(5) 0.2921(5) 0.1427(5)
C74_3 C 0.7048(5) 0.2669(5) 0.1391(5)
H38_3 H 0.7209 0.2715 0.1205
C75_3 C 0.7022(5) 0.2333(5) 0.1642(6)
H39_3 H 0.7168 0.2156 0.1612
C76_3 C 0.6791(5) 0.2256(5) 0.1930(6)
C77_3 C 0.6578(5) 0.2513(6) 0.1954(6)
H40_3 H 0.6413 0.2465 0.2132
C78_3 C 0.6603(5) 0.2851(5) 0.1716(7)
H41_3 H 0.6460 0.3032 0.1755
C79_3 C 0.6727(4) 0.4323(5) 0.1330(6)
C80_3 C 0.6843(5) 0.4385(4) 0.1768(7)
H42_3 H 0.6939 0.4192 0.1920
C81_3 C 0.6819(5) 0.4736(5) 0.1996(6)
H43_3 H 0.6895 0.4772 0.2294
C82_3 C 0.6682(4) 0.5023(5) 0.1763(6)
C83_3 C 0.6558(4) 0.4948(5) 0.1325(6)
H44_3 H 0.6455 0.5134 0.1171
C84_3 C 0.6587(4) 0.4603(5) 0.1120(5)
H45_3 H 0.6507 0.4563 0.0826
C86_3 C 0.6786(7) 0.1892(5) 0.2186(7)
C87_3 C 0.6685(4) 0.5404(5) 0.1964(7)
O23_3 O 0.6579(3) 0.5668(3) 0.1728(4)
O24_3 O 0.6781(3) 0.5458(3) 0.2372(4)
O25_3 O 0.6522(4) 0.1757(4) 0.2232(5)
O26_3 O 0.6994(3) 0.1728(3) 0.2320(4)
Ce5_3 Ce 0.66935(2) 0.38478(3) 0.76415(3)
Ce6_3 Ce 0.66935(2) 0.11522(3) 0.26415(3)
Ce12_4 Ce 1.0000 0.55510(14) 0.4706(2)
O34_3 O 0.6522(4) 0.6757(4) 0.2768(5)
O42_4 O 1.0000 0.4827(13) 0.4400(14)
H46_3 H 0.618616 0.639853 0.0543306
H47_3 H 0.583699 0.618715 0.0554144
H48_3 H 0.588277 0.665154 0.0760704
H51_3 H 0.576616 0.594557 0.166877
H52_3 H 0.576861 0.577362 0.108566
H53_3 H 0.60683 0.568487 0.146131
H54_3 H 0.617504 0.663059 0.180806
H55_3 H 0.57518 0.687666 0.209243
H56_3 H 0.555203 0.702172 0.259232
H57_3 H 0.593792 0.702965 0.260218
H60_3 H 0.61193 0.626908 0.221752
H61_3 H 0.561445 0.630067 0.33083
H62_3 H 0.535893 0.658871 0.301347
H63_3 H 0.541654 0.61219 0.282384
C1_3 C 0.6928(4) 0.6400(4) 0.9583(5)
C2_3 C 0.6923(4) 0.6720(5) 0.9322(6)
H1_3 H 0.6968 0.6946 0.9464
C3_3 C 0.6849(4) 0.6715(5) 0.8845(5)
C4_3 C 0.6776(5) 0.6376(5) 0.8637(6)
H2_3 H 0.6725 0.6368 0.8323
C5_3 C 0.6780(4) 0.6050(4) 0.8901(6)
C6_3 C 0.6859(4) 0.6065(4) 0.9360(6)
H3_3 H 0.6867 0.5844 0.9530
C13_3 C 0.6832(5) 0.7079(5) 0.8573(5)
C14_3 C 0.7048(5) 0.7331(5) 0.8609(5)
H8_3 H 0.7209 0.7285 0.8795
C15_3 C 0.7022(5) 0.7667(5) 0.8358(6)
H9_3 H 0.7168 0.7844 0.8388
C16_3 C 0.6791(5) 0.7744(5) 0.8070(6)
C17_3 C 0.6578(5) 0.7487(6) 0.8046(6)
H10_3 H 0.6413 0.7535 0.7868
C18_3 C 0.6603(5) 0.7149(5) 0.8284(7)
H11_3 H 0.6460 0.6968 0.8245
C19_3 C 0.6727(4) 0.5677(5) 0.8670(6)
C20_3 C 0.6843(5) 0.5615(4) 0.8232(7)
H12_3 H 0.6939 0.5808 0.8080
C21_3 C 0.6819(5) 0.5264(5) 0.8004(6)
H13_3 H 0.6895 0.5228 0.7706
C22_3 C 0.6682(4) 0.4977(5) 0.8237(6)
C23_3 C 0.6558(4) 0.5052(5) 0.8675(6)
H14_3 H 0.6455 0.4866 0.8829
C24_3 C 0.6587(4) 0.5397(5) 0.8880(5)
H15_3 H 0.6507 0.5437 0.9174
C26_3 C 0.6786(7) 0.8108(5) 0.7814(7)
C27_3 C 0.6685(4) 0.4596(5) 0.8036(7)
O3_3 O 0.6579(3) 0.4332(3) 0.8272(4)
O4_3 O 0.6781(3) 0.4542(3) 0.7628(4)
O5_3 O 0.6522(4) 0.8243(4) 0.7768(5)
O6_3 O 0.6994(3) 0.8272(3) 0.7680(4)
C67_3 C 0.7011(5) 0.3592(4) 0.9923(6)
C68_3 C 0.7241(5) 0.3372(6) 0.9769(6)
H34_3 H 0.7345 0.3229 0.9983
C69_3 C 0.7319(5) 0.3363(5) 0.9293(6)
H35_3 H 0.7475 0.3218 0.9197
C70_3 C 0.7167(5) 0.3564(5) 0.8972(5)
C71_3 C 0.6949(5) 0.3789(5) 0.9112(6)
H36_3 H 0.6856 0.3940 0.8894
C72_3 C 0.6860(4) 0.3800(4) 0.9580(6)
H37_3 H 0.6701 0.3944 0.9665
C85_3 C 0.7248(5) 0.3538(5) 0.8473(6)
C88_3 C 0.6234(10) 0.3557(16) 0.8476(19)
C89_3 C 0.5902(13) 0.4113(12) 0.8634(18)
C90_3 C 0.5983(14) 0.3623(15) 0.9264(14)
C91_3 C 0.5994(14) 0.3754(17) 0.7461(19)
C92_3 C 0.5520(13) 0.3631(15) 0.703(3)
C93_3 C 0.5748(11) 0.3119(9) 0.7527(18)
N4_3 N 0.6041(13) 0.3766(12) 0.8793(14)
N5_3 N 0.5751(10) 0.3501(10) 0.735(2)
O27_3 O 0.6449(3) 0.3418(4) 0.8265(4)
O28_3 O 0.6161(3) 0.4021(3) 0.7377(4)
Ce7_3 Ce 0.66935(2) 0.88478(3) 0.73585(3)
O33_3 O 0.6522(4) 0.3243(4) 0.7232(5)
H68_3 H 0.561445 0.369933 0.66917
H69_3 H 0.535893 0.341129 0.698653
H70_3 H 0.541654 0.38781 0.717616
H71_3 H 0.618616 0.360147 0.945669
H72_3 H 0.583699 0.381285 0.944586
H73_3 H 0.588277 0.334846 0.92393
H74_3 H 0.57518 0.312334 0.790757
H75_3 H 0.555203 0.297828 0.740768
H76_3 H 0.593792 0.297035 0.739782
H77_3 H 0.61193 0.373092 0.778248
H78_3 H 0.576616 0.405443 0.833123
H79_3 H 0.576861 0.422638 0.891434
H80_3 H 0.60683 0.431513 0.853869
H81_3 H 0.617504 0.336941 0.819194
Ce3_5 Ce 0.0000 0.05510(14) 0.0294(2)
C35_6 C 0.2448(6) -0.0000 0.0000
H20_6 H 0.2650 -0.0000 0.0000
C37_6 C 0.1853(7) -0.0000 0.0000
C38_6 C 0.1534(8) -0.0000 0.0000
C41_6 C 0.0925(8) -0.0000 0.0000
C42_6 C 0.0594(10) -0.0000 0.0000
O9_4 O 0.0467(4) 0.0280(7) 0.0169(9)
O15_6 O 0.0348(9) 0.0808(11) 0.0975(15)
O16_6 O 0.0375(15) 0.1110(17) 0.0156(16)
C50_4 C 0.2764(5) 0.0737(5) 0.1461(6)
C51_4 C 0.2498(5) 0.0585(5) 0.1539(5)
H24_4 H 0.2416 0.0604 0.1835
C52_4 C 0.2342(4) 0.0399(4) 0.1184(6)
H25_4 H 0.2162 0.0292 0.1244
C53_4 C 0.2465(5) 0.0381(5) 0.0747(6)
C54_4 C 0.2734(5) 0.0538(6) 0.0667(6)
H26_4 H 0.2816 0.0520 0.0371
C55_4 C 0.2883(4) 0.0718(5) 0.1012(7)
H27_4 H 0.3062 0.0827 0.0950
C56_4 C 0.2296(5) 0.0184(4) 0.0359(5)
C57_4 C 0.2005(5) 0.0180(4) 0.0345(5)
H28_4 H 0.1902 0.0305 0.0577
C58_4 C 0.1377(5) 0.0293(6) 0.0180(6)
H29_4 H 0.1476 0.0495 0.0307
C59_4 C 0.1091(7) 0.0297(6) 0.0179(7)
H30_4 H 0.0996 0.0504 0.0301
C60_4 C 0.2935(6) 0.0927(4) 0.1837(7)
O18_4 O 0.3194(3) 0.0989(4) 0.1798(4)
Ce5_4 Ce 0.33065(2) 0.11522(3) 0.26415(3)
H59_3 H 0.0270697 0.135204 0.0175124
C22_4 C 0.3318(4) 0.0023(5) 0.3237(6)
H14_4 H 0.3545 0.0134 0.3829
C27_4 C 0.3315(4) 0.0404(5) 0.3036(7)
C35_7 C 0.2448(6) 0.0000 1.0000
H20_7 H 0.2650 0.0000 1.0000
C37_7 C 0.1853(7) 0.0000 1.0000
C38_7 C 0.1534(8) 0.0000 1.0000
C41_7 C 0.0925(8) 0.0000 1.0000
C42_7 C 0.0594(10) 0.0000 1.0000
O3_4 O 0.3421(3) 0.0668(3) 0.3272(4)
O4_4 O 0.3219(3) 0.0458(3) 0.2628(4)
C61_4 C 0.3072(4) 0.1400(4) 0.5417(5)
C62_4 C 0.3077(4) 0.1720(5) 0.5678(6)
H31_4 H 0.3032 0.1946 0.5536
C63_4 C 0.3151(4) 0.1715(5) 0.6155(5)
C64_4 C 0.3224(5) 0.1376(5) 0.6363(6)
H32_4 H 0.3275 0.1368 0.6677
C65_4 C 0.3220(4) 0.1050(4) 0.6099(6)
C66_4 C 0.3141(4) 0.1065(4) 0.5640(6)
H33_4 H 0.3133 0.0844 0.5470
C67_4 C 0.2989(5) 0.1408(4) 0.4923(6)
C68_4 C 0.2759(5) 0.1628(6) 0.4769(6)
H34_4 H 0.2655 0.1771 0.4983
C69_4 C 0.2681(5) 0.1637(5) 0.4293(6)
H35_4 H 0.2525 0.1782 0.4197
C70_4 C 0.2833(5) 0.1436(5) 0.3972(5)
C71_4 C 0.3051(5) 0.1211(5) 0.4112(6)
H36_4 H 0.3144 0.1060 0.3894
C72_4 C 0.3140(4) 0.1200(4) 0.4580(6)
H37_4 H 0.3299 0.1056 0.4665
C73_4 C 0.3168(5) 0.2079(5) 0.6427(5)
C74_4 C 0.2952(5) 0.2331(5) 0.6391(5)
H38_4 H 0.2791 0.2285 0.6205
C75_4 C 0.2978(5) 0.2667(5) 0.6642(6)
H39_4 H 0.2832 0.2844 0.6612
C76_4 C 0.3209(5) 0.2744(5) 0.6930(6)
C77_4 C 0.3422(5) 0.2487(6) 0.6954(6)
H40_4 H 0.3587 0.2535 0.7132
C78_4 C 0.3397(5) 0.2149(5) 0.6716(7)
H41_4 H 0.3540 0.1968 0.6755
C79_4 C 0.3273(4) 0.0677(5) 0.6330(6)
C80_4 C 0.3157(5) 0.0615(4) 0.6768(7)
H42_4 H 0.3061 0.0808 0.6920
C81_4 C 0.3181(5) 0.0264(5) 0.6996(6)
H43_4 H 0.3105 0.0228 0.7294
C83_4 C 0.3442(4) 0.0052(5) 0.6325(6)
C84_4 C 0.3413(4) 0.0397(5) 0.6120(5)
H45_4 H 0.3493 0.0437 0.5826
C85_4 C 0.2752(5) 0.1462(5) 0.3473(6)
C86_4 C 0.3214(7) 0.3108(5) 0.7186(7)
C88_4 C 0.3766(10) 0.1443(16) 0.3476(19)
C89_4 C 0.4098(13) 0.0887(12) 0.3634(18)
C90_4 C 0.4017(14) 0.1377(15) 0.4264(14)
C91_4 C 0.4006(14) 0.1246(17) 0.2461(19)
C92_4 C 0.4480(13) 0.1369(15) 0.203(3)
C93_4 C 0.4252(11) 0.1881(9) 0.2527(18)
N4_4 N 0.3959(13) 0.1234(12) 0.3793(14)
N5_4 N 0.4249(10) 0.1499(10) 0.235(2)
O25_4 O 0.3478(4) 0.3243(4) 0.7232(5)
O26_4 O 0.3006(3) 0.3272(3) 0.7320(4)
O27_4 O 0.3551(3) 0.1582(4) 0.3265(4)
O28_4 O 0.3839(3) 0.0979(3) 0.2377(4)
Ce6_4 Ce 0.33065(2) 0.38478(3) 0.76415(3)
O33_4 O 0.3478(4) 0.1757(4) 0.2232(5)
O42_5 O 0.0000 0.0173(13) 0.9400(14)
H58_3 H 0.0465002 0.108415 0.984227
H68_4 H 0.438555 0.130067 0.16917
H69_4 H 0.464107 0.158871 0.198653
H70_4 H 0.458346 0.11219 0.217616
H71_4 H 0.381384 0.139853 0.445669
H72_4 H 0.416301 0.118715 0.444586
H73_4 H 0.411723 0.165154 0.42393
H74_4 H 0.42482 0.187666 0.290757
H75_4 H 0.444797 0.202172 0.240768
H76_4 H 0.406208 0.202965 0.239782
H77_4 H 0.38807 0.126908 0.278248
H78_4 H 0.423384 0.0945565 0.333123
H79_4 H 0.423139 0.0773622 0.391434
H80_4 H 0.39317 0.0684868 0.353869
H81_4 H 0.382496 0.163059 0.319194
C35_8 C 0.2448(6) 1.0000 0.0000
H20_8 H 0.2650 1.0000 0.0000
C37_8 C 0.1853(7) 1.0000 0.0000
C38_8 C 0.1534(8) 1.0000 0.0000
C41_8 C 0.0925(8) 1.0000 0.0000
C42_8 C 0.0594(10) 1.0000 0.0000
O11_5 O 0.0000 0.9827(13) 0.0600(14)
Ce1_4 Ce 0.33065(2) 0.88478(3) 0.73585(3)
C1_4 C 0.3072(4) 0.8600(4) 0.4583(5)
C2_4 C 0.3077(4) 0.8280(5) 0.4322(6)
H1_4 H 0.3032 0.8054 0.4464
C3_4 C 0.3151(4) 0.8285(5) 0.3845(5)
C4_4 C 0.3224(5) 0.8624(5) 0.3637(6)
H2_4 H 0.3275 0.8632 0.3323
C5_4 C 0.3220(4) 0.8950(4) 0.3901(6)
C6_4 C 0.3141(4) 0.8935(4) 0.4360(6)
H3_4 H 0.3133 0.9156 0.4530
C7_4 C 0.2989(5) 0.8592(4) 0.5077(6)
C8_4 C 0.2759(5) 0.8372(6) 0.5231(6)
H4_4 H 0.2655 0.8229 0.5017
C9_4 C 0.2681(5) 0.8363(5) 0.5707(6)
H5_4 H 0.2525 0.8218 0.5803
C10_4 C 0.2833(5) 0.8564(5) 0.6028(5)
C11_4 C 0.3051(5) 0.8789(5) 0.5888(6)
H6_4 H 0.3144 0.8940 0.6106
C12_4 C 0.3140(4) 0.8800(4) 0.5420(6)
H7_4 H 0.3299 0.8944 0.5335
C13_4 C 0.3168(5) 0.7921(5) 0.3573(5)
C14_4 C 0.2952(5) 0.7669(5) 0.3609(5)
H8_4 H 0.2791 0.7715 0.3795
C15_4 C 0.2978(5) 0.7333(5) 0.3358(6)
H9_4 H 0.2832 0.7156 0.3388
C16_4 C 0.3209(5) 0.7256(5) 0.3070(6)
C17_4 C 0.3422(5) 0.7513(6) 0.3046(6)
H10_4 H 0.3587 0.7465 0.2868
C18_4 C 0.3397(5) 0.7851(5) 0.3284(7)
H11_4 H 0.3540 0.8032 0.3245
C19_4 C 0.3273(4) 0.9323(5) 0.3670(6)
C20_4 C 0.3157(5) 0.9385(4) 0.3232(7)
H12_4 H 0.3061 0.9192 0.3080
C21_4 C 0.3181(5) 0.9736(5) 0.3004(6)
H13_4 H 0.3105 0.9772 0.2706
C23_4 C 0.3442(4) 0.9948(5) 0.3675(6)
C24_4 C 0.3413(4) 0.9603(5) 0.3880(5)
H15_4 H 0.3493 0.9563 0.4174
C25_4 C 0.2752(5) 0.8538(5) 0.6527(6)
C26_4 C 0.3214(7) 0.6892(5) 0.2814(7)
C28_4 C 0.2764(5) 0.9263(5) 0.8539(6)
C29_4 C 0.2498(5) 0.9415(5) 0.8461(5)
H16_4 H 0.2416 0.9396 0.8165
C30_4 C 0.2342(4) 0.9601(4) 0.8816(6)
H17_4 H 0.2162 0.9708 0.8756
C31_4 C 0.2465(5) 0.9619(5) 0.9253(6)
C32_4 C 0.2734(5) 0.9462(6) 0.9333(6)
H18_4 H 0.2816 0.9480 0.9629
C33_4 C 0.2883(4) 0.9282(5) 0.8988(7)
H19_4 H 0.3062 0.9173 0.9050
C34_4 C 0.2296(5) 0.9816(4) 0.9641(5)
C35_9 C 0.2448(6) 1.0000 1.0000
H20_9 H 0.2650 1.0000 1.0000
C36_4 C 0.2005(5) 0.9820(4) 0.9655(5)
H21_4 H 0.1902 0.9695 0.9423
C37_9 C 0.1853(7) 1.0000 1.0000
C38_9 C 0.1534(8) 1.0000 1.0000
C39_4 C 0.1377(5) 0.9707(6) 0.9820(6)
H22_4 H 0.1476 0.9505 0.9693
C40_4 C 0.1091(7) 0.9703(6) 0.9821(7)
H23_4 H 0.0996 0.9496 0.9699
C41_9 C 0.0925(8) 1.0000 1.0000
C42_9 C 0.0594(10) 1.0000 1.0000
C43_4 C 0.2935(6) 0.9073(4) 0.8163(7)
C44_4 C 0.3766(10) 0.8557(16) 0.6524(19)
C45_4 C 0.4098(13) 0.9113(12) 0.6366(18)
C46_4 C 0.4017(14) 0.8623(15) 0.5736(14)
C47_4 C 0.4006(14) 0.8754(17) 0.7539(19)
C48_4 C 0.4480(13) 0.8631(15) 0.797(3)
C49_4 C 0.4252(11) 0.8119(9) 0.7473(18)
N1_4 N 0.3959(13) 0.8766(12) 0.6207(14)
N2_4 N 0.4249(10) 0.8501(10) 0.765(2)
O5_4 O 0.3478(4) 0.6757(4) 0.2768(5)
O6_4 O 0.3006(3) 0.6728(3) 0.2680(4)
O8_4 O 0.3194(3) 0.9011(4) 0.8202(4)
O12_4 O 0.3551(3) 0.8418(4) 0.6735(4)
O13_4 O 0.3839(3) 0.9021(3) 0.7623(4)
O19_4 O 0.0467(4) 0.9720(7) 0.9831(9)
C82_4 C 0.3318(4) 0.9977(5) 0.6763(6)
H44_4 H 0.3545 0.9866 0.6171
C87_4 C 0.3315(4) 0.9596(5) 0.6964(7)
O23_4 O 0.3421(3) 0.9332(3) 0.6728(4)
O24_4 O 0.3219(3) 0.9542(3) 0.7372(4)
Ce7_4 Ce 0.33065(2) 0.61522(3) 0.23585(3)
Ce12_5 Ce 0.0000 0.94490(14) 0.9706(2)
O34_4 O 0.3478(4) 0.8243(4) 0.7768(5)
H46_4 H 0.381384 0.860147 0.554331
H47_4 H 0.416301 0.881285 0.555414
H48_4 H 0.411723 0.834846 0.57607
H51_4 H 0.423384 0.905443 0.666877
H52_4 H 0.423139 0.922638 0.608566
H53_4 H 0.39317 0.931513 0.646131
H54_4 H 0.382496 0.836941 0.680806
H55_4 H 0.42482 0.812334 0.709243
H56_4 H 0.444797 0.797828 0.759232
H57_4 H 0.406208 0.797035 0.760218
H60_4 H 0.38807 0.873092 0.721752
H61_4 H 0.438555 0.869933 0.83083
H62_4 H 0.464107 0.841129 0.801347
H63_4 H 0.458346 0.88781 0.782384
Ce3_6 Ce 1.0000 0.05510(14) 0.0294(2)
O29_6 O 0.9652(9) 0.0808(11) 0.0975(15)
O30_6 O 0.9625(15) 0.1110(17) 0.0156(16)
O41_6 O 0.9533(4) 0.0280(7) 0.0169(9)
H67_3 H 0.944 0.105391 0.0319645
O42_6 O 1.0000 0.0173(13) 0.9400(14)
H66_3 H 0.958755 0.113831 0.981602
O11_6 O 1.0000 0.9827(13) 0.0600(14)
Ce12_6 Ce 1.0000 0.94490(14) 0.9706(2)
H58_4 H 0.0465002 0.891585 0.0157728
O15_7 O 0.0348(9) 0.9192(11) 0.9025(15)
O16_7 O 0.0375(15) 0.8890(17) 0.9844(16)
H59_4 H 0.0270697 0.864796 0.982488
H66_4 H 0.958755 0.886169 0.0183983
O29_7 O 0.9652(9) 0.9192(11) 0.9025(15)
O30_7 O 0.9625(15) 0.8890(17) 0.9844(16)
O41_7 O 0.9533(4) 0.9720(7) 0.9831(9)
H67_4 H 0.944 0.894609 0.968036
O29_8 O 0.0348(9) 0.5808(11) 0.4025(15)
O30_8 O 0.0375(15) 0.6110(17) 0.4844(16)
O41_8 O 0.0467(4) 0.5280(7) 0.4831(9)
O15_8 O 0.9652(9) 0.5808(11) 0.4025(15)
O16_8 O 0.9625(15) 0.6110(17) 0.4844(16)
C22_5 C 0.8318(4) 0.0023(5) 0.1763(6)
H14_5 H 0.8545 0.0134 0.1171
C27_5 C 0.8315(4) 0.0404(5) 0.1964(7)
O3_5 O 0.8421(3) 0.0668(3) 0.1728(4)
O4_5 O 0.8219(3) 0.0458(3) 0.2372(4)
C67_5 C 0.7989(5) 0.1408(4) 0.0077(6)
C68_5 C 0.7759(5) 0.1628(6) 0.0231(6)
H34_5 H 0.7655 0.1771 0.0017
C69_5 C 0.7681(5) 0.1637(5) 0.0707(6)
H35_5 H 0.7525 0.1782 0.0803
C70_5 C 0.7833(5) 0.1436(5) 0.1028(5)
C71_5 C 0.8051(5) 0.1211(5) 0.0888(6)
H36_5 H 0.8144 0.1060 0.1106
C72_5 C 0.8140(4) 0.1200(4) 0.0420(6)
H37_5 H 0.8299 0.1056 0.0335
C85_5 C 0.7752(5) 0.1462(5) 0.1527(6)
C88_5 C 0.8766(10) 0.1443(16) 0.1524(19)
C89_5 C 0.9098(13) 0.0887(12) 0.1366(18)
C90_5 C 0.9017(14) 0.1377(15) 0.0736(14)
C91_5 C 0.9006(14) 0.1246(17) 0.2539(19)
C92_5 C 0.9480(13) 0.1369(15) 0.297(3)
C93_5 C 0.9252(11) 0.1881(9) 0.2473(18)
N4_5 N 0.8959(13) 0.1234(12) 0.1207(14)
N5_5 N 0.9249(10) 0.1499(10) 0.265(2)
O21_3 O 0.7887(3) 0.1290(3) 0.1850(4)
O22_3 O 0.7532(3) 0.1654(4) 0.1630(4)
O27_5 O 0.8551(3) 0.1582(4) 0.1735(4)
O28_5 O 0.8839(3) 0.0979(3) 0.2623(4)
O38 O 0.7791(3) 0.1003(3) 0.2773(4)
O40 O 0.8194(3) 0.0989(4) 0.3202(4)
H68_5 H 0.938555 0.130067 0.33083
H69_5 H 0.964107 0.158871 0.301347
H70_5 H 0.958346 0.11219 0.282384
H71_5 H 0.881384 0.139853 0.0543306
H72_5 H 0.916301 0.118715 0.0554144
H73_5 H 0.911723 0.165154 0.0760704
H74_5 H 0.92482 0.187666 0.209243
H75_5 H 0.944797 0.202172 0.259232
H76_5 H 0.906208 0.202965 0.260218
H77_5 H 0.88807 0.126908 0.221752
H78_5 H 0.923384 0.0945565 0.166877
H79_5 H 0.923139 0.0773622 0.108566
H80_5 H 0.89317 0.0684868 0.146131
H81_5 H 0.882496 0.163059 0.180806
C35_10 C 0.7448(6) 0.0000 0.5000
H20_10 H 0.7650 0.0000 0.5000
C37_10 C 0.6853(7) 0.0000 0.5000
C38_10 C 0.6534(8) 0.0000 0.5000
C41_10 C 0.5925(8) 0.0000 0.5000
C42_10 C 0.5594(10) 0.0000 0.5000
C50_5 C 0.7764(5) 0.0737(5) 0.3539(6)
C51_5 C 0.7498(5) 0.0585(5) 0.3461(5)
H24_5 H 0.7416 0.0604 0.3165
C52_5 C 0.7342(4) 0.0399(4) 0.3816(6)
H25_5 H 0.7162 0.0292 0.3756
C53_5 C 0.7465(5) 0.0381(5) 0.4253(6)
C54_5 C 0.7734(5) 0.0538(6) 0.4333(6)
H26_5 H 0.7816 0.0520 0.4629
C55_5 C 0.7883(4) 0.0718(5) 0.3988(7)
H27_5 H 0.8062 0.0827 0.4050
C56_5 C 0.7296(5) 0.0184(4) 0.4641(5)
C57_5 C 0.7005(5) 0.0180(4) 0.4655(5)
H28_5 H 0.6902 0.0305 0.4423
C58_5 C 0.6377(5) 0.0293(6) 0.4820(6)
H29_5 H 0.6476 0.0495 0.4693
C59_5 C 0.6091(7) 0.0297(6) 0.4821(7)
H30_5 H 0.5996 0.0504 0.4699
C60_5 C 0.7935(6) 0.0927(4) 0.3163(7)
C61_5 C 0.8072(4) 0.1400(4) 0.9583(5)
C62_5 C 0.8077(4) 0.1720(5) 0.9322(6)
H31_5 H 0.8032 0.1946 0.9464
C63_5 C 0.8151(4) 0.1715(5) 0.8845(5)
C64_5 C 0.8224(5) 0.1376(5) 0.8637(6)
H32_5 H 0.8275 0.1368 0.8323
C65_5 C 0.8220(4) 0.1050(4) 0.8901(6)
C66_5 C 0.8141(4) 0.1065(4) 0.9360(6)
H33_5 H 0.8133 0.0844 0.9530
C73_5 C 0.8168(5) 0.2079(5) 0.8573(5)
C74_5 C 0.7952(5) 0.2331(5) 0.8609(5)
H38_5 H 0.7791 0.2285 0.8795
C75_5 C 0.7978(5) 0.2667(5) 0.8358(6)
H39_5 H 0.7832 0.2844 0.8388
C76_5 C 0.8209(5) 0.2744(5) 0.8070(6)
C77_5 C 0.8422(5) 0.2487(6) 0.8046(6)
H40_5 H 0.8587 0.2535 0.7868
C78_5 C 0.8397(5) 0.2149(5) 0.8284(7)
H41_5 H 0.8540 0.1968 0.8245
C79_5 C 0.8273(4) 0.0677(5) 0.8670(6)
C80_5 C 0.8157(5) 0.0615(4) 0.8232(7)
H42_5 H 0.8061 0.0808 0.8080
C81_5 C 0.8181(5) 0.0264(5) 0.8004(6)
H43_5 H 0.8105 0.0228 0.7706
C83_5 C 0.8442(4) 0.0052(5) 0.8675(6)
C84_5 C 0.8413(4) 0.0397(5) 0.8880(5)
H45_5 H 0.8493 0.0437 0.9174
C86_5 C 0.8214(7) 0.3108(5) 0.7814(7)
C1_5 C 0.8072(4) 0.8600(4) 0.0417(5)
C2_5 C 0.8077(4) 0.8280(5) 0.0678(6)
H1_5 H 0.8032 0.8054 0.0536
C3_5 C 0.8151(4) 0.8285(5) 0.1155(5)
C4_5 C 0.8224(5) 0.8624(5) 0.1363(6)
H2_5 H 0.8275 0.8632 0.1677
C5_5 C 0.8220(4) 0.8950(4) 0.1099(6)
C6_5 C 0.8141(4) 0.8935(4) 0.0640(6)
H3_5 H 0.8133 0.9156 0.0470
C13_5 C 0.8168(5) 0.7921(5) 0.1427(5)
C14_5 C 0.7952(5) 0.7669(5) 0.1391(5)
H8_5 H 0.7791 0.7715 0.1205
C15_5 C 0.7978(5) 0.7333(5) 0.1642(6)
H9_5 H 0.7832 0.7156 0.1612
C16_5 C 0.8209(5) 0.7256(5) 0.1930(6)
C17_5 C 0.8422(5) 0.7513(6) 0.1954(6)
H10_5 H 0.8587 0.7465 0.2132
C18_5 C 0.8397(5) 0.7851(5) 0.1716(7)
H11_5 H 0.8540 0.8032 0.1755
C19_5 C 0.8273(4) 0.9323(5) 0.1330(6)
C20_5 C 0.8157(5) 0.9385(4) 0.1768(7)
H12_5 H 0.8061 0.9192 0.1920
C21_5 C 0.8181(5) 0.9736(5) 0.1996(6)
H13_5 H 0.8105 0.9772 0.2294
C23_5 C 0.8442(4) 0.9948(5) 0.1325(6)
C24_5 C 0.8413(4) 0.9603(5) 0.1120(5)
H15_5 H 0.8493 0.9563 0.0826
C26_5 C 0.8214(7) 0.6892(5) 0.2186(7)
C7_5 C 0.7989(5) 0.8592(4) 0.9923(6)
C8_5 C 0.7759(5) 0.8372(6) 0.9769(6)
H4_5 H 0.7655 0.8229 0.9983
C9_5 C 0.7681(5) 0.8363(5) 0.9293(6)
H5_5 H 0.7525 0.8218 0.9197
C10_5 C 0.7833(5) 0.8564(5) 0.8972(5)
C11_5 C 0.8051(5) 0.8789(5) 0.9112(6)
H6_5 H 0.8144 0.8940 0.8894
C12_5 C 0.8140(4) 0.8800(4) 0.9580(6)
H7_5 H 0.8299 0.8944 0.9665
C25_5 C 0.7752(5) 0.8538(5) 0.8473(6)
C28_5 C 0.7764(5) 0.9263(5) 0.6461(6)
C29_5 C 0.7498(5) 0.9415(5) 0.6539(5)
H16_5 H 0.7416 0.9396 0.6835
C30_5 C 0.7342(4) 0.9601(4) 0.6184(6)
H17_5 H 0.7162 0.9708 0.6244
C31_5 C 0.7465(5) 0.9619(5) 0.5747(6)
C32_5 C 0.7734(5) 0.9462(6) 0.5667(6)
H18_5 H 0.7816 0.9480 0.5371
C33_5 C 0.7883(4) 0.9282(5) 0.6012(7)
H19_5 H 0.8062 0.9173 0.5950
C34_5 C 0.7296(5) 0.9816(4) 0.5359(5)
C35_11 C 0.7448(6) 1.0000 0.5000
H20_11 H 0.7650 1.0000 0.5000
C36_5 C 0.7005(5) 0.9820(4) 0.5345(5)
H21_5 H 0.6902 0.9695 0.5577
C37_11 C 0.6853(7) 1.0000 0.5000
C38_11 C 0.6534(8) 1.0000 0.5000
C39_5 C 0.6377(5) 0.9707(6) 0.5180(6)
H22_5 H 0.6476 0.9505 0.5307
C40_5 C 0.6091(7) 0.9703(6) 0.5179(7)
H23_5 H 0.5996 0.9496 0.5301
C41_11 C 0.5925(8) 1.0000 0.5000
C42_11 C 0.5594(10) 1.0000 0.5000
C43_5 C 0.7935(6) 0.9073(4) 0.6837(7)
C44_5 C 0.8766(10) 0.8557(16) 0.8476(19)
C45_5 C 0.9098(13) 0.9113(12) 0.8634(18)
C46_5 C 0.9017(14) 0.8623(15) 0.9264(14)
C47_5 C 0.9006(14) 0.8754(17) 0.7461(19)
C48_5 C 0.9480(13) 0.8631(15) 0.703(3)
C49_5 C 0.9252(11) 0.8119(9) 0.7527(18)
N1_5 N 0.8959(13) 0.8766(12) 0.8793(14)
N2_5 N 0.9249(10) 0.8501(10) 0.735(2)
N3_5 N 0.7500 0.7445(6) 0.7500
O1_3 O 0.7887(3) 0.8710(3) 0.8150(4)
O2_3 O 0.7532(3) 0.8346(4) 0.8370(4)
O7_3 O 0.7791(3) 0.8997(3) 0.7227(4)
O8_5 O 0.8194(3) 0.9011(4) 0.6798(4)
O10_5 O 0.7500 0.7778(5) 0.7500
O12_5 O 0.8551(3) 0.8418(4) 0.8265(4)
O13_5 O 0.8839(3) 0.9021(3) 0.7377(4)
O14_5 O 0.7690(5) 0.7245(6) 0.7632(13)
O20_5 O 0.7310(5) 0.7245(6) 0.7368(13)
C82_5 C 0.8318(4) 0.9977(5) 0.8237(6)
H44_5 H 0.8545 0.9866 0.8829
C87_5 C 0.8315(4) 0.9596(5) 0.8036(7)
O23_5 O 0.8421(3) 0.9332(3) 0.8272(4)
O24_5 O 0.8219(3) 0.9542(3) 0.7628(4)
O31_5 O 0.7113(3) 0.8710(3) 0.6850(4)
O32_5 O 0.7468(3) 0.8346(4) 0.6630(4)
O39_5 O 0.7209(3) 0.8997(3) 0.7773(4)
H46_5 H 0.881384 0.860147 0.945669
H47_5 H 0.916301 0.881285 0.944586
H48_5 H 0.911723 0.834846 0.92393
H51_5 H 0.923384 0.905443 0.833123
H52_5 H 0.923139 0.922638 0.891434
H53_5 H 0.89317 0.931513 0.853869
H54_5 H 0.882496 0.836941 0.819194
H55_5 H 0.92482 0.812334 0.790757
H56_5 H 0.944797 0.797828 0.740768
H57_5 H 0.906208 0.797035 0.739782
H60_5 H 0.88807 0.873092 0.778248
H61_5 H 0.938555 0.869933 0.66917
H62_5 H 0.964107 0.841129 0.698653
H63_5 H 0.958346 0.88781 0.717616
C1_6 C 0.1928(4) 0.6400(4) 0.5417(5)
C2_6 C 0.1923(4) 0.6720(5) 0.5678(6)
H1_6 H 0.1968 0.6946 0.5536
C3_6 C 0.1849(4) 0.6715(5) 0.6155(5)
C4_6 C 0.1776(5) 0.6376(5) 0.6363(6)
H2_6 H 0.1725 0.6368 0.6677
C5_6 C 0.1780(4) 0.6050(4) 0.6099(6)
C6_6 C 0.1859(4) 0.6065(4) 0.5640(6)
H3_6 H 0.1867 0.5844 0.5470
C7_6 C 0.2011(5) 0.6408(4) 0.4923(6)
C8_6 C 0.2241(5) 0.6628(6) 0.4769(6)
H4_6 H 0.2345 0.6771 0.4983
C9_6 C 0.2319(5) 0.6637(5) 0.4293(6)
H5_6 H 0.2475 0.6782 0.4197
C10_6 C 0.2167(5) 0.6436(5) 0.3972(5)
C11_6 C 0.1949(5) 0.6211(5) 0.4112(6)
H6_6 H 0.1856 0.6060 0.3894
C12_6 C 0.1860(4) 0.6200(4) 0.4580(6)
H7_6 H 0.1701 0.6056 0.4665
C13_6 C 0.1832(5) 0.7079(5) 0.6427(5)
C14_6 C 0.2048(5) 0.7331(5) 0.6391(5)
H8_6 H 0.2209 0.7285 0.6205
C15_6 C 0.2022(5) 0.7667(5) 0.6642(6)
H9_6 H 0.2168 0.7844 0.6612
C16_6 C 0.1791(5) 0.7744(5) 0.6930(6)
C17_6 C 0.1578(5) 0.7487(6) 0.6954(6)
H10_6 H 0.1413 0.7535 0.7132
C18_6 C 0.1603(5) 0.7149(5) 0.6716(7)
H11_6 H 0.1460 0.6968 0.6755
C19_6 C 0.1727(4) 0.5677(5) 0.6330(6)
C20_6 C 0.1843(5) 0.5615(4) 0.6768(7)
H12_6 H 0.1939 0.5808 0.6920
C21_6 C 0.1819(5) 0.5264(5) 0.6996(6)
H13_6 H 0.1895 0.5228 0.7294
C22_6 C 0.1682(4) 0.4977(5) 0.6763(6)
C23_6 C 0.1558(4) 0.5052(5) 0.6325(6)
H14_6 H 0.1455 0.4866 0.6171
C24_6 C 0.1587(4) 0.5397(5) 0.6120(5)
H15_6 H 0.1507 0.5437 0.5826
C25_6 C 0.2248(5) 0.6462(5) 0.3473(6)
C26_6 C 0.1786(7) 0.8108(5) 0.7186(7)
C27_6 C 0.1685(4) 0.4596(5) 0.6964(7)
C28_6 C 0.2236(5) 0.5737(5) 0.1461(6)
C29_6 C 0.2502(5) 0.5585(5) 0.1539(5)
H16_6 H 0.2584 0.5604 0.1835
C30_6 C 0.2658(4) 0.5399(4) 0.1184(6)
H17_6 H 0.2838 0.5292 0.1244
C31_6 C 0.2535(5) 0.5381(5) 0.0747(6)
C32_6 C 0.2266(5) 0.5538(6) 0.0667(6)
H18_6 H 0.2184 0.5520 0.0371
C33_6 C 0.2117(4) 0.5718(5) 0.1012(7)
H19_6 H 0.1938 0.5827 0.0950
C34_6 C 0.2704(5) 0.5184(4) 0.0359(5)
C35_12 C 0.2552(6) 0.5000 0.0000
H20_12 H 0.2350 0.5000 0.0000
C36_6 C 0.2995(5) 0.5180(4) 0.0345(5)
H21_6 H 0.3098 0.5305 0.0577
C37_12 C 0.3147(7) 0.5000 0.0000
C38_12 C 0.3466(8) 0.5000 0.0000
C39_6 C 0.3623(5) 0.5293(6) 0.0180(6)
H22_6 H 0.3524 0.5495 0.0307
C40_6 C 0.3909(7) 0.5297(6) 0.0179(7)
H23_6 H 0.4004 0.5504 0.0301
C41_12 C 0.4075(8) 0.5000 0.0000
C42_12 C 0.4406(10) 0.5000 0.0000
C43_6 C 0.2065(6) 0.5927(4) 0.1837(7)
C44_6 C 0.1234(10) 0.6443(16) 0.3476(19)
C45_6 C 0.0902(13) 0.5887(12) 0.3634(18)
C46_6 C 0.0983(14) 0.6377(15) 0.4264(14)
C47_6 C 0.0994(14) 0.6246(17) 0.2461(19)
C48_6 C 0.0520(13) 0.6369(15) 0.203(3)
C49_6 C 0.0748(11) 0.6881(9) 0.2527(18)
N1_6 N 0.1041(13) 0.6234(12) 0.3793(14)
N2_6 N 0.0751(10) 0.6499(10) 0.235(2)
N3_6 N 0.2500 0.7555(6) 0.2500
O1_4 O 0.2113(3) 0.6290(3) 0.3150(4)
O2_4 O 0.2468(3) 0.6654(4) 0.3370(4)
O3_6 O 0.1579(3) 0.4332(3) 0.6728(4)
O4_6 O 0.1781(3) 0.4542(3) 0.7372(4)
O7_4 O 0.2209(3) 0.6003(3) 0.2227(4)
O8_6 O 0.1806(3) 0.5989(4) 0.1798(4)
O10_6 O 0.2500 0.7222(5) 0.2500
O12_6 O 0.1449(3) 0.6582(4) 0.3265(4)
O13_6 O 0.1161(3) 0.5979(3) 0.2377(4)
O14_6 O 0.2310(5) 0.7755(6) 0.2632(13)
O20_6 O 0.2690(5) 0.7755(6) 0.2368(13)
C61_6 C 0.1928(4) 0.3600(4) 0.4583(5)
C62_6 C 0.1923(4) 0.3280(5) 0.4322(6)
H31_6 H 0.1968 0.3054 0.4464
C63_6 C 0.1849(4) 0.3285(5) 0.3845(5)
C64_6 C 0.1776(5) 0.3624(5) 0.3637(6)
H32_6 H 0.1725 0.3632 0.3323
C65_6 C 0.1780(4) 0.3950(4) 0.3901(6)
C66_6 C 0.1859(4) 0.3935(4) 0.4360(6)
H33_6 H 0.1867 0.4156 0.4530
C67_6 C 0.2011(5) 0.3592(4) 0.5077(6)
C68_6 C 0.2241(5) 0.3372(6) 0.5231(6)
H34_6 H 0.2345 0.3229 0.5017
C69_6 C 0.2319(5) 0.3363(5) 0.5707(6)
H35_6 H 0.2475 0.3218 0.5803
C70_6 C 0.2167(5) 0.3564(5) 0.6028(5)
C71_6 C 0.1949(5) 0.3789(5) 0.5888(6)
H36_6 H 0.1856 0.3940 0.6106
C72_6 C 0.1860(4) 0.3800(4) 0.5420(6)
H37_6 H 0.1701 0.3944 0.5335
C73_6 C 0.1832(5) 0.2921(5) 0.3573(5)
C74_6 C 0.2048(5) 0.2669(5) 0.3609(5)
H38_6 H 0.2209 0.2715 0.3795
C75_6 C 0.2022(5) 0.2333(5) 0.3358(6)
H39_6 H 0.2168 0.2156 0.3388
C76_6 C 0.1791(5) 0.2256(5) 0.3070(6)
C77_6 C 0.1578(5) 0.2513(6) 0.3046(6)
H40_6 H 0.1413 0.2465 0.2868
C78_6 C 0.1603(5) 0.2851(5) 0.3284(7)
H41_6 H 0.1460 0.3032 0.3245
C79_6 C 0.1727(4) 0.4323(5) 0.3670(6)
C80_6 C 0.1843(5) 0.4385(4) 0.3232(7)
H42_6 H 0.1939 0.4192 0.3080
C81_6 C 0.1819(5) 0.4736(5) 0.3004(6)
H43_6 H 0.1895 0.4772 0.2706
C82_6 C 0.1682(4) 0.5023(5) 0.3237(6)
C83_6 C 0.1558(4) 0.4948(5) 0.3675(6)
H44_6 H 0.1455 0.5134 0.3829
C84_6 C 0.1587(4) 0.4603(5) 0.3880(5)
H45_6 H 0.1507 0.4563 0.4174
C85_6 C 0.2248(5) 0.3538(5) 0.6527(6)
C86_6 C 0.1786(7) 0.1892(5) 0.2814(7)
C87_6 C 0.1685(4) 0.5404(5) 0.3036(7)
C88_6 C 0.1234(10) 0.3557(16) 0.6524(19)
C89_6 C 0.0902(13) 0.4113(12) 0.6366(18)
C90_6 C 0.0983(14) 0.3623(15) 0.5736(14)
C91_6 C 0.0994(14) 0.3754(17) 0.7539(19)
C92_6 C 0.0520(13) 0.3631(15) 0.797(3)
C93_6 C 0.0748(11) 0.3119(9) 0.7473(18)
N4_6 N 0.1041(13) 0.3766(12) 0.6207(14)
N5_6 N 0.0751(10) 0.3501(10) 0.765(2)
O21_4 O 0.2113(3) 0.3710(3) 0.6850(4)
O22_4 O 0.2468(3) 0.3346(4) 0.6630(4)
O23_6 O 0.1579(3) 0.5668(3) 0.3272(4)
O24_6 O 0.1781(3) 0.5458(3) 0.2628(4)
O27_6 O 0.1449(3) 0.3418(4) 0.6735(4)
O28_6 O 0.1161(3) 0.4021(3) 0.7623(4)
O31_6 O 0.2887(3) 0.6290(3) 0.1850(4)
O32_6 O 0.2532(3) 0.6654(4) 0.1630(4)
O38_2 O 0.2209(3) 0.3997(3) 0.7773(4)
O39_6 O 0.2791(3) 0.6003(3) 0.2773(4)
O40_2 O 0.1806(3) 0.4011(4) 0.8202(4)
H46_6 H 0.118616 0.639853 0.445669
H47_6 H 0.0836995 0.618715 0.444586
H48_6 H 0.0882766 0.665154 0.42393
H51_6 H 0.0766165 0.594557 0.333123
H52_6 H 0.0768609 0.577362 0.391434
H53_6 H 0.10683 0.568487 0.353869
H54_6 H 0.117504 0.663059 0.319194
H55_6 H 0.0751804 0.687666 0.290757
H56_6 H 0.0552033 0.702172 0.240768
H57_6 H 0.0937924 0.702965 0.239782
H58_5 H 0.4535 0.391585 0.0157728
H60_6 H 0.11193 0.626908 0.278248
H61_6 H 0.0614449 0.630067 0.16917
H62_6 H 0.0358929 0.658871 0.198653
H63_6 H 0.0416545 0.61219 0.217616
H66_5 H 0.541245 0.386169 0.0183983
H68_6 H 0.0614449 0.369933 0.83083
H69_6 H 0.0358929 0.341129 0.801347
H70_6 H 0.0416545 0.38781 0.782384
H71_6 H 0.118616 0.360147 0.554331
H72_6 H 0.0836995 0.381285 0.555414
H73_6 H 0.0882766 0.334846 0.57607
H74_6 H 0.0751804 0.312334 0.709243
H75_6 H 0.0552033 0.297828 0.759232
H76_6 H 0.0937924 0.297035 0.760218
H77_6 H 0.11193 0.373092 0.721752
H78_6 H 0.0766165 0.405443 0.666877
H79_6 H 0.0768609 0.422638 0.608566
H80_6 H 0.10683 0.431513 0.646131
H81_6 H 0.117504 0.336941 0.680806
C35_13 C 0.2552(6) 0.5000 1.0000
H20_13 H 0.2350 0.5000 1.0000
C37_13 C 0.3147(7) 0.5000 1.0000
C38_13 C 0.3466(8) 0.5000 1.0000
C41_13 C 0.4075(8) 0.5000 1.0000
C42_13 C 0.4406(10) 0.5000 1.0000
C50_6 C 0.2236(5) 0.4263(5) 0.8539(6)
C51_6 C 0.2502(5) 0.4415(5) 0.8461(5)
H24_6 H 0.2584 0.4396 0.8165
C52_6 C 0.2658(4) 0.4601(4) 0.8816(6)
H25_6 H 0.2838 0.4708 0.8756
C53_6 C 0.2535(5) 0.4619(5) 0.9253(6)
C54_6 C 0.2266(5) 0.4462(6) 0.9333(6)
H26_6 H 0.2184 0.4480 0.9629
C55_6 C 0.2117(4) 0.4282(5) 0.8988(7)
H27_6 H 0.1938 0.4173 0.9050
C56_6 C 0.2704(5) 0.4816(4) 0.9641(5)
C57_6 C 0.2995(5) 0.4820(4) 0.9655(5)
H28_6 H 0.3098 0.4695 0.9423
C58_6 C 0.3623(5) 0.4707(6) 0.9820(6)
H29_6 H 0.3524 0.4505 0.9693
C59_6 C 0.3909(7) 0.4703(6) 0.9821(7)
H30_6 H 0.4004 0.4496 0.9699
C60_6 C 0.2065(6) 0.4073(4) 0.8163(7)
H59_5 H 0.47293 0.364796 0.982488
H67_5 H 0.556 0.394609 0.968036
H59_6 H 0.47293 0.635204 0.0175124
H67_6 H 0.556 0.605391 0.0319645
N3_7 N 0.2500 0.2445(6) 0.7500
O10_7 O 0.2500 0.2778(5) 0.7500
O14_7 O 0.2310(5) 0.2245(6) 0.7368(13)
O20_7 O 0.2690(5) 0.2245(6) 0.7632(13)
O31_7 O 0.2887(3) 0.3710(3) 0.8150(4)
O32_7 O 0.2532(3) 0.3346(4) 0.8370(4)
O39_7 O 0.2791(3) 0.3997(3) 0.7227(4)
H58_6 H 0.4535 0.608415 0.984227
H66_6 H 0.541245 0.613831 0.981602
N3_8 N 0.7500 0.2555(6) 0.2500
O10_8 O 0.7500 0.2222(5) 0.2500
O14_8 O 0.7690(5) 0.2755(6) 0.2368(13)
O20_8 O 0.7310(5) 0.2755(6) 0.2632(13)
O31_8 O 0.7113(3) 0.1290(3) 0.3150(4)
O32_8 O 0.7468(3) 0.1654(4) 0.3370(4)
O39_8 O 0.7209(3) 0.1003(3) 0.2227(4)
C1_7 C 0.3072(4) 0.3600(4) 0.0417(5)
C2_7 C 0.3077(4) 0.3280(5) 0.0678(6)
H1_7 H 0.3032 0.3054 0.0536
C3_7 C 0.3151(4) 0.3285(5) 0.1155(5)
C4_7 C 0.3224(5) 0.3624(5) 0.1363(6)
H2_7 H 0.3275 0.3632 0.1677
C5_7 C 0.3220(4) 0.3950(4) 0.1099(6)
C6_7 C 0.3141(4) 0.3935(4) 0.0640(6)
H3_7 H 0.3133 0.4156 0.0470
C13_7 C 0.3168(5) 0.2921(5) 0.1427(5)
C14_7 C 0.2952(5) 0.2669(5) 0.1391(5)
H8_7 H 0.2791 0.2715 0.1205
C15_7 C 0.2978(5) 0.2333(5) 0.1642(6)
H9_7 H 0.2832 0.2156 0.1612
C16_7 C 0.3209(5) 0.2256(5) 0.1930(6)
C17_7 C 0.3422(5) 0.2513(6) 0.1954(6)
H10_7 H 0.3587 0.2465 0.2132
C18_7 C 0.3397(5) 0.2851(5) 0.1716(7)
H11_7 H 0.3540 0.3032 0.1755
C19_7 C 0.3273(4) 0.4323(5) 0.1330(6)
C20_7 C 0.3157(5) 0.4385(4) 0.1768(7)
H12_7 H 0.3061 0.4192 0.1920
C21_7 C 0.3181(5) 0.4736(5) 0.1996(6)
H13_7 H 0.3105 0.4772 0.2294
C22_7 C 0.3318(4) 0.5023(5) 0.1763(6)
C23_7 C 0.3442(4) 0.4948(5) 0.1325(6)
H14_7 H 0.3545 0.5134 0.1171
C24_7 C 0.3413(4) 0.4603(5) 0.1120(5)
H15_7 H 0.3493 0.4563 0.0826
C26_7 C 0.3214(7) 0.1892(5) 0.2186(7)
C27_7 C 0.3315(4) 0.5404(5) 0.1964(7)
O3_7 O 0.3421(3) 0.5668(3) 0.1728(4)
O4_7 O 0.3219(3) 0.5458(3) 0.2372(4)
C67_7 C 0.2989(5) 0.6408(4) 0.0077(6)
C68_7 C 0.2759(5) 0.6628(6) 0.0231(6)
H34_7 H 0.2655 0.6771 0.0017
C69_7 C 0.2681(5) 0.6637(5) 0.0707(6)
H35_7 H 0.2525 0.6782 0.0803
C70_7 C 0.2833(5) 0.6436(5) 0.1028(5)
C71_7 C 0.3051(5) 0.6211(5) 0.0888(6)
H36_7 H 0.3144 0.6060 0.1106
C72_7 C 0.3140(4) 0.6200(4) 0.0420(6)
H37_7 H 0.3299 0.6056 0.0335
C85_7 C 0.2752(5) 0.6462(5) 0.1527(6)
C88_7 C 0.3766(10) 0.6443(16) 0.1524(19)
C89_7 C 0.4098(13) 0.5887(12) 0.1366(18)
C90_7 C 0.4017(14) 0.6377(15) 0.0736(14)
C91_7 C 0.4006(14) 0.6246(17) 0.2539(19)
C92_7 C 0.4480(13) 0.6369(15) 0.297(3)
C93_7 C 0.4252(11) 0.6881(9) 0.2473(18)
N4_7 N 0.3959(13) 0.6234(12) 0.1207(14)
N5_7 N 0.4249(10) 0.6499(10) 0.265(2)
O27_7 O 0.3551(3) 0.6582(4) 0.1735(4)
O28_7 O 0.3839(3) 0.5979(3) 0.2623(4)
O40_3 O 0.3194(3) 0.5989(4) 0.3202(4)
H68_7 H 0.438555 0.630067 0.33083
H69_7 H 0.464107 0.658871 0.301347
H70_7 H 0.458346 0.61219 0.282384
H71_7 H 0.381384 0.639853 0.0543306
H72_7 H 0.416301 0.618715 0.0554144
H73_7 H 0.411723 0.665154 0.0760704
H74_7 H 0.42482 0.687666 0.209243
H75_7 H 0.444797 0.702172 0.259232
H76_7 H 0.406208 0.702965 0.260218
H77_7 H 0.38807 0.626908 0.221752
H78_7 H 0.423384 0.594557 0.166877
H79_7 H 0.423139 0.577362 0.108566
H80_7 H 0.39317 0.568487 0.146131
H81_7 H 0.382496 0.663059 0.180806
C7_7 C 0.2989(5) 0.3592(4) 0.9923(6)
C8_7 C 0.2759(5) 0.3372(6) 0.9769(6)
H4_7 H 0.2655 0.3229 0.9983
C9_7 C 0.2681(5) 0.3363(5) 0.9293(6)
H5_7 H 0.2525 0.3218 0.9197
C10_7 C 0.2833(5) 0.3564(5) 0.8972(5)
C11_7 C 0.3051(5) 0.3789(5) 0.9112(6)
H6_7 H 0.3144 0.3940 0.8894
C12_7 C 0.3140(4) 0.3800(4) 0.9580(6)
H7_7 H 0.3299 0.3944 0.9665
C25_7 C 0.2752(5) 0.3538(5) 0.8473(6)
C28_7 C 0.2764(5) 0.4263(5) 0.6461(6)
C29_7 C 0.2498(5) 0.4415(5) 0.6539(5)
H16_7 H 0.2416 0.4396 0.6835
C30_7 C 0.2342(4) 0.4601(4) 0.6184(6)
H17_7 H 0.2162 0.4708 0.6244
C31_7 C 0.2465(5) 0.4619(5) 0.5747(6)
C32_7 C 0.2734(5) 0.4462(6) 0.5667(6)
H18_7 H 0.2816 0.4480 0.5371
C33_7 C 0.2883(4) 0.4282(5) 0.6012(7)
H19_7 H 0.3062 0.4173 0.5950
C34_7 C 0.2296(5) 0.4816(4) 0.5359(5)
C35_14 C 0.2448(6) 0.5000 0.5000
H20_14 H 0.2650 0.5000 0.5000
C36_7 C 0.2005(5) 0.4820(4) 0.5345(5)
H21_7 H 0.1902 0.4695 0.5577
C37_14 C 0.1853(7) 0.5000 0.5000
C38_14 C 0.1534(8) 0.5000 0.5000
C39_7 C 0.1377(5) 0.4707(6) 0.5180(6)
H22_7 H 0.1476 0.4505 0.5307
C40_7 C 0.1091(7) 0.4703(6) 0.5179(7)
H23_7 H 0.0996 0.4496 0.5301
C41_14 C 0.0925(8) 0.5000 0.5000
C42_14 C 0.0594(10) 0.5000 0.5000
C43_7 C 0.2935(6) 0.4073(4) 0.6837(7)
C44_7 C 0.3766(10) 0.3557(16) 0.8476(19)
C45_7 C 0.4098(13) 0.4113(12) 0.8634(18)
C46_7 C 0.4017(14) 0.3623(15) 0.9264(14)
C47_7 C 0.4006(14) 0.3754(17) 0.7461(19)
C48_7 C 0.4480(13) 0.3631(15) 0.703(3)
C49_7 C 0.4252(11) 0.3119(9) 0.7527(18)
N1_7 N 0.3959(13) 0.3766(12) 0.8793(14)
N2_7 N 0.4249(10) 0.3501(10) 0.735(2)
O8_7 O 0.3194(3) 0.4011(4) 0.6798(4)
O12_7 O 0.3551(3) 0.3418(4) 0.8265(4)
O13_7 O 0.3839(3) 0.4021(3) 0.7377(4)
C50_7 C 0.2764(5) 0.5737(5) 0.3539(6)
C51_7 C 0.2498(5) 0.5585(5) 0.3461(5)
H24_7 H 0.2416 0.5604 0.3165
C52_7 C 0.2342(4) 0.5399(4) 0.3816(6)
H25_7 H 0.2162 0.5292 0.3756
C53_7 C 0.2465(5) 0.5381(5) 0.4253(6)
C54_7 C 0.2734(5) 0.5538(6) 0.4333(6)
H26_7 H 0.2816 0.5520 0.4629
C55_7 C 0.2883(4) 0.5718(5) 0.3988(7)
H27_7 H 0.3062 0.5827 0.4050
C56_7 C 0.2296(5) 0.5184(4) 0.4641(5)
C57_7 C 0.2005(5) 0.5180(4) 0.4655(5)
H28_7 H 0.1902 0.5305 0.4423
C58_7 C 0.1377(5) 0.5293(6) 0.4820(6)
H29_7 H 0.1476 0.5495 0.4693
C59_7 C 0.1091(7) 0.5297(6) 0.4821(7)
H30_7 H 0.0996 0.5504 0.4699
C60_7 C 0.2935(6) 0.5927(4) 0.3163(7)
C61_7 C 0.3072(4) 0.6400(4) 0.9583(5)
C62_7 C 0.3077(4) 0.6720(5) 0.9322(6)
H31_7 H 0.3032 0.6946 0.9464
C63_7 C 0.3151(4) 0.6715(5) 0.8845(5)
C64_7 C 0.3224(5) 0.6376(5) 0.8637(6)
H32_7 H 0.3275 0.6368 0.8323
C65_7 C 0.3220(4) 0.6050(4) 0.8901(6)
C66_7 C 0.3141(4) 0.6065(4) 0.9360(6)
H33_7 H 0.3133 0.5844 0.9530
C73_7 C 0.3168(5) 0.7079(5) 0.8573(5)
C74_7 C 0.2952(5) 0.7331(5) 0.8609(5)
H38_7 H 0.2791 0.7285 0.8795
C75_7 C 0.2978(5) 0.7667(5) 0.8358(6)
H39_7 H 0.2832 0.7844 0.8388
C76_7 C 0.3209(5) 0.7744(5) 0.8070(6)
C77_7 C 0.3422(5) 0.7487(6) 0.8046(6)
H40_7 H 0.3587 0.7535 0.7868
C78_7 C 0.3397(5) 0.7149(5) 0.8284(7)
H41_7 H 0.3540 0.6968 0.8245
C79_7 C 0.3273(4) 0.5677(5) 0.8670(6)
C80_7 C 0.3157(5) 0.5615(4) 0.8232(7)
H42_7 H 0.3061 0.5808 0.8080
C81_7 C 0.3181(5) 0.5264(5) 0.8004(6)
H43_7 H 0.3105 0.5228 0.7706
C82_7 C 0.3318(4) 0.4977(5) 0.8237(6)
C83_7 C 0.3442(4) 0.5052(5) 0.8675(6)
H44_7 H 0.3545 0.4866 0.8829
C84_7 C 0.3413(4) 0.5397(5) 0.8880(5)
H45_7 H 0.3493 0.5437 0.9174
C86_7 C 0.3214(7) 0.8108(5) 0.7814(7)
C87_7 C 0.3315(4) 0.4596(5) 0.8036(7)
O23_7 O 0.3421(3) 0.4332(3) 0.8272(4)
O24_7 O 0.3219(3) 0.4542(3) 0.7628(4)
H46_7 H 0.381384 0.360147 0.945669
H47_7 H 0.416301 0.381285 0.944586
H48_7 H 0.411723 0.334846 0.92393
H51_7 H 0.423384 0.405443 0.833123
H52_7 H 0.423139 0.422638 0.891434
H53_7 H 0.39317 0.431513 0.853869
H54_7 H 0.382496 0.336941 0.819194
H55_7 H 0.42482 0.312334 0.790757
H56_7 H 0.444797 0.297828 0.740768
H57_7 H 0.406208 0.297035 0.739782
H60_7 H 0.38807 0.373092 0.778248
H61_7 H 0.438555 0.369933 0.66917
H62_7 H 0.464107 0.341129 0.698653
H63_7 H 0.458346 0.38781 0.717616
H66_7 H 0.0412445 0.886169 0.0183983
H67_7 H 0.0560003 0.894609 0.968036
C1_8 C 0.6928(4) 0.1400(4) 0.5417(5)
C2_8 C 0.6923(4) 0.1720(5) 0.5678(6)
H1_8 H 0.6968 0.1946 0.5536
C3_8 C 0.6849(4) 0.1715(5) 0.6155(5)
C4_8 C 0.6776(5) 0.1376(5) 0.6363(6)
H2_8 H 0.6725 0.1368 0.6677
C5_8 C 0.6780(4) 0.1050(4) 0.6099(6)
C6_8 C 0.6859(4) 0.1065(4) 0.5640(6)
H3_8 H 0.6867 0.0844 0.5470
C7_8 C 0.7011(5) 0.1408(4) 0.4923(6)
C8_8 C 0.7241(5) 0.1628(6) 0.4769(6)
H4_8 H 0.7345 0.1771 0.4983
C9_8 C 0.7319(5) 0.1637(5) 0.4293(6)
H5_8 H 0.7475 0.1782 0.4197
C10_8 C 0.7167(5) 0.1436(5) 0.3972(5)
C11_8 C 0.6949(5) 0.1211(5) 0.4112(6)
H6_8 H 0.6856 0.1060 0.3894
C12_8 C 0.6860(4) 0.1200(4) 0.4580(6)
H7_8 H 0.6701 0.1056 0.4665
C13_8 C 0.6832(5) 0.2079(5) 0.6427(5)
C14_8 C 0.7048(5) 0.2331(5) 0.6391(5)
H8_8 H 0.7209 0.2285 0.6205
C15_8 C 0.7022(5) 0.2667(5) 0.6642(6)
H9_8 H 0.7168 0.2844 0.6612
C16_8 C 0.6791(5) 0.2744(5) 0.6930(6)
C17_8 C 0.6578(5) 0.2487(6) 0.6954(6)
H10_8 H 0.6413 0.2535 0.7132
C18_8 C 0.6603(5) 0.2149(5) 0.6716(7)
H11_8 H 0.6460 0.1968 0.6755
C19_8 C 0.6727(4) 0.0677(5) 0.6330(6)
C20_8 C 0.6843(5) 0.0615(4) 0.6768(7)
H12_8 H 0.6939 0.0808 0.6920
C21_8 C 0.6819(5) 0.0264(5) 0.6996(6)
H13_8 H 0.6895 0.0228 0.7294
C23_8 C 0.6558(4) 0.0052(5) 0.6325(6)
C24_8 C 0.6587(4) 0.0397(5) 0.6120(5)
H15_8 H 0.6507 0.0437 0.5826
C25_8 C 0.7248(5) 0.1462(5) 0.3473(6)
C26_8 C 0.6786(7) 0.3108(5) 0.7186(7)
C28_8 C 0.7236(5) 0.0737(5) 0.1461(6)
C29_8 C 0.7502(5) 0.0585(5) 0.1539(5)
H16_8 H 0.7584 0.0604 0.1835
C30_8 C 0.7658(4) 0.0399(4) 0.1184(6)
H17_8 H 0.7838 0.0292 0.1244
C31_8 C 0.7535(5) 0.0381(5) 0.0747(6)
C32_8 C 0.7266(5) 0.0538(6) 0.0667(6)
H18_8 H 0.7184 0.0520 0.0371
C33_8 C 0.7117(4) 0.0718(5) 0.1012(7)
H19_8 H 0.6938 0.0827 0.0950
C34_8 C 0.7704(5) 0.0184(4) 0.0359(5)
C35_15 C 0.7552(6) 0.0000 0.0000
H20_15 H 0.7350 0.0000 0.0000
C36_8 C 0.7995(5) 0.0180(4) 0.0345(5)
H21_8 H 0.8098 0.0305 0.0577
C37_15 C 0.8147(7) 0.0000 0.0000
C38_15 C 0.8466(8) 0.0000 0.0000
C39_8 C 0.8623(5) 0.0293(6) 0.0180(6)
H22_8 H 0.8524 0.0495 0.0307
C40_8 C 0.8909(7) 0.0297(6) 0.0179(7)
H23_8 H 0.9004 0.0504 0.0301
C41_15 C 0.9075(8) 0.0000 0.0000
C42_15 C 0.9406(10) 0.0000 0.0000
C43_8 C 0.7065(6) 0.0927(4) 0.1837(7)
C44_8 C 0.6234(10) 0.1443(16) 0.3476(19)
C45_8 C 0.5902(13) 0.0887(12) 0.3634(18)
C46_8 C 0.5983(14) 0.1377(15) 0.4264(14)
C47_8 C 0.5994(14) 0.1246(17) 0.2461(19)
C48_8 C 0.5520(13) 0.1369(15) 0.203(3)
C49_8 C 0.5748(11) 0.1881(9) 0.2527(18)
N1_8 N 0.6041(13) 0.1234(12) 0.3793(14)
N2_8 N 0.5751(10) 0.1499(10) 0.235(2)
O8_8 O 0.6806(3) 0.0989(4) 0.1798(4)
O12_8 O 0.6449(3) 0.1582(4) 0.3265(4)
O13_8 O 0.6161(3) 0.0979(3) 0.2377(4)
C82_8 C 0.6682(4) 0.0023(5) 0.3237(6)
H44_8 H 0.6455 0.0134 0.3829
C87_8 C 0.6685(4) 0.0404(5) 0.3036(7)
O23_8 O 0.6579(3) 0.0668(3) 0.3272(4)
O24_8 O 0.6781(3) 0.0458(3) 0.2628(4)
H46_8 H 0.618616 0.139853 0.445669
H47_8 H 0.583699 0.118715 0.444586
H48_8 H 0.588277 0.165154 0.42393
H51_8 H 0.576616 0.0945565 0.333123
H52_8 H 0.576861 0.0773622 0.391434
H53_8 H 0.60683 0.0684868 0.353869
H54_8 H 0.617504 0.163059 0.319194
H55_8 H 0.57518 0.187666 0.290757
H56_8 H 0.555203 0.202172 0.240768
H57_8 H 0.593792 0.202965 0.239782
H60_8 H 0.61193 0.126908 0.278248
H61_8 H 0.561445 0.130067 0.16917
H62_8 H 0.535893 0.158871 0.198653
H63_8 H 0.541654 0.11219 0.217616
C35_16 C 0.7552(6) 0.0000 1.0000
H20_16 H 0.7350 0.0000 1.0000
C37_16 C 0.8147(7) 0.0000 1.0000
C38_16 C 0.8466(8) 0.0000 1.0000
C41_16 C 0.9075(8) 0.0000 1.0000
C42_16 C 0.9406(10) 0.0000 1.0000
C22_8 C 0.6682(4) 0.9977(5) 0.6763(6)
H14_8 H 0.6455 0.9866 0.6171
C27_8 C 0.6685(4) 0.9596(5) 0.6964(7)
C35_17 C 0.7552(6) 1.0000 0.0000
H20_17 H 0.7350 1.0000 0.0000
C37_17 C 0.8147(7) 1.0000 0.0000
C38_17 C 0.8466(8) 1.0000 0.0000
C41_17 C 0.9075(8) 1.0000 0.0000
C42_17 C 0.9406(10) 1.0000 0.0000
O3_8 O 0.6579(3) 0.9332(3) 0.6728(4)
O4_8 O 0.6781(3) 0.9542(3) 0.7372(4)
C61_8 C 0.6928(4) 0.8600(4) 0.4583(5)
C62_8 C 0.6923(4) 0.8280(5) 0.4322(6)
H31_8 H 0.6968 0.8054 0.4464
C63_8 C 0.6849(4) 0.8285(5) 0.3845(5)
C64_8 C 0.6776(5) 0.8624(5) 0.3637(6)
H32_8 H 0.6725 0.8632 0.3323
C65_8 C 0.6780(4) 0.8950(4) 0.3901(6)
C66_8 C 0.6859(4) 0.8935(4) 0.4360(6)
H33_8 H 0.6867 0.9156 0.4530
C67_8 C 0.7011(5) 0.8592(4) 0.5077(6)
C68_8 C 0.7241(5) 0.8372(6) 0.5231(6)
H34_8 H 0.7345 0.8229 0.5017
C69_8 C 0.7319(5) 0.8363(5) 0.5707(6)
H35_8 H 0.7475 0.8218 0.5803
C70_8 C 0.7167(5) 0.8564(5) 0.6028(5)
C71_8 C 0.6949(5) 0.8789(5) 0.5888(6)
H36_8 H 0.6856 0.8940 0.6106
C72_8 C 0.6860(4) 0.8800(4) 0.5420(6)
H37_8 H 0.6701 0.8944 0.5335
C73_8 C 0.6832(5) 0.7921(5) 0.3573(5)
C74_8 C 0.7048(5) 0.7669(5) 0.3609(5)
H38_8 H 0.7209 0.7715 0.3795
C75_8 C 0.7022(5) 0.7333(5) 0.3358(6)
H39_8 H 0.7168 0.7156 0.3388
C76_8 C 0.6791(5) 0.7256(5) 0.3070(6)
C77_8 C 0.6578(5) 0.7513(6) 0.3046(6)
H40_8 H 0.6413 0.7465 0.2868
C78_8 C 0.6603(5) 0.7851(5) 0.3284(7)
H41_8 H 0.6460 0.8032 0.3245
C79_8 C 0.6727(4) 0.9323(5) 0.3670(6)
C80_8 C 0.6843(5) 0.9385(4) 0.3232(7)
H42_8 H 0.6939 0.9192 0.3080
C81_8 C 0.6819(5) 0.9736(5) 0.3004(6)
H43_8 H 0.6895 0.9772 0.2706
C83_8 C 0.6558(4) 0.9948(5) 0.3675(6)
C84_8 C 0.6587(4) 0.9603(5) 0.3880(5)
H45_8 H 0.6507 0.9563 0.4174
C85_8 C 0.7248(5) 0.8538(5) 0.6527(6)
C86_8 C 0.6786(7) 0.6892(5) 0.2814(7)
C88_8 C 0.6234(10) 0.8557(16) 0.6524(19)
C89_8 C 0.5902(13) 0.9113(12) 0.6366(18)
C90_8 C 0.5983(14) 0.8623(15) 0.5736(14)
C91_8 C 0.5994(14) 0.8754(17) 0.7539(19)
C92_8 C 0.5520(13) 0.8631(15) 0.797(3)
C93_8 C 0.5748(11) 0.8119(9) 0.7473(18)
N4_8 N 0.6041(13) 0.8766(12) 0.6207(14)
N5_8 N 0.5751(10) 0.8501(10) 0.765(2)
O27_8 O 0.6449(3) 0.8418(4) 0.6735(4)
O28_8 O 0.6161(3) 0.9021(3) 0.7623(4)
O40_4 O 0.6806(3) 0.9011(4) 0.8202(4)
H58_7 H 0.9535 0.891585 0.0157728
H68_8 H 0.561445 0.869933 0.83083
H69_8 H 0.535893 0.841129 0.801347
H70_8 H 0.541654 0.88781 0.782384
H71_8 H 0.618616 0.860147 0.554331
H72_8 H 0.583699 0.881285 0.555414
H73_8 H 0.588277 0.834846 0.57607
H74_8 H 0.57518 0.812334 0.709243
H75_8 H 0.555203 0.797828 0.759232
H76_8 H 0.593792 0.797035 0.760218
H77_8 H 0.61193 0.873092 0.721752
H78_8 H 0.576616 0.905443 0.666877
H79_8 H 0.576861 0.922638 0.608566
H80_8 H 0.60683 0.931513 0.646131
H81_8 H 0.617504 0.836941 0.680806
C35_18 C 0.7552(6) 1.0000 1.0000
H20_18 H 0.7350 1.0000 1.0000
C37_18 C 0.8147(7) 1.0000 1.0000
C38_18 C 0.8466(8) 1.0000 1.0000
C41_18 C 0.9075(8) 1.0000 1.0000
C42_18 C 0.9406(10) 1.0000 1.0000
C50_8 C 0.7236(5) 0.9263(5) 0.8539(6)
C51_8 C 0.7502(5) 0.9415(5) 0.8461(5)
H24_8 H 0.7584 0.9396 0.8165
C52_8 C 0.7658(4) 0.9601(4) 0.8816(6)
H25_8 H 0.7838 0.9708 0.8756
C53_8 C 0.7535(5) 0.9619(5) 0.9253(6)
C54_8 C 0.7266(5) 0.9462(6) 0.9333(6)
H26_8 H 0.7184 0.9480 0.9629
C55_8 C 0.7117(4) 0.9282(5) 0.8988(7)
H27_8 H 0.6938 0.9173 0.9050
C56_8 C 0.7704(5) 0.9816(4) 0.9641(5)
C57_8 C 0.7995(5) 0.9820(4) 0.9655(5)
H28_8 H 0.8098 0.9695 0.9423
C58_8 C 0.8623(5) 0.9707(6) 0.9820(6)
H29_8 H 0.8524 0.9505 0.9693
C59_8 C 0.8909(7) 0.9703(6) 0.9821(7)
H30_8 H 0.9004 0.9496 0.9699
C60_8 C 0.7065(6) 0.9073(4) 0.8163(7)
H59_7 H 0.97293 0.864796 0.982488
H67_8 H 0.0560003 0.105391 0.0319645
H66_8 H 0.0412445 0.113831 0.981602
H59_8 H 0.97293 0.135204 0.0175124
H58_8 H 0.9535 0.108415 0.984227
N6 N 0.2500 0.0687(13) 0.7500
O43 O 0.2500 0.0350(12) 0.7500
O44 O 0.2328(9) 0.0856(11) 0.7257(16)
O45 O 0.2672(9) 0.0856(11) 0.7743(16)
N6_2 N 0.7500 0.4313(13) 0.2500
O43_2 O 0.7500 0.4650(12) 0.2500
O44_2 O 0.7672(9) 0.4144(11) 0.2257(16)
O45_2 O 0.7328(9) 0.4144(11) 0.2743(16)
N6_3 N 0.7500 0.5687(13) 0.7500
O43_3 O 0.7500 0.5350(12) 0.7500
O44_3 O 0.7672(9) 0.5856(11) 0.7743(16)
O45_3 O 0.7328(9) 0.5856(11) 0.7257(16)
N6_4 N 0.2500 0.9313(13) 0.2500
O43_4 O 0.2500 0.9650(12) 0.2500
O44_4 O 0.2328(9) 0.9144(11) 0.2743(16)
O45_4 O 0.2672(9) 0.9144(11) 0.2257(16)
N6_5 N 0.7500 0.9313(13) 0.2500
O43_5 O 0.7500 0.9650(12) 0.2500
O44_5 O 0.7672(9) 0.9144(11) 0.2743(16)
O45_5 O 0.7328(9) 0.9144(11) 0.2257(16)
N6_6 N 0.2500 0.5687(13) 0.7500
O43_6 O 0.2500 0.5350(12) 0.7500
O44_6 O 0.2328(9) 0.5856(11) 0.7743(16)
O45_6 O 0.2672(9) 0.5856(11) 0.7257(16)
N6_7 N 0.2500 0.4313(13) 0.2500
O43_7 O 0.2500 0.4650(12) 0.2500
O44_7 O 0.2328(9) 0.4144(11) 0.2257(16)
O45_7 O 0.2672(9) 0.4144(11) 0.2743(16)
N6_8 N 0.7500 0.0687(13) 0.7500
O43_8 O 0.7500 0.0350(12) 0.7500
O44_8 O 0.7672(9) 0.0856(11) 0.7257(16)
O45_8 O 0.7328(9) 0.0856(11) 0.7743(16)
loop_
_geom_bond_atom_site_label_1
_geom_bond_atom_site_label_2
_geom_bond_site_symmetry_1
_geom_bond_site_symmetry_2
Ce1 O1 1_555 1_555
Ce2 O1 1_555 1_555
C8 C7 1_555 1_555
H4 C8 1_555 1_555
C9 C8 1_555 1_555
H5 C9 1_555 1_555
C10 C9 1_555 1_555
C11 C10 1_555 1_555
H6 C11 1_555 1_555
C12 C7 1_555 1_555
H7 C12 1_555 1_555
C25 C10 1_555 1_555
C28 C29 1_555 1_555
C29 H16 1_555 1_555
C30 C29 1_555 1_555
H17 C30 1_555 1_555
C31 C30 1_555 1_555
C32 C31 1_555 1_555
H18 C32 1_555 1_555
C33 C28 1_555 1_555
H19 C33 1_555 1_555
C34 C31 1_555 1_555
C35 C34 1_555 1_555
H20 C35 1_555 1_555
C36 C34 1_555 1_555
H21 C36 1_555 1_555
C37 C36 1_555 1_555
C38 C37 1_555 1_555
C39 C38 1_555 1_555
H22 C39 1_555 1_555
C40 C39 1_555 1_555
H23 C40 1_555 1_555
C41 C40 1_555 1_555
C42 C41 1_555 1_555
C43 C28 1_555 1_555
C44 N1 1_555 1_555
C45 N1 1_555 1_555
C46 N1 1_555 1_555
C47 N2 1_555 1_555
C48 N2 1_555 1_555
C49 N2 1_555 1_555
N3 O10 1_555 1_555
O1 C25 1_555 1_555
O2 Ce2 1_555 1_555
O7 Ce1 1_555 1_555
O8 Ce1 1_555 1_555
O10 Ce2 1_555 1_555
O12 Ce1 1_555 1_555
O13 Ce1 1_555 1_555
O14 N3 1_555 1_555
O19 C42 1_555 1_555
O20 N3 1_555 1_555
C87 C82 1_555 1_555
O23 Ce1 1_555 1_555
O24 Ce1 1_555 1_555
Ce12 O11 1_555 1_555
O31 Ce2 1_555 1_555
O32 Ce2 1_555 1_555
O34 Ce1 1_555 1_555
O36 Ce1 1_555 1_555
O37 Ce2 1_555 1_555
O39 Ce2 1_555 1_555
Ce2 O7 1_555 1_555
Ce2 O36 1_555 1_555
C11 C12 1_555 1_555
C25 O2 1_555 1_555
C32 C33 1_555 1_555
C43 O7 1_555 1_555
C43 O8 1_555 1_555
C44 O12 1_555 1_555
C47 O13 1_555 1_555
O19 Ce12 1_555 1_555
C87 O23 1_555 1_555
C87 O24 1_555 1_555
C46 H46 1_555 1_555
C46 H47 1_555 1_555
C46 H48 1_555 1_555
C45 H51 1_555 1_555
C45 H52 1_555 1_555
C45 H53 1_555 1_555
C44 H54 1_555 1_555
C49 H55 1_555 1_555
C49 H56 1_555 1_555
C49 H57 1_555 1_555
C47 H60 1_555 1_555
C48 H61 1_555 1_555
C48 H62 1_555 1_555
C48 H63 1_555 1_555
C1 C2 1_555 1_555
C2 H1 1_555 1_555
C3 C2 1_555 1_555
C4 C3 1_555 1_555
H2 C4 1_555 1_555
C5 C4 1_555 1_555
C6 C1 1_555 1_555
H3 C6 1_555 1_555
C13 C3 1_555 1_555
C14 C13 1_555 1_555
H8 C14 1_555 1_555
C15 C14 1_555 1_555
H9 C15 1_555 1_555
C16 C15 1_555 1_555
C17 C16 1_555 1_555
H10 C17 1_555 1_555
C18 C13 1_555 1_555
H11 C18 1_555 1_555
C19 C5 1_555 1_555
C20 C19 1_555 1_555
H12 C20 1_555 1_555
C21 C20 1_555 1_555
H13 C21 1_555 1_555
C24 C19 1_555 1_555
H15 C24 1_555 1_555
C26 C16 1_555 1_555
O5 C26 1_555 1_555
O6 C26 1_555 1_555
Ce7 O5 1_555 1_555
Ce11 O6 1_555 1_555
C5 C6 1_555 1_555
C17 C18 1_555 1_555
C23 C24 1_555 1_555
O6 Ce7 1_555 1_555
Ce3 O9 1_555 1_555
H20_2 C35_2 1_555 1_555
C38_2 C37_2 1_555 1_555
C42_2 C41_2 1_555 1_555
O9 C42_2 1_555 1_555
O15 Ce3 1_555 1_555
O16 Ce3 1_555 1_555
C50 C51 1_555 1_555
C51 H24 1_555 1_555
C52 C51 1_555 1_555
H25 C52 1_555 1_555
C53 C52 1_555 1_555
C54 C53 1_555 1_555
H26 C54 1_555 1_555
C55 C50 1_555 1_555
H27 C55 1_555 1_555
C56 C35_2 1_555 1_555
C57 C37_2 1_555 1_555
H28 C57 1_555 1_555
C58 C38_2 1_555 1_555
H29 C58 1_555 1_555
C59 C41_2 1_555 1_555
H30 C59 1_555 1_555
C60 C50 1_555 1_555
O17 C60 1_555 1_555
O18 C60 1_555 1_555
C61 C62 1_555 1_555
C62 H31 1_555 1_555
C63 C62 1_555 1_555
C64 C63 1_555 1_555
H32 C64 1_555 1_555
C65 C64 1_555 1_555
C66 C61 1_555 1_555
H33 C66 1_555 1_555
C73 C63 1_555 1_555
C74 C73 1_555 1_555
H38 C74 1_555 1_555
C75 C74 1_555 1_555
H39 C75 1_555 1_555
C76 C75 1_555 1_555
C77 C76 1_555 1_555
H40 C77 1_555 1_555
C78 C73 1_555 1_555
H41 C78 1_555 1_555
C79 C65 1_555 1_555
C80 C79 1_555 1_555
H42 C80 1_555 1_555
C81 C80 1_555 1_555
H43 C81 1_555 1_555
C84 C79 1_555 1_555
H45 C84 1_555 1_555
C86 C76 1_555 1_555
O25 C86 1_555 1_555
O26 C86 1_555 1_555
O29 Ce3 1_555 1_555
O30 Ce3 1_555 1_555
Ce5 O17 1_555 1_555
Ce6 O25 1_555 1_555
Ce9 O17 1_555 1_555
Ce10 O26 1_555 1_555
O41 Ce3 1_555 1_555
O42 Ce3 1_555 1_555
C53 C56 1_555 1_555
C54 C55 1_555 1_555
C56 C57 1_555 1_555
C58 C59 1_555 1_555
O18 Ce5 1_555 1_555
C65 C66 1_555 1_555
C77 C78 1_555 1_555
C83 C84 1_555 1_555
O26 Ce6 1_555 1_555
C27 C22 1_555 1_555
O3 C27 1_555 1_555
O4 C27 1_555 1_555
Ce5 O3 1_555 1_555
C68 C67 1_555 1_555
H34 C68 1_555 1_555
C69 C68 1_555 1_555
H35 C69 1_555 1_555
C70 C69 1_555 1_555
C71 C70 1_555 1_555
H36 C71 1_555 1_555
C72 C67 1_555 1_555
H37 C72 1_555 1_555
C85 C70 1_555 1_555
C88 N4 1_555 1_555
C89 N4 1_555 1_555
C90 N4 1_555 1_555
C91 N5 1_555 1_555
C92 N5 1_555 1_555
C93 N5 1_555 1_555
O21 Ce5 1_555 1_555
O22 C85 1_555 1_555
O27 Ce5 1_555 1_555
O28 Ce5 1_555 1_555
Ce9 O21 1_555 1_555
O33 Ce5 1_555 1_555
O35 Ce5 1_555 1_555
O4 Ce5 1_555 1_555
C71 C72 1_555 1_555
C85 O21 1_555 1_555
C88 O27 1_555 1_555
C91 O28 1_555 1_555
O22 Ce9 1_555 1_555
Ce9 O35 1_555 1_555
C92 H68 1_555 1_555
C92 H69 1_555 1_555
C92 H70 1_555 1_555
C90 H71 1_555 1_555
C90 H72 1_555 1_555
C90 H73 1_555 1_555
C93 H74 1_555 1_555
C93 H75 1_555 1_555
C93 H76 1_555 1_555
C91 H77 1_555 1_555
C89 H78 1_555 1_555
C89 H79 1_555 1_555
C89 H80 1_555 1_555
C88 H81 1_555 1_555
Ce3_2 O9_2 1_555 1_555
H20_3 C35_3 1_555 1_555
C38_3 C37_3 1_555 1_555
C42_3 C41_3 1_555 1_555
O9_2 C42_3 1_555 1_555
O11_2 Ce3_2 1_555 1_555
O15_2 Ce3_2 1_555 1_555
O16_2 Ce3_2 1_555 1_555
C50_2 C51_2 1_555 1_555
C51_2 H24_2 1_555 1_555
C52_2 C51_2 1_555 1_555
H25_2 C52_2 1_555 1_555
C53_2 C52_2 1_555 1_555
C54_2 C53_2 1_555 1_555
H26_2 C54_2 1_555 1_555
C55_2 C50_2 1_555 1_555
H27_2 C55_2 1_555 1_555
C56_2 C35_3 1_555 1_555
C57_2 C37_3 1_555 1_555
H28_2 C57_2 1_555 1_555
C58_2 C38_3 1_555 1_555
H29_2 C58_2 1_555 1_555
C59_2 C41_3 1_555 1_555
H30_2 C59_2 1_555 1_555
C60_2 C50_2 1_555 1_555
O17_2 C60_2 1_555 1_555
O18_2 C60_2 1_555 1_555
O29_2 Ce3_2 1_555 1_555
O30_2 Ce3_2 1_555 1_555
Ce5_2 O17_2 1_555 1_555
Ce9_2 O17_2 1_555 1_555
O41_2 Ce3_2 1_555 1_555
C53_2 C56_2 1_555 1_555
C54_2 C55_2 1_555 1_555
C56_2 C57_2 1_555 1_555
C58_2 C59_2 1_555 1_555
O18_2 Ce5_2 1_555 1_555
O16_2 H59 1_555 1_555
O30_2 H67 1_555 1_555
Ce1_2 O1_2 1_555 1_555
Ce2_2 O1_2 1_555 1_555
C1_2 C2_2 1_555 1_555
C2_2 H1_2 1_555 1_555
C3_2 C2_2 1_555 1_555
C4_2 C3_2 1_555 1_555
H2_2 C4_2 1_555 1_555
C5_2 C4_2 1_555 1_555
C6_2 C1_2 1_555 1_555
H3_2 C6_2 1_555 1_555
C7_2 C1_2 1_555 1_555
C8_2 C7_2 1_555 1_555
H4_2 C8_2 1_555 1_555
C9_2 C8_2 1_555 1_555
H5_2 C9_2 1_555 1_555
C10_2 C9_2 1_555 1_555
C11_2 C10_2 1_555 1_555
H6_2 C11_2 1_555 1_555
C12_2 C7_2 1_555 1_555
H7_2 C12_2 1_555 1_555
C13_2 C3_2 1_555 1_555
C14_2 C13_2 1_555 1_555
H8_2 C14_2 1_555 1_555
C15_2 C14_2 1_555 1_555
H9_2 C15_2 1_555 1_555
C16_2 C15_2 1_555 1_555
C17_2 C16_2 1_555 1_555
H10_2 C17_2 1_555 1_555
C18_2 C13_2 1_555 1_555
H11_2 C18_2 1_555 1_555
C19_2 C5_2 1_555 1_555
C20_2 C19_2 1_555 1_555
H12_2 C20_2 1_555 1_555
C21_2 C20_2 1_555 1_555
H13_2 C21_2 1_555 1_555
C22_2 C21_2 1_555 1_555
C23_2 C22_2 1_555 1_555
H14_2 C23_2 1_555 1_555
C24_2 C19_2 1_555 1_555
H15_2 C24_2 1_555 1_555
C25_2 C10_2 1_555 1_555
C26_2 C16_2 1_555 1_555
C27_2 C22_2 1_555 1_555
C28_2 C29_2 1_555 1_555
C29_2 H16_2 1_555 1_555
C30_2 C29_2 1_555 1_555
H17_2 C30_2 1_555 1_555
C31_2 C30_2 1_555 1_555
C32_2 C31_2 1_555 1_555
H18_2 C32_2 1_555 1_555
C33_2 C28_2 1_555 1_555
H19_2 C33_2 1_555 1_555
C34_2 C31_2 1_555 1_555
C35_4 C34_2 1_555 1_555
H20_4 C35_4 1_555 1_555
C36_2 C34_2 1_555 1_555
H21_2 C36_2 1_555 1_555
C37_4 C36_2 1_555 1_555
C38_4 C37_4 1_555 1_555
C39_2 C38_4 1_555 1_555
H22_2 C39_2 1_555 1_555
C40_2 C39_2 1_555 1_555
H23_2 C40_2 1_555 1_555
C41_4 C40_2 1_555 1_555
C42_4 C41_4 1_555 1_555
C43_2 C28_2 1_555 1_555
C44_2 N1_2 1_555 1_555
C45_2 N1_2 1_555 1_555
C46_2 N1_2 1_555 1_555
C47_2 N2_2 1_555 1_555
C48_2 N2_2 1_555 1_555
C49_2 N2_2 1_555 1_555
N3_2 O10_2 1_555 1_555
O1_2 C25_2 1_555 1_555
O2_2 Ce2_2 1_555 1_555
O3_2 C27_2 1_555 1_555
O4_2 C27_2 1_555 1_555
O5_2 C26_2 1_555 1_555
O6_2 C26_2 1_555 1_555
O7_2 Ce1_2 1_555 1_555
O8_2 Ce1_2 1_555 1_555
O10_2 Ce2_2 1_555 1_555
O12_2 Ce1_2 1_555 1_555
O13_2 Ce1_2 1_555 1_555
O14_2 N3_2 1_555 1_555
O19_2 C42_4 1_555 1_555
O20_2 N3_2 1_555 1_555
Ce5_2 O3_2 1_555 1_555
C61_2 C62_2 1_555 1_555
C62_2 H31_2 1_555 1_555
C63_2 C62_2 1_555 1_555
C64_2 C63_2 1_555 1_555
H32_2 C64_2 1_555 1_555
C65_2 C64_2 1_555 1_555
C66_2 C61_2 1_555 1_555
H33_2 C66_2 1_555 1_555
C67_2 C61_2 1_555 1_555
C68_2 C67_2 1_555 1_555
H34_2 C68_2 1_555 1_555
C69_2 C68_2 1_555 1_555
H35_2 C69_2 1_555 1_555
C70_2 C69_2 1_555 1_555
C71_2 C70_2 1_555 1_555
H36_2 C71_2 1_555 1_555
C72_2 C67_2 1_555 1_555
H37_2 C72_2 1_555 1_555
C73_2 C63_2 1_555 1_555
C74_2 C73_2 1_555 1_555
H38_2 C74_2 1_555 1_555
C75_2 C74_2 1_555 1_555
H39_2 C75_2 1_555 1_555
C76_2 C75_2 1_555 1_555
C77_2 C76_2 1_555 1_555
H40_2 C77_2 1_555 1_555
C78_2 C73_2 1_555 1_555
H41_2 C78_2 1_555 1_555
C79_2 C65_2 1_555 1_555
C80_2 C79_2 1_555 1_555
H42_2 C80_2 1_555 1_555
C81_2 C80_2 1_555 1_555
H43_2 C81_2 1_555 1_555
C82_2 C81_2 1_555 1_555
C83_2 C82_2 1_555 1_555
H44_2 C83_2 1_555 1_555
C84_2 C79_2 1_555 1_555
H45_2 C84_2 1_555 1_555
C85_2 C70_2 1_555 1_555
C86_2 C76_2 1_555 1_555
C87_2 C82_2 1_555 1_555
C88_2 N4_2 1_555 1_555
C89_2 N4_2 1_555 1_555
C90_2 N4_2 1_555 1_555
C91_2 N5_2 1_555 1_555
C92_2 N5_2 1_555 1_555
C93_2 N5_2 1_555 1_555
O21_2 Ce5_2 1_555 1_555
O22_2 C85_2 1_555 1_555
O23_2 Ce1_2 1_555 1_555
O24_2 Ce1_2 1_555 1_555
O25_2 C86_2 1_555 1_555
O26_2 C86_2 1_555 1_555
O27_2 Ce5_2 1_555 1_555
O28_2 Ce5_2 1_555 1_555
Ce6_2 O25_2 1_555 1_555
Ce7_2 O5_2 1_555 1_555
Ce9_2 O21_2 1_555 1_555
Ce10_2 O26_2 1_555 1_555
Ce11_2 O6_2 1_555 1_555
O31_2 Ce2_2 1_555 1_555
O32_2 Ce2_2 1_555 1_555
O33_2 Ce5_2 1_555 1_555
O34_2 Ce1_2 1_555 1_555
O35_2 Ce5_2 1_555 1_555
O36_2 Ce1_2 1_555 1_555
O37_2 Ce2_2 1_555 1_555
O39_2 Ce2_2 1_555 1_555
Ce2_2 O7_2 1_555 1_555
Ce2_2 O36_2 1_555 1_555
C5_2 C6_2 1_555 1_555
C11_2 C12_2 1_555 1_555
C17_2 C18_2 1_555 1_555
C23_2 C24_2 1_555 1_555
C25_2 O2_2 1_555 1_555
C32_2 C33_2 1_555 1_555
C43_2 O7_2 1_555 1_555
C43_2 O8_2 1_555 1_555
C44_2 O12_2 1_555 1_555
C47_2 O13_2 1_555 1_555
O4_2 Ce5_2 1_555 1_555
O6_2 Ce7_2 1_555 1_555
O19_2 Ce12_2 1_555 1_555
C65_2 C66_2 1_555 1_555
C71_2 C72_2 1_555 1_555
C77_2 C78_2 1_555 1_555
C83_2 C84_2 1_555 1_555
C85_2 O21_2 1_555 1_555
C87_2 O23_2 1_555 1_555
C87_2 O24_2 1_555 1_555
C88_2 O27_2 1_555 1_555
C91_2 O28_2 1_555 1_555
O22_2 Ce9_2 1_555 1_555
O26_2 Ce6_2 1_555 1_555
Ce9_2 O35_2 1_555 1_555
Ce12_2 O42_2 1_555 1_555
C46_2 H46_2 1_555 1_555
C46_2 H47_2 1_555 1_555
C46_2 H48_2 1_555 1_555
C45_2 H51_2 1_555 1_555
C45_2 H52_2 1_555 1_555
C45_2 H53_2 1_555 1_555
C44_2 H54_2 1_555 1_555
C49_2 H55_2 1_555 1_555
C49_2 H56_2 1_555 1_555
C49_2 H57_2 1_555 1_555
C47_2 H60_2 1_555 1_555
C48_2 H61_2 1_555 1_555
C48_2 H62_2 1_555 1_555
C48_2 H63_2 1_555 1_555
C92_2 H68_2 1_555 1_555
C92_2 H69_2 1_555 1_555
C92_2 H70_2 1_555 1_555
C90_2 H71_2 1_555 1_555
C90_2 H72_2 1_555 1_555
C90_2 H73_2 1_555 1_555
C93_2 H74_2 1_555 1_555
C93_2 H75_2 1_555 1_555
C93_2 H76_2 1_555 1_555
C91_2 H77_2 1_555 1_555
C89_2 H78_2 1_555 1_555
C89_2 H79_2 1_555 1_555
C89_2 H80_2 1_555 1_555
C88_2 H81_2 1_555 1_555
N3_3 O10_3 1_555 1_555
O10_3 Ce9_2 1_555 1_555
O14_3 N3_3 1_555 1_555
O20_3 N3_3 1_555 1_555
O31_3 Ce9_2 1_555 1_555
O32_3 Ce9_2 1_555 1_555
O37_3 Ce9_2 1_555 1_555
O39_3 Ce9_2 1_555 1_555
O15_3 Ce12_2 1_555 1_555
O16_3 Ce12_2 1_555 1_555
O29_3 Ce12_2 1_555 1_555
O30_3 Ce12_2 1_555 1_555
O41_3 Ce12_2 1_555 1_555
O16_3 H59_2 1_555 1_555
O30_3 H67_2 1_555 1_555
O15_4 Ce12 1_555 1_555
O16_4 Ce12 1_555 1_555
O29_4 Ce12 1_555 1_555
O30_4 Ce12 1_555 1_555
O41_4 Ce12 1_555 1_555
N3_4 O10_4 1_555 1_555
O10_4 Ce9 1_555 1_555
O14_4 N3_4 1_555 1_555
O20_4 N3_4 1_555 1_555
O31_4 Ce9 1_555 1_555
O32_4 Ce9 1_555 1_555
O37_4 Ce9 1_555 1_555
O39_4 Ce9 1_555 1_555
O11_3 Ce3_3 1_555 1_555
O29_5 Ce3_3 1_555 1_555
O30_5 Ce3_3 1_555 1_555
Ce12_3 O11_3 1_555 1_555
O41_5 Ce3_3 1_555 1_555
O42_3 Ce3_3 1_555 1_555
Ce12_3 O42_3 1_555 1_555
Ce1_3 O31_3 1_555 1_555
Ce3_4 O9_3 1_555 1_555
C8_3 C7_3 1_555 1_555
H4_3 C8_3 1_555 1_555
C9_3 C8_3 1_555 1_555
H5_3 C9_3 1_555 1_555
C10_3 C9_3 1_555 1_555
C11_3 C10_3 1_555 1_555
H6_3 C11_3 1_555 1_555
C12_3 C7_3 1_555 1_555
H7_3 C12_3 1_555 1_555
C25_3 C10_3 1_555 1_555
C28_3 C29_3 1_555 1_555
C29_3 H16_3 1_555 1_555
C30_3 C29_3 1_555 1_555
H17_3 C30_3 1_555 1_555
C31_3 C30_3 1_555 1_555
C32_3 C31_3 1_555 1_555
H18_3 C32_3 1_555 1_555
C33_3 C28_3 1_555 1_555
H19_3 C33_3 1_555 1_555
C34_3 C31_3 1_555 1_555
C35_5 C34_3 1_555 1_555
H20_5 C35_5 1_555 1_555
C36_3 C34_3 1_555 1_555
H21_3 C36_3 1_555 1_555
C37_5 C36_3 1_555 1_555
C38_5 C37_5 1_555 1_555
C39_3 C38_5 1_555 1_555
H22_3 C39_3 1_555 1_555
C40_3 C39_3 1_555 1_555
H23_3 C40_3 1_555 1_555
C41_5 C40_3 1_555 1_555
C42_5 C41_5 1_555 1_555
C43_3 C28_3 1_555 1_555
C44_3 N1_3 1_555 1_555
C45_3 N1_3 1_555 1_555
C46_3 N1_3 1_555 1_555
C47_3 N2_3 1_555 1_555
C48_3 N2_3 1_555 1_555
C49_3 N2_3 1_555 1_555
O31_3 C25_3 1_555 1_555
O39_3 Ce1_3 1_555 1_555
O8_3 Ce1_3 1_555 1_555
O9_3 C42_5 1_555 1_555
O11_4 Ce3_4 1_555 1_555
O12_3 Ce1_3 1_555 1_555
O13_3 Ce1_3 1_555 1_555
O15_5 Ce3_4 1_555 1_555
O16_5 Ce3_4 1_555 1_555
C50_3 C51_3 1_555 1_555
C51_3 H24_3 1_555 1_555
C52_3 C51_3 1_555 1_555
H25_3 C52_3 1_555 1_555
C53_3 C52_3 1_555 1_555
C54_3 C53_3 1_555 1_555
H26_3 C54_3 1_555 1_555
C55_3 C50_3 1_555 1_555
H27_3 C55_3 1_555 1_555
C56_3 C35_5 1_555 1_555
C57_3 C37_5 1_555 1_555
H28_3 C57_3 1_555 1_555
C58_3 C38_5 1_555 1_555
H29_3 C58_3 1_555 1_555
C59_3 C41_5 1_555 1_555
H30_3 C59_3 1_555 1_555
C60_3 C50_3 1_555 1_555
O39_2 C60_3 1_555 1_555
O18_3 C60_3 1_555 1_555
O19_3 C42_5 1_555 1_555
C61_3 C62_3 1_555 1_555
C62_3 H31_3 1_555 1_555
C63_3 C62_3 1_555 1_555
C64_3 C63_3 1_555 1_555
H32_3 C64_3 1_555 1_555
C65_3 C64_3 1_555 1_555
C66_3 C61_3 1_555 1_555
H33_3 C66_3 1_555 1_555
C73_3 C63_3 1_555 1_555
C74_3 C73_3 1_555 1_555
H38_3 C74_3 1_555 1_555
C75_3 C74_3 1_555 1_555
H39_3 C75_3 1_555 1_555
C76_3 C75_3 1_555 1_555
C77_3 C76_3 1_555 1_555
H40_3 C77_3 1_555 1_555
C78_3 C73_3 1_555 1_555
H41_3 C78_3 1_555 1_555
C79_3 C65_3 1_555 1_555
C80_3 C79_3 1_555 1_555
H42_3 C80_3 1_555 1_555
C81_3 C80_3 1_555 1_555
H43_3 C81_3 1_555 1_555
C82_3 C81_3 1_555 1_555
C83_3 C82_3 1_555 1_555
H44_3 C83_3 1_555 1_555
C84_3 C79_3 1_555 1_555
H45_3 C84_3 1_555 1_555
C86_3 C76_3 1_555 1_555
C87_3 C82_3 1_555 1_555
O23_3 Ce1_3 1_555 1_555
O24_3 Ce1_3 1_555 1_555
O25_3 C86_3 1_555 1_555
O26_3 C86_3 1_555 1_555
Ce5_3 O39_2 1_555 1_555
Ce6_3 O25_3 1_555 1_555
Ce11_2 O26_3 1_555 1_555
Ce12_4 O11_4 1_555 1_555
O34_3 Ce1_3 1_555 1_555
O37_3 Ce1_3 1_555 1_555
O42_4 Ce3_4 1_555 1_555
C11_3 C12_3 1_555 1_555
C25_3 O32_3 1_555 1_555
C32_3 C33_3 1_555 1_555
C43_3 O39_3 1_555 1_555
C43_3 O8_3 1_555 1_555
C44_3 O12_3 1_555 1_555
C47_3 O13_3 1_555 1_555
C53_3 C56_3 1_555 1_555
C54_3 C55_3 1_555 1_555
C56_3 C57_3 1_555 1_555
C58_3 C59_3 1_555 1_555
O18_3 Ce5_3 1_555 1_555
O19_3 Ce12_4 1_555 1_555
C65_3 C66_3 1_555 1_555
C77_3 C78_3 1_555 1_555
C83_3 C84_3 1_555 1_555
C87_3 O23_3 1_555 1_555
C87_3 O24_3 1_555 1_555
O26_3 Ce6_3 1_555 1_555
Ce12_4 O42_4 1_555 1_555
C46_3 H46_3 1_555 1_555
C46_3 H47_3 1_555 1_555
C46_3 H48_3 1_555 1_555
C45_3 H51_3 1_555 1_555
C45_3 H52_3 1_555 1_555
C45_3 H53_3 1_555 1_555
C44_3 H54_3 1_555 1_555
C49_3 H55_3 1_555 1_555
C49_3 H56_3 1_555 1_555
C49_3 H57_3 1_555 1_555
C47_3 H60_3 1_555 1_555
C48_3 H61_3 1_555 1_555
C48_3 H62_3 1_555 1_555
C48_3 H63_3 1_555 1_555
C1_3 C2_3 1_555 1_555
C2_3 H1_3 1_555 1_555
C3_3 C2_3 1_555 1_555
C4_3 C3_3 1_555 1_555
H2_3 C4_3 1_555 1_555
C5_3 C4_3 1_555 1_555
C6_3 C1_3 1_555 1_555
H3_3 C6_3 1_555 1_555
C13_3 C3_3 1_555 1_555
C14_3 C13_3 1_555 1_555
H8_3 C14_3 1_555 1_555
C15_3 C14_3 1_555 1_555
H9_3 C15_3 1_555 1_555
C16_3 C15_3 1_555 1_555
C17_3 C16_3 1_555 1_555
H10_3 C17_3 1_555 1_555
C18_3 C13_3 1_555 1_555
H11_3 C18_3 1_555 1_555
C19_3 C5_3 1_555 1_555
C20_3 C19_3 1_555 1_555
H12_3 C20_3 1_555 1_555
C21_3 C20_3 1_555 1_555
H13_3 C21_3 1_555 1_555
C22_3 C21_3 1_555 1_555
C23_3 C22_3 1_555 1_555
H14_3 C23_3 1_555 1_555
C24_3 C19_3 1_555 1_555
H15_3 C24_3 1_555 1_555
C26_3 C16_3 1_555 1_555
C27_3 C22_3 1_555 1_555
O3_3 C27_3 1_555 1_555
O4_3 C27_3 1_555 1_555
O5_3 C26_3 1_555 1_555
O6_3 C26_3 1_555 1_555
Ce5_3 O3_3 1_555 1_555
C68_3 C67_3 1_555 1_555
H34_3 C68_3 1_555 1_555
C69_3 C68_3 1_555 1_555
H35_3 C69_3 1_555 1_555
C70_3 C69_3 1_555 1_555
C71_3 C70_3 1_555 1_555
H36_3 C71_3 1_555 1_555
C72_3 C67_3 1_555 1_555
H37_3 C72_3 1_555 1_555
C85_3 C70_3 1_555 1_555
C88_3 N4_3 1_555 1_555
C89_3 N4_3 1_555 1_555
C90_3 N4_3 1_555 1_555
C91_3 N5_3 1_555 1_555
C92_3 N5_3 1_555 1_555
C93_3 N5_3 1_555 1_555
O31_2 Ce5_3 1_555 1_555
O32_2 C85_3 1_555 1_555
O27_3 Ce5_3 1_555 1_555
O28_3 Ce5_3 1_555 1_555
Ce7_3 O5_3 1_555 1_555
Ce10_2 O6_3 1_555 1_555
O33_3 Ce5_3 1_555 1_555
O37_2 Ce5_3 1_555 1_555
C5_3 C6_3 1_555 1_555
C17_3 C18_3 1_555 1_555
C23_3 C24_3 1_555 1_555
O4_3 Ce5_3 1_555 1_555
O6_3 Ce7_3 1_555 1_555
C71_3 C72_3 1_555 1_555
C85_3 O31_2 1_555 1_555
C88_3 O27_3 1_555 1_555
C91_3 O28_3 1_555 1_555
C92_3 H68_3 1_555 1_555
C92_3 H69_3 1_555 1_555
C92_3 H70_3 1_555 1_555
C90_3 H71_3 1_555 1_555
C90_3 H72_3 1_555 1_555
C90_3 H73_3 1_555 1_555
C93_3 H74_3 1_555 1_555
C93_3 H75_3 1_555 1_555
C93_3 H76_3 1_555 1_555
C91_3 H77_3 1_555 1_555
C89_3 H78_3 1_555 1_555
C89_3 H79_3 1_555 1_555
C89_3 H80_3 1_555 1_555
C88_3 H81_3 1_555 1_555
Ce3_5 O9_4 1_555 1_555
H20_6 C35_6 1_555 1_555
C38_6 C37_6 1_555 1_555
C42_6 C41_6 1_555 1_555
O9_4 C42_6 1_555 1_555
O15_6 Ce3_5 1_555 1_555
O16_6 Ce3_5 1_555 1_555
C50_4 C51_4 1_555 1_555
C51_4 H24_4 1_555 1_555
C52_4 C51_4 1_555 1_555
H25_4 C52_4 1_555 1_555
C53_4 C52_4 1_555 1_555
C54_4 C53_4 1_555 1_555
H26_4 C54_4 1_555 1_555
C55_4 C50_4 1_555 1_555
H27_4 C55_4 1_555 1_555
C56_4 C35_6 1_555 1_555
C57_4 C37_6 1_555 1_555
H28_4 C57_4 1_555 1_555
C58_4 C38_6 1_555 1_555
H29_4 C58_4 1_555 1_555
C59_4 C41_6 1_555 1_555
H30_4 C59_4 1_555 1_555
C60_4 C50_4 1_555 1_555
O39 C60_4 1_555 1_555
O18_4 C60_4 1_555 1_555
Ce5_4 O39 1_555 1_555
C53_4 C56_4 1_555 1_555
C54_4 C55_4 1_555 1_555
C56_4 C57_4 1_555 1_555
C58_4 C59_4 1_555 1_555
O18_4 Ce5_4 1_555 1_555
O16_6 H59_3 1_555 1_555
C27_4 C22_4 1_555 1_555
H20_7 C35_7 1_555 1_555
C38_7 C37_7 1_555 1_555
C42_7 C41_7 1_555 1_555
O3_4 C27_4 1_555 1_555
O4_4 C27_4 1_555 1_555
Ce5_4 O3_4 1_555 1_555
C61_4 C62_4 1_555 1_555
C62_4 H31_4 1_555 1_555
C63_4 C62_4 1_555 1_555
C64_4 C63_4 1_555 1_555
H32_4 C64_4 1_555 1_555
C65_4 C64_4 1_555 1_555
C66_4 C61_4 1_555 1_555
H33_4 C66_4 1_555 1_555
C67_4 C61_4 1_555 1_555
C68_4 C67_4 1_555 1_555
H34_4 C68_4 1_555 1_555
C69_4 C68_4 1_555 1_555
H35_4 C69_4 1_555 1_555
C70_4 C69_4 1_555 1_555
C71_4 C70_4 1_555 1_555
H36_4 C71_4 1_555 1_555
C72_4 C67_4 1_555 1_555
H37_4 C72_4 1_555 1_555
C73_4 C63_4 1_555 1_555
C74_4 C73_4 1_555 1_555
H38_4 C74_4 1_555 1_555
C75_4 C74_4 1_555 1_555
H39_4 C75_4 1_555 1_555
C76_4 C75_4 1_555 1_555
C77_4 C76_4 1_555 1_555
H40_4 C77_4 1_555 1_555
C78_4 C73_4 1_555 1_555
H41_4 C78_4 1_555 1_555
C79_4 C65_4 1_555 1_555
C80_4 C79_4 1_555 1_555
H42_4 C80_4 1_555 1_555
C81_4 C80_4 1_555 1_555
H43_4 C81_4 1_555 1_555
C84_4 C79_4 1_555 1_555
H45_4 C84_4 1_555 1_555
C85_4 C70_4 1_555 1_555
C86_4 C76_4 1_555 1_555
C88_4 N4_4 1_555 1_555
C89_4 N4_4 1_555 1_555
C90_4 N4_4 1_555 1_555
C91_4 N5_4 1_555 1_555
C92_4 N5_4 1_555 1_555
C93_4 N5_4 1_555 1_555
O31 Ce5_4 1_555 1_555
O32 C85_4 1_555 1_555
O25_4 C86_4 1_555 1_555
O26_4 C86_4 1_555 1_555
O27_4 Ce5_4 1_555 1_555
O28_4 Ce5_4 1_555 1_555
Ce6_4 O25_4 1_555 1_555
Ce11 O26_4 1_555 1_555
O33_4 Ce5_4 1_555 1_555
O37 Ce5_4 1_555 1_555
O4_4 Ce5_4 1_555 1_555
C65_4 C66_4 1_555 1_555
C71_4 C72_4 1_555 1_555
C77_4 C78_4 1_555 1_555
C83_4 C84_4 1_555 1_555
C85_4 O31 1_555 1_555
C88_4 O27_4 1_555 1_555
C91_4 O28_4 1_555 1_555
O26_4 Ce6_4 1_555 1_555
C92_4 H68_4 1_555 1_555
C92_4 H69_4 1_555 1_555
C92_4 H70_4 1_555 1_555
C90_4 H71_4 1_555 1_555
C90_4 H72_4 1_555 1_555
C90_4 H73_4 1_555 1_555
C93_4 H74_4 1_555 1_555
C93_4 H75_4 1_555 1_555
C93_4 H76_4 1_555 1_555
C91_4 H77_4 1_555 1_555
C89_4 H78_4 1_555 1_555
C89_4 H79_4 1_555 1_555
C89_4 H80_4 1_555 1_555
C88_4 H81_4 1_555 1_555
H20_8 C35_8 1_555 1_555
C38_8 C37_8 1_555 1_555
C42_8 C41_8 1_555 1_555
Ce1_4 O31_4 1_555 1_555
C1_4 C2_4 1_555 1_555
C2_4 H1_4 1_555 1_555
C3_4 C2_4 1_555 1_555
C4_4 C3_4 1_555 1_555
H2_4 C4_4 1_555 1_555
C5_4 C4_4 1_555 1_555
C6_4 C1_4 1_555 1_555
H3_4 C6_4 1_555 1_555
C7_4 C1_4 1_555 1_555
C8_4 C7_4 1_555 1_555
H4_4 C8_4 1_555 1_555
C9_4 C8_4 1_555 1_555
H5_4 C9_4 1_555 1_555
C10_4 C9_4 1_555 1_555
C11_4 C10_4 1_555 1_555
H6_4 C11_4 1_555 1_555
C12_4 C7_4 1_555 1_555
H7_4 C12_4 1_555 1_555
C13_4 C3_4 1_555 1_555
C14_4 C13_4 1_555 1_555
H8_4 C14_4 1_555 1_555
C15_4 C14_4 1_555 1_555
H9_4 C15_4 1_555 1_555
C16_4 C15_4 1_555 1_555
C17_4 C16_4 1_555 1_555
H10_4 C17_4 1_555 1_555
C18_4 C13_4 1_555 1_555
H11_4 C18_4 1_555 1_555
C19_4 C5_4 1_555 1_555
C20_4 C19_4 1_555 1_555
H12_4 C20_4 1_555 1_555
C21_4 C20_4 1_555 1_555
H13_4 C21_4 1_555 1_555
C24_4 C19_4 1_555 1_555
H15_4 C24_4 1_555 1_555
C25_4 C10_4 1_555 1_555
C26_4 C16_4 1_555 1_555
C28_4 C29_4 1_555 1_555
C29_4 H16_4 1_555 1_555
C30_4 C29_4 1_555 1_555
H17_4 C30_4 1_555 1_555
C31_4 C30_4 1_555 1_555
C32_4 C31_4 1_555 1_555
H18_4 C32_4 1_555 1_555
C33_4 C28_4 1_555 1_555
H19_4 C33_4 1_555 1_555
C34_4 C31_4 1_555 1_555
C35_9 C34_4 1_555 1_555
H20_9 C35_9 1_555 1_555
C36_4 C34_4 1_555 1_555
H21_4 C36_4 1_555 1_555
C37_9 C36_4 1_555 1_555
C38_9 C37_9 1_555 1_555
C39_4 C38_9 1_555 1_555
H22_4 C39_4 1_555 1_555
C40_4 C39_4 1_555 1_555
H23_4 C40_4 1_555 1_555
C41_9 C40_4 1_555 1_555
C42_9 C41_9 1_555 1_555
C43_4 C28_4 1_555 1_555
C44_4 N1_4 1_555 1_555
C45_4 N1_4 1_555 1_555
C46_4 N1_4 1_555 1_555
C47_4 N2_4 1_555 1_555
C48_4 N2_4 1_555 1_555
C49_4 N2_4 1_555 1_555
O31_4 C25_4 1_555 1_555
O5_4 C26_4 1_555 1_555
O6_4 C26_4 1_555 1_555
O39_4 Ce1_4 1_555 1_555
O8_4 Ce1_4 1_555 1_555
O12_4 Ce1_4 1_555 1_555
O13_4 Ce1_4 1_555 1_555
O19_4 C42_9 1_555 1_555
C87_4 C82_4 1_555 1_555
O23_4 Ce1_4 1_555 1_555
O24_4 Ce1_4 1_555 1_555
Ce7_4 O5_4 1_555 1_555
Ce10 O6_4 1_555 1_555
O34_4 Ce1_4 1_555 1_555
O37_4 Ce1_4 1_555 1_555
C5_4 C6_4 1_555 1_555
C11_4 C12_4 1_555 1_555
C17_4 C18_4 1_555 1_555
C23_4 C24_4 1_555 1_555
C25_4 O32_4 1_555 1_555
C32_4 C33_4 1_555 1_555
C43_4 O39_4 1_555 1_555
C43_4 O8_4 1_555 1_555
C44_4 O12_4 1_555 1_555
C47_4 O13_4 1_555 1_555
O6_4 Ce7_4 1_555 1_555
O19_4 Ce12_5 1_555 1_555
C87_4 O23_4 1_555 1_555
C87_4 O24_4 1_555 1_555
C46_4 H46_4 1_555 1_555
C46_4 H47_4 1_555 1_555
C46_4 H48_4 1_555 1_555
C45_4 H51_4 1_555 1_555
C45_4 H52_4 1_555 1_555
C45_4 H53_4 1_555 1_555
C44_4 H54_4 1_555 1_555
C49_4 H55_4 1_555 1_555
C49_4 H56_4 1_555 1_555
C49_4 H57_4 1_555 1_555
C47_4 H60_4 1_555 1_555
C48_4 H61_4 1_555 1_555
C48_4 H62_4 1_555 1_555
C48_4 H63_4 1_555 1_555
O29_6 Ce3_6 1_555 1_555
O30_6 Ce3_6 1_555 1_555
O41_6 Ce3_6 1_555 1_555
O30_6 H67_3 1_555 1_555
O15_7 Ce12_5 1_555 1_555
O16_7 Ce12_5 1_555 1_555
O16_7 H59_4 1_555 1_555
O29_7 Ce12_6 1_555 1_555
O30_7 Ce12_6 1_555 1_555
O41_7 Ce12_6 1_555 1_555
O30_7 H67_4 1_555 1_555
O29_8 Ce12_3 1_555 1_555
O30_8 Ce12_3 1_555 1_555
O41_8 Ce12_3 1_555 1_555
O15_8 Ce12_4 1_555 1_555
O16_8 Ce12_4 1_555 1_555
C27_5 C22_5 1_555 1_555
O3_5 C27_5 1_555 1_555
O4_5 C27_5 1_555 1_555
Ce7_2 O3_5 1_555 1_555
C68_5 C67_5 1_555 1_555
H34_5 C68_5 1_555 1_555
C69_5 C68_5 1_555 1_555
H35_5 C69_5 1_555 1_555
C70_5 C69_5 1_555 1_555
C71_5 C70_5 1_555 1_555
H36_5 C71_5 1_555 1_555
C72_5 C67_5 1_555 1_555
H37_5 C72_5 1_555 1_555
C85_5 C70_5 1_555 1_555
C88_5 N4_5 1_555 1_555
C89_5 N4_5 1_555 1_555
C90_5 N4_5 1_555 1_555
C91_5 N5_5 1_555 1_555
C92_5 N5_5 1_555 1_555
C93_5 N5_5 1_555 1_555
O21_3 Ce7_2 1_555 1_555
O22_3 C85_5 1_555 1_555
O27_5 Ce7_2 1_555 1_555
O28_5 Ce7_2 1_555 1_555
Ce11_2 O21_3 1_555 1_555
O38 Ce7_2 1_555 1_555
O40 Ce7_2 1_555 1_555
O4_5 Ce7_2 1_555 1_555
C71_5 C72_5 1_555 1_555
C85_5 O21_3 1_555 1_555
C88_5 O27_5 1_555 1_555
C91_5 O28_5 1_555 1_555
O22_3 Ce11_2 1_555 1_555
Ce11_2 O38 1_555 1_555
C92_5 H68_5 1_555 1_555
C92_5 H69_5 1_555 1_555
C92_5 H70_5 1_555 1_555
C90_5 H71_5 1_555 1_555
C90_5 H72_5 1_555 1_555
C90_5 H73_5 1_555 1_555
C93_5 H74_5 1_555 1_555
C93_5 H75_5 1_555 1_555
C93_5 H76_5 1_555 1_555
C91_5 H77_5 1_555 1_555
C89_5 H78_5 1_555 1_555
C89_5 H79_5 1_555 1_555
C89_5 H80_5 1_555 1_555
C88_5 H81_5 1_555 1_555
H20_10 C35_10 1_555 1_555
C38_10 C37_10 1_555 1_555
C42_10 C41_10 1_555 1_555
O41_4 C42_10 1_555 1_555
C50_5 C51_5 1_555 1_555
C51_5 H24_5 1_555 1_555
C52_5 C51_5 1_555 1_555
H25_5 C52_5 1_555 1_555
C53_5 C52_5 1_555 1_555
C54_5 C53_5 1_555 1_555
H26_5 C54_5 1_555 1_555
C55_5 C50_5 1_555 1_555
H27_5 C55_5 1_555 1_555
C56_5 C35_10 1_555 1_555
C57_5 C37_10 1_555 1_555
H28_5 C57_5 1_555 1_555
C58_5 C38_10 1_555 1_555
H29_5 C58_5 1_555 1_555
C59_5 C41_10 1_555 1_555
H30_5 C59_5 1_555 1_555
C60_5 C50_5 1_555 1_555
O38 C60_5 1_555 1_555
O40 C60_5 1_555 1_555
C61_5 C62_5 1_555 1_555
C62_5 H31_5 1_555 1_555
C63_5 C62_5 1_555 1_555
C64_5 C63_5 1_555 1_555
H32_5 C64_5 1_555 1_555
C65_5 C64_5 1_555 1_555
C66_5 C61_5 1_555 1_555
H33_5 C66_5 1_555 1_555
C73_5 C63_5 1_555 1_555
C74_5 C73_5 1_555 1_555
H38_5 C74_5 1_555 1_555
C75_5 C74_5 1_555 1_555
H39_5 C75_5 1_555 1_555
C76_5 C75_5 1_555 1_555
C77_5 C76_5 1_555 1_555
H40_5 C77_5 1_555 1_555
C78_5 C73_5 1_555 1_555
H41_5 C78_5 1_555 1_555
C79_5 C65_5 1_555 1_555
C80_5 C79_5 1_555 1_555
H42_5 C80_5 1_555 1_555
C81_5 C80_5 1_555 1_555
H43_5 C81_5 1_555 1_555
C84_5 C79_5 1_555 1_555
H45_5 C84_5 1_555 1_555
C86_5 C76_5 1_555 1_555
O34_2 C86_5 1_555 1_555
O36_2 C86_5 1_555 1_555
C53_5 C56_5 1_555 1_555
C54_5 C55_5 1_555 1_555
C56_5 C57_5 1_555 1_555
C58_5 C59_5 1_555 1_555
C65_5 C66_5 1_555 1_555
C77_5 C78_5 1_555 1_555
C83_5 C84_5 1_555 1_555
C1_5 C2_5 1_555 1_555
C2_5 H1_5 1_555 1_555
C3_5 C2_5 1_555 1_555
C4_5 C3_5 1_555 1_555
H2_5 C4_5 1_555 1_555
C5_5 C4_5 1_555 1_555
C6_5 C1_5 1_555 1_555
H3_5 C6_5 1_555 1_555
C13_5 C3_5 1_555 1_555
C14_5 C13_5 1_555 1_555
H8_5 C14_5 1_555 1_555
C15_5 C14_5 1_555 1_555
H9_5 C15_5 1_555 1_555
C16_5 C15_5 1_555 1_555
C17_5 C16_5 1_555 1_555
H10_5 C17_5 1_555 1_555
C18_5 C13_5 1_555 1_555
H11_5 C18_5 1_555 1_555
C19_5 C5_5 1_555 1_555
C20_5 C19_5 1_555 1_555
H12_5 C20_5 1_555 1_555
C21_5 C20_5 1_555 1_555
H13_5 C21_5 1_555 1_555
C24_5 C19_5 1_555 1_555
H15_5 C24_5 1_555 1_555
C26_5 C16_5 1_555 1_555
O33_2 C26_5 1_555 1_555
O35_2 C26_5 1_555 1_555
C5_5 C6_5 1_555 1_555
C17_5 C18_5 1_555 1_555
C23_5 C24_5 1_555 1_555
Ce6_2 O1_3 1_555 1_555
Ce10_2 O1_3 1_555 1_555
C8_5 C7_5 1_555 1_555
H4_5 C8_5 1_555 1_555
C9_5 C8_5 1_555 1_555
H5_5 C9_5 1_555 1_555
C10_5 C9_5 1_555 1_555
C11_5 C10_5 1_555 1_555
H6_5 C11_5 1_555 1_555
C12_5 C7_5 1_555 1_555
H7_5 C12_5 1_555 1_555
C25_5 C10_5 1_555 1_555
C28_5 C29_5 1_555 1_555
C29_5 H16_5 1_555 1_555
C30_5 C29_5 1_555 1_555
H17_5 C30_5 1_555 1_555
C31_5 C30_5 1_555 1_555
C32_5 C31_5 1_555 1_555
H18_5 C32_5 1_555 1_555
C33_5 C28_5 1_555 1_555
H19_5 C33_5 1_555 1_555
C34_5 C31_5 1_555 1_555
C35_11 C34_5 1_555 1_555
H20_11 C35_11 1_555 1_555
C36_5 C34_5 1_555 1_555
H21_5 C36_5 1_555 1_555
C37_11 C36_5 1_555 1_555
C38_11 C37_11 1_555 1_555
C39_5 C38_11 1_555 1_555
H22_5 C39_5 1_555 1_555
C40_5 C39_5 1_555 1_555
H23_5 C40_5 1_555 1_555
C41_11 C40_5 1_555 1_555
C42_11 C41_11 1_555 1_555
C43_5 C28_5 1_555 1_555
C44_5 N1_5 1_555 1_555
C45_5 N1_5 1_555 1_555
C46_5 N1_5 1_555 1_555
C47_5 N2_5 1_555 1_555
C48_5 N2_5 1_555 1_555
C49_5 N2_5 1_555 1_555
N3_5 O10_5 1_555 1_555
O1_3 C25_5 1_555 1_555
O2_3 Ce10_2 1_555 1_555
O7_3 Ce6_2 1_555 1_555
O8_5 Ce6_2 1_555 1_555
O10_5 Ce10_2 1_555 1_555
O12_5 Ce6_2 1_555 1_555
O13_5 Ce6_2 1_555 1_555
O14_5 N3_5 1_555 1_555
O41 C42_11 1_555 1_555
O20_5 N3_5 1_555 1_555
C87_5 C82_5 1_555 1_555
O23_5 Ce6_2 1_555 1_555
O24_5 Ce6_2 1_555 1_555
O31_5 Ce10_2 1_555 1_555
O32_5 Ce10_2 1_555 1_555
O39_5 Ce10_2 1_555 1_555
Ce10_2 O7_3 1_555 1_555
C11_5 C12_5 1_555 1_555
C25_5 O2_3 1_555 1_555
C32_5 C33_5 1_555 1_555
C43_5 O7_3 1_555 1_555
C43_5 O8_5 1_555 1_555
C44_5 O12_5 1_555 1_555
C47_5 O13_5 1_555 1_555
C87_5 O23_5 1_555 1_555
C87_5 O24_5 1_555 1_555
C46_5 H46_5 1_555 1_555
C46_5 H47_5 1_555 1_555
C46_5 H48_5 1_555 1_555
C45_5 H51_5 1_555 1_555
C45_5 H52_5 1_555 1_555
C45_5 H53_5 1_555 1_555
C44_5 H54_5 1_555 1_555
C49_5 H55_5 1_555 1_555
C49_5 H56_5 1_555 1_555
C49_5 H57_5 1_555 1_555
C47_5 H60_5 1_555 1_555
C48_5 H61_5 1_555 1_555
C48_5 H62_5 1_555 1_555
C48_5 H63_5 1_555 1_555
Ce6 O1_4 1_555 1_555
Ce10 O1_4 1_555 1_555
C1_6 C2_6 1_555 1_555
C2_6 H1_6 1_555 1_555
C3_6 C2_6 1_555 1_555
C4_6 C3_6 1_555 1_555
H2_6 C4_6 1_555 1_555
C5_6 C4_6 1_555 1_555
C6_6 C1_6 1_555 1_555
H3_6 C6_6 1_555 1_555
C7_6 C1_6 1_555 1_555
C8_6 C7_6 1_555 1_555
H4_6 C8_6 1_555 1_555
C9_6 C8_6 1_555 1_555
H5_6 C9_6 1_555 1_555
C10_6 C9_6 1_555 1_555
C11_6 C10_6 1_555 1_555
H6_6 C11_6 1_555 1_555
C12_6 C7_6 1_555 1_555
H7_6 C12_6 1_555 1_555
C13_6 C3_6 1_555 1_555
C14_6 C13_6 1_555 1_555
H8_6 C14_6 1_555 1_555
C15_6 C14_6 1_555 1_555
H9_6 C15_6 1_555 1_555
C16_6 C15_6 1_555 1_555
C17_6 C16_6 1_555 1_555
H10_6 C17_6 1_555 1_555
C18_6 C13_6 1_555 1_555
H11_6 C18_6 1_555 1_555
C19_6 C5_6 1_555 1_555
C20_6 C19_6 1_555 1_555
H12_6 C20_6 1_555 1_555
C21_6 C20_6 1_555 1_555
H13_6 C21_6 1_555 1_555
C22_6 C21_6 1_555 1_555
C23_6 C22_6 1_555 1_555
H14_6 C23_6 1_555 1_555
C24_6 C19_6 1_555 1_555
H15_6 C24_6 1_555 1_555
C25_6 C10_6 1_555 1_555
C26_6 C16_6 1_555 1_555
C27_6 C22_6 1_555 1_555
C28_6 C29_6 1_555 1_555
C29_6 H16_6 1_555 1_555
C30_6 C29_6 1_555 1_555
H17_6 C30_6 1_555 1_555
C31_6 C30_6 1_555 1_555
C32_6 C31_6 1_555 1_555
H18_6 C32_6 1_555 1_555
C33_6 C28_6 1_555 1_555
H19_6 C33_6 1_555 1_555
C34_6 C31_6 1_555 1_555
C35_12 C34_6 1_555 1_555
H20_12 C35_12 1_555 1_555
C36_6 C34_6 1_555 1_555
H21_6 C36_6 1_555 1_555
C37_12 C36_6 1_555 1_555
C38_12 C37_12 1_555 1_555
C39_6 C38_12 1_555 1_555
H22_6 C39_6 1_555 1_555
C40_6 C39_6 1_555 1_555
H23_6 C40_6 1_555 1_555
C41_12 C40_6 1_555 1_555
C42_12 C41_12 1_555 1_555
C43_6 C28_6 1_555 1_555
C44_6 N1_6 1_555 1_555
C45_6 N1_6 1_555 1_555
C46_6 N1_6 1_555 1_555
C47_6 N2_6 1_555 1_555
C48_6 N2_6 1_555 1_555
C49_6 N2_6 1_555 1_555
N3_6 O10_6 1_555 1_555
O1_4 C25_6 1_555 1_555
O2_4 Ce10 1_555 1_555
O3_6 C27_6 1_555 1_555
O4_6 C27_6 1_555 1_555
O33 C26_6 1_555 1_555
O35 C26_6 1_555 1_555
O7_4 Ce6 1_555 1_555
O8_6 Ce6 1_555 1_555
O10_6 Ce10 1_555 1_555
O12_6 Ce6 1_555 1_555
O13_6 Ce6 1_555 1_555
O14_6 N3_6 1_555 1_555
O41_2 C42_12 1_555 1_555
O20_6 N3_6 1_555 1_555
Ce7 O3_6 1_555 1_555
C61_6 C62_6 1_555 1_555
C62_6 H31_6 1_555 1_555
C63_6 C62_6 1_555 1_555
C64_6 C63_6 1_555 1_555
H32_6 C64_6 1_555 1_555
C65_6 C64_6 1_555 1_555
C66_6 C61_6 1_555 1_555
H33_6 C66_6 1_555 1_555
C67_6 C61_6 1_555 1_555
C68_6 C67_6 1_555 1_555
H34_6 C68_6 1_555 1_555
C69_6 C68_6 1_555 1_555
H35_6 C69_6 1_555 1_555
C70_6 C69_6 1_555 1_555
C71_6 C70_6 1_555 1_555
H36_6 C71_6 1_555 1_555
C72_6 C67_6 1_555 1_555
H37_6 C72_6 1_555 1_555
C73_6 C63_6 1_555 1_555
C74_6 C73_6 1_555 1_555
H38_6 C74_6 1_555 1_555
C75_6 C74_6 1_555 1_555
H39_6 C75_6 1_555 1_555
C76_6 C75_6 1_555 1_555
C77_6 C76_6 1_555 1_555
H40_6 C77_6 1_555 1_555
C78_6 C73_6 1_555 1_555
H41_6 C78_6 1_555 1_555
C79_6 C65_6 1_555 1_555
C80_6 C79_6 1_555 1_555
H42_6 C80_6 1_555 1_555
C81_6 C80_6 1_555 1_555
H43_6 C81_6 1_555 1_555
C82_6 C81_6 1_555 1_555
C83_6 C82_6 1_555 1_555
H44_6 C83_6 1_555 1_555
C84_6 C79_6 1_555 1_555
H45_6 C84_6 1_555 1_555
C85_6 C70_6 1_555 1_555
C86_6 C76_6 1_555 1_555
C87_6 C82_6 1_555 1_555
C88_6 N4_6 1_555 1_555
C89_6 N4_6 1_555 1_555
C90_6 N4_6 1_555 1_555
C91_6 N5_6 1_555 1_555
C92_6 N5_6 1_555 1_555
C93_6 N5_6 1_555 1_555
O21_4 Ce7 1_555 1_555
O22_4 C85_6 1_555 1_555
O23_6 Ce6 1_555 1_555
O24_6 Ce6 1_555 1_555
O34 C86_6 1_555 1_555
O36 C86_6 1_555 1_555
O27_6 Ce7 1_555 1_555
O28_6 Ce7 1_555 1_555
Ce11 O21_4 1_555 1_555
O31_6 Ce10 1_555 1_555
O32_6 Ce10 1_555 1_555
O38_2 Ce7 1_555 1_555
O39_6 Ce10 1_555 1_555
O40_2 Ce7 1_555 1_555
Ce10 O7_4 1_555 1_555
C5_6 C6_6 1_555 1_555
C11_6 C12_6 1_555 1_555
C17_6 C18_6 1_555 1_555
C23_6 C24_6 1_555 1_555
C25_6 O2_4 1_555 1_555
C32_6 C33_6 1_555 1_555
C43_6 O7_4 1_555 1_555
C43_6 O8_6 1_555 1_555
C44_6 O12_6 1_555 1_555
C47_6 O13_6 1_555 1_555
O4_6 Ce7 1_555 1_555
C65_6 C66_6 1_555 1_555
C71_6 C72_6 1_555 1_555
C77_6 C78_6 1_555 1_555
C83_6 C84_6 1_555 1_555
C85_6 O21_4 1_555 1_555
C87_6 O23_6 1_555 1_555
C87_6 O24_6 1_555 1_555
C88_6 O27_6 1_555 1_555
C91_6 O28_6 1_555 1_555
O22_4 Ce11 1_555 1_555
Ce11 O38_2 1_555 1_555
C46_6 H46_6 1_555 1_555
C46_6 H47_6 1_555 1_555
C46_6 H48_6 1_555 1_555
C45_6 H51_6 1_555 1_555
C45_6 H52_6 1_555 1_555
C45_6 H53_6 1_555 1_555
C44_6 H54_6 1_555 1_555
C49_6 H55_6 1_555 1_555
C49_6 H56_6 1_555 1_555
C49_6 H57_6 1_555 1_555
C47_6 H60_6 1_555 1_555
C48_6 H61_6 1_555 1_555
C48_6 H62_6 1_555 1_555
C48_6 H63_6 1_555 1_555
C92_6 H68_6 1_555 1_555
C92_6 H69_6 1_555 1_555
C92_6 H70_6 1_555 1_555
C90_6 H71_6 1_555 1_555
C90_6 H72_6 1_555 1_555
C90_6 H73_6 1_555 1_555
C93_6 H74_6 1_555 1_555
C93_6 H75_6 1_555 1_555
C93_6 H76_6 1_555 1_555
C91_6 H77_6 1_555 1_555
C89_6 H78_6 1_555 1_555
C89_6 H79_6 1_555 1_555
C89_6 H80_6 1_555 1_555
C88_6 H81_6 1_555 1_555
H20_13 C35_13 1_555 1_555
C38_13 C37_13 1_555 1_555
C42_13 C41_13 1_555 1_555
O41_3 C42_13 1_555 1_555
C50_6 C51_6 1_555 1_555
C51_6 H24_6 1_555 1_555
C52_6 C51_6 1_555 1_555
H25_6 C52_6 1_555 1_555
C53_6 C52_6 1_555 1_555
C54_6 C53_6 1_555 1_555
H26_6 C54_6 1_555 1_555
C55_6 C50_6 1_555 1_555
H27_6 C55_6 1_555 1_555
C56_6 C35_13 1_555 1_555
C57_6 C37_13 1_555 1_555
H28_6 C57_6 1_555 1_555
C58_6 C38_13 1_555 1_555
H29_6 C58_6 1_555 1_555
C59_6 C41_13 1_555 1_555
H30_6 C59_6 1_555 1_555
C60_6 C50_6 1_555 1_555
O38_2 C60_6 1_555 1_555
O40_2 C60_6 1_555 1_555
C53_6 C56_6 1_555 1_555
C54_6 C55_6 1_555 1_555
C56_6 C57_6 1_555 1_555
C58_6 C59_6 1_555 1_555
O30_3 H59_5 1_555 1_555
O16_3 H67_5 1_555 1_555
O30_2 H59_6 1_555 1_555
O16_2 H67_6 1_555 1_555
N3_7 O10_7 1_555 1_555
O10_7 Ce11 1_555 1_555
O14_7 N3_7 1_555 1_555
O20_7 N3_7 1_555 1_555
O31_7 Ce11 1_555 1_555
O32_7 Ce11 1_555 1_555
O39_7 Ce11 1_555 1_555
N3_8 O10_8 1_555 1_555
O10_8 Ce11_2 1_555 1_555
O14_8 N3_8 1_555 1_555
O20_8 N3_8 1_555 1_555
O31_8 Ce11_2 1_555 1_555
O32_8 Ce11_2 1_555 1_555
O39_8 Ce11_2 1_555 1_555
C1_7 C2_7 1_555 1_555
C2_7 H1_7 1_555 1_555
C3_7 C2_7 1_555 1_555
C4_7 C3_7 1_555 1_555
H2_7 C4_7 1_555 1_555
C5_7 C4_7 1_555 1_555
C6_7 C1_7 1_555 1_555
H3_7 C6_7 1_555 1_555
C13_7 C3_7 1_555 1_555
C14_7 C13_7 1_555 1_555
H8_7 C14_7 1_555 1_555
C15_7 C14_7 1_555 1_555
H9_7 C15_7 1_555 1_555
C16_7 C15_7 1_555 1_555
C17_7 C16_7 1_555 1_555
H10_7 C17_7 1_555 1_555
C18_7 C13_7 1_555 1_555
H11_7 C18_7 1_555 1_555
C19_7 C5_7 1_555 1_555
C20_7 C19_7 1_555 1_555
H12_7 C20_7 1_555 1_555
C21_7 C20_7 1_555 1_555
H13_7 C21_7 1_555 1_555
C22_7 C21_7 1_555 1_555
C23_7 C22_7 1_555 1_555
H14_7 C23_7 1_555 1_555
C24_7 C19_7 1_555 1_555
H15_7 C24_7 1_555 1_555
C26_7 C16_7 1_555 1_555
C27_7 C22_7 1_555 1_555
O3_7 C27_7 1_555 1_555
O4_7 C27_7 1_555 1_555
O33_4 C26_7 1_555 1_555
O37 C26_7 1_555 1_555
Ce7_4 O3_7 1_555 1_555
C68_7 C67_7 1_555 1_555
H34_7 C68_7 1_555 1_555
C69_7 C68_7 1_555 1_555
H35_7 C69_7 1_555 1_555
C70_7 C69_7 1_555 1_555
C71_7 C70_7 1_555 1_555
H36_7 C71_7 1_555 1_555
C72_7 C67_7 1_555 1_555
H37_7 C72_7 1_555 1_555
C85_7 C70_7 1_555 1_555
C88_7 N4_7 1_555 1_555
C89_7 N4_7 1_555 1_555
C90_7 N4_7 1_555 1_555
C91_7 N5_7 1_555 1_555
C92_7 N5_7 1_555 1_555
C93_7 N5_7 1_555 1_555
O31_6 Ce7_4 1_555 1_555
O32_6 C85_7 1_555 1_555
O27_7 Ce7_4 1_555 1_555
O28_7 Ce7_4 1_555 1_555
O39_6 Ce7_4 1_555 1_555
O40_3 Ce7_4 1_555 1_555
C5_7 C6_7 1_555 1_555
C17_7 C18_7 1_555 1_555
C23_7 C24_7 1_555 1_555
O4_7 Ce7_4 1_555 1_555
C71_7 C72_7 1_555 1_555
C85_7 O31_6 1_555 1_555
C88_7 O27_7 1_555 1_555
C91_7 O28_7 1_555 1_555
C92_7 H68_7 1_555 1_555
C92_7 H69_7 1_555 1_555
C92_7 H70_7 1_555 1_555
C90_7 H71_7 1_555 1_555
C90_7 H72_7 1_555 1_555
C90_7 H73_7 1_555 1_555
C93_7 H74_7 1_555 1_555
C93_7 H75_7 1_555 1_555
C93_7 H76_7 1_555 1_555
C91_7 H77_7 1_555 1_555
C89_7 H78_7 1_555 1_555
C89_7 H79_7 1_555 1_555
C89_7 H80_7 1_555 1_555
C88_7 H81_7 1_555 1_555
Ce6_4 O31_7 1_555 1_555
C8_7 C7_7 1_555 1_555
H4_7 C8_7 1_555 1_555
C9_7 C8_7 1_555 1_555
H5_7 C9_7 1_555 1_555
C10_7 C9_7 1_555 1_555
C11_7 C10_7 1_555 1_555
H6_7 C11_7 1_555 1_555
C12_7 C7_7 1_555 1_555
H7_7 C12_7 1_555 1_555
C25_7 C10_7 1_555 1_555
C28_7 C29_7 1_555 1_555
C29_7 H16_7 1_555 1_555
C30_7 C29_7 1_555 1_555
H17_7 C30_7 1_555 1_555
C31_7 C30_7 1_555 1_555
C32_7 C31_7 1_555 1_555
H18_7 C32_7 1_555 1_555
C33_7 C28_7 1_555 1_555
H19_7 C33_7 1_555 1_555
C34_7 C31_7 1_555 1_555
C35_14 C34_7 1_555 1_555
H20_14 C35_14 1_555 1_555
C36_7 C34_7 1_555 1_555
H21_7 C36_7 1_555 1_555
C37_14 C36_7 1_555 1_555
C38_14 C37_14 1_555 1_555
C39_7 C38_14 1_555 1_555
H22_7 C39_7 1_555 1_555
C40_7 C39_7 1_555 1_555
H23_7 C40_7 1_555 1_555
C41_14 C40_7 1_555 1_555
C42_14 C41_14 1_555 1_555
C43_7 C28_7 1_555 1_555
C44_7 N1_7 1_555 1_555
C45_7 N1_7 1_555 1_555
C46_7 N1_7 1_555 1_555
C47_7 N2_7 1_555 1_555
C48_7 N2_7 1_555 1_555
C49_7 N2_7 1_555 1_555
O31_7 C25_7 1_555 1_555
O39_7 Ce6_4 1_555 1_555
O8_7 Ce6_4 1_555 1_555
O41_8 C42_14 1_555 1_555
O12_7 Ce6_4 1_555 1_555
O13_7 Ce6_4 1_555 1_555
C50_7 C51_7 1_555 1_555
C51_7 H24_7 1_555 1_555
C52_7 C51_7 1_555 1_555
H25_7 C52_7 1_555 1_555
C53_7 C52_7 1_555 1_555
C54_7 C53_7 1_555 1_555
H26_7 C54_7 1_555 1_555
C55_7 C50_7 1_555 1_555
H27_7 C55_7 1_555 1_555
C56_7 C35_14 1_555 1_555
C57_7 C37_14 1_555 1_555
H28_7 C57_7 1_555 1_555
C58_7 C38_14 1_555 1_555
H29_7 C58_7 1_555 1_555
C59_7 C41_14 1_555 1_555
H30_7 C59_7 1_555 1_555
C60_7 C50_7 1_555 1_555
O39_6 C60_7 1_555 1_555
O40_3 C60_7 1_555 1_555
O41_5 C42_14 1_555 1_555
C61_7 C62_7 1_555 1_555
C62_7 H31_7 1_555 1_555
C63_7 C62_7 1_555 1_555
C64_7 C63_7 1_555 1_555
H32_7 C64_7 1_555 1_555
C65_7 C64_7 1_555 1_555
C66_7 C61_7 1_555 1_555
H33_7 C66_7 1_555 1_555
C73_7 C63_7 1_555 1_555
C74_7 C73_7 1_555 1_555
H38_7 C74_7 1_555 1_555
C75_7 C74_7 1_555 1_555
H39_7 C75_7 1_555 1_555
C76_7 C75_7 1_555 1_555
C77_7 C76_7 1_555 1_555
H40_7 C77_7 1_555 1_555
C78_7 C73_7 1_555 1_555
H41_7 C78_7 1_555 1_555
C79_7 C65_7 1_555 1_555
C80_7 C79_7 1_555 1_555
H42_7 C80_7 1_555 1_555
C81_7 C80_7 1_555 1_555
H43_7 C81_7 1_555 1_555
C82_7 C81_7 1_555 1_555
C83_7 C82_7 1_555 1_555
H44_7 C83_7 1_555 1_555
C84_7 C79_7 1_555 1_555
H45_7 C84_7 1_555 1_555
C86_7 C76_7 1_555 1_555
C87_7 C82_7 1_555 1_555
O23_7 Ce6_4 1_555 1_555
O24_7 Ce6_4 1_555 1_555
O34_4 C86_7 1_555 1_555
O37_4 C86_7 1_555 1_555
C11_7 C12_7 1_555 1_555
C25_7 O32_7 1_555 1_555
C32_7 C33_7 1_555 1_555
C43_7 O39_7 1_555 1_555
C43_7 O8_7 1_555 1_555
C44_7 O12_7 1_555 1_555
C47_7 O13_7 1_555 1_555
C53_7 C56_7 1_555 1_555
C54_7 C55_7 1_555 1_555
C56_7 C57_7 1_555 1_555
C58_7 C59_7 1_555 1_555
C65_7 C66_7 1_555 1_555
C77_7 C78_7 1_555 1_555
C83_7 C84_7 1_555 1_555
C87_7 O23_7 1_555 1_555
C87_7 O24_7 1_555 1_555
C46_7 H46_7 1_555 1_555
C46_7 H47_7 1_555 1_555
C46_7 H48_7 1_555 1_555
C45_7 H51_7 1_555 1_555
C45_7 H52_7 1_555 1_555
C45_7 H53_7 1_555 1_555
C44_7 H54_7 1_555 1_555
C49_7 H55_7 1_555 1_555
C49_7 H56_7 1_555 1_555
C49_7 H57_7 1_555 1_555
C47_7 H60_7 1_555 1_555
C48_7 H61_7 1_555 1_555
C48_7 H62_7 1_555 1_555
C48_7 H63_7 1_555 1_555
O16_7 H67_7 1_555 1_555
Ce6_3 O31_8 1_555 1_555
C1_8 C2_8 1_555 1_555
C2_8 H1_8 1_555 1_555
C3_8 C2_8 1_555 1_555
C4_8 C3_8 1_555 1_555
H2_8 C4_8 1_555 1_555
C5_8 C4_8 1_555 1_555
C6_8 C1_8 1_555 1_555
H3_8 C6_8 1_555 1_555
C7_8 C1_8 1_555 1_555
C8_8 C7_8 1_555 1_555
H4_8 C8_8 1_555 1_555
C9_8 C8_8 1_555 1_555
H5_8 C9_8 1_555 1_555
C10_8 C9_8 1_555 1_555
C11_8 C10_8 1_555 1_555
H6_8 C11_8 1_555 1_555
C12_8 C7_8 1_555 1_555
H7_8 C12_8 1_555 1_555
C13_8 C3_8 1_555 1_555
C14_8 C13_8 1_555 1_555
H8_8 C14_8 1_555 1_555
C15_8 C14_8 1_555 1_555
H9_8 C15_8 1_555 1_555
C16_8 C15_8 1_555 1_555
C17_8 C16_8 1_555 1_555
H10_8 C17_8 1_555 1_555
C18_8 C13_8 1_555 1_555
H11_8 C18_8 1_555 1_555
C19_8 C5_8 1_555 1_555
C20_8 C19_8 1_555 1_555
H12_8 C20_8 1_555 1_555
C21_8 C20_8 1_555 1_555
H13_8 C21_8 1_555 1_555
C24_8 C19_8 1_555 1_555
H15_8 C24_8 1_555 1_555
C25_8 C10_8 1_555 1_555
C26_8 C16_8 1_555 1_555
C28_8 C29_8 1_555 1_555
C29_8 H16_8 1_555 1_555
C30_8 C29_8 1_555 1_555
H17_8 C30_8 1_555 1_555
C31_8 C30_8 1_555 1_555
C32_8 C31_8 1_555 1_555
H18_8 C32_8 1_555 1_555
C33_8 C28_8 1_555 1_555
H19_8 C33_8 1_555 1_555
C34_8 C31_8 1_555 1_555
C35_15 C34_8 1_555 1_555
H20_15 C35_15 1_555 1_555
C36_8 C34_8 1_555 1_555
H21_8 C36_8 1_555 1_555
C37_15 C36_8 1_555 1_555
C38_15 C37_15 1_555 1_555
C39_8 C38_15 1_555 1_555
H22_8 C39_8 1_555 1_555
C40_8 C39_8 1_555 1_555
H23_8 C40_8 1_555 1_555
C41_15 C40_8 1_555 1_555
C42_15 C41_15 1_555 1_555
C43_8 C28_8 1_555 1_555
C44_8 N1_8 1_555 1_555
C45_8 N1_8 1_555 1_555
C46_8 N1_8 1_555 1_555
C47_8 N2_8 1_555 1_555
C48_8 N2_8 1_555 1_555
C49_8 N2_8 1_555 1_555
O31_8 C25_8 1_555 1_555
O33_3 C26_8 1_555 1_555
O37_2 C26_8 1_555 1_555
O39_8 Ce6_3 1_555 1_555
O8_8 Ce6_3 1_555 1_555
O12_8 Ce6_3 1_555 1_555
O13_8 Ce6_3 1_555 1_555
O41_6 C42_15 1_555 1_555
C87_8 C82_8 1_555 1_555
O23_8 Ce6_3 1_555 1_555
O24_8 Ce6_3 1_555 1_555
C5_8 C6_8 1_555 1_555
C11_8 C12_8 1_555 1_555
C17_8 C18_8 1_555 1_555
C23_8 C24_8 1_555 1_555
C25_8 O32_8 1_555 1_555
C32_8 C33_8 1_555 1_555
C43_8 O39_8 1_555 1_555
C43_8 O8_8 1_555 1_555
C44_8 O12_8 1_555 1_555
C47_8 O13_8 1_555 1_555
C87_8 O23_8 1_555 1_555
C87_8 O24_8 1_555 1_555
C46_8 H46_8 1_555 1_555
C46_8 H47_8 1_555 1_555
C46_8 H48_8 1_555 1_555
C45_8 H51_8 1_555 1_555
C45_8 H52_8 1_555 1_555
C45_8 H53_8 1_555 1_555
C44_8 H54_8 1_555 1_555
C49_8 H55_8 1_555 1_555
C49_8 H56_8 1_555 1_555
C49_8 H57_8 1_555 1_555
C47_8 H60_8 1_555 1_555
C48_8 H61_8 1_555 1_555
C48_8 H62_8 1_555 1_555
C48_8 H63_8 1_555 1_555
H20_16 C35_16 1_555 1_555
C38_16 C37_16 1_555 1_555
C42_16 C41_16 1_555 1_555
C27_8 C22_8 1_555 1_555
H20_17 C35_17 1_555 1_555
C38_17 C37_17 1_555 1_555
C42_17 C41_17 1_555 1_555
O3_8 C27_8 1_555 1_555
O4_8 C27_8 1_555 1_555
Ce7_3 O3_8 1_555 1_555
C61_8 C62_8 1_555 1_555
C62_8 H31_8 1_555 1_555
C63_8 C62_8 1_555 1_555
C64_8 C63_8 1_555 1_555
H32_8 C64_8 1_555 1_555
C65_8 C64_8 1_555 1_555
C66_8 C61_8 1_555 1_555
H33_8 C66_8 1_555 1_555
C67_8 C61_8 1_555 1_555
C68_8 C67_8 1_555 1_555
H34_8 C68_8 1_555 1_555
C69_8 C68_8 1_555 1_555
H35_8 C69_8 1_555 1_555
C70_8 C69_8 1_555 1_555
C71_8 C70_8 1_555 1_555
H36_8 C71_8 1_555 1_555
C72_8 C67_8 1_555 1_555
H37_8 C72_8 1_555 1_555
C73_8 C63_8 1_555 1_555
C74_8 C73_8 1_555 1_555
H38_8 C74_8 1_555 1_555
C75_8 C74_8 1_555 1_555
H39_8 C75_8 1_555 1_555
C76_8 C75_8 1_555 1_555
C77_8 C76_8 1_555 1_555
H40_8 C77_8 1_555 1_555
C78_8 C73_8 1_555 1_555
H41_8 C78_8 1_555 1_555
C79_8 C65_8 1_555 1_555
C80_8 C79_8 1_555 1_555
H42_8 C80_8 1_555 1_555
C81_8 C80_8 1_555 1_555
H43_8 C81_8 1_555 1_555
C84_8 C79_8 1_555 1_555
H45_8 C84_8 1_555 1_555
C85_8 C70_8 1_555 1_555
C86_8 C76_8 1_555 1_555
C88_8 N4_8 1_555 1_555
C89_8 N4_8 1_555 1_555
C90_8 N4_8 1_555 1_555
C91_8 N5_8 1_555 1_555
C92_8 N5_8 1_555 1_555
C93_8 N5_8 1_555 1_555
O31_5 Ce7_3 1_555 1_555
O32_5 C85_8 1_555 1_555
O34_3 C86_8 1_555 1_555
O37_3 C86_8 1_555 1_555
O27_8 Ce7_3 1_555 1_555
O28_8 Ce7_3 1_555 1_555
O39_5 Ce7_3 1_555 1_555
O40_4 Ce7_3 1_555 1_555
O4_8 Ce7_3 1_555 1_555
C65_8 C66_8 1_555 1_555
C71_8 C72_8 1_555 1_555
C77_8 C78_8 1_555 1_555
C83_8 C84_8 1_555 1_555
C85_8 O31_5 1_555 1_555
C88_8 O27_8 1_555 1_555
C91_8 O28_8 1_555 1_555
C92_8 H68_8 1_555 1_555
C92_8 H69_8 1_555 1_555
C92_8 H70_8 1_555 1_555
C90_8 H71_8 1_555 1_555
C90_8 H72_8 1_555 1_555
C90_8 H73_8 1_555 1_555
C93_8 H74_8 1_555 1_555
C93_8 H75_8 1_555 1_555
C93_8 H76_8 1_555 1_555
C91_8 H77_8 1_555 1_555
C89_8 H78_8 1_555 1_555
C89_8 H79_8 1_555 1_555
C89_8 H80_8 1_555 1_555
C88_8 H81_8 1_555 1_555
H20_18 C35_18 1_555 1_555
C38_18 C37_18 1_555 1_555
C42_18 C41_18 1_555 1_555
O41_7 C42_18 1_555 1_555
C50_8 C51_8 1_555 1_555
C51_8 H24_8 1_555 1_555
C52_8 C51_8 1_555 1_555
H25_8 C52_8 1_555 1_555
C53_8 C52_8 1_555 1_555
C54_8 C53_8 1_555 1_555
H26_8 C54_8 1_555 1_555
C55_8 C50_8 1_555 1_555
H27_8 C55_8 1_555 1_555
C56_8 C35_18 1_555 1_555
C57_8 C37_18 1_555 1_555
H28_8 C57_8 1_555 1_555
C58_8 C38_18 1_555 1_555
H29_8 C58_8 1_555 1_555
C59_8 C41_18 1_555 1_555
H30_8 C59_8 1_555 1_555
C60_8 C50_8 1_555 1_555
O39_5 C60_8 1_555 1_555
O40_4 C60_8 1_555 1_555
C53_8 C56_8 1_555 1_555
C54_8 C55_8 1_555 1_555
C56_8 C57_8 1_555 1_555
C58_8 C59_8 1_555 1_555
O30_7 H59_7 1_555 1_555
O16_6 H67_8 1_555 1_555
O30_6 H59_8 1_555 1_555
N6 O43 1_555 1_555
O44 N6 1_555 1_555
O45 N6 1_555 1_555
N6_2 O43_2 1_555 1_555
O44_2 N6_2 1_555 1_555
O45_2 N6_2 1_555 1_555
N6_3 O43_3 1_555 1_555
O44_3 N6_3 1_555 1_555
O45_3 N6_3 1_555 1_555
N6_4 O43_4 1_555 1_555
O44_4 N6_4 1_555 1_555
O45_4 N6_4 1_555 1_555
N6_5 O43_5 1_555 1_555
O44_5 N6_5 1_555 1_555
O45_5 N6_5 1_555 1_555
N6_6 O43_6 1_555 1_555
O44_6 N6_6 1_555 1_555
O45_6 N6_6 1_555 1_555
N6_7 O43_7 1_555 1_555
O44_7 N6_7 1_555 1_555
O45_7 N6_7 1_555 1_555
N6_8 O43_8 1_555 1_555
O44_8 N6_8 1_555 1_555
O45_8 N6_8 1_555 1_555

#END
