
###############################################################################
#
# This file contains modified crystal structure data generated from the
# MOF subset of the Cambridge Structural Database (CSD) v543 
# hosted by the Cambridge Crystallographic Data Centre (CCDC).
#
# This work is licensed under the Creative Commons
# Attribution-NonCommercial-ShareAlike 4.0 International License.
# To view a copy of this license, visit
# http://creativecommons.org/licenses/by-nc-sa/4.0/
# or send a letter to
# Creative Commons, PO Box 1866, Mountain View, CA 94042, USA.
#
# CIF created using the CSD Python API on 29 September 2022
# The structure has been converted into the P1 space group
# The structure has a 3D framework
# The original CSD entry DUFZUA is in the hexagonal crystal system
# The framework has been calculated to contain at least 10.0% void space
# The void calculation uses a probe of radius 1.32A, grid spacing 0.4
# H atom positions have been added when not included in the experimental data
# Generated hydrogen atom positions removed from atoms on special positions
#
###############################################################################

data_DUFZUA
_chemical_formula_moiety         '(C84 H180 Fe15 Gd4 N12 O66)n'
_symmetry_cell_setting           triclinic
_symmetry_space_group_name_H-M   'P 1'
_symmetry_Int_Tables_number      1
_space_group_name_Hall           'P 1'
loop_
_symmetry_equiv_pos_site_id
_symmetry_equiv_pos_as_xyz
1 x,y,z
_cell_length_a                   15.291(4)
_cell_length_b                   15.291(4)
_cell_length_c                   15.573(7)
_cell_angle_alpha                90
_cell_angle_beta                 90
_cell_angle_gamma                120
_cell_volume                     3153.37
loop_
_atom_site_label
_atom_site_type_symbol
_atom_site_fract_x
_atom_site_fract_y
_atom_site_fract_z
Fe9 Fe 0.0000 0.5000 0.0000
Fe9_2 Fe -0.0000 0.5000 1.0000
Fe10 Fe -0.0000 0.5000 0.5000
Fe3 Fe 0.5000 -0.0000 0.0000
Fe7 Fe 0.5000 -0.0000 0.5000
O22 O 0.6153(3) 0.0624(4) 0.0921(3)
O35 O 0.4882(5) 0.1371(6) 0.0000
Fe3_2 Fe 0.5000 -0.0000 1.0000
O23 O 0.6153(3) 0.0624(4) 0.9079(3)
O35_2 O 0.4882(5) 0.1371(6) 1.0000
Gd1 Gd 0.3333 0.6667 0.2500
Fe1 Fe 0.5000 0.5000 0.0000
O1 O 0.4138(3) 0.6131(3) 0.1433(3)
O2 O 0.5529(3) 0.6153(3) 0.0921(3)
O3 O 0.6489(4) 0.5118(5) 0.0000
N1 N 0.5223(5) 0.7611(2) 0.2500
C1 C 0.7297(7) 0.8649(3) 0.2500
H1 H 0.7999 0.9000 0.2500
C2 C 0.6785(5) 0.7858(5) 0.1952(6)
H2 H 0.7131 0.7659 0.1581
C3 C 0.5740(5) 0.7357(5) 0.1959(5)
C4 C 0.5084(5) 0.6473(5) 0.1385(4)
Fe3_3 Fe 0.5000 1.0000 0.0000
Fe5 Fe 0.5000 0.5000 0.5000
Fe7_2 Fe 0.5000 1.0000 0.5000
Fe9_3 Fe 1.0000 0.5000 0.0000
O4 O 0.4138(3) 0.8007(4) 0.3567(3)
O5 O 0.3869(3) 0.8007(4) 0.1433(3)
O6 O 0.1993(4) 0.6131(3) 0.3567(3)
O7 O 0.1993(4) 0.5862(3) 0.1433(3)
O8 O 0.3869(3) 0.5862(3) 0.3567(3)
O15 O 0.5529(3) 0.9376(4) 0.4079(3)
O16 O 0.3847(3) 0.9376(4) 0.0921(3)
O17 O 0.0624(4) 0.6153(3) 0.4079(3)
O18 O 0.0624(4) 0.4471(3) 0.0921(3)
O19 O 0.3847(3) 0.4471(3) 0.4079(3)
O24 O 0.4471(3) 0.3847(3) 0.0921(3)
O34 O 0.3511(4) 0.4882(5) 0.0000
O36 O 0.5118(5) 0.8629(6) 0.0000
N2 N 0.2389(2) 0.7612(5) 0.2500
N3 N 0.2388(5) 0.4777(5) 0.2500
C5 C 0.1351(3) 0.8648(8) 0.2500
C6 C 0.1352(8) 0.2703(7) 0.2500
H3 H 0.1000 0.8999 0.2500
H4 H 0.1001 0.2001 0.2500
C10 C 0.6785(5) 0.8927(7) 0.3048(6)
C11 C 0.2142(5) 0.8927(7) 0.1952(6)
C12 C 0.1073(7) 0.7858(5) 0.3048(6)
C13 C 0.1073(7) 0.3215(5) 0.1952(6)
C14 C 0.2142(5) 0.3215(5) 0.3048(6)
H8 H 0.7131 0.9472 0.3419
H9 H 0.2341 0.9472 0.1581
H10 H 0.0528 0.7659 0.3419
H11 H 0.0528 0.2869 0.1581
H12 H 0.2341 0.2869 0.3419
C21 C 0.5740(5) 0.8383(7) 0.3041(5)
C22 C 0.2643(5) 0.8383(7) 0.1959(5)
C23 C 0.1617(7) 0.7357(5) 0.3041(5)
C24 C 0.1617(7) 0.4260(5) 0.1959(5)
C25 C 0.2643(5) 0.4260(5) 0.3041(5)
C32 C 0.5084(5) 0.8611(7) 0.3615(4)
C33 C 0.3527(5) 0.8611(7) 0.1385(4)
C34 C 0.1389(7) 0.6473(5) 0.3615(4)
C35 C 0.1389(7) 0.4916(5) 0.1385(4)
C36 C 0.3527(5) 0.4916(5) 0.3615(4)
Fe1_2 Fe 0.5000 0.5000 1.0000
O3_2 O 0.6489(4) 0.5118(5) 1.0000
Gd2 Gd 0.6667 0.3333 0.7500
Fe3_4 Fe 0.5000 1.0000 1.0000
Fe9_4 Fe 1.0000 0.5000 1.0000
Fe10_2 Fe 1.0000 0.5000 0.5000
O9 O 0.5862(3) 0.3869(3) 0.8567(3)
O10 O 0.6131(3) 0.4138(3) 0.6433(3)
O11 O 0.6131(3) 0.1993(4) 0.8567(3)
O12 O 0.8007(4) 0.4138(3) 0.8567(3)
O13 O 0.8007(4) 0.3869(3) 0.6433(3)
O14 O 0.5862(3) 0.1993(4) 0.6433(3)
O20 O 0.3847(3) 0.9376(4) 0.9079(3)
O21 O 0.3847(3) 0.4471(3) 0.5921(3)
O25 O 0.5529(3) 0.6153(3) 0.9079(3)
O26 O 0.4471(3) 0.3847(3) 0.9079(3)
O27 O 0.6153(3) 0.5529(3) 0.4079(3)
O29 O 0.6153(3) 0.5529(3) 0.5921(3)
O31 O 0.9376(4) 0.5529(3) 0.9079(3)
O32 O 0.9376(4) 0.3847(3) 0.5921(3)
O33 O 0.4471(3) 0.0624(4) 0.5921(3)
O34_2 O 0.3511(4) 0.4882(5) 1.0000
O36_2 O 0.5118(5) 0.8629(6) 1.0000
O37 O 0.5118(5) 0.6489(4) 0.5000
O38 O 0.4882(5) 0.3511(4) 0.5000
N4 N 0.4777(5) 0.2389(2) 0.7500
N5 N 0.7612(5) 0.5223(5) 0.7500
N6 N 0.7611(2) 0.2388(5) 0.7500
C7 C 0.2703(7) 0.1351(3) 0.7500
C8 C 0.8648(8) 0.7297(7) 0.7500
C9 C 0.8649(3) 0.1352(8) 0.7500
H5 H 0.2001 0.1000 0.7500
H6 H 0.8999 0.7999 0.7500
H7 H 0.9000 0.1001 0.7500
C15 C 0.3215(5) 0.2142(5) 0.8048(6)
C16 C 0.7858(5) 0.6785(5) 0.6952(6)
C17 C 0.3215(5) 0.1073(7) 0.6952(6)
C18 C 0.8927(7) 0.6785(5) 0.8048(6)
C19 C 0.7858(5) 0.1073(7) 0.8048(6)
C20 C 0.8927(7) 0.2142(5) 0.6952(6)
H13 H 0.2869 0.2341 0.8419
H14 H 0.7659 0.7131 0.6581
H15 H 0.2869 0.0528 0.6581
H16 H 0.9472 0.7131 0.8419
H17 H 0.7659 0.0528 0.8419
H18 H 0.9472 0.2341 0.6581
C26 C 0.4260(5) 0.2643(5) 0.8041(5)
C27 C 0.7357(5) 0.5740(5) 0.6959(5)
C28 C 0.4260(5) 0.1617(7) 0.6959(5)
C29 C 0.8383(7) 0.5740(5) 0.8041(5)
C30 C 0.7357(5) 0.1617(7) 0.8041(5)
C31 C 0.8383(7) 0.2643(5) 0.6959(5)
C37 C 0.4916(5) 0.3527(5) 0.8615(4)
C38 C 0.6473(5) 0.5084(5) 0.6385(4)
C39 C 0.6473(5) 0.1389(7) 0.8615(4)
C40 C 0.8611(7) 0.5084(5) 0.8615(4)
C41 C 0.8611(7) 0.3527(5) 0.6385(4)
C42 C 0.4916(5) 0.1389(7) 0.6385(4)
O27_2 O 0.4471(3) 0.0624(4) 0.4079(3)
O38_2 O 0.6489(4) 0.1371(6) 0.5000
O36_3 O 0.1371(6) 0.6489(8) 0.0000
O20_2 O 0.0624(4) 0.4471(5) 0.9079(3)
O21_2 O 0.5529(3) 0.9376(4) 0.5921(3)
O36_4 O 0.1371(6) 0.6489(8) 1.0000
O37_2 O 0.3511(4) 0.8629(6) 0.5000
O22_2 O 0.9376(4) 0.5529(5) 0.0921(3)
O35_3 O 0.8629(6) 0.3511(8) 0.0000
O35_4 O 0.8629(6) 0.3511(8) 1.0000
O21_3 O 0.0624(4) 0.6153(3) 0.5921(3)
O37_3 O 0.1371(6) 0.4882(5) 0.5000
O27_3 O 0.9376(4) 0.3847(3) 0.4079(3)
O38_3 O 0.8629(6) 0.5118(5) 0.5000
Gd1_2 Gd 0.6667 0.3333 0.2500
O1_2 O 0.5862(3) 0.3869(3) 0.1433(3)
N1_2 N 0.4777(5) 0.2389(2) 0.2500
C1_2 C 0.2703(7) 0.1351(3) 0.2500
H1_2 H 0.2001 0.1000 0.2500
C2_2 C 0.3215(5) 0.2142(5) 0.1952(6)
H2_2 H 0.2869 0.2341 0.1581
C3_2 C 0.4260(5) 0.2643(5) 0.1959(5)
C4_2 C 0.4916(5) 0.3527(5) 0.1385(4)
O4_2 O 0.5862(3) 0.1993(4) 0.3567(3)
O5_2 O 0.6131(3) 0.1993(4) 0.1433(3)
O6_2 O 0.8007(4) 0.3869(3) 0.3567(3)
O7_2 O 0.8007(4) 0.4138(3) 0.1433(3)
O8_2 O 0.6131(3) 0.4138(3) 0.3567(3)
N2_2 N 0.7611(2) 0.2388(5) 0.2500
N3_2 N 0.7612(5) 0.5223(5) 0.2500
C5_2 C 0.8649(3) 0.1352(8) 0.2500
C6_2 C 0.8648(8) 0.7297(7) 0.2500
H3_2 H 0.9000 0.1001 0.2500
H4_2 H 0.8999 0.7999 0.2500
C10_2 C 0.3215(5) 0.1073(7) 0.3048(6)
C11_2 C 0.7858(5) 0.1073(7) 0.1952(6)
C12_2 C 0.8927(7) 0.2142(5) 0.3048(6)
C13_2 C 0.8927(7) 0.6785(5) 0.1952(6)
C14_2 C 0.7858(5) 0.6785(5) 0.3048(6)
H8_2 H 0.2869 0.0528 0.3419
H9_2 H 0.7659 0.0528 0.1581
H10_2 H 0.9472 0.2341 0.3419
H11_2 H 0.9472 0.7131 0.1581
H12_2 H 0.7659 0.7131 0.3419
C21_2 C 0.4260(5) 0.1617(7) 0.3041(5)
C22_2 C 0.7357(5) 0.1617(7) 0.1959(5)
C23_2 C 0.8383(7) 0.2643(5) 0.3041(5)
C24_2 C 0.8383(7) 0.5740(5) 0.1959(5)
C25_2 C 0.7357(5) 0.5740(5) 0.3041(5)
C32_2 C 0.4916(5) 0.1389(7) 0.3615(4)
C33_2 C 0.6473(5) 0.1389(7) 0.1385(4)
C34_2 C 0.8611(7) 0.3527(5) 0.3615(4)
C35_2 C 0.8611(7) 0.5084(5) 0.1385(4)
C36_2 C 0.6473(5) 0.5084(5) 0.3615(4)
Gd2_2 Gd 0.3333 0.6667 0.7500
O9_2 O 0.4138(3) 0.6131(3) 0.8567(3)
O10_2 O 0.3869(3) 0.5862(3) 0.6433(3)
O11_2 O 0.3869(3) 0.8007(4) 0.8567(3)
O12_2 O 0.1993(4) 0.5862(3) 0.8567(3)
O13_2 O 0.1993(4) 0.6131(3) 0.6433(3)
O14_2 O 0.4138(3) 0.8007(4) 0.6433(3)
N4_2 N 0.5223(5) 0.7611(2) 0.7500
N5_2 N 0.2388(5) 0.4777(5) 0.7500
N6_2 N 0.2389(2) 0.7612(5) 0.7500
C7_2 C 0.7297(7) 0.8649(3) 0.7500
C8_2 C 0.1352(8) 0.2703(7) 0.7500
C9_2 C 0.1351(3) 0.8648(8) 0.7500
H5_2 H 0.7999 0.9000 0.7500
H6_2 H 0.1001 0.2001 0.7500
H7_2 H 0.1000 0.8999 0.7500
C15_2 C 0.6785(5) 0.7858(5) 0.8048(6)
C16_2 C 0.2142(5) 0.3215(5) 0.6952(6)
C17_2 C 0.6785(5) 0.8927(7) 0.6952(6)
C18_2 C 0.1073(7) 0.3215(5) 0.8048(6)
C19_2 C 0.2142(5) 0.8927(7) 0.8048(6)
C20_2 C 0.1073(7) 0.7858(5) 0.6952(6)
H13_2 H 0.7131 0.7659 0.8419
H14_2 H 0.2341 0.2869 0.6581
H15_2 H 0.7131 0.9472 0.6581
H16_2 H 0.0528 0.2869 0.8419
H17_2 H 0.2341 0.9472 0.8419
H18_2 H 0.0528 0.7659 0.6581
C26_2 C 0.5740(5) 0.7357(5) 0.8041(5)
C27_2 C 0.2643(5) 0.4260(5) 0.6959(5)
C28_2 C 0.5740(5) 0.8383(7) 0.6959(5)
C29_2 C 0.1617(7) 0.4260(5) 0.8041(5)
C30_2 C 0.2643(5) 0.8383(7) 0.8041(5)
C31_2 C 0.1617(7) 0.7357(5) 0.6959(5)
C37_2 C 0.5084(5) 0.6473(5) 0.8615(4)
C38_2 C 0.3527(5) 0.4916(5) 0.6385(4)
C39_2 C 0.3527(5) 0.8611(7) 0.8615(4)
C40_2 C 0.1389(7) 0.4916(5) 0.8615(4)
C41_2 C 0.1389(7) 0.6473(5) 0.6385(4)
C42_2 C 0.5084(5) 0.8611(7) 0.6385(4)
loop_
_geom_bond_atom_site_label_1
_geom_bond_atom_site_label_2
_geom_bond_site_symmetry_1
_geom_bond_site_symmetry_2
O22 Fe3 1_555 1_555
O35 Fe3 1_555 1_555
O23 Fe3_2 1_555 1_555
O35_2 Fe3_2 1_555 1_555
Gd1 O1 1_555 1_555
Fe1 O2 1_555 1_555
O1 C4 1_555 1_555
O2 C4 1_555 1_555
O3 Fe1 1_555 1_555
N1 Gd1 1_555 1_555
C1 H1 1_555 1_555
C2 C1 1_555 1_555
H2 C2 1_555 1_555
C3 N1 1_555 1_555
C4 C3 1_555 1_555
Fe9 O18 1_555 1_555
Fe3_3 O16 1_555 1_555
Fe5 O19 1_555 1_555
Fe10 O17 1_555 1_555
Fe7_2 O15 1_555 1_555
O4 Gd1 1_555 1_555
O5 Gd1 1_555 1_555
O6 Gd1 1_555 1_555
O7 Gd1 1_555 1_555
O8 Gd1 1_555 1_555
O15 C32 1_555 1_555
O16 C33 1_555 1_555
O17 C34 1_555 1_555
O18 C35 1_555 1_555
O19 C36 1_555 1_555
O24 Fe1 1_555 1_555
O34 Fe1 1_555 1_555
O36 Fe3_3 1_555 1_555
N2 Gd1 1_555 1_555
N3 Gd1 1_555 1_555
C5 H3 1_555 1_555
C6 H4 1_555 1_555
C10 C1 1_555 1_555
C11 C5 1_555 1_555
C12 C5 1_555 1_555
C13 C6 1_555 1_555
C14 C6 1_555 1_555
H8 C10 1_555 1_555
H9 C11 1_555 1_555
H10 C12 1_555 1_555
H11 C13 1_555 1_555
H12 C14 1_555 1_555
C21 N1 1_555 1_555
C22 N2 1_555 1_555
C23 N2 1_555 1_555
C24 N3 1_555 1_555
C25 N3 1_555 1_555
C32 O4 1_555 1_555
C33 O5 1_555 1_555
C34 O6 1_555 1_555
C35 O7 1_555 1_555
C36 O8 1_555 1_555
C2 C3 1_555 1_555
C10 C21 1_555 1_555
C11 C22 1_555 1_555
C12 C23 1_555 1_555
C13 C24 1_555 1_555
C14 C25 1_555 1_555
C21 C32 1_555 1_555
C22 C33 1_555 1_555
C23 C34 1_555 1_555
C24 C35 1_555 1_555
C25 C36 1_555 1_555
O3_2 Fe1_2 1_555 1_555
Gd2 O9 1_555 1_555
Fe5 O21 1_555 1_555
Fe9_4 O31 1_555 1_555
Fe10_2 O32 1_555 1_555
Fe7 O33 1_555 1_555
O9 C37 1_555 1_555
O10 Gd2 1_555 1_555
O11 Gd2 1_555 1_555
O12 Gd2 1_555 1_555
O13 Gd2 1_555 1_555
O14 Gd2 1_555 1_555
O20 Fe3_4 1_555 1_555
O25 Fe1_2 1_555 1_555
O26 Fe1_2 1_555 1_555
O27 Fe5 1_555 1_555
O29 Fe5 1_555 1_555
O23 C39 1_555 1_555
O31 C40 1_555 1_555
O32 C41 1_555 1_555
O33 C42 1_555 1_555
O34_2 Fe1_2 1_555 1_555
O36_2 Fe3_4 1_555 1_555
O37 Fe5 1_555 1_555
O38 Fe5 1_555 1_555
N4 Gd2 1_555 1_555
N5 Gd2 1_555 1_555
N6 Gd2 1_555 1_555
C7 H5 1_555 1_555
C8 H6 1_555 1_555
C9 H7 1_555 1_555
C15 C7 1_555 1_555
C16 C8 1_555 1_555
C17 C7 1_555 1_555
C18 C8 1_555 1_555
C19 C9 1_555 1_555
C20 C9 1_555 1_555
H13 C15 1_555 1_555
H14 C16 1_555 1_555
H15 C17 1_555 1_555
H16 C18 1_555 1_555
H17 C19 1_555 1_555
H18 C20 1_555 1_555
C26 N4 1_555 1_555
C27 N5 1_555 1_555
C28 N4 1_555 1_555
C29 N5 1_555 1_555
C30 N6 1_555 1_555
C31 N6 1_555 1_555
C37 O26 1_555 1_555
C38 O10 1_555 1_555
C39 O11 1_555 1_555
C40 O12 1_555 1_555
C41 O13 1_555 1_555
C42 O14 1_555 1_555
O29 C38 1_555 1_555
C15 C26 1_555 1_555
C16 C27 1_555 1_555
C17 C28 1_555 1_555
C18 C29 1_555 1_555
C19 C30 1_555 1_555
C20 C31 1_555 1_555
C26 C37 1_555 1_555
C27 C38 1_555 1_555
C28 C42 1_555 1_555
C29 C40 1_555 1_555
C30 C39 1_555 1_555
C31 C41 1_555 1_555
O27_2 Fe7 1_555 1_555
O38_2 Fe7 1_555 1_555
O36_3 Fe9 1_555 1_555
Fe7_2 O21_2 1_555 1_555
O20_2 Fe9_2 1_555 1_555
O36_4 Fe9_2 1_555 1_555
O37_2 Fe7_2 1_555 1_555
O22_2 Fe9_3 1_555 1_555
O35_3 Fe9_3 1_555 1_555
O35_4 Fe9_4 1_555 1_555
Fe10 O21_3 1_555 1_555
O37_3 Fe10 1_555 1_555
O27_3 Fe10_2 1_555 1_555
O38_3 Fe10_2 1_555 1_555
Gd1_2 O1_2 1_555 1_555
O1_2 C4_2 1_555 1_555
O24 C4_2 1_555 1_555
N1_2 Gd1_2 1_555 1_555
C1_2 H1_2 1_555 1_555
C2_2 C1_2 1_555 1_555
H2_2 C2_2 1_555 1_555
C3_2 N1_2 1_555 1_555
C4_2 C3_2 1_555 1_555
O4_2 Gd1_2 1_555 1_555
O5_2 Gd1_2 1_555 1_555
O6_2 Gd1_2 1_555 1_555
O7_2 Gd1_2 1_555 1_555
O8_2 Gd1_2 1_555 1_555
O27_2 C32_2 1_555 1_555
O22 C33_2 1_555 1_555
O27_3 C34_2 1_555 1_555
O22_2 C35_2 1_555 1_555
O27 C36_2 1_555 1_555
N2_2 Gd1_2 1_555 1_555
N3_2 Gd1_2 1_555 1_555
C5_2 H3_2 1_555 1_555
C6_2 H4_2 1_555 1_555
C10_2 C1_2 1_555 1_555
C11_2 C5_2 1_555 1_555
C12_2 C5_2 1_555 1_555
C13_2 C6_2 1_555 1_555
C14_2 C6_2 1_555 1_555
H8_2 C10_2 1_555 1_555
H9_2 C11_2 1_555 1_555
H10_2 C12_2 1_555 1_555
H11_2 C13_2 1_555 1_555
H12_2 C14_2 1_555 1_555
C21_2 N1_2 1_555 1_555
C22_2 N2_2 1_555 1_555
C23_2 N2_2 1_555 1_555
C24_2 N3_2 1_555 1_555
C25_2 N3_2 1_555 1_555
C32_2 O4_2 1_555 1_555
C33_2 O5_2 1_555 1_555
C34_2 O6_2 1_555 1_555
C35_2 O7_2 1_555 1_555
C36_2 O8_2 1_555 1_555
C2_2 C3_2 1_555 1_555
C10_2 C21_2 1_555 1_555
C11_2 C22_2 1_555 1_555
C12_2 C23_2 1_555 1_555
C13_2 C24_2 1_555 1_555
C14_2 C25_2 1_555 1_555
C21_2 C32_2 1_555 1_555
C22_2 C33_2 1_555 1_555
C23_2 C34_2 1_555 1_555
C24_2 C35_2 1_555 1_555
C25_2 C36_2 1_555 1_555
Gd2_2 O9_2 1_555 1_555
O9_2 C37_2 1_555 1_555
O10_2 Gd2_2 1_555 1_555
O11_2 Gd2_2 1_555 1_555
O12_2 Gd2_2 1_555 1_555
O13_2 Gd2_2 1_555 1_555
O14_2 Gd2_2 1_555 1_555
O20 C39_2 1_555 1_555
O20_2 C40_2 1_555 1_555
O21_3 C41_2 1_555 1_555
O21_2 C42_2 1_555 1_555
N4_2 Gd2_2 1_555 1_555
N5_2 Gd2_2 1_555 1_555
N6_2 Gd2_2 1_555 1_555
C7_2 H5_2 1_555 1_555
C8_2 H6_2 1_555 1_555
C9_2 H7_2 1_555 1_555
C15_2 C7_2 1_555 1_555
C16_2 C8_2 1_555 1_555
C17_2 C7_2 1_555 1_555
C18_2 C8_2 1_555 1_555
C19_2 C9_2 1_555 1_555
C20_2 C9_2 1_555 1_555
H13_2 C15_2 1_555 1_555
H14_2 C16_2 1_555 1_555
H15_2 C17_2 1_555 1_555
H16_2 C18_2 1_555 1_555
H17_2 C19_2 1_555 1_555
H18_2 C20_2 1_555 1_555
C26_2 N4_2 1_555 1_555
C27_2 N5_2 1_555 1_555
C28_2 N4_2 1_555 1_555
C29_2 N5_2 1_555 1_555
C30_2 N6_2 1_555 1_555
C31_2 N6_2 1_555 1_555
C37_2 O25 1_555 1_555
C38_2 O10_2 1_555 1_555
C39_2 O11_2 1_555 1_555
C40_2 O12_2 1_555 1_555
C41_2 O13_2 1_555 1_555
C42_2 O14_2 1_555 1_555
O21 C38_2 1_555 1_555
C15_2 C26_2 1_555 1_555
C16_2 C27_2 1_555 1_555
C17_2 C28_2 1_555 1_555
C18_2 C29_2 1_555 1_555
C19_2 C30_2 1_555 1_555
C20_2 C31_2 1_555 1_555
C26_2 C37_2 1_555 1_555
C27_2 C38_2 1_555 1_555
C28_2 C42_2 1_555 1_555
C29_2 C40_2 1_555 1_555
C30_2 C39_2 1_555 1_555
C31_2 C41_2 1_555 1_555

#END
