
###############################################################################
#
# This file contains modified crystal structure data generated from the
# MOF subset of the Cambridge Structural Database (CSD) v543 
# hosted by the Cambridge Crystallographic Data Centre (CCDC).
#
# This work is licensed under the Creative Commons
# Attribution-NonCommercial-ShareAlike 4.0 International License.
# To view a copy of this license, visit
# http://creativecommons.org/licenses/by-nc-sa/4.0/
# or send a letter to
# Creative Commons, PO Box 1866, Mountain View, CA 94042, USA.
#
# CIF created using the CSD Python API on 29 September 2022
# The structure has been converted into the P1 space group
# The structure has a 3D framework
# The original CSD entry DUGBAJ is in the hexagonal crystal system
# The framework has been calculated to contain at least 10.0% void space
# The void calculation uses a probe of radius 1.32A, grid spacing 0.4
# H atom positions have been added when not included in the experimental data
# Generated hydrogen atom positions removed from atoms on special positions
#
###############################################################################

data_DUGBAJ
_chemical_formula_moiety         '(C84 H180 Fe15 N12 O66 Tb4)n'
_symmetry_cell_setting           triclinic
_symmetry_space_group_name_H-M   'P 1'
_symmetry_Int_Tables_number      1
_space_group_name_Hall           'P 1'
loop_
_symmetry_equiv_pos_site_id
_symmetry_equiv_pos_as_xyz
1 x,y,z
_cell_length_a                   15.199(2)
_cell_length_b                   15.199(2)
_cell_length_c                   15.589(5)
_cell_angle_alpha                90
_cell_angle_beta                 90
_cell_angle_gamma                120
_cell_volume                     3118.74
loop_
_atom_site_label
_atom_site_type_symbol
_atom_site_fract_x
_atom_site_fract_y
_atom_site_fract_z
Fe9 Fe -0.0000 0.5000 0.0000
O32 O 0.0631(4) 0.4479(3) 0.0920(2)
O38 O 0.1378(5) 0.6505(3) 0.0000
Fe9_2 Fe -0.0000 0.5000 1.0000
Fe11 Fe -0.0000 0.5000 0.5000
O33 O 0.0631(4) 0.4479(3) 0.9080(2)
O38_2 O 0.1378(5) 0.6505(3) 1.0000
Fe2 Fe 0.5000 -0.0000 0.5000
Fe5 Fe 0.5000 -0.0000 0.0000
Fe5_2 Fe 0.5000 -0.0000 1.0000
Tb1 Tb 0.3333 0.6667 0.2500
Fe1 Fe 0.5000 0.5000 0.0000
O1 O 0.4136(2) 0.6125(2) 0.14348(19)
O2 O 0.5521(3) 0.6152(3) 0.0920(2)
O3 O 0.6505(3) 0.5127(4) 0.0000
N1 N 0.5222(4) 0.76111(18) 0.2500
C1 C 0.7306(5) 0.8653(3) 0.2500
H1 H 0.8013 0.9006 0.2500
C2 C 0.6778(4) 0.7863(4) 0.1940(4)
H2 H 0.7121 0.7676 0.1553
C3 C 0.5736(3) 0.7353(3) 0.1961(3)
C4 C 0.5082(4) 0.6471(4) 0.1388(3)
Fe2_2 Fe 0.5000 1.0000 0.5000
Fe4 Fe 0.5000 0.5000 0.5000
Fe5_3 Fe 0.5000 1.0000 0.0000
Fe9_3 Fe 1.0000 0.5000 0.0000
O4 O 0.4136(2) 0.8011(3) 0.35652(19)
O5 O 0.1989(3) 0.5864(2) 0.14348(19)
O6 O 0.3875(2) 0.5864(2) 0.35652(19)
O7 O 0.3875(2) 0.8011(3) 0.14348(19)
O8 O 0.1989(3) 0.6125(2) 0.35652(19)
O15 O 0.5521(3) 0.9369(4) 0.4080(2)
O17 O 0.3848(3) 0.4479(3) 0.4080(2)
O18 O 0.3848(3) 0.9369(4) 0.0920(2)
O19 O 0.0631(4) 0.6152(3) 0.4080(2)
O23 O 0.4479(3) 0.3848(3) 0.0920(2)
O31 O 0.9369(4) 0.5521(3) 0.0920(2)
O34 O 0.3495(3) 0.4873(4) 0.0000
O37 O 0.8622(5) 0.3495(3) 0.0000
N2 N 0.23891(44) 0.4778(4) 0.2500
N3 N 0.23889(18) 0.76109(44) 0.2500
C5 C 0.1347(6) 0.2694(5) 0.2500
C6 C 0.1347(3) 0.8653(6) 0.2500
H3 H 0.0993 0.1987 0.2500
H4 H 0.0994 0.9007 0.2500
C10 C 0.6778(4) 0.8915(6) 0.3060(4)
C11 C 0.1085(6) 0.3222(4) 0.1940(4)
C12 C 0.2137(4) 0.3222(4) 0.3060(4)
C13 C 0.2137(4) 0.8915(6) 0.1940(4)
C14 C 0.1085(6) 0.7863(4) 0.3060(4)
H8 H 0.7121 0.9445 0.3447
H9 H 0.0555 0.2879 0.1553
H10 H 0.2324 0.2879 0.3447
H11 H 0.2324 0.9445 0.1553
H12 H 0.0555 0.7676 0.3447
C21 C 0.5736(3) 0.8383(4) 0.3039(3)
C22 C 0.1617(4) 0.4264(3) 0.1961(3)
C23 C 0.2647(3) 0.4264(3) 0.3039(3)
C24 C 0.2647(3) 0.8383(4) 0.1961(3)
C25 C 0.1617(4) 0.7353(3) 0.3039(3)
C32 C 0.5082(4) 0.8611(6) 0.3612(3)
C33 C 0.1389(6) 0.4918(4) 0.1388(3)
C34 C 0.3529(4) 0.4918(4) 0.3612(3)
C35 C 0.3529(4) 0.8611(6) 0.1388(3)
C36 C 0.1389(6) 0.6471(4) 0.3612(3)
Fe1_2 Fe 0.5000 0.5000 1.0000
O3_2 O 0.6505(3) 0.5127(4) 1.0000
Tb2 Tb 0.6667 0.3333 0.7500
Fe5_4 Fe 0.5000 1.0000 1.0000
Fe9_4 Fe 1.0000 0.5000 1.0000
Fe11_2 Fe 1.0000 0.5000 0.5000
O9 O 0.5864(2) 0.3875(2) 0.85652(19)
O10 O 0.5864(2) 0.1989(3) 0.64348(19)
O11 O 0.8011(3) 0.4136(2) 0.85652(19)
O12 O 0.6125(2) 0.4136(2) 0.64348(19)
O13 O 0.6125(2) 0.1989(3) 0.85652(19)
O14 O 0.8011(3) 0.3875(2) 0.64348(19)
O20 O 0.4479(3) 0.3848(3) 0.9080(2)
O21 O 0.4479(3) 0.0631(4) 0.5920(2)
O22 O 0.5521(3) 0.6152(3) 0.9080(2)
O27 O 0.6152(3) 0.5521(3) 0.5920(2)
O28 O 0.9369(4) 0.5521(3) 0.9080(2)
O29 O 0.6152(3) 0.0631(4) 0.9080(2)
O30 O 0.9369(4) 0.3848(3) 0.5920(2)
O34_2 O 0.3495(3) 0.4873(4) 1.0000
O37_2 O 0.8622(5) 0.3495(3) 1.0000
N4 N 0.4778(4) 0.23889(18) 0.7500
N5 N 0.76109(44) 0.5222(4) 0.7500
N6 N 0.76111(18) 0.23891(44) 0.7500
C7 C 0.2694(5) 0.1347(3) 0.7500
C8 C 0.8653(6) 0.7306(5) 0.7500
C9 C 0.8653(3) 0.1347(6) 0.7500
H5 H 0.1987 0.0994 0.7500
H6 H 0.9007 0.8013 0.7500
H7 H 0.9006 0.0993 0.7500
C15 C 0.3222(4) 0.2137(4) 0.8060(4)
C16 C 0.3222(4) 0.1085(6) 0.6940(4)
C17 C 0.8915(6) 0.6778(4) 0.8060(4)
C18 C 0.7863(4) 0.6778(4) 0.6940(4)
C19 C 0.7863(4) 0.1085(6) 0.8060(4)
C20 C 0.8915(6) 0.2137(4) 0.6940(4)
H13 H 0.2879 0.2324 0.8447
H14 H 0.2879 0.0555 0.6553
H15 H 0.9445 0.7121 0.8447
H16 H 0.7676 0.7121 0.6553
H17 H 0.7676 0.0555 0.8447
H18 H 0.9445 0.2324 0.6553
C26 C 0.4264(3) 0.2647(3) 0.8039(3)
C27 C 0.4264(3) 0.1617(4) 0.6961(3)
C28 C 0.8383(4) 0.5736(3) 0.8039(3)
C29 C 0.7353(3) 0.5736(3) 0.6961(3)
C30 C 0.7353(3) 0.1617(4) 0.8039(3)
C31 C 0.8383(4) 0.2647(3) 0.6961(3)
C37 C 0.4918(4) 0.3529(4) 0.8612(3)
C38 C 0.4918(4) 0.1389(6) 0.6388(3)
C39 C 0.8611(6) 0.5082(4) 0.8612(3)
C40 C 0.6471(4) 0.5082(4) 0.6388(3)
C41 C 0.6471(4) 0.1389(6) 0.8612(3)
C42 C 0.8611(6) 0.3529(4) 0.6388(3)
O3_3 O 0.4873(4) 0.1378(5) 0.0000
O23_2 O 0.6152(3) 0.0631(4) 0.0920(2)
O3_4 O 0.4873(4) 0.1378(5) 1.0000
O34_3 O 0.5127(4) 0.8622(5) 0.0000
O22_2 O 0.3848(3) 0.9369(4) 0.9080(2)
O34_4 O 0.5127(4) 0.8622(5) 1.0000
Tb1_2 Tb 0.6667 0.3333 0.2500
O1_2 O 0.5864(2) 0.3875(2) 0.14348(19)
N1_2 N 0.4778(4) 0.23889(18) 0.2500
C1_2 C 0.2694(5) 0.1347(3) 0.2500
H1_2 H 0.1987 0.0994 0.2500
C2_2 C 0.3222(4) 0.2137(4) 0.1940(4)
H2_2 H 0.2879 0.2324 0.1553
C3_2 C 0.4264(3) 0.2647(3) 0.1961(3)
C4_2 C 0.4918(4) 0.3529(4) 0.1388(3)
O4_2 O 0.5864(2) 0.1989(3) 0.35652(19)
O5_2 O 0.8011(3) 0.4136(2) 0.14348(19)
O6_2 O 0.6125(2) 0.4136(2) 0.35652(19)
O7_2 O 0.6125(2) 0.1989(3) 0.14348(19)
O8_2 O 0.8011(3) 0.3875(2) 0.35652(19)
O15_2 O 0.4479(3) 0.0631(4) 0.4080(2)
O17_2 O 0.6152(3) 0.5521(3) 0.4080(2)
O19_2 O 0.9369(4) 0.3848(3) 0.4080(2)
N2_2 N 0.76109(44) 0.5222(4) 0.2500
N3_2 N 0.76111(18) 0.23891(44) 0.2500
C5_2 C 0.8653(6) 0.7306(5) 0.2500
C6_2 C 0.8653(3) 0.1347(6) 0.2500
H3_2 H 0.9007 0.8013 0.2500
H4_2 H 0.9006 0.0993 0.2500
C10_2 C 0.3222(4) 0.1085(6) 0.3060(4)
C11_2 C 0.8915(6) 0.6778(4) 0.1940(4)
C12_2 C 0.7863(4) 0.6778(4) 0.3060(4)
C13_2 C 0.7863(4) 0.1085(6) 0.1940(4)
C14_2 C 0.8915(6) 0.2137(4) 0.3060(4)
H8_2 H 0.2879 0.0555 0.3447
H9_2 H 0.9445 0.7121 0.1553
H10_2 H 0.7676 0.7121 0.3447
H11_2 H 0.7676 0.0555 0.1553
H12_2 H 0.9445 0.2324 0.3447
C21_2 C 0.4264(3) 0.1617(4) 0.3039(3)
C22_2 C 0.8383(4) 0.5736(3) 0.1961(3)
C23_2 C 0.7353(3) 0.5736(3) 0.3039(3)
C24_2 C 0.7353(3) 0.1617(4) 0.1961(3)
C25_2 C 0.8383(4) 0.2647(3) 0.3039(3)
C32_2 C 0.4918(4) 0.1389(6) 0.3612(3)
C33_2 C 0.8611(6) 0.5082(4) 0.1388(3)
C34_2 C 0.6471(4) 0.5082(4) 0.3612(3)
C35_2 C 0.6471(4) 0.1389(6) 0.1388(3)
C36_2 C 0.8611(6) 0.3529(4) 0.3612(3)
Tb2_2 Tb 0.3333 0.6667 0.7500
O9_2 O 0.4136(2) 0.6125(2) 0.85652(19)
O10_2 O 0.4136(2) 0.8011(3) 0.64348(19)
O11_2 O 0.1989(3) 0.5864(2) 0.85652(19)
O12_2 O 0.3875(2) 0.5864(2) 0.64348(19)
O13_2 O 0.3875(2) 0.8011(3) 0.85652(19)
O14_2 O 0.1989(3) 0.6125(2) 0.64348(19)
O21_2 O 0.5521(3) 0.9369(4) 0.5920(2)
O27_2 O 0.3848(3) 0.4479(3) 0.5920(2)
O30_2 O 0.0631(4) 0.6152(3) 0.5920(2)
N4_2 N 0.5222(4) 0.76111(18) 0.7500
N5_2 N 0.23891(44) 0.4778(4) 0.7500
N6_2 N 0.23889(18) 0.76109(44) 0.7500
C7_2 C 0.7306(5) 0.8653(3) 0.7500
C8_2 C 0.1347(6) 0.2694(5) 0.7500
C9_2 C 0.1347(3) 0.8653(6) 0.7500
H5_2 H 0.8013 0.9006 0.7500
H6_2 H 0.0993 0.1987 0.7500
H7_2 H 0.0994 0.9007 0.7500
C15_2 C 0.6778(4) 0.7863(4) 0.8060(4)
C16_2 C 0.6778(4) 0.8915(6) 0.6940(4)
C17_2 C 0.1085(6) 0.3222(4) 0.8060(4)
C18_2 C 0.2137(4) 0.3222(4) 0.6940(4)
C19_2 C 0.2137(4) 0.8915(6) 0.8060(4)
C20_2 C 0.1085(6) 0.7863(4) 0.6940(4)
H13_2 H 0.7121 0.7676 0.8447
H14_2 H 0.7121 0.9445 0.6553
H15_2 H 0.0555 0.2879 0.8447
H16_2 H 0.2324 0.2879 0.6553
H17_2 H 0.2324 0.9445 0.8447
H18_2 H 0.0555 0.7676 0.6553
C26_2 C 0.5736(3) 0.7353(3) 0.8039(3)
C27_2 C 0.5736(3) 0.8383(4) 0.6961(3)
C28_2 C 0.1617(4) 0.4264(3) 0.8039(3)
C29_2 C 0.2647(3) 0.4264(3) 0.6961(3)
C30_2 C 0.2647(3) 0.8383(4) 0.8039(3)
C31_2 C 0.1617(4) 0.7353(3) 0.6961(3)
C37_2 C 0.5082(4) 0.6471(4) 0.8612(3)
C38_2 C 0.5082(4) 0.8611(6) 0.6388(3)
C39_2 C 0.1389(6) 0.4918(4) 0.8612(3)
C40_2 C 0.3529(4) 0.4918(4) 0.6388(3)
C41_2 C 0.3529(4) 0.8611(6) 0.8612(3)
C42_2 C 0.1389(6) 0.6471(4) 0.6388(3)
O38_3 O 0.6505(3) 0.1378(5) 0.5000
O3_5 O 0.5127(4) 0.6505(3) 0.5000
O34_5 O 0.4873(4) 0.3495(3) 0.5000
O37_3 O 0.3495(3) 0.8622(5) 0.5000
O3_6 O 0.1378(5) 0.4873(4) 0.5000
O34_6 O 0.8622(5) 0.5127(4) 0.5000
loop_
_geom_bond_atom_site_label_1
_geom_bond_atom_site_label_2
_geom_bond_site_symmetry_1
_geom_bond_site_symmetry_2
O32 Fe9 1_555 1_555
O38 Fe9 1_555 1_555
O33 Fe9_2 1_555 1_555
O38_2 Fe9_2 1_555 1_555
Tb1 O1 1_555 1_555
Fe1 O2 1_555 1_555
O1 C4 1_555 1_555
O2 C4 1_555 1_555
O3 Fe1 1_555 1_555
N1 Tb1 1_555 1_555
C1 H1 1_555 1_555
C2 C1 1_555 1_555
H2 C2 1_555 1_555
C3 N1 1_555 1_555
C4 C3 1_555 1_555
Fe2_2 O15 1_555 1_555
Fe4 O17 1_555 1_555
Fe5_3 O18 1_555 1_555
Fe11 O19 1_555 1_555
O4 Tb1 1_555 1_555
O5 Tb1 1_555 1_555
O6 Tb1 1_555 1_555
O7 Tb1 1_555 1_555
O8 Tb1 1_555 1_555
O15 C32 1_555 1_555
O32 C33 1_555 1_555
O17 C34 1_555 1_555
O18 C35 1_555 1_555
O19 C36 1_555 1_555
O23 Fe1 1_555 1_555
O31 Fe9_3 1_555 1_555
O34 Fe1 1_555 1_555
O37 Fe9_3 1_555 1_555
N2 Tb1 1_555 1_555
N3 Tb1 1_555 1_555
C5 H3 1_555 1_555
C6 H4 1_555 1_555
C10 C1 1_555 1_555
C11 C5 1_555 1_555
C12 C5 1_555 1_555
C13 C6 1_555 1_555
C14 C6 1_555 1_555
H8 C10 1_555 1_555
H9 C11 1_555 1_555
H10 C12 1_555 1_555
H11 C13 1_555 1_555
H12 C14 1_555 1_555
C21 N1 1_555 1_555
C22 N2 1_555 1_555
C23 N2 1_555 1_555
C24 N3 1_555 1_555
C25 N3 1_555 1_555
C32 O4 1_555 1_555
C33 O5 1_555 1_555
C34 O6 1_555 1_555
C35 O7 1_555 1_555
C36 O8 1_555 1_555
C2 C3 1_555 1_555
C10 C21 1_555 1_555
C11 C22 1_555 1_555
C12 C23 1_555 1_555
C13 C24 1_555 1_555
C14 C25 1_555 1_555
C21 C32 1_555 1_555
C22 C33 1_555 1_555
C23 C34 1_555 1_555
C24 C35 1_555 1_555
C25 C36 1_555 1_555
O3_2 Fe1_2 1_555 1_555
Tb2 O9 1_555 1_555
Fe2 O21 1_555 1_555
Fe4 O27 1_555 1_555
Fe9_4 O28 1_555 1_555
Fe5_2 O29 1_555 1_555
Fe11_2 O30 1_555 1_555
O9 C37 1_555 1_555
O10 Tb2 1_555 1_555
O11 Tb2 1_555 1_555
O12 Tb2 1_555 1_555
O13 Tb2 1_555 1_555
O14 Tb2 1_555 1_555
O20 Fe1_2 1_555 1_555
O21 C38 1_555 1_555
O22 Fe1_2 1_555 1_555
O27 C40 1_555 1_555
O28 C39 1_555 1_555
O29 C41 1_555 1_555
O30 C42 1_555 1_555
O34_2 Fe1_2 1_555 1_555
O37_2 Fe9_4 1_555 1_555
N4 Tb2 1_555 1_555
N5 Tb2 1_555 1_555
N6 Tb2 1_555 1_555
C7 H5 1_555 1_555
C8 H6 1_555 1_555
C9 H7 1_555 1_555
C15 C7 1_555 1_555
C16 C7 1_555 1_555
C17 C8 1_555 1_555
C18 C8 1_555 1_555
C19 C9 1_555 1_555
C20 C9 1_555 1_555
H13 C15 1_555 1_555
H14 C16 1_555 1_555
H15 C17 1_555 1_555
H16 C18 1_555 1_555
H17 C19 1_555 1_555
H18 C20 1_555 1_555
C26 N4 1_555 1_555
C27 N4 1_555 1_555
C28 N5 1_555 1_555
C29 N5 1_555 1_555
C30 N6 1_555 1_555
C31 N6 1_555 1_555
C37 O20 1_555 1_555
C38 O10 1_555 1_555
C39 O11 1_555 1_555
C40 O12 1_555 1_555
C41 O13 1_555 1_555
C42 O14 1_555 1_555
C15 C26 1_555 1_555
C16 C27 1_555 1_555
C17 C28 1_555 1_555
C18 C29 1_555 1_555
C19 C30 1_555 1_555
C20 C31 1_555 1_555
C26 C37 1_555 1_555
C27 C38 1_555 1_555
C28 C39 1_555 1_555
C29 C40 1_555 1_555
C30 C41 1_555 1_555
C31 C42 1_555 1_555
O3_3 Fe5 1_555 1_555
O23_2 Fe5 1_555 1_555
O3_4 Fe5_2 1_555 1_555
O34_3 Fe5_3 1_555 1_555
O22_2 Fe5_4 1_555 1_555
O34_4 Fe5_4 1_555 1_555
Tb1_2 O1_2 1_555 1_555
O1_2 C4_2 1_555 1_555
O23 C4_2 1_555 1_555
N1_2 Tb1_2 1_555 1_555
C1_2 H1_2 1_555 1_555
C2_2 C1_2 1_555 1_555
H2_2 C2_2 1_555 1_555
C3_2 N1_2 1_555 1_555
C4_2 C3_2 1_555 1_555
Fe2 O15_2 1_555 1_555
Fe4 O17_2 1_555 1_555
Fe11_2 O19_2 1_555 1_555
O4_2 Tb1_2 1_555 1_555
O5_2 Tb1_2 1_555 1_555
O6_2 Tb1_2 1_555 1_555
O7_2 Tb1_2 1_555 1_555
O8_2 Tb1_2 1_555 1_555
O15_2 C32_2 1_555 1_555
O31 C33_2 1_555 1_555
O17_2 C34_2 1_555 1_555
O23_2 C35_2 1_555 1_555
O19_2 C36_2 1_555 1_555
N2_2 Tb1_2 1_555 1_555
N3_2 Tb1_2 1_555 1_555
C5_2 H3_2 1_555 1_555
C6_2 H4_2 1_555 1_555
C10_2 C1_2 1_555 1_555
C11_2 C5_2 1_555 1_555
C12_2 C5_2 1_555 1_555
C13_2 C6_2 1_555 1_555
C14_2 C6_2 1_555 1_555
H8_2 C10_2 1_555 1_555
H9_2 C11_2 1_555 1_555
H10_2 C12_2 1_555 1_555
H11_2 C13_2 1_555 1_555
H12_2 C14_2 1_555 1_555
C21_2 N1_2 1_555 1_555
C22_2 N2_2 1_555 1_555
C23_2 N2_2 1_555 1_555
C24_2 N3_2 1_555 1_555
C25_2 N3_2 1_555 1_555
C32_2 O4_2 1_555 1_555
C33_2 O5_2 1_555 1_555
C34_2 O6_2 1_555 1_555
C35_2 O7_2 1_555 1_555
C36_2 O8_2 1_555 1_555
C2_2 C3_2 1_555 1_555
C10_2 C21_2 1_555 1_555
C11_2 C22_2 1_555 1_555
C12_2 C23_2 1_555 1_555
C13_2 C24_2 1_555 1_555
C14_2 C25_2 1_555 1_555
C21_2 C32_2 1_555 1_555
C22_2 C33_2 1_555 1_555
C23_2 C34_2 1_555 1_555
C24_2 C35_2 1_555 1_555
C25_2 C36_2 1_555 1_555
Tb2_2 O9_2 1_555 1_555
Fe2_2 O21_2 1_555 1_555
Fe4 O27_2 1_555 1_555
Fe11 O30_2 1_555 1_555
O9_2 C37_2 1_555 1_555
O10_2 Tb2_2 1_555 1_555
O11_2 Tb2_2 1_555 1_555
O12_2 Tb2_2 1_555 1_555
O13_2 Tb2_2 1_555 1_555
O14_2 Tb2_2 1_555 1_555
O21_2 C38_2 1_555 1_555
O27_2 C40_2 1_555 1_555
O33 C39_2 1_555 1_555
O22_2 C41_2 1_555 1_555
O30_2 C42_2 1_555 1_555
N4_2 Tb2_2 1_555 1_555
N5_2 Tb2_2 1_555 1_555
N6_2 Tb2_2 1_555 1_555
C7_2 H5_2 1_555 1_555
C8_2 H6_2 1_555 1_555
C9_2 H7_2 1_555 1_555
C15_2 C7_2 1_555 1_555
C16_2 C7_2 1_555 1_555
C17_2 C8_2 1_555 1_555
C18_2 C8_2 1_555 1_555
C19_2 C9_2 1_555 1_555
C20_2 C9_2 1_555 1_555
H13_2 C15_2 1_555 1_555
H14_2 C16_2 1_555 1_555
H15_2 C17_2 1_555 1_555
H16_2 C18_2 1_555 1_555
H17_2 C19_2 1_555 1_555
H18_2 C20_2 1_555 1_555
C26_2 N4_2 1_555 1_555
C27_2 N4_2 1_555 1_555
C28_2 N5_2 1_555 1_555
C29_2 N5_2 1_555 1_555
C30_2 N6_2 1_555 1_555
C31_2 N6_2 1_555 1_555
C37_2 O22 1_555 1_555
C38_2 O10_2 1_555 1_555
C39_2 O11_2 1_555 1_555
C40_2 O12_2 1_555 1_555
C41_2 O13_2 1_555 1_555
C42_2 O14_2 1_555 1_555
C15_2 C26_2 1_555 1_555
C16_2 C27_2 1_555 1_555
C17_2 C28_2 1_555 1_555
C18_2 C29_2 1_555 1_555
C19_2 C30_2 1_555 1_555
C20_2 C31_2 1_555 1_555
C26_2 C37_2 1_555 1_555
C27_2 C38_2 1_555 1_555
C28_2 C39_2 1_555 1_555
C29_2 C40_2 1_555 1_555
C30_2 C41_2 1_555 1_555
C31_2 C42_2 1_555 1_555
O38_3 Fe2 1_555 1_555
O3_5 Fe4 1_555 1_555
O34_5 Fe4 1_555 1_555
O37_3 Fe2_2 1_555 1_555
O3_6 Fe11 1_555 1_555
O34_6 Fe11_2 1_555 1_555

#END
