
###############################################################################
#
# This file contains modified crystal structure data generated from the
# MOF subset of the Cambridge Structural Database (CSD) v543 
# hosted by the Cambridge Crystallographic Data Centre (CCDC).
#
# This work is licensed under the Creative Commons
# Attribution-NonCommercial-ShareAlike 4.0 International License.
# To view a copy of this license, visit
# http://creativecommons.org/licenses/by-nc-sa/4.0/
# or send a letter to
# Creative Commons, PO Box 1866, Mountain View, CA 94042, USA.
#
# CIF created using the CSD Python API on 29 September 2022
# The structure has been converted into the P1 space group
# The structure has a 3D framework
# The original CSD entry DUGGOD is in the monoclinic crystal system
# The framework has been calculated to contain at least 10.0% void space
# The void calculation uses a probe of radius 1.32A, grid spacing 0.4
# H atom positions have been added when not included in the experimental data
#
###############################################################################

data_DUGGOD
_chemical_formula_moiety         '(C40 H56 Cu12 N59 O86 Si2 W24)n'
_symmetry_cell_setting           triclinic
_symmetry_space_group_name_H-M   'P 1'
_symmetry_Int_Tables_number      1
_space_group_name_Hall           'P 1'
loop_
_symmetry_equiv_pos_site_id
_symmetry_equiv_pos_as_xyz
1 x,y,z
_cell_length_a                   11.926(5)
_cell_length_b                   14.419(5)
_cell_length_c                   24.311(5)
_cell_angle_alpha                90
_cell_angle_beta                 103.424(5)
_cell_angle_gamma                90
_cell_volume                     4066.33
loop_
_atom_site_label
_atom_site_type_symbol
_atom_site_fract_x
_atom_site_fract_y
_atom_site_fract_z
C3 C 0.1223(17) 0.5440(13) 0.4407(9)
H3 H 0.0758 0.5944 0.4443
C4 C 0.1805(17) 0.4089(15) 0.4322(10)
H4 H 0.1859 0.3451 0.4279
H5 H 0.0102 0.3552 0.3255
C11 C 0.6830(19) 0.4331(15) 0.4360(10)
H11 H 0.6900 0.4971 0.4329
C12 C 0.030(2) 0.0518(16) 0.4606(11)
H12 H 0.0802 0.1014 0.4623
C20 C 0.6215(18) 0.2997(14) 0.4471(11)
H20 H 0.5740 0.2507 0.4520
N10 N 0.0835(15) 0.4521(12) 0.4369(8)
N11 N 0.2665(16) 0.4656(12) 0.4344(9)
N12 N 0.5857(16) 0.3900(12) 0.4374(8)
N28 N 0.7306(18) 0.2920(13) 0.4485(9)
N29 N 0.7686(15) 0.3739(11) 0.4393(9)
N30 N 0.2225(15) 0.5513(13) 0.4387(9)
O3 O 0.358(3) 0.337(2) 0.3547(13)
Cu6 Cu 0.4307(2) 0.43535(17) 0.43685(12)
N31 N 0.4394(17) 0.5387(13) 0.3786(8)
O47 O 0.4203(14) 0.3439(13) 0.4972(8)
Cu8 Cu 0.3170(2) 0.67079(17) 0.44329(12)
Cu11 Cu 0.8219(2) 0.17289(17) 0.45284(12)
Cu13 Cu 0.9321(2) 0.40457(19) 0.43908(13)
H25 H 0.313527 0.375335 0.323157
H26 H 0.423769 0.307257 0.342894
H27 H 0.0066154 0.501007 0.529154
N25 N 0.0633(15) 0.9601(13) 0.4619(9)
Cu7 Cu 0.2193(2) 0.91698(17) 0.46140(12)
C2 C 0.896(3) 0.1703(16) 0.3447(11)
H2 H 0.8759 0.1081 0.3394
C5 C 0.969(4) 0.3064(19) 0.3362(13)
C8 C 0.666(3) 0.0506(17) 0.5690(11)
H8 H 0.6306 0.0018 0.5832
C14 C 0.743(3) 0.1821(16) 0.5640(12)
H14 H 0.7736 0.2406 0.5745
C16 C 0.603(2) 0.1367(19) 0.3396(13)
H16 H 0.6062 0.1967 0.3261
C17 C 0.284(3) 0.116(2) 0.4193(13)
H17 H 0.3245 0.1329 0.4553
C18 C 0.192(3) 0.030(2) 0.3567(14)
N4 N 0.6392(16) 0.0187(12) 0.3920(9)
N5 N 0.670(2) 0.1051(15) 0.3867(10)
N6 N 0.7086(17) 0.0454(13) 0.5220(9)
N7 N 0.7552(15) 0.1343(13) 0.5173(9)
N8 N 0.8947(16) 0.2137(12) 0.3876(9)
N9 N 0.9354(17) 0.3017(13) 0.3822(10)
N17 N 0.682(2) 0.1331(17) 0.5917(12)
N18 N 0.9162(16) 0.0616(12) 0.4568(8)
N19 N 0.933(2) 0.2253(18) 0.3041(11)
N22 N 0.2327(16) 0.0264(14) 0.4078(9)
N23 N 0.526(2) 0.0702(17) 0.3126(11)
N26 N 0.217(3) 0.113(2) 0.3352(11)
N27 N 0.271(3) 0.169(2) 0.3802(14)
O1 O 0.1921(13) 0.2849(11) 0.6695(7)
O2 O 0.3499(13) 0.1504(11) 0.6838(8)
O4 O 0.4046(13) 0.3237(9) 0.6636(6)
O5 O 0.931(2) 0.5016(19) 0.5014(13)
O6 O 0.3586(11) 0.2780(10) 0.7621(6)
O8 O 0.1986(15) 0.4329(12) 0.7516(7)
O9 O 0.0494(15) 0.3912(11) 0.5978(8)
O11 O 0.2774(15) 0.3328(10) 0.8430(8)
O12 O 0.4317(15) 0.2021(11) 0.8578(8)
O13 O 0.4063(15) 0.4725(13) 0.7441(8)
O14 O 0.5647(17) 0.4507(11) 0.6874(9)
O15 O 0.4914(13) 0.3708(11) 0.8380(8)
O16 O 0.5931(16) 0.1850(13) 0.6852(9)
O17 O 0.5431(15) 0.1424(11) 0.7794(8)
O18 O 0.2924(15) 0.0964(12) 0.7872(7)
O20 O 0.1723(13) 0.1516(10) 0.5722(7)
O21 O 0.3890(13) 0.1885(9) 0.5687(7)
O22 O 0.2292(13) 0.3275(10) 0.5557(7)
O23 O 0.0246(16) 0.5227(14) 0.6754(8)
O24 O 0.4216(15) 0.6065(12) 0.6659(9)
O25 O 0.6522(18) 0.0099(13) 0.7290(10)
O26 O 0.7502(16) 0.3361(13) 0.6939(9)
O27 O 0.5973(15) 0.3152(12) 0.7651(7)
O28 O 0.2995(15) 0.0060(12) 0.5342(8)
O29 O 0.6644(15) 0.2413(12) 0.8756(8)
O30 O 0.5634(13) 0.3213(12) 0.6076(8)
O31 O 0.4694(15) 0.0440(13) 0.6370(7)
O33 O 0.0063(16) 0.3411(13) 0.6996(9)
O34 O 0.1206(14) 0.0986(13) 0.6964(7)
O36 O 0.3957(17) 0.4579(13) 0.5892(10)
O40 O 0.1295(13) 0.2255(10) 0.7714(7)
O41 O 0.2222(16) 0.1707(12) 0.8861(8)
O42 O 0.3393(16) 0.5173(13) 0.8462(9)
O43 O 0.2441(15) 0.4790(12) 0.6569(7)
Si1 Si 0.3237(5) 0.2598(4) 0.6949(3)
W1 W 0.60738(7) 0.32242(6) 0.68719(4)
W2 W 0.54212(8) 0.25209(7) 0.82299(4)
W3 W 0.34341(8) 0.42417(6) 0.80361(4)
W4 W 0.52975(7) 0.07703(6) 0.71054(4)
W5 W 0.26555(8) 0.20593(6) 0.82618(4)
W6 W 0.10730(7) 0.43043(6) 0.67619(4)
W7 W 0.09669(13) 0.26821(12) 0.57042(7)
W8 W 0.40394(8) 0.48883(6) 0.66585(4)
W9 W 0.39482(16) 0.31909(13) 0.56546(8)
W10 W 0.30991(14) 0.08292(11) 0.59102(7)
W11 W 0.03419(7) 0.20791(7) 0.69510(4)
W12 W 0.25917(8) 0.02416(6) 0.71845(4)
O46 O 0.9971(16) 0.2735(13) 0.5056(8)
Cu9 Cu 0.8170(2) 0.32921(17) 0.94329(12)
Cu10 Cu 0.2146(2) 0.06819(17) 0.95901(12)
H28 H 0.916942 0.564144 0.484072
C1 C 0.4649(19) 0.9248(16) 0.4628(10)
H1 H 0.4648 0.9878 0.4711
C6 C 0.240(2) 0.6776(18) 0.5529(12)
H6 H 0.2648 0.6169 0.5608
C7 C 0.182(2) 0.8133(15) 0.5601(11)
H7 H 0.1578 0.8672 0.5750
C9 C 0.395(3) 0.671(2) 0.3350(14)
H9 H 0.3726 0.7326 0.3283
C10 C 0.473(2) 0.529(2) 0.3328(13)
H10 H 0.5090 0.4773 0.3221
C13 C 0.965(2) 0.9120(16) 0.4584(13)
H13 H 0.9602 0.8477 0.4560
C15 C 0.522(2) 0.7913(16) 0.4512(11)
H15 H 0.5695 0.7409 0.4489
H18 H 0.1492 0.9826 0.3355
C19 C 0.557(2) 0.994(3) 0.3473(15)
H19 H 0.5250 0.9349 0.3405
N1 N 0.3743(17) 0.8767(14) 0.4545(9)
N2 N 0.4151(16) 0.7846(12) 0.4473(9)
N3 N 0.5608(15) 0.8802(11) 0.4591(8)
N13 N 0.2439(17) 0.7226(13) 0.5065(9)
N14 N 0.2067(16) 0.8063(11) 0.5112(8)
N15 N 0.197(2) 0.7295(17) 0.5864(12)
N16 N 0.3861(17) 0.6216(12) 0.3780(9)
N20 N 0.446(2) 0.6147(16) 0.3000(11)
N24 N 0.8751(16) 0.9679(12) 0.4589(8)
O7 O 0.468(2) 0.5812(17) 0.5050(12)
O19 O 0.4211(15) 0.9983(11) 0.7356(7)
O32 O 0.2471(15) 0.9979(11) 0.6414(8)
O37 O 0.2063(16) 0.9223(11) 0.7386(8)
O44 O 0.7920(13) 0.8268(12) 0.5294(8)
Cu3 Cu 0.7146(2) 0.93181(17) 0.45901(12)
O45 O 0.1644(15) 0.7587(12) 0.3756(8)
O48 O 0.7222(16) 0.8293(12) 0.3861(8)
H21 H 0.491109 0.612284 0.542372
H22 H 0.438882 0.51797 0.509987
H23 H 0.773255 0.762746 0.51522
H24 H 0.876996 0.834637 0.540473
O10 O 0.9919(14) 0.2131(12) 0.6159(8)
O35 O 0.9044(17) 0.1664(13) 0.7056(10)
C11_2 C 0.1830(19) 0.5669(15) 0.9360(10)
H11_2 H 0.1900 0.5029 0.9329
C20_2 C 0.1215(18) 0.7003(14) 0.9471(11)
H20_2 H 0.0740 0.7493 0.9520
N12_2 N 0.0857(16) 0.6100(12) 0.9374(8)
N28_2 N 0.2306(18) 0.7080(13) 0.9485(9)
N29_2 N 0.2686(15) 0.6261(11) 0.9393(9)
Cu11_2 Cu 0.3219(2) 0.82711(17) 0.95284(12)
Cu13_2 Cu 0.4321(2) 0.59543(19) 0.93908(13)
H10_2 H 0.0090 0.5227 0.8221
C13_2 C 0.465(2) 0.0880(16) 0.9584(13)
H13_2 H 0.4602 0.1523 0.9560
C15_2 C 0.022(2) 0.2087(16) 0.9512(11)
H15_2 H 0.0695 0.2591 0.9489
C19_2 C 0.057(2) 0.006(3) 0.8473(15)
H19_2 H 0.0250 0.0651 0.8405
N3_2 N 0.0608(15) 0.1198(11) 0.9591(8)
N24_2 N 0.3751(16) 0.0321(12) 0.9589(8)
N25_2 N 0.5633(15) 0.0399(13) 0.9619(9)
Cu7_2 Cu 0.7193(2) 0.08302(17) 0.96140(12)
C8_2 C 0.166(3) 0.9494(17) 0.0690(11)
H8_2 H 0.1306 0.9982 0.0832
C14_2 C 0.243(3) 0.8179(16) 0.0640(12)
H14_2 H 0.2736 0.7594 0.0745
N6_2 N 0.2086(17) 0.9546(13) 0.0220(9)
N7_2 N 0.2552(15) 0.8657(13) 0.0173(9)
N17_2 N 0.182(2) 0.8669(17) 0.0917(12)
O5_2 O 0.431(2) 0.4984(19) 0.0014(13)
O14_2 O 0.0647(17) 0.5493(11) 0.1874(9)
O16_2 O 0.0931(16) 0.8150(13) 0.1852(9)
O17_2 O 0.0431(15) 0.8576(11) 0.2794(8)
O25_2 O 0.1522(18) 0.9901(13) 0.2290(10)
O26_2 O 0.2502(16) 0.6639(13) 0.1939(9)
O27_2 O 0.0973(15) 0.6848(12) 0.2651(7)
O30_2 O 0.0634(13) 0.6787(12) 0.1076(8)
W1_2 W 0.10738(7) 0.67758(6) 0.18719(4)
W2_2 W 0.04212(8) 0.74791(7) 0.32299(4)
W4_2 W 0.02975(7) 0.92297(6) 0.21054(4)
O46_2 O 0.4971(16) 0.7265(13) 0.0056(8)
H27_2 H 0.506615 0.498993 0.0291545
C2_2 C 0.396(3) 0.8297(16) 0.8447(11)
H2_2 H 0.3759 0.8919 0.8394
C3_2 C 0.6223(17) 0.4560(13) 0.9407(9)
H3_2 H 0.5758 0.4056 0.9443
C4_2 C 0.6805(17) 0.5911(15) 0.9322(10)
H4_2 H 0.6859 0.6549 0.9279
C5_2 C 0.469(4) 0.6936(19) 0.8362(13)
H5_2 H 0.5102 0.6448 0.8255
C12_2 C 0.530(2) 0.9482(16) 0.9606(11)
H12_2 H 0.5802 0.8986 0.9623
C16_2 C 0.103(2) 0.8633(19) 0.8396(13)
H16_2 H 0.1062 0.8033 0.8261
N4_2 N 0.1392(16) 0.9813(12) 0.8920(9)
N5_2 N 0.170(2) 0.8949(15) 0.8867(10)
N8_2 N 0.3947(16) 0.7863(12) 0.8876(9)
N9_2 N 0.4354(17) 0.6983(13) 0.8822(10)
N10_2 N 0.5835(15) 0.5479(12) 0.9369(8)
N11_2 N 0.7665(16) 0.5344(12) 0.9344(9)
N18_2 N 0.4162(16) 0.9384(12) 0.9568(8)
N19_2 N 0.433(2) 0.7747(18) 0.8041(11)
N23_2 N 0.026(2) 0.9298(17) 0.8126(11)
N30_2 N 0.7225(15) 0.4487(13) 0.9387(9)
O3_2 O 0.858(3) 0.663(2) 0.8547(13)
Cu6_2 Cu 0.9307(2) 0.56465(17) 0.93685(12)
N31_2 N 0.9394(17) 0.4613(13) 0.8786(8)
O47_2 O 0.9203(14) 0.6561(13) 0.9972(8)
H25_2 H 0.813527 0.624665 0.823157
H26_2 H 0.923769 0.692743 0.842894
H28_2 H 0.416942 0.435856 0.984072
C1_2 C 0.9649(19) 0.0752(16) 0.9628(10)
H1_2 H 0.9648 0.0122 0.9711
C9_2 C 0.895(3) 0.329(2) 0.8350(14)
H9_2 H 0.8726 0.2674 0.8283
C10_2 C 0.973(2) 0.471(2) 0.8328(13)
H18_2 H 0.6492 0.0174 0.8355
N1_2 N 0.8743(17) 0.1233(14) 0.9545(9)
N2_2 N 0.9151(16) 0.2154(12) 0.9473(9)
N16_2 N 0.8861(17) 0.3784(12) 0.8780(9)
N20_2 N 0.946(2) 0.3853(16) 0.8000(11)
O1_2 O 0.6921(13) 0.7151(11) 0.1695(7)
O2_2 O 0.8499(13) 0.8496(11) 0.1838(8)
O4_2 O 0.9046(13) 0.6763(9) 0.1636(6)
O6_2 O 0.8586(11) 0.7220(10) 0.2621(6)
O8_2 O 0.6986(15) 0.5671(12) 0.2516(7)
O9_2 O 0.5494(15) 0.6088(11) 0.0978(8)
O10_2 O 0.4919(14) 0.7869(12) 0.1159(8)
O11_2 O 0.7774(15) 0.6672(10) 0.3430(8)
O12_2 O 0.9317(15) 0.7979(11) 0.3578(8)
O13_2 O 0.9063(15) 0.5275(13) 0.2441(8)
O15_2 O 0.9914(13) 0.6292(11) 0.3380(8)
O18_2 O 0.7924(15) 0.9036(12) 0.2872(7)
O20_2 O 0.6723(13) 0.8484(10) 0.0722(7)
O21_2 O 0.8890(13) 0.8115(9) 0.0687(7)
O22_2 O 0.7292(13) 0.6725(10) 0.0557(7)
O23_2 O 0.5246(16) 0.4773(14) 0.1754(8)
O24_2 O 0.9216(15) 0.3935(12) 0.1659(9)
O28_2 O 0.7995(15) 0.9940(12) 0.0342(8)
O31_2 O 0.9694(15) 0.9560(13) 0.1370(7)
O33_2 O 0.5063(16) 0.6589(13) 0.1996(9)
O34_2 O 0.6206(14) 0.9014(13) 0.1964(7)
O35_2 O 0.4044(17) 0.8336(13) 0.2056(10)
O36_2 O 0.8957(17) 0.5421(13) 0.0892(10)
O40_2 O 0.6295(13) 0.7745(10) 0.2714(7)
O42_2 O 0.8393(16) 0.4827(13) 0.3462(9)
O43_2 O 0.7441(15) 0.5210(12) 0.1569(7)
Si1_2 Si 0.8237(5) 0.7402(4) 0.1949(3)
W3_2 W 0.84341(8) 0.57583(6) 0.30361(4)
W5_2 W 0.76555(8) 0.79407(6) 0.32618(4)
W6_2 W 0.60730(7) 0.56957(6) 0.17619(4)
W7_2 W 0.59669(13) 0.73179(12) 0.07042(7)
W8_2 W 0.90394(8) 0.51117(6) 0.16585(4)
W9_2 W 0.89482(16) 0.68091(13) 0.06546(8)
W10_2 W 0.80991(14) 0.91708(11) 0.09102(7)
W11_2 W 0.53419(7) 0.79209(7) 0.19510(4)
W12_2 W 0.75917(8) 0.97584(6) 0.21845(4)
C17_2 C 0.784(3) 0.884(2) 0.9193(13)
H17_2 H 0.8245 0.8671 0.9553
C18_2 C 0.692(3) 0.970(2) 0.8567(14)
N22_2 N 0.7327(16) 0.9736(14) 0.9078(9)
N26_2 N 0.717(3) 0.887(2) 0.8352(11)
N27_2 N 0.771(3) 0.831(2) 0.8802(14)
O44_2 O 0.2920(13) 0.1732(12) 0.0294(8)
H23_2 H 0.273255 0.237254 0.0152202
H24_2 H 0.376996 0.165363 0.0404733
C6_2 C 0.740(2) 0.3224(18) 0.0529(12)
H6_2 H 0.7648 0.3831 0.0608
C7_2 C 0.682(2) 0.1867(15) 0.0601(11)
H7_2 H 0.6578 0.1328 0.0750
N13_2 N 0.7439(17) 0.2774(13) 0.0065(9)
N14_2 N 0.7067(16) 0.1937(11) 0.0112(8)
N15_2 N 0.697(2) 0.2705(17) 0.0864(12)
O7_2 O 0.968(2) 0.4188(17) 0.0050(12)
O19_2 O 0.9211(15) 0.0017(11) 0.2356(7)
O32_2 O 0.7471(15) 0.0021(11) 0.1414(8)
O37_2 O 0.7063(16) 0.0777(11) 0.2386(8)
H21_2 H 0.991109 0.387716 0.0423724
H22_2 H 0.938882 0.48203 0.00998695
loop_
_geom_bond_atom_site_label_1
_geom_bond_atom_site_label_2
_geom_bond_site_symmetry_1
_geom_bond_site_symmetry_2
C3 H3 1_555 1_555
C4 H4 1_555 1_555
C11 H11 1_555 1_555
C12 H12 1_555 1_555
C20 H20 1_555 1_555
N10 C3 1_555 1_555
N11 C4 1_555 1_555
N12 C11 1_555 1_555
N28 C20 1_555 1_555
N29 C11 1_555 1_555
N30 C3 1_555 1_555
O3 Cu6 1_555 1_555
Cu6 N11 1_555 1_555
N31 Cu6 1_555 1_555
O47 Cu6 1_555 1_555
Cu8 N30 1_555 1_555
Cu11 N28 1_555 1_555
Cu13 N29 1_555 1_555
C4 N10 1_555 1_555
C20 N12 1_555 1_555
N11 N30 1_555 1_555
N12 Cu6 1_555 1_555
N28 N29 1_555 1_555
O3 H25 1_555 1_555
O3 H26 1_555 1_555
Cu7 N25 1_555 1_555
C2 H2 1_555 1_555
C8 H8 1_555 1_555
C14 H14 1_555 1_555
C16 H16 1_555 1_555
C17 H17 1_555 1_555
N5 C16 1_555 1_555
N6 C8 1_555 1_555
N7 C14 1_555 1_555
N8 C2 1_555 1_555
N9 C5 1_555 1_555
N17 C8 1_555 1_555
N19 C2 1_555 1_555
N22 C17 1_555 1_555
N23 C16 1_555 1_555
N26 C18 1_555 1_555
N27 C17 1_555 1_555
O1 Si1 1_555 1_555
O2 Si1 1_555 1_555
O4 Si1 1_555 1_555
O5 Cu13 1_555 1_555
O6 Si1 1_555 1_555
O8 W3 1_555 1_555
O9 W6 1_555 1_555
O11 W3 1_555 1_555
O12 W2 1_555 1_555
O13 W3 1_555 1_555
O14 W1 1_555 1_555
O15 W2 1_555 1_555
O16 W1 1_555 1_555
O17 W2 1_555 1_555
O18 W5 1_555 1_555
O20 W7 1_555 1_555
O21 W9 1_555 1_555
O22 W7 1_555 1_555
O23 W6 1_555 1_555
O24 W8 1_555 1_555
O25 W4 1_555 1_555
O26 W1 1_555 1_555
O27 W1 1_555 1_555
O29 W2 1_555 1_555
O30 W1 1_555 1_555
O31 W4 1_555 1_555
O33 W6 1_555 1_555
O34 W11 1_555 1_555
O36 W8 1_555 1_555
O47 W9 1_555 1_555
O40 W5 1_555 1_555
O41 W5 1_555 1_555
O42 W3 1_555 1_555
O43 W6 1_555 1_555
Cu11 N5 1_555 1_555
Cu13 N9 1_555 1_555
W1 O4 1_555 1_555
W2 O6 1_555 1_555
W3 O6 1_555 1_555
W4 O2 1_555 1_555
W5 O6 1_555 1_555
W6 O1 1_555 1_555
W7 O1 1_555 1_555
W8 O4 1_555 1_555
W9 O4 1_555 1_555
W10 O2 1_555 1_555
W11 O1 1_555 1_555
W12 O2 1_555 1_555
O46 Cu13 1_555 1_555
Cu9 O29 1_555 1_555
Cu10 O41 1_555 1_555
C5 N19 1_555 1_555
C14 N17 1_555 1_555
C18 N22 1_555 1_555
N4 N5 1_555 1_555
N6 N7 1_555 1_555
N7 Cu11 1_555 1_555
N8 N9 1_555 1_555
N8 Cu11 1_555 1_555
N18 Cu11 1_555 1_555
N26 N27 1_555 1_555
O8 W6 1_555 1_555
O9 W7 1_555 1_555
O11 W5 1_555 1_555
O12 W5 1_555 1_555
O13 W8 1_555 1_555
O14 W8 1_555 1_555
O15 W3 1_555 1_555
O16 W4 1_555 1_555
O17 W4 1_555 1_555
O18 W12 1_555 1_555
O20 W10 1_555 1_555
O21 W10 1_555 1_555
O22 W9 1_555 1_555
O27 W2 1_555 1_555
O28 W10 1_555 1_555
O30 W9 1_555 1_555
O31 W10 1_555 1_555
O33 W11 1_555 1_555
O34 W12 1_555 1_555
O36 W9 1_555 1_555
O40 W11 1_555 1_555
O43 W8 1_555 1_555
O5 H28 1_555 1_555
C1 H1 1_555 1_555
C6 H6 1_555 1_555
C7 H7 1_555 1_555
C9 H9 1_555 1_555
C10 H10 1_555 1_555
C13 H13 1_555 1_555
C15 H15 1_555 1_555
C19 H19 1_555 1_555
N1 C1 1_555 1_555
N2 C15 1_555 1_555
N3 C1 1_555 1_555
N13 C6 1_555 1_555
N14 C7 1_555 1_555
N15 C6 1_555 1_555
N16 C9 1_555 1_555
N20 C9 1_555 1_555
N31 C10 1_555 1_555
N24 C13 1_555 1_555
O7 Cu8 1_555 1_555
O44 Cu3 1_555 1_555
Cu7 N1 1_555 1_555
Cu8 N2 1_555 1_555
Cu3 N3 1_555 1_555
O45 Cu8 1_555 1_555
O48 Cu3 1_555 1_555
C7 N15 1_555 1_555
C10 N20 1_555 1_555
C15 N3 1_555 1_555
N1 N2 1_555 1_555
N13 N14 1_555 1_555
N13 Cu8 1_555 1_555
N14 Cu7 1_555 1_555
N16 N31 1_555 1_555
N16 Cu8 1_555 1_555
N24 Cu3 1_555 1_555
O7 H21 1_555 1_555
O7 H22 1_555 1_555
O44 H23 1_555 1_555
O44 H24 1_555 1_555
C11_2 H11_2 1_555 1_555
C20_2 H20_2 1_555 1_555
N12_2 C11_2 1_555 1_555
N28_2 C20_2 1_555 1_555
N29_2 C11_2 1_555 1_555
Cu11_2 N28_2 1_555 1_555
Cu13_2 N29_2 1_555 1_555
C20_2 N12_2 1_555 1_555
N28_2 N29_2 1_555 1_555
C13_2 H13_2 1_555 1_555
C15_2 H15_2 1_555 1_555
C19_2 H19_2 1_555 1_555
N24_2 C13_2 1_555 1_555
Cu10 N3_2 1_555 1_555
Cu7_2 N25_2 1_555 1_555
C13_2 N25_2 1_555 1_555
C15_2 N3_2 1_555 1_555
N24_2 Cu10 1_555 1_555
C8_2 H8_2 1_555 1_555
C14_2 H14_2 1_555 1_555
N6_2 C8_2 1_555 1_555
N7_2 C14_2 1_555 1_555
N17_2 C8_2 1_555 1_555
O14_2 W1_2 1_555 1_555
O16_2 W1_2 1_555 1_555
O17_2 W2_2 1_555 1_555
O25_2 W4_2 1_555 1_555
O26_2 W1_2 1_555 1_555
O27_2 W1_2 1_555 1_555
O45 W2_2 1_555 1_555
O30_2 W1_2 1_555 1_555
C14_2 N17_2 1_555 1_555
N6_2 N7_2 1_555 1_555
O16_2 W4_2 1_555 1_555
O17_2 W4_2 1_555 1_555
O27_2 W2_2 1_555 1_555
O5_2 H27_2 1_555 1_555
C2_2 H2_2 1_555 1_555
C3_2 H3_2 1_555 1_555
C4_2 H4_2 1_555 1_555
C5_2 H5_2 1_555 1_555
C12_2 H12_2 1_555 1_555
C16_2 H16_2 1_555 1_555
N5_2 C16_2 1_555 1_555
N8_2 C2_2 1_555 1_555
N9_2 C5_2 1_555 1_555
N10_2 C3_2 1_555 1_555
N11_2 C4_2 1_555 1_555
N18_2 C12_2 1_555 1_555
N19_2 C2_2 1_555 1_555
N23_2 C16_2 1_555 1_555
N30_2 C3_2 1_555 1_555
O3_2 Cu6_2 1_555 1_555
Cu11_2 N5_2 1_555 1_555
Cu13_2 N9_2 1_555 1_555
Cu6_2 N11_2 1_555 1_555
N31_2 Cu6_2 1_555 1_555
O47_2 Cu6_2 1_555 1_555
Cu9 N30_2 1_555 1_555
C4_2 N10_2 1_555 1_555
C5_2 N19_2 1_555 1_555
N4_2 N5_2 1_555 1_555
N8_2 N9_2 1_555 1_555
N8_2 Cu11_2 1_555 1_555
N10_2 Cu13_2 1_555 1_555
N11_2 N30_2 1_555 1_555
N18_2 Cu11_2 1_555 1_555
O3_2 H25_2 1_555 1_555
O3_2 H26_2 1_555 1_555
C1_2 H1_2 1_555 1_555
C9_2 H9_2 1_555 1_555
N1_2 C1_2 1_555 1_555
N16_2 C9_2 1_555 1_555
N20_2 C9_2 1_555 1_555
N31_2 C10_2 1_555 1_555
Cu7_2 N1_2 1_555 1_555
Cu9 N2_2 1_555 1_555
C10_2 N20_2 1_555 1_555
N1_2 N2_2 1_555 1_555
N16_2 N31_2 1_555 1_555
N16_2 Cu9 1_555 1_555
O1_2 Si1_2 1_555 1_555
O2_2 Si1_2 1_555 1_555
O4_2 Si1_2 1_555 1_555
O6_2 Si1_2 1_555 1_555
O8_2 W3_2 1_555 1_555
O9_2 W6_2 1_555 1_555
O10_2 W7_2 1_555 1_555
O11_2 W3_2 1_555 1_555
O13_2 W3_2 1_555 1_555
O18_2 W5_2 1_555 1_555
O20_2 W7_2 1_555 1_555
O21_2 W9_2 1_555 1_555
O22_2 W7_2 1_555 1_555
O23_2 W6_2 1_555 1_555
O24_2 W8_2 1_555 1_555
O33_2 W6_2 1_555 1_555
O34_2 W11_2 1_555 1_555
O35_2 W11_2 1_555 1_555
O36_2 W8_2 1_555 1_555
O46_2 W7_2 1_555 1_555
O40_2 W5_2 1_555 1_555
O48 W5_2 1_555 1_555
O42_2 W3_2 1_555 1_555
O43_2 W6_2 1_555 1_555
W3_2 O6_2 1_555 1_555
W5_2 O6_2 1_555 1_555
W6_2 O1_2 1_555 1_555
W7_2 O1_2 1_555 1_555
W8_2 O4_2 1_555 1_555
W9_2 O4_2 1_555 1_555
W10_2 O2_2 1_555 1_555
W11_2 O1_2 1_555 1_555
W12_2 O2_2 1_555 1_555
O8_2 W6_2 1_555 1_555
O9_2 W7_2 1_555 1_555
O10_2 W11_2 1_555 1_555
O11_2 W5_2 1_555 1_555
O12_2 W5_2 1_555 1_555
O13_2 W8_2 1_555 1_555
O15_2 W3_2 1_555 1_555
O18_2 W12_2 1_555 1_555
O20_2 W10_2 1_555 1_555
O21_2 W10_2 1_555 1_555
O22_2 W9_2 1_555 1_555
O28_2 W10_2 1_555 1_555
O31_2 W10_2 1_555 1_555
O33_2 W11_2 1_555 1_555
O34_2 W12_2 1_555 1_555
O36_2 W9_2 1_555 1_555
O40_2 W11_2 1_555 1_555
O43_2 W8_2 1_555 1_555
C17_2 H17_2 1_555 1_555
N22_2 C17_2 1_555 1_555
N26_2 C18_2 1_555 1_555
N27_2 C17_2 1_555 1_555
C18_2 N22_2 1_555 1_555
N26_2 N27_2 1_555 1_555
O44_2 H23_2 1_555 1_555
O44_2 H24_2 1_555 1_555
C6_2 H6_2 1_555 1_555
C7_2 H7_2 1_555 1_555
N13_2 C6_2 1_555 1_555
N14_2 C7_2 1_555 1_555
N15_2 C6_2 1_555 1_555
C7_2 N15_2 1_555 1_555
N13_2 N14_2 1_555 1_555
O7_2 H21_2 1_555 1_555
O7_2 H22_2 1_555 1_555

#END
