
###############################################################################
#
# This file contains modified crystal structure data generated from the
# MOF subset of the Cambridge Structural Database (CSD) v543 
# hosted by the Cambridge Crystallographic Data Centre (CCDC).
#
# This work is licensed under the Creative Commons
# Attribution-NonCommercial-ShareAlike 4.0 International License.
# To view a copy of this license, visit
# http://creativecommons.org/licenses/by-nc-sa/4.0/
# or send a letter to
# Creative Commons, PO Box 1866, Mountain View, CA 94042, USA.
#
# CIF created using the CSD Python API on 29 September 2022
# The structure has been converted into the P1 space group
# The structure has a 3D framework
# The original CSD entry DUGMOJ is in the tetragonal crystal system
# The framework has been calculated to contain at least 10.0% void space
# The void calculation uses a probe of radius 1.32A, grid spacing 0.4
# H atom positions have been added when not included in the experimental data
#
###############################################################################

data_DUGMOJ
_chemical_formula_moiety         '(C664 H520 Cu56 N16 O280)n'
_symmetry_cell_setting           triclinic
_symmetry_space_group_name_H-M   'P 1'
_symmetry_Int_Tables_number      1
_space_group_name_Hall           'P 1'
loop_
_symmetry_equiv_pos_site_id
_symmetry_equiv_pos_as_xyz
1 x,y,z
_cell_length_a                   29.5350(16)
_cell_length_b                   29.5350(16)
_cell_length_c                   28.0993(18)
_cell_angle_alpha                90
_cell_angle_beta                 90
_cell_angle_gamma                90
_cell_volume                     24511.5
loop_
_atom_site_label
_atom_site_type_symbol
_atom_site_fract_x
_atom_site_fract_y
_atom_site_fract_z
Cu1 Cu 0.18787(2) 0.17381(2) 0.23479(2)
Cu2 Cu 0.14191(2) 0.13118(2) 0.30200(2)
Cu3 Cu 0.01231(3) 0.36176(3) 0.5000
Cu4 Cu 0.00925(3) 0.27316(3) 0.5000
O1 O 0.05526(12) 0.27762(12) 0.45106(14)
O2 O 0.05786(13) 0.35295(12) 0.45023(14)
O3 O 0.16710(15) 0.38760(13) 0.31531(18)
O4 O 0.14765(17) 0.59743(13) 0.33124(16)
O5 O 0.16025(12) 0.75945(12) 0.27475(14)
O6 O 0.12392(13) 0.79853(12) 0.33049(14)
O7 O 0.03704(13) 0.71846(12) 0.45182(14)
O8 O 0.03425(13) 0.64225(12) 0.45114(14)
O9 O 0.13764(13) 0.19155(12) 0.33072(15)
O10 O 0.17642(13) 0.22765(12) 0.27359(16)
O11 O 0.19194(14) 0.11285(13) 0.20822(16)
O12 O 0.15257(15) 0.07714(14) 0.26454(17)
O16 O 0.0173(3) 0.4351(2) 0.5000
O17 O 0.10627(18) 0.09682(18) 0.3597(2)
O18 O 0.0059(3) 0.1996(2) 0.5000
C1 C 0.11346(17) 0.27225(17) 0.37334(19)
H1 H 0.1013 0.2449 0.3857
C3 C 0.14312(16) 0.27056(17) 0.33453(19)
C4 C 0.16045(18) 0.31065(18) 0.3171(2)
H2 H 0.1812 0.3099 0.2913
C5 C 0.1481(2) 0.35225(18) 0.3366(2)
C6 C 0.11926(18) 0.35314(18) 0.3756(2)
H3 H 0.1113 0.3811 0.3900
C7 C 0.10186(17) 0.31237(18) 0.39359(19)
C8 C 0.1544(3) 0.4287(2) 0.3304(3)
H4 H 0.1667 0.4341 0.3627
H5 H 0.1210 0.4302 0.3322
C9 C 0.1722(2) 0.46568(18) 0.2958(3)
C10 C 0.1949(3) 0.4552(2) 0.2575(3)
H6 H 0.1987 0.4242 0.2493
C11 C 0.2138(3) 0.4883(3) 0.2283(3)
H7 H 0.2329 0.4800 0.2025
C12 C 0.2047(3) 0.5327(2) 0.2374(3)
H8 H 0.2157 0.5556 0.2167
C13 C 0.1795(2) 0.5444(2) 0.2764(3)
C14 C 0.1643(2) 0.5108(2) 0.3051(3)
H9 H 0.1475 0.5186 0.3327
C15 C 0.1719(3) 0.5945(2) 0.2881(3)
H10 H 0.2014 0.6102 0.2913
H11 H 0.1546 0.6093 0.2622
C16 C 0.1326(2) 0.63895(18) 0.3439(2)
C17 C 0.14518(19) 0.67879(18) 0.3222(2)
H12 H 0.1663 0.6786 0.2967
C18 C 0.12663(19) 0.71928(18) 0.3380(2)
C19 C 0.09641(18) 0.71961(18) 0.3749(2)
H13 H 0.0839 0.7475 0.3853
C20 C 0.08389(17) 0.67998(17) 0.3971(2)
C21 C 0.1015(2) 0.6383(2) 0.3810(2)
H14 H 0.0923 0.6105 0.3952
C22 C 0.15355(19) 0.22712(19) 0.3122(2)
C23 C 0.06989(18) 0.31423(17) 0.4344(2)
C24 C 0.13825(18) 0.76136(18) 0.3132(2)
C25 C 0.04977(18) 0.6797(2) 0.43568(19)
C26 C 0.1861(2) 0.0331(2) 0.2032(2)
C27 C 0.2131(3) 0.0313(2) 0.1633(3)
H15 H 0.2234 0.0586 0.1490
C37 C 0.1764(2) 0.07764(19) 0.2267(2)
C38 C 0.2319(3) 0.1730(2) 0.1409(3)
H23 H 0.2259 0.1418 0.1461
C39 C 0.2513(3) 0.1870(4) 0.0983(3)
H24 H 0.2585 0.1654 0.0744
C40 C 0.2601(3) 0.2327(4) 0.0907(2)
H25 H 0.2734 0.2423 0.0615
C41 C 0.2496(3) 0.2643(3) 0.1256(4)
H26 H 0.2556 0.2955 0.1204
C42 C 0.2302(3) 0.2502(2) 0.1682(3)
H27 H 0.2230 0.2718 0.1920
N1 N 0.22134(17) 0.2046(3) 0.1758(2)
Cu5 Cu 0.82619(2) 0.18787(2) 0.23479(2)
Cu6 Cu 0.86882(2) 0.14191(2) 0.30200(2)
O24 O 0.72238(12) 0.05526(12) 0.45106(14)
O25 O 0.64705(12) 0.05786(13) 0.45023(14)
O26 O 0.61240(13) 0.16710(15) 0.31531(18)
O27 O 0.40257(13) 0.14765(17) 0.33124(16)
O28 O 0.24055(12) 0.16025(12) 0.27475(14)
O29 O 0.20147(12) 0.12392(13) 0.33049(14)
O30 O 0.28154(12) 0.03704(13) 0.45182(14)
O31 O 0.35775(12) 0.03425(13) 0.45114(14)
O32 O 0.80845(12) 0.13764(13) 0.33072(15)
O33 O 0.77235(12) 0.17642(13) 0.27359(16)
O34 O 0.90318(18) 0.10627(18) 0.3597(2)
C54 C 0.72775(17) 0.11346(17) 0.37334(19)
H34 H 0.7551 0.1013 0.3857
C55 C 0.72944(17) 0.14312(16) 0.33453(19)
C56 C 0.68935(18) 0.16045(18) 0.3171(2)
H35 H 0.6901 0.1812 0.2913
C57 C 0.64775(18) 0.1481(2) 0.3366(2)
C58 C 0.64686(18) 0.11926(18) 0.3756(2)
H36 H 0.6189 0.1113 0.3900
C59 C 0.68763(18) 0.10186(17) 0.39359(19)
C60 C 0.5713(2) 0.1544(3) 0.3304(3)
H37 H 0.5659 0.1667 0.3627
H38 H 0.5698 0.1210 0.3322
C61 C 0.53432(18) 0.1722(2) 0.2958(3)
C62 C 0.5448(2) 0.1949(3) 0.2575(3)
H39 H 0.5758 0.1987 0.2493
C63 C 0.5117(3) 0.2138(3) 0.2283(3)
H40 H 0.5200 0.2329 0.2025
C64 C 0.4673(2) 0.2047(3) 0.2374(3)
H41 H 0.4444 0.2157 0.2167
C65 C 0.4556(2) 0.1795(2) 0.2764(3)
C66 C 0.4892(2) 0.1643(2) 0.3051(3)
H42 H 0.4814 0.1475 0.3327
C67 C 0.4055(2) 0.1719(3) 0.2881(3)
H43 H 0.3898 0.2014 0.2913
H44 H 0.3907 0.1546 0.2622
C68 C 0.36105(18) 0.1326(2) 0.3439(2)
C69 C 0.32121(18) 0.14518(19) 0.3222(2)
H45 H 0.3214 0.1663 0.2967
C70 C 0.28072(18) 0.12663(19) 0.3380(2)
C71 C 0.28039(18) 0.09641(18) 0.3749(2)
H46 H 0.2525 0.0839 0.3853
C72 C 0.32002(17) 0.08389(17) 0.3971(2)
C73 C 0.3617(2) 0.1015(2) 0.3810(2)
H47 H 0.3895 0.0923 0.3952
C74 C 0.77288(19) 0.15355(19) 0.3122(2)
C75 C 0.68577(17) 0.06989(18) 0.4344(2)
C76 C 0.23864(18) 0.13825(18) 0.3132(2)
C77 C 0.3203(2) 0.04977(18) 0.43568(19)
C78 C 0.8270(2) 0.2319(3) 0.1409(3)
H48 H 0.8582 0.2259 0.1461
C79 C 0.8130(4) 0.2513(3) 0.0983(3)
H49 H 0.8346 0.2585 0.0744
C80 C 0.7673(4) 0.2601(3) 0.0907(2)
H50 H 0.7577 0.2734 0.0615
C81 C 0.7357(3) 0.2496(3) 0.1256(4)
H51 H 0.7045 0.2556 0.1204
C82 C 0.7498(2) 0.2302(3) 0.1682(3)
H52 H 0.7282 0.2230 0.1920
N2 N 0.7954(3) 0.22134(17) 0.1758(2)
Cu8 Cu 0.17381(2) 0.81213(2) 0.23479(2)
Cu12 Cu 0.13118(2) 0.85809(2) 0.30200(2)
Cu15 Cu 0.63824(3) 0.01231(3) 0.5000
Cu18 Cu 0.72684(3) 0.00925(3) 0.5000
O35 O 0.05526(12) 0.27762(12) 0.54894(14)
O36 O 0.05786(13) 0.35295(12) 0.54977(14)
O37 O 0.83975(12) 0.24055(12) 0.27475(14)
O38 O 0.87608(13) 0.20147(12) 0.33049(14)
O43 O 0.88715(13) 0.19194(14) 0.20822(16)
O44 O 0.92286(14) 0.15257(15) 0.26454(17)
O45 O 0.08866(13) 0.14536(13) 0.26446(15)
O46 O 0.85464(13) 0.08866(13) 0.26446(15)
O47 O 0.12711(14) 0.18166(16) 0.20780(16)
O48 O 0.81834(16) 0.12711(14) 0.20780(16)
H53 H 0.0360467 0.187008 0.508344
H55 H 0.0753111 0.109588 0.362836
H56 H 0.104232 0.0639572 0.352551
H57 H 0.00944868 0.446867 0.467941
H59 H 0.890412 0.0753111 0.362836
H60 H 0.936043 0.104232 0.352551
O19 O 0.19194(14) 0.11285(13) 0.79178(16)
O20 O 0.15257(15) 0.07714(14) 0.73546(17)
C44 C 0.1861(2) 0.0331(2) 0.7968(2)
C45 C 0.2131(3) 0.0313(2) 0.8367(3)
H28 H 0.2234 0.0586 0.8510
C53 C 0.1764(2) 0.07764(19) 0.7733(2)
Cu10 Cu 0.18787(2) 0.17381(2) 0.76521(2)
Cu14 Cu 0.14191(2) 0.13118(2) 0.69800(2)
O13 O 0.14536(13) 0.91134(13) 0.26446(15)
O14 O 0.18166(16) 0.87289(14) 0.20780(16)
O15 O 0.2522(2) 0.99211(18) 0.1045(2)
C2 C 0.1680(2) 0.9087(2) 0.2263(2)
C28 C 0.2251(3) 0.9904(2) 0.1443(3)
C29 C 0.2086(2) 0.9504(2) 0.1637(3)
H16 H 0.2163 0.9221 0.1499
C30 C 0.1810(2) 0.9519(2) 0.2032(3)
C31 C 0.1701(2) 0.99279(19) 0.2232(2)
H17 H 0.1515 0.9938 0.2508
C32 C 0.2708(4) 0.9535(4) 0.0876(4)
H18 H 0.2469 0.9307 0.0812
H19 H 0.2923 0.9407 0.1111
C33 C 0.2961(4) 0.9662(5) 0.0405(3)
C34 C 0.3408(3) 0.9682(6) 0.0426(4)
H20 H 0.3568 0.9676 0.0720
C35 C 0.3626(7) 0.9714(6) 0.0000
H21 H 0.3944 0.9760 0.0000
C36 C 0.2714(6) 0.9684(8) 0.0000
H22 H 0.2393 0.9713 0.0000
Cu17 Cu 0.36176(3) 0.98769(3) 0.5000
Cu20 Cu 0.27316(3) 0.99075(3) 0.5000
C35_2 C 0.3626(7) 0.9714(6) 1.0000
H21_2 H 0.3944 0.9760 1.0000
C36_2 C 0.2714(6) 0.9684(8) 1.0000
H22_2 H 0.2393 0.9713 1.0000
O21 O 0.14536(13) 0.91134(13) 0.73554(15)
O22 O 0.18166(16) 0.87289(14) 0.79220(16)
O23 O 0.2522(2) 0.99211(18) 0.8955(2)
C43 C 0.1680(2) 0.9087(2) 0.7737(2)
C46 C 0.2251(3) 0.9904(2) 0.8557(3)
C47 C 0.2086(2) 0.9504(2) 0.8363(3)
H29 H 0.2163 0.9221 0.8501
C48 C 0.1810(2) 0.9519(2) 0.7968(3)
C49 C 0.1701(2) 0.99279(19) 0.7768(2)
H30 H 0.1515 0.9938 0.7492
C50 C 0.2708(4) 0.9535(4) 0.9124(4)
H31 H 0.2469 0.9307 0.9188
H32 H 0.2923 0.9407 0.8889
C51 C 0.2961(4) 0.9662(5) 0.9595(3)
C52 C 0.3408(3) 0.9682(6) 0.9574(4)
H33 H 0.3568 0.9676 0.9280
Cu9 Cu 0.17381(2) 0.81213(2) 0.76521(2)
Cu13 Cu 0.13118(2) 0.85809(2) 0.69800(2)
Cu16 Cu 0.98769(3) 0.63824(3) 0.5000
Cu19 Cu 0.99075(3) 0.72684(3) 0.5000
O39 O 0.96296(13) 0.28154(12) 0.45182(14)
O40 O 0.96296(13) 0.28154(12) 0.54818(14)
O41 O 0.96575(13) 0.35775(12) 0.45114(14)
O42 O 0.96575(13) 0.35775(12) 0.54886(14)
H54 H 0.983195 0.189415 0.523763
H58 H 0.996014 0.447781 0.523887
O15_2 O 0.00789(18) 0.2522(2) 0.1045(2)
C2_2 C 0.0913(2) 0.1680(2) 0.2263(2)
C28_2 C 0.0096(2) 0.2251(3) 0.1443(3)
C29_2 C 0.0496(2) 0.2086(2) 0.1637(3)
H16_2 H 0.0779 0.2163 0.1499
C30_2 C 0.0481(2) 0.1810(2) 0.2032(3)
C31_2 C 0.00721(19) 0.1701(2) 0.2232(2)
H17_2 H 0.0062 0.1515 0.2508
C32_2 C 0.0465(4) 0.2708(4) 0.0876(4)
H18_2 H 0.0693 0.2469 0.0812
H19_2 H 0.0593 0.2923 0.1111
C33_2 C 0.0338(5) 0.2961(4) 0.0405(3)
C34_2 C 0.0318(6) 0.3408(3) 0.0426(4)
H20_2 H 0.0324 0.3568 0.0720
C35_3 C 0.0286(6) 0.3626(7) 0.0000
H21_3 H 0.0240 0.3944 0.0000
C36_3 C 0.0316(8) 0.2714(6) 0.0000
H22_3 H 0.0287 0.2393 0.0000
C35_4 C 0.0286(6) 0.3626(7) 1.0000
H21_4 H 0.0240 0.3944 1.0000
C36_4 C 0.0316(8) 0.2714(6) 1.0000
H22_4 H 0.0287 0.2393 1.0000
O21_2 O 0.08866(13) 0.14536(13) 0.73554(15)
O22_2 O 0.12711(14) 0.18166(16) 0.79220(16)
O23_2 O 0.00789(18) 0.2522(2) 0.8955(2)
C43_2 C 0.0913(2) 0.1680(2) 0.7737(2)
C46_2 C 0.0096(2) 0.2251(3) 0.8557(3)
C47_2 C 0.0496(2) 0.2086(2) 0.8363(3)
H29_2 H 0.0779 0.2163 0.8501
C48_2 C 0.0481(2) 0.1810(2) 0.7968(3)
C49_2 C 0.00721(19) 0.1701(2) 0.7768(2)
H30_2 H 0.0062 0.1515 0.7492
C50_2 C 0.0465(4) 0.2708(4) 0.9124(4)
H31_2 H 0.0693 0.2469 0.9188
H32_2 H 0.0593 0.2923 0.8889
C51_2 C 0.0338(5) 0.2961(4) 0.9595(3)
C52_2 C 0.0318(6) 0.3408(3) 0.9574(4)
H33_2 H 0.0324 0.3568 0.9280
O16_2 O 0.5649(2) 0.0173(3) 0.5000
O18_2 O 0.8004(2) 0.0059(3) 0.5000
C26_2 C 0.9669(2) 0.1861(2) 0.2032(2)
C27_2 C 0.9687(2) 0.2131(3) 0.1633(3)
H15_2 H 0.9414 0.2234 0.1490
C37_2 C 0.92236(19) 0.1764(2) 0.2267(2)
Cu5_2 Cu 0.81213(2) 0.82619(2) 0.23479(2)
Cu6_2 Cu 0.85809(2) 0.86882(2) 0.30200(2)
O24_2 O 0.94474(12) 0.72238(12) 0.45106(14)
O25_2 O 0.94214(13) 0.64705(12) 0.45023(14)
O26_2 O 0.83290(15) 0.61240(13) 0.31531(18)
O27_2 O 0.85235(17) 0.40257(13) 0.33124(16)
O32_2 O 0.86236(13) 0.80845(12) 0.33072(15)
O33_2 O 0.82358(13) 0.77235(12) 0.27359(16)
O34_2 O 0.89373(18) 0.90318(18) 0.3597(2)
C54_2 C 0.88654(17) 0.72775(17) 0.37334(19)
H34_2 H 0.8987 0.7551 0.3857
C55_2 C 0.85688(16) 0.72944(17) 0.33453(19)
C56_2 C 0.83955(18) 0.68935(18) 0.3171(2)
H35_2 H 0.8188 0.6901 0.2913
C57_2 C 0.8519(2) 0.64775(18) 0.3366(2)
C58_2 C 0.88074(18) 0.64686(18) 0.3756(2)
H36_2 H 0.8887 0.6189 0.3900
C59_2 C 0.89814(17) 0.68763(18) 0.39359(19)
C60_2 C 0.8456(3) 0.5713(2) 0.3304(3)
H37_2 H 0.8333 0.5659 0.3627
H38_2 H 0.8790 0.5698 0.3322
C61_2 C 0.8278(2) 0.53432(18) 0.2958(3)
C62_2 C 0.8051(3) 0.5448(2) 0.2575(3)
H39_2 H 0.8013 0.5758 0.2493
C63_2 C 0.7862(3) 0.5117(3) 0.2283(3)
H40_2 H 0.7671 0.5200 0.2025
C64_2 C 0.7953(3) 0.4673(2) 0.2374(3)
H41_2 H 0.7843 0.4444 0.2167
C65_2 C 0.8205(2) 0.4556(2) 0.2764(3)
C66_2 C 0.8357(2) 0.4892(2) 0.3051(3)
H42_2 H 0.8525 0.4814 0.3327
C67_2 C 0.8281(3) 0.4055(2) 0.2881(3)
H43_2 H 0.7986 0.3898 0.2913
H44_2 H 0.8454 0.3907 0.2622
C68_2 C 0.8674(2) 0.36105(18) 0.3439(2)
C69_2 C 0.85482(19) 0.32121(18) 0.3222(2)
H45_2 H 0.8337 0.3214 0.2967
C70_2 C 0.87337(19) 0.28072(18) 0.3380(2)
C71_2 C 0.90359(18) 0.28039(18) 0.3749(2)
H46_2 H 0.9161 0.2525 0.3853
C72_2 C 0.91611(17) 0.32002(17) 0.3971(2)
C73_2 C 0.8985(2) 0.3617(2) 0.3810(2)
H47_2 H 0.9077 0.3895 0.3952
C74_2 C 0.84645(19) 0.77288(19) 0.3122(2)
C75_2 C 0.93011(18) 0.68577(17) 0.4344(2)
C76_2 C 0.86175(18) 0.23864(18) 0.3132(2)
C77_2 C 0.95023(18) 0.3203(2) 0.43568(19)
C78_2 C 0.7681(3) 0.8270(2) 0.1409(3)
H48_2 H 0.7741 0.8582 0.1461
C79_2 C 0.7487(3) 0.8130(4) 0.0983(3)
H49_2 H 0.7415 0.8346 0.0744
C80_2 C 0.7399(3) 0.7673(4) 0.0907(2)
H50_2 H 0.7266 0.7577 0.0615
C81_2 C 0.7504(3) 0.7357(3) 0.1256(4)
H51_2 H 0.7444 0.7045 0.1204
C82_2 C 0.7698(3) 0.7498(2) 0.1682(3)
H52_2 H 0.7770 0.7282 0.1920
N2_2 N 0.77866(17) 0.7954(3) 0.1758(2)
O35_2 O 0.72238(12) 0.05526(12) 0.54894(14)
O36_2 O 0.64705(12) 0.05786(13) 0.54977(14)
O37_2 O 0.75945(12) 0.83975(12) 0.27475(14)
O38_2 O 0.79853(12) 0.87608(13) 0.33049(14)
O43_2 O 0.80806(14) 0.88715(13) 0.20822(16)
O44_2 O 0.84743(15) 0.92286(14) 0.26454(17)
O46_2 O 0.91134(13) 0.85464(13) 0.26446(15)
O48_2 O 0.87289(14) 0.81834(16) 0.20780(16)
H53_2 H 0.812992 0.0360467 0.508344
H57_2 H 0.553133 0.00944868 0.467941
H59_2 H 0.924689 0.890412 0.362836
H60_2 H 0.895768 0.936043 0.352551
O19_2 O 0.88715(13) 0.19194(14) 0.79178(16)
O20_2 O 0.92286(14) 0.15257(15) 0.73546(17)
C44_2 C 0.9669(2) 0.1861(2) 0.7968(2)
C45_2 C 0.9687(2) 0.2131(3) 0.8367(3)
H28_2 H 0.9414 0.2234 0.8510
C53_2 C 0.92236(19) 0.1764(2) 0.7733(2)
Cu10_2 Cu 0.82619(2) 0.18787(2) 0.76521(2)
Cu14_2 Cu 0.86882(2) 0.14191(2) 0.69800(2)
O39_2 O 0.71846(12) 0.96296(13) 0.45182(14)
O40_2 O 0.71846(12) 0.96296(13) 0.54818(14)
O41_2 O 0.64225(12) 0.96575(13) 0.45114(14)
O42_2 O 0.64225(12) 0.96575(13) 0.54886(14)
H54_2 H 0.810585 0.983195 0.523763
H58_2 H 0.552219 0.996014 0.523887
O40_3 O 0.03704(13) 0.71846(12) 0.54818(14)
O42_3 O 0.03425(13) 0.64225(12) 0.54886(14)
H54_3 H 0.0168055 0.810585 0.523763
H58_3 H 0.00398634 0.552219 0.523887
O15_3 O 0.7478(2) 0.00789(18) 0.1045(2)
C2_3 C 0.8320(2) 0.0913(2) 0.2263(2)
C28_3 C 0.7749(3) 0.0096(2) 0.1443(3)
C29_3 C 0.7914(2) 0.0496(2) 0.1637(3)
H16_3 H 0.7837 0.0779 0.1499
C30_3 C 0.8190(2) 0.0481(2) 0.2032(3)
C31_3 C 0.8299(2) 0.00721(19) 0.2232(2)
H17_3 H 0.8485 0.0062 0.2508
C32_3 C 0.7292(4) 0.0465(4) 0.0876(4)
H18_3 H 0.7531 0.0693 0.0812
H19_3 H 0.7077 0.0593 0.1111
C33_3 C 0.7039(4) 0.0338(5) 0.0405(3)
C34_3 C 0.6592(3) 0.0318(6) 0.0426(4)
H20_3 H 0.6432 0.0324 0.0720
C35_5 C 0.6374(7) 0.0286(6) 0.0000
H21_5 H 0.6056 0.0240 0.0000
C36_5 C 0.7286(6) 0.0316(8) 0.0000
H22_5 H 0.7607 0.0287 0.0000
C35_6 C 0.6374(7) 0.0286(6) 1.0000
H21_6 H 0.6056 0.0240 1.0000
C36_6 C 0.7286(6) 0.0316(8) 1.0000
H22_6 H 0.7607 0.0287 1.0000
O21_3 O 0.85464(13) 0.08866(13) 0.73554(15)
O22_3 O 0.81834(16) 0.12711(14) 0.79220(16)
O23_3 O 0.7478(2) 0.00789(18) 0.8955(2)
C43_3 C 0.8320(2) 0.0913(2) 0.7737(2)
C46_3 C 0.7749(3) 0.0096(2) 0.8557(3)
C47_3 C 0.7914(2) 0.0496(2) 0.8363(3)
H29_3 H 0.7837 0.0779 0.8501
C48_3 C 0.8190(2) 0.0481(2) 0.7968(3)
C49_3 C 0.8299(2) 0.00721(19) 0.7768(2)
H30_3 H 0.8485 0.0062 0.7492
C50_3 C 0.7292(4) 0.0465(4) 0.9124(4)
H31_3 H 0.7531 0.0693 0.9188
H32_3 H 0.7077 0.0593 0.8889
C51_3 C 0.7039(4) 0.0338(5) 0.9595(3)
C52_3 C 0.6592(3) 0.0318(6) 0.9574(4)
H33_3 H 0.6432 0.0324 0.9280
O16_3 O 0.9827(3) 0.5649(2) 0.5000
O18_3 O 0.9941(3) 0.8004(2) 0.5000
C26_3 C 0.8139(2) 0.9669(2) 0.2032(2)
C27_3 C 0.7869(3) 0.9687(2) 0.1633(3)
H15_3 H 0.7766 0.9414 0.1490
C37_3 C 0.8236(2) 0.92236(19) 0.2267(2)
O24_3 O 0.27762(12) 0.94474(12) 0.45106(14)
O25_3 O 0.35295(12) 0.94214(13) 0.45023(14)
O26_3 O 0.38760(13) 0.83290(15) 0.31531(18)
O27_3 O 0.59743(13) 0.85235(17) 0.33124(16)
O32_3 O 0.19155(12) 0.86236(13) 0.33072(15)
O33_3 O 0.22765(12) 0.82358(13) 0.27359(16)
O34_3 O 0.09682(18) 0.89373(18) 0.3597(2)
C54_3 C 0.27225(17) 0.88654(17) 0.37334(19)
H34_3 H 0.2449 0.8987 0.3857
C55_3 C 0.27056(17) 0.85688(16) 0.33453(19)
C56_3 C 0.31065(18) 0.83955(18) 0.3171(2)
H35_3 H 0.3099 0.8188 0.2913
C57_3 C 0.35225(18) 0.8519(2) 0.3366(2)
C58_3 C 0.35314(18) 0.88074(18) 0.3756(2)
H36_3 H 0.3811 0.8887 0.3900
C59_3 C 0.31237(18) 0.89814(17) 0.39359(19)
C60_3 C 0.4287(2) 0.8456(3) 0.3304(3)
H37_3 H 0.4341 0.8333 0.3627
H38_3 H 0.4302 0.8790 0.3322
C61_3 C 0.46568(18) 0.8278(2) 0.2958(3)
C62_3 C 0.4552(2) 0.8051(3) 0.2575(3)
H39_3 H 0.4242 0.8013 0.2493
C63_3 C 0.4883(3) 0.7862(3) 0.2283(3)
H40_3 H 0.4800 0.7671 0.2025
C64_3 C 0.5327(2) 0.7953(3) 0.2374(3)
H41_3 H 0.5556 0.7843 0.2167
C65_3 C 0.5444(2) 0.8205(2) 0.2764(3)
C66_3 C 0.5108(2) 0.8357(2) 0.3051(3)
H42_3 H 0.5186 0.8525 0.3327
C67_3 C 0.5945(2) 0.8281(3) 0.2881(3)
H43_3 H 0.6102 0.7986 0.2913
H44_3 H 0.6093 0.8454 0.2622
C68_3 C 0.63895(18) 0.8674(2) 0.3439(2)
C69_3 C 0.67879(18) 0.85482(19) 0.3222(2)
H45_3 H 0.6786 0.8337 0.2967
C70_3 C 0.71928(18) 0.87337(19) 0.3380(2)
C71_3 C 0.71961(18) 0.90359(18) 0.3749(2)
H46_3 H 0.7475 0.9161 0.3853
C72_3 C 0.67998(17) 0.91611(17) 0.3971(2)
C73_3 C 0.6383(2) 0.8985(2) 0.3810(2)
H47_3 H 0.6105 0.9077 0.3952
C74_3 C 0.22712(19) 0.84645(19) 0.3122(2)
C75_3 C 0.31423(17) 0.93011(18) 0.4344(2)
C76_3 C 0.76136(18) 0.86175(18) 0.3132(2)
C77_3 C 0.6797(2) 0.95023(18) 0.43568(19)
C78_3 C 0.1730(2) 0.7681(3) 0.1409(3)
H48_3 H 0.1418 0.7741 0.1461
C79_3 C 0.1870(4) 0.7487(3) 0.0983(3)
H49_3 H 0.1654 0.7415 0.0744
C80_3 C 0.2327(4) 0.7399(3) 0.0907(2)
H50_3 H 0.2423 0.7266 0.0615
C81_3 C 0.2643(3) 0.7504(3) 0.1256(4)
H51_3 H 0.2955 0.7444 0.1204
C82_3 C 0.2502(2) 0.7698(3) 0.1682(3)
H52_3 H 0.2718 0.7770 0.1920
N2_3 N 0.2046(3) 0.77866(17) 0.1758(2)
O35_3 O 0.94474(12) 0.72238(12) 0.54894(14)
O36_3 O 0.94214(13) 0.64705(12) 0.54977(14)
O43_3 O 0.11285(13) 0.80806(14) 0.20822(16)
O44_3 O 0.07714(14) 0.84743(15) 0.26454(17)
H53_3 H 0.963953 0.812992 0.508344
H57_3 H 0.990551 0.553133 0.467941
H59_3 H 0.109588 0.924689 0.362836
H60_3 H 0.0639572 0.895768 0.352551
O19_3 O 0.80806(14) 0.88715(13) 0.79178(16)
O20_3 O 0.84743(15) 0.92286(14) 0.73546(17)
C44_3 C 0.8139(2) 0.9669(2) 0.7968(2)
C45_3 C 0.7869(3) 0.9687(2) 0.8367(3)
H28_3 H 0.7766 0.9414 0.8510
C53_3 C 0.8236(2) 0.92236(19) 0.7733(2)
Cu10_3 Cu 0.81213(2) 0.82619(2) 0.76521(2)
Cu14_3 Cu 0.85809(2) 0.86882(2) 0.69800(2)
O40_4 O 0.28154(12) 0.03704(13) 0.54818(14)
O42_4 O 0.35775(12) 0.03425(13) 0.54886(14)
H54_4 H 0.189415 0.0168055 0.523763
H58_4 H 0.447781 0.00398634 0.523887
O16_4 O 0.4351(2) 0.9827(3) 0.5000
O18_4 O 0.1996(2) 0.9941(3) 0.5000
C26_4 C 0.0331(2) 0.8139(2) 0.2032(2)
C27_4 C 0.0313(2) 0.7869(3) 0.1633(3)
H15_4 H 0.0586 0.7766 0.1490
C37_4 C 0.07764(19) 0.8236(2) 0.2267(2)
O35_4 O 0.27762(12) 0.94474(12) 0.54894(14)
O36_4 O 0.35295(12) 0.94214(13) 0.54977(14)
H53_4 H 0.187008 0.963953 0.508344
H57_4 H 0.446867 0.990551 0.467941
O19_4 O 0.11285(13) 0.80806(14) 0.79178(16)
O20_4 O 0.07714(14) 0.84743(15) 0.73546(17)
C44_4 C 0.0331(2) 0.8139(2) 0.7968(2)
C45_4 C 0.0313(2) 0.7869(3) 0.8367(3)
H28_4 H 0.0586 0.7766 0.8510
C53_4 C 0.07764(19) 0.8236(2) 0.7733(2)
O15_4 O 0.99211(18) 0.7478(2) 0.1045(2)
C2_4 C 0.9087(2) 0.8320(2) 0.2263(2)
C28_4 C 0.9904(2) 0.7749(3) 0.1443(3)
C29_4 C 0.9504(2) 0.7914(2) 0.1637(3)
H16_4 H 0.9221 0.7837 0.1499
C30_4 C 0.9519(2) 0.8190(2) 0.2032(3)
C31_4 C 0.99279(19) 0.8299(2) 0.2232(2)
H17_4 H 0.9938 0.8485 0.2508
C32_4 C 0.9535(4) 0.7292(4) 0.0876(4)
H18_4 H 0.9307 0.7531 0.0812
H19_4 H 0.9407 0.7077 0.1111
C33_4 C 0.9662(5) 0.7039(4) 0.0405(3)
C34_4 C 0.9682(6) 0.6592(3) 0.0426(4)
H20_4 H 0.9676 0.6432 0.0720
C35_7 C 0.9714(6) 0.6374(7) 0.0000
H21_7 H 0.9760 0.6056 0.0000
C36_7 C 0.9684(8) 0.7286(6) 0.0000
H22_7 H 0.9713 0.7607 0.0000
C35_8 C 0.9714(6) 0.6374(7) 1.0000
H21_8 H 0.9760 0.6056 1.0000
C36_8 C 0.9684(8) 0.7286(6) 1.0000
H22_8 H 0.9713 0.7607 1.0000
O21_4 O 0.91134(13) 0.85464(13) 0.73554(15)
O22_4 O 0.87289(14) 0.81834(16) 0.79220(16)
O23_4 O 0.99211(18) 0.7478(2) 0.8955(2)
C43_4 C 0.9087(2) 0.8320(2) 0.7737(2)
C46_4 C 0.9904(2) 0.7749(3) 0.8557(3)
C47_4 C 0.9504(2) 0.7914(2) 0.8363(3)
H29_4 H 0.9221 0.7837 0.8501
C48_4 C 0.9519(2) 0.8190(2) 0.7968(3)
C49_4 C 0.99279(19) 0.8299(2) 0.7768(2)
H30_4 H 0.9938 0.8485 0.7492
C50_4 C 0.9535(4) 0.7292(4) 0.9124(4)
H31_4 H 0.9307 0.7531 0.9188
H32_4 H 0.9407 0.7077 0.8889
C51_4 C 0.9662(5) 0.7039(4) 0.9595(3)
C52_4 C 0.9682(6) 0.6592(3) 0.9574(4)
H33_4 H 0.9676 0.6432 0.9280
H54_5 H 0.0168055 0.810585 0.476237
H58_5 H 0.00398634 0.552219 0.476113
O3_2 O 0.83290(15) 0.61240(13) 0.68469(18)
O4_2 O 0.85235(17) 0.40257(13) 0.66876(16)
O5_2 O 0.83975(12) 0.24055(12) 0.72525(14)
O6_2 O 0.87608(13) 0.20147(12) 0.66951(14)
O9_2 O 0.86236(13) 0.80845(12) 0.66928(15)
O10_2 O 0.82358(13) 0.77235(12) 0.72641(16)
O17_2 O 0.89373(18) 0.90318(18) 0.6403(2)
C1_2 C 0.88654(17) 0.72775(17) 0.62666(19)
H1_2 H 0.8987 0.7551 0.6143
C3_2 C 0.85688(16) 0.72944(17) 0.66547(19)
C4_2 C 0.83955(18) 0.68935(18) 0.6829(2)
H2_2 H 0.8188 0.6901 0.7087
C5_2 C 0.8519(2) 0.64775(18) 0.6634(2)
C6_2 C 0.88074(18) 0.64686(18) 0.6244(2)
H3_2 H 0.8887 0.6189 0.6100
C7_2 C 0.89814(17) 0.68763(18) 0.60641(19)
C8_2 C 0.8456(3) 0.5713(2) 0.6696(3)
H4_2 H 0.8333 0.5659 0.6373
H5_2 H 0.8790 0.5698 0.6678
C9_2 C 0.8278(2) 0.53432(18) 0.7042(3)
C10_2 C 0.8051(3) 0.5448(2) 0.7425(3)
H6_2 H 0.8013 0.5758 0.7507
C11_2 C 0.7862(3) 0.5117(3) 0.7717(3)
H7_2 H 0.7671 0.5200 0.7975
C12_2 C 0.7953(3) 0.4673(2) 0.7626(3)
H8_2 H 0.7843 0.4444 0.7833
C13_2 C 0.8205(2) 0.4556(2) 0.7236(3)
C14_2 C 0.8357(2) 0.4892(2) 0.6949(3)
H9_2 H 0.8525 0.4814 0.6673
C15_2 C 0.8281(3) 0.4055(2) 0.7119(3)
H10_2 H 0.7986 0.3898 0.7087
H11_2 H 0.8454 0.3907 0.7378
C16_2 C 0.8674(2) 0.36105(18) 0.6561(2)
C17_2 C 0.85482(19) 0.32121(18) 0.6778(2)
H12_2 H 0.8337 0.3214 0.7033
C18_2 C 0.87337(19) 0.28072(18) 0.6620(2)
C19_2 C 0.90359(18) 0.28039(18) 0.6251(2)
H13_2 H 0.9161 0.2525 0.6147
C20_2 C 0.91611(17) 0.32002(17) 0.6029(2)
C21_2 C 0.8985(2) 0.3617(2) 0.6190(2)
H14_2 H 0.9077 0.3895 0.6048
C22_2 C 0.84645(19) 0.77288(19) 0.6878(2)
C23_2 C 0.93011(18) 0.68577(17) 0.5656(2)
C24_2 C 0.86175(18) 0.23864(18) 0.6868(2)
C25_2 C 0.95023(18) 0.3203(2) 0.56432(19)
C38_2 C 0.7681(3) 0.8270(2) 0.8591(3)
H23_2 H 0.7741 0.8582 0.8539
C39_2 C 0.7487(3) 0.8130(4) 0.9017(3)
H24_2 H 0.7415 0.8346 0.9256
C40_2 C 0.7399(3) 0.7673(4) 0.9093(2)
H25_2 H 0.7266 0.7577 0.9385
C41_2 C 0.7504(3) 0.7357(3) 0.8744(4)
H26_2 H 0.7444 0.7045 0.8796
C42_2 C 0.7698(3) 0.7498(2) 0.8318(3)
H27_2 H 0.7770 0.7282 0.8080
N1_2 N 0.77866(17) 0.7954(3) 0.8242(2)
O26_4 O 0.38760(13) 0.83290(15) 0.68469(18)
O27_4 O 0.59743(13) 0.85235(17) 0.66876(16)
O28_2 O 0.75945(12) 0.83975(12) 0.72525(14)
O29_2 O 0.79853(12) 0.87608(13) 0.66951(14)
O32_4 O 0.19155(12) 0.86236(13) 0.66928(15)
O33_4 O 0.22765(12) 0.82358(13) 0.72641(16)
O34_4 O 0.09682(18) 0.89373(18) 0.6403(2)
C54_4 C 0.27225(17) 0.88654(17) 0.62666(19)
H34_4 H 0.2449 0.8987 0.6143
C55_4 C 0.27056(17) 0.85688(16) 0.66547(19)
C56_4 C 0.31065(18) 0.83955(18) 0.6829(2)
H35_4 H 0.3099 0.8188 0.7087
C57_4 C 0.35225(18) 0.8519(2) 0.6634(2)
C58_4 C 0.35314(18) 0.88074(18) 0.6244(2)
H36_4 H 0.3811 0.8887 0.6100
C59_4 C 0.31237(18) 0.89814(17) 0.60641(19)
C60_4 C 0.4287(2) 0.8456(3) 0.6696(3)
H37_4 H 0.4341 0.8333 0.6373
H38_4 H 0.4302 0.8790 0.6678
C61_4 C 0.46568(18) 0.8278(2) 0.7042(3)
C62_4 C 0.4552(2) 0.8051(3) 0.7425(3)
H39_4 H 0.4242 0.8013 0.7507
C63_4 C 0.4883(3) 0.7862(3) 0.7717(3)
H40_4 H 0.4800 0.7671 0.7975
C64_4 C 0.5327(2) 0.7953(3) 0.7626(3)
H41_4 H 0.5556 0.7843 0.7833
C65_4 C 0.5444(2) 0.8205(2) 0.7236(3)
C66_4 C 0.5108(2) 0.8357(2) 0.6949(3)
H42_4 H 0.5186 0.8525 0.6673
C67_4 C 0.5945(2) 0.8281(3) 0.7119(3)
H43_4 H 0.6102 0.7986 0.7087
H44_4 H 0.6093 0.8454 0.7378
C68_4 C 0.63895(18) 0.8674(2) 0.6561(2)
C69_4 C 0.67879(18) 0.85482(19) 0.6778(2)
H45_4 H 0.6786 0.8337 0.7033
C70_4 C 0.71928(18) 0.87337(19) 0.6620(2)
C71_4 C 0.71961(18) 0.90359(18) 0.6251(2)
H46_4 H 0.7475 0.9161 0.6147
C72_4 C 0.67998(17) 0.91611(17) 0.6029(2)
C73_4 C 0.6383(2) 0.8985(2) 0.6190(2)
H47_4 H 0.6105 0.9077 0.6048
C74_4 C 0.22712(19) 0.84645(19) 0.6878(2)
C75_4 C 0.31423(17) 0.93011(18) 0.5656(2)
C76_4 C 0.76136(18) 0.86175(18) 0.6868(2)
C77_4 C 0.6797(2) 0.95023(18) 0.56432(19)
C78_4 C 0.1730(2) 0.7681(3) 0.8591(3)
H48_4 H 0.1418 0.7741 0.8539
C79_4 C 0.1870(4) 0.7487(3) 0.9017(3)
H49_4 H 0.1654 0.7415 0.9256
C80_4 C 0.2327(4) 0.7399(3) 0.9093(2)
H50_4 H 0.2423 0.7266 0.9385
C81_4 C 0.2643(3) 0.7504(3) 0.8744(4)
H51_4 H 0.2955 0.7444 0.8796
C82_4 C 0.2502(2) 0.7698(3) 0.8318(3)
H52_4 H 0.2718 0.7770 0.8080
N2_4 N 0.2046(3) 0.77866(17) 0.8242(2)
O37_3 O 0.16025(12) 0.75945(12) 0.72525(14)
O38_3 O 0.12392(13) 0.79853(12) 0.66951(14)
H53_5 H 0.963953 0.812992 0.491656
H55_2 H 0.924689 0.890412 0.637164
H56_2 H 0.895768 0.936043 0.647449
H57_5 H 0.990551 0.553133 0.532059
H59_4 H 0.109588 0.924689 0.637164
H60_4 H 0.0639572 0.895768 0.647449
H54_6 H 0.189415 0.0168055 0.476237
H58_6 H 0.447781 0.00398634 0.476113
O26_5 O 0.16710(15) 0.38760(13) 0.68469(18)
O27_5 O 0.14765(17) 0.59743(13) 0.66876(16)
O32_5 O 0.13764(13) 0.19155(12) 0.66928(15)
O33_5 O 0.17642(13) 0.22765(12) 0.72641(16)
O34_5 O 0.10627(18) 0.09682(18) 0.6403(2)
C54_5 C 0.11346(17) 0.27225(17) 0.62666(19)
H34_5 H 0.1013 0.2449 0.6143
C55_5 C 0.14312(16) 0.27056(17) 0.66547(19)
C56_5 C 0.16045(18) 0.31065(18) 0.6829(2)
H35_5 H 0.1812 0.3099 0.7087
C57_5 C 0.1481(2) 0.35225(18) 0.6634(2)
C58_5 C 0.11926(18) 0.35314(18) 0.6244(2)
H36_5 H 0.1113 0.3811 0.6100
C59_5 C 0.10186(17) 0.31237(18) 0.60641(19)
C60_5 C 0.1544(3) 0.4287(2) 0.6696(3)
H37_5 H 0.1667 0.4341 0.6373
H38_5 H 0.1210 0.4302 0.6678
C61_5 C 0.1722(2) 0.46568(18) 0.7042(3)
C62_5 C 0.1949(3) 0.4552(2) 0.7425(3)
H39_5 H 0.1987 0.4242 0.7507
C63_5 C 0.2138(3) 0.4883(3) 0.7717(3)
H40_5 H 0.2329 0.4800 0.7975
C64_5 C 0.2047(3) 0.5327(2) 0.7626(3)
H41_5 H 0.2157 0.5556 0.7833
C65_5 C 0.1795(2) 0.5444(2) 0.7236(3)
C66_5 C 0.1643(2) 0.5108(2) 0.6949(3)
H42_5 H 0.1475 0.5186 0.6673
C67_5 C 0.1719(3) 0.5945(2) 0.7119(3)
H43_5 H 0.2014 0.6102 0.7087
H44_5 H 0.1546 0.6093 0.7378
C68_5 C 0.1326(2) 0.63895(18) 0.6561(2)
C69_5 C 0.14518(19) 0.67879(18) 0.6778(2)
H45_5 H 0.1663 0.6786 0.7033
C70_5 C 0.12663(19) 0.71928(18) 0.6620(2)
C71_5 C 0.09641(18) 0.71961(18) 0.6251(2)
H46_5 H 0.0839 0.7475 0.6147
C72_5 C 0.08389(17) 0.67998(17) 0.6029(2)
C73_5 C 0.1015(2) 0.6383(2) 0.6190(2)
H47_5 H 0.0923 0.6105 0.6048
C74_5 C 0.15355(19) 0.22712(19) 0.6878(2)
C75_5 C 0.06989(18) 0.31423(17) 0.5656(2)
C76_5 C 0.13825(18) 0.76136(18) 0.6868(2)
C77_5 C 0.04977(18) 0.6797(2) 0.56432(19)
C78_5 C 0.2319(3) 0.1730(2) 0.8591(3)
H48_5 H 0.2259 0.1418 0.8539
C79_5 C 0.2513(3) 0.1870(4) 0.9017(3)
H49_5 H 0.2585 0.1654 0.9256
C80_5 C 0.2601(3) 0.2327(4) 0.9093(2)
H50_5 H 0.2734 0.2423 0.9385
C81_5 C 0.2496(3) 0.2643(3) 0.8744(4)
H51_5 H 0.2556 0.2955 0.8796
C82_5 C 0.2302(3) 0.2502(2) 0.8318(3)
H52_5 H 0.2230 0.2718 0.8080
N2_5 N 0.22134(17) 0.2046(3) 0.8242(2)
O37_4 O 0.24055(12) 0.16025(12) 0.72525(14)
O38_4 O 0.20147(12) 0.12392(13) 0.66951(14)
H53_6 H 0.187008 0.963953 0.491656
H57_6 H 0.446867 0.990551 0.532059
H59_5 H 0.0753111 0.109588 0.637164
H60_5 H 0.104232 0.0639572 0.647449
O26_6 O 0.61240(13) 0.16710(15) 0.68469(18)
O27_6 O 0.40257(13) 0.14765(17) 0.66876(16)
O32_6 O 0.80845(12) 0.13764(13) 0.66928(15)
O33_6 O 0.77235(12) 0.17642(13) 0.72641(16)
O34_6 O 0.90318(18) 0.10627(18) 0.6403(2)
C54_6 C 0.72775(17) 0.11346(17) 0.62666(19)
H34_6 H 0.7551 0.1013 0.6143
C55_6 C 0.72944(17) 0.14312(16) 0.66547(19)
C56_6 C 0.68935(18) 0.16045(18) 0.6829(2)
H35_6 H 0.6901 0.1812 0.7087
C57_6 C 0.64775(18) 0.1481(2) 0.6634(2)
C58_6 C 0.64686(18) 0.11926(18) 0.6244(2)
H36_6 H 0.6189 0.1113 0.6100
C59_6 C 0.68763(18) 0.10186(17) 0.60641(19)
C60_6 C 0.5713(2) 0.1544(3) 0.6696(3)
H37_6 H 0.5659 0.1667 0.6373
H38_6 H 0.5698 0.1210 0.6678
C61_6 C 0.53432(18) 0.1722(2) 0.7042(3)
C62_6 C 0.5448(2) 0.1949(3) 0.7425(3)
H39_6 H 0.5758 0.1987 0.7507
C63_6 C 0.5117(3) 0.2138(3) 0.7717(3)
H40_6 H 0.5200 0.2329 0.7975
C64_6 C 0.4673(2) 0.2047(3) 0.7626(3)
H41_6 H 0.4444 0.2157 0.7833
C65_6 C 0.4556(2) 0.1795(2) 0.7236(3)
C66_6 C 0.4892(2) 0.1643(2) 0.6949(3)
H42_6 H 0.4814 0.1475 0.6673
C67_6 C 0.4055(2) 0.1719(3) 0.7119(3)
H43_6 H 0.3898 0.2014 0.7087
H44_6 H 0.3907 0.1546 0.7378
C68_6 C 0.36105(18) 0.1326(2) 0.6561(2)
C69_6 C 0.32121(18) 0.14518(19) 0.6778(2)
H45_6 H 0.3214 0.1663 0.7033
C70_6 C 0.28072(18) 0.12663(19) 0.6620(2)
C71_6 C 0.28039(18) 0.09641(18) 0.6251(2)
H46_6 H 0.2525 0.0839 0.6147
C72_6 C 0.32002(17) 0.08389(17) 0.6029(2)
C73_6 C 0.3617(2) 0.1015(2) 0.6190(2)
H47_6 H 0.3895 0.0923 0.6048
C74_6 C 0.77288(19) 0.15355(19) 0.6878(2)
C75_6 C 0.68577(17) 0.06989(18) 0.5656(2)
C76_6 C 0.23864(18) 0.13825(18) 0.6868(2)
C77_6 C 0.3203(2) 0.04977(18) 0.56432(19)
C78_6 C 0.8270(2) 0.2319(3) 0.8591(3)
H48_6 H 0.8582 0.2259 0.8539
C79_6 C 0.8130(4) 0.2513(3) 0.9017(3)
H49_6 H 0.8346 0.2585 0.9256
C80_6 C 0.7673(4) 0.2601(3) 0.9093(2)
H50_6 H 0.7577 0.2734 0.9385
C81_6 C 0.7357(3) 0.2496(3) 0.8744(4)
H51_6 H 0.7045 0.2556 0.8796
C82_6 C 0.7498(2) 0.2302(3) 0.8318(3)
H52_6 H 0.7282 0.2230 0.8080
N2_6 N 0.7954(3) 0.22134(17) 0.8242(2)
H53_7 H 0.0360467 0.187008 0.491656
H57_7 H 0.00944868 0.446867 0.532059
H59_6 H 0.890412 0.0753111 0.637164
H60_6 H 0.936043 0.104232 0.647449
H54_7 H 0.983195 0.189415 0.476237
H58_7 H 0.996014 0.447781 0.476113
H53_8 H 0.812992 0.0360467 0.491656
H57_8 H 0.553133 0.00944868 0.532059
H54_8 H 0.810585 0.983195 0.476237
H58_8 H 0.552219 0.996014 0.476113
Cu15_2 Cu 0.13824(3) 0.51231(3) 0.0000
Cu18_2 Cu 0.22684(3) 0.50925(3) 0.0000
Cu5_3 Cu 0.32619(2) 0.68787(2) 0.73479(2)
Cu6_3 Cu 0.36882(2) 0.64191(2) 0.80200(2)
O24_4 O 0.22238(12) 0.55526(12) 0.95106(14)
O25_4 O 0.14705(12) 0.55786(13) 0.95023(14)
O26_7 O 0.11240(13) 0.66710(15) 0.81531(18)
O32_7 O 0.30845(12) 0.63764(13) 0.83072(15)
O33_7 O 0.27235(12) 0.67642(13) 0.77359(16)
O34_7 O 0.40318(18) 0.60627(18) 0.8597(2)
C54_7 C 0.22775(17) 0.61346(17) 0.87334(19)
H34_7 H 0.2551 0.6013 0.8857
C55_7 C 0.22944(17) 0.64312(16) 0.83453(19)
C56_7 C 0.18935(18) 0.66045(18) 0.8171(2)
H35_7 H 0.1901 0.6812 0.7913
C57_7 C 0.14775(18) 0.6481(2) 0.8366(2)
C58_7 C 0.14686(18) 0.61926(18) 0.8756(2)
H36_7 H 0.1189 0.6113 0.8900
C59_7 C 0.18763(18) 0.60186(17) 0.89359(19)
C60_7 C 0.0713(2) 0.6544(3) 0.8304(3)
H37_7 H 0.0659 0.6667 0.8627
H38_7 H 0.0698 0.6210 0.8322
C61_7 C 0.03432(18) 0.6722(2) 0.7958(3)
C62_7 C 0.0448(2) 0.6949(3) 0.7575(3)
H39_7 H 0.0758 0.6987 0.7493
C63_7 C 0.0117(3) 0.7138(3) 0.7283(3)
H40_7 H 0.0200 0.7329 0.7025
C74_7 C 0.27288(19) 0.65355(19) 0.8122(2)
C75_7 C 0.18577(17) 0.56989(18) 0.9344(2)
C78_7 C 0.3270(2) 0.7319(3) 0.6409(3)
H48_7 H 0.3582 0.7259 0.6461
C79_7 C 0.3130(4) 0.7513(3) 0.5983(3)
H49_7 H 0.3346 0.7585 0.5744
C80_7 C 0.2673(4) 0.7601(3) 0.5907(2)
H50_7 H 0.2577 0.7734 0.5615
C81_7 C 0.2357(3) 0.7496(3) 0.6256(4)
H51_7 H 0.2045 0.7556 0.6204
C82_7 C 0.2498(2) 0.7302(3) 0.6682(3)
H52_7 H 0.2282 0.7230 0.6920
N2_7 N 0.2954(3) 0.72134(17) 0.6758(2)
Cu15_3 Cu 0.13824(3) 0.51231(3) 1.0000
Cu18_3 Cu 0.22684(3) 0.50925(3) 1.0000
O37_5 O 0.33975(12) 0.74055(12) 0.77475(14)
O38_5 O 0.37608(13) 0.70147(12) 0.83049(14)
O43_4 O 0.38715(13) 0.69194(14) 0.70822(16)
O44_4 O 0.42286(14) 0.65257(15) 0.76454(17)
O46_3 O 0.35464(13) 0.58866(13) 0.76446(15)
O48_3 O 0.31834(16) 0.62711(14) 0.70780(16)
H59_7 H 0.390412 0.575311 0.862836
H60_7 H 0.436043 0.604232 0.852551
Cu16_2 Cu 0.48769(3) 0.13824(3) 0.0000
Cu19_2 Cu 0.49075(3) 0.22684(3) 0.0000
O4_3 O 0.64765(17) 0.09743(13) 0.83124(16)
O5_3 O 0.66025(12) 0.25945(12) 0.77475(14)
O6_3 O 0.62392(13) 0.29853(12) 0.83049(14)
O7_2 O 0.53704(13) 0.21846(12) 0.95182(14)
O8_2 O 0.53425(13) 0.14225(12) 0.95114(14)
C12_3 C 0.7047(3) 0.0327(2) 0.7374(3)
H8_3 H 0.7157 0.0556 0.7167
C13_3 C 0.6795(2) 0.0444(2) 0.7764(3)
C14_3 C 0.6643(2) 0.0108(2) 0.8051(3)
H9_3 H 0.6475 0.0186 0.8327
C15_3 C 0.6719(3) 0.0945(2) 0.7881(3)
H10_3 H 0.7014 0.1102 0.7913
H11_3 H 0.6546 0.1093 0.7622
C16_3 C 0.6326(2) 0.13895(18) 0.8439(2)
C17_3 C 0.64518(19) 0.17879(18) 0.8222(2)
H12_3 H 0.6663 0.1786 0.7967
C18_3 C 0.62663(19) 0.21928(18) 0.8380(2)
C19_3 C 0.59641(18) 0.21961(18) 0.8749(2)
H13_3 H 0.5839 0.2475 0.8853
C20_3 C 0.58389(17) 0.17998(17) 0.8971(2)
C21_3 C 0.6015(2) 0.1383(2) 0.8810(2)
H14_3 H 0.5923 0.1105 0.8952
C24_3 C 0.63825(18) 0.26136(18) 0.8132(2)
C25_3 C 0.54977(18) 0.1797(2) 0.93568(19)
Cu8_2 Cu 0.67381(2) 0.31213(2) 0.73479(2)
Cu12_2 Cu 0.63118(2) 0.35809(2) 0.80200(2)
Cu16_3 Cu 0.48769(3) 0.13824(3) 1.0000
Cu19_3 Cu 0.49075(3) 0.22684(3) 1.0000
Cu3_2 Cu 0.51231(3) 0.86176(3) 0.0000
Cu4_2 Cu 0.50925(3) 0.77316(3) 0.0000
O16_5 O 0.5173(3) 0.9351(2) 0.0000
O18_5 O 0.5059(3) 0.6996(2) 0.0000
Cu17_2 Cu 0.86176(3) 0.48769(3) 0.0000
Cu20_2 Cu 0.77316(3) 0.49075(3) 0.0000
O35_5 O 0.55526(12) 0.77762(12) 0.04894(14)
O36_5 O 0.55786(13) 0.85295(12) 0.04977(14)
O40_5 O 0.46296(13) 0.78154(12) 0.04818(14)
O42_5 O 0.46575(13) 0.85775(12) 0.04886(14)
H53_9 H 0.536047 0.687008 0.00834357
H54_9 H 0.483195 0.689415 0.023763
H58_9 H 0.496014 0.947781 0.0238868
Cu1_2 Cu 0.68787(2) 0.67381(2) 0.73479(2)
Cu2_2 Cu 0.64191(2) 0.63118(2) 0.80200(2)
Cu3_3 Cu 0.51231(3) 0.86176(3) 1.0000
Cu4_3 Cu 0.50925(3) 0.77316(3) 1.0000
O1_2 O 0.55526(12) 0.77762(12) 0.95106(14)
O2_2 O 0.55786(13) 0.85295(12) 0.95023(14)
O3_3 O 0.66710(15) 0.88760(13) 0.81531(18)
O9_3 O 0.63764(13) 0.69155(12) 0.83072(15)
O10_3 O 0.67642(13) 0.72765(12) 0.77359(16)
O11_2 O 0.69194(14) 0.61285(13) 0.70822(16)
O12_2 O 0.65257(15) 0.57714(14) 0.76454(17)
O13_2 O 0.64536(13) 0.41134(13) 0.76446(15)
O14_2 O 0.68166(16) 0.37289(14) 0.70780(16)
O15_5 O 0.7522(2) 0.49211(18) 0.6045(2)
O16_6 O 0.5173(3) 0.9351(2) 1.0000
O17_3 O 0.60627(18) 0.59682(18) 0.8597(2)
O18_6 O 0.5059(3) 0.6996(2) 1.0000
C1_3 C 0.61346(17) 0.77225(17) 0.87334(19)
H1_3 H 0.6013 0.7449 0.8857
C2_5 C 0.6680(2) 0.4087(2) 0.7263(2)
C3_3 C 0.64312(16) 0.77056(17) 0.83453(19)
C4_3 C 0.66045(18) 0.81065(18) 0.8171(2)
H2_3 H 0.6812 0.8099 0.7913
C5_3 C 0.6481(2) 0.85225(18) 0.8366(2)
C6_3 C 0.61926(18) 0.85314(18) 0.8756(2)
H3_3 H 0.6113 0.8811 0.8900
C7_3 C 0.60186(17) 0.81237(18) 0.89359(19)
C8_3 C 0.6544(3) 0.9287(2) 0.8304(3)
H4_3 H 0.6667 0.9341 0.8627
H5_3 H 0.6210 0.9302 0.8322
C9_3 C 0.6722(2) 0.96568(18) 0.7958(3)
C10_3 C 0.6949(3) 0.9552(2) 0.7575(3)
H6_3 H 0.6987 0.9242 0.7493
C11_3 C 0.7138(3) 0.9883(3) 0.7283(3)
H7_3 H 0.7329 0.9800 0.7025
C22_3 C 0.65355(19) 0.72712(19) 0.8122(2)
C23_3 C 0.56989(18) 0.81423(17) 0.9344(2)
C26_5 C 0.6861(2) 0.5331(2) 0.7032(2)
C27_5 C 0.7131(3) 0.5313(2) 0.6633(3)
H15_5 H 0.7234 0.5586 0.6490
C28_5 C 0.7251(3) 0.4904(2) 0.6443(3)
C29_5 C 0.7086(2) 0.4504(2) 0.6637(3)
H16_5 H 0.7163 0.4221 0.6499
C30_5 C 0.6810(2) 0.4519(2) 0.7032(3)
C31_5 C 0.6701(2) 0.49279(19) 0.7232(2)
H17_5 H 0.6515 0.4938 0.7508
C32_5 C 0.7708(4) 0.4535(4) 0.5876(4)
H18_5 H 0.7469 0.4307 0.5812
H19_5 H 0.7923 0.4407 0.6111
C33_5 C 0.7961(4) 0.4662(5) 0.5405(3)
C34_5 C 0.8408(3) 0.4682(6) 0.5426(4)
H20_5 H 0.8568 0.4676 0.5720
C35_9 C 0.8626(7) 0.4714(6) 0.5000
H21_9 H 0.8944 0.4760 0.5000
C36_9 C 0.7714(6) 0.4684(8) 0.5000
H22_9 H 0.7393 0.4713 0.5000
C37_5 C 0.6764(2) 0.57764(19) 0.7267(2)
C38_3 C 0.7319(3) 0.6730(2) 0.6409(3)
H23_3 H 0.7259 0.6418 0.6461
C39_3 C 0.7513(3) 0.6870(4) 0.5983(3)
H24_3 H 0.7585 0.6654 0.5744
C40_3 C 0.7601(3) 0.7327(4) 0.5907(2)
H25_3 H 0.7734 0.7423 0.5615
C41_3 C 0.7496(3) 0.7643(3) 0.6256(4)
H26_3 H 0.7556 0.7955 0.6204
C42_3 C 0.7302(3) 0.7502(2) 0.6682(3)
H27_3 H 0.7230 0.7718 0.6920
N1_3 N 0.72134(17) 0.7046(3) 0.6758(2)
O19_5 O 0.69194(14) 0.61285(13) 0.29178(16)
O20_5 O 0.65257(15) 0.57714(14) 0.23546(17)
O21_5 O 0.64536(13) 0.41134(13) 0.23554(15)
O22_5 O 0.68166(16) 0.37289(14) 0.29220(16)
O23_5 O 0.7522(2) 0.49211(18) 0.3955(2)
C43_5 C 0.6680(2) 0.4087(2) 0.2737(2)
C44_5 C 0.6861(2) 0.5331(2) 0.2968(2)
C45_5 C 0.7131(3) 0.5313(2) 0.3367(3)
H28_5 H 0.7234 0.5586 0.3510
C46_5 C 0.7251(3) 0.4904(2) 0.3557(3)
C47_5 C 0.7086(2) 0.4504(2) 0.3363(3)
H29_5 H 0.7163 0.4221 0.3501
C48_5 C 0.6810(2) 0.4519(2) 0.2968(3)
C49_5 C 0.6701(2) 0.49279(19) 0.2768(2)
H30_5 H 0.6515 0.4938 0.2492
C50_5 C 0.7708(4) 0.4535(4) 0.4124(4)
H31_5 H 0.7469 0.4307 0.4188
H32_5 H 0.7923 0.4407 0.3889
C51_5 C 0.7961(4) 0.4662(5) 0.4595(3)
C52_5 C 0.8408(3) 0.4682(6) 0.4574(4)
H33_5 H 0.8568 0.4676 0.4280
C53_5 C 0.6764(2) 0.57764(19) 0.2733(2)
O27_7 O 0.90257(13) 0.64765(17) 0.83124(16)
O28_3 O 0.74055(12) 0.66025(12) 0.77475(14)
O29_3 O 0.70147(12) 0.62392(13) 0.83049(14)
O30_2 O 0.78154(12) 0.53704(13) 0.95182(14)
O31_2 O 0.85775(12) 0.53425(13) 0.95114(14)
C64_7 C 0.9673(2) 0.7047(3) 0.7374(3)
H41_7 H 0.9444 0.7157 0.7167
C65_7 C 0.9556(2) 0.6795(2) 0.7764(3)
C66_7 C 0.9892(2) 0.6643(2) 0.8051(3)
H42_7 H 0.9814 0.6475 0.8327
C67_7 C 0.9055(2) 0.6719(3) 0.7881(3)
H43_7 H 0.8898 0.7014 0.7913
H44_7 H 0.8907 0.6546 0.7622
C68_7 C 0.86105(18) 0.6326(2) 0.8439(2)
C69_7 C 0.82121(18) 0.64518(19) 0.8222(2)
H45_7 H 0.8214 0.6663 0.7967
C70_7 C 0.78072(18) 0.62663(19) 0.8380(2)
C71_7 C 0.78039(18) 0.59641(18) 0.8749(2)
H46_7 H 0.7525 0.5839 0.8853
C72_7 C 0.82002(17) 0.58389(17) 0.8971(2)
C73_7 C 0.8617(2) 0.6015(2) 0.8810(2)
H47_7 H 0.8895 0.5923 0.8952
C76_7 C 0.73864(18) 0.63825(18) 0.8132(2)
C77_7 C 0.8203(2) 0.54977(18) 0.93568(19)
Cu9_2 Cu 0.67381(2) 0.31213(2) 0.26521(2)
Cu10_4 Cu 0.68787(2) 0.67381(2) 0.26521(2)
Cu13_2 Cu 0.63118(2) 0.35809(2) 0.19800(2)
Cu14_4 Cu 0.64191(2) 0.63118(2) 0.19800(2)
Cu17_3 Cu 0.86176(3) 0.48769(3) 1.0000
Cu20_3 Cu 0.77316(3) 0.49075(3) 1.0000
O39_3 O 0.46296(13) 0.78154(12) 0.95182(14)
O41_3 O 0.46575(13) 0.85775(12) 0.95114(14)
O45_2 O 0.58866(13) 0.64536(13) 0.76446(15)
O47_2 O 0.62711(14) 0.68166(16) 0.70780(16)
H55_3 H 0.575311 0.609588 0.862836
H56_3 H 0.604232 0.563957 0.852551
H57_9 H 0.509449 0.946867 0.967941
Cu5_4 Cu 0.31213(2) 0.32619(2) 0.73479(2)
Cu6_4 Cu 0.35809(2) 0.36882(2) 0.80200(2)
O24_5 O 0.44474(12) 0.22238(12) 0.95106(14)
O25_5 O 0.44214(13) 0.14705(12) 0.95023(14)
O26_8 O 0.33290(15) 0.11240(13) 0.81531(18)
O32_8 O 0.36236(13) 0.30845(12) 0.83072(15)
O33_8 O 0.32358(13) 0.27235(12) 0.77359(16)
O34_8 O 0.39373(18) 0.40318(18) 0.8597(2)
C54_8 C 0.38654(17) 0.22775(17) 0.87334(19)
H34_8 H 0.3987 0.2551 0.8857
C55_8 C 0.35688(16) 0.22944(17) 0.83453(19)
C56_8 C 0.33955(18) 0.18935(18) 0.8171(2)
H35_8 H 0.3188 0.1901 0.7913
C57_8 C 0.3519(2) 0.14775(18) 0.8366(2)
C58_8 C 0.38074(18) 0.14686(18) 0.8756(2)
H36_8 H 0.3887 0.1189 0.8900
C59_8 C 0.39814(17) 0.18763(18) 0.89359(19)
C60_8 C 0.3456(3) 0.0713(2) 0.8304(3)
H37_8 H 0.3333 0.0659 0.8627
H38_8 H 0.3790 0.0698 0.8322
C61_8 C 0.3278(2) 0.03432(18) 0.7958(3)
C62_8 C 0.3051(3) 0.0448(2) 0.7575(3)
H39_8 H 0.3013 0.0758 0.7493
C63_8 C 0.2862(3) 0.0117(3) 0.7283(3)
H40_8 H 0.2671 0.0200 0.7025
C74_8 C 0.34645(19) 0.27288(19) 0.8122(2)
C75_8 C 0.43011(18) 0.18577(17) 0.9344(2)
C78_8 C 0.2681(3) 0.3270(2) 0.6409(3)
H48_8 H 0.2741 0.3582 0.6461
C79_8 C 0.2487(3) 0.3130(4) 0.5983(3)
H49_8 H 0.2415 0.3346 0.5744
C80_8 C 0.2399(3) 0.2673(4) 0.5907(2)
H50_8 H 0.2266 0.2577 0.5615
C81_8 C 0.2504(3) 0.2357(3) 0.6256(4)
H51_8 H 0.2444 0.2045 0.6204
C82_8 C 0.2698(3) 0.2498(2) 0.6682(3)
H52_8 H 0.2770 0.2282 0.6920
N2_8 N 0.27866(17) 0.2954(3) 0.6758(2)
O37_6 O 0.25945(12) 0.33975(12) 0.77475(14)
O38_6 O 0.29853(12) 0.37608(13) 0.83049(14)
O43_5 O 0.30806(14) 0.38715(13) 0.70822(16)
O44_5 O 0.34743(15) 0.42286(14) 0.76454(17)
O46_4 O 0.41134(13) 0.35464(13) 0.76446(15)
O48_4 O 0.37289(14) 0.31834(16) 0.70780(16)
H59_8 H 0.424689 0.390412 0.862836
H60_8 H 0.395768 0.436043 0.852551
O16_7 O 0.0649(2) 0.5173(3) 0.0000
O18_7 O 0.3004(2) 0.5059(3) 0.0000
O35_6 O 0.22238(12) 0.55526(12) 0.04894(14)
O36_6 O 0.14705(12) 0.55786(13) 0.04977(14)
O40_6 O 0.21846(12) 0.46296(13) 0.04818(14)
O42_6 O 0.14225(12) 0.46575(13) 0.04886(14)
H53_10 H 0.312992 0.536047 0.00834357
H54_10 H 0.310585 0.483195 0.023763
H58_10 H 0.0522187 0.496014 0.0238868
O15_6 O 0.50789(18) 0.7522(2) 0.6045(2)
O16_8 O 0.0649(2) 0.5173(3) 1.0000
O18_8 O 0.3004(2) 0.5059(3) 1.0000
C2_6 C 0.5913(2) 0.6680(2) 0.7263(2)
C26_6 C 0.4669(2) 0.6861(2) 0.7032(2)
C27_6 C 0.4687(2) 0.7131(3) 0.6633(3)
H15_6 H 0.4414 0.7234 0.6490
C28_6 C 0.5096(2) 0.7251(3) 0.6443(3)
C29_6 C 0.5496(2) 0.7086(2) 0.6637(3)
H16_6 H 0.5779 0.7163 0.6499
C30_6 C 0.5481(2) 0.6810(2) 0.7032(3)
C31_6 C 0.50721(19) 0.6701(2) 0.7232(2)
H17_6 H 0.5062 0.6515 0.7508
C32_6 C 0.5465(4) 0.7708(4) 0.5876(4)
H18_6 H 0.5693 0.7469 0.5812
H19_6 H 0.5593 0.7923 0.6111
C33_6 C 0.5338(5) 0.7961(4) 0.5405(3)
C34_6 C 0.5318(6) 0.8408(3) 0.5426(4)
H20_6 H 0.5324 0.8568 0.5720
C35_10 C 0.5286(6) 0.8626(7) 0.5000
H21_10 H 0.5240 0.8944 0.5000
C36_10 C 0.5316(8) 0.7714(6) 0.5000
H22_10 H 0.5287 0.7393 0.5000
C37_6 C 0.42236(19) 0.6764(2) 0.7267(2)
O19_6 O 0.38715(13) 0.69194(14) 0.29178(16)
O20_6 O 0.42286(14) 0.65257(15) 0.23546(17)
O21_6 O 0.58866(13) 0.64536(13) 0.23554(15)
O22_6 O 0.62711(14) 0.68166(16) 0.29220(16)
O23_6 O 0.50789(18) 0.7522(2) 0.3955(2)
C43_6 C 0.5913(2) 0.6680(2) 0.2737(2)
C44_6 C 0.4669(2) 0.6861(2) 0.2968(2)
C45_6 C 0.4687(2) 0.7131(3) 0.3367(3)
H28_6 H 0.4414 0.7234 0.3510
C46_6 C 0.5096(2) 0.7251(3) 0.3557(3)
C47_6 C 0.5496(2) 0.7086(2) 0.3363(3)
H29_6 H 0.5779 0.7163 0.3501
C48_6 C 0.5481(2) 0.6810(2) 0.2968(3)
C49_6 C 0.50721(19) 0.6701(2) 0.2768(2)
H30_6 H 0.5062 0.6515 0.2492
C50_6 C 0.5465(4) 0.7708(4) 0.4124(4)
H31_6 H 0.5693 0.7469 0.4188
H32_6 H 0.5593 0.7923 0.3889
C51_6 C 0.5338(5) 0.7961(4) 0.4595(3)
C52_6 C 0.5318(6) 0.8408(3) 0.4574(4)
H33_6 H 0.5324 0.8568 0.4280
C53_6 C 0.42236(19) 0.6764(2) 0.2733(2)
O27_8 O 0.35235(17) 0.90257(13) 0.83124(16)
C64_8 C 0.2953(3) 0.9673(2) 0.7374(3)
H41_8 H 0.2843 0.9444 0.7167
C65_8 C 0.3205(2) 0.9556(2) 0.7764(3)
C66_8 C 0.3357(2) 0.9892(2) 0.8051(3)
H42_8 H 0.3525 0.9814 0.8327
C67_8 C 0.3281(3) 0.9055(2) 0.7881(3)
H43_8 H 0.2986 0.8898 0.7913
H44_8 H 0.3454 0.8907 0.7622
C68_8 C 0.3674(2) 0.86105(18) 0.8439(2)
C69_8 C 0.35482(19) 0.82121(18) 0.8222(2)
H45_8 H 0.3337 0.8214 0.7967
C70_8 C 0.37337(19) 0.78072(18) 0.8380(2)
C71_8 C 0.40359(18) 0.78039(18) 0.8749(2)
H46_8 H 0.4161 0.7525 0.8853
C72_8 C 0.41611(17) 0.82002(17) 0.8971(2)
C73_8 C 0.3985(2) 0.8617(2) 0.8810(2)
H47_8 H 0.4077 0.8895 0.8952
C76_8 C 0.36175(18) 0.73864(18) 0.8132(2)
C77_8 C 0.45023(18) 0.8203(2) 0.93568(19)
Cu10_5 Cu 0.32619(2) 0.68787(2) 0.26521(2)
Cu14_5 Cu 0.36882(2) 0.64191(2) 0.19800(2)
O39_4 O 0.21846(12) 0.46296(13) 0.95182(14)
O41_4 O 0.14225(12) 0.46575(13) 0.95114(14)
H57_10 H 0.0531328 0.509449 0.967941
O16_9 O 0.4827(3) 0.0649(2) 0.0000
O18_9 O 0.4941(3) 0.3004(2) 0.0000
O35_7 O 0.44474(12) 0.22238(12) 0.04894(14)
O36_7 O 0.44214(13) 0.14705(12) 0.04977(14)
O40_7 O 0.53704(13) 0.21846(12) 0.04818(14)
O42_7 O 0.53425(13) 0.14225(12) 0.04886(14)
H53_11 H 0.463953 0.312992 0.00834357
H54_11 H 0.516805 0.310585 0.023763
H58_11 H 0.503986 0.0522187 0.0238868
O15_7 O 0.2478(2) 0.50789(18) 0.6045(2)
O16_10 O 0.4827(3) 0.0649(2) 1.0000
O18_10 O 0.4941(3) 0.3004(2) 1.0000
C2_7 C 0.3320(2) 0.5913(2) 0.7263(2)
C26_7 C 0.3139(2) 0.4669(2) 0.7032(2)
C27_7 C 0.2869(3) 0.4687(2) 0.6633(3)
H15_7 H 0.2766 0.4414 0.6490
C28_7 C 0.2749(3) 0.5096(2) 0.6443(3)
C29_7 C 0.2914(2) 0.5496(2) 0.6637(3)
H16_7 H 0.2837 0.5779 0.6499
C30_7 C 0.3190(2) 0.5481(2) 0.7032(3)
C31_7 C 0.3299(2) 0.50721(19) 0.7232(2)
H17_7 H 0.3485 0.5062 0.7508
C32_7 C 0.2292(4) 0.5465(4) 0.5876(4)
H18_7 H 0.2531 0.5693 0.5812
H19_7 H 0.2077 0.5593 0.6111
C33_7 C 0.2039(4) 0.5338(5) 0.5405(3)
C34_7 C 0.1592(3) 0.5318(6) 0.5426(4)
H20_7 H 0.1432 0.5324 0.5720
C35_11 C 0.1374(7) 0.5286(6) 0.5000
H21_11 H 0.1056 0.5240 0.5000
C36_11 C 0.2286(6) 0.5316(8) 0.5000
H22_11 H 0.2607 0.5287 0.5000
C37_7 C 0.3236(2) 0.42236(19) 0.7267(2)
O19_7 O 0.30806(14) 0.38715(13) 0.29178(16)
O20_7 O 0.34743(15) 0.42286(14) 0.23546(17)
O21_7 O 0.35464(13) 0.58866(13) 0.23554(15)
O22_7 O 0.31834(16) 0.62711(14) 0.29220(16)
O23_7 O 0.2478(2) 0.50789(18) 0.3955(2)
C43_7 C 0.3320(2) 0.5913(2) 0.2737(2)
C44_7 C 0.3139(2) 0.4669(2) 0.2968(2)
C45_7 C 0.2869(3) 0.4687(2) 0.3367(3)
H28_7 H 0.2766 0.4414 0.3510
C46_7 C 0.2749(3) 0.5096(2) 0.3557(3)
C47_7 C 0.2914(2) 0.5496(2) 0.3363(3)
H29_7 H 0.2837 0.5779 0.3501
C48_7 C 0.3190(2) 0.5481(2) 0.2968(3)
C49_7 C 0.3299(2) 0.50721(19) 0.2768(2)
H30_7 H 0.3485 0.5062 0.2492
C50_7 C 0.2292(4) 0.5465(4) 0.4124(4)
H31_7 H 0.2531 0.5693 0.4188
H32_7 H 0.2077 0.5593 0.3889
C51_7 C 0.2039(4) 0.5338(5) 0.4595(3)
C52_7 C 0.1592(3) 0.5318(6) 0.4574(4)
H33_7 H 0.1432 0.5324 0.4280
C53_7 C 0.3236(2) 0.42236(19) 0.2733(2)
O27_9 O 0.09743(13) 0.35235(17) 0.83124(16)
C64_9 C 0.0327(2) 0.2953(3) 0.7374(3)
H41_9 H 0.0556 0.2843 0.7167
C65_9 C 0.0444(2) 0.3205(2) 0.7764(3)
C66_9 C 0.0108(2) 0.3357(2) 0.8051(3)
H42_9 H 0.0186 0.3525 0.8327
C67_9 C 0.0945(2) 0.3281(3) 0.7881(3)
H43_9 H 0.1102 0.2986 0.7913
H44_9 H 0.1093 0.3454 0.7622
C68_9 C 0.13895(18) 0.3674(2) 0.8439(2)
C69_9 C 0.17879(18) 0.35482(19) 0.8222(2)
H45_9 H 0.1786 0.3337 0.7967
C70_9 C 0.21928(18) 0.37337(19) 0.8380(2)
C71_9 C 0.21961(18) 0.40359(18) 0.8749(2)
H46_9 H 0.2475 0.4161 0.8853
C72_9 C 0.17998(17) 0.41611(17) 0.8971(2)
C73_9 C 0.1383(2) 0.3985(2) 0.8810(2)
H47_9 H 0.1105 0.4077 0.8952
C76_9 C 0.26136(18) 0.36175(18) 0.8132(2)
C77_9 C 0.1797(2) 0.45023(18) 0.93568(19)
Cu10_6 Cu 0.31213(2) 0.32619(2) 0.26521(2)
Cu14_6 Cu 0.35809(2) 0.36882(2) 0.19800(2)
H57_11 H 0.490551 0.0531328 0.967941
O24_6 O 0.77762(12) 0.44474(12) 0.95106(14)
O25_6 O 0.85295(12) 0.44214(13) 0.95023(14)
O26_9 O 0.88760(13) 0.33290(15) 0.81531(18)
O32_9 O 0.69155(12) 0.36236(13) 0.83072(15)
O33_9 O 0.72765(12) 0.32358(13) 0.77359(16)
O34_9 O 0.59682(18) 0.39373(18) 0.8597(2)
C54_9 C 0.77225(17) 0.38654(17) 0.87334(19)
H34_9 H 0.7449 0.3987 0.8857
C55_9 C 0.77056(17) 0.35688(16) 0.83453(19)
C56_9 C 0.81065(18) 0.33955(18) 0.8171(2)
H35_9 H 0.8099 0.3188 0.7913
C57_9 C 0.85225(18) 0.3519(2) 0.8366(2)
C58_9 C 0.85314(18) 0.38074(18) 0.8756(2)
H36_9 H 0.8811 0.3887 0.8900
C59_9 C 0.81237(18) 0.39814(17) 0.89359(19)
C60_9 C 0.9287(2) 0.3456(3) 0.8304(3)
H37_9 H 0.9341 0.3333 0.8627
H38_9 H 0.9302 0.3790 0.8322
C61_9 C 0.96568(18) 0.3278(2) 0.7958(3)
C62_9 C 0.9552(2) 0.3051(3) 0.7575(3)
H39_9 H 0.9242 0.3013 0.7493
C63_9 C 0.9883(3) 0.2862(3) 0.7283(3)
H40_9 H 0.9800 0.2671 0.7025
C74_9 C 0.72712(19) 0.34645(19) 0.8122(2)
C75_9 C 0.81423(17) 0.43011(18) 0.9344(2)
C78_9 C 0.6730(2) 0.2681(3) 0.6409(3)
H48_9 H 0.6418 0.2741 0.6461
C79_9 C 0.6870(4) 0.2487(3) 0.5983(3)
H49_9 H 0.6654 0.2415 0.5744
C80_9 C 0.7327(4) 0.2399(3) 0.5907(2)
H50_9 H 0.7423 0.2266 0.5615
C81_9 C 0.7643(3) 0.2504(3) 0.6256(4)
H51_9 H 0.7955 0.2444 0.6204
C82_9 C 0.7502(2) 0.2698(3) 0.6682(3)
H52_9 H 0.7718 0.2770 0.6920
N2_9 N 0.7046(3) 0.27866(17) 0.6758(2)
O43_6 O 0.61285(13) 0.30806(14) 0.70822(16)
O44_6 O 0.57714(14) 0.34743(15) 0.76454(17)
H59_9 H 0.609588 0.424689 0.862836
H60_9 H 0.563957 0.395768 0.852551
O16_11 O 0.9351(2) 0.4827(3) 0.0000
O18_11 O 0.6996(2) 0.4941(3) 0.0000
O35_8 O 0.77762(12) 0.44474(12) 0.04894(14)
O36_8 O 0.85295(12) 0.44214(13) 0.04977(14)
O40_8 O 0.78154(12) 0.53704(13) 0.04818(14)
O42_8 O 0.85775(12) 0.53425(13) 0.04886(14)
H53_12 H 0.687008 0.463953 0.00834357
H54_12 H 0.689415 0.516805 0.023763
H58_12 H 0.947781 0.503986 0.0238868
O15_8 O 0.49211(18) 0.2478(2) 0.6045(2)
O16_12 O 0.9351(2) 0.4827(3) 1.0000
O18_12 O 0.6996(2) 0.4941(3) 1.0000
C2_8 C 0.4087(2) 0.3320(2) 0.7263(2)
C26_8 C 0.5331(2) 0.3139(2) 0.7032(2)
C27_8 C 0.5313(2) 0.2869(3) 0.6633(3)
H15_8 H 0.5586 0.2766 0.6490
C28_8 C 0.4904(2) 0.2749(3) 0.6443(3)
C29_8 C 0.4504(2) 0.2914(2) 0.6637(3)
H16_8 H 0.4221 0.2837 0.6499
C30_8 C 0.4519(2) 0.3190(2) 0.7032(3)
C31_8 C 0.49279(19) 0.3299(2) 0.7232(2)
H17_8 H 0.4938 0.3485 0.7508
C32_8 C 0.4535(4) 0.2292(4) 0.5876(4)
H18_8 H 0.4307 0.2531 0.5812
H19_8 H 0.4407 0.2077 0.6111
C33_8 C 0.4662(5) 0.2039(4) 0.5405(3)
C34_8 C 0.4682(6) 0.1592(3) 0.5426(4)
H20_8 H 0.4676 0.1432 0.5720
C35_12 C 0.4714(6) 0.1374(7) 0.5000
H21_12 H 0.4760 0.1056 0.5000
C36_12 C 0.4684(8) 0.2286(6) 0.5000
H22_12 H 0.4713 0.2607 0.5000
C37_8 C 0.57764(19) 0.3236(2) 0.7267(2)
O19_8 O 0.61285(13) 0.30806(14) 0.29178(16)
O20_8 O 0.57714(14) 0.34743(15) 0.23546(17)
O21_8 O 0.41134(13) 0.35464(13) 0.23554(15)
O22_8 O 0.37289(14) 0.31834(16) 0.29220(16)
O23_8 O 0.49211(18) 0.2478(2) 0.3955(2)
C43_8 C 0.4087(2) 0.3320(2) 0.2737(2)
C44_8 C 0.5331(2) 0.3139(2) 0.2968(2)
C45_8 C 0.5313(2) 0.2869(3) 0.3367(3)
H28_8 H 0.5586 0.2766 0.3510
C46_8 C 0.4904(2) 0.2749(3) 0.3557(3)
C47_8 C 0.4504(2) 0.2914(2) 0.3363(3)
H29_8 H 0.4221 0.2837 0.3501
C48_8 C 0.4519(2) 0.3190(2) 0.2968(3)
C49_8 C 0.49279(19) 0.3299(2) 0.2768(2)
H30_8 H 0.4938 0.3485 0.2492
C50_8 C 0.4535(4) 0.2292(4) 0.4124(4)
H31_8 H 0.4307 0.2531 0.4188
H32_8 H 0.4407 0.2077 0.3889
C51_8 C 0.4662(5) 0.2039(4) 0.4595(3)
C52_8 C 0.4682(6) 0.1592(3) 0.4574(4)
H33_8 H 0.4676 0.1432 0.4280
C53_8 C 0.57764(19) 0.3236(2) 0.2733(2)
H57_12 H 0.946867 0.490551 0.967941
O3_4 O 0.33290(15) 0.11240(13) 0.18469(18)
O9_4 O 0.36236(13) 0.30845(12) 0.16928(15)
O10_4 O 0.32358(13) 0.27235(12) 0.22641(16)
O17_4 O 0.39373(18) 0.40318(18) 0.1403(2)
C1_4 C 0.38654(17) 0.22775(17) 0.12666(19)
H1_4 H 0.3987 0.2551 0.1143
C3_4 C 0.35688(16) 0.22944(17) 0.16547(19)
C4_4 C 0.33955(18) 0.18935(18) 0.1829(2)
H2_4 H 0.3188 0.1901 0.2087
C5_4 C 0.3519(2) 0.14775(18) 0.1634(2)
C6_4 C 0.38074(18) 0.14686(18) 0.1244(2)
H3_4 H 0.3887 0.1189 0.1100
C7_4 C 0.39814(17) 0.18763(18) 0.10641(19)
C8_4 C 0.3456(3) 0.0713(2) 0.1696(3)
H4_4 H 0.3333 0.0659 0.1373
H5_4 H 0.3790 0.0698 0.1678
C9_4 C 0.3278(2) 0.03432(18) 0.2042(3)
C10_4 C 0.3051(3) 0.0448(2) 0.2425(3)
H6_4 H 0.3013 0.0758 0.2507
C11_4 C 0.2862(3) 0.0117(3) 0.2717(3)
H7_4 H 0.2671 0.0200 0.2975
C22_4 C 0.34645(19) 0.27288(19) 0.1878(2)
C23_4 C 0.43011(18) 0.18577(17) 0.0656(2)
C38_4 C 0.2681(3) 0.3270(2) 0.3591(3)
H23_4 H 0.2741 0.3582 0.3539
C39_4 C 0.2487(3) 0.3130(4) 0.4017(3)
H24_4 H 0.2415 0.3346 0.4256
C40_4 C 0.2399(3) 0.2673(4) 0.4093(2)
H25_4 H 0.2266 0.2577 0.4385
C41_4 C 0.2504(3) 0.2357(3) 0.3744(4)
H26_4 H 0.2444 0.2045 0.3796
C42_4 C 0.2698(3) 0.2498(2) 0.3318(3)
H27_4 H 0.2770 0.2282 0.3080
N1_4 N 0.27866(17) 0.2954(3) 0.3242(2)
O27_10 O 0.09743(13) 0.35235(17) 0.16876(16)
O28_4 O 0.25945(12) 0.33975(12) 0.22525(14)
O29_4 O 0.29853(12) 0.37608(13) 0.16951(14)
C64_10 C 0.0327(2) 0.2953(3) 0.2626(3)
H41_10 H 0.0556 0.2843 0.2833
C65_10 C 0.0444(2) 0.3205(2) 0.2236(3)
C66_10 C 0.0108(2) 0.3357(2) 0.1949(3)
H42_10 H 0.0186 0.3525 0.1673
C67_10 C 0.0945(2) 0.3281(3) 0.2119(3)
H43_10 H 0.1102 0.2986 0.2087
H44_10 H 0.1093 0.3454 0.2378
C68_10 C 0.13895(18) 0.3674(2) 0.1561(2)
C69_10 C 0.17879(18) 0.35482(19) 0.1778(2)
H45_10 H 0.1786 0.3337 0.2033
C70_10 C 0.21928(18) 0.37337(19) 0.1620(2)
C71_10 C 0.21961(18) 0.40359(18) 0.1251(2)
H46_10 H 0.2475 0.4161 0.1147
C72_10 C 0.17998(17) 0.41611(17) 0.1029(2)
C73_10 C 0.1383(2) 0.3985(2) 0.1190(2)
H47_10 H 0.1105 0.4077 0.1048
C76_10 C 0.26136(18) 0.36175(18) 0.1868(2)
C77_10 C 0.1797(2) 0.45023(18) 0.06432(19)
H55_4 H 0.424689 0.390412 0.137164
H56_4 H 0.395768 0.436043 0.147449
H57_13 H 0.490551 0.0531328 0.0320587
H53_13 H 0.463953 0.312992 0.991656
H54_13 H 0.516805 0.310585 0.976237
H58_13 H 0.503986 0.0522187 0.976113
O4_4 O 0.35235(17) 0.90257(13) 0.16876(16)
O5_4 O 0.33975(12) 0.74055(12) 0.22525(14)
O6_4 O 0.37608(13) 0.70147(12) 0.16951(14)
C12_4 C 0.2953(3) 0.9673(2) 0.2626(3)
H8_4 H 0.2843 0.9444 0.2833
C13_4 C 0.3205(2) 0.9556(2) 0.2236(3)
C14_4 C 0.3357(2) 0.9892(2) 0.1949(3)
H9_4 H 0.3525 0.9814 0.1673
C15_4 C 0.3281(3) 0.9055(2) 0.2119(3)
H10_4 H 0.2986 0.8898 0.2087
H11_4 H 0.3454 0.8907 0.2378
C16_4 C 0.3674(2) 0.86105(18) 0.1561(2)
C17_4 C 0.35482(19) 0.82121(18) 0.1778(2)
H12_4 H 0.3337 0.8214 0.2033
C18_4 C 0.37337(19) 0.78072(18) 0.1620(2)
C19_4 C 0.40359(18) 0.78039(18) 0.1251(2)
H13_4 H 0.4161 0.7525 0.1147
C20_4 C 0.41611(17) 0.82002(17) 0.1029(2)
C21_4 C 0.3985(2) 0.8617(2) 0.1190(2)
H14_4 H 0.4077 0.8895 0.1048
C24_4 C 0.36175(18) 0.73864(18) 0.1868(2)
C25_4 C 0.45023(18) 0.8203(2) 0.06432(19)
O26_10 O 0.88760(13) 0.33290(15) 0.18469(18)
O32_10 O 0.69155(12) 0.36236(13) 0.16928(15)
O33_10 O 0.72765(12) 0.32358(13) 0.22641(16)
O34_10 O 0.59682(18) 0.39373(18) 0.1403(2)
C54_10 C 0.77225(17) 0.38654(17) 0.12666(19)
H34_10 H 0.7449 0.3987 0.1143
C55_10 C 0.77056(17) 0.35688(16) 0.16547(19)
C56_10 C 0.81065(18) 0.33955(18) 0.1829(2)
H35_10 H 0.8099 0.3188 0.2087
C57_10 C 0.85225(18) 0.3519(2) 0.1634(2)
C58_10 C 0.85314(18) 0.38074(18) 0.1244(2)
H36_10 H 0.8811 0.3887 0.1100
C59_10 C 0.81237(18) 0.39814(17) 0.10641(19)
C60_10 C 0.9287(2) 0.3456(3) 0.1696(3)
H37_10 H 0.9341 0.3333 0.1373
H38_10 H 0.9302 0.3790 0.1678
C61_10 C 0.96568(18) 0.3278(2) 0.2042(3)
C62_10 C 0.9552(2) 0.3051(3) 0.2425(3)
H39_10 H 0.9242 0.3013 0.2507
C63_10 C 0.9883(3) 0.2862(3) 0.2717(3)
H40_10 H 0.9800 0.2671 0.2975
C74_10 C 0.72712(19) 0.34645(19) 0.1878(2)
C75_10 C 0.81423(17) 0.43011(18) 0.0656(2)
C78_10 C 0.6730(2) 0.2681(3) 0.3591(3)
H48_10 H 0.6418 0.2741 0.3539
C79_10 C 0.6870(4) 0.2487(3) 0.4017(3)
H49_10 H 0.6654 0.2415 0.4256
C80_10 C 0.7327(4) 0.2399(3) 0.4093(2)
H50_10 H 0.7423 0.2266 0.4385
C81_10 C 0.7643(3) 0.2504(3) 0.3744(4)
H51_10 H 0.7955 0.2444 0.3796
C82_10 C 0.7502(2) 0.2698(3) 0.3318(3)
H52_10 H 0.7718 0.2770 0.3080
N2_10 N 0.7046(3) 0.27866(17) 0.3242(2)
O37_7 O 0.66025(12) 0.25945(12) 0.22525(14)
O38_7 O 0.62392(13) 0.29853(12) 0.16951(14)
H59_10 H 0.609588 0.424689 0.137164
H60_10 H 0.563957 0.395768 0.147449
O27_11 O 0.64765(17) 0.09743(13) 0.16876(16)
C64_11 C 0.7047(3) 0.0327(2) 0.2626(3)
H41_11 H 0.7157 0.0556 0.2833
C65_11 C 0.6795(2) 0.0444(2) 0.2236(3)
C66_11 C 0.6643(2) 0.0108(2) 0.1949(3)
H42_11 H 0.6475 0.0186 0.1673
C67_11 C 0.6719(3) 0.0945(2) 0.2119(3)
H43_11 H 0.7014 0.1102 0.2087
H44_11 H 0.6546 0.1093 0.2378
C68_11 C 0.6326(2) 0.13895(18) 0.1561(2)
C69_11 C 0.64518(19) 0.17879(18) 0.1778(2)
H45_11 H 0.6663 0.1786 0.2033
C70_11 C 0.62663(19) 0.21928(18) 0.1620(2)
C71_11 C 0.59641(18) 0.21961(18) 0.1251(2)
H46_11 H 0.5839 0.2475 0.1147
C72_11 C 0.58389(17) 0.17998(17) 0.1029(2)
C73_11 C 0.6015(2) 0.1383(2) 0.1190(2)
H47_11 H 0.5923 0.1105 0.1048
C76_11 C 0.63825(18) 0.26136(18) 0.1868(2)
C77_11 C 0.54977(18) 0.1797(2) 0.06432(19)
H57_14 H 0.946867 0.490551 0.0320587
H53_14 H 0.687008 0.463953 0.991656
H54_14 H 0.689415 0.516805 0.976237
H58_14 H 0.947781 0.503986 0.976113
O26_11 O 0.66710(15) 0.88760(13) 0.18469(18)
O32_11 O 0.63764(13) 0.69155(12) 0.16928(15)
O33_11 O 0.67642(13) 0.72765(12) 0.22641(16)
O34_11 O 0.60627(18) 0.59682(18) 0.1403(2)
C54_11 C 0.61346(17) 0.77225(17) 0.12666(19)
H34_11 H 0.6013 0.7449 0.1143
C55_11 C 0.64312(16) 0.77056(17) 0.16547(19)
C56_11 C 0.66045(18) 0.81065(18) 0.1829(2)
H35_11 H 0.6812 0.8099 0.2087
C57_11 C 0.6481(2) 0.85225(18) 0.1634(2)
C58_11 C 0.61926(18) 0.85314(18) 0.1244(2)
H36_11 H 0.6113 0.8811 0.1100
C59_11 C 0.60186(17) 0.81237(18) 0.10641(19)
C60_11 C 0.6544(3) 0.9287(2) 0.1696(3)
H37_11 H 0.6667 0.9341 0.1373
H38_11 H 0.6210 0.9302 0.1678
C61_11 C 0.6722(2) 0.96568(18) 0.2042(3)
C62_11 C 0.6949(3) 0.9552(2) 0.2425(3)
H39_11 H 0.6987 0.9242 0.2507
C63_11 C 0.7138(3) 0.9883(3) 0.2717(3)
H40_11 H 0.7329 0.9800 0.2975
C74_11 C 0.65355(19) 0.72712(19) 0.1878(2)
C75_11 C 0.56989(18) 0.81423(17) 0.0656(2)
C78_11 C 0.7319(3) 0.6730(2) 0.3591(3)
H48_11 H 0.7259 0.6418 0.3539
C79_11 C 0.7513(3) 0.6870(4) 0.4017(3)
H49_11 H 0.7585 0.6654 0.4256
C80_11 C 0.7601(3) 0.7327(4) 0.4093(2)
H50_11 H 0.7734 0.7423 0.4385
C81_11 C 0.7496(3) 0.7643(3) 0.3744(4)
H51_11 H 0.7556 0.7955 0.3796
C82_11 C 0.7302(3) 0.7502(2) 0.3318(3)
H52_11 H 0.7230 0.7718 0.3080
N2_11 N 0.72134(17) 0.7046(3) 0.3242(2)
O37_8 O 0.74055(12) 0.66025(12) 0.22525(14)
O38_8 O 0.70147(12) 0.62392(13) 0.16951(14)
H59_11 H 0.575311 0.609588 0.137164
H60_11 H 0.604232 0.563957 0.147449
O26_12 O 0.11240(13) 0.66710(15) 0.18469(18)
O32_12 O 0.30845(12) 0.63764(13) 0.16928(15)
O33_12 O 0.27235(12) 0.67642(13) 0.22641(16)
O34_12 O 0.40318(18) 0.60627(18) 0.1403(2)
C54_12 C 0.22775(17) 0.61346(17) 0.12666(19)
H34_12 H 0.2551 0.6013 0.1143
C55_12 C 0.22944(17) 0.64312(16) 0.16547(19)
C56_12 C 0.18935(18) 0.66045(18) 0.1829(2)
H35_12 H 0.1901 0.6812 0.2087
C57_12 C 0.14775(18) 0.6481(2) 0.1634(2)
C58_12 C 0.14686(18) 0.61926(18) 0.1244(2)
H36_12 H 0.1189 0.6113 0.1100
C59_12 C 0.18763(18) 0.60186(17) 0.10641(19)
C60_12 C 0.0713(2) 0.6544(3) 0.1696(3)
H37_12 H 0.0659 0.6667 0.1373
H38_12 H 0.0698 0.6210 0.1678
C61_12 C 0.03432(18) 0.6722(2) 0.2042(3)
C62_12 C 0.0448(2) 0.6949(3) 0.2425(3)
H39_12 H 0.0758 0.6987 0.2507
C63_12 C 0.0117(3) 0.7138(3) 0.2717(3)
H40_12 H 0.0200 0.7329 0.2975
C74_12 C 0.27288(19) 0.65355(19) 0.1878(2)
C75_12 C 0.18577(17) 0.56989(18) 0.0656(2)
C78_12 C 0.3270(2) 0.7319(3) 0.3591(3)
H48_12 H 0.3582 0.7259 0.3539
C79_12 C 0.3130(4) 0.7513(3) 0.4017(3)
H49_12 H 0.3346 0.7585 0.4256
C80_12 C 0.2673(4) 0.7601(3) 0.4093(2)
H50_12 H 0.2577 0.7734 0.4385
C81_12 C 0.2357(3) 0.7496(3) 0.3744(4)
H51_12 H 0.2045 0.7556 0.3796
C82_12 C 0.2498(2) 0.7302(3) 0.3318(3)
H52_12 H 0.2282 0.7230 0.3080
N2_12 N 0.2954(3) 0.72134(17) 0.3242(2)
H59_12 H 0.390412 0.575311 0.137164
H60_12 H 0.436043 0.604232 0.147449
O27_12 O 0.90257(13) 0.64765(17) 0.16876(16)
C64_12 C 0.9673(2) 0.7047(3) 0.2626(3)
H41_12 H 0.9444 0.7157 0.2833
C65_12 C 0.9556(2) 0.6795(2) 0.2236(3)
C66_12 C 0.9892(2) 0.6643(2) 0.1949(3)
H42_12 H 0.9814 0.6475 0.1673
C67_12 C 0.9055(2) 0.6719(3) 0.2119(3)
H43_12 H 0.8898 0.7014 0.2087
H44_12 H 0.8907 0.6546 0.2378
C68_12 C 0.86105(18) 0.6326(2) 0.1561(2)
C69_12 C 0.82121(18) 0.64518(19) 0.1778(2)
H45_12 H 0.8214 0.6663 0.2033
C70_12 C 0.78072(18) 0.62663(19) 0.1620(2)
C71_12 C 0.78039(18) 0.59641(18) 0.1251(2)
H46_12 H 0.7525 0.5839 0.1147
C72_12 C 0.82002(17) 0.58389(17) 0.1029(2)
C73_12 C 0.8617(2) 0.6015(2) 0.1190(2)
H47_12 H 0.8895 0.5923 0.1048
C76_12 C 0.73864(18) 0.63825(18) 0.1868(2)
C77_12 C 0.8203(2) 0.54977(18) 0.06432(19)
H57_15 H 0.509449 0.946867 0.0320587
H53_15 H 0.536047 0.687008 0.991656
H54_15 H 0.483195 0.689415 0.976237
H58_15 H 0.496014 0.947781 0.976113
H57_16 H 0.0531328 0.509449 0.0320587
H53_16 H 0.312992 0.536047 0.991656
H54_16 H 0.310585 0.483195 0.976237
H58_16 H 0.0522187 0.496014 0.976113
loop_
_geom_bond_atom_site_label_1
_geom_bond_atom_site_label_2
_geom_bond_site_symmetry_1
_geom_bond_site_symmetry_2
Cu1 O10 1_555 1_555
Cu2 O9 1_555 1_555
Cu3 O2 1_555 1_555
Cu4 O1 1_555 1_555
O1 C23 1_555 1_555
O2 C23 1_555 1_555
O3 C5 1_555 1_555
O4 C15 1_555 1_555
O5 C24 1_555 1_555
O6 C24 1_555 1_555
O7 C25 1_555 1_555
O8 C25 1_555 1_555
O9 C22 1_555 1_555
O10 C22 1_555 1_555
O11 Cu1 1_555 1_555
O12 Cu2 1_555 1_555
O16 Cu3 1_555 1_555
O17 Cu2 1_555 1_555
O18 Cu4 1_555 1_555
C1 H1 1_555 1_555
C3 C1 1_555 1_555
C4 C3 1_555 1_555
H2 C4 1_555 1_555
C5 C4 1_555 1_555
C6 C5 1_555 1_555
H3 C6 1_555 1_555
C7 C1 1_555 1_555
C8 O3 1_555 1_555
H4 C8 1_555 1_555
H5 C8 1_555 1_555
C9 C8 1_555 1_555
C10 C9 1_555 1_555
H6 C10 1_555 1_555
C11 C10 1_555 1_555
H7 C11 1_555 1_555
C12 C11 1_555 1_555
H8 C12 1_555 1_555
C13 C12 1_555 1_555
C14 C9 1_555 1_555
H9 C14 1_555 1_555
C15 C13 1_555 1_555
H10 C15 1_555 1_555
H11 C15 1_555 1_555
C16 O4 1_555 1_555
C17 C16 1_555 1_555
H12 C17 1_555 1_555
C18 C17 1_555 1_555
C19 C18 1_555 1_555
H13 C19 1_555 1_555
C20 C19 1_555 1_555
C21 C16 1_555 1_555
H14 C21 1_555 1_555
C22 C3 1_555 1_555
C23 C7 1_555 1_555
C24 C18 1_555 1_555
C25 C20 1_555 1_555
C26 C27 1_555 1_555
C27 H15 1_555 1_555
C37 O11 1_555 1_555
C38 H23 1_555 1_555
C39 C38 1_555 1_555
H24 C39 1_555 1_555
C40 C39 1_555 1_555
H25 C40 1_555 1_555
C41 C40 1_555 1_555
H26 C41 1_555 1_555
C42 C41 1_555 1_555
H27 C42 1_555 1_555
N1 Cu1 1_555 1_555
Cu5 O33 1_555 1_555
Cu6 O32 1_555 1_555
O24 C75 1_555 1_555
O25 C75 1_555 1_555
O26 C57 1_555 1_555
O27 C67 1_555 1_555
O28 Cu1 1_555 1_555
O29 Cu2 1_555 1_555
O30 C77 1_555 1_555
O31 C77 1_555 1_555
O32 C74 1_555 1_555
O33 C74 1_555 1_555
O34 Cu6 1_555 1_555
C54 H34 1_555 1_555
C55 C54 1_555 1_555
C56 C55 1_555 1_555
H35 C56 1_555 1_555
C57 C56 1_555 1_555
C58 C57 1_555 1_555
H36 C58 1_555 1_555
C59 C54 1_555 1_555
C60 O26 1_555 1_555
H37 C60 1_555 1_555
H38 C60 1_555 1_555
C61 C60 1_555 1_555
C62 C61 1_555 1_555
H39 C62 1_555 1_555
C63 C62 1_555 1_555
H40 C63 1_555 1_555
C64 C63 1_555 1_555
H41 C64 1_555 1_555
C65 C64 1_555 1_555
C66 C61 1_555 1_555
H42 C66 1_555 1_555
C67 C65 1_555 1_555
H43 C67 1_555 1_555
H44 C67 1_555 1_555
C68 O27 1_555 1_555
C69 C68 1_555 1_555
H45 C69 1_555 1_555
C70 C69 1_555 1_555
C71 C70 1_555 1_555
H46 C71 1_555 1_555
C72 C71 1_555 1_555
C73 C68 1_555 1_555
H47 C73 1_555 1_555
C74 C55 1_555 1_555
C75 C59 1_555 1_555
C76 O28 1_555 1_555
C77 C72 1_555 1_555
C78 H48 1_555 1_555
C79 C78 1_555 1_555
H49 C79 1_555 1_555
C80 C79 1_555 1_555
H50 C80 1_555 1_555
C81 C80 1_555 1_555
H51 C81 1_555 1_555
C82 C81 1_555 1_555
H52 C82 1_555 1_555
N2 Cu5 1_555 1_555
Cu8 O5 1_555 1_555
Cu12 O6 1_555 1_555
Cu15 O25 1_555 1_555
Cu18 O24 1_555 1_555
O35 Cu4 1_555 1_555
O36 Cu3 1_555 1_555
O37 Cu5 1_555 1_555
O38 Cu6 1_555 1_555
O43 Cu5 1_555 1_555
O44 Cu6 1_555 1_555
O45 Cu2 1_555 1_555
O46 Cu6 1_555 1_555
O47 Cu1 1_555 1_555
O48 Cu5 1_555 1_555
O12 C37 1_555 1_555
C6 C7 1_555 1_555
C13 C14 1_555 1_555
C20 C21 1_555 1_555
C26 C37 1_555 1_555
C38 N1 1_555 1_555
C42 N1 1_555 1_555
O29 C76 1_555 1_555
C58 C59 1_555 1_555
C65 C66 1_555 1_555
C70 C76 1_555 1_555
C72 C73 1_555 1_555
C78 N2 1_555 1_555
C82 N2 1_555 1_555
O18 H53 1_555 1_555
O17 H55 1_555 1_555
O17 H56 1_555 1_555
O16 H57 1_555 1_555
O34 H59 1_555 1_555
O34 H60 1_555 1_555
O19 C53 1_555 1_555
O20 C53 1_555 1_555
C44 C45 1_555 1_555
C45 H28 1_555 1_555
C53 C44 1_555 1_555
Cu10 O19 1_555 1_555
Cu14 O20 1_555 1_555
O13 C2 1_555 1_555
O14 C2 1_555 1_555
O15 C28 1_555 1_555
C2 C30 1_555 1_555
C29 C28 1_555 1_555
H16 C29 1_555 1_555
C30 C29 1_555 1_555
H17 C31 1_555 1_555
C32 O15 1_555 1_555
H18 C32 1_555 1_555
H19 C32 1_555 1_555
C33 C32 1_555 1_555
C34 C33 1_555 1_555
H20 C34 1_555 1_555
C35 C34 1_555 1_555
H21 C35 1_555 1_555
C36 C33 1_555 1_555
H22 C36 1_555 1_555
Cu8 O14 1_555 1_555
Cu12 O13 1_555 1_555
C30 C31 1_555 1_555
H21_2 C35_2 1_555 1_555
H22_2 C36_2 1_555 1_555
O21 C43 1_555 1_555
O22 C43 1_555 1_555
O23 C46 1_555 1_555
C43 C48 1_555 1_555
C47 C46 1_555 1_555
H29 C47 1_555 1_555
C48 C47 1_555 1_555
H30 C49 1_555 1_555
C50 O23 1_555 1_555
H31 C50 1_555 1_555
H32 C50 1_555 1_555
C51 C36_2 1_555 1_555
C52 C35_2 1_555 1_555
H33 C52 1_555 1_555
Cu9 O22 1_555 1_555
Cu13 O21 1_555 1_555
C48 C49 1_555 1_555
C50 C51 1_555 1_555
C51 C52 1_555 1_555
O45 C2_2 1_555 1_555
O47 C2_2 1_555 1_555
O15_2 C28_2 1_555 1_555
C2_2 C30_2 1_555 1_555
C29_2 C28_2 1_555 1_555
H16_2 C29_2 1_555 1_555
C30_2 C29_2 1_555 1_555
H17_2 C31_2 1_555 1_555
C32_2 O15_2 1_555 1_555
H18_2 C32_2 1_555 1_555
H19_2 C32_2 1_555 1_555
C33_2 C32_2 1_555 1_555
C34_2 C33_2 1_555 1_555
H20_2 C34_2 1_555 1_555
C35_3 C34_2 1_555 1_555
H21_3 C35_3 1_555 1_555
C36_3 C33_2 1_555 1_555
H22_3 C36_3 1_555 1_555
C30_2 C31_2 1_555 1_555
H21_4 C35_4 1_555 1_555
H22_4 C36_4 1_555 1_555
O21_2 C43_2 1_555 1_555
O22_2 C43_2 1_555 1_555
O23_2 C46_2 1_555 1_555
C43_2 C48_2 1_555 1_555
C47_2 C46_2 1_555 1_555
H29_2 C47_2 1_555 1_555
C48_2 C47_2 1_555 1_555
H30_2 C49_2 1_555 1_555
C50_2 O23_2 1_555 1_555
H31_2 C50_2 1_555 1_555
H32_2 C50_2 1_555 1_555
C51_2 C36_4 1_555 1_555
C52_2 C35_4 1_555 1_555
H33_2 C52_2 1_555 1_555
Cu10 O22_2 1_555 1_555
Cu14 O21_2 1_555 1_555
C48_2 C49_2 1_555 1_555
C50_2 C51_2 1_555 1_555
C51_2 C52_2 1_555 1_555
O16_2 Cu15 1_555 1_555
O18_2 Cu18 1_555 1_555
C26_2 C27_2 1_555 1_555
C27_2 H15_2 1_555 1_555
C37_2 O43 1_555 1_555
Cu5_2 O33_2 1_555 1_555
Cu6_2 O32_2 1_555 1_555
O24_2 C75_2 1_555 1_555
O25_2 C75_2 1_555 1_555
O26_2 C57_2 1_555 1_555
O27_2 C67_2 1_555 1_555
O39 C77_2 1_555 1_555
O41 C77_2 1_555 1_555
O32_2 C74_2 1_555 1_555
O33_2 C74_2 1_555 1_555
O34_2 Cu6_2 1_555 1_555
C54_2 H34_2 1_555 1_555
C55_2 C54_2 1_555 1_555
C56_2 C55_2 1_555 1_555
H35_2 C56_2 1_555 1_555
C57_2 C56_2 1_555 1_555
C58_2 C57_2 1_555 1_555
H36_2 C58_2 1_555 1_555
C59_2 C54_2 1_555 1_555
C60_2 O26_2 1_555 1_555
H37_2 C60_2 1_555 1_555
H38_2 C60_2 1_555 1_555
C61_2 C60_2 1_555 1_555
C62_2 C61_2 1_555 1_555
H39_2 C62_2 1_555 1_555
C63_2 C62_2 1_555 1_555
H40_2 C63_2 1_555 1_555
C64_2 C63_2 1_555 1_555
H41_2 C64_2 1_555 1_555
C65_2 C64_2 1_555 1_555
C66_2 C61_2 1_555 1_555
H42_2 C66_2 1_555 1_555
C67_2 C65_2 1_555 1_555
H43_2 C67_2 1_555 1_555
H44_2 C67_2 1_555 1_555
C68_2 O27_2 1_555 1_555
C69_2 C68_2 1_555 1_555
H45_2 C69_2 1_555 1_555
C70_2 C69_2 1_555 1_555
C71_2 C70_2 1_555 1_555
H46_2 C71_2 1_555 1_555
C72_2 C71_2 1_555 1_555
C73_2 C68_2 1_555 1_555
H47_2 C73_2 1_555 1_555
C74_2 C55_2 1_555 1_555
C75_2 C59_2 1_555 1_555
C76_2 O37 1_555 1_555
C77_2 C72_2 1_555 1_555
C78_2 H48_2 1_555 1_555
C79_2 C78_2 1_555 1_555
H49_2 C79_2 1_555 1_555
C80_2 C79_2 1_555 1_555
H50_2 C80_2 1_555 1_555
C81_2 C80_2 1_555 1_555
H51_2 C81_2 1_555 1_555
C82_2 C81_2 1_555 1_555
H52_2 C82_2 1_555 1_555
N2_2 Cu5_2 1_555 1_555
Cu16 O25_2 1_555 1_555
Cu19 O24_2 1_555 1_555
O35_2 Cu18 1_555 1_555
O36_2 Cu15 1_555 1_555
O37_2 Cu5_2 1_555 1_555
O38_2 Cu6_2 1_555 1_555
O43_2 Cu5_2 1_555 1_555
O44_2 Cu6_2 1_555 1_555
O46_2 Cu6_2 1_555 1_555
O48_2 Cu5_2 1_555 1_555
O44 C37_2 1_555 1_555
C26_2 C37_2 1_555 1_555
O38 C76_2 1_555 1_555
C58_2 C59_2 1_555 1_555
C65_2 C66_2 1_555 1_555
C70_2 C76_2 1_555 1_555
C72_2 C73_2 1_555 1_555
C78_2 N2_2 1_555 1_555
C82_2 N2_2 1_555 1_555
O18_2 H53_2 1_555 1_555
O16_2 H57_2 1_555 1_555
O34_2 H59_2 1_555 1_555
O34_2 H60_2 1_555 1_555
O19_2 C53_2 1_555 1_555
O20_2 C53_2 1_555 1_555
C44_2 C45_2 1_555 1_555
C45_2 H28_2 1_555 1_555
C53_2 C44_2 1_555 1_555
Cu10_2 O19_2 1_555 1_555
Cu14_2 O20_2 1_555 1_555
O46 C2_3 1_555 1_555
O48 C2_3 1_555 1_555
O15_3 C28_3 1_555 1_555
C2_3 C30_3 1_555 1_555
C29_3 C28_3 1_555 1_555
H16_3 C29_3 1_555 1_555
C30_3 C29_3 1_555 1_555
H17_3 C31_3 1_555 1_555
C32_3 O15_3 1_555 1_555
H18_3 C32_3 1_555 1_555
H19_3 C32_3 1_555 1_555
C33_3 C32_3 1_555 1_555
C34_3 C33_3 1_555 1_555
H20_3 C34_3 1_555 1_555
C35_5 C34_3 1_555 1_555
H21_5 C35_5 1_555 1_555
C36_5 C33_3 1_555 1_555
H22_5 C36_5 1_555 1_555
C30_3 C31_3 1_555 1_555
H21_6 C35_6 1_555 1_555
H22_6 C36_6 1_555 1_555
O21_3 C43_3 1_555 1_555
O22_3 C43_3 1_555 1_555
O23_3 C46_3 1_555 1_555
C43_3 C48_3 1_555 1_555
C47_3 C46_3 1_555 1_555
H29_3 C47_3 1_555 1_555
C48_3 C47_3 1_555 1_555
H30_3 C49_3 1_555 1_555
C50_3 O23_3 1_555 1_555
H31_3 C50_3 1_555 1_555
H32_3 C50_3 1_555 1_555
C51_3 C36_6 1_555 1_555
C52_3 C35_6 1_555 1_555
H33_3 C52_3 1_555 1_555
Cu10_2 O22_3 1_555 1_555
Cu14_2 O21_3 1_555 1_555
C48_3 C49_3 1_555 1_555
C50_3 C51_3 1_555 1_555
C51_3 C52_3 1_555 1_555
O16_3 Cu16 1_555 1_555
O18_3 Cu19 1_555 1_555
C26_3 C27_3 1_555 1_555
C27_3 H15_3 1_555 1_555
C37_3 O43_2 1_555 1_555
Cu8 O33_3 1_555 1_555
Cu12 O32_3 1_555 1_555
O24_3 C75_3 1_555 1_555
O25_3 C75_3 1_555 1_555
O26_3 C57_3 1_555 1_555
O27_3 C67_3 1_555 1_555
O39_2 C77_3 1_555 1_555
O41_2 C77_3 1_555 1_555
O32_3 C74_3 1_555 1_555
O33_3 C74_3 1_555 1_555
O34_3 Cu12 1_555 1_555
C54_3 H34_3 1_555 1_555
C55_3 C54_3 1_555 1_555
C56_3 C55_3 1_555 1_555
H35_3 C56_3 1_555 1_555
C57_3 C56_3 1_555 1_555
C58_3 C57_3 1_555 1_555
H36_3 C58_3 1_555 1_555
C59_3 C54_3 1_555 1_555
C60_3 O26_3 1_555 1_555
H37_3 C60_3 1_555 1_555
H38_3 C60_3 1_555 1_555
C61_3 C60_3 1_555 1_555
C62_3 C61_3 1_555 1_555
H39_3 C62_3 1_555 1_555
C63_3 C62_3 1_555 1_555
H40_3 C63_3 1_555 1_555
C64_3 C63_3 1_555 1_555
H41_3 C64_3 1_555 1_555
C65_3 C64_3 1_555 1_555
C66_3 C61_3 1_555 1_555
H42_3 C66_3 1_555 1_555
C67_3 C65_3 1_555 1_555
H43_3 C67_3 1_555 1_555
H44_3 C67_3 1_555 1_555
C68_3 O27_3 1_555 1_555
C69_3 C68_3 1_555 1_555
H45_3 C69_3 1_555 1_555
C70_3 C69_3 1_555 1_555
C71_3 C70_3 1_555 1_555
H46_3 C71_3 1_555 1_555
C72_3 C71_3 1_555 1_555
C73_3 C68_3 1_555 1_555
H47_3 C73_3 1_555 1_555
C74_3 C55_3 1_555 1_555
C75_3 C59_3 1_555 1_555
C76_3 O37_2 1_555 1_555
C77_3 C72_3 1_555 1_555
C78_3 H48_3 1_555 1_555
C79_3 C78_3 1_555 1_555
H49_3 C79_3 1_555 1_555
C80_3 C79_3 1_555 1_555
H50_3 C80_3 1_555 1_555
C81_3 C80_3 1_555 1_555
H51_3 C81_3 1_555 1_555
C82_3 C81_3 1_555 1_555
H52_3 C82_3 1_555 1_555
N2_3 Cu8 1_555 1_555
Cu17 O25_3 1_555 1_555
Cu20 O24_3 1_555 1_555
O35_3 Cu19 1_555 1_555
O36_3 Cu16 1_555 1_555
O43_3 Cu8 1_555 1_555
O44_3 Cu12 1_555 1_555
O44_2 C37_3 1_555 1_555
C26_3 C37_3 1_555 1_555
O38_2 C76_3 1_555 1_555
C58_3 C59_3 1_555 1_555
C65_3 C66_3 1_555 1_555
C70_3 C76_3 1_555 1_555
C72_3 C73_3 1_555 1_555
C78_3 N2_3 1_555 1_555
C82_3 N2_3 1_555 1_555
O18_3 H53_3 1_555 1_555
O16_3 H57_3 1_555 1_555
O34_3 H59_3 1_555 1_555
O34_3 H60_3 1_555 1_555
O19_3 C53_3 1_555 1_555
O20_3 C53_3 1_555 1_555
C44_3 C45_3 1_555 1_555
C45_3 H28_3 1_555 1_555
C53_3 C44_3 1_555 1_555
Cu10_3 O19_3 1_555 1_555
Cu14_3 O20_3 1_555 1_555
O16_4 Cu17 1_555 1_555
O18_4 Cu20 1_555 1_555
C26_4 C27_4 1_555 1_555
C27_4 H15_4 1_555 1_555
C37_4 O43_3 1_555 1_555
O35_4 Cu20 1_555 1_555
O36_4 Cu17 1_555 1_555
O44_3 C37_4 1_555 1_555
C26_4 C37_4 1_555 1_555
O18_4 H53_4 1_555 1_555
O16_4 H57_4 1_555 1_555
O19_4 C53_4 1_555 1_555
O20_4 C53_4 1_555 1_555
C44_4 C45_4 1_555 1_555
C45_4 H28_4 1_555 1_555
C53_4 C44_4 1_555 1_555
Cu9 O19_4 1_555 1_555
Cu13 O20_4 1_555 1_555
O46_2 C2_4 1_555 1_555
O48_2 C2_4 1_555 1_555
O15_4 C28_4 1_555 1_555
C2_4 C30_4 1_555 1_555
C29_4 C28_4 1_555 1_555
H16_4 C29_4 1_555 1_555
C30_4 C29_4 1_555 1_555
H17_4 C31_4 1_555 1_555
C32_4 O15_4 1_555 1_555
H18_4 C32_4 1_555 1_555
H19_4 C32_4 1_555 1_555
C33_4 C32_4 1_555 1_555
C34_4 C33_4 1_555 1_555
H20_4 C34_4 1_555 1_555
C35_7 C34_4 1_555 1_555
H21_7 C35_7 1_555 1_555
C36_7 C33_4 1_555 1_555
H22_7 C36_7 1_555 1_555
C30_4 C31_4 1_555 1_555
H21_8 C35_8 1_555 1_555
H22_8 C36_8 1_555 1_555
O21_4 C43_4 1_555 1_555
O22_4 C43_4 1_555 1_555
O23_4 C46_4 1_555 1_555
C43_4 C48_4 1_555 1_555
C47_4 C46_4 1_555 1_555
H29_4 C47_4 1_555 1_555
C48_4 C47_4 1_555 1_555
H30_4 C49_4 1_555 1_555
C50_4 O23_4 1_555 1_555
H31_4 C50_4 1_555 1_555
H32_4 C50_4 1_555 1_555
C51_4 C36_8 1_555 1_555
C52_4 C35_8 1_555 1_555
H33_4 C52_4 1_555 1_555
Cu10_3 O22_4 1_555 1_555
Cu14_3 O21_4 1_555 1_555
C48_4 C49_4 1_555 1_555
C50_4 C51_4 1_555 1_555
C51_4 C52_4 1_555 1_555
Cu10_3 O10_2 1_555 1_555
Cu14_3 O9_2 1_555 1_555
O35_3 C23_2 1_555 1_555
O36_3 C23_2 1_555 1_555
O3_2 C5_2 1_555 1_555
O4_2 C15_2 1_555 1_555
O5_2 C24_2 1_555 1_555
O6_2 C24_2 1_555 1_555
O40 C25_2 1_555 1_555
O42 C25_2 1_555 1_555
O9_2 C22_2 1_555 1_555
O10_2 C22_2 1_555 1_555
O17_2 Cu14_3 1_555 1_555
C1_2 H1_2 1_555 1_555
C3_2 C1_2 1_555 1_555
C4_2 C3_2 1_555 1_555
H2_2 C4_2 1_555 1_555
C5_2 C4_2 1_555 1_555
C6_2 C5_2 1_555 1_555
H3_2 C6_2 1_555 1_555
C7_2 C1_2 1_555 1_555
C8_2 O3_2 1_555 1_555
H4_2 C8_2 1_555 1_555
H5_2 C8_2 1_555 1_555
C9_2 C8_2 1_555 1_555
C10_2 C9_2 1_555 1_555
H6_2 C10_2 1_555 1_555
C11_2 C10_2 1_555 1_555
H7_2 C11_2 1_555 1_555
C12_2 C11_2 1_555 1_555
H8_2 C12_2 1_555 1_555
C13_2 C12_2 1_555 1_555
C14_2 C9_2 1_555 1_555
H9_2 C14_2 1_555 1_555
C15_2 C13_2 1_555 1_555
H10_2 C15_2 1_555 1_555
H11_2 C15_2 1_555 1_555
C16_2 O4_2 1_555 1_555
C17_2 C16_2 1_555 1_555
H12_2 C17_2 1_555 1_555
C18_2 C17_2 1_555 1_555
C19_2 C18_2 1_555 1_555
H13_2 C19_2 1_555 1_555
C20_2 C19_2 1_555 1_555
C21_2 C16_2 1_555 1_555
H14_2 C21_2 1_555 1_555
C22_2 C3_2 1_555 1_555
C23_2 C7_2 1_555 1_555
C24_2 C18_2 1_555 1_555
C25_2 C20_2 1_555 1_555
C38_2 H23_2 1_555 1_555
C39_2 C38_2 1_555 1_555
H24_2 C39_2 1_555 1_555
C40_2 C39_2 1_555 1_555
H25_2 C40_2 1_555 1_555
C41_2 C40_2 1_555 1_555
H26_2 C41_2 1_555 1_555
C42_2 C41_2 1_555 1_555
H27_2 C42_2 1_555 1_555
N1_2 Cu10_3 1_555 1_555
Cu9 O33_4 1_555 1_555
Cu13 O32_4 1_555 1_555
O35_4 C75_4 1_555 1_555
O36_4 C75_4 1_555 1_555
O26_4 C57_4 1_555 1_555
O27_4 C67_4 1_555 1_555
O28_2 Cu10_3 1_555 1_555
O29_2 Cu14_3 1_555 1_555
O40_2 C77_4 1_555 1_555
O42_2 C77_4 1_555 1_555
O32_4 C74_4 1_555 1_555
O33_4 C74_4 1_555 1_555
O34_4 Cu13 1_555 1_555
C54_4 H34_4 1_555 1_555
C55_4 C54_4 1_555 1_555
C56_4 C55_4 1_555 1_555
H35_4 C56_4 1_555 1_555
C57_4 C56_4 1_555 1_555
C58_4 C57_4 1_555 1_555
H36_4 C58_4 1_555 1_555
C59_4 C54_4 1_555 1_555
C60_4 O26_4 1_555 1_555
H37_4 C60_4 1_555 1_555
H38_4 C60_4 1_555 1_555
C61_4 C60_4 1_555 1_555
C62_4 C61_4 1_555 1_555
H39_4 C62_4 1_555 1_555
C63_4 C62_4 1_555 1_555
H40_4 C63_4 1_555 1_555
C64_4 C63_4 1_555 1_555
H41_4 C64_4 1_555 1_555
C65_4 C64_4 1_555 1_555
C66_4 C61_4 1_555 1_555
H42_4 C66_4 1_555 1_555
C67_4 C65_4 1_555 1_555
H43_4 C67_4 1_555 1_555
H44_4 C67_4 1_555 1_555
C68_4 O27_4 1_555 1_555
C69_4 C68_4 1_555 1_555
H45_4 C69_4 1_555 1_555
C70_4 C69_4 1_555 1_555
C71_4 C70_4 1_555 1_555
H46_4 C71_4 1_555 1_555
C72_4 C71_4 1_555 1_555
C73_4 C68_4 1_555 1_555
H47_4 C73_4 1_555 1_555
C74_4 C55_4 1_555 1_555
C75_4 C59_4 1_555 1_555
C76_4 O28_2 1_555 1_555
C77_4 C72_4 1_555 1_555
C78_4 H48_4 1_555 1_555
C79_4 C78_4 1_555 1_555
H49_4 C79_4 1_555 1_555
C80_4 C79_4 1_555 1_555
H50_4 C80_4 1_555 1_555
C81_4 C80_4 1_555 1_555
H51_4 C81_4 1_555 1_555
C82_4 C81_4 1_555 1_555
H52_4 C82_4 1_555 1_555
N2_4 Cu9 1_555 1_555
Cu10_2 O5_2 1_555 1_555
Cu14_2 O6_2 1_555 1_555
O37_3 Cu9 1_555 1_555
O38_3 Cu13 1_555 1_555
C6_2 C7_2 1_555 1_555
C13_2 C14_2 1_555 1_555
C20_2 C21_2 1_555 1_555
C38_2 N1_2 1_555 1_555
C42_2 N1_2 1_555 1_555
O29_2 C76_4 1_555 1_555
C58_4 C59_4 1_555 1_555
C65_4 C66_4 1_555 1_555
C70_4 C76_4 1_555 1_555
C72_4 C73_4 1_555 1_555
C78_4 N2_4 1_555 1_555
C82_4 N2_4 1_555 1_555
O18_3 H53_5 1_555 1_555
O17_2 H55_2 1_555 1_555
O17_2 H56_2 1_555 1_555
O16_3 H57_5 1_555 1_555
O34_4 H59_4 1_555 1_555
O34_4 H60_4 1_555 1_555
Cu10 O33_5 1_555 1_555
Cu14 O32_5 1_555 1_555
O35 C75_5 1_555 1_555
O36 C75_5 1_555 1_555
O26_5 C57_5 1_555 1_555
O27_5 C67_5 1_555 1_555
O40_3 C77_5 1_555 1_555
O42_3 C77_5 1_555 1_555
O32_5 C74_5 1_555 1_555
O33_5 C74_5 1_555 1_555
O34_5 Cu14 1_555 1_555
C54_5 H34_5 1_555 1_555
C55_5 C54_5 1_555 1_555
C56_5 C55_5 1_555 1_555
H35_5 C56_5 1_555 1_555
C57_5 C56_5 1_555 1_555
C58_5 C57_5 1_555 1_555
H36_5 C58_5 1_555 1_555
C59_5 C54_5 1_555 1_555
C60_5 O26_5 1_555 1_555
H37_5 C60_5 1_555 1_555
H38_5 C60_5 1_555 1_555
C61_5 C60_5 1_555 1_555
C62_5 C61_5 1_555 1_555
H39_5 C62_5 1_555 1_555
C63_5 C62_5 1_555 1_555
H40_5 C63_5 1_555 1_555
C64_5 C63_5 1_555 1_555
H41_5 C64_5 1_555 1_555
C65_5 C64_5 1_555 1_555
C66_5 C61_5 1_555 1_555
H42_5 C66_5 1_555 1_555
C67_5 C65_5 1_555 1_555
H43_5 C67_5 1_555 1_555
H44_5 C67_5 1_555 1_555
C68_5 O27_5 1_555 1_555
C69_5 C68_5 1_555 1_555
H45_5 C69_5 1_555 1_555
C70_5 C69_5 1_555 1_555
C71_5 C70_5 1_555 1_555
H46_5 C71_5 1_555 1_555
C72_5 C71_5 1_555 1_555
C73_5 C68_5 1_555 1_555
H47_5 C73_5 1_555 1_555
C74_5 C55_5 1_555 1_555
C75_5 C59_5 1_555 1_555
C76_5 O37_3 1_555 1_555
C77_5 C72_5 1_555 1_555
C78_5 H48_5 1_555 1_555
C79_5 C78_5 1_555 1_555
H49_5 C79_5 1_555 1_555
C80_5 C79_5 1_555 1_555
H50_5 C80_5 1_555 1_555
C81_5 C80_5 1_555 1_555
H51_5 C81_5 1_555 1_555
C82_5 C81_5 1_555 1_555
H52_5 C82_5 1_555 1_555
N2_5 Cu10 1_555 1_555
O37_4 Cu10 1_555 1_555
O38_4 Cu14 1_555 1_555
O38_3 C76_5 1_555 1_555
C58_5 C59_5 1_555 1_555
C65_5 C66_5 1_555 1_555
C70_5 C76_5 1_555 1_555
C72_5 C73_5 1_555 1_555
C78_5 N2_5 1_555 1_555
C82_5 N2_5 1_555 1_555
O18_4 H53_6 1_555 1_555
O16_4 H57_6 1_555 1_555
O34_5 H59_5 1_555 1_555
O34_5 H60_5 1_555 1_555
Cu10_2 O33_6 1_555 1_555
Cu14_2 O32_6 1_555 1_555
O35_2 C75_6 1_555 1_555
O36_2 C75_6 1_555 1_555
O26_6 C57_6 1_555 1_555
O27_6 C67_6 1_555 1_555
O40_4 C77_6 1_555 1_555
O42_4 C77_6 1_555 1_555
O32_6 C74_6 1_555 1_555
O33_6 C74_6 1_555 1_555
O34_6 Cu14_2 1_555 1_555
C54_6 H34_6 1_555 1_555
C55_6 C54_6 1_555 1_555
C56_6 C55_6 1_555 1_555
H35_6 C56_6 1_555 1_555
C57_6 C56_6 1_555 1_555
C58_6 C57_6 1_555 1_555
H36_6 C58_6 1_555 1_555
C59_6 C54_6 1_555 1_555
C60_6 O26_6 1_555 1_555
H37_6 C60_6 1_555 1_555
H38_6 C60_6 1_555 1_555
C61_6 C60_6 1_555 1_555
C62_6 C61_6 1_555 1_555
H39_6 C62_6 1_555 1_555
C63_6 C62_6 1_555 1_555
H40_6 C63_6 1_555 1_555
C64_6 C63_6 1_555 1_555
H41_6 C64_6 1_555 1_555
C65_6 C64_6 1_555 1_555
C66_6 C61_6 1_555 1_555
H42_6 C66_6 1_555 1_555
C67_6 C65_6 1_555 1_555
H43_6 C67_6 1_555 1_555
H44_6 C67_6 1_555 1_555
C68_6 O27_6 1_555 1_555
C69_6 C68_6 1_555 1_555
H45_6 C69_6 1_555 1_555
C70_6 C69_6 1_555 1_555
C71_6 C70_6 1_555 1_555
H46_6 C71_6 1_555 1_555
C72_6 C71_6 1_555 1_555
C73_6 C68_6 1_555 1_555
H47_6 C73_6 1_555 1_555
C74_6 C55_6 1_555 1_555
C75_6 C59_6 1_555 1_555
C76_6 O37_4 1_555 1_555
C77_6 C72_6 1_555 1_555
C78_6 H48_6 1_555 1_555
C79_6 C78_6 1_555 1_555
H49_6 C79_6 1_555 1_555
C80_6 C79_6 1_555 1_555
H50_6 C80_6 1_555 1_555
C81_6 C80_6 1_555 1_555
H51_6 C81_6 1_555 1_555
C82_6 C81_6 1_555 1_555
H52_6 C82_6 1_555 1_555
N2_6 Cu10_2 1_555 1_555
O38_4 C76_6 1_555 1_555
C58_6 C59_6 1_555 1_555
C65_6 C66_6 1_555 1_555
C70_6 C76_6 1_555 1_555
C72_6 C73_6 1_555 1_555
C78_6 N2_6 1_555 1_555
C82_6 N2_6 1_555 1_555
O18 H53_7 1_555 1_555
O16 H57_7 1_555 1_555
O34_6 H59_6 1_555 1_555
O34_6 H60_6 1_555 1_555
O18_2 H53_8 1_555 1_555
O16_2 H57_8 1_555 1_555
Cu5_3 O33_7 1_555 1_555
Cu6_3 O32_7 1_555 1_555
O24_4 C75_7 1_555 1_555
O25_4 C75_7 1_555 1_555
O26_7 C57_7 1_555 1_555
O32_7 C74_7 1_555 1_555
O33_7 C74_7 1_555 1_555
O34_7 Cu6_3 1_555 1_555
C54_7 H34_7 1_555 1_555
C55_7 C54_7 1_555 1_555
C56_7 C55_7 1_555 1_555
H35_7 C56_7 1_555 1_555
C57_7 C56_7 1_555 1_555
C58_7 C57_7 1_555 1_555
H36_7 C58_7 1_555 1_555
C59_7 C54_7 1_555 1_555
C60_7 O26_7 1_555 1_555
H37_7 C60_7 1_555 1_555
H38_7 C60_7 1_555 1_555
C61_7 C60_7 1_555 1_555
C62_7 C61_7 1_555 1_555
H39_7 C62_7 1_555 1_555
C63_7 C62_7 1_555 1_555
H40_7 C63_7 1_555 1_555
C74_7 C55_7 1_555 1_555
C75_7 C59_7 1_555 1_555
C78_7 H48_7 1_555 1_555
C79_7 C78_7 1_555 1_555
H49_7 C79_7 1_555 1_555
C80_7 C79_7 1_555 1_555
H50_7 C80_7 1_555 1_555
C81_7 C80_7 1_555 1_555
H51_7 C81_7 1_555 1_555
C82_7 C81_7 1_555 1_555
H52_7 C82_7 1_555 1_555
N2_7 Cu5_3 1_555 1_555
Cu15_3 O25_4 1_555 1_555
Cu18_3 O24_4 1_555 1_555
O37_5 Cu5_3 1_555 1_555
O38_5 Cu6_3 1_555 1_555
O43_4 Cu5_3 1_555 1_555
O44_4 Cu6_3 1_555 1_555
O46_3 Cu6_3 1_555 1_555
O48_3 Cu5_3 1_555 1_555
C58_7 C59_7 1_555 1_555
C78_7 N2_7 1_555 1_555
C82_7 N2_7 1_555 1_555
O34_7 H59_7 1_555 1_555
O34_7 H60_7 1_555 1_555
O4_3 C15_3 1_555 1_555
O5_3 C24_3 1_555 1_555
O6_3 C24_3 1_555 1_555
O7_2 C25_3 1_555 1_555
O8_2 C25_3 1_555 1_555
H8_3 C12_3 1_555 1_555
C13_3 C12_3 1_555 1_555
H9_3 C14_3 1_555 1_555
C15_3 C13_3 1_555 1_555
H10_3 C15_3 1_555 1_555
H11_3 C15_3 1_555 1_555
C16_3 O4_3 1_555 1_555
C17_3 C16_3 1_555 1_555
H12_3 C17_3 1_555 1_555
C18_3 C17_3 1_555 1_555
C19_3 C18_3 1_555 1_555
H13_3 C19_3 1_555 1_555
C20_3 C19_3 1_555 1_555
C21_3 C16_3 1_555 1_555
H14_3 C21_3 1_555 1_555
C24_3 C18_3 1_555 1_555
C25_3 C20_3 1_555 1_555
Cu8_2 O5_3 1_555 1_555
Cu12_2 O6_3 1_555 1_555
Cu16_3 O8_2 1_555 1_555
Cu19_3 O7_2 1_555 1_555
C13_3 C14_3 1_555 1_555
C20_3 C21_3 1_555 1_555
O16_5 Cu3_2 1_555 1_555
O18_5 Cu4_2 1_555 1_555
O35_5 Cu4_2 1_555 1_555
O36_5 Cu3_2 1_555 1_555
O40_5 Cu4_2 1_555 1_555
O42_5 Cu3_2 1_555 1_555
O18_5 H53_9 1_555 1_555
O18_5 H54_9 1_555 1_555
O16_5 H58_9 1_555 1_555
Cu1_2 O10_3 1_555 1_555
Cu2_2 O9_3 1_555 1_555
Cu3_3 O2_2 1_555 1_555
Cu4_3 O1_2 1_555 1_555
O1_2 C23_3 1_555 1_555
O2_2 C23_3 1_555 1_555
O3_3 C5_3 1_555 1_555
O9_3 C22_3 1_555 1_555
O10_3 C22_3 1_555 1_555
O11_2 Cu1_2 1_555 1_555
O12_2 Cu2_2 1_555 1_555
O13_2 C2_5 1_555 1_555
O14_2 C2_5 1_555 1_555
O15_5 C28_5 1_555 1_555
O16_6 Cu3_3 1_555 1_555
O17_3 Cu2_2 1_555 1_555
O18_6 Cu4_3 1_555 1_555
C1_3 H1_3 1_555 1_555
C2_5 C30_5 1_555 1_555
C3_3 C1_3 1_555 1_555
C4_3 C3_3 1_555 1_555
H2_3 C4_3 1_555 1_555
C5_3 C4_3 1_555 1_555
C6_3 C5_3 1_555 1_555
H3_3 C6_3 1_555 1_555
C7_3 C1_3 1_555 1_555
C8_3 O3_3 1_555 1_555
H4_3 C8_3 1_555 1_555
H5_3 C8_3 1_555 1_555
C9_3 C8_3 1_555 1_555
C10_3 C9_3 1_555 1_555
H6_3 C10_3 1_555 1_555
C11_3 C10_3 1_555 1_555
H7_3 C11_3 1_555 1_555
C22_3 C3_3 1_555 1_555
C23_3 C7_3 1_555 1_555
C26_5 C27_5 1_555 1_555
C27_5 H15_5 1_555 1_555
C28_5 C27_5 1_555 1_555
C29_5 C28_5 1_555 1_555
H16_5 C29_5 1_555 1_555
C30_5 C29_5 1_555 1_555
C31_5 C26_5 1_555 1_555
H17_5 C31_5 1_555 1_555
C32_5 O15_5 1_555 1_555
H18_5 C32_5 1_555 1_555
H19_5 C32_5 1_555 1_555
C33_5 C32_5 1_555 1_555
C34_5 C33_5 1_555 1_555
H20_5 C34_5 1_555 1_555
C35_9 C34_5 1_555 1_555
H21_9 C35_9 1_555 1_555
C36_9 C33_5 1_555 1_555
H22_9 C36_9 1_555 1_555
C37_5 O11_2 1_555 1_555
C38_3 H23_3 1_555 1_555
C39_3 C38_3 1_555 1_555
H24_3 C39_3 1_555 1_555
C40_3 C39_3 1_555 1_555
H25_3 C40_3 1_555 1_555
C41_3 C40_3 1_555 1_555
H26_3 C41_3 1_555 1_555
C42_3 C41_3 1_555 1_555
H27_3 C42_3 1_555 1_555
N1_3 Cu1_2 1_555 1_555
O19_5 C53_5 1_555 1_555
O20_5 C53_5 1_555 1_555
O21_5 C43_5 1_555 1_555
O22_5 C43_5 1_555 1_555
O23_5 C46_5 1_555 1_555
C43_5 C48_5 1_555 1_555
C44_5 C45_5 1_555 1_555
C45_5 H28_5 1_555 1_555
C46_5 C45_5 1_555 1_555
C47_5 C46_5 1_555 1_555
H29_5 C47_5 1_555 1_555
C48_5 C47_5 1_555 1_555
C49_5 C44_5 1_555 1_555
H30_5 C49_5 1_555 1_555
C50_5 O23_5 1_555 1_555
H31_5 C50_5 1_555 1_555
H32_5 C50_5 1_555 1_555
C51_5 C36_9 1_555 1_555
C52_5 C35_9 1_555 1_555
H33_5 C52_5 1_555 1_555
C53_5 C44_5 1_555 1_555
O27_7 C67_7 1_555 1_555
O28_3 Cu1_2 1_555 1_555
O29_3 Cu2_2 1_555 1_555
O30_2 C77_7 1_555 1_555
O31_2 C77_7 1_555 1_555
H41_7 C64_7 1_555 1_555
C65_7 C64_7 1_555 1_555
H42_7 C66_7 1_555 1_555
C67_7 C65_7 1_555 1_555
H43_7 C67_7 1_555 1_555
H44_7 C67_7 1_555 1_555
C68_7 O27_7 1_555 1_555
C69_7 C68_7 1_555 1_555
H45_7 C69_7 1_555 1_555
C70_7 C69_7 1_555 1_555
C71_7 C70_7 1_555 1_555
H46_7 C71_7 1_555 1_555
C72_7 C71_7 1_555 1_555
C73_7 C68_7 1_555 1_555
H47_7 C73_7 1_555 1_555
C76_7 O28_3 1_555 1_555
C77_7 C72_7 1_555 1_555
Cu8_2 O14_2 1_555 1_555
Cu9_2 O22_5 1_555 1_555
Cu10_4 O19_5 1_555 1_555
Cu12_2 O13_2 1_555 1_555
Cu13_2 O21_5 1_555 1_555
Cu14_4 O20_5 1_555 1_555
Cu17_3 O31_2 1_555 1_555
Cu20_3 O30_2 1_555 1_555
O39_3 Cu4_3 1_555 1_555
O41_3 Cu3_3 1_555 1_555
O45_2 Cu2_2 1_555 1_555
O47_2 Cu1_2 1_555 1_555
O12_2 C37_5 1_555 1_555
C6_3 C7_3 1_555 1_555
C26_5 C37_5 1_555 1_555
C30_5 C31_5 1_555 1_555
C38_3 N1_3 1_555 1_555
C42_3 N1_3 1_555 1_555
C48_5 C49_5 1_555 1_555
C50_5 C51_5 1_555 1_555
C51_5 C52_5 1_555 1_555
O29_3 C76_7 1_555 1_555
C65_7 C66_7 1_555 1_555
C70_7 C76_7 1_555 1_555
C72_7 C73_7 1_555 1_555
O17_3 H55_3 1_555 1_555
O17_3 H56_3 1_555 1_555
O16_6 H57_9 1_555 1_555
Cu5_4 O33_8 1_555 1_555
Cu6_4 O32_8 1_555 1_555
O24_5 C75_8 1_555 1_555
O25_5 C75_8 1_555 1_555
O26_8 C57_8 1_555 1_555
O32_8 C74_8 1_555 1_555
O33_8 C74_8 1_555 1_555
O34_8 Cu6_4 1_555 1_555
C54_8 H34_8 1_555 1_555
C55_8 C54_8 1_555 1_555
C56_8 C55_8 1_555 1_555
H35_8 C56_8 1_555 1_555
C57_8 C56_8 1_555 1_555
C58_8 C57_8 1_555 1_555
H36_8 C58_8 1_555 1_555
C59_8 C54_8 1_555 1_555
C60_8 O26_8 1_555 1_555
H37_8 C60_8 1_555 1_555
H38_8 C60_8 1_555 1_555
C61_8 C60_8 1_555 1_555
C62_8 C61_8 1_555 1_555
H39_8 C62_8 1_555 1_555
C63_8 C62_8 1_555 1_555
H40_8 C63_8 1_555 1_555
C74_8 C55_8 1_555 1_555
C75_8 C59_8 1_555 1_555
C78_8 H48_8 1_555 1_555
C79_8 C78_8 1_555 1_555
H49_8 C79_8 1_555 1_555
C80_8 C79_8 1_555 1_555
H50_8 C80_8 1_555 1_555
C81_8 C80_8 1_555 1_555
H51_8 C81_8 1_555 1_555
C82_8 C81_8 1_555 1_555
H52_8 C82_8 1_555 1_555
N2_8 Cu5_4 1_555 1_555
Cu16_3 O25_5 1_555 1_555
Cu19_3 O24_5 1_555 1_555
O37_6 Cu5_4 1_555 1_555
O38_6 Cu6_4 1_555 1_555
O43_5 Cu5_4 1_555 1_555
O44_5 Cu6_4 1_555 1_555
O46_4 Cu6_4 1_555 1_555
O48_4 Cu5_4 1_555 1_555
C58_8 C59_8 1_555 1_555
C78_8 N2_8 1_555 1_555
C82_8 N2_8 1_555 1_555
O34_8 H59_8 1_555 1_555
O34_8 H60_8 1_555 1_555
O16_7 Cu15_2 1_555 1_555
O18_7 Cu18_2 1_555 1_555
O35_6 Cu18_2 1_555 1_555
O36_6 Cu15_2 1_555 1_555
O40_6 Cu18_2 1_555 1_555
O42_6 Cu15_2 1_555 1_555
O18_7 H53_10 1_555 1_555
O18_7 H54_10 1_555 1_555
O16_7 H58_10 1_555 1_555
O45_2 C2_6 1_555 1_555
O47_2 C2_6 1_555 1_555
O15_6 C28_6 1_555 1_555
O16_8 Cu15_3 1_555 1_555
O18_8 Cu18_3 1_555 1_555
C2_6 C30_6 1_555 1_555
C26_6 C27_6 1_555 1_555
C27_6 H15_6 1_555 1_555
C28_6 C27_6 1_555 1_555
C29_6 C28_6 1_555 1_555
H16_6 C29_6 1_555 1_555
C30_6 C29_6 1_555 1_555
C31_6 C26_6 1_555 1_555
H17_6 C31_6 1_555 1_555
C32_6 O15_6 1_555 1_555
H18_6 C32_6 1_555 1_555
H19_6 C32_6 1_555 1_555
C33_6 C32_6 1_555 1_555
C34_6 C33_6 1_555 1_555
H20_6 C34_6 1_555 1_555
C35_10 C34_6 1_555 1_555
H21_10 C35_10 1_555 1_555
C36_10 C33_6 1_555 1_555
H22_10 C36_10 1_555 1_555
C37_6 O43_4 1_555 1_555
O19_6 C53_6 1_555 1_555
O20_6 C53_6 1_555 1_555
O21_6 C43_6 1_555 1_555
O22_6 C43_6 1_555 1_555
O23_6 C46_6 1_555 1_555
C43_6 C48_6 1_555 1_555
C44_6 C45_6 1_555 1_555
C45_6 H28_6 1_555 1_555
C46_6 C45_6 1_555 1_555
C47_6 C46_6 1_555 1_555
H29_6 C47_6 1_555 1_555
C48_6 C47_6 1_555 1_555
C49_6 C44_6 1_555 1_555
H30_6 C49_6 1_555 1_555
C50_6 O23_6 1_555 1_555
H31_6 C50_6 1_555 1_555
H32_6 C50_6 1_555 1_555
C51_6 C36_10 1_555 1_555
C52_6 C35_10 1_555 1_555
H33_6 C52_6 1_555 1_555
C53_6 C44_6 1_555 1_555
O27_8 C67_8 1_555 1_555
O39_3 C77_8 1_555 1_555
O41_3 C77_8 1_555 1_555
H41_8 C64_8 1_555 1_555
C65_8 C64_8 1_555 1_555
H42_8 C66_8 1_555 1_555
C67_8 C65_8 1_555 1_555
H43_8 C67_8 1_555 1_555
H44_8 C67_8 1_555 1_555
C68_8 O27_8 1_555 1_555
C69_8 C68_8 1_555 1_555
H45_8 C69_8 1_555 1_555
C70_8 C69_8 1_555 1_555
C71_8 C70_8 1_555 1_555
H46_8 C71_8 1_555 1_555
C72_8 C71_8 1_555 1_555
C73_8 C68_8 1_555 1_555
H47_8 C73_8 1_555 1_555
C76_8 O37_5 1_555 1_555
C77_8 C72_8 1_555 1_555
Cu10_4 O22_6 1_555 1_555
Cu10_5 O19_6 1_555 1_555
Cu14_4 O21_6 1_555 1_555
Cu14_5 O20_6 1_555 1_555
O39_4 Cu18_3 1_555 1_555
O41_4 Cu15_3 1_555 1_555
O44_4 C37_6 1_555 1_555
C26_6 C37_6 1_555 1_555
C30_6 C31_6 1_555 1_555
C48_6 C49_6 1_555 1_555
C50_6 C51_6 1_555 1_555
C51_6 C52_6 1_555 1_555
O38_5 C76_8 1_555 1_555
C65_8 C66_8 1_555 1_555
C70_8 C76_8 1_555 1_555
C72_8 C73_8 1_555 1_555
O16_8 H57_10 1_555 1_555
O16_9 Cu16_2 1_555 1_555
O18_9 Cu19_2 1_555 1_555
O35_7 Cu19_2 1_555 1_555
O36_7 Cu16_2 1_555 1_555
O40_7 Cu19_2 1_555 1_555
O42_7 Cu16_2 1_555 1_555
O18_9 H53_11 1_555 1_555
O18_9 H54_11 1_555 1_555
O16_9 H58_11 1_555 1_555
O46_3 C2_7 1_555 1_555
O48_3 C2_7 1_555 1_555
O15_7 C28_7 1_555 1_555
O16_10 Cu16_3 1_555 1_555
O18_10 Cu19_3 1_555 1_555
C2_7 C30_7 1_555 1_555
C26_7 C27_7 1_555 1_555
C27_7 H15_7 1_555 1_555
C28_7 C27_7 1_555 1_555
C29_7 C28_7 1_555 1_555
H16_7 C29_7 1_555 1_555
C30_7 C29_7 1_555 1_555
C31_7 C26_7 1_555 1_555
H17_7 C31_7 1_555 1_555
C32_7 O15_7 1_555 1_555
H18_7 C32_7 1_555 1_555
H19_7 C32_7 1_555 1_555
C33_7 C32_7 1_555 1_555
C34_7 C33_7 1_555 1_555
H20_7 C34_7 1_555 1_555
C35_11 C34_7 1_555 1_555
H21_11 C35_11 1_555 1_555
C36_11 C33_7 1_555 1_555
H22_11 C36_11 1_555 1_555
C37_7 O43_5 1_555 1_555
O19_7 C53_7 1_555 1_555
O20_7 C53_7 1_555 1_555
O21_7 C43_7 1_555 1_555
O22_7 C43_7 1_555 1_555
O23_7 C46_7 1_555 1_555
C43_7 C48_7 1_555 1_555
C44_7 C45_7 1_555 1_555
C45_7 H28_7 1_555 1_555
C46_7 C45_7 1_555 1_555
C47_7 C46_7 1_555 1_555
H29_7 C47_7 1_555 1_555
C48_7 C47_7 1_555 1_555
C49_7 C44_7 1_555 1_555
H30_7 C49_7 1_555 1_555
C50_7 O23_7 1_555 1_555
H31_7 C50_7 1_555 1_555
H32_7 C50_7 1_555 1_555
C51_7 C36_11 1_555 1_555
C52_7 C35_11 1_555 1_555
H33_7 C52_7 1_555 1_555
C53_7 C44_7 1_555 1_555
O27_9 C67_9 1_555 1_555
O39_4 C77_9 1_555 1_555
O41_4 C77_9 1_555 1_555
H41_9 C64_9 1_555 1_555
C65_9 C64_9 1_555 1_555
H42_9 C66_9 1_555 1_555
C67_9 C65_9 1_555 1_555
H43_9 C67_9 1_555 1_555
H44_9 C67_9 1_555 1_555
C68_9 O27_9 1_555 1_555
C69_9 C68_9 1_555 1_555
H45_9 C69_9 1_555 1_555
C70_9 C69_9 1_555 1_555
C71_9 C70_9 1_555 1_555
H46_9 C71_9 1_555 1_555
C72_9 C71_9 1_555 1_555
C73_9 C68_9 1_555 1_555
H47_9 C73_9 1_555 1_555
C76_9 O37_6 1_555 1_555
C77_9 C72_9 1_555 1_555
Cu10_5 O22_7 1_555 1_555
Cu10_6 O19_7 1_555 1_555
Cu14_5 O21_7 1_555 1_555
Cu14_6 O20_7 1_555 1_555
O44_5 C37_7 1_555 1_555
C26_7 C37_7 1_555 1_555
C30_7 C31_7 1_555 1_555
C48_7 C49_7 1_555 1_555
C50_7 C51_7 1_555 1_555
C51_7 C52_7 1_555 1_555
O38_6 C76_9 1_555 1_555
C65_9 C66_9 1_555 1_555
C70_9 C76_9 1_555 1_555
C72_9 C73_9 1_555 1_555
O16_10 H57_11 1_555 1_555
Cu8_2 O33_9 1_555 1_555
Cu12_2 O32_9 1_555 1_555
O24_6 C75_9 1_555 1_555
O25_6 C75_9 1_555 1_555
O26_9 C57_9 1_555 1_555
O32_9 C74_9 1_555 1_555
O33_9 C74_9 1_555 1_555
O34_9 Cu12_2 1_555 1_555
C54_9 H34_9 1_555 1_555
C55_9 C54_9 1_555 1_555
C56_9 C55_9 1_555 1_555
H35_9 C56_9 1_555 1_555
C57_9 C56_9 1_555 1_555
C58_9 C57_9 1_555 1_555
H36_9 C58_9 1_555 1_555
C59_9 C54_9 1_555 1_555
C60_9 O26_9 1_555 1_555
H37_9 C60_9 1_555 1_555
H38_9 C60_9 1_555 1_555
C61_9 C60_9 1_555 1_555
C62_9 C61_9 1_555 1_555
H39_9 C62_9 1_555 1_555
C63_9 C62_9 1_555 1_555
H40_9 C63_9 1_555 1_555
C74_9 C55_9 1_555 1_555
C75_9 C59_9 1_555 1_555
C78_9 H48_9 1_555 1_555
C79_9 C78_9 1_555 1_555
H49_9 C79_9 1_555 1_555
C80_9 C79_9 1_555 1_555
H50_9 C80_9 1_555 1_555
C81_9 C80_9 1_555 1_555
H51_9 C81_9 1_555 1_555
C82_9 C81_9 1_555 1_555
H52_9 C82_9 1_555 1_555
N2_9 Cu8_2 1_555 1_555
Cu17_3 O25_6 1_555 1_555
Cu20_3 O24_6 1_555 1_555
O43_6 Cu8_2 1_555 1_555
O44_6 Cu12_2 1_555 1_555
C58_9 C59_9 1_555 1_555
C78_9 N2_9 1_555 1_555
C82_9 N2_9 1_555 1_555
O34_9 H59_9 1_555 1_555
O34_9 H60_9 1_555 1_555
O16_11 Cu17_2 1_555 1_555
O18_11 Cu20_2 1_555 1_555
O35_8 Cu20_2 1_555 1_555
O36_8 Cu17_2 1_555 1_555
O40_8 Cu20_2 1_555 1_555
O42_8 Cu17_2 1_555 1_555
O18_11 H53_12 1_555 1_555
O18_11 H54_12 1_555 1_555
O16_11 H58_12 1_555 1_555
O46_4 C2_8 1_555 1_555
O48_4 C2_8 1_555 1_555
O15_8 C28_8 1_555 1_555
O16_12 Cu17_3 1_555 1_555
O18_12 Cu20_3 1_555 1_555
C2_8 C30_8 1_555 1_555
C26_8 C27_8 1_555 1_555
C27_8 H15_8 1_555 1_555
C28_8 C27_8 1_555 1_555
C29_8 C28_8 1_555 1_555
H16_8 C29_8 1_555 1_555
C30_8 C29_8 1_555 1_555
C31_8 C26_8 1_555 1_555
H17_8 C31_8 1_555 1_555
C32_8 O15_8 1_555 1_555
H18_8 C32_8 1_555 1_555
H19_8 C32_8 1_555 1_555
C33_8 C32_8 1_555 1_555
C34_8 C33_8 1_555 1_555
H20_8 C34_8 1_555 1_555
C35_12 C34_8 1_555 1_555
H21_12 C35_12 1_555 1_555
C36_12 C33_8 1_555 1_555
H22_12 C36_12 1_555 1_555
C37_8 O43_6 1_555 1_555
O19_8 C53_8 1_555 1_555
O20_8 C53_8 1_555 1_555
O21_8 C43_8 1_555 1_555
O22_8 C43_8 1_555 1_555
O23_8 C46_8 1_555 1_555
C43_8 C48_8 1_555 1_555
C44_8 C45_8 1_555 1_555
C45_8 H28_8 1_555 1_555
C46_8 C45_8 1_555 1_555
C47_8 C46_8 1_555 1_555
H29_8 C47_8 1_555 1_555
C48_8 C47_8 1_555 1_555
C49_8 C44_8 1_555 1_555
H30_8 C49_8 1_555 1_555
C50_8 O23_8 1_555 1_555
H31_8 C50_8 1_555 1_555
H32_8 C50_8 1_555 1_555
C51_8 C36_12 1_555 1_555
C52_8 C35_12 1_555 1_555
H33_8 C52_8 1_555 1_555
C53_8 C44_8 1_555 1_555
Cu10_6 O22_8 1_555 1_555
Cu9_2 O19_8 1_555 1_555
Cu14_6 O21_8 1_555 1_555
Cu13_2 O20_8 1_555 1_555
O44_6 C37_8 1_555 1_555
C26_8 C37_8 1_555 1_555
C30_8 C31_8 1_555 1_555
C48_8 C49_8 1_555 1_555
C50_8 C51_8 1_555 1_555
C51_8 C52_8 1_555 1_555
O16_12 H57_12 1_555 1_555
Cu10_6 O10_4 1_555 1_555
Cu14_6 O9_4 1_555 1_555
O35_7 C23_4 1_555 1_555
O36_7 C23_4 1_555 1_555
O3_4 C5_4 1_555 1_555
O9_4 C22_4 1_555 1_555
O10_4 C22_4 1_555 1_555
O17_4 Cu14_6 1_555 1_555
C1_4 H1_4 1_555 1_555
C3_4 C1_4 1_555 1_555
C4_4 C3_4 1_555 1_555
H2_4 C4_4 1_555 1_555
C5_4 C4_4 1_555 1_555
C6_4 C5_4 1_555 1_555
H3_4 C6_4 1_555 1_555
C7_4 C1_4 1_555 1_555
C8_4 O3_4 1_555 1_555
H4_4 C8_4 1_555 1_555
H5_4 C8_4 1_555 1_555
C9_4 C8_4 1_555 1_555
C10_4 C9_4 1_555 1_555
H6_4 C10_4 1_555 1_555
C11_4 C10_4 1_555 1_555
H7_4 C11_4 1_555 1_555
C22_4 C3_4 1_555 1_555
C23_4 C7_4 1_555 1_555
C38_4 H23_4 1_555 1_555
C39_4 C38_4 1_555 1_555
H24_4 C39_4 1_555 1_555
C40_4 C39_4 1_555 1_555
H25_4 C40_4 1_555 1_555
C41_4 C40_4 1_555 1_555
H26_4 C41_4 1_555 1_555
C42_4 C41_4 1_555 1_555
H27_4 C42_4 1_555 1_555
N1_4 Cu10_6 1_555 1_555
O27_10 C67_10 1_555 1_555
O28_4 Cu10_6 1_555 1_555
O29_4 Cu14_6 1_555 1_555
O40_6 C77_10 1_555 1_555
O42_6 C77_10 1_555 1_555
H41_10 C64_10 1_555 1_555
C65_10 C64_10 1_555 1_555
H42_10 C66_10 1_555 1_555
C67_10 C65_10 1_555 1_555
H43_10 C67_10 1_555 1_555
H44_10 C67_10 1_555 1_555
C68_10 O27_10 1_555 1_555
C69_10 C68_10 1_555 1_555
H45_10 C69_10 1_555 1_555
C70_10 C69_10 1_555 1_555
C71_10 C70_10 1_555 1_555
H46_10 C71_10 1_555 1_555
C72_10 C71_10 1_555 1_555
C73_10 C68_10 1_555 1_555
H47_10 C73_10 1_555 1_555
C76_10 O28_4 1_555 1_555
C77_10 C72_10 1_555 1_555
C6_4 C7_4 1_555 1_555
C38_4 N1_4 1_555 1_555
C42_4 N1_4 1_555 1_555
O29_4 C76_10 1_555 1_555
C65_10 C66_10 1_555 1_555
C70_10 C76_10 1_555 1_555
C72_10 C73_10 1_555 1_555
O17_4 H55_4 1_555 1_555
O17_4 H56_4 1_555 1_555
O16_9 H57_13 1_555 1_555
O18_10 H53_13 1_555 1_555
O18_10 H54_13 1_555 1_555
O16_10 H58_13 1_555 1_555
O4_4 C15_4 1_555 1_555
O5_4 C24_4 1_555 1_555
O6_4 C24_4 1_555 1_555
O40_5 C25_4 1_555 1_555
O42_5 C25_4 1_555 1_555
H8_4 C12_4 1_555 1_555
C13_4 C12_4 1_555 1_555
H9_4 C14_4 1_555 1_555
C15_4 C13_4 1_555 1_555
H10_4 C15_4 1_555 1_555
H11_4 C15_4 1_555 1_555
C16_4 O4_4 1_555 1_555
C17_4 C16_4 1_555 1_555
H12_4 C17_4 1_555 1_555
C18_4 C17_4 1_555 1_555
C19_4 C18_4 1_555 1_555
H13_4 C19_4 1_555 1_555
C20_4 C19_4 1_555 1_555
C21_4 C16_4 1_555 1_555
H14_4 C21_4 1_555 1_555
C24_4 C18_4 1_555 1_555
C25_4 C20_4 1_555 1_555
Cu10_5 O5_4 1_555 1_555
Cu14_5 O6_4 1_555 1_555
C13_4 C14_4 1_555 1_555
C20_4 C21_4 1_555 1_555
Cu9_2 O33_10 1_555 1_555
Cu13_2 O32_10 1_555 1_555
O35_8 C75_10 1_555 1_555
O36_8 C75_10 1_555 1_555
O26_10 C57_10 1_555 1_555
O32_10 C74_10 1_555 1_555
O33_10 C74_10 1_555 1_555
O34_10 Cu13_2 1_555 1_555
C54_10 H34_10 1_555 1_555
C55_10 C54_10 1_555 1_555
C56_10 C55_10 1_555 1_555
H35_10 C56_10 1_555 1_555
C57_10 C56_10 1_555 1_555
C58_10 C57_10 1_555 1_555
H36_10 C58_10 1_555 1_555
C59_10 C54_10 1_555 1_555
C60_10 O26_10 1_555 1_555
H37_10 C60_10 1_555 1_555
H38_10 C60_10 1_555 1_555
C61_10 C60_10 1_555 1_555
C62_10 C61_10 1_555 1_555
H39_10 C62_10 1_555 1_555
C63_10 C62_10 1_555 1_555
H40_10 C63_10 1_555 1_555
C74_10 C55_10 1_555 1_555
C75_10 C59_10 1_555 1_555
C78_10 H48_10 1_555 1_555
C79_10 C78_10 1_555 1_555
H49_10 C79_10 1_555 1_555
C80_10 C79_10 1_555 1_555
H50_10 C80_10 1_555 1_555
C81_10 C80_10 1_555 1_555
H51_10 C81_10 1_555 1_555
C82_10 C81_10 1_555 1_555
H52_10 C82_10 1_555 1_555
N2_10 Cu9_2 1_555 1_555
O37_7 Cu9_2 1_555 1_555
O38_7 Cu13_2 1_555 1_555
C58_10 C59_10 1_555 1_555
C78_10 N2_10 1_555 1_555
C82_10 N2_10 1_555 1_555
O34_10 H59_10 1_555 1_555
O34_10 H60_10 1_555 1_555
O27_11 C67_11 1_555 1_555
O40_7 C77_11 1_555 1_555
O42_7 C77_11 1_555 1_555
H41_11 C64_11 1_555 1_555
C65_11 C64_11 1_555 1_555
H42_11 C66_11 1_555 1_555
C67_11 C65_11 1_555 1_555
H43_11 C67_11 1_555 1_555
H44_11 C67_11 1_555 1_555
C68_11 O27_11 1_555 1_555
C69_11 C68_11 1_555 1_555
H45_11 C69_11 1_555 1_555
C70_11 C69_11 1_555 1_555
C71_11 C70_11 1_555 1_555
H46_11 C71_11 1_555 1_555
C72_11 C71_11 1_555 1_555
C73_11 C68_11 1_555 1_555
H47_11 C73_11 1_555 1_555
C76_11 O37_7 1_555 1_555
C77_11 C72_11 1_555 1_555
O38_7 C76_11 1_555 1_555
C65_11 C66_11 1_555 1_555
C70_11 C76_11 1_555 1_555
C72_11 C73_11 1_555 1_555
O16_11 H57_14 1_555 1_555
O18_12 H53_14 1_555 1_555
O18_12 H54_14 1_555 1_555
O16_12 H58_14 1_555 1_555
Cu10_4 O33_11 1_555 1_555
Cu14_4 O32_11 1_555 1_555
O35_5 C75_11 1_555 1_555
O36_5 C75_11 1_555 1_555
O26_11 C57_11 1_555 1_555
O32_11 C74_11 1_555 1_555
O33_11 C74_11 1_555 1_555
O34_11 Cu14_4 1_555 1_555
C54_11 H34_11 1_555 1_555
C55_11 C54_11 1_555 1_555
C56_11 C55_11 1_555 1_555
H35_11 C56_11 1_555 1_555
C57_11 C56_11 1_555 1_555
C58_11 C57_11 1_555 1_555
H36_11 C58_11 1_555 1_555
C59_11 C54_11 1_555 1_555
C60_11 O26_11 1_555 1_555
H37_11 C60_11 1_555 1_555
H38_11 C60_11 1_555 1_555
C61_11 C60_11 1_555 1_555
C62_11 C61_11 1_555 1_555
H39_11 C62_11 1_555 1_555
C63_11 C62_11 1_555 1_555
H40_11 C63_11 1_555 1_555
C74_11 C55_11 1_555 1_555
C75_11 C59_11 1_555 1_555
C78_11 H48_11 1_555 1_555
C79_11 C78_11 1_555 1_555
H49_11 C79_11 1_555 1_555
C80_11 C79_11 1_555 1_555
H50_11 C80_11 1_555 1_555
C81_11 C80_11 1_555 1_555
H51_11 C81_11 1_555 1_555
C82_11 C81_11 1_555 1_555
H52_11 C82_11 1_555 1_555
N2_11 Cu10_4 1_555 1_555
O37_8 Cu10_4 1_555 1_555
O38_8 Cu14_4 1_555 1_555
C58_11 C59_11 1_555 1_555
C78_11 N2_11 1_555 1_555
C82_11 N2_11 1_555 1_555
O34_11 H59_11 1_555 1_555
O34_11 H60_11 1_555 1_555
Cu10_5 O33_12 1_555 1_555
Cu14_5 O32_12 1_555 1_555
O35_6 C75_12 1_555 1_555
O36_6 C75_12 1_555 1_555
O26_12 C57_12 1_555 1_555
O32_12 C74_12 1_555 1_555
O33_12 C74_12 1_555 1_555
O34_12 Cu14_5 1_555 1_555
C54_12 H34_12 1_555 1_555
C55_12 C54_12 1_555 1_555
C56_12 C55_12 1_555 1_555
H35_12 C56_12 1_555 1_555
C57_12 C56_12 1_555 1_555
C58_12 C57_12 1_555 1_555
H36_12 C58_12 1_555 1_555
C59_12 C54_12 1_555 1_555
C60_12 O26_12 1_555 1_555
H37_12 C60_12 1_555 1_555
H38_12 C60_12 1_555 1_555
C61_12 C60_12 1_555 1_555
C62_12 C61_12 1_555 1_555
H39_12 C62_12 1_555 1_555
C63_12 C62_12 1_555 1_555
H40_12 C63_12 1_555 1_555
C74_12 C55_12 1_555 1_555
C75_12 C59_12 1_555 1_555
C78_12 H48_12 1_555 1_555
C79_12 C78_12 1_555 1_555
H49_12 C79_12 1_555 1_555
C80_12 C79_12 1_555 1_555
H50_12 C80_12 1_555 1_555
C81_12 C80_12 1_555 1_555
H51_12 C81_12 1_555 1_555
C82_12 C81_12 1_555 1_555
H52_12 C82_12 1_555 1_555
N2_12 Cu10_5 1_555 1_555
C58_12 C59_12 1_555 1_555
C78_12 N2_12 1_555 1_555
C82_12 N2_12 1_555 1_555
O34_12 H59_12 1_555 1_555
O34_12 H60_12 1_555 1_555
O27_12 C67_12 1_555 1_555
O40_8 C77_12 1_555 1_555
O42_8 C77_12 1_555 1_555
H41_12 C64_12 1_555 1_555
C65_12 C64_12 1_555 1_555
H42_12 C66_12 1_555 1_555
C67_12 C65_12 1_555 1_555
H43_12 C67_12 1_555 1_555
H44_12 C67_12 1_555 1_555
C68_12 O27_12 1_555 1_555
C69_12 C68_12 1_555 1_555
H45_12 C69_12 1_555 1_555
C70_12 C69_12 1_555 1_555
C71_12 C70_12 1_555 1_555
H46_12 C71_12 1_555 1_555
C72_12 C71_12 1_555 1_555
C73_12 C68_12 1_555 1_555
H47_12 C73_12 1_555 1_555
C76_12 O37_8 1_555 1_555
C77_12 C72_12 1_555 1_555
O38_8 C76_12 1_555 1_555
C65_12 C66_12 1_555 1_555
C70_12 C76_12 1_555 1_555
C72_12 C73_12 1_555 1_555
O16_5 H57_15 1_555 1_555
O18_6 H53_15 1_555 1_555
O18_6 H54_15 1_555 1_555
O16_6 H58_15 1_555 1_555
O16_7 H57_16 1_555 1_555
O18_8 H53_16 1_555 1_555
O18_8 H54_16 1_555 1_555
O16_8 H58_16 1_555 1_555

#END
