
###############################################################################
#
# This file contains modified crystal structure data generated from the
# MOF subset of the Cambridge Structural Database (CSD) v543 
# hosted by the Cambridge Crystallographic Data Centre (CCDC).
#
# This work is licensed under the Creative Commons
# Attribution-NonCommercial-ShareAlike 4.0 International License.
# To view a copy of this license, visit
# http://creativecommons.org/licenses/by-nc-sa/4.0/
# or send a letter to
# Creative Commons, PO Box 1866, Mountain View, CA 94042, USA.
#
# CIF created using the CSD Python API on 29 September 2022
# The structure has been converted into the P1 space group
# The structure has a 3D framework
# The original CSD entry DUHSIL is in the rhombohedral crystal system
# The framework has been calculated to contain at least 10.0% void space
# The void calculation uses a probe of radius 1.32A, grid spacing 0.4
#
###############################################################################

data_DUHSIL
_chemical_formula_moiety         '(C342 H378 N18 Ni36 O246)n'
_symmetry_cell_setting           triclinic
_symmetry_space_group_name_H-M   'P 1'
_symmetry_Int_Tables_number      1
_space_group_name_Hall           'P 1'
loop_
_symmetry_equiv_pos_site_id
_symmetry_equiv_pos_as_xyz
1 x,y,z
_cell_length_a                   27.2307(11)
_cell_length_b                   27.2307(11)
_cell_length_c                   30.410(3)
_cell_angle_alpha                90
_cell_angle_beta                 90
_cell_angle_gamma                120
_cell_volume                     19528.3
loop_
_atom_site_label
_atom_site_type_symbol
_atom_site_fract_x
_atom_site_fract_y
_atom_site_fract_z
H1 H 0.4109 0.1686 0.0035
O3 O 0.4711(3) 0.1148(3) 0.0358(2)
O7 O 0.7678(3) 0.2138(3) 0.0414(2)
O8 O 0.6084(3) 0.1074(2) 0.14551(17)
C1 C 0.5210(4) 0.1510(4) 0.0200(3)
C2 C 0.5709(4) 0.1511(3) 0.0432(3)
C3 C 0.6241(3) 0.1799(3) 0.0234(3)
C4 C 0.6702(4) 0.1821(3) 0.0430(3)
C5 C 0.6641(4) 0.1567(3) 0.0842(3)
H8 H 0.6958 0.1587 0.0989
C6 C 0.6110(5) 0.1287(3) 0.1030(3)
C7 C 0.5659(4) 0.1257(3) 0.0834(3)
H9 H 0.5299 0.1058 0.0973
C8 C 0.7279(4) 0.2118(4) 0.0205(3)
C9 C 0.5773(3) 0.0471(4) 0.1479(3)
C10 C 0.5813(3) 0.0130(4) 0.1160(3)
H10 H 0.6039 0.0289 0.0904
C14 C 0.5459(3) 0.0262(3) 0.1867(3)
H12 H 0.5453 0.0510 0.2084
H13 H 0.4435 0.0132 0.0293
Ni2 Ni 0.39052(6) 0.07579(7) 0.00404(6)
O14 O 0.3567(3) 0.0799(4) 0.0567(2)
H20 H 0.3570 0.0614 0.0791
H21 H 0.3254 0.0791 0.0529
O1 O 0.5300(2) 0.1793(2) 0.98761(17)
O2 O 0.41003(19) 0.1490(2) 0.98148(15)
H2 H 0.3827 0.1447 0.9653
O4 O 0.5584(2) 0.2489(2) 0.91190(18)
H3 H 0.5734 0.2814 0.9239
H4 H 0.5527 0.2537 0.8852
O5 O 0.7316(2) 0.2344(2) 0.98378(18)
O6 O 0.3090(4) 0.0351(5) 0.9779(5)
H5 H 0.2911 0.0500 0.9893
H6 H 0.3093 0.0385 0.9501
H7 H 0.6283 0.1983 0.9960
Ni1 Ni 0.48388(4) 0.19928(4) 0.94700(3)
O15 O 0.5028(3) 0.2684(2) 0.98378(18)
O16 O 0.4178(2) 0.0587(2) 0.9459(2)
O17 O 0.4703(2) 0.1341(2) 0.90508(16)
O18 O 0.4414(2) 0.2220(3) 0.90182(14)
Ni3 Ni 0.80072(4) 0.28460(6) 0.94700(3)
N1 N 0.3937(4) 0.9365(4) 0.0542(3)
O9 O 0.5822(2) 0.9413(2) 0.0541(2)
O10 O 0.5297(2) 0.8659(2) 0.09492(16)
O11 O 0.4472(2) 0.8919(2) 0.23515(14)
O12 O 0.4839(3) 0.9792(2) 0.2620(2)
O13 O 0.3650(4) 0.9995(4) 0.0270(3)
C11 C 0.5508(3) 0.9542(3) 0.1228(2)
C12 C 0.5184(3) 0.9322(3) 0.1603(3)
H11 H 0.4977 0.8923 0.1643
C13 C 0.5153(3) 0.9670(3) 0.1924(3)
C15 C 0.5547(3) 0.9170(4) 0.0882(3)
C16 C 0.4802(4) 0.9456(4) 0.2327(3)
C17 C 0.4052(5) 0.9863(5) 0.0360(5)
C18 C 0.3361(5) 0.8975(4) 0.0676(4)
H14 H 0.3340 0.8634 0.0802
H15 H 0.3242 0.9156 0.0897
H16 H 0.3110 0.8870 0.0420
C19 C 0.4385(5) 0.9246(6) 0.0626(4)
H17 H 0.4227 0.8869 0.0758
H18 H 0.4574 0.9258 0.0349
H19 H 0.4660 0.9531 0.0828
Ni4 Ni 0.38207(6) 0.84945(4) 0.28033(3)
Ni5 Ni 0.51612(4) 0.80072(4) 0.05300(3)
N1_2 N 0.0635(4) 0.4572(6) 0.0542(3)
O9_2 O 0.0587(2) 0.6409(3) 0.0541(2)
O10_2 O 0.1341(2) 0.6638(3) 0.09492(16)
O11_2 O 0.1081(2) 0.5553(3) 0.23515(14)
O12_2 O 0.0208(2) 0.5047(4) 0.2620(2)
O13_2 O 0.0005(4) 0.3655(6) 0.0270(3)
C11_2 C 0.0458(3) 0.5966(4) 0.1228(2)
C12_2 C 0.0678(3) 0.5862(4) 0.1603(3)
H11_2 H 0.1077 0.6054 0.1643
C13_2 C 0.0330(3) 0.5483(4) 0.1924(3)
C15_2 C 0.0830(4) 0.6377(5) 0.0882(3)
C16_2 C 0.0544(4) 0.5346(6) 0.2327(3)
C17_2 C 0.0137(5) 0.4189(7) 0.0360(5)
C18_2 C 0.1025(4) 0.4386(6) 0.0676(4)
H14_2 H 0.1366 0.4706 0.0802
H15_2 H 0.0844 0.4086 0.0897
H16_2 H 0.1130 0.4240 0.0420
C19_2 C 0.0754(6) 0.5139(8) 0.0626(4)
H17_2 H 0.1131 0.5358 0.0758
H18_2 H 0.0742 0.5316 0.0349
H19_2 H 0.0469 0.5129 0.0828
Ni4_2 Ni 0.15055(4) 0.53261(7) 0.28033(3)
Ni5_2 Ni 0.19928(4) 0.71540(6) 0.05300(3)
O1_2 O 0.8207(2) 0.3507(3) 0.98761(17)
O2_2 O 0.8510(2) 0.26103(28) 0.98148(15)
H2_2 H 0.8553 0.2380 0.9653
O4_2 O 0.7511(2) 0.3095(3) 0.91190(18)
H3_2 H 0.7186 0.2920 0.9239
H4_2 H 0.7463 0.2990 0.8852
O5_2 O 0.7656(2) 0.4972(3) 0.98378(18)
O6_2 O 0.9649(5) 0.2739(6) 0.9779(5)
H5_2 H 0.9500 0.2411 0.9893
H6_2 H 0.9615 0.2708 0.9501
H7_2 H 0.8017 0.4300 0.9960
O16_2 O 0.9413(2) 0.3591(3) 0.9459(2)
O17_2 O 0.8659(2) 0.3362(3) 0.90508(16)
O18_2 O 0.7780(3) 0.2195(4) 0.90182(14)
Ni3_2 Ni 0.71540(6) 0.51612(7) 0.94700(3)
N1_3 N 0.5428(6) 0.6063(4) 0.0542(3)
H1_2 H 0.7577 0.5891 0.0035
O3_2 O 0.6437(4) 0.5289(3) 0.0358(2)
O7_2 O 0.4460(4) 0.2322(3) 0.0414(2)
O8_2 O 0.4990(4) 0.3916(3) 0.14551(17)
O9_3 O 0.3591(3) 0.4178(2) 0.0541(2)
O10_3 O 0.3362(3) 0.4703(2) 0.09492(16)
O11_3 O 0.4447(3) 0.5528(2) 0.23515(14)
O12_3 O 0.4953(4) 0.5161(3) 0.2620(2)
O13_3 O 0.6345(6) 0.6350(4) 0.0270(3)
C1_2 C 0.6300(6) 0.4790(4) 0.0200(3)
C2_2 C 0.5802(5) 0.4291(4) 0.0432(3)
C3_2 C 0.5558(4) 0.3759(3) 0.0234(3)
C4_2 C 0.5119(5) 0.3298(4) 0.0430(3)
C5_2 C 0.4926(5) 0.3359(4) 0.0842(3)
H8_2 H 0.4629 0.3042 0.0989
C6_2 C 0.5177(6) 0.3890(5) 0.1030(3)
C7_2 C 0.5598(5) 0.4341(4) 0.0834(3)
H9_2 H 0.5759 0.4701 0.0973
C8_2 C 0.4839(6) 0.2721(4) 0.0205(3)
C9_2 C 0.4698(5) 0.4227(3) 0.1479(3)
C10_2 C 0.4317(5) 0.4187(3) 0.1160(3)
H10_2 H 0.4250 0.3961 0.0904
C11_3 C 0.4034(4) 0.4492(3) 0.1228(2)
C12_3 C 0.4138(4) 0.4816(3) 0.1603(3)
H11_3 H 0.3946 0.5023 0.1643
C13_3 C 0.4517(4) 0.4847(3) 0.1924(3)
C14_2 C 0.4803(4) 0.4541(3) 0.1867(3)
H12_2 H 0.5057 0.4547 0.2084
C15_3 C 0.3623(5) 0.4453(3) 0.0882(3)
C16_3 C 0.4654(6) 0.5198(4) 0.2327(3)
C17_3 C 0.5811(7) 0.5948(5) 0.0360(5)
H13_2 H 0.5697 0.5565 0.0293
C18_3 C 0.5614(6) 0.6639(5) 0.0676(4)
H14_3 H 0.5294 0.6660 0.0802
H15_3 H 0.5914 0.6758 0.0897
H16_3 H 0.5760 0.6890 0.0420
C19_3 C 0.4861(8) 0.5615(5) 0.0626(4)
H17_3 H 0.4642 0.5773 0.0758
H18_3 H 0.4684 0.5426 0.0349
H19_3 H 0.4871 0.5340 0.0828
Ni2_2 Ni 0.68527(9) 0.60948(6) 0.00404(6)
O14_2 O 0.7232(5) 0.6433(3) 0.0567(2)
H20_2 H 0.7044 0.6430 0.0791
H21_2 H 0.7537 0.6746 0.0529
Ni4_3 Ni 0.46739(7) 0.61793(6) 0.28033(3)
Ni5_3 Ni 0.28460(6) 0.48388(4) 0.05300(3)
O1_3 O 0.6493(3) 0.4700(2) 0.98761(17)
O2_3 O 0.73897(28) 0.58997(19) 0.98148(15)
H2_3 H 0.7620 0.6173 0.9653
O4_3 O 0.6905(3) 0.4416(2) 0.91190(18)
H3_3 H 0.7080 0.4266 0.9239
H4_3 H 0.7010 0.4473 0.8852
O6_3 O 0.7261(6) 0.6910(4) 0.9779(5)
H5_3 H 0.7589 0.7089 0.9893
H6_3 H 0.7292 0.6907 0.9501
H7_3 H 0.5700 0.3717 0.9960
O16_3 O 0.6409(3) 0.5822(2) 0.9459(2)
O17_3 O 0.6638(3) 0.5297(2) 0.90508(16)
O18_3 O 0.7805(4) 0.5586(2) 0.90182(14)
Ni6 Ni 0.31473(9) 0.39052(6) 0.99596(6)
N1_4 N 0.0604(4) 0.2698(4) 0.3875(3)
O1_4 O 0.1967(2) 0.5126(2) 0.32094(17)
O2_4 O 0.07670(19) 0.4823(2) 0.31481(15)
H1_3 H 0.0776 0.5019 0.3368
H2_4 H 0.0494 0.4780 0.2986
O3_3 O 0.1378(3) 0.4481(3) 0.3691(2)
O4_4 O 0.2251(2) 0.5822(2) 0.24523(18)
H3_4 H 0.2401 0.6147 0.2572
H4_4 H 0.2194 0.5870 0.2185
O5_3 O 0.3983(2) 0.5677(2) 0.31711(18)
O7_3 O 0.4345(3) 0.5471(3) 0.3747(2)
O8_3 O 0.2751(3) 0.4407(2) 0.47884(17)
O9_4 O 0.2489(2) 0.2746(2) 0.3874(2)
O10_4 O 0.1964(2) 0.1992(2) 0.42825(16)
O11_4 O 0.1139(2) 0.2252(2) 0.56848(14)
O12_4 O 0.1506(3) 0.3125(2) 0.5953(2)
O13_4 O 0.0317(4) 0.3328(4) 0.3603(3)
C1_3 C 0.1877(4) 0.4843(4) 0.3533(3)
C2_3 C 0.2376(4) 0.4844(3) 0.3765(3)
C3_3 C 0.2908(3) 0.5132(3) 0.3567(3)
H7_4 H 0.2950 0.5316 0.3293
C4_3 C 0.3369(4) 0.5154(3) 0.3763(3)
C5_3 C 0.3308(4) 0.4900(3) 0.4175(3)
H8_3 H 0.3625 0.4920 0.4322
C6_3 C 0.2777(5) 0.4620(3) 0.4363(3)
C7_3 C 0.2326(4) 0.4590(3) 0.4167(3)
H9_3 H 0.1966 0.4391 0.4306
C8_3 C 0.3946(4) 0.5451(4) 0.3538(3)
C9_3 C 0.2440(3) 0.3804(4) 0.4812(3)
C10_3 C 0.2480(3) 0.3463(4) 0.4493(3)
H10_3 H 0.2706 0.3622 0.4237
C11_4 C 0.2175(3) 0.2875(3) 0.4561(2)
C12_4 C 0.1851(3) 0.2655(3) 0.4936(3)
H11_4 H 0.1644 0.2256 0.4976
C13_4 C 0.1820(3) 0.3003(3) 0.5257(3)
C14_3 C 0.2126(3) 0.3595(3) 0.5200(3)
H12_3 H 0.2120 0.3843 0.5417
C15_4 C 0.2214(3) 0.2503(4) 0.4215(3)
C16_4 C 0.1469(4) 0.2789(4) 0.5660(3)
C17_4 C 0.0719(5) 0.3196(5) 0.3693(5)
H13_3 H 0.1102 0.3465 0.3626
C18_4 C 0.0028(5) 0.2308(4) 0.4009(4)
H14_4 H 0.0007 0.1967 0.4135
C19_4 C 0.1052(5) 0.2579(6) 0.3959(4)
H17_4 H 0.0894 0.2202 0.4091
H18_4 H 0.1241 0.2591 0.3682
H19_4 H 0.1327 0.2864 0.4161
Ni2_3 Ni 0.05719(6) 0.40912(7) 0.33737(6)
O14_3 O 0.0234(3) 0.4132(4) 0.3900(2)
H20_3 H 0.0237 0.3947 0.4124
O15_2 O 0.1695(3) 0.6017(2) 0.31711(18)
O16_4 O 0.0845(2) 0.3920(2) 0.2792(2)
O17_4 O 0.1370(2) 0.4674(2) 0.23841(16)
Ni4_4 Ni 0.04873(6) 0.18279(4) 0.61367(3)
Ni5_4 Ni 0.18279(4) 0.13405(4) 0.38633(3)
Ni6_2 Ni 0.27615(6) 0.25754(7) 0.32929(6)
Ni5_5 Ni 0.86595(4) 0.04873(6) 0.38633(3)
Ni6_3 Ni 0.74246(7) 0.01860(9) 0.32929(6)
N1_5 N 0.7302(4) 0.7905(6) 0.3875(3)
O1_5 O 0.4874(2) 0.6840(3) 0.32094(17)
O2_5 O 0.5177(2) 0.59436(28) 0.31481(15)
H1_4 H 0.4981 0.5756 0.3368
H2_5 H 0.5220 0.5713 0.2986
O3_4 O 0.5519(3) 0.6896(4) 0.3691(2)
O4_5 O 0.4178(2) 0.6428(3) 0.24523(18)
H3_5 H 0.3853 0.6253 0.2572
H4_5 H 0.4130 0.6323 0.2185
O5_4 O 0.4323(2) 0.8305(3) 0.31711(18)
O6_4 O 0.6316(5) 0.6072(6) 0.3112(5)
H5_4 H 0.6167 0.5744 0.3226
H6_4 H 0.6282 0.6041 0.2834
O7_4 O 0.4529(3) 0.8873(4) 0.3747(2)
O8_4 O 0.5593(2) 0.8343(4) 0.47884(17)
O9_5 O 0.7254(2) 0.9742(3) 0.3874(2)
O10_5 O 0.8008(2) 0.9971(3) 0.42825(16)
O11_5 O 0.7748(2) 0.8886(3) 0.56848(14)
O12_5 O 0.6875(2) 0.8380(4) 0.5953(2)
O13_5 O 0.6672(4) 0.6988(6) 0.3603(3)
C1_4 C 0.5157(4) 0.7033(6) 0.3533(3)
C2_4 C 0.5156(3) 0.7531(5) 0.3765(3)
C3_4 C 0.4868(3) 0.7775(4) 0.3567(3)
H7_5 H 0.4684 0.7633 0.3293
C4_4 C 0.4846(3) 0.8214(5) 0.3763(3)
C5_4 C 0.5100(3) 0.8407(5) 0.4175(3)
H8_4 H 0.5080 0.8704 0.4322
C6_4 C 0.5380(3) 0.8156(6) 0.4363(3)
C7_4 C 0.5410(3) 0.7735(5) 0.4167(3)
H9_4 H 0.5609 0.7574 0.4306
C8_4 C 0.4549(4) 0.8494(6) 0.3538(3)
C9_4 C 0.6196(4) 0.8635(5) 0.4812(3)
C10_4 C 0.6537(4) 0.9016(5) 0.4493(3)
H10_4 H 0.6378 0.9083 0.4237
C11_5 C 0.7125(3) 0.9299(4) 0.4561(2)
C12_5 C 0.7345(3) 0.9195(4) 0.4936(3)
H11_5 H 0.7744 0.9387 0.4976
C13_5 C 0.6997(3) 0.8816(4) 0.5257(3)
C14_4 C 0.6405(3) 0.8530(4) 0.5200(3)
H12_4 H 0.6157 0.8276 0.5417
C15_5 C 0.7497(4) 0.9710(5) 0.4215(3)
C16_5 C 0.7211(4) 0.8679(6) 0.5660(3)
C17_5 C 0.6804(5) 0.7522(7) 0.3693(5)
H13_4 H 0.6535 0.7636 0.3626
C18_5 C 0.7692(4) 0.7719(6) 0.4009(4)
H14_5 H 0.8033 0.8039 0.4135
H15_4 H 0.7511 0.7419 0.4230
H16_4 H 0.7797 0.7573 0.3753
C19_5 C 0.7421(6) 0.8472(8) 0.3959(4)
H17_5 H 0.7798 0.8691 0.4091
H18_5 H 0.7409 0.8649 0.3682
H19_5 H 0.7136 0.8462 0.4161
Ni2_4 Ni 0.59088(7) 0.64806(9) 0.33737(6)
O14_4 O 0.5868(4) 0.6101(5) 0.3900(2)
H20_4 H 0.6053 0.6289 0.4124
H21_3 H 0.5876 0.5796 0.3862
O16_5 O 0.6080(2) 0.6924(3) 0.2792(2)
O17_5 O 0.5326(2) 0.6695(3) 0.23841(16)
Ni4_5 Ni 0.81721(4) 0.86595(7) 0.61367(3)
N1_6 N 0.2095(6) 0.9396(4) 0.3875(3)
O1_6 O 0.3160(3) 0.8033(2) 0.32094(17)
O2_6 O 0.40564(28) 0.92330(19) 0.31481(15)
H1_5 H 0.4244 0.9224 0.3368
H2_6 H 0.4287 0.9506 0.2986
O3_5 O 0.3104(4) 0.8622(3) 0.3691(2)
O4_6 O 0.3572(3) 0.7749(2) 0.24523(18)
H3_6 H 0.3747 0.7599 0.2572
H4_6 H 0.3677 0.7806 0.2185
O7_5 O 0.1127(4) 0.5655(3) 0.3747(2)
O8_5 O 0.1657(4) 0.7249(3) 0.47884(17)
O9_6 O 0.0258(3) 0.7511(2) 0.3874(2)
O10_6 O 0.0029(3) 0.8036(2) 0.42825(16)
O11_6 O 0.1114(3) 0.8861(2) 0.56848(14)
O12_6 O 0.1620(4) 0.8494(3) 0.5953(2)
O13_6 O 0.3012(6) 0.9683(4) 0.3603(3)
C1_5 C 0.2967(6) 0.8123(4) 0.3533(3)
C2_5 C 0.2469(5) 0.7624(4) 0.3765(3)
C3_5 C 0.2225(4) 0.7092(3) 0.3567(3)
H7_6 H 0.2367 0.7050 0.3293
C4_5 C 0.1786(5) 0.6631(4) 0.3763(3)
C5_5 C 0.1593(5) 0.6692(4) 0.4175(3)
H8_5 H 0.1296 0.6375 0.4322
C6_5 C 0.1844(6) 0.7223(5) 0.4363(3)
C7_5 C 0.2265(5) 0.7674(4) 0.4167(3)
H9_5 H 0.2426 0.8034 0.4306
C8_5 C 0.1506(6) 0.6054(4) 0.3538(3)
C9_5 C 0.1365(5) 0.7560(3) 0.4812(3)
C10_5 C 0.0984(5) 0.7520(3) 0.4493(3)
H10_5 H 0.0917 0.7294 0.4237
C11_6 C 0.0701(4) 0.7825(3) 0.4561(2)
C12_6 C 0.0805(4) 0.8149(3) 0.4936(3)
H11_6 H 0.0613 0.8356 0.4976
C13_6 C 0.1184(4) 0.8180(3) 0.5257(3)
C14_5 C 0.1470(4) 0.7874(3) 0.5200(3)
H12_5 H 0.1724 0.7880 0.5417
C15_6 C 0.0290(5) 0.7786(3) 0.4215(3)
C16_6 C 0.1321(6) 0.8531(4) 0.5660(3)
C17_6 C 0.2478(7) 0.9281(5) 0.3693(5)
H13_5 H 0.2364 0.8898 0.3626
C18_6 C 0.2281(6) 0.9972(5) 0.4009(4)
H14_6 H 0.1961 0.9993 0.4135
C19_6 C 0.1528(8) 0.8948(5) 0.3959(4)
H17_6 H 0.1309 0.9106 0.4091
H18_6 H 0.1351 0.8759 0.3682
H19_6 H 0.1538 0.8673 0.4161
Ni2_5 Ni 0.35194(9) 0.94281(6) 0.33737(6)
O14_5 O 0.3899(5) 0.9766(3) 0.3900(2)
H20_5 H 0.3711 0.9763 0.4124
O16_6 O 0.3076(3) 0.9155(2) 0.2792(2)
O17_6 O 0.3305(3) 0.8630(2) 0.23841(16)
Ni4_6 Ni 0.13405(7) 0.95127(6) 0.61367(3)
Ni5_6 Ni 0.95127(6) 0.81721(4) 0.38633(3)
Ni6_4 Ni 0.98140(9) 0.72385(6) 0.32929(6)
O5_5 O 0.0649(2) 0.9011(2) 0.65045(18)
O7_6 O 0.1011(3) 0.8805(3) 0.7081(2)
C4_6 C 0.0035(4) 0.8488(3) 0.7097(3)
H8_6 H 0.0291 0.8254 0.7656
C8_6 C 0.0612(4) 0.8785(4) 0.6872(3)
N1_7 N 0.7270(4) 0.6032(4) 0.7209(3)
O1_7 O 0.8633(2) 0.8460(2) 0.65428(17)
O2_7 O 0.74336(19) 0.8157(2) 0.64815(15)
H1_6 H 0.7442 0.8353 0.6702
H2_7 H 0.7160 0.8114 0.6320
O3_6 O 0.8044(3) 0.7815(3) 0.7025(2)
O4_7 O 0.8917(2) 0.9156(2) 0.57857(18)
H3_7 H 0.9067 0.9481 0.5906
H4_7 H 0.8860 0.9204 0.5519
O6_5 O 0.6423(4) 0.7018(5) 0.6446(5)
H5_5 H 0.6244 0.7167 0.6560
H6_5 H 0.6426 0.7052 0.6168
O8_6 O 0.9417(3) 0.7741(2) 0.81218(17)
O9_7 O 0.9155(2) 0.6080(2) 0.7208(2)
O10_7 O 0.8630(2) 0.5326(2) 0.76159(16)
O12_7 O 0.8172(3) 0.6459(2) 0.9287(2)
O13_7 O 0.6983(4) 0.6662(4) 0.6937(3)
C1_6 C 0.8543(4) 0.8177(4) 0.6867(3)
C2_6 C 0.9042(4) 0.8178(3) 0.7099(3)
C3_6 C 0.9574(3) 0.8466(3) 0.6901(3)
H7_7 H 0.9616 0.8650 0.6627
C5_6 C 0.9974(4) 0.8234(3) 0.7509(3)
C6_6 C 0.9443(5) 0.7954(3) 0.7697(3)
C7_6 C 0.8992(4) 0.7924(3) 0.7501(3)
H9_6 H 0.8632 0.7725 0.7640
C9_6 C 0.9106(3) 0.7138(4) 0.8146(3)
C10_6 C 0.9146(3) 0.6797(4) 0.7827(3)
H10_6 H 0.9372 0.6956 0.7571
C11_7 C 0.8841(3) 0.6209(3) 0.7895(2)
C12_7 C 0.8517(3) 0.5989(3) 0.8270(3)
H11_7 H 0.8310 0.5590 0.8310
C13_7 C 0.8486(3) 0.6337(3) 0.8591(3)
C14_6 C 0.8792(3) 0.6929(3) 0.8534(3)
H12_6 H 0.8786 0.7177 0.8751
C15_7 C 0.8880(3) 0.5837(4) 0.7549(3)
C16_7 C 0.8135(4) 0.6123(4) 0.8994(3)
C17_7 C 0.7385(5) 0.6530(5) 0.7027(5)
H13_6 H 0.7768 0.6799 0.6960
C18_7 C 0.6694(5) 0.5642(4) 0.7343(4)
H14_7 H 0.6673 0.5301 0.7469
H15_5 H 0.6575 0.5823 0.7564
H16_5 H 0.6443 0.5537 0.7087
C19_7 C 0.7718(5) 0.5913(6) 0.7293(4)
H17_7 H 0.7560 0.5536 0.7425
H18_7 H 0.7907 0.5925 0.7016
H19_7 H 0.7993 0.6198 0.7495
Ni2_6 Ni 0.72385(6) 0.74246(7) 0.67071(6)
O14_6 O 0.6900(3) 0.7466(4) 0.7234(2)
H20_6 H 0.6903 0.7281 0.7458
H21_4 H 0.6587 0.7458 0.7196
O15_3 O 0.8361(3) 0.9351(2) 0.65045(18)
O16_7 O 0.7511(2) 0.7254(2) 0.6126(2)
O17_7 O 0.8036(2) 0.8008(2) 0.57175(16)
Ni5_7 Ni 0.84945(4) 0.46739(4) 0.71967(3)
Ni6_5 Ni 0.94281(6) 0.59088(7) 0.66263(6)
N1_8 N 0.3968(4) 0.1239(6) 0.7209(3)
O1_8 O 0.1540(2) 0.0174(3) 0.65428(17)
O3_7 O 0.2185(3) 0.0230(4) 0.7025(2)
O5_6 O 0.0989(2) 0.1639(3) 0.65045(18)
O7_7 O 0.1195(3) 0.2207(4) 0.7081(2)
O8_7 O 0.2259(2) 0.1677(4) 0.81218(17)
O9_8 O 0.3920(2) 0.3076(3) 0.7208(2)
O10_8 O 0.4674(2) 0.3305(3) 0.76159(16)
O12_8 O 0.3541(2) 0.1714(4) 0.9287(2)
O13_8 O 0.3338(4) 0.0322(6) 0.6937(3)
C1_7 C 0.1823(4) 0.0367(6) 0.6867(3)
C2_7 C 0.1822(3) 0.0865(5) 0.7099(3)
C3_7 C 0.1534(3) 0.1109(4) 0.6901(3)
H7_8 H 0.1350 0.0967 0.6627
C4_7 C 0.1512(3) 0.1548(5) 0.7097(3)
C5_7 C 0.1766(3) 0.1741(5) 0.7509(3)
H8_7 H 0.1746 0.2038 0.7656
C6_7 C 0.2046(3) 0.1490(6) 0.7697(3)
C7_7 C 0.2076(3) 0.1069(5) 0.7501(3)
H9_7 H 0.2275 0.0908 0.7640
C8_7 C 0.1215(4) 0.1828(6) 0.6872(3)
C9_7 C 0.2862(4) 0.1969(5) 0.8146(3)
C10_7 C 0.3203(4) 0.2350(5) 0.7827(3)
H10_7 H 0.3044 0.2417 0.7571
C11_8 C 0.3791(3) 0.2633(4) 0.7895(2)
C12_8 C 0.4011(3) 0.2529(4) 0.8270(3)
H11_8 H 0.4410 0.2721 0.8310
C13_8 C 0.3663(3) 0.2150(4) 0.8591(3)
C14_7 C 0.3071(3) 0.1864(4) 0.8534(3)
H12_7 H 0.2823 0.1610 0.8751
C15_8 C 0.4163(4) 0.3044(5) 0.7549(3)
C16_8 C 0.3877(4) 0.2013(6) 0.8994(3)
C17_8 C 0.3470(5) 0.0856(7) 0.7027(5)
H13_7 H 0.3201 0.0970 0.6960
C18_8 C 0.4358(4) 0.1053(6) 0.7343(4)
H14_8 H 0.4699 0.1373 0.7469
H15_6 H 0.4177 0.0753 0.7564
H16_6 H 0.4463 0.0907 0.7087
C19_8 C 0.4087(6) 0.1806(8) 0.7293(4)
H17_8 H 0.4464 0.2025 0.7425
H18_8 H 0.4075 0.1983 0.7016
H19_8 H 0.3802 0.1796 0.7495
O16_8 O 0.2746(2) 0.0258(3) 0.6126(2)
O17_8 O 0.1992(2) 0.0029(3) 0.57175(16)
Ni5_8 Ni 0.53261(4) 0.38207(6) 0.71967(3)
Ni6_6 Ni 0.40912(7) 0.35194(9) 0.66263(6)
O2_8 O 0.1843(2) 0.92770(28) 0.64815(15)
H1_7 H 0.1647 0.9090 0.6702
H2_8 H 0.1886 0.9047 0.6320
O4_8 O 0.0844(2) 0.9762(3) 0.57857(18)
H3_8 H 0.0519 0.9587 0.5906
H4_8 H 0.0796 0.9657 0.5519
O6_6 O 0.2982(5) 0.9406(6) 0.6446(5)
H5_6 H 0.2833 0.9078 0.6560
H6_6 H 0.2948 0.9375 0.6168
Ni2_7 Ni 0.25754(7) 0.98140(9) 0.67071(6)
O14_7 O 0.2534(4) 0.9435(5) 0.7234(2)
H20_7 H 0.2719 0.9623 0.7458
H21_5 H 0.2542 0.9130 0.7196
O2_9 O 0.07230(28) 0.25664(19) 0.64815(15)
H1_8 H 0.0910 0.2558 0.6702
H2_9 H 0.0953 0.2840 0.6320
O4_9 O 0.0238(3) 0.1083(2) 0.57857(18)
H3_9 H 0.0413 0.0933 0.5906
H4_9 H 0.0343 0.1140 0.5519
O6_7 O 0.0594(6) 0.3577(4) 0.6446(5)
H5_7 H 0.0922 0.3756 0.6560
H6_7 H 0.0625 0.3574 0.6168
Ni2_8 Ni 0.01860(9) 0.27615(6) 0.67071(6)
O14_8 O 0.0565(5) 0.3100(3) 0.7234(2)
H20_8 H 0.0377 0.3097 0.7458
H21_6 H 0.0870 0.3413 0.7196
N1_9 N 0.8761(6) 0.2730(4) 0.7209(3)
O1_9 O 0.9826(3) 0.1367(2) 0.65428(17)
O3_8 O 0.9770(4) 0.1956(3) 0.7025(2)
O8_8 O 0.8323(4) 0.0583(3) 0.81218(17)
O9_9 O 0.6924(3) 0.0845(2) 0.7208(2)
O10_9 O 0.6695(3) 0.1370(2) 0.76159(16)
O12_9 O 0.8286(4) 0.1828(3) 0.9287(2)
O13_9 O 0.9678(6) 0.3017(4) 0.6937(3)
C1_8 C 0.9633(6) 0.1457(4) 0.6867(3)
C2_8 C 0.9135(5) 0.0958(4) 0.7099(3)
C3_8 C 0.8891(4) 0.0426(3) 0.6901(3)
H7_9 H 0.9033 0.0384 0.6627
C5_8 C 0.8259(5) 0.0026(4) 0.7509(3)
C6_8 C 0.8510(6) 0.0557(5) 0.7697(3)
C7_8 C 0.8931(5) 0.1008(4) 0.7501(3)
H9_8 H 0.9092 0.1368 0.7640
C9_8 C 0.8031(5) 0.0894(3) 0.8146(3)
C10_8 C 0.7650(5) 0.0854(3) 0.7827(3)
H10_8 H 0.7583 0.0628 0.7571
C11_9 C 0.7367(4) 0.1159(3) 0.7895(2)
C12_9 C 0.7471(4) 0.1483(3) 0.8270(3)
H11_9 H 0.7279 0.1690 0.8310
C13_9 C 0.7850(4) 0.1514(3) 0.8591(3)
C14_8 C 0.8136(4) 0.1208(3) 0.8534(3)
H12_8 H 0.8390 0.1214 0.8751
C15_9 C 0.6956(5) 0.1120(3) 0.7549(3)
C16_9 C 0.7987(6) 0.1865(4) 0.8994(3)
C17_9 C 0.9144(7) 0.2615(5) 0.7027(5)
H13_8 H 0.9030 0.2232 0.6960
C18_9 C 0.8947(6) 0.3306(5) 0.7343(4)
H14_9 H 0.8627 0.3327 0.7469
H15_7 H 0.9247 0.3425 0.7564
H16_7 H 0.9093 0.3557 0.7087
C19_9 C 0.8194(8) 0.2282(5) 0.7293(4)
H17_9 H 0.7975 0.2440 0.7425
H18_9 H 0.8017 0.2093 0.7016
H19_9 H 0.8204 0.2007 0.7495
O16_9 O 0.9742(3) 0.2489(2) 0.6126(2)
O17_9 O 0.9971(3) 0.1964(2) 0.57175(16)
Ni5_9 Ni 0.61793(6) 0.15055(4) 0.71967(3)
Ni6_7 Ni 0.64806(9) 0.05719(6) 0.66263(6)
O7_8 O 0.7793(4) 0.8989(3) 0.7081(2)
C4_8 C 0.8452(5) 0.9965(4) 0.7097(3)
H8_8 H 0.7962 0.9709 0.7656
C8_8 C 0.8172(6) 0.9388(4) 0.6872(3)
N1_10 N 0.6063(4) 0.0635(4) 0.9458(3)
O11_7 O 0.5528(2) 0.1081(2) 0.76485(14)
O12_10 O 0.5161(3) 0.0208(2) 0.7380(2)
O13_10 O 0.6350(4) 0.0005(4) 0.9730(3)
C11_10 C 0.4492(3) 0.0458(3) 0.8772(2)
C12_10 C 0.4816(3) 0.0678(3) 0.8397(3)
H11_10 H 0.5023 0.1077 0.8357
C13_10 C 0.4847(3) 0.0330(3) 0.8076(3)
C15_10 C 0.4453(3) 0.0830(4) 0.9118(3)
C16_10 C 0.5198(4) 0.0544(4) 0.7673(3)
C17_10 C 0.5948(5) 0.0137(5) 0.9640(5)
C18_10 C 0.6639(5) 0.1025(4) 0.9324(4)
H14_10 H 0.6660 0.1366 0.9198
H15_8 H 0.6758 0.0844 0.9103
H16_8 H 0.6890 0.1130 0.9580
C19_10 C 0.5615(5) 0.0754(6) 0.9374(4)
H17_10 H 0.5773 0.1131 0.9242
H18_10 H 0.5426 0.0742 0.9651
H19_10 H 0.5340 0.0469 0.9172
O1_10 O 0.4700(2) 0.8207(2) 0.01239(17)
O2_10 O 0.58997(19) 0.8510(2) 0.01852(15)
H2_10 H 0.6173 0.8553 0.0347
O4_10 O 0.4416(2) 0.7511(2) 0.08810(18)
H3_10 H 0.4266 0.7186 0.0761
H4_10 H 0.4473 0.7463 0.1148
O5_7 O 0.2684(2) 0.7656(2) 0.01622(18)
O6_8 O 0.6910(4) 0.9649(5) 0.0221(5)
H5_8 H 0.7089 0.9500 0.0107
H6_8 H 0.6907 0.9615 0.0499
H7_10 H 0.3717 0.8017 0.0040
O15_4 O 0.4972(3) 0.7316(2) 0.01622(18)
O18_4 O 0.5586(2) 0.7780(3) 0.09818(14)
O1_11 O 0.1793(2) 0.6493(3) 0.01239(17)
O2_11 O 0.1490(2) 0.73897(28) 0.01852(15)
H2_11 H 0.1447 0.7620 0.0347
O4_11 O 0.2489(2) 0.6905(3) 0.08810(18)
H3_11 H 0.2814 0.7080 0.0761
H4_11 H 0.2537 0.7010 0.1148
O5_8 O 0.2344(2) 0.5028(3) 0.01622(18)
O6_9 O 0.0351(5) 0.7261(6) 0.0221(5)
H5_9 H 0.0500 0.7589 0.0107
H6_9 H 0.0385 0.7292 0.0499
H7_11 H 0.1983 0.5700 0.0040
O18_5 O 0.2220(3) 0.7805(4) 0.09818(14)
N1_11 N 0.9365(4) 0.5428(6) 0.9458(3)
O11_8 O 0.8919(2) 0.4447(3) 0.76485(14)
O12_11 O 0.9792(2) 0.4953(4) 0.7380(2)
O13_11 O 0.9995(4) 0.6345(6) 0.9730(3)
C11_11 C 0.9542(3) 0.4034(4) 0.8772(2)
C12_11 C 0.9322(3) 0.4138(4) 0.8397(3)
H11_11 H 0.8923 0.3946 0.8357
C13_11 C 0.9670(3) 0.4517(4) 0.8076(3)
C15_11 C 0.9170(4) 0.3623(5) 0.9118(3)
C16_11 C 0.9456(4) 0.4654(6) 0.7673(3)
C17_11 C 0.9863(5) 0.5811(7) 0.9640(5)
C18_11 C 0.8975(4) 0.5614(6) 0.9324(4)
H14_11 H 0.8634 0.5294 0.9198
H15_9 H 0.9156 0.5914 0.9103
H16_9 H 0.8870 0.5760 0.9580
C19_11 C 0.9246(6) 0.4861(8) 0.9374(4)
H17_11 H 0.8869 0.4642 0.9242
H18_11 H 0.9258 0.4684 0.9651
H19_11 H 0.9531 0.4871 0.9172
O1_12 O 0.3507(3) 0.5300(2) 0.01239(17)
O2_12 O 0.26103(28) 0.41003(19) 0.01852(15)
H2_12 H 0.2380 0.3827 0.0347
O4_12 O 0.3095(3) 0.5584(2) 0.08810(18)
H3_12 H 0.2920 0.5734 0.0761
H4_12 H 0.2990 0.5527 0.1148
O6_10 O 0.2739(6) 0.3090(4) 0.0221(5)
H5_10 H 0.2411 0.2911 0.0107
H6_10 H 0.2708 0.3093 0.0499
H7_12 H 0.4300 0.6283 0.0040
O18_6 O 0.2195(4) 0.4414(2) 0.09818(14)
N1_12 N 0.4572(6) 0.3937(4) 0.9458(3)
H1_9 H 0.2423 0.4109 0.9965
O3_9 O 0.3563(4) 0.4711(3) 0.9642(2)
O7_9 O 0.5540(4) 0.7678(3) 0.9586(2)
O8_9 O 0.5010(4) 0.6084(3) 0.85449(17)
O11_9 O 0.5553(3) 0.4472(2) 0.76485(14)
O12_12 O 0.5047(4) 0.4839(3) 0.7380(2)
O13_12 O 0.3655(6) 0.3650(4) 0.9730(3)
C1_9 C 0.3700(6) 0.5210(4) 0.9800(3)
C2_9 C 0.4198(5) 0.5709(4) 0.9568(3)
C3_9 C 0.4442(4) 0.6241(3) 0.9766(3)
C4_9 C 0.4881(5) 0.6702(4) 0.9570(3)
C5_9 C 0.5074(5) 0.6641(4) 0.9158(3)
H8_9 H 0.5371 0.6958 0.9011
C6_9 C 0.4823(6) 0.6110(5) 0.8970(3)
C7_9 C 0.4402(5) 0.5659(4) 0.9166(3)
H9_9 H 0.4241 0.5299 0.9027
C8_9 C 0.5161(6) 0.7279(4) 0.9795(3)
C9_9 C 0.5302(5) 0.5773(3) 0.8521(3)
C10_9 C 0.5683(5) 0.5813(3) 0.8840(3)
H10_9 H 0.5750 0.6039 0.9096
C11_12 C 0.5966(4) 0.5508(3) 0.8772(2)
C12_12 C 0.5862(4) 0.5184(3) 0.8397(3)
H11_12 H 0.6054 0.4977 0.8357
C13_12 C 0.5483(4) 0.5153(3) 0.8076(3)
C14_9 C 0.5197(4) 0.5459(3) 0.8133(3)
H12_9 H 0.4943 0.5453 0.7916
C15_12 C 0.6377(5) 0.5547(3) 0.9118(3)
C16_12 C 0.5346(6) 0.4802(4) 0.7673(3)
C17_12 C 0.4189(7) 0.4052(5) 0.9640(5)
H13_9 H 0.4303 0.4435 0.9707
C18_12 C 0.4386(6) 0.3361(5) 0.9324(4)
H14_12 H 0.4706 0.3340 0.9198
H15_10 H 0.4086 0.3242 0.9103
H16_10 H 0.4240 0.3110 0.9580
C19_12 C 0.5139(8) 0.4385(5) 0.9374(4)
H17_12 H 0.5358 0.4227 0.9242
H18_12 H 0.5316 0.4574 0.9651
H19_12 H 0.5129 0.4660 0.9172
O14_9 O 0.2768(5) 0.3567(3) 0.9433(2)
H20_9 H 0.2956 0.3570 0.9209
H21_7 H 0.2463 0.3254 0.9471
N1_13 N 0.9396(4) 0.7302(4) 0.6125(3)
O1_13 O 0.8033(2) 0.4874(2) 0.67906(17)
O2_13 O 0.92330(19) 0.5177(2) 0.68519(15)
H1_10 H 0.9224 0.4981 0.6632
H2_13 H 0.9506 0.5220 0.7014
O3_10 O 0.8622(3) 0.5519(3) 0.6309(2)
O4_13 O 0.7749(2) 0.4178(2) 0.75477(18)
H3_13 H 0.7599 0.3853 0.7428
H4_13 H 0.7806 0.4130 0.7815
O5_9 O 0.6017(2) 0.4323(2) 0.68289(18)
O7_10 O 0.5655(3) 0.4529(3) 0.6253(2)
O8_10 O 0.7249(3) 0.5593(2) 0.52116(17)
O11_10 O 0.8861(2) 0.7748(2) 0.43152(14)
O12_13 O 0.8494(3) 0.6875(2) 0.4047(2)
O13_13 O 0.9683(4) 0.6672(4) 0.6397(3)
C1_10 C 0.8123(4) 0.5157(4) 0.6467(3)
C2_10 C 0.7624(4) 0.5156(3) 0.6235(3)
C3_10 C 0.7092(3) 0.4868(3) 0.6433(3)
H7_13 H 0.7050 0.4684 0.6707
C4_10 C 0.6631(4) 0.4846(3) 0.6237(3)
C5_10 C 0.6692(4) 0.5100(3) 0.5825(3)
H8_10 H 0.6375 0.5080 0.5678
C6_10 C 0.7223(5) 0.5380(3) 0.5637(3)
C7_10 C 0.7674(4) 0.5410(3) 0.5833(3)
H9_10 H 0.8034 0.5609 0.5694
C8_10 C 0.6054(4) 0.4549(4) 0.6462(3)
C9_10 C 0.7560(3) 0.6196(4) 0.5188(3)
C10_10 C 0.7520(3) 0.6537(4) 0.5507(3)
H10_10 H 0.7294 0.6378 0.5763
C11_13 C 0.7825(3) 0.7125(3) 0.5439(2)
C12_13 C 0.8149(3) 0.7345(3) 0.5064(3)
H11_13 H 0.8356 0.7744 0.5024
C13_13 C 0.8180(3) 0.6997(3) 0.4743(3)
C14_10 C 0.7874(3) 0.6405(3) 0.4800(3)
H12_10 H 0.7880 0.6157 0.4583
C15_13 C 0.7786(3) 0.7497(4) 0.5785(3)
C16_13 C 0.8531(4) 0.7211(4) 0.4340(3)
C17_13 C 0.9281(5) 0.6804(5) 0.6307(5)
H13_10 H 0.8898 0.6535 0.6374
C18_13 C 0.9972(5) 0.7692(4) 0.5991(4)
H14_13 H 0.9993 0.8033 0.5865
C19_13 C 0.8948(5) 0.7421(6) 0.6041(4)
H17_13 H 0.9106 0.7798 0.5909
H18_13 H 0.8759 0.7409 0.6318
H19_13 H 0.8673 0.7136 0.5839
O14_10 O 0.9766(3) 0.5868(4) 0.6100(2)
H20_10 H 0.9763 0.6053 0.5876
O15_5 O 0.8305(3) 0.3983(2) 0.68289(18)
N1_14 N 0.2698(4) 0.2095(6) 0.6125(3)
O1_14 O 0.5126(2) 0.3160(3) 0.67906(17)
O2_14 O 0.4823(2) 0.40564(28) 0.68519(15)
H1_11 H 0.5019 0.4244 0.6632
H2_14 H 0.4780 0.4287 0.7014
O3_11 O 0.4481(3) 0.3104(4) 0.6309(2)
O4_14 O 0.5822(2) 0.3572(3) 0.75477(18)
H3_14 H 0.6147 0.3747 0.7428
H4_14 H 0.5870 0.3677 0.7815
O5_10 O 0.5677(2) 0.1695(3) 0.68289(18)
O6_11 O 0.3684(5) 0.3928(6) 0.6888(5)
H5_11 H 0.3833 0.4256 0.6774
H6_11 H 0.3718 0.3959 0.7166
O7_11 O 0.5471(3) 0.1127(4) 0.6253(2)
O8_11 O 0.4407(2) 0.1657(4) 0.52116(17)
O11_11 O 0.2252(2) 0.1114(3) 0.43152(14)
O12_14 O 0.3125(2) 0.1620(4) 0.4047(2)
O13_14 O 0.3328(4) 0.3012(6) 0.6397(3)
C1_11 C 0.4843(4) 0.2967(6) 0.6467(3)
C2_11 C 0.4844(3) 0.2469(5) 0.6235(3)
C3_11 C 0.5132(3) 0.2225(4) 0.6433(3)
H7_14 H 0.5316 0.2367 0.6707
C4_11 C 0.5154(3) 0.1786(5) 0.6237(3)
C5_11 C 0.4900(3) 0.1593(5) 0.5825(3)
H8_11 H 0.4920 0.1296 0.5678
C6_11 C 0.4620(3) 0.1844(6) 0.5637(3)
C7_11 C 0.4590(3) 0.2265(5) 0.5833(3)
H9_11 H 0.4391 0.2426 0.5694
C8_11 C 0.5451(4) 0.1506(6) 0.6462(3)
C9_11 C 0.3804(4) 0.1365(5) 0.5188(3)
C10_11 C 0.3463(4) 0.0984(5) 0.5507(3)
H10_11 H 0.3622 0.0917 0.5763
C11_14 C 0.2875(3) 0.0701(4) 0.5439(2)
C12_14 C 0.2655(3) 0.0805(4) 0.5064(3)
H11_14 H 0.2256 0.0613 0.5024
C13_14 C 0.3003(3) 0.1184(4) 0.4743(3)
C14_11 C 0.3595(3) 0.1470(4) 0.4800(3)
H12_11 H 0.3843 0.1724 0.4583
C15_14 C 0.2503(4) 0.0290(5) 0.5785(3)
C16_14 C 0.2789(4) 0.1321(6) 0.4340(3)
C17_14 C 0.3196(5) 0.2478(7) 0.6307(5)
H13_11 H 0.3465 0.2364 0.6374
C18_14 C 0.2308(4) 0.2281(6) 0.5991(4)
H14_14 H 0.1967 0.1961 0.5865
H15_11 H 0.2489 0.2581 0.5770
H16_11 H 0.2203 0.2427 0.6247
C19_14 C 0.2579(6) 0.1528(8) 0.6041(4)
H17_14 H 0.2202 0.1309 0.5909
H18_14 H 0.2591 0.1351 0.6318
H19_14 H 0.2864 0.1538 0.5839
O14_11 O 0.4132(4) 0.3899(5) 0.6100(2)
H20_11 H 0.3947 0.3711 0.5876
H21_8 H 0.4124 0.4204 0.6138
N1_15 N 0.7905(6) 0.0604(4) 0.6125(3)
O1_15 O 0.6840(3) 0.1967(2) 0.67906(17)
O2_15 O 0.59436(28) 0.07670(19) 0.68519(15)
H1_12 H 0.5756 0.0776 0.6632
H2_15 H 0.5713 0.0494 0.7014
O3_12 O 0.6896(4) 0.1378(3) 0.6309(2)
O4_15 O 0.6428(3) 0.2251(2) 0.75477(18)
H3_15 H 0.6253 0.2401 0.7428
H4_15 H 0.6323 0.2194 0.7815
O7_12 O 0.8873(4) 0.4345(3) 0.6253(2)
O8_12 O 0.8343(4) 0.2751(3) 0.52116(17)
O11_12 O 0.8886(3) 0.1139(2) 0.43152(14)
O12_15 O 0.8380(4) 0.1506(3) 0.4047(2)
O13_15 O 0.6988(6) 0.0317(4) 0.6397(3)
C1_12 C 0.7033(6) 0.1877(4) 0.6467(3)
C2_12 C 0.7531(5) 0.2376(4) 0.6235(3)
C3_12 C 0.7775(4) 0.2908(3) 0.6433(3)
H7_15 H 0.7633 0.2950 0.6707
C4_12 C 0.8214(5) 0.3369(4) 0.6237(3)
C5_12 C 0.8407(5) 0.3308(4) 0.5825(3)
H8_12 H 0.8704 0.3625 0.5678
C6_12 C 0.8156(6) 0.2777(5) 0.5637(3)
C7_12 C 0.7735(5) 0.2326(4) 0.5833(3)
H9_12 H 0.7574 0.1966 0.5694
C8_12 C 0.8494(6) 0.3946(4) 0.6462(3)
C9_12 C 0.8635(5) 0.2440(3) 0.5188(3)
C10_12 C 0.9016(5) 0.2480(3) 0.5507(3)
H10_12 H 0.9083 0.2706 0.5763
C11_15 C 0.9299(4) 0.2175(3) 0.5439(2)
C12_15 C 0.9195(4) 0.1851(3) 0.5064(3)
H11_15 H 0.9387 0.1644 0.5024
C13_15 C 0.8816(4) 0.1820(3) 0.4743(3)
C14_12 C 0.8530(4) 0.2126(3) 0.4800(3)
H12_12 H 0.8276 0.2120 0.4583
C15_15 C 0.9710(5) 0.2214(3) 0.5785(3)
C16_15 C 0.8679(6) 0.1469(4) 0.4340(3)
C17_15 C 0.7522(7) 0.0719(5) 0.6307(5)
H13_12 H 0.7636 0.1102 0.6374
C18_15 C 0.7719(6) 0.0028(5) 0.5991(4)
H14_15 H 0.8039 0.0007 0.5865
C19_15 C 0.8472(8) 0.1052(5) 0.6041(4)
H17_15 H 0.8691 0.0894 0.5909
H18_15 H 0.8649 0.1241 0.6318
H19_15 H 0.8462 0.1327 0.5839
O14_12 O 0.6101(5) 0.0234(3) 0.6100(2)
H20_12 H 0.6289 0.0237 0.5876
N1_16 N 0.2730(4) 0.3968(4) 0.2791(3)
O1_16 O 0.1367(2) 0.1540(2) 0.34572(17)
O2_16 O 0.25664(19) 0.1843(2) 0.35185(15)
H1_13 H 0.2558 0.1647 0.3298
H2_16 H 0.2840 0.1886 0.3680
O3_13 O 0.1956(3) 0.2185(3) 0.2975(2)
O4_16 O 0.1083(2) 0.0844(2) 0.42143(18)
H3_16 H 0.0933 0.0519 0.4094
H4_16 H 0.1140 0.0796 0.4481
O6_12 O 0.3577(4) 0.2982(5) 0.3554(5)
H5_12 H 0.3756 0.2833 0.3440
H6_12 H 0.3574 0.2948 0.3832
O8_13 O 0.0583(3) 0.2259(2) 0.18782(17)
O12_16 O 0.1828(3) 0.3541(2) 0.0713(2)
O13_16 O 0.3017(4) 0.3338(4) 0.3063(3)
C1_13 C 0.1457(4) 0.1823(4) 0.3133(3)
C2_13 C 0.0958(4) 0.1822(3) 0.2901(3)
C3_13 C 0.0426(3) 0.1534(3) 0.3099(3)
H7_16 H 0.0384 0.1350 0.3373
C5_13 C 0.0026(4) 0.1766(3) 0.2491(3)
C6_13 C 0.0557(5) 0.2046(3) 0.2303(3)
C7_13 C 0.1008(4) 0.2076(3) 0.2499(3)
H9_13 H 0.1368 0.2275 0.2360
C9_13 C 0.0894(3) 0.2862(4) 0.1854(3)
C10_13 C 0.0854(3) 0.3203(4) 0.2173(3)
H10_13 H 0.0628 0.3044 0.2429
C11_16 C 0.1159(3) 0.3791(3) 0.2105(2)
C12_16 C 0.1483(3) 0.4011(3) 0.1730(3)
H11_16 H 0.1690 0.4410 0.1690
C13_16 C 0.1514(3) 0.3663(3) 0.1409(3)
C14_13 C 0.1208(3) 0.3071(3) 0.1466(3)
H12_13 H 0.1214 0.2823 0.1249
C15_16 C 0.1120(3) 0.4163(4) 0.2451(3)
C16_16 C 0.1865(4) 0.3877(4) 0.1006(3)
C17_16 C 0.2615(5) 0.3470(5) 0.2973(5)
H13_13 H 0.2232 0.3201 0.3040
C18_16 C 0.3306(5) 0.4358(4) 0.2657(4)
H14_16 H 0.3327 0.4699 0.2531
H15_12 H 0.3425 0.4177 0.2436
H16_12 H 0.3557 0.4463 0.2913
C19_16 C 0.2282(5) 0.4087(6) 0.2707(4)
H17_16 H 0.2440 0.4464 0.2575
H18_16 H 0.2093 0.4075 0.2984
H19_16 H 0.2007 0.3802 0.2505
O14_13 O 0.3100(3) 0.2534(4) 0.2766(2)
H20_13 H 0.3097 0.2719 0.2542
H21_9 H 0.3413 0.2542 0.2804
O15_6 O 0.1639(3) 0.0649(2) 0.34955(18)
O5_11 O 0.9351(2) 0.0989(2) 0.34955(18)
O7_13 O 0.8989(3) 0.1195(3) 0.2919(2)
C4_13 C 0.9965(4) 0.1512(3) 0.2903(3)
H8_13 H 0.9709 0.1746 0.2344
C8_13 C 0.9388(4) 0.1215(4) 0.3128(3)
O2_17 O 0.8157(2) 0.07230(28) 0.35185(15)
H1_14 H 0.8353 0.0910 0.3298
H2_17 H 0.8114 0.0953 0.3680
O4_17 O 0.9156(2) 0.0238(3) 0.42143(18)
H3_17 H 0.9481 0.0413 0.4094
H4_17 H 0.9204 0.0343 0.4481
O6_13 O 0.7018(5) 0.0594(6) 0.3554(5)
H5_13 H 0.7167 0.0922 0.3440
H6_13 H 0.7052 0.0625 0.3832
O14_14 O 0.7466(4) 0.0565(5) 0.2766(2)
H20_14 H 0.7281 0.0377 0.2542
H21_10 H 0.7458 0.0870 0.2804
N1_17 N 0.6032(4) 0.8761(6) 0.2791(3)
O1_17 O 0.8460(2) 0.9826(3) 0.34572(17)
O3_14 O 0.7815(3) 0.9770(4) 0.2975(2)
O5_12 O 0.9011(2) 0.8361(3) 0.34955(18)
O7_14 O 0.8805(3) 0.7793(4) 0.2919(2)
O8_14 O 0.7741(2) 0.8323(4) 0.18782(17)
O12_17 O 0.6459(2) 0.8286(4) 0.0713(2)
O13_17 O 0.6662(4) 0.9678(6) 0.3063(3)
C1_14 C 0.8177(4) 0.9633(6) 0.3133(3)
C2_14 C 0.8178(3) 0.9135(5) 0.2901(3)
C3_14 C 0.8466(3) 0.8891(4) 0.3099(3)
H7_17 H 0.8650 0.9033 0.3373
C4_14 C 0.8488(3) 0.8452(5) 0.2903(3)
C5_14 C 0.8234(3) 0.8259(5) 0.2491(3)
H8_14 H 0.8254 0.7962 0.2344
C6_14 C 0.7954(3) 0.8510(6) 0.2303(3)
C7_14 C 0.7924(3) 0.8931(5) 0.2499(3)
H9_14 H 0.7725 0.9092 0.2360
C8_14 C 0.8785(4) 0.8172(6) 0.3128(3)
C9_14 C 0.7138(4) 0.8031(5) 0.1854(3)
C10_14 C 0.6797(4) 0.7650(5) 0.2173(3)
H10_14 H 0.6956 0.7583 0.2429
C11_17 C 0.6209(3) 0.7367(4) 0.2105(2)
C12_17 C 0.5989(3) 0.7471(4) 0.1730(3)
H11_17 H 0.5590 0.7279 0.1690
C13_17 C 0.6337(3) 0.7850(4) 0.1409(3)
C14_14 C 0.6929(3) 0.8136(4) 0.1466(3)
H12_14 H 0.7177 0.8390 0.1249
C15_17 C 0.5837(4) 0.6956(5) 0.2451(3)
C16_17 C 0.6123(4) 0.7987(6) 0.1006(3)
C17_17 C 0.6530(5) 0.9144(7) 0.2973(5)
H13_14 H 0.6799 0.9030 0.3040
C18_17 C 0.5642(4) 0.8947(6) 0.2657(4)
H14_17 H 0.5301 0.8627 0.2531
H15_13 H 0.5823 0.9247 0.2436
H16_13 H 0.5537 0.9093 0.2913
C19_17 C 0.5913(6) 0.8194(8) 0.2707(4)
H17_17 H 0.5536 0.7975 0.2575
H18_17 H 0.5925 0.8017 0.2984
H19_17 H 0.6198 0.8204 0.2505
O7_15 O 0.2207(4) 0.1011(3) 0.2919(2)
C4_15 C 0.1548(5) 0.0035(4) 0.2903(3)
H8_15 H 0.2038 0.0291 0.2344
C8_15 C 0.1828(6) 0.0612(4) 0.3128(3)
N1_18 N 0.1239(6) 0.7270(4) 0.2791(3)
O1_18 O 0.0174(3) 0.8633(2) 0.34572(17)
O3_15 O 0.0230(4) 0.8044(3) 0.2975(2)
O8_15 O 0.1677(4) 0.9417(3) 0.18782(17)
O12_18 O 0.1714(4) 0.8172(3) 0.0713(2)
O13_18 O 0.0322(6) 0.6983(4) 0.3063(3)
C1_15 C 0.0367(6) 0.8543(4) 0.3133(3)
C2_15 C 0.0865(5) 0.9042(4) 0.2901(3)
C3_15 C 0.1109(4) 0.9574(3) 0.3099(3)
H7_18 H 0.0967 0.9616 0.3373
C5_15 C 0.1741(5) 0.9974(4) 0.2491(3)
C6_15 C 0.1490(6) 0.9443(5) 0.2303(3)
C7_15 C 0.1069(5) 0.8992(4) 0.2499(3)
H9_15 H 0.0908 0.8632 0.2360
C9_15 C 0.1969(5) 0.9106(3) 0.1854(3)
C10_15 C 0.2350(5) 0.9146(3) 0.2173(3)
H10_15 H 0.2417 0.9372 0.2429
C11_18 C 0.2633(4) 0.8841(3) 0.2105(2)
C12_18 C 0.2529(4) 0.8517(3) 0.1730(3)
H11_18 H 0.2721 0.8310 0.1690
C13_18 C 0.2150(4) 0.8486(3) 0.1409(3)
C14_15 C 0.1864(4) 0.8792(3) 0.1466(3)
H12_15 H 0.1610 0.8786 0.1249
C15_18 C 0.3044(5) 0.8880(3) 0.2451(3)
C16_18 C 0.2013(6) 0.8135(4) 0.1006(3)
C17_18 C 0.0856(7) 0.7385(5) 0.2973(5)
H13_15 H 0.0970 0.7768 0.3040
C18_18 C 0.1053(6) 0.6694(5) 0.2657(4)
H14_18 H 0.1373 0.6673 0.2531
H15_14 H 0.0753 0.6575 0.2436
H16_14 H 0.0907 0.6443 0.2913
C19_18 C 0.1806(8) 0.7718(5) 0.2707(4)
H17_18 H 0.2025 0.7560 0.2575
H18_18 H 0.1983 0.7907 0.2984
H19_18 H 0.1796 0.7993 0.2505
O2_18 O 0.92770(28) 0.74336(19) 0.35185(15)
H1_15 H 0.9090 0.7442 0.3298
H2_18 H 0.9047 0.7160 0.3680
O4_18 O 0.9762(3) 0.8917(2) 0.42143(18)
H3_18 H 0.9587 0.9067 0.4094
H4_18 H 0.9657 0.8860 0.4481
O6_14 O 0.9406(6) 0.6423(4) 0.3554(5)
H5_14 H 0.9078 0.6244 0.3440
H6_14 H 0.9375 0.6426 0.3832
O14_15 O 0.9435(5) 0.6900(3) 0.2766(2)
H20_15 H 0.9623 0.6903 0.2542
H21_11 H 0.9130 0.6587 0.2804
Ni6_8 Ni 0.60948(6) 0.92421(7) 0.99596(6)
H1_16 H 0.5891 0.8314 0.9965
O3_16 O 0.5289(3) 0.8852(3) 0.9642(2)
O7_16 O 0.2322(3) 0.7862(3) 0.9586(2)
O8_16 O 0.3916(3) 0.8926(2) 0.85449(17)
C1_16 C 0.4790(4) 0.8490(4) 0.9800(3)
C2_16 C 0.4291(4) 0.8489(3) 0.9568(3)
C3_16 C 0.3759(3) 0.8201(3) 0.9766(3)
C4_16 C 0.3298(4) 0.8179(3) 0.9570(3)
C5_16 C 0.3359(4) 0.8433(3) 0.9158(3)
H8_16 H 0.3042 0.8413 0.9011
C6_16 C 0.3890(5) 0.8713(3) 0.8970(3)
C7_16 C 0.4341(4) 0.8743(3) 0.9166(3)
H9_16 H 0.4701 0.8942 0.9027
C8_16 C 0.2721(4) 0.7882(4) 0.9795(3)
C9_16 C 0.4227(3) 0.9529(4) 0.8521(3)
C10_16 C 0.4187(3) 0.9870(4) 0.8840(3)
H10_16 H 0.3961 0.9711 0.9096
C14_16 C 0.4541(3) 0.9738(3) 0.8133(3)
H12_16 H 0.4547 0.9490 0.7916
H13_16 H 0.5565 0.9868 0.9707
O14_16 O 0.6433(3) 0.9201(4) 0.9433(2)
H20_16 H 0.6430 0.9386 0.9209
H21_12 H 0.6746 0.9209 0.9471
Ni6_9 Ni 0.07579(7) 0.68527(9) 0.99596(6)
H1_17 H 0.1686 0.7577 0.9965
O3_17 O 0.1148(3) 0.6437(4) 0.9642(2)
O7_17 O 0.2138(3) 0.4460(4) 0.9586(2)
O8_17 O 0.1074(2) 0.4990(4) 0.85449(17)
C1_17 C 0.1510(4) 0.6300(6) 0.9800(3)
C2_17 C 0.1511(3) 0.5802(5) 0.9568(3)
C3_17 C 0.1799(3) 0.5558(4) 0.9766(3)
C4_17 C 0.1821(3) 0.5119(5) 0.9570(3)
C5_17 C 0.1567(3) 0.4926(5) 0.9158(3)
H8_17 H 0.1587 0.4629 0.9011
C6_17 C 0.1287(3) 0.5177(6) 0.8970(3)
C7_17 C 0.1257(3) 0.5598(5) 0.9166(3)
H9_17 H 0.1058 0.5759 0.9027
C8_17 C 0.2118(4) 0.4839(6) 0.9795(3)
C9_17 C 0.0471(4) 0.4698(5) 0.8521(3)
C10_17 C 0.0130(4) 0.4317(5) 0.8840(3)
H10_17 H 0.0289 0.4250 0.9096
C14_17 C 0.0262(3) 0.4803(4) 0.8133(3)
H12_17 H 0.0510 0.5057 0.7916
H13_17 H 0.0132 0.5697 0.9707
O14_17 O 0.0799(4) 0.7232(5) 0.9433(2)
H20_17 H 0.0614 0.7044 0.9209
H21_13 H 0.0791 0.7537 0.9471
H1_18 H 0.8314 0.2423 0.0035
O3_18 O 0.8852(3) 0.3563(4) 0.0358(2)
O7_18 O 0.7862(3) 0.5540(4) 0.0414(2)
O8_18 O 0.8926(2) 0.5010(4) 0.14551(17)
C1_18 C 0.8490(4) 0.3700(6) 0.0200(3)
C2_18 C 0.8489(3) 0.4198(5) 0.0432(3)
C3_18 C 0.8201(3) 0.4442(4) 0.0234(3)
C4_18 C 0.8179(3) 0.4881(5) 0.0430(3)
C5_18 C 0.8433(3) 0.5074(5) 0.0842(3)
H8_18 H 0.8413 0.5371 0.0989
C6_18 C 0.8713(3) 0.4823(6) 0.1030(3)
C7_18 C 0.8743(3) 0.4402(5) 0.0834(3)
H9_18 H 0.8942 0.4241 0.0973
C8_18 C 0.7882(4) 0.5161(6) 0.0205(3)
C9_18 C 0.9529(4) 0.5302(5) 0.1479(3)
C10_18 C 0.9870(4) 0.5683(5) 0.1160(3)
H10_18 H 0.9711 0.5750 0.0904
C14_18 C 0.9738(3) 0.5197(4) 0.1867(3)
H12_18 H 0.9490 0.4943 0.2084
H13_18 H 0.9868 0.4303 0.0293
Ni2_9 Ni 0.92421(7) 0.31473(9) 0.00404(6)
O14_18 O 0.9201(4) 0.2768(5) 0.0567(2)
H20_18 H 0.9386 0.2956 0.0791
H21_14 H 0.9209 0.2463 0.0529
O6_15 O 0.9757(4) 0.3684(5) 0.3112(5)
H5_15 H 0.9578 0.3833 0.3226
H6_15 H 0.9760 0.3718 0.2834
H15_15 H 0.9909 0.2489 0.4230
H16_15 H 0.9777 0.2203 0.3753
H21_15 H 0.9921 0.4124 0.3862
O6_16 O 0.3928(6) 0.0243(4) 0.3112(5)
H5_16 H 0.4256 0.0422 0.3226
H6_16 H 0.3959 0.0240 0.2834
H15_16 H 0.2581 0.0091 0.4230
H16_16 H 0.2427 0.0223 0.3753
H21_16 H 0.4204 0.0079 0.3862
O6_17 O 0.0243(4) 0.6316(5) 0.6888(5)
H5_17 H 0.0422 0.6167 0.6774
H6_17 H 0.0240 0.6282 0.7166
H15_17 H 0.0091 0.7511 0.5770
H16_17 H 0.0223 0.7797 0.6247
H21_17 H 0.0079 0.5876 0.6138
O6_18 O 0.6072(6) 0.9757(4) 0.6888(5)
H5_18 H 0.5744 0.9578 0.6774
H6_18 H 0.6041 0.9760 0.7166
H15_18 H 0.7419 0.9909 0.5770
H16_18 H 0.7573 0.9777 0.6247
H21_18 H 0.5796 0.9921 0.6138
loop_
_geom_bond_atom_site_label_1
_geom_bond_atom_site_label_2
_geom_bond_site_symmetry_1
_geom_bond_site_symmetry_2
O3 C1 1_555 1_555
O7 C8 1_555 1_555
O8 C6 1_555 1_555
C1 C2 1_555 1_555
C2 C3 1_555 1_555
C4 C3 1_555 1_555
C5 C4 1_555 1_555
H8 C5 1_555 1_555
C6 C5 1_555 1_555
C7 C2 1_555 1_555
H9 C7 1_555 1_555
C8 C4 1_555 1_555
C9 O8 1_555 1_555
C10 C9 1_555 1_555
H10 C10 1_555 1_555
C14 C9 1_555 1_555
H12 C14 1_555 1_555
O14 Ni2 1_555 1_555
H20 O14 1_555 1_555
H21 O14 1_555 1_555
O3 Ni2 1_555 1_555
C6 C7 1_555 1_555
H2 O2 1_555 1_555
O4 H3 1_555 1_555
H4 O4 1_555 1_555
O6 H5 1_555 1_555
H6 O6 1_555 1_555
Ni1 O1 1_555 1_555
O15 Ni1 1_555 1_555
O17 Ni1 1_555 1_555
O18 Ni1 1_555 1_555
Ni3 O5 1_555 1_555
O2 Ni1 1_555 1_555
O4 Ni1 1_555 1_555
N1 C17 1_555 1_555
O9 C15 1_555 1_555
O10 C15 1_555 1_555
O11 C16 1_555 1_555
O12 C16 1_555 1_555
O13 C17 1_555 1_555
C12 C11 1_555 1_555
H11 C12 1_555 1_555
C13 C12 1_555 1_555
C15 C11 1_555 1_555
C16 C13 1_555 1_555
C18 N1 1_555 1_555
H14 C18 1_555 1_555
H15 C18 1_555 1_555
H16 C18 1_555 1_555
C19 N1 1_555 1_555
H17 C19 1_555 1_555
H18 C19 1_555 1_555
H19 C19 1_555 1_555
Ni4 O11 1_555 1_555
Ni5 O10 1_555 1_555
N1_2 C17_2 1_555 1_555
O9_2 C15_2 1_555 1_555
O10_2 C15_2 1_555 1_555
O11_2 C16_2 1_555 1_555
O12_2 C16_2 1_555 1_555
O13_2 C17_2 1_555 1_555
C12_2 C11_2 1_555 1_555
H11_2 C12_2 1_555 1_555
C13_2 C12_2 1_555 1_555
C15_2 C11_2 1_555 1_555
C16_2 C13_2 1_555 1_555
C18_2 N1_2 1_555 1_555
H14_2 C18_2 1_555 1_555
H15_2 C18_2 1_555 1_555
H16_2 C18_2 1_555 1_555
C19_2 N1_2 1_555 1_555
H17_2 C19_2 1_555 1_555
H18_2 C19_2 1_555 1_555
H19_2 C19_2 1_555 1_555
Ni4_2 O11_2 1_555 1_555
Ni5_2 O10_2 1_555 1_555
H2_2 O2_2 1_555 1_555
O4_2 H3_2 1_555 1_555
H4_2 O4_2 1_555 1_555
O6_2 H5_2 1_555 1_555
H6_2 O6_2 1_555 1_555
Ni3 O1_2 1_555 1_555
O17_2 Ni3 1_555 1_555
O18_2 Ni3 1_555 1_555
Ni3_2 O5_2 1_555 1_555
O2_2 Ni3 1_555 1_555
O4_2 Ni3 1_555 1_555
N1_3 C17_3 1_555 1_555
O3_2 C1_2 1_555 1_555
O7_2 C8_2 1_555 1_555
O8_2 C6_2 1_555 1_555
O9_3 C15_3 1_555 1_555
O10_3 C15_3 1_555 1_555
O11_3 C16_3 1_555 1_555
O12_3 C16_3 1_555 1_555
O13_3 C17_3 1_555 1_555
C1_2 C2_2 1_555 1_555
C2_2 C3_2 1_555 1_555
C4_2 C3_2 1_555 1_555
C5_2 C4_2 1_555 1_555
H8_2 C5_2 1_555 1_555
C6_2 C5_2 1_555 1_555
C7_2 C2_2 1_555 1_555
H9_2 C7_2 1_555 1_555
C8_2 C4_2 1_555 1_555
C9_2 O8_2 1_555 1_555
C10_2 C9_2 1_555 1_555
H10_2 C10_2 1_555 1_555
C11_3 C10_2 1_555 1_555
C12_3 C11_3 1_555 1_555
H11_3 C12_3 1_555 1_555
C13_3 C12_3 1_555 1_555
C14_2 C9_2 1_555 1_555
H12_2 C14_2 1_555 1_555
C15_3 C11_3 1_555 1_555
C16_3 C13_3 1_555 1_555
C17_3 H13_2 1_555 1_555
C18_3 N1_3 1_555 1_555
H14_3 C18_3 1_555 1_555
H15_3 C18_3 1_555 1_555
H16_3 C18_3 1_555 1_555
C19_3 N1_3 1_555 1_555
H17_3 C19_3 1_555 1_555
H18_3 C19_3 1_555 1_555
H19_3 C19_3 1_555 1_555
O14_2 Ni2_2 1_555 1_555
H20_2 O14_2 1_555 1_555
H21_2 O14_2 1_555 1_555
Ni4_3 O11_3 1_555 1_555
Ni5_3 O10_3 1_555 1_555
O3_2 Ni2_2 1_555 1_555
O13_3 Ni2_2 1_555 1_555
C6_2 C7_2 1_555 1_555
C13_3 C14_2 1_555 1_555
H2_3 O2_3 1_555 1_555
O4_3 H3_3 1_555 1_555
H4_3 O4_3 1_555 1_555
O6_3 H5_3 1_555 1_555
H6_3 O6_3 1_555 1_555
Ni3_2 O1_3 1_555 1_555
O17_3 Ni3_2 1_555 1_555
O18_3 Ni3_2 1_555 1_555
O2_3 Ni3_2 1_555 1_555
O4_3 Ni3_2 1_555 1_555
N1_4 C17_4 1_555 1_555
O1_4 C1_3 1_555 1_555
O2_4 H1_3 1_555 1_555
H2_4 O2_4 1_555 1_555
O3_3 C1_3 1_555 1_555
O4_4 H3_4 1_555 1_555
H4_4 O4_4 1_555 1_555
O5_3 C8_3 1_555 1_555
O7_3 C8_3 1_555 1_555
O8_3 C6_3 1_555 1_555
O9_4 C15_4 1_555 1_555
O10_4 C15_4 1_555 1_555
O11_4 C16_4 1_555 1_555
O12_4 C16_4 1_555 1_555
O13_4 C17_4 1_555 1_555
C1_3 C2_3 1_555 1_555
C2_3 C3_3 1_555 1_555
C3_3 H7_4 1_555 1_555
C4_3 C3_3 1_555 1_555
C5_3 C4_3 1_555 1_555
H8_3 C5_3 1_555 1_555
C6_3 C5_3 1_555 1_555
C7_3 C2_3 1_555 1_555
H9_3 C7_3 1_555 1_555
C8_3 C4_3 1_555 1_555
C9_3 O8_3 1_555 1_555
C10_3 C9_3 1_555 1_555
H10_3 C10_3 1_555 1_555
C11_4 C10_3 1_555 1_555
C12_4 C11_4 1_555 1_555
H11_4 C12_4 1_555 1_555
C13_4 C12_4 1_555 1_555
C14_3 C9_3 1_555 1_555
H12_3 C14_3 1_555 1_555
C15_4 C11_4 1_555 1_555
C16_4 C13_4 1_555 1_555
C17_4 H13_3 1_555 1_555
C18_4 N1_4 1_555 1_555
H14_4 C18_4 1_555 1_555
C19_4 N1_4 1_555 1_555
H17_4 C19_4 1_555 1_555
H18_4 C19_4 1_555 1_555
H19_4 C19_4 1_555 1_555
Ni4_2 O1_4 1_555 1_555
Ni2_3 O2_4 1_555 1_555
O14_3 Ni2_3 1_555 1_555
H20_3 O14_3 1_555 1_555
O15_2 Ni4_2 1_555 1_555
O16_4 Ni2_3 1_555 1_555
O17_4 Ni4_2 1_555 1_555
Ni4_3 O5_3 1_555 1_555
Ni4_4 O11_4 1_555 1_555
Ni5_4 O10_4 1_555 1_555
Ni6_2 O9_4 1_555 1_555
O2_4 Ni4_2 1_555 1_555
O3_3 Ni2_3 1_555 1_555
O4_4 Ni4_2 1_555 1_555
O13_4 Ni2_3 1_555 1_555
C6_3 C7_3 1_555 1_555
C13_4 C14_3 1_555 1_555
N1_5 C17_5 1_555 1_555
O1_5 C1_4 1_555 1_555
O2_5 H1_4 1_555 1_555
H2_5 O2_5 1_555 1_555
O3_4 C1_4 1_555 1_555
O4_5 H3_5 1_555 1_555
H4_5 O4_5 1_555 1_555
O5_4 C8_4 1_555 1_555
O6_4 H5_4 1_555 1_555
H6_4 O6_4 1_555 1_555
O7_4 C8_4 1_555 1_555
O8_4 C6_4 1_555 1_555
O9_5 C15_5 1_555 1_555
O10_5 C15_5 1_555 1_555
O11_5 C16_5 1_555 1_555
O12_5 C16_5 1_555 1_555
O13_5 C17_5 1_555 1_555
C1_4 C2_4 1_555 1_555
C2_4 C3_4 1_555 1_555
C3_4 H7_5 1_555 1_555
C4_4 C3_4 1_555 1_555
C5_4 C4_4 1_555 1_555
H8_4 C5_4 1_555 1_555
C6_4 C5_4 1_555 1_555
C7_4 C2_4 1_555 1_555
H9_4 C7_4 1_555 1_555
C8_4 C4_4 1_555 1_555
C9_4 O8_4 1_555 1_555
C10_4 C9_4 1_555 1_555
H10_4 C10_4 1_555 1_555
C11_5 C10_4 1_555 1_555
C12_5 C11_5 1_555 1_555
H11_5 C12_5 1_555 1_555
C13_5 C12_5 1_555 1_555
C14_4 C9_4 1_555 1_555
H12_4 C14_4 1_555 1_555
C15_5 C11_5 1_555 1_555
C16_5 C13_5 1_555 1_555
C17_5 H13_4 1_555 1_555
C18_5 N1_5 1_555 1_555
H14_5 C18_5 1_555 1_555
H15_4 C18_5 1_555 1_555
H16_4 C18_5 1_555 1_555
C19_5 N1_5 1_555 1_555
H17_5 C19_5 1_555 1_555
H18_5 C19_5 1_555 1_555
H19_5 C19_5 1_555 1_555
Ni4_3 O1_5 1_555 1_555
Ni2_4 O2_5 1_555 1_555
O14_4 Ni2_4 1_555 1_555
H20_4 O14_4 1_555 1_555
H21_3 O14_4 1_555 1_555
O16_5 Ni2_4 1_555 1_555
O17_5 Ni4_3 1_555 1_555
Ni4 O5_4 1_555 1_555
Ni4_5 O11_5 1_555 1_555
O2_5 Ni4_3 1_555 1_555
O3_4 Ni2_4 1_555 1_555
O4_5 Ni4_3 1_555 1_555
O6_4 Ni2_4 1_555 1_555
O13_5 Ni2_4 1_555 1_555
C6_4 C7_4 1_555 1_555
C13_5 C14_4 1_555 1_555
N1_6 C17_6 1_555 1_555
O1_6 C1_5 1_555 1_555
O2_6 H1_5 1_555 1_555
H2_6 O2_6 1_555 1_555
O3_5 C1_5 1_555 1_555
O4_6 H3_6 1_555 1_555
H4_6 O4_6 1_555 1_555
O15_2 C8_5 1_555 1_555
O7_5 C8_5 1_555 1_555
O8_5 C6_5 1_555 1_555
O9_6 C15_6 1_555 1_555
O10_6 C15_6 1_555 1_555
O11_6 C16_6 1_555 1_555
O12_6 C16_6 1_555 1_555
O13_6 C17_6 1_555 1_555
C1_5 C2_5 1_555 1_555
C2_5 C3_5 1_555 1_555
C3_5 H7_6 1_555 1_555
C4_5 C3_5 1_555 1_555
C5_5 C4_5 1_555 1_555
H8_5 C5_5 1_555 1_555
C6_5 C5_5 1_555 1_555
C7_5 C2_5 1_555 1_555
H9_5 C7_5 1_555 1_555
C8_5 C4_5 1_555 1_555
C9_5 O8_5 1_555 1_555
C10_5 C9_5 1_555 1_555
H10_5 C10_5 1_555 1_555
C11_6 C10_5 1_555 1_555
C12_6 C11_6 1_555 1_555
H11_6 C12_6 1_555 1_555
C13_6 C12_6 1_555 1_555
C14_5 C9_5 1_555 1_555
H12_5 C14_5 1_555 1_555
C15_6 C11_6 1_555 1_555
C16_6 C13_6 1_555 1_555
C17_6 H13_5 1_555 1_555
C18_6 N1_6 1_555 1_555
H14_6 C18_6 1_555 1_555
C19_6 N1_6 1_555 1_555
H17_6 C19_6 1_555 1_555
H18_6 C19_6 1_555 1_555
H19_6 C19_6 1_555 1_555
Ni4 O1_6 1_555 1_555
Ni2_5 O2_6 1_555 1_555
O14_5 Ni2_5 1_555 1_555
H20_5 O14_5 1_555 1_555
O16_6 Ni2_5 1_555 1_555
O17_6 Ni4 1_555 1_555
Ni4_6 O11_6 1_555 1_555
O2_6 Ni4 1_555 1_555
O3_5 Ni2_5 1_555 1_555
O4_6 Ni4 1_555 1_555
O13_6 Ni2_5 1_555 1_555
C6_5 C7_5 1_555 1_555
C13_6 C14_5 1_555 1_555
O5_5 C8_6 1_555 1_555
O7_6 C8_6 1_555 1_555
C8_6 C4_6 1_555 1_555
Ni4_6 O5_5 1_555 1_555
N1_7 C17_7 1_555 1_555
O1_7 C1_6 1_555 1_555
O2_7 H1_6 1_555 1_555
H2_7 O2_7 1_555 1_555
O3_6 C1_6 1_555 1_555
O4_7 H3_7 1_555 1_555
H4_7 O4_7 1_555 1_555
O6_5 H5_5 1_555 1_555
H6_5 O6_5 1_555 1_555
O8_6 C6_6 1_555 1_555
O9_7 C15_7 1_555 1_555
O10_7 C15_7 1_555 1_555
O18_3 C16_7 1_555 1_555
O12_7 C16_7 1_555 1_555
O13_7 C17_7 1_555 1_555
C1_6 C2_6 1_555 1_555
C2_6 C3_6 1_555 1_555
C3_6 H7_7 1_555 1_555
C6_6 C5_6 1_555 1_555
C7_6 C2_6 1_555 1_555
H9_6 C7_6 1_555 1_555
C9_6 O8_6 1_555 1_555
C10_6 C9_6 1_555 1_555
H10_6 C10_6 1_555 1_555
C11_7 C10_6 1_555 1_555
C12_7 C11_7 1_555 1_555
H11_7 C12_7 1_555 1_555
C13_7 C12_7 1_555 1_555
C14_6 C9_6 1_555 1_555
H12_6 C14_6 1_555 1_555
C15_7 C11_7 1_555 1_555
C16_7 C13_7 1_555 1_555
C17_7 H13_6 1_555 1_555
C18_7 N1_7 1_555 1_555
H14_7 C18_7 1_555 1_555
H15_5 C18_7 1_555 1_555
H16_5 C18_7 1_555 1_555
C19_7 N1_7 1_555 1_555
H17_7 C19_7 1_555 1_555
H18_7 C19_7 1_555 1_555
H19_7 C19_7 1_555 1_555
Ni4_5 O1_7 1_555 1_555
Ni2_6 O2_7 1_555 1_555
O14_6 Ni2_6 1_555 1_555
H20_6 O14_6 1_555 1_555
H21_4 O14_6 1_555 1_555
O15_3 Ni4_5 1_555 1_555
O16_7 Ni2_6 1_555 1_555
O17_7 Ni4_5 1_555 1_555
Ni5_7 O10_7 1_555 1_555
Ni6_5 O9_7 1_555 1_555
O2_7 Ni4_5 1_555 1_555
O3_6 Ni2_6 1_555 1_555
O4_7 Ni4_5 1_555 1_555
O6_5 Ni2_6 1_555 1_555
O13_7 Ni2_6 1_555 1_555
C6_6 C7_6 1_555 1_555
C13_7 C14_6 1_555 1_555
N1_8 C17_8 1_555 1_555
O1_8 C1_7 1_555 1_555
O3_7 C1_7 1_555 1_555
O5_6 C8_7 1_555 1_555
O7_7 C8_7 1_555 1_555
O8_7 C6_7 1_555 1_555
O9_8 C15_8 1_555 1_555
O10_8 C15_8 1_555 1_555
O18 C16_8 1_555 1_555
O12_8 C16_8 1_555 1_555
O13_8 C17_8 1_555 1_555
C1_7 C2_7 1_555 1_555
C2_7 C3_7 1_555 1_555
C3_7 H7_8 1_555 1_555
C4_7 C3_7 1_555 1_555
C5_7 C4_7 1_555 1_555
H8_7 C5_7 1_555 1_555
C6_7 C5_7 1_555 1_555
C7_7 C2_7 1_555 1_555
H9_7 C7_7 1_555 1_555
C8_7 C4_7 1_555 1_555
C9_7 O8_7 1_555 1_555
C10_7 C9_7 1_555 1_555
H10_7 C10_7 1_555 1_555
C11_8 C10_7 1_555 1_555
C12_8 C11_8 1_555 1_555
H11_8 C12_8 1_555 1_555
C13_8 C12_8 1_555 1_555
C14_7 C9_7 1_555 1_555
H12_7 C14_7 1_555 1_555
C15_8 C11_8 1_555 1_555
C16_8 C13_8 1_555 1_555
C17_8 H13_7 1_555 1_555
C18_8 N1_8 1_555 1_555
H14_8 C18_8 1_555 1_555
H15_6 C18_8 1_555 1_555
H16_6 C18_8 1_555 1_555
C19_8 N1_8 1_555 1_555
H17_8 C19_8 1_555 1_555
H18_8 C19_8 1_555 1_555
H19_8 C19_8 1_555 1_555
Ni4_4 O5_6 1_555 1_555
Ni5_8 O10_8 1_555 1_555
Ni6_6 O9_8 1_555 1_555
C6_7 C7_7 1_555 1_555
C13_8 C14_7 1_555 1_555
O2_8 H1_7 1_555 1_555
H2_8 O2_8 1_555 1_555
O4_8 H3_8 1_555 1_555
H4_8 O4_8 1_555 1_555
O6_6 H5_6 1_555 1_555
H6_6 O6_6 1_555 1_555
Ni2_7 O2_8 1_555 1_555
O14_7 Ni2_7 1_555 1_555
H20_7 O14_7 1_555 1_555
H21_5 O14_7 1_555 1_555
O2_8 Ni4_6 1_555 1_555
O4_8 Ni4_6 1_555 1_555
O6_6 Ni2_7 1_555 1_555
O2_9 H1_8 1_555 1_555
H2_9 O2_9 1_555 1_555
O4_9 H3_9 1_555 1_555
H4_9 O4_9 1_555 1_555
O6_7 H5_7 1_555 1_555
H6_7 O6_7 1_555 1_555
Ni2_8 O2_9 1_555 1_555
O14_8 Ni2_8 1_555 1_555
H20_8 O14_8 1_555 1_555
H21_6 O14_8 1_555 1_555
O2_9 Ni4_4 1_555 1_555
O4_9 Ni4_4 1_555 1_555
O6_7 Ni2_8 1_555 1_555
N1_9 C17_9 1_555 1_555
O1_9 C1_8 1_555 1_555
O3_8 C1_8 1_555 1_555
O8_8 C6_8 1_555 1_555
O9_9 C15_9 1_555 1_555
O10_9 C15_9 1_555 1_555
O18_2 C16_9 1_555 1_555
O12_9 C16_9 1_555 1_555
O13_9 C17_9 1_555 1_555
C1_8 C2_8 1_555 1_555
C2_8 C3_8 1_555 1_555
C3_8 H7_9 1_555 1_555
C6_8 C5_8 1_555 1_555
C7_8 C2_8 1_555 1_555
H9_8 C7_8 1_555 1_555
C9_8 O8_8 1_555 1_555
C10_8 C9_8 1_555 1_555
H10_8 C10_8 1_555 1_555
C11_9 C10_8 1_555 1_555
C12_9 C11_9 1_555 1_555
H11_9 C12_9 1_555 1_555
C13_9 C12_9 1_555 1_555
C14_8 C9_8 1_555 1_555
H12_8 C14_8 1_555 1_555
C15_9 C11_9 1_555 1_555
C16_9 C13_9 1_555 1_555
C17_9 H13_8 1_555 1_555
C18_9 N1_9 1_555 1_555
H14_9 C18_9 1_555 1_555
H15_7 C18_9 1_555 1_555
H16_7 C18_9 1_555 1_555
C19_9 N1_9 1_555 1_555
H17_9 C19_9 1_555 1_555
H18_9 C19_9 1_555 1_555
H19_9 C19_9 1_555 1_555
Ni5_9 O10_9 1_555 1_555
Ni6_7 O9_9 1_555 1_555
C6_8 C7_8 1_555 1_555
C13_9 C14_8 1_555 1_555
O15_3 C8_8 1_555 1_555
O7_8 C8_8 1_555 1_555
C8_8 C4_8 1_555 1_555
N1_10 C17_10 1_555 1_555
O16 C15_10 1_555 1_555
O17 C15_10 1_555 1_555
O11_7 C16_10 1_555 1_555
O12_10 C16_10 1_555 1_555
O13_10 C17_10 1_555 1_555
C12_10 C11_10 1_555 1_555
H11_10 C12_10 1_555 1_555
C13_10 C12_10 1_555 1_555
C15_10 C11_10 1_555 1_555
C16_10 C13_10 1_555 1_555
C18_10 N1_10 1_555 1_555
H14_10 C18_10 1_555 1_555
H15_8 C18_10 1_555 1_555
H16_8 C18_10 1_555 1_555
C19_10 N1_10 1_555 1_555
H17_10 C19_10 1_555 1_555
H18_10 C19_10 1_555 1_555
H19_10 C19_10 1_555 1_555
Ni5_9 O11_7 1_555 1_555
H2_10 O2_10 1_555 1_555
O4_10 H3_10 1_555 1_555
H4_10 O4_10 1_555 1_555
O6_8 H5_8 1_555 1_555
H6_8 O6_8 1_555 1_555
Ni5 O1_10 1_555 1_555
O15_4 Ni5 1_555 1_555
O18_4 Ni5 1_555 1_555
Ni5_2 O5_7 1_555 1_555
O2_10 Ni5 1_555 1_555
O4_10 Ni5 1_555 1_555
H2_11 O2_11 1_555 1_555
O4_11 H3_11 1_555 1_555
H4_11 O4_11 1_555 1_555
O6_9 H5_9 1_555 1_555
H6_9 O6_9 1_555 1_555
Ni5_2 O1_11 1_555 1_555
O18_5 Ni5_2 1_555 1_555
Ni5_3 O5_8 1_555 1_555
O2_11 Ni5_2 1_555 1_555
O4_11 Ni5_2 1_555 1_555
N1_11 C17_11 1_555 1_555
O16_2 C15_11 1_555 1_555
O17_2 C15_11 1_555 1_555
O11_8 C16_11 1_555 1_555
O12_11 C16_11 1_555 1_555
O13_11 C17_11 1_555 1_555
C12_11 C11_11 1_555 1_555
H11_11 C12_11 1_555 1_555
C13_11 C12_11 1_555 1_555
C15_11 C11_11 1_555 1_555
C16_11 C13_11 1_555 1_555
C18_11 N1_11 1_555 1_555
H14_11 C18_11 1_555 1_555
H15_9 C18_11 1_555 1_555
H16_9 C18_11 1_555 1_555
C19_11 N1_11 1_555 1_555
H17_11 C19_11 1_555 1_555
H18_11 C19_11 1_555 1_555
H19_11 C19_11 1_555 1_555
Ni5_7 O11_8 1_555 1_555
H2_12 O2_12 1_555 1_555
O4_12 H3_12 1_555 1_555
H4_12 O4_12 1_555 1_555
O6_10 H5_10 1_555 1_555
H6_10 O6_10 1_555 1_555
Ni5_3 O1_12 1_555 1_555
O18_6 Ni5_3 1_555 1_555
O2_12 Ni5_3 1_555 1_555
O4_12 Ni5_3 1_555 1_555
N1_12 C17_12 1_555 1_555
O3_9 C1_9 1_555 1_555
O7_9 C8_9 1_555 1_555
O8_9 C6_9 1_555 1_555
O16_3 C15_12 1_555 1_555
O17_3 C15_12 1_555 1_555
O11_9 C16_12 1_555 1_555
O12_12 C16_12 1_555 1_555
O13_12 C17_12 1_555 1_555
C1_9 C2_9 1_555 1_555
C2_9 C3_9 1_555 1_555
C4_9 C3_9 1_555 1_555
C5_9 C4_9 1_555 1_555
H8_9 C5_9 1_555 1_555
C6_9 C5_9 1_555 1_555
C7_9 C2_9 1_555 1_555
H9_9 C7_9 1_555 1_555
C8_9 C4_9 1_555 1_555
C9_9 O8_9 1_555 1_555
C10_9 C9_9 1_555 1_555
H10_9 C10_9 1_555 1_555
C11_12 C10_9 1_555 1_555
C12_12 C11_12 1_555 1_555
H11_12 C12_12 1_555 1_555
C13_12 C12_12 1_555 1_555
C14_9 C9_9 1_555 1_555
H12_9 C14_9 1_555 1_555
C15_12 C11_12 1_555 1_555
C16_12 C13_12 1_555 1_555
C17_12 H13_9 1_555 1_555
C18_12 N1_12 1_555 1_555
H14_12 C18_12 1_555 1_555
H15_10 C18_12 1_555 1_555
H16_10 C18_12 1_555 1_555
C19_12 N1_12 1_555 1_555
H17_12 C19_12 1_555 1_555
H18_12 C19_12 1_555 1_555
H19_12 C19_12 1_555 1_555
O14_9 Ni6 1_555 1_555
H20_9 O14_9 1_555 1_555
H21_7 O14_9 1_555 1_555
Ni5_8 O11_9 1_555 1_555
O3_9 Ni6 1_555 1_555
O13_12 Ni6 1_555 1_555
C6_9 C7_9 1_555 1_555
C13_12 C14_9 1_555 1_555
N1_13 C17_13 1_555 1_555
O1_13 C1_10 1_555 1_555
O2_13 H1_10 1_555 1_555
H2_13 O2_13 1_555 1_555
O3_10 C1_10 1_555 1_555
O4_13 H3_13 1_555 1_555
H4_13 O4_13 1_555 1_555
O5_9 C8_10 1_555 1_555
O7_10 C8_10 1_555 1_555
O8_10 C6_10 1_555 1_555
O16_7 C15_13 1_555 1_555
O17_7 C15_13 1_555 1_555
O11_10 C16_13 1_555 1_555
O12_13 C16_13 1_555 1_555
O13_13 C17_13 1_555 1_555
C1_10 C2_10 1_555 1_555
C2_10 C3_10 1_555 1_555
C3_10 H7_13 1_555 1_555
C4_10 C3_10 1_555 1_555
C5_10 C4_10 1_555 1_555
H8_10 C5_10 1_555 1_555
C6_10 C5_10 1_555 1_555
C7_10 C2_10 1_555 1_555
H9_10 C7_10 1_555 1_555
C8_10 C4_10 1_555 1_555
C9_10 O8_10 1_555 1_555
C10_10 C9_10 1_555 1_555
H10_10 C10_10 1_555 1_555
C11_13 C10_10 1_555 1_555
C12_13 C11_13 1_555 1_555
H11_13 C12_13 1_555 1_555
C13_13 C12_13 1_555 1_555
C14_10 C9_10 1_555 1_555
H12_10 C14_10 1_555 1_555
C15_13 C11_13 1_555 1_555
C16_13 C13_13 1_555 1_555
C17_13 H13_10 1_555 1_555
C18_13 N1_13 1_555 1_555
H14_13 C18_13 1_555 1_555
C19_13 N1_13 1_555 1_555
H17_13 C19_13 1_555 1_555
H18_13 C19_13 1_555 1_555
H19_13 C19_13 1_555 1_555
Ni5_7 O1_13 1_555 1_555
Ni6_5 O2_13 1_555 1_555
O14_10 Ni6_5 1_555 1_555
H20_10 O14_10 1_555 1_555
O15_5 Ni5_7 1_555 1_555
Ni5_8 O5_9 1_555 1_555
Ni5_6 O11_10 1_555 1_555
O2_13 Ni5_7 1_555 1_555
O3_10 Ni6_5 1_555 1_555
O4_13 Ni5_7 1_555 1_555
O13_13 Ni6_5 1_555 1_555
C6_10 C7_10 1_555 1_555
C13_13 C14_10 1_555 1_555
N1_14 C17_14 1_555 1_555
O1_14 C1_11 1_555 1_555
O2_14 H1_11 1_555 1_555
H2_14 O2_14 1_555 1_555
O3_11 C1_11 1_555 1_555
O4_14 H3_14 1_555 1_555
H4_14 O4_14 1_555 1_555
O5_10 C8_11 1_555 1_555
O6_11 H5_11 1_555 1_555
H6_11 O6_11 1_555 1_555
O7_11 C8_11 1_555 1_555
O8_11 C6_11 1_555 1_555
O16_8 C15_14 1_555 1_555
O17_8 C15_14 1_555 1_555
O11_11 C16_14 1_555 1_555
O12_14 C16_14 1_555 1_555
O13_14 C17_14 1_555 1_555
C1_11 C2_11 1_555 1_555
C2_11 C3_11 1_555 1_555
C3_11 H7_14 1_555 1_555
C4_11 C3_11 1_555 1_555
C5_11 C4_11 1_555 1_555
H8_11 C5_11 1_555 1_555
C6_11 C5_11 1_555 1_555
C7_11 C2_11 1_555 1_555
H9_11 C7_11 1_555 1_555
C8_11 C4_11 1_555 1_555
C9_11 O8_11 1_555 1_555
C10_11 C9_11 1_555 1_555
H10_11 C10_11 1_555 1_555
C11_14 C10_11 1_555 1_555
C12_14 C11_14 1_555 1_555
H11_14 C12_14 1_555 1_555
C13_14 C12_14 1_555 1_555
C14_11 C9_11 1_555 1_555
H12_11 C14_11 1_555 1_555
C15_14 C11_14 1_555 1_555
C16_14 C13_14 1_555 1_555
C17_14 H13_11 1_555 1_555
C18_14 N1_14 1_555 1_555
H14_14 C18_14 1_555 1_555
H15_11 C18_14 1_555 1_555
H16_11 C18_14 1_555 1_555
C19_14 N1_14 1_555 1_555
H17_14 C19_14 1_555 1_555
H18_14 C19_14 1_555 1_555
H19_14 C19_14 1_555 1_555
Ni5_8 O1_14 1_555 1_555
Ni6_6 O2_14 1_555 1_555
O14_11 Ni6_6 1_555 1_555
H20_11 O14_11 1_555 1_555
H21_8 O14_11 1_555 1_555
Ni5_9 O5_10 1_555 1_555
Ni5_4 O11_11 1_555 1_555
O2_14 Ni5_8 1_555 1_555
O3_11 Ni6_6 1_555 1_555
O4_14 Ni5_8 1_555 1_555
O6_11 Ni6_6 1_555 1_555
O13_14 Ni6_6 1_555 1_555
C6_11 C7_11 1_555 1_555
C13_14 C14_11 1_555 1_555
N1_15 C17_15 1_555 1_555
O1_15 C1_12 1_555 1_555
O2_15 H1_12 1_555 1_555
H2_15 O2_15 1_555 1_555
O3_12 C1_12 1_555 1_555
O4_15 H3_15 1_555 1_555
H4_15 O4_15 1_555 1_555
O15_5 C8_12 1_555 1_555
O7_12 C8_12 1_555 1_555
O8_12 C6_12 1_555 1_555
O16_9 C15_15 1_555 1_555
O17_9 C15_15 1_555 1_555
O11_12 C16_15 1_555 1_555
O12_15 C16_15 1_555 1_555
O13_15 C17_15 1_555 1_555
C1_12 C2_12 1_555 1_555
C2_12 C3_12 1_555 1_555
C3_12 H7_15 1_555 1_555
C4_12 C3_12 1_555 1_555
C5_12 C4_12 1_555 1_555
H8_12 C5_12 1_555 1_555
C6_12 C5_12 1_555 1_555
C7_12 C2_12 1_555 1_555
H9_12 C7_12 1_555 1_555
C8_12 C4_12 1_555 1_555
C9_12 O8_12 1_555 1_555
C10_12 C9_12 1_555 1_555
H10_12 C10_12 1_555 1_555
C11_15 C10_12 1_555 1_555
C12_15 C11_15 1_555 1_555
H11_15 C12_15 1_555 1_555
C13_15 C12_15 1_555 1_555
C14_12 C9_12 1_555 1_555
H12_12 C14_12 1_555 1_555
C15_15 C11_15 1_555 1_555
C16_15 C13_15 1_555 1_555
C17_15 H13_12 1_555 1_555
C18_15 N1_15 1_555 1_555
H14_15 C18_15 1_555 1_555
C19_15 N1_15 1_555 1_555
H17_15 C19_15 1_555 1_555
H18_15 C19_15 1_555 1_555
H19_15 C19_15 1_555 1_555
Ni5_9 O1_15 1_555 1_555
Ni6_7 O2_15 1_555 1_555
O14_12 Ni6_7 1_555 1_555
H20_12 O14_12 1_555 1_555
Ni5_5 O11_12 1_555 1_555
O2_15 Ni5_9 1_555 1_555
O3_12 Ni6_7 1_555 1_555
O4_15 Ni5_9 1_555 1_555
O13_15 Ni6_7 1_555 1_555
C6_12 C7_12 1_555 1_555
C13_15 C14_12 1_555 1_555
N1_16 C17_16 1_555 1_555
O1_16 C1_13 1_555 1_555
O2_16 H1_13 1_555 1_555
H2_16 O2_16 1_555 1_555
O3_13 C1_13 1_555 1_555
O4_16 H3_16 1_555 1_555
H4_16 O4_16 1_555 1_555
O6_12 H5_12 1_555 1_555
H6_12 O6_12 1_555 1_555
O8_13 C6_13 1_555 1_555
O16_4 C15_16 1_555 1_555
O17_4 C15_16 1_555 1_555
O18_6 C16_16 1_555 1_555
O12_16 C16_16 1_555 1_555
O13_16 C17_16 1_555 1_555
C1_13 C2_13 1_555 1_555
C2_13 C3_13 1_555 1_555
C3_13 H7_16 1_555 1_555
C6_13 C5_13 1_555 1_555
C7_13 C2_13 1_555 1_555
H9_13 C7_13 1_555 1_555
C9_13 O8_13 1_555 1_555
C10_13 C9_13 1_555 1_555
H10_13 C10_13 1_555 1_555
C11_16 C10_13 1_555 1_555
C12_16 C11_16 1_555 1_555
H11_16 C12_16 1_555 1_555
C13_16 C12_16 1_555 1_555
C14_13 C9_13 1_555 1_555
H12_13 C14_13 1_555 1_555
C15_16 C11_16 1_555 1_555
C16_16 C13_16 1_555 1_555
C17_16 H13_13 1_555 1_555
C18_16 N1_16 1_555 1_555
H14_16 C18_16 1_555 1_555
H15_12 C18_16 1_555 1_555
H16_12 C18_16 1_555 1_555
C19_16 N1_16 1_555 1_555
H17_16 C19_16 1_555 1_555
H18_16 C19_16 1_555 1_555
H19_16 C19_16 1_555 1_555
Ni5_4 O1_16 1_555 1_555
Ni6_2 O2_16 1_555 1_555
O14_13 Ni6_2 1_555 1_555
H20_13 O14_13 1_555 1_555
H21_9 O14_13 1_555 1_555
O15_6 Ni5_4 1_555 1_555
O2_16 Ni5_4 1_555 1_555
O3_13 Ni6_2 1_555 1_555
O4_16 Ni5_4 1_555 1_555
O6_12 Ni6_2 1_555 1_555
O13_16 Ni6_2 1_555 1_555
C6_13 C7_13 1_555 1_555
C13_16 C14_13 1_555 1_555
O5_11 C8_13 1_555 1_555
O7_13 C8_13 1_555 1_555
C8_13 C4_13 1_555 1_555
Ni5_5 O5_11 1_555 1_555
O2_17 H1_14 1_555 1_555
H2_17 O2_17 1_555 1_555
O4_17 H3_17 1_555 1_555
H4_17 O4_17 1_555 1_555
O6_13 H5_13 1_555 1_555
H6_13 O6_13 1_555 1_555
Ni6_3 O2_17 1_555 1_555
O14_14 Ni6_3 1_555 1_555
H20_14 O14_14 1_555 1_555
H21_10 O14_14 1_555 1_555
O2_17 Ni5_5 1_555 1_555
O4_17 Ni5_5 1_555 1_555
O6_13 Ni6_3 1_555 1_555
N1_17 C17_17 1_555 1_555
O1_17 C1_14 1_555 1_555
O3_14 C1_14 1_555 1_555
O5_12 C8_14 1_555 1_555
O7_14 C8_14 1_555 1_555
O8_14 C6_14 1_555 1_555
O16_5 C15_17 1_555 1_555
O17_5 C15_17 1_555 1_555
O18_4 C16_17 1_555 1_555
O12_17 C16_17 1_555 1_555
O13_17 C17_17 1_555 1_555
C1_14 C2_14 1_555 1_555
C2_14 C3_14 1_555 1_555
C3_14 H7_17 1_555 1_555
C4_14 C3_14 1_555 1_555
C5_14 C4_14 1_555 1_555
H8_14 C5_14 1_555 1_555
C6_14 C5_14 1_555 1_555
C7_14 C2_14 1_555 1_555
H9_14 C7_14 1_555 1_555
C8_14 C4_14 1_555 1_555
C9_14 O8_14 1_555 1_555
C10_14 C9_14 1_555 1_555
H10_14 C10_14 1_555 1_555
C11_17 C10_14 1_555 1_555
C12_17 C11_17 1_555 1_555
H11_17 C12_17 1_555 1_555
C13_17 C12_17 1_555 1_555
C14_14 C9_14 1_555 1_555
H12_14 C14_14 1_555 1_555
C15_17 C11_17 1_555 1_555
C16_17 C13_17 1_555 1_555
C17_17 H13_14 1_555 1_555
C18_17 N1_17 1_555 1_555
H14_17 C18_17 1_555 1_555
H15_13 C18_17 1_555 1_555
H16_13 C18_17 1_555 1_555
C19_17 N1_17 1_555 1_555
H17_17 C19_17 1_555 1_555
H18_17 C19_17 1_555 1_555
H19_17 C19_17 1_555 1_555
Ni5_6 O5_12 1_555 1_555
C6_14 C7_14 1_555 1_555
C13_17 C14_14 1_555 1_555
O15_6 C8_15 1_555 1_555
O7_15 C8_15 1_555 1_555
C8_15 C4_15 1_555 1_555
N1_18 C17_18 1_555 1_555
O1_18 C1_15 1_555 1_555
O3_15 C1_15 1_555 1_555
O8_15 C6_15 1_555 1_555
O16_6 C15_18 1_555 1_555
O17_6 C15_18 1_555 1_555
O18_5 C16_18 1_555 1_555
O12_18 C16_18 1_555 1_555
O13_18 C17_18 1_555 1_555
C1_15 C2_15 1_555 1_555
C2_15 C3_15 1_555 1_555
C3_15 H7_18 1_555 1_555
C6_15 C5_15 1_555 1_555
C7_15 C2_15 1_555 1_555
H9_15 C7_15 1_555 1_555
C9_15 O8_15 1_555 1_555
C10_15 C9_15 1_555 1_555
H10_15 C10_15 1_555 1_555
C11_18 C10_15 1_555 1_555
C12_18 C11_18 1_555 1_555
H11_18 C12_18 1_555 1_555
C13_18 C12_18 1_555 1_555
C14_15 C9_15 1_555 1_555
H12_15 C14_15 1_555 1_555
C15_18 C11_18 1_555 1_555
C16_18 C13_18 1_555 1_555
C17_18 H13_15 1_555 1_555
C18_18 N1_18 1_555 1_555
H14_18 C18_18 1_555 1_555
H15_14 C18_18 1_555 1_555
H16_14 C18_18 1_555 1_555
C19_18 N1_18 1_555 1_555
H17_18 C19_18 1_555 1_555
H18_18 C19_18 1_555 1_555
H19_18 C19_18 1_555 1_555
C6_15 C7_15 1_555 1_555
C13_18 C14_15 1_555 1_555
O2_18 H1_15 1_555 1_555
H2_18 O2_18 1_555 1_555
O4_18 H3_18 1_555 1_555
H4_18 O4_18 1_555 1_555
O6_14 H5_14 1_555 1_555
H6_14 O6_14 1_555 1_555
Ni6_4 O2_18 1_555 1_555
O14_15 Ni6_4 1_555 1_555
H20_15 O14_15 1_555 1_555
H21_11 O14_15 1_555 1_555
O2_18 Ni5_6 1_555 1_555
O4_18 Ni5_6 1_555 1_555
O6_14 Ni6_4 1_555 1_555
O3_16 C1_16 1_555 1_555
O7_16 C8_16 1_555 1_555
O8_16 C6_16 1_555 1_555
C1_16 C2_16 1_555 1_555
C2_16 C3_16 1_555 1_555
C4_16 C3_16 1_555 1_555
C5_16 C4_16 1_555 1_555
H8_16 C5_16 1_555 1_555
C6_16 C5_16 1_555 1_555
C7_16 C2_16 1_555 1_555
H9_16 C7_16 1_555 1_555
C8_16 C4_16 1_555 1_555
C9_16 O8_16 1_555 1_555
C10_16 C9_16 1_555 1_555
H10_16 C10_16 1_555 1_555
C14_16 C9_16 1_555 1_555
H12_16 C14_16 1_555 1_555
O14_16 Ni6_8 1_555 1_555
H20_16 O14_16 1_555 1_555
H21_12 O14_16 1_555 1_555
O3_16 Ni6_8 1_555 1_555
C6_16 C7_16 1_555 1_555
O3_17 C1_17 1_555 1_555
O7_17 C8_17 1_555 1_555
O8_17 C6_17 1_555 1_555
C1_17 C2_17 1_555 1_555
C2_17 C3_17 1_555 1_555
C4_17 C3_17 1_555 1_555
C5_17 C4_17 1_555 1_555
H8_17 C5_17 1_555 1_555
C6_17 C5_17 1_555 1_555
C7_17 C2_17 1_555 1_555
H9_17 C7_17 1_555 1_555
C8_17 C4_17 1_555 1_555
C9_17 O8_17 1_555 1_555
C10_17 C9_17 1_555 1_555
H10_17 C10_17 1_555 1_555
C14_17 C9_17 1_555 1_555
H12_17 C14_17 1_555 1_555
O14_17 Ni6_9 1_555 1_555
H20_17 O14_17 1_555 1_555
H21_13 O14_17 1_555 1_555
O3_17 Ni6_9 1_555 1_555
C6_17 C7_17 1_555 1_555
O3_18 C1_18 1_555 1_555
O7_18 C8_18 1_555 1_555
O8_18 C6_18 1_555 1_555
C1_18 C2_18 1_555 1_555
C2_18 C3_18 1_555 1_555
C4_18 C3_18 1_555 1_555
C5_18 C4_18 1_555 1_555
H8_18 C5_18 1_555 1_555
C6_18 C5_18 1_555 1_555
C7_18 C2_18 1_555 1_555
H9_18 C7_18 1_555 1_555
C8_18 C4_18 1_555 1_555
C9_18 O8_18 1_555 1_555
C10_18 C9_18 1_555 1_555
H10_18 C10_18 1_555 1_555
C14_18 C9_18 1_555 1_555
H12_18 C14_18 1_555 1_555
O14_18 Ni2_9 1_555 1_555
H20_18 O14_18 1_555 1_555
H21_14 O14_18 1_555 1_555
O3_18 Ni2_9 1_555 1_555
C6_18 C7_18 1_555 1_555
O6_15 H5_15 1_555 1_555
H6_15 O6_15 1_555 1_555
O6_16 H5_16 1_555 1_555
H6_16 O6_16 1_555 1_555
O6_17 H5_17 1_555 1_555
H6_17 O6_17 1_555 1_555
O6_18 H5_18 1_555 1_555
H6_18 O6_18 1_555 1_555

#END
