
###############################################################################
#
# This file contains modified crystal structure data generated from the
# MOF subset of the Cambridge Structural Database (CSD) v543 
# hosted by the Cambridge Crystallographic Data Centre (CCDC).
#
# This work is licensed under the Creative Commons
# Attribution-NonCommercial-ShareAlike 4.0 International License.
# To view a copy of this license, visit
# http://creativecommons.org/licenses/by-nc-sa/4.0/
# or send a letter to
# Creative Commons, PO Box 1866, Mountain View, CA 94042, USA.
#
# CIF created using the CSD Python API on 29 September 2022
# The structure has been converted into the P1 space group
# The structure has a 3D framework
# The original CSD entry DUJDAP is in the monoclinic crystal system
# The original CSD entry DUJDAP is in a Sohncke space group
# The framework has been calculated to contain at least 10.0% void space
# The void calculation uses a probe of radius 1.32A, grid spacing 0.4
#
###############################################################################

data_DUJDAP
_chemical_formula_moiety         '(C92 H64 N24 O16 Zn4)n'
_symmetry_cell_setting           triclinic
_symmetry_space_group_name_H-M   'P 1'
_symmetry_Int_Tables_number      1
_space_group_name_Hall           'P 1'
loop_
_symmetry_equiv_pos_site_id
_symmetry_equiv_pos_as_xyz
1 x,y,z
_cell_length_a                   19.7623(13)
_cell_length_b                   21.3747(14)
_cell_length_c                   8.3690(5)
_cell_angle_alpha                90
_cell_angle_beta                 112.171(5)
_cell_angle_gamma                90
_cell_volume                     3273.79
loop_
_atom_site_label
_atom_site_type_symbol
_atom_site_fract_x
_atom_site_fract_y
_atom_site_fract_z
O6 O 0.6602(4) 0.0965(4) 0.3648(8)
C24 C 0.6315(5) 0.0459(5) 0.3092(11)
C25 C 0.5636(5) 0.0448(5) 0.1469(10)
C27 C 0.5329(5) 0.1009(5) 0.0714(11)
H18 H 0.5561 0.1385 0.1158
Zn3 Zn 0.74136(4) 0.00753(5) 0.59230(9)
C8 C 0.9842(5) 0.0255(6) 0.3228(12)
H4 H 0.9739 0.0261 0.2048
O7 O 0.8186(3) 0.0292(3) 0.5127(8)
O8 O 0.8946(3) 0.0111(5) 0.7772(8)
C28 C 0.8820(5) 0.0208(5) 0.6209(12)
C29 C 0.9418(5) 0.0245(5) 0.5568(12)
C30 C 0.9290(5) 0.0255(6) 0.3822(12)
H19 H 0.8810 0.0261 0.3030
N13 N 0.7237(4) 0.0590(3) 0.7723(9)
N3 N 0.3700(5) 0.2732(5) 0.5119(13)
N4 N 0.4819(4) 0.2795(4) 0.7018(9)
N6 N 0.6856(4) 0.1324(3) 0.8955(9)
C13 C 0.5917(5) 0.3034(5) 0.9502(11)
H8 H 0.5711 0.3413 0.9628
C14 C 0.5531(5) 0.2627(5) 0.8198(11)
C15 C 0.4582(6) 0.3387(5) 0.6476(14)
H9 H 0.4850 0.3750 0.6890
C16 C 0.3934(6) 0.3368(6) 0.5309(14)
H10 H 0.3666 0.3708 0.4699
C17 C 0.4262(5) 0.2408(6) 0.6144(12)
H11 H 0.4274 0.1975 0.6251
C18 C 0.5829(5) 0.2057(4) 0.8000(10)
H12 H 0.5568 0.1784 0.7117
C19 C 0.6508(5) 0.1910(4) 0.9122(11)
C20 C 0.6875(5) 0.1123(4) 0.7432(11)
H13 H 0.6669 0.1324 0.6373
C21 C 0.7454(6) 0.0459(5) 0.9448(12)
H14 H 0.7725 0.0112 0.9998
Zn1 Zn 0.25864(4) 0.00753(5) 0.40770(9)
O2 O 0.3398(4) 0.0965(4) 0.6352(8)
O3 O 0.1814(3) 0.0292(3) 0.4873(8)
O4 O 0.1054(3) 0.0111(5) 0.2228(8)
C1 C 0.3685(5) 0.0459(5) 0.6908(11)
C2 C 0.4364(5) 0.0448(5) 0.8531(10)
C4 C 0.4671(5) 0.1009(5) 0.9286(11)
H2 H 0.4439 0.1385 0.8842
C5 C 0.1180(5) 0.0208(5) 0.3791(12)
C6 C 0.0582(5) 0.0245(5) 0.4432(12)
C7 C 0.0710(5) 0.0255(6) 0.6178(12)
H3 H 0.1190 0.0261 0.6970
C31 C 0.0158(5) 0.0255(6) 0.6772(12)
H20 H 0.0261 0.0261 0.7952
N14 N 0.2763(4) 0.0590(3) 0.2277(9)
N9 N 0.6300(5) 0.2732(5) 0.4881(13)
N10 N 0.5181(4) 0.2795(4) 0.2982(9)
N12 N 0.3144(4) 0.1324(3) 0.1045(9)
C36 C 0.4083(5) 0.3034(5) 0.0498(11)
H24 H 0.4289 0.3413 0.0372
C37 C 0.4469(5) 0.2627(5) 0.1802(11)
C38 C 0.5418(6) 0.3387(5) 0.3524(14)
H25 H 0.5150 0.3750 0.3110
C39 C 0.6066(6) 0.3368(6) 0.4691(14)
H26 H 0.6334 0.3708 0.5301
C40 C 0.5738(5) 0.2408(6) 0.3856(12)
H27 H 0.5726 0.1975 0.3749
C41 C 0.4171(5) 0.2057(4) 0.2000(10)
H28 H 0.4432 0.1784 0.2883
C42 C 0.3492(5) 0.1910(4) 0.0878(11)
C43 C 0.3125(5) 0.1123(4) 0.2568(11)
H29 H 0.3331 0.1324 0.3627
C44 C 0.2546(6) 0.0459(5) 0.0552(12)
H30 H 0.2275 0.0112 0.0002
O5 O 0.6551(3) 0.9936(3) 0.3819(8)
C26 C 0.5325(5) 0.9892(5) 0.0754(11)
H17 H 0.5538 0.9516 0.1252
N9_2 N 0.1300(5) 0.7732(5) 0.4881(13)
N10_2 N 0.0181(4) 0.7795(4) 0.2982(9)
C38_2 C 0.0418(6) 0.8387(5) 0.3524(14)
H25_2 H 0.0150 0.8750 0.3110
C39_2 C 0.1066(6) 0.8368(6) 0.4691(14)
H26_2 H 0.1334 0.8708 0.5301
C40_2 C 0.0738(5) 0.7408(6) 0.3856(12)
H27_2 H 0.0726 0.6975 0.3749
N7 N 0.7557(4) 0.9182(4) 0.6740(9)
N8 N 0.7959(4) 0.8295(3) 0.8080(9)
C32 C 0.8042(5) 0.8920(4) 0.8081(11)
H21 H 0.8404 0.9139 0.8946
C33 C 0.7383(6) 0.8153(5) 0.6616(12)
H22 H 0.7195 0.7756 0.6250
C34 C 0.7140(6) 0.8681(5) 0.5816(12)
H23 H 0.6744 0.8718 0.4774
C35 C 0.8378(5) 0.7873(4) 0.9366(11)
C45 C 0.7785(6) 0.5910(5) 0.9782(13)
H31 H 0.7718 0.5933 0.8622
C46 C 0.8074(5) 0.7314(4) 0.9517(11)
H32 H 0.7609 0.7202 0.8756
N1 N 0.2443(4) 0.9182(4) 0.3260(9)
N2 N 0.2041(4) 0.8295(3) 0.1920(9)
O1 O 0.3449(3) 0.9936(3) 0.6181(8)
C3 C 0.4675(5) 0.9892(5) 0.9246(11)
H1 H 0.4462 0.9516 0.8748
C9 C 0.1958(5) 0.8920(4) 0.1919(11)
H5 H 0.1596 0.9139 0.1054
C10 C 0.2617(6) 0.8153(5) 0.3384(12)
H6 H 0.2805 0.7756 0.3750
C11 C 0.2860(6) 0.8681(5) 0.4184(12)
H7 H 0.3256 0.8718 0.5226
C12 C 0.1622(5) 0.7873(4) 0.0634(11)
C22 C 0.2215(6) 0.5910(5) 0.0218(13)
H15 H 0.2282 0.5933 0.1378
C23 C 0.1926(5) 0.7314(4) 0.0483(11)
H16 H 0.2391 0.7202 0.1244
N3_2 N 0.8700(5) 0.7732(5) 0.5119(13)
N4_2 N 0.9819(4) 0.7795(4) 0.7018(9)
C15_2 C 0.9582(6) 0.8387(5) 0.6476(14)
H9_2 H 0.9850 0.8750 0.6890
C16_2 C 0.8934(6) 0.8368(6) 0.5309(14)
H10_2 H 0.8666 0.8708 0.4699
C17_2 C 0.9262(5) 0.7408(6) 0.6144(12)
H11_2 H 0.9274 0.6975 0.6251
N5 N 0.2237(4) 0.5590(3) 0.7723(9)
N6_2 N 0.1856(4) 0.6324(3) 0.8955(9)
C13_2 C 0.0917(5) 0.8034(5) 0.9502(11)
H8_2 H 0.0711 0.8413 0.9628
C14_2 C 0.0531(5) 0.7627(5) 0.8198(11)
C18_2 C 0.0829(5) 0.7057(4) 0.8000(10)
H12_2 H 0.0568 0.6784 0.7117
C19_2 C 0.1508(5) 0.6910(4) 0.9122(11)
C20_2 C 0.1875(5) 0.6123(4) 0.7432(11)
H13_2 H 0.1669 0.6324 0.6373
C21_2 C 0.2454(6) 0.5459(5) 0.9448(12)
H14_2 H 0.2725 0.5112 0.9998
Zn5 Zn 0.24136(4) 0.50753(5) 0.59230(9)
N11 N 0.7763(4) 0.5590(3) 0.2277(9)
N12_2 N 0.8144(4) 0.6324(3) 0.1045(9)
C36_2 C 0.9083(5) 0.8034(5) 0.0498(11)
H24_2 H 0.9289 0.8413 0.0372
C37_2 C 0.9469(5) 0.7627(5) 0.1802(11)
C41_2 C 0.9171(5) 0.7057(4) 0.2000(10)
H28_2 H 0.9432 0.6784 0.2883
C42_2 C 0.8492(5) 0.6910(4) 0.0878(11)
C43_2 C 0.8125(5) 0.6123(4) 0.2568(11)
H29_2 H 0.8331 0.6324 0.3627
C44_2 C 0.7546(6) 0.5459(5) 0.0552(12)
H30_2 H 0.7275 0.5112 0.0002
Zn4 Zn 0.75864(4) 0.50753(5) 0.40770(9)
O5_2 O 0.1551(3) 0.4936(3) 0.3819(8)
O6_2 O 0.1602(4) 0.5965(4) 0.3648(8)
C24_2 C 0.1315(5) 0.5459(5) 0.3092(11)
C25_2 C 0.0636(5) 0.5448(5) 0.1469(10)
C26_2 C 0.0325(5) 0.4892(5) 0.0754(11)
H17_2 H 0.0538 0.4516 0.1252
C27_2 C 0.0329(5) 0.6009(5) 0.0714(11)
H18_2 H 0.0561 0.6385 0.1158
N1_2 N 0.7443(4) 0.4182(4) 0.3260(9)
N2_2 N 0.7041(4) 0.3295(3) 0.1920(9)
O1_2 O 0.8449(3) 0.4936(3) 0.6181(8)
O2_2 O 0.8398(4) 0.5965(4) 0.6352(8)
O3_2 O 0.6814(3) 0.5292(3) 0.4873(8)
O4_2 O 0.6054(3) 0.5111(5) 0.2228(8)
C1_2 C 0.8685(5) 0.5459(5) 0.6908(11)
C2_2 C 0.9364(5) 0.5448(5) 0.8531(10)
C3_2 C 0.9675(5) 0.4892(5) 0.9246(11)
H1_2 H 0.9462 0.4516 0.8748
C4_2 C 0.9671(5) 0.6009(5) 0.9286(11)
H2_2 H 0.9439 0.6385 0.8842
C5_2 C 0.6180(5) 0.5208(5) 0.3791(12)
C6_2 C 0.5582(5) 0.5245(5) 0.4432(12)
C7_2 C 0.5710(5) 0.5255(6) 0.6178(12)
H3_2 H 0.6190 0.5261 0.6970
C8_2 C 0.4842(5) 0.5255(6) 0.3228(12)
H4_2 H 0.4739 0.5261 0.2048
C9_2 C 0.6958(5) 0.3920(4) 0.1919(11)
H5_2 H 0.6596 0.4139 0.1054
C10_2 C 0.7617(6) 0.3153(5) 0.3384(12)
H6_2 H 0.7805 0.2756 0.3750
C11_2 C 0.7860(6) 0.3681(5) 0.4184(12)
H7_2 H 0.8256 0.3718 0.5226
C12_2 C 0.6622(5) 0.2873(4) 0.0634(11)
C22_2 C 0.7215(6) 0.0910(5) 0.0218(13)
H15_2 H 0.7282 0.0933 0.1378
C23_2 C 0.6926(5) 0.2314(4) 0.0483(11)
H16_2 H 0.7391 0.2202 0.1244
O7_2 O 0.3186(3) 0.5292(3) 0.5127(8)
O8_2 O 0.3946(3) 0.5111(5) 0.7772(8)
C28_2 C 0.3820(5) 0.5208(5) 0.6209(12)
C29_2 C 0.4418(5) 0.5245(5) 0.5568(12)
C30_2 C 0.4290(5) 0.5255(6) 0.3822(12)
H19_2 H 0.3810 0.5261 0.3030
C31_2 C 0.5158(5) 0.5255(6) 0.6772(12)
H20_2 H 0.5261 0.5261 0.7952
N7_2 N 0.2557(4) 0.4182(4) 0.6740(9)
N8_2 N 0.2959(4) 0.3295(3) 0.8080(9)
C32_2 C 0.3042(5) 0.3920(4) 0.8081(11)
H21_2 H 0.3404 0.4139 0.8946
C33_2 C 0.2383(6) 0.3153(5) 0.6616(12)
H22_2 H 0.2195 0.2756 0.6250
C34_2 C 0.2140(6) 0.3681(5) 0.5816(12)
H23_2 H 0.1744 0.3718 0.4774
C35_2 C 0.3378(5) 0.2873(4) 0.9366(11)
C45_2 C 0.2785(6) 0.0910(5) 0.9782(13)
H31_2 H 0.2718 0.0933 0.8622
C46_2 C 0.3074(5) 0.2314(4) 0.9517(11)
H32_2 H 0.2609 0.2202 0.8756
loop_
_geom_bond_atom_site_label_1
_geom_bond_atom_site_label_2
_geom_bond_site_symmetry_1
_geom_bond_site_symmetry_2
O6 C24 1_555 1_555
C24 C25 1_555 1_555
H18 C27 1_555 1_555
C25 C27 1_555 1_555
H4 C8 1_555 1_555
O7 C28 1_555 1_555
O8 C28 1_555 1_555
C28 C29 1_555 1_555
C29 C30 1_555 1_555
C30 C8 1_555 1_555
H19 C30 1_555 1_555
Zn3 O7 1_555 1_555
N13 Zn3 1_555 1_555
N3 C16 1_555 1_555
N4 C14 1_555 1_555
N13 C20 1_555 1_555
N6 C19 1_555 1_555
H8 C13 1_555 1_555
C14 C13 1_555 1_555
C15 N4 1_555 1_555
H9 C15 1_555 1_555
C16 C15 1_555 1_555
H10 C16 1_555 1_555
C17 N3 1_555 1_555
H11 C17 1_555 1_555
C18 C14 1_555 1_555
H12 C18 1_555 1_555
C19 C18 1_555 1_555
C20 N6 1_555 1_555
H13 C20 1_555 1_555
C21 N13 1_555 1_555
H14 C21 1_555 1_555
N4 C17 1_555 1_555
O2 C1 1_555 1_555
O3 Zn1 1_555 1_555
O4 C5 1_555 1_555
C2 C1 1_555 1_555
C4 C2 1_555 1_555
H2 C4 1_555 1_555
C5 O3 1_555 1_555
C6 C5 1_555 1_555
C7 C6 1_555 1_555
H3 C7 1_555 1_555
C31 C7 1_555 1_555
H20 C31 1_555 1_555
N14 Zn1 1_555 1_555
N9 C39 1_555 1_555
N10 C37 1_555 1_555
N14 C43 1_555 1_555
N12 C42 1_555 1_555
H24 C36 1_555 1_555
C37 C36 1_555 1_555
C38 N10 1_555 1_555
H25 C38 1_555 1_555
C39 C38 1_555 1_555
H26 C39 1_555 1_555
C40 N9 1_555 1_555
H27 C40 1_555 1_555
C41 C37 1_555 1_555
H28 C41 1_555 1_555
C42 C41 1_555 1_555
C43 N12 1_555 1_555
H29 C43 1_555 1_555
C44 N14 1_555 1_555
H30 C44 1_555 1_555
N10 C40 1_555 1_555
H17 C26 1_555 1_555
N9_2 C39_2 1_555 1_555
C38_2 N10_2 1_555 1_555
H25_2 C38_2 1_555 1_555
C39_2 C38_2 1_555 1_555
H26_2 C39_2 1_555 1_555
C40_2 N9_2 1_555 1_555
H27_2 C40_2 1_555 1_555
N10_2 C40_2 1_555 1_555
N8 C32 1_555 1_555
C32 N7 1_555 1_555
H21 C32 1_555 1_555
C33 N8 1_555 1_555
H22 C33 1_555 1_555
C34 N7 1_555 1_555
H23 C34 1_555 1_555
C35 N8 1_555 1_555
H31 C45 1_555 1_555
C46 C35 1_555 1_555
H32 C46 1_555 1_555
C33 C34 1_555 1_555
N1 C9 1_555 1_555
N2 C9 1_555 1_555
H1 C3 1_555 1_555
C9 H5 1_555 1_555
C10 N2 1_555 1_555
H6 C10 1_555 1_555
C11 N1 1_555 1_555
H7 C11 1_555 1_555
C12 N2 1_555 1_555
H15 C22 1_555 1_555
C23 C12 1_555 1_555
H16 C23 1_555 1_555
C10 C11 1_555 1_555
N3_2 C16_2 1_555 1_555
C15_2 N4_2 1_555 1_555
H9_2 C15_2 1_555 1_555
C16_2 C15_2 1_555 1_555
H10_2 C16_2 1_555 1_555
C17_2 N3_2 1_555 1_555
H11_2 C17_2 1_555 1_555
N4_2 C17_2 1_555 1_555
N5 C20_2 1_555 1_555
N6_2 C19_2 1_555 1_555
H8_2 C13_2 1_555 1_555
C14_2 C13_2 1_555 1_555
C18_2 C14_2 1_555 1_555
H12_2 C18_2 1_555 1_555
C19_2 C18_2 1_555 1_555
C20_2 N6_2 1_555 1_555
H13_2 C20_2 1_555 1_555
C21_2 N5 1_555 1_555
H14_2 C21_2 1_555 1_555
Zn5 N5 1_555 1_555
N11 C43_2 1_555 1_555
N12_2 C42_2 1_555 1_555
H24_2 C36_2 1_555 1_555
C37_2 C36_2 1_555 1_555
C41_2 C37_2 1_555 1_555
H28_2 C41_2 1_555 1_555
C42_2 C41_2 1_555 1_555
C43_2 N12_2 1_555 1_555
H29_2 C43_2 1_555 1_555
C44_2 N11 1_555 1_555
H30_2 C44_2 1_555 1_555
Zn4 N11 1_555 1_555
O5_2 C24_2 1_555 1_555
O6_2 C24_2 1_555 1_555
C24_2 C25_2 1_555 1_555
C25_2 C26_2 1_555 1_555
H17_2 C26_2 1_555 1_555
H18_2 C27_2 1_555 1_555
Zn5 O5_2 1_555 1_555
C25_2 C27_2 1_555 1_555
Zn4 N1_2 1_555 1_555
N1_2 C9_2 1_555 1_555
N2_2 C9_2 1_555 1_555
O1_2 Zn4 1_555 1_555
O2_2 C1_2 1_555 1_555
O3_2 Zn4 1_555 1_555
O4_2 C5_2 1_555 1_555
C1_2 O1_2 1_555 1_555
C2_2 C1_2 1_555 1_555
C3_2 C2_2 1_555 1_555
H1_2 C3_2 1_555 1_555
C4_2 C2_2 1_555 1_555
H2_2 C4_2 1_555 1_555
C5_2 O3_2 1_555 1_555
C6_2 C5_2 1_555 1_555
C7_2 C6_2 1_555 1_555
H3_2 C7_2 1_555 1_555
C8_2 C6_2 1_555 1_555
H4_2 C8_2 1_555 1_555
C9_2 H5_2 1_555 1_555
C10_2 N2_2 1_555 1_555
H6_2 C10_2 1_555 1_555
C11_2 N1_2 1_555 1_555
H7_2 C11_2 1_555 1_555
C12_2 N2_2 1_555 1_555
H15_2 C22_2 1_555 1_555
C23_2 C12_2 1_555 1_555
H16_2 C23_2 1_555 1_555
O7_2 C28_2 1_555 1_555
O8_2 C28_2 1_555 1_555
C28_2 C29_2 1_555 1_555
C29_2 C30_2 1_555 1_555
C30_2 C8_2 1_555 1_555
H19_2 C30_2 1_555 1_555
C31_2 C7_2 1_555 1_555
H20_2 C31_2 1_555 1_555
Zn5 O7_2 1_555 1_555
N7_2 Zn5 1_555 1_555
N8_2 C32_2 1_555 1_555
C32_2 N7_2 1_555 1_555
H21_2 C32_2 1_555 1_555
C33_2 N8_2 1_555 1_555
H22_2 C33_2 1_555 1_555
C34_2 N7_2 1_555 1_555
H23_2 C34_2 1_555 1_555
C35_2 N8_2 1_555 1_555
H31_2 C45_2 1_555 1_555
C46_2 C35_2 1_555 1_555
H32_2 C46_2 1_555 1_555
C10_2 C11_2 1_555 1_555
C29_2 C31_2 1_555 1_555
C33_2 C34_2 1_555 1_555

#END
