
###############################################################################
#
# This file contains modified crystal structure data generated from the
# MOF subset of the Cambridge Structural Database (CSD) v543 
# hosted by the Cambridge Crystallographic Data Centre (CCDC).
#
# This work is licensed under the Creative Commons
# Attribution-NonCommercial-ShareAlike 4.0 International License.
# To view a copy of this license, visit
# http://creativecommons.org/licenses/by-nc-sa/4.0/
# or send a letter to
# Creative Commons, PO Box 1866, Mountain View, CA 94042, USA.
#
# CIF created using the CSD Python API on 29 September 2022
# The structure has been converted into the P1 space group
# The structure has a 3D framework
# The original CSD entry DUJQUW01 is in the hexagonal crystal system
# The original CSD entry DUJQUW01 is in a Sohncke space group
# The framework has been calculated to contain at least 10.0% void space
# The void calculation uses a probe of radius 1.32A, grid spacing 0.4
# The framework is charged, counterions have been retained in the structure
# H atom positions have been added when not included in the experimental data
#
###############################################################################

data_DUJQUW01
_chemical_formula_moiety         '(C12 H70 N16 O24 Sc3 9+)n'
_symmetry_cell_setting           triclinic
_symmetry_space_group_name_H-M   'P 1'
_symmetry_Int_Tables_number      1
_space_group_name_Hall           'P 1'
loop_
_symmetry_equiv_pos_site_id
_symmetry_equiv_pos_as_xyz
1 x,y,z
_cell_length_a                   9.0093(2)
_cell_length_b                   9.0093(2)
_cell_length_c                   11.2503(4)
_cell_angle_alpha                90
_cell_angle_beta                 90
_cell_angle_gamma                120
_cell_volume                     790.819
loop_
_atom_site_label
_atom_site_type_symbol
_atom_site_fract_x
_atom_site_fract_y
_atom_site_fract_z
_atom_site_U_iso_or_equiv
_atom_site_thermal_displace_type
Sc3 Sc -0 0.5 0.666667 0.0120 Uiso
O1 O 0.3425(4) 0.0714(4) 0.1031(3) 0.0146 Uiso
O2 O 0.6833(5) 0.4437(4) 0.2252(3) 0.0146 Uiso
C1 C 0.4059(10) 0.2029(5) 0.166667 0.0146 Uiso
C2 C 0.6047(12) 0.3024(6) 0.166667 0.0146 Uiso
Sc1 Sc 0.5 0 0 0.0120 Uiso
O3 O 0.3425(4) 0.2711(6) 0.2302(3) 0.0146 Uiso
O4 O 0.6833(5) 0.2396(6) 0.1081(3) 0.0146 Uiso
Sc2 Sc 0.5 0.5 0.333333 0.0120 Uiso
Sc1_2 Sc 0.5 0 1 0.0120 Uiso
O5 O 0.7289(6) 0.0714(4) 0.8969(3) 0.0146 Uiso
O6 O 0.7604(6) 0.4437(4) 0.7748(3) 0.0146 Uiso
C3 C 0.7970(11) 0.2029(5) 0.833333 0.0146 Uiso
C4 C 0.6977(13) 0.3024(6) 0.833333 0.0146 Uiso
O7 O 0.9286(4) 0.2711(6) 0.7698(3) 0.0146 Uiso
O8 O 0.5563(4) 0.2396(6) 0.8919(3) 0.0146 Uiso
Sc3_2 Sc 1 0.5 0.666667 0.0120 Uiso
Sc1_3 Sc 0.5 1 0 0.0120 Uiso
O9 O 0.6575(4) 0.9286(4) 0.1031(3) 0.0146 Uiso
O12 O 0.3167(5) 0.7604(6) 0.1081(3) 0.0146 Uiso
Sc1_4 Sc 0.5 1 1 0.0120 Uiso
O10 O 0.2711(6) 0.9286(4) 0.8969(3) 0.0146 Uiso
O11 O 0.4437(4) 0.7604(6) 0.8919(3) 0.0146 Uiso
O2_2 O 0.3167(5) 0.5563(4) 0.2252(3) 0.0146 Uiso
C1_2 C 0.5941(10) 0.7971(5) 0.166667 0.0146 Uiso
C2_2 C 0.3953(12) 0.6976(6) 0.166667 0.0146 Uiso
O3_2 O 0.6575(4) 0.7289(6) 0.2302(3) 0.0146 Uiso
O6_2 O 0.2396(6) 0.5563(4) 0.7748(3) 0.0146 Uiso
C3_2 C 0.2030(11) 0.7971(5) 0.833333 0.0146 Uiso
C4_2 C 0.3023(13) 0.6976(6) 0.833333 0.0146 Uiso
O7_2 O 0.0714(4) 0.7289(6) 0.7698(3) 0.0146 Uiso
O1_2 O 0.7289(6) 0.6575(4) 0.4364(3) 0.0146 Uiso
O2_3 O 0.7604(6) 0.3167(5) 0.5585(3) 0.0146 Uiso
C1_3 C 0.7970(11) 0.5941(10) 0.500000 0.0146 Uiso
C2_3 C 0.6977(13) 0.3953(12) 0.500000 0.0146 Uiso
O3_3 O 0.9286(7) 0.6575(4) 0.5636(3) 0.0146 Uiso
O4_2 O 0.5563(8) 0.3167(5) 0.4415(3) 0.0146 Uiso
O9_2 O 0.2711(6) 0.3425(4) 0.4364(3) 0.0146 Uiso
O12_2 O 0.4437(8) 0.6833(5) 0.4415(3) 0.0146 Uiso
O9_3 O 0.0714(4) 0.3425(4) 0.5636(3) 0.0146 Uiso
O12_3 O 0.2396(6) 0.6833(5) 0.5585(3) 0.0146 Uiso
C3_3 C 0.2029(5) 0.4059(12) 0.500000 0.0146 Uiso
C4_3 C 0.3024(6) 0.6047(14) 0.500000 0.0146 Uiso
N1 N -0.000 0.000 0.333333 0.0244 Uiso
H1 H 0.112661 0 0.333333 . .
H2 H 0.0155553 0.106218 0.290803 . .
H3 H 0.0906629 0.106218 0.290803 . .
H4 H 0.0375538 3.55384e-17 0.418393 . .
H3_2 H 0.106218 0.0906629 0.375864 . .
H4_2 H 3.14212e-17 0.0375538 0.248274 . .
H1_2 H -2.40343e-18 0.112661 0.333334 . .
H2_2 H 0.106218 0.0155553 0.375864 . .
N1_2 N -0.000 1.000 0.333333 0.0244 Uiso
H1_3 H 0.112661 1 0.333333 . .
H4_3 H 0.0375538 1 0.418393 . .
H1_4 H -5.09757e-17 0.887339 0.333334 . .
H4_4 H -9.34789e-17 0.962446 0.248274 . .
N1_3 N 1.000 0.000 0.333333 0.0244 Uiso
H4_5 H 0.962446 -3.55384e-17 0.418393 . .
H1_5 H 0.887339 0 0.333333 . .
H4_6 H 1 0.0375538 0.248274 . .
H1_6 H 1 0.112661 0.333334 . .
N1_4 N 1.000 1.000 0.333333 0.0244 Uiso
H3_3 H 0.909337 0.893782 0.290803 . .
H4_7 H 0.962446 1 0.418393 . .
H1_7 H 0.887339 1 0.333333 . .
H2_3 H 0.984445 0.893782 0.290803 . .
H1_8 H 1 0.887339 0.333334 . .
H2_4 H 0.893782 0.984445 0.375864 . .
H3_4 H 0.893782 0.909337 0.375864 . .
H4_8 H 1 0.962446 0.248274 . .
N1_5 N 0.000 0.000 0.666666 0.0244 Uiso
H4_9 H 0.0375538 0.0375538 0.751726 . .
H2_5 H 0.0906629 0.106218 0.709197 . .
H4_10 H 0.0375538 -3.55384e-17 0.581607 . .
H1_9 H 0.112661 0 0.666667 . .
H3_5 H 0.0155553 0.106218 0.709197 . .
H1_10 H 0.112661 0.112661 0.666666 . .
N1_6 N -0.000 1.000 0.666666 0.0244 Uiso
H2_6 H 0.0906629 0.984445 0.624136 . .
H4_11 H 0.0375538 1 0.581607 . .
H1_11 H 0.112661 1 0.666667 . .
H3_6 H 0.0155553 0.909337 0.624136 . .
N1_7 N 1.000 0.000 0.666666 0.0244 Uiso
H3_7 H 0.984445 0.0906629 0.624136 . .
H1_12 H 0.887339 0 0.666667 . .
H4_12 H 0.962446 3.55384e-17 0.581607 . .
H2_7 H 0.909337 0.0155553 0.624136 . .
N1_8 N 1.000 1.000 0.666666 0.0244 Uiso
H1_13 H 0.887339 0.887339 0.666666 . .
H1_14 H 0.887339 1 0.666667 . .
H3_8 H 0.984445 0.893782 0.709197 . .
H2_8 H 0.909337 0.893782 0.709197 . .
H4_13 H 0.962446 1 0.581607 . .
H4_14 H 0.962446 0.962446 0.751726 . .
N1_9 N -0.000 -0.000 -0.000000 0.0244 Uiso
H1_15 H -6.93884e-18 0.112661 -3.33333e-07 . .
H4_15 H -4.07635e-17 0.0375538 0.0850597 . .
H1_16 H 0.112661 0.112661 3.33333e-07 . .
N1_10 N 0.000 0.000 1.000000 0.0244 Uiso
H1_17 H -7.21008e-18 0.112661 1 . .
H3_9 H 0.106218 0.0155553 0.95747 . .
H2_9 H 0.106218 0.0906629 0.95747 . .
H4_16 H 0.0375538 0.0375538 0.91494 . .
H1_18 H 0.112661 0.112661 1 . .
N1_11 N -0.000 1.000 -0.000000 0.0244 Uiso
H4_17 H -6.85191e-17 0.962446 0.0850597 . .
H1_19 H -5.55111e-17 0.887339 -3.33333e-07 . .
H3_10 H 0.0906629 0.984445 0.0425304 . .
H2_10 H 0.0155553 0.909337 0.0425304 . .
N1_12 N -0.000 1.000 1.000000 0.0244 Uiso
H1_20 H -4.19046e-17 0.887339 1 . .
N1_13 N 1.000 -0.000 -0.000000 0.0244 Uiso
H1_21 H 1 0.112661 -3.33333e-07 . .
H4_18 H 1 0.0375538 0.0850597 . .
H2_11 H 0.984445 0.0906629 0.0425304 . .
H3_11 H 0.909337 0.0155553 0.0425304 . .
N1_14 N 1.000 0.000 1.000000 0.0244 Uiso
H1_22 H 1 0.112661 1 . .
N1_15 N 1.000 1.000 -0.000000 0.0244 Uiso
H4_19 H 1 0.962446 0.0850597 . .
H1_23 H 1 0.887339 -3.33333e-07 . .
H1_24 H 0.887339 0.887339 3.33333e-07 . .
N1_16 N 1.000 1.000 1.000000 0.0244 Uiso
H2_12 H 0.893782 0.909337 0.95747 . .
H1_25 H 1 0.887339 1 . .
H3_12 H 0.893782 0.984445 0.95747 . .
H1_26 H 0.887339 0.887339 1 . .
H4_20 H 0.962446 0.962446 0.91494 . .
loop_
_geom_bond_atom_site_label_1
_geom_bond_atom_site_label_2
_geom_bond_site_symmetry_1
_geom_bond_site_symmetry_2
O1 C1 1_555 1_555
O2 C2 1_555 1_555
C1 C2 1_555 1_555
C2 O4 1_555 1_555
Sc1 O1 1_555 1_555
O3 C1 1_555 1_555
O4 Sc1 1_555 1_555
Sc2 O2 1_555 1_555
O3 Sc2 1_555 1_555
O5 Sc1_2 1_555 1_555
O6 C4 1_555 1_555
C3 O5 1_555 1_555
C4 C3 1_555 1_555
O7 C3 1_555 1_555
O8 Sc1_2 1_555 1_555
Sc3_2 O6 1_555 1_555
C4 O8 1_555 1_555
O7 Sc3_2 1_555 1_555
O9 Sc1_3 1_555 1_555
O12 Sc1_3 1_555 1_555
O10 Sc1_4 1_555 1_555
O11 Sc1_4 1_555 1_555
O9 C1_2 1_555 1_555
O2_2 C2_2 1_555 1_555
C1_2 C2_2 1_555 1_555
C2_2 O12 1_555 1_555
O3_2 C1_2 1_555 1_555
Sc2 O2_2 1_555 1_555
O3_2 Sc2 1_555 1_555
O6_2 C4_2 1_555 1_555
C3_2 O10 1_555 1_555
C4_2 C3_2 1_555 1_555
O7_2 C3_2 1_555 1_555
Sc3 O6_2 1_555 1_555
C4_2 O11 1_555 1_555
O7_2 Sc3 1_555 1_555
O1_2 C1_3 1_555 1_555
O2_3 C2_3 1_555 1_555
C1_3 C2_3 1_555 1_555
C2_3 O4_2 1_555 1_555
Sc2 O1_2 1_555 1_555
O3_3 C1_3 1_555 1_555
O4_2 Sc2 1_555 1_555
O9_2 Sc2 1_555 1_555
O12_2 Sc2 1_555 1_555
Sc3_2 O2_3 1_555 1_555
O3_3 Sc3_2 1_555 1_555
O9_3 Sc3 1_555 1_555
O12_3 Sc3 1_555 1_555
O12_2 C4_3 1_555 1_555
C3_3 O9_3 1_555 1_555
C4_3 C3_3 1_555 1_555
O9_2 C3_3 1_555 1_555
C4_3 O12_3 1_555 1_555
N1 H1 1_555 1_555
N1 H2 1_555 1_555
N1 H3 1_555 1_555
N1 H4 1_555 1_555
N1 H3_2 1_555 1_555
N1 H4_2 1_555 1_555
N1 H1_2 1_555 1_555
N1 H2_2 1_555 1_555
N1_2 H1_3 1_555 1_555
N1_2 H4_3 1_555 1_555
N1_2 H1_4 1_555 1_555
N1_2 H4_4 1_555 1_555
N1_3 H4_5 1_555 1_555
N1_3 H1_5 1_555 1_555
N1_3 H4_6 1_555 1_555
N1_3 H1_6 1_555 1_555
N1_4 H3_3 1_555 1_555
N1_4 H4_7 1_555 1_555
N1_4 H1_7 1_555 1_555
N1_4 H2_3 1_555 1_555
N1_4 H1_8 1_555 1_555
N1_4 H2_4 1_555 1_555
N1_4 H3_4 1_555 1_555
N1_4 H4_8 1_555 1_555
N1_5 H4_9 1_555 1_555
N1_5 H2_5 1_555 1_555
N1_5 H4_10 1_555 1_555
N1_5 H1_9 1_555 1_555
N1_5 H3_5 1_555 1_555
N1_5 H1_10 1_555 1_555
N1_6 H2_6 1_555 1_555
N1_6 H4_11 1_555 1_555
N1_6 H1_11 1_555 1_555
N1_6 H3_6 1_555 1_555
N1_7 H3_7 1_555 1_555
N1_7 H1_12 1_555 1_555
N1_7 H4_12 1_555 1_555
N1_7 H2_7 1_555 1_555
N1_8 H1_13 1_555 1_555
N1_8 H1_14 1_555 1_555
N1_8 H3_8 1_555 1_555
N1_8 H2_8 1_555 1_555
N1_8 H4_13 1_555 1_555
N1_8 H4_14 1_555 1_555
N1_9 H1_15 1_555 1_555
N1_9 H4_15 1_555 1_555
N1_9 H1_16 1_555 1_555
N1_10 H1_17 1_555 1_555
N1_10 H3_9 1_555 1_555
N1_10 H2_9 1_555 1_555
N1_10 H4_16 1_555 1_555
N1_10 H1_18 1_555 1_555
N1_11 H4_17 1_555 1_555
N1_11 H1_19 1_555 1_555
N1_11 H3_10 1_555 1_555
N1_11 H2_10 1_555 1_555
N1_12 H1_20 1_555 1_555
N1_13 H1_21 1_555 1_555
N1_13 H4_18 1_555 1_555
N1_13 H2_11 1_555 1_555
N1_13 H3_11 1_555 1_555
N1_14 H1_22 1_555 1_555
N1_15 H4_19 1_555 1_555
N1_15 H1_23 1_555 1_555
N1_15 H1_24 1_555 1_555
N1_16 H2_12 1_555 1_555
N1_16 H1_25 1_555 1_555
N1_16 H3_12 1_555 1_555
N1_16 H1_26 1_555 1_555
N1_16 H4_20 1_555 1_555

#END
