
###############################################################################
#
# This file contains modified crystal structure data generated from the
# MOF subset of the Cambridge Structural Database (CSD) v543 
# hosted by the Cambridge Crystallographic Data Centre (CCDC).
#
# This work is licensed under the Creative Commons
# Attribution-NonCommercial-ShareAlike 4.0 International License.
# To view a copy of this license, visit
# http://creativecommons.org/licenses/by-nc-sa/4.0/
# or send a letter to
# Creative Commons, PO Box 1866, Mountain View, CA 94042, USA.
#
# CIF created using the CSD Python API on 29 September 2022
# The structure has been converted into the P1 space group
# The structure has a 3D framework
# The original CSD entry DUJRAD is in the orthorhombic crystal system
# The original CSD entry DUJRAD is in a Sohncke space group
# The framework has been calculated to contain at least 10.0% void space
# The void calculation uses a probe of radius 1.32A, grid spacing 0.4
#
###############################################################################

data_DUJRAD
_chemical_formula_moiety         '(C60 H52 Ba4 Cu3 N4 O38 S8)n'
_symmetry_cell_setting           triclinic
_symmetry_space_group_name_H-M   'P 1'
_symmetry_Int_Tables_number      1
_space_group_name_Hall           'P 1'
loop_
_symmetry_equiv_pos_site_id
_symmetry_equiv_pos_as_xyz
1 x,y,z
_cell_length_a                   12.721(6)
_cell_length_b                   13.820(7)
_cell_length_c                   14.866(7)
_cell_angle_alpha                90
_cell_angle_beta                 90
_cell_angle_gamma                90
_cell_volume                     2613.51
loop_
_atom_site_label
_atom_site_type_symbol
_atom_site_fract_x
_atom_site_fract_y
_atom_site_fract_z
Cu3 Cu 0.50012(5) 0.86249(4) 0.01493(3)
Ba4 Ba 0.70492(2) 0.698971(19) 0.08008(2)
Cu1 Cu 0.49988(5) 0.36249(4) 0.48507(3)
Ba1 Ba 0.29508(2) 0.198971(19) 0.41992(2)
C1 C 0.5861(5) 0.4864(3) 0.6004(4)
C2 C 0.5941(4) 0.5583(4) 0.6781(4)
C3 C 0.6812(5) 0.5849(5) 0.7263(4)
H1 H 0.7483 0.5613 0.7148
C4 C 0.6590(5) 0.6507(5) 0.7938(4)
H2 H 0.7100 0.6774 0.8311
C5 C 0.5553(4) 0.6722(4) 0.8001(3)
C6 C 0.5003(4) 0.7362(3) 0.8668(3)
C7 C 0.6022(4) 0.2235(3) 0.3967(3)
C8 C 0.6293(4) 0.1414(3) 0.3341(3)
C9 C 0.7220(4) 0.0945(4) 0.3283(4)
H3 H 0.7796 0.1090 0.3643
C10 C 0.7229(5) 0.0212(4) 0.2622(4)
C11 C 0.6266(5) 0.0139(4) 0.2211(4)
H6 H 0.5980 0.0352 0.4979
H8 H 0.6474 0.0141 0.5925
O1 O 0.4956(3) 0.4647(3) 0.5750(3)
O2 O 0.2790(7) 0.1807(10) 0.2413(5)
H12 H 0.3223 0.2136 0.2044
H13 H 0.2297 0.1412 0.2181
O3 O 0.6697(4) 0.4563(3) 0.5706(3)
O4 O 0.4047(4) 0.7515(3) 0.8557(3)
O5 O 0.5578(3) 0.7688(2) 0.9295(2)
O6 O 0.5089(3) 0.2532(2) 0.3959(3)
O7 O 0.6724(3) 0.2568(3) 0.4446(3)
O10 O 0.4154(5) 0.0536(4) 0.4831(5)
S1 S 0.48235(10) 0.61358(9) 0.71947(9)
S2 S 0.53894(11) 0.09580(10) 0.26087(9)
Ba2 Ba 0.20492(2) 0.801029(19) 0.91992(2)
Ba5 Ba 0.79508(2) 0.301029(19) 0.58008(2)
O11 O 0.1697(4) 0.0437(3) 0.4294(3)
O12 O 0.0953(4) 0.2485(3) 0.3557(3)
O13 O 0.4422(3) 0.2688(2) 0.5705(2)
O14 O 0.1724(3) 0.2432(3) 0.5554(3)
O15 O 0.4945(4) 0.4564(3) 0.3860(3)
O16 O 0.3336(3) 0.3923(3) 0.3868(3)
H4 H 0.7809 0.9830 0.2484
C12 C 0.5984(4) 0.9492(4) 0.1443(4)
C13 C 0.4173(7) 0.9909(6) 0.5400(7)
H5 H 0.3529 0.9680 0.5608
C14 C 0.6088(8) 0.9867(9) 0.5432(8)
H7 H 0.6478 0.9338 0.5180
C15 C 0.4960(14) 0.8768(7) 0.6450(9)
H9 H 0.4231 0.8651 0.6575
H10 H 0.5307 0.8981 0.6988
H11 H 0.5282 0.8181 0.6241
O8 O 0.5055(4) 0.9564(3) 0.1140(3)
O9 O 0.6664(3) 0.8923(3) 0.1132(3)
N1 N 0.5053(6) 0.9512(4) 0.5759(5)
O1_2 O 0.0044(3) 0.5353(3) 0.0750(3)
S1_2 S 0.01765(10) 0.38642(9) 0.21947(9)
O13_2 O 0.0578(3) 0.7312(2) 0.0705(2)
O14_2 O 0.3276(3) 0.7568(3) 0.0554(3)
Cu1_2 Cu 0.00012(5) 0.63751(4) 0.98507(3)
O2_2 O 0.2210(7) 0.8193(10) 0.7413(5)
H12_2 H 0.1777 0.7864 0.7044
H13_2 H 0.2703 0.8588 0.7181
O10_2 O 0.0846(5) 0.9464(4) 0.9831(5)
O11_2 O 0.3303(4) 0.9563(3) 0.9294(3)
O15_2 O 0.0055(4) 0.5436(3) 0.8860(3)
O16_2 O 0.1664(3) 0.6077(3) 0.8868(3)
H4_2 H 0.7191 0.0170 0.7484
C12_2 C 0.9016(4) 0.0508(4) 0.6443(4)
O8_2 O 0.9945(4) 0.0436(3) 0.6140(3)
O9_2 O 0.8336(3) 0.1077(3) 0.6132(3)
Cu2 Cu 0.99988(5) 0.13751(4) 0.51493(3)
C1_2 C 0.9139(5) 0.5136(3) 0.1004(4)
C2_2 C 0.9059(4) 0.4417(4) 0.1781(4)
C3_2 C 0.8188(5) 0.4151(5) 0.2263(4)
H1_2 H 0.7517 0.4387 0.2148
C4_2 C 0.8410(5) 0.3493(5) 0.2938(4)
H2_2 H 0.7900 0.3226 0.3311
C5_2 C 0.9447(4) 0.3278(4) 0.3001(3)
C6_2 C 0.9997(4) 0.2638(3) 0.3668(3)
H8_2 H 0.8526 0.9859 0.0925
O3_2 O 0.8303(4) 0.5437(3) 0.0706(3)
O5_2 O 0.9422(3) 0.2312(2) 0.4295(2)
C7_2 C 0.8978(4) 0.7765(3) 0.8967(3)
C8_2 C 0.8707(4) 0.8586(3) 0.8341(3)
C9_2 C 0.7780(4) 0.9055(4) 0.8283(4)
H3_2 H 0.7204 0.8910 0.8643
C10_2 C 0.7771(5) 0.9788(4) 0.7622(4)
C11_2 C 0.8734(5) 0.9861(4) 0.7211(4)
H6_2 H 0.9020 0.9648 0.9979
O6_2 O 0.9911(3) 0.7468(2) 0.8959(3)
O7_2 O 0.8276(3) 0.7432(3) 0.9446(3)
S2_2 S 0.96106(11) 0.90420(10) 0.76087(9)
C2_3 C 0.4059(4) 0.0583(4) 0.8219(4)
C3_3 C 0.3188(5) 0.0849(5) 0.7737(4)
H1_3 H 0.2517 0.0613 0.7852
C4_3 C 0.3410(5) 0.1507(5) 0.7062(4)
H2_3 H 0.2900 0.1774 0.6689
C5_3 C 0.4447(4) 0.1722(4) 0.6999(3)
C6_3 C 0.4997(4) 0.2362(3) 0.6332(3)
O4_2 O 0.5953(4) 0.2515(3) 0.6443(3)
S1_3 S 0.51765(10) 0.11358(9) 0.78053(9)
C7_3 C 0.3978(4) 0.7235(3) 0.1033(3)
C8_3 C 0.3707(4) 0.6414(3) 0.1659(3)
C9_3 C 0.2780(4) 0.5945(4) 0.1717(4)
H3_3 H 0.2204 0.6090 0.1357
C10_3 C 0.2771(5) 0.5212(4) 0.2378(4)
H4_3 H 0.2191 0.4830 0.2516
C11_3 C 0.3734(5) 0.5139(4) 0.2789(4)
C12_3 C 0.4016(4) 0.4492(4) 0.3557(4)
H6_3 H 0.4020 0.5352 0.0021
O2_3 O 0.7210(7) 0.6807(10) 0.2587(5)
H12_3 H 0.6777 0.7136 0.2956
H13_3 H 0.7703 0.6412 0.2819
O6_3 O 0.4911(3) 0.7532(2) 0.1041(3)
O10_3 O 0.5846(5) 0.5536(4) 0.0169(5)
S2_3 S 0.46106(11) 0.59580(10) 0.23913(9)
O12_2 O 0.9047(4) 0.7485(3) 0.1443(3)
C1_3 C 0.4139(5) 0.9864(3) 0.8996(4)
C13_2 C 0.5827(7) 0.4909(6) 0.9600(7)
H5_2 H 0.6471 0.4680 0.9392
C14_2 C 0.3912(8) 0.4867(9) 0.9568(8)
H7_2 H 0.3522 0.4338 0.9820
H8_3 H 0.3526 0.5141 0.9075
C15_2 C 0.5040(14) 0.3768(7) 0.8550(9)
H9_2 H 0.5769 0.3651 0.8425
H10_2 H 0.4693 0.3981 0.8012
H11_2 H 0.4718 0.3181 0.8759
O1_3 O 0.5044(3) 0.9647(3) 0.9250(3)
N1_2 N 0.4947(6) 0.4512(4) 0.9241(5)
C1_4 C 0.0861(5) 0.0136(3) 0.3996(4)
C7_4 C 0.1022(4) 0.2765(3) 0.6033(3)
C8_4 C 0.1293(4) 0.3586(3) 0.6659(3)
C9_4 C 0.2220(4) 0.4055(4) 0.6717(4)
H3_4 H 0.2796 0.3910 0.6357
C10_4 C 0.2229(5) 0.4788(4) 0.7378(4)
H4_4 H 0.2809 0.5170 0.7516
C11_4 C 0.1266(5) 0.4861(4) 0.7789(4)
C12_4 C 0.0984(4) 0.5508(4) 0.8557(4)
C14_3 C 0.1088(8) 0.5133(9) 0.4568(8)
H6_4 H 0.0980 0.4648 0.5021
H7_3 H 0.1478 0.5662 0.4820
H8_4 H 0.1474 0.4859 0.4075
H10_3 H 0.0307 0.6019 0.3012
H11_3 H 0.0282 0.6819 0.3759
O6_4 O 0.0089(3) 0.2468(2) 0.6041(3)
S2_4 S 0.03894(11) 0.40420(10) 0.73913(9)
N1_3 N 0.0053(6) 0.5488(4) 0.4241(5)
C2_4 C 0.0941(4) 0.9417(4) 0.3219(4)
C3_4 C 0.1812(5) 0.9151(5) 0.2737(4)
H1_4 H 0.2483 0.9387 0.2852
C4_4 C 0.1590(5) 0.8493(5) 0.2062(4)
H2_4 H 0.2100 0.8226 0.1689
C5_4 C 0.0553(4) 0.8278(4) 0.1999(3)
C6_4 C 0.0003(4) 0.7638(3) 0.1332(3)
C13_3 C 0.9173(7) 0.5091(6) 0.4600(7)
H5_3 H 0.8529 0.5320 0.4392
C15_3 C 0.9960(14) 0.6232(7) 0.3550(9)
H9_3 H 0.9231 0.6349 0.3425
O1_4 O 0.9956(3) 0.0353(3) 0.4250(3)
O2_4 O 0.7790(7) 0.3193(10) 0.7587(5)
H12_4 H 0.8223 0.2864 0.7956
H13_4 H 0.7297 0.3588 0.7819
O10_4 O 0.9154(5) 0.4464(4) 0.5169(5)
S1_4 S 0.98235(10) 0.88642(9) 0.28053(9)
C13_4 C 0.0827(7) 0.0091(6) 0.0400(7)
H5_4 H 0.1471 0.0320 0.0608
C15_4 C 0.0040(14) 0.1232(7) 0.1450(9)
H9_4 H 0.0769 0.1349 0.1575
C14_4 C 0.8912(8) 0.0133(9) 0.0432(8)
H7_4 H 0.8522 0.0662 0.0180
H10_4 H 0.9693 0.1019 0.1988
H11_4 H 0.9718 0.1819 0.1241
N1_4 N 0.9947(6) 0.0488(4) 0.0759(5)
loop_
_geom_bond_atom_site_label_1
_geom_bond_atom_site_label_2
_geom_bond_site_symmetry_1
_geom_bond_site_symmetry_2
Cu1 O1 1_555 1_555
Ba1 O2 1_555 1_555
C1 C2 1_555 1_555
C2 C3 1_555 1_555
C3 H1 1_555 1_555
C4 C3 1_555 1_555
H2 C4 1_555 1_555
C5 C4 1_555 1_555
C6 C5 1_555 1_555
C7 C8 1_555 1_555
C8 C9 1_555 1_555
C9 H3 1_555 1_555
C10 C9 1_555 1_555
C11 C10 1_555 1_555
O1 C1 1_555 1_555
O2 H12 1_555 1_555
H13 O2 1_555 1_555
O3 C1 1_555 1_555
O4 C6 1_555 1_555
O5 C6 1_555 1_555
O6 Cu1 1_555 1_555
O7 Cu1 1_555 1_555
O10 Ba1 1_555 1_555
S1 C2 1_555 1_555
S2 C8 1_555 1_555
Ba2 O4 1_555 1_555
Ba5 O3 1_555 1_555
O11 Ba1 1_555 1_555
O12 Ba1 1_555 1_555
O13 Cu1 1_555 1_555
O14 Ba1 1_555 1_555
O15 Cu1 1_555 1_555
O16 Cu1 1_555 1_555
Ba1 O6 1_555 1_555
Ba1 O13 1_555 1_555
Ba1 O16 1_555 1_555
C5 S1 1_555 1_555
C7 O6 1_555 1_555
C7 O7 1_555 1_555
C11 S2 1_555 1_555
O7 Ba5 1_555 1_555
C13 H5 1_555 1_555
H7 C14 1_555 1_555
C15 H9 1_555 1_555
H10 C15 1_555 1_555
H11 C15 1_555 1_555
O8 C12 1_555 1_555
O9 C12 1_555 1_555
N1 C13 1_555 1_555
Cu3 O8 1_555 1_555
Ba4 O9 1_555 1_555
C14 N1 1_555 1_555
C15 N1 1_555 1_555
O9 Cu3 1_555 1_555
Ba2 O2_2 1_555 1_555
O2_2 H12_2 1_555 1_555
H13_2 O2_2 1_555 1_555
O10_2 Ba2 1_555 1_555
O11_2 Ba2 1_555 1_555
O15_2 Cu1_2 1_555 1_555
O16_2 Cu1_2 1_555 1_555
Ba2 O16_2 1_555 1_555
O8_2 C12_2 1_555 1_555
O9_2 C12_2 1_555 1_555
Cu2 O8_2 1_555 1_555
Ba5 O9_2 1_555 1_555
O9_2 Cu2 1_555 1_555
C1_2 C2_2 1_555 1_555
C2_2 C3_2 1_555 1_555
C3_2 H1_2 1_555 1_555
C4_2 C3_2 1_555 1_555
H2_2 C4_2 1_555 1_555
C5_2 C4_2 1_555 1_555
C6_2 C5_2 1_555 1_555
O3_2 C1_2 1_555 1_555
O5_2 C6_2 1_555 1_555
Cu2 O5_2 1_555 1_555
Ba5 O5_2 1_555 1_555
Ba4 O3_2 1_555 1_555
C7_2 C8_2 1_555 1_555
C8_2 C9_2 1_555 1_555
C9_2 H3_2 1_555 1_555
C10_2 C9_2 1_555 1_555
C11_2 C10_2 1_555 1_555
S2_2 C8_2 1_555 1_555
C7_2 O6_2 1_555 1_555
C7_2 O7_2 1_555 1_555
C11_2 S2_2 1_555 1_555
C2_3 C3_3 1_555 1_555
C3_3 H1_3 1_555 1_555
C4_3 C3_3 1_555 1_555
H2_3 C4_3 1_555 1_555
C5_3 C4_3 1_555 1_555
C6_3 C5_3 1_555 1_555
O4_2 C6_3 1_555 1_555
O13 C6_3 1_555 1_555
S1_3 C2_3 1_555 1_555
Ba5 O4_2 1_555 1_555
C5_3 S1_3 1_555 1_555
Ba4 O2_3 1_555 1_555
C7_3 C8_3 1_555 1_555
C8_3 C9_3 1_555 1_555
C9_3 H3_3 1_555 1_555
C10_3 C9_3 1_555 1_555
H4_3 C10_3 1_555 1_555
C11_3 C10_3 1_555 1_555
C12_3 C11_3 1_555 1_555
O2_3 H12_3 1_555 1_555
H13_3 O2_3 1_555 1_555
O6_3 Cu3 1_555 1_555
O14_2 Cu3 1_555 1_555
O15 C12_3 1_555 1_555
O16 C12_3 1_555 1_555
O10_3 Ba4 1_555 1_555
S2_3 C8_3 1_555 1_555
O12_2 Ba4 1_555 1_555
Ba4 O6_3 1_555 1_555
C7_3 O6_3 1_555 1_555
C7_3 O14_2 1_555 1_555
C11_3 S2_3 1_555 1_555
C13_2 H5_2 1_555 1_555
H7_2 C14_2 1_555 1_555
H8_3 C14_2 1_555 1_555
C15_2 H9_2 1_555 1_555
H10_2 C15_2 1_555 1_555
H11_2 C15_2 1_555 1_555
O1_3 C1_3 1_555 1_555
O11_2 C1_3 1_555 1_555
N1_2 C13_2 1_555 1_555
C14_2 N1_2 1_555 1_555
C15_2 N1_2 1_555 1_555
C7_4 C8_4 1_555 1_555
C8_4 C9_4 1_555 1_555
C9_4 H3_4 1_555 1_555
C10_4 C9_4 1_555 1_555
H4_4 C10_4 1_555 1_555
C11_4 C10_4 1_555 1_555
C12_4 C11_4 1_555 1_555
C14_3 H6_4 1_555 1_555
H7_3 C14_3 1_555 1_555
H8_4 C14_3 1_555 1_555
O11 C1_4 1_555 1_555
O15_2 C12_4 1_555 1_555
O16_2 C12_4 1_555 1_555
S2_4 C8_4 1_555 1_555
C7_4 O6_4 1_555 1_555
C7_4 O14 1_555 1_555
C11_4 S2_4 1_555 1_555
C14_3 N1_3 1_555 1_555
C2_4 C3_4 1_555 1_555
C3_4 H1_4 1_555 1_555
C4_4 C3_4 1_555 1_555
H2_4 C4_4 1_555 1_555
C5_4 C4_4 1_555 1_555
C6_4 C5_4 1_555 1_555
O13_2 C6_4 1_555 1_555
Cu2 O1_4 1_555 1_555
Ba5 O2_4 1_555 1_555
C13_3 H5_3 1_555 1_555
C15_3 H9_3 1_555 1_555
O2_4 H12_4 1_555 1_555
H13_4 O2_4 1_555 1_555
O10_4 Ba5 1_555 1_555
C13_3 O10_4 1_555 1_555
C13_4 H5_4 1_555 1_555
C15_4 H9_4 1_555 1_555
H7_4 C14_4 1_555 1_555
C14_4 N1_4 1_555 1_555

#END
