
###############################################################################
#
# This file contains modified crystal structure data generated from the
# MOF subset of the Cambridge Structural Database (CSD) v543 
# hosted by the Cambridge Crystallographic Data Centre (CCDC).
#
# This work is licensed under the Creative Commons
# Attribution-NonCommercial-ShareAlike 4.0 International License.
# To view a copy of this license, visit
# http://creativecommons.org/licenses/by-nc-sa/4.0/
# or send a letter to
# Creative Commons, PO Box 1866, Mountain View, CA 94042, USA.
#
# CIF created using the CSD Python API on 29 September 2022
# The structure has been converted into the P1 space group
# The structure has a 3D framework
# The original CSD entry DUJWEM is in the triclinic crystal system
# The framework has been calculated to contain at least 10.0% void space
# The void calculation uses a probe of radius 1.32A, grid spacing 0.4
#
###############################################################################

data_DUJWEM
_chemical_formula_moiety         '(C60 H48 N8 Ni2 O6)n'
_symmetry_cell_setting           triclinic
_symmetry_space_group_name_H-M   'P 1'
_symmetry_Int_Tables_number      1
_space_group_name_Hall           'P 1'
loop_
_symmetry_equiv_pos_site_id
_symmetry_equiv_pos_as_xyz
1 x,y,z
_cell_length_a                   11.313(5)
_cell_length_b                   11.340(5)
_cell_length_c                   12.933(5)
_cell_angle_alpha                92.284(5)
_cell_angle_beta                 96.329(5)
_cell_angle_gamma                110.977(5)
_cell_volume                     1534.13
loop_
_atom_site_label
_atom_site_type_symbol
_atom_site_fract_x
_atom_site_fract_y
_atom_site_fract_z
_atom_site_U_iso_or_equiv
_atom_site_thermal_displace_type
C23 C 0.0243(3) 0.1212(3) 0.0395(2) 0.0488 Uani
H14 H 0.0388 0.2033 0.0662 0.0590 Uiso
C24 C 0.1219(3) 0.0744(3) 0.0545(2) 0.0475 Uani
C30 C 0.2513(3) 0.1557(3) 0.1122(4) 0.0824 Uani
H22 H 0.2639 0.1234 0.1784 0.1240 Uiso
H23 H 0.2553 0.2413 0.1233 0.1240 Uiso
H24 H 0.3168 0.1539 0.0716 0.1240 Uiso
C2 C 0.4942(2) 0.9956(2) 0.71103(18) 0.0319 Uani
C3 C 0.5226(3) 0.8567(2) 0.56916(19) 0.0389 Uani
H1 H 0.5520 0.9277 0.5320 0.0470 Uiso
C8 C 0.4775(2) 0.6340(2) 0.58258(19) 0.0337 Uani
C12 C 0.4755(3) 0.5105(2) 0.5426(2) 0.0385 Uani
H5 H 0.4370 0.4412 0.5795 0.0460 Uiso
C14 C 0.5178(3) 0.7412(2) 0.5277(2) 0.0405 Uani
H6 H 0.5419 0.7348 0.4619 0.0490 Uiso
C15 C 0.4399(2) 0.7618(2) 0.72025(19) 0.0354 Uani
H7 H 0.4118 0.7679 0.7845 0.0420 Uiso
C18 C 0.4837(2) 0.8682(2) 0.66642(18) 0.0314 Uani
C21 C 0.4373(3) 0.6460(2) 0.6795(2) 0.0379 Uani
H12 H 0.4084 0.5752 0.7172 0.0460 Uiso
C39 C 0.5058(2) 0.0044(2) 0.28897(18) 0.0319 Uani
C40 C 0.4774(3) 0.1433(2) 0.43084(19) 0.0389 Uani
H30 H 0.4480 0.0723 0.4680 0.0470 Uiso
C41 C 0.5225(2) 0.3660(2) 0.41742(19) 0.0337 Uani
C42 C 0.5245(3) 0.4895(2) 0.4574(2) 0.0385 Uani
H31 H 0.5630 0.5588 0.4205 0.0460 Uiso
C43 C 0.4822(3) 0.2588(2) 0.4723(2) 0.0405 Uani
H32 H 0.4581 0.2652 0.5381 0.0490 Uiso
C44 C 0.5601(2) 0.2382(2) 0.27975(19) 0.0354 Uani
H33 H 0.5882 0.2321 0.2155 0.0420 Uiso
C45 C 0.5163(2) 0.1318(2) 0.33358(18) 0.0314 Uani
C46 C 0.5627(3) 0.3540(2) 0.3205(2) 0.0379 Uani
H34 H 0.5916 0.4248 0.2828 0.0460 Uiso
C56 C 0.9757(3) 0.8788(3) 0.9605(2) 0.0488 Uani
H43 H 0.9612 0.7967 0.9338 0.0590 Uiso
C57 C 0.8781(3) 0.9256(3) 0.9455(2) 0.0475 Uani
C60 C 0.7487(3) 0.8443(3) 0.8878(4) 0.0824 Uani
H46 H 0.7361 0.8766 0.8216 0.1240 Uiso
H47 H 0.7447 0.7587 0.8767 0.1240 Uiso
H48 H 0.6832 0.8461 0.9284 0.1240 Uiso
N5 N 0.17943(19) 0.5271(2) 0.36007(16) 0.0355 Uani
N6 N 0.32879(18) 0.63055(18) 0.26699(15) 0.0307 Uani
C47 C 0.0858(2) 0.5088(3) 0.4306(2) 0.0371 Uani
C48 C 0.0386(2) 0.5785(3) 0.5966(2) 0.0402 Uani
C49 C 0.2495(2) 0.6402(2) 0.33060(19) 0.0339 Uani
H35 H 0.2427 0.7163 0.3526 0.0410 Uiso
C50 C 0.1227(2) 0.5842(3) 0.5243(2) 0.0411 Uani
H36 H 0.2068 0.6407 0.5394 0.0490 Uiso
C51 C 0.3092(2) 0.5034(2) 0.2559(2) 0.0377 Uani
H37 H 0.3529 0.4676 0.2155 0.0450 Uiso
C52 C 0.2172(3) 0.4387(3) 0.3123(2) 0.0425 Uani
H38 H 0.1857 0.3516 0.3177 0.0510 Uiso
C53 C 0.0835(3) 0.6599(3) 0.6980(2) 0.0575 Uani
H39 H 0.0552 0.6089 0.7544 0.0860 Uiso
H40 H 0.1750 0.6971 0.7079 0.0860 Uiso
H41 H 0.0488 0.7258 0.6966 0.0860 Uiso
Ni5 Ni 0.45279(3) 0.78619(3) 0.21202(2) 0.0255 Uani
N7 N 0.1911(2) 0.8967(2) 0.02628(17) 0.0393 Uani
N8 N 0.32745(19) 0.8189(2) 0.10230(15) 0.0344 Uani
C54 C 0.0940(2) 0.9510(3) 0.0140(2) 0.0385 Uani
C55 C 0.2340(3) 0.8587(3) 0.1149(2) 0.0402 Uani
H42 H 0.2014 0.8604 0.1777 0.0480 Uiso
C59 C 0.3461(3) 0.8341(4) 0.0008(2) 0.0612 Uani
O7 O 0.56803(18) 0.99321(17) 0.21740(14) 0.0420 Uani
O8 O 0.43031(17) 0.90693(15) 0.32401(13) 0.0356 Uani
O5 O 0.62330(16) 0.74499(17) 0.27061(13) 0.0369 Uani
O6 O 0.52432(16) 0.69363(17) 0.11109(13) 0.0371 Uani
C31 C 0.6149(2) 0.6978(2) 0.17940(18) 0.0290 Uani
C32 C 0.7126(2) 0.6475(2) 0.14845(19) 0.0312 Uani
C34 C 0.7788(3) 0.5285(3) 0.0240(2) 0.0461 Uani
C35 C 0.8991(2) 0.5633(3) 0.0824(2) 0.0362 Uani
C36 C 0.6886(2) 0.5725(3) 0.0559(2) 0.0440 Uani
H27 H 0.6102 0.5513 0.0144 0.0530 Uiso
C37 C 0.9208(3) 0.6346(3) 0.1770(2) 0.0474 Uani
H28 H 0.9988 0.6551 0.2190 0.0570 Uiso
C38 C 0.8288(2) 0.6760(3) 0.2104(2) 0.0450 Uani
H29 H 0.8451 0.7230 0.2744 0.0540 Uiso
C58 C 0.2632(3) 0.8815(4) 0.9529(2) 0.0639 Uani
H44 H 0.2566 0.9001 0.8836 0.0770 Uiso
H45 H 0.4074 0.8145 0.9691 0.0740 Uiso
C7 C 0.9985(2) 0.4728(3) 0.9536(2) 0.0423 Uani
H2 H 0.9249 0.4555 0.9065 0.0510 Uiso
H26 H 0.7592 0.4751 0.9630 0.0550 Uiso
H3 H 0.2408 0.5249 0.0370 0.0550 Uiso
C28 C 0.7368(3) 0.1185(4) 0.0471(2) 0.0639 Uani
H20 H 0.7434 0.0999 0.1164 0.0770 Uiso
H21 H 0.5926 0.1855 0.0309 0.0740 Uiso
C33 C 0.0015(2) 0.5272(3) 0.0464(2) 0.0423 Uani
H25 H 0.0751 0.5445 0.0935 0.0510 Uiso
Ni1 Ni 0.54721(3) 0.21381(3) 0.78798(2) 0.0255 Uani
O1 O 0.37670(16) 0.25501(17) 0.72939(13) 0.0369 Uani
O2 O 0.47568(16) 0.30637(17) 0.88891(13) 0.0371 Uani
O3 O 0.43197(18) 0.00679(17) 0.78260(14) 0.0420 Uani
C1 C 0.3851(2) 0.3022(2) 0.82060(18) 0.0290 Uani
O4 O 0.56969(17) 0.09307(15) 0.67599(13) 0.0356 Uani
N1 N 0.82057(19) 0.4729(2) 0.63993(16) 0.0355 Uani
N2 N 0.8089(2) 0.1033(2) 0.97372(17) 0.0393 Uani
N3 N 0.67121(18) 0.36945(18) 0.73301(15) 0.0307 Uani
C4 C 0.2874(2) 0.3525(2) 0.85155(19) 0.0312 Uani
C5 C 0.9142(2) 0.4912(3) 0.5694(2) 0.0371 Uani
C6 C 0.9614(2) 0.4215(3) 0.4034(2) 0.0402 Uani
N4 N 0.67255(19) 0.1811(2) 0.89770(15) 0.0344 Uani
C9 C 0.2212(3) 0.4715(3) 0.9760(2) 0.0461 Uani
C10 C 0.9060(2) 0.0490(3) 0.9860(2) 0.0385 Uani
C11 C 0.7505(2) 0.3598(2) 0.66940(19) 0.0339 Uani
H4 H 0.7573 0.2837 0.6474 0.0410 Uiso
C13 C 0.1009(2) 0.4367(3) 0.9176(2) 0.0362 Uani
C16 C 0.8773(2) 0.4158(3) 0.4757(2) 0.0411 Uani
H8 H 0.7932 0.3593 0.4606 0.0490 Uiso
C17 C 0.6908(2) 0.4966(2) 0.7441(2) 0.0377 Uani
H9 H 0.6471 0.5324 0.7845 0.0450 Uiso
C19 C 0.3114(2) 0.4275(3) 0.9441(2) 0.0440 Uani
H10 H 0.3898 0.4487 0.9856 0.0530 Uiso
C20 C 0.7660(3) 0.1413(3) 0.8851(2) 0.0402 Uani
H11 H 0.7986 0.1396 0.8223 0.0480 Uiso
C22 C 0.0792(3) 0.3654(3) 0.8230(2) 0.0474 Uani
H13 H 0.0012 0.3449 0.7810 0.0570 Uiso
C25 C 0.1712(2) 0.3240(3) 0.7896(2) 0.0450 Uani
H15 H 0.1549 0.2770 0.7256 0.0540 Uiso
C26 C 0.7828(3) 0.5613(3) 0.6877(2) 0.0425 Uani
H16 H 0.8143 0.6484 0.6823 0.0510 Uiso
C27 C 0.9165(3) 0.3401(3) 0.3020(2) 0.0575 Uani
H17 H 0.9448 0.3911 0.2456 0.0860 Uiso
H18 H 0.8250 0.3029 0.2921 0.0860 Uiso
H19 H 0.9512 0.2742 0.3034 0.0860 Uiso
C29 C 0.6539(3) 0.1659(4) 0.9992(2) 0.0612 Uani
loop_
_atom_site_aniso_label
_atom_site_aniso_U_11
_atom_site_aniso_U_22
_atom_site_aniso_U_33
_atom_site_aniso_U_23
_atom_site_aniso_U_13
_atom_site_aniso_U_12
C23 0.0492 0.04 0.0607 -0.0018 -0.0096 0.026
C24 0.041 0.0474 0.0573 0.0048 -0.0072 0.0238
C30 0.054 0.056 0.129 -0.011 -0.034 0.0254
C2 0.0366 0.0333 0.0305 -0.0001 0.0055 0.0185
C3 0.0596 0.0314 0.0321 0.005 0.0129 0.0221
C8 0.0379 0.0299 0.0338 -0.0038 -0.0012 0.0153
C12 0.0476 0.0282 0.0399 -0.0023 0.0015 0.0158
C14 0.0595 0.0383 0.0301 -0.0005 0.0093 0.0251
C15 0.0393 0.0355 0.0322 0.0003 0.0091 0.0135
C18 0.0335 0.0302 0.033 -0.0017 0.0035 0.0154
C21 0.0463 0.0319 0.0377 0.0061 0.01 0.0153
C39 0.0366 0.0333 0.0305 -0.0001 0.0055 0.0185
C40 0.0596 0.0314 0.0321 0.005 0.0129 0.0221
C41 0.0379 0.0299 0.0338 -0.0038 -0.0012 0.0153
C42 0.0476 0.0282 0.0399 -0.0023 0.0015 0.0158
C43 0.0595 0.0383 0.0301 -0.0005 0.0093 0.0251
C44 0.0393 0.0355 0.0322 0.0003 0.0091 0.0135
C45 0.0335 0.0302 0.033 -0.0017 0.0035 0.0154
C46 0.0463 0.0319 0.0377 0.0061 0.01 0.0153
C56 0.0492 0.04 0.0607 -0.0018 -0.0096 0.026
C57 0.041 0.0474 0.0573 0.0048 -0.0072 0.0238
C60 0.054 0.056 0.129 -0.011 -0.034 0.0254
N5 0.0291 0.039 0.0381 0.0053 0.0103 0.0101
N6 0.0282 0.0335 0.0328 0.0022 0.0072 0.0133
C47 0.0304 0.0453 0.0359 0.0097 0.0123 0.0114
C48 0.0334 0.0467 0.0368 0.0043 0.0082 0.009
C49 0.031 0.0335 0.0386 0.0015 0.0107 0.012
C50 0.0283 0.0473 0.0411 0.0044 0.0074 0.0049
C51 0.0376 0.0339 0.046 0.0018 0.0106 0.0171
C52 0.0422 0.0331 0.0541 0.0061 0.0141 0.0136
C53 0.0426 0.07 0.0463 -0.008 0.0091 0.0046
Ni5 0.02615 0.02972 0.02669 0.0006 0.00785 0.01654
N7 0.0402 0.0517 0.0373 0.0094 0.0052 0.0298
N8 0.0361 0.044 0.0319 0.0038 0.0056 0.025
C54 0.0372 0.0455 0.0414 0.0094 0.0017 0.026
C55 0.0436 0.0592 0.0347 0.0128 0.0116 0.0362
C59 0.065 0.114 0.0327 0.0057 0.0116 0.065
O7 0.0478 0.0393 0.0455 -0.0004 0.0216 0.0198
O8 0.0473 0.0299 0.0354 0.0022 0.0158 0.018
O5 0.0351 0.0492 0.0336 -0.0065 0.0068 0.0245
O6 0.033 0.0535 0.0353 -0.0045 0.0047 0.0292
C31 0.0249 0.0309 0.0357 -0.0003 0.009 0.0146
C32 0.0265 0.0376 0.0354 -0.0016 0.0083 0.018
C34 0.036 0.0667 0.0417 -0.0205 -0.0002 0.0303
C35 0.0294 0.0483 0.0392 -0.0055 0.0049 0.025
C36 0.0282 0.0643 0.0435 -0.0171 -0.0015 0.0259
C37 0.0314 0.074 0.0427 -0.0184 -0.0048 0.0314
C38 0.0349 0.0661 0.0403 -0.0183 -0.0015 0.0302
C58 0.072 0.115 0.0327 0.0172 0.0124 0.065
C7 0.0317 0.0604 0.045 -0.0055 0.004 0.0304
C28 0.072 0.115 0.0327 0.0172 0.0124 0.065
C33 0.0317 0.0604 0.045 -0.0055 0.004 0.0304
Ni1 0.02615 0.02972 0.02669 0.0006 0.00785 0.01654
O1 0.0351 0.0492 0.0336 -0.0065 0.0068 0.0245
O2 0.033 0.0535 0.0353 -0.0045 0.0047 0.0292
O3 0.0478 0.0393 0.0455 -0.0004 0.0216 0.0198
C1 0.0249 0.0309 0.0357 -0.0003 0.009 0.0146
O4 0.0473 0.0299 0.0354 0.0022 0.0158 0.018
N1 0.0291 0.039 0.0381 0.0053 0.0103 0.0101
N2 0.0402 0.0517 0.0373 0.0094 0.0052 0.0298
N3 0.0282 0.0335 0.0328 0.0022 0.0072 0.0133
C4 0.0265 0.0376 0.0354 -0.0016 0.0083 0.018
C5 0.0304 0.0453 0.0359 0.0097 0.0123 0.0114
C6 0.0334 0.0467 0.0368 0.0043 0.0082 0.009
N4 0.0361 0.044 0.0319 0.0038 0.0056 0.025
C9 0.036 0.0667 0.0417 -0.0205 -0.0002 0.0303
C10 0.0372 0.0455 0.0414 0.0094 0.0017 0.026
C11 0.031 0.0335 0.0386 0.0015 0.0107 0.012
C13 0.0294 0.0483 0.0392 -0.0055 0.0049 0.025
C16 0.0283 0.0473 0.0411 0.0044 0.0074 0.0049
C17 0.0376 0.0339 0.046 0.0018 0.0106 0.0171
C19 0.0282 0.0643 0.0435 -0.0171 -0.0015 0.0259
C20 0.0436 0.0592 0.0347 0.0128 0.0116 0.0362
C22 0.0314 0.074 0.0427 -0.0184 -0.0048 0.0314
C25 0.0349 0.0661 0.0403 -0.0183 -0.0015 0.0302
C26 0.0422 0.0331 0.0541 0.0061 0.0141 0.0136
C27 0.0426 0.07 0.0463 -0.008 0.0091 0.0046
C29 0.065 0.114 0.0327 0.0057 0.0116 0.065
loop_
_geom_bond_atom_site_label_1
_geom_bond_atom_site_label_2
_geom_bond_site_symmetry_1
_geom_bond_site_symmetry_2
C23 H14 1_555 1_555
C24 C23 1_555 1_555
C30 C24 1_555 1_555
H22 C30 1_555 1_555
H23 C30 1_555 1_555
H24 C30 1_555 1_555
C3 H1 1_555 1_555
C8 C12 1_555 1_555
C12 H5 1_555 1_555
C14 C3 1_555 1_555
H6 C14 1_555 1_555
C15 H7 1_555 1_555
C18 C2 1_555 1_555
C21 C8 1_555 1_555
H12 C21 1_555 1_555
C39 C45 1_555 1_555
C40 H30 1_555 1_555
C41 C42 1_555 1_555
C42 C12 1_555 1_555
H31 C42 1_555 1_555
C43 C40 1_555 1_555
H32 C43 1_555 1_555
C44 H33 1_555 1_555
C45 C40 1_555 1_555
C46 C41 1_555 1_555
H34 C46 1_555 1_555
H43 C56 1_555 1_555
C60 C57 1_555 1_555
H46 C60 1_555 1_555
H47 C60 1_555 1_555
H48 C60 1_555 1_555
C3 C18 1_555 1_555
C8 C14 1_555 1_555
C15 C18 1_555 1_555
C15 C21 1_555 1_555
C41 C43 1_555 1_555
C44 C45 1_555 1_555
C44 C46 1_555 1_555
C56 C57 1_555 1_555
N5 C47 1_555 1_555
N6 C49 1_555 1_555
C49 N5 1_555 1_555
H35 C49 1_555 1_555
C50 C47 1_555 1_555
H36 C50 1_555 1_555
C51 N6 1_555 1_555
H37 C51 1_555 1_555
C52 N5 1_555 1_555
H38 C52 1_555 1_555
C53 C48 1_555 1_555
H39 C53 1_555 1_555
H40 C53 1_555 1_555
H41 C53 1_555 1_555
Ni5 N6 1_555 1_555
C48 C50 1_555 1_555
C51 C52 1_555 1_555
N7 C54 1_555 1_555
N8 C55 1_555 1_555
C55 N7 1_555 1_555
H42 C55 1_555 1_555
C59 N8 1_555 1_555
Ni5 N8 1_555 1_555
Ni5 O7 1_555 1_555
O8 Ni5 1_555 1_555
O5 C31 1_555 1_555
O6 C31 1_555 1_555
C31 C32 1_555 1_555
C32 C36 1_555 1_555
C36 C34 1_555 1_555
H27 C36 1_555 1_555
C37 C35 1_555 1_555
H28 C37 1_555 1_555
C38 C32 1_555 1_555
H29 C38 1_555 1_555
Ni5 O5 1_555 1_555
O6 Ni5 1_555 1_555
C34 C35 1_555 1_555
C37 C38 1_555 1_555
H44 C58 1_555 1_555
C7 H2 1_555 1_555
H20 C28 1_555 1_555
H25 C33 1_555 1_555
Ni1 O1 1_555 1_555
O1 C1 1_555 1_555
O2 Ni1 1_555 1_555
O3 Ni1 1_555 1_555
C1 O2 1_555 1_555
O4 Ni1 1_555 1_555
N1 C5 1_555 1_555
N2 C10 1_555 1_555
N3 Ni1 1_555 1_555
C4 C1 1_555 1_555
C5 C16 1_555 1_555
C6 C16 1_555 1_555
N4 Ni1 1_555 1_555
C11 N1 1_555 1_555
H4 C11 1_555 1_555
C16 H8 1_555 1_555
C17 N3 1_555 1_555
H9 C17 1_555 1_555
C19 C4 1_555 1_555
H10 C19 1_555 1_555
C20 N2 1_555 1_555
H11 C20 1_555 1_555
C22 C13 1_555 1_555
H13 C22 1_555 1_555
C25 C4 1_555 1_555
H15 C25 1_555 1_555
C26 N1 1_555 1_555
H16 C26 1_555 1_555
C27 C6 1_555 1_555
H17 C27 1_555 1_555
H18 C27 1_555 1_555
H19 C27 1_555 1_555
C29 N4 1_555 1_555
N3 C11 1_555 1_555
N4 C20 1_555 1_555
C9 C13 1_555 1_555
C9 C19 1_555 1_555
C17 C26 1_555 1_555
C22 C25 1_555 1_555

#END
