
###############################################################################
#
# This file contains modified crystal structure data generated from the
# MOF subset of the Cambridge Structural Database (CSD) v543 
# hosted by the Cambridge Crystallographic Data Centre (CCDC).
#
# This work is licensed under the Creative Commons
# Attribution-NonCommercial-ShareAlike 4.0 International License.
# To view a copy of this license, visit
# http://creativecommons.org/licenses/by-nc-sa/4.0/
# or send a letter to
# Creative Commons, PO Box 1866, Mountain View, CA 94042, USA.
#
# CIF created using the CSD Python API on 29 September 2022
# The structure has been converted into the P1 space group
# The structure has a 3D framework
# The original CSD entry DUKMON is in the monoclinic crystal system
# The framework has been calculated to contain at least 10.0% void space
# The void calculation uses a probe of radius 1.32A, grid spacing 0.4
#
###############################################################################

data_DUKMON
_chemical_formula_moiety         '(C100 H92 Co4 N16 O20)n'
_symmetry_cell_setting           triclinic
_symmetry_space_group_name_H-M   'P 1'
_symmetry_Int_Tables_number      1
_space_group_name_Hall           'P 1'
loop_
_symmetry_equiv_pos_site_id
_symmetry_equiv_pos_as_xyz
1 x,y,z
_cell_length_a                   9.6859(19)
_cell_length_b                   16.914(3)
_cell_length_c                   18.412(5)
_cell_angle_alpha                90
_cell_angle_beta                 115.16(2)
_cell_angle_gamma                90
_cell_volume                     2730.21
loop_
_atom_site_label
_atom_site_type_symbol
_atom_site_fract_x
_atom_site_fract_y
_atom_site_fract_z
O6 O 0.1717(4) 0.6517(3) 0.3010(2)
O7 O 0.3738(4) 0.7140(2) 0.3867(2)
O8 O 0.4566(4) 0.7552(2) 0.6666(2)
O9 O 0.2779(4) 0.7222(2) 0.7050(2)
C26 C 0.2481(5) 0.6781(3) 0.3694(3)
C27 C 0.1968(5) 0.6678(3) 0.4348(3)
C28 C 0.2838(5) 0.6976(3) 0.5108(3)
H24 H 0.3739 0.7244 0.5209
C29 C 0.2376(5) 0.6877(3) 0.5718(3)
C30 C 0.1020(5) 0.6473(3) 0.5566(3)
H25 H 0.0705 0.6401 0.5973
C31 C 0.0149(5) 0.6181(3) 0.4801(3)
C32 C 0.0633(5) 0.6278(3) 0.4195(3)
H26 H 0.0055 0.6074 0.3687
C33 C 0.3314(6) 0.7236(3) 0.6527(3)
Co3 Co 0.42360(7) 0.79222(4) 0.79267(4)
Co5 Co 0.42360(7) 0.70778(4) 0.29267(4)
N5 N 0.4504(5) 0.5960(2) 0.2616(2)
N6 N 0.5392(5) 0.5016(3) 0.2117(3)
C37 C 0.5600(6) 0.5743(3) 0.2417(3)
H33 H 0.6425 0.6062 0.2479
C38 C 0.3580(8) 0.5317(4) 0.2447(4)
H34 H 0.2709 0.5284 0.2538
C39 C 0.4096(8) 0.4739(4) 0.2131(4)
H35 H 0.3651 0.4246 0.1957
C40 C 0.6256(7) 0.4653(4) 0.1716(4)
H36 H 0.7300 0.4842 0.1965
H37 H 0.6276 0.4084 0.1790
C41 C 0.5583(6) 0.4835(3) 0.0824(3)
C42 C 0.5117(6) 0.5592(3) 0.0534(4)
H38 H 0.5197 0.5995 0.0893
C43 C 0.5461(6) 0.4239(3) 0.0273(4)
H39 H 0.5772 0.3728 0.0453
N7 N 0.6366(4) 0.7531(2) 0.3536(2)
N8 N 0.8374(5) 0.8030(2) 0.4528(3)
C44 C 0.7496(6) 0.7668(3) 0.3285(3)
H40 H 0.7423 0.7560 0.2774
C45 C 0.6950(6) 0.7756(3) 0.4297(3)
H41 H 0.6442 0.7728 0.4627
C46 C 0.8718(6) 0.7978(3) 0.3888(4)
H42 H 0.9627 0.8129 0.3872
C47 C 0.9335(6) 0.8397(3) 0.5305(4)
H43 H 0.8804 0.8392 0.5648
C48 C 0.9696(6) 0.9230(3) 0.5174(3)
C49 C 0.8596(6) 0.9810(3) 0.4955(4)
H45 H 0.7632 0.9688 0.4917
O12 O 0.2779(4) 0.7778(2) 0.2050(2)
O3 O 0.4566(4) 0.7448(2) 0.1666(2)
C3 C 0.2838(5) 0.8024(3) 0.0108(3)
H1 H 0.3739 0.7756 0.0209
C4 C 0.2376(5) 0.8123(3) 0.0718(3)
C5 C 0.1020(5) 0.8527(3) 0.0566(3)
H2 H 0.0705 0.8599 0.0973
C8 C 0.3314(6) 0.7764(3) 0.1527(3)
C15 C 0.9335(6) 0.6603(3) 0.0305(4)
H13 H 0.8804 0.6608 0.0648
C16 C 0.9696(6) 0.5770(3) 0.0174(3)
O1 O 0.1717(4) 0.8483(3) 0.8010(2)
O2 O 0.3738(4) 0.7860(2) 0.8867(2)
N1 N 0.4504(5) 0.9040(2) 0.7616(2)
N2 N 0.5392(5) 0.9984(3) 0.7117(3)
N3 N 0.6366(4) 0.7469(2) 0.8536(2)
N4 N 0.8374(5) 0.6970(2) 0.9528(3)
C1 C 0.2481(5) 0.8219(3) 0.8694(3)
C2 C 0.1968(5) 0.8322(3) 0.9348(3)
C6 C 0.0149(5) 0.8819(3) 0.9801(3)
C7 C 0.0633(5) 0.8722(3) 0.9195(3)
H3 H 0.0055 0.8926 0.8687
C12 C 0.7496(6) 0.7332(3) 0.8285(3)
H10 H 0.7423 0.7440 0.7774
C13 C 0.6950(6) 0.7244(3) 0.9297(3)
H11 H 0.6442 0.7272 0.9627
C14 C 0.8718(6) 0.7022(3) 0.8888(4)
H12 H 0.9627 0.6871 0.8872
C17 C 0.8596(6) 0.5190(3) 0.9955(4)
H15 H 0.7632 0.5312 0.9917
C19 C 0.5600(6) 0.9257(3) 0.7417(3)
H17 H 0.6425 0.8938 0.7479
C20 C 0.3580(8) 0.9683(4) 0.7447(4)
H18 H 0.2709 0.9716 0.7538
C24 C 0.5117(6) 0.9408(3) 0.5534(4)
H22 H 0.5197 0.9005 0.5893
C39_2 C 0.5904(8) 0.9739(4) 0.2869(4)
H35_2 H 0.6349 0.9246 0.3043
C40_2 C 0.3744(7) 0.9653(4) 0.3284(4)
H36_2 H 0.2700 0.9842 0.3035
H37_2 H 0.3724 0.9084 0.3210
C41_2 C 0.4417(6) 0.9835(3) 0.4176(3)
C43_2 C 0.4539(6) 0.9239(3) 0.4727(4)
H39_2 H 0.4228 0.8728 0.4547
H44 H 0.9727 0.3098 0.9431
C50 C 0.8897(7) 0.4434(3) 0.9790(5)
H46 H 0.8137 0.4051 0.9651
O5 O 0.1206(4) 0.4210(2) 0.5427(2)
C9 C 0.1867(5) 0.4273(3) 0.4862(3)
H4 H 0.1217 0.4586 0.4402
H5 H 0.1995 0.3753 0.4677
C10 C 0.3389(5) 0.4669(3) 0.5298(3)
H6 H 0.4011 0.4351 0.5761
H7 H 0.3236 0.5179 0.5492
C11 C 0.4239(5) 0.4786(3) 0.4776(3)
H8 H 0.3606 0.5089 0.4304
H9 H 0.4428 0.4274 0.4597
O10 O 0.8794(4) 0.5790(2) 0.4573(2)
C34 C 0.8133(5) 0.5727(3) 0.5138(3)
H27 H 0.8783 0.5414 0.5598
H28 H 0.8005 0.6247 0.5323
C35 C 0.6611(5) 0.5331(3) 0.4702(3)
H29 H 0.5989 0.5649 0.4239
H30 H 0.6764 0.4821 0.4508
C36 C 0.5761(5) 0.5214(3) 0.5224(3)
H31 H 0.6394 0.4911 0.5696
H32 H 0.5572 0.5726 0.5403
Co1 Co 0.57640(7) 0.29222(4) 0.70733(4)
O1_2 O 0.8283(4) 0.3483(3) 0.6990(2)
O2_2 O 0.6262(4) 0.2860(2) 0.6133(2)
O3_2 O 0.5434(4) 0.2448(2) 0.3334(2)
O4 O 0.7221(4) 0.2778(2) 0.2950(2)
N1_2 N 0.5496(5) 0.4040(2) 0.7384(2)
N2_2 N 0.4608(5) 0.4984(3) 0.7883(3)
N3_2 N 0.3634(4) 0.2469(2) 0.6464(2)
N4_2 N 0.1626(5) 0.1970(2) 0.5472(3)
C1_2 C 0.7519(5) 0.3219(3) 0.6306(3)
C2_2 C 0.8032(5) 0.3322(3) 0.5652(3)
C3_2 C 0.7162(5) 0.3024(3) 0.4892(3)
H1_2 H 0.6261 0.2756 0.4791
C4_2 C 0.7624(5) 0.3123(3) 0.4282(3)
C5_2 C 0.8980(5) 0.3527(3) 0.4434(3)
H2_2 H 0.9295 0.3599 0.4027
C6_2 C 0.9851(5) 0.3819(3) 0.5199(3)
C7_2 C 0.9367(5) 0.3722(3) 0.5805(3)
H3_2 H 0.9945 0.3926 0.6313
C8_2 C 0.6686(6) 0.2764(3) 0.3473(3)
C12_2 C 0.2504(6) 0.2332(3) 0.6715(3)
H10_2 H 0.2577 0.2440 0.7226
C13_2 C 0.3050(6) 0.2244(3) 0.5703(3)
H11_2 H 0.3558 0.2272 0.5373
C14_2 C 0.1282(6) 0.2022(3) 0.6112(4)
H12_2 H 0.0373 0.1871 0.6128
C15_2 C 0.0665(6) 0.1603(3) 0.4695(4)
H13_2 H 0.1196 0.1608 0.4352
C16_2 C 0.0304(6) 0.0770(3) 0.4826(3)
C17_2 C 0.1404(6) 0.0190(3) 0.5045(4)
H15_2 H 0.2368 0.0312 0.5083
C19_2 C 0.4400(6) 0.4257(3) 0.7583(3)
H17_2 H 0.3575 0.3938 0.7521
C20_2 C 0.6420(8) 0.4683(4) 0.7553(4)
H18_2 H 0.7291 0.4716 0.7462
C21 C 0.5904(8) 0.5261(4) 0.7869(4)
H19 H 0.6349 0.5754 0.8043
C22 C 0.3744(7) 0.5347(4) 0.8284(4)
H20 H 0.2700 0.5158 0.8035
H21 H 0.3724 0.5916 0.8210
C23 C 0.4417(6) 0.5165(3) 0.9176(3)
C24_2 C 0.4883(6) 0.4408(3) 0.9466(4)
H22_2 H 0.4803 0.4005 0.9107
C25 C 0.4539(6) 0.5761(3) 0.9727(4)
H23 H 0.4228 0.6272 0.9547
Co6 Co 0.57640(7) 0.20778(4) 0.20733(4)
O13 O 0.7221(4) 0.2222(2) 0.7950(2)
H14 H 0.0273 0.6902 0.0569
C18 C 0.1103(7) 0.5566(3) 0.0210(5)
H16 H 0.1863 0.5949 0.0349
N7_2 N 0.3634(4) 0.2531(2) 0.1464(2)
N8_2 N 0.1626(5) 0.3030(2) 0.0472(3)
C44_2 C 0.2504(6) 0.2668(3) 0.1715(3)
H40_2 H 0.2577 0.2560 0.2226
C45_2 C 0.3050(6) 0.2756(3) 0.0703(3)
H41_2 H 0.3558 0.2728 0.0373
C46_2 C 0.1282(6) 0.2978(3) 0.1112(4)
H42_2 H 0.0373 0.3129 0.1128
C49_2 C 0.1404(6) 0.4810(3) 0.0045(4)
H45_2 H 0.2368 0.4688 0.0083
O11 O 0.6262(4) 0.2140(2) 0.1133(2)
N9 N 0.5496(5) 0.0960(2) 0.2384(2)
C47_2 C 0.0665(6) 0.3397(3) 0.9695(4)
H43_2 H 0.1196 0.3392 0.9352
C48_2 C 0.0304(6) 0.4230(3) 0.9826(3)
C21_2 C 0.4096(8) 0.0261(4) 0.7131(4)
H19_2 H 0.3651 0.0754 0.6957
C22_2 C 0.6256(7) 0.0347(4) 0.6716(4)
H20_2 H 0.7300 0.0158 0.6965
H21_2 H 0.6276 0.0916 0.6790
C23_2 C 0.5583(6) 0.0165(3) 0.5824(3)
C25_2 C 0.5461(6) 0.0761(3) 0.5273(4)
H23_2 H 0.5772 0.1272 0.5453
N6_2 N 0.4608(5) 0.0016(3) 0.2883(3)
C37_2 C 0.4400(6) 0.0743(3) 0.2583(3)
H33_2 H 0.3575 0.1062 0.2521
C38_2 C 0.6420(8) 0.0317(4) 0.2553(4)
H34_2 H 0.7291 0.0284 0.2462
C42_2 C 0.4883(6) 0.0592(3) 0.4466(4)
H38_2 H 0.4803 0.0995 0.4107
O6_2 O 0.8283(4) 0.1517(3) 0.1990(2)
C26_2 C 0.7519(5) 0.1781(3) 0.1306(3)
C27_2 C 0.8032(5) 0.1678(3) 0.0652(3)
C31_2 C 0.9851(5) 0.1181(3) 0.0199(3)
C32_2 C 0.9367(5) 0.1278(3) 0.0805(3)
H26_2 H 0.9945 0.1074 0.1313
O8_2 O 0.5434(4) 0.2552(2) 0.8334(2)
C28_2 C 0.7162(5) 0.1976(3) 0.9892(3)
H24_2 H 0.6261 0.2244 0.9791
C29_2 C 0.7624(5) 0.1877(3) 0.9282(3)
C30_2 C 0.8980(5) 0.1473(3) 0.9434(3)
H25_2 H 0.9295 0.1401 0.9027
C33_2 C 0.6686(6) 0.2236(3) 0.8473(3)
H44_2 H 0.0273 0.8098 0.5569
C50_2 C 0.1103(7) 0.9434(3) 0.5210(5)
H46_2 H 0.1863 0.9051 0.5349
H14_2 H 0.9727 0.1902 0.4431
C18_2 C 0.8897(7) 0.0566(3) 0.4790(5)
H16_2 H 0.8137 0.0949 0.4651
H8_2 H 0.6394 0.0089 0.0696
O10_2 O 0.1206(4) 0.0790(2) 0.0427(2)
C35_2 C 0.3389(5) 0.0331(3) 0.0298(3)
H29_2 H 0.4011 0.0649 0.0761
H7_2 H 0.6764 0.0179 0.9508
C34_2 C 0.1867(5) 0.0727(3) 0.9862(3)
H27_2 H 0.1217 0.0414 0.9402
H28_2 H 0.1995 0.1247 0.9677
C36_2 C 0.4239(5) 0.0214(3) 0.9776(3)
H32_2 H 0.4428 0.0726 0.9597
C9_2 C 0.8133(5) 0.9273(3) 0.0138(3)
H4_2 H 0.8783 0.9586 0.0598
H5_2 H 0.8005 0.8753 0.0323
C11_2 C 0.5761(5) 0.9786(3) 0.0224(3)
H9_2 H 0.5572 0.9274 0.0403
H30_2 H 0.3236 0.9821 0.0492
O5_2 O 0.8794(4) 0.9210(2) 0.9573(2)
C10_2 C 0.6611(5) 0.9669(3) 0.9702(3)
H6_2 H 0.5989 0.9351 0.9239
H31_2 H 0.3606 0.9911 0.9304
loop_
_geom_bond_atom_site_label_1
_geom_bond_atom_site_label_2
_geom_bond_site_symmetry_1
_geom_bond_site_symmetry_2
O6 C26 1_555 1_555
O7 C26 1_555 1_555
O8 C33 1_555 1_555
O9 C33 1_555 1_555
C26 C27 1_555 1_555
C27 C28 1_555 1_555
C28 H24 1_555 1_555
C29 C28 1_555 1_555
C30 C29 1_555 1_555
H25 C30 1_555 1_555
C31 C30 1_555 1_555
C32 C27 1_555 1_555
H26 C32 1_555 1_555
C33 C29 1_555 1_555
Co3 O9 1_555 1_555
Co5 O7 1_555 1_555
C31 C32 1_555 1_555
N5 C37 1_555 1_555
N6 C37 1_555 1_555
C37 H33 1_555 1_555
C38 N5 1_555 1_555
H34 C38 1_555 1_555
C39 N6 1_555 1_555
H35 C39 1_555 1_555
C40 N6 1_555 1_555
H36 C40 1_555 1_555
H37 C40 1_555 1_555
C41 C40 1_555 1_555
H38 C42 1_555 1_555
H39 C43 1_555 1_555
Co5 N5 1_555 1_555
C38 C39 1_555 1_555
C41 C42 1_555 1_555
C41 C43 1_555 1_555
N7 C44 1_555 1_555
N8 C45 1_555 1_555
C44 H40 1_555 1_555
C45 N7 1_555 1_555
H41 C45 1_555 1_555
C46 N8 1_555 1_555
H42 C46 1_555 1_555
C47 N8 1_555 1_555
H43 C47 1_555 1_555
C48 C47 1_555 1_555
H45 C49 1_555 1_555
Co5 N7 1_555 1_555
O12 Co5 1_555 1_555
C44 C46 1_555 1_555
C48 C49 1_555 1_555
O3 C8 1_555 1_555
O12 C8 1_555 1_555
C3 H1 1_555 1_555
C4 C3 1_555 1_555
C5 C4 1_555 1_555
H2 C5 1_555 1_555
C8 C4 1_555 1_555
H13 C15 1_555 1_555
C16 C15 1_555 1_555
Co3 O2 1_555 1_555
O1 C1 1_555 1_555
O2 C1 1_555 1_555
N1 Co3 1_555 1_555
N2 C19 1_555 1_555
N3 Co3 1_555 1_555
N4 C13 1_555 1_555
C1 C2 1_555 1_555
C7 C2 1_555 1_555
H3 C7 1_555 1_555
C12 N3 1_555 1_555
H10 C12 1_555 1_555
C13 N3 1_555 1_555
H11 C13 1_555 1_555
C14 N4 1_555 1_555
H12 C14 1_555 1_555
H15 C17 1_555 1_555
C19 N1 1_555 1_555
H17 C19 1_555 1_555
C20 N1 1_555 1_555
H18 C20 1_555 1_555
H22 C24 1_555 1_555
H35_2 C39_2 1_555 1_555
H36_2 C40_2 1_555 1_555
H37_2 C40_2 1_555 1_555
C41_2 C40_2 1_555 1_555
C43_2 C24 1_555 1_555
H39_2 C43_2 1_555 1_555
C50 C17 1_555 1_555
H46 C50 1_555 1_555
C6 C7 1_555 1_555
C12 C14 1_555 1_555
C41_2 C43_2 1_555 1_555
C9 O5 1_555 1_555
H4 C9 1_555 1_555
H5 C9 1_555 1_555
C10 C9 1_555 1_555
H6 C10 1_555 1_555
H7 C10 1_555 1_555
C11 C10 1_555 1_555
H8 C11 1_555 1_555
H9 C11 1_555 1_555
C34 O10 1_555 1_555
H27 C34 1_555 1_555
H28 C34 1_555 1_555
C35 C34 1_555 1_555
H29 C35 1_555 1_555
H30 C35 1_555 1_555
C36 C11 1_555 1_555
H31 C36 1_555 1_555
H32 C36 1_555 1_555
C35 C36 1_555 1_555
Co1 O2_2 1_555 1_555
O1_2 C1_2 1_555 1_555
O2_2 C1_2 1_555 1_555
O3_2 C8_2 1_555 1_555
O4 C8_2 1_555 1_555
N1_2 Co1 1_555 1_555
N2_2 C19_2 1_555 1_555
N3_2 Co1 1_555 1_555
N4_2 C13_2 1_555 1_555
C1_2 C2_2 1_555 1_555
C2_2 C3_2 1_555 1_555
C3_2 H1_2 1_555 1_555
C4_2 C3_2 1_555 1_555
C5_2 C4_2 1_555 1_555
H2_2 C5_2 1_555 1_555
C6_2 C5_2 1_555 1_555
C7_2 C2_2 1_555 1_555
H3_2 C7_2 1_555 1_555
C8_2 C4_2 1_555 1_555
C12_2 N3_2 1_555 1_555
H10_2 C12_2 1_555 1_555
C13_2 N3_2 1_555 1_555
H11_2 C13_2 1_555 1_555
C14_2 N4_2 1_555 1_555
H12_2 C14_2 1_555 1_555
C15_2 N4_2 1_555 1_555
H13_2 C15_2 1_555 1_555
C16_2 C15_2 1_555 1_555
C17_2 C16_2 1_555 1_555
H15_2 C17_2 1_555 1_555
C19_2 N1_2 1_555 1_555
H17_2 C19_2 1_555 1_555
C20_2 N1_2 1_555 1_555
H18_2 C20_2 1_555 1_555
C21 N2_2 1_555 1_555
H19 C21 1_555 1_555
C22 N2_2 1_555 1_555
H20 C22 1_555 1_555
H21 C22 1_555 1_555
C23 C22 1_555 1_555
C24_2 C23 1_555 1_555
H22_2 C24_2 1_555 1_555
C25 C23 1_555 1_555
H23 C25 1_555 1_555
Co6 O4 1_555 1_555
O13 Co1 1_555 1_555
C6_2 C7_2 1_555 1_555
C12_2 C14_2 1_555 1_555
C20_2 C21 1_555 1_555
H16 C18 1_555 1_555
N7_2 C44_2 1_555 1_555
N8_2 C45_2 1_555 1_555
C44_2 H40_2 1_555 1_555
C45_2 N7_2 1_555 1_555
H41_2 C45_2 1_555 1_555
C46_2 N8_2 1_555 1_555
H42_2 C46_2 1_555 1_555
C49_2 C18 1_555 1_555
H45_2 C49_2 1_555 1_555
Co6 N7_2 1_555 1_555
O11 Co6 1_555 1_555
N9 Co6 1_555 1_555
C44_2 C46_2 1_555 1_555
H43_2 C47_2 1_555 1_555
C48_2 C47_2 1_555 1_555
H19_2 C21_2 1_555 1_555
H20_2 C22_2 1_555 1_555
H21_2 C22_2 1_555 1_555
C23_2 C22_2 1_555 1_555
C25_2 C23_2 1_555 1_555
H23_2 C25_2 1_555 1_555
N9 C37_2 1_555 1_555
N6_2 C37_2 1_555 1_555
C37_2 H33_2 1_555 1_555
C38_2 N9 1_555 1_555
H34_2 C38_2 1_555 1_555
C42_2 C25_2 1_555 1_555
H38_2 C42_2 1_555 1_555
O6_2 C26_2 1_555 1_555
O11 C26_2 1_555 1_555
C26_2 C27_2 1_555 1_555
C32_2 C27_2 1_555 1_555
H26_2 C32_2 1_555 1_555
C31_2 C32_2 1_555 1_555
O8_2 C33_2 1_555 1_555
O13 C33_2 1_555 1_555
C28_2 H24_2 1_555 1_555
C29_2 C28_2 1_555 1_555
C30_2 C29_2 1_555 1_555
H25_2 C30_2 1_555 1_555
C33_2 C29_2 1_555 1_555
H46_2 C50_2 1_555 1_555
H16_2 C18_2 1_555 1_555
H29_2 C35_2 1_555 1_555
H27_2 C34_2 1_555 1_555
H28_2 C34_2 1_555 1_555
H32_2 C36_2 1_555 1_555
H4_2 C9_2 1_555 1_555
H5_2 C9_2 1_555 1_555
H9_2 C11_2 1_555 1_555
H6_2 C10_2 1_555 1_555

#END
