
###############################################################################
#
# This file contains modified crystal structure data generated from the
# MOF subset of the Cambridge Structural Database (CSD) v543 
# hosted by the Cambridge Crystallographic Data Centre (CCDC).
#
# This work is licensed under the Creative Commons
# Attribution-NonCommercial-ShareAlike 4.0 International License.
# To view a copy of this license, visit
# http://creativecommons.org/licenses/by-nc-sa/4.0/
# or send a letter to
# Creative Commons, PO Box 1866, Mountain View, CA 94042, USA.
#
# CIF created using the CSD Python API on 29 September 2022
# The structure has been converted into the P1 space group
# The structure has a 3D framework
# The original CSD entry DUKNEE is in the monoclinic crystal system
# The framework has been calculated to contain at least 10.0% void space
# The void calculation uses a probe of radius 1.32A, grid spacing 0.4
# H atom positions have been added when not included in the experimental data
#
###############################################################################

data_DUKNEE
_chemical_formula_moiety         '(C424 H352 Cd16 N32 O126)n'
_symmetry_cell_setting           triclinic
_symmetry_space_group_name_H-M   'P 1'
_symmetry_Int_Tables_number      1
_space_group_name_Hall           'P 1'
loop_
_symmetry_equiv_pos_site_id
_symmetry_equiv_pos_as_xyz
1 x,y,z
_cell_length_a                   45.94(3)
_cell_length_b                   11.228(7)
_cell_length_c                   24.489(16)
_cell_angle_alpha                90
_cell_angle_beta                 98.809(12)
_cell_angle_gamma                90
_cell_volume                     12482.8
loop_
_atom_site_label
_atom_site_type_symbol
_atom_site_fract_x
_atom_site_fract_y
_atom_site_fract_z
Cd1 Cd 0.014219(9) 0.33746(4) 0.058934(17)
N2 N 0.04220(11) 0.2162(5) 0.1231(2)
N4 N 0.18441(12) 0.2573(5) 0.5165(2)
O4 O 0.03862(8) 0.5062(3) 0.09433(17)
H1 H 0.0268 0.5472 0.1175
H2 H 0.0420 0.5574 0.0645
O12 O 0.49905(10) 0.0372(4) 0.16290(19)
C11 C 0.06028(14) 0.2614(6) 0.1652(2)
H11 H 0.0628 0.3436 0.1670
C12 C 0.07567(14) 0.1920(6) 0.2066(3)
H12 H 0.0882 0.2271 0.2356
C13 C 0.07215(13) 0.0715(5) 0.2043(3)
C14 C 0.05365(15) 0.0230(6) 0.1595(3)
C15 C 0.03850(16) 0.0979(6) 0.1217(3)
H14 H 0.0250 0.0655 0.0935
C16 C 0.10596(14) 0.0364(5) 0.2862(2)
H15 H 0.0964 0.0942 0.3069
H16 H 0.1222 0.0751 0.2723
O13 O 0.12930(10) 0.0688(5) 0.39864(19)
C22 C 0.14823(12) 0.1267(6) 0.4372(2)
C23 C 0.13718(15) 0.2162(7) 0.4652(3)
H21 H 0.1172 0.2351 0.4579
C24 C 0.17778(13) 0.0998(6) 0.4490(2)
H22 H 0.1859 0.0388 0.4306
C31 C 0.15577(15) 0.2789(7) 0.5044(3)
H29 H 0.1478 0.3396 0.5234
C32 C 0.19482(14) 0.1663(6) 0.4891(3)
H30 H 0.2147 0.1472 0.4979
H32 H 0.3326 0.0547 0.1543
C44 C 0.44670(13) 0.0365(5) 0.2149(3)
H37 H 0.4626 0.0787 0.2338
C45 C 0.42091(13) 0.0344(6) 0.2349(3)
H38 H 0.4194 0.0739 0.2677
Cd6 Cd 0.216813(10) 0.36208(4) 0.579574(19)
H43 H 0.16031 0.00491448 0.351742
N5 N 0.04454(11) 0.3183(5) 0.9924(2)
Cd2 Cd 0.216813(10) 0.63792(4) 0.079574(19)
N1 N 0.04454(11) 0.6817(5) 0.4924(2)
N3 N 0.19669(11) 0.7213(5) 0.1544(2)
O3 O 0.48032(11) 0.8887(6) 0.1091(2)
O5 O 0.08556(10) 0.9905(4) 0.24161(17)
O6 O 0.10109(9) 0.7930(4) 0.38679(18)
C2 C 0.14140(12) 0.9729(5) 0.3694(2)
H3 H 0.1013 0.0636 0.0299
O7 O 0.15371(10) 0.8928(4) 0.26689(18)
O8 O 0.23650(12) 0.5615(5) 0.0045(2)
H6 H 0.2491 0.5015 0.0151
O9 O 0.25254(9) 0.8022(4) 0.08456(18)
O10 O 0.26287(10) 0.6461(4) 0.1388(2)
C9 C 0.03447(14) 0.7416(6) 0.4461(2)
H9 H 0.0144 0.7578 0.4387
O11 O 0.37160(10) 0.9775(6) 0.2332(2)
C10 C 0.07326(15) 0.6553(6) 0.5001(3)
H10 H 0.0807 0.6099 0.5309
H13 H 0.0517 0.9409 0.1555
C17 C 0.11713(13) 0.9305(6) 0.3230(2)
C18 C 0.09107(14) 0.8791(6) 0.3453(3)
H17 H 0.0805 0.9421 0.3609
H18 H 0.0778 0.8418 0.3156
C19 C 0.08134(13) 0.7560(5) 0.4195(2)
C20 C 0.09240(15) 0.6903(7) 0.4660(3)
H19 H 0.1123 0.6707 0.4737
C21 C 0.05172(14) 0.7806(6) 0.4090(3)
H20 H 0.0436 0.8225 0.3775
C25 C 0.13098(14) 0.8366(5) 0.2903(3)
H23 H 0.1390 0.7722 0.3144
H24 H 0.1163 0.8040 0.2615
C26 C 0.16786(14) 0.8305(5) 0.2309(2)
C27 C 0.18782(15) 0.8925(7) 0.2063(3)
H25 H 0.1919 0.9720 0.2150
C28 C 0.20167(16) 0.8341(6) 0.1682(3)
H26 H 0.2153 0.8761 0.1512
C29 C 0.17733(14) 0.6624(5) 0.1797(3)
H27 H 0.1739 0.5827 0.1707
C30 C 0.16244(14) 0.7110(6) 0.2175(2)
H28 H 0.1491 0.6665 0.2340
C33 C 0.26866(13) 0.7479(6) 0.1225(3)
C34 C 0.29633(13) 0.8078(6) 0.1517(3)
C35 C 0.30368(17) 0.9207(7) 0.1365(3)
H31 H 0.2919 0.9591 0.1076
C36 C 0.32823(19) 0.9772(8) 0.1636(4)
C37 C 0.34587(14) 0.9191(8) 0.2037(3)
C38 C 0.33887(16) 0.8090(8) 0.2204(4)
H33 H 0.3504 0.7719 0.2501
C39 C 0.31479(16) 0.7544(7) 0.1927(3)
H34 H 0.3108 0.6767 0.2023
C40 C 0.39712(13) 0.9753(6) 0.2078(3)
C41 C 0.39937(14) 0.9134(8) 0.1607(3)
H35 H 0.3834 0.8701 0.1431
C42 C 0.42563(14) 0.9153(7) 0.1393(3)
H36 H 0.4270 0.8755 0.1064
C43 C 0.44990(13) 0.9761(6) 0.1664(2)
C46 C 0.47852(13) 0.9696(6) 0.1445(3)
C47 C 0.1854(3) 0.4178(15) 0.0898(8)
O14 O 0.1672(3) 0.5030(10) 0.0809(5)
O15 O 0.2124(3) 0.4342(11) 0.0930(5)
C48 C 0.17482(18) 0.2900(7) 0.0846(4)
C49 C 0.1512(2) 0.2834(10) 0.1100(4)
H39 H 0.1433 0.3511 0.1238
C50 C 0.1872(3) 0.1908(10) 0.0724(6)
H40 H 0.2050 0.1955 0.0592
C51 C 0.1505(2) 0.0760(9) 0.0966(5)
C52 C 0.1386(2) 0.1679(12) 0.1152(5)
H41 H 0.1218 0.1597 0.1319
C53 C 0.1754(3) 0.0805(10) 0.0780(5)
H42 H 0.1848 0.0118 0.0688
Cd3 Cd 0.514219(9) 0.83746(4) 0.058934(17)
Cd5 Cd 0.014219(9) 0.66254(4) 0.558934(17)
N6 N 0.18441(12) 0.7427(5) 0.0165(2)
H44 H 0.14819 0.899717 0.397679
O17 O 0.98310(10) 0.1702(4) 0.03452(19)
O19 O 0.98032(11) 0.3887(6) 0.1091(2)
O1 O 0.98310(10) 0.8298(4) 0.53452(19)
O2 O 0.97300(9) 0.6662(4) 0.48687(18)
C1 C 0.8882(2) 0.9287(8) 0.4162(4)
C3 C 0.9047(2) 0.9893(8) 0.4593(4)
C4 C 0.93031(16) 0.9380(7) 0.4862(3)
H4 H 0.9417 0.9783 0.5151
C5 C 0.93917(14) 0.8251(5) 0.4702(3)
C6 C 0.92208(15) 0.7707(6) 0.4266(3)
H5 H 0.9276 0.6963 0.4151
C7 C 0.89685(18) 0.8233(8) 0.3994(4)
H8 H 0.8859 0.7853 0.3693
C8 C 0.96678(12) 0.7716(5) 0.4981(2)
O16 O 0.8622(2) 0.9692(8) 0.3885(4)
Cd2_2 Cd 0.716813(10) 0.13792(4) 0.079574(19)
N1_2 N 0.54454(11) 0.1817(5) 0.4924(2)
N2_2 N 0.54220(11) 0.7162(5) 0.1231(2)
N3_2 N 0.69669(11) 0.2213(5) 0.1544(2)
N4_2 N 0.68441(12) 0.7573(5) 0.5165(2)
O5_2 O 0.58556(10) 0.4905(4) 0.24161(17)
O6_2 O 0.60109(9) 0.2930(4) 0.38679(18)
C2_2 C 0.64140(12) 0.4729(5) 0.3694(2)
O7_2 O 0.65371(10) 0.3928(4) 0.26689(18)
O8_2 O 0.73650(12) 0.0615(5) 0.0045(2)
H6_2 H 0.7491 0.0015 0.0151
O9_2 O 0.75254(9) 0.3022(4) 0.08456(18)
O10_2 O 0.76287(10) 0.1461(4) 0.1388(2)
C9_2 C 0.53447(14) 0.2416(6) 0.4461(2)
H9_2 H 0.5144 0.2578 0.4387
O11_2 O 0.87160(10) 0.4775(6) 0.2332(2)
C10_2 C 0.57326(15) 0.1553(6) 0.5001(3)
H10_2 H 0.5807 0.1099 0.5309
O12_2 O 0.99905(10) 0.5372(4) 0.16290(19)
C11_2 C 0.56028(14) 0.7614(6) 0.1652(2)
H11_2 H 0.5628 0.8436 0.1670
C12_2 C 0.57567(14) 0.6920(6) 0.2066(3)
H12_2 H 0.5882 0.7271 0.2356
C13_2 C 0.57215(13) 0.5715(5) 0.2043(3)
C14_2 C 0.55365(15) 0.5230(6) 0.1595(3)
H13_2 H 0.5517 0.4409 0.1555
C15_2 C 0.53850(16) 0.5979(6) 0.1217(3)
H14_2 H 0.5250 0.5655 0.0935
C16_2 C 0.60596(14) 0.5364(5) 0.2862(2)
H15_2 H 0.5964 0.5942 0.3069
H16_2 H 0.6222 0.5751 0.2723
C17_2 C 0.61713(13) 0.4305(6) 0.3230(2)
C18_2 C 0.59107(14) 0.3791(6) 0.3453(3)
H17_2 H 0.5805 0.4421 0.3609
H18_2 H 0.5778 0.3418 0.3156
C19_2 C 0.58134(13) 0.2560(5) 0.4195(2)
C20_2 C 0.59240(15) 0.1903(7) 0.4660(3)
H19_2 H 0.6123 0.1707 0.4737
C21_2 C 0.55172(14) 0.2806(6) 0.4090(3)
H20_2 H 0.5436 0.3225 0.3775
O13_2 O 0.62930(10) 0.5688(5) 0.39864(19)
C22_2 C 0.64823(12) 0.6267(6) 0.4372(2)
C23_2 C 0.63718(15) 0.7162(7) 0.4652(3)
H21_2 H 0.6172 0.7351 0.4579
C24_2 C 0.67778(13) 0.5998(6) 0.4490(2)
H22_2 H 0.6859 0.5388 0.4306
C25_2 C 0.63098(14) 0.3366(5) 0.2903(3)
H23_2 H 0.6390 0.2722 0.3144
H24_2 H 0.6163 0.3040 0.2615
C26_2 C 0.66786(14) 0.3305(5) 0.2309(2)
C27_2 C 0.68782(15) 0.3925(7) 0.2063(3)
H25_2 H 0.6919 0.4720 0.2150
C28_2 C 0.70167(16) 0.3341(6) 0.1682(3)
H26_2 H 0.7153 0.3761 0.1512
C29_2 C 0.67733(14) 0.1624(5) 0.1797(3)
H27_2 H 0.6739 0.0827 0.1707
C30_2 C 0.66244(14) 0.2110(6) 0.2175(2)
H28_2 H 0.6491 0.1665 0.2340
C31_2 C 0.65577(15) 0.7789(7) 0.5044(3)
H29_2 H 0.6478 0.8396 0.5234
C32_2 C 0.69482(14) 0.6663(6) 0.4891(3)
H30_2 H 0.7147 0.6472 0.4979
C33_2 C 0.76866(13) 0.2479(6) 0.1225(3)
C34_2 C 0.79633(13) 0.3078(6) 0.1517(3)
C35_2 C 0.80368(17) 0.4207(7) 0.1365(3)
H31_2 H 0.7919 0.4591 0.1076
C36_2 C 0.82823(19) 0.4772(8) 0.1636(4)
H32_2 H 0.8326 0.5547 0.1543
C37_2 C 0.84587(14) 0.4191(8) 0.2037(3)
C38_2 C 0.83887(16) 0.3090(8) 0.2204(4)
H33_2 H 0.8504 0.2719 0.2501
C39_2 C 0.81479(16) 0.2544(7) 0.1927(3)
H34_2 H 0.8108 0.1767 0.2023
C40_2 C 0.89712(13) 0.4753(6) 0.2078(3)
C41_2 C 0.89937(14) 0.4134(8) 0.1607(3)
H35_2 H 0.8834 0.3701 0.1431
C42_2 C 0.92563(14) 0.4153(7) 0.1393(3)
H36_2 H 0.9270 0.3755 0.1064
C43_2 C 0.94990(13) 0.4761(6) 0.1664(2)
C44_2 C 0.94670(13) 0.5365(5) 0.2149(3)
H37_2 H 0.9626 0.5787 0.2338
C45_2 C 0.92091(13) 0.5344(6) 0.2349(3)
H38_2 H 0.9194 0.5739 0.2677
C46_2 C 0.97852(13) 0.4696(6) 0.1445(3)
O14_2 O 0.6672(3) 0.0030(10) 0.0809(5)
Cd5_2 Cd 0.514219(9) 0.16254(4) 0.558934(17)
Cd6_2 Cd 0.716813(10) 0.86208(4) 0.579574(19)
O17_2 O 0.48310(10) 0.6702(4) 0.03452(19)
N6_2 N 0.68441(12) 0.2427(5) 0.0165(2)
H43_2 H 0.66031 0.504914 0.351742
H44_2 H 0.64819 0.399717 0.397679
H7 H 0.7350 0.0758 0.9680
N5_2 N 0.54454(11) 0.8183(5) 0.9924(2)
O18 O 0.47300(9) 0.8338(4) 0.98687(18)
O1_2 O 0.48310(10) 0.3298(4) 0.53452(19)
O2_2 O 0.47300(9) 0.1662(4) 0.48687(18)
C1_2 C 0.3882(2) 0.4287(8) 0.4162(4)
C3_2 C 0.4047(2) 0.4893(8) 0.4593(4)
H3_2 H 0.3987 0.5636 0.4701
C4_2 C 0.43031(16) 0.4380(7) 0.4862(3)
H4_2 H 0.4417 0.4783 0.5151
C5_2 C 0.43917(14) 0.3251(5) 0.4702(3)
C6_2 C 0.42208(15) 0.2707(6) 0.4266(3)
H5_2 H 0.4276 0.1963 0.4151
C7_2 C 0.39685(18) 0.3233(8) 0.3994(4)
H8_2 H 0.3859 0.2853 0.3693
C8_2 C 0.46678(12) 0.2716(5) 0.4981(2)
C47_2 C 0.3146(3) 0.9178(15) 0.4102(8)
O15_2 O 0.2876(3) 0.9342(11) 0.4070(5)
C48_2 C 0.32518(18) 0.7900(7) 0.4154(4)
C49_2 C 0.3488(2) 0.7834(10) 0.3900(4)
H39_2 H 0.3567 0.8511 0.3762
C50_2 C 0.3128(3) 0.6908(10) 0.4276(6)
H40_2 H 0.2950 0.6955 0.4408
C51_2 C 0.3495(2) 0.5760(9) 0.4034(5)
C52_2 C 0.3614(2) 0.6679(12) 0.3848(5)
H41_2 H 0.3782 0.6597 0.3681
C53_2 C 0.3246(3) 0.5805(10) 0.4220(5)
H42_2 H 0.3152 0.5118 0.4312
O16_2 O 0.3622(2) 0.4692(8) 0.3885(4)
H4_3 H 0.9417 0.0217 0.0151
C10_3 C 0.07326(15) 0.3447(6) 0.0001(3)
H10_3 H 0.0807 0.3901 0.0309
N3_3 N 0.19669(11) 0.2787(5) 0.6544(2)
O3_2 O 0.48032(11) 0.1113(6) 0.6091(2)
O5_3 O 0.08556(10) 0.0095(4) 0.74161(17)
O6_3 O 0.10109(9) 0.2070(4) 0.88679(18)
C2_3 C 0.14140(12) 0.0271(5) 0.8694(2)
H3_3 H 0.1013 0.9364 0.5299
O7_3 O 0.15371(10) 0.1072(4) 0.76689(18)
O8_3 O 0.23650(12) 0.4385(5) 0.5045(2)
H6_3 H 0.2491 0.4985 0.5151
H7_2 H 0.2350 0.4242 0.4680
O9_3 O 0.25254(9) 0.1978(4) 0.58456(18)
O10_3 O 0.26287(10) 0.3539(4) 0.6388(2)
C9_3 C 0.03447(14) 0.2584(6) 0.9461(2)
H9_3 H 0.0144 0.2422 0.9387
O11_3 O 0.37160(10) 0.0225(6) 0.7332(2)
H13_3 H 0.0517 0.0591 0.6555
C17_3 C 0.11713(13) 0.0695(6) 0.8230(2)
C18_3 C 0.09107(14) 0.1209(6) 0.8453(3)
H17_3 H 0.0805 0.0579 0.8609
H18_3 H 0.0778 0.1582 0.8156
C19_3 C 0.08134(13) 0.2440(5) 0.9195(2)
C20_3 C 0.09240(15) 0.3097(7) 0.9660(3)
H19_3 H 0.1123 0.3293 0.9737
C21_3 C 0.05172(14) 0.2194(6) 0.9090(3)
H20_3 H 0.0436 0.1775 0.8775
C25_3 C 0.13098(14) 0.1634(5) 0.7903(3)
H23_3 H 0.1390 0.2278 0.8144
H24_3 H 0.1163 0.1960 0.7615
C26_3 C 0.16786(14) 0.1695(5) 0.7309(2)
C27_3 C 0.18782(15) 0.1075(7) 0.7063(3)
H25_3 H 0.1919 0.0280 0.7150
C28_3 C 0.20167(16) 0.1659(6) 0.6682(3)
H26_3 H 0.2153 0.1239 0.6512
C29_3 C 0.17733(14) 0.3376(5) 0.6797(3)
H27_3 H 0.1739 0.4173 0.6707
C30_3 C 0.16244(14) 0.2890(6) 0.7175(2)
H28_3 H 0.1491 0.3335 0.7340
C33_3 C 0.26866(13) 0.2521(6) 0.6225(3)
C34_3 C 0.29633(13) 0.1922(6) 0.6517(3)
C35_3 C 0.30368(17) 0.0793(7) 0.6365(3)
H31_3 H 0.2919 0.0409 0.6076
C36_3 C 0.32823(19) 0.0228(8) 0.6636(4)
C37_3 C 0.34587(14) 0.0809(8) 0.7037(3)
C38_3 C 0.33887(16) 0.1910(8) 0.7204(4)
H33_3 H 0.3504 0.2281 0.7501
C39_3 C 0.31479(16) 0.2456(7) 0.6927(3)
H34_3 H 0.3108 0.3233 0.7023
C40_3 C 0.39712(13) 0.0247(6) 0.7078(3)
C41_3 C 0.39937(14) 0.0866(8) 0.6607(3)
H35_3 H 0.3834 0.1299 0.6431
C42_3 C 0.42563(14) 0.0847(7) 0.6393(3)
H36_3 H 0.4270 0.1245 0.6064
C43_3 C 0.44990(13) 0.0239(6) 0.6664(2)
C46_3 C 0.47852(13) 0.0304(6) 0.6445(3)
C47_3 C 0.1854(3) 0.5822(15) 0.5898(8)
O14_3 O 0.1672(3) 0.4970(10) 0.5809(5)
O15_3 O 0.2124(3) 0.5658(11) 0.5930(5)
C48_3 C 0.17482(18) 0.7100(7) 0.5846(4)
C49_3 C 0.1512(2) 0.7166(10) 0.6100(4)
H39_3 H 0.1433 0.6489 0.6238
C50_3 C 0.1872(3) 0.8092(10) 0.5724(6)
H40_3 H 0.2050 0.8045 0.5592
C51_3 C 0.1505(2) 0.9240(9) 0.5966(5)
C52_3 C 0.1386(2) 0.8321(12) 0.6152(5)
H41_3 H 0.1218 0.8403 0.6319
C53_3 C 0.1754(3) 0.9195(10) 0.5780(5)
H42_3 H 0.1848 0.9882 0.5688
H44_3 H 0.14819 0.100283 0.897679
C31_3 C 0.15577(15) 0.7211(7) 0.0044(3)
H29_3 H 0.1478 0.6604 0.0234
N2_3 N 0.04220(11) 0.7838(5) 0.6231(2)
O4_2 O 0.03862(8) 0.4938(3) 0.59433(17)
H1_2 H 0.0268 0.4528 0.6175
H2_2 H 0.0420 0.4426 0.5645
O12_3 O 0.49905(10) 0.9628(4) 0.66290(19)
C11_3 C 0.06028(14) 0.7386(6) 0.6652(2)
H11_3 H 0.0628 0.6564 0.6670
C12_3 C 0.07567(14) 0.8080(6) 0.7066(3)
H12_3 H 0.0882 0.7729 0.7356
C13_3 C 0.07215(13) 0.9285(5) 0.7043(3)
C14_3 C 0.05365(15) 0.9770(6) 0.6595(3)
C15_3 C 0.03850(16) 0.9021(6) 0.6217(3)
H14_3 H 0.0250 0.9345 0.5935
C16_3 C 0.10596(14) 0.9636(5) 0.7862(2)
H15_3 H 0.0964 0.9058 0.8069
H16_3 H 0.1222 0.9249 0.7723
O13_3 O 0.12930(10) 0.9312(5) 0.89864(19)
C22_3 C 0.14823(12) 0.8733(6) 0.9372(2)
C23_3 C 0.13718(15) 0.7838(7) 0.9652(3)
H21_3 H 0.1172 0.7649 0.9579
C24_3 C 0.17778(13) 0.9002(6) 0.9490(2)
H22_3 H 0.1859 0.9612 0.9306
C32_3 C 0.19482(14) 0.8337(6) 0.9891(3)
H30_3 H 0.2147 0.8528 0.9979
H32_3 H 0.3326 0.9453 0.6543
C44_3 C 0.44670(13) 0.9635(5) 0.7149(3)
H37_3 H 0.4626 0.9213 0.7338
C45_3 C 0.42091(13) 0.9656(6) 0.7349(3)
H38_3 H 0.4194 0.9261 0.7677
H43_3 H 0.16031 0.995086 0.851742
O19_2 O 0.98032(11) 0.6113(6) 0.6091(2)
H4_4 H 0.4417 0.5217 0.0151
C1_3 C 0.3882(2) 0.5713(8) 0.9162(4)
C3_3 C 0.4047(2) 0.5107(8) 0.9593(4)
H3_4 H 0.3987 0.4364 0.9701
C4_3 C 0.43031(16) 0.5620(7) 0.9862(3)
C5_3 C 0.43917(14) 0.6749(5) 0.9702(3)
C6_3 C 0.42208(15) 0.7293(6) 0.9266(3)
H5_3 H 0.4276 0.8037 0.9151
C7_3 C 0.39685(18) 0.6767(8) 0.8994(4)
H8_3 H 0.3859 0.7147 0.8693
C8_3 C 0.46678(12) 0.7284(5) 0.9981(2)
C47_4 C 0.3146(3) 0.0822(15) 0.9102(8)
O15_4 O 0.2876(3) 0.0658(11) 0.9070(5)
C48_4 C 0.32518(18) 0.2100(7) 0.9154(4)
C49_4 C 0.3488(2) 0.2166(10) 0.8900(4)
H39_4 H 0.3567 0.1489 0.8762
C50_4 C 0.3128(3) 0.3092(10) 0.9276(6)
H40_4 H 0.2950 0.3045 0.9408
C51_4 C 0.3495(2) 0.4240(9) 0.9034(5)
C52_4 C 0.3614(2) 0.3321(12) 0.8848(5)
H41_4 H 0.3782 0.3403 0.8681
C53_4 C 0.3246(3) 0.4195(10) 0.9220(5)
H42_4 H 0.3152 0.4882 0.9312
O16_3 O 0.3622(2) 0.5308(8) 0.8885(4)
C10_4 C 0.57326(15) 0.8447(6) 0.0001(3)
H10_4 H 0.5807 0.8901 0.0309
C31_4 C 0.65577(15) 0.2211(7) 0.0044(3)
H29_4 H 0.6478 0.1604 0.0234
N2_4 N 0.54220(11) 0.2838(5) 0.6231(2)
N3_4 N 0.69669(11) 0.7787(5) 0.6544(2)
O5_4 O 0.58556(10) 0.5095(4) 0.74161(17)
O6_4 O 0.60109(9) 0.7070(4) 0.88679(18)
C2_4 C 0.64140(12) 0.5271(5) 0.8694(2)
O7_4 O 0.65371(10) 0.6072(4) 0.76689(18)
O8_4 O 0.73650(12) 0.9385(5) 0.5045(2)
H6_4 H 0.7491 0.9985 0.5151
H7_3 H 0.7350 0.9242 0.4680
O9_4 O 0.75254(9) 0.6978(4) 0.58456(18)
O10_4 O 0.76287(10) 0.8539(4) 0.6388(2)
C9_4 C 0.53447(14) 0.7584(6) 0.9461(2)
H9_4 H 0.5144 0.7422 0.9387
O11_4 O 0.87160(10) 0.5225(6) 0.7332(2)
O12_4 O 0.99905(10) 0.4628(4) 0.66290(19)
C11_4 C 0.56028(14) 0.2386(6) 0.6652(2)
H11_4 H 0.5628 0.1564 0.6670
C12_4 C 0.57567(14) 0.3080(6) 0.7066(3)
H12_4 H 0.5882 0.2729 0.7356
C13_4 C 0.57215(13) 0.4285(5) 0.7043(3)
C14_4 C 0.55365(15) 0.4770(6) 0.6595(3)
H13_4 H 0.5517 0.5591 0.6555
C15_4 C 0.53850(16) 0.4021(6) 0.6217(3)
H14_4 H 0.5250 0.4345 0.5935
C16_4 C 0.60596(14) 0.4636(5) 0.7862(2)
H15_4 H 0.5964 0.4058 0.8069
H16_4 H 0.6222 0.4249 0.7723
C17_4 C 0.61713(13) 0.5695(6) 0.8230(2)
C18_4 C 0.59107(14) 0.6209(6) 0.8453(3)
H17_4 H 0.5805 0.5579 0.8609
H18_4 H 0.5778 0.6582 0.8156
C19_4 C 0.58134(13) 0.7440(5) 0.9195(2)
C20_4 C 0.59240(15) 0.8097(7) 0.9660(3)
H19_4 H 0.6123 0.8293 0.9737
C21_4 C 0.55172(14) 0.7194(6) 0.9090(3)
H20_4 H 0.5436 0.6775 0.8775
O13_4 O 0.62930(10) 0.4312(5) 0.89864(19)
C22_4 C 0.64823(12) 0.3733(6) 0.9372(2)
C23_4 C 0.63718(15) 0.2838(7) 0.9652(3)
H21_4 H 0.6172 0.2649 0.9579
C24_4 C 0.67778(13) 0.4002(6) 0.9490(2)
H22_4 H 0.6859 0.4612 0.9306
C25_4 C 0.63098(14) 0.6634(5) 0.7903(3)
H23_4 H 0.6390 0.7278 0.8144
H24_4 H 0.6163 0.6960 0.7615
C26_4 C 0.66786(14) 0.6695(5) 0.7309(2)
C27_4 C 0.68782(15) 0.6075(7) 0.7063(3)
H25_4 H 0.6919 0.5280 0.7150
C28_4 C 0.70167(16) 0.6659(6) 0.6682(3)
H26_4 H 0.7153 0.6239 0.6512
C29_4 C 0.67733(14) 0.8376(5) 0.6797(3)
H27_4 H 0.6739 0.9173 0.6707
C30_4 C 0.66244(14) 0.7890(6) 0.7175(2)
H28_4 H 0.6491 0.8335 0.7340
C32_4 C 0.69482(14) 0.3337(6) 0.9891(3)
H30_4 H 0.7147 0.3528 0.9979
C33_4 C 0.76866(13) 0.7521(6) 0.6225(3)
C34_4 C 0.79633(13) 0.6922(6) 0.6517(3)
C35_4 C 0.80368(17) 0.5793(7) 0.6365(3)
H31_4 H 0.7919 0.5409 0.6076
C36_4 C 0.82823(19) 0.5228(8) 0.6636(4)
H32_4 H 0.8326 0.4453 0.6543
C37_4 C 0.84587(14) 0.5809(8) 0.7037(3)
C38_4 C 0.83887(16) 0.6910(8) 0.7204(4)
H33_4 H 0.8504 0.7281 0.7501
C39_4 C 0.81479(16) 0.7456(7) 0.6927(3)
H34_4 H 0.8108 0.8233 0.7023
C40_4 C 0.89712(13) 0.5247(6) 0.7078(3)
C41_4 C 0.89937(14) 0.5866(8) 0.6607(3)
H35_4 H 0.8834 0.6299 0.6431
C42_4 C 0.92563(14) 0.5847(7) 0.6393(3)
H36_4 H 0.9270 0.6245 0.6064
C43_4 C 0.94990(13) 0.5239(6) 0.6664(2)
C44_4 C 0.94670(13) 0.4635(5) 0.7149(3)
H37_4 H 0.9626 0.4213 0.7338
C45_4 C 0.92091(13) 0.4656(6) 0.7349(3)
H38_4 H 0.9194 0.4261 0.7677
C46_4 C 0.97852(13) 0.5304(6) 0.6445(3)
O14_4 O 0.6672(3) 0.9970(10) 0.5809(5)
H43_4 H 0.66031 0.495086 0.851742
H44_4 H 0.64819 0.600283 0.897679
H7_4 H 0.2350 0.5758 0.9680
O2_3 O 0.02700(9) 0.6662(4) 0.01313(18)
C1_4 C 0.1118(2) 0.9287(8) 0.0838(4)
C3_4 C 0.0953(2) 0.9893(8) 0.0407(4)
C4_4 C 0.06969(16) 0.9380(7) 0.0138(3)
C5_4 C 0.06083(14) 0.8251(5) 0.0298(3)
C6_4 C 0.07792(15) 0.7707(6) 0.0734(3)
H5_4 H 0.0724 0.6963 0.0849
C7_4 C 0.10315(18) 0.8233(8) 0.1006(4)
H8_4 H 0.1141 0.7853 0.1307
C8_4 C 0.03322(12) 0.7716(5) 0.0019(2)
O16_4 O 0.1378(2) 0.9692(8) 0.1115(4)
O1_3 O 0.01690(10) 0.8298(4) 0.96548(19)
H4_5 H 0.0583 0.9783 0.9849
Cd4 Cd 0.985781(9) 0.66254(4) 0.941066(17)
O17_3 O 0.01690(10) 0.1702(4) 0.46548(19)
O18_2 O 0.02700(9) 0.3338(4) 0.51313(18)
O19_3 O 0.01968(11) 0.3887(6) 0.3909(2)
Cd1_2 Cd 0.985781(9) 0.33746(4) 0.441066(17)
N2_5 N 0.95780(11) 0.2162(5) 0.3769(2)
O4_3 O 0.96138(8) 0.5062(3) 0.40567(17)
H1_3 H 0.9732 0.5472 0.3825
H2_3 H 0.9580 0.5574 0.4355
O12_5 O 0.50095(10) 0.0372(4) 0.33710(19)
C11_5 C 0.93972(14) 0.2614(6) 0.3348(2)
H11_5 H 0.9372 0.3436 0.3330
C12_5 C 0.92433(14) 0.1920(6) 0.2934(3)
H12_5 H 0.9118 0.2271 0.2644
C13_5 C 0.92785(13) 0.0715(5) 0.2957(3)
C14_5 C 0.94635(15) 0.0230(6) 0.3405(3)
C15_5 C 0.96150(16) 0.0979(6) 0.3783(3)
H14_5 H 0.9750 0.0655 0.4065
C16_5 C 0.89404(14) 0.0364(5) 0.2138(2)
H15_5 H 0.9036 0.0942 0.1931
H16_5 H 0.8778 0.0751 0.2277
O13_5 O 0.87070(10) 0.0688(5) 0.10136(19)
C22_5 C 0.85177(12) 0.1267(6) 0.0628(2)
C23_5 C 0.86282(15) 0.2162(7) 0.0348(3)
H21_5 H 0.8828 0.2351 0.0421
C24_5 C 0.82222(13) 0.0998(6) 0.0510(2)
H22_5 H 0.8141 0.0388 0.0694
C32_5 C 0.80518(14) 0.1663(6) 0.0109(3)
H30_5 H 0.7853 0.1472 0.0021
H32_5 H 0.6674 0.0547 0.3457
C44_5 C 0.55330(13) 0.0365(5) 0.2851(3)
H37_5 H 0.5374 0.0787 0.2662
C45_5 C 0.57909(13) 0.0344(6) 0.2651(3)
H38_5 H 0.5806 0.0739 0.2323
N5_3 N 0.95546(11) 0.3183(5) 0.5076(2)
H43_5 H 0.83969 0.00491448 0.148258
N4_3 N 0.81559(12) 0.2573(5) 0.9835(2)
C31_5 C 0.84423(15) 0.2789(7) 0.9956(3)
H29_5 H 0.8522 0.3396 0.9766
Cd6_3 Cd 0.783187(10) 0.36208(4) 0.920426(19)
Cd2_3 Cd 0.783187(10) 0.63792(4) 0.420426(19)
N1_3 N 0.95546(11) 0.6817(5) 0.0076(2)
N3_5 N 0.80331(11) 0.7213(5) 0.3456(2)
O3_3 O 0.51968(11) 0.8887(6) 0.3909(2)
O5_5 O 0.91444(10) 0.9905(4) 0.25839(17)
O6_5 O 0.89891(9) 0.7930(4) 0.11321(18)
C2_5 C 0.85860(12) 0.9729(5) 0.1306(2)
H3_5 H 0.8987 0.0636 0.4701
O7_5 O 0.84629(10) 0.8928(4) 0.23311(18)
O8_5 O 0.76350(12) 0.5615(5) 0.4955(2)
H6_5 H 0.7509 0.5015 0.4849
H7_5 H 0.7650 0.5758 0.5320
O9_5 O 0.74746(9) 0.8022(4) 0.41544(18)
O10_5 O 0.73713(10) 0.6461(4) 0.3612(2)
C9_5 C 0.96553(14) 0.7416(6) 0.0539(2)
H9_5 H 0.9856 0.7578 0.0613
O11_5 O 0.62840(10) 0.9775(6) 0.2668(2)
H13_5 H 0.9483 0.9409 0.3445
C17_5 C 0.88287(13) 0.9305(6) 0.1770(2)
C18_5 C 0.90893(14) 0.8791(6) 0.1547(3)
H17_5 H 0.9195 0.9421 0.1391
H18_5 H 0.9222 0.8418 0.1844
C19_5 C 0.91866(13) 0.7560(5) 0.0805(2)
C20_5 C 0.90760(15) 0.6903(7) 0.0340(3)
H19_5 H 0.8877 0.6707 0.0263
C21_5 C 0.94828(14) 0.7806(6) 0.0910(3)
H20_5 H 0.9564 0.8225 0.1225
C25_5 C 0.86902(14) 0.8366(5) 0.2097(3)
H23_5 H 0.8610 0.7722 0.1856
H24_5 H 0.8837 0.8040 0.2385
C26_5 C 0.83214(14) 0.8305(5) 0.2691(2)
C27_5 C 0.81218(15) 0.8925(7) 0.2937(3)
H25_5 H 0.8081 0.9720 0.2850
C28_5 C 0.79833(16) 0.8341(6) 0.3318(3)
H26_5 H 0.7847 0.8761 0.3488
C29_5 C 0.82267(14) 0.6624(5) 0.3203(3)
H27_5 H 0.8261 0.5827 0.3293
C30_5 C 0.83756(14) 0.7110(6) 0.2825(2)
H28_5 H 0.8509 0.6665 0.2660
C33_5 C 0.73134(13) 0.7479(6) 0.3775(3)
C34_5 C 0.70367(13) 0.8078(6) 0.3483(3)
C35_5 C 0.69632(17) 0.9207(7) 0.3635(3)
H31_5 H 0.7081 0.9591 0.3924
C36_5 C 0.67177(19) 0.9772(8) 0.3364(4)
C37_5 C 0.65413(14) 0.9191(8) 0.2963(3)
C38_5 C 0.66113(16) 0.8090(8) 0.2796(4)
H33_5 H 0.6496 0.7719 0.2499
C39_5 C 0.68521(16) 0.7544(7) 0.3073(3)
H34_5 H 0.6892 0.6767 0.2977
C40_5 C 0.60288(13) 0.9753(6) 0.2922(3)
C41_5 C 0.60063(14) 0.9134(8) 0.3393(3)
H35_5 H 0.6166 0.8701 0.3569
C42_5 C 0.57437(14) 0.9153(7) 0.3607(3)
H36_5 H 0.5730 0.8755 0.3936
C43_5 C 0.55010(13) 0.9761(6) 0.3336(2)
C46_5 C 0.52148(13) 0.9696(6) 0.3555(3)
C47_5 C 0.8146(3) 0.4178(15) 0.4102(8)
O14_5 O 0.8328(3) 0.5030(10) 0.4191(5)
O15_5 O 0.7876(3) 0.4342(11) 0.4070(5)
C48_5 C 0.82518(18) 0.2900(7) 0.4154(4)
C49_5 C 0.8488(2) 0.2834(10) 0.3900(4)
H39_5 H 0.8567 0.3511 0.3762
C50_5 C 0.8128(3) 0.1908(10) 0.4276(6)
H40_5 H 0.7950 0.1955 0.4408
C51_5 C 0.8495(2) 0.0760(9) 0.4034(5)
C52_5 C 0.8614(2) 0.1679(12) 0.3848(5)
H41_5 H 0.8782 0.1597 0.3681
C53_5 C 0.8246(3) 0.0805(10) 0.4220(5)
H42_5 H 0.8152 0.0118 0.4312
Cd3_2 Cd 0.485781(9) 0.83746(4) 0.441066(17)
N6_3 N 0.81559(12) 0.7427(5) 0.4835(2)
H44_5 H 0.85181 0.899717 0.102321
C10_5 C 0.92674(15) 0.6553(6) 0.9999(3)
H10_5 H 0.9193 0.6099 0.9691
O2_4 O 0.52700(9) 0.1662(4) 0.01313(18)
C1_5 C 0.6118(2) 0.4287(8) 0.0838(4)
C3_5 C 0.5953(2) 0.4893(8) 0.0407(4)
H3_6 H 0.6013 0.5636 0.0299
C4_5 C 0.56969(16) 0.4380(7) 0.0138(3)
C5_5 C 0.56083(14) 0.3251(5) 0.0298(3)
C6_5 C 0.57792(15) 0.2707(6) 0.0734(3)
H5_5 H 0.5724 0.1963 0.0849
C7_5 C 0.60315(18) 0.3233(8) 0.1006(4)
H8_5 H 0.6141 0.2853 0.1307
C8_5 C 0.53322(12) 0.2716(5) 0.0019(2)
C47_6 C 0.6854(3) 0.9178(15) 0.0898(8)
O15_6 O 0.7124(3) 0.9342(11) 0.0930(5)
C48_6 C 0.67482(18) 0.7900(7) 0.0846(4)
C49_6 C 0.6512(2) 0.7834(10) 0.1100(4)
H39_6 H 0.6433 0.8511 0.1238
C50_6 C 0.6872(3) 0.6908(10) 0.0724(6)
H40_6 H 0.7050 0.6955 0.0592
C51_6 C 0.6505(2) 0.5760(9) 0.0966(5)
C52_6 C 0.6386(2) 0.6679(12) 0.1152(5)
H41_6 H 0.6218 0.6597 0.1319
C53_6 C 0.6754(3) 0.5805(10) 0.0780(5)
H42_6 H 0.6848 0.5118 0.0688
O16_5 O 0.6378(2) 0.4692(8) 0.1115(4)
O1_4 O 0.51690(10) 0.3298(4) 0.96548(19)
H4_6 H 0.5583 0.4783 0.9849
Cd4_2 Cd 0.485781(9) 0.16254(4) 0.941066(17)
Cd2_4 Cd 0.283187(10) 0.13792(4) 0.420426(19)
N1_4 N 0.45546(11) 0.1817(5) 0.0076(2)
N2_6 N 0.45780(11) 0.7162(5) 0.3769(2)
N3_6 N 0.30331(11) 0.2213(5) 0.3456(2)
O5_6 O 0.41444(10) 0.4905(4) 0.25839(17)
O6_6 O 0.39891(9) 0.2930(4) 0.11321(18)
C2_6 C 0.35860(12) 0.4729(5) 0.1306(2)
O7_6 O 0.34629(10) 0.3928(4) 0.23311(18)
O8_6 O 0.26350(12) 0.0615(5) 0.4955(2)
H6_6 H 0.2509 0.0015 0.4849
H7_6 H 0.2650 0.0758 0.5320
O9_6 O 0.24746(9) 0.3022(4) 0.41544(18)
O10_6 O 0.23713(10) 0.1461(4) 0.3612(2)
C9_6 C 0.46553(14) 0.2416(6) 0.0539(2)
H9_6 H 0.4856 0.2578 0.0613
O11_6 O 0.12840(10) 0.4775(6) 0.2668(2)
O12_6 O 0.00095(10) 0.5372(4) 0.33710(19)
C11_6 C 0.43972(14) 0.7614(6) 0.3348(2)
H11_6 H 0.4372 0.8436 0.3330
C12_6 C 0.42433(14) 0.6920(6) 0.2934(3)
H12_6 H 0.4118 0.7271 0.2644
C13_6 C 0.42785(13) 0.5715(5) 0.2957(3)
C14_6 C 0.44635(15) 0.5230(6) 0.3405(3)
H13_6 H 0.4483 0.4409 0.3445
C15_6 C 0.46150(16) 0.5979(6) 0.3783(3)
H14_6 H 0.4750 0.5655 0.4065
C16_6 C 0.39404(14) 0.5364(5) 0.2138(2)
H15_6 H 0.4036 0.5942 0.1931
H16_6 H 0.3778 0.5751 0.2277
C17_6 C 0.38287(13) 0.4305(6) 0.1770(2)
C18_6 C 0.40893(14) 0.3791(6) 0.1547(3)
H17_6 H 0.4195 0.4421 0.1391
H18_6 H 0.4222 0.3418 0.1844
C19_6 C 0.41866(13) 0.2560(5) 0.0805(2)
C20_6 C 0.40760(15) 0.1903(7) 0.0340(3)
H19_6 H 0.3877 0.1707 0.0263
C21_6 C 0.44828(14) 0.2806(6) 0.0910(3)
H20_6 H 0.4564 0.3225 0.1225
O13_6 O 0.37070(10) 0.5688(5) 0.10136(19)
C22_6 C 0.35177(12) 0.6267(6) 0.0628(2)
C23_6 C 0.36282(15) 0.7162(7) 0.0348(3)
H21_6 H 0.3828 0.7351 0.0421
C24_6 C 0.32222(13) 0.5998(6) 0.0510(2)
H22_6 H 0.3141 0.5388 0.0694
C25_6 C 0.36902(14) 0.3366(5) 0.2097(3)
H23_6 H 0.3610 0.2722 0.1856
H24_6 H 0.3837 0.3040 0.2385
C26_6 C 0.33214(14) 0.3305(5) 0.2691(2)
C27_6 C 0.31218(15) 0.3925(7) 0.2937(3)
H25_6 H 0.3081 0.4720 0.2850
C28_6 C 0.29833(16) 0.3341(6) 0.3318(3)
H26_6 H 0.2847 0.3761 0.3488
C29_6 C 0.32267(14) 0.1624(5) 0.3203(3)
H27_6 H 0.3261 0.0827 0.3293
C30_6 C 0.33756(14) 0.2110(6) 0.2825(2)
H28_6 H 0.3509 0.1665 0.2660
C32_6 C 0.30518(14) 0.6663(6) 0.0109(3)
H30_6 H 0.2853 0.6472 0.0021
C33_6 C 0.23134(13) 0.2479(6) 0.3775(3)
C34_6 C 0.20367(13) 0.3078(6) 0.3483(3)
C35_6 C 0.19632(17) 0.4207(7) 0.3635(3)
H31_6 H 0.2081 0.4591 0.3924
C36_6 C 0.17177(19) 0.4772(8) 0.3364(4)
H32_6 H 0.1674 0.5547 0.3457
C37_6 C 0.15413(14) 0.4191(8) 0.2963(3)
C38_6 C 0.16113(16) 0.3090(8) 0.2796(4)
H33_6 H 0.1496 0.2719 0.2499
C39_6 C 0.18521(16) 0.2544(7) 0.3073(3)
H34_6 H 0.1892 0.1767 0.2977
C40_6 C 0.10288(13) 0.4753(6) 0.2922(3)
C41_6 C 0.10063(14) 0.4134(8) 0.3393(3)
H35_6 H 0.1166 0.3701 0.3569
C42_6 C 0.07437(14) 0.4153(7) 0.3607(3)
H36_6 H 0.0730 0.3755 0.3936
C43_6 C 0.05010(13) 0.4761(6) 0.3336(2)
C44_6 C 0.05330(13) 0.5365(5) 0.2851(3)
H37_6 H 0.0374 0.5787 0.2662
C45_6 C 0.07909(13) 0.5344(6) 0.2651(3)
H38_6 H 0.0806 0.5739 0.2323
C46_6 C 0.02148(13) 0.4696(6) 0.3555(3)
O14_6 O 0.3328(3) 0.0030(10) 0.4191(5)
N5_4 N 0.45546(11) 0.8183(5) 0.5076(2)
O17_4 O 0.51690(10) 0.6702(4) 0.46548(19)
O18_3 O 0.52700(9) 0.8338(4) 0.51313(18)
N6_4 N 0.31559(12) 0.2427(5) 0.4835(2)
H43_6 H 0.33969 0.504914 0.148258
H44_6 H 0.35181 0.399717 0.102321
N4_4 N 0.31559(12) 0.7573(5) 0.9835(2)
C10_6 C 0.42674(15) 0.1553(6) 0.9999(3)
H10_6 H 0.4193 0.1099 0.9691
C31_6 C 0.34423(15) 0.7789(7) 0.9956(3)
H29_6 H 0.3522 0.8396 0.9766
Cd6_4 Cd 0.283187(10) 0.86208(4) 0.920426(19)
O19_4 O 0.01968(11) 0.6113(6) 0.8909(2)
N3_7 N 0.80331(11) 0.2787(5) 0.8456(2)
O3_4 O 0.51968(11) 0.1113(6) 0.8909(2)
O5_7 O 0.91444(10) 0.0095(4) 0.75839(17)
O6_7 O 0.89891(9) 0.2070(4) 0.61321(18)
C2_7 C 0.85860(12) 0.0271(5) 0.6306(2)
H3_7 H 0.8987 0.9364 0.9701
O7_7 O 0.84629(10) 0.1072(4) 0.73311(18)
O8_7 O 0.76350(12) 0.4385(5) 0.9955(2)
H6_7 H 0.7509 0.4985 0.9849
O9_7 O 0.74746(9) 0.1978(4) 0.91544(18)
O10_7 O 0.73713(10) 0.3539(4) 0.8612(2)
C9_7 C 0.96553(14) 0.2584(6) 0.5539(2)
H9_7 H 0.9856 0.2422 0.5613
O11_7 O 0.62840(10) 0.0225(6) 0.7668(2)
C10_7 C 0.92674(15) 0.3447(6) 0.4999(3)
H10_7 H 0.9193 0.3901 0.4691
H13_7 H 0.9483 0.0591 0.8445
C17_7 C 0.88287(13) 0.0695(6) 0.6770(2)
C18_7 C 0.90893(14) 0.1209(6) 0.6547(3)
H17_7 H 0.9195 0.0579 0.6391
H18_7 H 0.9222 0.1582 0.6844
C19_7 C 0.91866(13) 0.2440(5) 0.5805(2)
C20_7 C 0.90760(15) 0.3097(7) 0.5340(3)
H19_7 H 0.8877 0.3293 0.5263
C21_7 C 0.94828(14) 0.2194(6) 0.5910(3)
H20_7 H 0.9564 0.1775 0.6225
C25_7 C 0.86902(14) 0.1634(5) 0.7097(3)
H23_7 H 0.8610 0.2278 0.6856
H24_7 H 0.8837 0.1960 0.7385
C26_7 C 0.83214(14) 0.1695(5) 0.7691(2)
C27_7 C 0.81218(15) 0.1075(7) 0.7937(3)
H25_7 H 0.8081 0.0280 0.7850
C28_7 C 0.79833(16) 0.1659(6) 0.8318(3)
H26_7 H 0.7847 0.1239 0.8488
C29_7 C 0.82267(14) 0.3376(5) 0.8203(3)
H27_7 H 0.8261 0.4173 0.8293
C30_7 C 0.83756(14) 0.2890(6) 0.7825(2)
H28_7 H 0.8509 0.3335 0.7660
C33_7 C 0.73134(13) 0.2521(6) 0.8775(3)
C34_7 C 0.70367(13) 0.1922(6) 0.8483(3)
C35_7 C 0.69632(17) 0.0793(7) 0.8635(3)
H31_7 H 0.7081 0.0409 0.8924
C36_7 C 0.67177(19) 0.0228(8) 0.8364(4)
C37_7 C 0.65413(14) 0.0809(8) 0.7963(3)
C38_7 C 0.66113(16) 0.1910(8) 0.7796(4)
H33_7 H 0.6496 0.2281 0.7499
C39_7 C 0.68521(16) 0.2456(7) 0.8073(3)
H34_7 H 0.6892 0.3233 0.7977
C40_7 C 0.60288(13) 0.0247(6) 0.7922(3)
C41_7 C 0.60063(14) 0.0866(8) 0.8393(3)
H35_7 H 0.6166 0.1299 0.8569
C42_7 C 0.57437(14) 0.0847(7) 0.8607(3)
H36_7 H 0.5730 0.1245 0.8936
C43_7 C 0.55010(13) 0.0239(6) 0.8336(2)
C46_7 C 0.52148(13) 0.0304(6) 0.8555(3)
C47_7 C 0.8146(3) 0.5822(15) 0.9102(8)
O14_7 O 0.8328(3) 0.4970(10) 0.9191(5)
O15_7 O 0.7876(3) 0.5658(11) 0.9070(5)
C48_7 C 0.82518(18) 0.7100(7) 0.9154(4)
C49_7 C 0.8488(2) 0.7166(10) 0.8900(4)
H39_7 H 0.8567 0.6489 0.8762
C50_7 C 0.8128(3) 0.8092(10) 0.9276(6)
H40_7 H 0.7950 0.8045 0.9408
C51_7 C 0.8495(2) 0.9240(9) 0.9034(5)
C52_7 C 0.8614(2) 0.8321(12) 0.8848(5)
H41_7 H 0.8782 0.8403 0.8681
C53_7 C 0.8246(3) 0.9195(10) 0.9220(5)
H42_7 H 0.8152 0.9882 0.9312
H44_7 H 0.85181 0.100283 0.602321
N2_7 N 0.95780(11) 0.7838(5) 0.8769(2)
O4_4 O 0.96138(8) 0.4938(3) 0.90567(17)
H1_4 H 0.9732 0.4528 0.8825
H2_4 H 0.9580 0.4426 0.9355
O12_7 O 0.50095(10) 0.9628(4) 0.83710(19)
C11_7 C 0.93972(14) 0.7386(6) 0.8348(2)
H11_7 H 0.9372 0.6564 0.8330
C12_7 C 0.92433(14) 0.8080(6) 0.7934(3)
H12_7 H 0.9118 0.7729 0.7644
C13_7 C 0.92785(13) 0.9285(5) 0.7957(3)
C14_7 C 0.94635(15) 0.9770(6) 0.8405(3)
C15_7 C 0.96150(16) 0.9021(6) 0.8783(3)
H14_7 H 0.9750 0.9345 0.9065
C16_7 C 0.89404(14) 0.9636(5) 0.7138(2)
H15_7 H 0.9036 0.9058 0.6931
H16_7 H 0.8778 0.9249 0.7277
O13_7 O 0.87070(10) 0.9312(5) 0.60136(19)
C22_7 C 0.85177(12) 0.8733(6) 0.5628(2)
C23_7 C 0.86282(15) 0.7838(7) 0.5348(3)
H21_7 H 0.8828 0.7649 0.5421
C24_7 C 0.82222(13) 0.9002(6) 0.5510(2)
H22_7 H 0.8141 0.9612 0.5694
C31_7 C 0.84423(15) 0.7211(7) 0.4956(3)
H29_7 H 0.8522 0.6604 0.4766
C32_7 C 0.80518(14) 0.8337(6) 0.5109(3)
H30_7 H 0.7853 0.8528 0.5021
H32_7 H 0.6674 0.9453 0.8457
C44_7 C 0.55330(13) 0.9635(5) 0.7851(3)
H37_7 H 0.5374 0.9213 0.7662
C45_7 C 0.57909(13) 0.9656(6) 0.7651(3)
H38_7 H 0.5806 0.9261 0.7323
H43_7 H 0.83969 0.995086 0.648258
C1_6 C 0.1118(2) 0.0713(8) 0.5838(4)
C3_6 C 0.0953(2) 0.0107(8) 0.5407(4)
C4_6 C 0.06969(16) 0.0620(7) 0.5138(3)
H4_7 H 0.0583 0.0217 0.4849
C5_6 C 0.06083(14) 0.1749(5) 0.5298(3)
C6_6 C 0.07792(15) 0.2293(6) 0.5734(3)
H5_6 H 0.0724 0.3037 0.5849
C7_6 C 0.10315(18) 0.1767(8) 0.6006(4)
H8_6 H 0.1141 0.2147 0.6307
C8_6 C 0.03322(12) 0.2284(5) 0.5019(2)
O16_6 O 0.1378(2) 0.0308(8) 0.6115(4)
H7_7 H 0.2650 0.9242 0.0320
N2_8 N 0.45780(11) 0.2838(5) 0.8769(2)
N3_8 N 0.30331(11) 0.7787(5) 0.8456(2)
O5_8 O 0.41444(10) 0.5095(4) 0.75839(17)
O6_8 O 0.39891(9) 0.7070(4) 0.61321(18)
C2_8 C 0.35860(12) 0.5271(5) 0.6306(2)
O7_8 O 0.34629(10) 0.6072(4) 0.73311(18)
O8_8 O 0.26350(12) 0.9385(5) 0.9955(2)
H6_8 H 0.2509 0.9985 0.9849
O9_8 O 0.24746(9) 0.6978(4) 0.91544(18)
O10_8 O 0.23713(10) 0.8539(4) 0.8612(2)
C9_8 C 0.46553(14) 0.7584(6) 0.5539(2)
H9_8 H 0.4856 0.7422 0.5613
O11_8 O 0.12840(10) 0.5225(6) 0.7668(2)
C10_8 C 0.42674(15) 0.8447(6) 0.4999(3)
H10_8 H 0.4193 0.8901 0.4691
O12_8 O 0.00095(10) 0.4628(4) 0.83710(19)
C11_8 C 0.43972(14) 0.2386(6) 0.8348(2)
H11_8 H 0.4372 0.1564 0.8330
C12_8 C 0.42433(14) 0.3080(6) 0.7934(3)
H12_8 H 0.4118 0.2729 0.7644
C13_8 C 0.42785(13) 0.4285(5) 0.7957(3)
C14_8 C 0.44635(15) 0.4770(6) 0.8405(3)
H13_8 H 0.4483 0.5591 0.8445
C15_8 C 0.46150(16) 0.4021(6) 0.8783(3)
H14_8 H 0.4750 0.4345 0.9065
C16_8 C 0.39404(14) 0.4636(5) 0.7138(2)
H15_8 H 0.4036 0.4058 0.6931
H16_8 H 0.3778 0.4249 0.7277
C17_8 C 0.38287(13) 0.5695(6) 0.6770(2)
C18_8 C 0.40893(14) 0.6209(6) 0.6547(3)
H17_8 H 0.4195 0.5579 0.6391
H18_8 H 0.4222 0.6582 0.6844
C19_8 C 0.41866(13) 0.7440(5) 0.5805(2)
C20_8 C 0.40760(15) 0.8097(7) 0.5340(3)
H19_8 H 0.3877 0.8293 0.5263
C21_8 C 0.44828(14) 0.7194(6) 0.5910(3)
H20_8 H 0.4564 0.6775 0.6225
O13_8 O 0.37070(10) 0.4312(5) 0.60136(19)
C22_8 C 0.35177(12) 0.3733(6) 0.5628(2)
C23_8 C 0.36282(15) 0.2838(7) 0.5348(3)
H21_8 H 0.3828 0.2649 0.5421
C24_8 C 0.32222(13) 0.4002(6) 0.5510(2)
H22_8 H 0.3141 0.4612 0.5694
C25_8 C 0.36902(14) 0.6634(5) 0.7097(3)
H23_8 H 0.3610 0.7278 0.6856
H24_8 H 0.3837 0.6960 0.7385
C26_8 C 0.33214(14) 0.6695(5) 0.7691(2)
C27_8 C 0.31218(15) 0.6075(7) 0.7937(3)
H25_8 H 0.3081 0.5280 0.7850
C28_8 C 0.29833(16) 0.6659(6) 0.8318(3)
H26_8 H 0.2847 0.6239 0.8488
C29_8 C 0.32267(14) 0.8376(5) 0.8203(3)
H27_8 H 0.3261 0.9173 0.8293
C30_8 C 0.33756(14) 0.7890(6) 0.7825(2)
H28_8 H 0.3509 0.8335 0.7660
C31_8 C 0.34423(15) 0.2211(7) 0.4956(3)
H29_8 H 0.3522 0.1604 0.4766
C32_8 C 0.30518(14) 0.3337(6) 0.5109(3)
H30_8 H 0.2853 0.3528 0.5021
C33_8 C 0.23134(13) 0.7521(6) 0.8775(3)
C34_8 C 0.20367(13) 0.6922(6) 0.8483(3)
C35_8 C 0.19632(17) 0.5793(7) 0.8635(3)
H31_8 H 0.2081 0.5409 0.8924
C36_8 C 0.17177(19) 0.5228(8) 0.8364(4)
H32_8 H 0.1674 0.4453 0.8457
C37_8 C 0.15413(14) 0.5809(8) 0.7963(3)
C38_8 C 0.16113(16) 0.6910(8) 0.7796(4)
H33_8 H 0.1496 0.7281 0.7499
C39_8 C 0.18521(16) 0.7456(7) 0.8073(3)
H34_8 H 0.1892 0.8233 0.7977
C40_8 C 0.10288(13) 0.5247(6) 0.7922(3)
C41_8 C 0.10063(14) 0.5866(8) 0.8393(3)
H35_8 H 0.1166 0.6299 0.8569
C42_8 C 0.07437(14) 0.5847(7) 0.8607(3)
H36_8 H 0.0730 0.6245 0.8936
C43_8 C 0.05010(13) 0.5239(6) 0.8336(2)
C44_8 C 0.05330(13) 0.4635(5) 0.7851(3)
H37_8 H 0.0374 0.4213 0.7662
C45_8 C 0.07909(13) 0.4656(6) 0.7651(3)
H38_8 H 0.0806 0.4261 0.7323
C46_8 C 0.02148(13) 0.5304(6) 0.8555(3)
O14_8 O 0.3328(3) 0.9970(10) 0.9191(5)
H43_8 H 0.33969 0.495086 0.648258
H44_8 H 0.35181 0.600283 0.602321
C1_7 C 0.6118(2) 0.5713(8) 0.5838(4)
C3_7 C 0.5953(2) 0.5107(8) 0.5407(4)
H3_8 H 0.6013 0.4364 0.5299
C4_7 C 0.56969(16) 0.5620(7) 0.5138(3)
H4_8 H 0.5583 0.5217 0.4849
C5_7 C 0.56083(14) 0.6749(5) 0.5298(3)
C6_7 C 0.57792(15) 0.7293(6) 0.5734(3)
H5_7 H 0.5724 0.8037 0.5849
C7_7 C 0.60315(18) 0.6767(8) 0.6006(4)
H8_7 H 0.6141 0.7147 0.6307
C8_7 C 0.53322(12) 0.7284(5) 0.5019(2)
C47_8 C 0.6854(3) 0.0822(15) 0.5898(8)
O15_8 O 0.7124(3) 0.0658(11) 0.5930(5)
C48_8 C 0.67482(18) 0.2100(7) 0.5846(4)
C49_8 C 0.6512(2) 0.2166(10) 0.6100(4)
H39_8 H 0.6433 0.1489 0.6238
C50_8 C 0.6872(3) 0.3092(10) 0.5724(6)
H40_8 H 0.7050 0.3045 0.5592
C51_8 C 0.6505(2) 0.4240(9) 0.5966(5)
C52_8 C 0.6386(2) 0.3321(12) 0.6152(5)
H41_8 H 0.6218 0.3403 0.6319
C53_8 C 0.6754(3) 0.4195(10) 0.5780(5)
H42_8 H 0.6848 0.4882 0.5688
O16_7 O 0.6378(2) 0.5308(8) 0.6115(4)
O18_4 O 0.97300(9) 0.3338(4) 0.98687(18)
C1_8 C 0.8882(2) 0.0713(8) 0.9162(4)
C3_8 C 0.9047(2) 0.0107(8) 0.9593(4)
C4_8 C 0.93031(16) 0.0620(7) 0.9862(3)
C5_8 C 0.93917(14) 0.1749(5) 0.9702(3)
C6_8 C 0.92208(15) 0.2293(6) 0.9266(3)
H5_8 H 0.9276 0.3037 0.9151
C7_8 C 0.89685(18) 0.1767(8) 0.8994(4)
H8_8 H 0.8859 0.2147 0.8693
C8_8 C 0.96678(12) 0.2284(5) 0.9981(2)
O16_8 O 0.8622(2) 0.0308(8) 0.8885(4)
O4_5 O 0.53862(8) 0.0062(3) 0.09433(17)
H1_5 H 0.5268 0.0472 0.1175
H2_5 H 0.5420 0.0574 0.0645
O4_6 O 0.46138(8) 0.0062(3) 0.40567(17)
H1_6 H 0.4732 0.0472 0.3825
H2_6 H 0.4580 0.0574 0.4355
H7_8 H 0.7650 0.4242 0.0320
O4_7 O 0.46138(8) 0.9938(3) 0.90567(17)
H1_7 H 0.4732 0.9528 0.8825
H2_7 H 0.4580 0.9426 0.9355
O4_8 O 0.53862(8) 0.9938(3) 0.59433(17)
H1_8 H 0.5268 0.9528 0.6175
H2_8 H 0.5420 0.9426 0.5645
loop_
_geom_bond_atom_site_label_1
_geom_bond_atom_site_label_2
_geom_bond_site_symmetry_1
_geom_bond_site_symmetry_2
Cd1 N2 1_555 1_555
N2 C11 1_555 1_555
N4 C31 1_555 1_555
O4 Cd1 1_555 1_555
H1 O4 1_555 1_555
H2 O4 1_555 1_555
C11 H11 1_555 1_555
C12 C11 1_555 1_555
H12 C12 1_555 1_555
C13 C12 1_555 1_555
C14 C13 1_555 1_555
C15 N2 1_555 1_555
H14 C15 1_555 1_555
H15 C16 1_555 1_555
H16 C16 1_555 1_555
C22 O13 1_555 1_555
C23 C22 1_555 1_555
H21 C23 1_555 1_555
C24 C22 1_555 1_555
H22 C24 1_555 1_555
C31 C23 1_555 1_555
H29 C31 1_555 1_555
C32 N4 1_555 1_555
H30 C32 1_555 1_555
H37 C44 1_555 1_555
H38 C45 1_555 1_555
Cd6 N4 1_555 1_555
C14 C15 1_555 1_555
C24 C32 1_555 1_555
C44 C45 1_555 1_555
Cd2 N3 1_555 1_555
N1 C9 1_555 1_555
N3 C28 1_555 1_555
O3 C46 1_555 1_555
O6 C18 1_555 1_555
C2 C17 1_555 1_555
O7 C25 1_555 1_555
O8 Cd2 1_555 1_555
H6 O8 1_555 1_555
O9 Cd2 1_555 1_555
O10 Cd2 1_555 1_555
C9 H9 1_555 1_555
O11 C37 1_555 1_555
C10 N1 1_555 1_555
H10 C10 1_555 1_555
C18 C17 1_555 1_555
H17 C18 1_555 1_555
H18 C18 1_555 1_555
C19 O6 1_555 1_555
C20 C10 1_555 1_555
H19 C20 1_555 1_555
C21 C9 1_555 1_555
H20 C21 1_555 1_555
C25 C17 1_555 1_555
H23 C25 1_555 1_555
H24 C25 1_555 1_555
C26 O7 1_555 1_555
C27 C26 1_555 1_555
H25 C27 1_555 1_555
C28 C27 1_555 1_555
H26 C28 1_555 1_555
C29 N3 1_555 1_555
H27 C29 1_555 1_555
C30 C26 1_555 1_555
H28 C30 1_555 1_555
C33 O9 1_555 1_555
C34 C33 1_555 1_555
C35 C34 1_555 1_555
H31 C35 1_555 1_555
C36 C35 1_555 1_555
C37 C36 1_555 1_555
C38 C37 1_555 1_555
H33 C38 1_555 1_555
C39 C34 1_555 1_555
H34 C39 1_555 1_555
C40 O11 1_555 1_555
C41 C40 1_555 1_555
H35 C41 1_555 1_555
C42 C41 1_555 1_555
H36 C42 1_555 1_555
C43 C42 1_555 1_555
C46 C43 1_555 1_555
C47 O14 1_555 1_555
O14 Cd2 1_555 1_555
O15 Cd2 1_555 1_555
C48 C47 1_555 1_555
C49 C48 1_555 1_555
H39 C49 1_555 1_555
C50 C48 1_555 1_555
H40 C50 1_555 1_555
C51 C52 1_555 1_555
C52 C49 1_555 1_555
H41 C52 1_555 1_555
C53 C50 1_555 1_555
H42 C53 1_555 1_555
Cd3 O3 1_555 1_555
Cd5 N1 1_555 1_555
N6 Cd2 1_555 1_555
O10 C33 1_555 1_555
C19 C20 1_555 1_555
C19 C21 1_555 1_555
C29 C30 1_555 1_555
C38 C39 1_555 1_555
C47 O15 1_555 1_555
C51 C53 1_555 1_555
C2 H44 1_555 1_555
O1 C8 1_555 1_555
O2 C8 1_555 1_555
C1 C3 1_555 1_555
C4 C3 1_555 1_555
H4 C4 1_555 1_555
C5 C4 1_555 1_555
C6 C5 1_555 1_555
H5 C6 1_555 1_555
C7 C1 1_555 1_555
H8 C7 1_555 1_555
C8 C5 1_555 1_555
O16 C1 1_555 1_555
C6 C7 1_555 1_555
Cd3 N2_2 1_555 1_555
Cd2_2 N3_2 1_555 1_555
N1_2 C9_2 1_555 1_555
N2_2 C11_2 1_555 1_555
N3_2 C28_2 1_555 1_555
N4_2 C31_2 1_555 1_555
O19 C46_2 1_555 1_555
O5_2 C13_2 1_555 1_555
O6_2 C18_2 1_555 1_555
C2_2 C17_2 1_555 1_555
O7_2 C25_2 1_555 1_555
O8_2 Cd2_2 1_555 1_555
H6_2 O8_2 1_555 1_555
O9_2 Cd2_2 1_555 1_555
O10_2 Cd2_2 1_555 1_555
C9_2 H9_2 1_555 1_555
O11_2 C37_2 1_555 1_555
C10_2 N1_2 1_555 1_555
H10_2 C10_2 1_555 1_555
O12_2 C46_2 1_555 1_555
C11_2 H11_2 1_555 1_555
C12_2 C11_2 1_555 1_555
H12_2 C12_2 1_555 1_555
C13_2 C12_2 1_555 1_555
C14_2 C13_2 1_555 1_555
H13_2 C14_2 1_555 1_555
C15_2 N2_2 1_555 1_555
H14_2 C15_2 1_555 1_555
C16_2 O5_2 1_555 1_555
H15_2 C16_2 1_555 1_555
H16_2 C16_2 1_555 1_555
C17_2 C16_2 1_555 1_555
C18_2 C17_2 1_555 1_555
H17_2 C18_2 1_555 1_555
H18_2 C18_2 1_555 1_555
C19_2 O6_2 1_555 1_555
C20_2 C10_2 1_555 1_555
H19_2 C20_2 1_555 1_555
C21_2 C9_2 1_555 1_555
H20_2 C21_2 1_555 1_555
O13_2 C2_2 1_555 1_555
C22_2 O13_2 1_555 1_555
C23_2 C22_2 1_555 1_555
H21_2 C23_2 1_555 1_555
C24_2 C22_2 1_555 1_555
H22_2 C24_2 1_555 1_555
C25_2 C17_2 1_555 1_555
H23_2 C25_2 1_555 1_555
H24_2 C25_2 1_555 1_555
C26_2 O7_2 1_555 1_555
C27_2 C26_2 1_555 1_555
H25_2 C27_2 1_555 1_555
C28_2 C27_2 1_555 1_555
H26_2 C28_2 1_555 1_555
C29_2 N3_2 1_555 1_555
H27_2 C29_2 1_555 1_555
C30_2 C26_2 1_555 1_555
H28_2 C30_2 1_555 1_555
C31_2 C23_2 1_555 1_555
H29_2 C31_2 1_555 1_555
C32_2 N4_2 1_555 1_555
H30_2 C32_2 1_555 1_555
C33_2 O9_2 1_555 1_555
C34_2 C33_2 1_555 1_555
C35_2 C34_2 1_555 1_555
H31_2 C35_2 1_555 1_555
C36_2 C35_2 1_555 1_555
H32_2 C36_2 1_555 1_555
C37_2 C36_2 1_555 1_555
C38_2 C37_2 1_555 1_555
H33_2 C38_2 1_555 1_555
C39_2 C34_2 1_555 1_555
H34_2 C39_2 1_555 1_555
C40_2 O11_2 1_555 1_555
C41_2 C40_2 1_555 1_555
H35_2 C41_2 1_555 1_555
C42_2 C41_2 1_555 1_555
H36_2 C42_2 1_555 1_555
C43_2 C42_2 1_555 1_555
C44_2 C43_2 1_555 1_555
H37_2 C44_2 1_555 1_555
C45_2 C40_2 1_555 1_555
H38_2 C45_2 1_555 1_555
C46_2 C43_2 1_555 1_555
O14_2 Cd2_2 1_555 1_555
Cd5_2 N1_2 1_555 1_555
Cd6_2 N4_2 1_555 1_555
O17_2 Cd3 1_555 1_555
N6_2 Cd2_2 1_555 1_555
O10_2 C33_2 1_555 1_555
C14_2 C15_2 1_555 1_555
C19_2 C20_2 1_555 1_555
C19_2 C21_2 1_555 1_555
C24_2 C32_2 1_555 1_555
C29_2 C30_2 1_555 1_555
C38_2 C39_2 1_555 1_555
C44_2 C45_2 1_555 1_555
C2_2 H43_2 1_555 1_555
C2_2 H44_2 1_555 1_555
O1_2 C8_2 1_555 1_555
O2_2 C8_2 1_555 1_555
C1_2 C3_2 1_555 1_555
C3_2 H3_2 1_555 1_555
C4_2 C3_2 1_555 1_555
H4_2 C4_2 1_555 1_555
C5_2 C4_2 1_555 1_555
C6_2 C5_2 1_555 1_555
H5_2 C6_2 1_555 1_555
C7_2 C1_2 1_555 1_555
H8_2 C7_2 1_555 1_555
C8_2 C5_2 1_555 1_555
C48_2 C47_2 1_555 1_555
C49_2 C48_2 1_555 1_555
H39_2 C49_2 1_555 1_555
C50_2 C48_2 1_555 1_555
H40_2 C50_2 1_555 1_555
C51_2 C52_2 1_555 1_555
C52_2 C49_2 1_555 1_555
H41_2 C52_2 1_555 1_555
C53_2 C50_2 1_555 1_555
H42_2 C53_2 1_555 1_555
O16_2 C1_2 1_555 1_555
Cd5_2 O1_2 1_555 1_555
O2_2 Cd5_2 1_555 1_555
C6_2 C7_2 1_555 1_555
C47_2 O15_2 1_555 1_555
C51_2 C53_2 1_555 1_555
C51_2 O16_2 1_555 1_555
H10_3 C10_3 1_555 1_555
Cd6 N3_3 1_555 1_555
N5 C9_3 1_555 1_555
N3_3 C28_3 1_555 1_555
O3_2 C46_3 1_555 1_555
O6_3 C18_3 1_555 1_555
C2_3 C17_3 1_555 1_555
O7_3 C25_3 1_555 1_555
O8_3 Cd6 1_555 1_555
H6_3 O8_3 1_555 1_555
H7_2 O8_3 1_555 1_555
O9_3 Cd6 1_555 1_555
O10_3 Cd6 1_555 1_555
C9_3 H9_3 1_555 1_555
O11_3 C37_3 1_555 1_555
C18_3 C17_3 1_555 1_555
H17_3 C18_3 1_555 1_555
H18_3 C18_3 1_555 1_555
C19_3 O6_3 1_555 1_555
H19_3 C20_3 1_555 1_555
C21_3 C9_3 1_555 1_555
H20_3 C21_3 1_555 1_555
C25_3 C17_3 1_555 1_555
H23_3 C25_3 1_555 1_555
H24_3 C25_3 1_555 1_555
C26_3 O7_3 1_555 1_555
C27_3 C26_3 1_555 1_555
H25_3 C27_3 1_555 1_555
C28_3 C27_3 1_555 1_555
H26_3 C28_3 1_555 1_555
C29_3 N3_3 1_555 1_555
H27_3 C29_3 1_555 1_555
C30_3 C26_3 1_555 1_555
H28_3 C30_3 1_555 1_555
C33_3 O9_3 1_555 1_555
C34_3 C33_3 1_555 1_555
C35_3 C34_3 1_555 1_555
H31_3 C35_3 1_555 1_555
C36_3 C35_3 1_555 1_555
C37_3 C36_3 1_555 1_555
C38_3 C37_3 1_555 1_555
H33_3 C38_3 1_555 1_555
C39_3 C34_3 1_555 1_555
H34_3 C39_3 1_555 1_555
C40_3 O11_3 1_555 1_555
C41_3 C40_3 1_555 1_555
H35_3 C41_3 1_555 1_555
C42_3 C41_3 1_555 1_555
H36_3 C42_3 1_555 1_555
C43_3 C42_3 1_555 1_555
C46_3 C43_3 1_555 1_555
C47_3 O14_3 1_555 1_555
O14_3 Cd6 1_555 1_555
O15_3 Cd6 1_555 1_555
C48_3 C47_3 1_555 1_555
C49_3 C48_3 1_555 1_555
H39_3 C49_3 1_555 1_555
C50_3 C48_3 1_555 1_555
H40_3 C50_3 1_555 1_555
C51_3 C52_3 1_555 1_555
C52_3 C49_3 1_555 1_555
H41_3 C52_3 1_555 1_555
C53_3 C50_3 1_555 1_555
H42_3 C53_3 1_555 1_555
Cd5_2 O3_2 1_555 1_555
O10_3 C33_3 1_555 1_555
C19_3 C20_3 1_555 1_555
C19_3 C21_3 1_555 1_555
C29_3 C30_3 1_555 1_555
C38_3 C39_3 1_555 1_555
C47_3 O15_3 1_555 1_555
C51_3 C53_3 1_555 1_555
C2_3 H44_3 1_555 1_555
N6 C31_3 1_555 1_555
H29_3 C31_3 1_555 1_555
Cd5 N2_3 1_555 1_555
N2_3 C11_3 1_555 1_555
O4_2 Cd5 1_555 1_555
H1_2 O4_2 1_555 1_555
H2_2 O4_2 1_555 1_555
C11_3 H11_3 1_555 1_555
C12_3 C11_3 1_555 1_555
H12_3 C12_3 1_555 1_555
C13_3 C12_3 1_555 1_555
C14_3 C13_3 1_555 1_555
C15_3 N2_3 1_555 1_555
H14_3 C15_3 1_555 1_555
H15_3 C16_3 1_555 1_555
H16_3 C16_3 1_555 1_555
C22_3 O13_3 1_555 1_555
C23_3 C22_3 1_555 1_555
H21_3 C23_3 1_555 1_555
C24_3 C22_3 1_555 1_555
H22_3 C24_3 1_555 1_555
H30_3 C32_3 1_555 1_555
H37_3 C44_3 1_555 1_555
H38_3 C45_3 1_555 1_555
C14_3 C15_3 1_555 1_555
C24_3 C32_3 1_555 1_555
C44_3 C45_3 1_555 1_555
O18 C8_3 1_555 1_555
C1_3 C3_3 1_555 1_555
C3_3 H3_4 1_555 1_555
C4_3 C3_3 1_555 1_555
C5_3 C4_3 1_555 1_555
C6_3 C5_3 1_555 1_555
H5_3 C6_3 1_555 1_555
C7_3 C1_3 1_555 1_555
H8_3 C7_3 1_555 1_555
C8_3 C5_3 1_555 1_555
C48_4 C47_4 1_555 1_555
C49_4 C48_4 1_555 1_555
H39_4 C49_4 1_555 1_555
C50_4 C48_4 1_555 1_555
H40_4 C50_4 1_555 1_555
C51_4 C52_4 1_555 1_555
C52_4 C49_4 1_555 1_555
H41_4 C52_4 1_555 1_555
C53_4 C50_4 1_555 1_555
H42_4 C53_4 1_555 1_555
O16_3 C1_3 1_555 1_555
C6_3 C7_3 1_555 1_555
C47_4 O15_4 1_555 1_555
C51_4 C53_4 1_555 1_555
C51_4 O16_3 1_555 1_555
N6_2 C31_4 1_555 1_555
H10_4 C10_4 1_555 1_555
H29_4 C31_4 1_555 1_555
Cd5_2 N2_4 1_555 1_555
Cd6_2 N3_4 1_555 1_555
N5_2 C9_4 1_555 1_555
N2_4 C11_4 1_555 1_555
N3_4 C28_4 1_555 1_555
O19_2 C46_4 1_555 1_555
O5_4 C13_4 1_555 1_555
O6_4 C18_4 1_555 1_555
C2_4 C17_4 1_555 1_555
O7_4 C25_4 1_555 1_555
O8_4 Cd6_2 1_555 1_555
H6_4 O8_4 1_555 1_555
H7_3 O8_4 1_555 1_555
O9_4 Cd6_2 1_555 1_555
O10_4 Cd6_2 1_555 1_555
C9_4 H9_4 1_555 1_555
O11_4 C37_4 1_555 1_555
O12_4 C46_4 1_555 1_555
C11_4 H11_4 1_555 1_555
C12_4 C11_4 1_555 1_555
H12_4 C12_4 1_555 1_555
C13_4 C12_4 1_555 1_555
C14_4 C13_4 1_555 1_555
H13_4 C14_4 1_555 1_555
C15_4 N2_4 1_555 1_555
H14_4 C15_4 1_555 1_555
C16_4 O5_4 1_555 1_555
H15_4 C16_4 1_555 1_555
H16_4 C16_4 1_555 1_555
C17_4 C16_4 1_555 1_555
C18_4 C17_4 1_555 1_555
H17_4 C18_4 1_555 1_555
H18_4 C18_4 1_555 1_555
C19_4 O6_4 1_555 1_555
H19_4 C20_4 1_555 1_555
C21_4 C9_4 1_555 1_555
H20_4 C21_4 1_555 1_555
O13_4 C2_4 1_555 1_555
C22_4 O13_4 1_555 1_555
C23_4 C22_4 1_555 1_555
H21_4 C23_4 1_555 1_555
C24_4 C22_4 1_555 1_555
H22_4 C24_4 1_555 1_555
C25_4 C17_4 1_555 1_555
H23_4 C25_4 1_555 1_555
H24_4 C25_4 1_555 1_555
C26_4 O7_4 1_555 1_555
C27_4 C26_4 1_555 1_555
H25_4 C27_4 1_555 1_555
C28_4 C27_4 1_555 1_555
H26_4 C28_4 1_555 1_555
C29_4 N3_4 1_555 1_555
H27_4 C29_4 1_555 1_555
C30_4 C26_4 1_555 1_555
H28_4 C30_4 1_555 1_555
H30_4 C32_4 1_555 1_555
C33_4 O9_4 1_555 1_555
C34_4 C33_4 1_555 1_555
C35_4 C34_4 1_555 1_555
H31_4 C35_4 1_555 1_555
C36_4 C35_4 1_555 1_555
H32_4 C36_4 1_555 1_555
C37_4 C36_4 1_555 1_555
C38_4 C37_4 1_555 1_555
H33_4 C38_4 1_555 1_555
C39_4 C34_4 1_555 1_555
H34_4 C39_4 1_555 1_555
C40_4 O11_4 1_555 1_555
C41_4 C40_4 1_555 1_555
H35_4 C41_4 1_555 1_555
C42_4 C41_4 1_555 1_555
H36_4 C42_4 1_555 1_555
C43_4 C42_4 1_555 1_555
C44_4 C43_4 1_555 1_555
H37_4 C44_4 1_555 1_555
C45_4 C40_4 1_555 1_555
H38_4 C45_4 1_555 1_555
C46_4 C43_4 1_555 1_555
O14_4 Cd6_2 1_555 1_555
O10_4 C33_4 1_555 1_555
C14_4 C15_4 1_555 1_555
C19_4 C20_4 1_555 1_555
C19_4 C21_4 1_555 1_555
C24_4 C32_4 1_555 1_555
C29_4 C30_4 1_555 1_555
C38_4 C39_4 1_555 1_555
C44_4 C45_4 1_555 1_555
C2_4 H43_4 1_555 1_555
C2_4 H44_4 1_555 1_555
O2_3 C8_4 1_555 1_555
C1_4 C3_4 1_555 1_555
C4_4 C3_4 1_555 1_555
C5_4 C4_4 1_555 1_555
C6_4 C5_4 1_555 1_555
H5_4 C6_4 1_555 1_555
C7_4 C1_4 1_555 1_555
H8_4 C7_4 1_555 1_555
C8_4 C5_4 1_555 1_555
O16_4 C1_4 1_555 1_555
C6_4 C7_4 1_555 1_555
Cd1_2 N2_5 1_555 1_555
N2_5 C11_5 1_555 1_555
O4_3 Cd1_2 1_555 1_555
H1_3 O4_3 1_555 1_555
H2_3 O4_3 1_555 1_555
C11_5 H11_5 1_555 1_555
C12_5 C11_5 1_555 1_555
H12_5 C12_5 1_555 1_555
C13_5 C12_5 1_555 1_555
C14_5 C13_5 1_555 1_555
C15_5 N2_5 1_555 1_555
H14_5 C15_5 1_555 1_555
H15_5 C16_5 1_555 1_555
H16_5 C16_5 1_555 1_555
C22_5 O13_5 1_555 1_555
C23_5 C22_5 1_555 1_555
H21_5 C23_5 1_555 1_555
C24_5 C22_5 1_555 1_555
H22_5 C24_5 1_555 1_555
H30_5 C32_5 1_555 1_555
H37_5 C44_5 1_555 1_555
H38_5 C45_5 1_555 1_555
N5_3 Cd1_2 1_555 1_555
C14_5 C15_5 1_555 1_555
C24_5 C32_5 1_555 1_555
C44_5 C45_5 1_555 1_555
N4_3 C31_5 1_555 1_555
H29_5 C31_5 1_555 1_555
Cd6_3 N4_3 1_555 1_555
Cd2_3 N3_5 1_555 1_555
N1_3 C9_5 1_555 1_555
N3_5 C28_5 1_555 1_555
O3_3 C46_5 1_555 1_555
O6_5 C18_5 1_555 1_555
C2_5 C17_5 1_555 1_555
O7_5 C25_5 1_555 1_555
O8_5 Cd2_3 1_555 1_555
H6_5 O8_5 1_555 1_555
H7_5 O8_5 1_555 1_555
O9_5 Cd2_3 1_555 1_555
O10_5 Cd2_3 1_555 1_555
C9_5 H9_5 1_555 1_555
O11_5 C37_5 1_555 1_555
C18_5 C17_5 1_555 1_555
H17_5 C18_5 1_555 1_555
H18_5 C18_5 1_555 1_555
C19_5 O6_5 1_555 1_555
H19_5 C20_5 1_555 1_555
C21_5 C9_5 1_555 1_555
H20_5 C21_5 1_555 1_555
C25_5 C17_5 1_555 1_555
H23_5 C25_5 1_555 1_555
H24_5 C25_5 1_555 1_555
C26_5 O7_5 1_555 1_555
C27_5 C26_5 1_555 1_555
H25_5 C27_5 1_555 1_555
C28_5 C27_5 1_555 1_555
H26_5 C28_5 1_555 1_555
C29_5 N3_5 1_555 1_555
H27_5 C29_5 1_555 1_555
C30_5 C26_5 1_555 1_555
H28_5 C30_5 1_555 1_555
C33_5 O9_5 1_555 1_555
C34_5 C33_5 1_555 1_555
C35_5 C34_5 1_555 1_555
H31_5 C35_5 1_555 1_555
C36_5 C35_5 1_555 1_555
C37_5 C36_5 1_555 1_555
C38_5 C37_5 1_555 1_555
H33_5 C38_5 1_555 1_555
C39_5 C34_5 1_555 1_555
H34_5 C39_5 1_555 1_555
C40_5 O11_5 1_555 1_555
C41_5 C40_5 1_555 1_555
H35_5 C41_5 1_555 1_555
C42_5 C41_5 1_555 1_555
H36_5 C42_5 1_555 1_555
C43_5 C42_5 1_555 1_555
C46_5 C43_5 1_555 1_555
C47_5 O14_5 1_555 1_555
O14_5 Cd2_3 1_555 1_555
O15_5 Cd2_3 1_555 1_555
C48_5 C47_5 1_555 1_555
C49_5 C48_5 1_555 1_555
H39_5 C49_5 1_555 1_555
C50_5 C48_5 1_555 1_555
H40_5 C50_5 1_555 1_555
C51_5 C52_5 1_555 1_555
C52_5 C49_5 1_555 1_555
H41_5 C52_5 1_555 1_555
C53_5 C50_5 1_555 1_555
H42_5 C53_5 1_555 1_555
Cd3_2 O3_3 1_555 1_555
N6_3 Cd2_3 1_555 1_555
O10_5 C33_5 1_555 1_555
C19_5 C20_5 1_555 1_555
C19_5 C21_5 1_555 1_555
C29_5 C30_5 1_555 1_555
C38_5 C39_5 1_555 1_555
C47_5 O15_5 1_555 1_555
C51_5 C53_5 1_555 1_555
C2_5 H44_5 1_555 1_555
H10_5 C10_5 1_555 1_555
O2_4 C8_5 1_555 1_555
C1_5 C3_5 1_555 1_555
C3_5 H3_6 1_555 1_555
C4_5 C3_5 1_555 1_555
C5_5 C4_5 1_555 1_555
C6_5 C5_5 1_555 1_555
H5_5 C6_5 1_555 1_555
C7_5 C1_5 1_555 1_555
H8_5 C7_5 1_555 1_555
C8_5 C5_5 1_555 1_555
C48_6 C47_6 1_555 1_555
C49_6 C48_6 1_555 1_555
H39_6 C49_6 1_555 1_555
C50_6 C48_6 1_555 1_555
H40_6 C50_6 1_555 1_555
C51_6 C52_6 1_555 1_555
C52_6 C49_6 1_555 1_555
H41_6 C52_6 1_555 1_555
C53_6 C50_6 1_555 1_555
H42_6 C53_6 1_555 1_555
O16_5 C1_5 1_555 1_555
C6_5 C7_5 1_555 1_555
C47_6 O15_6 1_555 1_555
C51_6 C53_6 1_555 1_555
C51_6 O16_5 1_555 1_555
Cd4_2 O1_4 1_555 1_555
Cd3_2 N2_6 1_555 1_555
Cd2_4 N3_6 1_555 1_555
N1_4 C9_6 1_555 1_555
N2_6 C11_6 1_555 1_555
N3_6 C28_6 1_555 1_555
O19_3 C46_6 1_555 1_555
O5_6 C13_6 1_555 1_555
O6_6 C18_6 1_555 1_555
C2_6 C17_6 1_555 1_555
O7_6 C25_6 1_555 1_555
O8_6 Cd2_4 1_555 1_555
H6_6 O8_6 1_555 1_555
H7_6 O8_6 1_555 1_555
O9_6 Cd2_4 1_555 1_555
O10_6 Cd2_4 1_555 1_555
C9_6 H9_6 1_555 1_555
O11_6 C37_6 1_555 1_555
O12_6 C46_6 1_555 1_555
C11_6 H11_6 1_555 1_555
C12_6 C11_6 1_555 1_555
H12_6 C12_6 1_555 1_555
C13_6 C12_6 1_555 1_555
C14_6 C13_6 1_555 1_555
H13_6 C14_6 1_555 1_555
C15_6 N2_6 1_555 1_555
H14_6 C15_6 1_555 1_555
C16_6 O5_6 1_555 1_555
H15_6 C16_6 1_555 1_555
H16_6 C16_6 1_555 1_555
C17_6 C16_6 1_555 1_555
C18_6 C17_6 1_555 1_555
H17_6 C18_6 1_555 1_555
H18_6 C18_6 1_555 1_555
C19_6 O6_6 1_555 1_555
H19_6 C20_6 1_555 1_555
C21_6 C9_6 1_555 1_555
H20_6 C21_6 1_555 1_555
O13_6 C2_6 1_555 1_555
C22_6 O13_6 1_555 1_555
C23_6 C22_6 1_555 1_555
H21_6 C23_6 1_555 1_555
C24_6 C22_6 1_555 1_555
H22_6 C24_6 1_555 1_555
C25_6 C17_6 1_555 1_555
H23_6 C25_6 1_555 1_555
H24_6 C25_6 1_555 1_555
C26_6 O7_6 1_555 1_555
C27_6 C26_6 1_555 1_555
H25_6 C27_6 1_555 1_555
C28_6 C27_6 1_555 1_555
H26_6 C28_6 1_555 1_555
C29_6 N3_6 1_555 1_555
H27_6 C29_6 1_555 1_555
C30_6 C26_6 1_555 1_555
H28_6 C30_6 1_555 1_555
H30_6 C32_6 1_555 1_555
C33_6 O9_6 1_555 1_555
C34_6 C33_6 1_555 1_555
C35_6 C34_6 1_555 1_555
H31_6 C35_6 1_555 1_555
C36_6 C35_6 1_555 1_555
H32_6 C36_6 1_555 1_555
C37_6 C36_6 1_555 1_555
C38_6 C37_6 1_555 1_555
H33_6 C38_6 1_555 1_555
C39_6 C34_6 1_555 1_555
H34_6 C39_6 1_555 1_555
C40_6 O11_6 1_555 1_555
C41_6 C40_6 1_555 1_555
H35_6 C41_6 1_555 1_555
C42_6 C41_6 1_555 1_555
H36_6 C42_6 1_555 1_555
C43_6 C42_6 1_555 1_555
C44_6 C43_6 1_555 1_555
H37_6 C44_6 1_555 1_555
C45_6 C40_6 1_555 1_555
H38_6 C45_6 1_555 1_555
C46_6 C43_6 1_555 1_555
O14_6 Cd2_4 1_555 1_555
N5_4 Cd3_2 1_555 1_555
O17_4 Cd3_2 1_555 1_555
O18_3 Cd3_2 1_555 1_555
N6_4 Cd2_4 1_555 1_555
O10_6 C33_6 1_555 1_555
C14_6 C15_6 1_555 1_555
C19_6 C20_6 1_555 1_555
C19_6 C21_6 1_555 1_555
C24_6 C32_6 1_555 1_555
C29_6 C30_6 1_555 1_555
C38_6 C39_6 1_555 1_555
C44_6 C45_6 1_555 1_555
C2_6 H43_6 1_555 1_555
C2_6 H44_6 1_555 1_555
N4_4 C31_6 1_555 1_555
H10_6 C10_6 1_555 1_555
H29_6 C31_6 1_555 1_555
Cd6_4 N4_4 1_555 1_555
Cd6_3 N3_7 1_555 1_555
N5_3 C9_7 1_555 1_555
N3_7 C28_7 1_555 1_555
O3_4 C46_7 1_555 1_555
O6_7 C18_7 1_555 1_555
C2_7 C17_7 1_555 1_555
O7_7 C25_7 1_555 1_555
O8_7 Cd6_3 1_555 1_555
H6_7 O8_7 1_555 1_555
O9_7 Cd6_3 1_555 1_555
O10_7 Cd6_3 1_555 1_555
C9_7 H9_7 1_555 1_555
O11_7 C37_7 1_555 1_555
C10_7 N5_3 1_555 1_555
H10_7 C10_7 1_555 1_555
C18_7 C17_7 1_555 1_555
H17_7 C18_7 1_555 1_555
H18_7 C18_7 1_555 1_555
C19_7 O6_7 1_555 1_555
C20_7 C10_7 1_555 1_555
H19_7 C20_7 1_555 1_555
C21_7 C9_7 1_555 1_555
H20_7 C21_7 1_555 1_555
C25_7 C17_7 1_555 1_555
H23_7 C25_7 1_555 1_555
H24_7 C25_7 1_555 1_555
C26_7 O7_7 1_555 1_555
C27_7 C26_7 1_555 1_555
H25_7 C27_7 1_555 1_555
C28_7 C27_7 1_555 1_555
H26_7 C28_7 1_555 1_555
C29_7 N3_7 1_555 1_555
H27_7 C29_7 1_555 1_555
C30_7 C26_7 1_555 1_555
H28_7 C30_7 1_555 1_555
C33_7 O9_7 1_555 1_555
C34_7 C33_7 1_555 1_555
C35_7 C34_7 1_555 1_555
H31_7 C35_7 1_555 1_555
C36_7 C35_7 1_555 1_555
C37_7 C36_7 1_555 1_555
C38_7 C37_7 1_555 1_555
H33_7 C38_7 1_555 1_555
C39_7 C34_7 1_555 1_555
H34_7 C39_7 1_555 1_555
C40_7 O11_7 1_555 1_555
C41_7 C40_7 1_555 1_555
H35_7 C41_7 1_555 1_555
C42_7 C41_7 1_555 1_555
H36_7 C42_7 1_555 1_555
C43_7 C42_7 1_555 1_555
C46_7 C43_7 1_555 1_555
C47_7 O14_7 1_555 1_555
O14_7 Cd6_3 1_555 1_555
O15_7 Cd6_3 1_555 1_555
C48_7 C47_7 1_555 1_555
C49_7 C48_7 1_555 1_555
H39_7 C49_7 1_555 1_555
C50_7 C48_7 1_555 1_555
H40_7 C50_7 1_555 1_555
C51_7 C52_7 1_555 1_555
C52_7 C49_7 1_555 1_555
H41_7 C52_7 1_555 1_555
C53_7 C50_7 1_555 1_555
H42_7 C53_7 1_555 1_555
Cd4_2 O3_4 1_555 1_555
O10_7 C33_7 1_555 1_555
C19_7 C20_7 1_555 1_555
C19_7 C21_7 1_555 1_555
C29_7 C30_7 1_555 1_555
C38_7 C39_7 1_555 1_555
C47_7 O15_7 1_555 1_555
C51_7 C53_7 1_555 1_555
C2_7 H44_7 1_555 1_555
Cd4 N2_7 1_555 1_555
N2_7 C11_7 1_555 1_555
N6_3 C31_7 1_555 1_555
O4_4 Cd4 1_555 1_555
H1_4 O4_4 1_555 1_555
H2_4 O4_4 1_555 1_555
C11_7 H11_7 1_555 1_555
C12_7 C11_7 1_555 1_555
H12_7 C12_7 1_555 1_555
C13_7 C12_7 1_555 1_555
C14_7 C13_7 1_555 1_555
C15_7 N2_7 1_555 1_555
H14_7 C15_7 1_555 1_555
H15_7 C16_7 1_555 1_555
H16_7 C16_7 1_555 1_555
C22_7 O13_7 1_555 1_555
C23_7 C22_7 1_555 1_555
H21_7 C23_7 1_555 1_555
C24_7 C22_7 1_555 1_555
H22_7 C24_7 1_555 1_555
C31_7 C23_7 1_555 1_555
H29_7 C31_7 1_555 1_555
C32_7 N6_3 1_555 1_555
H30_7 C32_7 1_555 1_555
H37_7 C44_7 1_555 1_555
H38_7 C45_7 1_555 1_555
C14_7 C15_7 1_555 1_555
C24_7 C32_7 1_555 1_555
C44_7 C45_7 1_555 1_555
O17_3 C8_6 1_555 1_555
O18_2 C8_6 1_555 1_555
C1_6 C3_6 1_555 1_555
C4_6 C3_6 1_555 1_555
H4_7 C4_6 1_555 1_555
C5_6 C4_6 1_555 1_555
C6_6 C5_6 1_555 1_555
H5_6 C6_6 1_555 1_555
C7_6 C1_6 1_555 1_555
H8_6 C7_6 1_555 1_555
C8_6 C5_6 1_555 1_555
O16_6 C1_6 1_555 1_555
C6_6 C7_6 1_555 1_555
Cd4_2 N2_8 1_555 1_555
Cd6_4 N3_8 1_555 1_555
N5_4 C9_8 1_555 1_555
N2_8 C11_8 1_555 1_555
N3_8 C28_8 1_555 1_555
N6_4 C31_8 1_555 1_555
O19_4 C46_8 1_555 1_555
O5_8 C13_8 1_555 1_555
O6_8 C18_8 1_555 1_555
C2_8 C17_8 1_555 1_555
O7_8 C25_8 1_555 1_555
O8_8 Cd6_4 1_555 1_555
H6_8 O8_8 1_555 1_555
O9_8 Cd6_4 1_555 1_555
O10_8 Cd6_4 1_555 1_555
C9_8 H9_8 1_555 1_555
O11_8 C37_8 1_555 1_555
C10_8 N5_4 1_555 1_555
H10_8 C10_8 1_555 1_555
O12_8 C46_8 1_555 1_555
C11_8 H11_8 1_555 1_555
C12_8 C11_8 1_555 1_555
H12_8 C12_8 1_555 1_555
C13_8 C12_8 1_555 1_555
C14_8 C13_8 1_555 1_555
H13_8 C14_8 1_555 1_555
C15_8 N2_8 1_555 1_555
H14_8 C15_8 1_555 1_555
C16_8 O5_8 1_555 1_555
H15_8 C16_8 1_555 1_555
H16_8 C16_8 1_555 1_555
C17_8 C16_8 1_555 1_555
C18_8 C17_8 1_555 1_555
H17_8 C18_8 1_555 1_555
H18_8 C18_8 1_555 1_555
C19_8 O6_8 1_555 1_555
C20_8 C10_8 1_555 1_555
H19_8 C20_8 1_555 1_555
C21_8 C9_8 1_555 1_555
H20_8 C21_8 1_555 1_555
O13_8 C2_8 1_555 1_555
C22_8 O13_8 1_555 1_555
C23_8 C22_8 1_555 1_555
H21_8 C23_8 1_555 1_555
C24_8 C22_8 1_555 1_555
H22_8 C24_8 1_555 1_555
C25_8 C17_8 1_555 1_555
H23_8 C25_8 1_555 1_555
H24_8 C25_8 1_555 1_555
C26_8 O7_8 1_555 1_555
C27_8 C26_8 1_555 1_555
H25_8 C27_8 1_555 1_555
C28_8 C27_8 1_555 1_555
H26_8 C28_8 1_555 1_555
C29_8 N3_8 1_555 1_555
H27_8 C29_8 1_555 1_555
C30_8 C26_8 1_555 1_555
H28_8 C30_8 1_555 1_555
C31_8 C23_8 1_555 1_555
H29_8 C31_8 1_555 1_555
C32_8 N6_4 1_555 1_555
H30_8 C32_8 1_555 1_555
C33_8 O9_8 1_555 1_555
C34_8 C33_8 1_555 1_555
C35_8 C34_8 1_555 1_555
H31_8 C35_8 1_555 1_555
C36_8 C35_8 1_555 1_555
H32_8 C36_8 1_555 1_555
C37_8 C36_8 1_555 1_555
C38_8 C37_8 1_555 1_555
H33_8 C38_8 1_555 1_555
C39_8 C34_8 1_555 1_555
H34_8 C39_8 1_555 1_555
C40_8 O11_8 1_555 1_555
C41_8 C40_8 1_555 1_555
H35_8 C41_8 1_555 1_555
C42_8 C41_8 1_555 1_555
H36_8 C42_8 1_555 1_555
C43_8 C42_8 1_555 1_555
C44_8 C43_8 1_555 1_555
H37_8 C44_8 1_555 1_555
C45_8 C40_8 1_555 1_555
H38_8 C45_8 1_555 1_555
C46_8 C43_8 1_555 1_555
O14_8 Cd6_4 1_555 1_555
O10_8 C33_8 1_555 1_555
C14_8 C15_8 1_555 1_555
C19_8 C20_8 1_555 1_555
C19_8 C21_8 1_555 1_555
C24_8 C32_8 1_555 1_555
C29_8 C30_8 1_555 1_555
C38_8 C39_8 1_555 1_555
C44_8 C45_8 1_555 1_555
C2_8 H43_8 1_555 1_555
C2_8 H44_8 1_555 1_555
O17_4 C8_7 1_555 1_555
O18_3 C8_7 1_555 1_555
C1_7 C3_7 1_555 1_555
C3_7 H3_8 1_555 1_555
C4_7 C3_7 1_555 1_555
H4_8 C4_7 1_555 1_555
C5_7 C4_7 1_555 1_555
C6_7 C5_7 1_555 1_555
H5_7 C6_7 1_555 1_555
C7_7 C1_7 1_555 1_555
H8_7 C7_7 1_555 1_555
C8_7 C5_7 1_555 1_555
C48_8 C47_8 1_555 1_555
C49_8 C48_8 1_555 1_555
H39_8 C49_8 1_555 1_555
C50_8 C48_8 1_555 1_555
H40_8 C50_8 1_555 1_555
C51_8 C52_8 1_555 1_555
C52_8 C49_8 1_555 1_555
H41_8 C52_8 1_555 1_555
C53_8 C50_8 1_555 1_555
H42_8 C53_8 1_555 1_555
O16_7 C1_7 1_555 1_555
C6_7 C7_7 1_555 1_555
C47_8 O15_8 1_555 1_555
C51_8 C53_8 1_555 1_555
C51_8 O16_7 1_555 1_555
O18_4 C8_8 1_555 1_555
C1_8 C3_8 1_555 1_555
C4_8 C3_8 1_555 1_555
C5_8 C4_8 1_555 1_555
C6_8 C5_8 1_555 1_555
H5_8 C6_8 1_555 1_555
C7_8 C1_8 1_555 1_555
H8_8 C7_8 1_555 1_555
C8_8 C5_8 1_555 1_555
O16_8 C1_8 1_555 1_555
C6_8 C7_8 1_555 1_555
H1_5 O4_5 1_555 1_555
H2_5 O4_5 1_555 1_555
H1_6 O4_6 1_555 1_555
H2_6 O4_6 1_555 1_555
H1_7 O4_7 1_555 1_555
H2_7 O4_7 1_555 1_555
H1_8 O4_8 1_555 1_555
H2_8 O4_8 1_555 1_555

#END
