
###############################################################################
#
# This file contains modified crystal structure data generated from the
# MOF subset of the Cambridge Structural Database (CSD) v543 
# hosted by the Cambridge Crystallographic Data Centre (CCDC).
#
# This work is licensed under the Creative Commons
# Attribution-NonCommercial-ShareAlike 4.0 International License.
# To view a copy of this license, visit
# http://creativecommons.org/licenses/by-nc-sa/4.0/
# or send a letter to
# Creative Commons, PO Box 1866, Mountain View, CA 94042, USA.
#
# CIF created using the CSD Python API on 29 September 2022
# The structure has been converted into the P1 space group
# The structure has a 3D framework
# The original CSD entry DUKNOO is in the monoclinic crystal system
# The framework has been calculated to contain at least 10.0% void space
# The void calculation uses a probe of radius 1.32A, grid spacing 0.4
#
###############################################################################

data_DUKNOO
_chemical_formula_moiety         '(C236 H160 Co8 F48 N16 O48)n'
_symmetry_cell_setting           triclinic
_symmetry_space_group_name_H-M   'P 1'
_symmetry_Int_Tables_number      1
_space_group_name_Hall           'P 1'
loop_
_symmetry_equiv_pos_site_id
_symmetry_equiv_pos_as_xyz
1 x,y,z
_cell_length_a                   16.6278(19)
_cell_length_b                   13.9706(16)
_cell_length_c                   29.131(3)
_cell_angle_alpha                90
_cell_angle_beta                 94.532(2)
_cell_angle_gamma                90
_cell_volume                     6745.98
loop_
_atom_site_label
_atom_site_type_symbol
_atom_site_fract_x
_atom_site_fract_y
_atom_site_fract_z
F4 F 0.0338(2) 0.3377(4) 0.47439(15)
C33 C 0.3424(4) 0.0665(4) 0.4374(2)
C34 C 0.2777(4) 0.1068(4) 0.4024(2)
C35 C 0.2810(4) 0.0804(4) 0.3566(2)
H29 H 0.3214 0.0390 0.3487
C36 C 0.2264(4) 0.1138(4) 0.3229(2)
H30 H 0.2294 0.0949 0.2925
C37 C 0.1666(3) 0.1761(4) 0.3345(2)
C38 C 0.1658(4) 0.2055(4) 0.3786(2)
H31 H 0.1273 0.2497 0.3863
C39 C 0.2207(4) 0.1714(4) 0.4124(2)
H32 H 0.2188 0.1929 0.4425
C40 C 0.1012(4) 0.2034(4) 0.2978(3)
C54 C 0.4212(6) 0.1209(5) 0.4330(4)
C59 C 0.3262(8) 0.0777(6) 0.4843(3)
F7 F 0.3722(4) 0.0269(3) 0.51514(16)
F8 F 0.2482(4) 0.0426(3) 0.49093(15)
F9 F 0.3239(4) 0.1651(3) 0.50160(17)
F10 F 0.4528(3) 0.1036(3) 0.3927(3)
F11 F 0.4791(3) 0.1081(3) 0.4655(2)
F12 F 0.4058(3) 0.2178(3) 0.4320(2)
O4 O 0.0942(3) 0.1605(4) 0.26057(15)
O5 O 0.0517(3) 0.2632(3) 0.30801(19)
C1 C 0.3970(3) 0.1348(4) 0.82585(18)
H1 H 0.4501 0.1495 0.8359
C2 C 0.3669(3) 0.1737(4) 0.78462(19)
H2 H 0.3989 0.2126 0.7676
C3 C 0.2896(3) 0.1541(3) 0.76944(17)
C4 C 0.2448(3) 0.0962(4) 0.79629(18)
H3 H 0.1913 0.0819 0.7872
C5 C 0.2810(3) 0.0601(4) 0.83676(17)
H4 H 0.2507 0.0204 0.8544
C6 C 0.2992(3) 0.2361(3) 0.69891(16)
H5 H 0.3437 0.1961 0.6908
H6 H 0.3214 0.2939 0.7134
C7 C 0.2456(3) 0.2614(3) 0.65598(15)
C8 C 0.2049(4) 0.1711(5) 0.6338(2)
H7 H 0.1940 0.1818 0.6010
H8 H 0.2416 0.1174 0.6379
C9 C 0.1219(4) 0.0584(5) 0.6727(2)
C13 C 0.0512(5) 0.0582(5) 0.6900(3)
H12 H 0.0177 0.1115 0.6894
C14 C 0.1826(3) 0.3334(3) 0.66599(17)
H13 H 0.1517 0.3520 0.6378
H14 H 0.1460 0.3066 0.6869
C15 C 0.1805(3) 0.4907(4) 0.69900(17)
C16 C 0.2199(3) 0.5610(4) 0.7240(2)
H15 H 0.2751 0.5559 0.7319
C17 C 0.1784(4) 0.6388(4) 0.7375(2)
H16 H 0.2059 0.6851 0.7555
C18 C 0.0615(3) 0.5812(4) 0.7009(2)
H17 H 0.0068 0.5888 0.6924
C19 C 0.0969(3) 0.5008(4) 0.68764(19)
H18 H 0.0675 0.4534 0.6715
C20 C 0.3022(3) 0.2995(3) 0.62204(15)
H19 H 0.3343 0.3517 0.6357
H20 H 0.3384 0.2493 0.6134
C21 C 0.2921(3) 0.3646(3) 0.54594(14)
C22 C 0.3744(3) 0.3694(3) 0.54409(15)
H21 H 0.4088 0.3510 0.5693
C23 C 0.4047(3) 0.4015(3) 0.50478(14)
H22 H 0.4604 0.4039 0.5038
C24 C 0.2789(3) 0.4259(3) 0.47049(15)
H23 H 0.2456 0.4467 0.4453
C25 C 0.2437(3) 0.3937(3) 0.50754(15)
H24 H 0.1878 0.3911 0.5074
C26 C 0.3709(3) 0.6535(3) 0.41324(16)
C27 C 0.3649(3) 0.7599(3) 0.41858(17)
C28 C 0.4340(4) 0.8142(4) 0.4280(2)
H25 H 0.4843 0.7848 0.4303
C29 C 0.4282(4) 0.9126(4) 0.4339(3)
H26 H 0.4746 0.9483 0.4415
C30 C 0.3546(4) 0.9576(4) 0.4288(2)
C31 C 0.2851(3) 0.9016(4) 0.41924(18)
H27 H 0.2346 0.9305 0.4167
C32 C 0.2914(3) 0.8042(3) 0.41360(17)
H28 H 0.2451 0.7681 0.4063
C41 C 0.5720(3) 0.4318(3) 0.40216(16)
C42 C 0.6564(2) 0.3965(3) 0.41962(14)
C43 C 0.7214(3) 0.4177(3) 0.39517(16)
H33 H 0.7138 0.4531 0.3682
C44 C 0.7975(3) 0.3871(4) 0.41013(17)
H34 H 0.8407 0.4013 0.3929
C45 C 0.9645(4) 0.3588(7) 0.4515(2)
C46 C 0.8104(3) 0.3354(4) 0.45058(16)
C47 C 0.7445(3) 0.3134(4) 0.47407(16)
H35 H 0.7515 0.2765 0.5007
C48 C 0.6685(3) 0.3443(4) 0.45953(17)
H36 H 0.6252 0.3299 0.4766
C49 C 0.8940(3) 0.2975(4) 0.46829(18)
C50 C 0.9059(3) 0.2977(5) 0.52126(19)
C51 C 0.8990(6) 0.1968(8) 0.4489(3)
C52 C 0.8832(4) 0.3791(5) 0.54391(19)
H37 H 0.8613 0.4305 0.5269
C53 C 0.8925(4) 0.3853(6) 0.5910(2)
H38 H 0.8776 0.4420 0.6048
C55 C 0.9215(4) 0.3152(6) 0.61784(19)
C56 C 0.9464(4) 0.2353(6) 0.5964(2)
H39 H 0.9690 0.1856 0.6143
C57 C 0.9392(4) 0.2244(5) 0.5476(2)
H40 H 0.9568 0.1689 0.5339
C58 C 0.9236(4) 0.3215(7) 0.6711(2)
Co1 Co 0.41261(3) 0.47806(4) 0.410935(19)
Co2 Co 0.03477(4) 0.77143(5) 0.74226(2)
F1 F 0.8512(4) 0.1371(3) 0.4662(2)
F2 F 0.9759(3) 0.1608(4) 0.45442(16)
F3 F 0.8811(3) 0.1969(4) 0.40317(15)
F5 F 0.9744(2) 0.3515(4) 0.40749(14)
F6 F 0.9508(2) 0.4509(4) 0.45885(15)
N1 N 0.3575(2) 0.0789(3) 0.85213(12)
N3 N 0.0987(3) 0.6514(3) 0.72554(16)
N4 N 0.3583(2) 0.4299(2) 0.46749(12)
O1 O 0.4411(2) 0.6158(2) 0.41748(13)
O2 O 0.5648(2) 0.4778(3) 0.36609(12)
O3 O 0.31087(19) 0.6040(2) 0.40548(11)
O6 O 0.51597(18) 0.4124(2) 0.42693(11)
O7 O 0.8926(5) 0.3980(6) 0.6864(2)
O8 O 0.9595(5) 0.2619(5) 0.69142(18)
O9 O 0.2517(2) 0.1862(3) 0.72976(12)
O10 O 0.1363(3) 0.1496(3) 0.65189(19)
O11 O 0.22416(19) 0.4153(2) 0.68673(12)
O12 O 0.25345(18) 0.3327(2) 0.58217(10)
Co3 Co 0.41261(3) 0.02194(4) 0.910935(19)
Co5 Co 0.96523(4) 0.27143(5) 0.75774(2)
N5 N 0.3575(2) 0.4211(3) 0.35213(12)
N6 N 0.0810(4) 0.8896(4) 0.71180(17)
O15 O 0.0405(5) 0.7619(5) 0.80858(18)
C10 C 0.1719(4) 0.9906(5) 0.6741(2)
H9 H 0.2225 0.9974 0.6631
C11 C 0.1466(6) 0.9013(6) 0.6939(3)
H10 H 0.1812 0.8492 0.6932
C12 C 0.0307(6) 0.9687(5) 0.7097(3)
Co6 Co 0.96523(4) 0.22857(5) 0.25774(2)
Co6_2 Co 0.03477(4) 0.72857(5) 0.24226(2)
C16_2 C 0.7801(3) 0.0610(4) 0.7760(2)
H15_2 H 0.7249 0.0559 0.7681
C17_2 C 0.8216(4) 0.1388(4) 0.7625(2)
H16_2 H 0.7941 0.1851 0.7445
C18_2 C 0.9385(3) 0.0812(4) 0.7991(2)
H17_2 H 0.9932 0.0888 0.8076
C19_2 C 0.9031(3) 0.0008(4) 0.81236(19)
F7_2 F 0.6278(4) 0.5269(3) 0.98486(16)
F9_2 F 0.6761(4) 0.6651(3) 0.99840(17)
N3_2 N 0.9013(3) 0.1514(3) 0.77446(16)
N6_2 N 0.9190(4) 0.3896(4) 0.78820(17)
C24_2 C 0.7211(3) 0.9259(3) 0.02951(15)
H23_2 H 0.7544 0.9467 0.0547
C41_2 C 0.4280(3) 0.9318(3) 0.09784(16)
C42_2 C 0.3436(2) 0.8965(3) 0.08038(14)
C43_2 C 0.2786(3) 0.9177(3) 0.10483(16)
H33_2 H 0.2862 0.9531 0.1318
C44_2 C 0.2025(3) 0.8871(4) 0.08987(17)
H34_2 H 0.1593 0.9013 0.1071
C45_2 C 0.0355(4) 0.8588(7) 0.0485(2)
C46_2 C 0.1896(3) 0.8354(4) 0.04942(16)
C47_2 C 0.2555(3) 0.8134(4) 0.02593(16)
C48_2 C 0.3315(3) 0.8443(4) 0.04047(17)
H36_2 H 0.3748 0.8299 0.0234
C49_2 C 0.1060(3) 0.7975(4) 0.03171(18)
C51_2 C 0.1010(6) 0.6968(8) 0.0511(3)
Co1_2 Co 0.58739(3) 0.97806(4) 0.089065(19)
F1_2 F 0.1488(4) 0.6371(3) 0.0338(2)
F2_2 F 0.0241(3) 0.6608(4) 0.04558(16)
F3_2 F 0.1189(3) 0.6969(4) 0.09683(15)
F5_2 F 0.0256(2) 0.8515(4) 0.09251(14)
F6_2 F 0.0492(2) 0.9509(4) 0.04115(15)
N4_2 N 0.6417(2) 0.9299(2) 0.03251(12)
O2_2 O 0.4352(2) 0.9778(3) 0.13391(12)
O6_2 O 0.48403(18) 0.9124(2) 0.07307(11)
N5_2 N 0.6425(2) 0.9211(3) 0.14787(12)
C1_2 C 0.6030(3) 0.6348(4) 0.67415(18)
H1_2 H 0.5499 0.6495 0.6641
C2_2 C 0.6331(3) 0.6737(4) 0.71538(19)
H2_2 H 0.6011 0.7126 0.7324
C3_2 C 0.7104(3) 0.6541(3) 0.73056(17)
C4_2 C 0.7552(3) 0.5962(4) 0.70371(18)
H3_2 H 0.8087 0.5819 0.7128
C5_2 C 0.7190(3) 0.5601(4) 0.66324(17)
H4_2 H 0.7493 0.5204 0.6456
C6_2 C 0.7008(3) 0.7361(3) 0.80109(16)
H5_2 H 0.6563 0.6961 0.8092
H6_2 H 0.6786 0.7939 0.7866
C7_2 C 0.7544(3) 0.7614(3) 0.84402(15)
C8_2 C 0.7951(4) 0.6711(5) 0.8662(2)
H7_2 H 0.8060 0.6818 0.8990
H8_2 H 0.7584 0.6174 0.8621
C9_2 C 0.8781(4) 0.5584(5) 0.8273(2)
C10_2 C 0.8281(4) 0.4906(5) 0.8259(2)
H9_2 H 0.7775 0.4974 0.8369
C11_2 C 0.8534(6) 0.4013(6) 0.8061(3)
H10_2 H 0.8188 0.3492 0.8068
C12_2 C 0.9693(6) 0.4687(5) 0.7903(3)
C13_2 C 0.9488(5) 0.5582(5) 0.8100(3)
H12_2 H 0.9823 0.6115 0.8106
C14_2 C 0.8174(3) 0.8334(3) 0.83401(17)
H13_2 H 0.8483 0.8520 0.8622
H14_2 H 0.8540 0.8066 0.8131
C15_2 C 0.8195(3) 0.9907(4) 0.80100(17)
H18_2 H 0.9325 0.9534 0.8285
C20_2 C 0.6978(3) 0.7995(3) 0.87796(15)
H19_2 H 0.6657 0.8517 0.8643
H20_2 H 0.6616 0.7493 0.8866
C21_2 C 0.7079(3) 0.8646(3) 0.95406(14)
C22_2 C 0.6256(3) 0.8694(3) 0.95591(15)
H21_2 H 0.5912 0.8510 0.9307
C23_2 C 0.5953(3) 0.9015(3) 0.99522(14)
H22_2 H 0.5396 0.9039 0.9962
C25_2 C 0.7563(3) 0.8937(3) 0.99246(15)
H24_2 H 0.8122 0.8911 0.9926
H35_2 H 0.2485 0.7765 0.9993
C50_2 C 0.0941(3) 0.7977(5) 0.97874(19)
C52_2 C 0.1168(4) 0.8791(5) 0.95609(19)
H37_2 H 0.1387 0.9305 0.9731
C53_2 C 0.1075(4) 0.8853(6) 0.9090(2)
H38_2 H 0.1224 0.9420 0.8952
C55_2 C 0.0785(4) 0.8152(6) 0.88216(19)
C56_2 C 0.0536(4) 0.7353(6) 0.9036(2)
H39_2 H 0.0310 0.6856 0.8857
C57_2 C 0.0608(4) 0.7244(5) 0.9524(2)
H40_2 H 0.0432 0.6689 0.9661
C58_2 C 0.0764(4) 0.8215(7) 0.8289(2)
N1_2 N 0.6425(2) 0.5789(3) 0.64787(12)
O7_2 O 0.1074(5) 0.8980(6) 0.8136(2)
O9_2 O 0.7483(2) 0.6862(3) 0.77024(12)
O10_2 O 0.8637(3) 0.6496(3) 0.84811(19)
O11_2 O 0.77584(19) 0.9153(2) 0.81327(12)
O12_2 O 0.74655(18) 0.8327(2) 0.91783(10)
Co3_2 Co 0.58739(3) 0.52194(4) 0.589065(19)
C10_3 C 0.8281(4) 0.0094(5) 0.3259(2)
H9_3 H 0.7775 0.0026 0.3369
C11_3 C 0.8534(6) 0.0987(6) 0.3061(3)
H10_3 H 0.8188 0.1508 0.3068
C12_3 C 0.9693(6) 0.0313(5) 0.2903(3)
N2 N 0.9190(4) 0.1104(4) 0.28820(17)
C1_3 C 0.6030(3) 0.8652(4) 0.17415(18)
H1_3 H 0.5499 0.8505 0.1641
C2_3 C 0.6331(3) 0.8263(4) 0.21538(19)
H2_3 H 0.6011 0.7874 0.2324
C3_3 C 0.7104(3) 0.8459(3) 0.23056(17)
C4_3 C 0.7552(3) 0.9038(4) 0.20371(18)
H3_3 H 0.8087 0.9181 0.2128
C5_3 C 0.7190(3) 0.9399(4) 0.16324(17)
H4_3 H 0.7493 0.9796 0.1456
C6_3 C 0.7008(3) 0.7639(3) 0.30109(16)
H5_3 H 0.6563 0.8039 0.3092
H6_3 H 0.6786 0.7061 0.2866
C7_3 C 0.7544(3) 0.7386(3) 0.34402(15)
C8_3 C 0.7951(4) 0.8289(5) 0.3662(2)
H7_3 H 0.8060 0.8182 0.3990
H8_3 H 0.7584 0.8826 0.3621
C9_3 C 0.8781(4) 0.9416(5) 0.3273(2)
C13_3 C 0.9488(5) 0.9418(5) 0.3100(3)
H12_3 H 0.9823 0.8885 0.3106
C14_3 C 0.8174(3) 0.6666(3) 0.33401(17)
H13_3 H 0.8483 0.6480 0.3622
H14_3 H 0.8540 0.6934 0.3131
C15_3 C 0.8195(3) 0.5093(4) 0.30100(17)
C16_3 C 0.7801(3) 0.4390(4) 0.2760(2)
H15_3 H 0.7249 0.4441 0.2681
C17_3 C 0.8216(4) 0.3612(4) 0.2625(2)
H16_3 H 0.7941 0.3149 0.2445
C18_3 C 0.9385(3) 0.4188(4) 0.2991(2)
H17_3 H 0.9932 0.4112 0.3076
C19_3 C 0.9031(3) 0.4992(4) 0.31236(19)
H18_3 H 0.9325 0.5466 0.3285
C20_3 C 0.6978(3) 0.7005(3) 0.37796(15)
H19_3 H 0.6657 0.6483 0.3643
H20_3 H 0.6616 0.7507 0.3866
C21_3 C 0.7079(3) 0.6354(3) 0.45406(14)
C22_3 C 0.6256(3) 0.6306(3) 0.45591(15)
H21_3 H 0.5912 0.6490 0.4307
C23_3 C 0.5953(3) 0.5985(3) 0.49522(14)
H22_3 H 0.5396 0.5961 0.4962
C24_3 C 0.7211(3) 0.5741(3) 0.52951(15)
H23_3 H 0.7544 0.5533 0.5547
C25_3 C 0.7563(3) 0.6063(3) 0.49246(15)
H24_3 H 0.8122 0.6089 0.4926
C26_2 C 0.6291(3) 0.3465(3) 0.58676(16)
C27_2 C 0.6351(3) 0.2401(3) 0.58142(17)
C28_2 C 0.5660(4) 0.1858(4) 0.5720(2)
H25_2 H 0.5157 0.2152 0.5697
C29_2 C 0.5718(4) 0.0874(4) 0.5661(3)
H26_2 H 0.5254 0.0517 0.5585
C30_2 C 0.6454(4) 0.0424(4) 0.5712(2)
C31_2 C 0.7149(3) 0.0984(4) 0.58076(18)
H27_2 H 0.7654 0.0695 0.5833
C32_2 C 0.7086(3) 0.1958(3) 0.58640(17)
H28_2 H 0.7549 0.2319 0.5937
C41_3 C 0.4280(3) 0.5682(3) 0.59784(16)
C42_3 C 0.3436(2) 0.6035(3) 0.58038(14)
C43_3 C 0.2786(3) 0.5823(3) 0.60483(16)
H33_3 H 0.2862 0.5469 0.6318
C44_3 C 0.2025(3) 0.6129(4) 0.58987(17)
H34_3 H 0.1593 0.5987 0.6071
C45_3 C 0.0355(4) 0.6412(7) 0.5485(2)
C46_3 C 0.1896(3) 0.6646(4) 0.54942(16)
C47_3 C 0.2555(3) 0.6866(4) 0.52593(16)
H35_3 H 0.2485 0.7235 0.4993
C48_3 C 0.3315(3) 0.6557(4) 0.54047(17)
H36_3 H 0.3748 0.6701 0.5234
C49_3 C 0.1060(3) 0.7025(4) 0.53171(18)
C50_3 C 0.0941(3) 0.7023(5) 0.47874(19)
C51_3 C 0.1010(6) 0.8032(8) 0.5511(3)
C52_3 C 0.1168(4) 0.6209(5) 0.45609(19)
H37_3 H 0.1387 0.5695 0.4731
C53_3 C 0.1075(4) 0.6147(6) 0.4090(2)
H38_3 H 0.1224 0.5580 0.3952
C55_3 C 0.0785(4) 0.6848(6) 0.38216(19)
C56_3 C 0.0536(4) 0.7647(6) 0.4036(2)
H39_3 H 0.0310 0.8144 0.3857
C57_3 C 0.0608(4) 0.7756(5) 0.4524(2)
H40_3 H 0.0432 0.8311 0.4661
C58_3 C 0.0764(4) 0.6785(7) 0.3289(2)
F1_3 F 0.1488(4) 0.8629(3) 0.5338(2)
F2_3 F 0.0241(3) 0.8392(4) 0.54558(16)
F3_3 F 0.1189(3) 0.8031(4) 0.59683(15)
F5_3 F 0.0256(2) 0.6485(4) 0.59251(14)
F6_3 F 0.0492(2) 0.5491(4) 0.54115(15)
N3_3 N 0.9013(3) 0.3486(3) 0.27446(16)
N4_3 N 0.6417(2) 0.5701(2) 0.53251(12)
O1_2 O 0.5589(2) 0.3842(2) 0.58252(13)
O2_3 O 0.4352(2) 0.5222(3) 0.63391(12)
O3_2 O 0.68913(19) 0.3960(2) 0.59452(11)
O6_3 O 0.48403(18) 0.5876(2) 0.57307(11)
O7_3 O 0.1074(5) 0.6020(6) 0.3136(2)
O8_2 O 0.0405(5) 0.7381(5) 0.30858(18)
O9_3 O 0.7483(2) 0.8138(3) 0.27024(12)
O10_3 O 0.8637(3) 0.8504(3) 0.34811(19)
O11_3 O 0.77584(19) 0.5847(2) 0.31327(12)
O12_3 O 0.74655(18) 0.6673(2) 0.41783(10)
O15_2 O 0.9595(5) 0.2381(5) 0.19142(18)
C1_4 C 0.3970(3) 0.3652(4) 0.32585(18)
H1_4 H 0.4501 0.3505 0.3359
C2_4 C 0.3669(3) 0.3263(4) 0.28462(19)
H2_4 H 0.3989 0.2874 0.2676
C3_4 C 0.2896(3) 0.3459(3) 0.26944(17)
C4_4 C 0.2448(3) 0.4038(4) 0.29629(18)
H3_4 H 0.1913 0.4181 0.2872
C5_4 C 0.2810(3) 0.4399(4) 0.33676(17)
H4_4 H 0.2507 0.4796 0.3544
C6_4 C 0.2992(3) 0.2639(3) 0.19891(16)
H5_4 H 0.3437 0.3039 0.1908
H6_4 H 0.3214 0.2061 0.2134
C7_4 C 0.2456(3) 0.2386(3) 0.15598(15)
C8_4 C 0.2049(4) 0.3289(5) 0.1338(2)
H7_4 H 0.1940 0.3182 0.1010
H8_4 H 0.2416 0.3826 0.1379
C9_4 C 0.1219(4) 0.4416(5) 0.1727(2)
C10_4 C 0.1719(4) 0.5094(5) 0.1741(2)
H9_4 H 0.2225 0.5026 0.1631
C11_4 C 0.1466(6) 0.5987(6) 0.1939(3)
H10_4 H 0.1812 0.6508 0.1932
C12_4 C 0.0307(6) 0.5313(5) 0.2097(3)
C13_4 C 0.0512(5) 0.4418(5) 0.1900(3)
H12_4 H 0.0177 0.3885 0.1894
C14_4 C 0.1826(3) 0.1666(3) 0.16599(17)
H13_4 H 0.1517 0.1480 0.1378
H14_4 H 0.1460 0.1934 0.1869
C15_4 C 0.1805(3) 0.0093(4) 0.19900(17)
H18_4 H 0.0675 0.0466 0.1715
C20_4 C 0.3022(3) 0.2005(3) 0.12204(15)
H19_4 H 0.3343 0.1483 0.1357
H20_4 H 0.3384 0.2507 0.1134
C21_4 C 0.2921(3) 0.1354(3) 0.04594(14)
C22_4 C 0.3744(3) 0.1306(3) 0.04409(15)
H21_4 H 0.4088 0.1490 0.0693
C23_4 C 0.4047(3) 0.0985(3) 0.00478(14)
H22_4 H 0.4604 0.0961 0.0038
C25_4 C 0.2437(3) 0.1063(3) 0.00754(15)
H24_4 H 0.1878 0.1089 0.0074
H35_4 H 0.7515 0.2235 0.0007
C50_4 C 0.9059(3) 0.2023(5) 0.02126(19)
C52_4 C 0.8832(4) 0.1209(5) 0.04391(19)
H37_4 H 0.8613 0.0695 0.0269
C53_4 C 0.8925(4) 0.1147(6) 0.0910(2)
H38_4 H 0.8776 0.0580 0.1048
C55_4 C 0.9215(4) 0.1848(6) 0.11784(19)
C56_4 C 0.9464(4) 0.2647(6) 0.0964(2)
H39_4 H 0.9690 0.3144 0.1143
C57_4 C 0.9392(4) 0.2756(5) 0.0476(2)
H40_4 H 0.9568 0.3311 0.0339
C58_4 C 0.9236(4) 0.1785(7) 0.1711(2)
N2_2 N 0.0810(4) 0.6104(4) 0.21180(17)
O7_4 O 0.8926(5) 0.1020(6) 0.1864(2)
O9_4 O 0.2517(2) 0.3138(3) 0.22976(12)
O10_4 O 0.1363(3) 0.3504(3) 0.15189(19)
O11_4 O 0.22416(19) 0.0847(2) 0.18673(12)
O12_4 O 0.25345(18) 0.1673(2) 0.08217(10)
C24_4 C 0.2789(3) 0.0741(3) 0.97049(15)
H23_4 H 0.2456 0.0533 0.9453
C41_4 C 0.5720(3) 0.0682(3) 0.90216(16)
C42_4 C 0.6564(2) 0.1035(3) 0.91962(14)
C43_4 C 0.7214(3) 0.0823(3) 0.89517(16)
H33_4 H 0.7138 0.0469 0.8682
C44_4 C 0.7975(3) 0.1129(4) 0.91013(17)
H34_4 H 0.8407 0.0987 0.8929
C45_4 C 0.9645(4) 0.1412(7) 0.9515(2)
C46_4 C 0.8104(3) 0.1646(4) 0.95058(16)
C47_4 C 0.7445(3) 0.1866(4) 0.97407(16)
C48_4 C 0.6685(3) 0.1557(4) 0.95953(17)
H36_4 H 0.6252 0.1701 0.9766
C49_4 C 0.8940(3) 0.2025(4) 0.96829(18)
C51_4 C 0.8990(6) 0.3032(8) 0.9489(3)
F1_4 F 0.8512(4) 0.3629(3) 0.9662(2)
F2_4 F 0.9759(3) 0.3392(4) 0.95442(16)
F3_4 F 0.8811(3) 0.3031(4) 0.90317(15)
F5_4 F 0.9744(2) 0.1485(4) 0.90749(14)
F6_4 F 0.9508(2) 0.0491(4) 0.95885(15)
N4_4 N 0.3583(2) 0.0701(2) 0.96749(12)
O2_4 O 0.5648(2) 0.0222(3) 0.86609(12)
O6_4 O 0.51597(18) 0.0876(2) 0.92693(11)
C16_4 C 0.2199(3) 0.9390(4) 0.2240(2)
H15_4 H 0.2751 0.9441 0.2319
C17_4 C 0.1784(4) 0.8612(4) 0.2375(2)
H16_4 H 0.2059 0.8149 0.2555
C18_4 C 0.0615(3) 0.9188(4) 0.2009(2)
H17_4 H 0.0068 0.9112 0.1924
C19_4 C 0.0969(3) 0.9992(4) 0.18764(19)
F7_3 F 0.3722(4) 0.4731(3) 0.01514(16)
F9_3 F 0.3239(4) 0.3349(3) 0.00160(17)
N3_4 N 0.0987(3) 0.8486(3) 0.22554(16)
O13 O 0.9058(3) 0.8395(4) 0.73943(15)
O14 O 0.9483(3) 0.7368(3) 0.69199(19)
C33_2 C 0.6576(4) 0.9335(4) 0.5626(2)
C34_2 C 0.7223(4) 0.8932(4) 0.5976(2)
C35_2 C 0.7190(4) 0.9196(4) 0.6434(2)
H29_2 H 0.6786 0.9610 0.6513
C36_2 C 0.7736(4) 0.8862(4) 0.6771(2)
H30_2 H 0.7706 0.9051 0.7075
C37_2 C 0.8334(3) 0.8239(4) 0.6655(2)
C38_2 C 0.8342(4) 0.7945(4) 0.6214(2)
H31_2 H 0.8727 0.7503 0.6137
C39_2 C 0.7793(4) 0.8286(4) 0.5876(2)
H32_2 H 0.7812 0.8071 0.5575
C40_2 C 0.8988(4) 0.7966(4) 0.7022(3)
C54_2 C 0.5788(6) 0.8791(5) 0.5670(4)
C59_2 C 0.6738(8) 0.9223(6) 0.5157(3)
F7_4 F 0.6278(4) 0.9731(3) 0.48486(16)
F8_2 F 0.7518(4) 0.9574(3) 0.50907(15)
F9_4 F 0.6761(4) 0.8349(3) 0.49840(17)
F10_2 F 0.5472(3) 0.8964(3) 0.6073(3)
F11_2 F 0.5209(3) 0.8919(3) 0.5345(2)
F12_2 F 0.5942(3) 0.7822(3) 0.5680(2)
H11 H 0.9808 0.9633 0.7217
O13_2 O 0.0942(3) 0.3395(4) 0.76057(15)
O14_2 O 0.0517(3) 0.2368(3) 0.80801(19)
C26_3 C 0.3709(3) 0.8465(3) 0.91324(16)
C27_3 C 0.3649(3) 0.7401(3) 0.91858(17)
C28_3 C 0.4340(4) 0.6858(4) 0.9280(2)
H25_3 H 0.4843 0.7152 0.9303
C29_3 C 0.4282(4) 0.5874(4) 0.9339(3)
H26_3 H 0.4746 0.5517 0.9415
C30_3 C 0.3546(4) 0.5424(4) 0.9288(2)
C31_3 C 0.2851(3) 0.5984(4) 0.91924(18)
H27_3 H 0.2346 0.5695 0.9167
C32_3 C 0.2914(3) 0.6958(3) 0.91360(17)
H28_3 H 0.2451 0.7319 0.9063
C33_3 C 0.3424(4) 0.4335(4) 0.9374(2)
C34_3 C 0.2777(4) 0.3932(4) 0.9024(2)
C35_3 C 0.2810(4) 0.4196(4) 0.8566(2)
H29_3 H 0.3214 0.4610 0.8487
C36_3 C 0.2264(4) 0.3862(4) 0.8229(2)
H30_3 H 0.2294 0.4051 0.7925
C37_3 C 0.1666(3) 0.3239(4) 0.8345(2)
C38_3 C 0.1658(4) 0.2945(4) 0.8786(2)
H31_3 H 0.1273 0.2503 0.8863
C39_3 C 0.2207(4) 0.3286(4) 0.9124(2)
H32_3 H 0.2188 0.3071 0.9425
C40_3 C 0.1012(4) 0.2966(4) 0.7978(3)
C54_3 C 0.4212(6) 0.3791(5) 0.9330(4)
C59_3 C 0.3262(8) 0.4223(6) 0.9843(3)
F8_3 F 0.2482(4) 0.4574(3) 0.99093(15)
F10_3 F 0.4528(3) 0.3964(3) 0.8927(3)
F11_3 F 0.4791(3) 0.3919(3) 0.9655(2)
F12_3 F 0.4058(3) 0.2822(3) 0.9320(2)
O1_3 O 0.4411(2) 0.8842(2) 0.91748(13)
O3_3 O 0.31087(19) 0.8960(2) 0.90548(11)
H11_2 H 0.0192 0.4633 0.7783
C26_4 C 0.6291(3) 0.1535(3) 0.08676(16)
C27_4 C 0.6351(3) 0.2599(3) 0.08142(17)
C28_4 C 0.5660(4) 0.3142(4) 0.0720(2)
H25_4 H 0.5157 0.2848 0.0697
C29_4 C 0.5718(4) 0.4126(4) 0.0661(3)
H26_4 H 0.5254 0.4483 0.0585
C30_4 C 0.6454(4) 0.4576(4) 0.0712(2)
C31_4 C 0.7149(3) 0.4016(4) 0.08076(18)
H27_4 H 0.7654 0.4305 0.0833
C32_4 C 0.7086(3) 0.3042(3) 0.08640(17)
H28_4 H 0.7549 0.2681 0.0937
C33_4 C 0.6576(4) 0.5665(4) 0.0626(2)
C34_4 C 0.7223(4) 0.6068(4) 0.0976(2)
C35_4 C 0.7190(4) 0.5804(4) 0.1434(2)
H29_4 H 0.6786 0.5390 0.1513
C36_4 C 0.7736(4) 0.6138(4) 0.1771(2)
H30_4 H 0.7706 0.5949 0.2075
C37_4 C 0.8334(3) 0.6761(4) 0.1655(2)
C38_4 C 0.8342(4) 0.7055(4) 0.1214(2)
H31_4 H 0.8727 0.7497 0.1137
C39_4 C 0.7793(4) 0.6714(4) 0.0876(2)
H32_4 H 0.7812 0.6929 0.0575
C40_4 C 0.8988(4) 0.7034(4) 0.2022(3)
C54_4 C 0.5788(6) 0.6209(5) 0.0670(4)
C59_4 C 0.6738(8) 0.5777(6) 0.0157(3)
F8_4 F 0.7518(4) 0.5426(3) 0.00907(15)
F10_4 F 0.5472(3) 0.6036(3) 0.1073(3)
F11_4 F 0.5209(3) 0.6081(3) 0.0345(2)
F12_4 F 0.5942(3) 0.7178(3) 0.0680(2)
O1_4 O 0.5589(2) 0.1158(2) 0.08252(13)
O3_4 O 0.68913(19) 0.1040(2) 0.09452(11)
O4_2 O 0.9058(3) 0.6605(4) 0.23943(15)
O5_2 O 0.9483(3) 0.7632(3) 0.19199(19)
F4_2 F 0.9662(2) 0.8377(4) 0.02561(15)
H11_3 H 0.0192 0.0367 0.2783
F4_3 F 0.9662(2) 0.6623(4) 0.52561(15)
F4_4 F 0.0338(2) 0.1623(4) 0.97439(15)
H11_4 H 0.9808 0.5367 0.2217
loop_
_geom_bond_atom_site_label_1
_geom_bond_atom_site_label_2
_geom_bond_site_symmetry_1
_geom_bond_site_symmetry_2
C34 C33 1_555 1_555
C35 C34 1_555 1_555
H29 C35 1_555 1_555
C36 C35 1_555 1_555
H30 C36 1_555 1_555
C37 C36 1_555 1_555
C38 C37 1_555 1_555
H31 C38 1_555 1_555
C39 C34 1_555 1_555
H32 C39 1_555 1_555
C40 C37 1_555 1_555
C54 C33 1_555 1_555
C59 C33 1_555 1_555
F7 C59 1_555 1_555
F8 C59 1_555 1_555
F9 C59 1_555 1_555
F10 C54 1_555 1_555
F11 C54 1_555 1_555
F12 C54 1_555 1_555
O4 C40 1_555 1_555
O5 C40 1_555 1_555
C38 C39 1_555 1_555
C1 H1 1_555 1_555
C2 C1 1_555 1_555
H2 C2 1_555 1_555
C3 C2 1_555 1_555
C4 C3 1_555 1_555
H3 C4 1_555 1_555
C5 C4 1_555 1_555
H4 C5 1_555 1_555
C6 H5 1_555 1_555
H6 C6 1_555 1_555
C7 C6 1_555 1_555
C8 C7 1_555 1_555
H7 C8 1_555 1_555
H8 C8 1_555 1_555
C13 C9 1_555 1_555
H12 C13 1_555 1_555
C14 C7 1_555 1_555
H13 C14 1_555 1_555
H14 C14 1_555 1_555
C15 C16 1_555 1_555
C16 H15 1_555 1_555
C17 C16 1_555 1_555
H16 C17 1_555 1_555
C18 H17 1_555 1_555
C19 C15 1_555 1_555
H18 C19 1_555 1_555
C20 C7 1_555 1_555
H19 C20 1_555 1_555
H20 C20 1_555 1_555
C21 C22 1_555 1_555
C22 H21 1_555 1_555
C23 C22 1_555 1_555
H22 C23 1_555 1_555
C24 H23 1_555 1_555
C25 C21 1_555 1_555
H24 C25 1_555 1_555
C26 C27 1_555 1_555
C27 C28 1_555 1_555
C28 H25 1_555 1_555
C29 C28 1_555 1_555
H26 C29 1_555 1_555
C30 C29 1_555 1_555
C31 C30 1_555 1_555
H27 C31 1_555 1_555
C32 C27 1_555 1_555
H28 C32 1_555 1_555
C41 C42 1_555 1_555
C42 C43 1_555 1_555
C43 H33 1_555 1_555
C44 C43 1_555 1_555
H34 C44 1_555 1_555
C45 C49 1_555 1_555
C46 C44 1_555 1_555
C47 C46 1_555 1_555
H35 C47 1_555 1_555
C48 C42 1_555 1_555
H36 C48 1_555 1_555
C49 C46 1_555 1_555
C50 C49 1_555 1_555
C51 C49 1_555 1_555
C52 C50 1_555 1_555
H37 C52 1_555 1_555
C53 C52 1_555 1_555
H38 C53 1_555 1_555
C55 C53 1_555 1_555
C56 C55 1_555 1_555
H39 C56 1_555 1_555
C57 C50 1_555 1_555
H40 C57 1_555 1_555
C58 C55 1_555 1_555
Co1 N4 1_555 1_555
Co2 N3 1_555 1_555
F1 C51 1_555 1_555
F2 C51 1_555 1_555
F3 C51 1_555 1_555
F5 C45 1_555 1_555
F6 C45 1_555 1_555
N1 C1 1_555 1_555
N3 C17 1_555 1_555
N4 C23 1_555 1_555
O1 C26 1_555 1_555
O2 C41 1_555 1_555
O3 C26 1_555 1_555
O6 C41 1_555 1_555
O7 C58 1_555 1_555
O8 C58 1_555 1_555
O9 C3 1_555 1_555
O10 C8 1_555 1_555
O11 C14 1_555 1_555
O12 C20 1_555 1_555
Co3 N1 1_555 1_555
Co5 O8 1_555 1_555
N5 Co1 1_555 1_555
N6 Co2 1_555 1_555
O15 Co2 1_555 1_555
C5 N1 1_555 1_555
C6 O9 1_555 1_555
C9 O10 1_555 1_555
C15 O11 1_555 1_555
C18 C19 1_555 1_555
C18 N3 1_555 1_555
C21 O12 1_555 1_555
C24 C25 1_555 1_555
C24 N4 1_555 1_555
C31 C32 1_555 1_555
C47 C48 1_555 1_555
C56 C57 1_555 1_555
Co1 O1 1_555 1_555
Co1 O3 1_555 1_555
Co1 O6 1_555 1_555
C10 H9 1_555 1_555
C11 C10 1_555 1_555
H10 C11 1_555 1_555
N6 C11 1_555 1_555
C12 N6 1_555 1_555
C16_2 H15_2 1_555 1_555
C17_2 C16_2 1_555 1_555
H16_2 C17_2 1_555 1_555
C18_2 H17_2 1_555 1_555
Co5 N3_2 1_555 1_555
N3_2 C17_2 1_555 1_555
N6_2 Co5 1_555 1_555
C18_2 C19_2 1_555 1_555
C18_2 N3_2 1_555 1_555
C24_2 H23_2 1_555 1_555
C41_2 C42_2 1_555 1_555
C42_2 C43_2 1_555 1_555
C43_2 H33_2 1_555 1_555
C44_2 C43_2 1_555 1_555
H34_2 C44_2 1_555 1_555
C45_2 C49_2 1_555 1_555
C46_2 C44_2 1_555 1_555
C47_2 C46_2 1_555 1_555
C48_2 C42_2 1_555 1_555
H36_2 C48_2 1_555 1_555
C49_2 C46_2 1_555 1_555
C51_2 C49_2 1_555 1_555
Co1_2 N4_2 1_555 1_555
F1_2 C51_2 1_555 1_555
F2_2 C51_2 1_555 1_555
F3_2 C51_2 1_555 1_555
F5_2 C45_2 1_555 1_555
F6_2 C45_2 1_555 1_555
O2_2 C41_2 1_555 1_555
O6_2 C41_2 1_555 1_555
N5_2 Co1_2 1_555 1_555
C24_2 N4_2 1_555 1_555
C47_2 C48_2 1_555 1_555
Co1_2 O6_2 1_555 1_555
C1_2 H1_2 1_555 1_555
C2_2 C1_2 1_555 1_555
H2_2 C2_2 1_555 1_555
C3_2 C2_2 1_555 1_555
C4_2 C3_2 1_555 1_555
H3_2 C4_2 1_555 1_555
C5_2 C4_2 1_555 1_555
H4_2 C5_2 1_555 1_555
C6_2 H5_2 1_555 1_555
H6_2 C6_2 1_555 1_555
C7_2 C6_2 1_555 1_555
C8_2 C7_2 1_555 1_555
H7_2 C8_2 1_555 1_555
H8_2 C8_2 1_555 1_555
C9_2 C10_2 1_555 1_555
C10_2 H9_2 1_555 1_555
C11_2 C10_2 1_555 1_555
H10_2 C11_2 1_555 1_555
C13_2 C9_2 1_555 1_555
H12_2 C13_2 1_555 1_555
C14_2 C7_2 1_555 1_555
H13_2 C14_2 1_555 1_555
H14_2 C14_2 1_555 1_555
C20_2 C7_2 1_555 1_555
H19_2 C20_2 1_555 1_555
H20_2 C20_2 1_555 1_555
C21_2 C22_2 1_555 1_555
C22_2 H21_2 1_555 1_555
C23_2 C22_2 1_555 1_555
H22_2 C23_2 1_555 1_555
C25_2 C21_2 1_555 1_555
H24_2 C25_2 1_555 1_555
C52_2 C50_2 1_555 1_555
H37_2 C52_2 1_555 1_555
C53_2 C52_2 1_555 1_555
H38_2 C53_2 1_555 1_555
C55_2 C53_2 1_555 1_555
C56_2 C55_2 1_555 1_555
H39_2 C56_2 1_555 1_555
C57_2 C50_2 1_555 1_555
H40_2 C57_2 1_555 1_555
C58_2 C55_2 1_555 1_555
N1_2 C1_2 1_555 1_555
N6_2 C11_2 1_555 1_555
O7_2 C58_2 1_555 1_555
O15 C58_2 1_555 1_555
O9_2 C3_2 1_555 1_555
O10_2 C8_2 1_555 1_555
O11_2 C14_2 1_555 1_555
O12_2 C20_2 1_555 1_555
Co3_2 N1_2 1_555 1_555
C5_2 N1_2 1_555 1_555
C6_2 O9_2 1_555 1_555
C9_2 O10_2 1_555 1_555
C12_2 C13_2 1_555 1_555
C12_2 N6_2 1_555 1_555
C15_2 O11_2 1_555 1_555
C21_2 O12_2 1_555 1_555
C56_2 C57_2 1_555 1_555
C10_3 H9_3 1_555 1_555
C11_3 C10_3 1_555 1_555
H10_3 C11_3 1_555 1_555
N2 C11_3 1_555 1_555
Co6 N2 1_555 1_555
C12_3 N2 1_555 1_555
C1_3 H1_3 1_555 1_555
C2_3 C1_3 1_555 1_555
H2_3 C2_3 1_555 1_555
C3_3 C2_3 1_555 1_555
C4_3 C3_3 1_555 1_555
H3_3 C4_3 1_555 1_555
C5_3 C4_3 1_555 1_555
H4_3 C5_3 1_555 1_555
C6_3 H5_3 1_555 1_555
H6_3 C6_3 1_555 1_555
C7_3 C6_3 1_555 1_555
C8_3 C7_3 1_555 1_555
H7_3 C8_3 1_555 1_555
H8_3 C8_3 1_555 1_555
C13_3 C9_3 1_555 1_555
H12_3 C13_3 1_555 1_555
C14_3 C7_3 1_555 1_555
H13_3 C14_3 1_555 1_555
H14_3 C14_3 1_555 1_555
C15_3 C16_3 1_555 1_555
C16_3 H15_3 1_555 1_555
C17_3 C16_3 1_555 1_555
H16_3 C17_3 1_555 1_555
C18_3 H17_3 1_555 1_555
C19_3 C15_3 1_555 1_555
H18_3 C19_3 1_555 1_555
C20_3 C7_3 1_555 1_555
H19_3 C20_3 1_555 1_555
H20_3 C20_3 1_555 1_555
C21_3 C22_3 1_555 1_555
C22_3 H21_3 1_555 1_555
C23_3 C22_3 1_555 1_555
H22_3 C23_3 1_555 1_555
C24_3 H23_3 1_555 1_555
C25_3 C21_3 1_555 1_555
H24_3 C25_3 1_555 1_555
C26_2 C27_2 1_555 1_555
C27_2 C28_2 1_555 1_555
C28_2 H25_2 1_555 1_555
C29_2 C28_2 1_555 1_555
H26_2 C29_2 1_555 1_555
C30_2 C29_2 1_555 1_555
C31_2 C30_2 1_555 1_555
H27_2 C31_2 1_555 1_555
C32_2 C27_2 1_555 1_555
H28_2 C32_2 1_555 1_555
C41_3 C42_3 1_555 1_555
C42_3 C43_3 1_555 1_555
C43_3 H33_3 1_555 1_555
C44_3 C43_3 1_555 1_555
H34_3 C44_3 1_555 1_555
C45_3 C49_3 1_555 1_555
C46_3 C44_3 1_555 1_555
C47_3 C46_3 1_555 1_555
H35_3 C47_3 1_555 1_555
C48_3 C42_3 1_555 1_555
H36_3 C48_3 1_555 1_555
C49_3 C46_3 1_555 1_555
C50_3 C49_3 1_555 1_555
C51_3 C49_3 1_555 1_555
C52_3 C50_3 1_555 1_555
H37_3 C52_3 1_555 1_555
C53_3 C52_3 1_555 1_555
H38_3 C53_3 1_555 1_555
C55_3 C53_3 1_555 1_555
C56_3 C55_3 1_555 1_555
H39_3 C56_3 1_555 1_555
C57_3 C50_3 1_555 1_555
H40_3 C57_3 1_555 1_555
C58_3 C55_3 1_555 1_555
Co3_2 N4_3 1_555 1_555
Co6 N3_3 1_555 1_555
F1_3 C51_3 1_555 1_555
F2_3 C51_3 1_555 1_555
F3_3 C51_3 1_555 1_555
F5_3 C45_3 1_555 1_555
F6_3 C45_3 1_555 1_555
N5_2 C1_3 1_555 1_555
N3_3 C17_3 1_555 1_555
N4_3 C23_3 1_555 1_555
O1_2 C26_2 1_555 1_555
O2_3 C41_3 1_555 1_555
O3_2 C26_2 1_555 1_555
O6_3 C41_3 1_555 1_555
O7_3 C58_3 1_555 1_555
O8_2 C58_3 1_555 1_555
O9_3 C3_3 1_555 1_555
O10_3 C8_3 1_555 1_555
O11_3 C14_3 1_555 1_555
O12_3 C20_3 1_555 1_555
Co6_2 O8_2 1_555 1_555
O15_2 Co6 1_555 1_555
C5_3 N5_2 1_555 1_555
C6_3 O9_3 1_555 1_555
C9_3 O10_3 1_555 1_555
C15_3 O11_3 1_555 1_555
C18_3 C19_3 1_555 1_555
C18_3 N3_3 1_555 1_555
C21_3 O12_3 1_555 1_555
C24_3 C25_3 1_555 1_555
C24_3 N4_3 1_555 1_555
C31_2 C32_2 1_555 1_555
C47_3 C48_3 1_555 1_555
C56_3 C57_3 1_555 1_555
Co3_2 O1_2 1_555 1_555
Co3_2 O3_2 1_555 1_555
Co3_2 O6_3 1_555 1_555
C1_4 H1_4 1_555 1_555
C2_4 C1_4 1_555 1_555
H2_4 C2_4 1_555 1_555
C3_4 C2_4 1_555 1_555
C4_4 C3_4 1_555 1_555
H3_4 C4_4 1_555 1_555
C5_4 C4_4 1_555 1_555
H4_4 C5_4 1_555 1_555
C6_4 H5_4 1_555 1_555
H6_4 C6_4 1_555 1_555
C7_4 C6_4 1_555 1_555
C8_4 C7_4 1_555 1_555
H7_4 C8_4 1_555 1_555
H8_4 C8_4 1_555 1_555
C9_4 C10_4 1_555 1_555
C10_4 H9_4 1_555 1_555
C11_4 C10_4 1_555 1_555
H10_4 C11_4 1_555 1_555
C13_4 C9_4 1_555 1_555
H12_4 C13_4 1_555 1_555
C14_4 C7_4 1_555 1_555
H13_4 C14_4 1_555 1_555
H14_4 C14_4 1_555 1_555
C20_4 C7_4 1_555 1_555
H19_4 C20_4 1_555 1_555
H20_4 C20_4 1_555 1_555
C21_4 C22_4 1_555 1_555
C22_4 H21_4 1_555 1_555
C23_4 C22_4 1_555 1_555
H22_4 C23_4 1_555 1_555
C25_4 C21_4 1_555 1_555
H24_4 C25_4 1_555 1_555
C52_4 C50_4 1_555 1_555
H37_4 C52_4 1_555 1_555
C53_4 C52_4 1_555 1_555
H38_4 C53_4 1_555 1_555
C55_4 C53_4 1_555 1_555
C56_4 C55_4 1_555 1_555
H39_4 C56_4 1_555 1_555
C57_4 C50_4 1_555 1_555
H40_4 C57_4 1_555 1_555
C58_4 C55_4 1_555 1_555
N5 C1_4 1_555 1_555
N2_2 C11_4 1_555 1_555
O7_4 C58_4 1_555 1_555
O15_2 C58_4 1_555 1_555
O9_4 C3_4 1_555 1_555
O10_4 C8_4 1_555 1_555
O11_4 C14_4 1_555 1_555
O12_4 C20_4 1_555 1_555
Co6_2 N2_2 1_555 1_555
C5_4 N5 1_555 1_555
C6_4 O9_4 1_555 1_555
C9_4 O10_4 1_555 1_555
C12_4 C13_4 1_555 1_555
C12_4 N2_2 1_555 1_555
C15_4 O11_4 1_555 1_555
C21_4 O12_4 1_555 1_555
C56_4 C57_4 1_555 1_555
C24_4 H23_4 1_555 1_555
C41_4 C42_4 1_555 1_555
C42_4 C43_4 1_555 1_555
C43_4 H33_4 1_555 1_555
C44_4 C43_4 1_555 1_555
H34_4 C44_4 1_555 1_555
C45_4 C49_4 1_555 1_555
C46_4 C44_4 1_555 1_555
C47_4 C46_4 1_555 1_555
C48_4 C42_4 1_555 1_555
H36_4 C48_4 1_555 1_555
C49_4 C46_4 1_555 1_555
C51_4 C49_4 1_555 1_555
Co3 N4_4 1_555 1_555
F1_4 C51_4 1_555 1_555
F2_4 C51_4 1_555 1_555
F3_4 C51_4 1_555 1_555
F5_4 C45_4 1_555 1_555
F6_4 C45_4 1_555 1_555
O2_4 C41_4 1_555 1_555
O6_4 C41_4 1_555 1_555
C24_4 N4_4 1_555 1_555
C47_4 C48_4 1_555 1_555
Co3 O6_4 1_555 1_555
C16_4 H15_4 1_555 1_555
C17_4 C16_4 1_555 1_555
H16_4 C17_4 1_555 1_555
C18_4 H17_4 1_555 1_555
Co6_2 N3_4 1_555 1_555
N3_4 C17_4 1_555 1_555
C18_4 C19_4 1_555 1_555
C18_4 N3_4 1_555 1_555
C34_2 C33_2 1_555 1_555
C35_2 C34_2 1_555 1_555
H29_2 C35_2 1_555 1_555
C36_2 C35_2 1_555 1_555
H30_2 C36_2 1_555 1_555
C37_2 C36_2 1_555 1_555
C38_2 C37_2 1_555 1_555
H31_2 C38_2 1_555 1_555
C39_2 C34_2 1_555 1_555
H32_2 C39_2 1_555 1_555
C40_2 C37_2 1_555 1_555
C54_2 C33_2 1_555 1_555
C59_2 C33_2 1_555 1_555
F7_4 C59_2 1_555 1_555
F8_2 C59_2 1_555 1_555
F9_4 C59_2 1_555 1_555
F10_2 C54_2 1_555 1_555
F11_2 C54_2 1_555 1_555
F12_2 C54_2 1_555 1_555
O13 C40_2 1_555 1_555
O14 C40_2 1_555 1_555
C38_2 C39_2 1_555 1_555
C26_3 C27_3 1_555 1_555
C27_3 C28_3 1_555 1_555
C28_3 H25_3 1_555 1_555
C29_3 C28_3 1_555 1_555
H26_3 C29_3 1_555 1_555
C30_3 C29_3 1_555 1_555
C31_3 C30_3 1_555 1_555
H27_3 C31_3 1_555 1_555
C32_3 C27_3 1_555 1_555
H28_3 C32_3 1_555 1_555
C33_3 C30_3 1_555 1_555
C34_3 C33_3 1_555 1_555
C35_3 C34_3 1_555 1_555
H29_3 C35_3 1_555 1_555
C36_3 C35_3 1_555 1_555
H30_3 C36_3 1_555 1_555
C37_3 C36_3 1_555 1_555
C38_3 C37_3 1_555 1_555
H31_3 C38_3 1_555 1_555
C39_3 C34_3 1_555 1_555
H32_3 C39_3 1_555 1_555
C40_3 C37_3 1_555 1_555
C54_3 C33_3 1_555 1_555
C59_3 C33_3 1_555 1_555
F8_3 C59_3 1_555 1_555
F10_3 C54_3 1_555 1_555
F11_3 C54_3 1_555 1_555
F12_3 C54_3 1_555 1_555
O1_3 C26_3 1_555 1_555
O3_3 C26_3 1_555 1_555
O13_2 C40_3 1_555 1_555
O14_2 C40_3 1_555 1_555
C31_3 C32_3 1_555 1_555
C38_3 C39_3 1_555 1_555
C26_4 C27_4 1_555 1_555
C27_4 C28_4 1_555 1_555
C28_4 H25_4 1_555 1_555
C29_4 C28_4 1_555 1_555
H26_4 C29_4 1_555 1_555
C30_4 C29_4 1_555 1_555
C31_4 C30_4 1_555 1_555
H27_4 C31_4 1_555 1_555
C32_4 C27_4 1_555 1_555
H28_4 C32_4 1_555 1_555
C33_4 C30_4 1_555 1_555
C34_4 C33_4 1_555 1_555
C35_4 C34_4 1_555 1_555
H29_4 C35_4 1_555 1_555
C36_4 C35_4 1_555 1_555
H30_4 C36_4 1_555 1_555
C37_4 C36_4 1_555 1_555
C38_4 C37_4 1_555 1_555
H31_4 C38_4 1_555 1_555
C39_4 C34_4 1_555 1_555
H32_4 C39_4 1_555 1_555
C40_4 C37_4 1_555 1_555
C54_4 C33_4 1_555 1_555
C59_4 C33_4 1_555 1_555
F8_4 C59_4 1_555 1_555
F10_4 C54_4 1_555 1_555
F11_4 C54_4 1_555 1_555
F12_4 C54_4 1_555 1_555
O1_4 C26_4 1_555 1_555
O3_4 C26_4 1_555 1_555
O4_2 C40_4 1_555 1_555
O5_2 C40_4 1_555 1_555
C31_4 C32_4 1_555 1_555
C38_4 C39_4 1_555 1_555

#END
