
###############################################################################
#
# This file contains modified crystal structure data generated from the
# MOF subset of the Cambridge Structural Database (CSD) v543 
# hosted by the Cambridge Crystallographic Data Centre (CCDC).
#
# This work is licensed under the Creative Commons
# Attribution-NonCommercial-ShareAlike 4.0 International License.
# To view a copy of this license, visit
# http://creativecommons.org/licenses/by-nc-sa/4.0/
# or send a letter to
# Creative Commons, PO Box 1866, Mountain View, CA 94042, USA.
#
# CIF created using the CSD Python API on 29 September 2022
# The structure has been converted into the P1 space group
# The structure has a 3D framework
# The original CSD entry DUKNII is in the monoclinic crystal system
# The framework has been calculated to contain at least 10.0% void space
# The void calculation uses a probe of radius 1.32A, grid spacing 0.4
#
###############################################################################

data_DUKNII
_chemical_formula_moiety         '(C424 H352 N32 Ni16 O128)n'
_symmetry_cell_setting           triclinic
_symmetry_space_group_name_H-M   'P 1'
_symmetry_Int_Tables_number      1
_space_group_name_Hall           'P 1'
loop_
_symmetry_equiv_pos_site_id
_symmetry_equiv_pos_as_xyz
1 x,y,z
_cell_length_a                   46.108(8)
_cell_length_b                   10.6758(19)
_cell_length_c                   23.633(4)
_cell_angle_alpha                90
_cell_angle_beta                 95.274(4)
_cell_angle_gamma                90
_cell_volume                     11583.9
loop_
_atom_site_label
_atom_site_type_symbol
_atom_site_fract_x
_atom_site_fract_y
_atom_site_fract_z
C1 C 0.18885(9) 0.1003(3) 0.04983(17)
C2 C 0.17083(8) 0.2031(3) 0.06756(16)
C3 C 0.15268(8) 0.1884(3) 0.10967(15)
H1 H 0.1518 0.1107 0.1272
C4 C 0.13534(8) 0.2867(3) 0.12736(16)
H2 H 0.1227 0.2749 0.1554
C5 C 0.13783(9) 0.3996(4) 0.10173(16)
C6 C 0.15587(9) 0.4162(4) 0.06074(17)
H3 H 0.1577 0.4952 0.0449
C7 C 0.17157(9) 0.3175(4) 0.04211(17)
H4 H 0.1828 0.3288 0.0118
C8 C 0.10316(8) 0.5631(3) 0.08621(15)
C9 C 0.08891(8) 0.5067(3) 0.04055(15)
H5 H 0.0938 0.4255 0.0307
C10 C 0.06724(8) 0.5701(3) 0.00904(15)
C11 C 0.06007(7) 0.6905(3) 0.02290(14)
C12 C 0.07514(7) 0.7481(3) 0.06745(15)
H7 H 0.0709 0.8307 0.0762
C13 C 0.09687(8) 0.6838(3) 0.10000(16)
H8 H 0.1071 0.7225 0.1310
O2 O 0.19148(5) 0.0049(2) 0.08052(10)
O3 O 0.20131(8) 0.1124(3) 0.00568(13)
O12 O 0.12309(6) 0.5007(2) 0.12378(10)
H6 H 0.0572 0.5312 0.9779
C14 C 0.03459(8) 0.7504(3) 0.99050(14)
H41 H 0.2277 0.0055 0.9996
O8 O 0.02870(5) 0.8650(2) 0.99685(9)
O9 O 0.01844(5) 0.6837(2) 0.95622(9)
O17 O 0.02202(5) 0.8658(2) 0.87522(10)
Ni2 Ni 0.991497(10) 0.83131(4) 0.93003(2)
O10 O 0.97240(5) 0.99944(19) 0.90898(9)
N5 N 0.96611(6) 0.7264(3) 0.87257(11)
N7 N 0.96277(6) 0.8053(3) 0.99384(12)
C15 C 0.71188(8) 0.7131(3) 0.34943(15)
C16 C 0.69657(8) 0.7770(4) 0.30621(16)
H9 H 0.7029 0.8561 0.2963
C17 C 0.67147(8) 0.7263(4) 0.27642(17)
H10 H 0.6614 0.7708 0.2470
C18 C 0.66189(8) 0.6082(4) 0.29169(16)
C19 C 0.67638(9) 0.5453(4) 0.33494(17)
H11 H 0.6698 0.4676 0.3460
C20 C 0.70146(9) 0.5983(4) 0.36303(17)
H12 H 0.7115 0.5533 0.3923
C21 C 0.61265(8) 0.5504(3) 0.28540(16)
C22 C 0.60687(8) 0.6136(3) 0.33290(15)
H13 H 0.6215 0.6609 0.3523
C23 C 0.57981(8) 0.6090(3) 0.35286(15)
H14 H 0.5764 0.6549 0.3850
C24 C 0.55759(8) 0.5375(3) 0.32611(15)
C25 C 0.56400(8) 0.4697(3) 0.27882(15)
H15 H 0.5498 0.4178 0.2609
C26 C 0.59127(8) 0.4770(3) 0.25725(16)
H16 H 0.5949 0.4332 0.2246
C27 C 0.52785(8) 0.5366(4) 0.34809(15)
C28 C 0.82249(8) 0.8332(3) 0.32821(14)
H17 H 0.8237 0.9192 0.3343
C29 C 0.83862(8) 0.7837(3) 0.28733(15)
H18 H 0.8505 0.8345 0.2673
C30 C 0.83671(8) 0.6559(3) 0.27695(15)
C31 C 0.81850(8) 0.5880(3) 0.30858(15)
H19 H 0.8166 0.5021 0.3031
C32 C 0.80334(8) 0.6464(3) 0.34793(15)
H20 H 0.7908 0.5982 0.3677
C33 C 0.80672(8) 0.3300(3) 0.01604(13)
H21 H 0.7872 0.3535 0.0118
C34 C 0.82483(7) 0.3962(3) 0.05525(14)
H22 H 0.8178 0.4617 0.0760
C35 C 0.85347(7) 0.3618(3) 0.06240(14)
C36 C 0.86258(8) 0.2662(3) 0.02992(14)
H23 H 0.8819 0.2405 0.0336
C38 C 0.94977(8) 0.2276(3) 0.32847(15)
H25 H 0.9496 0.1411 0.3240
C39 C 0.93317(8) 0.2958(3) 0.28900(15)
H26 H 0.9219 0.2559 0.2596
C40 C 0.93317(8) 0.4219(3) 0.29293(15)
C41 C 0.95048(8) 0.4741(3) 0.33809(15)
H27 H 0.9517 0.5606 0.3423
C42 C 0.96587(9) 0.3964(3) 0.37663(16)
H28 H 0.9767 0.4331 0.4074
C44 C 0.91579(8) 0.8147(3) 0.02630(15)
H30 H 0.8966 0.8422 0.0202
C45 C 0.92484(8) 0.7452(3) 0.07291(16)
C46 C 0.95339(8) 0.7072(4) 0.08151(16)
H31 H 0.9603 0.6607 0.1132
C47 C 0.97102(8) 0.7417(4) 0.04068(16)
H32 H 0.9905 0.7185 0.0463
C48 C 0.91325(7) 0.6140(3) 0.14966(14)
H33 H 0.9270 0.6498 0.1787
H34 H 0.9229 0.5469 0.1311
C49 C 0.89899(8) 0.4533(3) 0.21332(14)
H35 H 0.8832 0.4086 0.2287
H36 H 0.9092 0.3954 0.1906
C50 C 0.86371(7) 0.5167(3) 0.13291(13)
H37 H 0.8470 0.4891 0.1516
H38 H 0.8575 0.5856 0.1078
C51 C 0.87308(7) 0.6576(3) 0.21192(14)
H39 H 0.8875 0.6959 0.2390
H40 H 0.8640 0.7227 0.1877
C52 C 0.73838(8) 0.7661(4) 0.37859(15)
C53 C 0.88706(8) 0.5619(3) 0.17697(15)
N1 N 0.80534(6) 0.7678(3) 0.35977(11)
N2 N 0.96611(6) 0.2736(3) 0.37257(11)
Ni1 Ni 0.785052(10) 0.84612(4) 0.42603(2)
O1 O 0.76305(5) 0.9277(2) 0.48908(9)
O4 O 0.74723(5) 0.8738(2) 0.36611(10)
O5 O 0.75286(5) 0.7035(2) 0.41832(9)
O6 O 0.52202(5) 0.6342(2) 0.37522(10)
O7 O 0.51163(6) 0.4455(2) 0.33738(11)
O11 O 0.63802(5) 0.5589(3) 0.25981(11)
O13 O 0.90374(5) 0.7094(2) 0.10836(10)
O14 O 0.91845(5) 0.5022(2) 0.25834(10)
O15 O 0.87383(5) 0.4154(2) 0.09987(10)
O16 O 0.85171(6) 0.5931(2) 0.24085(10)
H44 H 0.7636 0.8723 0.5211
N6 N 0.81442(6) 0.7625(3) 0.48426(12)
Ni5 Ni 0.991497(10) 0.16869(4) 0.43003(2)
Ni6 Ni 0.491497(10) 0.66869(4) 0.43003(2)
C37 C 0.84279(8) 0.2096(3) 0.99221(15)
H24 H 0.8495 0.1459 0.9700
C43 C 0.93549(8) 0.8428(4) 0.98883(15)
H29 H 0.9293 0.8920 0.9576
N3 N 0.81442(6) 0.2375(3) 0.98426(12)
Ni3 Ni 0.785052(10) 0.15388(4) 0.92603(2)
H6_2 H 0.5572 0.0312 0.9779
C14_2 C 0.53459(8) 0.2504(3) 0.99050(14)
Ni2_2 Ni 0.491497(10) 0.33131(4) 0.93003(2)
O8_2 O 0.52870(5) 0.3650(2) 0.99685(9)
O9_2 O 0.51844(5) 0.1837(2) 0.95622(9)
O10_2 O 0.47240(5) 0.49944(19) 0.90898(9)
H42 H 0.4789 0.5283 0.8738
H43 H 0.4778 0.5592 0.9384
N5_2 N 0.46611(6) 0.2264(3) 0.87257(11)
N7_2 N 0.46277(6) 0.3053(3) 0.99384(12)
O17_2 O 0.52202(5) 0.3658(2) 0.87522(10)
C1_2 C 0.31115(9) 0.6003(3) 0.45017(17)
C2_2 C 0.32917(8) 0.7031(3) 0.43244(16)
C3_2 C 0.34732(8) 0.6884(3) 0.39033(15)
H1_2 H 0.3482 0.6107 0.3728
C4_2 C 0.36466(8) 0.7867(3) 0.37264(16)
H2_2 H 0.3773 0.7749 0.3446
C5_2 C 0.36217(9) 0.8996(4) 0.39827(16)
C6_2 C 0.34413(9) 0.9162(4) 0.43926(17)
H3_2 H 0.3423 0.9952 0.4551
C7_2 C 0.32843(9) 0.8175(4) 0.45789(17)
H4_2 H 0.3172 0.8288 0.4882
H5_2 H 0.4062 0.9255 0.4693
C15_2 C 0.21188(8) 0.2131(3) 0.34943(15)
C16_2 C 0.19657(8) 0.2770(4) 0.30621(16)
H9_2 H 0.2029 0.3561 0.2963
C17_2 C 0.17147(8) 0.2263(4) 0.27642(17)
H10_2 H 0.1614 0.2708 0.2470
C18_2 C 0.16189(8) 0.1082(4) 0.29169(16)
C19_2 C 0.17638(9) 0.0453(4) 0.33494(17)
C20_2 C 0.20146(9) 0.0983(4) 0.36303(17)
H12_2 H 0.2115 0.0533 0.3923
C21_2 C 0.11265(8) 0.0504(3) 0.28540(16)
C22_2 C 0.10687(8) 0.1136(3) 0.33290(15)
H13_2 H 0.1215 0.1609 0.3523
C23_2 C 0.07981(8) 0.1090(3) 0.35286(15)
H14_2 H 0.0764 0.1549 0.3850
C24_2 C 0.05759(8) 0.0375(3) 0.32611(15)
C27_2 C 0.02785(8) 0.0366(4) 0.34809(15)
C28_2 C 0.32249(8) 0.3332(3) 0.32821(14)
H17_2 H 0.3237 0.4192 0.3343
C29_2 C 0.33862(8) 0.2837(3) 0.28733(15)
H18_2 H 0.3505 0.3345 0.2673
C30_2 C 0.33671(8) 0.1559(3) 0.27695(15)
C31_2 C 0.31850(8) 0.0880(3) 0.30858(15)
H19_2 H 0.3166 0.0021 0.3031
C32_2 C 0.30334(8) 0.1464(3) 0.34793(15)
H20_2 H 0.2908 0.0982 0.3677
H27_2 H 0.4517 0.0606 0.3423
C44_2 C 0.41579(8) 0.3147(3) 0.02630(15)
H30_2 H 0.3966 0.3422 0.0202
C45_2 C 0.42484(8) 0.2452(3) 0.07291(16)
C46_2 C 0.45339(8) 0.2072(4) 0.08151(16)
H31_2 H 0.4603 0.1607 0.1132
C47_2 C 0.47102(8) 0.2417(4) 0.04068(16)
H32_2 H 0.4905 0.2185 0.0463
C48_2 C 0.41325(7) 0.1140(3) 0.14966(14)
H33_2 H 0.4270 0.1498 0.1787
H34_2 H 0.4229 0.0469 0.1311
C50_2 C 0.36371(7) 0.0167(3) 0.13291(13)
H38_2 H 0.3575 0.0856 0.1078
C51_2 C 0.37308(7) 0.1576(3) 0.21192(14)
H39_2 H 0.3875 0.1959 0.2390
H40_2 H 0.3640 0.2227 0.1877
C52_2 C 0.23838(8) 0.2661(4) 0.37859(15)
C53_2 C 0.38706(8) 0.0619(3) 0.17697(15)
N1_2 N 0.30534(6) 0.2678(3) 0.35977(11)
Ni1_2 Ni 0.285052(10) 0.34612(4) 0.42603(2)
O1_2 O 0.26305(5) 0.4277(2) 0.48908(9)
H41_2 H 0.2723 0.5055 0.5004
O2_2 O 0.30852(5) 0.5049(2) 0.41948(10)
O3_2 O 0.29869(8) 0.6124(3) 0.49432(13)
O4_2 O 0.24723(5) 0.3738(2) 0.36611(10)
O5_2 O 0.25286(5) 0.2035(2) 0.41832(9)
O6_2 O 0.02202(5) 0.1342(2) 0.37522(10)
O11_2 O 0.13802(5) 0.0589(3) 0.25981(11)
O13_2 O 0.40374(5) 0.2094(2) 0.10836(10)
O14_2 O 0.41845(5) 0.0022(2) 0.25834(10)
O16_2 O 0.35171(6) 0.0931(2) 0.24085(10)
H44_2 H 0.2636 0.3723 0.5211
N6_2 N 0.31442(6) 0.2625(3) 0.48426(12)
C43_2 C 0.43549(8) 0.3428(4) 0.98883(15)
H29_2 H 0.4293 0.3920 0.9576
H11_2 H 0.1698 0.9676 0.3460
C25_2 C 0.06400(8) 0.9697(3) 0.27882(15)
H15_2 H 0.0498 0.9178 0.2609
C26_2 C 0.09127(8) 0.9770(3) 0.25725(16)
H16_2 H 0.0949 0.9332 0.2246
C33_2 C 0.30672(8) 0.8300(3) 0.01604(13)
H21_2 H 0.2872 0.8535 0.0118
C34_2 C 0.32483(7) 0.8962(3) 0.05525(14)
H22_2 H 0.3178 0.9617 0.0760
C35_2 C 0.35347(7) 0.8618(3) 0.06240(14)
C36_2 C 0.36258(8) 0.7662(3) 0.02992(14)
H23_2 H 0.3819 0.7405 0.0336
C38_2 C 0.44977(8) 0.7276(3) 0.32847(15)
H25_2 H 0.4496 0.6411 0.3240
C39_2 C 0.43317(8) 0.7958(3) 0.28900(15)
H26_2 H 0.4219 0.7559 0.2596
C40_2 C 0.43317(8) 0.9219(3) 0.29293(15)
C41_2 C 0.45048(8) 0.9741(3) 0.33809(15)
C42_2 C 0.46587(9) 0.8964(3) 0.37663(16)
H28_2 H 0.4767 0.9331 0.4074
C49_2 C 0.39899(8) 0.9533(3) 0.21332(14)
H35_2 H 0.3832 0.9086 0.2287
H36_2 H 0.4092 0.8954 0.1906
H37_2 H 0.3470 0.9891 0.1516
N2_2 N 0.46611(6) 0.7736(3) 0.37257(11)
O7_2 O 0.01163(6) 0.9455(2) 0.33738(11)
O15_2 O 0.37383(5) 0.9154(2) 0.09987(10)
C37_2 C 0.34279(8) 0.7096(3) 0.99221(15)
H24_2 H 0.3495 0.6459 0.9700
N3_2 N 0.31442(6) 0.7375(3) 0.98426(12)
Ni3_2 Ni 0.285052(10) 0.65388(4) 0.92603(2)
C15_3 C 0.71188(8) 0.2869(3) 0.84943(15)
C16_3 C 0.69657(8) 0.2230(4) 0.80621(16)
H9_3 H 0.7029 0.1439 0.7963
C17_3 C 0.67147(8) 0.2737(4) 0.77642(17)
H10_3 H 0.6614 0.2292 0.7470
C18_3 C 0.66189(8) 0.3918(4) 0.79169(16)
C19_3 C 0.67638(9) 0.4547(4) 0.83494(17)
H11_3 H 0.6698 0.5324 0.8460
C20_3 C 0.70146(9) 0.4017(4) 0.86303(17)
H12_3 H 0.7115 0.4467 0.8923
C21_3 C 0.61265(8) 0.4496(3) 0.78540(16)
C22_3 C 0.60687(8) 0.3864(3) 0.83290(15)
H13_3 H 0.6215 0.3391 0.8523
C23_3 C 0.57981(8) 0.3910(3) 0.85286(15)
H14_3 H 0.5764 0.3451 0.8850
C24_3 C 0.55759(8) 0.4625(3) 0.82611(15)
C25_3 C 0.56400(8) 0.5303(3) 0.77882(15)
H15_3 H 0.5498 0.5822 0.7609
C26_3 C 0.59127(8) 0.5230(3) 0.75725(16)
H16_3 H 0.5949 0.5668 0.7246
C27_3 C 0.52785(8) 0.4634(4) 0.84809(15)
C28_3 C 0.82249(8) 0.1668(3) 0.82821(14)
H17_3 H 0.8237 0.0808 0.8343
C29_3 C 0.83862(8) 0.2163(3) 0.78733(15)
H18_3 H 0.8505 0.1655 0.7673
C30_3 C 0.83671(8) 0.3441(3) 0.77695(15)
C31_3 C 0.81850(8) 0.4120(3) 0.80858(15)
H19_3 H 0.8166 0.4979 0.8031
C32_3 C 0.80334(8) 0.3536(3) 0.84793(15)
H20_3 H 0.7908 0.4018 0.8677
C33_3 C 0.80672(8) 0.6700(3) 0.51604(13)
H21_3 H 0.7872 0.6465 0.5118
C34_3 C 0.82483(7) 0.6038(3) 0.55525(14)
H22_3 H 0.8178 0.5383 0.5760
C35_3 C 0.85347(7) 0.6382(3) 0.56240(14)
C36_3 C 0.86258(8) 0.7338(3) 0.52992(14)
H23_3 H 0.8819 0.7595 0.5336
C37_3 C 0.84279(8) 0.7904(3) 0.49221(15)
H24_3 H 0.8495 0.8541 0.4700
C38_3 C 0.94977(8) 0.7724(3) 0.82847(15)
H25_3 H 0.9496 0.8589 0.8240
C39_3 C 0.93317(8) 0.7042(3) 0.78900(15)
H26_3 H 0.9219 0.7441 0.7596
C40_3 C 0.93317(8) 0.5781(3) 0.79293(15)
C41_3 C 0.95048(8) 0.5259(3) 0.83809(15)
H27_3 H 0.9517 0.4394 0.8423
C42_3 C 0.96587(9) 0.6036(3) 0.87663(16)
H28_3 H 0.9767 0.5669 0.9074
C43_3 C 0.93549(8) 0.1572(4) 0.48883(15)
H29_3 H 0.9293 0.1080 0.4576
C44_3 C 0.91579(8) 0.1853(3) 0.52630(15)
H30_3 H 0.8966 0.1578 0.5202
C45_3 C 0.92484(8) 0.2548(3) 0.57291(16)
C46_3 C 0.95339(8) 0.2928(4) 0.58151(16)
H31_3 H 0.9603 0.3393 0.6132
C47_3 C 0.97102(8) 0.2583(4) 0.54068(16)
H32_3 H 0.9905 0.2815 0.5463
C48_3 C 0.91325(7) 0.3860(3) 0.64966(14)
H33_3 H 0.9270 0.3502 0.6787
H34_3 H 0.9229 0.4531 0.6311
C49_3 C 0.89899(8) 0.5467(3) 0.71332(14)
H35_3 H 0.8832 0.5914 0.7287
H36_3 H 0.9092 0.6046 0.6906
C50_3 C 0.86371(7) 0.4833(3) 0.63291(13)
H37_3 H 0.8470 0.5109 0.6516
H38_3 H 0.8575 0.4144 0.6078
C51_3 C 0.87308(7) 0.3424(3) 0.71192(14)
H39_3 H 0.8875 0.3041 0.7390
H40_3 H 0.8640 0.2773 0.6877
C52_3 C 0.73838(8) 0.2339(4) 0.87859(15)
C53_3 C 0.88706(8) 0.4381(3) 0.67697(15)
N1_3 N 0.80534(6) 0.2322(3) 0.85977(11)
N4 N 0.96277(6) 0.1947(3) 0.49384(12)
O1_3 O 0.76305(5) 0.0723(2) 0.98908(9)
O4_3 O 0.74723(5) 0.1262(2) 0.86611(10)
O5_3 O 0.75286(5) 0.2965(2) 0.91832(9)
O7_3 O 0.51163(6) 0.5545(2) 0.83738(11)
O11_3 O 0.63802(5) 0.4411(3) 0.75981(11)
O13_3 O 0.90374(5) 0.2906(2) 0.60836(10)
O14_3 O 0.91845(5) 0.4978(2) 0.75834(10)
O15_3 O 0.87383(5) 0.5846(2) 0.59987(10)
O16_3 O 0.85171(6) 0.4069(2) 0.74085(10)
C1_3 C 0.18885(9) 0.8997(3) 0.54983(17)
C2_3 C 0.17083(8) 0.7969(3) 0.56756(16)
C3_3 C 0.15268(8) 0.8116(3) 0.60967(15)
H1_3 H 0.1518 0.8893 0.6272
C4_3 C 0.13534(8) 0.7133(3) 0.62736(16)
H2_3 H 0.1227 0.7251 0.6554
C5_3 C 0.13783(9) 0.6004(4) 0.60173(16)
C6_3 C 0.15587(9) 0.5838(4) 0.56074(17)
H3_3 H 0.1577 0.5048 0.5449
C7_3 C 0.17157(9) 0.6825(4) 0.54211(17)
H4_3 H 0.1828 0.6712 0.5118
C8_2 C 0.10316(8) 0.4369(3) 0.58621(15)
C9_2 C 0.08891(8) 0.4933(3) 0.54055(15)
H5_3 H 0.0938 0.5745 0.5307
C10_2 C 0.06724(8) 0.4299(3) 0.50904(15)
H6_3 H 0.0572 0.4688 0.4779
C11_2 C 0.06007(7) 0.3095(3) 0.52290(14)
C12_2 C 0.07514(7) 0.2519(3) 0.56745(15)
H7_2 H 0.0709 0.1693 0.5762
C13_2 C 0.09687(8) 0.3162(3) 0.60000(16)
H8_2 H 0.1071 0.2775 0.6310
C14_3 C 0.03459(8) 0.2496(3) 0.49050(14)
H41_3 H 0.2277 0.9945 0.4996
O2_3 O 0.19148(5) 0.9951(2) 0.58052(10)
O3_3 O 0.20131(8) 0.8876(3) 0.50568(13)
O8_3 O 0.02870(5) 0.1350(2) 0.49685(9)
O9_3 O 0.01844(5) 0.3163(2) 0.45622(9)
O12_2 O 0.12309(6) 0.4993(2) 0.62378(10)
O10_3 O 0.97240(5) 0.00056(19) 0.40898(9)
H11_4 H 0.1698 0.0324 0.8460
C25_4 C 0.06400(8) 0.0303(3) 0.77882(15)
H15_4 H 0.0498 0.0822 0.7609
C26_4 C 0.09127(8) 0.0230(3) 0.75725(16)
H16_4 H 0.0949 0.0668 0.7246
C33_4 C 0.30672(8) 0.1700(3) 0.51604(13)
H21_4 H 0.2872 0.1465 0.5118
C34_4 C 0.32483(7) 0.1038(3) 0.55525(14)
H22_4 H 0.3178 0.0383 0.5760
C35_4 C 0.35347(7) 0.1382(3) 0.56240(14)
C36_4 C 0.36258(8) 0.2338(3) 0.52992(14)
H23_4 H 0.3819 0.2595 0.5336
C37_4 C 0.34279(8) 0.2904(3) 0.49221(15)
H24_4 H 0.3495 0.3541 0.4700
C38_4 C 0.44977(8) 0.2724(3) 0.82847(15)
H25_4 H 0.4496 0.3589 0.8240
C39_4 C 0.43317(8) 0.2042(3) 0.78900(15)
H26_4 H 0.4219 0.2441 0.7596
C40_4 C 0.43317(8) 0.0781(3) 0.79293(15)
C41_4 C 0.45048(8) 0.0259(3) 0.83809(15)
C42_4 C 0.46587(9) 0.1036(3) 0.87663(16)
H28_4 H 0.4767 0.0669 0.9074
C49_4 C 0.39899(8) 0.0467(3) 0.71332(14)
H35_4 H 0.3832 0.0914 0.7287
H36_4 H 0.4092 0.1046 0.6906
H37_4 H 0.3470 0.0109 0.6516
O7_4 O 0.01163(6) 0.0545(2) 0.83738(11)
O15_4 O 0.37383(5) 0.0846(2) 0.59987(10)
C1_4 C 0.31115(9) 0.3997(3) 0.95017(17)
C2_4 C 0.32917(8) 0.2969(3) 0.93244(16)
C3_4 C 0.34732(8) 0.3116(3) 0.89033(15)
H1_4 H 0.3482 0.3893 0.8728
C4_4 C 0.36466(8) 0.2133(3) 0.87264(16)
H2_4 H 0.3773 0.2251 0.8446
C5_4 C 0.36217(9) 0.1004(4) 0.89827(16)
C6_4 C 0.34413(9) 0.0838(4) 0.93926(17)
H3_4 H 0.3423 0.0048 0.9551
C7_4 C 0.32843(9) 0.1825(4) 0.95789(17)
H4_4 H 0.3172 0.1712 0.9882
H5_4 H 0.4062 0.0745 0.9693
C15_4 C 0.21188(8) 0.7869(3) 0.84943(15)
C16_4 C 0.19657(8) 0.7230(4) 0.80621(16)
H9_4 H 0.2029 0.6439 0.7963
C17_4 C 0.17147(8) 0.7737(4) 0.77642(17)
H10_4 H 0.1614 0.7292 0.7470
C18_4 C 0.16189(8) 0.8918(4) 0.79169(16)
C19_4 C 0.17638(9) 0.9547(4) 0.83494(17)
C20_4 C 0.20146(9) 0.9017(4) 0.86303(17)
H12_4 H 0.2115 0.9467 0.8923
C21_4 C 0.11265(8) 0.9496(3) 0.78540(16)
C22_4 C 0.10687(8) 0.8864(3) 0.83290(15)
H13_4 H 0.1215 0.8391 0.8523
C23_4 C 0.07981(8) 0.8910(3) 0.85286(15)
H14_4 H 0.0764 0.8451 0.8850
C24_4 C 0.05759(8) 0.9625(3) 0.82611(15)
C27_4 C 0.02785(8) 0.9634(4) 0.84809(15)
C28_4 C 0.32249(8) 0.6668(3) 0.82821(14)
H17_4 H 0.3237 0.5808 0.8343
C29_4 C 0.33862(8) 0.7163(3) 0.78733(15)
H18_4 H 0.3505 0.6655 0.7673
C30_4 C 0.33671(8) 0.8441(3) 0.77695(15)
C31_4 C 0.31850(8) 0.9120(3) 0.80858(15)
H19_4 H 0.3166 0.9979 0.8031
C32_4 C 0.30334(8) 0.8536(3) 0.84793(15)
H20_4 H 0.2908 0.9018 0.8677
H27_4 H 0.4517 0.9394 0.8423
C43_4 C 0.43549(8) 0.6572(4) 0.48883(15)
H29_4 H 0.4293 0.6080 0.4576
C44_4 C 0.41579(8) 0.6853(3) 0.52630(15)
H30_4 H 0.3966 0.6578 0.5202
C45_4 C 0.42484(8) 0.7548(3) 0.57291(16)
C46_4 C 0.45339(8) 0.7928(4) 0.58151(16)
H31_4 H 0.4603 0.8393 0.6132
C47_4 C 0.47102(8) 0.7583(4) 0.54068(16)
H32_4 H 0.4905 0.7815 0.5463
C48_4 C 0.41325(7) 0.8860(3) 0.64966(14)
H33_4 H 0.4270 0.8502 0.6787
H34_4 H 0.4229 0.9531 0.6311
C50_4 C 0.36371(7) 0.9833(3) 0.63291(13)
H38_4 H 0.3575 0.9144 0.6078
C51_4 C 0.37308(7) 0.8424(3) 0.71192(14)
H39_4 H 0.3875 0.8041 0.7390
H40_4 H 0.3640 0.7773 0.6877
C52_4 C 0.23838(8) 0.7339(4) 0.87859(15)
C53_4 C 0.38706(8) 0.9381(3) 0.67697(15)
N1_4 N 0.30534(6) 0.7322(3) 0.85977(11)
N4_2 N 0.46277(6) 0.6947(3) 0.49384(12)
O1_4 O 0.26305(5) 0.5723(2) 0.98908(9)
O2_4 O 0.30852(5) 0.4951(2) 0.91948(10)
O3_4 O 0.29869(8) 0.3876(3) 0.99432(13)
O4_4 O 0.24723(5) 0.6262(2) 0.86611(10)
O5_4 O 0.25286(5) 0.7965(2) 0.91832(9)
O11_4 O 0.13802(5) 0.9411(3) 0.75981(11)
O13_4 O 0.40374(5) 0.7906(2) 0.60836(10)
O14_4 O 0.41845(5) 0.9978(2) 0.75834(10)
O16_4 O 0.35171(6) 0.9069(2) 0.74085(10)
C8_3 C 0.60316(8) 0.9369(3) 0.58621(15)
C9_3 C 0.58891(8) 0.9933(3) 0.54055(15)
C10_3 C 0.56724(8) 0.9299(3) 0.50904(15)
H6_4 H 0.5572 0.9688 0.4779
C11_3 C 0.56007(7) 0.8095(3) 0.52290(14)
C12_3 C 0.57514(7) 0.7519(3) 0.56745(15)
H7_3 H 0.5709 0.6693 0.5762
C13_3 C 0.59687(8) 0.8162(3) 0.60000(16)
H8_3 H 0.6071 0.7775 0.6310
C14_4 C 0.53459(8) 0.7496(3) 0.49050(14)
O8_4 O 0.52870(5) 0.6350(2) 0.49685(9)
O9_4 O 0.51844(5) 0.8163(2) 0.45622(9)
O10_4 O 0.47240(5) 0.50056(19) 0.40898(9)
H42_2 H 0.4789 0.4717 0.3738
H43_2 H 0.4778 0.4408 0.4384
O12_3 O 0.62309(6) 0.9993(2) 0.62378(10)
C15_5 C 0.28812(8) 0.7131(3) 0.15057(15)
C16_5 C 0.30343(8) 0.7770(4) 0.19379(16)
H9_5 H 0.2971 0.8561 0.2037
C17_5 C 0.32853(8) 0.7263(4) 0.22358(17)
H10_5 H 0.3386 0.7708 0.2530
C18_5 C 0.33811(8) 0.6082(4) 0.20831(16)
C19_5 C 0.32362(9) 0.5453(4) 0.16506(17)
H11_5 H 0.3302 0.4676 0.1540
C20_5 C 0.29854(9) 0.5983(4) 0.13697(17)
H12_5 H 0.2885 0.5533 0.1077
C21_5 C 0.38735(8) 0.5504(3) 0.21460(16)
C22_5 C 0.39313(8) 0.6136(3) 0.16710(15)
H13_5 H 0.3785 0.6609 0.1477
C23_5 C 0.42019(8) 0.6090(3) 0.14714(15)
H14_5 H 0.4236 0.6549 0.1150
C24_5 C 0.44241(8) 0.5375(3) 0.17389(15)
C25_5 C 0.43600(8) 0.4697(3) 0.22118(15)
H15_5 H 0.4502 0.4178 0.2391
C26_5 C 0.40873(8) 0.4770(3) 0.24275(16)
H16_5 H 0.4051 0.4332 0.2754
C27_5 C 0.47215(8) 0.5366(4) 0.15191(15)
C28_5 C 0.17751(8) 0.8332(3) 0.17179(14)
H17_5 H 0.1763 0.9192 0.1657
C29_5 C 0.16138(8) 0.7837(3) 0.21267(15)
H18_5 H 0.1495 0.8345 0.2327
C30_5 C 0.16329(8) 0.6559(3) 0.22305(15)
C31_5 C 0.18150(8) 0.5880(3) 0.19142(15)
H19_5 H 0.1834 0.5021 0.1969
C32_5 C 0.19666(8) 0.6464(3) 0.15207(15)
H20_5 H 0.2092 0.5982 0.1323
C33_5 C 0.19328(8) 0.3300(3) 0.48396(13)
H21_5 H 0.2128 0.3535 0.4882
C34_5 C 0.17517(7) 0.3962(3) 0.44475(14)
H22_5 H 0.1822 0.4617 0.4240
C35_5 C 0.14653(7) 0.3618(3) 0.43760(14)
C36_5 C 0.13742(8) 0.2662(3) 0.47008(14)
H23_5 H 0.1181 0.2405 0.4664
C37_5 C 0.15721(8) 0.2096(3) 0.50779(15)
H24_5 H 0.1505 0.1459 0.5300
C38_5 C 0.05023(8) 0.2276(3) 0.17153(15)
H25_5 H 0.0504 0.1411 0.1760
C39_5 C 0.06683(8) 0.2958(3) 0.21100(15)
H26_5 H 0.0781 0.2559 0.2404
C40_5 C 0.06683(8) 0.4219(3) 0.20707(15)
C41_5 C 0.04952(8) 0.4741(3) 0.16191(15)
H27_5 H 0.0483 0.5606 0.1577
C42_5 C 0.03413(9) 0.3964(3) 0.12337(16)
H28_5 H 0.0233 0.4331 0.0926
C43_5 C 0.06451(8) 0.8428(4) 0.51117(15)
H29_5 H 0.0707 0.8920 0.5424
C44_5 C 0.08421(8) 0.8147(3) 0.47370(15)
H30_5 H 0.1034 0.8422 0.4798
C45_5 C 0.07516(8) 0.7452(3) 0.42709(16)
C46_5 C 0.04661(8) 0.7072(4) 0.41849(16)
H31_5 H 0.0397 0.6607 0.3868
C47_5 C 0.02898(8) 0.7417(4) 0.45932(16)
H32_5 H 0.0095 0.7185 0.4537
C48_5 C 0.08675(7) 0.6140(3) 0.35034(14)
H33_5 H 0.0730 0.6498 0.3213
H34_5 H 0.0771 0.5469 0.3689
C49_5 C 0.10101(8) 0.4533(3) 0.28668(14)
H35_5 H 0.1168 0.4086 0.2713
H36_5 H 0.0908 0.3954 0.3094
C50_5 C 0.13629(7) 0.5167(3) 0.36709(13)
H37_5 H 0.1530 0.4891 0.3484
H38_5 H 0.1425 0.5856 0.3922
C51_5 C 0.12692(7) 0.6576(3) 0.28808(14)
H39_5 H 0.1125 0.6959 0.2610
H40_5 H 0.1360 0.7227 0.3123
C52_5 C 0.26162(8) 0.7661(4) 0.12141(15)
C53_5 C 0.11294(8) 0.5619(3) 0.32303(15)
N1_5 N 0.19466(6) 0.7678(3) 0.14023(11)
N2_3 N 0.03389(6) 0.2736(3) 0.12743(11)
N3_3 N 0.18558(6) 0.2375(3) 0.51574(12)
N4_3 N 0.03723(6) 0.8053(3) 0.50616(12)
Ni1_3 Ni 0.214948(10) 0.84612(4) 0.07397(2)
O1_5 O 0.23695(5) 0.9277(2) 0.01092(9)
O4_5 O 0.25277(5) 0.8738(2) 0.13389(10)
O5_5 O 0.24714(5) 0.7035(2) 0.08168(9)
O6_3 O 0.47798(5) 0.6342(2) 0.12478(10)
O7_5 O 0.48837(6) 0.4455(2) 0.16262(11)
O11_5 O 0.36198(5) 0.5589(3) 0.24019(11)
O13_5 O 0.09626(5) 0.7094(2) 0.39164(10)
O14_5 O 0.08155(5) 0.5022(2) 0.24166(10)
O15_5 O 0.12617(5) 0.4154(2) 0.40013(10)
O16_5 O 0.14829(6) 0.5931(2) 0.25915(10)
N6_3 N 0.18558(6) 0.7625(3) 0.01574(12)
Ni3_3 Ni 0.214948(10) 0.15388(4) 0.57397(2)
Ni4 Ni 0.008503(10) 0.83131(4) 0.56997(2)
Ni5_2 Ni 0.008503(10) 0.16869(4) 0.06997(2)
Ni6_2 Ni 0.508503(10) 0.66869(4) 0.06997(2)
O10_5 O 0.02760(5) 0.99944(19) 0.59102(9)
N5_3 N 0.03389(6) 0.7264(3) 0.62743(11)
C1_5 C 0.81115(9) 0.1003(3) 0.45017(17)
C2_5 C 0.82917(8) 0.2031(3) 0.43244(16)
C3_5 C 0.84732(8) 0.1884(3) 0.39033(15)
H1_5 H 0.8482 0.1107 0.3728
C4_5 C 0.86466(8) 0.2867(3) 0.37264(16)
H2_5 H 0.8773 0.2749 0.3446
C5_5 C 0.86217(9) 0.3996(4) 0.39827(16)
C6_5 C 0.84413(9) 0.4162(4) 0.43926(17)
H3_5 H 0.8423 0.4952 0.4551
C7_5 C 0.82843(9) 0.3175(4) 0.45789(17)
H4_5 H 0.8172 0.3288 0.4882
C8_4 C 0.89684(8) 0.5631(3) 0.41379(15)
C9_4 C 0.91109(8) 0.5067(3) 0.45945(15)
H5_5 H 0.9062 0.4255 0.4693
C10_4 C 0.93276(8) 0.5701(3) 0.49096(15)
H6_5 H 0.9428 0.5312 0.5221
C11_4 C 0.93993(7) 0.6905(3) 0.47710(14)
C12_4 C 0.92486(7) 0.7481(3) 0.43255(15)
H7_4 H 0.9291 0.8307 0.4238
C13_4 C 0.90313(8) 0.6838(3) 0.40000(16)
H8_4 H 0.8929 0.7225 0.3690
C14_5 C 0.96541(8) 0.7504(3) 0.50950(14)
H41_4 H 0.7723 0.0055 0.5004
O2_5 O 0.80852(5) 0.0049(2) 0.41948(10)
O3_5 O 0.79869(8) 0.1124(3) 0.49432(13)
O8_5 O 0.97130(5) 0.8650(2) 0.50315(9)
O9_5 O 0.98156(5) 0.6837(2) 0.54378(9)
O12_4 O 0.87691(6) 0.5007(2) 0.37622(10)
O17_3 O 0.97798(5) 0.8658(2) 0.62478(10)
C1_6 C 0.68885(9) 0.6003(3) 0.04983(17)
C2_6 C 0.67083(8) 0.7031(3) 0.06756(16)
C3_6 C 0.65268(8) 0.6884(3) 0.10967(15)
H1_6 H 0.6518 0.6107 0.1272
C4_6 C 0.63534(8) 0.7867(3) 0.12736(16)
H2_6 H 0.6227 0.7749 0.1554
C5_6 C 0.63783(9) 0.8996(4) 0.10173(16)
C6_6 C 0.65587(9) 0.9162(4) 0.06074(17)
H3_6 H 0.6577 0.9952 0.0449
C7_6 C 0.67157(9) 0.8175(4) 0.04211(17)
H4_6 H 0.6828 0.8288 0.0118
H5_6 H 0.5938 0.9255 0.0307
C15_6 C 0.78812(8) 0.2131(3) 0.15057(15)
C16_6 C 0.80343(8) 0.2770(4) 0.19379(16)
H9_6 H 0.7971 0.3561 0.2037
C17_6 C 0.82853(8) 0.2263(4) 0.22358(17)
H10_6 H 0.8386 0.2708 0.2530
C18_6 C 0.83811(8) 0.1082(4) 0.20831(16)
C19_6 C 0.82362(9) 0.0453(4) 0.16506(17)
C20_6 C 0.79854(9) 0.0983(4) 0.13697(17)
H12_6 H 0.7885 0.0533 0.1077
C21_6 C 0.88735(8) 0.0504(3) 0.21460(16)
C22_6 C 0.89313(8) 0.1136(3) 0.16710(15)
H13_6 H 0.8785 0.1609 0.1477
C23_6 C 0.92019(8) 0.1090(3) 0.14714(15)
H14_6 H 0.9236 0.1549 0.1150
C24_6 C 0.94241(8) 0.0375(3) 0.17389(15)
C27_6 C 0.97215(8) 0.0366(4) 0.15191(15)
C28_6 C 0.67751(8) 0.3332(3) 0.17179(14)
H17_6 H 0.6763 0.4192 0.1657
C29_6 C 0.66138(8) 0.2837(3) 0.21267(15)
H18_6 H 0.6495 0.3345 0.2327
C30_6 C 0.66329(8) 0.1559(3) 0.22305(15)
C31_6 C 0.68150(8) 0.0880(3) 0.19142(15)
H19_6 H 0.6834 0.0021 0.1969
C32_6 C 0.69666(8) 0.1464(3) 0.15207(15)
H20_6 H 0.7092 0.0982 0.1323
H27_6 H 0.5483 0.0606 0.1577
C43_6 C 0.56451(8) 0.3428(4) 0.51117(15)
H29_6 H 0.5707 0.3920 0.5424
C44_6 C 0.58421(8) 0.3147(3) 0.47370(15)
H30_6 H 0.6034 0.3422 0.4798
C45_6 C 0.57516(8) 0.2452(3) 0.42709(16)
C46_6 C 0.54661(8) 0.2072(4) 0.41849(16)
H31_6 H 0.5397 0.1607 0.3868
C47_6 C 0.52898(8) 0.2417(4) 0.45932(16)
H32_6 H 0.5095 0.2185 0.4537
C48_6 C 0.58675(7) 0.1140(3) 0.35034(14)
H33_6 H 0.5730 0.1498 0.3213
H34_6 H 0.5771 0.0469 0.3689
C50_6 C 0.63629(7) 0.0167(3) 0.36709(13)
H38_6 H 0.6425 0.0856 0.3922
C51_6 C 0.62692(7) 0.1576(3) 0.28808(14)
H39_6 H 0.6125 0.1959 0.2610
H40_6 H 0.6360 0.2227 0.3123
C52_6 C 0.76162(8) 0.2661(4) 0.12141(15)
C53_6 C 0.61294(8) 0.0619(3) 0.32303(15)
N1_6 N 0.69466(6) 0.2678(3) 0.14023(11)
N4_4 N 0.53723(6) 0.3053(3) 0.50616(12)
Ni1_4 Ni 0.714948(10) 0.34612(4) 0.07397(2)
O1_6 O 0.73695(5) 0.4277(2) 0.01092(9)
O2_6 O 0.69148(5) 0.5049(2) 0.08052(10)
O3_6 O 0.70131(8) 0.6124(3) 0.00568(13)
O4_6 O 0.75277(5) 0.3738(2) 0.13389(10)
O5_6 O 0.74714(5) 0.2035(2) 0.08168(9)
O6_4 O 0.97798(5) 0.1342(2) 0.12478(10)
O11_6 O 0.86198(5) 0.0589(3) 0.24019(11)
O13_6 O 0.59626(5) 0.2094(2) 0.39164(10)
O14_6 O 0.58155(5) 0.0022(2) 0.24166(10)
O16_6 O 0.64829(6) 0.0931(2) 0.25915(10)
N6_4 N 0.68558(6) 0.2625(3) 0.01574(12)
Ni4_2 Ni 0.508503(10) 0.33131(4) 0.56997(2)
H11_6 H 0.8302 0.9676 0.1540
C25_6 C 0.93600(8) 0.9697(3) 0.22118(15)
H15_6 H 0.9502 0.9178 0.2391
C26_6 C 0.90873(8) 0.9770(3) 0.24275(16)
H16_6 H 0.9051 0.9332 0.2754
C33_6 C 0.69328(8) 0.8300(3) 0.48396(13)
H21_6 H 0.7128 0.8535 0.4882
C34_6 C 0.67517(7) 0.8962(3) 0.44475(14)
H22_6 H 0.6822 0.9617 0.4240
C35_6 C 0.64653(7) 0.8618(3) 0.43760(14)
C36_6 C 0.63742(8) 0.7662(3) 0.47008(14)
H23_6 H 0.6181 0.7405 0.4664
C37_6 C 0.65721(8) 0.7096(3) 0.50779(15)
H24_6 H 0.6505 0.6459 0.5300
C38_6 C 0.55023(8) 0.7276(3) 0.17153(15)
H25_6 H 0.5504 0.6411 0.1760
C39_6 C 0.56683(8) 0.7958(3) 0.21100(15)
H26_6 H 0.5781 0.7559 0.2404
C40_6 C 0.56683(8) 0.9219(3) 0.20707(15)
C41_6 C 0.54952(8) 0.9741(3) 0.16191(15)
C42_6 C 0.53413(9) 0.8964(3) 0.12337(16)
H28_6 H 0.5233 0.9331 0.0926
C49_6 C 0.60101(8) 0.9533(3) 0.28668(14)
H35_6 H 0.6168 0.9086 0.2713
H36_6 H 0.5908 0.8954 0.3094
H37_6 H 0.6530 0.9891 0.3484
N2_4 N 0.53389(6) 0.7736(3) 0.12743(11)
N3_4 N 0.68558(6) 0.7375(3) 0.51574(12)
O7_6 O 0.98837(6) 0.9455(2) 0.16262(11)
O15_6 O 0.62617(5) 0.9154(2) 0.40013(10)
Ni3_4 Ni 0.714948(10) 0.65388(4) 0.57397(2)
C8_5 C 0.39684(8) 0.0631(3) 0.41379(15)
C9_5 C 0.41109(8) 0.0067(3) 0.45945(15)
C10_5 C 0.43276(8) 0.0701(3) 0.49096(15)
H6_6 H 0.4428 0.0312 0.5221
C11_5 C 0.43993(7) 0.1905(3) 0.47710(14)
C12_5 C 0.42486(7) 0.2481(3) 0.43255(15)
H7_5 H 0.4291 0.3307 0.4238
C13_5 C 0.40313(8) 0.1838(3) 0.40000(16)
H8_5 H 0.3929 0.2225 0.3690
C14_6 C 0.46541(8) 0.2504(3) 0.50950(14)
O8_6 O 0.47130(5) 0.3650(2) 0.50315(9)
O9_6 O 0.48156(5) 0.1837(2) 0.54378(9)
O10_6 O 0.52760(5) 0.49944(19) 0.59102(9)
H42_3 H 0.5211 0.5283 0.6262
H43_3 H 0.5222 0.5592 0.5616
O12_5 O 0.37691(6) 0.0007(2) 0.37622(10)
N5_4 N 0.53389(6) 0.2264(3) 0.62743(11)
O17_4 O 0.47798(5) 0.3658(2) 0.62478(10)
O10_7 O 0.02760(5) 0.00056(19) 0.09102(9)
N7_3 N 0.03723(6) 0.1947(3) 0.00616(12)
H6_7 H 0.9428 0.4688 0.0221
C14_7 C 0.96541(8) 0.2496(3) 0.00950(14)
H41_5 H 0.7723 0.9945 0.0004
O8_7 O 0.97130(5) 0.1350(2) 0.00315(9)
O9_7 O 0.98156(5) 0.3163(2) 0.04378(9)
C37_7 C 0.15721(8) 0.7904(3) 0.00779(15)
H24_7 H 0.1505 0.8541 0.0300
C43_7 C 0.06451(8) 0.1572(4) 0.01117(15)
H29_7 H 0.0707 0.1080 0.0424
C15_7 C 0.28812(8) 0.2869(3) 0.65057(15)
C16_7 C 0.30343(8) 0.2230(4) 0.69379(16)
H9_7 H 0.2971 0.1439 0.7037
C17_7 C 0.32853(8) 0.2737(4) 0.72358(17)
H10_7 H 0.3386 0.2292 0.7530
C18_7 C 0.33811(8) 0.3918(4) 0.70831(16)
C19_7 C 0.32362(9) 0.4547(4) 0.66506(17)
H11_7 H 0.3302 0.5324 0.6540
C20_7 C 0.29854(9) 0.4017(4) 0.63697(17)
H12_7 H 0.2885 0.4467 0.6077
C21_7 C 0.38735(8) 0.4496(3) 0.71460(16)
C22_7 C 0.39313(8) 0.3864(3) 0.66710(15)
H13_7 H 0.3785 0.3391 0.6477
C23_7 C 0.42019(8) 0.3910(3) 0.64714(15)
H14_7 H 0.4236 0.3451 0.6150
C24_7 C 0.44241(8) 0.4625(3) 0.67389(15)
C25_7 C 0.43600(8) 0.5303(3) 0.72118(15)
H15_7 H 0.4502 0.5822 0.7391
C26_7 C 0.40873(8) 0.5230(3) 0.74275(16)
H16_7 H 0.4051 0.5668 0.7754
C27_7 C 0.47215(8) 0.4634(4) 0.65191(15)
C28_7 C 0.17751(8) 0.1668(3) 0.67179(14)
H17_7 H 0.1763 0.0808 0.6657
C29_7 C 0.16138(8) 0.2163(3) 0.71267(15)
H18_7 H 0.1495 0.1655 0.7327
C30_7 C 0.16329(8) 0.3441(3) 0.72305(15)
C31_7 C 0.18150(8) 0.4120(3) 0.69142(15)
H19_7 H 0.1834 0.4979 0.6969
C32_7 C 0.19666(8) 0.3536(3) 0.65207(15)
H20_7 H 0.2092 0.4018 0.6323
C33_7 C 0.19328(8) 0.6700(3) 0.98396(13)
H21_7 H 0.2128 0.6465 0.9882
C34_7 C 0.17517(7) 0.6038(3) 0.94475(14)
H22_7 H 0.1822 0.5383 0.9240
C35_7 C 0.14653(7) 0.6382(3) 0.93760(14)
C36_7 C 0.13742(8) 0.7338(3) 0.97008(14)
H23_7 H 0.1181 0.7595 0.9664
C38_7 C 0.05023(8) 0.7724(3) 0.67153(15)
H25_7 H 0.0504 0.8589 0.6760
C39_7 C 0.06683(8) 0.7042(3) 0.71100(15)
H26_7 H 0.0781 0.7441 0.7404
C40_7 C 0.06683(8) 0.5781(3) 0.70707(15)
C41_7 C 0.04952(8) 0.5259(3) 0.66191(15)
H27_7 H 0.0483 0.4394 0.6577
C42_7 C 0.03413(9) 0.6036(3) 0.62337(16)
H28_7 H 0.0233 0.5669 0.5926
C44_7 C 0.08421(8) 0.1853(3) 0.97370(15)
H30_7 H 0.1034 0.1578 0.9798
C45_7 C 0.07516(8) 0.2548(3) 0.92709(16)
C46_7 C 0.04661(8) 0.2928(4) 0.91849(16)
H31_7 H 0.0397 0.3393 0.8868
C47_7 C 0.02898(8) 0.2583(4) 0.95932(16)
H32_7 H 0.0095 0.2815 0.9537
C48_7 C 0.08675(7) 0.3860(3) 0.85034(14)
H33_7 H 0.0730 0.3502 0.8213
H34_7 H 0.0771 0.4531 0.8689
C49_7 C 0.10101(8) 0.5467(3) 0.78668(14)
H35_7 H 0.1168 0.5914 0.7713
H36_7 H 0.0908 0.6046 0.8094
C50_7 C 0.13629(7) 0.4833(3) 0.86709(13)
H37_7 H 0.1530 0.5109 0.8484
H38_7 H 0.1425 0.4144 0.8922
C51_7 C 0.12692(7) 0.3424(3) 0.78808(14)
H39_7 H 0.1125 0.3041 0.7610
H40_7 H 0.1360 0.2773 0.8123
C52_7 C 0.26162(8) 0.2339(4) 0.62141(15)
C53_7 C 0.11294(8) 0.4381(3) 0.82303(15)
N1_7 N 0.19466(6) 0.2322(3) 0.64023(11)
O1_7 O 0.23695(5) 0.0723(2) 0.51092(9)
O4_7 O 0.25277(5) 0.1262(2) 0.63389(10)
O5_7 O 0.24714(5) 0.2965(2) 0.58168(9)
O7_7 O 0.48837(6) 0.5545(2) 0.66262(11)
O11_7 O 0.36198(5) 0.4411(3) 0.74019(11)
O13_7 O 0.09626(5) 0.2906(2) 0.89164(10)
O14_7 O 0.08155(5) 0.4978(2) 0.74166(10)
O15_7 O 0.12617(5) 0.5846(2) 0.90013(10)
O16_7 O 0.14829(6) 0.4069(2) 0.75915(10)
H44_3 H 0.2364 0.1277 0.4789
H6_8 H 0.4428 0.9688 0.0221
C14_8 C 0.46541(8) 0.7496(3) 0.00950(14)
O8_8 O 0.47130(5) 0.6350(2) 0.00315(9)
O9_8 O 0.48156(5) 0.8163(2) 0.04378(9)
O10_8 O 0.52760(5) 0.50056(19) 0.09102(9)
H42_4 H 0.5211 0.4717 0.1262
H43_4 H 0.5222 0.4408 0.0616
N7_4 N 0.53723(6) 0.6947(3) 0.00616(12)
C37_8 C 0.65721(8) 0.2904(3) 0.00779(15)
H24_8 H 0.6505 0.3541 0.0300
H11_8 H 0.8302 0.0324 0.6540
C25_8 C 0.93600(8) 0.0303(3) 0.72118(15)
H15_8 H 0.9502 0.0822 0.7391
C26_8 C 0.90873(8) 0.0230(3) 0.74275(16)
H16_8 H 0.9051 0.0668 0.7754
C33_8 C 0.69328(8) 0.1700(3) 0.98396(13)
H21_8 H 0.7128 0.1465 0.9882
C34_8 C 0.67517(7) 0.1038(3) 0.94475(14)
H22_8 H 0.6822 0.0383 0.9240
C35_8 C 0.64653(7) 0.1382(3) 0.93760(14)
C36_8 C 0.63742(8) 0.2338(3) 0.97008(14)
H23_8 H 0.6181 0.2595 0.9664
C38_8 C 0.55023(8) 0.2724(3) 0.67153(15)
H25_8 H 0.5504 0.3589 0.6760
C39_8 C 0.56683(8) 0.2042(3) 0.71100(15)
H26_8 H 0.5781 0.2441 0.7404
C40_8 C 0.56683(8) 0.0781(3) 0.70707(15)
C41_8 C 0.54952(8) 0.0259(3) 0.66191(15)
C42_8 C 0.53413(9) 0.1036(3) 0.62337(16)
H28_8 H 0.5233 0.0669 0.5926
C49_8 C 0.60101(8) 0.0467(3) 0.78668(14)
H35_8 H 0.6168 0.0914 0.7713
H36_8 H 0.5908 0.1046 0.8094
H37_8 H 0.6530 0.0109 0.8484
O7_8 O 0.98837(6) 0.0545(2) 0.66262(11)
O15_8 O 0.62617(5) 0.0846(2) 0.90013(10)
C43_8 C 0.56451(8) 0.6572(4) 0.01117(15)
H29_8 H 0.5707 0.6080 0.0424
C1_7 C 0.68885(9) 0.3997(3) 0.54983(17)
C2_7 C 0.67083(8) 0.2969(3) 0.56756(16)
C3_7 C 0.65268(8) 0.3116(3) 0.60967(15)
H1_7 H 0.6518 0.3893 0.6272
C4_7 C 0.63534(8) 0.2133(3) 0.62736(16)
H2_7 H 0.6227 0.2251 0.6554
C5_7 C 0.63783(9) 0.1004(4) 0.60173(16)
C6_7 C 0.65587(9) 0.0838(4) 0.56074(17)
H3_7 H 0.6577 0.0048 0.5449
C7_7 C 0.67157(9) 0.1825(4) 0.54211(17)
H4_7 H 0.6828 0.1712 0.5118
H5_7 H 0.5938 0.0745 0.5307
C15_8 C 0.78812(8) 0.7869(3) 0.65057(15)
C16_8 C 0.80343(8) 0.7230(4) 0.69379(16)
H9_8 H 0.7971 0.6439 0.7037
C17_8 C 0.82853(8) 0.7737(4) 0.72358(17)
H10_8 H 0.8386 0.7292 0.7530
C18_8 C 0.83811(8) 0.8918(4) 0.70831(16)
C19_8 C 0.82362(9) 0.9547(4) 0.66506(17)
C20_8 C 0.79854(9) 0.9017(4) 0.63697(17)
H12_8 H 0.7885 0.9467 0.6077
C21_8 C 0.88735(8) 0.9496(3) 0.71460(16)
C22_8 C 0.89313(8) 0.8864(3) 0.66710(15)
H13_8 H 0.8785 0.8391 0.6477
C23_8 C 0.92019(8) 0.8910(3) 0.64714(15)
H14_8 H 0.9236 0.8451 0.6150
C24_8 C 0.94241(8) 0.9625(3) 0.67389(15)
C27_8 C 0.97215(8) 0.9634(4) 0.65191(15)
C28_8 C 0.67751(8) 0.6668(3) 0.67179(14)
H17_8 H 0.6763 0.5808 0.6657
C29_8 C 0.66138(8) 0.7163(3) 0.71267(15)
H18_8 H 0.6495 0.6655 0.7327
C30_8 C 0.66329(8) 0.8441(3) 0.72305(15)
C31_8 C 0.68150(8) 0.9120(3) 0.69142(15)
H19_8 H 0.6834 0.9979 0.6969
C32_8 C 0.69666(8) 0.8536(3) 0.65207(15)
H20_8 H 0.7092 0.9018 0.6323
H27_8 H 0.5483 0.9394 0.6577
C44_8 C 0.58421(8) 0.6853(3) 0.97370(15)
H30_8 H 0.6034 0.6578 0.9798
C45_8 C 0.57516(8) 0.7548(3) 0.92709(16)
C46_8 C 0.54661(8) 0.7928(4) 0.91849(16)
H31_8 H 0.5397 0.8393 0.8868
C47_8 C 0.52898(8) 0.7583(4) 0.95932(16)
H32_8 H 0.5095 0.7815 0.9537
C48_8 C 0.58675(7) 0.8860(3) 0.85034(14)
H33_8 H 0.5730 0.8502 0.8213
H34_8 H 0.5771 0.9531 0.8689
C50_8 C 0.63629(7) 0.9833(3) 0.86709(13)
H38_8 H 0.6425 0.9144 0.8922
C51_8 C 0.62692(7) 0.8424(3) 0.78808(14)
H39_8 H 0.6125 0.8041 0.7610
H40_8 H 0.6360 0.7773 0.8123
C52_8 C 0.76162(8) 0.7339(4) 0.62141(15)
C53_8 C 0.61294(8) 0.9381(3) 0.82303(15)
N1_8 N 0.69466(6) 0.7322(3) 0.64023(11)
O1_8 O 0.73695(5) 0.5723(2) 0.51092(9)
H41_6 H 0.7277 0.4945 0.4996
O2_7 O 0.69148(5) 0.4951(2) 0.58052(10)
O3_7 O 0.70131(8) 0.3876(3) 0.50568(13)
O4_8 O 0.75277(5) 0.6262(2) 0.63389(10)
O5_8 O 0.74714(5) 0.7965(2) 0.58168(9)
O11_8 O 0.86198(5) 0.9411(3) 0.74019(11)
O13_8 O 0.59626(5) 0.7906(2) 0.89164(10)
O14_8 O 0.58155(5) 0.9978(2) 0.74166(10)
O16_8 O 0.64829(6) 0.9069(2) 0.75915(10)
H44_4 H 0.7364 0.6277 0.4789
H44_5 H 0.2364 0.8723 0.9789
H42_5 H 0.9789 0.0283 0.8738
H43_5 H 0.9778 0.0592 0.9384
H42_6 H 0.0211 0.0283 0.6262
H43_6 H 0.0222 0.0592 0.5616
C8_6 C 0.60316(8) 0.0631(3) 0.08621(15)
C9_6 C 0.58891(8) 0.0067(3) 0.04055(15)
C10_6 C 0.56724(8) 0.0701(3) 0.00904(15)
C11_6 C 0.56007(7) 0.1905(3) 0.02290(14)
C12_6 C 0.57514(7) 0.2481(3) 0.06745(15)
H7_6 H 0.5709 0.3307 0.0762
C13_6 C 0.59687(8) 0.1838(3) 0.10000(16)
H8_6 H 0.6071 0.2225 0.1310
O12_6 O 0.62309(6) 0.0007(2) 0.12378(10)
H41_7 H 0.7277 0.5055 0.9996
H44_6 H 0.7364 0.3723 0.9789
H42_7 H 0.0211 0.9717 0.1262
H43_7 H 0.0222 0.9408 0.0616
H44_7 H 0.7636 0.1277 0.0211
C1_8 C 0.81115(9) 0.8997(3) 0.95017(17)
C2_8 C 0.82917(8) 0.7969(3) 0.93244(16)
C3_8 C 0.84732(8) 0.8116(3) 0.89033(15)
H1_8 H 0.8482 0.8893 0.8728
C4_8 C 0.86466(8) 0.7133(3) 0.87264(16)
H2_8 H 0.8773 0.7251 0.8446
C5_8 C 0.86217(9) 0.6004(4) 0.89827(16)
C6_8 C 0.84413(9) 0.5838(4) 0.93926(17)
H3_8 H 0.8423 0.5048 0.9551
C7_8 C 0.82843(9) 0.6825(4) 0.95789(17)
H4_8 H 0.8172 0.6712 0.9882
C8_7 C 0.89684(8) 0.4369(3) 0.91379(15)
C9_7 C 0.91109(8) 0.4933(3) 0.95945(15)
H5_8 H 0.9062 0.5745 0.9693
C10_7 C 0.93276(8) 0.4299(3) 0.99096(15)
C11_7 C 0.93993(7) 0.3095(3) 0.97710(14)
C12_7 C 0.92486(7) 0.2519(3) 0.93255(15)
H7_7 H 0.9291 0.1693 0.9238
C13_7 C 0.90313(8) 0.3162(3) 0.90000(16)
H8_7 H 0.8929 0.2775 0.8690
O2_8 O 0.80852(5) 0.9951(2) 0.91948(10)
O3_8 O 0.79869(8) 0.8876(3) 0.99432(13)
O12_7 O 0.87691(6) 0.4993(2) 0.87622(10)
H42_8 H 0.9789 0.9717 0.3738
H43_8 H 0.9778 0.9408 0.4384
H41_8 H 0.2723 0.4945 0.0004
H44_8 H 0.2636 0.6277 0.0211
C8_8 C 0.39684(8) 0.9369(3) 0.91379(15)
C9_8 C 0.41109(8) 0.9933(3) 0.95945(15)
C10_8 C 0.43276(8) 0.9299(3) 0.99096(15)
C11_8 C 0.43993(7) 0.8095(3) 0.97710(14)
C12_8 C 0.42486(7) 0.7519(3) 0.93255(15)
H7_8 H 0.4291 0.6693 0.9238
C13_8 C 0.40313(8) 0.8162(3) 0.90000(16)
H8_8 H 0.3929 0.7775 0.8690
O12_8 O 0.37691(6) 0.9993(2) 0.87622(10)
loop_
_geom_bond_atom_site_label_1
_geom_bond_atom_site_label_2
_geom_bond_site_symmetry_1
_geom_bond_site_symmetry_2
C1 C2 1_555 1_555
C2 C3 1_555 1_555
C3 H1 1_555 1_555
C4 C3 1_555 1_555
H2 C4 1_555 1_555
C5 C4 1_555 1_555
C6 C5 1_555 1_555
H3 C6 1_555 1_555
C7 C2 1_555 1_555
H4 C7 1_555 1_555
C8 C9 1_555 1_555
C9 H5 1_555 1_555
C10 C9 1_555 1_555
C11 C10 1_555 1_555
C12 C11 1_555 1_555
H7 C12 1_555 1_555
C13 C8 1_555 1_555
H8 C13 1_555 1_555
O2 C1 1_555 1_555
O3 C1 1_555 1_555
O12 C5 1_555 1_555
C6 C7 1_555 1_555
C8 O12 1_555 1_555
C12 C13 1_555 1_555
O8 C14 1_555 1_555
O9 C14 1_555 1_555
O10 Ni2 1_555 1_555
N5 Ni2 1_555 1_555
N7 Ni2 1_555 1_555
C15 C16 1_555 1_555
C16 H9 1_555 1_555
C17 C16 1_555 1_555
H10 C17 1_555 1_555
C18 C17 1_555 1_555
C19 C18 1_555 1_555
H11 C19 1_555 1_555
C20 C15 1_555 1_555
H12 C20 1_555 1_555
C21 C22 1_555 1_555
C22 H13 1_555 1_555
C23 C22 1_555 1_555
H14 C23 1_555 1_555
C24 C23 1_555 1_555
C25 C24 1_555 1_555
H15 C25 1_555 1_555
C26 C21 1_555 1_555
H16 C26 1_555 1_555
C27 C24 1_555 1_555
C28 H17 1_555 1_555
C29 C28 1_555 1_555
H18 C29 1_555 1_555
C30 C29 1_555 1_555
C31 C30 1_555 1_555
H19 C31 1_555 1_555
C32 C31 1_555 1_555
H20 C32 1_555 1_555
C33 H21 1_555 1_555
C34 C33 1_555 1_555
H22 C34 1_555 1_555
C35 C34 1_555 1_555
C36 C35 1_555 1_555
H23 C36 1_555 1_555
C38 H25 1_555 1_555
C39 C38 1_555 1_555
H26 C39 1_555 1_555
C40 C39 1_555 1_555
C41 C40 1_555 1_555
H27 C41 1_555 1_555
C42 C41 1_555 1_555
H28 C42 1_555 1_555
H30 C44 1_555 1_555
C45 C44 1_555 1_555
C46 C45 1_555 1_555
H31 C46 1_555 1_555
C47 C46 1_555 1_555
H32 C47 1_555 1_555
C48 H33 1_555 1_555
H34 C48 1_555 1_555
C49 H35 1_555 1_555
H36 C49 1_555 1_555
C50 H37 1_555 1_555
H38 C50 1_555 1_555
C51 H39 1_555 1_555
H40 C51 1_555 1_555
C52 C15 1_555 1_555
C53 C48 1_555 1_555
N1 C28 1_555 1_555
N2 C38 1_555 1_555
Ni1 N1 1_555 1_555
O1 Ni1 1_555 1_555
O4 C52 1_555 1_555
O5 C52 1_555 1_555
O6 C27 1_555 1_555
O7 C27 1_555 1_555
O11 C18 1_555 1_555
O13 C45 1_555 1_555
O14 C40 1_555 1_555
O15 C35 1_555 1_555
O16 C30 1_555 1_555
H44 O1 1_555 1_555
N6 Ni1 1_555 1_555
Ni5 N2 1_555 1_555
Ni6 O6 1_555 1_555
C19 C20 1_555 1_555
C21 O11 1_555 1_555
C25 C26 1_555 1_555
C32 N1 1_555 1_555
C42 N2 1_555 1_555
C48 O13 1_555 1_555
C49 C53 1_555 1_555
C49 O14 1_555 1_555
C50 C53 1_555 1_555
C50 O15 1_555 1_555
C51 C53 1_555 1_555
C51 O16 1_555 1_555
Ni1 O4 1_555 1_555
Ni1 O5 1_555 1_555
H24 C37 1_555 1_555
C43 H29 1_555 1_555
N7 C43 1_555 1_555
Ni3 N3 1_555 1_555
C37 N3 1_555 1_555
Ni2_2 O8_2 1_555 1_555
O8_2 C14_2 1_555 1_555
O9_2 C14_2 1_555 1_555
O10_2 Ni2_2 1_555 1_555
H42 O10_2 1_555 1_555
H43 O10_2 1_555 1_555
N5_2 Ni2_2 1_555 1_555
N7_2 Ni2_2 1_555 1_555
O17_2 Ni2_2 1_555 1_555
Ni2_2 O9_2 1_555 1_555
C1_2 C2_2 1_555 1_555
C2_2 C3_2 1_555 1_555
C3_2 H1_2 1_555 1_555
C4_2 C3_2 1_555 1_555
H2_2 C4_2 1_555 1_555
C5_2 C4_2 1_555 1_555
C6_2 C5_2 1_555 1_555
H3_2 C6_2 1_555 1_555
C7_2 C2_2 1_555 1_555
H4_2 C7_2 1_555 1_555
C15_2 C16_2 1_555 1_555
C16_2 H9_2 1_555 1_555
C17_2 C16_2 1_555 1_555
H10_2 C17_2 1_555 1_555
C18_2 C17_2 1_555 1_555
C19_2 C18_2 1_555 1_555
C20_2 C15_2 1_555 1_555
H12_2 C20_2 1_555 1_555
C21_2 C22_2 1_555 1_555
C22_2 H13_2 1_555 1_555
C23_2 C22_2 1_555 1_555
H14_2 C23_2 1_555 1_555
C24_2 C23_2 1_555 1_555
C27_2 C24_2 1_555 1_555
C28_2 H17_2 1_555 1_555
C29_2 C28_2 1_555 1_555
H18_2 C29_2 1_555 1_555
C30_2 C29_2 1_555 1_555
C31_2 C30_2 1_555 1_555
H19_2 C31_2 1_555 1_555
C32_2 C31_2 1_555 1_555
H20_2 C32_2 1_555 1_555
H30_2 C44_2 1_555 1_555
C45_2 C44_2 1_555 1_555
C46_2 C45_2 1_555 1_555
H31_2 C46_2 1_555 1_555
C47_2 C46_2 1_555 1_555
H32_2 C47_2 1_555 1_555
C48_2 H33_2 1_555 1_555
H34_2 C48_2 1_555 1_555
H38_2 C50_2 1_555 1_555
C51_2 H39_2 1_555 1_555
H40_2 C51_2 1_555 1_555
C52_2 C15_2 1_555 1_555
C53_2 C48_2 1_555 1_555
N1_2 C28_2 1_555 1_555
Ni1_2 N1_2 1_555 1_555
O1_2 Ni1_2 1_555 1_555
H41_2 O1_2 1_555 1_555
O2_2 C1_2 1_555 1_555
O3_2 C1_2 1_555 1_555
O4_2 C52_2 1_555 1_555
O5_2 C52_2 1_555 1_555
O6_2 C27_2 1_555 1_555
O11_2 C18_2 1_555 1_555
O13_2 C45_2 1_555 1_555
O16_2 C30_2 1_555 1_555
H44_2 O1_2 1_555 1_555
N6_2 Ni1_2 1_555 1_555
C6_2 C7_2 1_555 1_555
C19_2 C20_2 1_555 1_555
C21_2 O11_2 1_555 1_555
C32_2 N1_2 1_555 1_555
C48_2 O13_2 1_555 1_555
C50_2 C53_2 1_555 1_555
C51_2 C53_2 1_555 1_555
C51_2 O16_2 1_555 1_555
Ni1_2 O2_2 1_555 1_555
Ni1_2 O4_2 1_555 1_555
Ni1_2 O5_2 1_555 1_555
C43_2 H29_2 1_555 1_555
N7_2 C43_2 1_555 1_555
H15_2 C25_2 1_555 1_555
H16_2 C26_2 1_555 1_555
C33_2 H21_2 1_555 1_555
C34_2 C33_2 1_555 1_555
H22_2 C34_2 1_555 1_555
C35_2 C34_2 1_555 1_555
C36_2 C35_2 1_555 1_555
H23_2 C36_2 1_555 1_555
C38_2 H25_2 1_555 1_555
C39_2 C38_2 1_555 1_555
H26_2 C39_2 1_555 1_555
C40_2 C39_2 1_555 1_555
C41_2 C40_2 1_555 1_555
C42_2 C41_2 1_555 1_555
H28_2 C42_2 1_555 1_555
C49_2 H35_2 1_555 1_555
H36_2 C49_2 1_555 1_555
N2_2 C38_2 1_555 1_555
O15_2 C35_2 1_555 1_555
Ni6 N2_2 1_555 1_555
C25_2 C26_2 1_555 1_555
C42_2 N2_2 1_555 1_555
H24_2 C37_2 1_555 1_555
Ni3_2 N3_2 1_555 1_555
C37_2 N3_2 1_555 1_555
C15_3 C16_3 1_555 1_555
C16_3 H9_3 1_555 1_555
C17_3 C16_3 1_555 1_555
H10_3 C17_3 1_555 1_555
C18_3 C17_3 1_555 1_555
C19_3 C18_3 1_555 1_555
H11_3 C19_3 1_555 1_555
C20_3 C15_3 1_555 1_555
H12_3 C20_3 1_555 1_555
C21_3 C22_3 1_555 1_555
C22_3 H13_3 1_555 1_555
C23_3 C22_3 1_555 1_555
H14_3 C23_3 1_555 1_555
C24_3 C23_3 1_555 1_555
C25_3 C24_3 1_555 1_555
H15_3 C25_3 1_555 1_555
C26_3 C21_3 1_555 1_555
H16_3 C26_3 1_555 1_555
C27_3 C24_3 1_555 1_555
C28_3 H17_3 1_555 1_555
C29_3 C28_3 1_555 1_555
H18_3 C29_3 1_555 1_555
C30_3 C29_3 1_555 1_555
C31_3 C30_3 1_555 1_555
H19_3 C31_3 1_555 1_555
C32_3 C31_3 1_555 1_555
H20_3 C32_3 1_555 1_555
C33_3 H21_3 1_555 1_555
C34_3 C33_3 1_555 1_555
H22_3 C34_3 1_555 1_555
C35_3 C34_3 1_555 1_555
C36_3 C35_3 1_555 1_555
H23_3 C36_3 1_555 1_555
C37_3 C36_3 1_555 1_555
H24_3 C37_3 1_555 1_555
C38_3 H25_3 1_555 1_555
C39_3 C38_3 1_555 1_555
H26_3 C39_3 1_555 1_555
C40_3 C39_3 1_555 1_555
C41_3 C40_3 1_555 1_555
H27_3 C41_3 1_555 1_555
C42_3 C41_3 1_555 1_555
H28_3 C42_3 1_555 1_555
C43_3 H29_3 1_555 1_555
C44_3 C43_3 1_555 1_555
H30_3 C44_3 1_555 1_555
C45_3 C44_3 1_555 1_555
C46_3 C45_3 1_555 1_555
H31_3 C46_3 1_555 1_555
C47_3 C46_3 1_555 1_555
H32_3 C47_3 1_555 1_555
C48_3 H33_3 1_555 1_555
H34_3 C48_3 1_555 1_555
C49_3 H35_3 1_555 1_555
H36_3 C49_3 1_555 1_555
C50_3 H37_3 1_555 1_555
H38_3 C50_3 1_555 1_555
C51_3 H39_3 1_555 1_555
H40_3 C51_3 1_555 1_555
C52_3 C15_3 1_555 1_555
C53_3 C48_3 1_555 1_555
N1_3 C28_3 1_555 1_555
N5 C38_3 1_555 1_555
N6 C33_3 1_555 1_555
N4 C43_3 1_555 1_555
Ni3 N1_3 1_555 1_555
O1_3 Ni3 1_555 1_555
O4_3 C52_3 1_555 1_555
O5_3 C52_3 1_555 1_555
O17_2 C27_3 1_555 1_555
O7_3 C27_3 1_555 1_555
O11_3 C18_3 1_555 1_555
O13_3 C45_3 1_555 1_555
O14_3 C40_3 1_555 1_555
O15_3 C35_3 1_555 1_555
O16_3 C30_3 1_555 1_555
Ni5 N4 1_555 1_555
C19_3 C20_3 1_555 1_555
C21_3 O11_3 1_555 1_555
C25_3 C26_3 1_555 1_555
C32_3 N1_3 1_555 1_555
C37_3 N6 1_555 1_555
C42_3 N5 1_555 1_555
C47_3 N4 1_555 1_555
C48_3 O13_3 1_555 1_555
C49_3 C53_3 1_555 1_555
C49_3 O14_3 1_555 1_555
C50_3 C53_3 1_555 1_555
C50_3 O15_3 1_555 1_555
C51_3 C53_3 1_555 1_555
C51_3 O16_3 1_555 1_555
Ni3 O4_3 1_555 1_555
Ni3 O5_3 1_555 1_555
C1_3 C2_3 1_555 1_555
C2_3 C3_3 1_555 1_555
C3_3 H1_3 1_555 1_555
C4_3 C3_3 1_555 1_555
H2_3 C4_3 1_555 1_555
C5_3 C4_3 1_555 1_555
C6_3 C5_3 1_555 1_555
H3_3 C6_3 1_555 1_555
C7_3 C2_3 1_555 1_555
H4_3 C7_3 1_555 1_555
C8_2 C9_2 1_555 1_555
C9_2 H5_3 1_555 1_555
C10_2 C9_2 1_555 1_555
H6_3 C10_2 1_555 1_555
C11_2 C10_2 1_555 1_555
C12_2 C11_2 1_555 1_555
H7_2 C12_2 1_555 1_555
C13_2 C8_2 1_555 1_555
H8_2 C13_2 1_555 1_555
C14_3 C11_2 1_555 1_555
O2_3 C1_3 1_555 1_555
O3_3 C1_3 1_555 1_555
O8_3 C14_3 1_555 1_555
O9_3 C14_3 1_555 1_555
O12_2 C5_3 1_555 1_555
C6_3 C7_3 1_555 1_555
C8_2 O12_2 1_555 1_555
C12_2 C13_2 1_555 1_555
O10_3 Ni5 1_555 1_555
H15_4 C25_4 1_555 1_555
H16_4 C26_4 1_555 1_555
C33_4 H21_4 1_555 1_555
C34_4 C33_4 1_555 1_555
H22_4 C34_4 1_555 1_555
C35_4 C34_4 1_555 1_555
C36_4 C35_4 1_555 1_555
H23_4 C36_4 1_555 1_555
C37_4 C36_4 1_555 1_555
H24_4 C37_4 1_555 1_555
C38_4 H25_4 1_555 1_555
C39_4 C38_4 1_555 1_555
H26_4 C39_4 1_555 1_555
C40_4 C39_4 1_555 1_555
C41_4 C40_4 1_555 1_555
C42_4 C41_4 1_555 1_555
H28_4 C42_4 1_555 1_555
C49_4 H35_4 1_555 1_555
H36_4 C49_4 1_555 1_555
N5_2 C38_4 1_555 1_555
N6_2 C33_4 1_555 1_555
O15_4 C35_4 1_555 1_555
C25_4 C26_4 1_555 1_555
C37_4 N6_2 1_555 1_555
C42_4 N5_2 1_555 1_555
C1_4 C2_4 1_555 1_555
C2_4 C3_4 1_555 1_555
C3_4 H1_4 1_555 1_555
C4_4 C3_4 1_555 1_555
H2_4 C4_4 1_555 1_555
C5_4 C4_4 1_555 1_555
C6_4 C5_4 1_555 1_555
H3_4 C6_4 1_555 1_555
C7_4 C2_4 1_555 1_555
H4_4 C7_4 1_555 1_555
C15_4 C16_4 1_555 1_555
C16_4 H9_4 1_555 1_555
C17_4 C16_4 1_555 1_555
H10_4 C17_4 1_555 1_555
C18_4 C17_4 1_555 1_555
C19_4 C18_4 1_555 1_555
C20_4 C15_4 1_555 1_555
H12_4 C20_4 1_555 1_555
C21_4 C22_4 1_555 1_555
C22_4 H13_4 1_555 1_555
C23_4 C22_4 1_555 1_555
H14_4 C23_4 1_555 1_555
C24_4 C23_4 1_555 1_555
C27_4 C24_4 1_555 1_555
C28_4 H17_4 1_555 1_555
C29_4 C28_4 1_555 1_555
H18_4 C29_4 1_555 1_555
C30_4 C29_4 1_555 1_555
C31_4 C30_4 1_555 1_555
H19_4 C31_4 1_555 1_555
C32_4 C31_4 1_555 1_555
H20_4 C32_4 1_555 1_555
C43_4 H29_4 1_555 1_555
C44_4 C43_4 1_555 1_555
H30_4 C44_4 1_555 1_555
C45_4 C44_4 1_555 1_555
C46_4 C45_4 1_555 1_555
H31_4 C46_4 1_555 1_555
C47_4 C46_4 1_555 1_555
H32_4 C47_4 1_555 1_555
C48_4 H33_4 1_555 1_555
H34_4 C48_4 1_555 1_555
H38_4 C50_4 1_555 1_555
C51_4 H39_4 1_555 1_555
H40_4 C51_4 1_555 1_555
C52_4 C15_4 1_555 1_555
C53_4 C48_4 1_555 1_555
N1_4 C28_4 1_555 1_555
N4_2 C43_4 1_555 1_555
Ni3_2 N1_4 1_555 1_555
O1_4 Ni3_2 1_555 1_555
O2_4 C1_4 1_555 1_555
O3_4 C1_4 1_555 1_555
O4_4 C52_4 1_555 1_555
O5_4 C52_4 1_555 1_555
O17 C27_4 1_555 1_555
O11_4 C18_4 1_555 1_555
O13_4 C45_4 1_555 1_555
O16_4 C30_4 1_555 1_555
Ni6 N4_2 1_555 1_555
C6_4 C7_4 1_555 1_555
C19_4 C20_4 1_555 1_555
C21_4 O11_4 1_555 1_555
C32_4 N1_4 1_555 1_555
C47_4 N4_2 1_555 1_555
C48_4 O13_4 1_555 1_555
C50_4 C53_4 1_555 1_555
C51_4 C53_4 1_555 1_555
C51_4 O16_4 1_555 1_555
Ni3_2 O2_4 1_555 1_555
Ni3_2 O4_4 1_555 1_555
Ni3_2 O5_4 1_555 1_555
C8_3 C9_3 1_555 1_555
C10_3 C9_3 1_555 1_555
H6_4 C10_3 1_555 1_555
C11_3 C10_3 1_555 1_555
C12_3 C11_3 1_555 1_555
H7_3 C12_3 1_555 1_555
C13_3 C8_3 1_555 1_555
H8_3 C13_3 1_555 1_555
C14_4 C11_3 1_555 1_555
Ni6 O8_4 1_555 1_555
O8_4 C14_4 1_555 1_555
O9_4 C14_4 1_555 1_555
O10_4 Ni6 1_555 1_555
H42_2 O10_4 1_555 1_555
H43_2 O10_4 1_555 1_555
C8_3 O12_3 1_555 1_555
C12_3 C13_3 1_555 1_555
Ni6 O9_4 1_555 1_555
C15_5 C16_5 1_555 1_555
C16_5 H9_5 1_555 1_555
C17_5 C16_5 1_555 1_555
H10_5 C17_5 1_555 1_555
C18_5 C17_5 1_555 1_555
C19_5 C18_5 1_555 1_555
H11_5 C19_5 1_555 1_555
C20_5 C15_5 1_555 1_555
H12_5 C20_5 1_555 1_555
C21_5 C22_5 1_555 1_555
C22_5 H13_5 1_555 1_555
C23_5 C22_5 1_555 1_555
H14_5 C23_5 1_555 1_555
C24_5 C23_5 1_555 1_555
C25_5 C24_5 1_555 1_555
H15_5 C25_5 1_555 1_555
C26_5 C21_5 1_555 1_555
H16_5 C26_5 1_555 1_555
C27_5 C24_5 1_555 1_555
C28_5 H17_5 1_555 1_555
C29_5 C28_5 1_555 1_555
H18_5 C29_5 1_555 1_555
C30_5 C29_5 1_555 1_555
C31_5 C30_5 1_555 1_555
H19_5 C31_5 1_555 1_555
C32_5 C31_5 1_555 1_555
H20_5 C32_5 1_555 1_555
C33_5 H21_5 1_555 1_555
C34_5 C33_5 1_555 1_555
H22_5 C34_5 1_555 1_555
C35_5 C34_5 1_555 1_555
C36_5 C35_5 1_555 1_555
H23_5 C36_5 1_555 1_555
C37_5 C36_5 1_555 1_555
H24_5 C37_5 1_555 1_555
C38_5 H25_5 1_555 1_555
C39_5 C38_5 1_555 1_555
H26_5 C39_5 1_555 1_555
C40_5 C39_5 1_555 1_555
C41_5 C40_5 1_555 1_555
H27_5 C41_5 1_555 1_555
C42_5 C41_5 1_555 1_555
H28_5 C42_5 1_555 1_555
C43_5 H29_5 1_555 1_555
C44_5 C43_5 1_555 1_555
H30_5 C44_5 1_555 1_555
C45_5 C44_5 1_555 1_555
C46_5 C45_5 1_555 1_555
H31_5 C46_5 1_555 1_555
C47_5 C46_5 1_555 1_555
H32_5 C47_5 1_555 1_555
C48_5 H33_5 1_555 1_555
H34_5 C48_5 1_555 1_555
C49_5 H35_5 1_555 1_555
H36_5 C49_5 1_555 1_555
C50_5 H37_5 1_555 1_555
H38_5 C50_5 1_555 1_555
C51_5 H39_5 1_555 1_555
H40_5 C51_5 1_555 1_555
C52_5 C15_5 1_555 1_555
C53_5 C48_5 1_555 1_555
N1_5 C28_5 1_555 1_555
N2_3 C38_5 1_555 1_555
N3_3 C33_5 1_555 1_555
N4_3 C43_5 1_555 1_555
Ni1_3 N1_5 1_555 1_555
O1_5 Ni1_3 1_555 1_555
O4_5 C52_5 1_555 1_555
O5_5 C52_5 1_555 1_555
O6_3 C27_5 1_555 1_555
O7_5 C27_5 1_555 1_555
O11_5 C18_5 1_555 1_555
O13_5 C45_5 1_555 1_555
O14_5 C40_5 1_555 1_555
O15_5 C35_5 1_555 1_555
O16_5 C30_5 1_555 1_555
N6_3 Ni1_3 1_555 1_555
Ni3_3 N3_3 1_555 1_555
Ni4 N4_3 1_555 1_555
Ni5_2 N2_3 1_555 1_555
Ni6_2 O6_3 1_555 1_555
C19_5 C20_5 1_555 1_555
C21_5 O11_5 1_555 1_555
C25_5 C26_5 1_555 1_555
C32_5 N1_5 1_555 1_555
C37_5 N3_3 1_555 1_555
C42_5 N2_3 1_555 1_555
C47_5 N4_3 1_555 1_555
C48_5 O13_5 1_555 1_555
C49_5 C53_5 1_555 1_555
C49_5 O14_5 1_555 1_555
C50_5 C53_5 1_555 1_555
C50_5 O15_5 1_555 1_555
C51_5 C53_5 1_555 1_555
C51_5 O16_5 1_555 1_555
Ni1_3 O4_5 1_555 1_555
Ni1_3 O5_5 1_555 1_555
O10_5 Ni4 1_555 1_555
N5_3 Ni4 1_555 1_555
C1_5 C2_5 1_555 1_555
C2_5 C3_5 1_555 1_555
C3_5 H1_5 1_555 1_555
C4_5 C3_5 1_555 1_555
H2_5 C4_5 1_555 1_555
C5_5 C4_5 1_555 1_555
C6_5 C5_5 1_555 1_555
H3_5 C6_5 1_555 1_555
C7_5 C2_5 1_555 1_555
H4_5 C7_5 1_555 1_555
C8_4 C9_4 1_555 1_555
C9_4 H5_5 1_555 1_555
C10_4 C9_4 1_555 1_555
H6_5 C10_4 1_555 1_555
C11_4 C10_4 1_555 1_555
C12_4 C11_4 1_555 1_555
H7_4 C12_4 1_555 1_555
C13_4 C8_4 1_555 1_555
H8_4 C13_4 1_555 1_555
C14_5 C11_4 1_555 1_555
O2_5 C1_5 1_555 1_555
O3_5 C1_5 1_555 1_555
O8_5 C14_5 1_555 1_555
O9_5 C14_5 1_555 1_555
O12_4 C5_5 1_555 1_555
C6_5 C7_5 1_555 1_555
C8_4 O12_4 1_555 1_555
C12_4 C13_4 1_555 1_555
C1_6 C2_6 1_555 1_555
C2_6 C3_6 1_555 1_555
C3_6 H1_6 1_555 1_555
C4_6 C3_6 1_555 1_555
H2_6 C4_6 1_555 1_555
C5_6 C4_6 1_555 1_555
C6_6 C5_6 1_555 1_555
H3_6 C6_6 1_555 1_555
C7_6 C2_6 1_555 1_555
H4_6 C7_6 1_555 1_555
C15_6 C16_6 1_555 1_555
C16_6 H9_6 1_555 1_555
C17_6 C16_6 1_555 1_555
H10_6 C17_6 1_555 1_555
C18_6 C17_6 1_555 1_555
C19_6 C18_6 1_555 1_555
C20_6 C15_6 1_555 1_555
H12_6 C20_6 1_555 1_555
C21_6 C22_6 1_555 1_555
C22_6 H13_6 1_555 1_555
C23_6 C22_6 1_555 1_555
H14_6 C23_6 1_555 1_555
C24_6 C23_6 1_555 1_555
C27_6 C24_6 1_555 1_555
C28_6 H17_6 1_555 1_555
C29_6 C28_6 1_555 1_555
H18_6 C29_6 1_555 1_555
C30_6 C29_6 1_555 1_555
C31_6 C30_6 1_555 1_555
H19_6 C31_6 1_555 1_555
C32_6 C31_6 1_555 1_555
H20_6 C32_6 1_555 1_555
C43_6 H29_6 1_555 1_555
C44_6 C43_6 1_555 1_555
H30_6 C44_6 1_555 1_555
C45_6 C44_6 1_555 1_555
C46_6 C45_6 1_555 1_555
H31_6 C46_6 1_555 1_555
C47_6 C46_6 1_555 1_555
H32_6 C47_6 1_555 1_555
C48_6 H33_6 1_555 1_555
H34_6 C48_6 1_555 1_555
H38_6 C50_6 1_555 1_555
C51_6 H39_6 1_555 1_555
H40_6 C51_6 1_555 1_555
C52_6 C15_6 1_555 1_555
C53_6 C48_6 1_555 1_555
N1_6 C28_6 1_555 1_555
N4_4 C43_6 1_555 1_555
Ni1_4 N1_6 1_555 1_555
O1_6 Ni1_4 1_555 1_555
O2_6 C1_6 1_555 1_555
O3_6 C1_6 1_555 1_555
O4_6 C52_6 1_555 1_555
O5_6 C52_6 1_555 1_555
O6_4 C27_6 1_555 1_555
O11_6 C18_6 1_555 1_555
O13_6 C45_6 1_555 1_555
O16_6 C30_6 1_555 1_555
N6_4 Ni1_4 1_555 1_555
Ni4_2 N4_4 1_555 1_555
C6_6 C7_6 1_555 1_555
C19_6 C20_6 1_555 1_555
C21_6 O11_6 1_555 1_555
C32_6 N1_6 1_555 1_555
C47_6 N4_4 1_555 1_555
C48_6 O13_6 1_555 1_555
C50_6 C53_6 1_555 1_555
C51_6 C53_6 1_555 1_555
C51_6 O16_6 1_555 1_555
Ni1_4 O2_6 1_555 1_555
Ni1_4 O4_6 1_555 1_555
Ni1_4 O5_6 1_555 1_555
H15_6 C25_6 1_555 1_555
H16_6 C26_6 1_555 1_555
C33_6 H21_6 1_555 1_555
C34_6 C33_6 1_555 1_555
H22_6 C34_6 1_555 1_555
C35_6 C34_6 1_555 1_555
C36_6 C35_6 1_555 1_555
H23_6 C36_6 1_555 1_555
C37_6 C36_6 1_555 1_555
H24_6 C37_6 1_555 1_555
C38_6 H25_6 1_555 1_555
C39_6 C38_6 1_555 1_555
H26_6 C39_6 1_555 1_555
C40_6 C39_6 1_555 1_555
C41_6 C40_6 1_555 1_555
C42_6 C41_6 1_555 1_555
H28_6 C42_6 1_555 1_555
C49_6 H35_6 1_555 1_555
H36_6 C49_6 1_555 1_555
N2_4 C38_6 1_555 1_555
N3_4 C33_6 1_555 1_555
O15_6 C35_6 1_555 1_555
Ni3_4 N3_4 1_555 1_555
Ni6_2 N2_4 1_555 1_555
C25_6 C26_6 1_555 1_555
C37_6 N3_4 1_555 1_555
C42_6 N2_4 1_555 1_555
C8_5 C9_5 1_555 1_555
C10_5 C9_5 1_555 1_555
H6_6 C10_5 1_555 1_555
C11_5 C10_5 1_555 1_555
C12_5 C11_5 1_555 1_555
H7_5 C12_5 1_555 1_555
C13_5 C8_5 1_555 1_555
H8_5 C13_5 1_555 1_555
C14_6 C11_5 1_555 1_555
Ni4_2 O8_6 1_555 1_555
O8_6 C14_6 1_555 1_555
O9_6 C14_6 1_555 1_555
O10_6 Ni4_2 1_555 1_555
H42_3 O10_6 1_555 1_555
H43_3 O10_6 1_555 1_555
N5_4 Ni4_2 1_555 1_555
O17_4 Ni4_2 1_555 1_555
C8_5 O12_5 1_555 1_555
C12_5 C13_5 1_555 1_555
Ni4_2 O9_6 1_555 1_555
O10_7 Ni5_2 1_555 1_555
N7_3 Ni5_2 1_555 1_555
O8_7 C14_7 1_555 1_555
O9_7 C14_7 1_555 1_555
H24_7 C37_7 1_555 1_555
C43_7 H29_7 1_555 1_555
N7_3 C43_7 1_555 1_555
C37_7 N6_3 1_555 1_555
C15_7 C16_7 1_555 1_555
C16_7 H9_7 1_555 1_555
C17_7 C16_7 1_555 1_555
H10_7 C17_7 1_555 1_555
C18_7 C17_7 1_555 1_555
C19_7 C18_7 1_555 1_555
H11_7 C19_7 1_555 1_555
C20_7 C15_7 1_555 1_555
H12_7 C20_7 1_555 1_555
C21_7 C22_7 1_555 1_555
C22_7 H13_7 1_555 1_555
C23_7 C22_7 1_555 1_555
H14_7 C23_7 1_555 1_555
C24_7 C23_7 1_555 1_555
C25_7 C24_7 1_555 1_555
H15_7 C25_7 1_555 1_555
C26_7 C21_7 1_555 1_555
H16_7 C26_7 1_555 1_555
C27_7 C24_7 1_555 1_555
C28_7 H17_7 1_555 1_555
C29_7 C28_7 1_555 1_555
H18_7 C29_7 1_555 1_555
C30_7 C29_7 1_555 1_555
C31_7 C30_7 1_555 1_555
H19_7 C31_7 1_555 1_555
C32_7 C31_7 1_555 1_555
H20_7 C32_7 1_555 1_555
C33_7 H21_7 1_555 1_555
C34_7 C33_7 1_555 1_555
H22_7 C34_7 1_555 1_555
C35_7 C34_7 1_555 1_555
C36_7 C35_7 1_555 1_555
H23_7 C36_7 1_555 1_555
C38_7 H25_7 1_555 1_555
C39_7 C38_7 1_555 1_555
H26_7 C39_7 1_555 1_555
C40_7 C39_7 1_555 1_555
C41_7 C40_7 1_555 1_555
H27_7 C41_7 1_555 1_555
C42_7 C41_7 1_555 1_555
H28_7 C42_7 1_555 1_555
H30_7 C44_7 1_555 1_555
C45_7 C44_7 1_555 1_555
C46_7 C45_7 1_555 1_555
H31_7 C46_7 1_555 1_555
C47_7 C46_7 1_555 1_555
H32_7 C47_7 1_555 1_555
C48_7 H33_7 1_555 1_555
H34_7 C48_7 1_555 1_555
C49_7 H35_7 1_555 1_555
H36_7 C49_7 1_555 1_555
C50_7 H37_7 1_555 1_555
H38_7 C50_7 1_555 1_555
C51_7 H39_7 1_555 1_555
H40_7 C51_7 1_555 1_555
C52_7 C15_7 1_555 1_555
C53_7 C48_7 1_555 1_555
N1_7 C28_7 1_555 1_555
N5_3 C38_7 1_555 1_555
Ni3_3 N1_7 1_555 1_555
O1_7 Ni3_3 1_555 1_555
O4_7 C52_7 1_555 1_555
O5_7 C52_7 1_555 1_555
O17_4 C27_7 1_555 1_555
O7_7 C27_7 1_555 1_555
O11_7 C18_7 1_555 1_555
O13_7 C45_7 1_555 1_555
O14_7 C40_7 1_555 1_555
O15_7 C35_7 1_555 1_555
O16_7 C30_7 1_555 1_555
H44_3 O1_7 1_555 1_555
C19_7 C20_7 1_555 1_555
C21_7 O11_7 1_555 1_555
C25_7 C26_7 1_555 1_555
C32_7 N1_7 1_555 1_555
C42_7 N5_3 1_555 1_555
C48_7 O13_7 1_555 1_555
C49_7 C53_7 1_555 1_555
C49_7 O14_7 1_555 1_555
C50_7 C53_7 1_555 1_555
C50_7 O15_7 1_555 1_555
C51_7 C53_7 1_555 1_555
C51_7 O16_7 1_555 1_555
Ni3_3 O4_7 1_555 1_555
Ni3_3 O5_7 1_555 1_555
Ni6_2 O8_8 1_555 1_555
O8_8 C14_8 1_555 1_555
O9_8 C14_8 1_555 1_555
O10_8 Ni6_2 1_555 1_555
H42_4 O10_8 1_555 1_555
H43_4 O10_8 1_555 1_555
N7_4 Ni6_2 1_555 1_555
Ni6_2 O9_8 1_555 1_555
H24_8 C37_8 1_555 1_555
C37_8 N6_4 1_555 1_555
H15_8 C25_8 1_555 1_555
H16_8 C26_8 1_555 1_555
C33_8 H21_8 1_555 1_555
C34_8 C33_8 1_555 1_555
H22_8 C34_8 1_555 1_555
C35_8 C34_8 1_555 1_555
C36_8 C35_8 1_555 1_555
H23_8 C36_8 1_555 1_555
C38_8 H25_8 1_555 1_555
C39_8 C38_8 1_555 1_555
H26_8 C39_8 1_555 1_555
C40_8 C39_8 1_555 1_555
C41_8 C40_8 1_555 1_555
C42_8 C41_8 1_555 1_555
H28_8 C42_8 1_555 1_555
C49_8 H35_8 1_555 1_555
H36_8 C49_8 1_555 1_555
N5_4 C38_8 1_555 1_555
O15_8 C35_8 1_555 1_555
C25_8 C26_8 1_555 1_555
C42_8 N5_4 1_555 1_555
C43_8 H29_8 1_555 1_555
N7_4 C43_8 1_555 1_555
C1_7 C2_7 1_555 1_555
C2_7 C3_7 1_555 1_555
C3_7 H1_7 1_555 1_555
C4_7 C3_7 1_555 1_555
H2_7 C4_7 1_555 1_555
C5_7 C4_7 1_555 1_555
C6_7 C5_7 1_555 1_555
H3_7 C6_7 1_555 1_555
C7_7 C2_7 1_555 1_555
H4_7 C7_7 1_555 1_555
C15_8 C16_8 1_555 1_555
C16_8 H9_8 1_555 1_555
C17_8 C16_8 1_555 1_555
H10_8 C17_8 1_555 1_555
C18_8 C17_8 1_555 1_555
C19_8 C18_8 1_555 1_555
C20_8 C15_8 1_555 1_555
H12_8 C20_8 1_555 1_555
C21_8 C22_8 1_555 1_555
C22_8 H13_8 1_555 1_555
C23_8 C22_8 1_555 1_555
H14_8 C23_8 1_555 1_555
C24_8 C23_8 1_555 1_555
C27_8 C24_8 1_555 1_555
C28_8 H17_8 1_555 1_555
C29_8 C28_8 1_555 1_555
H18_8 C29_8 1_555 1_555
C30_8 C29_8 1_555 1_555
C31_8 C30_8 1_555 1_555
H19_8 C31_8 1_555 1_555
C32_8 C31_8 1_555 1_555
H20_8 C32_8 1_555 1_555
H30_8 C44_8 1_555 1_555
C45_8 C44_8 1_555 1_555
C46_8 C45_8 1_555 1_555
H31_8 C46_8 1_555 1_555
C47_8 C46_8 1_555 1_555
H32_8 C47_8 1_555 1_555
C48_8 H33_8 1_555 1_555
H34_8 C48_8 1_555 1_555
H38_8 C50_8 1_555 1_555
C51_8 H39_8 1_555 1_555
H40_8 C51_8 1_555 1_555
C52_8 C15_8 1_555 1_555
C53_8 C48_8 1_555 1_555
N1_8 C28_8 1_555 1_555
Ni3_4 N1_8 1_555 1_555
O1_8 Ni3_4 1_555 1_555
H41_6 O1_8 1_555 1_555
O2_7 C1_7 1_555 1_555
O3_7 C1_7 1_555 1_555
O4_8 C52_8 1_555 1_555
O5_8 C52_8 1_555 1_555
O17_3 C27_8 1_555 1_555
O11_8 C18_8 1_555 1_555
O13_8 C45_8 1_555 1_555
O16_8 C30_8 1_555 1_555
H44_4 O1_8 1_555 1_555
C6_7 C7_7 1_555 1_555
C19_8 C20_8 1_555 1_555
C21_8 O11_8 1_555 1_555
C32_8 N1_8 1_555 1_555
C48_8 O13_8 1_555 1_555
C50_8 C53_8 1_555 1_555
C51_8 C53_8 1_555 1_555
C51_8 O16_8 1_555 1_555
Ni3_4 O2_7 1_555 1_555
Ni3_4 O4_8 1_555 1_555
Ni3_4 O5_8 1_555 1_555
C8_6 C9_6 1_555 1_555
C10_6 C9_6 1_555 1_555
C11_6 C10_6 1_555 1_555
C12_6 C11_6 1_555 1_555
H7_6 C12_6 1_555 1_555
C13_6 C8_6 1_555 1_555
H8_6 C13_6 1_555 1_555
C8_6 O12_6 1_555 1_555
C12_6 C13_6 1_555 1_555
C1_8 C2_8 1_555 1_555
C2_8 C3_8 1_555 1_555
C3_8 H1_8 1_555 1_555
C4_8 C3_8 1_555 1_555
H2_8 C4_8 1_555 1_555
C5_8 C4_8 1_555 1_555
C6_8 C5_8 1_555 1_555
H3_8 C6_8 1_555 1_555
C7_8 C2_8 1_555 1_555
H4_8 C7_8 1_555 1_555
C8_7 C9_7 1_555 1_555
C9_7 H5_8 1_555 1_555
C10_7 C9_7 1_555 1_555
C11_7 C10_7 1_555 1_555
C12_7 C11_7 1_555 1_555
H7_7 C12_7 1_555 1_555
C13_7 C8_7 1_555 1_555
H8_7 C13_7 1_555 1_555
O2_8 C1_8 1_555 1_555
O3_8 C1_8 1_555 1_555
O12_7 C5_8 1_555 1_555
C6_8 C7_8 1_555 1_555
C8_7 O12_7 1_555 1_555
C12_7 C13_7 1_555 1_555
C8_8 C9_8 1_555 1_555
C10_8 C9_8 1_555 1_555
C11_8 C10_8 1_555 1_555
C12_8 C11_8 1_555 1_555
H7_8 C12_8 1_555 1_555
C13_8 C8_8 1_555 1_555
H8_8 C13_8 1_555 1_555
C8_8 O12_8 1_555 1_555
C12_8 C13_8 1_555 1_555

#END
