
###############################################################################
#
# This file contains modified crystal structure data generated from the
# MOF subset of the Cambridge Structural Database (CSD) v543 
# hosted by the Cambridge Crystallographic Data Centre (CCDC).
#
# This work is licensed under the Creative Commons
# Attribution-NonCommercial-ShareAlike 4.0 International License.
# To view a copy of this license, visit
# http://creativecommons.org/licenses/by-nc-sa/4.0/
# or send a letter to
# Creative Commons, PO Box 1866, Mountain View, CA 94042, USA.
#
# CIF created using the CSD Python API on 29 September 2022
# The structure has been converted into the P1 space group
# The structure has a 3D framework
# The original CSD entry DUKXOY is in the monoclinic crystal system
# The framework has been calculated to contain at least 10.0% void space
# The void calculation uses a probe of radius 1.32A, grid spacing 0.4
#
###############################################################################

data_DUKXOY
_chemical_formula_moiety         '(C56 H48 Cd8 N28)n'
_symmetry_cell_setting           triclinic
_symmetry_space_group_name_H-M   'P 1'
_symmetry_Int_Tables_number      1
_space_group_name_Hall           'P 1'
loop_
_symmetry_equiv_pos_site_id
_symmetry_equiv_pos_as_xyz
1 x,y,z
_cell_length_a                   14.77452(98)
_cell_length_b                   15.2460(11)
_cell_length_c                   9.30985(69)
_cell_angle_alpha                90
_cell_angle_beta                 79.5039(58)
_cell_angle_gamma                90
_cell_volume                     2061.98
loop_
_atom_site_label
_atom_site_type_symbol
_atom_site_fract_x
_atom_site_fract_y
_atom_site_fract_z
_atom_site_U_iso_or_equiv
_atom_site_thermal_displace_type
C2 C 0.025503 0.351140 0.610146 0.0887 Uiso
N1 N 0.058035 0.258681 0.426483 0.0887 Uiso
N2 N 0.135430 0.270229 0.484090 0.0887 Uiso
C4 C 0.115324 0.327371 0.597600 0.0887 Uiso
H2 H 0.156750 0.347202 0.657593 0.0887 Uiso
C5 C 0.026210 0.496670 0.734153 0.0887 Uiso
C6 C 0.127783 0.510030 0.685820 0.0887 Uiso
H5 H 0.170625 0.467156 0.641595 0.0887 Uiso
N3 N 0.147775 0.594296 0.716428 0.0887 Uiso
N4 N 0.068038 0.634262 0.779166 0.0887 Uiso
Cd1 Cd 0.23950(41) 0.20348(26) 0.29949(59) 0.0633 Uiso
Cd2 Cd 0.00259(39) 0.23862(34) 0.22428(57) 0.0633 Uiso
C8 C 0.30335 0.57862 0.28032 0.0887 Uiso
C9 C 0.319536 0.481977 0.259093 0.0887 Uiso
C10 C 0.402655 0.442358 0.217511 0.0887 Uiso
H7 H 0.460659 0.471032 0.196809 0.0887 Uiso
N5 N 0.388158 0.354483 0.210769 0.0887 Uiso
N6 N 0.296079 0.339792 0.248184 0.0887 Uiso
C11 C 0.253668 0.418587 0.27805 0.0887 Uiso
H8 H 0.189329 0.427742 0.307061 0.0887 Uiso
H9 H 0.351753 0.605419 0.345887 0.0887 Uiso
H10 H 0.229959 0.590609 0.322984 0.0887 Uiso
C12 C 0.316575 0.628574 0.139232 0.0887 Uiso
C13 C 0.241670 0.658806 0.061657 0.0887 Uiso
H11 H 0.177525 0.649677 0.093256 0.0887 Uiso
C14 C 0.391595 0.657228 0.051947 0.0887 Uiso
H12 H 0.450563 0.646804 0.075573 0.0887 Uiso
N9 N 0.352225 0.094296 0.283572 0.0887 Uiso
Cd4 Cd 0.26050(41) 0.70348(26) 0.70051(59) 0.0633 Uiso
Cd7 Cd 0.50259(39) 0.26138(34) 0.22428(57) 0.0633 Uiso
N12 N 0.218293 0.201579 0.061857 0.0887 Uiso
N13 N 0.125634 0.200604 0.067858 0.0887 Uiso
N7 N 0.281707 0.701579 0.938143 0.0887 Uiso
N8 N 0.374366 0.700604 0.932142 0.0887 Uiso
Cd6 Cd 0.49741(39) 0.73862(34) 0.77572(57) 0.0633 Uiso
C1 C 0.97445 0.41327 0.72114 0.0887 Uiso
C3 C 0.990096 0.308687 0.504390 0.0887 Uiso
H1 H 0.928688 0.313175 0.487842 0.0887 Uiso
H3 H 0.908373 0.430941 0.690326 0.0887 Uiso
H4 H 0.970293 0.385453 0.831168 0.0887 Uiso
C7 C 0.998765 0.574697 0.787332 0.0887 Uiso
H6 H 0.935663 0.584927 0.826464 0.0887 Uiso
N10 N 0.931962 0.365738 0.220834 0.0887 Uiso
Cd5 Cd 0.99741(39) 0.76138(34) 0.77572(57) 0.0633 Uiso
N11 N 0.888158 0.145517 0.210769 0.0887 Uiso
C6_2 C 0.372217 0.010030 0.314180 0.0887 Uiso
N4_2 N 0.431962 0.134262 0.220834 0.0887 Uiso
C7_2 C 0.501235 0.074697 0.212668 0.0887 Uiso
H6_2 H 0.564337 0.084927 0.173536 0.0887 Uiso
C8_2 C 0.19665 0.07862 0.71968 0.0887 Uiso
H9_2 H 0.148247 0.105419 0.654113 0.0887 Uiso
H10_2 H 0.270041 0.090609 0.677016 0.0887 Uiso
C12_2 C 0.183425 0.128574 0.860768 0.0887 Uiso
C13_2 C 0.258330 0.158806 0.938343 0.0887 Uiso
H11_2 H 0.322475 0.149677 0.906744 0.0887 Uiso
C14_2 C 0.108405 0.157228 0.948053 0.0887 Uiso
H12_2 H 0.049437 0.146804 0.924427 0.0887 Uiso
C1_2 C 0.52555 0.91327 0.27886 0.0887 Uiso
C2_2 C 0.474497 0.851140 0.389854 0.0887 Uiso
C3_2 C 0.509904 0.808687 0.495610 0.0887 Uiso
H1_2 H 0.571312 0.813175 0.512158 0.0887 Uiso
N1_2 N 0.441965 0.758681 0.573517 0.0887 Uiso
N2_2 N 0.364570 0.770229 0.515910 0.0887 Uiso
C4_2 C 0.384676 0.827371 0.402400 0.0887 Uiso
H2_2 H 0.343250 0.847202 0.342407 0.0887 Uiso
H3_2 H 0.591627 0.930941 0.309674 0.0887 Uiso
H4_2 H 0.529707 0.885453 0.168832 0.0887 Uiso
C5_2 C 0.473790 0.996670 0.265847 0.0887 Uiso
H5_2 H 0.329375 0.967156 0.358405 0.0887 Uiso
C9_2 C 0.180464 0.981977 0.740907 0.0887 Uiso
C10_2 C 0.097345 0.942358 0.782489 0.0887 Uiso
H7_2 H 0.039341 0.971032 0.803191 0.0887 Uiso
N5_2 N 0.111842 0.854483 0.789231 0.0887 Uiso
N6_2 N 0.203921 0.839792 0.751816 0.0887 Uiso
C11_2 C 0.246332 0.918587 0.72195 0.0887 Uiso
H8_2 H 0.310671 0.927742 0.692939 0.0887 Uiso
N10_2 N 0.568038 0.865738 0.779166 0.0887 Uiso
N11_2 N 0.611842 0.645517 0.789231 0.0887 Uiso
C1_3 C 0.02555 0.58673 0.27886 0.0887 Uiso
C3_3 C 0.009904 0.691313 0.495610 0.0887 Uiso
H1_3 H 0.071312 0.686825 0.512158 0.0887 Uiso
H3_3 H 0.091627 0.569059 0.309674 0.0887 Uiso
H4_3 H 0.029707 0.614547 0.168832 0.0887 Uiso
C7_3 C 0.001235 0.425303 0.212668 0.0887 Uiso
H6_3 H 0.064337 0.415073 0.173536 0.0887 Uiso
N7_2 N 0.718293 0.298421 0.061857 0.0887 Uiso
N8_2 N 0.625634 0.299396 0.067858 0.0887 Uiso
Cd3 Cd 0.73950(41) 0.29652(26) 0.29949(59) 0.0633 Uiso
C2_3 C 0.974497 0.648860 0.389854 0.0887 Uiso
N1_3 N 0.941965 0.741319 0.573517 0.0887 Uiso
N2_3 N 0.864570 0.729771 0.515910 0.0887 Uiso
C4_3 C 0.884676 0.672629 0.402400 0.0887 Uiso
H2_3 H 0.843250 0.652798 0.342407 0.0887 Uiso
C5_3 C 0.973790 0.503330 0.265847 0.0887 Uiso
C6_3 C 0.872217 0.489970 0.314180 0.0887 Uiso
H5_3 H 0.829375 0.532844 0.358405 0.0887 Uiso
N3_2 N 0.852225 0.405704 0.283572 0.0887 Uiso
Cd1_2 Cd 0.76050(41) 0.79652(26) 0.70051(59) 0.0633 Uiso
C8_3 C 0.69665 0.42138 0.71968 0.0887 Uiso
C9_3 C 0.680464 0.518023 0.740907 0.0887 Uiso
C10_3 C 0.597345 0.557642 0.782489 0.0887 Uiso
H7_3 H 0.539341 0.528968 0.803191 0.0887 Uiso
N6_3 N 0.703921 0.660208 0.751816 0.0887 Uiso
C11_3 C 0.746332 0.581413 0.72195 0.0887 Uiso
H8_3 H 0.810671 0.572258 0.692939 0.0887 Uiso
H9_3 H 0.648247 0.394581 0.654113 0.0887 Uiso
H10_3 H 0.770041 0.409391 0.677016 0.0887 Uiso
C12_3 C 0.683425 0.371426 0.860768 0.0887 Uiso
C13_3 C 0.758330 0.341194 0.938343 0.0887 Uiso
H11_3 H 0.822475 0.350323 0.906744 0.0887 Uiso
C14_3 C 0.608405 0.342772 0.948053 0.0887 Uiso
H12_3 H 0.549437 0.353196 0.924427 0.0887 Uiso
N9_2 N 0.647775 0.905704 0.716428 0.0887 Uiso
N12_2 N 0.781707 0.798421 0.938143 0.0887 Uiso
N13_2 N 0.874366 0.799396 0.932142 0.0887 Uiso
C1_4 C 0.47445 0.08673 0.72114 0.0887 Uiso
C2_4 C 0.525503 0.148860 0.610146 0.0887 Uiso
C3_4 C 0.490096 0.191313 0.504390 0.0887 Uiso
H1_4 H 0.428688 0.186825 0.487842 0.0887 Uiso
N1_4 N 0.558035 0.241319 0.426483 0.0887 Uiso
N2_4 N 0.635430 0.229771 0.484090 0.0887 Uiso
C4_4 C 0.615324 0.172629 0.597600 0.0887 Uiso
H2_4 H 0.656750 0.152798 0.657593 0.0887 Uiso
H3_4 H 0.408373 0.069059 0.690326 0.0887 Uiso
H4_4 H 0.470293 0.114547 0.831168 0.0887 Uiso
C5_4 C 0.526210 0.003330 0.734153 0.0887 Uiso
H5_4 H 0.670625 0.032844 0.641595 0.0887 Uiso
C9_4 C 0.819536 0.018023 0.259093 0.0887 Uiso
C10_4 C 0.902655 0.057642 0.217511 0.0887 Uiso
H7_4 H 0.960659 0.028968 0.196809 0.0887 Uiso
N6_4 N 0.796079 0.160208 0.248184 0.0887 Uiso
C11_4 C 0.753668 0.081413 0.27805 0.0887 Uiso
H8_4 H 0.689329 0.072258 0.307061 0.0887 Uiso
C6_4 C 0.627783 0.989970 0.685820 0.0887 Uiso
C7_4 C 0.498765 0.925303 0.787332 0.0887 Uiso
H6_4 H 0.435663 0.915073 0.826464 0.0887 Uiso
C8_4 C 0.80335 0.92138 0.28032 0.0887 Uiso
H9_4 H 0.851753 0.894581 0.345887 0.0887 Uiso
H10_4 H 0.729959 0.909391 0.322984 0.0887 Uiso
C12_4 C 0.816575 0.871426 0.139232 0.0887 Uiso
C13_4 C 0.741670 0.841194 0.061657 0.0887 Uiso
H11_4 H 0.677525 0.850323 0.093256 0.0887 Uiso
C14_4 C 0.891595 0.842772 0.051947 0.0887 Uiso
H12_4 H 0.950563 0.853196 0.075573 0.0887 Uiso
loop_
_geom_bond_atom_site_label_1
_geom_bond_atom_site_label_2
_geom_bond_site_symmetry_1
_geom_bond_site_symmetry_2
N2 N1 1_555 1_555
C4 C2 1_555 1_555
H2 C4 1_555 1_555
C6 C5 1_555 1_555
H5 C6 1_555 1_555
N3 C6 1_555 1_555
N4 N3 1_555 1_555
Cd1 N2 1_555 1_555
Cd2 N1 1_555 1_555
C8 C9 1_555 1_555
C9 C10 1_555 1_555
C10 H7 1_555 1_555
N5 C10 1_555 1_555
N6 Cd1 1_555 1_555
C11 C9 1_555 1_555
H8 C11 1_555 1_555
H9 C8 1_555 1_555
H10 C8 1_555 1_555
C12 C8 1_555 1_555
C13 C12 1_555 1_555
H11 C13 1_555 1_555
C14 C12 1_555 1_555
H12 C14 1_555 1_555
N9 Cd1 1_555 1_555
Cd4 N3 1_555 1_555
Cd7 N5 1_555 1_555
N12 Cd1 1_555 1_555
N13 Cd2 1_555 1_555
N2 C4 1_555 1_555
N5 N6 1_555 1_555
N6 C11 1_555 1_555
N12 N13 1_555 1_555
N8 N7 1_555 1_555
Cd4 N7 1_555 1_555
Cd6 N8 1_555 1_555
C3 H1 1_555 1_555
H3 C1 1_555 1_555
H4 C1 1_555 1_555
H6 C7 1_555 1_555
N9 C6_2 1_555 1_555
N4_2 N9 1_555 1_555
H6_2 C7_2 1_555 1_555
H9_2 C8_2 1_555 1_555
H10_2 C8_2 1_555 1_555
C12_2 C8_2 1_555 1_555
C13_2 C12_2 1_555 1_555
H11_2 C13_2 1_555 1_555
C14_2 C12_2 1_555 1_555
H12_2 C14_2 1_555 1_555
Cd7 N4_2 1_555 1_555
N4_2 C7_2 1_555 1_555
C1_2 C2_2 1_555 1_555
C2_2 C3_2 1_555 1_555
C3_2 H1_2 1_555 1_555
N1_2 C3_2 1_555 1_555
N2_2 N1_2 1_555 1_555
C4_2 C2_2 1_555 1_555
H2_2 C4_2 1_555 1_555
H3_2 C1_2 1_555 1_555
H4_2 C1_2 1_555 1_555
C5_2 C1_2 1_555 1_555
Cd4 N2_2 1_555 1_555
Cd6 N1_2 1_555 1_555
C9_2 C10_2 1_555 1_555
C10_2 H7_2 1_555 1_555
N5_2 C10_2 1_555 1_555
N6_2 Cd4 1_555 1_555
C11_2 C9_2 1_555 1_555
H8_2 C11_2 1_555 1_555
N10_2 Cd6 1_555 1_555
N11_2 Cd6 1_555 1_555
N2_2 C4_2 1_555 1_555
N5_2 N6_2 1_555 1_555
N6_2 C11_2 1_555 1_555
C3_3 H1_3 1_555 1_555
H3_3 C1_3 1_555 1_555
H4_3 C1_3 1_555 1_555
H6_3 C7_3 1_555 1_555
N8_2 N7_2 1_555 1_555
Cd3 N7_2 1_555 1_555
Cd7 N8_2 1_555 1_555
N2_3 N1_3 1_555 1_555
C4_3 C2_3 1_555 1_555
H2_3 C4_3 1_555 1_555
C6_3 C5_3 1_555 1_555
H5_3 C6_3 1_555 1_555
N3_2 C6_3 1_555 1_555
N10 N3_2 1_555 1_555
Cd1_2 N2_3 1_555 1_555
Cd5 N1_3 1_555 1_555
C8_3 C9_3 1_555 1_555
C9_3 C10_3 1_555 1_555
C10_3 H7_3 1_555 1_555
N11_2 C10_3 1_555 1_555
N6_3 Cd1_2 1_555 1_555
C11_3 C9_3 1_555 1_555
H8_3 C11_3 1_555 1_555
H9_3 C8_3 1_555 1_555
H10_3 C8_3 1_555 1_555
C12_3 C8_3 1_555 1_555
C13_3 C12_3 1_555 1_555
H11_3 C13_3 1_555 1_555
C14_3 C12_3 1_555 1_555
H12_3 C14_3 1_555 1_555
N9_2 Cd1_2 1_555 1_555
Cd3 N3_2 1_555 1_555
N12_2 Cd1_2 1_555 1_555
N13_2 Cd5 1_555 1_555
N2_3 C4_3 1_555 1_555
N11_2 N6_3 1_555 1_555
N6_3 C11_3 1_555 1_555
N12_2 N13_2 1_555 1_555
C1_4 C2_4 1_555 1_555
C2_4 C3_4 1_555 1_555
C3_4 H1_4 1_555 1_555
N1_4 C3_4 1_555 1_555
N2_4 N1_4 1_555 1_555
C4_4 C2_4 1_555 1_555
H2_4 C4_4 1_555 1_555
H3_4 C1_4 1_555 1_555
H4_4 C1_4 1_555 1_555
C5_4 C1_4 1_555 1_555
Cd3 N2_4 1_555 1_555
Cd7 N1_4 1_555 1_555
C9_4 C10_4 1_555 1_555
C10_4 H7_4 1_555 1_555
N11 C10_4 1_555 1_555
N6_4 Cd3 1_555 1_555
C11_4 C9_4 1_555 1_555
H8_4 C11_4 1_555 1_555
N2_4 C4_4 1_555 1_555
N11 N6_4 1_555 1_555
N6_4 C11_4 1_555 1_555
N9_2 C6_4 1_555 1_555
N10_2 N9_2 1_555 1_555
H6_4 C7_4 1_555 1_555
H9_4 C8_4 1_555 1_555
H10_4 C8_4 1_555 1_555
C12_4 C8_4 1_555 1_555
C13_4 C12_4 1_555 1_555
H11_4 C13_4 1_555 1_555
C14_4 C12_4 1_555 1_555
H12_4 C14_4 1_555 1_555
N10_2 C7_4 1_555 1_555

#END
