
###############################################################################
#
# This file contains modified crystal structure data generated from the
# MOF subset of the Cambridge Structural Database (CSD) v543 
# hosted by the Cambridge Crystallographic Data Centre (CCDC).
#
# This work is licensed under the Creative Commons
# Attribution-NonCommercial-ShareAlike 4.0 International License.
# To view a copy of this license, visit
# http://creativecommons.org/licenses/by-nc-sa/4.0/
# or send a letter to
# Creative Commons, PO Box 1866, Mountain View, CA 94042, USA.
#
# CIF created using the CSD Python API on 29 September 2022
# The structure has been converted into the P1 space group
# The structure has a 3D framework
# The original CSD entry DUKYIT is in the tetragonal crystal system
# The framework has been calculated to contain at least 10.0% void space
# The void calculation uses a probe of radius 1.32A, grid spacing 0.4
#
###############################################################################

data_DUKYIT
_chemical_formula_moiety         '(C72 H64 Co1 N16)n'
_symmetry_cell_setting           triclinic
_symmetry_space_group_name_H-M   'P 1'
_symmetry_Int_Tables_number      1
_space_group_name_Hall           'P 1'
loop_
_symmetry_equiv_pos_site_id
_symmetry_equiv_pos_as_xyz
1 x,y,z
_cell_length_a                   18.60188(63)
_cell_length_b                   18.60188(63)
_cell_length_c                   7.27449(48)
_cell_angle_alpha                90
_cell_angle_beta                 90
_cell_angle_gamma                90
_cell_volume                     2517.19
loop_
_atom_site_label
_atom_site_type_symbol
_atom_site_fract_x
_atom_site_fract_y
_atom_site_fract_z
_atom_site_U_iso_or_equiv
_atom_site_thermal_displace_type
Co1 Co 0.250 0.250 0.250 0.0269 Uiso
C1 C 0.050302 0.002536 0.141151 0.0522 Uiso
C2 C 0.052838 0.052837 0.000 0.0522 Uiso
C3 C 0.109857 0.109856 0.000 0.0522 Uiso
C4 C 0.158812 0.121675 0.135526 0.0522 Uiso
N1 N 0.200887 0.177934 0.083759 0.0522 Uiso
H1 H 0.084681 0.004268 0.237621 0.0522 Uiso
C5 C 0.165052 0.081373 0.305377 0.0522 Uiso
H2 H 0.139439 0.028475 0.288686 0.0522 Uiso
H3 H 0.222191 0.074062 0.339540 0.0522 Uiso
H4 H 0.138266 0.110962 0.416952 0.0522 Uiso
N5 N 0.299113 0.322066 0.083759 0.0522 Uiso
N6 N 0.299113 0.177934 0.416241 0.0522 Uiso
N7 N 0.200887 0.322066 0.416241 0.0522 Uiso
C2_2 C 0.052838 0.052837 1.000 0.0522 Uiso
C3_2 C 0.109857 0.109856 1.000 0.0522 Uiso
C11 C 0.002536 0.050302 0.858849 0.0522 Uiso
C12 C 0.121675 0.158812 0.864474 0.0522 Uiso
N3 N 0.177934 0.200887 0.916241 0.0522 Uiso
H9 H 0.004268 0.084681 0.762379 0.0522 Uiso
C13 C 0.081373 0.165052 0.694623 0.0522 Uiso
H10 H 0.028475 0.139439 0.711314 0.0522 Uiso
H11 H 0.074062 0.222191 0.660460 0.0522 Uiso
H12 H 0.110962 0.138266 0.583048 0.0522 Uiso
Co4 Co 0.250 0.250 0.750 0.0269 Uiso
C6 C 0.997464 0.949698 0.141151 0.0522 Uiso
C7 C 0.947162 0.947163 0.000 0.0522 Uiso
C8 C 0.890143 0.890144 0.000 0.0522 Uiso
C9 C 0.878325 0.841188 0.135526 0.0522 Uiso
N2 N 0.822066 0.799113 0.083759 0.0522 Uiso
H5 H 0.995732 0.915319 0.237621 0.0522 Uiso
C10 C 0.918627 0.834948 0.305377 0.0522 Uiso
H6 H 0.971525 0.860561 0.288686 0.0522 Uiso
H7 H 0.925938 0.777809 0.339540 0.0522 Uiso
H8 H 0.889038 0.861734 0.416952 0.0522 Uiso
Co3 Co 0.750 0.750 0.250 0.0269 Uiso
C7_2 C 0.947162 0.947163 1.000 0.0522 Uiso
C8_2 C 0.890143 0.890144 1.000 0.0522 Uiso
C14 C 0.949698 0.997464 0.858849 0.0522 Uiso
C15 C 0.841188 0.878325 0.864474 0.0522 Uiso
N4 N 0.799113 0.822066 0.916241 0.0522 Uiso
H13 H 0.915319 0.995732 0.762379 0.0522 Uiso
C16 C 0.834948 0.918627 0.694623 0.0522 Uiso
H14 H 0.860561 0.971525 0.711314 0.0522 Uiso
H15 H 0.777809 0.925938 0.660460 0.0522 Uiso
H16 H 0.861734 0.889038 0.583048 0.0522 Uiso
Co2 Co 0.750 0.750 0.750 0.0269 Uiso
C1_2 C 0.449698 0.497464 0.141151 0.0522 Uiso
C2_3 C 0.447162 0.447163 0.000 0.0522 Uiso
C3_3 C 0.390143 0.390144 0.000 0.0522 Uiso
C4_2 C 0.341188 0.378325 0.135526 0.0522 Uiso
H1_2 H 0.415319 0.495732 0.237621 0.0522 Uiso
C5_2 C 0.334948 0.418627 0.305377 0.0522 Uiso
H2_2 H 0.360561 0.471525 0.288686 0.0522 Uiso
H3_2 H 0.277809 0.425938 0.339540 0.0522 Uiso
H4_2 H 0.361734 0.389038 0.416952 0.0522 Uiso
C6_2 C 0.502536 0.550302 0.141151 0.0522 Uiso
C7_3 C 0.552838 0.552837 0.000 0.0522 Uiso
C8_3 C 0.609857 0.609856 0.000 0.0522 Uiso
C9_2 C 0.621675 0.658812 0.135526 0.0522 Uiso
N2_2 N 0.677934 0.700887 0.083759 0.0522 Uiso
H5_2 H 0.504268 0.584681 0.237621 0.0522 Uiso
C10_2 C 0.581373 0.665052 0.305377 0.0522 Uiso
H6_2 H 0.528475 0.639439 0.288686 0.0522 Uiso
H7_2 H 0.574062 0.722191 0.339540 0.0522 Uiso
H8_2 H 0.610962 0.638266 0.416952 0.0522 Uiso
C2_4 C 0.447162 0.447163 1.000 0.0522 Uiso
C3_4 C 0.390143 0.390144 1.000 0.0522 Uiso
C7_4 C 0.552838 0.552837 1.000 0.0522 Uiso
C8_4 C 0.609857 0.609856 1.000 0.0522 Uiso
C11_2 C 0.497464 0.449698 0.858849 0.0522 Uiso
C12_2 C 0.378325 0.341188 0.864474 0.0522 Uiso
N3_2 N 0.322066 0.299113 0.916241 0.0522 Uiso
H9_2 H 0.495732 0.415319 0.762379 0.0522 Uiso
C13_2 C 0.418627 0.334948 0.694623 0.0522 Uiso
H10_2 H 0.471525 0.360561 0.711314 0.0522 Uiso
H11_2 H 0.425938 0.277809 0.660460 0.0522 Uiso
H12_2 H 0.389038 0.361734 0.583048 0.0522 Uiso
C14_2 C 0.550302 0.502536 0.858849 0.0522 Uiso
C15_2 C 0.658812 0.621675 0.864474 0.0522 Uiso
N4_2 N 0.700887 0.677934 0.916241 0.0522 Uiso
H13_2 H 0.584681 0.504268 0.762379 0.0522 Uiso
C16_2 C 0.665052 0.581373 0.694623 0.0522 Uiso
H14_2 H 0.639439 0.528475 0.711314 0.0522 Uiso
H15_2 H 0.722191 0.574062 0.660460 0.0522 Uiso
H16_2 H 0.638266 0.610962 0.583048 0.0522 Uiso
C1_3 C 0.449698 0.002536 0.358849 0.0522 Uiso
C2_5 C 0.447162 0.052837 0.500 0.0522 Uiso
C3_5 C 0.390143 0.109856 0.500 0.0522 Uiso
C4_3 C 0.341188 0.121675 0.364474 0.0522 Uiso
H1_3 H 0.415319 0.004268 0.262379 0.0522 Uiso
C5_3 C 0.334948 0.081373 0.194623 0.0522 Uiso
H2_3 H 0.360561 0.028475 0.211314 0.0522 Uiso
H3_3 H 0.277809 0.074062 0.160460 0.0522 Uiso
H4_3 H 0.361734 0.110962 0.083048 0.0522 Uiso
C11_3 C 0.497464 0.050302 0.641151 0.0522 Uiso
C12_3 C 0.378325 0.158812 0.635526 0.0522 Uiso
N3_3 N 0.322066 0.200887 0.583759 0.0522 Uiso
H9_3 H 0.495732 0.084681 0.737621 0.0522 Uiso
C13_3 C 0.418627 0.165052 0.805377 0.0522 Uiso
H10_3 H 0.471525 0.139439 0.788686 0.0522 Uiso
H11_3 H 0.425938 0.222191 0.839540 0.0522 Uiso
H12_3 H 0.389038 0.138266 0.916952 0.0522 Uiso
C6_3 C 0.502536 0.949698 0.358849 0.0522 Uiso
C7_5 C 0.552838 0.947163 0.500 0.0522 Uiso
C8_5 C 0.609857 0.890144 0.500 0.0522 Uiso
C9_3 C 0.621675 0.841188 0.364474 0.0522 Uiso
N2_3 N 0.677934 0.799113 0.416241 0.0522 Uiso
H5_3 H 0.504268 0.915319 0.262379 0.0522 Uiso
C10_3 C 0.581373 0.834948 0.194623 0.0522 Uiso
H6_3 H 0.528475 0.860561 0.211314 0.0522 Uiso
H7_3 H 0.574062 0.777809 0.160460 0.0522 Uiso
H8_3 H 0.610962 0.861734 0.083048 0.0522 Uiso
C14_3 C 0.550302 0.997464 0.641151 0.0522 Uiso
C15_3 C 0.658812 0.878325 0.635526 0.0522 Uiso
N4_3 N 0.700887 0.822066 0.583759 0.0522 Uiso
H13_3 H 0.584681 0.995732 0.737621 0.0522 Uiso
C16_3 C 0.665052 0.918627 0.805377 0.0522 Uiso
H14_3 H 0.639439 0.971525 0.788686 0.0522 Uiso
H15_3 H 0.722191 0.925938 0.839540 0.0522 Uiso
H16_3 H 0.638266 0.889038 0.916952 0.0522 Uiso
N7_2 N 0.177934 0.299113 0.583759 0.0522 Uiso
C1_4 C 0.002536 0.449698 0.641151 0.0522 Uiso
C2_6 C 0.052837 0.447162 0.500 0.0522 Uiso
C3_6 C 0.109856 0.390143 0.500 0.0522 Uiso
C4_4 C 0.121675 0.341188 0.635526 0.0522 Uiso
H1_4 H 0.004268 0.415319 0.737621 0.0522 Uiso
C5_4 C 0.081373 0.334948 0.805377 0.0522 Uiso
H2_4 H 0.028475 0.360561 0.788686 0.0522 Uiso
H3_4 H 0.074062 0.277809 0.839540 0.0522 Uiso
H4_4 H 0.110962 0.361734 0.916952 0.0522 Uiso
C11_4 C 0.050302 0.497464 0.358849 0.0522 Uiso
C12_4 C 0.158812 0.378325 0.364474 0.0522 Uiso
H9_4 H 0.084681 0.495732 0.262379 0.0522 Uiso
C13_4 C 0.165052 0.418627 0.194623 0.0522 Uiso
H10_4 H 0.139439 0.471525 0.211314 0.0522 Uiso
H11_4 H 0.222191 0.425938 0.160460 0.0522 Uiso
H12_4 H 0.138266 0.389038 0.083048 0.0522 Uiso
C6_4 C 0.949698 0.502536 0.641151 0.0522 Uiso
C7_6 C 0.947163 0.552838 0.500 0.0522 Uiso
C8_6 C 0.890144 0.609857 0.500 0.0522 Uiso
C9_4 C 0.841188 0.621675 0.635526 0.0522 Uiso
N2_4 N 0.799113 0.677934 0.583759 0.0522 Uiso
H5_4 H 0.915319 0.504268 0.737621 0.0522 Uiso
C10_4 C 0.834948 0.581373 0.805377 0.0522 Uiso
H6_4 H 0.860561 0.528475 0.788686 0.0522 Uiso
H7_4 H 0.777809 0.574062 0.839540 0.0522 Uiso
H8_4 H 0.861734 0.610962 0.916952 0.0522 Uiso
C14_4 C 0.997464 0.550302 0.358849 0.0522 Uiso
C15_4 C 0.878325 0.658812 0.364474 0.0522 Uiso
N4_4 N 0.822066 0.700887 0.416241 0.0522 Uiso
H13_4 H 0.995732 0.584681 0.262379 0.0522 Uiso
C16_4 C 0.918627 0.665052 0.194623 0.0522 Uiso
H14_4 H 0.971525 0.639439 0.211314 0.0522 Uiso
H15_4 H 0.925938 0.722191 0.160460 0.0522 Uiso
H16_4 H 0.889038 0.638266 0.083048 0.0522 Uiso
loop_
_geom_bond_atom_site_label_1
_geom_bond_atom_site_label_2
_geom_bond_site_symmetry_1
_geom_bond_site_symmetry_2
Co1 N1 1_555 1_555
C1 C2 1_555 1_555
C2 C3 1_555 1_555
C3 C4 1_555 1_555
C4 N1 1_555 1_555
H1 C1 1_555 1_555
C5 C4 1_555 1_555
H2 C5 1_555 1_555
H3 C5 1_555 1_555
H4 C5 1_555 1_555
N5 Co1 1_555 1_555
N6 Co1 1_555 1_555
N7 Co1 1_555 1_555
C2_2 C3_2 1_555 1_555
C11 C2_2 1_555 1_555
C12 C3_2 1_555 1_555
N3 C12 1_555 1_555
H9 C11 1_555 1_555
C13 C12 1_555 1_555
H10 C13 1_555 1_555
H11 C13 1_555 1_555
H12 C13 1_555 1_555
Co4 N3 1_555 1_555
C7 C6 1_555 1_555
C8 C7 1_555 1_555
C9 C8 1_555 1_555
N2 C9 1_555 1_555
H5 C6 1_555 1_555
C10 C9 1_555 1_555
H6 C10 1_555 1_555
H7 C10 1_555 1_555
H8 C10 1_555 1_555
Co3 N2 1_555 1_555
C8_2 C7_2 1_555 1_555
C14 C7_2 1_555 1_555
C15 C8_2 1_555 1_555
H13 C14 1_555 1_555
C16 C15 1_555 1_555
H14 C16 1_555 1_555
H15 C16 1_555 1_555
H16 C16 1_555 1_555
Co2 N4 1_555 1_555
C15 N4 1_555 1_555
C1_2 C2_3 1_555 1_555
C2_3 C3_3 1_555 1_555
C3_3 C4_2 1_555 1_555
C4_2 N5 1_555 1_555
H1_2 C1_2 1_555 1_555
C5_2 C4_2 1_555 1_555
H2_2 C5_2 1_555 1_555
H3_2 C5_2 1_555 1_555
H4_2 C5_2 1_555 1_555
C6_2 C1_2 1_555 1_555
C7_3 C6_2 1_555 1_555
C8_3 C7_3 1_555 1_555
C9_2 C8_3 1_555 1_555
N2_2 C9_2 1_555 1_555
H5_2 C6_2 1_555 1_555
C10_2 C9_2 1_555 1_555
H6_2 C10_2 1_555 1_555
H7_2 C10_2 1_555 1_555
H8_2 C10_2 1_555 1_555
Co3 N2_2 1_555 1_555
C2_4 C3_4 1_555 1_555
C8_4 C7_4 1_555 1_555
C11_2 C2_4 1_555 1_555
C12_2 C3_4 1_555 1_555
N3_2 C12_2 1_555 1_555
H9_2 C11_2 1_555 1_555
C13_2 C12_2 1_555 1_555
H10_2 C13_2 1_555 1_555
H11_2 C13_2 1_555 1_555
H12_2 C13_2 1_555 1_555
C14_2 C7_4 1_555 1_555
C15_2 C8_4 1_555 1_555
H13_2 C14_2 1_555 1_555
C16_2 C15_2 1_555 1_555
H14_2 C16_2 1_555 1_555
H15_2 C16_2 1_555 1_555
H16_2 C16_2 1_555 1_555
Co2 N4_2 1_555 1_555
Co4 N3_2 1_555 1_555
C11_2 C14_2 1_555 1_555
C15_2 N4_2 1_555 1_555
C1_3 C2_5 1_555 1_555
C2_5 C3_5 1_555 1_555
C3_5 C4_3 1_555 1_555
C4_3 N6 1_555 1_555
N6 N3_3 1_555 1_555
H1_3 C1_3 1_555 1_555
C5_3 C4_3 1_555 1_555
H2_3 C5_3 1_555 1_555
H3_3 C5_3 1_555 1_555
H4_3 C5_3 1_555 1_555
C11_3 C2_5 1_555 1_555
C12_3 C3_5 1_555 1_555
N3_3 C12_3 1_555 1_555
H9_3 C11_3 1_555 1_555
C13_3 C12_3 1_555 1_555
H10_3 C13_3 1_555 1_555
H11_3 C13_3 1_555 1_555
H12_3 C13_3 1_555 1_555
Co4 N3_3 1_555 1_555
C7_5 C6_3 1_555 1_555
C8_5 C7_5 1_555 1_555
C9_3 C8_5 1_555 1_555
N2_3 C9_3 1_555 1_555
H5_3 C6_3 1_555 1_555
C10_3 C9_3 1_555 1_555
H6_3 C10_3 1_555 1_555
H7_3 C10_3 1_555 1_555
H8_3 C10_3 1_555 1_555
C14_3 C7_5 1_555 1_555
C15_3 C8_5 1_555 1_555
N4_3 N2_3 1_555 1_555
H13_3 C14_3 1_555 1_555
C16_3 C15_3 1_555 1_555
H14_3 C16_3 1_555 1_555
H15_3 C16_3 1_555 1_555
H16_3 C16_3 1_555 1_555
Co2 N4_3 1_555 1_555
Co3 N2_3 1_555 1_555
C15_3 N4_3 1_555 1_555
N7_2 Co4 1_555 1_555
C1_4 C2_6 1_555 1_555
C2_6 C3_6 1_555 1_555
C3_6 C4_4 1_555 1_555
C4_4 N7_2 1_555 1_555
N7_2 N7 1_555 1_555
H1_4 C1_4 1_555 1_555
C5_4 C4_4 1_555 1_555
H2_4 C5_4 1_555 1_555
H3_4 C5_4 1_555 1_555
H4_4 C5_4 1_555 1_555
C11_4 C2_6 1_555 1_555
C12_4 C3_6 1_555 1_555
N7 C12_4 1_555 1_555
H9_4 C11_4 1_555 1_555
C13_4 C12_4 1_555 1_555
H10_4 C13_4 1_555 1_555
H11_4 C13_4 1_555 1_555
H12_4 C13_4 1_555 1_555
C7_6 C6_4 1_555 1_555
C8_6 C7_6 1_555 1_555
C9_4 C8_6 1_555 1_555
N2_4 C9_4 1_555 1_555
H5_4 C6_4 1_555 1_555
C10_4 C9_4 1_555 1_555
H6_4 C10_4 1_555 1_555
H7_4 C10_4 1_555 1_555
H8_4 C10_4 1_555 1_555
C14_4 C7_6 1_555 1_555
C15_4 C8_6 1_555 1_555
N4_4 N2_4 1_555 1_555
H13_4 C14_4 1_555 1_555
C16_4 C15_4 1_555 1_555
H14_4 C16_4 1_555 1_555
H15_4 C16_4 1_555 1_555
H16_4 C16_4 1_555 1_555
Co3 N4_4 1_555 1_555
Co2 N2_4 1_555 1_555
C15_4 N4_4 1_555 1_555

#END
