
###############################################################################
#
# This file contains modified crystal structure data generated from the
# MOF subset of the Cambridge Structural Database (CSD) v543 
# hosted by the Cambridge Crystallographic Data Centre (CCDC).
#
# This work is licensed under the Creative Commons
# Attribution-NonCommercial-ShareAlike 4.0 International License.
# To view a copy of this license, visit
# http://creativecommons.org/licenses/by-nc-sa/4.0/
# or send a letter to
# Creative Commons, PO Box 1866, Mountain View, CA 94042, USA.
#
# CIF created using the CSD Python API on 29 September 2022
# The structure has been converted into the P1 space group
# The structure has a 3D framework
# The original CSD entry DULJOM is in the orthorhombic crystal system
# The framework has been calculated to contain at least 10.0% void space
# The void calculation uses a probe of radius 1.32A, grid spacing 0.4
#
###############################################################################

data_DULJOM
_chemical_formula_moiety         '(C248 H168 Cu5 N16 O44)n'
_symmetry_cell_setting           triclinic
_symmetry_space_group_name_H-M   'P 1'
_symmetry_Int_Tables_number      1
_space_group_name_Hall           'P 1'
loop_
_symmetry_equiv_pos_site_id
_symmetry_equiv_pos_as_xyz
1 x,y,z
_cell_length_a                   9.8095(15)
_cell_length_b                   25.233(4)
_cell_length_c                   23.668(4)
_cell_angle_alpha                90
_cell_angle_beta                 90
_cell_angle_gamma                90
_cell_volume                     5858.38
loop_
_atom_site_label
_atom_site_type_symbol
_atom_site_fract_x
_atom_site_fract_y
_atom_site_fract_z
C35 C 0.5796(15) 0.0237(5) 0.5983(6)
H24 H 0.5866 0.0460 0.5671
C36 C 0.6864(13) 0.0199(4) 0.6347(5)
H25 H 0.7573 0.0441 0.6309
C37 C 0.3500(10) 0.0040(5) 0.5682(5)
H26 H 0.3657 0.0293 0.5404
C40 C 0.1147(8) 0.0258(3) 0.4853(4)
H27 H 0.1922 0.0442 0.4742
C29 C 0.0058(9) 0.9682(3) 0.5443(3)
H19 H 0.0064 0.9456 0.5753
N3 N 0.6959(5) 0.98424(18) 0.6749(2)
C32 C 0.5911(9) 0.9579(4) 0.6806(4)
H22 H 0.5895 0.9328 0.7094
C33 C 0.4743(9) 0.9627(4) 0.6470(5)
H23 H 0.4004 0.9408 0.6548
C34 C 0.4639(8) 0.9959(4) 0.6062(3)
C38 C 0.2402(10) 0.9842(3) 0.5661(4)
C39 C 0.1199(6) 0.9928(3) 0.5309(3)
H29 H 0.2281 0.9570 0.5924
Cu3 Cu 0.87910(6) 0.97789(2) 0.72366(2)
Cu1 Cu 0.12090(6) 0.02211(2) 0.27634(2)
N1 N 0.3041(5) 0.01576(18) 0.3251(2)
C20 C 0.4089(9) 0.0421(4) 0.3194(4)
H13 H 0.4105 0.0672 0.2906
C21 C 0.5257(9) 0.0373(4) 0.3530(5)
H14 H 0.5996 0.0592 0.3452
C22 C 0.5361(8) 0.0041(4) 0.3938(3)
C26 C 0.7598(10) 0.0158(3) 0.4339(4)
C27 C 0.8801(6) 0.0072(3) 0.4691(3)
H21 H 0.7719 0.0430 0.4076
C41 C 0.9942(9) 0.0318(3) 0.4557(3)
H28 H 0.9936 0.0544 0.4247
O13 O 0.1603(4) 0.07725(15) 0.21836(16)
O16 O 0.0461(4) 0.07868(14) 0.32139(15)
O3 O 0.0205(4) 0.96793(14) 0.32240(15)
H8 H 0.0012 0.9074 0.4065
C23 C 0.4204(15) 0.9763(5) 0.4017(6)
H15 H 0.4134 0.9540 0.4329
C24 C 0.3136(13) 0.9801(4) 0.3653(5)
H16 H 0.2427 0.9559 0.3691
C25 C 0.6500(10) 0.9960(5) 0.4318(5)
H17 H 0.6343 0.9707 0.4596
C28 C 0.8853(8) 0.9742(3) 0.5147(4)
H18 H 0.8078 0.9558 0.5258
O7 O 0.3397(4) 0.57725(15) 0.21836(16)
O8 O 0.1760(5) 0.96694(15) 0.22496(16)
O10 O 0.5461(4) 0.57868(14) 0.17861(15)
N4 N 0.2901(6) 0.77808(17) 0.0555(2)
C42 C 0.4291(6) 0.59641(19) 0.1853(2)
C43 C 0.3904(5) 0.6435(2) 0.1506(2)
C44 C 0.2658(7) 0.6675(2) 0.1571(3)
H31 H 0.2029 0.6543 0.1829
C45 C 0.4823(6) 0.6644(2) 0.1120(2)
H32 H 0.5672 0.6485 0.1077
C46 C 0.4504(7) 0.7078(2) 0.0802(3)
H33 H 0.5130 0.7209 0.0542
C47 C 0.0941(6) 0.9502(2) 0.1874(2)
C48 C 0.1476(6) 0.9060(2) 0.1512(2)
C49 C 0.2664(7) 0.8809(2) 0.1652(3)
H34 H 0.3159 0.8918 0.1966
C50 C 0.3133(7) 0.8389(2) 0.1321(3)
H35 H 0.3941 0.8220 0.1418
C51 C 0.2436(7) 0.8224(2) 0.0863(2)
C52 C 0.1241(6) 0.8479(2) 0.0719(3)
H36 H 0.0746 0.8367 0.0406
C53 C 0.0781(7) 0.8898(2) 0.1040(2)
C61 C 0.3250(7) 0.7322(2) 0.0865(2)
C62 C 0.2344(7) 0.7119(2) 0.1247(3)
H42 H 0.1499 0.7280 0.1291
Cu5 Cu 0.62090(6) 0.52211(2) 0.22366(2)
Cu7 Cu 0.37910(6) 0.52211(2) 0.27634(2)
Cu2 Cu 0.87910(6) 0.02211(2) 0.22366(2)
O14 O 0.8397(4) 0.07725(15) 0.28164(16)
O15 O 0.9539(4) 0.07868(14) 0.17861(15)
N5 N 0.6959(5) 0.01576(18) 0.1749(2)
O1 O 0.6603(4) 0.57725(15) 0.28164(16)
O2 O 0.8240(5) 0.96694(15) 0.27504(16)
O4 O 0.4539(4) 0.57868(14) 0.32139(15)
O5 O 0.5634(6) 0.8263(2) 0.7011(2)
O6 O 0.5740(7) 0.7389(2) 0.7021(2)
H1 H 0.5282 0.7430 0.7307
N2 N 0.7099(6) 0.77808(17) 0.4445(2)
C1 C 0.5709(6) 0.59641(19) 0.3147(2)
C2 C 0.6096(5) 0.6435(2) 0.3494(2)
C3 C 0.7342(7) 0.6675(2) 0.3429(3)
H2 H 0.7971 0.6543 0.3171
C4 C 0.5177(6) 0.6644(2) 0.3880(2)
H3 H 0.4328 0.6485 0.3923
C5 C 0.5496(7) 0.7078(2) 0.4198(3)
H4 H 0.4870 0.7209 0.4458
C6 C 0.9059(6) 0.9502(2) 0.3126(2)
C7 C 0.8524(6) 0.9060(2) 0.3488(2)
C8 C 0.7336(7) 0.8809(2) 0.3348(3)
H5 H 0.6841 0.8918 0.3034
C9 C 0.6867(7) 0.8389(2) 0.3679(3)
H6 H 0.6059 0.8220 0.3582
C10 C 0.7564(7) 0.8224(2) 0.4137(2)
C11 C 0.8759(6) 0.8479(2) 0.4281(3)
H7 H 0.9254 0.8367 0.4594
C12 C 0.9219(7) 0.8898(2) 0.3960(2)
C13 C 0.6904(7) 0.7804(2) 0.5027(2)
C14 C 0.6623(7) 0.8279(3) 0.5302(3)
H9 H 0.6603 0.8594 0.5098
C15 C 0.6376(7) 0.8284(3) 0.5872(3)
H10 H 0.6225 0.8606 0.6054
C16 C 0.6347(7) 0.7821(3) 0.6182(3)
C17 C 0.6648(8) 0.7353(3) 0.5931(3)
H11 H 0.6668 0.7041 0.6140
C18 C 0.6930(8) 0.7347(2) 0.5350(3)
H12 H 0.7140 0.7026 0.5177
C19 C 0.5905(8) 0.7832(3) 0.6779(3)
C30 C 0.6750(7) 0.7322(2) 0.4135(2)
C31 C 0.7656(7) 0.7119(2) 0.3753(3)
H20 H 0.8501 0.7280 0.3709
O9 O 0.9795(4) 0.96793(14) 0.17760(15)
H37 H 0.9988 0.9074 0.0935
O4_2 O 0.0461(4) 0.92132(14) 0.82139(15)
H3_2 H 0.0672 0.8515 0.8923
H4_2 H 0.0130 0.7791 0.9458
Cu6 Cu 0.12090(6) 0.97789(2) 0.77634(2)
Cu1_2 Cu 0.37910(6) 0.47789(2) 0.77634(2)
O1_2 O 0.8397(4) 0.92275(15) 0.78164(16)
O2_2 O 0.6760(5) 0.53306(15) 0.77504(16)
O3_2 O 0.4795(4) 0.53207(14) 0.82240(15)
N1_2 N 0.1959(5) 0.48424(18) 0.8251(2)
N2_2 N 0.7901(6) 0.72192(17) 0.9445(2)
C1_2 C 0.9291(6) 0.90359(19) 0.8147(2)
C2_2 C 0.8904(5) 0.8565(2) 0.8494(2)
C3_2 C 0.7658(7) 0.8325(2) 0.8429(3)
H2_2 H 0.7029 0.8457 0.8171
C4_2 C 0.9823(6) 0.8356(2) 0.8880(2)
C5_2 C 0.9504(7) 0.7922(2) 0.9198(3)
C6_2 C 0.5941(6) 0.5498(2) 0.8126(2)
C7_2 C 0.6476(6) 0.5940(2) 0.8488(2)
C8_2 C 0.7664(7) 0.6191(2) 0.8348(3)
H5_2 H 0.8159 0.6082 0.8034
C9_2 C 0.8133(7) 0.6611(2) 0.8679(3)
H6_2 H 0.8941 0.6780 0.8582
C10_2 C 0.7436(7) 0.6776(2) 0.9137(2)
C11_2 C 0.6241(6) 0.6521(2) 0.9281(3)
H7_2 H 0.5746 0.6633 0.9594
C12_2 C 0.5781(7) 0.6102(2) 0.8960(2)
H8_2 H 0.4988 0.5926 0.9065
C20_2 C 0.0911(9) 0.4579(4) 0.8194(4)
H13_2 H 0.0895 0.4328 0.7906
C23_2 C 0.0796(15) 0.5237(5) 0.9017(6)
H15_2 H 0.0866 0.5460 0.9329
C24_2 C 0.1864(13) 0.5199(4) 0.8653(5)
H16_2 H 0.2573 0.5441 0.8691
C30_2 C 0.8250(7) 0.7678(2) 0.9135(2)
C31_2 C 0.7344(7) 0.7881(2) 0.8753(3)
H20_2 H 0.6499 0.7720 0.8709
Cu2_2 Cu 0.62090(6) 0.47789(2) 0.72366(2)
O7_2 O 0.1603(4) 0.92275(15) 0.71836(16)
O8_2 O 0.3240(5) 0.53306(15) 0.72496(16)
O9_2 O 0.5205(4) 0.53207(14) 0.67760(15)
O11 O 0.0634(6) 0.6737(2) 0.2989(2)
O12 O 0.0740(7) 0.7611(2) 0.2979(2)
H30 H 0.0282 0.7570 0.2693
N4_2 N 0.2099(6) 0.72192(17) 0.5555(2)
C42_2 C 0.0709(6) 0.90359(19) 0.6853(2)
C43_2 C 0.1096(5) 0.8565(2) 0.6506(2)
C44_2 C 0.2342(7) 0.8325(2) 0.6571(3)
H31_2 H 0.2971 0.8457 0.6829
C45_2 C 0.0177(6) 0.8356(2) 0.6120(2)
C46_2 C 0.0496(7) 0.7922(2) 0.5802(3)
C47_2 C 0.4059(6) 0.5498(2) 0.6874(2)
C48_2 C 0.3524(6) 0.5940(2) 0.6512(2)
C49_2 C 0.2336(7) 0.6191(2) 0.6652(3)
H34_2 H 0.1841 0.6082 0.6966
C50_2 C 0.1867(7) 0.6611(2) 0.6321(3)
H35_2 H 0.1059 0.6780 0.6418
C51_2 C 0.2564(7) 0.6776(2) 0.5863(2)
C52_2 C 0.3759(6) 0.6521(2) 0.5719(3)
H36_2 H 0.4254 0.6633 0.5406
C53_2 C 0.4219(7) 0.6102(2) 0.6040(2)
H37_2 H 0.5012 0.5926 0.5935
C54 C 0.1904(7) 0.7196(2) 0.4973(2)
C55 C 0.1623(7) 0.6721(3) 0.4698(3)
H38 H 0.1603 0.6406 0.4902
C56 C 0.1376(7) 0.6716(3) 0.4128(3)
H39 H 0.1225 0.6394 0.3946
C57 C 0.1347(7) 0.7179(3) 0.3818(3)
C58 C 0.1648(8) 0.7647(3) 0.4069(3)
H40 H 0.1668 0.7959 0.3860
C59 C 0.1930(8) 0.7653(2) 0.4650(3)
H41 H 0.2140 0.7974 0.4823
C60 C 0.0905(8) 0.7168(3) 0.3221(3)
C61_2 C 0.1750(7) 0.7678(2) 0.5865(2)
C62_2 C 0.2656(7) 0.7881(2) 0.6247(3)
H42_2 H 0.3501 0.7720 0.6291
O13_2 O 0.3397(4) 0.42275(15) 0.71836(16)
O14_2 O 0.6603(4) 0.42275(15) 0.78164(16)
O15_2 O 0.5461(4) 0.42132(14) 0.67861(15)
O16_2 O 0.4539(4) 0.42132(14) 0.82139(15)
N5_2 N 0.8041(5) 0.48424(18) 0.6749(2)
C28_2 C 0.6147(8) 0.5258(3) 0.0147(4)
H18_2 H 0.6922 0.5442 0.0258
C29_2 C 0.4942(9) 0.5318(3) 0.0443(3)
H19_2 H 0.4936 0.5544 0.0753
C33_2 C 0.0257(9) 0.5373(4) 0.1470(5)
H23_2 H 0.0996 0.5592 0.1548
C34_2 C 0.0361(8) 0.5041(4) 0.1062(3)
C37_2 C 0.1500(10) 0.4960(5) 0.0682(5)
H26_2 H 0.1343 0.4707 0.0404
C38_2 C 0.2598(10) 0.5158(3) 0.0661(4)
C39_2 C 0.3801(6) 0.5072(3) 0.0309(3)
H29_2 H 0.2719 0.5430 0.0924
C21_2 C 0.9743(9) 0.4627(4) 0.8530(5)
H14_2 H 0.9004 0.4408 0.8452
C22_2 C 0.9639(8) 0.4959(4) 0.8938(3)
C25_2 C 0.8500(10) 0.5040(5) 0.9318(5)
H17_2 H 0.8657 0.5293 0.9596
C26_2 C 0.7402(10) 0.4842(3) 0.9339(4)
C27_2 C 0.6199(6) 0.4928(3) 0.9691(3)
H21_2 H 0.7281 0.4570 0.9076
C40_2 C 0.3853(8) 0.4742(3) 0.9853(4)
H27_2 H 0.3078 0.4558 0.9742
C41_2 C 0.5058(9) 0.4682(3) 0.9557(3)
H28_2 H 0.5064 0.4456 0.9247
O10_2 O 0.9539(4) 0.92132(14) 0.67861(15)
H32_2 H 0.9328 0.8515 0.6077
H33_2 H 0.9870 0.7791 0.5542
N3_2 N 0.8041(5) 0.51576(18) 0.1749(2)
C32_2 C 0.9089(9) 0.5421(4) 0.1806(4)
H22_2 H 0.9105 0.5672 0.2094
C35_2 C 0.9204(15) 0.4763(5) 0.0983(6)
H24_2 H 0.9134 0.4540 0.0671
C36_2 C 0.8136(13) 0.4801(4) 0.1347(5)
H25_2 H 0.7427 0.4559 0.1309
C20_3 C 0.5911(9) 0.0421(4) 0.1806(4)
H13_3 H 0.5895 0.0672 0.2094
C21_3 C 0.4743(9) 0.0373(4) 0.1470(5)
H14_3 H 0.4004 0.0592 0.1548
C22_3 C 0.4639(8) 0.0041(4) 0.1062(3)
C26_3 C 0.2402(10) 0.0158(3) 0.0661(4)
C27_3 C 0.1199(6) 0.0072(3) 0.0309(3)
H21_3 H 0.2281 0.0430 0.0924
C41_3 C 0.0058(9) 0.0318(3) 0.0443(3)
H28_3 H 0.0064 0.0544 0.0753
C23_3 C 0.5796(15) 0.9763(5) 0.0983(6)
H15_3 H 0.5866 0.9540 0.0671
C24_3 C 0.6864(13) 0.9801(4) 0.1347(5)
H16_3 H 0.7573 0.9559 0.1309
C25_3 C 0.3500(10) 0.9960(5) 0.0682(5)
H17_3 H 0.3657 0.9707 0.0404
C35_3 C 0.4204(15) 0.0237(5) 0.9017(6)
H24_3 H 0.4134 0.0460 0.9329
C36_3 C 0.3136(13) 0.0199(4) 0.8653(5)
H25_3 H 0.2427 0.0441 0.8691
C37_3 C 0.6500(10) 0.0040(5) 0.9318(5)
H26_3 H 0.6343 0.0293 0.9596
C29_3 C 0.9942(9) 0.9682(3) 0.9557(3)
H19_3 H 0.9936 0.9456 0.9247
N3_3 N 0.3041(5) 0.98424(18) 0.8251(2)
C32_3 C 0.4089(9) 0.9579(4) 0.8194(4)
H22_3 H 0.4105 0.9328 0.7906
C33_3 C 0.5257(9) 0.9627(4) 0.8530(5)
H23_3 H 0.5996 0.9408 0.8452
C34_3 C 0.5361(8) 0.9959(4) 0.8938(3)
C38_3 C 0.7598(10) 0.9842(3) 0.9339(4)
C39_3 C 0.8801(6) 0.9928(3) 0.9691(3)
H29_3 H 0.7719 0.9570 0.9076
N3_4 N 0.1959(5) 0.51576(18) 0.3251(2)
C32_4 C 0.0911(9) 0.5421(4) 0.3194(4)
H22_4 H 0.0895 0.5672 0.2906
C35_4 C 0.0796(15) 0.4763(5) 0.4017(6)
H24_4 H 0.0866 0.4540 0.4329
C36_4 C 0.1864(13) 0.4801(4) 0.3653(5)
H25_4 H 0.2573 0.4559 0.3691
C21_4 C 0.0257(9) 0.4627(4) 0.6470(5)
H14_4 H 0.0996 0.4408 0.6548
C22_4 C 0.0361(8) 0.4959(4) 0.6062(3)
C25_4 C 0.1500(10) 0.5040(5) 0.5682(5)
H17_4 H 0.1343 0.5293 0.5404
C26_4 C 0.2598(10) 0.4842(3) 0.5661(4)
C27_4 C 0.3801(6) 0.4928(3) 0.5309(3)
C28_3 C 0.3853(8) 0.5258(3) 0.4853(4)
H18_3 H 0.3078 0.5442 0.4742
C29_4 C 0.5058(9) 0.5318(3) 0.4557(3)
H19_4 H 0.5064 0.5544 0.4247
H21_4 H 0.2719 0.4570 0.5924
C33_4 C 0.9743(9) 0.5373(4) 0.3530(5)
H23_4 H 0.9004 0.5592 0.3452
C34_4 C 0.9639(8) 0.5041(4) 0.3938(3)
C37_4 C 0.8500(10) 0.4960(5) 0.4318(5)
H26_4 H 0.8657 0.4707 0.4596
C38_4 C 0.7402(10) 0.5158(3) 0.4339(4)
C39_4 C 0.6199(6) 0.5072(3) 0.4691(3)
C40_3 C 0.6147(8) 0.4742(3) 0.5147(4)
H27_3 H 0.6922 0.4558 0.5258
C41_4 C 0.4942(9) 0.4682(3) 0.5443(3)
H28_4 H 0.4936 0.4456 0.5753
H29_4 H 0.7281 0.5430 0.4076
C20_4 C 0.9089(9) 0.4579(4) 0.6806(4)
H13_4 H 0.9105 0.4328 0.7094
C23_4 C 0.9204(15) 0.5237(5) 0.5983(6)
H15_4 H 0.9134 0.5460 0.5671
C24_4 C 0.8136(13) 0.5199(4) 0.6347(5)
H16_4 H 0.7427 0.5441 0.6309
O2_3 O 0.1760(5) 0.03306(15) 0.72496(16)
O5_2 O 0.4366(6) 0.1737(2) 0.2989(2)
O6_2 O 0.4260(7) 0.2611(2) 0.2979(2)
H1_2 H 0.4718 0.2570 0.2693
N2_3 N 0.2901(6) 0.22192(17) 0.5555(2)
C1_3 C 0.4291(6) 0.40359(19) 0.6853(2)
C2_3 C 0.3904(5) 0.3565(2) 0.6506(2)
C3_3 C 0.2658(7) 0.3325(2) 0.6571(3)
H2_3 H 0.2029 0.3457 0.6829
C4_3 C 0.4823(6) 0.3356(2) 0.6120(2)
H3_3 H 0.5672 0.3515 0.6077
C5_3 C 0.4504(7) 0.2922(2) 0.5802(3)
H4_3 H 0.5130 0.2791 0.5542
C6_3 C 0.0941(6) 0.0498(2) 0.6874(2)
C7_3 C 0.1476(6) 0.0940(2) 0.6512(2)
C8_3 C 0.2664(7) 0.1191(2) 0.6652(3)
H5_3 H 0.3159 0.1082 0.6966
C9_3 C 0.3133(7) 0.1611(2) 0.6321(3)
H6_3 H 0.3941 0.1780 0.6418
C10_3 C 0.2436(7) 0.1776(2) 0.5863(2)
C11_3 C 0.1241(6) 0.1521(2) 0.5719(3)
H7_3 H 0.0746 0.1633 0.5406
C12_3 C 0.0781(7) 0.1102(2) 0.6040(2)
C13_2 C 0.3096(7) 0.2196(2) 0.4973(2)
C14_2 C 0.3377(7) 0.1721(3) 0.4698(3)
H9_2 H 0.3397 0.1406 0.4902
C15_2 C 0.3624(7) 0.1716(3) 0.4128(3)
H10_2 H 0.3775 0.1394 0.3946
C16_2 C 0.3653(7) 0.2179(3) 0.3818(3)
C17_2 C 0.3352(8) 0.2647(3) 0.4069(3)
H11_2 H 0.3332 0.2959 0.3860
C18_2 C 0.3070(8) 0.2653(2) 0.4650(3)
H12_2 H 0.2860 0.2974 0.4823
C19_2 C 0.4095(8) 0.2168(3) 0.3221(3)
C30_3 C 0.3250(7) 0.2678(2) 0.5865(2)
C31_3 C 0.2344(7) 0.2881(2) 0.6247(3)
H20_3 H 0.1499 0.2720 0.6291
O9_3 O 0.0205(4) 0.03207(14) 0.82240(15)
H37_3 H 0.0012 0.0926 0.9065
O3_3 O 0.9795(4) 0.03207(14) 0.67760(15)
H8_3 H 0.9988 0.0926 0.5935
O8_3 O 0.8240(5) 0.03306(15) 0.77504(16)
N4_3 N 0.7099(6) 0.22192(17) 0.9445(2)
C42_3 C 0.5709(6) 0.40359(19) 0.8147(2)
C43_3 C 0.6096(5) 0.3565(2) 0.8494(2)
C44_3 C 0.7342(7) 0.3325(2) 0.8429(3)
H31_3 H 0.7971 0.3457 0.8171
C45_3 C 0.5177(6) 0.3356(2) 0.8880(2)
H32_3 H 0.4328 0.3515 0.8923
C46_3 C 0.5496(7) 0.2922(2) 0.9198(3)
H33_3 H 0.4870 0.2791 0.9458
C47_3 C 0.9059(6) 0.0498(2) 0.8126(2)
C48_3 C 0.8524(6) 0.0940(2) 0.8488(2)
C49_3 C 0.7336(7) 0.1191(2) 0.8348(3)
H34_3 H 0.6841 0.1082 0.8034
C50_3 C 0.6867(7) 0.1611(2) 0.8679(3)
H35_3 H 0.6059 0.1780 0.8582
C51_3 C 0.7564(7) 0.1776(2) 0.9137(2)
C52_3 C 0.8759(6) 0.1521(2) 0.9281(3)
H36_3 H 0.9254 0.1633 0.9594
C53_3 C 0.9219(7) 0.1102(2) 0.8960(2)
C61_3 C 0.6750(7) 0.2678(2) 0.9135(2)
C62_3 C 0.7656(7) 0.2881(2) 0.8753(3)
H42_3 H 0.8501 0.2720 0.8709
H32_4 H 0.0672 0.1485 0.3923
H33_4 H 0.0130 0.2209 0.4458
O2_4 O 0.3240(5) 0.46694(15) 0.22496(16)
O3_4 O 0.5205(4) 0.46793(14) 0.17760(15)
N2_4 N 0.2099(6) 0.27808(17) 0.0555(2)
C1_4 C 0.0709(6) 0.09641(19) 0.1853(2)
C2_4 C 0.1096(5) 0.1435(2) 0.1506(2)
C3_4 C 0.2342(7) 0.1675(2) 0.1571(3)
H2_4 H 0.2971 0.1543 0.1829
C4_4 C 0.0177(6) 0.1644(2) 0.1120(2)
C5_4 C 0.0496(7) 0.2078(2) 0.0802(3)
C6_4 C 0.4059(6) 0.4502(2) 0.1874(2)
C7_4 C 0.3524(6) 0.4060(2) 0.1512(2)
C8_4 C 0.2336(7) 0.3809(2) 0.1652(3)
H5_4 H 0.1841 0.3918 0.1966
C9_4 C 0.1867(7) 0.3389(2) 0.1321(3)
H6_4 H 0.1059 0.3220 0.1418
C10_4 C 0.2564(7) 0.3224(2) 0.0863(2)
C11_4 C 0.3759(6) 0.3479(2) 0.0719(3)
H7_4 H 0.4254 0.3367 0.0406
C12_4 C 0.4219(7) 0.3898(2) 0.1040(2)
H8_4 H 0.5012 0.4074 0.0935
C30_4 C 0.1750(7) 0.2322(2) 0.0865(2)
C31_4 C 0.2656(7) 0.2119(2) 0.1247(3)
H20_4 H 0.3501 0.2280 0.1291
O8_4 O 0.6760(5) 0.46694(15) 0.27504(16)
O9_4 O 0.4795(4) 0.46793(14) 0.32240(15)
O11_2 O 0.9366(6) 0.3263(2) 0.7011(2)
O12_2 O 0.9260(7) 0.2389(2) 0.7021(2)
H30_2 H 0.9718 0.2430 0.7307
N4_4 N 0.7901(6) 0.27808(17) 0.4445(2)
C42_4 C 0.9291(6) 0.09641(19) 0.3147(2)
C43_4 C 0.8904(5) 0.1435(2) 0.3494(2)
C44_4 C 0.7658(7) 0.1675(2) 0.3429(3)
H31_4 H 0.7029 0.1543 0.3171
C45_4 C 0.9823(6) 0.1644(2) 0.3880(2)
C46_4 C 0.9504(7) 0.2078(2) 0.4198(3)
C47_4 C 0.5941(6) 0.4502(2) 0.3126(2)
C48_4 C 0.6476(6) 0.4060(2) 0.3488(2)
C49_4 C 0.7664(7) 0.3809(2) 0.3348(3)
H34_4 H 0.8159 0.3918 0.3034
C50_4 C 0.8133(7) 0.3389(2) 0.3679(3)
H35_4 H 0.8941 0.3220 0.3582
C51_4 C 0.7436(7) 0.3224(2) 0.4137(2)
C52_4 C 0.6241(6) 0.3479(2) 0.4281(3)
H36_4 H 0.5746 0.3367 0.4594
C53_4 C 0.5781(7) 0.3898(2) 0.3960(2)
H37_4 H 0.4988 0.4074 0.4065
C54_2 C 0.8096(7) 0.2804(2) 0.5027(2)
C55_2 C 0.8377(7) 0.3279(3) 0.5302(3)
H38_2 H 0.8397 0.3594 0.5098
C56_2 C 0.8624(7) 0.3284(3) 0.5872(3)
H39_2 H 0.8775 0.3606 0.6054
C57_2 C 0.8653(7) 0.2821(3) 0.6182(3)
C58_2 C 0.8352(8) 0.2353(3) 0.5931(3)
H40_2 H 0.8332 0.2041 0.6140
C59_2 C 0.8070(8) 0.2347(2) 0.5350(3)
H41_2 H 0.7860 0.2026 0.5177
C60_2 C 0.9095(8) 0.2832(3) 0.6779(3)
C61_4 C 0.8250(7) 0.2322(2) 0.4135(2)
C62_4 C 0.7344(7) 0.2119(2) 0.3753(3)
H42_4 H 0.6499 0.2280 0.3709
H3_4 H 0.9328 0.1485 0.1077
H4_4 H 0.9870 0.2209 0.0542
O11_3 O 0.4366(6) 0.8263(2) 0.7989(2)
O12_3 O 0.4260(7) 0.7389(2) 0.7979(2)
H30_3 H 0.4718 0.7430 0.7693
C54_3 C 0.3096(7) 0.7804(2) 0.9973(2)
C55_3 C 0.3377(7) 0.8279(3) 0.9698(3)
H38_3 H 0.3397 0.8594 0.9902
C56_3 C 0.3624(7) 0.8284(3) 0.9128(3)
H39_3 H 0.3775 0.8606 0.8946
C57_3 C 0.3653(7) 0.7821(3) 0.8818(3)
C58_3 C 0.3352(8) 0.7353(3) 0.9069(3)
H40_3 H 0.3332 0.7041 0.8860
C59_3 C 0.3070(8) 0.7347(2) 0.9650(3)
H41_3 H 0.2860 0.7026 0.9823
C60_3 C 0.4095(8) 0.7832(3) 0.8221(3)
O5_3 O 0.9366(6) 0.6737(2) 0.2011(2)
O6_3 O 0.9260(7) 0.7611(2) 0.2021(2)
H1_3 H 0.9718 0.7570 0.2307
C13_3 C 0.8096(7) 0.7196(2) 0.0027(2)
C14_3 C 0.8377(7) 0.6721(3) 0.0302(3)
H9_3 H 0.8397 0.6406 0.0098
C15_3 C 0.8624(7) 0.6716(3) 0.0872(3)
H10_3 H 0.8775 0.6394 0.1054
C16_3 C 0.8653(7) 0.7179(3) 0.1182(3)
C17_3 C 0.8352(8) 0.7647(3) 0.0931(3)
H11_3 H 0.8332 0.7959 0.1140
C18_3 C 0.8070(8) 0.7653(2) 0.0350(3)
H12_3 H 0.7860 0.7974 0.0177
C19_3 C 0.9095(8) 0.7168(3) 0.1779(3)
C28_4 C 0.1147(8) 0.9742(3) 0.9853(4)
H18_4 H 0.1922 0.9558 0.9742
C40_4 C 0.8853(8) 0.0258(3) 0.0147(4)
H27_4 H 0.8078 0.0442 0.0258
O11_4 O 0.5634(6) 0.1737(2) 0.2011(2)
O12_4 O 0.5740(7) 0.2611(2) 0.2021(2)
H30_4 H 0.5282 0.2570 0.2307
C54_4 C 0.6904(7) 0.2196(2) 0.0027(2)
C55_4 C 0.6623(7) 0.1721(3) 0.0302(3)
H38_4 H 0.6603 0.1406 0.0098
C56_4 C 0.6376(7) 0.1716(3) 0.0872(3)
H39_4 H 0.6225 0.1394 0.1054
C57_4 C 0.6347(7) 0.2179(3) 0.1182(3)
C58_4 C 0.6648(8) 0.2647(3) 0.0931(3)
H40_4 H 0.6668 0.2959 0.1140
C59_4 C 0.6930(8) 0.2653(2) 0.0350(3)
H41_4 H 0.7140 0.2974 0.0177
C60_4 C 0.5905(8) 0.2168(3) 0.1779(3)
O5_4 O 0.0634(6) 0.3263(2) 0.7989(2)
O6_4 O 0.0740(7) 0.2389(2) 0.7979(2)
H1_4 H 0.0282 0.2430 0.7693
C13_4 C 0.1904(7) 0.2804(2) 0.9973(2)
C14_4 C 0.1623(7) 0.3279(3) 0.9698(3)
H9_4 H 0.1603 0.3594 0.9902
C15_4 C 0.1376(7) 0.3284(3) 0.9128(3)
H10_4 H 0.1225 0.3606 0.8946
C16_4 C 0.1347(7) 0.2821(3) 0.8818(3)
C17_4 C 0.1648(8) 0.2353(3) 0.9069(3)
H11_4 H 0.1668 0.2041 0.8860
C18_4 C 0.1930(8) 0.2347(2) 0.9650(3)
H12_4 H 0.2140 0.2026 0.9823
C19_4 C 0.0905(8) 0.2832(3) 0.8221(3)
loop_
_geom_bond_atom_site_label_1
_geom_bond_atom_site_label_2
_geom_bond_site_symmetry_1
_geom_bond_site_symmetry_2
H24 C35 1_555 1_555
H25 C36 1_555 1_555
H26 C37 1_555 1_555
H27 C40 1_555 1_555
C35 C36 1_555 1_555
H19 C29 1_555 1_555
N3 C32 1_555 1_555
C32 H22 1_555 1_555
C33 C32 1_555 1_555
H23 C33 1_555 1_555
C34 C33 1_555 1_555
C39 C29 1_555 1_555
H29 C38 1_555 1_555
Cu3 N3 1_555 1_555
C38 C39 1_555 1_555
N1 Cu1 1_555 1_555
C20 N1 1_555 1_555
H13 C20 1_555 1_555
C21 C20 1_555 1_555
H14 C21 1_555 1_555
C22 C21 1_555 1_555
C27 C26 1_555 1_555
H21 C26 1_555 1_555
C41 C27 1_555 1_555
H28 C41 1_555 1_555
O13 Cu1 1_555 1_555
O16 Cu1 1_555 1_555
H15 C23 1_555 1_555
H16 C24 1_555 1_555
H17 C25 1_555 1_555
H18 C28 1_555 1_555
O7 C42 1_555 1_555
O10 C42 1_555 1_555
N4 C51 1_555 1_555
C42 C43 1_555 1_555
C43 C44 1_555 1_555
C44 H31 1_555 1_555
C45 C43 1_555 1_555
H32 C45 1_555 1_555
C46 C45 1_555 1_555
H33 C46 1_555 1_555
C47 O8 1_555 1_555
C48 C47 1_555 1_555
C49 C48 1_555 1_555
H34 C49 1_555 1_555
C50 C49 1_555 1_555
H35 C50 1_555 1_555
C51 C50 1_555 1_555
C52 C51 1_555 1_555
H36 C52 1_555 1_555
C53 C48 1_555 1_555
C61 N4 1_555 1_555
C62 C44 1_555 1_555
H42 C62 1_555 1_555
Cu5 O10 1_555 1_555
Cu7 O7 1_555 1_555
C23 C24 1_555 1_555
C46 C61 1_555 1_555
C52 C53 1_555 1_555
C61 C62 1_555 1_555
O14 Cu2 1_555 1_555
O15 Cu2 1_555 1_555
N5 Cu2 1_555 1_555
O1 C1 1_555 1_555
O2 C6 1_555 1_555
O4 C1 1_555 1_555
O5 C19 1_555 1_555
O6 H1 1_555 1_555
N2 C10 1_555 1_555
C1 C2 1_555 1_555
C2 C3 1_555 1_555
C3 H2 1_555 1_555
C4 C2 1_555 1_555
H3 C4 1_555 1_555
C5 C4 1_555 1_555
H4 C5 1_555 1_555
C6 C7 1_555 1_555
C7 C8 1_555 1_555
C8 H5 1_555 1_555
C9 C8 1_555 1_555
H6 C9 1_555 1_555
C10 C9 1_555 1_555
C11 C10 1_555 1_555
H7 C11 1_555 1_555
C12 C7 1_555 1_555
C13 N2 1_555 1_555
C14 C13 1_555 1_555
H9 C14 1_555 1_555
C15 C14 1_555 1_555
H10 C15 1_555 1_555
C16 C15 1_555 1_555
C17 C16 1_555 1_555
H11 C17 1_555 1_555
C18 C13 1_555 1_555
H12 C18 1_555 1_555
C19 O6 1_555 1_555
C30 N2 1_555 1_555
C31 C3 1_555 1_555
H20 C31 1_555 1_555
Cu5 O1 1_555 1_555
Cu7 O4 1_555 1_555
C5 C30 1_555 1_555
C11 C12 1_555 1_555
C16 C19 1_555 1_555
C17 C18 1_555 1_555
C30 C31 1_555 1_555
Cu6 O4_2 1_555 1_555
Cu1_2 O3_2 1_555 1_555
O1_2 C1_2 1_555 1_555
O2_2 C6_2 1_555 1_555
O3_2 C6_2 1_555 1_555
N1_2 Cu1_2 1_555 1_555
N2_2 C10_2 1_555 1_555
C1_2 C2_2 1_555 1_555
C2_2 C3_2 1_555 1_555
C3_2 H2_2 1_555 1_555
C4_2 C2_2 1_555 1_555
C5_2 C4_2 1_555 1_555
C6_2 C7_2 1_555 1_555
C7_2 C8_2 1_555 1_555
C8_2 H5_2 1_555 1_555
C9_2 C8_2 1_555 1_555
H6_2 C9_2 1_555 1_555
C10_2 C9_2 1_555 1_555
C11_2 C10_2 1_555 1_555
H7_2 C11_2 1_555 1_555
C12_2 C7_2 1_555 1_555
H8_2 C12_2 1_555 1_555
C20_2 N1_2 1_555 1_555
H13_2 C20_2 1_555 1_555
H15_2 C23_2 1_555 1_555
C24_2 N1_2 1_555 1_555
H16_2 C24_2 1_555 1_555
C30_2 N2_2 1_555 1_555
C31_2 C3_2 1_555 1_555
H20_2 C31_2 1_555 1_555
Cu2_2 O2_2 1_555 1_555
O7_2 C42_2 1_555 1_555
O8_2 Cu1_2 1_555 1_555
O9_2 Cu2_2 1_555 1_555
O11 C60 1_555 1_555
O12 H30 1_555 1_555
N4_2 C51_2 1_555 1_555
C42_2 C43_2 1_555 1_555
C43_2 C44_2 1_555 1_555
C44_2 H31_2 1_555 1_555
C45_2 C43_2 1_555 1_555
C46_2 C45_2 1_555 1_555
C47_2 O8_2 1_555 1_555
C48_2 C47_2 1_555 1_555
C49_2 C48_2 1_555 1_555
H34_2 C49_2 1_555 1_555
C50_2 C49_2 1_555 1_555
H35_2 C50_2 1_555 1_555
C51_2 C50_2 1_555 1_555
C52_2 C51_2 1_555 1_555
H36_2 C52_2 1_555 1_555
C53_2 C48_2 1_555 1_555
H37_2 C53_2 1_555 1_555
C54 N4_2 1_555 1_555
C55 C54 1_555 1_555
H38 C55 1_555 1_555
C56 C55 1_555 1_555
H39 C56 1_555 1_555
C57 C56 1_555 1_555
C58 C57 1_555 1_555
H40 C58 1_555 1_555
C59 C54 1_555 1_555
H41 C59 1_555 1_555
C60 O12 1_555 1_555
C61_2 N4_2 1_555 1_555
C62_2 C44_2 1_555 1_555
H42_2 C62_2 1_555 1_555
Cu3 O1_2 1_555 1_555
Cu6 O7_2 1_555 1_555
O13_2 Cu1_2 1_555 1_555
O14_2 Cu2_2 1_555 1_555
O15_2 Cu2_2 1_555 1_555
O16_2 Cu1_2 1_555 1_555
N5_2 Cu2_2 1_555 1_555
C5_2 C30_2 1_555 1_555
C11_2 C12_2 1_555 1_555
C23_2 C24_2 1_555 1_555
C30_2 C31_2 1_555 1_555
O9_2 C47_2 1_555 1_555
C46_2 C61_2 1_555 1_555
C52_2 C53_2 1_555 1_555
C57 C60 1_555 1_555
C58 C59 1_555 1_555
C61_2 C62_2 1_555 1_555
H18_2 C28_2 1_555 1_555
C29_2 C28_2 1_555 1_555
H19_2 C29_2 1_555 1_555
H23_2 C33_2 1_555 1_555
C34_2 C33_2 1_555 1_555
C37_2 C34_2 1_555 1_555
H26_2 C37_2 1_555 1_555
C38_2 C37_2 1_555 1_555
C39_2 C29_2 1_555 1_555
H29_2 C38_2 1_555 1_555
C38_2 C39_2 1_555 1_555
H14_2 C21_2 1_555 1_555
C22_2 C21_2 1_555 1_555
C25_2 C22_2 1_555 1_555
H17_2 C25_2 1_555 1_555
C26_2 C25_2 1_555 1_555
C27_2 C26_2 1_555 1_555
H21_2 C26_2 1_555 1_555
H27_2 C40_2 1_555 1_555
C41_2 C27_2 1_555 1_555
H28_2 C41_2 1_555 1_555
Cu3 O10_2 1_555 1_555
C40_2 C41_2 1_555 1_555
N3_2 C32_2 1_555 1_555
C32_2 H22_2 1_555 1_555
H24_2 C35_2 1_555 1_555
C36_2 N3_2 1_555 1_555
H25_2 C36_2 1_555 1_555
Cu5 N3_2 1_555 1_555
C35_2 C36_2 1_555 1_555
C20_3 N5 1_555 1_555
H13_3 C20_3 1_555 1_555
C21_3 C20_3 1_555 1_555
H14_3 C21_3 1_555 1_555
C22_3 C21_3 1_555 1_555
C27_3 C26_3 1_555 1_555
H21_3 C26_3 1_555 1_555
C41_3 C27_3 1_555 1_555
H28_3 C41_3 1_555 1_555
H15_3 C23_3 1_555 1_555
H16_3 C24_3 1_555 1_555
H17_3 C25_3 1_555 1_555
C23_3 C24_3 1_555 1_555
H24_3 C35_3 1_555 1_555
H25_3 C36_3 1_555 1_555
H26_3 C37_3 1_555 1_555
C35_3 C36_3 1_555 1_555
H19_3 C29_3 1_555 1_555
N3_3 C32_3 1_555 1_555
C32_3 H22_3 1_555 1_555
C33_3 C32_3 1_555 1_555
H23_3 C33_3 1_555 1_555
C34_3 C33_3 1_555 1_555
C39_3 C29_3 1_555 1_555
H29_3 C38_3 1_555 1_555
Cu6 N3_3 1_555 1_555
C38_3 C39_3 1_555 1_555
N3_4 C32_4 1_555 1_555
C32_4 H22_4 1_555 1_555
H24_4 C35_4 1_555 1_555
C36_4 N3_4 1_555 1_555
H25_4 C36_4 1_555 1_555
Cu7 N3_4 1_555 1_555
C35_4 C36_4 1_555 1_555
H14_4 C21_4 1_555 1_555
C22_4 C21_4 1_555 1_555
C25_4 C22_4 1_555 1_555
H17_4 C25_4 1_555 1_555
C26_4 C25_4 1_555 1_555
C27_4 C26_4 1_555 1_555
C28_3 C27_4 1_555 1_555
H18_3 C28_3 1_555 1_555
C29_4 C28_3 1_555 1_555
H19_4 C29_4 1_555 1_555
H21_4 C26_4 1_555 1_555
H23_4 C33_4 1_555 1_555
C34_4 C33_4 1_555 1_555
C37_4 C34_4 1_555 1_555
H26_4 C37_4 1_555 1_555
C38_4 C37_4 1_555 1_555
C39_4 C29_4 1_555 1_555
C40_3 C39_4 1_555 1_555
H27_3 C40_3 1_555 1_555
C41_4 C27_4 1_555 1_555
H28_4 C41_4 1_555 1_555
H29_4 C38_4 1_555 1_555
C38_4 C39_4 1_555 1_555
C40_3 C41_4 1_555 1_555
C20_4 N5_2 1_555 1_555
H13_4 C20_4 1_555 1_555
H15_4 C23_4 1_555 1_555
C24_4 N5_2 1_555 1_555
H16_4 C24_4 1_555 1_555
C23_4 C24_4 1_555 1_555
O13_2 C1_3 1_555 1_555
O2_3 C6_3 1_555 1_555
O15_2 C1_3 1_555 1_555
O5_2 C19_2 1_555 1_555
O6_2 H1_2 1_555 1_555
N2_3 C10_3 1_555 1_555
C1_3 C2_3 1_555 1_555
C2_3 C3_3 1_555 1_555
C3_3 H2_3 1_555 1_555
C4_3 C2_3 1_555 1_555
H3_3 C4_3 1_555 1_555
C5_3 C4_3 1_555 1_555
H4_3 C5_3 1_555 1_555
C6_3 C7_3 1_555 1_555
C7_3 C8_3 1_555 1_555
C8_3 H5_3 1_555 1_555
C9_3 C8_3 1_555 1_555
H6_3 C9_3 1_555 1_555
C10_3 C9_3 1_555 1_555
C11_3 C10_3 1_555 1_555
H7_3 C11_3 1_555 1_555
C12_3 C7_3 1_555 1_555
C13_2 N2_3 1_555 1_555
C14_2 C13_2 1_555 1_555
H9_2 C14_2 1_555 1_555
C15_2 C14_2 1_555 1_555
H10_2 C15_2 1_555 1_555
C16_2 C15_2 1_555 1_555
C17_2 C16_2 1_555 1_555
H11_2 C17_2 1_555 1_555
C18_2 C13_2 1_555 1_555
H12_2 C18_2 1_555 1_555
C19_2 O6_2 1_555 1_555
C30_3 N2_3 1_555 1_555
C31_3 C3_3 1_555 1_555
H20_3 C31_3 1_555 1_555
C5_3 C30_3 1_555 1_555
C11_3 C12_3 1_555 1_555
C16_2 C19_2 1_555 1_555
C17_2 C18_2 1_555 1_555
C30_3 C31_3 1_555 1_555
O14_2 C42_3 1_555 1_555
O16_2 C42_3 1_555 1_555
N4_3 C51_3 1_555 1_555
C42_3 C43_3 1_555 1_555
C43_3 C44_3 1_555 1_555
C44_3 H31_3 1_555 1_555
C45_3 C43_3 1_555 1_555
H32_3 C45_3 1_555 1_555
C46_3 C45_3 1_555 1_555
H33_3 C46_3 1_555 1_555
C47_3 O8_3 1_555 1_555
C48_3 C47_3 1_555 1_555
C49_3 C48_3 1_555 1_555
H34_3 C49_3 1_555 1_555
C50_3 C49_3 1_555 1_555
H35_3 C50_3 1_555 1_555
C51_3 C50_3 1_555 1_555
C52_3 C51_3 1_555 1_555
H36_3 C52_3 1_555 1_555
C53_3 C48_3 1_555 1_555
C61_3 N4_3 1_555 1_555
C62_3 C44_3 1_555 1_555
H42_3 C62_3 1_555 1_555
C46_3 C61_3 1_555 1_555
C52_3 C53_3 1_555 1_555
C61_3 C62_3 1_555 1_555
Cu5 O3_4 1_555 1_555
O13 C1_4 1_555 1_555
O2_4 C6_4 1_555 1_555
O3_4 C6_4 1_555 1_555
N2_4 C10_4 1_555 1_555
C1_4 C2_4 1_555 1_555
C2_4 C3_4 1_555 1_555
C3_4 H2_4 1_555 1_555
C4_4 C2_4 1_555 1_555
C5_4 C4_4 1_555 1_555
C6_4 C7_4 1_555 1_555
C7_4 C8_4 1_555 1_555
C8_4 H5_4 1_555 1_555
C9_4 C8_4 1_555 1_555
H6_4 C9_4 1_555 1_555
C10_4 C9_4 1_555 1_555
C11_4 C10_4 1_555 1_555
H7_4 C11_4 1_555 1_555
C12_4 C7_4 1_555 1_555
H8_4 C12_4 1_555 1_555
C30_4 N2_4 1_555 1_555
C31_4 C3_4 1_555 1_555
H20_4 C31_4 1_555 1_555
Cu7 O2_4 1_555 1_555
O14 C42_4 1_555 1_555
O8_4 Cu5 1_555 1_555
O9_4 Cu7 1_555 1_555
O11_2 C60_2 1_555 1_555
O12_2 H30_2 1_555 1_555
N4_4 C51_4 1_555 1_555
C42_4 C43_4 1_555 1_555
C43_4 C44_4 1_555 1_555
C44_4 H31_4 1_555 1_555
C45_4 C43_4 1_555 1_555
C46_4 C45_4 1_555 1_555
C47_4 O8_4 1_555 1_555
C48_4 C47_4 1_555 1_555
C49_4 C48_4 1_555 1_555
H34_4 C49_4 1_555 1_555
C50_4 C49_4 1_555 1_555
H35_4 C50_4 1_555 1_555
C51_4 C50_4 1_555 1_555
C52_4 C51_4 1_555 1_555
H36_4 C52_4 1_555 1_555
C53_4 C48_4 1_555 1_555
H37_4 C53_4 1_555 1_555
C54_2 N4_4 1_555 1_555
C55_2 C54_2 1_555 1_555
H38_2 C55_2 1_555 1_555
C56_2 C55_2 1_555 1_555
H39_2 C56_2 1_555 1_555
C57_2 C56_2 1_555 1_555
C58_2 C57_2 1_555 1_555
H40_2 C58_2 1_555 1_555
C59_2 C54_2 1_555 1_555
H41_2 C59_2 1_555 1_555
C60_2 O12_2 1_555 1_555
C61_4 N4_4 1_555 1_555
C62_4 C44_4 1_555 1_555
H42_4 C62_4 1_555 1_555
C5_4 C30_4 1_555 1_555
C11_4 C12_4 1_555 1_555
C30_4 C31_4 1_555 1_555
O9_4 C47_4 1_555 1_555
C46_4 C61_4 1_555 1_555
C52_4 C53_4 1_555 1_555
C57_2 C60_2 1_555 1_555
C58_2 C59_2 1_555 1_555
C61_4 C62_4 1_555 1_555
O11_3 C60_3 1_555 1_555
O12_3 H30_3 1_555 1_555
C55_3 C54_3 1_555 1_555
H38_3 C55_3 1_555 1_555
C56_3 C55_3 1_555 1_555
H39_3 C56_3 1_555 1_555
C57_3 C56_3 1_555 1_555
C58_3 C57_3 1_555 1_555
H40_3 C58_3 1_555 1_555
C59_3 C54_3 1_555 1_555
H41_3 C59_3 1_555 1_555
C60_3 O12_3 1_555 1_555
C57_3 C60_3 1_555 1_555
C58_3 C59_3 1_555 1_555
O5_3 C19_3 1_555 1_555
O6_3 H1_3 1_555 1_555
C14_3 C13_3 1_555 1_555
H9_3 C14_3 1_555 1_555
C15_3 C14_3 1_555 1_555
H10_3 C15_3 1_555 1_555
C16_3 C15_3 1_555 1_555
C17_3 C16_3 1_555 1_555
H11_3 C17_3 1_555 1_555
C18_3 C13_3 1_555 1_555
H12_3 C18_3 1_555 1_555
C19_3 O6_3 1_555 1_555
C16_3 C19_3 1_555 1_555
C17_3 C18_3 1_555 1_555
H18_4 C28_4 1_555 1_555
H27_4 C40_4 1_555 1_555
O11_4 C60_4 1_555 1_555
O12_4 H30_4 1_555 1_555
C55_4 C54_4 1_555 1_555
H38_4 C55_4 1_555 1_555
C56_4 C55_4 1_555 1_555
H39_4 C56_4 1_555 1_555
C57_4 C56_4 1_555 1_555
C58_4 C57_4 1_555 1_555
H40_4 C58_4 1_555 1_555
C59_4 C54_4 1_555 1_555
H41_4 C59_4 1_555 1_555
C60_4 O12_4 1_555 1_555
C57_4 C60_4 1_555 1_555
C58_4 C59_4 1_555 1_555
O5_4 C19_4 1_555 1_555
O6_4 H1_4 1_555 1_555
C14_4 C13_4 1_555 1_555
H9_4 C14_4 1_555 1_555
C15_4 C14_4 1_555 1_555
H10_4 C15_4 1_555 1_555
C16_4 C15_4 1_555 1_555
C17_4 C16_4 1_555 1_555
H11_4 C17_4 1_555 1_555
C18_4 C13_4 1_555 1_555
H12_4 C18_4 1_555 1_555
C19_4 O6_4 1_555 1_555
C16_4 C19_4 1_555 1_555
C17_4 C18_4 1_555 1_555

#END
