
###############################################################################
#
# This file contains modified crystal structure data generated from the
# MOF subset of the Cambridge Structural Database (CSD) v543 
# hosted by the Cambridge Crystallographic Data Centre (CCDC).
#
# This work is licensed under the Creative Commons
# Attribution-NonCommercial-ShareAlike 4.0 International License.
# To view a copy of this license, visit
# http://creativecommons.org/licenses/by-nc-sa/4.0/
# or send a letter to
# Creative Commons, PO Box 1866, Mountain View, CA 94042, USA.
#
# CIF created using the CSD Python API on 29 September 2022
# The structure has been converted into the P1 space group
# The structure has a 3D framework
# The original CSD entry DUMFEY is in the tetragonal crystal system
# The framework has been calculated to contain at least 10.0% void space
# The void calculation uses a probe of radius 1.32A, grid spacing 0.4
#
###############################################################################

data_DUMFEY
_chemical_formula_moiety         '(C8 H8 F10 N4 Ni1 Si2)n'
_symmetry_cell_setting           triclinic
_symmetry_space_group_name_H-M   'P 1'
_symmetry_Int_Tables_number      1
_space_group_name_Hall           'P 1'
loop_
_symmetry_equiv_pos_site_id
_symmetry_equiv_pos_as_xyz
1 x,y,z
_cell_length_a                   7.0148(4)
_cell_length_b                   7.0148(4)
_cell_length_c                   7.5655(7)
_cell_angle_alpha                90
_cell_angle_beta                 90
_cell_angle_gamma                90
_cell_volume                     372.279
loop_
_atom_site_label
_atom_site_type_symbol
_atom_site_fract_x
_atom_site_fract_y
_atom_site_fract_z
_atom_site_U_iso_or_equiv
_atom_site_thermal_displace_type
N1 N 0.50000 0.2091(6) 0.50000 0.0570 Uiso
C1 C 0.50000 0.0924(2) 0.36118(18) 0.0570 Uiso
H1 H 0.50000 0.16000 0.26000 0.0861 Uiso
Ni1 Ni 0.50000 0.50000 0.50000 0.0380 Uiso
F1 F 0.50000 0.50000 0.2081(17) 0.0443 Uiso
F2 F 0.3374(3) 0.3374(3) 0.00000 0.0443 Uiso
Si1 Si 0.50000 0.50000 0.00000 0.0317 Uiso
C4 C 0.50000 0.0924(2) 0.63882(18) 0.0570 Uiso
H4 H 0.50000 0.16000 0.74000 0.0861 Uiso
F3 F 0.6626(3) 0.3374(3) 0.00000 0.0443 Uiso
F4 F 0.6626(3) 0.6626(3) 0.00000 0.0443 Uiso
F5 F 0.3374(3) 0.6626(3) 0.00000 0.0443 Uiso
N4 N 0.2091(6) 0.50000 0.50000 0.0570 Uiso
C6 C 0.0924(2) 0.50000 0.36118(18) 0.0570 Uiso
H6 H 0.16000 0.50000 0.26000 0.0861 Uiso
C7 C 0.0924(2) 0.50000 0.63882(18) 0.0570 Uiso
H7 H 0.16000 0.50000 0.74000 0.0861 Uiso
N5 N 0.7909(6) 0.50000 0.50000 0.0570 Uiso
N6 N 0.50000 0.7909(6) 0.50000 0.0570 Uiso
F7 F 0.50000 0.50000 0.7919(17) 0.0443 Uiso
F2_2 F 0.3374(3) 0.3374(3) 1.00000 0.0443 Uiso
Si1_2 Si 0.50000 0.50000 1.00000 0.0317 Uiso
F3_2 F 0.6626(3) 0.3374(3) 1.00000 0.0443 Uiso
F4_2 F 0.6626(3) 0.6626(3) 1.00000 0.0443 Uiso
F5_2 F 0.3374(3) 0.6626(3) 1.00000 0.0443 Uiso
C2 C 0.50000 0.9076(2) 0.36118(18) 0.0570 Uiso
H2 H 0.50000 0.84000 0.26000 0.0861 Uiso
C3 C 0.50000 0.9076(2) 0.63882(18) 0.0570 Uiso
H3 H 0.50000 0.84000 0.74000 0.0861 Uiso
C5 C 0.9076(2) 0.50000 0.36118(18) 0.0570 Uiso
H5 H 0.84000 0.50000 0.26000 0.0861 Uiso
C8 C 0.9076(2) 0.50000 0.63882(18) 0.0570 Uiso
H8 H 0.84000 0.50000 0.74000 0.0861 Uiso
loop_
_geom_bond_atom_site_label_1
_geom_bond_atom_site_label_2
_geom_bond_site_symmetry_1
_geom_bond_site_symmetry_2
N1 C1 1_555 1_555
C1 H1 1_555 1_555
Ni1 N1 1_555 1_555
F1 Ni1 1_555 1_555
F2 Si1 1_555 1_555
Si1 F1 1_555 1_555
C4 N1 1_555 1_555
H4 C4 1_555 1_555
F3 Si1 1_555 1_555
F4 Si1 1_555 1_555
F5 Si1 1_555 1_555
N4 Ni1 1_555 1_555
H6 C6 1_555 1_555
C7 N4 1_555 1_555
H7 C7 1_555 1_555
N5 Ni1 1_555 1_555
N6 Ni1 1_555 1_555
F7 Ni1 1_555 1_555
N4 C6 1_555 1_555
F2_2 Si1_2 1_555 1_555
F3_2 Si1_2 1_555 1_555
F4_2 Si1_2 1_555 1_555
F5_2 Si1_2 1_555 1_555
F7 Si1_2 1_555 1_555
N6 C2 1_555 1_555
H2 C2 1_555 1_555
C3 N6 1_555 1_555
H3 C3 1_555 1_555
N5 C5 1_555 1_555
C5 H5 1_555 1_555
C8 N5 1_555 1_555
H8 C8 1_555 1_555

#END
