
###############################################################################
#
# This file contains modified crystal structure data generated from the
# MOF subset of the Cambridge Structural Database (CSD) v543 
# hosted by the Cambridge Crystallographic Data Centre (CCDC).
#
# This work is licensed under the Creative Commons
# Attribution-NonCommercial-ShareAlike 4.0 International License.
# To view a copy of this license, visit
# http://creativecommons.org/licenses/by-nc-sa/4.0/
# or send a letter to
# Creative Commons, PO Box 1866, Mountain View, CA 94042, USA.
#
# CIF created using the CSD Python API on 29 September 2022
# The structure has been converted into the P1 space group
# The structure has a 3D framework
# The original CSD entry DUMGOI is in the rhombohedral crystal system
# The framework has been calculated to contain at least 10.0% void space
# The void calculation uses a probe of radius 1.32A, grid spacing 0.4
# The framework is charged, counterions have been retained in the structure
#
###############################################################################

data_DUMGOI
_chemical_formula_moiety         '(C108 H72 Mn12 N18 Na8 O52)n'
_symmetry_cell_setting           triclinic
_symmetry_space_group_name_H-M   'P 1'
_symmetry_Int_Tables_number      1
_space_group_name_Hall           'P 1'
loop_
_symmetry_equiv_pos_site_id
_symmetry_equiv_pos_as_xyz
1 x,y,z
_cell_length_a                   10.1478(18)
_cell_length_b                   10.1478(18)
_cell_length_c                   37.420(13)
_cell_angle_alpha                90
_cell_angle_beta                 90
_cell_angle_gamma                120
_cell_volume                     3337.17
loop_
_atom_site_label
_atom_site_type_symbol
_atom_site_fract_x
_atom_site_fract_y
_atom_site_fract_z
Na4 Na 0.3333 0.6667 0.79708(5)
O5 O 0.1044(4) 0.5969(3) 0.82611(6)
C8 C 0.0028(5) 0.5594(4) 0.84910(7)
C10 C 0.0412(5) 0.6585(4) 0.88206(8)
C14 C 0.1207(9) 0.8490(7) 0.94099(12)
H8 H 0.1454 0.9118 0.9609
C16 C 0.2210(9) 0.8887(7) 0.91359(12)
H10 H 0.3139 0.9790 0.9141
C18 C 0.1799(9) 0.7891(7) 0.88440(12)
H12 H 0.2494 0.8125 0.8659
Mn1 Mn 0.6667 0.3333 0.87519(2)
N1 N 0.2802(4) 0.2664(3) 0.93953(7)
H1 H 0.3095 0.2345 0.9589
O1 O 0.4031(3) 0.5075(3) 0.82611(6)
O2 O 0.5546(4) 0.4265(3) 0.84538(6)
O3 O 0.4942(4) 0.3001(3) 0.91404(6)
C1 C 0.4406(4) 0.4434(3) 0.84910(7)
C2 C 0.3415(4) 0.3827(3) 0.88206(8)
C3 C 0.3807(4) 0.3172(3) 0.91133(8)
C4 C 0.1510(7) 0.2717(6) 0.94099(12)
H2 H 0.0882 0.2336 0.9609
C5 C 0.1113(7) 0.3323(6) 0.91359(12)
H3 H 0.0210 0.3349 0.9141
C6 C 0.2109(7) 0.3908(6) 0.88440(12)
H4 H 0.1875 0.4369 0.8659
Na2 Na 0.6666 0.3333 0.96375(5)
N2 N 0.7336(3) 0.0138(5) 0.93953(7)
N3 N 0.9862(5) 0.7198(4) 0.93953(7)
H5 H 0.7655 0.0750 0.9589
H6 H 0.9250 0.6905 0.9589
O6 O 0.4925(3) 0.8956(4) 0.82611(6)
O8 O 0.5735(3) 0.1281(5) 0.84538(6)
O9 O 0.8719(5) 0.4454(4) 0.84538(6)
O10 O 0.6999(3) 0.1941(5) 0.91404(6)
O11 O 0.8059(5) 0.5058(4) 0.91404(6)
O12 O 0.4726(5) 0.6334(3) 0.74737(6)
O13 O 0.1609(4) 0.5274(5) 0.74737(6)
O14 O 0.3666(3) 0.8391(4) 0.74737(6)
C11 C 0.6828(3) 0.0635(5) 0.91133(8)
C12 C 0.9365(5) 0.6193(4) 0.91133(8)
C7 C 0.5566(3) 0.9972(5) 0.84910(7)
C9 C 0.6173(3) 0.9588(5) 0.88206(8)
C13 C 0.7283(6) 0.8793(9) 0.94099(12)
H7 H 0.7664 0.8546 0.9609
C15 C 0.6677(6) 0.7790(9) 0.91359(12)
H9 H 0.6651 0.6861 0.9141
C17 C 0.6092(6) 0.8201(9) 0.88440(12)
H11 H 0.5631 0.7506 0.8659
Na1 Na 0.3333 0.6666 0.29708(5)
O1_2 O 0.1044(4) 0.5075(3) 0.32611(6)
C1_2 C 0.0028(5) 0.4434(3) 0.34910(7)
C2_2 C 0.0412(5) 0.3827(3) 0.38206(8)
C4_2 C 0.1207(9) 0.2717(6) 0.44099(12)
H2_2 H 0.1454 0.2336 0.4609
C5_2 C 0.2210(9) 0.3323(6) 0.41359(12)
H3_2 H 0.3139 0.3349 0.4141
C6_2 C 0.1799(9) 0.3908(6) 0.38440(12)
H4_2 H 0.2494 0.4369 0.3659
O6_2 O 0.4031(5) 0.8956(4) 0.32611(6)
O7 O 0.4925(5) 0.5969(3) 0.32611(6)
O12_2 O 0.1609(6) 0.6334(3) 0.24737(6)
O13_2 O 0.3666(6) 0.5274(5) 0.24737(6)
O14_2 O 0.4726(5) 0.8391(4) 0.24737(6)
Mn1_2 Mn 0.6666 0.3333 0.37519(2)
N1_2 N 0.9862(5) 0.2664(3) 0.43953(7)
H1_2 H 0.9250 0.2345 0.4589
O2_2 O 0.8719(5) 0.4265(3) 0.34538(6)
O3_2 O 0.8059(5) 0.3001(3) 0.41404(6)
C3_2 C 0.9365(5) 0.3172(3) 0.41133(8)
Na2_2 Na 0.6666 0.3333 0.46375(5)
N2_2 N 0.2802(6) 0.0138(5) 0.43953(7)
N3_2 N 0.7336(6) 0.7198(4) 0.43953(7)
H5_2 H 0.3095 0.0750 0.4589
H6_2 H 0.7655 0.6905 0.4589
O8_2 O 0.5546(6) 0.1281(5) 0.34538(6)
O9_2 O 0.5735(6) 0.4454(4) 0.34538(6)
O10_2 O 0.4942(6) 0.1941(5) 0.41404(6)
O11_2 O 0.6999(6) 0.5058(4) 0.41404(6)
C8_2 C 0.5566(6) 0.5594(4) 0.34910(7)
C10_2 C 0.6173(6) 0.6585(4) 0.38206(8)
C11_2 C 0.3807(6) 0.0635(5) 0.41133(8)
C12_2 C 0.6828(6) 0.6193(4) 0.41133(8)
C14_2 C 0.7283(11) 0.8490(7) 0.44099(12)
H8_2 H 0.7664 0.9118 0.4609
C16_2 C 0.6677(11) 0.8887(7) 0.41359(12)
H10_2 H 0.6651 0.9790 0.4141
C18_2 C 0.6092(11) 0.7891(7) 0.38440(12)
H12_2 H 0.5631 0.8125 0.3659
C7_2 C 0.4406(6) 0.9972(5) 0.34910(7)
C9_2 C 0.3415(6) 0.9588(5) 0.38206(8)
C13_2 C 0.1510(11) 0.8793(9) 0.44099(12)
H7_2 H 0.0882 0.8546 0.4609
C15_2 C 0.1113(11) 0.7790(9) 0.41359(12)
H9_2 H 0.0210 0.6861 0.4141
C17_2 C 0.2109(11) 0.8201(9) 0.38440(12)
H11_2 H 0.1875 0.7506 0.3659
Na4_2 Na -0.0000 0.0000 0.13041(5)
Na4_3 Na -0.0000 1.0000 0.13041(5)
Na4_4 Na 1.0000 0.0000 0.13041(5)
N3_3 N 0.6529(5) 0.0531(4) 0.27286(7)
H6_3 H 0.5917 0.0238 0.2922
O6_3 O 0.1592(3) 0.2289(4) 0.15944(6)
O14_3 O 0.0332(3) 0.1725(4) 0.08071(6)
C14_3 C 0.7874(9) 0.1823(7) 0.27432(12)
H8_3 H 0.8121 0.2451 0.2942
C16_3 C 0.8877(9) 0.2220(7) 0.24692(12)
H10_3 H 0.9806 0.3123 0.2474
C18_3 C 0.8466(9) 0.1224(7) 0.21773(12)
H12_3 H 0.9161 0.1458 0.1992
Mn1_3 Mn 0.3334 0.6666 0.20852(2)
O1_3 O 0.0698(3) 0.8408(3) 0.15944(6)
O2_3 O 0.2213(4) 0.7598(3) 0.17871(6)
C1_3 C 0.1073(4) 0.7767(3) 0.18243(7)
C2_3 C 0.0082(4) 0.7160(3) 0.21539(8)
C3_3 C 0.0474(4) 0.6505(3) 0.24466(8)
Na4_5 Na 1.0000 1.0000 0.13041(5)
N2_3 N 0.4003(3) 0.3471(5) 0.27286(7)
H5_3 H 0.4322 0.4083 0.2922
O5_2 O 0.7711(4) 0.9302(3) 0.15944(6)
O8_3 O 0.2402(3) 0.4614(5) 0.17871(6)
O9_3 O 0.5386(5) 0.7787(4) 0.17871(6)
O12_3 O 0.1392(5) 0.9668(3) 0.08071(6)
C7_3 C 0.2233(3) 0.3305(5) 0.18243(7)
C8_3 C 0.6695(5) 0.8927(4) 0.18243(7)
C9_3 C 0.2840(3) 0.2921(5) 0.21539(8)
C10_3 C 0.7079(5) 0.9918(4) 0.21539(8)
C11_3 C 0.3495(3) 0.3968(5) 0.24466(8)
C12_3 C 0.6032(5) 0.9526(4) 0.24466(8)
C13_3 C 0.3950(6) 0.2126(9) 0.27432(12)
H7_3 H 0.4331 0.1879 0.2942
C15_3 C 0.3344(6) 0.1123(9) 0.24692(12)
H9_3 H 0.3318 0.0194 0.2474
C17_3 C 0.2759(6) 0.1534(9) 0.21773(12)
H11_3 H 0.2298 0.0839 0.1992
N1_3 N 0.9469(4) 0.5997(3) 0.27286(7)
H1_3 H 0.9762 0.5678 0.2922
C4_3 C 0.8177(7) 0.6050(6) 0.27432(12)
H2_3 H 0.7549 0.5669 0.2942
C5_3 C 0.7780(7) 0.6656(6) 0.24692(12)
H3_3 H 0.6877 0.6682 0.2474
C6_3 C 0.8776(7) 0.7241(6) 0.21773(12)
H4_3 H 0.8542 0.7702 0.1992
O13_3 O 0.8275(4) 0.8608(5) 0.08071(6)
Na1_2 Na -0.0000 -0.0001 0.63041(5)
O6_4 O 0.0698(5) 0.2289(4) 0.65944(6)
O14_4 O 0.1392(5) 0.1725(4) 0.58071(6)
Na1_3 Na -0.0000 0.9999 0.63041(5)
O7_2 O 0.1592(5) 0.9302(3) 0.65944(6)
O13_4 O 0.0332(6) 0.8608(5) 0.58071(6)
Na1_4 Na 1.0000 -0.0001 0.63041(5)
N3_4 N 0.4003(6) 0.0531(4) 0.77286(7)
H6_4 H 0.4322 0.0238 0.7922
C14_4 C 0.3950(11) 0.1823(7) 0.77432(12)
H8_4 H 0.4331 0.2451 0.7942
C16_4 C 0.3344(11) 0.2220(7) 0.74692(12)
H10_4 H 0.3318 0.3123 0.7474
C18_4 C 0.2759(11) 0.1224(7) 0.71773(12)
H12_4 H 0.2298 0.1458 0.6992
Mn1_4 Mn 0.3333 0.6666 0.70852(2)
Na1_5 Na 1.0000 0.9999 0.63041(5)
N1_4 N 0.6529(5) 0.5997(3) 0.77286(7)
H1_4 H 0.5917 0.5678 0.7922
O1_4 O 0.7711(4) 0.8408(3) 0.65944(6)
O2_4 O 0.5386(5) 0.7598(3) 0.67871(6)
C1_4 C 0.6695(5) 0.7767(3) 0.68243(7)
C2_4 C 0.7079(5) 0.7160(3) 0.71539(8)
C3_4 C 0.6032(5) 0.6505(3) 0.74466(8)
C4_4 C 0.7874(9) 0.6050(6) 0.77432(12)
H2_4 H 0.8121 0.5669 0.7942
C5_4 C 0.8877(9) 0.6656(6) 0.74692(12)
H3_4 H 0.9806 0.6682 0.7474
C6_4 C 0.8466(9) 0.7241(6) 0.71773(12)
H4_4 H 0.9161 0.7702 0.6992
O8_4 O 0.2213(6) 0.4614(5) 0.67871(6)
O9_4 O 0.2402(6) 0.7787(4) 0.67871(6)
O12_4 O 0.8275(6) 0.9668(3) 0.58071(6)
C7_4 C 0.1073(6) 0.3305(5) 0.68243(7)
C8_4 C 0.2233(6) 0.8927(4) 0.68243(7)
C9_4 C 0.0082(6) 0.2921(5) 0.71539(8)
C10_4 C 0.2840(6) 0.9918(4) 0.71539(8)
C11_4 C 0.0474(6) 0.3968(5) 0.74466(8)
C12_4 C 0.3495(6) 0.9526(4) 0.74466(8)
N2_4 N 0.9469(6) 0.3471(5) 0.77286(7)
H5_4 H 0.9762 0.4083 0.7922
C13_4 C 0.8177(11) 0.2126(9) 0.77432(12)
H7_4 H 0.7549 0.1879 0.7942
C15_4 C 0.7780(11) 0.1123(9) 0.74692(12)
H9_4 H 0.6877 0.0194 0.7474
C17_4 C 0.8776(11) 0.1534(9) 0.71773(12)
H11_4 H 0.8542 0.0839 0.6992
Mn1_5 Mn 0.0000 -0.0000 0.54186(2)
N3_5 N 0.3195(5) 0.3865(4) 0.60620(7)
H6_5 H 0.2583 0.3572 0.6256
O5_3 O 0.4377(4) 0.2636(3) 0.49278(6)
O9_5 O 0.2052(5) 0.1121(4) 0.51205(6)
C8_5 C 0.3361(5) 0.2261(4) 0.51577(7)
C10_5 C 0.3745(5) 0.3252(4) 0.54873(8)
C12_5 C 0.2698(5) 0.2860(4) 0.57800(8)
C14_5 C 0.4540(9) 0.5157(7) 0.60766(12)
H8_5 H 0.4787 0.5785 0.6276
C16_5 C 0.5543(9) 0.5554(7) 0.58026(12)
H10_5 H 0.6472 0.6457 0.5808
C18_5 C 0.5132(9) 0.4558(7) 0.55107(12)
H12_5 H 0.5827 0.4792 0.5326
Mn1_6 Mn 0.0000 1.0000 0.54186(2)
N2_5 N 0.0669(3) 0.6805(5) 0.60620(7)
H5_5 H 0.0988 0.7417 0.6256
C11_5 C 0.0161(3) 0.7302(5) 0.57800(8)
C13_5 C 0.0616(6) 0.5460(9) 0.60766(12)
H7_5 H 0.0997 0.5213 0.6276
C15_5 C 0.0010(6) 0.4457(9) 0.58026(12)
Mn1_7 Mn 1.0000 -0.0000 0.54186(2)
O1_5 O 0.7364(3) 0.1742(3) 0.49278(6)
O2_5 O 0.8879(4) 0.0932(3) 0.51205(6)
C1_5 C 0.7739(4) 0.1101(3) 0.51577(7)
C2_5 C 0.6748(4) 0.0494(3) 0.54873(8)
H3_5 H 0.3543 0.0016 0.5808
C6_5 C 0.5442(7) 0.0575(6) 0.55107(12)
H4_5 H 0.5208 0.1036 0.5326
O6_5 O 0.8258(3) 0.5623(4) 0.49278(6)
Mn1_8 Mn 1.0000 1.0000 0.54186(2)
N1_5 N 0.6135(4) 0.9331(3) 0.60620(7)
H1_5 H 0.6428 0.9012 0.6256
C3_5 C 0.7140(4) 0.9839(3) 0.57800(8)
C4_5 C 0.4843(7) 0.9384(6) 0.60766(12)
H2_5 H 0.4215 0.9003 0.6276
C5_5 C 0.4446(7) 0.9990(6) 0.58026(12)
O8_5 O 0.9068(3) 0.7948(5) 0.51205(6)
C7_5 C 0.8899(3) 0.6639(5) 0.51577(7)
C9_5 C 0.9506(3) 0.6255(5) 0.54873(8)
H9_5 H 0.9984 0.3528 0.5808
C17_5 C 0.9425(6) 0.4868(9) 0.55107(12)
H11_5 H 0.8964 0.4173 0.5326
Mn1_9 Mn -0.0001 -0.0000 0.04186(2)
O2_6 O 0.2052(5) 0.0932(3) 0.01205(6)
C1_6 C 0.3361(5) 0.1101(3) 0.01577(7)
C2_6 C 0.3745(5) 0.0494(3) 0.04873(8)
H3_6 H 0.6472 0.0016 0.0808
C6_6 C 0.5132(9) 0.0575(6) 0.05107(12)
H4_6 H 0.5827 0.1036 0.0326
N3_6 N 0.0669(6) 0.3865(4) 0.10620(7)
H6_6 H 0.0988 0.3572 0.1256
C12_6 C 0.0161(6) 0.2860(4) 0.07800(8)
C14_6 C 0.0616(11) 0.5157(7) 0.10766(12)
H8_6 H 0.0997 0.5785 0.1276
C16_6 C 0.0010(11) 0.5554(7) 0.08026(12)
O1_6 O 0.4377(4) 0.1742(3) 0.99278(6)
O6_6 O 0.7364(5) 0.5623(4) 0.99278(6)
O7_3 O 0.8258(5) 0.2636(3) 0.99278(6)
Mn1_10 Mn -0.0001 1.0000 0.04186(2)
N1_6 N 0.3195(5) 0.9331(3) 0.10620(7)
H1_6 H 0.2583 0.9012 0.1256
C3_6 C 0.2698(5) 0.9839(3) 0.07800(8)
C4_6 C 0.4540(9) 0.9384(6) 0.10766(12)
H2_6 H 0.4787 0.9003 0.1276
C5_6 C 0.5543(9) 0.9990(6) 0.08026(12)
Mn1_11 Mn 0.9999 -0.0000 0.04186(2)
O9_6 O 0.9068(6) 0.1121(4) 0.01205(6)
C8_6 C 0.8899(6) 0.2261(4) 0.01577(7)
C10_6 C 0.9506(6) 0.3252(4) 0.04873(8)
H10_6 H 0.9984 0.6457 0.0808
C18_6 C 0.9425(11) 0.4558(7) 0.05107(12)
H12_6 H 0.8964 0.4792 0.0326
Mn1_12 Mn 0.9999 1.0000 0.04186(2)
N2_6 N 0.6135(6) 0.6805(5) 0.10620(7)
H5_6 H 0.6428 0.7417 0.1256
O8_6 O 0.8879(6) 0.7948(5) 0.01205(6)
C7_6 C 0.7739(6) 0.6639(5) 0.01577(7)
C9_6 C 0.6748(6) 0.6255(5) 0.04873(8)
C11_6 C 0.7140(6) 0.7302(5) 0.07800(8)
C13_6 C 0.4843(11) 0.5460(9) 0.10766(12)
H7_6 H 0.4215 0.5213 0.1276
C15_6 C 0.4446(11) 0.4457(9) 0.08026(12)
H9_6 H 0.3543 0.3528 0.0808
C17_6 C 0.5442(11) 0.4868(9) 0.05107(12)
H11_6 H 0.5208 0.4173 0.0326
loop_
_geom_bond_atom_site_label_1
_geom_bond_atom_site_label_2
_geom_bond_site_symmetry_1
_geom_bond_site_symmetry_2
Na4 O5 1_555 1_555
O5 C8 1_555 1_555
C10 C8 1_555 1_555
H8 C14 1_555 1_555
C16 C14 1_555 1_555
H10 C16 1_555 1_555
C18 C10 1_555 1_555
H12 C18 1_555 1_555
C16 C18 1_555 1_555
Mn1 O2 1_555 1_555
Na4 O1 1_555 1_555
N1 H1 1_555 1_555
O1 C1 1_555 1_555
O2 C1 1_555 1_555
O3 Mn1 1_555 1_555
C1 C2 1_555 1_555
C2 C3 1_555 1_555
C3 N1 1_555 1_555
C4 N1 1_555 1_555
H2 C4 1_555 1_555
C5 C4 1_555 1_555
H3 C5 1_555 1_555
C6 C2 1_555 1_555
H4 C6 1_555 1_555
Na2 O3 1_555 1_555
N2 H5 1_555 1_555
N3 H6 1_555 1_555
O6 Na4 1_555 1_555
O8 Mn1 1_555 1_555
O9 Mn1 1_555 1_555
O10 Mn1 1_555 1_555
O11 Mn1 1_555 1_555
O12 Na4 1_555 1_555
O13 Na4 1_555 1_555
O14 Na4 1_555 1_555
C11 N2 1_555 1_555
C12 N3 1_555 1_555
O3 C3 1_555 1_555
C5 C6 1_555 1_555
Na2 O10 1_555 1_555
Na2 O11 1_555 1_555
O10 C11 1_555 1_555
O11 C12 1_555 1_555
O6 C7 1_555 1_555
C9 C7 1_555 1_555
H7 C13 1_555 1_555
C15 C13 1_555 1_555
H9 C15 1_555 1_555
C17 C9 1_555 1_555
H11 C17 1_555 1_555
C15 C17 1_555 1_555
Na1 O1_2 1_555 1_555
O1_2 C1_2 1_555 1_555
C1_2 C2_2 1_555 1_555
H2_2 C4_2 1_555 1_555
C5_2 C4_2 1_555 1_555
H3_2 C5_2 1_555 1_555
C6_2 C2_2 1_555 1_555
H4_2 C6_2 1_555 1_555
O6_2 Na1 1_555 1_555
O7 Na1 1_555 1_555
O12_2 Na1 1_555 1_555
O13_2 Na1 1_555 1_555
O14_2 Na1 1_555 1_555
C5_2 C6_2 1_555 1_555
Mn1_2 O2_2 1_555 1_555
N1_2 H1_2 1_555 1_555
O3_2 Mn1_2 1_555 1_555
C3_2 N1_2 1_555 1_555
Na2_2 O3_2 1_555 1_555
N2_2 H5_2 1_555 1_555
N3_2 H6_2 1_555 1_555
O7 C8_2 1_555 1_555
O8_2 Mn1_2 1_555 1_555
O9_2 Mn1_2 1_555 1_555
O10_2 Mn1_2 1_555 1_555
O11_2 Mn1_2 1_555 1_555
C8_2 O9_2 1_555 1_555
C10_2 C8_2 1_555 1_555
C11_2 N2_2 1_555 1_555
C12_2 N3_2 1_555 1_555
C14_2 N3_2 1_555 1_555
H8_2 C14_2 1_555 1_555
C16_2 C14_2 1_555 1_555
H10_2 C16_2 1_555 1_555
C18_2 C10_2 1_555 1_555
H12_2 C18_2 1_555 1_555
O3_2 C3_2 1_555 1_555
Na2_2 O10_2 1_555 1_555
Na2_2 O11_2 1_555 1_555
O10_2 C11_2 1_555 1_555
O11_2 C12_2 1_555 1_555
C10_2 C12_2 1_555 1_555
C16_2 C18_2 1_555 1_555
O6_2 C7_2 1_555 1_555
C9_2 C7_2 1_555 1_555
H7_2 C13_2 1_555 1_555
C15_2 C13_2 1_555 1_555
H9_2 C15_2 1_555 1_555
C17_2 C9_2 1_555 1_555
H11_2 C17_2 1_555 1_555
C15_2 C17_2 1_555 1_555
N3_3 H6_3 1_555 1_555
O6_3 Na4_2 1_555 1_555
O14_3 Na4_2 1_555 1_555
C14_3 N3_3 1_555 1_555
H8_3 C14_3 1_555 1_555
C16_3 C14_3 1_555 1_555
H10_3 C16_3 1_555 1_555
H12_3 C18_3 1_555 1_555
C16_3 C18_3 1_555 1_555
Mn1_3 O2_3 1_555 1_555
Na4_3 O1_3 1_555 1_555
O1_3 C1_3 1_555 1_555
O2_3 C1_3 1_555 1_555
O12_2 Mn1_3 1_555 1_555
C1_3 C2_3 1_555 1_555
C2_3 C3_3 1_555 1_555
Na4_5 O5_2 1_555 1_555
N2_3 H5_3 1_555 1_555
O6_3 C7_3 1_555 1_555
O5_2 C8_3 1_555 1_555
O8_3 Mn1_3 1_555 1_555
O9_3 Mn1_3 1_555 1_555
O13_2 Mn1_3 1_555 1_555
O14_2 Mn1_3 1_555 1_555
O12_3 Na4_3 1_555 1_555
C7_3 O8_3 1_555 1_555
C8_3 O9_3 1_555 1_555
C9_3 C7_3 1_555 1_555
C10_3 C8_3 1_555 1_555
C11_3 N2_3 1_555 1_555
C13_3 N2_3 1_555 1_555
H7_3 C13_3 1_555 1_555
C15_3 C13_3 1_555 1_555
H9_3 C15_3 1_555 1_555
C17_3 C9_3 1_555 1_555
H11_3 C17_3 1_555 1_555
O12_2 C3_3 1_555 1_555
O13_2 C11_3 1_555 1_555
O14_2 C12_3 1_555 1_555
C9_3 C11_3 1_555 1_555
C10_3 C12_3 1_555 1_555
C15_3 C17_3 1_555 1_555
N1_3 H1_3 1_555 1_555
C4_3 N1_3 1_555 1_555
H2_3 C4_3 1_555 1_555
C5_3 C4_3 1_555 1_555
H3_3 C5_3 1_555 1_555
H4_3 C6_3 1_555 1_555
O13_3 Na4_5 1_555 1_555
C5_3 C6_3 1_555 1_555
O6_4 Na1_2 1_555 1_555
O14_4 Na1_2 1_555 1_555
O7_2 Na1_3 1_555 1_555
O13_4 Na1_3 1_555 1_555
N3_4 H6_4 1_555 1_555
C14_4 N3_4 1_555 1_555
H8_4 C14_4 1_555 1_555
C16_4 C14_4 1_555 1_555
H10_4 C16_4 1_555 1_555
H12_4 C18_4 1_555 1_555
C16_4 C18_4 1_555 1_555
Mn1_4 O2_4 1_555 1_555
Na1_5 O1_4 1_555 1_555
N1_4 H1_4 1_555 1_555
O1_4 C1_4 1_555 1_555
O2_4 C1_4 1_555 1_555
O12 Mn1_4 1_555 1_555
C1_4 C2_4 1_555 1_555
C2_4 C3_4 1_555 1_555
C3_4 N1_4 1_555 1_555
C4_4 N1_4 1_555 1_555
H2_4 C4_4 1_555 1_555
C5_4 C4_4 1_555 1_555
H3_4 C5_4 1_555 1_555
C6_4 C2_4 1_555 1_555
H4_4 C6_4 1_555 1_555
O6_4 C7_4 1_555 1_555
O7_2 C8_4 1_555 1_555
O8_4 Mn1_4 1_555 1_555
O9_4 Mn1_4 1_555 1_555
O13 Mn1_4 1_555 1_555
O14 Mn1_4 1_555 1_555
O12_4 Na1_5 1_555 1_555
C7_4 O8_4 1_555 1_555
C8_4 O9_4 1_555 1_555
C9_4 C7_4 1_555 1_555
C10_4 C8_4 1_555 1_555
O12 C3_4 1_555 1_555
C5_4 C6_4 1_555 1_555
O13 C11_4 1_555 1_555
O14 C12_4 1_555 1_555
C9_4 C11_4 1_555 1_555
C10_4 C12_4 1_555 1_555
N2_4 H5_4 1_555 1_555
C13_4 N2_4 1_555 1_555
H7_4 C13_4 1_555 1_555
C15_4 C13_4 1_555 1_555
H9_4 C15_4 1_555 1_555
H11_4 C17_4 1_555 1_555
C15_4 C17_4 1_555 1_555
Na2_2 O5_3 1_555 1_555
N3_5 H6_5 1_555 1_555
O5_3 C8_5 1_555 1_555
O9_5 Mn1_5 1_555 1_555
O14_4 Mn1_5 1_555 1_555
C8_5 O9_5 1_555 1_555
C10_5 C8_5 1_555 1_555
C12_5 N3_5 1_555 1_555
C14_5 N3_5 1_555 1_555
H8_5 C14_5 1_555 1_555
C16_5 C14_5 1_555 1_555
H10_5 C16_5 1_555 1_555
C18_5 C10_5 1_555 1_555
H12_5 C18_5 1_555 1_555
O14_4 C12_5 1_555 1_555
C10_5 C12_5 1_555 1_555
C16_5 C18_5 1_555 1_555
N2_5 H5_5 1_555 1_555
O13_4 Mn1_6 1_555 1_555
C11_5 N2_5 1_555 1_555
C13_5 N2_5 1_555 1_555
H7_5 C13_5 1_555 1_555
C15_5 C13_5 1_555 1_555
O13_4 C11_5 1_555 1_555
Mn1_7 O2_5 1_555 1_555
Na2_2 O1_5 1_555 1_555
O1_5 C1_5 1_555 1_555
O2_5 C1_5 1_555 1_555
C1_5 C2_5 1_555 1_555
C6_5 C2_5 1_555 1_555
H4_5 C6_5 1_555 1_555
O6_5 Na2_2 1_555 1_555
N1_5 H1_5 1_555 1_555
O12_4 Mn1_8 1_555 1_555
C3_5 N1_5 1_555 1_555
C4_5 N1_5 1_555 1_555
H2_5 C4_5 1_555 1_555
C5_5 C4_5 1_555 1_555
O6_5 C7_5 1_555 1_555
O8_5 Mn1_8 1_555 1_555
C7_5 O8_5 1_555 1_555
C9_5 C7_5 1_555 1_555
C17_5 C9_5 1_555 1_555
H11_5 C17_5 1_555 1_555
O12_4 C3_5 1_555 1_555
Mn1_9 O2_6 1_555 1_555
O2_6 C1_6 1_555 1_555
C1_6 C2_6 1_555 1_555
C6_6 C2_6 1_555 1_555
H4_6 C6_6 1_555 1_555
N3_6 H6_6 1_555 1_555
O14_3 Mn1_9 1_555 1_555
C12_6 N3_6 1_555 1_555
C14_6 N3_6 1_555 1_555
H8_6 C14_6 1_555 1_555
C16_6 C14_6 1_555 1_555
O14_3 C12_6 1_555 1_555
Na2 O1_6 1_555 1_555
O6_6 Na2 1_555 1_555
O7_3 Na2 1_555 1_555
N1_6 H1_6 1_555 1_555
O12_3 Mn1_10 1_555 1_555
C3_6 N1_6 1_555 1_555
C4_6 N1_6 1_555 1_555
H2_6 C4_6 1_555 1_555
C5_6 C4_6 1_555 1_555
O12_3 C3_6 1_555 1_555
O9_6 Mn1_11 1_555 1_555
C8_6 O9_6 1_555 1_555
C10_6 C8_6 1_555 1_555
C18_6 C10_6 1_555 1_555
H12_6 C18_6 1_555 1_555
N2_6 H5_6 1_555 1_555
O8_6 Mn1_12 1_555 1_555
O13_3 Mn1_12 1_555 1_555
C7_6 O8_6 1_555 1_555
C9_6 C7_6 1_555 1_555
C11_6 N2_6 1_555 1_555
C13_6 N2_6 1_555 1_555
H7_6 C13_6 1_555 1_555
C15_6 C13_6 1_555 1_555
H9_6 C15_6 1_555 1_555
C17_6 C9_6 1_555 1_555
H11_6 C17_6 1_555 1_555
O13_3 C11_6 1_555 1_555
C9_6 C11_6 1_555 1_555
C15_6 C17_6 1_555 1_555

#END
