
###############################################################################
#
# This file contains modified crystal structure data generated from the
# MOF subset of the Cambridge Structural Database (CSD) v543 
# hosted by the Cambridge Crystallographic Data Centre (CCDC).
#
# This work is licensed under the Creative Commons
# Attribution-NonCommercial-ShareAlike 4.0 International License.
# To view a copy of this license, visit
# http://creativecommons.org/licenses/by-nc-sa/4.0/
# or send a letter to
# Creative Commons, PO Box 1866, Mountain View, CA 94042, USA.
#
# CIF created using the CSD Python API on 29 September 2022
# The structure has been converted into the P1 space group
# The structure has a 3D framework
# The original CSD entry DUMXEQ is in the monoclinic crystal system
# The framework has been calculated to contain at least 10.0% void space
# The void calculation uses a probe of radius 1.32A, grid spacing 0.4
#
###############################################################################

data_DUMXEQ
_chemical_formula_moiety         '(C48 H32 Dy4 N12 O36)n'
_symmetry_cell_setting           triclinic
_symmetry_space_group_name_H-M   'P 1'
_symmetry_Int_Tables_number      1
_space_group_name_Hall           'P 1'
loop_
_symmetry_equiv_pos_site_id
_symmetry_equiv_pos_as_xyz
1 x,y,z
_cell_length_a                   10.1353(2)
_cell_length_b                   17.3501(2)
_cell_length_c                   11.3594(2)
_cell_angle_alpha                90
_cell_angle_beta                 109.798(2)
_cell_angle_gamma                90
_cell_volume                     1879.46
loop_
_atom_site_label
_atom_site_type_symbol
_atom_site_fract_x
_atom_site_fract_y
_atom_site_fract_z
O5 O 0.0599(3) 0.13947(14) 0.1583(2)
C2 C 0.0374(4) 0.1435(2) 0.0424(4)
H6 H 0.0488 0.4036 0.0391
C11 C 0.0509(4) 0.2882(2) 0.0505(4)
H7 H 0.0991 0.2852 0.1361
Dy5 Dy 0.008012(18) 0.006875(10) 0.180176(16)
Dy1 Dy 0.008012(18) 0.493125(10) 0.680176(16)
N1 N 0.2308(3) 0.5304(2) 0.9083(3)
O6 O 0.1450(3) 0.58142(15) 0.8435(2)
O7 O 0.0270(3) 0.08401(15) 0.9763(2)
O8 O 0.3346(3) 0.54783(18) 0.9955(3)
O9 O 0.2011(3) 0.46079(16) 0.8769(3)
C9 C 0.0102(4) 0.2212(2) 0.9801(4)
C10 C 0.0193(4) 0.3588(2) 0.9928(4)
O10 O 0.2276(3) 0.51499(16) 0.6552(3)
O12 O 0.0599(3) 0.36053(14) 0.6583(2)
O14 O 0.0270(3) 0.41599(15) 0.4763(2)
O2 O 0.8559(3) 0.58307(14) 0.7246(2)
O3 O 0.2092(3) 0.54737(15) 0.4585(2)
O4 O 0.9110(3) 0.43243(14) 0.8168(2)
N2 N 0.7170(3) 0.57514(17) 0.6900(3)
N3 N 0.9459(3) 0.36340(18) 0.8694(3)
C1 C 0.6349(4) 0.6016(2) 0.5760(4)
H1 H 0.6748 0.6266 0.5239
C3 C 0.5183(4) 0.5319(2) 0.7347(4)
H2 H 0.4801 0.5097 0.7904
C4 C 0.4925(4) 0.5909(2) 0.5386(4)
H3 H 0.4364 0.6079 0.4599
C5 C 0.9368(4) 0.2282(2) 0.8528(4)
H4 H 0.9098 0.1842 0.8036
C6 C 0.4303(4) 0.5551(2) 0.6164(4)
C7 C 0.2764(4) 0.5379(2) 0.5741(4)
C8 C 0.6607(4) 0.5418(2) 0.7690(4)
H5 H 0.7187 0.5253 0.8473
C12 C 0.9042(4) 0.2991(2) 0.7998(4)
H8 H 0.8528 0.3034 0.7150
O11 O 0.7908(3) 0.45263(15) 0.5415(2)
O13 O 0.9730(3) 0.58401(15) 0.5237(2)
Dy3 Dy 0.991988(18) 0.993125(10) 0.819824(16)
Dy4 Dy 0.991988(18) 0.506875(10) 0.319824(16)
O3_2 O 0.7908(3) 0.04737(15) 0.0415(2)
H3_2 H 0.5636 0.1079 0.0401
O1 O 0.7724(3) 0.01499(16) 0.8448(3)
O2_2 O 0.1441(3) 0.08307(14) 0.7754(2)
N2_2 N 0.2830(3) 0.07514(17) 0.8100(3)
C1_2 C 0.3651(4) 0.1016(2) 0.9240(4)
H1_2 H 0.3252 0.1266 0.9761
C3_2 C 0.4817(4) 0.0319(2) 0.7653(4)
H2_2 H 0.5199 0.0097 0.7096
C4_2 C 0.5075(4) 0.0909(2) 0.9614(4)
C6_2 C 0.5697(4) 0.0551(2) 0.8836(4)
C7_2 C 0.7236(4) 0.0379(2) 0.9259(4)
C8_2 C 0.3393(4) 0.0418(2) 0.7310(4)
H5_2 H 0.2813 0.0253 0.6527
O4_2 O 0.0890(3) 0.93243(14) 0.6832(2)
N3_2 N 0.0541(3) 0.86340(18) 0.6306(3)
C5_2 C 0.0632(4) 0.7282(2) 0.6472(4)
H4_2 H 0.0902 0.6842 0.6964
C12_2 C 0.0958(4) 0.7991(2) 0.7002(4)
H8_2 H 0.1472 0.8034 0.7850
O11_2 O 0.2092(3) 0.95263(15) 0.9585(2)
N1_2 N 0.7692(3) 0.0304(2) 0.5917(3)
O6_2 O 0.8550(3) 0.08142(15) 0.6565(2)
O8_2 O 0.6654(3) 0.04783(18) 0.5045(3)
O14_2 O 0.9730(3) 0.91599(15) 0.0237(2)
O5_2 O 0.9401(3) 0.63947(14) 0.3417(2)
C2_2 C 0.9626(4) 0.6435(2) 0.4576(4)
O9_2 O 0.7989(3) 0.96079(16) 0.6231(3)
C9_2 C 0.9898(4) 0.7212(2) 0.5199(4)
C10_2 C 0.9807(4) 0.8588(2) 0.5072(4)
H6_2 H 0.9512 0.9036 0.4609
C11_2 C 0.9491(4) 0.7882(2) 0.4495(4)
H7_2 H 0.9009 0.7852 0.3639
O12_2 O 0.9401(3) 0.86053(14) 0.8417(2)
O1_2 O 0.7724(3) 0.48501(16) 0.3448(3)
O2_3 O 0.1441(3) 0.41693(14) 0.2754(2)
O4_3 O 0.0890(3) 0.56757(14) 0.1832(2)
N2_3 N 0.2830(3) 0.42486(17) 0.3100(3)
N3_3 N 0.0541(3) 0.63660(18) 0.1306(3)
C1_3 C 0.3651(4) 0.3984(2) 0.4240(4)
H1_3 H 0.3252 0.3734 0.4761
C3_3 C 0.4817(4) 0.4681(2) 0.2653(4)
H2_3 H 0.5199 0.4903 0.2096
C4_3 C 0.5075(4) 0.4091(2) 0.4614(4)
H3_3 H 0.5636 0.3921 0.5401
C5_3 C 0.0632(4) 0.7718(2) 0.1472(4)
H4_3 H 0.0902 0.8158 0.1964
C6_3 C 0.5697(4) 0.4449(2) 0.3836(4)
C7_3 C 0.7236(4) 0.4621(2) 0.4259(4)
C8_3 C 0.3393(4) 0.4582(2) 0.2310(4)
H5_3 H 0.2813 0.4747 0.1527
C12_3 C 0.0958(4) 0.7009(2) 0.2002(4)
H8_3 H 0.1472 0.6966 0.2850
N1_3 N 0.7692(3) 0.4696(2) 0.0917(3)
O6_3 O 0.8550(3) 0.41858(15) 0.1565(2)
O8_3 O 0.6654(3) 0.45217(18) 0.0045(3)
O9_3 O 0.7989(3) 0.53921(16) 0.1231(3)
C9_3 C 0.9898(4) 0.7788(2) 0.0199(4)
C10_3 C 0.9807(4) 0.6412(2) 0.0072(4)
C2_3 C 0.9626(4) 0.8565(2) 0.9576(4)
H6_3 H 0.9512 0.5964 0.9609
C11_3 C 0.9491(4) 0.7118(2) 0.9495(4)
H7_3 H 0.9009 0.7148 0.8639
C2_4 C 0.0374(4) 0.3565(2) 0.5424(4)
O9_4 O 0.2011(3) 0.03921(16) 0.3769(3)
C9_4 C 0.0102(4) 0.2788(2) 0.4801(4)
C10_4 C 0.0193(4) 0.1412(2) 0.4928(4)
H6_4 H 0.0488 0.0964 0.5391
C11_4 C 0.0509(4) 0.2118(2) 0.5505(4)
H7_4 H 0.0991 0.2148 0.6361
N1_4 N 0.2308(3) 0.9696(2) 0.4083(3)
O6_4 O 0.1450(3) 0.91858(15) 0.3435(2)
O8_4 O 0.3346(3) 0.95217(18) 0.4955(3)
O10_2 O 0.2276(3) 0.98501(16) 0.1552(3)
O4_4 O 0.9110(3) 0.06757(14) 0.3168(2)
N3_4 N 0.9459(3) 0.13660(18) 0.3694(3)
C5_4 C 0.9368(4) 0.2718(2) 0.3528(4)
H4_4 H 0.9098 0.3158 0.3036
C12_4 C 0.9042(4) 0.2009(2) 0.2998(4)
H8_4 H 0.8528 0.1966 0.2150
O2_4 O 0.8559(3) 0.91693(14) 0.2246(2)
N2_4 N 0.7170(3) 0.92486(17) 0.1900(3)
C1_4 C 0.6349(4) 0.8984(2) 0.0760(4)
H1_4 H 0.6748 0.8734 0.0239
C3_4 C 0.5183(4) 0.9681(2) 0.2347(4)
H2_4 H 0.4801 0.9903 0.2904
C4_4 C 0.4925(4) 0.9091(2) 0.0386(4)
C6_4 C 0.4303(4) 0.9449(2) 0.1164(4)
C7_4 C 0.2764(4) 0.9621(2) 0.0741(4)
C8_4 C 0.6607(4) 0.9582(2) 0.2690(4)
H5_4 H 0.7187 0.9747 0.3473
H3_4 H 0.4364 0.8921 0.9599
loop_
_geom_bond_atom_site_label_1
_geom_bond_atom_site_label_2
_geom_bond_site_symmetry_1
_geom_bond_site_symmetry_2
O5 C2 1_555 1_555
H7 C11 1_555 1_555
Dy5 O5 1_555 1_555
N1 O6 1_555 1_555
O6 Dy1 1_555 1_555
O8 N1 1_555 1_555
O9 Dy1 1_555 1_555
O10 Dy1 1_555 1_555
O12 Dy1 1_555 1_555
O14 Dy1 1_555 1_555
N1 O9 1_555 1_555
O10 C7 1_555 1_555
O2 N2 1_555 1_555
O3 C7 1_555 1_555
N2 C1 1_555 1_555
N3 O4 1_555 1_555
C1 H1 1_555 1_555
C3 H2 1_555 1_555
C4 C1 1_555 1_555
H3 C4 1_555 1_555
C5 H4 1_555 1_555
C6 C3 1_555 1_555
C7 C6 1_555 1_555
C8 N2 1_555 1_555
H5 C8 1_555 1_555
C12 N3 1_555 1_555
H8 C12 1_555 1_555
C3 C8 1_555 1_555
C4 C6 1_555 1_555
C5 C12 1_555 1_555
O1 C7_2 1_555 1_555
O2_2 N2_2 1_555 1_555
N2_2 C1_2 1_555 1_555
C1_2 H1_2 1_555 1_555
C3_2 H2_2 1_555 1_555
C4_2 C1_2 1_555 1_555
C6_2 C3_2 1_555 1_555
C7_2 C6_2 1_555 1_555
C8_2 N2_2 1_555 1_555
H5_2 C8_2 1_555 1_555
C3_2 C8_2 1_555 1_555
C4_2 C6_2 1_555 1_555
N3_2 O4_2 1_555 1_555
C5_2 H4_2 1_555 1_555
C12_2 N3_2 1_555 1_555
H8_2 C12_2 1_555 1_555
C5_2 C12_2 1_555 1_555
N1_2 O6_2 1_555 1_555
O8_2 N1_2 1_555 1_555
O5_2 C2_2 1_555 1_555
O13 C2_2 1_555 1_555
C2_2 C9_2 1_555 1_555
O9_2 Dy3 1_555 1_555
H6_2 C10_2 1_555 1_555
C11_2 C9_2 1_555 1_555
H7_2 C11_2 1_555 1_555
Dy4 O5_2 1_555 1_555
O12_2 Dy3 1_555 1_555
O13 Dy4 1_555 1_555
C10_2 C11_2 1_555 1_555
O1_2 C7_3 1_555 1_555
O2_3 N2_3 1_555 1_555
O11 C7_3 1_555 1_555
N2_3 C1_3 1_555 1_555
N3_3 O4_3 1_555 1_555
C1_3 H1_3 1_555 1_555
C3_3 H2_3 1_555 1_555
C4_3 C1_3 1_555 1_555
H3_3 C4_3 1_555 1_555
C5_3 H4_3 1_555 1_555
C6_3 C3_3 1_555 1_555
C7_3 C6_3 1_555 1_555
C8_3 N2_3 1_555 1_555
H5_3 C8_3 1_555 1_555
C12_3 N3_3 1_555 1_555
H8_3 C12_3 1_555 1_555
Dy4 O1_2 1_555 1_555
C3_3 C8_3 1_555 1_555
C4_3 C6_3 1_555 1_555
C5_3 C12_3 1_555 1_555
N1_3 O6_3 1_555 1_555
O6_3 Dy4 1_555 1_555
O8_3 N1_3 1_555 1_555
O9_3 Dy4 1_555 1_555
N1_3 O9_3 1_555 1_555
O12_2 C2_3 1_555 1_555
H7_3 C11_3 1_555 1_555
O12 C2_4 1_555 1_555
O14 C2_4 1_555 1_555
C2_4 C9_4 1_555 1_555
O9_4 Dy5 1_555 1_555
H6_4 C10_4 1_555 1_555
C11_4 C9_4 1_555 1_555
H7_4 C11_4 1_555 1_555
C10_4 C11_4 1_555 1_555
N1_4 O6_4 1_555 1_555
O8_4 N1_4 1_555 1_555
N3_4 O4_4 1_555 1_555
C5_4 H4_4 1_555 1_555
C12_4 N3_4 1_555 1_555
H8_4 C12_4 1_555 1_555
C5_4 C12_4 1_555 1_555
O10_2 C7_4 1_555 1_555
O2_4 N2_4 1_555 1_555
N2_4 C1_4 1_555 1_555
C1_4 H1_4 1_555 1_555
C3_4 H2_4 1_555 1_555
C4_4 C1_4 1_555 1_555
C6_4 C3_4 1_555 1_555
C7_4 C6_4 1_555 1_555
C8_4 N2_4 1_555 1_555
H5_4 C8_4 1_555 1_555
C3_4 C8_4 1_555 1_555
C4_4 C6_4 1_555 1_555

#END
