
###############################################################################
#
# This file contains modified crystal structure data generated from the
# MOF subset of the Cambridge Structural Database (CSD) v543 
# hosted by the Cambridge Crystallographic Data Centre (CCDC).
#
# This work is licensed under the Creative Commons
# Attribution-NonCommercial-ShareAlike 4.0 International License.
# To view a copy of this license, visit
# http://creativecommons.org/licenses/by-nc-sa/4.0/
# or send a letter to
# Creative Commons, PO Box 1866, Mountain View, CA 94042, USA.
#
# CIF created using the CSD Python API on 29 September 2022
# The structure has been converted into the P1 space group
# The structure has a 3D framework
# The original CSD entry DUMXEQ01 is in the monoclinic crystal system
# The framework has been calculated to contain at least 10.0% void space
# The void calculation uses a probe of radius 1.32A, grid spacing 0.4
#
###############################################################################

data_DUMXEQ01
_chemical_formula_moiety         '(C48 H32 Dy4 N12 O34)n'
_symmetry_cell_setting           triclinic
_symmetry_space_group_name_H-M   'P 1'
_symmetry_Int_Tables_number      1
_space_group_name_Hall           'P 1'
loop_
_symmetry_equiv_pos_site_id
_symmetry_equiv_pos_as_xyz
1 x,y,z
_cell_length_a                   10.1414(3)
_cell_length_b                   17.3983(4)
_cell_length_c                   11.3646(4)
_cell_angle_alpha                90
_cell_angle_beta                 110.085(3)
_cell_angle_gamma                90
_cell_volume                     1883.26
loop_
_atom_site_label
_atom_site_type_symbol
_atom_site_fract_x
_atom_site_fract_y
_atom_site_fract_z
Dy3 Dy 0.490529(19) 0.007044(10) 0.818718(17)
O6 O 0.5604(3) 0.86074(14) 0.1574(2)
C2 C 0.5373(4) 0.8567(2) 0.0428(4)
C3 C 0.5511(4) 0.7121(2) 0.0506(4)
H2 H 0.5986 0.7152 0.1365
H8 H 0.5491 0.5973 0.0399
Dy5 Dy 0.509471(19) 0.992956(10) 0.181282(17)
Dy1 Dy 0.509471(19) 0.507044(10) 0.681282(17)
O2 O 0.7028(3) 0.53865(15) 0.8794(3)
O4 O 0.3567(3) 0.41743(14) 0.7251(2)
O5 O 0.4119(3) 0.56798(14) 0.8169(2)
N1 N 0.7310(4) 0.4696(2) 0.9079(3)
O7 O 0.5261(3) 0.91584(14) 0.9748(2)
O8 O 0.6464(3) 0.41826(15) 0.8441(3)
N2 N 0.4468(3) 0.63686(17) 0.8696(3)
N3 N 0.2180(3) 0.42520(17) 0.6902(3)
C1 C 0.1353(4) 0.3994(2) 0.5773(4)
H1 H 0.1751 0.3745 0.5252
C4 C 0.0200(4) 0.4684(2) 0.7351(4)
C5 C 0.4376(4) 0.7721(2) 0.8526(4)
H4 H 0.4100 0.8160 0.8035
O9 O 0.8370(4) 0.4518(2) 0.9958(3)
C9 C 0.4051(4) 0.7010(2) 0.7986(4)
H6 H 0.3544 0.6967 0.7135
C10 C 0.5114(4) 0.7791(2) 0.9796(4)
C11 C 0.1618(4) 0.4592(2) 0.7688(4)
H7 H 0.2203 0.4764 0.8466
C12 C 0.5197(4) 0.6419(2) 0.9931(4)
O10 O 0.7283(3) 0.48579(15) 0.6557(3)
O11 O 0.2913(3) 0.54708(14) 0.5413(2)
O12 O 0.5604(3) 0.63926(14) 0.6574(2)
O13 O 0.4739(3) 0.41584(14) 0.5252(2)
O14 O 0.5261(3) 0.58416(14) 0.4748(2)
O3 O 0.7087(3) 0.45292(14) 0.4587(2)
H3 H 0.9822 0.4902 0.7912
C6 C 0.9925(4) 0.4096(2) 0.5387(4)
H5 H 0.9361 0.3925 0.4599
C7 C 0.7764(4) 0.4624(2) 0.5741(4)
C8 C 0.9318(4) 0.4455(2) 0.6171(4)
Dy4 Dy 0.490529(19) 0.492956(10) 0.318718(17)
O3_2 O 0.2913(3) 0.95292(14) 0.0413(2)
H5_2 H 0.0639 0.8925 0.0401
O1 O 0.2717(3) 0.98579(15) 0.8443(3)
H3_2 H 0.0178 0.9902 0.7088
C6_2 C 0.0075(4) 0.9096(2) 0.9613(4)
C7_2 C 0.2236(4) 0.9624(2) 0.9259(4)
C8_2 C 0.0682(4) 0.9455(2) 0.8829(4)
O14_2 O 0.4739(3) 0.08416(14) 0.0252(2)
O2_2 O 0.2972(3) 0.03865(15) 0.6206(3)
O5_2 O 0.5881(3) 0.06798(14) 0.6831(2)
O6_2 O 0.4396(3) 0.36074(14) 0.3426(2)
N2_2 N 0.5532(3) 0.13686(17) 0.6304(3)
C2_2 C 0.4627(4) 0.3567(2) 0.4572(4)
C3_2 C 0.4489(4) 0.2121(2) 0.4494(4)
H2_2 H 0.4014 0.2152 0.3635
C5_2 C 0.5624(4) 0.2721(2) 0.6474(4)
H4_2 H 0.5900 0.3160 0.6965
C9_2 C 0.5949(4) 0.2010(2) 0.7014(4)
H6_2 H 0.6456 0.1967 0.7865
C10_2 C 0.4886(4) 0.2791(2) 0.5204(4)
C12_2 C 0.4803(4) 0.1419(2) 0.5069(4)
H8_2 H 0.4509 0.0973 0.4601
O11_2 O 0.7087(3) 0.04708(14) 0.9587(2)
O12_2 O 0.4396(3) 0.13926(14) 0.8426(2)
O4_2 O 0.6433(3) 0.91743(14) 0.7749(2)
N1_2 N 0.2690(4) 0.9696(2) 0.5921(3)
O8_2 O 0.3536(3) 0.91826(15) 0.6559(3)
N3_2 N 0.7820(3) 0.92520(17) 0.8098(3)
C1_2 C 0.8647(4) 0.8994(2) 0.9227(4)
H1_2 H 0.8249 0.8745 0.9748
C4_2 C 0.9800(4) 0.9684(2) 0.7649(4)
O9_2 O 0.1630(4) 0.9518(2) 0.5042(3)
C11_2 C 0.8382(4) 0.9592(2) 0.7312(4)
H7_2 H 0.7797 0.9764 0.6534
O1_2 O 0.2717(3) 0.51421(15) 0.3443(3)
H3_3 H 0.0178 0.5098 0.2088
C6_3 C 0.0075(4) 0.5904(2) 0.4613(4)
H5_3 H 0.0639 0.6075 0.5401
C7_3 C 0.2236(4) 0.5376(2) 0.4259(4)
C8_3 C 0.0682(4) 0.5545(2) 0.3829(4)
O2_3 O 0.2972(3) 0.46135(15) 0.1206(3)
O4_3 O 0.6433(3) 0.58257(14) 0.2749(2)
O5_3 O 0.5881(3) 0.43202(14) 0.1831(2)
N1_3 N 0.2690(4) 0.5304(2) 0.0921(3)
O8_3 O 0.3536(3) 0.58174(15) 0.1559(3)
N2_3 N 0.5532(3) 0.36314(17) 0.1304(3)
N3_3 N 0.7820(3) 0.57480(17) 0.3098(3)
C1_3 C 0.8647(4) 0.6006(2) 0.4227(4)
H1_3 H 0.8249 0.6255 0.4748
C4_3 C 0.9800(4) 0.5316(2) 0.2649(4)
C5_3 C 0.5624(4) 0.2279(2) 0.1474(4)
H4_3 H 0.5900 0.1840 0.1965
O9_3 O 0.1630(4) 0.5482(2) 0.0042(3)
C9_3 C 0.5949(4) 0.2990(2) 0.2014(4)
H6_3 H 0.6456 0.3033 0.2865
C10_3 C 0.4886(4) 0.2209(2) 0.0204(4)
C11_3 C 0.8382(4) 0.5408(2) 0.2312(4)
H7_3 H 0.7797 0.5236 0.1534
C12_3 C 0.4803(4) 0.3581(2) 0.0069(4)
C2_3 C 0.4627(4) 0.1433(2) 0.9572(4)
C3_3 C 0.4489(4) 0.2879(2) 0.9494(4)
H2_3 H 0.4014 0.2848 0.8635
H8_3 H 0.4509 0.4027 0.9601
O4_4 O 0.3567(3) 0.08257(14) 0.2251(2)
N1_4 N 0.7310(4) 0.0304(2) 0.4079(3)
O8_4 O 0.6464(3) 0.08174(15) 0.3441(3)
N3_4 N 0.2180(3) 0.07480(17) 0.1902(3)
C1_4 C 0.1353(4) 0.1006(2) 0.0773(4)
H1_4 H 0.1751 0.1255 0.0252
C4_4 C 0.0200(4) 0.0316(2) 0.2351(4)
O9_4 O 0.8370(4) 0.0482(2) 0.4958(3)
C11_4 C 0.1618(4) 0.0408(2) 0.2688(4)
H7_4 H 0.2203 0.0236 0.3466
O10_2 O 0.7283(3) 0.01421(15) 0.1557(3)
O2_4 O 0.7028(3) 0.96135(15) 0.3794(3)
O5_4 O 0.4119(3) 0.93202(14) 0.3169(2)
N2_4 N 0.4468(3) 0.86314(17) 0.3696(3)
C2_4 C 0.5373(4) 0.6433(2) 0.5428(4)
C3_4 C 0.5511(4) 0.7879(2) 0.5506(4)
H2_4 H 0.5986 0.7848 0.6365
C5_4 C 0.4376(4) 0.7279(2) 0.3526(4)
H4_4 H 0.4100 0.6840 0.3035
C9_4 C 0.4051(4) 0.7990(2) 0.2986(4)
H6_4 H 0.3544 0.8033 0.2135
C10_4 C 0.5114(4) 0.7209(2) 0.4796(4)
C12_4 C 0.5197(4) 0.8581(2) 0.4931(4)
H8_4 H 0.5491 0.9027 0.5399
H3_4 H 0.9822 0.0098 0.2912
C6_4 C 0.9925(4) 0.0904(2) 0.0387(4)
C7_4 C 0.7764(4) 0.0376(2) 0.0741(4)
C8_4 C 0.9318(4) 0.0545(2) 0.1171(4)
H5_4 H 0.9361 0.1075 0.9599
loop_
_geom_bond_atom_site_label_1
_geom_bond_atom_site_label_2
_geom_bond_site_symmetry_1
_geom_bond_site_symmetry_2
O6 C2 1_555 1_555
C3 H2 1_555 1_555
Dy5 O6 1_555 1_555
Dy1 O2 1_555 1_555
O2 N1 1_555 1_555
O4 Dy1 1_555 1_555
O5 Dy1 1_555 1_555
N1 O8 1_555 1_555
O8 Dy1 1_555 1_555
N2 O5 1_555 1_555
N3 O4 1_555 1_555
C1 N3 1_555 1_555
H1 C1 1_555 1_555
C5 H4 1_555 1_555
O9 N1 1_555 1_555
C9 N2 1_555 1_555
H6 C9 1_555 1_555
C11 N3 1_555 1_555
H7 C11 1_555 1_555
C12 N2 1_555 1_555
O10 Dy1 1_555 1_555
O11 Dy1 1_555 1_555
O12 Dy1 1_555 1_555
O13 Dy1 1_555 1_555
O14 Dy1 1_555 1_555
C4 C11 1_555 1_555
C5 C9 1_555 1_555
C5 C10 1_555 1_555
O10 C7 1_555 1_555
O3 C7 1_555 1_555
H5 C6 1_555 1_555
C7 C8 1_555 1_555
Dy4 O3 1_555 1_555
C6 C8 1_555 1_555
Dy5 O3_2 1_555 1_555
O1 C7_2 1_555 1_555
C7_2 C8_2 1_555 1_555
C6_2 C8_2 1_555 1_555
Dy3 O2_2 1_555 1_555
O5_2 Dy3 1_555 1_555
O6_2 C2_2 1_555 1_555
O13 C2_2 1_555 1_555
N2_2 O5_2 1_555 1_555
C2_2 C10_2 1_555 1_555
C3_2 H2_2 1_555 1_555
C5_2 H4_2 1_555 1_555
C9_2 N2_2 1_555 1_555
H6_2 C9_2 1_555 1_555
C10_2 C3_2 1_555 1_555
C12_2 N2_2 1_555 1_555
H8_2 C12_2 1_555 1_555
Dy4 O6_2 1_555 1_555
O11_2 Dy3 1_555 1_555
O12_2 Dy3 1_555 1_555
O13 Dy4 1_555 1_555
C3_2 C12_2 1_555 1_555
C5_2 C9_2 1_555 1_555
C5_2 C10_2 1_555 1_555
N1_2 O8_2 1_555 1_555
N3_2 O4_2 1_555 1_555
C1_2 N3_2 1_555 1_555
H1_2 C1_2 1_555 1_555
O9_2 N1_2 1_555 1_555
C11_2 N3_2 1_555 1_555
H7_2 C11_2 1_555 1_555
C4_2 C11_2 1_555 1_555
O1_2 C7_3 1_555 1_555
O11 C7_3 1_555 1_555
H5_3 C6_3 1_555 1_555
C7_3 C8_3 1_555 1_555
Dy4 O1_2 1_555 1_555
C6_3 C8_3 1_555 1_555
Dy4 O2_3 1_555 1_555
O2_3 N1_3 1_555 1_555
O4_3 Dy4 1_555 1_555
O5_3 Dy4 1_555 1_555
N1_3 O8_3 1_555 1_555
O8_3 Dy4 1_555 1_555
N2_3 O5_3 1_555 1_555
N3_3 O4_3 1_555 1_555
C1_3 N3_3 1_555 1_555
H1_3 C1_3 1_555 1_555
C5_3 H4_3 1_555 1_555
O9_3 N1_3 1_555 1_555
C9_3 N2_3 1_555 1_555
H6_3 C9_3 1_555 1_555
C11_3 N3_3 1_555 1_555
H7_3 C11_3 1_555 1_555
C12_3 N2_3 1_555 1_555
O14 Dy4 1_555 1_555
C4_3 C11_3 1_555 1_555
C5_3 C9_3 1_555 1_555
C5_3 C10_3 1_555 1_555
O12_2 C2_3 1_555 1_555
C3_3 H2_3 1_555 1_555
N1_4 O8_4 1_555 1_555
N3_4 O4_4 1_555 1_555
C1_4 N3_4 1_555 1_555
H1_4 C1_4 1_555 1_555
O9_4 N1_4 1_555 1_555
C11_4 N3_4 1_555 1_555
H7_4 C11_4 1_555 1_555
C4_4 C11_4 1_555 1_555
Dy5 O2_4 1_555 1_555
O5_4 Dy5 1_555 1_555
O12 C2_4 1_555 1_555
O14 C2_4 1_555 1_555
N2_4 O5_4 1_555 1_555
C2_4 C10_4 1_555 1_555
C3_4 H2_4 1_555 1_555
C5_4 H4_4 1_555 1_555
C9_4 N2_4 1_555 1_555
H6_4 C9_4 1_555 1_555
C10_4 C3_4 1_555 1_555
C12_4 N2_4 1_555 1_555
H8_4 C12_4 1_555 1_555
C3_4 C12_4 1_555 1_555
C5_4 C9_4 1_555 1_555
C5_4 C10_4 1_555 1_555
O10_2 C7_4 1_555 1_555
C7_4 C8_4 1_555 1_555
C6_4 C8_4 1_555 1_555

#END
