
###############################################################################
#
# This file contains modified crystal structure data generated from the
# MOF subset of the Cambridge Structural Database (CSD) v543 
# hosted by the Cambridge Crystallographic Data Centre (CCDC).
#
# This work is licensed under the Creative Commons
# Attribution-NonCommercial-ShareAlike 4.0 International License.
# To view a copy of this license, visit
# http://creativecommons.org/licenses/by-nc-sa/4.0/
# or send a letter to
# Creative Commons, PO Box 1866, Mountain View, CA 94042, USA.
#
# CIF created using the CSD Python API on 29 September 2022
# The structure has been converted into the P1 space group
# The structure has a 3D framework
# The original CSD entry DUMXIU is in the monoclinic crystal system
# The framework has been calculated to contain at least 10.0% void space
# The void calculation uses a probe of radius 1.32A, grid spacing 0.4
#
###############################################################################

data_DUMXIU
_chemical_formula_moiety         '(C48 H32 Dy4 N12 O36)n'
_symmetry_cell_setting           triclinic
_symmetry_space_group_name_H-M   'P 1'
_symmetry_Int_Tables_number      1
_space_group_name_Hall           'P 1'
loop_
_symmetry_equiv_pos_site_id
_symmetry_equiv_pos_as_xyz
1 x,y,z
_cell_length_a                   10.1298(3)
_cell_length_b                   17.0934(3)
_cell_length_c                   11.0846(3)
_cell_angle_alpha                90
_cell_angle_beta                 108.696(3)
_cell_angle_gamma                90
_cell_volume                     1818.05
loop_
_atom_site_label
_atom_site_type_symbol
_atom_site_fract_x
_atom_site_fract_y
_atom_site_fract_z
Dy2 Dy 0.008930(15) 0.004050(8) 0.683178(13)
O3 O 0.2042(2) 0.02421(13) 0.8909(2)
O6 O 0.0658(2) 0.13986(12) 0.6710(2)
O8 O 0.0248(2) 0.08484(12) 0.4825(2)
C9 C 0.0363(3) 0.14507(19) 0.5520(3)
C10 C 0.0609(3) 0.29111(18) 0.5575(3)
H7 H 0.1176 0.2876 0.6419
C11 C 0.0301(3) 0.36298(19) 0.5006(3)
H8 H 0.0680 0.4080 0.5457
C12 C 0.0078(3) 0.22359(19) 0.4899(3)
Dy4 Dy 0.008930(15) 0.495950(8) 0.183178(13)
O1 O 0.2262(2) 0.98444(13) 0.6540(2)
O2 O 0.8495(2) 0.91264(12) 0.7183(2)
O4 O 0.3225(3) 0.92667(15) 0.9993(2)
N1 N 0.2248(3) 0.95184(17) 0.9115(3)
O5 O 0.1365(2) 0.90592(13) 0.8365(2)
O7 O 0.2093(2) 0.95172(12) 0.4525(2)
N2 N 0.7120(3) 0.92134(14) 0.6853(3)
C1 C 0.4279(3) 0.94164(18) 0.6132(3)
C2 C 0.4894(3) 0.90292(18) 0.5348(3)
H1 H 0.4341 0.8837 0.4564
C3 C 0.6311(3) 0.89272(18) 0.5720(3)
H2 H 0.6715 0.8662 0.5194
C4 C 0.2746(3) 0.95989(18) 0.5697(3)
C5 C 0.6557(3) 0.95746(19) 0.7647(3)
H3 H 0.7129 0.9759 0.8429
C7 C 0.5142(3) 0.96714(19) 0.7308(3)
H5 H 0.4757 0.9910 0.7871
N3 N 0.9449(3) 0.36849(15) 0.3794(3)
O9 O 0.9129(2) 0.43929(12) 0.3272(2)
C6 C 0.8881(4) 0.30413(19) 0.3124(3)
H4 H 0.8273 0.3092 0.2298
C8 C 0.9196(4) 0.23151(19) 0.3653(3)
H6 H 0.8819 0.1873 0.3179
O11 O 0.7907(2) 0.04828(12) 0.5475(2)
O13 O 0.9129(2) 0.06071(12) 0.8272(2)
Dy3 Dy 0.991070(15) 0.995950(8) 0.316822(13)
O12 O 0.9752(2) 0.91516(12) 0.5175(2)
N3_2 N 0.0551(3) 0.86849(15) 0.1206(3)
O9_2 O 0.0871(2) 0.93929(12) 0.1728(2)
C6_2 C 0.1119(4) 0.80413(19) 0.1876(3)
H4_2 H 0.1727 0.8092 0.2702
C8_2 C 0.0804(4) 0.73151(19) 0.1347(3)
H6_2 H 0.1181 0.6873 0.1821
O10 O 0.1505(2) 0.41264(12) 0.7817(2)
O11_2 O 0.2093(2) 0.54828(12) 0.9525(2)
O12_2 O 0.0248(2) 0.41516(12) 0.9825(2)
O13_2 O 0.0871(2) 0.56071(12) 0.6728(2)
O7_2 O 0.7907(2) 0.45172(12) 0.0475(2)
O8_2 O 0.9752(2) 0.58484(12) 0.0175(2)
H1_2 H 0.5659 0.3837 0.0436
C12_2 C 0.9922(3) 0.72359(19) 0.0101(3)
Dy1 Dy 0.991070(15) 0.504050(8) 0.816822(13)
O1_2 O 0.7738(2) 0.48444(13) 0.8460(2)
O3_2 O 0.7958(2) 0.52421(13) 0.6091(2)
O4_2 O 0.6775(3) 0.42667(15) 0.5007(2)
N1_2 N 0.7752(3) 0.45184(17) 0.5885(3)
O5_2 O 0.8635(2) 0.40592(13) 0.6635(2)
O6_2 O 0.9342(2) 0.63986(12) 0.8290(2)
N2_2 N 0.2880(3) 0.42134(14) 0.8147(3)
C1_2 C 0.5721(3) 0.44164(18) 0.8868(3)
C2_2 C 0.5106(3) 0.40292(18) 0.9652(3)
C3_2 C 0.3689(3) 0.39272(18) 0.9280(3)
H2_2 H 0.3285 0.3662 0.9806
C4_2 C 0.7254(3) 0.45989(18) 0.9303(3)
C5_2 C 0.3443(3) 0.45746(19) 0.7353(3)
H3_2 H 0.2871 0.4759 0.6571
C7_2 C 0.4858(3) 0.46714(19) 0.7692(3)
H5_2 H 0.5243 0.4910 0.7129
C9_2 C 0.9637(3) 0.64507(19) 0.9480(3)
C10_2 C 0.9391(3) 0.79111(18) 0.9425(3)
H7_2 H 0.8824 0.7876 0.8581
C11_2 C 0.9699(3) 0.86298(19) 0.9994(3)
H8_2 H 0.9320 0.9080 0.9543
O10_2 O 0.1505(2) 0.08736(12) 0.2817(2)
N3_3 N 0.0551(3) 0.63151(15) 0.6206(3)
C6_3 C 0.1119(4) 0.69587(19) 0.6876(3)
H4_3 H 0.1727 0.6908 0.7702
C8_3 C 0.0804(4) 0.76849(19) 0.6347(3)
H6_3 H 0.1181 0.8127 0.6821
O1_3 O 0.7738(2) 0.01556(13) 0.3460(2)
O4_3 O 0.6775(3) 0.07333(15) 0.0007(2)
N1_3 N 0.7752(3) 0.04816(17) 0.0885(3)
O5_3 O 0.8635(2) 0.09408(13) 0.1635(2)
N2_3 N 0.2880(3) 0.07866(14) 0.3147(3)
C1_3 C 0.5721(3) 0.05836(18) 0.3868(3)
C2_3 C 0.5106(3) 0.09708(18) 0.4652(3)
H1_3 H 0.5659 0.1163 0.5436
C3_3 C 0.3689(3) 0.10728(18) 0.4280(3)
H2_3 H 0.3285 0.1338 0.4806
C4_3 C 0.7254(3) 0.04011(18) 0.4303(3)
C5_3 C 0.3443(3) 0.04254(19) 0.2353(3)
H3_3 H 0.2871 0.0241 0.1571
C7_3 C 0.4858(3) 0.03286(19) 0.2692(3)
H5_3 H 0.5243 0.0090 0.2129
O3_3 O 0.7958(2) 0.97579(13) 0.1091(2)
O6_3 O 0.9342(2) 0.86014(12) 0.3290(2)
C9_3 C 0.9637(3) 0.85493(19) 0.4480(3)
C10_3 C 0.9391(3) 0.70889(18) 0.4425(3)
H7_3 H 0.8824 0.7124 0.3581
C11_3 C 0.9699(3) 0.63702(19) 0.4994(3)
H8_3 H 0.9320 0.5920 0.4543
C12_3 C 0.9922(3) 0.77641(19) 0.5101(3)
O1_4 O 0.2262(2) 0.51556(13) 0.1540(2)
O2_2 O 0.8495(2) 0.58736(12) 0.2183(2)
O3_4 O 0.2042(2) 0.47579(13) 0.3909(2)
O4_4 O 0.3225(3) 0.57333(15) 0.4993(2)
N1_4 N 0.2248(3) 0.54816(17) 0.4115(3)
O5_4 O 0.1365(2) 0.59408(13) 0.3365(2)
O6_4 O 0.0658(2) 0.36014(12) 0.1710(2)
N2_4 N 0.7120(3) 0.57866(14) 0.1853(3)
C1_4 C 0.4279(3) 0.55836(18) 0.1132(3)
C2_4 C 0.4894(3) 0.59708(18) 0.0348(3)
C3_4 C 0.6311(3) 0.60728(18) 0.0720(3)
H2_4 H 0.6715 0.6338 0.0194
C4_4 C 0.2746(3) 0.54011(18) 0.0697(3)
C5_4 C 0.6557(3) 0.54254(19) 0.2647(3)
H3_4 H 0.7129 0.5241 0.3429
C7_4 C 0.5142(3) 0.53286(19) 0.2308(3)
H5_4 H 0.4757 0.5090 0.2871
C9_4 C 0.0363(3) 0.35493(19) 0.0520(3)
C10_4 C 0.0609(3) 0.20889(18) 0.0575(3)
H7_4 H 0.1176 0.2124 0.1419
C11_4 C 0.0301(3) 0.13702(19) 0.0006(3)
H8_4 H 0.0680 0.0920 0.0457
H1_4 H 0.4341 0.6163 0.9564
C12_4 C 0.0078(3) 0.27641(19) 0.9899(3)
N3_4 N 0.9449(3) 0.13151(15) 0.8794(3)
C6_4 C 0.8881(4) 0.19587(19) 0.8124(3)
H4_4 H 0.8273 0.1908 0.7298
C8_4 C 0.9196(4) 0.26849(19) 0.8653(3)
H6_4 H 0.8819 0.3127 0.8179
loop_
_geom_bond_atom_site_label_1
_geom_bond_atom_site_label_2
_geom_bond_site_symmetry_1
_geom_bond_site_symmetry_2
O3 Dy2 1_555 1_555
O6 Dy2 1_555 1_555
O8 Dy2 1_555 1_555
C9 O6 1_555 1_555
C10 H7 1_555 1_555
H8 C11 1_555 1_555
O8 C9 1_555 1_555
C9 C12 1_555 1_555
C10 C11 1_555 1_555
C10 C12 1_555 1_555
O1 C4 1_555 1_555
O2 N2 1_555 1_555
O4 N1 1_555 1_555
O7 C4 1_555 1_555
N2 C3 1_555 1_555
C1 C2 1_555 1_555
C2 H1 1_555 1_555
C3 C2 1_555 1_555
H2 C3 1_555 1_555
C4 C1 1_555 1_555
C5 N2 1_555 1_555
H3 C5 1_555 1_555
C7 C1 1_555 1_555
H5 C7 1_555 1_555
N1 O5 1_555 1_555
C5 C7 1_555 1_555
N3 O9 1_555 1_555
C6 N3 1_555 1_555
H4 C6 1_555 1_555
C8 C6 1_555 1_555
H6 C8 1_555 1_555
Dy3 O12 1_555 1_555
N3_2 O9_2 1_555 1_555
C6_2 N3_2 1_555 1_555
H4_2 C6_2 1_555 1_555
C8_2 C6_2 1_555 1_555
H6_2 C8_2 1_555 1_555
Dy1 O1_2 1_555 1_555
O1_2 C4_2 1_555 1_555
O10 N2_2 1_555 1_555
O3_2 Dy1 1_555 1_555
O4_2 N1_2 1_555 1_555
N1_2 O3_2 1_555 1_555
O5_2 Dy1 1_555 1_555
O6_2 Dy1 1_555 1_555
N2_2 C3_2 1_555 1_555
C1_2 C2_2 1_555 1_555
C3_2 C2_2 1_555 1_555
H2_2 C3_2 1_555 1_555
C4_2 C1_2 1_555 1_555
C5_2 N2_2 1_555 1_555
H3_2 C5_2 1_555 1_555
C7_2 C1_2 1_555 1_555
H5_2 C7_2 1_555 1_555
C9_2 O6_2 1_555 1_555
C10_2 H7_2 1_555 1_555
H8_2 C11_2 1_555 1_555
N1_2 O5_2 1_555 1_555
C5_2 C7_2 1_555 1_555
C10_2 C11_2 1_555 1_555
N3_3 O13_2 1_555 1_555
C6_3 N3_3 1_555 1_555
H4_3 C6_3 1_555 1_555
C8_3 C6_3 1_555 1_555
H6_3 C8_3 1_555 1_555
O1_3 C4_3 1_555 1_555
O10_2 N2_3 1_555 1_555
O4_3 N1_3 1_555 1_555
O11 C4_3 1_555 1_555
N2_3 C3_3 1_555 1_555
C1_3 C2_3 1_555 1_555
C2_3 H1_3 1_555 1_555
C3_3 C2_3 1_555 1_555
H2_3 C3_3 1_555 1_555
C4_3 C1_3 1_555 1_555
C5_3 N2_3 1_555 1_555
H3_3 C5_3 1_555 1_555
C7_3 C1_3 1_555 1_555
H5_3 C7_3 1_555 1_555
N1_3 O5_3 1_555 1_555
C5_3 C7_3 1_555 1_555
O3_3 Dy3 1_555 1_555
O6_3 Dy3 1_555 1_555
C9_3 O6_3 1_555 1_555
C10_3 H7_3 1_555 1_555
H8_3 C11_3 1_555 1_555
O12 C9_3 1_555 1_555
C9_3 C12_3 1_555 1_555
C10_3 C11_3 1_555 1_555
C10_3 C12_3 1_555 1_555
Dy4 O1_4 1_555 1_555
O1_4 C4_4 1_555 1_555
O2_2 N2_4 1_555 1_555
O3_4 Dy4 1_555 1_555
O4_4 N1_4 1_555 1_555
N1_4 O3_4 1_555 1_555
O5_4 Dy4 1_555 1_555
O6_4 Dy4 1_555 1_555
N2_4 C3_4 1_555 1_555
C1_4 C2_4 1_555 1_555
C3_4 C2_4 1_555 1_555
H2_4 C3_4 1_555 1_555
C4_4 C1_4 1_555 1_555
C5_4 N2_4 1_555 1_555
H3_4 C5_4 1_555 1_555
C7_4 C1_4 1_555 1_555
H5_4 C7_4 1_555 1_555
C9_4 O6_4 1_555 1_555
C10_4 H7_4 1_555 1_555
H8_4 C11_4 1_555 1_555
N1_4 O5_4 1_555 1_555
C5_4 C7_4 1_555 1_555
C10_4 C11_4 1_555 1_555
N3_4 O13 1_555 1_555
C6_4 N3_4 1_555 1_555
H4_4 C6_4 1_555 1_555
C8_4 C6_4 1_555 1_555
H6_4 C8_4 1_555 1_555

#END
