
###############################################################################
#
# This file contains modified crystal structure data generated from the
# MOF subset of the Cambridge Structural Database (CSD) v543 
# hosted by the Cambridge Crystallographic Data Centre (CCDC).
#
# This work is licensed under the Creative Commons
# Attribution-NonCommercial-ShareAlike 4.0 International License.
# To view a copy of this license, visit
# http://creativecommons.org/licenses/by-nc-sa/4.0/
# or send a letter to
# Creative Commons, PO Box 1866, Mountain View, CA 94042, USA.
#
# CIF created using the CSD Python API on 29 September 2022
# The structure has been converted into the P1 space group
# The structure has a 3D framework
# The original CSD entry DUNJON is in the orthorhombic crystal system
# The framework has been calculated to contain at least 10.0% void space
# The void calculation uses a probe of radius 1.32A, grid spacing 0.4
# H atom positions have been added when not included in the experimental data
#
###############################################################################

data_DUNJON
_chemical_formula_moiety         '(C288 H288 Co30 N96 O316 P8 W72)n'
_symmetry_cell_setting           triclinic
_symmetry_space_group_name_H-M   'P 1'
_symmetry_Int_Tables_number      1
_space_group_name_Hall           'P 1'
loop_
_symmetry_equiv_pos_site_id
_symmetry_equiv_pos_as_xyz
1 x,y,z
_cell_length_a                   29.325(5)
_cell_length_b                   13.413(5)
_cell_length_c                   36.016(5)
_cell_angle_alpha                90
_cell_angle_beta                 90
_cell_angle_gamma                90
_cell_volume                     14166.4
loop_
_atom_site_label
_atom_site_type_symbol
_atom_site_fract_x
_atom_site_fract_y
_atom_site_fract_z
O38 O 0.3118(4) 0.0327(9) 0.5658(3)
H31 H 0.292065 0.0781214 0.551109
H32 H 0.313677 0.0570039 0.591798
W1 W 0.543144(18) 0.67341(4) 0.350503(14)
W2 W 0.469421(17) 0.70293(4) 0.423969(14)
W3 W 0.421765(17) 0.45086(4) 0.410278(13)
W4 W 0.494122(19) 0.25233(4) 0.408785(14)
W5 W 0.619175(18) 0.45187(4) 0.348137(14)
W6 W 0.660958(17) 0.52040(4) 0.435047(14)
W7 W 0.584367(18) 0.73592(4) 0.437351(14)
W8 W 0.617762(18) 0.28777(4) 0.423603(14)
W9 W 0.494558(18) 0.42202(4) 0.335837(14)
Co1 Co 0.58652(6) 0.42410(14) 0.50472(5)
Co2 Co 0.52105(6) 0.61394(14) 0.50706(5)
P1 P 0.54103(10) 0.4917(2) 0.42648(8)
O1 O 0.5054(3) 0.4308(7) 0.4053(2)
O2 O 0.5890(3) 0.4548(6) 0.4148(2)
O3 O 0.5339(3) 0.4801(6) 0.4686(2)
O4 O 0.5366(3) 0.6021(7) 0.4144(2)
O5 O 0.4945(3) 0.2711(7) 0.4583(2)
O6 O 0.4328(3) 0.3142(7) 0.4085(2)
O7 O 0.4930(3) 0.2920(7) 0.3559(2)
O8 O 0.3641(3) 0.4615(8) 0.4086(2)
O9 O 0.4798(3) 0.1280(7) 0.4033(3)
O10 O 0.5594(3) 0.2466(7) 0.4059(2)
O11 O 0.4382(3) 0.5909(7) 0.4057(2)
O12 O 0.5981(3) 0.3061(7) 0.4698(2)
O13 O 0.6488(3) 0.1761(8) 0.4255(3)
O14 O 0.6287(3) 0.3264(7) 0.3698(2)
O15 O 0.5660(3) 0.5396(7) 0.5399(2)
O16 O 0.5719(3) 0.6856(7) 0.4814(2)
O17 O 0.6368(3) 0.5067(7) 0.4795(2)
O18 O 0.6115(3) 0.8460(7) 0.4479(3)
O19 O 0.5212(3) 0.7840(7) 0.4356(2)
O20 O 0.5793(3) 0.7502(7) 0.3819(2)
O21 O 0.6328(3) 0.6477(7) 0.4265(2)
O22 O 0.4266(3) 0.7901(8) 0.4274(2)
O23 O 0.4699(3) 0.6501(7) 0.4708(2)
O24 O 0.4903(3) 0.7244(6) 0.3730(2)
O25 O 0.5929(3) 0.5837(7) 0.3450(2)
O26 O 0.5595(3) 0.4076(7) 0.3351(2)
O27 O 0.6636(3) 0.5085(7) 0.3792(2)
O28 O 0.5442(3) 0.7450(8) 0.3105(2)
O29 O 0.4807(3) 0.3989(8) 0.2898(2)
O30 O 0.6476(3) 0.4413(7) 0.3072(2)
O31 O 0.4372(3) 0.4482(7) 0.3575(2)
O32 O 0.6683(3) 0.3761(8) 0.4313(2)
O33 O 0.5041(3) 0.5590(7) 0.3371(2)
O34 O 0.7177(3) 0.5549(7) 0.4421(2)
Co3 Co 0.53013(6) 0.82339(15) 0.26149(5)
C1 C 0.7007(5) 0.6891(11) 0.1711(4)
C2 C 0.7298(5) 0.6799(12) 0.1139(4)
C3 C 0.7758(5) 0.6888(11) 0.1631(4)
C4 C 0.7225(5) 0.6753(11) 0.0728(4)
C5 C 0.8225(5) 0.6939(10) 0.1811(4)
C6 C 0.8265(5) 0.7103(14) 0.2185(4)
H1 H 0.8010 0.7222 0.2332
C7 C 0.8607(5) 0.6771(13) 0.1595(4)
H2 H 0.8586 0.6700 0.1339
C8 C 0.9020(5) 0.6712(11) 0.1778(4)
H3 H 0.9275 0.6536 0.1639
C9 C 0.3026(5) 0.9274(12) 0.3884(4)
C10 C 0.2704(5) 0.9449(11) 0.3325(4)
C11 C 0.3458(5) 0.9420(11) 0.3385(4)
C12 C 0.3925(5) 0.9409(11) 0.3203(4)
C13 C 0.4299(5) 0.9276(11) 0.3420(4)
H4 H 0.4284 0.9321 0.3677
C14 C 0.4711(5) 0.9063(11) 0.3232(4)
H5 H 0.4970 0.8943 0.3374
C15 C 0.2977(5) 0.9133(12) 0.4293(4)
C16 C 0.2558(5) 0.9066(12) 0.4462(4)
H6 H 0.2292 0.9115 0.4323
C17 C 0.2287(5) 0.9512(13) 0.3082(4)
C18 C 0.1851(5) 0.9443(12) 0.3235(4)
H7 H 0.1816 0.9370 0.3490
C19 C 0.1476(5) 0.9481(13) 0.3013(5)
H8 H 0.1188 0.9446 0.3120
C20 C 0.4382(5) 0.9247(14) 0.2664(4)
H9 H 0.4405 0.9264 0.2407
C21 C 0.8693(6) 0.7085(15) 0.2334(4)
H10 H 0.8724 0.7213 0.2587
C22 C 0.6593(5) 0.6965(12) 0.1945(4)
C23 C 0.6158(5) 0.6962(13) 0.1784(4)
H11 H 0.6120 0.6814 0.1533
C24 C 0.3951(5) 0.9459(11) 0.2828(4)
H12 H 0.3698 0.9624 0.2684
C25 C 0.5796(5) 0.7178(12) 0.2001(4)
H13 H 0.5508 0.7178 0.1894
C26 C 0.2328(5) 0.9619(13) 0.2704(4)
H14 H 0.2613 0.9669 0.2593
C27 C 0.2540(5) 0.8924(12) 0.4837(4)
H15 H 0.2254 0.8842 0.4944
C28 C 0.6632(5) 0.7089(13) 0.2320(4)
H16 H 0.6914 0.7025 0.2436
C29 C 0.6248(5) 0.7309(12) 0.2523(4)
H17 H 0.6276 0.7403 0.2778
C30 C 0.7570(6) 0.6464(13) 0.0498(4)
H18 H 0.7853 0.6293 0.0595
C31 C 0.7496(6) 0.6430(14) 0.0128(4)
C32 C 0.6809(6) 0.6967(14) 0.0572(4)
H20 H 0.6560 0.7137 0.0718
C33 C 0.6775(7) 0.6923(17) 0.0199(5)
H21 H 0.6496 0.7095 0.0094
C34 C 0.3358(5) 0.9079(15) 0.4511(4)
H22 H 0.3647 0.9137 0.4407
C35 C 0.3302(5) 0.8934(14) 0.4893(4)
H23 H 0.3563 0.8859 0.5037
C36 C 0.1944(5) 0.9650(14) 0.2496(5)
H24 H 0.1976 0.9731 0.2241
N1 N 0.4752(4) 0.9026(10) 0.2860(3)
N2 N 0.2906(4) 0.8896(9) 0.5061(3)
N3 N 0.2640(4) 0.9334(9) 0.3685(3)
N4 N 0.3441(4) 0.9335(9) 0.3751(3)
N5 N 0.3100(4) 0.9517(9) 0.3158(3)
N6 N 0.6933(4) 0.6815(10) 0.1347(3)
N7 N 0.7411(4) 0.6941(9) 0.1865(3)
N8 N 0.7726(4) 0.6850(10) 0.1265(3)
N9 N 0.9078(4) 0.6891(10) 0.2135(4)
N10 N 0.1515(5) 0.9571(11) 0.2635(4)
N11 N 0.5829(4) 0.7393(10) 0.2363(3)
O35 O 0.4840(4) 0.7123(9) 0.2462(3)
Co4 Co 0.28432(6) 0.89035(15) 0.56523(5)
O36 O 0.2557(4) 0.7502(8) 0.5694(3)
O37 O 0.2782(4) 0.9046(10) 0.6226(3)
O39 O 0.6360(3) 0.3606(9) 0.5411(3)
O40 O 0.5753(3) 0.9354(8) 0.2781(3)
W10 W 0.578235(17) 0.54914(4) 0.589722(13)
Co5 Co 0.41348(6) 0.57590(14) 0.49528(5)
Co6 Co 0.47895(6) 0.38606(14) 0.49294(5)
O41 O 0.4661(3) 0.5199(6) 0.5314(2)
O42 O 0.5055(3) 0.7289(7) 0.5417(2)
O43 O 0.3512(3) 0.8239(8) 0.5745(3)
O44 O 0.4340(3) 0.4604(7) 0.4601(2)
O45 O 0.5301(3) 0.3499(7) 0.5292(2)
O46 O 0.5193(3) 0.8989(8) 0.2102(2)
O47 O 0.2177(3) 0.9451(7) 0.5579(2)
Co7 Co 0.46987(6) 0.32339(15) 0.23851(5)
Co8 Co 0.78432(6) 0.60965(15) 0.43477(5)
Co9 Co 0.71568(6) 0.10965(15) 0.43477(5)
H25 H 0.459618 0.707244 0.26524
H26 H 0.470223 0.729283 0.221821
H27 H 0.646019 0.295103 0.531168
H28 H 0.662671 0.405934 0.542984
H29 H 0.277049 0.700025 0.558968
H30 H 0.249693 0.734654 0.595909
H33 H 0.606251 0.906637 0.281315
H34 H 0.576272 0.988419 0.258873
H35 H 0.24974 0.941354 0.628585
H36 H 0.277112 0.837361 0.634104
H23_2 H 0.1437 0.1141 0.0037
N2_2 N 0.2094(4) 0.1104(9) 0.0061(3)
Co4_2 Co 0.21568(6) 0.10965(15) 0.06523(5)
O36_2 O 0.2443(4) 0.2498(8) 0.0694(3)
O37_2 O 0.2218(4) 0.0954(10) 0.1226(3)
O41_2 O 0.0339(3) 0.4801(6) 0.0314(2)
O43_2 O 0.1488(3) 0.1761(8) 0.0745(3)
O47_2 O 0.2823(3) 0.0549(7) 0.0579(2)
H29_2 H 0.222951 0.299975 0.0589677
H30_2 H 0.250307 0.265346 0.0959088
H35_2 H 0.25026 0.0586458 0.128585
H36_2 H 0.222888 0.162639 0.134104
W2_2 W 0.030579(17) 0.29707(4) 0.923969(14)
W3_2 W 0.078235(17) 0.54914(4) 0.910278(13)
W4_2 W 0.005878(19) 0.74767(4) 0.908785(14)
W9_2 W 0.005442(18) 0.57798(4) 0.835837(14)
O5_2 O 0.0055(3) 0.7289(7) 0.9583(2)
O6_2 O 0.0672(3) 0.6858(7) 0.9085(2)
O7_2 O 0.0070(3) 0.7080(7) 0.8559(2)
O8_2 O 0.1359(3) 0.5385(8) 0.9086(2)
O9_2 O 0.0202(3) 0.8720(7) 0.9033(3)
O11_2 O 0.0618(3) 0.4091(7) 0.9057(2)
O22_2 O 0.0734(3) 0.2099(8) 0.9274(2)
O23_2 O 0.0301(3) 0.3499(7) 0.9708(2)
O24_2 O 0.0097(3) 0.2756(6) 0.8730(2)
O29_2 O 0.0193(3) 0.6011(8) 0.7898(2)
O31_2 O 0.0628(3) 0.5518(7) 0.8575(2)
C9_2 C 0.1974(5) 0.0726(12) 0.8884(4)
C10_2 C 0.2296(5) 0.0551(11) 0.8325(4)
C11_2 C 0.1542(5) 0.0580(11) 0.8385(4)
C12_2 C 0.1075(5) 0.0591(11) 0.8203(4)
C13_2 C 0.0701(5) 0.0724(11) 0.8420(4)
H4_2 H 0.0716 0.0679 0.8677
C14_2 C 0.0289(5) 0.0937(11) 0.8232(4)
H5_2 H 0.0030 0.1057 0.8374
C15_2 C 0.2023(5) 0.0867(12) 0.9293(4)
C16_2 C 0.2442(5) 0.0934(12) 0.9462(4)
H6_2 H 0.2708 0.0885 0.9323
C17_2 C 0.2713(5) 0.0488(13) 0.8082(4)
C18_2 C 0.3149(5) 0.0557(12) 0.8235(4)
H7_2 H 0.3184 0.0630 0.8490
C19_2 C 0.3524(5) 0.0519(13) 0.8013(5)
H8_2 H 0.3812 0.0554 0.8120
C20_2 C 0.0618(5) 0.0753(14) 0.7664(4)
H9_2 H 0.0595 0.0736 0.7407
C24_2 C 0.1049(5) 0.0541(11) 0.7828(4)
H12_2 H 0.1302 0.0376 0.7684
C26_2 C 0.2672(5) 0.0381(13) 0.7704(4)
H14_2 H 0.2387 0.0331 0.7593
C27_2 C 0.2460(5) 0.1076(12) 0.9837(4)
H15_2 H 0.2746 0.1158 0.9944
C34_2 C 0.1642(5) 0.0921(15) 0.9511(4)
H22_2 H 0.1353 0.0863 0.9407
C35_2 C 0.1698(5) 0.1066(14) 0.9893(4)
C36_2 C 0.3056(5) 0.0350(14) 0.7496(5)
H24_2 H 0.3024 0.0269 0.7241
N1_2 N 0.0248(4) 0.0974(10) 0.7860(3)
N3_2 N 0.2360(4) 0.0666(9) 0.8685(3)
N4_2 N 0.1559(4) 0.0665(9) 0.8751(3)
N5_2 N 0.1900(4) 0.0483(9) 0.8158(3)
N10_2 N 0.3485(5) 0.0429(11) 0.7635(4)
O35_2 O 0.0160(4) 0.2877(9) 0.7462(3)
Co5_2 Co 0.08652(6) 0.42410(14) 0.99528(5)
Co6_2 Co 0.02105(6) 0.61394(14) 0.99294(5)
O44_2 O 0.0660(3) 0.5396(7) 0.9601(2)
Co7_2 Co 0.03013(6) 0.67661(15) 0.73851(5)
H25_2 H 0.0403817 0.292756 0.76524
H26_2 H 0.0297769 0.270717 0.721821
Co1_2 Co 0.91348(6) 0.57590(14) 0.00472(5)
Co2_2 Co 0.97895(6) 0.38606(14) 0.00706(5)
O15_2 O 0.9340(3) 0.4604(7) 0.0399(2)
O39_2 O 0.8640(3) 0.6394(9) 0.0411(3)
W10_2 W 0.921765(17) 0.45086(4) 0.089722(13)
O42_2 O 0.9945(3) 0.2711(7) 0.0417(2)
O45_2 O 0.9699(3) 0.6501(7) 0.0292(2)
H27_2 H 0.853981 0.704897 0.0311682
H28_2 H 0.837329 0.594066 0.0429842
W1_2 W 0.956856(18) 0.32659(4) 0.850503(14)
W5_2 W 0.880825(18) 0.54813(4) 0.848137(14)
W6_2 W 0.839042(17) 0.47960(4) 0.935047(14)
W7_2 W 0.915633(18) 0.26408(4) 0.937351(14)
W8_2 W 0.882238(18) 0.71223(4) 0.923603(14)
P1_2 P 0.95897(10) 0.5083(2) 0.92648(8)
O1_2 O 0.9946(3) 0.5692(7) 0.9053(2)
O2_2 O 0.9110(3) 0.5452(6) 0.9148(2)
O3_2 O 0.9661(3) 0.5199(6) 0.9686(2)
O4_2 O 0.9634(3) 0.3979(7) 0.9144(2)
O10_2 O 0.9406(3) 0.7534(7) 0.9059(2)
O12_2 O 0.9019(3) 0.6939(7) 0.9698(2)
O13_2 O 0.8512(3) 0.8239(8) 0.9255(3)
O14_2 O 0.8713(3) 0.6736(7) 0.8698(2)
O16_2 O 0.9281(3) 0.3144(7) 0.9814(2)
O17_2 O 0.8632(3) 0.4933(7) 0.9795(2)
O18_2 O 0.8885(3) 0.1540(7) 0.9479(3)
O19_2 O 0.9788(3) 0.2160(7) 0.9356(2)
O20_2 O 0.9207(3) 0.2498(7) 0.8819(2)
O21_2 O 0.8672(3) 0.3523(7) 0.9265(2)
O25_2 O 0.9071(3) 0.4163(7) 0.8450(2)
O26_2 O 0.9405(3) 0.5924(7) 0.8351(2)
O27_2 O 0.8364(3) 0.4915(7) 0.8792(2)
O28_2 O 0.9558(3) 0.2550(8) 0.8105(2)
O30_2 O 0.8524(3) 0.5587(7) 0.8072(2)
O32_2 O 0.8317(3) 0.6239(8) 0.9313(2)
O33_2 O 0.9959(3) 0.4410(7) 0.8371(2)
O34_2 O 0.7823(3) 0.4451(7) 0.9421(2)
Co3_2 Co 0.96987(6) 0.17661(15) 0.76149(5)
C1_2 C 0.7993(5) 0.3109(11) 0.6711(4)
C2_2 C 0.7702(5) 0.3201(12) 0.6139(4)
C3_2 C 0.7242(5) 0.3112(11) 0.6631(4)
C4_2 C 0.7775(5) 0.3247(11) 0.5728(4)
C5_2 C 0.6775(5) 0.3061(10) 0.6811(4)
C6_2 C 0.6735(5) 0.2897(14) 0.7185(4)
H1_2 H 0.6990 0.2778 0.7332
C7_2 C 0.6393(5) 0.3229(13) 0.6595(4)
H2_2 H 0.6414 0.3300 0.6339
C8_2 C 0.5980(5) 0.3288(11) 0.6778(4)
H3_2 H 0.5725 0.3464 0.6639
C21_2 C 0.6307(6) 0.2915(15) 0.7334(4)
H10_2 H 0.6276 0.2787 0.7587
C22_2 C 0.8407(5) 0.3035(12) 0.6945(4)
C23_2 C 0.8842(5) 0.3038(13) 0.6784(4)
H11_2 H 0.8880 0.3186 0.6533
C25_2 C 0.9204(5) 0.2822(12) 0.7001(4)
H13_2 H 0.9492 0.2822 0.6894
C28_2 C 0.8368(5) 0.2911(13) 0.7320(4)
H16_2 H 0.8086 0.2975 0.7436
C29_2 C 0.8752(5) 0.2691(12) 0.7523(4)
H17_2 H 0.8724 0.2597 0.7778
C30_2 C 0.7430(6) 0.3536(13) 0.5498(4)
H18_2 H 0.7147 0.3707 0.5595
C31_2 C 0.7504(6) 0.3570(14) 0.5128(4)
H19 H 0.7264 0.3765 0.4976
C32_2 C 0.8191(6) 0.3033(14) 0.5572(4)
H20_2 H 0.8440 0.2863 0.5718
C33_2 C 0.8225(7) 0.3077(17) 0.5199(5)
H21_2 H 0.8504 0.2905 0.5094
N6_2 N 0.8067(4) 0.3185(10) 0.6347(3)
N7_2 N 0.7589(4) 0.3059(9) 0.6865(3)
N8_2 N 0.7274(4) 0.3150(10) 0.6265(3)
N9_2 N 0.5922(4) 0.3109(10) 0.7135(4)
N11_2 N 0.9171(4) 0.2607(10) 0.7363(3)
N12 N 0.7893(6) 0.3346(14) 0.4970(4)
O40_2 O 0.9247(3) 0.0646(8) 0.7781(3)
O46_2 O 0.9807(3) 0.1011(8) 0.7102(2)
Co8_2 Co 0.71568(6) 0.39035(15) 0.93477(5)
Co9_2 Co 0.78432(6) 0.89035(15) 0.93477(5)
H33_2 H 0.893749 0.0933633 0.781315
H34_2 H 0.923728 0.0115812 0.758873
W5_3 W 0.119175(18) 0.04813(4) 0.651863(14)
W8_3 W 0.117762(18) 0.21223(4) 0.576397(14)
Co1_3 Co 0.08652(6) 0.07590(14) 0.49528(5)
P1_3 P 0.04103(10) 0.0083(2) 0.57352(8)
O1_3 O 0.0054(3) 0.0692(7) 0.5947(2)
O2_3 O 0.0890(3) 0.0452(6) 0.5852(2)
O3_3 O 0.0339(3) 0.0199(6) 0.5314(2)
O10_3 O 0.0594(3) 0.2534(7) 0.5941(2)
O12_3 O 0.0981(3) 0.1939(7) 0.5302(2)
O13_3 O 0.1488(3) 0.3239(8) 0.5745(3)
O14_3 O 0.1287(3) 0.1736(7) 0.6302(2)
O26_3 O 0.0595(3) 0.0924(7) 0.6649(2)
O30_3 O 0.1476(3) 0.0587(7) 0.6928(2)
O32_3 O 0.1683(3) 0.1239(8) 0.5687(2)
O39_3 O 0.1360(3) 0.1394(9) 0.4589(3)
O45_3 O 0.0301(3) 0.1501(7) 0.4708(2)
Co9_3 Co 0.21568(6) 0.39035(15) 0.56523(5)
H27_3 H 0.146019 0.204897 0.468832
H28_3 H 0.162671 0.0940662 0.457016
W1_3 W 0.043144(18) 0.82659(4) 0.649497(14)
W6_3 W 0.160958(17) 0.97960(4) 0.564953(14)
W7_3 W 0.084367(18) 0.76408(4) 0.562649(14)
Co2_3 Co 0.02105(6) 0.88606(14) 0.49294(5)
O4_3 O 0.0366(3) 0.8979(7) 0.5856(2)
O15_3 O 0.0660(3) 0.9604(7) 0.4601(2)
O16_3 O 0.0719(3) 0.8144(7) 0.5186(2)
O17_3 O 0.1368(3) 0.9933(7) 0.5205(2)
O18_3 O 0.1115(3) 0.6540(7) 0.5521(3)
O19_3 O 0.0212(3) 0.7160(7) 0.5644(2)
O20_3 O 0.0793(3) 0.7498(7) 0.6181(2)
O21_3 O 0.1328(3) 0.8523(7) 0.5735(2)
O25_3 O 0.0929(3) 0.9163(7) 0.6550(2)
O27_3 O 0.1636(3) 0.9915(7) 0.6208(2)
O28_3 O 0.0442(3) 0.7550(8) 0.6895(2)
O33_3 O 0.0041(3) 0.9410(7) 0.6629(2)
C1_3 C 0.2007(5) 0.8109(11) 0.8289(4)
C2_3 C 0.2298(5) 0.8201(12) 0.8861(4)
C3_3 C 0.2758(5) 0.8112(11) 0.8369(4)
C4_3 C 0.2225(5) 0.8247(11) 0.9272(4)
C5_3 C 0.3225(5) 0.8061(10) 0.8189(4)
C6_3 C 0.3265(5) 0.7897(14) 0.7815(4)
H1_3 H 0.3010 0.7778 0.7668
C7_3 C 0.3607(5) 0.8229(13) 0.8405(4)
H2_3 H 0.3586 0.8300 0.8661
C8_3 C 0.4020(5) 0.8288(11) 0.8222(4)
H3_3 H 0.4275 0.8464 0.8361
C21_3 C 0.3693(6) 0.7915(15) 0.7666(4)
H10_3 H 0.3724 0.7787 0.7413
C22_3 C 0.1593(5) 0.8035(12) 0.8055(4)
C23_3 C 0.1158(5) 0.8038(13) 0.8216(4)
H11_3 H 0.1120 0.8186 0.8467
C25_3 C 0.0796(5) 0.7822(12) 0.7999(4)
H13_3 H 0.0508 0.7822 0.8106
C28_3 C 0.1632(5) 0.7911(13) 0.7680(4)
H16_3 H 0.1914 0.7975 0.7564
C29_3 C 0.1248(5) 0.7691(12) 0.7477(4)
H17_3 H 0.1276 0.7597 0.7222
C30_3 C 0.2570(6) 0.8536(13) 0.9502(4)
H18_3 H 0.2853 0.8707 0.9405
C31_3 C 0.2496(6) 0.8570(14) 0.9872(4)
C32_3 C 0.1809(6) 0.8033(14) 0.9428(4)
H20_3 H 0.1560 0.7863 0.9282
C33_3 C 0.1775(7) 0.8077(17) 0.9801(5)
H21_3 H 0.1496 0.7905 0.9906
N6_3 N 0.1933(4) 0.8185(10) 0.8653(3)
N7_3 N 0.2411(4) 0.8059(9) 0.8135(3)
N8_3 N 0.2726(4) 0.8150(10) 0.8735(3)
N9_3 N 0.4078(4) 0.8109(10) 0.7865(4)
N11_3 N 0.0829(4) 0.7607(10) 0.7637(3)
O40_3 O 0.0753(3) 0.5646(8) 0.7219(3)
W10_3 W 0.078235(17) 0.95086(4) 0.410278(13)
O42_3 O 0.0055(3) 0.7711(7) 0.4583(2)
H33_3 H 0.106251 0.593363 0.718685
H34_3 H 0.0762719 0.511581 0.741127
W3_3 W 0.921765(17) 0.04914(4) 0.589722(13)
W4_3 W 0.994122(19) 0.24767(4) 0.591215(14)
W9_3 W 0.994558(18) 0.07798(4) 0.664163(14)
O5_3 O 0.9945(3) 0.2289(7) 0.5417(2)
O6_3 O 0.9328(3) 0.1858(7) 0.5915(2)
O7_3 O 0.9930(3) 0.2080(7) 0.6441(2)
O8_3 O 0.8641(3) 0.0385(8) 0.5914(2)
O9_3 O 0.9798(3) 0.3720(7) 0.5967(3)
O31_3 O 0.9372(3) 0.0518(7) 0.6425(2)
Co6_3 Co 0.97895(6) 0.11394(14) 0.50706(5)
O44_3 O 0.9340(3) 0.0396(7) 0.5399(2)
W2_3 W 0.969421(17) 0.79707(4) 0.576031(14)
O11_3 O 0.9382(3) 0.9091(7) 0.5943(2)
O22_3 O 0.9266(3) 0.7099(8) 0.5726(2)
O23_3 O 0.9699(3) 0.8499(7) 0.5292(2)
O24_3 O 0.9903(3) 0.7756(6) 0.6270(2)
C9_3 C 0.8026(5) 0.5726(12) 0.6116(4)
C10_3 C 0.7704(5) 0.5551(11) 0.6675(4)
C11_3 C 0.8458(5) 0.5580(11) 0.6615(4)
C12_3 C 0.8925(5) 0.5591(11) 0.6797(4)
C13_3 C 0.9299(5) 0.5724(11) 0.6580(4)
H4_3 H 0.9284 0.5679 0.6323
C14_3 C 0.9711(5) 0.5937(11) 0.6768(4)
H5_3 H 0.9970 0.6057 0.6626
C15_3 C 0.7977(5) 0.5867(12) 0.5707(4)
C16_3 C 0.7558(5) 0.5934(12) 0.5538(4)
H6_3 H 0.7292 0.5885 0.5677
C17_3 C 0.7287(5) 0.5488(13) 0.6918(4)
C18_3 C 0.6851(5) 0.5557(12) 0.6765(4)
H7_3 H 0.6816 0.5630 0.6510
C19_3 C 0.6476(5) 0.5519(13) 0.6987(5)
H8_3 H 0.6188 0.5554 0.6880
C20_3 C 0.9382(5) 0.5753(14) 0.7336(4)
H9_3 H 0.9405 0.5736 0.7593
C24_3 C 0.8951(5) 0.5541(11) 0.7172(4)
H12_3 H 0.8698 0.5376 0.7316
C26_3 C 0.7328(5) 0.5381(13) 0.7296(4)
H14_3 H 0.7613 0.5331 0.7407
C27_3 C 0.7540(5) 0.6076(12) 0.5163(4)
H15_3 H 0.7254 0.6158 0.5056
C34_3 C 0.8358(5) 0.5921(15) 0.5489(4)
H22_3 H 0.8647 0.5863 0.5593
C35_3 C 0.8302(5) 0.6066(14) 0.5107(4)
H23_3 H 0.8563 0.6141 0.4963
C36_3 C 0.6944(5) 0.5350(14) 0.7504(5)
H24_3 H 0.6976 0.5269 0.7759
N1_3 N 0.9752(4) 0.5974(10) 0.7140(3)
N2_3 N 0.7906(4) 0.6104(9) 0.4939(3)
N3_3 N 0.7640(4) 0.5666(9) 0.6315(3)
N4_3 N 0.8441(4) 0.5665(9) 0.6249(3)
N5_3 N 0.8100(4) 0.5483(9) 0.6842(3)
N10_3 N 0.6515(5) 0.5429(11) 0.7365(4)
O35_3 O 0.9840(4) 0.7877(9) 0.7538(3)
O36_3 O 0.7557(4) 0.7498(8) 0.4306(3)
O37_3 O 0.7782(4) 0.5954(10) 0.3774(3)
O38_2 O 0.8118(4) 0.4673(9) 0.4342(3)
Co5_3 Co 0.91348(6) 0.92410(14) 0.50472(5)
O41_3 O 0.9661(3) 0.9801(6) 0.4686(2)
O43_3 O 0.8512(3) 0.6761(8) 0.4255(3)
H25_3 H 0.959618 0.792756 0.73476
H26_3 H 0.970223 0.770717 0.778179
H29_3 H 0.777049 0.799975 0.441032
H30_3 H 0.749693 0.765346 0.404091
H31_2 H 0.792065 0.421879 0.448891
H32_2 H 0.813677 0.442996 0.408202
H35_3 H 0.74974 0.558646 0.371415
H36_3 H 0.777112 0.662639 0.365896
W1_4 W 0.456856(18) 0.17341(4) 0.149497(14)
W2_4 W 0.530579(17) 0.20293(4) 0.076031(14)
W6_4 W 0.339042(17) 0.02040(4) 0.064953(14)
W7_4 W 0.415633(18) 0.23592(4) 0.062649(14)
O4_4 O 0.4634(3) 0.1021(7) 0.0856(2)
O11_4 O 0.5618(3) 0.0909(7) 0.0943(2)
O16_4 O 0.4281(3) 0.1856(7) 0.0186(2)
O17_4 O 0.3632(3) 0.0067(7) 0.0205(2)
O18_4 O 0.3885(3) 0.3460(7) 0.0521(3)
O19_4 O 0.4788(3) 0.2840(7) 0.0644(2)
O20_4 O 0.4207(3) 0.2502(7) 0.1181(2)
O21_4 O 0.3672(3) 0.1477(7) 0.0735(2)
O22_4 O 0.5734(3) 0.2901(8) 0.0726(2)
O23_4 O 0.5301(3) 0.1501(7) 0.0292(2)
O24_4 O 0.5097(3) 0.2244(6) 0.1270(2)
O25_4 O 0.4071(3) 0.0837(7) 0.1550(2)
O27_4 O 0.3364(3) 0.0085(7) 0.1208(2)
O28_4 O 0.4558(3) 0.2450(8) 0.1895(2)
O33_4 O 0.4959(3) 0.0590(7) 0.1629(2)
C1_4 C 0.2993(5) 0.1891(11) 0.3289(4)
C2_4 C 0.2702(5) 0.1799(12) 0.3861(4)
C3_4 C 0.2242(5) 0.1888(11) 0.3369(4)
C4_4 C 0.2775(5) 0.1753(11) 0.4272(4)
C5_4 C 0.1775(5) 0.1939(10) 0.3189(4)
C6_4 C 0.1735(5) 0.2103(14) 0.2815(4)
H1_4 H 0.1990 0.2222 0.2668
C7_4 C 0.1393(5) 0.1771(13) 0.3405(4)
H2_4 H 0.1414 0.1700 0.3661
C8_4 C 0.0980(5) 0.1712(11) 0.3222(4)
H3_4 H 0.0725 0.1536 0.3361
C9_4 C 0.6974(5) 0.4274(12) 0.1116(4)
C10_4 C 0.7296(5) 0.4449(11) 0.1675(4)
C11_4 C 0.6542(5) 0.4420(11) 0.1615(4)
C12_4 C 0.6075(5) 0.4409(11) 0.1797(4)
C13_4 C 0.5701(5) 0.4276(11) 0.1580(4)
H4_4 H 0.5716 0.4321 0.1323
C14_4 C 0.5289(5) 0.4063(11) 0.1768(4)
H5_4 H 0.5030 0.3943 0.1626
C15_4 C 0.7023(5) 0.4133(12) 0.0707(4)
C16_4 C 0.7442(5) 0.4066(12) 0.0538(4)
H6_4 H 0.7708 0.4115 0.0677
C17_4 C 0.7713(5) 0.4512(13) 0.1918(4)
C18_4 C 0.8149(5) 0.4443(12) 0.1765(4)
H7_4 H 0.8184 0.4370 0.1510
C19_4 C 0.8524(5) 0.4481(13) 0.1987(5)
H8_4 H 0.8812 0.4446 0.1880
C20_4 C 0.5618(5) 0.4247(14) 0.2336(4)
H9_4 H 0.5595 0.4264 0.2593
C21_4 C 0.1307(6) 0.2085(15) 0.2666(4)
H10_4 H 0.1276 0.2213 0.2413
C22_4 C 0.3407(5) 0.1965(12) 0.3055(4)
C23_4 C 0.3842(5) 0.1962(13) 0.3216(4)
H11_4 H 0.3880 0.1814 0.3467
C24_4 C 0.6049(5) 0.4459(11) 0.2172(4)
H12_4 H 0.6302 0.4624 0.2316
C25_4 C 0.4204(5) 0.2178(12) 0.2999(4)
H13_4 H 0.4492 0.2178 0.3106
C26_4 C 0.7672(5) 0.4619(13) 0.2296(4)
H14_4 H 0.7387 0.4669 0.2407
C27_4 C 0.7460(5) 0.3924(12) 0.0163(4)
H15_4 H 0.7746 0.3842 0.0056
C28_4 C 0.3368(5) 0.2089(13) 0.2680(4)
H16_4 H 0.3086 0.2025 0.2564
C29_4 C 0.3752(5) 0.2309(12) 0.2477(4)
H17_4 H 0.3724 0.2403 0.2222
C30_4 C 0.2430(6) 0.1464(13) 0.4502(4)
H18_4 H 0.2147 0.1293 0.4405
C31_4 C 0.2504(6) 0.1430(14) 0.4872(4)
H19_2 H 0.2264 0.1235 0.5024
C32_4 C 0.3191(6) 0.1967(14) 0.4428(4)
H20_4 H 0.3440 0.2137 0.4282
C33_4 C 0.3225(7) 0.1923(17) 0.4801(5)
H21_4 H 0.3504 0.2095 0.4906
C34_4 C 0.6642(5) 0.4079(15) 0.0489(4)
H22_4 H 0.6353 0.4137 0.0593
C35_4 C 0.6698(5) 0.3934(14) 0.0107(4)
C36_4 C 0.8056(5) 0.4650(14) 0.2504(5)
H24_4 H 0.8024 0.4731 0.2759
N1_4 N 0.5248(4) 0.4026(10) 0.2140(3)
N3_4 N 0.7360(4) 0.4334(9) 0.1315(3)
N4_4 N 0.6559(4) 0.4335(9) 0.1249(3)
N5_4 N 0.6900(4) 0.4517(9) 0.1842(3)
N6_4 N 0.3067(4) 0.1815(10) 0.3653(3)
N7_4 N 0.2589(4) 0.1941(9) 0.3135(3)
N8_4 N 0.2274(4) 0.1850(10) 0.3735(3)
N9_4 N 0.0922(4) 0.1891(10) 0.2865(4)
N10_4 N 0.8485(5) 0.4571(11) 0.2365(4)
N11_4 N 0.4171(4) 0.2393(10) 0.2637(3)
N12_2 N 0.2893(6) 0.1654(14) 0.5030(4)
O35_4 O 0.5160(4) 0.2123(9) 0.2538(3)
O40_4 O 0.4247(3) 0.4354(8) 0.2219(3)
Co5_4 Co 0.58652(6) 0.07590(14) 0.00472(5)
H25_4 H 0.540382 0.207244 0.23476
H26_4 H 0.529777 0.229283 0.278179
H33_4 H 0.393749 0.406637 0.218685
H34_4 H 0.423728 0.488419 0.241127
Co2_4 Co 0.47895(6) 0.11394(14) 0.99294(5)
O15_4 O 0.4340(3) 0.0396(7) 0.9601(2)
H23_4 H 0.6437 0.3859 0.9963
N2_4 N 0.7094(4) 0.3896(9) 0.9939(3)
O36_4 O 0.7443(4) 0.2502(8) 0.9306(3)
O37_4 O 0.7218(4) 0.4046(10) 0.8774(3)
O38_3 O 0.6882(4) 0.5327(9) 0.9342(3)
W10_4 W 0.421765(17) 0.04914(4) 0.910278(13)
O41_4 O 0.5339(3) 0.0199(6) 0.9686(2)
O42_4 O 0.4945(3) 0.2289(7) 0.9583(2)
O43_4 O 0.6488(3) 0.3239(8) 0.9255(3)
H29_4 H 0.722951 0.200025 0.941032
H30_4 H 0.750307 0.234654 0.904091
H31_3 H 0.707935 0.578121 0.948891
H32_3 H 0.686323 0.557004 0.908202
H35_4 H 0.75026 0.441354 0.871415
H36_4 H 0.722888 0.337361 0.865896
W3_4 W 0.578235(17) 0.95086(4) 0.089722(13)
W4_4 W 0.505878(19) 0.75233(4) 0.091215(14)
W5_4 W 0.380825(18) 0.95187(4) 0.151863(14)
W8_4 W 0.382238(18) 0.78777(4) 0.076397(14)
W9_4 W 0.505442(18) 0.92202(4) 0.164163(14)
P1_4 P 0.45897(10) 0.9917(2) 0.07352(8)
O1_4 O 0.4946(3) 0.9308(7) 0.0947(2)
O2_4 O 0.4110(3) 0.9548(6) 0.0852(2)
O3_4 O 0.4661(3) 0.9801(6) 0.0314(2)
O5_4 O 0.5055(3) 0.7711(7) 0.0417(2)
O6_4 O 0.5672(3) 0.8142(7) 0.0915(2)
O7_4 O 0.5070(3) 0.7920(7) 0.1441(2)
O8_4 O 0.6359(3) 0.9615(8) 0.0914(2)
O9_4 O 0.5202(3) 0.6280(7) 0.0967(3)
O10_4 O 0.4406(3) 0.7466(7) 0.0941(2)
O12_4 O 0.4019(3) 0.8061(7) 0.0302(2)
O13_4 O 0.3512(3) 0.6761(8) 0.0745(3)
O14_4 O 0.3713(3) 0.8264(7) 0.1302(2)
O26_4 O 0.4405(3) 0.9076(7) 0.1649(2)
O30_4 O 0.3524(3) 0.9413(7) 0.1928(2)
O31_4 O 0.5628(3) 0.9482(7) 0.1425(2)
O32_4 O 0.3317(3) 0.8761(8) 0.0687(2)
Co6_4 Co 0.52105(6) 0.88606(14) 0.00706(5)
O44_4 O 0.5660(3) 0.9604(7) 0.0399(2)
Co9_4 Co 0.28432(6) 0.60965(15) 0.06523(5)
Co1_4 Co 0.41348(6) 0.92410(14) 0.99528(5)
O39_4 O 0.3640(3) 0.8606(9) 0.9589(3)
O45_4 O 0.4699(3) 0.8499(7) 0.9708(2)
H27_4 H 0.353981 0.795103 0.968832
H28_4 H 0.337329 0.905934 0.957016
W1_5 W 0.456856(18) 0.32659(4) 0.649497(14)
W2_5 W 0.530579(17) 0.29707(4) 0.576031(14)
W4_5 W 0.505878(19) 0.74767(4) 0.591215(14)
W5_5 W 0.380825(18) 0.54813(4) 0.651863(14)
W6_5 W 0.339042(17) 0.47960(4) 0.564953(14)
W7_5 W 0.415633(18) 0.26408(4) 0.562649(14)
W8_5 W 0.382238(18) 0.71223(4) 0.576397(14)
W9_5 W 0.505442(18) 0.57798(4) 0.664163(14)
P1_5 P 0.45897(10) 0.5083(2) 0.57352(8)
O1_5 O 0.4946(3) 0.5692(7) 0.5947(2)
O2_5 O 0.4110(3) 0.5452(6) 0.5852(2)
O4_5 O 0.4634(3) 0.3979(7) 0.5856(2)
O6_5 O 0.5672(3) 0.6858(7) 0.5915(2)
O7_5 O 0.5070(3) 0.7080(7) 0.6441(2)
O8_5 O 0.6359(3) 0.5385(8) 0.5914(2)
O9_5 O 0.5202(3) 0.8720(7) 0.5967(3)
O10_5 O 0.4406(3) 0.7534(7) 0.5941(2)
O11_5 O 0.5618(3) 0.4091(7) 0.5943(2)
O12_5 O 0.4019(3) 0.6939(7) 0.5302(2)
O14_5 O 0.3713(3) 0.6736(7) 0.6302(2)
O16_5 O 0.4281(3) 0.3144(7) 0.5186(2)
O17_5 O 0.3632(3) 0.4933(7) 0.5205(2)
O18_5 O 0.3885(3) 0.1540(7) 0.5521(3)
O19_5 O 0.4788(3) 0.2160(7) 0.5644(2)
O20_5 O 0.4207(3) 0.2498(7) 0.6181(2)
O21_5 O 0.3672(3) 0.3523(7) 0.5735(2)
O22_5 O 0.5734(3) 0.2099(8) 0.5726(2)
O24_5 O 0.5097(3) 0.2756(6) 0.6270(2)
O25_5 O 0.4071(3) 0.4163(7) 0.6550(2)
O26_5 O 0.4405(3) 0.5924(7) 0.6649(2)
O27_5 O 0.3364(3) 0.4915(7) 0.6208(2)
O28_5 O 0.4558(3) 0.2550(8) 0.6895(2)
O29_3 O 0.5193(3) 0.6011(8) 0.7102(2)
O30_5 O 0.3524(3) 0.5587(7) 0.6928(2)
O31_5 O 0.5628(3) 0.5518(7) 0.6425(2)
O32_5 O 0.3317(3) 0.6239(8) 0.5687(2)
O33_5 O 0.4959(3) 0.4410(7) 0.6629(2)
O34_3 O 0.2823(3) 0.4451(7) 0.5579(2)
Co3_3 Co 0.46987(6) 0.17661(15) 0.73851(5)
C1_5 C 0.2993(5) 0.3109(11) 0.8289(4)
C2_5 C 0.2702(5) 0.3201(12) 0.8861(4)
C3_5 C 0.2242(5) 0.3112(11) 0.8369(4)
C4_5 C 0.2775(5) 0.3247(11) 0.9272(4)
C5_5 C 0.1775(5) 0.3061(10) 0.8189(4)
C6_5 C 0.1735(5) 0.2897(14) 0.7815(4)
H1_5 H 0.1990 0.2778 0.7668
C7_5 C 0.1393(5) 0.3229(13) 0.8405(4)
H2_5 H 0.1414 0.3300 0.8661
C8_5 C 0.0980(5) 0.3288(11) 0.8222(4)
H3_5 H 0.0725 0.3464 0.8361
C9_5 C 0.6974(5) 0.0726(12) 0.6116(4)
C10_5 C 0.7296(5) 0.0551(11) 0.6675(4)
C11_5 C 0.6542(5) 0.0580(11) 0.6615(4)
C12_5 C 0.6075(5) 0.0591(11) 0.6797(4)
C13_5 C 0.5701(5) 0.0724(11) 0.6580(4)
H4_5 H 0.5716 0.0679 0.6323
C14_5 C 0.5289(5) 0.0937(11) 0.6768(4)
H5_5 H 0.5030 0.1057 0.6626
C15_5 C 0.7023(5) 0.0867(12) 0.5707(4)
C16_5 C 0.7442(5) 0.0934(12) 0.5538(4)
H6_5 H 0.7708 0.0885 0.5677
C17_5 C 0.7713(5) 0.0488(13) 0.6918(4)
C18_5 C 0.8149(5) 0.0557(12) 0.6765(4)
H7_5 H 0.8184 0.0630 0.6510
C19_5 C 0.8524(5) 0.0519(13) 0.6987(5)
H8_5 H 0.8812 0.0554 0.6880
C20_5 C 0.5618(5) 0.0753(14) 0.7336(4)
H9_5 H 0.5595 0.0736 0.7593
C21_5 C 0.1307(6) 0.2915(15) 0.7666(4)
H10_5 H 0.1276 0.2787 0.7413
C22_5 C 0.3407(5) 0.3035(12) 0.8055(4)
C23_5 C 0.3842(5) 0.3038(13) 0.8216(4)
H11_5 H 0.3880 0.3186 0.8467
C24_5 C 0.6049(5) 0.0541(11) 0.7172(4)
H12_5 H 0.6302 0.0376 0.7316
C25_5 C 0.4204(5) 0.2822(12) 0.7999(4)
H13_5 H 0.4492 0.2822 0.8106
C26_5 C 0.7672(5) 0.0381(13) 0.7296(4)
H14_5 H 0.7387 0.0331 0.7407
C27_5 C 0.7460(5) 0.1076(12) 0.5163(4)
H15_5 H 0.7746 0.1158 0.5056
C28_5 C 0.3368(5) 0.2911(13) 0.7680(4)
H16_5 H 0.3086 0.2975 0.7564
C29_5 C 0.3752(5) 0.2691(12) 0.7477(4)
H17_5 H 0.3724 0.2597 0.7222
C30_5 C 0.2430(6) 0.3536(13) 0.9502(4)
H18_5 H 0.2147 0.3707 0.9405
C31_5 C 0.2504(6) 0.3570(14) 0.9872(4)
C32_5 C 0.3191(6) 0.3033(14) 0.9428(4)
H20_5 H 0.3440 0.2863 0.9282
C33_5 C 0.3225(7) 0.3077(17) 0.9801(5)
H21_5 H 0.3504 0.2905 0.9906
C34_5 C 0.6642(5) 0.0921(15) 0.5489(4)
H22_5 H 0.6353 0.0863 0.5593
C35_5 C 0.6698(5) 0.1066(14) 0.5107(4)
H23_5 H 0.6437 0.1141 0.4963
C36_5 C 0.8056(5) 0.0350(14) 0.7504(5)
H24_5 H 0.8024 0.0269 0.7759
N1_5 N 0.5248(4) 0.0974(10) 0.7140(3)
N2_5 N 0.7094(4) 0.1104(9) 0.4939(3)
N3_5 N 0.7360(4) 0.0666(9) 0.6315(3)
N4_5 N 0.6559(4) 0.0665(9) 0.6249(3)
N5_5 N 0.6900(4) 0.0483(9) 0.6842(3)
N6_5 N 0.3067(4) 0.3185(10) 0.8653(3)
N7_5 N 0.2589(4) 0.3059(9) 0.8135(3)
N8_5 N 0.2274(4) 0.3150(10) 0.8735(3)
N9_5 N 0.0922(4) 0.3109(10) 0.7865(4)
N10_5 N 0.8485(5) 0.0429(11) 0.7365(4)
N11_5 N 0.4171(4) 0.2607(10) 0.7637(3)
O35_5 O 0.5160(4) 0.2877(9) 0.7538(3)
O36_5 O 0.7443(4) 0.2498(8) 0.4306(3)
O37_5 O 0.7218(4) 0.0954(10) 0.3774(3)
O39_5 O 0.3640(3) 0.6394(9) 0.4589(3)
O40_5 O 0.4247(3) 0.0646(8) 0.7219(3)
O46_3 O 0.4807(3) 0.1011(8) 0.7898(2)
O47_3 O 0.7823(3) 0.0549(7) 0.4421(2)
Co7_3 Co 0.53013(6) 0.67661(15) 0.76149(5)
H25_5 H 0.540382 0.292756 0.73476
H26_5 H 0.529777 0.270717 0.778179
H27_5 H 0.353981 0.704897 0.468832
H28_5 H 0.337329 0.594066 0.457016
H29_5 H 0.722951 0.299975 0.441032
H30_5 H 0.750307 0.265346 0.404091
H33_5 H 0.393749 0.0933633 0.718685
H34_5 H 0.423728 0.0115812 0.741127
H35_5 H 0.75026 0.0586458 0.371415
H36_5 H 0.722888 0.162639 0.365896
W1_6 W 0.043144(18) 0.67341(4) 0.149497(14)
W5_6 W 0.119175(18) 0.45187(4) 0.151863(14)
W6_6 W 0.160958(17) 0.52040(4) 0.064953(14)
W7_6 W 0.084367(18) 0.73592(4) 0.062649(14)
W8_6 W 0.117762(18) 0.28777(4) 0.076397(14)
P1_6 P 0.04103(10) 0.4917(2) 0.07352(8)
O1_6 O 0.0054(3) 0.4308(7) 0.0947(2)
O2_6 O 0.0890(3) 0.4548(6) 0.0852(2)
O4_6 O 0.0366(3) 0.6021(7) 0.0856(2)
O10_6 O 0.0594(3) 0.2466(7) 0.0941(2)
O12_6 O 0.0981(3) 0.3061(7) 0.0302(2)
O14_6 O 0.1287(3) 0.3264(7) 0.1302(2)
O16_6 O 0.0719(3) 0.6856(7) 0.0186(2)
O17_6 O 0.1368(3) 0.5067(7) 0.0205(2)
O18_6 O 0.1115(3) 0.8460(7) 0.0521(3)
O19_6 O 0.0212(3) 0.7840(7) 0.0644(2)
O20_6 O 0.0793(3) 0.7502(7) 0.1181(2)
O21_6 O 0.1328(3) 0.6477(7) 0.0735(2)
O25_6 O 0.0929(3) 0.5837(7) 0.1550(2)
O26_6 O 0.0595(3) 0.4076(7) 0.1649(2)
O27_6 O 0.1636(3) 0.5085(7) 0.1208(2)
O28_6 O 0.0442(3) 0.7450(8) 0.1895(2)
O30_6 O 0.1476(3) 0.4413(7) 0.1928(2)
O32_6 O 0.1683(3) 0.3761(8) 0.0687(2)
O33_6 O 0.0041(3) 0.5590(7) 0.1629(2)
O34_4 O 0.2177(3) 0.5549(7) 0.0579(2)
Co3_4 Co 0.03013(6) 0.82339(15) 0.23851(5)
C1_6 C 0.2007(5) 0.6891(11) 0.3289(4)
C2_6 C 0.2298(5) 0.6799(12) 0.3861(4)
C3_6 C 0.2758(5) 0.6888(11) 0.3369(4)
C4_6 C 0.2225(5) 0.6753(11) 0.4272(4)
C5_6 C 0.3225(5) 0.6939(10) 0.3189(4)
C6_6 C 0.3265(5) 0.7103(14) 0.2815(4)
H1_6 H 0.3010 0.7222 0.2668
C7_6 C 0.3607(5) 0.6771(13) 0.3405(4)
H2_6 H 0.3586 0.6700 0.3661
C8_6 C 0.4020(5) 0.6712(11) 0.3222(4)
H3_6 H 0.4275 0.6536 0.3361
C21_6 C 0.3693(6) 0.7085(15) 0.2666(4)
H10_6 H 0.3724 0.7213 0.2413
C22_6 C 0.1593(5) 0.6965(12) 0.3055(4)
C23_6 C 0.1158(5) 0.6962(13) 0.3216(4)
H11_6 H 0.1120 0.6814 0.3467
C25_6 C 0.0796(5) 0.7178(12) 0.2999(4)
H13_6 H 0.0508 0.7178 0.3106
C28_6 C 0.1632(5) 0.7089(13) 0.2680(4)
H16_6 H 0.1914 0.7025 0.2564
C29_6 C 0.1248(5) 0.7309(12) 0.2477(4)
H17_6 H 0.1276 0.7403 0.2222
C30_6 C 0.2570(6) 0.6464(13) 0.4502(4)
H18_6 H 0.2853 0.6293 0.4405
C31_6 C 0.2496(6) 0.6430(14) 0.4872(4)
H19_3 H 0.2736 0.6235 0.5024
C32_6 C 0.1809(6) 0.6967(14) 0.4428(4)
H20_6 H 0.1560 0.7137 0.4282
C33_6 C 0.1775(7) 0.6923(17) 0.4801(5)
H21_6 H 0.1496 0.7095 0.4906
N6_6 N 0.1933(4) 0.6815(10) 0.3653(3)
N7_6 N 0.2411(4) 0.6941(9) 0.3135(3)
N8_6 N 0.2726(4) 0.6850(10) 0.3735(3)
N9_6 N 0.4078(4) 0.6891(10) 0.2865(4)
N11_6 N 0.0829(4) 0.7393(10) 0.2637(3)
N12_3 N 0.2107(6) 0.6654(14) 0.5030(4)
O40_6 O 0.0753(3) 0.9354(8) 0.2219(3)
O46_4 O 0.0193(3) 0.8989(8) 0.2898(2)
H33_6 H 0.106251 0.906637 0.218685
H34_6 H 0.0762719 0.988419 0.241127
O39_6 O 0.1360(3) 0.3606(9) 0.9589(3)
H27_6 H 0.146019 0.295103 0.968832
H28_6 H 0.162671 0.405934 0.957016
W2_6 W 0.969421(17) 0.70293(4) 0.076031(14)
W4_6 W 0.994122(19) 0.25233(4) 0.091215(14)
W9_6 W 0.994558(18) 0.42202(4) 0.164163(14)
O6_6 O 0.9328(3) 0.3142(7) 0.0915(2)
O7_6 O 0.9930(3) 0.2920(7) 0.1441(2)
O8_6 O 0.8641(3) 0.4615(8) 0.0914(2)
O9_6 O 0.9798(3) 0.1280(7) 0.0967(3)
O11_6 O 0.9382(3) 0.5909(7) 0.0943(2)
O22_6 O 0.9266(3) 0.7901(8) 0.0726(2)
O24_6 O 0.9903(3) 0.7244(6) 0.1270(2)
O29_4 O 0.9807(3) 0.3989(8) 0.2102(2)
O31_6 O 0.9372(3) 0.4482(7) 0.1425(2)
C9_6 C 0.8026(5) 0.9274(12) 0.1116(4)
C10_6 C 0.7704(5) 0.9449(11) 0.1675(4)
C11_6 C 0.8458(5) 0.9420(11) 0.1615(4)
C12_6 C 0.8925(5) 0.9409(11) 0.1797(4)
C13_6 C 0.9299(5) 0.9276(11) 0.1580(4)
H4_6 H 0.9284 0.9321 0.1323
C14_6 C 0.9711(5) 0.9063(11) 0.1768(4)
H5_6 H 0.9970 0.8943 0.1626
C15_6 C 0.7977(5) 0.9133(12) 0.0707(4)
C16_6 C 0.7558(5) 0.9066(12) 0.0538(4)
H6_6 H 0.7292 0.9115 0.0677
C17_6 C 0.7287(5) 0.9512(13) 0.1918(4)
C18_6 C 0.6851(5) 0.9443(12) 0.1765(4)
H7_6 H 0.6816 0.9370 0.1510
C19_6 C 0.6476(5) 0.9481(13) 0.1987(5)
H8_6 H 0.6188 0.9446 0.1880
C20_6 C 0.9382(5) 0.9247(14) 0.2336(4)
H9_6 H 0.9405 0.9264 0.2593
C24_6 C 0.8951(5) 0.9459(11) 0.2172(4)
H12_6 H 0.8698 0.9624 0.2316
C26_6 C 0.7328(5) 0.9619(13) 0.2296(4)
H14_6 H 0.7613 0.9669 0.2407
C27_6 C 0.7540(5) 0.8924(12) 0.0163(4)
H15_6 H 0.7254 0.8842 0.0056
C34_6 C 0.8358(5) 0.9079(15) 0.0489(4)
H22_6 H 0.8647 0.9137 0.0593
C35_6 C 0.8302(5) 0.8934(14) 0.0107(4)
C36_6 C 0.6944(5) 0.9650(14) 0.2504(5)
H24_6 H 0.6976 0.9731 0.2759
N1_6 N 0.9752(4) 0.9026(10) 0.2140(3)
N3_6 N 0.7640(4) 0.9334(9) 0.1315(3)
N4_6 N 0.8441(4) 0.9335(9) 0.1249(3)
N5_6 N 0.8100(4) 0.9517(9) 0.1842(3)
N10_6 N 0.6515(5) 0.9571(11) 0.2365(4)
O35_6 O 0.9840(4) 0.7123(9) 0.2538(3)
Co7_4 Co 0.96987(6) 0.32339(15) 0.26149(5)
H25_6 H 0.959618 0.707244 0.23476
H26_6 H 0.970223 0.729283 0.278179
H23_6 H 0.8563 0.8859 0.9963
N2_6 N 0.7906(4) 0.8896(9) 0.9939(3)
O36_6 O 0.7557(4) 0.7502(8) 0.9306(3)
O37_6 O 0.7782(4) 0.9046(10) 0.8774(3)
O47_4 O 0.7177(3) 0.9451(7) 0.9421(2)
H29_6 H 0.777049 0.700025 0.941032
H30_6 H 0.749693 0.734654 0.904091
H35_6 H 0.74974 0.941354 0.871415
H36_6 H 0.777112 0.837361 0.865896
W2_7 W 0.030579(17) 0.20293(4) 0.423969(14)
O11_7 O 0.0618(3) 0.0909(7) 0.4057(2)
O22_7 O 0.0734(3) 0.2901(8) 0.4274(2)
O24_7 O 0.0097(3) 0.2244(6) 0.3730(2)
C9_7 C 0.1974(5) 0.4274(12) 0.3884(4)
C10_7 C 0.2296(5) 0.4449(11) 0.3325(4)
C11_7 C 0.1542(5) 0.4420(11) 0.3385(4)
C12_7 C 0.1075(5) 0.4409(11) 0.3203(4)
C13_7 C 0.0701(5) 0.4276(11) 0.3420(4)
H4_7 H 0.0716 0.4321 0.3677
C14_7 C 0.0289(5) 0.4063(11) 0.3232(4)
H5_7 H 0.0030 0.3943 0.3374
C15_7 C 0.2023(5) 0.4133(12) 0.4293(4)
C16_7 C 0.2442(5) 0.4066(12) 0.4462(4)
H6_7 H 0.2708 0.4115 0.4323
C17_7 C 0.2713(5) 0.4512(13) 0.3082(4)
C18_7 C 0.3149(5) 0.4443(12) 0.3235(4)
H7_7 H 0.3184 0.4370 0.3490
C19_7 C 0.3524(5) 0.4481(13) 0.3013(5)
H8_7 H 0.3812 0.4446 0.3120
C20_7 C 0.0618(5) 0.4247(14) 0.2664(4)
H9_7 H 0.0595 0.4264 0.2407
C24_7 C 0.1049(5) 0.4459(11) 0.2828(4)
H12_7 H 0.1302 0.4624 0.2684
C26_7 C 0.2672(5) 0.4619(13) 0.2704(4)
H14_7 H 0.2387 0.4669 0.2593
C27_7 C 0.2460(5) 0.3924(12) 0.4837(4)
H15_7 H 0.2746 0.3842 0.4944
C34_7 C 0.1642(5) 0.4079(15) 0.4511(4)
H22_7 H 0.1353 0.4137 0.4407
C35_7 C 0.1698(5) 0.3934(14) 0.4893(4)
H23_7 H 0.1437 0.3859 0.5037
C36_7 C 0.3056(5) 0.4650(14) 0.2496(5)
H24_7 H 0.3024 0.4731 0.2241
N1_7 N 0.0248(4) 0.4026(10) 0.2860(3)
N2_7 N 0.2094(4) 0.3896(9) 0.5061(3)
N3_7 N 0.2360(4) 0.4334(9) 0.3685(3)
N4_7 N 0.1559(4) 0.4335(9) 0.3751(3)
N5_7 N 0.1900(4) 0.4517(9) 0.3158(3)
N10_7 N 0.3485(5) 0.4571(11) 0.2635(4)
O35_7 O 0.0160(4) 0.2123(9) 0.2462(3)
O36_7 O 0.2443(4) 0.2502(8) 0.5694(3)
O37_7 O 0.2218(4) 0.4046(10) 0.6226(3)
O38_4 O 0.1882(4) 0.5327(9) 0.5658(3)
H25_7 H 0.0403817 0.207244 0.26524
H26_7 H 0.0297769 0.229283 0.221821
H29_7 H 0.222951 0.200025 0.558968
H30_7 H 0.250307 0.234654 0.595909
H31_4 H 0.207935 0.578121 0.551109
H32_4 H 0.186323 0.557004 0.591798
H35_7 H 0.25026 0.441354 0.628585
H36_7 H 0.222888 0.337361 0.634104
W4_7 W 0.005878(19) 0.75233(4) 0.408785(14)
W9_7 W 0.005442(18) 0.92202(4) 0.335837(14)
O6_7 O 0.0672(3) 0.8142(7) 0.4085(2)
O7_7 O 0.0070(3) 0.7920(7) 0.3559(2)
O8_7 O 0.1359(3) 0.9615(8) 0.4086(2)
O9_7 O 0.0202(3) 0.6280(7) 0.4033(3)
O31_7 O 0.0628(3) 0.9482(7) 0.3575(2)
W1_7 W 0.956856(18) 0.17341(4) 0.350503(14)
W6_7 W 0.839042(17) 0.02040(4) 0.435047(14)
W7_7 W 0.915633(18) 0.23592(4) 0.437351(14)
O4_7 O 0.9634(3) 0.1021(7) 0.4144(2)
O16_7 O 0.9281(3) 0.1856(7) 0.4814(2)
O17_7 O 0.8632(3) 0.0067(7) 0.4795(2)
O18_7 O 0.8885(3) 0.3460(7) 0.4479(3)
O19_7 O 0.9788(3) 0.2840(7) 0.4356(2)
O20_7 O 0.9207(3) 0.2502(7) 0.3819(2)
O21_7 O 0.8672(3) 0.1477(7) 0.4265(2)
O25_7 O 0.9071(3) 0.0837(7) 0.3450(2)
O27_7 O 0.8364(3) 0.0085(7) 0.3792(2)
O28_7 O 0.9558(3) 0.2450(8) 0.3105(2)
O33_7 O 0.9959(3) 0.0590(7) 0.3371(2)
C1_7 C 0.7993(5) 0.1891(11) 0.1711(4)
C2_7 C 0.7702(5) 0.1799(12) 0.1139(4)
C3_7 C 0.7242(5) 0.1888(11) 0.1631(4)
C4_7 C 0.7775(5) 0.1753(11) 0.0728(4)
C5_7 C 0.6775(5) 0.1939(10) 0.1811(4)
C6_7 C 0.6735(5) 0.2103(14) 0.2185(4)
H1_7 H 0.6990 0.2222 0.2332
C7_7 C 0.6393(5) 0.1771(13) 0.1595(4)
H2_7 H 0.6414 0.1700 0.1339
C8_7 C 0.5980(5) 0.1712(11) 0.1778(4)
H3_7 H 0.5725 0.1536 0.1639
C21_7 C 0.6307(6) 0.2085(15) 0.2334(4)
H10_7 H 0.6276 0.2213 0.2587
C22_7 C 0.8407(5) 0.1965(12) 0.1945(4)
C23_7 C 0.8842(5) 0.1962(13) 0.1784(4)
H11_7 H 0.8880 0.1814 0.1533
C25_7 C 0.9204(5) 0.2178(12) 0.2001(4)
H13_7 H 0.9492 0.2178 0.1894
C28_7 C 0.8368(5) 0.2089(13) 0.2320(4)
H16_7 H 0.8086 0.2025 0.2436
C29_7 C 0.8752(5) 0.2309(12) 0.2523(4)
H17_7 H 0.8724 0.2403 0.2778
C30_7 C 0.7430(6) 0.1464(13) 0.0498(4)
H18_7 H 0.7147 0.1293 0.0595
C31_7 C 0.7504(6) 0.1430(14) 0.0128(4)
C32_7 C 0.8191(6) 0.1967(14) 0.0572(4)
H20_7 H 0.8440 0.2137 0.0718
C33_7 C 0.8225(7) 0.1923(17) 0.0199(5)
H21_7 H 0.8504 0.2095 0.0094
N6_7 N 0.8067(4) 0.1815(10) 0.1347(3)
N7_7 N 0.7589(4) 0.1941(9) 0.1865(3)
N8_7 N 0.7274(4) 0.1850(10) 0.1265(3)
N9_7 N 0.5922(4) 0.1891(10) 0.2135(4)
N11_7 N 0.9171(4) 0.2393(10) 0.2363(3)
O40_7 O 0.9247(3) 0.4354(8) 0.2781(3)
H33_7 H 0.893749 0.406637 0.281315
H34_7 H 0.923728 0.488419 0.258873
W5_7 W 0.880825(18) 0.95187(4) 0.348137(14)
W8_7 W 0.882238(18) 0.78777(4) 0.423603(14)
P1_7 P 0.95897(10) 0.9917(2) 0.42648(8)
O1_7 O 0.9946(3) 0.9308(7) 0.4053(2)
O2_7 O 0.9110(3) 0.9548(6) 0.4148(2)
O10_7 O 0.9406(3) 0.7466(7) 0.4059(2)
O12_7 O 0.9019(3) 0.8061(7) 0.4698(2)
O14_7 O 0.8713(3) 0.8264(7) 0.3698(2)
O26_7 O 0.9405(3) 0.9076(7) 0.3351(2)
O30_7 O 0.8524(3) 0.9413(7) 0.3072(2)
O32_7 O 0.8317(3) 0.8761(8) 0.4313(2)
O39_7 O 0.8640(3) 0.8606(9) 0.5411(3)
H27_7 H 0.853981 0.795103 0.531168
H28_7 H 0.837329 0.905934 0.542984
O39_8 O 0.6360(3) 0.1394(9) 0.0411(3)
H27_8 H 0.646019 0.204897 0.0311682
H28_8 H 0.662671 0.0940662 0.0429842
W4_8 W 0.494122(19) 0.24767(4) 0.908785(14)
W5_8 W 0.619175(18) 0.04813(4) 0.848137(14)
W8_8 W 0.617762(18) 0.21223(4) 0.923603(14)
W9_8 W 0.494558(18) 0.07798(4) 0.835837(14)
P1_8 P 0.54103(10) 0.0083(2) 0.92648(8)
O1_8 O 0.5054(3) 0.0692(7) 0.9053(2)
O2_8 O 0.5890(3) 0.0452(6) 0.9148(2)
O6_8 O 0.4328(3) 0.1858(7) 0.9085(2)
O7_8 O 0.4930(3) 0.2080(7) 0.8559(2)
O8_8 O 0.3641(3) 0.0385(8) 0.9086(2)
O9_8 O 0.4798(3) 0.3720(7) 0.9033(3)
O10_8 O 0.5594(3) 0.2534(7) 0.9059(2)
O12_8 O 0.5981(3) 0.1939(7) 0.9698(2)
O14_8 O 0.6287(3) 0.1736(7) 0.8698(2)
O26_8 O 0.5595(3) 0.0924(7) 0.8351(2)
O30_8 O 0.6476(3) 0.0587(7) 0.8072(2)
O31_8 O 0.4372(3) 0.0518(7) 0.8575(2)
O32_8 O 0.6683(3) 0.1239(8) 0.9313(2)
H23_8 H 0.3563 0.6141 0.0037
N2_8 N 0.2906(4) 0.6104(9) 0.0061(3)
O36_8 O 0.2557(4) 0.7498(8) 0.0694(3)
O37_8 O 0.2782(4) 0.5954(10) 0.1226(3)
O38_5 O 0.3118(4) 0.4673(9) 0.0658(3)
H29_8 H 0.277049 0.799975 0.0589677
H30_8 H 0.249693 0.765346 0.0959088
H31_5 H 0.292065 0.421879 0.0511092
H32_5 H 0.313677 0.442996 0.0917981
H35_8 H 0.24974 0.558646 0.128585
H36_8 H 0.277112 0.662639 0.134104
W1_8 W 0.543144(18) 0.82659(4) 0.850503(14)
W2_8 W 0.469421(17) 0.79707(4) 0.923969(14)
W6_8 W 0.660958(17) 0.97960(4) 0.935047(14)
W7_8 W 0.584367(18) 0.76408(4) 0.937351(14)
O4_8 O 0.5366(3) 0.8979(7) 0.9144(2)
O11_8 O 0.4382(3) 0.9091(7) 0.9057(2)
O16_8 O 0.5719(3) 0.8144(7) 0.9814(2)
O17_8 O 0.6368(3) 0.9933(7) 0.9795(2)
O18_8 O 0.6115(3) 0.6540(7) 0.9479(3)
O19_8 O 0.5212(3) 0.7160(7) 0.9356(2)
O20_8 O 0.5793(3) 0.7498(7) 0.8819(2)
O21_8 O 0.6328(3) 0.8523(7) 0.9265(2)
O22_8 O 0.4266(3) 0.7099(8) 0.9274(2)
O24_8 O 0.4903(3) 0.7756(6) 0.8730(2)
O25_8 O 0.5929(3) 0.9163(7) 0.8450(2)
O27_8 O 0.6636(3) 0.9915(7) 0.8792(2)
O28_8 O 0.5442(3) 0.7550(8) 0.8105(2)
O33_8 O 0.5041(3) 0.9410(7) 0.8371(2)
C1_8 C 0.7007(5) 0.8109(11) 0.6711(4)
C2_8 C 0.7298(5) 0.8201(12) 0.6139(4)
C3_8 C 0.7758(5) 0.8112(11) 0.6631(4)
C4_8 C 0.7225(5) 0.8247(11) 0.5728(4)
C5_8 C 0.8225(5) 0.8061(10) 0.6811(4)
C6_8 C 0.8265(5) 0.7897(14) 0.7185(4)
H1_8 H 0.8010 0.7778 0.7332
C7_8 C 0.8607(5) 0.8229(13) 0.6595(4)
H2_8 H 0.8586 0.8300 0.6339
C8_8 C 0.9020(5) 0.8288(11) 0.6778(4)
H3_8 H 0.9275 0.8464 0.6639
C9_8 C 0.3026(5) 0.5726(12) 0.8884(4)
C10_8 C 0.2704(5) 0.5551(11) 0.8325(4)
C11_8 C 0.3458(5) 0.5580(11) 0.8385(4)
C12_8 C 0.3925(5) 0.5591(11) 0.8203(4)
C13_8 C 0.4299(5) 0.5724(11) 0.8420(4)
H4_8 H 0.4284 0.5679 0.8677
C14_8 C 0.4711(5) 0.5937(11) 0.8232(4)
H5_8 H 0.4970 0.6057 0.8374
C15_8 C 0.2977(5) 0.5867(12) 0.9293(4)
C16_8 C 0.2558(5) 0.5934(12) 0.9462(4)
H6_8 H 0.2292 0.5885 0.9323
C17_8 C 0.2287(5) 0.5488(13) 0.8082(4)
C18_8 C 0.1851(5) 0.5557(12) 0.8235(4)
H7_8 H 0.1816 0.5630 0.8490
C19_8 C 0.1476(5) 0.5519(13) 0.8013(5)
H8_8 H 0.1188 0.5554 0.8120
C20_8 C 0.4382(5) 0.5753(14) 0.7664(4)
H9_8 H 0.4405 0.5736 0.7407
C21_8 C 0.8693(6) 0.7915(15) 0.7334(4)
H10_8 H 0.8724 0.7787 0.7587
C22_8 C 0.6593(5) 0.8035(12) 0.6945(4)
C23_8 C 0.6158(5) 0.8038(13) 0.6784(4)
H11_8 H 0.6120 0.8186 0.6533
C24_8 C 0.3951(5) 0.5541(11) 0.7828(4)
H12_8 H 0.3698 0.5376 0.7684
C25_8 C 0.5796(5) 0.7822(12) 0.7001(4)
H13_8 H 0.5508 0.7822 0.6894
C26_8 C 0.2328(5) 0.5381(13) 0.7704(4)
H14_8 H 0.2613 0.5331 0.7593
C27_8 C 0.2540(5) 0.6076(12) 0.9837(4)
H15_8 H 0.2254 0.6158 0.9944
C28_8 C 0.6632(5) 0.7911(13) 0.7320(4)
H16_8 H 0.6914 0.7975 0.7436
C29_8 C 0.6248(5) 0.7691(12) 0.7523(4)
H17_8 H 0.6276 0.7597 0.7778
C30_8 C 0.7570(6) 0.8536(13) 0.5498(4)
H18_8 H 0.7853 0.8707 0.5595
C31_8 C 0.7496(6) 0.8570(14) 0.5128(4)
H19_4 H 0.7736 0.8765 0.4976
C32_8 C 0.6809(6) 0.8033(14) 0.5572(4)
H20_8 H 0.6560 0.7863 0.5718
C33_8 C 0.6775(7) 0.8077(17) 0.5199(5)
H21_8 H 0.6496 0.7905 0.5094
C34_8 C 0.3358(5) 0.5921(15) 0.9511(4)
H22_8 H 0.3647 0.5863 0.9407
C35_8 C 0.3302(5) 0.6066(14) 0.9893(4)
C36_8 C 0.1944(5) 0.5350(14) 0.7496(5)
H24_8 H 0.1976 0.5269 0.7241
N1_8 N 0.4752(4) 0.5974(10) 0.7860(3)
N3_8 N 0.2640(4) 0.5666(9) 0.8685(3)
N4_8 N 0.3441(4) 0.5665(9) 0.8751(3)
N5_8 N 0.3100(4) 0.5483(9) 0.8158(3)
N6_8 N 0.6933(4) 0.8185(10) 0.6347(3)
N7_8 N 0.7411(4) 0.8059(9) 0.6865(3)
N8_8 N 0.7726(4) 0.8150(10) 0.6265(3)
N9_8 N 0.9078(4) 0.8109(10) 0.7135(4)
N10_8 N 0.1515(5) 0.5429(11) 0.7635(4)
N11_8 N 0.5829(4) 0.7607(10) 0.7363(3)
N12_4 N 0.7107(6) 0.8346(14) 0.4970(4)
O35_8 O 0.4840(4) 0.7877(9) 0.7462(3)
O40_8 O 0.5753(3) 0.5646(8) 0.7781(3)
H25_8 H 0.459618 0.792756 0.76524
H26_8 H 0.470223 0.770717 0.721821
H33_8 H 0.606251 0.593363 0.781315
H34_8 H 0.576272 0.511581 0.758873
H19_5 H 0.7736 0.6235 0.9976
N12_5 N 0.7107(6) 0.6654(14) 0.9970(4)
O38_6 O 0.1882(4) 0.9673(9) 0.0658(3)
H31_6 H 0.207935 0.921879 0.0511092
H32_6 H 0.186323 0.942996 0.0917981
H19_6 H 0.2736 0.8765 0.0024
N12_6 N 0.2107(6) 0.8346(14) 0.0030(4)
H19_7 H 0.2264 0.3765 0.0024
N12_7 N 0.2893(6) 0.3346(14) 0.0030(4)
O38_7 O 0.6882(4) 0.9673(9) 0.4342(3)
H31_7 H 0.707935 0.921879 0.448891
H32_7 H 0.686323 0.942996 0.408202
O38_8 O 0.8118(4) 0.0327(9) 0.9342(3)
H31_8 H 0.792065 0.0781214 0.948891
H32_8 H 0.813677 0.0570039 0.908202
H19_8 H 0.7264 0.1235 0.9976
N12_8 N 0.7893(6) 0.1654(14) 0.9970(4)
loop_
_geom_bond_atom_site_label_1
_geom_bond_atom_site_label_2
_geom_bond_site_symmetry_1
_geom_bond_site_symmetry_2
O38 H31 1_555 1_555
O38 H32 1_555 1_555
W1 O4 1_555 1_555
W2 O4 1_555 1_555
W3 O1 1_555 1_555
W4 O1 1_555 1_555
W5 O14 1_555 1_555
W6 O2 1_555 1_555
W7 O4 1_555 1_555
W8 O2 1_555 1_555
W9 O7 1_555 1_555
Co1 O3 1_555 1_555
Co2 O3 1_555 1_555
P1 O1 1_555 1_555
O2 P1 1_555 1_555
O3 P1 1_555 1_555
O4 P1 1_555 1_555
O5 W4 1_555 1_555
O6 W3 1_555 1_555
O7 W4 1_555 1_555
O8 W3 1_555 1_555
O9 W4 1_555 1_555
O10 W4 1_555 1_555
O11 W2 1_555 1_555
O12 W8 1_555 1_555
O13 W8 1_555 1_555
O14 W8 1_555 1_555
O15 Co1 1_555 1_555
O16 W7 1_555 1_555
O17 W6 1_555 1_555
O18 W7 1_555 1_555
O19 W2 1_555 1_555
O20 W1 1_555 1_555
O21 W6 1_555 1_555
O22 W2 1_555 1_555
O23 W2 1_555 1_555
O24 W1 1_555 1_555
O25 W1 1_555 1_555
O26 W5 1_555 1_555
O27 W5 1_555 1_555
O28 W1 1_555 1_555
O29 W9 1_555 1_555
O30 W5 1_555 1_555
O31 W3 1_555 1_555
O32 W6 1_555 1_555
O33 W1 1_555 1_555
O34 W6 1_555 1_555
Co3 O28 1_555 1_555
C1 C22 1_555 1_555
C2 C4 1_555 1_555
C3 C5 1_555 1_555
C4 C30 1_555 1_555
C5 C6 1_555 1_555
C6 H1 1_555 1_555
C7 C5 1_555 1_555
H2 C7 1_555 1_555
C8 C7 1_555 1_555
H3 C8 1_555 1_555
C9 C15 1_555 1_555
C10 C17 1_555 1_555
C11 C12 1_555 1_555
C12 C13 1_555 1_555
C13 H4 1_555 1_555
C14 C13 1_555 1_555
H5 C14 1_555 1_555
C15 C16 1_555 1_555
C16 H6 1_555 1_555
C17 C18 1_555 1_555
C18 H7 1_555 1_555
C19 C18 1_555 1_555
H8 C19 1_555 1_555
C20 H9 1_555 1_555
C21 C6 1_555 1_555
H10 C21 1_555 1_555
C22 C23 1_555 1_555
C23 H11 1_555 1_555
C24 C12 1_555 1_555
H12 C24 1_555 1_555
C25 C23 1_555 1_555
H13 C25 1_555 1_555
C26 C17 1_555 1_555
H14 C26 1_555 1_555
C27 C16 1_555 1_555
H15 C27 1_555 1_555
C28 C22 1_555 1_555
H16 C28 1_555 1_555
C29 C28 1_555 1_555
H17 C29 1_555 1_555
C30 H18 1_555 1_555
C31 C30 1_555 1_555
C32 C4 1_555 1_555
H20 C32 1_555 1_555
C33 C32 1_555 1_555
H21 C33 1_555 1_555
C34 C15 1_555 1_555
H22 C34 1_555 1_555
C35 C34 1_555 1_555
H23 C35 1_555 1_555
C36 C26 1_555 1_555
H24 C36 1_555 1_555
N1 Co3 1_555 1_555
N2 C27 1_555 1_555
N3 C9 1_555 1_555
N4 C9 1_555 1_555
N5 C10 1_555 1_555
N6 C1 1_555 1_555
N7 C1 1_555 1_555
N8 C2 1_555 1_555
N9 C8 1_555 1_555
N10 C19 1_555 1_555
N11 Co3 1_555 1_555
O35 Co3 1_555 1_555
Co4 N2 1_555 1_555
O36 Co4 1_555 1_555
O37 Co4 1_555 1_555
O39 Co1 1_555 1_555
O40 Co3 1_555 1_555
W10 O15 1_555 1_555
Co5 O23 1_555 1_555
Co6 O3 1_555 1_555
O41 Co2 1_555 1_555
O42 Co2 1_555 1_555
O43 Co4 1_555 1_555
O44 W3 1_555 1_555
O45 Co1 1_555 1_555
O46 Co3 1_555 1_555
O47 Co4 1_555 1_555
Co7 O29 1_555 1_555
Co8 O34 1_555 1_555
Co9 O13 1_555 1_555
W2 O24 1_555 1_555
W3 O11 1_555 1_555
W4 O6 1_555 1_555
W5 O25 1_555 1_555
W6 O27 1_555 1_555
W7 O19 1_555 1_555
W7 O20 1_555 1_555
W7 O21 1_555 1_555
W8 O10 1_555 1_555
W8 O32 1_555 1_555
W9 O26 1_555 1_555
W9 O31 1_555 1_555
W9 O33 1_555 1_555
Co1 O12 1_555 1_555
Co1 O17 1_555 1_555
Co2 O15 1_555 1_555
Co2 O16 1_555 1_555
Co2 O23 1_555 1_555
O5 Co6 1_555 1_555
C2 N6 1_555 1_555
C3 N7 1_555 1_555
C3 N8 1_555 1_555
C10 N3 1_555 1_555
C11 N4 1_555 1_555
C11 N5 1_555 1_555
C14 N1 1_555 1_555
C20 C24 1_555 1_555
C20 N1 1_555 1_555
C21 N9 1_555 1_555
C25 N11 1_555 1_555
C29 N11 1_555 1_555
C35 N2 1_555 1_555
C36 N10 1_555 1_555
Co5 O41 1_555 1_555
Co5 O44 1_555 1_555
Co6 O41 1_555 1_555
Co6 O44 1_555 1_555
Co6 O45 1_555 1_555
O35 H25 1_555 1_555
O35 H26 1_555 1_555
O39 H27 1_555 1_555
O39 H28 1_555 1_555
O36 H29 1_555 1_555
O36 H30 1_555 1_555
O40 H33 1_555 1_555
O40 H34 1_555 1_555
O37 H35 1_555 1_555
O37 H36 1_555 1_555
Co4_2 N2_2 1_555 1_555
O36_2 Co4_2 1_555 1_555
O37_2 Co4_2 1_555 1_555
O43_2 Co4_2 1_555 1_555
O47_2 Co4_2 1_555 1_555
O36_2 H29_2 1_555 1_555
O36_2 H30_2 1_555 1_555
O37_2 H35_2 1_555 1_555
O37_2 H36_2 1_555 1_555
W9_2 O7_2 1_555 1_555
O5_2 W4_2 1_555 1_555
O6_2 W3_2 1_555 1_555
O7_2 W4_2 1_555 1_555
O8_2 W3_2 1_555 1_555
O9_2 W4_2 1_555 1_555
O11_2 W2_2 1_555 1_555
O22_2 W2_2 1_555 1_555
O23_2 W2_2 1_555 1_555
O29_2 W9_2 1_555 1_555
O31_2 W3_2 1_555 1_555
C9_2 C15_2 1_555 1_555
C10_2 C17_2 1_555 1_555
C11_2 C12_2 1_555 1_555
C12_2 C13_2 1_555 1_555
C13_2 H4_2 1_555 1_555
C14_2 C13_2 1_555 1_555
H5_2 C14_2 1_555 1_555
C15_2 C16_2 1_555 1_555
C16_2 H6_2 1_555 1_555
C17_2 C18_2 1_555 1_555
C18_2 H7_2 1_555 1_555
C19_2 C18_2 1_555 1_555
H8_2 C19_2 1_555 1_555
C20_2 H9_2 1_555 1_555
C24_2 C12_2 1_555 1_555
H12_2 C24_2 1_555 1_555
C26_2 C17_2 1_555 1_555
H14_2 C26_2 1_555 1_555
C27_2 C16_2 1_555 1_555
H15_2 C27_2 1_555 1_555
C34_2 C15_2 1_555 1_555
H22_2 C34_2 1_555 1_555
C35_2 C34_2 1_555 1_555
C36_2 C26_2 1_555 1_555
H24_2 C36_2 1_555 1_555
N3_2 C9_2 1_555 1_555
N4_2 C9_2 1_555 1_555
N5_2 C10_2 1_555 1_555
N10_2 C19_2 1_555 1_555
Co5_2 O23_2 1_555 1_555
O44_2 W3_2 1_555 1_555
Co7_2 O29_2 1_555 1_555
W2_2 O24_2 1_555 1_555
W3_2 O11_2 1_555 1_555
W4_2 O6_2 1_555 1_555
W9_2 O31_2 1_555 1_555
O5_2 Co6_2 1_555 1_555
C10_2 N3_2 1_555 1_555
C11_2 N4_2 1_555 1_555
C11_2 N5_2 1_555 1_555
C14_2 N1_2 1_555 1_555
C20_2 C24_2 1_555 1_555
C20_2 N1_2 1_555 1_555
C36_2 N10_2 1_555 1_555
Co5_2 O44_2 1_555 1_555
Co6_2 O44_2 1_555 1_555
O35_2 H25_2 1_555 1_555
O35_2 H26_2 1_555 1_555
O15_2 Co1_2 1_555 1_555
O39_2 Co1_2 1_555 1_555
W10_2 O15_2 1_555 1_555
O42_2 Co2_2 1_555 1_555
O45_2 Co1_2 1_555 1_555
Co2_2 O15_2 1_555 1_555
O39_2 H27_2 1_555 1_555
O39_2 H28_2 1_555 1_555
W1_2 O4_2 1_555 1_555
W5_2 O14_2 1_555 1_555
W6_2 O2_2 1_555 1_555
W7_2 O4_2 1_555 1_555
W8_2 O2_2 1_555 1_555
P1_2 O1_2 1_555 1_555
O2_2 P1_2 1_555 1_555
O3_2 P1_2 1_555 1_555
O4_2 P1_2 1_555 1_555
O12_2 W8_2 1_555 1_555
O13_2 W8_2 1_555 1_555
O14_2 W8_2 1_555 1_555
O16_2 W7_2 1_555 1_555
O17_2 W6_2 1_555 1_555
O18_2 W7_2 1_555 1_555
O20_2 W1_2 1_555 1_555
O21_2 W6_2 1_555 1_555
O25_2 W1_2 1_555 1_555
O26_2 W5_2 1_555 1_555
O27_2 W5_2 1_555 1_555
O28_2 W1_2 1_555 1_555
O30_2 W5_2 1_555 1_555
O32_2 W6_2 1_555 1_555
O33_2 W1_2 1_555 1_555
O34_2 W6_2 1_555 1_555
Co3_2 O28_2 1_555 1_555
C1_2 C22_2 1_555 1_555
C2_2 C4_2 1_555 1_555
C3_2 C5_2 1_555 1_555
C4_2 C30_2 1_555 1_555
C5_2 C6_2 1_555 1_555
C6_2 H1_2 1_555 1_555
C7_2 C5_2 1_555 1_555
H2_2 C7_2 1_555 1_555
C8_2 C7_2 1_555 1_555
H3_2 C8_2 1_555 1_555
C21_2 C6_2 1_555 1_555
H10_2 C21_2 1_555 1_555
C22_2 C23_2 1_555 1_555
C23_2 H11_2 1_555 1_555
C25_2 C23_2 1_555 1_555
H13_2 C25_2 1_555 1_555
C28_2 C22_2 1_555 1_555
H16_2 C28_2 1_555 1_555
C29_2 C28_2 1_555 1_555
H17_2 C29_2 1_555 1_555
C30_2 H18_2 1_555 1_555
C31_2 C30_2 1_555 1_555
H19 C31_2 1_555 1_555
C32_2 C4_2 1_555 1_555
H20_2 C32_2 1_555 1_555
C33_2 C32_2 1_555 1_555
H21_2 C33_2 1_555 1_555
N6_2 C1_2 1_555 1_555
N7_2 C1_2 1_555 1_555
N8_2 C2_2 1_555 1_555
N9_2 C8_2 1_555 1_555
N11_2 Co3_2 1_555 1_555
N12 C31_2 1_555 1_555
O40_2 Co3_2 1_555 1_555
O46_2 Co3_2 1_555 1_555
Co8_2 O34_2 1_555 1_555
Co9_2 O13_2 1_555 1_555
W5_2 O25_2 1_555 1_555
W6_2 O27_2 1_555 1_555
W7_2 O19_2 1_555 1_555
W7_2 O20_2 1_555 1_555
W7_2 O21_2 1_555 1_555
W8_2 O10_2 1_555 1_555
W8_2 O32_2 1_555 1_555
C2_2 N6_2 1_555 1_555
C3_2 N7_2 1_555 1_555
C3_2 N8_2 1_555 1_555
C21_2 N9_2 1_555 1_555
C25_2 N11_2 1_555 1_555
C29_2 N11_2 1_555 1_555
C33_2 N12 1_555 1_555
O40_2 H33_2 1_555 1_555
O40_2 H34_2 1_555 1_555
W5_3 O14_3 1_555 1_555
W8_3 O2_3 1_555 1_555
Co1_3 O3_3 1_555 1_555
P1_3 O1_3 1_555 1_555
O2_3 P1_3 1_555 1_555
O3_3 P1_3 1_555 1_555
O12_3 W8_3 1_555 1_555
O13_3 W8_3 1_555 1_555
O14_3 W8_3 1_555 1_555
O26_3 W5_3 1_555 1_555
O30_3 W5_3 1_555 1_555
O39_3 Co1_3 1_555 1_555
O45_3 Co1_3 1_555 1_555
Co9_3 O13_3 1_555 1_555
W8_3 O10_3 1_555 1_555
W8_3 O32_3 1_555 1_555
Co1_3 O12_3 1_555 1_555
O39_3 H27_3 1_555 1_555
O39_3 H28_3 1_555 1_555
W1_3 O4_3 1_555 1_555
W7_3 O4_3 1_555 1_555
O16_3 W7_3 1_555 1_555
O17_3 W6_3 1_555 1_555
O18_3 W7_3 1_555 1_555
O20_3 W1_3 1_555 1_555
O21_3 W6_3 1_555 1_555
O25_3 W1_3 1_555 1_555
O28_3 W1_3 1_555 1_555
O33_3 W1_3 1_555 1_555
O47 W6_3 1_555 1_555
Co7_2 O28_3 1_555 1_555
C1_3 C22_3 1_555 1_555
C2_3 C4_3 1_555 1_555
C3_3 C5_3 1_555 1_555
C4_3 C30_3 1_555 1_555
C5_3 C6_3 1_555 1_555
C6_3 H1_3 1_555 1_555
C7_3 C5_3 1_555 1_555
H2_3 C7_3 1_555 1_555
C8_3 C7_3 1_555 1_555
H3_3 C8_3 1_555 1_555
C21_3 C6_3 1_555 1_555
H10_3 C21_3 1_555 1_555
C22_3 C23_3 1_555 1_555
C23_3 H11_3 1_555 1_555
C25_3 C23_3 1_555 1_555
H13_3 C25_3 1_555 1_555
C28_3 C22_3 1_555 1_555
H16_3 C28_3 1_555 1_555
C29_3 C28_3 1_555 1_555
H17_3 C29_3 1_555 1_555
C30_3 H18_3 1_555 1_555
C31_3 C30_3 1_555 1_555
C32_3 C4_3 1_555 1_555
H20_3 C32_3 1_555 1_555
C33_3 C32_3 1_555 1_555
H21_3 C33_3 1_555 1_555
N6_3 C1_3 1_555 1_555
N7_3 C1_3 1_555 1_555
N8_3 C2_3 1_555 1_555
N9_3 C8_3 1_555 1_555
N11_3 Co7_2 1_555 1_555
O40_3 Co7_2 1_555 1_555
W10_3 O15_3 1_555 1_555
O42_3 Co2_3 1_555 1_555
W6_3 O27_3 1_555 1_555
W7_3 O19_3 1_555 1_555
W7_3 O20_3 1_555 1_555
W7_3 O21_3 1_555 1_555
Co2_3 O15_3 1_555 1_555
Co2_3 O16_3 1_555 1_555
C2_3 N6_3 1_555 1_555
C3_3 N7_3 1_555 1_555
C3_3 N8_3 1_555 1_555
C21_3 N9_3 1_555 1_555
C25_3 N11_3 1_555 1_555
C29_3 N11_3 1_555 1_555
O40_3 H33_3 1_555 1_555
O40_3 H34_3 1_555 1_555
W9_3 O7_3 1_555 1_555
O5_3 W4_3 1_555 1_555
O6_3 W3_3 1_555 1_555
O7_3 W4_3 1_555 1_555
O8_3 W3_3 1_555 1_555
O9_3 W4_3 1_555 1_555
O46_2 W9_3 1_555 1_555
O31_3 W3_3 1_555 1_555
O44_3 W3_3 1_555 1_555
W4_3 O6_3 1_555 1_555
W9_3 O31_3 1_555 1_555
O5_3 Co6_3 1_555 1_555
Co6_3 O44_3 1_555 1_555
O11_3 W2_3 1_555 1_555
O22_3 W2_3 1_555 1_555
O23_3 W2_3 1_555 1_555
C9_3 C15_3 1_555 1_555
C10_3 C17_3 1_555 1_555
C11_3 C12_3 1_555 1_555
C12_3 C13_3 1_555 1_555
C13_3 H4_3 1_555 1_555
C14_3 C13_3 1_555 1_555
H5_3 C14_3 1_555 1_555
C15_3 C16_3 1_555 1_555
C16_3 H6_3 1_555 1_555
C17_3 C18_3 1_555 1_555
C18_3 H7_3 1_555 1_555
C19_3 C18_3 1_555 1_555
H8_3 C19_3 1_555 1_555
C20_3 H9_3 1_555 1_555
C24_3 C12_3 1_555 1_555
H12_3 C24_3 1_555 1_555
C26_3 C17_3 1_555 1_555
H14_3 C26_3 1_555 1_555
C27_3 C16_3 1_555 1_555
H15_3 C27_3 1_555 1_555
C34_3 C15_3 1_555 1_555
H22_3 C34_3 1_555 1_555
C35_3 C34_3 1_555 1_555
H23_3 C35_3 1_555 1_555
C36_3 C26_3 1_555 1_555
H24_3 C36_3 1_555 1_555
N2_3 C27_3 1_555 1_555
N3_3 C9_3 1_555 1_555
N4_3 C9_3 1_555 1_555
N5_3 C10_3 1_555 1_555
N10_3 C19_3 1_555 1_555
Co8 N2_3 1_555 1_555
O36_3 Co8 1_555 1_555
O37_3 Co8 1_555 1_555
O38_2 Co8 1_555 1_555
Co5_3 O23_3 1_555 1_555
O43_3 Co8 1_555 1_555
W2_3 O24_3 1_555 1_555
C10_3 N3_3 1_555 1_555
C11_3 N4_3 1_555 1_555
C11_3 N5_3 1_555 1_555
C14_3 N1_3 1_555 1_555
C20_3 C24_3 1_555 1_555
C20_3 N1_3 1_555 1_555
C35_3 N2_3 1_555 1_555
C36_3 N10_3 1_555 1_555
Co5_3 O41_3 1_555 1_555
O35_3 H25_3 1_555 1_555
O35_3 H26_3 1_555 1_555
O36_3 H29_3 1_555 1_555
O36_3 H30_3 1_555 1_555
O38_2 H31_2 1_555 1_555
O38_2 H32_2 1_555 1_555
O37_3 H35_3 1_555 1_555
O37_3 H36_3 1_555 1_555
W1_4 O4_4 1_555 1_555
W2_4 O4_4 1_555 1_555
W7_4 O4_4 1_555 1_555
O11_4 W2_4 1_555 1_555
O16_4 W7_4 1_555 1_555
O17_4 W6_4 1_555 1_555
O18_4 W7_4 1_555 1_555
O19_4 W2_4 1_555 1_555
O20_4 W1_4 1_555 1_555
O21_4 W6_4 1_555 1_555
O22_4 W2_4 1_555 1_555
O23_4 W2_4 1_555 1_555
O24_4 W1_4 1_555 1_555
O25_4 W1_4 1_555 1_555
O28_4 W1_4 1_555 1_555
O33_4 W1_4 1_555 1_555
O47_2 W6_4 1_555 1_555
Co7 O28_4 1_555 1_555
C1_4 C22_4 1_555 1_555
C2_4 C4_4 1_555 1_555
C3_4 C5_4 1_555 1_555
C4_4 C30_4 1_555 1_555
C5_4 C6_4 1_555 1_555
C6_4 H1_4 1_555 1_555
C7_4 C5_4 1_555 1_555
H2_4 C7_4 1_555 1_555
C8_4 C7_4 1_555 1_555
H3_4 C8_4 1_555 1_555
C9_4 C15_4 1_555 1_555
C10_4 C17_4 1_555 1_555
C11_4 C12_4 1_555 1_555
C12_4 C13_4 1_555 1_555
C13_4 H4_4 1_555 1_555
C14_4 C13_4 1_555 1_555
H5_4 C14_4 1_555 1_555
C15_4 C16_4 1_555 1_555
C16_4 H6_4 1_555 1_555
C17_4 C18_4 1_555 1_555
C18_4 H7_4 1_555 1_555
C19_4 C18_4 1_555 1_555
H8_4 C19_4 1_555 1_555
C20_4 H9_4 1_555 1_555
C21_4 C6_4 1_555 1_555
H10_4 C21_4 1_555 1_555
C22_4 C23_4 1_555 1_555
C23_4 H11_4 1_555 1_555
C24_4 C12_4 1_555 1_555
H12_4 C24_4 1_555 1_555
C25_4 C23_4 1_555 1_555
H13_4 C25_4 1_555 1_555
C26_4 C17_4 1_555 1_555
H14_4 C26_4 1_555 1_555
C27_4 C16_4 1_555 1_555
H15_4 C27_4 1_555 1_555
C28_4 C22_4 1_555 1_555
H16_4 C28_4 1_555 1_555
C29_4 C28_4 1_555 1_555
H17_4 C29_4 1_555 1_555
C30_4 H18_4 1_555 1_555
C31_4 C30_4 1_555 1_555
H19_2 C31_4 1_555 1_555
C32_4 C4_4 1_555 1_555
H20_4 C32_4 1_555 1_555
C33_4 C32_4 1_555 1_555
H21_4 C33_4 1_555 1_555
C34_4 C15_4 1_555 1_555
H22_4 C34_4 1_555 1_555
C35_4 C34_4 1_555 1_555
C36_4 C26_4 1_555 1_555
H24_4 C36_4 1_555 1_555
N1_4 Co7 1_555 1_555
N3_4 C9_4 1_555 1_555
N4_4 C9_4 1_555 1_555
N5_4 C10_4 1_555 1_555
N6_4 C1_4 1_555 1_555
N7_4 C1_4 1_555 1_555
N8_4 C2_4 1_555 1_555
N9_4 C8_4 1_555 1_555
N10_4 C19_4 1_555 1_555
N11_4 Co7 1_555 1_555
N12_2 C31_4 1_555 1_555
O35_4 Co7 1_555 1_555
O40_4 Co7 1_555 1_555
Co5_4 O23_4 1_555 1_555
W2_4 O24_4 1_555 1_555
W6_4 O27_4 1_555 1_555
W7_4 O19_4 1_555 1_555
W7_4 O20_4 1_555 1_555
W7_4 O21_4 1_555 1_555
C2_4 N6_4 1_555 1_555
C3_4 N7_4 1_555 1_555
C3_4 N8_4 1_555 1_555
C10_4 N3_4 1_555 1_555
C11_4 N4_4 1_555 1_555
C11_4 N5_4 1_555 1_555
C14_4 N1_4 1_555 1_555
C20_4 C24_4 1_555 1_555
C20_4 N1_4 1_555 1_555
C21_4 N9_4 1_555 1_555
C25_4 N11_4 1_555 1_555
C29_4 N11_4 1_555 1_555
C33_4 N12_2 1_555 1_555
C36_4 N10_4 1_555 1_555
O35_4 H25_4 1_555 1_555
O35_4 H26_4 1_555 1_555
O40_4 H33_4 1_555 1_555
O40_4 H34_4 1_555 1_555
Co8_2 N2_4 1_555 1_555
O36_4 Co8_2 1_555 1_555
O37_4 Co8_2 1_555 1_555
O38_3 Co8_2 1_555 1_555
W10_4 O15_4 1_555 1_555
O41_4 Co2_4 1_555 1_555
O42_4 Co2_4 1_555 1_555
O43_4 Co8_2 1_555 1_555
Co2_4 O15_4 1_555 1_555
O36_4 H29_4 1_555 1_555
O36_4 H30_4 1_555 1_555
O38_3 H31_3 1_555 1_555
O38_3 H32_3 1_555 1_555
O37_4 H35_4 1_555 1_555
O37_4 H36_4 1_555 1_555
W3_4 O1_4 1_555 1_555
W4_4 O1_4 1_555 1_555
W5_4 O14_4 1_555 1_555
W8_4 O2_4 1_555 1_555
W9_4 O7_4 1_555 1_555
P1_4 O1_4 1_555 1_555
O2_4 P1_4 1_555 1_555
O3_4 P1_4 1_555 1_555
O5_4 W4_4 1_555 1_555
O6_4 W3_4 1_555 1_555
O7_4 W4_4 1_555 1_555
O8_4 W3_4 1_555 1_555
O9_4 W4_4 1_555 1_555
O10_4 W4_4 1_555 1_555
O12_4 W8_4 1_555 1_555
O13_4 W8_4 1_555 1_555
O14_4 W8_4 1_555 1_555
O26_4 W5_4 1_555 1_555
O46 W9_4 1_555 1_555
O30_4 W5_4 1_555 1_555
O31_4 W3_4 1_555 1_555
Co6_4 O3_4 1_555 1_555
O44_4 W3_4 1_555 1_555
Co9_4 O13_4 1_555 1_555
W4_4 O6_4 1_555 1_555
W8_4 O10_4 1_555 1_555
W8_4 O32_4 1_555 1_555
W9_4 O26_4 1_555 1_555
W9_4 O31_4 1_555 1_555
O5_4 Co6_4 1_555 1_555
Co6_4 O44_4 1_555 1_555
O39_4 Co1_4 1_555 1_555
O45_4 Co1_4 1_555 1_555
O39_4 H27_4 1_555 1_555
O39_4 H28_4 1_555 1_555
W1_5 O4_5 1_555 1_555
W2_5 O4_5 1_555 1_555
W10 O1_5 1_555 1_555
W4_5 O1_5 1_555 1_555
W5_5 O14_5 1_555 1_555
W6_5 O2_5 1_555 1_555
W7_5 O4_5 1_555 1_555
W8_5 O2_5 1_555 1_555
W9_5 O7_5 1_555 1_555
P1_5 O1_5 1_555 1_555
O2_5 P1_5 1_555 1_555
O41 P1_5 1_555 1_555
O4_5 P1_5 1_555 1_555
O42 W4_5 1_555 1_555
O6_5 W10 1_555 1_555
O7_5 W4_5 1_555 1_555
O8_5 W10 1_555 1_555
O9_5 W4_5 1_555 1_555
O10_5 W4_5 1_555 1_555
O11_5 W2_5 1_555 1_555
O12_5 W8_5 1_555 1_555
O43 W8_5 1_555 1_555
O14_5 W8_5 1_555 1_555
O16_5 W7_5 1_555 1_555
O17_5 W6_5 1_555 1_555
O18_5 W7_5 1_555 1_555
O19_5 W2_5 1_555 1_555
O20_5 W1_5 1_555 1_555
O21_5 W6_5 1_555 1_555
O22_5 W2_5 1_555 1_555
O45 W2_5 1_555 1_555
O24_5 W1_5 1_555 1_555
O25_5 W1_5 1_555 1_555
O26_5 W5_5 1_555 1_555
O27_5 W5_5 1_555 1_555
O28_5 W1_5 1_555 1_555
O29_3 W9_5 1_555 1_555
O30_5 W5_5 1_555 1_555
O31_5 W10 1_555 1_555
O32_5 W6_5 1_555 1_555
O33_5 W1_5 1_555 1_555
O34_3 W6_5 1_555 1_555
Co3_3 O28_5 1_555 1_555
C1_5 C22_5 1_555 1_555
C2_5 C4_5 1_555 1_555
C3_5 C5_5 1_555 1_555
C4_5 C30_5 1_555 1_555
C5_5 C6_5 1_555 1_555
C6_5 H1_5 1_555 1_555
C7_5 C5_5 1_555 1_555
H2_5 C7_5 1_555 1_555
C8_5 C7_5 1_555 1_555
H3_5 C8_5 1_555 1_555
C9_5 C15_5 1_555 1_555
C10_5 C17_5 1_555 1_555
C11_5 C12_5 1_555 1_555
C12_5 C13_5 1_555 1_555
C13_5 H4_5 1_555 1_555
C14_5 C13_5 1_555 1_555
H5_5 C14_5 1_555 1_555
C15_5 C16_5 1_555 1_555
C16_5 H6_5 1_555 1_555
C17_5 C18_5 1_555 1_555
C18_5 H7_5 1_555 1_555
C19_5 C18_5 1_555 1_555
H8_5 C19_5 1_555 1_555
C20_5 H9_5 1_555 1_555
C21_5 C6_5 1_555 1_555
H10_5 C21_5 1_555 1_555
C22_5 C23_5 1_555 1_555
C23_5 H11_5 1_555 1_555
C24_5 C12_5 1_555 1_555
H12_5 C24_5 1_555 1_555
C25_5 C23_5 1_555 1_555
H13_5 C25_5 1_555 1_555
C26_5 C17_5 1_555 1_555
H14_5 C26_5 1_555 1_555
C27_5 C16_5 1_555 1_555
H15_5 C27_5 1_555 1_555
C28_5 C22_5 1_555 1_555
H16_5 C28_5 1_555 1_555
C29_5 C28_5 1_555 1_555
H17_5 C29_5 1_555 1_555
C30_5 H18_5 1_555 1_555
C31_5 C30_5 1_555 1_555
C32_5 C4_5 1_555 1_555
H20_5 C32_5 1_555 1_555
C33_5 C32_5 1_555 1_555
H21_5 C33_5 1_555 1_555
C34_5 C15_5 1_555 1_555
H22_5 C34_5 1_555 1_555
C35_5 C34_5 1_555 1_555
H23_5 C35_5 1_555 1_555
C36_5 C26_5 1_555 1_555
H24_5 C36_5 1_555 1_555
N1_5 Co3_3 1_555 1_555
N2_5 C27_5 1_555 1_555
N3_5 C9_5 1_555 1_555
N4_5 C9_5 1_555 1_555
N5_5 C10_5 1_555 1_555
N6_5 C1_5 1_555 1_555
N7_5 C1_5 1_555 1_555
N8_5 C2_5 1_555 1_555
N9_5 C8_5 1_555 1_555
N10_5 C19_5 1_555 1_555
N11_5 Co3_3 1_555 1_555
O35_5 Co3_3 1_555 1_555
Co9 N2_5 1_555 1_555
O36_5 Co9 1_555 1_555
O37_5 Co9 1_555 1_555
O39_5 Co5 1_555 1_555
O40_5 Co3_3 1_555 1_555
O46_3 Co3_3 1_555 1_555
O47_3 Co9 1_555 1_555
Co7_3 O29_3 1_555 1_555
Co9_3 O34_3 1_555 1_555
W2_5 O24_5 1_555 1_555
W10 O11_5 1_555 1_555
W4_5 O6_5 1_555 1_555
W5_5 O25_5 1_555 1_555
W6_5 O27_5 1_555 1_555
W7_5 O19_5 1_555 1_555
W7_5 O20_5 1_555 1_555
W7_5 O21_5 1_555 1_555
W8_5 O10_5 1_555 1_555
W8_5 O32_5 1_555 1_555
W9_5 O26_5 1_555 1_555
W9_5 O31_5 1_555 1_555
W9_5 O33_5 1_555 1_555
Co5 O12_5 1_555 1_555
Co5 O17_5 1_555 1_555
Co6 O16_5 1_555 1_555
C2_5 N6_5 1_555 1_555
C3_5 N7_5 1_555 1_555
C3_5 N8_5 1_555 1_555
C10_5 N3_5 1_555 1_555
C11_5 N4_5 1_555 1_555
C11_5 N5_5 1_555 1_555
C14_5 N1_5 1_555 1_555
C20_5 C24_5 1_555 1_555
C20_5 N1_5 1_555 1_555
C21_5 N9_5 1_555 1_555
C25_5 N11_5 1_555 1_555
C29_5 N11_5 1_555 1_555
C35_5 N2_5 1_555 1_555
C36_5 N10_5 1_555 1_555
O35_5 H25_5 1_555 1_555
O35_5 H26_5 1_555 1_555
O39_5 H27_5 1_555 1_555
O39_5 H28_5 1_555 1_555
O36_5 H29_5 1_555 1_555
O36_5 H30_5 1_555 1_555
O40_5 H33_5 1_555 1_555
O40_5 H34_5 1_555 1_555
O37_5 H35_5 1_555 1_555
O37_5 H36_5 1_555 1_555
W1_6 O4_6 1_555 1_555
W5_6 O14_6 1_555 1_555
W6_6 O2_6 1_555 1_555
W7_6 O4_6 1_555 1_555
W8_6 O2_6 1_555 1_555
P1_6 O1_6 1_555 1_555
O2_6 P1_6 1_555 1_555
O41_2 P1_6 1_555 1_555
O4_6 P1_6 1_555 1_555
O12_6 W8_6 1_555 1_555
O43_2 W8_6 1_555 1_555
O14_6 W8_6 1_555 1_555
O16_6 W7_6 1_555 1_555
O17_6 W6_6 1_555 1_555
O18_6 W7_6 1_555 1_555
O20_6 W1_6 1_555 1_555
O21_6 W6_6 1_555 1_555
O25_6 W1_6 1_555 1_555
O26_6 W5_6 1_555 1_555
O27_6 W5_6 1_555 1_555
O28_6 W1_6 1_555 1_555
O30_6 W5_6 1_555 1_555
O32_6 W6_6 1_555 1_555
O33_6 W1_6 1_555 1_555
O34_4 W6_6 1_555 1_555
Co3_4 O28_6 1_555 1_555
C1_6 C22_6 1_555 1_555
C2_6 C4_6 1_555 1_555
C3_6 C5_6 1_555 1_555
C4_6 C30_6 1_555 1_555
C5_6 C6_6 1_555 1_555
C6_6 H1_6 1_555 1_555
C7_6 C5_6 1_555 1_555
H2_6 C7_6 1_555 1_555
C8_6 C7_6 1_555 1_555
H3_6 C8_6 1_555 1_555
C21_6 C6_6 1_555 1_555
H10_6 C21_6 1_555 1_555
C22_6 C23_6 1_555 1_555
C23_6 H11_6 1_555 1_555
C25_6 C23_6 1_555 1_555
H13_6 C25_6 1_555 1_555
C28_6 C22_6 1_555 1_555
H16_6 C28_6 1_555 1_555
C29_6 C28_6 1_555 1_555
H17_6 C29_6 1_555 1_555
C30_6 H18_6 1_555 1_555
C31_6 C30_6 1_555 1_555
H19_3 C31_6 1_555 1_555
C32_6 C4_6 1_555 1_555
H20_6 C32_6 1_555 1_555
C33_6 C32_6 1_555 1_555
H21_6 C33_6 1_555 1_555
N6_6 C1_6 1_555 1_555
N7_6 C1_6 1_555 1_555
N8_6 C2_6 1_555 1_555
N9_6 C8_6 1_555 1_555
N11_6 Co3_4 1_555 1_555
N12_3 C31_6 1_555 1_555
O40_6 Co3_4 1_555 1_555
O46_4 Co3_4 1_555 1_555
Co9_4 O34_4 1_555 1_555
W5_6 O25_6 1_555 1_555
W6_6 O27_6 1_555 1_555
W7_6 O19_6 1_555 1_555
W7_6 O20_6 1_555 1_555
W7_6 O21_6 1_555 1_555
W8_6 O10_6 1_555 1_555
W8_6 O32_6 1_555 1_555
C2_6 N6_6 1_555 1_555
C3_6 N7_6 1_555 1_555
C3_6 N8_6 1_555 1_555
C21_6 N9_6 1_555 1_555
C25_6 N11_6 1_555 1_555
C29_6 N11_6 1_555 1_555
C33_6 N12_3 1_555 1_555
O40_6 H33_6 1_555 1_555
O40_6 H34_6 1_555 1_555
O39_6 Co5_2 1_555 1_555
O39_6 H27_6 1_555 1_555
O39_6 H28_6 1_555 1_555
W9_6 O7_6 1_555 1_555
O42_2 W4_6 1_555 1_555
O6_6 W10_2 1_555 1_555
O7_6 W4_6 1_555 1_555
O8_6 W10_2 1_555 1_555
O9_6 W4_6 1_555 1_555
O11_6 W2_6 1_555 1_555
O22_6 W2_6 1_555 1_555
O45_2 W2_6 1_555 1_555
O29_4 W9_6 1_555 1_555
O31_6 W10_2 1_555 1_555
C9_6 C15_6 1_555 1_555
C10_6 C17_6 1_555 1_555
C11_6 C12_6 1_555 1_555
C12_6 C13_6 1_555 1_555
C13_6 H4_6 1_555 1_555
C14_6 C13_6 1_555 1_555
H5_6 C14_6 1_555 1_555
C15_6 C16_6 1_555 1_555
C16_6 H6_6 1_555 1_555
C17_6 C18_6 1_555 1_555
C18_6 H7_6 1_555 1_555
C19_6 C18_6 1_555 1_555
H8_6 C19_6 1_555 1_555
C20_6 H9_6 1_555 1_555
C24_6 C12_6 1_555 1_555
H12_6 C24_6 1_555 1_555
C26_6 C17_6 1_555 1_555
H14_6 C26_6 1_555 1_555
C27_6 C16_6 1_555 1_555
H15_6 C27_6 1_555 1_555
C34_6 C15_6 1_555 1_555
H22_6 C34_6 1_555 1_555
C35_6 C34_6 1_555 1_555
C36_6 C26_6 1_555 1_555
H24_6 C36_6 1_555 1_555
N3_6 C9_6 1_555 1_555
N4_6 C9_6 1_555 1_555
N5_6 C10_6 1_555 1_555
N10_6 C19_6 1_555 1_555
Co7_4 O29_4 1_555 1_555
W2_6 O24_6 1_555 1_555
W10_2 O11_6 1_555 1_555
W4_6 O6_6 1_555 1_555
W9_6 O31_6 1_555 1_555
C10_6 N3_6 1_555 1_555
C11_6 N4_6 1_555 1_555
C11_6 N5_6 1_555 1_555
C14_6 N1_6 1_555 1_555
C20_6 C24_6 1_555 1_555
C20_6 N1_6 1_555 1_555
C36_6 N10_6 1_555 1_555
O35_6 H25_6 1_555 1_555
O35_6 H26_6 1_555 1_555
Co9_2 N2_6 1_555 1_555
O36_6 Co9_2 1_555 1_555
O37_6 Co9_2 1_555 1_555
O47_4 Co9_2 1_555 1_555
O36_6 H29_6 1_555 1_555
O36_6 H30_6 1_555 1_555
O37_6 H35_6 1_555 1_555
O37_6 H36_6 1_555 1_555
O11_7 W2_7 1_555 1_555
O22_7 W2_7 1_555 1_555
O45_3 W2_7 1_555 1_555
C9_7 C15_7 1_555 1_555
C10_7 C17_7 1_555 1_555
C11_7 C12_7 1_555 1_555
C12_7 C13_7 1_555 1_555
C13_7 H4_7 1_555 1_555
C14_7 C13_7 1_555 1_555
H5_7 C14_7 1_555 1_555
C15_7 C16_7 1_555 1_555
C16_7 H6_7 1_555 1_555
C17_7 C18_7 1_555 1_555
C18_7 H7_7 1_555 1_555
C19_7 C18_7 1_555 1_555
H8_7 C19_7 1_555 1_555
C20_7 H9_7 1_555 1_555
C24_7 C12_7 1_555 1_555
H12_7 C24_7 1_555 1_555
C26_7 C17_7 1_555 1_555
H14_7 C26_7 1_555 1_555
C27_7 C16_7 1_555 1_555
H15_7 C27_7 1_555 1_555
C34_7 C15_7 1_555 1_555
H22_7 C34_7 1_555 1_555
C35_7 C34_7 1_555 1_555
H23_7 C35_7 1_555 1_555
C36_7 C26_7 1_555 1_555
H24_7 C36_7 1_555 1_555
N2_7 C27_7 1_555 1_555
N3_7 C9_7 1_555 1_555
N4_7 C9_7 1_555 1_555
N5_7 C10_7 1_555 1_555
N10_7 C19_7 1_555 1_555
Co9_3 N2_7 1_555 1_555
O36_7 Co9_3 1_555 1_555
O37_7 Co9_3 1_555 1_555
O38_4 Co9_3 1_555 1_555
W2_7 O24_7 1_555 1_555
C10_7 N3_7 1_555 1_555
C11_7 N4_7 1_555 1_555
C11_7 N5_7 1_555 1_555
C14_7 N1_7 1_555 1_555
C20_7 C24_7 1_555 1_555
C20_7 N1_7 1_555 1_555
C35_7 N2_7 1_555 1_555
C36_7 N10_7 1_555 1_555
O35_7 H25_7 1_555 1_555
O35_7 H26_7 1_555 1_555
O36_7 H29_7 1_555 1_555
O36_7 H30_7 1_555 1_555
O38_4 H31_4 1_555 1_555
O38_4 H32_4 1_555 1_555
O37_7 H35_7 1_555 1_555
O37_7 H36_7 1_555 1_555
W9_7 O7_7 1_555 1_555
O42_3 W4_7 1_555 1_555
O6_7 W10_3 1_555 1_555
O7_7 W4_7 1_555 1_555
O8_7 W10_3 1_555 1_555
O9_7 W4_7 1_555 1_555
O46_4 W9_7 1_555 1_555
O31_7 W10_3 1_555 1_555
W4_7 O6_7 1_555 1_555
W9_7 O31_7 1_555 1_555
W1_7 O4_7 1_555 1_555
W7_7 O4_7 1_555 1_555
O16_7 W7_7 1_555 1_555
O17_7 W6_7 1_555 1_555
O18_7 W7_7 1_555 1_555
O20_7 W1_7 1_555 1_555
O21_7 W6_7 1_555 1_555
O25_7 W1_7 1_555 1_555
O28_7 W1_7 1_555 1_555
O33_7 W1_7 1_555 1_555
O47_3 W6_7 1_555 1_555
Co7_4 O28_7 1_555 1_555
C1_7 C22_7 1_555 1_555
C2_7 C4_7 1_555 1_555
C3_7 C5_7 1_555 1_555
C4_7 C30_7 1_555 1_555
C5_7 C6_7 1_555 1_555
C6_7 H1_7 1_555 1_555
C7_7 C5_7 1_555 1_555
H2_7 C7_7 1_555 1_555
C8_7 C7_7 1_555 1_555
H3_7 C8_7 1_555 1_555
C21_7 C6_7 1_555 1_555
H10_7 C21_7 1_555 1_555
C22_7 C23_7 1_555 1_555
C23_7 H11_7 1_555 1_555
C25_7 C23_7 1_555 1_555
H13_7 C25_7 1_555 1_555
C28_7 C22_7 1_555 1_555
H16_7 C28_7 1_555 1_555
C29_7 C28_7 1_555 1_555
H17_7 C29_7 1_555 1_555
C30_7 H18_7 1_555 1_555
C31_7 C30_7 1_555 1_555
C32_7 C4_7 1_555 1_555
H20_7 C32_7 1_555 1_555
C33_7 C32_7 1_555 1_555
H21_7 C33_7 1_555 1_555
N6_7 C1_7 1_555 1_555
N7_7 C1_7 1_555 1_555
N8_7 C2_7 1_555 1_555
N9_7 C8_7 1_555 1_555
N11_7 Co7_4 1_555 1_555
O40_7 Co7_4 1_555 1_555
W6_7 O27_7 1_555 1_555
W7_7 O19_7 1_555 1_555
W7_7 O20_7 1_555 1_555
W7_7 O21_7 1_555 1_555
Co6_3 O16_7 1_555 1_555
C2_7 N6_7 1_555 1_555
C3_7 N7_7 1_555 1_555
C3_7 N8_7 1_555 1_555
C21_7 N9_7 1_555 1_555
C25_7 N11_7 1_555 1_555
C29_7 N11_7 1_555 1_555
O40_7 H33_7 1_555 1_555
O40_7 H34_7 1_555 1_555
W5_7 O14_7 1_555 1_555
W8_7 O2_7 1_555 1_555
P1_7 O1_7 1_555 1_555
O2_7 P1_7 1_555 1_555
O41_3 P1_7 1_555 1_555
O12_7 W8_7 1_555 1_555
O43_3 W8_7 1_555 1_555
O14_7 W8_7 1_555 1_555
O26_7 W5_7 1_555 1_555
O30_7 W5_7 1_555 1_555
O39_7 Co5_3 1_555 1_555
W8_7 O10_7 1_555 1_555
W8_7 O32_7 1_555 1_555
Co5_3 O12_7 1_555 1_555
O39_7 H27_7 1_555 1_555
O39_7 H28_7 1_555 1_555
O39_8 Co5_4 1_555 1_555
O39_8 H27_8 1_555 1_555
O39_8 H28_8 1_555 1_555
W10_4 O1_8 1_555 1_555
W4_8 O1_8 1_555 1_555
W5_8 O14_8 1_555 1_555
W8_8 O2_8 1_555 1_555
W9_8 O7_8 1_555 1_555
P1_8 O1_8 1_555 1_555
O2_8 P1_8 1_555 1_555
O41_4 P1_8 1_555 1_555
O42_4 W4_8 1_555 1_555
O6_8 W10_4 1_555 1_555
O7_8 W4_8 1_555 1_555
O8_8 W10_4 1_555 1_555
O9_8 W4_8 1_555 1_555
O10_8 W4_8 1_555 1_555
O12_8 W8_8 1_555 1_555
O43_4 W8_8 1_555 1_555
O14_8 W8_8 1_555 1_555
O26_8 W5_8 1_555 1_555
O46_3 W9_8 1_555 1_555
O30_8 W5_8 1_555 1_555
O31_8 W10_4 1_555 1_555
W4_8 O6_8 1_555 1_555
W8_8 O10_8 1_555 1_555
W8_8 O32_8 1_555 1_555
W9_8 O26_8 1_555 1_555
W9_8 O31_8 1_555 1_555
Co9_4 N2_8 1_555 1_555
O36_8 Co9_4 1_555 1_555
O37_8 Co9_4 1_555 1_555
O38_5 Co9_4 1_555 1_555
O36_8 H29_8 1_555 1_555
O36_8 H30_8 1_555 1_555
O38_5 H31_5 1_555 1_555
O38_5 H32_5 1_555 1_555
O37_8 H35_8 1_555 1_555
O37_8 H36_8 1_555 1_555
W1_8 O4_8 1_555 1_555
W2_8 O4_8 1_555 1_555
W7_8 O4_8 1_555 1_555
O11_8 W2_8 1_555 1_555
O16_8 W7_8 1_555 1_555
O17_8 W6_8 1_555 1_555
O18_8 W7_8 1_555 1_555
O19_8 W2_8 1_555 1_555
O20_8 W1_8 1_555 1_555
O21_8 W6_8 1_555 1_555
O22_8 W2_8 1_555 1_555
O45_4 W2_8 1_555 1_555
O24_8 W1_8 1_555 1_555
O25_8 W1_8 1_555 1_555
O28_8 W1_8 1_555 1_555
O33_8 W1_8 1_555 1_555
O47_4 W6_8 1_555 1_555
Co7_3 O28_8 1_555 1_555
C1_8 C22_8 1_555 1_555
C2_8 C4_8 1_555 1_555
C3_8 C5_8 1_555 1_555
C4_8 C30_8 1_555 1_555
C5_8 C6_8 1_555 1_555
C6_8 H1_8 1_555 1_555
C7_8 C5_8 1_555 1_555
H2_8 C7_8 1_555 1_555
C8_8 C7_8 1_555 1_555
H3_8 C8_8 1_555 1_555
C9_8 C15_8 1_555 1_555
C10_8 C17_8 1_555 1_555
C11_8 C12_8 1_555 1_555
C12_8 C13_8 1_555 1_555
C13_8 H4_8 1_555 1_555
C14_8 C13_8 1_555 1_555
H5_8 C14_8 1_555 1_555
C15_8 C16_8 1_555 1_555
C16_8 H6_8 1_555 1_555
C17_8 C18_8 1_555 1_555
C18_8 H7_8 1_555 1_555
C19_8 C18_8 1_555 1_555
H8_8 C19_8 1_555 1_555
C20_8 H9_8 1_555 1_555
C21_8 C6_8 1_555 1_555
H10_8 C21_8 1_555 1_555
C22_8 C23_8 1_555 1_555
C23_8 H11_8 1_555 1_555
C24_8 C12_8 1_555 1_555
H12_8 C24_8 1_555 1_555
C25_8 C23_8 1_555 1_555
H13_8 C25_8 1_555 1_555
C26_8 C17_8 1_555 1_555
H14_8 C26_8 1_555 1_555
C27_8 C16_8 1_555 1_555
H15_8 C27_8 1_555 1_555
C28_8 C22_8 1_555 1_555
H16_8 C28_8 1_555 1_555
C29_8 C28_8 1_555 1_555
H17_8 C29_8 1_555 1_555
C30_8 H18_8 1_555 1_555
C31_8 C30_8 1_555 1_555
H19_4 C31_8 1_555 1_555
C32_8 C4_8 1_555 1_555
H20_8 C32_8 1_555 1_555
C33_8 C32_8 1_555 1_555
H21_8 C33_8 1_555 1_555
C34_8 C15_8 1_555 1_555
H22_8 C34_8 1_555 1_555
C35_8 C34_8 1_555 1_555
C36_8 C26_8 1_555 1_555
H24_8 C36_8 1_555 1_555
N1_8 Co7_3 1_555 1_555
N3_8 C9_8 1_555 1_555
N4_8 C9_8 1_555 1_555
N5_8 C10_8 1_555 1_555
N6_8 C1_8 1_555 1_555
N7_8 C1_8 1_555 1_555
N8_8 C2_8 1_555 1_555
N9_8 C8_8 1_555 1_555
N10_8 C19_8 1_555 1_555
N11_8 Co7_3 1_555 1_555
N12_4 C31_8 1_555 1_555
O35_8 Co7_3 1_555 1_555
O40_8 Co7_3 1_555 1_555
W2_8 O24_8 1_555 1_555
W6_8 O27_8 1_555 1_555
W7_8 O19_8 1_555 1_555
W7_8 O20_8 1_555 1_555
W7_8 O21_8 1_555 1_555
C2_8 N6_8 1_555 1_555
C3_8 N7_8 1_555 1_555
C3_8 N8_8 1_555 1_555
C10_8 N3_8 1_555 1_555
C11_8 N4_8 1_555 1_555
C11_8 N5_8 1_555 1_555
C14_8 N1_8 1_555 1_555
C20_8 C24_8 1_555 1_555
C20_8 N1_8 1_555 1_555
C21_8 N9_8 1_555 1_555
C25_8 N11_8 1_555 1_555
C29_8 N11_8 1_555 1_555
C33_8 N12_4 1_555 1_555
C36_8 N10_8 1_555 1_555
O35_8 H25_8 1_555 1_555
O35_8 H26_8 1_555 1_555
O40_8 H33_8 1_555 1_555
O40_8 H34_8 1_555 1_555
O38_6 H31_6 1_555 1_555
O38_6 H32_6 1_555 1_555
O38_7 H31_7 1_555 1_555
O38_7 H32_7 1_555 1_555
O38_8 H31_8 1_555 1_555
O38_8 H32_8 1_555 1_555

#END
