
###############################################################################
#
# This file contains modified crystal structure data generated from the
# MOF subset of the Cambridge Structural Database (CSD) v543 
# hosted by the Cambridge Crystallographic Data Centre (CCDC).
#
# This work is licensed under the Creative Commons
# Attribution-NonCommercial-ShareAlike 4.0 International License.
# To view a copy of this license, visit
# http://creativecommons.org/licenses/by-nc-sa/4.0/
# or send a letter to
# Creative Commons, PO Box 1866, Mountain View, CA 94042, USA.
#
# CIF created using the CSD Python API on 29 September 2022
# The structure has been converted into the P1 space group
# The structure has a 3D framework
# The original CSD entry DUNYIW is in the monoclinic crystal system
# The framework has been calculated to contain at least 10.0% void space
# The void calculation uses a probe of radius 1.32A, grid spacing 0.4
#
###############################################################################

data_DUNYIW
_chemical_formula_moiety         '(C832 H544 N128 O160 Zn32)n'
_symmetry_cell_setting           triclinic
_symmetry_space_group_name_H-M   'P 1'
_symmetry_Int_Tables_number      1
_space_group_name_Hall           'P 1'
loop_
_symmetry_equiv_pos_site_id
_symmetry_equiv_pos_as_xyz
1 x,y,z
_cell_length_a                   23.2393(18)
_cell_length_b                   25.042(2)
_cell_length_c                   53.544(4)
_cell_angle_alpha                90
_cell_angle_beta                 94.148(4)
_cell_angle_gamma                90
_cell_volume                     31078.8
loop_
_atom_site_label
_atom_site_type_symbol
_atom_site_fract_x
_atom_site_fract_y
_atom_site_fract_z
Zn4 Zn 0.60238(5) 0.00833(5) 0.95043(3)
Zn6 Zn 0.59754(5) 0.00407(5) 0.89437(3)
C1 C 0.0735(5) 0.4880(5) 0.0020(2)
C2 C 0.0737(5) 0.4860(4) 0.0270(2)
H2 H 0.0432 0.4723 0.0353
C3 C 0.1229(5) 0.5060(4) 0.0392(2)
C4 C 0.1646(4) 0.5285(4) 0.0271(2)
H3 H 0.1971 0.5430 0.0357
C5 C 0.1574(5) 0.5296(6) 0.0010(2)
C6 C 0.1661(4) 0.5165(5) 0.0834(2)
C7 C 0.1535(3) 0.5037(4) 0.11107(15)
C8 C 0.0980(3) 0.4976(4) 0.11856(16)
H5 H 0.0665 0.5008 0.1069
C9 C 0.0895(3) 0.4868(4) 0.14340(17)
H6 H 0.0523 0.4827 0.1484
C10 C 0.1364(4) 0.4821(4) 0.16075(16)
C11 C 0.1919(3) 0.4881(4) 0.15325(15)
H7 H 0.2234 0.4849 0.1649
C12 C 0.2004(3) 0.4989(4) 0.12841(14)
H8 H 0.2376 0.5030 0.1234
C13 C 0.1273(6) 0.4726(6) 0.1876(2)
C14 C 0.0824(6) 0.4389(6) 0.1931(2)
H9 H 0.0604 0.4220 0.1802
C15 C 0.0703(6) 0.4306(6) 0.2178(3)
H10 H 0.0402 0.4081 0.2215
C16 C 0.1032(7) 0.4558(7) 0.23705(19)
C17 C 0.1482(7) 0.4895(6) 0.2315(2)
H11 H 0.1702 0.5063 0.2444
C18 C 0.1602(6) 0.4978(6) 0.2068(3)
H12 H 0.1903 0.5203 0.2031
C19 C 0.0880(10) 0.4467(10) 0.2642(4)
C20 C 0.0831(4) 0.4477(2) 0.34527(14)
H13 H 0.0739 0.4176 0.3544
C21 C 0.0830(4) 0.4450(3) 0.31934(15)
H14 H 0.0739 0.4132 0.3111
C22 C 0.0967(5) 0.4900(4) 0.30576(11)
C23 C 0.1104(5) 0.5377(4) 0.31810(16)
H15 H 0.1196 0.5678 0.3090
C24 C 0.1105(4) 0.5404(2) 0.34404(16)
H16 H 0.1196 0.5722 0.3523
N1 N 0.0968(3) 0.4954(3) 0.35762(11)
N3 N 0.1228(4) 0.5018(4) 0.06571(19)
H33 H 0.0922 0.4887 0.0714
N4 N 0.1042(7) 0.4861(7) 0.2795(3)
H34 H 0.1213 0.5125 0.2729
O1 O 0.2100(4) 0.5368(4) 0.07874(17)
O2 O 0.0756(6) 0.4014(6) 0.2703(2)
Zn7 Zn 0.09754(5) 0.49593(5) 0.39437(3)
H1 H 0.0432 0.4685 0.9943
H4 H 0.1868 0.5434 0.9921
C25 C 0.1790(5) 0.5780(5) 0.9235(3)
C26 C 0.2215(3) 0.6219(3) 0.92309(18)
C27 C 0.2472(4) 0.6336(4) 0.90109(16)
H17 H 0.2372 0.6142 0.8866
C28 C 0.2878(4) 0.6743(4) 0.90071(17)
H18 H 0.3050 0.6821 0.8860
C29 C 0.3027(4) 0.7034(4) 0.9223(2)
C30 C 0.2770(4) 0.6917(4) 0.94435(18)
H19 H 0.2869 0.7111 0.9588
C31 C 0.2364(4) 0.6510(4) 0.94472(15)
H20 H 0.2192 0.6432 0.9594
C32 C 0.4021(6) 0.8021(6) 0.9245(4)
C33 C 0.4181(6) 0.8243(7) 0.9030(3)
H21 H 0.4026 0.8097 0.8880
C34 C 0.4564(6) 0.8677(6) 0.9014(3)
H22 H 0.4654 0.8804 0.8858
C35 C 0.4808(5) 0.8916(5) 0.9232(3)
C36 C 0.4618(6) 0.8683(6) 0.9464(3)
H23 H 0.4778 0.8806 0.9617
C37 C 0.4223(5) 0.8300(7) 0.9458(3)
H24 H 0.4069 0.8211 0.9608
C38 C 0.5208(5) 0.9336(5) 0.9240(3)
C39 C 0.1721(4) 0.4300(5) 0.9232(2)
C40 C 0.2123(4) 0.3829(5) 0.9251(2)
C41 C 0.2380(6) 0.3676(6) 0.9485(3)
H25 H 0.2287 0.3850 0.9630
C42 C 0.2775(6) 0.3262(6) 0.9495(3)
H26 H 0.2964 0.3173 0.9648
C43 C 0.2898(5) 0.2971(5) 0.9280(2)
C44 C 0.2611(5) 0.3115(5) 0.9053(2)
H27 H 0.2672 0.2921 0.8909
C45 C 0.2244(5) 0.3537(5) 0.9040(2)
H28 H 0.2067 0.3634 0.8885
C46 C 0.3911(5) 0.1985(5) 0.9156(2)
C47 C 0.4167(5) 0.1848(6) 0.8933(3)
H29 H 0.4063 0.2017 0.8781
C48 C 0.4578(5) 0.1452(5) 0.8952(2)
H30 H 0.4741 0.1342 0.8806
C49 C 0.4762(5) 0.1209(5) 0.9175(2)
C50 C 0.4513(6) 0.1380(6) 0.9391(3)
H31 H 0.4647 0.1238 0.9545
C51 C 0.4078(5) 0.1748(6) 0.9384(3)
H32 H 0.3899 0.1838 0.9528
C52 C 0.5217(4) 0.0791(5) 0.9191(2)
N2 N 0.1034(3) 0.5090(3) 0.98675(17)
N5 N 0.3430(6) 0.7454(6) 0.9175(4)
N6 N 0.3609(7) 0.7632(7) 0.9325(3)
N7 N 0.3301(4) 0.2562(4) 0.9311(2)
N8 N 0.3469(4) 0.2393(5) 0.9127(2)
O3 O 0.1653(3) 0.5539(4) 0.90364(17)
O4 O 0.1555(3) 0.5673(3) 0.94383(16)
O5 O 0.5312(3) 0.9557(4) 0.90351(16)
O6 O 0.5455(3) 0.9480(4) 0.94462(16)
O7 O 0.1504(4) 0.4402(4) 0.90226(17)
O8 O 0.1638(3) 0.4546(3) 0.94310(16)
O9 O 0.5448(3) 0.0670(3) 0.89969(15)
O10 O 0.5347(3) 0.0579(4) 0.94030(16)
Zn1 Zn 0.10238(5) 0.50833(5) 0.95043(3)
Zn2 Zn 0.09754(5) 0.50407(5) 0.89437(3)
N9 N 0.0968(3) 0.5046(3) 0.85762(11)
O11 O 0.0312(3) 0.4557(4) 0.90351(16)
O12 O 0.0455(3) 0.4480(4) 0.94462(16)
O13 O 0.0448(3) 0.5670(3) 0.89969(15)
O14 O 0.0347(3) 0.5579(4) 0.94030(16)
C38_2 C 0.0208(5) 0.4336(5) 0.9240(3)
C52_2 C 0.0217(4) 0.5791(5) 0.9191(2)
H4_2 H 0.6868 0.0434 0.9921
C25_2 C 0.6790(5) 0.0780(5) 0.9235(3)
C26_2 C 0.7215(3) 0.1219(3) 0.92309(18)
C27_2 C 0.7472(4) 0.1336(4) 0.90109(16)
H17_2 H 0.7372 0.1142 0.8866
C28_2 C 0.7878(4) 0.1743(4) 0.90071(17)
H18_2 H 0.8050 0.1821 0.8860
C29_2 C 0.8027(4) 0.2034(4) 0.9223(2)
C30_2 C 0.7770(4) 0.1917(4) 0.94435(18)
H19_2 H 0.7869 0.2111 0.9588
C31_2 C 0.7364(4) 0.1510(4) 0.94472(15)
H20_2 H 0.7192 0.1432 0.9594
C32_2 C 0.9021(6) 0.3021(6) 0.9245(4)
C33_2 C 0.9181(6) 0.3243(7) 0.9030(3)
H21_2 H 0.9026 0.3097 0.8880
C34_2 C 0.9564(6) 0.3677(6) 0.9014(3)
H22_2 H 0.9654 0.3804 0.8858
C35_2 C 0.9808(5) 0.3916(5) 0.9232(3)
C36_2 C 0.9618(6) 0.3683(6) 0.9464(3)
H23_2 H 0.9778 0.3806 0.9617
C37_2 C 0.9223(5) 0.3300(7) 0.9458(3)
H24_2 H 0.9069 0.3211 0.9608
N2_2 N 0.6034(3) 0.0090(3) 0.98675(17)
N5_2 N 0.8430(6) 0.2454(6) 0.9175(4)
N6_2 N 0.8609(7) 0.2632(7) 0.9325(3)
O3_2 O 0.6653(3) 0.0539(4) 0.90364(17)
O4_2 O 0.6555(3) 0.0673(3) 0.94383(16)
N9_2 N 0.5968(3) 0.0046(3) 0.85762(11)
C1_2 C 0.5735(5) 0.9880(5) 0.0020(2)
C2_2 C 0.5737(5) 0.9860(4) 0.0270(2)
H2_2 H 0.5432 0.9723 0.0353
C8_2 C 0.5980(3) 0.9976(4) 0.11856(16)
C9_2 C 0.5895(3) 0.9868(4) 0.14340(17)
H6_2 H 0.5523 0.9827 0.1484
C10_2 C 0.6364(4) 0.9821(4) 0.16075(16)
C11_2 C 0.6919(3) 0.9881(4) 0.15325(15)
H7_2 H 0.7234 0.9849 0.1649
C12_2 C 0.7004(3) 0.9989(4) 0.12841(14)
C13_2 C 0.6273(6) 0.9726(6) 0.1876(2)
C14_2 C 0.5824(6) 0.9389(6) 0.1931(2)
H9_2 H 0.5604 0.9220 0.1802
C15_2 C 0.5703(6) 0.9306(6) 0.2178(3)
H10_2 H 0.5402 0.9081 0.2215
C16_2 C 0.6032(7) 0.9558(7) 0.23705(19)
C17_2 C 0.6482(7) 0.9895(6) 0.2315(2)
C18_2 C 0.6602(6) 0.9978(6) 0.2068(3)
C19_2 C 0.5880(10) 0.9467(10) 0.2642(4)
C20_2 C 0.5831(4) 0.9477(2) 0.34527(14)
H13_2 H 0.5739 0.9176 0.3544
C21_2 C 0.5830(4) 0.9450(3) 0.31934(15)
H14_2 H 0.5739 0.9132 0.3111
C22_2 C 0.5967(5) 0.9900(4) 0.30576(11)
N1_2 N 0.5968(3) 0.9954(3) 0.35762(11)
H33_2 H 0.5922 0.9887 0.0714
N4_2 N 0.6042(7) 0.9861(7) 0.2795(3)
O2_2 O 0.5756(6) 0.9014(6) 0.2703(2)
Zn7_2 Zn 0.59754(5) 0.99593(5) 0.39437(3)
H1_2 H 0.5432 0.9685 0.9943
C39_2 C 0.6721(4) 0.9300(5) 0.9232(2)
C40_2 C 0.7123(4) 0.8829(5) 0.9251(2)
C41_2 C 0.7380(6) 0.8676(6) 0.9485(3)
H25_2 H 0.7287 0.8850 0.9630
C42_2 C 0.7775(6) 0.8262(6) 0.9495(3)
H26_2 H 0.7964 0.8173 0.9648
C43_2 C 0.7898(5) 0.7971(5) 0.9280(2)
C44_2 C 0.7611(5) 0.8115(5) 0.9053(2)
H27_2 H 0.7672 0.7921 0.8909
C45_2 C 0.7244(5) 0.8537(5) 0.9040(2)
H28_2 H 0.7067 0.8634 0.8885
C46_2 C 0.8911(5) 0.6985(5) 0.9156(2)
C47_2 C 0.9167(5) 0.6848(6) 0.8933(3)
H29_2 H 0.9063 0.7017 0.8781
C48_2 C 0.9578(5) 0.6452(5) 0.8952(2)
H30_2 H 0.9741 0.6342 0.8806
C49_2 C 0.9762(5) 0.6209(5) 0.9175(2)
C50_2 C 0.9513(6) 0.6380(6) 0.9391(3)
H31_2 H 0.9647 0.6238 0.9545
C51_2 C 0.9078(5) 0.6748(6) 0.9384(3)
H32_2 H 0.8899 0.6838 0.9528
N7_2 N 0.8301(4) 0.7562(4) 0.9311(2)
N8_2 N 0.8469(4) 0.7393(5) 0.9127(2)
O7_2 O 0.6504(4) 0.9402(4) 0.90226(17)
O8_2 O 0.6638(3) 0.9546(3) 0.94310(16)
C1_3 C 0.0735(5) 0.5120(5) 0.5020(2)
H1_3 H 0.0432 0.5315 0.4943
C2_3 C 0.0737(5) 0.5140(4) 0.5270(2)
H2_3 H 0.0432 0.5277 0.5353
C3_2 C 0.1229(5) 0.4940(4) 0.5392(2)
C4_2 C 0.1646(4) 0.4715(4) 0.5271(2)
H3_2 H 0.1971 0.4570 0.5357
C5_2 C 0.1574(5) 0.4704(6) 0.5010(2)
H4_3 H 0.1868 0.4566 0.4921
C6_2 C 0.1661(4) 0.4835(5) 0.5834(2)
C7_2 C 0.1535(3) 0.4963(4) 0.61107(15)
C8_3 C 0.0980(3) 0.5024(4) 0.61856(16)
H5_2 H 0.0665 0.4992 0.6069
C9_3 C 0.0895(3) 0.5132(4) 0.64340(17)
H6_3 H 0.0523 0.5173 0.6484
C10_3 C 0.1364(4) 0.5179(4) 0.66075(16)
C11_3 C 0.1919(3) 0.5119(4) 0.65325(15)
H7_3 H 0.2234 0.5151 0.6649
C12_3 C 0.2004(3) 0.5011(4) 0.62841(14)
H8_2 H 0.2376 0.4970 0.6234
C13_3 C 0.1273(6) 0.5274(6) 0.6876(2)
C14_3 C 0.0824(6) 0.5611(6) 0.6931(2)
H9_3 H 0.0604 0.5780 0.6802
C15_3 C 0.0703(6) 0.5694(6) 0.7178(3)
H10_3 H 0.0402 0.5919 0.7215
C16_3 C 0.1032(7) 0.5442(7) 0.73705(19)
C17_3 C 0.1482(7) 0.5105(6) 0.7315(2)
H11_2 H 0.1702 0.4937 0.7444
C18_3 C 0.1602(6) 0.5022(6) 0.7068(3)
H12_2 H 0.1903 0.4797 0.7031
C19_3 C 0.0880(10) 0.5533(10) 0.7642(4)
C20_3 C 0.0831(4) 0.5523(2) 0.84527(14)
H13_3 H 0.0739 0.5824 0.8544
C21_3 C 0.0830(4) 0.5550(3) 0.81934(15)
H14_3 H 0.0739 0.5868 0.8111
C22_3 C 0.0967(5) 0.5100(4) 0.80576(11)
C23_2 C 0.1104(5) 0.4623(4) 0.81810(16)
H15_2 H 0.1196 0.4322 0.8090
C24_2 C 0.1105(4) 0.4596(2) 0.84404(16)
H16_2 H 0.1196 0.4278 0.8523
C25_3 C 0.1790(5) 0.4220(5) 0.4235(3)
C26_3 C 0.2215(3) 0.3781(3) 0.42309(18)
C27_3 C 0.2472(4) 0.3664(4) 0.40109(16)
H17_3 H 0.2372 0.3858 0.3866
C28_3 C 0.2878(4) 0.3257(4) 0.40071(17)
H18_3 H 0.3050 0.3179 0.3860
C29_3 C 0.3027(4) 0.2966(4) 0.4223(2)
C30_3 C 0.2770(4) 0.3083(4) 0.44435(18)
H19_3 H 0.2869 0.2889 0.4588
C31_3 C 0.2364(4) 0.3490(4) 0.44472(15)
H20_3 H 0.2192 0.3568 0.4594
C32_3 C 0.4021(6) 0.1979(6) 0.4245(4)
C33_3 C 0.4181(6) 0.1757(7) 0.4030(3)
H21_3 H 0.4026 0.1903 0.3880
C34_3 C 0.4564(6) 0.1323(6) 0.4014(3)
H22_3 H 0.4654 0.1196 0.3858
C35_3 C 0.4808(5) 0.1084(5) 0.4232(3)
C36_3 C 0.4618(6) 0.1317(6) 0.4464(3)
H23_3 H 0.4778 0.1194 0.4617
C37_3 C 0.4223(5) 0.1700(7) 0.4458(3)
H24_3 H 0.4069 0.1789 0.4608
C38_3 C 0.5208(5) 0.0664(5) 0.4240(3)
C39_3 C 0.1721(4) 0.5700(5) 0.4232(2)
C40_3 C 0.2123(4) 0.6171(5) 0.4251(2)
C41_3 C 0.2380(6) 0.6324(6) 0.4485(3)
H25_3 H 0.2287 0.6150 0.4630
C42_3 C 0.2775(6) 0.6738(6) 0.4495(3)
H26_3 H 0.2964 0.6827 0.4648
C43_3 C 0.2898(5) 0.7029(5) 0.4280(2)
C44_3 C 0.2611(5) 0.6885(5) 0.4053(2)
H27_3 H 0.2672 0.7079 0.3909
C45_3 C 0.2244(5) 0.6463(5) 0.4040(2)
H28_3 H 0.2067 0.6366 0.3885
C46_3 C 0.3911(5) 0.8015(5) 0.4156(2)
C47_3 C 0.4167(5) 0.8152(6) 0.3933(3)
H29_3 H 0.4063 0.7983 0.3781
C48_3 C 0.4578(5) 0.8548(5) 0.3952(2)
H30_3 H 0.4741 0.8658 0.3806
C49_3 C 0.4762(5) 0.8791(5) 0.4175(2)
C50_3 C 0.4513(6) 0.8620(6) 0.4391(3)
H31_3 H 0.4647 0.8762 0.4545
C51_3 C 0.4078(5) 0.8252(6) 0.4384(3)
H32_3 H 0.3899 0.8162 0.4528
C52_3 C 0.5217(4) 0.9209(5) 0.4191(2)
N2_3 N 0.1034(3) 0.4910(3) 0.48675(17)
N3_2 N 0.1228(4) 0.4982(4) 0.56571(19)
H33_3 H 0.0922 0.5113 0.5714
N4_3 N 0.1042(7) 0.5139(7) 0.7795(3)
H34_2 H 0.1213 0.4875 0.7729
N5_3 N 0.3430(6) 0.2546(6) 0.4175(4)
N6_3 N 0.3609(7) 0.2368(7) 0.4325(3)
N7_3 N 0.3301(4) 0.7438(4) 0.4311(2)
N8_3 N 0.3469(4) 0.7607(5) 0.4127(2)
O1_2 O 0.2100(4) 0.4632(4) 0.57874(17)
O2_3 O 0.0756(6) 0.5986(6) 0.7703(2)
O3_3 O 0.1653(3) 0.4461(4) 0.40364(17)
O4_3 O 0.1555(3) 0.4327(3) 0.44383(16)
O5_2 O 0.5312(3) 0.0443(4) 0.40351(16)
O6_2 O 0.5455(3) 0.0520(4) 0.44462(16)
O7_3 O 0.1504(4) 0.5598(4) 0.40226(17)
O8_3 O 0.1638(3) 0.5454(3) 0.44310(16)
O9_2 O 0.5448(3) 0.9330(3) 0.39969(15)
O10_2 O 0.5347(3) 0.9421(4) 0.44030(16)
Zn1_2 Zn 0.10238(5) 0.49167(5) 0.45043(3)
O11_2 O 0.0312(3) 0.5443(4) 0.40351(16)
O12_2 O 0.0455(3) 0.5520(4) 0.44462(16)
O13_2 O 0.0448(3) 0.4330(3) 0.39969(15)
O14_2 O 0.0347(3) 0.4421(4) 0.44030(16)
Zn3 Zn 0.60238(5) 0.99167(5) 0.45043(3)
C52_4 C 0.0217(4) 0.4209(5) 0.4191(2)
C38_4 C 0.0208(5) 0.5664(5) 0.4240(3)
C1_4 C 0.5735(5) 0.0120(5) 0.5020(2)
H1_4 H 0.5432 0.0315 0.4943
C2_4 C 0.5737(5) 0.0140(4) 0.5270(2)
H2_4 H 0.5432 0.0277 0.5353
C8_4 C 0.5980(3) 0.0024(4) 0.61856(16)
C9_4 C 0.5895(3) 0.0132(4) 0.64340(17)
H6_4 H 0.5523 0.0173 0.6484
C10_4 C 0.6364(4) 0.0179(4) 0.66075(16)
C11_4 C 0.6919(3) 0.0119(4) 0.65325(15)
H7_4 H 0.7234 0.0151 0.6649
C12_4 C 0.7004(3) 0.0011(4) 0.62841(14)
C13_4 C 0.6273(6) 0.0274(6) 0.6876(2)
C14_4 C 0.5824(6) 0.0611(6) 0.6931(2)
H9_4 H 0.5604 0.0780 0.6802
C15_4 C 0.5703(6) 0.0694(6) 0.7178(3)
H10_4 H 0.5402 0.0919 0.7215
C16_4 C 0.6032(7) 0.0442(7) 0.73705(19)
C17_4 C 0.6482(7) 0.0105(6) 0.7315(2)
C18_4 C 0.6602(6) 0.0022(6) 0.7068(3)
C19_4 C 0.5880(10) 0.0533(10) 0.7642(4)
C20_4 C 0.5831(4) 0.0523(2) 0.84527(14)
H13_4 H 0.5739 0.0824 0.8544
C21_4 C 0.5830(4) 0.0550(3) 0.81934(15)
H14_4 H 0.5739 0.0868 0.8111
C22_4 C 0.5967(5) 0.0100(4) 0.80576(11)
C39_4 C 0.6721(4) 0.0700(5) 0.4232(2)
C40_4 C 0.7123(4) 0.1171(5) 0.4251(2)
C41_4 C 0.7380(6) 0.1324(6) 0.4485(3)
H25_4 H 0.7287 0.1150 0.4630
C42_4 C 0.7775(6) 0.1738(6) 0.4495(3)
H26_4 H 0.7964 0.1827 0.4648
C43_4 C 0.7898(5) 0.2029(5) 0.4280(2)
C44_4 C 0.7611(5) 0.1885(5) 0.4053(2)
H27_4 H 0.7672 0.2079 0.3909
C45_4 C 0.7244(5) 0.1463(5) 0.4040(2)
H28_4 H 0.7067 0.1366 0.3885
C46_4 C 0.8911(5) 0.3015(5) 0.4156(2)
C47_4 C 0.9167(5) 0.3152(6) 0.3933(3)
H29_4 H 0.9063 0.2983 0.3781
C48_4 C 0.9578(5) 0.3548(5) 0.3952(2)
H30_4 H 0.9741 0.3658 0.3806
C49_4 C 0.9762(5) 0.3791(5) 0.4175(2)
C50_4 C 0.9513(6) 0.3620(6) 0.4391(3)
H31_4 H 0.9647 0.3762 0.4545
C51_4 C 0.9078(5) 0.3252(6) 0.4384(3)
H32_4 H 0.8899 0.3162 0.4528
H33_4 H 0.5922 0.0113 0.5714
N4_4 N 0.6042(7) 0.0139(7) 0.7795(3)
N7_4 N 0.8301(4) 0.2438(4) 0.4311(2)
N8_4 N 0.8469(4) 0.2607(5) 0.4127(2)
O2_4 O 0.5756(6) 0.0986(6) 0.7703(2)
O7_4 O 0.6504(4) 0.0598(4) 0.40226(17)
O8_4 O 0.6638(3) 0.0454(3) 0.44310(16)
C3_3 C 0.6229(5) 0.9940(4) 0.5392(2)
C4_3 C 0.6646(4) 0.9715(4) 0.5271(2)
H3_3 H 0.6971 0.9570 0.5357
C5_3 C 0.6574(5) 0.9704(6) 0.5010(2)
H4_4 H 0.6868 0.9566 0.4921
C6_3 C 0.6661(4) 0.9835(5) 0.5834(2)
C7_3 C 0.6535(3) 0.9963(4) 0.61107(15)
H5_3 H 0.5665 0.9992 0.6069
H8_3 H 0.7376 0.9970 0.6234
H11_3 H 0.6702 0.9937 0.7444
H12_3 H 0.6903 0.9797 0.7031
C23_3 C 0.6104(5) 0.9623(4) 0.81810(16)
H15_3 H 0.6196 0.9322 0.8090
C24_3 C 0.6105(4) 0.9596(2) 0.84404(16)
H16_3 H 0.6196 0.9278 0.8523
C25_4 C 0.6790(5) 0.9220(5) 0.4235(3)
C26_4 C 0.7215(3) 0.8781(3) 0.42309(18)
C27_4 C 0.7472(4) 0.8664(4) 0.40109(16)
H17_4 H 0.7372 0.8858 0.3866
C28_4 C 0.7878(4) 0.8257(4) 0.40071(17)
H18_4 H 0.8050 0.8179 0.3860
C29_4 C 0.8027(4) 0.7966(4) 0.4223(2)
C30_4 C 0.7770(4) 0.8083(4) 0.44435(18)
H19_4 H 0.7869 0.7889 0.4588
C31_4 C 0.7364(4) 0.8490(4) 0.44472(15)
H20_4 H 0.7192 0.8568 0.4594
C32_4 C 0.9021(6) 0.6979(6) 0.4245(4)
C33_4 C 0.9181(6) 0.6757(7) 0.4030(3)
H21_4 H 0.9026 0.6903 0.3880
C34_4 C 0.9564(6) 0.6323(6) 0.4014(3)
H22_4 H 0.9654 0.6196 0.3858
C35_4 C 0.9808(5) 0.6084(5) 0.4232(3)
C36_4 C 0.9618(6) 0.6317(6) 0.4464(3)
H23_4 H 0.9778 0.6194 0.4617
C37_4 C 0.9223(5) 0.6700(7) 0.4458(3)
H24_4 H 0.9069 0.6789 0.4608
N2_4 N 0.6034(3) 0.9910(3) 0.48675(17)
N3_3 N 0.6228(4) 0.9982(4) 0.56571(19)
H34_3 H 0.6213 0.9875 0.7729
N5_4 N 0.8430(6) 0.7546(6) 0.4175(4)
N6_4 N 0.8609(7) 0.7368(7) 0.4325(3)
O1_3 O 0.7100(4) 0.9632(4) 0.57874(17)
O3_4 O 0.6653(3) 0.9461(4) 0.40364(17)
O4_4 O 0.6555(3) 0.9327(3) 0.44383(16)
Zn4_2 Zn 0.39762(5) 0.00833(5) 0.54957(3)
Zn6_2 Zn 0.40246(5) 0.00407(5) 0.60563(3)
C1_5 C 0.9265(5) 0.4880(5) 0.4980(2)
H1_5 H 0.9568 0.4685 0.5057
C2_5 C 0.9263(5) 0.4860(4) 0.4730(2)
H2_5 H 0.9568 0.4723 0.4647
C3_4 C 0.8771(5) 0.5060(4) 0.4608(2)
C4_4 C 0.8354(4) 0.5285(4) 0.4729(2)
H3_4 H 0.8029 0.5430 0.4643
C5_4 C 0.8426(5) 0.5296(6) 0.4990(2)
H4_5 H 0.8132 0.5434 0.5079
C6_4 C 0.8339(4) 0.5165(5) 0.4166(2)
C7_4 C 0.8465(3) 0.5037(4) 0.38893(15)
C8_5 C 0.9020(3) 0.4976(4) 0.38144(16)
H5_4 H 0.9335 0.5008 0.3931
C9_5 C 0.9105(3) 0.4868(4) 0.35660(17)
H6_5 H 0.9477 0.4827 0.3516
C10_5 C 0.8636(4) 0.4821(4) 0.33925(16)
C11_5 C 0.8081(3) 0.4881(4) 0.34675(15)
H7_5 H 0.7766 0.4849 0.3351
C12_5 C 0.7996(3) 0.4989(4) 0.37159(14)
H8_4 H 0.7624 0.5030 0.3766
C13_5 C 0.8727(6) 0.4726(6) 0.3124(2)
C14_5 C 0.9176(6) 0.4389(6) 0.3069(2)
H9_5 H 0.9396 0.4220 0.3198
C15_5 C 0.9297(6) 0.4306(6) 0.2822(3)
H10_5 H 0.9598 0.4081 0.2785
C16_5 C 0.8968(7) 0.4558(7) 0.26295(19)
C17_5 C 0.8518(7) 0.4895(6) 0.2685(2)
H11_4 H 0.8298 0.5063 0.2556
C18_5 C 0.8398(6) 0.4978(6) 0.2932(3)
H12_4 H 0.8097 0.5203 0.2969
C19_5 C 0.9120(10) 0.4467(10) 0.2358(4)
C20_5 C 0.9169(4) 0.4477(2) 0.15473(14)
H13_5 H 0.9261 0.4176 0.1456
C21_5 C 0.9170(4) 0.4450(3) 0.18066(15)
H14_5 H 0.9261 0.4132 0.1889
C22_5 C 0.9033(5) 0.4900(4) 0.19424(11)
C23_4 C 0.8896(5) 0.5377(4) 0.18190(16)
H15_4 H 0.8804 0.5678 0.1910
C24_4 C 0.8895(4) 0.5404(2) 0.15596(16)
H16_4 H 0.8804 0.5722 0.1477
N1_3 N 0.9032(3) 0.4954(3) 0.14238(11)
C25_5 C 0.8210(5) 0.5780(5) 0.5765(3)
C26_5 C 0.7785(3) 0.6219(3) 0.57691(18)
C27_5 C 0.7528(4) 0.6336(4) 0.59891(16)
H17_5 H 0.7628 0.6142 0.6134
C28_5 C 0.7122(4) 0.6743(4) 0.59929(17)
H18_5 H 0.6950 0.6821 0.6140
C29_5 C 0.6973(4) 0.7034(4) 0.5777(2)
C30_5 C 0.7230(4) 0.6917(4) 0.55565(18)
H19_5 H 0.7131 0.7111 0.5412
C31_5 C 0.7636(4) 0.6510(4) 0.55528(15)
H20_5 H 0.7808 0.6432 0.5406
C32_5 C 0.5979(6) 0.8021(6) 0.5755(4)
C33_5 C 0.5819(6) 0.8243(7) 0.5970(3)
H21_5 H 0.5974 0.8097 0.6120
C34_5 C 0.5436(6) 0.8677(6) 0.5986(3)
H22_5 H 0.5346 0.8804 0.6142
C35_5 C 0.5192(5) 0.8916(5) 0.5768(3)
C36_5 C 0.5382(6) 0.8683(6) 0.5536(3)
H23_5 H 0.5222 0.8806 0.5383
C37_5 C 0.5777(5) 0.8300(7) 0.5542(3)
H24_5 H 0.5931 0.8211 0.5392
C38_5 C 0.4792(5) 0.9336(5) 0.5760(3)
C39_5 C 0.8279(4) 0.4300(5) 0.5768(2)
C40_5 C 0.7877(4) 0.3829(5) 0.5749(2)
C41_5 C 0.7620(6) 0.3676(6) 0.5515(3)
H25_5 H 0.7713 0.3850 0.5370
C42_5 C 0.7225(6) 0.3262(6) 0.5505(3)
H26_5 H 0.7036 0.3173 0.5352
C43_5 C 0.7102(5) 0.2971(5) 0.5720(2)
C44_5 C 0.7389(5) 0.3115(5) 0.5947(2)
H27_5 H 0.7328 0.2921 0.6091
C45_5 C 0.7756(5) 0.3537(5) 0.5960(2)
H28_5 H 0.7933 0.3634 0.6115
C46_5 C 0.6089(5) 0.1985(5) 0.5844(2)
C47_5 C 0.5833(5) 0.1848(6) 0.6067(3)
H29_5 H 0.5937 0.2017 0.6219
C48_5 C 0.5422(5) 0.1452(5) 0.6048(2)
H30_5 H 0.5259 0.1342 0.6194
C49_5 C 0.5238(5) 0.1209(5) 0.5825(2)
C50_5 C 0.5487(6) 0.1380(6) 0.5609(3)
H31_5 H 0.5353 0.1238 0.5455
C51_5 C 0.5922(5) 0.1748(6) 0.5616(3)
H32_5 H 0.6101 0.1838 0.5472
C52_5 C 0.4783(4) 0.0791(5) 0.5809(2)
N2_5 N 0.8966(3) 0.5090(3) 0.51325(17)
N3_4 N 0.8772(4) 0.5018(4) 0.43429(19)
H33_5 H 0.9078 0.4887 0.4286
N4_5 N 0.8958(7) 0.4861(7) 0.2205(3)
H34_4 H 0.8787 0.5125 0.2271
N5_5 N 0.6570(6) 0.7454(6) 0.5825(4)
N6_5 N 0.6391(7) 0.7632(7) 0.5675(3)
N7_5 N 0.6699(4) 0.2562(4) 0.5689(2)
N8_5 N 0.6531(4) 0.2393(5) 0.5873(2)
O1_4 O 0.7900(4) 0.5368(4) 0.42126(17)
O2_5 O 0.9244(6) 0.4014(6) 0.2297(2)
O3_5 O 0.8347(3) 0.5539(4) 0.59636(17)
O4_5 O 0.8445(3) 0.5673(3) 0.55617(16)
O5_3 O 0.4688(3) 0.9557(4) 0.59649(16)
O6_3 O 0.4545(3) 0.9480(4) 0.55538(16)
O7_5 O 0.8496(4) 0.4402(4) 0.59774(17)
O8_5 O 0.8362(3) 0.4546(3) 0.55690(16)
O9_3 O 0.4552(3) 0.0670(3) 0.60031(15)
O10_3 O 0.4653(3) 0.0579(4) 0.55970(16)
Zn1_3 Zn 0.89762(5) 0.50833(5) 0.54957(3)
Zn2_2 Zn 0.90246(5) 0.50407(5) 0.60563(3)
N9_3 N 0.9032(3) 0.5046(3) 0.64238(11)
O11_3 O 0.9688(3) 0.4557(4) 0.59649(16)
O12_3 O 0.9545(3) 0.4480(4) 0.55538(16)
O13_3 O 0.9552(3) 0.5670(3) 0.60031(15)
O14_3 O 0.9653(3) 0.5579(4) 0.55970(16)
Zn7_3 Zn 0.90246(5) 0.49593(5) 0.10563(3)
C3_5 C 0.3771(5) 0.0060(4) 0.4608(2)
C4_5 C 0.3354(4) 0.0285(4) 0.4729(2)
H3_5 H 0.3029 0.0430 0.4643
C5_5 C 0.3426(5) 0.0296(6) 0.4990(2)
H4_6 H 0.3132 0.0434 0.5079
C6_5 C 0.3339(4) 0.0165(5) 0.4166(2)
C7_5 C 0.3465(3) 0.0037(4) 0.38893(15)
H5_5 H 0.4335 0.0008 0.3931
H8_5 H 0.2624 0.0030 0.3766
H11_5 H 0.3298 0.0063 0.2556
H12_5 H 0.3097 0.0203 0.2969
C23_5 C 0.3896(5) 0.0377(4) 0.18190(16)
H15_5 H 0.3804 0.0678 0.1910
C24_5 C 0.3895(4) 0.0404(2) 0.15596(16)
H16_5 H 0.3804 0.0722 0.1477
C25_6 C 0.3210(5) 0.0780(5) 0.5765(3)
C26_6 C 0.2785(3) 0.1219(3) 0.57691(18)
C27_6 C 0.2528(4) 0.1336(4) 0.59891(16)
H17_6 H 0.2628 0.1142 0.6134
C28_6 C 0.2122(4) 0.1743(4) 0.59929(17)
H18_6 H 0.1950 0.1821 0.6140
C29_6 C 0.1973(4) 0.2034(4) 0.5777(2)
C30_6 C 0.2230(4) 0.1917(4) 0.55565(18)
H19_6 H 0.2131 0.2111 0.5412
C31_6 C 0.2636(4) 0.1510(4) 0.55528(15)
H20_6 H 0.2808 0.1432 0.5406
C32_6 C 0.0979(6) 0.3021(6) 0.5755(4)
C33_6 C 0.0819(6) 0.3243(7) 0.5970(3)
H21_6 H 0.0974 0.3097 0.6120
C34_6 C 0.0436(6) 0.3677(6) 0.5986(3)
H22_6 H 0.0346 0.3804 0.6142
C35_6 C 0.0192(5) 0.3916(5) 0.5768(3)
C36_6 C 0.0382(6) 0.3683(6) 0.5536(3)
H23_6 H 0.0222 0.3806 0.5383
C37_6 C 0.0777(5) 0.3300(7) 0.5542(3)
H24_6 H 0.0931 0.3211 0.5392
N2_6 N 0.3966(3) 0.0090(3) 0.51325(17)
N3_5 N 0.3772(4) 0.0018(4) 0.43429(19)
H34_5 H 0.3787 0.0125 0.2271
N5_6 N 0.1570(6) 0.2454(6) 0.5825(4)
N6_6 N 0.1391(7) 0.2632(7) 0.5675(3)
O1_5 O 0.2900(4) 0.0368(4) 0.42126(17)
O3_6 O 0.3347(3) 0.0539(4) 0.59636(17)
O4_6 O 0.3445(3) 0.0673(3) 0.55617(16)
N9_4 N 0.4032(3) 0.0046(3) 0.64238(11)
C1_6 C 0.4265(5) 0.9880(5) 0.4980(2)
H1_6 H 0.4568 0.9685 0.5057
C2_6 C 0.4263(5) 0.9860(4) 0.4730(2)
H2_6 H 0.4568 0.9723 0.4647
C8_6 C 0.4020(3) 0.9976(4) 0.38144(16)
C9_6 C 0.4105(3) 0.9868(4) 0.35660(17)
H6_6 H 0.4477 0.9827 0.3516
C10_6 C 0.3636(4) 0.9821(4) 0.33925(16)
C11_6 C 0.3081(3) 0.9881(4) 0.34675(15)
H7_6 H 0.2766 0.9849 0.3351
C12_6 C 0.2996(3) 0.9989(4) 0.37159(14)
C13_6 C 0.3727(6) 0.9726(6) 0.3124(2)
C14_6 C 0.4176(6) 0.9389(6) 0.3069(2)
H9_6 H 0.4396 0.9220 0.3198
C15_6 C 0.4297(6) 0.9306(6) 0.2822(3)
H10_6 H 0.4598 0.9081 0.2785
C16_6 C 0.3968(7) 0.9558(7) 0.26295(19)
C17_6 C 0.3518(7) 0.9895(6) 0.2685(2)
C18_6 C 0.3398(6) 0.9978(6) 0.2932(3)
C19_6 C 0.4120(10) 0.9467(10) 0.2358(4)
C20_6 C 0.4169(4) 0.9477(2) 0.15473(14)
H13_6 H 0.4261 0.9176 0.1456
C21_6 C 0.4170(4) 0.9450(3) 0.18066(15)
H14_6 H 0.4261 0.9132 0.1889
C22_6 C 0.4033(5) 0.9900(4) 0.19424(11)
N1_4 N 0.4032(3) 0.9954(3) 0.14238(11)
C39_6 C 0.3279(4) 0.9300(5) 0.5768(2)
C40_6 C 0.2877(4) 0.8829(5) 0.5749(2)
C41_6 C 0.2620(6) 0.8676(6) 0.5515(3)
H25_6 H 0.2713 0.8850 0.5370
C42_6 C 0.2225(6) 0.8262(6) 0.5505(3)
H26_6 H 0.2036 0.8173 0.5352
C43_6 C 0.2102(5) 0.7971(5) 0.5720(2)
C44_6 C 0.2389(5) 0.8115(5) 0.5947(2)
H27_6 H 0.2328 0.7921 0.6091
C45_6 C 0.2756(5) 0.8537(5) 0.5960(2)
H28_6 H 0.2933 0.8634 0.6115
C46_6 C 0.1089(5) 0.6985(5) 0.5844(2)
C47_6 C 0.0833(5) 0.6848(6) 0.6067(3)
H29_6 H 0.0937 0.7017 0.6219
C48_6 C 0.0422(5) 0.6452(5) 0.6048(2)
H30_6 H 0.0259 0.6342 0.6194
C49_6 C 0.0238(5) 0.6209(5) 0.5825(2)
C50_6 C 0.0487(6) 0.6380(6) 0.5609(3)
H31_6 H 0.0353 0.6238 0.5455
C51_6 C 0.0922(5) 0.6748(6) 0.5616(3)
H32_6 H 0.1101 0.6838 0.5472
H33_6 H 0.4078 0.9887 0.4286
N4_6 N 0.3958(7) 0.9861(7) 0.2205(3)
N7_6 N 0.1699(4) 0.7562(4) 0.5689(2)
N8_6 N 0.1531(4) 0.7393(5) 0.5873(2)
O2_6 O 0.4244(6) 0.9014(6) 0.2297(2)
O7_6 O 0.3496(4) 0.9402(4) 0.59774(17)
O8_6 O 0.3362(3) 0.9546(3) 0.55690(16)
Zn7_4 Zn 0.40246(5) 0.99593(5) 0.10563(3)
C38_6 C 0.9792(5) 0.4336(5) 0.5760(3)
C52_6 C 0.9783(4) 0.5791(5) 0.5809(2)
H1_7 H 0.9568 0.5315 0.0057
H4_7 H 0.8132 0.4566 0.0079
C25_7 C 0.8210(5) 0.4220(5) 0.0765(3)
C26_7 C 0.7785(3) 0.3781(3) 0.07691(18)
C27_7 C 0.7528(4) 0.3664(4) 0.09891(16)
H17_7 H 0.7628 0.3858 0.1134
C28_7 C 0.7122(4) 0.3257(4) 0.09929(17)
H18_7 H 0.6950 0.3179 0.1140
C29_7 C 0.6973(4) 0.2966(4) 0.0777(2)
C30_7 C 0.7230(4) 0.3083(4) 0.05565(18)
H19_7 H 0.7131 0.2889 0.0412
C31_7 C 0.7636(4) 0.3490(4) 0.05528(15)
H20_7 H 0.7808 0.3568 0.0406
C32_7 C 0.5979(6) 0.1979(6) 0.0755(4)
C33_7 C 0.5819(6) 0.1757(7) 0.0970(3)
H21_7 H 0.5974 0.1903 0.1120
C34_7 C 0.5436(6) 0.1323(6) 0.0986(3)
H22_7 H 0.5346 0.1196 0.1142
C35_7 C 0.5192(5) 0.1084(5) 0.0768(3)
C36_7 C 0.5382(6) 0.1317(6) 0.0536(3)
H23_7 H 0.5222 0.1194 0.0383
C37_7 C 0.5777(5) 0.1700(7) 0.0542(3)
H24_7 H 0.5931 0.1789 0.0392
C38_7 C 0.4792(5) 0.0664(5) 0.0760(3)
C39_7 C 0.8279(4) 0.5700(5) 0.0768(2)
C40_7 C 0.7877(4) 0.6171(5) 0.0749(2)
C41_7 C 0.7620(6) 0.6324(6) 0.0515(3)
H25_7 H 0.7713 0.6150 0.0370
C42_7 C 0.7225(6) 0.6738(6) 0.0505(3)
H26_7 H 0.7036 0.6827 0.0352
C43_7 C 0.7102(5) 0.7029(5) 0.0720(2)
C44_7 C 0.7389(5) 0.6885(5) 0.0947(2)
H27_7 H 0.7328 0.7079 0.1091
C45_7 C 0.7756(5) 0.6463(5) 0.0960(2)
H28_7 H 0.7933 0.6366 0.1115
C46_7 C 0.6089(5) 0.8015(5) 0.0844(2)
C47_7 C 0.5833(5) 0.8152(6) 0.1067(3)
H29_7 H 0.5937 0.7983 0.1219
C48_7 C 0.5422(5) 0.8548(5) 0.1048(2)
H30_7 H 0.5259 0.8658 0.1194
C49_7 C 0.5238(5) 0.8791(5) 0.0825(2)
C50_7 C 0.5487(6) 0.8620(6) 0.0609(3)
H31_7 H 0.5353 0.8762 0.0455
C51_7 C 0.5922(5) 0.8252(6) 0.0616(3)
H32_7 H 0.6101 0.8162 0.0472
C52_7 C 0.4783(4) 0.9209(5) 0.0809(2)
N2_7 N 0.8966(3) 0.4910(3) 0.01325(17)
N5_7 N 0.6570(6) 0.2546(6) 0.0825(4)
N6_7 N 0.6391(7) 0.2368(7) 0.0675(3)
N7_7 N 0.6699(4) 0.7438(4) 0.0689(2)
N8_7 N 0.6531(4) 0.7607(5) 0.0873(2)
O3_7 O 0.8347(3) 0.4461(4) 0.09636(17)
O4_7 O 0.8445(3) 0.4327(3) 0.05617(16)
O5_4 O 0.4688(3) 0.0443(4) 0.09649(16)
O6_4 O 0.4545(3) 0.0520(4) 0.05538(16)
O7_7 O 0.8496(4) 0.5598(4) 0.09774(17)
O8_7 O 0.8362(3) 0.5454(3) 0.05690(16)
O9_4 O 0.4552(3) 0.9330(3) 0.10031(15)
O10_4 O 0.4653(3) 0.9421(4) 0.05970(16)
Zn1_4 Zn 0.89762(5) 0.49167(5) 0.04957(3)
O11_4 O 0.9688(3) 0.5443(4) 0.09649(16)
O12_4 O 0.9545(3) 0.5520(4) 0.05538(16)
O13_4 O 0.9552(3) 0.4330(3) 0.10031(15)
O14_4 O 0.9653(3) 0.4421(4) 0.05970(16)
Zn3_2 Zn 0.39762(5) 0.99167(5) 0.04957(3)
C1_7 C 0.9265(5) 0.5120(5) 0.9980(2)
C2_7 C 0.9263(5) 0.5140(4) 0.9730(2)
H2_7 H 0.9568 0.5277 0.9647
C3_6 C 0.8771(5) 0.4940(4) 0.9608(2)
C4_6 C 0.8354(4) 0.4715(4) 0.9729(2)
H3_6 H 0.8029 0.4570 0.9643
C5_6 C 0.8426(5) 0.4704(6) 0.9990(2)
C6_6 C 0.8339(4) 0.4835(5) 0.9166(2)
C7_6 C 0.8465(3) 0.4963(4) 0.88893(15)
C8_7 C 0.9020(3) 0.5024(4) 0.88144(16)
H5_6 H 0.9335 0.4992 0.8931
C9_7 C 0.9105(3) 0.5132(4) 0.85660(17)
H6_7 H 0.9477 0.5173 0.8516
C10_7 C 0.8636(4) 0.5179(4) 0.83925(16)
C11_7 C 0.8081(3) 0.5119(4) 0.84675(15)
H7_7 H 0.7766 0.5151 0.8351
C12_7 C 0.7996(3) 0.5011(4) 0.87159(14)
H8_6 H 0.7624 0.4970 0.8766
C13_7 C 0.8727(6) 0.5274(6) 0.8124(2)
C14_7 C 0.9176(6) 0.5611(6) 0.8069(2)
H9_7 H 0.9396 0.5780 0.8198
C15_7 C 0.9297(6) 0.5694(6) 0.7822(3)
H10_7 H 0.9598 0.5919 0.7785
C16_7 C 0.8968(7) 0.5442(7) 0.76295(19)
C17_7 C 0.8518(7) 0.5105(6) 0.7685(2)
H11_6 H 0.8298 0.4937 0.7556
C18_7 C 0.8398(6) 0.5022(6) 0.7932(3)
H12_6 H 0.8097 0.4797 0.7969
C19_7 C 0.9120(10) 0.5533(10) 0.7358(4)
C20_7 C 0.9169(4) 0.5523(2) 0.65473(14)
H13_7 H 0.9261 0.5824 0.6456
C21_7 C 0.9170(4) 0.5550(3) 0.68066(15)
H14_7 H 0.9261 0.5868 0.6889
C22_7 C 0.9033(5) 0.5100(4) 0.69424(11)
C23_6 C 0.8896(5) 0.4623(4) 0.68190(16)
H15_6 H 0.8804 0.4322 0.6910
C24_6 C 0.8895(4) 0.4596(2) 0.65596(16)
H16_6 H 0.8804 0.4278 0.6477
N3_6 N 0.8772(4) 0.4982(4) 0.93429(19)
H33_7 H 0.9078 0.5113 0.9286
N4_7 N 0.8958(7) 0.5139(7) 0.7205(3)
H34_6 H 0.8787 0.4875 0.7271
O1_6 O 0.7900(4) 0.4632(4) 0.92126(17)
O2_7 O 0.9244(6) 0.5986(6) 0.7297(2)
H1_8 H 0.4568 0.0315 0.0057
C39_8 C 0.3279(4) 0.0700(5) 0.0768(2)
C40_8 C 0.2877(4) 0.1171(5) 0.0749(2)
C41_8 C 0.2620(6) 0.1324(6) 0.0515(3)
H25_8 H 0.2713 0.1150 0.0370
C42_8 C 0.2225(6) 0.1738(6) 0.0505(3)
H26_8 H 0.2036 0.1827 0.0352
C43_8 C 0.2102(5) 0.2029(5) 0.0720(2)
C44_8 C 0.2389(5) 0.1885(5) 0.0947(2)
H27_8 H 0.2328 0.2079 0.1091
C45_8 C 0.2756(5) 0.1463(5) 0.0960(2)
H28_8 H 0.2933 0.1366 0.1115
C46_8 C 0.1089(5) 0.3015(5) 0.0844(2)
C47_8 C 0.0833(5) 0.3152(6) 0.1067(3)
H29_8 H 0.0937 0.2983 0.1219
C48_8 C 0.0422(5) 0.3548(5) 0.1048(2)
H30_8 H 0.0259 0.3658 0.1194
C49_8 C 0.0238(5) 0.3791(5) 0.0825(2)
C50_8 C 0.0487(6) 0.3620(6) 0.0609(3)
H31_8 H 0.0353 0.3762 0.0455
C51_8 C 0.0922(5) 0.3252(6) 0.0616(3)
H32_8 H 0.1101 0.3162 0.0472
N7_8 N 0.1699(4) 0.2438(4) 0.0689(2)
N8_8 N 0.1531(4) 0.2607(5) 0.0873(2)
O7_8 O 0.3496(4) 0.0598(4) 0.09774(17)
O8_8 O 0.3362(3) 0.0454(3) 0.05690(16)
C1_8 C 0.4265(5) 0.0120(5) 0.9980(2)
C2_8 C 0.4263(5) 0.0140(4) 0.9730(2)
H2_8 H 0.4568 0.0277 0.9647
C8_8 C 0.4020(3) 0.0024(4) 0.88144(16)
C9_8 C 0.4105(3) 0.0132(4) 0.85660(17)
H6_8 H 0.4477 0.0173 0.8516
C10_8 C 0.3636(4) 0.0179(4) 0.83925(16)
C11_8 C 0.3081(3) 0.0119(4) 0.84675(15)
H7_8 H 0.2766 0.0151 0.8351
C12_8 C 0.2996(3) 0.0011(4) 0.87159(14)
C13_8 C 0.3727(6) 0.0274(6) 0.8124(2)
C14_8 C 0.4176(6) 0.0611(6) 0.8069(2)
H9_8 H 0.4396 0.0780 0.8198
C15_8 C 0.4297(6) 0.0694(6) 0.7822(3)
H10_8 H 0.4598 0.0919 0.7785
C16_8 C 0.3968(7) 0.0442(7) 0.76295(19)
C17_8 C 0.3518(7) 0.0105(6) 0.7685(2)
C18_8 C 0.3398(6) 0.0022(6) 0.7932(3)
C19_8 C 0.4120(10) 0.0533(10) 0.7358(4)
C20_8 C 0.4169(4) 0.0523(2) 0.65473(14)
H13_8 H 0.4261 0.0824 0.6456
C21_8 C 0.4170(4) 0.0550(3) 0.68066(15)
H14_8 H 0.4261 0.0868 0.6889
C22_8 C 0.4033(5) 0.0100(4) 0.69424(11)
H33_8 H 0.4078 0.0113 0.9286
N4_8 N 0.3958(7) 0.0139(7) 0.7205(3)
O2_8 O 0.4244(6) 0.0986(6) 0.7297(2)
H4_8 H 0.3132 0.9566 0.0079
C25_8 C 0.3210(5) 0.9220(5) 0.0765(3)
C26_8 C 0.2785(3) 0.8781(3) 0.07691(18)
C27_8 C 0.2528(4) 0.8664(4) 0.09891(16)
H17_8 H 0.2628 0.8858 0.1134
C28_8 C 0.2122(4) 0.8257(4) 0.09929(17)
H18_8 H 0.1950 0.8179 0.1140
C29_8 C 0.1973(4) 0.7966(4) 0.0777(2)
C30_8 C 0.2230(4) 0.8083(4) 0.05565(18)
H19_8 H 0.2131 0.7889 0.0412
C31_8 C 0.2636(4) 0.8490(4) 0.05528(15)
H20_8 H 0.2808 0.8568 0.0406
C32_8 C 0.0979(6) 0.6979(6) 0.0755(4)
C33_8 C 0.0819(6) 0.6757(7) 0.0970(3)
H21_8 H 0.0974 0.6903 0.1120
C34_8 C 0.0436(6) 0.6323(6) 0.0986(3)
H22_8 H 0.0346 0.6196 0.1142
C35_8 C 0.0192(5) 0.6084(5) 0.0768(3)
C36_8 C 0.0382(6) 0.6317(6) 0.0536(3)
H23_8 H 0.0222 0.6194 0.0383
C37_8 C 0.0777(5) 0.6700(7) 0.0542(3)
H24_8 H 0.0931 0.6789 0.0392
N2_8 N 0.3966(3) 0.9910(3) 0.01325(17)
N5_8 N 0.1570(6) 0.7546(6) 0.0825(4)
N6_8 N 0.1391(7) 0.7368(7) 0.0675(3)
O3_8 O 0.3347(3) 0.9461(4) 0.09636(17)
O4_8 O 0.3445(3) 0.9327(3) 0.05617(16)
C52_8 C 0.9783(4) 0.4209(5) 0.0809(2)
C38_8 C 0.9792(5) 0.5664(5) 0.0760(3)
C3_7 C 0.6229(5) 0.0060(4) 0.0392(2)
C4_7 C 0.6646(4) 0.0285(4) 0.0271(2)
H3_7 H 0.6971 0.0430 0.0357
C5_7 C 0.6574(5) 0.0296(6) 0.0010(2)
C6_7 C 0.6661(4) 0.0165(5) 0.0834(2)
C7_7 C 0.6535(3) 0.0037(4) 0.11107(15)
H5_7 H 0.5665 0.0008 0.1069
H8_7 H 0.7376 0.0030 0.1234
H11_7 H 0.6702 0.0063 0.2444
H12_7 H 0.6903 0.0203 0.2031
C23_7 C 0.6104(5) 0.0377(4) 0.31810(16)
H15_7 H 0.6196 0.0678 0.3090
C24_7 C 0.6105(4) 0.0404(2) 0.34404(16)
H16_7 H 0.6196 0.0722 0.3523
N3_7 N 0.6228(4) 0.0018(4) 0.06571(19)
H34_7 H 0.6213 0.0125 0.2729
O1_7 O 0.7100(4) 0.0368(4) 0.07874(17)
C3_8 C 0.3771(5) 0.9940(4) 0.9608(2)
C4_8 C 0.3354(4) 0.9715(4) 0.9729(2)
H3_8 H 0.3029 0.9570 0.9643
C5_8 C 0.3426(5) 0.9704(6) 0.9990(2)
C6_8 C 0.3339(4) 0.9835(5) 0.9166(2)
C7_8 C 0.3465(3) 0.9963(4) 0.88893(15)
H5_8 H 0.4335 0.9992 0.8931
H8_8 H 0.2624 0.9970 0.8766
H11_8 H 0.3298 0.9937 0.7556
H12_8 H 0.3097 0.9797 0.7969
C23_8 C 0.3896(5) 0.9623(4) 0.68190(16)
H15_8 H 0.3804 0.9322 0.6910
C24_8 C 0.3895(4) 0.9596(2) 0.65596(16)
H16_8 H 0.3804 0.9278 0.6477
N3_8 N 0.3772(4) 0.9982(4) 0.93429(19)
H34_8 H 0.3787 0.9875 0.7271
O1_8 O 0.2900(4) 0.9632(4) 0.92126(17)
Zn12 Zn 0.08779(5) 0.00766(5) 0.81143(3)
Zn13 Zn 0.09693(5) 0.01547(5) 0.86700(2)
C97 C 0.0117(5) 0.9400(5) 0.8396(3)
O27 O 0.0226(5) 0.9606(5) 0.8195(2)
O28 O 0.0362(3) 0.9573(4) 0.86022(17)
C73 C 0.6522(4) 0.4883(5) 0.0264(2)
C74 C 0.7033(5) 0.4940(5) 0.0418(2)
C75 C 0.5937(5) 0.4929(5) 0.0359(3)
H48 H 0.7387 0.4945 0.0347
C76 C 0.7013(5) 0.4988(5) 0.0678(2)
C77 C 0.5917(5) 0.4951(5) 0.0614(3)
H49 H 0.5605 0.4942 0.0251
H50 H 0.7351 0.5009 0.0782
C80 C 0.6486(5) 0.5006(5) 0.0775(3)
H51 H 0.5567 0.4933 0.0687
C85 C 0.6474(5) 0.5075(5) 0.1050(3)
C90 C 0.6879(6) 0.5374(7) 0.1181(3)
C91 C 0.6057(5) 0.4816(5) 0.1196(2)
H60 H 0.7146 0.5570 0.1099
C94 C 0.6889(7) 0.5382(7) 0.1442(3)
C95 C 0.6074(6) 0.4842(5) 0.1465(3)
H61 H 0.5762 0.4622 0.1111
H62 H 0.7189 0.5565 0.1530
C98 C 0.6501(6) 0.5146(7) 0.1573(3)
H63 H 0.5810 0.4663 0.1557
C99 C 0.6534(7) 0.5227(8) 0.1847(3)
N17 N 0.6099(6) 0.4979(6) 0.1959(3)
O24 O 0.7006(7) 0.5248(8) 0.1961(3)
C100 C 0.6077(5) 0.4963(5) 0.22314(14)
H64 H 0.5828 0.4826 0.1867
C101 C 0.5990(6) 0.4483(4) 0.23533(19)
C102 C 0.6098(6) 0.5439(4) 0.23653(19)
H65 H 0.5976 0.4165 0.2264
C103 C 0.5924(5) 0.4479(3) 0.26092(19)
C104 C 0.6031(5) 0.5435(3) 0.26212(18)
H66 H 0.6156 0.5760 0.2284
H67 H 0.5865 0.4158 0.2691
H68 H 0.6045 0.5753 0.2711
N18 N 0.5944(3) 0.4955(3) 0.27432(14)
Zn14 Zn 0.58779(5) 0.49234(5) 0.31143(3)
Zn8 Zn 0.59693(5) 0.51547(5) 0.86700(2)
N10 N 0.6007(3) 0.5163(3) 0.90284(14)
O15 O 0.5350(3) 0.5709(3) 0.85740(16)
O16 O 0.6563(3) 0.5711(3) 0.85878(15)
O17 O 0.6557(3) 0.4573(4) 0.86180(16)
O18 O 0.5362(3) 0.4573(4) 0.86022(17)
C53 C 0.6443(5) 0.4900(5) 0.9180(2)
C54 C 0.5685(5) 0.5439(5) 0.9193(2)
C55 C 0.5175(4) 0.5871(5) 0.8361(2)
C56 C 0.6699(4) 0.5826(5) 0.8382(3)
H35 H 0.6730 0.4745 0.9092
C57 C 0.6516(5) 0.4833(5) 0.9438(2)
C58 C 0.5710(4) 0.5431(5) 0.9450(2)
H36 H 0.5407 0.5666 0.9118
C59 C 0.4770(5) 0.6318(5) 0.8340(2)
O19 O 0.5346(4) 0.5684(4) 0.81553(17)
C60 C 0.7151(5) 0.6255(6) 0.8355(2)
O20 O 0.6548(4) 0.5576(5) 0.81782(19)
O21 O 0.6352(5) 0.4457(5) 0.8207(2)
O22 O 0.5226(5) 0.4606(5) 0.8195(2)
H37 H 0.6795 0.4603 0.9510
C61 C 0.6184(7) 0.5101(6) 0.9574(3)
H38 H 0.5450 0.5618 0.9540
C62 C 0.4550(5) 0.6531(5) 0.8561(2)
C63 C 0.4584(6) 0.6548(6) 0.8112(3)
Zn9 Zn 0.58779(5) 0.50766(5) 0.81143(3)
C64 C 0.7307(6) 0.6436(7) 0.8125(3)
C65 C 0.7408(5) 0.6509(5) 0.8560(3)
N11 N 0.6180(5) 0.5072(4) 0.9826(2)
C66 C 0.4148(6) 0.6941(6) 0.8545(3)
H39 H 0.4677 0.6393 0.8717
H40 H 0.4743 0.6424 0.7969
C67 C 0.4193(6) 0.6932(6) 0.8087(3)
N12 N 0.5944(3) 0.5045(3) 0.77432(14)
C68 C 0.7672(7) 0.6802(7) 0.8114(3)
H41 H 0.7140 0.6286 0.7978
H42 H 0.7313 0.6395 0.8717
C69 C 0.7789(5) 0.6912(6) 0.8549(3)
C70 C 0.6582(5) 0.4851(5) 0.9983(2)
H43 H 0.5888 0.5211 0.9891
C71 C 0.3978(6) 0.7161(6) 0.8313(3)
H44 H 0.3993 0.7068 0.8689
H45 H 0.4058 0.7054 0.7929
C72 C 0.7931(6) 0.7061(6) 0.8312(3)
H46 H 0.7773 0.6903 0.7956
H47 H 0.7948 0.7080 0.8693
O23 O 0.7005(3) 0.4608(4) 0.99051(17)
N13 N 0.3542(6) 0.7568(6) 0.8291(3)
N14 N 0.8355(5) 0.7467(5) 0.8274(2)
N15 N 0.3323(6) 0.7688(6) 0.8465(3)
N16 N 0.8500(4) 0.7710(5) 0.8455(2)
C78 C 0.2897(6) 0.8073(6) 0.8441(3)
C79 C 0.8922(5) 0.8138(6) 0.8427(3)
C81 C 0.2683(6) 0.8299(6) 0.8647(3)
C82 C 0.2660(7) 0.8267(7) 0.8206(3)
C83 C 0.9128(6) 0.8271(6) 0.8208(3)
C84 C 0.9119(5) 0.8386(5) 0.8651(3)
H52 H 0.2814 0.8157 0.8801
C86 C 0.2312(5) 0.8694(6) 0.8652(3)
C87 C 0.2195(7) 0.8672(7) 0.8195(3)
H53 H 0.2798 0.8139 0.8059
H54 H 0.9004 0.8079 0.8066
C88 C 0.9514(5) 0.8680(6) 0.8187(3)
C89 C 0.9489(5) 0.8813(6) 0.8649(3)
H55 H 0.9000 0.8260 0.8802
H56 H 0.2201 0.8824 0.8804
C92 C 0.2088(5) 0.8918(6) 0.8428(2)
H57 H 0.1987 0.8762 0.8046
H58 H 0.9652 0.8767 0.8033
C93 C 0.9699(5) 0.8968(5) 0.8411(3)
H59 H 0.9601 0.8997 0.8795
C96 C 0.1672(5) 0.9361(5) 0.8416(3)
O25 O 0.1352(5) 0.9457(5) 0.8207(2)
O26 O 0.1557(3) 0.9573(4) 0.86180(16)
N10_2 N 0.1007(3) 0.0163(3) 0.90284(14)
O15_2 O 0.0350(3) 0.0709(3) 0.85740(16)
O16_2 O 0.1563(3) 0.0711(3) 0.85878(15)
C54_2 C 0.0685(5) 0.0439(5) 0.9193(2)
C55_2 C 0.0175(4) 0.0871(5) 0.8361(2)
C56_2 C 0.1699(4) 0.0826(5) 0.8382(3)
C58_2 C 0.0710(4) 0.0431(5) 0.9450(2)
H36_2 H 0.0407 0.0666 0.9118
O19_2 O 0.0346(4) 0.0684(4) 0.81553(17)
C60_2 C 0.2151(5) 0.1255(6) 0.8355(2)
O20_2 O 0.1548(4) 0.0576(5) 0.81782(19)
C61_2 C 0.1184(7) 0.0101(6) 0.9574(3)
H38_2 H 0.0450 0.0618 0.9540
C64_2 C 0.2307(6) 0.1436(7) 0.8125(3)
C65_2 C 0.2408(5) 0.1509(5) 0.8560(3)
N11_2 N 0.1180(5) 0.0072(4) 0.9826(2)
N12_2 N 0.0944(3) 0.0045(3) 0.77432(14)
C68_2 C 0.2672(7) 0.1802(7) 0.8114(3)
H41_2 H 0.2140 0.1286 0.7978
H42_2 H 0.2313 0.1395 0.8717
C69_2 C 0.2789(5) 0.1912(6) 0.8549(3)
H43_2 H 0.0888 0.0211 0.9891
C72_2 C 0.2931(6) 0.2061(6) 0.8312(3)
H46_2 H 0.2773 0.1903 0.7956
H47_2 H 0.2948 0.2080 0.8693
N14_2 N 0.3355(5) 0.2467(5) 0.8274(2)
N16_2 N 0.3500(4) 0.2710(5) 0.8455(2)
C79_2 C 0.3922(5) 0.3138(6) 0.8427(3)
C83_2 C 0.4128(6) 0.3271(6) 0.8208(3)
C84_2 C 0.4119(5) 0.3386(5) 0.8651(3)
H54_2 H 0.4004 0.3079 0.8066
C88_2 C 0.4514(5) 0.3680(6) 0.8187(3)
C89_2 C 0.4489(5) 0.3813(6) 0.8649(3)
H55_2 H 0.4000 0.3260 0.8802
H58_2 H 0.4652 0.3767 0.8033
C93_2 C 0.4699(5) 0.3968(5) 0.8411(3)
H59_2 H 0.4601 0.3997 0.8795
C97_2 C 0.5117(5) 0.4400(5) 0.8396(3)
C73_2 C 0.1522(4) 0.9883(5) 0.0264(2)
C74_2 C 0.2033(5) 0.9940(5) 0.0418(2)
C75_2 C 0.0937(5) 0.9929(5) 0.0359(3)
H48_2 H 0.2387 0.9945 0.0347
C76_2 C 0.2013(5) 0.9988(5) 0.0678(2)
C77_2 C 0.0917(5) 0.9951(5) 0.0614(3)
H49_2 H 0.0605 0.9942 0.0251
H51_2 H 0.0567 0.9933 0.0687
C91_2 C 0.1057(5) 0.9816(5) 0.1196(2)
C95_2 C 0.1074(6) 0.9842(5) 0.1465(3)
H61_2 H 0.0762 0.9622 0.1111
H63_2 H 0.0810 0.9663 0.1557
N17_2 N 0.1099(6) 0.9979(6) 0.1959(3)
C100_2 C 0.1077(5) 0.9963(5) 0.22314(14)
H64_2 H 0.0828 0.9826 0.1867
C101_2 C 0.0990(6) 0.9483(4) 0.23533(19)
H65_2 H 0.0976 0.9165 0.2264
C103_2 C 0.0924(5) 0.9479(3) 0.26092(19)
H67_2 H 0.0865 0.9158 0.2691
N18_2 N 0.0944(3) 0.9955(3) 0.27432(14)
Zn14_2 Zn 0.08779(5) 0.99234(5) 0.31143(3)
C53_2 C 0.1443(5) 0.9900(5) 0.9180(2)
H35_2 H 0.1730 0.9745 0.9092
C57_2 C 0.1516(5) 0.9833(5) 0.9438(2)
H37_2 H 0.1795 0.9603 0.9510
C70_2 C 0.1582(5) 0.9851(5) 0.9983(2)
O23_2 O 0.2005(3) 0.9608(4) 0.99051(17)
C59_2 C 0.9770(5) 0.1318(5) 0.8340(2)
C62_2 C 0.9550(5) 0.1531(5) 0.8561(2)
C63_2 C 0.9584(6) 0.1548(6) 0.8112(3)
C66_2 C 0.9148(6) 0.1941(6) 0.8545(3)
H39_2 H 0.9677 0.1393 0.8717
H40_2 H 0.9743 0.1424 0.7969
C67_2 C 0.9193(6) 0.1932(6) 0.8087(3)
C71_2 C 0.8978(6) 0.2161(6) 0.8313(3)
H44_2 H 0.8993 0.2068 0.8689
H45_2 H 0.9058 0.2054 0.7929
N13_2 N 0.8542(6) 0.2568(6) 0.8291(3)
N15_2 N 0.8323(6) 0.2688(6) 0.8465(3)
C78_2 C 0.7897(6) 0.3073(6) 0.8441(3)
C81_2 C 0.7683(6) 0.3299(6) 0.8647(3)
C82_2 C 0.7660(7) 0.3267(7) 0.8206(3)
H52_2 H 0.7814 0.3157 0.8801
C86_2 C 0.7312(5) 0.3694(6) 0.8652(3)
C87_2 C 0.7195(7) 0.3672(7) 0.8195(3)
H53_2 H 0.7798 0.3139 0.8059
H56_2 H 0.7201 0.3824 0.8804
C92_2 C 0.7088(5) 0.3918(6) 0.8428(2)
H57_2 H 0.6987 0.3762 0.8046
C96_2 C 0.6672(5) 0.4361(5) 0.8416(3)
C97_3 C 0.0117(5) 0.0600(5) 0.3396(3)
O27_2 O 0.0226(5) 0.0394(5) 0.3195(2)
O28_2 O 0.0362(3) 0.0427(4) 0.36022(17)
Zn13_2 Zn 0.09693(5) 0.98453(5) 0.36700(2)
Zn8_2 Zn 0.59693(5) 0.48453(5) 0.36700(2)
N10_3 N 0.6007(3) 0.4837(3) 0.40284(14)
O15_3 O 0.5350(3) 0.4291(3) 0.35740(16)
O16_3 O 0.6563(3) 0.4289(3) 0.35878(15)
O17_2 O 0.6557(3) 0.5427(4) 0.36180(16)
O18_2 O 0.5362(3) 0.5427(4) 0.36022(17)
C53_3 C 0.6443(5) 0.5100(5) 0.4180(2)
C54_3 C 0.5685(5) 0.4561(5) 0.4193(2)
C55_3 C 0.5175(4) 0.4129(5) 0.3361(2)
C56_3 C 0.6699(4) 0.4174(5) 0.3382(3)
H35_3 H 0.6730 0.5255 0.4092
C57_3 C 0.6516(5) 0.5167(5) 0.4438(2)
C58_3 C 0.5710(4) 0.4569(5) 0.4450(2)
H36_3 H 0.5407 0.4334 0.4118
C59_3 C 0.4770(5) 0.3682(5) 0.3340(2)
O19_3 O 0.5346(4) 0.4316(4) 0.31553(17)
C60_3 C 0.7151(5) 0.3745(6) 0.3355(2)
O20_3 O 0.6548(4) 0.4424(5) 0.31782(19)
O21_2 O 0.6352(5) 0.5543(5) 0.3207(2)
O22_2 O 0.5226(5) 0.5394(5) 0.3195(2)
H37_3 H 0.6795 0.5397 0.4510
C61_3 C 0.6184(7) 0.4899(6) 0.4574(3)
H38_3 H 0.5450 0.4382 0.4540
C62_3 C 0.4550(5) 0.3469(5) 0.3561(2)
C63_3 C 0.4584(6) 0.3452(6) 0.3112(3)
C64_3 C 0.7307(6) 0.3564(7) 0.3125(3)
C65_3 C 0.7408(5) 0.3491(5) 0.3560(3)
N11_3 N 0.6180(5) 0.4928(4) 0.4826(2)
C66_3 C 0.4148(6) 0.3059(6) 0.3545(3)
H39_3 H 0.4677 0.3607 0.3717
H40_3 H 0.4743 0.3576 0.2969
C67_3 C 0.4193(6) 0.3068(6) 0.3087(3)
C68_3 C 0.7672(7) 0.3198(7) 0.3114(3)
H41_3 H 0.7140 0.3714 0.2978
H42_3 H 0.7313 0.3605 0.3717
C69_3 C 0.7789(5) 0.3088(6) 0.3549(3)
C70_3 C 0.6582(5) 0.5149(5) 0.4983(2)
H43_3 H 0.5888 0.4789 0.4891
C71_3 C 0.3978(6) 0.2839(6) 0.3313(3)
H44_3 H 0.3993 0.2932 0.3689
H45_3 H 0.4058 0.2946 0.2929
C72_3 C 0.7931(6) 0.2939(6) 0.3312(3)
H46_3 H 0.7773 0.3097 0.2956
H47_3 H 0.7948 0.2920 0.3693
C73_3 C 0.6522(4) 0.5117(5) 0.5264(2)
O23_3 O 0.7005(3) 0.5392(4) 0.49051(17)
N13_3 N 0.3542(6) 0.2432(6) 0.3291(3)
N14_3 N 0.8355(5) 0.2533(5) 0.3274(2)
C74_3 C 0.7033(5) 0.5060(5) 0.5418(2)
C75_3 C 0.5937(5) 0.5071(5) 0.5359(3)
N15_3 N 0.3323(6) 0.2312(6) 0.3465(3)
N16_3 N 0.8500(4) 0.2290(5) 0.3455(2)
H48_3 H 0.7387 0.5055 0.5347
C76_3 C 0.7013(5) 0.5012(5) 0.5678(2)
C77_3 C 0.5917(5) 0.5049(5) 0.5614(3)
H49_3 H 0.5605 0.5058 0.5251
C78_3 C 0.2897(6) 0.1927(6) 0.3441(3)
C79_3 C 0.8922(5) 0.1862(6) 0.3427(3)
H50_2 H 0.7351 0.4991 0.5782
C80_2 C 0.6486(5) 0.4994(5) 0.5775(3)
H51_3 H 0.5567 0.5067 0.5687
C81_3 C 0.2683(6) 0.1701(6) 0.3647(3)
C82_3 C 0.2660(7) 0.1733(7) 0.3206(3)
C83_3 C 0.9128(6) 0.1729(6) 0.3208(3)
C84_3 C 0.9119(5) 0.1614(5) 0.3651(3)
C85_2 C 0.6474(5) 0.4925(5) 0.6050(3)
H52_3 H 0.2814 0.1843 0.3801
C86_3 C 0.2312(5) 0.1306(6) 0.3652(3)
C87_3 C 0.2195(7) 0.1328(7) 0.3195(3)
H53_3 H 0.2798 0.1861 0.3059
H54_3 H 0.9004 0.1921 0.3066
C88_3 C 0.9514(5) 0.1320(6) 0.3187(3)
C89_3 C 0.9489(5) 0.1187(6) 0.3649(3)
H55_3 H 0.9000 0.1740 0.3802
C90_2 C 0.6879(6) 0.4626(7) 0.6181(3)
C91_3 C 0.6057(5) 0.5184(5) 0.6196(2)
H56_3 H 0.2201 0.1176 0.3804
C92_3 C 0.2088(5) 0.1082(6) 0.3428(2)
H57_3 H 0.1987 0.1238 0.3046
H58_3 H 0.9652 0.1233 0.3033
C93_3 C 0.9699(5) 0.1032(5) 0.3411(3)
H59_3 H 0.9601 0.1003 0.3795
H60_2 H 0.7146 0.4430 0.6099
C94_2 C 0.6889(7) 0.4618(7) 0.6442(3)
C95_3 C 0.6074(6) 0.5158(5) 0.6465(3)
H61_3 H 0.5762 0.5378 0.6111
C96_3 C 0.1672(5) 0.0639(5) 0.3416(3)
H62_2 H 0.7189 0.4435 0.6530
C98_2 C 0.6501(6) 0.4854(7) 0.6573(3)
H63_3 H 0.5810 0.5337 0.6557
C99_2 C 0.6534(7) 0.4773(8) 0.6847(3)
N17_3 N 0.6099(6) 0.5021(6) 0.6959(3)
O24_2 O 0.7006(7) 0.4752(8) 0.6961(3)
C100_3 C 0.6077(5) 0.5037(5) 0.72314(14)
H64_3 H 0.5828 0.5174 0.6867
C101_3 C 0.5990(6) 0.5517(4) 0.73533(19)
C102_2 C 0.6098(6) 0.4561(4) 0.73653(19)
H65_3 H 0.5976 0.5835 0.7264
C103_3 C 0.5924(5) 0.5521(3) 0.76092(19)
C104_2 C 0.6031(5) 0.4565(3) 0.76212(18)
H66_2 H 0.6156 0.4240 0.7284
H67_3 H 0.5865 0.5842 0.7691
H68_2 H 0.6045 0.4247 0.7711
O25_2 O 0.1352(5) 0.0543(5) 0.3207(2)
O26_2 O 0.1557(3) 0.0427(4) 0.36180(16)
C53_4 C 0.1443(5) 0.0100(5) 0.4180(2)
H35_4 H 0.1730 0.0255 0.4092
C57_4 C 0.1516(5) 0.0167(5) 0.4438(2)
H37_4 H 0.1795 0.0397 0.4510
C70_4 C 0.1582(5) 0.0149(5) 0.4983(2)
C73_4 C 0.1522(4) 0.0117(5) 0.5264(2)
O23_4 O 0.2005(3) 0.0392(4) 0.49051(17)
C74_4 C 0.2033(5) 0.0060(5) 0.5418(2)
C75_4 C 0.0937(5) 0.0071(5) 0.5359(3)
H48_4 H 0.2387 0.0055 0.5347
C76_4 C 0.2013(5) 0.0012(5) 0.5678(2)
C77_4 C 0.0917(5) 0.0049(5) 0.5614(3)
H49_4 H 0.0605 0.0058 0.5251
H51_4 H 0.0567 0.0067 0.5687
C91_4 C 0.1057(5) 0.0184(5) 0.6196(2)
C95_4 C 0.1074(6) 0.0158(5) 0.6465(3)
H61_4 H 0.0762 0.0378 0.6111
H63_4 H 0.0810 0.0337 0.6557
N17_4 N 0.1099(6) 0.0021(6) 0.6959(3)
C100_4 C 0.1077(5) 0.0037(5) 0.72314(14)
H64_4 H 0.0828 0.0174 0.6867
C101_4 C 0.0990(6) 0.0517(4) 0.73533(19)
H65_4 H 0.0976 0.0835 0.7264
C103_4 C 0.0924(5) 0.0521(3) 0.76092(19)
H67_4 H 0.0865 0.0842 0.7691
N10_4 N 0.1007(3) 0.9837(3) 0.40284(14)
O15_4 O 0.0350(3) 0.9291(3) 0.35740(16)
O16_4 O 0.1563(3) 0.9289(3) 0.35878(15)
C54_4 C 0.0685(5) 0.9561(5) 0.4193(2)
C55_4 C 0.0175(4) 0.9129(5) 0.3361(2)
C56_4 C 0.1699(4) 0.9174(5) 0.3382(3)
C58_4 C 0.0710(4) 0.9569(5) 0.4450(2)
H36_4 H 0.0407 0.9334 0.4118
O19_4 O 0.0346(4) 0.9316(4) 0.31553(17)
C60_4 C 0.2151(5) 0.8745(6) 0.3355(2)
O20_4 O 0.1548(4) 0.9424(5) 0.31782(19)
C61_4 C 0.1184(7) 0.9899(6) 0.4574(3)
H38_4 H 0.0450 0.9382 0.4540
C64_4 C 0.2307(6) 0.8564(7) 0.3125(3)
C65_4 C 0.2408(5) 0.8491(5) 0.3560(3)
N11_4 N 0.1180(5) 0.9928(4) 0.4826(2)
C68_4 C 0.2672(7) 0.8198(7) 0.3114(3)
H41_4 H 0.2140 0.8714 0.2978
H42_4 H 0.2313 0.8605 0.3717
C69_4 C 0.2789(5) 0.8088(6) 0.3549(3)
H43_4 H 0.0888 0.9789 0.4891
C72_4 C 0.2931(6) 0.7939(6) 0.3312(3)
H46_4 H 0.2773 0.8097 0.2956
H47_4 H 0.2948 0.7920 0.3693
N14_4 N 0.3355(5) 0.7533(5) 0.3274(2)
N16_4 N 0.3500(4) 0.7290(5) 0.3455(2)
C79_4 C 0.3922(5) 0.6862(6) 0.3427(3)
H50_3 H 0.2351 0.9991 0.5782
C80_3 C 0.1486(5) 0.9994(5) 0.5775(3)
C83_4 C 0.4128(6) 0.6729(6) 0.3208(3)
C84_4 C 0.4119(5) 0.6614(5) 0.3651(3)
C85_3 C 0.1474(5) 0.9925(5) 0.6050(3)
H54_4 H 0.4004 0.6921 0.3066
C88_4 C 0.4514(5) 0.6320(6) 0.3187(3)
C89_4 C 0.4489(5) 0.6187(6) 0.3649(3)
H55_4 H 0.4000 0.6740 0.3802
C90_3 C 0.1879(6) 0.9626(7) 0.6181(3)
H58_4 H 0.4652 0.6233 0.3033
C93_4 C 0.4699(5) 0.6032(5) 0.3411(3)
H59_4 H 0.4601 0.6003 0.3795
H60_3 H 0.2146 0.9430 0.6099
C94_3 C 0.1889(7) 0.9618(7) 0.6442(3)
C97_4 C 0.5117(5) 0.5600(5) 0.3396(3)
H62_3 H 0.2189 0.9435 0.6530
C98_3 C 0.1501(6) 0.9854(7) 0.6573(3)
C99_3 C 0.1534(7) 0.9773(8) 0.6847(3)
O24_3 O 0.2006(7) 0.9752(8) 0.6961(3)
C102_3 C 0.1098(6) 0.9561(4) 0.73653(19)
C104_3 C 0.1031(5) 0.9565(3) 0.76212(18)
H66_3 H 0.1156 0.9240 0.7284
H68_3 H 0.1045 0.9247 0.7711
C59_4 C 0.9770(5) 0.8682(5) 0.3340(2)
C62_4 C 0.9550(5) 0.8469(5) 0.3561(2)
C63_4 C 0.9584(6) 0.8452(6) 0.3112(3)
C66_4 C 0.9148(6) 0.8059(6) 0.3545(3)
H39_4 H 0.9677 0.8607 0.3717
H40_4 H 0.9743 0.8576 0.2969
C67_4 C 0.9193(6) 0.8068(6) 0.3087(3)
C71_4 C 0.8978(6) 0.7839(6) 0.3313(3)
H44_4 H 0.8993 0.7932 0.3689
H45_4 H 0.9058 0.7946 0.2929
N13_4 N 0.8542(6) 0.7432(6) 0.3291(3)
N15_4 N 0.8323(6) 0.7312(6) 0.3465(3)
C78_4 C 0.7897(6) 0.6927(6) 0.3441(3)
C81_4 C 0.7683(6) 0.6701(6) 0.3647(3)
C82_4 C 0.7660(7) 0.6733(7) 0.3206(3)
H52_4 H 0.7814 0.6843 0.3801
C86_4 C 0.7312(5) 0.6306(6) 0.3652(3)
C87_4 C 0.7195(7) 0.6328(7) 0.3195(3)
H53_4 H 0.7798 0.6861 0.3059
H56_4 H 0.7201 0.6176 0.3804
C92_4 C 0.7088(5) 0.6082(6) 0.3428(2)
H57_4 H 0.6987 0.6238 0.3046
C96_4 C 0.6672(5) 0.5639(5) 0.3416(3)
Zn10 Zn 0.91221(5) 0.00766(5) 0.68857(3)
Zn11 Zn 0.90307(5) 0.01547(5) 0.63300(2)
Zn8_3 Zn 0.40307(5) 0.51547(5) 0.63300(2)
N10_5 N 0.3993(3) 0.5163(3) 0.59716(14)
O15_5 O 0.4650(3) 0.5709(3) 0.64260(16)
O16_5 O 0.3437(3) 0.5711(3) 0.64122(15)
O17_3 O 0.3443(3) 0.4573(4) 0.63820(16)
O18_3 O 0.4638(3) 0.4573(4) 0.63978(17)
C53_5 C 0.3557(5) 0.4900(5) 0.5820(2)
C54_5 C 0.4315(5) 0.5439(5) 0.5807(2)
C55_5 C 0.4825(4) 0.5871(5) 0.6639(2)
C56_5 C 0.3301(4) 0.5826(5) 0.6618(3)
H35_5 H 0.3270 0.4745 0.5908
C57_5 C 0.3484(5) 0.4833(5) 0.5562(2)
C58_5 C 0.4290(4) 0.5431(5) 0.5550(2)
H36_5 H 0.4593 0.5666 0.5882
C59_5 C 0.5230(5) 0.6318(5) 0.6660(2)
O19_5 O 0.4654(4) 0.5684(4) 0.68447(17)
C60_5 C 0.2849(5) 0.6255(6) 0.6645(2)
O20_5 O 0.3452(4) 0.5576(5) 0.68218(19)
O21_3 O 0.3648(5) 0.4457(5) 0.6793(2)
O22_3 O 0.4774(5) 0.4606(5) 0.6805(2)
H37_5 H 0.3205 0.4603 0.5490
C61_5 C 0.3816(7) 0.5101(6) 0.5426(3)
H38_5 H 0.4550 0.5618 0.5460
C62_5 C 0.5450(5) 0.6531(5) 0.6439(2)
C63_5 C 0.5416(6) 0.6548(6) 0.6888(3)
Zn9_2 Zn 0.41221(5) 0.50766(5) 0.68857(3)
C64_5 C 0.2693(6) 0.6436(7) 0.6875(3)
C65_5 C 0.2592(5) 0.6509(5) 0.6440(3)
N11_5 N 0.3820(5) 0.5072(4) 0.5174(2)
C66_5 C 0.5852(6) 0.6941(6) 0.6455(3)
H39_5 H 0.5323 0.6393 0.6283
H40_5 H 0.5257 0.6424 0.7031
C67_5 C 0.5807(6) 0.6932(6) 0.6913(3)
N12_3 N 0.4056(3) 0.5045(3) 0.72568(14)
C68_5 C 0.2328(7) 0.6802(7) 0.6886(3)
H41_5 H 0.2860 0.6286 0.7022
H42_5 H 0.2687 0.6395 0.6283
C69_5 C 0.2211(5) 0.6912(6) 0.6451(3)
C70_5 C 0.3418(5) 0.4851(5) 0.5017(2)
H43_5 H 0.4112 0.5211 0.5109
C71_5 C 0.6022(6) 0.7161(6) 0.6687(3)
H44_5 H 0.6007 0.7068 0.6311
H45_5 H 0.5942 0.7054 0.7071
C72_5 C 0.2069(6) 0.7061(6) 0.6688(3)
H46_5 H 0.2227 0.6903 0.7044
H47_5 H 0.2052 0.7080 0.6307
C73_5 C 0.3478(4) 0.4883(5) 0.4736(2)
O23_5 O 0.2995(3) 0.4608(4) 0.50949(17)
N13_5 N 0.6458(6) 0.7568(6) 0.6709(3)
N14_5 N 0.1645(5) 0.7467(5) 0.6726(2)
C74_5 C 0.2967(5) 0.4940(5) 0.4582(2)
C75_5 C 0.4063(5) 0.4929(5) 0.4641(3)
N15_5 N 0.6677(6) 0.7688(6) 0.6535(3)
N16_5 N 0.1500(4) 0.7710(5) 0.6545(2)
H48_5 H 0.2613 0.4945 0.4653
C76_5 C 0.2987(5) 0.4988(5) 0.4322(2)
C77_5 C 0.4083(5) 0.4951(5) 0.4386(3)
H49_5 H 0.4395 0.4942 0.4749
C78_5 C 0.7103(6) 0.8073(6) 0.6559(3)
C79_5 C 0.1078(5) 0.8138(6) 0.6573(3)
H50_4 H 0.2649 0.5009 0.4218
C80_4 C 0.3514(5) 0.5006(5) 0.4225(3)
H51_5 H 0.4433 0.4933 0.4313
C81_5 C 0.7317(6) 0.8299(6) 0.6353(3)
C82_5 C 0.7340(7) 0.8267(7) 0.6794(3)
C83_5 C 0.0872(6) 0.8271(6) 0.6792(3)
C84_5 C 0.0881(5) 0.8386(5) 0.6349(3)
C85_4 C 0.3526(5) 0.5075(5) 0.3950(3)
H52_5 H 0.7186 0.8157 0.6199
C86_5 C 0.7688(5) 0.8694(6) 0.6348(3)
C87_5 C 0.7805(7) 0.8672(7) 0.6805(3)
H53_5 H 0.7202 0.8139 0.6941
H54_5 H 0.0996 0.8079 0.6934
C88_5 C 0.0486(5) 0.8680(6) 0.6813(3)
C89_5 C 0.0511(5) 0.8813(6) 0.6351(3)
H55_5 H 0.1000 0.8260 0.6198
C90_4 C 0.3121(6) 0.5374(7) 0.3819(3)
C91_5 C 0.3943(5) 0.4816(5) 0.3804(2)
H56_5 H 0.7799 0.8824 0.6196
C92_5 C 0.7912(5) 0.8918(6) 0.6572(2)
H57_5 H 0.8013 0.8762 0.6954
H58_5 H 0.0348 0.8767 0.6967
C93_5 C 0.0301(5) 0.8968(5) 0.6589(3)
H59_5 H 0.0399 0.8997 0.6205
H60_4 H 0.2854 0.5570 0.3901
C94_4 C 0.3111(7) 0.5382(7) 0.3558(3)
C95_5 C 0.3926(6) 0.4842(5) 0.3535(3)
H61_5 H 0.4238 0.4622 0.3889
C96_5 C 0.8328(5) 0.9361(5) 0.6584(3)
H62_4 H 0.2811 0.5565 0.3470
C98_4 C 0.3499(6) 0.5146(7) 0.3427(3)
H63_5 H 0.4190 0.4663 0.3443
C99_4 C 0.3466(7) 0.5227(8) 0.3153(3)
N17_5 N 0.3901(6) 0.4979(6) 0.3041(3)
O24_4 O 0.2994(7) 0.5248(8) 0.3039(3)
C100_5 C 0.3923(5) 0.4963(5) 0.27686(14)
H64_5 H 0.4172 0.4826 0.3133
C101_5 C 0.4010(6) 0.4483(4) 0.26467(19)
C102_4 C 0.3902(6) 0.5439(4) 0.26347(19)
H65_5 H 0.4024 0.4165 0.2736
C103_5 C 0.4076(5) 0.4479(3) 0.23908(19)
C104_4 C 0.3969(5) 0.5435(3) 0.23788(18)
H66_4 H 0.3844 0.5760 0.2716
H67_5 H 0.4135 0.4158 0.2309
H68_4 H 0.3955 0.5753 0.2289
O25_3 O 0.8648(5) 0.9457(5) 0.6793(2)
O26_3 O 0.8443(3) 0.9573(4) 0.63820(16)
N18_3 N 0.4056(3) 0.4955(3) 0.22568(14)
Zn14_3 Zn 0.41221(5) 0.49234(5) 0.18857(3)
C97_5 C 0.9883(5) 0.9400(5) 0.6604(3)
O27_3 O 0.9774(5) 0.9606(5) 0.6805(2)
O28_3 O 0.9638(3) 0.9573(4) 0.63978(17)
C59_6 C 0.0230(5) 0.1318(5) 0.6660(2)
C62_6 C 0.0450(5) 0.1531(5) 0.6439(2)
C63_6 C 0.0416(6) 0.1548(6) 0.6888(3)
C66_6 C 0.0852(6) 0.1941(6) 0.6455(3)
H39_6 H 0.0323 0.1393 0.6283
H40_6 H 0.0257 0.1424 0.7031
C67_6 C 0.0807(6) 0.1932(6) 0.6913(3)
C71_6 C 0.1022(6) 0.2161(6) 0.6687(3)
H44_6 H 0.1007 0.2068 0.6311
H45_6 H 0.0942 0.2054 0.7071
N13_6 N 0.1458(6) 0.2568(6) 0.6709(3)
N15_6 N 0.1677(6) 0.2688(6) 0.6535(3)
C78_6 C 0.2103(6) 0.3073(6) 0.6559(3)
C81_6 C 0.2317(6) 0.3299(6) 0.6353(3)
C82_6 C 0.2340(7) 0.3267(7) 0.6794(3)
H52_6 H 0.2186 0.3157 0.6199
C86_6 C 0.2688(5) 0.3694(6) 0.6348(3)
C87_6 C 0.2805(7) 0.3672(7) 0.6805(3)
H53_6 H 0.2202 0.3139 0.6941
H56_6 H 0.2799 0.3824 0.6196
C92_6 C 0.2912(5) 0.3918(6) 0.6572(2)
H57_6 H 0.3013 0.3762 0.6954
C96_6 C 0.3328(5) 0.4361(5) 0.6584(3)
N10_6 N 0.8993(3) 0.0163(3) 0.59716(14)
O15_6 O 0.9650(3) 0.0709(3) 0.64260(16)
O16_6 O 0.8437(3) 0.0711(3) 0.64122(15)
C54_6 C 0.9315(5) 0.0439(5) 0.5807(2)
C55_6 C 0.9825(4) 0.0871(5) 0.6639(2)
C56_6 C 0.8301(4) 0.0826(5) 0.6618(3)
C58_6 C 0.9290(4) 0.0431(5) 0.5550(2)
H36_6 H 0.9593 0.0666 0.5882
O19_6 O 0.9654(4) 0.0684(4) 0.68447(17)
C60_6 C 0.7849(5) 0.1255(6) 0.6645(2)
O20_6 O 0.8452(4) 0.0576(5) 0.68218(19)
C61_6 C 0.8816(7) 0.0101(6) 0.5426(3)
H38_6 H 0.9550 0.0618 0.5460
C64_6 C 0.7693(6) 0.1436(7) 0.6875(3)
C65_6 C 0.7592(5) 0.1509(5) 0.6440(3)
N11_6 N 0.8820(5) 0.0072(4) 0.5174(2)
N12_4 N 0.9056(3) 0.0045(3) 0.72568(14)
C68_6 C 0.7328(7) 0.1802(7) 0.6886(3)
H41_6 H 0.7860 0.1286 0.7022
H42_6 H 0.7687 0.1395 0.6283
C69_6 C 0.7211(5) 0.1912(6) 0.6451(3)
H43_6 H 0.9112 0.0211 0.5109
C72_6 C 0.7069(6) 0.2061(6) 0.6688(3)
H46_6 H 0.7227 0.1903 0.7044
H47_6 H 0.7052 0.2080 0.6307
N14_6 N 0.6645(5) 0.2467(5) 0.6726(2)
N16_6 N 0.6500(4) 0.2710(5) 0.6545(2)
C79_6 C 0.6078(5) 0.3138(6) 0.6573(3)
H50_5 H 0.7649 0.0009 0.4218
C80_5 C 0.8514(5) 0.0006(5) 0.4225(3)
C83_6 C 0.5872(6) 0.3271(6) 0.6792(3)
C84_6 C 0.5881(5) 0.3386(5) 0.6349(3)
C85_5 C 0.8526(5) 0.0075(5) 0.3950(3)
H54_6 H 0.5996 0.3079 0.6934
C88_6 C 0.5486(5) 0.3680(6) 0.6813(3)
C89_6 C 0.5511(5) 0.3813(6) 0.6351(3)
H55_6 H 0.6000 0.3260 0.6198
C90_5 C 0.8121(6) 0.0374(7) 0.3819(3)
H58_6 H 0.5348 0.3767 0.6967
C93_6 C 0.5301(5) 0.3968(5) 0.6589(3)
H59_6 H 0.5399 0.3997 0.6205
H60_5 H 0.7854 0.0570 0.3901
C94_5 C 0.8111(7) 0.0382(7) 0.3558(3)
C97_6 C 0.4883(5) 0.4400(5) 0.6604(3)
H62_5 H 0.7811 0.0565 0.3470
C98_5 C 0.8499(6) 0.0146(7) 0.3427(3)
C99_5 C 0.8466(7) 0.0227(8) 0.3153(3)
O24_5 O 0.7994(7) 0.0248(8) 0.3039(3)
C102_5 C 0.8902(6) 0.0439(4) 0.26347(19)
C104_5 C 0.8969(5) 0.0435(3) 0.23788(18)
H66_5 H 0.8844 0.0760 0.2716
H68_5 H 0.8955 0.0753 0.2289
C53_6 C 0.8557(5) 0.9900(5) 0.5820(2)
H35_6 H 0.8270 0.9745 0.5908
C57_6 C 0.8484(5) 0.9833(5) 0.5562(2)
H37_6 H 0.8205 0.9603 0.5490
C70_6 C 0.8418(5) 0.9851(5) 0.5017(2)
C73_6 C 0.8478(4) 0.9883(5) 0.4736(2)
O23_6 O 0.7995(3) 0.9608(4) 0.50949(17)
C74_6 C 0.7967(5) 0.9940(5) 0.4582(2)
C75_6 C 0.9063(5) 0.9929(5) 0.4641(3)
H48_6 H 0.7613 0.9945 0.4653
C76_6 C 0.7987(5) 0.9988(5) 0.4322(2)
C77_6 C 0.9083(5) 0.9951(5) 0.4386(3)
H49_6 H 0.9395 0.9942 0.4749
H51_6 H 0.9433 0.9933 0.4313
C91_6 C 0.8943(5) 0.9816(5) 0.3804(2)
C95_6 C 0.8926(6) 0.9842(5) 0.3535(3)
H61_6 H 0.9238 0.9622 0.3889
H63_6 H 0.9190 0.9663 0.3443
N17_6 N 0.8901(6) 0.9979(6) 0.3041(3)
C100_6 C 0.8923(5) 0.9963(5) 0.27686(14)
H64_6 H 0.9172 0.9826 0.3133
C101_6 C 0.9010(6) 0.9483(4) 0.26467(19)
H65_6 H 0.9024 0.9165 0.2736
C103_6 C 0.9076(5) 0.9479(3) 0.23908(19)
H67_6 H 0.9135 0.9158 0.2309
N18_4 N 0.9056(3) 0.9955(3) 0.22568(14)
Zn14_4 Zn 0.91221(5) 0.99234(5) 0.18857(3)
Zn8_4 Zn 0.40307(5) 0.48453(5) 0.13300(2)
N10_7 N 0.3993(3) 0.4837(3) 0.09716(14)
O15_7 O 0.4650(3) 0.4291(3) 0.14260(16)
O16_7 O 0.3437(3) 0.4289(3) 0.14122(15)
O17_4 O 0.3443(3) 0.5427(4) 0.13820(16)
O18_4 O 0.4638(3) 0.5427(4) 0.13978(17)
C53_7 C 0.3557(5) 0.5100(5) 0.0820(2)
C54_7 C 0.4315(5) 0.4561(5) 0.0807(2)
C55_7 C 0.4825(4) 0.4129(5) 0.1639(2)
C56_7 C 0.3301(4) 0.4174(5) 0.1618(3)
H35_7 H 0.3270 0.5255 0.0908
C57_7 C 0.3484(5) 0.5167(5) 0.0562(2)
C58_7 C 0.4290(4) 0.4569(5) 0.0550(2)
H36_7 H 0.4593 0.4334 0.0882
C59_7 C 0.5230(5) 0.3682(5) 0.1660(2)
O19_7 O 0.4654(4) 0.4316(4) 0.18447(17)
C60_7 C 0.2849(5) 0.3745(6) 0.1645(2)
O20_7 O 0.3452(4) 0.4424(5) 0.18218(19)
O21_4 O 0.3648(5) 0.5543(5) 0.1793(2)
O22_4 O 0.4774(5) 0.5394(5) 0.1805(2)
H37_7 H 0.3205 0.5397 0.0490
C61_7 C 0.3816(7) 0.4899(6) 0.0426(3)
H38_7 H 0.4550 0.4382 0.0460
C62_7 C 0.5450(5) 0.3469(5) 0.1439(2)
C63_7 C 0.5416(6) 0.3452(6) 0.1888(3)
C64_7 C 0.2693(6) 0.3564(7) 0.1875(3)
C65_7 C 0.2592(5) 0.3491(5) 0.1440(3)
N11_7 N 0.3820(5) 0.4928(4) 0.0174(2)
C66_7 C 0.5852(6) 0.3059(6) 0.1455(3)
H39_7 H 0.5323 0.3607 0.1283
H40_7 H 0.5257 0.3576 0.2031
C67_7 C 0.5807(6) 0.3068(6) 0.1913(3)
C68_7 C 0.2328(7) 0.3198(7) 0.1886(3)
H41_7 H 0.2860 0.3714 0.2022
H42_7 H 0.2687 0.3605 0.1283
C69_7 C 0.2211(5) 0.3088(6) 0.1451(3)
C70_7 C 0.3418(5) 0.5149(5) 0.0017(2)
H43_7 H 0.4112 0.4789 0.0109
C71_7 C 0.6022(6) 0.2839(6) 0.1687(3)
H44_7 H 0.6007 0.2932 0.1311
H45_7 H 0.5942 0.2946 0.2071
C72_7 C 0.2069(6) 0.2939(6) 0.1688(3)
H46_7 H 0.2227 0.3097 0.2044
H47_7 H 0.2052 0.2920 0.1307
O23_7 O 0.2995(3) 0.5392(4) 0.00949(17)
N13_7 N 0.6458(6) 0.2432(6) 0.1709(3)
N14_7 N 0.1645(5) 0.2533(5) 0.1726(2)
N15_7 N 0.6677(6) 0.2312(6) 0.1535(3)
N16_7 N 0.1500(4) 0.2290(5) 0.1545(2)
C78_7 C 0.7103(6) 0.1927(6) 0.1559(3)
C79_7 C 0.1078(5) 0.1862(6) 0.1573(3)
C81_7 C 0.7317(6) 0.1701(6) 0.1353(3)
C82_7 C 0.7340(7) 0.1733(7) 0.1794(3)
C83_7 C 0.0872(6) 0.1729(6) 0.1792(3)
C84_7 C 0.0881(5) 0.1614(5) 0.1349(3)
H52_7 H 0.7186 0.1843 0.1199
C86_7 C 0.7688(5) 0.1306(6) 0.1348(3)
C87_7 C 0.7805(7) 0.1328(7) 0.1805(3)
H53_7 H 0.7202 0.1861 0.1941
H54_7 H 0.0996 0.1921 0.1934
C88_7 C 0.0486(5) 0.1320(6) 0.1813(3)
C89_7 C 0.0511(5) 0.1187(6) 0.1351(3)
H55_7 H 0.1000 0.1740 0.1198
H56_7 H 0.7799 0.1176 0.1196
C92_7 C 0.7912(5) 0.1082(6) 0.1572(2)
H57_7 H 0.8013 0.1238 0.1954
H58_7 H 0.0348 0.1233 0.1967
C93_7 C 0.0301(5) 0.1032(5) 0.1589(3)
H59_7 H 0.0399 0.1003 0.1205
C96_7 C 0.8328(5) 0.0639(5) 0.1584(3)
O25_4 O 0.8648(5) 0.0543(5) 0.1793(2)
O26_4 O 0.8443(3) 0.0427(4) 0.13820(16)
C73_7 C 0.3478(4) 0.5117(5) 0.9736(2)
C74_7 C 0.2967(5) 0.5060(5) 0.9582(2)
C75_7 C 0.4063(5) 0.5071(5) 0.9641(3)
H48_7 H 0.2613 0.5055 0.9653
C76_7 C 0.2987(5) 0.5012(5) 0.9322(2)
C77_7 C 0.4083(5) 0.5049(5) 0.9386(3)
H49_7 H 0.4395 0.5058 0.9749
H50_6 H 0.2649 0.4991 0.9218
C80_6 C 0.3514(5) 0.4994(5) 0.9225(3)
H51_7 H 0.4433 0.5067 0.9313
C85_6 C 0.3526(5) 0.4925(5) 0.8950(3)
C90_6 C 0.3121(6) 0.4626(7) 0.8819(3)
C91_7 C 0.3943(5) 0.5184(5) 0.8804(2)
H60_6 H 0.2854 0.4430 0.8901
C94_6 C 0.3111(7) 0.4618(7) 0.8558(3)
C95_7 C 0.3926(6) 0.5158(5) 0.8535(3)
H61_7 H 0.4238 0.5378 0.8889
H62_6 H 0.2811 0.4435 0.8470
C98_6 C 0.3499(6) 0.4854(7) 0.8427(3)
H63_7 H 0.4190 0.5337 0.8443
C99_6 C 0.3466(7) 0.4773(8) 0.8153(3)
N17_7 N 0.3901(6) 0.5021(6) 0.8041(3)
O24_6 O 0.2994(7) 0.4752(8) 0.8039(3)
C100_7 C 0.3923(5) 0.5037(5) 0.77686(14)
H64_7 H 0.4172 0.5174 0.8133
C101_7 C 0.4010(6) 0.5517(4) 0.76467(19)
C102_6 C 0.3902(6) 0.4561(4) 0.76347(19)
H65_7 H 0.4024 0.5835 0.7736
C103_7 C 0.4076(5) 0.5521(3) 0.73908(19)
C104_6 C 0.3969(5) 0.4565(3) 0.73788(18)
H66_6 H 0.3844 0.4240 0.7716
H67_7 H 0.4135 0.5842 0.7309
H68_6 H 0.3955 0.4247 0.7289
Zn11_2 Zn 0.90307(5) 0.98453(5) 0.13300(2)
C97_7 C 0.9883(5) 0.0600(5) 0.1604(3)
O27_4 O 0.9774(5) 0.0394(5) 0.1805(2)
O28_4 O 0.9638(3) 0.0427(4) 0.13978(17)
C59_8 C 0.0230(5) 0.8682(5) 0.1660(2)
C62_8 C 0.0450(5) 0.8469(5) 0.1439(2)
C63_8 C 0.0416(6) 0.8452(6) 0.1888(3)
C66_8 C 0.0852(6) 0.8059(6) 0.1455(3)
H39_8 H 0.0323 0.8607 0.1283
H40_8 H 0.0257 0.8576 0.2031
C67_8 C 0.0807(6) 0.8068(6) 0.1913(3)
C71_8 C 0.1022(6) 0.7839(6) 0.1687(3)
H44_8 H 0.1007 0.7932 0.1311
H45_8 H 0.0942 0.7946 0.2071
N13_8 N 0.1458(6) 0.7432(6) 0.1709(3)
N15_8 N 0.1677(6) 0.7312(6) 0.1535(3)
C78_8 C 0.2103(6) 0.6927(6) 0.1559(3)
C81_8 C 0.2317(6) 0.6701(6) 0.1353(3)
C82_8 C 0.2340(7) 0.6733(7) 0.1794(3)
H52_8 H 0.2186 0.6843 0.1199
C86_8 C 0.2688(5) 0.6306(6) 0.1348(3)
C87_8 C 0.2805(7) 0.6328(7) 0.1805(3)
H53_8 H 0.2202 0.6861 0.1941
H56_8 H 0.2799 0.6176 0.1196
C92_8 C 0.2912(5) 0.6082(6) 0.1572(2)
H57_8 H 0.3013 0.6238 0.1954
C96_8 C 0.3328(5) 0.5639(5) 0.1584(3)
C53_8 C 0.8557(5) 0.0100(5) 0.0820(2)
H35_8 H 0.8270 0.0255 0.0908
C57_8 C 0.8484(5) 0.0167(5) 0.0562(2)
H37_8 H 0.8205 0.0397 0.0490
C70_8 C 0.8418(5) 0.0149(5) 0.0017(2)
O23_8 O 0.7995(3) 0.0392(4) 0.00949(17)
C73_8 C 0.8478(4) 0.0117(5) 0.9736(2)
C74_8 C 0.7967(5) 0.0060(5) 0.9582(2)
C75_8 C 0.9063(5) 0.0071(5) 0.9641(3)
H48_8 H 0.7613 0.0055 0.9653
C76_8 C 0.7987(5) 0.0012(5) 0.9322(2)
C77_8 C 0.9083(5) 0.0049(5) 0.9386(3)
H49_8 H 0.9395 0.0058 0.9749
H51_8 H 0.9433 0.0067 0.9313
C91_8 C 0.8943(5) 0.0184(5) 0.8804(2)
C95_8 C 0.8926(6) 0.0158(5) 0.8535(3)
H61_8 H 0.9238 0.0378 0.8889
H63_8 H 0.9190 0.0337 0.8443
N17_8 N 0.8901(6) 0.0021(6) 0.8041(3)
C100_8 C 0.8923(5) 0.0037(5) 0.77686(14)
H64_8 H 0.9172 0.0174 0.8133
C101_8 C 0.9010(6) 0.0517(4) 0.76467(19)
H65_8 H 0.9024 0.0835 0.7736
C103_8 C 0.9076(5) 0.0521(3) 0.73908(19)
H67_8 H 0.9135 0.0842 0.7309
N10_8 N 0.8993(3) 0.9837(3) 0.09716(14)
O15_8 O 0.9650(3) 0.9291(3) 0.14260(16)
O16_8 O 0.8437(3) 0.9289(3) 0.14122(15)
C54_8 C 0.9315(5) 0.9561(5) 0.0807(2)
C55_8 C 0.9825(4) 0.9129(5) 0.1639(2)
C56_8 C 0.8301(4) 0.9174(5) 0.1618(3)
C58_8 C 0.9290(4) 0.9569(5) 0.0550(2)
H36_8 H 0.9593 0.9334 0.0882
O19_8 O 0.9654(4) 0.9316(4) 0.18447(17)
C60_8 C 0.7849(5) 0.8745(6) 0.1645(2)
O20_8 O 0.8452(4) 0.9424(5) 0.18218(19)
C61_8 C 0.8816(7) 0.9899(6) 0.0426(3)
H38_8 H 0.9550 0.9382 0.0460
C64_8 C 0.7693(6) 0.8564(7) 0.1875(3)
C65_8 C 0.7592(5) 0.8491(5) 0.1440(3)
N11_8 N 0.8820(5) 0.9928(4) 0.0174(2)
C68_8 C 0.7328(7) 0.8198(7) 0.1886(3)
H41_8 H 0.7860 0.8714 0.2022
H42_8 H 0.7687 0.8605 0.1283
C69_8 C 0.7211(5) 0.8088(6) 0.1451(3)
H43_8 H 0.9112 0.9789 0.0109
C72_8 C 0.7069(6) 0.7939(6) 0.1688(3)
H46_8 H 0.7227 0.8097 0.2044
H47_8 H 0.7052 0.7920 0.1307
N14_8 N 0.6645(5) 0.7533(5) 0.1726(2)
N16_8 N 0.6500(4) 0.7290(5) 0.1545(2)
C79_8 C 0.6078(5) 0.6862(6) 0.1573(3)
C83_8 C 0.5872(6) 0.6729(6) 0.1792(3)
C84_8 C 0.5881(5) 0.6614(5) 0.1349(3)
H54_8 H 0.5996 0.6921 0.1934
C88_8 C 0.5486(5) 0.6320(6) 0.1813(3)
C89_8 C 0.5511(5) 0.6187(6) 0.1351(3)
H55_8 H 0.6000 0.6740 0.1198
H58_8 H 0.5348 0.6233 0.1967
C93_8 C 0.5301(5) 0.6032(5) 0.1589(3)
H59_8 H 0.5399 0.6003 0.1205
C97_8 C 0.4883(5) 0.5600(5) 0.1604(3)
H50_7 H 0.2351 0.0009 0.0782
C80_7 C 0.1486(5) 0.0006(5) 0.0775(3)
C85_7 C 0.1474(5) 0.0075(5) 0.1050(3)
C90_7 C 0.1879(6) 0.0374(7) 0.1181(3)
H60_7 H 0.2146 0.0570 0.1099
C94_7 C 0.1889(7) 0.0382(7) 0.1442(3)
H62_7 H 0.2189 0.0565 0.1530
C98_7 C 0.1501(6) 0.0146(7) 0.1573(3)
C99_7 C 0.1534(7) 0.0227(8) 0.1847(3)
O24_7 O 0.2006(7) 0.0248(8) 0.1961(3)
C102_7 C 0.1098(6) 0.0439(4) 0.23653(19)
C104_7 C 0.1031(5) 0.0435(3) 0.26212(18)
H66_7 H 0.1156 0.0760 0.2284
H68_7 H 0.1045 0.0753 0.2711
H50_8 H 0.7649 0.9991 0.9218
C80_8 C 0.8514(5) 0.9994(5) 0.9225(3)
C85_8 C 0.8526(5) 0.9925(5) 0.8950(3)
C90_8 C 0.8121(6) 0.9626(7) 0.8819(3)
H60_8 H 0.7854 0.9430 0.8901
C94_8 C 0.8111(7) 0.9618(7) 0.8558(3)
H62_8 H 0.7811 0.9435 0.8470
C98_8 C 0.8499(6) 0.9854(7) 0.8427(3)
C99_8 C 0.8466(7) 0.9773(8) 0.8153(3)
O24_8 O 0.7994(7) 0.9752(8) 0.8039(3)
C102_8 C 0.8902(6) 0.9561(4) 0.76347(19)
C104_8 C 0.8969(5) 0.9565(3) 0.73788(18)
H66_8 H 0.8844 0.9240 0.7716
H68_8 H 0.8955 0.9247 0.7289
loop_
_geom_bond_atom_site_label_1
_geom_bond_atom_site_label_2
_geom_bond_site_symmetry_1
_geom_bond_site_symmetry_2
C2 C1 1_555 1_555
H2 C2 1_555 1_555
C3 C2 1_555 1_555
C4 C3 1_555 1_555
H3 C4 1_555 1_555
C5 C4 1_555 1_555
C6 C7 1_555 1_555
C7 C8 1_555 1_555
C8 H5 1_555 1_555
C9 C8 1_555 1_555
H6 C9 1_555 1_555
C10 C9 1_555 1_555
C11 C10 1_555 1_555
H7 C11 1_555 1_555
C12 C7 1_555 1_555
H8 C12 1_555 1_555
C13 C10 1_555 1_555
C14 C13 1_555 1_555
H9 C14 1_555 1_555
C15 C14 1_555 1_555
H10 C15 1_555 1_555
C16 C15 1_555 1_555
C17 C16 1_555 1_555
H11 C17 1_555 1_555
C18 C13 1_555 1_555
H12 C18 1_555 1_555
C19 C16 1_555 1_555
C20 H13 1_555 1_555
C21 C20 1_555 1_555
H14 C21 1_555 1_555
C22 C21 1_555 1_555
C23 C22 1_555 1_555
H15 C23 1_555 1_555
C24 C23 1_555 1_555
H16 C24 1_555 1_555
N1 C20 1_555 1_555
N3 C3 1_555 1_555
H33 N3 1_555 1_555
N4 C19 1_555 1_555
H34 N4 1_555 1_555
O1 C6 1_555 1_555
O2 C19 1_555 1_555
Zn7 N1 1_555 1_555
C6 N3 1_555 1_555
C11 C12 1_555 1_555
C17 C18 1_555 1_555
C22 N4 1_555 1_555
C24 N1 1_555 1_555
C25 C26 1_555 1_555
C26 C27 1_555 1_555
C27 H17 1_555 1_555
C28 C27 1_555 1_555
H18 C28 1_555 1_555
C29 C28 1_555 1_555
C30 C29 1_555 1_555
H19 C30 1_555 1_555
C31 C26 1_555 1_555
H20 C31 1_555 1_555
C32 C33 1_555 1_555
C33 H21 1_555 1_555
C34 C33 1_555 1_555
H22 C34 1_555 1_555
C35 C34 1_555 1_555
C36 C35 1_555 1_555
H23 C36 1_555 1_555
C37 C32 1_555 1_555
H24 C37 1_555 1_555
C38 C35 1_555 1_555
C39 C40 1_555 1_555
C40 C41 1_555 1_555
C41 H25 1_555 1_555
C42 C41 1_555 1_555
H26 C42 1_555 1_555
C43 C42 1_555 1_555
C44 C43 1_555 1_555
H27 C44 1_555 1_555
C45 C40 1_555 1_555
H28 C45 1_555 1_555
C46 C47 1_555 1_555
C47 H29 1_555 1_555
C48 C47 1_555 1_555
H30 C48 1_555 1_555
C49 C48 1_555 1_555
C50 C49 1_555 1_555
H31 C50 1_555 1_555
C51 C46 1_555 1_555
H32 C51 1_555 1_555
C52 C49 1_555 1_555
N5 C29 1_555 1_555
N6 C32 1_555 1_555
N7 C43 1_555 1_555
N8 C46 1_555 1_555
O3 C25 1_555 1_555
O4 C25 1_555 1_555
O5 C38 1_555 1_555
O6 C38 1_555 1_555
O7 C39 1_555 1_555
O8 C39 1_555 1_555
O9 C52 1_555 1_555
O10 C52 1_555 1_555
Zn1 N2 1_555 1_555
Zn2 O3 1_555 1_555
N9 Zn2 1_555 1_555
O11 Zn2 1_555 1_555
O12 Zn1 1_555 1_555
O13 Zn2 1_555 1_555
O14 Zn1 1_555 1_555
Zn4 O10 1_555 1_555
Zn6 O9 1_555 1_555
C30 C31 1_555 1_555
C36 C37 1_555 1_555
C44 C45 1_555 1_555
C50 C51 1_555 1_555
N5 N6 1_555 1_555
N7 N8 1_555 1_555
O4 Zn1 1_555 1_555
O7 Zn2 1_555 1_555
O8 Zn1 1_555 1_555
O11 C38_2 1_555 1_555
O12 C38_2 1_555 1_555
O13 C52_2 1_555 1_555
O14 C52_2 1_555 1_555
C25_2 C26_2 1_555 1_555
C26_2 C27_2 1_555 1_555
C27_2 H17_2 1_555 1_555
C28_2 C27_2 1_555 1_555
H18_2 C28_2 1_555 1_555
C29_2 C28_2 1_555 1_555
C30_2 C29_2 1_555 1_555
H19_2 C30_2 1_555 1_555
C31_2 C26_2 1_555 1_555
H20_2 C31_2 1_555 1_555
C32_2 C33_2 1_555 1_555
C33_2 H21_2 1_555 1_555
C34_2 C33_2 1_555 1_555
H22_2 C34_2 1_555 1_555
C35_2 C34_2 1_555 1_555
C36_2 C35_2 1_555 1_555
H23_2 C36_2 1_555 1_555
C37_2 C32_2 1_555 1_555
H24_2 C37_2 1_555 1_555
N5_2 C29_2 1_555 1_555
N6_2 C32_2 1_555 1_555
O3_2 C25_2 1_555 1_555
O4_2 C25_2 1_555 1_555
Zn4 N2_2 1_555 1_555
Zn6 O3_2 1_555 1_555
N9_2 Zn6 1_555 1_555
C30_2 C31_2 1_555 1_555
C36_2 C37_2 1_555 1_555
N5_2 N6_2 1_555 1_555
O4_2 Zn4 1_555 1_555
C2_2 C1_2 1_555 1_555
H2_2 C2_2 1_555 1_555
C9_2 C8_2 1_555 1_555
H6_2 C9_2 1_555 1_555
C10_2 C9_2 1_555 1_555
C11_2 C10_2 1_555 1_555
H7_2 C11_2 1_555 1_555
C13_2 C10_2 1_555 1_555
C14_2 C13_2 1_555 1_555
H9_2 C14_2 1_555 1_555
C15_2 C14_2 1_555 1_555
H10_2 C15_2 1_555 1_555
C16_2 C15_2 1_555 1_555
C17_2 C16_2 1_555 1_555
C18_2 C13_2 1_555 1_555
C19_2 C16_2 1_555 1_555
C20_2 H13_2 1_555 1_555
C21_2 C20_2 1_555 1_555
H14_2 C21_2 1_555 1_555
C22_2 C21_2 1_555 1_555
N1_2 C20_2 1_555 1_555
N4_2 C19_2 1_555 1_555
O2_2 C19_2 1_555 1_555
Zn7_2 N1_2 1_555 1_555
C11_2 C12_2 1_555 1_555
C17_2 C18_2 1_555 1_555
C22_2 N4_2 1_555 1_555
C39_2 C40_2 1_555 1_555
C40_2 C41_2 1_555 1_555
C41_2 H25_2 1_555 1_555
C42_2 C41_2 1_555 1_555
H26_2 C42_2 1_555 1_555
C43_2 C42_2 1_555 1_555
C44_2 C43_2 1_555 1_555
H27_2 C44_2 1_555 1_555
C45_2 C40_2 1_555 1_555
H28_2 C45_2 1_555 1_555
C46_2 C47_2 1_555 1_555
C47_2 H29_2 1_555 1_555
C48_2 C47_2 1_555 1_555
H30_2 C48_2 1_555 1_555
C49_2 C48_2 1_555 1_555
C50_2 C49_2 1_555 1_555
H31_2 C50_2 1_555 1_555
C51_2 C46_2 1_555 1_555
H32_2 C51_2 1_555 1_555
N7_2 C43_2 1_555 1_555
N8_2 C46_2 1_555 1_555
O7_2 C39_2 1_555 1_555
O8_2 C39_2 1_555 1_555
C44_2 C45_2 1_555 1_555
C50_2 C51_2 1_555 1_555
N7_2 N8_2 1_555 1_555
C1_3 H1_3 1_555 1_555
C2_3 C1_3 1_555 1_555
H2_3 C2_3 1_555 1_555
C3_2 C2_3 1_555 1_555
C4_2 C3_2 1_555 1_555
H3_2 C4_2 1_555 1_555
C5_2 C4_2 1_555 1_555
H4_3 C5_2 1_555 1_555
C6_2 C7_2 1_555 1_555
C7_2 C8_3 1_555 1_555
C8_3 H5_2 1_555 1_555
C9_3 C8_3 1_555 1_555
H6_3 C9_3 1_555 1_555
C10_3 C9_3 1_555 1_555
C11_3 C10_3 1_555 1_555
H7_3 C11_3 1_555 1_555
C12_3 C7_2 1_555 1_555
H8_2 C12_3 1_555 1_555
C13_3 C10_3 1_555 1_555
C14_3 C13_3 1_555 1_555
H9_3 C14_3 1_555 1_555
C15_3 C14_3 1_555 1_555
H10_3 C15_3 1_555 1_555
C16_3 C15_3 1_555 1_555
C17_3 C16_3 1_555 1_555
H11_2 C17_3 1_555 1_555
C18_3 C13_3 1_555 1_555
H12_2 C18_3 1_555 1_555
C19_3 C16_3 1_555 1_555
C20_3 H13_3 1_555 1_555
C21_3 C20_3 1_555 1_555
H14_3 C21_3 1_555 1_555
C22_3 C21_3 1_555 1_555
C23_2 C22_3 1_555 1_555
H15_2 C23_2 1_555 1_555
C24_2 C23_2 1_555 1_555
H16_2 C24_2 1_555 1_555
N9 C20_3 1_555 1_555
C25_3 C26_3 1_555 1_555
C26_3 C27_3 1_555 1_555
C27_3 H17_3 1_555 1_555
C28_3 C27_3 1_555 1_555
H18_3 C28_3 1_555 1_555
C29_3 C28_3 1_555 1_555
C30_3 C29_3 1_555 1_555
H19_3 C30_3 1_555 1_555
C31_3 C26_3 1_555 1_555
H20_3 C31_3 1_555 1_555
C32_3 C33_3 1_555 1_555
C33_3 H21_3 1_555 1_555
C34_3 C33_3 1_555 1_555
H22_3 C34_3 1_555 1_555
C35_3 C34_3 1_555 1_555
C36_3 C35_3 1_555 1_555
H23_3 C36_3 1_555 1_555
C37_3 C32_3 1_555 1_555
H24_3 C37_3 1_555 1_555
C38_3 C35_3 1_555 1_555
C39_3 C40_3 1_555 1_555
C40_3 C41_3 1_555 1_555
C41_3 H25_3 1_555 1_555
C42_3 C41_3 1_555 1_555
H26_3 C42_3 1_555 1_555
C43_3 C42_3 1_555 1_555
C44_3 C43_3 1_555 1_555
H27_3 C44_3 1_555 1_555
C45_3 C40_3 1_555 1_555
H28_3 C45_3 1_555 1_555
C46_3 C47_3 1_555 1_555
C47_3 H29_3 1_555 1_555
C48_3 C47_3 1_555 1_555
H30_3 C48_3 1_555 1_555
C49_3 C48_3 1_555 1_555
C50_3 C49_3 1_555 1_555
H31_3 C50_3 1_555 1_555
C51_3 C46_3 1_555 1_555
H32_3 C51_3 1_555 1_555
C52_3 C49_3 1_555 1_555
N2_3 C1_3 1_555 1_555
N3_2 C3_2 1_555 1_555
H33_3 N3_2 1_555 1_555
N4_3 C19_3 1_555 1_555
H34_2 N4_3 1_555 1_555
N5_3 C29_3 1_555 1_555
N6_3 C32_3 1_555 1_555
N7_3 C43_3 1_555 1_555
N8_3 C46_3 1_555 1_555
O1_2 C6_2 1_555 1_555
O2_3 C19_3 1_555 1_555
O3_3 C25_3 1_555 1_555
O4_3 C25_3 1_555 1_555
O5_2 C38_3 1_555 1_555
O6_2 C38_3 1_555 1_555
O7_3 C39_3 1_555 1_555
O8_3 C39_3 1_555 1_555
O9_2 C52_3 1_555 1_555
O10_2 C52_3 1_555 1_555
Zn1_2 N2_3 1_555 1_555
Zn7 O3_3 1_555 1_555
O11_2 Zn7 1_555 1_555
O12_2 Zn1_2 1_555 1_555
O13_2 Zn7 1_555 1_555
O14_2 Zn1_2 1_555 1_555
Zn3 O10_2 1_555 1_555
Zn7_2 O9_2 1_555 1_555
C5_2 N2_3 1_555 1_555
C6_2 N3_2 1_555 1_555
C11_3 C12_3 1_555 1_555
C17_3 C18_3 1_555 1_555
C22_3 N4_3 1_555 1_555
C24_2 N9 1_555 1_555
C30_3 C31_3 1_555 1_555
C36_3 C37_3 1_555 1_555
C44_3 C45_3 1_555 1_555
C50_3 C51_3 1_555 1_555
N5_3 N6_3 1_555 1_555
N7_3 N8_3 1_555 1_555
O4_3 Zn1_2 1_555 1_555
O7_3 Zn7 1_555 1_555
O8_3 Zn1_2 1_555 1_555
O13_2 C52_4 1_555 1_555
O14_2 C52_4 1_555 1_555
O11_2 C38_4 1_555 1_555
O12_2 C38_4 1_555 1_555
C1_4 H1_4 1_555 1_555
C2_4 C1_4 1_555 1_555
H2_4 C2_4 1_555 1_555
C9_4 C8_4 1_555 1_555
H6_4 C9_4 1_555 1_555
C10_4 C9_4 1_555 1_555
C11_4 C10_4 1_555 1_555
H7_4 C11_4 1_555 1_555
C13_4 C10_4 1_555 1_555
C14_4 C13_4 1_555 1_555
H9_4 C14_4 1_555 1_555
C15_4 C14_4 1_555 1_555
H10_4 C15_4 1_555 1_555
C16_4 C15_4 1_555 1_555
C17_4 C16_4 1_555 1_555
C18_4 C13_4 1_555 1_555
C19_4 C16_4 1_555 1_555
C20_4 H13_4 1_555 1_555
C21_4 C20_4 1_555 1_555
H14_4 C21_4 1_555 1_555
C22_4 C21_4 1_555 1_555
N9_2 C20_4 1_555 1_555
C39_4 C40_4 1_555 1_555
C40_4 C41_4 1_555 1_555
C41_4 H25_4 1_555 1_555
C42_4 C41_4 1_555 1_555
H26_4 C42_4 1_555 1_555
C43_4 C42_4 1_555 1_555
C44_4 C43_4 1_555 1_555
H27_4 C44_4 1_555 1_555
C45_4 C40_4 1_555 1_555
H28_4 C45_4 1_555 1_555
C46_4 C47_4 1_555 1_555
C47_4 H29_4 1_555 1_555
C48_4 C47_4 1_555 1_555
H30_4 C48_4 1_555 1_555
C49_4 C48_4 1_555 1_555
C50_4 C49_4 1_555 1_555
H31_4 C50_4 1_555 1_555
C51_4 C46_4 1_555 1_555
H32_4 C51_4 1_555 1_555
N4_4 C19_4 1_555 1_555
N7_4 C43_4 1_555 1_555
N8_4 C46_4 1_555 1_555
O2_4 C19_4 1_555 1_555
O7_4 C39_4 1_555 1_555
O8_4 C39_4 1_555 1_555
C11_4 C12_4 1_555 1_555
C17_4 C18_4 1_555 1_555
C22_4 N4_4 1_555 1_555
C44_4 C45_4 1_555 1_555
C50_4 C51_4 1_555 1_555
N7_4 N8_4 1_555 1_555
C4_3 C3_3 1_555 1_555
H3_3 C4_3 1_555 1_555
C5_3 C4_3 1_555 1_555
H4_4 C5_3 1_555 1_555
C6_3 C7_3 1_555 1_555
H15_3 C23_3 1_555 1_555
C24_3 C23_3 1_555 1_555
H16_3 C24_3 1_555 1_555
C25_4 C26_4 1_555 1_555
C26_4 C27_4 1_555 1_555
C27_4 H17_4 1_555 1_555
C28_4 C27_4 1_555 1_555
H18_4 C28_4 1_555 1_555
C29_4 C28_4 1_555 1_555
C30_4 C29_4 1_555 1_555
H19_4 C30_4 1_555 1_555
C31_4 C26_4 1_555 1_555
H20_4 C31_4 1_555 1_555
C32_4 C33_4 1_555 1_555
C33_4 H21_4 1_555 1_555
C34_4 C33_4 1_555 1_555
H22_4 C34_4 1_555 1_555
C35_4 C34_4 1_555 1_555
C36_4 C35_4 1_555 1_555
H23_4 C36_4 1_555 1_555
C37_4 C32_4 1_555 1_555
H24_4 C37_4 1_555 1_555
N3_3 C3_3 1_555 1_555
N5_4 C29_4 1_555 1_555
N6_4 C32_4 1_555 1_555
O1_3 C6_3 1_555 1_555
O3_4 C25_4 1_555 1_555
O4_4 C25_4 1_555 1_555
Zn3 N2_4 1_555 1_555
Zn7_2 O3_4 1_555 1_555
C5_3 N2_4 1_555 1_555
C6_3 N3_3 1_555 1_555
C30_4 C31_4 1_555 1_555
C36_4 C37_4 1_555 1_555
N5_4 N6_4 1_555 1_555
O4_4 Zn3 1_555 1_555
C1_5 H1_5 1_555 1_555
C2_5 C1_5 1_555 1_555
H2_5 C2_5 1_555 1_555
C3_4 C2_5 1_555 1_555
C4_4 C3_4 1_555 1_555
H3_4 C4_4 1_555 1_555
C5_4 C4_4 1_555 1_555
H4_5 C5_4 1_555 1_555
C6_4 C7_4 1_555 1_555
C7_4 C8_5 1_555 1_555
C8_5 H5_4 1_555 1_555
C9_5 C8_5 1_555 1_555
H6_5 C9_5 1_555 1_555
C10_5 C9_5 1_555 1_555
C11_5 C10_5 1_555 1_555
H7_5 C11_5 1_555 1_555
C12_5 C7_4 1_555 1_555
H8_4 C12_5 1_555 1_555
C13_5 C10_5 1_555 1_555
C14_5 C13_5 1_555 1_555
H9_5 C14_5 1_555 1_555
C15_5 C14_5 1_555 1_555
H10_5 C15_5 1_555 1_555
C16_5 C15_5 1_555 1_555
C17_5 C16_5 1_555 1_555
H11_4 C17_5 1_555 1_555
C18_5 C13_5 1_555 1_555
H12_4 C18_5 1_555 1_555
C19_5 C16_5 1_555 1_555
C20_5 H13_5 1_555 1_555
C21_5 C20_5 1_555 1_555
H14_5 C21_5 1_555 1_555
C22_5 C21_5 1_555 1_555
C23_4 C22_5 1_555 1_555
H15_4 C23_4 1_555 1_555
C24_4 C23_4 1_555 1_555
H16_4 C24_4 1_555 1_555
N1_3 C20_5 1_555 1_555
C25_5 C26_5 1_555 1_555
C26_5 C27_5 1_555 1_555
C27_5 H17_5 1_555 1_555
C28_5 C27_5 1_555 1_555
H18_5 C28_5 1_555 1_555
C29_5 C28_5 1_555 1_555
C30_5 C29_5 1_555 1_555
H19_5 C30_5 1_555 1_555
C31_5 C26_5 1_555 1_555
H20_5 C31_5 1_555 1_555
C32_5 C33_5 1_555 1_555
C33_5 H21_5 1_555 1_555
C34_5 C33_5 1_555 1_555
H22_5 C34_5 1_555 1_555
C35_5 C34_5 1_555 1_555
C36_5 C35_5 1_555 1_555
H23_5 C36_5 1_555 1_555
C37_5 C32_5 1_555 1_555
H24_5 C37_5 1_555 1_555
C38_5 C35_5 1_555 1_555
C39_5 C40_5 1_555 1_555
C40_5 C41_5 1_555 1_555
C41_5 H25_5 1_555 1_555
C42_5 C41_5 1_555 1_555
H26_5 C42_5 1_555 1_555
C43_5 C42_5 1_555 1_555
C44_5 C43_5 1_555 1_555
H27_5 C44_5 1_555 1_555
C45_5 C40_5 1_555 1_555
H28_5 C45_5 1_555 1_555
C46_5 C47_5 1_555 1_555
C47_5 H29_5 1_555 1_555
C48_5 C47_5 1_555 1_555
H30_5 C48_5 1_555 1_555
C49_5 C48_5 1_555 1_555
C50_5 C49_5 1_555 1_555
H31_5 C50_5 1_555 1_555
C51_5 C46_5 1_555 1_555
H32_5 C51_5 1_555 1_555
C52_5 C49_5 1_555 1_555
N2_5 C1_5 1_555 1_555
N3_4 C3_4 1_555 1_555
H33_5 N3_4 1_555 1_555
N4_5 C19_5 1_555 1_555
H34_4 N4_5 1_555 1_555
N5_5 C29_5 1_555 1_555
N6_5 C32_5 1_555 1_555
N7_5 C43_5 1_555 1_555
N8_5 C46_5 1_555 1_555
O1_4 C6_4 1_555 1_555
O2_5 C19_5 1_555 1_555
O3_5 C25_5 1_555 1_555
O4_5 C25_5 1_555 1_555
O5_3 C38_5 1_555 1_555
O6_3 C38_5 1_555 1_555
O7_5 C39_5 1_555 1_555
O8_5 C39_5 1_555 1_555
O9_3 C52_5 1_555 1_555
O10_3 C52_5 1_555 1_555
Zn1_3 N2_5 1_555 1_555
Zn2_2 O3_5 1_555 1_555
N9_3 Zn2_2 1_555 1_555
O11_3 Zn2_2 1_555 1_555
O12_3 Zn1_3 1_555 1_555
O13_3 Zn2_2 1_555 1_555
O14_3 Zn1_3 1_555 1_555
Zn4_2 O10_3 1_555 1_555
Zn6_2 O9_3 1_555 1_555
Zn7_3 N1_3 1_555 1_555
C5_4 N2_5 1_555 1_555
C6_4 N3_4 1_555 1_555
C11_5 C12_5 1_555 1_555
C17_5 C18_5 1_555 1_555
C22_5 N4_5 1_555 1_555
C24_4 N1_3 1_555 1_555
C30_5 C31_5 1_555 1_555
C36_5 C37_5 1_555 1_555
C44_5 C45_5 1_555 1_555
C50_5 C51_5 1_555 1_555
N5_5 N6_5 1_555 1_555
N7_5 N8_5 1_555 1_555
O4_5 Zn1_3 1_555 1_555
O7_5 Zn2_2 1_555 1_555
O8_5 Zn1_3 1_555 1_555
C4_5 C3_5 1_555 1_555
H3_5 C4_5 1_555 1_555
C5_5 C4_5 1_555 1_555
H4_6 C5_5 1_555 1_555
C6_5 C7_5 1_555 1_555
H15_5 C23_5 1_555 1_555
C24_5 C23_5 1_555 1_555
H16_5 C24_5 1_555 1_555
C25_6 C26_6 1_555 1_555
C26_6 C27_6 1_555 1_555
C27_6 H17_6 1_555 1_555
C28_6 C27_6 1_555 1_555
H18_6 C28_6 1_555 1_555
C29_6 C28_6 1_555 1_555
C30_6 C29_6 1_555 1_555
H19_6 C30_6 1_555 1_555
C31_6 C26_6 1_555 1_555
H20_6 C31_6 1_555 1_555
C32_6 C33_6 1_555 1_555
C33_6 H21_6 1_555 1_555
C34_6 C33_6 1_555 1_555
H22_6 C34_6 1_555 1_555
C35_6 C34_6 1_555 1_555
C36_6 C35_6 1_555 1_555
H23_6 C36_6 1_555 1_555
C37_6 C32_6 1_555 1_555
H24_6 C37_6 1_555 1_555
N3_5 C3_5 1_555 1_555
N5_6 C29_6 1_555 1_555
N6_6 C32_6 1_555 1_555
O1_5 C6_5 1_555 1_555
O3_6 C25_6 1_555 1_555
O4_6 C25_6 1_555 1_555
Zn4_2 N2_6 1_555 1_555
Zn6_2 O3_6 1_555 1_555
N9_4 Zn6_2 1_555 1_555
C5_5 N2_6 1_555 1_555
C6_5 N3_5 1_555 1_555
C30_6 C31_6 1_555 1_555
C36_6 C37_6 1_555 1_555
N5_6 N6_6 1_555 1_555
O4_6 Zn4_2 1_555 1_555
C1_6 H1_6 1_555 1_555
C2_6 C1_6 1_555 1_555
H2_6 C2_6 1_555 1_555
C9_6 C8_6 1_555 1_555
H6_6 C9_6 1_555 1_555
C10_6 C9_6 1_555 1_555
C11_6 C10_6 1_555 1_555
H7_6 C11_6 1_555 1_555
C13_6 C10_6 1_555 1_555
C14_6 C13_6 1_555 1_555
H9_6 C14_6 1_555 1_555
C15_6 C14_6 1_555 1_555
H10_6 C15_6 1_555 1_555
C16_6 C15_6 1_555 1_555
C17_6 C16_6 1_555 1_555
C18_6 C13_6 1_555 1_555
C19_6 C16_6 1_555 1_555
C20_6 H13_6 1_555 1_555
C21_6 C20_6 1_555 1_555
H14_6 C21_6 1_555 1_555
C22_6 C21_6 1_555 1_555
N1_4 C20_6 1_555 1_555
C39_6 C40_6 1_555 1_555
C40_6 C41_6 1_555 1_555
C41_6 H25_6 1_555 1_555
C42_6 C41_6 1_555 1_555
H26_6 C42_6 1_555 1_555
C43_6 C42_6 1_555 1_555
C44_6 C43_6 1_555 1_555
H27_6 C44_6 1_555 1_555
C45_6 C40_6 1_555 1_555
H28_6 C45_6 1_555 1_555
C46_6 C47_6 1_555 1_555
C47_6 H29_6 1_555 1_555
C48_6 C47_6 1_555 1_555
H30_6 C48_6 1_555 1_555
C49_6 C48_6 1_555 1_555
C50_6 C49_6 1_555 1_555
H31_6 C50_6 1_555 1_555
C51_6 C46_6 1_555 1_555
H32_6 C51_6 1_555 1_555
N4_6 C19_6 1_555 1_555
N7_6 C43_6 1_555 1_555
N8_6 C46_6 1_555 1_555
O2_6 C19_6 1_555 1_555
O7_6 C39_6 1_555 1_555
O8_6 C39_6 1_555 1_555
Zn7_4 N1_4 1_555 1_555
C11_6 C12_6 1_555 1_555
C17_6 C18_6 1_555 1_555
C22_6 N4_6 1_555 1_555
C44_6 C45_6 1_555 1_555
C50_6 C51_6 1_555 1_555
N7_6 N8_6 1_555 1_555
O11_3 C38_6 1_555 1_555
O12_3 C38_6 1_555 1_555
O13_3 C52_6 1_555 1_555
O14_3 C52_6 1_555 1_555
C25_7 C26_7 1_555 1_555
C26_7 C27_7 1_555 1_555
C27_7 H17_7 1_555 1_555
C28_7 C27_7 1_555 1_555
H18_7 C28_7 1_555 1_555
C29_7 C28_7 1_555 1_555
C30_7 C29_7 1_555 1_555
H19_7 C30_7 1_555 1_555
C31_7 C26_7 1_555 1_555
H20_7 C31_7 1_555 1_555
C32_7 C33_7 1_555 1_555
C33_7 H21_7 1_555 1_555
C34_7 C33_7 1_555 1_555
H22_7 C34_7 1_555 1_555
C35_7 C34_7 1_555 1_555
C36_7 C35_7 1_555 1_555
H23_7 C36_7 1_555 1_555
C37_7 C32_7 1_555 1_555
H24_7 C37_7 1_555 1_555
C38_7 C35_7 1_555 1_555
C39_7 C40_7 1_555 1_555
C40_7 C41_7 1_555 1_555
C41_7 H25_7 1_555 1_555
C42_7 C41_7 1_555 1_555
H26_7 C42_7 1_555 1_555
C43_7 C42_7 1_555 1_555
C44_7 C43_7 1_555 1_555
H27_7 C44_7 1_555 1_555
C45_7 C40_7 1_555 1_555
H28_7 C45_7 1_555 1_555
C46_7 C47_7 1_555 1_555
C47_7 H29_7 1_555 1_555
C48_7 C47_7 1_555 1_555
H30_7 C48_7 1_555 1_555
C49_7 C48_7 1_555 1_555
C50_7 C49_7 1_555 1_555
H31_7 C50_7 1_555 1_555
C51_7 C46_7 1_555 1_555
H32_7 C51_7 1_555 1_555
C52_7 C49_7 1_555 1_555
N5_7 C29_7 1_555 1_555
N6_7 C32_7 1_555 1_555
N7_7 C43_7 1_555 1_555
N8_7 C46_7 1_555 1_555
O3_7 C25_7 1_555 1_555
O4_7 C25_7 1_555 1_555
O5_4 C38_7 1_555 1_555
O6_4 C38_7 1_555 1_555
O7_7 C39_7 1_555 1_555
O8_7 C39_7 1_555 1_555
O9_4 C52_7 1_555 1_555
O10_4 C52_7 1_555 1_555
Zn1_4 N2_7 1_555 1_555
Zn7_3 O3_7 1_555 1_555
O11_4 Zn7_3 1_555 1_555
O12_4 Zn1_4 1_555 1_555
O13_4 Zn7_3 1_555 1_555
O14_4 Zn1_4 1_555 1_555
Zn3_2 O10_4 1_555 1_555
Zn7_4 O9_4 1_555 1_555
C30_7 C31_7 1_555 1_555
C36_7 C37_7 1_555 1_555
C44_7 C45_7 1_555 1_555
C50_7 C51_7 1_555 1_555
N5_7 N6_7 1_555 1_555
N7_7 N8_7 1_555 1_555
O4_7 Zn1_4 1_555 1_555
O7_7 Zn7_3 1_555 1_555
O8_7 Zn1_4 1_555 1_555
C2_7 C1_7 1_555 1_555
H2_7 C2_7 1_555 1_555
C3_6 C2_7 1_555 1_555
C4_6 C3_6 1_555 1_555
H3_6 C4_6 1_555 1_555
C5_6 C4_6 1_555 1_555
C6_6 C7_6 1_555 1_555
C7_6 C8_7 1_555 1_555
C8_7 H5_6 1_555 1_555
C9_7 C8_7 1_555 1_555
H6_7 C9_7 1_555 1_555
C10_7 C9_7 1_555 1_555
C11_7 C10_7 1_555 1_555
H7_7 C11_7 1_555 1_555
C12_7 C7_6 1_555 1_555
H8_6 C12_7 1_555 1_555
C13_7 C10_7 1_555 1_555
C14_7 C13_7 1_555 1_555
H9_7 C14_7 1_555 1_555
C15_7 C14_7 1_555 1_555
H10_7 C15_7 1_555 1_555
C16_7 C15_7 1_555 1_555
C17_7 C16_7 1_555 1_555
H11_6 C17_7 1_555 1_555
C18_7 C13_7 1_555 1_555
H12_6 C18_7 1_555 1_555
C19_7 C16_7 1_555 1_555
C20_7 H13_7 1_555 1_555
C21_7 C20_7 1_555 1_555
H14_7 C21_7 1_555 1_555
C22_7 C21_7 1_555 1_555
C23_6 C22_7 1_555 1_555
H15_6 C23_6 1_555 1_555
C24_6 C23_6 1_555 1_555
H16_6 C24_6 1_555 1_555
N9_3 C20_7 1_555 1_555
N3_6 C3_6 1_555 1_555
H33_7 N3_6 1_555 1_555
N4_7 C19_7 1_555 1_555
H34_6 N4_7 1_555 1_555
O1_6 C6_6 1_555 1_555
O2_7 C19_7 1_555 1_555
C6_6 N3_6 1_555 1_555
C11_7 C12_7 1_555 1_555
C17_7 C18_7 1_555 1_555
C22_7 N4_7 1_555 1_555
C24_6 N9_3 1_555 1_555
C39_8 C40_8 1_555 1_555
C40_8 C41_8 1_555 1_555
C41_8 H25_8 1_555 1_555
C42_8 C41_8 1_555 1_555
H26_8 C42_8 1_555 1_555
C43_8 C42_8 1_555 1_555
C44_8 C43_8 1_555 1_555
H27_8 C44_8 1_555 1_555
C45_8 C40_8 1_555 1_555
H28_8 C45_8 1_555 1_555
C46_8 C47_8 1_555 1_555
C47_8 H29_8 1_555 1_555
C48_8 C47_8 1_555 1_555
H30_8 C48_8 1_555 1_555
C49_8 C48_8 1_555 1_555
C50_8 C49_8 1_555 1_555
H31_8 C50_8 1_555 1_555
C51_8 C46_8 1_555 1_555
H32_8 C51_8 1_555 1_555
N7_8 C43_8 1_555 1_555
N8_8 C46_8 1_555 1_555
O7_8 C39_8 1_555 1_555
O8_8 C39_8 1_555 1_555
C44_8 C45_8 1_555 1_555
C50_8 C51_8 1_555 1_555
N7_8 N8_8 1_555 1_555
C2_8 C1_8 1_555 1_555
H2_8 C2_8 1_555 1_555
C9_8 C8_8 1_555 1_555
H6_8 C9_8 1_555 1_555
C10_8 C9_8 1_555 1_555
C11_8 C10_8 1_555 1_555
H7_8 C11_8 1_555 1_555
C13_8 C10_8 1_555 1_555
C14_8 C13_8 1_555 1_555
H9_8 C14_8 1_555 1_555
C15_8 C14_8 1_555 1_555
H10_8 C15_8 1_555 1_555
C16_8 C15_8 1_555 1_555
C17_8 C16_8 1_555 1_555
C18_8 C13_8 1_555 1_555
C19_8 C16_8 1_555 1_555
C20_8 H13_8 1_555 1_555
C21_8 C20_8 1_555 1_555
H14_8 C21_8 1_555 1_555
C22_8 C21_8 1_555 1_555
N9_4 C20_8 1_555 1_555
N4_8 C19_8 1_555 1_555
O2_8 C19_8 1_555 1_555
C11_8 C12_8 1_555 1_555
C17_8 C18_8 1_555 1_555
C22_8 N4_8 1_555 1_555
C25_8 C26_8 1_555 1_555
C26_8 C27_8 1_555 1_555
C27_8 H17_8 1_555 1_555
C28_8 C27_8 1_555 1_555
H18_8 C28_8 1_555 1_555
C29_8 C28_8 1_555 1_555
C30_8 C29_8 1_555 1_555
H19_8 C30_8 1_555 1_555
C31_8 C26_8 1_555 1_555
H20_8 C31_8 1_555 1_555
C32_8 C33_8 1_555 1_555
C33_8 H21_8 1_555 1_555
C34_8 C33_8 1_555 1_555
H22_8 C34_8 1_555 1_555
C35_8 C34_8 1_555 1_555
C36_8 C35_8 1_555 1_555
H23_8 C36_8 1_555 1_555
C37_8 C32_8 1_555 1_555
H24_8 C37_8 1_555 1_555
N5_8 C29_8 1_555 1_555
N6_8 C32_8 1_555 1_555
O3_8 C25_8 1_555 1_555
O4_8 C25_8 1_555 1_555
Zn3_2 N2_8 1_555 1_555
Zn7_4 O3_8 1_555 1_555
C30_8 C31_8 1_555 1_555
C36_8 C37_8 1_555 1_555
N5_8 N6_8 1_555 1_555
O4_8 Zn3_2 1_555 1_555
O13_4 C52_8 1_555 1_555
O14_4 C52_8 1_555 1_555
O11_4 C38_8 1_555 1_555
O12_4 C38_8 1_555 1_555
C4_7 C3_7 1_555 1_555
H3_7 C4_7 1_555 1_555
C5_7 C4_7 1_555 1_555
C6_7 C7_7 1_555 1_555
H15_7 C23_7 1_555 1_555
C24_7 C23_7 1_555 1_555
H16_7 C24_7 1_555 1_555
N3_7 C3_7 1_555 1_555
O1_7 C6_7 1_555 1_555
C6_7 N3_7 1_555 1_555
C4_8 C3_8 1_555 1_555
H3_8 C4_8 1_555 1_555
C5_8 C4_8 1_555 1_555
C6_8 C7_8 1_555 1_555
H15_8 C23_8 1_555 1_555
C24_8 C23_8 1_555 1_555
H16_8 C24_8 1_555 1_555
N3_8 C3_8 1_555 1_555
O1_8 C6_8 1_555 1_555
C6_8 N3_8 1_555 1_555
O27 C97 1_555 1_555
O28 C97 1_555 1_555
C74 C73 1_555 1_555
C75 C73 1_555 1_555
H48 C74 1_555 1_555
C76 C74 1_555 1_555
C77 C75 1_555 1_555
H49 C75 1_555 1_555
H50 C76 1_555 1_555
C80 C76 1_555 1_555
H51 C77 1_555 1_555
C85 C80 1_555 1_555
C90 C85 1_555 1_555
C91 C85 1_555 1_555
H60 C90 1_555 1_555
C94 C90 1_555 1_555
C95 C91 1_555 1_555
H61 C91 1_555 1_555
H62 C94 1_555 1_555
C98 C94 1_555 1_555
H63 C95 1_555 1_555
C99 C98 1_555 1_555
N17 C99 1_555 1_555
O24 C99 1_555 1_555
C100 N17 1_555 1_555
H64 N17 1_555 1_555
C101 C100 1_555 1_555
C102 C100 1_555 1_555
H65 C101 1_555 1_555
C103 C101 1_555 1_555
C104 C102 1_555 1_555
H66 C102 1_555 1_555
H67 C103 1_555 1_555
H68 C104 1_555 1_555
N18 C103 1_555 1_555
Zn14 N18 1_555 1_555
C77 C80 1_555 1_555
C95 C98 1_555 1_555
C104 N18 1_555 1_555
Zn8 N10 1_555 1_555
N10 C53 1_555 1_555
O15 Zn8 1_555 1_555
O16 Zn8 1_555 1_555
O17 Zn8 1_555 1_555
O18 Zn8 1_555 1_555
C53 H35 1_555 1_555
C54 N10 1_555 1_555
C55 O15 1_555 1_555
C56 O16 1_555 1_555
C57 C53 1_555 1_555
C58 C54 1_555 1_555
H36 C54 1_555 1_555
C59 C55 1_555 1_555
O19 C55 1_555 1_555
C60 C56 1_555 1_555
O20 C56 1_555 1_555
O21 Zn9 1_555 1_555
O22 Zn9 1_555 1_555
H37 C57 1_555 1_555
C61 C57 1_555 1_555
H38 C58 1_555 1_555
C62 C59 1_555 1_555
C63 C59 1_555 1_555
Zn9 O19 1_555 1_555
C64 C60 1_555 1_555
C65 C60 1_555 1_555
N11 C61 1_555 1_555
C66 C62 1_555 1_555
H39 C62 1_555 1_555
H40 C63 1_555 1_555
C67 C63 1_555 1_555
N12 Zn9 1_555 1_555
C68 C64 1_555 1_555
H41 C64 1_555 1_555
H42 C65 1_555 1_555
C69 C65 1_555 1_555
C70 N11 1_555 1_555
H43 N11 1_555 1_555
C71 C66 1_555 1_555
H44 C66 1_555 1_555
H45 C67 1_555 1_555
C72 C68 1_555 1_555
H46 C68 1_555 1_555
H47 C69 1_555 1_555
O23 C70 1_555 1_555
N13 C71 1_555 1_555
N14 C72 1_555 1_555
N15 N13 1_555 1_555
N16 N14 1_555 1_555
C78 N15 1_555 1_555
C79 N16 1_555 1_555
C81 C78 1_555 1_555
C82 C78 1_555 1_555
C83 C79 1_555 1_555
C84 C79 1_555 1_555
H52 C81 1_555 1_555
C86 C81 1_555 1_555
C87 C82 1_555 1_555
H53 C82 1_555 1_555
H54 C83 1_555 1_555
C88 C83 1_555 1_555
C89 C84 1_555 1_555
H55 C84 1_555 1_555
H56 C86 1_555 1_555
C92 C86 1_555 1_555
H57 C87 1_555 1_555
H58 C88 1_555 1_555
C93 C88 1_555 1_555
H59 C89 1_555 1_555
C96 C92 1_555 1_555
O25 C96 1_555 1_555
O26 C96 1_555 1_555
C58 C61 1_555 1_555
O20 Zn9 1_555 1_555
C67 C71 1_555 1_555
C69 C72 1_555 1_555
C87 C92 1_555 1_555
C89 C93 1_555 1_555
Zn13 N10_2 1_555 1_555
O15_2 Zn13 1_555 1_555
O16_2 Zn13 1_555 1_555
C54_2 N10_2 1_555 1_555
C55_2 O15_2 1_555 1_555
C56_2 O16_2 1_555 1_555
C58_2 C54_2 1_555 1_555
H36_2 C54_2 1_555 1_555
O19_2 C55_2 1_555 1_555
C60_2 C56_2 1_555 1_555
O20_2 C56_2 1_555 1_555
H38_2 C58_2 1_555 1_555
Zn12 O19_2 1_555 1_555
C64_2 C60_2 1_555 1_555
C65_2 C60_2 1_555 1_555
N11_2 C61_2 1_555 1_555
N12_2 Zn12 1_555 1_555
C68_2 C64_2 1_555 1_555
H41_2 C64_2 1_555 1_555
H42_2 C65_2 1_555 1_555
C69_2 C65_2 1_555 1_555
H43_2 N11_2 1_555 1_555
C72_2 C68_2 1_555 1_555
H46_2 C68_2 1_555 1_555
H47_2 C69_2 1_555 1_555
N14_2 C72_2 1_555 1_555
N16_2 N14_2 1_555 1_555
C79_2 N16_2 1_555 1_555
C83_2 C79_2 1_555 1_555
C84_2 C79_2 1_555 1_555
H54_2 C83_2 1_555 1_555
C88_2 C83_2 1_555 1_555
C89_2 C84_2 1_555 1_555
H55_2 C84_2 1_555 1_555
H58_2 C88_2 1_555 1_555
C93_2 C88_2 1_555 1_555
H59_2 C89_2 1_555 1_555
C97_2 C93_2 1_555 1_555
O22 C97_2 1_555 1_555
O18 C97_2 1_555 1_555
C58_2 C61_2 1_555 1_555
O20_2 Zn12 1_555 1_555
C69_2 C72_2 1_555 1_555
C89_2 C93_2 1_555 1_555
C74_2 C73_2 1_555 1_555
C75_2 C73_2 1_555 1_555
H48_2 C74_2 1_555 1_555
C76_2 C74_2 1_555 1_555
C77_2 C75_2 1_555 1_555
H49_2 C75_2 1_555 1_555
H51_2 C77_2 1_555 1_555
C95_2 C91_2 1_555 1_555
H61_2 C91_2 1_555 1_555
H63_2 C95_2 1_555 1_555
C100_2 N17_2 1_555 1_555
H64_2 N17_2 1_555 1_555
C101_2 C100_2 1_555 1_555
H65_2 C101_2 1_555 1_555
C103_2 C101_2 1_555 1_555
H67_2 C103_2 1_555 1_555
N18_2 C103_2 1_555 1_555
Zn14_2 N18_2 1_555 1_555
C53_2 H35_2 1_555 1_555
C57_2 C53_2 1_555 1_555
H37_2 C57_2 1_555 1_555
O23_2 C70_2 1_555 1_555
C62_2 C59_2 1_555 1_555
C63_2 C59_2 1_555 1_555
C66_2 C62_2 1_555 1_555
H39_2 C62_2 1_555 1_555
H40_2 C63_2 1_555 1_555
C67_2 C63_2 1_555 1_555
C71_2 C66_2 1_555 1_555
H44_2 C66_2 1_555 1_555
H45_2 C67_2 1_555 1_555
N13_2 C71_2 1_555 1_555
N15_2 N13_2 1_555 1_555
C78_2 N15_2 1_555 1_555
C81_2 C78_2 1_555 1_555
C82_2 C78_2 1_555 1_555
H52_2 C81_2 1_555 1_555
C86_2 C81_2 1_555 1_555
C87_2 C82_2 1_555 1_555
H53_2 C82_2 1_555 1_555
H56_2 C86_2 1_555 1_555
C92_2 C86_2 1_555 1_555
H57_2 C87_2 1_555 1_555
C96_2 C92_2 1_555 1_555
O21 C96_2 1_555 1_555
O17 C96_2 1_555 1_555
C67_2 C71_2 1_555 1_555
C87_2 C92_2 1_555 1_555
O27_2 C97_3 1_555 1_555
O28_2 C97_3 1_555 1_555
Zn8_2 N10_3 1_555 1_555
N10_3 C53_3 1_555 1_555
O15_3 Zn8_2 1_555 1_555
O16_3 Zn8_2 1_555 1_555
O17_2 Zn8_2 1_555 1_555
O18_2 Zn8_2 1_555 1_555
C53_3 H35_3 1_555 1_555
C54_3 N10_3 1_555 1_555
C55_3 O15_3 1_555 1_555
C56_3 O16_3 1_555 1_555
C57_3 C53_3 1_555 1_555
C58_3 C54_3 1_555 1_555
H36_3 C54_3 1_555 1_555
C59_3 C55_3 1_555 1_555
O19_3 C55_3 1_555 1_555
C60_3 C56_3 1_555 1_555
O20_3 C56_3 1_555 1_555
O21_2 Zn14 1_555 1_555
O22_2 Zn14 1_555 1_555
H37_3 C57_3 1_555 1_555
C61_3 C57_3 1_555 1_555
H38_3 C58_3 1_555 1_555
C62_3 C59_3 1_555 1_555
C63_3 C59_3 1_555 1_555
Zn14 O19_3 1_555 1_555
C64_3 C60_3 1_555 1_555
C65_3 C60_3 1_555 1_555
N11_3 C61_3 1_555 1_555
C66_3 C62_3 1_555 1_555
H39_3 C62_3 1_555 1_555
H40_3 C63_3 1_555 1_555
C67_3 C63_3 1_555 1_555
C68_3 C64_3 1_555 1_555
H41_3 C64_3 1_555 1_555
H42_3 C65_3 1_555 1_555
C69_3 C65_3 1_555 1_555
C70_3 N11_3 1_555 1_555
H43_3 N11_3 1_555 1_555
C71_3 C66_3 1_555 1_555
H44_3 C66_3 1_555 1_555
H45_3 C67_3 1_555 1_555
C72_3 C68_3 1_555 1_555
H46_3 C68_3 1_555 1_555
H47_3 C69_3 1_555 1_555
C73_3 C70_3 1_555 1_555
O23_3 C70_3 1_555 1_555
N13_3 C71_3 1_555 1_555
N14_3 C72_3 1_555 1_555
C74_3 C73_3 1_555 1_555
C75_3 C73_3 1_555 1_555
N15_3 N13_3 1_555 1_555
N16_3 N14_3 1_555 1_555
H48_3 C74_3 1_555 1_555
C76_3 C74_3 1_555 1_555
C77_3 C75_3 1_555 1_555
H49_3 C75_3 1_555 1_555
C78_3 N15_3 1_555 1_555
C79_3 N16_3 1_555 1_555
H50_2 C76_3 1_555 1_555
C80_2 C76_3 1_555 1_555
H51_3 C77_3 1_555 1_555
C81_3 C78_3 1_555 1_555
C82_3 C78_3 1_555 1_555
C83_3 C79_3 1_555 1_555
C84_3 C79_3 1_555 1_555
C85_2 C80_2 1_555 1_555
H52_3 C81_3 1_555 1_555
C86_3 C81_3 1_555 1_555
C87_3 C82_3 1_555 1_555
H53_3 C82_3 1_555 1_555
H54_3 C83_3 1_555 1_555
C88_3 C83_3 1_555 1_555
C89_3 C84_3 1_555 1_555
H55_3 C84_3 1_555 1_555
C90_2 C85_2 1_555 1_555
C91_3 C85_2 1_555 1_555
H56_3 C86_3 1_555 1_555
C92_3 C86_3 1_555 1_555
H57_3 C87_3 1_555 1_555
H58_3 C88_3 1_555 1_555
C93_3 C88_3 1_555 1_555
H59_3 C89_3 1_555 1_555
H60_2 C90_2 1_555 1_555
C94_2 C90_2 1_555 1_555
C95_3 C91_3 1_555 1_555
H61_3 C91_3 1_555 1_555
C96_3 C92_3 1_555 1_555
H62_2 C94_2 1_555 1_555
C98_2 C94_2 1_555 1_555
H63_3 C95_3 1_555 1_555
C99_2 C98_2 1_555 1_555
N17_3 C99_2 1_555 1_555
O24_2 C99_2 1_555 1_555
C100_3 N17_3 1_555 1_555
H64_3 N17_3 1_555 1_555
C101_3 C100_3 1_555 1_555
C102_2 C100_3 1_555 1_555
H65_3 C101_3 1_555 1_555
C103_3 C101_3 1_555 1_555
C104_2 C102_2 1_555 1_555
H66_2 C102_2 1_555 1_555
H67_3 C103_3 1_555 1_555
H68_2 C104_2 1_555 1_555
O25_2 C96_3 1_555 1_555
O26_2 C96_3 1_555 1_555
N12 C103_3 1_555 1_555
C58_3 C61_3 1_555 1_555
O20_3 Zn14 1_555 1_555
C67_3 C71_3 1_555 1_555
C69_3 C72_3 1_555 1_555
C77_3 C80_2 1_555 1_555
C87_3 C92_3 1_555 1_555
C89_3 C93_3 1_555 1_555
C95_3 C98_2 1_555 1_555
C104_2 N12 1_555 1_555
C53_4 H35_4 1_555 1_555
C57_4 C53_4 1_555 1_555
H37_4 C57_4 1_555 1_555
C73_4 C70_4 1_555 1_555
O23_4 C70_4 1_555 1_555
C74_4 C73_4 1_555 1_555
C75_4 C73_4 1_555 1_555
H48_4 C74_4 1_555 1_555
C76_4 C74_4 1_555 1_555
C77_4 C75_4 1_555 1_555
H49_4 C75_4 1_555 1_555
H51_4 C77_4 1_555 1_555
C95_4 C91_4 1_555 1_555
H61_4 C91_4 1_555 1_555
H63_4 C95_4 1_555 1_555
C100_4 N17_4 1_555 1_555
H64_4 N17_4 1_555 1_555
C101_4 C100_4 1_555 1_555
H65_4 C101_4 1_555 1_555
C103_4 C101_4 1_555 1_555
H67_4 C103_4 1_555 1_555
N12_2 C103_4 1_555 1_555
Zn13_2 N10_4 1_555 1_555
O15_4 Zn13_2 1_555 1_555
O16_4 Zn13_2 1_555 1_555
C54_4 N10_4 1_555 1_555
C55_4 O15_4 1_555 1_555
C56_4 O16_4 1_555 1_555
C58_4 C54_4 1_555 1_555
H36_4 C54_4 1_555 1_555
O19_4 C55_4 1_555 1_555
C60_4 C56_4 1_555 1_555
O20_4 C56_4 1_555 1_555
H38_4 C58_4 1_555 1_555
Zn14_2 O19_4 1_555 1_555
C64_4 C60_4 1_555 1_555
C65_4 C60_4 1_555 1_555
N11_4 C61_4 1_555 1_555
C68_4 C64_4 1_555 1_555
H41_4 C64_4 1_555 1_555
H42_4 C65_4 1_555 1_555
C69_4 C65_4 1_555 1_555
H43_4 N11_4 1_555 1_555
C72_4 C68_4 1_555 1_555
H46_4 C68_4 1_555 1_555
H47_4 C69_4 1_555 1_555
N14_4 C72_4 1_555 1_555
N16_4 N14_4 1_555 1_555
C79_4 N16_4 1_555 1_555
C83_4 C79_4 1_555 1_555
C84_4 C79_4 1_555 1_555
C85_3 C80_3 1_555 1_555
H54_4 C83_4 1_555 1_555
C88_4 C83_4 1_555 1_555
C89_4 C84_4 1_555 1_555
H55_4 C84_4 1_555 1_555
C90_3 C85_3 1_555 1_555
H58_4 C88_4 1_555 1_555
C93_4 C88_4 1_555 1_555
H59_4 C89_4 1_555 1_555
H60_3 C90_3 1_555 1_555
C94_3 C90_3 1_555 1_555
C97_4 C93_4 1_555 1_555
H62_3 C94_3 1_555 1_555
C98_3 C94_3 1_555 1_555
C99_3 C98_3 1_555 1_555
O24_3 C99_3 1_555 1_555
C104_3 C102_3 1_555 1_555
H66_3 C102_3 1_555 1_555
H68_3 C104_3 1_555 1_555
O22_2 C97_4 1_555 1_555
O18_2 C97_4 1_555 1_555
C58_4 C61_4 1_555 1_555
O20_4 Zn14_2 1_555 1_555
C69_4 C72_4 1_555 1_555
C89_4 C93_4 1_555 1_555
C62_4 C59_4 1_555 1_555
C63_4 C59_4 1_555 1_555
C66_4 C62_4 1_555 1_555
H39_4 C62_4 1_555 1_555
H40_4 C63_4 1_555 1_555
C67_4 C63_4 1_555 1_555
C71_4 C66_4 1_555 1_555
H44_4 C66_4 1_555 1_555
H45_4 C67_4 1_555 1_555
N13_4 C71_4 1_555 1_555
N15_4 N13_4 1_555 1_555
C78_4 N15_4 1_555 1_555
C81_4 C78_4 1_555 1_555
C82_4 C78_4 1_555 1_555
H52_4 C81_4 1_555 1_555
C86_4 C81_4 1_555 1_555
C87_4 C82_4 1_555 1_555
H53_4 C82_4 1_555 1_555
H56_4 C86_4 1_555 1_555
C92_4 C86_4 1_555 1_555
H57_4 C87_4 1_555 1_555
C96_4 C92_4 1_555 1_555
O21_2 C96_4 1_555 1_555
O17_2 C96_4 1_555 1_555
C67_4 C71_4 1_555 1_555
C87_4 C92_4 1_555 1_555
Zn8_3 N10_5 1_555 1_555
N10_5 C53_5 1_555 1_555
O15_5 Zn8_3 1_555 1_555
O16_5 Zn8_3 1_555 1_555
O17_3 Zn8_3 1_555 1_555
O18_3 Zn8_3 1_555 1_555
C53_5 H35_5 1_555 1_555
C54_5 N10_5 1_555 1_555
C55_5 O15_5 1_555 1_555
C56_5 O16_5 1_555 1_555
C57_5 C53_5 1_555 1_555
C58_5 C54_5 1_555 1_555
H36_5 C54_5 1_555 1_555
C59_5 C55_5 1_555 1_555
O19_5 C55_5 1_555 1_555
C60_5 C56_5 1_555 1_555
O20_5 C56_5 1_555 1_555
O21_3 Zn9_2 1_555 1_555
O22_3 Zn9_2 1_555 1_555
H37_5 C57_5 1_555 1_555
C61_5 C57_5 1_555 1_555
H38_5 C58_5 1_555 1_555
C62_5 C59_5 1_555 1_555
C63_5 C59_5 1_555 1_555
Zn9_2 O19_5 1_555 1_555
C64_5 C60_5 1_555 1_555
C65_5 C60_5 1_555 1_555
N11_5 C61_5 1_555 1_555
C66_5 C62_5 1_555 1_555
H39_5 C62_5 1_555 1_555
H40_5 C63_5 1_555 1_555
C67_5 C63_5 1_555 1_555
N12_3 Zn9_2 1_555 1_555
C68_5 C64_5 1_555 1_555
H41_5 C64_5 1_555 1_555
H42_5 C65_5 1_555 1_555
C69_5 C65_5 1_555 1_555
C70_5 N11_5 1_555 1_555
H43_5 N11_5 1_555 1_555
C71_5 C66_5 1_555 1_555
H44_5 C66_5 1_555 1_555
H45_5 C67_5 1_555 1_555
C72_5 C68_5 1_555 1_555
H46_5 C68_5 1_555 1_555
H47_5 C69_5 1_555 1_555
C73_5 C70_5 1_555 1_555
O23_5 C70_5 1_555 1_555
N13_5 C71_5 1_555 1_555
N14_5 C72_5 1_555 1_555
C74_5 C73_5 1_555 1_555
C75_5 C73_5 1_555 1_555
N15_5 N13_5 1_555 1_555
N16_5 N14_5 1_555 1_555
H48_5 C74_5 1_555 1_555
C76_5 C74_5 1_555 1_555
C77_5 C75_5 1_555 1_555
H49_5 C75_5 1_555 1_555
C78_5 N15_5 1_555 1_555
C79_5 N16_5 1_555 1_555
H50_4 C76_5 1_555 1_555
C80_4 C76_5 1_555 1_555
H51_5 C77_5 1_555 1_555
C81_5 C78_5 1_555 1_555
C82_5 C78_5 1_555 1_555
C83_5 C79_5 1_555 1_555
C84_5 C79_5 1_555 1_555
C85_4 C80_4 1_555 1_555
H52_5 C81_5 1_555 1_555
C86_5 C81_5 1_555 1_555
C87_5 C82_5 1_555 1_555
H53_5 C82_5 1_555 1_555
H54_5 C83_5 1_555 1_555
C88_5 C83_5 1_555 1_555
C89_5 C84_5 1_555 1_555
H55_5 C84_5 1_555 1_555
C90_4 C85_4 1_555 1_555
C91_5 C85_4 1_555 1_555
H56_5 C86_5 1_555 1_555
C92_5 C86_5 1_555 1_555
H57_5 C87_5 1_555 1_555
H58_5 C88_5 1_555 1_555
C93_5 C88_5 1_555 1_555
H59_5 C89_5 1_555 1_555
H60_4 C90_4 1_555 1_555
C94_4 C90_4 1_555 1_555
C95_5 C91_5 1_555 1_555
H61_5 C91_5 1_555 1_555
C96_5 C92_5 1_555 1_555
H62_4 C94_4 1_555 1_555
C98_4 C94_4 1_555 1_555
H63_5 C95_5 1_555 1_555
C99_4 C98_4 1_555 1_555
N17_5 C99_4 1_555 1_555
O24_4 C99_4 1_555 1_555
C100_5 N17_5 1_555 1_555
H64_5 N17_5 1_555 1_555
C101_5 C100_5 1_555 1_555
C102_4 C100_5 1_555 1_555
H65_5 C101_5 1_555 1_555
C103_5 C101_5 1_555 1_555
C104_4 C102_4 1_555 1_555
H66_4 C102_4 1_555 1_555
H67_5 C103_5 1_555 1_555
H68_4 C104_4 1_555 1_555
O25_3 C96_5 1_555 1_555
O26_3 C96_5 1_555 1_555
N18_3 C103_5 1_555 1_555
Zn14_3 N18_3 1_555 1_555
C58_5 C61_5 1_555 1_555
O20_5 Zn9_2 1_555 1_555
C67_5 C71_5 1_555 1_555
C69_5 C72_5 1_555 1_555
C77_5 C80_4 1_555 1_555
C87_5 C92_5 1_555 1_555
C89_5 C93_5 1_555 1_555
C95_5 C98_4 1_555 1_555
C104_4 N18_3 1_555 1_555
O27_3 C97_5 1_555 1_555
O28_3 C97_5 1_555 1_555
C62_6 C59_6 1_555 1_555
C63_6 C59_6 1_555 1_555
C66_6 C62_6 1_555 1_555
H39_6 C62_6 1_555 1_555
H40_6 C63_6 1_555 1_555
C67_6 C63_6 1_555 1_555
C71_6 C66_6 1_555 1_555
H44_6 C66_6 1_555 1_555
H45_6 C67_6 1_555 1_555
N13_6 C71_6 1_555 1_555
N15_6 N13_6 1_555 1_555
C78_6 N15_6 1_555 1_555
C81_6 C78_6 1_555 1_555
C82_6 C78_6 1_555 1_555
H52_6 C81_6 1_555 1_555
C86_6 C81_6 1_555 1_555
C87_6 C82_6 1_555 1_555
H53_6 C82_6 1_555 1_555
H56_6 C86_6 1_555 1_555
C92_6 C86_6 1_555 1_555
H57_6 C87_6 1_555 1_555
C96_6 C92_6 1_555 1_555
O21_3 C96_6 1_555 1_555
O17_3 C96_6 1_555 1_555
C67_6 C71_6 1_555 1_555
C87_6 C92_6 1_555 1_555
Zn11 N10_6 1_555 1_555
O15_6 Zn11 1_555 1_555
O16_6 Zn11 1_555 1_555
C54_6 N10_6 1_555 1_555
C55_6 O15_6 1_555 1_555
C56_6 O16_6 1_555 1_555
C58_6 C54_6 1_555 1_555
H36_6 C54_6 1_555 1_555
O19_6 C55_6 1_555 1_555
C60_6 C56_6 1_555 1_555
O20_6 C56_6 1_555 1_555
H38_6 C58_6 1_555 1_555
Zn10 O19_6 1_555 1_555
C64_6 C60_6 1_555 1_555
C65_6 C60_6 1_555 1_555
N11_6 C61_6 1_555 1_555
N12_4 Zn10 1_555 1_555
C68_6 C64_6 1_555 1_555
H41_6 C64_6 1_555 1_555
H42_6 C65_6 1_555 1_555
C69_6 C65_6 1_555 1_555
H43_6 N11_6 1_555 1_555
C72_6 C68_6 1_555 1_555
H46_6 C68_6 1_555 1_555
H47_6 C69_6 1_555 1_555
N14_6 C72_6 1_555 1_555
N16_6 N14_6 1_555 1_555
C79_6 N16_6 1_555 1_555
C83_6 C79_6 1_555 1_555
C84_6 C79_6 1_555 1_555
C85_5 C80_5 1_555 1_555
H54_6 C83_6 1_555 1_555
C88_6 C83_6 1_555 1_555
C89_6 C84_6 1_555 1_555
H55_6 C84_6 1_555 1_555
C90_5 C85_5 1_555 1_555
H58_6 C88_6 1_555 1_555
C93_6 C88_6 1_555 1_555
H59_6 C89_6 1_555 1_555
H60_5 C90_5 1_555 1_555
C94_5 C90_5 1_555 1_555
C97_6 C93_6 1_555 1_555
H62_5 C94_5 1_555 1_555
C98_5 C94_5 1_555 1_555
C99_5 C98_5 1_555 1_555
O24_5 C99_5 1_555 1_555
C104_5 C102_5 1_555 1_555
H66_5 C102_5 1_555 1_555
H68_5 C104_5 1_555 1_555
O22_3 C97_6 1_555 1_555
O18_3 C97_6 1_555 1_555
C58_6 C61_6 1_555 1_555
O20_6 Zn10 1_555 1_555
C69_6 C72_6 1_555 1_555
C89_6 C93_6 1_555 1_555
C53_6 H35_6 1_555 1_555
C57_6 C53_6 1_555 1_555
H37_6 C57_6 1_555 1_555
C73_6 C70_6 1_555 1_555
O23_6 C70_6 1_555 1_555
C74_6 C73_6 1_555 1_555
C75_6 C73_6 1_555 1_555
H48_6 C74_6 1_555 1_555
C76_6 C74_6 1_555 1_555
C77_6 C75_6 1_555 1_555
H49_6 C75_6 1_555 1_555
H51_6 C77_6 1_555 1_555
C95_6 C91_6 1_555 1_555
H61_6 C91_6 1_555 1_555
H63_6 C95_6 1_555 1_555
C100_6 N17_6 1_555 1_555
H64_6 N17_6 1_555 1_555
C101_6 C100_6 1_555 1_555
H65_6 C101_6 1_555 1_555
C103_6 C101_6 1_555 1_555
H67_6 C103_6 1_555 1_555
N18_4 C103_6 1_555 1_555
Zn14_4 N18_4 1_555 1_555
Zn8_4 N10_7 1_555 1_555
N10_7 C53_7 1_555 1_555
O15_7 Zn8_4 1_555 1_555
O16_7 Zn8_4 1_555 1_555
O17_4 Zn8_4 1_555 1_555
O18_4 Zn8_4 1_555 1_555
C53_7 H35_7 1_555 1_555
C54_7 N10_7 1_555 1_555
C55_7 O15_7 1_555 1_555
C56_7 O16_7 1_555 1_555
C57_7 C53_7 1_555 1_555
C58_7 C54_7 1_555 1_555
H36_7 C54_7 1_555 1_555
C59_7 C55_7 1_555 1_555
O19_7 C55_7 1_555 1_555
C60_7 C56_7 1_555 1_555
O20_7 C56_7 1_555 1_555
O21_4 Zn14_3 1_555 1_555
O22_4 Zn14_3 1_555 1_555
H37_7 C57_7 1_555 1_555
C61_7 C57_7 1_555 1_555
H38_7 C58_7 1_555 1_555
C62_7 C59_7 1_555 1_555
C63_7 C59_7 1_555 1_555
Zn14_3 O19_7 1_555 1_555
C64_7 C60_7 1_555 1_555
C65_7 C60_7 1_555 1_555
N11_7 C61_7 1_555 1_555
C66_7 C62_7 1_555 1_555
H39_7 C62_7 1_555 1_555
H40_7 C63_7 1_555 1_555
C67_7 C63_7 1_555 1_555
C68_7 C64_7 1_555 1_555
H41_7 C64_7 1_555 1_555
H42_7 C65_7 1_555 1_555
C69_7 C65_7 1_555 1_555
C70_7 N11_7 1_555 1_555
H43_7 N11_7 1_555 1_555
C71_7 C66_7 1_555 1_555
H44_7 C66_7 1_555 1_555
H45_7 C67_7 1_555 1_555
C72_7 C68_7 1_555 1_555
H46_7 C68_7 1_555 1_555
H47_7 C69_7 1_555 1_555
O23_7 C70_7 1_555 1_555
N13_7 C71_7 1_555 1_555
N14_7 C72_7 1_555 1_555
N15_7 N13_7 1_555 1_555
N16_7 N14_7 1_555 1_555
C78_7 N15_7 1_555 1_555
C79_7 N16_7 1_555 1_555
C81_7 C78_7 1_555 1_555
C82_7 C78_7 1_555 1_555
C83_7 C79_7 1_555 1_555
C84_7 C79_7 1_555 1_555
H52_7 C81_7 1_555 1_555
C86_7 C81_7 1_555 1_555
C87_7 C82_7 1_555 1_555
H53_7 C82_7 1_555 1_555
H54_7 C83_7 1_555 1_555
C88_7 C83_7 1_555 1_555
C89_7 C84_7 1_555 1_555
H55_7 C84_7 1_555 1_555
H56_7 C86_7 1_555 1_555
C92_7 C86_7 1_555 1_555
H57_7 C87_7 1_555 1_555
H58_7 C88_7 1_555 1_555
C93_7 C88_7 1_555 1_555
H59_7 C89_7 1_555 1_555
C96_7 C92_7 1_555 1_555
O25_4 C96_7 1_555 1_555
O26_4 C96_7 1_555 1_555
C58_7 C61_7 1_555 1_555
O20_7 Zn14_3 1_555 1_555
C67_7 C71_7 1_555 1_555
C69_7 C72_7 1_555 1_555
C87_7 C92_7 1_555 1_555
C89_7 C93_7 1_555 1_555
C74_7 C73_7 1_555 1_555
C75_7 C73_7 1_555 1_555
H48_7 C74_7 1_555 1_555
C76_7 C74_7 1_555 1_555
C77_7 C75_7 1_555 1_555
H49_7 C75_7 1_555 1_555
H50_6 C76_7 1_555 1_555
C80_6 C76_7 1_555 1_555
H51_7 C77_7 1_555 1_555
C85_6 C80_6 1_555 1_555
C90_6 C85_6 1_555 1_555
C91_7 C85_6 1_555 1_555
H60_6 C90_6 1_555 1_555
C94_6 C90_6 1_555 1_555
C95_7 C91_7 1_555 1_555
H61_7 C91_7 1_555 1_555
H62_6 C94_6 1_555 1_555
C98_6 C94_6 1_555 1_555
H63_7 C95_7 1_555 1_555
C99_6 C98_6 1_555 1_555
N17_7 C99_6 1_555 1_555
O24_6 C99_6 1_555 1_555
C100_7 N17_7 1_555 1_555
H64_7 N17_7 1_555 1_555
C101_7 C100_7 1_555 1_555
C102_6 C100_7 1_555 1_555
H65_7 C101_7 1_555 1_555
C103_7 C101_7 1_555 1_555
C104_6 C102_6 1_555 1_555
H66_6 C102_6 1_555 1_555
H67_7 C103_7 1_555 1_555
H68_6 C104_6 1_555 1_555
N12_3 C103_7 1_555 1_555
C77_7 C80_6 1_555 1_555
C95_7 C98_6 1_555 1_555
C104_6 N12_3 1_555 1_555
O27_4 C97_7 1_555 1_555
O28_4 C97_7 1_555 1_555
C62_8 C59_8 1_555 1_555
C63_8 C59_8 1_555 1_555
C66_8 C62_8 1_555 1_555
H39_8 C62_8 1_555 1_555
H40_8 C63_8 1_555 1_555
C67_8 C63_8 1_555 1_555
C71_8 C66_8 1_555 1_555
H44_8 C66_8 1_555 1_555
H45_8 C67_8 1_555 1_555
N13_8 C71_8 1_555 1_555
N15_8 N13_8 1_555 1_555
C78_8 N15_8 1_555 1_555
C81_8 C78_8 1_555 1_555
C82_8 C78_8 1_555 1_555
H52_8 C81_8 1_555 1_555
C86_8 C81_8 1_555 1_555
C87_8 C82_8 1_555 1_555
H53_8 C82_8 1_555 1_555
H56_8 C86_8 1_555 1_555
C92_8 C86_8 1_555 1_555
H57_8 C87_8 1_555 1_555
C96_8 C92_8 1_555 1_555
O21_4 C96_8 1_555 1_555
O17_4 C96_8 1_555 1_555
C67_8 C71_8 1_555 1_555
C87_8 C92_8 1_555 1_555
C53_8 H35_8 1_555 1_555
C57_8 C53_8 1_555 1_555
H37_8 C57_8 1_555 1_555
O23_8 C70_8 1_555 1_555
C74_8 C73_8 1_555 1_555
C75_8 C73_8 1_555 1_555
H48_8 C74_8 1_555 1_555
C76_8 C74_8 1_555 1_555
C77_8 C75_8 1_555 1_555
H49_8 C75_8 1_555 1_555
H51_8 C77_8 1_555 1_555
C95_8 C91_8 1_555 1_555
H61_8 C91_8 1_555 1_555
H63_8 C95_8 1_555 1_555
C100_8 N17_8 1_555 1_555
H64_8 N17_8 1_555 1_555
C101_8 C100_8 1_555 1_555
H65_8 C101_8 1_555 1_555
C103_8 C101_8 1_555 1_555
H67_8 C103_8 1_555 1_555
N12_4 C103_8 1_555 1_555
Zn11_2 N10_8 1_555 1_555
O15_8 Zn11_2 1_555 1_555
O16_8 Zn11_2 1_555 1_555
C54_8 N10_8 1_555 1_555
C55_8 O15_8 1_555 1_555
C56_8 O16_8 1_555 1_555
C58_8 C54_8 1_555 1_555
H36_8 C54_8 1_555 1_555
O19_8 C55_8 1_555 1_555
C60_8 C56_8 1_555 1_555
O20_8 C56_8 1_555 1_555
H38_8 C58_8 1_555 1_555
Zn14_4 O19_8 1_555 1_555
C64_8 C60_8 1_555 1_555
C65_8 C60_8 1_555 1_555
N11_8 C61_8 1_555 1_555
C68_8 C64_8 1_555 1_555
H41_8 C64_8 1_555 1_555
H42_8 C65_8 1_555 1_555
C69_8 C65_8 1_555 1_555
H43_8 N11_8 1_555 1_555
C72_8 C68_8 1_555 1_555
H46_8 C68_8 1_555 1_555
H47_8 C69_8 1_555 1_555
N14_8 C72_8 1_555 1_555
N16_8 N14_8 1_555 1_555
C79_8 N16_8 1_555 1_555
C83_8 C79_8 1_555 1_555
C84_8 C79_8 1_555 1_555
H54_8 C83_8 1_555 1_555
C88_8 C83_8 1_555 1_555
C89_8 C84_8 1_555 1_555
H55_8 C84_8 1_555 1_555
H58_8 C88_8 1_555 1_555
C93_8 C88_8 1_555 1_555
H59_8 C89_8 1_555 1_555
C97_8 C93_8 1_555 1_555
O22_4 C97_8 1_555 1_555
O18_4 C97_8 1_555 1_555
C58_8 C61_8 1_555 1_555
O20_8 Zn14_4 1_555 1_555
C69_8 C72_8 1_555 1_555
C89_8 C93_8 1_555 1_555
C85_7 C80_7 1_555 1_555
C90_7 C85_7 1_555 1_555
H60_7 C90_7 1_555 1_555
C94_7 C90_7 1_555 1_555
H62_7 C94_7 1_555 1_555
C98_7 C94_7 1_555 1_555
C99_7 C98_7 1_555 1_555
O24_7 C99_7 1_555 1_555
C104_7 C102_7 1_555 1_555
H66_7 C102_7 1_555 1_555
H68_7 C104_7 1_555 1_555
C85_8 C80_8 1_555 1_555
C90_8 C85_8 1_555 1_555
H60_8 C90_8 1_555 1_555
C94_8 C90_8 1_555 1_555
H62_8 C94_8 1_555 1_555
C98_8 C94_8 1_555 1_555
C99_8 C98_8 1_555 1_555
O24_8 C99_8 1_555 1_555
C104_8 C102_8 1_555 1_555
H66_8 C102_8 1_555 1_555
H68_8 C104_8 1_555 1_555

#END
