
###############################################################################
#
# This file contains modified crystal structure data generated from the
# MOF subset of the Cambridge Structural Database (CSD) v543 
# hosted by the Cambridge Crystallographic Data Centre (CCDC).
#
# This work is licensed under the Creative Commons
# Attribution-NonCommercial-ShareAlike 4.0 International License.
# To view a copy of this license, visit
# http://creativecommons.org/licenses/by-nc-sa/4.0/
# or send a letter to
# Creative Commons, PO Box 1866, Mountain View, CA 94042, USA.
#
# CIF created using the CSD Python API on 29 September 2022
# The structure has been converted into the P1 space group
# The structure has a 3D framework
# The original CSD entry DUNZAQ is in the monoclinic crystal system
# The framework has been calculated to contain at least 10.0% void space
# The void calculation uses a probe of radius 1.32A, grid spacing 0.4
#
###############################################################################

data_DUNZAQ
_chemical_formula_moiety         '(C336 H264 Cd4 N8 O52)n'
_symmetry_cell_setting           triclinic
_symmetry_space_group_name_H-M   'P 1'
_symmetry_Int_Tables_number      1
_space_group_name_Hall           'P 1'
loop_
_symmetry_equiv_pos_site_id
_symmetry_equiv_pos_as_xyz
1 x,y,z
_cell_length_a                   21.8567(5)
_cell_length_b                   15.8075(3)
_cell_length_c                   23.8400(4)
_cell_angle_alpha                90
_cell_angle_beta                 105.512(2)
_cell_angle_gamma                90
_cell_volume                     7936.69
loop_
_atom_site_label
_atom_site_type_symbol
_atom_site_fract_x
_atom_site_fract_y
_atom_site_fract_z
Cd1 Cd 0.00084(2) 0.85007(2) 0.41945(2)
C2 C 0.04209(18) 0.3428(2) 0.09691(15)
C9 C 0.06579(18) 0.4254(2) 0.10223(14)
H7 H 0.1090 0.4342 0.1186
C33 C 0.02684(18) 0.4941(2) 0.08382(14)
H28 H 0.0440 0.5483 0.0880
C35 C 0.1197(2) 0.2799(3) 0.18217(15)
H30 H 0.1135 0.3273 0.2031
C36 C 0.08487(17) 0.2715(2) 0.12367(15)
C38 C 0.1352(2) 0.1351(2) 0.12232(17)
H31 H 0.1394 0.0856 0.1026
C39 C 0.09202(17) 0.1967(2) 0.09499(15)
C40 C 0.1721(2) 0.1475(3) 0.17908(18)
H32 H 0.2026 0.1078 0.1966
C41 C 0.1632(2) 0.2188(3) 0.20918(17)
H33 H 0.1864 0.2259 0.2477
O7 O 0.02920(16) 0.11004(18) 0.01979(12)
C42 C 0.05722(17) 0.1798(2) 0.03252(15)
O8 O 0.05672(12) 0.76658(16) 0.49432(10)
O9 O 0.06876(13) 0.86239(16) 0.36616(12)
O10 O 0.02920(16) 0.88996(18) 0.51979(12)
O5 O 0.05672(12) 0.23342(16) 0.99432(10)
Cd2 Cd 0.00084(2) 0.14993(2) 0.91945(2)
C8 C 0.76684(16) 0.6864(2) 0.91029(15)
H6 H 0.7738 0.7229 0.8821
C11 C 0.69116(17) 0.6066(2) 0.83127(15)
C12 C 0.74381(19) 0.5843(2) 0.99599(16)
C15 C 0.73029(18) 0.6120(2) 0.79346(15)
H12 H 0.7722 0.6291 0.8083
C16 C 0.60833(18) 0.5580(2) 0.74805(17)
H13 H 0.5671 0.5383 0.7328
C20 C 0.80282(17) 0.6952(2) 0.96725(15)
H18 H 0.8337 0.7372 0.9767
C22 C 0.70830(19) 0.5754(2) 0.93864(16)
H20 H 0.6756 0.5358 0.9297
C26 C 0.72032(17) 0.6241(2) 0.89411(15)
C27 C 0.62875(17) 0.5797(2) 0.80714(15)
C32 C 0.64801(19) 0.5653(2) 0.71188(16)
H27 H 0.6335 0.5518 0.6726
C34 C 0.7089(2) 0.5927(2) 0.73468(16)
H29 H 0.7360 0.5984 0.7108
O4 O 0.55702(16) 0.49980(19) 0.84348(15)
C37 C 0.58181(18) 0.5720(2) 0.84192(16)
O6 O 0.56876(13) 0.63761(16) 0.86616(12)
Cd3 Cd 0.50084(2) 0.64993(2) 0.91945(2)
C8_2 C 0.26684(16) 0.1864(2) 0.91029(15)
H6_2 H 0.2738 0.2229 0.8821
C11_2 C 0.19116(17) 0.1066(2) 0.83127(15)
C12_2 C 0.24381(19) 0.0843(2) 0.99599(16)
C15_2 C 0.23029(18) 0.1120(2) 0.79346(15)
H12_2 H 0.2722 0.1291 0.8083
C16_2 C 0.10833(18) 0.0580(2) 0.74805(17)
H13_2 H 0.0671 0.0383 0.7328
C20_2 C 0.30282(17) 0.1952(2) 0.96725(15)
H18_2 H 0.3337 0.2372 0.9767
C22_2 C 0.20830(19) 0.0754(2) 0.93864(16)
H20_2 H 0.1756 0.0358 0.9297
C26_2 C 0.22032(17) 0.1241(2) 0.89411(15)
C27_2 C 0.12875(17) 0.0797(2) 0.80714(15)
C32_2 C 0.14801(19) 0.0653(2) 0.71188(16)
H27_2 H 0.1335 0.0518 0.6726
C34_2 C 0.2089(2) 0.0927(2) 0.73468(16)
H29_2 H 0.2360 0.0984 0.7108
C37_2 C 0.08181(18) 0.0720(2) 0.84192(16)
O6_2 O 0.06876(13) 0.13761(16) 0.86616(12)
O4_2 O 0.05702(16) 0.99980(19) 0.84348(15)
O5_2 O 0.55672(12) 0.73342(16) 0.99432(10)
C2_2 C 0.04209(18) 0.6572(2) 0.59691(15)
C9_2 C 0.06579(18) 0.5746(2) 0.60223(14)
H7_2 H 0.1090 0.5658 0.6186
C33_2 C 0.02684(18) 0.5059(2) 0.58382(14)
H28_2 H 0.0440 0.4517 0.5880
C35_2 C 0.1197(2) 0.7201(3) 0.68217(15)
H30_2 H 0.1135 0.6727 0.7031
C36_2 C 0.08487(17) 0.7285(2) 0.62367(15)
C38_2 C 0.1352(2) 0.8649(2) 0.62232(17)
H31_2 H 0.1394 0.9144 0.6026
C39_2 C 0.09202(17) 0.8033(2) 0.59499(15)
C40_2 C 0.1721(2) 0.8525(3) 0.67908(18)
H32_2 H 0.2026 0.8922 0.6966
C41_2 C 0.1632(2) 0.7812(3) 0.70918(17)
H33_2 H 0.1864 0.7741 0.7477
C42_2 C 0.05722(17) 0.8202(2) 0.53252(15)
O1 O 0.46947(13) 0.51375(17) 0.90013(12)
H1 H 0.4945 0.4860 0.8816
H2 H 0.4747 0.4822 0.9327
O2 O 0.44762(12) 0.78466(17) 0.88271(10)
C1 C 0.29336(18) 0.8579(2) 0.51060(16)
N1 N 0.38326(14) 0.92385(18) 0.58853(11)
H3 H 0.3592 0.9746 0.5928
O3 O 0.39968(13) 0.67992(17) 0.91372(13)
C3 C 0.33650(18) 0.8509(2) 0.57127(15)
H4 H 0.3107 0.8481 0.5986
H5 H 0.3602 0.7984 0.5744
C4 C 0.39977(17) 0.8926(2) 0.69518(14)
C5 C 0.31477(18) 0.8556(2) 0.83689(15)
C6 C 0.33909(17) 0.8025(2) 0.88471(14)
C7 C 0.34520(16) 0.8676(2) 0.78826(14)
C8_3 C 0.26684(16) 0.8136(2) 0.41029(15)
H6_3 H 0.2738 0.7771 0.3821
C10 C 0.39966(17) 0.7538(2) 0.89366(13)
C11_3 C 0.19116(17) 0.8934(2) 0.33127(15)
C12_3 C 0.24381(19) 0.9157(2) 0.49599(16)
H8 H 0.2344 0.9487 0.5249
C14 C 0.41840(18) 0.9420(2) 0.54277(14)
H10 H 0.3878 0.9529 0.5057
H11 H 0.4430 0.8926 0.5382
C15_3 C 0.23029(18) 0.8880(2) 0.29346(15)
H12_3 H 0.2722 0.8709 0.3083
C16_3 C 0.10833(18) 0.9420(2) 0.24805(17)
H13_3 H 0.0671 0.9617 0.2328
C17 C 0.39190(18) 0.8117(2) 0.71479(15)
H14 H 0.4049 0.7651 0.6971
C18 C 0.43071(18) 0.9063(2) 0.64680(15)
H15 H 0.4599 0.9536 0.6567
H16 H 0.4553 0.8565 0.6432
C19 C 0.2496(2) 0.8353(3) 0.9225(2)
H17 H 0.2281 0.8286 0.9511
C20_3 C 0.30282(17) 0.8048(2) 0.46725(15)
H18_3 H 0.3337 0.7628 0.4767
C22_3 C 0.20830(19) 0.9246(2) 0.43864(16)
H20_3 H 0.1756 0.9642 0.4297
C23 C 0.25712(18) 0.8967(2) 0.83316(16)
H21 H 0.2399 0.9314 0.8014
C24 C 0.36460(17) 0.7996(2) 0.76081(14)
H22 H 0.3594 0.7449 0.7732
C25 C 0.37975(19) 0.9610(2) 0.72268(15)
C26_3 C 0.22032(17) 0.8759(2) 0.39411(15)
C27_3 C 0.12875(17) 0.9203(2) 0.30714(15)
C29 C 0.30632(19) 0.7933(3) 0.92732(16)
H24 H 0.3228 0.7586 0.9593
C30 C 0.2250(2) 0.8870(3) 0.87546(19)
H25 H 0.1869 0.9153 0.8721
C31 C 0.35286(18) 0.9487(2) 0.76839(14)
H26 H 0.3397 0.9952 0.7861
C32_3 C 0.14801(19) 0.9347(2) 0.21188(16)
H27_3 H 0.1335 0.9482 0.1726
H28_3 H 0.5440 0.9517 0.5880
C34_3 C 0.2089(2) 0.9073(2) 0.23468(16)
H29_3 H 0.2360 0.9016 0.2108
C37_3 C 0.08181(18) 0.9280(2) 0.34192(16)
H1_2 H 0.9945 0.0140 0.3816
H2_2 H 0.9747 0.0178 0.4327
O1_2 O 0.96947(13) 0.98625(17) 0.40013(12)
O2_2 O 0.94762(12) 0.71534(17) 0.38271(10)
C1_2 C 0.79336(18) 0.6421(2) 0.01060(16)
N1_2 N 0.88326(14) 0.57615(18) 0.08853(11)
H3_2 H 0.8592 0.5254 0.0928
O3_2 O 0.89968(13) 0.82008(17) 0.41372(13)
C3_2 C 0.83650(18) 0.6491(2) 0.07127(15)
H4_2 H 0.8107 0.6519 0.0986
H5_2 H 0.8602 0.7016 0.0744
C4_2 C 0.89977(17) 0.6074(2) 0.19518(14)
C5_2 C 0.81477(18) 0.6444(2) 0.33689(15)
C6_2 C 0.83909(17) 0.6975(2) 0.38471(14)
C7_2 C 0.84520(16) 0.6324(2) 0.28826(14)
C10_2 C 0.89966(17) 0.7462(2) 0.39366(13)
H8_2 H 0.7344 0.5513 0.0249
C13 C 0.93887(19) 0.4010(2) 0.05084(16)
H9 H 0.8961 0.3922 0.0325
C14_2 C 0.91840(18) 0.5580(2) 0.04277(14)
H10_2 H 0.8878 0.5471 0.0057
H11_2 H 0.9430 0.6074 0.0382
C17_2 C 0.89190(18) 0.6883(2) 0.21479(15)
H14_2 H 0.9049 0.7349 0.1971
C18_2 C 0.93071(18) 0.5937(2) 0.14680(15)
H15_2 H 0.9599 0.5464 0.1567
H16_2 H 0.9553 0.6435 0.1432
C19_2 C 0.7496(2) 0.6647(3) 0.4225(2)
H17_2 H 0.7281 0.6714 0.4511
C21 C 0.97792(19) 0.3320(2) 0.06940(17)
H19 H 0.9611 0.2777 0.0634
C23_2 C 0.75712(18) 0.6033(2) 0.33316(16)
H21_2 H 0.7399 0.5686 0.3014
C24_2 C 0.86460(17) 0.7004(2) 0.26081(14)
H22_2 H 0.8594 0.7551 0.2732
C25_2 C 0.87975(19) 0.5390(2) 0.22268(15)
H23 H 0.8845 0.4843 0.2101
C28 C 0.96210(17) 0.4831(2) 0.05903(13)
C29_2 C 0.80632(19) 0.7067(3) 0.42732(16)
H24_2 H 0.8228 0.7414 0.4593
C30_2 C 0.7250(2) 0.6130(3) 0.37546(19)
H25_2 H 0.6869 0.5847 0.3721
C31_2 C 0.85286(18) 0.5513(2) 0.26839(14)
H26_2 H 0.8397 0.5048 0.2861
H1_3 H 0.0055 0.0140 0.1184
H2_3 H 0.0253 0.0178 0.0673
O1_3 O 0.03053(13) 0.98625(17) 0.09987(12)
O2_3 O 0.05238(12) 0.71534(17) 0.11729(10)
C1_3 C 0.20664(18) 0.6421(2) 0.48940(16)
N1_3 N 0.11674(14) 0.57615(18) 0.41147(11)
H3_3 H 0.1408 0.5254 0.4072
O3_3 O 0.10032(13) 0.82008(17) 0.08628(13)
C3_3 C 0.16350(18) 0.6491(2) 0.42873(15)
H4_3 H 0.1893 0.6519 0.4014
H5_3 H 0.1398 0.7016 0.4256
C4_3 C 0.10023(17) 0.6074(2) 0.30482(14)
C5_3 C 0.18523(18) 0.6444(2) 0.16311(15)
C6_3 C 0.16091(17) 0.6975(2) 0.11529(14)
C7_3 C 0.15480(16) 0.6324(2) 0.21174(14)
C8_4 C 0.23316(16) 0.6864(2) 0.58971(15)
H6_4 H 0.2262 0.7229 0.6179
C10_3 C 0.10034(17) 0.7462(2) 0.10634(13)
C11_4 C 0.30884(17) 0.6066(2) 0.66873(15)
C12_4 C 0.25619(19) 0.5843(2) 0.50401(16)
H8_3 H 0.2656 0.5513 0.4751
C13_2 C 0.06113(19) 0.4010(2) 0.44916(16)
H9_2 H 0.1039 0.3922 0.4675
C14_3 C 0.08160(18) 0.5580(2) 0.45723(14)
H10_3 H 0.1122 0.5471 0.4943
H11_3 H 0.0570 0.6074 0.4618
C15_4 C 0.26971(18) 0.6120(2) 0.70654(15)
H12_4 H 0.2278 0.6291 0.6917
C16_4 C 0.39167(18) 0.5580(2) 0.75195(17)
H13_4 H 0.4329 0.5383 0.7672
C17_3 C 0.10810(18) 0.6883(2) 0.28521(15)
H14_3 H 0.0951 0.7349 0.3029
C18_3 C 0.06929(18) 0.5937(2) 0.35320(15)
H15_3 H 0.0401 0.5464 0.3433
H16_3 H 0.0447 0.6435 0.3568
C19_3 C 0.2504(2) 0.6647(3) 0.0775(2)
H17_3 H 0.2719 0.6714 0.0489
C20_4 C 0.19718(17) 0.6952(2) 0.53275(15)
H18_4 H 0.1663 0.7372 0.5233
C21_2 C 0.02208(19) 0.3320(2) 0.43060(17)
H19_2 H 0.0389 0.2777 0.4366
C22_4 C 0.29170(19) 0.5754(2) 0.56136(16)
H20_4 H 0.3244 0.5358 0.5703
C23_3 C 0.24288(18) 0.6033(2) 0.16684(16)
H21_3 H 0.2601 0.5686 0.1986
C24_3 C 0.13540(17) 0.7004(2) 0.23919(14)
H22_3 H 0.1406 0.7551 0.2268
C25_3 C 0.12025(19) 0.5390(2) 0.27732(15)
H23_2 H 0.1155 0.4843 0.2899
C26_4 C 0.27968(17) 0.6241(2) 0.60589(15)
C27_4 C 0.37125(17) 0.5797(2) 0.69286(15)
C28_2 C 0.03790(17) 0.4831(2) 0.44097(13)
C29_3 C 0.19368(19) 0.7067(3) 0.07268(16)
H24_3 H 0.1772 0.7414 0.0407
C30_3 C 0.2750(2) 0.6130(3) 0.12454(19)
H25_3 H 0.3131 0.5847 0.1279
C31_3 C 0.14714(18) 0.5513(2) 0.23161(14)
H26_3 H 0.1603 0.5048 0.2139
C32_4 C 0.35199(19) 0.5653(2) 0.78812(16)
H27_4 H 0.3665 0.5518 0.8274
C34_4 C 0.2911(2) 0.5927(2) 0.76532(16)
H29_4 H 0.2640 0.5984 0.7892
O4_3 O 0.44298(16) 0.49980(19) 0.65652(15)
C37_4 C 0.41819(18) 0.5720(2) 0.65808(16)
O6_3 O 0.43124(13) 0.63761(16) 0.63384(12)
Cd3_2 Cd 0.49916(2) 0.64993(2) 0.58055(2)
C2_3 C 0.45791(18) 0.8428(2) 0.40309(15)
C9_3 C 0.43421(18) 0.9254(2) 0.39777(14)
H7_3 H 0.3910 0.9342 0.3814
C13_3 C 0.56113(19) 0.9010(2) 0.44916(16)
H9_3 H 0.6039 0.8922 0.4675
C21_3 C 0.52208(19) 0.8320(2) 0.43060(17)
H19_3 H 0.5389 0.7777 0.4366
H23_3 H 0.6155 0.9843 0.2899
C28_3 C 0.53790(17) 0.9831(2) 0.44097(13)
C33_3 C 0.47316(18) 0.9941(2) 0.41618(14)
O4_4 O 0.94298(16) 0.99980(19) 0.65652(15)
C35_3 C 0.3803(2) 0.7799(3) 0.31783(15)
H30_3 H 0.3865 0.8273 0.2969
C36_3 C 0.41513(17) 0.7715(2) 0.37633(15)
C38_3 C 0.3648(2) 0.6351(2) 0.37768(17)
H31_3 H 0.3606 0.5856 0.3974
C39_3 C 0.40798(17) 0.6967(2) 0.40501(15)
C40_3 C 0.3279(2) 0.6475(3) 0.32092(18)
H32_3 H 0.2974 0.6078 0.3034
C41_3 C 0.3368(2) 0.7188(3) 0.29082(17)
H33_3 H 0.3136 0.7259 0.2523
O5_3 O 0.44328(12) 0.73342(16) 0.50568(10)
O7_2 O 0.47080(16) 0.61004(18) 0.48021(12)
C42_3 C 0.44278(17) 0.6798(2) 0.46748(15)
O1_4 O 0.53053(13) 0.51375(17) 0.59987(12)
H1_4 H 0.5055 0.4860 0.6184
H2_4 H 0.5253 0.4822 0.5673
O2_4 O 0.55238(12) 0.78466(17) 0.61729(10)
C1_4 C 0.70664(18) 0.8579(2) 0.98940(16)
N1_4 N 0.61674(14) 0.92385(18) 0.91147(11)
H3_4 H 0.6408 0.9746 0.9072
O3_4 O 0.60032(13) 0.67992(17) 0.58628(13)
C3_4 C 0.66350(18) 0.8509(2) 0.92873(15)
H4_4 H 0.6893 0.8481 0.9014
H5_4 H 0.6398 0.7984 0.9256
C4_4 C 0.60023(17) 0.8926(2) 0.80482(14)
C5_4 C 0.68523(18) 0.8556(2) 0.66311(15)
C6_4 C 0.66091(17) 0.8025(2) 0.61529(14)
C7_4 C 0.65480(16) 0.8676(2) 0.71174(14)
C10_4 C 0.60034(17) 0.7538(2) 0.60634(13)
H8_4 H 0.7656 0.9487 0.9751
C14_4 C 0.58160(18) 0.9420(2) 0.95723(14)
H10_4 H 0.6122 0.9529 0.9943
H11_4 H 0.5570 0.8926 0.9618
C17_4 C 0.60810(18) 0.8117(2) 0.78521(15)
H14_4 H 0.5951 0.7651 0.8029
C18_4 C 0.56929(18) 0.9063(2) 0.85320(15)
H15_4 H 0.5401 0.9536 0.8433
H16_4 H 0.5447 0.8565 0.8568
C19_4 C 0.7504(2) 0.8353(3) 0.5775(2)
H17_4 H 0.7719 0.8286 0.5489
C23_4 C 0.74288(18) 0.8967(2) 0.66684(16)
H21_4 H 0.7601 0.9314 0.6986
C24_4 C 0.63540(17) 0.7996(2) 0.73919(14)
H22_4 H 0.6406 0.7449 0.7268
C25_4 C 0.62025(19) 0.9610(2) 0.77732(15)
C29_4 C 0.69368(19) 0.7933(3) 0.57268(16)
H24_4 H 0.6772 0.7586 0.5407
C30_4 C 0.7750(2) 0.8870(3) 0.62454(19)
H25_4 H 0.8131 0.9153 0.6279
C31_4 C 0.64714(18) 0.9487(2) 0.73161(14)
H26_4 H 0.6603 0.9952 0.7139
H28_4 H 0.4560 0.9517 0.9120
Cd1_2 Cd 0.99916(2) 0.85007(2) 0.08055(2)
C2_4 C 0.95791(18) 0.3428(2) 0.40309(15)
C9_4 C 0.93421(18) 0.4254(2) 0.39777(14)
H7_4 H 0.8910 0.4342 0.3814
C33_4 C 0.97316(18) 0.4941(2) 0.41618(14)
H28_5 H 0.9560 0.5483 0.4120
C35_4 C 0.8803(2) 0.2799(3) 0.31783(15)
H30_4 H 0.8865 0.3273 0.2969
C36_4 C 0.91513(17) 0.2715(2) 0.37633(15)
C38_4 C 0.8648(2) 0.1351(2) 0.37768(17)
H31_4 H 0.8606 0.0856 0.3974
C39_4 C 0.90798(17) 0.1967(2) 0.40501(15)
C40_4 C 0.8279(2) 0.1475(3) 0.32092(18)
H32_4 H 0.7974 0.1078 0.3034
C41_4 C 0.8368(2) 0.2188(3) 0.29082(17)
H33_4 H 0.8136 0.2259 0.2523
O5_4 O 0.94328(12) 0.23342(16) 0.50568(10)
O7_3 O 0.97080(16) 0.11004(18) 0.48021(12)
C42_4 C 0.94278(17) 0.1798(2) 0.46748(15)
Cd2_2 Cd 0.99916(2) 0.14993(2) 0.58055(2)
O8_2 O 0.94328(12) 0.76658(16) 0.00568(10)
O9_2 O 0.93124(13) 0.86239(16) 0.13384(12)
O10_2 O 0.97080(16) 0.88996(18) 0.98021(12)
Cd1_3 Cd 0.49916(2) 0.35007(2) 0.08055(2)
O1_5 O 0.53053(13) 0.48625(17) 0.09987(12)
H1_5 H 0.5055 0.5140 0.1184
H2_5 H 0.5253 0.5178 0.0673
O2_5 O 0.55238(12) 0.21534(17) 0.11729(10)
C1_5 C 0.70664(18) 0.1421(2) 0.48940(16)
N1_5 N 0.61674(14) 0.07615(18) 0.41147(11)
H3_5 H 0.6408 0.0254 0.4072
O3_5 O 0.60032(13) 0.32008(17) 0.08628(13)
C3_5 C 0.66350(18) 0.1491(2) 0.42873(15)
H4_5 H 0.6893 0.1519 0.4014
H5_5 H 0.6398 0.2016 0.4256
C4_5 C 0.60023(17) 0.1074(2) 0.30482(14)
C5_5 C 0.68523(18) 0.1444(2) 0.16311(15)
C6_5 C 0.66091(17) 0.1975(2) 0.11529(14)
C7_5 C 0.65480(16) 0.1324(2) 0.21174(14)
C8_5 C 0.73316(16) 0.1864(2) 0.58971(15)
H6_5 H 0.7262 0.2229 0.6179
C10_5 C 0.60034(17) 0.2462(2) 0.10634(13)
C11_5 C 0.80884(17) 0.1066(2) 0.66873(15)
C12_5 C 0.75619(19) 0.0843(2) 0.50401(16)
H8_5 H 0.7656 0.0513 0.4751
C14_5 C 0.58160(18) 0.0580(2) 0.45723(14)
H10_5 H 0.6122 0.0471 0.4943
H11_5 H 0.5570 0.1074 0.4618
C15_5 C 0.76971(18) 0.1120(2) 0.70654(15)
H12_5 H 0.7278 0.1291 0.6917
C16_5 C 0.89167(18) 0.0580(2) 0.75195(17)
H13_5 H 0.9329 0.0383 0.7672
C17_5 C 0.60810(18) 0.1883(2) 0.28521(15)
H14_5 H 0.5951 0.2349 0.3029
C18_5 C 0.56929(18) 0.0937(2) 0.35320(15)
H15_5 H 0.5401 0.0464 0.3433
H16_5 H 0.5447 0.1435 0.3568
C19_5 C 0.7504(2) 0.1647(3) 0.0775(2)
H17_5 H 0.7719 0.1714 0.0489
C20_5 C 0.69718(17) 0.1952(2) 0.53275(15)
H18_5 H 0.6663 0.2372 0.5233
C22_5 C 0.79170(19) 0.0754(2) 0.56136(16)
H20_5 H 0.8244 0.0358 0.5703
C23_5 C 0.74288(18) 0.1033(2) 0.16684(16)
H21_5 H 0.7601 0.0686 0.1986
C24_5 C 0.63540(17) 0.2004(2) 0.23919(14)
H22_5 H 0.6406 0.2551 0.2268
C25_5 C 0.62025(19) 0.0390(2) 0.27732(15)
C26_5 C 0.77968(17) 0.1241(2) 0.60589(15)
C27_5 C 0.87125(17) 0.0797(2) 0.69286(15)
C29_5 C 0.69368(19) 0.2067(3) 0.07268(16)
H24_5 H 0.6772 0.2414 0.0407
C30_5 C 0.7750(2) 0.1130(3) 0.12454(19)
H25_5 H 0.8131 0.0847 0.1279
C31_5 C 0.64714(18) 0.0513(2) 0.23161(14)
H26_5 H 0.6603 0.0048 0.2139
C32_5 C 0.85199(19) 0.0653(2) 0.78812(16)
H27_5 H 0.8665 0.0518 0.8274
H28_6 H 0.4560 0.0483 0.4120
C34_5 C 0.7911(2) 0.0927(2) 0.76532(16)
H29_5 H 0.7640 0.0984 0.7892
C37_5 C 0.91819(18) 0.0720(2) 0.65808(16)
O6_4 O 0.93124(13) 0.13761(16) 0.63384(12)
O8_3 O 0.44328(12) 0.26658(16) 0.00568(10)
O9_3 O 0.43124(13) 0.36239(16) 0.13384(12)
C8_6 C 0.23316(16) 0.3136(2) 0.08971(15)
H6_6 H 0.2262 0.2771 0.1179
C11_6 C 0.30884(17) 0.3934(2) 0.16873(15)
C12_6 C 0.25619(19) 0.4157(2) 0.00401(16)
C15_6 C 0.26971(18) 0.3880(2) 0.20654(15)
H12_6 H 0.2278 0.3709 0.1917
C16_6 C 0.39167(18) 0.4420(2) 0.25195(17)
H13_6 H 0.4329 0.4617 0.2672
C20_6 C 0.19718(17) 0.3048(2) 0.03275(15)
H18_6 H 0.1663 0.2628 0.0233
C22_6 C 0.29170(19) 0.4246(2) 0.06136(16)
H20_6 H 0.3244 0.4642 0.0703
C26_6 C 0.27968(17) 0.3759(2) 0.10589(15)
C27_6 C 0.37125(17) 0.4203(2) 0.19286(15)
C32_6 C 0.35199(19) 0.4347(2) 0.28812(16)
H27_6 H 0.3665 0.4482 0.3274
C34_6 C 0.2911(2) 0.4073(2) 0.26532(16)
H29_6 H 0.2640 0.4016 0.2892
O4_5 O 0.44298(16) 0.50020(19) 0.15652(15)
C37_6 C 0.41819(18) 0.4280(2) 0.15808(16)
C2_5 C 0.95791(18) 0.6572(2) 0.90309(15)
C9_5 C 0.93421(18) 0.5746(2) 0.89777(14)
H7_5 H 0.8910 0.5658 0.8814
C33_5 C 0.97316(18) 0.5059(2) 0.91618(14)
H28_7 H 0.9560 0.4517 0.9120
C35_5 C 0.8803(2) 0.7201(3) 0.81783(15)
H30_5 H 0.8865 0.6727 0.7969
C36_5 C 0.91513(17) 0.7285(2) 0.87633(15)
C38_5 C 0.8648(2) 0.8649(2) 0.87768(17)
H31_5 H 0.8606 0.9144 0.8974
C39_5 C 0.90798(17) 0.8033(2) 0.90501(15)
C40_5 C 0.8279(2) 0.8525(3) 0.82092(18)
H32_5 H 0.7974 0.8922 0.8034
C41_5 C 0.8368(2) 0.7812(3) 0.79082(17)
H33_5 H 0.8136 0.7741 0.7523
C42_5 C 0.94278(17) 0.8202(2) 0.96748(15)
O4_6 O 0.94298(16) 0.00020(19) 0.15652(15)
C8_7 C 0.73316(16) 0.8136(2) 0.08971(15)
H6_7 H 0.7262 0.7771 0.1179
C11_7 C 0.80884(17) 0.8934(2) 0.16873(15)
C12_7 C 0.75619(19) 0.9157(2) 0.00401(16)
C15_7 C 0.76971(18) 0.8880(2) 0.20654(15)
H12_7 H 0.7278 0.8709 0.1917
C16_7 C 0.89167(18) 0.9420(2) 0.25195(17)
H13_7 H 0.9329 0.9617 0.2672
C20_7 C 0.69718(17) 0.8048(2) 0.03275(15)
H18_7 H 0.6663 0.7628 0.0233
C22_7 C 0.79170(19) 0.9246(2) 0.06136(16)
H20_7 H 0.8244 0.9642 0.0703
C26_7 C 0.77968(17) 0.8759(2) 0.10589(15)
C27_7 C 0.87125(17) 0.9203(2) 0.19286(15)
C32_7 C 0.85199(19) 0.9347(2) 0.28812(16)
H27_7 H 0.8665 0.9482 0.3274
C34_7 C 0.7911(2) 0.9073(2) 0.26532(16)
H29_7 H 0.7640 0.9016 0.2892
C37_7 C 0.91819(18) 0.9280(2) 0.15808(16)
Cd1_4 Cd 0.50084(2) 0.35007(2) 0.41945(2)
O1_6 O 0.46947(13) 0.48625(17) 0.40013(12)
H1_6 H 0.4945 0.5140 0.3816
H2_6 H 0.4747 0.5178 0.4327
O2_6 O 0.44762(12) 0.21534(17) 0.38271(10)
C1_6 C 0.29336(18) 0.1421(2) 0.01060(16)
N1_6 N 0.38326(14) 0.07615(18) 0.08853(11)
H3_6 H 0.3592 0.0254 0.0928
O3_6 O 0.39968(13) 0.32008(17) 0.41372(13)
C3_6 C 0.33650(18) 0.1491(2) 0.07127(15)
H4_6 H 0.3107 0.1519 0.0986
H5_6 H 0.3602 0.2016 0.0744
C4_6 C 0.39977(17) 0.1074(2) 0.19518(14)
C5_6 C 0.31477(18) 0.1444(2) 0.33689(15)
C6_6 C 0.33909(17) 0.1975(2) 0.38471(14)
C7_6 C 0.34520(16) 0.1324(2) 0.28826(14)
C10_6 C 0.39966(17) 0.2462(2) 0.39366(13)
H8_6 H 0.2344 0.0513 0.0249
C14_6 C 0.41840(18) 0.0580(2) 0.04277(14)
H10_6 H 0.3878 0.0471 0.0057
H11_6 H 0.4430 0.1074 0.0382
C17_6 C 0.39190(18) 0.1883(2) 0.21479(15)
H14_6 H 0.4049 0.2349 0.1971
C18_6 C 0.43071(18) 0.0937(2) 0.14680(15)
H15_6 H 0.4599 0.0464 0.1567
H16_6 H 0.4553 0.1435 0.1432
C19_6 C 0.2496(2) 0.1647(3) 0.4225(2)
H17_6 H 0.2281 0.1714 0.4511
C23_6 C 0.25712(18) 0.1033(2) 0.33316(16)
H21_6 H 0.2399 0.0686 0.3014
C24_6 C 0.36460(17) 0.2004(2) 0.26081(14)
H22_6 H 0.3594 0.2551 0.2732
C25_6 C 0.37975(19) 0.0390(2) 0.22268(15)
C29_6 C 0.30632(19) 0.2067(3) 0.42732(16)
H24_6 H 0.3228 0.2414 0.4593
C30_6 C 0.2250(2) 0.1130(3) 0.37546(19)
H25_6 H 0.1869 0.0847 0.3721
C31_6 C 0.35286(18) 0.0513(2) 0.26839(14)
H26_6 H 0.3397 0.0048 0.2861
H28_8 H 0.5440 0.0483 0.0880
O8_4 O 0.55672(12) 0.26658(16) 0.49432(10)
O9_4 O 0.56876(13) 0.36239(16) 0.36616(12)
O10_3 O 0.52920(16) 0.38996(18) 0.51979(12)
O1_7 O 0.96947(13) 0.01375(17) 0.90013(12)
O2_7 O 0.94762(12) 0.28466(17) 0.88271(10)
C1_7 C 0.79336(18) 0.3579(2) 0.51060(16)
N1_7 N 0.88326(14) 0.42385(18) 0.58853(11)
H3_7 H 0.8592 0.4746 0.5928
O3_7 O 0.89968(13) 0.17992(17) 0.91372(13)
C3_7 C 0.83650(18) 0.3509(2) 0.57127(15)
H4_7 H 0.8107 0.3481 0.5986
H5_7 H 0.8602 0.2984 0.5744
C4_7 C 0.89977(17) 0.3926(2) 0.69518(14)
C5_7 C 0.81477(18) 0.3556(2) 0.83689(15)
C6_7 C 0.83909(17) 0.3025(2) 0.88471(14)
C7_7 C 0.84520(16) 0.3676(2) 0.78826(14)
C8_8 C 0.76684(16) 0.3136(2) 0.41029(15)
H6_8 H 0.7738 0.2771 0.3821
C10_7 C 0.89966(17) 0.2538(2) 0.89366(13)
C11_8 C 0.69116(17) 0.3934(2) 0.33127(15)
C12_8 C 0.74381(19) 0.4157(2) 0.49599(16)
H8_7 H 0.7344 0.4487 0.5249
C13_4 C 0.93887(19) 0.5990(2) 0.55084(16)
H9_4 H 0.8961 0.6078 0.5325
C14_7 C 0.91840(18) 0.4420(2) 0.54277(14)
H10_7 H 0.8878 0.4529 0.5057
H11_7 H 0.9430 0.3926 0.5382
C15_8 C 0.73029(18) 0.3880(2) 0.29346(15)
H12_8 H 0.7722 0.3709 0.3083
C16_8 C 0.60833(18) 0.4420(2) 0.24805(17)
H13_8 H 0.5671 0.4617 0.2328
C17_7 C 0.89190(18) 0.3117(2) 0.71479(15)
H14_7 H 0.9049 0.2651 0.6971
C18_7 C 0.93071(18) 0.4063(2) 0.64680(15)
H15_7 H 0.9599 0.4536 0.6567
H16_7 H 0.9553 0.3565 0.6432
C19_7 C 0.7496(2) 0.3353(3) 0.9225(2)
H17_7 H 0.7281 0.3286 0.9511
C20_8 C 0.80282(17) 0.3048(2) 0.46725(15)
H18_8 H 0.8337 0.2628 0.4767
C21_4 C 0.97792(19) 0.6680(2) 0.56940(17)
H19_4 H 0.9611 0.7223 0.5634
C22_8 C 0.70830(19) 0.4246(2) 0.43864(16)
H20_8 H 0.6756 0.4642 0.4297
C23_7 C 0.75712(18) 0.3967(2) 0.83316(16)
H21_7 H 0.7399 0.4314 0.8014
C24_7 C 0.86460(17) 0.2996(2) 0.76081(14)
H22_7 H 0.8594 0.2449 0.7732
C25_7 C 0.87975(19) 0.4610(2) 0.72268(15)
H23_4 H 0.8845 0.5157 0.7101
C26_8 C 0.72032(17) 0.3759(2) 0.39411(15)
C27_8 C 0.62875(17) 0.4203(2) 0.30714(15)
C28_4 C 0.96210(17) 0.5169(2) 0.55903(13)
C29_7 C 0.80632(19) 0.2933(3) 0.92732(16)
H24_7 H 0.8228 0.2586 0.9593
C30_7 C 0.7250(2) 0.3870(3) 0.87546(19)
H25_7 H 0.6869 0.4153 0.8721
C31_7 C 0.85286(18) 0.4487(2) 0.76839(14)
H26_7 H 0.8397 0.4952 0.7861
C32_8 C 0.64801(19) 0.4347(2) 0.21188(16)
H27_8 H 0.6335 0.4482 0.1726
C34_8 C 0.7089(2) 0.4073(2) 0.23468(16)
H29_8 H 0.7360 0.4016 0.2108
O4_7 O 0.55702(16) 0.50020(19) 0.34348(15)
C37_8 C 0.58181(18) 0.4280(2) 0.34192(16)
C2_6 C 0.54209(18) 0.1572(2) 0.59691(15)
C9_6 C 0.56579(18) 0.0746(2) 0.60223(14)
H7_6 H 0.6090 0.0658 0.6186
C13_5 C 0.43887(19) 0.0990(2) 0.55084(16)
H9_5 H 0.3961 0.1078 0.5325
C21_5 C 0.47792(19) 0.1680(2) 0.56940(17)
H19_5 H 0.4611 0.2223 0.5634
H23_5 H 0.3845 0.0157 0.7101
C28_5 C 0.46210(17) 0.0169(2) 0.55903(13)
C33_6 C 0.52684(18) 0.0059(2) 0.58382(14)
O4_8 O 0.05702(16) 0.00020(19) 0.34348(15)
C35_6 C 0.6197(2) 0.2201(3) 0.68217(15)
H30_6 H 0.6135 0.1727 0.7031
C36_6 C 0.58487(17) 0.2285(2) 0.62367(15)
C38_6 C 0.6352(2) 0.3649(2) 0.62232(17)
H31_6 H 0.6394 0.4144 0.6026
C39_6 C 0.59202(17) 0.3033(2) 0.59499(15)
C40_6 C 0.6721(2) 0.3525(3) 0.67908(18)
H32_6 H 0.7026 0.3922 0.6966
C41_6 C 0.6632(2) 0.2812(3) 0.70918(17)
H33_6 H 0.6864 0.2741 0.7477
C42_6 C 0.55722(17) 0.3202(2) 0.53252(15)
C2_7 C 0.54209(18) 0.8428(2) 0.09691(15)
C9_7 C 0.56579(18) 0.9254(2) 0.10223(14)
H7_7 H 0.6090 0.9342 0.1186
C13_6 C 0.43887(19) 0.9010(2) 0.05084(16)
H9_6 H 0.3961 0.8922 0.0325
C21_6 C 0.47792(19) 0.8320(2) 0.06940(17)
H19_6 H 0.4611 0.7777 0.0634
H23_6 H 0.3845 0.9843 0.2101
C28_6 C 0.46210(17) 0.9831(2) 0.05903(13)
C33_7 C 0.52684(18) 0.9941(2) 0.08382(14)
C35_7 C 0.6197(2) 0.7799(3) 0.18217(15)
H30_7 H 0.6135 0.8273 0.2031
C36_7 C 0.58487(17) 0.7715(2) 0.12367(15)
C38_7 C 0.6352(2) 0.6351(2) 0.12232(17)
H31_7 H 0.6394 0.5856 0.1026
C39_7 C 0.59202(17) 0.6967(2) 0.09499(15)
C40_7 C 0.6721(2) 0.6475(3) 0.17908(18)
H32_7 H 0.7026 0.6078 0.1966
C41_7 C 0.6632(2) 0.7188(3) 0.20918(17)
H33_7 H 0.6864 0.7259 0.2477
O7_4 O 0.52920(16) 0.61004(18) 0.01979(12)
C42_7 C 0.55722(17) 0.6798(2) 0.03252(15)
O10_4 O 0.47080(16) 0.38996(18) 0.98021(12)
C2_8 C 0.45791(18) 0.1572(2) 0.90309(15)
C9_8 C 0.43421(18) 0.0746(2) 0.89777(14)
H7_8 H 0.3910 0.0658 0.8814
C13_7 C 0.56113(19) 0.0990(2) 0.94916(16)
H9_7 H 0.6039 0.1078 0.9675
C21_7 C 0.52208(19) 0.1680(2) 0.93060(17)
H19_7 H 0.5389 0.2223 0.9366
H23_7 H 0.6155 0.0157 0.7899
C28_7 C 0.53790(17) 0.0169(2) 0.94097(13)
C33_8 C 0.47316(18) 0.0059(2) 0.91618(14)
C35_8 C 0.3803(2) 0.2201(3) 0.81783(15)
H30_8 H 0.3865 0.1727 0.7969
C36_8 C 0.41513(17) 0.2285(2) 0.87633(15)
C38_8 C 0.3648(2) 0.3649(2) 0.87768(17)
H31_8 H 0.3606 0.4144 0.8974
C39_8 C 0.40798(17) 0.3033(2) 0.90501(15)
C40_8 C 0.3279(2) 0.3525(3) 0.82092(18)
H32_8 H 0.2974 0.3922 0.8034
C41_8 C 0.3368(2) 0.2812(3) 0.79082(17)
H33_8 H 0.3136 0.2741 0.7523
C42_8 C 0.44278(17) 0.3202(2) 0.96748(15)
O1_8 O 0.03053(13) 0.01375(17) 0.59987(12)
O2_8 O 0.05238(12) 0.28466(17) 0.61729(10)
C1_8 C 0.20664(18) 0.3579(2) 0.98940(16)
N1_8 N 0.11674(14) 0.42385(18) 0.91147(11)
H3_8 H 0.1408 0.4746 0.9072
O3_8 O 0.10032(13) 0.17992(17) 0.58628(13)
C3_8 C 0.16350(18) 0.3509(2) 0.92873(15)
H4_8 H 0.1893 0.3481 0.9014
H5_8 H 0.1398 0.2984 0.9256
C4_8 C 0.10023(17) 0.3926(2) 0.80482(14)
C5_8 C 0.18523(18) 0.3556(2) 0.66311(15)
C6_8 C 0.16091(17) 0.3025(2) 0.61529(14)
C7_8 C 0.15480(16) 0.3676(2) 0.71174(14)
C10_8 C 0.10034(17) 0.2538(2) 0.60634(13)
H8_8 H 0.2656 0.4487 0.9751
C13_8 C 0.06113(19) 0.5990(2) 0.94916(16)
H9_8 H 0.1039 0.6078 0.9675
C14_8 C 0.08160(18) 0.4420(2) 0.95723(14)
H10_8 H 0.1122 0.4529 0.9943
H11_8 H 0.0570 0.3926 0.9618
C17_8 C 0.10810(18) 0.3117(2) 0.78521(15)
H14_8 H 0.0951 0.2651 0.8029
C18_8 C 0.06929(18) 0.4063(2) 0.85320(15)
H15_8 H 0.0401 0.4536 0.8433
H16_8 H 0.0447 0.3565 0.8568
C19_8 C 0.2504(2) 0.3353(3) 0.5775(2)
H17_8 H 0.2719 0.3286 0.5489
C21_8 C 0.02208(19) 0.6680(2) 0.93060(17)
H19_8 H 0.0389 0.7223 0.9366
C23_8 C 0.24288(18) 0.3967(2) 0.66684(16)
H21_8 H 0.2601 0.4314 0.6986
C24_8 C 0.13540(17) 0.2996(2) 0.73919(14)
H22_8 H 0.1406 0.2449 0.7268
C25_8 C 0.12025(19) 0.4610(2) 0.77732(15)
H23_8 H 0.1155 0.5157 0.7899
C28_8 C 0.03790(17) 0.5169(2) 0.94097(13)
C29_8 C 0.19368(19) 0.2933(3) 0.57268(16)
H24_8 H 0.1772 0.2586 0.5407
C30_8 C 0.2750(2) 0.3870(3) 0.62454(19)
H25_8 H 0.3131 0.4153 0.6279
C31_8 C 0.14714(18) 0.4487(2) 0.73161(14)
H26_8 H 0.1603 0.4952 0.7139
H1_7 H 0.0055 0.9860 0.6184
H2_7 H 0.0253 0.9822 0.5673
H1_8 H 0.9945 0.9860 0.8816
H2_8 H 0.9747 0.9822 0.9327
loop_
_geom_bond_atom_site_label_1
_geom_bond_atom_site_label_2
_geom_bond_site_symmetry_1
_geom_bond_site_symmetry_2
C2 C9 1_555 1_555
C9 H7 1_555 1_555
C33 C9 1_555 1_555
H28 C33 1_555 1_555
C35 H30 1_555 1_555
C36 C2 1_555 1_555
C38 H31 1_555 1_555
C39 C36 1_555 1_555
C40 C38 1_555 1_555
H32 C40 1_555 1_555
C41 C35 1_555 1_555
H33 C41 1_555 1_555
O7 C42 1_555 1_555
C42 C39 1_555 1_555
O8 Cd1 1_555 1_555
O9 Cd1 1_555 1_555
O10 Cd1 1_555 1_555
C35 C36 1_555 1_555
C38 C39 1_555 1_555
C40 C41 1_555 1_555
Cd2 O5 1_555 1_555
C8 H6 1_555 1_555
C11 C15 1_555 1_555
C15 H12 1_555 1_555
C16 H13 1_555 1_555
H18 C20 1_555 1_555
C22 C12 1_555 1_555
H20 C22 1_555 1_555
C26 C8 1_555 1_555
C27 C11 1_555 1_555
C32 C16 1_555 1_555
H27 C32 1_555 1_555
C34 C15 1_555 1_555
H29 C34 1_555 1_555
O4 C37 1_555 1_555
C37 C27 1_555 1_555
O6 C37 1_555 1_555
Cd3 O6 1_555 1_555
C8 C20 1_555 1_555
C11 C26 1_555 1_555
C16 C27 1_555 1_555
C22 C26 1_555 1_555
C32 C34 1_555 1_555
C8_2 H6_2 1_555 1_555
C11_2 C15_2 1_555 1_555
C15_2 H12_2 1_555 1_555
C16_2 H13_2 1_555 1_555
H18_2 C20_2 1_555 1_555
C22_2 C12_2 1_555 1_555
H20_2 C22_2 1_555 1_555
C26_2 C8_2 1_555 1_555
C27_2 C11_2 1_555 1_555
C32_2 C16_2 1_555 1_555
H27_2 C32_2 1_555 1_555
C34_2 C15_2 1_555 1_555
H29_2 C34_2 1_555 1_555
C37_2 C27_2 1_555 1_555
O6_2 C37_2 1_555 1_555
Cd2 O6_2 1_555 1_555
C8_2 C20_2 1_555 1_555
C11_2 C26_2 1_555 1_555
C16_2 C27_2 1_555 1_555
C22_2 C26_2 1_555 1_555
C32_2 C34_2 1_555 1_555
Cd3 O5_2 1_555 1_555
C2_2 C9_2 1_555 1_555
C9_2 H7_2 1_555 1_555
C33_2 C9_2 1_555 1_555
H28_2 C33_2 1_555 1_555
C35_2 H30_2 1_555 1_555
C36_2 C2_2 1_555 1_555
C38_2 H31_2 1_555 1_555
C39_2 C36_2 1_555 1_555
C40_2 C38_2 1_555 1_555
H32_2 C40_2 1_555 1_555
C41_2 C35_2 1_555 1_555
H33_2 C41_2 1_555 1_555
O8 C42_2 1_555 1_555
O10 C42_2 1_555 1_555
C42_2 C39_2 1_555 1_555
C35_2 C36_2 1_555 1_555
C38_2 C39_2 1_555 1_555
C40_2 C41_2 1_555 1_555
Cd3 O1 1_555 1_555
O1 H1 1_555 1_555
H2 O1 1_555 1_555
O2 Cd3 1_555 1_555
C1 C3 1_555 1_555
N1 H3 1_555 1_555
O3 Cd3 1_555 1_555
C3 N1 1_555 1_555
H4 C3 1_555 1_555
H5 C3 1_555 1_555
C4 C17 1_555 1_555
C5 C6 1_555 1_555
C6 C10 1_555 1_555
C7 C5 1_555 1_555
C8_3 H6_3 1_555 1_555
C10 O2 1_555 1_555
C11_3 C15_3 1_555 1_555
C12_3 C1 1_555 1_555
H8 C12_3 1_555 1_555
C14 N1 1_555 1_555
H10 C14 1_555 1_555
H11 C14 1_555 1_555
C15_3 H12_3 1_555 1_555
C16_3 H13_3 1_555 1_555
C17 H14 1_555 1_555
C18 N1 1_555 1_555
H15 C18 1_555 1_555
H16 C18 1_555 1_555
C19 H17 1_555 1_555
C20_3 C1 1_555 1_555
H18_3 C20_3 1_555 1_555
C22_3 C12_3 1_555 1_555
H20_3 C22_3 1_555 1_555
C23 C5 1_555 1_555
H21 C23 1_555 1_555
C24 C7 1_555 1_555
H22 C24 1_555 1_555
C25 C4 1_555 1_555
C26_3 C8_3 1_555 1_555
C27_3 C11_3 1_555 1_555
C29 C6 1_555 1_555
H24 C29 1_555 1_555
C30 C19 1_555 1_555
H25 C30 1_555 1_555
C31 C7 1_555 1_555
H26 C31 1_555 1_555
C32_3 C16_3 1_555 1_555
H27_3 C32_3 1_555 1_555
C34_3 C15_3 1_555 1_555
H29_3 C34_3 1_555 1_555
C37_3 C27_3 1_555 1_555
O9 C37_3 1_555 1_555
O3 C10 1_555 1_555
C4 C18 1_555 1_555
C8_3 C20_3 1_555 1_555
C11_3 C26_3 1_555 1_555
C16_3 C27_3 1_555 1_555
C17 C24 1_555 1_555
C19 C29 1_555 1_555
C22_3 C26_3 1_555 1_555
C23 C30 1_555 1_555
C25 C31 1_555 1_555
C32_3 C34_3 1_555 1_555
C1_2 C3_2 1_555 1_555
N1_2 H3_2 1_555 1_555
C3_2 N1_2 1_555 1_555
H4_2 C3_2 1_555 1_555
H5_2 C3_2 1_555 1_555
C4_2 C17_2 1_555 1_555
C5_2 C6_2 1_555 1_555
C6_2 C10_2 1_555 1_555
C7_2 C5_2 1_555 1_555
C10_2 O2_2 1_555 1_555
C13 H9 1_555 1_555
C14_2 N1_2 1_555 1_555
H10_2 C14_2 1_555 1_555
H11_2 C14_2 1_555 1_555
C17_2 H14_2 1_555 1_555
C18_2 N1_2 1_555 1_555
H15_2 C18_2 1_555 1_555
H16_2 C18_2 1_555 1_555
C19_2 H17_2 1_555 1_555
H19 C21 1_555 1_555
C23_2 C5_2 1_555 1_555
H21_2 C23_2 1_555 1_555
C24_2 C7_2 1_555 1_555
H22_2 C24_2 1_555 1_555
C25_2 C4_2 1_555 1_555
H23 C25_2 1_555 1_555
C28 C13 1_555 1_555
C29_2 C6_2 1_555 1_555
H24_2 C29_2 1_555 1_555
C30_2 C19_2 1_555 1_555
H25_2 C30_2 1_555 1_555
C31_2 C7_2 1_555 1_555
H26_2 C31_2 1_555 1_555
O3_2 C10_2 1_555 1_555
C4_2 C18_2 1_555 1_555
C13 C21 1_555 1_555
C14_2 C28 1_555 1_555
C17_2 C24_2 1_555 1_555
C19_2 C29_2 1_555 1_555
C23_2 C30_2 1_555 1_555
C25_2 C31_2 1_555 1_555
C1_3 C3_3 1_555 1_555
N1_3 H3_3 1_555 1_555
C3_3 N1_3 1_555 1_555
H4_3 C3_3 1_555 1_555
H5_3 C3_3 1_555 1_555
C4_3 C17_3 1_555 1_555
C5_3 C6_3 1_555 1_555
C6_3 C10_3 1_555 1_555
C7_3 C5_3 1_555 1_555
C8_4 H6_4 1_555 1_555
C10_3 O2_3 1_555 1_555
C11_4 C15_4 1_555 1_555
C12_4 C1_3 1_555 1_555
H8_3 C12_4 1_555 1_555
C13_2 H9_2 1_555 1_555
C14_3 N1_3 1_555 1_555
H10_3 C14_3 1_555 1_555
H11_3 C14_3 1_555 1_555
C15_4 H12_4 1_555 1_555
C16_4 H13_4 1_555 1_555
C17_3 H14_3 1_555 1_555
C18_3 N1_3 1_555 1_555
H15_3 C18_3 1_555 1_555
H16_3 C18_3 1_555 1_555
C19_3 H17_3 1_555 1_555
C20_4 C1_3 1_555 1_555
H18_4 C20_4 1_555 1_555
H19_2 C21_2 1_555 1_555
C22_4 C12_4 1_555 1_555
H20_4 C22_4 1_555 1_555
C23_3 C5_3 1_555 1_555
H21_3 C23_3 1_555 1_555
C24_3 C7_3 1_555 1_555
H22_3 C24_3 1_555 1_555
C25_3 C4_3 1_555 1_555
H23_2 C25_3 1_555 1_555
C26_4 C8_4 1_555 1_555
C27_4 C11_4 1_555 1_555
C28_2 C13_2 1_555 1_555
C29_3 C6_3 1_555 1_555
H24_3 C29_3 1_555 1_555
C30_3 C19_3 1_555 1_555
H25_3 C30_3 1_555 1_555
C31_3 C7_3 1_555 1_555
H26_3 C31_3 1_555 1_555
C32_4 C16_4 1_555 1_555
H27_4 C32_4 1_555 1_555
C34_4 C15_4 1_555 1_555
H29_4 C34_4 1_555 1_555
O4_3 C37_4 1_555 1_555
C37_4 C27_4 1_555 1_555
O6_3 C37_4 1_555 1_555
Cd3_2 O6_3 1_555 1_555
O3_3 C10_3 1_555 1_555
C4_3 C18_3 1_555 1_555
C8_4 C20_4 1_555 1_555
C11_4 C26_4 1_555 1_555
C13_2 C21_2 1_555 1_555
C14_3 C28_2 1_555 1_555
C16_4 C27_4 1_555 1_555
C17_3 C24_3 1_555 1_555
C19_3 C29_3 1_555 1_555
C22_4 C26_4 1_555 1_555
C23_3 C30_3 1_555 1_555
C25_3 C31_3 1_555 1_555
C32_4 C34_4 1_555 1_555
C2_3 C9_3 1_555 1_555
C9_3 H7_3 1_555 1_555
C13_3 H9_3 1_555 1_555
C21_3 C2_3 1_555 1_555
H19_3 C21_3 1_555 1_555
C28_3 C13_3 1_555 1_555
C33_3 C9_3 1_555 1_555
C35_3 H30_3 1_555 1_555
C36_3 C2_3 1_555 1_555
C38_3 H31_3 1_555 1_555
C39_3 C36_3 1_555 1_555
C40_3 C38_3 1_555 1_555
H32_3 C40_3 1_555 1_555
C41_3 C35_3 1_555 1_555
H33_3 C41_3 1_555 1_555
O5_3 C42_3 1_555 1_555
O7_2 C42_3 1_555 1_555
C42_3 C39_3 1_555 1_555
Cd3_2 O5_3 1_555 1_555
C13_3 C21_3 1_555 1_555
C28_3 C33_3 1_555 1_555
C35_3 C36_3 1_555 1_555
C38_3 C39_3 1_555 1_555
C40_3 C41_3 1_555 1_555
O7_2 Cd3_2 1_555 1_555
Cd3_2 O1_4 1_555 1_555
O1_4 H1_4 1_555 1_555
H2_4 O1_4 1_555 1_555
O2_4 Cd3_2 1_555 1_555
C1_4 C3_4 1_555 1_555
N1_4 H3_4 1_555 1_555
O3_4 Cd3_2 1_555 1_555
C3_4 N1_4 1_555 1_555
H4_4 C3_4 1_555 1_555
H5_4 C3_4 1_555 1_555
C4_4 C17_4 1_555 1_555
C5_4 C6_4 1_555 1_555
C6_4 C10_4 1_555 1_555
C7_4 C5_4 1_555 1_555
C10_4 O2_4 1_555 1_555
C14_4 N1_4 1_555 1_555
H10_4 C14_4 1_555 1_555
H11_4 C14_4 1_555 1_555
C17_4 H14_4 1_555 1_555
C18_4 N1_4 1_555 1_555
H15_4 C18_4 1_555 1_555
H16_4 C18_4 1_555 1_555
C19_4 H17_4 1_555 1_555
C23_4 C5_4 1_555 1_555
H21_4 C23_4 1_555 1_555
C24_4 C7_4 1_555 1_555
H22_4 C24_4 1_555 1_555
C25_4 C4_4 1_555 1_555
C29_4 C6_4 1_555 1_555
H24_4 C29_4 1_555 1_555
C30_4 C19_4 1_555 1_555
H25_4 C30_4 1_555 1_555
C31_4 C7_4 1_555 1_555
H26_4 C31_4 1_555 1_555
O3_4 C10_4 1_555 1_555
C4_4 C18_4 1_555 1_555
C17_4 C24_4 1_555 1_555
C19_4 C29_4 1_555 1_555
C23_4 C30_4 1_555 1_555
C25_4 C31_4 1_555 1_555
C2_4 C9_4 1_555 1_555
C9_4 H7_4 1_555 1_555
C33_4 C9_4 1_555 1_555
H28_5 C33_4 1_555 1_555
C35_4 H30_4 1_555 1_555
C36_4 C2_4 1_555 1_555
C38_4 H31_4 1_555 1_555
C39_4 C36_4 1_555 1_555
C40_4 C38_4 1_555 1_555
H32_4 C40_4 1_555 1_555
C41_4 C35_4 1_555 1_555
H33_4 C41_4 1_555 1_555
O5_4 C42_4 1_555 1_555
O7_3 C42_4 1_555 1_555
C42_4 C39_4 1_555 1_555
Cd2_2 O5_4 1_555 1_555
O8_2 Cd1_2 1_555 1_555
O9_2 Cd1_2 1_555 1_555
C35_4 C36_4 1_555 1_555
C38_4 C39_4 1_555 1_555
C40_4 C41_4 1_555 1_555
O7_3 Cd2_2 1_555 1_555
Cd1_3 O1_5 1_555 1_555
O1_5 H1_5 1_555 1_555
H2_5 O1_5 1_555 1_555
O2_5 Cd1_3 1_555 1_555
C1_5 C3_5 1_555 1_555
N1_5 H3_5 1_555 1_555
O3_5 Cd1_3 1_555 1_555
C3_5 N1_5 1_555 1_555
H4_5 C3_5 1_555 1_555
H5_5 C3_5 1_555 1_555
C4_5 C17_5 1_555 1_555
C5_5 C6_5 1_555 1_555
C6_5 C10_5 1_555 1_555
C7_5 C5_5 1_555 1_555
C8_5 H6_5 1_555 1_555
C10_5 O2_5 1_555 1_555
C11_5 C15_5 1_555 1_555
C12_5 C1_5 1_555 1_555
H8_5 C12_5 1_555 1_555
C14_5 N1_5 1_555 1_555
H10_5 C14_5 1_555 1_555
H11_5 C14_5 1_555 1_555
C15_5 H12_5 1_555 1_555
C16_5 H13_5 1_555 1_555
C17_5 H14_5 1_555 1_555
C18_5 N1_5 1_555 1_555
H15_5 C18_5 1_555 1_555
H16_5 C18_5 1_555 1_555
C19_5 H17_5 1_555 1_555
C20_5 C1_5 1_555 1_555
H18_5 C20_5 1_555 1_555
C22_5 C12_5 1_555 1_555
H20_5 C22_5 1_555 1_555
C23_5 C5_5 1_555 1_555
H21_5 C23_5 1_555 1_555
C24_5 C7_5 1_555 1_555
H22_5 C24_5 1_555 1_555
C25_5 C4_5 1_555 1_555
C26_5 C8_5 1_555 1_555
C27_5 C11_5 1_555 1_555
C29_5 C6_5 1_555 1_555
H24_5 C29_5 1_555 1_555
C30_5 C19_5 1_555 1_555
H25_5 C30_5 1_555 1_555
C31_5 C7_5 1_555 1_555
H26_5 C31_5 1_555 1_555
C32_5 C16_5 1_555 1_555
H27_5 C32_5 1_555 1_555
C34_5 C15_5 1_555 1_555
H29_5 C34_5 1_555 1_555
C37_5 C27_5 1_555 1_555
O6_4 C37_5 1_555 1_555
Cd2_2 O6_4 1_555 1_555
O8_3 Cd1_3 1_555 1_555
O9_3 Cd1_3 1_555 1_555
O3_5 C10_5 1_555 1_555
C4_5 C18_5 1_555 1_555
C8_5 C20_5 1_555 1_555
C11_5 C26_5 1_555 1_555
C16_5 C27_5 1_555 1_555
C17_5 C24_5 1_555 1_555
C19_5 C29_5 1_555 1_555
C22_5 C26_5 1_555 1_555
C23_5 C30_5 1_555 1_555
C25_5 C31_5 1_555 1_555
C32_5 C34_5 1_555 1_555
C8_6 H6_6 1_555 1_555
C11_6 C15_6 1_555 1_555
C15_6 H12_6 1_555 1_555
C16_6 H13_6 1_555 1_555
H18_6 C20_6 1_555 1_555
C22_6 C12_6 1_555 1_555
H20_6 C22_6 1_555 1_555
C26_6 C8_6 1_555 1_555
C27_6 C11_6 1_555 1_555
C32_6 C16_6 1_555 1_555
H27_6 C32_6 1_555 1_555
C34_6 C15_6 1_555 1_555
H29_6 C34_6 1_555 1_555
O4_5 C37_6 1_555 1_555
C37_6 C27_6 1_555 1_555
O9_3 C37_6 1_555 1_555
C8_6 C20_6 1_555 1_555
C11_6 C26_6 1_555 1_555
C16_6 C27_6 1_555 1_555
C22_6 C26_6 1_555 1_555
C32_6 C34_6 1_555 1_555
C2_5 C9_5 1_555 1_555
C9_5 H7_5 1_555 1_555
C33_5 C9_5 1_555 1_555
H28_7 C33_5 1_555 1_555
C35_5 H30_5 1_555 1_555
C36_5 C2_5 1_555 1_555
C38_5 H31_5 1_555 1_555
C39_5 C36_5 1_555 1_555
C40_5 C38_5 1_555 1_555
H32_5 C40_5 1_555 1_555
C41_5 C35_5 1_555 1_555
H33_5 C41_5 1_555 1_555
O10_2 C42_5 1_555 1_555
C42_5 C39_5 1_555 1_555
C35_5 C36_5 1_555 1_555
C38_5 C39_5 1_555 1_555
C40_5 C41_5 1_555 1_555
C8_7 H6_7 1_555 1_555
C11_7 C15_7 1_555 1_555
C15_7 H12_7 1_555 1_555
C16_7 H13_7 1_555 1_555
H18_7 C20_7 1_555 1_555
C22_7 C12_7 1_555 1_555
H20_7 C22_7 1_555 1_555
C26_7 C8_7 1_555 1_555
C27_7 C11_7 1_555 1_555
C32_7 C16_7 1_555 1_555
H27_7 C32_7 1_555 1_555
C34_7 C15_7 1_555 1_555
H29_7 C34_7 1_555 1_555
C37_7 C27_7 1_555 1_555
O9_2 C37_7 1_555 1_555
C8_7 C20_7 1_555 1_555
C11_7 C26_7 1_555 1_555
C16_7 C27_7 1_555 1_555
C22_7 C26_7 1_555 1_555
C32_7 C34_7 1_555 1_555
Cd1_4 O1_6 1_555 1_555
O1_6 H1_6 1_555 1_555
H2_6 O1_6 1_555 1_555
O2_6 Cd1_4 1_555 1_555
C1_6 C3_6 1_555 1_555
N1_6 H3_6 1_555 1_555
O3_6 Cd1_4 1_555 1_555
C3_6 N1_6 1_555 1_555
H4_6 C3_6 1_555 1_555
H5_6 C3_6 1_555 1_555
C4_6 C17_6 1_555 1_555
C5_6 C6_6 1_555 1_555
C6_6 C10_6 1_555 1_555
C7_6 C5_6 1_555 1_555
C10_6 O2_6 1_555 1_555
C14_6 N1_6 1_555 1_555
H10_6 C14_6 1_555 1_555
H11_6 C14_6 1_555 1_555
C17_6 H14_6 1_555 1_555
C18_6 N1_6 1_555 1_555
H15_6 C18_6 1_555 1_555
H16_6 C18_6 1_555 1_555
C19_6 H17_6 1_555 1_555
C23_6 C5_6 1_555 1_555
H21_6 C23_6 1_555 1_555
C24_6 C7_6 1_555 1_555
H22_6 C24_6 1_555 1_555
C25_6 C4_6 1_555 1_555
C29_6 C6_6 1_555 1_555
H24_6 C29_6 1_555 1_555
C30_6 C19_6 1_555 1_555
H25_6 C30_6 1_555 1_555
C31_6 C7_6 1_555 1_555
H26_6 C31_6 1_555 1_555
O8_4 Cd1_4 1_555 1_555
O9_4 Cd1_4 1_555 1_555
O10_3 Cd1_4 1_555 1_555
O3_6 C10_6 1_555 1_555
C4_6 C18_6 1_555 1_555
C17_6 C24_6 1_555 1_555
C19_6 C29_6 1_555 1_555
C23_6 C30_6 1_555 1_555
C25_6 C31_6 1_555 1_555
C1_7 C3_7 1_555 1_555
N1_7 H3_7 1_555 1_555
C3_7 N1_7 1_555 1_555
H4_7 C3_7 1_555 1_555
H5_7 C3_7 1_555 1_555
C4_7 C17_7 1_555 1_555
C5_7 C6_7 1_555 1_555
C6_7 C10_7 1_555 1_555
C7_7 C5_7 1_555 1_555
C8_8 H6_8 1_555 1_555
C10_7 O2_7 1_555 1_555
C11_8 C15_8 1_555 1_555
C12_8 C1_7 1_555 1_555
H8_7 C12_8 1_555 1_555
C13_4 H9_4 1_555 1_555
C14_7 N1_7 1_555 1_555
H10_7 C14_7 1_555 1_555
H11_7 C14_7 1_555 1_555
C15_8 H12_8 1_555 1_555
C16_8 H13_8 1_555 1_555
C17_7 H14_7 1_555 1_555
C18_7 N1_7 1_555 1_555
H15_7 C18_7 1_555 1_555
H16_7 C18_7 1_555 1_555
C19_7 H17_7 1_555 1_555
C20_8 C1_7 1_555 1_555
H18_8 C20_8 1_555 1_555
H19_4 C21_4 1_555 1_555
C22_8 C12_8 1_555 1_555
H20_8 C22_8 1_555 1_555
C23_7 C5_7 1_555 1_555
H21_7 C23_7 1_555 1_555
C24_7 C7_7 1_555 1_555
H22_7 C24_7 1_555 1_555
C25_7 C4_7 1_555 1_555
H23_4 C25_7 1_555 1_555
C26_8 C8_8 1_555 1_555
C27_8 C11_8 1_555 1_555
C28_4 C13_4 1_555 1_555
C29_7 C6_7 1_555 1_555
H24_7 C29_7 1_555 1_555
C30_7 C19_7 1_555 1_555
H25_7 C30_7 1_555 1_555
C31_7 C7_7 1_555 1_555
H26_7 C31_7 1_555 1_555
C32_8 C16_8 1_555 1_555
H27_8 C32_8 1_555 1_555
C34_8 C15_8 1_555 1_555
H29_8 C34_8 1_555 1_555
O4_7 C37_8 1_555 1_555
C37_8 C27_8 1_555 1_555
O9_4 C37_8 1_555 1_555
O3_7 C10_7 1_555 1_555
C4_7 C18_7 1_555 1_555
C8_8 C20_8 1_555 1_555
C11_8 C26_8 1_555 1_555
C13_4 C21_4 1_555 1_555
C14_7 C28_4 1_555 1_555
C16_8 C27_8 1_555 1_555
C17_7 C24_7 1_555 1_555
C19_7 C29_7 1_555 1_555
C22_8 C26_8 1_555 1_555
C23_7 C30_7 1_555 1_555
C25_7 C31_7 1_555 1_555
C32_8 C34_8 1_555 1_555
C2_6 C9_6 1_555 1_555
C9_6 H7_6 1_555 1_555
C13_5 H9_5 1_555 1_555
C21_5 C2_6 1_555 1_555
H19_5 C21_5 1_555 1_555
C28_5 C13_5 1_555 1_555
C33_6 C9_6 1_555 1_555
C35_6 H30_6 1_555 1_555
C36_6 C2_6 1_555 1_555
C38_6 H31_6 1_555 1_555
C39_6 C36_6 1_555 1_555
C40_6 C38_6 1_555 1_555
H32_6 C40_6 1_555 1_555
C41_6 C35_6 1_555 1_555
H33_6 C41_6 1_555 1_555
O8_4 C42_6 1_555 1_555
O10_3 C42_6 1_555 1_555
C42_6 C39_6 1_555 1_555
C13_5 C21_5 1_555 1_555
C28_5 C33_6 1_555 1_555
C35_6 C36_6 1_555 1_555
C38_6 C39_6 1_555 1_555
C40_6 C41_6 1_555 1_555
C2_7 C9_7 1_555 1_555
C9_7 H7_7 1_555 1_555
C13_6 H9_6 1_555 1_555
C21_6 C2_7 1_555 1_555
H19_6 C21_6 1_555 1_555
C28_6 C13_6 1_555 1_555
C33_7 C9_7 1_555 1_555
C35_7 H30_7 1_555 1_555
C36_7 C2_7 1_555 1_555
C38_7 H31_7 1_555 1_555
C39_7 C36_7 1_555 1_555
C40_7 C38_7 1_555 1_555
H32_7 C40_7 1_555 1_555
C41_7 C35_7 1_555 1_555
H33_7 C41_7 1_555 1_555
O7_4 C42_7 1_555 1_555
C42_7 C39_7 1_555 1_555
C13_6 C21_6 1_555 1_555
C28_6 C33_7 1_555 1_555
C35_7 C36_7 1_555 1_555
C38_7 C39_7 1_555 1_555
C40_7 C41_7 1_555 1_555
C2_8 C9_8 1_555 1_555
C9_8 H7_8 1_555 1_555
C13_7 H9_7 1_555 1_555
C21_7 C2_8 1_555 1_555
H19_7 C21_7 1_555 1_555
C28_7 C13_7 1_555 1_555
C33_8 C9_8 1_555 1_555
C35_8 H30_8 1_555 1_555
C36_8 C2_8 1_555 1_555
C38_8 H31_8 1_555 1_555
C39_8 C36_8 1_555 1_555
C40_8 C38_8 1_555 1_555
H32_8 C40_8 1_555 1_555
C41_8 C35_8 1_555 1_555
H33_8 C41_8 1_555 1_555
O10_4 C42_8 1_555 1_555
C42_8 C39_8 1_555 1_555
C13_7 C21_7 1_555 1_555
C28_7 C33_8 1_555 1_555
C35_8 C36_8 1_555 1_555
C38_8 C39_8 1_555 1_555
C40_8 C41_8 1_555 1_555
C1_8 C3_8 1_555 1_555
N1_8 H3_8 1_555 1_555
C3_8 N1_8 1_555 1_555
H4_8 C3_8 1_555 1_555
H5_8 C3_8 1_555 1_555
C4_8 C17_8 1_555 1_555
C5_8 C6_8 1_555 1_555
C6_8 C10_8 1_555 1_555
C7_8 C5_8 1_555 1_555
C10_8 O2_8 1_555 1_555
C13_8 H9_8 1_555 1_555
C14_8 N1_8 1_555 1_555
H10_8 C14_8 1_555 1_555
H11_8 C14_8 1_555 1_555
C17_8 H14_8 1_555 1_555
C18_8 N1_8 1_555 1_555
H15_8 C18_8 1_555 1_555
H16_8 C18_8 1_555 1_555
C19_8 H17_8 1_555 1_555
H19_8 C21_8 1_555 1_555
C23_8 C5_8 1_555 1_555
H21_8 C23_8 1_555 1_555
C24_8 C7_8 1_555 1_555
H22_8 C24_8 1_555 1_555
C25_8 C4_8 1_555 1_555
H23_8 C25_8 1_555 1_555
C28_8 C13_8 1_555 1_555
C29_8 C6_8 1_555 1_555
H24_8 C29_8 1_555 1_555
C30_8 C19_8 1_555 1_555
H25_8 C30_8 1_555 1_555
C31_8 C7_8 1_555 1_555
H26_8 C31_8 1_555 1_555
O3_8 C10_8 1_555 1_555
C4_8 C18_8 1_555 1_555
C13_8 C21_8 1_555 1_555
C14_8 C28_8 1_555 1_555
C17_8 C24_8 1_555 1_555
C19_8 C29_8 1_555 1_555
C23_8 C30_8 1_555 1_555
C25_8 C31_8 1_555 1_555

#END
