
###############################################################################
#
# This file contains modified crystal structure data generated from the
# MOF subset of the Cambridge Structural Database (CSD) v543 
# hosted by the Cambridge Crystallographic Data Centre (CCDC).
#
# This work is licensed under the Creative Commons
# Attribution-NonCommercial-ShareAlike 4.0 International License.
# To view a copy of this license, visit
# http://creativecommons.org/licenses/by-nc-sa/4.0/
# or send a letter to
# Creative Commons, PO Box 1866, Mountain View, CA 94042, USA.
#
# CIF created using the CSD Python API on 29 September 2022
# The structure has been converted into the P1 space group
# The structure has a 3D framework
# The original CSD entry DUPJAB is in the orthorhombic crystal system
# The framework has been calculated to contain at least 10.0% void space
# The void calculation uses a probe of radius 1.32A, grid spacing 0.4
# The framework is charged, counterions have been retained in the structure
# H atom positions have been added when not included in the experimental data
# Generated hydrogen atom positions removed from atoms on special positions
#
###############################################################################

data_DUPJAB
_chemical_formula_moiety         '(C360 H272 Cd56 N96 O172 14-)n'
_symmetry_cell_setting           triclinic
_symmetry_space_group_name_H-M   'P 1'
_symmetry_Int_Tables_number      1
_space_group_name_Hall           'P 1'
loop_
_symmetry_equiv_pos_site_id
_symmetry_equiv_pos_as_xyz
1 x,y,z
_cell_length_a                   20.7471(5)
_cell_length_b                   26.2764(6)
_cell_length_c                   36.8943(5)
_cell_angle_alpha                90
_cell_angle_beta                 90
_cell_angle_gamma                90
_cell_volume                     20113.3
loop_
_atom_site_label
_atom_site_type_symbol
_atom_site_fract_x
_atom_site_fract_y
_atom_site_fract_z
Cd1 Cd 0.23151(2) 0.0000 0.2500
Cd3 Cd 0.07923(3) 0.16344(2) 0.15047(2)
Cd4 Cd 0.0000 0.19109(4) 0.2500
O1 O 0.0983(2) 0.19111(17) 0.21922(12)
O2 O 0.2680(2) 0.42155(19) 0.27900(13)
N1 N 0.1269(3) 0.0931(2) 0.16985(15)
O3 O 0.2265(3) 0.3821(2) 0.32668(14)
N3 N 0.1621(3) 0.0124(2) 0.17207(14)
O4 O 0.3327(2) 0.0120(2) 0.22122(15)
C1 C 0.1336(3) 0.0475(3) 0.15237(16)
H1 H 0.1193 0.0419 0.1288
N4 N 0.1753(2) 0.0357(2) 0.20465(13)
C2 C 0.1534(4) 0.2697(3) 0.22714(19)
H2 H 0.2948 0.0257 0.1463
C3 C 0.3587(5) 0.0000 0.2500
C4 C 0.4331(4) 0.0000 0.2500
C6 C 0.1535(3) 0.0826(3) 0.20192(16)
H5 H 0.1564 0.1063 0.2206
O7 O 0.0525(3) 0.1179(2) 0.09460(13)
O8 O 0.1309(4) 0.2317(3) 0.17069(16)
O10 O 0.0970(6) 0.1889(4) 0.0948(2)
C10 C 0.1260(4) 0.2287(3) 0.2047(2)
C11 C 0.1997(4) 0.3526(3) 0.2327(2)
H7 H 0.2141 0.3825 0.2219
C12 C 0.1840(4) 0.3029(3) 0.2850(2)
H8 H 0.1863 0.2991 0.3101
C13 C 0.1731(5) 0.3146(3) 0.2115(2)
H9 H 0.1686 0.3194 0.1866
C14 C 0.1592(4) 0.2640(3) 0.2639(2)
H10 H 0.1463 0.2337 0.2748
C15 C 0.2049(3) 0.3466(3) 0.26933(17)
C16 C 0.0475(4) 0.1121(3) 0.01893(19)
H11 H 0.0283 0.0853 0.0314
C19 C 0.0755(6) 0.1511(5) 0.0378(3)
C20 C 0.2339(3) 0.3865(3) 0.29311(19)
C22 C 0.0775(5) 0.1512(5) 0.0786(2)
C23 C 0.1063(9) 0.1882(7) 0.0199(5)
H15 H 0.1276 0.2138 0.0325
O11 O -0.0000 0.2762(7) 0.2500
C24 C 0.6413(5) 0.0000 0.2500
C25 C 0.5669(4) 0.0000 0.2500
C26 C 0.5334(3) 0.0002(4) 0.2175(2)
H16 H 0.5558 0.0006 0.1957
C27 C 0.4666(3) 0.0002(4) 0.2825(2)
H17 H 0.4442 0.0006 0.3043
O14 O 0.6673(2) 0.0120(2) 0.27878(15)
Cd9 Cd 0.20251(2) 0.06060(2) 0.34874(2)
O36 O 0.3027(3) 0.0094(3) 0.35226(19)
H43 H 0.3284 0.0171 0.3725
N20 N 0.1179(3) 0.1122(2) 0.33164(16)
N23 N 0.0209(3) 0.1476(3) 0.33157(17)
C80 C 0.0636(4) 0.1204(3) 0.3494(2)
H55 H 0.0561 0.1080 0.3726
N24 N 0.0499(3) 0.1587(3) 0.29897(18)
C88 C 0.1066(4) 0.1372(3) 0.3003(2)
H60 H 0.1364 0.1390 0.2814
Cd13 Cd 0.76849(2) 0.0000 0.2500
Cd17 Cd 0.26849(2) 0.5000 0.2500
Cd21 Cd 0.29749(2) 0.43940(2) 0.34874(2)
O44 O 0.2320(2) 0.07845(19) 0.27900(13)
O48 O 0.2735(3) 0.1179(2) 0.32668(14)
O53 O 0.1467(3) 0.0390(2) 0.40477(13)
O57 O 0.2289(3) 0.0901(3) 0.40550(15)
H61 H 0.000700872 0.288797 0.224628
O17 O 0.0525(3) 0.1179(2) 0.90540(13)
O18 O 0.0970(6) 0.1889(4) 0.9052(2)
C33 C 0.0475(4) 0.1121(3) 0.98107(19)
H21 H 0.0283 0.0853 0.9686
C34 C 0.0755(6) 0.1511(5) 0.9622(3)
C35 C 0.0775(5) 0.1512(5) 0.9214(2)
C36 C 0.1063(9) 0.1882(7) 0.9801(5)
H22 H 0.1276 0.2138 0.9675
Cd25 Cd 0.07923(3) 0.16344(2) 0.84953(2)
Cd1_2 Cd 0.23151(2) 1.0000 0.2500
Cd2 Cd 0.20251(2) 0.93940(2) 0.15126(2)
O5 O 0.1467(3) 0.9610(2) 0.09523(13)
O6 O 0.3027(3) 0.9906(3) 0.14774(19)
H3 H 0.3284 0.9829 0.1275
C3_2 C 0.3587(5) 1.0000 0.2500
C4_2 C 0.4331(4) 1.0000 0.2500
C5 C 0.4666(3) 0.9998(4) 0.2175(2)
H4 H 0.4442 0.9994 0.1957
O9 O 0.2289(3) 0.9099(3) 0.09450(15)
C8 C 0.1868(4) 0.9346(3) 0.07849(19)
C9 C 0.1835(4) 0.9320(3) 0.0380(2)
C17 C 0.1343(4) 0.9583(4) 0.0189(2)
H12 H 0.1022 0.9754 0.0315
C18 C 0.2276(5) 0.9038(4) 0.0191(2)
H13 H 0.2579 0.8845 0.0316
O12 O 0.6673(2) 0.9880(2) 0.22122(15)
C24_2 C 0.6413(5) 1.0000 0.2500
C25_2 C 0.5669(4) 1.0000 0.2500
O13 O 0.3327(2) 0.9880(2) 0.27878(15)
C28 C 0.5334(3) 0.9998(4) 0.2825(2)
H18 H 0.5558 0.9994 0.3043
Cd8 Cd -0.0000 0.80891(4) 0.2500
N8 N 0.1179(3) 0.8878(2) 0.16836(16)
N11 N 0.0209(3) 0.8524(3) 0.16843(17)
C40 C 0.0636(4) 0.8796(3) 0.1506(2)
H27 H 0.0561 0.8920 0.1274
N12 N 0.0499(3) 0.8413(3) 0.20103(18)
C54 C 0.1066(4) 0.8628(3) 0.1997(2)
H35 H 0.1364 0.8610 0.2186
O28 O -0.0000 0.7238(7) 0.2500
Cd10 Cd 0.07923(3) 0.83656(2) 0.34953(2)
O33 O 0.0983(2) 0.80889(17) 0.28078(12)
O34 O 0.2680(2) 0.57845(19) 0.22100(13)
N13 N 0.1269(3) 0.9069(2) 0.33015(15)
O35 O 0.2265(3) 0.6179(2) 0.17332(14)
N15 N 0.1621(3) 0.9876(2) 0.32793(14)
C65 C 0.1336(3) 0.9525(3) 0.34763(16)
H41 H 0.1193 0.9581 0.3712
N16 N 0.1753(2) 0.9643(2) 0.29535(13)
C66 C 0.1534(4) 0.7303(3) 0.27286(19)
H42 H 0.2948 0.9743 0.3537
C67 C 0.1535(3) 0.9174(3) 0.29808(16)
H44 H 0.1564 0.8937 0.2794
O37 O 0.1309(4) 0.7683(3) 0.32931(16)
C69 C 0.1260(4) 0.7713(3) 0.2953(2)
C70 C 0.1997(4) 0.6474(3) 0.2673(2)
H46 H 0.2141 0.6175 0.2781
C71 C 0.1840(4) 0.6971(3) 0.2150(2)
H47 H 0.1863 0.7009 0.1899
C72 C 0.1731(5) 0.6854(3) 0.2885(2)
H48 H 0.1686 0.6806 0.3134
C73 C 0.1592(4) 0.7360(3) 0.2361(2)
H49 H 0.1463 0.7663 0.2252
C74 C 0.2049(3) 0.6534(3) 0.23067(17)
C75 C 0.2339(3) 0.6135(3) 0.20689(19)
Cd13_2 Cd 0.76849(2) 1.0000 0.2500
Cd19 Cd 0.29749(2) 0.56060(2) 0.15126(2)
O46 O 0.2320(2) 0.92155(19) 0.22100(13)
O50 O 0.2735(3) 0.8821(2) 0.17332(14)
O55 O 0.0525(3) 0.8821(2) 0.40540(13)
O59 O 0.0970(6) 0.8111(4) 0.4052(2)
H64 H 0.039425 0.711203 0.262345
O15 O 0.1467(3) 0.9610(2) 0.90477(13)
O16 O 0.2289(3) 0.9099(3) 0.90550(15)
C29 C 0.1868(4) 0.9346(3) 0.92151(19)
C30 C 0.1835(4) 0.9320(3) 0.9620(2)
C31 C 0.1343(4) 0.9583(4) 0.9811(2)
H19 H 0.1022 0.9754 0.9685
C32 C 0.2276(5) 0.9038(4) 0.9809(2)
H20 H 0.2579 0.8845 0.9684
Cd23 Cd 0.20251(2) 0.93940(2) 0.84874(2)
Cd4_2 Cd 1.0000 0.19109(4) 0.2500
N2 N 0.8821(3) 0.1122(2) 0.16836(16)
N5 N 0.9791(3) 0.1476(3) 0.16843(17)
C7 C 0.9364(4) 0.1204(3) 0.1506(2)
H6 H 0.9439 0.1080 0.1274
N6 N 0.9501(3) 0.1587(3) 0.20103(18)
C21 C 0.8934(4) 0.1372(3) 0.1997(2)
H14 H 0.8636 0.1390 0.2186
O11_2 O 1.0000 0.2762(7) 0.2500
Cd6 Cd 0.79749(2) 0.06060(2) 0.15126(2)
O22 O 0.8533(3) 0.0390(2) 0.09523(13)
O23 O 0.6973(3) 0.0094(3) 0.14774(19)
H25 H 0.6716 0.0171 0.1275
O26 O 0.7711(3) 0.0901(3) 0.09450(15)
C41 C 0.8132(4) 0.0654(3) 0.07849(19)
C42 C 0.8165(4) 0.0680(3) 0.0380(2)
C50 C 0.8657(4) 0.0417(4) 0.0189(2)
H33 H 0.8978 0.0246 0.0315
C51 C 0.7724(5) 0.0962(4) 0.0191(2)
H34 H 0.7421 0.1155 0.0316
Cd12 Cd 0.92077(3) 0.16344(2) 0.34953(2)
O38 O 0.9017(2) 0.19111(17) 0.28078(12)
O39 O 0.7320(2) 0.42155(19) 0.22100(13)
N19 N 0.8731(3) 0.0931(2) 0.33015(15)
O40 O 0.7735(3) 0.3821(2) 0.17332(14)
N21 N 0.8379(3) 0.0124(2) 0.32793(14)
C77 C 0.8664(3) 0.0475(3) 0.34763(16)
H51 H 0.8807 0.0419 0.3712
N22 N 0.8247(2) 0.0357(2) 0.29535(13)
C78 C 0.8466(4) 0.2697(3) 0.27286(19)
H52 H 0.7052 0.0257 0.3537
C79 C 0.8465(3) 0.0826(3) 0.29808(16)
H54 H 0.8436 0.1063 0.2794
O42 O 0.8691(4) 0.2317(3) 0.32931(16)
C81 C 0.8740(4) 0.2287(3) 0.2953(2)
C82 C 0.8003(4) 0.3526(3) 0.2673(2)
H56 H 0.7859 0.3825 0.2781
C83 C 0.8160(4) 0.3029(3) 0.2150(2)
H57 H 0.8137 0.2991 0.1899
C84 C 0.8269(5) 0.3146(3) 0.2885(2)
H58 H 0.8314 0.3194 0.3134
C85 C 0.8408(4) 0.2640(3) 0.2361(2)
H59 H 0.8537 0.2337 0.2252
C86 C 0.7951(3) 0.3466(3) 0.23067(17)
C87 C 0.7661(3) 0.3865(3) 0.20689(19)
Cd15 Cd 0.73151(2) 0.5000 0.2500
Cd18 Cd 0.70251(2) 0.43940(2) 0.15126(2)
O45 O 0.7680(2) 0.07845(19) 0.22100(13)
O49 O 0.7265(3) 0.1179(2) 0.17332(14)
O56 O 0.9475(3) 0.1179(2) 0.40540(13)
O60 O 0.9030(6) 0.1889(4) 0.4052(2)
H62 H 0.960575 0.288797 0.262345
O29 O 0.8533(3) 0.0390(2) 0.90477(13)
O30 O 0.7711(3) 0.0901(3) 0.90550(15)
C57 C 0.8132(4) 0.0654(3) 0.92151(19)
C58 C 0.8165(4) 0.0680(3) 0.9620(2)
C59 C 0.8657(4) 0.0417(4) 0.9811(2)
H37 H 0.8978 0.0246 0.9685
C60 C 0.7724(5) 0.0962(4) 0.9809(2)
H38 H 0.7421 0.1155 0.9684
Cd22 Cd 0.79749(2) 0.06060(2) 0.84874(2)
Cd7 Cd 0.92077(3) 0.83656(2) 0.15047(2)
Cd8_2 Cd 1.0000 0.80891(4) 0.2500
O19 O 0.9017(2) 0.80889(17) 0.21922(12)
O20 O 0.7320(2) 0.57845(19) 0.27900(13)
N7 N 0.8731(3) 0.9069(2) 0.16985(15)
O21 O 0.7735(3) 0.6179(2) 0.32668(14)
N9 N 0.8379(3) 0.9876(2) 0.17207(14)
C37 C 0.8664(3) 0.9525(3) 0.15237(16)
H23 H 0.8807 0.9581 0.1288
N10 N 0.8247(2) 0.9643(2) 0.20465(13)
C38 C 0.8466(4) 0.7303(3) 0.22714(19)
H24 H 0.7052 0.9743 0.1463
C39 C 0.8465(3) 0.9174(3) 0.20192(16)
H26 H 0.8436 0.8937 0.2206
O24 O 0.9475(3) 0.8821(2) 0.09460(13)
O25 O 0.8691(4) 0.7683(3) 0.17069(16)
O27 O 0.9030(6) 0.8111(4) 0.0948(2)
C43 C 0.8740(4) 0.7713(3) 0.2047(2)
C44 C 0.8003(4) 0.6474(3) 0.2327(2)
H28 H 0.7859 0.6175 0.2219
C45 C 0.8160(4) 0.6971(3) 0.2850(2)
H29 H 0.8137 0.7009 0.3101
C46 C 0.8269(5) 0.6854(3) 0.2115(2)
H30 H 0.8314 0.6806 0.1866
C47 C 0.8408(4) 0.7360(3) 0.2639(2)
H31 H 0.8537 0.7663 0.2748
C48 C 0.7951(3) 0.6534(3) 0.26933(17)
C49 C 0.9525(4) 0.8879(3) 0.01893(19)
H32 H 0.9717 0.9147 0.0314
C52 C 0.9245(6) 0.8489(5) 0.0378(3)
C53 C 0.7661(3) 0.6135(3) 0.29311(19)
C55 C 0.9225(5) 0.8488(5) 0.0786(2)
C56 C 0.8937(9) 0.8118(7) 0.0199(5)
H36 H 0.8724 0.7862 0.0325
O28_2 O 1.0000 0.7238(7) 0.2500
N14 N 0.8821(3) 0.8878(2) 0.33164(16)
N17 N 0.9791(3) 0.8524(3) 0.33157(17)
C68 C 0.9364(4) 0.8796(3) 0.3494(2)
H45 H 0.9439 0.8920 0.3726
N18 N 0.9501(3) 0.8413(3) 0.29897(18)
C76 C 0.8934(4) 0.8628(3) 0.3003(2)
H50 H 0.8636 0.8610 0.2814
Cd11 Cd 0.79749(2) 0.93940(2) 0.34874(2)
O41 O 0.6973(3) 0.9906(3) 0.35226(19)
H53 H 0.6716 0.9829 0.3725
Cd20 Cd 0.70251(2) 0.56060(2) 0.34874(2)
O43 O 0.7680(2) 0.92155(19) 0.27900(13)
O47 O 0.7265(3) 0.8821(2) 0.32668(14)
O54 O 0.8533(3) 0.9610(2) 0.40477(13)
O58 O 0.7711(3) 0.9099(3) 0.40550(15)
H63 H 0.999299 0.711203 0.224628
O31 O 0.9475(3) 0.8821(2) 0.90540(13)
O32 O 0.9030(6) 0.8111(4) 0.9052(2)
C61 C 0.9525(4) 0.8879(3) 0.98107(19)
H39 H 0.9717 0.9147 0.9686
C62 C 0.9245(6) 0.8489(5) 0.9622(3)
C63 C 0.9225(5) 0.8488(5) 0.9214(2)
C64 C 0.8937(9) 0.8118(7) 0.9801(5)
H40 H 0.8724 0.7862 0.9675
Cd24 Cd 0.92077(3) 0.83656(2) 0.84953(2)
C8_2 C 0.1868(4) 0.0654(3) 0.42151(19)
C9_2 C 0.1835(4) 0.0680(3) 0.4620(2)
C17_2 C 0.1343(4) 0.0417(4) 0.4811(2)
H12_2 H 0.1022 0.0246 0.4685
C18_2 C 0.2276(5) 0.0962(4) 0.4809(2)
H13_2 H 0.2579 0.1155 0.4684
O15_2 O 0.1467(3) 0.0390(2) 0.59523(13)
O16_2 O 0.2289(3) 0.0901(3) 0.59450(15)
C29_2 C 0.1868(4) 0.0654(3) 0.57849(19)
C30_2 C 0.1835(4) 0.0680(3) 0.5380(2)
C31_2 C 0.1343(4) 0.0417(4) 0.5189(2)
H19_2 H 0.1022 0.0246 0.5315
C32_2 C 0.2276(5) 0.0962(4) 0.5191(2)
H20_2 H 0.2579 0.1155 0.5316
Cd23_2 Cd 0.20251(2) 0.06060(2) 0.65126(2)
H64_2 H 0.039425 0.288797 0.237655
C16_2 C 0.0475(4) 0.8879(3) 0.48107(19)
H11_2 H 0.0283 0.9147 0.4686
C19_2 C 0.0755(6) 0.8489(5) 0.4622(3)
C22_2 C 0.0775(5) 0.8488(5) 0.4214(2)
C23_2 C 0.1063(9) 0.8118(7) 0.4801(5)
H15_2 H 0.1276 0.7862 0.4675
O17_2 O 0.0525(3) 0.8821(2) 0.59460(13)
O18_2 O 0.0970(6) 0.8111(4) 0.5948(2)
C33_2 C 0.0475(4) 0.8879(3) 0.51893(19)
H21_2 H 0.0283 0.9147 0.5314
C34_2 C 0.0755(6) 0.8489(5) 0.5378(3)
C35_2 C 0.0775(5) 0.8488(5) 0.5786(2)
C36_2 C 0.1063(9) 0.8118(7) 0.5199(5)
H22_2 H 0.1276 0.7862 0.5325
Cd25_2 Cd 0.07923(3) 0.83656(2) 0.65047(2)
H61_2 H 0.000700872 0.711203 0.275372
C49_2 C 0.9525(4) 0.1121(3) 0.48107(19)
H32_2 H 0.9717 0.0853 0.4686
C52_2 C 0.9245(6) 0.1511(5) 0.4622(3)
C55_2 C 0.9225(5) 0.1512(5) 0.4214(2)
C56_2 C 0.8937(9) 0.1882(7) 0.4801(5)
H36_2 H 0.8724 0.2138 0.4675
O31_2 O 0.9475(3) 0.1179(2) 0.59460(13)
O32_2 O 0.9030(6) 0.1889(4) 0.5948(2)
C61_2 C 0.9525(4) 0.1121(3) 0.51893(19)
H39_2 H 0.9717 0.0853 0.5314
C62_2 C 0.9245(6) 0.1511(5) 0.5378(3)
C63_2 C 0.9225(5) 0.1512(5) 0.5786(2)
C64_2 C 0.8937(9) 0.1882(7) 0.5199(5)
H40_2 H 0.8724 0.2138 0.5325
Cd24_2 Cd 0.92077(3) 0.16344(2) 0.65047(2)
H63_2 H 0.999299 0.288797 0.275372
C41_2 C 0.8132(4) 0.9346(3) 0.42151(19)
C42_2 C 0.8165(4) 0.9320(3) 0.4620(2)
C50_2 C 0.8657(4) 0.9583(4) 0.4811(2)
H33_2 H 0.8978 0.9754 0.4685
C51_2 C 0.7724(5) 0.9038(4) 0.4809(2)
H34_2 H 0.7421 0.8845 0.4684
O29_2 O 0.8533(3) 0.9610(2) 0.59523(13)
O30_2 O 0.7711(3) 0.9099(3) 0.59450(15)
C57_2 C 0.8132(4) 0.9346(3) 0.57849(19)
C58_2 C 0.8165(4) 0.9320(3) 0.5380(2)
C59_2 C 0.8657(4) 0.9583(4) 0.5189(2)
H37_2 H 0.8978 0.9754 0.5315
C60_2 C 0.7724(5) 0.9038(4) 0.5191(2)
H38_2 H 0.7421 0.8845 0.5316
Cd22_2 Cd 0.79749(2) 0.93940(2) 0.65126(2)
H62_2 H 0.960575 0.711203 0.237655
O12_2 O 0.1673(2) 0.4880(2) 0.22122(15)
C24_3 C 0.1413(5) 0.5000 0.2500
C25_3 C 0.0669(4) 0.5000 0.2500
C26_2 C 0.0334(3) 0.5002(4) 0.2175(2)
H16_2 H 0.0558 0.5006 0.1957
O14_2 O 0.1673(2) 0.5120(2) 0.27878(15)
C28_2 C 0.0334(3) 0.4998(4) 0.2825(2)
H18_2 H 0.0558 0.4994 0.3043
Cd3_2 Cd 0.57923(3) 0.66344(2) 0.15047(2)
Cd4_3 Cd 0.5000 0.69109(4) 0.2500
O1_2 O 0.5983(2) 0.69111(17) 0.21922(12)
N1_2 N 0.6269(3) 0.5931(2) 0.16985(15)
N2_2 N 0.3821(3) 0.6122(2) 0.16836(16)
N3_2 N 0.6621(3) 0.5124(2) 0.17207(14)
O4_2 O 0.8327(2) 0.5120(2) 0.22122(15)
C1_2 C 0.6336(3) 0.5475(3) 0.15237(16)
H1_2 H 0.6193 0.5419 0.1288
O5_2 O 0.6467(3) 0.4610(2) 0.09523(13)
N4_2 N 0.6753(2) 0.5357(2) 0.20465(13)
C2_2 C 0.6534(4) 0.7697(3) 0.22714(19)
N5_2 N 0.4791(3) 0.6476(3) 0.16843(17)
O6_2 O 0.8027(3) 0.4906(3) 0.14774(19)
H2_2 H 0.7948 0.5257 0.1463
H3_2 H 0.8284 0.4829 0.1275
C3_3 C 0.8587(5) 0.5000 0.2500
C4_3 C 0.9331(4) 0.5000 0.2500
C5_2 C 0.9666(3) 0.4998(4) 0.2175(2)
H4_2 H 0.9442 0.4994 0.1957
C6_2 C 0.6535(3) 0.5826(3) 0.20192(16)
H5_2 H 0.6564 0.6063 0.2206
O7_2 O 0.5525(3) 0.6179(2) 0.09460(13)
O8_2 O 0.6309(4) 0.7317(3) 0.17069(16)
C7_2 C 0.4364(4) 0.6204(3) 0.1506(2)
H6_2 H 0.4439 0.6080 0.1274
O9_2 O 0.7289(3) 0.4099(3) 0.09450(15)
C8_3 C 0.6868(4) 0.4346(3) 0.07849(19)
O10_2 O 0.5970(6) 0.6889(4) 0.0948(2)
C9_3 C 0.6835(4) 0.4320(3) 0.0380(2)
C10_2 C 0.6260(4) 0.7287(3) 0.2047(2)
N6_2 N 0.4501(3) 0.6587(3) 0.20103(18)
C11_2 C 0.6997(4) 0.8526(3) 0.2327(2)
H7_2 H 0.7141 0.8825 0.2219
C12_2 C 0.6840(4) 0.8029(3) 0.2850(2)
H8_2 H 0.6863 0.7991 0.3101
C13_2 C 0.6731(5) 0.8146(3) 0.2115(2)
H9_2 H 0.6686 0.8194 0.1866
C14_2 C 0.6592(4) 0.7640(3) 0.2639(2)
H10_2 H 0.6463 0.7337 0.2748
C15_2 C 0.7049(3) 0.8466(3) 0.26933(17)
C16_3 C 0.5475(4) 0.6121(3) 0.01893(19)
H11_3 H 0.5283 0.5853 0.0314
C17_3 C 0.6343(4) 0.4583(4) 0.0189(2)
H12_3 H 0.6022 0.4754 0.0315
C18_3 C 0.7276(5) 0.4038(4) 0.0191(2)
H13_3 H 0.7579 0.3845 0.0316
C19_3 C 0.5755(6) 0.6511(5) 0.0378(3)
C20_2 C 0.7339(3) 0.8865(3) 0.29311(19)
C21_2 C 0.3934(4) 0.6372(3) 0.1997(2)
H14_2 H 0.3636 0.6390 0.2186
C22_3 C 0.5775(5) 0.6512(5) 0.0786(2)
C23_3 C 0.6063(9) 0.6882(7) 0.0199(5)
H15_3 H 0.6276 0.7138 0.0325
O11_3 O 0.5000 0.7762(7) 0.2500
O13_2 O 0.8327(2) 0.4880(2) 0.27878(15)
C27_2 C 0.9666(3) 0.5002(4) 0.2825(2)
H17_2 H 0.9442 0.5006 0.3043
Cd7_2 Cd 0.42077(3) 0.33656(2) 0.15047(2)
Cd8_3 Cd 0.5000 0.30891(4) 0.2500
O19_2 O 0.4017(2) 0.30889(17) 0.21922(12)
N7_2 N 0.3731(3) 0.4069(2) 0.16985(15)
N8_2 N 0.6179(3) 0.3878(2) 0.16836(16)
N9_2 N 0.3379(3) 0.4876(2) 0.17207(14)
C37_2 C 0.3664(3) 0.4525(3) 0.15237(16)
H23_2 H 0.3807 0.4581 0.1288
O22_2 O 0.3533(3) 0.5390(2) 0.09523(13)
N10_2 N 0.3247(2) 0.4643(2) 0.20465(13)
C38_2 C 0.3466(4) 0.2303(3) 0.22714(19)
N11_2 N 0.5209(3) 0.3524(3) 0.16843(17)
O23_2 O 0.1973(3) 0.5094(3) 0.14774(19)
H24_2 H 0.2052 0.4743 0.1463
H25_2 H 0.1716 0.5171 0.1275
C39_2 C 0.3465(3) 0.4174(3) 0.20192(16)
H26_2 H 0.3436 0.3937 0.2206
O24_2 O 0.4475(3) 0.3821(2) 0.09460(13)
O25_2 O 0.3691(4) 0.2683(3) 0.17069(16)
C40_2 C 0.5636(4) 0.3796(3) 0.1506(2)
H27_2 H 0.5561 0.3920 0.1274
O26_2 O 0.2711(3) 0.5901(3) 0.09450(15)
C41_3 C 0.3132(4) 0.5654(3) 0.07849(19)
O27_2 O 0.4030(6) 0.3111(4) 0.0948(2)
C42_3 C 0.3165(4) 0.5680(3) 0.0380(2)
C43_2 C 0.3740(4) 0.2713(3) 0.2047(2)
N12_2 N 0.5499(3) 0.3413(3) 0.20103(18)
C44_2 C 0.3003(4) 0.1474(3) 0.2327(2)
H28_2 H 0.2859 0.1175 0.2219
C45_2 C 0.3160(4) 0.1971(3) 0.2850(2)
H29_2 H 0.3137 0.2009 0.3101
C46_2 C 0.3269(5) 0.1854(3) 0.2115(2)
H30_2 H 0.3314 0.1806 0.1866
C47_2 C 0.3408(4) 0.2360(3) 0.2639(2)
H31_2 H 0.3537 0.2663 0.2748
C48_2 C 0.2951(3) 0.1534(3) 0.26933(17)
C49_3 C 0.4525(4) 0.3879(3) 0.01893(19)
H32_3 H 0.4717 0.4147 0.0314
C50_3 C 0.3657(4) 0.5417(4) 0.0189(2)
H33_3 H 0.3978 0.5246 0.0315
C51_3 C 0.2724(5) 0.5962(4) 0.0191(2)
H34_3 H 0.2421 0.6155 0.0316
C52_3 C 0.4245(6) 0.3489(5) 0.0378(3)
C53_2 C 0.2661(3) 0.1135(3) 0.29311(19)
C54_2 C 0.6066(4) 0.3628(3) 0.1997(2)
H35_2 H 0.6364 0.3610 0.2186
C55_3 C 0.4225(5) 0.3488(5) 0.0786(2)
C56_3 C 0.3937(9) 0.3118(7) 0.0199(5)
H36_3 H 0.3724 0.2862 0.0325
O28_3 O 0.5000 0.2238(7) 0.2500
Cd10_2 Cd 0.57923(3) 0.33656(2) 0.34953(2)
O33_2 O 0.5983(2) 0.30889(17) 0.28078(12)
N13_2 N 0.6269(3) 0.4069(2) 0.33015(15)
N14_2 N 0.3821(3) 0.3878(2) 0.33164(16)
N15_2 N 0.6621(3) 0.4876(2) 0.32793(14)
C65_2 C 0.6336(3) 0.4525(3) 0.34763(16)
H41_2 H 0.6193 0.4581 0.3712
N16_2 N 0.6753(2) 0.4643(2) 0.29535(13)
C66_2 C 0.6534(4) 0.2303(3) 0.27286(19)
N17_2 N 0.4791(3) 0.3524(3) 0.33157(17)
O36_2 O 0.8027(3) 0.5094(3) 0.35226(19)
H42_2 H 0.7948 0.4743 0.3537
H43_2 H 0.8284 0.5171 0.3725
C67_2 C 0.6535(3) 0.4174(3) 0.29808(16)
H44_2 H 0.6564 0.3937 0.2794
O37_2 O 0.6309(4) 0.2683(3) 0.32931(16)
C68_2 C 0.4364(4) 0.3796(3) 0.3494(2)
H45_2 H 0.4439 0.3920 0.3726
C69_2 C 0.6260(4) 0.2713(3) 0.2953(2)
N18_2 N 0.4501(3) 0.3413(3) 0.29897(18)
C70_2 C 0.6997(4) 0.1474(3) 0.2673(2)
H46_2 H 0.7141 0.1175 0.2781
C71_2 C 0.6840(4) 0.1971(3) 0.2150(2)
H47_2 H 0.6863 0.2009 0.1899
C72_2 C 0.6731(5) 0.1854(3) 0.2885(2)
H48_2 H 0.6686 0.1806 0.3134
C73_2 C 0.6592(4) 0.2360(3) 0.2361(2)
H49_2 H 0.6463 0.2663 0.2252
C74_2 C 0.7049(3) 0.1534(3) 0.23067(17)
C75_2 C 0.7339(3) 0.1135(3) 0.20689(19)
C76_2 C 0.3934(4) 0.3628(3) 0.3003(2)
H50_2 H 0.3636 0.3610 0.2814
Cd12_2 Cd 0.42077(3) 0.66344(2) 0.34953(2)
O38_2 O 0.4017(2) 0.69111(17) 0.28078(12)
N19_2 N 0.3731(3) 0.5931(2) 0.33015(15)
N20_2 N 0.6179(3) 0.6122(2) 0.33164(16)
N21_2 N 0.3379(3) 0.5124(2) 0.32793(14)
C77_2 C 0.3664(3) 0.5475(3) 0.34763(16)
H51_2 H 0.3807 0.5419 0.3712
N22_2 N 0.3247(2) 0.5357(2) 0.29535(13)
C78_2 C 0.3466(4) 0.7697(3) 0.27286(19)
N23_2 N 0.5209(3) 0.6476(3) 0.33157(17)
O41_2 O 0.1973(3) 0.4906(3) 0.35226(19)
H52_2 H 0.2052 0.5257 0.3537
H53_2 H 0.1716 0.4829 0.3725
C79_2 C 0.3465(3) 0.5826(3) 0.29808(16)
H54_2 H 0.3436 0.6063 0.2794
O42_2 O 0.3691(4) 0.7317(3) 0.32931(16)
C80_2 C 0.5636(4) 0.6204(3) 0.3494(2)
H55_2 H 0.5561 0.6080 0.3726
C81_2 C 0.3740(4) 0.7287(3) 0.2953(2)
N24_2 N 0.5499(3) 0.6587(3) 0.29897(18)
C82_2 C 0.3003(4) 0.8526(3) 0.2673(2)
H56_2 H 0.2859 0.8825 0.2781
C83_2 C 0.3160(4) 0.8029(3) 0.2150(2)
H57_2 H 0.3137 0.7991 0.1899
C84_2 C 0.3269(5) 0.8146(3) 0.2885(2)
H58_2 H 0.3314 0.8194 0.3134
C85_2 C 0.3408(4) 0.7640(3) 0.2361(2)
H59_2 H 0.3537 0.7337 0.2252
C86_2 C 0.2951(3) 0.8466(3) 0.23067(17)
C87_2 C 0.2661(3) 0.8865(3) 0.20689(19)
C88_2 C 0.6066(4) 0.6372(3) 0.3003(2)
H60_2 H 0.6364 0.6390 0.2814
O53_2 O 0.6467(3) 0.5390(2) 0.40477(13)
O54_2 O 0.3533(3) 0.4610(2) 0.40477(13)
O55_2 O 0.5525(3) 0.3821(2) 0.40540(13)
O56_2 O 0.4475(3) 0.6179(2) 0.40540(13)
O57_2 O 0.7289(3) 0.5901(3) 0.40550(15)
O58_2 O 0.2711(3) 0.4099(3) 0.40550(15)
O59_2 O 0.5970(6) 0.3111(4) 0.4052(2)
O60_2 O 0.4030(6) 0.6889(4) 0.4052(2)
O15_3 O 0.6467(3) 0.4610(2) 0.90477(13)
O16_3 O 0.7289(3) 0.4099(3) 0.90550(15)
C29_3 C 0.6868(4) 0.4346(3) 0.92151(19)
C30_3 C 0.6835(4) 0.4320(3) 0.9620(2)
C31_3 C 0.6343(4) 0.4583(4) 0.9811(2)
H19_3 H 0.6022 0.4754 0.9685
C32_3 C 0.7276(5) 0.4038(4) 0.9809(2)
H20_3 H 0.7579 0.3845 0.9684
O17_3 O 0.5525(3) 0.6179(2) 0.90540(13)
O18_3 O 0.5970(6) 0.6889(4) 0.9052(2)
C33_3 C 0.5475(4) 0.6121(3) 0.98107(19)
H21_3 H 0.5283 0.5853 0.9686
C34_3 C 0.5755(6) 0.6511(5) 0.9622(3)
C35_3 C 0.5775(5) 0.6512(5) 0.9214(2)
C36_3 C 0.6063(9) 0.6882(7) 0.9801(5)
H22_3 H 0.6276 0.7138 0.9675
O29_3 O 0.3533(3) 0.5390(2) 0.90477(13)
O30_3 O 0.2711(3) 0.5901(3) 0.90550(15)
C57_3 C 0.3132(4) 0.5654(3) 0.92151(19)
C58_3 C 0.3165(4) 0.5680(3) 0.9620(2)
C59_3 C 0.3657(4) 0.5417(4) 0.9811(2)
H37_3 H 0.3978 0.5246 0.9685
C60_3 C 0.2724(5) 0.5962(4) 0.9809(2)
H38_3 H 0.2421 0.6155 0.9684
O31_3 O 0.4475(3) 0.3821(2) 0.90540(13)
O32_3 O 0.4030(6) 0.3111(4) 0.9052(2)
C61_3 C 0.4525(4) 0.3879(3) 0.98107(19)
H39_3 H 0.4717 0.4147 0.9686
C62_3 C 0.4245(6) 0.3489(5) 0.9622(3)
C63_3 C 0.4225(5) 0.3488(5) 0.9214(2)
C64_3 C 0.3937(9) 0.3118(7) 0.9801(5)
H40_3 H 0.3724 0.2862 0.9675
Cd22_3 Cd 0.29749(2) 0.56060(2) 0.84874(2)
Cd23_3 Cd 0.70251(2) 0.43940(2) 0.84874(2)
Cd24_3 Cd 0.42077(3) 0.33656(2) 0.84953(2)
Cd25_3 Cd 0.57923(3) 0.66344(2) 0.84953(2)
C8_4 C 0.6868(4) 0.5654(3) 0.42151(19)
C9_4 C 0.6835(4) 0.5680(3) 0.4620(2)
C16_4 C 0.5475(4) 0.3879(3) 0.48107(19)
H11_4 H 0.5283 0.4147 0.4686
C17_4 C 0.6343(4) 0.5417(4) 0.4811(2)
H12_4 H 0.6022 0.5246 0.4685
C18_4 C 0.7276(5) 0.5962(4) 0.4809(2)
H13_4 H 0.7579 0.6155 0.4684
C19_4 C 0.5755(6) 0.3489(5) 0.4622(3)
C22_4 C 0.5775(5) 0.3488(5) 0.4214(2)
C23_4 C 0.6063(9) 0.3118(7) 0.4801(5)
H15_4 H 0.6276 0.2862 0.4675
O15_4 O 0.6467(3) 0.5390(2) 0.59523(13)
O16_4 O 0.7289(3) 0.5901(3) 0.59450(15)
C29_4 C 0.6868(4) 0.5654(3) 0.57849(19)
C30_4 C 0.6835(4) 0.5680(3) 0.5380(2)
C31_4 C 0.6343(4) 0.5417(4) 0.5189(2)
H19_4 H 0.6022 0.5246 0.5315
C32_4 C 0.7276(5) 0.5962(4) 0.5191(2)
H20_4 H 0.7579 0.6155 0.5316
O17_4 O 0.5525(3) 0.3821(2) 0.59460(13)
O18_4 O 0.5970(6) 0.3111(4) 0.5948(2)
C33_4 C 0.5475(4) 0.3879(3) 0.51893(19)
H21_4 H 0.5283 0.4147 0.5314
C34_4 C 0.5755(6) 0.3489(5) 0.5378(3)
C35_4 C 0.5775(5) 0.3488(5) 0.5786(2)
C36_4 C 0.6063(9) 0.3118(7) 0.5199(5)
H22_4 H 0.6276 0.2862 0.5325
C41_4 C 0.3132(4) 0.4346(3) 0.42151(19)
C42_4 C 0.3165(4) 0.4320(3) 0.4620(2)
C49_4 C 0.4525(4) 0.6121(3) 0.48107(19)
H32_4 H 0.4717 0.5853 0.4686
C50_4 C 0.3657(4) 0.4583(4) 0.4811(2)
H33_4 H 0.3978 0.4754 0.4685
C51_4 C 0.2724(5) 0.4038(4) 0.4809(2)
H34_4 H 0.2421 0.3845 0.4684
C52_4 C 0.4245(6) 0.6511(5) 0.4622(3)
C55_4 C 0.4225(5) 0.6512(5) 0.4214(2)
C56_4 C 0.3937(9) 0.6882(7) 0.4801(5)
H36_4 H 0.3724 0.7138 0.4675
O29_4 O 0.3533(3) 0.4610(2) 0.59523(13)
O30_4 O 0.2711(3) 0.4099(3) 0.59450(15)
C57_4 C 0.3132(4) 0.4346(3) 0.57849(19)
C58_4 C 0.3165(4) 0.4320(3) 0.5380(2)
C59_4 C 0.3657(4) 0.4583(4) 0.5189(2)
H37_4 H 0.3978 0.4754 0.5315
C60_4 C 0.2724(5) 0.4038(4) 0.5191(2)
H38_4 H 0.2421 0.3845 0.5316
O31_4 O 0.4475(3) 0.6179(2) 0.59460(13)
O32_4 O 0.4030(6) 0.6889(4) 0.5948(2)
C61_4 C 0.4525(4) 0.6121(3) 0.51893(19)
H39_4 H 0.4717 0.5853 0.5314
C62_4 C 0.4245(6) 0.6511(5) 0.5378(3)
C63_4 C 0.4225(5) 0.6512(5) 0.5786(2)
C64_4 C 0.3937(9) 0.6882(7) 0.5199(5)
H40_4 H 0.3724 0.7138 0.5325
Cd22_4 Cd 0.29749(2) 0.43940(2) 0.65126(2)
Cd23_4 Cd 0.70251(2) 0.56060(2) 0.65126(2)
Cd24_4 Cd 0.42077(3) 0.66344(2) 0.65047(2)
Cd25_4 Cd 0.57923(3) 0.33656(2) 0.65047(2)
Cd5 Cd 0.23151(2) 0.0000 0.7500
Cd8_4 Cd 0.0000 0.19109(4) 0.7500
O19_3 O 0.0983(2) 0.19111(17) 0.78078(12)
O20_2 O 0.2680(2) 0.42155(19) 0.72100(13)
N7_3 N 0.1269(3) 0.0931(2) 0.83015(15)
O21_2 O 0.2265(3) 0.3821(2) 0.67332(14)
N9_3 N 0.1621(3) 0.0124(2) 0.82793(14)
C37_3 C 0.1336(3) 0.0475(3) 0.84763(16)
H23_3 H 0.1193 0.0419 0.8712
N10_3 N 0.1753(2) 0.0357(2) 0.79535(13)
C38_3 C 0.1534(4) 0.2697(3) 0.77286(19)
H24_3 H 0.2948 0.0257 0.8537
C39_3 C 0.1535(3) 0.0826(3) 0.79808(16)
H26_3 H 0.1564 0.1063 0.7794
O25_3 O 0.1309(4) 0.2317(3) 0.82931(16)
C43_3 C 0.1260(4) 0.2287(3) 0.7953(2)
C44_3 C 0.1997(4) 0.3526(3) 0.7673(2)
H28_3 H 0.2141 0.3825 0.7781
C45_3 C 0.1840(4) 0.3029(3) 0.7150(2)
H29_3 H 0.1863 0.2991 0.6899
C46_3 C 0.1731(5) 0.3146(3) 0.7885(2)
H30_3 H 0.1686 0.3194 0.8134
C47_3 C 0.1592(4) 0.2640(3) 0.7361(2)
H31_3 H 0.1463 0.2337 0.7252
C48_3 C 0.2049(3) 0.3466(3) 0.73067(17)
C53_3 C 0.2339(3) 0.3865(3) 0.70689(19)
O28_4 O 0.0000 0.2762(7) 0.7500
N14_3 N 0.1179(3) 0.1122(2) 0.66836(16)
N17_3 N 0.0209(3) 0.1476(3) 0.66843(17)
C68_3 C 0.0636(4) 0.1204(3) 0.6506(2)
H45_3 H 0.0561 0.1080 0.6274
N18_3 N 0.0499(3) 0.1587(3) 0.70103(18)
C76_3 C 0.1066(4) 0.1372(3) 0.6997(2)
H50_3 H 0.1364 0.1390 0.7186
O41_3 O 0.3027(3) 0.0094(3) 0.64774(19)
H53_3 H 0.3284 0.0171 0.6275
Cd14 Cd 0.26849(2) 0.5000 0.7500
O43_2 O 0.2320(2) 0.07845(19) 0.72100(13)
O47_2 O 0.2735(3) 0.1179(2) 0.67332(14)
O51 O 0.3327(2) 0.0120(2) 0.77878(15)
H63_3 H 0.000700872 0.288797 0.775372
Cd4_4 Cd -0.0000 0.80891(4) 0.7500
N2_3 N 0.1179(3) 0.8878(2) 0.83164(16)
N5_3 N 0.0209(3) 0.8524(3) 0.83157(17)
C7_3 C 0.0636(4) 0.8796(3) 0.8494(2)
H6_3 H 0.0561 0.8920 0.8726
N6_3 N 0.0499(3) 0.8413(3) 0.79897(18)
C21_3 C 0.1066(4) 0.8628(3) 0.8003(2)
H14_3 H 0.1364 0.8610 0.7814
O11_4 O 0.0000 0.7238(7) 0.7500
Cd5_2 Cd 0.23151(2) 1.0000 0.7500
O23_3 O 0.3027(3) 0.9906(3) 0.85226(19)
H25_3 H 0.3284 0.9829 0.8725
O38_3 O 0.0983(2) 0.80889(17) 0.71922(12)
O39_2 O 0.2680(2) 0.57845(19) 0.77900(13)
N19_3 N 0.1269(3) 0.9069(2) 0.66985(15)
O40_2 O 0.2265(3) 0.6179(2) 0.82668(14)
N21_3 N 0.1621(3) 0.9876(2) 0.67207(14)
C77_3 C 0.1336(3) 0.9525(3) 0.65237(16)
H51_3 H 0.1193 0.9581 0.6288
N22_3 N 0.1753(2) 0.9643(2) 0.70465(13)
C78_3 C 0.1534(4) 0.7303(3) 0.72714(19)
H52_3 H 0.2948 0.9743 0.6463
C79_3 C 0.1535(3) 0.9174(3) 0.70192(16)
H54_3 H 0.1564 0.8937 0.7206
O42_3 O 0.1309(4) 0.7683(3) 0.67069(16)
C81_3 C 0.1260(4) 0.7713(3) 0.7047(2)
C82_3 C 0.1997(4) 0.6474(3) 0.7327(2)
H56_3 H 0.2141 0.6175 0.7219
C83_3 C 0.1840(4) 0.6971(3) 0.7850(2)
H57_3 H 0.1863 0.7009 0.8101
C84_3 C 0.1731(5) 0.6854(3) 0.7115(2)
H58_3 H 0.1686 0.6806 0.6866
C85_3 C 0.1592(4) 0.7360(3) 0.7639(2)
H59_3 H 0.1463 0.7663 0.7748
C86_3 C 0.2049(3) 0.6534(3) 0.76933(17)
C87_3 C 0.2339(3) 0.6135(3) 0.79311(19)
O45_2 O 0.2320(2) 0.92155(19) 0.77900(13)
O49_2 O 0.2735(3) 0.8821(2) 0.82668(14)
O52 O 0.3327(2) 0.9880(2) 0.72122(15)
H62_3 H 0.039425 0.711203 0.737655
Cd1_3 Cd 0.76849(2) 0.0000 0.7500
O6_3 O 0.6973(3) 0.0094(3) 0.85226(19)
H3_3 H 0.6716 0.0171 0.8725
C3_4 C 0.6413(5) 0.0000 0.7500
C4_4 C 0.5669(4) 0.0000 0.7500
C5_3 C 0.5334(3) 0.0002(4) 0.7825(2)
H4_3 H 0.5558 0.0006 0.8043
C24_4 C 0.3587(5) 0.0000 0.7500
C25_4 C 0.4331(4) 0.0000 0.7500
O13_3 O 0.6673(2) 0.0120(2) 0.72122(15)
C28_3 C 0.4666(3) 0.0002(4) 0.7175(2)
H18_3 H 0.4442 0.0006 0.6957
Cd8_5 Cd 1.0000 0.19109(4) 0.7500
N8_3 N 0.8821(3) 0.1122(2) 0.83164(16)
N11_3 N 0.9791(3) 0.1476(3) 0.83157(17)
C40_3 C 0.9364(4) 0.1204(3) 0.8494(2)
H27_3 H 0.9439 0.1080 0.8726
N12_3 N 0.9501(3) 0.1587(3) 0.79897(18)
C54_3 C 0.8934(4) 0.1372(3) 0.8003(2)
H35_3 H 0.8636 0.1390 0.7814
O28_5 O 1.0000 0.2762(7) 0.7500
O33_3 O 0.9017(2) 0.19111(17) 0.71922(12)
O34_2 O 0.7320(2) 0.42155(19) 0.77900(13)
N13_3 N 0.8731(3) 0.0931(2) 0.66985(15)
O35_2 O 0.7735(3) 0.3821(2) 0.82668(14)
N15_3 N 0.8379(3) 0.0124(2) 0.67207(14)
C65_3 C 0.8664(3) 0.0475(3) 0.65237(16)
H41_3 H 0.8807 0.0419 0.6288
N16_3 N 0.8247(2) 0.0357(2) 0.70465(13)
C66_3 C 0.8466(4) 0.2697(3) 0.72714(19)
H42_3 H 0.7052 0.0257 0.6463
C67_3 C 0.8465(3) 0.0826(3) 0.70192(16)
H44_3 H 0.8436 0.1063 0.7206
O37_3 O 0.8691(4) 0.2317(3) 0.67069(16)
C69_3 C 0.8740(4) 0.2287(3) 0.7047(2)
C70_3 C 0.8003(4) 0.3526(3) 0.7327(2)
H46_3 H 0.7859 0.3825 0.7219
C71_3 C 0.8160(4) 0.3029(3) 0.7850(2)
H47_3 H 0.8137 0.2991 0.8101
C72_3 C 0.8269(5) 0.3146(3) 0.7115(2)
H48_3 H 0.8314 0.3194 0.6866
C73_3 C 0.8408(4) 0.2640(3) 0.7639(2)
H49_3 H 0.8537 0.2337 0.7748
C74_3 C 0.7951(3) 0.3466(3) 0.76933(17)
C75_3 C 0.7661(3) 0.3865(3) 0.79311(19)
Cd16 Cd 0.73151(2) 0.5000 0.7500
O46_2 O 0.7680(2) 0.07845(19) 0.77900(13)
O50_2 O 0.7265(3) 0.1179(2) 0.82668(14)
H64_3 H 0.960575 0.288797 0.737655
Cd1_4 Cd 0.76849(2) 1.0000 0.7500
Cd4_5 Cd 1.0000 0.80891(4) 0.7500
O1_3 O 0.9017(2) 0.80889(17) 0.78078(12)
O2_2 O 0.7320(2) 0.57845(19) 0.72100(13)
N1_3 N 0.8731(3) 0.9069(2) 0.83015(15)
O3_2 O 0.7735(3) 0.6179(2) 0.67332(14)
N3_3 N 0.8379(3) 0.9876(2) 0.82793(14)
O4_3 O 0.6673(2) 0.9880(2) 0.77878(15)
C1_3 C 0.8664(3) 0.9525(3) 0.84763(16)
H1_3 H 0.8807 0.9581 0.8712
N4_3 N 0.8247(2) 0.9643(2) 0.79535(13)
C2_3 C 0.8466(4) 0.7303(3) 0.77286(19)
H2_3 H 0.7052 0.9743 0.8537
C3_5 C 0.6413(5) 1.0000 0.7500
C4_5 C 0.5669(4) 1.0000 0.7500
C6_3 C 0.8465(3) 0.9174(3) 0.79808(16)
H5_3 H 0.8436 0.8937 0.7794
O8_3 O 0.8691(4) 0.7683(3) 0.82931(16)
C10_3 C 0.8740(4) 0.7713(3) 0.7953(2)
C11_3 C 0.8003(4) 0.6474(3) 0.7673(2)
H7_3 H 0.7859 0.6175 0.7781
C12_3 C 0.8160(4) 0.6971(3) 0.7150(2)
H8_3 H 0.8137 0.7009 0.6899
C13_3 C 0.8269(5) 0.6854(3) 0.7885(2)
H9_3 H 0.8314 0.6806 0.8134
C14_3 C 0.8408(4) 0.7360(3) 0.7361(2)
H10_3 H 0.8537 0.7663 0.7252
C15_3 C 0.7951(3) 0.6534(3) 0.73067(17)
C20_3 C 0.7661(3) 0.6135(3) 0.70689(19)
O11_5 O 1.0000 0.7238(7) 0.7500
C24_5 C 0.3587(5) 1.0000 0.7500
C25_5 C 0.4331(4) 1.0000 0.7500
C26_3 C 0.4666(3) 0.9998(4) 0.7825(2)
H16_3 H 0.4442 0.9994 0.8043
C27_3 C 0.5334(3) 0.9998(4) 0.7175(2)
H17_3 H 0.5558 0.9994 0.6957
O36_3 O 0.6973(3) 0.9906(3) 0.64774(19)
H43_3 H 0.6716 0.9829 0.6275
N20_3 N 0.8821(3) 0.8878(2) 0.66836(16)
N23_3 N 0.9791(3) 0.8524(3) 0.66843(17)
C80_3 C 0.9364(4) 0.8796(3) 0.6506(2)
H55_3 H 0.9439 0.8920 0.6274
N24_3 N 0.9501(3) 0.8413(3) 0.70103(18)
C88_3 C 0.8934(4) 0.8628(3) 0.6997(2)
H60_3 H 0.8636 0.8610 0.7186
O44_2 O 0.7680(2) 0.92155(19) 0.72100(13)
O48_2 O 0.7265(3) 0.8821(2) 0.67332(14)
H61_3 H 0.999299 0.711203 0.775372
H62_4 H 0.039425 0.288797 0.762345
H63_4 H 0.000700872 0.711203 0.724628
H61_4 H 0.999299 0.288797 0.724628
H64_4 H 0.960575 0.711203 0.762345
Cd4_6 Cd 0.5000 0.30891(4) 0.7500
O1_4 O 0.4017(2) 0.30889(17) 0.78078(12)
N1_4 N 0.3731(3) 0.4069(2) 0.83015(15)
N2_4 N 0.6179(3) 0.3878(2) 0.83164(16)
N3_4 N 0.3379(3) 0.4876(2) 0.82793(14)
O4_4 O 0.1673(2) 0.4880(2) 0.77878(15)
C1_4 C 0.3664(3) 0.4525(3) 0.84763(16)
H1_4 H 0.3807 0.4581 0.8712
N4_4 N 0.3247(2) 0.4643(2) 0.79535(13)
C2_4 C 0.3466(4) 0.2303(3) 0.77286(19)
N5_4 N 0.5209(3) 0.3524(3) 0.83157(17)
O6_4 O 0.1973(3) 0.5094(3) 0.85226(19)
H2_4 H 0.2052 0.4743 0.8537
H3_4 H 0.1716 0.5171 0.8725
C3_6 C 0.1413(5) 0.5000 0.7500
C4_6 C 0.0669(4) 0.5000 0.7500
C5_4 C 0.0334(3) 0.5002(4) 0.7825(2)
H4_4 H 0.0558 0.5006 0.8043
C6_4 C 0.3465(3) 0.4174(3) 0.79808(16)
H5_4 H 0.3436 0.3937 0.7794
O8_4 O 0.3691(4) 0.2683(3) 0.82931(16)
C7_4 C 0.5636(4) 0.3796(3) 0.8494(2)
H6_4 H 0.5561 0.3920 0.8726
C10_4 C 0.3740(4) 0.2713(3) 0.7953(2)
N6_4 N 0.5499(3) 0.3413(3) 0.79897(18)
C11_4 C 0.3003(4) 0.1474(3) 0.7673(2)
H7_4 H 0.2859 0.1175 0.7781
C12_4 C 0.3160(4) 0.1971(3) 0.7150(2)
H8_4 H 0.3137 0.2009 0.6899
C13_4 C 0.3269(5) 0.1854(3) 0.7885(2)
H9_4 H 0.3314 0.1806 0.8134
C14_4 C 0.3408(4) 0.2360(3) 0.7361(2)
H10_4 H 0.3537 0.2663 0.7252
C15_4 C 0.2951(3) 0.1534(3) 0.73067(17)
C20_4 C 0.2661(3) 0.1135(3) 0.70689(19)
C21_4 C 0.6066(4) 0.3628(3) 0.8003(2)
H14_4 H 0.6364 0.3610 0.7814
O11_6 O 0.5000 0.2238(7) 0.7500
O13_4 O 0.1673(2) 0.5120(2) 0.72122(15)
C27_4 C 0.0334(3) 0.4998(4) 0.7175(2)
H17_4 H 0.0558 0.4994 0.6957
Cd8_6 Cd 0.5000 0.69109(4) 0.7500
O19_4 O 0.5983(2) 0.69111(17) 0.78078(12)
N7_4 N 0.6269(3) 0.5931(2) 0.83015(15)
N8_4 N 0.3821(3) 0.6122(2) 0.83164(16)
N9_4 N 0.6621(3) 0.5124(2) 0.82793(14)
C37_4 C 0.6336(3) 0.5475(3) 0.84763(16)
H23_4 H 0.6193 0.5419 0.8712
N10_4 N 0.6753(2) 0.5357(2) 0.79535(13)
C38_4 C 0.6534(4) 0.7697(3) 0.77286(19)
N11_4 N 0.4791(3) 0.6476(3) 0.83157(17)
O23_4 O 0.8027(3) 0.4906(3) 0.85226(19)
H24_4 H 0.7948 0.5257 0.8537
H25_4 H 0.8284 0.4829 0.8725
C39_4 C 0.6535(3) 0.5826(3) 0.79808(16)
H26_4 H 0.6564 0.6063 0.7794
O25_4 O 0.6309(4) 0.7317(3) 0.82931(16)
C40_4 C 0.4364(4) 0.6204(3) 0.8494(2)
H27_4 H 0.4439 0.6080 0.8726
C43_4 C 0.6260(4) 0.7287(3) 0.7953(2)
N12_4 N 0.4501(3) 0.6587(3) 0.79897(18)
C44_4 C 0.6997(4) 0.8526(3) 0.7673(2)
H28_4 H 0.7141 0.8825 0.7781
C45_4 C 0.6840(4) 0.8029(3) 0.7150(2)
H29_4 H 0.6863 0.7991 0.6899
C46_4 C 0.6731(5) 0.8146(3) 0.7885(2)
H30_4 H 0.6686 0.8194 0.8134
C47_4 C 0.6592(4) 0.7640(3) 0.7361(2)
H31_4 H 0.6463 0.7337 0.7252
C48_4 C 0.7049(3) 0.8466(3) 0.73067(17)
C53_4 C 0.7339(3) 0.8865(3) 0.70689(19)
C54_4 C 0.3934(4) 0.6372(3) 0.8003(2)
H35_4 H 0.3636 0.6390 0.7814
O28_6 O 0.5000 0.7762(7) 0.7500
O33_4 O 0.4017(2) 0.69111(17) 0.71922(12)
N13_4 N 0.3731(3) 0.5931(2) 0.66985(15)
N14_4 N 0.6179(3) 0.6122(2) 0.66836(16)
N15_4 N 0.3379(3) 0.5124(2) 0.67207(14)
C65_4 C 0.3664(3) 0.5475(3) 0.65237(16)
H41_4 H 0.3807 0.5419 0.6288
N16_4 N 0.3247(2) 0.5357(2) 0.70465(13)
C66_4 C 0.3466(4) 0.7697(3) 0.72714(19)
N17_4 N 0.5209(3) 0.6476(3) 0.66843(17)
O36_4 O 0.1973(3) 0.4906(3) 0.64774(19)
H42_4 H 0.2052 0.5257 0.6463
H43_4 H 0.1716 0.4829 0.6275
C67_4 C 0.3465(3) 0.5826(3) 0.70192(16)
H44_4 H 0.3436 0.6063 0.7206
O37_4 O 0.3691(4) 0.7317(3) 0.67069(16)
C68_4 C 0.5636(4) 0.6204(3) 0.6506(2)
H45_4 H 0.5561 0.6080 0.6274
C69_4 C 0.3740(4) 0.7287(3) 0.7047(2)
N18_4 N 0.5499(3) 0.6587(3) 0.70103(18)
C70_4 C 0.3003(4) 0.8526(3) 0.7327(2)
H46_4 H 0.2859 0.8825 0.7219
C71_4 C 0.3160(4) 0.8029(3) 0.7850(2)
H47_4 H 0.3137 0.7991 0.8101
C72_4 C 0.3269(5) 0.8146(3) 0.7115(2)
H48_4 H 0.3314 0.8194 0.6866
C73_4 C 0.3408(4) 0.7640(3) 0.7639(2)
H49_4 H 0.3537 0.7337 0.7748
C74_4 C 0.2951(3) 0.8466(3) 0.76933(17)
C75_4 C 0.2661(3) 0.8865(3) 0.79311(19)
C76_4 C 0.6066(4) 0.6372(3) 0.6997(2)
H50_4 H 0.6364 0.6390 0.7186
O38_4 O 0.5983(2) 0.30889(17) 0.71922(12)
N19_4 N 0.6269(3) 0.4069(2) 0.66985(15)
N20_4 N 0.3821(3) 0.3878(2) 0.66836(16)
N21_4 N 0.6621(3) 0.4876(2) 0.67207(14)
C77_4 C 0.6336(3) 0.4525(3) 0.65237(16)
H51_4 H 0.6193 0.4581 0.6288
N22_4 N 0.6753(2) 0.4643(2) 0.70465(13)
C78_4 C 0.6534(4) 0.2303(3) 0.72714(19)
N23_4 N 0.4791(3) 0.3524(3) 0.66843(17)
O41_4 O 0.8027(3) 0.5094(3) 0.64774(19)
H52_4 H 0.7948 0.4743 0.6463
H53_4 H 0.8284 0.5171 0.6275
C79_4 C 0.6535(3) 0.4174(3) 0.70192(16)
H54_4 H 0.6564 0.3937 0.7206
O42_4 O 0.6309(4) 0.2683(3) 0.67069(16)
C80_4 C 0.4364(4) 0.3796(3) 0.6506(2)
H55_4 H 0.4439 0.3920 0.6274
C81_4 C 0.6260(4) 0.2713(3) 0.7047(2)
N24_4 N 0.4501(3) 0.3413(3) 0.70103(18)
C82_4 C 0.6997(4) 0.1474(3) 0.7327(2)
H56_4 H 0.7141 0.1175 0.7219
C83_4 C 0.6840(4) 0.1971(3) 0.7850(2)
H57_4 H 0.6863 0.2009 0.8101
C84_4 C 0.6731(5) 0.1854(3) 0.7115(2)
H58_4 H 0.6686 0.1806 0.6866
C85_4 C 0.6592(4) 0.2360(3) 0.7639(2)
H59_4 H 0.6463 0.2663 0.7748
C86_4 C 0.7049(3) 0.1534(3) 0.76933(17)
C87_4 C 0.7339(3) 0.1135(3) 0.79311(19)
C88_4 C 0.3934(4) 0.3628(3) 0.6997(2)
H60_4 H 0.3636 0.3610 0.7186
O51_2 O 0.8327(2) 0.5120(2) 0.77878(15)
O52_2 O 0.8327(2) 0.4880(2) 0.72122(15)
C24_6 C 0.8587(5) 0.5000 0.7500
C25_6 C 0.9331(4) 0.5000 0.7500
C26_4 C 0.9666(3) 0.4998(4) 0.7825(2)
H16_4 H 0.9442 0.4994 0.8043
C28_4 C 0.9666(3) 0.5002(4) 0.7175(2)
H18_4 H 0.9442 0.5006 0.6957
loop_
_geom_bond_atom_site_label_1
_geom_bond_atom_site_label_2
_geom_bond_site_symmetry_1
_geom_bond_site_symmetry_2
Cd1 O4 1_555 1_555
Cd3 O1 1_555 1_555
Cd4 O1 1_555 1_555
O1 C10 1_555 1_555
O2 C20 1_555 1_555
N1 Cd3 1_555 1_555
O3 C20 1_555 1_555
N3 C1 1_555 1_555
O4 C3 1_555 1_555
C1 N1 1_555 1_555
H1 C1 1_555 1_555
N4 Cd1 1_555 1_555
C2 C10 1_555 1_555
C3 C4 1_555 1_555
C6 N1 1_555 1_555
H5 C6 1_555 1_555
O7 Cd3 1_555 1_555
O8 Cd3 1_555 1_555
O10 Cd3 1_555 1_555
C10 O8 1_555 1_555
C11 H7 1_555 1_555
C12 H8 1_555 1_555
C13 C2 1_555 1_555
H9 C13 1_555 1_555
C14 C2 1_555 1_555
H10 C14 1_555 1_555
C15 C11 1_555 1_555
C16 H11 1_555 1_555
C19 C16 1_555 1_555
C20 C15 1_555 1_555
C22 O7 1_555 1_555
C23 C19 1_555 1_555
H15 C23 1_555 1_555
O11 Cd4 1_555 1_555
C24 C25 1_555 1_555
C25 C26 1_555 1_555
H16 C26 1_555 1_555
C27 C4 1_555 1_555
H17 C27 1_555 1_555
O14 C24 1_555 1_555
O36 Cd9 1_555 1_555
H43 O36 1_555 1_555
N20 Cd9 1_555 1_555
C80 N20 1_555 1_555
H55 C80 1_555 1_555
N24 Cd4 1_555 1_555
C88 N20 1_555 1_555
H60 C88 1_555 1_555
Cd17 O2 1_555 1_555
Cd21 O2 1_555 1_555
O44 Cd1 1_555 1_555
O48 Cd9 1_555 1_555
O53 Cd9 1_555 1_555
O57 Cd9 1_555 1_555
O3 Cd21 1_555 1_555
N3 N4 1_555 1_555
N4 C6 1_555 1_555
O10 C22 1_555 1_555
C11 C13 1_555 1_555
C12 C14 1_555 1_555
C12 C15 1_555 1_555
C19 C22 1_555 1_555
O14 Cd13 1_555 1_555
Cd9 O44 1_555 1_555
N23 C80 1_555 1_555
N23 N24 1_555 1_555
N24 C88 1_555 1_555
O11 H61 1_555 1_555
O17 C35 1_555 1_555
O18 C35 1_555 1_555
H21 C33 1_555 1_555
C34 C33 1_555 1_555
C35 C34 1_555 1_555
H22 C36 1_555 1_555
Cd25 O17 1_555 1_555
O18 Cd25 1_555 1_555
C34 C36 1_555 1_555
O5 Cd2 1_555 1_555
O6 Cd2 1_555 1_555
H3 O6 1_555 1_555
C3_2 C4_2 1_555 1_555
C4_2 C5 1_555 1_555
C5 H4 1_555 1_555
O9 Cd2 1_555 1_555
C8 O5 1_555 1_555
C9 C8 1_555 1_555
C17 C9 1_555 1_555
H12 C17 1_555 1_555
C18 C9 1_555 1_555
H13 C18 1_555 1_555
O12 C24_2 1_555 1_555
C24_2 C25_2 1_555 1_555
O13 Cd1_2 1_555 1_555
C28 C25_2 1_555 1_555
H18 C28 1_555 1_555
N8 Cd2 1_555 1_555
C40 N8 1_555 1_555
H27 C40 1_555 1_555
N12 Cd8 1_555 1_555
C54 N8 1_555 1_555
H35 C54 1_555 1_555
O28 Cd8 1_555 1_555
Cd10 O33 1_555 1_555
O33 Cd8 1_555 1_555
O34 C75 1_555 1_555
N13 Cd10 1_555 1_555
O35 C75 1_555 1_555
N15 C65 1_555 1_555
C65 N13 1_555 1_555
H41 C65 1_555 1_555
N16 Cd1_2 1_555 1_555
C66 C69 1_555 1_555
C67 N13 1_555 1_555
H44 C67 1_555 1_555
O37 Cd10 1_555 1_555
C69 O33 1_555 1_555
C70 H46 1_555 1_555
C71 H47 1_555 1_555
C72 C66 1_555 1_555
H48 C72 1_555 1_555
C73 C66 1_555 1_555
H49 C73 1_555 1_555
C74 C70 1_555 1_555
C75 C74 1_555 1_555
Cd13_2 O12 1_555 1_555
Cd17 O34 1_555 1_555
Cd19 O34 1_555 1_555
O46 Cd1_2 1_555 1_555
O50 Cd2 1_555 1_555
O55 Cd10 1_555 1_555
O59 Cd10 1_555 1_555
Cd2 O46 1_555 1_555
C3_2 O13 1_555 1_555
O9 C8 1_555 1_555
N11 C40 1_555 1_555
N11 N12 1_555 1_555
N12 C54 1_555 1_555
O35 Cd19 1_555 1_555
N15 N16 1_555 1_555
N16 C67 1_555 1_555
O37 C69 1_555 1_555
C70 C72 1_555 1_555
C71 C73 1_555 1_555
C71 C74 1_555 1_555
O28 H64 1_555 1_555
O15 C29 1_555 1_555
O16 C29 1_555 1_555
C29 C30 1_555 1_555
C30 C31 1_555 1_555
H19 C31 1_555 1_555
H20 C32 1_555 1_555
Cd23 O15 1_555 1_555
O16 Cd23 1_555 1_555
C30 C32 1_555 1_555
N2 C7 1_555 1_555
C7 N5 1_555 1_555
H6 C7 1_555 1_555
N6 Cd4_2 1_555 1_555
C21 N2 1_555 1_555
H14 C21 1_555 1_555
O11_2 Cd4_2 1_555 1_555
Cd6 N2 1_555 1_555
O22 Cd6 1_555 1_555
O23 Cd6 1_555 1_555
H25 O23 1_555 1_555
O26 Cd6 1_555 1_555
C41 O22 1_555 1_555
C42 C41 1_555 1_555
C50 C42 1_555 1_555
H33 C50 1_555 1_555
C51 C42 1_555 1_555
H34 C51 1_555 1_555
Cd12 O38 1_555 1_555
O38 Cd4_2 1_555 1_555
O39 C87 1_555 1_555
N19 Cd12 1_555 1_555
O40 C87 1_555 1_555
C77 N19 1_555 1_555
H51 C77 1_555 1_555
N22 Cd13 1_555 1_555
C78 C81 1_555 1_555
C79 N19 1_555 1_555
H54 C79 1_555 1_555
O42 Cd12 1_555 1_555
C81 O38 1_555 1_555
C82 H56 1_555 1_555
C83 H57 1_555 1_555
C84 C78 1_555 1_555
H58 C84 1_555 1_555
C85 C78 1_555 1_555
H59 C85 1_555 1_555
C86 C82 1_555 1_555
C87 C86 1_555 1_555
Cd15 O39 1_555 1_555
Cd18 O39 1_555 1_555
O45 Cd13 1_555 1_555
O49 Cd6 1_555 1_555
O56 Cd12 1_555 1_555
O60 Cd12 1_555 1_555
N5 N6 1_555 1_555
N6 C21 1_555 1_555
Cd6 O45 1_555 1_555
O26 C41 1_555 1_555
O40 Cd18 1_555 1_555
N21 C77 1_555 1_555
N21 N22 1_555 1_555
N22 C79 1_555 1_555
O42 C81 1_555 1_555
C82 C84 1_555 1_555
C83 C85 1_555 1_555
C83 C86 1_555 1_555
O11_2 H62 1_555 1_555
O29 C57 1_555 1_555
O30 C57 1_555 1_555
C57 C58 1_555 1_555
C58 C59 1_555 1_555
H37 C59 1_555 1_555
H38 C60 1_555 1_555
Cd22 O29 1_555 1_555
O30 Cd22 1_555 1_555
C58 C60 1_555 1_555
Cd13_2 N10 1_555 1_555
Cd7 O19 1_555 1_555
Cd8_2 O19 1_555 1_555
O19 C43 1_555 1_555
O20 C53 1_555 1_555
N7 Cd7 1_555 1_555
O21 C53 1_555 1_555
C37 N7 1_555 1_555
H23 C37 1_555 1_555
N10 N9 1_555 1_555
C38 C43 1_555 1_555
C39 N7 1_555 1_555
H26 C39 1_555 1_555
O24 Cd7 1_555 1_555
O25 Cd7 1_555 1_555
O27 Cd7 1_555 1_555
C43 O25 1_555 1_555
C44 H28 1_555 1_555
C45 H29 1_555 1_555
C46 C38 1_555 1_555
H30 C46 1_555 1_555
C47 C38 1_555 1_555
H31 C47 1_555 1_555
C48 C44 1_555 1_555
C49 H32 1_555 1_555
C52 C49 1_555 1_555
C53 C48 1_555 1_555
C55 O24 1_555 1_555
C56 C52 1_555 1_555
H36 C56 1_555 1_555
O28_2 Cd8_2 1_555 1_555
N14 C68 1_555 1_555
C68 N17 1_555 1_555
H45 C68 1_555 1_555
N18 Cd8_2 1_555 1_555
C76 N14 1_555 1_555
H50 C76 1_555 1_555
Cd11 N14 1_555 1_555
O41 Cd11 1_555 1_555
H53 O41 1_555 1_555
Cd15 O20 1_555 1_555
Cd20 O20 1_555 1_555
O43 Cd13_2 1_555 1_555
O47 Cd11 1_555 1_555
O54 Cd11 1_555 1_555
O58 Cd11 1_555 1_555
O21 Cd20 1_555 1_555
N9 C37 1_555 1_555
N10 C39 1_555 1_555
O27 C55 1_555 1_555
C44 C46 1_555 1_555
C45 C47 1_555 1_555
C45 C48 1_555 1_555
C52 C55 1_555 1_555
N17 N18 1_555 1_555
N18 C76 1_555 1_555
Cd11 O43 1_555 1_555
O28_2 H63 1_555 1_555
O31 C63 1_555 1_555
O32 C63 1_555 1_555
H39 C61 1_555 1_555
C62 C61 1_555 1_555
C63 C62 1_555 1_555
H40 C64 1_555 1_555
Cd24 O31 1_555 1_555
O32 Cd24 1_555 1_555
C62 C64 1_555 1_555
C8_2 O53 1_555 1_555
C9_2 C8_2 1_555 1_555
C17_2 C9_2 1_555 1_555
H12_2 C17_2 1_555 1_555
C18_2 C9_2 1_555 1_555
H13_2 C18_2 1_555 1_555
O15_2 C29_2 1_555 1_555
O16_2 C29_2 1_555 1_555
C29_2 C30_2 1_555 1_555
C30_2 C31_2 1_555 1_555
C31_2 C17_2 1_555 1_555
H19_2 C31_2 1_555 1_555
C32_2 C18_2 1_555 1_555
H20_2 C32_2 1_555 1_555
Cd23_2 O15_2 1_555 1_555
O57 C8_2 1_555 1_555
O16_2 Cd23_2 1_555 1_555
C30_2 C32_2 1_555 1_555
O11 H64_2 1_555 1_555
C16_2 H11_2 1_555 1_555
C19_2 C16_2 1_555 1_555
C22_2 O55 1_555 1_555
C23_2 C19_2 1_555 1_555
H15_2 C23_2 1_555 1_555
O17_2 C35_2 1_555 1_555
O18_2 C35_2 1_555 1_555
C33_2 C16_2 1_555 1_555
H21_2 C33_2 1_555 1_555
C34_2 C33_2 1_555 1_555
C35_2 C34_2 1_555 1_555
C36_2 C23_2 1_555 1_555
H22_2 C36_2 1_555 1_555
Cd25_2 O17_2 1_555 1_555
O59 C22_2 1_555 1_555
C19_2 C22_2 1_555 1_555
O18_2 Cd25_2 1_555 1_555
C34_2 C36_2 1_555 1_555
O28 H61_2 1_555 1_555
C49_2 H32_2 1_555 1_555
C52_2 C49_2 1_555 1_555
C55_2 O56 1_555 1_555
C56_2 C52_2 1_555 1_555
H36_2 C56_2 1_555 1_555
O31_2 C63_2 1_555 1_555
O32_2 C63_2 1_555 1_555
C61_2 C49_2 1_555 1_555
H39_2 C61_2 1_555 1_555
C62_2 C61_2 1_555 1_555
C63_2 C62_2 1_555 1_555
C64_2 C56_2 1_555 1_555
H40_2 C64_2 1_555 1_555
Cd24_2 O31_2 1_555 1_555
O60 C55_2 1_555 1_555
C52_2 C55_2 1_555 1_555
O32_2 Cd24_2 1_555 1_555
C62_2 C64_2 1_555 1_555
O11_2 H63_2 1_555 1_555
C41_2 O54 1_555 1_555
C42_2 C41_2 1_555 1_555
C50_2 C42_2 1_555 1_555
H33_2 C50_2 1_555 1_555
C51_2 C42_2 1_555 1_555
H34_2 C51_2 1_555 1_555
O29_2 C57_2 1_555 1_555
O30_2 C57_2 1_555 1_555
C57_2 C58_2 1_555 1_555
C58_2 C59_2 1_555 1_555
C59_2 C50_2 1_555 1_555
H37_2 C59_2 1_555 1_555
C60_2 C51_2 1_555 1_555
H38_2 C60_2 1_555 1_555
Cd22_2 O29_2 1_555 1_555
O58 C41_2 1_555 1_555
O30_2 Cd22_2 1_555 1_555
C58_2 C60_2 1_555 1_555
O28_2 H62_2 1_555 1_555
O12_2 C24_3 1_555 1_555
C24_3 C25_3 1_555 1_555
C25_3 C26_2 1_555 1_555
H16_2 C26_2 1_555 1_555
O14_2 C24_3 1_555 1_555
C28_2 C25_3 1_555 1_555
H18_2 C28_2 1_555 1_555
Cd17 O12_2 1_555 1_555
O14_2 Cd17 1_555 1_555
Cd15 O4_2 1_555 1_555
Cd18 N3_2 1_555 1_555
Cd3_2 O1_2 1_555 1_555
Cd4_3 O1_2 1_555 1_555
O1_2 C10_2 1_555 1_555
O43 C20_2 1_555 1_555
N1_2 Cd3_2 1_555 1_555
O47 C20_2 1_555 1_555
N2_2 C7_2 1_555 1_555
N3_2 C1_2 1_555 1_555
O4_2 C3_3 1_555 1_555
C1_2 N1_2 1_555 1_555
H1_2 C1_2 1_555 1_555
O5_2 Cd18 1_555 1_555
N4_2 Cd15 1_555 1_555
C2_2 C10_2 1_555 1_555
N5_2 Cd3_2 1_555 1_555
O6_2 Cd18 1_555 1_555
H2_2 O6_2 1_555 1_555
H3_2 O6_2 1_555 1_555
C3_3 C4_3 1_555 1_555
C4_3 C5_2 1_555 1_555
C5_2 H4_2 1_555 1_555
C6_2 N1_2 1_555 1_555
H5_2 C6_2 1_555 1_555
O7_2 Cd3_2 1_555 1_555
O8_2 Cd3_2 1_555 1_555
C7_2 N5_2 1_555 1_555
H6_2 C7_2 1_555 1_555
O9_2 Cd18 1_555 1_555
C8_3 O5_2 1_555 1_555
O10_2 Cd3_2 1_555 1_555
C9_3 C8_3 1_555 1_555
C10_2 O8_2 1_555 1_555
N6_2 Cd4_3 1_555 1_555
C11_2 H7_2 1_555 1_555
C12_2 H8_2 1_555 1_555
C13_2 C2_2 1_555 1_555
H9_2 C13_2 1_555 1_555
C14_2 C2_2 1_555 1_555
H10_2 C14_2 1_555 1_555
C15_2 C11_2 1_555 1_555
C16_3 H11_3 1_555 1_555
C17_3 C9_3 1_555 1_555
H12_3 C17_3 1_555 1_555
C18_3 C9_3 1_555 1_555
H13_3 C18_3 1_555 1_555
C19_3 C16_3 1_555 1_555
C20_2 C15_2 1_555 1_555
C21_2 N2_2 1_555 1_555
H14_2 C21_2 1_555 1_555
C22_3 O7_2 1_555 1_555
C23_3 C19_3 1_555 1_555
H15_3 C23_3 1_555 1_555
O11_3 Cd4_3 1_555 1_555
O13_2 Cd15 1_555 1_555
C27_2 C4_3 1_555 1_555
H17_2 C27_2 1_555 1_555
Cd17 N10_2 1_555 1_555
Cd19 N2_2 1_555 1_555
Cd7_2 O19_2 1_555 1_555
Cd8_3 O19_2 1_555 1_555
O19_2 C43_2 1_555 1_555
O44 C53_2 1_555 1_555
N7_2 Cd7_2 1_555 1_555
O48 C53_2 1_555 1_555
N8_2 Cd18 1_555 1_555
N9_2 Cd19 1_555 1_555
C37_2 N7_2 1_555 1_555
H23_2 C37_2 1_555 1_555
O22_2 Cd19 1_555 1_555
N10_2 N9_2 1_555 1_555
C38_2 C43_2 1_555 1_555
N11_2 Cd7_2 1_555 1_555
O23_2 Cd19 1_555 1_555
H24_2 O23_2 1_555 1_555
H25_2 O23_2 1_555 1_555
C39_2 N7_2 1_555 1_555
H26_2 C39_2 1_555 1_555
O24_2 Cd7_2 1_555 1_555
O25_2 Cd7_2 1_555 1_555
C40_2 N8_2 1_555 1_555
H27_2 C40_2 1_555 1_555
O26_2 Cd19 1_555 1_555
C41_3 O22_2 1_555 1_555
O27_2 Cd7_2 1_555 1_555
C42_3 C41_3 1_555 1_555
C43_2 O25_2 1_555 1_555
N12_2 Cd8_3 1_555 1_555
C44_2 H28_2 1_555 1_555
C45_2 H29_2 1_555 1_555
C46_2 C38_2 1_555 1_555
H30_2 C46_2 1_555 1_555
C47_2 C38_2 1_555 1_555
H31_2 C47_2 1_555 1_555
C48_2 C44_2 1_555 1_555
C49_3 H32_3 1_555 1_555
C50_3 C42_3 1_555 1_555
H33_3 C50_3 1_555 1_555
C51_3 C42_3 1_555 1_555
H34_3 C51_3 1_555 1_555
C52_3 C49_3 1_555 1_555
C53_2 C48_2 1_555 1_555
C54_2 N8_2 1_555 1_555
H35_2 C54_2 1_555 1_555
C55_3 O24_2 1_555 1_555
C56_3 C52_3 1_555 1_555
H36_3 C56_3 1_555 1_555
O28_3 Cd8_3 1_555 1_555
Cd20 N15_2 1_555 1_555
Cd10_2 O33_2 1_555 1_555
O33_2 Cd8_3 1_555 1_555
O45 C75_2 1_555 1_555
N13_2 Cd10_2 1_555 1_555
O49 C75_2 1_555 1_555
N14_2 C68_2 1_555 1_555
N15_2 C65_2 1_555 1_555
C65_2 N13_2 1_555 1_555
H41_2 C65_2 1_555 1_555
N16_2 Cd15 1_555 1_555
C66_2 C69_2 1_555 1_555
N17_2 Cd10_2 1_555 1_555
O36_2 Cd20 1_555 1_555
H42_2 O36_2 1_555 1_555
H43_2 O36_2 1_555 1_555
C67_2 N13_2 1_555 1_555
H44_2 C67_2 1_555 1_555
O37_2 Cd10_2 1_555 1_555
C68_2 N17_2 1_555 1_555
H45_2 C68_2 1_555 1_555
C69_2 O33_2 1_555 1_555
N18_2 Cd8_3 1_555 1_555
C70_2 H46_2 1_555 1_555
C71_2 H47_2 1_555 1_555
C72_2 C66_2 1_555 1_555
H48_2 C72_2 1_555 1_555
C73_2 C66_2 1_555 1_555
H49_2 C73_2 1_555 1_555
C74_2 C70_2 1_555 1_555
C75_2 C74_2 1_555 1_555
C76_2 N14_2 1_555 1_555
H50_2 C76_2 1_555 1_555
Cd21 N14_2 1_555 1_555
Cd12_2 O38_2 1_555 1_555
O38_2 Cd4_3 1_555 1_555
O46 C87_2 1_555 1_555
N19_2 Cd12_2 1_555 1_555
O50 C87_2 1_555 1_555
N20_2 Cd20 1_555 1_555
N21_2 Cd21 1_555 1_555
C77_2 N19_2 1_555 1_555
H51_2 C77_2 1_555 1_555
N22_2 Cd17 1_555 1_555
C78_2 C81_2 1_555 1_555
N23_2 Cd12_2 1_555 1_555
O41_2 Cd21 1_555 1_555
H52_2 O41_2 1_555 1_555
H53_2 O41_2 1_555 1_555
C79_2 N19_2 1_555 1_555
H54_2 C79_2 1_555 1_555
O42_2 Cd12_2 1_555 1_555
C80_2 N20_2 1_555 1_555
H55_2 C80_2 1_555 1_555
C81_2 O38_2 1_555 1_555
N24_2 Cd4_3 1_555 1_555
C82_2 H56_2 1_555 1_555
C83_2 H57_2 1_555 1_555
C84_2 C78_2 1_555 1_555
H58_2 C84_2 1_555 1_555
C85_2 C78_2 1_555 1_555
H59_2 C85_2 1_555 1_555
C86_2 C82_2 1_555 1_555
C87_2 C86_2 1_555 1_555
C88_2 N20_2 1_555 1_555
H60_2 C88_2 1_555 1_555
O53_2 Cd20 1_555 1_555
O54_2 Cd21 1_555 1_555
O55_2 Cd10_2 1_555 1_555
O56_2 Cd12_2 1_555 1_555
O57_2 Cd20 1_555 1_555
O58_2 Cd21 1_555 1_555
O59_2 Cd10_2 1_555 1_555
O60_2 Cd12_2 1_555 1_555
N3_2 N4_2 1_555 1_555
N4_2 C6_2 1_555 1_555
N5_2 N6_2 1_555 1_555
C3_3 O13_2 1_555 1_555
O9_2 C8_3 1_555 1_555
O10_2 C22_3 1_555 1_555
N6_2 C21_2 1_555 1_555
C11_2 C13_2 1_555 1_555
C12_2 C14_2 1_555 1_555
C12_2 C15_2 1_555 1_555
C19_3 C22_3 1_555 1_555
N9_2 C37_2 1_555 1_555
N10_2 C39_2 1_555 1_555
N11_2 C40_2 1_555 1_555
N11_2 N12_2 1_555 1_555
O26_2 C41_3 1_555 1_555
O27_2 C55_3 1_555 1_555
N12_2 C54_2 1_555 1_555
C44_2 C46_2 1_555 1_555
C45_2 C47_2 1_555 1_555
C45_2 C48_2 1_555 1_555
C52_3 C55_3 1_555 1_555
N15_2 N16_2 1_555 1_555
N16_2 C67_2 1_555 1_555
N17_2 N18_2 1_555 1_555
O37_2 C69_2 1_555 1_555
N18_2 C76_2 1_555 1_555
C70_2 C72_2 1_555 1_555
C71_2 C73_2 1_555 1_555
C71_2 C74_2 1_555 1_555
N21_2 C77_2 1_555 1_555
N21_2 N22_2 1_555 1_555
N22_2 C79_2 1_555 1_555
N23_2 C80_2 1_555 1_555
N23_2 N24_2 1_555 1_555
O42_2 C81_2 1_555 1_555
N24_2 C88_2 1_555 1_555
C82_2 C84_2 1_555 1_555
C83_2 C85_2 1_555 1_555
C83_2 C86_2 1_555 1_555
O15_3 C29_3 1_555 1_555
O16_3 C29_3 1_555 1_555
C29_3 C30_3 1_555 1_555
C30_3 C31_3 1_555 1_555
H19_3 C31_3 1_555 1_555
H20_3 C32_3 1_555 1_555
O17_3 C35_3 1_555 1_555
O18_3 C35_3 1_555 1_555
H21_3 C33_3 1_555 1_555
C34_3 C33_3 1_555 1_555
C35_3 C34_3 1_555 1_555
H22_3 C36_3 1_555 1_555
O29_3 C57_3 1_555 1_555
O30_3 C57_3 1_555 1_555
C57_3 C58_3 1_555 1_555
C58_3 C59_3 1_555 1_555
H37_3 C59_3 1_555 1_555
H38_3 C60_3 1_555 1_555
O31_3 C63_3 1_555 1_555
O32_3 C63_3 1_555 1_555
H39_3 C61_3 1_555 1_555
C62_3 C61_3 1_555 1_555
C63_3 C62_3 1_555 1_555
H40_3 C64_3 1_555 1_555
Cd22_3 O29_3 1_555 1_555
Cd23_3 O15_3 1_555 1_555
Cd24_3 O31_3 1_555 1_555
Cd25_3 O17_3 1_555 1_555
O16_3 Cd23_3 1_555 1_555
C30_3 C32_3 1_555 1_555
O18_3 Cd25_3 1_555 1_555
C34_3 C36_3 1_555 1_555
O30_3 Cd22_3 1_555 1_555
C58_3 C60_3 1_555 1_555
O32_3 Cd24_3 1_555 1_555
C62_3 C64_3 1_555 1_555
C8_4 O53_2 1_555 1_555
C9_4 C8_4 1_555 1_555
C16_4 H11_4 1_555 1_555
C17_4 C9_4 1_555 1_555
H12_4 C17_4 1_555 1_555
C18_4 C9_4 1_555 1_555
H13_4 C18_4 1_555 1_555
C19_4 C16_4 1_555 1_555
C22_4 O55_2 1_555 1_555
C23_4 C19_4 1_555 1_555
H15_4 C23_4 1_555 1_555
O15_4 C29_4 1_555 1_555
O16_4 C29_4 1_555 1_555
C29_4 C30_4 1_555 1_555
C30_4 C31_4 1_555 1_555
C31_4 C17_4 1_555 1_555
H19_4 C31_4 1_555 1_555
C32_4 C18_4 1_555 1_555
H20_4 C32_4 1_555 1_555
O17_4 C35_4 1_555 1_555
O18_4 C35_4 1_555 1_555
C33_4 C16_4 1_555 1_555
H21_4 C33_4 1_555 1_555
C34_4 C33_4 1_555 1_555
C35_4 C34_4 1_555 1_555
C36_4 C23_4 1_555 1_555
H22_4 C36_4 1_555 1_555
C41_4 O54_2 1_555 1_555
C42_4 C41_4 1_555 1_555
C49_4 H32_4 1_555 1_555
C50_4 C42_4 1_555 1_555
H33_4 C50_4 1_555 1_555
C51_4 C42_4 1_555 1_555
H34_4 C51_4 1_555 1_555
C52_4 C49_4 1_555 1_555
C55_4 O56_2 1_555 1_555
C56_4 C52_4 1_555 1_555
H36_4 C56_4 1_555 1_555
O29_4 C57_4 1_555 1_555
O30_4 C57_4 1_555 1_555
C57_4 C58_4 1_555 1_555
C58_4 C59_4 1_555 1_555
C59_4 C50_4 1_555 1_555
H37_4 C59_4 1_555 1_555
C60_4 C51_4 1_555 1_555
H38_4 C60_4 1_555 1_555
O31_4 C63_4 1_555 1_555
O32_4 C63_4 1_555 1_555
C61_4 C49_4 1_555 1_555
H39_4 C61_4 1_555 1_555
C62_4 C61_4 1_555 1_555
C63_4 C62_4 1_555 1_555
C64_4 C56_4 1_555 1_555
H40_4 C64_4 1_555 1_555
Cd22_4 O29_4 1_555 1_555
Cd23_4 O15_4 1_555 1_555
Cd24_4 O31_4 1_555 1_555
Cd25_4 O17_4 1_555 1_555
O57_2 C8_4 1_555 1_555
O59_2 C22_4 1_555 1_555
C19_4 C22_4 1_555 1_555
O16_4 Cd23_4 1_555 1_555
C30_4 C32_4 1_555 1_555
O18_4 Cd25_4 1_555 1_555
C34_4 C36_4 1_555 1_555
O58_2 C41_4 1_555 1_555
O60_2 C55_4 1_555 1_555
C52_4 C55_4 1_555 1_555
O30_4 Cd22_4 1_555 1_555
C58_4 C60_4 1_555 1_555
O32_4 Cd24_4 1_555 1_555
C62_4 C64_4 1_555 1_555
Cd5 N10_3 1_555 1_555
Cd25 O19_3 1_555 1_555
Cd8_4 O19_3 1_555 1_555
O19_3 C43_3 1_555 1_555
O20_2 C53_3 1_555 1_555
N7_3 Cd25 1_555 1_555
O21_2 C53_3 1_555 1_555
C37_3 N7_3 1_555 1_555
H23_3 C37_3 1_555 1_555
N10_3 N9_3 1_555 1_555
C38_3 C43_3 1_555 1_555
C39_3 N7_3 1_555 1_555
H26_3 C39_3 1_555 1_555
O25_3 Cd25 1_555 1_555
C43_3 O25_3 1_555 1_555
C44_3 H28_3 1_555 1_555
C45_3 H29_3 1_555 1_555
C46_3 C38_3 1_555 1_555
H30_3 C46_3 1_555 1_555
C47_3 C38_3 1_555 1_555
H31_3 C47_3 1_555 1_555
C48_3 C44_3 1_555 1_555
C53_3 C48_3 1_555 1_555
O28_4 Cd8_4 1_555 1_555
N14_3 C68_3 1_555 1_555
C68_3 N17_3 1_555 1_555
H45_3 C68_3 1_555 1_555
N18_3 Cd8_4 1_555 1_555
C76_3 N14_3 1_555 1_555
H50_3 C76_3 1_555 1_555
Cd23_2 N14_3 1_555 1_555
O41_3 Cd23_2 1_555 1_555
H53_3 O41_3 1_555 1_555
Cd14 O20_2 1_555 1_555
Cd22_4 O20_2 1_555 1_555
O43_2 Cd5 1_555 1_555
O47_2 Cd23_2 1_555 1_555
O51 Cd5 1_555 1_555
O21_2 Cd22_4 1_555 1_555
N9_3 C37_3 1_555 1_555
N10_3 C39_3 1_555 1_555
C44_3 C46_3 1_555 1_555
C45_3 C47_3 1_555 1_555
C45_3 C48_3 1_555 1_555
N17_3 N18_3 1_555 1_555
N18_3 C76_3 1_555 1_555
Cd23_2 O43_2 1_555 1_555
O28_4 H63_3 1_555 1_555
N2_3 C7_3 1_555 1_555
C7_3 N5_3 1_555 1_555
H6_3 C7_3 1_555 1_555
N6_3 Cd4_4 1_555 1_555
C21_3 N2_3 1_555 1_555
H14_3 C21_3 1_555 1_555
O11_4 Cd4_4 1_555 1_555
Cd23 N2_3 1_555 1_555
O23_3 Cd23 1_555 1_555
H25_3 O23_3 1_555 1_555
Cd25_2 O38_3 1_555 1_555
O38_3 Cd4_4 1_555 1_555
O39_2 C87_3 1_555 1_555
N19_3 Cd25_2 1_555 1_555
O40_2 C87_3 1_555 1_555
C77_3 N19_3 1_555 1_555
H51_3 C77_3 1_555 1_555
N22_3 Cd5_2 1_555 1_555
C78_3 C81_3 1_555 1_555
C79_3 N19_3 1_555 1_555
H54_3 C79_3 1_555 1_555
O42_3 Cd25_2 1_555 1_555
C81_3 O38_3 1_555 1_555
C82_3 H56_3 1_555 1_555
C83_3 H57_3 1_555 1_555
C84_3 C78_3 1_555 1_555
H58_3 C84_3 1_555 1_555
C85_3 C78_3 1_555 1_555
H59_3 C85_3 1_555 1_555
C86_3 C82_3 1_555 1_555
C87_3 C86_3 1_555 1_555
Cd14 O39_2 1_555 1_555
Cd22_3 O39_2 1_555 1_555
O45_2 Cd5_2 1_555 1_555
O49_2 Cd23 1_555 1_555
O52 Cd5_2 1_555 1_555
N5_3 N6_3 1_555 1_555
N6_3 C21_3 1_555 1_555
Cd23 O45_2 1_555 1_555
O40_2 Cd22_3 1_555 1_555
N21_3 C77_3 1_555 1_555
N21_3 N22_3 1_555 1_555
N22_3 C79_3 1_555 1_555
O42_3 C81_3 1_555 1_555
C82_3 C84_3 1_555 1_555
C83_3 C85_3 1_555 1_555
C83_3 C86_3 1_555 1_555
O11_4 H62_3 1_555 1_555
O6_3 Cd22 1_555 1_555
H3_3 O6_3 1_555 1_555
C3_4 C4_4 1_555 1_555
C4_4 C5_3 1_555 1_555
C5_3 H4_3 1_555 1_555
O51 C24_4 1_555 1_555
C24_4 C25_4 1_555 1_555
O13_3 Cd1_3 1_555 1_555
C28_3 C25_4 1_555 1_555
H18_3 C28_3 1_555 1_555
N8_3 Cd22 1_555 1_555
C40_3 N8_3 1_555 1_555
H27_3 C40_3 1_555 1_555
N12_3 Cd8_5 1_555 1_555
C54_3 N8_3 1_555 1_555
H35_3 C54_3 1_555 1_555
O28_5 Cd8_5 1_555 1_555
Cd24_2 O33_3 1_555 1_555
O33_3 Cd8_5 1_555 1_555
O34_2 C75_3 1_555 1_555
N13_3 Cd24_2 1_555 1_555
O35_2 C75_3 1_555 1_555
N15_3 C65_3 1_555 1_555
C65_3 N13_3 1_555 1_555
H41_3 C65_3 1_555 1_555
N16_3 Cd1_3 1_555 1_555
C66_3 C69_3 1_555 1_555
C67_3 N13_3 1_555 1_555
H44_3 C67_3 1_555 1_555
O37_3 Cd24_2 1_555 1_555
C69_3 O33_3 1_555 1_555
C70_3 H46_3 1_555 1_555
C71_3 H47_3 1_555 1_555
C72_3 C66_3 1_555 1_555
H48_3 C72_3 1_555 1_555
C73_3 C66_3 1_555 1_555
H49_3 C73_3 1_555 1_555
C74_3 C70_3 1_555 1_555
C75_3 C74_3 1_555 1_555
Cd16 O34_2 1_555 1_555
Cd23_3 O34_2 1_555 1_555
O46_2 Cd1_3 1_555 1_555
O50_2 Cd22 1_555 1_555
Cd22 O46_2 1_555 1_555
C3_4 O13_3 1_555 1_555
N11_3 C40_3 1_555 1_555
N11_3 N12_3 1_555 1_555
N12_3 C54_3 1_555 1_555
O35_2 Cd23_3 1_555 1_555
N15_3 N16_3 1_555 1_555
N16_3 C67_3 1_555 1_555
O37_3 C69_3 1_555 1_555
C70_3 C72_3 1_555 1_555
C71_3 C73_3 1_555 1_555
C71_3 C74_3 1_555 1_555
O28_5 H64_3 1_555 1_555
Cd1_4 O4_3 1_555 1_555
Cd24 O1_3 1_555 1_555
Cd4_5 O1_3 1_555 1_555
O1_3 C10_3 1_555 1_555
O2_2 C20_3 1_555 1_555
N1_3 Cd24 1_555 1_555
O3_2 C20_3 1_555 1_555
N3_3 C1_3 1_555 1_555
O4_3 C3_5 1_555 1_555
C1_3 N1_3 1_555 1_555
H1_3 C1_3 1_555 1_555
N4_3 Cd1_4 1_555 1_555
C2_3 C10_3 1_555 1_555
C3_5 C4_5 1_555 1_555
C6_3 N1_3 1_555 1_555
H5_3 C6_3 1_555 1_555
O8_3 Cd24 1_555 1_555
C10_3 O8_3 1_555 1_555
C11_3 H7_3 1_555 1_555
C12_3 H8_3 1_555 1_555
C13_3 C2_3 1_555 1_555
H9_3 C13_3 1_555 1_555
C14_3 C2_3 1_555 1_555
H10_3 C14_3 1_555 1_555
C15_3 C11_3 1_555 1_555
C20_3 C15_3 1_555 1_555
O11_5 Cd4_5 1_555 1_555
C24_5 C25_5 1_555 1_555
C25_5 C26_3 1_555 1_555
H16_3 C26_3 1_555 1_555
C27_3 C4_5 1_555 1_555
H17_3 C27_3 1_555 1_555
O52 C24_5 1_555 1_555
O36_3 Cd22_2 1_555 1_555
H43_3 O36_3 1_555 1_555
N20_3 Cd22_2 1_555 1_555
C80_3 N20_3 1_555 1_555
H55_3 C80_3 1_555 1_555
N24_3 Cd4_5 1_555 1_555
C88_3 N20_3 1_555 1_555
H60_3 C88_3 1_555 1_555
Cd16 O2_2 1_555 1_555
Cd23_4 O2_2 1_555 1_555
O44_2 Cd1_4 1_555 1_555
O48_2 Cd22_2 1_555 1_555
O3_2 Cd23_4 1_555 1_555
N3_3 N4_3 1_555 1_555
N4_3 C6_3 1_555 1_555
C11_3 C13_3 1_555 1_555
C12_3 C14_3 1_555 1_555
C12_3 C15_3 1_555 1_555
Cd22_2 O44_2 1_555 1_555
N23_3 C80_3 1_555 1_555
N23_3 N24_3 1_555 1_555
N24_3 C88_3 1_555 1_555
O11_5 H61_3 1_555 1_555
O28_4 H62_4 1_555 1_555
O11_4 H63_4 1_555 1_555
O28_5 H61_4 1_555 1_555
O11_5 H64_4 1_555 1_555
Cd14 O4_4 1_555 1_555
Cd22_3 N3_4 1_555 1_555
Cd24_3 O1_4 1_555 1_555
Cd4_6 O1_4 1_555 1_555
O1_4 C10_4 1_555 1_555
O43_2 C20_4 1_555 1_555
N1_4 Cd24_3 1_555 1_555
O47_2 C20_4 1_555 1_555
N2_4 C7_4 1_555 1_555
N3_4 C1_4 1_555 1_555
O4_4 C3_6 1_555 1_555
C1_4 N1_4 1_555 1_555
H1_4 C1_4 1_555 1_555
N4_4 Cd14 1_555 1_555
C2_4 C10_4 1_555 1_555
N5_4 Cd24_3 1_555 1_555
O6_4 Cd22_3 1_555 1_555
H2_4 O6_4 1_555 1_555
H3_4 O6_4 1_555 1_555
C3_6 C4_6 1_555 1_555
C4_6 C5_4 1_555 1_555
C5_4 H4_4 1_555 1_555
C6_4 N1_4 1_555 1_555
H5_4 C6_4 1_555 1_555
O8_4 Cd24_3 1_555 1_555
C7_4 N5_4 1_555 1_555
H6_4 C7_4 1_555 1_555
C10_4 O8_4 1_555 1_555
N6_4 Cd4_6 1_555 1_555
C11_4 H7_4 1_555 1_555
C12_4 H8_4 1_555 1_555
C13_4 C2_4 1_555 1_555
H9_4 C13_4 1_555 1_555
C14_4 C2_4 1_555 1_555
H10_4 C14_4 1_555 1_555
C15_4 C11_4 1_555 1_555
C20_4 C15_4 1_555 1_555
C21_4 N2_4 1_555 1_555
H14_4 C21_4 1_555 1_555
O11_6 Cd4_6 1_555 1_555
O13_4 Cd14 1_555 1_555
C27_4 C4_6 1_555 1_555
H17_4 C27_4 1_555 1_555
Cd16 N10_4 1_555 1_555
Cd23_3 N2_4 1_555 1_555
Cd25_3 O19_4 1_555 1_555
Cd8_6 O19_4 1_555 1_555
O19_4 C43_4 1_555 1_555
O44_2 C53_4 1_555 1_555
N7_4 Cd25_3 1_555 1_555
O48_2 C53_4 1_555 1_555
N8_4 Cd22_3 1_555 1_555
N9_4 Cd23_3 1_555 1_555
C37_4 N7_4 1_555 1_555
H23_4 C37_4 1_555 1_555
N10_4 N9_4 1_555 1_555
C38_4 C43_4 1_555 1_555
N11_4 Cd25_3 1_555 1_555
O23_4 Cd23_3 1_555 1_555
H24_4 O23_4 1_555 1_555
H25_4 O23_4 1_555 1_555
C39_4 N7_4 1_555 1_555
H26_4 C39_4 1_555 1_555
O25_4 Cd25_3 1_555 1_555
C40_4 N8_4 1_555 1_555
H27_4 C40_4 1_555 1_555
C43_4 O25_4 1_555 1_555
N12_4 Cd8_6 1_555 1_555
C44_4 H28_4 1_555 1_555
C45_4 H29_4 1_555 1_555
C46_4 C38_4 1_555 1_555
H30_4 C46_4 1_555 1_555
C47_4 C38_4 1_555 1_555
H31_4 C47_4 1_555 1_555
C48_4 C44_4 1_555 1_555
C53_4 C48_4 1_555 1_555
C54_4 N8_4 1_555 1_555
H35_4 C54_4 1_555 1_555
O28_6 Cd8_6 1_555 1_555
Cd22_4 N15_4 1_555 1_555
Cd24_4 O33_4 1_555 1_555
O33_4 Cd8_6 1_555 1_555
O45_2 C75_4 1_555 1_555
N13_4 Cd24_4 1_555 1_555
O49_2 C75_4 1_555 1_555
N14_4 C68_4 1_555 1_555
N15_4 C65_4 1_555 1_555
C65_4 N13_4 1_555 1_555
H41_4 C65_4 1_555 1_555
N16_4 Cd14 1_555 1_555
C66_4 C69_4 1_555 1_555
N17_4 Cd24_4 1_555 1_555
O36_4 Cd22_4 1_555 1_555
H42_4 O36_4 1_555 1_555
H43_4 O36_4 1_555 1_555
C67_4 N13_4 1_555 1_555
H44_4 C67_4 1_555 1_555
O37_4 Cd24_4 1_555 1_555
C68_4 N17_4 1_555 1_555
H45_4 C68_4 1_555 1_555
C69_4 O33_4 1_555 1_555
N18_4 Cd8_6 1_555 1_555
C70_4 H46_4 1_555 1_555
C71_4 H47_4 1_555 1_555
C72_4 C66_4 1_555 1_555
H48_4 C72_4 1_555 1_555
C73_4 C66_4 1_555 1_555
H49_4 C73_4 1_555 1_555
C74_4 C70_4 1_555 1_555
C75_4 C74_4 1_555 1_555
C76_4 N14_4 1_555 1_555
H50_4 C76_4 1_555 1_555
Cd23_4 N14_4 1_555 1_555
Cd25_4 O38_4 1_555 1_555
O38_4 Cd4_6 1_555 1_555
O46_2 C87_4 1_555 1_555
N19_4 Cd25_4 1_555 1_555
O50_2 C87_4 1_555 1_555
N20_4 Cd22_4 1_555 1_555
N21_4 Cd23_4 1_555 1_555
C77_4 N19_4 1_555 1_555
H51_4 C77_4 1_555 1_555
N22_4 Cd16 1_555 1_555
C78_4 C81_4 1_555 1_555
N23_4 Cd25_4 1_555 1_555
O41_4 Cd23_4 1_555 1_555
H52_4 O41_4 1_555 1_555
H53_4 O41_4 1_555 1_555
C79_4 N19_4 1_555 1_555
H54_4 C79_4 1_555 1_555
O42_4 Cd25_4 1_555 1_555
C80_4 N20_4 1_555 1_555
H55_4 C80_4 1_555 1_555
C81_4 O38_4 1_555 1_555
N24_4 Cd4_6 1_555 1_555
C82_4 H56_4 1_555 1_555
C83_4 H57_4 1_555 1_555
C84_4 C78_4 1_555 1_555
H58_4 C84_4 1_555 1_555
C85_4 C78_4 1_555 1_555
H59_4 C85_4 1_555 1_555
C86_4 C82_4 1_555 1_555
C87_4 C86_4 1_555 1_555
C88_4 N20_4 1_555 1_555
H60_4 C88_4 1_555 1_555
O51_2 Cd16 1_555 1_555
O52_2 Cd16 1_555 1_555
N3_4 N4_4 1_555 1_555
N4_4 C6_4 1_555 1_555
N5_4 N6_4 1_555 1_555
C3_6 O13_4 1_555 1_555
N6_4 C21_4 1_555 1_555
C11_4 C13_4 1_555 1_555
C12_4 C14_4 1_555 1_555
C12_4 C15_4 1_555 1_555
N9_4 C37_4 1_555 1_555
N10_4 C39_4 1_555 1_555
N11_4 C40_4 1_555 1_555
N11_4 N12_4 1_555 1_555
N12_4 C54_4 1_555 1_555
C44_4 C46_4 1_555 1_555
C45_4 C47_4 1_555 1_555
C45_4 C48_4 1_555 1_555
N15_4 N16_4 1_555 1_555
N16_4 C67_4 1_555 1_555
N17_4 N18_4 1_555 1_555
O37_4 C69_4 1_555 1_555
N18_4 C76_4 1_555 1_555
C70_4 C72_4 1_555 1_555
C71_4 C73_4 1_555 1_555
C71_4 C74_4 1_555 1_555
N21_4 C77_4 1_555 1_555
N21_4 N22_4 1_555 1_555
N22_4 C79_4 1_555 1_555
N23_4 C80_4 1_555 1_555
N23_4 N24_4 1_555 1_555
O42_4 C81_4 1_555 1_555
N24_4 C88_4 1_555 1_555
C82_4 C84_4 1_555 1_555
C83_4 C85_4 1_555 1_555
C83_4 C86_4 1_555 1_555
O51_2 C24_6 1_555 1_555
C24_6 C25_6 1_555 1_555
C25_6 C26_4 1_555 1_555
H16_4 C26_4 1_555 1_555
O52_2 C24_6 1_555 1_555
C28_4 C25_6 1_555 1_555
H18_4 C28_4 1_555 1_555

#END
