
###############################################################################
#
# This file contains modified crystal structure data generated from the
# MOF subset of the Cambridge Structural Database (CSD) v543 
# hosted by the Cambridge Crystallographic Data Centre (CCDC).
#
# This work is licensed under the Creative Commons
# Attribution-NonCommercial-ShareAlike 4.0 International License.
# To view a copy of this license, visit
# http://creativecommons.org/licenses/by-nc-sa/4.0/
# or send a letter to
# Creative Commons, PO Box 1866, Mountain View, CA 94042, USA.
#
# CIF created using the CSD Python API on 29 September 2022
# The structure has been converted into the P1 space group
# The structure has a 3D framework
# The original CSD entry DUPKEG is in the monoclinic crystal system
# The framework has been calculated to contain at least 10.0% void space
# The void calculation uses a probe of radius 1.32A, grid spacing 0.4
#
###############################################################################

data_DUPKEG
_chemical_formula_moiety         '(C78 H46 Cd4 N6 O12)n'
_symmetry_cell_setting           triclinic
_symmetry_space_group_name_H-M   'P 1'
_symmetry_Int_Tables_number      1
_space_group_name_Hall           'P 1'
loop_
_symmetry_equiv_pos_site_id
_symmetry_equiv_pos_as_xyz
1 x,y,z
_cell_length_a                   16.709(3)
_cell_length_b                   15.867(3)
_cell_length_c                   8.0026(16)
_cell_angle_alpha                90
_cell_angle_beta                 113.96(3)
_cell_angle_gamma                90
_cell_volume                     1938.84
loop_
_atom_site_label
_atom_site_type_symbol
_atom_site_fract_x
_atom_site_fract_y
_atom_site_fract_z
O6 O 0.60429(14) 0.00299(13) 0.1040(3)
Cd1 Cd 0.5000 0.013757(18) 0.7500
O1 O 0.40351(16) 0.10760(16) 0.5818(3)
O2 O 0.39571(14) 0.00299(13) 0.3960(3)
C4 C 0.14724(16) 0.19716(17) 0.0197(3)
C5 C 0.19655(18) 0.23545(19) 0.1862(3)
H3 H 0.1814 0.2890 0.2104
C6 C 0.26763(18) 0.1950(2) 0.3160(4)
H4 H 0.3001 0.2220 0.4260
C7 C 0.29151(17) 0.11449(19) 0.2847(3)
C8 C 0.24309(19) 0.0764(2) 0.1183(4)
H5 H 0.2585 0.0229 0.0941
C10 C 0.36869(19) 0.0724(2) 0.4290(4)
O5 O 0.59649(16) 0.10760(16) 0.9182(3)
N1 N 1.0000 0.3711(2) 0.7500
C3 C 1.0000 0.1971(2) 0.7500
H2 H 1.0000 0.1384 0.7500
C11 C 0.93443(16) 0.32812(18) 0.6234(3)
H7 H 0.8897 0.3582 0.5338
C12 C 0.93001(15) 0.24062(18) 0.6194(3)
C13 C 0.85276(16) 0.19716(17) 0.4803(3)
C14 C 0.80345(18) 0.23545(19) 0.3138(3)
H8 H 0.8186 0.2890 0.2896
C15 C 0.73237(18) 0.1950(2) 0.1840(4)
H9 H 0.6999 0.2220 0.0740
C16 C 0.70849(17) 0.11449(19) 0.2153(3)
C17 C 0.75691(19) 0.0764(2) 0.3817(4)
H10 H 0.7415 0.0229 0.4059
C18 C 0.82794(19) 0.1172(2) 0.5121(4)
H11 H 0.8597 0.0907 0.6231
C19 C 0.63131(19) 0.0724(2) 0.0710(4)
Cd3 Cd 1.0000 0.513757(18) 0.7500
O1_2 O 0.90351(16) 0.60760(16) 0.5818(3)
O2_2 O 0.89571(14) 0.50299(13) 0.3960(3)
C4_2 C 0.64724(16) 0.69716(17) 0.0197(3)
C5_2 C 0.69655(18) 0.73545(19) 0.1862(3)
H3_2 H 0.6814 0.7890 0.2104
C6_2 C 0.76763(18) 0.6950(2) 0.3160(4)
H4_2 H 0.8001 0.7220 0.4260
C7_2 C 0.79151(17) 0.61449(19) 0.2847(3)
C8_2 C 0.74309(19) 0.5764(2) 0.1183(4)
H5_2 H 0.7585 0.5229 0.0941
C10_2 C 0.86869(19) 0.5724(2) 0.4290(4)
Cd5 Cd 1.0000 0.486243(18) 0.2500
O8 O 0.89571(14) 0.49701(13) 0.8960(3)
N2 N 0.5000 0.1289(2) 0.2500
N1_2 N 1.0000 0.6289(2) 0.2500
C1 C 0.93443(16) 0.67188(18) 0.1234(3)
H1 H 0.8897 0.6418 0.0338
C2 C 0.93001(15) 0.75938(18) 0.1194(3)
C3_2 C 1.0000 0.8029(2) 0.2500
H2_2 H 1.0000 0.8616 0.2500
C9 C 0.82794(19) 0.8828(2) 0.0121(4)
H6 H 0.8597 0.9093 0.1231
O3 O 0.90351(16) 0.39240(16) 0.0818(3)
C1_2 C 0.43443(16) 0.17188(18) 0.1234(3)
H1_2 H 0.3897 0.1418 0.0338
C2_2 C 0.43001(15) 0.25938(18) 0.1194(3)
C3_3 C 0.5000 0.3029(2) 0.2500
H2_3 H 0.5000 0.3616 0.2500
C9_2 C 0.32794(19) 0.3828(2) 0.0121(4)
H6_2 H 0.3597 0.4093 0.1231
C11_2 C 0.56557(16) 0.17188(18) 0.3766(3)
H7_2 H 0.6103 0.1418 0.4662
C12_2 C 0.56999(15) 0.25938(18) 0.3806(3)
C13_2 C 0.64724(16) 0.30284(17) 0.5197(3)
C14_2 C 0.69655(18) 0.26455(19) 0.6862(3)
H8_2 H 0.6814 0.2110 0.7104
C15_2 C 0.76763(18) 0.3050(2) 0.8160(4)
H9_2 H 0.8001 0.2780 0.9260
C16_2 C 0.79151(17) 0.38551(19) 0.7847(3)
C17_2 C 0.74309(19) 0.4236(2) 0.6183(4)
H10_2 H 0.7585 0.4771 0.5941
C18_2 C 0.67206(19) 0.3828(2) 0.4879(4)
H11_2 H 0.6403 0.4093 0.3769
C19_2 C 0.86869(19) 0.4276(2) 0.9290(4)
N1_3 N -0.0000 0.3711(2) 0.7500
C1_3 C 0.06557(16) 0.32812(18) 0.8766(3)
H1_3 H 0.1103 0.3582 0.9662
C2_3 C 0.06999(15) 0.24062(18) 0.8806(3)
C3_4 C 0.0000 0.1971(2) 0.7500
H2_4 H 0.0000 0.1384 0.7500
C9_3 C 0.17206(19) 0.1172(2) 0.9879(4)
H6_3 H 0.1403 0.0907 0.8769
Cd3_2 Cd -0.0000 0.513757(18) 0.7500
Cd5_2 Cd 0.5000 0.986243(18) 0.2500
O7 O 0.60429(14) 0.99701(13) 0.6040(3)
O8_2 O 0.39571(14) 0.99701(13) 0.8960(3)
N2_2 N 0.5000 0.8711(2) 0.7500
O6_2 O 0.10429(14) 0.50299(13) 0.1040(3)
Cd5_3 Cd -0.0000 0.486243(18) 0.2500
O5_2 O 0.09649(16) 0.60760(16) 0.9182(3)
O7_2 O 0.10429(14) 0.49701(13) 0.6040(3)
C1_4 C 0.56557(16) 0.82812(18) 0.8766(3)
H1_4 H 0.6103 0.8582 0.9662
C2_4 C 0.56999(15) 0.74062(18) 0.8806(3)
C3_5 C 0.5000 0.6971(2) 0.7500
H2_5 H 0.5000 0.6384 0.7500
C9_4 C 0.67206(19) 0.6172(2) 0.9879(4)
H6_4 H 0.6403 0.5907 0.8769
C11_3 C 0.43443(16) 0.82812(18) 0.6234(3)
H7_3 H 0.3897 0.8582 0.5338
C12_3 C 0.43001(15) 0.74062(18) 0.6194(3)
C13_3 C 0.35276(16) 0.69716(17) 0.4803(3)
C14_3 C 0.30345(18) 0.73545(19) 0.3138(3)
H8_3 H 0.3186 0.7890 0.2896
C15_3 C 0.23237(18) 0.6950(2) 0.1840(4)
H9_3 H 0.1999 0.7220 0.0740
C16_3 C 0.20849(17) 0.61449(19) 0.2153(3)
C17_3 C 0.25691(19) 0.5764(2) 0.3817(4)
H10_3 H 0.2415 0.5229 0.4059
C18_3 C 0.32794(19) 0.6172(2) 0.5121(4)
H11_3 H 0.3597 0.5907 0.6231
C19_3 C 0.13131(19) 0.5724(2) 0.0710(4)
O3_2 O 0.40351(16) 0.89240(16) 0.0818(3)
N1_4 N -0.0000 0.6289(2) 0.2500
C3_6 C -0.0000 0.8029(2) 0.2500
H2_6 H -0.0000 0.8616 0.2500
C11_4 C 0.06557(16) 0.67188(18) 0.3766(3)
H7_4 H 0.1103 0.6418 0.4662
C12_4 C 0.06999(15) 0.75938(18) 0.3806(3)
C13_4 C 0.14724(16) 0.80284(17) 0.5197(3)
C14_4 C 0.19655(18) 0.76455(19) 0.6862(3)
H8_4 H 0.1814 0.7110 0.7104
C15_4 C 0.26763(18) 0.8050(2) 0.8160(4)
H9_4 H 0.3001 0.7780 0.9260
C16_4 C 0.29151(17) 0.88551(19) 0.7847(3)
C17_4 C 0.24309(19) 0.9236(2) 0.6183(4)
H10_4 H 0.2585 0.9771 0.5941
C18_4 C 0.17206(19) 0.8828(2) 0.4879(4)
H11_4 H 0.1403 0.9093 0.3769
C19_4 C 0.36869(19) 0.9276(2) 0.9290(4)
O1_3 O 0.59649(16) 0.89240(16) 0.4182(3)
C4_3 C 0.85276(16) 0.80284(17) 0.9803(3)
C5_3 C 0.80345(18) 0.76455(19) 0.8138(3)
H3_3 H 0.8186 0.7110 0.7896
C6_3 C 0.73237(18) 0.8050(2) 0.6840(4)
H4_3 H 0.6999 0.7780 0.5740
C7_3 C 0.70849(17) 0.88551(19) 0.7153(3)
C8_3 C 0.75691(19) 0.9236(2) 0.8817(4)
H5_3 H 0.7415 0.9771 0.9059
C10_3 C 0.63131(19) 0.9276(2) 0.5710(4)
O1_4 O 0.09649(16) 0.39240(16) 0.4182(3)
C4_4 C 0.35276(16) 0.30284(17) 0.9803(3)
C5_4 C 0.30345(18) 0.26455(19) 0.8138(3)
H3_4 H 0.3186 0.2110 0.7896
C6_4 C 0.23237(18) 0.3050(2) 0.6840(4)
H4_4 H 0.1999 0.2780 0.5740
C7_4 C 0.20849(17) 0.38551(19) 0.7153(3)
C8_4 C 0.25691(19) 0.4236(2) 0.8817(4)
H5_4 H 0.2415 0.4771 0.9059
C10_4 C 0.13131(19) 0.4276(2) 0.5710(4)
loop_
_geom_bond_atom_site_label_1
_geom_bond_atom_site_label_2
_geom_bond_site_symmetry_1
_geom_bond_site_symmetry_2
Cd1 O1 1_555 1_555
O1 C10 1_555 1_555
O2 Cd1 1_555 1_555
C5 C4 1_555 1_555
H3 C5 1_555 1_555
C6 C5 1_555 1_555
H4 C6 1_555 1_555
C7 C6 1_555 1_555
C8 C7 1_555 1_555
H5 C8 1_555 1_555
C10 O2 1_555 1_555
O5 Cd1 1_555 1_555
C7 C10 1_555 1_555
H2 C3 1_555 1_555
O6 C19 1_555 1_555
C11 N1 1_555 1_555
H7 C11 1_555 1_555
C12 C3 1_555 1_555
C13 C12 1_555 1_555
C14 C13 1_555 1_555
H8 C14 1_555 1_555
C15 C14 1_555 1_555
H9 C15 1_555 1_555
C16 C15 1_555 1_555
C17 C16 1_555 1_555
H10 C17 1_555 1_555
C18 C13 1_555 1_555
H11 C18 1_555 1_555
C19 C16 1_555 1_555
Cd3 N1 1_555 1_555
C11 C12 1_555 1_555
C17 C18 1_555 1_555
Cd3 O1_2 1_555 1_555
O1_2 C10_2 1_555 1_555
O2_2 Cd3 1_555 1_555
C5_2 C4_2 1_555 1_555
H3_2 C5_2 1_555 1_555
C6_2 C5_2 1_555 1_555
H4_2 C6_2 1_555 1_555
C7_2 C6_2 1_555 1_555
C8_2 C7_2 1_555 1_555
H5_2 C8_2 1_555 1_555
C10_2 O2_2 1_555 1_555
Cd5 O2_2 1_555 1_555
O8 Cd3 1_555 1_555
C7_2 C10_2 1_555 1_555
N1_2 C1 1_555 1_555
C1 H1 1_555 1_555
C2 C1 1_555 1_555
C3_2 C2 1_555 1_555
H2_2 C3_2 1_555 1_555
H6 C9 1_555 1_555
Cd5 N1_2 1_555 1_555
Cd5 O3 1_555 1_555
N2 C1_2 1_555 1_555
C1_2 H1_2 1_555 1_555
C2_2 C1_2 1_555 1_555
C3_3 C2_2 1_555 1_555
H2_3 C3_3 1_555 1_555
H6_2 C9_2 1_555 1_555
O8 C19_2 1_555 1_555
C11_2 N2 1_555 1_555
H7_2 C11_2 1_555 1_555
C12_2 C3_3 1_555 1_555
C13_2 C12_2 1_555 1_555
C14_2 C13_2 1_555 1_555
H8_2 C14_2 1_555 1_555
C15_2 C14_2 1_555 1_555
H9_2 C15_2 1_555 1_555
C16_2 C15_2 1_555 1_555
C17_2 C16_2 1_555 1_555
H10_2 C17_2 1_555 1_555
C18_2 C13_2 1_555 1_555
H11_2 C18_2 1_555 1_555
C19_2 C16_2 1_555 1_555
C11_2 C12_2 1_555 1_555
C17_2 C18_2 1_555 1_555
N1_3 C1_3 1_555 1_555
C1_3 H1_3 1_555 1_555
C2_3 C1_3 1_555 1_555
C3_4 C2_3 1_555 1_555
H2_4 C3_4 1_555 1_555
H6_3 C9_3 1_555 1_555
Cd3_2 N1_3 1_555 1_555
Cd5_2 O7 1_555 1_555
O5_2 Cd3_2 1_555 1_555
O7_2 Cd3_2 1_555 1_555
Cd5_3 O7_2 1_555 1_555
N2_2 C1_4 1_555 1_555
C1_4 H1_4 1_555 1_555
C2_4 C1_4 1_555 1_555
C3_5 C2_4 1_555 1_555
H2_5 C3_5 1_555 1_555
H6_4 C9_4 1_555 1_555
O6_2 C19_3 1_555 1_555
C11_3 N2_2 1_555 1_555
H7_3 C11_3 1_555 1_555
C12_3 C3_5 1_555 1_555
C13_3 C12_3 1_555 1_555
C14_3 C13_3 1_555 1_555
H8_3 C14_3 1_555 1_555
C15_3 C14_3 1_555 1_555
H9_3 C15_3 1_555 1_555
C16_3 C15_3 1_555 1_555
C17_3 C16_3 1_555 1_555
H10_3 C17_3 1_555 1_555
C18_3 C13_3 1_555 1_555
H11_3 C18_3 1_555 1_555
C19_3 C16_3 1_555 1_555
Cd5_3 O6_2 1_555 1_555
C11_3 C12_3 1_555 1_555
C17_3 C18_3 1_555 1_555
Cd5_2 O3_2 1_555 1_555
H2_6 C3_6 1_555 1_555
O8_2 C19_4 1_555 1_555
C11_4 N1_4 1_555 1_555
H7_4 C11_4 1_555 1_555
C12_4 C3_6 1_555 1_555
C13_4 C12_4 1_555 1_555
C14_4 C13_4 1_555 1_555
H8_4 C14_4 1_555 1_555
C15_4 C14_4 1_555 1_555
H9_4 C15_4 1_555 1_555
C16_4 C15_4 1_555 1_555
C17_4 C16_4 1_555 1_555
H10_4 C17_4 1_555 1_555
C18_4 C13_4 1_555 1_555
H11_4 C18_4 1_555 1_555
C19_4 C16_4 1_555 1_555
Cd5_3 N1_4 1_555 1_555
C11_4 C12_4 1_555 1_555
C17_4 C18_4 1_555 1_555
Cd5_2 O1_3 1_555 1_555
O1_3 C10_3 1_555 1_555
C5_3 C4_3 1_555 1_555
H3_3 C5_3 1_555 1_555
C6_3 C5_3 1_555 1_555
H4_3 C6_3 1_555 1_555
C7_3 C6_3 1_555 1_555
C8_3 C7_3 1_555 1_555
H5_3 C8_3 1_555 1_555
C10_3 O7 1_555 1_555
C7_3 C10_3 1_555 1_555
Cd5_3 O1_4 1_555 1_555
O1_4 C10_4 1_555 1_555
C5_4 C4_4 1_555 1_555
H3_4 C5_4 1_555 1_555
C6_4 C5_4 1_555 1_555
H4_4 C6_4 1_555 1_555
C7_4 C6_4 1_555 1_555
C8_4 C7_4 1_555 1_555
H5_4 C8_4 1_555 1_555
C10_4 O7_2 1_555 1_555
C7_4 C10_4 1_555 1_555

#END
