
###############################################################################
#
# This file contains modified crystal structure data generated from the
# MOF subset of the Cambridge Structural Database (CSD) v543 
# hosted by the Cambridge Crystallographic Data Centre (CCDC).
#
# This work is licensed under the Creative Commons
# Attribution-NonCommercial-ShareAlike 4.0 International License.
# To view a copy of this license, visit
# http://creativecommons.org/licenses/by-nc-sa/4.0/
# or send a letter to
# Creative Commons, PO Box 1866, Mountain View, CA 94042, USA.
#
# CIF created using the CSD Python API on 29 September 2022
# The structure has been converted into the P1 space group
# The structure has a 3D framework
# The original CSD entry DUPKAC is in the rhombohedral crystal system
# The framework has been calculated to contain at least 10.0% void space
# The void calculation uses a probe of radius 1.32A, grid spacing 0.4
#
###############################################################################

data_DUPKAC
_chemical_formula_moiety         '(C720 H432 O161 Zn59)n'
_symmetry_cell_setting           triclinic
_symmetry_space_group_name_H-M   'P 1'
_symmetry_Int_Tables_number      1
_space_group_name_Hall           'P 1'
loop_
_symmetry_equiv_pos_site_id
_symmetry_equiv_pos_as_xyz
1 x,y,z
_cell_length_a                   23.452(4)
_cell_length_b                   23.452(4)
_cell_length_c                   79.27(3)
_cell_angle_alpha                90
_cell_angle_beta                 90
_cell_angle_gamma                120
_cell_volume                     37757.2
loop_
_atom_site_label
_atom_site_type_symbol
_atom_site_fract_x
_atom_site_fract_y
_atom_site_fract_z
C51 C 0.00555(26) 0.74874(18) 0.11295(5)
H31 H 0.0261 0.7774 0.1040
C52 C 0.01835(24) 0.69794(17) 0.11606(5)
C54 C 0.06785(27) 0.69125(18) 0.10572(6)
C55 C 0.07598(28) 0.70648(19) 0.08861(6)
H33 H 0.0473 0.7170 0.0831
C56 C 0.1253(3) 0.7060(2) 0.07992(6)
H34 H 0.1316 0.7191 0.0687
C57 C 0.1664(3) 0.6870(2) 0.08703(6)
C58 C 0.1594(3) 0.6693(2) 0.10457(6)
H35 H 0.1882 0.6584 0.1098
C59 C 0.1076(3) 0.6689(2) 0.11351(6)
H36 H 0.0993 0.6540 0.1246
C60 C 0.2195(4) 0.6850(4) 0.07752(7)
O12 O 0.25800(27) 0.66846(22) 0.08515(5)
O13 O 0.21899(29) 0.69352(17) 0.06119(5)
Zn5 Zn 0.262280(19) 0.679770(18) 0.042428(4)
Zn10 Zn 0.3334 0.6666 0.075221(9)
C1 C 0.53905(17) 0.31353(19) 0.18857(5)
C2 C 0.48913(18) 0.30522(18) 0.17589(5)
C3 C 0.4477(2) 0.24578(19) 0.16883(6)
H1 H 0.4509 0.2096 0.1724
C4 C 0.4009(2) 0.23566(19) 0.15665(6)
H2 H 0.3756 0.1943 0.1518
C5 C 0.39228(17) 0.28716(17) 0.15174(5)
C6 C 0.42875(18) 0.34539(18) 0.15968(5)
H3 H 0.4211 0.3799 0.1575
C7 C 0.47734(16) 0.35454(16) 0.17106(5)
H4 H 0.5033 0.3962 0.1757
C8 C 0.34151(18) 0.27625(16) 0.13889(5)
C9 C 0.28751(18) 0.21447(19) 0.13590(5)
H5 H 0.2809 0.1788 0.1425
C10 C 0.24319(18) 0.20574(18) 0.12311(6)
H6 H 0.2070 0.1641 0.1214
C11 C 0.25126(18) 0.25681(19) 0.11295(5)
H7 H 0.2226 0.2487 0.1040
C12 C 0.30206(17) 0.32041(17) 0.11606(5)
C13 C 0.34655(16) 0.32929(17) 0.12920(5)
H8 H 0.3805 0.3717 0.1316
C14 C 0.30875(18) 0.3766(2) 0.10572(6)
C15 C 0.29352(19) 0.3695(2) 0.08861(6)
H9 H 0.2830 0.3303 0.0831
C16 C 0.2940(2) 0.4193(2) 0.07992(6)
H10 H 0.2809 0.4125 0.0687
C17 C 0.3130(2) 0.4794(2) 0.08703(6)
C18 C 0.3307(2) 0.4901(2) 0.10457(6)
H11 H 0.3416 0.5298 0.1098
C19 C 0.3311(2) 0.4387(2) 0.11351(6)
H12 H 0.3460 0.4453 0.1246
C20 C 0.3150(4) 0.5345(2) 0.07752(7)
O1 O 0.57342(11) 0.37173(13) 0.19486(4)
O2 O 0.54074(15) 0.26420(14) 0.19308(4)
O3 O 0.33154(22) 0.58954(16) 0.08515(5)
O4 O 0.30648(17) 0.52547(24) 0.06119(5)
O5 O 0.6667 0.3333 0.21723(5)
Zn1 Zn 0.653563(18) 0.404387(19) 0.209095(4)
Zn2 Zn 0.6667 0.3333 0.241888(9)
C21 C 0.68647(19) 0.22552(25) 0.18857(5)
C22 C 0.69478(18) 0.18391(25) 0.17589(5)
C23 C 0.75422(19) 0.20192(28) 0.16883(6)
H13 H 0.7904 0.2413 0.1724
C24 C 0.76434(19) 0.16524(28) 0.15665(6)
H14 H 0.8057 0.1813 0.1518
C25 C 0.71284(17) 0.10512(24) 0.15174(5)
C26 C 0.65461(18) 0.08336(25) 0.15968(5)
H15 H 0.6201 0.0412 0.1575
C27 C 0.64546(16) 0.12280(23) 0.17106(5)
H16 H 0.6038 0.1071 0.1757
C28 C 0.72375(16) 0.06526(24) 0.13889(5)
C29 C 0.78553(19) 0.07304(26) 0.13590(5)
H17 H 0.8212 0.1021 0.1425
C30 C 0.79426(18) 0.03745(25) 0.12311(6)
H18 H 0.8359 0.0429 0.1214
C33 C 0.67071(17) 0.01726(23) 0.12920(5)
H20 H 0.6283 0.0088 0.1316
O6 O 0.62827(13) 0.20169(17) 0.19486(4)
O7 O 0.73580(14) 0.27654(21) 0.19308(4)
Zn3 Zn 0.595613(19) 0.249176(26) 0.209095(4)
C41 C 0.77448(25) 0.46095(17) 0.18857(5)
C42 C 0.81609(25) 0.51087(18) 0.17589(5)
C43 C 0.79808(28) 0.5523(2) 0.16883(6)
H25 H 0.7587 0.5491 0.1724
C44 C 0.83476(28) 0.5991(2) 0.15665(6)
H26 H 0.8187 0.6244 0.1518
C45 C 0.89488(24) 0.60772(17) 0.15174(5)
C46 C 0.91664(25) 0.57125(18) 0.15968(5)
H27 H 0.9588 0.5789 0.1575
C47 C 0.87720(23) 0.52266(16) 0.17106(5)
H28 H 0.8929 0.4967 0.1757
C48 C 0.93474(24) 0.65849(18) 0.13889(5)
C49 C 0.92696(26) 0.71249(18) 0.13590(5)
H29 H 0.8979 0.7191 0.1425
C50 C 0.96255(25) 0.75681(18) 0.12311(6)
H30 H 0.9571 0.7930 0.1214
C53 C 0.98274(23) 0.65345(16) 0.12920(5)
H32 H 0.9912 0.6195 0.1316
O10 O 0.79831(17) 0.42658(11) 0.19486(4)
O11 O 0.72346(21) 0.45926(15) 0.19308(4)
Zn4 Zn 0.750824(26) 0.346437(18) 0.209095(4)
O14 O 0.74379(16) 0.33513(22) 0.25182(5)
O15 O 0.59133(27) 0.25621(16) 0.25182(5)
O16 O 0.66487(22) 0.40867(27) 0.25182(5)
O17 O 0.80786(24) 0.36019(17) 0.22786(5)
O18 O 0.55232(29) 0.19214(24) 0.22786(5)
O19 O 0.63981(17) 0.44768(29) 0.22786(5)
Zn7 Zn 0.320230(18) 0.582509(26) 0.042428(4)
C31 C 0.74319(19) 0.99445(26) 0.11295(5)
H19 H 0.7513 0.9739 0.1040
C32 C 0.67959(17) 0.98165(24) 0.11606(5)
C34 C 0.6234(2) 0.93215(27) 0.10572(6)
C35 C 0.6305(2) 0.92402(28) 0.08861(6)
H21 H 0.6697 0.9527 0.0831
C36 C 0.5807(2) 0.8747(3) 0.07992(6)
H22 H 0.5875 0.8684 0.0687
C37 C 0.5206(2) 0.8336(3) 0.08703(6)
C38 C 0.5099(2) 0.8406(3) 0.10457(6)
H23 H 0.4702 0.8118 0.1098
C39 C 0.5613(2) 0.8924(3) 0.11351(6)
H24 H 0.5547 0.9007 0.1246
C40 C 0.4655(2) 0.7805(4) 0.07752(7)
O8 O 0.41046(16) 0.74200(27) 0.08515(5)
O9 O 0.47453(24) 0.78101(29) 0.06119(5)
Zn6 Zn 0.417491(26) 0.737720(19) 0.042428(4)
C31_2 C 0.00555(26) 0.25681(19) 0.61295(5)
H19_2 H 0.0261 0.2487 0.6040
C32_2 C 0.01835(24) 0.32041(17) 0.61606(5)
C34_2 C 0.06785(27) 0.3766(2) 0.60572(6)
C35_2 C 0.07598(28) 0.3695(2) 0.58861(6)
H21_2 H 0.0473 0.3303 0.5831
C36_2 C 0.1253(3) 0.4193(2) 0.57992(6)
H22_2 H 0.1316 0.4125 0.5687
C37_2 C 0.1664(3) 0.4794(2) 0.58703(6)
C38_2 C 0.1594(3) 0.4901(2) 0.60457(6)
H23_2 H 0.1882 0.5298 0.6098
C39_2 C 0.1076(3) 0.4387(2) 0.61351(6)
H24_2 H 0.0993 0.4453 0.6246
C40_2 C 0.2195(4) 0.5345(2) 0.57752(7)
O8_2 O 0.25800(27) 0.58954(16) 0.58515(5)
O9_2 O 0.21899(29) 0.52547(24) 0.56119(5)
Zn6_2 Zn 0.262280(19) 0.582509(26) 0.542428(4)
Zn8 Zn 0.3334 0.6666 0.575221(9)
C1_2 C 0.68647(19) 0.46095(17) 0.68857(5)
C2_2 C 0.69478(18) 0.51087(18) 0.67589(5)
C3_2 C 0.75422(19) 0.5523(2) 0.66883(6)
H1_2 H 0.7904 0.5491 0.6724
C4_2 C 0.76434(19) 0.5991(2) 0.65665(6)
H2_2 H 0.8057 0.6244 0.6518
C5_2 C 0.71284(17) 0.60772(17) 0.65174(5)
C6_2 C 0.65461(18) 0.57125(18) 0.65968(5)
H3_2 H 0.6201 0.5789 0.6575
C7_2 C 0.64546(16) 0.52266(16) 0.67106(5)
H4_2 H 0.6038 0.4967 0.6757
C8_2 C 0.72375(16) 0.65849(18) 0.63889(5)
C9_2 C 0.78553(19) 0.71249(18) 0.63590(5)
H5_2 H 0.8212 0.7191 0.6425
C10_2 C 0.79426(18) 0.75681(18) 0.62311(6)
H6_2 H 0.8359 0.7930 0.6214
C11_2 C 0.74319(19) 0.74874(18) 0.61295(5)
H7_2 H 0.7513 0.7774 0.6040
C12_2 C 0.67959(17) 0.69794(17) 0.61606(5)
C13_2 C 0.67071(17) 0.65345(16) 0.62920(5)
H8_2 H 0.6283 0.6195 0.6316
C14_2 C 0.6234(2) 0.69125(18) 0.60572(6)
C15_2 C 0.6305(2) 0.70648(19) 0.58861(6)
H9_2 H 0.6697 0.7170 0.5831
C16_2 C 0.5807(2) 0.7060(2) 0.57992(6)
H10_2 H 0.5875 0.7191 0.5687
C17_2 C 0.5206(2) 0.6870(2) 0.58703(6)
C18_2 C 0.5099(2) 0.6693(2) 0.60457(6)
H11_2 H 0.4702 0.6584 0.6098
C19_2 C 0.5613(2) 0.6689(2) 0.61351(6)
H12_2 H 0.5547 0.6540 0.6246
C20_2 C 0.4655(2) 0.6850(4) 0.57752(7)
O1_2 O 0.62827(13) 0.42658(11) 0.69486(4)
O2_2 O 0.73580(14) 0.45926(15) 0.69308(4)
O3_2 O 0.41046(16) 0.66846(22) 0.58515(5)
O4_2 O 0.47453(24) 0.69352(17) 0.56119(5)
O5_2 O 0.6667 0.3333 0.71723(5)
Zn1_2 Zn 0.595613(19) 0.346437(18) 0.709095(4)
Zn2_2 Zn 0.6667 0.3333 0.741888(9)
C21_2 C 0.77448(25) 0.31353(19) 0.68857(5)
C22_2 C 0.81609(25) 0.30522(18) 0.67589(5)
C23_2 C 0.79808(28) 0.24578(19) 0.66883(6)
H13_2 H 0.7587 0.2096 0.6724
C24_2 C 0.83476(28) 0.23566(19) 0.65665(6)
H14_2 H 0.8187 0.1943 0.6518
C25_2 C 0.89488(24) 0.28716(17) 0.65174(5)
C26_2 C 0.91664(25) 0.34539(18) 0.65968(5)
H15_2 H 0.9588 0.3799 0.6575
C27_2 C 0.87720(23) 0.35454(16) 0.67106(5)
H16_2 H 0.8929 0.3962 0.6757
C28_2 C 0.93474(24) 0.27625(16) 0.63889(5)
C29_2 C 0.92696(26) 0.21447(19) 0.63590(5)
H17_2 H 0.8979 0.1788 0.6425
C30_2 C 0.96255(25) 0.20574(18) 0.62311(6)
H18_2 H 0.9571 0.1641 0.6214
C33_2 C 0.98274(23) 0.32929(17) 0.62920(5)
H20_2 H 0.9912 0.3717 0.6316
O6_2 O 0.79831(17) 0.37173(13) 0.69486(4)
O7_2 O 0.72346(21) 0.26420(14) 0.69308(4)
Zn3_2 Zn 0.750824(26) 0.404387(19) 0.709095(4)
C41_2 C 0.53905(17) 0.22552(25) 0.68857(5)
C42_2 C 0.48913(18) 0.18391(25) 0.67589(5)
C43_2 C 0.4477(2) 0.20192(28) 0.66883(6)
H25_2 H 0.4509 0.2413 0.6724
C44_2 C 0.4009(2) 0.16524(28) 0.65665(6)
H26_2 H 0.3756 0.1813 0.6518
C45_2 C 0.39228(17) 0.10512(24) 0.65174(5)
C46_2 C 0.42875(18) 0.08336(25) 0.65968(5)
H27_2 H 0.4211 0.0412 0.6575
C47_2 C 0.47734(16) 0.12280(23) 0.67106(5)
H28_2 H 0.5033 0.1071 0.6757
C48_2 C 0.34151(18) 0.06526(24) 0.63889(5)
C49_2 C 0.28751(18) 0.07304(26) 0.63590(5)
H29_2 H 0.2809 0.1021 0.6425
C50_2 C 0.24319(18) 0.03745(25) 0.62311(6)
H30_2 H 0.2070 0.0429 0.6214
C53_2 C 0.34655(16) 0.01726(23) 0.62920(5)
H32_2 H 0.3805 0.0088 0.6316
O10_2 O 0.57342(11) 0.20169(17) 0.69486(4)
O11_2 O 0.54074(15) 0.27654(21) 0.69308(4)
Zn4_2 Zn 0.653563(18) 0.249176(26) 0.709095(4)
O14_2 O 0.66487(22) 0.25621(16) 0.75182(5)
O15_2 O 0.74379(16) 0.40867(27) 0.75182(5)
O16_2 O 0.59133(27) 0.33513(22) 0.75182(5)
O17_2 O 0.63981(17) 0.19214(24) 0.72786(5)
O18_2 O 0.80786(24) 0.44768(29) 0.72786(5)
O19_2 O 0.55232(29) 0.36019(17) 0.72786(5)
Zn7_2 Zn 0.417491(26) 0.679770(18) 0.542428(4)
C51_2 C 0.25126(18) 0.99445(26) 0.61295(5)
H31_2 H 0.2226 0.9739 0.6040
C52_2 C 0.30206(17) 0.98165(24) 0.61606(5)
C54_2 C 0.30875(18) 0.93215(27) 0.60572(6)
C55_2 C 0.29352(19) 0.92402(28) 0.58861(6)
H33_2 H 0.2830 0.9527 0.5831
C56_2 C 0.2940(2) 0.8747(3) 0.57992(6)
H34_2 H 0.2809 0.8684 0.5687
C57_2 C 0.3130(2) 0.8336(3) 0.58703(6)
C58_2 C 0.3307(2) 0.8406(3) 0.60457(6)
H35_2 H 0.3416 0.8118 0.6098
C59_2 C 0.3311(2) 0.8924(3) 0.61351(6)
H36_2 H 0.3460 0.9007 0.6246
C60_2 C 0.3150(4) 0.7805(4) 0.57752(7)
O12_2 O 0.33154(22) 0.74200(27) 0.58515(5)
O13_2 O 0.30648(17) 0.78101(29) 0.56119(5)
Zn5_2 Zn 0.320230(18) 0.737720(19) 0.542428(4)
Zn10_2 Zn 0.0000 -0.0000 0.408555(9)
Zn10_3 Zn 0.0000 1.0000 0.408555(9)
C49_3 C 0.59363(26) 0.04582(18) 0.46923(5)
H29_3 H 0.5646 0.0524 0.4758
C50_3 C 0.62922(25) 0.09014(18) 0.45644(6)
H30_3 H 0.6238 0.1263 0.4547
C51_3 C 0.67222(26) 0.08207(18) 0.44628(5)
H31_3 H 0.6928 0.1107 0.4373
C52_3 C 0.68502(24) 0.03127(17) 0.44939(5)
C54_3 C 0.73452(27) 0.02458(18) 0.43905(6)
C55_3 C 0.74265(28) 0.03981(19) 0.42194(6)
H33_3 H 0.7140 0.0503 0.4164
C56_3 C 0.7920(3) 0.0393(2) 0.41325(6)
H34_3 H 0.7983 0.0524 0.4020
C57_3 C 0.8331(3) 0.0203(2) 0.42036(6)
C58_3 C 0.8261(3) 0.0026(2) 0.43790(6)
C59_3 C 0.7743(3) 0.0022(2) 0.44684(6)
C60_3 C 0.8862(4) 0.0183(4) 0.41085(7)
O12_3 O 0.92467(27) 0.00179(22) 0.41848(5)
O13_3 O 0.88566(29) 0.02685(17) 0.39452(5)
Zn5_3 Zn 0.928946(19) 0.013104(18) 0.375762(4)
Zn10_4 Zn 1.0000 -0.0000 0.408555(9)
C1_3 C 0.20572(17) 0.64686(19) 0.52190(5)
C2_3 C 0.15580(18) 0.63855(18) 0.50922(5)
C3_3 C 0.1144(2) 0.57911(19) 0.50216(6)
H1_3 H 0.1176 0.5429 0.5057
C4_3 C 0.0676(2) 0.56899(19) 0.48998(6)
H2_3 H 0.0423 0.5276 0.4851
C5_3 C 0.05895(17) 0.62049(17) 0.48507(5)
C6_3 C 0.09542(18) 0.67872(18) 0.49301(5)
H3_3 H 0.0878 0.7132 0.4908
C7_3 C 0.14401(16) 0.68787(16) 0.50439(5)
H4_3 H 0.1700 0.7295 0.5090
C8_3 C 0.00818(18) 0.60958(16) 0.47222(5)
C13_3 C 0.01322(16) 0.66262(17) 0.46253(5)
H8_3 H 0.0472 0.7050 0.4649
H11_3 H 0.0083 0.8631 0.4431
H12_3 H 0.0127 0.7786 0.4579
O1_3 O 0.24009(11) 0.70506(13) 0.52819(4)
O2_3 O 0.20741(15) 0.59753(14) 0.52641(4)
O5_3 O 0.3334 0.6666 0.55056(5)
C21_3 C 0.35314(19) 0.55885(25) 0.52190(5)
C22_3 C 0.36145(18) 0.51724(25) 0.50922(5)
C23_3 C 0.42089(19) 0.53525(28) 0.50216(6)
H13_3 H 0.4571 0.5746 0.5057
C24_3 C 0.43101(19) 0.49857(28) 0.48998(6)
H14_3 H 0.4724 0.5146 0.4851
C25_3 C 0.37951(17) 0.43845(24) 0.48507(5)
C26_3 C 0.32128(18) 0.41669(25) 0.49301(5)
H15_3 H 0.2868 0.3745 0.4908
C27_3 C 0.31213(16) 0.45613(23) 0.50439(5)
H16_3 H 0.2705 0.4404 0.5090
C28_3 C 0.39042(16) 0.39859(24) 0.47222(5)
C29_3 C 0.45220(19) 0.40637(26) 0.46923(5)
H17_3 H 0.4879 0.4354 0.4758
C30_3 C 0.46093(18) 0.37078(25) 0.45644(6)
H18_3 H 0.5026 0.3762 0.4547
C31_3 C 0.40986(19) 0.32778(26) 0.44628(5)
H19_3 H 0.4180 0.3072 0.4373
C32_3 C 0.34626(17) 0.31498(24) 0.44939(5)
C33_3 C 0.33738(17) 0.35059(23) 0.46253(5)
H20_3 H 0.2950 0.3421 0.4649
C34_3 C 0.2901(2) 0.26548(27) 0.43905(6)
C35_3 C 0.2972(2) 0.25735(28) 0.42194(6)
H21_3 H 0.3364 0.2860 0.4164
C36_3 C 0.2474(2) 0.2080(3) 0.41325(6)
H22_3 H 0.2542 0.2017 0.4020
C37_3 C 0.1873(2) 0.1669(3) 0.42036(6)
C38_3 C 0.1766(2) 0.1739(3) 0.43790(6)
H23_3 H 0.1369 0.1451 0.4431
C39_3 C 0.2280(2) 0.2257(3) 0.44684(6)
H24_3 H 0.2214 0.2340 0.4579
C40_3 C 0.1322(2) 0.1138(4) 0.41085(7)
O6_3 O 0.29494(13) 0.53502(17) 0.52819(4)
O7_3 O 0.40247(14) 0.60987(21) 0.52641(4)
O8_3 O 0.07713(16) 0.07533(27) 0.41848(5)
O9_3 O 0.14120(24) 0.11434(29) 0.39452(5)
C41_3 C 0.44115(25) 0.79428(17) 0.52190(5)
C42_3 C 0.48276(25) 0.84420(18) 0.50922(5)
C43_3 C 0.46475(28) 0.8856(2) 0.50216(6)
H25_3 H 0.4254 0.8824 0.5057
C44_3 C 0.50143(28) 0.9324(2) 0.48998(6)
H26_3 H 0.4854 0.9577 0.4851
C45_3 C 0.56155(24) 0.94105(17) 0.48507(5)
C46_3 C 0.58331(25) 0.90458(18) 0.49301(5)
H27_3 H 0.6255 0.9122 0.4908
C47_3 C 0.54387(23) 0.85599(16) 0.50439(5)
H28_3 H 0.5596 0.8300 0.5090
C48_3 C 0.60141(24) 0.99182(18) 0.47222(5)
C53_3 C 0.64941(23) 0.98678(16) 0.46253(5)
H32_3 H 0.6579 0.9528 0.4649
H35_3 H 0.8549 0.9917 0.4431
H36_3 H 0.7660 0.9873 0.4579
O10_3 O 0.46498(17) 0.75991(11) 0.52819(4)
O11_3 O 0.39013(21) 0.79259(15) 0.52641(4)
Zn6_3 Zn 0.084157(26) 0.071054(19) 0.375762(4)
Zn10_5 Zn 1.0000 1.0000 0.408555(9)
C9_3 C 0.95418(18) 0.54780(19) 0.46923(5)
H5_3 H 0.9476 0.5121 0.4758
C10_3 C 0.90986(18) 0.53907(18) 0.45644(6)
H6_3 H 0.8737 0.4974 0.4547
C11_3 C 0.91793(18) 0.59014(19) 0.44628(5)
H7_3 H 0.8893 0.5820 0.4373
C12_3 C 0.96873(17) 0.65374(17) 0.44939(5)
C14_3 C 0.97542(18) 0.7099(2) 0.43905(6)
C15_3 C 0.96019(19) 0.7028(2) 0.42194(6)
H9_3 H 0.9497 0.6636 0.4164
C16_3 C 0.9607(2) 0.7526(2) 0.41325(6)
H10_3 H 0.9476 0.7458 0.4020
C17_3 C 0.9797(2) 0.8127(2) 0.42036(6)
C18_3 C 0.9974(2) 0.8234(2) 0.43790(6)
C19_3 C 0.9978(2) 0.7720(2) 0.44684(6)
C20_3 C 0.9817(4) 0.8678(2) 0.41085(7)
O3_3 O 0.99821(22) 0.92287(16) 0.41848(5)
O4_3 O 0.97315(17) 0.85880(24) 0.39452(5)
Zn7_3 Zn 0.986896(18) 0.915843(26) 0.375762(4)
Zn8_2 Zn 0.0000 -0.0000 0.908555(9)
Zn8_3 Zn 0.0000 1.0000 0.908555(9)
C9_4 C 0.45220(19) 0.04582(18) 0.96923(5)
H5_4 H 0.4879 0.0524 0.9758
C10_4 C 0.46093(18) 0.09014(18) 0.95644(6)
H6_4 H 0.5026 0.1263 0.9547
C11_4 C 0.40986(19) 0.08207(18) 0.94628(5)
H7_4 H 0.4180 0.1107 0.9373
C12_4 C 0.34626(17) 0.03127(17) 0.94939(5)
C14_4 C 0.2901(2) 0.02458(18) 0.93905(6)
C15_4 C 0.2972(2) 0.03981(19) 0.92194(6)
H9_4 H 0.3364 0.0503 0.9164
C16_4 C 0.2474(2) 0.0393(2) 0.91325(6)
H10_4 H 0.2542 0.0524 0.9020
C17_4 C 0.1873(2) 0.0203(2) 0.92036(6)
C18_4 C 0.1766(2) 0.0026(2) 0.93790(6)
C19_4 C 0.2280(2) 0.0022(2) 0.94684(6)
C20_4 C 0.1322(2) 0.0183(4) 0.91085(7)
O3_4 O 0.07713(16) 0.00179(22) 0.91848(5)
O4_4 O 0.14120(24) 0.02685(17) 0.89452(5)
Zn7_4 Zn 0.084157(26) 0.013104(18) 0.875762(4)
Zn8_4 Zn 1.0000 -0.0000 0.908555(9)
C1_4 C 0.35314(19) 0.79428(17) 0.02190(5)
C2_4 C 0.36145(18) 0.84420(18) 0.00922(5)
C3_4 C 0.42089(19) 0.8856(2) 0.00216(6)
H1_4 H 0.4571 0.8824 0.0057
C7_4 C 0.31213(16) 0.85599(16) 0.00439(5)
H4_4 H 0.2705 0.8300 0.0090
O1_4 O 0.29494(13) 0.75991(11) 0.02819(4)
O2_4 O 0.40247(14) 0.79259(15) 0.02641(4)
O5_4 O 0.3334 0.6666 0.05056(5)
C21_4 C 0.44115(25) 0.64686(19) 0.02190(5)
C22_4 C 0.48276(25) 0.63855(18) 0.00922(5)
C23_4 C 0.46475(28) 0.57911(19) 0.00216(6)
H13_4 H 0.4254 0.5429 0.0057
C27_4 C 0.54387(23) 0.68787(16) 0.00439(5)
H16_4 H 0.5596 0.7295 0.0090
O6_4 O 0.46498(17) 0.70506(13) 0.02819(4)
O7_4 O 0.39013(21) 0.59753(14) 0.02641(4)
C41_4 C 0.20572(17) 0.55885(25) 0.02190(5)
C42_4 C 0.15580(18) 0.51724(25) 0.00922(5)
C43_4 C 0.1144(2) 0.53525(28) 0.00216(6)
H25_4 H 0.1176 0.5746 0.0057
C47_4 C 0.14401(16) 0.45613(23) 0.00439(5)
H28_4 H 0.1700 0.4404 0.0090
O10_4 O 0.24009(11) 0.53502(17) 0.02819(4)
O11_4 O 0.20741(15) 0.60987(21) 0.02641(4)
C4_4 C 0.43101(19) 0.9324(2) 0.98998(6)
H2_4 H 0.4724 0.9577 0.9851
C5_4 C 0.37951(17) 0.94105(17) 0.98507(5)
C6_4 C 0.32128(18) 0.90458(18) 0.99301(5)
H3_4 H 0.2868 0.9122 0.9908
C8_4 C 0.39042(16) 0.99182(18) 0.97222(5)
C13_4 C 0.33738(17) 0.98678(16) 0.96253(5)
H8_4 H 0.2950 0.9528 0.9649
H11_4 H 0.1369 0.9917 0.9431
H12_4 H 0.2214 0.9873 0.9579
C24_4 C 0.50143(28) 0.56899(19) 0.98998(6)
H14_4 H 0.4854 0.5276 0.9851
C25_4 C 0.56155(24) 0.62049(17) 0.98507(5)
C26_4 C 0.58331(25) 0.67872(18) 0.99301(5)
H15_4 H 0.6255 0.7132 0.9908
C28_4 C 0.60141(24) 0.60958(16) 0.97222(5)
C29_4 C 0.59363(26) 0.54780(19) 0.96923(5)
H17_4 H 0.5646 0.5121 0.9758
C30_4 C 0.62922(25) 0.53907(18) 0.95644(6)
H18_4 H 0.6238 0.4974 0.9547
C31_4 C 0.67222(26) 0.59014(19) 0.94628(5)
H19_4 H 0.6928 0.5820 0.9373
C32_4 C 0.68502(24) 0.65374(17) 0.94939(5)
C33_4 C 0.64941(23) 0.66262(17) 0.96253(5)
H20_4 H 0.6579 0.7050 0.9649
C34_4 C 0.73452(27) 0.7099(2) 0.93905(6)
C35_4 C 0.74265(28) 0.7028(2) 0.92194(6)
H21_4 H 0.7140 0.6636 0.9164
C36_4 C 0.7920(3) 0.7526(2) 0.91325(6)
H22_4 H 0.7983 0.7458 0.9020
C37_4 C 0.8331(3) 0.8127(2) 0.92036(6)
C38_4 C 0.8261(3) 0.8234(2) 0.93790(6)
H23_4 H 0.8549 0.8631 0.9431
C39_4 C 0.7743(3) 0.7720(2) 0.94684(6)
H24_4 H 0.7660 0.7786 0.9579
C40_4 C 0.8862(4) 0.8678(2) 0.91085(7)
O8_4 O 0.92467(27) 0.92287(16) 0.91848(5)
O9_4 O 0.88566(29) 0.85880(24) 0.89452(5)
C44_4 C 0.0676(2) 0.49857(28) 0.98998(6)
H26_4 H 0.0423 0.5146 0.9851
C45_4 C 0.05895(17) 0.43845(24) 0.98507(5)
C46_4 C 0.09542(18) 0.41669(25) 0.99301(5)
H27_4 H 0.0878 0.3745 0.9908
C48_4 C 0.00818(18) 0.39859(24) 0.97222(5)
C53_4 C 0.01322(16) 0.35059(23) 0.96253(5)
H32_4 H 0.0472 0.3421 0.9649
H35_4 H 0.0083 0.1451 0.9431
H36_4 H 0.0127 0.2340 0.9579
Zn6_4 Zn 0.928946(19) 0.915843(26) 0.875762(4)
Zn8_5 Zn 1.0000 1.0000 0.908555(9)
C49_4 C 0.95418(18) 0.40637(26) 0.96923(5)
H29_4 H 0.9476 0.4354 0.9758
C50_4 C 0.90986(18) 0.37078(25) 0.95644(6)
H30_4 H 0.8737 0.3762 0.9547
C51_4 C 0.91793(18) 0.32778(26) 0.94628(5)
H31_4 H 0.8893 0.3072 0.9373
C52_4 C 0.96873(17) 0.31498(24) 0.94939(5)
C54_4 C 0.97542(18) 0.26548(27) 0.93905(6)
C55_4 C 0.96019(19) 0.25735(28) 0.92194(6)
H33_4 H 0.9497 0.2860 0.9164
C56_4 C 0.9607(2) 0.2080(3) 0.91325(6)
H34_4 H 0.9476 0.2017 0.9020
C57_4 C 0.9797(2) 0.1669(3) 0.92036(6)
C58_4 C 0.9974(2) 0.1739(3) 0.93790(6)
C59_4 C 0.9978(2) 0.2257(3) 0.94684(6)
C60_4 C 0.9817(4) 0.1138(4) 0.91085(7)
O12_4 O 0.99821(22) 0.07533(27) 0.91848(5)
O13_4 O 0.97315(17) 0.11434(29) 0.89452(5)
Zn5_4 Zn 0.986896(18) 0.071054(19) 0.875762(4)
O5_5 O 0.0000 -0.0000 0.88390(5)
C41_5 C 0.10781(25) 0.12762(17) 0.85524(5)
C42_5 C 0.14942(25) 0.17754(18) 0.84256(5)
C43_5 C 0.13141(28) 0.2190(2) 0.83550(6)
H25_5 H 0.0920 0.2158 0.8391
C44_5 C 0.16809(28) 0.2658(2) 0.82332(6)
H26_5 H 0.1520 0.2911 0.8185
C45_5 C 0.22821(24) 0.27439(17) 0.81841(5)
C46_5 C 0.24997(25) 0.23792(18) 0.82635(5)
H27_5 H 0.2921 0.2456 0.8242
C47_5 C 0.21053(23) 0.18933(16) 0.83773(5)
H28_5 H 0.2262 0.1634 0.8424
C48_5 C 0.26807(24) 0.32516(18) 0.80556(5)
C49_5 C 0.26029(26) 0.37916(18) 0.80257(5)
H29_5 H 0.2312 0.3858 0.8092
C50_5 C 0.29588(25) 0.42348(18) 0.78978(6)
H30_5 H 0.2904 0.4597 0.7881
C51_5 C 0.33888(26) 0.41541(18) 0.77962(5)
H31_5 H 0.3594 0.4441 0.7707
C52_5 C 0.35168(24) 0.36461(17) 0.78273(5)
C53_5 C 0.31607(23) 0.32012(16) 0.79587(5)
H32_5 H 0.3245 0.2862 0.7983
C54_5 C 0.40118(27) 0.35792(18) 0.77239(6)
C55_5 C 0.40931(28) 0.37315(19) 0.75528(6)
H33_5 H 0.3806 0.3837 0.7498
C56_5 C 0.4586(3) 0.3727(2) 0.74659(6)
H34_5 H 0.4649 0.3858 0.7354
C57_5 C 0.4997(3) 0.3537(2) 0.75370(6)
C58_5 C 0.4927(3) 0.3360(2) 0.77124(6)
H35_5 H 0.5215 0.3251 0.7765
C59_5 C 0.4409(3) 0.3356(2) 0.78018(6)
H36_5 H 0.4326 0.3207 0.7913
C60_5 C 0.5528(4) 0.3517(4) 0.74419(7)
O10_5 O 0.13164(17) 0.09325(11) 0.86153(4)
O11_5 O 0.05679(21) 0.12593(15) 0.85975(4)
O5_6 O 0.0000 1.0000 0.88390(5)
C21_5 C 0.01980(19) 0.89219(25) 0.85524(5)
C22_5 C 0.02811(18) 0.85058(25) 0.84256(5)
C23_5 C 0.08755(19) 0.86859(28) 0.83550(6)
H13_5 H 0.1237 0.9080 0.8391
C24_5 C 0.09767(19) 0.83191(28) 0.82332(6)
H14_5 H 0.1390 0.8480 0.8185
C25_5 C 0.04617(17) 0.77179(24) 0.81841(5)
C28_5 C 0.05708(16) 0.73193(24) 0.80556(5)
C29_5 C 0.11886(19) 0.73971(26) 0.80257(5)
H17_5 H 0.1545 0.7688 0.8092
C30_5 C 0.12759(18) 0.70412(25) 0.78978(6)
H18_5 H 0.1692 0.7096 0.7881
C31_5 C 0.07652(19) 0.66112(26) 0.77962(5)
H19_5 H 0.0846 0.6406 0.7707
C32_5 C 0.01292(17) 0.64832(24) 0.78273(5)
C33_5 C 0.00404(17) 0.68393(23) 0.79587(5)
H21_5 H 0.0030 0.6194 0.7498
O7_5 O 0.06913(14) 0.94321(21) 0.85975(4)
C6_5 C 0.76208(18) 0.01206(18) 0.82635(5)
H3_5 H 0.7544 0.0466 0.8242
C7_5 C 0.81067(16) 0.02121(16) 0.83773(5)
H4_5 H 0.8366 0.0629 0.8424
H8_5 H 0.7138 0.0384 0.7983
C14_5 C 0.64208(18) 0.0433(2) 0.77239(6)
C15_5 C 0.62685(19) 0.0362(2) 0.75528(6)
C16_5 C 0.6273(2) 0.0860(2) 0.74659(6)
H10_5 H 0.6142 0.0792 0.7354
C17_5 C 0.6463(2) 0.1461(2) 0.75370(6)
C18_5 C 0.6640(2) 0.1568(2) 0.77124(6)
H11_5 H 0.6749 0.1965 0.7765
C19_5 C 0.6644(2) 0.1054(2) 0.78018(6)
H12_5 H 0.6793 0.1120 0.7913
C20_5 C 0.6483(4) 0.2012(2) 0.74419(7)
O1_5 O 0.90675(11) 0.03840(13) 0.86153(4)
O5_7 O 1.0000 -0.0000 0.88390(5)
C1_5 C 0.87238(17) 0.98020(19) 0.85524(5)
C2_5 C 0.82246(18) 0.97189(18) 0.84256(5)
C3_5 C 0.7810(2) 0.91245(19) 0.83550(6)
H1_5 H 0.7842 0.8763 0.8391
C4_5 C 0.7342(2) 0.90233(19) 0.82332(6)
H2_5 H 0.7089 0.8610 0.8185
C5_5 C 0.72561(17) 0.95383(17) 0.81841(5)
C8_5 C 0.67484(18) 0.94292(16) 0.80556(5)
C9_5 C 0.62084(18) 0.88114(19) 0.80257(5)
H5_5 H 0.6142 0.8455 0.8092
C10_5 C 0.57652(18) 0.87241(18) 0.78978(6)
H6_5 H 0.5403 0.8308 0.7881
C11_5 C 0.58459(18) 0.92348(19) 0.77962(5)
H7_5 H 0.5559 0.9154 0.7707
C12_5 C 0.63539(17) 0.98708(17) 0.78273(5)
C13_5 C 0.67988(16) 0.99596(17) 0.79587(5)
H9_5 H 0.6163 0.9970 0.7498
O2_5 O 0.87407(15) 0.93087(14) 0.85975(4)
O5_8 O 1.0000 1.0000 0.88390(5)
C26_5 C 0.98794(18) 0.75003(25) 0.82635(5)
H15_5 H 0.9534 0.7079 0.8242
C27_5 C 0.97879(16) 0.78947(23) 0.83773(5)
H16_5 H 0.9371 0.7738 0.8424
H20_5 H 0.9616 0.6755 0.7983
C34_5 C 0.9567(2) 0.59882(27) 0.77239(6)
C35_5 C 0.9638(2) 0.59069(28) 0.75528(6)
C36_5 C 0.9140(2) 0.5414(3) 0.74659(6)
H22_5 H 0.9208 0.5351 0.7354
C37_5 C 0.8539(2) 0.5003(3) 0.75370(6)
C38_5 C 0.8432(2) 0.5073(3) 0.77124(6)
H23_5 H 0.8035 0.4785 0.7765
C39_5 C 0.8946(2) 0.5591(3) 0.78018(6)
H24_5 H 0.8880 0.5674 0.7913
C40_5 C 0.7988(2) 0.4472(4) 0.74419(7)
O6_5 O 0.96160(13) 0.86836(17) 0.86153(4)
C1_6 C 0.01980(19) 0.12762(17) 0.35524(5)
C2_6 C 0.02811(18) 0.17754(18) 0.34256(5)
C3_6 C 0.08755(19) 0.2190(2) 0.33550(6)
H1_6 H 0.1237 0.2158 0.3391
C4_6 C 0.09767(19) 0.2658(2) 0.32332(6)
H2_6 H 0.1390 0.2911 0.3185
C5_6 C 0.04617(17) 0.27439(17) 0.31841(5)
C8_6 C 0.05708(16) 0.32516(18) 0.30556(5)
C9_6 C 0.11886(19) 0.37916(18) 0.30257(5)
H5_6 H 0.1545 0.3858 0.3092
C10_6 C 0.12759(18) 0.42348(18) 0.28978(6)
H6_6 H 0.1692 0.4597 0.2881
C11_6 C 0.07652(19) 0.41541(18) 0.27962(5)
H7_6 H 0.0846 0.4441 0.2707
C12_6 C 0.01292(17) 0.36461(17) 0.28273(5)
C13_6 C 0.00404(17) 0.32012(16) 0.29587(5)
H9_6 H 0.0030 0.3837 0.2498
O2_6 O 0.06913(14) 0.12593(15) 0.35975(4)
O5_9 O 0.0000 -0.0000 0.38390(5)
C26_6 C 0.24997(25) 0.01206(18) 0.32635(5)
H15_6 H 0.2921 0.0466 0.3242
C27_6 C 0.21053(23) 0.02121(16) 0.33773(5)
H16_6 H 0.2262 0.0629 0.3424
H20_6 H 0.3245 0.0384 0.2983
C34_6 C 0.40118(27) 0.0433(2) 0.27239(6)
C35_6 C 0.40931(28) 0.0362(2) 0.25528(6)
C36_6 C 0.4586(3) 0.0860(2) 0.24659(6)
H22_6 H 0.4649 0.0792 0.2354
C37_6 C 0.4997(3) 0.1461(2) 0.25370(6)
C38_6 C 0.4927(3) 0.1568(2) 0.27124(6)
H23_6 H 0.5215 0.1965 0.2765
C39_6 C 0.4409(3) 0.1054(2) 0.28018(6)
H24_6 H 0.4326 0.1120 0.2913
C40_6 C 0.5528(4) 0.2012(2) 0.24419(7)
O6_6 O 0.13164(17) 0.03840(13) 0.36153(4)
O5_10 O 0.0000 1.0000 0.38390(5)
C21_6 C 0.10781(25) 0.98020(19) 0.35524(5)
C22_6 C 0.14942(25) 0.97189(18) 0.34256(5)
C23_6 C 0.13141(28) 0.91245(19) 0.33550(6)
H13_6 H 0.0920 0.8763 0.3391
C24_6 C 0.16809(28) 0.90233(19) 0.32332(6)
H14_6 H 0.1520 0.8610 0.3185
C25_6 C 0.22821(24) 0.95383(17) 0.31841(5)
C28_6 C 0.26807(24) 0.94292(16) 0.30556(5)
C29_6 C 0.26029(26) 0.88114(19) 0.30257(5)
H17_6 H 0.2312 0.8455 0.3092
C30_6 C 0.29588(25) 0.87241(18) 0.28978(6)
H18_6 H 0.2904 0.8308 0.2881
C31_6 C 0.33888(26) 0.92348(19) 0.27962(5)
H19_6 H 0.3594 0.9154 0.2707
C32_6 C 0.35168(24) 0.98708(17) 0.28273(5)
C33_6 C 0.31607(23) 0.99596(17) 0.29587(5)
H21_6 H 0.3806 0.9970 0.2498
O7_6 O 0.05679(21) 0.93087(14) 0.35975(4)
C6_6 C 0.98794(18) 0.23792(18) 0.32635(5)
H3_6 H 0.9534 0.2456 0.3242
C7_6 C 0.97879(16) 0.18933(16) 0.33773(5)
H4_6 H 0.9371 0.1634 0.3424
H8_6 H 0.9616 0.2862 0.2983
C14_6 C 0.9567(2) 0.35792(18) 0.27239(6)
C15_6 C 0.9638(2) 0.37315(19) 0.25528(6)
C16_6 C 0.9140(2) 0.3727(2) 0.24659(6)
H10_6 H 0.9208 0.3858 0.2354
C17_6 C 0.8539(2) 0.3537(2) 0.25370(6)
C18_6 C 0.8432(2) 0.3360(2) 0.27124(6)
H11_6 H 0.8035 0.3251 0.2765
C19_6 C 0.8946(2) 0.3356(2) 0.28018(6)
H12_6 H 0.8880 0.3207 0.2913
C20_6 C 0.7988(2) 0.3517(4) 0.24419(7)
O1_6 O 0.96160(13) 0.09325(11) 0.36153(4)
O5_11 O 1.0000 -0.0000 0.38390(5)
O5_12 O 1.0000 1.0000 0.38390(5)
C41_6 C 0.87238(17) 0.89219(25) 0.35524(5)
C42_6 C 0.82246(18) 0.85058(25) 0.34256(5)
C43_6 C 0.7810(2) 0.86859(28) 0.33550(6)
H25_6 H 0.7842 0.9080 0.3391
C44_6 C 0.7342(2) 0.83191(28) 0.32332(6)
H26_6 H 0.7089 0.8480 0.3185
C45_6 C 0.72561(17) 0.77179(24) 0.31841(5)
C46_6 C 0.76208(18) 0.75003(25) 0.32635(5)
H27_6 H 0.7544 0.7079 0.3242
C47_6 C 0.81067(16) 0.78947(23) 0.33773(5)
H28_6 H 0.8366 0.7738 0.3424
C48_6 C 0.67484(18) 0.73193(24) 0.30556(5)
C49_6 C 0.62084(18) 0.73971(26) 0.30257(5)
H29_6 H 0.6142 0.7688 0.3092
C50_6 C 0.57652(18) 0.70412(25) 0.28978(6)
H30_6 H 0.5403 0.7096 0.2881
C51_6 C 0.58459(18) 0.66112(26) 0.27962(5)
H31_6 H 0.5559 0.6406 0.2707
C52_6 C 0.63539(17) 0.64832(24) 0.28273(5)
C53_6 C 0.67988(16) 0.68393(23) 0.29587(5)
H32_6 H 0.7138 0.6755 0.2983
C54_6 C 0.64208(18) 0.59882(27) 0.27239(6)
C55_6 C 0.62685(19) 0.59069(28) 0.25528(6)
H33_6 H 0.6163 0.6194 0.2498
C56_6 C 0.6273(2) 0.5414(3) 0.24659(6)
H34_6 H 0.6142 0.5351 0.2354
C57_6 C 0.6463(2) 0.5003(3) 0.25370(6)
C58_6 C 0.6640(2) 0.5073(3) 0.27124(6)
H35_6 H 0.6749 0.4785 0.2765
C59_6 C 0.6644(2) 0.5591(3) 0.28018(6)
H36_6 H 0.6793 0.5674 0.2913
C60_6 C 0.6483(4) 0.4472(4) 0.24419(7)
O10_6 O 0.90675(11) 0.86836(17) 0.36153(4)
O11_6 O 0.87407(15) 0.94321(21) 0.35975(4)
Zn11 Zn 0.082577(19) 0.07007(2) 0.148300(5)
O20 O 0.14249(13) 0.13046(14) 0.16362(5)
O21 O 0.0000 -0.0000 0.15756(5)
O22 O 0.13348(12) 0.04127(13) 0.13449(3)
O23 O 0.06305(14) 0.11645(27) 0.13048(4)
C61 C 0.1316(3) 0.1236(4) 0.18000(10)
Zn12 Zn 0.0000 -0.0000 0.182394(11)
C63 C 0.1893(2) 0.1770(2) 0.19070(7)
O24 O 0.0800(2) 0.0856(2) 0.18651(6)
C65 C 0.2465(3) 0.2180(3) 0.18463(7)
C66 C 0.1832(3) 0.1793(2) 0.20767(7)
C67 C 0.2191(2) 0.0247(3) 0.11284(6)
H37 H 0.2536 0.2150 0.1732
C69 C 0.2962(2) 0.2642(3) 0.19359(8)
C70 C 0.2333(3) 0.2249(3) 0.21814(7)
H38 H 0.1436 0.1488 0.2126
H39 H 0.2395 0.0629 0.1193
C71 C 0.2522(2) 0.0113(3) 0.10013(7)
H41 H 0.3355 0.2917 0.1880
C73 C 0.2930(2) 0.2732(3) 0.21017(7)
H42 H 0.2281 0.2239 0.2298
H43 H 0.2972 0.0396 0.0988
C75 C 0.3464(3) 0.3207(3) 0.22053(7)
C77 C 0.4111(3) 0.3361(4) 0.21752(10)
C78 C 0.3355(2) 0.3553(2) 0.23356(6)
H45 H 0.4201 0.3101 0.2103
C80 C 0.4582(3) 0.3866(4) 0.22480(11)
H46 H 0.2924 0.3440 0.2362
H48 H 0.5007 0.3979 0.2216
C89 C 0.3876(4) 0.4064(3) 0.24282(8)
H53 H 0.3227 0.0409 0.0695
C93 C 0.4526(6) 0.4279(5) 0.23745(10)
C94 C 0.3757(4) 0.4459(3) 0.25601(8)
C98 C 0.3935(3) 0.0403(2) 0.04350(7)
H55 H 0.4888 0.4656 0.2417
C99 C 0.4221(4) 0.5068(3) 0.25919(11)
C100 C 0.3220(3) 0.4145(2) 0.26680(7)
C103 C 0.4025(3) 0.0371(2) 0.02692(8)
C104 C 0.4418(3) 0.1000(3) 0.05147(7)
H59 H 0.4596 0.5270 0.2525
C105 C 0.4150(4) 0.5395(3) 0.27206(9)
C106 C 0.3086(3) 0.4476(2) 0.27951(6)
H60 H 0.2937 0.3695 0.2655
C109 C 0.4487(3) 0.0868(3) 0.01796(7)
C110 C 0.4874(2) 0.1501(3) 0.04100(7)
H63 H 0.4428 0.1052 0.0631
H64 H 0.4495 0.5812 0.2748
C111 C 0.3560(4) 0.5123(3) 0.28179(7)
H65 H 0.2704 0.4272 0.2860
C114 C 0.4897(2) 0.1440(2) 0.02403(7)
H67 H 0.4517 0.0797 0.0065
H68 H 0.5179 0.1897 0.0459
C115 C 0.3468(3) 0.5559(2) 0.29500(5)
C118 C 0.5431(4) 0.2017(3) 0.01333(10)
O33 O 0.29206(13) 0.53319(12) 0.30116(3)
O34 O 0.39638(14) 0.61327(30) 0.29715(4)
O35 O 0.5811(2) 0.2533(2) 0.01984(6)
Zn15 Zn 0.26326(2) 0.584090(19) 0.314967(5)
Zn16 Zn 0.415910(19) 0.679174(28) 0.314967(5)
Zn17 Zn 0.6667 0.3333 0.015727(11)
O36 O 0.53621(14) 0.19084(13) 0.99695(5)
Zn18 Zn 0.59660(2) 0.250756(19) 0.981633(5)
O21_2 O -0.0000 1.0000 0.15756(5)
Zn12_2 Zn -0.0000 1.0000 0.182394(11)
C62 C 0.1108(2) 0.9865(3) 0.12833(5)
C64 C 0.1544(3) 0.9773(4) 0.11512(7)
C68 C 0.1272(3) 0.9183(4) 0.10539(9)
C72 C 0.1599(3) 0.9112(4) 0.09252(11)
H40 H 0.0855 0.8838 0.1081
C74 C 0.2208(3) 0.9576(4) 0.08934(8)
H44 H 0.1397 0.8737 0.0858
C76 C 0.2603(3) 0.9457(4) 0.07615(8)
C79 C 0.2388(5) 0.8807(6) 0.07078(10)
H47 H 0.2011 0.8445 0.0750
O26 O 0.0056(3) 0.9200(2) 0.18651(6)
O32 O 0.05340(30) 0.93695(14) 0.13048(4)
H50 H 0.0052 0.8564 0.2126
C88 C 0.3114(2) 0.9978(2) 0.06689(6)
C91 C 0.3460(3) 0.9869(3) 0.05386(7)
C92 C 0.2801(4) 0.8751(3) 0.05813(11)
C96 C 0.0198(3) 0.6645(2) 0.23356(6)
C97 C 0.3306(4) 0.9222(3) 0.05085(10)
H54 H 0.2688 0.8326 0.0549
C102 C 0.0187(5) 0.6124(4) 0.24282(8)
H57 H 0.0516 0.7076 0.2362
H58 H 0.3566 0.9132 0.0436
C108 C 0.0701(5) 0.6243(4) 0.25601(8)
H62 H 0.3750 0.9978 0.0213
C112 C 0.0846(5) 0.5779(4) 0.25919(11)
C113 C 0.0924(4) 0.6780(3) 0.26680(7)
H69 H 0.0673 0.5404 0.2525
C116 C 0.1244(5) 0.5850(4) 0.27206(9)
C117 C 0.1389(4) 0.6914(3) 0.27951(6)
H70 H 0.0757 0.7063 0.2655
H71 H 0.1316 0.5505 0.2748
C119 C 0.1562(5) 0.6440(4) 0.28179(7)
H72 H 0.1567 0.7296 0.2860
C120 C 0.2090(4) 0.6532(3) 0.29500(5)
O37 O 0.24112(18) 0.70794(13) 0.30116(3)
O38 O 0.21688(27) 0.60362(14) 0.29715(4)
Zn19 Zn 0.320826(28) 0.73674(2) 0.314967(5)
O21_3 O 1.0000 -0.0000 0.15756(5)
Zn12_3 Zn 1.0000 -0.0000 0.182394(11)
Zn13 Zn 0.92993(2) 0.012507(28) 0.148300(5)
O27 O 0.86954(14) 0.01203(19) 0.16362(5)
O28 O 0.95873(13) 0.09221(18) 0.13449(3)
O21_4 O 1.0000 1.0000 0.15756(5)
Zn12_4 Zn 1.0000 1.0000 0.182394(11)
Zn14 Zn 0.987493(28) 0.917423(19) 0.148300(5)
O25 O 0.9144(2) 0.9944(3) 0.18651(6)
O29 O 0.88355(27) 0.94660(30) 0.13048(4)
O30 O 0.98797(19) 0.85751(13) 0.16362(5)
O31 O 0.90779(18) 0.86652(12) 0.13449(3)
C81 C 0.9920(5) 0.8684(3) 0.18000(10)
C82 C 0.9877(3) 0.8107(2) 0.19070(7)
C83 C 0.9715(4) 0.7535(3) 0.18463(7)
C84 C 0.9961(4) 0.8168(3) 0.20767(7)
H49 H 0.9614 0.7464 0.1732
C85 C 0.9680(4) 0.7038(2) 0.19359(8)
C86 C 0.9916(4) 0.7667(3) 0.21814(7)
H51 H 0.9562 0.6645 0.1880
C87 C 0.9802(4) 0.7070(2) 0.21017(7)
H52 H 0.9958 0.7719 0.2298
C90 C 0.9743(4) 0.6536(3) 0.22053(7)
C95 C 0.9250(5) 0.5889(3) 0.21752(10)
H56 H 0.8900 0.5799 0.2103
C101 C 0.9284(5) 0.5418(3) 0.22480(11)
H61 H 0.8972 0.4993 0.2216
C107 C 0.9752(8) 0.5474(6) 0.23745(10)
H66 H 0.9767 0.5112 0.2417
C62_2 C 0.0135(3) 0.1243(4) 0.12833(5)
C64_2 C 0.0227(4) 0.1771(5) 0.11512(7)
C68_2 C 0.0817(4) 0.2089(5) 0.10539(9)
C72_2 C 0.0888(4) 0.2487(5) 0.09252(11)
H40_2 H 0.1162 0.2017 0.1081
C74_2 C 0.0424(4) 0.2632(5) 0.08934(8)
H44_2 H 0.1263 0.2660 0.0858
C76_2 C 0.0543(4) 0.3146(5) 0.07615(8)
C79_2 C 0.1193(6) 0.3581(8) 0.07078(10)
H47_2 H 0.1555 0.3566 0.0750
C88_2 C 0.0022(2) 0.3135(3) 0.06689(6)
C91_2 C 0.0131(3) 0.3590(4) 0.05386(7)
C92_2 C 0.1249(3) 0.4049(5) 0.05813(11)
C97_2 C 0.0778(3) 0.4083(5) 0.05085(10)
H54_2 H 0.1674 0.4361 0.0549
H58_2 H 0.0868 0.4433 0.0436
H62_2 H 0.0022 0.3771 0.0213
C61_2 C 0.8764(4) 0.0080(5) 0.18000(10)
C63_2 C 0.8230(2) 0.0123(3) 0.19070(7)
C65_2 C 0.7820(3) 0.0285(4) 0.18463(7)
C66_2 C 0.8207(2) 0.0039(4) 0.20767(7)
C67_2 C 0.9753(3) 0.1944(4) 0.11284(6)
H37_2 H 0.7850 0.0386 0.1732
C69_2 C 0.7358(3) 0.0320(4) 0.19359(8)
C70_2 C 0.7751(3) 0.0084(4) 0.21814(7)
H39_2 H 0.9371 0.1766 0.1193
C71_2 C 0.9887(3) 0.2409(4) 0.10013(7)
H41_2 H 0.7083 0.0438 0.1880
C73_2 C 0.7268(3) 0.0198(4) 0.21017(7)
H42_2 H 0.7761 0.0042 0.2298
H43_2 H 0.9604 0.2576 0.0988
C75_2 C 0.6793(3) 0.0257(4) 0.22053(7)
C77_2 C 0.6639(4) 0.0750(5) 0.21752(10)
H45_2 H 0.6899 0.1100 0.2103
C80_2 C 0.6134(4) 0.0716(5) 0.22480(11)
H48_2 H 0.6021 0.1028 0.2216
H53_2 H 0.9591 0.2817 0.0695
C93_2 C 0.5721(5) 0.0248(8) 0.23745(10)
C98_2 C 0.9597(2) 0.3531(4) 0.04350(7)
H55_2 H 0.5344 0.0233 0.2417
C103_2 C 0.9629(2) 0.3653(4) 0.02692(8)
C104_2 C 0.9000(3) 0.3417(4) 0.05147(7)
C109_2 C 0.9132(3) 0.3618(4) 0.01796(7)
C110_2 C 0.8499(3) 0.3372(4) 0.04100(7)
H63_2 H 0.8948 0.3375 0.0631
C114_2 C 0.8560(2) 0.3456(3) 0.02403(7)
H67_2 H 0.9203 0.3719 0.0065
H68_2 H 0.8103 0.3281 0.0459
C118_2 C 0.7983(3) 0.3413(5) 0.01333(10)
O35_2 O 0.7467(2) 0.3277(3) 0.01984(6)
O36_2 O 0.80916(13) 0.34536(19) 0.99695(5)
Zn18_2 Zn 0.749244(19) 0.345840(28) 0.981633(5)
H38_2 H 0.8512 0.9948 0.2126
C78_2 C 0.6447(2) 0.9802(3) 0.23356(6)
H46_2 H 0.6560 0.9484 0.2362
C89_2 C 0.5936(3) 0.9813(5) 0.24282(8)
C94_2 C 0.5541(3) 0.9299(5) 0.25601(8)
C99_2 C 0.4932(3) 0.9154(5) 0.25919(11)
C100_2 C 0.5855(2) 0.9076(4) 0.26680(7)
H59_2 H 0.4730 0.9327 0.2525
C105_2 C 0.4605(3) 0.8756(5) 0.27206(9)
C106_2 C 0.5524(2) 0.8611(4) 0.27951(6)
H60_2 H 0.6305 0.9243 0.2655
H64_2 H 0.4188 0.8684 0.2748
C111_2 C 0.4877(3) 0.8438(5) 0.28179(7)
H65_2 H 0.5728 0.8433 0.2860
C115_2 C 0.4441(2) 0.7910(4) 0.29500(5)
O33_2 O 0.46681(12) 0.75888(18) 0.30116(3)
O34_2 O 0.38673(30) 0.78312(33) 0.29715(4)
C62_3 C 0.8757(4) 0.8892(2) 0.12833(5)
C64_3 C 0.8229(5) 0.8456(3) 0.11512(7)
C67_3 C 0.8056(4) 0.7809(2) 0.11284(6)
C68_3 C 0.7911(5) 0.8728(3) 0.10539(9)
H39_3 H 0.8234 0.7605 0.1193
C71_3 C 0.7591(4) 0.7478(2) 0.10013(7)
C72_3 C 0.7513(5) 0.8401(3) 0.09252(11)
H40_3 H 0.7983 0.9145 0.1081
C74_3 C 0.7368(5) 0.7792(3) 0.08934(8)
H43_3 H 0.7424 0.7028 0.0988
H44_3 H 0.7340 0.8603 0.0858
C76_3 C 0.6854(5) 0.7397(3) 0.07615(8)
C79_3 C 0.6419(8) 0.7612(5) 0.07078(10)
H47_3 H 0.6434 0.7989 0.0750
C88_3 C 0.6865(3) 0.6886(2) 0.06689(6)
C91_3 C 0.6410(4) 0.6540(3) 0.05386(7)
H53_3 H 0.7183 0.6773 0.0695
C92_3 C 0.5951(5) 0.7199(4) 0.05813(11)
C97_3 C 0.5917(5) 0.6694(4) 0.05085(10)
C98_3 C 0.6469(4) 0.6065(3) 0.04350(7)
H54_3 H 0.5639 0.7312 0.0549
H58_3 H 0.5567 0.6434 0.0436
C103_3 C 0.6347(4) 0.5975(3) 0.02692(8)
C104_3 C 0.6583(4) 0.5582(3) 0.05147(7)
H62_3 H 0.6229 0.6250 0.0213
C109_3 C 0.6382(4) 0.5513(3) 0.01796(7)
C110_3 C 0.6628(4) 0.5126(2) 0.04100(7)
H63_3 H 0.6625 0.5572 0.0631
C114_3 C 0.6544(3) 0.5103(2) 0.02403(7)
H67_3 H 0.6281 0.5483 0.0065
H68_3 H 0.6719 0.4821 0.0459
C118_3 C 0.6587(5) 0.4569(4) 0.01333(10)
O35_3 O 0.6723(3) 0.4189(2) 0.01984(6)
O36_3 O 0.65464(19) 0.46379(14) 0.99695(5)
Zn18_3 Zn 0.654160(28) 0.40340(2) 0.981633(5)
O21_5 O 0.0000 -0.0000 0.65756(5)
Zn12_5 Zn 0.0000 -0.0000 0.682394(11)
Zn14_2 Zn 0.082577(19) 0.012507(28) 0.648300(5)
O25_2 O 0.0056(3) 0.0856(2) 0.68651(6)
O29_2 O 0.05340(30) 0.11645(27) 0.63048(4)
O30_2 O 0.14249(13) 0.01203(19) 0.66362(5)
O31_2 O 0.13348(12) 0.09221(18) 0.63449(3)
C81_2 C 0.1316(3) 0.0080(5) 0.68000(10)
C82_2 C 0.1893(2) 0.0123(3) 0.69070(7)
C83_2 C 0.2465(3) 0.0285(4) 0.68463(7)
C84_2 C 0.1832(3) 0.0039(4) 0.70767(7)
H49_2 H 0.2536 0.0386 0.6732
C85_2 C 0.2962(2) 0.0320(4) 0.69359(8)
C86_2 C 0.2333(3) 0.0084(4) 0.71814(7)
H51_2 H 0.3355 0.0438 0.6880
C87_2 C 0.2930(2) 0.0198(4) 0.71017(7)
H52_2 H 0.2281 0.0042 0.7298
C90_2 C 0.3464(3) 0.0257(4) 0.72053(7)
C95_2 C 0.4111(3) 0.0750(5) 0.71752(10)
H56_2 H 0.4201 0.1100 0.7103
C101_2 C 0.4582(3) 0.0716(5) 0.72480(11)
H61_2 H 0.5007 0.1028 0.7216
C107_2 C 0.4526(6) 0.0248(8) 0.73745(10)
H66_2 H 0.4888 0.0233 0.7417
O21_6 O 0.0000 1.0000 0.65756(5)
Zn12_6 Zn 0.0000 1.0000 0.682394(11)
C62_4 C 0.0135(3) 0.8892(2) 0.62833(5)
C64_4 C 0.0227(4) 0.8456(3) 0.61512(7)
C68_4 C 0.0817(4) 0.8728(3) 0.60539(9)
C72_4 C 0.0888(4) 0.8401(3) 0.59252(11)
H40_4 H 0.1162 0.9145 0.6081
C74_4 C 0.0424(4) 0.7792(3) 0.58934(8)
H44_4 H 0.1263 0.8603 0.5858
C76_4 C 0.0543(4) 0.7397(3) 0.57615(8)
C79_4 C 0.1193(6) 0.7612(5) 0.57078(10)
H47_4 H 0.1555 0.7989 0.5750
O26_2 O 0.0800(2) 0.9944(3) 0.68651(6)
O32_2 O 0.06305(14) 0.94660(30) 0.63048(4)
H50_2 H 0.1436 0.9948 0.7126
C88_4 C 0.0022(2) 0.6886(2) 0.56689(6)
C91_4 C 0.0131(3) 0.6540(3) 0.55386(7)
C92_4 C 0.1249(3) 0.7199(4) 0.55813(11)
C96_2 C 0.3355(2) 0.9802(3) 0.73356(6)
C97_4 C 0.0778(3) 0.6694(4) 0.55085(10)
H54_4 H 0.1674 0.7312 0.5549
C102_2 C 0.3876(4) 0.9813(5) 0.74282(8)
H57_2 H 0.2924 0.9484 0.7362
H58_4 H 0.0868 0.6434 0.5436
C108_2 C 0.3757(4) 0.9299(5) 0.75601(8)
H62_4 H 0.0022 0.6250 0.5213
C112_2 C 0.4221(4) 0.9154(5) 0.75919(11)
C113_2 C 0.3220(3) 0.9076(4) 0.76680(7)
H69_2 H 0.4596 0.9327 0.7525
C116_2 C 0.4150(4) 0.8756(5) 0.77206(9)
C117_2 C 0.3086(3) 0.8611(4) 0.77951(6)
H70_2 H 0.2937 0.9243 0.7655
H71_2 H 0.4495 0.8684 0.7748
C119_2 C 0.3560(4) 0.8438(5) 0.78179(7)
H72_2 H 0.2704 0.8433 0.7860
C120_2 C 0.3468(3) 0.7910(4) 0.79500(5)
O37_2 O 0.29206(13) 0.75888(18) 0.80116(3)
O38_2 O 0.39638(14) 0.78312(27) 0.79715(4)
Zn19_2 Zn 0.26326(2) 0.679174(28) 0.814967(5)
Zn20 Zn 0.415910(19) 0.73674(2) 0.814967(5)
O21_7 O 1.0000 -0.0000 0.65756(5)
Zn12_7 Zn 1.0000 -0.0000 0.682394(11)
Zn13_2 Zn 0.987493(28) 0.07007(2) 0.648300(5)
O27_2 O 0.98797(19) 0.13046(14) 0.66362(5)
O28_2 O 0.90779(18) 0.04127(13) 0.63449(3)
Zn11_2 Zn 0.92993(2) 0.917423(19) 0.648300(5)
O20_2 O 0.86954(14) 0.85751(13) 0.66362(5)
O21_8 O 1.0000 1.0000 0.65756(5)
O22_2 O 0.95873(13) 0.86652(12) 0.63449(3)
O23_2 O 0.88355(27) 0.93695(14) 0.63048(4)
C61_3 C 0.8764(4) 0.8684(3) 0.68000(10)
Zn12_8 Zn 1.0000 1.0000 0.682394(11)
C63_3 C 0.8230(2) 0.8107(2) 0.69070(7)
O24_2 O 0.9144(2) 0.9200(2) 0.68651(6)
C65_3 C 0.7820(3) 0.7535(3) 0.68463(7)
C66_3 C 0.8207(2) 0.8168(3) 0.70767(7)
C67_4 C 0.9753(3) 0.7809(2) 0.61284(6)
H37_3 H 0.7850 0.7464 0.6732
C69_3 C 0.7358(3) 0.7038(2) 0.69359(8)
C70_3 C 0.7751(3) 0.7667(3) 0.71814(7)
H38_3 H 0.8512 0.8564 0.7126
H39_4 H 0.9371 0.7605 0.6193
C71_4 C 0.9887(3) 0.7478(2) 0.60013(7)
H41_3 H 0.7083 0.6645 0.6880
C73_3 C 0.7268(3) 0.7070(2) 0.71017(7)
H42_3 H 0.7761 0.7719 0.7298
H43_4 H 0.9604 0.7028 0.5988
C75_3 C 0.6793(3) 0.6536(3) 0.72053(7)
C77_3 C 0.6639(4) 0.5889(3) 0.71752(10)
C78_3 C 0.6447(2) 0.6645(2) 0.73356(6)
H45_3 H 0.6899 0.5799 0.7103
C80_3 C 0.6134(4) 0.5418(3) 0.72480(11)
H46_3 H 0.6560 0.7076 0.7362
H48_3 H 0.6021 0.4993 0.7216
C89_3 C 0.5936(3) 0.6124(4) 0.74282(8)
H53_4 H 0.9591 0.6773 0.5695
C93_3 C 0.5721(5) 0.5474(6) 0.73745(10)
C94_3 C 0.5541(3) 0.6243(4) 0.75601(8)
C98_4 C 0.9597(2) 0.6065(3) 0.54350(7)
H55_3 H 0.5344 0.5112 0.7417
C99_3 C 0.4932(3) 0.5779(4) 0.75919(11)
C100_3 C 0.5855(2) 0.6780(3) 0.76680(7)
C103_4 C 0.9629(2) 0.5975(3) 0.52692(8)
C104_4 C 0.9000(3) 0.5582(3) 0.55147(7)
H59_3 H 0.4730 0.5404 0.7525
C105_3 C 0.4605(3) 0.5850(4) 0.77206(9)
C106_3 C 0.5524(2) 0.6914(3) 0.77951(6)
H60_3 H 0.6305 0.7063 0.7655
C109_4 C 0.9132(3) 0.5513(3) 0.51796(7)
C110_4 C 0.8499(3) 0.5126(2) 0.54100(7)
H63_4 H 0.8948 0.5572 0.5631
H64_3 H 0.4188 0.5505 0.7748
C111_3 C 0.4877(3) 0.6440(4) 0.78179(7)
H65_3 H 0.5728 0.7296 0.7860
C114_4 C 0.8560(2) 0.5103(2) 0.52403(7)
H67_4 H 0.9203 0.5483 0.5065
H68_4 H 0.8103 0.4821 0.5459
C115_3 C 0.4441(2) 0.6532(3) 0.79500(5)
C118_4 C 0.7983(3) 0.4569(4) 0.51333(10)
O33_3 O 0.46681(12) 0.70794(13) 0.80116(3)
O34_3 O 0.38673(30) 0.60362(14) 0.79715(4)
O35_4 O 0.7467(2) 0.4189(2) 0.51984(6)
O36_4 O 0.80916(13) 0.46379(14) 0.49695(5)
Zn16_2 Zn 0.320826(28) 0.584090(19) 0.814967(5)
Zn17_2 Zn 0.6667 0.3333 0.515727(11)
Zn18_4 Zn 0.749244(19) 0.40340(2) 0.481633(5)
H38_4 H 0.0052 0.1488 0.7126
C78_4 C 0.0198(3) 0.3553(2) 0.73356(6)
H46_4 H 0.0516 0.3440 0.7362
C89_4 C 0.0187(5) 0.4064(3) 0.74282(8)
C94_4 C 0.0701(5) 0.4459(3) 0.75601(8)
C99_4 C 0.0846(5) 0.5068(3) 0.75919(11)
C100_4 C 0.0924(4) 0.4145(2) 0.76680(7)
H59_4 H 0.0673 0.5270 0.7525
C105_4 C 0.1244(5) 0.5395(3) 0.77206(9)
C106_4 C 0.1389(4) 0.4476(2) 0.77951(6)
H60_4 H 0.0757 0.3695 0.7655
H64_4 H 0.1316 0.5812 0.7748
C111_4 C 0.1562(5) 0.5123(3) 0.78179(7)
H65_4 H 0.1567 0.4272 0.7860
C115_4 C 0.2090(4) 0.5559(2) 0.79500(5)
O33_4 O 0.24112(18) 0.53319(12) 0.80116(3)
O34_4 O 0.21688(33) 0.61327(30) 0.79715(4)
C61_4 C 0.9920(5) 0.1236(4) 0.68000(10)
C63_4 C 0.9877(3) 0.1770(2) 0.69070(7)
C65_4 C 0.9715(4) 0.2180(3) 0.68463(7)
C66_4 C 0.9961(4) 0.1793(2) 0.70767(7)
C67_5 C 0.8056(4) 0.0247(3) 0.61284(6)
H37_4 H 0.9614 0.2150 0.6732
C69_4 C 0.9680(4) 0.2642(3) 0.69359(8)
C70_4 C 0.9916(4) 0.2249(3) 0.71814(7)
H39_5 H 0.8234 0.0629 0.6193
C71_5 C 0.7591(4) 0.0113(3) 0.60013(7)
H41_4 H 0.9562 0.2917 0.6880
C73_4 C 0.9802(4) 0.2732(3) 0.71017(7)
H42_4 H 0.9958 0.2239 0.7298
H43_5 H 0.7424 0.0396 0.5988
C75_4 C 0.9743(4) 0.3207(3) 0.72053(7)
C77_4 C 0.9250(5) 0.3361(4) 0.71752(10)
H45_4 H 0.8900 0.3101 0.7103
C80_4 C 0.9284(5) 0.3866(4) 0.72480(11)
H48_4 H 0.8972 0.3979 0.7216
H53_5 H 0.7183 0.0409 0.5695
C93_4 C 0.9752(8) 0.4279(5) 0.73745(10)
C98_5 C 0.6469(4) 0.0403(2) 0.54350(7)
H55_4 H 0.9767 0.4656 0.7417
C103_5 C 0.6347(4) 0.0371(2) 0.52692(8)
C104_5 C 0.6583(4) 0.1000(3) 0.55147(7)
C109_5 C 0.6382(4) 0.0868(3) 0.51796(7)
C110_5 C 0.6628(4) 0.1501(3) 0.54100(7)
H63_5 H 0.6625 0.1052 0.5631
C114_5 C 0.6544(3) 0.1440(2) 0.52403(7)
H67_5 H 0.6281 0.0797 0.5065
H68_5 H 0.6719 0.1897 0.5459
C118_5 C 0.6587(5) 0.2017(3) 0.51333(10)
O35_5 O 0.6723(3) 0.2533(2) 0.51984(6)
O36_5 O 0.65464(19) 0.19084(13) 0.49695(5)
Zn18_5 Zn 0.654160(28) 0.250756(19) 0.481633(5)
C62_5 C 0.8757(4) 0.9865(3) 0.62833(5)
C64_5 C 0.8229(5) 0.9773(4) 0.61512(7)
C68_5 C 0.7911(5) 0.9183(4) 0.60539(9)
C72_5 C 0.7513(5) 0.9112(4) 0.59252(11)
H40_5 H 0.7983 0.8838 0.6081
C74_5 C 0.7368(5) 0.9576(4) 0.58934(8)
H44_5 H 0.7340 0.8737 0.5858
C76_5 C 0.6854(5) 0.9457(4) 0.57615(8)
C79_5 C 0.6419(8) 0.8807(6) 0.57078(10)
H47_5 H 0.6434 0.8445 0.5750
C88_5 C 0.6865(3) 0.9978(2) 0.56689(6)
C91_5 C 0.6410(4) 0.9869(3) 0.55386(7)
C92_5 C 0.5951(5) 0.8751(3) 0.55813(11)
C97_5 C 0.5917(5) 0.9222(3) 0.55085(10)
H54_5 H 0.5639 0.8326 0.5549
H58_5 H 0.5567 0.9132 0.5436
H62_5 H 0.6229 0.9978 0.5213
C62_6 C 0.1108(2) 0.1243(4) 0.62833(5)
C64_6 C 0.1544(3) 0.1771(5) 0.61512(7)
C67_6 C 0.2191(2) 0.1944(4) 0.61284(6)
C68_6 C 0.1272(3) 0.2089(5) 0.60539(9)
H39_6 H 0.2395 0.1766 0.6193
C71_6 C 0.2522(2) 0.2409(4) 0.60013(7)
C72_6 C 0.1599(3) 0.2487(5) 0.59252(11)
H40_6 H 0.0855 0.2017 0.6081
C74_6 C 0.2208(3) 0.2632(5) 0.58934(8)
H43_6 H 0.2972 0.2576 0.5988
H44_6 H 0.1397 0.2660 0.5858
C76_6 C 0.2603(3) 0.3146(5) 0.57615(8)
C79_6 C 0.2388(5) 0.3581(8) 0.57078(10)
H47_6 H 0.2011 0.3566 0.5750
C88_6 C 0.3114(2) 0.3135(3) 0.56689(6)
C91_6 C 0.3460(3) 0.3590(4) 0.55386(7)
H53_6 H 0.3227 0.2817 0.5695
C92_6 C 0.2801(4) 0.4049(5) 0.55813(11)
C97_6 C 0.3306(4) 0.4083(5) 0.55085(10)
C98_6 C 0.3935(3) 0.3531(4) 0.54350(7)
H54_6 H 0.2688 0.4361 0.5549
H58_6 H 0.3566 0.4433 0.5436
C103_6 C 0.4025(3) 0.3653(4) 0.52692(8)
C104_6 C 0.4418(3) 0.3417(4) 0.55147(7)
H62_6 H 0.3750 0.3771 0.5213
C109_6 C 0.4487(3) 0.3618(4) 0.51796(7)
C110_6 C 0.4874(2) 0.3372(4) 0.54100(7)
H63_6 H 0.4428 0.3375 0.5631
C114_6 C 0.4897(2) 0.3456(3) 0.52403(7)
H67_6 H 0.4517 0.3719 0.5065
H68_6 H 0.5179 0.3281 0.5459
C118_6 C 0.5431(4) 0.3413(5) 0.51333(10)
O35_6 O 0.5811(2) 0.3277(3) 0.51984(6)
O36_6 O 0.53621(14) 0.34536(19) 0.49695(5)
Zn18_6 Zn 0.59660(2) 0.345840(28) 0.481633(5)
C91_7 C 0.0126(3) 0.3203(3) 0.38720(7)
C98_7 C 0.0601(3) 0.3737(2) 0.37684(7)
H58_7 H 0.0232 0.2466 0.3770
C103_7 C 0.0691(3) 0.3705(2) 0.36026(8)
C104_7 C 0.1084(3) 0.4334(3) 0.38481(7)
H62_7 H 0.0416 0.3312 0.3547
C109_7 C 0.1153(3) 0.4202(3) 0.35130(7)
C110_7 C 0.1540(2) 0.4835(3) 0.37434(7)
H63_7 H 0.1094 0.4386 0.3965
C114_7 C 0.1563(2) 0.4774(2) 0.35737(7)
H67_7 H 0.1183 0.4131 0.3399
H68_7 H 0.1845 0.5231 0.3793
C118_7 C 0.2097(4) 0.5351(3) 0.34667(10)
O35_7 O 0.2477(2) 0.5867(2) 0.35318(6)
O36_7 O 0.20287(14) 0.52418(13) 0.33029(5)
Zn17_3 Zn 0.3333 0.6667 0.349061(11)
O21_9 O 0.6667 0.3333 0.49089(5)
O22_3 O 0.80015(12) 0.37460(13) 0.46782(3)
O23_3 O 0.72972(14) 0.44978(27) 0.46381(4)
C62_7 C 0.7775(2) 0.3198(3) 0.46166(5)
C64_7 C 0.8211(3) 0.3106(4) 0.44845(7)
C67_7 C 0.8858(2) 0.3580(3) 0.44617(6)
C68_7 C 0.7939(3) 0.2516(4) 0.43872(9)
H39_7 H 0.9062 0.3962 0.4526
C71_7 C 0.9189(2) 0.3446(3) 0.43346(7)
C72_7 C 0.8266(3) 0.2445(4) 0.42585(11)
H40_7 H 0.7522 0.2171 0.4414
C74_7 C 0.8875(3) 0.2909(4) 0.42267(8)
H43_7 H 0.9639 0.3729 0.4321
H44_7 H 0.8064 0.2070 0.4191
C76_7 C 0.9270(3) 0.2790(4) 0.40948(8)
C79_7 C 0.9055(5) 0.2140(6) 0.40411(10)
H47_7 H 0.8678 0.1778 0.4083
O28_3 O 0.62540(13) 0.42554(18) 0.46782(3)
O29_3 O 0.55022(27) 0.27993(30) 0.46381(4)
O31_3 O 0.57446(18) 0.19985(12) 0.46782(3)
O32_3 O 0.72007(30) 0.27028(14) 0.46381(4)
C88_7 C 0.9780(2) 0.3312(2) 0.40023(6)
H53_7 H 0.9893 0.3743 0.4029
C92_7 C 0.9467(4) 0.2085(3) 0.39147(11)
C97_7 C 0.9972(4) 0.2556(3) 0.38419(10)
H54_7 H 0.9354 0.1660 0.3883
C62_8 C 0.6802(3) 0.4576(4) 0.46166(5)
C64_8 C 0.6894(4) 0.5104(5) 0.44845(7)
C67_8 C 0.6420(3) 0.5277(4) 0.44617(6)
C68_8 C 0.7484(4) 0.5422(5) 0.43872(9)
H39_8 H 0.6038 0.5099 0.4526
C71_8 C 0.6554(3) 0.5742(4) 0.43346(7)
C72_8 C 0.7555(4) 0.5820(5) 0.42585(11)
H40_8 H 0.7829 0.5350 0.4414
C74_8 C 0.7091(4) 0.5965(5) 0.42267(8)
H43_8 H 0.6271 0.5909 0.4321
H44_8 H 0.7930 0.5993 0.4191
C76_8 C 0.7210(4) 0.6479(5) 0.40948(8)
C79_8 C 0.7860(6) 0.6914(8) 0.40411(10)
H47_8 H 0.8222 0.6899 0.4083
C88_8 C 0.6688(2) 0.6469(3) 0.40023(6)
C91_8 C 0.6797(3) 0.6924(4) 0.38720(7)
H53_8 H 0.6257 0.6151 0.4029
C92_8 C 0.7915(3) 0.7383(5) 0.39147(11)
C97_8 C 0.7444(3) 0.7417(5) 0.38419(10)
C98_8 C 0.6263(2) 0.6865(4) 0.37684(7)
H54_8 H 0.8340 0.7695 0.3883
H58_8 H 0.7534 0.7767 0.3770
C103_8 C 0.6295(2) 0.6987(4) 0.36026(8)
C104_8 C 0.5666(3) 0.6751(4) 0.38481(7)
H62_8 H 0.6688 0.7105 0.3547
C109_8 C 0.5798(3) 0.6952(4) 0.35130(7)
C110_8 C 0.5165(3) 0.6706(4) 0.37434(7)
H63_8 H 0.5614 0.6709 0.3965
C114_8 C 0.5226(2) 0.6790(3) 0.35737(7)
H67_8 H 0.5869 0.7053 0.3399
H68_8 H 0.4769 0.6615 0.3793
C118_8 C 0.4649(3) 0.6747(5) 0.34667(10)
O35_8 O 0.4133(2) 0.6611(3) 0.35318(6)
O36_8 O 0.47582(13) 0.67870(19) 0.33029(5)
C62_9 C 0.5424(4) 0.2225(2) 0.46166(5)
C64_9 C 0.4896(5) 0.1789(3) 0.44845(7)
C67_9 C 0.4723(4) 0.1142(2) 0.44617(6)
C68_9 C 0.4578(5) 0.2061(3) 0.43872(9)
H39_9 H 0.4901 0.0938 0.4526
C71_9 C 0.4258(4) 0.0811(2) 0.43346(7)
C72_9 C 0.4180(5) 0.1734(3) 0.42585(11)
H40_9 H 0.4650 0.2478 0.4414
C74_9 C 0.4035(5) 0.1125(3) 0.42267(8)
H43_9 H 0.4091 0.0361 0.4321
H44_9 H 0.4007 0.1936 0.4191
C76_9 C 0.3521(5) 0.0730(3) 0.40948(8)
C79_9 C 0.3086(8) 0.0945(5) 0.40411(10)
H47_9 H 0.3101 0.1322 0.4083
C88_9 C 0.3531(3) 0.0220(2) 0.40023(6)
H53_9 H 0.3849 0.0107 0.4029
C92_9 C 0.2617(5) 0.0533(4) 0.39147(11)
C97_9 C 0.2583(5) 0.0028(4) 0.38419(10)
H54_9 H 0.2305 0.0646 0.3883
C91_9 C 0.3076(4) 0.9874(3) 0.38720(7)
C98_9 C 0.3135(4) 0.9399(3) 0.37684(7)
H58_9 H 0.2233 0.9768 0.3770
C103_9 C 0.3013(4) 0.9309(3) 0.36026(8)
C104_9 C 0.3249(4) 0.8916(3) 0.38481(7)
H62_9 H 0.2895 0.9584 0.3547
C109_9 C 0.3048(4) 0.8847(3) 0.35130(7)
C110_9 C 0.3294(4) 0.8460(2) 0.37434(7)
H63_9 H 0.3291 0.8906 0.3965
C114_9 C 0.3210(3) 0.8437(2) 0.35737(7)
H67_9 H 0.2947 0.8817 0.3399
H68_9 H 0.3385 0.8155 0.3793
C118_9 C 0.3253(5) 0.7903(4) 0.34667(10)
O35_9 O 0.3389(3) 0.7523(2) 0.35318(6)
O36_9 O 0.32130(19) 0.79713(14) 0.33029(5)
O21_10 O 0.6667 0.3333 0.99089(5)
O22_4 O 0.62540(13) 0.19985(12) 0.96782(3)
O23_4 O 0.55022(27) 0.27028(14) 0.96381(4)
C62_10 C 0.6802(3) 0.2225(2) 0.96166(5)
C64_10 C 0.6894(4) 0.1789(3) 0.94845(7)
C67_10 C 0.6420(3) 0.1142(2) 0.94617(6)
C68_10 C 0.7484(4) 0.2061(3) 0.93872(9)
H39_10 H 0.6038 0.0938 0.9526
C71_10 C 0.6554(3) 0.0811(2) 0.93346(7)
C72_10 C 0.7555(4) 0.1734(3) 0.92585(11)
H40_10 H 0.7829 0.2478 0.9414
C74_10 C 0.7091(4) 0.1125(3) 0.92267(8)
H43_10 H 0.6271 0.0361 0.9321
H44_10 H 0.7930 0.1936 0.9191
C76_10 C 0.7210(4) 0.0730(3) 0.90948(8)
C79_10 C 0.7860(6) 0.0945(5) 0.90411(10)
H47_10 H 0.8222 0.1322 0.9083
O28_4 O 0.57446(18) 0.37460(13) 0.96782(3)
O29_4 O 0.72007(30) 0.44978(27) 0.96381(4)
O31_4 O 0.80015(12) 0.42554(18) 0.96782(3)
O32_4 O 0.72972(14) 0.27993(30) 0.96381(4)
C88_10 C 0.6688(2) 0.0220(2) 0.90023(6)
H53_10 H 0.6257 0.0107 0.9029
C92_10 C 0.7915(3) 0.0533(4) 0.89147(11)
C97_10 C 0.7444(3) 0.0028(4) 0.88419(10)
H54_10 H 0.8340 0.0646 0.8883
C91_10 C 0.6797(3) 0.9874(3) 0.88720(7)
C98_10 C 0.6263(2) 0.9399(3) 0.87684(7)
H58_10 H 0.7534 0.9768 0.8770
C103_10 C 0.6295(2) 0.9309(3) 0.86026(8)
C104_10 C 0.5666(3) 0.8916(3) 0.88481(7)
H62_10 H 0.6688 0.9584 0.8547
C109_10 C 0.5798(3) 0.8847(3) 0.85130(7)
C110_10 C 0.5165(3) 0.8460(2) 0.87434(7)
H63_10 H 0.5614 0.8906 0.8965
C114_10 C 0.5226(2) 0.8437(2) 0.85737(7)
H67_10 H 0.5869 0.8817 0.8399
H68_10 H 0.4769 0.8155 0.8793
C118_10 C 0.4649(3) 0.7903(4) 0.84667(10)
O35_10 O 0.4133(2) 0.7523(2) 0.85318(6)
O36_10 O 0.47582(13) 0.79713(14) 0.83029(5)
Zn17_4 Zn 0.3333 0.6667 0.849061(11)
C62_11 C 0.5424(4) 0.3198(3) 0.96166(5)
C64_11 C 0.4896(5) 0.3106(4) 0.94845(7)
C67_11 C 0.4723(4) 0.3580(3) 0.94617(6)
C68_11 C 0.4578(5) 0.2516(4) 0.93872(9)
H39_11 H 0.4901 0.3962 0.9526
C71_11 C 0.4258(4) 0.3446(3) 0.93346(7)
C72_11 C 0.4180(5) 0.2445(4) 0.92585(11)
H40_11 H 0.4650 0.2171 0.9414
C74_11 C 0.4035(5) 0.2909(4) 0.92267(8)
H43_11 H 0.4091 0.3729 0.9321
H44_11 H 0.4007 0.2070 0.9191
C76_11 C 0.3521(5) 0.2790(4) 0.90948(8)
C79_11 C 0.3086(8) 0.2140(6) 0.90411(10)
H47_11 H 0.3101 0.1778 0.9083
C88_11 C 0.3531(3) 0.3312(2) 0.90023(6)
C91_11 C 0.3076(4) 0.3203(3) 0.88720(7)
H53_11 H 0.3849 0.3743 0.9029
C92_11 C 0.2617(5) 0.2085(3) 0.89147(11)
C97_11 C 0.2583(5) 0.2556(3) 0.88419(10)
C98_11 C 0.3135(4) 0.3737(2) 0.87684(7)
H54_11 H 0.2305 0.1660 0.8883
H58_11 H 0.2233 0.2466 0.8770
C103_11 C 0.3013(4) 0.3705(2) 0.86026(8)
C104_11 C 0.3249(4) 0.4334(3) 0.88481(7)
H62_11 H 0.2895 0.3312 0.8547
C109_11 C 0.3048(4) 0.4202(3) 0.85130(7)
C110_11 C 0.3294(4) 0.4835(3) 0.87434(7)
H63_11 H 0.3291 0.4386 0.8965
C114_11 C 0.3210(3) 0.4774(2) 0.85737(7)
H67_11 H 0.2947 0.4131 0.8399
H68_11 H 0.3385 0.5231 0.8793
C118_11 C 0.3253(5) 0.5351(3) 0.84667(10)
O35_11 O 0.3389(3) 0.5867(2) 0.85318(6)
O36_11 O 0.32130(19) 0.52418(13) 0.83029(5)
C91_12 C 0.0126(3) 0.6924(4) 0.88720(7)
C98_12 C 0.0601(3) 0.6865(4) 0.87684(7)
H58_12 H 0.0232 0.7767 0.8770
C103_12 C 0.0691(3) 0.6987(4) 0.86026(8)
C104_12 C 0.1084(3) 0.6751(4) 0.88481(7)
H62_12 H 0.0416 0.7105 0.8547
C109_12 C 0.1153(3) 0.6952(4) 0.85130(7)
C110_12 C 0.1540(2) 0.6706(4) 0.87434(7)
H63_12 H 0.1094 0.6709 0.8965
C114_12 C 0.1563(2) 0.6790(3) 0.85737(7)
H67_12 H 0.1183 0.7053 0.8399
H68_12 H 0.1845 0.6615 0.8793
C118_12 C 0.2097(4) 0.6747(5) 0.84667(10)
O35_12 O 0.2477(2) 0.6611(3) 0.85318(6)
O36_12 O 0.20287(14) 0.67870(19) 0.83029(5)
C62_12 C 0.7775(2) 0.4576(4) 0.96166(5)
C64_12 C 0.8211(3) 0.5104(5) 0.94845(7)
C67_12 C 0.8858(2) 0.5277(4) 0.94617(6)
C68_12 C 0.7939(3) 0.5422(5) 0.93872(9)
H39_12 H 0.9062 0.5099 0.9526
C71_12 C 0.9189(2) 0.5742(4) 0.93346(7)
C72_12 C 0.8266(3) 0.5820(5) 0.92585(11)
H40_12 H 0.7522 0.5350 0.9414
C74_12 C 0.8875(3) 0.5965(5) 0.92267(8)
H43_12 H 0.9639 0.5909 0.9321
H44_12 H 0.8064 0.5993 0.9191
C76_12 C 0.9270(3) 0.6479(5) 0.90948(8)
C79_12 C 0.9055(5) 0.6914(8) 0.90411(10)
H47_12 H 0.8678 0.6899 0.9083
C88_12 C 0.9780(2) 0.6469(3) 0.90023(6)
H53_12 H 0.9893 0.6151 0.9029
C92_12 C 0.9467(4) 0.7383(5) 0.89147(11)
C97_12 C 0.9972(4) 0.7417(5) 0.88419(10)
H54_12 H 0.9354 0.7695 0.8883
O21_11 O 0.3333 0.6667 0.82423(5)
O21_12 O 0.3333 0.6667 0.32423(5)
loop_
_geom_bond_atom_site_label_1
_geom_bond_atom_site_label_2
_geom_bond_site_symmetry_1
_geom_bond_site_symmetry_2
H31 C51 1_555 1_555
C52 C51 1_555 1_555
C54 C52 1_555 1_555
C55 C54 1_555 1_555
H33 C55 1_555 1_555
C56 C55 1_555 1_555
H34 C56 1_555 1_555
C57 C56 1_555 1_555
C58 C57 1_555 1_555
H35 C58 1_555 1_555
C59 C54 1_555 1_555
H36 C59 1_555 1_555
C60 C57 1_555 1_555
O12 C60 1_555 1_555
O13 C60 1_555 1_555
Zn5 O13 1_555 1_555
Zn10 O12 1_555 1_555
C58 C59 1_555 1_555
C1 C2 1_555 1_555
C2 C3 1_555 1_555
C3 H1 1_555 1_555
C4 C3 1_555 1_555
H2 C4 1_555 1_555
C5 C4 1_555 1_555
C6 C5 1_555 1_555
H3 C6 1_555 1_555
C7 C2 1_555 1_555
H4 C7 1_555 1_555
C8 C5 1_555 1_555
C9 C8 1_555 1_555
H5 C9 1_555 1_555
C10 C9 1_555 1_555
H6 C10 1_555 1_555
C11 C10 1_555 1_555
H7 C11 1_555 1_555
C12 C11 1_555 1_555
C13 C8 1_555 1_555
H8 C13 1_555 1_555
C14 C12 1_555 1_555
C15 C14 1_555 1_555
H9 C15 1_555 1_555
C16 C15 1_555 1_555
H10 C16 1_555 1_555
C17 C16 1_555 1_555
C18 C17 1_555 1_555
H11 C18 1_555 1_555
C19 C14 1_555 1_555
H12 C19 1_555 1_555
C20 C17 1_555 1_555
O1 C1 1_555 1_555
O2 C1 1_555 1_555
O3 C20 1_555 1_555
O4 C20 1_555 1_555
O5 Zn1 1_555 1_555
Zn1 O1 1_555 1_555
Zn2 O5 1_555 1_555
C21 C22 1_555 1_555
C22 C23 1_555 1_555
C23 H13 1_555 1_555
C24 C23 1_555 1_555
H14 C24 1_555 1_555
C25 C24 1_555 1_555
C26 C25 1_555 1_555
H15 C26 1_555 1_555
C27 C22 1_555 1_555
H16 C27 1_555 1_555
C28 C25 1_555 1_555
C29 C28 1_555 1_555
H17 C29 1_555 1_555
C30 C29 1_555 1_555
H18 C30 1_555 1_555
C33 C28 1_555 1_555
H20 C33 1_555 1_555
O6 C21 1_555 1_555
O7 C21 1_555 1_555
Zn3 O2 1_555 1_555
C41 C42 1_555 1_555
C42 C43 1_555 1_555
C43 H25 1_555 1_555
C44 C43 1_555 1_555
H26 C44 1_555 1_555
C45 C44 1_555 1_555
C46 C45 1_555 1_555
H27 C46 1_555 1_555
C47 C42 1_555 1_555
H28 C47 1_555 1_555
C48 C45 1_555 1_555
C49 C48 1_555 1_555
H29 C49 1_555 1_555
C50 C49 1_555 1_555
H30 C50 1_555 1_555
C53 C48 1_555 1_555
H32 C53 1_555 1_555
O10 C41 1_555 1_555
O11 Zn1 1_555 1_555
Zn4 O5 1_555 1_555
O14 Zn2 1_555 1_555
O15 Zn2 1_555 1_555
O16 Zn2 1_555 1_555
O17 Zn4 1_555 1_555
O18 Zn3 1_555 1_555
O19 Zn1 1_555 1_555
Zn7 O4 1_555 1_555
Zn10 O3 1_555 1_555
C6 C7 1_555 1_555
C12 C13 1_555 1_555
C18 C19 1_555 1_555
O5 Zn3 1_555 1_555
C26 C27 1_555 1_555
O6 Zn3 1_555 1_555
O7 Zn4 1_555 1_555
C41 O11 1_555 1_555
C46 C47 1_555 1_555
O10 Zn4 1_555 1_555
H19 C31 1_555 1_555
C32 C31 1_555 1_555
C34 C32 1_555 1_555
C35 C34 1_555 1_555
H21 C35 1_555 1_555
C36 C35 1_555 1_555
H22 C36 1_555 1_555
C37 C36 1_555 1_555
C38 C37 1_555 1_555
H23 C38 1_555 1_555
C39 C34 1_555 1_555
H24 C39 1_555 1_555
C40 C37 1_555 1_555
O8 C40 1_555 1_555
O9 C40 1_555 1_555
Zn6 O9 1_555 1_555
Zn10 O8 1_555 1_555
C38 C39 1_555 1_555
H19_2 C31_2 1_555 1_555
C32_2 C31_2 1_555 1_555
C34_2 C32_2 1_555 1_555
C35_2 C34_2 1_555 1_555
H21_2 C35_2 1_555 1_555
C36_2 C35_2 1_555 1_555
H22_2 C36_2 1_555 1_555
C37_2 C36_2 1_555 1_555
C38_2 C37_2 1_555 1_555
H23_2 C38_2 1_555 1_555
C39_2 C34_2 1_555 1_555
H24_2 C39_2 1_555 1_555
C40_2 C37_2 1_555 1_555
O8_2 C40_2 1_555 1_555
O9_2 C40_2 1_555 1_555
Zn6_2 O9_2 1_555 1_555
Zn8 O8_2 1_555 1_555
C38_2 C39_2 1_555 1_555
C1_2 C2_2 1_555 1_555
C2_2 C3_2 1_555 1_555
C3_2 H1_2 1_555 1_555
C4_2 C3_2 1_555 1_555
H2_2 C4_2 1_555 1_555
C5_2 C4_2 1_555 1_555
C6_2 C5_2 1_555 1_555
H3_2 C6_2 1_555 1_555
C7_2 C2_2 1_555 1_555
H4_2 C7_2 1_555 1_555
C8_2 C5_2 1_555 1_555
C9_2 C8_2 1_555 1_555
H5_2 C9_2 1_555 1_555
C10_2 C9_2 1_555 1_555
H6_2 C10_2 1_555 1_555
C11_2 C10_2 1_555 1_555
H7_2 C11_2 1_555 1_555
C12_2 C11_2 1_555 1_555
C13_2 C8_2 1_555 1_555
H8_2 C13_2 1_555 1_555
C14_2 C12_2 1_555 1_555
C15_2 C14_2 1_555 1_555
H9_2 C15_2 1_555 1_555
C16_2 C15_2 1_555 1_555
H10_2 C16_2 1_555 1_555
C17_2 C16_2 1_555 1_555
C18_2 C17_2 1_555 1_555
H11_2 C18_2 1_555 1_555
C19_2 C14_2 1_555 1_555
H12_2 C19_2 1_555 1_555
C20_2 C17_2 1_555 1_555
O1_2 C1_2 1_555 1_555
O2_2 C1_2 1_555 1_555
O3_2 C20_2 1_555 1_555
O4_2 C20_2 1_555 1_555
O5_2 Zn1_2 1_555 1_555
Zn1_2 O1_2 1_555 1_555
Zn2_2 O5_2 1_555 1_555
C21_2 C22_2 1_555 1_555
C22_2 C23_2 1_555 1_555
C23_2 H13_2 1_555 1_555
C24_2 C23_2 1_555 1_555
H14_2 C24_2 1_555 1_555
C25_2 C24_2 1_555 1_555
C26_2 C25_2 1_555 1_555
H15_2 C26_2 1_555 1_555
C27_2 C22_2 1_555 1_555
H16_2 C27_2 1_555 1_555
C28_2 C25_2 1_555 1_555
C29_2 C28_2 1_555 1_555
H17_2 C29_2 1_555 1_555
C30_2 C29_2 1_555 1_555
H18_2 C30_2 1_555 1_555
C33_2 C28_2 1_555 1_555
H20_2 C33_2 1_555 1_555
O6_2 C21_2 1_555 1_555
O7_2 C21_2 1_555 1_555
Zn3_2 O2_2 1_555 1_555
C41_2 C42_2 1_555 1_555
C42_2 C43_2 1_555 1_555
C43_2 H25_2 1_555 1_555
C44_2 C43_2 1_555 1_555
H26_2 C44_2 1_555 1_555
C45_2 C44_2 1_555 1_555
C46_2 C45_2 1_555 1_555
H27_2 C46_2 1_555 1_555
C47_2 C42_2 1_555 1_555
H28_2 C47_2 1_555 1_555
C48_2 C45_2 1_555 1_555
C49_2 C48_2 1_555 1_555
H29_2 C49_2 1_555 1_555
C50_2 C49_2 1_555 1_555
H30_2 C50_2 1_555 1_555
C53_2 C48_2 1_555 1_555
H32_2 C53_2 1_555 1_555
O10_2 C41_2 1_555 1_555
O11_2 Zn1_2 1_555 1_555
Zn4_2 O5_2 1_555 1_555
O14_2 Zn2_2 1_555 1_555
O15_2 Zn2_2 1_555 1_555
O16_2 Zn2_2 1_555 1_555
O17_2 Zn4_2 1_555 1_555
O18_2 Zn3_2 1_555 1_555
O19_2 Zn1_2 1_555 1_555
Zn7_2 O4_2 1_555 1_555
Zn8 O3_2 1_555 1_555
C6_2 C7_2 1_555 1_555
C12_2 C13_2 1_555 1_555
C18_2 C19_2 1_555 1_555
O5_2 Zn3_2 1_555 1_555
C26_2 C27_2 1_555 1_555
O6_2 Zn3_2 1_555 1_555
O7_2 Zn4_2 1_555 1_555
C41_2 O11_2 1_555 1_555
C46_2 C47_2 1_555 1_555
O10_2 Zn4_2 1_555 1_555
H31_2 C51_2 1_555 1_555
C52_2 C51_2 1_555 1_555
C54_2 C52_2 1_555 1_555
C55_2 C54_2 1_555 1_555
H33_2 C55_2 1_555 1_555
C56_2 C55_2 1_555 1_555
H34_2 C56_2 1_555 1_555
C57_2 C56_2 1_555 1_555
C58_2 C57_2 1_555 1_555
H35_2 C58_2 1_555 1_555
C59_2 C54_2 1_555 1_555
H36_2 C59_2 1_555 1_555
C60_2 C57_2 1_555 1_555
O12_2 C60_2 1_555 1_555
O13_2 C60_2 1_555 1_555
Zn5_2 O13_2 1_555 1_555
Zn8 O12_2 1_555 1_555
C58_2 C59_2 1_555 1_555
H29_3 C49_3 1_555 1_555
C50_3 C49_3 1_555 1_555
H30_3 C50_3 1_555 1_555
C51_3 C50_3 1_555 1_555
H31_3 C51_3 1_555 1_555
C52_3 C51_3 1_555 1_555
C54_3 C52_3 1_555 1_555
C55_3 C54_3 1_555 1_555
H33_3 C55_3 1_555 1_555
C56_3 C55_3 1_555 1_555
H34_3 C56_3 1_555 1_555
C57_3 C56_3 1_555 1_555
C58_3 C57_3 1_555 1_555
C59_3 C54_3 1_555 1_555
C60_3 C57_3 1_555 1_555
O12_3 C60_3 1_555 1_555
O13_3 C60_3 1_555 1_555
Zn5_3 O13_3 1_555 1_555
Zn10_4 O12_3 1_555 1_555
C58_3 C59_3 1_555 1_555
C1_3 C2_3 1_555 1_555
C2_3 C3_3 1_555 1_555
C3_3 H1_3 1_555 1_555
C4_3 C3_3 1_555 1_555
H2_3 C4_3 1_555 1_555
C5_3 C4_3 1_555 1_555
C6_3 C5_3 1_555 1_555
H3_3 C6_3 1_555 1_555
C7_3 C2_3 1_555 1_555
H4_3 C7_3 1_555 1_555
C8_3 C5_3 1_555 1_555
C13_3 C8_3 1_555 1_555
H8_3 C13_3 1_555 1_555
O1_3 C1_3 1_555 1_555
O2_3 C1_3 1_555 1_555
O5_3 Zn5_2 1_555 1_555
Zn5_2 O1_3 1_555 1_555
Zn8 O5_3 1_555 1_555
C21_3 C22_3 1_555 1_555
C22_3 C23_3 1_555 1_555
C23_3 H13_3 1_555 1_555
C24_3 C23_3 1_555 1_555
H14_3 C24_3 1_555 1_555
C25_3 C24_3 1_555 1_555
C26_3 C25_3 1_555 1_555
H15_3 C26_3 1_555 1_555
C27_3 C22_3 1_555 1_555
H16_3 C27_3 1_555 1_555
C28_3 C25_3 1_555 1_555
C29_3 C28_3 1_555 1_555
H17_3 C29_3 1_555 1_555
C30_3 C29_3 1_555 1_555
H18_3 C30_3 1_555 1_555
C31_3 C30_3 1_555 1_555
H19_3 C31_3 1_555 1_555
C32_3 C31_3 1_555 1_555
C33_3 C28_3 1_555 1_555
H20_3 C33_3 1_555 1_555
C34_3 C32_3 1_555 1_555
C35_3 C34_3 1_555 1_555
H21_3 C35_3 1_555 1_555
C36_3 C35_3 1_555 1_555
H22_3 C36_3 1_555 1_555
C37_3 C36_3 1_555 1_555
C38_3 C37_3 1_555 1_555
H23_3 C38_3 1_555 1_555
C39_3 C34_3 1_555 1_555
H24_3 C39_3 1_555 1_555
C40_3 C37_3 1_555 1_555
O6_3 C21_3 1_555 1_555
O7_3 C21_3 1_555 1_555
O8_3 C40_3 1_555 1_555
O9_3 C40_3 1_555 1_555
Zn6_2 O2_3 1_555 1_555
C41_3 C42_3 1_555 1_555
C42_3 C43_3 1_555 1_555
C43_3 H25_3 1_555 1_555
C44_3 C43_3 1_555 1_555
H26_3 C44_3 1_555 1_555
C45_3 C44_3 1_555 1_555
C46_3 C45_3 1_555 1_555
H27_3 C46_3 1_555 1_555
C47_3 C42_3 1_555 1_555
H28_3 C47_3 1_555 1_555
C48_3 C45_3 1_555 1_555
C53_3 C48_3 1_555 1_555
H32_3 C53_3 1_555 1_555
O10_3 C41_3 1_555 1_555
O11_3 Zn5_2 1_555 1_555
Zn7_2 O5_3 1_555 1_555
Zn6_3 O9_3 1_555 1_555
Zn10_2 O8_3 1_555 1_555
C6_3 C7_3 1_555 1_555
O5_3 Zn6_2 1_555 1_555
C26_3 C27_3 1_555 1_555
C32_3 C33_3 1_555 1_555
C38_3 C39_3 1_555 1_555
O6_3 Zn6_2 1_555 1_555
O7_3 Zn7_2 1_555 1_555
C41_3 O11_3 1_555 1_555
C46_3 C47_3 1_555 1_555
O10_3 Zn7_2 1_555 1_555
H5_3 C9_3 1_555 1_555
C10_3 C9_3 1_555 1_555
H6_3 C10_3 1_555 1_555
C11_3 C10_3 1_555 1_555
H7_3 C11_3 1_555 1_555
C12_3 C11_3 1_555 1_555
C14_3 C12_3 1_555 1_555
C15_3 C14_3 1_555 1_555
H9_3 C15_3 1_555 1_555
C16_3 C15_3 1_555 1_555
H10_3 C16_3 1_555 1_555
C17_3 C16_3 1_555 1_555
C18_3 C17_3 1_555 1_555
C19_3 C14_3 1_555 1_555
C20_3 C17_3 1_555 1_555
O3_3 C20_3 1_555 1_555
O4_3 C20_3 1_555 1_555
Zn7_3 O4_3 1_555 1_555
Zn10_5 O3_3 1_555 1_555
C18_3 C19_3 1_555 1_555
H5_4 C9_4 1_555 1_555
C10_4 C9_4 1_555 1_555
H6_4 C10_4 1_555 1_555
C11_4 C10_4 1_555 1_555
H7_4 C11_4 1_555 1_555
C12_4 C11_4 1_555 1_555
C14_4 C12_4 1_555 1_555
C15_4 C14_4 1_555 1_555
H9_4 C15_4 1_555 1_555
C16_4 C15_4 1_555 1_555
H10_4 C16_4 1_555 1_555
C17_4 C16_4 1_555 1_555
C18_4 C17_4 1_555 1_555
C19_4 C14_4 1_555 1_555
C20_4 C17_4 1_555 1_555
O3_4 C20_4 1_555 1_555
O4_4 C20_4 1_555 1_555
Zn7_4 O4_4 1_555 1_555
Zn8_2 O3_4 1_555 1_555
C18_4 C19_4 1_555 1_555
C1_4 C2_4 1_555 1_555
C2_4 C3_4 1_555 1_555
C3_4 H1_4 1_555 1_555
C7_4 C2_4 1_555 1_555
H4_4 C7_4 1_555 1_555
O1_4 C1_4 1_555 1_555
O2_4 C1_4 1_555 1_555
O5_4 Zn5 1_555 1_555
Zn5 O1_4 1_555 1_555
Zn10 O5_4 1_555 1_555
C21_4 C22_4 1_555 1_555
C22_4 C23_4 1_555 1_555
C23_4 H13_4 1_555 1_555
C27_4 C22_4 1_555 1_555
H16_4 C27_4 1_555 1_555
O6_4 C21_4 1_555 1_555
O7_4 C21_4 1_555 1_555
Zn6 O2_4 1_555 1_555
C41_4 C42_4 1_555 1_555
C42_4 C43_4 1_555 1_555
C43_4 H25_4 1_555 1_555
C47_4 C42_4 1_555 1_555
H28_4 C47_4 1_555 1_555
O10_4 C41_4 1_555 1_555
O11_4 Zn5 1_555 1_555
Zn7 O5_4 1_555 1_555
O5_4 Zn6 1_555 1_555
O6_4 Zn6 1_555 1_555
O7_4 Zn7 1_555 1_555
C41_4 O11_4 1_555 1_555
O10_4 Zn7 1_555 1_555
H2_4 C4_4 1_555 1_555
C5_4 C4_4 1_555 1_555
C6_4 C5_4 1_555 1_555
H3_4 C6_4 1_555 1_555
C8_4 C5_4 1_555 1_555
C13_4 C8_4 1_555 1_555
H8_4 C13_4 1_555 1_555
H14_4 C24_4 1_555 1_555
C25_4 C24_4 1_555 1_555
C26_4 C25_4 1_555 1_555
H15_4 C26_4 1_555 1_555
C28_4 C25_4 1_555 1_555
C29_4 C28_4 1_555 1_555
H17_4 C29_4 1_555 1_555
C30_4 C29_4 1_555 1_555
H18_4 C30_4 1_555 1_555
C31_4 C30_4 1_555 1_555
H19_4 C31_4 1_555 1_555
C32_4 C31_4 1_555 1_555
C33_4 C28_4 1_555 1_555
H20_4 C33_4 1_555 1_555
C34_4 C32_4 1_555 1_555
C35_4 C34_4 1_555 1_555
H21_4 C35_4 1_555 1_555
C36_4 C35_4 1_555 1_555
H22_4 C36_4 1_555 1_555
C37_4 C36_4 1_555 1_555
C38_4 C37_4 1_555 1_555
H23_4 C38_4 1_555 1_555
C39_4 C34_4 1_555 1_555
H24_4 C39_4 1_555 1_555
C40_4 C37_4 1_555 1_555
O8_4 C40_4 1_555 1_555
O9_4 C40_4 1_555 1_555
H26_4 C44_4 1_555 1_555
C45_4 C44_4 1_555 1_555
C46_4 C45_4 1_555 1_555
H27_4 C46_4 1_555 1_555
C48_4 C45_4 1_555 1_555
C53_4 C48_4 1_555 1_555
H32_4 C53_4 1_555 1_555
Zn6_4 O9_4 1_555 1_555
Zn8_5 O8_4 1_555 1_555
C32_4 C33_4 1_555 1_555
C38_4 C39_4 1_555 1_555
H29_4 C49_4 1_555 1_555
C50_4 C49_4 1_555 1_555
H30_4 C50_4 1_555 1_555
C51_4 C50_4 1_555 1_555
H31_4 C51_4 1_555 1_555
C52_4 C51_4 1_555 1_555
C54_4 C52_4 1_555 1_555
C55_4 C54_4 1_555 1_555
H33_4 C55_4 1_555 1_555
C56_4 C55_4 1_555 1_555
H34_4 C56_4 1_555 1_555
C57_4 C56_4 1_555 1_555
C58_4 C57_4 1_555 1_555
C59_4 C54_4 1_555 1_555
C60_4 C57_4 1_555 1_555
O12_4 C60_4 1_555 1_555
O13_4 C60_4 1_555 1_555
Zn5_4 O13_4 1_555 1_555
Zn8_4 O12_4 1_555 1_555
C58_4 C59_4 1_555 1_555
Zn8_2 O5_5 1_555 1_555
C41_5 C42_5 1_555 1_555
C42_5 C43_5 1_555 1_555
C43_5 H25_5 1_555 1_555
C44_5 C43_5 1_555 1_555
H26_5 C44_5 1_555 1_555
C45_5 C44_5 1_555 1_555
C46_5 C45_5 1_555 1_555
H27_5 C46_5 1_555 1_555
C47_5 C42_5 1_555 1_555
H28_5 C47_5 1_555 1_555
C48_5 C45_5 1_555 1_555
C49_5 C48_5 1_555 1_555
H29_5 C49_5 1_555 1_555
C50_5 C49_5 1_555 1_555
H30_5 C50_5 1_555 1_555
C51_5 C50_5 1_555 1_555
H31_5 C51_5 1_555 1_555
C52_5 C51_5 1_555 1_555
C53_5 C48_5 1_555 1_555
H32_5 C53_5 1_555 1_555
C54_5 C52_5 1_555 1_555
C55_5 C54_5 1_555 1_555
H33_5 C55_5 1_555 1_555
C56_5 C55_5 1_555 1_555
H34_5 C56_5 1_555 1_555
C57_5 C56_5 1_555 1_555
C58_5 C57_5 1_555 1_555
H35_5 C58_5 1_555 1_555
C59_5 C54_5 1_555 1_555
H36_5 C59_5 1_555 1_555
C60_5 C57_5 1_555 1_555
O10_5 C41_5 1_555 1_555
O16_2 C60_5 1_555 1_555
O19_2 C60_5 1_555 1_555
Zn7_4 O5_5 1_555 1_555
C41_5 O11_5 1_555 1_555
C46_5 C47_5 1_555 1_555
C52_5 C53_5 1_555 1_555
C58_5 C59_5 1_555 1_555
O10_5 Zn7_4 1_555 1_555
Zn8_3 O5_6 1_555 1_555
C21_5 C22_5 1_555 1_555
C22_5 C23_5 1_555 1_555
C23_5 H13_5 1_555 1_555
C24_5 C23_5 1_555 1_555
H14_5 C24_5 1_555 1_555
C25_5 C24_5 1_555 1_555
C28_5 C25_5 1_555 1_555
C29_5 C28_5 1_555 1_555
H17_5 C29_5 1_555 1_555
C30_5 C29_5 1_555 1_555
H18_5 C30_5 1_555 1_555
C31_5 C30_5 1_555 1_555
H19_5 C31_5 1_555 1_555
C32_5 C31_5 1_555 1_555
C33_5 C28_5 1_555 1_555
O7_5 C21_5 1_555 1_555
C32_5 C33_5 1_555 1_555
H3_5 C6_5 1_555 1_555
H4_5 C7_5 1_555 1_555
C15_5 C14_5 1_555 1_555
C16_5 C15_5 1_555 1_555
H10_5 C16_5 1_555 1_555
C17_5 C16_5 1_555 1_555
C18_5 C17_5 1_555 1_555
H11_5 C18_5 1_555 1_555
C19_5 C14_5 1_555 1_555
H12_5 C19_5 1_555 1_555
C20_5 C17_5 1_555 1_555
O14_2 C20_5 1_555 1_555
O17_2 C20_5 1_555 1_555
O5_7 Zn5_4 1_555 1_555
Zn5_4 O1_5 1_555 1_555
Zn8_4 O5_7 1_555 1_555
C6_5 C7_5 1_555 1_555
C18_5 C19_5 1_555 1_555
C1_5 C2_5 1_555 1_555
C2_5 C3_5 1_555 1_555
C3_5 H1_5 1_555 1_555
C4_5 C3_5 1_555 1_555
H2_5 C4_5 1_555 1_555
C5_5 C4_5 1_555 1_555
C8_5 C5_5 1_555 1_555
C9_5 C8_5 1_555 1_555
H5_5 C9_5 1_555 1_555
C10_5 C9_5 1_555 1_555
H6_5 C10_5 1_555 1_555
C11_5 C10_5 1_555 1_555
H7_5 C11_5 1_555 1_555
C12_5 C11_5 1_555 1_555
C13_5 C8_5 1_555 1_555
O2_5 C1_5 1_555 1_555
Zn8_5 O5_8 1_555 1_555
H15_5 C26_5 1_555 1_555
H16_5 C27_5 1_555 1_555
C35_5 C34_5 1_555 1_555
C36_5 C35_5 1_555 1_555
H22_5 C36_5 1_555 1_555
C37_5 C36_5 1_555 1_555
C38_5 C37_5 1_555 1_555
H23_5 C38_5 1_555 1_555
C39_5 C34_5 1_555 1_555
H24_5 C39_5 1_555 1_555
C40_5 C37_5 1_555 1_555
O15_2 C40_5 1_555 1_555
O18_2 C40_5 1_555 1_555
Zn6_4 O2_5 1_555 1_555
C12_5 C13_5 1_555 1_555
O5_8 Zn6_4 1_555 1_555
C26_5 C27_5 1_555 1_555
C38_5 C39_5 1_555 1_555
O6_5 Zn6_4 1_555 1_555
C1_6 C2_6 1_555 1_555
C2_6 C3_6 1_555 1_555
C3_6 H1_6 1_555 1_555
C4_6 C3_6 1_555 1_555
H2_6 C4_6 1_555 1_555
C5_6 C4_6 1_555 1_555
C8_6 C5_6 1_555 1_555
C9_6 C8_6 1_555 1_555
H5_6 C9_6 1_555 1_555
C10_6 C9_6 1_555 1_555
H6_6 C10_6 1_555 1_555
C11_6 C10_6 1_555 1_555
H7_6 C11_6 1_555 1_555
C12_6 C11_6 1_555 1_555
C13_6 C8_6 1_555 1_555
O2_6 C1_6 1_555 1_555
Zn10_2 O5_9 1_555 1_555
H15_6 C26_6 1_555 1_555
H16_6 C27_6 1_555 1_555
C35_6 C34_6 1_555 1_555
C36_6 C35_6 1_555 1_555
H22_6 C36_6 1_555 1_555
C37_6 C36_6 1_555 1_555
C38_6 C37_6 1_555 1_555
H23_6 C38_6 1_555 1_555
C39_6 C34_6 1_555 1_555
H24_6 C39_6 1_555 1_555
C40_6 C37_6 1_555 1_555
O15 C40_6 1_555 1_555
O18 C40_6 1_555 1_555
Zn6_3 O2_6 1_555 1_555
C12_6 C13_6 1_555 1_555
O5_9 Zn6_3 1_555 1_555
C26_6 C27_6 1_555 1_555
C38_6 C39_6 1_555 1_555
O6_6 Zn6_3 1_555 1_555
Zn10_3 O5_10 1_555 1_555
C21_6 C22_6 1_555 1_555
C22_6 C23_6 1_555 1_555
C23_6 H13_6 1_555 1_555
C24_6 C23_6 1_555 1_555
H14_6 C24_6 1_555 1_555
C25_6 C24_6 1_555 1_555
C28_6 C25_6 1_555 1_555
C29_6 C28_6 1_555 1_555
H17_6 C29_6 1_555 1_555
C30_6 C29_6 1_555 1_555
H18_6 C30_6 1_555 1_555
C31_6 C30_6 1_555 1_555
H19_6 C31_6 1_555 1_555
C32_6 C31_6 1_555 1_555
C33_6 C28_6 1_555 1_555
O7_6 C21_6 1_555 1_555
C32_6 C33_6 1_555 1_555
H3_6 C6_6 1_555 1_555
H4_6 C7_6 1_555 1_555
C15_6 C14_6 1_555 1_555
C16_6 C15_6 1_555 1_555
H10_6 C16_6 1_555 1_555
C17_6 C16_6 1_555 1_555
C18_6 C17_6 1_555 1_555
H11_6 C18_6 1_555 1_555
C19_6 C14_6 1_555 1_555
H12_6 C19_6 1_555 1_555
C20_6 C17_6 1_555 1_555
O14 C20_6 1_555 1_555
O17 C20_6 1_555 1_555
O5_11 Zn5_3 1_555 1_555
Zn5_3 O1_6 1_555 1_555
Zn10_4 O5_11 1_555 1_555
C6_6 C7_6 1_555 1_555
C18_6 C19_6 1_555 1_555
Zn10_5 O5_12 1_555 1_555
C41_6 C42_6 1_555 1_555
C42_6 C43_6 1_555 1_555
C43_6 H25_6 1_555 1_555
C44_6 C43_6 1_555 1_555
H26_6 C44_6 1_555 1_555
C45_6 C44_6 1_555 1_555
C46_6 C45_6 1_555 1_555
H27_6 C46_6 1_555 1_555
C47_6 C42_6 1_555 1_555
H28_6 C47_6 1_555 1_555
C48_6 C45_6 1_555 1_555
C49_6 C48_6 1_555 1_555
H29_6 C49_6 1_555 1_555
C50_6 C49_6 1_555 1_555
H30_6 C50_6 1_555 1_555
C51_6 C50_6 1_555 1_555
H31_6 C51_6 1_555 1_555
C52_6 C51_6 1_555 1_555
C53_6 C48_6 1_555 1_555
H32_6 C53_6 1_555 1_555
C54_6 C52_6 1_555 1_555
C55_6 C54_6 1_555 1_555
H33_6 C55_6 1_555 1_555
C56_6 C55_6 1_555 1_555
H34_6 C56_6 1_555 1_555
C57_6 C56_6 1_555 1_555
C58_6 C57_6 1_555 1_555
H35_6 C58_6 1_555 1_555
C59_6 C54_6 1_555 1_555
H36_6 C59_6 1_555 1_555
C60_6 C57_6 1_555 1_555
O10_6 C41_6 1_555 1_555
O16 C60_6 1_555 1_555
O19 C60_6 1_555 1_555
Zn7_3 O5_12 1_555 1_555
C41_6 O11_6 1_555 1_555
C46_6 C47_6 1_555 1_555
C52_6 C53_6 1_555 1_555
C58_6 C59_6 1_555 1_555
O10_6 Zn7_3 1_555 1_555
Zn11 O20 1_555 1_555
O20 C61 1_555 1_555
O21 Zn11 1_555 1_555
O22 Zn11 1_555 1_555
O23 Zn11 1_555 1_555
C61 C63 1_555 1_555
Zn12 O21 1_555 1_555
C63 C65 1_555 1_555
O24 C61 1_555 1_555
C65 H37 1_555 1_555
C66 C63 1_555 1_555
C69 C65 1_555 1_555
C70 C66 1_555 1_555
H38 C66 1_555 1_555
H39 C67 1_555 1_555
C71 C67 1_555 1_555
H41 C69 1_555 1_555
C73 C69 1_555 1_555
H42 C70 1_555 1_555
H43 C71 1_555 1_555
C75 C73 1_555 1_555
C77 C75 1_555 1_555
C78 C75 1_555 1_555
H45 C77 1_555 1_555
C80 C77 1_555 1_555
H46 C78 1_555 1_555
H48 C80 1_555 1_555
C89 C78 1_555 1_555
C93 C80 1_555 1_555
C94 C89 1_555 1_555
H55 C93 1_555 1_555
C99 C94 1_555 1_555
C100 C94 1_555 1_555
C103 C98 1_555 1_555
C104 C98 1_555 1_555
H59 C99 1_555 1_555
C105 C99 1_555 1_555
C106 C100 1_555 1_555
H60 C100 1_555 1_555
C109 C103 1_555 1_555
C110 C104 1_555 1_555
H63 C104 1_555 1_555
H64 C105 1_555 1_555
C111 C105 1_555 1_555
H65 C106 1_555 1_555
C114 C109 1_555 1_555
H67 C109 1_555 1_555
H68 C110 1_555 1_555
C115 C111 1_555 1_555
C118 C114 1_555 1_555
O33 C115 1_555 1_555
O34 C115 1_555 1_555
O35 C118 1_555 1_555
Zn15 O33 1_555 1_555
Zn16 O34 1_555 1_555
Zn17 O35 1_555 1_555
Zn12 O24 1_555 1_555
C70 C73 1_555 1_555
C89 C93 1_555 1_555
C106 C111 1_555 1_555
C110 C114 1_555 1_555
Zn18 O36 1_555 1_555
Zn12_2 O21_2 1_555 1_555
C64 C62 1_555 1_555
C68 C64 1_555 1_555
C72 C68 1_555 1_555
H40 C68 1_555 1_555
H44 C72 1_555 1_555
C76 C74 1_555 1_555
C79 C76 1_555 1_555
H47 C79 1_555 1_555
O26 Zn12_2 1_555 1_555
O32 C62 1_555 1_555
C88 C76 1_555 1_555
C91 C88 1_555 1_555
C92 C79 1_555 1_555
C97 C91 1_555 1_555
H54 C92 1_555 1_555
C102 C96 1_555 1_555
H57 C96 1_555 1_555
H58 C97 1_555 1_555
C108 C102 1_555 1_555
C112 C108 1_555 1_555
C113 C108 1_555 1_555
H69 C112 1_555 1_555
C116 C112 1_555 1_555
C117 C113 1_555 1_555
H70 C113 1_555 1_555
H71 C116 1_555 1_555
C119 C116 1_555 1_555
H72 C117 1_555 1_555
C120 C119 1_555 1_555
O37 C120 1_555 1_555
O38 C120 1_555 1_555
Zn19 O37 1_555 1_555
Zn15 O38 1_555 1_555
C72 C74 1_555 1_555
C92 C97 1_555 1_555
C117 C119 1_555 1_555
Zn12_3 O21_3 1_555 1_555
Zn13 O21_3 1_555 1_555
O27 Zn13 1_555 1_555
O28 Zn13 1_555 1_555
Zn12_4 O21_4 1_555 1_555
Zn14 O21_4 1_555 1_555
O25 Zn12_4 1_555 1_555
O30 Zn14 1_555 1_555
O31 Zn14 1_555 1_555
C82 C81 1_555 1_555
C83 C82 1_555 1_555
C84 C82 1_555 1_555
H49 C83 1_555 1_555
C85 C83 1_555 1_555
C86 C84 1_555 1_555
H51 C85 1_555 1_555
C87 C85 1_555 1_555
H52 C86 1_555 1_555
C90 C87 1_555 1_555
C95 C90 1_555 1_555
H56 C95 1_555 1_555
C101 C95 1_555 1_555
H61 C101 1_555 1_555
C107 C101 1_555 1_555
H66 C107 1_555 1_555
O30 C81 1_555 1_555
C86 C87 1_555 1_555
C64_2 C62_2 1_555 1_555
C68_2 C64_2 1_555 1_555
C72_2 C68_2 1_555 1_555
H40_2 C68_2 1_555 1_555
H44_2 C72_2 1_555 1_555
C76_2 C74_2 1_555 1_555
C79_2 C76_2 1_555 1_555
H47_2 C79_2 1_555 1_555
O23 C62_2 1_555 1_555
C88_2 C76_2 1_555 1_555
C91_2 C88_2 1_555 1_555
C92_2 C79_2 1_555 1_555
C97_2 C91_2 1_555 1_555
H54_2 C92_2 1_555 1_555
H58_2 C97_2 1_555 1_555
C72_2 C74_2 1_555 1_555
C92_2 C97_2 1_555 1_555
O27 C61_2 1_555 1_555
C61_2 C63_2 1_555 1_555
C63_2 C65_2 1_555 1_555
C65_2 H37_2 1_555 1_555
C66_2 C63_2 1_555 1_555
C69_2 C65_2 1_555 1_555
C70_2 C66_2 1_555 1_555
H39_2 C67_2 1_555 1_555
C71_2 C67_2 1_555 1_555
H41_2 C69_2 1_555 1_555
C73_2 C69_2 1_555 1_555
H42_2 C70_2 1_555 1_555
H43_2 C71_2 1_555 1_555
C75_2 C73_2 1_555 1_555
C77_2 C75_2 1_555 1_555
H45_2 C77_2 1_555 1_555
C80_2 C77_2 1_555 1_555
H48_2 C80_2 1_555 1_555
C93_2 C80_2 1_555 1_555
H55_2 C93_2 1_555 1_555
C103_2 C98_2 1_555 1_555
C104_2 C98_2 1_555 1_555
C109_2 C103_2 1_555 1_555
C110_2 C104_2 1_555 1_555
H63_2 C104_2 1_555 1_555
C114_2 C109_2 1_555 1_555
H67_2 C109_2 1_555 1_555
H68_2 C110_2 1_555 1_555
C118_2 C114_2 1_555 1_555
O35_2 C118_2 1_555 1_555
Zn17 O35_2 1_555 1_555
C70_2 C73_2 1_555 1_555
C110_2 C114_2 1_555 1_555
Zn18_2 O36_2 1_555 1_555
H46_2 C78_2 1_555 1_555
C89_2 C78_2 1_555 1_555
C94_2 C89_2 1_555 1_555
C99_2 C94_2 1_555 1_555
C100_2 C94_2 1_555 1_555
H59_2 C99_2 1_555 1_555
C105_2 C99_2 1_555 1_555
C106_2 C100_2 1_555 1_555
H60_2 C100_2 1_555 1_555
H64_2 C105_2 1_555 1_555
C111_2 C105_2 1_555 1_555
H65_2 C106_2 1_555 1_555
C115_2 C111_2 1_555 1_555
O33_2 C115_2 1_555 1_555
O34_2 C115_2 1_555 1_555
Zn16 O33_2 1_555 1_555
Zn19 O34_2 1_555 1_555
C106_2 C111_2 1_555 1_555
C62_3 O31 1_555 1_555
C64_3 C62_3 1_555 1_555
C67_3 C64_3 1_555 1_555
C68_3 C64_3 1_555 1_555
H39_3 C67_3 1_555 1_555
C71_3 C67_3 1_555 1_555
C72_3 C68_3 1_555 1_555
H40_3 C68_3 1_555 1_555
C74_3 C71_3 1_555 1_555
H43_3 C71_3 1_555 1_555
H44_3 C72_3 1_555 1_555
C76_3 C74_3 1_555 1_555
C79_3 C76_3 1_555 1_555
H47_3 C79_3 1_555 1_555
O29 C62_3 1_555 1_555
C88_3 C76_3 1_555 1_555
C91_3 C88_3 1_555 1_555
H53_3 C88_3 1_555 1_555
C92_3 C79_3 1_555 1_555
C97_3 C91_3 1_555 1_555
C98_3 C91_3 1_555 1_555
H54_3 C92_3 1_555 1_555
H58_3 C97_3 1_555 1_555
C103_3 C98_3 1_555 1_555
C104_3 C98_3 1_555 1_555
H62_3 C103_3 1_555 1_555
C109_3 C103_3 1_555 1_555
C110_3 C104_3 1_555 1_555
H63_3 C104_3 1_555 1_555
C114_3 C109_3 1_555 1_555
H67_3 C109_3 1_555 1_555
H68_3 C110_3 1_555 1_555
C118_3 C114_3 1_555 1_555
O35_3 C118_3 1_555 1_555
Zn17 O35_3 1_555 1_555
C72_3 C74_3 1_555 1_555
C92_3 C97_3 1_555 1_555
C110_3 C114_3 1_555 1_555
Zn18_3 O36_3 1_555 1_555
Zn12_5 O21_5 1_555 1_555
Zn14_2 O21_5 1_555 1_555
O25_2 Zn12_5 1_555 1_555
O30_2 Zn14_2 1_555 1_555
O31_2 Zn14_2 1_555 1_555
C82_2 C81_2 1_555 1_555
C83_2 C82_2 1_555 1_555
C84_2 C82_2 1_555 1_555
H49_2 C83_2 1_555 1_555
C85_2 C83_2 1_555 1_555
C86_2 C84_2 1_555 1_555
H51_2 C85_2 1_555 1_555
C87_2 C85_2 1_555 1_555
H52_2 C86_2 1_555 1_555
C90_2 C87_2 1_555 1_555
C95_2 C90_2 1_555 1_555
H56_2 C95_2 1_555 1_555
C101_2 C95_2 1_555 1_555
H61_2 C101_2 1_555 1_555
C107_2 C101_2 1_555 1_555
H66_2 C107_2 1_555 1_555
O30_2 C81_2 1_555 1_555
C86_2 C87_2 1_555 1_555
Zn12_6 O21_6 1_555 1_555
C64_4 C62_4 1_555 1_555
C68_4 C64_4 1_555 1_555
C72_4 C68_4 1_555 1_555
H40_4 C68_4 1_555 1_555
H44_4 C72_4 1_555 1_555
C76_4 C74_4 1_555 1_555
C79_4 C76_4 1_555 1_555
H47_4 C79_4 1_555 1_555
O26_2 Zn12_6 1_555 1_555
O32_2 C62_4 1_555 1_555
C88_4 C76_4 1_555 1_555
C91_4 C88_4 1_555 1_555
C92_4 C79_4 1_555 1_555
C97_4 C91_4 1_555 1_555
H54_4 C92_4 1_555 1_555
C102_2 C96_2 1_555 1_555
H57_2 C96_2 1_555 1_555
H58_4 C97_4 1_555 1_555
C108_2 C102_2 1_555 1_555
C112_2 C108_2 1_555 1_555
C113_2 C108_2 1_555 1_555
H69_2 C112_2 1_555 1_555
C116_2 C112_2 1_555 1_555
C117_2 C113_2 1_555 1_555
H70_2 C113_2 1_555 1_555
H71_2 C116_2 1_555 1_555
C119_2 C116_2 1_555 1_555
H72_2 C117_2 1_555 1_555
C120_2 C119_2 1_555 1_555
O37_2 C120_2 1_555 1_555
O38_2 C120_2 1_555 1_555
Zn19_2 O37_2 1_555 1_555
Zn20 O38_2 1_555 1_555
C72_4 C74_4 1_555 1_555
C92_4 C97_4 1_555 1_555
C117_2 C119_2 1_555 1_555
Zn12_7 O21_7 1_555 1_555
Zn13_2 O21_7 1_555 1_555
O27_2 Zn13_2 1_555 1_555
O28_2 Zn13_2 1_555 1_555
Zn11_2 O20_2 1_555 1_555
O20_2 C61_3 1_555 1_555
O21_8 Zn11_2 1_555 1_555
O22_2 Zn11_2 1_555 1_555
O23_2 Zn11_2 1_555 1_555
C61_3 C63_3 1_555 1_555
Zn12_8 O21_8 1_555 1_555
C63_3 C65_3 1_555 1_555
O24_2 C61_3 1_555 1_555
C65_3 H37_3 1_555 1_555
C66_3 C63_3 1_555 1_555
C69_3 C65_3 1_555 1_555
C70_3 C66_3 1_555 1_555
H38_3 C66_3 1_555 1_555
H39_4 C67_4 1_555 1_555
C71_4 C67_4 1_555 1_555
H41_3 C69_3 1_555 1_555
C73_3 C69_3 1_555 1_555
H42_3 C70_3 1_555 1_555
H43_4 C71_4 1_555 1_555
C75_3 C73_3 1_555 1_555
C77_3 C75_3 1_555 1_555
C78_3 C75_3 1_555 1_555
H45_3 C77_3 1_555 1_555
C80_3 C77_3 1_555 1_555
H46_3 C78_3 1_555 1_555
H48_3 C80_3 1_555 1_555
C89_3 C78_3 1_555 1_555
C93_3 C80_3 1_555 1_555
C94_3 C89_3 1_555 1_555
H55_3 C93_3 1_555 1_555
C99_3 C94_3 1_555 1_555
C100_3 C94_3 1_555 1_555
C103_4 C98_4 1_555 1_555
C104_4 C98_4 1_555 1_555
H59_3 C99_3 1_555 1_555
C105_3 C99_3 1_555 1_555
C106_3 C100_3 1_555 1_555
H60_3 C100_3 1_555 1_555
C109_4 C103_4 1_555 1_555
C110_4 C104_4 1_555 1_555
H63_4 C104_4 1_555 1_555
H64_3 C105_3 1_555 1_555
C111_3 C105_3 1_555 1_555
H65_3 C106_3 1_555 1_555
C114_4 C109_4 1_555 1_555
H67_4 C109_4 1_555 1_555
H68_4 C110_4 1_555 1_555
C115_3 C111_3 1_555 1_555
C118_4 C114_4 1_555 1_555
O33_3 C115_3 1_555 1_555
O34_3 C115_3 1_555 1_555
O35_4 C118_4 1_555 1_555
O36_4 C118_4 1_555 1_555
Zn20 O33_3 1_555 1_555
Zn16_2 O34_3 1_555 1_555
Zn17_2 O35_4 1_555 1_555
Zn18_4 O36_4 1_555 1_555
Zn12_8 O24_2 1_555 1_555
C70_3 C73_3 1_555 1_555
C89_3 C93_3 1_555 1_555
C106_3 C111_3 1_555 1_555
C110_4 C114_4 1_555 1_555
H46_4 C78_4 1_555 1_555
C89_4 C78_4 1_555 1_555
C94_4 C89_4 1_555 1_555
C99_4 C94_4 1_555 1_555
C100_4 C94_4 1_555 1_555
H59_4 C99_4 1_555 1_555
C105_4 C99_4 1_555 1_555
C106_4 C100_4 1_555 1_555
H60_4 C100_4 1_555 1_555
H64_4 C105_4 1_555 1_555
C111_4 C105_4 1_555 1_555
H65_4 C106_4 1_555 1_555
C115_4 C111_4 1_555 1_555
O33_4 C115_4 1_555 1_555
O34_4 C115_4 1_555 1_555
Zn16_2 O33_4 1_555 1_555
Zn19_2 O34_4 1_555 1_555
C106_4 C111_4 1_555 1_555
O27_2 C61_4 1_555 1_555
C61_4 C63_4 1_555 1_555
C63_4 C65_4 1_555 1_555
C65_4 H37_4 1_555 1_555
C66_4 C63_4 1_555 1_555
C69_4 C65_4 1_555 1_555
C70_4 C66_4 1_555 1_555
H39_5 C67_5 1_555 1_555
C71_5 C67_5 1_555 1_555
H41_4 C69_4 1_555 1_555
C73_4 C69_4 1_555 1_555
H42_4 C70_4 1_555 1_555
H43_5 C71_5 1_555 1_555
C75_4 C73_4 1_555 1_555
C77_4 C75_4 1_555 1_555
H45_4 C77_4 1_555 1_555
C80_4 C77_4 1_555 1_555
H48_4 C80_4 1_555 1_555
C93_4 C80_4 1_555 1_555
H55_4 C93_4 1_555 1_555
C103_5 C98_5 1_555 1_555
C104_5 C98_5 1_555 1_555
C109_5 C103_5 1_555 1_555
C110_5 C104_5 1_555 1_555
H63_5 C104_5 1_555 1_555
C114_5 C109_5 1_555 1_555
H67_5 C109_5 1_555 1_555
H68_5 C110_5 1_555 1_555
C118_5 C114_5 1_555 1_555
O35_5 C118_5 1_555 1_555
O36_5 C118_5 1_555 1_555
Zn17_2 O35_5 1_555 1_555
Zn18_5 O36_5 1_555 1_555
C70_4 C73_4 1_555 1_555
C110_5 C114_5 1_555 1_555
C64_5 C62_5 1_555 1_555
C68_5 C64_5 1_555 1_555
C72_5 C68_5 1_555 1_555
H40_5 C68_5 1_555 1_555
H44_5 C72_5 1_555 1_555
C76_5 C74_5 1_555 1_555
C79_5 C76_5 1_555 1_555
H47_5 C79_5 1_555 1_555
O23_2 C62_5 1_555 1_555
C88_5 C76_5 1_555 1_555
C91_5 C88_5 1_555 1_555
C92_5 C79_5 1_555 1_555
C97_5 C91_5 1_555 1_555
H54_5 C92_5 1_555 1_555
H58_5 C97_5 1_555 1_555
C72_5 C74_5 1_555 1_555
C92_5 C97_5 1_555 1_555
C62_6 O31_2 1_555 1_555
C64_6 C62_6 1_555 1_555
C67_6 C64_6 1_555 1_555
C68_6 C64_6 1_555 1_555
H39_6 C67_6 1_555 1_555
C71_6 C67_6 1_555 1_555
C72_6 C68_6 1_555 1_555
H40_6 C68_6 1_555 1_555
C74_6 C71_6 1_555 1_555
H43_6 C71_6 1_555 1_555
H44_6 C72_6 1_555 1_555
C76_6 C74_6 1_555 1_555
C79_6 C76_6 1_555 1_555
H47_6 C79_6 1_555 1_555
O29_2 C62_6 1_555 1_555
C88_6 C76_6 1_555 1_555
C91_6 C88_6 1_555 1_555
H53_6 C88_6 1_555 1_555
C92_6 C79_6 1_555 1_555
C97_6 C91_6 1_555 1_555
C98_6 C91_6 1_555 1_555
H54_6 C92_6 1_555 1_555
H58_6 C97_6 1_555 1_555
C103_6 C98_6 1_555 1_555
C104_6 C98_6 1_555 1_555
H62_6 C103_6 1_555 1_555
C109_6 C103_6 1_555 1_555
C110_6 C104_6 1_555 1_555
H63_6 C104_6 1_555 1_555
C114_6 C109_6 1_555 1_555
H67_6 C109_6 1_555 1_555
H68_6 C110_6 1_555 1_555
C118_6 C114_6 1_555 1_555
O35_6 C118_6 1_555 1_555
O36_6 C118_6 1_555 1_555
Zn17_2 O35_6 1_555 1_555
Zn18_6 O36_6 1_555 1_555
C72_6 C74_6 1_555 1_555
C92_6 C97_6 1_555 1_555
C110_6 C114_6 1_555 1_555
C98_7 C91_7 1_555 1_555
C103_7 C98_7 1_555 1_555
C104_7 C98_7 1_555 1_555
H62_7 C103_7 1_555 1_555
C109_7 C103_7 1_555 1_555
C110_7 C104_7 1_555 1_555
H63_7 C104_7 1_555 1_555
C114_7 C109_7 1_555 1_555
H67_7 C109_7 1_555 1_555
H68_7 C110_7 1_555 1_555
C118_7 C114_7 1_555 1_555
O35_7 C118_7 1_555 1_555
O36_7 C118_7 1_555 1_555
Zn17_3 O35_7 1_555 1_555
Zn15 O36_7 1_555 1_555
C110_7 C114_7 1_555 1_555
O21_9 Zn18_4 1_555 1_555
O22_3 Zn18_4 1_555 1_555
O23_3 Zn18_4 1_555 1_555
Zn17_2 O21_9 1_555 1_555
C62_7 O22_3 1_555 1_555
C64_7 C62_7 1_555 1_555
C67_7 C64_7 1_555 1_555
C68_7 C64_7 1_555 1_555
H39_7 C67_7 1_555 1_555
C71_7 C67_7 1_555 1_555
C72_7 C68_7 1_555 1_555
H40_7 C68_7 1_555 1_555
C74_7 C71_7 1_555 1_555
H43_7 C71_7 1_555 1_555
H44_7 C72_7 1_555 1_555
C76_7 C74_7 1_555 1_555
C79_7 C76_7 1_555 1_555
H47_7 C79_7 1_555 1_555
Zn18_6 O21_9 1_555 1_555
Zn18_5 O21_9 1_555 1_555
O28_3 Zn18_6 1_555 1_555
O29_3 Zn18_6 1_555 1_555
O31_3 Zn18_5 1_555 1_555
O32_3 C62_7 1_555 1_555
C88_7 C76_7 1_555 1_555
H53_7 C88_7 1_555 1_555
C92_7 C79_7 1_555 1_555
H54_7 C92_7 1_555 1_555
C72_7 C74_7 1_555 1_555
Zn18_5 O32_3 1_555 1_555
C92_7 C97_7 1_555 1_555
C62_8 O28_3 1_555 1_555
C64_8 C62_8 1_555 1_555
C67_8 C64_8 1_555 1_555
C68_8 C64_8 1_555 1_555
H39_8 C67_8 1_555 1_555
C71_8 C67_8 1_555 1_555
C72_8 C68_8 1_555 1_555
H40_8 C68_8 1_555 1_555
C74_8 C71_8 1_555 1_555
H43_8 C71_8 1_555 1_555
H44_8 C72_8 1_555 1_555
C76_8 C74_8 1_555 1_555
C79_8 C76_8 1_555 1_555
H47_8 C79_8 1_555 1_555
O23_3 C62_8 1_555 1_555
C88_8 C76_8 1_555 1_555
C91_8 C88_8 1_555 1_555
H53_8 C88_8 1_555 1_555
C92_8 C79_8 1_555 1_555
C97_8 C91_8 1_555 1_555
C98_8 C91_8 1_555 1_555
H54_8 C92_8 1_555 1_555
H58_8 C97_8 1_555 1_555
C103_8 C98_8 1_555 1_555
C104_8 C98_8 1_555 1_555
H62_8 C103_8 1_555 1_555
C109_8 C103_8 1_555 1_555
C110_8 C104_8 1_555 1_555
H63_8 C104_8 1_555 1_555
C114_8 C109_8 1_555 1_555
H67_8 C109_8 1_555 1_555
H68_8 C110_8 1_555 1_555
C118_8 C114_8 1_555 1_555
O35_8 C118_8 1_555 1_555
O36_8 C118_8 1_555 1_555
Zn17_3 O35_8 1_555 1_555
Zn16 O36_8 1_555 1_555
C72_8 C74_8 1_555 1_555
C92_8 C97_8 1_555 1_555
C110_8 C114_8 1_555 1_555
C62_9 O31_3 1_555 1_555
C64_9 C62_9 1_555 1_555
C67_9 C64_9 1_555 1_555
C68_9 C64_9 1_555 1_555
H39_9 C67_9 1_555 1_555
C71_9 C67_9 1_555 1_555
C72_9 C68_9 1_555 1_555
H40_9 C68_9 1_555 1_555
C74_9 C71_9 1_555 1_555
H43_9 C71_9 1_555 1_555
H44_9 C72_9 1_555 1_555
C76_9 C74_9 1_555 1_555
C79_9 C76_9 1_555 1_555
H47_9 C79_9 1_555 1_555
O29_3 C62_9 1_555 1_555
C88_9 C76_9 1_555 1_555
H53_9 C88_9 1_555 1_555
C92_9 C79_9 1_555 1_555
H54_9 C92_9 1_555 1_555
C72_9 C74_9 1_555 1_555
C92_9 C97_9 1_555 1_555
C98_9 C91_9 1_555 1_555
C103_9 C98_9 1_555 1_555
C104_9 C98_9 1_555 1_555
H62_9 C103_9 1_555 1_555
C109_9 C103_9 1_555 1_555
C110_9 C104_9 1_555 1_555
H63_9 C104_9 1_555 1_555
C114_9 C109_9 1_555 1_555
H67_9 C109_9 1_555 1_555
H68_9 C110_9 1_555 1_555
C118_9 C114_9 1_555 1_555
O35_9 C118_9 1_555 1_555
O36_9 C118_9 1_555 1_555
Zn17_3 O35_9 1_555 1_555
Zn19 O36_9 1_555 1_555
C110_9 C114_9 1_555 1_555
O21_10 Zn18 1_555 1_555
O22_4 Zn18 1_555 1_555
O23_4 Zn18 1_555 1_555
C62_10 O22_4 1_555 1_555
C64_10 C62_10 1_555 1_555
C67_10 C64_10 1_555 1_555
C68_10 C64_10 1_555 1_555
H39_10 C67_10 1_555 1_555
C71_10 C67_10 1_555 1_555
C72_10 C68_10 1_555 1_555
H40_10 C68_10 1_555 1_555
C74_10 C71_10 1_555 1_555
H43_10 C71_10 1_555 1_555
H44_10 C72_10 1_555 1_555
C76_10 C74_10 1_555 1_555
C79_10 C76_10 1_555 1_555
H47_10 C79_10 1_555 1_555
Zn18_3 O21_10 1_555 1_555
Zn18_2 O21_10 1_555 1_555
O28_4 Zn18_3 1_555 1_555
O29_4 Zn18_3 1_555 1_555
O31_4 Zn18_2 1_555 1_555
O32_4 C62_10 1_555 1_555
C88_10 C76_10 1_555 1_555
H53_10 C88_10 1_555 1_555
C92_10 C79_10 1_555 1_555
H54_10 C92_10 1_555 1_555
C72_10 C74_10 1_555 1_555
Zn18_2 O32_4 1_555 1_555
C92_10 C97_10 1_555 1_555
C98_10 C91_10 1_555 1_555
C103_10 C98_10 1_555 1_555
C104_10 C98_10 1_555 1_555
H62_10 C103_10 1_555 1_555
C109_10 C103_10 1_555 1_555
C110_10 C104_10 1_555 1_555
H63_10 C104_10 1_555 1_555
C114_10 C109_10 1_555 1_555
H67_10 C109_10 1_555 1_555
H68_10 C110_10 1_555 1_555
C118_10 C114_10 1_555 1_555
O35_10 C118_10 1_555 1_555
O36_10 C118_10 1_555 1_555
Zn17_4 O35_10 1_555 1_555
Zn20 O36_10 1_555 1_555
C110_10 C114_10 1_555 1_555
C62_11 O28_4 1_555 1_555
C64_11 C62_11 1_555 1_555
C67_11 C64_11 1_555 1_555
C68_11 C64_11 1_555 1_555
H39_11 C67_11 1_555 1_555
C71_11 C67_11 1_555 1_555
C72_11 C68_11 1_555 1_555
H40_11 C68_11 1_555 1_555
C74_11 C71_11 1_555 1_555
H43_11 C71_11 1_555 1_555
H44_11 C72_11 1_555 1_555
C76_11 C74_11 1_555 1_555
C79_11 C76_11 1_555 1_555
H47_11 C79_11 1_555 1_555
O23_4 C62_11 1_555 1_555
C88_11 C76_11 1_555 1_555
C91_11 C88_11 1_555 1_555
H53_11 C88_11 1_555 1_555
C92_11 C79_11 1_555 1_555
C97_11 C91_11 1_555 1_555
C98_11 C91_11 1_555 1_555
H54_11 C92_11 1_555 1_555
H58_11 C97_11 1_555 1_555
C103_11 C98_11 1_555 1_555
C104_11 C98_11 1_555 1_555
H62_11 C103_11 1_555 1_555
C109_11 C103_11 1_555 1_555
C110_11 C104_11 1_555 1_555
H63_11 C104_11 1_555 1_555
C114_11 C109_11 1_555 1_555
H67_11 C109_11 1_555 1_555
H68_11 C110_11 1_555 1_555
C118_11 C114_11 1_555 1_555
O35_11 C118_11 1_555 1_555
O36_11 C118_11 1_555 1_555
Zn17_4 O35_11 1_555 1_555
Zn16_2 O36_11 1_555 1_555
C72_11 C74_11 1_555 1_555
C92_11 C97_11 1_555 1_555
C110_11 C114_11 1_555 1_555
C98_12 C91_12 1_555 1_555
C103_12 C98_12 1_555 1_555
C104_12 C98_12 1_555 1_555
H62_12 C103_12 1_555 1_555
C109_12 C103_12 1_555 1_555
C110_12 C104_12 1_555 1_555
H63_12 C104_12 1_555 1_555
C114_12 C109_12 1_555 1_555
H67_12 C109_12 1_555 1_555
H68_12 C110_12 1_555 1_555
C118_12 C114_12 1_555 1_555
O35_12 C118_12 1_555 1_555
O36_12 C118_12 1_555 1_555
Zn17_4 O35_12 1_555 1_555
Zn19_2 O36_12 1_555 1_555
C110_12 C114_12 1_555 1_555
C62_12 O31_4 1_555 1_555
C64_12 C62_12 1_555 1_555
C67_12 C64_12 1_555 1_555
C68_12 C64_12 1_555 1_555
H39_12 C67_12 1_555 1_555
C71_12 C67_12 1_555 1_555
C72_12 C68_12 1_555 1_555
H40_12 C68_12 1_555 1_555
C74_12 C71_12 1_555 1_555
H43_12 C71_12 1_555 1_555
H44_12 C72_12 1_555 1_555
C76_12 C74_12 1_555 1_555
C79_12 C76_12 1_555 1_555
H47_12 C79_12 1_555 1_555
O29_4 C62_12 1_555 1_555
C88_12 C76_12 1_555 1_555
H53_12 C88_12 1_555 1_555
C92_12 C79_12 1_555 1_555
H54_12 C92_12 1_555 1_555
C72_12 C74_12 1_555 1_555
C92_12 C97_12 1_555 1_555
O21_11 Zn20 1_555 1_555
Zn17_4 O21_11 1_555 1_555
Zn19_2 O21_11 1_555 1_555
Zn16_2 O21_11 1_555 1_555
O21_12 Zn15 1_555 1_555
Zn17_3 O21_12 1_555 1_555
Zn19 O21_12 1_555 1_555
Zn16 O21_12 1_555 1_555

#END
