
###############################################################################
#
# This file contains modified crystal structure data generated from the
# MOF subset of the Cambridge Structural Database (CSD) v543 
# hosted by the Cambridge Crystallographic Data Centre (CCDC).
#
# This work is licensed under the Creative Commons
# Attribution-NonCommercial-ShareAlike 4.0 International License.
# To view a copy of this license, visit
# http://creativecommons.org/licenses/by-nc-sa/4.0/
# or send a letter to
# Creative Commons, PO Box 1866, Mountain View, CA 94042, USA.
#
# CIF created using the CSD Python API on 29 September 2022
# The structure has been converted into the P1 space group
# The structure has a 3D framework
# The original CSD entry DUPKIK is in the rhombohedral crystal system
# The framework has been calculated to contain at least 10.0% void space
# The void calculation uses a probe of radius 1.32A, grid spacing 0.4
# The framework is charged, counterions have been retained in the structure
#
###############################################################################

data_DUPKIK
_chemical_formula_moiety         '(C346 H202 In22 N22 O76 4+)n'
_symmetry_cell_setting           triclinic
_symmetry_space_group_name_H-M   'P 1'
_symmetry_Int_Tables_number      1
_space_group_name_Hall           'P 1'
loop_
_symmetry_equiv_pos_site_id
_symmetry_equiv_pos_as_xyz
1 x,y,z
_cell_length_a                   19.627(3)
_cell_length_b                   19.627(3)
_cell_length_c                   45.856(9)
_cell_angle_alpha                90
_cell_angle_beta                 90
_cell_angle_gamma                120
_cell_volume                     15298
loop_
_atom_site_label
_atom_site_type_symbol
_atom_site_fract_x
_atom_site_fract_y
_atom_site_fract_z
O10 O 0.25202(11) 0.51417(8) 0.45315(3)
O11 O 0.17967(12) 0.57259(9) 0.44828(3)
C40 C 0.00744(19) 0.37085(15) 0.56121(5)
C41 C 0.02357(15) 0.3333 0.5833
H24 H 0.0709 0.3333 0.5833
C42 C 0.06186(21) 0.41287(16) 0.53665(5)
C43 C 0.06888(22) 0.48402(17) 0.52702(6)
H25 H 0.0434 0.5062 0.5370
C44 C 0.11368(22) 0.52082(16) 0.50273(6)
H26 H 0.1173 0.5672 0.4960
C45 C 0.15376(18) 0.48874(14) 0.48814(5)
C46 C 0.15609(24) 0.4280(2) 0.50090(7)
H27 H 0.1889 0.4108 0.4934
C47 C 0.11020(25) 0.3909(2) 0.52505(7)
H28 H 0.1131 0.3493 0.5335
C48 C 0.19909(16) 0.52813(12) 0.46111(4)
O12 O 0.07118(8) 0.15250(8) 0.71352(3)
C55 C 0.06142(14) 0.2387(2) 0.66577(7)
H32 H 0.1114 0.2559 0.6733
C56 C 0.05263(15) 0.2758(2) 0.64162(7)
H33 H 0.0971 0.3174 0.6332
C57 C 0.00429(11) 0.13854(12) 0.70556(4)
In5 In 0.3333 0.563293(8) 0.4167
In9 In 0.229993(8) 0.6667 0.4167
In11 In -0.0000 0.896626(8) 0.7500
In13 In 0.103374(8) 0.103340(8) 0.7500
In15 In 0.896660(8) 0.0000 0.7500
In1 In 0.6667 0.436707(8) 0.5833
O1 O 0.48583(8) 0.73785(8) 0.45315(3)
O2 O 0.42741(9) 0.60708(8) 0.44828(3)
O3 O 0.6667 0.3333 0.5833
N1 N 0.6667 0.54997(10) 0.5833
C1 C 0.63195(13) 0.56734(11) 0.56198(4)
H1 H 0.6085 0.5314 0.5469
C2 C 0.62915(15) 0.63659(12) 0.56121(5)
C3 C 0.6667 0.69027(15) 0.5833
H2 H 0.6667 0.7376 0.5833
C4 C 0.58713(16) 0.64899(13) 0.53665(5)
C5 C 0.51598(17) 0.58486(14) 0.52702(6)
H3 H 0.4938 0.5372 0.5370
C6 C 0.47918(16) 0.59286(15) 0.50273(6)
H4 H 0.4328 0.5501 0.4960
C7 C 0.51126(14) 0.66502(12) 0.48814(5)
C8 C 0.5720(2) 0.72809(14) 0.50090(7)
H5 H 0.5892 0.7781 0.4934
C9 C 0.6091(2) 0.71930(15) 0.52505(7)
H6 H 0.6507 0.7638 0.5335
C10 C 0.47187(12) 0.67096(11) 0.46111(4)
O4 O 0.84750(8) 0.91869(11) 0.71352(3)
O5 O 0.90592(9) 0.84634(12) 0.71839(3)
C11 C 0.70138(13) 0.60206(17) 0.60469(4)
H7 H 0.7248 0.5896 0.6198
C12 C 0.70418(15) 0.67411(19) 0.60546(5)
C13 C 0.74620(16) 0.72853(21) 0.63002(5)
C14 C 0.81735(17) 0.73555(22) 0.63965(6)
H8 H 0.8395 0.7101 0.6297
C15 C 0.85415(16) 0.78035(22) 0.66394(6)
H9 H 0.9005 0.7840 0.6707
C16 C 0.82207(14) 0.82043(18) 0.67853(5)
C17 C 0.7613(2) 0.82276(24) 0.66577(7)
H10 H 0.7441 0.8556 0.6733
C18 C 0.7242(2) 0.77687(25) 0.64162(7)
H11 H 0.6826 0.7798 0.6332
C19 C 0.86146(12) 0.86576(16) 0.70556(4)
In2 In 0.563293(8) 0.229993(8) 0.5833
N2 N 0.45003(10) 0.11673(10) 0.5833
C20 C 0.43266(11) 0.06461(17) 0.56198(4)
H12 H 0.4686 0.0771 0.5469
O9 O 0.15366(12) 0.05959(8) 0.71839(3)
C30 C 0.39794(17) 0.09933(11) 0.60469(4)
H18 H 0.4104 0.1353 0.6198
C31 C 0.32589(19) 0.03008(12) 0.60546(5)
C32 C 0.27147(21) 0.01768(13) 0.63002(5)
C33 C 0.26445(22) 0.08181(14) 0.63965(6)
H19 H 0.2899 0.1295 0.6297
C34 C 0.21965(22) 0.07381(15) 0.66394(6)
H20 H 0.2160 0.1166 0.6707
C35 C 0.17957(18) 0.00165(12) 0.67853(5)
In3 In 0.770007(8) 0.3333 0.5833
N3 N 0.88327(10) 0.3333 0.5833
C39 C 0.93539(17) 0.36805(13) 0.56198(4)
H23 H 0.9229 0.3915 0.5469
O13 O 0.94041(8) 0.09408(9) 0.71839(3)
C49 C 0.90067(11) 0.29862(13) 0.60469(4)
H29 H 0.8647 0.2752 0.6198
C50 C 0.96992(12) 0.29582(15) 0.60546(5)
C51 C 0.98232(13) 0.25380(16) 0.63002(5)
C52 C 0.91819(14) 0.18265(17) 0.63965(6)
H30 H 0.8705 0.1605 0.6297
C53 C 0.92619(15) 0.14585(16) 0.66394(6)
H31 H 0.8834 0.0995 0.6707
C54 C 0.99835(12) 0.17793(14) 0.67853(5)
In7 In 0.436707(8) 0.770007(8) 0.4167
In11_2 In 1.0000 0.896626(8) 0.7500
In15_2 In 0.896660(8) 1.0000 0.7500
O14 O 0.51417(8) 0.26215(8) 0.54685(3)
O15 O 0.73785(8) 0.25202(11) 0.54685(3)
O16 O 0.74798(11) 0.48583(8) 0.54685(3)
O17 O 0.59548(8) 0.18084(8) 0.61982(3)
O18 O 0.58535(11) 0.40452(8) 0.61982(3)
O19 O 0.81916(8) 0.41465(11) 0.61982(3)
O20 O 0.57259(9) 0.39292(8) 0.55172(3)
O21 O 0.60708(8) 0.17967(12) 0.55172(3)
O22 O 0.82033(12) 0.42741(9) 0.55172(3)
O23 O 0.72625(8) 0.23926(9) 0.61495(3)
O24 O 0.51300(12) 0.27375(8) 0.61495(3)
O25 O 0.76074(9) 0.48700(12) 0.61495(3)
O6 O 0.26215(8) 0.74798(11) 0.45315(3)
O7 O 0.39292(8) 0.82033(12) 0.44828(3)
C21 C 0.36341(12) 0.99256(19) 0.56121(5)
C22 C 0.30973(15) 0.97643(15) 0.5833
H13 H 0.2624 0.9291 0.5833
C23 C 0.35101(13) 0.93814(21) 0.53665(5)
C24 C 0.41514(14) 0.93112(22) 0.52702(6)
H14 H 0.4628 0.9566 0.5370
C25 C 0.40714(15) 0.88632(22) 0.50273(6)
H15 H 0.4499 0.8827 0.4960
C26 C 0.33498(12) 0.84624(18) 0.48814(5)
C27 C 0.27191(14) 0.84391(24) 0.50090(7)
H16 H 0.2219 0.8111 0.4934
C28 C 0.28070(15) 0.88980(25) 0.52505(7)
H17 H 0.2362 0.8869 0.5335
C29 C 0.32904(11) 0.80091(16) 0.46111(4)
O8 O 0.08131(11) 0.92882(8) 0.71352(3)
C36 C 0.17724(24) 0.93858(14) 0.66577(7)
H21 H 0.1444 0.8886 0.6733
C37 C 0.22313(25) 0.94737(15) 0.64162(7)
H22 H 0.2202 0.9029 0.6332
C38 C 0.13424(16) 0.99571(11) 0.70556(4)
O10_2 O 0.51417(8) 0.25202(11) 0.04685(3)
O11_2 O 0.57259(9) 0.17967(12) 0.05172(3)
H26_2 H 0.5672 0.1173 0.0040
C45_2 C 0.48874(14) 0.15376(18) 0.01186(5)
H27_2 H 0.4108 0.1889 0.0066
C48_2 C 0.52813(12) 0.19909(16) 0.03889(4)
In5_2 In 0.563293(8) 0.3333 0.0833
In9_2 In 0.6667 0.229993(8) 0.0833
C40_2 C 0.37085(15) 0.00744(19) 0.93879(5)
C41_2 C 0.3333 0.02357(15) 0.9167
H24_2 H 0.3333 0.0709 0.9167
C42_2 C 0.41287(16) 0.06186(21) 0.96335(5)
C43_2 C 0.48402(17) 0.06888(22) 0.97298(6)
H25_2 H 0.5062 0.0434 0.9630
C44_2 C 0.52082(16) 0.11368(22) 0.99727(6)
C46_2 C 0.4280(2) 0.15609(24) 0.99910(7)
C47_2 C 0.3909(2) 0.11020(25) 0.97495(7)
H28_2 H 0.3493 0.1131 0.9665
O12_2 O 0.15250(8) 0.07118(8) 0.78648(3)
C55_2 C 0.2387(2) 0.06142(14) 0.83423(7)
H32_2 H 0.2559 0.1114 0.8267
C56_2 C 0.2758(2) 0.05263(15) 0.85838(7)
H33_2 H 0.3174 0.0971 0.8668
C57_2 C 0.13854(12) 0.00429(11) 0.79444(4)
O1_2 O 0.73785(8) 0.48583(8) 0.04685(3)
O2_2 O 0.60708(8) 0.42741(9) 0.05172(3)
H4_2 H 0.5501 0.4328 0.0040
C7_2 C 0.66502(12) 0.51126(14) 0.01186(5)
H5_2 H 0.7781 0.5892 0.0066
C10_2 C 0.67096(11) 0.47187(12) 0.03889(4)
In7_2 In 0.770007(8) 0.436707(8) 0.0833
In1_2 In 0.436707(8) 0.6667 0.9167
O3_2 O 0.3333 0.6667 0.9167
N1_2 N 0.54997(10) 0.6667 0.9167
C1_2 C 0.56734(11) 0.63195(13) 0.93802(4)
H1_2 H 0.5314 0.6085 0.9531
C2_2 C 0.63659(12) 0.62915(15) 0.93879(5)
C3_2 C 0.69027(15) 0.6667 0.9167
H2_2 H 0.7376 0.6667 0.9167
C4_2 C 0.64899(13) 0.58713(16) 0.96335(5)
C5_2 C 0.58486(14) 0.51598(17) 0.97298(6)
H3_2 H 0.5372 0.4938 0.9630
C6_2 C 0.59286(15) 0.47918(16) 0.99727(6)
C8_2 C 0.72809(14) 0.5720(2) 0.99910(7)
C9_2 C 0.71930(15) 0.6091(2) 0.97495(7)
H6_2 H 0.7638 0.6507 0.9665
O4_2 O 0.91869(11) 0.84750(8) 0.78648(3)
O5_2 O 0.84634(12) 0.90592(9) 0.78161(3)
C11_2 C 0.60206(17) 0.70138(13) 0.89531(4)
H7_2 H 0.5896 0.7248 0.8802
C12_2 C 0.67411(19) 0.70418(15) 0.89454(5)
C13_2 C 0.72853(21) 0.74620(16) 0.86998(5)
C14_2 C 0.73555(22) 0.81735(17) 0.86035(6)
H8_2 H 0.7101 0.8395 0.8703
C15_2 C 0.78035(22) 0.85415(16) 0.83606(6)
H9_2 H 0.7840 0.9005 0.8293
C16_2 C 0.82043(18) 0.82207(14) 0.82147(5)
C17_2 C 0.82276(24) 0.7613(2) 0.83423(7)
H10_2 H 0.8556 0.7441 0.8267
C18_2 C 0.77687(25) 0.7242(2) 0.85838(7)
H11_2 H 0.7798 0.6826 0.8668
C19_2 C 0.86576(16) 0.86146(12) 0.79444(4)
In2_2 In 0.229993(8) 0.563293(8) 0.9167
N2_2 N 0.11673(10) 0.45003(10) 0.9167
C20_2 C 0.06461(17) 0.43266(11) 0.93802(4)
H12_2 H 0.0771 0.4686 0.9531
O9_2 O 0.05959(8) 0.15366(12) 0.78161(3)
C30_2 C 0.09933(11) 0.39794(17) 0.89531(4)
H18_2 H 0.1353 0.4104 0.8802
C31_2 C 0.03008(12) 0.32589(19) 0.89454(5)
C32_2 C 0.01768(13) 0.27147(21) 0.86998(5)
C33_2 C 0.08181(14) 0.26445(22) 0.86035(6)
H19_2 H 0.1295 0.2899 0.8703
C34_2 C 0.07381(15) 0.21965(22) 0.83606(6)
H20_2 H 0.1166 0.2160 0.8293
C35_2 C 0.00165(12) 0.17957(18) 0.82147(5)
In3_2 In 0.3333 0.770007(8) 0.9167
N3_2 N 0.3333 0.88327(10) 0.9167
C39_2 C 0.36805(13) 0.93539(17) 0.93802(4)
H23_2 H 0.3915 0.9229 0.9531
O13_2 O 0.09408(9) 0.94041(8) 0.78161(3)
C49_2 C 0.29862(13) 0.90067(11) 0.89531(4)
H29_2 H 0.2752 0.8647 0.8802
C50_2 C 0.29582(15) 0.96992(12) 0.89454(5)
C51_2 C 0.25380(16) 0.98232(13) 0.86998(5)
C52_2 C 0.18265(17) 0.91819(14) 0.86035(6)
H30_2 H 0.1605 0.8705 0.8703
C53_2 C 0.14585(16) 0.92619(15) 0.83606(6)
H31_2 H 0.0995 0.8834 0.8293
C54_2 C 0.17793(14) 0.99835(12) 0.82147(5)
O14_2 O 0.26215(8) 0.51417(8) 0.95315(3)
O15_2 O 0.25202(11) 0.73785(8) 0.95315(3)
O16_2 O 0.48583(8) 0.74798(11) 0.95315(3)
O17_2 O 0.18084(8) 0.59548(8) 0.88018(3)
O18_2 O 0.40452(8) 0.58535(11) 0.88018(3)
O19_2 O 0.41465(11) 0.81916(8) 0.88018(3)
O20_2 O 0.39292(8) 0.57259(9) 0.94828(3)
O21_2 O 0.17967(12) 0.60708(8) 0.94828(3)
O22_2 O 0.42741(9) 0.82033(12) 0.94828(3)
O23_2 O 0.23926(9) 0.72625(8) 0.88505(3)
O24_2 O 0.27375(8) 0.51300(12) 0.88505(3)
O25_2 O 0.48700(12) 0.76074(9) 0.88505(3)
O6_2 O 0.74798(11) 0.26215(8) 0.04685(3)
O7_2 O 0.82033(12) 0.39292(8) 0.05172(3)
H15_2 H 0.8827 0.4499 0.0040
C26_2 C 0.84624(18) 0.33498(12) 0.01186(5)
H16_2 H 0.8111 0.2219 0.0066
C29_2 C 0.80091(16) 0.32904(11) 0.03889(4)
C21_2 C 0.99256(19) 0.36341(12) 0.93879(5)
C22_2 C 0.97643(15) 0.30973(15) 0.9167
H13_2 H 0.9291 0.2624 0.9167
C23_2 C 0.93814(21) 0.35101(13) 0.96335(5)
C24_2 C 0.93112(22) 0.41514(14) 0.97298(6)
H14_2 H 0.9566 0.4628 0.9630
C25_2 C 0.88632(22) 0.40714(15) 0.99727(6)
C27_2 C 0.84391(24) 0.27191(14) 0.99910(7)
C28_2 C 0.88980(25) 0.28070(15) 0.97495(7)
H17_2 H 0.8869 0.2362 0.9665
O8_2 O 0.92882(8) 0.08131(11) 0.78648(3)
C36_2 C 0.93858(14) 0.17724(24) 0.83423(7)
H21_2 H 0.8886 0.1444 0.8267
C37_2 C 0.94737(15) 0.22313(25) 0.85838(7)
H22_2 H 0.9029 0.2202 0.8668
C38_2 C 0.99571(11) 0.13424(16) 0.79444(4)
In1_3 In 0.103374(8) 0.0000 0.2500
O3_3 O -0.0000 0.0000 0.2500
N1_3 N 0.21664(10) 0.0000 0.2500
C3_3 C 0.35694(15) 0.0000 0.2500
H2_3 H 0.4043 0.0000 0.2500
O4_3 O 0.58535(11) 0.18084(8) 0.11982(3)
O5_3 O 0.51300(12) 0.23926(9) 0.11495(3)
C11_3 C 0.26872(17) 0.03472(13) 0.22865(4)
H7_3 H 0.2562 0.0582 0.2136
C12_3 C 0.34077(19) 0.03752(15) 0.22788(5)
C13_3 C 0.39519(21) 0.07954(16) 0.20332(5)
C14_3 C 0.40221(22) 0.15069(17) 0.19369(6)
H8_3 H 0.3767 0.1729 0.2037
C15_3 C 0.44701(22) 0.18749(16) 0.16940(6)
H9_3 H 0.4506 0.2339 0.1627
C16_3 C 0.48709(18) 0.15541(14) 0.15481(5)
C17_3 C 0.48942(24) 0.0947(2) 0.16757(7)
H10_3 H 0.5222 0.0775 0.1601
C18_3 C 0.44353(25) 0.0576(2) 0.19172(7)
H11_3 H 0.4464 0.0160 0.2002
C19_3 C 0.53242(16) 0.19480(12) 0.12778(4)
In3_3 In -0.0000 0.103340(8) 0.2500
O10_3 O 0.18084(8) 0.58535(11) 0.38018(3)
O11_3 O 0.23926(9) 0.51300(12) 0.38505(3)
N3_3 N -0.0000 0.21660(10) 0.2500
C39_3 C 0.03472(13) 0.26872(17) 0.27135(4)
H23_3 H 0.0582 0.2562 0.2864
C40_3 C 0.03752(15) 0.34077(19) 0.27212(5)
C41_3 C -0.0000 0.35690(15) 0.2500
H24_3 H -0.0000 0.4042 0.2500
C42_3 C 0.07954(16) 0.39519(21) 0.29668(5)
C43_3 C 0.15069(17) 0.40221(22) 0.30631(6)
H25_3 H 0.1729 0.3767 0.2963
C44_3 C 0.18749(16) 0.44701(22) 0.33060(6)
H26_3 H 0.2339 0.4506 0.3373
C45_3 C 0.15541(14) 0.48709(18) 0.34519(5)
C46_3 C 0.0947(2) 0.48942(24) 0.33243(7)
H27_3 H 0.0775 0.5222 0.3399
C47_3 C 0.0576(2) 0.44353(25) 0.30828(7)
H28_3 H 0.0160 0.4464 0.2998
C48_3 C 0.19480(12) 0.53242(16) 0.37222(4)
O16_3 O 0.15250(8) 0.08131(11) 0.28648(3)
O19_3 O 0.08131(11) 0.15250(8) 0.21352(3)
O22_3 O 0.09408(9) 0.15366(12) 0.28161(3)
O25_3 O 0.15366(12) 0.09408(9) 0.21839(3)
In1_4 In 0.103374(8) 1.0000 0.2500
O1_3 O 0.40452(8) 0.81916(8) 0.38018(3)
O2_3 O 0.27375(8) 0.76074(9) 0.38505(3)
O3_4 O -0.0000 1.0000 0.2500
N1_4 N 0.21664(10) 1.0000 0.2500
C1_3 C 0.23401(11) 0.96528(13) 0.27135(4)
H1_3 H 0.1981 0.9418 0.2864
C2_3 C 0.30326(12) 0.96248(15) 0.27212(5)
C3_4 C 0.35694(15) 1.0000 0.2500
H2_4 H 0.4043 1.0000 0.2500
C4_3 C 0.31566(13) 0.92046(16) 0.29668(5)
C5_3 C 0.25153(14) 0.84931(17) 0.30631(6)
H3_3 H 0.2039 0.8271 0.2963
C6_3 C 0.25953(15) 0.81251(16) 0.33060(6)
H4_3 H 0.2168 0.7661 0.3373
C7_3 C 0.33169(12) 0.84459(14) 0.34519(5)
C8_3 C 0.39476(14) 0.9053(2) 0.33243(7)
H5_3 H 0.4448 0.9225 0.3399
C9_3 C 0.38597(15) 0.9424(2) 0.30828(7)
H6_3 H 0.4305 0.9840 0.2998
C10_3 C 0.33763(11) 0.80520(12) 0.37222(4)
O18_3 O 0.07118(8) 0.91869(11) 0.21352(3)
O20_3 O 0.05959(8) 0.90592(9) 0.28161(3)
O3_5 O 1.0000 0.0000 0.2500
In3_4 In 1.0000 0.103340(8) 0.2500
N3_4 N 1.0000 0.21660(10) 0.2500
C41_4 C 1.0000 0.35690(15) 0.2500
H24_4 H 1.0000 0.4042 0.2500
O12_3 O 0.81916(8) 0.40452(8) 0.11982(3)
O13_3 O 0.76074(9) 0.27375(8) 0.11495(3)
C49_3 C 0.96528(13) 0.23401(11) 0.22865(4)
H29_3 H 0.9418 0.1981 0.2136
C50_3 C 0.96248(15) 0.30326(12) 0.22788(5)
C51_3 C 0.92046(16) 0.31566(13) 0.20332(5)
C52_3 C 0.84931(17) 0.25153(14) 0.19369(6)
H30_3 H 0.8271 0.2039 0.2037
C53_3 C 0.81251(16) 0.25953(15) 0.16940(6)
H31_3 H 0.7661 0.2168 0.1627
C54_3 C 0.84459(14) 0.33169(12) 0.15481(5)
C55_3 C 0.9053(2) 0.39476(14) 0.16757(7)
H32_3 H 0.9225 0.4448 0.1601
C56_3 C 0.9424(2) 0.38597(15) 0.19172(7)
H33_3 H 0.9840 0.4305 0.2002
C57_3 C 0.80520(12) 0.33763(11) 0.12778(4)
O15_3 O 0.91869(11) 0.07118(8) 0.28648(3)
O23_3 O 0.90592(9) 0.05959(8) 0.21839(3)
O3_6 O 1.0000 1.0000 0.2500
In2_3 In 0.896660(8) 0.896626(8) 0.2500
O6_3 O 0.41465(11) 0.59548(8) 0.38018(3)
O7_3 O 0.48700(12) 0.72625(8) 0.38505(3)
N2_3 N 0.78340(10) 0.78336(10) 0.2500
C20_3 C 0.73128(17) 0.76599(11) 0.27135(4)
H12_3 H 0.7438 0.8019 0.2864
C21_3 C 0.65923(19) 0.69674(12) 0.27212(5)
C22_3 C 0.64310(15) 0.64306(15) 0.2500
H13_3 H 0.5958 0.5957 0.2500
C23_3 C 0.60481(21) 0.68434(13) 0.29668(5)
C24_3 C 0.59779(22) 0.74847(14) 0.30631(6)
H14_3 H 0.6233 0.7961 0.2963
C25_3 C 0.55299(22) 0.74047(15) 0.33060(6)
H15_3 H 0.5494 0.7832 0.3373
C26_3 C 0.51291(18) 0.66831(12) 0.34519(5)
C27_3 C 0.51058(24) 0.60524(14) 0.33243(7)
H16_3 H 0.4778 0.5552 0.3399
C28_3 C 0.55647(25) 0.61403(15) 0.30828(7)
H17_3 H 0.5536 0.5695 0.2998
C29_3 C 0.46758(16) 0.66237(11) 0.37222(4)
O8_3 O 0.59548(8) 0.41465(11) 0.11982(3)
O9_3 O 0.72625(8) 0.48700(12) 0.11495(3)
C30_3 C 0.76599(11) 0.73128(17) 0.22865(4)
H18_3 H 0.8019 0.7438 0.2136
C31_3 C 0.69674(12) 0.65923(19) 0.22788(5)
C32_3 C 0.68434(13) 0.60481(21) 0.20332(5)
C33_3 C 0.74847(14) 0.59779(22) 0.19369(6)
H19_3 H 0.7961 0.6233 0.2037
C34_3 C 0.74047(15) 0.55299(22) 0.16940(6)
H20_3 H 0.7832 0.5494 0.1627
C35_3 C 0.66831(12) 0.51291(18) 0.15481(5)
C36_3 C 0.60524(14) 0.51058(24) 0.16757(7)
H21_3 H 0.5552 0.4778 0.1601
C37_3 C 0.61403(15) 0.55647(25) 0.19172(7)
H22_3 H 0.5695 0.5536 0.2002
C38_3 C 0.66237(11) 0.46758(16) 0.12778(4)
O14_3 O 0.92882(8) 0.84750(8) 0.28648(3)
O17_3 O 0.84750(8) 0.92882(8) 0.21352(3)
O21_3 O 0.84634(12) 0.94041(8) 0.28161(3)
O24_3 O 0.94041(8) 0.84634(12) 0.21839(3)
C21_4 C 0.63659(12) 0.00744(19) 0.43879(5)
C22_4 C 0.69027(15) 0.02357(15) 0.4167
H13_4 H 0.7376 0.0709 0.4167
C23_4 C 0.64899(13) 0.06186(21) 0.46335(5)
C24_4 C 0.58486(14) 0.06888(22) 0.47298(6)
H14_4 H 0.5372 0.0434 0.4630
C25_4 C 0.59286(15) 0.11368(22) 0.49727(6)
H15_4 H 0.5501 0.1173 0.5040
C26_4 C 0.66502(12) 0.15376(18) 0.51186(5)
C27_4 C 0.72809(14) 0.15609(24) 0.49910(7)
H16_4 H 0.7781 0.1889 0.5066
C28_4 C 0.71930(15) 0.11020(25) 0.47495(7)
H17_4 H 0.7638 0.1131 0.4665
C29_4 C 0.67096(11) 0.19909(16) 0.53889(4)
C36_4 C 0.82276(24) 0.06142(14) 0.33423(7)
H21_4 H 0.8556 0.1114 0.3267
C37_4 C 0.77687(25) 0.05263(15) 0.35838(7)
H22_4 H 0.7798 0.0971 0.3668
C38_4 C 0.86576(16) 0.00429(11) 0.29444(4)
O3_7 O 0.3333 0.6667 0.4167
N1_5 N 0.3333 0.45003(10) 0.4167
C1_4 C 0.36805(13) 0.43266(11) 0.43802(4)
H1_4 H 0.3915 0.4686 0.4531
C2_4 C 0.37085(15) 0.36341(12) 0.43879(5)
C3_5 C 0.3333 0.30973(15) 0.4167
H2_5 H 0.3333 0.2624 0.4167
C4_4 C 0.41287(16) 0.35101(13) 0.46335(5)
C5_4 C 0.48402(17) 0.41514(14) 0.47298(6)
H3_4 H 0.5062 0.4628 0.4630
C6_4 C 0.52082(16) 0.40714(15) 0.49727(6)
H4_4 H 0.5672 0.4499 0.5040
C7_4 C 0.48874(14) 0.33498(12) 0.51186(5)
C8_4 C 0.4280(2) 0.27191(14) 0.49910(7)
H5_4 H 0.4108 0.2219 0.5066
C9_4 C 0.3909(2) 0.28070(15) 0.47495(7)
H6_4 H 0.3493 0.2362 0.4665
C10_4 C 0.52813(12) 0.32904(11) 0.53889(4)
C11_4 C 0.29862(13) 0.39794(17) 0.39531(4)
H7_4 H 0.2752 0.4104 0.3802
C12_4 C 0.29582(15) 0.32589(19) 0.39454(5)
C13_4 C 0.25380(16) 0.27147(21) 0.36998(5)
C14_4 C 0.18265(17) 0.26445(22) 0.36035(6)
H8_4 H 0.1605 0.2899 0.3703
C15_4 C 0.14585(16) 0.21965(22) 0.33606(6)
H9_4 H 0.0995 0.2160 0.3293
C16_4 C 0.17793(14) 0.17957(18) 0.32147(5)
C17_4 C 0.2387(2) 0.17724(24) 0.33423(7)
H10_4 H 0.2559 0.1444 0.3267
C18_4 C 0.2758(2) 0.22313(25) 0.35838(7)
H11_4 H 0.3174 0.2202 0.3668
C19_4 C 0.13854(12) 0.13424(16) 0.29444(4)
N2_4 N 0.54997(10) 0.88327(10) 0.4167
C20_4 C 0.56734(11) 0.93539(17) 0.43802(4)
H12_4 H 0.5314 0.9229 0.4531
C30_4 C 0.60206(17) 0.90067(11) 0.39531(4)
H18_4 H 0.5896 0.8647 0.3802
C31_4 C 0.67411(19) 0.96992(12) 0.39454(5)
C32_4 C 0.72853(21) 0.98232(13) 0.36998(5)
C33_4 C 0.73555(22) 0.91819(14) 0.36035(6)
H19_4 H 0.7101 0.8705 0.3703
C34_4 C 0.78035(22) 0.92619(15) 0.33606(6)
H20_4 H 0.7840 0.8834 0.3293
C35_4 C 0.82043(18) 0.99835(12) 0.32147(5)
N3_5 N 0.11673(10) 0.6667 0.4167
C39_4 C 0.06461(17) 0.63195(13) 0.43802(4)
H23_4 H 0.0771 0.6085 0.4531
C49_4 C 0.09933(11) 0.70138(13) 0.39531(4)
H29_4 H 0.1353 0.7248 0.3802
C50_4 C 0.03008(12) 0.70418(15) 0.39454(5)
C51_4 C 0.01768(13) 0.74620(16) 0.36998(5)
C52_4 C 0.08181(14) 0.81735(17) 0.36035(6)
H30_4 H 0.1295 0.8395 0.3703
C53_4 C 0.07381(15) 0.85415(16) 0.33606(6)
H31_4 H 0.1166 0.9005 0.3293
C54_4 C 0.00165(12) 0.82207(14) 0.32147(5)
C40_4 C 0.99256(19) 0.62915(15) 0.43879(5)
C41_5 C 0.97643(15) 0.6667 0.4167
H24_5 H 0.9291 0.6667 0.4167
C42_4 C 0.93814(21) 0.58713(16) 0.46335(5)
C43_4 C 0.93112(22) 0.51598(17) 0.47298(6)
H25_4 H 0.9566 0.4938 0.4630
C44_4 C 0.88632(22) 0.47918(16) 0.49727(6)
H26_4 H 0.8827 0.4328 0.5040
C45_4 C 0.84624(18) 0.51126(14) 0.51186(5)
C46_4 C 0.84391(24) 0.5720(2) 0.49910(7)
H27_4 H 0.8111 0.5892 0.5066
C47_4 C 0.88980(25) 0.6091(2) 0.47495(7)
H28_4 H 0.8869 0.6507 0.4665
C48_4 C 0.80091(16) 0.47187(12) 0.53889(4)
C55_4 C 0.93858(14) 0.7613(2) 0.33423(7)
H32_4 H 0.8886 0.7441 0.3267
C56_4 C 0.94737(15) 0.7242(2) 0.35838(7)
H33_4 H 0.9029 0.6826 0.3668
C57_4 C 0.99571(11) 0.86146(12) 0.29444(4)
C21_5 C 0.00744(19) 0.63659(12) 0.06121(5)
C22_5 C 0.02357(15) 0.69027(15) 0.0833
H13_5 H 0.0709 0.7376 0.0833
C23_5 C 0.06186(21) 0.64899(13) 0.03665(5)
C24_5 C 0.06888(22) 0.58486(14) 0.02702(6)
H14_5 H 0.0434 0.5372 0.0370
C25_5 C 0.11368(22) 0.59286(15) 0.00273(6)
C27_5 C 0.15609(24) 0.72809(14) 0.00090(7)
C28_5 C 0.11020(25) 0.71930(15) 0.02505(7)
H17_5 H 0.1131 0.7638 0.0335
C36_5 C 0.06142(14) 0.82276(24) 0.16577(7)
H21_5 H 0.1114 0.8556 0.1733
C37_5 C 0.05263(15) 0.77687(25) 0.14162(7)
H22_5 H 0.0971 0.7798 0.1332
C38_5 C 0.00429(11) 0.86576(16) 0.20556(4)
H15_5 H 0.1173 0.5501 0.9960
C26_5 C 0.15376(18) 0.66502(12) 0.98814(5)
H16_5 H 0.1889 0.7781 0.9934
C29_5 C 0.19909(16) 0.67096(11) 0.96111(4)
O3_8 O 0.6667 0.3333 0.0833
N1_6 N 0.45003(10) 0.3333 0.0833
C1_5 C 0.43266(11) 0.36805(13) 0.06198(4)
H1_5 H 0.4686 0.3915 0.0469
C2_5 C 0.36341(12) 0.37085(15) 0.06121(5)
C3_6 C 0.30973(15) 0.3333 0.0833
H2_6 H 0.2624 0.3333 0.0833
C4_5 C 0.35101(13) 0.41287(16) 0.03665(5)
C5_5 C 0.41514(14) 0.48402(17) 0.02702(6)
H3_5 H 0.4628 0.5062 0.0370
C6_5 C 0.40714(15) 0.52082(16) 0.00273(6)
C8_5 C 0.27191(14) 0.4280(2) 0.00090(7)
C9_5 C 0.28070(15) 0.3909(2) 0.02505(7)
H6_5 H 0.2362 0.3493 0.0335
C11_5 C 0.39794(17) 0.29862(13) 0.10469(4)
H7_5 H 0.4104 0.2752 0.1198
C12_5 C 0.32589(19) 0.29582(15) 0.10546(5)
C13_5 C 0.27147(21) 0.25380(16) 0.13002(5)
C14_5 C 0.26445(22) 0.18265(17) 0.13965(6)
H8_5 H 0.2899 0.1605 0.1297
C15_5 C 0.21965(22) 0.14585(16) 0.16394(6)
H9_5 H 0.2160 0.0995 0.1707
C16_5 C 0.17957(18) 0.17793(14) 0.17853(5)
C17_5 C 0.17724(24) 0.2387(2) 0.16577(7)
H10_5 H 0.1444 0.2559 0.1733
C18_5 C 0.22313(25) 0.2758(2) 0.14162(7)
H11_5 H 0.2202 0.3174 0.1332
C19_5 C 0.13424(16) 0.13854(12) 0.20556(4)
N2_5 N 0.88327(10) 0.54997(10) 0.0833
C20_5 C 0.93539(17) 0.56734(11) 0.06198(4)
H12_5 H 0.9229 0.5314 0.0469
C30_5 C 0.90067(11) 0.60206(17) 0.10469(4)
H18_5 H 0.8647 0.5896 0.1198
C31_5 C 0.96992(12) 0.67411(19) 0.10546(5)
C32_5 C 0.98232(13) 0.72853(21) 0.13002(5)
C33_5 C 0.91819(14) 0.73555(22) 0.13965(6)
H19_5 H 0.8705 0.7101 0.1297
C34_5 C 0.92619(15) 0.78035(22) 0.16394(6)
H20_5 H 0.8834 0.7840 0.1707
C35_5 C 0.99835(12) 0.82043(18) 0.17853(5)
N3_6 N 0.6667 0.11673(10) 0.0833
C39_5 C 0.63195(13) 0.06461(17) 0.06198(4)
H23_5 H 0.6085 0.0771 0.0469
C49_5 C 0.70138(13) 0.09933(11) 0.10469(4)
H29_5 H 0.7248 0.1353 0.1198
C50_5 C 0.70418(15) 0.03008(12) 0.10546(5)
C51_5 C 0.74620(16) 0.01768(13) 0.13002(5)
C52_5 C 0.81735(17) 0.08181(14) 0.13965(6)
H30_5 H 0.8395 0.1295 0.1297
C53_5 C 0.85415(16) 0.07381(15) 0.16394(6)
H31_5 H 0.9005 0.1166 0.1707
C54_5 C 0.82207(14) 0.00165(12) 0.17853(5)
H4_5 H 0.4499 0.5672 0.9960
C7_5 C 0.33498(12) 0.48874(14) 0.98814(5)
H5_5 H 0.2219 0.4108 0.9934
C10_5 C 0.32904(11) 0.52813(12) 0.96111(4)
C40_5 C 0.62915(15) 0.99256(19) 0.06121(5)
C41_6 C 0.6667 0.97643(15) 0.0833
H24_6 H 0.6667 0.9291 0.0833
C42_5 C 0.58713(16) 0.93814(21) 0.03665(5)
C43_5 C 0.51598(17) 0.93112(22) 0.02702(6)
H25_5 H 0.4938 0.9566 0.0370
C44_5 C 0.47918(16) 0.88632(22) 0.00273(6)
C46_5 C 0.5720(2) 0.84391(24) 0.00090(7)
C47_5 C 0.6091(2) 0.88980(25) 0.02505(7)
H28_5 H 0.6507 0.8869 0.0335
C55_5 C 0.7613(2) 0.93858(14) 0.16577(7)
H32_5 H 0.7441 0.8886 0.1733
C56_5 C 0.7242(2) 0.94737(15) 0.14162(7)
H33_5 H 0.6826 0.9029 0.1332
C57_5 C 0.86146(12) 0.99571(11) 0.20556(4)
H26_5 H 0.4328 0.8827 0.9960
C45_5 C 0.51126(14) 0.84624(18) 0.98814(5)
H27_5 H 0.5892 0.8111 0.9934
C48_5 C 0.47187(12) 0.80091(16) 0.96111(4)
O3_9 O 0.0000 -0.0000 0.7500
N2_6 N 0.21660(10) 0.21664(10) 0.7500
C20_6 C 0.26872(17) 0.23401(11) 0.72865(4)
H12_6 H 0.2562 0.1981 0.7136
C21_6 C 0.34077(19) 0.30326(12) 0.72788(5)
C22_6 C 0.35690(15) 0.35694(15) 0.7500
H13_6 H 0.4042 0.4043 0.7500
C23_6 C 0.39519(21) 0.31566(13) 0.70332(5)
C24_6 C 0.40221(22) 0.25153(14) 0.69369(6)
H14_6 H 0.3767 0.2039 0.7037
C25_6 C 0.44701(22) 0.25953(15) 0.66940(6)
H15_6 H 0.4506 0.2168 0.6627
C26_6 C 0.48709(18) 0.33169(12) 0.65481(5)
C27_6 C 0.48942(24) 0.39476(14) 0.66757(7)
H16_6 H 0.5222 0.4448 0.6601
C28_6 C 0.44353(25) 0.38597(15) 0.69172(7)
H17_6 H 0.4464 0.4305 0.7002
C29_6 C 0.53242(16) 0.33763(11) 0.62778(4)
C30_6 C 0.23401(11) 0.26872(17) 0.77135(4)
H18_6 H 0.1981 0.2562 0.7864
C31_6 C 0.30326(12) 0.34077(19) 0.77212(5)
C32_6 C 0.31566(13) 0.39519(21) 0.79668(5)
C33_6 C 0.25153(14) 0.40221(22) 0.80631(6)
H19_6 H 0.2039 0.3767 0.7963
C34_6 C 0.25953(15) 0.44701(22) 0.83060(6)
H20_6 H 0.2168 0.4506 0.8373
C35_6 C 0.33169(12) 0.48709(18) 0.84519(5)
C36_6 C 0.39476(14) 0.48942(24) 0.83243(7)
H21_6 H 0.4448 0.5222 0.8399
C37_6 C 0.38597(15) 0.44353(25) 0.80828(7)
H22_6 H 0.4305 0.4464 0.7998
C38_6 C 0.33763(11) 0.53242(16) 0.87222(4)
O3_10 O 0.0000 1.0000 0.7500
N3_7 N 0.0000 0.78340(10) 0.7500
C41_7 C 0.0000 0.64310(15) 0.7500
H24_7 H 0.0000 0.5958 0.7500
C49_6 C 0.03472(13) 0.76599(11) 0.77135(4)
H29_6 H 0.0582 0.8019 0.7864
C50_6 C 0.03752(15) 0.69674(12) 0.77212(5)
C51_6 C 0.07954(16) 0.68434(13) 0.79668(5)
C52_6 C 0.15069(17) 0.74847(14) 0.80631(6)
H30_6 H 0.1729 0.7961 0.7963
C53_6 C 0.18749(16) 0.74047(15) 0.83060(6)
H31_6 H 0.2339 0.7832 0.8373
C54_6 C 0.15541(14) 0.66831(12) 0.84519(5)
C55_6 C 0.0947(2) 0.60524(14) 0.83243(7)
H32_6 H 0.0775 0.5552 0.8399
C56_6 C 0.0576(2) 0.61403(15) 0.80828(7)
H33_6 H 0.0160 0.5695 0.7998
C57_6 C 0.19480(12) 0.66237(11) 0.87222(4)
O3_11 O 1.0000 -0.0000 0.7500
N1_7 N 0.78336(10) -0.0000 0.7500
C1_6 C 0.76599(11) 0.03472(13) 0.72865(4)
H1_6 H 0.8019 0.0582 0.7136
C2_6 C 0.69674(12) 0.03752(15) 0.72788(5)
C3_7 C 0.64306(15) -0.0000 0.7500
H2_7 H 0.5957 -0.0000 0.7500
C4_6 C 0.68434(13) 0.07954(16) 0.70332(5)
C5_6 C 0.74847(14) 0.15069(17) 0.69369(6)
H3_6 H 0.7961 0.1729 0.7037
C6_6 C 0.74047(15) 0.18749(16) 0.66940(6)
H4_6 H 0.7832 0.2339 0.6627
C7_6 C 0.66831(12) 0.15541(14) 0.65481(5)
C8_6 C 0.60524(14) 0.0947(2) 0.66757(7)
H5_6 H 0.5552 0.0775 0.6601
C9_6 C 0.61403(15) 0.0576(2) 0.69172(7)
H6_6 H 0.5695 0.0160 0.7002
C10_6 C 0.66237(11) 0.19480(12) 0.62778(4)
O3_12 O 1.0000 1.0000 0.7500
N1_8 N 0.78336(10) 1.0000 0.7500
C3_8 C 0.64306(15) 1.0000 0.7500
H2_8 H 0.5957 1.0000 0.7500
C11_6 C 0.73128(17) 0.96528(13) 0.77135(4)
H7_6 H 0.7438 0.9418 0.7864
C12_6 C 0.65923(19) 0.96248(15) 0.77212(5)
C13_6 C 0.60481(21) 0.92046(16) 0.79668(5)
C14_6 C 0.59779(22) 0.84931(17) 0.80631(6)
H8_6 H 0.6233 0.8271 0.7963
C15_6 C 0.55299(22) 0.81251(16) 0.83060(6)
H9_6 H 0.5494 0.7661 0.8373
C16_6 C 0.51291(18) 0.84459(14) 0.84519(5)
C17_6 C 0.51058(24) 0.9053(2) 0.83243(7)
H10_6 H 0.4778 0.9225 0.8399
C18_6 C 0.55647(25) 0.9424(2) 0.80828(7)
H11_6 H 0.5536 0.9840 0.7998
C19_6 C 0.46758(16) 0.80520(12) 0.87222(4)
N3_8 N 1.0000 0.78340(10) 0.7500
C39_6 C 0.96528(13) 0.73128(17) 0.72865(4)
H23_6 H 0.9418 0.7438 0.7136
C40_6 C 0.96248(15) 0.65923(19) 0.72788(5)
C41_8 C 1.0000 0.64310(15) 0.7500
H24_8 H 1.0000 0.5958 0.7500
C42_6 C 0.92046(16) 0.60481(21) 0.70332(5)
C43_6 C 0.84931(17) 0.59779(22) 0.69369(6)
H25_6 H 0.8271 0.6233 0.7037
C44_6 C 0.81251(16) 0.55299(22) 0.66940(6)
H26_6 H 0.7661 0.5494 0.6627
C45_6 C 0.84459(14) 0.51291(18) 0.65481(5)
C46_6 C 0.9053(2) 0.51058(24) 0.66757(7)
H27_6 H 0.9225 0.4778 0.6601
C47_6 C 0.9424(2) 0.55647(25) 0.69172(7)
H28_6 H 0.9840 0.5536 0.7002
C48_6 C 0.80520(12) 0.46758(16) 0.62778(4)
loop_
_geom_bond_atom_site_label_1
_geom_bond_atom_site_label_2
_geom_bond_site_symmetry_1
_geom_bond_site_symmetry_2
O10 C48 1_555 1_555
O11 C48 1_555 1_555
C41 C40 1_555 1_555
H24 C41 1_555 1_555
C42 C40 1_555 1_555
C43 C42 1_555 1_555
H25 C43 1_555 1_555
C44 C43 1_555 1_555
H26 C44 1_555 1_555
C45 C44 1_555 1_555
C46 C45 1_555 1_555
H27 C46 1_555 1_555
C47 C42 1_555 1_555
H28 C47 1_555 1_555
C48 C45 1_555 1_555
O12 C57 1_555 1_555
H32 C55 1_555 1_555
H33 C56 1_555 1_555
In5 O10 1_555 1_555
In9 O11 1_555 1_555
In13 O12 1_555 1_555
C46 C47 1_555 1_555
C55 C56 1_555 1_555
In1 O3 1_555 1_555
O1 C10 1_555 1_555
O2 C10 1_555 1_555
O3 In2 1_555 1_555
N1 In1 1_555 1_555
C1 N1 1_555 1_555
H1 C1 1_555 1_555
C2 C1 1_555 1_555
C3 C2 1_555 1_555
H2 C3 1_555 1_555
C4 C2 1_555 1_555
C5 C4 1_555 1_555
H3 C5 1_555 1_555
C6 C5 1_555 1_555
H4 C6 1_555 1_555
C7 C6 1_555 1_555
C8 C7 1_555 1_555
H5 C8 1_555 1_555
C9 C4 1_555 1_555
H6 C9 1_555 1_555
C10 C7 1_555 1_555
O4 C19 1_555 1_555
O5 C19 1_555 1_555
C11 N1 1_555 1_555
H7 C11 1_555 1_555
C12 C3 1_555 1_555
C13 C12 1_555 1_555
C14 C13 1_555 1_555
H8 C14 1_555 1_555
C15 C14 1_555 1_555
H9 C15 1_555 1_555
C16 C15 1_555 1_555
C17 C16 1_555 1_555
H10 C17 1_555 1_555
C18 C13 1_555 1_555
H11 C18 1_555 1_555
C19 C16 1_555 1_555
In2 N2 1_555 1_555
N2 C20 1_555 1_555
C20 H12 1_555 1_555
C30 N2 1_555 1_555
H18 C30 1_555 1_555
C32 C31 1_555 1_555
C33 C32 1_555 1_555
H19 C33 1_555 1_555
C34 C33 1_555 1_555
H20 C34 1_555 1_555
C35 C34 1_555 1_555
In3 O3 1_555 1_555
N3 In3 1_555 1_555
C39 N3 1_555 1_555
H23 C39 1_555 1_555
C49 N3 1_555 1_555
H29 C49 1_555 1_555
C51 C50 1_555 1_555
C52 C51 1_555 1_555
H30 C52 1_555 1_555
C53 C52 1_555 1_555
H31 C53 1_555 1_555
C54 C53 1_555 1_555
In5 O2 1_555 1_555
In7 O1 1_555 1_555
In11_2 O5 1_555 1_555
In13 O9 1_555 1_555
In15 O13 1_555 1_555
In15_2 O4 1_555 1_555
O14 In2 1_555 1_555
O15 In3 1_555 1_555
O16 In1 1_555 1_555
O17 In2 1_555 1_555
O18 In1 1_555 1_555
O19 In3 1_555 1_555
O20 In1 1_555 1_555
O21 In2 1_555 1_555
O22 In3 1_555 1_555
O23 In3 1_555 1_555
O24 In2 1_555 1_555
O25 In1 1_555 1_555
C8 C9 1_555 1_555
C11 C12 1_555 1_555
C17 C18 1_555 1_555
C30 C31 1_555 1_555
C49 C50 1_555 1_555
O6 C29 1_555 1_555
O7 C29 1_555 1_555
C22 C21 1_555 1_555
H13 C22 1_555 1_555
C23 C21 1_555 1_555
C24 C23 1_555 1_555
H14 C24 1_555 1_555
C25 C24 1_555 1_555
H15 C25 1_555 1_555
C26 C25 1_555 1_555
C27 C26 1_555 1_555
H16 C27 1_555 1_555
C28 C23 1_555 1_555
H17 C28 1_555 1_555
C29 C26 1_555 1_555
O8 C38 1_555 1_555
H21 C36 1_555 1_555
H22 C37 1_555 1_555
In7 O7 1_555 1_555
In9 O6 1_555 1_555
In11 O8 1_555 1_555
C27 C28 1_555 1_555
C36 C37 1_555 1_555
O10_2 C48_2 1_555 1_555
O11_2 C48_2 1_555 1_555
C48_2 C45_2 1_555 1_555
In5_2 O10_2 1_555 1_555
In9_2 O11_2 1_555 1_555
C41_2 C40_2 1_555 1_555
H24_2 C41_2 1_555 1_555
C42_2 C40_2 1_555 1_555
C43_2 C42_2 1_555 1_555
H25_2 C43_2 1_555 1_555
C44_2 C43_2 1_555 1_555
C47_2 C42_2 1_555 1_555
H28_2 C47_2 1_555 1_555
O12_2 C57_2 1_555 1_555
H32_2 C55_2 1_555 1_555
H33_2 C56_2 1_555 1_555
In13 O12_2 1_555 1_555
C46_2 C47_2 1_555 1_555
C55_2 C56_2 1_555 1_555
O1_2 C10_2 1_555 1_555
O2_2 C10_2 1_555 1_555
C10_2 C7_2 1_555 1_555
In5_2 O2_2 1_555 1_555
In7_2 O1_2 1_555 1_555
In1_2 O3_2 1_555 1_555
O3_2 In2_2 1_555 1_555
N1_2 In1_2 1_555 1_555
C1_2 N1_2 1_555 1_555
H1_2 C1_2 1_555 1_555
C2_2 C1_2 1_555 1_555
C3_2 C2_2 1_555 1_555
H2_2 C3_2 1_555 1_555
C4_2 C2_2 1_555 1_555
C5_2 C4_2 1_555 1_555
H3_2 C5_2 1_555 1_555
C6_2 C5_2 1_555 1_555
C9_2 C4_2 1_555 1_555
H6_2 C9_2 1_555 1_555
O4_2 C19_2 1_555 1_555
O5_2 C19_2 1_555 1_555
C11_2 N1_2 1_555 1_555
H7_2 C11_2 1_555 1_555
C12_2 C3_2 1_555 1_555
C13_2 C12_2 1_555 1_555
C14_2 C13_2 1_555 1_555
H8_2 C14_2 1_555 1_555
C15_2 C14_2 1_555 1_555
H9_2 C15_2 1_555 1_555
C16_2 C15_2 1_555 1_555
C17_2 C16_2 1_555 1_555
H10_2 C17_2 1_555 1_555
C18_2 C13_2 1_555 1_555
H11_2 C18_2 1_555 1_555
C19_2 C16_2 1_555 1_555
In2_2 N2_2 1_555 1_555
N2_2 C20_2 1_555 1_555
C20_2 H12_2 1_555 1_555
C30_2 N2_2 1_555 1_555
H18_2 C30_2 1_555 1_555
C32_2 C31_2 1_555 1_555
C33_2 C32_2 1_555 1_555
H19_2 C33_2 1_555 1_555
C34_2 C33_2 1_555 1_555
H20_2 C34_2 1_555 1_555
C35_2 C34_2 1_555 1_555
In3_2 O3_2 1_555 1_555
N3_2 In3_2 1_555 1_555
C39_2 N3_2 1_555 1_555
H23_2 C39_2 1_555 1_555
C49_2 N3_2 1_555 1_555
H29_2 C49_2 1_555 1_555
C51_2 C50_2 1_555 1_555
C52_2 C51_2 1_555 1_555
H30_2 C52_2 1_555 1_555
C53_2 C52_2 1_555 1_555
H31_2 C53_2 1_555 1_555
C54_2 C53_2 1_555 1_555
In15_2 O5_2 1_555 1_555
In13 O9_2 1_555 1_555
In11 O13_2 1_555 1_555
In11_2 O4_2 1_555 1_555
O14_2 In2_2 1_555 1_555
O15_2 In3_2 1_555 1_555
O16_2 In1_2 1_555 1_555
O17_2 In2_2 1_555 1_555
O18_2 In1_2 1_555 1_555
O19_2 In3_2 1_555 1_555
O20_2 In1_2 1_555 1_555
O21_2 In2_2 1_555 1_555
O22_2 In3_2 1_555 1_555
O23_2 In3_2 1_555 1_555
O24_2 In2_2 1_555 1_555
O25_2 In1_2 1_555 1_555
C8_2 C9_2 1_555 1_555
C11_2 C12_2 1_555 1_555
C17_2 C18_2 1_555 1_555
C30_2 C31_2 1_555 1_555
C49_2 C50_2 1_555 1_555
O6_2 C29_2 1_555 1_555
O7_2 C29_2 1_555 1_555
C29_2 C26_2 1_555 1_555
In7_2 O7_2 1_555 1_555
In9_2 O6_2 1_555 1_555
C22_2 C21_2 1_555 1_555
H13_2 C22_2 1_555 1_555
C23_2 C21_2 1_555 1_555
C24_2 C23_2 1_555 1_555
H14_2 C24_2 1_555 1_555
C25_2 C24_2 1_555 1_555
C28_2 C23_2 1_555 1_555
H17_2 C28_2 1_555 1_555
O8_2 C38_2 1_555 1_555
H21_2 C36_2 1_555 1_555
H22_2 C37_2 1_555 1_555
In15 O8_2 1_555 1_555
C27_2 C28_2 1_555 1_555
C36_2 C37_2 1_555 1_555
In1_3 O3_3 1_555 1_555
N1_3 In1_3 1_555 1_555
H2_3 C3_3 1_555 1_555
O4_3 C19_3 1_555 1_555
O5_3 C19_3 1_555 1_555
C11_3 N1_3 1_555 1_555
H7_3 C11_3 1_555 1_555
C12_3 C3_3 1_555 1_555
C13_3 C12_3 1_555 1_555
C14_3 C13_3 1_555 1_555
H8_3 C14_3 1_555 1_555
C15_3 C14_3 1_555 1_555
H9_3 C15_3 1_555 1_555
C16_3 C15_3 1_555 1_555
C17_3 C16_3 1_555 1_555
H10_3 C17_3 1_555 1_555
C18_3 C13_3 1_555 1_555
H11_3 C18_3 1_555 1_555
C19_3 C16_3 1_555 1_555
In3_3 O3_3 1_555 1_555
O10_3 C48_3 1_555 1_555
O11_3 C48_3 1_555 1_555
N3_3 In3_3 1_555 1_555
C39_3 N3_3 1_555 1_555
H23_3 C39_3 1_555 1_555
C40_3 C39_3 1_555 1_555
C41_3 C40_3 1_555 1_555
H24_3 C41_3 1_555 1_555
C42_3 C40_3 1_555 1_555
C43_3 C42_3 1_555 1_555
H25_3 C43_3 1_555 1_555
C44_3 C43_3 1_555 1_555
H26_3 C44_3 1_555 1_555
C45_3 C44_3 1_555 1_555
C46_3 C45_3 1_555 1_555
H27_3 C46_3 1_555 1_555
C47_3 C42_3 1_555 1_555
H28_3 C47_3 1_555 1_555
C48_3 C45_3 1_555 1_555
In9 O10_3 1_555 1_555
In5 O11_3 1_555 1_555
In5_2 O5_3 1_555 1_555
In9_2 O4_3 1_555 1_555
O16_3 In1_3 1_555 1_555
O19_3 In3_3 1_555 1_555
O22_3 In3_3 1_555 1_555
O25_3 In1_3 1_555 1_555
C11_3 C12_3 1_555 1_555
C17_3 C18_3 1_555 1_555
C46_3 C47_3 1_555 1_555
In1_4 O3_4 1_555 1_555
O1_3 C10_3 1_555 1_555
O2_3 C10_3 1_555 1_555
N1_4 In1_4 1_555 1_555
C1_3 N1_4 1_555 1_555
H1_3 C1_3 1_555 1_555
C2_3 C1_3 1_555 1_555
C3_4 C2_3 1_555 1_555
H2_4 C3_4 1_555 1_555
C4_3 C2_3 1_555 1_555
C5_3 C4_3 1_555 1_555
H3_3 C5_3 1_555 1_555
C6_3 C5_3 1_555 1_555
H4_3 C6_3 1_555 1_555
C7_3 C6_3 1_555 1_555
C8_3 C7_3 1_555 1_555
H5_3 C8_3 1_555 1_555
C9_3 C4_3 1_555 1_555
H6_3 C9_3 1_555 1_555
C10_3 C7_3 1_555 1_555
In9 O2_3 1_555 1_555
In7 O1_3 1_555 1_555
O18_3 In1_4 1_555 1_555
O20_3 In1_4 1_555 1_555
C8_3 C9_3 1_555 1_555
In3_4 O3_5 1_555 1_555
N3_4 In3_4 1_555 1_555
H24_4 C41_4 1_555 1_555
O12_3 C57_3 1_555 1_555
O13_3 C57_3 1_555 1_555
C49_3 N3_4 1_555 1_555
H29_3 C49_3 1_555 1_555
C50_3 C41_4 1_555 1_555
C51_3 C50_3 1_555 1_555
C52_3 C51_3 1_555 1_555
H30_3 C52_3 1_555 1_555
C53_3 C52_3 1_555 1_555
H31_3 C53_3 1_555 1_555
C54_3 C53_3 1_555 1_555
C55_3 C54_3 1_555 1_555
H32_3 C55_3 1_555 1_555
C56_3 C51_3 1_555 1_555
H33_3 C56_3 1_555 1_555
C57_3 C54_3 1_555 1_555
In7_2 O12_3 1_555 1_555
In9_2 O13_3 1_555 1_555
O15_3 In3_4 1_555 1_555
O23_3 In3_4 1_555 1_555
C49_3 C50_3 1_555 1_555
C55_3 C56_3 1_555 1_555
O3_6 In2_3 1_555 1_555
In2_3 N2_3 1_555 1_555
O6_3 C29_3 1_555 1_555
O7_3 C29_3 1_555 1_555
N2_3 C20_3 1_555 1_555
C20_3 H12_3 1_555 1_555
C21_3 C20_3 1_555 1_555
C22_3 C21_3 1_555 1_555
H13_3 C22_3 1_555 1_555
C23_3 C21_3 1_555 1_555
C24_3 C23_3 1_555 1_555
H14_3 C24_3 1_555 1_555
C25_3 C24_3 1_555 1_555
H15_3 C25_3 1_555 1_555
C26_3 C25_3 1_555 1_555
C27_3 C26_3 1_555 1_555
H16_3 C27_3 1_555 1_555
C28_3 C23_3 1_555 1_555
H17_3 C28_3 1_555 1_555
C29_3 C26_3 1_555 1_555
O8_3 C38_3 1_555 1_555
O9_3 C38_3 1_555 1_555
C30_3 N2_3 1_555 1_555
H18_3 C30_3 1_555 1_555
C31_3 C22_3 1_555 1_555
C32_3 C31_3 1_555 1_555
C33_3 C32_3 1_555 1_555
H19_3 C33_3 1_555 1_555
C34_3 C33_3 1_555 1_555
H20_3 C34_3 1_555 1_555
C35_3 C34_3 1_555 1_555
C36_3 C35_3 1_555 1_555
H21_3 C36_3 1_555 1_555
C37_3 C32_3 1_555 1_555
H22_3 C37_3 1_555 1_555
C38_3 C35_3 1_555 1_555
In7 O7_3 1_555 1_555
In5 O6_3 1_555 1_555
In5_2 O8_3 1_555 1_555
In7_2 O9_3 1_555 1_555
O14_3 In2_3 1_555 1_555
O17_3 In2_3 1_555 1_555
O21_3 In2_3 1_555 1_555
O24_3 In2_3 1_555 1_555
C27_3 C28_3 1_555 1_555
C30_3 C31_3 1_555 1_555
C36_3 C37_3 1_555 1_555
O15 C29_4 1_555 1_555
O21 C29_4 1_555 1_555
C22_4 C21_4 1_555 1_555
H13_4 C22_4 1_555 1_555
C23_4 C21_4 1_555 1_555
C24_4 C23_4 1_555 1_555
H14_4 C24_4 1_555 1_555
C25_4 C24_4 1_555 1_555
H15_4 C25_4 1_555 1_555
C26_4 C25_4 1_555 1_555
C27_4 C26_4 1_555 1_555
H16_4 C27_4 1_555 1_555
C28_4 C23_4 1_555 1_555
H17_4 C28_4 1_555 1_555
C29_4 C26_4 1_555 1_555
O15_3 C38_4 1_555 1_555
H21_4 C36_4 1_555 1_555
H22_4 C37_4 1_555 1_555
C27_4 C28_4 1_555 1_555
C36_4 C37_4 1_555 1_555
In5 O3_7 1_555 1_555
O14 C10_4 1_555 1_555
O20 C10_4 1_555 1_555
O3_7 In7 1_555 1_555
N1_5 In5 1_555 1_555
C1_4 N1_5 1_555 1_555
H1_4 C1_4 1_555 1_555
C2_4 C1_4 1_555 1_555
C3_5 C2_4 1_555 1_555
H2_5 C3_5 1_555 1_555
C4_4 C2_4 1_555 1_555
C5_4 C4_4 1_555 1_555
H3_4 C5_4 1_555 1_555
C6_4 C5_4 1_555 1_555
H4_4 C6_4 1_555 1_555
C7_4 C6_4 1_555 1_555
C8_4 C7_4 1_555 1_555
H5_4 C8_4 1_555 1_555
C9_4 C4_4 1_555 1_555
H6_4 C9_4 1_555 1_555
C10_4 C7_4 1_555 1_555
O16_3 C19_4 1_555 1_555
O22_3 C19_4 1_555 1_555
C11_4 N1_5 1_555 1_555
H7_4 C11_4 1_555 1_555
C12_4 C3_5 1_555 1_555
C13_4 C12_4 1_555 1_555
C14_4 C13_4 1_555 1_555
H8_4 C14_4 1_555 1_555
C15_4 C14_4 1_555 1_555
H9_4 C15_4 1_555 1_555
C16_4 C15_4 1_555 1_555
C17_4 C16_4 1_555 1_555
H10_4 C17_4 1_555 1_555
C18_4 C13_4 1_555 1_555
H11_4 C18_4 1_555 1_555
C19_4 C16_4 1_555 1_555
In7 N2_4 1_555 1_555
N2_4 C20_4 1_555 1_555
C20_4 H12_4 1_555 1_555
C30_4 N2_4 1_555 1_555
H18_4 C30_4 1_555 1_555
C32_4 C31_4 1_555 1_555
C33_4 C32_4 1_555 1_555
H19_4 C33_4 1_555 1_555
C34_4 C33_4 1_555 1_555
H20_4 C34_4 1_555 1_555
C35_4 C34_4 1_555 1_555
In9 O3_7 1_555 1_555
N3_5 In9 1_555 1_555
C39_4 N3_5 1_555 1_555
H23_4 C39_4 1_555 1_555
C49_4 N3_5 1_555 1_555
H29_4 C49_4 1_555 1_555
C51_4 C50_4 1_555 1_555
C52_4 C51_4 1_555 1_555
H30_4 C52_4 1_555 1_555
C53_4 C52_4 1_555 1_555
H31_4 C53_4 1_555 1_555
C54_4 C53_4 1_555 1_555
C8_4 C9_4 1_555 1_555
C11_4 C12_4 1_555 1_555
C17_4 C18_4 1_555 1_555
C30_4 C31_4 1_555 1_555
C49_4 C50_4 1_555 1_555
O16 C48_4 1_555 1_555
O22 C48_4 1_555 1_555
C41_5 C40_4 1_555 1_555
H24_5 C41_5 1_555 1_555
C42_4 C40_4 1_555 1_555
C43_4 C42_4 1_555 1_555
H25_4 C43_4 1_555 1_555
C44_4 C43_4 1_555 1_555
H26_4 C44_4 1_555 1_555
C45_4 C44_4 1_555 1_555
C46_4 C45_4 1_555 1_555
H27_4 C46_4 1_555 1_555
C47_4 C42_4 1_555 1_555
H28_4 C47_4 1_555 1_555
C48_4 C45_4 1_555 1_555
O14_3 C57_4 1_555 1_555
H32_4 C55_4 1_555 1_555
H33_4 C56_4 1_555 1_555
C46_4 C47_4 1_555 1_555
C55_4 C56_4 1_555 1_555
C22_5 C21_5 1_555 1_555
H13_5 C22_5 1_555 1_555
C23_5 C21_5 1_555 1_555
C24_5 C23_5 1_555 1_555
H14_5 C24_5 1_555 1_555
C25_5 C24_5 1_555 1_555
C28_5 C23_5 1_555 1_555
H17_5 C28_5 1_555 1_555
O18_3 C38_5 1_555 1_555
H21_5 C36_5 1_555 1_555
H22_5 C37_5 1_555 1_555
C27_5 C28_5 1_555 1_555
C36_5 C37_5 1_555 1_555
O15_2 C29_5 1_555 1_555
O21_2 C29_5 1_555 1_555
C29_5 C26_5 1_555 1_555
In5_2 O3_8 1_555 1_555
O3_8 In7_2 1_555 1_555
N1_6 In5_2 1_555 1_555
C1_5 N1_6 1_555 1_555
H1_5 C1_5 1_555 1_555
C2_5 C1_5 1_555 1_555
C3_6 C2_5 1_555 1_555
H2_6 C3_6 1_555 1_555
C4_5 C2_5 1_555 1_555
C5_5 C4_5 1_555 1_555
H3_5 C5_5 1_555 1_555
C6_5 C5_5 1_555 1_555
C9_5 C4_5 1_555 1_555
H6_5 C9_5 1_555 1_555
O19_3 C19_5 1_555 1_555
O25_3 C19_5 1_555 1_555
C11_5 N1_6 1_555 1_555
H7_5 C11_5 1_555 1_555
C12_5 C3_6 1_555 1_555
C13_5 C12_5 1_555 1_555
C14_5 C13_5 1_555 1_555
H8_5 C14_5 1_555 1_555
C15_5 C14_5 1_555 1_555
H9_5 C15_5 1_555 1_555
C16_5 C15_5 1_555 1_555
C17_5 C16_5 1_555 1_555
H10_5 C17_5 1_555 1_555
C18_5 C13_5 1_555 1_555
H11_5 C18_5 1_555 1_555
C19_5 C16_5 1_555 1_555
In7_2 N2_5 1_555 1_555
N2_5 C20_5 1_555 1_555
C20_5 H12_5 1_555 1_555
C30_5 N2_5 1_555 1_555
H18_5 C30_5 1_555 1_555
C32_5 C31_5 1_555 1_555
C33_5 C32_5 1_555 1_555
H19_5 C33_5 1_555 1_555
C34_5 C33_5 1_555 1_555
H20_5 C34_5 1_555 1_555
C35_5 C34_5 1_555 1_555
In9_2 O3_8 1_555 1_555
N3_6 In9_2 1_555 1_555
C39_5 N3_6 1_555 1_555
H23_5 C39_5 1_555 1_555
C49_5 N3_6 1_555 1_555
H29_5 C49_5 1_555 1_555
C51_5 C50_5 1_555 1_555
C52_5 C51_5 1_555 1_555
H30_5 C52_5 1_555 1_555
C53_5 C52_5 1_555 1_555
H31_5 C53_5 1_555 1_555
C54_5 C53_5 1_555 1_555
C8_5 C9_5 1_555 1_555
C11_5 C12_5 1_555 1_555
C17_5 C18_5 1_555 1_555
C30_5 C31_5 1_555 1_555
C49_5 C50_5 1_555 1_555
O14_2 C10_5 1_555 1_555
O20_2 C10_5 1_555 1_555
C10_5 C7_5 1_555 1_555
C41_6 C40_5 1_555 1_555
H24_6 C41_6 1_555 1_555
C42_5 C40_5 1_555 1_555
C43_5 C42_5 1_555 1_555
H25_5 C43_5 1_555 1_555
C44_5 C43_5 1_555 1_555
C47_5 C42_5 1_555 1_555
H28_5 C47_5 1_555 1_555
O17_3 C57_5 1_555 1_555
H32_5 C55_5 1_555 1_555
H33_5 C56_5 1_555 1_555
C46_5 C47_5 1_555 1_555
C55_5 C56_5 1_555 1_555
O16_2 C48_5 1_555 1_555
O22_2 C48_5 1_555 1_555
C48_5 C45_5 1_555 1_555
O3_9 In13 1_555 1_555
In13 N2_6 1_555 1_555
O18 C29_6 1_555 1_555
O24 C29_6 1_555 1_555
N2_6 C20_6 1_555 1_555
C20_6 H12_6 1_555 1_555
C21_6 C20_6 1_555 1_555
C22_6 C21_6 1_555 1_555
H13_6 C22_6 1_555 1_555
C23_6 C21_6 1_555 1_555
C24_6 C23_6 1_555 1_555
H14_6 C24_6 1_555 1_555
C25_6 C24_6 1_555 1_555
H15_6 C25_6 1_555 1_555
C26_6 C25_6 1_555 1_555
C27_6 C26_6 1_555 1_555
H16_6 C27_6 1_555 1_555
C28_6 C23_6 1_555 1_555
H17_6 C28_6 1_555 1_555
C29_6 C26_6 1_555 1_555
O18_2 C38_6 1_555 1_555
O24_2 C38_6 1_555 1_555
C30_6 N2_6 1_555 1_555
H18_6 C30_6 1_555 1_555
C31_6 C22_6 1_555 1_555
C32_6 C31_6 1_555 1_555
C33_6 C32_6 1_555 1_555
H19_6 C33_6 1_555 1_555
C34_6 C33_6 1_555 1_555
H20_6 C34_6 1_555 1_555
C35_6 C34_6 1_555 1_555
C36_6 C35_6 1_555 1_555
H21_6 C36_6 1_555 1_555
C37_6 C32_6 1_555 1_555
H22_6 C37_6 1_555 1_555
C38_6 C35_6 1_555 1_555
C27_6 C28_6 1_555 1_555
C30_6 C31_6 1_555 1_555
C36_6 C37_6 1_555 1_555
In11 O3_10 1_555 1_555
N3_7 In11 1_555 1_555
H24_7 C41_7 1_555 1_555
O17_2 C57_6 1_555 1_555
O23_2 C57_6 1_555 1_555
C49_6 N3_7 1_555 1_555
H29_6 C49_6 1_555 1_555
C50_6 C41_7 1_555 1_555
C51_6 C50_6 1_555 1_555
C52_6 C51_6 1_555 1_555
H30_6 C52_6 1_555 1_555
C53_6 C52_6 1_555 1_555
H31_6 C53_6 1_555 1_555
C54_6 C53_6 1_555 1_555
C55_6 C54_6 1_555 1_555
H32_6 C55_6 1_555 1_555
C56_6 C51_6 1_555 1_555
H33_6 C56_6 1_555 1_555
C57_6 C54_6 1_555 1_555
C49_6 C50_6 1_555 1_555
C55_6 C56_6 1_555 1_555
In15 O3_11 1_555 1_555
O17 C10_6 1_555 1_555
O23 C10_6 1_555 1_555
N1_7 In15 1_555 1_555
C1_6 N1_7 1_555 1_555
H1_6 C1_6 1_555 1_555
C2_6 C1_6 1_555 1_555
C3_7 C2_6 1_555 1_555
H2_7 C3_7 1_555 1_555
C4_6 C2_6 1_555 1_555
C5_6 C4_6 1_555 1_555
H3_6 C5_6 1_555 1_555
C6_6 C5_6 1_555 1_555
H4_6 C6_6 1_555 1_555
C7_6 C6_6 1_555 1_555
C8_6 C7_6 1_555 1_555
H5_6 C8_6 1_555 1_555
C9_6 C4_6 1_555 1_555
H6_6 C9_6 1_555 1_555
C10_6 C7_6 1_555 1_555
C8_6 C9_6 1_555 1_555
In15_2 O3_12 1_555 1_555
N1_8 In15_2 1_555 1_555
H2_8 C3_8 1_555 1_555
O19_2 C19_6 1_555 1_555
O25_2 C19_6 1_555 1_555
C11_6 N1_8 1_555 1_555
H7_6 C11_6 1_555 1_555
C12_6 C3_8 1_555 1_555
C13_6 C12_6 1_555 1_555
C14_6 C13_6 1_555 1_555
H8_6 C14_6 1_555 1_555
C15_6 C14_6 1_555 1_555
H9_6 C15_6 1_555 1_555
C16_6 C15_6 1_555 1_555
C17_6 C16_6 1_555 1_555
H10_6 C17_6 1_555 1_555
C18_6 C13_6 1_555 1_555
H11_6 C18_6 1_555 1_555
C19_6 C16_6 1_555 1_555
In11_2 O3_12 1_555 1_555
O19 C48_6 1_555 1_555
O25 C48_6 1_555 1_555
N3_8 In11_2 1_555 1_555
C39_6 N3_8 1_555 1_555
H23_6 C39_6 1_555 1_555
C40_6 C39_6 1_555 1_555
C41_8 C40_6 1_555 1_555
H24_8 C41_8 1_555 1_555
C42_6 C40_6 1_555 1_555
C43_6 C42_6 1_555 1_555
H25_6 C43_6 1_555 1_555
C44_6 C43_6 1_555 1_555
H26_6 C44_6 1_555 1_555
C45_6 C44_6 1_555 1_555
C46_6 C45_6 1_555 1_555
H27_6 C46_6 1_555 1_555
C47_6 C42_6 1_555 1_555
H28_6 C47_6 1_555 1_555
C48_6 C45_6 1_555 1_555
C11_6 C12_6 1_555 1_555
C17_6 C18_6 1_555 1_555
C46_6 C47_6 1_555 1_555

#END
