
###############################################################################
#
# This file contains modified crystal structure data generated from the
# MOF subset of the Cambridge Structural Database (CSD) v543 
# hosted by the Cambridge Crystallographic Data Centre (CCDC).
#
# This work is licensed under the Creative Commons
# Attribution-NonCommercial-ShareAlike 4.0 International License.
# To view a copy of this license, visit
# http://creativecommons.org/licenses/by-nc-sa/4.0/
# or send a letter to
# Creative Commons, PO Box 1866, Mountain View, CA 94042, USA.
#
# CIF created using the CSD Python API on 29 September 2022
# The structure has been converted into the P1 space group
# The structure has a 3D framework
# The original CSD entry DUPLOS is in the orthorhombic crystal system
# The framework has been calculated to contain at least 10.0% void space
# The void calculation uses a probe of radius 1.32A, grid spacing 0.4
# H atom positions have been added when not included in the experimental data
#
###############################################################################

data_DUPLOS
_chemical_formula_moiety         '(C240 H176 Co12 F80 N120 O256 V8 W72)n'
_symmetry_cell_setting           triclinic
_symmetry_space_group_name_H-M   'P 1'
_symmetry_Int_Tables_number      1
_space_group_name_Hall           'P 1'
loop_
_symmetry_equiv_pos_site_id
_symmetry_equiv_pos_as_xyz
1 x,y,z
_cell_length_a                   24.0649(6)
_cell_length_b                   30.3771(7)
_cell_length_c                   18.2553(5)
_cell_angle_alpha                90
_cell_angle_beta                 90
_cell_angle_gamma                90
_cell_volume                     13345
loop_
_atom_site_label
_atom_site_type_symbol
_atom_site_fract_x
_atom_site_fract_y
_atom_site_fract_z
F19 F 0.0618(4) 0.0053(3) 0.6933(6)
N30 N 0.0060(5) 0.1482(4) 0.5545(7)
H38 H 0.032938 0.082041 0.729754
C60 C 0.0276(6) 0.1292(5) 0.6122(9)
H40 H 0.063656 0.133638 0.628919
Co8 Co 0.03686(7) 0.20623(6) 0.50169(10)
F1 F 0.4651(4) 0.5766(3) 0.0584(5)
C3 C 0.3810(6) 0.5156(5) 0.0150(8)
H3 H 0.364163 0.489810 0.037109
H4 H 0.375121 0.540352 0.047673
C4 C 0.4426(7) 0.5079(5) 0.0056(8)
C5 C 0.4809(7) 0.5381(5) 0.0281(8)
F12 F 0.5731(4) 0.5601(3) 0.0510(5)
N16 N 0.6943(4) 0.4785(4) 0.1553(7)
N17 N 0.6435(5) 0.4344(4) 0.0840(8)
N18 N 0.6461(5) 0.4753(4) 0.0563(7)
C31 C 0.6739(7) 0.4378(5) 0.1432(8)
H21 H 0.680910 0.414118 0.174247
C32 C 0.6755(6) 0.5008(5) 0.0973(9)
H22 H 0.682659 0.530384 0.087943
C36 C 0.5366(6) 0.5303(5) 0.0249(8)
Co4 Co 0.750000 0.500000 0.23918(15)
V1 V 0.28690(8) 0.27691(6) 0.65730(12)
W1 W 0.15726(2) 0.22848(2) 0.61994(3)
W2 W 0.15852(2) 0.32785(2) 0.69811(3)
W3 W 0.41384(2) 0.33103(2) 0.70025(3)
W4 W 0.40934(2) 0.22037(2) 0.61322(3)
W5 W 0.29388(2) 0.38065(2) 0.74310(3)
W6 W 0.28847(2) 0.17162(2) 0.57196(3)
W7 W 0.36738(3) 0.32054(2) 0.50881(3)
W8 W 0.24545(3) 0.27141(2) 0.46937(3)
W9 W 0.24734(2) 0.37033(2) 0.54909(3)
Co1 Co 0.250000 0.500000 0.76082(15)
Co2 Co 0.53686(7) 0.20623(6) 0.49831(10)
F2 F 0.4269(4) 0.4399(3) 0.9490(5)
F3 F 0.4182(4) 0.4411(4) 0.3870(6)
F4 F 0.5142(5) 0.3969(3) 0.3815(6)
F5 F 0.5457(4) 0.4279(3) 0.6280(5)
F6 F 0.4491(5) 0.4670(4) 0.6387(5)
F7 F 0.6574(4) 0.0233(3) 0.7374(7)
F10 F 0.4772(4) 0.0775(3) 0.7009(6)
N1 N 0.3057(4) 0.5215(4) 0.8447(7)
N2 N 0.3565(5) 0.5656(4) 0.9160(8)
N3 N 0.3539(5) 0.5247(4) 0.9437(7)
N4 N 0.3090(4) 0.5125(3) 0.6766(6)
N5 N 0.3785(6) 0.5352(4) 0.6046(8)
N6 N 0.3550(6) 0.4978(4) 0.5779(7)
N7 N 0.5607(4) 0.2698(4) 0.5310(7)
N8 N 0.5998(7) 0.3252(5) 0.5940(8)
N9 N 0.5799(5) 0.3399(4) 0.5282(7)
N10 N 0.5825(5) 0.1699(4) 0.5763(8)
N11 N 0.6395(6) 0.1188(5) 0.6203(8)
N12 N 0.5954(5) 0.1250(4) 0.6654(7)
O1 O 0.4898(4) 0.2385(3) 0.4155(6)
O2 O 0.2801(4) 0.4354(3) 0.7607(5)
O3 O 0.2826(4) 0.3846(3) 0.6386(5)
O4 O 0.3005(3) 0.3614(3) 0.8394(5)
O5 O 0.3715(3) 0.3827(3) 0.7273(5)
O6 O 0.2204(4) 0.3558(3) 0.7429(5)
O7 O 0.3207(4) 0.3114(3) 0.7139(5)
O8 O 0.4799(4) 0.3505(3) 0.6955(5)
O9 O 0.3924(4) 0.3406(3) 0.6006(5)
O10 O 0.4229(4) 0.2713(3) 0.6731(5)
O11 O 0.4189(4) 0.3354(3) 0.4506(6)
O12 O 0.3182(4) 0.2920(3) 0.4398(5)
O13 O 0.3193(4) 0.3701(3) 0.5046(6)
O14 O 0.2863(4) 0.3022(3) 0.5722(5)
O15 O 0.2191(5) 0.2557(4) 0.3866(6)
O16 O 0.1879(4) 0.2585(3) 0.5360(5)
O17 O 0.2173(4) 0.1886(3) 0.6068(5)
O18 O 0.1028(4) 0.2028(3) 0.5733(5)
O19 O 0.1206(4) 0.2822(3) 0.6467(5)
O20 O 0.2198(4) 0.2703(3) 0.6801(6)
O21 O 0.1457(4) 0.2954(3) 0.7873(5)
O22 O 0.1057(4) 0.3648(3) 0.7103(6)
O23 O 0.1869(4) 0.3498(3) 0.6076(6)
O24 O 0.4157(3) 0.3144(3) 0.8021(5)
O25 O 0.2238(4) 0.4206(3) 0.5202(6)
O26 O 0.2225(4) 0.3314(3) 0.4734(6)
O27 O 0.4730(4) 0.2085(3) 0.5732(5)
O28 O 0.3210(4) 0.2285(3) 0.6462(5)
O29 O 0.3896(4) 0.2635(3) 0.5406(5)
O30 O 0.3684(3) 0.1772(3) 0.5624(5)
O31 O 0.2740(4) 0.1283(3) 0.5153(5)
O32 O 0.2808(4) 0.2181(3) 0.5037(5)
C1 C 0.3261(7) 0.5622(5) 0.8568(8)
H1 H 0.319090 0.585882 0.825753
C2 C 0.3245(6) 0.4992(5) 0.9027(9)
H2 H 0.317341 0.469616 0.912057
C6 C 0.4634(6) 0.4697(5) 0.9751(8)
C7 C 0.3489(6) 0.5438(5) 0.6629(9)
H5 H 0.354249 0.568554 0.692146
C8 C 0.3144(6) 0.4847(5) 0.6214(8)
H6 H 0.292751 0.459729 0.614179
C9 C 0.3732(6) 0.4775(6) 0.5092(9)
H7 H 0.373594 0.499916 0.471390
H8 H 0.346038 0.455476 0.495047
C10 C 0.4295(6) 0.4561(5) 0.5121(9)
C11 C 0.4496(7) 0.4369(6) 0.4495(9)
C12 C 0.4991(7) 0.4147(5) 0.4441(10)
C13 C 0.5315(6) 0.4108(4) 0.5059(9)
C14 C 0.5139(7) 0.4294(5) 0.5676(8)
C15 C 0.4627(7) 0.4520(5) 0.5726(9)
C16 C 0.5865(7) 0.3851(5) 0.5022(10)
H9 H 0.599726 0.384750 0.452026
H10 H 0.614146 0.400003 0.531906
C17 C 0.5573(8) 0.3054(6) 0.4922(10)
H11 H 0.541464 0.306926 0.445764
C18 C 0.5872(8) 0.2825(5) 0.5924(9)
H12 H 0.595899 0.263201 0.630250
C19 C 0.5632(6) 0.1560(5) 0.6402(9)
H13 H 0.531541 0.166626 0.663385
C20 C 0.6307(6) 0.1462(5) 0.5685(11)
H14 H 0.654734 0.149669 0.528997
C21 C 0.5892(7) 0.0990(5) 0.7312(8)
H15 H 0.563517 0.114049 0.763530
H16 H 0.624920 0.097902 0.755815
C22 C 0.5691(6) 0.0527(5) 0.7208(8)
C23 C 0.6034(7) 0.0177(6) 0.7253(9)
C26 C 0.4937(7) 0.0012(5) 0.7051(8)
C27 C 0.5130(7) 0.0441(5) 0.7079(8)
F11 F 0.5349(4) 0.4234(3) 0.9416(5)
C33 C 0.6190(6) 0.4844(5) 0.9850(8)
H23 H 0.635837 0.510190 0.962891
H24 H 0.624879 0.459648 0.952327
C34 C 0.5574(7) 0.4921(5) 0.9944(8)
C35 C 0.5191(7) 0.4619(5) 0.9719(8)
V2 V 0.21310(8) 0.72309(6) 0.65730(12)
W10 W 0.34274(2) 0.77152(2) 0.61994(3)
W11 W 0.34148(2) 0.67215(2) 0.69811(3)
W12 W 0.08616(2) 0.66897(2) 0.70025(3)
W13 W 0.09066(2) 0.77963(2) 0.61322(3)
W14 W 0.20612(2) 0.61935(2) 0.74310(3)
W15 W 0.21153(2) 0.82838(2) 0.57196(3)
W16 W 0.13262(3) 0.67946(2) 0.50881(3)
W17 W 0.25455(3) 0.72859(2) 0.46937(3)
W18 W 0.25266(2) 0.62967(2) 0.54909(3)
F13 F 0.0818(4) 0.5589(4) 0.3870(6)
F16 F 0.0509(5) 0.5330(4) 0.6387(5)
F20 F 0.0228(4) 0.9225(3) 0.7009(6)
N19 N 0.1910(4) 0.4875(3) 0.6766(6)
N20 N 0.1215(6) 0.4648(4) 0.6046(8)
N21 N 0.1450(6) 0.5022(4) 0.5779(7)
O33 O 0.0102(4) 0.7615(3) 0.4155(6)
O34 O 0.2199(4) 0.5646(3) 0.7607(5)
O35 O 0.2174(4) 0.6154(3) 0.6386(5)
O36 O 0.1995(3) 0.6386(3) 0.8394(5)
O37 O 0.1285(3) 0.6173(3) 0.7273(5)
O38 O 0.2796(4) 0.6442(3) 0.7429(5)
O39 O 0.1793(4) 0.6886(3) 0.7139(5)
O40 O 0.0201(4) 0.6495(3) 0.6955(5)
O41 O 0.1076(4) 0.6594(3) 0.6006(5)
O42 O 0.0771(4) 0.7287(3) 0.6731(5)
O43 O 0.0811(4) 0.6646(3) 0.4506(6)
O44 O 0.1818(4) 0.7080(3) 0.4398(5)
O45 O 0.1807(4) 0.6299(3) 0.5046(6)
O46 O 0.2137(4) 0.6978(3) 0.5722(5)
O47 O 0.2809(5) 0.7443(4) 0.3866(6)
O48 O 0.3121(4) 0.7415(3) 0.5360(5)
O49 O 0.2827(4) 0.8114(3) 0.6068(5)
O50 O 0.3972(4) 0.7972(3) 0.5733(5)
O51 O 0.3794(4) 0.7178(3) 0.6467(5)
O52 O 0.2802(4) 0.7297(3) 0.6801(6)
O53 O 0.3543(4) 0.7046(3) 0.7873(5)
O54 O 0.3943(4) 0.6352(3) 0.7103(6)
O55 O 0.3131(4) 0.6502(3) 0.6076(6)
O56 O 0.0843(3) 0.6856(3) 0.8021(5)
O57 O 0.2762(4) 0.5794(3) 0.5202(6)
O58 O 0.2775(4) 0.6686(3) 0.4734(6)
O59 O 0.0270(4) 0.7915(3) 0.5732(5)
O60 O 0.1790(4) 0.7715(3) 0.6462(5)
O61 O 0.1104(4) 0.7365(3) 0.5406(5)
O62 O 0.1316(3) 0.8228(3) 0.5624(5)
O63 O 0.2260(4) 0.8717(3) 0.5153(5)
O64 O 0.2192(4) 0.7819(3) 0.5037(5)
C37 C 0.1511(6) 0.4562(5) 0.6629(9)
H25 H 0.145751 0.431446 0.692146
C38 C 0.1856(6) 0.5153(5) 0.6214(8)
H26 H 0.207249 0.540271 0.614179
C39 C 0.1268(6) 0.5225(6) 0.5092(9)
H27 H 0.126406 0.500084 0.471390
H28 H 0.153962 0.544524 0.495047
C40 C 0.0705(6) 0.5439(5) 0.5121(9)
C41 C 0.0504(7) 0.5631(6) 0.4495(9)
C42 C 0.0009(7) 0.5853(5) 0.4441(10)
C45 C 0.0373(7) 0.5480(5) 0.5726(9)
C56 C 0.0063(7) 0.9988(5) 0.7051(8)
W19 W 0.15726(2) 0.27152(2) 0.88006(3)
W20 W 0.34274(2) 0.72848(2) 0.88006(3)
W21 W 0.40934(2) 0.27963(2) 0.88678(3)
W22 W 0.09066(2) 0.72037(2) 0.88678(3)
W23 W 0.28847(2) 0.32838(2) 0.92804(3)
W24 W 0.21153(2) 0.67162(2) 0.92804(3)
Co6 Co 0.46314(7) 0.79377(6) 0.50169(10)
N31 N 0.1943(4) 0.4785(4) 0.8447(7)
N32 N 0.5060(5) 0.1482(4) 0.4455(7)
O65 O 0.3005(3) 0.1386(3) 0.6606(5)
O66 O 0.1995(3) 0.8614(3) 0.6606(5)
O68 O 0.6028(4) 0.2028(3) 0.4267(5)
O69 O 0.1457(4) 0.2046(3) 0.7127(5)
O70 O 0.3543(4) 0.7954(3) 0.7127(5)
O71 O 0.4157(3) 0.1856(3) 0.6979(5)
O72 O 0.0843(3) 0.8144(3) 0.6979(5)
H42 H 0.0297578 0.783804 0.385223
H43 H 0.515082 0.256035 0.383929
H44 H 0.470242 0.216196 0.385223
F8 F 0.6194(4) 0.9415(3) 0.7323(6)
F9 F 0.4382(4) 0.9947(3) 0.6933(6)
N13 N 0.5572(5) 0.8949(4) 0.6051(8)
N14 N 0.5099(5) 0.8975(4) 0.6442(7)
N15 N 0.4940(5) 0.8518(4) 0.5545(7)
C24 C 0.5839(7) 0.9747(5) 0.7237(9)
C25 C 0.5279(6) 0.9659(5) 0.7135(7)
C28 C 0.5057(8) 0.9179(5) 0.7144(9)
H17 H 0.526636 0.900791 0.749794
H18 H 0.467062 0.917959 0.729754
C29 C 0.5457(6) 0.8685(5) 0.5515(8)
H19 H 0.570883 0.861665 0.514531
C30 C 0.4724(6) 0.8708(5) 0.6122(9)
H20 H 0.436344 0.866362 0.628919
Co3 Co 0.96314(7) 0.79377(6) 0.49831(10)
F14 F 0.9858(5) 0.6031(3) 0.3815(6)
F15 F 0.9543(4) 0.5721(3) 0.6280(5)
F17 F 0.8426(4) 0.9767(3) 0.7374(7)
N22 N 0.9393(4) 0.7302(4) 0.5310(7)
N23 N 0.9002(7) 0.6748(5) 0.5940(8)
N24 N 0.9201(5) 0.6601(4) 0.5282(7)
N25 N 0.9175(5) 0.8301(4) 0.5763(8)
N26 N 0.8605(6) 0.8812(5) 0.6203(8)
N27 N 0.9046(5) 0.8750(4) 0.6654(7)
C43 C 0.9685(6) 0.5892(4) 0.5059(9)
C44 C 0.9861(7) 0.5706(5) 0.5676(8)
C46 C 0.9135(7) 0.6149(5) 0.5022(10)
H29 H 0.900274 0.615250 0.452026
H30 H 0.885854 0.599997 0.531906
C47 C 0.9427(8) 0.6946(6) 0.4922(10)
H31 H 0.958536 0.693074 0.445764
C48 C 0.9128(8) 0.7175(5) 0.5924(9)
H32 H 0.904101 0.736799 0.630250
C49 C 0.9368(6) 0.8440(5) 0.6402(9)
H33 H 0.968459 0.833374 0.663385
C50 C 0.8693(6) 0.8538(5) 0.5685(11)
H34 H 0.845266 0.850331 0.528997
C51 C 0.9108(7) 0.9010(5) 0.7312(8)
H35 H 0.936483 0.885951 0.763530
H36 H 0.875080 0.902098 0.755815
C52 C 0.9309(6) 0.9473(5) 0.7208(8)
C53 C 0.8966(7) 0.9823(6) 0.7253(9)
C57 C 0.9870(7) 0.9559(5) 0.7079(8)
N33 N 0.9940(5) 0.8518(4) 0.4455(7)
O67 O 0.8972(4) 0.7972(3) 0.4267(5)
H41 H 0.984918 0.743965 0.383929
F1_2 F 0.0349(4) 0.4234(3) 0.0584(5)
C3_2 C 0.1190(6) 0.4844(5) 0.0150(8)
H3_2 H 0.135837 0.510190 0.037109
H4_2 H 0.124879 0.459648 0.047673
C4_2 C 0.0574(7) 0.4921(5) 0.0056(8)
C5_2 C 0.0191(7) 0.4619(5) 0.0281(8)
F2_2 F 0.0731(4) 0.5601(3) 0.9490(5)
N2_2 N 0.1435(5) 0.4344(4) 0.9160(8)
N3_2 N 0.1461(5) 0.4753(4) 0.9437(7)
C1_2 C 0.1739(7) 0.4378(5) 0.8568(8)
H1_2 H 0.180910 0.414118 0.825753
C2_2 C 0.1755(6) 0.5008(5) 0.9027(9)
H2_2 H 0.182659 0.530384 0.912057
C6_2 C 0.0366(6) 0.5303(5) 0.9751(8)
F12_2 F 0.9269(4) 0.4399(3) 0.0510(5)
N16_2 N 0.8057(4) 0.5215(4) 0.1553(7)
N17_2 N 0.8565(5) 0.5656(4) 0.0840(8)
N18_2 N 0.8539(5) 0.5247(4) 0.0563(7)
C31_2 C 0.8261(7) 0.5622(5) 0.1432(8)
H21_2 H 0.819090 0.585882 0.174247
C32_2 C 0.8245(6) 0.4992(5) 0.0973(9)
H22_2 H 0.817341 0.469616 0.087943
C36_2 C 0.9634(6) 0.4697(5) 0.0249(8)
F11_2 F 0.9651(4) 0.5766(3) 0.9416(5)
C33_2 C 0.8810(6) 0.5156(5) 0.9850(8)
H23_2 H 0.864163 0.489810 0.962891
H24_2 H 0.875121 0.540352 0.952327
C34_2 C 0.9426(7) 0.5079(5) 0.9944(8)
C35_2 C 0.9809(7) 0.5381(5) 0.9719(8)
W8_2 W 0.24545(3) 0.22859(2) 0.03063(3)
Co2_2 Co 0.53686(7) 0.29377(6) 0.00169(10)
F3_2 F 0.4182(4) 0.0589(4) 0.1130(6)
F4_2 F 0.5142(5) 0.1031(3) 0.1185(6)
O1_2 O 0.4898(4) 0.2615(3) 0.0845(6)
O11_2 O 0.4189(4) 0.1646(3) 0.0494(6)
O12_2 O 0.3182(4) 0.2080(3) 0.0602(5)
O15_2 O 0.2191(5) 0.2443(4) 0.1134(6)
O26_2 O 0.2225(4) 0.1686(3) 0.0266(6)
H7_2 H 0.373594 0.000084 0.028610
H8_2 H 0.346038 0.044524 0.004953
C11_2 C 0.4496(7) 0.0631(6) 0.0505(9)
C12_2 C 0.4991(7) 0.0853(5) 0.0559(10)
H9_2 H 0.599726 0.115250 0.047974
C17_2 C 0.5573(8) 0.1946(6) 0.0078(10)
H11_2 H 0.541464 0.193074 0.054236
N32_2 N 0.5060(5) 0.3518(4) 0.0545(7)
O68_2 O 0.6028(4) 0.2972(3) 0.0733(5)
H43_2 H 0.515082 0.243965 0.116071
H44_2 H 0.470242 0.283804 0.114777
V1_2 V 0.28690(8) 0.22309(6) 0.84270(12)
W2_2 W 0.15852(2) 0.17215(2) 0.80189(3)
W3_2 W 0.41384(2) 0.16897(2) 0.79975(3)
W5_2 W 0.29388(2) 0.11935(2) 0.75690(3)
W7_2 W 0.36738(3) 0.17946(2) 0.99119(3)
W9_2 W 0.24734(2) 0.12967(2) 0.95091(3)
Co1_2 Co 0.250000 0.000000 0.73918(15)
F2_3 F 0.4269(4) 0.0601(3) 0.5510(5)
F5_2 F 0.5457(4) 0.0721(3) 0.8720(5)
F6_2 F 0.4491(5) 0.0330(4) 0.8613(5)
F7_2 F 0.6574(4) 0.4767(3) 0.7626(7)
F8_2 F 0.6194(4) 0.5585(3) 0.7677(6)
F9_2 F 0.4382(4) 0.5053(3) 0.8067(6)
F10_2 F 0.4772(4) 0.4225(3) 0.7991(6)
N6_2 N 0.3550(6) 0.0022(4) 0.9221(7)
N7_2 N 0.5607(4) 0.2302(4) 0.9690(7)
N8_2 N 0.5998(7) 0.1748(5) 0.9060(8)
N9_2 N 0.5799(5) 0.1601(4) 0.9718(7)
N10_2 N 0.5825(5) 0.3301(4) 0.9237(8)
N11_2 N 0.6395(6) 0.3812(5) 0.8797(8)
N12_2 N 0.5954(5) 0.3750(4) 0.8346(7)
N13_2 N 0.5572(5) 0.6051(4) 0.8949(8)
N14_2 N 0.5099(5) 0.6025(4) 0.8558(7)
N15_2 N 0.4940(5) 0.6482(4) 0.9455(7)
O2_2 O 0.2801(4) 0.0646(3) 0.7393(5)
O3_2 O 0.2826(4) 0.1154(3) 0.8614(5)
O5_2 O 0.3715(3) 0.1173(3) 0.7727(5)
O6_2 O 0.2204(4) 0.1442(3) 0.7571(5)
O7_2 O 0.3207(4) 0.1886(3) 0.7861(5)
O8_2 O 0.4799(4) 0.1495(3) 0.8045(5)
O9_2 O 0.3924(4) 0.1594(3) 0.8994(5)
O10_2 O 0.4229(4) 0.2287(3) 0.8269(5)
O13_2 O 0.3193(4) 0.1299(3) 0.9954(6)
O14_2 O 0.2863(4) 0.1978(3) 0.9278(5)
O16_2 O 0.1879(4) 0.2415(3) 0.9640(5)
O17_2 O 0.2173(4) 0.3114(3) 0.8932(5)
O18_2 O 0.1028(4) 0.2972(3) 0.9267(5)
O19_2 O 0.1206(4) 0.2178(3) 0.8533(5)
O20_2 O 0.2198(4) 0.2297(3) 0.8199(6)
O22_2 O 0.1057(4) 0.1352(3) 0.7897(6)
O23_2 O 0.1869(4) 0.1502(3) 0.8924(6)
O25_2 O 0.2238(4) 0.0794(3) 0.9798(6)
O27_2 O 0.4730(4) 0.2915(3) 0.9268(5)
O28_2 O 0.3210(4) 0.2715(3) 0.8538(5)
O29_2 O 0.3896(4) 0.2365(3) 0.9594(5)
O30_2 O 0.3684(3) 0.3228(3) 0.9376(5)
O31_2 O 0.2740(4) 0.3717(3) 0.9847(5)
O32_2 O 0.2808(4) 0.2819(3) 0.9963(5)
C2_3 C 0.3245(6) 0.0008(5) 0.5973(9)
H2_3 H 0.317341 0.030384 0.587943
H3_3 H 0.364163 0.010190 0.462891
C6_3 C 0.4634(6) 0.0303(5) 0.5249(8)
C8_2 C 0.3144(6) 0.0153(5) 0.8786(8)
H6_2 H 0.292751 0.040271 0.885821
C9_2 C 0.3732(6) 0.0225(6) 0.9908(9)
C10_2 C 0.4295(6) 0.0439(5) 0.9879(9)
C13_2 C 0.5315(6) 0.0892(4) 0.9941(9)
C14_2 C 0.5139(7) 0.0706(5) 0.9324(8)
C15_2 C 0.4627(7) 0.0480(5) 0.9274(9)
C16_2 C 0.5865(7) 0.1149(5) 0.9978(10)
H10_2 H 0.614146 0.099997 0.968094
C18_2 C 0.5872(8) 0.2175(5) 0.9076(9)
H12_2 H 0.595899 0.236799 0.869750
C19_2 C 0.5632(6) 0.3440(5) 0.8598(9)
H13_2 H 0.531541 0.333374 0.836615
C20_2 C 0.6307(6) 0.3538(5) 0.9315(11)
H14_2 H 0.654734 0.350331 0.971003
C21_2 C 0.5892(7) 0.4010(5) 0.7688(8)
H15_2 H 0.563517 0.385951 0.736470
H16_2 H 0.624920 0.402098 0.744185
C22_2 C 0.5691(6) 0.4473(5) 0.7792(8)
C23_2 C 0.6034(7) 0.4823(6) 0.7747(9)
C24_2 C 0.5839(7) 0.5253(5) 0.7763(9)
C25_2 C 0.5279(6) 0.5341(5) 0.7865(7)
C26_2 C 0.4937(7) 0.4988(5) 0.7949(8)
C27_2 C 0.5130(7) 0.4559(5) 0.7921(8)
C28_2 C 0.5057(8) 0.5821(5) 0.7856(9)
H17_2 H 0.526636 0.599209 0.750206
H18_2 H 0.467062 0.582041 0.770246
C29_2 C 0.5457(6) 0.6315(5) 0.9485(8)
H19_2 H 0.570883 0.638335 0.985469
C30_2 C 0.4724(6) 0.6292(5) 0.8878(9)
H20_2 H 0.436344 0.633638 0.871081
F11_3 F 0.5349(4) 0.0766(3) 0.5584(5)
N16_3 N 0.6943(4) 0.0215(4) 0.3447(7)
N17_3 N 0.6435(5) 0.0656(4) 0.4160(8)
N18_3 N 0.6461(5) 0.0247(4) 0.4437(7)
C31_3 C 0.6739(7) 0.0622(5) 0.3568(8)
H21_3 H 0.680910 0.085882 0.325753
C33_3 C 0.6190(6) 0.0156(5) 0.5150(8)
H24_3 H 0.624879 0.040352 0.547673
C34_3 C 0.5574(7) 0.0079(5) 0.5056(8)
C35_3 C 0.5191(7) 0.0381(5) 0.5281(8)
N19_2 N 0.1910(4) 0.0125(3) 0.8234(6)
N20_2 N 0.1215(6) 0.0352(4) 0.8954(8)
C37_2 C 0.1511(6) 0.0438(5) 0.8371(9)
H25_2 H 0.145751 0.068554 0.807854
Co4_2 Co 0.750000 0.000000 0.26082(15)
Co5 Co 0.46314(7) 0.70623(6) 0.99831(10)
Co7 Co 0.03686(7) 0.29377(6) 0.99831(10)
N31_2 N 0.1943(4) 0.0215(4) 0.6553(7)
Co1_3 Co 0.250000 1.000000 0.73918(15)
F1_3 F 0.4651(4) 0.9234(3) 0.4416(5)
N1_2 N 0.3057(4) 0.9785(4) 0.6553(7)
N2_3 N 0.3565(5) 0.9344(4) 0.5840(8)
N3_3 N 0.3539(5) 0.9753(4) 0.5563(7)
N4_2 N 0.3090(4) 0.9875(3) 0.8234(6)
N5_2 N 0.3785(6) 0.9648(4) 0.8954(8)
C1_3 C 0.3261(7) 0.9378(5) 0.6432(8)
H1_3 H 0.319090 0.914118 0.674247
C3_3 C 0.3810(6) 0.9844(5) 0.4850(8)
H4_3 H 0.375121 0.959648 0.452327
C4_3 C 0.4426(7) 0.9921(5) 0.4944(8)
C5_3 C 0.4809(7) 0.9619(5) 0.4719(8)
C7_2 C 0.3489(6) 0.9562(5) 0.8371(9)
H5_2 H 0.354249 0.931446 0.807854
F12_3 F 0.5731(4) 0.9399(3) 0.4490(5)
C32_3 C 0.6755(6) 0.9992(5) 0.4027(9)
H22_3 H 0.682659 0.969616 0.412057
H23_3 H 0.635837 0.989810 0.537109
C36_3 C 0.5366(6) 0.9697(5) 0.4751(8)
V2_2 V 0.21310(8) 0.77691(6) 0.84270(12)
W11_2 W 0.34148(2) 0.82785(2) 0.80189(3)
W12_2 W 0.08616(2) 0.83103(2) 0.79975(3)
W14_2 W 0.20612(2) 0.88065(2) 0.75690(3)
W16_2 W 0.13262(3) 0.82054(2) 0.99119(3)
W18_2 W 0.25266(2) 0.87033(2) 0.95091(3)
F16_2 F 0.0509(5) 0.9670(4) 0.8613(5)
F19_2 F 0.0618(4) 0.4947(3) 0.8067(6)
F20_2 F 0.0228(4) 0.5775(3) 0.7991(6)
N21_2 N 0.1450(6) 0.9978(4) 0.9221(7)
N30_2 N 0.0060(5) 0.3518(4) 0.9455(7)
O34_2 O 0.2199(4) 0.9354(3) 0.7393(5)
O35_2 O 0.2174(4) 0.8846(3) 0.8614(5)
O37_2 O 0.1285(3) 0.8827(3) 0.7727(5)
O38_2 O 0.2796(4) 0.8558(3) 0.7571(5)
O39_2 O 0.1793(4) 0.8114(3) 0.7861(5)
O40_2 O 0.0201(4) 0.8505(3) 0.8045(5)
O41_2 O 0.1076(4) 0.8406(3) 0.8994(5)
O42_2 O 0.0771(4) 0.7713(3) 0.8269(5)
O45_2 O 0.1807(4) 0.8701(3) 0.9954(6)
O46_2 O 0.2137(4) 0.8022(3) 0.9278(5)
O48_2 O 0.3121(4) 0.7585(3) 0.9640(5)
O49_2 O 0.2827(4) 0.6886(3) 0.8932(5)
O50_2 O 0.3972(4) 0.7028(3) 0.9267(5)
O51_2 O 0.3794(4) 0.7822(3) 0.8533(5)
O52_2 O 0.2802(4) 0.7703(3) 0.8199(6)
O54_2 O 0.3943(4) 0.8648(3) 0.7897(6)
O55_2 O 0.3131(4) 0.8498(3) 0.8924(6)
O57_2 O 0.2762(4) 0.9206(3) 0.9798(6)
O59_2 O 0.0270(4) 0.7085(3) 0.9268(5)
O60_2 O 0.1790(4) 0.7285(3) 0.8538(5)
O61_2 O 0.1104(4) 0.7635(3) 0.9594(5)
O62_2 O 0.1316(3) 0.6772(3) 0.9376(5)
O63_2 O 0.2260(4) 0.6283(3) 0.9847(5)
O64_2 O 0.2192(4) 0.7181(3) 0.9963(5)
C38_2 C 0.1856(6) 0.9847(5) 0.8786(8)
H26_2 H 0.207249 0.959729 0.885821
C39_2 C 0.1268(6) 0.9775(6) 0.9908(9)
C40_2 C 0.0705(6) 0.9561(5) 0.9879(9)
C45_2 C 0.0373(7) 0.9520(5) 0.9274(9)
C56_2 C 0.0063(7) 0.5012(5) 0.7949(8)
H38_2 H 0.032938 0.417959 0.770246
C60_2 C 0.0276(6) 0.3708(5) 0.8878(9)
H40_2 H 0.063656 0.366362 0.871081
Co4_3 Co 0.750000 1.000000 0.26082(15)
Co3_2 Co 0.96314(7) 0.70623(6) 0.00169(10)
F14_2 F 0.9858(5) 0.8969(3) 0.1185(6)
H29_2 H 0.900274 0.884750 0.047974
C47_2 C 0.9427(8) 0.8054(6) 0.0078(10)
H31_2 H 0.958536 0.806926 0.054236
N33_2 N 0.9940(5) 0.6482(4) 0.0545(7)
O67_2 O 0.8972(4) 0.7028(3) 0.0733(5)
H41_2 H 0.984918 0.756035 0.116071
F15_2 F 0.9543(4) 0.9279(3) 0.8720(5)
F17_2 F 0.8426(4) 0.5233(3) 0.7626(7)
F18 F 0.8806(4) 0.4415(3) 0.7677(6)
N22_2 N 0.9393(4) 0.7698(4) 0.9690(7)
N23_2 N 0.9002(7) 0.8252(5) 0.9060(8)
N24_2 N 0.9201(5) 0.8399(4) 0.9718(7)
N25_2 N 0.9175(5) 0.6699(4) 0.9237(8)
N26_2 N 0.8605(6) 0.6188(5) 0.8797(8)
N27_2 N 0.9046(5) 0.6250(4) 0.8346(7)
N28 N 0.9428(5) 0.3949(4) 0.8949(8)
N29 N 0.9901(5) 0.3975(4) 0.8558(7)
C43_2 C 0.9685(6) 0.9108(4) 0.9941(9)
C44_2 C 0.9861(7) 0.9294(5) 0.9324(8)
C46_2 C 0.9135(7) 0.8851(5) 0.9978(10)
H30_2 H 0.885854 0.900003 0.968094
C48_2 C 0.9128(8) 0.7825(5) 0.9076(9)
H32_2 H 0.904101 0.763201 0.869750
C49_2 C 0.9368(6) 0.6560(5) 0.8598(9)
H33_2 H 0.968459 0.666626 0.836615
C50_2 C 0.8693(6) 0.6462(5) 0.9315(11)
H34_2 H 0.845266 0.649669 0.971003
C51_2 C 0.9108(7) 0.5990(5) 0.7688(8)
H35_2 H 0.936483 0.614049 0.736470
H36_2 H 0.875080 0.597902 0.744185
C52_2 C 0.9309(6) 0.5527(5) 0.7792(8)
C53_2 C 0.8966(7) 0.5177(6) 0.7747(9)
C54 C 0.9161(7) 0.4747(5) 0.7763(9)
C55 C 0.9721(6) 0.4659(5) 0.7865(7)
C57_2 C 0.9870(7) 0.5441(5) 0.7921(8)
C58 C 0.9943(8) 0.4179(5) 0.7856(9)
H37 H 0.973364 0.400791 0.750206
C59 C 0.9543(6) 0.3685(5) 0.9485(8)
H39 H 0.929117 0.361665 0.985469
F1_4 F 0.0349(4) 0.0766(3) 0.4416(5)
N2_4 N 0.1435(5) 0.0656(4) 0.5840(8)
N3_4 N 0.1461(5) 0.0247(4) 0.5563(7)
C1_4 C 0.1739(7) 0.0622(5) 0.6432(8)
H1_4 H 0.180910 0.085882 0.674247
C3_4 C 0.1190(6) 0.0156(5) 0.4850(8)
H4_4 H 0.124879 0.040352 0.452327
C4_4 C 0.0574(7) 0.0079(5) 0.4944(8)
C5_4 C 0.0191(7) 0.0381(5) 0.4719(8)
F2_4 F 0.0731(4) 0.9399(3) 0.5510(5)
C2_4 C 0.1755(6) 0.9992(5) 0.5973(9)
H2_4 H 0.182659 0.969616 0.587943
H3_4 H 0.135837 0.989810 0.462891
C6_4 C 0.0366(6) 0.9697(5) 0.5249(8)
F12_4 F 0.9269(4) 0.0601(3) 0.4490(5)
C32_4 C 0.8245(6) 0.0008(5) 0.4027(9)
H22_4 H 0.817341 0.030384 0.412057
H23_4 H 0.864163 0.010190 0.537109
C36_4 C 0.9634(6) 0.0303(5) 0.4751(8)
F11_4 F 0.9651(4) 0.9234(3) 0.5584(5)
N16_4 N 0.8057(4) 0.9785(4) 0.3447(7)
N17_4 N 0.8565(5) 0.9344(4) 0.4160(8)
N18_4 N 0.8539(5) 0.9753(4) 0.4437(7)
C31_4 C 0.8261(7) 0.9378(5) 0.3568(8)
H21_4 H 0.819090 0.914118 0.325753
C33_4 C 0.8810(6) 0.9844(5) 0.5150(8)
H24_4 H 0.875121 0.959648 0.547673
C34_4 C 0.9426(7) 0.9921(5) 0.5056(8)
C35_4 C 0.9809(7) 0.9619(5) 0.5281(8)
F14_3 F 0.0142(5) 0.3969(3) 0.6185(6)
F15_3 F 0.0457(4) 0.4279(3) 0.3720(5)
F17_3 F 0.1574(4) 0.0233(3) 0.2626(7)
N22_3 N 0.0607(4) 0.2698(4) 0.4690(7)
N23_3 N 0.0998(7) 0.3252(5) 0.4060(8)
N24_3 N 0.0799(5) 0.3399(4) 0.4718(7)
N25_3 N 0.0825(5) 0.1699(4) 0.4237(8)
N26_3 N 0.1395(6) 0.1188(5) 0.3797(8)
N27_3 N 0.0954(5) 0.1250(4) 0.3346(7)
C43_3 C 0.0315(6) 0.4108(4) 0.4941(9)
C44_3 C 0.0139(7) 0.4294(5) 0.4324(8)
C46_3 C 0.0865(7) 0.3851(5) 0.4978(10)
H29_3 H 0.099726 0.384750 0.547974
H30_3 H 0.114146 0.400003 0.468094
C47_3 C 0.0573(8) 0.3054(6) 0.5078(10)
H31_3 H 0.041464 0.306926 0.554236
C48_3 C 0.0872(8) 0.2825(5) 0.4076(9)
H32_3 H 0.095899 0.263201 0.369750
C49_3 C 0.0632(6) 0.1560(5) 0.3598(9)
H33_3 H 0.031541 0.166626 0.336615
C50_3 C 0.1307(6) 0.1462(5) 0.4315(11)
H34_3 H 0.154734 0.149669 0.471003
C51_3 C 0.0892(7) 0.0990(5) 0.2688(8)
H35_3 H 0.063517 0.114049 0.236470
H36_3 H 0.124920 0.097902 0.244185
C52_3 C 0.0691(6) 0.0527(5) 0.2792(8)
C53_3 C 0.1034(7) 0.0177(6) 0.2747(9)
C57_3 C 0.0130(7) 0.0441(5) 0.2921(8)
H41_3 H 0.0150819 0.256035 0.616071
F8_3 F 0.3806(4) 0.0585(3) 0.2677(6)
F9_3 F 0.5618(4) 0.0053(3) 0.3067(6)
N13_3 N 0.4428(5) 0.1051(4) 0.3949(8)
N14_3 N 0.4901(5) 0.1025(4) 0.3558(7)
C24_3 C 0.4161(7) 0.0253(5) 0.2763(9)
C25_3 C 0.4721(6) 0.0341(5) 0.2865(7)
C28_3 C 0.4943(8) 0.0821(5) 0.2856(9)
H17_3 H 0.473364 0.099209 0.250206
H18_3 H 0.532938 0.082041 0.270246
C29_3 C 0.4543(6) 0.1315(5) 0.4485(8)
H19_3 H 0.429117 0.138335 0.485469
C30_3 C 0.5276(6) 0.1292(5) 0.3878(9)
H20_3 H 0.563656 0.133638 0.371081
V1_3 V 0.71310(8) 0.72309(6) 0.34270(12)
W1_2 W 0.84274(2) 0.77152(2) 0.38006(3)
W2_3 W 0.84148(2) 0.67215(2) 0.30189(3)
W3_3 W 0.58616(2) 0.66897(2) 0.29975(3)
W4_2 W 0.59066(2) 0.77963(2) 0.38678(3)
W5_3 W 0.70612(2) 0.61935(2) 0.25690(3)
W6_2 W 0.71153(2) 0.82838(2) 0.42804(3)
W7_3 W 0.63262(3) 0.67946(2) 0.49119(3)
W8_3 W 0.75455(3) 0.72859(2) 0.53063(3)
W9_3 W 0.75266(2) 0.62967(2) 0.45091(3)
F3_3 F 0.5818(4) 0.5589(4) 0.6130(6)
F4_3 F 0.4858(5) 0.6031(3) 0.6185(6)
F5_3 F 0.4543(4) 0.5721(3) 0.3720(5)
F6_3 F 0.5509(5) 0.5330(4) 0.3613(5)
F7_3 F 0.3426(4) 0.9767(3) 0.2626(7)
F10_3 F 0.5228(4) 0.9225(3) 0.2991(6)
N4_3 N 0.6910(4) 0.4875(3) 0.3234(6)
N5_3 N 0.6215(6) 0.4648(4) 0.3954(8)
N6_3 N 0.6450(6) 0.5022(4) 0.4221(7)
N7_3 N 0.4393(4) 0.7302(4) 0.4690(7)
N8_3 N 0.4002(7) 0.6748(5) 0.4060(8)
N9_3 N 0.4201(5) 0.6601(4) 0.4718(7)
N10_3 N 0.4175(5) 0.8301(4) 0.4237(8)
N11_3 N 0.3605(6) 0.8812(5) 0.3797(8)
N12_3 N 0.4046(5) 0.8750(4) 0.3346(7)
O1_3 O 0.5102(4) 0.7615(3) 0.5845(6)
O2_3 O 0.7199(4) 0.5646(3) 0.2393(5)
O3_3 O 0.7174(4) 0.6154(3) 0.3614(5)
O4_2 O 0.6995(3) 0.6386(3) 0.1606(5)
O5_3 O 0.6285(3) 0.6173(3) 0.2727(5)
O6_3 O 0.7796(4) 0.6442(3) 0.2571(5)
O7_3 O 0.6793(4) 0.6886(3) 0.2861(5)
O8_3 O 0.5201(4) 0.6495(3) 0.3045(5)
O9_3 O 0.6076(4) 0.6594(3) 0.3994(5)
O10_3 O 0.5771(4) 0.7287(3) 0.3269(5)
O11_3 O 0.5811(4) 0.6646(3) 0.5494(6)
O12_3 O 0.6818(4) 0.7080(3) 0.5602(5)
O13_3 O 0.6807(4) 0.6299(3) 0.4954(6)
O14_3 O 0.7137(4) 0.6978(3) 0.4278(5)
O15_3 O 0.7809(5) 0.7443(4) 0.6134(6)
O16_3 O 0.8121(4) 0.7415(3) 0.4640(5)
O17_3 O 0.7827(4) 0.8114(3) 0.3932(5)
O19_3 O 0.8794(4) 0.7178(3) 0.3533(5)
O20_3 O 0.7802(4) 0.7297(3) 0.3199(6)
O21_2 O 0.8543(4) 0.7046(3) 0.2127(5)
O22_3 O 0.8943(4) 0.6352(3) 0.2897(6)
O23_3 O 0.8131(4) 0.6502(3) 0.3924(6)
O24_2 O 0.5843(3) 0.6856(3) 0.1979(5)
O25_3 O 0.7762(4) 0.5794(3) 0.4798(6)
O26_3 O 0.7775(4) 0.6686(3) 0.5266(6)
O27_3 O 0.5270(4) 0.7915(3) 0.4268(5)
O28_3 O 0.6790(4) 0.7715(3) 0.3538(5)
O29_3 O 0.6104(4) 0.7365(3) 0.4594(5)
O30_3 O 0.6316(3) 0.8228(3) 0.4376(5)
O31_3 O 0.7260(4) 0.8717(3) 0.4847(5)
O32_3 O 0.7192(4) 0.7819(3) 0.4963(5)
C7_3 C 0.6511(6) 0.4562(5) 0.3371(9)
H5_3 H 0.645751 0.431446 0.307854
C8_3 C 0.6856(6) 0.5153(5) 0.3786(8)
H6_3 H 0.707249 0.540271 0.385821
C9_3 C 0.6268(6) 0.5225(6) 0.4908(9)
H7_3 H 0.626406 0.500084 0.528610
H8_3 H 0.653962 0.544524 0.504953
C10_3 C 0.5705(6) 0.5439(5) 0.4879(9)
C11_3 C 0.5504(7) 0.5631(6) 0.5505(9)
C12_3 C 0.5009(7) 0.5853(5) 0.5559(10)
C13_3 C 0.4685(6) 0.5892(4) 0.4941(9)
C14_3 C 0.4861(7) 0.5706(5) 0.4324(8)
C15_3 C 0.5373(7) 0.5480(5) 0.4274(9)
C16_3 C 0.4135(7) 0.6149(5) 0.4978(10)
H9_3 H 0.400274 0.615250 0.547974
H10_3 H 0.385854 0.599997 0.468094
C17_3 C 0.4427(8) 0.6946(6) 0.5078(10)
H11_3 H 0.458536 0.693074 0.554236
C18_3 C 0.4128(8) 0.7175(5) 0.4076(9)
H12_3 H 0.404101 0.736799 0.369750
C19_3 C 0.4368(6) 0.8440(5) 0.3598(9)
H13_3 H 0.468459 0.833374 0.336615
C20_3 C 0.3693(6) 0.8538(5) 0.4315(11)
H14_3 H 0.345266 0.850331 0.471003
C21_3 C 0.4108(7) 0.9010(5) 0.2688(8)
H15_3 H 0.436483 0.885951 0.236470
H16_3 H 0.375080 0.902098 0.244185
C22_3 C 0.4309(6) 0.9473(5) 0.2792(8)
C23_3 C 0.3966(7) 0.9823(6) 0.2747(9)
C26_3 C 0.5063(7) 0.9988(5) 0.2949(8)
C27_3 C 0.4870(7) 0.9559(5) 0.2921(8)
V2_3 V 0.78690(8) 0.27691(6) 0.34270(12)
W10_2 W 0.65726(2) 0.22848(2) 0.38006(3)
W11_3 W 0.65852(2) 0.32785(2) 0.30189(3)
W12_3 W 0.91384(2) 0.33103(2) 0.29975(3)
W13_2 W 0.90934(2) 0.22037(2) 0.38678(3)
W14_3 W 0.79388(2) 0.38065(2) 0.25690(3)
W15_2 W 0.78847(2) 0.17162(2) 0.42804(3)
W16_3 W 0.86738(3) 0.32054(2) 0.49119(3)
W17_2 W 0.74545(3) 0.27141(2) 0.53063(3)
W18_3 W 0.74734(2) 0.37033(2) 0.45091(3)
F13_2 F 0.9182(4) 0.4411(4) 0.6130(6)
F16_3 F 0.9491(5) 0.4670(4) 0.3613(5)
F20_3 F 0.9772(4) 0.0775(3) 0.2991(6)
N19_3 N 0.8090(4) 0.5125(3) 0.3234(6)
N20_3 N 0.8785(6) 0.5352(4) 0.3954(8)
N21_3 N 0.8550(6) 0.4978(4) 0.4221(7)
O33_2 O 0.9898(4) 0.2385(3) 0.5845(6)
O34_3 O 0.7801(4) 0.4354(3) 0.2393(5)
O35_3 O 0.7826(4) 0.3846(3) 0.3614(5)
O36_2 O 0.8005(3) 0.3614(3) 0.1606(5)
O37_3 O 0.8715(3) 0.3827(3) 0.2727(5)
O38_3 O 0.7204(4) 0.3558(3) 0.2571(5)
O39_3 O 0.8207(4) 0.3114(3) 0.2861(5)
O40_3 O 0.9799(4) 0.3505(3) 0.3045(5)
O41_3 O 0.8924(4) 0.3406(3) 0.3994(5)
O42_3 O 0.9229(4) 0.2713(3) 0.3269(5)
O43_2 O 0.9189(4) 0.3354(3) 0.5494(6)
O44_2 O 0.8182(4) 0.2920(3) 0.5602(5)
O45_3 O 0.8193(4) 0.3701(3) 0.4954(6)
O46_3 O 0.7863(4) 0.3022(3) 0.4278(5)
O47_2 O 0.7191(5) 0.2557(4) 0.6134(6)
O48_3 O 0.6879(4) 0.2585(3) 0.4640(5)
O49_3 O 0.7173(4) 0.1886(3) 0.3932(5)
O51_3 O 0.6206(4) 0.2822(3) 0.3533(5)
O52_3 O 0.7198(4) 0.2703(3) 0.3199(6)
O53_2 O 0.6457(4) 0.2954(3) 0.2127(5)
O54_3 O 0.6057(4) 0.3648(3) 0.2897(6)
O55_3 O 0.6869(4) 0.3498(3) 0.3924(6)
O56_2 O 0.9157(3) 0.3144(3) 0.1979(5)
O57_3 O 0.7238(4) 0.4206(3) 0.4798(6)
O58_2 O 0.7225(4) 0.3314(3) 0.5266(6)
O59_3 O 0.9730(4) 0.2085(3) 0.4268(5)
O60_3 O 0.8210(4) 0.2285(3) 0.3538(5)
O61_3 O 0.8896(4) 0.2635(3) 0.4594(5)
O62_3 O 0.8684(3) 0.1772(3) 0.4376(5)
O63_3 O 0.7740(4) 0.1283(3) 0.4847(5)
O64_3 O 0.7808(4) 0.2181(3) 0.4963(5)
C37_3 C 0.8489(6) 0.5438(5) 0.3371(9)
H25_3 H 0.854249 0.568554 0.307854
C38_3 C 0.8144(6) 0.4847(5) 0.3786(8)
H26_3 H 0.792751 0.459729 0.385821
C39_3 C 0.8732(6) 0.4775(6) 0.4908(9)
H27_2 H 0.873594 0.499916 0.528610
H28_2 H 0.846038 0.455476 0.504953
C40_3 C 0.9295(6) 0.4561(5) 0.4879(9)
C41_2 C 0.9496(7) 0.4369(6) 0.5505(9)
C42_2 C 0.9991(7) 0.4147(5) 0.5559(10)
C45_3 C 0.9627(7) 0.4520(5) 0.4274(9)
C56_3 C 0.9937(7) 0.0012(5) 0.2949(8)
W19_2 W 0.84274(2) 0.72848(2) 0.11994(3)
W20_2 W 0.65726(2) 0.27152(2) 0.11994(3)
W21_2 W 0.59066(2) 0.72037(2) 0.11322(3)
W22_2 W 0.90934(2) 0.27963(2) 0.11322(3)
W23_2 W 0.71153(2) 0.67162(2) 0.07196(3)
W24_2 W 0.78847(2) 0.32838(2) 0.07196(3)
O65_2 O 0.6995(3) 0.8614(3) 0.3394(5)
O66_2 O 0.8005(3) 0.1386(3) 0.3394(5)
O69_2 O 0.8543(4) 0.7954(3) 0.2873(5)
O70_2 O 0.6457(4) 0.2046(3) 0.2873(5)
O71_2 O 0.5843(3) 0.8144(3) 0.3021(5)
O72_2 O 0.9157(3) 0.1856(3) 0.3021(5)
H42_2 H 0.970242 0.216196 0.614777
H43_3 H 0.484918 0.743965 0.616071
H44_3 H 0.529758 0.783804 0.614777
F19_3 F 0.9382(4) 0.9947(3) 0.3067(6)
H38_3 H 0.967062 0.917959 0.270246
C60_3 C 0.9724(6) 0.8708(5) 0.3878(9)
H40_3 H 0.936344 0.866362 0.371081
F15_4 F 0.0457(4) 0.0721(3) 0.1280(5)
F17_4 F 0.1574(4) 0.4767(3) 0.2374(7)
F18_2 F 0.1194(4) 0.5585(3) 0.2323(6)
N22_4 N 0.0607(4) 0.2302(4) 0.0310(7)
N23_4 N 0.0998(7) 0.1748(5) 0.0940(8)
N24_4 N 0.0799(5) 0.1601(4) 0.0282(7)
N25_4 N 0.0825(5) 0.3301(4) 0.0763(8)
N26_4 N 0.1395(6) 0.3812(5) 0.1203(8)
N27_4 N 0.0954(5) 0.3750(4) 0.1654(7)
N28_2 N 0.0572(5) 0.6051(4) 0.1051(8)
N29_2 N 0.0099(5) 0.6025(4) 0.1442(7)
C43_4 C 0.0315(6) 0.0892(4) 0.0059(9)
C44_4 C 0.0139(7) 0.0706(5) 0.0676(8)
C46_4 C 0.0865(7) 0.1149(5) 0.0022(10)
H30_4 H 0.114146 0.099997 0.031906
C48_4 C 0.0872(8) 0.2175(5) 0.0924(9)
H32_4 H 0.095899 0.236799 0.130250
C49_4 C 0.0632(6) 0.3440(5) 0.1402(9)
H33_4 H 0.031541 0.333374 0.163385
C50_4 C 0.1307(6) 0.3538(5) 0.0685(11)
H34_4 H 0.154734 0.350331 0.028997
C51_4 C 0.0892(7) 0.4010(5) 0.2312(8)
H35_4 H 0.063517 0.385951 0.263530
H36_4 H 0.124920 0.402098 0.255815
C52_4 C 0.0691(6) 0.4473(5) 0.2208(8)
C53_4 C 0.1034(7) 0.4823(6) 0.2253(9)
C54_2 C 0.0839(7) 0.5253(5) 0.2237(9)
C55_2 C 0.0279(6) 0.5341(5) 0.2135(7)
C57_4 C 0.0130(7) 0.4559(5) 0.2079(8)
C58_2 C 0.0057(8) 0.5821(5) 0.2144(9)
H37_2 H 0.026636 0.599209 0.249794
C59_2 C 0.0457(6) 0.6315(5) 0.0515(8)
H39_2 H 0.070883 0.638335 0.014531
F14_4 F 0.0142(5) 0.1031(3) 0.8815(6)
H29_4 H 0.099726 0.115250 0.952026
C47_4 C 0.0573(8) 0.1946(6) 0.9922(10)
H31_4 H 0.041464 0.193074 0.945764
H41_4 H 0.0150819 0.243965 0.883929
N4_4 N 0.6910(4) 0.0125(3) 0.1766(6)
N5_4 N 0.6215(6) 0.0352(4) 0.1046(8)
C7_4 C 0.6511(6) 0.0438(5) 0.1629(9)
H5_4 H 0.645751 0.068554 0.192146
V2_4 V 0.78690(8) 0.22309(6) 0.15730(12)
W11_4 W 0.65852(2) 0.17215(2) 0.19811(3)
W12_4 W 0.91384(2) 0.16897(2) 0.20025(3)
W14_4 W 0.79388(2) 0.11935(2) 0.24310(3)
W16_4 W 0.86738(3) 0.17946(2) 0.00881(3)
W18_4 W 0.74734(2) 0.12967(2) 0.04909(3)
F16_4 F 0.9491(5) 0.0330(4) 0.1387(5)
F19_4 F 0.9382(4) 0.5053(3) 0.1933(6)
F20_4 F 0.9772(4) 0.4225(3) 0.2009(6)
N21_4 N 0.8550(6) 0.0022(4) 0.0779(7)
O34_4 O 0.7801(4) 0.0646(3) 0.2607(5)
O35_4 O 0.7826(4) 0.1154(3) 0.1386(5)
O37_4 O 0.8715(3) 0.1173(3) 0.2273(5)
O38_4 O 0.7204(4) 0.1442(3) 0.2429(5)
O39_4 O 0.8207(4) 0.1886(3) 0.2139(5)
O40_4 O 0.9799(4) 0.1495(3) 0.1955(5)
O41_4 O 0.8924(4) 0.1594(3) 0.1006(5)
O42_4 O 0.9229(4) 0.2287(3) 0.1731(5)
O45_4 O 0.8193(4) 0.1299(3) 0.0046(6)
O46_4 O 0.7863(4) 0.1978(3) 0.0722(5)
O48_4 O 0.6879(4) 0.2415(3) 0.0360(5)
O49_4 O 0.7173(4) 0.3114(3) 0.1068(5)
O51_4 O 0.6206(4) 0.2178(3) 0.1467(5)
O52_4 O 0.7198(4) 0.2297(3) 0.1801(6)
O54_4 O 0.6057(4) 0.1352(3) 0.2103(6)
O55_4 O 0.6869(4) 0.1502(3) 0.1076(6)
O57_4 O 0.7238(4) 0.0794(3) 0.0202(6)
O59_4 O 0.9730(4) 0.2915(3) 0.0732(5)
O60_4 O 0.8210(4) 0.2715(3) 0.1462(5)
O61_4 O 0.8896(4) 0.2365(3) 0.0406(5)
O62_4 O 0.8684(3) 0.3228(3) 0.0624(5)
O63_4 O 0.7740(4) 0.3717(3) 0.0153(5)
O64_4 O 0.7808(4) 0.2819(3) 0.0037(5)
C38_4 C 0.8144(6) 0.0153(5) 0.1214(8)
H26_4 H 0.792751 0.040271 0.114179
C39_4 C 0.8732(6) 0.0225(6) 0.0092(9)
C40_4 C 0.9295(6) 0.0439(5) 0.0121(9)
C45_4 C 0.9627(7) 0.0480(5) 0.0726(9)
C56_4 C 0.9937(7) 0.4988(5) 0.2051(8)
H38_4 H 0.967062 0.582041 0.229754
C60_4 C 0.9724(6) 0.6292(5) 0.1122(9)
H40_4 H 0.936344 0.633638 0.128919
V1_4 V 0.71310(8) 0.77691(6) 0.15730(12)
W2_4 W 0.84148(2) 0.82785(2) 0.19811(3)
W3_4 W 0.58616(2) 0.83103(2) 0.20025(3)
W5_4 W 0.70612(2) 0.88065(2) 0.24310(3)
W7_4 W 0.63262(3) 0.82054(2) 0.00881(3)
W9_4 W 0.75266(2) 0.87033(2) 0.04909(3)
F5_4 F 0.4543(4) 0.9279(3) 0.1280(5)
F6_4 F 0.5509(5) 0.9670(4) 0.1387(5)
F7_4 F 0.3426(4) 0.5233(3) 0.2374(7)
F8_4 F 0.3806(4) 0.4415(3) 0.2323(6)
F9_4 F 0.5618(4) 0.4947(3) 0.1933(6)
F10_4 F 0.5228(4) 0.5775(3) 0.2009(6)
N6_4 N 0.6450(6) 0.9978(4) 0.0779(7)
N7_4 N 0.4393(4) 0.7698(4) 0.0310(7)
N8_4 N 0.4002(7) 0.8252(5) 0.0940(8)
N9_4 N 0.4201(5) 0.8399(4) 0.0282(7)
N10_4 N 0.4175(5) 0.6699(4) 0.0763(8)
N11_4 N 0.3605(6) 0.6188(5) 0.1203(8)
N12_4 N 0.4046(5) 0.6250(4) 0.1654(7)
N13_4 N 0.4428(5) 0.3949(4) 0.1051(8)
N14_4 N 0.4901(5) 0.3975(4) 0.1442(7)
O2_4 O 0.7199(4) 0.9354(3) 0.2607(5)
O3_4 O 0.7174(4) 0.8846(3) 0.1386(5)
O5_4 O 0.6285(3) 0.8827(3) 0.2273(5)
O6_4 O 0.7796(4) 0.8558(3) 0.2429(5)
O7_4 O 0.6793(4) 0.8114(3) 0.2139(5)
O8_4 O 0.5201(4) 0.8505(3) 0.1955(5)
O9_4 O 0.6076(4) 0.8406(3) 0.1006(5)
O10_4 O 0.5771(4) 0.7713(3) 0.1731(5)
O13_4 O 0.6807(4) 0.8701(3) 0.0046(6)
O14_4 O 0.7137(4) 0.8022(3) 0.0722(5)
O16_4 O 0.8121(4) 0.7585(3) 0.0360(5)
O17_4 O 0.7827(4) 0.6886(3) 0.1068(5)
O19_4 O 0.8794(4) 0.7822(3) 0.1467(5)
O20_4 O 0.7802(4) 0.7703(3) 0.1801(6)
O22_4 O 0.8943(4) 0.8648(3) 0.2103(6)
O23_4 O 0.8131(4) 0.8498(3) 0.1076(6)
O25_4 O 0.7762(4) 0.9206(3) 0.0202(6)
O27_4 O 0.5270(4) 0.7085(3) 0.0732(5)
O28_4 O 0.6790(4) 0.7285(3) 0.1462(5)
O29_4 O 0.6104(4) 0.7635(3) 0.0406(5)
O30_4 O 0.6316(3) 0.6772(3) 0.0624(5)
O31_4 O 0.7260(4) 0.6283(3) 0.0153(5)
O32_4 O 0.7192(4) 0.7181(3) 0.0037(5)
C8_4 C 0.6856(6) 0.9847(5) 0.1214(8)
H6_4 H 0.707249 0.959729 0.114179
C9_4 C 0.6268(6) 0.9775(6) 0.0092(9)
C10_4 C 0.5705(6) 0.9561(5) 0.0121(9)
C13_4 C 0.4685(6) 0.9108(4) 0.0059(9)
C14_4 C 0.4861(7) 0.9294(5) 0.0676(8)
C15_4 C 0.5373(7) 0.9520(5) 0.0726(9)
C16_4 C 0.4135(7) 0.8851(5) 0.0022(10)
H10_4 H 0.385854 0.900003 0.031906
C18_4 C 0.4128(8) 0.7825(5) 0.0924(9)
H12_4 H 0.404101 0.763201 0.130250
C19_4 C 0.4368(6) 0.6560(5) 0.1402(9)
H13_4 H 0.468459 0.666626 0.163385
C20_4 C 0.3693(6) 0.6462(5) 0.0685(11)
H14_4 H 0.345266 0.649669 0.028997
C21_4 C 0.4108(7) 0.5990(5) 0.2312(8)
H15_4 H 0.436483 0.614049 0.263530
H16_4 H 0.375080 0.597902 0.255815
C22_4 C 0.4309(6) 0.5527(5) 0.2208(8)
C23_4 C 0.3966(7) 0.5177(6) 0.2253(9)
C24_4 C 0.4161(7) 0.4747(5) 0.2237(9)
C25_4 C 0.4721(6) 0.4659(5) 0.2135(7)
C26_4 C 0.5063(7) 0.5012(5) 0.2051(8)
C27_4 C 0.4870(7) 0.5441(5) 0.2079(8)
C28_4 C 0.4943(8) 0.4179(5) 0.2144(9)
H17_4 H 0.473364 0.400791 0.249794
H18_4 H 0.532938 0.417959 0.229754
C29_4 C 0.4543(6) 0.3685(5) 0.0515(8)
H19_4 H 0.429117 0.361665 0.014531
C30_4 C 0.5276(6) 0.3708(5) 0.1122(9)
H20_4 H 0.563656 0.366362 0.128919
N19_4 N 0.8090(4) 0.9875(3) 0.1766(6)
N20_4 N 0.8785(6) 0.9648(4) 0.1046(8)
C37_4 C 0.8489(6) 0.9562(5) 0.1629(9)
H25_4 H 0.854249 0.931446 0.192146
W8_4 W 0.75455(3) 0.77141(2) 0.96937(3)
F3_4 F 0.5818(4) 0.9411(4) 0.8870(6)
F4_4 F 0.4858(5) 0.8969(3) 0.8815(6)
O1_4 O 0.5102(4) 0.7385(3) 0.9155(6)
O11_4 O 0.5811(4) 0.8354(3) 0.9506(6)
O12_4 O 0.6818(4) 0.7920(3) 0.9398(5)
O15_4 O 0.7809(5) 0.7557(4) 0.8866(6)
O26_4 O 0.7775(4) 0.8314(3) 0.9734(6)
H7_4 H 0.626406 0.999916 0.971390
H8_4 H 0.653962 0.955476 0.995047
C11_4 C 0.5504(7) 0.9369(6) 0.9495(9)
C12_4 C 0.5009(7) 0.9147(5) 0.9441(10)
H9_4 H 0.400274 0.884750 0.952026
C17_4 C 0.4427(8) 0.8054(6) 0.9922(10)
H11_4 H 0.458536 0.806926 0.945764
H43_4 H 0.484918 0.756035 0.883929
H44_4 H 0.529758 0.716196 0.885223
F18_3 F 0.8806(4) 0.0585(3) 0.7323(6)
N28_3 N 0.9428(5) 0.1051(4) 0.6051(8)
N29_3 N 0.9901(5) 0.1025(4) 0.6442(7)
C54_3 C 0.9161(7) 0.0253(5) 0.7237(9)
C55_3 C 0.9721(6) 0.0341(5) 0.7135(7)
C58_3 C 0.9943(8) 0.0821(5) 0.7144(9)
H37_3 H 0.973364 0.099209 0.749794
C59_3 C 0.9543(6) 0.1315(5) 0.5515(8)
H39_3 H 0.929117 0.138335 0.514531
W17_3 W 0.25455(3) 0.77141(2) 0.03063(3)
F13_3 F 0.0818(4) 0.9411(4) 0.1130(6)
O33_3 O 0.0102(4) 0.7385(3) 0.0845(6)
O43_3 O 0.0811(4) 0.8354(3) 0.0494(6)
O44_3 O 0.1818(4) 0.7920(3) 0.0602(5)
O47_3 O 0.2809(5) 0.7557(4) 0.1134(6)
O58_3 O 0.2775(4) 0.8314(3) 0.0266(6)
H27_3 H 0.126406 0.999916 0.028610
H28_3 H 0.153962 0.955476 0.004953
C41_3 C 0.0504(7) 0.9369(6) 0.0505(9)
C42_3 C 0.0009(7) 0.9147(5) 0.0559(10)
H42_3 H 0.0297578 0.716196 0.114777
F18_4 F 0.1194(4) 0.9415(3) 0.2677(6)
N28_4 N 0.0572(5) 0.8949(4) 0.3949(8)
N29_4 N 0.0099(5) 0.8975(4) 0.3558(7)
C54_4 C 0.0839(7) 0.9747(5) 0.2763(9)
C55_4 C 0.0279(6) 0.9659(5) 0.2865(7)
C58_4 C 0.0057(8) 0.9179(5) 0.2856(9)
H37_4 H 0.026636 0.900791 0.250206
C59_4 C 0.0457(6) 0.8685(5) 0.4485(8)
H39_4 H 0.070883 0.861665 0.485469
W17_4 W 0.74545(3) 0.22859(2) 0.96937(3)
F13_4 F 0.9182(4) 0.0589(4) 0.8870(6)
O33_4 O 0.9898(4) 0.2615(3) 0.9155(6)
O43_4 O 0.9189(4) 0.1646(3) 0.9506(6)
O44_4 O 0.8182(4) 0.2080(3) 0.9398(5)
O47_4 O 0.7191(5) 0.2443(4) 0.8866(6)
O58_4 O 0.7225(4) 0.1686(3) 0.9734(6)
H27_4 H 0.873594 0.000084 0.971390
H28_4 H 0.846038 0.044524 0.995047
C41_4 C 0.9496(7) 0.0631(6) 0.9495(9)
C42_4 C 0.9991(7) 0.0853(5) 0.9441(10)
H42_4 H 0.970242 0.283804 0.885223
loop_
_geom_bond_atom_site_label_1
_geom_bond_atom_site_label_2
_geom_bond_site_symmetry_1
_geom_bond_site_symmetry_2
H40 C60 1_555 1_555
Co8 N30 1_555 1_555
N30 C60 1_555 1_555
F1 C5 1_555 1_555
H3 C3 1_555 1_555
H4 C3 1_555 1_555
C4 C3 1_555 1_555
C5 C4 1_555 1_555
F12 C36 1_555 1_555
N16 C31 1_555 1_555
N17 N18 1_555 1_555
N18 C32 1_555 1_555
C31 N17 1_555 1_555
H21 C31 1_555 1_555
C32 N16 1_555 1_555
H22 C32 1_555 1_555
C36 C5 1_555 1_555
Co4 N16 1_555 1_555
V1 O7 1_555 1_555
W1 O16 1_555 1_555
W2 O6 1_555 1_555
W3 O5 1_555 1_555
W4 O10 1_555 1_555
W5 O2 1_555 1_555
W6 O17 1_555 1_555
W7 O9 1_555 1_555
W8 O12 1_555 1_555
W9 O3 1_555 1_555
Co1 N1 1_555 1_555
Co2 N7 1_555 1_555
F2 C6 1_555 1_555
F3 C11 1_555 1_555
F4 C12 1_555 1_555
F5 C14 1_555 1_555
F6 C15 1_555 1_555
F7 C23 1_555 1_555
F10 C27 1_555 1_555
N1 C1 1_555 1_555
N2 N3 1_555 1_555
N3 C2 1_555 1_555
N4 Co1 1_555 1_555
N5 N6 1_555 1_555
N6 C8 1_555 1_555
N7 C17 1_555 1_555
N8 N9 1_555 1_555
N9 C16 1_555 1_555
N10 Co2 1_555 1_555
N11 N12 1_555 1_555
N12 C19 1_555 1_555
O1 Co2 1_555 1_555
O2 Co1 1_555 1_555
O3 W5 1_555 1_555
O4 W5 1_555 1_555
O5 W5 1_555 1_555
O6 W5 1_555 1_555
O7 W3 1_555 1_555
O8 W3 1_555 1_555
O9 W3 1_555 1_555
O10 W3 1_555 1_555
O11 W7 1_555 1_555
O12 W7 1_555 1_555
O13 W7 1_555 1_555
O14 V1 1_555 1_555
O15 W8 1_555 1_555
O16 W8 1_555 1_555
O17 W1 1_555 1_555
O18 W1 1_555 1_555
O19 W1 1_555 1_555
O20 V1 1_555 1_555
O21 W2 1_555 1_555
O22 W2 1_555 1_555
O23 W2 1_555 1_555
O24 W3 1_555 1_555
O25 W9 1_555 1_555
O26 W8 1_555 1_555
O27 W4 1_555 1_555
O28 V1 1_555 1_555
O29 W4 1_555 1_555
O30 W4 1_555 1_555
O31 W6 1_555 1_555
O32 W6 1_555 1_555
C1 N2 1_555 1_555
H1 C1 1_555 1_555
C2 N1 1_555 1_555
H2 C2 1_555 1_555
C7 N4 1_555 1_555
H5 C7 1_555 1_555
C8 N4 1_555 1_555
H6 C8 1_555 1_555
C9 N6 1_555 1_555
H7 C9 1_555 1_555
H8 C9 1_555 1_555
C10 C9 1_555 1_555
C11 C10 1_555 1_555
C12 C11 1_555 1_555
C13 C12 1_555 1_555
C14 C13 1_555 1_555
C15 C10 1_555 1_555
C16 C13 1_555 1_555
H9 C16 1_555 1_555
H10 C16 1_555 1_555
C17 N9 1_555 1_555
H11 C17 1_555 1_555
C18 N7 1_555 1_555
H12 C18 1_555 1_555
C19 N10 1_555 1_555
H13 C19 1_555 1_555
C20 N10 1_555 1_555
H14 C20 1_555 1_555
C21 N12 1_555 1_555
H15 C21 1_555 1_555
H16 C21 1_555 1_555
C22 C21 1_555 1_555
C23 C22 1_555 1_555
C27 C22 1_555 1_555
F11 C35 1_555 1_555
H23 C33 1_555 1_555
H24 C33 1_555 1_555
C34 C33 1_555 1_555
C35 C6 1_555 1_555
V2 O39 1_555 1_555
W10 O48 1_555 1_555
W11 O38 1_555 1_555
W12 O37 1_555 1_555
W13 O42 1_555 1_555
W14 O34 1_555 1_555
W15 O49 1_555 1_555
W16 O41 1_555 1_555
W17 O44 1_555 1_555
W18 O35 1_555 1_555
F13 C41 1_555 1_555
F16 C45 1_555 1_555
N19 Co1 1_555 1_555
N20 N21 1_555 1_555
N21 C38 1_555 1_555
O34 Co1 1_555 1_555
O35 W14 1_555 1_555
O36 W14 1_555 1_555
O37 W14 1_555 1_555
O38 W14 1_555 1_555
O39 W12 1_555 1_555
O40 W12 1_555 1_555
O41 W12 1_555 1_555
O42 W12 1_555 1_555
O43 W16 1_555 1_555
O44 W16 1_555 1_555
O45 W16 1_555 1_555
O46 V2 1_555 1_555
O47 W17 1_555 1_555
O48 W17 1_555 1_555
O49 W10 1_555 1_555
O50 W10 1_555 1_555
O51 W10 1_555 1_555
O52 V2 1_555 1_555
O53 W11 1_555 1_555
O54 W11 1_555 1_555
O55 W11 1_555 1_555
O56 W12 1_555 1_555
O57 W18 1_555 1_555
O58 W17 1_555 1_555
O59 W13 1_555 1_555
O60 V2 1_555 1_555
O61 W13 1_555 1_555
O62 W13 1_555 1_555
O63 W15 1_555 1_555
O64 W15 1_555 1_555
C37 N19 1_555 1_555
H25 C37 1_555 1_555
C38 N19 1_555 1_555
H26 C38 1_555 1_555
C39 N21 1_555 1_555
H27 C39 1_555 1_555
H28 C39 1_555 1_555
C40 C39 1_555 1_555
C41 C40 1_555 1_555
C42 C41 1_555 1_555
C45 C40 1_555 1_555
W19 O21 1_555 1_555
W20 O53 1_555 1_555
W21 O24 1_555 1_555
W22 O56 1_555 1_555
W23 O4 1_555 1_555
W24 O36 1_555 1_555
Co6 O50 1_555 1_555
Co8 O18 1_555 1_555
N31 Co1 1_555 1_555
N32 Co2 1_555 1_555
O65 W6 1_555 1_555
O66 W15 1_555 1_555
O68 Co2 1_555 1_555
O69 W1 1_555 1_555
O70 W10 1_555 1_555
O71 W4 1_555 1_555
O72 W13 1_555 1_555
W1 O20 1_555 1_555
W2 O19 1_555 1_555
W2 O20 1_555 1_555
W4 O28 1_555 1_555
W5 O7 1_555 1_555
W6 O28 1_555 1_555
W6 O30 1_555 1_555
W7 O14 1_555 1_555
W7 O29 1_555 1_555
W8 O14 1_555 1_555
W8 O32 1_555 1_555
W9 O13 1_555 1_555
W9 O14 1_555 1_555
W9 O23 1_555 1_555
W9 O26 1_555 1_555
Co2 O27 1_555 1_555
N5 C7 1_555 1_555
N8 C18 1_555 1_555
N11 C20 1_555 1_555
C14 C15 1_555 1_555
C26 C27 1_555 1_555
C34 C35 1_555 1_555
W10 O52 1_555 1_555
W11 O51 1_555 1_555
W11 O52 1_555 1_555
W13 O60 1_555 1_555
W14 O39 1_555 1_555
W15 O60 1_555 1_555
W15 O62 1_555 1_555
W16 O46 1_555 1_555
W16 O61 1_555 1_555
W17 O46 1_555 1_555
W17 O64 1_555 1_555
W18 O45 1_555 1_555
W18 O46 1_555 1_555
W18 O55 1_555 1_555
W18 O58 1_555 1_555
N20 C37 1_555 1_555
O33 H42 1_555 1_555
O1 H43 1_555 1_555
O1 H44 1_555 1_555
F8 C24 1_555 1_555
N13 N14 1_555 1_555
N14 C28 1_555 1_555
N15 C29 1_555 1_555
C25 C24 1_555 1_555
C28 C25 1_555 1_555
H17 C28 1_555 1_555
H18 C28 1_555 1_555
C29 N13 1_555 1_555
H19 C29 1_555 1_555
C30 N14 1_555 1_555
H20 C30 1_555 1_555
Co6 N15 1_555 1_555
N15 C30 1_555 1_555
Co3 N22 1_555 1_555
F15 C44 1_555 1_555
F17 C53 1_555 1_555
N22 C47 1_555 1_555
N23 N24 1_555 1_555
N24 C46 1_555 1_555
N25 Co3 1_555 1_555
N26 N27 1_555 1_555
N27 C49 1_555 1_555
C44 C43 1_555 1_555
C46 C43 1_555 1_555
H29 C46 1_555 1_555
H30 C46 1_555 1_555
C47 N24 1_555 1_555
H31 C47 1_555 1_555
C48 N22 1_555 1_555
H32 C48 1_555 1_555
C49 N25 1_555 1_555
H33 C49 1_555 1_555
C50 N25 1_555 1_555
H34 C50 1_555 1_555
C51 N27 1_555 1_555
H35 C51 1_555 1_555
H36 C51 1_555 1_555
C52 C51 1_555 1_555
C53 C52 1_555 1_555
C57 C52 1_555 1_555
N33 Co3 1_555 1_555
O67 Co3 1_555 1_555
N23 C48 1_555 1_555
N26 C50 1_555 1_555
F1_2 C5_2 1_555 1_555
H3_2 C3_2 1_555 1_555
H4_2 C3_2 1_555 1_555
C4_2 C3_2 1_555 1_555
C5_2 C4_2 1_555 1_555
F2_2 C6_2 1_555 1_555
N31 C1_2 1_555 1_555
N2_2 N3_2 1_555 1_555
N3_2 C2_2 1_555 1_555
C1_2 N2_2 1_555 1_555
H1_2 C1_2 1_555 1_555
C2_2 N31 1_555 1_555
H2_2 C2_2 1_555 1_555
F12_2 C36_2 1_555 1_555
N16_2 C31_2 1_555 1_555
N17_2 N18_2 1_555 1_555
N18_2 C32_2 1_555 1_555
C31_2 N17_2 1_555 1_555
H21_2 C31_2 1_555 1_555
C32_2 N16_2 1_555 1_555
H22_2 C32_2 1_555 1_555
Co4 N16_2 1_555 1_555
F11_2 C35_2 1_555 1_555
H23_2 C33_2 1_555 1_555
H24_2 C33_2 1_555 1_555
C34_2 C33_2 1_555 1_555
C34_2 C35_2 1_555 1_555
W8_2 O12_2 1_555 1_555
F3_2 C11_2 1_555 1_555
F4_2 C12_2 1_555 1_555
O1_2 Co2_2 1_555 1_555
O15_2 W8_2 1_555 1_555
O26_2 W8_2 1_555 1_555
C12_2 C11_2 1_555 1_555
H11_2 C17_2 1_555 1_555
N32_2 Co2_2 1_555 1_555
O68_2 Co2_2 1_555 1_555
O1_2 H43_2 1_555 1_555
O1_2 H44_2 1_555 1_555
V1_2 O7_2 1_555 1_555
W19 O16_2 1_555 1_555
W2_2 O6_2 1_555 1_555
W3_2 O5_2 1_555 1_555
W21 O10_2 1_555 1_555
W5_2 O2_2 1_555 1_555
W23 O17_2 1_555 1_555
W7_2 O9_2 1_555 1_555
W9_2 O3_2 1_555 1_555
F2_3 C6_3 1_555 1_555
F5_2 C14_2 1_555 1_555
F6_2 C15_2 1_555 1_555
F7_2 C23_2 1_555 1_555
F8_2 C24_2 1_555 1_555
F9_2 C26_2 1_555 1_555
F10_2 C27_2 1_555 1_555
N6_2 C8_2 1_555 1_555
N8_2 N9_2 1_555 1_555
N9_2 C16_2 1_555 1_555
N11_2 N12_2 1_555 1_555
N12_2 C19_2 1_555 1_555
N13_2 N14_2 1_555 1_555
N14_2 C28_2 1_555 1_555
N15_2 C29_2 1_555 1_555
O2_2 Co1_2 1_555 1_555
O3_2 W5_2 1_555 1_555
O65 W5_2 1_555 1_555
O5_2 W5_2 1_555 1_555
O6_2 W5_2 1_555 1_555
O7_2 W3_2 1_555 1_555
O8_2 W3_2 1_555 1_555
O9_2 W3_2 1_555 1_555
O10_2 W3_2 1_555 1_555
O13_2 W7_2 1_555 1_555
O14_2 V1_2 1_555 1_555
O17_2 W19 1_555 1_555
O18_2 W19 1_555 1_555
O19_2 W19 1_555 1_555
O20_2 V1_2 1_555 1_555
O69 W2_2 1_555 1_555
O22_2 W2_2 1_555 1_555
O23_2 W2_2 1_555 1_555
O71 W3_2 1_555 1_555
O25_2 W9_2 1_555 1_555
O27_2 W21 1_555 1_555
O28_2 V1_2 1_555 1_555
O29_2 W21 1_555 1_555
O30_2 W21 1_555 1_555
O31_2 W23 1_555 1_555
O32_2 W23 1_555 1_555
H2_3 C2_3 1_555 1_555
H6_2 C8_2 1_555 1_555
C9_2 N6_2 1_555 1_555
C10_2 C9_2 1_555 1_555
C14_2 C13_2 1_555 1_555
C15_2 C10_2 1_555 1_555
C16_2 C13_2 1_555 1_555
H10_2 C16_2 1_555 1_555
C18_2 N7_2 1_555 1_555
H12_2 C18_2 1_555 1_555
C19_2 N10_2 1_555 1_555
H13_2 C19_2 1_555 1_555
C20_2 N10_2 1_555 1_555
H14_2 C20_2 1_555 1_555
C21_2 N12_2 1_555 1_555
H15_2 C21_2 1_555 1_555
H16_2 C21_2 1_555 1_555
C22_2 C21_2 1_555 1_555
C23_2 C22_2 1_555 1_555
C24_2 C23_2 1_555 1_555
C25_2 C24_2 1_555 1_555
C26_2 C25_2 1_555 1_555
C27_2 C22_2 1_555 1_555
C28_2 C25_2 1_555 1_555
H17_2 C28_2 1_555 1_555
H18_2 C28_2 1_555 1_555
C29_2 N13_2 1_555 1_555
H19_2 C29_2 1_555 1_555
C30_2 N14_2 1_555 1_555
H20_2 C30_2 1_555 1_555
F11_3 C35_3 1_555 1_555
N16_3 C31_3 1_555 1_555
N17_3 N18_3 1_555 1_555
C31_3 N17_3 1_555 1_555
H21_3 C31_3 1_555 1_555
C33_3 N18_3 1_555 1_555
H24_3 C33_3 1_555 1_555
C34_3 C33_3 1_555 1_555
C35_3 C6_3 1_555 1_555
N19_2 Co1_2 1_555 1_555
C37_2 N19_2 1_555 1_555
H25_2 C37_2 1_555 1_555
Co4_2 N16_3 1_555 1_555
Co5 N15_2 1_555 1_555
Co7 O18_2 1_555 1_555
N31_2 Co1_2 1_555 1_555
W19 O20_2 1_555 1_555
W2_2 O19_2 1_555 1_555
W2_2 O20_2 1_555 1_555
W21 O28_2 1_555 1_555
W5_2 O7_2 1_555 1_555
W23 O28_2 1_555 1_555
W23 O30_2 1_555 1_555
W7_2 O14_2 1_555 1_555
W7_2 O29_2 1_555 1_555
W9_2 O13_2 1_555 1_555
W9_2 O14_2 1_555 1_555
W9_2 O23_2 1_555 1_555
N8_2 C18_2 1_555 1_555
N11_2 C20_2 1_555 1_555
N15_2 C30_2 1_555 1_555
C14_2 C15_2 1_555 1_555
C26_2 C27_2 1_555 1_555
C34_3 C35_3 1_555 1_555
N20_2 C37_2 1_555 1_555
Co1_3 N1_2 1_555 1_555
F1_3 C5_3 1_555 1_555
N1_2 C1_3 1_555 1_555
N2_3 N3_3 1_555 1_555
N4_2 Co1_3 1_555 1_555
C1_3 N2_3 1_555 1_555
H1_3 C1_3 1_555 1_555
C3_3 N3_3 1_555 1_555
H4_3 C3_3 1_555 1_555
C4_3 C3_3 1_555 1_555
C5_3 C4_3 1_555 1_555
C7_2 N4_2 1_555 1_555
H5_2 C7_2 1_555 1_555
F12_3 C36_3 1_555 1_555
H22_3 C32_3 1_555 1_555
C36_3 C5_3 1_555 1_555
V2_2 O39_2 1_555 1_555
W20 O48_2 1_555 1_555
W11_2 O38_2 1_555 1_555
W12_2 O37_2 1_555 1_555
W22 O42_2 1_555 1_555
W14_2 O34_2 1_555 1_555
W24 O49_2 1_555 1_555
W16_2 O41_2 1_555 1_555
W18_2 O35_2 1_555 1_555
F16_2 C45_2 1_555 1_555
F19_2 C56_2 1_555 1_555
N21_2 C38_2 1_555 1_555
O34_2 Co1_3 1_555 1_555
O35_2 W14_2 1_555 1_555
O66 W14_2 1_555 1_555
O37_2 W14_2 1_555 1_555
O38_2 W14_2 1_555 1_555
O39_2 W12_2 1_555 1_555
O40_2 W12_2 1_555 1_555
O41_2 W12_2 1_555 1_555
O42_2 W12_2 1_555 1_555
O45_2 W16_2 1_555 1_555
O46_2 V2_2 1_555 1_555
O49_2 W20 1_555 1_555
O50_2 W20 1_555 1_555
O51_2 W20 1_555 1_555
O52_2 V2_2 1_555 1_555
O70 W11_2 1_555 1_555
O54_2 W11_2 1_555 1_555
O55_2 W11_2 1_555 1_555
O72 W12_2 1_555 1_555
O57_2 W18_2 1_555 1_555
O59_2 W22 1_555 1_555
O60_2 V2_2 1_555 1_555
O61_2 W22 1_555 1_555
O62_2 W22 1_555 1_555
O63_2 W24 1_555 1_555
O64_2 W24 1_555 1_555
H26_2 C38_2 1_555 1_555
C39_2 N21_2 1_555 1_555
C40_2 C39_2 1_555 1_555
C45_2 C40_2 1_555 1_555
H40_2 C60_2 1_555 1_555
Co5 O50_2 1_555 1_555
Co7 N30_2 1_555 1_555
N5_2 C7_2 1_555 1_555
W20 O52_2 1_555 1_555
W11_2 O51_2 1_555 1_555
W11_2 O52_2 1_555 1_555
W22 O60_2 1_555 1_555
W14_2 O39_2 1_555 1_555
W24 O60_2 1_555 1_555
W24 O62_2 1_555 1_555
W16_2 O46_2 1_555 1_555
W16_2 O61_2 1_555 1_555
W18_2 O45_2 1_555 1_555
W18_2 O46_2 1_555 1_555
W18_2 O55_2 1_555 1_555
N30_2 C60_2 1_555 1_555
H31_2 C47_2 1_555 1_555
N33_2 Co3_2 1_555 1_555
O67_2 Co3_2 1_555 1_555
F15_2 C44_2 1_555 1_555
F17_2 C53_2 1_555 1_555
F18 C54 1_555 1_555
N23_2 N24_2 1_555 1_555
N24_2 C46_2 1_555 1_555
N26_2 N27_2 1_555 1_555
N27_2 C49_2 1_555 1_555
N28 N29 1_555 1_555
N29 C58 1_555 1_555
C44_2 C43_2 1_555 1_555
C46_2 C43_2 1_555 1_555
H30_2 C46_2 1_555 1_555
C48_2 N22_2 1_555 1_555
H32_2 C48_2 1_555 1_555
C49_2 N25_2 1_555 1_555
H33_2 C49_2 1_555 1_555
C50_2 N25_2 1_555 1_555
H34_2 C50_2 1_555 1_555
C51_2 N27_2 1_555 1_555
H35_2 C51_2 1_555 1_555
H36_2 C51_2 1_555 1_555
C52_2 C51_2 1_555 1_555
C53_2 C52_2 1_555 1_555
C54 C53_2 1_555 1_555
C55 C54 1_555 1_555
C57_2 C52_2 1_555 1_555
C58 C55 1_555 1_555
H37 C58 1_555 1_555
C59 N28 1_555 1_555
H39 C59 1_555 1_555
N23_2 C48_2 1_555 1_555
N26_2 C50_2 1_555 1_555
F1_4 C5_4 1_555 1_555
N31_2 C1_4 1_555 1_555
N2_4 N3_4 1_555 1_555
C1_4 N2_4 1_555 1_555
H1_4 C1_4 1_555 1_555
C3_4 N3_4 1_555 1_555
H4_4 C3_4 1_555 1_555
C4_4 C3_4 1_555 1_555
C5_4 C4_4 1_555 1_555
F2_4 C6_4 1_555 1_555
H2_4 C2_4 1_555 1_555
F12_4 C36_4 1_555 1_555
H22_4 C32_4 1_555 1_555
F11_4 C35_4 1_555 1_555
N16_4 C31_4 1_555 1_555
N17_4 N18_4 1_555 1_555
C31_4 N17_4 1_555 1_555
H21_4 C31_4 1_555 1_555
C33_4 N18_4 1_555 1_555
H24_4 C33_4 1_555 1_555
C34_4 C33_4 1_555 1_555
Co4_3 N16_4 1_555 1_555
C34_4 C35_4 1_555 1_555
Co8 N22_3 1_555 1_555
F15_3 C44_3 1_555 1_555
F17_3 C53_3 1_555 1_555
N22_3 C47_3 1_555 1_555
N23_3 N24_3 1_555 1_555
N24_3 C46_3 1_555 1_555
N25_3 Co8 1_555 1_555
N26_3 N27_3 1_555 1_555
N27_3 C49_3 1_555 1_555
C44_3 C43_3 1_555 1_555
C46_3 C43_3 1_555 1_555
H29_3 C46_3 1_555 1_555
H30_3 C46_3 1_555 1_555
C47_3 N24_3 1_555 1_555
H31_3 C47_3 1_555 1_555
C48_3 N22_3 1_555 1_555
H32_3 C48_3 1_555 1_555
C49_3 N25_3 1_555 1_555
H33_3 C49_3 1_555 1_555
C50_3 N25_3 1_555 1_555
H34_3 C50_3 1_555 1_555
C51_3 N27_3 1_555 1_555
H35_3 C51_3 1_555 1_555
H36_3 C51_3 1_555 1_555
C52_3 C51_3 1_555 1_555
C53_3 C52_3 1_555 1_555
C57_3 C52_3 1_555 1_555
N23_3 C48_3 1_555 1_555
N26_3 C50_3 1_555 1_555
F8_3 C24_3 1_555 1_555
N13_3 N14_3 1_555 1_555
N14_3 C28_3 1_555 1_555
N32 C29_3 1_555 1_555
C25_3 C24_3 1_555 1_555
C28_3 C25_3 1_555 1_555
H17_3 C28_3 1_555 1_555
H18_3 C28_3 1_555 1_555
C29_3 N13_3 1_555 1_555
H19_3 C29_3 1_555 1_555
C30_3 N14_3 1_555 1_555
H20_3 C30_3 1_555 1_555
N32 C30_3 1_555 1_555
V1_3 O7_3 1_555 1_555
W1_2 O16_3 1_555 1_555
W2_3 O6_3 1_555 1_555
W3_3 O5_3 1_555 1_555
W4_2 O10_3 1_555 1_555
W5_3 O2_3 1_555 1_555
W6_2 O17_3 1_555 1_555
W7_3 O9_3 1_555 1_555
W8_3 O12_3 1_555 1_555
W9_3 O3_3 1_555 1_555
Co6 N7_3 1_555 1_555
F3_3 C11_3 1_555 1_555
F4_3 C12_3 1_555 1_555
F5_3 C14_3 1_555 1_555
F6_3 C15_3 1_555 1_555
F7_3 C23_3 1_555 1_555
F10_3 C27_3 1_555 1_555
N4_3 Co4 1_555 1_555
N5_3 N6_3 1_555 1_555
N6_3 C8_3 1_555 1_555
N7_3 C17_3 1_555 1_555
N8_3 N9_3 1_555 1_555
N9_3 C16_3 1_555 1_555
N10_3 Co6 1_555 1_555
N11_3 N12_3 1_555 1_555
N12_3 C19_3 1_555 1_555
O1_3 Co6 1_555 1_555
O2_3 Co4 1_555 1_555
O3_3 W5_3 1_555 1_555
O4_2 W5_3 1_555 1_555
O5_3 W5_3 1_555 1_555
O6_3 W5_3 1_555 1_555
O7_3 W3_3 1_555 1_555
O8_3 W3_3 1_555 1_555
O9_3 W3_3 1_555 1_555
O10_3 W3_3 1_555 1_555
O11_3 W7_3 1_555 1_555
O12_3 W7_3 1_555 1_555
O13_3 W7_3 1_555 1_555
O14_3 V1_3 1_555 1_555
O15_3 W8_3 1_555 1_555
O16_3 W8_3 1_555 1_555
O17_3 W1_2 1_555 1_555
O67 W1_2 1_555 1_555
O19_3 W1_2 1_555 1_555
O20_3 V1_3 1_555 1_555
O21_2 W2_3 1_555 1_555
O22_3 W2_3 1_555 1_555
O23_3 W2_3 1_555 1_555
O24_2 W3_3 1_555 1_555
O25_3 W9_3 1_555 1_555
O26_3 W8_3 1_555 1_555
O27_3 W4_2 1_555 1_555
O28_3 V1_3 1_555 1_555
O29_3 W4_2 1_555 1_555
O30_3 W4_2 1_555 1_555
O31_3 W6_2 1_555 1_555
O32_3 W6_2 1_555 1_555
C7_3 N4_3 1_555 1_555
H5_3 C7_3 1_555 1_555
C8_3 N4_3 1_555 1_555
H6_3 C8_3 1_555 1_555
C9_3 N6_3 1_555 1_555
H7_3 C9_3 1_555 1_555
H8_3 C9_3 1_555 1_555
C10_3 C9_3 1_555 1_555
C11_3 C10_3 1_555 1_555
C12_3 C11_3 1_555 1_555
C13_3 C12_3 1_555 1_555
C14_3 C13_3 1_555 1_555
C15_3 C10_3 1_555 1_555
C16_3 C13_3 1_555 1_555
H9_3 C16_3 1_555 1_555
H10_3 C16_3 1_555 1_555
C17_3 N9_3 1_555 1_555
H11_3 C17_3 1_555 1_555
C18_3 N7_3 1_555 1_555
H12_3 C18_3 1_555 1_555
C19_3 N10_3 1_555 1_555
H13_3 C19_3 1_555 1_555
C20_3 N10_3 1_555 1_555
H14_3 C20_3 1_555 1_555
C21_3 N12_3 1_555 1_555
H15_3 C21_3 1_555 1_555
H16_3 C21_3 1_555 1_555
C22_3 C21_3 1_555 1_555
C23_3 C22_3 1_555 1_555
C27_3 C22_3 1_555 1_555
V2_3 O39_3 1_555 1_555
W10_2 O48_3 1_555 1_555
W11_3 O38_3 1_555 1_555
W12_3 O37_3 1_555 1_555
W13_2 O42_3 1_555 1_555
W14_3 O34_3 1_555 1_555
W15_2 O49_3 1_555 1_555
W16_3 O41_3 1_555 1_555
W17_2 O44_2 1_555 1_555
W18_3 O35_3 1_555 1_555
F13_2 C41_2 1_555 1_555
F16_3 C45_3 1_555 1_555
N19_3 Co4 1_555 1_555
N20_3 N21_3 1_555 1_555
N21_3 C38_3 1_555 1_555
O34_3 Co4 1_555 1_555
O35_3 W14_3 1_555 1_555
O36_2 W14_3 1_555 1_555
O37_3 W14_3 1_555 1_555
O38_3 W14_3 1_555 1_555
O39_3 W12_3 1_555 1_555
O40_3 W12_3 1_555 1_555
O41_3 W12_3 1_555 1_555
O42_3 W12_3 1_555 1_555
O43_2 W16_3 1_555 1_555
O44_2 W16_3 1_555 1_555
O45_3 W16_3 1_555 1_555
O46_3 V2_3 1_555 1_555
O47_2 W17_2 1_555 1_555
O48_3 W17_2 1_555 1_555
O49_3 W10_2 1_555 1_555
O68 W10_2 1_555 1_555
O51_3 W10_2 1_555 1_555
O52_3 V2_3 1_555 1_555
O53_2 W11_3 1_555 1_555
O54_3 W11_3 1_555 1_555
O55_3 W11_3 1_555 1_555
O56_2 W12_3 1_555 1_555
O57_3 W18_3 1_555 1_555
O58_2 W17_2 1_555 1_555
O59_3 W13_2 1_555 1_555
O60_3 V2_3 1_555 1_555
O61_3 W13_2 1_555 1_555
O62_3 W13_2 1_555 1_555
O63_3 W15_2 1_555 1_555
O64_3 W15_2 1_555 1_555
C37_3 N19_3 1_555 1_555
H25_3 C37_3 1_555 1_555
C38_3 N19_3 1_555 1_555
H26_3 C38_3 1_555 1_555
C39_3 N21_3 1_555 1_555
H27_2 C39_3 1_555 1_555
H28_2 C39_3 1_555 1_555
C40_3 C39_3 1_555 1_555
C41_2 C40_3 1_555 1_555
C42_2 C41_2 1_555 1_555
C45_3 C40_3 1_555 1_555
W19_2 O21_2 1_555 1_555
W20_2 O53_2 1_555 1_555
W21_2 O24_2 1_555 1_555
W22_2 O56_2 1_555 1_555
W23_2 O4_2 1_555 1_555
W24_2 O36_2 1_555 1_555
O65_2 W6_2 1_555 1_555
O66_2 W15_2 1_555 1_555
O69_2 W1_2 1_555 1_555
O70_2 W10_2 1_555 1_555
O71_2 W4_2 1_555 1_555
O72_2 W13_2 1_555 1_555
W1_2 O20_3 1_555 1_555
W2_3 O19_3 1_555 1_555
W2_3 O20_3 1_555 1_555
W4_2 O28_3 1_555 1_555
W5_3 O7_3 1_555 1_555
W6_2 O28_3 1_555 1_555
W6_2 O30_3 1_555 1_555
W7_3 O14_3 1_555 1_555
W7_3 O29_3 1_555 1_555
W8_3 O14_3 1_555 1_555
W8_3 O32_3 1_555 1_555
W9_3 O13_3 1_555 1_555
W9_3 O14_3 1_555 1_555
W9_3 O23_3 1_555 1_555
W9_3 O26_3 1_555 1_555
Co6 O27_3 1_555 1_555
N5_3 C7_3 1_555 1_555
N8_3 C18_3 1_555 1_555
N11_3 C20_3 1_555 1_555
C14_3 C15_3 1_555 1_555
C26_3 C27_3 1_555 1_555
W10_2 O52_3 1_555 1_555
W11_3 O51_3 1_555 1_555
W11_3 O52_3 1_555 1_555
W13_2 O60_3 1_555 1_555
W14_3 O39_3 1_555 1_555
W15_2 O60_3 1_555 1_555
W15_2 O62_3 1_555 1_555
W16_3 O46_3 1_555 1_555
W16_3 O61_3 1_555 1_555
W17_2 O46_3 1_555 1_555
W17_2 O64_3 1_555 1_555
W18_3 O45_3 1_555 1_555
W18_3 O46_3 1_555 1_555
W18_3 O55_3 1_555 1_555
W18_3 O58_2 1_555 1_555
N20_3 C37_3 1_555 1_555
O33_2 H42_2 1_555 1_555
O1_3 H43_3 1_555 1_555
O1_3 H44_3 1_555 1_555
H40_3 C60_3 1_555 1_555
N33 C60_3 1_555 1_555
F15_4 C44_4 1_555 1_555
F17_4 C53_4 1_555 1_555
F18_2 C54_2 1_555 1_555
N23_4 N24_4 1_555 1_555
N24_4 C46_4 1_555 1_555
N26_4 N27_4 1_555 1_555
N27_4 C49_4 1_555 1_555
N28_2 N29_2 1_555 1_555
N29_2 C58_2 1_555 1_555
C44_4 C43_4 1_555 1_555
C46_4 C43_4 1_555 1_555
H30_4 C46_4 1_555 1_555
C48_4 N22_4 1_555 1_555
H32_4 C48_4 1_555 1_555
C49_4 N25_4 1_555 1_555
H33_4 C49_4 1_555 1_555
C50_4 N25_4 1_555 1_555
H34_4 C50_4 1_555 1_555
C51_4 N27_4 1_555 1_555
H35_4 C51_4 1_555 1_555
H36_4 C51_4 1_555 1_555
C52_4 C51_4 1_555 1_555
C53_4 C52_4 1_555 1_555
C54_2 C53_4 1_555 1_555
C55_2 C54_2 1_555 1_555
C57_4 C52_4 1_555 1_555
C58_2 C55_2 1_555 1_555
H37_2 C58_2 1_555 1_555
C59_2 N28_2 1_555 1_555
H39_2 C59_2 1_555 1_555
N23_4 C48_4 1_555 1_555
N26_4 C50_4 1_555 1_555
H31_4 C47_4 1_555 1_555
N4_4 Co4_2 1_555 1_555
C7_4 N4_4 1_555 1_555
H5_4 C7_4 1_555 1_555
V2_4 O39_4 1_555 1_555
W20_2 O48_4 1_555 1_555
W11_4 O38_4 1_555 1_555
W12_4 O37_4 1_555 1_555
W22_2 O42_4 1_555 1_555
W14_4 O34_4 1_555 1_555
W24_2 O49_4 1_555 1_555
W16_4 O41_4 1_555 1_555
W18_4 O35_4 1_555 1_555
F16_4 C45_4 1_555 1_555
F19_4 C56_4 1_555 1_555
N21_4 C38_4 1_555 1_555
O34_4 Co4_2 1_555 1_555
O35_4 W14_4 1_555 1_555
O66_2 W14_4 1_555 1_555
O37_4 W14_4 1_555 1_555
O38_4 W14_4 1_555 1_555
O39_4 W12_4 1_555 1_555
O40_4 W12_4 1_555 1_555
O41_4 W12_4 1_555 1_555
O42_4 W12_4 1_555 1_555
O45_4 W16_4 1_555 1_555
O46_4 V2_4 1_555 1_555
O49_4 W20_2 1_555 1_555
O68_2 W20_2 1_555 1_555
O51_4 W20_2 1_555 1_555
O52_4 V2_4 1_555 1_555
O70_2 W11_4 1_555 1_555
O54_4 W11_4 1_555 1_555
O55_4 W11_4 1_555 1_555
O72_2 W12_4 1_555 1_555
O57_4 W18_4 1_555 1_555
O59_4 W22_2 1_555 1_555
O60_4 V2_4 1_555 1_555
O61_4 W22_2 1_555 1_555
O62_4 W22_2 1_555 1_555
O63_4 W24_2 1_555 1_555
O64_4 W24_2 1_555 1_555
H26_4 C38_4 1_555 1_555
C39_4 N21_4 1_555 1_555
C40_4 C39_4 1_555 1_555
C45_4 C40_4 1_555 1_555
H40_4 C60_4 1_555 1_555
N5_4 C7_4 1_555 1_555
W20_2 O52_4 1_555 1_555
W11_4 O51_4 1_555 1_555
W11_4 O52_4 1_555 1_555
W22_2 O60_4 1_555 1_555
W14_4 O39_4 1_555 1_555
W24_2 O60_4 1_555 1_555
W24_2 O62_4 1_555 1_555
W16_4 O46_4 1_555 1_555
W16_4 O61_4 1_555 1_555
W18_4 O45_4 1_555 1_555
W18_4 O46_4 1_555 1_555
W18_4 O55_4 1_555 1_555
N33_2 C60_4 1_555 1_555
V1_4 O7_4 1_555 1_555
W19_2 O16_4 1_555 1_555
W2_4 O6_4 1_555 1_555
W3_4 O5_4 1_555 1_555
W21_2 O10_4 1_555 1_555
W5_4 O2_4 1_555 1_555
W23_2 O17_4 1_555 1_555
W7_4 O9_4 1_555 1_555
W9_4 O3_4 1_555 1_555
F5_4 C14_4 1_555 1_555
F6_4 C15_4 1_555 1_555
F7_4 C23_4 1_555 1_555
F8_4 C24_4 1_555 1_555
F9_4 C26_4 1_555 1_555
F10_4 C27_4 1_555 1_555
N6_4 C8_4 1_555 1_555
N8_4 N9_4 1_555 1_555
N9_4 C16_4 1_555 1_555
N11_4 N12_4 1_555 1_555
N12_4 C19_4 1_555 1_555
N13_4 N14_4 1_555 1_555
N14_4 C28_4 1_555 1_555
N32_2 C29_4 1_555 1_555
O2_4 Co4_3 1_555 1_555
O3_4 W5_4 1_555 1_555
O65_2 W5_4 1_555 1_555
O5_4 W5_4 1_555 1_555
O6_4 W5_4 1_555 1_555
O7_4 W3_4 1_555 1_555
O8_4 W3_4 1_555 1_555
O9_4 W3_4 1_555 1_555
O10_4 W3_4 1_555 1_555
O13_4 W7_4 1_555 1_555
O14_4 V1_4 1_555 1_555
O17_4 W19_2 1_555 1_555
O67_2 W19_2 1_555 1_555
O19_4 W19_2 1_555 1_555
O20_4 V1_4 1_555 1_555
O69_2 W2_4 1_555 1_555
O22_4 W2_4 1_555 1_555
O23_4 W2_4 1_555 1_555
O71_2 W3_4 1_555 1_555
O25_4 W9_4 1_555 1_555
O27_4 W21_2 1_555 1_555
O28_4 V1_4 1_555 1_555
O29_4 W21_2 1_555 1_555
O30_4 W21_2 1_555 1_555
O31_4 W23_2 1_555 1_555
O32_4 W23_2 1_555 1_555
H6_4 C8_4 1_555 1_555
C9_4 N6_4 1_555 1_555
C10_4 C9_4 1_555 1_555
C14_4 C13_4 1_555 1_555
C15_4 C10_4 1_555 1_555
C16_4 C13_4 1_555 1_555
H10_4 C16_4 1_555 1_555
C18_4 N7_4 1_555 1_555
H12_4 C18_4 1_555 1_555
C19_4 N10_4 1_555 1_555
H13_4 C19_4 1_555 1_555
C20_4 N10_4 1_555 1_555
H14_4 C20_4 1_555 1_555
C21_4 N12_4 1_555 1_555
H15_4 C21_4 1_555 1_555
H16_4 C21_4 1_555 1_555
C22_4 C21_4 1_555 1_555
C23_4 C22_4 1_555 1_555
C24_4 C23_4 1_555 1_555
C25_4 C24_4 1_555 1_555
C26_4 C25_4 1_555 1_555
C27_4 C22_4 1_555 1_555
C28_4 C25_4 1_555 1_555
H17_4 C28_4 1_555 1_555
H18_4 C28_4 1_555 1_555
C29_4 N13_4 1_555 1_555
H19_4 C29_4 1_555 1_555
C30_4 N14_4 1_555 1_555
H20_4 C30_4 1_555 1_555
N19_4 Co4_3 1_555 1_555
C37_4 N19_4 1_555 1_555
H25_4 C37_4 1_555 1_555
W19_2 O20_4 1_555 1_555
W2_4 O19_4 1_555 1_555
W2_4 O20_4 1_555 1_555
W21_2 O28_4 1_555 1_555
W5_4 O7_4 1_555 1_555
W23_2 O28_4 1_555 1_555
W23_2 O30_4 1_555 1_555
W7_4 O14_4 1_555 1_555
W7_4 O29_4 1_555 1_555
W9_4 O13_4 1_555 1_555
W9_4 O14_4 1_555 1_555
W9_4 O23_4 1_555 1_555
N8_4 C18_4 1_555 1_555
N11_4 C20_4 1_555 1_555
N32_2 C30_4 1_555 1_555
C14_4 C15_4 1_555 1_555
C26_4 C27_4 1_555 1_555
N20_4 C37_4 1_555 1_555
W8_4 O12_4 1_555 1_555
F3_4 C11_4 1_555 1_555
F4_4 C12_4 1_555 1_555
O1_4 Co5 1_555 1_555
O15_4 W8_4 1_555 1_555
O26_4 W8_4 1_555 1_555
C12_4 C11_4 1_555 1_555
H11_4 C17_4 1_555 1_555
O1_4 H43_4 1_555 1_555
O1_4 H44_4 1_555 1_555
F18_3 C54_3 1_555 1_555
N28_3 N29_3 1_555 1_555
N29_3 C58_3 1_555 1_555
C55_3 C54_3 1_555 1_555
C58_3 C55_3 1_555 1_555
H37_3 C58_3 1_555 1_555
C59_3 N28_3 1_555 1_555
H39_3 C59_3 1_555 1_555
W17_3 O44_3 1_555 1_555
F13_3 C41_3 1_555 1_555
O47_3 W17_3 1_555 1_555
O58_3 W17_3 1_555 1_555
C42_3 C41_3 1_555 1_555
O33_3 H42_3 1_555 1_555
F18_4 C54_4 1_555 1_555
N28_4 N29_4 1_555 1_555
N29_4 C58_4 1_555 1_555
C55_4 C54_4 1_555 1_555
C58_4 C55_4 1_555 1_555
H37_4 C58_4 1_555 1_555
C59_4 N28_4 1_555 1_555
H39_4 C59_4 1_555 1_555
W17_4 O44_4 1_555 1_555
F13_4 C41_4 1_555 1_555
O47_4 W17_4 1_555 1_555
O58_4 W17_4 1_555 1_555
C42_4 C41_4 1_555 1_555
O33_4 H42_4 1_555 1_555

#END
