
###############################################################################
#
# This file contains modified crystal structure data generated from the
# MOF subset of the Cambridge Structural Database (CSD) v543 
# hosted by the Cambridge Crystallographic Data Centre (CCDC).
#
# This work is licensed under the Creative Commons
# Attribution-NonCommercial-ShareAlike 4.0 International License.
# To view a copy of this license, visit
# http://creativecommons.org/licenses/by-nc-sa/4.0/
# or send a letter to
# Creative Commons, PO Box 1866, Mountain View, CA 94042, USA.
#
# CIF created using the CSD Python API on 29 September 2022
# The structure has been converted into the P1 space group
# The structure has a 3D framework
# The original CSD entry DUPVER is in the monoclinic crystal system
# The framework has been calculated to contain at least 10.0% void space
# The void calculation uses a probe of radius 1.32A, grid spacing 0.4
#
###############################################################################

data_DUPVER
_chemical_formula_moiety         '(C92 H48 N20 O50 Zn12)n'
_symmetry_cell_setting           triclinic
_symmetry_space_group_name_H-M   'P 1'
_symmetry_Int_Tables_number      1
_space_group_name_Hall           'P 1'
loop_
_symmetry_equiv_pos_site_id
_symmetry_equiv_pos_as_xyz
1 x,y,z
_cell_length_a                   14.4022(8)
_cell_length_b                   25.9200(12)
_cell_length_c                   17.4395(10)
_cell_angle_alpha                90
_cell_angle_beta                 107.384(6)
_cell_angle_gamma                90
_cell_volume                     6212.89
loop_
_atom_site_label
_atom_site_type_symbol
_atom_site_fract_x
_atom_site_fract_y
_atom_site_fract_z
Zn3 Zn 0.04064(6) 0.31969(3) 0.77347(5)
O2 O 0.0464(4) 0.24519(19) 0.7570(3)
C5 C 0.0103(6) 0.2377(3) 0.6811(6)
C6 C 0.0208(5) 0.0859(3) 0.5900(5)
H3 H 0.0219 0.0527 0.5700
C8 C 0.0536(5) 0.1440(3) 0.7039(4)
H4 H 0.0767 0.1497 0.7589
C10 C 0.0139(6) 0.1843(3) 0.6511(5)
C11 C 0.0578(5) 0.0945(3) 0.6719(4)
C23 C 0.0995(6) 0.0502(3) 0.7270(5)
O11 O 0.1177(4) 0.0566(2) 0.8011(3)
O12 O 0.1158(5) 0.0100(2) 0.6951(4)
O13 O 0.1080(5) 0.3242(3) 0.8907(4)
H11 H 0.0847 0.3411 0.9307
H12 H 0.1707 0.3099 0.9192
O14 O 0.0127(4) 0.0829(3) 0.2793(3)
N6 N 0.1313(4) 0.3614(2) 0.7291(3)
Zn5 Zn 0.16534(6) 0.99928(3) 0.87430(5)
Zn7 Zn 0.10231(6) 0.93402(3) 0.68927(5)
Zn1 Zn 0.83466(6) 0.00072(3) 0.12570(5)
Zn2 Zn 0.89769(6) 0.06598(3) 0.31073(5)
O1 O 0.9379(5) 0.0707(3) 0.4270(3)
O3 O 0.7624(5) 0.4351(3) 0.4838(4)
O4 O 0.9232(4) 0.3584(2) 0.7441(4)
O5 O 0.5127(4) 0.4171(3) 0.7793(3)
C1 C 0.9442(6) 0.1176(4) 0.4499(5)
C2 C 0.9791(6) 0.1754(3) 0.5685(5)
H1 H 0.9536 0.2026 0.5337
O6 O 0.9725(6) 0.2729(2) 0.6334(4)
O7 O 0.9194(5) 0.1541(3) 0.4027(4)
O8 O 0.4363(4) 0.4450(2) 0.6569(3)
C3 C 0.6055(6) 0.4379(3) 0.6109(5)
H2 H 0.5534 0.4562 0.5776
C4 C 0.5995(6) 0.4183(3) 0.6836(4)
O9 O 0.6372(4) 0.4842(2) 0.4744(3)
C7 C 0.9824(5) 0.1256(3) 0.5377(4)
C9 C 0.7642(6) 0.4033(3) 0.6385(5)
H5 H 0.8195 0.3974 0.6227
C12 C 0.6782(6) 0.3916(3) 0.7334(5)
H6 H 0.6742 0.3783 0.7818
C13 C 0.6885(6) 0.4303(3) 0.5881(5)
C14 C 0.5103(6) 0.4276(3) 0.7088(5)
C15 C 0.7613(6) 0.3846(3) 0.7122(5)
O10 O 0.8395(6) 0.3289(4) 0.8195(6)
C16 C 0.6971(7) 0.4507(3) 0.5094(5)
C17 C 0.8476(7) 0.3541(4) 0.7654(6)
N1 N 0.7679(4) 0.0905(2) 0.2469(3)
N2 N 0.7140(4) 0.0393(2) 0.1244(4)
N3 N 0.6313(4) 0.1386(2) 0.2291(3)
N4 N 0.4634(4) 0.1261(3) 0.0708(4)
H7 H 0.4183 0.1192 0.0271
H8 H 0.4564 0.1514 0.1006
C18 C 0.6201(5) 0.1057(3) 0.1641(4)
C19 C 0.7038(5) 0.0759(3) 0.1754(4)
N5 N 0.5509(5) 0.0591(3) 0.0436(4)
C20 C 0.6331(6) 0.0332(3) 0.0611(5)
H9 H 0.6361 0.0073 0.0251
C21 C 0.7202(5) 0.1272(3) 0.2763(4)
H10 H 0.7476 0.1431 0.3257
C22 C 0.5427(5) 0.0982(3) 0.0919(5)
Zn4 Zn 0.66534(6) 0.50072(3) 0.37430(5)
Zn6 Zn 0.33466(6) 0.49928(3) 0.62570(5)
Zn8 Zn 0.39769(6) 0.43402(3) 0.81073(5)
Zn9 Zn 0.54064(6) 0.18031(3) 0.27347(5)
O15 O 0.9363(4) 0.0550(2) 0.1569(3)
O16 O 0.8628(4) 0.9842(2) 0.0256(3)
O17 O 0.8823(4) 0.9434(2) 0.1989(3)
O18 O 0.8842(5) 0.9900(2) 0.3049(4)
O8_2 O 0.0637(4) 0.9450(2) 0.8431(3)
Zn2_2 Zn 0.60231(6) 0.56598(3) 0.18927(5)
O1_2 O 0.5621(5) 0.5707(3) 0.0730(3)
O3_2 O 0.7376(5) 0.9351(3) 0.0162(4)
C1_2 C 0.5558(6) 0.6176(4) 0.0501(5)
O7_2 O 0.5806(5) 0.6541(3) 0.0973(4)
N1_2 N 0.7321(4) 0.5905(2) 0.2531(3)
N2_2 N 0.7860(4) 0.5393(2) 0.3756(4)
N3_2 N 0.8687(4) 0.6386(2) 0.2709(3)
C18_2 C 0.8799(5) 0.6057(3) 0.3359(4)
C19_2 C 0.7962(5) 0.5759(3) 0.3246(4)
N5_2 N 0.9491(5) 0.5591(3) 0.4564(4)
C20_2 C 0.8669(6) 0.5332(3) 0.4389(5)
H9_2 H 0.8639 0.5073 0.4749
C21_2 C 0.7798(5) 0.6272(3) 0.2237(4)
H10_2 H 0.7524 0.6431 0.1743
C22_2 C 0.9573(5) 0.5982(3) 0.4081(5)
Zn9_2 Zn 0.95936(6) 0.68031(3) 0.22653(5)
O14_2 O 0.4873(4) 0.5829(3) 0.2207(3)
O15_2 O 0.5637(4) 0.5550(2) 0.3431(3)
O17_2 O 0.6177(4) 0.4434(2) 0.3011(3)
O18_2 O 0.6158(5) 0.4900(2) 0.1951(4)
Zn3_2 Zn 0.45936(6) 0.81969(3) 0.72653(5)
O2_2 O 0.4536(4) 0.74519(19) 0.7430(3)
O4_2 O 0.5768(4) 0.8584(2) 0.7559(4)
O5_2 O 0.9873(4) 0.9171(3) 0.7207(3)
C2_2 C 0.5209(6) 0.6754(3) 0.9315(5)
H1_2 H 0.5464 0.7026 0.9663
O6_2 O 0.5275(6) 0.7729(2) 0.8666(4)
C3_2 C 0.8945(6) 0.9379(3) 0.8891(5)
H2_2 H 0.9466 0.9562 0.9224
C4_2 C 0.9005(6) 0.9183(3) 0.8164(4)
C5_2 C 0.4897(6) 0.7377(3) 0.8189(6)
C6_2 C 0.4792(5) 0.5859(3) 0.9100(5)
H3_2 H 0.4781 0.5527 0.9300
C7_2 C 0.5176(5) 0.6256(3) 0.9623(4)
C8_2 C 0.4464(5) 0.6440(3) 0.7961(4)
H4_2 H 0.4233 0.6497 0.7411
C9_2 C 0.7358(6) 0.9033(3) 0.8615(5)
H5_2 H 0.6805 0.8974 0.8773
C10_2 C 0.4861(6) 0.6843(3) 0.8489(5)
C11_2 C 0.4422(5) 0.5945(3) 0.8281(4)
C12_2 C 0.8218(6) 0.8916(3) 0.7666(5)
H6_2 H 0.8258 0.8783 0.7182
C13_2 C 0.8115(6) 0.9303(3) 0.9119(5)
C14_2 C 0.9897(6) 0.9276(3) 0.7912(5)
C15_2 C 0.7387(6) 0.8846(3) 0.7878(5)
O10_2 O 0.6605(6) 0.8289(4) 0.6805(6)
C16_2 C 0.8029(7) 0.9507(3) 0.9906(5)
C17_2 C 0.6524(7) 0.8541(4) 0.7346(6)
C23_2 C 0.4005(6) 0.5502(3) 0.7730(5)
O11_2 O 0.3823(4) 0.5566(2) 0.6989(3)
O12_2 O 0.3842(5) 0.5100(2) 0.8049(4)
O13_2 O 0.3920(5) 0.8242(3) 0.6093(4)
H11_2 H 0.4153 0.8411 0.5693
H12_2 H 0.3293 0.8099 0.5808
N6_2 N 0.3687(4) 0.8614(2) 0.7709(3)
O16_2 O 0.1372(4) 0.0158(2) 0.9744(3)
O1_3 O 0.0621(5) 0.9293(3) 0.5730(3)
O3_3 O 0.2376(5) 0.5649(3) 0.5162(4)
O4_3 O 0.0768(4) 0.6416(2) 0.2559(4)
C1_3 C 0.0558(6) 0.8824(4) 0.5501(5)
C2_3 C 0.0209(6) 0.8246(3) 0.4315(5)
H1_3 H 0.0464 0.7974 0.4663
O6_3 O 0.0275(6) 0.7271(2) 0.3666(4)
O7_3 O 0.0806(5) 0.8459(3) 0.5973(4)
C3_3 C 0.3945(6) 0.5621(3) 0.3891(5)
H2_3 H 0.4466 0.5438 0.4224
C4_3 C 0.4005(6) 0.5817(3) 0.3164(4)
O9_2 O 0.3628(4) 0.5158(2) 0.5256(3)
C7_3 C 0.0176(5) 0.8744(3) 0.4623(4)
C9_3 C 0.2358(6) 0.5967(3) 0.3615(5)
H5_3 H 0.1805 0.6026 0.3773
C12_3 C 0.3218(6) 0.6084(3) 0.2666(5)
H6_3 H 0.3258 0.6217 0.2182
C13_3 C 0.3115(6) 0.5697(3) 0.4119(5)
C14_3 C 0.4897(6) 0.5724(3) 0.2912(5)
C15_3 C 0.2387(6) 0.6154(3) 0.2878(5)
O10_3 O 0.1605(6) 0.6711(4) 0.1805(6)
C16_3 C 0.3029(7) 0.5493(3) 0.4906(5)
C17_3 C 0.1524(7) 0.6459(4) 0.2346(6)
N1_3 N 0.2321(4) 0.9095(2) 0.7531(3)
N2_3 N 0.2860(4) 0.9607(2) 0.8756(4)
N4_2 N 0.5366(4) 0.8739(3) 0.9292(4)
H7_2 H 0.5817 0.8808 0.9729
H8_2 H 0.5436 0.8486 0.8994
C18_3 C 0.3799(5) 0.8943(3) 0.8359(4)
C19_3 C 0.2962(5) 0.9241(3) 0.8246(4)
N5_3 N 0.4491(5) 0.9409(3) 0.9564(4)
C20_3 C 0.3669(6) 0.9668(3) 0.9389(5)
H9_3 H 0.3639 0.9927 0.9749
C21_3 C 0.2798(5) 0.8728(3) 0.7237(4)
H10_3 H 0.2524 0.8569 0.6743
C22_3 C 0.4573(5) 0.9018(3) 0.9081(5)
O2_3 O 0.9536(4) 0.75481(19) 0.2430(3)
C5_3 C 0.9897(6) 0.7623(3) 0.3189(6)
C6_3 C 0.9792(5) 0.9141(3) 0.4100(5)
H3_3 H 0.9781 0.9473 0.4300
C8_3 C 0.9464(5) 0.8560(3) 0.2961(4)
H4_3 H 0.9233 0.8503 0.2411
C10_3 C 0.9861(6) 0.8157(3) 0.3489(5)
C11_3 C 0.9422(5) 0.9055(3) 0.3281(4)
C23_3 C 0.9005(6) 0.9498(3) 0.2730(5)
O13_3 O 0.8920(5) 0.6758(3) 0.1093(4)
H11_3 H 0.9153 0.6589 0.0693
H12_3 H 0.8293 0.6901 0.0808
O2_4 O 0.5464(4) 0.25481(19) 0.2570(3)
O4_4 O 0.4232(4) 0.1416(2) 0.2441(4)
C2_4 C 0.4791(6) 0.3246(3) 0.0685(5)
H1_4 H 0.4536 0.2974 0.0337
O6_4 O 0.4725(6) 0.2271(2) 0.1334(4)
C3_4 C 0.1055(6) 0.0621(3) 0.1109(5)
H2_4 H 0.0534 0.0438 0.0776
C4_4 C 0.0995(6) 0.0817(3) 0.1836(4)
C5_4 C 0.5103(6) 0.2623(3) 0.1811(6)
C6_4 C 0.5208(5) 0.4141(3) 0.0900(5)
H3_4 H 0.5219 0.4473 0.0700
C7_4 C 0.4824(5) 0.3744(3) 0.0377(4)
C8_4 C 0.5536(5) 0.3560(3) 0.2039(4)
H4_4 H 0.5767 0.3503 0.2589
C9_4 C 0.2642(6) 0.0967(3) 0.1385(5)
H5_4 H 0.3195 0.1026 0.1227
C10_4 C 0.5139(6) 0.3157(3) 0.1511(5)
C11_4 C 0.5578(5) 0.4055(3) 0.1719(4)
C12_4 C 0.1782(6) 0.1084(3) 0.2334(5)
H6_4 H 0.1742 0.1217 0.2818
C13_4 C 0.1885(6) 0.0697(3) 0.0881(5)
C14_4 C 0.0103(6) 0.0724(3) 0.2088(5)
C15_4 C 0.2613(6) 0.1154(3) 0.2122(5)
O10_4 O 0.3395(6) 0.1711(4) 0.3195(6)
C16_4 C 0.1971(7) 0.0493(3) 0.0094(5)
C17_4 C 0.3476(7) 0.1459(4) 0.2654(6)
C23_4 C 0.5995(6) 0.4498(3) 0.2270(5)
O13_4 O 0.6080(5) 0.1758(3) 0.3907(4)
H11_4 H 0.5847 0.1589 0.4307
H12_4 H 0.6707 0.1901 0.4192
O1_4 O 0.4379(5) 0.4293(3) 0.9270(3)
O3_4 O 0.2624(5) 0.0649(3) 0.9838(4)
C1_4 C 0.4442(6) 0.3824(4) 0.9499(5)
O7_4 O 0.4194(5) 0.3459(3) 0.9027(4)
N1_4 N 0.2679(4) 0.4095(2) 0.7469(3)
N2_4 N 0.2140(4) 0.4607(2) 0.6244(4)
C18_4 C 0.1201(5) 0.3943(3) 0.6641(4)
C19_4 C 0.2038(5) 0.4241(3) 0.6754(4)
N5_4 N 0.0509(5) 0.4409(3) 0.5436(4)
C20_4 C 0.1331(6) 0.4668(3) 0.5611(5)
H9_4 H 0.1361 0.4927 0.5251
C21_4 C 0.2202(5) 0.3728(3) 0.7763(4)
H10_4 H 0.2476 0.3569 0.8257
C22_4 C 0.0427(5) 0.4018(3) 0.5919(5)
N4_3 N 0.0366(4) 0.6261(3) 0.4292(4)
H7_3 H 0.0817 0.6192 0.4729
H8_3 H 0.0436 0.6514 0.3994
N4_4 N 0.9634(4) 0.3739(3) 0.5708(4)
H7_4 H 0.9183 0.3808 0.5271
H8_4 H 0.9564 0.3486 0.6006
loop_
_geom_bond_atom_site_label_1
_geom_bond_atom_site_label_2
_geom_bond_site_symmetry_1
_geom_bond_site_symmetry_2
Zn3 O2 1_555 1_555
O2 C5 1_555 1_555
C5 C10 1_555 1_555
C6 H3 1_555 1_555
C8 H4 1_555 1_555
C11 C6 1_555 1_555
C23 C11 1_555 1_555
O11 C23 1_555 1_555
O12 C23 1_555 1_555
O13 Zn3 1_555 1_555
H11 O13 1_555 1_555
H12 O13 1_555 1_555
N6 Zn3 1_555 1_555
C8 C10 1_555 1_555
C8 C11 1_555 1_555
Zn1 N2 1_555 1_555
Zn2 O1 1_555 1_555
O1 C1 1_555 1_555
O3 C16 1_555 1_555
O5 C14 1_555 1_555
C1 O7 1_555 1_555
C2 H1 1_555 1_555
O8 C14 1_555 1_555
C3 H2 1_555 1_555
C4 C3 1_555 1_555
O9 C16 1_555 1_555
C7 C1 1_555 1_555
C9 H5 1_555 1_555
C12 C4 1_555 1_555
H6 C12 1_555 1_555
C13 C3 1_555 1_555
C14 C4 1_555 1_555
C15 C9 1_555 1_555
O10 C17 1_555 1_555
C16 C13 1_555 1_555
C17 O4 1_555 1_555
N1 Zn2 1_555 1_555
N2 C19 1_555 1_555
N3 C18 1_555 1_555
N4 H7 1_555 1_555
H8 N4 1_555 1_555
C18 C19 1_555 1_555
C19 N1 1_555 1_555
N5 C20 1_555 1_555
C20 N2 1_555 1_555
H9 C20 1_555 1_555
C21 N1 1_555 1_555
H10 C21 1_555 1_555
C22 N4 1_555 1_555
Zn4 O9 1_555 1_555
Zn6 O8 1_555 1_555
Zn8 O5 1_555 1_555
Zn9 N3 1_555 1_555
O15 Zn1 1_555 1_555
C2 C7 1_555 1_555
C9 C13 1_555 1_555
C12 C15 1_555 1_555
C15 C17 1_555 1_555
N3 C21 1_555 1_555
C18 C22 1_555 1_555
N5 C22 1_555 1_555
Zn5 O8_2 1_555 1_555
Zn4 N2_2 1_555 1_555
Zn2_2 O1_2 1_555 1_555
O1_2 C1_2 1_555 1_555
C1_2 O7_2 1_555 1_555
N1_2 Zn2_2 1_555 1_555
N2_2 C19_2 1_555 1_555
N3_2 C18_2 1_555 1_555
C18_2 C19_2 1_555 1_555
C19_2 N1_2 1_555 1_555
N5_2 C20_2 1_555 1_555
C20_2 N2_2 1_555 1_555
H9_2 C20_2 1_555 1_555
C21_2 N1_2 1_555 1_555
H10_2 C21_2 1_555 1_555
Zn9_2 N3_2 1_555 1_555
O14_2 Zn2_2 1_555 1_555
O15_2 Zn4 1_555 1_555
O17_2 Zn4 1_555 1_555
O18_2 Zn2_2 1_555 1_555
N3_2 C21_2 1_555 1_555
C18_2 C22_2 1_555 1_555
N5_2 C22_2 1_555 1_555
Zn3_2 O2_2 1_555 1_555
O2_2 C5_2 1_555 1_555
O4_2 Zn3_2 1_555 1_555
O5_2 C14_2 1_555 1_555
C2_2 H1_2 1_555 1_555
O6_2 C5_2 1_555 1_555
C3_2 H2_2 1_555 1_555
C4_2 C3_2 1_555 1_555
C5_2 C10_2 1_555 1_555
C6_2 H3_2 1_555 1_555
C8_2 H4_2 1_555 1_555
C9_2 H5_2 1_555 1_555
C10_2 C2_2 1_555 1_555
C11_2 C6_2 1_555 1_555
C12_2 C4_2 1_555 1_555
H6_2 C12_2 1_555 1_555
C13_2 C3_2 1_555 1_555
C14_2 C4_2 1_555 1_555
C15_2 C9_2 1_555 1_555
O10_2 C17_2 1_555 1_555
C16_2 C13_2 1_555 1_555
C17_2 O4_2 1_555 1_555
C23_2 C11_2 1_555 1_555
O11_2 C23_2 1_555 1_555
O12_2 C23_2 1_555 1_555
O13_2 Zn3_2 1_555 1_555
H11_2 O13_2 1_555 1_555
H12_2 O13_2 1_555 1_555
Zn6 O11_2 1_555 1_555
Zn8 O12_2 1_555 1_555
N6_2 Zn3_2 1_555 1_555
C2_2 C7_2 1_555 1_555
C6_2 C7_2 1_555 1_555
C8_2 C10_2 1_555 1_555
C8_2 C11_2 1_555 1_555
C9_2 C13_2 1_555 1_555
C12_2 C15_2 1_555 1_555
C15_2 C17_2 1_555 1_555
Zn5 N2_3 1_555 1_555
Zn7 O1_3 1_555 1_555
O1_3 C1_3 1_555 1_555
O3_3 C16_3 1_555 1_555
O14_2 C14_3 1_555 1_555
C1_3 O7_3 1_555 1_555
C2_3 H1_3 1_555 1_555
O15_2 C14_3 1_555 1_555
C3_3 H2_3 1_555 1_555
C4_3 C3_3 1_555 1_555
O9_2 C16_3 1_555 1_555
C7_3 C1_3 1_555 1_555
C9_3 H5_3 1_555 1_555
C12_3 C4_3 1_555 1_555
H6_3 C12_3 1_555 1_555
C13_3 C3_3 1_555 1_555
C14_3 C4_3 1_555 1_555
C15_3 C9_3 1_555 1_555
O10_3 C17_3 1_555 1_555
C16_3 C13_3 1_555 1_555
C17_3 O4_3 1_555 1_555
N1_3 Zn7 1_555 1_555
N2_3 C19_3 1_555 1_555
N6_2 C18_3 1_555 1_555
N4_2 H7_2 1_555 1_555
H8_2 N4_2 1_555 1_555
C18_3 C19_3 1_555 1_555
C19_3 N1_3 1_555 1_555
N5_3 C20_3 1_555 1_555
C20_3 N2_3 1_555 1_555
H9_3 C20_3 1_555 1_555
C21_3 N1_3 1_555 1_555
H10_3 C21_3 1_555 1_555
C22_3 N4_2 1_555 1_555
Zn6 O9_2 1_555 1_555
C2_3 C7_3 1_555 1_555
C9_3 C13_3 1_555 1_555
C12_3 C15_3 1_555 1_555
C15_3 C17_3 1_555 1_555
N6_2 C21_3 1_555 1_555
C18_3 C22_3 1_555 1_555
N5_3 C22_3 1_555 1_555
Zn9_2 O2_3 1_555 1_555
O2_3 C5_3 1_555 1_555
C5_3 C10_3 1_555 1_555
C6_3 H3_3 1_555 1_555
C8_3 H4_3 1_555 1_555
C11_3 C6_3 1_555 1_555
C23_3 C11_3 1_555 1_555
O17 C23_3 1_555 1_555
O18 C23_3 1_555 1_555
O13_3 Zn9_2 1_555 1_555
H11_3 O13_3 1_555 1_555
H12_3 O13_3 1_555 1_555
C8_3 C10_3 1_555 1_555
C8_3 C11_3 1_555 1_555
Zn9 O2_4 1_555 1_555
O2_4 C5_4 1_555 1_555
O4_4 Zn9 1_555 1_555
O14 C14_4 1_555 1_555
C2_4 H1_4 1_555 1_555
O6_4 C5_4 1_555 1_555
C3_4 H2_4 1_555 1_555
C4_4 C3_4 1_555 1_555
C5_4 C10_4 1_555 1_555
C6_4 H3_4 1_555 1_555
C8_4 H4_4 1_555 1_555
C9_4 H5_4 1_555 1_555
C10_4 C2_4 1_555 1_555
C11_4 C6_4 1_555 1_555
C12_4 C4_4 1_555 1_555
H6_4 C12_4 1_555 1_555
C13_4 C3_4 1_555 1_555
C14_4 C4_4 1_555 1_555
C15_4 C9_4 1_555 1_555
O10_4 C17_4 1_555 1_555
C16_4 C13_4 1_555 1_555
C17_4 O4_4 1_555 1_555
C23_4 C11_4 1_555 1_555
O17_2 C23_4 1_555 1_555
O18_2 C23_4 1_555 1_555
O13_4 Zn9 1_555 1_555
H11_4 O13_4 1_555 1_555
H12_4 O13_4 1_555 1_555
C2_4 C7_4 1_555 1_555
C6_4 C7_4 1_555 1_555
C8_4 C10_4 1_555 1_555
C8_4 C11_4 1_555 1_555
C9_4 C13_4 1_555 1_555
C12_4 C15_4 1_555 1_555
C15_4 C17_4 1_555 1_555
Zn6 N2_4 1_555 1_555
Zn8 O1_4 1_555 1_555
O1_4 C1_4 1_555 1_555
C1_4 O7_4 1_555 1_555
N1_4 Zn8 1_555 1_555
N2_4 C19_4 1_555 1_555
N6 C18_4 1_555 1_555
C18_4 C19_4 1_555 1_555
C19_4 N1_4 1_555 1_555
N5_4 C20_4 1_555 1_555
C20_4 N2_4 1_555 1_555
H9_4 C20_4 1_555 1_555
C21_4 N1_4 1_555 1_555
H10_4 C21_4 1_555 1_555
N6 C21_4 1_555 1_555
C18_4 C22_4 1_555 1_555
N5_4 C22_4 1_555 1_555
N4_3 H7_3 1_555 1_555
H8_3 N4_3 1_555 1_555
N4_4 H7_4 1_555 1_555
H8_4 N4_4 1_555 1_555

#END
