
###############################################################################
#
# This file contains modified crystal structure data generated from the
# MOF subset of the Cambridge Structural Database (CSD) v543 
# hosted by the Cambridge Crystallographic Data Centre (CCDC).
#
# This work is licensed under the Creative Commons
# Attribution-NonCommercial-ShareAlike 4.0 International License.
# To view a copy of this license, visit
# http://creativecommons.org/licenses/by-nc-sa/4.0/
# or send a letter to
# Creative Commons, PO Box 1866, Mountain View, CA 94042, USA.
#
# CIF created using the CSD Python API on 29 September 2022
# The structure has been converted into the P1 space group
# The structure has a 3D framework
# The original CSD entry DUQKIM is in the monoclinic crystal system
# The framework has been calculated to contain at least 10.0% void space
# The void calculation uses a probe of radius 1.32A, grid spacing 0.4
# The framework is charged, counterions have been retained in the structure
#
###############################################################################

data_DUQKIM
_chemical_formula_moiety         '(C16 O29 Sc2 2-)n'
_symmetry_cell_setting           triclinic
_symmetry_space_group_name_H-M   'P 1'
_symmetry_Int_Tables_number      1
_space_group_name_Hall           'P 1'
loop_
_symmetry_equiv_pos_site_id
_symmetry_equiv_pos_as_xyz
1 x,y,z
_cell_length_a                   8.1898(8)
_cell_length_b                   16.5549(13)
_cell_length_c                   8.2132(10)
_cell_angle_alpha                90
_cell_angle_beta                 105.637(11)
_cell_angle_gamma                90
_cell_volume                     1072.34
loop_
_atom_site_label
_atom_site_type_symbol
_atom_site_fract_x
_atom_site_fract_y
_atom_site_fract_z
O9 O 0.0027(4) 0.58095(16) 0.6342(4)
Sc3 Sc 0.750000 0.87569(6) 0.000000
Sc1 Sc 0.750000 0.62431(6) 0.500000
O1 O 0.4973(4) 0.58095(16) 0.3658(4)
O2 O 0.3049(3) 0.48451(16) 0.3563(4)
O3 O 0.6034(4) 0.76902(17) 0.8622(4)
O4 O 0.6167(4) 0.66879(17) 0.6839(4)
C1 C 0.4435(5) 0.5184(2) 0.4193(6)
C2 C 0.6688(6) 0.7322(3) 0.7627(6)
O5 O 0.5027(4) 0.41905(16) 0.6342(4)
O6 O 0.6951(3) 0.51549(16) 0.6437(4)
C3 C 0.5565(5) 0.4816(2) 0.5807(6)
O7 O 0.8966(4) 0.73098(17) 0.6378(4)
O8 O 0.8833(4) 0.83121(17) 0.8161(4)
C4 C 0.8312(6) 0.7678(3) 0.7373(6)
Sc2 Sc 0.250000 0.37569(6) 0.500000
Sc3_2 Sc 0.750000 0.87569(6) 1.000000
O10 O 0.8049(3) 0.51549(16) 0.3563(4)
O11 O 0.6034(4) 0.73098(17) 0.3622(4)
O12 O 0.8833(4) 0.66879(17) 0.3161(4)
O2_2 O 0.1951(3) 0.48451(16) 0.6437(4)
C1_2 C 0.0565(5) 0.5184(2) 0.5807(6)
O3_2 O 0.8966(4) 0.76902(17) 0.1378(4)
C2_2 C 0.8312(6) 0.7322(3) 0.2373(6)
O5_2 O 0.9973(4) 0.41905(16) 0.3658(4)
C3_2 C 0.9435(5) 0.4816(2) 0.4193(6)
O8_2 O 0.6167(4) 0.83121(17) 0.1839(4)
C4_2 C 0.6688(6) 0.7678(3) 0.2627(6)
Sc1_2 Sc 0.250000 0.12431(6) 0.000000
O3_3 O 0.1034(4) 0.26902(17) 0.3622(4)
O4_2 O 0.1167(4) 0.16879(17) 0.1839(4)
C2_3 C 0.1688(6) 0.2322(3) 0.2627(6)
O6_2 O 0.1951(3) 0.01549(16) 0.1437(4)
O7_2 O 0.3966(4) 0.23098(17) 0.1378(4)
O8_3 O 0.3833(4) 0.33121(17) 0.3161(4)
C4_3 C 0.3312(6) 0.2678(3) 0.2373(6)
O9_2 O 0.5027(4) 0.08095(16) 0.1342(4)
Sc1_3 Sc 0.250000 0.12431(6) 1.000000
O10_2 O 0.3049(3) 0.01549(16) 0.8563(4)
O11_2 O 0.1034(4) 0.23098(17) 0.8622(4)
O12_2 O 0.3833(4) 0.16879(17) 0.8161(4)
O2_3 O 0.8049(3) 0.98451(16) 0.8563(4)
C1_3 C 0.5565(5) 0.0184(2) 0.0807(6)
O3_4 O 0.3966(4) 0.26902(17) 0.6378(4)
C2_4 C 0.3312(6) 0.2322(3) 0.7373(6)
O8_4 O 0.1167(4) 0.33121(17) 0.6839(4)
C4_4 C 0.1688(6) 0.2678(3) 0.7627(6)
O2_4 O 0.6951(3) 0.98451(16) 0.1437(4)
O5_3 O 0.4973(4) 0.91905(16) 0.8658(4)
C3_3 C 0.4435(5) 0.9816(2) 0.9193(6)
O5_4 O 0.0027(4) 0.91905(16) 0.1342(4)
C3_4 C 0.0565(5) 0.9816(2) 0.0807(6)
O1_2 O 0.9973(4) 0.08095(16) 0.8658(4)
C1_4 C 0.9435(5) 0.0184(2) 0.9193(6)
loop_
_geom_bond_atom_site_label_1
_geom_bond_atom_site_label_2
_geom_bond_site_symmetry_1
_geom_bond_site_symmetry_2
Sc1 O1 1_555 1_555
O1 C1 1_555 1_555
O2 C1 1_555 1_555
O3 C2 1_555 1_555
O4 Sc1 1_555 1_555
C1 C3 1_555 1_555
C2 O4 1_555 1_555
O5 C3 1_555 1_555
O6 Sc1 1_555 1_555
C3 O6 1_555 1_555
O7 Sc1 1_555 1_555
O8 C4 1_555 1_555
C4 C2 1_555 1_555
Sc2 O2 1_555 1_555
Sc3_2 O3 1_555 1_555
O10 Sc1 1_555 1_555
O11 Sc1 1_555 1_555
O12 Sc1 1_555 1_555
O5 Sc2 1_555 1_555
O7 C4 1_555 1_555
O8 Sc3_2 1_555 1_555
O9 C1_2 1_555 1_555
O2_2 C1_2 1_555 1_555
Sc2 O2_2 1_555 1_555
O3_2 C2_2 1_555 1_555
C2_2 O12 1_555 1_555
O5_2 C3_2 1_555 1_555
C3_2 O10 1_555 1_555
O8_2 C4_2 1_555 1_555
C4_2 C2_2 1_555 1_555
Sc3 O3_2 1_555 1_555
O11 C4_2 1_555 1_555
O8_2 Sc3 1_555 1_555
O3_3 C2_3 1_555 1_555
O4_2 Sc1_2 1_555 1_555
C2_3 O4_2 1_555 1_555
O6_2 Sc1_2 1_555 1_555
O7_2 Sc1_2 1_555 1_555
O8_3 C4_3 1_555 1_555
C4_3 C2_3 1_555 1_555
Sc2 O3_3 1_555 1_555
O9_2 Sc1_2 1_555 1_555
O7_2 C4_3 1_555 1_555
O8_3 Sc2 1_555 1_555
O10_2 Sc1_3 1_555 1_555
O11_2 Sc1_3 1_555 1_555
O12_2 Sc1_3 1_555 1_555
Sc3_2 O2_3 1_555 1_555
O9_2 C1_3 1_555 1_555
O3_4 C2_4 1_555 1_555
C2_4 O12_2 1_555 1_555
O8_4 C4_4 1_555 1_555
C4_4 C2_4 1_555 1_555
Sc2 O3_4 1_555 1_555
O11_2 C4_4 1_555 1_555
O8_4 Sc2 1_555 1_555
Sc3 O2_4 1_555 1_555
O5_3 C3_3 1_555 1_555
O5_3 Sc3_2 1_555 1_555
O5_4 C3_4 1_555 1_555
O1_2 C1_4 1_555 1_555

#END
