
###############################################################################
#
# This file contains modified crystal structure data generated from the
# MOF subset of the Cambridge Structural Database (CSD) v543 
# hosted by the Cambridge Crystallographic Data Centre (CCDC).
#
# This work is licensed under the Creative Commons
# Attribution-NonCommercial-ShareAlike 4.0 International License.
# To view a copy of this license, visit
# http://creativecommons.org/licenses/by-nc-sa/4.0/
# or send a letter to
# Creative Commons, PO Box 1866, Mountain View, CA 94042, USA.
#
# CIF created using the CSD Python API on 29 September 2022
# The structure has been converted into the P1 space group
# The structure has a 3D framework
# The original CSD entry DUQRIR is in the orthorhombic crystal system
# The framework has been calculated to contain at least 10.0% void space
# The void calculation uses a probe of radius 1.32A, grid spacing 0.4
#
###############################################################################

data_DUQRIR
_chemical_formula_moiety         '(C336 H224 Cd16 N16 O80)n'
_symmetry_cell_setting           triclinic
_symmetry_space_group_name_H-M   'P 1'
_symmetry_Int_Tables_number      1
_space_group_name_Hall           'P 1'
loop_
_symmetry_equiv_pos_site_id
_symmetry_equiv_pos_as_xyz
1 x,y,z
_cell_length_a                   17.3784(4)
_cell_length_b                   21.2929(6)
_cell_length_c                   21.9656(5)
_cell_angle_alpha                90
_cell_angle_beta                 90
_cell_angle_gamma                90
_cell_volume                     8128.07
loop_
_atom_site_label
_atom_site_type_symbol
_atom_site_fract_x
_atom_site_fract_y
_atom_site_fract_z
Cd1 Cd 0.36145(3) 0.282602(17) 0.211159(17)
Cd2 Cd 0.60211(3) 0.23294(3) 0.29937(2)
C1 C 0.2222(4) 0.6688(3) 0.2185(2)
C2 C 0.2513(3) 0.6021(2) 0.2146(2)
C3 C 0.2411(3) 0.5692(2) 0.1592(2)
C4 C 0.2100(4) 0.5979(3) 0.1064(3)
H1 H 0.1967 0.6402 0.1076
C5 C 0.1994(4) 0.5652(3) 0.0543(3)
H2 H 0.1781 0.5850 0.0205
C6 C 0.2202(4) 0.5017(3) 0.0510(3)
H3 H 0.2126 0.4796 0.0150
C7 C 0.2510(4) 0.4725(3) 0.0991(3)
H4 H 0.2646 0.4304 0.0958
C8 C 0.2633(3) 0.5042(2) 0.1554(3)
C9 C 0.2965(3) 0.4749(2) 0.2068(2)
C10 C 0.3221(4) 0.4067(2) 0.2033(2)
C11 C 0.3059(3) 0.5074(2) 0.2618(3)
C12 C 0.3373(4) 0.4782(3) 0.3151(3)
H5 H 0.3522 0.4362 0.3135
C13 C 0.3456(4) 0.5107(3) 0.3674(3)
H6 H 0.3657 0.4907 0.4016
C14 C 0.3242(4) 0.5747(3) 0.3709(3)
H7 H 0.3306 0.5964 0.4073
C15 C 0.2946(3) 0.6045(3) 0.3222(3)
H8 H 0.2812 0.6467 0.3254
C16 C 0.2833(3) 0.5723(2) 0.2656(2)
C17 C 0.4217(5) 0.2364(3) 0.5933(3)
C18 C 0.4347(4) 0.2446(3) 0.5247(3)
C19 C 0.4610(4) 0.3024(3) 0.5008(3)
C20 C 0.4874(4) 0.3520(3) 0.5382(3)
H9 H 0.4880 0.3470 0.5803
C21 C 0.5116(4) 0.4063(3) 0.5137(3)
H10 H 0.5290 0.4380 0.5394
C22 C 0.5116(4) 0.4168(3) 0.4503(3)
H11 H 0.5295 0.4545 0.4344
C23 C 0.4848(4) 0.3706(3) 0.4126(3)
H12 H 0.4834 0.3776 0.3708
C24 C 0.4589(3) 0.3122(3) 0.4362(2)
C25 C 0.4327(3) 0.2636(3) 0.3980(2)
C26 C 0.4214(4) 0.2752(3) 0.3303(2)
C27 C 0.4111(3) 0.2051(3) 0.4217(2)
C28 C 0.3885(3) 0.1552(3) 0.3843(3)
H13 H 0.3875 0.1611 0.3424
C29 C 0.3680(4) 0.0983(3) 0.4075(3)
H14 H 0.3527 0.0661 0.3815
C30 C 0.3701(4) 0.0881(3) 0.4713(3)
H15 H 0.3569 0.0491 0.4871
C31 C 0.3911(4) 0.1349(3) 0.5088(3)
H16 H 0.3917 0.1276 0.5506
C32 C 0.4126(3) 0.1955(3) 0.4864(2)
C33 C 0.6684(6) 0.3052(5) 0.4215(5)
H17 H 0.6720 0.3386 0.3943
C34 C 0.6940(7) 0.3133(6) 0.4787(6)
H18 H 0.7180 0.3505 0.4900
C35 C 0.6841(10) 0.2654(7) 0.5204(7)
H19 H 0.6980 0.2705 0.5610
C36 C 0.6511(8) 0.2066(6) 0.4985(5)
H20 H 0.6452 0.1728 0.5250
C37 C 0.6287(5) 0.2010(4) 0.4384(3)
C38 C 0.5981(4) 0.1446(4) 0.4132(4)
C39 C 0.5847(5) 0.0904(4) 0.4510(5)
H21 H 0.5942 0.0912 0.4926
C40 C 0.5583(6) 0.0396(5) 0.4238(5)
H22 H 0.5488 0.0043 0.4474
C41 C 0.5438(6) 0.0360(4) 0.3608(6)
C42 C 0.5546(5) 0.0896(3) 0.3272(4)
H24 H 0.5427 0.0902 0.2859
N1 N 0.6375(4) 0.2506(3) 0.4016(3)
N2 N 0.5835(3) 0.1432(3) 0.3556(3)
O1 O 0.5829(5) 0.2113(5) 0.2014(3)
H25 H 0.5481 0.2334 0.1882
H26 H 0.6273 0.2217 0.1883
O2 O 0.2711(2) 0.36503(17) 0.20563(19)
O3 O 0.6248(4) 0.3351(3) 0.2802(4)
H27 H 0.6708 0.3424 0.2845
O4 O 0.3911(3) 0.39455(19) 0.2010(2)
O5 O 0.1502(2) 0.67530(18) 0.22253(19)
O6 O 0.2672(2) 0.71406(17) 0.21785(19)
O7 O 0.3566(3) 0.2940(2) 0.31411(18)
O8 O 0.4744(2) 0.2649(2) 0.29348(17)
O9 O 0.4751(4) 0.2310(3) 0.6286(2)
O10 O 0.3523(4) 0.2355(3) 0.6100(2)
H28 H 0.6115(15) 0.3294(8) 0.2434(8)
Cd3 Cd 0.13855(3) 0.782602(17) 0.211159(17)
Cd4 Cd 0.36145(3) 0.217398(17) 0.711159(17)
Cd5 Cd 0.39789(3) 0.73294(3) 0.20063(2)
O11 O 0.3498(2) 0.17530(18) 0.22253(19)
O12 O 0.7328(2) 0.21406(17) 0.28215(19)
O13 O 0.3523(4) 0.2645(3) 0.1100(2)
C17_2 C 0.0783(5) 0.7636(3) 0.0933(3)
C18_2 C 0.0653(4) 0.7554(3) 0.0247(3)
C19_2 C 0.0390(4) 0.6976(3) 0.0008(3)
C20_2 C 0.0126(4) 0.6480(3) 0.0382(3)
H9_2 H 0.0120 0.6530 0.0803
C31_2 C 0.1089(4) 0.8651(3) 0.0088(3)
H16_2 H 0.1083 0.8724 0.0506
O9_2 O 0.0249(4) 0.7690(3) 0.1286(2)
O10_2 O 0.1477(4) 0.7645(3) 0.1100(2)
Cd1_2 Cd 0.13855(3) 0.717398(17) 0.711159(17)
C1_2 C 0.2778(4) 0.3312(3) 0.7185(2)
C2_2 C 0.2487(3) 0.3979(2) 0.7146(2)
C3_2 C 0.2589(3) 0.4308(2) 0.6592(2)
C4_2 C 0.2900(4) 0.4021(3) 0.6064(3)
H1_2 H 0.3033 0.3598 0.6076
C5_2 C 0.3006(4) 0.4348(3) 0.5543(3)
H2_2 H 0.3219 0.4150 0.5205
C6_2 C 0.2798(4) 0.4983(3) 0.5510(3)
H3_2 H 0.2874 0.5204 0.5150
C7_2 C 0.2490(4) 0.5275(3) 0.5991(3)
H4_2 H 0.2354 0.5696 0.5958
C8_2 C 0.2367(3) 0.4958(2) 0.6554(3)
C9_2 C 0.2035(3) 0.5251(2) 0.7068(2)
C10_2 C 0.1779(4) 0.5933(2) 0.7033(2)
C11_2 C 0.1941(3) 0.4926(2) 0.7618(3)
C12_2 C 0.1627(4) 0.5218(3) 0.8151(3)
H5_2 H 0.1478 0.5638 0.8135
C13_2 C 0.1544(4) 0.4893(3) 0.8674(3)
H6_2 H 0.1343 0.5093 0.9016
C14_2 C 0.1758(4) 0.4253(3) 0.8709(3)
H7_2 H 0.1694 0.4036 0.9073
C15_2 C 0.2054(3) 0.3955(3) 0.8222(3)
H8_2 H 0.2188 0.3533 0.8254
C16_2 C 0.2167(3) 0.4277(2) 0.7656(2)
C23_2 C 0.0152(4) 0.6294(3) 0.9126(3)
H12_2 H 0.0166 0.6224 0.8708
C24_2 C 0.0411(3) 0.6878(3) 0.9362(2)
C25_2 C 0.0673(3) 0.7364(3) 0.8980(2)
C26_2 C 0.0786(4) 0.7248(3) 0.8303(2)
C27_2 C 0.0889(3) 0.7949(3) 0.9217(2)
C28_2 C 0.1115(3) 0.8448(3) 0.8843(3)
H13_2 H 0.1125 0.8389 0.8424
C29_2 C 0.1320(4) 0.9017(3) 0.9075(3)
H14_2 H 0.1473 0.9339 0.8815
C30_2 C 0.1299(4) 0.9119(3) 0.9713(3)
H15_2 H 0.1431 0.9509 0.9871
C32_2 C 0.0874(3) 0.8045(3) 0.9864(2)
O2_2 O 0.2289(2) 0.63497(17) 0.70563(19)
O4_2 O 0.1089(3) 0.60545(19) 0.7010(2)
O5_2 O 0.3498(2) 0.32470(18) 0.72253(19)
O6_2 O 0.2328(2) 0.28594(17) 0.71785(19)
O7_2 O 0.1434(3) 0.7060(2) 0.81411(18)
O8_2 O 0.0256(2) 0.7351(2) 0.79348(17)
Cd5_2 Cd 0.10211(3) 0.26706(3) 0.70063(2)
O11_2 O 0.1502(2) 0.82470(18) 0.72253(19)
O13_2 O 0.1477(4) 0.7355(3) 0.6100(2)
Cd2_2 Cd 0.89789(3) 0.76706(3) 0.79937(2)
C22_2 C 0.9884(4) 0.5832(3) 0.9503(3)
H11_2 H 0.9705 0.5455 0.9344
C33_2 C 0.8316(6) 0.6948(5) 0.9215(5)
H17_2 H 0.8280 0.6614 0.8943
C34_2 C 0.8060(7) 0.6867(6) 0.9787(6)
H18_2 H 0.7820 0.6495 0.9900
C36_2 C 0.8489(8) 0.7934(6) 0.9985(5)
C37_2 C 0.8713(5) 0.7990(4) 0.9384(3)
C38_2 C 0.9019(4) 0.8554(4) 0.9132(4)
C39_2 C 0.9153(5) 0.9096(4) 0.9510(5)
H21_2 H 0.9058 0.9088 0.9926
C40_2 C 0.9417(6) 0.9604(5) 0.9238(5)
H22_2 H 0.9512 0.9957 0.9474
C41_2 C 0.9562(6) 0.9640(4) 0.8608(6)
C42_2 C 0.9454(5) 0.9104(3) 0.8272(4)
H24_2 H 0.9573 0.9098 0.7859
N1_2 N 0.8625(4) 0.7494(3) 0.9016(3)
N2_2 N 0.9165(3) 0.8568(3) 0.8556(3)
O1_2 O 0.9171(5) 0.7887(5) 0.7014(3)
H25_2 H 0.9519 0.7666 0.6882
H26_2 H 0.8727 0.7783 0.6883
O3_2 O 0.8752(4) 0.6649(3) 0.7802(4)
H27_2 H 0.8292 0.6576 0.7845
H28_2 H 0.8885(15) 0.6706(8) 0.7434(8)
O12_2 O 0.7672(2) 0.78594(17) 0.78215(19)
C1_3 C 0.7778(4) 0.1688(3) 0.2815(2)
C2_3 C 0.7487(3) 0.1021(2) 0.2854(2)
C3_3 C 0.7589(3) 0.0692(2) 0.3408(2)
C4_3 C 0.7900(4) 0.0979(3) 0.3936(3)
H1_3 H 0.8033 0.1402 0.3924
C5_3 C 0.8006(4) 0.0652(3) 0.4457(3)
H2_3 H 0.8219 0.0850 0.4795
C6_3 C 0.7798(4) 0.0017(3) 0.4490(3)
C8_3 C 0.7367(3) 0.0042(2) 0.3446(3)
C11_3 C 0.6941(3) 0.0074(2) 0.2382(3)
C13_3 C 0.6544(4) 0.0107(3) 0.1326(3)
C14_3 C 0.6758(4) 0.0747(3) 0.1291(3)
H7_3 H 0.6694 0.0964 0.0927
C15_3 C 0.7054(3) 0.1045(3) 0.1778(3)
H8_3 H 0.7188 0.1467 0.1746
C16_3 C 0.7167(3) 0.0723(2) 0.2344(2)
O5_3 O 0.8498(2) 0.17530(18) 0.27747(19)
Cd3_2 Cd 0.86145(3) 0.282602(17) 0.288841(17)
Cd1_3 Cd 0.63855(3) 0.782602(17) 0.288841(17)
H3_3 H 0.7874 0.9796 0.4850
C7_3 C 0.7490(4) 0.9725(3) 0.4009(3)
H4_3 H 0.7354 0.9304 0.4042
C9_3 C 0.7035(3) 0.9749(2) 0.2932(2)
C10_3 C 0.6779(4) 0.9067(2) 0.2967(2)
C12_3 C 0.6627(4) 0.9782(3) 0.1849(3)
H5_3 H 0.6478 0.9362 0.1865
H6_3 H 0.6343 0.9907 0.0984
C22_3 C 0.4884(4) 0.9168(3) 0.0497(3)
H11_3 H 0.4705 0.9545 0.0656
C23_3 C 0.5152(4) 0.8706(3) 0.0874(3)
H12_3 H 0.5166 0.8776 0.1292
C24_3 C 0.5411(3) 0.8122(3) 0.0638(2)
C25_3 C 0.5673(3) 0.7636(3) 0.1020(2)
C26_3 C 0.5786(4) 0.7752(3) 0.1697(2)
C27_3 C 0.5889(3) 0.7051(3) 0.0783(2)
C28_3 C 0.6115(3) 0.6552(3) 0.1157(3)
H13_3 H 0.6125 0.6611 0.1576
C29_3 C 0.6320(4) 0.5983(3) 0.0925(3)
H14_3 H 0.6473 0.5661 0.1185
C30_3 C 0.6299(4) 0.5881(3) 0.0287(3)
H15_3 H 0.6431 0.5491 0.0129
C32_3 C 0.5874(3) 0.6955(3) 0.0136(2)
C33_3 C 0.3316(6) 0.8052(5) 0.0785(5)
H17_3 H 0.3280 0.8386 0.1057
C34_3 C 0.3060(7) 0.8133(6) 0.0213(6)
H18_3 H 0.2820 0.8505 0.0100
C36_3 C 0.3489(8) 0.7066(6) 0.0015(5)
C37_3 C 0.3713(5) 0.7010(4) 0.0616(3)
C38_3 C 0.4019(4) 0.6446(4) 0.0868(4)
C39_3 C 0.4153(5) 0.5904(4) 0.0490(5)
H21_3 H 0.4058 0.5912 0.0074
C40_3 C 0.4417(6) 0.5396(5) 0.0762(5)
H22_3 H 0.4512 0.5043 0.0526
C41_3 C 0.4562(6) 0.5360(4) 0.1392(6)
H23 H 0.4724 0.4988 0.1573
C42_3 C 0.4454(5) 0.5896(3) 0.1728(4)
H24_3 H 0.4573 0.5902 0.2141
N1_3 N 0.3625(4) 0.7506(3) 0.0984(3)
N2_3 N 0.4165(3) 0.6432(3) 0.1444(3)
O1_3 O 0.4171(5) 0.7113(5) 0.2986(3)
H25_3 H 0.4519 0.7334 0.3118
H26_3 H 0.3727 0.7217 0.3117
O2_3 O 0.7289(2) 0.86503(17) 0.29437(19)
O3_3 O 0.3752(4) 0.8351(3) 0.2198(4)
H27_3 H 0.3292 0.8424 0.2155
O4_3 O 0.6089(3) 0.89455(19) 0.2990(2)
O7_3 O 0.6434(3) 0.7940(2) 0.18589(18)
O8_3 O 0.5256(2) 0.7649(2) 0.20652(17)
H28_3 H 0.3885(15) 0.8294(8) 0.2566(8)
O11_3 O 0.6502(2) 0.67530(18) 0.27747(19)
O13_3 O 0.6477(4) 0.7645(3) 0.3900(2)
C17_3 C 0.5783(5) 0.7364(3) 0.9067(3)
C18_3 C 0.5653(4) 0.7446(3) 0.9753(3)
C19_3 C 0.5390(4) 0.8024(3) 0.9992(3)
C20_3 C 0.5126(4) 0.8520(3) 0.9618(3)
H9_3 H 0.5120 0.8470 0.9197
C21_2 C 0.4884(4) 0.9063(3) 0.9863(3)
H10_2 H 0.4710 0.9380 0.9606
C31_3 C 0.6089(4) 0.6349(3) 0.9912(3)
H16_3 H 0.6083 0.6276 0.9494
C35_2 C 0.3159(10) 0.7654(7) 0.9796(7)
H19_2 H 0.3020 0.7705 0.9390
H20_2 H 0.3548 0.6728 0.9750
O9_3 O 0.5249(4) 0.7310(3) 0.8714(2)
O10_3 O 0.6477(4) 0.7355(3) 0.8900(2)
Cd4_2 Cd 0.63855(3) 0.717398(17) 0.788841(17)
C21_3 C 0.0116(4) 0.0937(3) 0.4863(3)
H10_3 H 0.0290 0.0620 0.4606
C22_4 C 0.0116(4) 0.0832(3) 0.5497(3)
H11_4 H 0.0295 0.0455 0.5656
C33_4 C 0.1684(6) 0.1948(5) 0.5785(5)
H17_4 H 0.1720 0.1614 0.6057
C34_4 C 0.1940(7) 0.1867(6) 0.5213(6)
H18_4 H 0.2180 0.1495 0.5100
C35_3 C 0.1841(10) 0.2346(7) 0.4796(7)
H19_3 H 0.1980 0.2295 0.4390
C36_4 C 0.1511(8) 0.2934(6) 0.5015(5)
H20_3 H 0.1452 0.3272 0.4750
C37_4 C 0.1287(5) 0.2990(4) 0.5616(3)
C38_4 C 0.0981(4) 0.3554(4) 0.5868(4)
C39_4 C 0.0847(5) 0.4096(4) 0.5490(5)
H21_4 H 0.0942 0.4088 0.5074
C40_4 C 0.0583(6) 0.4604(5) 0.5762(5)
H22_4 H 0.0488 0.4957 0.5526
C41_4 C 0.0438(6) 0.4640(4) 0.6392(6)
H23_2 H 0.0276 0.5012 0.6573
C42_4 C 0.0546(5) 0.4104(3) 0.6728(4)
H24_4 H 0.0427 0.4098 0.7141
N1_4 N 0.1375(4) 0.2494(3) 0.5984(3)
N2_4 N 0.0835(3) 0.3568(3) 0.6444(3)
O1_4 O 0.0829(5) 0.2887(5) 0.7986(3)
H25_4 H 0.0481 0.2666 0.8118
H26_4 H 0.1273 0.2783 0.8117
O3_4 O 0.1248(4) 0.1649(3) 0.7198(4)
H27_4 H 0.1708 0.1576 0.7155
H28_4 H 0.1115(15) 0.1706(8) 0.7566(8)
Cd1_4 Cd 0.86145(3) 0.217398(17) 0.788841(17)
H3_4 H 0.7126 0.0204 0.9850
C7_4 C 0.7510(4) 0.0275(3) 0.9009(3)
H4_4 H 0.7646 0.0696 0.9042
C9_4 C 0.7965(3) 0.0251(2) 0.7932(2)
C10_4 C 0.8221(4) 0.0933(2) 0.7967(2)
C12_4 C 0.8373(4) 0.0218(3) 0.6849(3)
H5_4 H 0.8522 0.0638 0.6865
H6_4 H 0.8657 0.0093 0.5984
C17_4 C 0.9217(5) 0.2636(3) 0.4067(3)
C18_4 C 0.9347(4) 0.2554(3) 0.4753(3)
C19_4 C 0.9610(4) 0.1976(3) 0.4992(3)
C20_4 C 0.9874(4) 0.1480(3) 0.4618(3)
H9_4 H 0.9880 0.1530 0.4197
C23_4 C 0.9848(4) 0.1294(3) 0.5874(3)
H12_4 H 0.9834 0.1224 0.6292
C24_4 C 0.9589(3) 0.1878(3) 0.5638(2)
C25_4 C 0.9327(3) 0.2364(3) 0.6020(2)
C26_4 C 0.9214(4) 0.2248(3) 0.6697(2)
C27_4 C 0.9111(3) 0.2949(3) 0.5783(2)
C28_4 C 0.8885(3) 0.3448(3) 0.6157(3)
H13_4 H 0.8875 0.3389 0.6576
C29_4 C 0.8680(4) 0.4017(3) 0.5925(3)
H14_4 H 0.8527 0.4339 0.6185
C30_4 C 0.8701(4) 0.4119(3) 0.5287(3)
H15_4 H 0.8569 0.4509 0.5129
C31_4 C 0.8911(4) 0.3651(3) 0.4912(3)
H16_4 H 0.8917 0.3724 0.4494
C32_4 C 0.9126(3) 0.3045(3) 0.5136(2)
O2_4 O 0.7711(2) 0.13497(17) 0.79437(19)
O4_4 O 0.8911(3) 0.10545(19) 0.7990(2)
O7_4 O 0.8566(3) 0.2060(2) 0.68589(18)
O8_4 O 0.9744(2) 0.2351(2) 0.70652(17)
O9_4 O 0.9751(4) 0.2690(3) 0.3714(2)
O10_4 O 0.8523(4) 0.2645(3) 0.3900(2)
O11_4 O 0.8498(2) 0.32470(18) 0.77747(19)
O13_4 O 0.8523(4) 0.2355(3) 0.8900(2)
C1_4 C 0.7222(4) 0.8312(3) 0.7815(2)
C2_4 C 0.7513(3) 0.8979(2) 0.7854(2)
C3_4 C 0.7411(3) 0.9308(2) 0.8408(2)
C4_4 C 0.7100(4) 0.9021(3) 0.8936(3)
H1_4 H 0.6967 0.8598 0.8924
C5_4 C 0.6994(4) 0.9348(3) 0.9457(3)
H2_4 H 0.6781 0.9150 0.9795
C6_4 C 0.7202(4) 0.9983(3) 0.9490(3)
C8_4 C 0.7633(3) 0.9958(2) 0.8446(3)
C11_4 C 0.8059(3) 0.9926(2) 0.7382(3)
C13_4 C 0.8456(4) 0.9893(3) 0.6326(3)
C14_4 C 0.8242(4) 0.9253(3) 0.6291(3)
H7_4 H 0.8306 0.9036 0.5927
C15_4 C 0.7946(3) 0.8955(3) 0.6778(3)
H8_4 H 0.7812 0.8533 0.6746
C16_4 C 0.7833(3) 0.9277(2) 0.7344(2)
O5_4 O 0.6502(2) 0.82470(18) 0.77747(19)
Cd2_3 Cd 0.39789(3) 0.76706(3) 0.70063(2)
C1_5 C 0.7778(4) 0.3312(3) 0.7815(2)
C2_5 C 0.7487(3) 0.3979(2) 0.7854(2)
C3_5 C 0.7589(3) 0.4308(2) 0.8408(2)
C4_5 C 0.7900(4) 0.4021(3) 0.8936(3)
H1_5 H 0.8033 0.3598 0.8924
C5_5 C 0.8006(4) 0.4348(3) 0.9457(3)
H2_5 H 0.8219 0.4150 0.9795
C6_5 C 0.7798(4) 0.4983(3) 0.9490(3)
H3_5 H 0.7874 0.5204 0.9850
C7_5 C 0.7490(4) 0.5275(3) 0.9009(3)
H4_5 H 0.7354 0.5696 0.9042
C8_5 C 0.7367(3) 0.4958(2) 0.8446(3)
C9_5 C 0.7035(3) 0.5251(2) 0.7932(2)
C10_5 C 0.6779(4) 0.5933(2) 0.7967(2)
C11_5 C 0.6941(3) 0.4926(2) 0.7382(3)
C12_5 C 0.6627(4) 0.5218(3) 0.6849(3)
H5_5 H 0.6478 0.5638 0.6865
C13_5 C 0.6544(4) 0.4893(3) 0.6326(3)
H6_5 H 0.6343 0.5093 0.5984
C14_5 C 0.6758(4) 0.4253(3) 0.6291(3)
H7_5 H 0.6694 0.4036 0.5927
C15_5 C 0.7054(3) 0.3955(3) 0.6778(3)
H8_5 H 0.7188 0.3533 0.6746
C16_5 C 0.7167(3) 0.4277(2) 0.7344(2)
C17_5 C 0.5783(5) 0.7636(3) 0.4067(3)
C18_5 C 0.5653(4) 0.7554(3) 0.4753(3)
C19_5 C 0.5390(4) 0.6976(3) 0.4992(3)
C20_5 C 0.5126(4) 0.6480(3) 0.4618(3)
H9_5 H 0.5120 0.6530 0.4197
C21_4 C 0.4884(4) 0.5937(3) 0.4863(3)
H10_4 H 0.4710 0.5620 0.4606
C22_5 C 0.4884(4) 0.5832(3) 0.5497(3)
H11_5 H 0.4705 0.5455 0.5656
C23_5 C 0.5152(4) 0.6294(3) 0.5874(3)
H12_5 H 0.5166 0.6224 0.6292
C24_5 C 0.5411(3) 0.6878(3) 0.5638(2)
C25_5 C 0.5673(3) 0.7364(3) 0.6020(2)
C26_5 C 0.5786(4) 0.7248(3) 0.6697(2)
C27_5 C 0.5889(3) 0.7949(3) 0.5783(2)
C28_5 C 0.6115(3) 0.8448(3) 0.6157(3)
H13_5 H 0.6125 0.8389 0.6576
C29_5 C 0.6320(4) 0.9017(3) 0.5925(3)
H14_5 H 0.6473 0.9339 0.6185
C30_5 C 0.6299(4) 0.9119(3) 0.5287(3)
H15_5 H 0.6431 0.9509 0.5129
C31_5 C 0.6089(4) 0.8651(3) 0.4912(3)
H16_5 H 0.6083 0.8724 0.4494
C32_5 C 0.5874(3) 0.8045(3) 0.5136(2)
C33_5 C 0.3316(6) 0.6948(5) 0.5785(5)
H17_5 H 0.3280 0.6614 0.6057
C34_5 C 0.3060(7) 0.6867(6) 0.5213(6)
H18_5 H 0.2820 0.6495 0.5100
C35_4 C 0.3159(10) 0.7346(7) 0.4796(7)
H19_4 H 0.3020 0.7295 0.4390
C36_5 C 0.3489(8) 0.7934(6) 0.5015(5)
H20_4 H 0.3548 0.8272 0.4750
C37_5 C 0.3713(5) 0.7990(4) 0.5616(3)
C38_5 C 0.4019(4) 0.8554(4) 0.5868(4)
C39_5 C 0.4153(5) 0.9096(4) 0.5490(5)
H21_5 H 0.4058 0.9088 0.5074
C40_5 C 0.4417(6) 0.9604(5) 0.5762(5)
H22_5 H 0.4512 0.9957 0.5526
C41_5 C 0.4562(6) 0.9640(4) 0.6392(6)
C42_5 C 0.4454(5) 0.9104(3) 0.6728(4)
H24_5 H 0.4573 0.9098 0.7141
N1_5 N 0.3625(4) 0.7494(3) 0.5984(3)
N2_5 N 0.4165(3) 0.8568(3) 0.6444(3)
O1_5 O 0.4171(5) 0.7887(5) 0.7986(3)
H25_5 H 0.4519 0.7666 0.8118
H26_5 H 0.3727 0.7783 0.8117
O2_5 O 0.7289(2) 0.63497(17) 0.79437(19)
O3_5 O 0.3752(4) 0.6649(3) 0.7198(4)
H27_5 H 0.3292 0.6576 0.7155
O4_5 O 0.6089(3) 0.60545(19) 0.7990(2)
O6_3 O 0.7328(2) 0.28594(17) 0.78215(19)
O7_5 O 0.6434(3) 0.7060(2) 0.68589(18)
O8_5 O 0.5256(2) 0.7351(2) 0.70652(17)
O9_5 O 0.5249(4) 0.7690(3) 0.3714(2)
H28_5 H 0.3885(15) 0.6706(8) 0.7566(8)
Cd5_3 Cd 0.60211(3) 0.26706(3) 0.79937(2)
O12_3 O 0.2672(2) 0.78594(17) 0.71785(19)
Cd2_4 Cd 0.10211(3) 0.23294(3) 0.20063(2)
C22_6 C 0.0116(4) 0.4168(3) 0.0497(3)
H11_6 H 0.0295 0.4545 0.0656
C33_6 C 0.1684(6) 0.3052(5) 0.0785(5)
H17_6 H 0.1720 0.3386 0.1057
C34_6 C 0.1940(7) 0.3133(6) 0.0213(6)
H18_6 H 0.2180 0.3505 0.0100
C36_6 C 0.1511(8) 0.2066(6) 0.0015(5)
C37_6 C 0.1287(5) 0.2010(4) 0.0616(3)
C38_6 C 0.0981(4) 0.1446(4) 0.0868(4)
C39_6 C 0.0847(5) 0.0904(4) 0.0490(5)
H21_6 H 0.0942 0.0912 0.0074
C40_6 C 0.0583(6) 0.0396(5) 0.0762(5)
H22_6 H 0.0488 0.0043 0.0526
C41_6 C 0.0438(6) 0.0360(4) 0.1392(6)
C42_6 C 0.0546(5) 0.0896(3) 0.1728(4)
H24_6 H 0.0427 0.0902 0.2141
N1_6 N 0.1375(4) 0.2506(3) 0.0984(3)
N2_6 N 0.0835(3) 0.1432(3) 0.1444(3)
O1_6 O 0.0829(5) 0.2113(5) 0.2986(3)
H25_6 H 0.0481 0.2334 0.3118
H26_6 H 0.1273 0.2217 0.3117
O3_6 O 0.1248(4) 0.3351(3) 0.2198(4)
H27_6 H 0.1708 0.3424 0.2155
H28_6 H 0.1115(15) 0.3294(8) 0.2566(8)
O12_4 O 0.2328(2) 0.21406(17) 0.21785(19)
C1_6 C 0.7222(4) 0.6688(3) 0.2815(2)
C2_6 C 0.7513(3) 0.6021(2) 0.2854(2)
C3_6 C 0.7411(3) 0.5692(2) 0.3408(2)
C4_6 C 0.7100(4) 0.5979(3) 0.3936(3)
H1_6 H 0.6967 0.6402 0.3924
C5_6 C 0.6994(4) 0.5652(3) 0.4457(3)
H2_6 H 0.6781 0.5850 0.4795
C6_6 C 0.7202(4) 0.5017(3) 0.4490(3)
H3_6 H 0.7126 0.4796 0.4850
C7_6 C 0.7510(4) 0.4725(3) 0.4009(3)
H4_6 H 0.7646 0.4304 0.4042
C8_6 C 0.7633(3) 0.5042(2) 0.3446(3)
C9_6 C 0.7965(3) 0.4749(2) 0.2932(2)
C10_6 C 0.8221(4) 0.4067(2) 0.2967(2)
C11_6 C 0.8059(3) 0.5074(2) 0.2382(3)
C12_6 C 0.8373(4) 0.4782(3) 0.1849(3)
H5_6 H 0.8522 0.4362 0.1865
C13_6 C 0.8456(4) 0.5107(3) 0.1326(3)
H6_6 H 0.8657 0.4907 0.0984
C14_6 C 0.8242(4) 0.5747(3) 0.1291(3)
H7_6 H 0.8306 0.5964 0.0927
C15_6 C 0.7946(3) 0.6045(3) 0.1778(3)
H8_6 H 0.7812 0.6467 0.1746
C16_6 C 0.7833(3) 0.5723(2) 0.2344(2)
C23_6 C 0.9848(4) 0.3706(3) 0.0874(3)
H12_6 H 0.9834 0.3776 0.1292
C24_6 C 0.9589(3) 0.3122(3) 0.0638(2)
C25_6 C 0.9327(3) 0.2636(3) 0.1020(2)
C26_6 C 0.9214(4) 0.2752(3) 0.1697(2)
C27_6 C 0.9111(3) 0.2051(3) 0.0783(2)
C28_6 C 0.8885(3) 0.1552(3) 0.1157(3)
H13_6 H 0.8875 0.1611 0.1576
C29_6 C 0.8680(4) 0.0983(3) 0.0925(3)
H14_6 H 0.8527 0.0661 0.1185
C30_6 C 0.8701(4) 0.0881(3) 0.0287(3)
H15_6 H 0.8569 0.0491 0.0129
C32_6 C 0.9126(3) 0.1955(3) 0.0136(2)
O2_6 O 0.7711(2) 0.36503(17) 0.29437(19)
O4_6 O 0.8911(3) 0.39455(19) 0.2990(2)
O6_4 O 0.7672(2) 0.71406(17) 0.28215(19)
O7_6 O 0.8566(3) 0.2940(2) 0.18589(18)
O8_6 O 0.9744(2) 0.2649(2) 0.20652(17)
Cd5_4 Cd 0.89789(3) 0.73294(3) 0.29937(2)
C17_6 C 0.9217(5) 0.2364(3) 0.9067(3)
C18_6 C 0.9347(4) 0.2446(3) 0.9753(3)
C19_6 C 0.9610(4) 0.3024(3) 0.9992(3)
C20_6 C 0.9874(4) 0.3520(3) 0.9618(3)
H9_6 H 0.9880 0.3470 0.9197
C31_6 C 0.8911(4) 0.1349(3) 0.9912(3)
H16_6 H 0.8917 0.1276 0.9494
O9_6 O 0.9751(4) 0.2310(3) 0.8714(2)
C17_7 C 0.4217(5) 0.2636(3) 0.0933(3)
C18_7 C 0.4347(4) 0.2554(3) 0.0247(3)
C19_7 C 0.4610(4) 0.1976(3) 0.0008(3)
C20_7 C 0.4874(4) 0.1480(3) 0.0382(3)
H9_7 H 0.4880 0.1530 0.0803
C21_5 C 0.5116(4) 0.0937(3) 0.0137(3)
H10_5 H 0.5290 0.0620 0.0394
C31_7 C 0.3911(4) 0.3651(3) 0.0088(3)
H16_7 H 0.3917 0.3724 0.0506
C35_5 C 0.6841(10) 0.2346(7) 0.0204(7)
H19_5 H 0.6980 0.2295 0.0610
H20_5 H 0.6452 0.3272 0.0250
O9_7 O 0.4751(4) 0.2690(3) 0.1286(2)
H3_7 H 0.2126 0.0204 0.5150
C7_7 C 0.2510(4) 0.0275(3) 0.5991(3)
H4_7 H 0.2646 0.0696 0.5958
C9_7 C 0.2965(3) 0.0251(2) 0.7068(2)
C10_7 C 0.3221(4) 0.0933(2) 0.7033(2)
C12_7 C 0.3373(4) 0.0218(3) 0.8151(3)
H5_7 H 0.3522 0.0638 0.8135
H6_7 H 0.3657 0.0093 0.9016
C22_7 C 0.5116(4) 0.0832(3) 0.9503(3)
H11_7 H 0.5295 0.0455 0.9344
C23_7 C 0.4848(4) 0.1294(3) 0.9126(3)
H12_7 H 0.4834 0.1224 0.8708
C24_7 C 0.4589(3) 0.1878(3) 0.9362(2)
C25_7 C 0.4327(3) 0.2364(3) 0.8980(2)
C26_7 C 0.4214(4) 0.2248(3) 0.8303(2)
C27_7 C 0.4111(3) 0.2949(3) 0.9217(2)
C28_7 C 0.3885(3) 0.3448(3) 0.8843(3)
H13_7 H 0.3875 0.3389 0.8424
C29_7 C 0.3680(4) 0.4017(3) 0.9075(3)
H14_7 H 0.3527 0.4339 0.8815
C30_7 C 0.3701(4) 0.4119(3) 0.9713(3)
H15_7 H 0.3569 0.4509 0.9871
C32_7 C 0.4126(3) 0.3045(3) 0.9864(2)
C33_7 C 0.6684(6) 0.1948(5) 0.9215(5)
H17_7 H 0.6720 0.1614 0.8943
C34_7 C 0.6940(7) 0.1867(6) 0.9787(6)
H18_7 H 0.7180 0.1495 0.9900
C36_7 C 0.6511(8) 0.2934(6) 0.9985(5)
C37_7 C 0.6287(5) 0.2990(4) 0.9384(3)
C38_7 C 0.5981(4) 0.3554(4) 0.9132(4)
C39_7 C 0.5847(5) 0.4096(4) 0.9510(5)
H21_7 H 0.5942 0.4088 0.9926
C40_7 C 0.5583(6) 0.4604(5) 0.9238(5)
H22_7 H 0.5488 0.4957 0.9474
C41_7 C 0.5438(6) 0.4640(4) 0.8608(6)
H23_3 H 0.5276 0.5012 0.8427
C42_7 C 0.5546(5) 0.4104(3) 0.8272(4)
H24_7 H 0.5427 0.4098 0.7859
N1_7 N 0.6375(4) 0.2494(3) 0.9016(3)
N2_7 N 0.5835(3) 0.3568(3) 0.8556(3)
O1_7 O 0.5829(5) 0.2887(5) 0.7014(3)
H25_7 H 0.5481 0.2666 0.6882
H26_7 H 0.6273 0.2783 0.6883
O2_7 O 0.2711(2) 0.13497(17) 0.70563(19)
O3_7 O 0.6248(4) 0.1649(3) 0.7802(4)
H27_7 H 0.6708 0.1576 0.7845
O4_7 O 0.3911(3) 0.10545(19) 0.7010(2)
O7_7 O 0.3566(3) 0.2060(2) 0.81411(18)
O8_7 O 0.4744(2) 0.2351(2) 0.79348(17)
H28_7 H 0.6115(15) 0.1706(8) 0.7434(8)
C1_7 C 0.2222(4) 0.8312(3) 0.7185(2)
C2_7 C 0.2513(3) 0.8979(2) 0.7146(2)
C3_7 C 0.2411(3) 0.9308(2) 0.6592(2)
C4_7 C 0.2100(4) 0.9021(3) 0.6064(3)
H1_7 H 0.1967 0.8598 0.6076
C5_7 C 0.1994(4) 0.9348(3) 0.5543(3)
H2_7 H 0.1781 0.9150 0.5205
C6_7 C 0.2202(4) 0.9983(3) 0.5510(3)
C8_7 C 0.2633(3) 0.9958(2) 0.6554(3)
C11_7 C 0.3059(3) 0.9926(2) 0.7618(3)
C13_7 C 0.3456(4) 0.9893(3) 0.8674(3)
C14_7 C 0.3242(4) 0.9253(3) 0.8709(3)
H7_7 H 0.3306 0.9036 0.9073
C15_7 C 0.2946(3) 0.8955(3) 0.8222(3)
H8_7 H 0.2812 0.8533 0.8254
C16_7 C 0.2833(3) 0.9277(2) 0.7656(2)
C1_8 C 0.2778(4) 0.1688(3) 0.2185(2)
C2_8 C 0.2487(3) 0.1021(2) 0.2146(2)
C3_8 C 0.2589(3) 0.0692(2) 0.1592(2)
C4_8 C 0.2900(4) 0.0979(3) 0.1064(3)
H1_8 H 0.3033 0.1402 0.1076
C5_8 C 0.3006(4) 0.0652(3) 0.0543(3)
H2_8 H 0.3219 0.0850 0.0205
C6_8 C 0.2798(4) 0.0017(3) 0.0510(3)
C8_8 C 0.2367(3) 0.0042(2) 0.1554(3)
C11_8 C 0.1941(3) 0.0074(2) 0.2618(3)
C13_8 C 0.1544(4) 0.0107(3) 0.3674(3)
C14_8 C 0.1758(4) 0.0747(3) 0.3709(3)
H7_8 H 0.1694 0.0964 0.4073
C15_8 C 0.2054(3) 0.1045(3) 0.3222(3)
H8_8 H 0.2188 0.1467 0.3254
C16_8 C 0.2167(3) 0.0723(2) 0.2656(2)
H3_8 H 0.2874 0.9796 0.0150
C7_8 C 0.2490(4) 0.9725(3) 0.0991(3)
H4_8 H 0.2354 0.9304 0.0958
C9_8 C 0.2035(3) 0.9749(2) 0.2068(2)
C10_8 C 0.1779(4) 0.9067(2) 0.2033(2)
C12_8 C 0.1627(4) 0.9782(3) 0.3151(3)
H5_8 H 0.1478 0.9362 0.3135
H6_8 H 0.1343 0.9907 0.4016
C17_8 C 0.0783(5) 0.7364(3) 0.5933(3)
C18_8 C 0.0653(4) 0.7446(3) 0.5247(3)
C19_8 C 0.0390(4) 0.8024(3) 0.5008(3)
C20_8 C 0.0126(4) 0.8520(3) 0.5382(3)
H9_8 H 0.0120 0.8470 0.5803
C23_8 C 0.0152(4) 0.8706(3) 0.4126(3)
H12_8 H 0.0166 0.8776 0.3708
C24_8 C 0.0411(3) 0.8122(3) 0.4362(2)
C25_8 C 0.0673(3) 0.7636(3) 0.3980(2)
C26_8 C 0.0786(4) 0.7752(3) 0.3303(2)
C27_8 C 0.0889(3) 0.7051(3) 0.4217(2)
C28_8 C 0.1115(3) 0.6552(3) 0.3843(3)
H13_8 H 0.1125 0.6611 0.3424
C29_8 C 0.1320(4) 0.5983(3) 0.4075(3)
H14_8 H 0.1473 0.5661 0.3815
C30_8 C 0.1299(4) 0.5881(3) 0.4713(3)
H15_8 H 0.1431 0.5491 0.4871
C31_8 C 0.1089(4) 0.6349(3) 0.5088(3)
H16_8 H 0.1083 0.6276 0.5506
C32_8 C 0.0874(3) 0.6955(3) 0.4864(2)
O2_8 O 0.2289(2) 0.86503(17) 0.20563(19)
O4_8 O 0.1089(3) 0.89455(19) 0.2010(2)
O7_8 O 0.1434(3) 0.7940(2) 0.31411(18)
O8_8 O 0.0256(2) 0.7649(2) 0.29348(17)
O9_8 O 0.0249(4) 0.7310(3) 0.6286(2)
C21_6 C 0.9884(4) 0.9063(3) 0.5137(3)
H10_6 H 0.9710 0.9380 0.5394
C22_8 C 0.9884(4) 0.9168(3) 0.4503(3)
H11_8 H 0.9705 0.9545 0.4344
C33_8 C 0.8316(6) 0.8052(5) 0.4215(5)
H17_8 H 0.8280 0.8386 0.3943
C34_8 C 0.8060(7) 0.8133(6) 0.4787(6)
H18_8 H 0.7820 0.8505 0.4900
C35_6 C 0.8159(10) 0.7654(7) 0.5204(7)
H19_6 H 0.8020 0.7705 0.5610
C36_8 C 0.8489(8) 0.7066(6) 0.4985(5)
H20_6 H 0.8548 0.6728 0.5250
C37_8 C 0.8713(5) 0.7010(4) 0.4384(3)
C38_8 C 0.9019(4) 0.6446(4) 0.4132(4)
C39_8 C 0.9153(5) 0.5904(4) 0.4510(5)
H21_8 H 0.9058 0.5912 0.4926
C40_8 C 0.9417(6) 0.5396(5) 0.4238(5)
H22_8 H 0.9512 0.5043 0.4474
C41_8 C 0.9562(6) 0.5360(4) 0.3608(6)
H23_4 H 0.9724 0.4988 0.3427
C42_8 C 0.9454(5) 0.5896(3) 0.3272(4)
H24_8 H 0.9573 0.5902 0.2859
N1_8 N 0.8625(4) 0.7506(3) 0.4016(3)
N2_8 N 0.9165(3) 0.6432(3) 0.3556(3)
O1_8 O 0.9171(5) 0.7113(5) 0.2014(3)
H25_8 H 0.9519 0.7334 0.1882
H26_8 H 0.8727 0.7217 0.1883
O3_8 O 0.8752(4) 0.8351(3) 0.2802(4)
H27_8 H 0.8292 0.8424 0.2845
H28_8 H 0.8885(15) 0.8294(8) 0.2434(8)
H23_5 H 0.5276 0.9988 0.3427
H23_6 H 0.9724 0.0012 0.8427
C21_7 C 0.9884(4) 0.5937(3) 0.0137(3)
H10_7 H 0.9710 0.5620 0.0394
C35_7 C 0.8159(10) 0.7346(7) 0.0204(7)
H19_7 H 0.8020 0.7295 0.0610
H20_7 H 0.8548 0.8272 0.0250
H23_7 H 0.4724 0.0012 0.6573
C21_8 C 0.0116(4) 0.4063(3) 0.9863(3)
H10_8 H 0.0290 0.4380 0.9606
C35_8 C 0.1841(10) 0.2654(7) 0.9796(7)
H19_8 H 0.1980 0.2705 0.9390
H20_8 H 0.1452 0.1728 0.9750
H23_8 H 0.0276 0.9988 0.1573
loop_
_geom_bond_atom_site_label_1
_geom_bond_atom_site_label_2
_geom_bond_site_symmetry_1
_geom_bond_site_symmetry_2
Cd1 O2 1_555 1_555
Cd2 N1 1_555 1_555
C1 C2 1_555 1_555
C2 C3 1_555 1_555
C3 C4 1_555 1_555
C4 H1 1_555 1_555
C5 C4 1_555 1_555
H2 C5 1_555 1_555
C6 C5 1_555 1_555
H3 C6 1_555 1_555
C7 C6 1_555 1_555
H4 C7 1_555 1_555
C8 C3 1_555 1_555
C9 C8 1_555 1_555
C10 C9 1_555 1_555
C11 C9 1_555 1_555
C12 C11 1_555 1_555
H5 C12 1_555 1_555
C13 C12 1_555 1_555
H6 C13 1_555 1_555
C14 C13 1_555 1_555
H7 C14 1_555 1_555
C15 C14 1_555 1_555
H8 C15 1_555 1_555
C16 C2 1_555 1_555
C17 C18 1_555 1_555
C18 C19 1_555 1_555
C19 C20 1_555 1_555
C20 H9 1_555 1_555
C21 C20 1_555 1_555
H10 C21 1_555 1_555
C22 C21 1_555 1_555
H11 C22 1_555 1_555
C23 C22 1_555 1_555
H12 C23 1_555 1_555
C24 C19 1_555 1_555
C25 C24 1_555 1_555
C26 C25 1_555 1_555
C27 C25 1_555 1_555
C28 C27 1_555 1_555
H13 C28 1_555 1_555
C29 C28 1_555 1_555
H14 C29 1_555 1_555
C30 C29 1_555 1_555
H15 C30 1_555 1_555
C31 C30 1_555 1_555
H16 C31 1_555 1_555
C32 C18 1_555 1_555
C33 H17 1_555 1_555
C34 C33 1_555 1_555
H18 C34 1_555 1_555
C35 C34 1_555 1_555
H19 C35 1_555 1_555
C36 C35 1_555 1_555
H20 C36 1_555 1_555
C37 C36 1_555 1_555
C38 C37 1_555 1_555
C39 C38 1_555 1_555
H21 C39 1_555 1_555
C40 C39 1_555 1_555
H22 C40 1_555 1_555
C41 C40 1_555 1_555
C42 C41 1_555 1_555
H24 C42 1_555 1_555
N1 C33 1_555 1_555
N2 Cd2 1_555 1_555
O1 Cd2 1_555 1_555
H25 O1 1_555 1_555
H26 O1 1_555 1_555
O2 C10 1_555 1_555
O3 Cd2 1_555 1_555
H27 O3 1_555 1_555
O4 Cd1 1_555 1_555
O5 C1 1_555 1_555
O6 C1 1_555 1_555
O7 Cd1 1_555 1_555
O8 Cd2 1_555 1_555
O9 C17 1_555 1_555
O10 C17 1_555 1_555
H28 O3 1_555 1_555
Cd3 O5 1_555 1_555
Cd4 O10 1_555 1_555
Cd5 O6 1_555 1_555
O11 Cd1 1_555 1_555
O12 Cd2 1_555 1_555
O13 Cd1 1_555 1_555
C7 C8 1_555 1_555
C10 O4 1_555 1_555
C11 C16 1_555 1_555
C15 C16 1_555 1_555
C23 C24 1_555 1_555
C26 O7 1_555 1_555
C26 O8 1_555 1_555
C27 C32 1_555 1_555
C31 C32 1_555 1_555
C37 N1 1_555 1_555
C38 N2 1_555 1_555
C42 N2 1_555 1_555
C17_2 C18_2 1_555 1_555
C18_2 C19_2 1_555 1_555
C19_2 C20_2 1_555 1_555
C20_2 H9_2 1_555 1_555
H16_2 C31_2 1_555 1_555
O9_2 C17_2 1_555 1_555
O10_2 C17_2 1_555 1_555
Cd3 O10_2 1_555 1_555
Cd1_2 O2_2 1_555 1_555
C1_2 C2_2 1_555 1_555
C2_2 C3_2 1_555 1_555
C3_2 C4_2 1_555 1_555
C4_2 H1_2 1_555 1_555
C5_2 C4_2 1_555 1_555
H2_2 C5_2 1_555 1_555
C6_2 C5_2 1_555 1_555
H3_2 C6_2 1_555 1_555
C7_2 C6_2 1_555 1_555
H4_2 C7_2 1_555 1_555
C8_2 C3_2 1_555 1_555
C9_2 C8_2 1_555 1_555
C10_2 C9_2 1_555 1_555
C11_2 C9_2 1_555 1_555
C12_2 C11_2 1_555 1_555
H5_2 C12_2 1_555 1_555
C13_2 C12_2 1_555 1_555
H6_2 C13_2 1_555 1_555
C14_2 C13_2 1_555 1_555
H7_2 C14_2 1_555 1_555
C15_2 C14_2 1_555 1_555
H8_2 C15_2 1_555 1_555
C16_2 C2_2 1_555 1_555
H12_2 C23_2 1_555 1_555
C25_2 C24_2 1_555 1_555
C26_2 C25_2 1_555 1_555
C27_2 C25_2 1_555 1_555
C28_2 C27_2 1_555 1_555
H13_2 C28_2 1_555 1_555
C29_2 C28_2 1_555 1_555
H14_2 C29_2 1_555 1_555
C30_2 C29_2 1_555 1_555
H15_2 C30_2 1_555 1_555
O2_2 C10_2 1_555 1_555
O4_2 Cd1_2 1_555 1_555
O5_2 C1_2 1_555 1_555
O6_2 C1_2 1_555 1_555
O7_2 Cd1_2 1_555 1_555
Cd4 O5_2 1_555 1_555
Cd5_2 O6_2 1_555 1_555
O11_2 Cd1_2 1_555 1_555
O13_2 Cd1_2 1_555 1_555
C7_2 C8_2 1_555 1_555
C10_2 O4_2 1_555 1_555
C11_2 C16_2 1_555 1_555
C15_2 C16_2 1_555 1_555
C23_2 C24_2 1_555 1_555
C26_2 O7_2 1_555 1_555
C26_2 O8_2 1_555 1_555
C27_2 C32_2 1_555 1_555
Cd2_2 N1_2 1_555 1_555
H11_2 C22_2 1_555 1_555
C33_2 H17_2 1_555 1_555
C34_2 C33_2 1_555 1_555
H18_2 C34_2 1_555 1_555
C37_2 C36_2 1_555 1_555
C38_2 C37_2 1_555 1_555
C39_2 C38_2 1_555 1_555
H21_2 C39_2 1_555 1_555
C40_2 C39_2 1_555 1_555
H22_2 C40_2 1_555 1_555
C41_2 C40_2 1_555 1_555
C42_2 C41_2 1_555 1_555
H24_2 C42_2 1_555 1_555
N1_2 C33_2 1_555 1_555
N2_2 Cd2_2 1_555 1_555
O1_2 Cd2_2 1_555 1_555
H25_2 O1_2 1_555 1_555
H26_2 O1_2 1_555 1_555
O3_2 Cd2_2 1_555 1_555
H27_2 O3_2 1_555 1_555
H28_2 O3_2 1_555 1_555
O12_2 Cd2_2 1_555 1_555
C37_2 N1_2 1_555 1_555
C38_2 N2_2 1_555 1_555
C42_2 N2_2 1_555 1_555
C1_3 C2_3 1_555 1_555
C2_3 C3_3 1_555 1_555
C3_3 C4_3 1_555 1_555
C4_3 H1_3 1_555 1_555
C5_3 C4_3 1_555 1_555
H2_3 C5_3 1_555 1_555
C6_3 C5_3 1_555 1_555
C8_3 C3_3 1_555 1_555
C14_3 C13_3 1_555 1_555
H7_3 C14_3 1_555 1_555
C15_3 C14_3 1_555 1_555
H8_3 C15_3 1_555 1_555
C16_3 C2_3 1_555 1_555
O5_3 C1_3 1_555 1_555
O12 C1_3 1_555 1_555
Cd3_2 O5_3 1_555 1_555
C11_3 C16_3 1_555 1_555
C15_3 C16_3 1_555 1_555
Cd1_3 O2_3 1_555 1_555
Cd5 N1_3 1_555 1_555
H4_3 C7_3 1_555 1_555
C10_3 C9_3 1_555 1_555
H5_3 C12_3 1_555 1_555
H11_3 C22_3 1_555 1_555
C23_3 C22_3 1_555 1_555
H12_3 C23_3 1_555 1_555
C25_3 C24_3 1_555 1_555
C26_3 C25_3 1_555 1_555
C27_3 C25_3 1_555 1_555
C28_3 C27_3 1_555 1_555
H13_3 C28_3 1_555 1_555
C29_3 C28_3 1_555 1_555
H14_3 C29_3 1_555 1_555
C30_3 C29_3 1_555 1_555
H15_3 C30_3 1_555 1_555
C33_3 H17_3 1_555 1_555
C34_3 C33_3 1_555 1_555
H18_3 C34_3 1_555 1_555
C37_3 C36_3 1_555 1_555
C38_3 C37_3 1_555 1_555
C39_3 C38_3 1_555 1_555
H21_3 C39_3 1_555 1_555
C40_3 C39_3 1_555 1_555
H22_3 C40_3 1_555 1_555
C41_3 C40_3 1_555 1_555
H23 C41_3 1_555 1_555
C42_3 C41_3 1_555 1_555
H24_3 C42_3 1_555 1_555
N1_3 C33_3 1_555 1_555
N2_3 Cd5 1_555 1_555
O1_3 Cd5 1_555 1_555
H25_3 O1_3 1_555 1_555
H26_3 O1_3 1_555 1_555
O2_3 C10_3 1_555 1_555
O3_3 Cd5 1_555 1_555
H27_3 O3_3 1_555 1_555
O4_3 Cd1_3 1_555 1_555
O7_3 Cd1_3 1_555 1_555
O8_3 Cd5 1_555 1_555
H28_3 O3_3 1_555 1_555
O11_3 Cd1_3 1_555 1_555
O13_3 Cd1_3 1_555 1_555
C10_3 O4_3 1_555 1_555
C23_3 C24_3 1_555 1_555
C26_3 O7_3 1_555 1_555
C26_3 O8_3 1_555 1_555
C27_3 C32_3 1_555 1_555
C37_3 N1_3 1_555 1_555
C38_3 N2_3 1_555 1_555
C42_3 N2_3 1_555 1_555
C17_3 C18_3 1_555 1_555
C18_3 C19_3 1_555 1_555
C19_3 C20_3 1_555 1_555
C20_3 H9_3 1_555 1_555
C21_2 C20_3 1_555 1_555
H10_2 C21_2 1_555 1_555
H16_3 C31_3 1_555 1_555
H19_2 C35_2 1_555 1_555
O9_3 C17_3 1_555 1_555
O10_3 C17_3 1_555 1_555
Cd4_2 O10_3 1_555 1_555
Cd5_2 N1_4 1_555 1_555
H10_3 C21_3 1_555 1_555
C22_4 C21_3 1_555 1_555
H11_4 C22_4 1_555 1_555
C33_4 H17_4 1_555 1_555
C34_4 C33_4 1_555 1_555
H18_4 C34_4 1_555 1_555
C35_3 C34_4 1_555 1_555
H19_3 C35_3 1_555 1_555
C36_4 C35_3 1_555 1_555
H20_3 C36_4 1_555 1_555
C37_4 C36_4 1_555 1_555
C38_4 C37_4 1_555 1_555
C39_4 C38_4 1_555 1_555
H21_4 C39_4 1_555 1_555
C40_4 C39_4 1_555 1_555
H22_4 C40_4 1_555 1_555
C41_4 C40_4 1_555 1_555
H23_2 C41_4 1_555 1_555
C42_4 C41_4 1_555 1_555
H24_4 C42_4 1_555 1_555
N1_4 C33_4 1_555 1_555
N2_4 Cd5_2 1_555 1_555
O1_4 Cd5_2 1_555 1_555
H25_4 O1_4 1_555 1_555
H26_4 O1_4 1_555 1_555
O3_4 Cd5_2 1_555 1_555
H27_4 O3_4 1_555 1_555
H28_4 O3_4 1_555 1_555
C37_4 N1_4 1_555 1_555
C38_4 N2_4 1_555 1_555
C42_4 N2_4 1_555 1_555
Cd1_4 O2_4 1_555 1_555
H4_4 C7_4 1_555 1_555
C10_4 C9_4 1_555 1_555
H5_4 C12_4 1_555 1_555
C17_4 C18_4 1_555 1_555
C18_4 C19_4 1_555 1_555
C19_4 C20_4 1_555 1_555
C20_4 H9_4 1_555 1_555
H12_4 C23_4 1_555 1_555
C24_4 C19_4 1_555 1_555
C25_4 C24_4 1_555 1_555
C26_4 C25_4 1_555 1_555
C27_4 C25_4 1_555 1_555
C28_4 C27_4 1_555 1_555
H13_4 C28_4 1_555 1_555
C29_4 C28_4 1_555 1_555
H14_4 C29_4 1_555 1_555
C30_4 C29_4 1_555 1_555
H15_4 C30_4 1_555 1_555
C31_4 C30_4 1_555 1_555
H16_4 C31_4 1_555 1_555
C32_4 C18_4 1_555 1_555
O2_4 C10_4 1_555 1_555
O4_4 Cd1_4 1_555 1_555
O7_4 Cd1_4 1_555 1_555
O9_4 C17_4 1_555 1_555
O10_4 C17_4 1_555 1_555
Cd3_2 O10_4 1_555 1_555
O11_4 Cd1_4 1_555 1_555
O13_4 Cd1_4 1_555 1_555
C10_4 O4_4 1_555 1_555
C23_4 C24_4 1_555 1_555
C26_4 O7_4 1_555 1_555
C26_4 O8_4 1_555 1_555
C27_4 C32_4 1_555 1_555
C31_4 C32_4 1_555 1_555
C1_4 C2_4 1_555 1_555
C2_4 C3_4 1_555 1_555
C3_4 C4_4 1_555 1_555
C4_4 H1_4 1_555 1_555
C5_4 C4_4 1_555 1_555
H2_4 C5_4 1_555 1_555
C6_4 C5_4 1_555 1_555
C8_4 C3_4 1_555 1_555
C14_4 C13_4 1_555 1_555
H7_4 C14_4 1_555 1_555
C15_4 C14_4 1_555 1_555
H8_4 C15_4 1_555 1_555
C16_4 C2_4 1_555 1_555
O5_4 C1_4 1_555 1_555
O12_2 C1_4 1_555 1_555
Cd4_2 O5_4 1_555 1_555
C11_4 C16_4 1_555 1_555
C15_4 C16_4 1_555 1_555
Cd4_2 O2_5 1_555 1_555
Cd2_3 N1_5 1_555 1_555
C1_5 C2_5 1_555 1_555
C2_5 C3_5 1_555 1_555
C3_5 C4_5 1_555 1_555
C4_5 H1_5 1_555 1_555
C5_5 C4_5 1_555 1_555
H2_5 C5_5 1_555 1_555
C6_5 C5_5 1_555 1_555
H3_5 C6_5 1_555 1_555
C7_5 C6_5 1_555 1_555
H4_5 C7_5 1_555 1_555
C8_5 C3_5 1_555 1_555
C9_5 C8_5 1_555 1_555
C10_5 C9_5 1_555 1_555
C11_5 C9_5 1_555 1_555
C12_5 C11_5 1_555 1_555
H5_5 C12_5 1_555 1_555
C13_5 C12_5 1_555 1_555
H6_5 C13_5 1_555 1_555
C14_5 C13_5 1_555 1_555
H7_5 C14_5 1_555 1_555
C15_5 C14_5 1_555 1_555
H8_5 C15_5 1_555 1_555
C16_5 C2_5 1_555 1_555
C17_5 C18_5 1_555 1_555
C18_5 C19_5 1_555 1_555
C19_5 C20_5 1_555 1_555
C20_5 H9_5 1_555 1_555
C21_4 C20_5 1_555 1_555
H10_4 C21_4 1_555 1_555
C22_5 C21_4 1_555 1_555
H11_5 C22_5 1_555 1_555
C23_5 C22_5 1_555 1_555
H12_5 C23_5 1_555 1_555
C24_5 C19_5 1_555 1_555
C25_5 C24_5 1_555 1_555
C26_5 C25_5 1_555 1_555
C27_5 C25_5 1_555 1_555
C28_5 C27_5 1_555 1_555
H13_5 C28_5 1_555 1_555
C29_5 C28_5 1_555 1_555
H14_5 C29_5 1_555 1_555
C30_5 C29_5 1_555 1_555
H15_5 C30_5 1_555 1_555
C31_5 C30_5 1_555 1_555
H16_5 C31_5 1_555 1_555
C32_5 C18_5 1_555 1_555
C33_5 H17_5 1_555 1_555
C34_5 C33_5 1_555 1_555
H18_5 C34_5 1_555 1_555
C35_4 C34_5 1_555 1_555
H19_4 C35_4 1_555 1_555
C36_5 C35_4 1_555 1_555
H20_4 C36_5 1_555 1_555
C37_5 C36_5 1_555 1_555
C38_5 C37_5 1_555 1_555
C39_5 C38_5 1_555 1_555
H21_5 C39_5 1_555 1_555
C40_5 C39_5 1_555 1_555
H22_5 C40_5 1_555 1_555
C41_5 C40_5 1_555 1_555
C42_5 C41_5 1_555 1_555
H24_5 C42_5 1_555 1_555
N1_5 C33_5 1_555 1_555
N2_5 Cd2_3 1_555 1_555
O1_5 Cd2_3 1_555 1_555
H25_5 O1_5 1_555 1_555
H26_5 O1_5 1_555 1_555
O2_5 C10_5 1_555 1_555
O3_5 Cd2_3 1_555 1_555
H27_5 O3_5 1_555 1_555
O4_5 Cd4_2 1_555 1_555
O11_4 C1_5 1_555 1_555
O6_3 C1_5 1_555 1_555
O7_5 Cd4_2 1_555 1_555
O8_5 Cd2_3 1_555 1_555
O9_5 C17_5 1_555 1_555
O13_3 C17_5 1_555 1_555
H28_5 O3_5 1_555 1_555
Cd5_3 O6_3 1_555 1_555
O12_3 Cd2_3 1_555 1_555
C7_5 C8_5 1_555 1_555
C10_5 O4_5 1_555 1_555
C11_5 C16_5 1_555 1_555
C15_5 C16_5 1_555 1_555
C23_5 C24_5 1_555 1_555
C26_5 O7_5 1_555 1_555
C26_5 O8_5 1_555 1_555
C27_5 C32_5 1_555 1_555
C31_5 C32_5 1_555 1_555
C37_5 N1_5 1_555 1_555
C38_5 N2_5 1_555 1_555
C42_5 N2_5 1_555 1_555
Cd2_4 N1_6 1_555 1_555
H11_6 C22_6 1_555 1_555
C33_6 H17_6 1_555 1_555
C34_6 C33_6 1_555 1_555
H18_6 C34_6 1_555 1_555
C37_6 C36_6 1_555 1_555
C38_6 C37_6 1_555 1_555
C39_6 C38_6 1_555 1_555
H21_6 C39_6 1_555 1_555
C40_6 C39_6 1_555 1_555
H22_6 C40_6 1_555 1_555
C41_6 C40_6 1_555 1_555
C42_6 C41_6 1_555 1_555
H24_6 C42_6 1_555 1_555
N1_6 C33_6 1_555 1_555
N2_6 Cd2_4 1_555 1_555
O1_6 Cd2_4 1_555 1_555
H25_6 O1_6 1_555 1_555
H26_6 O1_6 1_555 1_555
O3_6 Cd2_4 1_555 1_555
H27_6 O3_6 1_555 1_555
H28_6 O3_6 1_555 1_555
O12_4 Cd2_4 1_555 1_555
C37_6 N1_6 1_555 1_555
C38_6 N2_6 1_555 1_555
C42_6 N2_6 1_555 1_555
Cd3_2 O2_6 1_555 1_555
C1_6 C2_6 1_555 1_555
C2_6 C3_6 1_555 1_555
C3_6 C4_6 1_555 1_555
C4_6 H1_6 1_555 1_555
C5_6 C4_6 1_555 1_555
H2_6 C5_6 1_555 1_555
C6_6 C5_6 1_555 1_555
H3_6 C6_6 1_555 1_555
C7_6 C6_6 1_555 1_555
H4_6 C7_6 1_555 1_555
C8_6 C3_6 1_555 1_555
C9_6 C8_6 1_555 1_555
C10_6 C9_6 1_555 1_555
C11_6 C9_6 1_555 1_555
C12_6 C11_6 1_555 1_555
H5_6 C12_6 1_555 1_555
C13_6 C12_6 1_555 1_555
H6_6 C13_6 1_555 1_555
C14_6 C13_6 1_555 1_555
H7_6 C14_6 1_555 1_555
C15_6 C14_6 1_555 1_555
H8_6 C15_6 1_555 1_555
C16_6 C2_6 1_555 1_555
H12_6 C23_6 1_555 1_555
C25_6 C24_6 1_555 1_555
C26_6 C25_6 1_555 1_555
C27_6 C25_6 1_555 1_555
C28_6 C27_6 1_555 1_555
H13_6 C28_6 1_555 1_555
C29_6 C28_6 1_555 1_555
H14_6 C29_6 1_555 1_555
C30_6 C29_6 1_555 1_555
H15_6 C30_6 1_555 1_555
O2_6 C10_6 1_555 1_555
O4_6 Cd3_2 1_555 1_555
O11_3 C1_6 1_555 1_555
O6_4 C1_6 1_555 1_555
O7_6 Cd3_2 1_555 1_555
Cd5_4 O6_4 1_555 1_555
C7_6 C8_6 1_555 1_555
C10_6 O4_6 1_555 1_555
C11_6 C16_6 1_555 1_555
C15_6 C16_6 1_555 1_555
C23_6 C24_6 1_555 1_555
C26_6 O7_6 1_555 1_555
C26_6 O8_6 1_555 1_555
C27_6 C32_6 1_555 1_555
C17_6 C18_6 1_555 1_555
C18_6 C19_6 1_555 1_555
C19_6 C20_6 1_555 1_555
C20_6 H9_6 1_555 1_555
H16_6 C31_6 1_555 1_555
O9_6 C17_6 1_555 1_555
O13_4 C17_6 1_555 1_555
C17_7 C18_7 1_555 1_555
C18_7 C19_7 1_555 1_555
C19_7 C20_7 1_555 1_555
C20_7 H9_7 1_555 1_555
C21_5 C20_7 1_555 1_555
H10_5 C21_5 1_555 1_555
H16_7 C31_7 1_555 1_555
H19_5 C35_5 1_555 1_555
O9_7 C17_7 1_555 1_555
O13 C17_7 1_555 1_555
Cd4 O2_7 1_555 1_555
Cd5_3 N1_7 1_555 1_555
H4_7 C7_7 1_555 1_555
C10_7 C9_7 1_555 1_555
H5_7 C12_7 1_555 1_555
H11_7 C22_7 1_555 1_555
C23_7 C22_7 1_555 1_555
H12_7 C23_7 1_555 1_555
C25_7 C24_7 1_555 1_555
C26_7 C25_7 1_555 1_555
C27_7 C25_7 1_555 1_555
C28_7 C27_7 1_555 1_555
H13_7 C28_7 1_555 1_555
C29_7 C28_7 1_555 1_555
H14_7 C29_7 1_555 1_555
C30_7 C29_7 1_555 1_555
H15_7 C30_7 1_555 1_555
C33_7 H17_7 1_555 1_555
C34_7 C33_7 1_555 1_555
H18_7 C34_7 1_555 1_555
C37_7 C36_7 1_555 1_555
C38_7 C37_7 1_555 1_555
C39_7 C38_7 1_555 1_555
H21_7 C39_7 1_555 1_555
C40_7 C39_7 1_555 1_555
H22_7 C40_7 1_555 1_555
C41_7 C40_7 1_555 1_555
H23_3 C41_7 1_555 1_555
C42_7 C41_7 1_555 1_555
H24_7 C42_7 1_555 1_555
N1_7 C33_7 1_555 1_555
N2_7 Cd5_3 1_555 1_555
O1_7 Cd5_3 1_555 1_555
H25_7 O1_7 1_555 1_555
H26_7 O1_7 1_555 1_555
O2_7 C10_7 1_555 1_555
O3_7 Cd5_3 1_555 1_555
H27_7 O3_7 1_555 1_555
O4_7 Cd4 1_555 1_555
O7_7 Cd4 1_555 1_555
O8_7 Cd5_3 1_555 1_555
H28_7 O3_7 1_555 1_555
C10_7 O4_7 1_555 1_555
C23_7 C24_7 1_555 1_555
C26_7 O7_7 1_555 1_555
C26_7 O8_7 1_555 1_555
C27_7 C32_7 1_555 1_555
C37_7 N1_7 1_555 1_555
C38_7 N2_7 1_555 1_555
C42_7 N2_7 1_555 1_555
C1_7 C2_7 1_555 1_555
C2_7 C3_7 1_555 1_555
C3_7 C4_7 1_555 1_555
C4_7 H1_7 1_555 1_555
C5_7 C4_7 1_555 1_555
H2_7 C5_7 1_555 1_555
C6_7 C5_7 1_555 1_555
C8_7 C3_7 1_555 1_555
C14_7 C13_7 1_555 1_555
H7_7 C14_7 1_555 1_555
C15_7 C14_7 1_555 1_555
H8_7 C15_7 1_555 1_555
C16_7 C2_7 1_555 1_555
O11_2 C1_7 1_555 1_555
O12_3 C1_7 1_555 1_555
C11_7 C16_7 1_555 1_555
C15_7 C16_7 1_555 1_555
C1_8 C2_8 1_555 1_555
C2_8 C3_8 1_555 1_555
C3_8 C4_8 1_555 1_555
C4_8 H1_8 1_555 1_555
C5_8 C4_8 1_555 1_555
H2_8 C5_8 1_555 1_555
C6_8 C5_8 1_555 1_555
C8_8 C3_8 1_555 1_555
C14_8 C13_8 1_555 1_555
H7_8 C14_8 1_555 1_555
C15_8 C14_8 1_555 1_555
H8_8 C15_8 1_555 1_555
C16_8 C2_8 1_555 1_555
O11 C1_8 1_555 1_555
O12_4 C1_8 1_555 1_555
C11_8 C16_8 1_555 1_555
C15_8 C16_8 1_555 1_555
Cd3 O2_8 1_555 1_555
H4_8 C7_8 1_555 1_555
C10_8 C9_8 1_555 1_555
H5_8 C12_8 1_555 1_555
C17_8 C18_8 1_555 1_555
C18_8 C19_8 1_555 1_555
C19_8 C20_8 1_555 1_555
C20_8 H9_8 1_555 1_555
H12_8 C23_8 1_555 1_555
C24_8 C19_8 1_555 1_555
C25_8 C24_8 1_555 1_555
C26_8 C25_8 1_555 1_555
C27_8 C25_8 1_555 1_555
C28_8 C27_8 1_555 1_555
H13_8 C28_8 1_555 1_555
C29_8 C28_8 1_555 1_555
H14_8 C29_8 1_555 1_555
C30_8 C29_8 1_555 1_555
H15_8 C30_8 1_555 1_555
C31_8 C30_8 1_555 1_555
H16_8 C31_8 1_555 1_555
C32_8 C18_8 1_555 1_555
O2_8 C10_8 1_555 1_555
O4_8 Cd3 1_555 1_555
O7_8 Cd3 1_555 1_555
O9_8 C17_8 1_555 1_555
O13_2 C17_8 1_555 1_555
C10_8 O4_8 1_555 1_555
C23_8 C24_8 1_555 1_555
C26_8 O7_8 1_555 1_555
C26_8 O8_8 1_555 1_555
C27_8 C32_8 1_555 1_555
C31_8 C32_8 1_555 1_555
Cd5_4 N1_8 1_555 1_555
H10_6 C21_6 1_555 1_555
C22_8 C21_6 1_555 1_555
H11_8 C22_8 1_555 1_555
C33_8 H17_8 1_555 1_555
C34_8 C33_8 1_555 1_555
H18_8 C34_8 1_555 1_555
C35_6 C34_8 1_555 1_555
H19_6 C35_6 1_555 1_555
C36_8 C35_6 1_555 1_555
H20_6 C36_8 1_555 1_555
C37_8 C36_8 1_555 1_555
C38_8 C37_8 1_555 1_555
C39_8 C38_8 1_555 1_555
H21_8 C39_8 1_555 1_555
C40_8 C39_8 1_555 1_555
H22_8 C40_8 1_555 1_555
C41_8 C40_8 1_555 1_555
H23_4 C41_8 1_555 1_555
C42_8 C41_8 1_555 1_555
H24_8 C42_8 1_555 1_555
N1_8 C33_8 1_555 1_555
N2_8 Cd5_4 1_555 1_555
O1_8 Cd5_4 1_555 1_555
H25_8 O1_8 1_555 1_555
H26_8 O1_8 1_555 1_555
O3_8 Cd5_4 1_555 1_555
H27_8 O3_8 1_555 1_555
H28_8 O3_8 1_555 1_555
C37_8 N1_8 1_555 1_555
C38_8 N2_8 1_555 1_555
C42_8 N2_8 1_555 1_555
H10_7 C21_7 1_555 1_555
H19_7 C35_7 1_555 1_555
H10_8 C21_8 1_555 1_555
H19_8 C35_8 1_555 1_555

#END
