
###############################################################################
#
# This file contains modified crystal structure data generated from the
# MOF subset of the Cambridge Structural Database (CSD) v543 
# hosted by the Cambridge Crystallographic Data Centre (CCDC).
#
# This work is licensed under the Creative Commons
# Attribution-NonCommercial-ShareAlike 4.0 International License.
# To view a copy of this license, visit
# http://creativecommons.org/licenses/by-nc-sa/4.0/
# or send a letter to
# Creative Commons, PO Box 1866, Mountain View, CA 94042, USA.
#
# CIF created using the CSD Python API on 29 September 2022
# The structure has been converted into the P1 space group
# The structure has a 3D framework
# The original CSD entry DUQSAK is in the orthorhombic crystal system
# The framework has been calculated to contain at least 10.0% void space
# The void calculation uses a probe of radius 1.32A, grid spacing 0.4
# The framework is charged, counterions have been retained in the structure
#
###############################################################################

data_DUQSAK
_chemical_formula_moiety         '(C304 H256 Cd8 N16 O64 4-)n'
_symmetry_cell_setting           triclinic
_symmetry_space_group_name_H-M   'P 1'
_symmetry_Int_Tables_number      1
_space_group_name_Hall           'P 1'
loop_
_symmetry_equiv_pos_site_id
_symmetry_equiv_pos_as_xyz
1 x,y,z
_cell_length_a                   18.560(2)
_cell_length_b                   20.499(2)
_cell_length_c                   20.761(3)
_cell_angle_alpha                90
_cell_angle_beta                 90
_cell_angle_gamma                90
_cell_volume                     7898.76
loop_
_atom_site_label
_atom_site_type_symbol
_atom_site_fract_x
_atom_site_fract_y
_atom_site_fract_z
C51 C 0.4989(3) 0.0534(3) 0.0438(2)
C52 C 0.4989(3) 0.1088(3) 0.0854(3)
H25 H 0.4821 0.1041 0.1273
C53 C 0.5224(3) 0.1676(3) 0.0661(3)
H26 H 0.5233 0.2024 0.0948
C54 C 0.5458(3) 0.1764(3) 0.0016(3)
Cd1 Cd 0.619518(18) 0.029885(17) 0.750063(16)
O1 O 0.72243(19) 0.09773(16) 0.75424(17)
O2 O 0.61723(18) 0.1471(2) 0.74819(18)
O3 O 0.8976(2) 0.40035(19) 0.7374(2)
O4 O 0.7962(2) 0.44921(18) 0.76030(19)
O5 O 0.6239(2) 0.0309(2) 0.86632(19)
O6 O 0.5207(2) 0.0086(2) 0.82206(17)
O7 O 0.53356(19) 0.02455(17) 0.67139(16)
O8 O 0.6402(2) 0.0268(2) 0.62649(19)
C1 C 0.6853(3) 0.1481(2) 0.7518(2)
C2 C 0.7222(3) 0.2135(2) 0.7509(2)
C3 C 0.7239(3) 0.2505(2) 0.6940(2)
C4 C 0.6938(3) 0.2263(3) 0.6349(3)
H1 H 0.6742 0.1846 0.6333
C5 C 0.6939(3) 0.2645(3) 0.5812(3)
H2 H 0.6748 0.2482 0.5430
C6 C 0.7229(3) 0.3288(3) 0.5826(3)
H3 H 0.7199 0.3551 0.5463
C7 C 0.7545(3) 0.3515(3) 0.6367(2)
H4 H 0.7740 0.3933 0.6368
C8 C 0.7586(3) 0.3126(2) 0.6938(2)
C9 C 0.7935(3) 0.3347(2) 0.7500(2)
C10 C 0.7906(3) 0.2980(2) 0.8071(2)
C11 C 0.8227(3) 0.3215(3) 0.8657(2)
H5 H 0.8469 0.3613 0.8659
C12 C 0.8180(3) 0.2861(3) 0.9205(3)
H6 H 0.8379 0.3020 0.9585
C13 C 0.7826(3) 0.2247(3) 0.9202(3)
H7 H 0.7809 0.2002 0.9578
C14 C 0.7516(3) 0.2012(3) 0.8665(2)
H8 H 0.7280 0.1611 0.8678
C15 C 0.7542(3) 0.2366(2) 0.8081(2)
C16 C 0.8326(3) 0.3993(3) 0.7489(2)
C17 C 0.5588(3) 0.0168(3) 0.8701(2)
C18 C 0.5266(3) 0.0080(3) 0.9369(2)
C24 C 0.5254(3) 0.0621(3) 0.9791(2)
C25 C 0.5739(3) 0.0220(2) 0.6232(2)
C26 C 0.5368(3) 0.0111(3) 0.5588(2)
C32 C 0.4965(3) 0.0617(2) 0.5311(2)
Cd3 Cd 0.880482(18) 0.529885(17) 0.750063(16)
H27 H 0.5600 0.2176 0.9878
C55 C 0.5479(3) 0.1254(3) 0.9595(3)
H28 H 0.5641 0.1320 0.9176
C59 C 0.4591(3) 0.0506(2) 0.4711(2)
C60 C 0.4199(3) 0.1033(3) 0.4431(2)
H29 H 0.3959 0.0970 0.4042
C61 C 0.4172(3) 0.1624(3) 0.4725(3)
H30 H 0.3920 0.1964 0.4532
C62 C 0.4524(3) 0.1730(3) 0.5322(3)
H31 H 0.4486 0.2134 0.5523
C63 C 0.4913(3) 0.1250(3) 0.5601(2)
H32 H 0.5152 0.1331 0.5987
H11 H 0.4400 0.7824 0.0122
C23 C 0.4521(3) 0.8746(3) 0.0405(3)
H12 H 0.4359 0.8680 0.0824
Cd4 Cd 0.380482(18) 0.970115(17) 0.249937(16)
O14 O 0.3761(2) 0.9691(2) 0.13368(19)
O16 O 0.4793(2) 0.9914(2) 0.17794(17)
C49 C 0.4412(3) 0.9832(3) 0.1299(2)
C50 C 0.4734(3) 0.9920(3) 0.0631(2)
C56 C 0.4746(3) 0.9379(3) 0.0209(2)
C19 C 0.5011(3) 0.9466(3) 0.9562(2)
C20 C 0.5011(3) 0.8912(3) 0.9146(3)
H9 H 0.5179 0.8959 0.8727
C21 C 0.4776(3) 0.8324(3) 0.9339(3)
H10 H 0.4767 0.7976 0.9052
C22 C 0.4542(3) 0.8236(3) 0.9984(3)
C27 C 0.5409(3) 0.9494(2) 0.5289(2)
C28 C 0.5801(3) 0.8967(3) 0.5569(2)
H13 H 0.6041 0.9030 0.5958
C29 C 0.5828(3) 0.8376(3) 0.5275(3)
H14 H 0.6080 0.8036 0.5468
C30 C 0.5476(3) 0.8270(3) 0.4678(3)
H15 H 0.5514 0.7866 0.4477
C31 C 0.5087(3) 0.8750(3) 0.4399(2)
H16 H 0.4848 0.8669 0.4013
O9 O 0.77757(19) 0.59773(16) 0.75424(17)
O10 O 0.88277(18) 0.6471(2) 0.74819(18)
O11 O 0.6024(2) 0.90035(19) 0.7374(2)
O12 O 0.7038(2) 0.94921(18) 0.76030(19)
O15 O 0.8761(2) 0.5309(2) 0.86632(19)
O17 O 0.9793(2) 0.5086(2) 0.82206(17)
O18 O 0.46644(19) 0.97545(17) 0.32861(16)
O19 O 0.96644(19) 0.52455(17) 0.67139(16)
O20 O 0.3598(2) 0.9732(2) 0.37351(19)
C33 C 0.8147(3) 0.6481(2) 0.7518(2)
C34 C 0.7778(3) 0.7135(2) 0.7509(2)
C35 C 0.7761(3) 0.7505(2) 0.6940(2)
C36 C 0.8062(3) 0.7263(3) 0.6349(3)
H17 H 0.8258 0.6846 0.6333
C37 C 0.8061(3) 0.7645(3) 0.5812(3)
H18 H 0.8252 0.7482 0.5430
C38 C 0.7771(3) 0.8288(3) 0.5826(3)
H19 H 0.7801 0.8551 0.5463
C39 C 0.7455(3) 0.8515(3) 0.6367(2)
H20 H 0.7260 0.8933 0.6368
C40 C 0.7414(3) 0.8126(2) 0.6938(2)
C41 C 0.7065(3) 0.8347(2) 0.7500(2)
C42 C 0.7094(3) 0.7980(2) 0.8071(2)
C43 C 0.6773(3) 0.8215(3) 0.8657(2)
H21 H 0.6531 0.8613 0.8659
C44 C 0.6820(3) 0.7861(3) 0.9205(3)
H22 H 0.6621 0.8020 0.9585
C45 C 0.7174(3) 0.7247(3) 0.9202(3)
H23 H 0.7191 0.7002 0.9578
C46 C 0.7484(3) 0.7012(3) 0.8665(2)
H24 H 0.7720 0.6611 0.8678
C47 C 0.7458(3) 0.7366(2) 0.8081(2)
C48 C 0.6674(3) 0.8993(3) 0.7489(2)
C57 C 0.4261(3) 0.9780(2) 0.3768(2)
C58 C 0.4632(3) 0.9889(3) 0.4412(2)
C64 C 0.5035(3) 0.9383(2) 0.4689(2)
O13 O 0.2962(2) 0.05079(18) 0.23970(19)
Cd1_2 Cd 0.119518(18) 0.470115(17) 0.249937(16)
O1_2 O 0.22243(19) 0.40227(16) 0.24576(17)
O2_2 O 0.11723(18) 0.3529(2) 0.25181(18)
O3_2 O 0.3976(2) 0.09965(19) 0.2626(2)
O5_2 O 0.1239(2) 0.4691(2) 0.13368(19)
O6_2 O 0.0207(2) 0.4914(2) 0.17794(17)
O7_2 O 0.03356(19) 0.47545(17) 0.32861(16)
O8_2 O 0.1402(2) 0.4732(2) 0.37351(19)
C1_2 C 0.1853(3) 0.3519(2) 0.2482(2)
C2_2 C 0.2222(3) 0.2865(2) 0.2491(2)
C3_2 C 0.2239(3) 0.2495(2) 0.3060(2)
C4_2 C 0.1938(3) 0.2737(3) 0.3651(3)
H1_2 H 0.1742 0.3154 0.3667
C5_2 C 0.1939(3) 0.2355(3) 0.4188(3)
H2_2 H 0.1748 0.2518 0.4570
C6_2 C 0.2229(3) 0.1712(3) 0.4174(3)
H3_2 H 0.2199 0.1449 0.4537
C7_2 C 0.2545(3) 0.1485(3) 0.3633(2)
H4_2 H 0.2740 0.1067 0.3632
C8_2 C 0.2586(3) 0.1874(2) 0.3062(2)
C9_2 C 0.2935(3) 0.1653(2) 0.2500(2)
C10_2 C 0.2906(3) 0.2020(2) 0.1929(2)
C11_2 C 0.3227(3) 0.1785(3) 0.1343(2)
H5_2 H 0.3469 0.1387 0.1341
C12_2 C 0.3180(3) 0.2139(3) 0.0795(3)
H6_2 H 0.3379 0.1980 0.0415
C13_2 C 0.2826(3) 0.2753(3) 0.0798(3)
H7_2 H 0.2809 0.2998 0.0422
C14_2 C 0.2516(3) 0.2988(3) 0.1335(2)
H8_2 H 0.2280 0.3389 0.1322
C15_2 C 0.2542(3) 0.2634(2) 0.1919(2)
C16_2 C 0.3326(3) 0.1007(3) 0.2511(2)
C17_2 C 0.0588(3) 0.4832(3) 0.1299(2)
C18_2 C 0.0266(3) 0.4920(3) 0.0631(2)
C19_2 C 0.0011(3) 0.5534(3) 0.0438(2)
C20_2 C 0.0011(3) 0.6088(3) 0.0854(3)
H9_2 H 0.0179 0.6041 0.1273
C24_2 C 0.0254(3) 0.4379(3) 0.0209(2)
C25_2 C 0.0739(3) 0.4780(2) 0.3768(2)
C26_2 C 0.0368(3) 0.4889(3) 0.4412(2)
C27_2 C 0.0409(3) 0.5506(2) 0.4711(2)
C28_2 C 0.0801(3) 0.6033(3) 0.4431(2)
H13_2 H 0.1041 0.5970 0.4042
C29_2 C 0.0828(3) 0.6624(3) 0.4725(3)
H14_2 H 0.1080 0.6964 0.4532
C30_2 C 0.0476(3) 0.6730(3) 0.5322(3)
H15_2 H 0.0514 0.7134 0.5523
C31_2 C 0.0087(3) 0.6250(3) 0.5601(2)
O9_2 O 0.27757(19) 0.90227(16) 0.24576(17)
O10_2 O 0.38277(18) 0.8529(2) 0.25181(18)
O11_2 O 0.1024(2) 0.59965(19) 0.2626(2)
O12_2 O 0.2038(2) 0.55079(18) 0.23970(19)
C33_2 C 0.3147(3) 0.8519(2) 0.2482(2)
C34_2 C 0.2778(3) 0.7865(2) 0.2491(2)
C35_2 C 0.2761(3) 0.7495(2) 0.3060(2)
C36_2 C 0.3062(3) 0.7737(3) 0.3651(3)
H17_2 H 0.3258 0.8154 0.3667
C37_2 C 0.3061(3) 0.7355(3) 0.4188(3)
H18_2 H 0.3252 0.7518 0.4570
C38_2 C 0.2771(3) 0.6712(3) 0.4174(3)
H19_2 H 0.2801 0.6449 0.4537
C39_2 C 0.2455(3) 0.6485(3) 0.3633(2)
H20_2 H 0.2260 0.6067 0.3632
C40_2 C 0.2414(3) 0.6874(2) 0.3062(2)
C41_2 C 0.2065(3) 0.6653(2) 0.2500(2)
C42_2 C 0.2094(3) 0.7020(2) 0.1929(2)
C43_2 C 0.1773(3) 0.6785(3) 0.1343(2)
H21_2 H 0.1531 0.6387 0.1341
C44_2 C 0.1820(3) 0.7139(3) 0.0795(3)
H22_2 H 0.1621 0.6980 0.0415
C45_2 C 0.2174(3) 0.7753(3) 0.0798(3)
H23_2 H 0.2191 0.7998 0.0422
C46_2 C 0.2484(3) 0.7988(3) 0.1335(2)
H24_2 H 0.2720 0.8389 0.1322
C47_2 C 0.2458(3) 0.7634(2) 0.1919(2)
C48_2 C 0.1674(3) 0.6007(3) 0.2511(2)
H27_2 H 0.0600 0.2824 0.0122
C55_2 C 0.0479(3) 0.3746(3) 0.0405(3)
H28_2 H 0.0641 0.3680 0.0824
H32_2 H 0.0152 0.3669 0.4013
C64_2 C 0.0035(3) 0.5617(2) 0.5311(2)
C53_2 C 0.0224(3) 0.3324(3) 0.9339(3)
H26_2 H 0.0233 0.2976 0.9052
C54_2 C 0.0458(3) 0.3236(3) 0.9984(3)
C21_2 C 0.9776(3) 0.6676(3) 0.0661(3)
H10_2 H 0.9767 0.7024 0.0948
C22_2 C 0.9542(3) 0.6764(3) 0.0016(3)
H16_2 H 0.9848 0.6331 0.5987
C32_2 C 0.9965(3) 0.4383(2) 0.4689(2)
O20_2 O 0.8598(2) 0.5268(2) 0.62649(19)
C57_2 C 0.9261(3) 0.5220(2) 0.6232(2)
C58_2 C 0.9632(3) 0.5111(3) 0.5588(2)
C59_2 C 0.9591(3) 0.4494(2) 0.5289(2)
C60_2 C 0.9199(3) 0.3967(3) 0.5569(2)
H29_2 H 0.8959 0.4030 0.5958
C61_2 C 0.9172(3) 0.3376(3) 0.5275(3)
H30_2 H 0.8920 0.3036 0.5468
C62_2 C 0.9524(3) 0.3270(3) 0.4678(3)
H31_2 H 0.9486 0.2866 0.4477
C63_2 C 0.9913(3) 0.3750(3) 0.4399(2)
H11_2 H 0.9400 0.7176 0.9878
C23_2 C 0.9521(3) 0.6254(3) 0.9595(3)
H12_2 H 0.9359 0.6320 0.9176
C49_2 C 0.9412(3) 0.5168(3) 0.8701(2)
C50_2 C 0.9734(3) 0.5080(3) 0.9369(2)
C51_2 C 0.9989(3) 0.4466(3) 0.9562(2)
C52_2 C 0.9989(3) 0.3912(3) 0.9146(3)
H25_2 H 0.9821 0.3959 0.8727
C56_2 C 0.9746(3) 0.5621(3) 0.9791(2)
C21_3 C 0.0224(3) 0.1676(3) 0.4339(3)
H10_3 H 0.0233 0.2024 0.4052
C22_3 C 0.0458(3) 0.1764(3) 0.4984(3)
H11_3 H 0.0600 0.2176 0.5122
C23_3 C 0.0479(3) 0.1254(3) 0.5405(3)
H12_3 H 0.0641 0.1320 0.5824
Cd4_2 Cd 0.119518(18) 0.029885(17) 0.749937(16)
O14_2 O 0.1239(2) 0.0309(2) 0.63368(19)
O16_2 O 0.0207(2) 0.0086(2) 0.67794(17)
C49_3 C 0.0588(3) 0.0168(3) 0.6299(2)
C50_3 C 0.0266(3) 0.0080(3) 0.5631(2)
C56_3 C 0.0254(3) 0.0621(3) 0.5209(2)
H16_3 H 0.0152 0.1331 0.9013
O18_2 O 0.03356(19) 0.02455(17) 0.82861(16)
O20_3 O 0.1402(2) 0.0268(2) 0.87351(19)
C57_3 C 0.0739(3) 0.0220(2) 0.8768(2)
C58_3 C 0.0368(3) 0.0111(3) 0.9412(2)
C32_3 C 0.0035(3) 0.9383(2) 0.0311(2)
C51_3 C 0.0011(3) 0.9466(3) 0.5438(2)
C52_3 C 0.0011(3) 0.8912(3) 0.5854(3)
H25_3 H 0.0179 0.8959 0.6273
C62_3 C 0.0476(3) 0.8270(3) 0.0322(3)
H31_3 H 0.0514 0.7866 0.0523
C63_3 C 0.0087(3) 0.8750(3) 0.0601(2)
C59_3 C 0.0409(3) 0.9494(2) 0.9711(2)
C60_3 C 0.0801(3) 0.8967(3) 0.9431(2)
H29_3 H 0.1041 0.9030 0.9042
C61_3 C 0.0828(3) 0.8376(3) 0.9725(3)
H30_3 H 0.1080 0.8036 0.9532
C19_3 C 0.9989(3) 0.0534(3) 0.4562(2)
C20_3 C 0.9989(3) 0.1088(3) 0.4146(3)
H9_3 H 0.9821 0.1041 0.3727
C27_3 C 0.9591(3) 0.0506(2) 0.0289(2)
C28_3 C 0.9199(3) 0.1033(3) 0.0569(2)
H13_3 H 0.8959 0.0970 0.0958
C29_3 C 0.9172(3) 0.1624(3) 0.0275(3)
H14_3 H 0.8920 0.1964 0.0468
Cd2 Cd 0.619518(18) 0.470115(17) 0.250063(16)
O9_3 O 0.72243(19) 0.40227(16) 0.25424(17)
O10_3 O 0.61723(18) 0.3529(2) 0.24819(18)
O11_3 O 0.8976(2) 0.09965(19) 0.2374(2)
O12_3 O 0.7962(2) 0.05079(18) 0.26030(19)
O13_2 O 0.7038(2) 0.55079(18) 0.26030(19)
O15_2 O 0.6239(2) 0.4691(2) 0.36632(19)
O17_2 O 0.5207(2) 0.4914(2) 0.32206(17)
O19_2 O 0.53356(19) 0.47545(17) 0.17139(16)
C33_3 C 0.6853(3) 0.3519(2) 0.2518(2)
C34_3 C 0.7222(3) 0.2865(2) 0.2509(2)
C35_3 C 0.7239(3) 0.2495(2) 0.1940(2)
C36_3 C 0.6938(3) 0.2737(3) 0.1349(3)
H17_3 H 0.6742 0.3154 0.1333
C37_3 C 0.6939(3) 0.2355(3) 0.0812(3)
H18_3 H 0.6748 0.2518 0.0430
C38_3 C 0.7229(3) 0.1712(3) 0.0826(3)
H19_3 H 0.7199 0.1449 0.0463
C39_3 C 0.7545(3) 0.1485(3) 0.1367(2)
H20_3 H 0.7740 0.1067 0.1368
C40_3 C 0.7586(3) 0.1874(2) 0.1938(2)
C41_3 C 0.7935(3) 0.1653(2) 0.2500(2)
C42_3 C 0.7906(3) 0.2020(2) 0.3071(2)
C43_3 C 0.8227(3) 0.1785(3) 0.3657(2)
H21_3 H 0.8469 0.1387 0.3659
C44_3 C 0.8180(3) 0.2139(3) 0.4205(3)
H22_3 H 0.8379 0.1980 0.4585
C45_3 C 0.7826(3) 0.2753(3) 0.4202(3)
H23_3 H 0.7809 0.2998 0.4578
C46_3 C 0.7516(3) 0.2988(3) 0.3665(2)
H24_3 H 0.7280 0.3389 0.3678
C47_3 C 0.7542(3) 0.2634(2) 0.3081(2)
C48_3 C 0.8326(3) 0.1007(3) 0.2489(2)
C30_3 C 0.9524(3) 0.1730(3) 0.9678(3)
H15_3 H 0.9486 0.2134 0.9477
C31_3 C 0.9913(3) 0.1250(3) 0.9399(2)
C64_3 C 0.9965(3) 0.0617(2) 0.9689(2)
Cd1_3 Cd 0.880482(18) 0.970115(17) 0.250063(16)
O1_3 O 0.77757(19) 0.90227(16) 0.25424(17)
O2_3 O 0.88277(18) 0.8529(2) 0.24819(18)
O3_3 O 0.6024(2) 0.59965(19) 0.2374(2)
O5_3 O 0.8761(2) 0.9691(2) 0.36632(19)
O6_3 O 0.9793(2) 0.9914(2) 0.32206(17)
O7_3 O 0.96644(19) 0.97545(17) 0.17139(16)
O8_3 O 0.8598(2) 0.9732(2) 0.12649(19)
C1_3 C 0.8147(3) 0.8519(2) 0.2518(2)
C2_3 C 0.7778(3) 0.7865(2) 0.2509(2)
C3_3 C 0.7761(3) 0.7495(2) 0.1940(2)
C4_3 C 0.8062(3) 0.7737(3) 0.1349(3)
H1_3 H 0.8258 0.8154 0.1333
C5_3 C 0.8061(3) 0.7355(3) 0.0812(3)
H2_3 H 0.8252 0.7518 0.0430
C6_3 C 0.7771(3) 0.6712(3) 0.0826(3)
H3_3 H 0.7801 0.6449 0.0463
C7_3 C 0.7455(3) 0.6485(3) 0.1367(2)
H4_3 H 0.7260 0.6067 0.1368
C8_3 C 0.7414(3) 0.6874(2) 0.1938(2)
C9_3 C 0.7065(3) 0.6653(2) 0.2500(2)
C10_3 C 0.7094(3) 0.7020(2) 0.3071(2)
C11_3 C 0.6773(3) 0.6785(3) 0.3657(2)
H5_3 H 0.6531 0.6387 0.3659
C12_3 C 0.6820(3) 0.7139(3) 0.4205(3)
H6_3 H 0.6621 0.6980 0.4585
C13_3 C 0.7174(3) 0.7753(3) 0.4202(3)
H7_3 H 0.7191 0.7998 0.4578
C14_3 C 0.7484(3) 0.7988(3) 0.3665(2)
H8_3 H 0.7720 0.8389 0.3678
C15_3 C 0.7458(3) 0.7634(2) 0.3081(2)
C16_3 C 0.6674(3) 0.6007(3) 0.2489(2)
C17_3 C 0.9412(3) 0.9832(3) 0.3701(2)
C18_3 C 0.9734(3) 0.9920(3) 0.4369(2)
C24_3 C 0.9746(3) 0.9379(3) 0.4791(2)
C25_3 C 0.9261(3) 0.9780(2) 0.1232(2)
C26_3 C 0.9632(3) 0.9889(3) 0.0588(2)
C53_3 C 0.9776(3) 0.8324(3) 0.5661(3)
H26_3 H 0.9767 0.7976 0.5948
C54_3 C 0.9542(3) 0.8236(3) 0.5016(3)
H27_3 H 0.9400 0.7824 0.4878
C55_3 C 0.9521(3) 0.8746(3) 0.4595(3)
H28_3 H 0.9359 0.8680 0.4176
H32_3 H 0.9848 0.8669 0.0987
C30_4 C 0.4524(3) 0.3270(3) 0.0322(3)
H15_4 H 0.4486 0.2866 0.0523
C31_4 C 0.4913(3) 0.3750(3) 0.0601(2)
H16_4 H 0.5152 0.3669 0.0987
O20_4 O 0.6402(2) 0.4732(2) 0.12649(19)
C57_4 C 0.5739(3) 0.4780(2) 0.1232(2)
C58_4 C 0.5368(3) 0.4889(3) 0.0588(2)
C59_4 C 0.5409(3) 0.5506(2) 0.0289(2)
C60_4 C 0.5801(3) 0.6033(3) 0.0569(2)
H29_4 H 0.6041 0.5970 0.0958
C61_4 C 0.5828(3) 0.6624(3) 0.0275(3)
H30_4 H 0.6080 0.6964 0.0468
C64_4 C 0.4965(3) 0.4383(2) 0.0311(2)
Cd1_4 Cd 0.380482(18) 0.529885(17) 0.749937(16)
O1_4 O 0.27757(19) 0.59773(16) 0.74576(17)
O2_4 O 0.38277(18) 0.6471(2) 0.75181(18)
O3_4 O 0.1024(2) 0.90035(19) 0.7626(2)
O4_2 O 0.2038(2) 0.94921(18) 0.73970(19)
O5_4 O 0.3761(2) 0.5309(2) 0.63368(19)
O6_4 O 0.4793(2) 0.5086(2) 0.67794(17)
O7_4 O 0.46644(19) 0.52455(17) 0.82861(16)
O8_4 O 0.3598(2) 0.5268(2) 0.87351(19)
C1_4 C 0.3147(3) 0.6481(2) 0.7482(2)
C2_4 C 0.2778(3) 0.7135(2) 0.7491(2)
C3_4 C 0.2761(3) 0.7505(2) 0.8060(2)
C4_4 C 0.3062(3) 0.7263(3) 0.8651(3)
H1_4 H 0.3258 0.6846 0.8667
C5_4 C 0.3061(3) 0.7645(3) 0.9188(3)
H2_4 H 0.3252 0.7482 0.9570
C6_4 C 0.2771(3) 0.8288(3) 0.9174(3)
H3_4 H 0.2801 0.8551 0.9537
C7_4 C 0.2455(3) 0.8515(3) 0.8633(2)
H4_4 H 0.2260 0.8933 0.8632
C8_4 C 0.2414(3) 0.8126(2) 0.8062(2)
C9_4 C 0.2065(3) 0.8347(2) 0.7500(2)
C10_4 C 0.2094(3) 0.7980(2) 0.6929(2)
C11_4 C 0.1773(3) 0.8215(3) 0.6343(2)
H5_4 H 0.1531 0.8613 0.6341
C12_4 C 0.1820(3) 0.7861(3) 0.5795(3)
H6_4 H 0.1621 0.8020 0.5415
C13_4 C 0.2174(3) 0.7247(3) 0.5798(3)
H7_4 H 0.2191 0.7002 0.5422
C14_4 C 0.2484(3) 0.7012(3) 0.6335(2)
H8_4 H 0.2720 0.6611 0.6322
C15_4 C 0.2458(3) 0.7366(2) 0.6919(2)
C16_4 C 0.1674(3) 0.8993(3) 0.7511(2)
C17_4 C 0.4412(3) 0.5168(3) 0.6299(2)
C18_4 C 0.4734(3) 0.5080(3) 0.5631(2)
C19_4 C 0.4989(3) 0.4466(3) 0.5438(2)
C20_4 C 0.4989(3) 0.3912(3) 0.5854(3)
H9_4 H 0.4821 0.3959 0.6273
C21_4 C 0.5224(3) 0.3324(3) 0.5661(3)
H10_4 H 0.5233 0.2976 0.5948
C22_4 C 0.5458(3) 0.3236(3) 0.5016(3)
H11_4 H 0.5600 0.2824 0.4878
C23_4 C 0.5479(3) 0.3746(3) 0.4595(3)
H12_4 H 0.5641 0.3680 0.4176
C24_4 C 0.4746(3) 0.5621(3) 0.5209(2)
C25_4 C 0.4261(3) 0.5220(2) 0.8768(2)
C26_4 C 0.4632(3) 0.5111(3) 0.9412(2)
C27_4 C 0.4591(3) 0.4494(2) 0.9711(2)
C28_4 C 0.4199(3) 0.3967(3) 0.9431(2)
H13_4 H 0.3959 0.4030 0.9042
C29_4 C 0.4172(3) 0.3376(3) 0.9725(3)
H14_4 H 0.3920 0.3036 0.9532
C32_4 C 0.5035(3) 0.5617(2) 0.9689(2)
O9_4 O 0.22243(19) 0.09773(16) 0.74576(17)
O10_4 O 0.11723(18) 0.1471(2) 0.75181(18)
O11_4 O 0.3976(2) 0.40035(19) 0.7626(2)
O12_4 O 0.2962(2) 0.44921(18) 0.73970(19)
C33_4 C 0.1853(3) 0.1481(2) 0.7482(2)
C34_4 C 0.2222(3) 0.2135(2) 0.7491(2)
C35_4 C 0.2239(3) 0.2505(2) 0.8060(2)
C36_4 C 0.1938(3) 0.2263(3) 0.8651(3)
H17_4 H 0.1742 0.1846 0.8667
C37_4 C 0.1939(3) 0.2645(3) 0.9188(3)
H18_4 H 0.1748 0.2482 0.9570
C38_4 C 0.2229(3) 0.3288(3) 0.9174(3)
H19_4 H 0.2199 0.3551 0.9537
C39_4 C 0.2545(3) 0.3515(3) 0.8633(2)
H20_4 H 0.2740 0.3933 0.8632
C40_4 C 0.2586(3) 0.3126(2) 0.8062(2)
C41_4 C 0.2935(3) 0.3347(2) 0.7500(2)
C42_4 C 0.2906(3) 0.2980(2) 0.6929(2)
C43_4 C 0.3227(3) 0.3215(3) 0.6343(2)
H21_4 H 0.3469 0.3613 0.6341
C44_4 C 0.3180(3) 0.2861(3) 0.5795(3)
H22_4 H 0.3379 0.3020 0.5415
C45_4 C 0.2826(3) 0.2247(3) 0.5798(3)
H23_4 H 0.2809 0.2002 0.5422
C46_4 C 0.2516(3) 0.2012(3) 0.6335(2)
H24_4 H 0.2280 0.1611 0.6322
C47_4 C 0.2542(3) 0.2366(2) 0.6919(2)
C48_4 C 0.3326(3) 0.3993(3) 0.7511(2)
C49_4 C 0.5588(3) 0.4832(3) 0.3701(2)
C50_4 C 0.5266(3) 0.4920(3) 0.4369(2)
C51_4 C 0.5011(3) 0.5534(3) 0.4562(2)
C52_4 C 0.5011(3) 0.6088(3) 0.4146(3)
H25_4 H 0.5179 0.6041 0.3727
C53_4 C 0.4776(3) 0.6676(3) 0.4339(3)
H26_4 H 0.4767 0.7024 0.4052
C54_4 C 0.4542(3) 0.6764(3) 0.4984(3)
H27_4 H 0.4400 0.7176 0.5122
C55_4 C 0.4521(3) 0.6254(3) 0.5405(3)
H28_4 H 0.4359 0.6320 0.5824
C56_4 C 0.5254(3) 0.4379(3) 0.4791(2)
C62_4 C 0.5476(3) 0.6730(3) 0.9678(3)
H31_4 H 0.5514 0.7134 0.9477
C63_4 C 0.5087(3) 0.6250(3) 0.9399(2)
H32_4 H 0.4848 0.6331 0.9013
H34 H 0.7774 0.0077 0.8825
C68 C 0.8738(3) 0.0075(4) 0.7544(3)
H43 H 0.8344 0.0255 0.7293
H44 H 0.9173 0.0297 0.7407
C70 C 0.8606(3) 0.0252(4) 0.8242(3)
H47 H 0.9057 0.0220 0.8475
H48 H 0.8447 0.0702 0.8264
N1 N 0.8051(3) 0.9824(3) 0.8571(2)
H33 H 0.7763 0.9649 0.8268
N2 N 0.9446(3) 0.9002(3) 0.7630(2)
H35 H 0.9464 0.8606 0.7444
H36 H 0.9848 0.9218 0.7514
C65 C 0.8364(4) 0.9269(3) 0.8981(3)
H37 H 0.8695 0.9460 0.9290
H38 H 0.7972 0.9076 0.9224
C66 C 0.8754(4) 0.8727(4) 0.8637(4)
H39 H 0.8838 0.8376 0.8941
H40 H 0.8442 0.8559 0.8301
C67 C 0.9460(4) 0.8912(3) 0.8338(3)
H41 H 0.9625 0.9315 0.8534
H42 H 0.9811 0.8577 0.8440
C69 C 0.8814(3) 0.9359(4) 0.7361(3)
H45 H 0.8381 0.9133 0.7497
H46 H 0.8836 0.9330 0.6895
N1_2 N 0.6949(3) 0.0176(3) 0.3571(2)
H33_2 H 0.7237 0.0351 0.3268
N2_2 N 0.5554(3) 0.0998(3) 0.2630(2)
H35_2 H 0.5536 0.1394 0.2444
H36_2 H 0.5152 0.0782 0.2514
C65_2 C 0.6636(4) 0.0731(3) 0.3981(3)
H37_2 H 0.6305 0.0540 0.4290
H38_2 H 0.7028 0.0924 0.4224
C66_2 C 0.6246(4) 0.1273(4) 0.3637(4)
H39_2 H 0.6162 0.1624 0.3941
H40_2 H 0.6558 0.1441 0.3301
C67_2 C 0.5540(4) 0.1088(3) 0.3338(3)
H41_2 H 0.5375 0.0685 0.3534
H42_2 H 0.5189 0.1423 0.3440
C69_2 C 0.6186(3) 0.0641(4) 0.2361(3)
H45_2 H 0.6619 0.0867 0.2497
H46_2 H 0.6164 0.0670 0.1895
H34_2 H 0.7226 0.9923 0.3825
C68_2 C 0.6262(3) 0.9925(4) 0.2544(3)
H43_2 H 0.6656 0.9745 0.2293
H44_2 H 0.5827 0.9703 0.2407
C70_2 C 0.6394(3) 0.9748(4) 0.3242(3)
H47_2 H 0.5943 0.9780 0.3475
H48_2 H 0.6553 0.9298 0.3264
N1_3 N 0.3051(3) 0.5176(3) 0.1429(2)
H33_3 H 0.2763 0.5351 0.1732
H34_3 H 0.2774 0.4923 0.1175
N2_3 N 0.4446(3) 0.5998(3) 0.2370(2)
H35_3 H 0.4464 0.6394 0.2556
H36_3 H 0.4848 0.5782 0.2486
C65_3 C 0.3364(4) 0.5731(3) 0.1019(3)
H37_3 H 0.3695 0.5540 0.0710
H38_3 H 0.2972 0.5924 0.0776
C66_3 C 0.3754(4) 0.6273(4) 0.1363(4)
H39_3 H 0.3838 0.6624 0.1059
H40_3 H 0.3442 0.6441 0.1699
C67_3 C 0.4460(4) 0.6088(3) 0.1662(3)
H41_3 H 0.4625 0.5685 0.1466
H42_3 H 0.4811 0.6423 0.1560
C68_3 C 0.3738(3) 0.4925(4) 0.2456(3)
H43_3 H 0.3344 0.4745 0.2707
H44_3 H 0.4173 0.4703 0.2593
C69_3 C 0.3814(3) 0.5641(4) 0.2639(3)
H45_3 H 0.3381 0.5867 0.2503
H46_3 H 0.3836 0.5670 0.3105
C70_3 C 0.3606(3) 0.4748(4) 0.1758(3)
H47_3 H 0.4057 0.4780 0.1525
H48_3 H 0.3447 0.4298 0.1736
N1_4 N 0.1949(3) 0.4824(3) 0.6429(2)
H33_4 H 0.2237 0.4649 0.6732
H34_4 H 0.2226 0.5077 0.6175
N2_4 N 0.0554(3) 0.4002(3) 0.7370(2)
H35_4 H 0.0536 0.3606 0.7556
H36_4 H 0.0152 0.4218 0.7486
C65_4 C 0.1636(4) 0.4269(3) 0.6019(3)
H37_4 H 0.1305 0.4460 0.5710
H38_4 H 0.2028 0.4076 0.5776
C66_4 C 0.1246(4) 0.3727(4) 0.6363(4)
H39_4 H 0.1162 0.3376 0.6059
H40_4 H 0.1558 0.3559 0.6699
C67_4 C 0.0540(4) 0.3912(3) 0.6662(3)
H41_4 H 0.0375 0.4315 0.6466
H42_4 H 0.0189 0.3577 0.6560
C68_4 C 0.1262(3) 0.5075(4) 0.7456(3)
H43_4 H 0.1656 0.5255 0.7707
H44_4 H 0.0827 0.5297 0.7593
C69_4 C 0.1186(3) 0.4359(4) 0.7639(3)
H45_4 H 0.1619 0.4133 0.7503
H46_4 H 0.1164 0.4330 0.8105
C70_4 C 0.1394(3) 0.5252(4) 0.6758(3)
H47_4 H 0.0943 0.5220 0.6525
H48_4 H 0.1553 0.5702 0.6736
N1_5 N 0.1949(3) 0.0176(3) 0.1429(2)
H33_5 H 0.2237 0.0351 0.1732
N2_5 N 0.0554(3) 0.0998(3) 0.2370(2)
H35_5 H 0.0536 0.1394 0.2556
H36_5 H 0.0152 0.0782 0.2486
C65_5 C 0.1636(4) 0.0731(3) 0.1019(3)
H37_5 H 0.1305 0.0540 0.0710
H38_5 H 0.2028 0.0924 0.0776
C66_5 C 0.1246(4) 0.1273(4) 0.1363(4)
H39_5 H 0.1162 0.1624 0.1059
H40_5 H 0.1558 0.1441 0.1699
C67_5 C 0.0540(4) 0.1088(3) 0.1662(3)
H41_5 H 0.0375 0.0685 0.1466
H42_5 H 0.0189 0.1423 0.1560
C69_5 C 0.1186(3) 0.0641(4) 0.2639(3)
H45_5 H 0.1619 0.0867 0.2503
H46_5 H 0.1164 0.0670 0.3105
H34_5 H 0.2226 0.9923 0.1175
C68_5 C 0.1262(3) 0.9925(4) 0.2456(3)
H43_5 H 0.1656 0.9745 0.2707
H44_5 H 0.0827 0.9703 0.2593
C70_5 C 0.1394(3) 0.9748(4) 0.1758(3)
H47_5 H 0.0943 0.9780 0.1525
H48_5 H 0.1553 0.9298 0.1736
H34_6 H 0.2774 0.0077 0.6175
C68_6 C 0.3738(3) 0.0075(4) 0.7456(3)
H43_6 H 0.3344 0.0255 0.7707
H44_6 H 0.4173 0.0297 0.7593
C70_6 C 0.3606(3) 0.0252(4) 0.6758(3)
H47_6 H 0.4057 0.0220 0.6525
H48_6 H 0.3447 0.0702 0.6736
N1_6 N 0.3051(3) 0.9824(3) 0.6429(2)
H33_6 H 0.2763 0.9649 0.6732
N2_6 N 0.4446(3) 0.9002(3) 0.7370(2)
H35_6 H 0.4464 0.8606 0.7556
H36_6 H 0.4848 0.9218 0.7486
C65_6 C 0.3364(4) 0.9269(3) 0.6019(3)
H37_6 H 0.3695 0.9460 0.5710
H38_6 H 0.2972 0.9076 0.5776
C66_6 C 0.3754(4) 0.8727(4) 0.6363(4)
H39_6 H 0.3838 0.8376 0.6059
H40_6 H 0.3442 0.8559 0.6699
C67_6 C 0.4460(4) 0.8912(3) 0.6662(3)
H41_6 H 0.4625 0.9315 0.6466
H42_6 H 0.4811 0.8577 0.6560
C69_6 C 0.3814(3) 0.9359(4) 0.7639(3)
H45_6 H 0.3381 0.9133 0.7503
H46_6 H 0.3836 0.9330 0.8105
N1_7 N 0.6949(3) 0.4824(3) 0.8571(2)
H33_7 H 0.7237 0.4649 0.8268
H34_7 H 0.7226 0.5077 0.8825
N2_7 N 0.5554(3) 0.4002(3) 0.7630(2)
H35_7 H 0.5536 0.3606 0.7444
H36_7 H 0.5152 0.4218 0.7514
C65_7 C 0.6636(4) 0.4269(3) 0.8981(3)
H37_7 H 0.6305 0.4460 0.9290
H38_7 H 0.7028 0.4076 0.9224
C66_7 C 0.6246(4) 0.3727(4) 0.8637(4)
H39_7 H 0.6162 0.3376 0.8941
H40_7 H 0.6558 0.3559 0.8301
C67_7 C 0.5540(4) 0.3912(3) 0.8338(3)
H41_7 H 0.5375 0.4315 0.8534
H42_7 H 0.5189 0.3577 0.8440
C68_7 C 0.6262(3) 0.5075(4) 0.7544(3)
H43_7 H 0.6656 0.5255 0.7293
H44_7 H 0.5827 0.5297 0.7407
C69_7 C 0.6186(3) 0.4359(4) 0.7361(3)
H45_7 H 0.6619 0.4133 0.7497
H46_7 H 0.6164 0.4330 0.6895
C70_7 C 0.6394(3) 0.5252(4) 0.8242(3)
H47_7 H 0.5943 0.5220 0.8475
H48_7 H 0.6553 0.5702 0.8264
N1_8 N 0.8051(3) 0.5176(3) 0.3571(2)
H33_8 H 0.7763 0.5351 0.3268
H34_8 H 0.7774 0.4923 0.3825
N2_8 N 0.9446(3) 0.5998(3) 0.2630(2)
H35_8 H 0.9464 0.6394 0.2444
H36_8 H 0.9848 0.5782 0.2514
C65_8 C 0.8364(4) 0.5731(3) 0.3981(3)
H37_8 H 0.8695 0.5540 0.4290
H38_8 H 0.7972 0.5924 0.4224
C66_8 C 0.8754(4) 0.6273(4) 0.3637(4)
H39_8 H 0.8838 0.6624 0.3941
H40_8 H 0.8442 0.6441 0.3301
C67_8 C 0.9460(4) 0.6088(3) 0.3338(3)
H41_8 H 0.9625 0.5685 0.3534
H42_8 H 0.9811 0.6423 0.3440
C68_8 C 0.8738(3) 0.4925(4) 0.2544(3)
H43_8 H 0.8344 0.4745 0.2293
H44_8 H 0.9173 0.4703 0.2407
C69_8 C 0.8814(3) 0.5641(4) 0.2361(3)
H45_8 H 0.8381 0.5867 0.2497
H46_8 H 0.8836 0.5670 0.1895
C70_8 C 0.8606(3) 0.4748(4) 0.3242(3)
H47_8 H 0.9057 0.4780 0.3475
H48_8 H 0.8447 0.4298 0.3264
loop_
_geom_bond_atom_site_label_1
_geom_bond_atom_site_label_2
_geom_bond_site_symmetry_1
_geom_bond_site_symmetry_2
C52 C51 1_555 1_555
H25 C52 1_555 1_555
C53 C52 1_555 1_555
H26 C53 1_555 1_555
C54 C53 1_555 1_555
Cd1 O1 1_555 1_555
O1 C1 1_555 1_555
O2 Cd1 1_555 1_555
O3 C16 1_555 1_555
O4 C16 1_555 1_555
O5 Cd1 1_555 1_555
O6 Cd1 1_555 1_555
O7 Cd1 1_555 1_555
O8 C25 1_555 1_555
C1 O2 1_555 1_555
C2 C1 1_555 1_555
C3 C2 1_555 1_555
C4 C3 1_555 1_555
H1 C4 1_555 1_555
C5 C4 1_555 1_555
H2 C5 1_555 1_555
C6 C5 1_555 1_555
H3 C6 1_555 1_555
C7 C6 1_555 1_555
H4 C7 1_555 1_555
C8 C3 1_555 1_555
C9 C8 1_555 1_555
C10 C9 1_555 1_555
C11 C10 1_555 1_555
H5 C11 1_555 1_555
C12 C11 1_555 1_555
H6 C12 1_555 1_555
C13 C12 1_555 1_555
H7 C13 1_555 1_555
C14 C13 1_555 1_555
H8 C14 1_555 1_555
C15 C2 1_555 1_555
C16 C9 1_555 1_555
C17 O5 1_555 1_555
C18 C17 1_555 1_555
C24 C18 1_555 1_555
C25 O7 1_555 1_555
C26 C25 1_555 1_555
C32 C26 1_555 1_555
Cd3 O4 1_555 1_555
C55 C24 1_555 1_555
H28 C55 1_555 1_555
C59 C32 1_555 1_555
C60 C59 1_555 1_555
H29 C60 1_555 1_555
C61 C60 1_555 1_555
H30 C61 1_555 1_555
C62 C61 1_555 1_555
H31 C62 1_555 1_555
C63 C32 1_555 1_555
H32 C63 1_555 1_555
O6 C17 1_555 1_555
C7 C8 1_555 1_555
C10 C15 1_555 1_555
C14 C15 1_555 1_555
C62 C63 1_555 1_555
H12 C23 1_555 1_555
Cd4 O14 1_555 1_555
O14 C49 1_555 1_555
O16 Cd4 1_555 1_555
C49 O16 1_555 1_555
C50 C49 1_555 1_555
C23 C56 1_555 1_555
C50 C56 1_555 1_555
C20 C19 1_555 1_555
H9 C20 1_555 1_555
C21 C20 1_555 1_555
H10 C21 1_555 1_555
C22 C21 1_555 1_555
C28 C27 1_555 1_555
H13 C28 1_555 1_555
C29 C28 1_555 1_555
H14 C29 1_555 1_555
C30 C29 1_555 1_555
H15 C30 1_555 1_555
C31 C30 1_555 1_555
H16 C31 1_555 1_555
Cd3 O9 1_555 1_555
Cd4 O18 1_555 1_555
O9 C33 1_555 1_555
O10 Cd3 1_555 1_555
O11 C48 1_555 1_555
O15 Cd3 1_555 1_555
O17 Cd3 1_555 1_555
O18 C57 1_555 1_555
O19 Cd3 1_555 1_555
O20 C57 1_555 1_555
C33 O10 1_555 1_555
C34 C33 1_555 1_555
C35 C34 1_555 1_555
C36 C35 1_555 1_555
H17 C36 1_555 1_555
C37 C36 1_555 1_555
H18 C37 1_555 1_555
C38 C37 1_555 1_555
H19 C38 1_555 1_555
C39 C38 1_555 1_555
H20 C39 1_555 1_555
C40 C35 1_555 1_555
C41 C40 1_555 1_555
C42 C41 1_555 1_555
C43 C42 1_555 1_555
H21 C43 1_555 1_555
C44 C43 1_555 1_555
H22 C44 1_555 1_555
C45 C44 1_555 1_555
H23 C45 1_555 1_555
C46 C45 1_555 1_555
H24 C46 1_555 1_555
C47 C34 1_555 1_555
C48 O12 1_555 1_555
C57 C58 1_555 1_555
C64 C27 1_555 1_555
C31 C64 1_555 1_555
C39 C40 1_555 1_555
C41 C48 1_555 1_555
C42 C47 1_555 1_555
C46 C47 1_555 1_555
C58 C64 1_555 1_555
Cd1_2 O1_2 1_555 1_555
O1_2 C1_2 1_555 1_555
O2_2 Cd1_2 1_555 1_555
O3_2 C16_2 1_555 1_555
O13 C16_2 1_555 1_555
O5_2 Cd1_2 1_555 1_555
O6_2 Cd1_2 1_555 1_555
O7_2 Cd1_2 1_555 1_555
O8_2 C25_2 1_555 1_555
C1_2 O2_2 1_555 1_555
C2_2 C1_2 1_555 1_555
C3_2 C2_2 1_555 1_555
C4_2 C3_2 1_555 1_555
H1_2 C4_2 1_555 1_555
C5_2 C4_2 1_555 1_555
H2_2 C5_2 1_555 1_555
C6_2 C5_2 1_555 1_555
H3_2 C6_2 1_555 1_555
C7_2 C6_2 1_555 1_555
H4_2 C7_2 1_555 1_555
C8_2 C3_2 1_555 1_555
C9_2 C8_2 1_555 1_555
C10_2 C9_2 1_555 1_555
C11_2 C10_2 1_555 1_555
H5_2 C11_2 1_555 1_555
C12_2 C11_2 1_555 1_555
H6_2 C12_2 1_555 1_555
C13_2 C12_2 1_555 1_555
H7_2 C13_2 1_555 1_555
C14_2 C13_2 1_555 1_555
H8_2 C14_2 1_555 1_555
C15_2 C2_2 1_555 1_555
C16_2 C9_2 1_555 1_555
C17_2 O5_2 1_555 1_555
C18_2 C17_2 1_555 1_555
C19_2 C18_2 1_555 1_555
C20_2 C19_2 1_555 1_555
H9_2 C20_2 1_555 1_555
C24_2 C18_2 1_555 1_555
C25_2 O7_2 1_555 1_555
C26_2 C25_2 1_555 1_555
C27_2 C26_2 1_555 1_555
C28_2 C27_2 1_555 1_555
H13_2 C28_2 1_555 1_555
C29_2 C28_2 1_555 1_555
H14_2 C29_2 1_555 1_555
C30_2 C29_2 1_555 1_555
H15_2 C30_2 1_555 1_555
C31_2 C30_2 1_555 1_555
Cd4 O9_2 1_555 1_555
O9_2 C33_2 1_555 1_555
O10_2 Cd4 1_555 1_555
O11_2 C48_2 1_555 1_555
O12_2 Cd1_2 1_555 1_555
C33_2 O10_2 1_555 1_555
C34_2 C33_2 1_555 1_555
C35_2 C34_2 1_555 1_555
C36_2 C35_2 1_555 1_555
H17_2 C36_2 1_555 1_555
C37_2 C36_2 1_555 1_555
H18_2 C37_2 1_555 1_555
C38_2 C37_2 1_555 1_555
H19_2 C38_2 1_555 1_555
C39_2 C38_2 1_555 1_555
H20_2 C39_2 1_555 1_555
C40_2 C35_2 1_555 1_555
C41_2 C40_2 1_555 1_555
C42_2 C41_2 1_555 1_555
C43_2 C42_2 1_555 1_555
H21_2 C43_2 1_555 1_555
C44_2 C43_2 1_555 1_555
H22_2 C44_2 1_555 1_555
C45_2 C44_2 1_555 1_555
H23_2 C45_2 1_555 1_555
C46_2 C45_2 1_555 1_555
H24_2 C46_2 1_555 1_555
C47_2 C34_2 1_555 1_555
C48_2 O12_2 1_555 1_555
C55_2 C24_2 1_555 1_555
H28_2 C55_2 1_555 1_555
C64_2 C27_2 1_555 1_555
O6_2 C17_2 1_555 1_555
C7_2 C8_2 1_555 1_555
C10_2 C15_2 1_555 1_555
C14_2 C15_2 1_555 1_555
C31_2 C64_2 1_555 1_555
C39_2 C40_2 1_555 1_555
C41_2 C48_2 1_555 1_555
C42_2 C47_2 1_555 1_555
C46_2 C47_2 1_555 1_555
H26_2 C53_2 1_555 1_555
C54_2 C53_2 1_555 1_555
H10_2 C21_2 1_555 1_555
C22_2 C21_2 1_555 1_555
O19 C57_2 1_555 1_555
O20_2 C57_2 1_555 1_555
C57_2 C58_2 1_555 1_555
C58_2 C59_2 1_555 1_555
C59_2 C32_2 1_555 1_555
C60_2 C59_2 1_555 1_555
H29_2 C60_2 1_555 1_555
C61_2 C60_2 1_555 1_555
H30_2 C61_2 1_555 1_555
C62_2 C61_2 1_555 1_555
H31_2 C62_2 1_555 1_555
C63_2 C32_2 1_555 1_555
C62_2 C63_2 1_555 1_555
H12_2 C23_2 1_555 1_555
O15 C49_2 1_555 1_555
C49_2 O17 1_555 1_555
C50_2 C49_2 1_555 1_555
C52_2 C51_2 1_555 1_555
H25_2 C52_2 1_555 1_555
C23_2 C56_2 1_555 1_555
C50_2 C51_2 1_555 1_555
C50_2 C56_2 1_555 1_555
H10_3 C21_3 1_555 1_555
C22_3 C21_3 1_555 1_555
H11_3 C22_3 1_555 1_555
C23_3 C22_3 1_555 1_555
H12_3 C23_3 1_555 1_555
Cd4_2 O14_2 1_555 1_555
O14_2 C49_3 1_555 1_555
O16_2 Cd4_2 1_555 1_555
C49_3 O16_2 1_555 1_555
C50_3 C49_3 1_555 1_555
C23_3 C56_3 1_555 1_555
C50_3 C56_3 1_555 1_555
Cd4_2 O18_2 1_555 1_555
O18_2 C57_3 1_555 1_555
O20_3 C57_3 1_555 1_555
C57_3 C58_3 1_555 1_555
C52_3 C51_3 1_555 1_555
H25_3 C52_3 1_555 1_555
H31_3 C62_3 1_555 1_555
C63_3 C32_3 1_555 1_555
C62_3 C63_3 1_555 1_555
C60_3 C59_3 1_555 1_555
H29_3 C60_3 1_555 1_555
C61_3 C60_3 1_555 1_555
H30_3 C61_3 1_555 1_555
C20_3 C19_3 1_555 1_555
H9_3 C20_3 1_555 1_555
C28_3 C27_3 1_555 1_555
H13_3 C28_3 1_555 1_555
C29_3 C28_3 1_555 1_555
H14_3 C29_3 1_555 1_555
Cd2 O9_3 1_555 1_555
O9_3 C33_3 1_555 1_555
O10_3 Cd2 1_555 1_555
O11_3 C48_3 1_555 1_555
O13_2 Cd2 1_555 1_555
O15_2 Cd2 1_555 1_555
O17_2 Cd2 1_555 1_555
O19_2 Cd2 1_555 1_555
C33_3 O10_3 1_555 1_555
C34_3 C33_3 1_555 1_555
C35_3 C34_3 1_555 1_555
C36_3 C35_3 1_555 1_555
H17_3 C36_3 1_555 1_555
C37_3 C36_3 1_555 1_555
H18_3 C37_3 1_555 1_555
C38_3 C37_3 1_555 1_555
H19_3 C38_3 1_555 1_555
C39_3 C38_3 1_555 1_555
H20_3 C39_3 1_555 1_555
C40_3 C35_3 1_555 1_555
C41_3 C40_3 1_555 1_555
C42_3 C41_3 1_555 1_555
C43_3 C42_3 1_555 1_555
H21_3 C43_3 1_555 1_555
C44_3 C43_3 1_555 1_555
H22_3 C44_3 1_555 1_555
C45_3 C44_3 1_555 1_555
H23_3 C45_3 1_555 1_555
C46_3 C45_3 1_555 1_555
H24_3 C46_3 1_555 1_555
C47_3 C34_3 1_555 1_555
C48_3 O12_3 1_555 1_555
C39_3 C40_3 1_555 1_555
C41_3 C48_3 1_555 1_555
C42_3 C47_3 1_555 1_555
C46_3 C47_3 1_555 1_555
H15_3 C30_3 1_555 1_555
C31_3 C30_3 1_555 1_555
C31_3 C64_3 1_555 1_555
Cd1_3 O1_3 1_555 1_555
O1_3 C1_3 1_555 1_555
O2_3 Cd1_3 1_555 1_555
O3_3 C16_3 1_555 1_555
O13_2 C16_3 1_555 1_555
O5_3 Cd1_3 1_555 1_555
O6_3 Cd1_3 1_555 1_555
O7_3 Cd1_3 1_555 1_555
O8_3 C25_3 1_555 1_555
C1_3 O2_3 1_555 1_555
C2_3 C1_3 1_555 1_555
C3_3 C2_3 1_555 1_555
C4_3 C3_3 1_555 1_555
H1_3 C4_3 1_555 1_555
C5_3 C4_3 1_555 1_555
H2_3 C5_3 1_555 1_555
C6_3 C5_3 1_555 1_555
H3_3 C6_3 1_555 1_555
C7_3 C6_3 1_555 1_555
H4_3 C7_3 1_555 1_555
C8_3 C3_3 1_555 1_555
C9_3 C8_3 1_555 1_555
C10_3 C9_3 1_555 1_555
C11_3 C10_3 1_555 1_555
H5_3 C11_3 1_555 1_555
C12_3 C11_3 1_555 1_555
H6_3 C12_3 1_555 1_555
C13_3 C12_3 1_555 1_555
H7_3 C13_3 1_555 1_555
C14_3 C13_3 1_555 1_555
H8_3 C14_3 1_555 1_555
C15_3 C2_3 1_555 1_555
C16_3 C9_3 1_555 1_555
C17_3 O5_3 1_555 1_555
C18_3 C17_3 1_555 1_555
C24_3 C18_3 1_555 1_555
C25_3 O7_3 1_555 1_555
C26_3 C25_3 1_555 1_555
H26_3 C53_3 1_555 1_555
C54_3 C53_3 1_555 1_555
H27_3 C54_3 1_555 1_555
C55_3 C24_3 1_555 1_555
H28_3 C55_3 1_555 1_555
O6_3 C17_3 1_555 1_555
C7_3 C8_3 1_555 1_555
C10_3 C15_3 1_555 1_555
C14_3 C15_3 1_555 1_555
C54_3 C55_3 1_555 1_555
H15_4 C30_4 1_555 1_555
C31_4 C30_4 1_555 1_555
H16_4 C31_4 1_555 1_555
O19_2 C57_4 1_555 1_555
O20_4 C57_4 1_555 1_555
C57_4 C58_4 1_555 1_555
C58_4 C59_4 1_555 1_555
C60_4 C59_4 1_555 1_555
H29_4 C60_4 1_555 1_555
C61_4 C60_4 1_555 1_555
H30_4 C61_4 1_555 1_555
C31_4 C64_4 1_555 1_555
C58_4 C64_4 1_555 1_555
Cd1_4 O1_4 1_555 1_555
O1_4 C1_4 1_555 1_555
O2_4 Cd1_4 1_555 1_555
O3_4 C16_4 1_555 1_555
O4_2 C16_4 1_555 1_555
O5_4 Cd1_4 1_555 1_555
O6_4 Cd1_4 1_555 1_555
O7_4 Cd1_4 1_555 1_555
O8_4 C25_4 1_555 1_555
C1_4 O2_4 1_555 1_555
C2_4 C1_4 1_555 1_555
C3_4 C2_4 1_555 1_555
C4_4 C3_4 1_555 1_555
H1_4 C4_4 1_555 1_555
C5_4 C4_4 1_555 1_555
H2_4 C5_4 1_555 1_555
C6_4 C5_4 1_555 1_555
H3_4 C6_4 1_555 1_555
C7_4 C6_4 1_555 1_555
H4_4 C7_4 1_555 1_555
C8_4 C3_4 1_555 1_555
C9_4 C8_4 1_555 1_555
C10_4 C9_4 1_555 1_555
C11_4 C10_4 1_555 1_555
H5_4 C11_4 1_555 1_555
C12_4 C11_4 1_555 1_555
H6_4 C12_4 1_555 1_555
C13_4 C12_4 1_555 1_555
H7_4 C13_4 1_555 1_555
C14_4 C13_4 1_555 1_555
H8_4 C14_4 1_555 1_555
C15_4 C2_4 1_555 1_555
C16_4 C9_4 1_555 1_555
C17_4 O5_4 1_555 1_555
C18_4 C17_4 1_555 1_555
C19_4 C18_4 1_555 1_555
C20_4 C19_4 1_555 1_555
H9_4 C20_4 1_555 1_555
C21_4 C20_4 1_555 1_555
H10_4 C21_4 1_555 1_555
C22_4 C21_4 1_555 1_555
H11_4 C22_4 1_555 1_555
C23_4 C22_4 1_555 1_555
H12_4 C23_4 1_555 1_555
C24_4 C18_4 1_555 1_555
C25_4 O7_4 1_555 1_555
C26_4 C25_4 1_555 1_555
C27_4 C26_4 1_555 1_555
C28_4 C27_4 1_555 1_555
H13_4 C28_4 1_555 1_555
C29_4 C28_4 1_555 1_555
H14_4 C29_4 1_555 1_555
C32_4 C26_4 1_555 1_555
Cd4_2 O9_4 1_555 1_555
O9_4 C33_4 1_555 1_555
O10_4 Cd4_2 1_555 1_555
O11_4 C48_4 1_555 1_555
O12_4 Cd1_4 1_555 1_555
O15_2 C49_4 1_555 1_555
C33_4 O10_4 1_555 1_555
C34_4 C33_4 1_555 1_555
C35_4 C34_4 1_555 1_555
C36_4 C35_4 1_555 1_555
H17_4 C36_4 1_555 1_555
C37_4 C36_4 1_555 1_555
H18_4 C37_4 1_555 1_555
C38_4 C37_4 1_555 1_555
H19_4 C38_4 1_555 1_555
C39_4 C38_4 1_555 1_555
H20_4 C39_4 1_555 1_555
C40_4 C35_4 1_555 1_555
C41_4 C40_4 1_555 1_555
C42_4 C41_4 1_555 1_555
C43_4 C42_4 1_555 1_555
H21_4 C43_4 1_555 1_555
C44_4 C43_4 1_555 1_555
H22_4 C44_4 1_555 1_555
C45_4 C44_4 1_555 1_555
H23_4 C45_4 1_555 1_555
C46_4 C45_4 1_555 1_555
H24_4 C46_4 1_555 1_555
C47_4 C34_4 1_555 1_555
C48_4 O12_4 1_555 1_555
C49_4 O17_2 1_555 1_555
C50_4 C49_4 1_555 1_555
C51_4 C24_4 1_555 1_555
C52_4 C51_4 1_555 1_555
H25_4 C52_4 1_555 1_555
C53_4 C52_4 1_555 1_555
H26_4 C53_4 1_555 1_555
C54_4 C53_4 1_555 1_555
H27_4 C54_4 1_555 1_555
C55_4 C24_4 1_555 1_555
H28_4 C55_4 1_555 1_555
C56_4 C19_4 1_555 1_555
H31_4 C62_4 1_555 1_555
C63_4 C32_4 1_555 1_555
H32_4 C63_4 1_555 1_555
O6_4 C17_4 1_555 1_555
C7_4 C8_4 1_555 1_555
C10_4 C15_4 1_555 1_555
C14_4 C15_4 1_555 1_555
C23_4 C56_4 1_555 1_555
C39_4 C40_4 1_555 1_555
C41_4 C48_4 1_555 1_555
C42_4 C47_4 1_555 1_555
C46_4 C47_4 1_555 1_555
C50_4 C51_4 1_555 1_555
C50_4 C56_4 1_555 1_555
C54_4 C55_4 1_555 1_555
C62_4 C63_4 1_555 1_555
C68 H43 1_555 1_555
H44 C68 1_555 1_555
H47 C70 1_555 1_555
H48 C70 1_555 1_555
C68 C70 1_555 1_555
N1 H33 1_555 1_555
N2 H35 1_555 1_555
H36 N2 1_555 1_555
C65 N1 1_555 1_555
H37 C65 1_555 1_555
H38 C65 1_555 1_555
C66 C65 1_555 1_555
H39 C66 1_555 1_555
H40 C66 1_555 1_555
C67 N2 1_555 1_555
H41 C67 1_555 1_555
H42 C67 1_555 1_555
C69 N2 1_555 1_555
H45 C69 1_555 1_555
H46 C69 1_555 1_555
C66 C67 1_555 1_555
N1_2 H33_2 1_555 1_555
N2_2 H35_2 1_555 1_555
H36_2 N2_2 1_555 1_555
C65_2 N1_2 1_555 1_555
H37_2 C65_2 1_555 1_555
H38_2 C65_2 1_555 1_555
C66_2 C65_2 1_555 1_555
H39_2 C66_2 1_555 1_555
H40_2 C66_2 1_555 1_555
C67_2 N2_2 1_555 1_555
H41_2 C67_2 1_555 1_555
H42_2 C67_2 1_555 1_555
C69_2 N2_2 1_555 1_555
H45_2 C69_2 1_555 1_555
H46_2 C69_2 1_555 1_555
C66_2 C67_2 1_555 1_555
C68_2 H43_2 1_555 1_555
H44_2 C68_2 1_555 1_555
H47_2 C70_2 1_555 1_555
H48_2 C70_2 1_555 1_555
C68_2 C70_2 1_555 1_555
N1_3 H33_3 1_555 1_555
H34_3 N1_3 1_555 1_555
N2_3 H35_3 1_555 1_555
H36_3 N2_3 1_555 1_555
C65_3 N1_3 1_555 1_555
H37_3 C65_3 1_555 1_555
H38_3 C65_3 1_555 1_555
C66_3 C65_3 1_555 1_555
H39_3 C66_3 1_555 1_555
H40_3 C66_3 1_555 1_555
C67_3 N2_3 1_555 1_555
H41_3 C67_3 1_555 1_555
H42_3 C67_3 1_555 1_555
C68_3 H43_3 1_555 1_555
H44_3 C68_3 1_555 1_555
C69_3 N2_3 1_555 1_555
H45_3 C69_3 1_555 1_555
H46_3 C69_3 1_555 1_555
C70_3 N1_3 1_555 1_555
H47_3 C70_3 1_555 1_555
H48_3 C70_3 1_555 1_555
C66_3 C67_3 1_555 1_555
C68_3 C69_3 1_555 1_555
C68_3 C70_3 1_555 1_555
N1_4 H33_4 1_555 1_555
H34_4 N1_4 1_555 1_555
N2_4 H35_4 1_555 1_555
H36_4 N2_4 1_555 1_555
C65_4 N1_4 1_555 1_555
H37_4 C65_4 1_555 1_555
H38_4 C65_4 1_555 1_555
C66_4 C65_4 1_555 1_555
H39_4 C66_4 1_555 1_555
H40_4 C66_4 1_555 1_555
C67_4 N2_4 1_555 1_555
H41_4 C67_4 1_555 1_555
H42_4 C67_4 1_555 1_555
C68_4 H43_4 1_555 1_555
H44_4 C68_4 1_555 1_555
C69_4 N2_4 1_555 1_555
H45_4 C69_4 1_555 1_555
H46_4 C69_4 1_555 1_555
C70_4 N1_4 1_555 1_555
H47_4 C70_4 1_555 1_555
H48_4 C70_4 1_555 1_555
C66_4 C67_4 1_555 1_555
C68_4 C69_4 1_555 1_555
C68_4 C70_4 1_555 1_555
N1_5 H33_5 1_555 1_555
N2_5 H35_5 1_555 1_555
H36_5 N2_5 1_555 1_555
C65_5 N1_5 1_555 1_555
H37_5 C65_5 1_555 1_555
H38_5 C65_5 1_555 1_555
C66_5 C65_5 1_555 1_555
H39_5 C66_5 1_555 1_555
H40_5 C66_5 1_555 1_555
C67_5 N2_5 1_555 1_555
H41_5 C67_5 1_555 1_555
H42_5 C67_5 1_555 1_555
C69_5 N2_5 1_555 1_555
H45_5 C69_5 1_555 1_555
H46_5 C69_5 1_555 1_555
C66_5 C67_5 1_555 1_555
C68_5 H43_5 1_555 1_555
H44_5 C68_5 1_555 1_555
H47_5 C70_5 1_555 1_555
H48_5 C70_5 1_555 1_555
C68_5 C70_5 1_555 1_555
C68_6 H43_6 1_555 1_555
H44_6 C68_6 1_555 1_555
H47_6 C70_6 1_555 1_555
H48_6 C70_6 1_555 1_555
C68_6 C70_6 1_555 1_555
N1_6 H33_6 1_555 1_555
N2_6 H35_6 1_555 1_555
H36_6 N2_6 1_555 1_555
C65_6 N1_6 1_555 1_555
H37_6 C65_6 1_555 1_555
H38_6 C65_6 1_555 1_555
C66_6 C65_6 1_555 1_555
H39_6 C66_6 1_555 1_555
H40_6 C66_6 1_555 1_555
C67_6 N2_6 1_555 1_555
H41_6 C67_6 1_555 1_555
H42_6 C67_6 1_555 1_555
C69_6 N2_6 1_555 1_555
H45_6 C69_6 1_555 1_555
H46_6 C69_6 1_555 1_555
C66_6 C67_6 1_555 1_555
N1_7 H33_7 1_555 1_555
H34_7 N1_7 1_555 1_555
N2_7 H35_7 1_555 1_555
H36_7 N2_7 1_555 1_555
C65_7 N1_7 1_555 1_555
H37_7 C65_7 1_555 1_555
H38_7 C65_7 1_555 1_555
C66_7 C65_7 1_555 1_555
H39_7 C66_7 1_555 1_555
H40_7 C66_7 1_555 1_555
C67_7 N2_7 1_555 1_555
H41_7 C67_7 1_555 1_555
H42_7 C67_7 1_555 1_555
C68_7 H43_7 1_555 1_555
H44_7 C68_7 1_555 1_555
C69_7 N2_7 1_555 1_555
H45_7 C69_7 1_555 1_555
H46_7 C69_7 1_555 1_555
C70_7 N1_7 1_555 1_555
H47_7 C70_7 1_555 1_555
H48_7 C70_7 1_555 1_555
C66_7 C67_7 1_555 1_555
C68_7 C69_7 1_555 1_555
C68_7 C70_7 1_555 1_555
N1_8 H33_8 1_555 1_555
H34_8 N1_8 1_555 1_555
N2_8 H35_8 1_555 1_555
H36_8 N2_8 1_555 1_555
C65_8 N1_8 1_555 1_555
H37_8 C65_8 1_555 1_555
H38_8 C65_8 1_555 1_555
C66_8 C65_8 1_555 1_555
H39_8 C66_8 1_555 1_555
H40_8 C66_8 1_555 1_555
C67_8 N2_8 1_555 1_555
H41_8 C67_8 1_555 1_555
H42_8 C67_8 1_555 1_555
C68_8 H43_8 1_555 1_555
H44_8 C68_8 1_555 1_555
C69_8 N2_8 1_555 1_555
H45_8 C69_8 1_555 1_555
H46_8 C69_8 1_555 1_555
C70_8 N1_8 1_555 1_555
H47_8 C70_8 1_555 1_555
H48_8 C70_8 1_555 1_555
C66_8 C67_8 1_555 1_555
C68_8 C69_8 1_555 1_555
C68_8 C70_8 1_555 1_555

#END
