
###############################################################################
#
# This file contains modified crystal structure data generated from the
# MOF subset of the Cambridge Structural Database (CSD) v543 
# hosted by the Cambridge Crystallographic Data Centre (CCDC).
#
# This work is licensed under the Creative Commons
# Attribution-NonCommercial-ShareAlike 4.0 International License.
# To view a copy of this license, visit
# http://creativecommons.org/licenses/by-nc-sa/4.0/
# or send a letter to
# Creative Commons, PO Box 1866, Mountain View, CA 94042, USA.
#
# CIF created using the CSD Python API on 29 September 2022
# The structure has been converted into the P1 space group
# The structure has a 3D framework
# The original CSD entry DUQYEU is in the monoclinic crystal system
# The framework has been calculated to contain at least 10.0% void space
# The void calculation uses a probe of radius 1.32A, grid spacing 0.4
# The framework is charged, counterions have been retained in the structure
#
###############################################################################

data_DUQYEU
_chemical_formula_moiety         '(C24 H40 Dy4 N4 O32)n'
_symmetry_cell_setting           triclinic
_symmetry_space_group_name_H-M   'P 1'
_symmetry_Int_Tables_number      1
_space_group_name_Hall           'P 1'
loop_
_symmetry_equiv_pos_site_id
_symmetry_equiv_pos_as_xyz
1 x,y,z
_cell_length_a                   9.6239(2)
_cell_length_b                   11.6030(2)
_cell_length_c                   14.3050(2)
_cell_angle_alpha                90
_cell_angle_beta                 122.4630(10)
_cell_angle_gamma                90
_cell_volume                     1347.77
loop_
_atom_site_label
_atom_site_type_symbol
_atom_site_fract_x
_atom_site_fract_y
_atom_site_fract_z
O9 O 0.6106(3) 0.01101(15) 0.14319(17)
Dy5 Dy 0.882341(15) 0.013113(10) 0.167676(10)
C8 C 0.0055(3) 0.0664(2) 0.0010(2)
H2 H 0.106(4) 0.0401(18) 0.625(2)
O12 O 0.1030(2) 0.36288(15) 0.79291(17)
O13 O 0.1939(2) 0.18170(15) 0.82907(16)
O16 O 0.1169(2) 0.60625(16) 0.79662(18)
O17 O 0.6600(3) 0.01122(16) 0.97786(18)
O21 O 0.0381(3) 0.11134(17) 0.93567(18)
C6 C 0.0829(3) 0.2565(2) 0.7832(2)
C7 C 0.5144(4) 0.0001(2) 0.9517(2)
O6 O 0.3400(3) 0.98878(16) 0.02214(18)
C3 C 0.4856(4) 0.9999(2) 0.0483(2)
Dy1 Dy 0.117659(15) 0.986887(10) 0.832324(10)
O1 O 0.2048(2) 0.78776(15) 0.84376(17)
O2 O 0.1053(3) 0.97935(19) 0.65680(18)
H1 H 0.036(4) 0.939(2) 0.604(2)
O7 O 0.0192(3) 0.88221(16) 0.93259(17)
C1 C 0.0965(3) 0.7128(2) 0.7931(2)
O23 O 0.3894(3) 0.98899(15) 0.85681(17)
O19 O 0.9808(3) 0.11779(16) 0.06741(17)
Dy2 Dy 0.882341(15) 0.486887(10) 0.667676(10)
O10 O 0.7952(2) 0.28776(15) 0.65624(17)
O11 O 0.8947(3) 0.47935(19) 0.84320(18)
H3 H 0.964(4) 0.439(2) 0.896(2)
H4 H 0.894(4) 0.5401(18) 0.875(2)
O14 O 0.8061(2) 0.68170(15) 0.67093(16)
O15 O 0.8831(2) 0.10625(16) 0.70338(18)
O18 O 0.6600(3) 0.48878(16) 0.47786(18)
O20 O 0.9808(3) 0.38221(16) 0.56741(17)
O22 O 0.9619(3) 0.61134(17) 0.56433(18)
O24 O 0.6106(3) 0.48899(15) 0.64319(17)
C5 C 0.9035(3) 0.2128(2) 0.7069(2)
O8 O 0.9619(3) 0.88866(17) 0.06433(18)
O3 O 0.8970(2) 0.86288(15) 0.70709(17)
C2 C 0.9171(3) 0.7565(2) 0.7168(2)
C4 C 0.9945(3) 0.9336(2) 0.9990(2)
O8_2 O 0.0381(3) 0.38866(17) 0.43567(18)
C4_2 C 0.0055(3) 0.4336(2) 0.5010(2)
Dy4 Dy 0.117659(15) 0.513113(10) 0.332324(10)
O19_2 O 0.0192(3) 0.61779(16) 0.43259(17)
O9_2 O 0.3894(3) 0.51101(15) 0.35681(17)
C3_2 C 0.5144(4) 0.4999(2) 0.4517(2)
O17_2 O 0.3400(3) 0.51122(16) 0.52214(18)
C7_2 C 0.4856(4) 0.5001(2) 0.5483(2)
C8_2 C 0.9945(3) 0.5664(2) 0.4990(2)
O3_2 O 0.1030(2) 0.13712(15) 0.29291(17)
O4 O 0.1939(2) 0.31830(15) 0.32907(16)
C2_2 C 0.0829(3) 0.2435(2) 0.2832(2)
O10_2 O 0.2048(2) 0.71224(15) 0.34376(17)
O11_2 O 0.1053(3) 0.52065(19) 0.15680(18)
H3_2 H 0.036(4) 0.561(2) 0.104(2)
H4_2 H 0.106(4) 0.4599(18) 0.125(2)
O15_2 O 0.1169(2) 0.89375(16) 0.29662(18)
C5_2 C 0.0965(3) 0.7872(2) 0.2931(2)
O1_2 O 0.7952(2) 0.21224(15) 0.15624(17)
O2_2 O 0.8947(3) 0.02065(19) 0.34320(18)
H1_2 H 0.964(4) 0.061(2) 0.396(2)
O5 O 0.8831(2) 0.39375(16) 0.20338(18)
C1_2 C 0.9035(3) 0.2872(2) 0.2069(2)
H2_2 H 0.894(4) 0.9599(18) 0.375(2)
O12_2 O 0.8970(2) 0.63712(15) 0.20709(17)
O13_2 O 0.8061(2) 0.81830(15) 0.17093(16)
C6_2 C 0.9171(3) 0.7435(2) 0.2168(2)
N1 N 0.4246(4) 0.8700(3) 0.6951(3)
H5 H 0.393(5) 0.902(3) 0.737(3)
H6 H 0.378(5) 0.905(3) 0.632(3)
C9 C 0.3567(6) 0.7532(4) 0.6667(4)
H7 H 0.2387 0.7569 0.6279
H8 H 0.3984 0.7090 0.7333
H9 H 0.3882 0.7173 0.6204
C10 C 0.6030(5) 0.8749(5) 0.7549(4)
H10 H 0.6384 0.9536 0.7721
H11 H 0.6396 0.8428 0.7099
H12 H 0.6490 0.8314 0.8223
N1_2 N 0.5754(4) 0.3700(3) 0.8049(3)
H5_2 H 0.607(5) 0.402(3) 0.763(3)
H6_2 H 0.622(5) 0.405(3) 0.868(3)
C9_2 C 0.6433(6) 0.2532(4) 0.8333(4)
H7_2 H 0.7613 0.2569 0.8721
H8_2 H 0.6016 0.2090 0.7667
H9_2 H 0.6118 0.2173 0.8796
C10_2 C 0.3970(5) 0.3749(5) 0.7451(4)
H10_2 H 0.3616 0.4536 0.7279
H11_2 H 0.3604 0.3428 0.7901
H12_2 H 0.3510 0.3314 0.6777
N1_3 N 0.5754(4) 0.1300(3) 0.3049(3)
H5_3 H 0.607(5) 0.098(3) 0.263(3)
H6_3 H 0.622(5) 0.095(3) 0.368(3)
C9_3 C 0.6433(6) 0.2468(4) 0.3333(4)
H7_3 H 0.7613 0.2431 0.3721
H8_3 H 0.6016 0.2910 0.2667
H9_3 H 0.6118 0.2827 0.3796
C10_3 C 0.3970(5) 0.1251(5) 0.2451(4)
H10_3 H 0.3616 0.0464 0.2279
H11_3 H 0.3604 0.1572 0.2901
H12_3 H 0.3510 0.1686 0.1777
N1_4 N 0.4246(4) 0.6300(3) 0.1951(3)
H5_4 H 0.393(5) 0.598(3) 0.237(3)
H6_4 H 0.378(5) 0.595(3) 0.132(3)
C9_4 C 0.3567(6) 0.7468(4) 0.1667(4)
H7_4 H 0.2387 0.7431 0.1279
H8_4 H 0.3984 0.7910 0.2333
H9_4 H 0.3882 0.7827 0.1204
C10_4 C 0.6030(5) 0.6251(5) 0.2549(4)
H10_4 H 0.6384 0.5464 0.2721
H11_4 H 0.6396 0.6572 0.2099
H12_4 H 0.6490 0.6686 0.3223
loop_
_geom_bond_atom_site_label_1
_geom_bond_atom_site_label_2
_geom_bond_site_symmetry_1
_geom_bond_site_symmetry_2
Dy5 O9 1_555 1_555
C6 O12 1_555 1_555
O13 C6 1_555 1_555
O17 C7 1_555 1_555
C3 O6 1_555 1_555
Dy1 O1 1_555 1_555
O1 C1 1_555 1_555
O2 Dy1 1_555 1_555
H1 O2 1_555 1_555
O16 C1 1_555 1_555
O7 Dy1 1_555 1_555
O23 Dy1 1_555 1_555
O19 Dy5 1_555 1_555
Dy2 O10 1_555 1_555
O10 C5 1_555 1_555
O11 Dy2 1_555 1_555
H3 O11 1_555 1_555
H4 O11 1_555 1_555
O14 Dy2 1_555 1_555
O18 Dy2 1_555 1_555
O20 Dy2 1_555 1_555
O22 Dy2 1_555 1_555
O24 Dy2 1_555 1_555
C5 O15 1_555 1_555
O14 C2 1_555 1_555
C2 O3 1_555 1_555
O8_2 C4_2 1_555 1_555
Dy4 O8_2 1_555 1_555
O19_2 Dy4 1_555 1_555
O9_2 C3_2 1_555 1_555
C3_2 O18 1_555 1_555
Dy4 O9_2 1_555 1_555
O17_2 Dy4 1_555 1_555
C7_2 C3_2 1_555 1_555
O17_2 C7_2 1_555 1_555
O22 C8_2 1_555 1_555
O24 C7_2 1_555 1_555
O4 C2_2 1_555 1_555
C2_2 O3_2 1_555 1_555
Dy4 O4 1_555 1_555
Dy4 O10_2 1_555 1_555
O10_2 C5_2 1_555 1_555
O11_2 Dy4 1_555 1_555
H3_2 O11_2 1_555 1_555
H4_2 O11_2 1_555 1_555
C5_2 O15_2 1_555 1_555
Dy5 O1_2 1_555 1_555
O1_2 C1_2 1_555 1_555
O2_2 Dy5 1_555 1_555
H1_2 O2_2 1_555 1_555
O5 C1_2 1_555 1_555
C6_2 O12_2 1_555 1_555
O13_2 C6_2 1_555 1_555
N1 H5 1_555 1_555
H6 N1 1_555 1_555
C9 N1 1_555 1_555
H7 C9 1_555 1_555
H8 C9 1_555 1_555
H9 C9 1_555 1_555
C10 N1 1_555 1_555
H10 C10 1_555 1_555
H11 C10 1_555 1_555
H12 C10 1_555 1_555
N1_2 H5_2 1_555 1_555
H6_2 N1_2 1_555 1_555
C9_2 N1_2 1_555 1_555
H7_2 C9_2 1_555 1_555
H8_2 C9_2 1_555 1_555
H9_2 C9_2 1_555 1_555
C10_2 N1_2 1_555 1_555
H10_2 C10_2 1_555 1_555
H11_2 C10_2 1_555 1_555
H12_2 C10_2 1_555 1_555
N1_3 H5_3 1_555 1_555
H6_3 N1_3 1_555 1_555
C9_3 N1_3 1_555 1_555
H7_3 C9_3 1_555 1_555
H8_3 C9_3 1_555 1_555
H9_3 C9_3 1_555 1_555
C10_3 N1_3 1_555 1_555
H10_3 C10_3 1_555 1_555
H11_3 C10_3 1_555 1_555
H12_3 C10_3 1_555 1_555
N1_4 H5_4 1_555 1_555
H6_4 N1_4 1_555 1_555
C9_4 N1_4 1_555 1_555
H7_4 C9_4 1_555 1_555
H8_4 C9_4 1_555 1_555
H9_4 C9_4 1_555 1_555
C10_4 N1_4 1_555 1_555
H10_4 C10_4 1_555 1_555
H11_4 C10_4 1_555 1_555
H12_4 C10_4 1_555 1_555

#END
