
###############################################################################
#
# This file contains modified crystal structure data generated from the
# MOF subset of the Cambridge Structural Database (CSD) v543 
# hosted by the Cambridge Crystallographic Data Centre (CCDC).
#
# This work is licensed under the Creative Commons
# Attribution-NonCommercial-ShareAlike 4.0 International License.
# To view a copy of this license, visit
# http://creativecommons.org/licenses/by-nc-sa/4.0/
# or send a letter to
# Creative Commons, PO Box 1866, Mountain View, CA 94042, USA.
#
# CIF created using the CSD Python API on 29 September 2022
# The structure has been converted into the P1 space group
# The structure has a 3D framework
# The original CSD entry DUQYEU01 is in the monoclinic crystal system
# The framework has been calculated to contain at least 10.0% void space
# The void calculation uses a probe of radius 1.32A, grid spacing 0.4
# The framework is charged, counterions have been retained in the structure
#
###############################################################################

data_DUQYEU01
_chemical_formula_moiety         '(C24 H40 Dy4 N4 O36)n'
_symmetry_cell_setting           triclinic
_symmetry_space_group_name_H-M   'P 1'
_symmetry_Int_Tables_number      1
_space_group_name_Hall           'P 1'
loop_
_symmetry_equiv_pos_site_id
_symmetry_equiv_pos_as_xyz
1 x,y,z
_cell_length_a                   9.6191(3)
_cell_length_b                   11.6023(5)
_cell_length_c                   14.3044(4)
_cell_angle_alpha                90
_cell_angle_beta                 122.456(2)
_cell_angle_gamma                90
_cell_volume                     1347.07
loop_
_atom_site_label
_atom_site_type_symbol
_atom_site_fract_x
_atom_site_fract_y
_atom_site_fract_z
Dy3 Dy 0.61766(2) 0.01298(2) 0.832400(17)
Dy1 Dy 0.38234(2) 0.51298(2) 0.667600(17)
O1 O 0.6032(4) 0.6370(3) 0.7932(3)
O2 O 0.3840(4) 0.8937(3) 0.7035(3)
O3 O 0.2952(4) 0.7117(3) 0.6566(3)
O4 O 0.4800(4) 0.6177(3) 0.5670(3)
O5 O 0.6933(3) 0.8180(3) 0.8286(2)
O6 O 0.3953(5) 0.5199(3) 0.8430(3)
H1 H 0.4312 0.5807 0.8902
H2 H 0.3653 0.4621 0.8715
O7 O 0.5383(4) 0.6113(3) 0.4361(3)
O8 O 0.1111(4) 0.5105(3) 0.6435(3)
C1 C 0.5834(5) 0.7429(4) 0.7834(4)
C2 C 0.5056(4) 0.5658(4) 0.5009(3)
C3 C 0.4034(5) 0.7868(4) 0.7069(4)
O10 O 0.5200(4) 0.3823(3) 0.4330(3)
O11 O 0.4617(4) 0.3887(3) 0.5639(3)
C5 C 0.4944(4) 0.4342(4) 0.4991(3)
O13 O 0.1608(4) 0.5114(3) 0.4783(3)
C6 C 0.0155(6) 0.5002(4) 0.4528(4)
Dy4 Dy 0.61766(2) 0.48702(2) 0.332400(17)
O19 O 0.6160(4) 0.3937(3) 0.7965(3)
O22 O 0.3067(3) 0.3180(3) 0.6714(2)
O9 O 0.8392(4) 0.4886(3) 0.5217(3)
C4 C 0.9845(6) 0.4998(4) 0.5472(4)
O12 O 0.8889(4) 0.4895(3) 0.3565(3)
O14 O 0.3968(4) 0.3630(3) 0.2068(3)
O15 O 0.6160(4) 0.1063(3) 0.2965(3)
O16 O 0.7048(4) 0.2883(3) 0.3434(3)
O17 O 0.3067(3) 0.1820(3) 0.1714(2)
O18 O 0.6047(5) 0.4801(3) 0.1570(3)
H3 H 0.5688 0.4193 0.1098
H4 H 0.6347 0.5379 0.1285
C7 C 0.4166(5) 0.2571(4) 0.2166(4)
C8 C 0.5966(5) 0.2132(4) 0.2931(4)
O20 O 0.3840(4) 0.6063(3) 0.2035(3)
O23 O 0.6933(3) 0.6820(3) 0.3286(2)
Dy5 Dy 0.38234(2) 0.98702(2) 0.167600(17)
H4_2 H 0.3653 0.0379 0.3715
O24 O 0.4617(4) 0.1113(3) 0.0639(3)
O12_2 O 0.1111(4) 0.9895(3) 0.1435(3)
O14_2 O 0.6032(4) 0.8630(3) 0.2932(3)
O16_2 O 0.2952(4) 0.7883(3) 0.1566(3)
O18_2 O 0.3953(5) 0.9801(3) 0.3430(3)
H3_2 H 0.4312 0.9193 0.3902
C7_2 C 0.5834(5) 0.7571(4) 0.2834(4)
C8_2 C 0.4034(5) 0.7132(4) 0.2069(4)
O21 O 0.4800(4) 0.8823(3) 0.0670(3)
O9_2 O 0.1608(4) 0.9886(3) 0.9783(3)
C4_2 C 0.0155(6) 0.9998(4) 0.9528(4)
O13_2 O 0.8392(4) 0.0114(3) 0.0217(3)
C6_2 C 0.9845(6) 0.0002(4) 0.0472(4)
O1_2 O 0.3968(4) 0.1370(3) 0.7068(3)
O3_2 O 0.7048(4) 0.2117(3) 0.8434(3)
O4_2 O 0.5200(4) 0.1177(3) 0.9330(3)
O6_2 O 0.6047(5) 0.0199(3) 0.6570(3)
H1_2 H 0.5688 0.0807 0.6098
O8_2 O 0.8889(4) 0.0105(3) 0.8565(3)
C1_2 C 0.4166(5) 0.2429(4) 0.7166(4)
C2_2 C 0.4944(4) 0.0658(4) 0.9991(3)
C3_2 C 0.5966(5) 0.2868(4) 0.7931(4)
C5_2 C 0.5056(4) 0.9342(4) 0.0009(3)
H2_2 H 0.6347 0.9621 0.6285
O11_2 O 0.5383(4) 0.8887(3) 0.9361(3)
N1 N 0.0754(5) 0.6305(5) 0.8052(4)
H5 H 0.1092 0.5963 0.7643
H6 H 0.1164 0.5897 0.8682
C10 C 0.1452(10) 0.7475(8) 0.8338(6)
H10 H 0.1040 0.7917 0.7672
H11 H 0.2631 0.7432 0.8727
H12 H 0.1139 0.7840 0.8801
C9 C 0.8959(7) 0.6253(8) 0.7444(6)
H7 H 0.8505 0.6635 0.6743
H8 H 0.8580 0.6627 0.7866
H9 H 0.8611 0.5462 0.7322
C9_2 C 0.1041(7) 0.1253(8) 0.7556(6)
H7_2 H 0.1495 0.1635 0.8257
H8_2 H 0.1420 0.1627 0.7134
H9_2 H 0.1389 0.0462 0.7678
N1_2 N 0.9246(5) 0.1305(5) 0.6948(4)
H5_2 H 0.8908 0.0963 0.7357
H6_2 H 0.8836 0.0897 0.6318
C10_2 C 0.8548(10) 0.2475(8) 0.6662(6)
H10_2 H 0.8960 0.2917 0.7328
H11_2 H 0.7369 0.2432 0.6273
H12_2 H 0.8861 0.2840 0.6199
C9_3 C 0.1041(7) 0.3747(8) 0.2556(6)
H7_3 H 0.1495 0.3365 0.3257
H8_3 H 0.1420 0.3373 0.2134
H9_3 H 0.1389 0.4538 0.2678
N1_3 N 0.9246(5) 0.3695(5) 0.1948(4)
H5_3 H 0.8908 0.4037 0.2357
H6_3 H 0.8836 0.4103 0.1318
C10_3 C 0.8548(10) 0.2525(8) 0.1662(6)
H10_3 H 0.8960 0.2083 0.2328
H11_3 H 0.7369 0.2568 0.1273
H12_3 H 0.8861 0.2160 0.1199
N1_4 N 0.0754(5) 0.8695(5) 0.3052(4)
H5_4 H 0.1092 0.9037 0.2643
H6_4 H 0.1164 0.9103 0.3682
C10_4 C 0.1452(10) 0.7525(8) 0.3338(6)
H10_4 H 0.1040 0.7083 0.2672
H11_4 H 0.2631 0.7568 0.3727
H12_4 H 0.1139 0.7160 0.3801
C9_4 C 0.8959(7) 0.8747(8) 0.2444(6)
H7_4 H 0.8505 0.8365 0.1743
H8_4 H 0.8580 0.8373 0.2866
H9_4 H 0.8611 0.9538 0.2322
loop_
_geom_bond_atom_site_label_1
_geom_bond_atom_site_label_2
_geom_bond_site_symmetry_1
_geom_bond_site_symmetry_2
Dy1 O1 1_555 1_555
O1 C1 1_555 1_555
O2 C3 1_555 1_555
O3 Dy1 1_555 1_555
O4 Dy1 1_555 1_555
O5 C1 1_555 1_555
O6 Dy1 1_555 1_555
H1 O6 1_555 1_555
H2 O6 1_555 1_555
O7 C2 1_555 1_555
O8 Dy1 1_555 1_555
C1 C3 1_555 1_555
C2 O4 1_555 1_555
C3 O3 1_555 1_555
O10 C5 1_555 1_555
O11 Dy1 1_555 1_555
C5 C2 1_555 1_555
O13 Dy1 1_555 1_555
Dy4 O7 1_555 1_555
O19 Dy1 1_555 1_555
O22 Dy1 1_555 1_555
O10 Dy4 1_555 1_555
O11 C5 1_555 1_555
O13 C6 1_555 1_555
O9 C4 1_555 1_555
Dy4 O9 1_555 1_555
O14 Dy4 1_555 1_555
O15 C8 1_555 1_555
O16 Dy4 1_555 1_555
O17 C7 1_555 1_555
O18 Dy4 1_555 1_555
H3 O18 1_555 1_555
H4 O18 1_555 1_555
C7 O14 1_555 1_555
C8 O16 1_555 1_555
O20 Dy4 1_555 1_555
O23 Dy4 1_555 1_555
O12 Dy4 1_555 1_555
C7 C8 1_555 1_555
O14_2 Dy5 1_555 1_555
O20 C8_2 1_555 1_555
O16_2 Dy5 1_555 1_555
O23 C7_2 1_555 1_555
O18_2 Dy5 1_555 1_555
H3_2 O18_2 1_555 1_555
C7_2 O14_2 1_555 1_555
C8_2 O16_2 1_555 1_555
O21 Dy5 1_555 1_555
O12_2 Dy5 1_555 1_555
C7_2 C8_2 1_555 1_555
O9_2 C4_2 1_555 1_555
O13_2 C6_2 1_555 1_555
Dy3 O1_2 1_555 1_555
O1_2 C1_2 1_555 1_555
O19 C3_2 1_555 1_555
O3_2 Dy3 1_555 1_555
O4_2 Dy3 1_555 1_555
O22 C1_2 1_555 1_555
O6_2 Dy3 1_555 1_555
H1_2 O6_2 1_555 1_555
O8_2 Dy3 1_555 1_555
C1_2 C3_2 1_555 1_555
C2_2 O4_2 1_555 1_555
C3_2 O3_2 1_555 1_555
O21 C5_2 1_555 1_555
N1 H5 1_555 1_555
H6 N1 1_555 1_555
C10 N1 1_555 1_555
H10 C10 1_555 1_555
H11 C10 1_555 1_555
H12 C10 1_555 1_555
H7 C9 1_555 1_555
H8 C9 1_555 1_555
H9 C9 1_555 1_555
H7_2 C9_2 1_555 1_555
H8_2 C9_2 1_555 1_555
H9_2 C9_2 1_555 1_555
N1_2 H5_2 1_555 1_555
H6_2 N1_2 1_555 1_555
C10_2 N1_2 1_555 1_555
H10_2 C10_2 1_555 1_555
H11_2 C10_2 1_555 1_555
H12_2 C10_2 1_555 1_555
H7_3 C9_3 1_555 1_555
H8_3 C9_3 1_555 1_555
H9_3 C9_3 1_555 1_555
N1_3 H5_3 1_555 1_555
H6_3 N1_3 1_555 1_555
C10_3 N1_3 1_555 1_555
H10_3 C10_3 1_555 1_555
H11_3 C10_3 1_555 1_555
H12_3 C10_3 1_555 1_555
N1_4 H5_4 1_555 1_555
H6_4 N1_4 1_555 1_555
C10_4 N1_4 1_555 1_555
H10_4 C10_4 1_555 1_555
H11_4 C10_4 1_555 1_555
H12_4 C10_4 1_555 1_555
H7_4 C9_4 1_555 1_555
H8_4 C9_4 1_555 1_555
H9_4 C9_4 1_555 1_555

#END
