
###############################################################################
#
# This file contains modified crystal structure data generated from the
# MOF subset of the Cambridge Structural Database (CSD) v543 
# hosted by the Cambridge Crystallographic Data Centre (CCDC).
#
# This work is licensed under the Creative Commons
# Attribution-NonCommercial-ShareAlike 4.0 International License.
# To view a copy of this license, visit
# http://creativecommons.org/licenses/by-nc-sa/4.0/
# or send a letter to
# Creative Commons, PO Box 1866, Mountain View, CA 94042, USA.
#
# CIF created using the CSD Python API on 29 September 2022
# The structure has been converted into the P1 space group
# The structure has a 3D framework
# The original CSD entry DURCOL is in the cubic crystal system
# The framework has been calculated to contain at least 10.0% void space
# The void calculation uses a probe of radius 1.32A, grid spacing 0.4
# H atom positions have been added when not included in the experimental data
# Generated hydrogen atom positions removed from atoms on special positions
#
###############################################################################

data_DURCOL
_chemical_formula_moiety         '(C504 H912 O214 Th54)n'
_symmetry_cell_setting           triclinic
_symmetry_space_group_name_H-M   'P 1'
_symmetry_Int_Tables_number      1
_space_group_name_Hall           'P 1'
loop_
_symmetry_equiv_pos_site_id
_symmetry_equiv_pos_as_xyz
1 x,y,z
_cell_length_a                   27.9387(4)
_cell_length_b                   27.9387(4)
_cell_length_c                   27.9387(4)
_cell_angle_alpha                90
_cell_angle_beta                 90
_cell_angle_gamma                90
_cell_volume                     21808.1
loop_
_atom_site_label
_atom_site_type_symbol
_atom_site_fract_x
_atom_site_fract_y
_atom_site_fract_z
Th10 Th -0.0000 0.89927(2) 0.5000
Th8 Th 0.5000 -0.0000 0.89927(2)
Th11 Th 0.10073(2) 0.0000 0.5000
Th12 Th 0.89927(2) 0.0000 0.5000
Th7 Th 0.5000 0.89927(2) 0.0000
Th1 Th 0.5000 0.60073(2) 0.5000
O1 O 0.57965(10) 0.63686(9) 0.5000
C1 C 0.62275(12) 0.62275(12) 0.5000
C2 C 0.66062(12) 0.66062(12) 0.5000
O2 O 0.45195(14) 0.54805(14) 0.54805(14)
C3 C 0.73110(14) 0.73110(14) 0.5000
C4 C 0.70678(19) 0.64910(18) 0.5000
H1 H 0.7154 0.6162 0.5000
C5 C 0.7431(2) 0.6834(2) 0.5000
H2 H 0.7757 0.6739 0.5000
O3 O 0.5000 0.6959(2) 0.5000
O4 O 0.63686(9) 0.57965(10) 0.5000
C6 C 0.64910(18) 0.70678(19) 0.5000
H3 H 0.6162 0.7154 0.5000
C7 C 0.6834(2) 0.7431(2) 0.5000
H4 H 0.6739 0.7757 0.5000
O5 O 0.92035(10) 0.86314(9) 0.5000
C8 C 0.87725(12) 0.87725(12) 0.5000
C9 C 0.83938(12) 0.83938(12) 0.5000
C10 C 0.76890(14) 0.76890(14) 0.5000
C11 C 0.79322(19) 0.85090(18) 0.5000
H5 H 0.7846 0.8838 0.5000
C12 C 0.7569(2) 0.8166(2) 0.5000
H6 H 0.7243 0.8261 0.5000
O6 O 0.86314(9) 0.92035(10) 0.5000
C13 C 0.85090(18) 0.79322(19) 0.5000
H7 H 0.8838 0.7846 0.5000
C14 C 0.8166(2) 0.7569(2) 0.5000
H8 H 0.8261 0.7243 0.5000
O7 O 0.42035(10) 0.63686(9) 0.5000
C15 C 0.37725(12) 0.62275(12) 0.5000
C16 C 0.33938(12) 0.66062(12) 0.5000
O8 O 0.54805(14) 0.54805(14) 0.45195(14)
C17 C 0.26890(14) 0.73110(14) 0.5000
C18 C 0.29322(19) 0.64910(18) 0.5000
H9 H 0.2846 0.6162 0.5000
C19 C 0.2569(2) 0.6834(2) 0.5000
H10 H 0.2243 0.6739 0.5000
O9 O 0.36314(9) 0.57965(10) 0.5000
C20 C 0.35090(18) 0.70678(19) 0.5000
H11 H 0.3838 0.7154 0.5000
C21 C 0.3166(2) 0.7431(2) 0.5000
H12 H 0.3261 0.7757 0.5000
O10 O 0.07965(10) 0.86314(9) 0.5000
C22 C 0.12275(12) 0.87725(12) 0.5000
C23 C 0.16062(12) 0.83938(12) 0.5000
C24 C 0.23110(14) 0.76890(14) 0.5000
C25 C 0.20678(19) 0.85090(18) 0.5000
H13 H 0.2154 0.8838 0.5000
C26 C 0.2431(2) 0.8166(2) 0.5000
H14 H 0.2757 0.8261 0.5000
O11 O 0.13686(9) 0.92035(10) 0.5000
C27 C 0.14910(18) 0.79322(19) 0.5000
H15 H 0.1162 0.7846 0.5000
C28 C 0.1834(2) 0.7569(2) 0.5000
H16 H 0.1739 0.7243 0.5000
Th2 Th 0.5000 0.5000 0.60073(2)
O12 O 0.5000 0.57965(10) 0.63686(9)
C29 C 0.5000 0.62275(12) 0.62275(12)
C30 C 0.5000 0.66062(12) 0.66062(12)
O13 O 0.54805(14) 0.45195(14) 0.54805(14)
C31 C 0.5000 0.73110(14) 0.73110(14)
C32 C 0.5000 0.70678(19) 0.64910(18)
H17 H 0.5000 0.7154 0.6162
C33 C 0.5000 0.7431(2) 0.6834(2)
H18 H 0.5000 0.7757 0.6739
O14 O 0.5000 0.5000 0.6959(2)
O15 O 0.5000 0.63686(9) 0.57965(10)
C34 C 0.5000 0.64910(18) 0.70678(19)
H19 H 0.5000 0.6162 0.7154
C35 C 0.5000 0.6834(2) 0.7431(2)
H20 H 0.5000 0.6739 0.7757
O16 O 0.5000 0.92035(10) 0.86314(9)
C36 C 0.5000 0.87725(12) 0.87725(12)
C37 C 0.5000 0.83938(12) 0.83938(12)
C38 C 0.5000 0.76890(14) 0.76890(14)
C39 C 0.5000 0.79322(19) 0.85090(18)
H21 H 0.5000 0.7846 0.8838
C40 C 0.5000 0.7569(2) 0.8166(2)
H22 H 0.5000 0.7243 0.8261
O17 O 0.5000 0.86314(9) 0.92035(10)
C41 C 0.5000 0.85090(18) 0.79322(19)
H23 H 0.5000 0.8838 0.7846
C42 C 0.5000 0.8166(2) 0.7569(2)
H24 H 0.5000 0.8261 0.7243
Th3 Th 0.5000 0.5000 0.39927(2)
O18 O 0.5000 0.5000 0.3041(2)
O19 O 0.45195(14) 0.45195(14) 0.45195(14)
Th4 Th 0.5000 0.39927(2) 0.5000
Th5 Th 0.60073(2) 0.5000 0.5000
Th6 Th 0.39927(2) 0.5000 0.5000
Th7_2 Th 0.5000 0.89927(2) 1.0000
Th8_2 Th 0.5000 1.0000 0.89927(2)
Th10_2 Th 1.0000 0.89927(2) 0.5000
Th11_2 Th 0.10073(2) 1.0000 0.5000
Th12_2 Th 0.89927(2) 1.0000 0.5000
O20 O 0.5000 0.42035(10) 0.36314(9)
O21 O 0.5000 0.42035(10) 0.63686(9)
O22 O 0.5000 0.57965(10) 0.36314(9)
O23 O 0.57965(10) 0.5000 0.36314(9)
O24 O 0.42035(10) 0.5000 0.63686(9)
O25 O 0.42035(10) 0.5000 0.36314(9)
O26 O 0.57965(10) 0.5000 0.63686(9)
O27 O 0.5000 0.63686(9) 0.42035(10)
O28 O 0.54805(14) 0.45195(14) 0.45195(14)
O29 O 0.45195(14) 0.54805(14) 0.45195(14)
O30 O 0.54805(14) 0.54805(14) 0.54805(14)
O31 O 0.45195(14) 0.45195(14) 0.54805(14)
Th9 Th 0.0000 0.10073(2) 0.5000
Th7_3 Th 0.5000 0.10073(2) 0.0000
O1_2 O 0.42035(10) 0.36314(9) 0.5000
C1_2 C 0.37725(12) 0.37725(12) 0.5000
C2_2 C 0.33938(12) 0.33938(12) 0.5000
C3_2 C 0.26890(14) 0.26890(14) 0.5000
C4_2 C 0.29322(19) 0.35090(18) 0.5000
H1_2 H 0.2846 0.3838 0.5000
C5_2 C 0.2569(2) 0.3166(2) 0.5000
H2_2 H 0.2243 0.3261 0.5000
O3_2 O 0.5000 0.3041(2) 0.5000
O4_2 O 0.36314(9) 0.42035(10) 0.5000
C6_2 C 0.35090(18) 0.29322(19) 0.5000
H3_2 H 0.3838 0.2846 0.5000
C7_2 C 0.3166(2) 0.2569(2) 0.5000
H4_2 H 0.3261 0.2243 0.5000
O5_2 O 0.07965(10) 0.13686(9) 0.5000
C8_2 C 0.12275(12) 0.12275(12) 0.5000
C9_2 C 0.16062(12) 0.16062(12) 0.5000
C10_2 C 0.23110(14) 0.23110(14) 0.5000
C11_2 C 0.20678(19) 0.14910(18) 0.5000
H5_2 H 0.2154 0.1162 0.5000
C12_2 C 0.2431(2) 0.1834(2) 0.5000
H6_2 H 0.2757 0.1739 0.5000
O6_2 O 0.13686(9) 0.07965(10) 0.5000
C13_2 C 0.14910(18) 0.20678(19) 0.5000
H7_2 H 0.1162 0.2154 0.5000
C14_2 C 0.1834(2) 0.2431(2) 0.5000
H8_2 H 0.1739 0.2757 0.5000
O7_2 O 0.57965(10) 0.36314(9) 0.5000
C15_2 C 0.62275(12) 0.37725(12) 0.5000
C16_2 C 0.66062(12) 0.33938(12) 0.5000
C17_2 C 0.73110(14) 0.26890(14) 0.5000
C18_2 C 0.70678(19) 0.35090(18) 0.5000
H9_2 H 0.7154 0.3838 0.5000
C19_2 C 0.7431(2) 0.3166(2) 0.5000
H10_2 H 0.7757 0.3261 0.5000
O9_2 O 0.63686(9) 0.42035(10) 0.5000
C20_2 C 0.64910(18) 0.29322(19) 0.5000
H11_2 H 0.6162 0.2846 0.5000
C21_2 C 0.6834(2) 0.2569(2) 0.5000
H12_2 H 0.6739 0.2243 0.5000
O10_2 O 0.92035(10) 0.13686(9) 0.5000
C22_2 C 0.87725(12) 0.12275(12) 0.5000
C23_2 C 0.83938(12) 0.16062(12) 0.5000
C24_2 C 0.76890(14) 0.23110(14) 0.5000
C25_2 C 0.79322(19) 0.14910(18) 0.5000
H13_2 H 0.7846 0.1162 0.5000
C26_2 C 0.7569(2) 0.1834(2) 0.5000
H14_2 H 0.7243 0.1739 0.5000
O11_2 O 0.86314(9) 0.07965(10) 0.5000
C27_2 C 0.85090(18) 0.20678(19) 0.5000
H15_2 H 0.8838 0.2154 0.5000
C28_2 C 0.8166(2) 0.2431(2) 0.5000
H16_2 H 0.8261 0.2757 0.5000
C29_2 C 0.5000 0.37725(12) 0.62275(12)
C30_2 C 0.5000 0.33938(12) 0.66062(12)
C31_2 C 0.5000 0.26890(14) 0.73110(14)
C32_2 C 0.5000 0.29322(19) 0.64910(18)
H17_2 H 0.5000 0.2846 0.6162
C33_2 C 0.5000 0.2569(2) 0.6834(2)
H18_2 H 0.5000 0.2243 0.6739
O15_2 O 0.5000 0.36314(9) 0.57965(10)
C34_2 C 0.5000 0.35090(18) 0.70678(19)
H19_2 H 0.5000 0.3838 0.7154
C35_2 C 0.5000 0.3166(2) 0.7431(2)
H20_2 H 0.5000 0.3261 0.7757
O16_2 O 0.5000 0.07965(10) 0.86314(9)
C36_2 C 0.5000 0.12275(12) 0.87725(12)
C37_2 C 0.5000 0.16062(12) 0.83938(12)
C38_2 C 0.5000 0.23110(14) 0.76890(14)
C39_2 C 0.5000 0.20678(19) 0.85090(18)
H21_2 H 0.5000 0.2154 0.8838
C40_2 C 0.5000 0.2431(2) 0.8166(2)
H22_2 H 0.5000 0.2757 0.8261
O17_2 O 0.5000 0.13686(9) 0.92035(10)
C41_2 C 0.5000 0.14910(18) 0.79322(19)
H23_2 H 0.5000 0.1162 0.7846
C42_2 C 0.5000 0.1834(2) 0.7569(2)
H24_2 H 0.5000 0.1739 0.7243
Th7_4 Th 0.5000 0.10073(2) 1.0000
Th9_2 Th 1.0000 0.10073(2) 0.5000
O27_2 O 0.5000 0.36314(9) 0.42035(10)
Th8_3 Th 0.5000 0.0000 0.10073(2)
C29_3 C 0.5000 0.62275(12) 0.37725(12)
C30_3 C 0.5000 0.66062(12) 0.33938(12)
C31_3 C 0.5000 0.73110(14) 0.26890(14)
C32_3 C 0.5000 0.70678(19) 0.35090(18)
H17_3 H 0.5000 0.7154 0.3838
C33_3 C 0.5000 0.7431(2) 0.3166(2)
H18_3 H 0.5000 0.7757 0.3261
C34_3 C 0.5000 0.64910(18) 0.29322(19)
H19_3 H 0.5000 0.6162 0.2846
C35_3 C 0.5000 0.6834(2) 0.2569(2)
H20_3 H 0.5000 0.6739 0.2243
O16_3 O 0.5000 0.92035(10) 0.13686(9)
C36_3 C 0.5000 0.87725(12) 0.12275(12)
C37_3 C 0.5000 0.83938(12) 0.16062(12)
C38_3 C 0.5000 0.76890(14) 0.23110(14)
C39_3 C 0.5000 0.79322(19) 0.14910(18)
H21_3 H 0.5000 0.7846 0.1162
C40_3 C 0.5000 0.7569(2) 0.1834(2)
H22_3 H 0.5000 0.7243 0.1739
O17_3 O 0.5000 0.86314(9) 0.07965(10)
C41_3 C 0.5000 0.85090(18) 0.20678(19)
H23_3 H 0.5000 0.8838 0.2154
C42_3 C 0.5000 0.8166(2) 0.2431(2)
H24_3 H 0.5000 0.8261 0.2757
Th8_4 Th 0.5000 1.0000 0.10073(2)
C29_4 C 0.5000 0.37725(12) 0.37725(12)
C30_4 C 0.5000 0.33938(12) 0.33938(12)
C31_4 C 0.5000 0.26890(14) 0.26890(14)
C32_4 C 0.5000 0.29322(19) 0.35090(18)
H17_4 H 0.5000 0.2846 0.3838
C33_4 C 0.5000 0.2569(2) 0.3166(2)
H18_4 H 0.5000 0.2243 0.3261
C34_4 C 0.5000 0.35090(18) 0.29322(19)
H19_4 H 0.5000 0.3838 0.2846
C35_4 C 0.5000 0.3166(2) 0.2569(2)
H20_4 H 0.5000 0.3261 0.2243
O16_4 O 0.5000 0.07965(10) 0.13686(9)
C36_4 C 0.5000 0.12275(12) 0.12275(12)
C37_4 C 0.5000 0.16062(12) 0.16062(12)
C38_4 C 0.5000 0.23110(14) 0.23110(14)
C39_4 C 0.5000 0.20678(19) 0.14910(18)
H21_4 H 0.5000 0.2154 0.1162
C40_4 C 0.5000 0.2431(2) 0.1834(2)
H22_4 H 0.5000 0.2757 0.1739
O17_4 O 0.5000 0.13686(9) 0.07965(10)
C41_4 C 0.5000 0.14910(18) 0.20678(19)
H23_4 H 0.5000 0.1162 0.2154
C42_4 C 0.5000 0.1834(2) 0.2431(2)
H24_4 H 0.5000 0.1739 0.2757
Th7_5 Th -0.0000 0.5000 0.89927(2)
Th8_5 Th 0.89927(2) 0.5000 0.0000
O12_2 O 0.63686(9) 0.5000 0.57965(10)
C29_5 C 0.62275(12) 0.5000 0.62275(12)
C30_5 C 0.66062(12) 0.5000 0.66062(12)
C31_5 C 0.73110(14) 0.5000 0.73110(14)
C32_5 C 0.64910(18) 0.5000 0.70678(19)
H17_5 H 0.6162 0.5000 0.7154
C33_5 C 0.6834(2) 0.5000 0.7431(2)
H18_5 H 0.6739 0.5000 0.7757
O14_2 O 0.6959(2) 0.5000 0.5000
C34_5 C 0.70678(19) 0.5000 0.64910(18)
H19_5 H 0.7154 0.5000 0.6162
C35_5 C 0.7431(2) 0.5000 0.6834(2)
H20_5 H 0.7757 0.5000 0.6739
O16_5 O 0.86314(9) 0.5000 0.92035(10)
C36_5 C 0.87725(12) 0.5000 0.87725(12)
C37_5 C 0.83938(12) 0.5000 0.83938(12)
C38_5 C 0.76890(14) 0.5000 0.76890(14)
C39_5 C 0.85090(18) 0.5000 0.79322(19)
H21_5 H 0.8838 0.5000 0.7846
C40_5 C 0.8166(2) 0.5000 0.7569(2)
H22_5 H 0.8261 0.5000 0.7243
O17_5 O 0.92035(10) 0.5000 0.86314(9)
C41_5 C 0.79322(19) 0.5000 0.85090(18)
H23_5 H 0.7846 0.5000 0.8838
C42_5 C 0.7569(2) 0.5000 0.8166(2)
H24_5 H 0.7243 0.5000 0.8261
O18_2 O 0.3041(2) 0.5000 0.5000
Th7_6 Th 1.0000 0.5000 0.89927(2)
Th8_6 Th 0.89927(2) 0.5000 1.0000
O20_2 O 0.36314(9) 0.5000 0.42035(10)
O21_2 O 0.63686(9) 0.5000 0.42035(10)
O22_2 O 0.36314(9) 0.5000 0.57965(10)
Th7_7 Th 0.0000 0.5000 0.10073(2)
C29_6 C 0.62275(12) 0.5000 0.37725(12)
C30_6 C 0.66062(12) 0.5000 0.33938(12)
C31_6 C 0.73110(14) 0.5000 0.26890(14)
C32_6 C 0.64910(18) 0.5000 0.29322(19)
H17_6 H 0.6162 0.5000 0.2846
C33_6 C 0.6834(2) 0.5000 0.2569(2)
H18_6 H 0.6739 0.5000 0.2243
C34_6 C 0.70678(19) 0.5000 0.35090(18)
H19_6 H 0.7154 0.5000 0.3838
C35_6 C 0.7431(2) 0.5000 0.3166(2)
H20_6 H 0.7757 0.5000 0.3261
O16_6 O 0.86314(9) 0.5000 0.07965(10)
C36_6 C 0.87725(12) 0.5000 0.12275(12)
C37_6 C 0.83938(12) 0.5000 0.16062(12)
C38_6 C 0.76890(14) 0.5000 0.23110(14)
C39_6 C 0.85090(18) 0.5000 0.20678(19)
H21_6 H 0.8838 0.5000 0.2154
C40_6 C 0.8166(2) 0.5000 0.2431(2)
H22_6 H 0.8261 0.5000 0.2757
O17_6 O 0.92035(10) 0.5000 0.13686(9)
C41_6 C 0.79322(19) 0.5000 0.14910(18)
H23_6 H 0.7846 0.5000 0.1162
C42_6 C 0.7569(2) 0.5000 0.1834(2)
H24_6 H 0.7243 0.5000 0.1739
Th7_8 Th 1.0000 0.5000 0.10073(2)
Th8_7 Th 0.10073(2) 0.5000 0.0000
C29_7 C 0.37725(12) 0.5000 0.62275(12)
C30_7 C 0.33938(12) 0.5000 0.66062(12)
C31_7 C 0.26890(14) 0.5000 0.73110(14)
C32_7 C 0.35090(18) 0.5000 0.70678(19)
H17_7 H 0.3838 0.5000 0.7154
C33_7 C 0.3166(2) 0.5000 0.7431(2)
H18_7 H 0.3261 0.5000 0.7757
C34_7 C 0.29322(19) 0.5000 0.64910(18)
H19_7 H 0.2846 0.5000 0.6162
C35_7 C 0.2569(2) 0.5000 0.6834(2)
H20_7 H 0.2243 0.5000 0.6739
O16_7 O 0.13686(9) 0.5000 0.92035(10)
C36_7 C 0.12275(12) 0.5000 0.87725(12)
C37_7 C 0.16062(12) 0.5000 0.83938(12)
C38_7 C 0.23110(14) 0.5000 0.76890(14)
C39_7 C 0.14910(18) 0.5000 0.79322(19)
H21_7 H 0.1162 0.5000 0.7846
C40_7 C 0.1834(2) 0.5000 0.7569(2)
H22_7 H 0.1739 0.5000 0.7243
O17_7 O 0.07965(10) 0.5000 0.86314(9)
C41_7 C 0.20678(19) 0.5000 0.85090(18)
H23_7 H 0.2154 0.5000 0.8838
C42_7 C 0.2431(2) 0.5000 0.8166(2)
H24_7 H 0.2757 0.5000 0.8261
Th8_8 Th 0.10073(2) 0.5000 1.0000
C29_8 C 0.37725(12) 0.5000 0.37725(12)
C30_8 C 0.33938(12) 0.5000 0.33938(12)
C31_8 C 0.26890(14) 0.5000 0.26890(14)
C32_8 C 0.35090(18) 0.5000 0.29322(19)
H17_8 H 0.3838 0.5000 0.2846
C33_8 C 0.3166(2) 0.5000 0.2569(2)
H18_8 H 0.3261 0.5000 0.2243
C34_8 C 0.29322(19) 0.5000 0.35090(18)
H19_8 H 0.2846 0.5000 0.3838
C35_8 C 0.2569(2) 0.5000 0.3166(2)
H20_8 H 0.2243 0.5000 0.3261
O16_8 O 0.13686(9) 0.5000 0.07965(10)
C36_8 C 0.12275(12) 0.5000 0.12275(12)
C37_8 C 0.16062(12) 0.5000 0.16062(12)
C38_8 C 0.23110(14) 0.5000 0.23110(14)
C39_8 C 0.14910(18) 0.5000 0.20678(19)
H21_8 H 0.1162 0.5000 0.2154
C40_8 C 0.1834(2) 0.5000 0.2431(2)
H22_8 H 0.1739 0.5000 0.2757
O17_8 O 0.07965(10) 0.5000 0.13686(9)
C41_8 C 0.20678(19) 0.5000 0.14910(18)
H23_8 H 0.2154 0.5000 0.1162
C42_8 C 0.2431(2) 0.5000 0.1834(2)
H24_8 H 0.2757 0.5000 0.1739
Th10_3 Th -0.0000 0.39927(2) 0.0000
Th10_4 Th -0.0000 0.39927(2) 1.0000
O1_3 O 0.57965(10) 0.13686(9) 0.0000
C1_3 C 0.62275(12) 0.12275(12) 0.0000
C2_3 C 0.66062(12) 0.16062(12) 0.0000
O2_2 O 0.45195(14) 0.04805(14) 0.04805(14)
C3_3 C 0.73110(14) 0.23110(14) 0.0000
C4_3 C 0.70678(19) 0.14910(18) 0.0000
H1_3 H 0.7154 0.1162 0.0000
C5_3 C 0.7431(2) 0.1834(2) 0.0000
H2_3 H 0.7757 0.1739 0.0000
O3_3 O 0.5000 0.1959(2) 0.0000
O4_3 O 0.63686(9) 0.07965(10) 0.0000
C6_3 C 0.64910(18) 0.20678(19) 0.0000
H3_3 H 0.6162 0.2154 0.0000
C7_3 C 0.6834(2) 0.2431(2) 0.0000
H4_3 H 0.6739 0.2757 0.0000
O5_3 O 0.92035(10) 0.36314(9) 0.0000
C8_3 C 0.87725(12) 0.37725(12) 0.0000
C9_3 C 0.83938(12) 0.33938(12) 0.0000
C10_3 C 0.76890(14) 0.26890(14) 0.0000
C11_3 C 0.79322(19) 0.35090(18) 0.0000
H5_3 H 0.7846 0.3838 0.0000
C12_3 C 0.7569(2) 0.3166(2) 0.0000
H6_3 H 0.7243 0.3261 0.0000
O6_3 O 0.86314(9) 0.42035(10) 0.0000
C13_3 C 0.85090(18) 0.29322(19) 0.0000
H7_3 H 0.8838 0.2846 0.0000
C14_3 C 0.8166(2) 0.2569(2) 0.0000
H8_3 H 0.8261 0.2243 0.0000
O7_3 O 0.42035(10) 0.13686(9) 0.0000
C15_3 C 0.37725(12) 0.12275(12) 0.0000
C16_3 C 0.33938(12) 0.16062(12) 0.0000
C17_3 C 0.26890(14) 0.23110(14) 0.0000
C18_3 C 0.29322(19) 0.14910(18) 0.0000
H9_3 H 0.2846 0.1162 0.0000
C19_3 C 0.2569(2) 0.1834(2) 0.0000
H10_3 H 0.2243 0.1739 0.0000
O9_3 O 0.36314(9) 0.07965(10) 0.0000
C20_3 C 0.35090(18) 0.20678(19) 0.0000
H11_3 H 0.3838 0.2154 0.0000
C21_3 C 0.3166(2) 0.2431(2) 0.0000
H12_3 H 0.3261 0.2757 0.0000
O10_3 O 0.07965(10) 0.36314(9) 0.0000
C22_3 C 0.12275(12) 0.37725(12) 0.0000
C23_3 C 0.16062(12) 0.33938(12) 0.0000
C24_3 C 0.23110(14) 0.26890(14) 0.0000
C25_3 C 0.20678(19) 0.35090(18) 0.0000
H13_3 H 0.2154 0.3838 0.0000
C26_3 C 0.2431(2) 0.3166(2) 0.0000
H14_3 H 0.2757 0.3261 0.0000
O11_3 O 0.13686(9) 0.42035(10) 0.0000
C27_3 C 0.14910(18) 0.29322(19) 0.0000
H15_3 H 0.1162 0.2846 0.0000
C28_3 C 0.1834(2) 0.2569(2) 0.0000
H16_3 H 0.1739 0.2243 0.0000
O14_3 O 0.5000 -0.0000 0.1959(2)
Th5_2 Th 0.60073(2) -0.0000 0.0000
Th6_2 Th 0.39927(2) -0.0000 0.0000
Th10_5 Th 1.0000 0.39927(2) 0.0000
O24_2 O 0.42035(10) -0.0000 0.13686(9)
O26_2 O 0.57965(10) -0.0000 0.13686(9)
O30_2 O 0.54805(14) 0.04805(14) 0.04805(14)
O1_4 O 0.57965(10) 0.13686(9) 1.0000
C1_4 C 0.62275(12) 0.12275(12) 1.0000
C2_4 C 0.66062(12) 0.16062(12) 1.0000
C3_4 C 0.73110(14) 0.23110(14) 1.0000
C4_4 C 0.70678(19) 0.14910(18) 1.0000
H1_4 H 0.7154 0.1162 1.0000
C5_4 C 0.7431(2) 0.1834(2) 1.0000
H2_4 H 0.7757 0.1739 1.0000
O3_4 O 0.5000 0.1959(2) 1.0000
O4_4 O 0.63686(9) 0.07965(10) 1.0000
C6_4 C 0.64910(18) 0.20678(19) 1.0000
H3_4 H 0.6162 0.2154 1.0000
C7_4 C 0.6834(2) 0.2431(2) 1.0000
H4_4 H 0.6739 0.2757 1.0000
O5_4 O 0.92035(10) 0.36314(9) 1.0000
C8_4 C 0.87725(12) 0.37725(12) 1.0000
C9_4 C 0.83938(12) 0.33938(12) 1.0000
C10_4 C 0.76890(14) 0.26890(14) 1.0000
C11_4 C 0.79322(19) 0.35090(18) 1.0000
H5_4 H 0.7846 0.3838 1.0000
C12_4 C 0.7569(2) 0.3166(2) 1.0000
H6_4 H 0.7243 0.3261 1.0000
O6_4 O 0.86314(9) 0.42035(10) 1.0000
C13_4 C 0.85090(18) 0.29322(19) 1.0000
H7_4 H 0.8838 0.2846 1.0000
C14_4 C 0.8166(2) 0.2569(2) 1.0000
H8_4 H 0.8261 0.2243 1.0000
O7_4 O 0.42035(10) 0.13686(9) 1.0000
C15_4 C 0.37725(12) 0.12275(12) 1.0000
C16_4 C 0.33938(12) 0.16062(12) 1.0000
O8_2 O 0.54805(14) 0.04805(14) 0.95195(14)
C17_4 C 0.26890(14) 0.23110(14) 1.0000
C18_4 C 0.29322(19) 0.14910(18) 1.0000
H9_4 H 0.2846 0.1162 1.0000
C19_4 C 0.2569(2) 0.1834(2) 1.0000
H10_4 H 0.2243 0.1739 1.0000
O9_4 O 0.36314(9) 0.07965(10) 1.0000
C20_4 C 0.35090(18) 0.20678(19) 1.0000
H11_4 H 0.3838 0.2154 1.0000
C21_4 C 0.3166(2) 0.2431(2) 1.0000
H12_4 H 0.3261 0.2757 1.0000
O10_4 O 0.07965(10) 0.36314(9) 1.0000
C22_4 C 0.12275(12) 0.37725(12) 1.0000
C23_4 C 0.16062(12) 0.33938(12) 1.0000
C24_4 C 0.23110(14) 0.26890(14) 1.0000
C25_4 C 0.20678(19) 0.35090(18) 1.0000
H13_4 H 0.2154 0.3838 1.0000
C26_4 C 0.2431(2) 0.3166(2) 1.0000
H14_4 H 0.2757 0.3261 1.0000
O11_4 O 0.13686(9) 0.42035(10) 1.0000
C27_4 C 0.14910(18) 0.29322(19) 1.0000
H15_4 H 0.1162 0.2846 1.0000
C28_4 C 0.1834(2) 0.2569(2) 1.0000
H16_4 H 0.1739 0.2243 1.0000
O18_3 O 0.5000 -0.0000 0.8041(2)
Th5_3 Th 0.60073(2) -0.0000 1.0000
Th6_3 Th 0.39927(2) -0.0000 1.0000
Th10_6 Th 1.0000 0.39927(2) 1.0000
O23_2 O 0.57965(10) 0.0000 0.86314(9)
O25_2 O 0.42035(10) 0.0000 0.86314(9)
O29_2 O 0.45195(14) 0.04805(14) 0.95195(14)
O13_2 O 0.54805(14) 0.95195(14) 0.04805(14)
O14_4 O 0.5000 1.0000 0.1959(2)
Th5_4 Th 0.60073(2) 1.0000 0.0000
Th6_4 Th 0.39927(2) 1.0000 0.0000
O24_3 O 0.42035(10) 1.0000 0.13686(9)
O26_3 O 0.57965(10) 1.0000 0.13686(9)
O31_2 O 0.45195(14) 0.95195(14) 0.04805(14)
O18_4 O 0.5000 1.0000 0.8041(2)
O19_2 O 0.45195(14) 0.95195(14) 0.95195(14)
Th5_5 Th 0.60073(2) 1.0000 1.0000
Th6_5 Th 0.39927(2) 1.0000 1.0000
O23_3 O 0.57965(10) 1.0000 0.86314(9)
O25_3 O 0.42035(10) 1.0000 0.86314(9)
O28_2 O 0.54805(14) 0.95195(14) 0.95195(14)
Th9_3 Th 0.0000 0.60073(2) 0.0000
Th9_4 Th 0.0000 0.60073(2) 1.0000
O1_5 O 0.42035(10) 0.86314(9) 0.0000
C1_5 C 0.37725(12) 0.87725(12) 0.0000
C2_5 C 0.33938(12) 0.83938(12) 0.0000
C3_5 C 0.26890(14) 0.76890(14) 0.0000
C4_5 C 0.29322(19) 0.85090(18) 0.0000
H1_5 H 0.2846 0.8838 0.0000
C5_5 C 0.2569(2) 0.8166(2) 0.0000
H2_5 H 0.2243 0.8261 0.0000
O3_5 O 0.5000 0.8041(2) 0.0000
O4_5 O 0.36314(9) 0.92035(10) 0.0000
C6_5 C 0.35090(18) 0.79322(19) 0.0000
H3_5 H 0.3838 0.7846 0.0000
C7_5 C 0.3166(2) 0.7569(2) 0.0000
H4_5 H 0.3261 0.7243 0.0000
O5_5 O 0.07965(10) 0.63686(9) 0.0000
C8_5 C 0.12275(12) 0.62275(12) 0.0000
C9_5 C 0.16062(12) 0.66062(12) 0.0000
C10_5 C 0.23110(14) 0.73110(14) 0.0000
C11_5 C 0.20678(19) 0.64910(18) 0.0000
H5_5 H 0.2154 0.6162 0.0000
C12_5 C 0.2431(2) 0.6834(2) 0.0000
H6_5 H 0.2757 0.6739 0.0000
O6_5 O 0.13686(9) 0.57965(10) 0.0000
C13_5 C 0.14910(18) 0.70678(19) 0.0000
H7_5 H 0.1162 0.7154 0.0000
C14_5 C 0.1834(2) 0.7431(2) 0.0000
H8_5 H 0.1739 0.7757 0.0000
O7_5 O 0.57965(10) 0.86314(9) 0.0000
C15_5 C 0.62275(12) 0.87725(12) 0.0000
C16_5 C 0.66062(12) 0.83938(12) 0.0000
C17_5 C 0.73110(14) 0.76890(14) 0.0000
C18_5 C 0.70678(19) 0.85090(18) 0.0000
H9_5 H 0.7154 0.8838 0.0000
C19_5 C 0.7431(2) 0.8166(2) 0.0000
H10_5 H 0.7757 0.8261 0.0000
O9_5 O 0.63686(9) 0.92035(10) 0.0000
C20_5 C 0.64910(18) 0.79322(19) 0.0000
H11_5 H 0.6162 0.7846 0.0000
C21_5 C 0.6834(2) 0.7569(2) 0.0000
H12_5 H 0.6739 0.7243 0.0000
O10_5 O 0.92035(10) 0.63686(9) 0.0000
C22_5 C 0.87725(12) 0.62275(12) 0.0000
C23_5 C 0.83938(12) 0.66062(12) 0.0000
C24_5 C 0.76890(14) 0.73110(14) 0.0000
C25_5 C 0.79322(19) 0.64910(18) 0.0000
H13_5 H 0.7846 0.6162 0.0000
C26_5 C 0.7569(2) 0.6834(2) 0.0000
H14_5 H 0.7243 0.6739 0.0000
O11_5 O 0.86314(9) 0.57965(10) 0.0000
C27_5 C 0.85090(18) 0.70678(19) 0.0000
H15_5 H 0.8838 0.7154 0.0000
C28_5 C 0.8166(2) 0.7431(2) 0.0000
H16_5 H 0.8261 0.7757 0.0000
Th9_5 Th 1.0000 0.60073(2) 0.0000
O1_6 O 0.42035(10) 0.86314(9) 1.0000
C1_6 C 0.37725(12) 0.87725(12) 1.0000
C2_6 C 0.33938(12) 0.83938(12) 1.0000
C3_6 C 0.26890(14) 0.76890(14) 1.0000
C4_6 C 0.29322(19) 0.85090(18) 1.0000
H1_6 H 0.2846 0.8838 1.0000
C5_6 C 0.2569(2) 0.8166(2) 1.0000
H2_6 H 0.2243 0.8261 1.0000
O3_6 O 0.5000 0.8041(2) 1.0000
O4_6 O 0.36314(9) 0.92035(10) 1.0000
C6_6 C 0.35090(18) 0.79322(19) 1.0000
H3_6 H 0.3838 0.7846 1.0000
C7_6 C 0.3166(2) 0.7569(2) 1.0000
H4_6 H 0.3261 0.7243 1.0000
O5_6 O 0.07965(10) 0.63686(9) 1.0000
C8_6 C 0.12275(12) 0.62275(12) 1.0000
C9_6 C 0.16062(12) 0.66062(12) 1.0000
C10_6 C 0.23110(14) 0.73110(14) 1.0000
C11_6 C 0.20678(19) 0.64910(18) 1.0000
H5_6 H 0.2154 0.6162 1.0000
C12_6 C 0.2431(2) 0.6834(2) 1.0000
H6_6 H 0.2757 0.6739 1.0000
O6_6 O 0.13686(9) 0.57965(10) 1.0000
C13_6 C 0.14910(18) 0.70678(19) 1.0000
H7_6 H 0.1162 0.7154 1.0000
C14_6 C 0.1834(2) 0.7431(2) 1.0000
H8_6 H 0.1739 0.7757 1.0000
O7_6 O 0.57965(10) 0.86314(9) 1.0000
C15_6 C 0.62275(12) 0.87725(12) 1.0000
C16_6 C 0.66062(12) 0.83938(12) 1.0000
C17_6 C 0.73110(14) 0.76890(14) 1.0000
C18_6 C 0.70678(19) 0.85090(18) 1.0000
H9_6 H 0.7154 0.8838 1.0000
C19_6 C 0.7431(2) 0.8166(2) 1.0000
H10_6 H 0.7757 0.8261 1.0000
O9_6 O 0.63686(9) 0.92035(10) 1.0000
C20_6 C 0.64910(18) 0.79322(19) 1.0000
H11_6 H 0.6162 0.7846 1.0000
C21_6 C 0.6834(2) 0.7569(2) 1.0000
H12_6 H 0.6739 0.7243 1.0000
O10_6 O 0.92035(10) 0.63686(9) 1.0000
C22_6 C 0.87725(12) 0.62275(12) 1.0000
C23_6 C 0.83938(12) 0.66062(12) 1.0000
C24_6 C 0.76890(14) 0.73110(14) 1.0000
C25_6 C 0.79322(19) 0.64910(18) 1.0000
H13_6 H 0.7846 0.6162 1.0000
C26_6 C 0.7569(2) 0.6834(2) 1.0000
H14_6 H 0.7243 0.6739 1.0000
O11_6 O 0.86314(9) 0.57965(10) 1.0000
C27_6 C 0.85090(18) 0.70678(19) 1.0000
H15_6 H 0.8838 0.7154 1.0000
C28_6 C 0.8166(2) 0.7431(2) 1.0000
H16_6 H 0.8261 0.7757 1.0000
Th9_6 Th 1.0000 0.60073(2) 1.0000
Th7_9 Th -0.0000 -0.0000 0.39927(2)
Th7_10 Th -0.0000 1.0000 0.39927(2)
O12_3 O 0.63686(9) 0.0000 0.07965(10)
C29_9 C 0.62275(12) 0.0000 0.12275(12)
C30_9 C 0.66062(12) 0.0000 0.16062(12)
C31_9 C 0.73110(14) 0.0000 0.23110(14)
C32_9 C 0.64910(18) 0.0000 0.20678(19)
H17_9 H 0.6162 0.0000 0.2154
C33_9 C 0.6834(2) 0.0000 0.2431(2)
H18_9 H 0.6739 0.0000 0.2757
O14_5 O 0.6959(2) -0.0000 -0.0000
C34_9 C 0.70678(19) 0.0000 0.14910(18)
H19_9 H 0.7154 0.0000 0.1162
C35_9 C 0.7431(2) 0.0000 0.1834(2)
H20_9 H 0.7757 0.0000 0.1739
O16_9 O 0.86314(9) -0.0000 0.42035(10)
C36_9 C 0.87725(12) 0.0000 0.37725(12)
C37_9 C 0.83938(12) 0.0000 0.33938(12)
C38_9 C 0.76890(14) 0.0000 0.26890(14)
C39_9 C 0.85090(18) 0.0000 0.29322(19)
H21_9 H 0.8838 0.0000 0.2846
C40_9 C 0.8166(2) 0.0000 0.2569(2)
H22_9 H 0.8261 0.0000 0.2243
O17_9 O 0.92035(10) 0.0000 0.36314(9)
C41_9 C 0.79322(19) 0.0000 0.35090(18)
H23_9 H 0.7846 0.0000 0.3838
C42_9 C 0.7569(2) 0.0000 0.3166(2)
H24_9 H 0.7243 0.0000 0.3261
O18_5 O 0.3041(2) -0.0000 0.0000
Th7_11 Th 1.0000 -0.0000 0.39927(2)
O22_3 O 0.36314(9) -0.0000 0.07965(10)
O14_6 O 0.6959(2) -0.0000 1.0000
O18_6 O 0.3041(2) -0.0000 1.0000
O20_3 O 0.36314(9) -0.0000 0.92035(10)
O21_3 O 0.63686(9) -0.0000 0.92035(10)
O12_4 O 0.63686(9) 1.0000 0.07965(10)
C29_10 C 0.62275(12) 1.0000 0.12275(12)
C30_10 C 0.66062(12) 1.0000 0.16062(12)
C31_10 C 0.73110(14) 1.0000 0.23110(14)
C32_10 C 0.64910(18) 1.0000 0.20678(19)
H17_10 H 0.6162 1.0000 0.2154
C33_10 C 0.6834(2) 1.0000 0.2431(2)
H18_10 H 0.6739 1.0000 0.2757
O14_7 O 0.6959(2) 1.0000 -0.0000
C34_10 C 0.70678(19) 1.0000 0.14910(18)
H19_10 H 0.7154 1.0000 0.1162
C35_10 C 0.7431(2) 1.0000 0.1834(2)
H20_10 H 0.7757 1.0000 0.1739
O16_10 O 0.86314(9) 1.0000 0.42035(10)
C36_10 C 0.87725(12) 1.0000 0.37725(12)
C37_10 C 0.83938(12) 1.0000 0.33938(12)
C38_10 C 0.76890(14) 1.0000 0.26890(14)
C39_10 C 0.85090(18) 1.0000 0.29322(19)
H21_10 H 0.8838 1.0000 0.2846
C40_10 C 0.8166(2) 1.0000 0.2569(2)
H22_10 H 0.8261 1.0000 0.2243
O17_10 O 0.92035(10) 1.0000 0.36314(9)
C41_10 C 0.79322(19) 1.0000 0.35090(18)
H23_10 H 0.7846 1.0000 0.3838
C42_10 C 0.7569(2) 1.0000 0.3166(2)
H24_10 H 0.7243 1.0000 0.3261
O18_7 O 0.3041(2) 1.0000 0.0000
Th7_12 Th 1.0000 1.0000 0.39927(2)
O22_4 O 0.36314(9) 1.0000 0.07965(10)
O14_8 O 0.6959(2) 1.0000 1.0000
O18_8 O 0.3041(2) 1.0000 1.0000
O20_4 O 0.36314(9) 1.0000 0.92035(10)
O21_4 O 0.63686(9) 1.0000 0.92035(10)
Th7_13 Th 0.0000 0.0000 0.60073(2)
Th7_14 Th -0.0000 1.0000 0.60073(2)
C29_11 C 0.62275(12) -0.0000 0.87725(12)
C30_11 C 0.66062(12) -0.0000 0.83938(12)
C31_11 C 0.73110(14) -0.0000 0.76890(14)
C32_11 C 0.64910(18) -0.0000 0.79322(19)
H17_11 H 0.6162 -0.0000 0.7846
C33_11 C 0.6834(2) -0.0000 0.7569(2)
H18_11 H 0.6739 -0.0000 0.7243
C34_11 C 0.70678(19) -0.0000 0.85090(18)
H19_11 H 0.7154 -0.0000 0.8838
C35_11 C 0.7431(2) -0.0000 0.8166(2)
H20_11 H 0.7757 -0.0000 0.8261
O16_11 O 0.86314(9) 0.0000 0.57965(10)
C36_11 C 0.87725(12) -0.0000 0.62275(12)
C37_11 C 0.83938(12) -0.0000 0.66062(12)
C38_11 C 0.76890(14) -0.0000 0.73110(14)
C39_11 C 0.85090(18) -0.0000 0.70678(19)
H21_11 H 0.8838 -0.0000 0.7154
C40_11 C 0.8166(2) -0.0000 0.7431(2)
H22_11 H 0.8261 -0.0000 0.7757
O17_11 O 0.92035(10) 0.0000 0.63686(9)
C41_11 C 0.79322(19) -0.0000 0.64910(18)
H23_11 H 0.7846 -0.0000 0.6162
C42_11 C 0.7569(2) -0.0000 0.6834(2)
H24_11 H 0.7243 -0.0000 0.6739
Th7_15 Th 1.0000 0.0000 0.60073(2)
C29_12 C 0.62275(12) 1.0000 0.87725(12)
C30_12 C 0.66062(12) 1.0000 0.83938(12)
C31_12 C 0.73110(14) 1.0000 0.76890(14)
C32_12 C 0.64910(18) 1.0000 0.79322(19)
H17_12 H 0.6162 1.0000 0.7846
C33_12 C 0.6834(2) 1.0000 0.7569(2)
H18_12 H 0.6739 1.0000 0.7243
C34_12 C 0.70678(19) 1.0000 0.85090(18)
H19_12 H 0.7154 1.0000 0.8838
C35_12 C 0.7431(2) 1.0000 0.8166(2)
H20_12 H 0.7757 1.0000 0.8261
O16_12 O 0.86314(9) 1.0000 0.57965(10)
C36_12 C 0.87725(12) 1.0000 0.62275(12)
C37_12 C 0.83938(12) 1.0000 0.66062(12)
C38_12 C 0.76890(14) 1.0000 0.73110(14)
C39_12 C 0.85090(18) 1.0000 0.70678(19)
H21_12 H 0.8838 1.0000 0.7154
C40_12 C 0.8166(2) 1.0000 0.7431(2)
H22_12 H 0.8261 1.0000 0.7757
O17_12 O 0.92035(10) 1.0000 0.63686(9)
C41_12 C 0.79322(19) 1.0000 0.64910(18)
H23_12 H 0.7846 1.0000 0.6162
C42_12 C 0.7569(2) 1.0000 0.6834(2)
H24_12 H 0.7243 1.0000 0.6739
Th7_16 Th 1.0000 1.0000 0.60073(2)
C29_13 C 0.37725(12) -0.0000 0.12275(12)
C30_13 C 0.33938(12) -0.0000 0.16062(12)
C31_13 C 0.26890(14) -0.0000 0.23110(14)
C32_13 C 0.35090(18) -0.0000 0.20678(19)
H17_13 H 0.3838 -0.0000 0.2154
C33_13 C 0.3166(2) -0.0000 0.2431(2)
H18_13 H 0.3261 -0.0000 0.2757
C34_13 C 0.29322(19) -0.0000 0.14910(18)
H19_13 H 0.2846 -0.0000 0.1162
C35_13 C 0.2569(2) -0.0000 0.1834(2)
H20_13 H 0.2243 -0.0000 0.1739
O16_13 O 0.13686(9) 0.0000 0.42035(10)
C36_13 C 0.12275(12) -0.0000 0.37725(12)
C37_13 C 0.16062(12) -0.0000 0.33938(12)
C38_13 C 0.23110(14) -0.0000 0.26890(14)
C39_13 C 0.14910(18) -0.0000 0.29322(19)
H21_13 H 0.1162 -0.0000 0.2846
C40_13 C 0.1834(2) -0.0000 0.2569(2)
H22_13 H 0.1739 -0.0000 0.2243
O17_13 O 0.07965(10) 0.0000 0.36314(9)
C41_13 C 0.20678(19) -0.0000 0.35090(18)
H23_13 H 0.2154 -0.0000 0.3838
C42_13 C 0.2431(2) -0.0000 0.3166(2)
H24_13 H 0.2757 -0.0000 0.3261
C29_14 C 0.37725(12) 1.0000 0.12275(12)
C30_14 C 0.33938(12) 1.0000 0.16062(12)
C31_14 C 0.26890(14) 1.0000 0.23110(14)
C32_14 C 0.35090(18) 1.0000 0.20678(19)
H17_14 H 0.3838 1.0000 0.2154
C33_14 C 0.3166(2) 1.0000 0.2431(2)
H18_14 H 0.3261 1.0000 0.2757
C34_14 C 0.29322(19) 1.0000 0.14910(18)
H19_14 H 0.2846 1.0000 0.1162
C35_14 C 0.2569(2) 1.0000 0.1834(2)
H20_14 H 0.2243 1.0000 0.1739
O16_14 O 0.13686(9) 1.0000 0.42035(10)
C36_14 C 0.12275(12) 1.0000 0.37725(12)
C37_14 C 0.16062(12) 1.0000 0.33938(12)
C38_14 C 0.23110(14) 1.0000 0.26890(14)
C39_14 C 0.14910(18) 1.0000 0.29322(19)
H21_14 H 0.1162 1.0000 0.2846
C40_14 C 0.1834(2) 1.0000 0.2569(2)
H22_14 H 0.1739 1.0000 0.2243
O17_14 O 0.07965(10) 1.0000 0.36314(9)
C41_14 C 0.20678(19) 1.0000 0.35090(18)
H23_14 H 0.2154 1.0000 0.3838
C42_14 C 0.2431(2) 1.0000 0.3166(2)
H24_14 H 0.2757 1.0000 0.3261
C29_15 C 0.37725(12) 0.0000 0.87725(12)
C30_15 C 0.33938(12) 0.0000 0.83938(12)
C31_15 C 0.26890(14) 0.0000 0.76890(14)
C32_15 C 0.35090(18) 0.0000 0.79322(19)
H17_15 H 0.3838 0.0000 0.7846
C33_15 C 0.3166(2) 0.0000 0.7569(2)
H18_15 H 0.3261 0.0000 0.7243
C34_15 C 0.29322(19) 0.0000 0.85090(18)
H19_15 H 0.2846 0.0000 0.8838
C35_15 C 0.2569(2) 0.0000 0.8166(2)
H20_15 H 0.2243 0.0000 0.8261
O16_15 O 0.13686(9) -0.0000 0.57965(10)
C36_15 C 0.12275(12) 0.0000 0.62275(12)
C37_15 C 0.16062(12) 0.0000 0.66062(12)
C38_15 C 0.23110(14) 0.0000 0.73110(14)
C39_15 C 0.14910(18) 0.0000 0.70678(19)
H21_15 H 0.1162 0.0000 0.7154
C40_15 C 0.1834(2) 0.0000 0.7431(2)
H22_15 H 0.1739 0.0000 0.7757
O17_15 O 0.07965(10) 0.0000 0.63686(9)
C41_15 C 0.20678(19) 0.0000 0.64910(18)
H23_15 H 0.2154 0.0000 0.6162
C42_15 C 0.2431(2) 0.0000 0.6834(2)
H24_15 H 0.2757 0.0000 0.6739
C29_16 C 0.37725(12) 1.0000 0.87725(12)
C30_16 C 0.33938(12) 1.0000 0.83938(12)
C31_16 C 0.26890(14) 1.0000 0.76890(14)
C32_16 C 0.35090(18) 1.0000 0.79322(19)
H17_16 H 0.3838 1.0000 0.7846
C33_16 C 0.3166(2) 1.0000 0.7569(2)
H18_16 H 0.3261 1.0000 0.7243
C34_16 C 0.29322(19) 1.0000 0.85090(18)
H19_16 H 0.2846 1.0000 0.8838
C35_16 C 0.2569(2) 1.0000 0.8166(2)
H20_16 H 0.2243 1.0000 0.8261
O16_16 O 0.13686(9) 1.0000 0.57965(10)
C36_16 C 0.12275(12) 1.0000 0.62275(12)
C37_16 C 0.16062(12) 1.0000 0.66062(12)
C38_16 C 0.23110(14) 1.0000 0.73110(14)
C39_16 C 0.14910(18) 1.0000 0.70678(19)
H21_16 H 0.1162 1.0000 0.7154
C40_16 C 0.1834(2) 1.0000 0.7431(2)
H22_16 H 0.1739 1.0000 0.7757
O17_16 O 0.07965(10) 1.0000 0.63686(9)
C41_16 C 0.20678(19) 1.0000 0.64910(18)
H23_16 H 0.2154 1.0000 0.6162
C42_16 C 0.2431(2) 1.0000 0.6834(2)
H24_16 H 0.2757 1.0000 0.6739
O3_7 O -0.0000 0.6959(2) 0.0000
O12_5 O 0.0000 0.57965(10) 0.13686(9)
C29_17 C 0.0000 0.62275(12) 0.12275(12)
C30_17 C 0.0000 0.66062(12) 0.16062(12)
O13_3 O 0.04805(14) 0.45195(14) 0.04805(14)
C31_17 C 0.0000 0.73110(14) 0.23110(14)
C32_17 C 0.0000 0.70678(19) 0.14910(18)
H17_17 H 0.0000 0.7154 0.1162
C33_17 C 0.0000 0.7431(2) 0.1834(2)
H18_17 H 0.0000 0.7757 0.1739
O14_9 O -0.0000 0.5000 0.1959(2)
O15_3 O 0.0000 0.63686(9) 0.07965(10)
C34_17 C 0.0000 0.64910(18) 0.20678(19)
H19_17 H 0.0000 0.6162 0.2154
C35_17 C 0.0000 0.6834(2) 0.2431(2)
H20_17 H 0.0000 0.6739 0.2757
O16_17 O -0.0000 0.92035(10) 0.36314(9)
C36_17 C 0.0000 0.87725(12) 0.37725(12)
C37_17 C 0.0000 0.83938(12) 0.33938(12)
C38_17 C 0.0000 0.76890(14) 0.26890(14)
C39_17 C 0.0000 0.79322(19) 0.35090(18)
H21_17 H 0.0000 0.7846 0.3838
C40_17 C 0.0000 0.7569(2) 0.3166(2)
H22_17 H 0.0000 0.7243 0.3261
O17_17 O 0.0000 0.86314(9) 0.42035(10)
C41_17 C 0.0000 0.85090(18) 0.29322(19)
H23_17 H 0.0000 0.8838 0.2846
C42_17 C 0.0000 0.8166(2) 0.2569(2)
H24_17 H 0.0000 0.8261 0.2243
O21_5 O -0.0000 0.42035(10) 0.13686(9)
O30_3 O 0.04805(14) 0.54805(14) 0.04805(14)
O3_8 O -0.0000 0.6959(2) 1.0000
O8_3 O 0.04805(14) 0.54805(14) 0.95195(14)
O18_9 O -0.0000 0.5000 0.8041(2)
O20_5 O -0.0000 0.42035(10) 0.86314(9)
O22_5 O -0.0000 0.57965(10) 0.86314(9)
O27_3 O -0.0000 0.63686(9) 0.92035(10)
O28_3 O 0.04805(14) 0.45195(14) 0.95195(14)
O2_3 O 0.95195(14) 0.54805(14) 0.04805(14)
O3_9 O 1.0000 0.6959(2) 0.0000
O12_6 O 1.0000 0.57965(10) 0.13686(9)
C29_18 C 1.0000 0.62275(12) 0.12275(12)
C30_18 C 1.0000 0.66062(12) 0.16062(12)
C31_18 C 1.0000 0.73110(14) 0.23110(14)
C32_18 C 1.0000 0.70678(19) 0.14910(18)
H17_18 H 1.0000 0.7154 0.1162
C33_18 C 1.0000 0.7431(2) 0.1834(2)
H18_18 H 1.0000 0.7757 0.1739
O14_10 O 1.0000 0.5000 0.1959(2)
O15_4 O 1.0000 0.63686(9) 0.07965(10)
C34_18 C 1.0000 0.64910(18) 0.20678(19)
H19_18 H 1.0000 0.6162 0.2154
C35_18 C 1.0000 0.6834(2) 0.2431(2)
H20_18 H 1.0000 0.6739 0.2757
O16_18 O 1.0000 0.92035(10) 0.36314(9)
C36_18 C 1.0000 0.87725(12) 0.37725(12)
C37_18 C 1.0000 0.83938(12) 0.33938(12)
C38_18 C 1.0000 0.76890(14) 0.26890(14)
C39_18 C 1.0000 0.79322(19) 0.35090(18)
H21_18 H 1.0000 0.7846 0.3838
C40_18 C 1.0000 0.7569(2) 0.3166(2)
H22_18 H 1.0000 0.7243 0.3261
O17_18 O 1.0000 0.86314(9) 0.42035(10)
C41_18 C 1.0000 0.85090(18) 0.29322(19)
H23_18 H 1.0000 0.8838 0.2846
C42_18 C 1.0000 0.8166(2) 0.2569(2)
H24_18 H 1.0000 0.8261 0.2243
O21_6 O 1.0000 0.42035(10) 0.13686(9)
O31_3 O 0.95195(14) 0.45195(14) 0.04805(14)
O3_10 O 1.0000 0.6959(2) 1.0000
O18_10 O 1.0000 0.5000 0.8041(2)
O19_3 O 0.95195(14) 0.45195(14) 0.95195(14)
O20_6 O 1.0000 0.42035(10) 0.86314(9)
O22_6 O 1.0000 0.57965(10) 0.86314(9)
O27_4 O 1.0000 0.63686(9) 0.92035(10)
O29_3 O 0.95195(14) 0.54805(14) 0.95195(14)
O3_11 O 0.0000 0.3041(2) 0.0000
C29_19 C -0.0000 0.37725(12) 0.12275(12)
C30_19 C -0.0000 0.33938(12) 0.16062(12)
C31_19 C -0.0000 0.26890(14) 0.23110(14)
C32_19 C -0.0000 0.29322(19) 0.14910(18)
H17_19 H -0.0000 0.2846 0.1162
C33_19 C -0.0000 0.2569(2) 0.1834(2)
H18_19 H -0.0000 0.2243 0.1739
O15_5 O -0.0000 0.36314(9) 0.07965(10)
C34_19 C -0.0000 0.35090(18) 0.20678(19)
H19_19 H -0.0000 0.3838 0.2154
C35_19 C -0.0000 0.3166(2) 0.2431(2)
H20_19 H -0.0000 0.3261 0.2757
O16_19 O 0.0000 0.07965(10) 0.36314(9)
C36_19 C -0.0000 0.12275(12) 0.37725(12)
C37_19 C -0.0000 0.16062(12) 0.33938(12)
C38_19 C -0.0000 0.23110(14) 0.26890(14)
C39_19 C -0.0000 0.20678(19) 0.35090(18)
H21_19 H -0.0000 0.2154 0.3838
C40_19 C -0.0000 0.2431(2) 0.3166(2)
H22_19 H -0.0000 0.2757 0.3261
O17_19 O 0.0000 0.13686(9) 0.42035(10)
C41_19 C -0.0000 0.14910(18) 0.29322(19)
H23_19 H -0.0000 0.1162 0.2846
C42_19 C -0.0000 0.1834(2) 0.2569(2)
H24_19 H -0.0000 0.1739 0.2243
O3_12 O 0.0000 0.3041(2) 1.0000
O27_5 O 0.0000 0.36314(9) 0.92035(10)
O3_13 O 1.0000 0.3041(2) 0.0000
C29_20 C 1.0000 0.37725(12) 0.12275(12)
C30_20 C 1.0000 0.33938(12) 0.16062(12)
C31_20 C 1.0000 0.26890(14) 0.23110(14)
C32_20 C 1.0000 0.29322(19) 0.14910(18)
H17_20 H 1.0000 0.2846 0.1162
C33_20 C 1.0000 0.2569(2) 0.1834(2)
H18_20 H 1.0000 0.2243 0.1739
O15_6 O 1.0000 0.36314(9) 0.07965(10)
C34_20 C 1.0000 0.35090(18) 0.20678(19)
H19_20 H 1.0000 0.3838 0.2154
C35_20 C 1.0000 0.3166(2) 0.2431(2)
H20_20 H 1.0000 0.3261 0.2757
O16_20 O 1.0000 0.07965(10) 0.36314(9)
C36_20 C 1.0000 0.12275(12) 0.37725(12)
C37_20 C 1.0000 0.16062(12) 0.33938(12)
C38_20 C 1.0000 0.23110(14) 0.26890(14)
C39_20 C 1.0000 0.20678(19) 0.35090(18)
H21_20 H 1.0000 0.2154 0.3838
C40_20 C 1.0000 0.2431(2) 0.3166(2)
H22_20 H 1.0000 0.2757 0.3261
O17_20 O 1.0000 0.13686(9) 0.42035(10)
C41_20 C 1.0000 0.14910(18) 0.29322(19)
H23_20 H 1.0000 0.1162 0.2846
C42_20 C 1.0000 0.1834(2) 0.2569(2)
H24_20 H 1.0000 0.1739 0.2243
O3_14 O 1.0000 0.3041(2) 1.0000
O27_6 O 1.0000 0.36314(9) 0.92035(10)
C29_21 C -0.0000 0.62275(12) 0.87725(12)
C30_21 C -0.0000 0.66062(12) 0.83938(12)
C31_21 C -0.0000 0.73110(14) 0.76890(14)
C32_21 C -0.0000 0.70678(19) 0.85090(18)
H17_21 H -0.0000 0.7154 0.8838
C33_21 C -0.0000 0.7431(2) 0.8166(2)
H18_21 H -0.0000 0.7757 0.8261
C34_21 C -0.0000 0.64910(18) 0.79322(19)
H19_21 H -0.0000 0.6162 0.7846
C35_21 C -0.0000 0.6834(2) 0.7569(2)
H20_21 H -0.0000 0.6739 0.7243
O16_21 O 0.0000 0.92035(10) 0.63686(9)
C36_21 C -0.0000 0.87725(12) 0.62275(12)
C37_21 C -0.0000 0.83938(12) 0.66062(12)
C38_21 C -0.0000 0.76890(14) 0.73110(14)
C39_21 C -0.0000 0.79322(19) 0.64910(18)
H21_21 H -0.0000 0.7846 0.6162
C40_21 C -0.0000 0.7569(2) 0.6834(2)
H22_21 H -0.0000 0.7243 0.6739
O17_21 O 0.0000 0.86314(9) 0.57965(10)
C41_21 C -0.0000 0.85090(18) 0.70678(19)
H23_21 H -0.0000 0.8838 0.7154
C42_21 C -0.0000 0.8166(2) 0.7431(2)
H24_21 H -0.0000 0.8261 0.7757
C29_22 C 1.0000 0.62275(12) 0.87725(12)
C30_22 C 1.0000 0.66062(12) 0.83938(12)
C31_22 C 1.0000 0.73110(14) 0.76890(14)
C32_22 C 1.0000 0.70678(19) 0.85090(18)
H17_22 H 1.0000 0.7154 0.8838
C33_22 C 1.0000 0.7431(2) 0.8166(2)
H18_22 H 1.0000 0.7757 0.8261
C34_22 C 1.0000 0.64910(18) 0.79322(19)
H19_22 H 1.0000 0.6162 0.7846
C35_22 C 1.0000 0.6834(2) 0.7569(2)
H20_22 H 1.0000 0.6739 0.7243
O16_22 O 1.0000 0.92035(10) 0.63686(9)
C36_22 C 1.0000 0.87725(12) 0.62275(12)
C37_22 C 1.0000 0.83938(12) 0.66062(12)
C38_22 C 1.0000 0.76890(14) 0.73110(14)
C39_22 C 1.0000 0.79322(19) 0.64910(18)
H21_22 H 1.0000 0.7846 0.6162
C40_22 C 1.0000 0.7569(2) 0.6834(2)
H22_22 H 1.0000 0.7243 0.6739
O17_22 O 1.0000 0.86314(9) 0.57965(10)
C41_22 C 1.0000 0.85090(18) 0.70678(19)
H23_22 H 1.0000 0.8838 0.7154
C42_22 C 1.0000 0.8166(2) 0.7431(2)
H24_22 H 1.0000 0.8261 0.7757
C29_23 C 0.0000 0.37725(12) 0.87725(12)
C30_23 C 0.0000 0.33938(12) 0.83938(12)
C31_23 C 0.0000 0.26890(14) 0.76890(14)
C32_23 C 0.0000 0.29322(19) 0.85090(18)
H17_23 H 0.0000 0.2846 0.8838
C33_23 C 0.0000 0.2569(2) 0.8166(2)
H18_23 H 0.0000 0.2243 0.8261
C34_23 C 0.0000 0.35090(18) 0.79322(19)
H19_23 H 0.0000 0.3838 0.7846
C35_23 C 0.0000 0.3166(2) 0.7569(2)
H20_23 H 0.0000 0.3261 0.7243
O16_23 O -0.0000 0.07965(10) 0.63686(9)
C36_23 C 0.0000 0.12275(12) 0.62275(12)
C37_23 C 0.0000 0.16062(12) 0.66062(12)
C38_23 C 0.0000 0.23110(14) 0.73110(14)
C39_23 C 0.0000 0.20678(19) 0.64910(18)
H21_23 H 0.0000 0.2154 0.6162
C40_23 C 0.0000 0.2431(2) 0.6834(2)
H22_23 H 0.0000 0.2757 0.6739
O17_23 O 0.0000 0.13686(9) 0.57965(10)
C41_23 C 0.0000 0.14910(18) 0.70678(19)
H23_23 H 0.0000 0.1162 0.7154
C42_23 C 0.0000 0.1834(2) 0.7431(2)
H24_23 H 0.0000 0.1739 0.7757
C29_24 C 1.0000 0.37725(12) 0.87725(12)
C30_24 C 1.0000 0.33938(12) 0.83938(12)
C31_24 C 1.0000 0.26890(14) 0.76890(14)
C32_24 C 1.0000 0.29322(19) 0.85090(18)
H17_24 H 1.0000 0.2846 0.8838
C33_24 C 1.0000 0.2569(2) 0.8166(2)
H18_24 H 1.0000 0.2243 0.8261
C34_24 C 1.0000 0.35090(18) 0.79322(19)
H19_24 H 1.0000 0.3838 0.7846
C35_24 C 1.0000 0.3166(2) 0.7569(2)
H20_24 H 1.0000 0.3261 0.7243
O16_24 O 1.0000 0.07965(10) 0.63686(9)
C36_24 C 1.0000 0.12275(12) 0.62275(12)
C37_24 C 1.0000 0.16062(12) 0.66062(12)
C38_24 C 1.0000 0.23110(14) 0.73110(14)
C39_24 C 1.0000 0.20678(19) 0.64910(18)
H21_24 H 1.0000 0.2154 0.6162
C40_24 C 1.0000 0.2431(2) 0.6834(2)
H22_24 H 1.0000 0.2757 0.6739
O17_24 O 1.0000 0.13686(9) 0.57965(10)
C41_24 C 1.0000 0.14910(18) 0.70678(19)
H23_24 H 1.0000 0.1162 0.7154
C42_24 C 1.0000 0.1834(2) 0.7431(2)
H24_24 H 1.0000 0.1739 0.7757
O14_11 O 0.1959(2) 0.5000 -0.0000
O14_12 O 0.1959(2) 0.5000 1.0000
O18_11 O 0.8041(2) 0.5000 0.0000
O18_12 O 0.8041(2) 0.5000 1.0000
O3_15 O -0.0000 0.1959(2) 0.5000
O8_4 O 0.04805(14) 0.04805(14) 0.45195(14)
O14_13 O -0.0000 -0.0000 0.6959(2)
O18_13 O -0.0000 -0.0000 0.3041(2)
O30_4 O 0.04805(14) 0.04805(14) 0.54805(14)
O13_4 O 0.04805(14) 0.95195(14) 0.54805(14)
O14_14 O -0.0000 1.0000 0.6959(2)
O18_14 O -0.0000 1.0000 0.3041(2)
O28_4 O 0.04805(14) 0.95195(14) 0.45195(14)
O2_4 O 0.95195(14) 0.04805(14) 0.54805(14)
O3_16 O 1.0000 0.1959(2) 0.5000
O14_15 O 1.0000 -0.0000 0.6959(2)
O18_15 O 1.0000 -0.0000 0.3041(2)
O29_4 O 0.95195(14) 0.04805(14) 0.45195(14)
O14_16 O 1.0000 1.0000 0.6959(2)
O18_16 O 1.0000 1.0000 0.3041(2)
O19_4 O 0.95195(14) 0.95195(14) 0.45195(14)
O31_4 O 0.95195(14) 0.95195(14) 0.54805(14)
O3_17 O 0.0000 0.8041(2) 0.5000
O3_18 O 1.0000 0.8041(2) 0.5000
O14_17 O 0.1959(2) -0.0000 0.5000
O14_18 O 0.1959(2) 1.0000 0.5000
O18_17 O 0.8041(2) -0.0000 0.5000
O18_18 O 0.8041(2) 1.0000 0.5000
loop_
_geom_bond_atom_site_label_1
_geom_bond_atom_site_label_2
_geom_bond_site_symmetry_1
_geom_bond_site_symmetry_2
Th1 O1 1_555 1_555
O1 C1 1_555 1_555
C1 C2 1_555 1_555
C2 C4 1_555 1_555
O2 Th1 1_555 1_555
C3 C5 1_555 1_555
C4 H1 1_555 1_555
C5 C4 1_555 1_555
H2 C5 1_555 1_555
O3 Th1 1_555 1_555
O4 C1 1_555 1_555
C6 C2 1_555 1_555
H3 C6 1_555 1_555
C7 C3 1_555 1_555
H4 C7 1_555 1_555
O5 C8 1_555 1_555
C8 C9 1_555 1_555
C9 C11 1_555 1_555
C10 C3 1_555 1_555
C11 H5 1_555 1_555
C12 C10 1_555 1_555
H6 C12 1_555 1_555
O6 C8 1_555 1_555
C13 C9 1_555 1_555
H7 C13 1_555 1_555
C14 C10 1_555 1_555
H8 C14 1_555 1_555
O7 Th1 1_555 1_555
C15 O7 1_555 1_555
C16 C15 1_555 1_555
O8 Th1 1_555 1_555
C17 C19 1_555 1_555
C18 C16 1_555 1_555
H9 C18 1_555 1_555
C19 C18 1_555 1_555
H10 C19 1_555 1_555
O9 C15 1_555 1_555
C20 C16 1_555 1_555
H11 C20 1_555 1_555
C21 C17 1_555 1_555
H12 C21 1_555 1_555
O10 C22 1_555 1_555
C22 C23 1_555 1_555
C23 C25 1_555 1_555
C24 C17 1_555 1_555
C25 H13 1_555 1_555
C26 C24 1_555 1_555
H14 C26 1_555 1_555
O11 C22 1_555 1_555
C27 C23 1_555 1_555
H15 C27 1_555 1_555
C28 C24 1_555 1_555
H16 C28 1_555 1_555
Th2 O2 1_555 1_555
O12 Th2 1_555 1_555
C29 O12 1_555 1_555
C30 C29 1_555 1_555
O13 Th2 1_555 1_555
C31 C33 1_555 1_555
C32 C30 1_555 1_555
H17 C32 1_555 1_555
C33 C32 1_555 1_555
H18 C33 1_555 1_555
O14 Th2 1_555 1_555
O15 Th1 1_555 1_555
C34 C30 1_555 1_555
H19 C34 1_555 1_555
C35 C31 1_555 1_555
H20 C35 1_555 1_555
O16 C36 1_555 1_555
C36 C37 1_555 1_555
C37 C39 1_555 1_555
C38 C31 1_555 1_555
C39 H21 1_555 1_555
C40 C38 1_555 1_555
H22 C40 1_555 1_555
O17 C36 1_555 1_555
C41 C37 1_555 1_555
H23 C41 1_555 1_555
C42 C38 1_555 1_555
H24 C42 1_555 1_555
Th3 O8 1_555 1_555
O18 Th3 1_555 1_555
O19 Th3 1_555 1_555
Th4 O13 1_555 1_555
Th5 O4 1_555 1_555
Th6 O2 1_555 1_555
Th7_2 O17 1_555 1_555
Th8_2 O16 1_555 1_555
Th10 O10 1_555 1_555
Th10_2 O5 1_555 1_555
Th11_2 O11 1_555 1_555
Th12_2 O6 1_555 1_555
O20 Th3 1_555 1_555
O21 Th2 1_555 1_555
O22 Th3 1_555 1_555
O23 Th3 1_555 1_555
O24 Th2 1_555 1_555
O25 Th3 1_555 1_555
O26 Th2 1_555 1_555
O27 Th1 1_555 1_555
O28 Th3 1_555 1_555
O29 Th1 1_555 1_555
O30 Th1 1_555 1_555
O31 Th2 1_555 1_555
C6 C7 1_555 1_555
C11 C12 1_555 1_555
C13 C14 1_555 1_555
O8 Th5 1_555 1_555
O9 Th6 1_555 1_555
C20 C21 1_555 1_555
C25 C26 1_555 1_555
C27 C28 1_555 1_555
Th2 O30 1_555 1_555
C29 O15 1_555 1_555
O13 Th5 1_555 1_555
C34 C35 1_555 1_555
C39 C40 1_555 1_555
C41 C42 1_555 1_555
Th3 O29 1_555 1_555
O19 Th4 1_555 1_555
O19 Th6 1_555 1_555
Th4 O28 1_555 1_555
Th4 O31 1_555 1_555
Th5 O28 1_555 1_555
Th5 O30 1_555 1_555
Th6 O29 1_555 1_555
Th6 O31 1_555 1_555
Th4 O1_2 1_555 1_555
O1_2 C1_2 1_555 1_555
C1_2 C2_2 1_555 1_555
C2_2 C4_2 1_555 1_555
C3_2 C5_2 1_555 1_555
C4_2 H1_2 1_555 1_555
C5_2 C4_2 1_555 1_555
H2_2 C5_2 1_555 1_555
O3_2 Th4 1_555 1_555
O4_2 C1_2 1_555 1_555
C6_2 C2_2 1_555 1_555
H3_2 C6_2 1_555 1_555
C7_2 C3_2 1_555 1_555
H4_2 C7_2 1_555 1_555
O5_2 C8_2 1_555 1_555
C8_2 C9_2 1_555 1_555
C9_2 C11_2 1_555 1_555
C10_2 C3_2 1_555 1_555
C11_2 H5_2 1_555 1_555
C12_2 C10_2 1_555 1_555
H6_2 C12_2 1_555 1_555
O6_2 C8_2 1_555 1_555
C13_2 C9_2 1_555 1_555
H7_2 C13_2 1_555 1_555
C14_2 C10_2 1_555 1_555
H8_2 C14_2 1_555 1_555
O7_2 Th4 1_555 1_555
C15_2 O7_2 1_555 1_555
C16_2 C15_2 1_555 1_555
C17_2 C19_2 1_555 1_555
C18_2 C16_2 1_555 1_555
H9_2 C18_2 1_555 1_555
C19_2 C18_2 1_555 1_555
H10_2 C19_2 1_555 1_555
O9_2 C15_2 1_555 1_555
C20_2 C16_2 1_555 1_555
H11_2 C20_2 1_555 1_555
C21_2 C17_2 1_555 1_555
H12_2 C21_2 1_555 1_555
O10_2 C22_2 1_555 1_555
C22_2 C23_2 1_555 1_555
C23_2 C25_2 1_555 1_555
C24_2 C17_2 1_555 1_555
C25_2 H13_2 1_555 1_555
C26_2 C24_2 1_555 1_555
H14_2 C26_2 1_555 1_555
O11_2 C22_2 1_555 1_555
C27_2 C23_2 1_555 1_555
H15_2 C27_2 1_555 1_555
C28_2 C24_2 1_555 1_555
H16_2 C28_2 1_555 1_555
C29_2 O21 1_555 1_555
C30_2 C29_2 1_555 1_555
C31_2 C33_2 1_555 1_555
C32_2 C30_2 1_555 1_555
H17_2 C32_2 1_555 1_555
C33_2 C32_2 1_555 1_555
H18_2 C33_2 1_555 1_555
O15_2 Th4 1_555 1_555
C34_2 C30_2 1_555 1_555
H19_2 C34_2 1_555 1_555
C35_2 C31_2 1_555 1_555
H20_2 C35_2 1_555 1_555
O16_2 C36_2 1_555 1_555
C36_2 C37_2 1_555 1_555
C37_2 C39_2 1_555 1_555
C38_2 C31_2 1_555 1_555
C39_2 H21_2 1_555 1_555
C40_2 C38_2 1_555 1_555
H22_2 C40_2 1_555 1_555
O17_2 C36_2 1_555 1_555
C41_2 C37_2 1_555 1_555
H23_2 C41_2 1_555 1_555
C42_2 C38_2 1_555 1_555
H24_2 C42_2 1_555 1_555
Th6 O4_2 1_555 1_555
Th7_4 O17_2 1_555 1_555
Th8 O16_2 1_555 1_555
Th9_2 O10_2 1_555 1_555
Th9 O5_2 1_555 1_555
Th12 O11_2 1_555 1_555
Th11 O6_2 1_555 1_555
O27_2 Th4 1_555 1_555
C6_2 C7_2 1_555 1_555
C11_2 C12_2 1_555 1_555
C13_2 C14_2 1_555 1_555
O9_2 Th5 1_555 1_555
C20_2 C21_2 1_555 1_555
C25_2 C26_2 1_555 1_555
C27_2 C28_2 1_555 1_555
C29_2 O15_2 1_555 1_555
C34_2 C35_2 1_555 1_555
C39_2 C40_2 1_555 1_555
C41_2 C42_2 1_555 1_555
C29_3 O22 1_555 1_555
C30_3 C29_3 1_555 1_555
C31_3 C33_3 1_555 1_555
C32_3 C30_3 1_555 1_555
H17_3 C32_3 1_555 1_555
C33_3 C32_3 1_555 1_555
H18_3 C33_3 1_555 1_555
C34_3 C30_3 1_555 1_555
H19_3 C34_3 1_555 1_555
C35_3 C31_3 1_555 1_555
H20_3 C35_3 1_555 1_555
O16_3 C36_3 1_555 1_555
C36_3 C37_3 1_555 1_555
C37_3 C39_3 1_555 1_555
C38_3 C31_3 1_555 1_555
C39_3 H21_3 1_555 1_555
C40_3 C38_3 1_555 1_555
H22_3 C40_3 1_555 1_555
O17_3 C36_3 1_555 1_555
C41_3 C37_3 1_555 1_555
H23_3 C41_3 1_555 1_555
C42_3 C38_3 1_555 1_555
H24_3 C42_3 1_555 1_555
Th7 O17_3 1_555 1_555
Th8_4 O16_3 1_555 1_555
C29_3 O27 1_555 1_555
C34_3 C35_3 1_555 1_555
C39_3 C40_3 1_555 1_555
C41_3 C42_3 1_555 1_555
C29_4 O20 1_555 1_555
C30_4 C29_4 1_555 1_555
C31_4 C33_4 1_555 1_555
C32_4 C30_4 1_555 1_555
H17_4 C32_4 1_555 1_555
C33_4 C32_4 1_555 1_555
H18_4 C33_4 1_555 1_555
C34_4 C30_4 1_555 1_555
H19_4 C34_4 1_555 1_555
C35_4 C31_4 1_555 1_555
H20_4 C35_4 1_555 1_555
O16_4 C36_4 1_555 1_555
C36_4 C37_4 1_555 1_555
C37_4 C39_4 1_555 1_555
C38_4 C31_4 1_555 1_555
C39_4 H21_4 1_555 1_555
C40_4 C38_4 1_555 1_555
H22_4 C40_4 1_555 1_555
O17_4 C36_4 1_555 1_555
C41_4 C37_4 1_555 1_555
H23_4 C41_4 1_555 1_555
C42_4 C38_4 1_555 1_555
H24_4 C42_4 1_555 1_555
Th7_3 O17_4 1_555 1_555
Th8_3 O16_4 1_555 1_555
C29_4 O27_2 1_555 1_555
C34_4 C35_4 1_555 1_555
C39_4 C40_4 1_555 1_555
C41_4 C42_4 1_555 1_555
O12_2 Th5 1_555 1_555
C29_5 O12_2 1_555 1_555
C30_5 C29_5 1_555 1_555
C31_5 C33_5 1_555 1_555
C32_5 C30_5 1_555 1_555
H17_5 C32_5 1_555 1_555
C33_5 C32_5 1_555 1_555
H18_5 C33_5 1_555 1_555
O14_2 Th5 1_555 1_555
C34_5 C30_5 1_555 1_555
H19_5 C34_5 1_555 1_555
C35_5 C31_5 1_555 1_555
H20_5 C35_5 1_555 1_555
O16_5 C36_5 1_555 1_555
C36_5 C37_5 1_555 1_555
C37_5 C39_5 1_555 1_555
C38_5 C31_5 1_555 1_555
C39_5 H21_5 1_555 1_555
C40_5 C38_5 1_555 1_555
H22_5 C40_5 1_555 1_555
O17_5 C36_5 1_555 1_555
C41_5 C37_5 1_555 1_555
H23_5 C41_5 1_555 1_555
C42_5 C38_5 1_555 1_555
H24_5 C42_5 1_555 1_555
O18_2 Th6 1_555 1_555
Th7_6 O17_5 1_555 1_555
Th8_6 O16_5 1_555 1_555
O20_2 Th6 1_555 1_555
O21_2 Th5 1_555 1_555
O22_2 Th6 1_555 1_555
C29_5 O26 1_555 1_555
C34_5 C35_5 1_555 1_555
C39_5 C40_5 1_555 1_555
C41_5 C42_5 1_555 1_555
C29_6 O21_2 1_555 1_555
C30_6 C29_6 1_555 1_555
C31_6 C33_6 1_555 1_555
C32_6 C30_6 1_555 1_555
H17_6 C32_6 1_555 1_555
C33_6 C32_6 1_555 1_555
H18_6 C33_6 1_555 1_555
C34_6 C30_6 1_555 1_555
H19_6 C34_6 1_555 1_555
C35_6 C31_6 1_555 1_555
H20_6 C35_6 1_555 1_555
O16_6 C36_6 1_555 1_555
C36_6 C37_6 1_555 1_555
C37_6 C39_6 1_555 1_555
C38_6 C31_6 1_555 1_555
C39_6 H21_6 1_555 1_555
C40_6 C38_6 1_555 1_555
H22_6 C40_6 1_555 1_555
O17_6 C36_6 1_555 1_555
C41_6 C37_6 1_555 1_555
H23_6 C41_6 1_555 1_555
C42_6 C38_6 1_555 1_555
H24_6 C42_6 1_555 1_555
Th7_8 O17_6 1_555 1_555
Th8_5 O16_6 1_555 1_555
C29_6 O23 1_555 1_555
C34_6 C35_6 1_555 1_555
C39_6 C40_6 1_555 1_555
C41_6 C42_6 1_555 1_555
C29_7 O22_2 1_555 1_555
C30_7 C29_7 1_555 1_555
C31_7 C33_7 1_555 1_555
C32_7 C30_7 1_555 1_555
H17_7 C32_7 1_555 1_555
C33_7 C32_7 1_555 1_555
H18_7 C33_7 1_555 1_555
C34_7 C30_7 1_555 1_555
H19_7 C34_7 1_555 1_555
C35_7 C31_7 1_555 1_555
H20_7 C35_7 1_555 1_555
O16_7 C36_7 1_555 1_555
C36_7 C37_7 1_555 1_555
C37_7 C39_7 1_555 1_555
C38_7 C31_7 1_555 1_555
C39_7 H21_7 1_555 1_555
C40_7 C38_7 1_555 1_555
H22_7 C40_7 1_555 1_555
O17_7 C36_7 1_555 1_555
C41_7 C37_7 1_555 1_555
H23_7 C41_7 1_555 1_555
C42_7 C38_7 1_555 1_555
H24_7 C42_7 1_555 1_555
Th7_5 O17_7 1_555 1_555
Th8_8 O16_7 1_555 1_555
C29_7 O24 1_555 1_555
C34_7 C35_7 1_555 1_555
C39_7 C40_7 1_555 1_555
C41_7 C42_7 1_555 1_555
C29_8 O20_2 1_555 1_555
C30_8 C29_8 1_555 1_555
C31_8 C33_8 1_555 1_555
C32_8 C30_8 1_555 1_555
H17_8 C32_8 1_555 1_555
C33_8 C32_8 1_555 1_555
H18_8 C33_8 1_555 1_555
C34_8 C30_8 1_555 1_555
H19_8 C34_8 1_555 1_555
C35_8 C31_8 1_555 1_555
H20_8 C35_8 1_555 1_555
O16_8 C36_8 1_555 1_555
C36_8 C37_8 1_555 1_555
C37_8 C39_8 1_555 1_555
C38_8 C31_8 1_555 1_555
C39_8 H21_8 1_555 1_555
C40_8 C38_8 1_555 1_555
H22_8 C40_8 1_555 1_555
O17_8 C36_8 1_555 1_555
C41_8 C37_8 1_555 1_555
H23_8 C41_8 1_555 1_555
C42_8 C38_8 1_555 1_555
H24_8 C42_8 1_555 1_555
Th7_7 O17_8 1_555 1_555
Th8_7 O16_8 1_555 1_555
C29_8 O25 1_555 1_555
C34_8 C35_8 1_555 1_555
C39_8 C40_8 1_555 1_555
C41_8 C42_8 1_555 1_555
Th7_3 O1_3 1_555 1_555
O1_3 C1_3 1_555 1_555
C1_3 C2_3 1_555 1_555
C2_3 C4_3 1_555 1_555
O2_2 Th7_3 1_555 1_555
C3_3 C5_3 1_555 1_555
C4_3 H1_3 1_555 1_555
C5_3 C4_3 1_555 1_555
H2_3 C5_3 1_555 1_555
O3_3 Th7_3 1_555 1_555
O4_3 C1_3 1_555 1_555
C6_3 C2_3 1_555 1_555
H3_3 C6_3 1_555 1_555
C7_3 C3_3 1_555 1_555
H4_3 C7_3 1_555 1_555
O5_3 C8_3 1_555 1_555
C8_3 C9_3 1_555 1_555
C9_3 C11_3 1_555 1_555
C10_3 C3_3 1_555 1_555
C11_3 H5_3 1_555 1_555
C12_3 C10_3 1_555 1_555
H6_3 C12_3 1_555 1_555
O6_3 C8_3 1_555 1_555
C13_3 C9_3 1_555 1_555
H7_3 C13_3 1_555 1_555
C14_3 C10_3 1_555 1_555
H8_3 C14_3 1_555 1_555
O7_3 Th7_3 1_555 1_555
C15_3 O7_3 1_555 1_555
C16_3 C15_3 1_555 1_555
C17_3 C19_3 1_555 1_555
C18_3 C16_3 1_555 1_555
H9_3 C18_3 1_555 1_555
C19_3 C18_3 1_555 1_555
H10_3 C19_3 1_555 1_555
O9_3 C15_3 1_555 1_555
C20_3 C16_3 1_555 1_555
H11_3 C20_3 1_555 1_555
C21_3 C17_3 1_555 1_555
H12_3 C21_3 1_555 1_555
O10_3 C22_3 1_555 1_555
C22_3 C23_3 1_555 1_555
C23_3 C25_3 1_555 1_555
C24_3 C17_3 1_555 1_555
C25_3 H13_3 1_555 1_555
C26_3 C24_3 1_555 1_555
H14_3 C26_3 1_555 1_555
O11_3 C22_3 1_555 1_555
C27_3 C23_3 1_555 1_555
H15_3 C27_3 1_555 1_555
C28_3 C24_3 1_555 1_555
H16_3 C28_3 1_555 1_555
Th8_3 O2_2 1_555 1_555
O14_3 Th8_3 1_555 1_555
Th5_2 O4_3 1_555 1_555
Th6_2 O2_2 1_555 1_555
Th10_3 O10_3 1_555 1_555
Th10_5 O5_3 1_555 1_555
Th8_7 O11_3 1_555 1_555
Th8_5 O6_3 1_555 1_555
O24_2 Th8_3 1_555 1_555
O26_2 Th8_3 1_555 1_555
O30_2 Th7_3 1_555 1_555
C6_3 C7_3 1_555 1_555
C11_3 C12_3 1_555 1_555
C13_3 C14_3 1_555 1_555
O9_3 Th6_2 1_555 1_555
C20_3 C21_3 1_555 1_555
C25_3 C26_3 1_555 1_555
C27_3 C28_3 1_555 1_555
Th8_3 O30_2 1_555 1_555
Th5_2 O30_2 1_555 1_555
Th7_4 O1_4 1_555 1_555
O1_4 C1_4 1_555 1_555
C1_4 C2_4 1_555 1_555
C2_4 C4_4 1_555 1_555
C3_4 C5_4 1_555 1_555
C4_4 H1_4 1_555 1_555
C5_4 C4_4 1_555 1_555
H2_4 C5_4 1_555 1_555
O3_4 Th7_4 1_555 1_555
O4_4 C1_4 1_555 1_555
C6_4 C2_4 1_555 1_555
H3_4 C6_4 1_555 1_555
C7_4 C3_4 1_555 1_555
H4_4 C7_4 1_555 1_555
O5_4 C8_4 1_555 1_555
C8_4 C9_4 1_555 1_555
C9_4 C11_4 1_555 1_555
C10_4 C3_4 1_555 1_555
C11_4 H5_4 1_555 1_555
C12_4 C10_4 1_555 1_555
H6_4 C12_4 1_555 1_555
O6_4 C8_4 1_555 1_555
C13_4 C9_4 1_555 1_555
H7_4 C13_4 1_555 1_555
C14_4 C10_4 1_555 1_555
H8_4 C14_4 1_555 1_555
O7_4 Th7_4 1_555 1_555
C15_4 O7_4 1_555 1_555
C16_4 C15_4 1_555 1_555
O8_2 Th7_4 1_555 1_555
C17_4 C19_4 1_555 1_555
C18_4 C16_4 1_555 1_555
H9_4 C18_4 1_555 1_555
C19_4 C18_4 1_555 1_555
H10_4 C19_4 1_555 1_555
O9_4 C15_4 1_555 1_555
C20_4 C16_4 1_555 1_555
H11_4 C20_4 1_555 1_555
C21_4 C17_4 1_555 1_555
H12_4 C21_4 1_555 1_555
O10_4 C22_4 1_555 1_555
C22_4 C23_4 1_555 1_555
C23_4 C25_4 1_555 1_555
C24_4 C17_4 1_555 1_555
C25_4 H13_4 1_555 1_555
C26_4 C24_4 1_555 1_555
H14_4 C26_4 1_555 1_555
O11_4 C22_4 1_555 1_555
C27_4 C23_4 1_555 1_555
H15_4 C27_4 1_555 1_555
C28_4 C24_4 1_555 1_555
H16_4 C28_4 1_555 1_555
Th8 O8_2 1_555 1_555
O18_3 Th8 1_555 1_555
Th5_3 O4_4 1_555 1_555
Th10_4 O10_4 1_555 1_555
Th10_6 O5_4 1_555 1_555
Th8_8 O11_4 1_555 1_555
Th8_6 O6_4 1_555 1_555
O23_2 Th8 1_555 1_555
O25_2 Th8 1_555 1_555
O29_2 Th7_4 1_555 1_555
C6_4 C7_4 1_555 1_555
C11_4 C12_4 1_555 1_555
C13_4 C14_4 1_555 1_555
O8_2 Th5_3 1_555 1_555
O9_4 Th6_3 1_555 1_555
C20_4 C21_4 1_555 1_555
C25_4 C26_4 1_555 1_555
C27_4 C28_4 1_555 1_555
Th8 O29_2 1_555 1_555
Th6_3 O29_2 1_555 1_555
O13_2 Th8_4 1_555 1_555
O14_4 Th8_4 1_555 1_555
Th7 O13_2 1_555 1_555
O24_3 Th8_4 1_555 1_555
O26_3 Th8_4 1_555 1_555
O31_2 Th8_4 1_555 1_555
O13_2 Th5_4 1_555 1_555
Th7 O31_2 1_555 1_555
Th6_4 O31_2 1_555 1_555
O18_4 Th8_2 1_555 1_555
O19_2 Th8_2 1_555 1_555
O23_3 Th8_2 1_555 1_555
O25_3 Th8_2 1_555 1_555
O28_2 Th8_2 1_555 1_555
O19_2 Th7_2 1_555 1_555
O19_2 Th6_5 1_555 1_555
Th7_2 O28_2 1_555 1_555
Th5_5 O28_2 1_555 1_555
Th7 O1_5 1_555 1_555
O1_5 C1_5 1_555 1_555
C1_5 C2_5 1_555 1_555
C2_5 C4_5 1_555 1_555
C3_5 C5_5 1_555 1_555
C4_5 H1_5 1_555 1_555
C5_5 C4_5 1_555 1_555
H2_5 C5_5 1_555 1_555
O3_5 Th7 1_555 1_555
O4_5 C1_5 1_555 1_555
C6_5 C2_5 1_555 1_555
H3_5 C6_5 1_555 1_555
C7_5 C3_5 1_555 1_555
H4_5 C7_5 1_555 1_555
O5_5 C8_5 1_555 1_555
C8_5 C9_5 1_555 1_555
C9_5 C11_5 1_555 1_555
C10_5 C3_5 1_555 1_555
C11_5 H5_5 1_555 1_555
C12_5 C10_5 1_555 1_555
H6_5 C12_5 1_555 1_555
O6_5 C8_5 1_555 1_555
C13_5 C9_5 1_555 1_555
H7_5 C13_5 1_555 1_555
C14_5 C10_5 1_555 1_555
H8_5 C14_5 1_555 1_555
O7_5 Th7 1_555 1_555
C15_5 O7_5 1_555 1_555
C16_5 C15_5 1_555 1_555
C17_5 C19_5 1_555 1_555
C18_5 C16_5 1_555 1_555
H9_5 C18_5 1_555 1_555
C19_5 C18_5 1_555 1_555
H10_5 C19_5 1_555 1_555
O9_5 C15_5 1_555 1_555
C20_5 C16_5 1_555 1_555
H11_5 C20_5 1_555 1_555
C21_5 C17_5 1_555 1_555
H12_5 C21_5 1_555 1_555
O10_5 C22_5 1_555 1_555
C22_5 C23_5 1_555 1_555
C23_5 C25_5 1_555 1_555
C24_5 C17_5 1_555 1_555
C25_5 H13_5 1_555 1_555
C26_5 C24_5 1_555 1_555
H14_5 C26_5 1_555 1_555
O11_5 C22_5 1_555 1_555
C27_5 C23_5 1_555 1_555
H15_5 C27_5 1_555 1_555
C28_5 C24_5 1_555 1_555
H16_5 C28_5 1_555 1_555
Th6_4 O4_5 1_555 1_555
Th9_5 O10_5 1_555 1_555
Th9_3 O5_5 1_555 1_555
Th8_5 O11_5 1_555 1_555
Th8_7 O6_5 1_555 1_555
C6_5 C7_5 1_555 1_555
C11_5 C12_5 1_555 1_555
C13_5 C14_5 1_555 1_555
O9_5 Th5_4 1_555 1_555
C20_5 C21_5 1_555 1_555
C25_5 C26_5 1_555 1_555
C27_5 C28_5 1_555 1_555
Th7_2 O1_6 1_555 1_555
O1_6 C1_6 1_555 1_555
C1_6 C2_6 1_555 1_555
C2_6 C4_6 1_555 1_555
C3_6 C5_6 1_555 1_555
C4_6 H1_6 1_555 1_555
C5_6 C4_6 1_555 1_555
H2_6 C5_6 1_555 1_555
O3_6 Th7_2 1_555 1_555
O4_6 C1_6 1_555 1_555
C6_6 C2_6 1_555 1_555
H3_6 C6_6 1_555 1_555
C7_6 C3_6 1_555 1_555
H4_6 C7_6 1_555 1_555
O5_6 C8_6 1_555 1_555
C8_6 C9_6 1_555 1_555
C9_6 C11_6 1_555 1_555
C10_6 C3_6 1_555 1_555
C11_6 H5_6 1_555 1_555
C12_6 C10_6 1_555 1_555
H6_6 C12_6 1_555 1_555
O6_6 C8_6 1_555 1_555
C13_6 C9_6 1_555 1_555
H7_6 C13_6 1_555 1_555
C14_6 C10_6 1_555 1_555
H8_6 C14_6 1_555 1_555
O7_6 Th7_2 1_555 1_555
C15_6 O7_6 1_555 1_555
C16_6 C15_6 1_555 1_555
C17_6 C19_6 1_555 1_555
C18_6 C16_6 1_555 1_555
H9_6 C18_6 1_555 1_555
C19_6 C18_6 1_555 1_555
H10_6 C19_6 1_555 1_555
O9_6 C15_6 1_555 1_555
C20_6 C16_6 1_555 1_555
H11_6 C20_6 1_555 1_555
C21_6 C17_6 1_555 1_555
H12_6 C21_6 1_555 1_555
O10_6 C22_6 1_555 1_555
C22_6 C23_6 1_555 1_555
C23_6 C25_6 1_555 1_555
C24_6 C17_6 1_555 1_555
C25_6 H13_6 1_555 1_555
C26_6 C24_6 1_555 1_555
H14_6 C26_6 1_555 1_555
O11_6 C22_6 1_555 1_555
C27_6 C23_6 1_555 1_555
H15_6 C27_6 1_555 1_555
C28_6 C24_6 1_555 1_555
H16_6 C28_6 1_555 1_555
Th6_5 O4_6 1_555 1_555
Th9_6 O10_6 1_555 1_555
Th9_4 O5_6 1_555 1_555
Th8_6 O11_6 1_555 1_555
Th8_8 O6_6 1_555 1_555
C6_6 C7_6 1_555 1_555
C11_6 C12_6 1_555 1_555
C13_6 C14_6 1_555 1_555
O9_6 Th5_5 1_555 1_555
C20_6 C21_6 1_555 1_555
C25_6 C26_6 1_555 1_555
C27_6 C28_6 1_555 1_555
O12_3 Th5_2 1_555 1_555
C29_9 O12_3 1_555 1_555
C30_9 C29_9 1_555 1_555
C31_9 C33_9 1_555 1_555
C32_9 C30_9 1_555 1_555
H17_9 C32_9 1_555 1_555
C33_9 C32_9 1_555 1_555
H18_9 C33_9 1_555 1_555
O14_5 Th5_2 1_555 1_555
C34_9 C30_9 1_555 1_555
H19_9 C34_9 1_555 1_555
C35_9 C31_9 1_555 1_555
H20_9 C35_9 1_555 1_555
O16_9 C36_9 1_555 1_555
C36_9 C37_9 1_555 1_555
C37_9 C39_9 1_555 1_555
C38_9 C31_9 1_555 1_555
C39_9 H21_9 1_555 1_555
C40_9 C38_9 1_555 1_555
H22_9 C40_9 1_555 1_555
O17_9 C36_9 1_555 1_555
C41_9 C37_9 1_555 1_555
H23_9 C41_9 1_555 1_555
C42_9 C38_9 1_555 1_555
H24_9 C42_9 1_555 1_555
O18_5 Th6_2 1_555 1_555
Th7_11 O17_9 1_555 1_555
Th12 O16_9 1_555 1_555
O22_3 Th6_2 1_555 1_555
C29_9 O26_2 1_555 1_555
C34_9 C35_9 1_555 1_555
C39_9 C40_9 1_555 1_555
C41_9 C42_9 1_555 1_555
O14_6 Th5_3 1_555 1_555
O18_6 Th6_3 1_555 1_555
O20_3 Th6_3 1_555 1_555
O21_3 Th5_3 1_555 1_555
O12_4 Th5_4 1_555 1_555
C29_10 O12_4 1_555 1_555
C30_10 C29_10 1_555 1_555
C31_10 C33_10 1_555 1_555
C32_10 C30_10 1_555 1_555
H17_10 C32_10 1_555 1_555
C33_10 C32_10 1_555 1_555
H18_10 C33_10 1_555 1_555
O14_7 Th5_4 1_555 1_555
C34_10 C30_10 1_555 1_555
H19_10 C34_10 1_555 1_555
C35_10 C31_10 1_555 1_555
H20_10 C35_10 1_555 1_555
O16_10 C36_10 1_555 1_555
C36_10 C37_10 1_555 1_555
C37_10 C39_10 1_555 1_555
C38_10 C31_10 1_555 1_555
C39_10 H21_10 1_555 1_555
C40_10 C38_10 1_555 1_555
H22_10 C40_10 1_555 1_555
O17_10 C36_10 1_555 1_555
C41_10 C37_10 1_555 1_555
H23_10 C41_10 1_555 1_555
C42_10 C38_10 1_555 1_555
H24_10 C42_10 1_555 1_555
O18_7 Th6_4 1_555 1_555
Th7_12 O17_10 1_555 1_555
Th12_2 O16_10 1_555 1_555
O22_4 Th6_4 1_555 1_555
C29_10 O26_3 1_555 1_555
C34_10 C35_10 1_555 1_555
C39_10 C40_10 1_555 1_555
C41_10 C42_10 1_555 1_555
O14_8 Th5_5 1_555 1_555
O18_8 Th6_5 1_555 1_555
O20_4 Th6_5 1_555 1_555
O21_4 Th5_5 1_555 1_555
C29_11 O21_3 1_555 1_555
C30_11 C29_11 1_555 1_555
C31_11 C33_11 1_555 1_555
C32_11 C30_11 1_555 1_555
H17_11 C32_11 1_555 1_555
C33_11 C32_11 1_555 1_555
H18_11 C33_11 1_555 1_555
C34_11 C30_11 1_555 1_555
H19_11 C34_11 1_555 1_555
C35_11 C31_11 1_555 1_555
H20_11 C35_11 1_555 1_555
O16_11 C36_11 1_555 1_555
C36_11 C37_11 1_555 1_555
C37_11 C39_11 1_555 1_555
C38_11 C31_11 1_555 1_555
C39_11 H21_11 1_555 1_555
C40_11 C38_11 1_555 1_555
H22_11 C40_11 1_555 1_555
O17_11 C36_11 1_555 1_555
C41_11 C37_11 1_555 1_555
H23_11 C41_11 1_555 1_555
C42_11 C38_11 1_555 1_555
H24_11 C42_11 1_555 1_555
Th7_15 O17_11 1_555 1_555
Th12 O16_11 1_555 1_555
C29_11 O23_2 1_555 1_555
C34_11 C35_11 1_555 1_555
C39_11 C40_11 1_555 1_555
C41_11 C42_11 1_555 1_555
C29_12 O21_4 1_555 1_555
C30_12 C29_12 1_555 1_555
C31_12 C33_12 1_555 1_555
C32_12 C30_12 1_555 1_555
H17_12 C32_12 1_555 1_555
C33_12 C32_12 1_555 1_555
H18_12 C33_12 1_555 1_555
C34_12 C30_12 1_555 1_555
H19_12 C34_12 1_555 1_555
C35_12 C31_12 1_555 1_555
H20_12 C35_12 1_555 1_555
O16_12 C36_12 1_555 1_555
C36_12 C37_12 1_555 1_555
C37_12 C39_12 1_555 1_555
C38_12 C31_12 1_555 1_555
C39_12 H21_12 1_555 1_555
C40_12 C38_12 1_555 1_555
H22_12 C40_12 1_555 1_555
O17_12 C36_12 1_555 1_555
C41_12 C37_12 1_555 1_555
H23_12 C41_12 1_555 1_555
C42_12 C38_12 1_555 1_555
H24_12 C42_12 1_555 1_555
Th7_16 O17_12 1_555 1_555
Th12_2 O16_12 1_555 1_555
C29_12 O23_3 1_555 1_555
C34_12 C35_12 1_555 1_555
C39_12 C40_12 1_555 1_555
C41_12 C42_12 1_555 1_555
C29_13 O22_3 1_555 1_555
C30_13 C29_13 1_555 1_555
C31_13 C33_13 1_555 1_555
C32_13 C30_13 1_555 1_555
H17_13 C32_13 1_555 1_555
C33_13 C32_13 1_555 1_555
H18_13 C33_13 1_555 1_555
C34_13 C30_13 1_555 1_555
H19_13 C34_13 1_555 1_555
C35_13 C31_13 1_555 1_555
H20_13 C35_13 1_555 1_555
O16_13 C36_13 1_555 1_555
C36_13 C37_13 1_555 1_555
C37_13 C39_13 1_555 1_555
C38_13 C31_13 1_555 1_555
C39_13 H21_13 1_555 1_555
C40_13 C38_13 1_555 1_555
H22_13 C40_13 1_555 1_555
O17_13 C36_13 1_555 1_555
C41_13 C37_13 1_555 1_555
H23_13 C41_13 1_555 1_555
C42_13 C38_13 1_555 1_555
H24_13 C42_13 1_555 1_555
Th7_9 O17_13 1_555 1_555
Th11 O16_13 1_555 1_555
C29_13 O24_2 1_555 1_555
C34_13 C35_13 1_555 1_555
C39_13 C40_13 1_555 1_555
C41_13 C42_13 1_555 1_555
C29_14 O22_4 1_555 1_555
C30_14 C29_14 1_555 1_555
C31_14 C33_14 1_555 1_555
C32_14 C30_14 1_555 1_555
H17_14 C32_14 1_555 1_555
C33_14 C32_14 1_555 1_555
H18_14 C33_14 1_555 1_555
C34_14 C30_14 1_555 1_555
H19_14 C34_14 1_555 1_555
C35_14 C31_14 1_555 1_555
H20_14 C35_14 1_555 1_555
O16_14 C36_14 1_555 1_555
C36_14 C37_14 1_555 1_555
C37_14 C39_14 1_555 1_555
C38_14 C31_14 1_555 1_555
C39_14 H21_14 1_555 1_555
C40_14 C38_14 1_555 1_555
H22_14 C40_14 1_555 1_555
O17_14 C36_14 1_555 1_555
C41_14 C37_14 1_555 1_555
H23_14 C41_14 1_555 1_555
C42_14 C38_14 1_555 1_555
H24_14 C42_14 1_555 1_555
Th7_10 O17_14 1_555 1_555
Th11_2 O16_14 1_555 1_555
C29_14 O24_3 1_555 1_555
C34_14 C35_14 1_555 1_555
C39_14 C40_14 1_555 1_555
C41_14 C42_14 1_555 1_555
C29_15 O20_3 1_555 1_555
C30_15 C29_15 1_555 1_555
C31_15 C33_15 1_555 1_555
C32_15 C30_15 1_555 1_555
H17_15 C32_15 1_555 1_555
C33_15 C32_15 1_555 1_555
H18_15 C33_15 1_555 1_555
C34_15 C30_15 1_555 1_555
H19_15 C34_15 1_555 1_555
C35_15 C31_15 1_555 1_555
H20_15 C35_15 1_555 1_555
O16_15 C36_15 1_555 1_555
C36_15 C37_15 1_555 1_555
C37_15 C39_15 1_555 1_555
C38_15 C31_15 1_555 1_555
C39_15 H21_15 1_555 1_555
C40_15 C38_15 1_555 1_555
H22_15 C40_15 1_555 1_555
O17_15 C36_15 1_555 1_555
C41_15 C37_15 1_555 1_555
H23_15 C41_15 1_555 1_555
C42_15 C38_15 1_555 1_555
H24_15 C42_15 1_555 1_555
Th7_13 O17_15 1_555 1_555
Th11 O16_15 1_555 1_555
C29_15 O25_2 1_555 1_555
C34_15 C35_15 1_555 1_555
C39_15 C40_15 1_555 1_555
C41_15 C42_15 1_555 1_555
C29_16 O20_4 1_555 1_555
C30_16 C29_16 1_555 1_555
C31_16 C33_16 1_555 1_555
C32_16 C30_16 1_555 1_555
H17_16 C32_16 1_555 1_555
C33_16 C32_16 1_555 1_555
H18_16 C33_16 1_555 1_555
C34_16 C30_16 1_555 1_555
H19_16 C34_16 1_555 1_555
C35_16 C31_16 1_555 1_555
H20_16 C35_16 1_555 1_555
O16_16 C36_16 1_555 1_555
C36_16 C37_16 1_555 1_555
C37_16 C39_16 1_555 1_555
C38_16 C31_16 1_555 1_555
C39_16 H21_16 1_555 1_555
C40_16 C38_16 1_555 1_555
H22_16 C40_16 1_555 1_555
O17_16 C36_16 1_555 1_555
C41_16 C37_16 1_555 1_555
H23_16 C41_16 1_555 1_555
C42_16 C38_16 1_555 1_555
H24_16 C42_16 1_555 1_555
Th7_14 O17_16 1_555 1_555
Th11_2 O16_16 1_555 1_555
C29_16 O25_3 1_555 1_555
C34_16 C35_16 1_555 1_555
C39_16 C40_16 1_555 1_555
C41_16 C42_16 1_555 1_555
O3_7 Th9_3 1_555 1_555
O12_5 Th7_7 1_555 1_555
C29_17 O12_5 1_555 1_555
C30_17 C29_17 1_555 1_555
O13_3 Th7_7 1_555 1_555
C31_17 C33_17 1_555 1_555
C32_17 C30_17 1_555 1_555
H17_17 C32_17 1_555 1_555
C33_17 C32_17 1_555 1_555
H18_17 C33_17 1_555 1_555
O14_9 Th7_7 1_555 1_555
O15_3 Th9_3 1_555 1_555
C34_17 C30_17 1_555 1_555
H19_17 C34_17 1_555 1_555
C35_17 C31_17 1_555 1_555
H20_17 C35_17 1_555 1_555
O16_17 C36_17 1_555 1_555
C36_17 C37_17 1_555 1_555
C37_17 C39_17 1_555 1_555
C38_17 C31_17 1_555 1_555
C39_17 H21_17 1_555 1_555
C40_17 C38_17 1_555 1_555
H22_17 C40_17 1_555 1_555
O17_17 C36_17 1_555 1_555
C41_17 C37_17 1_555 1_555
H23_17 C41_17 1_555 1_555
C42_17 C38_17 1_555 1_555
H24_17 C42_17 1_555 1_555
Th10_3 O13_3 1_555 1_555
Th10 O17_17 1_555 1_555
Th7_10 O16_17 1_555 1_555
O21_5 Th7_7 1_555 1_555
O30_3 Th9_3 1_555 1_555
Th7_7 O30_3 1_555 1_555
C29_17 O15_3 1_555 1_555
O13_3 Th8_7 1_555 1_555
C34_17 C35_17 1_555 1_555
C39_17 C40_17 1_555 1_555
C41_17 C42_17 1_555 1_555
Th8_7 O30_3 1_555 1_555
O3_8 Th9_4 1_555 1_555
O8_3 Th9_4 1_555 1_555
Th7_5 O8_3 1_555 1_555
O18_9 Th7_5 1_555 1_555
O20_5 Th7_5 1_555 1_555
O22_5 Th7_5 1_555 1_555
O27_3 Th9_4 1_555 1_555
O28_3 Th7_5 1_555 1_555
O8_3 Th8_8 1_555 1_555
Th10_4 O28_3 1_555 1_555
Th8_8 O28_3 1_555 1_555
O2_3 Th9_5 1_555 1_555
O3_9 Th9_5 1_555 1_555
Th7_8 O2_3 1_555 1_555
O12_6 Th7_8 1_555 1_555
C29_18 O12_6 1_555 1_555
C30_18 C29_18 1_555 1_555
C31_18 C33_18 1_555 1_555
C32_18 C30_18 1_555 1_555
H17_18 C32_18 1_555 1_555
C33_18 C32_18 1_555 1_555
H18_18 C33_18 1_555 1_555
O14_10 Th7_8 1_555 1_555
O15_4 Th9_5 1_555 1_555
C34_18 C30_18 1_555 1_555
H19_18 C34_18 1_555 1_555
C35_18 C31_18 1_555 1_555
H20_18 C35_18 1_555 1_555
O16_18 C36_18 1_555 1_555
C36_18 C37_18 1_555 1_555
C37_18 C39_18 1_555 1_555
C38_18 C31_18 1_555 1_555
C39_18 H21_18 1_555 1_555
C40_18 C38_18 1_555 1_555
H22_18 C40_18 1_555 1_555
O17_18 C36_18 1_555 1_555
C41_18 C37_18 1_555 1_555
H23_18 C41_18 1_555 1_555
C42_18 C38_18 1_555 1_555
H24_18 C42_18 1_555 1_555
Th8_5 O2_3 1_555 1_555
Th10_2 O17_18 1_555 1_555
Th7_12 O16_18 1_555 1_555
O21_6 Th7_8 1_555 1_555
O31_3 Th7_8 1_555 1_555
C29_18 O15_4 1_555 1_555
C34_18 C35_18 1_555 1_555
C39_18 C40_18 1_555 1_555
C41_18 C42_18 1_555 1_555
Th10_5 O31_3 1_555 1_555
Th8_5 O31_3 1_555 1_555
O3_10 Th9_6 1_555 1_555
O18_10 Th7_6 1_555 1_555
O19_3 Th7_6 1_555 1_555
O20_6 Th7_6 1_555 1_555
O22_6 Th7_6 1_555 1_555
O27_4 Th9_6 1_555 1_555
O29_3 Th9_6 1_555 1_555
Th7_6 O29_3 1_555 1_555
O19_3 Th10_6 1_555 1_555
O19_3 Th8_6 1_555 1_555
Th8_6 O29_3 1_555 1_555
O3_11 Th10_3 1_555 1_555
C29_19 O21_5 1_555 1_555
C30_19 C29_19 1_555 1_555
C31_19 C33_19 1_555 1_555
C32_19 C30_19 1_555 1_555
H17_19 C32_19 1_555 1_555
C33_19 C32_19 1_555 1_555
H18_19 C33_19 1_555 1_555
O15_5 Th10_3 1_555 1_555
C34_19 C30_19 1_555 1_555
H19_19 C34_19 1_555 1_555
C35_19 C31_19 1_555 1_555
H20_19 C35_19 1_555 1_555
O16_19 C36_19 1_555 1_555
C36_19 C37_19 1_555 1_555
C37_19 C39_19 1_555 1_555
C38_19 C31_19 1_555 1_555
C39_19 H21_19 1_555 1_555
C40_19 C38_19 1_555 1_555
H22_19 C40_19 1_555 1_555
O17_19 C36_19 1_555 1_555
C41_19 C37_19 1_555 1_555
H23_19 C41_19 1_555 1_555
C42_19 C38_19 1_555 1_555
H24_19 C42_19 1_555 1_555
Th9 O17_19 1_555 1_555
Th7_9 O16_19 1_555 1_555
C29_19 O15_5 1_555 1_555
C34_19 C35_19 1_555 1_555
C39_19 C40_19 1_555 1_555
C41_19 C42_19 1_555 1_555
O3_12 Th10_4 1_555 1_555
O27_5 Th10_4 1_555 1_555
O3_13 Th10_5 1_555 1_555
C29_20 O21_6 1_555 1_555
C30_20 C29_20 1_555 1_555
C31_20 C33_20 1_555 1_555
C32_20 C30_20 1_555 1_555
H17_20 C32_20 1_555 1_555
C33_20 C32_20 1_555 1_555
H18_20 C33_20 1_555 1_555
O15_6 Th10_5 1_555 1_555
C34_20 C30_20 1_555 1_555
H19_20 C34_20 1_555 1_555
C35_20 C31_20 1_555 1_555
H20_20 C35_20 1_555 1_555
O16_20 C36_20 1_555 1_555
C36_20 C37_20 1_555 1_555
C37_20 C39_20 1_555 1_555
C38_20 C31_20 1_555 1_555
C39_20 H21_20 1_555 1_555
C40_20 C38_20 1_555 1_555
H22_20 C40_20 1_555 1_555
O17_20 C36_20 1_555 1_555
C41_20 C37_20 1_555 1_555
H23_20 C41_20 1_555 1_555
C42_20 C38_20 1_555 1_555
H24_20 C42_20 1_555 1_555
Th9_2 O17_20 1_555 1_555
Th7_11 O16_20 1_555 1_555
C29_20 O15_6 1_555 1_555
C34_20 C35_20 1_555 1_555
C39_20 C40_20 1_555 1_555
C41_20 C42_20 1_555 1_555
O3_14 Th10_6 1_555 1_555
O27_6 Th10_6 1_555 1_555
C29_21 O22_5 1_555 1_555
C30_21 C29_21 1_555 1_555
C31_21 C33_21 1_555 1_555
C32_21 C30_21 1_555 1_555
H17_21 C32_21 1_555 1_555
C33_21 C32_21 1_555 1_555
H18_21 C33_21 1_555 1_555
C34_21 C30_21 1_555 1_555
H19_21 C34_21 1_555 1_555
C35_21 C31_21 1_555 1_555
H20_21 C35_21 1_555 1_555
O16_21 C36_21 1_555 1_555
C36_21 C37_21 1_555 1_555
C37_21 C39_21 1_555 1_555
C38_21 C31_21 1_555 1_555
C39_21 H21_21 1_555 1_555
C40_21 C38_21 1_555 1_555
H22_21 C40_21 1_555 1_555
O17_21 C36_21 1_555 1_555
C41_21 C37_21 1_555 1_555
H23_21 C41_21 1_555 1_555
C42_21 C38_21 1_555 1_555
H24_21 C42_21 1_555 1_555
Th10 O17_21 1_555 1_555
Th7_14 O16_21 1_555 1_555
C29_21 O27_3 1_555 1_555
C34_21 C35_21 1_555 1_555
C39_21 C40_21 1_555 1_555
C41_21 C42_21 1_555 1_555
C29_22 O22_6 1_555 1_555
C30_22 C29_22 1_555 1_555
C31_22 C33_22 1_555 1_555
C32_22 C30_22 1_555 1_555
H17_22 C32_22 1_555 1_555
C33_22 C32_22 1_555 1_555
H18_22 C33_22 1_555 1_555
C34_22 C30_22 1_555 1_555
H19_22 C34_22 1_555 1_555
C35_22 C31_22 1_555 1_555
H20_22 C35_22 1_555 1_555
O16_22 C36_22 1_555 1_555
C36_22 C37_22 1_555 1_555
C37_22 C39_22 1_555 1_555
C38_22 C31_22 1_555 1_555
C39_22 H21_22 1_555 1_555
C40_22 C38_22 1_555 1_555
H22_22 C40_22 1_555 1_555
O17_22 C36_22 1_555 1_555
C41_22 C37_22 1_555 1_555
H23_22 C41_22 1_555 1_555
C42_22 C38_22 1_555 1_555
H24_22 C42_22 1_555 1_555
Th10_2 O17_22 1_555 1_555
Th7_16 O16_22 1_555 1_555
C29_22 O27_4 1_555 1_555
C34_22 C35_22 1_555 1_555
C39_22 C40_22 1_555 1_555
C41_22 C42_22 1_555 1_555
C29_23 O20_5 1_555 1_555
C30_23 C29_23 1_555 1_555
C31_23 C33_23 1_555 1_555
C32_23 C30_23 1_555 1_555
H17_23 C32_23 1_555 1_555
C33_23 C32_23 1_555 1_555
H18_23 C33_23 1_555 1_555
C34_23 C30_23 1_555 1_555
H19_23 C34_23 1_555 1_555
C35_23 C31_23 1_555 1_555
H20_23 C35_23 1_555 1_555
O16_23 C36_23 1_555 1_555
C36_23 C37_23 1_555 1_555
C37_23 C39_23 1_555 1_555
C38_23 C31_23 1_555 1_555
C39_23 H21_23 1_555 1_555
C40_23 C38_23 1_555 1_555
H22_23 C40_23 1_555 1_555
O17_23 C36_23 1_555 1_555
C41_23 C37_23 1_555 1_555
H23_23 C41_23 1_555 1_555
C42_23 C38_23 1_555 1_555
H24_23 C42_23 1_555 1_555
Th9 O17_23 1_555 1_555
Th7_13 O16_23 1_555 1_555
C29_23 O27_5 1_555 1_555
C34_23 C35_23 1_555 1_555
C39_23 C40_23 1_555 1_555
C41_23 C42_23 1_555 1_555
C29_24 O20_6 1_555 1_555
C30_24 C29_24 1_555 1_555
C31_24 C33_24 1_555 1_555
C32_24 C30_24 1_555 1_555
H17_24 C32_24 1_555 1_555
C33_24 C32_24 1_555 1_555
H18_24 C33_24 1_555 1_555
C34_24 C30_24 1_555 1_555
H19_24 C34_24 1_555 1_555
C35_24 C31_24 1_555 1_555
H20_24 C35_24 1_555 1_555
O16_24 C36_24 1_555 1_555
C36_24 C37_24 1_555 1_555
C37_24 C39_24 1_555 1_555
C38_24 C31_24 1_555 1_555
C39_24 H21_24 1_555 1_555
C40_24 C38_24 1_555 1_555
H22_24 C40_24 1_555 1_555
O17_24 C36_24 1_555 1_555
C41_24 C37_24 1_555 1_555
H23_24 C41_24 1_555 1_555
C42_24 C38_24 1_555 1_555
H24_24 C42_24 1_555 1_555
Th9_2 O17_24 1_555 1_555
Th7_15 O16_24 1_555 1_555
C29_24 O27_6 1_555 1_555
C34_24 C35_24 1_555 1_555
C39_24 C40_24 1_555 1_555
C41_24 C42_24 1_555 1_555
O14_11 Th8_7 1_555 1_555
O14_12 Th8_8 1_555 1_555
O18_11 Th8_5 1_555 1_555
O18_12 Th8_6 1_555 1_555
O3_15 Th9 1_555 1_555
O8_4 Th9 1_555 1_555
O14_13 Th7_13 1_555 1_555
Th7_9 O8_4 1_555 1_555
O18_13 Th7_9 1_555 1_555
O30_4 Th9 1_555 1_555
O8_4 Th11 1_555 1_555
Th7_13 O30_4 1_555 1_555
Th11 O30_4 1_555 1_555
O13_4 Th7_14 1_555 1_555
O14_14 Th7_14 1_555 1_555
O18_14 Th7_10 1_555 1_555
Th10 O13_4 1_555 1_555
O28_4 Th7_10 1_555 1_555
O13_4 Th11_2 1_555 1_555
Th10 O28_4 1_555 1_555
Th11_2 O28_4 1_555 1_555
O2_4 Th9_2 1_555 1_555
O3_16 Th9_2 1_555 1_555
Th7_15 O2_4 1_555 1_555
O14_15 Th7_15 1_555 1_555
O18_15 Th7_11 1_555 1_555
Th12 O2_4 1_555 1_555
O29_4 Th9_2 1_555 1_555
Th7_11 O29_4 1_555 1_555
Th12 O29_4 1_555 1_555
O14_16 Th7_16 1_555 1_555
O18_16 Th7_12 1_555 1_555
O19_4 Th7_12 1_555 1_555
O31_4 Th7_16 1_555 1_555
O19_4 Th10_2 1_555 1_555
O19_4 Th12_2 1_555 1_555
Th10_2 O31_4 1_555 1_555
Th12_2 O31_4 1_555 1_555
O3_17 Th10 1_555 1_555
O3_18 Th10_2 1_555 1_555
O14_17 Th11 1_555 1_555
O14_18 Th11_2 1_555 1_555
O18_17 Th12 1_555 1_555
O18_18 Th12_2 1_555 1_555

#END
