
###############################################################################
#
# This file contains modified crystal structure data generated from the
# MOF subset of the Cambridge Structural Database (CSD) v543 
# hosted by the Cambridge Crystallographic Data Centre (CCDC).
#
# This work is licensed under the Creative Commons
# Attribution-NonCommercial-ShareAlike 4.0 International License.
# To view a copy of this license, visit
# http://creativecommons.org/licenses/by-nc-sa/4.0/
# or send a letter to
# Creative Commons, PO Box 1866, Mountain View, CA 94042, USA.
#
# CIF created using the CSD Python API on 29 September 2022
# The structure has been converted into the P1 space group
# The structure has a 3D framework
# The original CSD entry DURCAX is in the cubic crystal system
# The framework has been calculated to contain at least 10.0% void space
# The void calculation uses a probe of radius 1.32A, grid spacing 0.4
# H atom positions have been added when not included in the experimental data
# Generated hydrogen atom positions removed from atoms on special positions
#
###############################################################################

data_DURCAX
_chemical_formula_moiety         '(C288 H768 O214 Th54)n'
_symmetry_cell_setting           triclinic
_symmetry_space_group_name_H-M   'P 1'
_symmetry_Int_Tables_number      1
_space_group_name_Hall           'P 1'
loop_
_symmetry_equiv_pos_site_id
_symmetry_equiv_pos_as_xyz
1 x,y,z
_cell_length_a                   21.9026(4)
_cell_length_b                   21.9026(4)
_cell_length_c                   21.9026(4)
_cell_angle_alpha                90
_cell_angle_beta                 90
_cell_angle_gamma                90
_cell_volume                     10507.2
loop_
_atom_site_label
_atom_site_type_symbol
_atom_site_fract_x
_atom_site_fract_y
_atom_site_fract_z
Th8 Th 0.0000 0.5000 0.12862(2)
Th11 Th 0.12862(2) 0.0000 0.5000
Th1 Th 0.5000 0.5000 0.37138(2)
O1 O 0.60166(16) 0.5000 0.32483(17)
O2 O 0.5000 0.5000 0.2493(4)
C1 C 0.6564(2) 0.5000 0.3436(2)
C2 C 0.7053(2) 0.5000 0.2947(2)
C3 C 0.6891(3) 0.5000 0.2344(3)
H1 H 0.6472 0.5000 0.2232
O3 O 0.5616(2) 0.5616(2) 0.4384(2)
O4 O 0.67517(17) 0.5000 0.39834(16)
C4 C 0.7656(3) 0.5000 0.3109(3)
H2 H 0.7768 0.5000 0.3528
O5 O 0.82483(17) 0.5000 0.10166(16)
C5 C 0.8436(2) 0.5000 0.1564(2)
C6 C 0.7947(2) 0.5000 0.2053(2)
C7 C 0.7344(3) 0.5000 0.1891(3)
H3 H 0.7232 0.5000 0.1472
O6 O 0.89834(16) 0.5000 0.17517(17)
C8 C 0.8109(3) 0.5000 0.2656(3)
H4 H 0.8528 0.5000 0.2768
O7 O 0.39834(16) 0.5000 0.32483(17)
C9 C 0.3436(2) 0.5000 0.3436(2)
C10 C 0.2947(2) 0.5000 0.2947(2)
C11 C 0.3109(3) 0.5000 0.2344(3)
H5 H 0.3528 0.5000 0.2232
O8 O 0.4384(2) 0.4384(2) 0.4384(2)
O9 O 0.32483(17) 0.5000 0.39834(16)
C12 C 0.2344(3) 0.5000 0.3109(3)
H6 H 0.2232 0.5000 0.3528
O10 O 0.17517(17) 0.5000 0.10166(16)
C13 C 0.1564(2) 0.5000 0.1564(2)
C14 C 0.2053(2) 0.5000 0.2053(2)
C15 C 0.2656(3) 0.5000 0.1891(3)
H7 H 0.2768 0.5000 0.1472
O11 O 0.10166(16) 0.5000 0.17517(17)
C16 C 0.1891(3) 0.5000 0.2656(3)
H8 H 0.1472 0.5000 0.2768
Th2 Th 0.37138(2) 0.5000 0.5000
O12 O 0.32483(17) 0.60166(16) 0.5000
O13 O 0.2493(4) 0.5000 0.5000
C17 C 0.3436(2) 0.6564(2) 0.5000
C18 C 0.2947(2) 0.7053(2) 0.5000
C19 C 0.2344(3) 0.6891(3) 0.5000
H9 H 0.2232 0.6472 0.5000
O14 O 0.4384(2) 0.5616(2) 0.5616(2)
O15 O 0.39834(16) 0.67517(17) 0.5000
C20 C 0.3109(3) 0.7656(3) 0.5000
H10 H 0.3528 0.7768 0.5000
O16 O 0.10166(16) 0.82483(17) 0.5000
C21 C 0.1564(2) 0.8436(2) 0.5000
C22 C 0.2053(2) 0.7947(2) 0.5000
C23 C 0.1891(3) 0.7344(3) 0.5000
H11 H 0.1472 0.7232 0.5000
O17 O 0.17517(17) 0.89834(16) 0.5000
C24 C 0.2656(3) 0.8109(3) 0.5000
H12 H 0.2768 0.8528 0.5000
Th3 Th 0.62862(2) 0.5000 0.5000
O18 O 0.7507(4) 0.5000 0.5000
O19 O 0.5616(2) 0.4384(2) 0.5616(2)
Th4 Th 0.5000 0.5000 0.62862(2)
Th5 Th 0.5000 0.37138(2) 0.5000
Th6 Th 0.5000 0.62862(2) 0.5000
Th8_2 Th 1.0000 0.5000 0.12862(2)
Th9 Th 0.87138(2) 0.5000 0.0000
Th10 Th 0.12862(2) 0.5000 0.0000
Th11_2 Th 0.12862(2) 1.0000 0.5000
Th12 Th 0.0000 0.87138(2) 0.5000
O20 O 0.32483(17) 0.39834(16) 0.5000
O21 O 0.67517(17) 0.39834(16) 0.5000
O22 O 0.67517(17) 0.60166(16) 0.5000
O23 O 0.5000 0.39834(16) 0.32483(17)
O24 O 0.5000 0.60166(16) 0.32483(17)
O25 O 0.32483(17) 0.5000 0.60166(16)
O26 O 0.67517(17) 0.5000 0.60166(16)
O27 O 0.5616(2) 0.5616(2) 0.5616(2)
O28 O 0.4384(2) 0.4384(2) 0.5616(2)
O29 O 0.5616(2) 0.4384(2) 0.4384(2)
O30 O 0.4384(2) 0.5616(2) 0.4384(2)
Th9_2 Th 0.87138(2) 0.5000 1.0000
Th10_2 Th 0.12862(2) 0.5000 1.0000
Th12_2 Th 1.0000 0.87138(2) 0.5000
Th12_3 Th -0.0000 0.12862(2) 0.5000
C17_2 C 0.6564(2) 0.3436(2) 0.5000
C18_2 C 0.7053(2) 0.2947(2) 0.5000
C19_2 C 0.7656(3) 0.3109(3) 0.5000
H9_2 H 0.7768 0.3528 0.5000
O15_2 O 0.60166(16) 0.32483(17) 0.5000
C20_2 C 0.6891(3) 0.2344(3) 0.5000
H10_2 H 0.6472 0.2232 0.5000
O16_2 O 0.89834(16) 0.17517(17) 0.5000
C21_2 C 0.8436(2) 0.1564(2) 0.5000
C22_2 C 0.7947(2) 0.2053(2) 0.5000
C23_2 C 0.8109(3) 0.2656(3) 0.5000
H11_2 H 0.8528 0.2768 0.5000
O17_2 O 0.82483(17) 0.10166(16) 0.5000
C24_2 C 0.7344(3) 0.1891(3) 0.5000
H12_2 H 0.7232 0.1472 0.5000
Th11_3 Th 0.87138(2) 0.0000 0.5000
Th12_4 Th 1.0000 0.12862(2) 0.5000
Th11_4 Th 0.87138(2) 1.0000 0.5000
Th7 Th 0.0000 0.5000 0.87138(2)
O1_2 O 0.39834(16) 0.5000 0.67517(17)
O2_2 O 0.5000 0.5000 0.7507(4)
C1_2 C 0.3436(2) 0.5000 0.6564(2)
C2_2 C 0.2947(2) 0.5000 0.7053(2)
C3_2 C 0.3109(3) 0.5000 0.7656(3)
H1_2 H 0.3528 0.5000 0.7768
C4_2 C 0.2344(3) 0.5000 0.6891(3)
H2_2 H 0.2232 0.5000 0.6472
O5_2 O 0.17517(17) 0.5000 0.89834(16)
C5_2 C 0.1564(2) 0.5000 0.8436(2)
C6_2 C 0.2053(2) 0.5000 0.7947(2)
C7_2 C 0.2656(3) 0.5000 0.8109(3)
H3_2 H 0.2768 0.5000 0.8528
O6_2 O 0.10166(16) 0.5000 0.82483(17)
C8_2 C 0.1891(3) 0.5000 0.7344(3)
H4_2 H 0.1472 0.5000 0.7232
O7_2 O 0.60166(16) 0.5000 0.67517(17)
C9_2 C 0.6564(2) 0.5000 0.6564(2)
C10_2 C 0.7053(2) 0.5000 0.7053(2)
C11_2 C 0.6891(3) 0.5000 0.7656(3)
H5_2 H 0.6472 0.5000 0.7768
C12_2 C 0.7656(3) 0.5000 0.6891(3)
H6_2 H 0.7768 0.5000 0.6472
O10_2 O 0.82483(17) 0.5000 0.89834(16)
C13_2 C 0.8436(2) 0.5000 0.8436(2)
C14_2 C 0.7947(2) 0.5000 0.7947(2)
C15_2 C 0.7344(3) 0.5000 0.8109(3)
H7_2 H 0.7232 0.5000 0.8528
O11_2 O 0.89834(16) 0.5000 0.82483(17)
C16_2 C 0.8109(3) 0.5000 0.7344(3)
H8_2 H 0.8528 0.5000 0.7232
C17_3 C 0.6564(2) 0.6564(2) 0.5000
C18_3 C 0.7053(2) 0.7053(2) 0.5000
C19_3 C 0.7656(3) 0.6891(3) 0.5000
H9_3 H 0.7768 0.6472 0.5000
O15_3 O 0.60166(16) 0.67517(17) 0.5000
C20_3 C 0.6891(3) 0.7656(3) 0.5000
H10_3 H 0.6472 0.7768 0.5000
O16_3 O 0.89834(16) 0.82483(17) 0.5000
C21_3 C 0.8436(2) 0.8436(2) 0.5000
C22_3 C 0.7947(2) 0.7947(2) 0.5000
C23_3 C 0.8109(3) 0.7344(3) 0.5000
H11_3 H 0.8528 0.7232 0.5000
O17_3 O 0.82483(17) 0.89834(16) 0.5000
C24_3 C 0.7344(3) 0.8109(3) 0.5000
H12_3 H 0.7232 0.8528 0.5000
Th7_2 Th 1.0000 0.5000 0.87138(2)
O23_2 O 0.5000 0.39834(16) 0.67517(17)
O24_2 O 0.5000 0.60166(16) 0.67517(17)
C17_4 C 0.3436(2) 0.3436(2) 0.5000
C18_4 C 0.2947(2) 0.2947(2) 0.5000
C19_4 C 0.2344(3) 0.3109(3) 0.5000
H9_4 H 0.2232 0.3528 0.5000
O15_4 O 0.39834(16) 0.32483(17) 0.5000
C20_4 C 0.3109(3) 0.2344(3) 0.5000
H10_4 H 0.3528 0.2232 0.5000
O16_4 O 0.10166(16) 0.17517(17) 0.5000
C21_4 C 0.1564(2) 0.1564(2) 0.5000
C22_4 C 0.2053(2) 0.2053(2) 0.5000
C23_4 C 0.1891(3) 0.2656(3) 0.5000
H11_4 H 0.1472 0.2768 0.5000
O17_4 O 0.17517(17) 0.10166(16) 0.5000
C24_4 C 0.2656(3) 0.1891(3) 0.5000
H12_4 H 0.2768 0.1472 0.5000
Th11_5 Th 0.5000 0.12862(2) 0.0000
O12_2 O 0.5000 0.32483(17) 0.60166(16)
O13_2 O 0.5000 0.2493(4) 0.5000
C17_5 C 0.5000 0.3436(2) 0.6564(2)
C18_5 C 0.5000 0.2947(2) 0.7053(2)
C19_5 C 0.5000 0.2344(3) 0.6891(3)
H9_5 H 0.5000 0.2232 0.6472
C20_5 C 0.5000 0.3109(3) 0.7656(3)
H10_5 H 0.5000 0.3528 0.7768
O16_5 O 0.5000 0.10166(16) 0.82483(17)
C21_5 C 0.5000 0.1564(2) 0.8436(2)
C22_5 C 0.5000 0.2053(2) 0.7947(2)
C23_5 C 0.5000 0.1891(3) 0.7344(3)
H11_5 H 0.5000 0.1472 0.7232
O17_5 O 0.5000 0.17517(17) 0.89834(16)
C24_5 C 0.5000 0.2656(3) 0.8109(3)
H12_5 H 0.5000 0.2768 0.8528
O18_2 O 0.5000 0.7507(4) 0.5000
Th11_6 Th 0.5000 0.12862(2) 1.0000
Th12_5 Th 0.5000 0.0000 0.87138(2)
O20_2 O 0.5000 0.32483(17) 0.39834(16)
O21_2 O 0.5000 0.67517(17) 0.39834(16)
O22_2 O 0.5000 0.67517(17) 0.60166(16)
Th12_6 Th 0.5000 1.0000 0.87138(2)
Th12_7 Th 0.5000 -0.0000 0.12862(2)
C17_6 C 0.5000 0.6564(2) 0.3436(2)
C18_6 C 0.5000 0.7053(2) 0.2947(2)
C19_6 C 0.5000 0.7656(3) 0.3109(3)
H9_6 H 0.5000 0.7768 0.3528
C20_6 C 0.5000 0.6891(3) 0.2344(3)
H10_6 H 0.5000 0.6472 0.2232
O16_6 O 0.5000 0.89834(16) 0.17517(17)
C21_6 C 0.5000 0.8436(2) 0.1564(2)
C22_6 C 0.5000 0.7947(2) 0.2053(2)
C23_6 C 0.5000 0.8109(3) 0.2656(3)
H11_6 H 0.5000 0.8528 0.2768
O17_6 O 0.5000 0.82483(17) 0.10166(16)
C24_6 C 0.5000 0.7344(3) 0.1891(3)
H12_6 H 0.5000 0.7232 0.1472
Th11_7 Th 0.5000 0.87138(2) 0.0000
Th12_8 Th 0.5000 1.0000 0.12862(2)
Th11_8 Th 0.5000 0.87138(2) 1.0000
C17_7 C 0.5000 0.6564(2) 0.6564(2)
C18_7 C 0.5000 0.7053(2) 0.7053(2)
C19_7 C 0.5000 0.7656(3) 0.6891(3)
H9_7 H 0.5000 0.7768 0.6472
C20_7 C 0.5000 0.6891(3) 0.7656(3)
H10_7 H 0.5000 0.6472 0.7768
O16_7 O 0.5000 0.89834(16) 0.82483(17)
C21_7 C 0.5000 0.8436(2) 0.8436(2)
C22_7 C 0.5000 0.7947(2) 0.7947(2)
C23_7 C 0.5000 0.8109(3) 0.7344(3)
H11_7 H 0.5000 0.8528 0.7232
O17_7 O 0.5000 0.82483(17) 0.89834(16)
C24_7 C 0.5000 0.7344(3) 0.8109(3)
H12_7 H 0.5000 0.7232 0.8528
C17_8 C 0.5000 0.3436(2) 0.3436(2)
C18_8 C 0.5000 0.2947(2) 0.2947(2)
C19_8 C 0.5000 0.2344(3) 0.3109(3)
H9_8 H 0.5000 0.2232 0.3528
C20_8 C 0.5000 0.3109(3) 0.2344(3)
H10_8 H 0.5000 0.3528 0.2232
O16_8 O 0.5000 0.10166(16) 0.17517(17)
C21_8 C 0.5000 0.1564(2) 0.1564(2)
C22_8 C 0.5000 0.2053(2) 0.2053(2)
C23_8 C 0.5000 0.1891(3) 0.2656(3)
H11_8 H 0.5000 0.1472 0.2768
O17_8 O 0.5000 0.17517(17) 0.10166(16)
C24_8 C 0.5000 0.2656(3) 0.1891(3)
H12_8 H 0.5000 0.2768 0.1472
Th8_3 Th 0.0000 0.0000 0.62862(2)
Th8_4 Th 0.0000 1.0000 0.62862(2)
Th2_2 Th 0.37138(2) -0.0000 0.0000
O12_3 O 0.32483(17) 0.10166(16) 0.0000
O13_3 O 0.2493(4) -0.0000 0.0000
C17_9 C 0.3436(2) 0.1564(2) 0.0000
C18_9 C 0.2947(2) 0.2053(2) 0.0000
C19_9 C 0.2344(3) 0.1891(3) 0.0000
H9_9 H 0.2232 0.1472 0.0000
O14_2 O 0.4384(2) 0.0616(2) 0.0616(2)
O15_5 O 0.39834(16) 0.17517(17) 0.0000
C20_9 C 0.3109(3) 0.2656(3) 0.0000
H10_9 H 0.3528 0.2768 0.0000
O16_9 O 0.10166(16) 0.32483(17) 0.0000
C21_9 C 0.1564(2) 0.3436(2) 0.0000
C22_9 C 0.2053(2) 0.2947(2) 0.0000
C23_9 C 0.1891(3) 0.2344(3) 0.0000
H11_9 H 0.1472 0.2232 0.0000
O17_9 O 0.17517(17) 0.39834(16) 0.0000
C24_9 C 0.2656(3) 0.3109(3) 0.0000
H12_9 H 0.2768 0.3528 0.0000
Th3_2 Th 0.62862(2) -0.0000 0.0000
O18_3 O 0.7507(4) -0.0000 0.0000
Th12_9 Th 0.0000 0.37138(2) 0.0000
O22_3 O 0.67517(17) 0.10166(16) 0.0000
O25_2 O 0.32483(17) -0.0000 0.10166(16)
O26_2 O 0.67517(17) -0.0000 0.10166(16)
O27_2 O 0.5616(2) 0.0616(2) 0.0616(2)
O1_3 O 0.60166(16) 0.0000 0.82483(17)
O2_3 O 0.5000 0.0000 0.7493(4)
C1_3 C 0.6564(2) 0.0000 0.8436(2)
C2_3 C 0.7053(2) 0.0000 0.7947(2)
C3_3 C 0.6891(3) 0.0000 0.7344(3)
H1_3 H 0.6472 0.0000 0.7232
O3_2 O 0.5616(2) 0.0616(2) 0.9384(2)
O4_2 O 0.67517(17) 0.0000 0.89834(16)
C4_3 C 0.7656(3) -0.0000 0.8109(3)
H2_3 H 0.7768 0.0000 0.8528
O5_3 O 0.82483(17) 0.0000 0.60166(16)
C5_3 C 0.8436(2) 0.0000 0.6564(2)
C6_3 C 0.7947(2) -0.0000 0.7053(2)
C7_3 C 0.7344(3) 0.0000 0.6891(3)
H3_3 H 0.7232 0.0000 0.6472
O6_3 O 0.89834(16) 0.0000 0.67517(17)
C8_3 C 0.8109(3) 0.0000 0.7656(3)
H4_3 H 0.8528 -0.0000 0.7768
O7_3 O 0.39834(16) 0.0000 0.82483(17)
C9_3 C 0.3436(2) 0.0000 0.8436(2)
C10_3 C 0.2947(2) 0.0000 0.7947(2)
C11_3 C 0.3109(3) 0.0000 0.7344(3)
H5_3 H 0.3528 0.0000 0.7232
O9_2 O 0.32483(17) 0.0000 0.89834(16)
C12_3 C 0.2344(3) -0.0000 0.8109(3)
H6_3 H 0.2232 0.0000 0.8528
O10_3 O 0.17517(17) 0.0000 0.60166(16)
C13_3 C 0.1564(2) 0.0000 0.6564(2)
C14_3 C 0.2053(2) -0.0000 0.7053(2)
C15_3 C 0.2656(3) 0.0000 0.6891(3)
H7_3 H 0.2768 0.0000 0.6472
O11_3 O 0.10166(16) 0.0000 0.67517(17)
C16_3 C 0.1891(3) 0.0000 0.7656(3)
H8_3 H 0.1472 -0.0000 0.7768
Th2_3 Th 0.37138(2) -0.0000 1.0000
O12_4 O 0.32483(17) 0.10166(16) 1.0000
O13_4 O 0.2493(4) -0.0000 1.0000
C17_10 C 0.3436(2) 0.1564(2) 1.0000
C18_10 C 0.2947(2) 0.2053(2) 1.0000
C19_10 C 0.2344(3) 0.1891(3) 1.0000
H9_10 H 0.2232 0.1472 1.0000
O15_6 O 0.39834(16) 0.17517(17) 1.0000
C20_10 C 0.3109(3) 0.2656(3) 1.0000
H10_10 H 0.3528 0.2768 1.0000
O16_10 O 0.10166(16) 0.32483(17) 1.0000
C21_10 C 0.1564(2) 0.3436(2) 1.0000
C22_10 C 0.2053(2) 0.2947(2) 1.0000
C23_10 C 0.1891(3) 0.2344(3) 1.0000
H11_10 H 0.1472 0.2232 1.0000
O17_10 O 0.17517(17) 0.39834(16) 1.0000
C24_10 C 0.2656(3) 0.3109(3) 1.0000
H12_10 H 0.2768 0.3528 1.0000
Th3_3 Th 0.62862(2) -0.0000 1.0000
O18_4 O 0.7507(4) -0.0000 1.0000
Th8_5 Th 1.0000 0.0000 0.62862(2)
Th12_10 Th 0.0000 0.37138(2) 1.0000
O22_4 O 0.67517(17) 0.10166(16) 1.0000
O30_2 O 0.4384(2) 0.0616(2) 0.9384(2)
Th2_4 Th 0.37138(2) 1.0000 0.0000
O13_5 O 0.2493(4) 1.0000 0.0000
Th3_4 Th 0.62862(2) 1.0000 0.0000
O18_5 O 0.7507(4) 1.0000 0.0000
O19_2 O 0.5616(2) 0.9384(2) 0.0616(2)
O20_3 O 0.32483(17) 0.89834(16) 0.0000
O21_3 O 0.67517(17) 0.89834(16) 0.0000
O25_3 O 0.32483(17) 1.0000 0.10166(16)
O26_3 O 0.67517(17) 1.0000 0.10166(16)
O28_2 O 0.4384(2) 0.9384(2) 0.0616(2)
O1_4 O 0.60166(16) 1.0000 0.82483(17)
O2_4 O 0.5000 1.0000 0.7493(4)
C1_4 C 0.6564(2) 1.0000 0.8436(2)
C2_4 C 0.7053(2) 1.0000 0.7947(2)
C3_4 C 0.6891(3) 1.0000 0.7344(3)
H1_4 H 0.6472 1.0000 0.7232
O4_3 O 0.67517(17) 1.0000 0.89834(16)
C4_4 C 0.7656(3) 1.0000 0.8109(3)
H2_4 H 0.7768 1.0000 0.8528
O5_4 O 0.82483(17) 1.0000 0.60166(16)
C5_4 C 0.8436(2) 1.0000 0.6564(2)
C6_4 C 0.7947(2) 1.0000 0.7053(2)
C7_4 C 0.7344(3) 1.0000 0.6891(3)
H3_4 H 0.7232 1.0000 0.6472
O6_4 O 0.89834(16) 1.0000 0.67517(17)
C8_4 C 0.8109(3) 1.0000 0.7656(3)
H4_4 H 0.8528 1.0000 0.7768
O7_4 O 0.39834(16) 1.0000 0.82483(17)
C9_4 C 0.3436(2) 1.0000 0.8436(2)
C10_4 C 0.2947(2) 1.0000 0.7947(2)
C11_4 C 0.3109(3) 1.0000 0.7344(3)
H5_4 H 0.3528 1.0000 0.7232
O8_2 O 0.4384(2) 0.9384(2) 0.9384(2)
O9_3 O 0.32483(17) 1.0000 0.89834(16)
C12_4 C 0.2344(3) 1.0000 0.8109(3)
H6_4 H 0.2232 1.0000 0.8528
O10_4 O 0.17517(17) 1.0000 0.60166(16)
C13_4 C 0.1564(2) 1.0000 0.6564(2)
C14_4 C 0.2053(2) 1.0000 0.7053(2)
C15_4 C 0.2656(3) 1.0000 0.6891(3)
H7_4 H 0.2768 1.0000 0.6472
O11_4 O 0.10166(16) 1.0000 0.67517(17)
C16_4 C 0.1891(3) 1.0000 0.7656(3)
H8_4 H 0.1472 1.0000 0.7768
Th2_5 Th 0.37138(2) 1.0000 1.0000
O13_6 O 0.2493(4) 1.0000 1.0000
Th3_5 Th 0.62862(2) 1.0000 1.0000
O18_6 O 0.7507(4) 1.0000 1.0000
Th8_6 Th 1.0000 1.0000 0.62862(2)
O20_4 O 0.32483(17) 0.89834(16) 1.0000
O21_4 O 0.67517(17) 0.89834(16) 1.0000
O29_2 O 0.5616(2) 0.9384(2) 0.9384(2)
Th12_11 Th 1.0000 0.37138(2) 0.0000
Th12_12 Th 1.0000 0.37138(2) 1.0000
Th12_13 Th -0.0000 0.62862(2) 0.0000
Th12_14 Th -0.0000 0.62862(2) 1.0000
C17_11 C 0.6564(2) 0.8436(2) 0.0000
C18_11 C 0.7053(2) 0.7947(2) 0.0000
C19_11 C 0.7656(3) 0.8109(3) 0.0000
H9_11 H 0.7768 0.8528 0.0000
O15_7 O 0.60166(16) 0.82483(17) 0.0000
C20_11 C 0.6891(3) 0.7344(3) 0.0000
H10_11 H 0.6472 0.7232 0.0000
O16_11 O 0.89834(16) 0.67517(17) 0.0000
C21_11 C 0.8436(2) 0.6564(2) 0.0000
C22_11 C 0.7947(2) 0.7053(2) 0.0000
C23_11 C 0.8109(3) 0.7656(3) 0.0000
H11_11 H 0.8528 0.7768 0.0000
O17_11 O 0.82483(17) 0.60166(16) 0.0000
C24_11 C 0.7344(3) 0.6891(3) 0.0000
H12_11 H 0.7232 0.6472 0.0000
Th12_15 Th 1.0000 0.62862(2) 0.0000
C17_12 C 0.6564(2) 0.8436(2) 1.0000
C18_12 C 0.7053(2) 0.7947(2) 1.0000
C19_12 C 0.7656(3) 0.8109(3) 1.0000
H9_12 H 0.7768 0.8528 1.0000
O15_8 O 0.60166(16) 0.82483(17) 1.0000
C20_12 C 0.6891(3) 0.7344(3) 1.0000
H10_12 H 0.6472 0.7232 1.0000
O16_12 O 0.89834(16) 0.67517(17) 1.0000
C21_12 C 0.8436(2) 0.6564(2) 1.0000
C22_12 C 0.7947(2) 0.7053(2) 1.0000
C23_12 C 0.8109(3) 0.7656(3) 1.0000
H11_12 H 0.8528 0.7768 1.0000
O17_12 O 0.82483(17) 0.60166(16) 1.0000
C24_12 C 0.7344(3) 0.6891(3) 1.0000
H12_12 H 0.7232 0.6472 1.0000
Th12_16 Th 1.0000 0.62862(2) 1.0000
Th7_3 Th 0.0000 0.0000 0.37138(2)
Th7_4 Th -0.0000 1.0000 0.37138(2)
O1_5 O 0.39834(16) 0.0000 0.17517(17)
O2_5 O 0.5000 0.0000 0.2507(4)
C1_5 C 0.3436(2) 0.0000 0.1564(2)
C2_5 C 0.2947(2) 0.0000 0.2053(2)
C3_5 C 0.3109(3) 0.0000 0.2656(3)
H1_5 H 0.3528 0.0000 0.2768
C4_5 C 0.2344(3) 0.0000 0.1891(3)
H2_5 H 0.2232 0.0000 0.1472
O5_5 O 0.17517(17) 0.0000 0.39834(16)
C5_5 C 0.1564(2) 0.0000 0.3436(2)
C6_5 C 0.2053(2) 0.0000 0.2947(2)
C7_5 C 0.2656(3) 0.0000 0.3109(3)
H3_5 H 0.2768 0.0000 0.3528
O6_5 O 0.10166(16) 0.0000 0.32483(17)
C8_5 C 0.1891(3) 0.0000 0.2344(3)
H4_5 H 0.1472 0.0000 0.2232
O7_5 O 0.60166(16) 0.0000 0.17517(17)
C9_5 C 0.6564(2) 0.0000 0.1564(2)
C10_5 C 0.7053(2) 0.0000 0.2053(2)
C11_5 C 0.6891(3) 0.0000 0.2656(3)
H5_5 H 0.6472 0.0000 0.2768
C12_5 C 0.7656(3) 0.0000 0.1891(3)
H6_5 H 0.7768 0.0000 0.1472
O10_5 O 0.82483(17) 0.0000 0.39834(16)
C13_5 C 0.8436(2) 0.0000 0.3436(2)
C14_5 C 0.7947(2) 0.0000 0.2947(2)
C15_5 C 0.7344(3) 0.0000 0.3109(3)
H7_5 H 0.7232 0.0000 0.3528
O11_5 O 0.89834(16) 0.0000 0.32483(17)
C16_5 C 0.8109(3) 0.0000 0.2344(3)
H8_5 H 0.8528 0.0000 0.2232
C17_13 C 0.6564(2) 0.1564(2) 0.0000
C18_13 C 0.7053(2) 0.2053(2) 0.0000
C19_13 C 0.7656(3) 0.1891(3) 0.0000
H9_13 H 0.7768 0.1472 0.0000
O15_9 O 0.60166(16) 0.17517(17) 0.0000
C20_13 C 0.6891(3) 0.2656(3) 0.0000
H10_13 H 0.6472 0.2768 0.0000
O16_13 O 0.89834(16) 0.32483(17) 0.0000
C21_13 C 0.8436(2) 0.3436(2) 0.0000
C22_13 C 0.7947(2) 0.2947(2) 0.0000
C23_13 C 0.8109(3) 0.2344(3) 0.0000
H11_13 H 0.8528 0.2232 0.0000
O17_13 O 0.82483(17) 0.39834(16) 0.0000
C24_13 C 0.7344(3) 0.3109(3) 0.0000
H12_13 H 0.7232 0.3528 0.0000
Th7_5 Th 1.0000 0.0000 0.37138(2)
C17_14 C 0.6564(2) 0.1564(2) 1.0000
C18_14 C 0.7053(2) 0.2053(2) 1.0000
C19_14 C 0.7656(3) 0.1891(3) 1.0000
H9_14 H 0.7768 0.1472 1.0000
O15_10 O 0.60166(16) 0.17517(17) 1.0000
C20_14 C 0.6891(3) 0.2656(3) 1.0000
H10_14 H 0.6472 0.2768 1.0000
O16_14 O 0.89834(16) 0.32483(17) 1.0000
C21_14 C 0.8436(2) 0.3436(2) 1.0000
C22_14 C 0.7947(2) 0.2947(2) 1.0000
C23_14 C 0.8109(3) 0.2344(3) 1.0000
H11_14 H 0.8528 0.2232 1.0000
O17_14 O 0.82483(17) 0.39834(16) 1.0000
C24_14 C 0.7344(3) 0.3109(3) 1.0000
H12_14 H 0.7232 0.3528 1.0000
O1_6 O 0.39834(16) 1.0000 0.17517(17)
O2_6 O 0.5000 1.0000 0.2507(4)
C1_6 C 0.3436(2) 1.0000 0.1564(2)
C2_6 C 0.2947(2) 1.0000 0.2053(2)
C3_6 C 0.3109(3) 1.0000 0.2656(3)
H1_6 H 0.3528 1.0000 0.2768
C4_6 C 0.2344(3) 1.0000 0.1891(3)
H2_6 H 0.2232 1.0000 0.1472
O5_6 O 0.17517(17) 1.0000 0.39834(16)
C5_6 C 0.1564(2) 1.0000 0.3436(2)
C6_6 C 0.2053(2) 1.0000 0.2947(2)
C7_6 C 0.2656(3) 1.0000 0.3109(3)
H3_6 H 0.2768 1.0000 0.3528
O6_6 O 0.10166(16) 1.0000 0.32483(17)
C8_6 C 0.1891(3) 1.0000 0.2344(3)
H4_6 H 0.1472 1.0000 0.2232
O7_6 O 0.60166(16) 1.0000 0.17517(17)
C9_6 C 0.6564(2) 1.0000 0.1564(2)
C10_6 C 0.7053(2) 1.0000 0.2053(2)
C11_6 C 0.6891(3) 1.0000 0.2656(3)
H5_6 H 0.6472 1.0000 0.2768
C12_6 C 0.7656(3) 1.0000 0.1891(3)
H6_6 H 0.7768 1.0000 0.1472
O10_6 O 0.82483(17) 1.0000 0.39834(16)
C13_6 C 0.8436(2) 1.0000 0.3436(2)
C14_6 C 0.7947(2) 1.0000 0.2947(2)
C15_6 C 0.7344(3) 1.0000 0.3109(3)
H7_6 H 0.7232 1.0000 0.3528
O11_6 O 0.89834(16) 1.0000 0.32483(17)
C16_6 C 0.8109(3) 1.0000 0.2344(3)
H8_6 H 0.8528 1.0000 0.2232
Th7_6 Th 1.0000 1.0000 0.37138(2)
C17_15 C 0.3436(2) 0.8436(2) 0.0000
C18_15 C 0.2947(2) 0.7947(2) 0.0000
C19_15 C 0.2344(3) 0.8109(3) 0.0000
H9_15 H 0.2232 0.8528 0.0000
O15_11 O 0.39834(16) 0.82483(17) 0.0000
C20_15 C 0.3109(3) 0.7344(3) 0.0000
H10_15 H 0.3528 0.7232 0.0000
O16_15 O 0.10166(16) 0.67517(17) 0.0000
C21_15 C 0.1564(2) 0.6564(2) 0.0000
C22_15 C 0.2053(2) 0.7053(2) 0.0000
C23_15 C 0.1891(3) 0.7656(3) 0.0000
H11_15 H 0.1472 0.7768 0.0000
O17_15 O 0.17517(17) 0.60166(16) 0.0000
C24_15 C 0.2656(3) 0.6891(3) 0.0000
H12_15 H 0.2768 0.6472 0.0000
C17_16 C 0.3436(2) 0.8436(2) 1.0000
C18_16 C 0.2947(2) 0.7947(2) 1.0000
C19_16 C 0.2344(3) 0.8109(3) 1.0000
H9_16 H 0.2232 0.8528 1.0000
O15_12 O 0.39834(16) 0.82483(17) 1.0000
C20_16 C 0.3109(3) 0.7344(3) 1.0000
H10_16 H 0.3528 0.7232 1.0000
O16_16 O 0.10166(16) 0.67517(17) 1.0000
C21_16 C 0.1564(2) 0.6564(2) 1.0000
C22_16 C 0.2053(2) 0.7053(2) 1.0000
C23_16 C 0.1891(3) 0.7656(3) 1.0000
H11_16 H 0.1472 0.7768 1.0000
O17_16 O 0.17517(17) 0.60166(16) 1.0000
C24_16 C 0.2656(3) 0.6891(3) 1.0000
H12_16 H 0.2768 0.6472 1.0000
O18_7 O 0.5000 0.2507(4) -0.0000
O18_8 O 0.5000 0.2507(4) 1.0000
O13_7 O 0.5000 0.7493(4) -0.0000
O13_8 O 0.5000 0.7493(4) 1.0000
O18_9 O 0.2507(4) 0.5000 0.0000
O19_3 O 0.0616(2) 0.4384(2) 0.0616(2)
O27_3 O 0.0616(2) 0.5616(2) 0.0616(2)
O2_7 O -0.0000 0.5000 0.7493(4)
O3_3 O 0.0616(2) 0.5616(2) 0.9384(2)
O18_10 O 0.2507(4) 0.5000 1.0000
O23_3 O -0.0000 0.39834(16) 0.82483(17)
O24_3 O -0.0000 0.60166(16) 0.82483(17)
O29_3 O 0.0616(2) 0.4384(2) 0.9384(2)
O13_9 O 0.7493(4) 0.5000 0.0000
O14_3 O 0.9384(2) 0.5616(2) 0.0616(2)
O28_3 O 0.9384(2) 0.4384(2) 0.0616(2)
O2_8 O 1.0000 0.5000 0.7493(4)
O8_3 O 0.9384(2) 0.4384(2) 0.9384(2)
O13_10 O 0.7493(4) 0.5000 1.0000
O23_4 O 1.0000 0.39834(16) 0.82483(17)
O24_4 O 1.0000 0.60166(16) 0.82483(17)
O30_3 O 0.9384(2) 0.5616(2) 0.9384(2)
O2_9 O 0.0000 0.5000 0.2507(4)
O23_5 O -0.0000 0.39834(16) 0.17517(17)
O24_5 O 0.0000 0.60166(16) 0.17517(17)
O2_10 O 1.0000 0.5000 0.2507(4)
O23_6 O 1.0000 0.39834(16) 0.17517(17)
O24_6 O 1.0000 0.60166(16) 0.17517(17)
O12_5 O 0.0000 0.32483(17) 0.10166(16)
O13_11 O 0.0000 0.2493(4) -0.0000
C17_17 C -0.0000 0.3436(2) 0.1564(2)
C18_17 C 0.0000 0.2947(2) 0.2053(2)
C19_17 C -0.0000 0.2344(3) 0.1891(3)
H9_17 H 0.0000 0.2232 0.1472
C20_17 C 0.0000 0.3109(3) 0.2656(3)
H10_17 H 0.0000 0.3528 0.2768
O16_17 O -0.0000 0.10166(16) 0.32483(17)
C21_17 C -0.0000 0.1564(2) 0.3436(2)
C22_17 C 0.0000 0.2053(2) 0.2947(2)
C23_17 C 0.0000 0.1891(3) 0.2344(3)
H11_17 H -0.0000 0.1472 0.2232
O17_17 O 0.0000 0.17517(17) 0.39834(16)
C24_17 C 0.0000 0.2656(3) 0.3109(3)
H12_17 H 0.0000 0.2768 0.3528
O18_11 O 0.0000 0.7507(4) -0.0000
O22_5 O 0.0000 0.67517(17) 0.10166(16)
O13_12 O 0.0000 0.2493(4) 1.0000
O18_12 O 0.0000 0.7507(4) 1.0000
O20_5 O 0.0000 0.32483(17) 0.89834(16)
O21_5 O -0.0000 0.67517(17) 0.89834(16)
O12_6 O 1.0000 0.32483(17) 0.10166(16)
O13_13 O 1.0000 0.2493(4) -0.0000
C17_18 C 1.0000 0.3436(2) 0.1564(2)
C18_18 C 1.0000 0.2947(2) 0.2053(2)
C19_18 C 1.0000 0.2344(3) 0.1891(3)
H9_18 H 1.0000 0.2232 0.1472
C20_18 C 1.0000 0.3109(3) 0.2656(3)
H10_18 H 1.0000 0.3528 0.2768
O16_18 O 1.0000 0.10166(16) 0.32483(17)
C21_18 C 1.0000 0.1564(2) 0.3436(2)
C22_18 C 1.0000 0.2053(2) 0.2947(2)
C23_18 C 1.0000 0.1891(3) 0.2344(3)
H11_18 H 1.0000 0.1472 0.2232
O17_18 O 1.0000 0.17517(17) 0.39834(16)
C24_18 C 1.0000 0.2656(3) 0.3109(3)
H12_18 H 1.0000 0.2768 0.3528
O18_13 O 1.0000 0.7507(4) -0.0000
O22_6 O 1.0000 0.67517(17) 0.10166(16)
O13_14 O 1.0000 0.2493(4) 1.0000
O18_14 O 1.0000 0.7507(4) 1.0000
O20_6 O 1.0000 0.32483(17) 0.89834(16)
O21_6 O 1.0000 0.67517(17) 0.89834(16)
C17_19 C 0.0000 0.6564(2) 0.8436(2)
C18_19 C -0.0000 0.7053(2) 0.7947(2)
C19_19 C 0.0000 0.7656(3) 0.8109(3)
H9_19 H 0.0000 0.7768 0.8528
C20_19 C -0.0000 0.6891(3) 0.7344(3)
H10_19 H 0.0000 0.6472 0.7232
O16_19 O 0.0000 0.89834(16) 0.67517(17)
C21_19 C 0.0000 0.8436(2) 0.6564(2)
C22_19 C 0.0000 0.7947(2) 0.7053(2)
C23_19 C 0.0000 0.8109(3) 0.7656(3)
H11_19 H -0.0000 0.8528 0.7768
O17_19 O -0.0000 0.82483(17) 0.60166(16)
C24_19 C 0.0000 0.7344(3) 0.6891(3)
H12_19 H 0.0000 0.7232 0.6472
C17_20 C 1.0000 0.6564(2) 0.8436(2)
C18_20 C 1.0000 0.7053(2) 0.7947(2)
C19_20 C 1.0000 0.7656(3) 0.8109(3)
H9_20 H 1.0000 0.7768 0.8528
C20_20 C 1.0000 0.6891(3) 0.7344(3)
H10_20 H 1.0000 0.6472 0.7232
O16_20 O 1.0000 0.89834(16) 0.67517(17)
C21_20 C 1.0000 0.8436(2) 0.6564(2)
C22_20 C 1.0000 0.7947(2) 0.7053(2)
C23_20 C 1.0000 0.8109(3) 0.7656(3)
H11_20 H 1.0000 0.8528 0.7768
O17_20 O 1.0000 0.82483(17) 0.60166(16)
C24_20 C 1.0000 0.7344(3) 0.6891(3)
H12_20 H 1.0000 0.7232 0.6472
C17_21 C 0.0000 0.6564(2) 0.1564(2)
C18_21 C -0.0000 0.7053(2) 0.2053(2)
C19_21 C 0.0000 0.7656(3) 0.1891(3)
H9_21 H 0.0000 0.7768 0.1472
C20_21 C 0.0000 0.6891(3) 0.2656(3)
H10_21 H 0.0000 0.6472 0.2768
O16_21 O 0.0000 0.89834(16) 0.32483(17)
C21_21 C 0.0000 0.8436(2) 0.3436(2)
C22_21 C 0.0000 0.7947(2) 0.2947(2)
C23_21 C 0.0000 0.8109(3) 0.2344(3)
H11_21 H -0.0000 0.8528 0.2232
O17_21 O 0.0000 0.82483(17) 0.39834(16)
C24_21 C 0.0000 0.7344(3) 0.3109(3)
H12_21 H 0.0000 0.7232 0.3528
C17_22 C 1.0000 0.6564(2) 0.1564(2)
C18_22 C 1.0000 0.7053(2) 0.2053(2)
C19_22 C 1.0000 0.7656(3) 0.1891(3)
H9_22 H 1.0000 0.7768 0.1472
C20_22 C 1.0000 0.6891(3) 0.2656(3)
H10_22 H 1.0000 0.6472 0.2768
O16_22 O 1.0000 0.89834(16) 0.32483(17)
C21_22 C 1.0000 0.8436(2) 0.3436(2)
C22_22 C 1.0000 0.7947(2) 0.2947(2)
C23_22 C 1.0000 0.8109(3) 0.2344(3)
H11_22 H 1.0000 0.8528 0.2232
O17_22 O 1.0000 0.82483(17) 0.39834(16)
C24_22 C 1.0000 0.7344(3) 0.3109(3)
H12_22 H 1.0000 0.7232 0.3528
C17_23 C 0.0000 0.3436(2) 0.8436(2)
C18_23 C -0.0000 0.2947(2) 0.7947(2)
C19_23 C 0.0000 0.2344(3) 0.8109(3)
H9_23 H 0.0000 0.2232 0.8528
C20_23 C 0.0000 0.3109(3) 0.7344(3)
H10_23 H 0.0000 0.3528 0.7232
O16_23 O 0.0000 0.10166(16) 0.67517(17)
C21_23 C 0.0000 0.1564(2) 0.6564(2)
C22_23 C 0.0000 0.2053(2) 0.7053(2)
C23_23 C 0.0000 0.1891(3) 0.7656(3)
H11_23 H -0.0000 0.1472 0.7768
O17_23 O -0.0000 0.17517(17) 0.60166(16)
C24_23 C 0.0000 0.2656(3) 0.6891(3)
H12_23 H 0.0000 0.2768 0.6472
C17_24 C 1.0000 0.3436(2) 0.8436(2)
C18_24 C 1.0000 0.2947(2) 0.7947(2)
C19_24 C 1.0000 0.2344(3) 0.8109(3)
H9_24 H 1.0000 0.2232 0.8528
C20_24 C 1.0000 0.3109(3) 0.7344(3)
H10_24 H 1.0000 0.3528 0.7232
O16_24 O 1.0000 0.10166(16) 0.67517(17)
C21_24 C 1.0000 0.1564(2) 0.6564(2)
C22_24 C 1.0000 0.2053(2) 0.7053(2)
C23_24 C 1.0000 0.1891(3) 0.7656(3)
H11_24 H 1.0000 0.1472 0.7768
O17_24 O 1.0000 0.17517(17) 0.60166(16)
C24_24 C 1.0000 0.2656(3) 0.6891(3)
H12_24 H 1.0000 0.2768 0.6472
O2_11 O -0.0000 0.0000 0.2493(4)
O3_4 O 0.0616(2) 0.0616(2) 0.4384(2)
O18_15 O 0.2507(4) -0.0000 0.5000
O27_4 O 0.0616(2) 0.0616(2) 0.5616(2)
O2_12 O -0.0000 1.0000 0.2493(4)
O18_16 O 0.2507(4) 1.0000 0.5000
O19_4 O 0.0616(2) 0.9384(2) 0.5616(2)
O29_4 O 0.0616(2) 0.9384(2) 0.4384(2)
O2_13 O 1.0000 0.0000 0.2493(4)
O13_15 O 0.7493(4) -0.0000 0.5000
O14_4 O 0.9384(2) 0.0616(2) 0.5616(2)
O30_4 O 0.9384(2) 0.0616(2) 0.4384(2)
O2_14 O 1.0000 1.0000 0.2493(4)
O8_4 O 0.9384(2) 0.9384(2) 0.4384(2)
O13_16 O 0.7493(4) 1.0000 0.5000
O28_4 O 0.9384(2) 0.9384(2) 0.5616(2)
O2_15 O 0.0000 0.0000 0.7507(4)
O2_16 O 0.0000 1.0000 0.7507(4)
O2_17 O 1.0000 0.0000 0.7507(4)
O2_18 O 1.0000 1.0000 0.7507(4)
O18_17 O 0.0000 0.2507(4) 0.5000
O13_17 O 0.0000 0.7493(4) 0.5000
O18_18 O 1.0000 0.2507(4) 0.5000
O13_18 O 1.0000 0.7493(4) 0.5000
loop_
_geom_bond_atom_site_label_1
_geom_bond_atom_site_label_2
_geom_bond_site_symmetry_1
_geom_bond_site_symmetry_2
Th1 O1 1_555 1_555
O1 C1 1_555 1_555
O2 Th1 1_555 1_555
C1 C2 1_555 1_555
C2 C3 1_555 1_555
C3 H1 1_555 1_555
O3 Th1 1_555 1_555
O4 C1 1_555 1_555
C4 C2 1_555 1_555
H2 C4 1_555 1_555
O5 C5 1_555 1_555
C5 C6 1_555 1_555
C6 C7 1_555 1_555
C7 C3 1_555 1_555
H3 C7 1_555 1_555
O6 C5 1_555 1_555
C8 C4 1_555 1_555
H4 C8 1_555 1_555
O7 Th1 1_555 1_555
C9 O7 1_555 1_555
C10 C9 1_555 1_555
C11 C10 1_555 1_555
H5 C11 1_555 1_555
O8 Th1 1_555 1_555
O9 C9 1_555 1_555
C12 C10 1_555 1_555
H6 C12 1_555 1_555
O10 C13 1_555 1_555
C13 C14 1_555 1_555
C14 C15 1_555 1_555
C15 C11 1_555 1_555
H7 C15 1_555 1_555
O11 C13 1_555 1_555
C16 C12 1_555 1_555
H8 C16 1_555 1_555
Th2 O8 1_555 1_555
O12 Th2 1_555 1_555
O13 Th2 1_555 1_555
C17 O12 1_555 1_555
C18 C17 1_555 1_555
C19 C18 1_555 1_555
H9 C19 1_555 1_555
O14 Th2 1_555 1_555
O15 C17 1_555 1_555
C20 C18 1_555 1_555
H10 C20 1_555 1_555
O16 C21 1_555 1_555
C21 C22 1_555 1_555
C22 C23 1_555 1_555
C23 C19 1_555 1_555
H11 C23 1_555 1_555
O17 C21 1_555 1_555
C24 C20 1_555 1_555
H12 C24 1_555 1_555
Th3 O3 1_555 1_555
O18 Th3 1_555 1_555
O19 Th3 1_555 1_555
Th4 O14 1_555 1_555
Th5 O8 1_555 1_555
Th6 O3 1_555 1_555
Th8 O11 1_555 1_555
Th8_2 O6 1_555 1_555
Th9 O5 1_555 1_555
Th10 O10 1_555 1_555
Th11_2 O17 1_555 1_555
Th12 O16 1_555 1_555
O20 Th2 1_555 1_555
O21 Th3 1_555 1_555
O22 Th3 1_555 1_555
O23 Th1 1_555 1_555
O24 Th1 1_555 1_555
O25 Th2 1_555 1_555
O26 Th3 1_555 1_555
O27 Th3 1_555 1_555
O28 Th2 1_555 1_555
O29 Th1 1_555 1_555
O30 Th1 1_555 1_555
O4 Th3 1_555 1_555
C6 C8 1_555 1_555
O9 Th2 1_555 1_555
C14 C16 1_555 1_555
Th2 O30 1_555 1_555
O14 Th6 1_555 1_555
O15 Th6 1_555 1_555
C22 C24 1_555 1_555
Th3 O29 1_555 1_555
O19 Th4 1_555 1_555
O19 Th5 1_555 1_555
Th4 O27 1_555 1_555
Th4 O28 1_555 1_555
Th5 O28 1_555 1_555
Th5 O29 1_555 1_555
Th6 O27 1_555 1_555
Th6 O30 1_555 1_555
C17_2 O21 1_555 1_555
C18_2 C17_2 1_555 1_555
C19_2 C18_2 1_555 1_555
H9_2 C19_2 1_555 1_555
O15_2 C17_2 1_555 1_555
C20_2 C18_2 1_555 1_555
H10_2 C20_2 1_555 1_555
O16_2 C21_2 1_555 1_555
C21_2 C22_2 1_555 1_555
C22_2 C23_2 1_555 1_555
C23_2 C19_2 1_555 1_555
H11_2 C23_2 1_555 1_555
O17_2 C21_2 1_555 1_555
C24_2 C20_2 1_555 1_555
H12_2 C24_2 1_555 1_555
Th11_3 O17_2 1_555 1_555
Th12_4 O16_2 1_555 1_555
O15_2 Th5 1_555 1_555
C22_2 C24_2 1_555 1_555
Th4 O1_2 1_555 1_555
O1_2 C1_2 1_555 1_555
O2_2 Th4 1_555 1_555
C1_2 C2_2 1_555 1_555
C2_2 C3_2 1_555 1_555
C3_2 H1_2 1_555 1_555
O25 C1_2 1_555 1_555
C4_2 C2_2 1_555 1_555
H2_2 C4_2 1_555 1_555
O5_2 C5_2 1_555 1_555
C5_2 C6_2 1_555 1_555
C6_2 C7_2 1_555 1_555
C7_2 C3_2 1_555 1_555
H3_2 C7_2 1_555 1_555
O6_2 C5_2 1_555 1_555
C8_2 C4_2 1_555 1_555
H4_2 C8_2 1_555 1_555
O7_2 Th4 1_555 1_555
C9_2 O7_2 1_555 1_555
C10_2 C9_2 1_555 1_555
C11_2 C10_2 1_555 1_555
H5_2 C11_2 1_555 1_555
O26 C9_2 1_555 1_555
C12_2 C10_2 1_555 1_555
H6_2 C12_2 1_555 1_555
O10_2 C13_2 1_555 1_555
C13_2 C14_2 1_555 1_555
C14_2 C15_2 1_555 1_555
C15_2 C11_2 1_555 1_555
H7_2 C15_2 1_555 1_555
O11_2 C13_2 1_555 1_555
C16_2 C12_2 1_555 1_555
H8_2 C16_2 1_555 1_555
C17_3 O22 1_555 1_555
C18_3 C17_3 1_555 1_555
C19_3 C18_3 1_555 1_555
H9_3 C19_3 1_555 1_555
O15_3 C17_3 1_555 1_555
C20_3 C18_3 1_555 1_555
H10_3 C20_3 1_555 1_555
O16_3 C21_3 1_555 1_555
C21_3 C22_3 1_555 1_555
C22_3 C23_3 1_555 1_555
C23_3 C19_3 1_555 1_555
H11_3 C23_3 1_555 1_555
O17_3 C21_3 1_555 1_555
C24_3 C20_3 1_555 1_555
H12_3 C24_3 1_555 1_555
Th7_2 O11_2 1_555 1_555
Th7 O6_2 1_555 1_555
Th10_2 O5_2 1_555 1_555
Th9_2 O10_2 1_555 1_555
Th11_4 O17_3 1_555 1_555
Th12_2 O16_3 1_555 1_555
O23_2 Th4 1_555 1_555
O24_2 Th4 1_555 1_555
C6_2 C8_2 1_555 1_555
C14_2 C16_2 1_555 1_555
O15_3 Th6 1_555 1_555
C22_3 C24_3 1_555 1_555
C17_4 O20 1_555 1_555
C18_4 C17_4 1_555 1_555
C19_4 C18_4 1_555 1_555
H9_4 C19_4 1_555 1_555
O15_4 C17_4 1_555 1_555
C20_4 C18_4 1_555 1_555
H10_4 C20_4 1_555 1_555
O16_4 C21_4 1_555 1_555
C21_4 C22_4 1_555 1_555
C22_4 C23_4 1_555 1_555
C23_4 C19_4 1_555 1_555
H11_4 C23_4 1_555 1_555
O17_4 C21_4 1_555 1_555
C24_4 C20_4 1_555 1_555
H12_4 C24_4 1_555 1_555
Th11 O17_4 1_555 1_555
Th12_3 O16_4 1_555 1_555
O15_4 Th5 1_555 1_555
C22_4 C24_4 1_555 1_555
O12_2 Th5 1_555 1_555
O13_2 Th5 1_555 1_555
C17_5 O12_2 1_555 1_555
C18_5 C17_5 1_555 1_555
C19_5 C18_5 1_555 1_555
H9_5 C19_5 1_555 1_555
O23_2 C17_5 1_555 1_555
C20_5 C18_5 1_555 1_555
H10_5 C20_5 1_555 1_555
O16_5 C21_5 1_555 1_555
C21_5 C22_5 1_555 1_555
C22_5 C23_5 1_555 1_555
C23_5 C19_5 1_555 1_555
H11_5 C23_5 1_555 1_555
O17_5 C21_5 1_555 1_555
C24_5 C20_5 1_555 1_555
H12_5 C24_5 1_555 1_555
O18_2 Th6 1_555 1_555
Th11_6 O17_5 1_555 1_555
Th12_5 O16_5 1_555 1_555
O20_2 Th5 1_555 1_555
O21_2 Th6 1_555 1_555
O22_2 Th6 1_555 1_555
C22_5 C24_5 1_555 1_555
C17_6 O21_2 1_555 1_555
C18_6 C17_6 1_555 1_555
C19_6 C18_6 1_555 1_555
H9_6 C19_6 1_555 1_555
O24 C17_6 1_555 1_555
C20_6 C18_6 1_555 1_555
H10_6 C20_6 1_555 1_555
O16_6 C21_6 1_555 1_555
C21_6 C22_6 1_555 1_555
C22_6 C23_6 1_555 1_555
C23_6 C19_6 1_555 1_555
H11_6 C23_6 1_555 1_555
O17_6 C21_6 1_555 1_555
C24_6 C20_6 1_555 1_555
H12_6 C24_6 1_555 1_555
Th11_7 O17_6 1_555 1_555
Th12_8 O16_6 1_555 1_555
C22_6 C24_6 1_555 1_555
C17_7 O22_2 1_555 1_555
C18_7 C17_7 1_555 1_555
C19_7 C18_7 1_555 1_555
H9_7 C19_7 1_555 1_555
O24_2 C17_7 1_555 1_555
C20_7 C18_7 1_555 1_555
H10_7 C20_7 1_555 1_555
O16_7 C21_7 1_555 1_555
C21_7 C22_7 1_555 1_555
C22_7 C23_7 1_555 1_555
C23_7 C19_7 1_555 1_555
H11_7 C23_7 1_555 1_555
O17_7 C21_7 1_555 1_555
C24_7 C20_7 1_555 1_555
H12_7 C24_7 1_555 1_555
Th11_8 O17_7 1_555 1_555
Th12_6 O16_7 1_555 1_555
C22_7 C24_7 1_555 1_555
C17_8 O20_2 1_555 1_555
C18_8 C17_8 1_555 1_555
C19_8 C18_8 1_555 1_555
H9_8 C19_8 1_555 1_555
O23 C17_8 1_555 1_555
C20_8 C18_8 1_555 1_555
H10_8 C20_8 1_555 1_555
O16_8 C21_8 1_555 1_555
C21_8 C22_8 1_555 1_555
C22_8 C23_8 1_555 1_555
C23_8 C19_8 1_555 1_555
H11_8 C23_8 1_555 1_555
O17_8 C21_8 1_555 1_555
C24_8 C20_8 1_555 1_555
H12_8 C24_8 1_555 1_555
Th11_5 O17_8 1_555 1_555
Th12_7 O16_8 1_555 1_555
C22_8 C24_8 1_555 1_555
O12_3 Th2_2 1_555 1_555
O13_3 Th2_2 1_555 1_555
C17_9 O12_3 1_555 1_555
C18_9 C17_9 1_555 1_555
C19_9 C18_9 1_555 1_555
H9_9 C19_9 1_555 1_555
O14_2 Th2_2 1_555 1_555
O15_5 C17_9 1_555 1_555
C20_9 C18_9 1_555 1_555
H10_9 C20_9 1_555 1_555
O16_9 C21_9 1_555 1_555
C21_9 C22_9 1_555 1_555
C22_9 C23_9 1_555 1_555
C23_9 C19_9 1_555 1_555
H11_9 C23_9 1_555 1_555
O17_9 C21_9 1_555 1_555
C24_9 C20_9 1_555 1_555
H12_9 C24_9 1_555 1_555
O18_3 Th3_2 1_555 1_555
Th12_7 O14_2 1_555 1_555
Th10 O17_9 1_555 1_555
Th12_9 O16_9 1_555 1_555
O22_3 Th3_2 1_555 1_555
O25_2 Th2_2 1_555 1_555
O26_2 Th3_2 1_555 1_555
O27_2 Th3_2 1_555 1_555
O14_2 Th11_5 1_555 1_555
O15_5 Th11_5 1_555 1_555
C22_9 C24_9 1_555 1_555
Th12_7 O27_2 1_555 1_555
Th11_5 O27_2 1_555 1_555
Th12_5 O1_3 1_555 1_555
O1_3 C1_3 1_555 1_555
O2_3 Th12_5 1_555 1_555
C1_3 C2_3 1_555 1_555
C2_3 C3_3 1_555 1_555
C3_3 H1_3 1_555 1_555
O3_2 Th12_5 1_555 1_555
O4_2 C1_3 1_555 1_555
C4_3 C2_3 1_555 1_555
H2_3 C4_3 1_555 1_555
O5_3 C5_3 1_555 1_555
C5_3 C6_3 1_555 1_555
C6_3 C7_3 1_555 1_555
C7_3 C3_3 1_555 1_555
H3_3 C7_3 1_555 1_555
O6_3 C5_3 1_555 1_555
C8_3 C4_3 1_555 1_555
H4_3 C8_3 1_555 1_555
O7_3 Th12_5 1_555 1_555
C9_3 O7_3 1_555 1_555
C10_3 C9_3 1_555 1_555
C11_3 C10_3 1_555 1_555
H5_3 C11_3 1_555 1_555
O9_2 C9_3 1_555 1_555
C12_3 C10_3 1_555 1_555
H6_3 C12_3 1_555 1_555
O10_3 C13_3 1_555 1_555
C13_3 C14_3 1_555 1_555
C14_3 C15_3 1_555 1_555
C15_3 C11_3 1_555 1_555
H7_3 C15_3 1_555 1_555
O11_3 C13_3 1_555 1_555
C16_3 C12_3 1_555 1_555
H8_3 C16_3 1_555 1_555
O12_4 Th2_3 1_555 1_555
O13_4 Th2_3 1_555 1_555
C17_10 O12_4 1_555 1_555
C18_10 C17_10 1_555 1_555
C19_10 C18_10 1_555 1_555
H9_10 C19_10 1_555 1_555
O15_6 C17_10 1_555 1_555
C20_10 C18_10 1_555 1_555
H10_10 C20_10 1_555 1_555
O16_10 C21_10 1_555 1_555
C21_10 C22_10 1_555 1_555
C22_10 C23_10 1_555 1_555
C23_10 C19_10 1_555 1_555
H11_10 C23_10 1_555 1_555
O17_10 C21_10 1_555 1_555
C24_10 C20_10 1_555 1_555
H12_10 C24_10 1_555 1_555
Th3_3 O3_2 1_555 1_555
O18_4 Th3_3 1_555 1_555
Th11_6 O3_2 1_555 1_555
Th8_3 O11_3 1_555 1_555
Th8_5 O6_3 1_555 1_555
Th11_3 O5_3 1_555 1_555
Th11 O10_3 1_555 1_555
Th10_2 O17_10 1_555 1_555
Th12_10 O16_10 1_555 1_555
O22_4 Th3_3 1_555 1_555
O30_2 Th12_5 1_555 1_555
O4_2 Th3_3 1_555 1_555
C6_3 C8_3 1_555 1_555
O9_2 Th2_3 1_555 1_555
C14_3 C16_3 1_555 1_555
Th2_3 O30_2 1_555 1_555
O15_6 Th11_6 1_555 1_555
C22_10 C24_10 1_555 1_555
Th11_6 O30_2 1_555 1_555
O13_5 Th2_4 1_555 1_555
O18_5 Th3_4 1_555 1_555
O19_2 Th3_4 1_555 1_555
O20_3 Th2_4 1_555 1_555
O21_3 Th3_4 1_555 1_555
O25_3 Th2_4 1_555 1_555
O26_3 Th3_4 1_555 1_555
O28_2 Th2_4 1_555 1_555
O19_2 Th12_8 1_555 1_555
O19_2 Th11_7 1_555 1_555
Th12_8 O28_2 1_555 1_555
Th11_7 O28_2 1_555 1_555
Th12_6 O1_4 1_555 1_555
O1_4 C1_4 1_555 1_555
O2_4 Th12_6 1_555 1_555
C1_4 C2_4 1_555 1_555
C2_4 C3_4 1_555 1_555
C3_4 H1_4 1_555 1_555
O4_3 C1_4 1_555 1_555
C4_4 C2_4 1_555 1_555
H2_4 C4_4 1_555 1_555
O5_4 C5_4 1_555 1_555
C5_4 C6_4 1_555 1_555
C6_4 C7_4 1_555 1_555
C7_4 C3_4 1_555 1_555
H3_4 C7_4 1_555 1_555
O6_4 C5_4 1_555 1_555
C8_4 C4_4 1_555 1_555
H4_4 C8_4 1_555 1_555
O7_4 Th12_6 1_555 1_555
C9_4 O7_4 1_555 1_555
C10_4 C9_4 1_555 1_555
C11_4 C10_4 1_555 1_555
H5_4 C11_4 1_555 1_555
O8_2 Th12_6 1_555 1_555
O9_3 C9_4 1_555 1_555
C12_4 C10_4 1_555 1_555
H6_4 C12_4 1_555 1_555
O10_4 C13_4 1_555 1_555
C13_4 C14_4 1_555 1_555
C14_4 C15_4 1_555 1_555
C15_4 C11_4 1_555 1_555
H7_4 C15_4 1_555 1_555
O11_4 C13_4 1_555 1_555
C16_4 C12_4 1_555 1_555
H8_4 C16_4 1_555 1_555
Th2_5 O8_2 1_555 1_555
O13_6 Th2_5 1_555 1_555
O18_6 Th3_5 1_555 1_555
Th11_8 O8_2 1_555 1_555
Th8_4 O11_4 1_555 1_555
Th8_6 O6_4 1_555 1_555
Th11_4 O5_4 1_555 1_555
Th11_2 O10_4 1_555 1_555
O20_4 Th2_5 1_555 1_555
O21_4 Th3_5 1_555 1_555
O29_2 Th12_6 1_555 1_555
O4_3 Th3_5 1_555 1_555
C6_4 C8_4 1_555 1_555
O9_3 Th2_5 1_555 1_555
C14_4 C16_4 1_555 1_555
Th3_5 O29_2 1_555 1_555
Th11_8 O29_2 1_555 1_555
C17_11 O21_3 1_555 1_555
C18_11 C17_11 1_555 1_555
C19_11 C18_11 1_555 1_555
H9_11 C19_11 1_555 1_555
O15_7 C17_11 1_555 1_555
C20_11 C18_11 1_555 1_555
H10_11 C20_11 1_555 1_555
O16_11 C21_11 1_555 1_555
C21_11 C22_11 1_555 1_555
C22_11 C23_11 1_555 1_555
C23_11 C19_11 1_555 1_555
H11_11 C23_11 1_555 1_555
O17_11 C21_11 1_555 1_555
C24_11 C20_11 1_555 1_555
H12_11 C24_11 1_555 1_555
Th9 O17_11 1_555 1_555
Th12_15 O16_11 1_555 1_555
O15_7 Th11_7 1_555 1_555
C22_11 C24_11 1_555 1_555
C17_12 O21_4 1_555 1_555
C18_12 C17_12 1_555 1_555
C19_12 C18_12 1_555 1_555
H9_12 C19_12 1_555 1_555
O15_8 C17_12 1_555 1_555
C20_12 C18_12 1_555 1_555
H10_12 C20_12 1_555 1_555
O16_12 C21_12 1_555 1_555
C21_12 C22_12 1_555 1_555
C22_12 C23_12 1_555 1_555
C23_12 C19_12 1_555 1_555
H11_12 C23_12 1_555 1_555
O17_12 C21_12 1_555 1_555
C24_12 C20_12 1_555 1_555
H12_12 C24_12 1_555 1_555
Th9_2 O17_12 1_555 1_555
Th12_16 O16_12 1_555 1_555
O15_8 Th11_8 1_555 1_555
C22_12 C24_12 1_555 1_555
Th12_7 O1_5 1_555 1_555
O1_5 C1_5 1_555 1_555
O2_5 Th12_7 1_555 1_555
C1_5 C2_5 1_555 1_555
C2_5 C3_5 1_555 1_555
C3_5 H1_5 1_555 1_555
O25_2 C1_5 1_555 1_555
C4_5 C2_5 1_555 1_555
H2_5 C4_5 1_555 1_555
O5_5 C5_5 1_555 1_555
C5_5 C6_5 1_555 1_555
C6_5 C7_5 1_555 1_555
C7_5 C3_5 1_555 1_555
H3_5 C7_5 1_555 1_555
O6_5 C5_5 1_555 1_555
C8_5 C4_5 1_555 1_555
H4_5 C8_5 1_555 1_555
O7_5 Th12_7 1_555 1_555
C9_5 O7_5 1_555 1_555
C10_5 C9_5 1_555 1_555
C11_5 C10_5 1_555 1_555
H5_5 C11_5 1_555 1_555
O26_2 C9_5 1_555 1_555
C12_5 C10_5 1_555 1_555
H6_5 C12_5 1_555 1_555
O10_5 C13_5 1_555 1_555
C13_5 C14_5 1_555 1_555
C14_5 C15_5 1_555 1_555
C15_5 C11_5 1_555 1_555
H7_5 C15_5 1_555 1_555
O11_5 C13_5 1_555 1_555
C16_5 C12_5 1_555 1_555
H8_5 C16_5 1_555 1_555
C17_13 O22_3 1_555 1_555
C18_13 C17_13 1_555 1_555
C19_13 C18_13 1_555 1_555
H9_13 C19_13 1_555 1_555
O15_9 C17_13 1_555 1_555
C20_13 C18_13 1_555 1_555
H10_13 C20_13 1_555 1_555
O16_13 C21_13 1_555 1_555
C21_13 C22_13 1_555 1_555
C22_13 C23_13 1_555 1_555
C23_13 C19_13 1_555 1_555
H11_13 C23_13 1_555 1_555
O17_13 C21_13 1_555 1_555
C24_13 C20_13 1_555 1_555
H12_13 C24_13 1_555 1_555
Th7_5 O11_5 1_555 1_555
Th7_3 O6_5 1_555 1_555
Th11 O5_5 1_555 1_555
Th11_3 O10_5 1_555 1_555
Th9 O17_13 1_555 1_555
Th12_11 O16_13 1_555 1_555
C6_5 C8_5 1_555 1_555
C14_5 C16_5 1_555 1_555
O15_9 Th11_5 1_555 1_555
C22_13 C24_13 1_555 1_555
C17_14 O22_4 1_555 1_555
C18_14 C17_14 1_555 1_555
C19_14 C18_14 1_555 1_555
H9_14 C19_14 1_555 1_555
O15_10 C17_14 1_555 1_555
C20_14 C18_14 1_555 1_555
H10_14 C20_14 1_555 1_555
O16_14 C21_14 1_555 1_555
C21_14 C22_14 1_555 1_555
C22_14 C23_14 1_555 1_555
C23_14 C19_14 1_555 1_555
H11_14 C23_14 1_555 1_555
O17_14 C21_14 1_555 1_555
C24_14 C20_14 1_555 1_555
H12_14 C24_14 1_555 1_555
Th9_2 O17_14 1_555 1_555
Th12_12 O16_14 1_555 1_555
O15_10 Th11_6 1_555 1_555
C22_14 C24_14 1_555 1_555
Th12_8 O1_6 1_555 1_555
O1_6 C1_6 1_555 1_555
O2_6 Th12_8 1_555 1_555
C1_6 C2_6 1_555 1_555
C2_6 C3_6 1_555 1_555
C3_6 H1_6 1_555 1_555
O25_3 C1_6 1_555 1_555
C4_6 C2_6 1_555 1_555
H2_6 C4_6 1_555 1_555
O5_6 C5_6 1_555 1_555
C5_6 C6_6 1_555 1_555
C6_6 C7_6 1_555 1_555
C7_6 C3_6 1_555 1_555
H3_6 C7_6 1_555 1_555
O6_6 C5_6 1_555 1_555
C8_6 C4_6 1_555 1_555
H4_6 C8_6 1_555 1_555
O7_6 Th12_8 1_555 1_555
C9_6 O7_6 1_555 1_555
C10_6 C9_6 1_555 1_555
C11_6 C10_6 1_555 1_555
H5_6 C11_6 1_555 1_555
O26_3 C9_6 1_555 1_555
C12_6 C10_6 1_555 1_555
H6_6 C12_6 1_555 1_555
O10_6 C13_6 1_555 1_555
C13_6 C14_6 1_555 1_555
C14_6 C15_6 1_555 1_555
C15_6 C11_6 1_555 1_555
H7_6 C15_6 1_555 1_555
O11_6 C13_6 1_555 1_555
C16_6 C12_6 1_555 1_555
H8_6 C16_6 1_555 1_555
Th7_6 O11_6 1_555 1_555
Th7_4 O6_6 1_555 1_555
Th11_2 O5_6 1_555 1_555
Th11_4 O10_6 1_555 1_555
C6_6 C8_6 1_555 1_555
C14_6 C16_6 1_555 1_555
C17_15 O20_3 1_555 1_555
C18_15 C17_15 1_555 1_555
C19_15 C18_15 1_555 1_555
H9_15 C19_15 1_555 1_555
O15_11 C17_15 1_555 1_555
C20_15 C18_15 1_555 1_555
H10_15 C20_15 1_555 1_555
O16_15 C21_15 1_555 1_555
C21_15 C22_15 1_555 1_555
C22_15 C23_15 1_555 1_555
C23_15 C19_15 1_555 1_555
H11_15 C23_15 1_555 1_555
O17_15 C21_15 1_555 1_555
C24_15 C20_15 1_555 1_555
H12_15 C24_15 1_555 1_555
Th10 O17_15 1_555 1_555
Th12_13 O16_15 1_555 1_555
O15_11 Th11_7 1_555 1_555
C22_15 C24_15 1_555 1_555
C17_16 O20_4 1_555 1_555
C18_16 C17_16 1_555 1_555
C19_16 C18_16 1_555 1_555
H9_16 C19_16 1_555 1_555
O15_12 C17_16 1_555 1_555
C20_16 C18_16 1_555 1_555
H10_16 C20_16 1_555 1_555
O16_16 C21_16 1_555 1_555
C21_16 C22_16 1_555 1_555
C22_16 C23_16 1_555 1_555
C23_16 C19_16 1_555 1_555
H11_16 C23_16 1_555 1_555
O17_16 C21_16 1_555 1_555
C24_16 C20_16 1_555 1_555
H12_16 C24_16 1_555 1_555
Th10_2 O17_16 1_555 1_555
Th12_14 O16_16 1_555 1_555
O15_12 Th11_8 1_555 1_555
C22_16 C24_16 1_555 1_555
O18_7 Th11_5 1_555 1_555
O18_8 Th11_6 1_555 1_555
O13_7 Th11_7 1_555 1_555
O13_8 Th11_8 1_555 1_555
O18_9 Th10 1_555 1_555
O19_3 Th10 1_555 1_555
O27_3 Th10 1_555 1_555
O19_3 Th8 1_555 1_555
O19_3 Th12_9 1_555 1_555
Th8 O27_3 1_555 1_555
Th12_13 O27_3 1_555 1_555
O2_7 Th7 1_555 1_555
O3_3 Th7 1_555 1_555
Th10_2 O3_3 1_555 1_555
O18_10 Th10_2 1_555 1_555
Th12_14 O3_3 1_555 1_555
O23_3 Th7 1_555 1_555
O24_3 Th7 1_555 1_555
O29_3 Th7 1_555 1_555
Th10_2 O29_3 1_555 1_555
Th12_10 O29_3 1_555 1_555
O13_9 Th9 1_555 1_555
O14_3 Th9 1_555 1_555
Th8_2 O14_3 1_555 1_555
O28_3 Th9 1_555 1_555
O14_3 Th12_15 1_555 1_555
Th8_2 O28_3 1_555 1_555
Th12_11 O28_3 1_555 1_555
O2_8 Th7_2 1_555 1_555
O8_3 Th7_2 1_555 1_555
Th9_2 O8_3 1_555 1_555
O13_10 Th9_2 1_555 1_555
Th12_12 O8_3 1_555 1_555
O23_4 Th7_2 1_555 1_555
O24_4 Th7_2 1_555 1_555
O30_3 Th7_2 1_555 1_555
Th9_2 O30_3 1_555 1_555
Th12_16 O30_3 1_555 1_555
O2_9 Th8 1_555 1_555
O23_5 Th8 1_555 1_555
O24_5 Th8 1_555 1_555
O2_10 Th8_2 1_555 1_555
O23_6 Th8_2 1_555 1_555
O24_6 Th8_2 1_555 1_555
O12_5 Th12_9 1_555 1_555
O13_11 Th12_9 1_555 1_555
C17_17 O12_5 1_555 1_555
C18_17 C17_17 1_555 1_555
C19_17 C18_17 1_555 1_555
H9_17 C19_17 1_555 1_555
O23_5 C17_17 1_555 1_555
C20_17 C18_17 1_555 1_555
H10_17 C20_17 1_555 1_555
O16_17 C21_17 1_555 1_555
C21_17 C22_17 1_555 1_555
C22_17 C23_17 1_555 1_555
C23_17 C19_17 1_555 1_555
H11_17 C23_17 1_555 1_555
O17_17 C21_17 1_555 1_555
C24_17 C20_17 1_555 1_555
H12_17 C24_17 1_555 1_555
O18_11 Th12_13 1_555 1_555
Th12_3 O17_17 1_555 1_555
Th7_3 O16_17 1_555 1_555
O22_5 Th12_13 1_555 1_555
C22_17 C24_17 1_555 1_555
O13_12 Th12_10 1_555 1_555
O18_12 Th12_14 1_555 1_555
O20_5 Th12_10 1_555 1_555
O21_5 Th12_14 1_555 1_555
O12_6 Th12_11 1_555 1_555
O13_13 Th12_11 1_555 1_555
C17_18 O12_6 1_555 1_555
C18_18 C17_18 1_555 1_555
C19_18 C18_18 1_555 1_555
H9_18 C19_18 1_555 1_555
O23_6 C17_18 1_555 1_555
C20_18 C18_18 1_555 1_555
H10_18 C20_18 1_555 1_555
O16_18 C21_18 1_555 1_555
C21_18 C22_18 1_555 1_555
C22_18 C23_18 1_555 1_555
C23_18 C19_18 1_555 1_555
H11_18 C23_18 1_555 1_555
O17_18 C21_18 1_555 1_555
C24_18 C20_18 1_555 1_555
H12_18 C24_18 1_555 1_555
O18_13 Th12_15 1_555 1_555
Th12_4 O17_18 1_555 1_555
Th7_5 O16_18 1_555 1_555
O22_6 Th12_15 1_555 1_555
C22_18 C24_18 1_555 1_555
O13_14 Th12_12 1_555 1_555
O18_14 Th12_16 1_555 1_555
O20_6 Th12_12 1_555 1_555
O21_6 Th12_16 1_555 1_555
C17_19 O21_5 1_555 1_555
C18_19 C17_19 1_555 1_555
C19_19 C18_19 1_555 1_555
H9_19 C19_19 1_555 1_555
O24_3 C17_19 1_555 1_555
C20_19 C18_19 1_555 1_555
H10_19 C20_19 1_555 1_555
O16_19 C21_19 1_555 1_555
C21_19 C22_19 1_555 1_555
C22_19 C23_19 1_555 1_555
C23_19 C19_19 1_555 1_555
H11_19 C23_19 1_555 1_555
O17_19 C21_19 1_555 1_555
C24_19 C20_19 1_555 1_555
H12_19 C24_19 1_555 1_555
Th12 O17_19 1_555 1_555
Th8_4 O16_19 1_555 1_555
C22_19 C24_19 1_555 1_555
C17_20 O21_6 1_555 1_555
C18_20 C17_20 1_555 1_555
C19_20 C18_20 1_555 1_555
H9_20 C19_20 1_555 1_555
O24_4 C17_20 1_555 1_555
C20_20 C18_20 1_555 1_555
H10_20 C20_20 1_555 1_555
O16_20 C21_20 1_555 1_555
C21_20 C22_20 1_555 1_555
C22_20 C23_20 1_555 1_555
C23_20 C19_20 1_555 1_555
H11_20 C23_20 1_555 1_555
O17_20 C21_20 1_555 1_555
C24_20 C20_20 1_555 1_555
H12_20 C24_20 1_555 1_555
Th12_2 O17_20 1_555 1_555
Th8_6 O16_20 1_555 1_555
C22_20 C24_20 1_555 1_555
C17_21 O22_5 1_555 1_555
C18_21 C17_21 1_555 1_555
C19_21 C18_21 1_555 1_555
H9_21 C19_21 1_555 1_555
O24_5 C17_21 1_555 1_555
C20_21 C18_21 1_555 1_555
H10_21 C20_21 1_555 1_555
O16_21 C21_21 1_555 1_555
C21_21 C22_21 1_555 1_555
C22_21 C23_21 1_555 1_555
C23_21 C19_21 1_555 1_555
H11_21 C23_21 1_555 1_555
O17_21 C21_21 1_555 1_555
C24_21 C20_21 1_555 1_555
H12_21 C24_21 1_555 1_555
Th12 O17_21 1_555 1_555
Th7_4 O16_21 1_555 1_555
C22_21 C24_21 1_555 1_555
C17_22 O22_6 1_555 1_555
C18_22 C17_22 1_555 1_555
C19_22 C18_22 1_555 1_555
H9_22 C19_22 1_555 1_555
O24_6 C17_22 1_555 1_555
C20_22 C18_22 1_555 1_555
H10_22 C20_22 1_555 1_555
O16_22 C21_22 1_555 1_555
C21_22 C22_22 1_555 1_555
C22_22 C23_22 1_555 1_555
C23_22 C19_22 1_555 1_555
H11_22 C23_22 1_555 1_555
O17_22 C21_22 1_555 1_555
C24_22 C20_22 1_555 1_555
H12_22 C24_22 1_555 1_555
Th12_2 O17_22 1_555 1_555
Th7_6 O16_22 1_555 1_555
C22_22 C24_22 1_555 1_555
C17_23 O20_5 1_555 1_555
C18_23 C17_23 1_555 1_555
C19_23 C18_23 1_555 1_555
H9_23 C19_23 1_555 1_555
O23_3 C17_23 1_555 1_555
C20_23 C18_23 1_555 1_555
H10_23 C20_23 1_555 1_555
O16_23 C21_23 1_555 1_555
C21_23 C22_23 1_555 1_555
C22_23 C23_23 1_555 1_555
C23_23 C19_23 1_555 1_555
H11_23 C23_23 1_555 1_555
O17_23 C21_23 1_555 1_555
C24_23 C20_23 1_555 1_555
H12_23 C24_23 1_555 1_555
Th12_3 O17_23 1_555 1_555
Th8_3 O16_23 1_555 1_555
C22_23 C24_23 1_555 1_555
C17_24 O20_6 1_555 1_555
C18_24 C17_24 1_555 1_555
C19_24 C18_24 1_555 1_555
H9_24 C19_24 1_555 1_555
O23_4 C17_24 1_555 1_555
C20_24 C18_24 1_555 1_555
H10_24 C20_24 1_555 1_555
O16_24 C21_24 1_555 1_555
C21_24 C22_24 1_555 1_555
C22_24 C23_24 1_555 1_555
C23_24 C19_24 1_555 1_555
H11_24 C23_24 1_555 1_555
O17_24 C21_24 1_555 1_555
C24_24 C20_24 1_555 1_555
H12_24 C24_24 1_555 1_555
Th12_4 O17_24 1_555 1_555
Th8_5 O16_24 1_555 1_555
C22_24 C24_24 1_555 1_555
O2_11 Th7_3 1_555 1_555
O3_4 Th7_3 1_555 1_555
Th11 O3_4 1_555 1_555
O18_15 Th11 1_555 1_555
Th12_3 O3_4 1_555 1_555
O27_4 Th11 1_555 1_555
Th8_3 O27_4 1_555 1_555
Th12_3 O27_4 1_555 1_555
O2_12 Th7_4 1_555 1_555
O18_16 Th11_2 1_555 1_555
O19_4 Th11_2 1_555 1_555
O29_4 Th7_4 1_555 1_555
Th11_2 O29_4 1_555 1_555
O19_4 Th8_4 1_555 1_555
O19_4 Th12 1_555 1_555
Th12 O29_4 1_555 1_555
O2_13 Th7_5 1_555 1_555
O13_15 Th11_3 1_555 1_555
O14_4 Th11_3 1_555 1_555
Th8_5 O14_4 1_555 1_555
O30_4 Th7_5 1_555 1_555
Th11_3 O30_4 1_555 1_555
O14_4 Th12_4 1_555 1_555
Th12_4 O30_4 1_555 1_555
O2_14 Th7_6 1_555 1_555
O8_4 Th7_6 1_555 1_555
Th11_4 O8_4 1_555 1_555
O13_16 Th11_4 1_555 1_555
Th12_2 O8_4 1_555 1_555
O28_4 Th11_4 1_555 1_555
Th8_6 O28_4 1_555 1_555
Th12_2 O28_4 1_555 1_555
O2_15 Th8_3 1_555 1_555
O2_16 Th8_4 1_555 1_555
O2_17 Th8_5 1_555 1_555
O2_18 Th8_6 1_555 1_555
O18_17 Th12_3 1_555 1_555
O13_17 Th12 1_555 1_555
O18_18 Th12_4 1_555 1_555
O13_18 Th12_2 1_555 1_555

#END
