
###############################################################################
#
# This file contains modified crystal structure data generated from the
# MOF subset of the Cambridge Structural Database (CSD) v543 
# hosted by the Cambridge Crystallographic Data Centre (CCDC).
#
# This work is licensed under the Creative Commons
# Attribution-NonCommercial-ShareAlike 4.0 International License.
# To view a copy of this license, visit
# http://creativecommons.org/licenses/by-nc-sa/4.0/
# or send a letter to
# Creative Commons, PO Box 1866, Mountain View, CA 94042, USA.
#
# CIF created using the CSD Python API on 29 September 2022
# The structure has been converted into the P1 space group
# The structure has a 3D framework
# The original CSD entry DURDIF is in the monoclinic crystal system
# The original CSD entry DURDIF is in a Sohncke space group
# The framework has been calculated to contain at least 10.0% void space
# The void calculation uses a probe of radius 1.32A, grid spacing 0.4
#
###############################################################################

data_DURDIF
_chemical_formula_moiety         '(C52 H42 N2 O18 Zn4)n'
_symmetry_cell_setting           triclinic
_symmetry_space_group_name_H-M   'P 1'
_symmetry_Int_Tables_number      1
_space_group_name_Hall           'P 1'
loop_
_symmetry_equiv_pos_site_id
_symmetry_equiv_pos_as_xyz
1 x,y,z
_cell_length_a                   10.19159(13)
_cell_length_b                   16.42204(19)
_cell_length_c                   15.56239(19)
_cell_angle_alpha                90
_cell_angle_beta                 107.0727(13)
_cell_angle_gamma                90
_cell_volume                     2489.85
loop_
_atom_site_label
_atom_site_type_symbol
_atom_site_fract_x
_atom_site_fract_y
_atom_site_fract_z
O4 O 0.4582(3) 0.45172(18) 0.03661(18)
Zn4 Zn 0.51175(4) 0.38804(3) 0.14682(3)
Zn6 Zn 0.23552(5) 0.29204(3) 0.00155(3)
O1 O 0.3716(3) 0.42089(18) 0.20479(19)
O3 O 0.3155(3) 0.37515(16) 0.93189(17)
O5 O 0.4984(3) 0.77088(17) 0.82652(19)
O6 O 0.2010(3) 0.37106(18) 0.09068(18)
O8 O 0.5974(3) 0.72151(18) 0.96410(19)
O9 O 0.1274(4) 0.2072(2) 0.0581(2)
C1 C 0.3906(4) 0.4364(2) 0.9574(3)
C2 C 0.3944(4) 0.4998(2) 0.8878(3)
C3 C 0.2730(4) 0.5294(3) 0.6356(3)
C4 C 0.2475(4) 0.4020(2) 0.1654(3)
C5 C 0.4583(4) 0.5746(2) 0.9179(2)
H3 H 0.5005 0.5840 0.9787
C6 C 0.1954(4) 0.4520(3) 0.3045(3)
H4 H 0.2884 0.4634 0.3285
C7 C 0.1471(4) 0.4214(2) 0.2171(3)
C8 C 0.1065(5) 0.4661(3) 0.3567(3)
C9 C 0.0078(4) 0.4047(2) 0.1805(2)
C11 C 0.3310(4) 0.5595(3) 0.5720(3)
H6 H 0.4093 0.5918 0.5905
C14 C 0.3335(4) 0.5451(3) 0.7337(3)
C15 C 0.2748(4) 0.5427(3) 0.4808(3)
H8 H 0.3133 0.5658 0.4392
C16 C 0.3941(4) 0.6209(2) 0.7633(3)
H9 H 0.3922 0.6620 0.7219
C17 C 0.3332(4) 0.4859(3) 0.7981(3)
H10 H 0.2907 0.4361 0.7798
C18 C 0.1610(4) 0.4914(3) 0.4512(2)
C19 C 0.5235(4) 0.7156(2) 0.8845(3)
C20 C 0.1562(4) 0.4803(3) 0.6052(3)
H11 H 0.1152 0.4595 0.6466
C21 C 0.0774(6) 0.1370(3) 0.0323(3)
C22 C 0.4564(4) 0.6344(2) 0.8537(3)
C23 C 0.1003(4) 0.4621(3) 0.5151(3)
H12 H 0.0217 0.4301 0.4967
Zn5 Zn 0.48825(4) 0.88804(3) 0.85318(3)
Zn7 Zn 0.76448(5) 0.79204(3) 0.99845(3)
O11 O 0.6855(3) 0.43216(19) 0.23088(18)
O14 O 0.5016(3) 0.27088(17) 0.17348(19)
O15 O 0.7271(3) 0.3633(2) 0.11942(19)
O16 O 0.4026(3) 0.22151(18) 0.03590(19)
O10 O 0.0947(4) 0.2718(3) 0.8871(2)
H1 H 0.1624 0.2970 0.8782
H2 H 0.0915 0.2843 0.9394
C24 C 0.1416(7) 0.0851(4) 0.9732(5)
H13 H 0.0800 0.0827 0.9133
H14 H 0.1583 0.0311 0.9975
H15 H 0.2268 0.1092 0.9718
H5 H 0.9755 0.3830 0.1229
C10 C 0.9154(4) 0.4206(3) 0.2308(3)
N1 N 0.9739(5) 0.1110(3) 0.0547(3)
C12 C 0.7675(4) 0.4035(3) 0.1896(3)
C13 C 0.9679(4) 0.4502(3) 0.3182(3)
H7 H 0.9078 0.4596 0.3520
C25 C 0.8979(7) 0.1641(4) 0.0998(4)
H16 H 0.9462 0.2147 0.1157
H17 H 0.8902 0.1377 0.1531
H18 H 0.8079 0.1745 0.0599
C26 C 0.9111(8) 0.0302(4) 0.0282(5)
H20 H 0.8144 0.0331 0.0209
O2 O 0.3145(3) 0.93216(19) 0.76912(18)
O7 O 0.2729(3) 0.8633(2) 0.88058(19)
H5_2 H 0.0245 0.8830 0.8771
C10_2 C 0.0846(4) 0.9206(3) 0.7692(3)
N1_2 N 0.0261(5) 0.6110(3) 0.9453(3)
C12_2 C 0.2325(4) 0.9035(3) 0.8104(3)
C13_2 C 0.0321(4) 0.9502(3) 0.6818(3)
H7_2 H 0.0922 0.9596 0.6480
C25_2 C 0.1021(7) 0.6641(4) 0.9002(4)
H16_2 H 0.0538 0.7147 0.8843
H17_2 H 0.1098 0.6377 0.8469
H18_2 H 0.1921 0.6745 0.9401
C26_2 C 0.0889(8) 0.5302(4) 0.9718(5)
H20_2 H 0.1856 0.5331 0.9791
H21 H 0.0476 0.4911 0.9259
C3_2 C 0.7270(4) 0.0294(3) 0.3644(3)
C5_2 C 0.5417(4) 0.0746(2) 0.0821(2)
H3_2 H 0.4995 0.0840 0.0213
C11_2 C 0.6690(4) 0.0595(3) 0.4280(3)
H6_2 H 0.5907 0.0918 0.4095
C14_2 C 0.6665(4) 0.0451(3) 0.2663(3)
C15_2 C 0.7252(4) 0.0427(3) 0.5192(3)
H8_2 H 0.6867 0.0658 0.5608
C16_2 C 0.6059(4) 0.1209(2) 0.2367(3)
H9_2 H 0.6078 0.1620 0.2781
C19_2 C 0.4765(4) 0.2156(2) 0.1155(3)
C22_2 C 0.5436(4) 0.1344(2) 0.1463(3)
O10_2 O 0.9053(4) 0.7718(3) 0.1129(2)
H1_2 H 0.8376 0.7970 0.1218
H2_2 H 0.9085 0.7843 0.0606
C24_2 C 0.8584(7) 0.5851(4) 0.0268(5)
H13_2 H 0.9200 0.5827 0.0867
H14_2 H 0.8417 0.5311 0.0025
H15_2 H 0.7732 0.6092 0.0282
O12 O 0.6845(3) 0.87515(16) 0.06811(17)
O1_2 O 0.6284(3) 0.92089(18) 0.79521(19)
O6_2 O 0.7990(3) 0.87106(18) 0.90932(18)
O9_2 O 0.8726(4) 0.7072(2) 0.9419(2)
C1_2 C 0.6094(4) 0.9364(2) 0.0426(3)
C2_2 C 0.6056(4) 0.9998(2) 0.1122(3)
C4_2 C 0.7525(4) 0.9020(2) 0.8346(3)
C6_2 C 0.8046(4) 0.9520(3) 0.6955(3)
H4_2 H 0.7116 0.9634 0.6715
C7_2 C 0.8529(4) 0.9214(2) 0.7829(3)
C8_2 C 0.8935(5) 0.9661(3) 0.6433(3)
C9_2 C 0.9922(4) 0.9047(2) 0.8195(2)
C17_2 C 0.6668(4) 0.9859(3) 0.2019(3)
H10_2 H 0.7093 0.9361 0.2202
C18_2 C 0.8390(4) 0.9914(3) 0.5488(2)
C20_2 C 0.8438(4) 0.9803(3) 0.3948(3)
H11_2 H 0.8848 0.9595 0.3534
C21_2 C 0.9226(6) 0.6370(3) 0.9677(3)
C23_2 C 0.8997(4) 0.9621(3) 0.4849(3)
H12_2 H 0.9783 0.9301 0.5033
O13 O 0.5418(3) 0.95172(18) 0.96339(18)
H19 H 0.9258 0.0138 0.9725
H21_2 H 0.9524 0.9911 0.0741
H19_2 H 0.0742 0.5138 0.0275
loop_
_geom_bond_atom_site_label_1
_geom_bond_atom_site_label_2
_geom_bond_site_symmetry_1
_geom_bond_site_symmetry_2
Zn4 O4 1_555 1_555
Zn4 O1 1_555 1_555
Zn6 O6 1_555 1_555
O1 C4 1_555 1_555
O3 C1 1_555 1_555
O5 C19 1_555 1_555
O6 C4 1_555 1_555
O8 C19 1_555 1_555
O9 Zn6 1_555 1_555
C1 C2 1_555 1_555
C2 C5 1_555 1_555
C3 C11 1_555 1_555
C4 C7 1_555 1_555
C5 H3 1_555 1_555
C6 H4 1_555 1_555
C7 C6 1_555 1_555
C8 C6 1_555 1_555
C9 C7 1_555 1_555
C11 H6 1_555 1_555
C14 C3 1_555 1_555
C15 C11 1_555 1_555
H8 C15 1_555 1_555
C16 C14 1_555 1_555
H9 C16 1_555 1_555
C17 C2 1_555 1_555
H10 C17 1_555 1_555
C18 C8 1_555 1_555
C19 C22 1_555 1_555
C20 C3 1_555 1_555
H11 C20 1_555 1_555
C21 O9 1_555 1_555
C22 C5 1_555 1_555
C23 C18 1_555 1_555
H12 C23 1_555 1_555
Zn5 O5 1_555 1_555
Zn7 O8 1_555 1_555
O11 Zn4 1_555 1_555
O14 Zn4 1_555 1_555
O15 Zn4 1_555 1_555
O16 Zn6 1_555 1_555
C14 C17 1_555 1_555
C15 C18 1_555 1_555
C16 C22 1_555 1_555
C20 C23 1_555 1_555
H1 O10 1_555 1_555
H2 O10 1_555 1_555
H13 C24 1_555 1_555
H14 C24 1_555 1_555
H15 C24 1_555 1_555
O11 C12 1_555 1_555
O15 C12 1_555 1_555
C12 C10 1_555 1_555
H7 C13 1_555 1_555
C25 N1 1_555 1_555
H16 C25 1_555 1_555
H17 C25 1_555 1_555
H18 C25 1_555 1_555
C26 N1 1_555 1_555
H20 C26 1_555 1_555
C10 C13 1_555 1_555
O2 C12_2 1_555 1_555
O7 C12_2 1_555 1_555
C12_2 C10_2 1_555 1_555
H7_2 C13_2 1_555 1_555
C25_2 N1_2 1_555 1_555
H16_2 C25_2 1_555 1_555
H17_2 C25_2 1_555 1_555
H18_2 C25_2 1_555 1_555
C26_2 N1_2 1_555 1_555
H20_2 C26_2 1_555 1_555
H21 C26_2 1_555 1_555
Zn5 O2 1_555 1_555
O7 Zn5 1_555 1_555
C10_2 C13_2 1_555 1_555
O14 C19_2 1_555 1_555
O16 C19_2 1_555 1_555
C3_2 C11_2 1_555 1_555
C5_2 H3_2 1_555 1_555
C11_2 H6_2 1_555 1_555
C14_2 C3_2 1_555 1_555
C15_2 C11_2 1_555 1_555
H8_2 C15_2 1_555 1_555
C16_2 C14_2 1_555 1_555
H9_2 C16_2 1_555 1_555
C19_2 C22_2 1_555 1_555
C22_2 C5_2 1_555 1_555
C16_2 C22_2 1_555 1_555
H1_2 O10_2 1_555 1_555
H2_2 O10_2 1_555 1_555
H13_2 C24_2 1_555 1_555
H14_2 C24_2 1_555 1_555
H15_2 C24_2 1_555 1_555
Zn5 O1_2 1_555 1_555
Zn7 O6_2 1_555 1_555
O1_2 C4_2 1_555 1_555
O12 C1_2 1_555 1_555
O6_2 C4_2 1_555 1_555
O9_2 Zn7 1_555 1_555
C1_2 C2_2 1_555 1_555
C4_2 C7_2 1_555 1_555
C6_2 H4_2 1_555 1_555
C7_2 C6_2 1_555 1_555
C8_2 C6_2 1_555 1_555
C9_2 C7_2 1_555 1_555
C17_2 C2_2 1_555 1_555
H10_2 C17_2 1_555 1_555
C18_2 C8_2 1_555 1_555
H11_2 C20_2 1_555 1_555
C21_2 O9_2 1_555 1_555
C23_2 C18_2 1_555 1_555
H12_2 C23_2 1_555 1_555
O13 Zn5 1_555 1_555
C20_2 C23_2 1_555 1_555

#END
