
###############################################################################
#
# This file contains modified crystal structure data generated from the
# MOF subset of the Cambridge Structural Database (CSD) v543 
# hosted by the Cambridge Crystallographic Data Centre (CCDC).
#
# This work is licensed under the Creative Commons
# Attribution-NonCommercial-ShareAlike 4.0 International License.
# To view a copy of this license, visit
# http://creativecommons.org/licenses/by-nc-sa/4.0/
# or send a letter to
# Creative Commons, PO Box 1866, Mountain View, CA 94042, USA.
#
# CIF created using the CSD Python API on 29 September 2022
# The structure has been converted into the P1 space group
# The structure has a 3D framework
# The original CSD entry DURDAX is in the orthorhombic crystal system
# The framework has been calculated to contain at least 10.0% void space
# The void calculation uses a probe of radius 1.32A, grid spacing 0.4
#
###############################################################################

data_DURDAX
_chemical_formula_moiety         '(C124 H124 N12 O40 Zn8)n'
_symmetry_cell_setting           triclinic
_symmetry_space_group_name_H-M   'P 1'
_symmetry_Int_Tables_number      1
_space_group_name_Hall           'P 1'
loop_
_symmetry_equiv_pos_site_id
_symmetry_equiv_pos_as_xyz
1 x,y,z
_cell_length_a                   18.416(5)
_cell_length_b                   10.154(3)
_cell_length_c                   27.010(8)
_cell_angle_alpha                90
_cell_angle_beta                 90
_cell_angle_gamma                90
_cell_volume                     5050.76
loop_
_atom_site_label
_atom_site_type_symbol
_atom_site_fract_x
_atom_site_fract_y
_atom_site_fract_z
O2 O 0.6978(3) 0.0812(5) 0.63517(17)
O5 O 0.6688(2) 0.0211(4) 0.42999(17)
C20 C 0.6634(5) 0.0711(11) 0.6733(4)
N2 N 0.6551(4) 0.1565(10) 0.7080(3)
C29 C 0.6884(9) 0.2941(12) 0.6968(6)
H23 H 0.7227 0.2866 0.6702
H24 H 0.7125 0.3267 0.7258
H25 H 0.6504 0.3541 0.6875
C31 C 0.6191(7) 0.137(3) 0.7518(4)
H29 H 0.5897 0.0590 0.7493
H30 H 0.5888 0.2113 0.7587
H31 H 0.6538 0.1260 0.7780
Zn4 Zn 0.67166(3) 0.18796(6) 0.46752(2)
Zn6 Zn 0.31215(3) 0.00904(6) 0.06630(3)
O12 O 0.5870(2) 0.0778(4) 0.56578(18)
O14 O 0.7351(2) 0.1554(4) 0.52915(15)
Zn2 Zn 0.68785(3) 0.99096(6) 0.56630(3)
O1 O 0.4130(2) 0.9222(4) 0.06578(18)
O4 O 0.7649(2) 0.6554(4) 0.02915(15)
O6 O 0.6394(3) 0.8139(4) 0.59676(17)
O7 O 0.6589(3) 0.3181(4) 0.41033(17)
O8 O 0.6796(3) 0.4112(4) 0.48237(16)
O9 O 0.7881(3) 0.8968(5) 0.57767(19)
C1 C 0.5748(3) 0.7564(6) 0.0248(2)
O10 O 0.6774(3) 0.8933(4) 0.49809(16)
C2 C 0.5295(3) 0.7864(6) 0.1079(2)
H2 H 0.4932 0.8137 0.1296
C3 C 0.6489(3) 0.7008(6) 0.0964(2)
H3 H 0.6924 0.6674 0.1087
C4 C 0.6596(3) 0.6103(6) 0.2529(2)
H4 H 0.6898 0.5438 0.2645
C5 C 0.6059(3) 0.7188(6) 0.1827(2)
C6 C 0.4488(3) 0.8508(6) 0.0385(2)
C7 C 0.6429(4) 0.6178(6) 0.2014(2)
H5 H 0.6582 0.5506 0.1804
C8 C 0.5952(3) 0.7358(6) 0.1279(2)
C9 C 0.5775(3) 0.8162(6) 0.2157(2)
H6 H 0.5515 0.8879 0.2038
C10 C 0.6388(3) 0.7152(6) 0.0443(2)
C11 C 0.6319(4) 0.6988(6) 0.2846(2)
C12 C 0.6690(3) 0.6649(7) 0.4420(2)
H7 H 0.6787 0.6577 0.4757
C13 C 0.6706(3) 0.9108(6) 0.4531(2)
C14 C 0.6609(3) 0.5498(6) 0.4131(2)
C15 C 0.5899(4) 0.8010(6) 0.2660(2)
H8 H 0.5694 0.8611 0.2879
C16 C 0.6506(3) 0.8005(6) 0.3689(2)
H9 H 0.6462 0.8833 0.3545
C17 C 0.7044(4) 0.6879(6) 0.0105(2)
C18 C 0.6456(3) 0.6864(6) 0.3401(2)
C19 C 0.6625(3) 0.7877(5) 0.4207(2)
H10 H 0.6400 0.9909 0.6781
N1 N 0.8377(4) 0.6993(7) 0.5885(3)
C21 C 0.7911(5) 0.7739(7) 0.5696(3)
H11 H 0.7567 0.7370 0.5486
C22 C 0.5176(3) 0.7964(5) 0.0579(2)
C23 C 0.6520(3) 0.5638(6) 0.3627(2)
H12 H 0.6502 0.4886 0.3431
C24 C 0.6683(4) 0.4199(7) 0.4362(3)
C25 C 0.8421(7) 0.5516(9) 0.5729(5)
H13 H 0.8074 0.5347 0.5471
H14 H 0.8315 0.4969 0.6009
H15 H 0.8901 0.5324 0.5610
C26 C 0.8906(7) 0.7331(11) 0.6234(7)
H16 H 0.9352 0.7539 0.6067
H17 H 0.8983 0.6604 0.6454
H18 H 0.8746 0.8083 0.6419
N3 N 0.5796(4) 0.6278(7) 0.5726(3)
C27 C 0.5911(4) 0.7586(7) 0.5728(3)
H19 H 0.5606 0.8109 0.5537
C28 C 0.5191(8) 0.5711(11) 0.5436(4)
H20 H 0.4900 0.5162 0.5646
H21 H 0.5383 0.5194 0.5169
H22 H 0.4897 0.6409 0.5304
C30 C 0.6252(7) 0.5309(11) 0.5984(4)
H26 H 0.6534 0.4827 0.5746
H27 H 0.5948 0.4710 0.6165
H28 H 0.6571 0.5756 0.6209
Zn7 Zn 0.81215(3) 0.49096(6) 0.06630(3)
Zn1 Zn 0.82834(3) 0.68796(6) 0.96752(2)
O3 O 0.4306(2) 0.8115(4) 0.99415(17)
H1 H 0.5680 0.7589 0.9907
O11 O 0.6974(2) 0.7084(4) 0.96517(19)
Zn5 Zn 0.32834(3) 0.81204(6) 0.96752(2)
O13 O 0.9306(2) 0.6885(4) 0.99415(17)
O15 O 0.8312(2) 0.5211(4) 0.92999(17)
O16 O 0.8411(3) 0.8181(4) 0.91033(17)
O17 O 0.8204(3) 0.9112(4) 0.98237(16)
O6_2 O 0.3606(3) 0.1861(4) 0.09676(17)
O9_2 O 0.2119(3) 0.1032(5) 0.07767(19)
H10_2 H 0.3600 0.0091 0.1781
N1_2 N 0.1623(4) 0.3007(7) 0.0885(3)
C21_2 C 0.2089(5) 0.2261(7) 0.0696(3)
H11_2 H 0.2433 0.2630 0.0486
C25_2 C 0.1579(7) 0.4484(9) 0.0729(5)
H13_2 H 0.1926 0.4653 0.0471
H14_2 H 0.1685 0.5031 0.1009
H15_2 H 0.1099 0.4676 0.0610
C26_2 C 0.1094(7) 0.2669(11) 0.1234(7)
H16_2 H 0.0648 0.2461 0.1067
H17_2 H 0.1017 0.3396 0.1454
H18_2 H 0.1254 0.1917 0.1419
N3_2 N 0.4204(4) 0.3722(7) 0.0726(3)
C27_2 C 0.4089(4) 0.2414(7) 0.0728(3)
H19_2 H 0.4394 0.1891 0.0537
C28_2 C 0.4809(8) 0.4289(11) 0.0436(4)
H20_2 H 0.5100 0.4838 0.0646
H21_2 H 0.4617 0.4806 0.0169
H22_2 H 0.5103 0.3591 0.0304
C30_2 C 0.3748(7) 0.4691(11) 0.0984(4)
H26_2 H 0.3466 0.5173 0.0746
H27_2 H 0.4052 0.5290 0.1165
H28_2 H 0.3429 0.4244 0.1209
Zn1_2 Zn 0.17166(3) 0.31204(6) 0.46752(2)
O3_2 O 0.5694(2) 0.1885(4) 0.49415(17)
O4_2 O 0.2351(2) 0.3446(4) 0.52915(15)
O7_2 O 0.3411(3) 0.6819(4) 0.91033(17)
O8_2 O 0.3204(3) 0.5888(4) 0.98237(16)
C1_2 C 0.4252(3) 0.2436(6) 0.5248(2)
H1_2 H 0.4320 0.2411 0.4907
O10_2 O 0.3226(3) 0.1067(4) 0.99809(16)
O11_2 O 0.3026(2) 0.2916(4) 0.46517(19)
C2_2 C 0.4705(3) 0.2136(6) 0.6079(2)
H2_2 H 0.5068 0.1863 0.6296
C3_2 C 0.3511(3) 0.2992(6) 0.5964(2)
H3_2 H 0.3076 0.3326 0.6087
C4_2 C 0.3404(3) 0.3897(6) 0.7529(2)
H4_2 H 0.3102 0.4562 0.7645
C5_2 C 0.3941(3) 0.2812(6) 0.6827(2)
C6_2 C 0.5512(3) 0.1492(6) 0.5385(2)
C7_2 C 0.3571(4) 0.3822(6) 0.7014(2)
H5_2 H 0.3418 0.4494 0.6804
C8_2 C 0.4048(3) 0.2642(6) 0.6279(2)
C9_2 C 0.4225(3) 0.1838(6) 0.7157(2)
H6_2 H 0.4485 0.1121 0.7038
C10_2 C 0.3612(3) 0.2848(6) 0.5443(2)
C11_2 C 0.3681(4) 0.3012(6) 0.7846(2)
C12_2 C 0.3310(3) 0.3351(7) 0.9420(2)
H7_2 H 0.3213 0.3423 0.9757
C13_2 C 0.3294(3) 0.0892(6) 0.9531(2)
C14_2 C 0.3391(3) 0.4502(6) 0.9131(2)
C15_2 C 0.4101(4) 0.1990(6) 0.7660(2)
H8_2 H 0.4306 0.1389 0.7879
C16_2 C 0.3494(3) 0.1995(6) 0.8689(2)
H9_2 H 0.3538 0.1167 0.8545
C17_2 C 0.2956(4) 0.3121(6) 0.5105(2)
C18_2 C 0.3544(3) 0.3136(6) 0.8401(2)
C19_2 C 0.3375(3) 0.2123(5) 0.9207(2)
C22_2 C 0.4824(3) 0.2036(5) 0.5579(2)
C23_2 C 0.3480(3) 0.4362(6) 0.8627(2)
H12_2 H 0.3498 0.5114 0.8431
C24_2 C 0.3317(4) 0.5801(7) 0.9362(3)
Zn7_2 Zn 0.18785(3) 0.50904(6) 0.56630(3)
O13_2 O 0.0694(2) 0.3115(4) 0.49415(17)
O15_2 O 0.1688(2) 0.4789(4) 0.42999(17)
O16_2 O 0.1589(3) 0.1819(4) 0.41033(17)
O17_2 O 0.1796(3) 0.0888(4) 0.48237(16)
O2_2 O 0.3022(3) 0.9188(5) 0.13517(17)
C20_2 C 0.3366(5) 0.9289(11) 0.1733(4)
N2_2 N 0.3449(4) 0.8435(10) 0.2080(3)
C29_2 C 0.3116(9) 0.7059(12) 0.1968(6)
H23_2 H 0.2773 0.7134 0.1702
H24_2 H 0.2875 0.6733 0.2258
H25_2 H 0.3496 0.6459 0.1875
C31_2 C 0.3809(7) 0.863(3) 0.2518(4)
H29_2 H 0.4103 0.9410 0.2493
H30_2 H 0.4112 0.7887 0.2587
H31_2 H 0.3462 0.8740 0.2780
O14_2 O 0.2649(2) 0.8446(4) 0.02915(15)
O5_2 O 0.3312(2) 0.9789(4) 0.92999(17)
O1_2 O 0.0870(2) 0.4222(4) 0.56578(18)
H2_3 H 0.0068 0.3137 0.6296
C6_3 C 0.0512(3) 0.3508(6) 0.5385(2)
O2_3 O 0.8022(3) 0.5812(5) 0.13517(17)
O6_3 O 0.8606(3) 0.3139(4) 0.09676(17)
O9_3 O 0.7119(3) 0.3968(5) 0.07767(19)
C20_3 C 0.8366(5) 0.5711(11) 0.1733(4)
H10_3 H 0.8600 0.4909 0.1781
N1_3 N 0.6623(4) 0.1993(7) 0.0885(3)
C21_3 C 0.7089(5) 0.2739(7) 0.0696(3)
H11_3 H 0.7433 0.2370 0.0486
N2_3 N 0.8449(4) 0.6565(10) 0.2080(3)
C25_3 C 0.6579(7) 0.0516(9) 0.0729(5)
H13_3 H 0.6926 0.0347 0.0471
H15_3 H 0.6099 0.0324 0.0610
C26_3 C 0.6094(7) 0.2331(11) 0.1234(7)
H16_3 H 0.5648 0.2539 0.1067
H17_3 H 0.6017 0.1604 0.1454
H18_3 H 0.6254 0.3083 0.1419
N3_3 N 0.9204(4) 0.1278(7) 0.0726(3)
C27_3 C 0.9089(4) 0.2586(7) 0.0728(3)
H19_3 H 0.9394 0.3109 0.0537
C28_3 C 0.9809(8) 0.0711(11) 0.0436(4)
H21_3 H 0.9617 0.0194 0.0169
C29_3 C 0.8116(9) 0.7941(12) 0.1968(6)
H23_3 H 0.7773 0.7866 0.1702
H24_3 H 0.7875 0.8267 0.2258
H25_3 H 0.8496 0.8541 0.1875
C30_3 C 0.8748(7) 0.0309(11) 0.0984(4)
H28_3 H 0.8429 0.0756 0.1209
C31_3 C 0.8809(7) 0.637(3) 0.2518(4)
H29_3 H 0.9103 0.5590 0.2493
H30_3 H 0.9112 0.7113 0.2587
H31_3 H 0.8462 0.6260 0.2780
O12_2 O 0.9130(2) 0.5778(4) 0.06578(18)
C1_3 C 0.9252(3) 0.2564(6) 0.5248(2)
H1_3 H 0.9320 0.2589 0.4907
O10_3 O 0.8226(3) 0.3933(4) 0.99809(16)
O11_3 O 0.8026(2) 0.2084(4) 0.46517(19)
C2_3 C 0.9705(3) 0.2864(6) 0.6079(2)
C3_3 C 0.8511(3) 0.2008(6) 0.5964(2)
H3_3 H 0.8076 0.1674 0.6087
C4_3 C 0.8404(3) 0.1103(6) 0.7529(2)
H4_3 H 0.8102 0.0438 0.7645
C5_3 C 0.8941(3) 0.2188(6) 0.6827(2)
C7_3 C 0.8571(4) 0.1178(6) 0.7014(2)
H5_3 H 0.8418 0.0506 0.6804
C8_3 C 0.9048(3) 0.2358(6) 0.6279(2)
C9_3 C 0.9225(3) 0.3162(6) 0.7157(2)
H6_3 H 0.9485 0.3879 0.7038
C10_3 C 0.8612(3) 0.2152(6) 0.5443(2)
C11_3 C 0.8681(4) 0.1988(6) 0.7846(2)
C12_3 C 0.8310(3) 0.1649(7) 0.9420(2)
H7_3 H 0.8213 0.1577 0.9757
C13_3 C 0.8294(3) 0.4108(6) 0.9531(2)
C14_3 C 0.8391(3) 0.0498(6) 0.9131(2)
C15_3 C 0.9101(4) 0.3010(6) 0.7660(2)
H8_3 H 0.9306 0.3611 0.7879
C16_3 C 0.8494(3) 0.3005(6) 0.8689(2)
H9_3 H 0.8538 0.3833 0.8545
C17_3 C 0.7956(4) 0.1879(6) 0.5105(2)
C18_3 C 0.8544(3) 0.1864(6) 0.8401(2)
C19_3 C 0.8375(3) 0.2877(5) 0.9207(2)
C22_3 C 0.9824(3) 0.2964(5) 0.5579(2)
C23_3 C 0.8480(3) 0.0638(6) 0.8627(2)
H12_3 H 0.8498 0.9886 0.8431
C24_3 C 0.8317(4) 0.9199(7) 0.9362(3)
H12_4 H 0.1502 0.0114 0.3431
C24_4 C 0.1683(4) 0.0801(7) 0.4362(3)
H14_3 H 0.3315 0.0031 0.6009
H26_3 H 0.1534 0.0173 0.5746
H27_3 H 0.0948 0.0290 0.6165
O2_4 O 0.1978(3) 0.4188(5) 0.63517(17)
O6_4 O 0.1394(3) 0.6861(4) 0.59676(17)
O9_4 O 0.2881(3) 0.6032(5) 0.57767(19)
C1_4 C 0.0748(3) 0.7436(6) 0.0248(2)
O10_4 O 0.1774(3) 0.6067(4) 0.49809(16)
C2_4 C 0.0295(3) 0.7136(6) 0.1079(2)
C3_4 C 0.1489(3) 0.7992(6) 0.0964(2)
H3_4 H 0.1924 0.8326 0.1087
C4_4 C 0.1596(3) 0.8897(6) 0.2529(2)
H4_4 H 0.1898 0.9562 0.2645
C5_4 C 0.1059(3) 0.7812(6) 0.1827(2)
C7_4 C 0.1429(4) 0.8822(6) 0.2014(2)
H5_4 H 0.1582 0.9494 0.1804
C8_4 C 0.0952(3) 0.7642(6) 0.1279(2)
C9_4 C 0.0775(3) 0.6838(6) 0.2157(2)
H6_4 H 0.0515 0.6121 0.2038
C10_4 C 0.1388(3) 0.7848(6) 0.0443(2)
C11_4 C 0.1319(4) 0.8012(6) 0.2846(2)
C12_4 C 0.1690(3) 0.8351(7) 0.4420(2)
H7_4 H 0.1787 0.8423 0.4757
C13_4 C 0.1706(3) 0.5892(6) 0.4531(2)
C14_4 C 0.1609(3) 0.9502(6) 0.4131(2)
C15_4 C 0.0899(4) 0.6990(6) 0.2660(2)
H8_4 H 0.0694 0.6389 0.2879
C16_4 C 0.1506(3) 0.6995(6) 0.3689(2)
H9_4 H 0.1462 0.6167 0.3545
C17_4 C 0.2044(4) 0.8121(6) 0.0105(2)
C18_4 C 0.1456(3) 0.8136(6) 0.3401(2)
C19_4 C 0.1625(3) 0.7123(5) 0.4207(2)
C20_4 C 0.1634(5) 0.4289(11) 0.6733(4)
H10_4 H 0.1400 0.5091 0.6781
N1_4 N 0.3377(4) 0.8007(7) 0.5885(3)
C21_4 C 0.2911(5) 0.7261(7) 0.5696(3)
H11_4 H 0.2567 0.7630 0.5486
C22_4 C 0.0176(3) 0.7036(5) 0.0579(2)
C23_4 C 0.1520(3) 0.9362(6) 0.3627(2)
N2_4 N 0.1551(4) 0.3435(10) 0.7080(3)
C25_4 C 0.3421(7) 0.9484(9) 0.5729(5)
H13_4 H 0.3074 0.9653 0.5471
H15_4 H 0.3901 0.9676 0.5610
C26_4 C 0.3906(7) 0.7669(11) 0.6234(7)
H16_4 H 0.4352 0.7461 0.6067
H17_4 H 0.3983 0.8396 0.6454
H18_4 H 0.3746 0.6917 0.6419
N3_4 N 0.0796(4) 0.8722(7) 0.5726(3)
C27_4 C 0.0911(4) 0.7414(7) 0.5728(3)
H19_4 H 0.0606 0.6891 0.5537
C28_4 C 0.0191(8) 0.9289(11) 0.5436(4)
H21_4 H 0.0383 0.9806 0.5169
C29_4 C 0.1884(9) 0.2059(12) 0.6968(6)
H23_4 H 0.2227 0.2134 0.6702
H24_4 H 0.2125 0.1733 0.7258
H25_4 H 0.1504 0.1459 0.6875
C30_4 C 0.1252(7) 0.9691(11) 0.5984(4)
H28_4 H 0.1571 0.9244 0.6209
C31_4 C 0.1191(7) 0.363(3) 0.7518(4)
H29_4 H 0.0897 0.4410 0.7493
H30_4 H 0.0888 0.2887 0.7587
H31_4 H 0.1538 0.3740 0.7780
H1_4 H 0.0680 0.7411 0.9907
O11_4 O 0.1974(2) 0.7916(4) 0.96517(19)
H2_4 H 0.9932 0.6863 0.1296
C6_4 C 0.9488(3) 0.6492(6) 0.0385(2)
H20_3 H 0.9900 0.9838 0.5646
H22_3 H 0.9897 0.8591 0.5304
H20_4 H 0.0100 0.0162 0.0646
H22_4 H 0.0103 0.1409 0.0304
H14_4 H 0.6685 0.9969 0.1009
H26_4 H 0.8466 0.9827 0.0746
H27_4 H 0.9052 0.9710 0.1165
loop_
_geom_bond_atom_site_label_1
_geom_bond_atom_site_label_2
_geom_bond_site_symmetry_1
_geom_bond_site_symmetry_2
O2 C20 1_555 1_555
N2 C20 1_555 1_555
C29 N2 1_555 1_555
H23 C29 1_555 1_555
H24 C29 1_555 1_555
H25 C29 1_555 1_555
C31 N2 1_555 1_555
H29 C31 1_555 1_555
H30 C31 1_555 1_555
H31 C31 1_555 1_555
Zn4 O5 1_555 1_555
Zn4 O14 1_555 1_555
O1 C6 1_555 1_555
O4 C17 1_555 1_555
O6 Zn2 1_555 1_555
O7 C24 1_555 1_555
O8 C24 1_555 1_555
O9 Zn2 1_555 1_555
O10 Zn2 1_555 1_555
C2 H2 1_555 1_555
C3 H3 1_555 1_555
C4 H4 1_555 1_555
C5 C7 1_555 1_555
C6 C22 1_555 1_555
C7 C4 1_555 1_555
H5 C7 1_555 1_555
C8 C2 1_555 1_555
C9 C5 1_555 1_555
H6 C9 1_555 1_555
C10 C1 1_555 1_555
C11 C4 1_555 1_555
C12 H7 1_555 1_555
C13 O10 1_555 1_555
C14 C12 1_555 1_555
C15 C9 1_555 1_555
H8 C15 1_555 1_555
C16 H9 1_555 1_555
C18 C11 1_555 1_555
C19 C12 1_555 1_555
N1 C21 1_555 1_555
C21 O9 1_555 1_555
H11 C21 1_555 1_555
C22 C1 1_555 1_555
C23 C14 1_555 1_555
H12 C23 1_555 1_555
C24 C14 1_555 1_555
C25 N1 1_555 1_555
H13 C25 1_555 1_555
H14 C25 1_555 1_555
H15 C25 1_555 1_555
C26 N1 1_555 1_555
H16 C26 1_555 1_555
H17 C26 1_555 1_555
H18 C26 1_555 1_555
N3 C27 1_555 1_555
C27 O6 1_555 1_555
H19 C27 1_555 1_555
C28 N3 1_555 1_555
H20 C28 1_555 1_555
H21 C28 1_555 1_555
H22 C28 1_555 1_555
C30 N3 1_555 1_555
H26 C30 1_555 1_555
H27 C30 1_555 1_555
H28 C30 1_555 1_555
Zn4 O7 1_555 1_555
Zn7 O4 1_555 1_555
O8 Zn4 1_555 1_555
C2 C22 1_555 1_555
C3 C8 1_555 1_555
C3 C10 1_555 1_555
C5 C8 1_555 1_555
C10 C17 1_555 1_555
C11 C15 1_555 1_555
C13 C19 1_555 1_555
C16 C18 1_555 1_555
C16 C19 1_555 1_555
C18 C23 1_555 1_555
O11 Zn1 1_555 1_555
Zn5 O3 1_555 1_555
O13 Zn1 1_555 1_555
O15 Zn1 1_555 1_555
O16 Zn1 1_555 1_555
O17 Zn1 1_555 1_555
O6_2 Zn6 1_555 1_555
O9_2 Zn6 1_555 1_555
N1_2 C21_2 1_555 1_555
C21_2 O9_2 1_555 1_555
H11_2 C21_2 1_555 1_555
C25_2 N1_2 1_555 1_555
H13_2 C25_2 1_555 1_555
H14_2 C25_2 1_555 1_555
H15_2 C25_2 1_555 1_555
C26_2 N1_2 1_555 1_555
H16_2 C26_2 1_555 1_555
H17_2 C26_2 1_555 1_555
H18_2 C26_2 1_555 1_555
N3_2 C27_2 1_555 1_555
C27_2 O6_2 1_555 1_555
H19_2 C27_2 1_555 1_555
C28_2 N3_2 1_555 1_555
H20_2 C28_2 1_555 1_555
H21_2 C28_2 1_555 1_555
H22_2 C28_2 1_555 1_555
C30_2 N3_2 1_555 1_555
H26_2 C30_2 1_555 1_555
H27_2 C30_2 1_555 1_555
H28_2 C30_2 1_555 1_555
Zn1_2 O4_2 1_555 1_555
O12 C6_2 1_555 1_555
O3_2 C6_2 1_555 1_555
O4_2 C17_2 1_555 1_555
O7_2 C24_2 1_555 1_555
O8_2 C24_2 1_555 1_555
C1_2 H1_2 1_555 1_555
O11_2 Zn1_2 1_555 1_555
C2_2 H2_2 1_555 1_555
C3_2 H3_2 1_555 1_555
C4_2 H4_2 1_555 1_555
C5_2 C7_2 1_555 1_555
C6_2 C22_2 1_555 1_555
C7_2 C4_2 1_555 1_555
H5_2 C7_2 1_555 1_555
C8_2 C2_2 1_555 1_555
C9_2 C5_2 1_555 1_555
H6_2 C9_2 1_555 1_555
C10_2 C1_2 1_555 1_555
C11_2 C4_2 1_555 1_555
C12_2 H7_2 1_555 1_555
C13_2 O10_2 1_555 1_555
C14_2 C12_2 1_555 1_555
C15_2 C9_2 1_555 1_555
H8_2 C15_2 1_555 1_555
C16_2 H9_2 1_555 1_555
C17_2 O11_2 1_555 1_555
C18_2 C11_2 1_555 1_555
C19_2 C12_2 1_555 1_555
C22_2 C1_2 1_555 1_555
C23_2 C14_2 1_555 1_555
H12_2 C23_2 1_555 1_555
C24_2 C14_2 1_555 1_555
Zn5 O7_2 1_555 1_555
Zn4 O3_2 1_555 1_555
Zn7_2 O4_2 1_555 1_555
O13_2 Zn1_2 1_555 1_555
O15_2 Zn1_2 1_555 1_555
O16_2 Zn1_2 1_555 1_555
O17_2 Zn1_2 1_555 1_555
O8_2 Zn5 1_555 1_555
C2_2 C22_2 1_555 1_555
C3_2 C8_2 1_555 1_555
C3_2 C10_2 1_555 1_555
C5_2 C8_2 1_555 1_555
C10_2 C17_2 1_555 1_555
C11_2 C15_2 1_555 1_555
C13_2 C19_2 1_555 1_555
C16_2 C18_2 1_555 1_555
C16_2 C19_2 1_555 1_555
C18_2 C23_2 1_555 1_555
O2_2 C20_2 1_555 1_555
N2_2 C20_2 1_555 1_555
C29_2 N2_2 1_555 1_555
H23_2 C29_2 1_555 1_555
H24_2 C29_2 1_555 1_555
H25_2 C29_2 1_555 1_555
C31_2 N2_2 1_555 1_555
H29_2 C31_2 1_555 1_555
H30_2 C31_2 1_555 1_555
H31_2 C31_2 1_555 1_555
Zn5 O5_2 1_555 1_555
O1_2 C6_3 1_555 1_555
O13_2 C6_3 1_555 1_555
Zn7_2 O1_2 1_555 1_555
Zn7 O2_3 1_555 1_555
O2_3 C20_3 1_555 1_555
O6_3 Zn7 1_555 1_555
O9_3 Zn7 1_555 1_555
C20_3 H10_3 1_555 1_555
N1_3 C21_3 1_555 1_555
C21_3 O9_3 1_555 1_555
H11_3 C21_3 1_555 1_555
N2_3 C20_3 1_555 1_555
C25_3 N1_3 1_555 1_555
H13_3 C25_3 1_555 1_555
H15_3 C25_3 1_555 1_555
C26_3 N1_3 1_555 1_555
H16_3 C26_3 1_555 1_555
H17_3 C26_3 1_555 1_555
H18_3 C26_3 1_555 1_555
N3_3 C27_3 1_555 1_555
C27_3 O6_3 1_555 1_555
H19_3 C27_3 1_555 1_555
C28_3 N3_3 1_555 1_555
H21_3 C28_3 1_555 1_555
C29_3 N2_3 1_555 1_555
H23_3 C29_3 1_555 1_555
H24_3 C29_3 1_555 1_555
H25_3 C29_3 1_555 1_555
C30_3 N3_3 1_555 1_555
H28_3 C30_3 1_555 1_555
C31_3 N2_3 1_555 1_555
H29_3 C31_3 1_555 1_555
H30_3 C31_3 1_555 1_555
H31_3 C31_3 1_555 1_555
O12_2 Zn7 1_555 1_555
O14 C17_3 1_555 1_555
O15 C13_3 1_555 1_555
C1_3 H1_3 1_555 1_555
O11_3 Zn4 1_555 1_555
C3_3 H3_3 1_555 1_555
C4_3 H4_3 1_555 1_555
C5_3 C7_3 1_555 1_555
C7_3 C4_3 1_555 1_555
H5_3 C7_3 1_555 1_555
C8_3 C2_3 1_555 1_555
C9_3 C5_3 1_555 1_555
H6_3 C9_3 1_555 1_555
C10_3 C1_3 1_555 1_555
C11_3 C4_3 1_555 1_555
C12_3 H7_3 1_555 1_555
C13_3 O10_3 1_555 1_555
C14_3 C12_3 1_555 1_555
C15_3 C9_3 1_555 1_555
H8_3 C15_3 1_555 1_555
C16_3 H9_3 1_555 1_555
C17_3 O11_3 1_555 1_555
C18_3 C11_3 1_555 1_555
C19_3 C12_3 1_555 1_555
C22_3 C1_3 1_555 1_555
C23_3 C14_3 1_555 1_555
C2_3 C22_3 1_555 1_555
C3_3 C8_3 1_555 1_555
C3_3 C10_3 1_555 1_555
C5_3 C8_3 1_555 1_555
C10_3 C17_3 1_555 1_555
C11_3 C15_3 1_555 1_555
C13_3 C19_3 1_555 1_555
C16_3 C18_3 1_555 1_555
C16_3 C19_3 1_555 1_555
C18_3 C23_3 1_555 1_555
O16 C24_3 1_555 1_555
O17 C24_3 1_555 1_555
O16_2 C24_4 1_555 1_555
O17_2 C24_4 1_555 1_555
Zn7_2 O2_4 1_555 1_555
O2_4 C20_4 1_555 1_555
O14_2 C17_4 1_555 1_555
O15_2 C13_4 1_555 1_555
O6_4 Zn7_2 1_555 1_555
O9_4 Zn7_2 1_555 1_555
O10_4 Zn7_2 1_555 1_555
C3_4 H3_4 1_555 1_555
C4_4 H4_4 1_555 1_555
C5_4 C7_4 1_555 1_555
C7_4 C4_4 1_555 1_555
H5_4 C7_4 1_555 1_555
C8_4 C2_4 1_555 1_555
C9_4 C5_4 1_555 1_555
H6_4 C9_4 1_555 1_555
C10_4 C1_4 1_555 1_555
C11_4 C4_4 1_555 1_555
C12_4 H7_4 1_555 1_555
C13_4 O10_4 1_555 1_555
C14_4 C12_4 1_555 1_555
C15_4 C9_4 1_555 1_555
H8_4 C15_4 1_555 1_555
C16_4 H9_4 1_555 1_555
C18_4 C11_4 1_555 1_555
C19_4 C12_4 1_555 1_555
C20_4 H10_4 1_555 1_555
N1_4 C21_4 1_555 1_555
C21_4 O9_4 1_555 1_555
H11_4 C21_4 1_555 1_555
C22_4 C1_4 1_555 1_555
C23_4 C14_4 1_555 1_555
N2_4 C20_4 1_555 1_555
C25_4 N1_4 1_555 1_555
H13_4 C25_4 1_555 1_555
H15_4 C25_4 1_555 1_555
C26_4 N1_4 1_555 1_555
H16_4 C26_4 1_555 1_555
H17_4 C26_4 1_555 1_555
H18_4 C26_4 1_555 1_555
N3_4 C27_4 1_555 1_555
C27_4 O6_4 1_555 1_555
H19_4 C27_4 1_555 1_555
C28_4 N3_4 1_555 1_555
H21_4 C28_4 1_555 1_555
C29_4 N2_4 1_555 1_555
H23_4 C29_4 1_555 1_555
H24_4 C29_4 1_555 1_555
H25_4 C29_4 1_555 1_555
C30_4 N3_4 1_555 1_555
H28_4 C30_4 1_555 1_555
C31_4 N2_4 1_555 1_555
H29_4 C31_4 1_555 1_555
H30_4 C31_4 1_555 1_555
H31_4 C31_4 1_555 1_555
C2_4 C22_4 1_555 1_555
C3_4 C8_4 1_555 1_555
C3_4 C10_4 1_555 1_555
C5_4 C8_4 1_555 1_555
C10_4 C17_4 1_555 1_555
C11_4 C15_4 1_555 1_555
C13_4 C19_4 1_555 1_555
C16_4 C18_4 1_555 1_555
C16_4 C19_4 1_555 1_555
C18_4 C23_4 1_555 1_555
O11_4 Zn5 1_555 1_555
O12_2 C6_4 1_555 1_555

#END
