
###############################################################################
#
# This file contains modified crystal structure data generated from the
# MOF subset of the Cambridge Structural Database (CSD) v543 
# hosted by the Cambridge Crystallographic Data Centre (CCDC).
#
# This work is licensed under the Creative Commons
# Attribution-NonCommercial-ShareAlike 4.0 International License.
# To view a copy of this license, visit
# http://creativecommons.org/licenses/by-nc-sa/4.0/
# or send a letter to
# Creative Commons, PO Box 1866, Mountain View, CA 94042, USA.
#
# CIF created using the CSD Python API on 29 September 2022
# The structure has been converted into the P1 space group
# The structure has a 3D framework
# The original CSD entry DUTJUZ is in the rhombohedral crystal system
# The framework has been calculated to contain at least 10.0% void space
# The void calculation uses a probe of radius 1.32A, grid spacing 0.4
#
###############################################################################

data_DUTJUZ
_chemical_formula_moiety         '(C90 H72 N48 O15 Zn17)n'
_symmetry_cell_setting           triclinic
_symmetry_space_group_name_H-M   'P 1'
_symmetry_Int_Tables_number      1
_space_group_name_Hall           'P 1'
loop_
_symmetry_equiv_pos_site_id
_symmetry_equiv_pos_as_xyz
1 x,y,z
_cell_length_a                   20.443(16)
_cell_length_b                   20.443(16)
_cell_length_c                   13.61(3)
_cell_angle_alpha                90
_cell_angle_beta                 90
_cell_angle_gamma                120
_cell_volume                     4925.81
loop_
_atom_site_label
_atom_site_type_symbol
_atom_site_fract_x
_atom_site_fract_y
_atom_site_fract_z
Zn1 Zn 0.0000 -0.0000 0.2107(3)
N7 N 0.0480(3) 0.0960(4) 0.1254(9)
C15 C 0.1042(3) 0.2084(4) 0.0608(8)
N8 N 0.0847(3) 0.1694(4) 0.1463(7)
C17 C 0.1677(4) 0.3354(6) 0.1323(13)
H18 H 0.1557 0.3114 0.1930
C18 C 0.1456(3) 0.2912(4) 0.0490(11)
C20 C 0.2068(4) 0.4136(6) 0.1310(11)
H20 H 0.2208 0.4416 0.1888
C21 C 0.2242(3) 0.4484(4) 0.0391(9)
N9 N 0.0465(4) 0.0930(6) 0.0249(8)
C22 C 0.2658(3) 0.5316(4) 0.0291(13)
O4 O 0.2810(3) 0.5620(4) 0.1054(9)
Zn9 Zn 0.3333 0.6667 0.13690(12)
O9 O 0.1051(3) 0.0525(2) 0.2948(8)
Zn2 Zn -0.0000 -0.0000 0.95075(13)
Zn3 Zn 0.0000 0.0000 0.47023(12)
N1 N -0.0000 -0.0000 0.7995(15)
N4 N 0.0000 -0.0000 0.6126(14)
C13 C 0.0383(7) 0.0766(6) 0.7644(8)
H9 H 0.0899 0.1029 0.7884
C14 C 0.0380(7) 0.0760(6) 0.6524(8)
H10 H 0.0897 0.1027 0.6288
H11 H 0.0130 0.1029 0.7884
H12 H 0.0130 0.1027 0.6288
C16 C 0.1638(3) 0.3276(4) 0.9601(13)
H17 H 0.1498 0.2996 0.9022
C19 C 0.2025(3) 0.4050(4) 0.9563(11)
H19 H 0.2143 0.4286 0.8953
N10 N 0.0807(3) 0.1614(4) 0.9828(9)
O3 O 0.2808(2) 0.5616(3) 0.9615(8)
Zn6 Zn 0.3333 0.6667 0.8774(3)
O12 O 0.1047(4) 0.0523(3) 0.4387(9)
Zn1_2 Zn -0.0000 1.0000 0.2107(3)
N2 N 0.0480(3) 0.9520(3) 0.1254(9)
C1 C 0.1042(3) 0.8958(3) 0.0608(8)
N3 N 0.0847(3) 0.9153(3) 0.1463(7)
C3 C 0.1677(4) 0.8323(4) 0.1323(13)
H2 H 0.1557 0.8443 0.1930
C4 C 0.1456(3) 0.8544(3) 0.0490(11)
C6 C 0.2068(4) 0.7932(4) 0.1310(11)
H4 H 0.2208 0.7792 0.1888
C7 C 0.2242(3) 0.7758(3) 0.0391(9)
N5 N 0.0465(4) 0.9535(4) 0.0249(8)
C8 C 0.2658(3) 0.7342(3) 0.0291(13)
O2 O 0.2810(3) 0.7190(3) 0.1054(9)
Zn2_2 Zn -0.0000 1.0000 0.95075(13)
Zn3_2 Zn 0.0000 1.0000 0.47023(12)
N1_2 N -0.0000 1.0000 0.7995(15)
N4_2 N 0.0000 1.0000 0.6126(14)
C2 C 0.1638(3) 0.8362(3) 0.9601(13)
H1 H 0.1498 0.8502 0.9022
C5 C 0.2025(3) 0.7975(3) 0.9563(11)
H3 H 0.2143 0.7857 0.8953
N6 N 0.0807(3) 0.9193(3) 0.9828(9)
O1 O 0.2808(2) 0.7192(2) 0.9615(8)
C11 C 0.0383(3) 0.9617(7) 0.7644(8)
H7 H 0.0130 0.9101 0.7884
C12 C 0.0380(3) 0.9620(7) 0.6524(8)
H8 H 0.0130 0.9103 0.6288
H13 H 0.0899 0.9870 0.7884
H14 H 0.0897 0.9870 0.6288
Zn1_3 Zn 1.0000 -0.0000 0.2107(3)
O7 O 0.9475(2) 0.0525(2) 0.2948(8)
Zn2_3 Zn 1.0000 -0.0000 0.95075(13)
Zn3_3 Zn 1.0000 0.0000 0.47023(12)
N1_3 N 1.0000 -0.0000 0.7995(15)
N4_3 N 1.0000 -0.0000 0.6126(14)
O10 O 0.9477(3) 0.0523(3) 0.4387(9)
Zn1_4 Zn 1.0000 1.0000 0.2107(3)
N11 N 0.9040(4) 0.9520(3) 0.1254(9)
C23 C 0.7916(4) 0.8958(3) 0.0608(8)
N12 N 0.8306(4) 0.9153(3) 0.1463(7)
C25 C 0.6646(6) 0.8323(4) 0.1323(13)
H22 H 0.6886 0.8443 0.1930
C26 C 0.7088(4) 0.8544(3) 0.0490(11)
C28 C 0.5864(6) 0.7932(4) 0.1310(11)
H24 H 0.5584 0.7792 0.1888
C29 C 0.5516(4) 0.7758(3) 0.0391(9)
N13 N 0.9070(6) 0.9535(4) 0.0249(8)
C30 C 0.4684(4) 0.7342(3) 0.0291(13)
O6 O 0.4380(4) 0.7190(3) 0.1054(9)
O8 O 0.9475(2) 0.8949(3) 0.2948(8)
Zn2_4 Zn 1.0000 1.0000 0.95075(13)
Zn3_4 Zn 1.0000 1.0000 0.47023(12)
N1_4 N 1.0000 1.0000 0.7995(15)
N4_4 N 1.0000 1.0000 0.6126(14)
C9 C 0.9234(6) 0.9617(3) 0.7644(8)
H5 H 0.8971 0.9870 0.7884
C10 C 0.9240(6) 0.9620(3) 0.6524(8)
H6 H 0.8973 0.9870 0.6288
H15 H 0.8971 0.9101 0.7884
H16 H 0.8973 0.9103 0.6288
C24 C 0.6724(4) 0.8362(3) 0.9601(13)
H21 H 0.7004 0.8502 0.9022
C27 C 0.5950(4) 0.7975(3) 0.9563(11)
H23 H 0.5714 0.7857 0.8953
N14 N 0.8386(4) 0.9193(3) 0.9828(9)
O5 O 0.4384(3) 0.7192(2) 0.9615(8)
O11 O 0.9477(3) 0.8953(4) 0.4387(9)
Zn1_5 Zn 0.6667 0.3333 0.5440(3)
Zn2_5 Zn 0.6667 0.3333 0.28408(13)
N1_5 N 0.6667 0.3333 0.1328(15)
N2_2 N 0.7147(3) 0.2853(3) 0.4587(9)
C1_2 C 0.7709(3) 0.2291(3) 0.3941(8)
N3_2 N 0.7514(3) 0.2486(3) 0.4796(7)
C2_2 C 0.8305(3) 0.1695(3) 0.2934(13)
H1_2 H 0.8165 0.1835 0.2355
C3_2 C 0.8344(4) 0.1656(4) 0.4656(13)
H2_2 H 0.8224 0.1776 0.5263
C4_2 C 0.8123(3) 0.1877(3) 0.3823(11)
C5_2 C 0.8692(3) 0.1308(3) 0.2896(11)
H3_2 H 0.8810 0.1190 0.2286
C6_2 C 0.8735(4) 0.1265(4) 0.4643(11)
H4_2 H 0.8875 0.1125 0.5221
C7_2 C 0.8909(3) 0.1091(3) 0.3724(9)
N5_2 N 0.7132(4) 0.2868(4) 0.3582(8)
N6_2 N 0.7474(3) 0.2526(3) 0.3161(9)
C8_2 C 0.9325(3) 0.0675(3) 0.3624(13)
C9_2 C 0.5901(6) 0.2950(3) 0.0977(8)
H5_2 H 0.5638 0.3203 0.1217
C11_2 C 0.7050(3) 0.2950(7) 0.0977(8)
H7_2 H 0.6797 0.2434 0.1217
C13_2 C 0.7050(7) 0.4099(6) 0.0977(8)
H9_2 H 0.7566 0.4362 0.1217
H11_2 H 0.6797 0.4362 0.1217
H13_2 H 0.7566 0.3203 0.1217
H15_2 H 0.5638 0.2434 0.1217
N7_2 N 0.7147(3) 0.4293(4) 0.4587(9)
C15_2 C 0.7709(3) 0.5417(4) 0.3941(8)
N8_2 N 0.7514(3) 0.5027(4) 0.4796(7)
C16_2 C 0.8305(3) 0.6609(4) 0.2934(13)
H17_2 H 0.8165 0.6329 0.2355
C17_2 C 0.8344(4) 0.6687(6) 0.4656(13)
H18_2 H 0.8224 0.6447 0.5263
C18_2 C 0.8123(3) 0.6245(4) 0.3823(11)
C19_2 C 0.8692(3) 0.7383(4) 0.2896(11)
H19_2 H 0.8810 0.7619 0.2286
C20_2 C 0.8735(4) 0.7469(6) 0.4643(11)
H20_2 H 0.8875 0.7749 0.5221
C21_2 C 0.8909(3) 0.7817(4) 0.3724(9)
N9_2 N 0.7132(4) 0.4263(6) 0.3582(8)
N10_2 N 0.7474(3) 0.4947(4) 0.3161(9)
C22_2 C 0.9325(3) 0.8649(4) 0.3624(13)
N11_2 N 0.5707(4) 0.2853(3) 0.4587(9)
C23_2 C 0.4583(4) 0.2291(3) 0.3941(8)
N12_2 N 0.4973(4) 0.2486(3) 0.4796(7)
C24_2 C 0.3391(4) 0.1695(3) 0.2934(13)
H21_2 H 0.3671 0.1835 0.2355
C25_2 C 0.3313(6) 0.1656(4) 0.4656(13)
H22_2 H 0.3553 0.1776 0.5263
C26_2 C 0.3755(4) 0.1877(3) 0.3823(11)
C27_2 C 0.2617(4) 0.1308(3) 0.2896(11)
H23_2 H 0.2381 0.1190 0.2286
C28_2 C 0.2531(6) 0.1265(4) 0.4643(11)
H24_2 H 0.2251 0.1125 0.5221
C29_2 C 0.2183(4) 0.1091(3) 0.3724(9)
N13_2 N 0.5737(6) 0.2868(4) 0.3582(8)
N14_2 N 0.5053(4) 0.2526(3) 0.3161(9)
C30_2 C 0.1351(4) 0.0675(3) 0.3624(13)
O7_2 O 0.6141(2) 0.3859(2) 0.6282(8)
O8_2 O 0.6141(2) 0.2283(3) 0.6282(8)
O9_2 O 0.7717(3) 0.3859(2) 0.6282(8)
Zn3_5 Zn 0.6667 0.3333 0.80356(12)
N4_5 N 0.6667 0.3333 0.9459(14)
C10_2 C 0.5907(6) 0.2953(3) 0.9857(8)
H6_2 H 0.5640 0.3203 0.9621
C12_2 C 0.7047(3) 0.2953(7) 0.9857(8)
H8_2 H 0.6797 0.2436 0.9621
C14_2 C 0.7047(7) 0.4093(6) 0.9857(8)
H10_2 H 0.7564 0.4360 0.9621
H12_2 H 0.6797 0.4360 0.9621
H14_2 H 0.7564 0.3203 0.9621
H16_2 H 0.5640 0.2436 0.9621
O10_2 O 0.6143(3) 0.3857(3) 0.7721(9)
O11_2 O 0.6143(3) 0.2287(4) 0.7721(9)
O12_2 O 0.7713(4) 0.3857(3) 0.7721(9)
C17_3 C 0.5010(4) 0.0021(6) 0.7990(13)
C19_3 C 0.5358(3) 0.0717(4) 0.6230(11)
H19_3 H 0.5476 0.0953 0.5620
C20_3 C 0.5401(4) 0.0803(6) 0.7977(11)
H20_3 H 0.5541 0.1083 0.8555
C21_3 C 0.5575(3) 0.1151(4) 0.7058(9)
C22_3 C 0.5991(3) 0.1983(4) 0.6958(13)
Zn2_6 Zn 0.3333 0.6667 0.61742(13)
N1_6 N 0.3333 0.6667 0.4662(15)
N2_3 N 0.3813(3) 0.6187(3) 0.7921(9)
C1_3 C 0.4375(3) 0.5625(3) 0.7275(8)
N3_3 N 0.4180(3) 0.5820(3) 0.8130(7)
N4_6 N 0.3333 0.6667 0.2793(14)
C2_3 C 0.4971(3) 0.5029(3) 0.6268(13)
H1_3 H 0.4831 0.5169 0.5689
C3_3 C 0.5010(4) 0.4990(4) 0.7990(13)
H2_3 H 0.4890 0.5110 0.8597
C4_3 C 0.4789(3) 0.5211(3) 0.7157(11)
C5_3 C 0.5358(3) 0.4642(3) 0.6230(11)
H3_3 H 0.5476 0.4524 0.5620
C6_3 C 0.5401(4) 0.4599(4) 0.7977(11)
H4_3 H 0.5541 0.4459 0.8555
C7_3 C 0.5575(3) 0.4425(3) 0.7058(9)
N5_3 N 0.3798(4) 0.6202(4) 0.6916(8)
N6_3 N 0.4140(3) 0.5860(3) 0.6495(9)
C8_3 C 0.5991(3) 0.4009(3) 0.6958(13)
C9_3 C 0.2567(6) 0.6284(3) 0.4311(8)
H5_3 H 0.2304 0.6537 0.4551
C10_3 C 0.2573(6) 0.6287(3) 0.3191(8)
H6_3 H 0.2306 0.6537 0.2955
C11_3 C 0.3716(3) 0.6284(7) 0.4311(8)
H7_3 H 0.3463 0.5768 0.4551
C12_3 C 0.3713(3) 0.6287(7) 0.3191(8)
H8_3 H 0.3463 0.5770 0.2955
C13_3 C 0.3716(7) 0.7433(6) 0.4311(8)
H9_3 H 0.4232 0.7696 0.4551
C14_3 C 0.3713(7) 0.7427(6) 0.3191(8)
H10_3 H 0.4230 0.7694 0.2955
H11_3 H 0.3463 0.7696 0.4551
H12_3 H 0.3463 0.7694 0.2955
H13_3 H 0.4232 0.6537 0.4551
H14_3 H 0.4230 0.6537 0.2955
H15_3 H 0.2304 0.5768 0.4551
H16_3 H 0.2306 0.5770 0.2955
N7_3 N 0.3813(3) 0.7627(4) 0.7921(9)
C15_3 C 0.4375(3) 0.8751(4) 0.7275(8)
N8_3 N 0.4180(3) 0.8361(4) 0.8130(7)
C16_3 C 0.4971(3) 0.9943(4) 0.6268(13)
H17_3 H 0.4831 0.9663 0.5689
H18_3 H 0.4890 0.9781 0.8597
C18_3 C 0.4789(3) 0.9579(4) 0.7157(11)
N9_3 N 0.3798(4) 0.7597(6) 0.6916(8)
N10_3 N 0.4140(3) 0.8281(4) 0.6495(9)
N11_3 N 0.2373(4) 0.6187(3) 0.7921(9)
C23_3 C 0.1249(4) 0.5625(3) 0.7275(8)
N12_3 N 0.1639(4) 0.5820(3) 0.8130(7)
C24_3 C 0.0057(4) 0.5029(3) 0.6268(13)
H21_3 H 0.0337 0.5169 0.5689
H22_3 H 0.0219 0.5110 0.8597
C26_3 C 0.0421(4) 0.5211(3) 0.7157(11)
N13_3 N 0.2403(6) 0.6202(4) 0.6916(8)
N14_3 N 0.1719(4) 0.5860(3) 0.6495(9)
C25_3 C 0.9979(6) 0.4990(4) 0.7990(13)
C27_3 C 0.9283(4) 0.4642(3) 0.6230(11)
H23_3 H 0.9047 0.4524 0.5620
C28_3 C 0.9197(6) 0.4599(4) 0.7977(11)
H24_3 H 0.8917 0.4459 0.8555
C29_3 C 0.8849(4) 0.4425(3) 0.7058(9)
C30_3 C 0.8017(4) 0.4009(3) 0.6958(13)
loop_
_geom_bond_atom_site_label_1
_geom_bond_atom_site_label_2
_geom_bond_site_symmetry_1
_geom_bond_site_symmetry_2
N7 Zn1 1_555 1_555
C15 N8 1_555 1_555
N8 N7 1_555 1_555
C17 H18 1_555 1_555
C18 C15 1_555 1_555
C20 C17 1_555 1_555
H20 C20 1_555 1_555
C22 C21 1_555 1_555
O4 C22 1_555 1_555
Zn9 O4 1_555 1_555
O9 Zn1 1_555 1_555
N7 N9 1_555 1_555
C17 C18 1_555 1_555
C20 C21 1_555 1_555
Zn2 N1 1_555 1_555
Zn3 N4 1_555 1_555
C13 N1 1_555 1_555
H9 C13 1_555 1_555
C14 N4 1_555 1_555
H10 C14 1_555 1_555
H11 C13 1_555 1_555
H12 C14 1_555 1_555
C16 H17 1_555 1_555
C19 C16 1_555 1_555
H19 C19 1_555 1_555
Zn6 O3 1_555 1_555
O12 Zn3 1_555 1_555
C13 C14 1_555 1_555
Zn1_2 N2 1_555 1_555
N2 N3 1_555 1_555
C1 N3 1_555 1_555
C3 H2 1_555 1_555
C4 C1 1_555 1_555
C6 C3 1_555 1_555
H4 C6 1_555 1_555
C8 C7 1_555 1_555
O2 C8 1_555 1_555
Zn9 O2 1_555 1_555
N2 N5 1_555 1_555
C3 C4 1_555 1_555
C6 C7 1_555 1_555
Zn2_2 N1_2 1_555 1_555
Zn3_2 N4_2 1_555 1_555
C2 H1 1_555 1_555
C5 C2 1_555 1_555
H3 C5 1_555 1_555
C11 N1_2 1_555 1_555
H7 C11 1_555 1_555
C12 N4_2 1_555 1_555
H8 C12 1_555 1_555
H13 C11 1_555 1_555
H14 C12 1_555 1_555
Zn6 O1 1_555 1_555
C11 C12 1_555 1_555
O7 Zn1_3 1_555 1_555
Zn2_3 N1_3 1_555 1_555
Zn3_3 N4_3 1_555 1_555
O10 Zn3_3 1_555 1_555
N11 Zn1_4 1_555 1_555
C23 N12 1_555 1_555
N12 N11 1_555 1_555
C25 H22 1_555 1_555
C26 C23 1_555 1_555
C28 C25 1_555 1_555
H24 C28 1_555 1_555
C30 C29 1_555 1_555
O6 C30 1_555 1_555
Zn9 O6 1_555 1_555
O8 Zn1_4 1_555 1_555
N11 N13 1_555 1_555
C25 C26 1_555 1_555
C28 C29 1_555 1_555
Zn2_4 N1_4 1_555 1_555
Zn3_4 N4_4 1_555 1_555
N1_4 C9 1_555 1_555
N4_4 C10 1_555 1_555
C9 H5 1_555 1_555
C10 C9 1_555 1_555
H6 C10 1_555 1_555
H15 C9 1_555 1_555
H16 C10 1_555 1_555
C24 H21 1_555 1_555
C27 C24 1_555 1_555
H23 C27 1_555 1_555
Zn6 O5 1_555 1_555
O11 Zn3_4 1_555 1_555
Zn1_5 N2_2 1_555 1_555
Zn2_5 N1_5 1_555 1_555
N1_5 C9_2 1_555 1_555
N2_2 N3_2 1_555 1_555
C1_2 N3_2 1_555 1_555
C2_2 H1_2 1_555 1_555
C3_2 H2_2 1_555 1_555
C4_2 C1_2 1_555 1_555
C5_2 C2_2 1_555 1_555
H3_2 C5_2 1_555 1_555
C6_2 C3_2 1_555 1_555
H4_2 C6_2 1_555 1_555
C7_2 C5_2 1_555 1_555
N5_2 Zn2_5 1_555 1_555
N6_2 C1_2 1_555 1_555
C8_2 C7_2 1_555 1_555
O7 C8_2 1_555 1_555
O10 C8_2 1_555 1_555
C9_2 H5_2 1_555 1_555
C11_2 N1_5 1_555 1_555
H7_2 C11_2 1_555 1_555
C13_2 N1_5 1_555 1_555
H9_2 C13_2 1_555 1_555
H11_2 C13_2 1_555 1_555
H13_2 C11_2 1_555 1_555
H15_2 C9_2 1_555 1_555
N7_2 Zn1_5 1_555 1_555
C15_2 N8_2 1_555 1_555
N8_2 N7_2 1_555 1_555
C16_2 H17_2 1_555 1_555
C17_2 H18_2 1_555 1_555
C18_2 C15_2 1_555 1_555
C19_2 C16_2 1_555 1_555
H19_2 C19_2 1_555 1_555
C20_2 C17_2 1_555 1_555
H20_2 C20_2 1_555 1_555
C21_2 C19_2 1_555 1_555
N9_2 Zn2_5 1_555 1_555
N10_2 C15_2 1_555 1_555
C22_2 C21_2 1_555 1_555
O8 C22_2 1_555 1_555
O11 C22_2 1_555 1_555
N11_2 Zn1_5 1_555 1_555
C23_2 N12_2 1_555 1_555
N12_2 N11_2 1_555 1_555
C24_2 H21_2 1_555 1_555
C25_2 H22_2 1_555 1_555
C26_2 C23_2 1_555 1_555
C27_2 C24_2 1_555 1_555
H23_2 C27_2 1_555 1_555
C28_2 C25_2 1_555 1_555
H24_2 C28_2 1_555 1_555
C29_2 C27_2 1_555 1_555
N13_2 Zn2_5 1_555 1_555
N14_2 C23_2 1_555 1_555
C30_2 C29_2 1_555 1_555
O9 C30_2 1_555 1_555
O12 C30_2 1_555 1_555
O7_2 Zn1_5 1_555 1_555
O8_2 Zn1_5 1_555 1_555
O9_2 Zn1_5 1_555 1_555
N2_2 N5_2 1_555 1_555
C2_2 C4_2 1_555 1_555
C3_2 C4_2 1_555 1_555
C6_2 C7_2 1_555 1_555
N5_2 N6_2 1_555 1_555
N7_2 N9_2 1_555 1_555
C16_2 C18_2 1_555 1_555
C17_2 C18_2 1_555 1_555
C20_2 C21_2 1_555 1_555
N9_2 N10_2 1_555 1_555
N11_2 N13_2 1_555 1_555
C24_2 C26_2 1_555 1_555
C25_2 C26_2 1_555 1_555
C28_2 C29_2 1_555 1_555
N13_2 N14_2 1_555 1_555
Zn3_5 N4_5 1_555 1_555
N4_5 C10_2 1_555 1_555
H6_2 C10_2 1_555 1_555
C12_2 N4_5 1_555 1_555
H8_2 C12_2 1_555 1_555
C14_2 N4_5 1_555 1_555
H10_2 C14_2 1_555 1_555
H12_2 C14_2 1_555 1_555
H14_2 C12_2 1_555 1_555
H16_2 C10_2 1_555 1_555
O10_2 Zn3_5 1_555 1_555
O11_2 Zn3_5 1_555 1_555
O12_2 Zn3_5 1_555 1_555
H19_3 C19_3 1_555 1_555
C20_3 C17_3 1_555 1_555
H20_3 C20_3 1_555 1_555
C21_3 C19_3 1_555 1_555
C22_3 C21_3 1_555 1_555
O8_2 C22_3 1_555 1_555
O11_2 C22_3 1_555 1_555
C20_3 C21_3 1_555 1_555
Zn6 N2_3 1_555 1_555
Zn2_6 N1_6 1_555 1_555
Zn9 N4_6 1_555 1_555
N1_6 C9_3 1_555 1_555
N2_3 N3_3 1_555 1_555
C1_3 N3_3 1_555 1_555
N4_6 C10_3 1_555 1_555
C2_3 H1_3 1_555 1_555
C3_3 H2_3 1_555 1_555
C4_3 C1_3 1_555 1_555
C5_3 C2_3 1_555 1_555
H3_3 C5_3 1_555 1_555
C6_3 C3_3 1_555 1_555
H4_3 C6_3 1_555 1_555
C7_3 C5_3 1_555 1_555
N5_3 Zn2_6 1_555 1_555
N6_3 C1_3 1_555 1_555
C8_3 C7_3 1_555 1_555
O7_2 C8_3 1_555 1_555
O10_2 C8_3 1_555 1_555
C9_3 H5_3 1_555 1_555
C10_3 C9_3 1_555 1_555
H6_3 C10_3 1_555 1_555
C11_3 N1_6 1_555 1_555
H7_3 C11_3 1_555 1_555
C12_3 N4_6 1_555 1_555
H8_3 C12_3 1_555 1_555
C13_3 N1_6 1_555 1_555
H9_3 C13_3 1_555 1_555
C14_3 N4_6 1_555 1_555
H10_3 C14_3 1_555 1_555
H11_3 C13_3 1_555 1_555
H12_3 C14_3 1_555 1_555
H13_3 C11_3 1_555 1_555
H14_3 C12_3 1_555 1_555
H15_3 C9_3 1_555 1_555
H16_3 C10_3 1_555 1_555
N7_3 Zn6 1_555 1_555
C15_3 N8_3 1_555 1_555
N8_3 N7_3 1_555 1_555
C16_3 H17_3 1_555 1_555
C18_3 C15_3 1_555 1_555
N9_3 Zn2_6 1_555 1_555
N10_3 C15_3 1_555 1_555
N11_3 Zn6 1_555 1_555
C23_3 N12_3 1_555 1_555
N12_3 N11_3 1_555 1_555
C24_3 H21_3 1_555 1_555
C26_3 C23_3 1_555 1_555
N13_3 Zn2_6 1_555 1_555
N14_3 C23_3 1_555 1_555
N2_3 N5_3 1_555 1_555
C2_3 C4_3 1_555 1_555
C3_3 C4_3 1_555 1_555
C6_3 C7_3 1_555 1_555
N5_3 N6_3 1_555 1_555
C11_3 C12_3 1_555 1_555
C13_3 C14_3 1_555 1_555
N7_3 N9_3 1_555 1_555
C16_3 C18_3 1_555 1_555
N9_3 N10_3 1_555 1_555
N11_3 N13_3 1_555 1_555
C24_3 C26_3 1_555 1_555
N13_3 N14_3 1_555 1_555
H23_3 C27_3 1_555 1_555
C28_3 C25_3 1_555 1_555
H24_3 C28_3 1_555 1_555
C29_3 C27_3 1_555 1_555
C30_3 C29_3 1_555 1_555
O9_2 C30_3 1_555 1_555
O12_2 C30_3 1_555 1_555
C28_3 C29_3 1_555 1_555

#END
