
###############################################################################
#
# This file contains modified crystal structure data generated from the
# MOF subset of the Cambridge Structural Database (CSD) v543 
# hosted by the Cambridge Crystallographic Data Centre (CCDC).
#
# This work is licensed under the Creative Commons
# Attribution-NonCommercial-ShareAlike 4.0 International License.
# To view a copy of this license, visit
# http://creativecommons.org/licenses/by-nc-sa/4.0/
# or send a letter to
# Creative Commons, PO Box 1866, Mountain View, CA 94042, USA.
#
# CIF created using the CSD Python API on 29 September 2022
# The structure has been converted into the P1 space group
# The structure has a 3D framework
# The original CSD entry DUTKAG is in the rhombohedral crystal system
# The framework has been calculated to contain at least 10.0% void space
# The void calculation uses a probe of radius 1.32A, grid spacing 0.4
#
###############################################################################

data_DUTKAG
_chemical_formula_moiety         '(C90 H63 F9 N47 O18 Zn13)n'
_symmetry_cell_setting           triclinic
_symmetry_space_group_name_H-M   'P 1'
_symmetry_Int_Tables_number      1
_space_group_name_Hall           'P 1'
loop_
_symmetry_equiv_pos_site_id
_symmetry_equiv_pos_as_xyz
1 x,y,z
_cell_length_a                   20.658(2)
_cell_length_b                   20.658(2)
_cell_length_c                   13.775(3)
_cell_angle_alpha                90
_cell_angle_beta                 90
_cell_angle_gamma                120
_cell_volume                     5090.95
loop_
_atom_site_label
_atom_site_type_symbol
_atom_site_fract_x
_atom_site_fract_y
_atom_site_fract_z
Zn1 Zn 0.6667 0.3333 0.36326(17)
Zn2 Zn 0.6667 0.3333 0.62343(9)
N1 N 0.6179(2) 0.2358(5) 0.4526(7)
N2 N 0.6225(3) 0.2449(6) 0.5517(7)
N3 N 0.5879(2) 0.1759(5) 0.5916(6)
N4 N 0.5824(2) 0.1648(4) 0.4285(6)
C1 C 0.5630(2) 0.1260(5) 0.5141(6)
C2 C 0.5224(2) 0.0447(5) 0.5243(8)
C3 C 0.5047(3) 0.0094(5) 0.6133(9)
H1 H 0.5188 0.0376 0.6700
C7 C 0.5001(3) 0.0003(6) 0.4435(10)
H3 H 0.5111 0.0223 0.3824
N15 N 0.7642(5) 0.3821(5) 0.4526(7)
N16 N 0.6179(5) 0.3821(2) 0.4526(7)
N17 N 0.7551(6) 0.3776(7) 0.5517(7)
N18 N 0.6224(7) 0.3775(3) 0.5517(7)
N19 N 0.6666 0.3334 0.7759(11)
O7 O 0.71825(15) 0.4365(3) 0.2817(5)
O8 O 0.5635(3) 0.28179(34) 0.2817(5)
O9 O 0.71821(34) 0.28175(15) 0.2817(5)
F1 F 0.4536(3) 0.9072(7) 0.7109(7)
Zn3 Zn 0.3333 0.6667 0.43650(9)
N5 N 0.3333 0.6667 0.1092(11)
N6 N 0.3333 0.6667 0.2966(10)
C4 C 0.4664(2) 0.9329(5) 0.6185(6)
C5 C 0.4416(3) 0.8832(5) 0.5393(6)
C6 C 0.4612(3) 0.9225(6) 0.4513(8)
H2 H 0.4474 0.8948 0.3941
C8 C 0.4039(3) 0.8078(5) 0.5444(6)
C9 C 0.2950(2) 0.5900(5) 0.1434(6)
H4 H 0.3201 0.5640 0.1199
C10 C 0.2961(3) 0.5922(5) 0.2563(6)
H5 H 0.3208 0.5658 0.2799
O1 O 0.38492(15) 0.7698(3) 0.6150(5)
O2 O 0.3857(2) 0.7714(4) 0.4695(6)
C11 C 0.4100(5) 0.7050(5) 0.1434(6)
H6 H 0.4360 0.7561 0.1199
C12 C 0.4078(5) 0.7039(6) 0.2563(6)
H7 H 0.4342 0.7550 0.2799
C13 C 0.2950(5) 0.7050(2) 0.1434(6)
H8 H 0.2439 0.6799 0.1199
C14 C 0.2961(6) 0.7039(3) 0.2563(6)
H9 H 0.2450 0.6792 0.2799
H10 H 0.4360 0.6799 0.1199
H11 H 0.4342 0.6792 0.2799
H12 H 0.2439 0.5640 0.1199
H13 H 0.2450 0.5658 0.2799
H14 H 0.3201 0.7561 0.1199
H15 H 0.3208 0.7550 0.2799
F2 F 0.0928(7) 0.5464(8) 0.7109(7)
C18 C 0.0671(5) 0.5335(5) 0.6185(6)
C19 C 0.1168(5) 0.5584(6) 0.5393(6)
C20 C 0.0775(6) 0.5387(7) 0.4513(8)
H17 H 0.1052 0.5526 0.3941
C22 C 0.1922(5) 0.5961(6) 0.5444(6)
O3 O 0.2302(3) 0.61512(34) 0.6150(5)
O4 O 0.2286(4) 0.6143(4) 0.4695(6)
F3 F 0.4536(8) 0.5464(3) 0.7109(7)
N13 N 0.5880(5) 0.4121(2) 0.5916(6)
N14 N 0.5824(4) 0.4176(2) 0.4285(6)
C23 C 0.5630(5) 0.4370(2) 0.5141(6)
C24 C 0.5223(5) 0.4776(2) 0.5243(8)
C25 C 0.5047(6) 0.4953(3) 0.6133(9)
H19 H 0.5188 0.4812 0.6700
C26 C 0.4665(5) 0.5336(2) 0.6185(6)
C27 C 0.4416(6) 0.5584(3) 0.5393(6)
C28 C 0.4613(7) 0.5388(3) 0.4513(8)
H20 H 0.4474 0.5526 0.3941
C29 C 0.5002(7) 0.4999(3) 0.4435(10)
H21 H 0.5112 0.4889 0.3824
C30 C 0.4039(6) 0.5961(3) 0.5444(6)
O5 O 0.38488(34) 0.61508(15) 0.6150(5)
O6 O 0.3857(4) 0.6143(2) 0.4695(6)
Zn6 Zn 0.3334 0.6666 0.69659(17)
Zn9 Zn 0.3334 0.6666 0.95676(9)
N9 N 0.8241(5) 0.4120(5) 0.5916(6)
N10 N 0.8352(4) 0.4176(4) 0.4285(6)
C15 C 0.8740(5) 0.4370(5) 0.5141(6)
C16 C 0.9553(5) 0.4777(5) 0.5243(8)
C17 C 0.9906(5) 0.4953(6) 0.6133(9)
H16 H 0.9624 0.4812 0.6700
C21 C 0.9997(6) 0.4998(7) 0.4435(10)
H18 H 0.9777 0.4888 0.3824
F1_2 F 0.1203(3) 0.2405(7) 0.0442(7)
H1_2 H 0.1855 0.3709 0.0033
Zn6_2 Zn 0.0000 -0.0000 0.02993(17)
Zn3_2 Zn -0.0000 0.0000 0.76983(9)
N1_2 N 0.2846(2) 0.5691(5) 0.7859(7)
N2_2 N 0.2892(3) 0.5782(6) 0.8850(7)
N3_2 N 0.2546(2) 0.5092(5) 0.9249(6)
N4_2 N 0.2491(2) 0.4981(4) 0.7618(6)
N5_2 N -0.0000 0.0000 0.4425(11)
N6_2 N -0.0000 0.0000 0.6299(10)
C1_2 C 0.2297(2) 0.4593(5) 0.8474(6)
C2_2 C 0.1891(2) 0.3780(5) 0.8576(8)
C3_2 C 0.1714(3) 0.3427(5) 0.9466(9)
C4_2 C 0.1331(2) 0.2662(5) 0.9518(6)
C5_2 C 0.1083(3) 0.2165(5) 0.8726(6)
C6_2 C 0.1279(3) 0.2558(6) 0.7846(8)
H2_2 H 0.1141 0.2281 0.7274
C7_2 C 0.1668(3) 0.3336(6) 0.7768(10)
H3_2 H 0.1778 0.3556 0.7157
C8_2 C 0.0706(3) 0.1411(5) 0.8777(6)
O1_2 O 0.05159(15) 0.1031(3) 0.9483(5)
O2_2 O 0.0524(2) 0.1047(4) 0.8028(6)
C11_2 C 0.0767(5) 0.0383(5) 0.4767(6)
H6_2 H 0.1027 0.0894 0.4532
C12_2 C 0.0745(5) 0.0372(6) 0.5896(6)
H7_2 H 0.1009 0.0883 0.6132
H10_2 H 0.1027 0.0132 0.4532
H11_2 H 0.1009 0.0125 0.6132
Zn9_2 Zn 0.0000 -0.0000 0.29010(9)
N15_2 N 0.4309(5) 0.7154(5) 0.7859(7)
N16_2 N 0.2846(5) 0.7154(2) 0.7859(7)
N17_2 N 0.4218(6) 0.7109(7) 0.8850(7)
N18_2 N 0.2891(7) 0.7108(3) 0.8850(7)
F3_2 F 0.1203(8) 0.8797(3) 0.0442(7)
H19_2 H 0.1855 0.8145 0.0033
Zn6_3 Zn 0.0000 1.0000 0.02993(17)
Zn3_3 Zn -0.0000 1.0000 0.76983(9)
N5_3 N -0.0000 1.0000 0.4425(11)
N6_3 N -0.0000 1.0000 0.6299(10)
N13_2 N 0.2547(5) 0.7454(2) 0.9249(6)
N14_2 N 0.2491(4) 0.7509(2) 0.7618(6)
C23_2 C 0.2297(5) 0.7703(2) 0.8474(6)
C24_2 C 0.1890(5) 0.8109(2) 0.8576(8)
C25_2 C 0.1714(6) 0.8286(3) 0.9466(9)
C26_2 C 0.1332(5) 0.8669(2) 0.9518(6)
C27_2 C 0.1083(6) 0.8917(3) 0.8726(6)
C28_2 C 0.1280(7) 0.8721(3) 0.7846(8)
H20_2 H 0.1141 0.8859 0.7274
C29_2 C 0.1669(7) 0.8332(3) 0.7768(10)
H21_2 H 0.1779 0.8222 0.7157
C30_2 C 0.0706(6) 0.9294(3) 0.8777(6)
O5_2 O 0.05155(34) 0.94841(15) 0.9483(5)
O6_2 O 0.0524(4) 0.9476(2) 0.8028(6)
Zn9_3 Zn 0.0000 1.0000 0.29010(9)
Zn6_4 Zn 1.0000 -0.0000 0.02993(17)
Zn3_4 Zn 1.0000 0.0000 0.76983(9)
N5_4 N 1.0000 0.0000 0.4425(11)
N6_4 N 1.0000 0.0000 0.6299(10)
C13_2 C 0.9617(5) 0.0383(2) 0.4767(6)
H8_2 H 0.9106 0.0132 0.4532
C14_2 C 0.9628(6) 0.0372(3) 0.5896(6)
H9_2 H 0.9117 0.0125 0.6132
H14_2 H 0.9868 0.0894 0.4532
H15_2 H 0.9875 0.0883 0.6132
Zn9_4 Zn 1.0000 -0.0000 0.29010(9)
F2_2 F 0.7595(7) 0.8797(8) 0.0442(7)
H16_2 H 0.6291 0.8145 0.0033
Zn6_5 Zn 1.0000 1.0000 0.02993(17)
Zn3_5 Zn 1.0000 1.0000 0.76983(9)
N5_5 N 1.0000 1.0000 0.4425(11)
N6_5 N 1.0000 1.0000 0.6299(10)
C9_2 C 0.9617(2) 0.9233(5) 0.4767(6)
H4_2 H 0.9868 0.8973 0.4532
C10_2 C 0.9628(3) 0.9255(5) 0.5896(6)
H5_2 H 0.9875 0.8991 0.6132
H12_2 H 0.9106 0.8973 0.4532
H13_2 H 0.9117 0.8991 0.6132
N9_2 N 0.4908(5) 0.7453(5) 0.9249(6)
N10_2 N 0.5019(4) 0.7509(4) 0.7618(6)
C15_2 C 0.5407(5) 0.7703(5) 0.8474(6)
C16_2 C 0.6220(5) 0.8110(5) 0.8576(8)
C17_2 C 0.6573(5) 0.8286(6) 0.9466(9)
C18_2 C 0.7338(5) 0.8668(5) 0.9518(6)
C19_2 C 0.7835(5) 0.8917(6) 0.8726(6)
C20_2 C 0.7442(6) 0.8720(7) 0.7846(8)
H17_2 H 0.7719 0.8859 0.7274
C21_2 C 0.6664(6) 0.8331(7) 0.7768(10)
H18_2 H 0.6444 0.8221 0.7157
C22_2 C 0.8589(5) 0.9294(6) 0.8777(6)
O3_2 O 0.8969(3) 0.94845(34) 0.9483(5)
O4_2 O 0.8953(4) 0.9476(4) 0.8028(6)
Zn9_5 Zn 1.0000 1.0000 0.29010(9)
N15_3 N 0.0975(5) 0.0488(5) 0.1193(7)
N17_3 N 0.0884(6) 0.0443(7) 0.2184(7)
N16_3 N 0.9512(5) 0.0488(2) 0.1193(7)
N18_3 N 0.9557(7) 0.0442(3) 0.2184(7)
F1_3 F 0.7869(3) 0.5739(7) 0.3776(7)
Zn3_6 Zn 0.6666 0.3334 0.10317(9)
N1_3 N 0.9512(2) 0.9025(5) 0.1193(7)
N2_3 N 0.9558(3) 0.9116(6) 0.2184(7)
N3_3 N 0.9212(2) 0.8426(5) 0.2583(6)
N4_3 N 0.9157(2) 0.8315(4) 0.0952(6)
C1_3 C 0.8963(2) 0.7927(5) 0.1808(6)
C2_3 C 0.8557(2) 0.7114(5) 0.1910(8)
C3_3 C 0.8380(3) 0.6761(5) 0.2800(9)
H1_3 H 0.8521 0.7043 0.3367
C4_3 C 0.7997(2) 0.5996(5) 0.2852(6)
C5_3 C 0.7749(3) 0.5499(5) 0.2060(6)
C6_3 C 0.7945(3) 0.5892(6) 0.1180(8)
H2_3 H 0.7807 0.5615 0.0608
C7_3 C 0.8334(3) 0.6670(6) 0.1102(10)
H3_3 H 0.8444 0.6890 0.0491
C8_3 C 0.7372(3) 0.4745(5) 0.2111(6)
O2_3 O 0.7190(2) 0.4381(4) 0.1362(6)
F2_3 F 0.4261(7) 0.2131(8) 0.3776(7)
N9_3 N 0.1574(5) 0.0787(5) 0.2583(6)
N10_3 N 0.1685(4) 0.0843(4) 0.0952(6)
C15_3 C 0.2073(5) 0.1037(5) 0.1808(6)
C16_3 C 0.2886(5) 0.1444(5) 0.1910(8)
C17_3 C 0.3239(5) 0.1620(6) 0.2800(9)
H16_3 H 0.2957 0.1479 0.3367
C18_3 C 0.4004(5) 0.2002(5) 0.2852(6)
C19_3 C 0.4501(5) 0.2251(6) 0.2060(6)
C20_3 C 0.4108(6) 0.2054(7) 0.1180(8)
H17_3 H 0.4385 0.2193 0.0608
C21_3 C 0.3330(6) 0.1665(7) 0.1102(10)
H18_3 H 0.3110 0.1555 0.0491
C22_3 C 0.5255(5) 0.2628(6) 0.2111(6)
O4_3 O 0.5619(4) 0.2810(4) 0.1362(6)
F3_3 F 0.7869(8) 0.2131(3) 0.3776(7)
N13_3 N 0.9213(5) 0.0788(2) 0.2583(6)
N14_3 N 0.9157(4) 0.0843(2) 0.0952(6)
C23_3 C 0.8963(5) 0.1037(2) 0.1808(6)
C24_3 C 0.8556(5) 0.1443(2) 0.1910(8)
C25_3 C 0.8380(6) 0.1620(3) 0.2800(9)
H19_3 H 0.8521 0.1479 0.3367
C26_3 C 0.7998(5) 0.2003(2) 0.2852(6)
C27_3 C 0.7749(6) 0.2251(3) 0.2060(6)
C28_3 C 0.7946(7) 0.2055(3) 0.1180(8)
H20_3 H 0.7807 0.2193 0.0608
C29_3 C 0.8335(7) 0.1666(3) 0.1102(10)
H21_3 H 0.8445 0.1556 0.0491
C30_3 C 0.7372(6) 0.2628(3) 0.2111(6)
O6_3 O 0.7190(4) 0.2810(2) 0.1362(6)
N6_6 N 0.6666 0.3334 0.9633(10)
C9_3 C 0.6283(2) 0.2567(5) 0.8101(6)
H4_3 H 0.6534 0.2307 0.7866
C10_3 C 0.6294(3) 0.2589(5) 0.9230(6)
H5_3 H 0.6541 0.2325 0.9466
C11_3 C 0.7433(5) 0.3717(5) 0.8101(6)
H6_3 H 0.7693 0.4228 0.7866
C12_3 C 0.7411(5) 0.3706(6) 0.9230(6)
H7_3 H 0.7675 0.4217 0.9466
C13_3 C 0.6283(5) 0.3717(2) 0.8101(6)
H8_3 H 0.5772 0.3466 0.7866
C14_3 C 0.6294(6) 0.3706(3) 0.9230(6)
H9_3 H 0.5783 0.3459 0.9466
H10_3 H 0.7693 0.3466 0.7866
H11_3 H 0.7675 0.3459 0.9466
H12_3 H 0.5772 0.2307 0.7866
H13_3 H 0.5783 0.2325 0.9466
H14_3 H 0.6534 0.4228 0.7866
H15_3 H 0.6541 0.4217 0.9466
loop_
_geom_bond_atom_site_label_1
_geom_bond_atom_site_label_2
_geom_bond_site_symmetry_1
_geom_bond_site_symmetry_2
Zn1 N1 1_555 1_555
Zn2 N2 1_555 1_555
N1 N2 1_555 1_555
N2 N3 1_555 1_555
N3 C1 1_555 1_555
N4 N1 1_555 1_555
C1 N4 1_555 1_555
C2 C1 1_555 1_555
C3 C2 1_555 1_555
H1 C3 1_555 1_555
C7 C2 1_555 1_555
H3 C7 1_555 1_555
N15 Zn1 1_555 1_555
N16 Zn1 1_555 1_555
N17 Zn2 1_555 1_555
N18 Zn2 1_555 1_555
N19 Zn2 1_555 1_555
O7 Zn1 1_555 1_555
O8 Zn1 1_555 1_555
O9 Zn1 1_555 1_555
N15 N17 1_555 1_555
N16 N18 1_555 1_555
F1 C4 1_555 1_555
Zn3 N6 1_555 1_555
N5 C9 1_555 1_555
N6 C10 1_555 1_555
C5 C4 1_555 1_555
C6 C5 1_555 1_555
H2 C6 1_555 1_555
C8 C5 1_555 1_555
C9 H4 1_555 1_555
C10 C9 1_555 1_555
H5 C10 1_555 1_555
O1 C8 1_555 1_555
O2 Zn3 1_555 1_555
C11 N5 1_555 1_555
H6 C11 1_555 1_555
C12 N6 1_555 1_555
H7 C12 1_555 1_555
C13 N5 1_555 1_555
H8 C13 1_555 1_555
C14 N6 1_555 1_555
H9 C14 1_555 1_555
H10 C11 1_555 1_555
H11 C12 1_555 1_555
H12 C9 1_555 1_555
H13 C10 1_555 1_555
H14 C13 1_555 1_555
H15 C14 1_555 1_555
F2 C18 1_555 1_555
C19 C18 1_555 1_555
C20 C19 1_555 1_555
H17 C20 1_555 1_555
C22 C19 1_555 1_555
O3 C22 1_555 1_555
O4 Zn3 1_555 1_555
F3 C26 1_555 1_555
N18 N13 1_555 1_555
N13 C23 1_555 1_555
N14 N16 1_555 1_555
C23 N14 1_555 1_555
C24 C23 1_555 1_555
C25 C24 1_555 1_555
H19 C25 1_555 1_555
C26 C25 1_555 1_555
C27 C26 1_555 1_555
C28 C27 1_555 1_555
H20 C28 1_555 1_555
C29 C24 1_555 1_555
H21 C29 1_555 1_555
C30 C27 1_555 1_555
O5 C30 1_555 1_555
O6 Zn3 1_555 1_555
Zn6 O1 1_555 1_555
C8 O2 1_555 1_555
C11 C12 1_555 1_555
C13 C14 1_555 1_555
C22 O4 1_555 1_555
O3 Zn6 1_555 1_555
C28 C29 1_555 1_555
C30 O6 1_555 1_555
O5 Zn6 1_555 1_555
N17 N9 1_555 1_555
N9 C15 1_555 1_555
N10 N15 1_555 1_555
C15 N10 1_555 1_555
C16 C15 1_555 1_555
C17 C16 1_555 1_555
H16 C17 1_555 1_555
C21 C16 1_555 1_555
H18 C21 1_555 1_555
Zn6 N1_2 1_555 1_555
Zn9 N2_2 1_555 1_555
Zn3_2 N6_2 1_555 1_555
N1_2 N2_2 1_555 1_555
N2_2 N3_2 1_555 1_555
N3_2 C1_2 1_555 1_555
N4_2 N1_2 1_555 1_555
C1_2 N4_2 1_555 1_555
C2_2 C1_2 1_555 1_555
C3_2 C2_2 1_555 1_555
C4_2 C3_2 1_555 1_555
C5_2 C4_2 1_555 1_555
C6_2 C5_2 1_555 1_555
H2_2 C6_2 1_555 1_555
C7_2 C2_2 1_555 1_555
H3_2 C7_2 1_555 1_555
C8_2 C5_2 1_555 1_555
O1_2 C8_2 1_555 1_555
O2_2 Zn3_2 1_555 1_555
C11_2 N5_2 1_555 1_555
H6_2 C11_2 1_555 1_555
C12_2 N6_2 1_555 1_555
H7_2 C12_2 1_555 1_555
H10_2 C11_2 1_555 1_555
H11_2 C12_2 1_555 1_555
Zn9_2 N5_2 1_555 1_555
N15_2 Zn6 1_555 1_555
N16_2 Zn6 1_555 1_555
N17_2 Zn9 1_555 1_555
N18_2 Zn9 1_555 1_555
C6_2 C7_2 1_555 1_555
C8_2 O2_2 1_555 1_555
C11_2 C12_2 1_555 1_555
N15_2 N17_2 1_555 1_555
N16_2 N18_2 1_555 1_555
Zn3_3 N6_3 1_555 1_555
N18_2 N13_2 1_555 1_555
N13_2 C23_2 1_555 1_555
N14_2 N16_2 1_555 1_555
C23_2 N14_2 1_555 1_555
C24_2 C23_2 1_555 1_555
C25_2 C24_2 1_555 1_555
C26_2 C25_2 1_555 1_555
C27_2 C26_2 1_555 1_555
C28_2 C27_2 1_555 1_555
H20_2 C28_2 1_555 1_555
C29_2 C24_2 1_555 1_555
H21_2 C29_2 1_555 1_555
C30_2 C27_2 1_555 1_555
O5_2 C30_2 1_555 1_555
O6_2 Zn3_3 1_555 1_555
Zn9_3 N5_3 1_555 1_555
C28_2 C29_2 1_555 1_555
C30_2 O6_2 1_555 1_555
Zn3_4 N6_4 1_555 1_555
C13_2 N5_4 1_555 1_555
H8_2 C13_2 1_555 1_555
C14_2 N6_4 1_555 1_555
H9_2 C14_2 1_555 1_555
H14_2 C13_2 1_555 1_555
H15_2 C14_2 1_555 1_555
Zn9_4 N5_4 1_555 1_555
C13_2 C14_2 1_555 1_555
Zn3_5 N6_5 1_555 1_555
N5_5 C9_2 1_555 1_555
N6_5 C10_2 1_555 1_555
C9_2 H4_2 1_555 1_555
C10_2 C9_2 1_555 1_555
H5_2 C10_2 1_555 1_555
H12_2 C9_2 1_555 1_555
H13_2 C10_2 1_555 1_555
N17_2 N9_2 1_555 1_555
N9_2 C15_2 1_555 1_555
N10_2 N15_2 1_555 1_555
C15_2 N10_2 1_555 1_555
C16_2 C15_2 1_555 1_555
C17_2 C16_2 1_555 1_555
C18_2 C17_2 1_555 1_555
C19_2 C18_2 1_555 1_555
C20_2 C19_2 1_555 1_555
H17_2 C20_2 1_555 1_555
C21_2 C16_2 1_555 1_555
H18_2 C21_2 1_555 1_555
C22_2 C19_2 1_555 1_555
O3_2 C22_2 1_555 1_555
O4_2 Zn3_5 1_555 1_555
Zn9_5 N5_5 1_555 1_555
C20_2 C21_2 1_555 1_555
C22_2 O4_2 1_555 1_555
N15_3 Zn6_2 1_555 1_555
N17_3 Zn9_2 1_555 1_555
N15_3 N17_3 1_555 1_555
N16_3 Zn6_4 1_555 1_555
N18_3 Zn9_4 1_555 1_555
N16_3 N18_3 1_555 1_555
F1_3 C4_3 1_555 1_555
Zn6_5 N1_3 1_555 1_555
Zn9_5 N2_3 1_555 1_555
N1_3 N2_3 1_555 1_555
N2_3 N3_3 1_555 1_555
N3_3 C1_3 1_555 1_555
N4_3 N1_3 1_555 1_555
C1_3 N4_3 1_555 1_555
C2_3 C1_3 1_555 1_555
C3_3 C2_3 1_555 1_555
H1_3 C3_3 1_555 1_555
C4_3 C3_3 1_555 1_555
C5_3 C4_3 1_555 1_555
C6_3 C5_3 1_555 1_555
H2_3 C6_3 1_555 1_555
C7_3 C2_3 1_555 1_555
H3_3 C7_3 1_555 1_555
C8_3 C5_3 1_555 1_555
O7 C8_3 1_555 1_555
O2_3 Zn3_6 1_555 1_555
F2_3 C18_3 1_555 1_555
N17_3 N9_3 1_555 1_555
N9_3 C15_3 1_555 1_555
N10_3 N15_3 1_555 1_555
C15_3 N10_3 1_555 1_555
C16_3 C15_3 1_555 1_555
C17_3 C16_3 1_555 1_555
H16_3 C17_3 1_555 1_555
C18_3 C17_3 1_555 1_555
C19_3 C18_3 1_555 1_555
C20_3 C19_3 1_555 1_555
H17_3 C20_3 1_555 1_555
C21_3 C16_3 1_555 1_555
H18_3 C21_3 1_555 1_555
C22_3 C19_3 1_555 1_555
O8 C22_3 1_555 1_555
O4_3 Zn3_6 1_555 1_555
F3_3 C26_3 1_555 1_555
N18_3 N13_3 1_555 1_555
N13_3 C23_3 1_555 1_555
N14_3 N16_3 1_555 1_555
C23_3 N14_3 1_555 1_555
C24_3 C23_3 1_555 1_555
C25_3 C24_3 1_555 1_555
H19_3 C25_3 1_555 1_555
C26_3 C25_3 1_555 1_555
C27_3 C26_3 1_555 1_555
C28_3 C27_3 1_555 1_555
H20_3 C28_3 1_555 1_555
C29_3 C24_3 1_555 1_555
H21_3 C29_3 1_555 1_555
C30_3 C27_3 1_555 1_555
O9 C30_3 1_555 1_555
O6_3 Zn3_6 1_555 1_555
C6_3 C7_3 1_555 1_555
C8_3 O2_3 1_555 1_555
C20_3 C21_3 1_555 1_555
C22_3 O4_3 1_555 1_555
C28_3 C29_3 1_555 1_555
C30_3 O6_3 1_555 1_555
N19 C9_3 1_555 1_555
N6_6 C10_3 1_555 1_555
C9_3 H4_3 1_555 1_555
C10_3 C9_3 1_555 1_555
H5_3 C10_3 1_555 1_555
C11_3 N19 1_555 1_555
H6_3 C11_3 1_555 1_555
C12_3 N6_6 1_555 1_555
H7_3 C12_3 1_555 1_555
C13_3 N19 1_555 1_555
H8_3 C13_3 1_555 1_555
C14_3 N6_6 1_555 1_555
H9_3 C14_3 1_555 1_555
H10_3 C11_3 1_555 1_555
H11_3 C12_3 1_555 1_555
H12_3 C9_3 1_555 1_555
H13_3 C10_3 1_555 1_555
H14_3 C13_3 1_555 1_555
H15_3 C14_3 1_555 1_555
C11_3 C12_3 1_555 1_555
C13_3 C14_3 1_555 1_555

#END
