
###############################################################################
#
# This file contains modified crystal structure data generated from the
# MOF subset of the Cambridge Structural Database (CSD) v543 
# hosted by the Cambridge Crystallographic Data Centre (CCDC).
#
# This work is licensed under the Creative Commons
# Attribution-NonCommercial-ShareAlike 4.0 International License.
# To view a copy of this license, visit
# http://creativecommons.org/licenses/by-nc-sa/4.0/
# or send a letter to
# Creative Commons, PO Box 1866, Mountain View, CA 94042, USA.
#
# CIF created using the CSD Python API on 29 September 2022
# The structure has been converted into the P1 space group
# The structure has a 3D framework
# The original CSD entry DUTLAH is in the monoclinic crystal system
# The framework has been calculated to contain at least 10.0% void space
# The void calculation uses a probe of radius 1.32A, grid spacing 0.4
#
###############################################################################

data_DUTLAH
_chemical_formula_moiety         '(C208 H144 Cd8 N32 O48 S8)n'
_symmetry_cell_setting           triclinic
_symmetry_space_group_name_H-M   'P 1'
_symmetry_Int_Tables_number      1
_space_group_name_Hall           'P 1'
loop_
_symmetry_equiv_pos_site_id
_symmetry_equiv_pos_as_xyz
1 x,y,z
_cell_length_a                   13.0805(4)
_cell_length_b                   25.5412(9)
_cell_length_c                   19.3453(7)
_cell_angle_alpha                90
_cell_angle_beta                 104.735(2)
_cell_angle_gamma                90
_cell_volume                     6250.55
loop_
_atom_site_label
_atom_site_type_symbol
_atom_site_fract_x
_atom_site_fract_y
_atom_site_fract_z
C32 C 0.0161(3) 0.10393(18) 0.7482(2)
H19 H 0.0648 0.1279 0.7395
N1 N 0.4732(2) 0.00029(11) 0.81581(15)
N5 N 0.1545(2) 0.04999(14) 0.77427(18)
N6 N 0.0449(2) 0.05813(14) 0.76738(19)
C35 C 0.3735(3) 0.01645(14) 0.80137(19)
H22 H 0.3582 0.0499 0.7828
H34 H 0.0360 0.0077 0.6114
C51 C 0.1814(3) 0.00496(18) 0.7985(2)
Cd3 Cd 0.60877(2) 0.04972(2) 0.79348(2)
C23 C 0.1366(3) 0.72598(16) 0.0169(2)
H11 H 0.1776 0.7287 0.0637
C24 C 0.0725(3) 0.63890(15) 0.0474(2)
O5 O 0.00982(19) 0.60174(9) 0.02532(12)
O6 O 0.13378(19) 0.64000(9) 0.10905(13)
Cd6 Cd 0.05517(2) 0.55505(2) 0.13009(2)
S1 S 0.09426(7) 0.80532(4) 0.83265(5)
C3 C 0.0731(3) 0.68335(14) 0.99652(19)
H3 H 0.0601 0.8972 0.9015
C15 C 0.0809(3) 0.76037(13) 0.89861(19)
C20 C 0.0151(3) 0.71885(15) 0.8786(2)
C26 C 0.0097(3) 0.68036(15) 0.9277(2)
C28 C 0.1402(3) 0.76554(15) 0.9676(2)
H15 H 0.1824 0.7950 0.9816
O8 O 0.08130(19) 0.77663(9) 0.76634(12)
O10 O 0.19060(17) 0.83419(9) 0.85944(13)
N4 N 0.4390(2) 0.89203(12) 0.67501(15)
C37 C 0.4053(3) 0.81161(16) 0.7282(2)
H24 H 0.4314 0.7805 0.7510
C38 C 0.3364(3) 0.90340(14) 0.66220(18)
H25 H 0.3127 0.9349 0.6396
C39 C 0.4948(3) 0.95192(16) 0.84253(19)
H26 H 0.5643 0.9401 0.8525
C44 C 0.2909(3) 0.98622(15) 0.8125(2)
C45 C 0.4187(3) 0.91915(16) 0.8558(2)
H30 H 0.4362 0.8859 0.8747
C46 C 0.4717(3) 0.84685(16) 0.7081(2)
H31 H 0.5433 0.8388 0.7180
C47 C 0.2629(3) 0.87034(15) 0.68097(19)
C48 C 0.1504(3) 0.88548(16) 0.6677(2)
H32 H 0.1016 0.8618 0.6772
C49 C 0.2991(3) 0.82347(15) 0.7138(2)
H33 H 0.2522 0.8001 0.7261
N7 N 0.1203(2) 0.93055(13) 0.64355(17)
N8 N 0.0104(2) 0.93740(12) 0.63469(16)
H35 H 0.1302 0.9828 0.8078
C52 C 0.3149(3) 0.93677(15) 0.8404(2)
H36 H 0.2619 0.9154 0.8490
Cd5 Cd 0.55517(2) 0.94495(2) 0.63009(2)
S2 S 0.04900(7) 0.18734(4) 0.57170(6)
C1 C 0.3355(3) 0.08080(13) 0.61669(18)
C4 C 0.4302(3) 0.04488(15) 0.63255(19)
C5 C 0.0773(3) 0.32074(14) 0.42382(19)
C6 C 0.0840(3) 0.36629(15) 0.3751(2)
C7 C 0.2513(3) 0.07143(14) 0.55871(19)
H1 H 0.2522 0.0423 0.5300
C10 C 0.1654(3) 0.10510(14) 0.5430(2)
H2 H 0.1096 0.0992 0.5031
C12 C 0.0632(3) 0.23845(13) 0.51342(19)
C13 C 0.3328(3) 0.12381(14) 0.65928(19)
H4 H 0.3897 0.1305 0.6982
C16 C 0.1631(3) 0.14730(13) 0.58664(19)
C17 C 0.1102(3) 0.32640(14) 0.4972(2)
H6 H 0.1378 0.3583 0.5166
C18 C 0.1028(3) 0.28587(14) 0.5416(2)
H7 H 0.1245 0.2903 0.5909
C21 C 0.8343(3) 0.08664(15) 0.76078(18)
H10 H 0.8588 0.0545 0.7808
C22 C 0.9051(3) 0.11979(17) 0.7393(2)
C25 C 0.0357(3) 0.27317(16) 0.3956(2)
H12 H 0.0115 0.2692 0.3463
C27 C 0.2466(3) 0.15704(14) 0.64485(19)
H14 H 0.2450 0.1857 0.6742
C29 C 0.0301(3) 0.23145(16) 0.4402(2)
H16 H 0.0044 0.1992 0.4212
C31 C 0.7005(3) 0.14546(17) 0.7255(2)
H18 H 0.6303 0.1548 0.7206
C33 C 0.8693(3) 0.16745(18) 0.7114(2)
H20 H 0.9151 0.1910 0.6983
C34 C 0.7649(3) 0.18021(19) 0.7030(3)
H21 H 0.7384 0.2119 0.6824
O1 O 0.51182(18) 0.05925(9) 0.67820(12)
O2 O 0.1474(2) 0.40279(9) 0.40086(13)
O3 O 0.42264(17) 0.00267(9) 0.59843(13)
O7 O 0.02722(19) 0.36684(9) 0.31272(13)
N2 N 0.7330(2) 0.09888(12) 0.75396(15)
C40 C 0.8742(3) 0.00311(14) 0.60164(19)
C41 C 0.7453(3) 0.06791(15) 0.5515(2)
H27 H 0.7265 0.0998 0.5286
C42 C 0.6707(3) 0.03688(14) 0.56962(18)
H28 H 0.6010 0.0485 0.5583
C43 C 0.8484(3) 0.05101(15) 0.5680(2)
H29 H 0.9005 0.0716 0.5566
O11 O 0.04847(19) 0.21134(9) 0.63924(14)
Cd4 Cd 0.10877(2) 0.45028(2) 0.29348(2)
O13 O 0.6474(2) 0.09721(9) 0.90086(13)
O16 O 0.52722(19) 0.13316(9) 0.81272(13)
C2 C 0.9873(3) 0.84866(13) 0.82190(19)
C8 C 0.7325(3) 0.95651(16) 0.7956(2)
C9 C 0.8214(3) 0.91767(14) 0.80483(19)
C11 C 0.9979(3) 0.89167(14) 0.8663(2)
C14 C 0.9144(3) 0.92659(14) 0.8576(2)
H5 H 0.9204 0.9559 0.8870
C19 C 0.8130(3) 0.87467(14) 0.76082(19)
H8 H 0.7512 0.8690 0.7253
H9 H 0.9736 0.7164 0.8319
H13 H 0.9634 0.6524 0.9143
C30 C 0.8956(3) 0.84006(14) 0.76913(19)
H17 H 0.8898 0.8110 0.7394
O4 O 0.65216(19) 0.95146(10) 0.74515(13)
O9 O 0.74388(18) 0.99350(10) 0.84024(14)
N3 N 0.6928(2) 0.99059(11) 0.60271(14)
C36 C 0.7931(3) 0.97448(14) 0.61835(18)
H23 H 0.8097 0.9425 0.6416
C50 C 0.9837(3) 0.98431(16) 0.61605(19)
O14 O 0.50982(19) 0.89826(9) 0.52532(12)
O15 O 0.63378(19) 0.86000(9) 0.60905(13)
H26_2 H 0.0643 0.5599 0.3525
H31_2 H 0.0433 0.6612 0.2180
S1_2 S 0.59426(7) 0.69468(4) 0.33265(5)
C2_2 C 0.4873(3) 0.65134(13) 0.32190(19)
C3_2 C 0.5731(3) 0.81665(14) 0.49652(19)
C8_2 C 0.2325(3) 0.54349(16) 0.2956(2)
C9_2 C 0.3214(3) 0.58233(14) 0.30483(19)
C11_2 C 0.4979(3) 0.60833(14) 0.3663(2)
H3_2 H 0.5601 0.6028 0.4015
C14_2 C 0.4144(3) 0.57341(14) 0.3576(2)
H5_2 H 0.4204 0.5441 0.3870
C15_2 C 0.5809(3) 0.73963(13) 0.39861(19)
C19_2 C 0.3130(3) 0.62533(14) 0.26082(19)
H8_2 H 0.2512 0.6310 0.2253
C20_2 C 0.5151(3) 0.78115(15) 0.3786(2)
H9_2 H 0.4736 0.7836 0.3319
C21_2 C 0.3343(3) 0.41336(15) 0.26078(18)
H10_2 H 0.3588 0.4455 0.2808
C22_2 C 0.4051(3) 0.38021(17) 0.2393(2)
C23_2 C 0.6366(3) 0.77402(16) 0.5169(2)
H11_2 H 0.6776 0.7713 0.5637
C24_2 C 0.5725(3) 0.86110(15) 0.5474(2)
C26_2 C 0.5097(3) 0.81964(15) 0.4277(2)
H13_2 H 0.4634 0.8476 0.4143
C28_2 C 0.6402(3) 0.73446(15) 0.4676(2)
H15_2 H 0.6824 0.7050 0.4816
C30_2 C 0.3956(3) 0.65994(14) 0.26913(19)
H17_2 H 0.3898 0.6890 0.2394
C31_2 C 0.2005(3) 0.35454(17) 0.2255(2)
H18_2 H 0.1303 0.3452 0.2206
C32_2 C 0.5161(3) 0.39607(18) 0.2482(2)
H19_2 H 0.5648 0.3721 0.2395
C33_2 C 0.3693(3) 0.33255(18) 0.2114(2)
H20_2 H 0.4151 0.3090 0.1983
C34_2 C 0.2649(3) 0.31979(19) 0.2030(3)
H21_2 H 0.2384 0.2881 0.1824
O1_2 O 0.01182(18) 0.44075(9) 0.17820(12)
O4_2 O 0.15216(19) 0.54854(10) 0.24515(13)
O8_2 O 0.58130(19) 0.72337(9) 0.26634(12)
O9_2 O 0.24388(18) 0.50650(10) 0.34024(14)
O10_2 O 0.69060(17) 0.66581(9) 0.35944(13)
N1_2 N 0.9732(2) 0.49971(11) 0.31581(15)
N2_2 N 0.2330(2) 0.40112(12) 0.25396(15)
N3_2 N 0.1928(2) 0.50941(11) 0.10271(14)
N4_2 N 0.9390(2) 0.60797(12) 0.17501(15)
N5_2 N 0.6545(2) 0.45001(14) 0.27427(18)
N6_2 N 0.5449(2) 0.44187(14) 0.26738(19)
C35_2 C 0.8735(3) 0.48355(14) 0.30137(19)
H22_2 H 0.8582 0.4501 0.2828
C36_2 C 0.2931(3) 0.52552(14) 0.11835(18)
H23_2 H 0.3097 0.5575 0.1416
C37_2 C 0.9053(3) 0.68839(16) 0.2282(2)
H24_2 H 0.9314 0.7195 0.2510
C38_2 C 0.8364(3) 0.59660(14) 0.16220(18)
H25_2 H 0.8127 0.5651 0.1396
C39_2 C 0.9948(3) 0.54808(16) 0.34253(19)
C40_2 C 0.3742(3) 0.49689(14) 0.10164(19)
C41_2 C 0.2453(3) 0.43209(15) 0.0515(2)
H27_2 H 0.2265 0.4002 0.0286
C42_2 C 0.1707(3) 0.46312(14) 0.06962(18)
H28_2 H 0.1010 0.4515 0.0583
C43_2 C 0.3484(3) 0.44899(15) 0.0680(2)
H29_2 H 0.4005 0.4284 0.0566
C44_2 C 0.7909(3) 0.51378(15) 0.3125(2)
C45_2 C 0.9187(3) 0.58085(16) 0.3558(2)
H30_2 H 0.9362 0.6141 0.3747
C46_2 C 0.9717(3) 0.65315(16) 0.2081(2)
C47_2 C 0.7629(3) 0.62966(15) 0.18097(19)
C48_2 C 0.6504(3) 0.61452(16) 0.1677(2)
H32_2 H 0.6016 0.6382 0.1772
C49_2 C 0.7991(3) 0.67653(15) 0.2138(2)
H33_2 H 0.7522 0.6999 0.2261
N7_2 N 0.6203(2) 0.56945(13) 0.14355(17)
C50_2 C 0.4837(3) 0.51569(16) 0.11605(19)
H34_2 H 0.5360 0.4923 0.1114
N8_2 N 0.5104(2) 0.56260(12) 0.13469(16)
C51_2 C 0.6814(3) 0.49504(18) 0.2985(2)
H35_2 H 0.6302 0.5172 0.3078
C52_2 C 0.8149(3) 0.56323(15) 0.3404(2)
H36_2 H 0.7619 0.5846 0.3490
S2_2 S 0.54900(7) 0.31266(4) 0.07170(6)
C1_2 C 0.8355(3) 0.41920(13) 0.11669(18)
C4_2 C 0.9302(3) 0.45512(15) 0.13255(19)
C7_2 C 0.7513(3) 0.42857(14) 0.05871(19)
H1_2 H 0.7522 0.4577 0.0300
C10_2 C 0.6654(3) 0.39490(14) 0.0430(2)
H2_2 H 0.6096 0.4008 0.0031
C12_2 C 0.5632(3) 0.26155(13) 0.01342(19)
C13_2 C 0.8328(3) 0.37619(14) 0.15928(19)
H4_2 H 0.8897 0.3695 0.1982
C16_2 C 0.6631(3) 0.35270(13) 0.08664(19)
H6_2 H 0.6378 0.1417 0.0166
C18_2 C 0.6028(3) 0.21413(14) 0.0416(2)
H7_2 H 0.6245 0.2097 0.0909
C27_2 C 0.7466(3) 0.34296(14) 0.14485(19)
H14_2 H 0.7450 0.3143 0.1742
O3_2 O 0.92264(17) 0.49733(9) 0.09843(13)
O11_2 O 0.54847(19) 0.28866(9) 0.13924(14)
O12 O 0.46055(19) 0.34396(9) 0.03477(15)
C5_2 C 0.5773(3) 0.17926(14) 0.92382(19)
C6_2 C 0.5840(3) 0.13371(15) 0.8751(2)
C17_2 C 0.6102(3) 0.17360(14) 0.9972(2)
C25_2 C 0.5357(3) 0.22683(16) 0.8956(2)
H12_2 H 0.5115 0.2308 0.8463
C29_2 C 0.5301(3) 0.26855(16) 0.9402(2)
H16_2 H 0.5044 0.3008 0.9212
O12_2 O 0.96055(19) 0.15604(9) 0.53477(15)
C5_3 C 0.4227(3) 0.82074(14) 0.07618(19)
C6_3 C 0.4160(3) 0.86629(15) 0.1249(2)
C17_3 C 0.3898(3) 0.82640(14) 0.0028(2)
C25_3 C 0.4643(3) 0.77317(16) 0.1044(2)
H12_3 H 0.4885 0.7692 0.1537
C29_3 C 0.4699(3) 0.73145(16) 0.0598(2)
H16_3 H 0.4956 0.6992 0.0788
O2_2 O 0.3526(2) 0.90279(9) 0.09914(13)
O7_2 O 0.47278(19) 0.86684(9) 0.18728(13)
Cd4_2 Cd 0.39123(2) 0.95028(2) 0.20652(2)
S2_3 S 0.45100(7) 0.68734(4) 0.92830(6)
C1_3 C 0.1645(3) 0.58080(13) 0.88331(18)
C4_3 C 0.0698(3) 0.54488(15) 0.86745(19)
C7_3 C 0.2487(3) 0.57143(14) 0.94129(19)
H1_3 H 0.2478 0.5423 0.9700
C10_3 C 0.3346(3) 0.60510(14) 0.9570(2)
H2_3 H 0.3904 0.5992 0.9969
C12_3 C 0.4368(3) 0.73845(13) 0.98658(19)
C13_3 C 0.1672(3) 0.62381(14) 0.84072(19)
H4_3 H 0.1103 0.6305 0.8018
C16_3 C 0.3369(3) 0.64730(13) 0.91336(19)
H6_3 H 0.3622 0.8583 0.9834
C18_3 C 0.3972(3) 0.78587(14) 0.9584(2)
H7_3 H 0.3755 0.7903 0.9091
C27_3 C 0.2534(3) 0.65704(14) 0.85515(19)
H14_3 H 0.2550 0.6857 0.8258
O3_3 O 0.07736(17) 0.50267(9) 0.90157(13)
O11_3 O 0.45153(19) 0.71134(9) 0.86076(14)
O12_3 O 0.53945(19) 0.65604(9) 0.96523(15)
N9 N 0.0268(2) 0.50029(11) 0.68419(15)
N10 N 0.0610(2) 0.39203(12) 0.82499(15)
Cd1 Cd 0.89123(2) 0.54972(2) 0.70652(2)
Cd2 Cd 0.94483(2) 0.44495(2) 0.86991(2)
S1_3 S 0.40574(7) 0.30532(4) 0.66735(5)
C2_3 C 0.5127(3) 0.34866(13) 0.67810(19)
C3_3 C 0.4269(3) 0.18335(14) 0.50348(19)
C8_3 C 0.7675(3) 0.45651(16) 0.7044(2)
C9_3 C 0.6786(3) 0.41767(14) 0.69517(19)
C11_3 C 0.5021(3) 0.39167(14) 0.6337(2)
H3_3 H 0.4399 0.3972 0.5985
C14_3 C 0.5856(3) 0.42659(14) 0.6424(2)
H5_3 H 0.5796 0.4559 0.6130
C15_3 C 0.4191(3) 0.26037(13) 0.60139(19)
C19_3 C 0.6870(3) 0.37467(14) 0.73918(19)
H8_3 H 0.7488 0.3690 0.7747
C20_3 C 0.4849(3) 0.21885(15) 0.6214(2)
H9_3 H 0.5264 0.2164 0.6681
C21_3 C 0.6657(3) 0.58664(15) 0.73922(18)
H10_3 H 0.6412 0.5545 0.7192
C22_3 C 0.5949(3) 0.61979(17) 0.7607(2)
C23_3 C 0.3634(3) 0.22598(16) 0.4831(2)
H11_3 H 0.3224 0.2287 0.4363
C24_3 C 0.4275(3) 0.13890(15) 0.4526(2)
C26_3 C 0.4903(3) 0.18036(15) 0.5723(2)
H13_3 H 0.5366 0.1524 0.5857
C28_3 C 0.3598(3) 0.26554(15) 0.5324(2)
H15_3 H 0.3176 0.2950 0.5184
C30_3 C 0.6044(3) 0.34006(14) 0.73087(19)
H17_3 H 0.6102 0.3110 0.7606
C31_3 C 0.7995(3) 0.64546(17) 0.7745(2)
H18_3 H 0.8697 0.6548 0.7794
C32_3 C 0.4839(3) 0.60393(18) 0.7518(2)
H19_3 H 0.4352 0.6279 0.7605
C33_3 C 0.6307(3) 0.66745(18) 0.7886(2)
H20_3 H 0.5849 0.6910 0.8017
C34_3 C 0.7351(3) 0.68021(19) 0.7970(3)
H21_3 H 0.7616 0.7119 0.8176
O1_3 O 0.98818(18) 0.55925(9) 0.82180(12)
O4_3 O 0.84784(19) 0.45146(10) 0.75485(13)
O5_2 O 0.49018(19) 0.10174(9) 0.47468(12)
O6_2 O 0.36622(19) 0.14000(9) 0.39095(13)
O8_3 O 0.41870(19) 0.27663(9) 0.73366(12)
O9_3 O 0.75612(18) 0.49350(10) 0.65976(14)
O10_3 O 0.30940(17) 0.33419(9) 0.64056(13)
N2_3 N 0.7670(2) 0.59888(12) 0.74604(15)
N3_3 N 0.8072(2) 0.49059(11) 0.89729(14)
N5_3 N 0.3455(2) 0.54999(14) 0.72573(18)
N6_3 N 0.4551(2) 0.55813(14) 0.73262(19)
C35_3 C 0.1265(3) 0.51645(14) 0.69863(19)
H22_3 H 0.1418 0.5499 0.7172
C36_3 C 0.7069(3) 0.47448(14) 0.88165(18)
H23_3 H 0.6903 0.4425 0.8584
C37_3 C 0.0947(3) 0.31161(16) 0.7718(2)
H24_3 H 0.0686 0.2805 0.7490
C38_3 C 0.1636(3) 0.40340(14) 0.83780(18)
H25_3 H 0.1873 0.4349 0.8604
C39_3 C 0.0052(3) 0.45192(16) 0.65747(19)
C40_3 C 0.6258(3) 0.50311(14) 0.89836(19)
C41_3 C 0.7547(3) 0.56791(15) 0.9485(2)
H27_3 H 0.7735 0.5998 0.9714
C42_3 C 0.8293(3) 0.53688(14) 0.93038(18)
H28_3 H 0.8990 0.5485 0.9417
C43_3 C 0.6516(3) 0.55101(15) 0.9320(2)
H29_3 H 0.5995 0.5716 0.9434
C44_3 C 0.2091(3) 0.48622(15) 0.6875(2)
C45_3 C 0.0813(3) 0.41915(16) 0.6442(2)
H30_3 H 0.0638 0.3859 0.6253
C46_3 C 0.0283(3) 0.34685(16) 0.7919(2)
C47_3 C 0.2371(3) 0.37034(15) 0.81903(19)
C48_3 C 0.3496(3) 0.38548(16) 0.8323(2)
H32_3 H 0.3984 0.3618 0.8228
C49_3 C 0.2009(3) 0.32347(15) 0.7862(2)
H33_3 H 0.2478 0.3001 0.7739
N7_3 N 0.3797(2) 0.43055(13) 0.85645(17)
C50_3 C 0.5163(3) 0.48431(16) 0.88395(19)
H34_3 H 0.4640 0.5077 0.8886
N8_3 N 0.4896(2) 0.43740(12) 0.86531(16)
C51_3 C 0.3186(3) 0.50496(18) 0.7015(2)
H35_3 H 0.3698 0.4828 0.6922
C52_3 C 0.1851(3) 0.43677(15) 0.6596(2)
H36_3 H 0.2381 0.4154 0.6510
Cd6_2 Cd 0.44483(2) 0.05505(2) 0.36991(2)
O13_2 O 0.8526(2) 0.59721(9) 0.59914(13)
O14_2 O 0.99018(19) 0.39826(9) 0.97468(12)
O15_2 O 0.86622(19) 0.36000(9) 0.89095(13)
O16_2 O 0.97278(19) 0.63316(9) 0.68728(13)
H26_3 H 0.9357 0.4401 0.6475
H31_3 H 0.9567 0.3388 0.7820
C2_4 C 0.0127(3) 0.15134(13) 0.17810(19)
C8_4 C 0.2675(3) 0.04349(16) 0.2044(2)
C9_4 C 0.1786(3) 0.08233(14) 0.19517(19)
C11_4 C 0.0021(3) 0.10833(14) 0.1337(2)
C14_4 C 0.0856(3) 0.07341(14) 0.1424(2)
H5_4 H 0.0796 0.0441 0.1130
C19_4 C 0.1870(3) 0.12533(14) 0.23918(19)
H8_4 H 0.2488 0.1310 0.2747
H9_4 H 0.0264 0.2836 0.1681
H13_4 H 0.0366 0.3476 0.0857
C30_4 C 0.1044(3) 0.15994(14) 0.23087(19)
H17_4 H 0.1102 0.1890 0.2606
O4_4 O 0.34784(19) 0.04854(10) 0.25485(13)
O9_4 O 0.25612(18) 0.00650(10) 0.15976(14)
N3_4 N 0.3072(2) 0.00941(11) 0.39729(14)
C36_4 C 0.2069(3) 0.02552(14) 0.38165(18)
H23_4 H 0.1903 0.0575 0.3584
C50_4 C 0.0163(3) 0.01569(16) 0.38395(19)
N10_2 N 0.5610(2) 0.10797(12) 0.32499(15)
S2_4 S 0.95100(7) 0.81266(4) 0.42830(6)
C1_4 C 0.6645(3) 0.91920(13) 0.38331(18)
C4_4 C 0.5698(3) 0.95512(15) 0.36745(19)
C5_4 C 0.9227(3) 0.67926(14) 0.57618(19)
C6_4 C 0.9160(3) 0.63371(15) 0.6249(2)
C7_4 C 0.7487(3) 0.92857(14) 0.44129(19)
H1_4 H 0.7478 0.9577 0.4700
C10_4 C 0.8346(3) 0.89490(14) 0.4570(2)
H2_4 H 0.8904 0.9008 0.4969
C12_4 C 0.9368(3) 0.76155(13) 0.48658(19)
C13_4 C 0.6672(3) 0.87619(14) 0.34072(19)
H4_4 H 0.6103 0.8695 0.3018
C16_4 C 0.8369(3) 0.85270(13) 0.41336(19)
C17_4 C 0.8898(3) 0.67360(14) 0.5028(2)
H6_4 H 0.8622 0.6417 0.4834
C18_4 C 0.8972(3) 0.71413(14) 0.4584(2)
H7_4 H 0.8755 0.7097 0.4091
C21_4 C 0.1657(3) 0.91336(15) 0.23922(18)
H10_4 H 0.1412 0.9455 0.2192
C22_4 C 0.0949(3) 0.88021(17) 0.2607(2)
C25_4 C 0.9643(3) 0.72683(16) 0.6044(2)
H12_4 H 0.9885 0.7308 0.6537
C27_4 C 0.7534(3) 0.84296(14) 0.35515(19)
H14_4 H 0.7550 0.8143 0.3258
C29_4 C 0.9699(3) 0.76855(16) 0.5598(2)
H16_4 H 0.9956 0.8008 0.5788
C31_4 C 0.2995(3) 0.85454(17) 0.2745(2)
H18_4 H 0.3697 0.8452 0.2794
C33_4 C 0.1307(3) 0.83255(18) 0.2886(2)
H20_4 H 0.0849 0.8090 0.3017
C34_4 C 0.2351(3) 0.81979(19) 0.2970(3)
H21_4 H 0.2616 0.7881 0.3176
O1_4 O 0.48818(18) 0.94075(9) 0.32180(12)
O3_4 O 0.57736(17) 0.99733(9) 0.40157(13)
N2_4 N 0.2670(2) 0.90112(12) 0.24604(15)
C40_4 C 0.1258(3) 0.99689(14) 0.39836(19)
C41_4 C 0.2547(3) 0.93209(15) 0.4485(2)
H27_4 H 0.2735 0.9002 0.4714
C42_4 C 0.3293(3) 0.96312(14) 0.43038(18)
H28_4 H 0.3990 0.9515 0.4417
C43_4 C 0.1516(3) 0.94899(15) 0.4320(2)
H29_4 H 0.0995 0.9284 0.4434
O11_4 O 0.95153(19) 0.78866(9) 0.36076(14)
N9_2 N 0.5268(2) 0.99971(11) 0.18419(15)
S1_4 S 0.90574(7) 0.19468(4) 0.16735(5)
C3_4 C 0.9269(3) 0.31665(14) 0.00348(19)
H3_4 H 0.9399 0.1028 0.0985
C15_4 C 0.9191(3) 0.23963(13) 0.10139(19)
C20_4 C 0.9849(3) 0.28115(15) 0.1214(2)
C26_4 C 0.9903(3) 0.31964(15) 0.0723(2)
C28_4 C 0.8598(3) 0.23446(15) 0.0324(2)
H15_4 H 0.8176 0.2050 0.0184
O8_4 O 0.91870(19) 0.22337(9) 0.23366(12)
O10_4 O 0.80940(17) 0.16581(9) 0.14056(13)
C37_4 C 0.5947(3) 0.18839(16) 0.2718(2)
H24_4 H 0.5686 0.2195 0.2490
C38_4 C 0.6636(3) 0.09660(14) 0.33780(18)
H25_4 H 0.6873 0.0651 0.3604
C39_4 C 0.5052(3) 0.04808(16) 0.15747(19)
H26_4 H 0.4357 0.0599 0.1475
C44_4 C 0.7091(3) 0.01378(15) 0.1875(2)
C45_4 C 0.5813(3) 0.08085(16) 0.1442(2)
H30_4 H 0.5638 0.1141 0.1253
C46_4 C 0.5283(3) 0.15315(16) 0.2919(2)
H31_4 H 0.4567 0.1612 0.2820
C47_4 C 0.7371(3) 0.12966(15) 0.31903(19)
C48_4 C 0.8496(3) 0.11452(16) 0.3323(2)
H32_4 H 0.8984 0.1382 0.3228
C49_4 C 0.7009(3) 0.17653(15) 0.2862(2)
H33_4 H 0.7478 0.1999 0.2739
N7_4 N 0.8797(2) 0.06945(13) 0.35645(17)
N8_4 N 0.9896(2) 0.06260(12) 0.36531(16)
H35_4 H 0.8698 0.0172 0.1922
C52_4 C 0.6851(3) 0.06323(15) 0.1596(2)
H36_4 H 0.7381 0.0846 0.1510
C23_4 C 0.8634(3) 0.27402(16) 0.9831(2)
H11_4 H 0.8224 0.2713 0.9363
C24_4 C 0.9275(3) 0.36110(15) 0.9526(2)
C32_4 C 0.9839(3) 0.89607(18) 0.2518(2)
H19_4 H 0.9352 0.8721 0.2605
N5_4 N 0.8455(2) 0.95001(14) 0.22573(18)
N6_4 N 0.9551(2) 0.94187(14) 0.23262(19)
C35_4 C 0.6265(3) 0.98355(14) 0.19863(19)
H22_4 H 0.6418 0.9501 0.2172
H34_4 H 0.9640 0.9923 0.3886
C51_4 C 0.8186(3) 0.99504(18) 0.2015(2)
O12_4 O 0.03945(19) 0.84396(9) 0.46523(15)
loop_
_geom_bond_atom_site_label_1
_geom_bond_atom_site_label_2
_geom_bond_site_symmetry_1
_geom_bond_site_symmetry_2
H19 C32 1_555 1_555
N1 C35 1_555 1_555
N5 N6 1_555 1_555
N6 C32 1_555 1_555
C35 H22 1_555 1_555
C51 N5 1_555 1_555
Cd3 N1 1_555 1_555
C23 H11 1_555 1_555
O5 C24 1_555 1_555
O6 C24 1_555 1_555
Cd6 O5 1_555 1_555
O6 Cd6 1_555 1_555
C15 S1 1_555 1_555
C20 C15 1_555 1_555
C26 C3 1_555 1_555
C28 C15 1_555 1_555
H15 C28 1_555 1_555
O8 S1 1_555 1_555
O10 S1 1_555 1_555
N4 C38 1_555 1_555
C37 H24 1_555 1_555
C38 H25 1_555 1_555
H26 C39 1_555 1_555
C45 C39 1_555 1_555
H30 C45 1_555 1_555
C46 N4 1_555 1_555
H31 C46 1_555 1_555
C47 C38 1_555 1_555
C48 C47 1_555 1_555
H32 C48 1_555 1_555
C49 C37 1_555 1_555
H33 C49 1_555 1_555
N7 C48 1_555 1_555
N8 N7 1_555 1_555
C52 C44 1_555 1_555
H36 C52 1_555 1_555
Cd5 N4 1_555 1_555
C20 C26 1_555 1_555
C37 C46 1_555 1_555
C45 C52 1_555 1_555
C47 C49 1_555 1_555
Cd3 O1 1_555 1_555
S2 C12 1_555 1_555
C1 C4 1_555 1_555
C4 O1 1_555 1_555
C5 C6 1_555 1_555
C6 O2 1_555 1_555
C7 C1 1_555 1_555
H1 C7 1_555 1_555
C10 C7 1_555 1_555
H2 C10 1_555 1_555
C12 C18 1_555 1_555
C13 C1 1_555 1_555
H4 C13 1_555 1_555
C16 S2 1_555 1_555
C17 C5 1_555 1_555
H6 C17 1_555 1_555
C18 C17 1_555 1_555
H7 C18 1_555 1_555
C21 H10 1_555 1_555
C22 C21 1_555 1_555
C25 C5 1_555 1_555
H12 C25 1_555 1_555
C27 C13 1_555 1_555
H14 C27 1_555 1_555
C29 C12 1_555 1_555
H16 C29 1_555 1_555
C31 H18 1_555 1_555
C33 C22 1_555 1_555
H20 C33 1_555 1_555
C34 C31 1_555 1_555
H21 C34 1_555 1_555
O2 Cd4 1_555 1_555
O3 C4 1_555 1_555
O7 C6 1_555 1_555
N2 Cd3 1_555 1_555
C41 H27 1_555 1_555
H28 C42 1_555 1_555
C43 C40 1_555 1_555
H29 C43 1_555 1_555
O11 S2 1_555 1_555
Cd4 O7 1_555 1_555
O13 Cd3 1_555 1_555
O16 Cd3 1_555 1_555
C10 C16 1_555 1_555
C16 C27 1_555 1_555
C21 N2 1_555 1_555
C25 C29 1_555 1_555
C31 N2 1_555 1_555
C33 C34 1_555 1_555
C41 C42 1_555 1_555
C41 C43 1_555 1_555
C2 C11 1_555 1_555
C8 C9 1_555 1_555
C9 C14 1_555 1_555
C14 C11 1_555 1_555
H5 C14 1_555 1_555
C19 C9 1_555 1_555
H8 C19 1_555 1_555
C30 C2 1_555 1_555
H17 C30 1_555 1_555
N3 Cd5 1_555 1_555
C36 N3 1_555 1_555
H23 C36 1_555 1_555
O14 Cd5 1_555 1_555
O15 Cd5 1_555 1_555
Cd5 O4 1_555 1_555
C8 O4 1_555 1_555
C8 O9 1_555 1_555
C19 C30 1_555 1_555
Cd4 O1_2 1_555 1_555
S1_2 C2_2 1_555 1_555
C2_2 C11_2 1_555 1_555
C3_2 C23_2 1_555 1_555
C8_2 C9_2 1_555 1_555
C9_2 C14_2 1_555 1_555
C11_2 H3_2 1_555 1_555
C14_2 C11_2 1_555 1_555
H5_2 C14_2 1_555 1_555
C15_2 S1_2 1_555 1_555
C19_2 C9_2 1_555 1_555
H8_2 C19_2 1_555 1_555
C20_2 C15_2 1_555 1_555
H9_2 C20_2 1_555 1_555
C21_2 H10_2 1_555 1_555
C22_2 C21_2 1_555 1_555
C23_2 H11_2 1_555 1_555
C24_2 C3_2 1_555 1_555
C26_2 C3_2 1_555 1_555
H13_2 C26_2 1_555 1_555
C28_2 C15_2 1_555 1_555
H15_2 C28_2 1_555 1_555
C30_2 C2_2 1_555 1_555
H17_2 C30_2 1_555 1_555
C31_2 H18_2 1_555 1_555
C32_2 C22_2 1_555 1_555
H19_2 C32_2 1_555 1_555
C33_2 C22_2 1_555 1_555
H20_2 C33_2 1_555 1_555
C34_2 C31_2 1_555 1_555
H21_2 C34_2 1_555 1_555
O4_2 Cd4 1_555 1_555
O14 C24_2 1_555 1_555
O15 C24_2 1_555 1_555
O8_2 S1_2 1_555 1_555
O9_2 Cd4 1_555 1_555
O10_2 S1_2 1_555 1_555
N1_2 C35_2 1_555 1_555
N2_2 Cd4 1_555 1_555
N3_2 Cd6 1_555 1_555
N4_2 C38_2 1_555 1_555
N5_2 N6_2 1_555 1_555
N6_2 C32_2 1_555 1_555
C35_2 H22_2 1_555 1_555
C36_2 N3_2 1_555 1_555
H23_2 C36_2 1_555 1_555
C37_2 H24_2 1_555 1_555
C38_2 H25_2 1_555 1_555
C39_2 N1_2 1_555 1_555
C40_2 C36_2 1_555 1_555
C41_2 H27_2 1_555 1_555
C42_2 N3_2 1_555 1_555
H28_2 C42_2 1_555 1_555
C43_2 C40_2 1_555 1_555
H29_2 C43_2 1_555 1_555
C44_2 C35_2 1_555 1_555
C45_2 C39_2 1_555 1_555
H30_2 C45_2 1_555 1_555
C46_2 N4_2 1_555 1_555
C47_2 C38_2 1_555 1_555
C48_2 C47_2 1_555 1_555
H32_2 C48_2 1_555 1_555
C49_2 C37_2 1_555 1_555
H33_2 C49_2 1_555 1_555
N7_2 C48_2 1_555 1_555
C50_2 C40_2 1_555 1_555
H34_2 C50_2 1_555 1_555
N8_2 N7_2 1_555 1_555
C51_2 N5_2 1_555 1_555
H35_2 C51_2 1_555 1_555
C52_2 C44_2 1_555 1_555
H36_2 C52_2 1_555 1_555
Cd6 O4_2 1_555 1_555
C8_2 O4_2 1_555 1_555
C8_2 O9_2 1_555 1_555
C19_2 C30_2 1_555 1_555
C20_2 C26_2 1_555 1_555
C21_2 N2_2 1_555 1_555
C23_2 C28_2 1_555 1_555
C31_2 N2_2 1_555 1_555
C33_2 C34_2 1_555 1_555
C37_2 C46_2 1_555 1_555
C41_2 C42_2 1_555 1_555
C41_2 C43_2 1_555 1_555
C44_2 C51_2 1_555 1_555
C45_2 C52_2 1_555 1_555
C47_2 C49_2 1_555 1_555
C50_2 N8_2 1_555 1_555
S2_2 C12_2 1_555 1_555
C1_2 C4_2 1_555 1_555
C7_2 C1_2 1_555 1_555
H1_2 C7_2 1_555 1_555
C10_2 C7_2 1_555 1_555
H2_2 C10_2 1_555 1_555
C12_2 C18_2 1_555 1_555
C13_2 C1_2 1_555 1_555
H4_2 C13_2 1_555 1_555
C16_2 S2_2 1_555 1_555
H7_2 C18_2 1_555 1_555
C27_2 C13_2 1_555 1_555
H14_2 C27_2 1_555 1_555
O3_2 C4_2 1_555 1_555
O11_2 S2_2 1_555 1_555
O12 S2_2 1_555 1_555
C10_2 C16_2 1_555 1_555
C16_2 C27_2 1_555 1_555
C5_2 C6_2 1_555 1_555
C6_2 O13 1_555 1_555
C17_2 C5_2 1_555 1_555
C25_2 C5_2 1_555 1_555
H12_2 C25_2 1_555 1_555
H16_2 C29_2 1_555 1_555
O16 C6_2 1_555 1_555
C25_2 C29_2 1_555 1_555
C5_3 C6_3 1_555 1_555
C6_3 O2_2 1_555 1_555
C17_3 C5_3 1_555 1_555
C25_3 C5_3 1_555 1_555
H12_3 C25_3 1_555 1_555
H16_3 C29_3 1_555 1_555
O2_2 Cd4_2 1_555 1_555
O7_2 C6_3 1_555 1_555
Cd4_2 O7_2 1_555 1_555
C25_3 C29_3 1_555 1_555
S2_3 C12_3 1_555 1_555
C1_3 C4_3 1_555 1_555
C7_3 C1_3 1_555 1_555
H1_3 C7_3 1_555 1_555
C10_3 C7_3 1_555 1_555
H2_3 C10_3 1_555 1_555
C12_3 C18_3 1_555 1_555
C13_3 C1_3 1_555 1_555
H4_3 C13_3 1_555 1_555
C16_3 S2_3 1_555 1_555
H7_3 C18_3 1_555 1_555
C27_3 C13_3 1_555 1_555
H14_3 C27_3 1_555 1_555
O3_3 C4_3 1_555 1_555
O11_3 S2_3 1_555 1_555
O12_3 S2_3 1_555 1_555
C10_3 C16_3 1_555 1_555
C16_3 C27_3 1_555 1_555
Cd1 O1_3 1_555 1_555
S1_3 C2_3 1_555 1_555
C2_3 C11_3 1_555 1_555
C3_3 C23_3 1_555 1_555
C8_3 C9_3 1_555 1_555
C9_3 C14_3 1_555 1_555
C11_3 H3_3 1_555 1_555
C14_3 C11_3 1_555 1_555
H5_3 C14_3 1_555 1_555
C15_3 S1_3 1_555 1_555
C19_3 C9_3 1_555 1_555
H8_3 C19_3 1_555 1_555
C20_3 C15_3 1_555 1_555
H9_3 C20_3 1_555 1_555
C21_3 H10_3 1_555 1_555
C22_3 C21_3 1_555 1_555
C23_3 H11_3 1_555 1_555
C24_3 C3_3 1_555 1_555
C26_3 C3_3 1_555 1_555
H13_3 C26_3 1_555 1_555
C28_3 C15_3 1_555 1_555
H15_3 C28_3 1_555 1_555
C30_3 C2_3 1_555 1_555
H17_3 C30_3 1_555 1_555
C31_3 H18_3 1_555 1_555
C32_3 C22_3 1_555 1_555
H19_3 C32_3 1_555 1_555
C33_3 C22_3 1_555 1_555
H20_3 C33_3 1_555 1_555
C34_3 C31_3 1_555 1_555
H21_3 C34_3 1_555 1_555
O4_3 Cd1 1_555 1_555
O5_2 C24_3 1_555 1_555
O6_2 C24_3 1_555 1_555
O8_3 S1_3 1_555 1_555
O9_3 Cd1 1_555 1_555
O10_3 S1_3 1_555 1_555
N9 C35_3 1_555 1_555
N2_3 Cd1 1_555 1_555
N3_3 Cd2 1_555 1_555
N10 C38_3 1_555 1_555
N5_3 N6_3 1_555 1_555
N6_3 C32_3 1_555 1_555
C35_3 H22_3 1_555 1_555
C36_3 N3_3 1_555 1_555
H23_3 C36_3 1_555 1_555
C37_3 H24_3 1_555 1_555
C38_3 H25_3 1_555 1_555
C39_3 N9 1_555 1_555
C40_3 C36_3 1_555 1_555
C41_3 H27_3 1_555 1_555
C42_3 N3_3 1_555 1_555
H28_3 C42_3 1_555 1_555
C43_3 C40_3 1_555 1_555
H29_3 C43_3 1_555 1_555
C44_3 C35_3 1_555 1_555
C45_3 C39_3 1_555 1_555
H30_3 C45_3 1_555 1_555
C46_3 N10 1_555 1_555
C47_3 C38_3 1_555 1_555
C48_3 C47_3 1_555 1_555
H32_3 C48_3 1_555 1_555
C49_3 C37_3 1_555 1_555
H33_3 C49_3 1_555 1_555
N7_3 C48_3 1_555 1_555
C50_3 C40_3 1_555 1_555
H34_3 C50_3 1_555 1_555
N8_3 N7_3 1_555 1_555
C51_3 N5_3 1_555 1_555
H35_3 C51_3 1_555 1_555
C52_3 C44_3 1_555 1_555
H36_3 C52_3 1_555 1_555
Cd6_2 O5_2 1_555 1_555
O13_2 Cd1 1_555 1_555
O14_2 Cd2 1_555 1_555
O15_2 Cd2 1_555 1_555
O16_2 Cd1 1_555 1_555
Cd2 O4_3 1_555 1_555
C8_3 O4_3 1_555 1_555
C8_3 O9_3 1_555 1_555
C19_3 C30_3 1_555 1_555
C20_3 C26_3 1_555 1_555
C21_3 N2_3 1_555 1_555
C23_3 C28_3 1_555 1_555
C31_3 N2_3 1_555 1_555
C33_3 C34_3 1_555 1_555
O6_2 Cd6_2 1_555 1_555
C37_3 C46_3 1_555 1_555
C41_3 C42_3 1_555 1_555
C41_3 C43_3 1_555 1_555
C44_3 C51_3 1_555 1_555
C45_3 C52_3 1_555 1_555
C47_3 C49_3 1_555 1_555
C50_3 N8_3 1_555 1_555
C2_4 C11_4 1_555 1_555
C8_4 C9_4 1_555 1_555
C9_4 C14_4 1_555 1_555
C14_4 C11_4 1_555 1_555
H5_4 C14_4 1_555 1_555
C19_4 C9_4 1_555 1_555
H8_4 C19_4 1_555 1_555
C30_4 C2_4 1_555 1_555
H17_4 C30_4 1_555 1_555
N3_4 Cd6_2 1_555 1_555
C36_4 N3_4 1_555 1_555
H23_4 C36_4 1_555 1_555
N10_2 Cd6_2 1_555 1_555
Cd6_2 O4_4 1_555 1_555
C8_4 O4_4 1_555 1_555
C8_4 O9_4 1_555 1_555
C19_4 C30_4 1_555 1_555
Cd4_2 O1_4 1_555 1_555
S2_4 C12_4 1_555 1_555
C1_4 C4_4 1_555 1_555
C4_4 O1_4 1_555 1_555
C5_4 C6_4 1_555 1_555
C6_4 O13_2 1_555 1_555
C7_4 C1_4 1_555 1_555
H1_4 C7_4 1_555 1_555
C10_4 C7_4 1_555 1_555
H2_4 C10_4 1_555 1_555
C12_4 C18_4 1_555 1_555
C13_4 C1_4 1_555 1_555
H4_4 C13_4 1_555 1_555
C16_4 S2_4 1_555 1_555
C17_4 C5_4 1_555 1_555
H6_4 C17_4 1_555 1_555
C18_4 C17_4 1_555 1_555
H7_4 C18_4 1_555 1_555
C21_4 H10_4 1_555 1_555
C22_4 C21_4 1_555 1_555
C25_4 C5_4 1_555 1_555
H12_4 C25_4 1_555 1_555
C27_4 C13_4 1_555 1_555
H14_4 C27_4 1_555 1_555
C29_4 C12_4 1_555 1_555
H16_4 C29_4 1_555 1_555
C31_4 H18_4 1_555 1_555
C33_4 C22_4 1_555 1_555
H20_4 C33_4 1_555 1_555
C34_4 C31_4 1_555 1_555
H21_4 C34_4 1_555 1_555
O3_4 C4_4 1_555 1_555
O16_2 C6_4 1_555 1_555
N2_4 Cd4_2 1_555 1_555
C41_4 H27_4 1_555 1_555
H28_4 C42_4 1_555 1_555
C43_4 C40_4 1_555 1_555
H29_4 C43_4 1_555 1_555
O11_4 S2_4 1_555 1_555
N9_2 Cd4_2 1_555 1_555
C10_4 C16_4 1_555 1_555
C16_4 C27_4 1_555 1_555
C21_4 N2_4 1_555 1_555
C25_4 C29_4 1_555 1_555
C31_4 N2_4 1_555 1_555
C33_4 C34_4 1_555 1_555
C41_4 C42_4 1_555 1_555
C41_4 C43_4 1_555 1_555
C15_4 S1_4 1_555 1_555
C20_4 C15_4 1_555 1_555
C26_4 C3_4 1_555 1_555
C28_4 C15_4 1_555 1_555
H15_4 C28_4 1_555 1_555
O8_4 S1_4 1_555 1_555
O10_4 S1_4 1_555 1_555
N10_2 C38_4 1_555 1_555
C37_4 H24_4 1_555 1_555
C38_4 H25_4 1_555 1_555
H26_4 C39_4 1_555 1_555
C45_4 C39_4 1_555 1_555
H30_4 C45_4 1_555 1_555
C46_4 N10_2 1_555 1_555
H31_4 C46_4 1_555 1_555
C47_4 C38_4 1_555 1_555
C48_4 C47_4 1_555 1_555
H32_4 C48_4 1_555 1_555
C49_4 C37_4 1_555 1_555
H33_4 C49_4 1_555 1_555
N7_4 C48_4 1_555 1_555
N8_4 N7_4 1_555 1_555
C52_4 C44_4 1_555 1_555
H36_4 C52_4 1_555 1_555
C20_4 C26_4 1_555 1_555
C37_4 C46_4 1_555 1_555
C45_4 C52_4 1_555 1_555
C47_4 C49_4 1_555 1_555
C23_4 H11_4 1_555 1_555
O14_2 C24_4 1_555 1_555
O15_2 C24_4 1_555 1_555
H19_4 C32_4 1_555 1_555
N9_2 C35_4 1_555 1_555
N5_4 N6_4 1_555 1_555
N6_4 C32_4 1_555 1_555
C35_4 H22_4 1_555 1_555
C51_4 N5_4 1_555 1_555

#END
