
###############################################################################
#
# This file contains modified crystal structure data generated from the
# MOF subset of the Cambridge Structural Database (CSD) v543 
# hosted by the Cambridge Crystallographic Data Centre (CCDC).
#
# This work is licensed under the Creative Commons
# Attribution-NonCommercial-ShareAlike 4.0 International License.
# To view a copy of this license, visit
# http://creativecommons.org/licenses/by-nc-sa/4.0/
# or send a letter to
# Creative Commons, PO Box 1866, Mountain View, CA 94042, USA.
#
# CIF created using the CSD Python API on 29 September 2022
# The structure has been converted into the P1 space group
# The structure has a 3D framework
# The original CSD entry DUVQUJ is in the tetragonal crystal system
# The framework has been calculated to contain at least 10.0% void space
# The void calculation uses a probe of radius 1.32A, grid spacing 0.4
# H atom positions have been added when not included in the experimental data
# Generated hydrogen atom positions removed from atoms on special positions
#
###############################################################################

data_DUVQUJ
_chemical_formula_moiety         '(C216 H200 O79 S16 Zr11)n'
_symmetry_cell_setting           triclinic
_symmetry_space_group_name_H-M   'P 1'
_symmetry_Int_Tables_number      1
_space_group_name_Hall           'P 1'
loop_
_symmetry_equiv_pos_site_id
_symmetry_equiv_pos_as_xyz
1 x,y,z
_cell_length_a                   24.6334(16)
_cell_length_b                   24.6334(16)
_cell_length_c                   29.830(2)
_cell_angle_alpha                90
_cell_angle_beta                 90
_cell_angle_gamma                90
_cell_volume                     18101
loop_
_atom_site_label
_atom_site_type_symbol
_atom_site_fract_x
_atom_site_fract_y
_atom_site_fract_z
Zr7 Zr 0.07078(3) 0.07078(3) 0.000000
C14 C 0.500000 -0.000000 0.750000
O9 O 0.4877(3) 0.3716(3) 0.5832(3)
O10 O 0.5647(2) 0.3573(2) 0.5451(2)
C15 C 0.5292(4) 0.3434(4) 0.5725(4)
C16 C 0.5315(4) 0.2905(4) 0.5941(3)
C17 C 0.4978(5) 0.2782(4) 0.6285(5)
H7 H 0.472262 0.304491 0.638425
C18 C 0.5678(4) 0.2511(4) 0.5800(4)
H8 H 0.591966 0.259703 0.556216
C19 C 0.4999(4) 0.2269(4) 0.6498(4)
C20 C 0.5708(4) 0.1992(4) 0.5990(4)
H9 H 0.596111 0.173068 0.588414
C21 C 0.5359(3) 0.1873(4) 0.6336(3)
C22 C 0.5309(3) 0.1359(3) 0.6608(3)
C23 C 0.4931(4) 0.1394(4) 0.6937(4)
C24 C 0.5584(4) 0.0889(4) 0.6557(4)
H10 H 0.583898 0.084757 0.632062
C25 C 0.4809(4) 0.0966(4) 0.7222(4)
H11 H 0.452788 0.100273 0.743829
C26 C 0.5489(4) 0.0463(3) 0.6857(3)
H12 H 0.570077 0.014215 0.683358
C27 C 0.5090(3) 0.0498(3) 0.7191(3)
S2 S 0.4627(2) 0.20469(16) 0.69547(18)
O11 O 0.4070(5) 0.2025(5) 0.6869(6)
O12 O 0.4795(8) 0.2348(4) 0.7389(5)
O14 O 0.1427(2) 0.0647(2) 0.9549(2)
C28 C 0.1566(4) 0.0292(4) 0.9275(4)
C29 C 0.2095(4) 0.0315(4) 0.9059(3)
C31 C 0.2489(4) 0.0678(4) 0.9200(4)
H14 H 0.240297 0.091966 0.943784
C33 C 0.3008(4) 0.0708(4) 0.9010(4)
H15 H 0.326932 0.096111 0.911586
C34 C 0.3127(4) 0.0359(3) 0.8664(3)
C35 C 0.3641(3) 0.0309(3) 0.8392(3)
C37 C 0.4111(4) 0.0584(4) 0.8443(4)
H16 H 0.415243 0.083898 0.867938
C39 C 0.4537(3) 0.0489(4) 0.8143(3)
H18 H 0.485785 0.070077 0.816642
C40 C 0.4502(3) 0.0090(3) 0.7809(3)
O17 O 0.8716(3) 0.0123(3) 0.9168(3)
C43 C 0.7782(4) 0.0022(5) 0.8715(5)
H19 H 0.804491 0.027738 0.861575
C45 C 0.7269(4) 0.0001(4) 0.8502(4)
C49 C 0.6394(4) 0.0069(4) 0.8063(4)
C51 C 0.5966(4) 0.0191(4) 0.7778(4)
H23 H 0.600273 0.047212 0.756171
S4 S 0.70469(16) 0.0373(2) 0.80453(18)
O19 O 0.7025(5) 0.0930(5) 0.8131(6)
O20 O 0.7348(4) 0.0205(8) 0.7611(5)
Zr5 Zr 0.57078(3) 0.42922(3) 0.500000
Zr7_2 Zr 0.07078(3) 0.07078(3) 1.000000
Zr8 Zr 0.94956(3) 0.05044(3) 0.94102(4)
Zr12 Zr 0.44956(3) 0.44956(3) 0.55898(4)
Zr6 Zr 0.92922(3) 0.92922(3) 0.000000
Zr1 Zr 0.42922(3) 0.57078(3) 0.500000
Zr2 Zr 0.55044(3) 0.55044(3) 0.44102(4)
O1 O 0.5472(4) 0.5472(4) 0.3682(4)
O2 O 0.5849(5) 0.5150(3) 0.500000
O3 O 0.6134(3) 0.6134(3) 0.4446(4)
O4 O 0.4653(3) 0.5347(3) 0.4419(4)
O5 O 0.5123(3) 0.6284(3) 0.5832(3)
O6 O 0.4353(2) 0.6427(2) 0.5451(2)
C1 C 0.4708(4) 0.6566(4) 0.5725(4)
C2 C 0.4685(4) 0.7095(4) 0.5941(3)
C3 C 0.5022(5) 0.7218(4) 0.6285(5)
H1 H 0.527738 0.695509 0.638425
C4 C 0.4322(4) 0.7489(4) 0.5800(4)
H2 H 0.408034 0.740297 0.556216
C5 C 0.5001(4) 0.7731(4) 0.6498(4)
C6 C 0.4292(4) 0.8008(4) 0.5990(4)
H3 H 0.403889 0.826932 0.588414
C7 C 0.4641(3) 0.8127(4) 0.6336(3)
C8 C 0.4691(3) 0.8641(3) 0.6608(3)
C9 C 0.5069(4) 0.8606(4) 0.6937(4)
C10 C 0.4416(4) 0.9111(4) 0.6557(4)
H4 H 0.416102 0.915243 0.632062
C11 C 0.5191(4) 0.9034(4) 0.7222(4)
H5 H 0.547212 0.899727 0.743829
C12 C 0.4511(4) 0.9537(3) 0.6857(3)
H6 H 0.429923 0.985785 0.683358
C13 C 0.4910(3) 0.9502(3) 0.7191(3)
C14_2 C 0.500000 1.000000 0.750000
S1 S 0.5373(2) 0.79531(16) 0.69547(18)
O7 O 0.5930(5) 0.7975(5) 0.6869(6)
O8 O 0.5205(8) 0.7652(4) 0.7389(5)
O13 O 0.1284(3) 0.9877(3) 0.9168(3)
C30 C 0.2218(4) 0.9978(5) 0.8715(5)
H13 H 0.195509 0.972262 0.861575
C32 C 0.2731(4) 0.9999(4) 0.8502(4)
C36 C 0.3606(4) 0.9931(4) 0.8063(4)
C38 C 0.4034(4) 0.9809(4) 0.7778(4)
H17 H 0.399727 0.952788 0.756171
S3 S 0.29531(16) 0.9627(2) 0.80453(18)
O15 O 0.2975(5) 0.9070(5) 0.8131(6)
O16 O 0.2652(4) 0.9795(8) 0.7611(5)
O18 O 0.8573(2) 0.9353(2) 0.9549(2)
C41 C 0.8434(4) 0.9708(4) 0.9275(4)
C42 C 0.7905(4) 0.9685(4) 0.9059(3)
C44 C 0.7511(4) 0.9322(4) 0.9200(4)
H20 H 0.759703 0.908034 0.943784
C46 C 0.6992(4) 0.9292(4) 0.9010(4)
H21 H 0.673068 0.903889 0.911586
C47 C 0.6873(4) 0.9641(3) 0.8664(3)
C48 C 0.6359(3) 0.9691(3) 0.8392(3)
C50 C 0.5889(4) 0.9416(4) 0.8443(4)
H22 H 0.584757 0.916102 0.867938
C52 C 0.5463(3) 0.9511(4) 0.8143(3)
H24 H 0.514215 0.929923 0.816642
C53 C 0.5498(3) 0.9910(3) 0.7809(3)
Zr3 Zr 0.44956(3) 0.44956(3) 0.44102(4)
O21 O 0.4528(4) 0.4528(4) 0.3682(4)
O22 O 0.4151(5) 0.4850(3) 0.500000
O23 O 0.3866(3) 0.3866(3) 0.4446(4)
O24 O 0.5347(3) 0.4653(3) 0.4419(4)
Zr6_2 Zr 0.92922(3) 0.92922(3) 1.000000
Zr9 Zr 0.05044(3) 0.94956(3) 0.94102(4)
Zr10 Zr 0.55044(3) 0.55044(3) 0.55898(4)
O25 O 0.5150(3) 0.5849(5) 0.500000
O26 O 0.4850(3) 0.4151(5) 0.500000
O27 O 0.4653(3) 0.5347(3) 0.5581(4)
O28 O 0.6284(3) 0.5123(3) 0.4168(3)
O29 O 0.3716(3) 0.4877(3) 0.4168(3)
O30 O 0.4877(3) 0.3716(3) 0.4168(3)
O31 O 0.5123(3) 0.6284(3) 0.4168(3)
O32 O 0.3573(2) 0.5647(2) 0.4549(2)
O33 O 0.4353(2) 0.6427(2) 0.4549(2)
O34 O 0.3573(2) 0.5647(2) 0.5451(2)
O27_2 O 0.5347(3) 0.4653(3) 0.5581(4)
O32_2 O 0.6427(2) 0.4353(2) 0.4549(2)
O33_2 O 0.5647(2) 0.3573(2) 0.4549(2)
O34_2 O 0.6427(2) 0.4353(2) 0.5451(2)
O24_2 O 0.0347(3) 0.0347(3) 0.9419(4)
O22_2 O 0.0150(3) 0.9151(5) 0.000000
Zr11 Zr 0.05044(3) 0.94956(3) 0.05898(4)
O26_2 O 0.0849(5) 0.9850(3) 0.000000
O21_2 O 0.0472(4) 0.9528(4) 0.8682(4)
O22_3 O 0.0150(3) 0.9151(5) 1.000000
O23_2 O 0.1134(3) 0.8866(3) 0.9446(4)
O26_3 O 0.0849(5) 0.9850(3) 1.000000
O29_2 O 0.0123(3) 0.8716(3) 0.9168(3)
O2_2 O 0.9850(3) 0.0849(5) 0.000000
O5_2 O 0.8716(3) 0.0123(3) 0.0832(3)
C3_2 C 0.7782(4) 0.0022(5) 0.1285(5)
H1_2 H 0.804491 0.027738 0.138425
C5_2 C 0.7269(4) 0.0001(4) 0.1498(4)
C9_2 C 0.6394(4) 0.0069(4) 0.1937(4)
C11_2 C 0.5966(4) 0.0191(4) 0.2222(4)
H5_2 H 0.600273 0.047212 0.243829
C14_3 C 0.500000 -0.000000 0.250000
S1_2 S 0.70469(16) 0.0373(2) 0.19547(18)
O7_2 O 0.7025(5) 0.0930(5) 0.1869(6)
O8_2 O 0.7348(4) 0.0205(8) 0.2389(5)
O10_2 O 0.1427(2) 0.0647(2) 0.0451(2)
C15_2 C 0.1566(4) 0.0292(4) 0.0725(4)
C16_2 C 0.2095(4) 0.0315(4) 0.0941(3)
C18_2 C 0.2489(4) 0.0678(4) 0.0800(4)
H8_2 H 0.240297 0.091966 0.056216
C20_2 C 0.3008(4) 0.0708(4) 0.0990(4)
H9_2 H 0.326932 0.096111 0.088414
C21_2 C 0.3127(4) 0.0359(3) 0.1336(3)
C22_2 C 0.3641(3) 0.0309(3) 0.1608(3)
C24_2 C 0.4111(4) 0.0584(4) 0.1557(4)
H10_2 H 0.415243 0.083898 0.132062
C26_2 C 0.4537(3) 0.0489(4) 0.1857(3)
H12_2 H 0.485785 0.070077 0.183358
C27_2 C 0.4502(3) 0.0090(3) 0.2191(3)
C41_2 C 0.5292(4) 0.3434(4) 0.4275(4)
C42_2 C 0.5315(4) 0.2905(4) 0.4059(3)
C43_2 C 0.4978(5) 0.2782(4) 0.3715(5)
H19_2 H 0.472262 0.304491 0.361575
C44_2 C 0.5678(4) 0.2511(4) 0.4200(4)
H20_2 H 0.591966 0.259703 0.443784
C45_2 C 0.4999(4) 0.2269(4) 0.3502(4)
C46_2 C 0.5708(4) 0.1992(4) 0.4010(4)
H21_2 H 0.596111 0.173068 0.411586
C47_2 C 0.5359(3) 0.1873(4) 0.3664(3)
C48_2 C 0.5309(3) 0.1359(3) 0.3392(3)
C49_2 C 0.4931(4) 0.1394(4) 0.3063(4)
C50_2 C 0.5584(4) 0.0889(4) 0.3443(4)
H22_2 H 0.583898 0.084757 0.367938
C51_2 C 0.4809(4) 0.0966(4) 0.2778(4)
H23_2 H 0.452788 0.100273 0.256171
C52_2 C 0.5489(4) 0.0463(3) 0.3143(3)
H24_2 H 0.570077 0.014215 0.316642
C53_2 C 0.5090(3) 0.0498(3) 0.2809(3)
S4_2 S 0.4627(2) 0.20469(16) 0.30453(18)
O19_2 O 0.4070(5) 0.2025(5) 0.3131(6)
O20_2 O 0.4795(8) 0.2348(4) 0.2611(5)
Zr10_2 Zr 0.94956(3) 0.05044(3) 0.05898(4)
O25_2 O 0.9151(5) 0.0150(3) 0.000000
O1_2 O 0.9528(4) 0.0472(4) 0.8682(4)
O2_3 O 0.9850(3) 0.0849(5) 1.000000
O3_2 O 0.8866(3) 0.1134(3) 0.9446(4)
O25_3 O 0.9151(5) 0.0150(3) 1.000000
O28_2 O 0.9877(3) 0.1284(3) 0.9168(3)
O6_2 O 0.8573(2) 0.9353(2) 0.0451(2)
C1_2 C 0.8434(4) 0.9708(4) 0.0725(4)
C2_2 C 0.7905(4) 0.9685(4) 0.0941(3)
C4_2 C 0.7511(4) 0.9322(4) 0.0800(4)
H2_2 H 0.759703 0.908034 0.056216
C6_2 C 0.6992(4) 0.9292(4) 0.0990(4)
H3_2 H 0.673068 0.903889 0.088414
C7_2 C 0.6873(4) 0.9641(3) 0.1336(3)
C8_2 C 0.6359(3) 0.9691(3) 0.1608(3)
C10_2 C 0.5889(4) 0.9416(4) 0.1557(4)
H4_2 H 0.584757 0.916102 0.132062
C12_2 C 0.5463(3) 0.9511(4) 0.1857(3)
H6_2 H 0.514215 0.929923 0.183358
C13_2 C 0.5498(3) 0.9910(3) 0.2191(3)
C14_4 C 0.500000 1.000000 0.250000
O9_2 O 0.1284(3) 0.9877(3) 0.0832(3)
C17_2 C 0.2218(4) 0.9978(5) 0.1285(5)
H7_2 H 0.195509 0.972262 0.138425
C19_2 C 0.2731(4) 0.9999(4) 0.1498(4)
C23_2 C 0.3606(4) 0.9931(4) 0.1937(4)
C25_2 C 0.4034(4) 0.9809(4) 0.2222(4)
H11_2 H 0.399727 0.952788 0.243829
S2_2 S 0.29531(16) 0.9627(2) 0.19547(18)
O11_2 O 0.2975(5) 0.9070(5) 0.1869(6)
O12_2 O 0.2652(4) 0.9795(8) 0.2389(5)
C28_2 C 0.4708(4) 0.6566(4) 0.4275(4)
C29_2 C 0.4685(4) 0.7095(4) 0.4059(3)
C30_2 C 0.5022(5) 0.7218(4) 0.3715(5)
H13_2 H 0.527738 0.695509 0.361575
C31_2 C 0.4322(4) 0.7489(4) 0.4200(4)
H14_2 H 0.408034 0.740297 0.443784
C32_2 C 0.5001(4) 0.7731(4) 0.3502(4)
C33_2 C 0.4292(4) 0.8008(4) 0.4010(4)
H15_2 H 0.403889 0.826932 0.411586
C34_2 C 0.4641(3) 0.8127(4) 0.3664(3)
C35_2 C 0.4691(3) 0.8641(3) 0.3392(3)
C36_2 C 0.5069(4) 0.8606(4) 0.3063(4)
C37_2 C 0.4416(4) 0.9111(4) 0.3443(4)
H16_2 H 0.416102 0.915243 0.367938
C38_2 C 0.5191(4) 0.9034(4) 0.2778(4)
H17_2 H 0.547212 0.899727 0.256171
C39_2 C 0.4511(4) 0.9537(3) 0.3143(3)
H18_2 H 0.429923 0.985785 0.316642
C40_2 C 0.4910(3) 0.9502(3) 0.2809(3)
S3_2 S 0.5373(2) 0.79531(16) 0.30453(18)
O15_2 O 0.5930(5) 0.7975(5) 0.3131(6)
O16_2 O 0.5205(8) 0.7652(4) 0.2611(5)
O27_3 O 0.9653(3) 0.9653(3) 0.0581(4)
O34_3 O 0.9353(2) 0.8573(2) 0.0451(2)
O4_2 O 0.9653(3) 0.9653(3) 0.9419(4)
O32_3 O 0.9353(2) 0.8573(2) 0.9549(2)
O27_4 O 0.0347(3) 0.0347(3) 0.0581(4)
O34_4 O 0.0647(2) 0.1427(2) 0.0451(2)
O32_4 O 0.0647(2) 0.1427(2) 0.9549(2)
C1_3 C 0.0292(4) 0.1566(4) 0.9275(4)
C2_3 C 0.0315(4) 0.2095(4) 0.9059(3)
C4_3 C 0.0678(4) 0.2489(4) 0.9200(4)
H2_3 H 0.091966 0.240297 0.943784
C6_3 C 0.0708(4) 0.3008(4) 0.9010(4)
H3_3 H 0.096111 0.326932 0.911586
C7_3 C 0.0359(3) 0.3127(4) 0.8664(3)
C8_3 C 0.0309(3) 0.3641(3) 0.8392(3)
C10_3 C 0.0584(4) 0.4111(4) 0.8443(4)
H4_3 H 0.083898 0.415243 0.867938
C12_3 C 0.0489(4) 0.4537(3) 0.8143(3)
H6_3 H 0.070077 0.485785 0.816642
C13_3 C 0.0090(3) 0.4502(3) 0.7809(3)
C14_5 C 0.000000 0.500000 0.750000
C17_3 C 0.0022(5) 0.7782(4) 0.8715(5)
H7_3 H 0.027738 0.804491 0.861575
C19_3 C 0.0001(4) 0.7269(4) 0.8502(4)
C23_3 C 0.0069(4) 0.6394(4) 0.8063(4)
C25_3 C 0.0191(4) 0.5966(4) 0.7778(4)
H11_3 H 0.047212 0.600273 0.756171
S2_3 S 0.0373(2) 0.70469(16) 0.80453(18)
O11_3 O 0.0930(5) 0.7025(5) 0.8131(6)
O12_3 O 0.0205(8) 0.7348(4) 0.7611(5)
O13_2 O 0.3716(3) 0.4877(3) 0.5832(3)
C28_3 C 0.3434(4) 0.5292(4) 0.5725(4)
C29_3 C 0.2905(4) 0.5315(4) 0.5941(3)
C30_3 C 0.2782(4) 0.4978(5) 0.6285(5)
H13_3 H 0.304491 0.472262 0.638425
C31_3 C 0.2511(4) 0.5678(4) 0.5800(4)
H14_3 H 0.259703 0.591966 0.556216
C32_3 C 0.2269(4) 0.4999(4) 0.6498(4)
C33_3 C 0.1992(4) 0.5708(4) 0.5990(4)
H15_3 H 0.173068 0.596111 0.588414
C34_3 C 0.1873(4) 0.5359(3) 0.6336(3)
C35_3 C 0.1359(3) 0.5309(3) 0.6608(3)
C36_3 C 0.1394(4) 0.4931(4) 0.6937(4)
C37_3 C 0.0889(4) 0.5584(4) 0.6557(4)
H16_3 H 0.084757 0.583898 0.632062
C38_3 C 0.0966(4) 0.4809(4) 0.7222(4)
H17_3 H 0.100273 0.452788 0.743829
C39_3 C 0.0463(3) 0.5489(4) 0.6857(3)
H18_3 H 0.014215 0.570077 0.683358
C40_3 C 0.0498(3) 0.5090(3) 0.7191(3)
S3_3 S 0.20469(16) 0.4627(2) 0.69547(18)
O15_3 O 0.2025(5) 0.4070(5) 0.6869(6)
O16_3 O 0.2348(4) 0.4795(8) 0.7389(5)
O21_3 O 0.0472(4) 0.9528(4) 0.1318(4)
O23_3 O 0.1134(3) 0.8866(3) 0.0554(4)
O30_2 O 0.0123(3) 0.8716(3) 0.0832(3)
O1_3 O 0.9528(4) 0.0472(4) 0.1318(4)
O3_3 O 0.8866(3) 0.1134(3) 0.0554(4)
O31_2 O 0.9877(3) 0.1284(3) 0.0832(3)
C3_3 C 0.9978(5) 0.2218(4) 0.8715(5)
H1_3 H 0.972262 0.195509 0.861575
C5_3 C 0.9999(4) 0.2731(4) 0.8502(4)
C9_3 C 0.9931(4) 0.3606(4) 0.8063(4)
C11_3 C 0.9809(4) 0.4034(4) 0.7778(4)
H5_3 H 0.952788 0.399727 0.756171
C14_6 C 1.000000 0.500000 0.750000
S1_3 S 0.9627(2) 0.29531(16) 0.80453(18)
O7_3 O 0.9070(5) 0.2975(5) 0.8131(6)
O8_3 O 0.9795(8) 0.2652(4) 0.7611(5)
C15_3 C 0.9708(4) 0.8434(4) 0.9275(4)
C16_3 C 0.9685(4) 0.7905(4) 0.9059(3)
C18_3 C 0.9322(4) 0.7511(4) 0.9200(4)
H8_3 H 0.908034 0.759703 0.943784
C20_3 C 0.9292(4) 0.6992(4) 0.9010(4)
H9_3 H 0.903889 0.673068 0.911586
C21_3 C 0.9641(3) 0.6873(4) 0.8664(3)
C22_3 C 0.9691(3) 0.6359(3) 0.8392(3)
C24_3 C 0.9416(4) 0.5889(4) 0.8443(4)
H10_3 H 0.916102 0.584757 0.867938
C26_3 C 0.9511(4) 0.5463(3) 0.8143(3)
H12_3 H 0.929923 0.514215 0.816642
C27_3 C 0.9910(3) 0.5498(3) 0.7809(3)
O17_2 O 0.6284(3) 0.5123(3) 0.5832(3)
C41_3 C 0.6566(4) 0.4708(4) 0.5725(4)
C42_3 C 0.7095(4) 0.4685(4) 0.5941(3)
C43_3 C 0.7218(4) 0.5022(5) 0.6285(5)
H19_3 H 0.695509 0.527738 0.638425
C44_3 C 0.7489(4) 0.4322(4) 0.5800(4)
H20_3 H 0.740297 0.408034 0.556216
C45_3 C 0.7731(4) 0.5001(4) 0.6498(4)
C46_3 C 0.8008(4) 0.4292(4) 0.5990(4)
H21_3 H 0.826932 0.403889 0.588414
C47_3 C 0.8127(4) 0.4641(3) 0.6336(3)
C48_3 C 0.8641(3) 0.4691(3) 0.6608(3)
C49_3 C 0.8606(4) 0.5069(4) 0.6937(4)
C50_3 C 0.9111(4) 0.4416(4) 0.6557(4)
H22_3 H 0.915243 0.416102 0.632062
C51_3 C 0.9034(4) 0.5191(4) 0.7222(4)
H23_3 H 0.899727 0.547212 0.743829
C52_3 C 0.9537(3) 0.4511(4) 0.6857(3)
H24_3 H 0.985785 0.429923 0.683358
C53_3 C 0.9502(3) 0.4910(3) 0.7191(3)
S4_3 S 0.79531(16) 0.5373(2) 0.69547(18)
O19_3 O 0.7975(5) 0.5930(5) 0.6869(6)
O20_3 O 0.7652(4) 0.5205(8) 0.7389(5)
C14_7 C -0.000000 0.500000 0.250000
C15_4 C 0.3434(4) 0.5292(4) 0.4275(4)
C16_4 C 0.2905(4) 0.5315(4) 0.4059(3)
C17_4 C 0.2782(4) 0.4978(5) 0.3715(5)
H7_4 H 0.304491 0.472262 0.361575
C18_4 C 0.2511(4) 0.5678(4) 0.4200(4)
H8_4 H 0.259703 0.591966 0.443784
C19_4 C 0.2269(4) 0.4999(4) 0.3502(4)
C20_4 C 0.1992(4) 0.5708(4) 0.4010(4)
H9_4 H 0.173068 0.596111 0.411586
C21_4 C 0.1873(4) 0.5359(3) 0.3664(3)
C22_4 C 0.1359(3) 0.5309(3) 0.3392(3)
C23_4 C 0.1394(4) 0.4931(4) 0.3063(4)
C24_4 C 0.0889(4) 0.5584(4) 0.3443(4)
H10_4 H 0.084757 0.583898 0.367938
C25_4 C 0.0966(4) 0.4809(4) 0.2778(4)
H11_4 H 0.100273 0.452788 0.256171
C26_4 C 0.0463(3) 0.5489(4) 0.3143(3)
H12_4 H 0.014215 0.570077 0.316642
C27_4 C 0.0498(3) 0.5090(3) 0.2809(3)
S2_4 S 0.20469(16) 0.4627(2) 0.30453(18)
O11_4 O 0.2025(5) 0.4070(5) 0.3131(6)
O12_4 O 0.2348(4) 0.4795(8) 0.2611(5)
C28_4 C 0.0292(4) 0.1566(4) 0.0725(4)
C29_4 C 0.0315(4) 0.2095(4) 0.0941(3)
C31_4 C 0.0678(4) 0.2489(4) 0.0800(4)
H14_4 H 0.091966 0.240297 0.056216
C33_4 C 0.0708(4) 0.3008(4) 0.0990(4)
H15_4 H 0.096111 0.326932 0.088414
C34_4 C 0.0359(3) 0.3127(4) 0.1336(3)
C35_4 C 0.0309(3) 0.3641(3) 0.1608(3)
C37_4 C 0.0584(4) 0.4111(4) 0.1557(4)
H16_4 H 0.083898 0.415243 0.132062
C39_4 C 0.0489(4) 0.4537(3) 0.1857(3)
H18_4 H 0.070077 0.485785 0.183358
C40_4 C 0.0090(3) 0.4502(3) 0.2191(3)
C43_4 C 0.0022(5) 0.7782(4) 0.1285(5)
H19_4 H 0.027738 0.804491 0.138425
C45_4 C 0.0001(4) 0.7269(4) 0.1498(4)
C49_4 C 0.0069(4) 0.6394(4) 0.1937(4)
C51_4 C 0.0191(4) 0.5966(4) 0.2222(4)
H23_4 H 0.047212 0.600273 0.243829
S4_4 S 0.0373(2) 0.70469(16) 0.19547(18)
O19_4 O 0.0930(5) 0.7025(5) 0.1869(6)
O20_4 O 0.0205(8) 0.7348(4) 0.2389(5)
O1_4 O 0.5472(4) 0.5472(4) 0.6318(4)
O3_4 O 0.6134(3) 0.6134(3) 0.5554(4)
C1_4 C 0.6566(4) 0.4708(4) 0.4275(4)
C2_4 C 0.7095(4) 0.4685(4) 0.4059(3)
C3_4 C 0.7218(4) 0.5022(5) 0.3715(5)
H1_4 H 0.695509 0.527738 0.361575
C4_4 C 0.7489(4) 0.4322(4) 0.4200(4)
H2_4 H 0.740297 0.408034 0.443784
C5_4 C 0.7731(4) 0.5001(4) 0.3502(4)
C6_4 C 0.8008(4) 0.4292(4) 0.4010(4)
H3_4 H 0.826932 0.403889 0.411586
C7_4 C 0.8127(4) 0.4641(3) 0.3664(3)
C8_4 C 0.8641(3) 0.4691(3) 0.3392(3)
C9_4 C 0.8606(4) 0.5069(4) 0.3063(4)
C10_4 C 0.9111(4) 0.4416(4) 0.3443(4)
H4_4 H 0.915243 0.416102 0.367938
C11_4 C 0.9034(4) 0.5191(4) 0.2778(4)
H5_4 H 0.899727 0.547212 0.256171
C12_4 C 0.9537(3) 0.4511(4) 0.3143(3)
H6_4 H 0.985785 0.429923 0.316642
C13_4 C 0.9502(3) 0.4910(3) 0.2809(3)
C14_8 C 1.000000 0.500000 0.250000
S1_4 S 0.79531(16) 0.5373(2) 0.30453(18)
O7_4 O 0.7975(5) 0.5930(5) 0.3131(6)
O8_4 O 0.7652(4) 0.5205(8) 0.2611(5)
C30_4 C 0.9978(5) 0.2218(4) 0.1285(5)
H13_4 H 0.972262 0.195509 0.138425
C32_4 C 0.9999(4) 0.2731(4) 0.1498(4)
C36_4 C 0.9931(4) 0.3606(4) 0.1937(4)
C38_4 C 0.9809(4) 0.4034(4) 0.2222(4)
H17_4 H 0.952788 0.399727 0.243829
S3_4 S 0.9627(2) 0.29531(16) 0.19547(18)
O15_4 O 0.9070(5) 0.2975(5) 0.1869(6)
O16_4 O 0.9795(8) 0.2652(4) 0.2389(5)
C41_4 C 0.9708(4) 0.8434(4) 0.0725(4)
C42_4 C 0.9685(4) 0.7905(4) 0.0941(3)
C44_4 C 0.9322(4) 0.7511(4) 0.0800(4)
H20_4 H 0.908034 0.759703 0.056216
C46_4 C 0.9292(4) 0.6992(4) 0.0990(4)
H21_4 H 0.903889 0.673068 0.088414
C47_4 C 0.9641(3) 0.6873(4) 0.1336(3)
C48_4 C 0.9691(3) 0.6359(3) 0.1608(3)
C50_4 C 0.9416(4) 0.5889(4) 0.1557(4)
H22_4 H 0.916102 0.584757 0.132062
C52_4 C 0.9511(4) 0.5463(3) 0.1857(3)
H24_4 H 0.929923 0.514215 0.183358
C53_4 C 0.9910(3) 0.5498(3) 0.2191(3)
O21_4 O 0.4528(4) 0.4528(4) 0.6318(4)
O23_4 O 0.3866(3) 0.3866(3) 0.5554(4)
loop_
_geom_bond_atom_site_label_1
_geom_bond_atom_site_label_2
_geom_bond_site_symmetry_1
_geom_bond_site_symmetry_2
O9 C15 1_555 1_555
O10 C15 1_555 1_555
C15 C16 1_555 1_555
C16 C17 1_555 1_555
C17 H7 1_555 1_555
C18 C16 1_555 1_555
H8 C18 1_555 1_555
C19 C17 1_555 1_555
C20 C18 1_555 1_555
H9 C20 1_555 1_555
C21 C19 1_555 1_555
C22 C21 1_555 1_555
C23 C22 1_555 1_555
C24 C22 1_555 1_555
H10 C24 1_555 1_555
C25 C23 1_555 1_555
H11 C25 1_555 1_555
C26 C24 1_555 1_555
H12 C26 1_555 1_555
C27 C14 1_555 1_555
S2 C19 1_555 1_555
O11 S2 1_555 1_555
O12 S2 1_555 1_555
O14 C28 1_555 1_555
C28 C29 1_555 1_555
C31 C29 1_555 1_555
H14 C31 1_555 1_555
C33 C31 1_555 1_555
H15 C33 1_555 1_555
C35 C34 1_555 1_555
C37 C35 1_555 1_555
H16 C37 1_555 1_555
C39 C37 1_555 1_555
H18 C39 1_555 1_555
C40 C14 1_555 1_555
C43 H19 1_555 1_555
C45 C43 1_555 1_555
C51 C49 1_555 1_555
H23 C51 1_555 1_555
S4 C45 1_555 1_555
O19 S4 1_555 1_555
O20 S4 1_555 1_555
Zr5 O10 1_555 1_555
Zr7_2 O14 1_555 1_555
Zr8 O17 1_555 1_555
Zr12 O9 1_555 1_555
C20 C21 1_555 1_555
C23 S2 1_555 1_555
C25 C27 1_555 1_555
C26 C27 1_555 1_555
C33 C34 1_555 1_555
C39 C40 1_555 1_555
C49 S4 1_555 1_555
Zr1 O4 1_555 1_555
Zr2 O1 1_555 1_555
O2 Zr2 1_555 1_555
O3 Zr2 1_555 1_555
O4 Zr2 1_555 1_555
O5 C1 1_555 1_555
O6 Zr1 1_555 1_555
C1 O6 1_555 1_555
C2 C1 1_555 1_555
C3 C2 1_555 1_555
H1 C3 1_555 1_555
C4 C2 1_555 1_555
H2 C4 1_555 1_555
C5 C3 1_555 1_555
C6 C4 1_555 1_555
H3 C6 1_555 1_555
C7 C5 1_555 1_555
C8 C7 1_555 1_555
C9 C8 1_555 1_555
C10 C8 1_555 1_555
H4 C10 1_555 1_555
C11 C9 1_555 1_555
H5 C11 1_555 1_555
C12 C10 1_555 1_555
H6 C12 1_555 1_555
C13 C11 1_555 1_555
C14_2 C13 1_555 1_555
S1 C5 1_555 1_555
O7 S1 1_555 1_555
O8 S1 1_555 1_555
C30 H13 1_555 1_555
C32 C30 1_555 1_555
C38 C36 1_555 1_555
H17 C38 1_555 1_555
S3 C32 1_555 1_555
O15 S3 1_555 1_555
O16 S3 1_555 1_555
O18 C41 1_555 1_555
C41 C42 1_555 1_555
C44 C42 1_555 1_555
H20 C44 1_555 1_555
C46 C44 1_555 1_555
H21 C46 1_555 1_555
C48 C47 1_555 1_555
C50 C48 1_555 1_555
H22 C50 1_555 1_555
C52 C50 1_555 1_555
H24 C52 1_555 1_555
C53 C14_2 1_555 1_555
Zr3 O4 1_555 1_555
O21 Zr3 1_555 1_555
O22 Zr1 1_555 1_555
O23 Zr3 1_555 1_555
O24 Zr2 1_555 1_555
Zr5 O2 1_555 1_555
Zr6_2 O18 1_555 1_555
Zr9 O13 1_555 1_555
Zr10 O2 1_555 1_555
Zr12 O22 1_555 1_555
O25 Zr1 1_555 1_555
O26 Zr3 1_555 1_555
O27 Zr1 1_555 1_555
O28 Zr2 1_555 1_555
O29 Zr3 1_555 1_555
O30 Zr3 1_555 1_555
O31 Zr2 1_555 1_555
O32 Zr1 1_555 1_555
O33 Zr1 1_555 1_555
O34 Zr1 1_555 1_555
Zr2 O25 1_555 1_555
O5 Zr10 1_555 1_555
C6 C7 1_555 1_555
C9 S1 1_555 1_555
C12 C13 1_555 1_555
C36 S3 1_555 1_555
C46 C47 1_555 1_555
C52 C53 1_555 1_555
Zr3 O22 1_555 1_555
Zr3 O24 1_555 1_555
O24 Zr5 1_555 1_555
Zr5 O26 1_555 1_555
Zr10 O25 1_555 1_555
Zr10 O27 1_555 1_555
Zr12 O26 1_555 1_555
Zr12 O27 1_555 1_555
O27_2 Zr5 1_555 1_555
O32_2 Zr5 1_555 1_555
O33_2 Zr5 1_555 1_555
O34_2 Zr5 1_555 1_555
Zr12 O27_2 1_555 1_555
Zr10 O27_2 1_555 1_555
O24_2 Zr7_2 1_555 1_555
Zr11 O22_2 1_555 1_555
Zr11 O26_2 1_555 1_555
O21_2 Zr9 1_555 1_555
O23_2 Zr9 1_555 1_555
O26_3 Zr9 1_555 1_555
O29_2 Zr9 1_555 1_555
Zr9 O22_3 1_555 1_555
H1_2 C3_2 1_555 1_555
C5_2 C3_2 1_555 1_555
C11_2 C9_2 1_555 1_555
H5_2 C11_2 1_555 1_555
S1_2 C5_2 1_555 1_555
O7_2 S1_2 1_555 1_555
O8_2 S1_2 1_555 1_555
O10_2 C15_2 1_555 1_555
C15_2 C16_2 1_555 1_555
C18_2 C16_2 1_555 1_555
H8_2 C18_2 1_555 1_555
C20_2 C18_2 1_555 1_555
H9_2 C20_2 1_555 1_555
C22_2 C21_2 1_555 1_555
C24_2 C22_2 1_555 1_555
H10_2 C24_2 1_555 1_555
C26_2 C24_2 1_555 1_555
H12_2 C26_2 1_555 1_555
C27_2 C14_3 1_555 1_555
O30 C41_2 1_555 1_555
O33_2 C41_2 1_555 1_555
C41_2 C42_2 1_555 1_555
C42_2 C43_2 1_555 1_555
C43_2 H19_2 1_555 1_555
C44_2 C42_2 1_555 1_555
H20_2 C44_2 1_555 1_555
C45_2 C43_2 1_555 1_555
C46_2 C44_2 1_555 1_555
H21_2 C46_2 1_555 1_555
C47_2 C45_2 1_555 1_555
C48_2 C47_2 1_555 1_555
C49_2 C48_2 1_555 1_555
C50_2 C48_2 1_555 1_555
H22_2 C50_2 1_555 1_555
C51_2 C49_2 1_555 1_555
H23_2 C51_2 1_555 1_555
C52_2 C50_2 1_555 1_555
H24_2 C52_2 1_555 1_555
C53_2 C14_3 1_555 1_555
S4_2 C45_2 1_555 1_555
O19_2 S4_2 1_555 1_555
O20_2 S4_2 1_555 1_555
Zr7 O10_2 1_555 1_555
Zr10_2 O2_2 1_555 1_555
O5_2 Zr10_2 1_555 1_555
C9_2 S1_2 1_555 1_555
C20_2 C21_2 1_555 1_555
C26_2 C27_2 1_555 1_555
C46_2 C47_2 1_555 1_555
C49_2 S4_2 1_555 1_555
C51_2 C53_2 1_555 1_555
C52_2 C53_2 1_555 1_555
Zr10_2 O25_2 1_555 1_555
Zr8 O1_2 1_555 1_555
O2_3 Zr8 1_555 1_555
O3_2 Zr8 1_555 1_555
O28_2 Zr8 1_555 1_555
Zr8 O25_3 1_555 1_555
O6_2 Zr6 1_555 1_555
C1_2 O6_2 1_555 1_555
C2_2 C1_2 1_555 1_555
C4_2 C2_2 1_555 1_555
H2_2 C4_2 1_555 1_555
C6_2 C4_2 1_555 1_555
H3_2 C6_2 1_555 1_555
C8_2 C7_2 1_555 1_555
C10_2 C8_2 1_555 1_555
H4_2 C10_2 1_555 1_555
C12_2 C10_2 1_555 1_555
H6_2 C12_2 1_555 1_555
C14_4 C13_2 1_555 1_555
C17_2 H7_2 1_555 1_555
C19_2 C17_2 1_555 1_555
C25_2 C23_2 1_555 1_555
H11_2 C25_2 1_555 1_555
S2_2 C19_2 1_555 1_555
O11_2 S2_2 1_555 1_555
O12_2 S2_2 1_555 1_555
O31 C28_2 1_555 1_555
O33 C28_2 1_555 1_555
C28_2 C29_2 1_555 1_555
C29_2 C30_2 1_555 1_555
C30_2 H13_2 1_555 1_555
C31_2 C29_2 1_555 1_555
H14_2 C31_2 1_555 1_555
C32_2 C30_2 1_555 1_555
C33_2 C31_2 1_555 1_555
H15_2 C33_2 1_555 1_555
C34_2 C32_2 1_555 1_555
C35_2 C34_2 1_555 1_555
C36_2 C35_2 1_555 1_555
C37_2 C35_2 1_555 1_555
H16_2 C37_2 1_555 1_555
C38_2 C36_2 1_555 1_555
H17_2 C38_2 1_555 1_555
C39_2 C37_2 1_555 1_555
H18_2 C39_2 1_555 1_555
C40_2 C14_4 1_555 1_555
S3_2 C32_2 1_555 1_555
O15_2 S3_2 1_555 1_555
O16_2 S3_2 1_555 1_555
Zr11 O9_2 1_555 1_555
O27_3 Zr6 1_555 1_555
O34_3 Zr6 1_555 1_555
C6_2 C7_2 1_555 1_555
C12_2 C13_2 1_555 1_555
C23_2 S2_2 1_555 1_555
C33_2 C34_2 1_555 1_555
C36_2 S3_2 1_555 1_555
C38_2 C40_2 1_555 1_555
C39_2 C40_2 1_555 1_555
Zr6_2 O4_2 1_555 1_555
O32_3 Zr6_2 1_555 1_555
O27_4 Zr7 1_555 1_555
O34_4 Zr7 1_555 1_555
O32_4 Zr7_2 1_555 1_555
C1_3 O32_4 1_555 1_555
C2_3 C1_3 1_555 1_555
C4_3 C2_3 1_555 1_555
H2_3 C4_3 1_555 1_555
C6_3 C4_3 1_555 1_555
H3_3 C6_3 1_555 1_555
C8_3 C7_3 1_555 1_555
C10_3 C8_3 1_555 1_555
H4_3 C10_3 1_555 1_555
C12_3 C10_3 1_555 1_555
H6_3 C12_3 1_555 1_555
C14_5 C13_3 1_555 1_555
C17_3 H7_3 1_555 1_555
C19_3 C17_3 1_555 1_555
C25_3 C23_3 1_555 1_555
H11_3 C25_3 1_555 1_555
S2_3 C19_3 1_555 1_555
O11_3 S2_3 1_555 1_555
O12_3 S2_3 1_555 1_555
O13_2 C28_3 1_555 1_555
O34 C28_3 1_555 1_555
C28_3 C29_3 1_555 1_555
C29_3 C30_3 1_555 1_555
C30_3 H13_3 1_555 1_555
C31_3 C29_3 1_555 1_555
H14_3 C31_3 1_555 1_555
C32_3 C30_3 1_555 1_555
C33_3 C31_3 1_555 1_555
H15_3 C33_3 1_555 1_555
C34_3 C32_3 1_555 1_555
C35_3 C34_3 1_555 1_555
C36_3 C35_3 1_555 1_555
C37_3 C35_3 1_555 1_555
H16_3 C37_3 1_555 1_555
C38_3 C36_3 1_555 1_555
H17_3 C38_3 1_555 1_555
C39_3 C37_3 1_555 1_555
H18_3 C39_3 1_555 1_555
C40_3 C14_5 1_555 1_555
S3_3 C32_3 1_555 1_555
O15_3 S3_3 1_555 1_555
O16_3 S3_3 1_555 1_555
Zr12 O13_2 1_555 1_555
C6_3 C7_3 1_555 1_555
C12_3 C13_3 1_555 1_555
C23_3 S2_3 1_555 1_555
C33_3 C34_3 1_555 1_555
C36_3 S3_3 1_555 1_555
C38_3 C40_3 1_555 1_555
C39_3 C40_3 1_555 1_555
O21_3 Zr11 1_555 1_555
O23_3 Zr11 1_555 1_555
O30_2 Zr11 1_555 1_555
Zr10_2 O1_3 1_555 1_555
O3_3 Zr10_2 1_555 1_555
O31_2 Zr10_2 1_555 1_555
H1_3 C3_3 1_555 1_555
C5_3 C3_3 1_555 1_555
C11_3 C9_3 1_555 1_555
H5_3 C11_3 1_555 1_555
S1_3 C5_3 1_555 1_555
O7_3 S1_3 1_555 1_555
O8_3 S1_3 1_555 1_555
O32_3 C15_3 1_555 1_555
C15_3 C16_3 1_555 1_555
C18_3 C16_3 1_555 1_555
H8_3 C18_3 1_555 1_555
C20_3 C18_3 1_555 1_555
H9_3 C20_3 1_555 1_555
C22_3 C21_3 1_555 1_555
C24_3 C22_3 1_555 1_555
H10_3 C24_3 1_555 1_555
C26_3 C24_3 1_555 1_555
H12_3 C26_3 1_555 1_555
C27_3 C14_6 1_555 1_555
O17_2 C41_3 1_555 1_555
O34_2 C41_3 1_555 1_555
C41_3 C42_3 1_555 1_555
C42_3 C43_3 1_555 1_555
C43_3 H19_3 1_555 1_555
C44_3 C42_3 1_555 1_555
H20_3 C44_3 1_555 1_555
C45_3 C43_3 1_555 1_555
C46_3 C44_3 1_555 1_555
H21_3 C46_3 1_555 1_555
C47_3 C45_3 1_555 1_555
C48_3 C47_3 1_555 1_555
C49_3 C48_3 1_555 1_555
C50_3 C48_3 1_555 1_555
H22_3 C50_3 1_555 1_555
C51_3 C49_3 1_555 1_555
H23_3 C51_3 1_555 1_555
C52_3 C50_3 1_555 1_555
H24_3 C52_3 1_555 1_555
C53_3 C14_6 1_555 1_555
S4_3 C45_3 1_555 1_555
O19_3 S4_3 1_555 1_555
O20_3 S4_3 1_555 1_555
Zr10 O17_2 1_555 1_555
C9_3 S1_3 1_555 1_555
C20_3 C21_3 1_555 1_555
C26_3 C27_3 1_555 1_555
C46_3 C47_3 1_555 1_555
C49_3 S4_3 1_555 1_555
C51_3 C53_3 1_555 1_555
C52_3 C53_3 1_555 1_555
O29 C15_4 1_555 1_555
O32 C15_4 1_555 1_555
C15_4 C16_4 1_555 1_555
C16_4 C17_4 1_555 1_555
C17_4 H7_4 1_555 1_555
C18_4 C16_4 1_555 1_555
H8_4 C18_4 1_555 1_555
C19_4 C17_4 1_555 1_555
C20_4 C18_4 1_555 1_555
H9_4 C20_4 1_555 1_555
C21_4 C19_4 1_555 1_555
C22_4 C21_4 1_555 1_555
C23_4 C22_4 1_555 1_555
C24_4 C22_4 1_555 1_555
H10_4 C24_4 1_555 1_555
C25_4 C23_4 1_555 1_555
H11_4 C25_4 1_555 1_555
C26_4 C24_4 1_555 1_555
H12_4 C26_4 1_555 1_555
C27_4 C14_7 1_555 1_555
S2_4 C19_4 1_555 1_555
O11_4 S2_4 1_555 1_555
O12_4 S2_4 1_555 1_555
O34_4 C28_4 1_555 1_555
C28_4 C29_4 1_555 1_555
C31_4 C29_4 1_555 1_555
H14_4 C31_4 1_555 1_555
C33_4 C31_4 1_555 1_555
H15_4 C33_4 1_555 1_555
C35_4 C34_4 1_555 1_555
C37_4 C35_4 1_555 1_555
H16_4 C37_4 1_555 1_555
C39_4 C37_4 1_555 1_555
H18_4 C39_4 1_555 1_555
C40_4 C14_7 1_555 1_555
C43_4 H19_4 1_555 1_555
C45_4 C43_4 1_555 1_555
C51_4 C49_4 1_555 1_555
H23_4 C51_4 1_555 1_555
S4_4 C45_4 1_555 1_555
O19_4 S4_4 1_555 1_555
O20_4 S4_4 1_555 1_555
C20_4 C21_4 1_555 1_555
C23_4 S2_4 1_555 1_555
C25_4 C27_4 1_555 1_555
C26_4 C27_4 1_555 1_555
C33_4 C34_4 1_555 1_555
C39_4 C40_4 1_555 1_555
C49_4 S4_4 1_555 1_555
Zr10 O1_4 1_555 1_555
O3_4 Zr10 1_555 1_555
O28 C1_4 1_555 1_555
C1_4 O32_2 1_555 1_555
C2_4 C1_4 1_555 1_555
C3_4 C2_4 1_555 1_555
H1_4 C3_4 1_555 1_555
C4_4 C2_4 1_555 1_555
H2_4 C4_4 1_555 1_555
C5_4 C3_4 1_555 1_555
C6_4 C4_4 1_555 1_555
H3_4 C6_4 1_555 1_555
C7_4 C5_4 1_555 1_555
C8_4 C7_4 1_555 1_555
C9_4 C8_4 1_555 1_555
C10_4 C8_4 1_555 1_555
H4_4 C10_4 1_555 1_555
C11_4 C9_4 1_555 1_555
H5_4 C11_4 1_555 1_555
C12_4 C10_4 1_555 1_555
H6_4 C12_4 1_555 1_555
C13_4 C11_4 1_555 1_555
C14_8 C13_4 1_555 1_555
S1_4 C5_4 1_555 1_555
O7_4 S1_4 1_555 1_555
O8_4 S1_4 1_555 1_555
C30_4 H13_4 1_555 1_555
C32_4 C30_4 1_555 1_555
C38_4 C36_4 1_555 1_555
H17_4 C38_4 1_555 1_555
S3_4 C32_4 1_555 1_555
O15_4 S3_4 1_555 1_555
O16_4 S3_4 1_555 1_555
O34_3 C41_4 1_555 1_555
C41_4 C42_4 1_555 1_555
C44_4 C42_4 1_555 1_555
H20_4 C44_4 1_555 1_555
C46_4 C44_4 1_555 1_555
H21_4 C46_4 1_555 1_555
C48_4 C47_4 1_555 1_555
C50_4 C48_4 1_555 1_555
H22_4 C50_4 1_555 1_555
C52_4 C50_4 1_555 1_555
H24_4 C52_4 1_555 1_555
C53_4 C14_8 1_555 1_555
O21_4 Zr12 1_555 1_555
O23_4 Zr12 1_555 1_555
C6_4 C7_4 1_555 1_555
C9_4 S1_4 1_555 1_555
C12_4 C13_4 1_555 1_555
C36_4 S3_4 1_555 1_555
C46_4 C47_4 1_555 1_555
C52_4 C53_4 1_555 1_555

#END
