
###############################################################################
#
# This file contains modified crystal structure data generated from the
# MOF subset of the Cambridge Structural Database (CSD) v543 
# hosted by the Cambridge Crystallographic Data Centre (CCDC).
#
# This work is licensed under the Creative Commons
# Attribution-NonCommercial-ShareAlike 4.0 International License.
# To view a copy of this license, visit
# http://creativecommons.org/licenses/by-nc-sa/4.0/
# or send a letter to
# Creative Commons, PO Box 1866, Mountain View, CA 94042, USA.
#
# CIF created using the CSD Python API on 29 September 2022
# The structure has been converted into the P1 space group
# The structure has a 3D framework
# The original CSD entry DUVQET is in the tetragonal crystal system
# The framework has been calculated to contain at least 10.0% void space
# The void calculation uses a probe of radius 1.32A, grid spacing 0.4
# H atom positions have been added when not included in the experimental data
# Generated hydrogen atom positions removed from atoms on special positions
#
###############################################################################

data_DUVQET
_chemical_formula_moiety         '(C216 H208 Hf14 O89 S16)n'
_symmetry_cell_setting           triclinic
_symmetry_space_group_name_H-M   'P 1'
_symmetry_Int_Tables_number      1
_space_group_name_Hall           'P 1'
loop_
_symmetry_equiv_pos_site_id
_symmetry_equiv_pos_as_xyz
1 x,y,z
_cell_length_a                   23.955(2)
_cell_length_b                   23.955(2)
_cell_length_c                   31.402(4)
_cell_angle_alpha                90
_cell_angle_beta                 90
_cell_angle_gamma                90
_cell_volume                     18019.8
loop_
_atom_site_label
_atom_site_type_symbol
_atom_site_fract_x
_atom_site_fract_y
_atom_site_fract_z
Hf5 Hf 0.07261(3) 0.07261(3) -0.000000
C14 C -0.000000 0.500000 0.750000
O9 O 0.3697(4) 0.4874(4) 0.5790(3)
O10 O 0.3535(3) 0.5667(3) 0.5425(3)
C15 C 0.3397(5) 0.5283(6) 0.5695(4)
C16 C 0.2859(5) 0.5332(5) 0.5910(4)
C17 C 0.2686(6) 0.4911(6) 0.6156(6)
H7 H 0.291329 0.458826 0.618595
C18 C 0.2520(6) 0.5803(5) 0.5881(5)
H8 H 0.263050 0.610539 0.570437
C19 C 0.2019(6) 0.5838(5) 0.6109(5)
H9 H 0.179702 0.616590 0.609075
C20 C 0.2179(6) 0.4939(5) 0.6367(5)
C21 C 0.1853(5) 0.5418(5) 0.6348(5)
C22 C 0.1349(4) 0.5361(5) 0.6620(4)
C23 C 0.1321(5) 0.4869(5) 0.6823(4)
C24 C 0.0944(6) 0.5746(5) 0.6688(5)
H10 H 0.095315 0.609711 0.654716
C25 C 0.0894(5) 0.4741(5) 0.7123(5)
H11 H 0.089011 0.438667 0.725893
C26 C 0.0517(6) 0.5615(6) 0.6965(5)
H12 H 0.021726 0.587203 0.699348
C27 C 0.0501(4) 0.5113(4) 0.7212(4)
S2 S 0.1856(3) 0.4415(2) 0.6663(3)
O11 O 0.2167(6) 0.4211(8) 0.6975(7)
O12 O 0.1654(9) 0.3958(6) 0.6379(8)
O13 O 0.0126(4) 0.8697(4) 0.9210(3)
C30 C 0.0089(6) 0.7686(6) 0.8844(6)
H13 H 0.041174 0.791329 0.881405
C33 C 0.0061(5) 0.7179(6) 0.8633(5)
C36 C 0.0131(5) 0.6321(5) 0.8177(4)
C38 C 0.0259(5) 0.5894(5) 0.7877(5)
H17 H 0.061333 0.589011 0.774107
S3 S 0.0585(2) 0.6856(3) 0.8337(3)
O15 O 0.0789(8) 0.7167(6) 0.8025(7)
O16 O 0.1042(6) 0.6654(9) 0.8621(8)
O18 O 0.0667(3) 0.1465(3) 0.9575(3)
C41 C 0.0283(6) 0.1603(5) 0.9305(4)
C42 C 0.0332(5) 0.2141(5) 0.9090(4)
C44 C 0.0803(5) 0.2480(6) 0.9119(5)
H20 H 0.110539 0.236950 0.929563
C45 C 0.0838(5) 0.2981(6) 0.8891(5)
H21 H 0.116590 0.320298 0.890925
C47 C 0.0418(5) 0.3147(5) 0.8652(5)
C48 C 0.0361(5) 0.3651(4) 0.8380(4)
C50 C 0.0746(5) 0.4056(6) 0.8312(5)
H22 H 0.109711 0.404685 0.845284
C52 C 0.0615(6) 0.4483(6) 0.8035(5)
H24 H 0.087203 0.478274 0.800652
C53 C 0.0113(4) 0.4499(4) 0.7788(4)
Hf4 Hf 0.42739(3) 0.57261(3) 0.500000
Hf5_2 Hf 0.07261(3) 0.07261(3) 1.000000
Hf9 Hf 0.05160(3) 0.94840(3) 0.94453(3)
Hf11 Hf 0.44840(3) 0.44840(3) 0.55547(3)
Hf6 Hf 0.92739(3) 0.92739(3) -0.000000
Hf1 Hf 0.57261(3) 0.42739(3) 0.500000
Hf2 Hf 0.55160(3) 0.55160(3) 0.44453(3)
O1 O 0.5360(4) 0.4640(4) 0.5544(5)
O2 O 0.5878(6) 0.5162(4) 0.500000
O3 O 0.6160(4) 0.6160(4) 0.4499(6)
O4 O 0.5467(6) 0.5467(6) 0.3761(5)
O5 O 0.6303(4) 0.5126(4) 0.5790(3)
O6 O 0.6465(3) 0.4333(3) 0.5425(3)
C1 C 0.6603(5) 0.4717(6) 0.5695(4)
C2 C 0.7141(5) 0.4668(5) 0.5910(4)
C3 C 0.7314(6) 0.5089(6) 0.6156(6)
H1 H 0.708671 0.541174 0.618595
C4 C 0.7480(6) 0.4197(5) 0.5881(5)
H2 H 0.736950 0.389461 0.570437
C5 C 0.7981(6) 0.4162(5) 0.6109(5)
H3 H 0.820298 0.383410 0.609075
C6 C 0.7821(6) 0.5061(5) 0.6367(5)
C7 C 0.8147(5) 0.4582(5) 0.6348(5)
C8 C 0.8651(4) 0.4639(5) 0.6620(4)
C9 C 0.8679(5) 0.5131(5) 0.6823(4)
C10 C 0.9056(6) 0.4254(5) 0.6688(5)
H4 H 0.904685 0.390289 0.654716
C11 C 0.9106(5) 0.5259(5) 0.7123(5)
H5 H 0.910989 0.561333 0.725893
C12 C 0.9483(6) 0.4385(6) 0.6965(5)
H6 H 0.978274 0.412797 0.699348
C13 C 0.9499(4) 0.4887(4) 0.7212(4)
C14_2 C 1.000000 0.500000 0.750000
S1 S 0.8144(3) 0.5585(2) 0.6663(3)
O7 O 0.7833(6) 0.5789(8) 0.6975(7)
O8 O 0.8346(9) 0.6042(6) 0.6379(8)
O14 O 0.9333(3) 0.8535(3) 0.9575(3)
C28 C 0.9717(6) 0.8397(5) 0.9305(4)
C29 C 0.9668(5) 0.7859(5) 0.9090(4)
C31 C 0.9197(5) 0.7520(6) 0.9119(5)
H14 H 0.889461 0.763050 0.929563
C32 C 0.9162(5) 0.7019(6) 0.8891(5)
H15 H 0.883410 0.679702 0.890925
C34 C 0.9582(5) 0.6853(5) 0.8652(5)
C35 C 0.9639(5) 0.6349(4) 0.8380(4)
C37 C 0.9254(5) 0.5944(6) 0.8312(5)
H16 H 0.890289 0.595315 0.845284
C39 C 0.9385(6) 0.5517(6) 0.8035(5)
H18 H 0.912797 0.521726 0.800652
C40 C 0.9887(4) 0.5501(4) 0.7788(4)
O17 O 0.9874(4) 0.1303(4) 0.9210(3)
C43 C 0.9911(6) 0.2314(6) 0.8844(6)
H19 H 0.958826 0.208671 0.881405
C46 C 0.9939(5) 0.2821(6) 0.8633(5)
C49 C 0.9869(5) 0.3679(5) 0.8177(4)
C51 C 0.9741(5) 0.4106(5) 0.7877(5)
H23 H 0.938667 0.410989 0.774107
S4 S 0.9415(2) 0.3144(3) 0.8337(3)
O19 O 0.9211(8) 0.2833(6) 0.8025(7)
O20 O 0.8958(6) 0.3346(9) 0.8621(8)
Hf3 Hf 0.55160(3) 0.55160(3) 0.55547(3)
O21 O 0.5360(4) 0.4640(4) 0.4456(5)
O22 O 0.6160(4) 0.6160(4) 0.5501(6)
O23 O 0.5467(6) 0.5467(6) 0.6239(5)
O24 O 0.4838(4) 0.4122(6) 0.500000
Hf6_2 Hf 0.92739(3) 0.92739(3) 1.000000
Hf7 Hf 0.44840(3) 0.44840(3) 0.44453(3)
Hf8 Hf 0.94840(3) 0.05160(3) 0.94453(3)
O25 O 0.4640(4) 0.5360(4) 0.5544(5)
O26 O 0.4640(4) 0.5360(4) 0.4456(5)
O27 O 0.5162(4) 0.5878(6) 0.500000
O28 O 0.5126(4) 0.6303(4) 0.4210(3)
O29 O 0.6303(4) 0.5126(4) 0.4210(3)
O30 O 0.5126(4) 0.6303(4) 0.5790(3)
O31 O 0.5667(3) 0.3535(3) 0.4575(3)
O32 O 0.6465(3) 0.4333(3) 0.4575(3)
O33 O 0.5667(3) 0.3535(3) 0.5425(3)
O2_2 O 0.4122(6) 0.4838(4) 0.500000
O3_2 O 0.3840(4) 0.3840(4) 0.4499(6)
O4_2 O 0.4533(6) 0.4533(6) 0.3761(5)
O22_2 O 0.3840(4) 0.3840(4) 0.5501(6)
O23_2 O 0.4533(6) 0.4533(6) 0.6239(5)
O28_2 O 0.4874(4) 0.3697(4) 0.4210(3)
O29_2 O 0.3697(4) 0.4874(4) 0.4210(3)
O30_2 O 0.4874(4) 0.3697(4) 0.5790(3)
O31_2 O 0.4333(3) 0.6465(3) 0.4575(3)
O32_2 O 0.3535(3) 0.5667(3) 0.4575(3)
O33_2 O 0.4333(3) 0.6465(3) 0.5425(3)
O1_2 O 0.0360(4) 0.0360(4) 0.0544(5)
O6_2 O 0.0667(3) 0.1465(3) 0.0425(3)
C1_2 C 0.0283(6) 0.1603(5) 0.0695(4)
C2_2 C 0.0332(5) 0.2141(5) 0.0910(4)
C4_2 C 0.0803(5) 0.2480(6) 0.0881(5)
H2_2 H 0.110539 0.236950 0.070437
C5_2 C 0.0838(5) 0.2981(6) 0.1109(5)
H3_2 H 0.116590 0.320298 0.109075
C7_2 C 0.0418(5) 0.3147(5) 0.1348(5)
C8_2 C 0.0361(5) 0.3651(4) 0.1620(4)
C10_2 C 0.0746(5) 0.4056(6) 0.1688(5)
H4_2 H 0.109711 0.404685 0.154716
C12_2 C 0.0615(6) 0.4483(6) 0.1965(5)
H6_2 H 0.087203 0.478274 0.199348
C13_2 C 0.0113(4) 0.4499(4) 0.2212(4)
C14_3 C 0.000000 0.500000 0.250000
O9_2 O 0.0126(4) 0.8697(4) 0.0790(3)
C17_2 C 0.0089(6) 0.7686(6) 0.1156(6)
H7_2 H 0.041174 0.791329 0.118595
C20_2 C 0.0061(5) 0.7179(6) 0.1367(5)
C23_2 C 0.0131(5) 0.6321(5) 0.1823(4)
C25_2 C 0.0259(5) 0.5894(5) 0.2123(5)
H11_2 H 0.061333 0.589011 0.225893
S2_2 S 0.0585(2) 0.6856(3) 0.1663(3)
O11_2 O 0.0789(8) 0.7167(6) 0.1975(7)
O12_2 O 0.1042(6) 0.6654(9) 0.1379(8)
C41_2 C 0.3397(5) 0.5283(6) 0.4305(4)
C42_2 C 0.2859(5) 0.5332(5) 0.4090(4)
C43_2 C 0.2686(6) 0.4911(6) 0.3844(6)
H19_2 H 0.291329 0.458826 0.381405
C44_2 C 0.2520(6) 0.5803(5) 0.4119(5)
H20_2 H 0.263050 0.610539 0.429563
C45_2 C 0.2019(6) 0.5838(5) 0.3891(5)
H21_2 H 0.179702 0.616590 0.390925
C46_2 C 0.2179(6) 0.4939(5) 0.3633(5)
C47_2 C 0.1853(5) 0.5418(5) 0.3652(5)
C48_2 C 0.1349(4) 0.5361(5) 0.3380(4)
C49_2 C 0.1321(5) 0.4869(5) 0.3177(4)
C50_2 C 0.0944(6) 0.5746(5) 0.3312(5)
H22_2 H 0.095315 0.609711 0.345284
C51_2 C 0.0894(5) 0.4741(5) 0.2877(5)
H23_2 H 0.089011 0.438667 0.274107
C52_2 C 0.0517(6) 0.5615(6) 0.3035(5)
H24_2 H 0.021726 0.587203 0.300652
C53_2 C 0.0501(4) 0.5113(4) 0.2788(4)
S4_2 S 0.1856(3) 0.4415(2) 0.3337(3)
O19_2 O 0.2167(6) 0.4211(8) 0.3025(7)
O20_2 O 0.1654(9) 0.3958(6) 0.3621(8)
Hf11_2 Hf 0.05160(3) 0.94840(3) 0.05547(3)
O33_3 O 0.1465(3) 0.0667(3) 0.0425(3)
O21_2 O 0.0360(4) 0.0360(4) 0.9456(5)
O31_3 O 0.1465(3) 0.0667(3) 0.9575(3)
O24_2 O 0.0878(6) 0.9838(4) -0.000000
O24_3 O 0.0878(6) 0.9838(4) 1.000000
O2_3 O 0.9838(4) 0.0878(6) -0.000000
O5_2 O 0.9874(4) 0.1303(4) 0.0790(3)
C3_2 C 0.9911(6) 0.2314(6) 0.1156(6)
H1_2 H 0.958826 0.208671 0.118595
C6_2 C 0.9939(5) 0.2821(6) 0.1367(5)
C9_2 C 0.9869(5) 0.3679(5) 0.1823(4)
C11_2 C 0.9741(5) 0.4106(5) 0.2123(5)
H5_2 H 0.938667 0.410989 0.225893
C14_4 C 1.000000 0.500000 0.250000
S1_2 S 0.9415(2) 0.3144(3) 0.1663(3)
O7_2 O 0.9211(8) 0.2833(6) 0.1975(7)
O8_2 O 0.8958(6) 0.3346(9) 0.1379(8)
O10_2 O 0.9333(3) 0.8535(3) 0.0425(3)
C15_2 C 0.9717(6) 0.8397(5) 0.0695(4)
C16_2 C 0.9668(5) 0.7859(5) 0.0910(4)
C18_2 C 0.9197(5) 0.7520(6) 0.0881(5)
H8_2 H 0.889461 0.763050 0.070437
C19_2 C 0.9162(5) 0.7019(6) 0.1109(5)
H9_2 H 0.883410 0.679702 0.109075
C21_2 C 0.9582(5) 0.6853(5) 0.1348(5)
C22_2 C 0.9639(5) 0.6349(4) 0.1620(4)
C24_2 C 0.9254(5) 0.5944(6) 0.1688(5)
H10_2 H 0.890289 0.595315 0.154716
C26_2 C 0.9385(6) 0.5517(6) 0.1965(5)
H12_2 H 0.912797 0.521726 0.199348
C27_2 C 0.9887(4) 0.5501(4) 0.2212(4)
C28_2 C 0.6603(5) 0.4717(6) 0.4305(4)
C29_2 C 0.7141(5) 0.4668(5) 0.4090(4)
C30_2 C 0.7314(6) 0.5089(6) 0.3844(6)
H13_2 H 0.708671 0.541174 0.381405
C31_2 C 0.7480(6) 0.4197(5) 0.4119(5)
H14_2 H 0.736950 0.389461 0.429563
C32_2 C 0.7981(6) 0.4162(5) 0.3891(5)
H15_2 H 0.820298 0.383410 0.390925
C33_2 C 0.7821(6) 0.5061(5) 0.3633(5)
C34_2 C 0.8147(5) 0.4582(5) 0.3652(5)
C35_2 C 0.8651(4) 0.4639(5) 0.3380(4)
C36_2 C 0.8679(5) 0.5131(5) 0.3177(4)
C37_2 C 0.9056(6) 0.4254(5) 0.3312(5)
H16_2 H 0.904685 0.390289 0.345284
C38_2 C 0.9106(5) 0.5259(5) 0.2877(5)
H17_2 H 0.910989 0.561333 0.274107
C39_2 C 0.9483(6) 0.4385(6) 0.3035(5)
H18_2 H 0.978274 0.412797 0.300652
C40_2 C 0.9499(4) 0.4887(4) 0.2788(4)
S3_2 S 0.8144(3) 0.5585(2) 0.3337(3)
O15_2 O 0.7833(6) 0.5789(8) 0.3025(7)
O16_2 O 0.8346(9) 0.6042(6) 0.3621(8)
Hf3_2 Hf 0.94840(3) 0.05160(3) 0.05547(3)
O22_3 O 0.8840(4) 0.1160(4) 0.0501(6)
O23_3 O 0.9533(6) 0.0467(6) 0.1239(5)
O27_2 O 0.9122(6) 0.0162(4) -0.000000
O30_3 O 0.8697(4) 0.0126(4) 0.0790(3)
O2_4 O 0.9838(4) 0.0878(6) 1.000000
O3_3 O 0.8840(4) 0.1160(4) 0.9499(6)
O4_3 O 0.9533(6) 0.0467(6) 0.8761(5)
O27_3 O 0.9122(6) 0.0162(4) 1.000000
O28_3 O 0.8697(4) 0.0126(4) 0.9210(3)
O25_2 O 0.9640(4) 0.9640(4) 0.0544(5)
O26_2 O 0.9640(4) 0.9640(4) 0.9456(5)
O2_5 O 0.0162(4) 0.9122(6) -0.000000
O22_4 O 0.1160(4) 0.8840(4) 0.0501(6)
O23_4 O 0.0467(6) 0.9533(6) 0.1239(5)
O30_4 O 0.1303(4) 0.9874(4) 0.0790(3)
O2_6 O 0.0162(4) 0.9122(6) 1.000000
O3_4 O 0.1160(4) 0.8840(4) 0.9499(6)
O4_4 O 0.0467(6) 0.9533(6) 0.8761(5)
O28_4 O 0.1303(4) 0.9874(4) 0.9210(3)
O33_4 O 0.8535(3) 0.9333(3) 0.0425(3)
O31_4 O 0.8535(3) 0.9333(3) 0.9575(3)
C3_3 C 0.7686(6) 0.0089(6) 0.8844(6)
H1_3 H 0.791329 0.041174 0.881405
C6_3 C 0.7179(6) 0.0061(5) 0.8633(5)
C9_3 C 0.6321(5) 0.0131(5) 0.8177(4)
C11_3 C 0.5894(5) 0.0259(5) 0.7877(5)
H5_3 H 0.589011 0.061333 0.774107
C14_5 C 0.500000 -0.000000 0.750000
S1_3 S 0.6856(3) 0.0585(2) 0.8337(3)
O7_3 O 0.7167(6) 0.0789(8) 0.8025(7)
O8_3 O 0.6654(9) 0.1042(6) 0.8621(8)
C15_3 C 0.1603(5) 0.0283(6) 0.9305(4)
C16_3 C 0.2141(5) 0.0332(5) 0.9090(4)
C18_3 C 0.2480(6) 0.0803(5) 0.9119(5)
H8_3 H 0.236950 0.110539 0.929563
C19_3 C 0.2981(6) 0.0838(5) 0.8891(5)
H9_3 H 0.320298 0.116590 0.890925
C21_3 C 0.3147(5) 0.0418(5) 0.8652(5)
C22_3 C 0.3651(4) 0.0361(5) 0.8380(4)
C24_3 C 0.4056(6) 0.0746(5) 0.8312(5)
H10_3 H 0.404685 0.109711 0.845284
C26_3 C 0.4483(6) 0.0615(6) 0.8035(5)
H12_3 H 0.478274 0.087203 0.800652
C27_3 C 0.4499(4) 0.0113(4) 0.7788(4)
C28_3 C 0.5283(6) 0.3397(5) 0.5695(4)
C29_3 C 0.5332(5) 0.2859(5) 0.5910(4)
C30_3 C 0.4911(6) 0.2686(6) 0.6156(6)
H13_3 H 0.458826 0.291329 0.618595
C31_3 C 0.5803(5) 0.2520(6) 0.5881(5)
H14_3 H 0.610539 0.263050 0.570437
C32_3 C 0.5838(5) 0.2019(6) 0.6109(5)
H15_3 H 0.616590 0.179702 0.609075
C33_3 C 0.4939(5) 0.2179(6) 0.6367(5)
C34_3 C 0.5418(5) 0.1853(5) 0.6348(5)
C35_3 C 0.5361(5) 0.1349(4) 0.6620(4)
C36_3 C 0.4869(5) 0.1321(5) 0.6823(4)
C37_3 C 0.5746(5) 0.0944(6) 0.6688(5)
H16_3 H 0.609711 0.095315 0.654716
C38_3 C 0.4741(5) 0.0894(5) 0.7123(5)
H17_3 H 0.438667 0.089011 0.725893
C39_3 C 0.5615(6) 0.0517(6) 0.6965(5)
H18_3 H 0.587203 0.021726 0.699348
C40_3 C 0.5113(4) 0.0501(4) 0.7212(4)
S3_3 S 0.4415(2) 0.1856(3) 0.6663(3)
O15_3 O 0.4211(8) 0.2167(6) 0.6975(7)
O16_3 O 0.3958(6) 0.1654(9) 0.6379(8)
C1_3 C 0.8397(5) 0.9717(6) 0.9305(4)
C2_3 C 0.7859(5) 0.9668(5) 0.9090(4)
C4_3 C 0.7520(6) 0.9197(5) 0.9119(5)
H2_3 H 0.763050 0.889461 0.929563
C5_3 C 0.7019(6) 0.9162(5) 0.8891(5)
H3_3 H 0.679702 0.883410 0.890925
C7_3 C 0.6853(5) 0.9582(5) 0.8652(5)
C8_3 C 0.6349(4) 0.9639(5) 0.8380(4)
C10_3 C 0.5944(6) 0.9254(5) 0.8312(5)
H4_3 H 0.595315 0.890289 0.845284
C12_3 C 0.5517(6) 0.9385(6) 0.8035(5)
H6_3 H 0.521726 0.912797 0.800652
C13_3 C 0.5501(4) 0.9887(4) 0.7788(4)
C14_6 C 0.500000 1.000000 0.750000
C17_3 C 0.2314(6) 0.9911(6) 0.8844(6)
H7_3 H 0.208671 0.958826 0.881405
C20_3 C 0.2821(6) 0.9939(5) 0.8633(5)
C23_3 C 0.3679(5) 0.9869(5) 0.8177(4)
C25_3 C 0.4106(5) 0.9741(5) 0.7877(5)
H11_3 H 0.410989 0.938667 0.774107
S2_3 S 0.3144(3) 0.9415(2) 0.8337(3)
O11_3 O 0.2833(6) 0.9211(8) 0.8025(7)
O12_3 O 0.3346(9) 0.8958(6) 0.8621(8)
C41_3 C 0.4717(6) 0.6603(5) 0.5695(4)
C42_3 C 0.4668(5) 0.7141(5) 0.5910(4)
C43_3 C 0.5089(6) 0.7314(6) 0.6156(6)
H19_3 H 0.541174 0.708671 0.618595
C44_3 C 0.4197(5) 0.7480(6) 0.5881(5)
H20_3 H 0.389461 0.736950 0.570437
C45_3 C 0.4162(5) 0.7981(6) 0.6109(5)
H21_3 H 0.383410 0.820298 0.609075
C46_3 C 0.5061(5) 0.7821(6) 0.6367(5)
C47_3 C 0.4582(5) 0.8147(5) 0.6348(5)
C48_3 C 0.4639(5) 0.8651(4) 0.6620(4)
C49_3 C 0.5131(5) 0.8679(5) 0.6823(4)
C50_3 C 0.4254(5) 0.9056(6) 0.6688(5)
H22_3 H 0.390289 0.904685 0.654716
C51_3 C 0.5259(5) 0.9106(5) 0.7123(5)
H23_3 H 0.561333 0.910989 0.725893
C52_3 C 0.4385(6) 0.9483(6) 0.6965(5)
H24_3 H 0.412797 0.978274 0.699348
C53_3 C 0.4887(4) 0.9499(4) 0.7212(4)
S4_3 S 0.5585(2) 0.8144(3) 0.6663(3)
O19_3 O 0.5789(8) 0.7833(6) 0.6975(7)
O20_3 O 0.6042(6) 0.8346(9) 0.6379(8)
C14_7 C 0.500000 -0.000000 0.250000
C15_4 C 0.5283(6) 0.3397(5) 0.4305(4)
C16_4 C 0.5332(5) 0.2859(5) 0.4090(4)
C17_4 C 0.4911(6) 0.2686(6) 0.3844(6)
H7_4 H 0.458826 0.291329 0.381405
C18_4 C 0.5803(5) 0.2520(6) 0.4119(5)
H8_4 H 0.610539 0.263050 0.429563
C19_4 C 0.5838(5) 0.2019(6) 0.3891(5)
H9_4 H 0.616590 0.179702 0.390925
C20_4 C 0.4939(5) 0.2179(6) 0.3633(5)
C21_4 C 0.5418(5) 0.1853(5) 0.3652(5)
C22_4 C 0.5361(5) 0.1349(4) 0.3380(4)
C23_4 C 0.4869(5) 0.1321(5) 0.3177(4)
C24_4 C 0.5746(5) 0.0944(6) 0.3312(5)
H10_4 H 0.609711 0.095315 0.345284
C25_4 C 0.4741(5) 0.0894(5) 0.2877(5)
H11_4 H 0.438667 0.089011 0.274107
C26_4 C 0.5615(6) 0.0517(6) 0.3035(5)
H12_4 H 0.587203 0.021726 0.300652
C27_4 C 0.5113(4) 0.0501(4) 0.2788(4)
S2_4 S 0.4415(2) 0.1856(3) 0.3337(3)
O11_4 O 0.4211(8) 0.2167(6) 0.3025(7)
O12_4 O 0.3958(6) 0.1654(9) 0.3621(8)
C30_4 C 0.7686(6) 0.0089(6) 0.1156(6)
H13_4 H 0.791329 0.041174 0.118595
C33_4 C 0.7179(6) 0.0061(5) 0.1367(5)
C36_4 C 0.6321(5) 0.0131(5) 0.1823(4)
C38_4 C 0.5894(5) 0.0259(5) 0.2123(5)
H17_4 H 0.589011 0.061333 0.225893
S3_4 S 0.6856(3) 0.0585(2) 0.1663(3)
O15_4 O 0.7167(6) 0.0789(8) 0.1975(7)
O16_4 O 0.6654(9) 0.1042(6) 0.1379(8)
C41_4 C 0.1603(5) 0.0283(6) 0.0695(4)
C42_4 C 0.2141(5) 0.0332(5) 0.0910(4)
C44_4 C 0.2480(6) 0.0803(5) 0.0881(5)
H20_4 H 0.236950 0.110539 0.070437
C45_4 C 0.2981(6) 0.0838(5) 0.1109(5)
H21_4 H 0.320298 0.116590 0.109075
C47_4 C 0.3147(5) 0.0418(5) 0.1348(5)
C48_4 C 0.3651(4) 0.0361(5) 0.1620(4)
C50_4 C 0.4056(6) 0.0746(5) 0.1688(5)
H22_4 H 0.404685 0.109711 0.154716
C52_4 C 0.4483(6) 0.0615(6) 0.1965(5)
H24_4 H 0.478274 0.087203 0.199348
C53_4 C 0.4499(4) 0.0113(4) 0.2212(4)
C1_4 C 0.4717(6) 0.6603(5) 0.4305(4)
C2_4 C 0.4668(5) 0.7141(5) 0.4090(4)
C3_4 C 0.5089(6) 0.7314(6) 0.3844(6)
H1_4 H 0.541174 0.708671 0.381405
C4_4 C 0.4197(5) 0.7480(6) 0.4119(5)
H2_4 H 0.389461 0.736950 0.429563
C5_4 C 0.4162(5) 0.7981(6) 0.3891(5)
H3_4 H 0.383410 0.820298 0.390925
C6_4 C 0.5061(5) 0.7821(6) 0.3633(5)
C7_4 C 0.4582(5) 0.8147(5) 0.3652(5)
C8_4 C 0.4639(5) 0.8651(4) 0.3380(4)
C9_4 C 0.5131(5) 0.8679(5) 0.3177(4)
C10_4 C 0.4254(5) 0.9056(6) 0.3312(5)
H4_4 H 0.390289 0.904685 0.345284
C11_4 C 0.5259(5) 0.9106(5) 0.2877(5)
H5_4 H 0.561333 0.910989 0.274107
C12_4 C 0.4385(6) 0.9483(6) 0.3035(5)
H6_4 H 0.412797 0.978274 0.300652
C13_4 C 0.4887(4) 0.9499(4) 0.2788(4)
C14_8 C 0.500000 1.000000 0.250000
S1_4 S 0.5585(2) 0.8144(3) 0.3337(3)
O7_4 O 0.5789(8) 0.7833(6) 0.3025(7)
O8_4 O 0.6042(6) 0.8346(9) 0.3621(8)
C28_4 C 0.8397(5) 0.9717(6) 0.0695(4)
C29_4 C 0.7859(5) 0.9668(5) 0.0910(4)
C31_4 C 0.7520(6) 0.9197(5) 0.0881(5)
H14_4 H 0.763050 0.889461 0.070437
C32_4 C 0.7019(6) 0.9162(5) 0.1109(5)
H15_4 H 0.679702 0.883410 0.109075
C34_4 C 0.6853(5) 0.9582(5) 0.1348(5)
C35_4 C 0.6349(4) 0.9639(5) 0.1620(4)
C37_4 C 0.5944(6) 0.9254(5) 0.1688(5)
H16_4 H 0.595315 0.890289 0.154716
C39_4 C 0.5517(6) 0.9385(6) 0.1965(5)
H18_4 H 0.521726 0.912797 0.199348
C40_4 C 0.5501(4) 0.9887(4) 0.2212(4)
C43_4 C 0.2314(6) 0.9911(6) 0.1156(6)
H19_4 H 0.208671 0.958826 0.118595
C46_4 C 0.2821(6) 0.9939(5) 0.1367(5)
C49_4 C 0.3679(5) 0.9869(5) 0.1823(4)
C51_4 C 0.4106(5) 0.9741(5) 0.2123(5)
H23_4 H 0.410989 0.938667 0.225893
S4_4 S 0.3144(3) 0.9415(2) 0.1663(3)
O19_4 O 0.2833(6) 0.9211(8) 0.1975(7)
O20_4 O 0.3346(9) 0.8958(6) 0.1379(8)
loop_
_geom_bond_atom_site_label_1
_geom_bond_atom_site_label_2
_geom_bond_site_symmetry_1
_geom_bond_site_symmetry_2
O9 C15 1_555 1_555
O10 C15 1_555 1_555
C15 C16 1_555 1_555
C16 C17 1_555 1_555
C17 H7 1_555 1_555
C18 C16 1_555 1_555
H8 C18 1_555 1_555
C19 C18 1_555 1_555
H9 C19 1_555 1_555
C20 C17 1_555 1_555
C21 C19 1_555 1_555
C22 C21 1_555 1_555
C23 C22 1_555 1_555
C24 C22 1_555 1_555
H10 C24 1_555 1_555
C25 C23 1_555 1_555
H11 C25 1_555 1_555
C26 C24 1_555 1_555
H12 C26 1_555 1_555
C27 C14 1_555 1_555
S2 C20 1_555 1_555
O11 S2 1_555 1_555
O12 S2 1_555 1_555
C30 H13 1_555 1_555
C33 C30 1_555 1_555
C38 C36 1_555 1_555
H17 C38 1_555 1_555
S3 C33 1_555 1_555
O15 S3 1_555 1_555
O16 S3 1_555 1_555
O18 C41 1_555 1_555
C41 C42 1_555 1_555
C44 C42 1_555 1_555
H20 C44 1_555 1_555
C45 C44 1_555 1_555
H21 C45 1_555 1_555
C47 C45 1_555 1_555
C48 C47 1_555 1_555
C50 C48 1_555 1_555
H22 C50 1_555 1_555
C52 C50 1_555 1_555
H24 C52 1_555 1_555
C53 C14 1_555 1_555
Hf4 O10 1_555 1_555
Hf5_2 O18 1_555 1_555
Hf9 O13 1_555 1_555
Hf11 O9 1_555 1_555
C20 C21 1_555 1_555
C23 S2 1_555 1_555
C25 C27 1_555 1_555
C26 C27 1_555 1_555
C36 S3 1_555 1_555
C52 C53 1_555 1_555
Hf1 O1 1_555 1_555
Hf2 O2 1_555 1_555
O1 Hf3 1_555 1_555
O2 Hf1 1_555 1_555
O3 Hf2 1_555 1_555
O4 Hf2 1_555 1_555
O5 C1 1_555 1_555
O6 Hf1 1_555 1_555
C1 O6 1_555 1_555
C2 C1 1_555 1_555
C3 C2 1_555 1_555
H1 C3 1_555 1_555
C4 C2 1_555 1_555
H2 C4 1_555 1_555
C5 C4 1_555 1_555
H3 C5 1_555 1_555
C6 C3 1_555 1_555
C7 C5 1_555 1_555
C8 C7 1_555 1_555
C9 C8 1_555 1_555
C10 C8 1_555 1_555
H4 C10 1_555 1_555
C11 C9 1_555 1_555
H5 C11 1_555 1_555
C12 C10 1_555 1_555
H6 C12 1_555 1_555
C13 C11 1_555 1_555
C14_2 C13 1_555 1_555
S1 C6 1_555 1_555
O7 S1 1_555 1_555
O8 S1 1_555 1_555
O14 C28 1_555 1_555
C28 C29 1_555 1_555
C31 C29 1_555 1_555
H14 C31 1_555 1_555
C32 C31 1_555 1_555
H15 C32 1_555 1_555
C34 C32 1_555 1_555
C35 C34 1_555 1_555
C37 C35 1_555 1_555
H16 C37 1_555 1_555
C39 C37 1_555 1_555
H18 C39 1_555 1_555
C40 C14_2 1_555 1_555
C43 H19 1_555 1_555
C46 C43 1_555 1_555
C51 C49 1_555 1_555
H23 C51 1_555 1_555
S4 C46 1_555 1_555
O19 S4 1_555 1_555
O20 S4 1_555 1_555
Hf3 O2 1_555 1_555
O21 Hf1 1_555 1_555
O22 Hf3 1_555 1_555
O23 Hf3 1_555 1_555
O24 Hf1 1_555 1_555
Hf6_2 O14 1_555 1_555
Hf7 O21 1_555 1_555
Hf8 O17 1_555 1_555
Hf11 O1 1_555 1_555
O25 Hf3 1_555 1_555
O26 Hf2 1_555 1_555
O27 Hf2 1_555 1_555
O28 Hf2 1_555 1_555
O29 Hf2 1_555 1_555
O30 Hf3 1_555 1_555
O31 Hf1 1_555 1_555
O32 Hf1 1_555 1_555
O33 Hf1 1_555 1_555
Hf2 O21 1_555 1_555
O5 Hf3 1_555 1_555
C6 C7 1_555 1_555
C9 S1 1_555 1_555
C12 C13 1_555 1_555
C39 C40 1_555 1_555
C49 S4 1_555 1_555
Hf3 O27 1_555 1_555
O24 Hf7 1_555 1_555
O24 Hf11 1_555 1_555
Hf7 O26 1_555 1_555
Hf11 O25 1_555 1_555
Hf4 O25 1_555 1_555
Hf7 O2_2 1_555 1_555
O2_2 Hf4 1_555 1_555
O3_2 Hf7 1_555 1_555
O4_2 Hf7 1_555 1_555
Hf11 O2_2 1_555 1_555
O26 Hf4 1_555 1_555
O22_2 Hf11 1_555 1_555
O23_2 Hf11 1_555 1_555
O27 Hf4 1_555 1_555
O28_2 Hf7 1_555 1_555
O29_2 Hf7 1_555 1_555
O30_2 Hf11 1_555 1_555
O31_2 Hf4 1_555 1_555
O32_2 Hf4 1_555 1_555
O33_2 Hf4 1_555 1_555
Hf5 O1_2 1_555 1_555
O6_2 Hf5 1_555 1_555
C1_2 O6_2 1_555 1_555
C2_2 C1_2 1_555 1_555
C4_2 C2_2 1_555 1_555
H2_2 C4_2 1_555 1_555
C5_2 C4_2 1_555 1_555
H3_2 C5_2 1_555 1_555
C7_2 C5_2 1_555 1_555
C8_2 C7_2 1_555 1_555
C10_2 C8_2 1_555 1_555
H4_2 C10_2 1_555 1_555
C12_2 C10_2 1_555 1_555
H6_2 C12_2 1_555 1_555
C14_3 C13_2 1_555 1_555
C17_2 H7_2 1_555 1_555
C20_2 C17_2 1_555 1_555
C25_2 C23_2 1_555 1_555
H11_2 C25_2 1_555 1_555
S2_2 C20_2 1_555 1_555
O11_2 S2_2 1_555 1_555
O12_2 S2_2 1_555 1_555
O29_2 C41_2 1_555 1_555
O32_2 C41_2 1_555 1_555
C41_2 C42_2 1_555 1_555
C42_2 C43_2 1_555 1_555
C43_2 H19_2 1_555 1_555
C44_2 C42_2 1_555 1_555
H20_2 C44_2 1_555 1_555
C45_2 C44_2 1_555 1_555
H21_2 C45_2 1_555 1_555
C46_2 C43_2 1_555 1_555
C47_2 C45_2 1_555 1_555
C48_2 C47_2 1_555 1_555
C49_2 C48_2 1_555 1_555
C50_2 C48_2 1_555 1_555
H22_2 C50_2 1_555 1_555
C51_2 C49_2 1_555 1_555
H23_2 C51_2 1_555 1_555
C52_2 C50_2 1_555 1_555
H24_2 C52_2 1_555 1_555
C53_2 C14_3 1_555 1_555
S4_2 C46_2 1_555 1_555
O19_2 S4_2 1_555 1_555
O20_2 S4_2 1_555 1_555
Hf11_2 O9_2 1_555 1_555
O33_3 Hf5 1_555 1_555
C12_2 C13_2 1_555 1_555
C23_2 S2_2 1_555 1_555
C46_2 C47_2 1_555 1_555
C49_2 S4_2 1_555 1_555
C51_2 C53_2 1_555 1_555
C52_2 C53_2 1_555 1_555
O21_2 Hf5_2 1_555 1_555
O31_3 Hf5_2 1_555 1_555
O24_2 Hf11_2 1_555 1_555
O24_3 Hf9 1_555 1_555
H1_2 C3_2 1_555 1_555
C6_2 C3_2 1_555 1_555
C11_2 C9_2 1_555 1_555
H5_2 C11_2 1_555 1_555
S1_2 C6_2 1_555 1_555
O7_2 S1_2 1_555 1_555
O8_2 S1_2 1_555 1_555
O10_2 C15_2 1_555 1_555
C15_2 C16_2 1_555 1_555
C18_2 C16_2 1_555 1_555
H8_2 C18_2 1_555 1_555
C19_2 C18_2 1_555 1_555
H9_2 C19_2 1_555 1_555
C21_2 C19_2 1_555 1_555
C22_2 C21_2 1_555 1_555
C24_2 C22_2 1_555 1_555
H10_2 C24_2 1_555 1_555
C26_2 C24_2 1_555 1_555
H12_2 C26_2 1_555 1_555
C27_2 C14_4 1_555 1_555
O29 C28_2 1_555 1_555
O32 C28_2 1_555 1_555
C28_2 C29_2 1_555 1_555
C29_2 C30_2 1_555 1_555
C30_2 H13_2 1_555 1_555
C31_2 C29_2 1_555 1_555
H14_2 C31_2 1_555 1_555
C32_2 C31_2 1_555 1_555
H15_2 C32_2 1_555 1_555
C33_2 C30_2 1_555 1_555
C34_2 C32_2 1_555 1_555
C35_2 C34_2 1_555 1_555
C36_2 C35_2 1_555 1_555
C37_2 C35_2 1_555 1_555
H16_2 C37_2 1_555 1_555
C38_2 C36_2 1_555 1_555
H17_2 C38_2 1_555 1_555
C39_2 C37_2 1_555 1_555
H18_2 C39_2 1_555 1_555
C40_2 C14_4 1_555 1_555
S3_2 C33_2 1_555 1_555
O15_2 S3_2 1_555 1_555
O16_2 S3_2 1_555 1_555
Hf3_2 O2_3 1_555 1_555
O22_3 Hf3_2 1_555 1_555
O23_3 Hf3_2 1_555 1_555
Hf6 O10_2 1_555 1_555
O30_3 Hf3_2 1_555 1_555
O5_2 Hf3_2 1_555 1_555
C9_2 S1_2 1_555 1_555
C26_2 C27_2 1_555 1_555
C33_2 C34_2 1_555 1_555
C36_2 S3_2 1_555 1_555
C38_2 C40_2 1_555 1_555
C39_2 C40_2 1_555 1_555
Hf3_2 O27_2 1_555 1_555
Hf8 O2_4 1_555 1_555
O3_3 Hf8 1_555 1_555
O4_3 Hf8 1_555 1_555
O27_3 Hf8 1_555 1_555
O28_3 Hf8 1_555 1_555
Hf11_2 O2_5 1_555 1_555
O22_4 Hf11_2 1_555 1_555
O23_4 Hf11_2 1_555 1_555
O30_4 Hf11_2 1_555 1_555
Hf9 O2_6 1_555 1_555
O3_4 Hf9 1_555 1_555
O4_4 Hf9 1_555 1_555
O28_4 Hf9 1_555 1_555
Hf6 O25_2 1_555 1_555
O33_4 Hf6 1_555 1_555
O26_2 Hf6_2 1_555 1_555
O31_4 Hf6_2 1_555 1_555
H1_3 C3_3 1_555 1_555
C6_3 C3_3 1_555 1_555
C11_3 C9_3 1_555 1_555
H5_3 C11_3 1_555 1_555
S1_3 C6_3 1_555 1_555
O7_3 S1_3 1_555 1_555
O8_3 S1_3 1_555 1_555
O31_3 C15_3 1_555 1_555
C15_3 C16_3 1_555 1_555
C18_3 C16_3 1_555 1_555
H8_3 C18_3 1_555 1_555
C19_3 C18_3 1_555 1_555
H9_3 C19_3 1_555 1_555
C21_3 C19_3 1_555 1_555
C22_3 C21_3 1_555 1_555
C24_3 C22_3 1_555 1_555
H10_3 C24_3 1_555 1_555
C26_3 C24_3 1_555 1_555
H12_3 C26_3 1_555 1_555
C27_3 C14_5 1_555 1_555
O30_2 C28_3 1_555 1_555
O33 C28_3 1_555 1_555
C28_3 C29_3 1_555 1_555
C29_3 C30_3 1_555 1_555
C30_3 H13_3 1_555 1_555
C31_3 C29_3 1_555 1_555
H14_3 C31_3 1_555 1_555
C32_3 C31_3 1_555 1_555
H15_3 C32_3 1_555 1_555
C33_3 C30_3 1_555 1_555
C34_3 C32_3 1_555 1_555
C35_3 C34_3 1_555 1_555
C36_3 C35_3 1_555 1_555
C37_3 C35_3 1_555 1_555
H16_3 C37_3 1_555 1_555
C38_3 C36_3 1_555 1_555
H17_3 C38_3 1_555 1_555
C39_3 C37_3 1_555 1_555
H18_3 C39_3 1_555 1_555
C40_3 C14_5 1_555 1_555
S3_3 C33_3 1_555 1_555
O15_3 S3_3 1_555 1_555
O16_3 S3_3 1_555 1_555
C9_3 S1_3 1_555 1_555
C26_3 C27_3 1_555 1_555
C33_3 C34_3 1_555 1_555
C36_3 S3_3 1_555 1_555
C38_3 C40_3 1_555 1_555
C39_3 C40_3 1_555 1_555
C1_3 O31_4 1_555 1_555
C2_3 C1_3 1_555 1_555
C4_3 C2_3 1_555 1_555
H2_3 C4_3 1_555 1_555
C5_3 C4_3 1_555 1_555
H3_3 C5_3 1_555 1_555
C7_3 C5_3 1_555 1_555
C8_3 C7_3 1_555 1_555
C10_3 C8_3 1_555 1_555
H4_3 C10_3 1_555 1_555
C12_3 C10_3 1_555 1_555
H6_3 C12_3 1_555 1_555
C14_6 C13_3 1_555 1_555
C17_3 H7_3 1_555 1_555
C20_3 C17_3 1_555 1_555
C25_3 C23_3 1_555 1_555
H11_3 C25_3 1_555 1_555
S2_3 C20_3 1_555 1_555
O11_3 S2_3 1_555 1_555
O12_3 S2_3 1_555 1_555
O30 C41_3 1_555 1_555
O33_2 C41_3 1_555 1_555
C41_3 C42_3 1_555 1_555
C42_3 C43_3 1_555 1_555
C43_3 H19_3 1_555 1_555
C44_3 C42_3 1_555 1_555
H20_3 C44_3 1_555 1_555
C45_3 C44_3 1_555 1_555
H21_3 C45_3 1_555 1_555
C46_3 C43_3 1_555 1_555
C47_3 C45_3 1_555 1_555
C48_3 C47_3 1_555 1_555
C49_3 C48_3 1_555 1_555
C50_3 C48_3 1_555 1_555
H22_3 C50_3 1_555 1_555
C51_3 C49_3 1_555 1_555
H23_3 C51_3 1_555 1_555
C52_3 C50_3 1_555 1_555
H24_3 C52_3 1_555 1_555
C53_3 C14_6 1_555 1_555
S4_3 C46_3 1_555 1_555
O19_3 S4_3 1_555 1_555
O20_3 S4_3 1_555 1_555
C12_3 C13_3 1_555 1_555
C23_3 S2_3 1_555 1_555
C46_3 C47_3 1_555 1_555
C49_3 S4_3 1_555 1_555
C51_3 C53_3 1_555 1_555
C52_3 C53_3 1_555 1_555
O28_2 C15_4 1_555 1_555
O31 C15_4 1_555 1_555
C15_4 C16_4 1_555 1_555
C16_4 C17_4 1_555 1_555
C17_4 H7_4 1_555 1_555
C18_4 C16_4 1_555 1_555
H8_4 C18_4 1_555 1_555
C19_4 C18_4 1_555 1_555
H9_4 C19_4 1_555 1_555
C20_4 C17_4 1_555 1_555
C21_4 C19_4 1_555 1_555
C22_4 C21_4 1_555 1_555
C23_4 C22_4 1_555 1_555
C24_4 C22_4 1_555 1_555
H10_4 C24_4 1_555 1_555
C25_4 C23_4 1_555 1_555
H11_4 C25_4 1_555 1_555
C26_4 C24_4 1_555 1_555
H12_4 C26_4 1_555 1_555
C27_4 C14_7 1_555 1_555
S2_4 C20_4 1_555 1_555
O11_4 S2_4 1_555 1_555
O12_4 S2_4 1_555 1_555
C30_4 H13_4 1_555 1_555
C33_4 C30_4 1_555 1_555
C38_4 C36_4 1_555 1_555
H17_4 C38_4 1_555 1_555
S3_4 C33_4 1_555 1_555
O15_4 S3_4 1_555 1_555
O16_4 S3_4 1_555 1_555
O33_3 C41_4 1_555 1_555
C41_4 C42_4 1_555 1_555
C44_4 C42_4 1_555 1_555
H20_4 C44_4 1_555 1_555
C45_4 C44_4 1_555 1_555
H21_4 C45_4 1_555 1_555
C47_4 C45_4 1_555 1_555
C48_4 C47_4 1_555 1_555
C50_4 C48_4 1_555 1_555
H22_4 C50_4 1_555 1_555
C52_4 C50_4 1_555 1_555
H24_4 C52_4 1_555 1_555
C53_4 C14_7 1_555 1_555
C20_4 C21_4 1_555 1_555
C23_4 S2_4 1_555 1_555
C25_4 C27_4 1_555 1_555
C26_4 C27_4 1_555 1_555
C36_4 S3_4 1_555 1_555
C52_4 C53_4 1_555 1_555
O28 C1_4 1_555 1_555
C1_4 O31_2 1_555 1_555
C2_4 C1_4 1_555 1_555
C3_4 C2_4 1_555 1_555
H1_4 C3_4 1_555 1_555
C4_4 C2_4 1_555 1_555
H2_4 C4_4 1_555 1_555
C5_4 C4_4 1_555 1_555
H3_4 C5_4 1_555 1_555
C6_4 C3_4 1_555 1_555
C7_4 C5_4 1_555 1_555
C8_4 C7_4 1_555 1_555
C9_4 C8_4 1_555 1_555
C10_4 C8_4 1_555 1_555
H4_4 C10_4 1_555 1_555
C11_4 C9_4 1_555 1_555
H5_4 C11_4 1_555 1_555
C12_4 C10_4 1_555 1_555
H6_4 C12_4 1_555 1_555
C13_4 C11_4 1_555 1_555
C14_8 C13_4 1_555 1_555
S1_4 C6_4 1_555 1_555
O7_4 S1_4 1_555 1_555
O8_4 S1_4 1_555 1_555
O33_4 C28_4 1_555 1_555
C28_4 C29_4 1_555 1_555
C31_4 C29_4 1_555 1_555
H14_4 C31_4 1_555 1_555
C32_4 C31_4 1_555 1_555
H15_4 C32_4 1_555 1_555
C34_4 C32_4 1_555 1_555
C35_4 C34_4 1_555 1_555
C37_4 C35_4 1_555 1_555
H16_4 C37_4 1_555 1_555
C39_4 C37_4 1_555 1_555
H18_4 C39_4 1_555 1_555
C40_4 C14_8 1_555 1_555
C43_4 H19_4 1_555 1_555
C46_4 C43_4 1_555 1_555
C51_4 C49_4 1_555 1_555
H23_4 C51_4 1_555 1_555
S4_4 C46_4 1_555 1_555
O19_4 S4_4 1_555 1_555
O20_4 S4_4 1_555 1_555
C6_4 C7_4 1_555 1_555
C9_4 S1_4 1_555 1_555
C12_4 C13_4 1_555 1_555
C39_4 C40_4 1_555 1_555
C49_4 S4_4 1_555 1_555

#END
