
###############################################################################
#
# This file contains modified crystal structure data generated from the
# MOF subset of the Cambridge Structural Database (CSD) v543 
# hosted by the Cambridge Crystallographic Data Centre (CCDC).
#
# This work is licensed under the Creative Commons
# Attribution-NonCommercial-ShareAlike 4.0 International License.
# To view a copy of this license, visit
# http://creativecommons.org/licenses/by-nc-sa/4.0/
# or send a letter to
# Creative Commons, PO Box 1866, Mountain View, CA 94042, USA.
#
# CIF created using the CSD Python API on 29 September 2022
# The structure has been converted into the P1 space group
# The structure has a 3D framework
# The original CSD entry DUWBEE is in the orthorhombic crystal system
# The framework has been calculated to contain at least 10.0% void space
# The void calculation uses a probe of radius 1.32A, grid spacing 0.4
#
###############################################################################

data_DUWBEE
_chemical_formula_moiety         '(C384 H416 Cd32 N32 O172)n'
_symmetry_cell_setting           triclinic
_symmetry_space_group_name_H-M   'P 1'
_symmetry_Int_Tables_number      1
_space_group_name_Hall           'P 1'
loop_
_symmetry_equiv_pos_site_id
_symmetry_equiv_pos_as_xyz
1 x,y,z
_cell_length_a                   26.7063(7)
_cell_length_b                   19.5130(5)
_cell_length_c                   28.8938(9)
_cell_angle_alpha                90
_cell_angle_beta                 90
_cell_angle_gamma                90
_cell_volume                     15057.1
loop_
_atom_site_label
_atom_site_type_symbol
_atom_site_fract_x
_atom_site_fract_y
_atom_site_fract_z
C47 C 0.0023(2) 0.8103(4) 0.3391(2)
H47 H 0.0375 0.8248 0.3397
H48 H 0.0002 0.7627 0.3285
H52 H 0.0162 0.9382 0.2992
O14 O 0.53824(11) 0.22609(15) 0.03240(12)
O15 O 0.63804(12) 0.27252(14) 0.17458(12)
O16 O 0.67949(12) 0.18549(15) 0.20722(12)
N1 N 0.47033(18) 0.0818(2) 0.10844(18)
N2 N 0.8790(2) 0.0950(3) 0.2087(2)
C24 C 0.62739(14) 0.0467(2) 0.10988(16)
C25 C 0.60026(15) 0.0729(2) 0.07242(16)
H14 H 0.5914 0.0432 0.0477
C26 C 0.58592(14) 0.1415(2) 0.07064(15)
C27 C 0.60088(14) 0.1855(2) 0.10580(16)
H15 H 0.5906 0.2321 0.1052
C28 C 0.63059(15) 0.1621(2) 0.14171(15)
C29 C 0.64333(15) 0.0927(2) 0.14408(16)
H16 H 0.6630 0.0766 0.1692
C30 C 0.65096(14) 0.2110(2) 0.17721(16)
C31 C 0.55584(14) 0.1667(2) 0.02990(16)
C33 C 0.4415(2) 0.0443(3) 0.0328(2)
H17 H 0.4557 0.0844 0.0172
H18 H 0.4060 0.0526 0.0394
H19 H 0.4448 0.0040 0.0128
C34 C 0.46932(18) 0.0319(3) 0.0780(2)
C35 C 0.4974(3) 0.0701(4) 0.1524(2)
H20 H 0.5241 0.1042 0.1557
H21 H 0.5119 0.0240 0.1524
H22 H 0.4740 0.0745 0.1784
C36 C 0.4458(3) 0.1471(3) 0.1028(3)
H23 H 0.4710 0.1833 0.1001
H24 H 0.4244 0.1561 0.1297
H25 H 0.4252 0.1462 0.0747
C37 C 0.8005(3) 0.0573(3) 0.1729(2)
H26 H 0.7819 0.0143 0.1691
H27 H 0.8125 0.0730 0.1426
H28 H 0.7784 0.0921 0.1863
C38 C 0.8476(2) 0.0449(3) 0.2068(2)
C39 C 0.8712(3) 0.1605(3) 0.1846(3)
H29 H 0.8685 0.1976 0.2074
H30 H 0.8402 0.1581 0.1664
H31 H 0.8995 0.1695 0.1639
C40 C 0.9223(3) 0.0814(4) 0.2360(3)
H32 H 0.9237 0.1137 0.2619
H33 H 0.9523 0.0866 0.2168
H34 H 0.9207 0.0344 0.2479
H38 H 0.9494 0.0023 0.0166
C44 C 0.9413(3) 0.0306(5) 0.0993(3)
H41 H 0.9778 0.0256 0.1014
H42 H 0.9272 0.0350 0.1304
H43 H 0.9333 0.0717 0.0812
Cd10 Cd 0.652547(9) 0.378745(12) 0.204385(10)
Cd12 Cd 0.735990(9) 0.243671(12) 0.245570(9)
O13 O 0.55021(13) 0.12524(15) 0.99713(12)
Cd6 Cd 0.479820(9) 0.271563(12) 0.984502(9)
Cd8 Cd 0.535194(11) 0.131110(13) 0.921467(11)
Cd1 Cd 0.520180(9) 0.728437(12) 0.015498(9)
Cd2 Cd 0.464806(11) 0.868890(13) 0.078533(11)
Cd3 Cd 0.847453(9) 0.878745(12) 0.204385(10)
Cd4 Cd 0.764010(9) 0.743671(12) 0.245570(9)
O2 O 0.4807(4) 0.8690(3) 0.1583(2)
H1 H 0.4687 0.8944 0.1795
H2 H 0.4987 0.8443 0.1759
O4 O 0.38514(16) 0.9056(2) 0.0910(2)
H3 H 0.3764 0.9364 0.1101
H4 H 0.3592 0.8908 0.0772
O11 O 0.54207(10) 0.82806(13) 0.05332(11)
O12 O 0.59100(12) 0.74203(15) 0.07249(12)
O17 O 0.73106(11) 0.79104(15) 0.18306(12)
O18 O 0.77077(11) 0.89122(15) 0.17304(12)
O19 O 0.88919(13) 0.93075(18) 0.14415(13)
O20 O 0.84814(14) 0.99092(15) 0.22813(12)
O21 O 0.91955(12) 0.87039(18) 0.24868(13)
O22 O 0.49211(13) 0.97726(16) 0.08422(15)
N3 N 0.9199(2) 0.9700(3) 0.07645(18)
N4 N 0.97396(16) 0.8548(3) 0.30724(19)
C17 C 0.58079(15) 0.8043(2) 0.07340(15)
C18 C 0.61560(15) 0.8541(2) 0.09653(15)
C19 C 0.65652(14) 0.8310(2) 0.12133(15)
H11 H 0.6618 0.7831 0.1250
C20 C 0.69012(15) 0.8771(2) 0.14104(15)
C21 C 0.68131(15) 0.9473(2) 0.13655(15)
H12 H 0.7045 0.9790 0.1493
C22 C 0.63855(15) 0.9720(2) 0.11337(15)
C23 C 0.60622(14) 0.9242(2) 0.09320(15)
H13 H 0.5774 0.9398 0.0770
C32 C 0.73443(15) 0.8513(2) 0.16779(15)
C41 C 0.8936(2) 0.9236(3) 0.10149(18)
C42 C 0.8703(4) 0.8644(3) 0.0775(2)
H35 H 0.8663 0.8264 0.0994
H36 H 0.8918 0.8498 0.0519
H37 H 0.8375 0.8778 0.0655
C43 C 0.9308(4) 0.9622(5) 0.0276(3)
H39 H 0.8993 0.9582 0.0103
H40 H 0.9509 0.9208 0.0228
C45 C 0.94166(17) 0.8329(3) 0.2763(2)
C46 C 0.9315(2) 0.7542(3) 0.2746(2)
H44 H 0.9155 0.7397 0.3035
H45 H 0.9633 0.7297 0.2708
H46 H 0.9094 0.7438 0.2485
H49 H 0.9882 0.8139 0.3703
C48 C 0.9828(2) 0.9274(3) 0.3111(2)
H50 H 0.9805 0.9411 0.3437
H51 H 0.9576 0.9522 0.2931
O23 O 0.72258(12) 0.64741(15) 0.27178(12)
O24 O 0.69189(12) 0.74751(15) 0.29171(13)
O25 O 0.44062(16) 0.76036(17) 0.08839(15)
O26 O 0.47408(12) 0.66454(16) 0.06067(12)
O27 O 0.80452(10) 0.84275(13) 0.27033(10)
O28 O 0.81117(14) 0.75270(15) 0.31642(12)
O29 O 0.44979(13) 0.87476(15) 0.00287(12)
O31 O 0.86196(12) 0.77252(14) 0.17458(12)
O32 O 0.82051(12) 0.68549(15) 0.20722(12)
O1 O 0.72258(12) 0.35259(15) 0.77178(12)
O3 O 0.69189(12) 0.25249(15) 0.79171(13)
O5 O 0.55938(16) 0.23964(17) 0.91161(15)
O6 O 0.52592(12) 0.33546(16) 0.93933(12)
O7 O 0.69548(10) 0.65725(13) 0.77033(10)
O8 O 0.68883(14) 0.74730(15) 0.81642(12)
O9 O 0.58073(12) 0.72961(14) 0.95752(11)
O10 O 0.54891(13) 0.62978(15) 0.97649(12)
C1 C 0.55601(16) 0.3028(2) 0.91375(17)
C2 C 0.59121(15) 0.3442(2) 0.88414(16)
C3 C 0.62287(16) 0.3121(2) 0.85319(16)
H5 H 0.6217 0.2637 0.8496
C4 C 0.65662(15) 0.3509(2) 0.82728(16)
C5 C 0.69198(15) 0.3164(2) 0.79484(15)
C6 C 0.65803(16) 0.4212(2) 0.83323(16)
H6 H 0.6816 0.4473 0.8161
C7 C 0.62589(14) 0.45482(19) 0.86364(15)
C8 C 0.59218(15) 0.4153(2) 0.88882(15)
H7 H 0.5695 0.4370 0.9095
C9 C 0.62772(14) 0.5308(2) 0.86988(15)
C10 C 0.65210(15) 0.5718(2) 0.83724(15)
H8 H 0.6671 0.5514 0.8108
C11 C 0.65447(14) 0.6427(2) 0.84338(15)
C12 C 0.63147(15) 0.6735(2) 0.88098(15)
H9 H 0.6334 0.7217 0.8851
C13 C 0.60541(15) 0.6333(2) 0.91284(15)
C14 C 0.60447(14) 0.5624(2) 0.90720(15)
H10 H 0.5875 0.5351 0.9294
C15 C 0.68090(14) 0.68576(19) 0.80828(15)
C16 C 0.57675(14) 0.6661(2) 0.95168(15)
Cd9 Cd 0.652547(9) 0.621255(12) 0.704385(10)
Cd11 Cd 0.735990(9) 0.756329(12) 0.745570(9)
Cd13 Cd 0.764010(9) 0.256329(12) 0.745570(9)
O30 O 0.46176(11) 0.77391(15) 0.96760(12)
Cd5 Cd 0.020180(9) 0.228437(12) 0.484502(9)
Cd2_2 Cd 0.035194(11) 0.631110(13) 0.578533(11)
O2_2 O 0.0193(4) 0.6310(3) 0.6583(2)
H1_2 H 0.0313 0.6056 0.6795
H2_2 H 0.0013 0.6557 0.6759
O4_2 O 0.11486(16) 0.5944(2) 0.5910(2)
H3_2 H 0.1236 0.5636 0.6101
H4_2 H 0.1408 0.6092 0.5772
O22_2 O 0.00789(13) 0.52274(16) 0.58422(15)
N1_2 N 0.02967(18) 0.4182(2) 0.60844(18)
C33_2 C 0.0585(2) 0.4557(3) 0.5328(2)
H17_2 H 0.0443 0.4156 0.5172
H18_2 H 0.0940 0.4474 0.5394
H19_2 H 0.0552 0.4960 0.5128
C34_2 C 0.03068(18) 0.4681(3) 0.5780(2)
C35_2 C 0.0026(3) 0.4299(4) 0.6524(2)
H22_2 H 0.0260 0.4255 0.6784
C36_2 C 0.0542(3) 0.3529(3) 0.6028(3)
H23_2 H 0.0290 0.3167 0.6001
H24_2 H 0.0756 0.3439 0.6297
H25_2 H 0.0748 0.3538 0.5747
O25_2 O 0.05938(16) 0.73964(17) 0.58839(15)
O26_2 O 0.02592(12) 0.83546(16) 0.56067(12)
O29_2 O 0.05021(13) 0.62524(15) 0.50287(12)
O30_2 O 0.03824(11) 0.72609(15) 0.46760(12)
O1_2 O 0.77742(12) 0.14741(15) 0.27178(12)
O3_2 O 0.80811(12) 0.24751(15) 0.29171(13)
O5_2 O 0.94062(16) 0.26036(17) 0.41161(15)
O6_2 O 0.97408(12) 0.16454(16) 0.43933(12)
C1_2 C 0.94399(16) 0.1972(2) 0.41375(17)
C2_2 C 0.90879(15) 0.1558(2) 0.38414(16)
C3_2 C 0.87713(16) 0.1879(2) 0.35319(16)
H5_2 H 0.8783 0.2363 0.3496
C4_2 C 0.84338(15) 0.1491(2) 0.32728(16)
C5_2 C 0.80802(15) 0.1836(2) 0.29484(15)
C6_2 C 0.84197(16) 0.0788(2) 0.33323(16)
H6_2 H 0.8184 0.0527 0.3161
C7_2 C 0.87411(14) 0.04518(19) 0.36364(15)
C8_2 C 0.90782(15) 0.0847(2) 0.38882(15)
H7_2 H 0.9305 0.0630 0.4095
Cd7 Cd 0.964806(11) 0.368890(13) 0.421467(11)
Cd1_2 Cd 0.979820(9) 0.771563(12) 0.515498(9)
O9_2 O 0.91927(12) 0.77039(14) 0.45752(11)
O10_2 O 0.95109(13) 0.87022(15) 0.47649(12)
O11_2 O 0.95793(10) 0.67194(13) 0.55332(11)
O12_2 O 0.90900(12) 0.75797(15) 0.57249(12)
O13_2 O 0.94979(13) 0.37476(15) 0.49713(12)
O14_2 O 0.96176(11) 0.27391(15) 0.53240(12)
O15_2 O 0.86196(12) 0.22748(14) 0.67458(12)
O16_2 O 0.82051(12) 0.31451(15) 0.70722(12)
O17_2 O 0.76894(11) 0.70896(15) 0.68306(12)
O18_2 O 0.72923(11) 0.60878(15) 0.67304(12)
O19_2 O 0.61081(13) 0.56925(18) 0.64415(13)
O20_2 O 0.65186(14) 0.50908(15) 0.72813(12)
O21_2 O 0.58045(12) 0.62961(18) 0.74868(13)
N2_2 N 0.6210(2) 0.4050(3) 0.7087(2)
N3_2 N 0.5801(2) 0.5300(3) 0.57645(18)
N4_2 N 0.52604(16) 0.6452(3) 0.80724(19)
C9_2 C 0.87228(14) 0.9692(2) 0.36988(15)
C10_2 C 0.84790(15) 0.9282(2) 0.33724(15)
H8_2 H 0.8329 0.9486 0.3108
C11_2 C 0.84553(14) 0.8573(2) 0.34338(15)
C12_2 C 0.86853(15) 0.8265(2) 0.38098(15)
H9_2 H 0.8666 0.7783 0.3851
C13_2 C 0.89459(15) 0.8667(2) 0.41284(15)
C14_2 C 0.89553(14) 0.9376(2) 0.40720(15)
H10_2 H 0.9125 0.9649 0.4294
C15_2 C 0.81910(14) 0.81424(19) 0.30828(15)
C16_2 C 0.92325(14) 0.8339(2) 0.45168(15)
C17_2 C 0.91921(15) 0.6957(2) 0.57340(15)
C18_2 C 0.88440(15) 0.6459(2) 0.59653(15)
C19_2 C 0.84348(14) 0.6690(2) 0.62133(15)
H11_2 H 0.8382 0.7169 0.6250
C20_2 C 0.80988(15) 0.6229(2) 0.64104(15)
C21_2 C 0.81869(15) 0.5527(2) 0.63655(15)
H12_2 H 0.7955 0.5210 0.6493
C22_2 C 0.86145(15) 0.5280(2) 0.61337(15)
C23_2 C 0.89378(14) 0.5758(2) 0.59320(15)
H13_2 H 0.9226 0.5602 0.5770
C24_2 C 0.87261(14) 0.4533(2) 0.60988(16)
C25_2 C 0.89974(15) 0.4271(2) 0.57242(16)
H14_2 H 0.9086 0.4568 0.5477
C26_2 C 0.91408(14) 0.3585(2) 0.57064(15)
C27_2 C 0.89912(14) 0.3145(2) 0.60580(16)
H15_2 H 0.9094 0.2679 0.6052
C28_2 C 0.86941(15) 0.3379(2) 0.64171(15)
C29_2 C 0.85667(15) 0.4073(2) 0.64408(16)
H16_2 H 0.8370 0.4234 0.6692
C30_2 C 0.84904(14) 0.2890(2) 0.67721(16)
C31_2 C 0.94416(14) 0.3333(2) 0.52990(16)
C32_2 C 0.76557(15) 0.6487(2) 0.66779(15)
H20_2 H 0.9759 0.3958 0.6557
H21_2 H 0.9881 0.4760 0.6524
C37_2 C 0.6995(3) 0.4427(3) 0.6729(2)
H26_2 H 0.7181 0.4857 0.6691
H27_2 H 0.6875 0.4270 0.6426
H28_2 H 0.7216 0.4079 0.6863
C38_2 C 0.6524(2) 0.4551(3) 0.7068(2)
C39_2 C 0.6288(3) 0.3395(3) 0.6846(3)
H29_2 H 0.6315 0.3024 0.7074
H30_2 H 0.6598 0.3419 0.6664
H31_2 H 0.6005 0.3305 0.6639
C40_2 C 0.5777(3) 0.4186(4) 0.7360(3)
H32_2 H 0.5763 0.3863 0.7619
H33_2 H 0.5477 0.4134 0.7168
H34_2 H 0.5793 0.4656 0.7479
C41_2 C 0.6064(2) 0.5764(3) 0.60149(18)
C42_2 C 0.6297(4) 0.6356(3) 0.5775(2)
H35_2 H 0.6337 0.6736 0.5994
H36_2 H 0.6082 0.6502 0.5519
H37_2 H 0.6625 0.6222 0.5655
C43_2 C 0.5692(4) 0.5378(5) 0.5276(3)
H38_2 H 0.5506 0.4977 0.5166
H39_2 H 0.6007 0.5418 0.5103
H40_2 H 0.5491 0.5792 0.5228
C44_2 C 0.5587(3) 0.4694(5) 0.5993(3)
H41_2 H 0.5222 0.4744 0.6014
H42_2 H 0.5728 0.4650 0.6304
H43_2 H 0.5667 0.4283 0.5812
C45_2 C 0.55834(17) 0.6671(3) 0.7763(2)
C46_2 C 0.5685(2) 0.7458(3) 0.7746(2)
H44_2 H 0.5845 0.7603 0.8035
H45_2 H 0.5367 0.7703 0.7708
H46_2 H 0.5906 0.7562 0.7485
C47_2 C 0.4977(2) 0.6897(4) 0.8391(2)
H47_2 H 0.4625 0.6752 0.8397
H48_2 H 0.4998 0.7373 0.8285
H49_2 H 0.5118 0.6861 0.8703
C48_2 C 0.5172(2) 0.5726(3) 0.8111(2)
H50_2 H 0.5195 0.5589 0.8437
H51_2 H 0.5424 0.5478 0.7931
H52_2 H 0.4838 0.5618 0.7992
Cd10_2 Cd 0.847453(9) 0.121255(12) 0.704385(10)
O23_2 O 0.77742(12) 0.85259(15) 0.77178(12)
O24_2 O 0.80811(12) 0.75249(15) 0.79171(13)
O31_2 O 0.63804(12) 0.72748(14) 0.67458(12)
O32_2 O 0.67949(12) 0.81451(15) 0.70722(12)
O1_3 O 0.22258(12) 0.14741(15) 0.22822(12)
O3_3 O 0.19189(12) 0.24751(15) 0.20829(13)
O5_3 O 0.05938(16) 0.26036(17) 0.08839(15)
O6_3 O 0.02592(12) 0.16454(16) 0.06067(12)
C1_3 C 0.05601(16) 0.1972(2) 0.08625(17)
C2_3 C 0.09121(15) 0.1558(2) 0.11586(16)
C3_3 C 0.12287(16) 0.1879(2) 0.14681(16)
H5_3 H 0.1217 0.2363 0.1504
C4_3 C 0.15662(15) 0.1491(2) 0.17272(16)
C5_3 C 0.19198(15) 0.1836(2) 0.20516(15)
C6_3 C 0.15803(16) 0.0788(2) 0.16677(16)
H6_3 H 0.1816 0.0527 0.1839
C7_3 C 0.12589(14) 0.04518(19) 0.13636(15)
C8_3 C 0.09218(15) 0.0847(2) 0.11118(15)
H7_3 H 0.0695 0.0630 0.0905
Cd7_2 Cd 0.035194(11) 0.368890(13) 0.078533(11)
Cd13_2 Cd 0.264010(9) 0.243671(12) 0.254430(9)
O7_2 O 0.19548(10) 0.84275(13) 0.22967(10)
O8_2 O 0.18883(14) 0.75270(15) 0.18358(12)
O9_3 O 0.08073(12) 0.77039(14) 0.04248(11)
O10_3 O 0.04891(13) 0.87022(15) 0.02351(12)
O13_3 O 0.05021(13) 0.37476(15) 0.00287(12)
C9_3 C 0.12772(14) 0.9692(2) 0.13012(15)
C10_3 C 0.15210(15) 0.9282(2) 0.16276(15)
H8_3 H 0.1671 0.9486 0.1892
C11_3 C 0.15447(14) 0.8573(2) 0.15662(15)
C12_3 C 0.13147(15) 0.8265(2) 0.11902(15)
H9_3 H 0.1334 0.7783 0.1149
C13_3 C 0.10541(15) 0.8667(2) 0.08716(15)
C14_3 C 0.10447(14) 0.9376(2) 0.09280(15)
H10_3 H 0.0875 0.9649 0.0706
C15_3 C 0.18090(14) 0.81424(19) 0.19172(15)
C16_3 C 0.07675(14) 0.8339(2) 0.04832(15)
Cd9_2 Cd 0.152547(9) 0.878745(12) 0.295615(10)
Cd11_2 Cd 0.235990(9) 0.743671(12) 0.254430(9)
Cd1_3 Cd 0.020180(9) 0.771563(12) 0.984502(9)
Cd3_2 Cd 0.347453(9) 0.621255(12) 0.795615(10)
Cd4_2 Cd 0.264010(9) 0.756329(12) 0.754430(9)
O11_3 O 0.04207(10) 0.67194(13) 0.94668(11)
O12_3 O 0.09100(12) 0.75797(15) 0.92751(12)
O14_3 O 0.03824(11) 0.27391(15) 0.96760(12)
O15_3 O 0.13804(12) 0.22748(14) 0.82542(12)
O16_3 O 0.17949(12) 0.31451(15) 0.79278(12)
O17_3 O 0.23106(11) 0.70896(15) 0.81694(12)
O18_3 O 0.27077(11) 0.60878(15) 0.82696(12)
O19_3 O 0.38919(13) 0.56925(18) 0.85585(13)
O20_3 O 0.34814(14) 0.50908(15) 0.77187(12)
O21_3 O 0.41955(12) 0.62961(18) 0.75132(13)
N2_3 N 0.3790(2) 0.4050(3) 0.7913(2)
N3_3 N 0.4199(2) 0.5300(3) 0.92355(18)
N4_3 N 0.47396(16) 0.6452(3) 0.69276(19)
C17_3 C 0.08079(15) 0.6957(2) 0.92660(15)
C18_3 C 0.11560(15) 0.6459(2) 0.90347(15)
C19_3 C 0.15652(14) 0.6690(2) 0.87867(15)
H11_3 H 0.1618 0.7169 0.8750
C20_3 C 0.19012(15) 0.6229(2) 0.85896(15)
C21_3 C 0.18131(15) 0.5527(2) 0.86345(15)
H12_3 H 0.2045 0.5210 0.8507
C22_3 C 0.13855(15) 0.5280(2) 0.88663(15)
C23_3 C 0.10622(14) 0.5758(2) 0.90680(15)
H13_3 H 0.0774 0.5602 0.9230
C24_3 C 0.12739(14) 0.4533(2) 0.89012(16)
C25_3 C 0.10026(15) 0.4271(2) 0.92758(16)
H14_3 H 0.0914 0.4568 0.9523
C26_3 C 0.08592(14) 0.3585(2) 0.92936(15)
C27_3 C 0.10088(14) 0.3145(2) 0.89420(16)
H15_3 H 0.0906 0.2679 0.8948
C28_3 C 0.13059(15) 0.3379(2) 0.85829(15)
C29_3 C 0.14333(15) 0.4073(2) 0.85592(16)
H16_3 H 0.1630 0.4234 0.8308
C30_3 C 0.15096(14) 0.2890(2) 0.82279(16)
C31_3 C 0.05584(14) 0.3333(2) 0.97010(16)
C32_3 C 0.23443(15) 0.6487(2) 0.83221(15)
H20_3 H 0.0241 0.3958 0.8443
H21_3 H 0.0119 0.4760 0.8476
C37_3 C 0.3005(3) 0.4427(3) 0.8271(2)
H26_3 H 0.2819 0.4857 0.8309
H27_3 H 0.3125 0.4270 0.8574
H28_3 H 0.2784 0.4079 0.8137
C38_3 C 0.3476(2) 0.4551(3) 0.7932(2)
C39_3 C 0.3712(3) 0.3395(3) 0.8154(3)
H29_3 H 0.3685 0.3024 0.7926
H30_3 H 0.3402 0.3419 0.8336
H31_3 H 0.3995 0.3305 0.8361
C40_3 C 0.4223(3) 0.4186(4) 0.7640(3)
H32_3 H 0.4237 0.3863 0.7381
H33_3 H 0.4523 0.4134 0.7832
H34_3 H 0.4207 0.4656 0.7521
C41_3 C 0.3936(2) 0.5764(3) 0.89851(18)
C42_3 C 0.3703(4) 0.6356(3) 0.9225(2)
H35_3 H 0.3663 0.6736 0.9006
H36_3 H 0.3918 0.6502 0.9481
H37_3 H 0.3375 0.6222 0.9345
C43_3 C 0.4308(4) 0.5378(5) 0.9724(3)
H38_3 H 0.4494 0.4977 0.9834
H39_3 H 0.3993 0.5418 0.9897
H40_3 H 0.4509 0.5792 0.9772
C44_3 C 0.4413(3) 0.4694(5) 0.9007(3)
H41_3 H 0.4778 0.4744 0.8986
H42_3 H 0.4272 0.4650 0.8696
H43_3 H 0.4333 0.4283 0.9188
C45_3 C 0.44166(17) 0.6671(3) 0.7237(2)
C46_3 C 0.4315(2) 0.7458(3) 0.7254(2)
H44_3 H 0.4155 0.7603 0.6965
H45_3 H 0.4633 0.7703 0.7292
H46_3 H 0.4094 0.7562 0.7515
C47_3 C 0.5023(2) 0.6897(4) 0.6609(2)
H47_3 H 0.5375 0.6752 0.6603
H48_3 H 0.5002 0.7373 0.6715
H49_3 H 0.4882 0.6861 0.6297
C48_3 C 0.4828(2) 0.5726(3) 0.6889(2)
H50_3 H 0.4805 0.5589 0.6563
H51_3 H 0.4576 0.5478 0.7069
H52_3 H 0.5162 0.5618 0.7008
Cd10_3 Cd 0.152547(9) 0.121255(12) 0.795615(10)
Cd12_2 Cd 0.235990(9) 0.256329(12) 0.754430(9)
O23_3 O 0.22258(12) 0.85259(15) 0.72822(12)
O24_3 O 0.19189(12) 0.75249(15) 0.70829(13)
O27_2 O 0.30452(10) 0.65725(13) 0.72967(10)
O28_2 O 0.31117(14) 0.74730(15) 0.68358(12)
O31_3 O 0.36196(12) 0.72748(14) 0.82542(12)
O32_3 O 0.32051(12) 0.81451(15) 0.79278(12)
Cd5_2 Cd 0.979820(9) 0.228437(12) 0.015498(9)
O30_3 O 0.96176(11) 0.72609(15) 0.03240(12)
Cd2_3 Cd 0.964806(11) 0.631110(13) 0.921467(11)
O2_3 O 0.9807(4) 0.6310(3) 0.8417(2)
H1_3 H 0.9687 0.6056 0.8205
H2_3 H 0.9987 0.6557 0.8241
O4_3 O 0.88514(16) 0.5944(2) 0.9090(2)
H3_3 H 0.8764 0.5636 0.8899
H4_3 H 0.8592 0.6092 0.9228
O22_3 O 0.99211(13) 0.52274(16) 0.91578(15)
N1_3 N 0.97033(18) 0.4182(2) 0.89156(18)
C33_3 C 0.9415(2) 0.4557(3) 0.9672(2)
H17_3 H 0.9557 0.4156 0.9828
H18_3 H 0.9060 0.4474 0.9606
H19_3 H 0.9448 0.4960 0.9872
C34_3 C 0.96932(18) 0.4681(3) 0.9220(2)
C35_3 C 0.9974(3) 0.4299(4) 0.8476(2)
H22_3 H 0.9740 0.4255 0.8216
C36_3 C 0.9458(3) 0.3529(3) 0.8972(3)
H23_3 H 0.9710 0.3167 0.8999
H24_3 H 0.9244 0.3439 0.8703
H25_3 H 0.9252 0.3538 0.9253
O25_3 O 0.94062(16) 0.73964(17) 0.91161(15)
O26_3 O 0.97408(12) 0.83546(16) 0.93933(12)
O29_3 O 0.94979(13) 0.62524(15) 0.99713(12)
O13_4 O 0.44979(13) 0.12524(15) 0.50287(12)
O14_4 O 0.46176(11) 0.22609(15) 0.46760(12)
O15_4 O 0.36196(12) 0.27252(14) 0.32542(12)
O16_4 O 0.32051(12) 0.18549(15) 0.29278(12)
N1_4 N 0.52967(18) 0.0818(2) 0.39156(18)
N2_4 N 0.1210(2) 0.0950(3) 0.2913(2)
C24_4 C 0.37261(14) 0.0467(2) 0.39012(16)
C25_4 C 0.39974(15) 0.0729(2) 0.42758(16)
H14_4 H 0.4086 0.0432 0.4523
C26_4 C 0.41408(14) 0.1415(2) 0.42936(15)
C27_4 C 0.39912(14) 0.1855(2) 0.39420(16)
H15_4 H 0.4094 0.2321 0.3948
C28_4 C 0.36941(15) 0.1621(2) 0.35829(15)
C29_4 C 0.35667(15) 0.0927(2) 0.35592(16)
H16_4 H 0.3370 0.0766 0.3308
C30_4 C 0.34904(14) 0.2110(2) 0.32279(16)
C31_4 C 0.44416(14) 0.1667(2) 0.47010(16)
C33_4 C 0.5585(2) 0.0443(3) 0.4672(2)
H17_4 H 0.5443 0.0844 0.4828
H18_4 H 0.5940 0.0526 0.4606
H19_4 H 0.5552 0.0040 0.4872
C34_4 C 0.53068(18) 0.0319(3) 0.4220(2)
C35_4 C 0.5026(3) 0.0701(4) 0.3476(2)
H20_4 H 0.4759 0.1042 0.3443
H21_4 H 0.4881 0.0240 0.3476
H22_4 H 0.5260 0.0745 0.3216
C36_4 C 0.5542(3) 0.1471(3) 0.3972(3)
H23_4 H 0.5290 0.1833 0.3999
H24_4 H 0.5756 0.1561 0.3703
H25_4 H 0.5748 0.1462 0.4253
C37_4 C 0.1995(3) 0.0573(3) 0.3271(2)
H26_4 H 0.2181 0.0143 0.3309
H27_4 H 0.1875 0.0730 0.3574
H28_4 H 0.2216 0.0921 0.3137
C38_4 C 0.1524(2) 0.0449(3) 0.2932(2)
C39_4 C 0.1288(3) 0.1605(3) 0.3154(3)
H29_4 H 0.1315 0.1976 0.2926
H30_4 H 0.1598 0.1581 0.3336
H31_4 H 0.1005 0.1695 0.3361
C40_4 C 0.0777(3) 0.0814(4) 0.2640(3)
H32_4 H 0.0763 0.1137 0.2381
H33_4 H 0.0477 0.0866 0.2832
H34_4 H 0.0793 0.0344 0.2521
H38_4 H 0.0506 0.0023 0.4834
C44_4 C 0.0587(3) 0.0306(5) 0.4007(3)
H41_4 H 0.0222 0.0256 0.3986
H42_4 H 0.0728 0.0350 0.3696
H43_4 H 0.0667 0.0717 0.4188
Cd6_2 Cd 0.520180(9) 0.271563(12) 0.515498(9)
Cd8_2 Cd 0.464806(11) 0.131110(13) 0.578533(11)
Cd10_4 Cd 0.347453(9) 0.378745(12) 0.295615(10)
Cd1_4 Cd 0.479820(9) 0.728437(12) 0.484502(9)
Cd2_4 Cd 0.535194(11) 0.868890(13) 0.421467(11)
O1_4 O 0.27742(12) 0.35259(15) 0.72822(12)
O2_4 O 0.5193(4) 0.8690(3) 0.3417(2)
H1_4 H 0.5313 0.8944 0.3205
H2_4 H 0.5013 0.8443 0.3241
O3_4 O 0.30811(12) 0.25249(15) 0.70829(13)
O4_4 O 0.61486(16) 0.9056(2) 0.4090(2)
H3_4 H 0.6236 0.9364 0.3899
H4_4 H 0.6408 0.8908 0.4228
O5_4 O 0.44062(16) 0.23964(17) 0.58839(15)
O6_4 O 0.47408(12) 0.33546(16) 0.56067(12)
O9_4 O 0.41927(12) 0.72961(14) 0.54248(11)
O10_4 O 0.45109(13) 0.62978(15) 0.52351(12)
O11_4 O 0.45793(10) 0.82806(13) 0.44668(11)
O12_4 O 0.40900(12) 0.74203(15) 0.42751(12)
O17_4 O 0.26894(11) 0.79104(15) 0.31694(12)
O18_4 O 0.22923(11) 0.89122(15) 0.32696(12)
O19_4 O 0.11081(13) 0.93075(18) 0.35585(13)
O20_4 O 0.15186(14) 0.99092(15) 0.27187(12)
O21_4 O 0.08045(12) 0.87039(18) 0.25132(13)
O22_4 O 0.50789(13) 0.97726(16) 0.41578(15)
N3_4 N 0.0801(2) 0.9700(3) 0.42355(18)
N4_4 N 0.02604(16) 0.8548(3) 0.19276(19)
C1_4 C 0.44399(16) 0.3028(2) 0.58625(17)
C2_4 C 0.40879(15) 0.3442(2) 0.61586(16)
C3_4 C 0.37713(16) 0.3121(2) 0.64681(16)
H5_4 H 0.3783 0.2637 0.6504
C4_4 C 0.34338(15) 0.3509(2) 0.67272(16)
C5_4 C 0.30802(15) 0.3164(2) 0.70516(15)
C6_4 C 0.34197(16) 0.4212(2) 0.66677(16)
H6_4 H 0.3184 0.4473 0.6839
C7_4 C 0.37411(14) 0.45482(19) 0.63636(15)
C8_4 C 0.40782(15) 0.4153(2) 0.61118(15)
H7_4 H 0.4305 0.4370 0.5905
C9_4 C 0.37228(14) 0.5308(2) 0.63012(15)
C10_4 C 0.34790(15) 0.5718(2) 0.66276(15)
H8_4 H 0.3329 0.5514 0.6892
C11_4 C 0.34553(14) 0.6427(2) 0.65662(15)
C12_4 C 0.36853(15) 0.6735(2) 0.61902(15)
H9_4 H 0.3666 0.7217 0.6149
C13_4 C 0.39459(15) 0.6333(2) 0.58716(15)
C14_4 C 0.39553(14) 0.5624(2) 0.59280(15)
H10_4 H 0.4125 0.5351 0.5706
C15_4 C 0.31910(14) 0.68576(19) 0.69172(15)
C16_4 C 0.42325(14) 0.6661(2) 0.54832(15)
C17_4 C 0.41921(15) 0.8043(2) 0.42660(15)
C18_4 C 0.38440(15) 0.8541(2) 0.40347(15)
C19_4 C 0.34348(14) 0.8310(2) 0.37867(15)
H11_4 H 0.3382 0.7831 0.3750
C20_4 C 0.30988(15) 0.8771(2) 0.35896(15)
C21_4 C 0.31869(15) 0.9473(2) 0.36345(15)
H12_4 H 0.2955 0.9790 0.3507
C22_4 C 0.36145(15) 0.9720(2) 0.38663(15)
C23_4 C 0.39378(14) 0.9242(2) 0.40680(15)
H13_4 H 0.4226 0.9398 0.4230
C32_4 C 0.26557(15) 0.8513(2) 0.33221(15)
C41_4 C 0.1064(2) 0.9236(3) 0.39851(18)
C42_4 C 0.1297(4) 0.8644(3) 0.4225(2)
H35_4 H 0.1337 0.8264 0.4006
H36_4 H 0.1082 0.8498 0.4481
H37_4 H 0.1625 0.8778 0.4345
C43_4 C 0.0692(4) 0.9622(5) 0.4724(3)
H39_4 H 0.1007 0.9582 0.4897
H40_4 H 0.0491 0.9208 0.4772
C45_4 C 0.05834(17) 0.8329(3) 0.2237(2)
C46_4 C 0.0685(2) 0.7542(3) 0.2254(2)
H44_4 H 0.0845 0.7397 0.1965
H45_4 H 0.0367 0.7297 0.2292
H46_4 H 0.0906 0.7438 0.2515
H49_4 H 0.0118 0.8139 0.1297
C48_4 C 0.0172(2) 0.9274(3) 0.1889(2)
H50_4 H 0.0195 0.9411 0.1563
H51_4 H 0.0424 0.9522 0.2069
O23_4 O 0.27742(12) 0.64741(15) 0.22822(12)
O24_4 O 0.30811(12) 0.74751(15) 0.20829(13)
O25_4 O 0.55938(16) 0.76036(17) 0.41161(15)
O26_4 O 0.52592(12) 0.66454(16) 0.43933(12)
O29_4 O 0.55021(13) 0.87476(15) 0.49713(12)
O30_4 O 0.53824(11) 0.77391(15) 0.53240(12)
O31_4 O 0.13804(12) 0.77252(14) 0.32542(12)
O32_4 O 0.17949(12) 0.68549(15) 0.29278(12)
O7_3 O 0.30452(10) 0.34275(13) 0.22967(10)
O8_3 O 0.31117(14) 0.25270(15) 0.18358(12)
O9_5 O 0.41927(12) 0.27039(14) 0.04248(11)
O10_5 O 0.45109(13) 0.37022(15) 0.02351(12)
C1_5 C 0.44399(16) 0.6972(2) 0.08625(17)
C2_5 C 0.40879(15) 0.6558(2) 0.11586(16)
C3_5 C 0.37713(16) 0.6879(2) 0.14681(16)
H5_5 H 0.3783 0.7363 0.1504
C4_5 C 0.34338(15) 0.6491(2) 0.17272(16)
C5_5 C 0.30802(15) 0.6836(2) 0.20516(15)
C6_5 C 0.34197(16) 0.5788(2) 0.16677(16)
H6_5 H 0.3184 0.5527 0.1839
C7_5 C 0.37411(14) 0.54518(19) 0.13636(15)
C8_5 C 0.40782(15) 0.5847(2) 0.11118(15)
H7_5 H 0.4305 0.5630 0.0905
C9_5 C 0.37228(14) 0.4692(2) 0.13012(15)
C10_5 C 0.34790(15) 0.4282(2) 0.16276(15)
H8_5 H 0.3329 0.4486 0.1892
C11_5 C 0.34553(14) 0.3573(2) 0.15662(15)
C12_5 C 0.36853(15) 0.3265(2) 0.11902(15)
H9_5 H 0.3666 0.2783 0.1149
C13_5 C 0.39459(15) 0.3667(2) 0.08716(15)
C14_5 C 0.39553(14) 0.4376(2) 0.09280(15)
H10_5 H 0.4125 0.4649 0.0706
C15_5 C 0.31910(14) 0.31424(19) 0.19172(15)
C16_5 C 0.42325(14) 0.3339(2) 0.04832(15)
O2_5 O 0.5193(4) 0.1310(3) 0.8417(2)
H1_5 H 0.5313 0.1056 0.8205
H2_5 H 0.5013 0.1557 0.8241
O4_5 O 0.61486(16) 0.0944(2) 0.9090(2)
H3_5 H 0.6236 0.0636 0.8899
H4_5 H 0.6408 0.1092 0.9228
O11_5 O 0.45793(10) 0.17194(13) 0.94668(11)
O12_5 O 0.40900(12) 0.25797(15) 0.92751(12)
O17_5 O 0.26894(11) 0.20896(15) 0.81694(12)
O18_5 O 0.22923(11) 0.10878(15) 0.82696(12)
O19_5 O 0.11081(13) 0.06925(18) 0.85585(13)
O20_5 O 0.15186(14) 0.00908(15) 0.77187(12)
O21_5 O 0.08045(12) 0.12961(18) 0.75132(13)
O22_5 O 0.50789(13) 0.02274(16) 0.91578(15)
N3_5 N 0.0801(2) 0.0300(3) 0.92355(18)
N4_5 N 0.02604(16) 0.1452(3) 0.69276(19)
C17_5 C 0.41921(15) 0.1957(2) 0.92660(15)
C18_5 C 0.38440(15) 0.1459(2) 0.90347(15)
C19_5 C 0.34348(14) 0.1690(2) 0.87867(15)
H11_5 H 0.3382 0.2169 0.8750
C20_5 C 0.30988(15) 0.1229(2) 0.85896(15)
C21_5 C 0.31869(15) 0.0527(2) 0.86345(15)
H12_5 H 0.2955 0.0210 0.8507
C22_5 C 0.36145(15) 0.0280(2) 0.88663(15)
C23_5 C 0.39378(14) 0.0758(2) 0.90680(15)
H13_5 H 0.4226 0.0602 0.9230
C32_5 C 0.26557(15) 0.1487(2) 0.83221(15)
C41_5 C 0.1064(2) 0.0764(3) 0.89851(18)
C42_5 C 0.1297(4) 0.1356(3) 0.9225(2)
H35_5 H 0.1337 0.1736 0.9006
H36_5 H 0.1082 0.1502 0.9481
H37_5 H 0.1625 0.1222 0.9345
C43_5 C 0.0692(4) 0.0378(5) 0.9724(3)
H39_5 H 0.1007 0.0418 0.9897
H40_5 H 0.0491 0.0792 0.9772
C45_5 C 0.05834(17) 0.1671(3) 0.7237(2)
C46_5 C 0.0685(2) 0.2458(3) 0.7254(2)
H44_5 H 0.0845 0.2603 0.6965
H45_5 H 0.0367 0.2703 0.7292
H46_5 H 0.0906 0.2562 0.7515
H49_5 H 0.0118 0.1861 0.6297
C48_5 C 0.0172(2) 0.0726(3) 0.6889(2)
H50_5 H 0.0195 0.0589 0.6563
H51_5 H 0.0424 0.0478 0.7069
O27_3 O 0.19548(10) 0.15725(13) 0.72967(10)
O28_3 O 0.18883(14) 0.24730(15) 0.68358(12)
N1_5 N 0.52967(18) 0.9182(2) 0.89156(18)
N2_5 N 0.1210(2) 0.9050(3) 0.7913(2)
C24_5 C 0.37261(14) 0.9533(2) 0.89012(16)
C25_5 C 0.39974(15) 0.9271(2) 0.92758(16)
H14_5 H 0.4086 0.9568 0.9523
C26_5 C 0.41408(14) 0.8585(2) 0.92936(15)
C27_5 C 0.39912(14) 0.8145(2) 0.89420(16)
H15_5 H 0.4094 0.7679 0.8948
C28_5 C 0.36941(15) 0.8379(2) 0.85829(15)
C29_5 C 0.35667(15) 0.9073(2) 0.85592(16)
H16_5 H 0.3370 0.9234 0.8308
C30_5 C 0.34904(14) 0.7890(2) 0.82279(16)
C31_5 C 0.44416(14) 0.8333(2) 0.97010(16)
C33_5 C 0.5585(2) 0.9557(3) 0.9672(2)
H17_5 H 0.5443 0.9156 0.9828
H18_5 H 0.5940 0.9474 0.9606
H19_5 H 0.5552 0.9960 0.9872
C34_5 C 0.53068(18) 0.9681(3) 0.9220(2)
C35_5 C 0.5026(3) 0.9299(4) 0.8476(2)
H20_5 H 0.4759 0.8958 0.8443
H21_5 H 0.4881 0.9760 0.8476
H22_5 H 0.5260 0.9255 0.8216
C36_5 C 0.5542(3) 0.8529(3) 0.8972(3)
H23_5 H 0.5290 0.8167 0.8999
H24_5 H 0.5756 0.8439 0.8703
H25_5 H 0.5748 0.8538 0.9253
C37_5 C 0.1995(3) 0.9427(3) 0.8271(2)
H26_5 H 0.2181 0.9857 0.8309
H27_5 H 0.1875 0.9270 0.8574
H28_5 H 0.2216 0.9079 0.8137
C38_5 C 0.1524(2) 0.9551(3) 0.7932(2)
C39_5 C 0.1288(3) 0.8395(3) 0.8154(3)
H29_5 H 0.1315 0.8024 0.7926
H30_5 H 0.1598 0.8419 0.8336
H31_5 H 0.1005 0.8305 0.8361
C40_5 C 0.0777(3) 0.9186(4) 0.7640(3)
H32_5 H 0.0763 0.8863 0.7381
H33_5 H 0.0477 0.9134 0.7832
H34_5 H 0.0793 0.9656 0.7521
H38_5 H 0.0506 0.9977 0.9834
C44_5 C 0.0587(3) 0.9694(5) 0.9007(3)
H41_5 H 0.0222 0.9744 0.8986
H42_5 H 0.0728 0.9650 0.8696
H43_5 H 0.0667 0.9283 0.9188
O9_6 O 0.08073(12) 0.22961(14) 0.54248(11)
O10_6 O 0.04891(13) 0.12978(15) 0.52351(12)
O11_6 O 0.04207(10) 0.32806(13) 0.44668(11)
O12_6 O 0.09100(12) 0.24203(15) 0.42751(12)
O17_6 O 0.23106(11) 0.29104(15) 0.31694(12)
O18_6 O 0.27077(11) 0.39122(15) 0.32696(12)
O19_6 O 0.38919(13) 0.43075(18) 0.35585(13)
O20_6 O 0.34814(14) 0.49092(15) 0.27187(12)
O21_6 O 0.41955(12) 0.37039(18) 0.25132(13)
N2_6 N 0.3790(2) 0.5950(3) 0.2913(2)
N3_6 N 0.4199(2) 0.4700(3) 0.42355(18)
N4_6 N 0.47396(16) 0.3548(3) 0.19276(19)
C9_6 C 0.12772(14) 0.0308(2) 0.63012(15)
C10_6 C 0.15210(15) 0.0718(2) 0.66276(15)
H8_6 H 0.1671 0.0514 0.6892
C11_6 C 0.15447(14) 0.1427(2) 0.65662(15)
C12_6 C 0.13147(15) 0.1735(2) 0.61902(15)
H9_6 H 0.1334 0.2217 0.6149
C13_6 C 0.10541(15) 0.1333(2) 0.58716(15)
C14_6 C 0.10447(14) 0.0624(2) 0.59280(15)
H10_6 H 0.0875 0.0351 0.5706
C15_6 C 0.18090(14) 0.18576(19) 0.69172(15)
C16_6 C 0.07675(14) 0.1661(2) 0.54832(15)
C17_6 C 0.08079(15) 0.3043(2) 0.42660(15)
C18_6 C 0.11560(15) 0.3541(2) 0.40347(15)
C19_6 C 0.15652(14) 0.3310(2) 0.37867(15)
H11_6 H 0.1618 0.2831 0.3750
C20_6 C 0.19012(15) 0.3771(2) 0.35896(15)
C21_6 C 0.18131(15) 0.4473(2) 0.36345(15)
H12_6 H 0.2045 0.4790 0.3507
C22_6 C 0.13855(15) 0.4720(2) 0.38663(15)
C23_6 C 0.10622(14) 0.4242(2) 0.40680(15)
H13_6 H 0.0774 0.4398 0.4230
C24_6 C 0.12739(14) 0.5467(2) 0.39012(16)
C25_6 C 0.10026(15) 0.5729(2) 0.42758(16)
H14_6 H 0.0914 0.5432 0.4523
C26_6 C 0.08592(14) 0.6415(2) 0.42936(15)
C27_6 C 0.10088(14) 0.6855(2) 0.39420(16)
H15_6 H 0.0906 0.7321 0.3948
C28_6 C 0.13059(15) 0.6621(2) 0.35829(15)
C29_6 C 0.14333(15) 0.5927(2) 0.35592(16)
H16_6 H 0.1630 0.5766 0.3308
C30_6 C 0.15096(14) 0.7110(2) 0.32279(16)
C31_6 C 0.05584(14) 0.6667(2) 0.47010(16)
C32_6 C 0.23443(15) 0.3513(2) 0.33221(15)
H20_6 H 0.0241 0.6042 0.3443
H21_6 H 0.0119 0.5240 0.3476
C37_6 C 0.3005(3) 0.5573(3) 0.3271(2)
H26_6 H 0.2819 0.5143 0.3309
H27_6 H 0.3125 0.5730 0.3574
H28_6 H 0.2784 0.5921 0.3137
C38_6 C 0.3476(2) 0.5449(3) 0.2932(2)
C39_6 C 0.3712(3) 0.6605(3) 0.3154(3)
H29_6 H 0.3685 0.6976 0.2926
H30_6 H 0.3402 0.6581 0.3336
H31_6 H 0.3995 0.6695 0.3361
C40_6 C 0.4223(3) 0.5814(4) 0.2640(3)
H32_6 H 0.4237 0.6137 0.2381
H33_6 H 0.4523 0.5866 0.2832
H34_6 H 0.4207 0.5344 0.2521
C41_6 C 0.3936(2) 0.4236(3) 0.39851(18)
C42_6 C 0.3703(4) 0.3644(3) 0.4225(2)
H35_6 H 0.3663 0.3264 0.4006
H36_6 H 0.3918 0.3498 0.4481
H37_6 H 0.3375 0.3778 0.4345
C43_6 C 0.4308(4) 0.4622(5) 0.4724(3)
H38_6 H 0.4494 0.5023 0.4834
H39_6 H 0.3993 0.4582 0.4897
H40_6 H 0.4509 0.4208 0.4772
C44_6 C 0.4413(3) 0.5306(5) 0.4007(3)
H41_6 H 0.4778 0.5256 0.3986
H42_6 H 0.4272 0.5350 0.3696
H43_6 H 0.4333 0.5717 0.4188
C45_6 C 0.44166(17) 0.3329(3) 0.2237(2)
C46_6 C 0.4315(2) 0.2542(3) 0.2254(2)
H44_6 H 0.4155 0.2397 0.1965
H45_6 H 0.4633 0.2297 0.2292
H46_6 H 0.4094 0.2438 0.2515
C47_4 C 0.5023(2) 0.3103(4) 0.1609(2)
H47_4 H 0.5375 0.3248 0.1603
H48_4 H 0.5002 0.2627 0.1715
H49_6 H 0.4882 0.3139 0.1297
C48_6 C 0.4828(2) 0.4274(3) 0.1889(2)
H50_6 H 0.4805 0.4411 0.1563
H51_6 H 0.4576 0.4522 0.2069
H52_4 H 0.5162 0.4382 0.2008
C1_6 C 0.05601(16) 0.8028(2) 0.58625(17)
C2_6 C 0.09121(15) 0.8442(2) 0.61586(16)
C3_6 C 0.12287(16) 0.8121(2) 0.64681(16)
H5_6 H 0.1217 0.7637 0.6504
C4_6 C 0.15662(15) 0.8509(2) 0.67272(16)
C5_6 C 0.19198(15) 0.8164(2) 0.70516(15)
C6_6 C 0.15803(16) 0.9212(2) 0.66677(16)
H6_6 H 0.1816 0.9473 0.6839
C7_6 C 0.12589(14) 0.95482(19) 0.63636(15)
C8_6 C 0.09218(15) 0.9153(2) 0.61118(15)
H7_6 H 0.0695 0.9370 0.5905
O2_6 O 0.9807(4) 0.3690(3) 0.3417(2)
H1_6 H 0.9687 0.3944 0.3205
H2_6 H 0.9987 0.3443 0.3241
O4_6 O 0.88514(16) 0.4056(2) 0.4090(2)
H3_6 H 0.8764 0.4364 0.3899
H4_6 H 0.8592 0.3908 0.4228
O22_6 O 0.99211(13) 0.47726(16) 0.41578(15)
N1_6 N 0.97033(18) 0.5818(2) 0.39156(18)
C33_6 C 0.9415(2) 0.5443(3) 0.4672(2)
H17_6 H 0.9557 0.5844 0.4828
H18_6 H 0.9060 0.5526 0.4606
H19_6 H 0.9448 0.5040 0.4872
C34_6 C 0.96932(18) 0.5319(3) 0.4220(2)
C35_6 C 0.9974(3) 0.5701(4) 0.3476(2)
H22_6 H 0.9740 0.5745 0.3216
C36_6 C 0.9458(3) 0.6471(3) 0.3972(3)
H23_6 H 0.9710 0.6833 0.3999
H24_6 H 0.9244 0.6561 0.3703
H25_6 H 0.9252 0.6462 0.4253
O2_7 O 0.0193(4) 0.3690(3) 0.1583(2)
H1_7 H 0.0313 0.3944 0.1795
H2_7 H 0.0013 0.3443 0.1759
O4_7 O 0.11486(16) 0.4056(2) 0.0910(2)
H3_7 H 0.1236 0.4364 0.1101
H4_7 H 0.1408 0.3908 0.0772
O22_7 O 0.00789(13) 0.47726(16) 0.08422(15)
N1_7 N 0.02967(18) 0.5818(2) 0.10844(18)
C33_7 C 0.0585(2) 0.5443(3) 0.0328(2)
H17_7 H 0.0443 0.5844 0.0172
H18_7 H 0.0940 0.5526 0.0394
H19_7 H 0.0552 0.5040 0.0128
C34_7 C 0.03068(18) 0.5319(3) 0.0780(2)
C35_7 C 0.0026(3) 0.5701(4) 0.1524(2)
H22_7 H 0.0260 0.5745 0.1784
C36_7 C 0.0542(3) 0.6471(3) 0.1028(3)
H23_7 H 0.0290 0.6833 0.1001
H24_7 H 0.0756 0.6561 0.1297
H25_7 H 0.0748 0.6462 0.0747
O11_7 O 0.95793(10) 0.32806(13) 0.05332(11)
O12_7 O 0.90900(12) 0.24203(15) 0.07249(12)
O17_7 O 0.76894(11) 0.29104(15) 0.18306(12)
O18_7 O 0.72923(11) 0.39122(15) 0.17304(12)
O19_7 O 0.61081(13) 0.43075(18) 0.14415(13)
O20_7 O 0.65186(14) 0.49092(15) 0.22813(12)
O21_7 O 0.58045(12) 0.37039(18) 0.24868(13)
N2_7 N 0.6210(2) 0.5950(3) 0.2087(2)
N3_7 N 0.5801(2) 0.4700(3) 0.07645(18)
N4_7 N 0.52604(16) 0.3548(3) 0.30724(19)
C17_7 C 0.91921(15) 0.3043(2) 0.07340(15)
C18_7 C 0.88440(15) 0.3541(2) 0.09653(15)
C19_7 C 0.84348(14) 0.3310(2) 0.12133(15)
H11_7 H 0.8382 0.2831 0.1250
C20_7 C 0.80988(15) 0.3771(2) 0.14104(15)
C21_7 C 0.81869(15) 0.4473(2) 0.13655(15)
H12_7 H 0.7955 0.4790 0.1493
C22_7 C 0.86145(15) 0.4720(2) 0.11337(15)
C23_7 C 0.89378(14) 0.4242(2) 0.09320(15)
H13_7 H 0.9226 0.4398 0.0770
C24_7 C 0.87261(14) 0.5467(2) 0.10988(16)
C25_7 C 0.89974(15) 0.5729(2) 0.07242(16)
H14_7 H 0.9086 0.5432 0.0477
C26_7 C 0.91408(14) 0.6415(2) 0.07064(15)
C27_7 C 0.89912(14) 0.6855(2) 0.10580(16)
H15_7 H 0.9094 0.7321 0.1052
C28_7 C 0.86941(15) 0.6621(2) 0.14171(15)
C29_7 C 0.85667(15) 0.5927(2) 0.14408(16)
H16_7 H 0.8370 0.5766 0.1692
C30_7 C 0.84904(14) 0.7110(2) 0.17721(16)
C31_7 C 0.94416(14) 0.6667(2) 0.02990(16)
C32_7 C 0.76557(15) 0.3513(2) 0.16779(15)
H20_7 H 0.9759 0.6042 0.1557
H21_7 H 0.9881 0.5240 0.1524
C37_7 C 0.6995(3) 0.5573(3) 0.1729(2)
H26_7 H 0.7181 0.5143 0.1691
H27_7 H 0.6875 0.5730 0.1426
H28_7 H 0.7216 0.5921 0.1863
C38_7 C 0.6524(2) 0.5449(3) 0.2068(2)
C39_7 C 0.6288(3) 0.6605(3) 0.1846(3)
H29_7 H 0.6315 0.6976 0.2074
H30_7 H 0.6598 0.6581 0.1664
H31_7 H 0.6005 0.6695 0.1639
C40_7 C 0.5777(3) 0.5814(4) 0.2360(3)
H32_7 H 0.5763 0.6137 0.2619
H33_7 H 0.5477 0.5866 0.2168
H34_7 H 0.5793 0.5344 0.2479
C41_7 C 0.6064(2) 0.4236(3) 0.10149(18)
C42_7 C 0.6297(4) 0.3644(3) 0.0775(2)
H35_7 H 0.6337 0.3264 0.0994
H36_7 H 0.6082 0.3498 0.0519
H37_7 H 0.6625 0.3778 0.0655
C43_7 C 0.5692(4) 0.4622(5) 0.0276(3)
H38_7 H 0.5506 0.5023 0.0166
H39_7 H 0.6007 0.4582 0.0103
H40_7 H 0.5491 0.4208 0.0228
C44_7 C 0.5587(3) 0.5306(5) 0.0993(3)
H41_7 H 0.5222 0.5256 0.1014
H42_7 H 0.5728 0.5350 0.1304
H43_7 H 0.5667 0.5717 0.0812
C45_7 C 0.55834(17) 0.3329(3) 0.2763(2)
C46_7 C 0.5685(2) 0.2542(3) 0.2746(2)
H44_7 H 0.5845 0.2397 0.3035
H45_7 H 0.5367 0.2297 0.2708
H46_7 H 0.5906 0.2438 0.2485
C47_5 C 0.4977(2) 0.3103(4) 0.3391(2)
H47_5 H 0.4625 0.3248 0.3397
H48_5 H 0.4998 0.2627 0.3285
H49_7 H 0.5118 0.3139 0.3703
C48_7 C 0.5172(2) 0.4274(3) 0.3111(2)
H50_7 H 0.5195 0.4411 0.3437
H51_7 H 0.5424 0.4522 0.2931
H52_5 H 0.4838 0.4382 0.2992
O27_4 O 0.69548(10) 0.34275(13) 0.27033(10)
O28_4 O 0.68883(14) 0.25270(15) 0.31642(12)
O7_4 O 0.80452(10) 0.15725(13) 0.77033(10)
O8_4 O 0.81117(14) 0.24730(15) 0.81642(12)
O9_7 O 0.91927(12) 0.22961(14) 0.95752(11)
O10_7 O 0.95109(13) 0.12978(15) 0.97649(12)
C9_7 C 0.87228(14) 0.0308(2) 0.86988(15)
C10_7 C 0.84790(15) 0.0718(2) 0.83724(15)
H8_7 H 0.8329 0.0514 0.8108
C11_7 C 0.84553(14) 0.1427(2) 0.84338(15)
C12_7 C 0.86853(15) 0.1735(2) 0.88098(15)
H9_7 H 0.8666 0.2217 0.8851
C13_7 C 0.89459(15) 0.1333(2) 0.91284(15)
C14_7 C 0.89553(14) 0.0624(2) 0.90720(15)
H10_7 H 0.9125 0.0351 0.9294
C15_7 C 0.81910(14) 0.18576(19) 0.80828(15)
C16_7 C 0.92325(14) 0.1661(2) 0.95168(15)
C1_7 C 0.94399(16) 0.8028(2) 0.91375(17)
C2_7 C 0.90879(15) 0.8442(2) 0.88414(16)
C3_7 C 0.87713(16) 0.8121(2) 0.85319(16)
H5_7 H 0.8783 0.7637 0.8496
C4_7 C 0.84338(15) 0.8509(2) 0.82728(16)
C5_7 C 0.80802(15) 0.8164(2) 0.79484(15)
C6_7 C 0.84197(16) 0.9212(2) 0.83323(16)
H6_7 H 0.8184 0.9473 0.8161
C7_7 C 0.87411(14) 0.95482(19) 0.86364(15)
C8_7 C 0.90782(15) 0.9153(2) 0.88882(15)
H7_7 H 0.9305 0.9370 0.9095
O2_8 O 0.4807(4) 0.1310(3) 0.6583(2)
H1_8 H 0.4687 0.1056 0.6795
H2_8 H 0.4987 0.1557 0.6759
O4_8 O 0.38514(16) 0.0944(2) 0.5910(2)
H3_8 H 0.3764 0.0636 0.6101
H4_8 H 0.3592 0.1092 0.5772
O9_8 O 0.58073(12) 0.27039(14) 0.45752(11)
O10_8 O 0.54891(13) 0.37022(15) 0.47649(12)
O11_8 O 0.54207(10) 0.17194(13) 0.55332(11)
O12_8 O 0.59100(12) 0.25797(15) 0.57249(12)
O17_8 O 0.73106(11) 0.20896(15) 0.68306(12)
O18_8 O 0.77077(11) 0.10878(15) 0.67304(12)
O19_8 O 0.88919(13) 0.06925(18) 0.64415(13)
O20_8 O 0.84814(14) 0.00908(15) 0.72813(12)
O21_8 O 0.91955(12) 0.12961(18) 0.74868(13)
O22_8 O 0.49211(13) 0.02274(16) 0.58422(15)
N3_8 N 0.9199(2) 0.0300(3) 0.57645(18)
N4_8 N 0.97396(16) 0.1452(3) 0.80724(19)
C1_8 C 0.55601(16) 0.6972(2) 0.41375(17)
C2_8 C 0.59121(15) 0.6558(2) 0.38414(16)
C3_8 C 0.62287(16) 0.6879(2) 0.35319(16)
H5_8 H 0.6217 0.7363 0.3496
C4_8 C 0.65662(15) 0.6491(2) 0.32728(16)
C5_8 C 0.69198(15) 0.6836(2) 0.29484(15)
C6_8 C 0.65803(16) 0.5788(2) 0.33323(16)
H6_8 H 0.6816 0.5527 0.3161
C7_8 C 0.62589(14) 0.54518(19) 0.36364(15)
C8_8 C 0.59218(15) 0.5847(2) 0.38882(15)
H7_8 H 0.5695 0.5630 0.4095
C9_8 C 0.62772(14) 0.4692(2) 0.36988(15)
C10_8 C 0.65210(15) 0.4282(2) 0.33724(15)
H8_8 H 0.6671 0.4486 0.3108
C11_8 C 0.65447(14) 0.3573(2) 0.34338(15)
C12_8 C 0.63147(15) 0.3265(2) 0.38098(15)
H9_8 H 0.6334 0.2783 0.3851
C13_8 C 0.60541(15) 0.3667(2) 0.41284(15)
C14_8 C 0.60447(14) 0.4376(2) 0.40720(15)
H10_8 H 0.5875 0.4649 0.4294
C15_8 C 0.68090(14) 0.31424(19) 0.30828(15)
C16_8 C 0.57675(14) 0.3339(2) 0.45168(15)
C17_8 C 0.58079(15) 0.1957(2) 0.57340(15)
C18_8 C 0.61560(15) 0.1459(2) 0.59653(15)
C19_8 C 0.65652(14) 0.1690(2) 0.62133(15)
H11_8 H 0.6618 0.2169 0.6250
C20_8 C 0.69012(15) 0.1229(2) 0.64104(15)
C21_8 C 0.68131(15) 0.0527(2) 0.63655(15)
H12_8 H 0.7045 0.0210 0.6493
C22_8 C 0.63855(15) 0.0280(2) 0.61337(15)
C23_8 C 0.60622(14) 0.0758(2) 0.59320(15)
H13_8 H 0.5774 0.0602 0.5770
C32_8 C 0.73443(15) 0.1487(2) 0.66779(15)
C41_8 C 0.8936(2) 0.0764(3) 0.60149(18)
C42_8 C 0.8703(4) 0.1356(3) 0.5775(2)
H35_8 H 0.8663 0.1736 0.5994
H36_8 H 0.8918 0.1502 0.5519
H37_8 H 0.8375 0.1222 0.5655
C43_8 C 0.9308(4) 0.0378(5) 0.5276(3)
H39_8 H 0.8993 0.0418 0.5103
H40_8 H 0.9509 0.0792 0.5228
C45_8 C 0.94166(17) 0.1671(3) 0.7763(2)
C46_8 C 0.9315(2) 0.2458(3) 0.7746(2)
H44_8 H 0.9155 0.2603 0.8035
H45_8 H 0.9633 0.2703 0.7708
H46_8 H 0.9094 0.2562 0.7485
H49_8 H 0.9882 0.1861 0.8703
C48_8 C 0.9828(2) 0.0726(3) 0.8111(2)
H50_8 H 0.9805 0.0589 0.8437
H51_8 H 0.9576 0.0478 0.7931
N1_8 N 0.47033(18) 0.9182(2) 0.60844(18)
N2_8 N 0.8790(2) 0.9050(3) 0.7087(2)
C24_8 C 0.62739(14) 0.9533(2) 0.60988(16)
C25_8 C 0.60026(15) 0.9271(2) 0.57242(16)
H14_8 H 0.5914 0.9568 0.5477
C26_8 C 0.58592(14) 0.8585(2) 0.57064(15)
C27_8 C 0.60088(14) 0.8145(2) 0.60580(16)
H15_8 H 0.5906 0.7679 0.6052
C28_8 C 0.63059(15) 0.8379(2) 0.64171(15)
C29_8 C 0.64333(15) 0.9073(2) 0.64408(16)
H16_8 H 0.6630 0.9234 0.6692
C30_8 C 0.65096(14) 0.7890(2) 0.67721(16)
C31_8 C 0.55584(14) 0.8333(2) 0.52990(16)
C33_8 C 0.4415(2) 0.9557(3) 0.5328(2)
H17_8 H 0.4557 0.9156 0.5172
H18_8 H 0.4060 0.9474 0.5394
H19_8 H 0.4448 0.9960 0.5128
C34_8 C 0.46932(18) 0.9681(3) 0.5780(2)
C35_8 C 0.4974(3) 0.9299(4) 0.6524(2)
H20_8 H 0.5241 0.8958 0.6557
H21_8 H 0.5119 0.9760 0.6524
H22_8 H 0.4740 0.9255 0.6784
C36_8 C 0.4458(3) 0.8529(3) 0.6028(3)
H23_8 H 0.4710 0.8167 0.6001
H24_8 H 0.4244 0.8439 0.6297
H25_8 H 0.4252 0.8538 0.5747
C37_8 C 0.8005(3) 0.9427(3) 0.6729(2)
H26_8 H 0.7819 0.9857 0.6691
H27_8 H 0.8125 0.9270 0.6426
H28_8 H 0.7784 0.9079 0.6863
C38_8 C 0.8476(2) 0.9551(3) 0.7068(2)
C39_8 C 0.8712(3) 0.8395(3) 0.6846(3)
H29_8 H 0.8685 0.8024 0.7074
H30_8 H 0.8402 0.8419 0.6664
H31_8 H 0.8995 0.8305 0.6639
C40_8 C 0.9223(3) 0.9186(4) 0.7360(3)
H32_8 H 0.9237 0.8863 0.7619
H33_8 H 0.9523 0.9134 0.7168
H34_8 H 0.9207 0.9656 0.7479
H38_8 H 0.9494 0.9977 0.5166
C44_8 C 0.9413(3) 0.9694(5) 0.5993(3)
H41_8 H 0.9778 0.9744 0.6014
H42_8 H 0.9272 0.9650 0.6304
H43_8 H 0.9333 0.9283 0.5812
C47_6 C 0.9977(2) 0.8103(4) 0.1609(2)
H47_6 H 0.9625 0.8248 0.1603
H48_6 H 0.9998 0.7627 0.1715
H52_6 H 0.9838 0.9382 0.2008
C47_7 C 0.9977(2) 0.1897(4) 0.6609(2)
H47_7 H 0.9625 0.1752 0.6603
H48_7 H 0.9998 0.2373 0.6715
H52_7 H 0.9838 0.0618 0.7008
C47_8 C 0.0023(2) 0.1897(4) 0.8391(2)
H47_8 H 0.0375 0.1752 0.8397
H48_8 H 0.0002 0.2373 0.8285
H52_8 H 0.0162 0.0618 0.7992
loop_
_geom_bond_atom_site_label_1
_geom_bond_atom_site_label_2
_geom_bond_site_symmetry_1
_geom_bond_site_symmetry_2
H47 C47 1_555 1_555
H48 C47 1_555 1_555
O14 C31 1_555 1_555
O15 C30 1_555 1_555
O16 C30 1_555 1_555
N1 C34 1_555 1_555
N2 C38 1_555 1_555
C25 C24 1_555 1_555
H14 C25 1_555 1_555
C26 C25 1_555 1_555
C27 C26 1_555 1_555
H15 C27 1_555 1_555
C28 C27 1_555 1_555
C29 C24 1_555 1_555
H16 C29 1_555 1_555
C30 C28 1_555 1_555
C31 C26 1_555 1_555
C33 H17 1_555 1_555
H18 C33 1_555 1_555
H19 C33 1_555 1_555
C35 N1 1_555 1_555
H20 C35 1_555 1_555
H21 C35 1_555 1_555
H22 C35 1_555 1_555
C36 N1 1_555 1_555
H23 C36 1_555 1_555
H24 C36 1_555 1_555
H25 C36 1_555 1_555
C37 H26 1_555 1_555
H27 C37 1_555 1_555
H28 C37 1_555 1_555
C39 N2 1_555 1_555
H29 C39 1_555 1_555
H30 C39 1_555 1_555
H31 C39 1_555 1_555
C40 N2 1_555 1_555
H32 C40 1_555 1_555
H33 C40 1_555 1_555
H34 C40 1_555 1_555
H41 C44 1_555 1_555
H42 C44 1_555 1_555
H43 C44 1_555 1_555
Cd10 O15 1_555 1_555
Cd12 O16 1_555 1_555
C28 C29 1_555 1_555
C33 C34 1_555 1_555
C37 C38 1_555 1_555
Cd8 O13 1_555 1_555
Cd2 O2 1_555 1_555
Cd3 O18 1_555 1_555
Cd4 O17 1_555 1_555
O2 H1 1_555 1_555
H2 O2 1_555 1_555
O4 Cd2 1_555 1_555
H3 O4 1_555 1_555
H4 O4 1_555 1_555
O11 Cd1 1_555 1_555
O12 Cd1 1_555 1_555
O17 C32 1_555 1_555
O18 C32 1_555 1_555
O19 Cd3 1_555 1_555
O20 Cd3 1_555 1_555
O21 Cd3 1_555 1_555
O22 Cd2 1_555 1_555
N3 C41 1_555 1_555
N4 C45 1_555 1_555
C17 O11 1_555 1_555
C18 C17 1_555 1_555
C19 C18 1_555 1_555
H11 C19 1_555 1_555
C20 C19 1_555 1_555
C21 C20 1_555 1_555
H12 C21 1_555 1_555
C22 C21 1_555 1_555
C23 C18 1_555 1_555
H13 C23 1_555 1_555
C32 C20 1_555 1_555
C41 O19 1_555 1_555
C42 C41 1_555 1_555
H35 C42 1_555 1_555
H36 C42 1_555 1_555
H37 C42 1_555 1_555
C43 N3 1_555 1_555
H39 C43 1_555 1_555
H40 C43 1_555 1_555
C45 O21 1_555 1_555
C46 C45 1_555 1_555
H44 C46 1_555 1_555
H45 C46 1_555 1_555
H46 C46 1_555 1_555
C48 N4 1_555 1_555
H50 C48 1_555 1_555
H51 C48 1_555 1_555
O23 Cd4 1_555 1_555
O24 Cd4 1_555 1_555
O25 Cd2 1_555 1_555
O26 Cd1 1_555 1_555
O27 Cd3 1_555 1_555
O28 Cd4 1_555 1_555
O29 Cd2 1_555 1_555
O31 Cd3 1_555 1_555
O32 Cd4 1_555 1_555
Cd2 O11 1_555 1_555
Cd4 O27 1_555 1_555
O12 C17 1_555 1_555
C22 C23 1_555 1_555
O1 C5 1_555 1_555
O3 C5 1_555 1_555
O5 C1 1_555 1_555
O6 C1 1_555 1_555
O7 C15 1_555 1_555
O8 C15 1_555 1_555
O9 C16 1_555 1_555
C1 C2 1_555 1_555
C2 C3 1_555 1_555
C3 H5 1_555 1_555
C4 C3 1_555 1_555
C5 C4 1_555 1_555
C6 C4 1_555 1_555
H6 C6 1_555 1_555
C7 C6 1_555 1_555
C8 C2 1_555 1_555
H7 C8 1_555 1_555
C9 C7 1_555 1_555
C10 C9 1_555 1_555
H8 C10 1_555 1_555
C11 C10 1_555 1_555
C12 C11 1_555 1_555
H9 C12 1_555 1_555
C13 C12 1_555 1_555
C14 C9 1_555 1_555
H10 C14 1_555 1_555
C15 C11 1_555 1_555
C16 O10 1_555 1_555
Cd6 O6 1_555 1_555
Cd8 O5 1_555 1_555
Cd9 O7 1_555 1_555
Cd11 O7 1_555 1_555
Cd13 O1 1_555 1_555
O3 Cd13 1_555 1_555
O8 Cd11 1_555 1_555
C7 C8 1_555 1_555
C13 C14 1_555 1_555
C13 C16 1_555 1_555
Cd2_2 O2_2 1_555 1_555
O2_2 H1_2 1_555 1_555
H2_2 O2_2 1_555 1_555
O4_2 Cd2_2 1_555 1_555
H3_2 O4_2 1_555 1_555
H4_2 O4_2 1_555 1_555
O22_2 Cd2_2 1_555 1_555
N1_2 C34_2 1_555 1_555
C33_2 H17_2 1_555 1_555
H18_2 C33_2 1_555 1_555
H19_2 C33_2 1_555 1_555
C34_2 O22_2 1_555 1_555
C35_2 N1_2 1_555 1_555
H22_2 C35_2 1_555 1_555
C36_2 N1_2 1_555 1_555
H23_2 C36_2 1_555 1_555
H24_2 C36_2 1_555 1_555
H25_2 C36_2 1_555 1_555
O25_2 Cd2_2 1_555 1_555
O29_2 Cd2_2 1_555 1_555
C33_2 C34_2 1_555 1_555
O1_2 C5_2 1_555 1_555
O3_2 C5_2 1_555 1_555
O5_2 C1_2 1_555 1_555
O6_2 C1_2 1_555 1_555
C1_2 C2_2 1_555 1_555
C2_2 C3_2 1_555 1_555
C3_2 H5_2 1_555 1_555
C4_2 C3_2 1_555 1_555
C5_2 C4_2 1_555 1_555
C6_2 C4_2 1_555 1_555
H6_2 C6_2 1_555 1_555
C7_2 C6_2 1_555 1_555
C8_2 C2_2 1_555 1_555
H7_2 C8_2 1_555 1_555
Cd7 O5_2 1_555 1_555
Cd12 O1_2 1_555 1_555
O3_2 Cd12 1_555 1_555
C7_2 C8_2 1_555 1_555
Cd1_2 O9_2 1_555 1_555
Cd9 O18_2 1_555 1_555
Cd11 O17_2 1_555 1_555
O27 C15_2 1_555 1_555
O28 C15_2 1_555 1_555
O9_2 C16_2 1_555 1_555
O10_2 Cd1_2 1_555 1_555
O11_2 Cd1_2 1_555 1_555
O12_2 Cd1_2 1_555 1_555
O13_2 C31_2 1_555 1_555
O14_2 C31_2 1_555 1_555
O15_2 C30_2 1_555 1_555
O16_2 C30_2 1_555 1_555
O17_2 C32_2 1_555 1_555
O18_2 C32_2 1_555 1_555
O19_2 Cd9 1_555 1_555
O20_2 Cd9 1_555 1_555
O21_2 Cd9 1_555 1_555
N2_2 C38_2 1_555 1_555
N3_2 C41_2 1_555 1_555
N4_2 C45_2 1_555 1_555
C10_2 C9_2 1_555 1_555
H8_2 C10_2 1_555 1_555
C11_2 C10_2 1_555 1_555
C12_2 C11_2 1_555 1_555
H9_2 C12_2 1_555 1_555
C13_2 C12_2 1_555 1_555
C14_2 C9_2 1_555 1_555
H10_2 C14_2 1_555 1_555
C15_2 C11_2 1_555 1_555
C16_2 O10_2 1_555 1_555
C17_2 O11_2 1_555 1_555
C18_2 C17_2 1_555 1_555
C19_2 C18_2 1_555 1_555
H11_2 C19_2 1_555 1_555
C20_2 C19_2 1_555 1_555
C21_2 C20_2 1_555 1_555
H12_2 C21_2 1_555 1_555
C22_2 C21_2 1_555 1_555
C23_2 C18_2 1_555 1_555
H13_2 C23_2 1_555 1_555
C24_2 C22_2 1_555 1_555
C25_2 C24_2 1_555 1_555
H14_2 C25_2 1_555 1_555
C26_2 C25_2 1_555 1_555
C27_2 C26_2 1_555 1_555
H15_2 C27_2 1_555 1_555
C28_2 C27_2 1_555 1_555
C29_2 C24_2 1_555 1_555
H16_2 C29_2 1_555 1_555
C30_2 C28_2 1_555 1_555
C31_2 C26_2 1_555 1_555
C32_2 C20_2 1_555 1_555
C37_2 H26_2 1_555 1_555
H27_2 C37_2 1_555 1_555
H28_2 C37_2 1_555 1_555
C38_2 O20_2 1_555 1_555
C39_2 N2_2 1_555 1_555
H29_2 C39_2 1_555 1_555
H30_2 C39_2 1_555 1_555
H31_2 C39_2 1_555 1_555
C40_2 N2_2 1_555 1_555
H32_2 C40_2 1_555 1_555
H33_2 C40_2 1_555 1_555
H34_2 C40_2 1_555 1_555
C41_2 O19_2 1_555 1_555
C42_2 C41_2 1_555 1_555
H35_2 C42_2 1_555 1_555
H36_2 C42_2 1_555 1_555
H37_2 C42_2 1_555 1_555
C43_2 N3_2 1_555 1_555
H38_2 C43_2 1_555 1_555
H39_2 C43_2 1_555 1_555
H40_2 C43_2 1_555 1_555
C44_2 N3_2 1_555 1_555
H41_2 C44_2 1_555 1_555
H42_2 C44_2 1_555 1_555
H43_2 C44_2 1_555 1_555
C45_2 O21_2 1_555 1_555
C46_2 C45_2 1_555 1_555
H44_2 C46_2 1_555 1_555
H45_2 C46_2 1_555 1_555
H46_2 C46_2 1_555 1_555
C47_2 N4_2 1_555 1_555
H47_2 C47_2 1_555 1_555
H48_2 C47_2 1_555 1_555
H49_2 C47_2 1_555 1_555
C48_2 N4_2 1_555 1_555
H50_2 C48_2 1_555 1_555
H51_2 C48_2 1_555 1_555
H52_2 C48_2 1_555 1_555
Cd7 O13_2 1_555 1_555
Cd10_2 O15_2 1_555 1_555
Cd13 O16_2 1_555 1_555
O23_2 Cd11 1_555 1_555
O24_2 Cd11 1_555 1_555
O31_2 Cd9 1_555 1_555
O32_2 Cd11 1_555 1_555
O12_2 C17_2 1_555 1_555
C13_2 C14_2 1_555 1_555
C13_2 C16_2 1_555 1_555
C22_2 C23_2 1_555 1_555
C28_2 C29_2 1_555 1_555
C37_2 C38_2 1_555 1_555
O1_3 C5_3 1_555 1_555
O3_3 C5_3 1_555 1_555
O5_3 C1_3 1_555 1_555
O6_3 C1_3 1_555 1_555
C1_3 C2_3 1_555 1_555
C2_3 C3_3 1_555 1_555
C3_3 H5_3 1_555 1_555
C4_3 C3_3 1_555 1_555
C5_3 C4_3 1_555 1_555
C6_3 C4_3 1_555 1_555
H6_3 C6_3 1_555 1_555
C7_3 C6_3 1_555 1_555
C8_3 C2_3 1_555 1_555
H7_3 C8_3 1_555 1_555
Cd7_2 O5_3 1_555 1_555
Cd13_2 O1_3 1_555 1_555
O3_3 Cd13_2 1_555 1_555
C7_3 C8_3 1_555 1_555
O7_2 C15_3 1_555 1_555
O8_2 C15_3 1_555 1_555
O9_3 C16_3 1_555 1_555
C10_3 C9_3 1_555 1_555
H8_3 C10_3 1_555 1_555
C11_3 C10_3 1_555 1_555
C12_3 C11_3 1_555 1_555
H9_3 C12_3 1_555 1_555
C13_3 C12_3 1_555 1_555
C14_3 C9_3 1_555 1_555
H10_3 C14_3 1_555 1_555
C15_3 C11_3 1_555 1_555
C16_3 O10_3 1_555 1_555
Cd7_2 O13_3 1_555 1_555
Cd9_2 O7_2 1_555 1_555
Cd11_2 O7_2 1_555 1_555
O8_2 Cd11_2 1_555 1_555
C13_3 C14_3 1_555 1_555
C13_3 C16_3 1_555 1_555
Cd3_2 O18_3 1_555 1_555
Cd4_2 O17_3 1_555 1_555
O11_3 Cd1_3 1_555 1_555
O12_3 Cd1_3 1_555 1_555
O14_3 C31_3 1_555 1_555
O15_3 C30_3 1_555 1_555
O16_3 C30_3 1_555 1_555
O17_3 C32_3 1_555 1_555
O18_3 C32_3 1_555 1_555
O19_3 Cd3_2 1_555 1_555
O20_3 Cd3_2 1_555 1_555
O21_3 Cd3_2 1_555 1_555
N2_3 C38_3 1_555 1_555
N3_3 C41_3 1_555 1_555
N4_3 C45_3 1_555 1_555
C17_3 O11_3 1_555 1_555
C18_3 C17_3 1_555 1_555
C19_3 C18_3 1_555 1_555
H11_3 C19_3 1_555 1_555
C20_3 C19_3 1_555 1_555
C21_3 C20_3 1_555 1_555
H12_3 C21_3 1_555 1_555
C22_3 C21_3 1_555 1_555
C23_3 C18_3 1_555 1_555
H13_3 C23_3 1_555 1_555
C24_3 C22_3 1_555 1_555
C25_3 C24_3 1_555 1_555
H14_3 C25_3 1_555 1_555
C26_3 C25_3 1_555 1_555
C27_3 C26_3 1_555 1_555
H15_3 C27_3 1_555 1_555
C28_3 C27_3 1_555 1_555
C29_3 C24_3 1_555 1_555
H16_3 C29_3 1_555 1_555
C30_3 C28_3 1_555 1_555
C31_3 C26_3 1_555 1_555
C32_3 C20_3 1_555 1_555
C37_3 H26_3 1_555 1_555
H27_3 C37_3 1_555 1_555
H28_3 C37_3 1_555 1_555
C38_3 O20_3 1_555 1_555
C39_3 N2_3 1_555 1_555
H29_3 C39_3 1_555 1_555
H30_3 C39_3 1_555 1_555
H31_3 C39_3 1_555 1_555
C40_3 N2_3 1_555 1_555
H32_3 C40_3 1_555 1_555
H33_3 C40_3 1_555 1_555
H34_3 C40_3 1_555 1_555
C41_3 O19_3 1_555 1_555
C42_3 C41_3 1_555 1_555
H35_3 C42_3 1_555 1_555
H36_3 C42_3 1_555 1_555
H37_3 C42_3 1_555 1_555
C43_3 N3_3 1_555 1_555
H38_3 C43_3 1_555 1_555
H39_3 C43_3 1_555 1_555
H40_3 C43_3 1_555 1_555
C44_3 N3_3 1_555 1_555
H41_3 C44_3 1_555 1_555
H42_3 C44_3 1_555 1_555
H43_3 C44_3 1_555 1_555
C45_3 O21_3 1_555 1_555
C46_3 C45_3 1_555 1_555
H44_3 C46_3 1_555 1_555
H45_3 C46_3 1_555 1_555
H46_3 C46_3 1_555 1_555
C47_3 N4_3 1_555 1_555
H47_3 C47_3 1_555 1_555
H48_3 C47_3 1_555 1_555
H49_3 C47_3 1_555 1_555
C48_3 N4_3 1_555 1_555
H50_3 C48_3 1_555 1_555
H51_3 C48_3 1_555 1_555
H52_3 C48_3 1_555 1_555
Cd10_3 O15_3 1_555 1_555
Cd12_2 O16_3 1_555 1_555
O23_3 Cd4_2 1_555 1_555
O24_3 Cd4_2 1_555 1_555
O27_2 Cd3_2 1_555 1_555
O28_2 Cd4_2 1_555 1_555
O31_3 Cd3_2 1_555 1_555
O32_3 Cd4_2 1_555 1_555
Cd4_2 O27_2 1_555 1_555
O12_3 C17_3 1_555 1_555
C22_3 C23_3 1_555 1_555
C28_3 C29_3 1_555 1_555
C37_3 C38_3 1_555 1_555
Cd2_3 O2_3 1_555 1_555
O2_3 H1_3 1_555 1_555
H2_3 O2_3 1_555 1_555
O4_3 Cd2_3 1_555 1_555
H3_3 O4_3 1_555 1_555
H4_3 O4_3 1_555 1_555
O22_3 Cd2_3 1_555 1_555
N1_3 C34_3 1_555 1_555
C33_3 H17_3 1_555 1_555
H18_3 C33_3 1_555 1_555
H19_3 C33_3 1_555 1_555
C34_3 O22_3 1_555 1_555
C35_3 N1_3 1_555 1_555
H22_3 C35_3 1_555 1_555
C36_3 N1_3 1_555 1_555
H23_3 C36_3 1_555 1_555
H24_3 C36_3 1_555 1_555
H25_3 C36_3 1_555 1_555
O25_3 Cd2_3 1_555 1_555
O29_3 Cd2_3 1_555 1_555
C33_3 C34_3 1_555 1_555
O13_4 C31_4 1_555 1_555
O14_4 C31_4 1_555 1_555
O15_4 C30_4 1_555 1_555
O16_4 C30_4 1_555 1_555
N1_4 C34_4 1_555 1_555
N2_4 C38_4 1_555 1_555
C25_4 C24_4 1_555 1_555
H14_4 C25_4 1_555 1_555
C26_4 C25_4 1_555 1_555
C27_4 C26_4 1_555 1_555
H15_4 C27_4 1_555 1_555
C28_4 C27_4 1_555 1_555
C29_4 C24_4 1_555 1_555
H16_4 C29_4 1_555 1_555
C30_4 C28_4 1_555 1_555
C31_4 C26_4 1_555 1_555
C33_4 H17_4 1_555 1_555
H18_4 C33_4 1_555 1_555
H19_4 C33_4 1_555 1_555
C35_4 N1_4 1_555 1_555
H20_4 C35_4 1_555 1_555
H21_4 C35_4 1_555 1_555
H22_4 C35_4 1_555 1_555
C36_4 N1_4 1_555 1_555
H23_4 C36_4 1_555 1_555
H24_4 C36_4 1_555 1_555
H25_4 C36_4 1_555 1_555
C37_4 H26_4 1_555 1_555
H27_4 C37_4 1_555 1_555
H28_4 C37_4 1_555 1_555
C39_4 N2_4 1_555 1_555
H29_4 C39_4 1_555 1_555
H30_4 C39_4 1_555 1_555
H31_4 C39_4 1_555 1_555
C40_4 N2_4 1_555 1_555
H32_4 C40_4 1_555 1_555
H33_4 C40_4 1_555 1_555
H34_4 C40_4 1_555 1_555
H41_4 C44_4 1_555 1_555
H42_4 C44_4 1_555 1_555
H43_4 C44_4 1_555 1_555
Cd6_2 O14_4 1_555 1_555
Cd8_2 O13_4 1_555 1_555
Cd10_4 O15_4 1_555 1_555
Cd13_2 O16_4 1_555 1_555
C28_4 C29_4 1_555 1_555
C33_4 C34_4 1_555 1_555
C37_4 C38_4 1_555 1_555
Cd1_4 O9_4 1_555 1_555
Cd2_4 O2_4 1_555 1_555
Cd9_2 O18_4 1_555 1_555
Cd11_2 O17_4 1_555 1_555
O1_4 C5_4 1_555 1_555
O2_4 H1_4 1_555 1_555
H2_4 O2_4 1_555 1_555
O3_4 C5_4 1_555 1_555
O4_4 Cd2_4 1_555 1_555
H3_4 O4_4 1_555 1_555
H4_4 O4_4 1_555 1_555
O5_4 C1_4 1_555 1_555
O6_4 C1_4 1_555 1_555
O27_2 C15_4 1_555 1_555
O28_2 C15_4 1_555 1_555
O9_4 C16_4 1_555 1_555
O10_4 Cd1_4 1_555 1_555
O11_4 Cd1_4 1_555 1_555
O12_4 Cd1_4 1_555 1_555
O17_4 C32_4 1_555 1_555
O18_4 C32_4 1_555 1_555
O19_4 Cd9_2 1_555 1_555
O20_4 Cd9_2 1_555 1_555
O21_4 Cd9_2 1_555 1_555
O22_4 Cd2_4 1_555 1_555
N3_4 C41_4 1_555 1_555
N4_4 C45_4 1_555 1_555
C1_4 C2_4 1_555 1_555
C2_4 C3_4 1_555 1_555
C3_4 H5_4 1_555 1_555
C4_4 C3_4 1_555 1_555
C5_4 C4_4 1_555 1_555
C6_4 C4_4 1_555 1_555
H6_4 C6_4 1_555 1_555
C7_4 C6_4 1_555 1_555
C8_4 C2_4 1_555 1_555
H7_4 C8_4 1_555 1_555
C9_4 C7_4 1_555 1_555
C10_4 C9_4 1_555 1_555
H8_4 C10_4 1_555 1_555
C11_4 C10_4 1_555 1_555
C12_4 C11_4 1_555 1_555
H9_4 C12_4 1_555 1_555
C13_4 C12_4 1_555 1_555
C14_4 C9_4 1_555 1_555
H10_4 C14_4 1_555 1_555
C15_4 C11_4 1_555 1_555
C16_4 O10_4 1_555 1_555
C17_4 O11_4 1_555 1_555
C18_4 C17_4 1_555 1_555
C19_4 C18_4 1_555 1_555
H11_4 C19_4 1_555 1_555
C20_4 C19_4 1_555 1_555
C21_4 C20_4 1_555 1_555
H12_4 C21_4 1_555 1_555
C22_4 C21_4 1_555 1_555
C23_4 C18_4 1_555 1_555
H13_4 C23_4 1_555 1_555
C32_4 C20_4 1_555 1_555
C41_4 O19_4 1_555 1_555
C42_4 C41_4 1_555 1_555
H35_4 C42_4 1_555 1_555
H36_4 C42_4 1_555 1_555
H37_4 C42_4 1_555 1_555
C43_4 N3_4 1_555 1_555
H39_4 C43_4 1_555 1_555
H40_4 C43_4 1_555 1_555
C45_4 O21_4 1_555 1_555
C46_4 C45_4 1_555 1_555
H44_4 C46_4 1_555 1_555
H45_4 C46_4 1_555 1_555
H46_4 C46_4 1_555 1_555
C48_4 N4_4 1_555 1_555
H50_4 C48_4 1_555 1_555
H51_4 C48_4 1_555 1_555
Cd6_2 O6_4 1_555 1_555
Cd8_2 O5_4 1_555 1_555
Cd12_2 O1_4 1_555 1_555
O23_4 Cd11_2 1_555 1_555
O24_4 Cd11_2 1_555 1_555
O25_4 Cd2_4 1_555 1_555
O26_4 Cd1_4 1_555 1_555
O29_4 Cd2_4 1_555 1_555
O30_4 Cd1_4 1_555 1_555
O31_4 Cd9_2 1_555 1_555
O32_4 Cd11_2 1_555 1_555
Cd2_4 O11_4 1_555 1_555
O3_4 Cd12_2 1_555 1_555
O12_4 C17_4 1_555 1_555
C7_4 C8_4 1_555 1_555
C13_4 C14_4 1_555 1_555
C13_4 C16_4 1_555 1_555
C22_4 C23_4 1_555 1_555
O23_4 C5_5 1_555 1_555
O24_4 C5_5 1_555 1_555
O25 C1_5 1_555 1_555
O26 C1_5 1_555 1_555
O7_3 C15_5 1_555 1_555
O8_3 C15_5 1_555 1_555
O9_5 C16_5 1_555 1_555
C1_5 C2_5 1_555 1_555
C2_5 C3_5 1_555 1_555
C3_5 H5_5 1_555 1_555
C4_5 C3_5 1_555 1_555
C5_5 C4_5 1_555 1_555
C6_5 C4_5 1_555 1_555
H6_5 C6_5 1_555 1_555
C7_5 C6_5 1_555 1_555
C8_5 C2_5 1_555 1_555
H7_5 C8_5 1_555 1_555
C9_5 C7_5 1_555 1_555
C10_5 C9_5 1_555 1_555
H8_5 C10_5 1_555 1_555
C11_5 C10_5 1_555 1_555
C12_5 C11_5 1_555 1_555
H9_5 C12_5 1_555 1_555
C13_5 C12_5 1_555 1_555
C14_5 C9_5 1_555 1_555
H10_5 C14_5 1_555 1_555
C15_5 C11_5 1_555 1_555
C16_5 O10_5 1_555 1_555
Cd10_4 O7_3 1_555 1_555
Cd13_2 O7_3 1_555 1_555
O8_3 Cd13_2 1_555 1_555
C7_5 C8_5 1_555 1_555
C13_5 C14_5 1_555 1_555
C13_5 C16_5 1_555 1_555
Cd8 O2_5 1_555 1_555
Cd10_3 O18_5 1_555 1_555
Cd12_2 O17_5 1_555 1_555
O2_5 H1_5 1_555 1_555
H2_5 O2_5 1_555 1_555
O4_5 Cd8 1_555 1_555
H3_5 O4_5 1_555 1_555
H4_5 O4_5 1_555 1_555
O11_5 Cd6 1_555 1_555
O12_5 Cd6 1_555 1_555
O17_5 C32_5 1_555 1_555
O18_5 C32_5 1_555 1_555
O19_5 Cd10_3 1_555 1_555
O20_5 Cd10_3 1_555 1_555
O21_5 Cd10_3 1_555 1_555
O22_5 Cd8 1_555 1_555
N3_5 C41_5 1_555 1_555
N4_5 C45_5 1_555 1_555
C17_5 O11_5 1_555 1_555
C18_5 C17_5 1_555 1_555
C19_5 C18_5 1_555 1_555
H11_5 C19_5 1_555 1_555
C20_5 C19_5 1_555 1_555
C21_5 C20_5 1_555 1_555
H12_5 C21_5 1_555 1_555
C22_5 C21_5 1_555 1_555
C23_5 C18_5 1_555 1_555
H13_5 C23_5 1_555 1_555
C32_5 C20_5 1_555 1_555
C41_5 O19_5 1_555 1_555
C42_5 C41_5 1_555 1_555
H35_5 C42_5 1_555 1_555
H36_5 C42_5 1_555 1_555
H37_5 C42_5 1_555 1_555
C43_5 N3_5 1_555 1_555
H39_5 C43_5 1_555 1_555
H40_5 C43_5 1_555 1_555
C45_5 O21_5 1_555 1_555
C46_5 C45_5 1_555 1_555
H44_5 C46_5 1_555 1_555
H45_5 C46_5 1_555 1_555
H46_5 C46_5 1_555 1_555
C48_5 N4_5 1_555 1_555
H50_5 C48_5 1_555 1_555
H51_5 C48_5 1_555 1_555
O27_3 Cd10_3 1_555 1_555
O28_3 Cd12_2 1_555 1_555
Cd8 O11_5 1_555 1_555
Cd12_2 O27_3 1_555 1_555
O12_5 C17_5 1_555 1_555
C22_5 C23_5 1_555 1_555
O30 C31_5 1_555 1_555
O31_3 C30_5 1_555 1_555
O32_3 C30_5 1_555 1_555
N1_5 C34_5 1_555 1_555
N2_5 C38_5 1_555 1_555
C25_5 C24_5 1_555 1_555
H14_5 C25_5 1_555 1_555
C26_5 C25_5 1_555 1_555
C27_5 C26_5 1_555 1_555
H15_5 C27_5 1_555 1_555
C28_5 C27_5 1_555 1_555
C29_5 C24_5 1_555 1_555
H16_5 C29_5 1_555 1_555
C30_5 C28_5 1_555 1_555
C31_5 C26_5 1_555 1_555
C33_5 H17_5 1_555 1_555
H18_5 C33_5 1_555 1_555
H19_5 C33_5 1_555 1_555
C35_5 N1_5 1_555 1_555
H20_5 C35_5 1_555 1_555
H21_5 C35_5 1_555 1_555
H22_5 C35_5 1_555 1_555
C36_5 N1_5 1_555 1_555
H23_5 C36_5 1_555 1_555
H24_5 C36_5 1_555 1_555
H25_5 C36_5 1_555 1_555
C37_5 H26_5 1_555 1_555
H27_5 C37_5 1_555 1_555
H28_5 C37_5 1_555 1_555
C39_5 N2_5 1_555 1_555
H29_5 C39_5 1_555 1_555
H30_5 C39_5 1_555 1_555
H31_5 C39_5 1_555 1_555
C40_5 N2_5 1_555 1_555
H32_5 C40_5 1_555 1_555
H33_5 C40_5 1_555 1_555
H34_5 C40_5 1_555 1_555
H41_5 C44_5 1_555 1_555
H42_5 C44_5 1_555 1_555
H43_5 C44_5 1_555 1_555
C28_5 C29_5 1_555 1_555
C33_5 C34_5 1_555 1_555
C37_5 C38_5 1_555 1_555
Cd5 O9_6 1_555 1_555
Cd10_4 O18_6 1_555 1_555
Cd13_2 O17_6 1_555 1_555
O27_3 C15_6 1_555 1_555
O28_3 C15_6 1_555 1_555
O9_6 C16_6 1_555 1_555
O10_6 Cd5 1_555 1_555
O11_6 Cd5 1_555 1_555
O12_6 Cd5 1_555 1_555
O29_2 C31_6 1_555 1_555
O30_2 C31_6 1_555 1_555
O31_4 C30_6 1_555 1_555
O32_4 C30_6 1_555 1_555
O17_6 C32_6 1_555 1_555
O18_6 C32_6 1_555 1_555
O19_6 Cd10_4 1_555 1_555
O20_6 Cd10_4 1_555 1_555
O21_6 Cd10_4 1_555 1_555
N2_6 C38_6 1_555 1_555
N3_6 C41_6 1_555 1_555
N4_6 C45_6 1_555 1_555
C10_6 C9_6 1_555 1_555
H8_6 C10_6 1_555 1_555
C11_6 C10_6 1_555 1_555
C12_6 C11_6 1_555 1_555
H9_6 C12_6 1_555 1_555
C13_6 C12_6 1_555 1_555
C14_6 C9_6 1_555 1_555
H10_6 C14_6 1_555 1_555
C15_6 C11_6 1_555 1_555
C16_6 O10_6 1_555 1_555
C17_6 O11_6 1_555 1_555
C18_6 C17_6 1_555 1_555
C19_6 C18_6 1_555 1_555
H11_6 C19_6 1_555 1_555
C20_6 C19_6 1_555 1_555
C21_6 C20_6 1_555 1_555
H12_6 C21_6 1_555 1_555
C22_6 C21_6 1_555 1_555
C23_6 C18_6 1_555 1_555
H13_6 C23_6 1_555 1_555
C24_6 C22_6 1_555 1_555
C25_6 C24_6 1_555 1_555
H14_6 C25_6 1_555 1_555
C26_6 C25_6 1_555 1_555
C27_6 C26_6 1_555 1_555
H15_6 C27_6 1_555 1_555
C28_6 C27_6 1_555 1_555
C29_6 C24_6 1_555 1_555
H16_6 C29_6 1_555 1_555
C30_6 C28_6 1_555 1_555
C31_6 C26_6 1_555 1_555
C32_6 C20_6 1_555 1_555
C37_6 H26_6 1_555 1_555
H27_6 C37_6 1_555 1_555
H28_6 C37_6 1_555 1_555
C38_6 O20_6 1_555 1_555
C39_6 N2_6 1_555 1_555
H29_6 C39_6 1_555 1_555
H30_6 C39_6 1_555 1_555
H31_6 C39_6 1_555 1_555
C40_6 N2_6 1_555 1_555
H32_6 C40_6 1_555 1_555
H33_6 C40_6 1_555 1_555
H34_6 C40_6 1_555 1_555
C41_6 O19_6 1_555 1_555
C42_6 C41_6 1_555 1_555
H35_6 C42_6 1_555 1_555
H36_6 C42_6 1_555 1_555
H37_6 C42_6 1_555 1_555
C43_6 N3_6 1_555 1_555
H38_6 C43_6 1_555 1_555
H39_6 C43_6 1_555 1_555
H40_6 C43_6 1_555 1_555
C44_6 N3_6 1_555 1_555
H41_6 C44_6 1_555 1_555
H42_6 C44_6 1_555 1_555
H43_6 C44_6 1_555 1_555
C45_6 O21_6 1_555 1_555
C46_6 C45_6 1_555 1_555
H44_6 C46_6 1_555 1_555
H45_6 C46_6 1_555 1_555
H46_6 C46_6 1_555 1_555
C47_4 N4_6 1_555 1_555
H47_4 C47_4 1_555 1_555
H48_4 C47_4 1_555 1_555
H49_6 C47_4 1_555 1_555
C48_6 N4_6 1_555 1_555
H50_6 C48_6 1_555 1_555
H51_6 C48_6 1_555 1_555
H52_4 C48_6 1_555 1_555
O12_6 C17_6 1_555 1_555
C13_6 C14_6 1_555 1_555
C13_6 C16_6 1_555 1_555
C22_6 C23_6 1_555 1_555
C28_6 C29_6 1_555 1_555
C37_6 C38_6 1_555 1_555
O23_3 C5_6 1_555 1_555
O24_3 C5_6 1_555 1_555
O25_2 C1_6 1_555 1_555
O26_2 C1_6 1_555 1_555
C1_6 C2_6 1_555 1_555
C2_6 C3_6 1_555 1_555
C3_6 H5_6 1_555 1_555
C4_6 C3_6 1_555 1_555
C5_6 C4_6 1_555 1_555
C6_6 C4_6 1_555 1_555
H6_6 C6_6 1_555 1_555
C7_6 C6_6 1_555 1_555
C8_6 C2_6 1_555 1_555
H7_6 C8_6 1_555 1_555
C7_6 C8_6 1_555 1_555
Cd7 O2_6 1_555 1_555
O2_6 H1_6 1_555 1_555
H2_6 O2_6 1_555 1_555
O4_6 Cd7 1_555 1_555
H3_6 O4_6 1_555 1_555
H4_6 O4_6 1_555 1_555
O22_6 Cd7 1_555 1_555
N1_6 C34_6 1_555 1_555
C33_6 H17_6 1_555 1_555
H18_6 C33_6 1_555 1_555
H19_6 C33_6 1_555 1_555
C34_6 O22_6 1_555 1_555
C35_6 N1_6 1_555 1_555
H22_6 C35_6 1_555 1_555
C36_6 N1_6 1_555 1_555
H23_6 C36_6 1_555 1_555
H24_6 C36_6 1_555 1_555
H25_6 C36_6 1_555 1_555
C33_6 C34_6 1_555 1_555
Cd7_2 O2_7 1_555 1_555
O2_7 H1_7 1_555 1_555
H2_7 O2_7 1_555 1_555
O4_7 Cd7_2 1_555 1_555
H3_7 O4_7 1_555 1_555
H4_7 O4_7 1_555 1_555
O22_7 Cd7_2 1_555 1_555
N1_7 C34_7 1_555 1_555
C33_7 H17_7 1_555 1_555
H18_7 C33_7 1_555 1_555
H19_7 C33_7 1_555 1_555
C34_7 O22_7 1_555 1_555
C35_7 N1_7 1_555 1_555
H22_7 C35_7 1_555 1_555
C36_7 N1_7 1_555 1_555
H23_7 C36_7 1_555 1_555
H24_7 C36_7 1_555 1_555
H25_7 C36_7 1_555 1_555
C33_7 C34_7 1_555 1_555
Cd10 O18_7 1_555 1_555
Cd12 O17_7 1_555 1_555
O11_7 Cd5_2 1_555 1_555
O12_7 Cd5_2 1_555 1_555
O30_3 C31_7 1_555 1_555
O31 C30_7 1_555 1_555
O32 C30_7 1_555 1_555
O17_7 C32_7 1_555 1_555
O18_7 C32_7 1_555 1_555
O19_7 Cd10 1_555 1_555
O20_7 Cd10 1_555 1_555
O21_7 Cd10 1_555 1_555
N2_7 C38_7 1_555 1_555
N3_7 C41_7 1_555 1_555
N4_7 C45_7 1_555 1_555
C17_7 O11_7 1_555 1_555
C18_7 C17_7 1_555 1_555
C19_7 C18_7 1_555 1_555
H11_7 C19_7 1_555 1_555
C20_7 C19_7 1_555 1_555
C21_7 C20_7 1_555 1_555
H12_7 C21_7 1_555 1_555
C22_7 C21_7 1_555 1_555
C23_7 C18_7 1_555 1_555
H13_7 C23_7 1_555 1_555
C24_7 C22_7 1_555 1_555
C25_7 C24_7 1_555 1_555
H14_7 C25_7 1_555 1_555
C26_7 C25_7 1_555 1_555
C27_7 C26_7 1_555 1_555
H15_7 C27_7 1_555 1_555
C28_7 C27_7 1_555 1_555
C29_7 C24_7 1_555 1_555
H16_7 C29_7 1_555 1_555
C30_7 C28_7 1_555 1_555
C31_7 C26_7 1_555 1_555
C32_7 C20_7 1_555 1_555
C37_7 H26_7 1_555 1_555
H27_7 C37_7 1_555 1_555
H28_7 C37_7 1_555 1_555
C38_7 O20_7 1_555 1_555
C39_7 N2_7 1_555 1_555
H29_7 C39_7 1_555 1_555
H30_7 C39_7 1_555 1_555
H31_7 C39_7 1_555 1_555
C40_7 N2_7 1_555 1_555
H32_7 C40_7 1_555 1_555
H33_7 C40_7 1_555 1_555
H34_7 C40_7 1_555 1_555
C41_7 O19_7 1_555 1_555
C42_7 C41_7 1_555 1_555
H35_7 C42_7 1_555 1_555
H36_7 C42_7 1_555 1_555
H37_7 C42_7 1_555 1_555
C43_7 N3_7 1_555 1_555
H38_7 C43_7 1_555 1_555
H39_7 C43_7 1_555 1_555
H40_7 C43_7 1_555 1_555
C44_7 N3_7 1_555 1_555
H41_7 C44_7 1_555 1_555
H42_7 C44_7 1_555 1_555
H43_7 C44_7 1_555 1_555
C45_7 O21_7 1_555 1_555
C46_7 C45_7 1_555 1_555
H44_7 C46_7 1_555 1_555
H45_7 C46_7 1_555 1_555
H46_7 C46_7 1_555 1_555
C47_5 N4_7 1_555 1_555
H47_5 C47_5 1_555 1_555
H48_5 C47_5 1_555 1_555
H49_7 C47_5 1_555 1_555
C48_7 N4_7 1_555 1_555
H50_7 C48_7 1_555 1_555
H51_7 C48_7 1_555 1_555
H52_5 C48_7 1_555 1_555
O27_4 Cd10 1_555 1_555
O28_4 Cd12 1_555 1_555
Cd12 O27_4 1_555 1_555
O12_7 C17_7 1_555 1_555
C22_7 C23_7 1_555 1_555
C28_7 C29_7 1_555 1_555
C37_7 C38_7 1_555 1_555
O7_4 C15_7 1_555 1_555
O8_4 C15_7 1_555 1_555
O9_7 C16_7 1_555 1_555
C10_7 C9_7 1_555 1_555
H8_7 C10_7 1_555 1_555
C11_7 C10_7 1_555 1_555
C12_7 C11_7 1_555 1_555
H9_7 C12_7 1_555 1_555
C13_7 C12_7 1_555 1_555
C14_7 C9_7 1_555 1_555
H10_7 C14_7 1_555 1_555
C15_7 C11_7 1_555 1_555
C16_7 O10_7 1_555 1_555
Cd10_2 O7_4 1_555 1_555
Cd13 O7_4 1_555 1_555
O8_4 Cd13 1_555 1_555
C13_7 C14_7 1_555 1_555
C13_7 C16_7 1_555 1_555
O23_2 C5_7 1_555 1_555
O24_2 C5_7 1_555 1_555
O25_3 C1_7 1_555 1_555
O26_3 C1_7 1_555 1_555
C1_7 C2_7 1_555 1_555
C2_7 C3_7 1_555 1_555
C3_7 H5_7 1_555 1_555
C4_7 C3_7 1_555 1_555
C5_7 C4_7 1_555 1_555
C6_7 C4_7 1_555 1_555
H6_7 C6_7 1_555 1_555
C7_7 C6_7 1_555 1_555
C8_7 C2_7 1_555 1_555
H7_7 C8_7 1_555 1_555
C7_7 C8_7 1_555 1_555
Cd6_2 O9_8 1_555 1_555
Cd8_2 O2_8 1_555 1_555
Cd10_2 O18_8 1_555 1_555
Cd13 O17_8 1_555 1_555
O23 C5_8 1_555 1_555
O2_8 H1_8 1_555 1_555
H2_8 O2_8 1_555 1_555
O24 C5_8 1_555 1_555
O4_8 Cd8_2 1_555 1_555
H3_8 O4_8 1_555 1_555
H4_8 O4_8 1_555 1_555
O25_4 C1_8 1_555 1_555
O26_4 C1_8 1_555 1_555
O27_4 C15_8 1_555 1_555
O28_4 C15_8 1_555 1_555
O9_8 C16_8 1_555 1_555
O10_8 Cd6_2 1_555 1_555
O11_8 Cd6_2 1_555 1_555
O12_8 Cd6_2 1_555 1_555
O17_8 C32_8 1_555 1_555
O18_8 C32_8 1_555 1_555
O19_8 Cd10_2 1_555 1_555
O20_8 Cd10_2 1_555 1_555
O21_8 Cd10_2 1_555 1_555
O22_8 Cd8_2 1_555 1_555
N3_8 C41_8 1_555 1_555
N4_8 C45_8 1_555 1_555
C1_8 C2_8 1_555 1_555
C2_8 C3_8 1_555 1_555
C3_8 H5_8 1_555 1_555
C4_8 C3_8 1_555 1_555
C5_8 C4_8 1_555 1_555
C6_8 C4_8 1_555 1_555
H6_8 C6_8 1_555 1_555
C7_8 C6_8 1_555 1_555
C8_8 C2_8 1_555 1_555
H7_8 C8_8 1_555 1_555
C9_8 C7_8 1_555 1_555
C10_8 C9_8 1_555 1_555
H8_8 C10_8 1_555 1_555
C11_8 C10_8 1_555 1_555
C12_8 C11_8 1_555 1_555
H9_8 C12_8 1_555 1_555
C13_8 C12_8 1_555 1_555
C14_8 C9_8 1_555 1_555
H10_8 C14_8 1_555 1_555
C15_8 C11_8 1_555 1_555
C16_8 O10_8 1_555 1_555
C17_8 O11_8 1_555 1_555
C18_8 C17_8 1_555 1_555
C19_8 C18_8 1_555 1_555
H11_8 C19_8 1_555 1_555
C20_8 C19_8 1_555 1_555
C21_8 C20_8 1_555 1_555
H12_8 C21_8 1_555 1_555
C22_8 C21_8 1_555 1_555
C23_8 C18_8 1_555 1_555
H13_8 C23_8 1_555 1_555
C32_8 C20_8 1_555 1_555
C41_8 O19_8 1_555 1_555
C42_8 C41_8 1_555 1_555
H35_8 C42_8 1_555 1_555
H36_8 C42_8 1_555 1_555
H37_8 C42_8 1_555 1_555
C43_8 N3_8 1_555 1_555
H39_8 C43_8 1_555 1_555
H40_8 C43_8 1_555 1_555
C45_8 O21_8 1_555 1_555
C46_8 C45_8 1_555 1_555
H44_8 C46_8 1_555 1_555
H45_8 C46_8 1_555 1_555
H46_8 C46_8 1_555 1_555
C48_8 N4_8 1_555 1_555
H50_8 C48_8 1_555 1_555
H51_8 C48_8 1_555 1_555
Cd8_2 O11_8 1_555 1_555
O12_8 C17_8 1_555 1_555
C7_8 C8_8 1_555 1_555
C13_8 C14_8 1_555 1_555
C13_8 C16_8 1_555 1_555
C22_8 C23_8 1_555 1_555
O29_4 C31_8 1_555 1_555
O30_4 C31_8 1_555 1_555
O31_2 C30_8 1_555 1_555
O32_2 C30_8 1_555 1_555
N1_8 C34_8 1_555 1_555
N2_8 C38_8 1_555 1_555
C25_8 C24_8 1_555 1_555
H14_8 C25_8 1_555 1_555
C26_8 C25_8 1_555 1_555
C27_8 C26_8 1_555 1_555
H15_8 C27_8 1_555 1_555
C28_8 C27_8 1_555 1_555
C29_8 C24_8 1_555 1_555
H16_8 C29_8 1_555 1_555
C30_8 C28_8 1_555 1_555
C31_8 C26_8 1_555 1_555
C33_8 H17_8 1_555 1_555
H18_8 C33_8 1_555 1_555
H19_8 C33_8 1_555 1_555
C35_8 N1_8 1_555 1_555
H20_8 C35_8 1_555 1_555
H21_8 C35_8 1_555 1_555
H22_8 C35_8 1_555 1_555
C36_8 N1_8 1_555 1_555
H23_8 C36_8 1_555 1_555
H24_8 C36_8 1_555 1_555
H25_8 C36_8 1_555 1_555
C37_8 H26_8 1_555 1_555
H27_8 C37_8 1_555 1_555
H28_8 C37_8 1_555 1_555
C39_8 N2_8 1_555 1_555
H29_8 C39_8 1_555 1_555
H30_8 C39_8 1_555 1_555
H31_8 C39_8 1_555 1_555
C40_8 N2_8 1_555 1_555
H32_8 C40_8 1_555 1_555
H33_8 C40_8 1_555 1_555
H34_8 C40_8 1_555 1_555
H41_8 C44_8 1_555 1_555
H42_8 C44_8 1_555 1_555
H43_8 C44_8 1_555 1_555
C28_8 C29_8 1_555 1_555
C33_8 C34_8 1_555 1_555
C37_8 C38_8 1_555 1_555
H47_6 C47_6 1_555 1_555
H48_6 C47_6 1_555 1_555
H47_7 C47_7 1_555 1_555
H48_7 C47_7 1_555 1_555
H47_8 C47_8 1_555 1_555
H48_8 C47_8 1_555 1_555

#END
