
###############################################################################
#
# This file contains modified crystal structure data generated from the
# MOF subset of the Cambridge Structural Database (CSD) v543 
# hosted by the Cambridge Crystallographic Data Centre (CCDC).
#
# This work is licensed under the Creative Commons
# Attribution-NonCommercial-ShareAlike 4.0 International License.
# To view a copy of this license, visit
# http://creativecommons.org/licenses/by-nc-sa/4.0/
# or send a letter to
# Creative Commons, PO Box 1866, Mountain View, CA 94042, USA.
#
# CIF created using the CSD Python API on 29 September 2022
# The structure has been converted into the P1 space group
# The structure has a 3D framework
# The original CSD entry DUWRUL is in the orthorhombic crystal system
# The original CSD entry DUWRUL is in a Sohncke space group
# The framework has been calculated to contain at least 10.0% void space
# The void calculation uses a probe of radius 1.32A, grid spacing 0.4
#
###############################################################################

data_DUWRUL
_chemical_formula_moiety         '(C56 H40 N4 O28 Tb2)n'
_symmetry_cell_setting           triclinic
_symmetry_space_group_name_H-M   'P 1'
_symmetry_Int_Tables_number      1
_space_group_name_Hall           'P 1'
loop_
_symmetry_equiv_pos_site_id
_symmetry_equiv_pos_as_xyz
1 x,y,z
_cell_length_a                   9.3503(4)
_cell_length_b                   12.6819(6)
_cell_length_c                   14.4423(7)
_cell_angle_alpha                90
_cell_angle_beta                 90
_cell_angle_gamma                90
_cell_volume                     1712.56
loop_
_atom_site_label
_atom_site_type_symbol
_atom_site_fract_x
_atom_site_fract_y
_atom_site_fract_z
Tb3 Tb 0.00904(2) 0.22208(2) 0.04703(2)
O3 O 0.8247(5) 0.1158(5) 0.1045(5)
O4 O 0.6099(4) 0.1628(4) 0.0546(3)
O7 O 0.0897(6) 0.1080(4) 0.1628(3)
N1 N 0.1906(5) 0.0060(4) 0.2734(4)
C4 C 0.6235(6) 0.0231(5) 0.1618(4)
C5 C 0.6913(7) 0.1078(5) 0.1026(4)
C6 C 0.4759(6) 0.0098(4) 0.1571(4)
H2 H 0.421940 0.052648 0.118232
C10 C 0.2380(6) 0.0185(5) 0.3694(4)
H6 H 0.333024 0.051152 0.370480
C12 C 0.1281(9) 0.0955(6) 0.4080(5)
H7 H 0.045181 0.058579 0.432150
H8 H 0.168947 0.138764 0.456661
C13 C 0.0892(9) 0.1615(6) 0.3238(5)
H10 H 0.146756 0.225055 0.321096
C14 C 0.1199(7) 0.0923(5) 0.2446(4)
Tb6 Tb 0.50904(2) 0.27792(2) 0.95297(2)
Tb1 Tb 0.49096(2) 0.77792(2) 0.54703(2)
O1 O 0.6405(4) 0.7906(4) 0.4178(3)
O2 O 0.8483(4) 0.8250(4) 0.3504(3)
O5 O 0.3483(5) 0.9011(3) 0.4734(3)
O6 O 0.1437(5) 0.8525(4) 0.4092(3)
C1 C 0.7146(5) 0.8305(4) 0.3548(4)
C2 C 0.6372(6) 0.8886(5) 0.2794(4)
C3 C 0.7044(6) 0.9628(5) 0.2239(4)
H1 H 0.802803 0.972417 0.227826
C7 C 0.4094(6) 0.9335(4) 0.2096(4)
C8 C 0.4895(6) 0.8728(4) 0.2701(3)
H3 H 0.444745 0.820816 0.305077
C9 C 0.2474(6) 0.9265(5) 0.2110(4)
H4 H 0.210079 0.937735 0.149093
H5 H 0.218137 0.856960 0.231483
C11 C 0.2426(6) 0.9142(4) 0.4206(4)
Tb5 Tb 0.99096(2) 0.72208(2) 0.45297(2)
O8 O 0.3483(4) 0.6750(4) 0.6496(3)
O9 O 0.6753(5) 0.8842(5) 0.6045(5)
O10 O 0.3901(4) 0.6628(4) 0.4454(3)
O11 O 0.6437(5) 0.6475(4) 0.5908(3)
O12 O 0.4103(6) 0.8920(4) 0.6628(3)
O8_2 O 0.1517(4) 0.3250(4) 0.1496(3)
O5_2 O 0.1517(5) 0.0989(3) 0.9734(3)
O6_2 O 0.3563(5) 0.1475(4) 0.9092(3)
C7_2 C 0.0906(6) 0.0665(4) 0.7096(4)
C8_2 C 0.0105(6) 0.1272(4) 0.7701(3)
H3_2 H 0.055255 0.179184 0.805077
C9_2 C 0.2526(6) 0.0735(5) 0.7110(4)
H4_2 H 0.289921 0.062265 0.649093
H5_2 H 0.281863 0.143040 0.731483
C11_2 C 0.2574(6) 0.0858(4) 0.9206(4)
O10_2 O 0.1099(4) 0.3372(4) 0.9454(3)
N1_2 N 0.3094(5) 0.9940(4) 0.7734(4)
C6_2 C 0.0241(6) 0.9902(4) 0.6571(4)
H2_2 H 0.078060 0.947352 0.618232
C10_2 C 0.2620(6) 0.9815(5) 0.8694(4)
H6_2 H 0.166976 0.948848 0.870480
C12_2 C 0.3719(9) 0.9045(6) 0.9080(5)
H7_2 H 0.454819 0.941421 0.932150
H8_2 H 0.331053 0.861236 0.956661
C13_2 C 0.4108(9) 0.8385(6) 0.8238(5)
H9 H 0.511081 0.818904 0.825068
H10_2 H 0.353244 0.774945 0.821096
C14_2 C 0.3801(7) 0.9077(5) 0.7446(4)
O11_2 O 0.8563(5) 0.3525(4) 0.0908(3)
O1_2 O 0.8595(4) 0.2094(4) 0.9178(3)
O2_2 O 0.6517(4) 0.1750(4) 0.8504(3)
C1_2 C 0.7854(5) 0.1695(4) 0.8548(4)
C2_2 C 0.8628(6) 0.1114(5) 0.7794(4)
C3_2 C 0.7956(6) 0.0372(5) 0.7239(4)
H1_2 H 0.697197 0.027583 0.727826
O4_2 O 0.8901(4) 0.8372(4) 0.5546(3)
C4_2 C 0.8765(6) 0.9769(5) 0.6618(4)
C5_2 C 0.8087(7) 0.8922(5) 0.6026(4)
O1_3 O 0.1405(4) 0.7094(4) 0.5822(3)
O3_2 O 0.3247(5) 0.3842(5) 0.8955(5)
C1_3 C 0.2146(5) 0.6695(4) 0.6452(4)
C2_3 C 0.1372(6) 0.6114(5) 0.7206(4)
C3_3 C 0.2044(6) 0.5372(5) 0.7761(4)
H1_3 H 0.302803 0.527583 0.772174
C4_3 C 0.1235(6) 0.4769(5) 0.8382(4)
C5_3 C 0.1913(7) 0.3922(5) 0.8974(4)
O9_2 O 0.1753(5) 0.6158(5) 0.3955(5)
O5_3 O 0.8483(5) 0.5989(3) 0.5266(3)
O7_2 O 0.5897(6) 0.3920(4) 0.8372(3)
N1_3 N 0.6906(5) 0.4940(4) 0.7266(4)
C6_3 C 0.9759(6) 0.4902(4) 0.8429(4)
H2_3 H 0.921940 0.447352 0.881768
C7_3 C 0.9094(6) 0.5665(4) 0.7904(4)
C8_3 C 0.9895(6) 0.6272(4) 0.7299(3)
H3_3 H 0.944745 0.679184 0.694923
C9_3 C 0.7474(6) 0.5735(5) 0.7890(4)
H4_3 H 0.710079 0.562265 0.850907
H5_3 H 0.718137 0.643040 0.768517
C10_3 C 0.7380(6) 0.4815(5) 0.6306(4)
H6_3 H 0.833024 0.448848 0.629520
C11_3 C 0.7426(6) 0.5858(4) 0.5794(4)
C12_3 C 0.6281(9) 0.4045(6) 0.5920(5)
H7_3 H 0.545181 0.441421 0.567850
H8_3 H 0.668947 0.361236 0.543339
C13_3 C 0.5892(9) 0.3385(6) 0.6762(5)
H9_2 H 0.488919 0.318904 0.674932
H10_3 H 0.646756 0.274945 0.678904
C14_3 C 0.6199(7) 0.4077(5) 0.7554(4)
O12_2 O 0.9103(6) 0.6080(4) 0.3372(3)
H9_3 H 0.011081 0.681096 0.174932
O1_4 O 0.3595(4) 0.2906(4) 0.0822(3)
O5_4 O 0.6517(5) 0.4011(3) 0.0266(3)
N1_4 N 0.8094(5) 0.5060(4) 0.2266(4)
C1_4 C 0.2854(5) 0.3305(4) 0.1452(4)
C2_4 C 0.3628(6) 0.3886(5) 0.2206(4)
C3_4 C 0.2956(6) 0.4628(5) 0.2761(4)
H1_4 H 0.197197 0.472417 0.272174
C4_4 C 0.3765(6) 0.5231(5) 0.3382(4)
C5_4 C 0.3087(7) 0.6078(5) 0.3974(4)
C6_4 C 0.5241(6) 0.5098(4) 0.3429(4)
H2_4 H 0.578060 0.552648 0.381768
C7_4 C 0.5906(6) 0.4335(4) 0.2904(4)
C8_4 C 0.5105(6) 0.3728(4) 0.2299(3)
H3_4 H 0.555255 0.320816 0.194923
C9_4 C 0.7526(6) 0.4265(5) 0.2890(4)
H4_4 H 0.789921 0.437735 0.350907
H5_4 H 0.781863 0.356960 0.268517
C10_4 C 0.7620(6) 0.5185(5) 0.1306(4)
H6_4 H 0.666976 0.551152 0.129520
C11_4 C 0.7574(6) 0.4142(4) 0.0794(4)
C12_4 C 0.8719(9) 0.5955(6) 0.0920(5)
H7_4 H 0.954819 0.558579 0.067850
H8_4 H 0.831053 0.638764 0.043339
C13_4 C 0.9108(9) 0.6615(6) 0.1762(5)
H10_4 H 0.853244 0.725055 0.178904
C14_4 C 0.8801(7) 0.5923(5) 0.2554(4)
H9_4 H 0.988919 0.181096 0.325068
loop_
_geom_bond_atom_site_label_1
_geom_bond_atom_site_label_2
_geom_bond_site_symmetry_1
_geom_bond_site_symmetry_2
O3 C5 1_555 1_555
O4 C5 1_555 1_555
O7 C14 1_555 1_555
C5 C4 1_555 1_555
C6 C4 1_555 1_555
H2 C6 1_555 1_555
C10 N1 1_555 1_555
H6 C10 1_555 1_555
C12 C10 1_555 1_555
H7 C12 1_555 1_555
H8 C12 1_555 1_555
C13 C12 1_555 1_555
H10 C13 1_555 1_555
C14 N1 1_555 1_555
Tb3 O7 1_555 1_555
C13 C14 1_555 1_555
Tb1 O1 1_555 1_555
O1 C1 1_555 1_555
O2 C1 1_555 1_555
O5 Tb1 1_555 1_555
O6 C11 1_555 1_555
C1 C2 1_555 1_555
C2 C3 1_555 1_555
C3 H1 1_555 1_555
C8 C2 1_555 1_555
H3 C8 1_555 1_555
C9 C7 1_555 1_555
H4 C9 1_555 1_555
H5 C9 1_555 1_555
C11 O5 1_555 1_555
Tb5 O2 1_555 1_555
O8 Tb1 1_555 1_555
O9 Tb1 1_555 1_555
O10 Tb1 1_555 1_555
O11 Tb1 1_555 1_555
O12 Tb1 1_555 1_555
C7 C8 1_555 1_555
O8_2 Tb3 1_555 1_555
O6_2 C11_2 1_555 1_555
H3_2 C8_2 1_555 1_555
C9_2 C7_2 1_555 1_555
H4_2 C9_2 1_555 1_555
H5_2 C9_2 1_555 1_555
C11_2 O5_2 1_555 1_555
Tb6 O6_2 1_555 1_555
C7_2 C8_2 1_555 1_555
O12 C14_2 1_555 1_555
H2_2 C6_2 1_555 1_555
C10_2 N1_2 1_555 1_555
H6_2 C10_2 1_555 1_555
C12_2 C10_2 1_555 1_555
H7_2 C12_2 1_555 1_555
H8_2 C12_2 1_555 1_555
C13_2 C12_2 1_555 1_555
H9 C13_2 1_555 1_555
H10_2 C13_2 1_555 1_555
C14_2 N1_2 1_555 1_555
C13_2 C14_2 1_555 1_555
O1_2 C1_2 1_555 1_555
O2_2 C1_2 1_555 1_555
C1_2 C2_2 1_555 1_555
C2_2 C3_2 1_555 1_555
C3_2 H1_2 1_555 1_555
Tb6 O2_2 1_555 1_555
O9 C5_2 1_555 1_555
O4_2 C5_2 1_555 1_555
C5_2 C4_2 1_555 1_555
Tb5 O4_2 1_555 1_555
O1_3 C1_3 1_555 1_555
O8 C1_3 1_555 1_555
O3_2 C5_3 1_555 1_555
O10_2 C5_3 1_555 1_555
C1_3 C2_3 1_555 1_555
C2_3 C3_3 1_555 1_555
C3_3 H1_3 1_555 1_555
C4_3 C3_3 1_555 1_555
C5_3 C4_3 1_555 1_555
Tb6 O3_2 1_555 1_555
O5_3 Tb5 1_555 1_555
O11 C11_3 1_555 1_555
O7_2 C14_3 1_555 1_555
N1_3 C9_3 1_555 1_555
H2_3 C6_3 1_555 1_555
C7_3 C6_3 1_555 1_555
H3_3 C8_3 1_555 1_555
C9_3 C7_3 1_555 1_555
H4_3 C9_3 1_555 1_555
H5_3 C9_3 1_555 1_555
C10_3 N1_3 1_555 1_555
H6_3 C10_3 1_555 1_555
C11_3 O5_3 1_555 1_555
C12_3 C10_3 1_555 1_555
H7_3 C12_3 1_555 1_555
H8_3 C12_3 1_555 1_555
C13_3 C12_3 1_555 1_555
H9_2 C13_3 1_555 1_555
H10_3 C13_3 1_555 1_555
C14_3 N1_3 1_555 1_555
Tb6 O7_2 1_555 1_555
O12_2 Tb5 1_555 1_555
C7_3 C8_3 1_555 1_555
C10_3 C11_3 1_555 1_555
C13_3 C14_3 1_555 1_555
O1_4 C1_4 1_555 1_555
O8_2 C1_4 1_555 1_555
O9_2 C5_4 1_555 1_555
O10 C5_4 1_555 1_555
O11_2 C11_4 1_555 1_555
O12_2 C14_4 1_555 1_555
N1_4 C9_4 1_555 1_555
C1_4 C2_4 1_555 1_555
C2_4 C3_4 1_555 1_555
C3_4 H1_4 1_555 1_555
C4_4 C3_4 1_555 1_555
C5_4 C4_4 1_555 1_555
C6_4 C4_4 1_555 1_555
H2_4 C6_4 1_555 1_555
C7_4 C6_4 1_555 1_555
C8_4 C2_4 1_555 1_555
H3_4 C8_4 1_555 1_555
C9_4 C7_4 1_555 1_555
H4_4 C9_4 1_555 1_555
H5_4 C9_4 1_555 1_555
C10_4 N1_4 1_555 1_555
H6_4 C10_4 1_555 1_555
C11_4 O5_4 1_555 1_555
C12_4 C10_4 1_555 1_555
H7_4 C12_4 1_555 1_555
H8_4 C12_4 1_555 1_555
C13_4 C12_4 1_555 1_555
H10_4 C13_4 1_555 1_555
C14_4 N1_4 1_555 1_555
C7_4 C8_4 1_555 1_555
C10_4 C11_4 1_555 1_555
C13_4 C14_4 1_555 1_555

#END
