
###############################################################################
#
# This file contains modified crystal structure data generated from the
# MOF subset of the Cambridge Structural Database (CSD) v543 
# hosted by the Cambridge Crystallographic Data Centre (CCDC).
#
# This work is licensed under the Creative Commons
# Attribution-NonCommercial-ShareAlike 4.0 International License.
# To view a copy of this license, visit
# http://creativecommons.org/licenses/by-nc-sa/4.0/
# or send a letter to
# Creative Commons, PO Box 1866, Mountain View, CA 94042, USA.
#
# CIF created using the CSD Python API on 29 September 2022
# The structure has been converted into the P1 space group
# The structure has a 3D framework
# The original CSD entry DUXSUM is in the monoclinic crystal system
# The framework has been calculated to contain at least 10.0% void space
# The void calculation uses a probe of radius 1.32A, grid spacing 0.4
#
###############################################################################

data_DUXSUM
_chemical_formula_moiety         '(C112 H84 N16 O16 Zn4)n'
_symmetry_cell_setting           triclinic
_symmetry_space_group_name_H-M   'P 1'
_symmetry_Int_Tables_number      1
_space_group_name_Hall           'P 1'
loop_
_symmetry_equiv_pos_site_id
_symmetry_equiv_pos_as_xyz
1 x,y,z
_cell_length_a                   9.3753(4)
_cell_length_b                   16.5379(8)
_cell_length_c                   18.0472(9)
_cell_angle_alpha                90
_cell_angle_beta                 101.0940(10)
_cell_angle_gamma                90
_cell_volume                     2745.89
loop_
_atom_site_label
_atom_site_type_symbol
_atom_site_fract_x
_atom_site_fract_y
_atom_site_fract_z
H12 H 0.0107 0.5174 0.3165
H17 H 0.0812 0.1836 0.1341
C28 C 0.1008(4) 0.0571(2) 0.0108(3)
H21 H 0.1736 0.0961 0.0198
C43 C 0.2050(4) 0.57679(19) 0.73985(16)
H29 H 0.1232 0.6014 0.7519
C44 C 0.4232(5) 0.5526(3) 0.7305(2)
H30 H 0.5235 0.5569 0.7356
C45 C 0.3400(6) 0.4939(3) 0.6922(3)
H31 H 0.3719 0.4512 0.6660
C46 C 0.0710(6) 0.4664(2) 0.6611(2)
H32 H 0.0848 0.4087 0.6686
C47 C 0.0370(3) 0.48444(17) 0.57773(18)
C48 C 0.0534(3) 0.56135(17) 0.54894(19)
H34 H 0.0891 0.6031 0.5819
C49 C 0.0179(3) 0.57653(16) 0.47288(18)
H35 H 0.0306 0.6282 0.4549
N5 N 0.3371(3) 0.60408(14) 0.76050(12)
N6 N 0.2018(4) 0.50891(16) 0.69905(16)
Zn5 Zn 0.38841(3) 0.712741(17) 0.806217(15)
Zn6 Zn 0.11159(3) 0.212741(17) 0.693783(15)
C50 C 0.2372(3) 0.77340(14) 0.92705(15)
H36 H 0.3210 0.7677 0.9637
C51 C 0.0859(3) 0.77258(17) 0.82129(17)
H37 H 0.0461 0.7660 0.7703
C52 C 0.0156(3) 0.80048(17) 0.87372(19)
N7 N 0.2270(2) 0.75511(13) 0.85503(12)
N8 N 0.1108(2) 0.80123(12) 0.93994(13)
C1 C 0.6794(3) 0.21630(16) 0.33235(15)
C2 C 0.6503(3) 0.18376(16) 0.40583(13)
C3 C 0.7552(3) 0.19364(15) 0.47089(14)
H1 H 0.8436 0.2178 0.4681
C4 C 0.7288(3) 0.16780(15) 0.53989(13)
C5 C 0.5968(3) 0.13219(15) 0.54348(14)
H2 H 0.5798 0.1151 0.5901
C6 C 0.4889(3) 0.12097(14) 0.48003(14)
C7 C 0.5189(3) 0.14697(15) 0.41066(14)
H3 H 0.4494 0.1395 0.3669
C8 C 0.3455(3) 0.08500(15) 0.48536(15)
C9 C 0.3168(3) 0.0552(2) 0.55186(17)
H4 H 0.3899 0.0568 0.5947
C10 C 0.1831(3) 0.0229(2) 0.55758(18)
H5 H 0.1691 0.0039 0.6042
C11 C 0.0717(3) 0.01809(16) 0.49718(18)
C12 C 0.1004(4) 0.0455(4) 0.4306(3)
H6 H 0.0280 0.0425 0.3875
C13 C 0.2353(4) 0.0780(3) 0.4249(2)
H7 H 0.2500 0.0955 0.3780
C14 C 0.8413(3) 0.17898(17) 0.61063(14)
C15 C 0.7950(4) 0.42321(19) 0.26015(16)
H8 H 0.8768 0.3986 0.2481
C16 C 0.5768(5) 0.4474(3) 0.2695(2)
H9 H 0.4765 0.4431 0.2644
C17 C 0.6600(6) 0.5061(3) 0.3078(3)
H10 H 0.6281 0.5488 0.3340
C18 C 0.9290(6) 0.5336(2) 0.3389(2)
H11 H 0.9152 0.5913 0.3314
C19 C 0.9630(3) 0.51556(17) 0.42227(18)
C20 C 0.9466(3) 0.43865(17) 0.45106(19)
H13 H 0.9109 0.3969 0.4181
C21 C 0.9821(3) 0.42347(16) 0.52712(18)
H14 H 0.9694 0.3718 0.5451
C22 C 0.7628(3) 0.22660(14) 0.07295(15)
H15 H 0.6790 0.2323 0.0363
C23 C 0.9141(3) 0.22742(17) 0.17871(17)
H16 H 0.9539 0.2340 0.2297
C24 C 0.9844(3) 0.19952(17) 0.12628(19)
N1 N 0.6629(3) 0.39592(14) 0.23950(12)
N2 N 0.7982(4) 0.49109(16) 0.30095(16)
N3 N 0.7730(2) 0.24489(13) 0.14497(12)
N4 N 0.8892(2) 0.19877(12) 0.06006(13)
O1 O 0.7997(2) 0.24399(16) 0.32902(11)
O2 O 0.5724(2) 0.21601(11) 0.27576(10)
O3 O 0.9565(2) 0.21601(11) 0.60393(10)
O4 O 0.8190(2) 0.15203(15) 0.67133(11)
Zn1 Zn 0.61159(3) 0.287259(17) 0.193783(15)
H33 H 0.9893 0.4826 0.6835
O10 O 0.4565(2) 0.28399(11) 0.10393(10)
H38 H 0.9188 0.8164 0.8659
C56 C 0.8992(4) 0.9429(2) 0.9892(3)
H42 H 0.8264 0.9039 0.9802
C29 C 0.3206(3) 0.78370(16) 0.66765(15)
C30 C 0.3497(3) 0.81624(16) 0.59417(13)
C31 C 0.2448(3) 0.80636(15) 0.52911(14)
H22 H 0.1564 0.7822 0.5319
C32 C 0.2712(3) 0.83220(15) 0.46011(13)
C33 C 0.4032(3) 0.86781(15) 0.45652(14)
H23 H 0.4202 0.8849 0.4099
C34 C 0.5111(3) 0.87903(14) 0.51997(14)
C35 C 0.4811(3) 0.85303(15) 0.58934(14)
H24 H 0.5506 0.8605 0.6331
C36 C 0.6545(3) 0.91500(15) 0.51464(15)
C37 C 0.6832(3) 0.9448(2) 0.44814(17)
H25 H 0.6101 0.9432 0.4053
C38 C 0.8169(3) 0.9771(2) 0.44242(18)
H26 H 0.8309 0.9961 0.3958
C39 C 0.9283(3) 0.98191(16) 0.50282(18)
C40 C 0.8996(4) 0.9545(4) 0.5694(3)
H27 H 0.9720 0.9575 0.6125
C41 C 0.7647(4) 0.9220(3) 0.5751(2)
H28 H 0.7500 0.9045 0.6220
C42 C 0.1587(3) 0.82102(17) 0.38937(14)
O5 O 0.2003(2) 0.75601(16) 0.67098(11)
O6 O 0.4276(2) 0.78399(11) 0.72424(10)
O7 O 0.0435(2) 0.78399(11) 0.39607(10)
O8 O 0.1810(2) 0.84797(15) 0.32867(11)
O9 O 0.5435(2) 0.71601(11) 0.89607(10)
Zn3 Zn 0.88841(3) 0.787259(17) 0.306217(15)
C32_2 C 0.2288(3) 0.33220(15) 0.03989(13)
C33_2 C 0.0968(3) 0.36781(15) 0.04348(14)
H23_2 H 0.0798 0.3849 0.0901
C42_2 C 0.3413(3) 0.32102(17) 0.11063(14)
O8_2 O 0.3190(2) 0.34797(15) 0.17133(11)
C29_2 C 0.1794(3) 0.28370(16) 0.83235(15)
C30_2 C 0.1503(3) 0.31624(16) 0.90583(13)
C31_2 C 0.2552(3) 0.30636(15) 0.97089(14)
H22_2 H 0.3436 0.2822 0.9681
C35_2 C 0.0189(3) 0.35303(15) 0.91066(14)
O5_2 O 0.2997(2) 0.25601(16) 0.82902(11)
O6_2 O 0.0724(2) 0.28399(11) 0.77576(10)
N9 N 0.1629(3) 0.10408(14) 0.73950(12)
N10 N 0.2730(2) 0.25511(13) 0.64497(12)
C6_2 C 0.0111(3) 0.62097(14) 0.01997(14)
H3_2 H 0.0506 0.6395 0.1331
C8_2 C 0.1545(3) 0.58500(15) 0.01464(15)
C11_2 C 0.4283(3) 0.51809(16) 0.00282(18)
C12_2 C 0.3996(4) 0.5455(4) 0.0694(3)
H6_2 H 0.4720 0.5425 0.1125
C13_2 C 0.2647(4) 0.5780(3) 0.0751(2)
H7_2 H 0.2500 0.5955 0.1220
H9_2 H 0.0235 0.9431 0.2356
C37_2 C 0.8168(3) 0.4448(2) 0.05186(17)
H25_2 H 0.8899 0.4432 0.0947
C38_2 C 0.6831(3) 0.4771(2) 0.05758(18)
H26_2 H 0.6691 0.4961 0.1042
C9_2 C 0.1832(3) 0.5552(2) 0.94814(17)
H4_2 H 0.1101 0.5568 0.9053
C10_2 C 0.3169(3) 0.5229(2) 0.94242(18)
H5_2 H 0.3309 0.5039 0.8958
C34_2 C 0.9889(3) 0.37903(14) 0.98003(14)
H24_2 H 0.9494 0.3605 0.8669
C36_2 C 0.8455(3) 0.41500(15) 0.98536(15)
C39_2 C 0.5717(3) 0.48191(16) 0.99718(18)
C40_2 C 0.6004(4) 0.4545(4) 0.9306(3)
H27_2 H 0.5280 0.4575 0.8875
C41_2 C 0.7353(4) 0.4220(3) 0.9249(2)
H28_2 H 0.7500 0.4045 0.8780
C17_2 C 0.8400(6) 0.0061(3) 0.1922(3)
H10_2 H 0.8719 0.0488 0.1660
C18_2 C 0.5710(6) 0.0336(2) 0.1611(2)
H11_2 H 0.5848 0.0913 0.1686
H12_2 H 0.4893 0.0174 0.1835
C19_2 C 0.5370(3) 0.01556(17) 0.07773(18)
C49_2 C 0.4821(3) 0.07653(16) 0.02712(18)
H35_2 H 0.4694 0.1282 0.0451
C43_2 C 0.2950(4) 0.07679(19) 0.76015(16)
H29_2 H 0.3768 0.1014 0.7481
C44_2 C 0.0768(5) 0.0526(3) 0.7695(2)
C48_2 C 0.4466(3) 0.06135(17) 0.95106(19)
H34_2 H 0.4109 0.1031 0.9181
N6_2 N 0.2982(4) 0.00891(16) 0.80095(16)
C1_2 C 0.8206(3) 0.71630(16) 0.16765(15)
C2_2 C 0.8497(3) 0.68376(16) 0.09417(13)
C3_2 C 0.7448(3) 0.69364(15) 0.02911(14)
H1_2 H 0.6564 0.7178 0.0319
C7_2 C 0.9811(3) 0.64697(15) 0.08934(14)
C15_2 C 0.7050(4) 0.92321(19) 0.23985(16)
H8_2 H 0.6232 0.8986 0.2519
C16_2 C 0.9232(5) 0.9474(3) 0.2305(2)
C20_2 C 0.5534(3) 0.93865(17) 0.04894(19)
H13_2 H 0.5891 0.8969 0.0819
C22_2 C 0.7372(3) 0.72660(14) 0.42705(15)
H15_2 H 0.8210 0.7323 0.4637
C23_2 C 0.5859(3) 0.72742(17) 0.32129(17)
H16_2 H 0.5461 0.7340 0.2703
C24_2 C 0.5156(3) 0.69952(17) 0.37372(19)
H17_2 H 0.4188 0.6836 0.3659
C25 C 0.5817(4) 0.66927(17) 0.51245(17)
H18 H 0.5040 0.7009 0.5266
H19 H 0.6679 0.6762 0.5513
C26 C 0.5392(3) 0.58157(16) 0.50752(15)
C27 C 0.6395(3) 0.5229(2) 0.5168(3)
H20 H 0.7374 0.5367 0.5274
C28_2 C 0.3992(4) 0.5571(2) 0.4892(3)
H21_2 H 0.3264 0.5961 0.4802
N1_2 N 0.8371(3) 0.89592(14) 0.26050(12)
N2_2 N 0.7018(4) 0.99109(16) 0.19905(16)
N3_2 N 0.7270(2) 0.74489(13) 0.35503(12)
N4_2 N 0.6108(2) 0.69877(12) 0.43994(13)
O1_2 O 0.7003(2) 0.74399(16) 0.17098(11)
O2_2 O 0.9276(2) 0.71601(11) 0.22424(10)
C50_2 C 0.2628(3) 0.27340(14) 0.57295(15)
H36_2 H 0.1790 0.2677 0.5363
C51_2 C 0.4141(3) 0.27258(17) 0.67871(17)
H37_2 H 0.4539 0.2660 0.7297
C52_2 C 0.4844(3) 0.30048(17) 0.62628(19)
H38_2 H 0.5812 0.3164 0.6341
C53 C 0.4183(4) 0.33073(17) 0.48755(17)
H39 H 0.4960 0.2991 0.4734
H40 H 0.3321 0.3238 0.4487
C54 C 0.4608(3) 0.41843(16) 0.49248(15)
C55 C 0.3605(3) 0.4771(2) 0.4832(3)
H41 H 0.2626 0.4633 0.4726
C56_2 C 0.6008(4) 0.4429(2) 0.5108(3)
H42_2 H 0.6736 0.4039 0.5198
N8_2 N 0.3892(2) 0.30123(12) 0.56006(13)
C4_2 C 0.7712(3) 0.66780(15) 0.96011(13)
C5_2 C 0.9032(3) 0.63219(15) 0.95652(14)
H2_2 H 0.9202 0.6151 0.9099
C14_2 C 0.6587(3) 0.67898(17) 0.88937(14)
C21_2 C 0.5179(3) 0.92347(16) 0.97288(18)
H14_2 H 0.5306 0.8718 0.9549
O4_2 O 0.6810(2) 0.65203(15) 0.82867(11)
C45_2 C 0.1600(6) 0.9939(3) 0.8078(3)
H31_2 H 0.1281 0.9512 0.8340
C46_2 C 0.4290(6) 0.9664(2) 0.8389(2)
H32_2 H 0.4152 0.9087 0.8314
H33_2 H 0.5107 0.9826 0.8165
C47_2 C 0.4630(3) 0.98444(17) 0.92227(18)
H30_2 H 0.9765 0.0569 0.7644
C53_2 C 0.0817(4) 0.83073(17) 0.01245(17)
H39_2 H 0.0040 0.7991 0.0266
H40_2 H 0.1679 0.8238 0.0513
C54_2 C 0.0392(3) 0.91843(16) 0.00752(15)
C55_2 C 0.1395(3) 0.9771(2) 0.0168(3)
H41_2 H 0.2374 0.9633 0.0274
C25_2 C 0.9183(4) 0.16927(17) 0.98755(17)
H18_2 H 0.9960 0.2009 0.9734
H19_2 H 0.8321 0.1762 0.9487
C26_2 C 0.9608(3) 0.08157(16) 0.99248(15)
C27_2 C 0.8605(3) 0.0229(2) 0.9832(3)
H20_2 H 0.7626 0.0367 0.9726
loop_
_geom_bond_atom_site_label_1
_geom_bond_atom_site_label_2
_geom_bond_site_symmetry_1
_geom_bond_site_symmetry_2
H21 C28 1_555 1_555
C43 H29 1_555 1_555
C44 H30 1_555 1_555
C45 C44 1_555 1_555
H31 C45 1_555 1_555
C46 H32 1_555 1_555
C48 C47 1_555 1_555
H34 C48 1_555 1_555
H35 C49 1_555 1_555
N5 C43 1_555 1_555
N6 C43 1_555 1_555
Zn5 N5 1_555 1_555
C44 N5 1_555 1_555
C45 N6 1_555 1_555
C46 C47 1_555 1_555
C46 N6 1_555 1_555
C48 C49 1_555 1_555
C50 H36 1_555 1_555
C51 H37 1_555 1_555
C52 C51 1_555 1_555
N7 C50 1_555 1_555
N8 C50 1_555 1_555
Zn5 N7 1_555 1_555
C51 N7 1_555 1_555
C52 N8 1_555 1_555
C1 C2 1_555 1_555
C2 C3 1_555 1_555
C3 H1 1_555 1_555
C4 C3 1_555 1_555
C5 C4 1_555 1_555
H2 C5 1_555 1_555
C6 C5 1_555 1_555
C7 C2 1_555 1_555
H3 C7 1_555 1_555
C8 C6 1_555 1_555
C9 C8 1_555 1_555
H4 C9 1_555 1_555
C10 C9 1_555 1_555
H5 C10 1_555 1_555
C11 C10 1_555 1_555
C12 C11 1_555 1_555
H6 C12 1_555 1_555
C13 C8 1_555 1_555
H7 C13 1_555 1_555
C14 C4 1_555 1_555
C15 H8 1_555 1_555
C16 H9 1_555 1_555
C17 C16 1_555 1_555
H10 C17 1_555 1_555
C18 H11 1_555 1_555
C19 C18 1_555 1_555
C20 C19 1_555 1_555
H13 C20 1_555 1_555
C21 C20 1_555 1_555
H14 C21 1_555 1_555
C22 H15 1_555 1_555
C23 H16 1_555 1_555
C24 C23 1_555 1_555
N1 C15 1_555 1_555
N2 C15 1_555 1_555
N3 C22 1_555 1_555
N4 C22 1_555 1_555
O1 C1 1_555 1_555
O2 C1 1_555 1_555
O3 C14 1_555 1_555
O4 C14 1_555 1_555
Zn1 N1 1_555 1_555
O10 Zn1 1_555 1_555
C6 C7 1_555 1_555
C12 C13 1_555 1_555
C16 N1 1_555 1_555
C17 N2 1_555 1_555
C18 N2 1_555 1_555
C23 N3 1_555 1_555
C24 N4 1_555 1_555
N3 Zn1 1_555 1_555
O2 Zn1 1_555 1_555
H42 C56 1_555 1_555
C29 C30 1_555 1_555
C30 C31 1_555 1_555
C31 H22 1_555 1_555
C32 C31 1_555 1_555
C33 C32 1_555 1_555
H23 C33 1_555 1_555
C34 C33 1_555 1_555
C35 C30 1_555 1_555
H24 C35 1_555 1_555
C36 C34 1_555 1_555
C37 C36 1_555 1_555
H25 C37 1_555 1_555
C38 C37 1_555 1_555
H26 C38 1_555 1_555
C40 C39 1_555 1_555
H27 C40 1_555 1_555
C41 C36 1_555 1_555
H28 C41 1_555 1_555
C42 C32 1_555 1_555
O5 C29 1_555 1_555
O6 C29 1_555 1_555
O7 C42 1_555 1_555
O8 C42 1_555 1_555
Zn5 O6 1_555 1_555
O9 Zn5 1_555 1_555
C34 C35 1_555 1_555
C38 C39 1_555 1_555
C40 C41 1_555 1_555
C33_2 C32_2 1_555 1_555
H23_2 C33_2 1_555 1_555
C42_2 C32_2 1_555 1_555
O10 C42_2 1_555 1_555
O8_2 C42_2 1_555 1_555
C29_2 C30_2 1_555 1_555
C30_2 C31_2 1_555 1_555
C31_2 H22_2 1_555 1_555
C35_2 C30_2 1_555 1_555
O5_2 C29_2 1_555 1_555
O6_2 C29_2 1_555 1_555
Zn6 O6_2 1_555 1_555
N9 Zn6 1_555 1_555
N10 Zn6 1_555 1_555
C8_2 C6_2 1_555 1_555
C12_2 C11_2 1_555 1_555
H6_2 C12_2 1_555 1_555
C13_2 C8_2 1_555 1_555
H7_2 C13_2 1_555 1_555
H25_2 C37_2 1_555 1_555
C38_2 C37_2 1_555 1_555
H26_2 C38_2 1_555 1_555
C12_2 C13_2 1_555 1_555
H4_2 C9_2 1_555 1_555
C10_2 C9_2 1_555 1_555
H5_2 C10_2 1_555 1_555
C36_2 C34_2 1_555 1_555
C40_2 C39_2 1_555 1_555
H27_2 C40_2 1_555 1_555
C41_2 C36_2 1_555 1_555
H28_2 C41_2 1_555 1_555
C40_2 C41_2 1_555 1_555
H10_2 C17_2 1_555 1_555
C18_2 H11_2 1_555 1_555
H12_2 C18_2 1_555 1_555
C19_2 C18_2 1_555 1_555
C49_2 C19_2 1_555 1_555
H35_2 C49_2 1_555 1_555
C43_2 H29_2 1_555 1_555
H34_2 C48_2 1_555 1_555
N9 C43_2 1_555 1_555
N6_2 C43_2 1_555 1_555
C44_2 N9 1_555 1_555
C1_2 C2_2 1_555 1_555
C2_2 C3_2 1_555 1_555
C3_2 H1_2 1_555 1_555
C7_2 C2_2 1_555 1_555
C15_2 H8_2 1_555 1_555
H13_2 C20_2 1_555 1_555
C22_2 H15_2 1_555 1_555
C23_2 H16_2 1_555 1_555
C24_2 C23_2 1_555 1_555
H17_2 C24_2 1_555 1_555
C25 H18 1_555 1_555
H19 C25 1_555 1_555
C26 C25 1_555 1_555
C27 C26 1_555 1_555
H20 C27 1_555 1_555
C28_2 C26 1_555 1_555
H21_2 C28_2 1_555 1_555
N1_2 C15_2 1_555 1_555
N2_2 C15_2 1_555 1_555
N3_2 C22_2 1_555 1_555
N4_2 C22_2 1_555 1_555
O1_2 C1_2 1_555 1_555
O2_2 C1_2 1_555 1_555
Zn3 N1_2 1_555 1_555
C50_2 H36_2 1_555 1_555
C51_2 H37_2 1_555 1_555
C52_2 C51_2 1_555 1_555
H38_2 C52_2 1_555 1_555
C53 H39 1_555 1_555
H40 C53 1_555 1_555
C54 C53 1_555 1_555
C55 C28_2 1_555 1_555
H41 C55 1_555 1_555
C56_2 C27 1_555 1_555
H42_2 C56_2 1_555 1_555
N10 C50_2 1_555 1_555
N8_2 C50_2 1_555 1_555
C16_2 N1_2 1_555 1_555
C23_2 N3_2 1_555 1_555
C24_2 N4_2 1_555 1_555
C25 N4_2 1_555 1_555
N3_2 Zn3 1_555 1_555
O2_2 Zn3 1_555 1_555
C51_2 N10 1_555 1_555
C52_2 N8_2 1_555 1_555
C53 N8_2 1_555 1_555
C54 C55 1_555 1_555
C54 C56_2 1_555 1_555
C5_2 C4_2 1_555 1_555
H2_2 C5_2 1_555 1_555
C14_2 C4_2 1_555 1_555
H14_2 C21_2 1_555 1_555
O9 C14_2 1_555 1_555
O4_2 C14_2 1_555 1_555
H31_2 C45_2 1_555 1_555
C46_2 H32_2 1_555 1_555
H33_2 C46_2 1_555 1_555
C47_2 C21_2 1_555 1_555
C46_2 C47_2 1_555 1_555
C53_2 H39_2 1_555 1_555
H40_2 C53_2 1_555 1_555
C54_2 C53_2 1_555 1_555
H41_2 C55_2 1_555 1_555
C54_2 C55_2 1_555 1_555
C25_2 H18_2 1_555 1_555
H19_2 C25_2 1_555 1_555
C26_2 C25_2 1_555 1_555
C27_2 C26_2 1_555 1_555
H20_2 C27_2 1_555 1_555

#END
