
###############################################################################
#
# This file contains modified crystal structure data generated from the
# MOF subset of the Cambridge Structural Database (CSD) v543 
# hosted by the Cambridge Crystallographic Data Centre (CCDC).
#
# This work is licensed under the Creative Commons
# Attribution-NonCommercial-ShareAlike 4.0 International License.
# To view a copy of this license, visit
# http://creativecommons.org/licenses/by-nc-sa/4.0/
# or send a letter to
# Creative Commons, PO Box 1866, Mountain View, CA 94042, USA.
#
# CIF created using the CSD Python API on 29 September 2022
# The structure has been converted into the P1 space group
# The structure has a 3D framework
# The original CSD entry DUYBIL is in the triclinic crystal system
# The framework has been calculated to contain at least 10.0% void space
# The void calculation uses a probe of radius 1.32A, grid spacing 0.4
# The framework is charged, counterions have been retained in the structure
# H atom positions have been added when not included in the experimental data
#
###############################################################################

data_DUYBIL
_chemical_formula_moiety         '(C96 H64 Cd5 N4 O34 4-)n'
_symmetry_cell_setting           triclinic
_symmetry_space_group_name_H-M   'P 1'
_symmetry_Int_Tables_number      1
_space_group_name_Hall           'P 1'
loop_
_symmetry_equiv_pos_site_id
_symmetry_equiv_pos_as_xyz
1 x,y,z
_cell_length_a                   14.887(13)
_cell_length_b                   15.966(14)
_cell_length_c                   16.171(14)
_cell_angle_alpha                100.906(10)
_cell_angle_beta                 108.511(10)
_cell_angle_gamma                110.885(10)
_cell_volume                     3200.82
loop_
_atom_site_label
_atom_site_type_symbol
_atom_site_fract_x
_atom_site_fract_y
_atom_site_fract_z
Cd1 Cd 0.12874(3) 0.30597(2) 0.76490(2)
Cd2 Cd 0.28980(3) 0.56399(2) 0.76404(3)
C1 C 0.0603(4) 0.4286(3) 0.6398(3)
O1 O 0.1188(3) 0.5162(2) 0.6817(3)
O2 O 0.0954(3) 0.3672(2) 0.6476(2)
Cd11 Cd 0.20337(4) 0.32539(3) 0.58151(3)
O21 O 0.2918(3) 0.5190(3) 0.6190(3)
O22 O 0.3045(3) 0.3720(3) 0.7426(3)
O23 O 0.4197(3) 0.5237(3) 0.8147(3)
O24 O 0.2476(3) 0.3820(2) 0.9149(2)
O25 O 0.2286(3) 0.4947(2) 0.8612(2)
O26 O 0.2908(6) 0.7153(4) 0.8198(5)
O27 O 0.4249(6) 0.7144(3) 0.8095(5)
O29 O 0.1163(3) 0.1978(3) 0.6238(3)
O30 O 0.1641(4) 0.1710(3) 0.7544(3)
C29 C 0.7246(4) 0.5313(3) 0.0757(3)
H17 H 0.669341 0.347520 0.001682
O9 O 0.7524(3) 0.6180(2) 0.0851(2)
O10 O 0.7714(3) 0.5053(2) 0.1388(2)
Cd6 Cd 0.87126(3) 0.69403(2) 0.23510(2)
Cd10 Cd 0.71020(3) 0.43601(2) 0.23596(3)
C2 C 0.9482(4) 0.3967(3) 0.5772(3)
C3 C 0.9162(4) 0.4629(3) 0.5520(3)
H1 H 0.963089 0.527492 0.578126
C4 C 0.8142(4) 0.4324(3) 0.4877(3)
C5 C 0.7858(4) 0.5062(4) 0.4569(4)
C6 C 0.7414(4) 0.3371(3) 0.4516(3)
H2 H 0.672987 0.317665 0.408244
C7 C 0.8763(4) 0.3000(3) 0.5414(3)
H3 H 0.898263 0.255623 0.558164
C8 C 0.7712(3) 0.2701(3) 0.4805(3)
C9 C 0.7192(4) 0.1109(3) 0.4957(4)
H4 H 0.654056 0.068300 0.496230
H5 H 0.769041 0.148245 0.559774
C10 C 0.7642(4) 0.0502(3) 0.4534(4)
C11 C 0.8137(6) 0.0087(5) 0.5051(4)
H6 H 0.825828 0.022328 0.567235
C16 C 0.7522(5) 0.0321(4) 0.3624(4)
H9 H 0.723401 0.063584 0.327349
C17 C 0.5917(4) 0.1401(4) 0.3798(4)
H10 H 0.561225 0.071176 0.354467
H11 H 0.595743 0.164345 0.329731
C18 C 0.5167(4) 0.1666(4) 0.4134(4)
C19 C 0.4205(5) 0.1485(5) 0.3499(5)
H12 H 0.398928 0.117864 0.287211
C20 C 0.3541(6) 0.1768(6) 0.3807(6)
H13 H 0.289080 0.165600 0.336844
C21 C 0.3797(7) 0.2180(6) 0.4680(6)
C22 C 0.3135(7) 0.2580(7) 0.5057(8)
C23 C 0.4732(6) 0.2331(6) 0.5325(6)
H14 H 0.490988 0.261087 0.594926
C24 C 0.5447(6) 0.2072(5) 0.5068(5)
H15 H 0.608673 0.217207 0.551438
C25 C 0.3930(4) 0.4366(3) 0.7977(4)
C26 C 0.4758(3) 0.4117(3) 0.8537(3)
C27 C 0.5633(3) 0.4815(3) 0.9326(3)
H16 H 0.573672 0.544430 0.947843
C28 C 0.6341(3) 0.4575(3) 0.9874(3)
C30 C 0.6213(4) 0.3633(3) 0.9634(3)
C31 C 0.5367(4) 0.2936(3) 0.8824(3)
C32 C 0.4622(3) 0.3190(3) 0.8288(3)
H18 H 0.403338 0.272831 0.776078
C33 C 0.5789(5) 0.1690(3) 0.9231(4)
H19 H 0.582933 0.199699 0.982901
H20 H 0.650599 0.190578 0.927743
C34 C 0.5293(4) 0.0627(3) 0.9012(3)
C35 C 0.4207(5) 0.0128(4) 0.8814(4)
H21 H 0.379661 0.045026 0.882556
C40 C 0.5862(6) 0.0122(4) 0.8973(4)
H24 H 0.657226 0.043394 0.908826
C41 C 0.5125(4) 0.1599(3) 0.7605(3)
H25 H 0.472576 0.183057 0.718900
H26 H 0.473545 0.090920 0.738514
C42 C 0.6195(4) 0.1867(4) 0.7564(4)
C43 C 0.6880(5) 0.2807(4) 0.7729(5)
H27 H 0.666223 0.327959 0.783524
C44 C 0.7872(5) 0.3055(5) 0.7738(5)
H28 H 0.830966 0.368505 0.784084
C45 C 0.8212(4) 0.2366(5) 0.7593(4)
C46 C 0.7554(5) 0.1437(5) 0.7413(5)
H29 H 0.777266 0.096575 0.729951
C47 C 0.6552(5) 0.1200(4) 0.7401(5)
H30 H 0.610996 0.056509 0.727679
C48 C 0.9320(5) 0.2629(6) 0.7641(5)
N1 N 0.5201(3) 0.1982(3) 0.8536(3)
N2 N 0.6973(3) 0.1754(3) 0.4494(3)
O3 O 0.8428(3) 0.5923(3) 0.5077(3)
O4 O 0.7082(3) 0.4810(3) 0.3810(3)
O5 O 0.2249(6) 0.2346(6) 0.4459(7)
O6 O 0.3458(7) 0.3028(6) 0.5850(6)
O13 O 0.9564(4) 0.2003(5) 0.7399(5)
O14 O 0.9950(4) 0.3484(5) 0.7916(4)
O17 O 0.0173(7) 0.2042(6) 0.4462(7)
Cd13 Cd 0.79663(4) 0.67461(3) 0.41849(3)
O19 O 0.1572(3) 0.4077(3) 0.4923(3)
H31 H 0.0105992 0.138461 0.434823
C12 C 0.8471(6) 0.9453(4) 0.4657(5)
H7 H 0.883181 0.919239 0.502413
C13 C 0.8262(4) 0.9223(3) 0.3736(4)
C14 C 0.8518(4) 0.8465(4) 0.3298(5)
C15 C 0.7816(5) 0.9688(4) 0.3230(4)
H8 H 0.771519 0.957106 0.261336
C36 C 0.3775(6) 0.9154(4) 0.8606(4)
H22 H 0.306484 0.883265 0.848728
C37 C 0.4301(6) 0.8648(3) 0.8563(4)
C38 C 0.3795(7) 0.7587(4) 0.8282(4)
C39 C 0.5365(7) 0.9125(4) 0.8757(4)
H23 H 0.575512 0.878374 0.874446
O15 O 0.8837(3) 0.8022(3) 0.3762(3)
O16 O 0.8359(4) 0.8290(3) 0.2456(3)
C12_2 C 0.1529(6) 0.0547(4) 0.5343(5)
H7_2 H 0.116819 0.080761 0.497587
C13_2 C 0.1738(4) 0.0777(3) 0.6264(4)
C14_2 C 0.1482(4) 0.1535(4) 0.6702(5)
C15_2 C 0.2184(5) 0.0312(4) 0.6770(4)
H8_2 H 0.228481 0.042894 0.738664
C36_2 C 0.6225(6) 0.0846(4) 0.1394(4)
H22_2 H 0.693516 0.116735 0.151272
C37_2 C 0.5699(6) 0.1352(3) 0.1437(4)
C38_2 C 0.6205(7) 0.2413(4) 0.1718(4)
C39_2 C 0.4635(7) 0.0875(4) 0.1243(4)
H23_2 H 0.424488 0.121626 0.125554
O11 O 0.7092(6) 0.2847(4) 0.1802(5)
O12 O 0.5751(6) 0.2856(3) 0.1905(5)
C2_2 C 0.0518(4) 0.6033(3) 0.4228(3)
C3_2 C 0.0838(4) 0.5371(3) 0.4480(3)
H1_2 H 0.036911 0.472508 0.421874
C4_2 C 0.1858(4) 0.5676(3) 0.5123(3)
C5_2 C 0.2142(4) 0.4938(4) 0.5431(4)
C6_2 C 0.2586(4) 0.6629(3) 0.5484(3)
H2_2 H 0.327013 0.682335 0.591756
C7_2 C 0.1237(4) 0.7000(3) 0.4586(3)
H3_2 H 0.101737 0.744377 0.441836
C8_2 C 0.2288(3) 0.7299(3) 0.5195(3)
C9_2 C 0.2808(4) 0.8891(3) 0.5043(4)
H4_2 H 0.345944 0.931700 0.503770
H5_2 H 0.230959 0.851755 0.440226
C10_2 C 0.2358(4) 0.9498(3) 0.5466(4)
C11_2 C 0.1863(6) 0.9913(5) 0.4949(4)
H6_2 H 0.174172 0.977672 0.432765
C16_2 C 0.2478(5) 0.9679(4) 0.6376(4)
H9_2 H 0.276599 0.936416 0.672651
C17_2 C 0.4083(4) 0.8599(4) 0.6202(4)
H10_2 H 0.438775 0.928824 0.645533
H11_2 H 0.404257 0.835655 0.670269
C18_2 C 0.4833(4) 0.8334(4) 0.5866(4)
C19_2 C 0.5795(5) 0.8515(5) 0.6501(5)
H12_2 H 0.601072 0.882136 0.712789
C20_2 C 0.6459(6) 0.8232(6) 0.6193(6)
H13_2 H 0.710920 0.834400 0.663156
C21_2 C 0.6203(7) 0.7820(6) 0.5320(6)
C22_2 C 0.6865(7) 0.7420(7) 0.4943(8)
C23_2 C 0.5268(6) 0.7669(6) 0.4675(6)
H14_2 H 0.509012 0.738913 0.405074
C24_2 C 0.4553(6) 0.7928(5) 0.4932(5)
H15_2 H 0.391327 0.782793 0.448562
C25_2 C 0.6070(4) 0.5634(3) 0.2023(4)
C26_2 C 0.5242(3) 0.5883(3) 0.1463(3)
C27_2 C 0.4367(3) 0.5185(3) 0.0674(3)
H16_2 H 0.426328 0.455570 0.052157
C28_2 C 0.3659(3) 0.5425(3) 0.0126(3)
C30_2 C 0.3787(4) 0.6367(3) 0.0366(3)
C31_2 C 0.4633(4) 0.7064(3) 0.1176(3)
C32_2 C 0.5378(3) 0.6810(3) 0.1712(3)
H18_2 H 0.596662 0.727169 0.223922
C33_2 C 0.4211(5) 0.8310(3) 0.0769(4)
H19_2 H 0.417067 0.800301 0.017099
H20_2 H 0.349401 0.809422 0.072257
C34_2 C 0.4707(4) 0.9373(3) 0.0988(3)
C35_2 C 0.5793(5) 0.9872(4) 0.1186(4)
H21_2 H 0.620339 0.954974 0.117444
C40_2 C 0.4138(6) 0.9878(4) 0.1027(4)
H24_2 H 0.342774 0.956606 0.091174
C41_2 C 0.4875(4) 0.8401(3) 0.2395(3)
H25_2 H 0.527424 0.816943 0.281100
H26_2 H 0.526455 0.909080 0.261486
C42_2 C 0.3805(4) 0.8133(4) 0.2436(4)
C43_2 C 0.3120(5) 0.7193(4) 0.2271(5)
H27_2 H 0.333777 0.672041 0.216476
C44_2 C 0.2128(5) 0.6945(5) 0.2262(5)
H28_2 H 0.169034 0.631495 0.215916
C45_2 C 0.1788(4) 0.7634(5) 0.2407(4)
C46_2 C 0.2446(5) 0.8563(5) 0.2587(5)
H29_2 H 0.222734 0.903425 0.270049
C47_2 C 0.3448(5) 0.8800(4) 0.2599(5)
H30_2 H 0.389004 0.943491 0.272321
C48_2 C 0.0680(5) 0.7371(6) 0.2359(5)
N1_2 N 0.4799(3) 0.8018(3) 0.1464(3)
N2_2 N 0.3027(3) 0.8246(3) 0.5506(3)
O5_2 O 0.7751(6) 0.7654(6) 0.5541(7)
O6_2 O 0.6542(7) 0.6972(6) 0.4150(6)
O7 O 0.6955(3) 0.6280(3) 0.2574(3)
O8 O 0.5803(3) 0.4763(3) 0.1853(3)
O13_2 O 0.0436(4) 0.7997(5) 0.2601(5)
O14_2 O 0.0050(4) 0.6516(5) 0.2084(4)
O17_2 O 0.9827(7) 0.7958(6) 0.5538(7)
O18 O 0.9046(3) 0.6328(2) 0.3524(2)
H31_2 H 0.989401 0.861539 0.565177
C29_2 C 0.2754(4) 0.4687(3) 0.9243(3)
H17_2 H 0.330659 0.652480 0.998318
C1_2 C 0.9397(4) 0.5714(3) 0.3602(3)
O1_2 O 0.8812(3) 0.4838(2) 0.3183(3)
H32 H 0.960421 0.208042 0.463847
H32_2 H 0.0395791 0.791958 0.536153
loop_
_geom_bond_atom_site_label_1
_geom_bond_atom_site_label_2
_geom_bond_site_symmetry_1
_geom_bond_site_symmetry_2
Cd1 O2 1_555 1_555
Cd2 O1 1_555 1_555
O1 C1 1_555 1_555
O2 C1 1_555 1_555
Cd11 O2 1_555 1_555
O21 Cd2 1_555 1_555
O22 Cd1 1_555 1_555
O23 Cd2 1_555 1_555
O24 Cd1 1_555 1_555
O25 Cd1 1_555 1_555
O26 Cd2 1_555 1_555
O27 Cd2 1_555 1_555
O29 Cd1 1_555 1_555
O30 Cd1 1_555 1_555
Cd2 O25 1_555 1_555
Cd11 O21 1_555 1_555
Cd11 O22 1_555 1_555
Cd11 O29 1_555 1_555
O9 C29 1_555 1_555
O10 C29 1_555 1_555
Cd6 O9 1_555 1_555
Cd10 O10 1_555 1_555
O10 Cd6 1_555 1_555
Cd11 O5 1_555 1_555
C2 C3 1_555 1_555
C3 H1 1_555 1_555
C4 C3 1_555 1_555
C5 C4 1_555 1_555
C6 C4 1_555 1_555
H2 C6 1_555 1_555
C7 C2 1_555 1_555
H3 C7 1_555 1_555
C8 C6 1_555 1_555
C9 H4 1_555 1_555
H5 C9 1_555 1_555
C10 C9 1_555 1_555
C11 C10 1_555 1_555
H6 C11 1_555 1_555
C16 C10 1_555 1_555
H9 C16 1_555 1_555
C17 H10 1_555 1_555
H11 C17 1_555 1_555
C18 C17 1_555 1_555
C19 C18 1_555 1_555
H12 C19 1_555 1_555
C20 C19 1_555 1_555
H13 C20 1_555 1_555
C21 C20 1_555 1_555
C22 C21 1_555 1_555
C23 C21 1_555 1_555
H14 C23 1_555 1_555
C24 C18 1_555 1_555
H15 C24 1_555 1_555
C25 C26 1_555 1_555
C26 C27 1_555 1_555
C27 H16 1_555 1_555
C28 C27 1_555 1_555
C30 C28 1_555 1_555
C31 C30 1_555 1_555
C32 C26 1_555 1_555
H18 C32 1_555 1_555
C33 H19 1_555 1_555
H20 C33 1_555 1_555
C34 C33 1_555 1_555
C35 C34 1_555 1_555
H21 C35 1_555 1_555
C40 C34 1_555 1_555
H24 C40 1_555 1_555
C41 H25 1_555 1_555
H26 C41 1_555 1_555
C42 C41 1_555 1_555
C43 C42 1_555 1_555
H27 C43 1_555 1_555
C44 C43 1_555 1_555
H28 C44 1_555 1_555
C45 C44 1_555 1_555
C46 C45 1_555 1_555
H29 C46 1_555 1_555
C47 C42 1_555 1_555
H30 C47 1_555 1_555
C48 C45 1_555 1_555
N1 C31 1_555 1_555
N2 C8 1_555 1_555
O3 C5 1_555 1_555
O4 C5 1_555 1_555
O5 C22 1_555 1_555
O6 Cd11 1_555 1_555
O23 C25 1_555 1_555
O17 Cd11 1_555 1_555
Cd10 O4 1_555 1_555
Cd13 O3 1_555 1_555
O19 Cd11 1_555 1_555
C7 C8 1_555 1_555
C9 N2 1_555 1_555
C17 N2 1_555 1_555
C22 O6 1_555 1_555
C23 C24 1_555 1_555
C25 O22 1_555 1_555
C31 C32 1_555 1_555
C33 N1 1_555 1_555
C41 N1 1_555 1_555
C46 C47 1_555 1_555
C48 O13 1_555 1_555
C48 O14 1_555 1_555
O4 Cd13 1_555 1_555
O17 H31 1_555 1_555
H7 C12 1_555 1_555
C13 C12 1_555 1_555
C14 C13 1_555 1_555
C15 C13 1_555 1_555
H8 C15 1_555 1_555
H22 C36 1_555 1_555
C37 C36 1_555 1_555
C38 C37 1_555 1_555
C39 C37 1_555 1_555
H23 C39 1_555 1_555
O26 C38 1_555 1_555
O27 C38 1_555 1_555
O15 C14 1_555 1_555
O16 C14 1_555 1_555
Cd6 O15 1_555 1_555
Cd13 O15 1_555 1_555
O16 Cd6 1_555 1_555
H7_2 C12_2 1_555 1_555
C13_2 C12_2 1_555 1_555
C14_2 C13_2 1_555 1_555
C15_2 C13_2 1_555 1_555
H8_2 C15_2 1_555 1_555
H22_2 C36_2 1_555 1_555
C37_2 C36_2 1_555 1_555
C38_2 C37_2 1_555 1_555
C39_2 C37_2 1_555 1_555
H23_2 C39_2 1_555 1_555
O11 C38_2 1_555 1_555
O12 C38_2 1_555 1_555
O29 C14_2 1_555 1_555
O30 C14_2 1_555 1_555
Cd10 O11 1_555 1_555
O12 Cd10 1_555 1_555
Cd13 O5_2 1_555 1_555
C2_2 C3_2 1_555 1_555
C3_2 H1_2 1_555 1_555
C4_2 C3_2 1_555 1_555
C5_2 C4_2 1_555 1_555
C6_2 C4_2 1_555 1_555
H2_2 C6_2 1_555 1_555
C7_2 C2_2 1_555 1_555
H3_2 C7_2 1_555 1_555
C8_2 C6_2 1_555 1_555
C9_2 H4_2 1_555 1_555
H5_2 C9_2 1_555 1_555
C10_2 C9_2 1_555 1_555
C11_2 C10_2 1_555 1_555
H6_2 C11_2 1_555 1_555
C16_2 C10_2 1_555 1_555
H9_2 C16_2 1_555 1_555
C17_2 H10_2 1_555 1_555
H11_2 C17_2 1_555 1_555
C18_2 C17_2 1_555 1_555
C19_2 C18_2 1_555 1_555
H12_2 C19_2 1_555 1_555
C20_2 C19_2 1_555 1_555
H13_2 C20_2 1_555 1_555
C21_2 C20_2 1_555 1_555
C22_2 C21_2 1_555 1_555
C23_2 C21_2 1_555 1_555
H14_2 C23_2 1_555 1_555
C24_2 C18_2 1_555 1_555
H15_2 C24_2 1_555 1_555
C25_2 C26_2 1_555 1_555
C26_2 C27_2 1_555 1_555
C27_2 H16_2 1_555 1_555
C28_2 C27_2 1_555 1_555
C30_2 C28_2 1_555 1_555
C31_2 C30_2 1_555 1_555
C32_2 C26_2 1_555 1_555
H18_2 C32_2 1_555 1_555
C33_2 H19_2 1_555 1_555
H20_2 C33_2 1_555 1_555
C34_2 C33_2 1_555 1_555
C35_2 C34_2 1_555 1_555
H21_2 C35_2 1_555 1_555
C40_2 C34_2 1_555 1_555
H24_2 C40_2 1_555 1_555
C41_2 H25_2 1_555 1_555
H26_2 C41_2 1_555 1_555
C42_2 C41_2 1_555 1_555
C43_2 C42_2 1_555 1_555
H27_2 C43_2 1_555 1_555
C44_2 C43_2 1_555 1_555
H28_2 C44_2 1_555 1_555
C45_2 C44_2 1_555 1_555
C46_2 C45_2 1_555 1_555
H29_2 C46_2 1_555 1_555
C47_2 C42_2 1_555 1_555
H30_2 C47_2 1_555 1_555
C48_2 C45_2 1_555 1_555
N1_2 C31_2 1_555 1_555
N2_2 C8_2 1_555 1_555
O19 C5_2 1_555 1_555
O21 C5_2 1_555 1_555
O5_2 C22_2 1_555 1_555
O6_2 Cd13 1_555 1_555
O7 Cd13 1_555 1_555
O8 C25_2 1_555 1_555
O17_2 Cd13 1_555 1_555
Cd6 O7 1_555 1_555
Cd10 O8 1_555 1_555
O18 Cd13 1_555 1_555
C7_2 C8_2 1_555 1_555
C9_2 N2_2 1_555 1_555
C17_2 N2_2 1_555 1_555
C22_2 O6_2 1_555 1_555
C23_2 C24_2 1_555 1_555
C25_2 O7 1_555 1_555
C31_2 C32_2 1_555 1_555
C33_2 N1_2 1_555 1_555
C41_2 N1_2 1_555 1_555
C46_2 C47_2 1_555 1_555
C48_2 O13_2 1_555 1_555
C48_2 O14_2 1_555 1_555
Cd6 O18 1_555 1_555
O17_2 H31_2 1_555 1_555
O24 C29_2 1_555 1_555
O25 C29_2 1_555 1_555
Cd10 O1_2 1_555 1_555
O1_2 C1_2 1_555 1_555
O18 C1_2 1_555 1_555

#END
