
###############################################################################
#
# This file contains modified crystal structure data generated from the
# MOF subset of the Cambridge Structural Database (CSD) v543 
# hosted by the Cambridge Crystallographic Data Centre (CCDC).
#
# This work is licensed under the Creative Commons
# Attribution-NonCommercial-ShareAlike 4.0 International License.
# To view a copy of this license, visit
# http://creativecommons.org/licenses/by-nc-sa/4.0/
# or send a letter to
# Creative Commons, PO Box 1866, Mountain View, CA 94042, USA.
#
# CIF created using the CSD Python API on 29 September 2022
# The structure has been converted into the P1 space group
# The structure has a 3D framework
# The original CSD entry DUYCAE is in the monoclinic crystal system
# The framework has been calculated to contain at least 10.0% void space
# The void calculation uses a probe of radius 1.32A, grid spacing 0.4
#
###############################################################################

data_DUYCAE
_chemical_formula_moiety         '(C192 H182 Cd8 N28 O32)n'
_symmetry_cell_setting           triclinic
_symmetry_space_group_name_H-M   'P 1'
_symmetry_Int_Tables_number      1
_space_group_name_Hall           'P 1'
loop_
_symmetry_equiv_pos_site_id
_symmetry_equiv_pos_as_xyz
1 x,y,z
_cell_length_a                   18.504(11)
_cell_length_b                   9.923(6)
_cell_length_c                   29.535(18)
_cell_angle_alpha                90
_cell_angle_beta                 104.837(8)
_cell_angle_gamma                90
_cell_volume                     5242.26
loop_
_atom_site_label
_atom_site_type_symbol
_atom_site_fract_x
_atom_site_fract_y
_atom_site_fract_z
H7 H 0.003240 0.027562 0.750698
C20 C 0.0888(5) 0.6117(8) 0.0071(2)
H13 H 0.132053 0.559724 0.013939
C21 C 0.0722(5) 0.6912(6) 0.0408(2)
C22 C 0.1205(6) 0.6925(7) 0.0909(3)
C23 C 0.0083(6) 0.7706(9) 0.0302(3)
O7 O 0.1731(4) 0.6123(6) 0.10248(17)
O8 O 0.1039(4) 0.7721(6) 0.11903(19)
Cd13 Cd 0.18488(4) 0.67949(5) 0.18076(2)
Cd2 Cd 0.18488(4) 0.82051(5) 0.68076(2)
C12 C 0.0126(6) 0.9684(10) 0.7760(4)
C13 C 0.0653(6) 0.8694(9) 0.7797(3)
C14 C 0.1060(6) 0.8558(11) 0.7420(3)
C15 C 0.0805(7) 0.7839(12) 0.8169(4)
H8 H 0.115947 0.716061 0.819256
C16 C 0.0426(6) 0.7993(10) 0.8514(3)
H9 H 0.053333 0.741687 0.877066
C19 C 0.0406(5) 0.6092(7) 0.9627(2)
H12 H 0.051171 0.552455 0.940193
O5 O 0.0999(5) 0.9424(7) 0.7102(2)
O6 O 0.1475(4) 0.7520(7) 0.7436(2)
O17 O 0.2820(3) 0.9563(4) 0.70788(15)
O22 O 0.2802(3) 0.6742(4) 0.69732(18)
O26 O 0.1731(4) 0.8877(6) 0.60248(17)
O28 O 0.1039(4) 0.7279(6) 0.61903(19)
C5 C 0.6916(4) 0.0668(5) 0.7831(2)
H2 H 0.817391 0.012286 0.845713
H6 H 0.936062 0.045026 0.806138
O3 O 0.6316(3) 0.0713(4) 0.75192(14)
O4 O 0.7198(3) 0.1742(4) 0.80268(18)
Cd5 Cd 0.62405(3) 0.31347(4) 0.75110(2)
Cd10 Cd 0.81512(4) 0.32051(5) 0.81924(2)
H14 H 0.996908 0.826072 0.052791
C30 C 0.4920(7) 0.3637(9) 0.0130(3)
H22 H 0.514845 0.278331 0.024691
H23 H 0.438465 0.356076 0.008905
C49 C 0.3860(5) 0.6690(7) 0.1412(2)
H46 H 0.335228 0.652678 0.137146
C50 C 0.4129(5) 0.6760(7) 0.1027(3)
H47 H 0.380770 0.665766 0.073055
C51 C 0.4887(6) 0.6985(7) 0.1077(3)
C52 C 0.5196(7) 0.7100(10) 0.0651(3)
H48 H 0.573740 0.705694 0.074930
H49 H 0.505795 0.796886 0.050319
C53 C 0.5231(7) 0.4750(9) 0.0478(3)
H50 H 0.577040 0.478198 0.053042
H51 H 0.512076 0.454776 0.077414
C55 C 0.5319(6) 0.7155(10) 0.1519(3)
H54 H 0.582857 0.732483 0.157334
C56 C 0.4981(6) 0.7070(8) 0.1890(3)
H55 H 0.528162 0.718595 0.219234
N8 N 0.4286(4) 0.6844(5) 0.18405(18)
N9 N 0.4922(4) 0.6047(6) 0.03145(19)
Cd7 Cd 0.37595(3) 0.68653(4) 0.24890(2)
C1 C 0.6860(4) 0.5680(5) 0.77674(19)
C2 C 0.7253(4) 0.6949(5) 0.7960(2)
C3 C 0.6918(4) 0.8163(5) 0.78006(18)
H1 H 0.646763 0.818917 0.757150
C4 C 0.7278(4) 0.9368(5) 0.79944(19)
C6 C 0.7943(4) 0.9323(6) 0.83345(18)
C7 C 0.8275(4) 0.8103(6) 0.8497(2)
C8 C 0.7928(4) 0.6937(5) 0.83026(19)
H3 H 0.815256 0.611338 0.840308
C9 C 0.9487(5) 0.9111(7) 0.8869(2)
H4 H 0.985203 0.909534 0.917010
H5 H 0.924472 0.998461 0.883590
C10 C 0.9901(5) 0.8965(7) 0.8484(3)
C11 C 0.9736(6) 0.9806(9) 0.8095(3)
C17 C 0.9219(6) 0.6760(7) 0.9036(3)
H10 H 0.945924 0.635937 0.881287
H11 H 0.881150 0.617464 0.906235
C18 C 0.9781(5) 0.6876(7) 0.9511(2)
C24 C 0.9625(6) 0.7657(9) 0.9858(3)
H15 H 0.919050 0.817225 0.978866
C25 C 0.6140(5) 0.3310(7) 0.8588(2)
H16 H 0.664772 0.347322 0.862854
C26 C 0.5871(5) 0.3240(7) 0.8973(3)
H17 H 0.619230 0.334234 0.926945
C27 C 0.5113(6) 0.3015(7) 0.8923(3)
C28 C 0.4804(7) 0.2900(10) 0.9349(3)
H18 H 0.426260 0.294306 0.925070
H19 H 0.494205 0.203114 0.949681
C29 C 0.4769(7) 0.5250(9) 0.9522(3)
H20 H 0.422960 0.521802 0.946958
H21 H 0.487924 0.545224 0.922586
C31 C 0.4681(6) 0.2845(10) 0.8481(3)
H24 H 0.417143 0.267517 0.842666
C32 C 0.5019(6) 0.2930(8) 0.8110(3)
H25 H 0.471838 0.281405 0.780766
C33 C 0.4775(6) 0.1990(7) 0.6768(3)
H26 H 0.496505 0.116400 0.689341
C34 C 0.4165(5) 0.2004(7) 0.6384(2)
H27 H 0.395679 0.119566 0.625353
C35 C 0.3869(4) 0.3194(6) 0.6197(2)
C36 C 0.4160(5) 0.4343(7) 0.6404(2)
H28 H 0.394538 0.516634 0.629406
C37 C 0.4782(5) 0.4302(7) 0.6784(2)
H29 H 0.498884 0.510803 0.691722
C38 C 0.3156(6) 0.3189(8) 0.5803(3)
H30 H 0.317169 0.243289 0.559770
H31 H 0.273367 0.305271 0.593654
C39 C 0.2247(5) 0.4594(11) 0.5286(3)
H32 H 0.195194 0.462180 0.551435
H33 H 0.207624 0.383624 0.507892
C40 C 0.2136(6) 0.5875(11) 0.5008(3)
H34 H 0.161296 0.596577 0.484403
H35 H 0.227199 0.663557 0.521889
C41 C 0.3380(5) 0.5695(9) 0.4912(2)
H36 H 0.355178 0.644948 0.512110
H37 H 0.367569 0.567014 0.468459
C42 C 0.3492(5) 0.4396(9) 0.5192(2)
H38 H 0.335380 0.363400 0.498195
H39 H 0.401519 0.430043 0.535730
C43 C 0.2494(7) 0.7096(10) 0.4397(3)
H40 H 0.276846 0.781772 0.458749
H41 H 0.196890 0.733962 0.431513
C44 C 0.2749(7) 0.6991(9) 0.3959(2)
C45 C 0.2841(7) 0.5818(9) 0.3741(3)
H42 H 0.274938 0.500084 0.387007
C46 C 0.3066(6) 0.5828(9) 0.3338(3)
H43 H 0.309300 0.500827 0.319036
C47 C 0.3183(6) 0.8052(8) 0.3352(3)
H44 H 0.330722 0.884426 0.322125
C48 C 0.2943(6) 0.8140(8) 0.3755(3)
H45 H 0.291070 0.897711 0.389061
N1 N 0.8924(4) 0.8075(5) 0.88686(18)
N2 N 0.5714(4) 0.3156(5) 0.81595(18)
N3 N 0.5078(4) 0.3953(6) 0.96855(19)
N4 N 0.5102(4) 0.3117(5) 0.69673(18)
N5 N 0.3035(4) 0.4410(7) 0.55273(18)
N6 N 0.2590(5) 0.5891(8) 0.46691(19)
N7 N 0.3246(4) 0.6920(6) 0.3145(2)
O1 O 0.7180(3) 0.4563(4) 0.79212(15)
O2 O 0.6257(3) 0.5707(4) 0.74771(14)
C54 C 0.5080(7) 0.6363(9) 0.9870(3)
H52 H 0.485155 0.721669 0.975309
H53 H 0.561535 0.643924 0.991095
C57 C 0.3140(4) 0.4320(5) 0.22326(19)
C58 C 0.2747(4) 0.3051(5) 0.2040(2)
C59 C 0.3082(4) 0.1837(5) 0.21994(18)
H56 H 0.353237 0.181083 0.242850
C60 C 0.2722(4) 0.0632(5) 0.20056(19)
C62 C 0.2057(4) 0.0677(6) 0.16655(18)
C63 C 0.1725(4) 0.1897(6) 0.1503(2)
C64 C 0.2072(4) 0.3063(5) 0.16974(19)
H58 H 0.184744 0.388662 0.159692
C65 C 0.0513(5) 0.0889(7) 0.1131(2)
H59 H 0.014797 0.090466 0.082990
H60 H 0.075528 0.001539 0.116410
C66 C 0.0099(5) 0.1035(7) 0.1516(3)
C67 C 0.0264(6) 0.0194(9) 0.1905(3)
C73 C 0.0781(6) 0.3240(7) 0.0964(3)
H65 H 0.054076 0.364063 0.118713
H66 H 0.118850 0.382536 0.093765
C74 C 0.0219(5) 0.3124(7) 0.0489(2)
C80 C 0.0375(6) 0.2343(9) 0.0142(3)
H70 H 0.080950 0.182775 0.021134
C81 C 0.5225(6) 0.8010(7) 0.3232(3)
H71 H 0.503495 0.883600 0.310659
C82 C 0.5835(5) 0.7996(7) 0.3616(2)
H72 H 0.604321 0.880434 0.374647
C83 C 0.6131(4) 0.6806(6) 0.3803(2)
C84 C 0.5840(5) 0.5657(7) 0.3596(2)
H73 H 0.605462 0.483366 0.370594
C85 C 0.5218(5) 0.5698(7) 0.3216(2)
H74 H 0.501116 0.489197 0.308278
C86 C 0.6844(6) 0.6811(8) 0.4197(3)
H75 H 0.682831 0.756711 0.440230
H76 H 0.726633 0.694729 0.406346
C87 C 0.7753(5) 0.5406(11) 0.4714(3)
H77 H 0.804806 0.537820 0.448565
H78 H 0.792376 0.616376 0.492108
C88 C 0.7864(6) 0.4125(11) 0.4992(3)
H79 H 0.838704 0.403423 0.515597
H80 H 0.772801 0.336443 0.478111
C89 C 0.6620(5) 0.4305(9) 0.5088(2)
H81 H 0.644822 0.355052 0.487890
H82 H 0.632431 0.432986 0.531541
C90 C 0.6508(5) 0.5604(9) 0.4808(2)
H83 H 0.664620 0.636600 0.501805
H84 H 0.598481 0.569957 0.464270
C91 C 0.7506(7) 0.2904(10) 0.5603(3)
H85 H 0.723154 0.218228 0.541251
H86 H 0.803110 0.266038 0.568487
C92 C 0.7251(7) 0.3009(9) 0.6041(2)
C93 C 0.7159(7) 0.4182(9) 0.6259(3)
H87 H 0.725062 0.499916 0.612993
C94 C 0.6934(6) 0.4172(9) 0.6662(3)
H88 H 0.690700 0.499173 0.680964
C95 C 0.6817(6) 0.1948(8) 0.6648(3)
H89 H 0.669278 0.115574 0.677875
C96 C 0.7057(6) 0.1860(8) 0.6245(3)
H90 H 0.708930 0.102289 0.610939
N10 N 0.1076(4) 0.1925(5) 0.11314(18)
N11 N 0.4898(4) 0.6883(5) 0.30327(18)
N12 N 0.6965(4) 0.5590(7) 0.44727(18)
N13 N 0.7410(5) 0.4109(8) 0.53309(19)
N14 N 0.6754(4) 0.3080(6) 0.6855(2)
O9 O 0.2820(3) 0.5437(4) 0.20788(15)
O10 O 0.3743(3) 0.4293(4) 0.25229(14)
O20 O 0.3684(3) 0.9287(4) 0.24808(14)
O23 O 0.2802(3) 0.8258(4) 0.19732(18)
H69 H 0.003092 0.173928 0.947209
C61 C 0.3084(4) 0.9332(5) 0.2169(2)
H57 H 0.182609 0.987714 0.154287
H61 H 0.063938 0.954974 0.193862
Cd4 Cd 0.81512(4) 0.17949(5) 0.31924(2)
C68 C 0.9874(6) 0.0316(10) 0.2240(4)
C69 C 0.9347(6) 0.1306(9) 0.2203(3)
C70 C 0.8940(6) 0.1442(11) 0.2580(3)
C71 C 0.9195(7) 0.2161(12) 0.1831(4)
H63 H 0.884053 0.283939 0.180744
C72 C 0.9574(6) 0.2007(10) 0.1486(3)
H64 H 0.946667 0.258313 0.122934
C75 C 0.9594(5) 0.3908(7) 0.0373(2)
H67 H 0.948829 0.447545 0.059807
O13 O 0.9001(5) 0.0576(7) 0.2898(2)
O14 O 0.8525(4) 0.2480(7) 0.2564(2)
O18 O 0.7180(3) 0.0437(4) 0.29212(15)
O24 O 0.7198(3) 0.3258(4) 0.30268(18)
O25 O 0.8269(4) 0.1123(6) 0.39752(17)
O27 O 0.8961(4) 0.2721(6) 0.38097(19)
C76 C 0.9112(5) 0.3883(8) 0.9929(2)
H68 H 0.867947 0.440276 0.986061
C77 C 0.9278(5) 0.3088(6) 0.9592(2)
C78 C 0.8795(6) 0.3075(7) 0.9091(3)
C79 C 0.9917(6) 0.2294(9) 0.9698(3)
O15 O 0.8269(4) 0.3877(6) 0.89752(17)
O16 O 0.8961(4) 0.2279(6) 0.88097(19)
C68_2 C 0.0126(6) 0.5316(10) 0.2760(4)
H62 H 0.003240 0.472438 0.250698
C69_2 C 0.0653(6) 0.6306(9) 0.2797(3)
C70_2 C 0.1060(6) 0.6442(11) 0.2420(3)
C71_2 C 0.0805(7) 0.7161(12) 0.3169(4)
H63_2 H 0.115947 0.783939 0.319256
C72_2 C 0.0426(6) 0.7007(10) 0.3514(3)
H64_2 H 0.053333 0.758313 0.377066
C75_2 C 0.0406(5) 0.8908(7) 0.4627(2)
H67_2 H 0.051171 0.947545 0.440193
C76_2 C 0.0888(5) 0.8883(8) 0.5071(2)
H68_2 H 0.132053 0.940276 0.513939
C77_2 C 0.0722(5) 0.8088(6) 0.5408(2)
C78_2 C 0.1205(6) 0.8075(7) 0.5909(3)
C79_2 C 0.0083(6) 0.7294(9) 0.5302(3)
O13_2 O 0.0999(5) 0.5576(7) 0.2102(2)
O14_2 O 0.1475(4) 0.7480(7) 0.2436(2)
H34_2 H 0.838704 0.096577 0.015597
C41_2 C 0.6620(5) 0.0695(9) 0.0088(2)
H37_2 H 0.632431 0.067014 0.031541
C43_2 C 0.7506(7) 0.2096(10) 0.0603(3)
H40_2 H 0.723154 0.281772 0.041251
H41_2 H 0.803110 0.233962 0.068487
C44_2 C 0.7251(7) 0.1991(9) 0.1041(2)
C45_2 C 0.7159(7) 0.0818(9) 0.1259(3)
H42_2 H 0.725062 0.000084 0.112993
C46_2 C 0.6934(6) 0.0828(9) 0.1662(3)
H43_2 H 0.690700 0.000827 0.180964
C47_2 C 0.6817(6) 0.3052(8) 0.1648(3)
H44_2 H 0.669278 0.384426 0.177875
C48_2 C 0.7057(6) 0.3140(8) 0.1245(3)
H45_2 H 0.708930 0.397711 0.110939
N6_2 N 0.7410(5) 0.0891(8) 0.03309(19)
N7_2 N 0.6754(4) 0.1920(6) 0.1855(2)
Cd3 Cd 0.62405(3) 0.18653(4) 0.25110(2)
C81_2 C 0.4775(6) 0.3010(7) 0.1768(3)
H71_2 H 0.496505 0.383600 0.189341
C82_2 C 0.4165(5) 0.2996(7) 0.1384(2)
H72_2 H 0.395679 0.380434 0.125353
C83_2 C 0.3869(4) 0.1806(6) 0.1197(2)
C84_2 C 0.4160(5) 0.0657(7) 0.1404(2)
C85_2 C 0.4782(5) 0.0698(7) 0.1784(2)
C86_2 C 0.3156(6) 0.1811(8) 0.0803(3)
H75_2 H 0.317169 0.256711 0.059770
H76_2 H 0.273367 0.194729 0.093654
C87_2 C 0.2247(5) 0.0406(11) 0.0286(3)
H77_2 H 0.195194 0.037820 0.051435
H78_2 H 0.207624 0.116376 0.007892
C90_2 C 0.3492(5) 0.0604(9) 0.0192(2)
H84_2 H 0.401519 0.069957 0.035730
N11_2 N 0.5102(4) 0.1883(5) 0.19673(18)
N12_2 N 0.3035(4) 0.0590(7) 0.05273(18)
N15 N 0.5714(4) 0.1844(5) 0.31595(18)
O20_2 O 0.6316(3) 0.4287(4) 0.25192(14)
C1_2 C 0.3140(4) 0.0680(5) 0.72326(19)
C2_2 C 0.2747(4) 0.1949(5) 0.7040(2)
C3_2 C 0.3082(4) 0.3163(5) 0.71994(18)
H1_2 H 0.353237 0.318917 0.742850
C4_2 C 0.2722(4) 0.4368(5) 0.70056(19)
C5_2 C 0.3084(4) 0.5668(5) 0.7169(2)
C6_2 C 0.2057(4) 0.4323(6) 0.66655(18)
H2_2 H 0.182609 0.512286 0.654287
C7_2 C 0.1725(4) 0.3103(6) 0.6503(2)
C8_2 C 0.2072(4) 0.1937(5) 0.66974(19)
H3_2 H 0.184744 0.111338 0.659692
C9_2 C 0.0513(5) 0.4111(7) 0.6131(2)
H4_2 H 0.014797 0.409534 0.582990
H5_2 H 0.075528 0.498461 0.616410
C10_2 C 0.0099(5) 0.3965(7) 0.6516(3)
C11_2 C 0.0264(6) 0.4806(9) 0.6905(3)
H6_2 H 0.063938 0.545026 0.693862
C17_2 C 0.0781(6) 0.1760(7) 0.5964(3)
H10_2 H 0.054076 0.135937 0.618713
H11_2 H 0.118850 0.117464 0.593765
C18_2 C 0.0219(5) 0.1876(7) 0.5489(2)
H14_2 H 0.003092 0.326072 0.447209
C24_2 C 0.0375(6) 0.2657(9) 0.5142(3)
H15_2 H 0.080950 0.317225 0.521134
C29_2 C 0.5231(7) 0.0250(9) 0.5478(3)
H20_2 H 0.577040 0.021802 0.553042
H21_2 H 0.512076 0.045224 0.577414
H28_2 H 0.605462 0.016634 0.870594
H29_2 H 0.501116 0.010803 0.808278
C40_2 C 0.7864(6) 0.0875(11) 0.9992(3)
H35_2 H 0.772801 0.163557 0.978111
H36_2 H 0.644822 0.144948 0.987890
N1_2 N 0.1076(4) 0.3075(5) 0.61314(18)
O2_2 O 0.3743(3) 0.0707(4) 0.75229(14)
O3_2 O 0.3684(3) 0.5713(4) 0.74808(14)
C49_2 C 0.6140(5) 0.1690(7) 0.3588(2)
H46_2 H 0.664772 0.152678 0.362854
C50_2 C 0.5871(5) 0.1760(7) 0.3973(3)
H47_2 H 0.619230 0.165766 0.426945
C51_2 C 0.5113(6) 0.1985(7) 0.3923(3)
C52_2 C 0.4804(7) 0.2100(10) 0.4349(3)
H48_2 H 0.426260 0.205694 0.425070
H49_2 H 0.494205 0.296886 0.449681
C54_2 C 0.4920(7) 0.1363(9) 0.5130(3)
H52_2 H 0.514845 0.221669 0.524691
H53_2 H 0.438465 0.143924 0.508905
C55_2 C 0.4681(6) 0.2155(10) 0.3481(3)
H54_2 H 0.417143 0.232483 0.342666
C56_2 C 0.5019(6) 0.2070(8) 0.3110(3)
H55_2 H 0.471838 0.218595 0.280766
N9_2 N 0.5078(4) 0.1047(6) 0.46855(19)
H83_2 H 0.335380 0.136600 0.998195
H87_2 H 0.274938 -0.000084 0.887007
Cd5_2 Cd 0.37595(3) 0.81347(4) 0.74890(2)
H38_2 H 0.664620 0.863400 0.001805
H42_3 H 0.725062 1.000084 0.112993
C57_2 C 0.6860(4) 0.9320(5) 0.27674(19)
C58_2 C 0.7253(4) 0.8051(5) 0.2960(2)
C59_2 C 0.6918(4) 0.6837(5) 0.28006(18)
H56_2 H 0.646763 0.681083 0.257150
C60_2 C 0.7278(4) 0.5632(5) 0.29944(19)
C61_2 C 0.6916(4) 0.4332(5) 0.2831(2)
C62_2 C 0.7943(4) 0.5677(6) 0.33345(18)
H57_2 H 0.817391 0.487714 0.345713
C63_2 C 0.8275(4) 0.6897(6) 0.3497(2)
C64_2 C 0.7928(4) 0.8063(5) 0.33026(19)
H58_2 H 0.815256 0.888662 0.340308
C65_2 C 0.9487(5) 0.5889(7) 0.3869(2)
H59_2 H 0.985203 0.590466 0.417010
H60_2 H 0.924472 0.501539 0.383590
C66_2 C 0.9901(5) 0.6035(7) 0.3484(3)
C67_2 C 0.9736(6) 0.5194(9) 0.3095(3)
H61_2 H 0.936062 0.454974 0.306138
C73_2 C 0.9219(6) 0.8240(7) 0.4036(3)
H65_2 H 0.945924 0.864063 0.381287
H66_2 H 0.881150 0.882536 0.406235
C74_2 C 0.9781(5) 0.8124(7) 0.4511(2)
H69_2 H 0.996908 0.673928 0.552791
C80_2 C 0.9625(6) 0.7343(9) 0.4858(3)
H70_2 H 0.919050 0.682775 0.478866
H73_2 H 0.394538 0.983366 0.129406
H74_2 H 0.498884 0.989197 0.191722
C88_2 C 0.2136(6) 0.9125(11) 0.0008(3)
H80_2 H 0.227199 0.836443 0.021889
H81_2 H 0.355178 0.855052 0.012110
N10_2 N 0.8924(4) 0.6925(5) 0.38686(18)
O10_2 O 0.6257(3) 0.9293(4) 0.24771(14)
C25_2 C 0.3860(5) 0.8310(7) 0.6412(2)
H16_2 H 0.335228 0.847322 0.637146
C26_2 C 0.4129(5) 0.8240(7) 0.6027(3)
H17_2 H 0.380770 0.834234 0.573055
C27_2 C 0.4887(6) 0.8015(7) 0.6077(3)
C28_2 C 0.5196(7) 0.7900(10) 0.5651(3)
H18_2 H 0.573740 0.794306 0.574930
H19_2 H 0.505795 0.703114 0.550319
C30_2 C 0.5080(7) 0.8637(9) 0.4870(3)
H22_2 H 0.485155 0.778331 0.475309
H23_2 H 0.561535 0.856076 0.491095
C31_2 C 0.5319(6) 0.7845(10) 0.6519(3)
H24_2 H 0.582857 0.767517 0.657334
C32_2 C 0.4981(6) 0.7930(8) 0.6890(3)
H25_2 H 0.528162 0.781405 0.719234
C33_2 C 0.5225(6) 0.6990(7) 0.8232(3)
H26_2 H 0.503495 0.616400 0.810659
C34_2 C 0.5835(5) 0.7004(7) 0.8616(2)
H27_2 H 0.604321 0.619566 0.874647
C35_2 C 0.6131(4) 0.8194(6) 0.8803(2)
C36_2 C 0.5840(5) 0.9343(7) 0.8596(2)
C37_2 C 0.5218(5) 0.9302(7) 0.8216(2)
C38_2 C 0.6844(6) 0.8189(8) 0.9197(3)
H30_2 H 0.682831 0.743289 0.940230
H31_2 H 0.726633 0.805271 0.906346
C39_2 C 0.7753(5) 0.9594(11) 0.9714(3)
H32_2 H 0.804806 0.962180 0.948565
H33_2 H 0.792376 0.883624 0.992108
C42_2 C 0.6508(5) 0.9396(9) 0.9808(2)
H39_2 H 0.598481 0.930043 0.964270
N2_2 N 0.4286(4) 0.8156(5) 0.68405(18)
N3_2 N 0.4922(4) 0.8953(6) 0.53145(19)
N4_2 N 0.4898(4) 0.8117(5) 0.80327(18)
N5_2 N 0.6965(4) 0.9410(7) 0.94727(18)
C53_2 C 0.4769(7) 0.9750(9) 0.4522(3)
H50_2 H 0.422960 0.978198 0.446958
H51_2 H 0.487924 0.954776 0.422586
H79_2 H 0.161296 0.903423 0.984403
C89_2 C 0.3380(5) 0.9305(9) 0.9912(2)
H82_2 H 0.367569 0.932986 0.968459
C91_2 C 0.2494(7) 0.7904(10) 0.9397(3)
H85_2 H 0.276846 0.718228 0.958749
H86_2 H 0.196890 0.766038 0.931513
C92_2 C 0.2749(7) 0.8009(9) 0.8959(2)
C93_2 C 0.2841(7) 0.9182(9) 0.8741(3)
H87_3 H 0.274938 0.999916 0.887007
C94_2 C 0.3066(6) 0.9172(9) 0.8338(3)
H88_2 H 0.309300 0.999173 0.819036
C95_2 C 0.3183(6) 0.6948(8) 0.8352(3)
H89_2 H 0.330722 0.615574 0.822125
C96_2 C 0.2943(6) 0.6860(8) 0.8755(3)
H90_2 H 0.291070 0.602289 0.889061
N13_2 N 0.2590(5) 0.9109(8) 0.96691(19)
N14_2 N 0.3246(4) 0.8080(6) 0.8145(2)
C12_2 C 0.9874(6) 0.4684(10) 0.7240(4)
H7_2 H 0.996760 0.527562 0.749302
C13_2 C 0.9347(6) 0.3694(9) 0.7203(3)
C14_2 C 0.8940(6) 0.3558(11) 0.7580(3)
C15_2 C 0.9195(7) 0.2839(12) 0.6831(4)
H8_2 H 0.884053 0.216061 0.680744
C16_2 C 0.9574(6) 0.2993(10) 0.6486(3)
H9_2 H 0.946667 0.241687 0.622934
C19_2 C 0.9594(5) 0.1092(7) 0.5373(2)
H12_2 H 0.948829 0.052455 0.559807
C20_2 C 0.9112(5) 0.1117(8) 0.4929(2)
H13_2 H 0.867947 0.059724 0.486061
C21_2 C 0.9278(5) 0.1912(6) 0.4592(2)
C22_2 C 0.8795(6) 0.1925(7) 0.4091(3)
C23_2 C 0.9917(6) 0.2706(9) 0.4698(3)
O5_2 O 0.9001(5) 0.4424(7) 0.7898(2)
O6_2 O 0.8525(4) 0.2520(7) 0.7564(2)
H62_2 H 0.996760 0.972438 0.249302
loop_
_geom_bond_atom_site_label_1
_geom_bond_atom_site_label_2
_geom_bond_site_symmetry_1
_geom_bond_site_symmetry_2
H13 C20 1_555 1_555
C21 C20 1_555 1_555
C22 C21 1_555 1_555
C23 C21 1_555 1_555
O7 C22 1_555 1_555
O8 C22 1_555 1_555
Cd13 O7 1_555 1_555
O8 Cd13 1_555 1_555
Cd2 O5 1_555 1_555
C13 C12 1_555 1_555
C14 C13 1_555 1_555
C15 C13 1_555 1_555
H8 C15 1_555 1_555
H9 C16 1_555 1_555
H12 C19 1_555 1_555
O5 C14 1_555 1_555
O6 Cd2 1_555 1_555
O17 Cd2 1_555 1_555
O22 Cd2 1_555 1_555
O26 Cd2 1_555 1_555
O28 Cd2 1_555 1_555
C14 O6 1_555 1_555
C15 C16 1_555 1_555
O3 C5 1_555 1_555
O4 C5 1_555 1_555
Cd5 O3 1_555 1_555
Cd10 O4 1_555 1_555
O4 Cd5 1_555 1_555
C30 H22 1_555 1_555
H23 C30 1_555 1_555
C49 H46 1_555 1_555
C50 C49 1_555 1_555
H47 C50 1_555 1_555
C51 C50 1_555 1_555
C52 C51 1_555 1_555
H48 C52 1_555 1_555
H49 C52 1_555 1_555
C53 C30 1_555 1_555
H50 C53 1_555 1_555
H51 C53 1_555 1_555
C55 C51 1_555 1_555
H54 C55 1_555 1_555
C56 C55 1_555 1_555
H55 C56 1_555 1_555
N8 C49 1_555 1_555
N9 C52 1_555 1_555
Cd7 N8 1_555 1_555
C53 N9 1_555 1_555
C56 N8 1_555 1_555
Cd5 N2 1_555 1_555
C1 C2 1_555 1_555
C2 C3 1_555 1_555
C3 H1 1_555 1_555
C4 C3 1_555 1_555
C6 C4 1_555 1_555
C7 C6 1_555 1_555
C8 C2 1_555 1_555
H3 C8 1_555 1_555
C9 H4 1_555 1_555
H5 C9 1_555 1_555
C10 C9 1_555 1_555
C11 C10 1_555 1_555
C17 H10 1_555 1_555
H11 C17 1_555 1_555
C18 C17 1_555 1_555
C24 C18 1_555 1_555
H15 C24 1_555 1_555
C25 H16 1_555 1_555
C26 C25 1_555 1_555
H17 C26 1_555 1_555
C27 C26 1_555 1_555
C28 C27 1_555 1_555
H18 C28 1_555 1_555
H19 C28 1_555 1_555
C29 H20 1_555 1_555
H21 C29 1_555 1_555
C31 C27 1_555 1_555
H24 C31 1_555 1_555
C32 C31 1_555 1_555
H25 C32 1_555 1_555
C33 H26 1_555 1_555
C34 C33 1_555 1_555
H27 C34 1_555 1_555
C35 C34 1_555 1_555
C36 C35 1_555 1_555
H28 C36 1_555 1_555
C37 C36 1_555 1_555
H29 C37 1_555 1_555
C38 C35 1_555 1_555
H30 C38 1_555 1_555
H31 C38 1_555 1_555
C39 H32 1_555 1_555
H33 C39 1_555 1_555
C40 C39 1_555 1_555
H34 C40 1_555 1_555
H35 C40 1_555 1_555
C41 H36 1_555 1_555
H37 C41 1_555 1_555
C42 C41 1_555 1_555
H38 C42 1_555 1_555
H39 C42 1_555 1_555
C43 H40 1_555 1_555
H41 C43 1_555 1_555
C44 C43 1_555 1_555
C45 C44 1_555 1_555
H42 C45 1_555 1_555
C46 C45 1_555 1_555
H43 C46 1_555 1_555
C47 H44 1_555 1_555
C48 C44 1_555 1_555
H45 C48 1_555 1_555
N1 C7 1_555 1_555
N2 C25 1_555 1_555
N3 C28 1_555 1_555
N4 Cd5 1_555 1_555
N5 C38 1_555 1_555
N6 C40 1_555 1_555
N7 C46 1_555 1_555
O1 Cd5 1_555 1_555
O2 Cd5 1_555 1_555
C54 C29 1_555 1_555
H52 C54 1_555 1_555
H53 C54 1_555 1_555
Cd7 N7 1_555 1_555
C57 C58 1_555 1_555
C58 C59 1_555 1_555
C59 H56 1_555 1_555
C60 C59 1_555 1_555
C62 C60 1_555 1_555
C63 C62 1_555 1_555
C64 C58 1_555 1_555
H58 C64 1_555 1_555
C65 H59 1_555 1_555
H60 C65 1_555 1_555
C66 C65 1_555 1_555
C67 C66 1_555 1_555
C73 H65 1_555 1_555
H66 C73 1_555 1_555
C74 C73 1_555 1_555
C80 C74 1_555 1_555
H70 C80 1_555 1_555
C81 H71 1_555 1_555
C82 C81 1_555 1_555
H72 C82 1_555 1_555
C83 C82 1_555 1_555
C84 C83 1_555 1_555
H73 C84 1_555 1_555
C85 C84 1_555 1_555
H74 C85 1_555 1_555
C86 C83 1_555 1_555
H75 C86 1_555 1_555
H76 C86 1_555 1_555
C87 H77 1_555 1_555
H78 C87 1_555 1_555
C88 C87 1_555 1_555
H79 C88 1_555 1_555
H80 C88 1_555 1_555
C89 H81 1_555 1_555
H82 C89 1_555 1_555
C90 C89 1_555 1_555
H83 C90 1_555 1_555
H84 C90 1_555 1_555
C91 H85 1_555 1_555
H86 C91 1_555 1_555
C92 C91 1_555 1_555
C93 C92 1_555 1_555
H87 C93 1_555 1_555
C94 C93 1_555 1_555
H88 C94 1_555 1_555
C95 H89 1_555 1_555
C96 C92 1_555 1_555
H90 C96 1_555 1_555
N10 C63 1_555 1_555
N11 Cd7 1_555 1_555
N12 C86 1_555 1_555
N13 C88 1_555 1_555
N14 Cd5 1_555 1_555
O9 Cd7 1_555 1_555
O10 Cd7 1_555 1_555
Cd10 O1 1_555 1_555
Cd13 O9 1_555 1_555
O20 Cd7 1_555 1_555
O23 Cd7 1_555 1_555
C1 O1 1_555 1_555
C1 O2 1_555 1_555
C7 C8 1_555 1_555
C9 N1 1_555 1_555
C17 N1 1_555 1_555
C29 N3 1_555 1_555
C32 N2 1_555 1_555
C33 N4 1_555 1_555
C37 N4 1_555 1_555
C39 N5 1_555 1_555
C41 N6 1_555 1_555
C42 N5 1_555 1_555
C43 N6 1_555 1_555
C47 C48 1_555 1_555
C47 N7 1_555 1_555
C57 O9 1_555 1_555
C57 O10 1_555 1_555
C63 C64 1_555 1_555
C65 N10 1_555 1_555
C73 N10 1_555 1_555
C81 N11 1_555 1_555
C85 N11 1_555 1_555
C87 N12 1_555 1_555
C89 N13 1_555 1_555
C90 N12 1_555 1_555
C91 N13 1_555 1_555
C94 N14 1_555 1_555
C95 C96 1_555 1_555
C95 N14 1_555 1_555
Cd13 O23 1_555 1_555
O20 C61 1_555 1_555
O23 C61 1_555 1_555
Cd4 O13 1_555 1_555
C69 C68 1_555 1_555
C70 C69 1_555 1_555
C71 C69 1_555 1_555
H63 C71 1_555 1_555
H64 C72 1_555 1_555
H67 C75 1_555 1_555
O13 C70 1_555 1_555
O14 Cd4 1_555 1_555
O18 Cd4 1_555 1_555
O24 Cd4 1_555 1_555
O25 Cd4 1_555 1_555
O27 Cd4 1_555 1_555
C70 O14 1_555 1_555
C71 C72 1_555 1_555
H68 C76 1_555 1_555
C77 C76 1_555 1_555
C78 C77 1_555 1_555
C79 C77 1_555 1_555
O15 C78 1_555 1_555
O16 C78 1_555 1_555
Cd10 O15 1_555 1_555
O16 Cd10 1_555 1_555
Cd13 O13_2 1_555 1_555
H62 C68_2 1_555 1_555
C69_2 C68_2 1_555 1_555
C70_2 C69_2 1_555 1_555
C71_2 C69_2 1_555 1_555
H63_2 C71_2 1_555 1_555
H64_2 C72_2 1_555 1_555
H67_2 C75_2 1_555 1_555
C76_2 C75_2 1_555 1_555
H68_2 C76_2 1_555 1_555
C77_2 C76_2 1_555 1_555
C78_2 C77_2 1_555 1_555
C79_2 C77_2 1_555 1_555
O13_2 C70_2 1_555 1_555
O14_2 Cd13 1_555 1_555
O26 C78_2 1_555 1_555
O28 C78_2 1_555 1_555
C70_2 O14_2 1_555 1_555
C71_2 C72_2 1_555 1_555
H37_2 C41_2 1_555 1_555
C43_2 H40_2 1_555 1_555
H41_2 C43_2 1_555 1_555
C44_2 C43_2 1_555 1_555
C45_2 C44_2 1_555 1_555
H42_2 C45_2 1_555 1_555
C46_2 C45_2 1_555 1_555
H43_2 C46_2 1_555 1_555
C47_2 H44_2 1_555 1_555
C48_2 C44_2 1_555 1_555
H45_2 C48_2 1_555 1_555
N7_2 C46_2 1_555 1_555
Cd3 N7_2 1_555 1_555
C81_2 H71_2 1_555 1_555
C82_2 C81_2 1_555 1_555
H72_2 C82_2 1_555 1_555
C83_2 C82_2 1_555 1_555
C84_2 C83_2 1_555 1_555
C85_2 C84_2 1_555 1_555
C86_2 C83_2 1_555 1_555
H75_2 C86_2 1_555 1_555
H76_2 C86_2 1_555 1_555
C87_2 H77_2 1_555 1_555
H78_2 C87_2 1_555 1_555
H84_2 C90_2 1_555 1_555
N11_2 Cd3 1_555 1_555
N12_2 C86_2 1_555 1_555
O18 Cd3 1_555 1_555
N15 Cd3 1_555 1_555
O20_2 Cd3 1_555 1_555
O24 Cd3 1_555 1_555
C41_2 N6_2 1_555 1_555
C43_2 N6_2 1_555 1_555
C47_2 C48_2 1_555 1_555
C47_2 N7_2 1_555 1_555
C81_2 N11_2 1_555 1_555
C85_2 N11_2 1_555 1_555
C87_2 N12_2 1_555 1_555
C90_2 N12_2 1_555 1_555
C1_2 C2_2 1_555 1_555
C2_2 C3_2 1_555 1_555
C3_2 H1_2 1_555 1_555
C4_2 C3_2 1_555 1_555
C5_2 C4_2 1_555 1_555
C6_2 C4_2 1_555 1_555
H2_2 C6_2 1_555 1_555
C7_2 C6_2 1_555 1_555
C8_2 C2_2 1_555 1_555
H3_2 C8_2 1_555 1_555
C9_2 H4_2 1_555 1_555
H5_2 C9_2 1_555 1_555
C10_2 C9_2 1_555 1_555
C11_2 C10_2 1_555 1_555
H6_2 C11_2 1_555 1_555
C17_2 H10_2 1_555 1_555
H11_2 C17_2 1_555 1_555
C18_2 C17_2 1_555 1_555
C24_2 C18_2 1_555 1_555
H15_2 C24_2 1_555 1_555
C29_2 H20_2 1_555 1_555
H21_2 C29_2 1_555 1_555
H35_2 C40_2 1_555 1_555
N1_2 C7_2 1_555 1_555
O3_2 C5_2 1_555 1_555
O22 C5_2 1_555 1_555
C49_2 H46_2 1_555 1_555
C50_2 C49_2 1_555 1_555
H47_2 C50_2 1_555 1_555
C51_2 C50_2 1_555 1_555
C52_2 C51_2 1_555 1_555
H48_2 C52_2 1_555 1_555
H49_2 C52_2 1_555 1_555
C54_2 C29_2 1_555 1_555
H52_2 C54_2 1_555 1_555
H53_2 C54_2 1_555 1_555
C55_2 C51_2 1_555 1_555
H54_2 C55_2 1_555 1_555
C56_2 C55_2 1_555 1_555
H55_2 C56_2 1_555 1_555
N15 C49_2 1_555 1_555
N9_2 C52_2 1_555 1_555
Cd5_2 O3_2 1_555 1_555
C1_2 O2_2 1_555 1_555
C7_2 C8_2 1_555 1_555
C9_2 N1_2 1_555 1_555
C17_2 N1_2 1_555 1_555
O22 Cd5_2 1_555 1_555
C54_2 N9_2 1_555 1_555
C56_2 N15 1_555 1_555
C57_2 C58_2 1_555 1_555
C58_2 C59_2 1_555 1_555
C59_2 H56_2 1_555 1_555
C60_2 C59_2 1_555 1_555
C61_2 C60_2 1_555 1_555
C62_2 C60_2 1_555 1_555
H57_2 C62_2 1_555 1_555
C63_2 C62_2 1_555 1_555
C64_2 C58_2 1_555 1_555
H58_2 C64_2 1_555 1_555
C65_2 H59_2 1_555 1_555
H60_2 C65_2 1_555 1_555
C66_2 C65_2 1_555 1_555
C67_2 C66_2 1_555 1_555
H61_2 C67_2 1_555 1_555
C73_2 H65_2 1_555 1_555
H66_2 C73_2 1_555 1_555
C74_2 C73_2 1_555 1_555
C80_2 C74_2 1_555 1_555
H70_2 C80_2 1_555 1_555
H80_2 C88_2 1_555 1_555
N10_2 C63_2 1_555 1_555
O20_2 C61_2 1_555 1_555
O24 C61_2 1_555 1_555
C57_2 O10_2 1_555 1_555
C63_2 C64_2 1_555 1_555
C65_2 N10_2 1_555 1_555
C73_2 N10_2 1_555 1_555
Cd5_2 N2_2 1_555 1_555
C25_2 H16_2 1_555 1_555
C26_2 C25_2 1_555 1_555
H17_2 C26_2 1_555 1_555
C27_2 C26_2 1_555 1_555
C28_2 C27_2 1_555 1_555
H18_2 C28_2 1_555 1_555
H19_2 C28_2 1_555 1_555
C30_2 H22_2 1_555 1_555
H23_2 C30_2 1_555 1_555
C31_2 C27_2 1_555 1_555
H24_2 C31_2 1_555 1_555
C32_2 C31_2 1_555 1_555
H25_2 C32_2 1_555 1_555
C33_2 H26_2 1_555 1_555
C34_2 C33_2 1_555 1_555
H27_2 C34_2 1_555 1_555
C35_2 C34_2 1_555 1_555
C36_2 C35_2 1_555 1_555
C37_2 C36_2 1_555 1_555
C38_2 C35_2 1_555 1_555
H30_2 C38_2 1_555 1_555
H31_2 C38_2 1_555 1_555
C39_2 H32_2 1_555 1_555
H33_2 C39_2 1_555 1_555
H39_2 C42_2 1_555 1_555
N2_2 C25_2 1_555 1_555
N3_2 C28_2 1_555 1_555
N4_2 Cd5_2 1_555 1_555
N5_2 C38_2 1_555 1_555
O17 Cd5_2 1_555 1_555
C53_2 C30_2 1_555 1_555
H50_2 C53_2 1_555 1_555
H51_2 C53_2 1_555 1_555
H82_2 C89_2 1_555 1_555
C91_2 H85_2 1_555 1_555
H86_2 C91_2 1_555 1_555
C92_2 C91_2 1_555 1_555
C93_2 C92_2 1_555 1_555
H87_3 C93_2 1_555 1_555
C94_2 C93_2 1_555 1_555
H88_2 C94_2 1_555 1_555
C95_2 H89_2 1_555 1_555
C96_2 C92_2 1_555 1_555
H90_2 C96_2 1_555 1_555
N14_2 Cd5_2 1_555 1_555
C30_2 N3_2 1_555 1_555
C32_2 N2_2 1_555 1_555
C33_2 N4_2 1_555 1_555
C37_2 N4_2 1_555 1_555
C39_2 N5_2 1_555 1_555
C42_2 N5_2 1_555 1_555
C89_2 N13_2 1_555 1_555
C91_2 N13_2 1_555 1_555
C94_2 N14_2 1_555 1_555
C95_2 C96_2 1_555 1_555
C95_2 N14_2 1_555 1_555
Cd10 O5_2 1_555 1_555
H7_2 C12_2 1_555 1_555
C13_2 C12_2 1_555 1_555
C14_2 C13_2 1_555 1_555
C15_2 C13_2 1_555 1_555
H8_2 C15_2 1_555 1_555
H9_2 C16_2 1_555 1_555
H12_2 C19_2 1_555 1_555
C20_2 C19_2 1_555 1_555
H13_2 C20_2 1_555 1_555
C21_2 C20_2 1_555 1_555
C22_2 C21_2 1_555 1_555
C23_2 C21_2 1_555 1_555
O5_2 C14_2 1_555 1_555
O6_2 Cd10 1_555 1_555
O25 C22_2 1_555 1_555
O27 C22_2 1_555 1_555
C14_2 O6_2 1_555 1_555
C15_2 C16_2 1_555 1_555

#END
