
###############################################################################
#
# This file contains modified crystal structure data generated from the
# MOF subset of the Cambridge Structural Database (CSD) v543 
# hosted by the Cambridge Crystallographic Data Centre (CCDC).
#
# This work is licensed under the Creative Commons
# Attribution-NonCommercial-ShareAlike 4.0 International License.
# To view a copy of this license, visit
# http://creativecommons.org/licenses/by-nc-sa/4.0/
# or send a letter to
# Creative Commons, PO Box 1866, Mountain View, CA 94042, USA.
#
# CIF created using the CSD Python API on 29 September 2022
# The structure has been converted into the P1 space group
# The structure has a 3D framework
# The original CSD entry DUYJIS is in the monoclinic crystal system
# The framework has been calculated to contain at least 10.0% void space
# The void calculation uses a probe of radius 1.32A, grid spacing 0.4
# The framework is charged, counterions have been retained in the structure
#
###############################################################################

data_DUYJIS
_chemical_formula_moiety         '(C208 H128 Cl8 Cu5 N32 O32 S32 3-)n'
_symmetry_cell_setting           triclinic
_symmetry_space_group_name_H-M   'P 1'
_symmetry_Int_Tables_number      1
_space_group_name_Hall           'P 1'
loop_
_symmetry_equiv_pos_site_id
_symmetry_equiv_pos_as_xyz
1 x,y,z
_cell_length_a                   15.8574(5)
_cell_length_b                   19.3325(11)
_cell_length_c                   25.2962(10)
_cell_angle_alpha                90
_cell_angle_beta                 102.694(4)
_cell_angle_gamma                90
_cell_volume                     7565.34
loop_
_atom_site_label
_atom_site_type_symbol
_atom_site_fract_x
_atom_site_fract_y
_atom_site_fract_z
C42 C 0.0108(3) 0.0437(3) 0.2046(2)
H27 H 0.0420 0.0749 0.1884
C43 C 0.0246(3) 0.0404(4) 0.2604(2)
H28 H 0.0644 0.0706 0.2809
S8 S 0.03073(8) 0.01073(8) 0.08830(5)
N19 N 0.1025(2) 0.0634(3) 0.39370(17)
Cu2 Cu 0.00385(4) 0.99568(4) 0.36878(2)
N17 N 0.0711(3) 0.9092(3) 0.40322(17)
H5 H 0.2933 0.3793 0.9834
C12 C 0.0587(4) 0.2491(3) 0.9765(2)
S1 S 0.12705(8) 0.32220(8) 0.98546(6)
S2 S 0.11178(8) 0.17056(8) 0.99659(6)
Cu9 Cu 0.99615(4) 0.00432(4) 0.63122(2)
C69 C 0.9892(3) 0.9563(3) 0.7954(2)
H43 H 0.9580 0.9251 0.8116
C70 C 0.9754(3) 0.9596(4) 0.7396(2)
H44 H 0.9356 0.9294 0.7191
S12 S 0.96927(8) 0.98927(8) 0.91170(5)
H53 H 0.7067 0.6207 0.0166
C90 C 0.9413(4) 0.7509(3) 0.0235(2)
S13 S 0.87295(8) 0.67780(8) 0.01454(6)
S14 S 0.88822(8) 0.82944(8) 0.00341(6)
C1 C 0.0780(3) 0.6172(3) 0.42547(19)
H1 H 0.0213 0.6223 0.4291
C2 C 0.1386(3) 0.6662(3) 0.4496(2)
H2 H 0.1232 0.7019 0.4702
C3 C 0.2230(3) 0.6608(3) 0.44219(19)
C4 C 0.2418(3) 0.6060(3) 0.4109(2)
H3 H 0.2969 0.6017 0.4041
C5 C 0.1786(3) 0.5579(3) 0.3898(2)
H4 H 0.1929 0.5209 0.3699
C6 C 0.2840(3) 0.7780(3) 0.4745(2)
C7 C 0.2090(3) 0.8218(3) 0.4499(2)
C8 C 0.1802(3) 0.8730(3) 0.4803(2)
H5_2 H 0.2067 0.8793 0.5166
C9 C 0.1122(3) 0.9139(3) 0.4560(2)
H6 H 0.0929 0.9471 0.4772
C10 C 0.0975(3) 0.8593(3) 0.3748(2)
H7 H 0.0689 0.8539 0.3388
C11 C 0.1656(3) 0.8144(3) 0.3956(2)
H8 H 0.1817 0.7802 0.3739
C12_2 C 0.4413(4) 0.7491(3) 0.5235(2)
C13 C 0.5263(4) 0.7531(3) 0.5457(2)
C14 C 0.6845(3) 0.7954(3) 0.5759(2)
C15 C 0.7571(3) 0.8441(3) 0.5867(2)
C16 C 0.7531(3) 0.9055(3) 0.6137(2)
H9 H 0.7036 0.9172 0.6257
C17 C 0.8226(3) 0.9490(3) 0.6225(2)
H10 H 0.8184 0.9900 0.6410
C18 C 0.9003(3) 0.8781(3) 0.5793(2)
H11 H 0.9506 0.8678 0.5676
C19 C 0.8321(4) 0.8313(3) 0.5675(2)
H12 H 0.8363 0.7919 0.5470
C20 C 0.6893(3) 0.7261(3) 0.5720(2)
C21 C 0.7696(3) 0.6834(3) 0.5830(2)
C22 C 0.8249(3) 0.6842(3) 0.6343(2)
H13 H 0.8138 0.7133 0.6612
C23 C 0.8960(3) 0.6414(3) 0.6444(2)
H14 H 0.9322 0.6422 0.6788
C24 C 0.8645(3) 0.6003(3) 0.5569(2)
H15 H 0.8793 0.5733 0.5299
C25 C 0.7906(3) 0.6412(3) 0.5438(2)
H16 H 0.7557 0.6400 0.5091
C26 C 0.0273(3) 0.5319(3) 0.2601(2)
H17 H 0.0700 0.5600 0.2804
C27 C 0.0155(3) 0.5329(3) 0.2051(2)
H18 H 0.0512 0.5600 0.1889
C52 C 0.2908(3) 0.7088(3) 0.4689(2)
Cu1 Cu 0.00778(3) 0.48638(4) 0.36989(2)
N1 N 0.0971(2) 0.5628(2) 0.39715(15)
N3 N 0.8975(2) 0.9366(3) 0.60630(17)
N4 N 0.9155(2) 0.5983(2) 0.60687(16)
S1_2 S 0.37295(8) 0.82220(8) 0.51454(6)
S2_2 S 0.38822(8) 0.67056(8) 0.50341(6)
S3 S 0.59225(8) 0.67902(8) 0.55622(7)
S4 S 0.57915(8) 0.83063(8) 0.56770(6)
S5 S 0.03238(8) 0.48713(8) 0.08830(5)
C79 C 0.9220(3) 0.3828(3) 0.57453(19)
H49 H 0.9787 0.3777 0.5709
C80 C 0.8614(3) 0.3338(3) 0.5504(2)
H50 H 0.8768 0.2981 0.5298
C81 C 0.7770(3) 0.3392(3) 0.55781(19)
C82 C 0.7582(3) 0.3940(3) 0.5891(2)
H51 H 0.7031 0.3983 0.5959
C83 C 0.8214(3) 0.4421(3) 0.6102(2)
H52 H 0.8071 0.4791 0.6301
C84 C 0.7160(3) 0.2220(3) 0.5255(2)
C85 C 0.7910(3) 0.1782(3) 0.5501(2)
C86 C 0.8198(3) 0.1270(3) 0.5197(2)
H53_2 H 0.7933 0.1207 0.4834
C87 C 0.8878(3) 0.0861(3) 0.5440(2)
H54 H 0.9071 0.0529 0.5228
C88 C 0.9025(3) 0.1407(3) 0.6252(2)
H55 H 0.9311 0.1461 0.6612
C89 C 0.8344(3) 0.1856(3) 0.6044(2)
H56 H 0.8183 0.2198 0.6261
C90_2 C 0.5587(4) 0.2509(3) 0.4765(2)
C91 C 0.4737(4) 0.2469(3) 0.4543(2)
C92 C 0.3155(3) 0.2046(3) 0.4241(2)
C93 C 0.2429(3) 0.1559(3) 0.4133(2)
C94 C 0.2469(3) 0.0945(3) 0.3863(2)
H57 H 0.2964 0.0828 0.3743
C95 C 0.1774(3) 0.0510(3) 0.3775(2)
H58 H 0.1816 0.0100 0.3590
C96 C 0.0997(3) 0.1219(3) 0.4207(2)
H59 H 0.0494 0.1322 0.4324
C97 C 0.1679(4) 0.1687(3) 0.4325(2)
H60 H 0.1637 0.2081 0.4530
C98 C 0.3107(3) 0.2739(3) 0.4280(2)
C99 C 0.2304(3) 0.3166(3) 0.4170(2)
C100 C 0.1751(3) 0.3158(3) 0.3657(2)
H61 H 0.1862 0.2867 0.3388
C101 C 0.1040(3) 0.3586(3) 0.3556(2)
H62 H 0.0678 0.3578 0.3212
C102 C 0.1355(3) 0.3997(3) 0.4431(2)
H63 H 0.1207 0.4267 0.4701
C103 C 0.2094(3) 0.3588(3) 0.4562(2)
H64 H 0.2443 0.3600 0.4909
C104 C 0.7092(3) 0.2912(3) 0.5311(2)
Cu3 Cu 0.99222(3) 0.51362(4) 0.63011(2)
N13 N 0.9029(2) 0.4372(2) 0.60285(15)
N14 N 0.9289(3) 0.0908(3) 0.59678(17)
N16 N 0.0845(2) 0.4017(2) 0.39313(16)
S13_2 S 0.62705(8) 0.17780(8) 0.48546(6)
S14_2 S 0.61178(8) 0.32944(8) 0.49659(6)
S15 S 0.40775(8) 0.32098(8) 0.44378(7)
S16 S 0.42085(8) 0.16937(8) 0.43230(6)
C53 C 0.9727(3) 0.4681(3) 0.7399(2)
H33 H 0.9300 0.4400 0.7196
C54 C 0.9845(3) 0.4671(3) 0.7949(2)
H34 H 0.9488 0.4400 0.8111
S9 S 0.96762(8) 0.51287(8) 0.91170(5)
C66 C 0.0743(3) 0.0465(3) 0.7447(2)
H41 H 0.1037 0.0780 0.7276
C67 C 0.0924(3) 0.0462(3) 0.8004(2)
H42 H 0.1331 0.0765 0.8199
C76 C 0.3725(3) 0.0421(3) 0.93109(19)
H47 H 0.4140 0.0712 0.9513
C77 C 0.2918(3) 0.0406(3) 0.9431(2)
H48 H 0.2804 0.0675 0.9711
N11 N 0.3943(3) 0.0043(2) 0.89237(17)
N12 N 0.0171(3) 0.0046(3) 0.71344(18)
Cu6 Cu 0.50778(3) 0.01362(4) 0.86989(2)
C68 C 0.0489(3) 0.9994(3) 0.8272(2)
C71 C 0.0640(3) 0.9969(3) 0.8867(2)
C72 C 0.1391(3) 0.9976(3) 0.9234(2)
C73 C 0.2276(3) 0.9987(3) 0.9129(2)
C74 C 0.2499(3) 0.9593(3) 0.8727(2)
H45 H 0.2093 0.9303 0.8514
C75 C 0.3333(3) 0.9632(3) 0.8641(2)
H46 H 0.3473 0.9356 0.8372
C78 C 0.0216(3) 0.9960(3) 0.9801(2)
S11 S 0.13494(7) 0.99229(8) 0.99240(5)
C1_2 C 0.4220(3) 0.1172(3) 0.07453(19)
H1_2 H 0.4787 0.1223 0.0709
C2_2 C 0.3614(3) 0.1662(3) 0.0504(2)
H2_2 H 0.3768 0.2019 0.0298
C3_2 C 0.2770(3) 0.1608(3) 0.05781(19)
C4_2 C 0.2582(3) 0.1060(3) 0.0891(2)
H3_2 H 0.2031 0.1017 0.0959
C5_2 C 0.3214(3) 0.0579(3) 0.1102(2)
H4_2 H 0.3071 0.0209 0.1301
C6_2 C 0.2160(3) 0.2780(3) 0.0255(2)
C7_2 C 0.2910(3) 0.3218(3) 0.0501(2)
C8_2 C 0.3198(3) 0.3730(3) 0.0197(2)
C9_2 C 0.3878(3) 0.4139(3) 0.0440(2)
H6_2 H 0.4071 0.4471 0.0228
C10_2 C 0.4025(3) 0.3593(3) 0.1252(2)
H7_2 H 0.4311 0.3539 0.1612
C11_2 C 0.3344(3) 0.3144(3) 0.1044(2)
H8_2 H 0.3183 0.2802 0.1261
C26_2 C 0.4727(3) 0.0319(3) 0.2399(2)
H17_2 H 0.4300 0.0600 0.2196
C27_2 C 0.4845(3) 0.0329(3) 0.2949(2)
H18_2 H 0.4488 0.0600 0.3111
C35 C 0.7484(3) 0.0478(3) 0.3794(2)
H21 H 0.7090 0.0818 0.3644
C36 C 0.8300(3) 0.0478(3) 0.3698(2)
H22 H 0.8443 0.0822 0.3475
C41 C 0.9511(3) 0.0006(3) 0.1728(2)
C44 C 0.9360(3) 0.0031(3) 0.1133(2)
C45 C 0.8609(3) 0.0024(3) 0.0766(2)
C46 C 0.7724(3) 0.0013(3) 0.0871(2)
C47 C 0.7501(3) 0.0407(3) 0.1273(2)
H29 H 0.7907 0.0697 0.1486
C48 C 0.6667(3) 0.0368(3) 0.1359(2)
H30 H 0.6527 0.0644 0.1628
C51 C 0.9784(3) 0.0040(3) 0.0199(2)
C52_2 C 0.2092(3) 0.2088(3) 0.0311(2)
N1_2 N 0.4029(2) 0.0628(2) 0.10285(15)
N2 N 0.4289(3) 0.4092(3) 0.09678(17)
N6 N 0.8912(3) 0.0006(2) 0.39087(17)
S7 S 0.86506(7) 0.00771(8) 0.00760(5)
C55 C 0.4507(3) 0.0064(3) 0.67312(19)
C56 C 0.4004(3) 0.0476(3) 0.69997(19)
H35 H 0.3565 0.0755 0.6805
C57 C 0.4174(3) 0.0457(3) 0.75562(19)
H36 H 0.3829 0.0727 0.7729
C58 C 0.4377(3) 0.0073(3) 0.6137(2)
C59 C 0.4789(3) 0.0047(3) 0.52006(19)
C60 C 0.3624(3) 0.0066(3) 0.57682(19)
C61 C 0.2749(3) 0.0038(3) 0.58825(19)
C64 C 0.1318(3) 0.0489(3) 0.57773(19)
H39 H 0.0911 0.0825 0.5635
C65 C 0.2117(3) 0.0527(3) 0.56557(19)
H40 H 0.2239 0.0871 0.5427
N9 N 0.4799(3) 0.0079(2) 0.78684(17)
S9_2 S 0.53238(8) 0.01287(8) 0.58830(5)
S10 S 0.36571(7) 0.01129(7) 0.50796(5)
Cu4 Cu 0.49615(4) 0.49568(4) 0.13122(2)
N18 N 0.3975(2) 0.5634(3) 0.10630(17)
N21 N 0.6088(3) 0.5006(2) 0.10913(17)
N23 N 0.5171(3) 0.4954(3) 0.21344(18)
C28 C 0.5493(3) 0.9936(3) 0.32688(19)
C29 C 0.5996(3) 0.9524(3) 0.30003(19)
H19 H 0.6435 0.9245 0.3195
C30 C 0.5826(3) 0.9543(3) 0.24438(19)
H20 H 0.6171 0.9273 0.2271
C31 C 0.5623(3) 0.9927(3) 0.3863(2)
C32 C 0.5211(3) 0.9953(3) 0.47994(19)
C33 C 0.6376(3) 0.9934(3) 0.42318(19)
C34 C 0.7251(3) 0.9962(3) 0.41175(19)
C37 C 0.8682(3) 0.9511(3) 0.42227(19)
H23 H 0.9089 0.9175 0.4365
C38 C 0.7883(3) 0.9473(3) 0.43443(19)
H24 H 0.7761 0.9129 0.4573
C39 C 0.9257(3) 0.9535(3) 0.2553(2)
H25 H 0.8963 0.9220 0.2724
C40 C 0.9076(3) 0.9538(3) 0.1996(2)
H26 H 0.8669 0.9235 0.1801
C49 C 0.6275(3) 0.9579(3) 0.06891(19)
H31 H 0.5860 0.9288 0.0487
C50 C 0.7082(3) 0.9594(3) 0.0569(2)
H32 H 0.7196 0.9325 0.0289
Cu1_2 Cu 0.49222(3) 0.98638(4) 0.13011(2)
N5 N 0.5201(3) 0.9921(2) 0.21316(17)
N7 N 0.6057(3) 0.9957(2) 0.10763(17)
N8 N 0.9829(3) 0.9954(3) 0.28656(18)
S5_2 S 0.46762(8) 0.98713(8) 0.41170(5)
S6 S 0.63429(7) 0.98871(7) 0.49204(5)
C53_2 C 0.5273(3) 0.9681(3) 0.7601(2)
H33_2 H 0.5700 0.9400 0.7804
C54_2 C 0.5155(3) 0.9671(3) 0.7051(2)
H34_2 H 0.5512 0.9400 0.6889
C62 C 0.2516(3) 0.9522(3) 0.6206(2)
H37 H 0.2910 0.9182 0.6356
C63 C 0.1700(3) 0.9522(3) 0.6302(2)
H38 H 0.1557 0.9178 0.6525
N10 N 0.1088(3) 0.9994(2) 0.60913(17)
C91_2 C 0.0263(4) 0.7469(3) 0.0457(2)
C92_2 C 0.1845(3) 0.7046(3) 0.0759(2)
C93_2 C 0.2571(3) 0.6559(3) 0.0867(2)
C94_2 C 0.2531(3) 0.5945(3) 0.1137(2)
H57_2 H 0.2036 0.5828 0.1257
C95_2 C 0.3226(3) 0.5510(3) 0.1225(2)
H58_2 H 0.3184 0.5100 0.1410
C96_2 C 0.4003(3) 0.6219(3) 0.0793(2)
H59_2 H 0.4506 0.6322 0.0676
C97_2 C 0.3321(4) 0.6687(3) 0.0675(2)
H60_2 H 0.3363 0.7081 0.0470
C98_2 C 0.1893(3) 0.7739(3) 0.0720(2)
C99_2 C 0.2696(3) 0.8166(3) 0.0830(2)
C100_2 C 0.3249(3) 0.8158(3) 0.1343(2)
H61_2 H 0.3138 0.7867 0.1612
C101_2 C 0.3960(3) 0.8586(3) 0.1444(2)
H62_2 H 0.4322 0.8578 0.1788
C102_2 C 0.3645(3) 0.8997(3) 0.0569(2)
H63_2 H 0.3793 0.9267 0.0299
C103_2 C 0.2906(3) 0.8588(3) 0.0438(2)
H64_2 H 0.2557 0.8600 0.0091
N16_2 N 0.4155(2) 0.9017(2) 0.10687(16)
S15_2 S 0.09225(8) 0.82098(8) 0.05622(7)
S16_2 S 0.07915(8) 0.66937(8) 0.06770(6)
C13_2 C 0.9737(4) 0.2531(3) 0.9543(2)
C14_2 C 0.8155(3) 0.2954(3) 0.9241(2)
C15_2 C 0.7429(3) 0.3441(3) 0.9133(2)
C16_2 C 0.7469(3) 0.4055(3) 0.8863(2)
H9_2 H 0.7964 0.4172 0.8743
C17_2 C 0.6774(3) 0.4490(3) 0.8775(2)
H10_2 H 0.6816 0.4900 0.8590
C18_2 C 0.5997(3) 0.3781(3) 0.9207(2)
H11_2 H 0.5494 0.3678 0.9324
C19_2 C 0.6679(4) 0.3313(3) 0.9325(2)
H12_2 H 0.6637 0.2919 0.9530
C20_2 C 0.8107(3) 0.2261(3) 0.9280(2)
C21_2 C 0.7304(3) 0.1834(3) 0.9170(2)
C22_2 C 0.6751(3) 0.1842(3) 0.8657(2)
H13_2 H 0.6862 0.2133 0.8388
C23_2 C 0.6040(3) 0.1414(3) 0.8556(2)
H14_2 H 0.5678 0.1422 0.8212
C24_2 C 0.6355(3) 0.1003(3) 0.9431(2)
H15_2 H 0.6207 0.0733 0.9701
C25_2 C 0.7094(3) 0.1412(3) 0.9562(2)
H16_2 H 0.7443 0.1400 0.9909
N3_2 N 0.6025(2) 0.4366(3) 0.89370(17)
N4_2 N 0.5845(2) 0.0983(2) 0.89313(16)
S3_2 S 0.90775(8) 0.17902(8) 0.94378(7)
S4_2 S 0.92085(8) 0.33063(8) 0.93230(6)
Cu11 Cu 0.50385(4) 0.50432(4) 0.86878(2)
C79_2 C 0.5780(3) 0.8828(3) 0.92547(19)
H49_2 H 0.5213 0.8777 0.9291
C80_2 C 0.6386(3) 0.8338(3) 0.9496(2)
H50_2 H 0.6232 0.7981 0.9702
C81_2 C 0.7230(3) 0.8392(3) 0.94219(19)
C82_2 C 0.7418(3) 0.8940(3) 0.9109(2)
H51_2 H 0.7969 0.8983 0.9041
C83_2 C 0.6786(3) 0.9421(3) 0.8898(2)
H52_2 H 0.6929 0.9791 0.8699
C84_2 C 0.7840(3) 0.7220(3) 0.9745(2)
C85_2 C 0.7090(3) 0.6782(3) 0.9499(2)
C86_2 C 0.6802(3) 0.6270(3) 0.9803(2)
C87_2 C 0.6122(3) 0.5861(3) 0.9560(2)
H54_2 H 0.5929 0.5529 0.9772
C88_2 C 0.5975(3) 0.6407(3) 0.8748(2)
H55_2 H 0.5689 0.6461 0.8388
C89_2 C 0.6656(3) 0.6856(3) 0.8956(2)
H56_2 H 0.6817 0.7198 0.8739
C104_2 C 0.7908(3) 0.7912(3) 0.9689(2)
N13_2 N 0.5971(2) 0.9372(2) 0.89715(15)
N14_2 N 0.5711(3) 0.5908(3) 0.90322(17)
N20 N 0.0201(3) 0.5079(2) 0.71316(17)
N22 N 0.1057(3) 0.5043(2) 0.60763(17)
C55_2 C 0.0493(3) 0.5064(3) 0.82688(19)
C56_2 C 0.0996(3) 0.5476(3) 0.80003(19)
H35_2 H 0.1435 0.5755 0.8195
C57_2 C 0.0826(3) 0.5457(3) 0.74438(19)
H36_2 H 0.1171 0.5727 0.7271
C58_2 C 0.0623(3) 0.5073(3) 0.8863(2)
C59_2 C 0.0211(3) 0.5047(3) 0.97994(19)
C60_2 C 0.1376(3) 0.5066(3) 0.92318(19)
C61_2 C 0.2251(3) 0.5038(3) 0.91175(19)
C62_2 C 0.2484(3) 0.4522(3) 0.8794(2)
H37_2 H 0.2090 0.4182 0.8644
C63_2 C 0.3300(3) 0.4522(3) 0.8698(2)
H38_2 H 0.3443 0.4178 0.8475
C64_2 C 0.3682(3) 0.5489(3) 0.92227(19)
H39_2 H 0.4089 0.5825 0.9365
C65_2 C 0.2883(3) 0.5527(3) 0.93443(19)
H40_2 H 0.2761 0.5871 0.9573
N10_2 N 0.3912(3) 0.4994(2) 0.89087(17)
S10_2 S 0.13429(7) 0.51129(7) 0.99204(5)
C28_2 C 0.9507(3) 0.4936(3) 0.17312(19)
C29_2 C 0.9004(3) 0.4524(3) 0.19997(19)
H19_2 H 0.8565 0.4245 0.1805
C30_2 C 0.9174(3) 0.4543(3) 0.25562(19)
H20_2 H 0.8829 0.4273 0.2729
C31_2 C 0.9377(3) 0.4927(3) 0.1137(2)
C32_2 C 0.9789(3) 0.4953(3) 0.02006(19)
C33_2 C 0.8624(3) 0.4934(3) 0.07682(19)
C34_2 C 0.7749(3) 0.4962(3) 0.08825(19)
C35_2 C 0.7516(3) 0.5478(3) 0.1206(2)
H21_2 H 0.7910 0.5818 0.1356
C36_2 C 0.6700(3) 0.5478(3) 0.1302(2)
H22_2 H 0.6557 0.5822 0.1525
C37_2 C 0.6318(3) 0.4511(3) 0.07773(19)
H23_2 H 0.5911 0.4175 0.0635
C38_2 C 0.7117(3) 0.4473(3) 0.06557(19)
H24_2 H 0.7239 0.4129 0.0427
C39_2 C 0.5743(3) 0.4535(3) 0.2447(2)
H25_2 H 0.6037 0.4220 0.2276
C40_2 C 0.5924(3) 0.4538(3) 0.3004(2)
H26_2 H 0.6331 0.4235 0.3199
C41_2 C 0.5489(3) 0.5006(3) 0.3272(2)
C42_2 C 0.4892(3) 0.5437(3) 0.2954(2)
H27_2 H 0.4580 0.5749 0.3116
C43_2 C 0.4754(3) 0.5404(4) 0.2396(2)
H28_2 H 0.4356 0.5706 0.2191
C44_2 C 0.5640(3) 0.5031(3) 0.3867(2)
C45_2 C 0.6391(3) 0.5024(3) 0.4234(2)
C46_2 C 0.7276(3) 0.5013(3) 0.4129(2)
C47_2 C 0.7499(3) 0.5407(3) 0.3727(2)
H29_2 H 0.7093 0.5697 0.3514
C48_2 C 0.8333(3) 0.5368(3) 0.3641(2)
H30_2 H 0.8473 0.5644 0.3372
C49_2 C 0.8725(3) 0.4579(3) 0.43109(19)
H31_2 H 0.9140 0.4288 0.4513
C50_2 C 0.7918(3) 0.4594(3) 0.4431(2)
H32_2 H 0.7804 0.4325 0.4711
C51_2 C 0.5216(3) 0.5040(3) 0.4801(2)
N5_2 N 0.9799(3) 0.4921(2) 0.28684(17)
N7_2 N 0.8943(3) 0.4957(2) 0.39237(17)
S6_2 S 0.86571(7) 0.48871(7) 0.00796(5)
S7_2 S 0.63494(7) 0.50771(8) 0.49240(5)
S8_2 S 0.46927(8) 0.51073(8) 0.41170(5)
C66_2 C 0.4257(3) 0.5465(3) 0.7553(2)
H41_2 H 0.3963 0.5780 0.7724
C67_2 C 0.4076(3) 0.5462(3) 0.6996(2)
H42_2 H 0.3669 0.5765 0.6801
C68_2 C 0.4511(3) 0.4994(3) 0.6728(2)
C69_2 C 0.5108(3) 0.4563(3) 0.7046(2)
H43_2 H 0.5420 0.4251 0.6884
C70_2 C 0.5246(3) 0.4596(4) 0.7604(2)
H44_2 H 0.5644 0.4294 0.7809
C71_2 C 0.4360(3) 0.4969(3) 0.6133(2)
C72_2 C 0.3609(3) 0.4976(3) 0.5766(2)
C73_2 C 0.2724(3) 0.4987(3) 0.5871(2)
C74_2 C 0.2501(3) 0.4593(3) 0.6273(2)
H45_2 H 0.2907 0.4303 0.6486
C75_2 C 0.1667(3) 0.4632(3) 0.6359(2)
H46_2 H 0.1527 0.4356 0.6628
C76_2 C 0.1275(3) 0.5421(3) 0.56891(19)
H47_2 H 0.0860 0.5712 0.5487
C77_2 C 0.2082(3) 0.5406(3) 0.5569(2)
H48_2 H 0.2196 0.5675 0.5289
C78_2 C 0.4784(3) 0.4960(3) 0.5199(2)
N12_2 N 0.4829(3) 0.5046(3) 0.78656(18)
S11_2 S 0.36506(7) 0.49229(8) 0.50760(5)
S12_2 S 0.53073(8) 0.48927(8) 0.58830(5)
Cl1 Cl 0.25239(12) 0.66071(10) 0.26049(7)
O1 O 0.1935(4) 0.6142(4) 0.2305(3)
O2 O 0.2065(6) 0.7001(5) 0.2950(3)
O3 O 0.3097(5) 0.6242(6) 0.2989(3)
O4 O 0.3213(8) 0.6754(8) 0.2323(6)
Cl1_2 Cl 0.24761(12) 0.16071(10) 0.23951(7)
O1_2 O 0.3065(4) 0.1142(4) 0.2695(3)
O2_2 O 0.2935(6) 0.2001(5) 0.2050(3)
O3_2 O 0.1903(5) 0.1242(6) 0.2011(3)
O4_2 O 0.1787(8) 0.1754(8) 0.2677(6)
Cl1_3 Cl 0.74761(12) 0.33929(10) 0.73951(7)
O1_3 O 0.8065(4) 0.3858(4) 0.7695(3)
O2_3 O 0.7935(6) 0.2999(5) 0.7050(3)
O3_3 O 0.6903(5) 0.3758(6) 0.7011(3)
O4_3 O 0.6787(8) 0.3246(8) 0.7677(6)
Cl1_4 Cl 0.75239(12) 0.83929(10) 0.76049(7)
O1_4 O 0.6935(4) 0.8858(4) 0.7305(3)
O2_4 O 0.7065(6) 0.7999(5) 0.7950(3)
O3_4 O 0.8097(5) 0.8758(6) 0.7989(3)
O4_4 O 0.8213(8) 0.8246(8) 0.7323(6)
Cl2 Cl 0.08642(12) 0.25819(10) 0.54976(10)
O5 O 0.0392(5) 0.2712(5) 0.4923(3)
O6 O 0.0327(5) 0.2353(4) 0.5809(5)
O7 O 0.1222(5) 0.3240(3) 0.5685(3)
O8 O 0.1583(4) 0.2150(4) 0.5493(3)
O5_2 O 0.4608(5) 0.7712(5) 0.0077(3)
Cl2_2 Cl 0.41358(12) 0.75819(10) 0.95024(10)
O6_2 O 0.4673(5) 0.7353(4) 0.9191(5)
O7_2 O 0.3778(5) 0.8240(3) 0.9315(3)
O8_2 O 0.3417(4) 0.7150(4) 0.9507(3)
Cl2_3 Cl 0.91358(12) 0.74181(10) 0.45024(10)
O5_3 O 0.9608(5) 0.7288(5) 0.5077(3)
O6_3 O 0.9673(5) 0.7647(4) 0.4191(5)
O7_3 O 0.8778(5) 0.6760(3) 0.4315(3)
O8_3 O 0.8417(4) 0.7850(4) 0.4507(3)
Cl2_4 Cl 0.58642(12) 0.24181(10) 0.04976(10)
O6_4 O 0.5327(5) 0.2647(4) 0.0809(5)
O7_4 O 0.6222(5) 0.1760(3) 0.0685(3)
O8_4 O 0.6583(4) 0.2850(4) 0.0493(3)
O5_4 O 0.5392(5) 0.2288(5) 0.9923(3)
loop_
_geom_bond_atom_site_label_1
_geom_bond_atom_site_label_2
_geom_bond_site_symmetry_1
_geom_bond_site_symmetry_2
H27 C42 1_555 1_555
C43 C42 1_555 1_555
H28 C43 1_555 1_555
N17 Cu2 1_555 1_555
S2 C12 1_555 1_555
C12 S1 1_555 1_555
H43 C69 1_555 1_555
C70 C69 1_555 1_555
H44 C70 1_555 1_555
S14 C90 1_555 1_555
C90 S13 1_555 1_555
C1 H1 1_555 1_555
C2 C1 1_555 1_555
H2 C2 1_555 1_555
C3 C2 1_555 1_555
C4 C3 1_555 1_555
H3 C4 1_555 1_555
C5 C4 1_555 1_555
H4 C5 1_555 1_555
C6 C7 1_555 1_555
C7 C8 1_555 1_555
C8 H5_2 1_555 1_555
C9 C8 1_555 1_555
H6 C9 1_555 1_555
C10 H7 1_555 1_555
C11 C7 1_555 1_555
H8 C11 1_555 1_555
C12_2 C13 1_555 1_555
C13 S3 1_555 1_555
C14 C15 1_555 1_555
C15 C16 1_555 1_555
C16 H9 1_555 1_555
C17 C16 1_555 1_555
H10 C17 1_555 1_555
C18 H11 1_555 1_555
C19 C15 1_555 1_555
H12 C19 1_555 1_555
C20 C14 1_555 1_555
C21 C20 1_555 1_555
C22 C21 1_555 1_555
H13 C22 1_555 1_555
C23 C22 1_555 1_555
H14 C23 1_555 1_555
C24 H15 1_555 1_555
C25 C21 1_555 1_555
H16 C25 1_555 1_555
C26 H17 1_555 1_555
C27 C26 1_555 1_555
H18 C27 1_555 1_555
C52 C3 1_555 1_555
Cu1 N1 1_555 1_555
N1 C1 1_555 1_555
N17 C9 1_555 1_555
N3 C17 1_555 1_555
N4 C23 1_555 1_555
S1_2 C6 1_555 1_555
S2_2 C12_2 1_555 1_555
S3 C20 1_555 1_555
S4 C13 1_555 1_555
C79 H49 1_555 1_555
C80 C79 1_555 1_555
H50 C80 1_555 1_555
C81 C80 1_555 1_555
C82 C81 1_555 1_555
H51 C82 1_555 1_555
C83 C82 1_555 1_555
H52 C83 1_555 1_555
C84 C85 1_555 1_555
C85 C86 1_555 1_555
C86 H53_2 1_555 1_555
C87 C86 1_555 1_555
H54 C87 1_555 1_555
C88 H55 1_555 1_555
C89 C85 1_555 1_555
H56 C89 1_555 1_555
C90_2 C91 1_555 1_555
C91 S15 1_555 1_555
C92 C93 1_555 1_555
C93 C94 1_555 1_555
C94 H57 1_555 1_555
C95 C94 1_555 1_555
H58 C95 1_555 1_555
C96 H59 1_555 1_555
C97 C93 1_555 1_555
H60 C97 1_555 1_555
C98 C92 1_555 1_555
C99 C98 1_555 1_555
C100 C99 1_555 1_555
H61 C100 1_555 1_555
C101 C100 1_555 1_555
H62 C101 1_555 1_555
C102 H63 1_555 1_555
C103 C99 1_555 1_555
H64 C103 1_555 1_555
C104 C81 1_555 1_555
Cu3 N4 1_555 1_555
N13 C79 1_555 1_555
N14 C87 1_555 1_555
N19 C95 1_555 1_555
N16 Cu1 1_555 1_555
S13_2 C84 1_555 1_555
S14_2 C90_2 1_555 1_555
S15 C98 1_555 1_555
S16 C91 1_555 1_555
Cu9 N14 1_555 1_555
C5 N1 1_555 1_555
C6 C52 1_555 1_555
C10 C11 1_555 1_555
C10 N17 1_555 1_555
C12_2 S1_2 1_555 1_555
C14 S4 1_555 1_555
C18 C19 1_555 1_555
C18 N3 1_555 1_555
C24 C25 1_555 1_555
C24 N4 1_555 1_555
C52 S2_2 1_555 1_555
C83 N13 1_555 1_555
C84 C104 1_555 1_555
C88 C89 1_555 1_555
C88 N14 1_555 1_555
C90_2 S13_2 1_555 1_555
C92 S16 1_555 1_555
C96 C97 1_555 1_555
C96 N19 1_555 1_555
C101 N16 1_555 1_555
C102 C103 1_555 1_555
C102 N16 1_555 1_555
C104 S14_2 1_555 1_555
Cu3 N13 1_555 1_555
C53 H33 1_555 1_555
C54 C53 1_555 1_555
H34 C54 1_555 1_555
C66 H41 1_555 1_555
C67 C66 1_555 1_555
H42 C67 1_555 1_555
C76 H47 1_555 1_555
H48 C77 1_555 1_555
N12 C66 1_555 1_555
Cu6 N11 1_555 1_555
C76 C77 1_555 1_555
C76 N11 1_555 1_555
C71 C68 1_555 1_555
C72 C71 1_555 1_555
C73 C72 1_555 1_555
C74 C73 1_555 1_555
H45 C74 1_555 1_555
C75 C74 1_555 1_555
H46 C75 1_555 1_555
S11 C72 1_555 1_555
C78 S11 1_555 1_555
C1_2 H1_2 1_555 1_555
C2_2 C1_2 1_555 1_555
H2_2 C2_2 1_555 1_555
C3_2 C2_2 1_555 1_555
C4_2 C3_2 1_555 1_555
H3_2 C4_2 1_555 1_555
C5_2 C4_2 1_555 1_555
H4_2 C5_2 1_555 1_555
C6_2 C7_2 1_555 1_555
C7_2 C8_2 1_555 1_555
C9_2 C8_2 1_555 1_555
H6_2 C9_2 1_555 1_555
C10_2 H7_2 1_555 1_555
C11_2 C7_2 1_555 1_555
H8_2 C11_2 1_555 1_555
C26_2 H17_2 1_555 1_555
C27_2 C26_2 1_555 1_555
H18_2 C27_2 1_555 1_555
H21 C35 1_555 1_555
C36 C35 1_555 1_555
H22 C36 1_555 1_555
C44 C41 1_555 1_555
C45 C44 1_555 1_555
C46 C45 1_555 1_555
C47 C46 1_555 1_555
H29 C47 1_555 1_555
C48 C47 1_555 1_555
H30 C48 1_555 1_555
C51 S7 1_555 1_555
C52_2 C3_2 1_555 1_555
N1_2 C1_2 1_555 1_555
N2 C9_2 1_555 1_555
N6 C36 1_555 1_555
S7 C45 1_555 1_555
C56 C55 1_555 1_555
H35 C56 1_555 1_555
C57 C56 1_555 1_555
H36 C57 1_555 1_555
C58 C55 1_555 1_555
C60 C58 1_555 1_555
C61 C60 1_555 1_555
C64 H39 1_555 1_555
C65 C61 1_555 1_555
H40 C65 1_555 1_555
S9_2 C58 1_555 1_555
S10 C59 1_555 1_555
Cu4 N2 1_555 1_555
Cu6 N9 1_555 1_555
N18 Cu4 1_555 1_555
N21 Cu4 1_555 1_555
N23 Cu4 1_555 1_555
C5_2 N1_2 1_555 1_555
C6_2 C52_2 1_555 1_555
C10_2 C11_2 1_555 1_555
C10_2 N2 1_555 1_555
C57 N9 1_555 1_555
C59 S9_2 1_555 1_555
C60 S10 1_555 1_555
C64 C65 1_555 1_555
C29 C28 1_555 1_555
H19 C29 1_555 1_555
C30 C29 1_555 1_555
H20 C30 1_555 1_555
C31 C28 1_555 1_555
C32 S5_2 1_555 1_555
C33 C31 1_555 1_555
C34 C33 1_555 1_555
C37 H23 1_555 1_555
C38 C34 1_555 1_555
H24 C38 1_555 1_555
C39 H25 1_555 1_555
C40 C39 1_555 1_555
H26 C40 1_555 1_555
C49 H31 1_555 1_555
H32 C50 1_555 1_555
N8 C39 1_555 1_555
S5_2 C31 1_555 1_555
S6 C32 1_555 1_555
C53_2 H33_2 1_555 1_555
C54_2 C53_2 1_555 1_555
H34_2 C54_2 1_555 1_555
H37 C62 1_555 1_555
C63 C62 1_555 1_555
H38 C63 1_555 1_555
N10 C63 1_555 1_555
C91_2 S15_2 1_555 1_555
C92_2 C93_2 1_555 1_555
C93_2 C94_2 1_555 1_555
C94_2 H57_2 1_555 1_555
C95_2 C94_2 1_555 1_555
H58_2 C95_2 1_555 1_555
C96_2 H59_2 1_555 1_555
C97_2 C93_2 1_555 1_555
H60_2 C97_2 1_555 1_555
C98_2 C92_2 1_555 1_555
C99_2 C98_2 1_555 1_555
C100_2 C99_2 1_555 1_555
H61_2 C100_2 1_555 1_555
C101_2 C100_2 1_555 1_555
H62_2 C101_2 1_555 1_555
C102_2 H63_2 1_555 1_555
C103_2 C99_2 1_555 1_555
H64_2 C103_2 1_555 1_555
N18 C95_2 1_555 1_555
N16_2 Cu1_2 1_555 1_555
S15_2 C98_2 1_555 1_555
S16_2 C91_2 1_555 1_555
C30 N5 1_555 1_555
C33 S6 1_555 1_555
C37 C38 1_555 1_555
C49 C50 1_555 1_555
C49 N7 1_555 1_555
Cu1_2 N5 1_555 1_555
Cu1_2 N7 1_555 1_555
C92_2 S16_2 1_555 1_555
C96_2 C97_2 1_555 1_555
C96_2 N18 1_555 1_555
C101_2 N16_2 1_555 1_555
C102_2 C103_2 1_555 1_555
C102_2 N16_2 1_555 1_555
C13_2 S3_2 1_555 1_555
C14_2 C15_2 1_555 1_555
C15_2 C16_2 1_555 1_555
C16_2 H9_2 1_555 1_555
C17_2 C16_2 1_555 1_555
H10_2 C17_2 1_555 1_555
C18_2 H11_2 1_555 1_555
C19_2 C15_2 1_555 1_555
H12_2 C19_2 1_555 1_555
C20_2 C14_2 1_555 1_555
C21_2 C20_2 1_555 1_555
C22_2 C21_2 1_555 1_555
H13_2 C22_2 1_555 1_555
C23_2 C22_2 1_555 1_555
H14_2 C23_2 1_555 1_555
C24_2 H15_2 1_555 1_555
C25_2 C21_2 1_555 1_555
H16_2 C25_2 1_555 1_555
N3_2 C17_2 1_555 1_555
N4_2 C23_2 1_555 1_555
S3_2 C20_2 1_555 1_555
S4_2 C13_2 1_555 1_555
Cu6 N4_2 1_555 1_555
Cu11 N3_2 1_555 1_555
C14_2 S4_2 1_555 1_555
C18_2 C19_2 1_555 1_555
C18_2 N3_2 1_555 1_555
C24_2 C25_2 1_555 1_555
C24_2 N4_2 1_555 1_555
C79_2 H49_2 1_555 1_555
C80_2 C79_2 1_555 1_555
H50_2 C80_2 1_555 1_555
C81_2 C80_2 1_555 1_555
C82_2 C81_2 1_555 1_555
H51_2 C82_2 1_555 1_555
C83_2 C82_2 1_555 1_555
H52_2 C83_2 1_555 1_555
C84_2 C85_2 1_555 1_555
C85_2 C86_2 1_555 1_555
C87_2 C86_2 1_555 1_555
H54_2 C87_2 1_555 1_555
C88_2 H55_2 1_555 1_555
C89_2 C85_2 1_555 1_555
H56_2 C89_2 1_555 1_555
C104_2 C81_2 1_555 1_555
N13_2 C79_2 1_555 1_555
N14_2 C87_2 1_555 1_555
Cu11 N14_2 1_555 1_555
C83_2 N13_2 1_555 1_555
C84_2 C104_2 1_555 1_555
C88_2 C89_2 1_555 1_555
C88_2 N14_2 1_555 1_555
C56_2 C55_2 1_555 1_555
H35_2 C56_2 1_555 1_555
C57_2 C56_2 1_555 1_555
H36_2 C57_2 1_555 1_555
C58_2 C55_2 1_555 1_555
C60_2 C58_2 1_555 1_555
C61_2 C60_2 1_555 1_555
C62_2 C61_2 1_555 1_555
H37_2 C62_2 1_555 1_555
C63_2 C62_2 1_555 1_555
H38_2 C63_2 1_555 1_555
C64_2 H39_2 1_555 1_555
C65_2 C61_2 1_555 1_555
H40_2 C65_2 1_555 1_555
N10_2 C63_2 1_555 1_555
S10_2 C59_2 1_555 1_555
Cu11 N10_2 1_555 1_555
C57_2 N20 1_555 1_555
C60_2 S10_2 1_555 1_555
C64_2 C65_2 1_555 1_555
C64_2 N10_2 1_555 1_555
C29_2 C28_2 1_555 1_555
H19_2 C29_2 1_555 1_555
C30_2 C29_2 1_555 1_555
H20_2 C30_2 1_555 1_555
C31_2 C28_2 1_555 1_555
C33_2 C31_2 1_555 1_555
C34_2 C33_2 1_555 1_555
C35_2 C34_2 1_555 1_555
H21_2 C35_2 1_555 1_555
C36_2 C35_2 1_555 1_555
H22_2 C36_2 1_555 1_555
C37_2 H23_2 1_555 1_555
C38_2 C34_2 1_555 1_555
H24_2 C38_2 1_555 1_555
C39_2 H25_2 1_555 1_555
C40_2 C39_2 1_555 1_555
H26_2 C40_2 1_555 1_555
C41_2 C40_2 1_555 1_555
C42_2 C41_2 1_555 1_555
H27_2 C42_2 1_555 1_555
C43_2 C42_2 1_555 1_555
H28_2 C43_2 1_555 1_555
C44_2 C41_2 1_555 1_555
C45_2 C44_2 1_555 1_555
C46_2 C45_2 1_555 1_555
C47_2 C46_2 1_555 1_555
H29_2 C47_2 1_555 1_555
C48_2 C47_2 1_555 1_555
H30_2 C48_2 1_555 1_555
C49_2 H31_2 1_555 1_555
C50_2 C46_2 1_555 1_555
H32_2 C50_2 1_555 1_555
C51_2 S7_2 1_555 1_555
N21 C36_2 1_555 1_555
N7_2 C48_2 1_555 1_555
N23 C39_2 1_555 1_555
S6_2 C32_2 1_555 1_555
S7_2 C45_2 1_555 1_555
S8_2 C44_2 1_555 1_555
C66_2 H41_2 1_555 1_555
C67_2 C66_2 1_555 1_555
H42_2 C67_2 1_555 1_555
C68_2 C67_2 1_555 1_555
C69_2 C68_2 1_555 1_555
H43_2 C69_2 1_555 1_555
C70_2 C69_2 1_555 1_555
H44_2 C70_2 1_555 1_555
C71_2 C68_2 1_555 1_555
C72_2 C71_2 1_555 1_555
C73_2 C72_2 1_555 1_555
C74_2 C73_2 1_555 1_555
H45_2 C74_2 1_555 1_555
C75_2 C74_2 1_555 1_555
H46_2 C75_2 1_555 1_555
C76_2 H47_2 1_555 1_555
C77_2 C73_2 1_555 1_555
H48_2 C77_2 1_555 1_555
C78_2 C51_2 1_555 1_555
N22 C75_2 1_555 1_555
N12_2 C66_2 1_555 1_555
S11_2 C72_2 1_555 1_555
S12_2 C71_2 1_555 1_555
Cu11 N12_2 1_555 1_555
C30_2 N5_2 1_555 1_555
C33_2 S6_2 1_555 1_555
C37_2 C38_2 1_555 1_555
C37_2 N21 1_555 1_555
C43_2 N23 1_555 1_555
C49_2 C50_2 1_555 1_555
C49_2 N7_2 1_555 1_555
C51_2 S8_2 1_555 1_555
C70_2 N12_2 1_555 1_555
C76_2 C77_2 1_555 1_555
C76_2 N22 1_555 1_555
C78_2 S11_2 1_555 1_555
C78_2 S12_2 1_555 1_555
Cl1 O1 1_555 1_555
O2 Cl1 1_555 1_555
O3 Cl1 1_555 1_555
O4 Cl1 1_555 1_555
Cl1_2 O1_2 1_555 1_555
O2_2 Cl1_2 1_555 1_555
O3_2 Cl1_2 1_555 1_555
O4_2 Cl1_2 1_555 1_555
Cl1_3 O1_3 1_555 1_555
O2_3 Cl1_3 1_555 1_555
O3_3 Cl1_3 1_555 1_555
O4_3 Cl1_3 1_555 1_555
Cl1_4 O1_4 1_555 1_555
O2_4 Cl1_4 1_555 1_555
O3_4 Cl1_4 1_555 1_555
O4_4 Cl1_4 1_555 1_555
Cl2 O5 1_555 1_555
O6 Cl2 1_555 1_555
O7 Cl2 1_555 1_555
O8 Cl2 1_555 1_555
O6_2 Cl2_2 1_555 1_555
O7_2 Cl2_2 1_555 1_555
O8_2 Cl2_2 1_555 1_555
Cl2_3 O5_3 1_555 1_555
O6_3 Cl2_3 1_555 1_555
O7_3 Cl2_3 1_555 1_555
O8_3 Cl2_3 1_555 1_555
O6_4 Cl2_4 1_555 1_555
O7_4 Cl2_4 1_555 1_555
O8_4 Cl2_4 1_555 1_555

#END
