
###############################################################################
#
# This file contains modified crystal structure data generated from the
# MOF subset of the Cambridge Structural Database (CSD) v543 
# hosted by the Cambridge Crystallographic Data Centre (CCDC).
#
# This work is licensed under the Creative Commons
# Attribution-NonCommercial-ShareAlike 4.0 International License.
# To view a copy of this license, visit
# http://creativecommons.org/licenses/by-nc-sa/4.0/
# or send a letter to
# Creative Commons, PO Box 1866, Mountain View, CA 94042, USA.
#
# CIF created using the CSD Python API on 29 September 2022
# The structure has been converted into the P1 space group
# The structure has a 3D framework
# The original CSD entry DUYREV is in the orthorhombic crystal system
# The framework has been calculated to contain at least 10.0% void space
# The void calculation uses a probe of radius 1.32A, grid spacing 0.4
# H atom positions have been added when not included in the experimental data
#
###############################################################################

data_DUYREV
_chemical_formula_moiety         '(C168 H256 N24 O496 Pr24 W96)n'
_symmetry_cell_setting           triclinic
_symmetry_space_group_name_H-M   'P 1'
_symmetry_Int_Tables_number      1
_space_group_name_Hall           'P 1'
loop_
_symmetry_equiv_pos_site_id
_symmetry_equiv_pos_as_xyz
1 x,y,z
_cell_length_a                   23.440(5)
_cell_length_b                   20.489(5)
_cell_length_c                   29.486(5)
_cell_angle_alpha                90
_cell_angle_beta                 90
_cell_angle_gamma                90
_cell_volume                     14161
loop_
_atom_site_label
_atom_site_type_symbol
_atom_site_fract_x
_atom_site_fract_y
_atom_site_fract_z
O36 O 0.0485(6) 0.0121(7) 0.9052(4)
O18 O 0.0702(5) 0.7138(7) 0.0499(4)
W1 W 0.02274(3) 0.93416(4) 0.89959(3)
W3 W 0.14006(3) 0.81932(4) 0.92442(2)
W4 W 0.12856(3) 0.66126(4) 0.90767(3)
W7 W 0.07632(3) 0.69028(4) 0.79078(3)
W8 W 0.09713(3) 0.84826(4) 0.80564(2)
W9 W 0.06263(3) 0.73110(4) 0.99390(2)
C8 C 0.0306(6) 0.2865(7) 0.8773(6)
C9 C 0.0412(8) 0.2242(10) 0.8987(6)
H4 H 0.0744 0.2178 0.9153
C10 C 0.0022(9) 0.1745(12) 0.8946(7)
H5 H 0.0084 0.1336 0.9074
C13 C 0.0660(9) 0.3431(12) 0.8824(7)
H7 H 0.0087 0.5967 0.6860
C20 C 0.0455(7) 0.4971(10) 0.7413(6)
O2 O 0.0707(5) 0.7471(6) 0.9191(4)
O3 O 0.0330(5) 0.7766(6) 0.8262(4)
O5 O 0.1758(5) 0.5992(6) 0.9080(4)
O6 O 0.0866(5) 0.8852(6) 0.9271(4)
O9 O 0.1102(5) 0.6614(6) 0.9722(4)
O11 O 0.1217(5) 0.6785(6) 0.8454(4)
O20 O 0.1123(5) 0.6383(7) 0.7546(4)
O21 O 0.1378(5) 0.8257(6) 0.8610(4)
O24 O 0.2031(5) 0.8603(6) 0.9367(4)
O28 O 0.1228(5) 0.7693(6) 0.7794(4)
O29 O 0.0578(5) 0.6111(6) 0.9000(4)
O31 O 0.1447(5) 0.9002(6) 0.7817(4)
O34 O 0.0217(5) 0.7240(6) 0.7486(4)
O37 O 0.0107(5) 0.8035(6) 0.9936(4)
O39 O 0.0506(5) 0.4575(7) 0.7726(4)
O45 O 0.0224(5) 0.6344(6) 0.8186(4)
O47 O 0.0371(5) 0.8548(6) 0.7607(4)
O50 O 0.1243(5) 0.7922(6) 0.9861(4)
O52 O 0.1132(6) 0.3360(7) 0.9042(5)
O54 O 0.1764(5) 0.7337(6) 0.9157(4)
O56 O 0.0840(6) 0.5159(7) 0.7131(4)
O57 O 0.0558(5) 0.9072(6) 0.8444(4)
O60 O 0.0532(6) 0.3942(7) 0.8627(4)
Pr4 Pr 0.03188(5) 0.90874(6) 0.68292(3)
Pr5 Pr 0.30618(5) 0.87827(6) 0.94790(4)
Pr6 Pr 0.19382(5) 0.37827(6) 0.94790(4)
H32 H 0.0897423 0.563725 0.716086
Pr7 Pr 0.77082(5) 0.00651(6) 0.85519(4)
Pr2 Pr 0.80618(5) 0.62173(6) 0.05210(4)
C1 C 0.7633(8) 0.7733(7) 0.0021(5)
C6 C 0.7874(9) 0.7875(12) 0.0452(8)
O7 O 0.7843(7) 0.6118(9) 0.1351(5)
O8 O 0.7902(6) 0.8515(8) 0.0558(5)
O15 O 0.9140(6) 0.8728(7) 0.0220(4)
O40 O 0.8796(6) 0.5301(8) 0.0576(5)
O48 O 0.7587(6) 0.5120(8) 0.0649(5)
O49 O 0.8057(6) 0.7472(8) 0.0721(5)
O64 O 0.7031(5) 0.6397(6) 0.0633(4)
O66 O 0.8868(6) 0.6640(7) 0.0958(5)
H10 H 0.751168 0.870337 0.0558722
H11 H 0.742761 0.604402 0.13926
H12 H 0.805835 0.574447 0.148037
H15 H 0.918246 0.547911 0.0515067
H16 H 0.878588 0.510922 0.0885177
H21 H 0.758186 0.487084 0.036017
H22 H 0.780356 0.487114 0.0881108
W2 W 0.90169(3) 0.87018(4) 0.86869(2)
W5 W 0.98811(3) 0.59704(4) 0.87176(3)
W6 W 0.92254(3) 0.67433(4) 0.95274(3)
W10 W 0.97221(4) 0.79237(4) 0.77276(3)
W11 W 0.94606(3) 0.85034(4) 0.97196(2)
W12 W 0.88068(3) 0.69361(4) 0.84856(3)
Pr1 Pr 0.96812(5) 0.40874(6) 0.81708(3)
Pr3 Pr 0.72918(5) 0.50651(6) 0.85519(4)
N1 N 0.7662(6) 0.7083(8) 0.9935(5)
C2 C 0.7417(10) 0.8158(10) 0.9726(7)
H1 H 0.7408 0.8600 0.9800
C3 C 0.7218(11) 0.7965(14) 0.9338(8)
H2 H 0.7061 0.8265 0.9136
C4 C 0.7241(9) 0.7324(13) 0.9228(8)
H3 H 0.7113 0.7178 0.8947
C5 C 0.7461(9) 0.6885(11) 0.9547(7)
C7 C 0.7513(10) 0.6146(13) 0.9486(8)
N2 N 0.9819(7) 0.2967(8) 0.8548(5)
C11 C 0.9513(9) 0.1892(11) 0.8693(6)
H6 H 0.9231 0.1577 0.8659
C12 C 0.9445(9) 0.2500(11) 0.8502(7)
C14 C 0.8920(9) 0.2706(11) 0.8289(6)
N3 N 0.9472(6) 0.5058(7) 0.7604(4)
C15 C 0.9886(5) 0.5285(8) 0.7346(5)
C16 C 0.9800(8) 0.5818(10) 0.7051(6)
C17 C 0.9261(9) 0.6110(11) 0.7061(7)
H8 H 0.9184 0.6472 0.6880
C18 C 0.8854(9) 0.5865(11) 0.7333(6)
H9 H 0.8494 0.6058 0.7338
C19 C 0.8957(8) 0.5347(10) 0.7598(6)
C21 C 0.8554(8) 0.5071(10) 0.7942(6)
O1 O 0.9773(5) 0.8384(6) 0.9008(4)
O4 O 0.9138(5) 0.7626(7) 0.9637(4)
O10 O 0.6927(5) 0.4876(7) 0.7809(5)
O12 O 0.9147(5) 0.6122(6) 0.8398(4)
O13 O 0.8069(6) 0.5286(7) 0.7981(4)
O14 O 0.8741(5) 0.4598(7) 0.8185(4)
O16 O 0.8162(5) 0.6834(7) 0.8231(4)
O17 O 0.8428(5) 0.9163(7) 0.8512(4)
O19 O 0.9514(5) 0.9520(6) 0.8750(4)
O22 O 0.6298(5) 0.5481(7) 0.8764(4)
O23 O 0.9394(5) 0.8542(6) 0.8126(4)
O25 O 0.9401(6) 0.8122(7) 0.7219(4)
O26 O 0.9967(5) 0.6801(6) 0.9802(4)
O27 O 0.9240(5) 0.7307(6) 0.7984(4)
O30 O 0.9475(5) 0.5888(7) 0.9266(4)
O32 O 0.9878(5) 0.9275(6) 0.9606(4)
O33 O 0.8825(5) 0.6415(7) 0.9971(4)
O35 O 0.8592(5) 0.6740(6) 0.9093(4)
O38 O 0.9286(5) 0.4078(7) 0.9009(4)
O41 O 0.7109(5) 0.6099(7) 0.8103(4)
O42 O 0.9906(5) 0.5164(6) 0.8571(4)
O43 O 0.8872(6) 0.3287(8) 0.8171(5)
O44 O 0.7144(6) 0.4585(7) 0.9331(4)
O46 O 0.7750(6) 0.4000(8) 0.8391(5)
O51 O 0.7333(6) 0.5973(8) 0.9080(5)
O53 O 0.8841(5) 0.8806(6) 0.9328(4)
O55 O 0.8263(6) 0.5081(8) 0.8986(5)
O58 O 0.8500(6) 0.2292(7) 0.8251(4)
O59 O 0.8734(5) 0.7868(6) 0.8656(4)
O61 O 0.9628(5) 0.6959(6) 0.8887(4)
O62 O 0.7696(6) 0.5815(7) 0.9790(5)
O63 O 0.6572(5) 0.4163(7) 0.8512(4)
O65 O 0.9629(5) 0.3548(6) 0.7393(4)
H13 H 0.715362 0.452773 0.765935
H14 H 0.652187 0.473745 0.782962
H17 H 0.601412 0.512763 0.871716
H18 H 0.629545 0.561648 0.908734
H19 H 0.960085 0.39728 0.922213
H20 H 0.912711 0.451415 0.90839
H23 H 0.724593 0.411463 0.932655
H24 H 0.739006 0.481689 0.955278
H25 H 0.851831 0.541305 0.884822
H26 H 0.819491 0.519163 0.930938
H27 H 0.669897 0.612271 0.801995
H28 H 0.721195 0.648436 0.829012
H29 H 0.79971 0.40408 0.811893
H30 H 0.798518 0.386629 0.865525
H31 H 0.838164 0.214253 0.855722
W1_2 W 0.47726(3) 0.06584(4) 0.39959(3)
W2_2 W 0.59831(3) 0.12982(4) 0.36869(2)
W3_2 W 0.35994(3) 0.18068(4) 0.42442(2)
W4_2 W 0.37144(3) 0.33874(4) 0.40767(3)
W5_2 W 0.51189(3) 0.40296(4) 0.37176(3)
W6_2 W 0.57746(3) 0.32567(4) 0.45274(3)
W7_2 W 0.42368(3) 0.30972(4) 0.29078(3)
W8_2 W 0.40287(3) 0.15174(4) 0.30564(2)
W9_2 W 0.43737(3) 0.26890(4) 0.49390(2)
W10_2 W 0.52779(4) 0.20763(4) 0.27276(3)
W11_2 W 0.55394(3) 0.14966(4) 0.47196(2)
W12_2 W 0.61932(3) 0.30639(4) 0.34856(3)
Pr1_2 Pr 0.53188(5) 0.59126(6) 0.31708(3)
Pr2_2 Pr 0.69382(5) 0.37827(6) 0.55210(4)
Pr3_2 Pr 0.77082(5) 0.49349(6) 0.35519(4)
N1_2 N 0.7338(6) 0.2917(8) 0.4935(5)
C1_2 C 0.7367(8) 0.2267(7) 0.5021(5)
C2_2 C 0.7583(10) 0.1842(10) 0.4726(7)
H1_2 H 0.7592 0.1400 0.4800
C3_2 C 0.7782(11) 0.2035(14) 0.4338(8)
H2_2 H 0.7939 0.1735 0.4136
C4_2 C 0.7759(9) 0.2676(13) 0.4228(8)
H3_2 H 0.7887 0.2822 0.3947
C5_2 C 0.7539(9) 0.3115(11) 0.4547(7)
C6_2 C 0.7126(9) 0.2125(12) 0.5452(8)
C7_2 C 0.7487(10) 0.3854(13) 0.4486(8)
N2_2 N 0.5181(7) 0.7033(8) 0.3548(5)
C8_2 C 0.4694(6) 0.7135(7) 0.3773(6)
C9_2 C 0.4588(8) 0.7758(10) 0.3987(6)
H4_2 H 0.4256 0.7822 0.4153
C10_2 C 0.4978(9) 0.8255(12) 0.3946(7)
H5_2 H 0.4916 0.8664 0.4074
C11_2 C 0.5487(9) 0.8108(11) 0.3693(6)
H6_2 H 0.5769 0.8423 0.3659
C12_2 C 0.5555(9) 0.7500(11) 0.3502(7)
C13_2 C 0.4340(9) 0.6569(12) 0.3824(7)
C14_2 C 0.6080(9) 0.7294(11) 0.3289(6)
N3_2 N 0.5528(6) 0.4942(7) 0.2604(4)
C15_2 C 0.5114(5) 0.4715(8) 0.2346(5)
C16_2 C 0.5200(8) 0.4182(10) 0.2051(6)
H7_2 H 0.4913 0.4033 0.1860
C17_2 C 0.5739(9) 0.3890(11) 0.2061(7)
H8_2 H 0.5816 0.3528 0.1880
C18_2 C 0.6146(9) 0.4135(11) 0.2333(6)
H9_2 H 0.6506 0.3942 0.2338
C19_2 C 0.6043(8) 0.4653(10) 0.2598(6)
C20_2 C 0.4545(7) 0.5029(10) 0.2413(6)
C21_2 C 0.6446(8) 0.4929(10) 0.2942(6)
O1_2 O 0.5227(5) 0.1616(6) 0.4008(4)
O2_2 O 0.4293(5) 0.2529(6) 0.4191(4)
O3_2 O 0.4670(5) 0.2234(6) 0.3262(4)
O4_2 O 0.5862(5) 0.2374(7) 0.4637(4)
O5_2 O 0.3242(5) 0.4008(6) 0.4080(4)
O6_2 O 0.4134(5) 0.1148(6) 0.4271(4)
O7_2 O 0.7157(7) 0.3882(9) 0.6351(5)
O8_2 O 0.7098(6) 0.1485(8) 0.5558(5)
O9_2 O 0.3898(5) 0.3386(6) 0.4722(4)
O10_2 O 0.8073(5) 0.5124(7) 0.2809(5)
O11_2 O 0.3783(5) 0.3215(6) 0.3454(4)
O12_2 O 0.5853(5) 0.3878(6) 0.3398(4)
O13_2 O 0.6931(6) 0.4714(7) 0.2981(4)
O14_2 O 0.6259(5) 0.5402(7) 0.3185(4)
O15_2 O 0.5860(6) 0.1272(7) 0.5220(4)
O16_2 O 0.6838(5) 0.3166(7) 0.3231(4)
O17_2 O 0.6572(5) 0.0837(7) 0.3512(4)
O18_2 O 0.4298(5) 0.2862(7) 0.5499(4)
O19_2 O 0.5486(5) 0.0480(6) 0.3750(4)
O20_2 O 0.3877(5) 0.3617(7) 0.2546(4)
O21_2 O 0.3622(5) 0.1743(6) 0.3610(4)
O22_2 O 0.8702(5) 0.4519(7) 0.3764(4)
O23_2 O 0.5606(5) 0.1458(6) 0.3126(4)
O24_2 O 0.2969(5) 0.1397(6) 0.4367(4)
O25_2 O 0.5599(6) 0.1878(7) 0.2219(4)
O26_2 O 0.5033(5) 0.3199(6) 0.4802(4)
O27_2 O 0.5760(5) 0.2693(6) 0.2984(4)
O28_2 O 0.3772(5) 0.2307(6) 0.2794(4)
O29_2 O 0.4422(5) 0.3889(6) 0.4000(4)
O30_2 O 0.5525(5) 0.4112(7) 0.4266(4)
O31_2 O 0.3553(5) 0.0998(6) 0.2817(4)
O32_2 O 0.5122(5) 0.0725(6) 0.4606(4)
O33_2 O 0.6175(5) 0.3585(7) 0.4971(4)
O34_2 O 0.4783(5) 0.2760(6) 0.2486(4)
O35_2 O 0.6408(5) 0.3260(6) 0.4093(4)
O37_2 O 0.4893(5) 0.1965(6) 0.4936(4)
O38_2 O 0.5714(5) 0.5922(7) 0.4009(4)
O39_2 O 0.4494(5) 0.5425(7) 0.2726(4)
O40_2 O 0.6204(6) 0.4699(8) 0.5576(5)
O41_2 O 0.7891(5) 0.3901(7) 0.3103(4)
O42_2 O 0.5094(5) 0.4836(6) 0.3571(4)
O43_2 O 0.6128(6) 0.6713(8) 0.3171(5)
O44_2 O 0.7856(6) 0.5415(7) 0.4331(4)
O45_2 O 0.4776(5) 0.3656(6) 0.3186(4)
O46_2 O 0.7250(6) 0.6000(8) 0.3391(5)
O47_2 O 0.4629(5) 0.1452(6) 0.2607(4)
O48_2 O 0.7413(6) 0.4880(8) 0.5649(5)
O49_2 O 0.6943(6) 0.2528(8) 0.5721(5)
O50_2 O 0.3757(5) 0.2078(6) 0.4861(4)
O51_2 O 0.7667(6) 0.4027(8) 0.4080(5)
O52_2 O 0.3868(6) 0.6640(7) 0.4042(5)
O53_2 O 0.6159(5) 0.1194(6) 0.4328(4)
O54_2 O 0.3236(5) 0.2663(6) 0.4157(4)
O55_2 O 0.6737(6) 0.4919(8) 0.3986(5)
O56_2 O 0.4160(6) 0.4841(7) 0.2131(4)
O57_2 O 0.4442(5) 0.0928(6) 0.3444(4)
O58_2 O 0.6500(6) 0.7708(7) 0.3251(4)
O59_2 O 0.6266(5) 0.2132(6) 0.3656(4)
O60_2 O 0.4468(6) 0.6058(7) 0.3627(4)
O61_2 O 0.5372(5) 0.3041(6) 0.3887(4)
O62_2 O 0.7304(6) 0.4185(7) 0.4790(5)
Pr4_2 Pr 0.46812(5) 0.09126(6) 0.18292(3)
Pr5_2 Pr 0.19382(5) 0.12173(6) 0.44790(4)
Pr6_2 Pr 0.30618(5) 0.62173(6) 0.44790(4)
O63_2 O 0.8428(5) 0.5837(7) 0.3512(4)
O64_2 O 0.7969(5) 0.3603(6) 0.5633(4)
O65_2 O 0.5371(5) 0.6452(6) 0.2393(4)
O66_2 O 0.6132(6) 0.3360(7) 0.5958(5)
H10_2 H 0.748832 0.129663 0.555872
H11_2 H 0.757239 0.395598 0.63926
H12_2 H 0.694165 0.425553 0.648037
H13_2 H 0.784638 0.547227 0.265935
H14_2 H 0.847813 0.526255 0.282962
H15_2 H 0.581754 0.452089 0.551507
H16_2 H 0.621412 0.489078 0.588518
H17_2 H 0.898588 0.487237 0.371716
H18_2 H 0.870455 0.438352 0.408734
H19_2 H 0.539915 0.60272 0.422213
H20_2 H 0.587289 0.548585 0.40839
H21_2 H 0.741814 0.512916 0.536017
H22_2 H 0.719644 0.512886 0.588111
H23_2 H 0.775407 0.588537 0.432655
H24_2 H 0.760994 0.518311 0.455278
H25_2 H 0.648169 0.458695 0.384822
H26_2 H 0.680509 0.480837 0.430938
H27_2 H 0.830103 0.387729 0.301995
H28_2 H 0.778805 0.351564 0.329012
H29_2 H 0.70029 0.59592 0.311893
H30_2 H 0.701482 0.613371 0.365525
H31_2 H 0.661836 0.785747 0.355722
H32_2 H 0.410258 0.436275 0.216086
O36_2 O 0.4515(6) 0.9879(7) 0.4052(4)
Pr7_2 Pr 0.72918(5) 0.99349(6) 0.35519(4)
N2_3 N 0.4819(7) 0.2033(8) 0.1452(5)
C8_3 C 0.5306(6) 0.2135(7) 0.1227(6)
C9_3 C 0.5412(8) 0.2758(10) 0.1013(6)
H4_3 H 0.5744 0.2822 0.0847
C10_3 C 0.5022(9) 0.3255(12) 0.1054(7)
H5_3 H 0.5084 0.3664 0.0926
C11_3 C 0.4513(9) 0.3108(11) 0.1307(6)
H6_3 H 0.4231 0.3423 0.1341
C12_3 C 0.4445(9) 0.2500(11) 0.1498(7)
C13_3 C 0.5660(9) 0.1569(12) 0.1176(7)
C14_3 C 0.3920(9) 0.2294(11) 0.1711(6)
C20_3 C 0.5455(7) 0.0029(10) 0.2587(6)
O10_3 O 0.1927(5) 0.0124(7) 0.2191(5)
O14_3 O 0.3741(5) 0.0402(7) 0.1815(4)
O38_3 O 0.4286(5) 0.0922(7) 0.0991(4)
O39_3 O 0.5506(5) 0.0425(7) 0.2274(4)
O43_3 O 0.3872(6) 0.1713(8) 0.1829(5)
O44_3 O 0.2144(6) 0.0415(7) 0.0669(4)
O46_3 O 0.2750(6) 0.1000(8) 0.1609(5)
O52_3 O 0.6132(6) 0.1640(7) 0.0958(5)
O58_3 O 0.3500(6) 0.2708(7) 0.1749(4)
O60_3 O 0.5532(6) 0.1058(7) 0.1373(4)
Pr6_3 Pr 0.69382(5) 0.12173(6) 0.05210(4)
O63_3 O 0.1572(5) 0.0837(7) 0.1488(4)
H13_3 H 0.215362 0.0472268 0.234065
H14_3 H 0.152187 0.026255 0.217038
H19_3 H 0.460085 0.10272 0.0777871
H20_3 H 0.412711 0.0485855 0.0916096
H23_3 H 0.224593 0.088537 0.0673452
H24_3 H 0.239006 0.0183106 0.044722
H29_3 H 0.29971 0.0959198 0.188107
H30_3 H 0.298518 0.113371 0.134475
H31_3 H 0.338164 0.285747 0.144278
W1_3 W 0.52274(3) 0.56584(4) 0.10041(3)
W2_3 W 0.40169(3) 0.62982(4) 0.13131(2)
W3_3 W 0.64006(3) 0.68068(4) 0.07558(2)
W4_3 W 0.62856(3) 0.83874(4) 0.09233(3)
W5_3 W 0.48811(3) 0.90296(4) 0.12824(3)
W6_3 W 0.42254(3) 0.82567(4) 0.04726(3)
W7_3 W 0.57632(3) 0.80972(4) 0.20922(3)
W8_3 W 0.59713(3) 0.65174(4) 0.19436(2)
W9_3 W 0.56263(3) 0.76890(4) 0.00610(2)
W10_3 W 0.47221(4) 0.70763(4) 0.22724(3)
W11_3 W 0.44606(3) 0.64966(4) 0.02804(2)
W12_3 W 0.38068(3) 0.80639(4) 0.15144(3)
Pr3_3 Pr 0.22918(5) 0.99349(6) 0.14481(4)
N1_3 N 0.2662(6) 0.7917(8) 0.0065(5)
C2_3 C 0.2417(10) 0.6842(10) 0.0274(7)
H1_3 H 0.2408 0.6400 0.0200
C3_3 C 0.2218(11) 0.7035(14) 0.0662(8)
H2_3 H 0.2061 0.6735 0.0864
C4_3 C 0.2241(9) 0.7676(13) 0.0772(8)
H3_3 H 0.2113 0.7822 0.1053
C5_3 C 0.2461(9) 0.8115(11) 0.0453(7)
C7_3 C 0.2513(10) 0.8854(13) 0.0514(8)
N3_3 N 0.4472(6) 0.9942(7) 0.2396(4)
C15_3 C 0.4886(5) 0.9715(8) 0.2654(5)
C16_3 C 0.4800(8) 0.9182(10) 0.2949(6)
H7_3 H 0.5087 0.9033 0.3140
C17_3 C 0.4261(9) 0.8890(11) 0.2939(7)
H8_3 H 0.4184 0.8528 0.3120
C18_3 C 0.3854(9) 0.9135(11) 0.2667(6)
H9_3 H 0.3494 0.8942 0.2662
C19_3 C 0.3957(8) 0.9653(10) 0.2402(6)
C21_3 C 0.3554(8) 0.9929(10) 0.2058(6)
O1_3 O 0.4773(5) 0.6616(6) 0.0992(4)
O2_3 O 0.5707(5) 0.7529(6) 0.0809(4)
O3_3 O 0.5330(5) 0.7234(6) 0.1738(4)
O4_3 O 0.4138(5) 0.7374(7) 0.0363(4)
O5_3 O 0.6758(5) 0.9008(6) 0.0920(4)
O6_3 O 0.5866(5) 0.6148(6) 0.0729(4)
O9_3 O 0.6102(5) 0.8386(6) 0.0278(4)
O11_3 O 0.6217(5) 0.8215(6) 0.1546(4)
O12_3 O 0.4147(5) 0.8878(6) 0.1602(4)
O13_3 O 0.3069(6) 0.9714(7) 0.2019(4)
O16_3 O 0.3162(5) 0.8166(7) 0.1769(4)
O17_3 O 0.3428(5) 0.5837(7) 0.1488(4)
O19_3 O 0.4514(5) 0.5480(6) 0.1250(4)
O20_3 O 0.6123(5) 0.8617(7) 0.2454(4)
O21_3 O 0.6378(5) 0.6743(6) 0.1390(4)
O22_3 O 0.1298(5) 0.9519(7) 0.1236(4)
O23_3 O 0.4394(5) 0.6458(6) 0.1874(4)
O25_3 O 0.4401(6) 0.6878(7) 0.2781(4)
O26_3 O 0.4967(5) 0.8199(6) 0.0198(4)
O27_3 O 0.4240(5) 0.7693(6) 0.2016(4)
O28_3 O 0.6228(5) 0.7307(6) 0.2206(4)
O29_3 O 0.5578(5) 0.8889(6) 0.1000(4)
O30_3 O 0.4475(5) 0.9112(7) 0.0734(4)
O31_3 O 0.6447(5) 0.5998(6) 0.2183(4)
O32_3 O 0.4878(5) 0.5725(6) 0.0394(4)
O33_3 O 0.3825(5) 0.8585(7) 0.0029(4)
O34_3 O 0.5217(5) 0.7760(6) 0.2514(4)
O35_3 O 0.3592(5) 0.8260(6) 0.0907(4)
O36_3 O 0.5485(6) 0.4879(7) 0.0948(4)
O37_3 O 0.5107(5) 0.6965(6) 0.0064(4)
O41_3 O 0.2109(5) 0.8901(7) 0.1897(4)
O42_3 O 0.4906(5) 0.9836(6) 0.1429(4)
O45_3 O 0.5224(5) 0.8656(6) 0.1814(4)
O50_3 O 0.6243(5) 0.7078(6) 0.0139(4)
O51_3 O 0.2333(6) 0.9027(8) 0.0920(5)
O53_3 O 0.3841(5) 0.6194(6) 0.0672(4)
O54_3 O 0.6764(5) 0.7663(6) 0.0843(4)
O55_3 O 0.3263(6) 0.9919(8) 0.1014(5)
O56_3 O 0.5840(6) 0.9841(7) 0.2869(4)
O57_3 O 0.5558(5) 0.5928(6) 0.1556(4)
O59_3 O 0.3734(5) 0.7132(6) 0.1344(4)
O61_3 O 0.4628(5) 0.8041(6) 0.1113(4)
O62_3 O 0.2696(6) 0.9185(7) 0.0210(5)
Pr7_3 Pr 0.27082(5) 0.49349(6) 0.14481(4)
H17_3 H 0.101412 0.987237 0.128284
H18_3 H 0.129545 0.938352 0.0912662
H25_3 H 0.351831 0.958695 0.115178
H26_3 H 0.319491 0.980837 0.069062
H27_3 H 0.169897 0.887729 0.198005
H28_3 H 0.221195 0.851564 0.170988
H32_3 H 0.589742 0.936275 0.283914
C1_3 C 0.2633(8) 0.7267(7) 0.9979(5)
C6_3 C 0.2874(9) 0.7125(12) 0.9548(8)
O7_3 O 0.2843(7) 0.8882(9) 0.8649(5)
O8_3 O 0.2902(6) 0.6485(8) 0.9442(5)
O15_3 O 0.4140(6) 0.6272(7) 0.9780(4)
O18_3 O 0.5702(5) 0.7862(7) 0.9501(4)
O40_3 O 0.3796(6) 0.9699(8) 0.9424(5)
O48_3 O 0.2587(6) 0.9880(8) 0.9351(5)
O49_3 O 0.3057(6) 0.7528(8) 0.9279(5)
O66_3 O 0.3868(6) 0.8360(7) 0.9042(5)
H10_3 H 0.251168 0.629663 0.944128
H11_3 H 0.242761 0.895598 0.86074
H12_3 H 0.305835 0.925553 0.851963
H15_3 H 0.418246 0.952089 0.948493
H16_3 H 0.378588 0.989078 0.911482
W2_4 W 0.09831(3) 0.37018(4) 0.63131(2)
W5_4 W 0.01189(3) 0.09704(4) 0.62824(3)
W6_4 W 0.07746(3) 0.17433(4) 0.54726(3)
W10_4 W 0.02779(4) 0.29237(4) 0.72724(3)
W11_4 W 0.05394(3) 0.35034(4) 0.52804(2)
W12_4 W 0.11932(3) 0.19361(4) 0.65144(3)
Pr3_4 Pr 0.27082(5) 0.00651(6) 0.64481(4)
N1_4 N 0.2338(6) 0.2083(8) 0.5065(5)
C1_4 C 0.2367(8) 0.2733(7) 0.4979(5)
C2_4 C 0.2583(10) 0.3158(10) 0.5274(7)
H1_4 H 0.2592 0.3600 0.5200
C3_4 C 0.2782(11) 0.2965(14) 0.5662(8)
H2_4 H 0.2939 0.3265 0.5864
C4_4 C 0.2759(9) 0.2324(13) 0.5772(8)
H3_4 H 0.2887 0.2178 0.6053
C5_4 C 0.2539(9) 0.1885(11) 0.5453(7)
C6_4 C 0.2126(9) 0.2875(12) 0.4548(8)
C7_4 C 0.2487(10) 0.1146(13) 0.5514(8)
N3_4 N 0.0528(6) 0.0058(7) 0.7396(4)
C15_4 C 0.0114(5) 0.0285(8) 0.7654(5)
C16_4 C 0.0200(8) 0.0818(10) 0.7949(6)
C17_4 C 0.0739(9) 0.1110(11) 0.7939(7)
H8_4 H 0.0816 0.1472 0.8120
C18_4 C 0.1146(9) 0.0865(11) 0.7667(6)
H9_4 H 0.1506 0.1058 0.7662
C19_4 C 0.1043(8) 0.0347(10) 0.7402(6)
C21_4 C 0.1446(8) 0.0071(10) 0.7058(6)
O1_4 O 0.0227(5) 0.3384(6) 0.5992(4)
O4_4 O 0.0862(5) 0.2626(7) 0.5363(4)
O7_4 O 0.2157(7) 0.1118(9) 0.3649(5)
O8_4 O 0.2098(6) 0.3515(8) 0.4442(5)
O12_4 O 0.0853(5) 0.1122(6) 0.6602(4)
O13_4 O 0.1931(6) 0.0286(7) 0.7019(4)
O15_4 O 0.0860(6) 0.3728(7) 0.4780(4)
O16_4 O 0.1838(5) 0.1834(7) 0.6769(4)
O17_4 O 0.1572(5) 0.4163(7) 0.6488(4)
O19_4 O 0.0486(5) 0.4520(6) 0.6250(4)
O22_4 O 0.3702(5) 0.0481(7) 0.6236(4)
O23_4 O 0.0606(5) 0.3542(6) 0.6874(4)
O25_4 O 0.0599(6) 0.3122(7) 0.7781(4)
O26_4 O 0.0033(5) 0.1801(6) 0.5198(4)
O27_4 O 0.0760(5) 0.2307(6) 0.7016(4)
O30_4 O 0.0525(5) 0.0888(7) 0.5734(4)
O32_4 O 0.0122(5) 0.4275(6) 0.5394(4)
O33_4 O 0.1175(5) 0.1415(7) 0.5029(4)
O35_4 O 0.1408(5) 0.1740(6) 0.5907(4)
O40_4 O 0.1204(6) 0.0301(8) 0.4424(5)
O41_4 O 0.2891(5) 0.1099(7) 0.6897(4)
O42_4 O 0.0094(5) 0.0164(6) 0.6429(4)
O48_4 O 0.2413(6) 0.0120(8) 0.4351(5)
O49_4 O 0.1943(6) 0.2472(8) 0.4279(5)
O51_4 O 0.2667(6) 0.0973(8) 0.5920(5)
O53_4 O 0.1159(5) 0.3806(6) 0.5672(4)
O55_4 O 0.1737(6) 0.0081(8) 0.6014(5)
O59_4 O 0.1266(5) 0.2868(6) 0.6344(4)
O61_4 O 0.0372(5) 0.1959(6) 0.6113(4)
O62_4 O 0.2304(6) 0.0815(7) 0.5210(5)
Pr7_4 Pr 0.22918(5) 0.50651(6) 0.64481(4)
O66_4 O 0.1132(6) 0.1640(7) 0.4042(5)
H10_4 H 0.248832 0.370337 0.444128
H11_4 H 0.257239 0.104402 0.36074
H12_4 H 0.194165 0.0744466 0.351963
H15_4 H 0.0817538 0.0479109 0.448493
H16_4 H 0.121412 0.0109219 0.411482
H17_4 H 0.398588 0.0127633 0.628284
H18_4 H 0.370455 0.061648 0.591266
H25_4 H 0.148169 0.041305 0.615178
H26_4 H 0.180509 0.0191628 0.569062
H27_4 H 0.330103 0.112271 0.698005
H28_4 H 0.278805 0.148436 0.670988
N2_4 N 0.0181(7) 0.7967(8) 0.6452(5)
C11_4 C 0.0487(9) 0.6892(11) 0.6307(6)
H6_4 H 0.0769 0.6577 0.6341
C12_4 C 0.0555(9) 0.7500(11) 0.6498(7)
C14_4 C 0.1080(9) 0.7706(11) 0.6711(6)
O10_4 O 0.3073(5) 0.9876(7) 0.7191(5)
O14_4 O 0.1259(5) 0.9598(7) 0.6815(4)
O38_4 O 0.0714(5) 0.9078(7) 0.5991(4)
O43_4 O 0.1128(6) 0.8287(8) 0.6829(5)
O44_4 O 0.2856(6) 0.9585(7) 0.5669(4)
O46_4 O 0.2250(6) 0.9000(8) 0.6609(5)
O58_4 O 0.1500(6) 0.7292(7) 0.6749(4)
O63_4 O 0.3428(5) 0.9163(7) 0.6488(4)
H13_4 H 0.284638 0.952773 0.734065
H14_4 H 0.347813 0.973745 0.717038
H19_4 H 0.0399147 0.89728 0.577787
H20_4 H 0.0872893 0.951415 0.59161
H21_3 H 0.241814 0.987084 0.463983
H22_3 H 0.219644 0.987114 0.411889
H23_4 H 0.275407 0.911463 0.567345
H24_4 H 0.260994 0.981689 0.544722
H29_4 H 0.20029 0.90408 0.688107
H30_4 H 0.201482 0.886629 0.634475
H31_4 H 0.161836 0.714253 0.644278
W1_4 W 0.97726(3) 0.43416(4) 0.60041(3)
W3_4 W 0.85994(3) 0.31932(4) 0.57558(2)
W4_4 W 0.87144(3) 0.16126(4) 0.59233(3)
W7_4 W 0.92368(3) 0.19028(4) 0.70922(3)
W8_4 W 0.90287(3) 0.34826(4) 0.69436(2)
W9_4 W 0.93737(3) 0.23110(4) 0.50610(2)
H7_4 H 0.9913 0.0967 0.8140
O2_4 O 0.9293(5) 0.2471(6) 0.5809(4)
O3_4 O 0.9670(5) 0.2766(6) 0.6738(4)
O5_4 O 0.8242(5) 0.0992(6) 0.5920(4)
O6_4 O 0.9134(5) 0.3852(6) 0.5729(4)
O9_4 O 0.8898(5) 0.1614(6) 0.5278(4)
O11_4 O 0.8783(5) 0.1785(6) 0.6546(4)
O18_4 O 0.9298(5) 0.2138(7) 0.4501(4)
O20_4 O 0.8877(5) 0.1383(7) 0.7454(4)
O21_4 O 0.8622(5) 0.3257(6) 0.6390(4)
O28_4 O 0.8772(5) 0.2693(6) 0.7206(4)
O29_4 O 0.9422(5) 0.1111(6) 0.6000(4)
O31_4 O 0.8553(5) 0.4002(6) 0.7183(4)
O34_4 O 0.9783(5) 0.2240(6) 0.7514(4)
O36_4 O 0.9515(6) 0.5121(7) 0.5948(4)
O37_4 O 0.9893(5) 0.3035(6) 0.5064(4)
O45_4 O 0.9776(5) 0.1344(6) 0.6814(4)
O50_4 O 0.8757(5) 0.2922(6) 0.5139(4)
O54_4 O 0.8236(5) 0.2337(6) 0.5843(4)
O56_4 O 0.9160(6) 0.0159(7) 0.7869(4)
O57_4 O 0.9442(5) 0.4072(6) 0.6556(4)
H32_4 H 0.910258 0.0637251 0.783914
C8_4 C 0.9694(6) 0.7865(7) 0.6227(6)
C9_4 C 0.9588(8) 0.7242(10) 0.6013(6)
H4_4 H 0.9256 0.7178 0.5847
C10_4 C 0.9978(9) 0.6745(12) 0.6054(7)
H5_4 H 0.9916 0.6336 0.5926
C13_4 C 0.9340(9) 0.8431(12) 0.6176(7)
C20_4 C 0.9545(7) 0.9971(10) 0.7587(6)
O39_4 O 0.9494(5) 0.9575(7) 0.7274(4)
O52_4 O 0.8868(6) 0.8360(7) 0.5958(5)
O60_4 O 0.9468(6) 0.8942(7) 0.6373(4)
Pr6_4 Pr 0.80618(5) 0.87827(6) 0.55210(4)
W2_5 W 0.09831(3) 0.12982(4) 0.13131(2)
W5_5 W 0.01189(3) 0.40296(4) 0.12824(3)
W6_5 W 0.07746(3) 0.32567(4) 0.04726(3)
W10_5 W 0.02779(4) 0.20763(4) 0.22724(3)
W11_5 W 0.05394(3) 0.14966(4) 0.02804(2)
W12_5 W 0.11932(3) 0.30639(4) 0.15144(3)
Pr1_3 Pr 0.03188(5) 0.59126(6) 0.18292(3)
N1_5 N 0.2338(6) 0.2917(8) 0.0065(5)
C2_5 C 0.2583(10) 0.1842(10) 0.0274(7)
H1_5 H 0.2592 0.1400 0.0200
C3_5 C 0.2782(11) 0.2035(14) 0.0662(8)
H2_5 H 0.2939 0.1735 0.0864
C4_5 C 0.2759(9) 0.2676(13) 0.0772(8)
H3_5 H 0.2887 0.2822 0.1053
C5_5 C 0.2539(9) 0.3115(11) 0.0453(7)
C7_5 C 0.2487(10) 0.3854(13) 0.0514(8)
N2_5 N 0.0181(7) 0.7033(8) 0.1452(5)
C11_5 C 0.0487(9) 0.8108(11) 0.1307(6)
H6_5 H 0.0769 0.8423 0.1341
C12_5 C 0.0555(9) 0.7500(11) 0.1498(7)
C14_5 C 0.1080(9) 0.7294(11) 0.1711(6)
N3_5 N 0.0528(6) 0.4942(7) 0.2396(4)
C15_5 C 0.0114(5) 0.4715(8) 0.2654(5)
C16_5 C 0.0200(8) 0.4182(10) 0.2949(6)
C17_5 C 0.0739(9) 0.3890(11) 0.2939(7)
H8_5 H 0.0816 0.3528 0.3120
C18_5 C 0.1146(9) 0.4135(11) 0.2667(6)
H9_5 H 0.1506 0.3942 0.2662
C19_5 C 0.1043(8) 0.4653(10) 0.2402(6)
C21_5 C 0.1446(8) 0.4929(10) 0.2058(6)
O1_5 O 0.0227(5) 0.1616(6) 0.0992(4)
O4_5 O 0.0862(5) 0.2374(7) 0.0363(4)
O10_5 O 0.3073(5) 0.5124(7) 0.2191(5)
O12_5 O 0.0853(5) 0.3878(6) 0.1602(4)
O13_5 O 0.1931(6) 0.4714(7) 0.2019(4)
O14_5 O 0.1259(5) 0.5402(7) 0.1815(4)
O16_5 O 0.1838(5) 0.3166(7) 0.1769(4)
O19_5 O 0.0486(5) 0.0480(6) 0.1250(4)
O22_5 O 0.3702(5) 0.4519(7) 0.1236(4)
O23_5 O 0.0606(5) 0.1458(6) 0.1874(4)
O25_5 O 0.0599(6) 0.1878(7) 0.2781(4)
O26_5 O 0.0033(5) 0.3199(6) 0.0198(4)
O27_5 O 0.0760(5) 0.2693(6) 0.2016(4)
O30_5 O 0.0525(5) 0.4112(7) 0.0734(4)
O32_5 O 0.0122(5) 0.0725(6) 0.0394(4)
O33_5 O 0.1175(5) 0.3585(7) 0.0029(4)
O35_5 O 0.1408(5) 0.3260(6) 0.0907(4)
O38_5 O 0.0714(5) 0.5922(7) 0.0991(4)
O41_5 O 0.2891(5) 0.3901(7) 0.1897(4)
O42_5 O 0.0094(5) 0.4836(6) 0.1429(4)
O43_5 O 0.1128(6) 0.6713(8) 0.1829(5)
O44_5 O 0.2856(6) 0.5415(7) 0.0669(4)
O46_5 O 0.2250(6) 0.6000(8) 0.1609(5)
O51_5 O 0.2667(6) 0.4027(8) 0.0920(5)
O53_5 O 0.1159(5) 0.1194(6) 0.0672(4)
O55_5 O 0.1737(6) 0.4919(8) 0.1014(5)
O58_5 O 0.1500(6) 0.7708(7) 0.1749(4)
O59_5 O 0.1266(5) 0.2132(6) 0.1344(4)
O61_5 O 0.0372(5) 0.3041(6) 0.1113(4)
O62_5 O 0.2304(6) 0.4185(7) 0.0210(5)
O65_3 O 0.0371(5) 0.6452(6) 0.2607(4)
H13_5 H 0.284638 0.547227 0.234065
H14_5 H 0.347813 0.526255 0.217038
H17_5 H 0.398588 0.487237 0.128284
H18_5 H 0.370455 0.438352 0.0912662
H19_5 H 0.0399147 0.60272 0.0777871
H20_5 H 0.0872893 0.548585 0.0916096
H23_5 H 0.275407 0.588537 0.0673452
H24_5 H 0.260994 0.518311 0.044722
H25_5 H 0.148169 0.458695 0.115178
H26_5 H 0.180509 0.480837 0.069062
H27_5 H 0.330103 0.387729 0.198005
H28_5 H 0.278805 0.351564 0.170988
H29_5 H 0.20029 0.59592 0.188107
H30_5 H 0.201482 0.613371 0.134475
H31_5 H 0.161836 0.785747 0.144278
C1_5 C 0.2367(8) 0.2267(7) 0.9979(5)
C6_5 C 0.2126(9) 0.2125(12) 0.9548(8)
O7_5 O 0.2157(7) 0.3882(9) 0.8649(5)
O8_5 O 0.2098(6) 0.1485(8) 0.9442(5)
O15_5 O 0.0860(6) 0.1272(7) 0.9780(4)
O40_5 O 0.1204(6) 0.4699(8) 0.9424(5)
O48_5 O 0.2413(6) 0.4880(8) 0.9351(5)
O49_5 O 0.1943(6) 0.2528(8) 0.9279(5)
O64_3 O 0.2969(5) 0.3603(6) 0.9367(4)
H10_5 H 0.248832 0.129663 0.944128
H11_5 H 0.257239 0.395598 0.86074
H12_5 H 0.194165 0.425553 0.851963
H15_5 H 0.0817538 0.452089 0.948493
H16_5 H 0.121412 0.489078 0.911482
H21_4 H 0.241814 0.512916 0.963983
H22_4 H 0.219644 0.512886 0.911889
W1_5 W 0.97726(3) 0.06584(4) 0.10041(3)
W3_5 W 0.85994(3) 0.18068(4) 0.07558(2)
W4_5 W 0.87144(3) 0.33874(4) 0.09233(3)
W7_5 W 0.92368(3) 0.30972(4) 0.20922(3)
W8_5 W 0.90287(3) 0.15174(4) 0.19436(2)
W9_5 W 0.93737(3) 0.26890(4) 0.00610(2)
C8_5 C 0.9694(6) 0.7135(7) 0.1227(6)
C9_5 C 0.9588(8) 0.7758(10) 0.1013(6)
H4_5 H 0.9256 0.7822 0.0847
C10_5 C 0.9978(9) 0.8255(12) 0.1054(7)
H5_5 H 0.9916 0.8664 0.0926
C13_5 C 0.9340(9) 0.6569(12) 0.1176(7)
H7_5 H 0.9913 0.4033 0.3140
C20_5 C 0.9545(7) 0.5029(10) 0.2587(6)
O2_5 O 0.9293(5) 0.2529(6) 0.0809(4)
O3_5 O 0.9670(5) 0.2234(6) 0.1738(4)
O5_5 O 0.8242(5) 0.4008(6) 0.0920(4)
O6_5 O 0.9134(5) 0.1148(6) 0.0729(4)
O9_5 O 0.8898(5) 0.3386(6) 0.0278(4)
O11_5 O 0.8783(5) 0.3215(6) 0.1546(4)
O20_5 O 0.8877(5) 0.3617(7) 0.2454(4)
O21_5 O 0.8622(5) 0.1743(6) 0.1390(4)
O24_3 O 0.7969(5) 0.1397(6) 0.0633(4)
O28_5 O 0.8772(5) 0.2307(6) 0.2206(4)
O29_5 O 0.9422(5) 0.3889(6) 0.1000(4)
O31_5 O 0.8553(5) 0.0998(6) 0.2183(4)
O34_5 O 0.9783(5) 0.2760(6) 0.2514(4)
O37_5 O 0.9893(5) 0.1965(6) 0.0064(4)
O39_5 O 0.9494(5) 0.5425(7) 0.2274(4)
O45_5 O 0.9776(5) 0.3656(6) 0.1814(4)
O47_3 O 0.9629(5) 0.1452(6) 0.2393(4)
O50_5 O 0.8757(5) 0.2078(6) 0.0139(4)
O54_5 O 0.8236(5) 0.2663(6) 0.0843(4)
O56_5 O 0.9160(6) 0.4841(7) 0.2869(4)
O57_5 O 0.9442(5) 0.0928(6) 0.1556(4)
O60_5 O 0.9468(6) 0.6058(7) 0.1373(4)
Pr4_3 Pr 0.96812(5) 0.09126(6) 0.31708(3)
H32_5 H 0.910258 0.436275 0.283914
O36_5 O 0.5485(6) 0.0121(7) 0.5948(4)
W1_6 W 0.52274(3) 0.93416(4) 0.60041(3)
W2_6 W 0.40169(3) 0.87018(4) 0.63131(2)
W3_6 W 0.64006(3) 0.81932(4) 0.57558(2)
W4_6 W 0.62856(3) 0.66126(4) 0.59233(3)
W5_6 W 0.48811(3) 0.59704(4) 0.62824(3)
W6_6 W 0.42254(3) 0.67433(4) 0.54726(3)
W7_6 W 0.57632(3) 0.69028(4) 0.70922(3)
W8_6 W 0.59713(3) 0.84826(4) 0.69436(2)
W9_6 W 0.56263(3) 0.73110(4) 0.50610(2)
W10_6 W 0.47221(4) 0.79237(4) 0.72724(3)
W11_6 W 0.44606(3) 0.85034(4) 0.52804(2)
W12_6 W 0.38068(3) 0.69361(4) 0.65144(3)
Pr1_4 Pr 0.46812(5) 0.40874(6) 0.68292(3)
N1_6 N 0.2662(6) 0.7083(8) 0.5065(5)
C1_6 C 0.2633(8) 0.7733(7) 0.4979(5)
C2_6 C 0.2417(10) 0.8158(10) 0.5274(7)
H1_6 H 0.2408 0.8600 0.5200
C3_6 C 0.2218(11) 0.7965(14) 0.5662(8)
H2_6 H 0.2061 0.8265 0.5864
C4_6 C 0.2241(9) 0.7324(13) 0.5772(8)
H3_6 H 0.2113 0.7178 0.6053
C5_6 C 0.2461(9) 0.6885(11) 0.5453(7)
C6_6 C 0.2874(9) 0.7875(12) 0.4548(8)
C7_6 C 0.2513(10) 0.6146(13) 0.5514(8)
N2_6 N 0.4819(7) 0.2967(8) 0.6452(5)
C8_6 C 0.5306(6) 0.2865(7) 0.6227(6)
C9_6 C 0.5412(8) 0.2242(10) 0.6013(6)
H4_6 H 0.5744 0.2178 0.5847
C10_6 C 0.5022(9) 0.1745(12) 0.6054(7)
H5_6 H 0.5084 0.1336 0.5926
C11_6 C 0.4513(9) 0.1892(11) 0.6307(6)
H6_6 H 0.4231 0.1577 0.6341
C12_6 C 0.4445(9) 0.2500(11) 0.6498(7)
C13_6 C 0.5660(9) 0.3431(12) 0.6176(7)
C14_6 C 0.3920(9) 0.2706(11) 0.6711(6)
N3_6 N 0.4472(6) 0.5058(7) 0.7396(4)
C15_6 C 0.4886(5) 0.5285(8) 0.7654(5)
C16_6 C 0.4800(8) 0.5818(10) 0.7949(6)
H7_6 H 0.5087 0.5967 0.8140
C17_6 C 0.4261(9) 0.6110(11) 0.7939(7)
H8_6 H 0.4184 0.6472 0.8120
C18_6 C 0.3854(9) 0.5865(11) 0.7667(6)
H9_6 H 0.3494 0.6058 0.7662
C19_6 C 0.3957(8) 0.5347(10) 0.7402(6)
C20_6 C 0.5455(7) 0.4971(10) 0.7587(6)
C21_6 C 0.3554(8) 0.5071(10) 0.7058(6)
O1_6 O 0.4773(5) 0.8384(6) 0.5992(4)
O2_6 O 0.5707(5) 0.7471(6) 0.5809(4)
O3_6 O 0.5330(5) 0.7766(6) 0.6738(4)
O4_6 O 0.4138(5) 0.7626(7) 0.5363(4)
O5_6 O 0.6758(5) 0.5992(6) 0.5920(4)
O6_6 O 0.5866(5) 0.8852(6) 0.5729(4)
O7_6 O 0.2843(7) 0.6118(9) 0.3649(5)
O8_6 O 0.2902(6) 0.8515(8) 0.4442(5)
O9_6 O 0.6102(5) 0.6614(6) 0.5278(4)
O10_6 O 0.1927(5) 0.4876(7) 0.7191(5)
O11_6 O 0.6217(5) 0.6785(6) 0.6546(4)
O12_6 O 0.4147(5) 0.6122(6) 0.6602(4)
O13_6 O 0.3069(6) 0.5286(7) 0.7019(4)
O14_6 O 0.3741(5) 0.4598(7) 0.6815(4)
O15_6 O 0.4140(6) 0.8728(7) 0.4780(4)
O16_6 O 0.3162(5) 0.6834(7) 0.6769(4)
O18_5 O 0.5702(5) 0.7138(7) 0.4501(4)
O19_6 O 0.4514(5) 0.9520(6) 0.6250(4)
O20_6 O 0.6123(5) 0.6383(7) 0.7454(4)
O21_6 O 0.6378(5) 0.8257(6) 0.6390(4)
O22_6 O 0.1298(5) 0.5481(7) 0.6236(4)
O23_6 O 0.4394(5) 0.8542(6) 0.6874(4)
O24_4 O 0.7031(5) 0.8603(6) 0.5633(4)
O25_6 O 0.4401(6) 0.8122(7) 0.7781(4)
O26_6 O 0.4967(5) 0.6801(6) 0.5198(4)
O27_6 O 0.4240(5) 0.7307(6) 0.7016(4)
O28_6 O 0.6228(5) 0.7693(6) 0.7206(4)
O29_6 O 0.5578(5) 0.6111(6) 0.6000(4)
O30_6 O 0.4475(5) 0.5888(7) 0.5734(4)
O31_6 O 0.6447(5) 0.9002(6) 0.7183(4)
O32_6 O 0.4878(5) 0.9275(6) 0.5394(4)
O33_6 O 0.3825(5) 0.6415(7) 0.5029(4)
O34_6 O 0.5217(5) 0.7240(6) 0.7514(4)
O35_6 O 0.3592(5) 0.6740(6) 0.5907(4)
O37_6 O 0.5107(5) 0.8035(6) 0.5064(4)
O38_6 O 0.4286(5) 0.4078(7) 0.5991(4)
O39_6 O 0.5506(5) 0.4575(7) 0.7274(4)
O40_6 O 0.3796(6) 0.5301(8) 0.4424(5)
O41_6 O 0.2109(5) 0.6099(7) 0.6897(4)
O42_6 O 0.4906(5) 0.5164(6) 0.6429(4)
O43_6 O 0.3872(6) 0.3287(8) 0.6829(5)
O44_6 O 0.2144(6) 0.4585(7) 0.5669(4)
O45_6 O 0.5224(5) 0.6344(6) 0.6814(4)
O46_6 O 0.2750(6) 0.4000(8) 0.6609(5)
O47_4 O 0.5371(5) 0.8548(6) 0.7393(4)
O48_6 O 0.2587(6) 0.5120(8) 0.4351(5)
O49_6 O 0.3057(6) 0.7472(8) 0.4279(5)
O50_6 O 0.6243(5) 0.7922(6) 0.5139(4)
O51_6 O 0.2333(6) 0.5973(8) 0.5920(5)
O53_6 O 0.3841(5) 0.8806(6) 0.5672(4)
O54_6 O 0.6764(5) 0.7337(6) 0.5843(4)
O55_6 O 0.3263(6) 0.5081(8) 0.6014(5)
O56_6 O 0.5840(6) 0.5159(7) 0.7869(4)
O57_6 O 0.5558(5) 0.9072(6) 0.6556(4)
O58_6 O 0.3500(6) 0.2292(7) 0.6749(4)
O59_6 O 0.3734(5) 0.7868(6) 0.6344(4)
O60_6 O 0.5532(6) 0.3942(7) 0.6373(4)
O61_6 O 0.4628(5) 0.6959(6) 0.6113(4)
O62_6 O 0.2696(6) 0.5815(7) 0.5210(5)
Pr4_4 Pr 0.53188(5) 0.90874(6) 0.81708(3)
O64_4 O 0.2031(5) 0.6397(6) 0.4367(4)
O65_4 O 0.4629(5) 0.3548(6) 0.7607(4)
H10_6 H 0.251168 0.870337 0.444128
H11_6 H 0.242761 0.604402 0.36074
H12_6 H 0.305835 0.574447 0.351963
H13_6 H 0.215362 0.452773 0.734065
H14_6 H 0.152187 0.473745 0.717038
H15_6 H 0.418246 0.547911 0.448493
H16_6 H 0.378588 0.510922 0.411482
H17_6 H 0.101412 0.512763 0.628284
H18_6 H 0.129545 0.561648 0.591266
H19_6 H 0.460085 0.39728 0.577787
H20_6 H 0.412711 0.451415 0.59161
H21_5 H 0.258186 0.487084 0.463983
H22_5 H 0.280356 0.487114 0.411889
H23_6 H 0.224593 0.411463 0.567345
H24_6 H 0.239006 0.481689 0.544722
H25_6 H 0.351831 0.541305 0.615178
H26_6 H 0.319491 0.519163 0.569062
H27_6 H 0.169897 0.612271 0.698005
H28_6 H 0.221195 0.648436 0.670988
H29_6 H 0.29971 0.40408 0.688107
H30_6 H 0.298518 0.386629 0.634475
H31_6 H 0.338164 0.214253 0.644278
H32_6 H 0.589742 0.563725 0.783914
C1_7 C 0.7367(8) 0.2733(7) 0.0021(5)
C6_7 C 0.7126(9) 0.2875(12) 0.0452(8)
O7_7 O 0.7157(7) 0.1118(9) 0.1351(5)
O8_7 O 0.7098(6) 0.3515(8) 0.0558(5)
O15_7 O 0.5860(6) 0.3728(7) 0.0220(4)
O18_6 O 0.4298(5) 0.2138(7) 0.0499(4)
O40_7 O 0.6204(6) 0.0301(8) 0.0576(5)
O48_7 O 0.7413(6) 0.0120(8) 0.0649(5)
O49_7 O 0.6943(6) 0.2472(8) 0.0721(5)
H10_7 H 0.748832 0.370337 0.0558722
H11_7 H 0.757239 0.104402 0.13926
H12_7 H 0.694165 0.0744466 0.148037
H15_7 H 0.581754 0.0479109 0.0515067
H16_7 H 0.621412 0.0109219 0.0885177
W1_7 W 0.47726(3) 0.43416(4) 0.89959(3)
W2_7 W 0.59831(3) 0.37018(4) 0.86869(2)
W3_7 W 0.35994(3) 0.31932(4) 0.92442(2)
W4_7 W 0.37144(3) 0.16126(4) 0.90767(3)
W5_7 W 0.51189(3) 0.09704(4) 0.87176(3)
W6_7 W 0.57746(3) 0.17433(4) 0.95274(3)
W7_7 W 0.42368(3) 0.19028(4) 0.79078(3)
W8_7 W 0.40287(3) 0.34826(4) 0.80564(2)
W9_7 W 0.43737(3) 0.23110(4) 0.99390(2)
W10_7 W 0.52779(4) 0.29237(4) 0.77276(3)
W11_7 W 0.55394(3) 0.35034(4) 0.97196(2)
W12_7 W 0.61932(3) 0.19361(4) 0.84856(3)
N1_7 N 0.7338(6) 0.2083(8) 0.9935(5)
C2_7 C 0.7583(10) 0.3158(10) 0.9726(7)
H1_7 H 0.7592 0.3600 0.9800
C3_7 C 0.7782(11) 0.2965(14) 0.9338(8)
H2_7 H 0.7939 0.3265 0.9136
C4_7 C 0.7759(9) 0.2324(13) 0.9228(8)
H3_7 H 0.7887 0.2178 0.8947
C5_7 C 0.7539(9) 0.1885(11) 0.9547(7)
C7_7 C 0.7487(10) 0.1146(13) 0.9486(8)
N3_7 N 0.5528(6) 0.0058(7) 0.7604(4)
C15_7 C 0.5114(5) 0.0285(8) 0.7346(5)
C16_7 C 0.5200(8) 0.0818(10) 0.7051(6)
H7_7 H 0.4913 0.0967 0.6860
C17_7 C 0.5739(9) 0.1110(11) 0.7061(7)
H8_7 H 0.5816 0.1472 0.6880
C18_7 C 0.6146(9) 0.0865(11) 0.7333(6)
H9_7 H 0.6506 0.1058 0.7338
C19_7 C 0.6043(8) 0.0347(10) 0.7598(6)
C21_7 C 0.6446(8) 0.0071(10) 0.7942(6)
O1_7 O 0.5227(5) 0.3384(6) 0.9008(4)
O2_7 O 0.4293(5) 0.2471(6) 0.9191(4)
O3_7 O 0.4670(5) 0.2766(6) 0.8262(4)
O4_7 O 0.5862(5) 0.2626(7) 0.9637(4)
O5_7 O 0.3242(5) 0.0992(6) 0.9080(4)
O6_7 O 0.4134(5) 0.3852(6) 0.9271(4)
O9_7 O 0.3898(5) 0.1614(6) 0.9722(4)
O11_7 O 0.3783(5) 0.1785(6) 0.8454(4)
O12_7 O 0.5853(5) 0.1122(6) 0.8398(4)
O13_7 O 0.6931(6) 0.0286(7) 0.7981(4)
O16_7 O 0.6838(5) 0.1834(7) 0.8231(4)
O19_7 O 0.5486(5) 0.4520(6) 0.8750(4)
O20_7 O 0.3877(5) 0.1383(7) 0.7546(4)
O21_7 O 0.3622(5) 0.3257(6) 0.8610(4)
O22_7 O 0.8702(5) 0.0481(7) 0.8764(4)
O23_7 O 0.5606(5) 0.3542(6) 0.8126(4)
O25_7 O 0.5599(6) 0.3122(7) 0.7219(4)
O26_7 O 0.5033(5) 0.1801(6) 0.9802(4)
O27_7 O 0.5760(5) 0.2307(6) 0.7984(4)
O28_7 O 0.3772(5) 0.2693(6) 0.7794(4)
O29_7 O 0.4422(5) 0.1111(6) 0.9000(4)
O30_7 O 0.5525(5) 0.0888(7) 0.9266(4)
O31_7 O 0.3553(5) 0.4002(6) 0.7817(4)
O32_7 O 0.5122(5) 0.4275(6) 0.9606(4)
O33_7 O 0.6175(5) 0.1415(7) 0.9971(4)
O34_7 O 0.4783(5) 0.2240(6) 0.7486(4)
O35_7 O 0.6408(5) 0.1740(6) 0.9093(4)
O36_6 O 0.4515(6) 0.5121(7) 0.9052(4)
O37_7 O 0.4893(5) 0.3035(6) 0.9936(4)
O41_7 O 0.7891(5) 0.1099(7) 0.8103(4)
O42_7 O 0.5094(5) 0.0164(6) 0.8571(4)
O45_7 O 0.4776(5) 0.1344(6) 0.8186(4)
O50_7 O 0.3757(5) 0.2922(6) 0.9861(4)
O51_7 O 0.7667(6) 0.0973(8) 0.9080(5)
O53_7 O 0.6159(5) 0.3806(6) 0.9328(4)
O54_7 O 0.3236(5) 0.2337(6) 0.9157(4)
O55_7 O 0.6737(6) 0.0081(8) 0.8986(5)
O56_7 O 0.4160(6) 0.0159(7) 0.7131(4)
O57_7 O 0.4442(5) 0.4072(6) 0.8444(4)
O59_7 O 0.6266(5) 0.2868(6) 0.8656(4)
O61_7 O 0.5372(5) 0.1959(6) 0.8887(4)
O62_7 O 0.7304(6) 0.0815(7) 0.9790(5)
H17_7 H 0.898588 0.0127633 0.871716
H18_7 H 0.870455 0.061648 0.908734
H25_7 H 0.648169 0.041305 0.884822
H26_7 H 0.680509 0.0191628 0.930938
H27_7 H 0.830103 0.112271 0.801995
H28_7 H 0.778805 0.148436 0.829012
H32_7 H 0.410258 0.0637251 0.716086
N2_7 N 0.5181(7) 0.7967(8) 0.8548(5)
C8_7 C 0.4694(6) 0.7865(7) 0.8773(6)
C9_7 C 0.4588(8) 0.7242(10) 0.8987(6)
H4_7 H 0.4256 0.7178 0.9153
C10_7 C 0.4978(9) 0.6745(12) 0.8946(7)
H5_7 H 0.4916 0.6336 0.9074
C11_7 C 0.5487(9) 0.6892(11) 0.8693(6)
H6_7 H 0.5769 0.6577 0.8659
C12_7 C 0.5555(9) 0.7500(11) 0.8502(7)
C13_7 C 0.4340(9) 0.8431(12) 0.8824(7)
C14_7 C 0.6080(9) 0.7706(11) 0.8289(6)
C20_7 C 0.4545(7) 0.9971(10) 0.7413(6)
O10_7 O 0.8073(5) 0.9876(7) 0.7809(5)
O14_7 O 0.6259(5) 0.9598(7) 0.8185(4)
O38_7 O 0.5714(5) 0.9078(7) 0.9009(4)
O39_7 O 0.4494(5) 0.9575(7) 0.7726(4)
O43_7 O 0.6128(6) 0.8287(8) 0.8171(5)
O44_7 O 0.7856(6) 0.9585(7) 0.9331(4)
O46_7 O 0.7250(6) 0.9000(8) 0.8391(5)
O58_7 O 0.6500(6) 0.7292(7) 0.8251(4)
O60_7 O 0.4468(6) 0.8942(7) 0.8627(4)
H13_7 H 0.784638 0.952773 0.765935
H14_7 H 0.847813 0.973745 0.782962
H19_7 H 0.539915 0.89728 0.922213
H20_7 H 0.587289 0.951415 0.90839
H23_7 H 0.775407 0.911463 0.932655
H24_7 H 0.760994 0.981689 0.955278
H29_7 H 0.70029 0.90408 0.811893
H30_7 H 0.701482 0.886629 0.865525
H31_7 H 0.661836 0.714253 0.855722
C8_8 C 0.0306(6) 0.2135(7) 0.3773(6)
C9_8 C 0.0412(8) 0.2758(10) 0.3987(6)
H4_8 H 0.0744 0.2822 0.4153
C10_8 C 0.0022(9) 0.3255(12) 0.3946(7)
H5_8 H 0.0084 0.3664 0.4074
C13_8 C 0.0660(9) 0.1569(12) 0.3824(7)
C20_8 C 0.0455(7) 0.0029(10) 0.2413(6)
O39_8 O 0.0506(5) 0.0425(7) 0.2726(4)
O60_8 O 0.0532(6) 0.1058(7) 0.3627(4)
W1_8 W 0.02274(3) 0.56584(4) 0.39959(3)
W3_8 W 0.14006(3) 0.68068(4) 0.42442(2)
W4_8 W 0.12856(3) 0.83874(4) 0.40767(3)
W7_8 W 0.07632(3) 0.80972(4) 0.29078(3)
W8_8 W 0.09713(3) 0.65174(4) 0.30564(2)
W9_8 W 0.06263(3) 0.76890(4) 0.49390(2)
H7_8 H 0.0087 0.9033 0.1860
O2_8 O 0.0707(5) 0.7529(6) 0.4191(4)
O3_8 O 0.0330(5) 0.7234(6) 0.3262(4)
O5_8 O 0.1758(5) 0.9008(6) 0.4080(4)
O6_8 O 0.0866(5) 0.6148(6) 0.4271(4)
O9_8 O 0.1102(5) 0.8386(6) 0.4722(4)
O11_8 O 0.1217(5) 0.8215(6) 0.3454(4)
O18_7 O 0.0702(5) 0.7862(7) 0.5499(4)
O20_8 O 0.1123(5) 0.8617(7) 0.2546(4)
O21_8 O 0.1378(5) 0.6743(6) 0.3610(4)
O28_8 O 0.1228(5) 0.7307(6) 0.2794(4)
O29_8 O 0.0578(5) 0.8889(6) 0.4000(4)
O31_8 O 0.1447(5) 0.5998(6) 0.2817(4)
O34_8 O 0.0217(5) 0.7760(6) 0.2486(4)
O36_7 O 0.0485(6) 0.4879(7) 0.4052(4)
O37_8 O 0.0107(5) 0.6965(6) 0.4936(4)
O45_8 O 0.0224(5) 0.8656(6) 0.3186(4)
O50_8 O 0.1243(5) 0.7078(6) 0.4861(4)
O54_8 O 0.1764(5) 0.7663(6) 0.4157(4)
O56_8 O 0.0840(6) 0.9841(7) 0.2131(4)
O57_8 O 0.0558(5) 0.5928(6) 0.3444(4)
H32_8 H 0.0897423 0.936275 0.216086
N2_8 N 0.9819(7) 0.2033(8) 0.3548(5)
C11_8 C 0.9513(9) 0.3108(11) 0.3693(6)
H6_8 H 0.9231 0.3423 0.3659
C12_8 C 0.9445(9) 0.2500(11) 0.3502(7)
C14_8 C 0.8920(9) 0.2294(11) 0.3289(6)
O10_8 O 0.6927(5) 0.0124(7) 0.2809(5)
O14_8 O 0.8741(5) 0.0402(7) 0.3185(4)
O38_8 O 0.9286(5) 0.0922(7) 0.4009(4)
O43_8 O 0.8872(6) 0.1713(8) 0.3171(5)
O44_8 O 0.7144(6) 0.0415(7) 0.4331(4)
O46_8 O 0.7750(6) 0.1000(8) 0.3391(5)
O58_8 O 0.8500(6) 0.2708(7) 0.3251(4)
H13_8 H 0.715362 0.0472268 0.265935
H14_8 H 0.652187 0.026255 0.282962
H19_8 H 0.960085 0.10272 0.422213
H20_8 H 0.912711 0.0485855 0.40839
H21_6 H 0.758186 0.0129156 0.536017
H22_6 H 0.780356 0.0128856 0.588111
H23_8 H 0.724593 0.088537 0.432655
H24_8 H 0.739006 0.0183106 0.455278
H29_8 H 0.79971 0.0959198 0.311893
H30_8 H 0.798518 0.113371 0.365525
H31_8 H 0.838164 0.285747 0.355722
W2_8 W 0.90169(3) 0.62982(4) 0.36869(2)
W5_8 W 0.98811(3) 0.90296(4) 0.37176(3)
W6_8 W 0.92254(3) 0.82567(4) 0.45274(3)
W10_8 W 0.97221(4) 0.70763(4) 0.27276(3)
W11_8 W 0.94606(3) 0.64966(4) 0.47196(2)
W12_8 W 0.88068(3) 0.80639(4) 0.34856(3)
N1_8 N 0.7662(6) 0.7917(8) 0.4935(5)
C1_8 C 0.7633(8) 0.7267(7) 0.5021(5)
C2_8 C 0.7417(10) 0.6842(10) 0.4726(7)
H1_8 H 0.7408 0.6400 0.4800
C3_8 C 0.7218(11) 0.7035(14) 0.4338(8)
H2_8 H 0.7061 0.6735 0.4136
C4_8 C 0.7241(9) 0.7676(13) 0.4228(8)
H3_8 H 0.7113 0.7822 0.3947
C5_8 C 0.7461(9) 0.8115(11) 0.4547(7)
C6_8 C 0.7874(9) 0.7125(12) 0.5452(8)
C7_8 C 0.7513(10) 0.8854(13) 0.4486(8)
N3_8 N 0.9472(6) 0.9942(7) 0.2604(4)
C15_8 C 0.9886(5) 0.9715(8) 0.2346(5)
C16_8 C 0.9800(8) 0.9182(10) 0.2051(6)
C17_8 C 0.9261(9) 0.8890(11) 0.2061(7)
H8_8 H 0.9184 0.8528 0.1880
C18_8 C 0.8854(9) 0.9135(11) 0.2333(6)
H9_8 H 0.8494 0.8942 0.2338
C19_8 C 0.8957(8) 0.9653(10) 0.2598(6)
C21_8 C 0.8554(8) 0.9929(10) 0.2942(6)
O1_8 O 0.9773(5) 0.6616(6) 0.4008(4)
O4_8 O 0.9138(5) 0.7374(7) 0.4637(4)
O7_8 O 0.7843(7) 0.8882(9) 0.6351(5)
O8_8 O 0.7902(6) 0.6485(8) 0.5558(5)
O12_8 O 0.9147(5) 0.8878(6) 0.3398(4)
O13_8 O 0.8069(6) 0.9714(7) 0.2981(4)
O15_8 O 0.9140(6) 0.6272(7) 0.5220(4)
O16_8 O 0.8162(5) 0.8166(7) 0.3231(4)
O19_8 O 0.9514(5) 0.5480(6) 0.3750(4)
O22_8 O 0.6298(5) 0.9519(7) 0.3764(4)
O23_8 O 0.9394(5) 0.6458(6) 0.3126(4)
O25_8 O 0.9401(6) 0.6878(7) 0.2219(4)
O26_8 O 0.9967(5) 0.8199(6) 0.4802(4)
O27_8 O 0.9240(5) 0.7693(6) 0.2984(4)
O30_8 O 0.9475(5) 0.9112(7) 0.4266(4)
O32_8 O 0.9878(5) 0.5725(6) 0.4606(4)
O33_8 O 0.8825(5) 0.8585(7) 0.4971(4)
O35_8 O 0.8592(5) 0.8260(6) 0.4093(4)
O40_8 O 0.8796(6) 0.9699(8) 0.5576(5)
O41_8 O 0.7109(5) 0.8901(7) 0.3103(4)
O42_8 O 0.9906(5) 0.9836(6) 0.3571(4)
O48_8 O 0.7587(6) 0.9880(8) 0.5649(5)
O49_8 O 0.8057(6) 0.7528(8) 0.5721(5)
O51_8 O 0.7333(6) 0.9027(8) 0.4080(5)
O53_8 O 0.8841(5) 0.6194(6) 0.4328(4)
O55_8 O 0.8263(6) 0.9919(8) 0.3986(5)
O59_8 O 0.8734(5) 0.7132(6) 0.3656(4)
O61_8 O 0.9628(5) 0.8041(6) 0.3887(4)
O62_8 O 0.7696(6) 0.9185(7) 0.4790(5)
H10_8 H 0.751168 0.629663 0.555872
H11_8 H 0.742761 0.895598 0.63926
H12_8 H 0.805835 0.925553 0.648037
H15_8 H 0.918246 0.952089 0.551507
H16_8 H 0.878588 0.989078 0.588518
H17_8 H 0.601412 0.987237 0.371716
H18_8 H 0.629545 0.938352 0.408734
H25_8 H 0.851831 0.958695 0.384822
H26_8 H 0.819491 0.980837 0.430938
H27_8 H 0.669897 0.887729 0.301995
H28_8 H 0.721195 0.851564 0.329012
H21_7 H 0.258186 0.0129156 0.963983
H22_7 H 0.280356 0.0128856 0.911889
O18_8 O 0.9298(5) 0.2862(7) 0.9501(4)
O36_8 O 0.9515(6) 0.9879(7) 0.0948(4)
H21_8 H 0.741814 0.987084 0.036017
H22_8 H 0.719644 0.987114 0.0881108
loop_
_geom_bond_atom_site_label_1
_geom_bond_atom_site_label_2
_geom_bond_site_symmetry_1
_geom_bond_site_symmetry_2
W3 O2 1_555 1_555
W4 O2 1_555 1_555
W7 O3 1_555 1_555
W8 O3 1_555 1_555
W9 O2 1_555 1_555
C8 C9 1_555 1_555
C9 H4 1_555 1_555
C10 C9 1_555 1_555
H5 C10 1_555 1_555
C13 C8 1_555 1_555
O5 W4 1_555 1_555
O6 W1 1_555 1_555
O9 W4 1_555 1_555
O11 W4 1_555 1_555
O20 W7 1_555 1_555
O21 W3 1_555 1_555
O24 W3 1_555 1_555
O28 W7 1_555 1_555
O29 W4 1_555 1_555
O31 W8 1_555 1_555
O34 W7 1_555 1_555
O37 W9 1_555 1_555
O47 W8 1_555 1_555
O50 W3 1_555 1_555
O52 C13 1_555 1_555
O54 W3 1_555 1_555
O56 C20 1_555 1_555
O57 W1 1_555 1_555
Pr4 O47 1_555 1_555
Pr5 O24 1_555 1_555
Pr6 O52 1_555 1_555
W3 O6 1_555 1_555
W4 O54 1_555 1_555
W7 O11 1_555 1_555
W7 O45 1_555 1_555
W8 O21 1_555 1_555
W8 O28 1_555 1_555
W8 O57 1_555 1_555
W9 O9 1_555 1_555
W9 O50 1_555 1_555
C13 O60 1_555 1_555
C20 O39 1_555 1_555
O56 H32 1_555 1_555
C6 C1 1_555 1_555
O7 Pr2 1_555 1_555
O8 C6 1_555 1_555
O40 Pr2 1_555 1_555
O48 Pr2 1_555 1_555
O49 Pr2 1_555 1_555
O64 Pr2 1_555 1_555
O66 Pr2 1_555 1_555
C6 O49 1_555 1_555
O8 H10 1_555 1_555
O7 H11 1_555 1_555
O7 H12 1_555 1_555
O40 H15 1_555 1_555
O40 H16 1_555 1_555
O48 H21 1_555 1_555
O48 H22 1_555 1_555
W2 O1 1_555 1_555
W5 O12 1_555 1_555
W6 O4 1_555 1_555
W11 O1 1_555 1_555
W12 O12 1_555 1_555
Pr1 N2 1_555 1_555
Pr3 O10 1_555 1_555
C2 H1 1_555 1_555
C3 C2 1_555 1_555
H2 C3 1_555 1_555
C4 C3 1_555 1_555
H3 C4 1_555 1_555
C5 N1 1_555 1_555
C7 C5 1_555 1_555
H6 C11 1_555 1_555
C12 N2 1_555 1_555
C14 C12 1_555 1_555
N3 Pr1 1_555 1_555
C15 N3 1_555 1_555
C16 C15 1_555 1_555
C17 C16 1_555 1_555
H8 C17 1_555 1_555
C18 C17 1_555 1_555
H9 C18 1_555 1_555
C19 N3 1_555 1_555
C21 C19 1_555 1_555
O4 W11 1_555 1_555
O13 Pr3 1_555 1_555
O14 Pr1 1_555 1_555
O16 W12 1_555 1_555
O17 W2 1_555 1_555
O22 Pr3 1_555 1_555
O23 W2 1_555 1_555
O25 W10 1_555 1_555
O26 W6 1_555 1_555
O27 W10 1_555 1_555
O30 W5 1_555 1_555
O33 W6 1_555 1_555
O35 W6 1_555 1_555
O38 Pr1 1_555 1_555
O41 Pr3 1_555 1_555
O42 W5 1_555 1_555
O43 Pr1 1_555 1_555
O44 Pr3 1_555 1_555
O46 Pr3 1_555 1_555
O51 Pr3 1_555 1_555
O53 W2 1_555 1_555
O55 Pr3 1_555 1_555
O58 C14 1_555 1_555
O59 W2 1_555 1_555
O61 W5 1_555 1_555
O63 Pr3 1_555 1_555
O65 Pr1 1_555 1_555
W2 O19 1_555 1_555
W6 O30 1_555 1_555
W6 O61 1_555 1_555
W10 O23 1_555 1_555
W11 O32 1_555 1_555
W11 O53 1_555 1_555
W12 O27 1_555 1_555
W12 O35 1_555 1_555
W12 O59 1_555 1_555
W12 O61 1_555 1_555
Pr1 O42 1_555 1_555
C4 C5 1_555 1_555
C7 O51 1_555 1_555
C7 O62 1_555 1_555
C11 C12 1_555 1_555
C14 O43 1_555 1_555
C18 C19 1_555 1_555
C21 O13 1_555 1_555
C21 O14 1_555 1_555
O10 H13 1_555 1_555
O10 H14 1_555 1_555
O22 H17 1_555 1_555
O22 H18 1_555 1_555
O38 H19 1_555 1_555
O38 H20 1_555 1_555
O44 H23 1_555 1_555
O44 H24 1_555 1_555
O55 H25 1_555 1_555
O55 H26 1_555 1_555
O41 H27 1_555 1_555
O41 H28 1_555 1_555
O46 H29 1_555 1_555
O46 H30 1_555 1_555
O58 H31 1_555 1_555
W1_2 O1_2 1_555 1_555
W2_2 O1_2 1_555 1_555
W3_2 O2_2 1_555 1_555
W4_2 O2_2 1_555 1_555
W5_2 O12_2 1_555 1_555
W6_2 O4_2 1_555 1_555
W7_2 O3_2 1_555 1_555
W8_2 O3_2 1_555 1_555
W9_2 O2_2 1_555 1_555
W10_2 O3_2 1_555 1_555
W11_2 O1_2 1_555 1_555
W12_2 O12_2 1_555 1_555
Pr1_2 N2_2 1_555 1_555
Pr2_2 N1_2 1_555 1_555
Pr3_2 O10_2 1_555 1_555
N1_2 C1_2 1_555 1_555
C1_2 C2_2 1_555 1_555
C2_2 H1_2 1_555 1_555
C3_2 C2_2 1_555 1_555
H2_2 C3_2 1_555 1_555
C4_2 C3_2 1_555 1_555
H3_2 C4_2 1_555 1_555
C5_2 N1_2 1_555 1_555
C6_2 C1_2 1_555 1_555
C7_2 C5_2 1_555 1_555
N2_2 C8_2 1_555 1_555
C8_2 C9_2 1_555 1_555
C9_2 H4_2 1_555 1_555
C10_2 C9_2 1_555 1_555
H5_2 C10_2 1_555 1_555
C11_2 C10_2 1_555 1_555
H6_2 C11_2 1_555 1_555
C12_2 N2_2 1_555 1_555
C13_2 C8_2 1_555 1_555
C14_2 C12_2 1_555 1_555
N3_2 Pr1_2 1_555 1_555
C15_2 N3_2 1_555 1_555
C16_2 C15_2 1_555 1_555
H7_2 C16_2 1_555 1_555
C17_2 C16_2 1_555 1_555
H8_2 C17_2 1_555 1_555
C18_2 C17_2 1_555 1_555
H9_2 C18_2 1_555 1_555
C19_2 N3_2 1_555 1_555
C20_2 C15_2 1_555 1_555
C21_2 C19_2 1_555 1_555
O4_2 W11_2 1_555 1_555
O5_2 W4_2 1_555 1_555
O6_2 W1_2 1_555 1_555
O7_2 Pr2_2 1_555 1_555
O8_2 C6_2 1_555 1_555
O9_2 W4_2 1_555 1_555
O11_2 W4_2 1_555 1_555
O13_2 Pr3_2 1_555 1_555
O14_2 Pr1_2 1_555 1_555
O15_2 W11_2 1_555 1_555
O16_2 W12_2 1_555 1_555
O17_2 W2_2 1_555 1_555
O18_2 W9_2 1_555 1_555
O19_2 W1_2 1_555 1_555
O20_2 W7_2 1_555 1_555
O21_2 W3_2 1_555 1_555
O22_2 Pr3_2 1_555 1_555
O23_2 W2_2 1_555 1_555
O24_2 W3_2 1_555 1_555
O25_2 W10_2 1_555 1_555
O26_2 W6_2 1_555 1_555
O27_2 W10_2 1_555 1_555
O28_2 W7_2 1_555 1_555
O29_2 W4_2 1_555 1_555
O30_2 W5_2 1_555 1_555
O31_2 W8_2 1_555 1_555
O32_2 W1_2 1_555 1_555
O33_2 W6_2 1_555 1_555
O34_2 W7_2 1_555 1_555
O35_2 W6_2 1_555 1_555
O37_2 W9_2 1_555 1_555
O38_2 Pr1_2 1_555 1_555
O39_2 Pr1_2 1_555 1_555
O40_2 Pr2_2 1_555 1_555
O41_2 Pr3_2 1_555 1_555
O42_2 W5_2 1_555 1_555
O43_2 Pr1_2 1_555 1_555
O44_2 Pr3_2 1_555 1_555
O45_2 W5_2 1_555 1_555
O46_2 Pr3_2 1_555 1_555
O47_2 W8_2 1_555 1_555
O48_2 Pr2_2 1_555 1_555
O49_2 Pr2_2 1_555 1_555
O50_2 W3_2 1_555 1_555
O51_2 Pr3_2 1_555 1_555
O52_2 C13_2 1_555 1_555
O53_2 W2_2 1_555 1_555
O54_2 W3_2 1_555 1_555
O55_2 Pr3_2 1_555 1_555
O56_2 C20_2 1_555 1_555
O57_2 W1_2 1_555 1_555
O58_2 C14_2 1_555 1_555
O59_2 W2_2 1_555 1_555
O60_2 Pr1_2 1_555 1_555
O61_2 W5_2 1_555 1_555
O62_2 Pr2_2 1_555 1_555
Pr4_2 O47_2 1_555 1_555
Pr5_2 O24_2 1_555 1_555
Pr6_2 O52_2 1_555 1_555
O63_2 Pr3_2 1_555 1_555
O64_2 Pr2_2 1_555 1_555
O65_2 Pr1_2 1_555 1_555
O66_2 Pr2_2 1_555 1_555
W2_2 O19_2 1_555 1_555
W3_2 O6_2 1_555 1_555
W4_2 O54_2 1_555 1_555
W5_2 O29_2 1_555 1_555
W6_2 O30_2 1_555 1_555
W6_2 O61_2 1_555 1_555
W7_2 O11_2 1_555 1_555
W7_2 O45_2 1_555 1_555
W8_2 O21_2 1_555 1_555
W8_2 O28_2 1_555 1_555
W8_2 O57_2 1_555 1_555
W9_2 O9_2 1_555 1_555
W9_2 O26_2 1_555 1_555
W9_2 O50_2 1_555 1_555
W10_2 O23_2 1_555 1_555
W10_2 O34_2 1_555 1_555
W10_2 O47_2 1_555 1_555
W11_2 O32_2 1_555 1_555
W11_2 O37_2 1_555 1_555
W11_2 O53_2 1_555 1_555
W12_2 O27_2 1_555 1_555
W12_2 O35_2 1_555 1_555
W12_2 O59_2 1_555 1_555
W12_2 O61_2 1_555 1_555
Pr1_2 O42_2 1_555 1_555
Pr2_2 O33_2 1_555 1_555
C4_2 C5_2 1_555 1_555
C6_2 O49_2 1_555 1_555
C7_2 O51_2 1_555 1_555
C7_2 O62_2 1_555 1_555
C11_2 C12_2 1_555 1_555
C13_2 O60_2 1_555 1_555
C14_2 O43_2 1_555 1_555
C18_2 C19_2 1_555 1_555
C20_2 O39_2 1_555 1_555
C21_2 O13_2 1_555 1_555
C21_2 O14_2 1_555 1_555
O8_2 H10_2 1_555 1_555
O7_2 H11_2 1_555 1_555
O7_2 H12_2 1_555 1_555
O10_2 H13_2 1_555 1_555
O10_2 H14_2 1_555 1_555
O40_2 H15_2 1_555 1_555
O40_2 H16_2 1_555 1_555
O22_2 H17_2 1_555 1_555
O22_2 H18_2 1_555 1_555
O38_2 H19_2 1_555 1_555
O38_2 H20_2 1_555 1_555
O48_2 H21_2 1_555 1_555
O48_2 H22_2 1_555 1_555
O44_2 H23_2 1_555 1_555
O44_2 H24_2 1_555 1_555
O55_2 H25_2 1_555 1_555
O55_2 H26_2 1_555 1_555
O41_2 H27_2 1_555 1_555
O41_2 H28_2 1_555 1_555
O46_2 H29_2 1_555 1_555
O46_2 H30_2 1_555 1_555
O58_2 H31_2 1_555 1_555
O56_2 H32_2 1_555 1_555
Pr4_2 N2_3 1_555 1_555
N2_3 C8_3 1_555 1_555
C8_3 C9_3 1_555 1_555
C9_3 H4_3 1_555 1_555
C10_3 C9_3 1_555 1_555
H5_3 C10_3 1_555 1_555
C11_3 C10_3 1_555 1_555
H6_3 C11_3 1_555 1_555
C12_3 N2_3 1_555 1_555
C13_3 C8_3 1_555 1_555
C14_3 C12_3 1_555 1_555
O14_3 Pr4_2 1_555 1_555
O38_3 Pr4_2 1_555 1_555
O39_3 Pr4_2 1_555 1_555
O43_3 Pr4_2 1_555 1_555
O52_3 C13_3 1_555 1_555
O58_3 C14_3 1_555 1_555
O60_3 Pr4_2 1_555 1_555
Pr6_3 O52_3 1_555 1_555
C11_3 C12_3 1_555 1_555
C13_3 O60_3 1_555 1_555
C14_3 O43_3 1_555 1_555
C20_3 O39_3 1_555 1_555
O10_3 H13_3 1_555 1_555
O10_3 H14_3 1_555 1_555
O38_3 H19_3 1_555 1_555
O38_3 H20_3 1_555 1_555
O44_3 H23_3 1_555 1_555
O44_3 H24_3 1_555 1_555
O46_3 H29_3 1_555 1_555
O46_3 H30_3 1_555 1_555
O58_3 H31_3 1_555 1_555
W1_3 O1_3 1_555 1_555
W2_3 O1_3 1_555 1_555
W3_3 O2_3 1_555 1_555
W4_3 O2_3 1_555 1_555
W5_3 O12_3 1_555 1_555
W6_3 O4_3 1_555 1_555
W7_3 O3_3 1_555 1_555
W8_3 O3_3 1_555 1_555
W9_3 O2_3 1_555 1_555
W10_3 O3_3 1_555 1_555
W11_3 O1_3 1_555 1_555
W12_3 O12_3 1_555 1_555
C2_3 H1_3 1_555 1_555
C3_3 C2_3 1_555 1_555
H2_3 C3_3 1_555 1_555
C4_3 C3_3 1_555 1_555
H3_3 C4_3 1_555 1_555
C5_3 N1_3 1_555 1_555
C7_3 C5_3 1_555 1_555
C15_3 N3_3 1_555 1_555
C16_3 C15_3 1_555 1_555
H7_3 C16_3 1_555 1_555
C17_3 C16_3 1_555 1_555
H8_3 C17_3 1_555 1_555
C18_3 C17_3 1_555 1_555
H9_3 C18_3 1_555 1_555
C19_3 N3_3 1_555 1_555
C21_3 C19_3 1_555 1_555
O4_3 W11_3 1_555 1_555
O5_3 W4_3 1_555 1_555
O6_3 W1_3 1_555 1_555
O9_3 W4_3 1_555 1_555
O11_3 W4_3 1_555 1_555
O13_3 Pr3_3 1_555 1_555
O16_3 W12_3 1_555 1_555
O17_3 W2_3 1_555 1_555
O19_3 W1_3 1_555 1_555
O20_3 W7_3 1_555 1_555
O21_3 W3_3 1_555 1_555
O22_3 Pr3_3 1_555 1_555
O23_3 W2_3 1_555 1_555
O64 W3_3 1_555 1_555
O25_3 W10_3 1_555 1_555
O26_3 W6_3 1_555 1_555
O27_3 W10_3 1_555 1_555
O28_3 W7_3 1_555 1_555
O29_3 W4_3 1_555 1_555
O30_3 W5_3 1_555 1_555
O31_3 W8_3 1_555 1_555
O32_3 W1_3 1_555 1_555
O33_3 W6_3 1_555 1_555
O34_3 W7_3 1_555 1_555
O35_3 W6_3 1_555 1_555
O36_3 W1_3 1_555 1_555
O37_3 W9_3 1_555 1_555
O41_3 Pr3_3 1_555 1_555
O42_3 W5_3 1_555 1_555
O45_3 W5_3 1_555 1_555
O65_2 W8_3 1_555 1_555
O50_3 W3_3 1_555 1_555
O51_3 Pr3_3 1_555 1_555
O53_3 W2_3 1_555 1_555
O54_3 W3_3 1_555 1_555
O55_3 Pr3_3 1_555 1_555
O57_3 W1_3 1_555 1_555
O59_3 W2_3 1_555 1_555
O61_3 W5_3 1_555 1_555
Pr7_3 O17_3 1_555 1_555
W2_3 O19_3 1_555 1_555
W3_3 O6_3 1_555 1_555
W4_3 O54_3 1_555 1_555
W5_3 O29_3 1_555 1_555
W6_3 O30_3 1_555 1_555
W6_3 O61_3 1_555 1_555
W7_3 O11_3 1_555 1_555
W7_3 O45_3 1_555 1_555
W8_3 O21_3 1_555 1_555
W8_3 O28_3 1_555 1_555
W8_3 O57_3 1_555 1_555
W9_3 O9_3 1_555 1_555
W9_3 O26_3 1_555 1_555
W9_3 O50_3 1_555 1_555
W10_3 O23_3 1_555 1_555
W10_3 O34_3 1_555 1_555
W10_3 O65_2 1_555 1_555
W11_3 O32_3 1_555 1_555
W11_3 O37_3 1_555 1_555
W11_3 O53_3 1_555 1_555
W12_3 O27_3 1_555 1_555
W12_3 O35_3 1_555 1_555
W12_3 O59_3 1_555 1_555
W12_3 O61_3 1_555 1_555
C4_3 C5_3 1_555 1_555
C7_3 O51_3 1_555 1_555
C7_3 O62_3 1_555 1_555
C18_3 C19_3 1_555 1_555
C21_3 O13_3 1_555 1_555
O22_3 H17_3 1_555 1_555
O22_3 H18_3 1_555 1_555
O55_3 H25_3 1_555 1_555
O55_3 H26_3 1_555 1_555
O41_3 H27_3 1_555 1_555
O41_3 H28_3 1_555 1_555
O56_3 H32_3 1_555 1_555
C6_3 C1_3 1_555 1_555
O7_3 Pr5 1_555 1_555
O8_3 C6_3 1_555 1_555
O40_3 Pr5 1_555 1_555
O48_3 Pr5 1_555 1_555
O49_3 Pr5 1_555 1_555
O66_3 Pr5 1_555 1_555
C6_3 O49_3 1_555 1_555
O8_3 H10_3 1_555 1_555
O7_3 H11_3 1_555 1_555
O7_3 H12_3 1_555 1_555
O40_3 H15_3 1_555 1_555
O40_3 H16_3 1_555 1_555
W2_4 O1_4 1_555 1_555
W5_4 O12_4 1_555 1_555
W6_4 O4_4 1_555 1_555
W11_4 O1_4 1_555 1_555
W12_4 O12_4 1_555 1_555
Pr5_2 N1_4 1_555 1_555
N1_4 C1_4 1_555 1_555
C1_4 C2_4 1_555 1_555
C2_4 H1_4 1_555 1_555
C3_4 C2_4 1_555 1_555
H2_4 C3_4 1_555 1_555
C4_4 C3_4 1_555 1_555
H3_4 C4_4 1_555 1_555
C5_4 N1_4 1_555 1_555
C6_4 C1_4 1_555 1_555
C7_4 C5_4 1_555 1_555
C15_4 N3_4 1_555 1_555
C16_4 C15_4 1_555 1_555
C17_4 C16_4 1_555 1_555
H8_4 C17_4 1_555 1_555
C18_4 C17_4 1_555 1_555
H9_4 C18_4 1_555 1_555
C19_4 N3_4 1_555 1_555
C21_4 C19_4 1_555 1_555
O4_4 W11_4 1_555 1_555
O7_4 Pr5_2 1_555 1_555
O8_4 C6_4 1_555 1_555
O13_4 Pr3_4 1_555 1_555
O15_4 W11_4 1_555 1_555
O16_4 W12_4 1_555 1_555
O17_4 W2_4 1_555 1_555
O22_4 Pr3_4 1_555 1_555
O23_4 W2_4 1_555 1_555
O25_4 W10_4 1_555 1_555
O26_4 W6_4 1_555 1_555
O27_4 W10_4 1_555 1_555
O30_4 W5_4 1_555 1_555
O33_4 W6_4 1_555 1_555
O35_4 W6_4 1_555 1_555
O40_4 Pr5_2 1_555 1_555
O41_4 Pr3_4 1_555 1_555
O42_4 W5_4 1_555 1_555
O48_4 Pr5_2 1_555 1_555
O49_4 Pr5_2 1_555 1_555
O51_4 Pr3_4 1_555 1_555
O53_4 W2_4 1_555 1_555
O55_4 Pr3_4 1_555 1_555
O59_4 W2_4 1_555 1_555
O61_4 W5_4 1_555 1_555
O62_4 Pr5_2 1_555 1_555
Pr7_4 O17_4 1_555 1_555
O66_4 Pr5_2 1_555 1_555
W2_4 O19_4 1_555 1_555
W6_4 O30_4 1_555 1_555
W6_4 O61_4 1_555 1_555
W10_4 O23_4 1_555 1_555
W11_4 O32_4 1_555 1_555
W11_4 O53_4 1_555 1_555
W12_4 O27_4 1_555 1_555
W12_4 O35_4 1_555 1_555
W12_4 O59_4 1_555 1_555
W12_4 O61_4 1_555 1_555
Pr5_2 O33_4 1_555 1_555
C4_4 C5_4 1_555 1_555
C6_4 O49_4 1_555 1_555
C7_4 O51_4 1_555 1_555
C7_4 O62_4 1_555 1_555
C18_4 C19_4 1_555 1_555
C21_4 O13_4 1_555 1_555
O8_4 H10_4 1_555 1_555
O7_4 H11_4 1_555 1_555
O7_4 H12_4 1_555 1_555
O40_4 H15_4 1_555 1_555
O40_4 H16_4 1_555 1_555
O22_4 H17_4 1_555 1_555
O22_4 H18_4 1_555 1_555
O55_4 H25_4 1_555 1_555
O55_4 H26_4 1_555 1_555
O41_4 H27_4 1_555 1_555
O41_4 H28_4 1_555 1_555
Pr4 N2_4 1_555 1_555
H6_4 C11_4 1_555 1_555
C12_4 N2_4 1_555 1_555
C14_4 C12_4 1_555 1_555
O14_4 Pr4 1_555 1_555
O38_4 Pr4 1_555 1_555
O43_4 Pr4 1_555 1_555
O58_4 C14_4 1_555 1_555
C11_4 C12_4 1_555 1_555
C14_4 O43_4 1_555 1_555
O10_4 H13_4 1_555 1_555
O10_4 H14_4 1_555 1_555
O38_4 H19_4 1_555 1_555
O38_4 H20_4 1_555 1_555
O44_4 H23_4 1_555 1_555
O44_4 H24_4 1_555 1_555
O46_4 H29_4 1_555 1_555
O46_4 H30_4 1_555 1_555
O58_4 H31_4 1_555 1_555
W3_4 O2_4 1_555 1_555
W4_4 O2_4 1_555 1_555
W7_4 O3_4 1_555 1_555
W8_4 O3_4 1_555 1_555
W9_4 O2_4 1_555 1_555
O5_4 W4_4 1_555 1_555
O6_4 W1_4 1_555 1_555
O9_4 W4_4 1_555 1_555
O11_4 W4_4 1_555 1_555
O18_4 W9_4 1_555 1_555
O20_4 W7_4 1_555 1_555
O21_4 W3_4 1_555 1_555
O64_2 W3_4 1_555 1_555
O28_4 W7_4 1_555 1_555
O29_4 W4_4 1_555 1_555
O31_4 W8_4 1_555 1_555
O34_4 W7_4 1_555 1_555
O36_4 W1_4 1_555 1_555
O37_4 W9_4 1_555 1_555
O65 W8_4 1_555 1_555
O50_4 W3_4 1_555 1_555
O54_4 W3_4 1_555 1_555
O57_4 W1_4 1_555 1_555
W3_4 O6_4 1_555 1_555
W4_4 O54_4 1_555 1_555
W7_4 O11_4 1_555 1_555
W7_4 O45_4 1_555 1_555
W8_4 O21_4 1_555 1_555
W8_4 O28_4 1_555 1_555
W8_4 O57_4 1_555 1_555
W9_4 O9_4 1_555 1_555
W9_4 O50_4 1_555 1_555
O56_4 H32_4 1_555 1_555
C8_4 C9_4 1_555 1_555
C9_4 H4_4 1_555 1_555
C10_4 C9_4 1_555 1_555
H5_4 C10_4 1_555 1_555
C13_4 C8_4 1_555 1_555
O52_4 C13_4 1_555 1_555
Pr6_4 O52_4 1_555 1_555
C13_4 O60_4 1_555 1_555
C20_4 O39_4 1_555 1_555
W2_5 O1_5 1_555 1_555
W5_5 O12_5 1_555 1_555
W6_5 O4_5 1_555 1_555
W11_5 O1_5 1_555 1_555
W12_5 O12_5 1_555 1_555
Pr1_3 N2_5 1_555 1_555
Pr7_3 O10_5 1_555 1_555
C2_5 H1_5 1_555 1_555
C3_5 C2_5 1_555 1_555
H2_5 C3_5 1_555 1_555
C4_5 C3_5 1_555 1_555
H3_5 C4_5 1_555 1_555
C5_5 N1_5 1_555 1_555
C7_5 C5_5 1_555 1_555
H6_5 C11_5 1_555 1_555
C12_5 N2_5 1_555 1_555
C14_5 C12_5 1_555 1_555
N3_5 Pr1_3 1_555 1_555
C15_5 N3_5 1_555 1_555
C16_5 C15_5 1_555 1_555
C17_5 C16_5 1_555 1_555
H8_5 C17_5 1_555 1_555
C18_5 C17_5 1_555 1_555
H9_5 C18_5 1_555 1_555
C19_5 N3_5 1_555 1_555
C21_5 C19_5 1_555 1_555
O4_5 W11_5 1_555 1_555
O13_5 Pr7_3 1_555 1_555
O14_5 Pr1_3 1_555 1_555
O16_5 W12_5 1_555 1_555
O63_3 W2_5 1_555 1_555
O22_5 Pr7_3 1_555 1_555
O23_5 W2_5 1_555 1_555
O25_5 W10_5 1_555 1_555
O26_5 W6_5 1_555 1_555
O27_5 W10_5 1_555 1_555
O30_5 W5_5 1_555 1_555
O33_5 W6_5 1_555 1_555
O35_5 W6_5 1_555 1_555
O38_5 Pr1_3 1_555 1_555
O41_5 Pr7_3 1_555 1_555
O42_5 W5_5 1_555 1_555
O43_5 Pr1_3 1_555 1_555
O44_5 Pr7_3 1_555 1_555
O46_5 Pr7_3 1_555 1_555
O51_5 Pr7_3 1_555 1_555
O53_5 W2_5 1_555 1_555
O55_5 Pr7_3 1_555 1_555
O58_5 C14_5 1_555 1_555
O59_5 W2_5 1_555 1_555
O61_5 W5_5 1_555 1_555
O65_3 Pr1_3 1_555 1_555
W2_5 O19_5 1_555 1_555
W6_5 O30_5 1_555 1_555
W6_5 O61_5 1_555 1_555
W10_5 O23_5 1_555 1_555
W11_5 O32_5 1_555 1_555
W11_5 O53_5 1_555 1_555
W12_5 O27_5 1_555 1_555
W12_5 O35_5 1_555 1_555
W12_5 O59_5 1_555 1_555
W12_5 O61_5 1_555 1_555
Pr1_3 O42_5 1_555 1_555
C4_5 C5_5 1_555 1_555
C7_5 O51_5 1_555 1_555
C7_5 O62_5 1_555 1_555
C11_5 C12_5 1_555 1_555
C14_5 O43_5 1_555 1_555
C18_5 C19_5 1_555 1_555
C21_5 O13_5 1_555 1_555
C21_5 O14_5 1_555 1_555
O10_5 H13_5 1_555 1_555
O10_5 H14_5 1_555 1_555
O22_5 H17_5 1_555 1_555
O22_5 H18_5 1_555 1_555
O38_5 H19_5 1_555 1_555
O38_5 H20_5 1_555 1_555
O44_5 H23_5 1_555 1_555
O44_5 H24_5 1_555 1_555
O55_5 H25_5 1_555 1_555
O55_5 H26_5 1_555 1_555
O41_5 H27_5 1_555 1_555
O41_5 H28_5 1_555 1_555
O46_5 H29_5 1_555 1_555
O46_5 H30_5 1_555 1_555
O58_5 H31_5 1_555 1_555
C6_5 C1_5 1_555 1_555
O7_5 Pr6 1_555 1_555
O8_5 C6_5 1_555 1_555
O40_5 Pr6 1_555 1_555
O48_5 Pr6 1_555 1_555
O49_5 Pr6 1_555 1_555
O64_3 Pr6 1_555 1_555
C6_5 O49_5 1_555 1_555
O8_5 H10_5 1_555 1_555
O7_5 H11_5 1_555 1_555
O7_5 H12_5 1_555 1_555
O40_5 H15_5 1_555 1_555
O40_5 H16_5 1_555 1_555
O48_5 H21_4 1_555 1_555
O48_5 H22_4 1_555 1_555
W3_5 O2_5 1_555 1_555
W4_5 O2_5 1_555 1_555
W7_5 O3_5 1_555 1_555
W8_5 O3_5 1_555 1_555
W9_5 O2_5 1_555 1_555
C8_5 C9_5 1_555 1_555
C9_5 H4_5 1_555 1_555
C10_5 C9_5 1_555 1_555
H5_5 C10_5 1_555 1_555
C13_5 C8_5 1_555 1_555
O5_5 W4_5 1_555 1_555
O6_5 W1_5 1_555 1_555
O9_5 W4_5 1_555 1_555
O11_5 W4_5 1_555 1_555
O20_5 W7_5 1_555 1_555
O21_5 W3_5 1_555 1_555
O24_3 W3_5 1_555 1_555
O28_5 W7_5 1_555 1_555
O29_5 W4_5 1_555 1_555
O31_5 W8_5 1_555 1_555
O34_5 W7_5 1_555 1_555
O37_5 W9_5 1_555 1_555
O47_3 W8_5 1_555 1_555
O50_5 W3_5 1_555 1_555
O66 C13_5 1_555 1_555
O54_5 W3_5 1_555 1_555
O56_5 C20_5 1_555 1_555
O57_5 W1_5 1_555 1_555
Pr4_3 O47_3 1_555 1_555
Pr6_3 O24_3 1_555 1_555
W3_5 O6_5 1_555 1_555
W4_5 O54_5 1_555 1_555
W7_5 O11_5 1_555 1_555
W7_5 O45_5 1_555 1_555
W8_5 O21_5 1_555 1_555
W8_5 O28_5 1_555 1_555
W8_5 O57_5 1_555 1_555
W9_5 O9_5 1_555 1_555
W9_5 O50_5 1_555 1_555
C13_5 O60_5 1_555 1_555
C20_5 O39_5 1_555 1_555
O56_5 H32_5 1_555 1_555
W1_6 O1_6 1_555 1_555
W2_6 O1_6 1_555 1_555
W3_6 O2_6 1_555 1_555
W4_6 O2_6 1_555 1_555
W5_6 O12_6 1_555 1_555
W6_6 O4_6 1_555 1_555
W7_6 O3_6 1_555 1_555
W8_6 O3_6 1_555 1_555
W9_6 O2_6 1_555 1_555
W10_6 O3_6 1_555 1_555
W11_6 O1_6 1_555 1_555
W12_6 O12_6 1_555 1_555
Pr1_4 N2_6 1_555 1_555
Pr6_2 N1_6 1_555 1_555
Pr7_4 O10_6 1_555 1_555
N1_6 C1_6 1_555 1_555
C1_6 C2_6 1_555 1_555
C2_6 H1_6 1_555 1_555
C3_6 C2_6 1_555 1_555
H2_6 C3_6 1_555 1_555
C4_6 C3_6 1_555 1_555
H3_6 C4_6 1_555 1_555
C5_6 N1_6 1_555 1_555
C6_6 C1_6 1_555 1_555
C7_6 C5_6 1_555 1_555
N2_6 C8_6 1_555 1_555
C8_6 C9_6 1_555 1_555
C9_6 H4_6 1_555 1_555
C10_6 C9_6 1_555 1_555
H5_6 C10_6 1_555 1_555
C11_6 C10_6 1_555 1_555
H6_6 C11_6 1_555 1_555
C12_6 N2_6 1_555 1_555
C13_6 C8_6 1_555 1_555
C14_6 C12_6 1_555 1_555
N3_6 Pr1_4 1_555 1_555
C15_6 N3_6 1_555 1_555
C16_6 C15_6 1_555 1_555
H7_6 C16_6 1_555 1_555
C17_6 C16_6 1_555 1_555
H8_6 C17_6 1_555 1_555
C18_6 C17_6 1_555 1_555
H9_6 C18_6 1_555 1_555
C19_6 N3_6 1_555 1_555
C20_6 C15_6 1_555 1_555
C21_6 C19_6 1_555 1_555
O4_6 W11_6 1_555 1_555
O5_6 W4_6 1_555 1_555
O6_6 W1_6 1_555 1_555
O7_6 Pr6_2 1_555 1_555
O8_6 C6_6 1_555 1_555
O9_6 W4_6 1_555 1_555
O11_6 W4_6 1_555 1_555
O13_6 Pr7_4 1_555 1_555
O14_6 Pr1_4 1_555 1_555
O15_6 W11_6 1_555 1_555
O16_6 W12_6 1_555 1_555
O63_4 W2_6 1_555 1_555
O18_5 W9_6 1_555 1_555
O19_6 W1_6 1_555 1_555
O20_6 W7_6 1_555 1_555
O21_6 W3_6 1_555 1_555
O22_6 Pr7_4 1_555 1_555
O23_6 W2_6 1_555 1_555
O24_4 W3_6 1_555 1_555
O25_6 W10_6 1_555 1_555
O26_6 W6_6 1_555 1_555
O27_6 W10_6 1_555 1_555
O28_6 W7_6 1_555 1_555
O29_6 W4_6 1_555 1_555
O30_6 W5_6 1_555 1_555
O31_6 W8_6 1_555 1_555
O32_6 W1_6 1_555 1_555
O33_6 W6_6 1_555 1_555
O34_6 W7_6 1_555 1_555
O35_6 W6_6 1_555 1_555
O37_6 W9_6 1_555 1_555
O38_6 Pr1_4 1_555 1_555
O39_6 Pr1_4 1_555 1_555
O40_6 Pr6_2 1_555 1_555
O41_6 Pr7_4 1_555 1_555
O42_6 W5_6 1_555 1_555
O43_6 Pr1_4 1_555 1_555
O44_6 Pr7_4 1_555 1_555
O45_6 W5_6 1_555 1_555
O46_6 Pr7_4 1_555 1_555
O47_4 W8_6 1_555 1_555
O48_6 Pr6_2 1_555 1_555
O49_6 Pr6_2 1_555 1_555
O50_6 W3_6 1_555 1_555
O51_6 Pr7_4 1_555 1_555
O66_2 C13_6 1_555 1_555
O53_6 W2_6 1_555 1_555
O54_6 W3_6 1_555 1_555
O55_6 Pr7_4 1_555 1_555
O56_6 C20_6 1_555 1_555
O57_6 W1_6 1_555 1_555
O58_6 C14_6 1_555 1_555
O59_6 W2_6 1_555 1_555
O60_6 Pr1_4 1_555 1_555
O61_6 W5_6 1_555 1_555
O62_6 Pr6_2 1_555 1_555
Pr4_4 O47_4 1_555 1_555
Pr6_4 O24_4 1_555 1_555
O64_4 Pr6_2 1_555 1_555
O65_4 Pr1_4 1_555 1_555
W2_6 O19_6 1_555 1_555
W3_6 O6_6 1_555 1_555
W4_6 O54_6 1_555 1_555
W5_6 O29_6 1_555 1_555
W6_6 O30_6 1_555 1_555
W6_6 O61_6 1_555 1_555
W7_6 O11_6 1_555 1_555
W7_6 O45_6 1_555 1_555
W8_6 O21_6 1_555 1_555
W8_6 O28_6 1_555 1_555
W8_6 O57_6 1_555 1_555
W9_6 O9_6 1_555 1_555
W9_6 O26_6 1_555 1_555
W9_6 O50_6 1_555 1_555
W10_6 O23_6 1_555 1_555
W10_6 O34_6 1_555 1_555
W10_6 O47_4 1_555 1_555
W11_6 O32_6 1_555 1_555
W11_6 O37_6 1_555 1_555
W11_6 O53_6 1_555 1_555
W12_6 O27_6 1_555 1_555
W12_6 O35_6 1_555 1_555
W12_6 O59_6 1_555 1_555
W12_6 O61_6 1_555 1_555
Pr1_4 O42_6 1_555 1_555
Pr6_2 O33_6 1_555 1_555
C4_6 C5_6 1_555 1_555
C6_6 O49_6 1_555 1_555
C7_6 O51_6 1_555 1_555
C7_6 O62_6 1_555 1_555
C11_6 C12_6 1_555 1_555
C13_6 O60_6 1_555 1_555
C14_6 O43_6 1_555 1_555
C18_6 C19_6 1_555 1_555
C20_6 O39_6 1_555 1_555
C21_6 O13_6 1_555 1_555
C21_6 O14_6 1_555 1_555
O8_6 H10_6 1_555 1_555
O7_6 H11_6 1_555 1_555
O7_6 H12_6 1_555 1_555
O10_6 H13_6 1_555 1_555
O10_6 H14_6 1_555 1_555
O40_6 H15_6 1_555 1_555
O40_6 H16_6 1_555 1_555
O22_6 H17_6 1_555 1_555
O22_6 H18_6 1_555 1_555
O38_6 H19_6 1_555 1_555
O38_6 H20_6 1_555 1_555
O48_6 H21_5 1_555 1_555
O48_6 H22_5 1_555 1_555
O44_6 H23_6 1_555 1_555
O44_6 H24_6 1_555 1_555
O55_6 H25_6 1_555 1_555
O55_6 H26_6 1_555 1_555
O41_6 H27_6 1_555 1_555
O41_6 H28_6 1_555 1_555
O46_6 H29_6 1_555 1_555
O46_6 H30_6 1_555 1_555
O58_6 H31_6 1_555 1_555
O56_6 H32_6 1_555 1_555
C6_7 C1_7 1_555 1_555
O7_7 Pr6_3 1_555 1_555
O8_7 C6_7 1_555 1_555
O40_7 Pr6_3 1_555 1_555
O48_7 Pr6_3 1_555 1_555
O49_7 Pr6_3 1_555 1_555
C6_7 O49_7 1_555 1_555
O8_7 H10_7 1_555 1_555
O7_7 H11_7 1_555 1_555
O7_7 H12_7 1_555 1_555
O40_7 H15_7 1_555 1_555
O40_7 H16_7 1_555 1_555
W1_7 O1_7 1_555 1_555
W2_7 O1_7 1_555 1_555
W3_7 O2_7 1_555 1_555
W4_7 O2_7 1_555 1_555
W5_7 O12_7 1_555 1_555
W6_7 O4_7 1_555 1_555
W7_7 O3_7 1_555 1_555
W8_7 O3_7 1_555 1_555
W9_7 O2_7 1_555 1_555
W10_7 O3_7 1_555 1_555
W11_7 O1_7 1_555 1_555
W12_7 O12_7 1_555 1_555
C2_7 H1_7 1_555 1_555
C3_7 C2_7 1_555 1_555
H2_7 C3_7 1_555 1_555
C4_7 C3_7 1_555 1_555
H3_7 C4_7 1_555 1_555
C5_7 N1_7 1_555 1_555
C7_7 C5_7 1_555 1_555
C15_7 N3_7 1_555 1_555
C16_7 C15_7 1_555 1_555
H7_7 C16_7 1_555 1_555
C17_7 C16_7 1_555 1_555
H8_7 C17_7 1_555 1_555
C18_7 C17_7 1_555 1_555
H9_7 C18_7 1_555 1_555
C19_7 N3_7 1_555 1_555
C21_7 C19_7 1_555 1_555
O4_7 W11_7 1_555 1_555
O5_7 W4_7 1_555 1_555
O6_7 W1_7 1_555 1_555
O9_7 W4_7 1_555 1_555
O11_7 W4_7 1_555 1_555
O13_7 Pr7 1_555 1_555
O16_7 W12_7 1_555 1_555
O63 W2_7 1_555 1_555
O19_7 W1_7 1_555 1_555
O20_7 W7_7 1_555 1_555
O21_7 W3_7 1_555 1_555
O22_7 Pr7 1_555 1_555
O23_7 W2_7 1_555 1_555
O64_3 W3_7 1_555 1_555
O25_7 W10_7 1_555 1_555
O26_7 W6_7 1_555 1_555
O27_7 W10_7 1_555 1_555
O28_7 W7_7 1_555 1_555
O29_7 W4_7 1_555 1_555
O30_7 W5_7 1_555 1_555
O31_7 W8_7 1_555 1_555
O32_7 W1_7 1_555 1_555
O33_7 W6_7 1_555 1_555
O34_7 W7_7 1_555 1_555
O35_7 W6_7 1_555 1_555
O36_6 W1_7 1_555 1_555
O37_7 W9_7 1_555 1_555
O41_7 Pr7 1_555 1_555
O42_7 W5_7 1_555 1_555
O45_7 W5_7 1_555 1_555
O65_4 W8_7 1_555 1_555
O50_7 W3_7 1_555 1_555
O51_7 Pr7 1_555 1_555
O53_7 W2_7 1_555 1_555
O54_7 W3_7 1_555 1_555
O55_7 Pr7 1_555 1_555
O57_7 W1_7 1_555 1_555
O59_7 W2_7 1_555 1_555
O61_7 W5_7 1_555 1_555
W2_7 O19_7 1_555 1_555
W3_7 O6_7 1_555 1_555
W4_7 O54_7 1_555 1_555
W5_7 O29_7 1_555 1_555
W6_7 O30_7 1_555 1_555
W6_7 O61_7 1_555 1_555
W7_7 O11_7 1_555 1_555
W7_7 O45_7 1_555 1_555
W8_7 O21_7 1_555 1_555
W8_7 O28_7 1_555 1_555
W8_7 O57_7 1_555 1_555
W9_7 O9_7 1_555 1_555
W9_7 O26_7 1_555 1_555
W9_7 O50_7 1_555 1_555
W10_7 O23_7 1_555 1_555
W10_7 O34_7 1_555 1_555
W10_7 O65_4 1_555 1_555
W11_7 O32_7 1_555 1_555
W11_7 O37_7 1_555 1_555
W11_7 O53_7 1_555 1_555
W12_7 O27_7 1_555 1_555
W12_7 O35_7 1_555 1_555
W12_7 O59_7 1_555 1_555
W12_7 O61_7 1_555 1_555
C4_7 C5_7 1_555 1_555
C7_7 O51_7 1_555 1_555
C7_7 O62_7 1_555 1_555
C18_7 C19_7 1_555 1_555
C21_7 O13_7 1_555 1_555
O22_7 H17_7 1_555 1_555
O22_7 H18_7 1_555 1_555
O55_7 H25_7 1_555 1_555
O55_7 H26_7 1_555 1_555
O41_7 H27_7 1_555 1_555
O41_7 H28_7 1_555 1_555
O56_7 H32_7 1_555 1_555
Pr4_4 N2_7 1_555 1_555
N2_7 C8_7 1_555 1_555
C8_7 C9_7 1_555 1_555
C9_7 H4_7 1_555 1_555
C10_7 C9_7 1_555 1_555
H5_7 C10_7 1_555 1_555
C11_7 C10_7 1_555 1_555
H6_7 C11_7 1_555 1_555
C12_7 N2_7 1_555 1_555
C13_7 C8_7 1_555 1_555
C14_7 C12_7 1_555 1_555
O14_7 Pr4_4 1_555 1_555
O38_7 Pr4_4 1_555 1_555
O39_7 Pr4_4 1_555 1_555
O43_7 Pr4_4 1_555 1_555
O66_3 C13_7 1_555 1_555
O58_7 C14_7 1_555 1_555
O60_7 Pr4_4 1_555 1_555
C11_7 C12_7 1_555 1_555
C13_7 O60_7 1_555 1_555
C14_7 O43_7 1_555 1_555
C20_7 O39_7 1_555 1_555
O10_7 H13_7 1_555 1_555
O10_7 H14_7 1_555 1_555
O38_7 H19_7 1_555 1_555
O38_7 H20_7 1_555 1_555
O44_7 H23_7 1_555 1_555
O44_7 H24_7 1_555 1_555
O46_7 H29_7 1_555 1_555
O46_7 H30_7 1_555 1_555
O58_7 H31_7 1_555 1_555
C8_8 C9_8 1_555 1_555
C9_8 H4_8 1_555 1_555
C10_8 C9_8 1_555 1_555
H5_8 C10_8 1_555 1_555
C13_8 C8_8 1_555 1_555
O66_4 C13_8 1_555 1_555
C13_8 O60_8 1_555 1_555
C20_8 O39_8 1_555 1_555
W3_8 O2_8 1_555 1_555
W4_8 O2_8 1_555 1_555
W7_8 O3_8 1_555 1_555
W8_8 O3_8 1_555 1_555
W9_8 O2_8 1_555 1_555
O5_8 W4_8 1_555 1_555
O6_8 W1_8 1_555 1_555
O9_8 W4_8 1_555 1_555
O11_8 W4_8 1_555 1_555
O18_7 W9_8 1_555 1_555
O20_8 W7_8 1_555 1_555
O21_8 W3_8 1_555 1_555
O64_4 W3_8 1_555 1_555
O28_8 W7_8 1_555 1_555
O29_8 W4_8 1_555 1_555
O31_8 W8_8 1_555 1_555
O34_8 W7_8 1_555 1_555
O36_7 W1_8 1_555 1_555
O37_8 W9_8 1_555 1_555
O65_3 W8_8 1_555 1_555
O50_8 W3_8 1_555 1_555
O54_8 W3_8 1_555 1_555
O57_8 W1_8 1_555 1_555
W3_8 O6_8 1_555 1_555
W4_8 O54_8 1_555 1_555
W7_8 O11_8 1_555 1_555
W7_8 O45_8 1_555 1_555
W8_8 O21_8 1_555 1_555
W8_8 O28_8 1_555 1_555
W8_8 O57_8 1_555 1_555
W9_8 O9_8 1_555 1_555
W9_8 O50_8 1_555 1_555
O56_8 H32_8 1_555 1_555
Pr4_3 N2_8 1_555 1_555
H6_8 C11_8 1_555 1_555
C12_8 N2_8 1_555 1_555
C14_8 C12_8 1_555 1_555
O14_8 Pr4_3 1_555 1_555
O38_8 Pr4_3 1_555 1_555
O43_8 Pr4_3 1_555 1_555
O58_8 C14_8 1_555 1_555
C11_8 C12_8 1_555 1_555
C14_8 O43_8 1_555 1_555
O10_8 H13_8 1_555 1_555
O10_8 H14_8 1_555 1_555
O38_8 H19_8 1_555 1_555
O38_8 H20_8 1_555 1_555
O44_8 H23_8 1_555 1_555
O44_8 H24_8 1_555 1_555
O46_8 H29_8 1_555 1_555
O46_8 H30_8 1_555 1_555
O58_8 H31_8 1_555 1_555
W2_8 O1_8 1_555 1_555
W5_8 O12_8 1_555 1_555
W6_8 O4_8 1_555 1_555
W11_8 O1_8 1_555 1_555
W12_8 O12_8 1_555 1_555
Pr6_4 N1_8 1_555 1_555
N1_8 C1_8 1_555 1_555
C1_8 C2_8 1_555 1_555
C2_8 H1_8 1_555 1_555
C3_8 C2_8 1_555 1_555
H2_8 C3_8 1_555 1_555
C4_8 C3_8 1_555 1_555
H3_8 C4_8 1_555 1_555
C5_8 N1_8 1_555 1_555
C6_8 C1_8 1_555 1_555
C7_8 C5_8 1_555 1_555
C15_8 N3_8 1_555 1_555
C16_8 C15_8 1_555 1_555
C17_8 C16_8 1_555 1_555
H8_8 C17_8 1_555 1_555
C18_8 C17_8 1_555 1_555
H9_8 C18_8 1_555 1_555
C19_8 N3_8 1_555 1_555
C21_8 C19_8 1_555 1_555
O4_8 W11_8 1_555 1_555
O7_8 Pr6_4 1_555 1_555
O8_8 C6_8 1_555 1_555
O13_8 Pr7_2 1_555 1_555
O15_8 W11_8 1_555 1_555
O16_8 W12_8 1_555 1_555
O63_2 W2_8 1_555 1_555
O22_8 Pr7_2 1_555 1_555
O23_8 W2_8 1_555 1_555
O25_8 W10_8 1_555 1_555
O26_8 W6_8 1_555 1_555
O27_8 W10_8 1_555 1_555
O30_8 W5_8 1_555 1_555
O33_8 W6_8 1_555 1_555
O35_8 W6_8 1_555 1_555
O40_8 Pr6_4 1_555 1_555
O41_8 Pr7_2 1_555 1_555
O42_8 W5_8 1_555 1_555
O48_8 Pr6_4 1_555 1_555
O49_8 Pr6_4 1_555 1_555
O51_8 Pr7_2 1_555 1_555
O53_8 W2_8 1_555 1_555
O55_8 Pr7_2 1_555 1_555
O59_8 W2_8 1_555 1_555
O61_8 W5_8 1_555 1_555
O62_8 Pr6_4 1_555 1_555
W2_8 O19_8 1_555 1_555
W6_8 O30_8 1_555 1_555
W6_8 O61_8 1_555 1_555
W10_8 O23_8 1_555 1_555
W11_8 O32_8 1_555 1_555
W11_8 O53_8 1_555 1_555
W12_8 O27_8 1_555 1_555
W12_8 O35_8 1_555 1_555
W12_8 O59_8 1_555 1_555
W12_8 O61_8 1_555 1_555
Pr6_4 O33_8 1_555 1_555
C4_8 C5_8 1_555 1_555
C6_8 O49_8 1_555 1_555
C7_8 O51_8 1_555 1_555
C7_8 O62_8 1_555 1_555
C18_8 C19_8 1_555 1_555
C21_8 O13_8 1_555 1_555
O8_8 H10_8 1_555 1_555
O7_8 H11_8 1_555 1_555
O7_8 H12_8 1_555 1_555
O40_8 H15_8 1_555 1_555
O40_8 H16_8 1_555 1_555
O22_8 H17_8 1_555 1_555
O22_8 H18_8 1_555 1_555
O55_8 H25_8 1_555 1_555
O55_8 H26_8 1_555 1_555
O41_8 H27_8 1_555 1_555
O41_8 H28_8 1_555 1_555

#END
