
###############################################################################
#
# This file contains modified crystal structure data generated from the
# MOF subset of the Cambridge Structural Database (CSD) v543 
# hosted by the Cambridge Crystallographic Data Centre (CCDC).
#
# This work is licensed under the Creative Commons
# Attribution-NonCommercial-ShareAlike 4.0 International License.
# To view a copy of this license, visit
# http://creativecommons.org/licenses/by-nc-sa/4.0/
# or send a letter to
# Creative Commons, PO Box 1866, Mountain View, CA 94042, USA.
#
# CIF created using the CSD Python API on 29 September 2022
# The structure has been converted into the P1 space group
# The structure has a 3D framework
# The original CSD entry DUYRAR is in the orthorhombic crystal system
# The framework has been calculated to contain at least 10.0% void space
# The void calculation uses a probe of radius 1.32A, grid spacing 0.4
# H atom positions have been added when not included in the experimental data
#
###############################################################################

data_DUYRAR
_chemical_formula_moiety         '(C168 H256 N24 Nd24 O496 W96)n'
_symmetry_cell_setting           triclinic
_symmetry_space_group_name_H-M   'P 1'
_symmetry_Int_Tables_number      1
_space_group_name_Hall           'P 1'
loop_
_symmetry_equiv_pos_site_id
_symmetry_equiv_pos_as_xyz
1 x,y,z
_cell_length_a                   23.426(5)
_cell_length_b                   20.471(5)
_cell_length_c                   29.406(5)
_cell_angle_alpha                90
_cell_angle_beta                 90
_cell_angle_gamma                90
_cell_volume                     14101.8
loop_
_atom_site_label
_atom_site_type_symbol
_atom_site_fract_x
_atom_site_fract_y
_atom_site_fract_z
W1 W 0.59850(2) 0.12968(3) 0.631210(17)
W2 W 0.47736(2) 0.06572(3) 0.600480(18)
W3 W 0.35954(2) 0.18042(2) 0.575770(17)
W4 W 0.37150(2) 0.33897(3) 0.592460(18)
W5 W 0.51228(2) 0.40302(3) 0.628130(18)
W6 W 0.40323(3) 0.15168(3) 0.694840(17)
W7 W 0.57757(2) 0.32557(3) 0.546920(18)
W8 W 0.42417(3) 0.30996(3) 0.709640(18)
W9 W 0.55392(2) 0.14939(3) 0.527720(17)
W10 W 0.52845(3) 0.20759(3) 0.727600(18)
W11 W 0.43725(2) 0.26878(3) 0.505800(17)
W12 W 0.61955(2) 0.30648(3) 0.651230(18)
Nd1 Nd 0.53228(3) 0.59056(3) 0.68263(2)
Nd2 Nd 0.19389(3) 0.12139(4) 0.55194(3)
Nd3 Nd 0.77140(3) 0.49314(4) 0.64459(2)
N1 N 0.5534(5) 0.4954(5) 0.7388(3)
N2 N 0.5183(5) 0.7031(6) 0.6460(4)
C1 C 0.2344(7) 0.2722(8) 0.5035(6)
C2 C 0.2574(8) 0.3180(8) 0.4748(6)
H1 H 0.2580 0.3621 0.4823
C3 C 0.2794(8) 0.2961(8) 0.4347(6)
H2 H 0.2960 0.3258 0.4147
C4 C 0.2774(7) 0.2322(8) 0.4234(6)
H3 H 0.2908 0.2179 0.3954
C5 C 0.2542(7) 0.1869(8) 0.4556(5)
C6 C 0.2113(8) 0.2880(8) 0.5489(6)
C7 C 0.2508(6) 0.1151(8) 0.4466(5)
C8 C 0.4705(7) 0.7146(7) 0.6224(5)
C9 C 0.4585(7) 0.7732(7) 0.6014(5)
H4 H 0.4252 0.7786 0.5846
C10 C 0.4982(7) 0.8254(8) 0.6060(5)
H5 H 0.4907 0.8662 0.5936
C11 C 0.5488(7) 0.8137(7) 0.6297(5)
H6 H 0.5765 0.8459 0.6327
C12 C 0.5563(7) 0.7506(7) 0.6492(5)
C13 C 0.4334(7) 0.6558(7) 0.6177(5)
C14 C 0.6104(7) 0.7272(7) 0.6703(5)
C15 C 0.6044(6) 0.4664(7) 0.7393(4)
C16 C 0.6158(7) 0.4127(7) 0.7670(5)
H7 H 0.6514 0.3926 0.7665
C17 C 0.5726(7) 0.3899(8) 0.7953(5)
H8 H 0.5794 0.3549 0.8147
C18 C 0.5206(6) 0.4190(7) 0.7946(5)
H9 H 0.4912 0.4041 0.8132
C19 C 0.5121(6) 0.4715(7) 0.7655(4)
C20 C 0.4556(6) 0.5039(7) 0.7577(4)
C21 C 0.6447(6) 0.4936(6) 0.7052(4)
O1 O 0.5370(4) 0.3025(4) 0.6109(3)
O2 O 0.4293(4) 0.2528(4) 0.5807(3)
O3 O 0.4676(4) 0.2234(4) 0.6741(3)
O4 O 0.5225(4) 0.1608(4) 0.5991(3)
O5 O 0.2157(6) 0.1088(6) 0.6341(4)
O6 O 0.8095(4) 0.5154(5) 0.7239(4)
O7 O 0.3548(4) 0.0993(4) 0.7191(3)
O8 O 0.5120(4) 0.0724(4) 0.5396(3)
O9 O 0.6136(5) 0.6713(5) 0.6835(4)
O10 O 0.6940(5) 0.4698(5) 0.7009(3)
O11 O 0.4473(5) 0.6048(5) 0.6368(3)
O12 O 0.6847(4) 0.3177(5) 0.6773(3)
O13 O 0.4298(4) 0.2867(5) 0.4493(3)
O14 O 0.5848(4) 0.1277(5) 0.4777(3)
O15 O 0.6574(4) 0.0829(5) 0.6480(3)
O16 O 0.2967(4) 0.1399(4) 0.5643(3)
O17 O 0.5866(4) 0.2371(4) 0.5362(3)
O18 O 0.3227(4) 0.4017(4) 0.5918(3)
O19 O 0.3774(4) 0.2318(4) 0.7210(3)
O20 O 0.7863(5) 0.5405(5) 0.5672(3)
O22 O 0.4429(4) 0.3894(4) 0.6002(3)
O23 O 0.5625(5) 0.1884(5) 0.7779(3)
O24 O 0.3890(4) 0.3601(5) 0.7459(3)
O25 O 0.4157(5) 0.4849(5) 0.7865(3)
O26 O 0.6254(4) 0.5393(5) 0.6804(3)
O27 O 0.3789(4) 0.3215(4) 0.6556(3)
O28 O 0.4792(4) 0.2756(4) 0.7515(3)
O29 O 0.4889(4) 0.1959(4) 0.5060(3)
O30 O 0.2408(5) 0.0126(5) 0.5647(4)
O31 O 0.6405(4) 0.3269(4) 0.5902(3)
O32 O 0.6508(5) 0.7703(5) 0.6757(4)
O33 O 0.6161(4) 0.3585(5) 0.5016(3)
O34 O 0.5768(4) 0.2687(4) 0.7018(3)
O35 O 0.3868(5) 0.6626(5) 0.5941(4)
O36 O 0.5603(4) 0.1447(4) 0.6883(3)
O37 O 0.5717(4) 0.5925(5) 0.6004(3)
O38 O 0.4135(4) 0.1144(4) 0.5726(3)
O39 O 0.3621(4) 0.1741(4) 0.6394(3)
O40 O 0.1219(5) 0.0317(5) 0.5569(4)
O41 O 0.5094(4) 0.4850(4) 0.6432(3)
O42 O 0.5043(4) 0.3205(5) 0.5192(3)
O43 O 0.4489(4) 0.5427(5) 0.7275(3)
O44 O 0.4637(4) 0.1451(4) 0.7396(3)
O45 O 0.7253(5) 0.6003(5) 0.6602(4)
O46 O 0.2668(5) 0.0964(5) 0.4085(4)
O47 O 0.5494(4) 0.0486(4) 0.6250(3)
O48 O 0.7890(5) 0.3895(5) 0.6905(3)
O49 O 0.3754(4) 0.2079(4) 0.5146(3)
O50 O 0.4439(4) 0.0931(4) 0.6568(3)
O51 O 0.6750(5) 0.4920(6) 0.6020(4)
O52 O 0.6269(4) 0.2137(4) 0.6341(3)
O53 O 0.8695(4) 0.4513(5) 0.6240(3)
O54 O 0.3242(4) 0.2663(4) 0.5843(3)
O55 O 0.3898(4) 0.3386(4) 0.5278(3)
O56 O 0.5539(4) 0.4116(4) 0.5729(3)
O57 O 0.4781(4) 0.3650(4) 0.6828(3)
O58 O 0.5867(4) 0.3882(4) 0.6603(3)
O59 O 0.6155(4) 0.1196(4) 0.5665(3)
O60 O 0.1936(5) 0.2462(5) 0.5737(4)
O61 O 0.2320(5) 0.0806(5) 0.4778(3)
O62 O 0.2091(5) 0.3505(6) 0.5576(4)
N3 N 0.2325(5) 0.2080(6) 0.4945(3)
Nd4 Nd 0.46772(3) 0.09056(3) 0.81737(2)
Nd5 Nd 0.69389(3) 0.37861(4) 0.44806(3)
Nd6 Nd 0.30611(3) 0.62139(4) 0.55194(3)
Nd8 Nd 0.27140(3) 0.00686(4) 0.35541(2)
O63 O 0.8426(4) 0.5829(5) 0.6480(3)
O64 O 0.1161(4) 0.1415(5) 0.4984(3)
O65 O 0.1132(5) 0.1626(5) 0.5941(4)
O66 O 0.5363(4) 0.6451(4) 0.7604(3)
O67 O 0.7668(5) 0.4036(5) 0.5915(4)
H10 H 0.231806 0.150266 0.646034
H11 H 0.180126 0.0980266 0.650861
H12 H 0.827121 0.536296 0.558585
H13 H 0.762317 0.516659 0.544843
H14 H 0.807569 0.474756 0.742268
H15 H 0.849762 0.530283 0.721852
H16 H 0.87938 0.413757 0.643883
H17 H 0.869703 0.437 0.591733
H18 H 0.6369 0.806104 0.695611
H19 H 0.657408 0.536081 0.603489
H20 H 0.681426 0.479816 0.569717
H21 H 0.0918401 0.0438436 0.579158
H22 H 0.104291 0.024755 0.526566
H25 H 0.184273 0.372389 0.534863
H26 H 0.427819 0.495331 0.818034
H27 H 0.755162 0.633794 0.665744
H28 H 0.701807 0.613394 0.633611
H29 H 0.765156 0.390292 0.718414
H30 H 0.778769 0.350774 0.671869
H31 H 0.557487 0.553708 0.583582
H32 H 0.558664 0.632888 0.584845
O21 O 0.4517(4) 0.9881(4) 0.5948(3)
Nd7 Nd 0.72860(3) 0.99314(4) 0.64459(2)
H23 H 0.217267 0.986219 0.585951
H24 H 0.244338 0.989233 0.535242
W2_2 W 0.02264(2) 0.93428(3) 0.100480(18)
W3_2 W 0.14046(2) 0.81958(2) 0.075770(17)
W4_2 W 0.12850(2) 0.66103(3) 0.092460(18)
W6_2 W 0.09677(3) 0.84832(3) 0.194840(17)
W8_2 W 0.07583(3) 0.69004(3) 0.209640(18)
W11_2 W 0.06275(2) 0.73122(3) 0.005800(17)
Nd2_2 Nd 0.30611(3) 0.87861(4) 0.05194(3)
C1_2 C 0.2656(7) 0.7278(8) 0.0035(6)
C6_2 C 0.2887(8) 0.7120(8) 0.0489(6)
C8_2 C 0.0295(7) 0.2854(7) 0.1224(5)
C9_2 C 0.0415(7) 0.2268(7) 0.1014(5)
H4_2 H 0.0748 0.2214 0.0846
C10_2 C 0.0018(7) 0.1746(8) 0.1060(5)
H5_2 H 0.0093 0.1338 0.0936
C13_2 C 0.0666(7) 0.3442(7) 0.1177(5)
H9_2 H 0.0088 0.5959 0.3132
C20_2 C 0.0444(6) 0.4961(7) 0.2577(4)
O2_2 O 0.0707(4) 0.7472(4) 0.0807(3)
O3_2 O 0.0324(4) 0.7766(4) 0.1741(3)
O5_2 O 0.2843(6) 0.8912(6) 0.1341(4)
O7_2 O 0.1452(4) 0.9007(4) 0.2191(3)
O11_2 O 0.0527(5) 0.3952(5) 0.1368(3)
O16_2 O 0.2033(4) 0.8601(4) 0.0643(3)
O18_2 O 0.1773(4) 0.5983(4) 0.0918(3)
O19_2 O 0.1226(4) 0.7682(4) 0.2210(3)
O22_2 O 0.0571(4) 0.6106(4) 0.1002(3)
O24_2 O 0.1110(4) 0.6399(5) 0.2459(3)
O25_2 O 0.0843(5) 0.5151(5) 0.2865(3)
O27_2 O 0.1211(4) 0.6785(4) 0.1556(3)
O28_2 O 0.0208(4) 0.7244(4) 0.2515(3)
O29_2 O 0.0111(4) 0.8041(4) 0.0060(3)
O30_2 O 0.2592(5) 0.9874(5) 0.0647(4)
O35_2 O 0.1132(5) 0.3374(5) 0.0941(4)
O38_2 O 0.0865(4) 0.8856(4) 0.0726(3)
O39_2 O 0.1379(4) 0.8259(4) 0.1394(3)
O40_2 O 0.3781(5) 0.9683(5) 0.0569(4)
O43_2 O 0.0511(4) 0.4573(5) 0.2275(3)
O44_2 O 0.0363(4) 0.8549(4) 0.2396(3)
O49_2 O 0.1246(4) 0.7921(4) 0.0146(3)
O50_2 O 0.0561(4) 0.9069(4) 0.1568(3)
O54_2 O 0.1758(4) 0.7337(4) 0.0843(3)
O55_2 O 0.1102(4) 0.6614(4) 0.0278(3)
O57_2 O 0.0219(4) 0.6350(4) 0.1828(3)
O60_2 O 0.3064(5) 0.7538(5) 0.0737(4)
O62_2 O 0.2909(5) 0.6495(6) 0.0576(4)
Nd4_2 Nd 0.03228(3) 0.90944(3) 0.31737(2)
Nd6_2 Nd 0.19389(3) 0.37861(4) 0.05194(3)
O65_2 O 0.3868(5) 0.8374(5) 0.0941(4)
H10_2 H 0.268194 0.849734 0.146034
H11_2 H 0.319874 0.901973 0.150861
H21_2 H 0.40816 0.956156 0.0791576
H22_2 H 0.395709 0.975245 0.0265659
H25_2 H 0.315727 0.627611 0.0348631
H26_2 H 0.0721808 0.504669 0.318034
C2_2 C 0.2426(8) 0.6820(8) 0.9748(6)
H1_2 H 0.2420 0.6379 0.9823
C3_2 C 0.2206(8) 0.7039(8) 0.9347(6)
H2_2 H 0.2040 0.6742 0.9147
C4_2 C 0.2226(7) 0.7678(8) 0.9234(6)
H3_2 H 0.2092 0.7821 0.8954
C5_2 C 0.2458(7) 0.8131(8) 0.9556(5)
C7_2 C 0.2492(6) 0.8849(8) 0.9466(5)
O13_2 O 0.0702(4) 0.7133(5) 0.9493(3)
O46_2 O 0.2332(5) 0.9036(5) 0.9085(4)
O61_2 O 0.2680(5) 0.9194(5) 0.9778(3)
N3_2 N 0.2675(5) 0.7920(6) 0.9945(3)
Nd8_2 Nd 0.22860(3) 0.99314(4) 0.85541(2)
O64_2 O 0.3839(4) 0.8585(5) 0.9984(3)
Nd7_2 Nd 0.77140(3) 0.00686(4) 0.14459(2)
W1_2 W 0.90150(2) 0.87032(3) 0.131210(17)
W5_2 W 0.98772(2) 0.59698(3) 0.128130(18)
W7_2 W 0.92243(2) 0.67443(3) 0.046920(18)
W9_2 W 0.94608(2) 0.85061(3) 0.027720(17)
W10_2 W 0.97155(3) 0.79241(3) 0.227600(18)
W12_2 W 0.88045(2) 0.69352(3) 0.151230(18)
Nd1_2 Nd 0.96772(3) 0.40944(3) 0.18263(2)
Nd3_2 Nd 0.72860(3) 0.50686(4) 0.14459(2)
N1_2 N 0.9466(5) 0.5046(5) 0.2388(3)
N2_2 N 0.9817(5) 0.2969(6) 0.1460(4)
C11_2 C 0.9512(7) 0.1863(7) 0.1297(5)
H6_2 H 0.9235 0.1541 0.1327
C12_2 C 0.9437(7) 0.2494(7) 0.1492(5)
C14_2 C 0.8896(7) 0.2728(7) 0.1703(5)
C15_2 C 0.8956(6) 0.5336(7) 0.2393(4)
C16_2 C 0.8842(7) 0.5873(7) 0.2670(5)
H7_2 H 0.8486 0.6074 0.2665
C17_2 C 0.9274(7) 0.6101(8) 0.2953(5)
H8_2 H 0.9206 0.6451 0.3147
C18_2 C 0.9794(6) 0.5810(7) 0.2946(5)
C19_2 C 0.9879(6) 0.5285(7) 0.2655(4)
C21_2 C 0.8553(6) 0.5064(6) 0.2052(4)
O1_2 O 0.9630(4) 0.6975(4) 0.1109(3)
O4_2 O 0.9775(4) 0.8392(4) 0.0991(3)
O6_2 O 0.6905(4) 0.4846(5) 0.2239(4)
O8_2 O 0.9880(4) 0.9276(4) 0.0396(3)
O9_2 O 0.8864(5) 0.3287(5) 0.1835(4)
O10_2 O 0.8060(5) 0.5302(5) 0.2009(3)
O12_2 O 0.8153(4) 0.6823(5) 0.1773(3)
O15_2 O 0.8426(4) 0.9171(5) 0.1480(3)
O17_2 O 0.9134(4) 0.7629(4) 0.0362(3)
O20_2 O 0.7137(5) 0.4595(5) 0.0672(3)
O23_2 O 0.9375(5) 0.8116(5) 0.2779(3)
O26_2 O 0.8746(4) 0.4607(5) 0.1804(3)
O31_2 O 0.8595(4) 0.6731(4) 0.0902(3)
O32_2 O 0.8492(5) 0.2297(5) 0.1757(4)
O33_2 O 0.8839(4) 0.6415(5) 0.0016(3)
O34_2 O 0.9232(4) 0.7313(4) 0.2018(3)
O36_2 O 0.9397(4) 0.8553(4) 0.1883(3)
O37_2 O 0.9283(4) 0.4075(5) 0.1004(3)
O41_2 O 0.9906(4) 0.5150(4) 0.1432(3)
O42_2 O 0.9957(4) 0.6795(5) 0.0192(3)
O45_2 O 0.7747(5) 0.3997(5) 0.1602(4)
O47_2 O 0.9506(4) 0.9514(4) 0.1250(3)
O48_2 O 0.7110(5) 0.6105(5) 0.1905(3)
O51_2 O 0.8250(5) 0.5080(6) 0.1020(4)
O52_2 O 0.8731(4) 0.7863(4) 0.1341(3)
O53_2 O 0.6305(4) 0.5487(5) 0.1240(3)
O56_2 O 0.9461(4) 0.5884(4) 0.0729(3)
O58_2 O 0.9133(4) 0.6118(4) 0.1603(3)
O59_2 O 0.8845(4) 0.8804(4) 0.0665(3)
O63_2 O 0.6574(4) 0.4171(5) 0.1480(3)
O66_2 O 0.9637(4) 0.3549(4) 0.2604(3)
O67_2 O 0.7332(5) 0.5964(5) 0.0915(4)
H12_2 H 0.672879 0.463704 0.0585846
H13_2 H 0.737683 0.483341 0.0448427
H14_2 H 0.692431 0.525244 0.242268
H15_2 H 0.650238 0.469717 0.221852
H16_2 H 0.62062 0.586243 0.143883
H17_2 H 0.630297 0.563 0.0917326
H18_2 H 0.8631 0.193896 0.195611
H19_2 H 0.842592 0.463919 0.103489
H20_2 H 0.818574 0.520184 0.0697174
H27_2 H 0.744838 0.366206 0.165744
H28_2 H 0.798193 0.386606 0.133611
H29_2 H 0.734844 0.609708 0.218414
H30_2 H 0.721231 0.649226 0.171869
H31_2 H 0.942513 0.446292 0.083582
H32_2 H 0.941336 0.367112 0.0848453
O14_2 O 0.9152(4) 0.8723(5) 0.9777(3)
Nd5_2 Nd 0.80611(3) 0.62139(4) 0.94806(3)
W1_3 W 0.09850(2) 0.37032(3) 0.368790(17)
W5_3 W 0.01228(2) 0.09698(3) 0.371870(18)
W7_3 W 0.07757(2) 0.17443(3) 0.453080(18)
W9_3 W 0.05392(2) 0.35061(3) 0.472280(17)
W10_3 W 0.02845(3) 0.29241(3) 0.272400(18)
W12_3 W 0.11955(2) 0.19352(3) 0.348770(18)
N1_3 N 0.0534(5) 0.0046(5) 0.2612(3)
C15_3 C 0.1044(6) 0.0336(7) 0.2607(4)
C16_3 C 0.1158(7) 0.0873(7) 0.2330(5)
H7_3 H 0.1514 0.1074 0.2335
C17_3 C 0.0726(7) 0.1101(8) 0.2047(5)
H8_3 H 0.0794 0.1451 0.1853
C18_3 C 0.0206(6) 0.0810(7) 0.2054(5)
C19_3 C 0.0121(6) 0.0285(7) 0.2345(4)
C21_3 C 0.1447(6) 0.0064(6) 0.2948(4)
O1_3 O 0.0370(4) 0.1975(4) 0.3891(3)
O4_3 O 0.0225(4) 0.3392(4) 0.4009(3)
O8_3 O 0.0120(4) 0.4276(4) 0.4604(3)
O10_3 O 0.1940(5) 0.0302(5) 0.2991(3)
O12_3 O 0.1847(4) 0.1823(5) 0.3227(3)
O14_3 O 0.0848(4) 0.3723(5) 0.5223(3)
O15_3 O 0.1574(4) 0.4171(5) 0.3520(3)
O17_3 O 0.0866(4) 0.2629(4) 0.4638(3)
O23_3 O 0.0625(5) 0.3116(5) 0.2221(3)
O31_3 O 0.1405(4) 0.1731(4) 0.4098(3)
O34_3 O 0.0768(4) 0.2313(4) 0.2982(3)
O36_3 O 0.0603(4) 0.3553(4) 0.3117(3)
O41_3 O 0.0094(4) 0.0150(4) 0.3568(3)
O42_3 O 0.0043(4) 0.1795(5) 0.4808(3)
O47_3 O 0.0494(4) 0.4514(4) 0.3750(3)
O48_3 O 0.2890(5) 0.1105(5) 0.3095(3)
O51_3 O 0.1750(5) 0.0080(6) 0.3980(4)
O52_3 O 0.1269(4) 0.2863(4) 0.3659(3)
O53_3 O 0.3695(4) 0.0487(5) 0.3760(3)
O56_3 O 0.0539(4) 0.0884(4) 0.4271(3)
O58_3 O 0.0867(4) 0.1118(4) 0.3397(3)
O59_3 O 0.1155(4) 0.3804(4) 0.4335(3)
Nd7_3 Nd 0.22860(3) 0.50686(4) 0.35541(2)
H14_3 H 0.307569 0.0252436 0.257732
H16_3 H 0.37938 0.0862425 0.356117
H17_3 H 0.369703 0.0630004 0.408267
H20_3 H 0.181426 0.0201842 0.430283
H29_3 H 0.265156 0.109708 0.281586
H30_3 H 0.278769 0.149226 0.328131
N2_3 N 0.0183(5) 0.7969(6) 0.3540(4)
C11_3 C 0.0488(7) 0.6863(7) 0.3703(5)
H6_3 H 0.0765 0.6541 0.3673
C12_3 C 0.0563(7) 0.7494(7) 0.3508(5)
C14_3 C 0.1104(7) 0.7728(7) 0.3297(5)
O6_3 O 0.3095(4) 0.9846(5) 0.2761(4)
O9_3 O 0.1136(5) 0.8287(5) 0.3165(4)
O20_3 O 0.2863(5) 0.9595(5) 0.4328(3)
O26_3 O 0.1254(4) 0.9607(5) 0.3196(3)
O32_3 O 0.1508(5) 0.7297(5) 0.3243(4)
O37_3 O 0.0717(4) 0.9075(5) 0.3996(3)
O45_3 O 0.2253(5) 0.8997(5) 0.3398(4)
O63_3 O 0.3426(4) 0.9171(5) 0.3520(3)
H12_3 H 0.327121 0.963704 0.441415
H13_3 H 0.262317 0.983341 0.455157
H15_3 H 0.349762 0.969717 0.278148
H18_3 H 0.1369 0.693896 0.304389
H19_3 H 0.157408 0.963919 0.396511
H27_3 H 0.255162 0.866206 0.334256
H28_3 H 0.201807 0.886606 0.366389
H31_3 H 0.0574875 0.946292 0.416418
H32_3 H 0.0586642 0.867112 0.415155
W2_3 W 0.97736(2) 0.43428(3) 0.399520(18)
W3_3 W 0.85954(2) 0.31958(2) 0.424230(17)
W4_3 W 0.87150(2) 0.16103(3) 0.407540(18)
W6_3 W 0.90323(3) 0.34832(3) 0.305160(17)
W8_3 W 0.92417(3) 0.19004(3) 0.290360(18)
W11_3 W 0.93725(2) 0.23122(3) 0.494200(17)
C1_3 C 0.7344(7) 0.2278(8) 0.4965(6)
C2_3 C 0.7574(8) 0.1820(8) 0.5252(6)
H1_3 H 0.7580 0.1379 0.5177
C3_3 C 0.7794(8) 0.2039(8) 0.5653(6)
H2_3 H 0.7960 0.1742 0.5853
C4_3 C 0.7774(7) 0.2678(8) 0.5766(6)
H3_3 H 0.7908 0.2821 0.6046
C5_3 C 0.7542(7) 0.3131(8) 0.5444(5)
C6_3 C 0.7113(8) 0.2120(8) 0.4511(6)
C7_3 C 0.7508(6) 0.3849(8) 0.5534(5)
H9_3 H 0.9912 0.0959 0.1868
O2_3 O 0.9293(4) 0.2472(4) 0.4193(3)
O3_3 O 0.9676(4) 0.2766(4) 0.3259(3)
O5_3 O 0.7157(6) 0.3912(6) 0.3659(4)
O7_3 O 0.8548(4) 0.4007(4) 0.2809(3)
O13_3 O 0.9298(4) 0.2133(5) 0.5507(3)
O16_3 O 0.7967(4) 0.3601(4) 0.4357(3)
O18_3 O 0.8227(4) 0.0983(4) 0.4082(3)
O19_3 O 0.8774(4) 0.2682(4) 0.2790(3)
O21_2 O 0.9517(4) 0.5119(4) 0.4052(3)
O22_3 O 0.9429(4) 0.1106(4) 0.3998(3)
O24_3 O 0.8890(4) 0.1399(5) 0.2541(3)
O25_3 O 0.9157(5) 0.0151(5) 0.2135(3)
O27_3 O 0.8789(4) 0.1785(4) 0.3444(3)
O28_3 O 0.9792(4) 0.2244(4) 0.2485(3)
O29_3 O 0.9889(4) 0.3041(4) 0.4940(3)
O30_3 O 0.7408(5) 0.4874(5) 0.4353(4)
O38_3 O 0.9135(4) 0.3856(4) 0.4274(3)
O39_3 O 0.8621(4) 0.3259(4) 0.3606(3)
O40_3 O 0.6219(5) 0.4683(5) 0.4431(4)
O49_3 O 0.8754(4) 0.2921(4) 0.4854(3)
O50_3 O 0.9439(4) 0.4069(4) 0.3432(3)
O54_3 O 0.8242(4) 0.2337(4) 0.4157(3)
O55_3 O 0.8898(4) 0.1614(4) 0.4722(3)
O57_3 O 0.9781(4) 0.1350(4) 0.3172(3)
O60_3 O 0.6936(5) 0.2538(5) 0.4263(4)
O61_3 O 0.7320(5) 0.4194(5) 0.5222(3)
O62_3 O 0.7091(5) 0.1495(6) 0.4424(4)
N3_3 N 0.7325(5) 0.2920(6) 0.5055(3)
O65_3 O 0.6132(5) 0.3374(5) 0.4059(4)
H10_3 H 0.731806 0.349734 0.353966
H11_3 H 0.680126 0.401973 0.349139
H21_3 H 0.59184 0.456156 0.420842
H22_3 H 0.604291 0.475245 0.473434
H23_2 H 0.717267 0.513781 0.414049
H24_2 H 0.744338 0.510767 0.464758
H25_3 H 0.684273 0.127611 0.465137
H26_3 H 0.927819 0.00466898 0.181966
C8_3 C 0.9705(7) 0.7854(7) 0.3776(5)
C9_3 C 0.9585(7) 0.7268(7) 0.3986(5)
H4_3 H 0.9252 0.7214 0.4154
C10_3 C 0.9982(7) 0.6746(8) 0.3940(5)
H5_3 H 0.9907 0.6338 0.4064
C13_3 C 0.9334(7) 0.8442(7) 0.3823(5)
C20_3 C 0.9556(6) 0.9961(7) 0.2423(4)
O11_3 O 0.9473(5) 0.8952(5) 0.3632(3)
O35_3 O 0.8868(5) 0.8374(5) 0.4059(4)
O43_3 O 0.9489(4) 0.9573(5) 0.2725(3)
Nd6_3 Nd 0.80611(3) 0.87861(4) 0.44806(3)
N2_4 N 0.4817(5) 0.2031(6) 0.8540(4)
C8_4 C 0.5295(7) 0.2146(7) 0.8776(5)
C9_4 C 0.5415(7) 0.2732(7) 0.8986(5)
H4_4 H 0.5748 0.2786 0.9154
C10_4 C 0.5018(7) 0.3254(8) 0.8940(5)
H5_4 H 0.5093 0.3662 0.9064
C11_4 C 0.4512(7) 0.3137(7) 0.8703(5)
H6_4 H 0.4235 0.3459 0.8673
C12_4 C 0.4437(7) 0.2506(7) 0.8508(5)
C13_4 C 0.5666(7) 0.1558(7) 0.8823(5)
C14_4 C 0.3896(7) 0.2272(7) 0.8297(5)
C20_4 C 0.5444(6) 0.0039(7) 0.7423(4)
O6_4 O 0.1905(4) 0.0154(5) 0.7761(4)
O9_4 O 0.3864(5) 0.1713(5) 0.8165(4)
O11_4 O 0.5527(5) 0.1048(5) 0.8632(3)
O20_4 O 0.2137(5) 0.0405(5) 0.9328(3)
O26_4 O 0.3746(4) 0.0393(5) 0.8196(3)
O32_4 O 0.3492(5) 0.2703(5) 0.8243(4)
O35_4 O 0.6132(5) 0.1626(5) 0.9059(4)
O37_4 O 0.4283(4) 0.0925(5) 0.8996(3)
O43_4 O 0.5511(4) 0.0427(5) 0.7725(3)
O45_4 O 0.2747(5) 0.1003(5) 0.8398(4)
Nd6_4 Nd 0.69389(3) 0.12139(4) 0.94806(3)
O63_4 O 0.1574(4) 0.0829(5) 0.8520(3)
H12_4 H 0.172879 0.0362956 0.941415
H13_4 H 0.237683 0.0166591 0.955157
H15_4 H 0.150238 0.0302828 0.778148
H18_4 H 0.3631 0.306104 0.804389
H19_4 H 0.342592 0.0360809 0.896511
H27_4 H 0.244838 0.133794 0.834256
H28_4 H 0.298193 0.113394 0.866389
H31_4 H 0.442513 0.0537078 0.916418
H32_4 H 0.441336 0.132888 0.915155
C2_4 C 0.7426(8) 0.8180(8) 0.0252(6)
H1_4 H 0.7420 0.8621 0.0177
C3_4 C 0.7206(8) 0.7961(8) 0.0653(6)
H2_4 H 0.7040 0.8258 0.0853
C4_4 C 0.7226(7) 0.7322(8) 0.0766(6)
H3_4 H 0.7092 0.7179 0.1046
C5_4 C 0.7458(7) 0.6869(8) 0.0444(5)
C7_4 C 0.7492(6) 0.6151(8) 0.0534(5)
O13_4 O 0.5702(4) 0.7867(5) 0.0507(3)
O14_4 O 0.4152(4) 0.6277(5) 0.0223(3)
O61_4 O 0.7680(5) 0.5806(5) 0.0222(3)
N3_4 N 0.7675(5) 0.7080(6) 0.0055(3)
W1_4 W 0.40150(2) 0.62968(3) 0.868790(17)
W2_4 W 0.52264(2) 0.56572(3) 0.899520(18)
W3_4 W 0.64046(2) 0.68042(2) 0.924230(17)
W4_4 W 0.62850(2) 0.83897(3) 0.907540(18)
W5_4 W 0.48772(2) 0.90302(3) 0.871870(18)
W6_4 W 0.59677(3) 0.65168(3) 0.805160(17)
W7_4 W 0.42243(2) 0.82557(3) 0.953080(18)
W8_4 W 0.57583(3) 0.80996(3) 0.790360(18)
W9_4 W 0.44608(2) 0.64939(3) 0.972280(17)
W10_4 W 0.47155(3) 0.70759(3) 0.772400(18)
W11_4 W 0.56275(2) 0.76878(3) 0.994200(17)
W12_4 W 0.38045(2) 0.80648(3) 0.848770(18)
N1_4 N 0.4466(5) 0.9954(5) 0.7612(3)
C1_4 C 0.7656(7) 0.7722(8) 0.9965(6)
C6_4 C 0.7887(8) 0.7880(8) 0.9511(6)
C15_4 C 0.3956(6) 0.9664(7) 0.7607(4)
C16_4 C 0.3842(7) 0.9127(7) 0.7330(5)
H7_4 H 0.3486 0.8926 0.7335
C17_4 C 0.4274(7) 0.8899(8) 0.7047(5)
H8_4 H 0.4206 0.8549 0.6853
C18_4 C 0.4794(6) 0.9190(7) 0.7054(5)
H9_4 H 0.5088 0.9041 0.6868
C19_4 C 0.4879(6) 0.9715(7) 0.7345(4)
C21_4 C 0.3553(6) 0.9936(6) 0.7948(4)
O1_4 O 0.4630(4) 0.8025(4) 0.8891(3)
O2_4 O 0.5707(4) 0.7528(4) 0.9193(3)
O3_4 O 0.5324(4) 0.7234(4) 0.8259(3)
O4_4 O 0.4775(4) 0.6608(4) 0.9009(3)
O5_4 O 0.7843(6) 0.6088(6) 0.8659(4)
O7_4 O 0.6452(4) 0.5993(4) 0.7809(3)
O8_4 O 0.4880(4) 0.5724(4) 0.9604(3)
O10_4 O 0.3060(5) 0.9698(5) 0.7991(3)
O12_4 O 0.3153(4) 0.8177(5) 0.8227(3)
O15_4 O 0.3426(4) 0.5829(5) 0.8520(3)
O16_4 O 0.7033(4) 0.6399(4) 0.9357(3)
O17_4 O 0.4134(4) 0.7371(4) 0.9638(3)
O18_4 O 0.6773(4) 0.9017(4) 0.9082(3)
O19_4 O 0.6226(4) 0.7318(4) 0.7790(3)
O21_3 O 0.5483(4) 0.4881(4) 0.9052(3)
O22_4 O 0.5571(4) 0.8894(4) 0.8998(3)
O23_4 O 0.4375(5) 0.6884(5) 0.7221(3)
O24_4 O 0.6110(4) 0.8601(5) 0.7541(3)
O25_4 O 0.5843(5) 0.9849(5) 0.7135(3)
O27_4 O 0.6211(4) 0.8215(4) 0.8444(3)
O28_4 O 0.5208(4) 0.7756(4) 0.7485(3)
O29_4 O 0.5111(4) 0.6959(4) 0.9940(3)
O30_4 O 0.7592(5) 0.5126(5) 0.9353(4)
O31_4 O 0.3595(4) 0.8269(4) 0.9098(3)
O34_4 O 0.4232(4) 0.7687(4) 0.7982(3)
O36_4 O 0.4397(4) 0.6447(4) 0.8117(3)
O38_4 O 0.5865(4) 0.6144(4) 0.9274(3)
O39_4 O 0.6379(4) 0.6741(4) 0.8606(3)
O40_4 O 0.8781(5) 0.5317(5) 0.9431(4)
O41_4 O 0.4906(4) 0.9850(4) 0.8568(3)
O42_4 O 0.4957(4) 0.8205(5) 0.9808(3)
O47_4 O 0.4506(4) 0.5486(4) 0.8750(3)
O48_4 O 0.2110(5) 0.8895(5) 0.8095(3)
O49_4 O 0.6246(4) 0.7079(4) 0.9854(3)
O50_4 O 0.5561(4) 0.5931(4) 0.8432(3)
O51_4 O 0.3250(5) 0.9920(6) 0.8980(4)
O52_4 O 0.3731(4) 0.7137(4) 0.8659(3)
O53_4 O 0.1305(4) 0.9513(5) 0.8760(3)
O54_4 O 0.6758(4) 0.7663(4) 0.9157(3)
O55_4 O 0.6102(4) 0.8386(4) 0.9722(3)
O56_4 O 0.4461(4) 0.9116(4) 0.9271(3)
O57_4 O 0.5219(4) 0.8650(4) 0.8172(3)
O58_4 O 0.4133(4) 0.8882(4) 0.8397(3)
O59_4 O 0.3845(4) 0.6196(4) 0.9335(3)
O60_4 O 0.8064(5) 0.7462(5) 0.9263(4)
O62_4 O 0.7909(5) 0.8505(6) 0.9424(4)
Nd7_4 Nd 0.27140(3) 0.49314(4) 0.85541(2)
O65_4 O 0.8868(5) 0.6626(5) 0.9059(4)
H10_4 H 0.768194 0.650266 0.853966
H11_4 H 0.819874 0.598027 0.849139
H14_4 H 0.192431 0.974756 0.757732
H16_4 H 0.12062 0.913757 0.856117
H17_4 H 0.130297 0.937 0.908267
H20_4 H 0.318574 0.979816 0.930283
H21_4 H 0.90816 0.543844 0.920842
H22_4 H 0.895709 0.524755 0.973434
H23_3 H 0.782733 0.486219 0.914049
H24_3 H 0.755662 0.489233 0.964758
H25_4 H 0.815727 0.872389 0.965137
H26_4 H 0.572181 0.995331 0.681966
H29_4 H 0.234844 0.890292 0.781586
H30_4 H 0.221231 0.850774 0.828131
O21_4 O 0.5483(4) 0.0119(4) 0.4052(3)
H23_4 H 0.782733 0.0137805 0.414049
H24_4 H 0.755662 0.0107667 0.464758
W1_5 W 0.40150(2) 0.87032(3) 0.368790(17)
W2_5 W 0.52264(2) 0.93428(3) 0.399520(18)
W3_5 W 0.64046(2) 0.81958(2) 0.424230(17)
W4_5 W 0.62850(2) 0.66103(3) 0.407540(18)
W5_5 W 0.48772(2) 0.59698(3) 0.371870(18)
W6_5 W 0.59677(3) 0.84832(3) 0.305160(17)
W7_5 W 0.42243(2) 0.67443(3) 0.453080(18)
W8_5 W 0.57583(3) 0.69004(3) 0.290360(18)
W9_5 W 0.44608(2) 0.85061(3) 0.472280(17)
W10_5 W 0.47155(3) 0.79241(3) 0.272400(18)
W11_5 W 0.56275(2) 0.73122(3) 0.494200(17)
W12_5 W 0.38045(2) 0.69352(3) 0.348770(18)
Nd1_3 Nd 0.46772(3) 0.40944(3) 0.31737(2)
N1_5 N 0.4466(5) 0.5046(5) 0.2612(3)
N2_5 N 0.4817(5) 0.2969(6) 0.3540(4)
C1_5 C 0.7656(7) 0.7278(8) 0.4965(6)
C2_5 C 0.7426(8) 0.6820(8) 0.5252(6)
H1_5 H 0.7420 0.6379 0.5177
C3_5 C 0.7206(8) 0.7039(8) 0.5653(6)
H2_5 H 0.7040 0.6742 0.5853
C4_5 C 0.7226(7) 0.7678(8) 0.5766(6)
H3_5 H 0.7092 0.7821 0.6046
C5_5 C 0.7458(7) 0.8131(8) 0.5444(5)
C6_5 C 0.7887(8) 0.7120(8) 0.4511(6)
C7_5 C 0.7492(6) 0.8849(8) 0.5534(5)
C8_5 C 0.5295(7) 0.2854(7) 0.3776(5)
C9_5 C 0.5415(7) 0.2268(7) 0.3986(5)
H4_5 H 0.5748 0.2214 0.4154
C10_5 C 0.5018(7) 0.1746(8) 0.3940(5)
H5_5 H 0.5093 0.1338 0.4064
C11_5 C 0.4512(7) 0.1863(7) 0.3703(5)
H6_5 H 0.4235 0.1541 0.3673
C12_5 C 0.4437(7) 0.2494(7) 0.3508(5)
C13_5 C 0.5666(7) 0.3442(7) 0.3823(5)
C14_5 C 0.3896(7) 0.2728(7) 0.3297(5)
C15_5 C 0.3956(6) 0.5336(7) 0.2607(4)
C16_5 C 0.3842(7) 0.5873(7) 0.2330(5)
H7_5 H 0.3486 0.6074 0.2335
C17_5 C 0.4274(7) 0.6101(8) 0.2047(5)
H8_5 H 0.4206 0.6451 0.1853
C18_5 C 0.4794(6) 0.5810(7) 0.2054(5)
H9_5 H 0.5088 0.5959 0.1868
C19_5 C 0.4879(6) 0.5285(7) 0.2345(4)
C20_5 C 0.5444(6) 0.4961(7) 0.2423(4)
C21_5 C 0.3553(6) 0.5064(6) 0.2948(4)
O1_5 O 0.4630(4) 0.6975(4) 0.3891(3)
O2_5 O 0.5707(4) 0.7472(4) 0.4193(3)
O3_5 O 0.5324(4) 0.7766(4) 0.3259(3)
O4_5 O 0.4775(4) 0.8392(4) 0.4009(3)
O5_5 O 0.7843(6) 0.8912(6) 0.3659(4)
O6_5 O 0.1905(4) 0.4846(5) 0.2761(4)
O7_5 O 0.6452(4) 0.9007(4) 0.2809(3)
O8_5 O 0.4880(4) 0.9276(4) 0.4604(3)
O9_5 O 0.3864(5) 0.3287(5) 0.3165(4)
O10_5 O 0.3060(5) 0.5302(5) 0.2991(3)
O11_5 O 0.5527(5) 0.3952(5) 0.3632(3)
O12_5 O 0.3153(4) 0.6823(5) 0.3227(3)
O13_5 O 0.5702(4) 0.7133(5) 0.5507(3)
O14_5 O 0.4152(4) 0.8723(5) 0.5223(3)
O16_5 O 0.7033(4) 0.8601(4) 0.4357(3)
O17_5 O 0.4134(4) 0.7629(4) 0.4638(3)
O18_5 O 0.6773(4) 0.5983(4) 0.4082(3)
O19_5 O 0.6226(4) 0.7682(4) 0.2790(3)
O20_5 O 0.2137(5) 0.4595(5) 0.4328(3)
O22_5 O 0.5571(4) 0.6106(4) 0.3998(3)
O23_5 O 0.4375(5) 0.8116(5) 0.2221(3)
O24_5 O 0.6110(4) 0.6399(5) 0.2541(3)
O25_5 O 0.5843(5) 0.5151(5) 0.2135(3)
O26_5 O 0.3746(4) 0.4607(5) 0.3196(3)
O27_5 O 0.6211(4) 0.6785(4) 0.3444(3)
O28_5 O 0.5208(4) 0.7244(4) 0.2485(3)
O29_5 O 0.5111(4) 0.8041(4) 0.4940(3)
O30_5 O 0.7592(5) 0.9874(5) 0.4353(4)
O31_5 O 0.3595(4) 0.6731(4) 0.4098(3)
O32_5 O 0.3492(5) 0.2297(5) 0.3243(4)
O33_3 O 0.3839(4) 0.6415(5) 0.4984(3)
O34_5 O 0.4232(4) 0.7313(4) 0.2982(3)
O36_5 O 0.4397(4) 0.8553(4) 0.3117(3)
O37_5 O 0.4283(4) 0.4075(5) 0.3996(3)
O38_5 O 0.5865(4) 0.8856(4) 0.4274(3)
O39_5 O 0.6379(4) 0.8259(4) 0.3606(3)
O40_5 O 0.8781(5) 0.9683(5) 0.4431(4)
O41_5 O 0.4906(4) 0.5150(4) 0.3568(3)
O42_5 O 0.4957(4) 0.6795(5) 0.4808(3)
O43_5 O 0.5511(4) 0.4573(5) 0.2725(3)
O44_3 O 0.5363(4) 0.8549(4) 0.2604(3)
O45_5 O 0.2747(5) 0.3997(5) 0.3398(4)
O46_3 O 0.7332(5) 0.9036(5) 0.5915(4)
O47_5 O 0.4506(4) 0.9514(4) 0.3750(3)
O48_5 O 0.2110(5) 0.6105(5) 0.3095(3)
O49_5 O 0.6246(4) 0.7921(4) 0.4854(3)
O50_5 O 0.5561(4) 0.9069(4) 0.3432(3)
O51_5 O 0.3250(5) 0.5080(6) 0.3980(4)
O52_5 O 0.3731(4) 0.7863(4) 0.3659(3)
O53_5 O 0.1305(4) 0.5487(5) 0.3760(3)
O54_5 O 0.6758(4) 0.7337(4) 0.4157(3)
O55_5 O 0.6102(4) 0.6614(4) 0.4722(3)
O56_5 O 0.4461(4) 0.5884(4) 0.4271(3)
O57_5 O 0.5219(4) 0.6350(4) 0.3172(3)
O58_5 O 0.4133(4) 0.6118(4) 0.3397(3)
O59_5 O 0.3845(4) 0.8804(4) 0.4335(3)
O60_5 O 0.8064(5) 0.7538(5) 0.4263(4)
O61_5 O 0.7680(5) 0.9194(5) 0.5222(3)
O62_5 O 0.7909(5) 0.6495(6) 0.4424(4)
N3_5 N 0.7675(5) 0.7920(6) 0.5055(3)
Nd4_3 Nd 0.53228(3) 0.90944(3) 0.18263(2)
O64_3 O 0.8839(4) 0.8585(5) 0.5016(3)
O66_3 O 0.4637(4) 0.3549(4) 0.2396(3)
O67_3 O 0.2332(5) 0.5964(5) 0.4085(4)
H10_5 H 0.768194 0.849734 0.353966
H11_5 H 0.819874 0.901973 0.349139
H12_5 H 0.172879 0.463704 0.441415
H13_5 H 0.237683 0.483341 0.455157
H14_5 H 0.192431 0.525244 0.257732
H15_5 H 0.150238 0.469717 0.278148
H16_5 H 0.12062 0.586243 0.356117
H17_5 H 0.130297 0.563 0.408267
H18_5 H 0.3631 0.193896 0.304389
H19_5 H 0.342592 0.463919 0.396511
H20_5 H 0.318574 0.520184 0.430283
H21_5 H 0.90816 0.956156 0.420842
H22_5 H 0.895709 0.975245 0.473434
H25_5 H 0.815727 0.627611 0.465137
H26_5 H 0.572181 0.504669 0.181966
H27_5 H 0.244838 0.366206 0.334256
H28_5 H 0.298193 0.386606 0.366389
H29_5 H 0.234844 0.609708 0.281586
H30_5 H 0.221231 0.649226 0.328131
H31_5 H 0.442513 0.446292 0.416418
H32_5 H 0.441336 0.367112 0.415155
O14_6 O 0.0848(4) 0.1277(5) 0.0223(3)
W1_6 W 0.09850(2) 0.12968(3) 0.868790(17)
W5_6 W 0.01228(2) 0.40302(3) 0.871870(18)
W7_6 W 0.07757(2) 0.32557(3) 0.953080(18)
W9_6 W 0.05392(2) 0.14939(3) 0.972280(17)
W10_6 W 0.02845(3) 0.20759(3) 0.772400(18)
W12_6 W 0.11955(2) 0.30648(3) 0.848770(18)
Nd1_4 Nd 0.03228(3) 0.59056(3) 0.81737(2)
N1_6 N 0.0534(5) 0.4954(5) 0.7612(3)
N2_6 N 0.0183(5) 0.7031(6) 0.8540(4)
C11_6 C 0.0488(7) 0.8137(7) 0.8703(5)
H6_6 H 0.0765 0.8459 0.8673
C12_6 C 0.0563(7) 0.7506(7) 0.8508(5)
C14_6 C 0.1104(7) 0.7272(7) 0.8297(5)
C15_6 C 0.1044(6) 0.4664(7) 0.7607(4)
C16_6 C 0.1158(7) 0.4127(7) 0.7330(5)
H7_6 H 0.1514 0.3926 0.7335
C17_6 C 0.0726(7) 0.3899(8) 0.7047(5)
H8_6 H 0.0794 0.3549 0.6853
C18_6 C 0.0206(6) 0.4190(7) 0.7054(5)
C19_6 C 0.0121(6) 0.4715(7) 0.7345(4)
C21_6 C 0.1447(6) 0.4936(6) 0.7948(4)
O1_6 O 0.0370(4) 0.3025(4) 0.8891(3)
O4_6 O 0.0225(4) 0.1608(4) 0.9009(3)
O6_6 O 0.3095(4) 0.5154(5) 0.7761(4)
O8_6 O 0.0120(4) 0.0724(4) 0.9604(3)
O9_6 O 0.1136(5) 0.6713(5) 0.8165(4)
O10_6 O 0.1940(5) 0.4698(5) 0.7991(3)
O12_6 O 0.1847(4) 0.3177(5) 0.8227(3)
O17_6 O 0.0866(4) 0.2371(4) 0.9638(3)
O20_6 O 0.2863(5) 0.5405(5) 0.9328(3)
O23_6 O 0.0625(5) 0.1884(5) 0.7221(3)
O26_6 O 0.1254(4) 0.5393(5) 0.8196(3)
O31_6 O 0.1405(4) 0.3269(4) 0.9098(3)
O32_6 O 0.1508(5) 0.7703(5) 0.8243(4)
O33_4 O 0.1161(4) 0.3585(5) 0.9984(3)
O34_6 O 0.0768(4) 0.2687(4) 0.7982(3)
O36_6 O 0.0603(4) 0.1447(4) 0.8117(3)
O37_6 O 0.0717(4) 0.5925(5) 0.8996(3)
O41_6 O 0.0094(4) 0.4850(4) 0.8568(3)
O42_6 O 0.0043(4) 0.3205(5) 0.9808(3)
O45_6 O 0.2253(5) 0.6003(5) 0.8398(4)
O47_6 O 0.0494(4) 0.0486(4) 0.8750(3)
O48_6 O 0.2890(5) 0.3895(5) 0.8095(3)
O51_6 O 0.1750(5) 0.4920(6) 0.8980(4)
O52_6 O 0.1269(4) 0.2137(4) 0.8659(3)
O53_6 O 0.3695(4) 0.4513(5) 0.8760(3)
O56_6 O 0.0539(4) 0.4116(4) 0.9271(3)
O58_6 O 0.0867(4) 0.3882(4) 0.8397(3)
O59_6 O 0.1155(4) 0.1196(4) 0.9335(3)
O66_4 O 0.0363(4) 0.6451(4) 0.7396(3)
O67_4 O 0.2668(5) 0.4036(5) 0.9085(4)
H12_6 H 0.327121 0.536296 0.941415
H13_6 H 0.262317 0.516659 0.955157
H14_6 H 0.307569 0.474756 0.757732
H15_6 H 0.349762 0.530283 0.778148
H16_6 H 0.37938 0.413757 0.856117
H17_6 H 0.369703 0.437 0.908267
H18_6 H 0.1369 0.806104 0.804389
H19_6 H 0.157408 0.536081 0.896511
H20_6 H 0.181426 0.479816 0.930283
H27_6 H 0.255162 0.633794 0.834256
H28_6 H 0.201807 0.613394 0.866389
H29_6 H 0.265156 0.390292 0.781586
H30_6 H 0.278769 0.350774 0.828131
H31_6 H 0.0574875 0.553708 0.916418
H32_6 H 0.0586642 0.632888 0.915155
C2_6 C 0.7574(8) 0.3180(8) 0.0252(6)
H1_6 H 0.7580 0.3621 0.0177
C3_6 C 0.7794(8) 0.2961(8) 0.0653(6)
H2_6 H 0.7960 0.3258 0.0853
C4_6 C 0.7774(7) 0.2322(8) 0.0766(6)
H3_6 H 0.7908 0.2179 0.1046
C5_6 C 0.7542(7) 0.1869(8) 0.0444(5)
C7_6 C 0.7508(6) 0.1151(8) 0.0534(5)
O13_6 O 0.9298(4) 0.2867(5) 0.0507(3)
O46_4 O 0.7668(5) 0.0964(5) 0.0915(4)
O61_6 O 0.7320(5) 0.0806(5) 0.0222(3)
N3_6 N 0.7325(5) 0.2080(6) 0.0055(3)
O64_4 O 0.6161(4) 0.1415(5) 0.0016(3)
W2_6 W 0.97736(2) 0.06572(3) 0.899520(18)
W3_6 W 0.85954(2) 0.18042(2) 0.924230(17)
W4_6 W 0.87150(2) 0.33897(3) 0.907540(18)
W6_6 W 0.90323(3) 0.15168(3) 0.805160(17)
W8_6 W 0.92417(3) 0.30996(3) 0.790360(18)
W11_6 W 0.93725(2) 0.26878(3) 0.994200(17)
C1_6 C 0.7344(7) 0.2722(8) 0.9965(6)
C6_6 C 0.7113(8) 0.2880(8) 0.9511(6)
C8_6 C 0.9705(7) 0.7146(7) 0.8776(5)
C9_6 C 0.9585(7) 0.7732(7) 0.8986(5)
H4_6 H 0.9252 0.7786 0.9154
C10_6 C 0.9982(7) 0.8254(8) 0.8940(5)
H5_6 H 0.9907 0.8662 0.9064
C13_6 C 0.9334(7) 0.6558(7) 0.8823(5)
H9_6 H 0.9912 0.4041 0.6868
C20_6 C 0.9556(6) 0.5039(7) 0.7423(4)
O2_6 O 0.9293(4) 0.2528(4) 0.9193(3)
O3_6 O 0.9676(4) 0.2234(4) 0.8259(3)
O5_6 O 0.7157(6) 0.1088(6) 0.8659(4)
O7_6 O 0.8548(4) 0.0993(4) 0.7809(3)
O11_6 O 0.9473(5) 0.6048(5) 0.8632(3)
O16_6 O 0.7967(4) 0.1399(4) 0.9357(3)
O18_6 O 0.8227(4) 0.4017(4) 0.9082(3)
O19_6 O 0.8774(4) 0.2318(4) 0.7790(3)
O22_6 O 0.9429(4) 0.3894(4) 0.8998(3)
O24_6 O 0.8890(4) 0.3601(5) 0.7541(3)
O25_6 O 0.9157(5) 0.4849(5) 0.7135(3)
O27_6 O 0.8789(4) 0.3215(4) 0.8444(3)
O28_6 O 0.9792(4) 0.2756(4) 0.7485(3)
O29_6 O 0.9889(4) 0.1959(4) 0.9940(3)
O30_6 O 0.7408(5) 0.0126(5) 0.9353(4)
O38_6 O 0.9135(4) 0.1144(4) 0.9274(3)
O39_6 O 0.8621(4) 0.1741(4) 0.8606(3)
O40_6 O 0.6219(5) 0.0317(5) 0.9431(4)
O43_6 O 0.9489(4) 0.5427(5) 0.7725(3)
O44_4 O 0.9637(4) 0.1451(4) 0.7604(3)
O49_6 O 0.8754(4) 0.2079(4) 0.9854(3)
O50_6 O 0.9439(4) 0.0931(4) 0.8432(3)
O54_6 O 0.8242(4) 0.2663(4) 0.9157(3)
O55_6 O 0.8898(4) 0.3386(4) 0.9722(3)
O57_6 O 0.9781(4) 0.3650(4) 0.8172(3)
O60_6 O 0.6936(5) 0.2462(5) 0.9263(4)
O62_6 O 0.7091(5) 0.3505(6) 0.9424(4)
Nd4_4 Nd 0.96772(3) 0.09056(3) 0.68263(2)
H10_6 H 0.731806 0.150266 0.853966
H11_6 H 0.680126 0.0980266 0.849139
H21_6 H 0.59184 0.0438436 0.920842
H22_6 H 0.604291 0.024755 0.973434
H25_6 H 0.684273 0.372389 0.965137
H26_6 H 0.927819 0.495331 0.681966
C8_7 C 0.0295(7) 0.2146(7) 0.6224(5)
C9_7 C 0.0415(7) 0.2732(7) 0.6014(5)
H4_7 H 0.0748 0.2786 0.5846
C10_7 C 0.0018(7) 0.3254(8) 0.6060(5)
H5_7 H 0.0093 0.3662 0.5936
C13_7 C 0.0666(7) 0.1558(7) 0.6177(5)
C20_7 C 0.0444(6) 0.0039(7) 0.7577(4)
O11_7 O 0.0527(5) 0.1048(5) 0.6368(3)
O43_7 O 0.0511(4) 0.0427(5) 0.7275(3)
W2_7 W 0.02264(2) 0.56572(3) 0.600480(18)
W3_7 W 0.14046(2) 0.68042(2) 0.575770(17)
W4_7 W 0.12850(2) 0.83897(3) 0.592460(18)
W6_7 W 0.09677(3) 0.65168(3) 0.694840(17)
W8_7 W 0.07583(3) 0.80996(3) 0.709640(18)
W11_7 W 0.06275(2) 0.76878(3) 0.505800(17)
C1_7 C 0.2656(7) 0.7722(8) 0.5035(6)
C2_7 C 0.2426(8) 0.8180(8) 0.4748(6)
H1_7 H 0.2420 0.8621 0.4823
C3_7 C 0.2206(8) 0.7961(8) 0.4347(6)
H2_7 H 0.2040 0.8258 0.4147
C4_7 C 0.2226(7) 0.7322(8) 0.4234(6)
H3_7 H 0.2092 0.7179 0.3954
C5_7 C 0.2458(7) 0.6869(8) 0.4556(5)
C6_7 C 0.2887(8) 0.7880(8) 0.5489(6)
C7_7 C 0.2492(6) 0.6151(8) 0.4466(5)
H9_7 H 0.0088 0.9041 0.8132
O2_7 O 0.0707(4) 0.7528(4) 0.5807(3)
O3_7 O 0.0324(4) 0.7234(4) 0.6741(3)
O5_7 O 0.2843(6) 0.6088(6) 0.6341(4)
O7_7 O 0.1452(4) 0.5993(4) 0.7191(3)
O13_7 O 0.0702(4) 0.7867(5) 0.4493(3)
O16_7 O 0.2033(4) 0.6399(4) 0.5643(3)
O18_7 O 0.1773(4) 0.9017(4) 0.5918(3)
O19_7 O 0.1226(4) 0.7318(4) 0.7210(3)
O21_5 O 0.0483(4) 0.4881(4) 0.5948(3)
O22_7 O 0.0571(4) 0.8894(4) 0.6002(3)
O24_7 O 0.1110(4) 0.8601(5) 0.7459(3)
O25_7 O 0.0843(5) 0.9849(5) 0.7865(3)
O27_7 O 0.1211(4) 0.8215(4) 0.6556(3)
O28_7 O 0.0208(4) 0.7756(4) 0.7515(3)
O29_7 O 0.0111(4) 0.6959(4) 0.5060(3)
O30_7 O 0.2592(5) 0.5126(5) 0.5647(4)
O38_7 O 0.0865(4) 0.6144(4) 0.5726(3)
O39_7 O 0.1379(4) 0.6741(4) 0.6394(3)
O40_7 O 0.3781(5) 0.5317(5) 0.5569(4)
O49_7 O 0.1246(4) 0.7079(4) 0.5146(3)
O50_7 O 0.0561(4) 0.5931(4) 0.6568(3)
O54_7 O 0.1758(4) 0.7663(4) 0.5843(3)
O55_7 O 0.1102(4) 0.8386(4) 0.5278(3)
O57_7 O 0.0219(4) 0.8650(4) 0.6828(3)
O60_7 O 0.3064(5) 0.7462(5) 0.5737(4)
O61_7 O 0.2680(5) 0.5806(5) 0.4778(3)
O62_7 O 0.2909(5) 0.8505(6) 0.5576(4)
N3_7 N 0.2675(5) 0.7080(6) 0.4945(3)
H10_7 H 0.268194 0.650266 0.646034
H11_7 H 0.319874 0.598027 0.650861
H21_7 H 0.40816 0.543844 0.579158
H22_7 H 0.395709 0.524755 0.526566
H23_5 H 0.282733 0.486219 0.585951
H24_5 H 0.255662 0.489233 0.535242
H25_7 H 0.315727 0.872389 0.534863
H26_7 H 0.0721808 0.995331 0.818034
N2_7 N 0.9817(5) 0.2031(6) 0.6460(4)
C11_7 C 0.9512(7) 0.3137(7) 0.6297(5)
H6_7 H 0.9235 0.3459 0.6327
C12_7 C 0.9437(7) 0.2506(7) 0.6492(5)
C14_7 C 0.8896(7) 0.2272(7) 0.6703(5)
O6_7 O 0.6905(4) 0.0154(5) 0.7239(4)
O9_7 O 0.8864(5) 0.1713(5) 0.6835(4)
O20_7 O 0.7137(5) 0.0405(5) 0.5672(3)
O26_7 O 0.8746(4) 0.0393(5) 0.6804(3)
O32_7 O 0.8492(5) 0.2703(5) 0.6757(4)
O37_7 O 0.9283(4) 0.0925(5) 0.6004(3)
O45_7 O 0.7747(5) 0.1003(5) 0.6602(4)
H12_7 H 0.672879 0.0362956 0.558585
H13_7 H 0.737683 0.0166591 0.544843
H15_7 H 0.650238 0.0302828 0.721852
H18_7 H 0.8631 0.306104 0.695611
H19_7 H 0.842592 0.0360809 0.603489
H27_7 H 0.744838 0.133794 0.665744
H28_7 H 0.798193 0.113394 0.633611
H31_7 H 0.942513 0.0537078 0.583582
H32_7 H 0.941336 0.132888 0.584845
W1_7 W 0.90150(2) 0.62968(3) 0.631210(17)
W5_7 W 0.98772(2) 0.90302(3) 0.628130(18)
W7_7 W 0.92243(2) 0.82557(3) 0.546920(18)
W9_7 W 0.94608(2) 0.64939(3) 0.527720(17)
W10_7 W 0.97155(3) 0.70759(3) 0.727600(18)
W12_7 W 0.88045(2) 0.80648(3) 0.651230(18)
N1_7 N 0.9466(5) 0.9954(5) 0.7388(3)
C15_7 C 0.8956(6) 0.9664(7) 0.7393(4)
C16_7 C 0.8842(7) 0.9127(7) 0.7670(5)
H7_7 H 0.8486 0.8926 0.7665
C17_7 C 0.9274(7) 0.8899(8) 0.7953(5)
H8_7 H 0.9206 0.8549 0.8147
C18_7 C 0.9794(6) 0.9190(7) 0.7946(5)
C19_7 C 0.9879(6) 0.9715(7) 0.7655(4)
C21_7 C 0.8553(6) 0.9936(6) 0.7052(4)
O1_7 O 0.9630(4) 0.8025(4) 0.6109(3)
O4_7 O 0.9775(4) 0.6608(4) 0.5991(3)
O8_7 O 0.9880(4) 0.5724(4) 0.5396(3)
O10_7 O 0.8060(5) 0.9698(5) 0.7009(3)
O12_7 O 0.8153(4) 0.8177(5) 0.6773(3)
O14_7 O 0.9152(4) 0.6277(5) 0.4777(3)
O17_7 O 0.9134(4) 0.7371(4) 0.5362(3)
O23_7 O 0.9375(5) 0.6884(5) 0.7779(3)
O31_7 O 0.8595(4) 0.8269(4) 0.5902(3)
O34_7 O 0.9232(4) 0.7687(4) 0.7018(3)
O36_7 O 0.9397(4) 0.6447(4) 0.6883(3)
O41_7 O 0.9906(4) 0.9850(4) 0.6432(3)
O42_7 O 0.9957(4) 0.8205(5) 0.5192(3)
O47_7 O 0.9506(4) 0.5486(4) 0.6250(3)
O48_7 O 0.7110(5) 0.8895(5) 0.6905(3)
O51_7 O 0.8250(5) 0.9920(6) 0.6020(4)
O52_7 O 0.8731(4) 0.7137(4) 0.6341(3)
O53_7 O 0.6305(4) 0.9513(5) 0.6240(3)
O56_7 O 0.9461(4) 0.9116(4) 0.5729(3)
O58_7 O 0.9133(4) 0.8882(4) 0.6603(3)
O59_7 O 0.8845(4) 0.6196(4) 0.5665(3)
H14_7 H 0.692431 0.974756 0.742268
H16_7 H 0.62062 0.913757 0.643883
H17_7 H 0.630297 0.937 0.591733
H20_7 H 0.818574 0.979816 0.569717
H29_7 H 0.734844 0.890292 0.718414
H30_7 H 0.721231 0.850774 0.671869
W1_8 W 0.59850(2) 0.37032(3) 0.131210(17)
W2_8 W 0.47736(2) 0.43428(3) 0.100480(18)
W3_8 W 0.35954(2) 0.31958(2) 0.075770(17)
W4_8 W 0.37150(2) 0.16103(3) 0.092460(18)
W5_8 W 0.51228(2) 0.09698(3) 0.128130(18)
W6_8 W 0.40323(3) 0.34832(3) 0.194840(17)
W7_8 W 0.57757(2) 0.17443(3) 0.046920(18)
W8_8 W 0.42417(3) 0.19004(3) 0.209640(18)
W9_8 W 0.55392(2) 0.35061(3) 0.027720(17)
W10_8 W 0.52845(3) 0.29241(3) 0.227600(18)
W11_8 W 0.43725(2) 0.23122(3) 0.005800(17)
W12_8 W 0.61955(2) 0.19352(3) 0.151230(18)
N1_8 N 0.5534(5) 0.0046(5) 0.2388(3)
C1_8 C 0.2344(7) 0.2278(8) 0.0035(6)
C6_8 C 0.2113(8) 0.2120(8) 0.0489(6)
C15_8 C 0.6044(6) 0.0336(7) 0.2393(4)
C16_8 C 0.6158(7) 0.0873(7) 0.2670(5)
H7_8 H 0.6514 0.1074 0.2665
C17_8 C 0.5726(7) 0.1101(8) 0.2953(5)
H8_8 H 0.5794 0.1451 0.3147
C18_8 C 0.5206(6) 0.0810(7) 0.2946(5)
H9_8 H 0.4912 0.0959 0.3132
C19_8 C 0.5121(6) 0.0285(7) 0.2655(4)
C21_8 C 0.6447(6) 0.0064(6) 0.2052(4)
O1_8 O 0.5370(4) 0.1975(4) 0.1109(3)
O2_8 O 0.4293(4) 0.2472(4) 0.0807(3)
O3_8 O 0.4676(4) 0.2766(4) 0.1741(3)
O4_8 O 0.5225(4) 0.3392(4) 0.0991(3)
O5_8 O 0.2157(6) 0.3912(6) 0.1341(4)
O7_8 O 0.3548(4) 0.4007(4) 0.2191(3)
O8_8 O 0.5120(4) 0.4276(4) 0.0396(3)
O10_8 O 0.6940(5) 0.0302(5) 0.2009(3)
O12_8 O 0.6847(4) 0.1823(5) 0.1773(3)
O16_8 O 0.2967(4) 0.3601(4) 0.0643(3)
O17_8 O 0.5866(4) 0.2629(4) 0.0362(3)
O18_8 O 0.3227(4) 0.0983(4) 0.0918(3)
O19_8 O 0.3774(4) 0.2682(4) 0.2210(3)
O21_6 O 0.4517(4) 0.5119(4) 0.0948(3)
O22_8 O 0.4429(4) 0.1106(4) 0.1002(3)
O23_8 O 0.5625(5) 0.3116(5) 0.2779(3)
O24_8 O 0.3890(4) 0.1399(5) 0.2459(3)
O25_8 O 0.4157(5) 0.0151(5) 0.2865(3)
O27_8 O 0.3789(4) 0.1785(4) 0.1556(3)
O28_8 O 0.4792(4) 0.2244(4) 0.2515(3)
O29_8 O 0.4889(4) 0.3041(4) 0.0060(3)
O30_8 O 0.2408(5) 0.4874(5) 0.0647(4)
O31_8 O 0.6405(4) 0.1731(4) 0.0902(3)
O34_8 O 0.5768(4) 0.2313(4) 0.2018(3)
O36_8 O 0.5603(4) 0.3553(4) 0.1883(3)
O38_8 O 0.4135(4) 0.3856(4) 0.0726(3)
O39_8 O 0.3621(4) 0.3259(4) 0.1394(3)
O40_8 O 0.1219(5) 0.4683(5) 0.0569(4)
O41_8 O 0.5094(4) 0.0150(4) 0.1432(3)
O42_8 O 0.5043(4) 0.1795(5) 0.0192(3)
O47_8 O 0.5494(4) 0.4514(4) 0.1250(3)
O48_8 O 0.7890(5) 0.1105(5) 0.1905(3)
O49_8 O 0.3754(4) 0.2921(4) 0.0146(3)
O50_8 O 0.4439(4) 0.4069(4) 0.1568(3)
O51_8 O 0.6750(5) 0.0080(6) 0.1020(4)
O52_8 O 0.6269(4) 0.2863(4) 0.1341(3)
O53_8 O 0.8695(4) 0.0487(5) 0.1240(3)
O54_8 O 0.3242(4) 0.2337(4) 0.0843(3)
O55_8 O 0.3898(4) 0.1614(4) 0.0278(3)
O56_8 O 0.5539(4) 0.0884(4) 0.0729(3)
O57_8 O 0.4781(4) 0.1350(4) 0.1828(3)
O58_8 O 0.5867(4) 0.1118(4) 0.1603(3)
O59_8 O 0.6155(4) 0.3804(4) 0.0665(3)
O60_8 O 0.1936(5) 0.2538(5) 0.0737(4)
O62_8 O 0.2091(5) 0.1495(6) 0.0576(4)
H10_8 H 0.231806 0.349734 0.146034
H11_8 H 0.180126 0.401973 0.150861
H14_8 H 0.807569 0.0252436 0.242268
H16_8 H 0.87938 0.0862425 0.143883
H17_8 H 0.869703 0.0630004 0.0917326
H20_8 H 0.681426 0.0201842 0.0697174
H21_8 H 0.0918401 0.456156 0.0791576
H22_8 H 0.104291 0.475245 0.0265659
H23_6 H 0.217267 0.513781 0.0859506
H24_6 H 0.244338 0.510767 0.0352421
H25_8 H 0.184273 0.127611 0.0348631
H26_8 H 0.427819 0.00466898 0.318034
H29_8 H 0.765156 0.109708 0.218414
H30_8 H 0.778769 0.149226 0.171869
C2_8 C 0.2574(8) 0.1820(8) 0.9748(6)
H1_8 H 0.2580 0.1379 0.9823
C3_8 C 0.2794(8) 0.2039(8) 0.9347(6)
H2_8 H 0.2960 0.1742 0.9147
C4_8 C 0.2774(7) 0.2678(8) 0.9234(6)
H3_8 H 0.2908 0.2821 0.8954
C5_8 C 0.2542(7) 0.3131(8) 0.9556(5)
C7_8 C 0.2508(6) 0.3849(8) 0.9466(5)
O13_8 O 0.4298(4) 0.2133(5) 0.9493(3)
O14_8 O 0.5848(4) 0.3723(5) 0.9777(3)
O61_8 O 0.2320(5) 0.4194(5) 0.9778(3)
N3_8 N 0.2325(5) 0.2920(6) 0.9945(3)
N2_8 N 0.5183(5) 0.7969(6) 0.1460(4)
C8_8 C 0.4705(7) 0.7854(7) 0.1224(5)
C9_8 C 0.4585(7) 0.7268(7) 0.1014(5)
H4_8 H 0.4252 0.7214 0.0846
C10_8 C 0.4982(7) 0.6746(8) 0.1060(5)
H5_8 H 0.4907 0.6338 0.0936
C11_8 C 0.5488(7) 0.6863(7) 0.1297(5)
H6_8 H 0.5765 0.6541 0.1327
C12_8 C 0.5563(7) 0.7494(7) 0.1492(5)
C13_8 C 0.4334(7) 0.8442(7) 0.1177(5)
C14_8 C 0.6104(7) 0.7728(7) 0.1703(5)
C20_8 C 0.4556(6) 0.9961(7) 0.2577(4)
O6_8 O 0.8095(4) 0.9846(5) 0.2239(4)
O9_8 O 0.6136(5) 0.8287(5) 0.1835(4)
O11_8 O 0.4473(5) 0.8952(5) 0.1368(3)
O20_8 O 0.7863(5) 0.9595(5) 0.0672(3)
O26_8 O 0.6254(4) 0.9607(5) 0.1804(3)
O32_8 O 0.6508(5) 0.7297(5) 0.1757(4)
O37_8 O 0.5717(4) 0.9075(5) 0.1004(3)
O43_8 O 0.4489(4) 0.9573(5) 0.2275(3)
O45_8 O 0.7253(5) 0.8997(5) 0.1602(4)
H12_8 H 0.827121 0.963704 0.0585846
H13_8 H 0.762317 0.983341 0.0448427
H15_8 H 0.849762 0.969717 0.221852
H18_8 H 0.6369 0.693896 0.195611
H19_8 H 0.657408 0.963919 0.103489
H27_8 H 0.755162 0.866206 0.165744
H28_8 H 0.701807 0.886606 0.133611
H31_8 H 0.557487 0.946292 0.083582
H32_8 H 0.558664 0.867112 0.0848453
O21_7 O 0.0483(4) 0.0119(4) 0.0948(3)
H23_7 H 0.282733 0.0137805 0.0859506
H24_7 H 0.255662 0.0107667 0.0352421
O21_8 O 0.9517(4) 0.9881(4) 0.9052(3)
H23_8 H 0.717267 0.986219 0.914049
H24_8 H 0.744338 0.989233 0.964758
loop_
_geom_bond_atom_site_label_1
_geom_bond_atom_site_label_2
_geom_bond_site_symmetry_1
_geom_bond_site_symmetry_2
W1 O4 1_555 1_555
W2 O4 1_555 1_555
W3 O2 1_555 1_555
W4 O2 1_555 1_555
W5 O1 1_555 1_555
W6 O3 1_555 1_555
W7 O1 1_555 1_555
W8 O3 1_555 1_555
W9 O4 1_555 1_555
W10 O3 1_555 1_555
W11 O2 1_555 1_555
W12 O1 1_555 1_555
Nd1 N1 1_555 1_555
Nd2 O5 1_555 1_555
Nd3 O6 1_555 1_555
N1 C15 1_555 1_555
N2 Nd1 1_555 1_555
C1 C2 1_555 1_555
C2 H1 1_555 1_555
C3 C2 1_555 1_555
H2 C3 1_555 1_555
C4 C3 1_555 1_555
H3 C4 1_555 1_555
C5 C4 1_555 1_555
C6 C1 1_555 1_555
C7 C5 1_555 1_555
C8 N2 1_555 1_555
C9 C8 1_555 1_555
H4 C9 1_555 1_555
C10 C9 1_555 1_555
H5 C10 1_555 1_555
C11 C10 1_555 1_555
H6 C11 1_555 1_555
C12 N2 1_555 1_555
C13 C8 1_555 1_555
C14 C12 1_555 1_555
C15 C16 1_555 1_555
C16 H7 1_555 1_555
C17 C16 1_555 1_555
H8 C17 1_555 1_555
C18 C17 1_555 1_555
H9 C18 1_555 1_555
C19 N1 1_555 1_555
C20 C19 1_555 1_555
C21 C15 1_555 1_555
O7 W6 1_555 1_555
O8 W2 1_555 1_555
O9 Nd1 1_555 1_555
O10 Nd3 1_555 1_555
O11 Nd1 1_555 1_555
O12 W12 1_555 1_555
O13 W11 1_555 1_555
O14 W9 1_555 1_555
O15 W1 1_555 1_555
O16 W3 1_555 1_555
O17 W7 1_555 1_555
O18 W4 1_555 1_555
O19 W6 1_555 1_555
O20 Nd3 1_555 1_555
O22 W4 1_555 1_555
O23 W10 1_555 1_555
O24 W8 1_555 1_555
O25 C20 1_555 1_555
O26 Nd1 1_555 1_555
O27 W4 1_555 1_555
O28 W8 1_555 1_555
O29 W9 1_555 1_555
O30 Nd2 1_555 1_555
O31 W7 1_555 1_555
O32 C14 1_555 1_555
O33 W7 1_555 1_555
O34 W10 1_555 1_555
O35 C13 1_555 1_555
O36 W1 1_555 1_555
O37 Nd1 1_555 1_555
O38 W2 1_555 1_555
O39 W3 1_555 1_555
O40 Nd2 1_555 1_555
O41 W5 1_555 1_555
O42 W7 1_555 1_555
O43 Nd1 1_555 1_555
O44 W6 1_555 1_555
O45 Nd3 1_555 1_555
O46 C7 1_555 1_555
O47 W1 1_555 1_555
O48 Nd3 1_555 1_555
O49 W3 1_555 1_555
O50 W2 1_555 1_555
O51 Nd3 1_555 1_555
O52 W1 1_555 1_555
O53 Nd3 1_555 1_555
O54 W3 1_555 1_555
O55 W4 1_555 1_555
O56 W5 1_555 1_555
O57 W5 1_555 1_555
O58 W5 1_555 1_555
O59 W1 1_555 1_555
O60 Nd2 1_555 1_555
O61 Nd2 1_555 1_555
O62 C6 1_555 1_555
N3 Nd2 1_555 1_555
Nd4 O44 1_555 1_555
Nd5 O33 1_555 1_555
Nd6 O35 1_555 1_555
Nd8 O46 1_555 1_555
O63 Nd3 1_555 1_555
O64 Nd2 1_555 1_555
O65 Nd2 1_555 1_555
O66 Nd1 1_555 1_555
O67 Nd3 1_555 1_555
W2 O47 1_555 1_555
W3 O38 1_555 1_555
W4 O54 1_555 1_555
W5 O22 1_555 1_555
W6 O39 1_555 1_555
W6 O50 1_555 1_555
W7 O56 1_555 1_555
W8 O19 1_555 1_555
W8 O27 1_555 1_555
W8 O57 1_555 1_555
W9 O8 1_555 1_555
W9 O17 1_555 1_555
W9 O59 1_555 1_555
W10 O28 1_555 1_555
W10 O36 1_555 1_555
W10 O44 1_555 1_555
W11 O29 1_555 1_555
W11 O42 1_555 1_555
W11 O49 1_555 1_555
W11 O55 1_555 1_555
W12 O31 1_555 1_555
W12 O34 1_555 1_555
W12 O52 1_555 1_555
W12 O58 1_555 1_555
Nd1 O41 1_555 1_555
Nd2 O16 1_555 1_555
C1 N3 1_555 1_555
C5 N3 1_555 1_555
C6 O60 1_555 1_555
C7 O61 1_555 1_555
C11 C12 1_555 1_555
C13 O11 1_555 1_555
C14 O9 1_555 1_555
C18 C19 1_555 1_555
C20 O43 1_555 1_555
C21 O10 1_555 1_555
C21 O26 1_555 1_555
O5 H10 1_555 1_555
O5 H11 1_555 1_555
O20 H12 1_555 1_555
O20 H13 1_555 1_555
O6 H14 1_555 1_555
O6 H15 1_555 1_555
O53 H16 1_555 1_555
O53 H17 1_555 1_555
O32 H18 1_555 1_555
O51 H19 1_555 1_555
O51 H20 1_555 1_555
O40 H21 1_555 1_555
O40 H22 1_555 1_555
O62 H25 1_555 1_555
O25 H26 1_555 1_555
O45 H27 1_555 1_555
O45 H28 1_555 1_555
O48 H29 1_555 1_555
O48 H30 1_555 1_555
O37 H31 1_555 1_555
O37 H32 1_555 1_555
W3_2 O2_2 1_555 1_555
W4_2 O2_2 1_555 1_555
W6_2 O3_2 1_555 1_555
W8_2 O3_2 1_555 1_555
W11_2 O2_2 1_555 1_555
Nd2_2 O5_2 1_555 1_555
C6_2 C1_2 1_555 1_555
C9_2 C8_2 1_555 1_555
H4_2 C9_2 1_555 1_555
C10_2 C9_2 1_555 1_555
H5_2 C10_2 1_555 1_555
C13_2 C8_2 1_555 1_555
O7_2 W6_2 1_555 1_555
O16_2 W3_2 1_555 1_555
O18_2 W4_2 1_555 1_555
O19_2 W6_2 1_555 1_555
O22_2 W4_2 1_555 1_555
O24_2 W8_2 1_555 1_555
O25_2 C20_2 1_555 1_555
O27_2 W4_2 1_555 1_555
O28_2 W8_2 1_555 1_555
O30_2 Nd2_2 1_555 1_555
O35_2 C13_2 1_555 1_555
O38_2 W2_2 1_555 1_555
O39_2 W3_2 1_555 1_555
O40_2 Nd2_2 1_555 1_555
O44_2 W6_2 1_555 1_555
O49_2 W3_2 1_555 1_555
O50_2 W2_2 1_555 1_555
O54_2 W3_2 1_555 1_555
O55_2 W4_2 1_555 1_555
O60_2 Nd2_2 1_555 1_555
O62_2 C6_2 1_555 1_555
Nd4_2 O44_2 1_555 1_555
Nd6_2 O35_2 1_555 1_555
O65_2 Nd2_2 1_555 1_555
W3_2 O38_2 1_555 1_555
W4_2 O54_2 1_555 1_555
W6_2 O39_2 1_555 1_555
W6_2 O50_2 1_555 1_555
W8_2 O19_2 1_555 1_555
W8_2 O27_2 1_555 1_555
W8_2 O57_2 1_555 1_555
W11_2 O29_2 1_555 1_555
W11_2 O49_2 1_555 1_555
W11_2 O55_2 1_555 1_555
Nd2_2 O16_2 1_555 1_555
C6_2 O60_2 1_555 1_555
C13_2 O11_2 1_555 1_555
C20_2 O43_2 1_555 1_555
O5_2 H10_2 1_555 1_555
O5_2 H11_2 1_555 1_555
O40_2 H21_2 1_555 1_555
O40_2 H22_2 1_555 1_555
O62_2 H25_2 1_555 1_555
O25_2 H26_2 1_555 1_555
C2_2 H1_2 1_555 1_555
C3_2 C2_2 1_555 1_555
H2_2 C3_2 1_555 1_555
C4_2 C3_2 1_555 1_555
H3_2 C4_2 1_555 1_555
C5_2 C4_2 1_555 1_555
C7_2 C5_2 1_555 1_555
O46_2 C7_2 1_555 1_555
Nd8_2 O46_2 1_555 1_555
C5_2 N3_2 1_555 1_555
C7_2 O61_2 1_555 1_555
W1_2 O4_2 1_555 1_555
W5_2 O1_2 1_555 1_555
W7_2 O1_2 1_555 1_555
W9_2 O4_2 1_555 1_555
W12_2 O1_2 1_555 1_555
Nd1_2 N1_2 1_555 1_555
Nd3_2 O6_2 1_555 1_555
N1_2 C15_2 1_555 1_555
N2_2 Nd1_2 1_555 1_555
H6_2 C11_2 1_555 1_555
C12_2 N2_2 1_555 1_555
C14_2 C12_2 1_555 1_555
C15_2 C16_2 1_555 1_555
C16_2 H7_2 1_555 1_555
C17_2 C16_2 1_555 1_555
H8_2 C17_2 1_555 1_555
C18_2 C17_2 1_555 1_555
C19_2 N1_2 1_555 1_555
C21_2 C15_2 1_555 1_555
O9_2 Nd1_2 1_555 1_555
O10_2 Nd3_2 1_555 1_555
O12_2 W12_2 1_555 1_555
O15_2 W1_2 1_555 1_555
O17_2 W7_2 1_555 1_555
O20_2 Nd3_2 1_555 1_555
O23_2 W10_2 1_555 1_555
O26_2 Nd1_2 1_555 1_555
O31_2 W7_2 1_555 1_555
O32_2 C14_2 1_555 1_555
O33_2 W7_2 1_555 1_555
O34_2 W10_2 1_555 1_555
O36_2 W1_2 1_555 1_555
O37_2 Nd1_2 1_555 1_555
O41_2 W5_2 1_555 1_555
O42_2 W7_2 1_555 1_555
O45_2 Nd3_2 1_555 1_555
O47_2 W1_2 1_555 1_555
O48_2 Nd3_2 1_555 1_555
O51_2 Nd3_2 1_555 1_555
O52_2 W1_2 1_555 1_555
O53_2 Nd3_2 1_555 1_555
O56_2 W5_2 1_555 1_555
O58_2 W5_2 1_555 1_555
O59_2 W1_2 1_555 1_555
O63_2 Nd3_2 1_555 1_555
O66_2 Nd1_2 1_555 1_555
O67_2 Nd3_2 1_555 1_555
W7_2 O56_2 1_555 1_555
W9_2 O8_2 1_555 1_555
W9_2 O17_2 1_555 1_555
W9_2 O59_2 1_555 1_555
W10_2 O36_2 1_555 1_555
W12_2 O31_2 1_555 1_555
W12_2 O34_2 1_555 1_555
W12_2 O52_2 1_555 1_555
W12_2 O58_2 1_555 1_555
Nd1_2 O41_2 1_555 1_555
C11_2 C12_2 1_555 1_555
C14_2 O9_2 1_555 1_555
C18_2 C19_2 1_555 1_555
C21_2 O10_2 1_555 1_555
C21_2 O26_2 1_555 1_555
O20_2 H12_2 1_555 1_555
O20_2 H13_2 1_555 1_555
O6_2 H14_2 1_555 1_555
O6_2 H15_2 1_555 1_555
O53_2 H16_2 1_555 1_555
O53_2 H17_2 1_555 1_555
O32_2 H18_2 1_555 1_555
O51_2 H19_2 1_555 1_555
O51_2 H20_2 1_555 1_555
O45_2 H27_2 1_555 1_555
O45_2 H28_2 1_555 1_555
O48_2 H29_2 1_555 1_555
O48_2 H30_2 1_555 1_555
O37_2 H31_2 1_555 1_555
O37_2 H32_2 1_555 1_555
W1_3 O4_3 1_555 1_555
W5_3 O1_3 1_555 1_555
W7_3 O1_3 1_555 1_555
W9_3 O4_3 1_555 1_555
W12_3 O1_3 1_555 1_555
N1_3 C15_3 1_555 1_555
C15_3 C16_3 1_555 1_555
C16_3 H7_3 1_555 1_555
C17_3 C16_3 1_555 1_555
H8_3 C17_3 1_555 1_555
C18_3 C17_3 1_555 1_555
C19_3 N1_3 1_555 1_555
C21_3 C15_3 1_555 1_555
O10_3 Nd8 1_555 1_555
O12_3 W12_3 1_555 1_555
O14_3 W9_3 1_555 1_555
O15_3 W1_3 1_555 1_555
O17_3 W7_3 1_555 1_555
O23_3 W10_3 1_555 1_555
O31_3 W7_3 1_555 1_555
O64 W7_3 1_555 1_555
O34_3 W10_3 1_555 1_555
O36_3 W1_3 1_555 1_555
O41_3 W5_3 1_555 1_555
O42_3 W7_3 1_555 1_555
O47_3 W1_3 1_555 1_555
O48_3 Nd8 1_555 1_555
O51_3 Nd8 1_555 1_555
O52_3 W1_3 1_555 1_555
O53_3 Nd8 1_555 1_555
O56_3 W5_3 1_555 1_555
O58_3 W5_3 1_555 1_555
O59_3 W1_3 1_555 1_555
Nd7_3 O15_3 1_555 1_555
W7_3 O56_3 1_555 1_555
W9_3 O8_3 1_555 1_555
W9_3 O17_3 1_555 1_555
W9_3 O59_3 1_555 1_555
W10_3 O36_3 1_555 1_555
W12_3 O31_3 1_555 1_555
W12_3 O34_3 1_555 1_555
W12_3 O52_3 1_555 1_555
W12_3 O58_3 1_555 1_555
C18_3 C19_3 1_555 1_555
C21_3 O10_3 1_555 1_555
O53_3 H16_3 1_555 1_555
O53_3 H17_3 1_555 1_555
O51_3 H20_3 1_555 1_555
O48_3 H29_3 1_555 1_555
O48_3 H30_3 1_555 1_555
N2_3 Nd4_2 1_555 1_555
H6_3 C11_3 1_555 1_555
C12_3 N2_3 1_555 1_555
C14_3 C12_3 1_555 1_555
O9_3 Nd4_2 1_555 1_555
O26_3 Nd4_2 1_555 1_555
O32_3 C14_3 1_555 1_555
O37_3 Nd4_2 1_555 1_555
C11_3 C12_3 1_555 1_555
C14_3 O9_3 1_555 1_555
O20_3 H12_3 1_555 1_555
O20_3 H13_3 1_555 1_555
O6_3 H15_3 1_555 1_555
O32_3 H18_3 1_555 1_555
O45_3 H27_3 1_555 1_555
O45_3 H28_3 1_555 1_555
O37_3 H31_3 1_555 1_555
O37_3 H32_3 1_555 1_555
W3_3 O2_3 1_555 1_555
W4_3 O2_3 1_555 1_555
W6_3 O3_3 1_555 1_555
W8_3 O3_3 1_555 1_555
W11_3 O2_3 1_555 1_555
Nd5 O5_3 1_555 1_555
C1_3 C2_3 1_555 1_555
C2_3 H1_3 1_555 1_555
C3_3 C2_3 1_555 1_555
H2_3 C3_3 1_555 1_555
C4_3 C3_3 1_555 1_555
H3_3 C4_3 1_555 1_555
C5_3 C4_3 1_555 1_555
C6_3 C1_3 1_555 1_555
C7_3 C5_3 1_555 1_555
O7_3 W6_3 1_555 1_555
O13_3 W11_3 1_555 1_555
O16_3 W3_3 1_555 1_555
O18_3 W4_3 1_555 1_555
O19_3 W6_3 1_555 1_555
O21_2 W2_3 1_555 1_555
O22_3 W4_3 1_555 1_555
O24_3 W8_3 1_555 1_555
O27_3 W4_3 1_555 1_555
O28_3 W8_3 1_555 1_555
O30_3 Nd5 1_555 1_555
O38_3 W2_3 1_555 1_555
O39_3 W3_3 1_555 1_555
O40_3 Nd5 1_555 1_555
O66_2 W6_3 1_555 1_555
O67 C7_3 1_555 1_555
O49_3 W3_3 1_555 1_555
O50_3 W2_3 1_555 1_555
O54_3 W3_3 1_555 1_555
O55_3 W4_3 1_555 1_555
O60_3 Nd5 1_555 1_555
O61_3 Nd5 1_555 1_555
O62_3 C6_3 1_555 1_555
N3_3 Nd5 1_555 1_555
O65_3 Nd5 1_555 1_555
W3_3 O38_3 1_555 1_555
W4_3 O54_3 1_555 1_555
W6_3 O39_3 1_555 1_555
W6_3 O50_3 1_555 1_555
W8_3 O19_3 1_555 1_555
W8_3 O27_3 1_555 1_555
W8_3 O57_3 1_555 1_555
W11_3 O29_3 1_555 1_555
W11_3 O49_3 1_555 1_555
W11_3 O55_3 1_555 1_555
Nd5 O16_3 1_555 1_555
C1_3 N3_3 1_555 1_555
C5_3 N3_3 1_555 1_555
C6_3 O60_3 1_555 1_555
C7_3 O61_3 1_555 1_555
O5_3 H10_3 1_555 1_555
O5_3 H11_3 1_555 1_555
O40_3 H21_3 1_555 1_555
O40_3 H22_3 1_555 1_555
O30_3 H23_2 1_555 1_555
O30_3 H24_2 1_555 1_555
O62_3 H25_3 1_555 1_555
O25_3 H26_3 1_555 1_555
C9_3 C8_3 1_555 1_555
H4_3 C9_3 1_555 1_555
C10_3 C9_3 1_555 1_555
H5_3 C10_3 1_555 1_555
C13_3 C8_3 1_555 1_555
O35_3 C13_3 1_555 1_555
Nd6_3 O35_3 1_555 1_555
C13_3 O11_3 1_555 1_555
C20_3 O43_3 1_555 1_555
N2_4 Nd4 1_555 1_555
C8_4 N2_4 1_555 1_555
C9_4 C8_4 1_555 1_555
H4_4 C9_4 1_555 1_555
C10_4 C9_4 1_555 1_555
H5_4 C10_4 1_555 1_555
C11_4 C10_4 1_555 1_555
H6_4 C11_4 1_555 1_555
C12_4 N2_4 1_555 1_555
C13_4 C8_4 1_555 1_555
C14_4 C12_4 1_555 1_555
O9_4 Nd4 1_555 1_555
O11_4 Nd4 1_555 1_555
O26_4 Nd4 1_555 1_555
O32_4 C14_4 1_555 1_555
O35_4 C13_4 1_555 1_555
O37_4 Nd4 1_555 1_555
O43_4 Nd4 1_555 1_555
Nd6_4 O35_4 1_555 1_555
C11_4 C12_4 1_555 1_555
C13_4 O11_4 1_555 1_555
C14_4 O9_4 1_555 1_555
C20_4 O43_4 1_555 1_555
O20_4 H12_4 1_555 1_555
O20_4 H13_4 1_555 1_555
O6_4 H15_4 1_555 1_555
O32_4 H18_4 1_555 1_555
O45_4 H27_4 1_555 1_555
O45_4 H28_4 1_555 1_555
O37_4 H31_4 1_555 1_555
O37_4 H32_4 1_555 1_555
C2_4 H1_4 1_555 1_555
C3_4 C2_4 1_555 1_555
H2_4 C3_4 1_555 1_555
C4_4 C3_4 1_555 1_555
H3_4 C4_4 1_555 1_555
C5_4 C4_4 1_555 1_555
C7_4 C5_4 1_555 1_555
O67_2 C7_4 1_555 1_555
C5_4 N3_4 1_555 1_555
C7_4 O61_4 1_555 1_555
W1_4 O4_4 1_555 1_555
W2_4 O4_4 1_555 1_555
W3_4 O2_4 1_555 1_555
W4_4 O2_4 1_555 1_555
W5_4 O1_4 1_555 1_555
W6_4 O3_4 1_555 1_555
W7_4 O1_4 1_555 1_555
W8_4 O3_4 1_555 1_555
W9_4 O4_4 1_555 1_555
W10_4 O3_4 1_555 1_555
W11_4 O2_4 1_555 1_555
W12_4 O1_4 1_555 1_555
Nd5_2 O5_4 1_555 1_555
N1_4 C15_4 1_555 1_555
C6_4 C1_4 1_555 1_555
C15_4 C16_4 1_555 1_555
C16_4 H7_4 1_555 1_555
C17_4 C16_4 1_555 1_555
H8_4 C17_4 1_555 1_555
C18_4 C17_4 1_555 1_555
H9_4 C18_4 1_555 1_555
C19_4 N1_4 1_555 1_555
C21_4 C15_4 1_555 1_555
O7_4 W6_4 1_555 1_555
O8_4 W2_4 1_555 1_555
O10_4 Nd8_2 1_555 1_555
O12_4 W12_4 1_555 1_555
O15_4 W1_4 1_555 1_555
O16_4 W3_4 1_555 1_555
O17_4 W7_4 1_555 1_555
O18_4 W4_4 1_555 1_555
O19_4 W6_4 1_555 1_555
O21_3 W2_4 1_555 1_555
O22_4 W4_4 1_555 1_555
O23_4 W10_4 1_555 1_555
O24_4 W8_4 1_555 1_555
O27_4 W4_4 1_555 1_555
O28_4 W8_4 1_555 1_555
O29_4 W9_4 1_555 1_555
O30_4 Nd5_2 1_555 1_555
O31_4 W7_4 1_555 1_555
O64_2 W7_4 1_555 1_555
O34_4 W10_4 1_555 1_555
O36_4 W1_4 1_555 1_555
O38_4 W2_4 1_555 1_555
O39_4 W3_4 1_555 1_555
O40_4 Nd5_2 1_555 1_555
O41_4 W5_4 1_555 1_555
O42_4 W7_4 1_555 1_555
O66 W6_4 1_555 1_555
O47_4 W1_4 1_555 1_555
O48_4 Nd8_2 1_555 1_555
O49_4 W3_4 1_555 1_555
O50_4 W2_4 1_555 1_555
O51_4 Nd8_2 1_555 1_555
O52_4 W1_4 1_555 1_555
O53_4 Nd8_2 1_555 1_555
O54_4 W3_4 1_555 1_555
O55_4 W4_4 1_555 1_555
O56_4 W5_4 1_555 1_555
O57_4 W5_4 1_555 1_555
O58_4 W5_4 1_555 1_555
O59_4 W1_4 1_555 1_555
O60_4 Nd5_2 1_555 1_555
O62_4 C6_4 1_555 1_555
Nd7_4 O15_4 1_555 1_555
O65_4 Nd5_2 1_555 1_555
W2_4 O47_4 1_555 1_555
W3_4 O38_4 1_555 1_555
W4_4 O54_4 1_555 1_555
W5_4 O22_4 1_555 1_555
W6_4 O39_4 1_555 1_555
W6_4 O50_4 1_555 1_555
W7_4 O56_4 1_555 1_555
W8_4 O19_4 1_555 1_555
W8_4 O27_4 1_555 1_555
W8_4 O57_4 1_555 1_555
W9_4 O8_4 1_555 1_555
W9_4 O17_4 1_555 1_555
W9_4 O59_4 1_555 1_555
W10_4 O28_4 1_555 1_555
W10_4 O36_4 1_555 1_555
W10_4 O66 1_555 1_555
W11_4 O29_4 1_555 1_555
W11_4 O42_4 1_555 1_555
W11_4 O49_4 1_555 1_555
W11_4 O55_4 1_555 1_555
W12_4 O31_4 1_555 1_555
W12_4 O34_4 1_555 1_555
W12_4 O52_4 1_555 1_555
W12_4 O58_4 1_555 1_555
Nd5_2 O16_4 1_555 1_555
C6_4 O60_4 1_555 1_555
C18_4 C19_4 1_555 1_555
C21_4 O10_4 1_555 1_555
O5_4 H10_4 1_555 1_555
O5_4 H11_4 1_555 1_555
O53_4 H16_4 1_555 1_555
O53_4 H17_4 1_555 1_555
O51_4 H20_4 1_555 1_555
O40_4 H21_4 1_555 1_555
O40_4 H22_4 1_555 1_555
O30_4 H23_3 1_555 1_555
O30_4 H24_3 1_555 1_555
O62_4 H25_4 1_555 1_555
O25_4 H26_4 1_555 1_555
O48_4 H29_4 1_555 1_555
O48_4 H30_4 1_555 1_555
W1_5 O4_5 1_555 1_555
W2_5 O4_5 1_555 1_555
W3_5 O2_5 1_555 1_555
W4_5 O2_5 1_555 1_555
W5_5 O1_5 1_555 1_555
W6_5 O3_5 1_555 1_555
W7_5 O1_5 1_555 1_555
W8_5 O3_5 1_555 1_555
W9_5 O4_5 1_555 1_555
W10_5 O3_5 1_555 1_555
W11_5 O2_5 1_555 1_555
W12_5 O1_5 1_555 1_555
Nd1_3 N1_5 1_555 1_555
Nd6_3 O5_5 1_555 1_555
Nd7_3 O6_5 1_555 1_555
N1_5 C15_5 1_555 1_555
N2_5 Nd1_3 1_555 1_555
C1_5 C2_5 1_555 1_555
C2_5 H1_5 1_555 1_555
C3_5 C2_5 1_555 1_555
H2_5 C3_5 1_555 1_555
C4_5 C3_5 1_555 1_555
H3_5 C4_5 1_555 1_555
C5_5 C4_5 1_555 1_555
C6_5 C1_5 1_555 1_555
C7_5 C5_5 1_555 1_555
C8_5 N2_5 1_555 1_555
C9_5 C8_5 1_555 1_555
H4_5 C9_5 1_555 1_555
C10_5 C9_5 1_555 1_555
H5_5 C10_5 1_555 1_555
C11_5 C10_5 1_555 1_555
H6_5 C11_5 1_555 1_555
C12_5 N2_5 1_555 1_555
C13_5 C8_5 1_555 1_555
C14_5 C12_5 1_555 1_555
C15_5 C16_5 1_555 1_555
C16_5 H7_5 1_555 1_555
C17_5 C16_5 1_555 1_555
H8_5 C17_5 1_555 1_555
C18_5 C17_5 1_555 1_555
H9_5 C18_5 1_555 1_555
C19_5 N1_5 1_555 1_555
C20_5 C19_5 1_555 1_555
C21_5 C15_5 1_555 1_555
O7_5 W6_5 1_555 1_555
O8_5 W2_5 1_555 1_555
O9_5 Nd1_3 1_555 1_555
O10_5 Nd7_3 1_555 1_555
O11_5 Nd1_3 1_555 1_555
O12_5 W12_5 1_555 1_555
O13_5 W11_5 1_555 1_555
O14_5 W9_5 1_555 1_555
O63_3 W1_5 1_555 1_555
O16_5 W3_5 1_555 1_555
O17_5 W7_5 1_555 1_555
O18_5 W4_5 1_555 1_555
O19_5 W6_5 1_555 1_555
O20_5 Nd7_3 1_555 1_555
O22_5 W4_5 1_555 1_555
O23_5 W10_5 1_555 1_555
O24_5 W8_5 1_555 1_555
O25_5 C20_5 1_555 1_555
O26_5 Nd1_3 1_555 1_555
O27_5 W4_5 1_555 1_555
O28_5 W8_5 1_555 1_555
O29_5 W9_5 1_555 1_555
O30_5 Nd6_3 1_555 1_555
O31_5 W7_5 1_555 1_555
O32_5 C14_5 1_555 1_555
O33_3 W7_5 1_555 1_555
O34_5 W10_5 1_555 1_555
O65_3 C13_5 1_555 1_555
O36_5 W1_5 1_555 1_555
O37_5 Nd1_3 1_555 1_555
O38_5 W2_5 1_555 1_555
O39_5 W3_5 1_555 1_555
O40_5 Nd6_3 1_555 1_555
O41_5 W5_5 1_555 1_555
O42_5 W7_5 1_555 1_555
O43_5 Nd1_3 1_555 1_555
O44_3 W6_5 1_555 1_555
O45_5 Nd7_3 1_555 1_555
O46_3 C7_5 1_555 1_555
O47_5 W1_5 1_555 1_555
O48_5 Nd7_3 1_555 1_555
O49_5 W3_5 1_555 1_555
O50_5 W2_5 1_555 1_555
O51_5 Nd7_3 1_555 1_555
O52_5 W1_5 1_555 1_555
O53_5 Nd7_3 1_555 1_555
O54_5 W3_5 1_555 1_555
O55_5 W4_5 1_555 1_555
O56_5 W5_5 1_555 1_555
O57_5 W5_5 1_555 1_555
O58_5 W5_5 1_555 1_555
O59_5 W1_5 1_555 1_555
O60_5 Nd6_3 1_555 1_555
O61_5 Nd6_3 1_555 1_555
O62_5 C6_5 1_555 1_555
N3_5 Nd6_3 1_555 1_555
Nd4_3 O44_3 1_555 1_555
Nd6 O33_3 1_555 1_555
Nd7 O46_3 1_555 1_555
O64_3 Nd6_3 1_555 1_555
O66_3 Nd1_3 1_555 1_555
O67_3 Nd7_3 1_555 1_555
W2_5 O47_5 1_555 1_555
W3_5 O38_5 1_555 1_555
W4_5 O54_5 1_555 1_555
W5_5 O22_5 1_555 1_555
W6_5 O39_5 1_555 1_555
W6_5 O50_5 1_555 1_555
W7_5 O56_5 1_555 1_555
W8_5 O19_5 1_555 1_555
W8_5 O27_5 1_555 1_555
W8_5 O57_5 1_555 1_555
W9_5 O8_5 1_555 1_555
W9_5 O17_5 1_555 1_555
W9_5 O59_5 1_555 1_555
W10_5 O28_5 1_555 1_555
W10_5 O36_5 1_555 1_555
W10_5 O44_3 1_555 1_555
W11_5 O29_5 1_555 1_555
W11_5 O42_5 1_555 1_555
W11_5 O49_5 1_555 1_555
W11_5 O55_5 1_555 1_555
W12_5 O31_5 1_555 1_555
W12_5 O34_5 1_555 1_555
W12_5 O52_5 1_555 1_555
W12_5 O58_5 1_555 1_555
Nd1_3 O41_5 1_555 1_555
Nd6_3 O16_5 1_555 1_555
C1_5 N3_5 1_555 1_555
C5_5 N3_5 1_555 1_555
C6_5 O60_5 1_555 1_555
C7_5 O61_5 1_555 1_555
C11_5 C12_5 1_555 1_555
C13_5 O11_5 1_555 1_555
C14_5 O9_5 1_555 1_555
C18_5 C19_5 1_555 1_555
C20_5 O43_5 1_555 1_555
C21_5 O10_5 1_555 1_555
C21_5 O26_5 1_555 1_555
O5_5 H10_5 1_555 1_555
O5_5 H11_5 1_555 1_555
O20_5 H12_5 1_555 1_555
O20_5 H13_5 1_555 1_555
O6_5 H14_5 1_555 1_555
O6_5 H15_5 1_555 1_555
O53_5 H16_5 1_555 1_555
O53_5 H17_5 1_555 1_555
O32_5 H18_5 1_555 1_555
O51_5 H19_5 1_555 1_555
O51_5 H20_5 1_555 1_555
O40_5 H21_5 1_555 1_555
O40_5 H22_5 1_555 1_555
O62_5 H25_5 1_555 1_555
O25_5 H26_5 1_555 1_555
O45_5 H27_5 1_555 1_555
O45_5 H28_5 1_555 1_555
O48_5 H29_5 1_555 1_555
O48_5 H30_5 1_555 1_555
O37_5 H31_5 1_555 1_555
O37_5 H32_5 1_555 1_555
W1_6 O4_6 1_555 1_555
W5_6 O1_6 1_555 1_555
W7_6 O1_6 1_555 1_555
W9_6 O4_6 1_555 1_555
W12_6 O1_6 1_555 1_555
Nd1_4 N1_6 1_555 1_555
Nd7_4 O6_6 1_555 1_555
N1_6 C15_6 1_555 1_555
N2_6 Nd1_4 1_555 1_555
H6_6 C11_6 1_555 1_555
C12_6 N2_6 1_555 1_555
C14_6 C12_6 1_555 1_555
C15_6 C16_6 1_555 1_555
C16_6 H7_6 1_555 1_555
C17_6 C16_6 1_555 1_555
H8_6 C17_6 1_555 1_555
C18_6 C17_6 1_555 1_555
C19_6 N1_6 1_555 1_555
C21_6 C15_6 1_555 1_555
O9_6 Nd1_4 1_555 1_555
O10_6 Nd7_4 1_555 1_555
O12_6 W12_6 1_555 1_555
O63_4 W1_6 1_555 1_555
O17_6 W7_6 1_555 1_555
O20_6 Nd7_4 1_555 1_555
O23_6 W10_6 1_555 1_555
O26_6 Nd1_4 1_555 1_555
O31_6 W7_6 1_555 1_555
O32_6 C14_6 1_555 1_555
O33_4 W7_6 1_555 1_555
O34_6 W10_6 1_555 1_555
O36_6 W1_6 1_555 1_555
O37_6 Nd1_4 1_555 1_555
O41_6 W5_6 1_555 1_555
O42_6 W7_6 1_555 1_555
O45_6 Nd7_4 1_555 1_555
O47_6 W1_6 1_555 1_555
O48_6 Nd7_4 1_555 1_555
O51_6 Nd7_4 1_555 1_555
O52_6 W1_6 1_555 1_555
O53_6 Nd7_4 1_555 1_555
O56_6 W5_6 1_555 1_555
O58_6 W5_6 1_555 1_555
O59_6 W1_6 1_555 1_555
O66_4 Nd1_4 1_555 1_555
O67_4 Nd7_4 1_555 1_555
W7_6 O56_6 1_555 1_555
W9_6 O8_6 1_555 1_555
W9_6 O17_6 1_555 1_555
W9_6 O59_6 1_555 1_555
W10_6 O36_6 1_555 1_555
W12_6 O31_6 1_555 1_555
W12_6 O34_6 1_555 1_555
W12_6 O52_6 1_555 1_555
W12_6 O58_6 1_555 1_555
Nd1_4 O41_6 1_555 1_555
C11_6 C12_6 1_555 1_555
C14_6 O9_6 1_555 1_555
C18_6 C19_6 1_555 1_555
C21_6 O10_6 1_555 1_555
C21_6 O26_6 1_555 1_555
O20_6 H12_6 1_555 1_555
O20_6 H13_6 1_555 1_555
O6_6 H14_6 1_555 1_555
O6_6 H15_6 1_555 1_555
O53_6 H16_6 1_555 1_555
O53_6 H17_6 1_555 1_555
O32_6 H18_6 1_555 1_555
O51_6 H19_6 1_555 1_555
O51_6 H20_6 1_555 1_555
O45_6 H27_6 1_555 1_555
O45_6 H28_6 1_555 1_555
O48_6 H29_6 1_555 1_555
O48_6 H30_6 1_555 1_555
O37_6 H31_6 1_555 1_555
O37_6 H32_6 1_555 1_555
C2_6 H1_6 1_555 1_555
C3_6 C2_6 1_555 1_555
H2_6 C3_6 1_555 1_555
C4_6 C3_6 1_555 1_555
H3_6 C4_6 1_555 1_555
C5_6 C4_6 1_555 1_555
C7_6 C5_6 1_555 1_555
O46_4 C7_6 1_555 1_555
Nd7_2 O46_4 1_555 1_555
C5_6 N3_6 1_555 1_555
C7_6 O61_6 1_555 1_555
W3_6 O2_6 1_555 1_555
W4_6 O2_6 1_555 1_555
W6_6 O3_6 1_555 1_555
W8_6 O3_6 1_555 1_555
W11_6 O2_6 1_555 1_555
Nd6_4 O5_6 1_555 1_555
C6_6 C1_6 1_555 1_555
C9_6 C8_6 1_555 1_555
H4_6 C9_6 1_555 1_555
C10_6 C9_6 1_555 1_555
H5_6 C10_6 1_555 1_555
C13_6 C8_6 1_555 1_555
O7_6 W6_6 1_555 1_555
O16_6 W3_6 1_555 1_555
O18_6 W4_6 1_555 1_555
O19_6 W6_6 1_555 1_555
O22_6 W4_6 1_555 1_555
O24_6 W8_6 1_555 1_555
O25_6 C20_6 1_555 1_555
O27_6 W4_6 1_555 1_555
O28_6 W8_6 1_555 1_555
O30_6 Nd6_4 1_555 1_555
O65_4 C13_6 1_555 1_555
O38_6 W2_6 1_555 1_555
O39_6 W3_6 1_555 1_555
O40_6 Nd6_4 1_555 1_555
O44_4 W6_6 1_555 1_555
O49_6 W3_6 1_555 1_555
O50_6 W2_6 1_555 1_555
O54_6 W3_6 1_555 1_555
O55_6 W4_6 1_555 1_555
O60_6 Nd6_4 1_555 1_555
O62_6 C6_6 1_555 1_555
Nd4_4 O44_4 1_555 1_555
W3_6 O38_6 1_555 1_555
W4_6 O54_6 1_555 1_555
W6_6 O39_6 1_555 1_555
W6_6 O50_6 1_555 1_555
W8_6 O19_6 1_555 1_555
W8_6 O27_6 1_555 1_555
W8_6 O57_6 1_555 1_555
W11_6 O29_6 1_555 1_555
W11_6 O49_6 1_555 1_555
W11_6 O55_6 1_555 1_555
Nd6_4 O16_6 1_555 1_555
C6_6 O60_6 1_555 1_555
C13_6 O11_6 1_555 1_555
C20_6 O43_6 1_555 1_555
O5_6 H10_6 1_555 1_555
O5_6 H11_6 1_555 1_555
O40_6 H21_6 1_555 1_555
O40_6 H22_6 1_555 1_555
O62_6 H25_6 1_555 1_555
O25_6 H26_6 1_555 1_555
C9_7 C8_7 1_555 1_555
H4_7 C9_7 1_555 1_555
C10_7 C9_7 1_555 1_555
H5_7 C10_7 1_555 1_555
C13_7 C8_7 1_555 1_555
O65 C13_7 1_555 1_555
C13_7 O11_7 1_555 1_555
C20_7 O43_7 1_555 1_555
W3_7 O2_7 1_555 1_555
W4_7 O2_7 1_555 1_555
W6_7 O3_7 1_555 1_555
W8_7 O3_7 1_555 1_555
W11_7 O2_7 1_555 1_555
Nd6 O5_7 1_555 1_555
C1_7 C2_7 1_555 1_555
C2_7 H1_7 1_555 1_555
C3_7 C2_7 1_555 1_555
H2_7 C3_7 1_555 1_555
C4_7 C3_7 1_555 1_555
H3_7 C4_7 1_555 1_555
C5_7 C4_7 1_555 1_555
C6_7 C1_7 1_555 1_555
C7_7 C5_7 1_555 1_555
O7_7 W6_7 1_555 1_555
O13_7 W11_7 1_555 1_555
O16_7 W3_7 1_555 1_555
O18_7 W4_7 1_555 1_555
O19_7 W6_7 1_555 1_555
O21_5 W2_7 1_555 1_555
O22_7 W4_7 1_555 1_555
O24_7 W8_7 1_555 1_555
O27_7 W4_7 1_555 1_555
O28_7 W8_7 1_555 1_555
O30_7 Nd6 1_555 1_555
O38_7 W2_7 1_555 1_555
O39_7 W3_7 1_555 1_555
O40_7 Nd6 1_555 1_555
O66_4 W6_7 1_555 1_555
O67_3 C7_7 1_555 1_555
O49_7 W3_7 1_555 1_555
O50_7 W2_7 1_555 1_555
O54_7 W3_7 1_555 1_555
O55_7 W4_7 1_555 1_555
O60_7 Nd6 1_555 1_555
O61_7 Nd6 1_555 1_555
O62_7 C6_7 1_555 1_555
N3_7 Nd6 1_555 1_555
W3_7 O38_7 1_555 1_555
W4_7 O54_7 1_555 1_555
W6_7 O39_7 1_555 1_555
W6_7 O50_7 1_555 1_555
W8_7 O19_7 1_555 1_555
W8_7 O27_7 1_555 1_555
W8_7 O57_7 1_555 1_555
W11_7 O29_7 1_555 1_555
W11_7 O49_7 1_555 1_555
W11_7 O55_7 1_555 1_555
Nd6 O16_7 1_555 1_555
C1_7 N3_7 1_555 1_555
C5_7 N3_7 1_555 1_555
C6_7 O60_7 1_555 1_555
C7_7 O61_7 1_555 1_555
O5_7 H10_7 1_555 1_555
O5_7 H11_7 1_555 1_555
O40_7 H21_7 1_555 1_555
O40_7 H22_7 1_555 1_555
O30_7 H23_5 1_555 1_555
O30_7 H24_5 1_555 1_555
O62_7 H25_7 1_555 1_555
O25_7 H26_7 1_555 1_555
N2_7 Nd4_4 1_555 1_555
H6_7 C11_7 1_555 1_555
C12_7 N2_7 1_555 1_555
C14_7 C12_7 1_555 1_555
O9_7 Nd4_4 1_555 1_555
O26_7 Nd4_4 1_555 1_555
O32_7 C14_7 1_555 1_555
O37_7 Nd4_4 1_555 1_555
C11_7 C12_7 1_555 1_555
C14_7 O9_7 1_555 1_555
O20_7 H12_7 1_555 1_555
O20_7 H13_7 1_555 1_555
O6_7 H15_7 1_555 1_555
O32_7 H18_7 1_555 1_555
O45_7 H27_7 1_555 1_555
O45_7 H28_7 1_555 1_555
O37_7 H31_7 1_555 1_555
O37_7 H32_7 1_555 1_555
W1_7 O4_7 1_555 1_555
W5_7 O1_7 1_555 1_555
W7_7 O1_7 1_555 1_555
W9_7 O4_7 1_555 1_555
W12_7 O1_7 1_555 1_555
N1_7 C15_7 1_555 1_555
C15_7 C16_7 1_555 1_555
C16_7 H7_7 1_555 1_555
C17_7 C16_7 1_555 1_555
H8_7 C17_7 1_555 1_555
C18_7 C17_7 1_555 1_555
C19_7 N1_7 1_555 1_555
C21_7 C15_7 1_555 1_555
O10_7 Nd7 1_555 1_555
O12_7 W12_7 1_555 1_555
O14_7 W9_7 1_555 1_555
O63 W1_7 1_555 1_555
O17_7 W7_7 1_555 1_555
O23_7 W10_7 1_555 1_555
O31_7 W7_7 1_555 1_555
O64_3 W7_7 1_555 1_555
O34_7 W10_7 1_555 1_555
O36_7 W1_7 1_555 1_555
O41_7 W5_7 1_555 1_555
O42_7 W7_7 1_555 1_555
O47_7 W1_7 1_555 1_555
O48_7 Nd7 1_555 1_555
O51_7 Nd7 1_555 1_555
O52_7 W1_7 1_555 1_555
O53_7 Nd7 1_555 1_555
O56_7 W5_7 1_555 1_555
O58_7 W5_7 1_555 1_555
O59_7 W1_7 1_555 1_555
W7_7 O56_7 1_555 1_555
W9_7 O8_7 1_555 1_555
W9_7 O17_7 1_555 1_555
W9_7 O59_7 1_555 1_555
W10_7 O36_7 1_555 1_555
W12_7 O31_7 1_555 1_555
W12_7 O34_7 1_555 1_555
W12_7 O52_7 1_555 1_555
W12_7 O58_7 1_555 1_555
C18_7 C19_7 1_555 1_555
C21_7 O10_7 1_555 1_555
O53_7 H16_7 1_555 1_555
O53_7 H17_7 1_555 1_555
O51_7 H20_7 1_555 1_555
O48_7 H29_7 1_555 1_555
O48_7 H30_7 1_555 1_555
W1_8 O4_8 1_555 1_555
W2_8 O4_8 1_555 1_555
W3_8 O2_8 1_555 1_555
W4_8 O2_8 1_555 1_555
W5_8 O1_8 1_555 1_555
W6_8 O3_8 1_555 1_555
W7_8 O1_8 1_555 1_555
W8_8 O3_8 1_555 1_555
W9_8 O4_8 1_555 1_555
W10_8 O3_8 1_555 1_555
W11_8 O2_8 1_555 1_555
W12_8 O1_8 1_555 1_555
Nd6_2 O5_8 1_555 1_555
N1_8 C15_8 1_555 1_555
C6_8 C1_8 1_555 1_555
C15_8 C16_8 1_555 1_555
C16_8 H7_8 1_555 1_555
C17_8 C16_8 1_555 1_555
H8_8 C17_8 1_555 1_555
C18_8 C17_8 1_555 1_555
H9_8 C18_8 1_555 1_555
C19_8 N1_8 1_555 1_555
C21_8 C15_8 1_555 1_555
O7_8 W6_8 1_555 1_555
O8_8 W2_8 1_555 1_555
O10_8 Nd7_2 1_555 1_555
O12_8 W12_8 1_555 1_555
O63_2 W1_8 1_555 1_555
O16_8 W3_8 1_555 1_555
O17_8 W7_8 1_555 1_555
O18_8 W4_8 1_555 1_555
O19_8 W6_8 1_555 1_555
O21_6 W2_8 1_555 1_555
O22_8 W4_8 1_555 1_555
O23_8 W10_8 1_555 1_555
O24_8 W8_8 1_555 1_555
O27_8 W4_8 1_555 1_555
O28_8 W8_8 1_555 1_555
O29_8 W9_8 1_555 1_555
O30_8 Nd6_2 1_555 1_555
O31_8 W7_8 1_555 1_555
O64_4 W7_8 1_555 1_555
O34_8 W10_8 1_555 1_555
O36_8 W1_8 1_555 1_555
O38_8 W2_8 1_555 1_555
O39_8 W3_8 1_555 1_555
O40_8 Nd6_2 1_555 1_555
O41_8 W5_8 1_555 1_555
O42_8 W7_8 1_555 1_555
O66_3 W6_8 1_555 1_555
O47_8 W1_8 1_555 1_555
O48_8 Nd7_2 1_555 1_555
O49_8 W3_8 1_555 1_555
O50_8 W2_8 1_555 1_555
O51_8 Nd7_2 1_555 1_555
O52_8 W1_8 1_555 1_555
O53_8 Nd7_2 1_555 1_555
O54_8 W3_8 1_555 1_555
O55_8 W4_8 1_555 1_555
O56_8 W5_8 1_555 1_555
O57_8 W5_8 1_555 1_555
O58_8 W5_8 1_555 1_555
O59_8 W1_8 1_555 1_555
O60_8 Nd6_2 1_555 1_555
O62_8 C6_8 1_555 1_555
W2_8 O47_8 1_555 1_555
W3_8 O38_8 1_555 1_555
W4_8 O54_8 1_555 1_555
W5_8 O22_8 1_555 1_555
W6_8 O39_8 1_555 1_555
W6_8 O50_8 1_555 1_555
W7_8 O56_8 1_555 1_555
W8_8 O19_8 1_555 1_555
W8_8 O27_8 1_555 1_555
W8_8 O57_8 1_555 1_555
W9_8 O8_8 1_555 1_555
W9_8 O17_8 1_555 1_555
W9_8 O59_8 1_555 1_555
W10_8 O28_8 1_555 1_555
W10_8 O36_8 1_555 1_555
W10_8 O66_3 1_555 1_555
W11_8 O29_8 1_555 1_555
W11_8 O42_8 1_555 1_555
W11_8 O49_8 1_555 1_555
W11_8 O55_8 1_555 1_555
W12_8 O31_8 1_555 1_555
W12_8 O34_8 1_555 1_555
W12_8 O52_8 1_555 1_555
W12_8 O58_8 1_555 1_555
Nd6_2 O16_8 1_555 1_555
C6_8 O60_8 1_555 1_555
C18_8 C19_8 1_555 1_555
C21_8 O10_8 1_555 1_555
O5_8 H10_8 1_555 1_555
O5_8 H11_8 1_555 1_555
O53_8 H16_8 1_555 1_555
O53_8 H17_8 1_555 1_555
O51_8 H20_8 1_555 1_555
O40_8 H21_8 1_555 1_555
O40_8 H22_8 1_555 1_555
O30_8 H23_6 1_555 1_555
O30_8 H24_6 1_555 1_555
O62_8 H25_8 1_555 1_555
O25_8 H26_8 1_555 1_555
O48_8 H29_8 1_555 1_555
O48_8 H30_8 1_555 1_555
C2_8 H1_8 1_555 1_555
C3_8 C2_8 1_555 1_555
H2_8 C3_8 1_555 1_555
C4_8 C3_8 1_555 1_555
H3_8 C4_8 1_555 1_555
C5_8 C4_8 1_555 1_555
C7_8 C5_8 1_555 1_555
O67_4 C7_8 1_555 1_555
C5_8 N3_8 1_555 1_555
C7_8 O61_8 1_555 1_555
N2_8 Nd4_3 1_555 1_555
C8_8 N2_8 1_555 1_555
C9_8 C8_8 1_555 1_555
H4_8 C9_8 1_555 1_555
C10_8 C9_8 1_555 1_555
H5_8 C10_8 1_555 1_555
C11_8 C10_8 1_555 1_555
H6_8 C11_8 1_555 1_555
C12_8 N2_8 1_555 1_555
C13_8 C8_8 1_555 1_555
C14_8 C12_8 1_555 1_555
O9_8 Nd4_3 1_555 1_555
O11_8 Nd4_3 1_555 1_555
O26_8 Nd4_3 1_555 1_555
O32_8 C14_8 1_555 1_555
O65_2 C13_8 1_555 1_555
O37_8 Nd4_3 1_555 1_555
O43_8 Nd4_3 1_555 1_555
C11_8 C12_8 1_555 1_555
C13_8 O11_8 1_555 1_555
C14_8 O9_8 1_555 1_555
C20_8 O43_8 1_555 1_555
O20_8 H12_8 1_555 1_555
O20_8 H13_8 1_555 1_555
O6_8 H15_8 1_555 1_555
O32_8 H18_8 1_555 1_555
O45_8 H27_8 1_555 1_555
O45_8 H28_8 1_555 1_555
O37_8 H31_8 1_555 1_555
O37_8 H32_8 1_555 1_555

#END
