
###############################################################################
#
# This file contains modified crystal structure data generated from the
# MOF subset of the Cambridge Structural Database (CSD) v543 
# hosted by the Cambridge Crystallographic Data Centre (CCDC).
#
# This work is licensed under the Creative Commons
# Attribution-NonCommercial-ShareAlike 4.0 International License.
# To view a copy of this license, visit
# http://creativecommons.org/licenses/by-nc-sa/4.0/
# or send a letter to
# Creative Commons, PO Box 1866, Mountain View, CA 94042, USA.
#
# CIF created using the CSD Python API on 29 September 2022
# The structure has been converted into the P1 space group
# The structure has a 3D framework
# The original CSD entry DUYROF is in the orthorhombic crystal system
# The framework has been calculated to contain at least 10.0% void space
# The void calculation uses a probe of radius 1.32A, grid spacing 0.4
# H atom positions have been added when not included in the experimental data
#
###############################################################################

data_DUYROF
_chemical_formula_moiety         '(C168 H256 La24 N24 O496 W96)n'
_symmetry_cell_setting           triclinic
_symmetry_space_group_name_H-M   'P 1'
_symmetry_Int_Tables_number      1
_space_group_name_Hall           'P 1'
loop_
_symmetry_equiv_pos_site_id
_symmetry_equiv_pos_as_xyz
1 x,y,z
_cell_length_a                   23.556(5)
_cell_length_b                   20.499(5)
_cell_length_c                   29.823(5)
_cell_angle_alpha                90
_cell_angle_beta                 90
_cell_angle_gamma                90
_cell_volume                     14400.8
loop_
_atom_site_label
_atom_site_type_symbol
_atom_site_fract_x
_atom_site_fract_y
_atom_site_fract_z
W1 W 0.596961(10) 0.129789(10) 0.132512(7)
W2 W 0.476811(10) 0.065671(10) 0.099285(8)
W3 W 0.370547(10) 0.338157(10) 0.091559(7)
W4 W 0.400373(11) 0.150148(10) 0.191838(7)
W5 W 0.554612(11) 0.151859(10) 0.029275(7)
W6 W 0.508810(10) 0.402848(10) 0.130450(7)
W7 W 0.360600(10) 0.180482(10) 0.073864(7)
W8 W 0.419445(11) 0.306939(10) 0.207932(7)
W9 W 0.616811(10) 0.306651(10) 0.153526(7)
W10 W 0.522351(11) 0.207284(10) 0.225176(7)
W11 W 0.576792(10) 0.327579(10) 0.049612(7)
W12 W 0.438335(10) 0.270259(10) 0.006684(7)
La1 La 0.471752(14) 0.093474(14) 0.315314(10)
N2 N 0.48514(19) 0.2062(2) 0.35635(13)
N3 N 0.7339(2) 0.2916(2) 0.00825(14)
C1 C 0.7563(4) 0.1836(3) 0.0298(2)
H1 H 0.7538 0.1392 0.0240
C2 C 0.7802(3) 0.2078(3) 0.0689(2)
H2 H 0.7998 0.1794 0.0876
C5 C 0.7759(3) 0.2712(3) 0.0809(2)
H5 H 0.7873 0.2862 0.1089
C7 C 0.5020(3) 0.3266(3) 0.3969(2)
H6 H 0.5081 0.3672 0.4100
C8 C 0.7527(3) 0.3135(3) 0.04768(19)
C9 C 0.7366(3) 0.2297(3) 0.00056(19)
C10 C 0.5423(3) 0.2778(3) 0.40132(19)
H7 H 0.5753 0.2844 0.4178
C12 C 0.4446(3) 0.2542(3) 0.35319(19)
C13 C 0.5709(2) 0.1588(3) 0.38414(19)
C14 C 0.4533(3) 0.3154(3) 0.37332(16)
H8 H 0.4261 0.3481 0.3706
C16 C 0.3926(2) 0.2321(2) 0.32953(18)
C17 C 0.5315(2) 0.2182(3) 0.38000(18)
C20 C 0.7489(3) 0.3866(3) 0.05584(18)
O1 O 0.42893(17) 0.25273(17) 0.08083(12)
O2 O 0.52126(17) 0.16241(17) 0.09987(12)
O3 O 0.44128(17) 0.38835(17) 0.10088(12)
O4 O 0.53385(17) 0.30229(17) 0.11283(12)
O5 O 0.7771(2) 0.1053(2) 0.16483(15)
O6 O 0.41319(17) 0.11486(17) 0.07020(12)
O7 O 0.38235(18) 0.35725(18) 0.24338(13)
O8 O 0.7145(2) 0.0457(2) 0.06780(14)
O9 O 0.51327(17) 0.07454(17) 0.03989(12)
O10 O 0.47289(17) 0.27500(18) 0.25061(13)
O11 O 0.45861(18) 0.14232(18) 0.23635(13)
O12 O 0.55513(17) 0.14406(17) 0.18706(12)
O14 O 0.55776(19) 0.10839(19) 0.36296(13)
O15 O 0.32293(17) 0.26727(17) 0.08210(12)
O16 O 0.35163(18) 0.09633(19) 0.21391(13)
O17 O 0.50580(17) 0.48508(17) 0.14535(12)
O19 O 0.37830(17) 0.20916(17) 0.01299(12)
O20 O 0.62344(17) 0.21462(17) 0.13646(12)
O21 O 0.63677(17) 0.32775(17) 0.09361(12)
O22 O 0.54974(18) 0.18294(18) 0.27704(13)
O23 O 0.47424(17) 0.36405(17) 0.18256(12)
O24 O 0.54828(17) 0.04899(17) 0.12545(12)
O25 O 0.50330(17) 0.32201(17) 0.02126(12)
O26 O 0.57332(17) 0.26787(17) 0.20270(12)
O27 O 0.37198(18) 0.22969(18) 0.21793(13)
O29 O 0.49023(17) 0.19785(18) 0.00740(12)
O30 O 0.67973(18) 0.31744(18) 0.18054(13)
O31 O 0.61638(17) 0.36086(18) 0.00682(13)
O32 O 0.58705(17) 0.23906(17) 0.03866(12)
O33 O 0.29875(18) 0.13880(18) 0.06024(13)
O34 O 0.65560(17) 0.08421(17) 0.15077(12)
O35 O 0.7635(2) 0.4063(2) 0.09320(15)
O37 O 0.6112(2) 0.1641(2) 0.40957(15)
O38 O 0.4306(2) 0.0926(2) 0.39812(14)
O41 O 0.58264(17) 0.38720(17) 0.16257(12)
O43 O 0.6891(2) 0.0198(2) 0.22872(15)
O44 O 0.55412(18) 0.04100(18) 0.27064(13)
O45 O 0.44241(17) 0.09138(17) 0.15336(12)
O46 O 0.55299(17) 0.41064(17) 0.07660(12)
O47 O 0.7308(2) 0.4203(2) 0.02491(15)
O48 O 0.38960(18) 0.17659(18) 0.31573(13)
O49 O 0.61359(17) 0.12180(17) 0.06925(12)
O50 O 0.38884(17) 0.33917(17) 0.02844(12)
O51 O 0.46402(17) 0.22380(17) 0.17326(12)
O52 O 0.37450(17) 0.32076(17) 0.15371(12)
O53 O 0.32116(16) 0.40143(16) 0.09040(12)
O58 O 0.35344(19) 0.27546(19) 0.32600(14)
O60 O 0.37575(19) 0.04240(19) 0.31529(14)
O62 O 0.36064(17) 0.17371(18) 0.13611(12)
La4 La 0.528248(14) 0.593474(14) 0.184686(10)
La5 La 0.194110(15) 0.120530(16) 0.050530(11)
La6 La 0.694110(15) 0.120530(16) 0.449470(11)
La7 La 0.769520(15) 0.495830(15) 0.146920(11)
H10 H 0.749036 0.140923 0.16062
H11 H 0.790525 0.105204 0.196393
H18 H 0.66734 0.0612838 0.228269
H20 H 0.859268 0.000927902 0.124513
H22 H 0.751726 0.0570537 0.0542657
H23 H 0.694766 0.0134454 0.0484568
H26 H 0.445133 0.053745 0.414356
H27 H 0.442769 0.132801 0.414017
H32 H 0.368238 0.313539 0.309061
La2 La 0.694110(15) 0.379470(16) 0.949470(11)
C6 C 0.7131(3) 0.2101(3) 0.9580(2)
O28 O 0.58826(18) 0.13016(18) 0.98007(12)
O36 O 0.7101(2) 0.1473(2) 0.94971(17)
O40 O 0.6951(2) 0.2523(2) 0.92989(16)
O42 O 0.43300(16) 0.28954(17) 0.95123(12)
O54 O 0.7215(3) 0.3822(3) 0.86488(17)
O55 O 0.6211(2) 0.4725(2) 0.94502(18)
O57 O 0.7431(2) 0.4888(2) 0.93559(17)
O64 O 0.79875(18) 0.36120(18) 0.93976(13)
O66 O 0.6112(2) 0.3359(2) 0.90957(15)
H14 H 0.685957 0.125929 0.972715
H15 H 0.710247 0.340458 0.850512
H16 H 0.701539 0.418923 0.849949
H28 H 0.63075 0.506544 0.967447
H29 H 0.621738 0.491844 0.914498
H30 H 0.78235 0.481048 0.924676
H31 H 0.721551 0.513808 0.91271
La3 La 0.730480(15) 0.995830(15) 0.146920(11)
N1 N 0.44880(18) 0.99302(19) 0.26043(13)
C3 C 0.4284(3) 0.8879(3) 0.2070(2)
H3 H 0.4210 0.8519 0.1889
C4 C 0.4836(3) 0.9160(3) 0.20682(19)
H4 H 0.5131 0.8994 0.1895
C11 C 0.4901(3) 0.9687(3) 0.23388(17)
C15 C 0.3857(3) 0.9131(3) 0.2335(2)
H9 H 0.3493 0.8956 0.2339
C18 C 0.5446(3) 0.9994(2) 0.24004(18)
C19 C 0.3573(3) 0.9951(3) 0.29243(17)
C21 C 0.4003(3) 0.9648(3) 0.25876(17)
O13 O 0.7114(2) 0.8922(2) 0.19318(15)
O18 O 0.62983(19) 0.95226(19) 0.12333(14)
O39 O 0.45199(19) 0.98701(18) 0.09324(13)
O56 O 0.8274(2) 0.9963(2) 0.10295(16)
O59 O 0.3081(2) 0.9716(2) 0.29545(14)
O61 O 0.58665(19) 0.97948(19) 0.21359(13)
La8 La 0.230480(15) 0.995830(15) 0.353080(11)
O63 O 0.49420(17) 0.98508(17) 0.35465(12)
O65 O 0.7365(2) 0.9063(2) 0.09320(15)
O67 O 0.8081(2) 0.9716(2) 0.20455(14)
H12 H 0.618492 0.972442 0.0944162
H13 H 0.631332 0.904112 0.119865
H17 H 0.576297 0.987416 0.181778
H19 H 0.663664 0.983538 0.237872
H21 H 0.831567 0.954721 0.0861859
H24 H 0.686885 0.903185 0.219194
H25 H 0.691983 0.85935 0.174112
N1_2 N 0.05120(18) 0.00698(19) 0.76043(13)
C3_2 C 0.0716(3) 0.1121(3) 0.7070(2)
H3_2 H 0.0790 0.1481 0.6889
C4_2 C 0.0164(3) 0.0840(3) 0.70682(19)
C11_2 C 0.0099(3) 0.0313(3) 0.73388(17)
C15_2 C 0.1143(3) 0.0869(3) 0.7335(2)
H9_2 H 0.1507 0.1044 0.7339
C19_2 C 0.1427(3) 0.0049(3) 0.79243(17)
C21_2 C 0.0997(3) 0.0352(3) 0.75876(17)
O39_2 O 0.04801(19) 0.01299(18) 0.59324(13)
O59_2 O 0.1919(2) 0.0284(2) 0.79545(14)
La8_2 La 0.269520(15) 0.004170(15) 0.853080(11)
O63_2 O 0.00580(17) 0.01492(17) 0.85465(12)
W2_2 W 0.023189(10) 0.934329(10) 0.599285(8)
W3_2 W 0.129453(10) 0.661843(10) 0.591559(7)
W4_2 W 0.099627(11) 0.849852(10) 0.691838(7)
W7_2 W 0.139400(10) 0.819518(10) 0.573864(7)
W8_2 W 0.080555(11) 0.693061(10) 0.707932(7)
W12_2 W 0.061665(10) 0.729741(10) 0.506684(7)
La1_2 La 0.028248(14) 0.906526(14) 0.815314(10)
N2_2 N 0.01486(19) 0.7938(2) 0.85635(13)
C12_2 C 0.0554(3) 0.7458(3) 0.85319(19)
C14_2 C 0.0467(3) 0.6846(3) 0.87332(16)
H8_2 H 0.0739 0.6519 0.8706
C16_2 C 0.1074(2) 0.7679(2) 0.82953(18)
O1_2 O 0.07107(17) 0.74727(17) 0.58083(12)
O3_2 O 0.05872(17) 0.61165(17) 0.60088(12)
O6_2 O 0.08681(17) 0.88514(17) 0.57020(12)
O7_2 O 0.11765(18) 0.64275(18) 0.74338(13)
O10_2 O 0.02711(17) 0.72500(18) 0.75061(13)
O11_2 O 0.04139(18) 0.85768(18) 0.73635(13)
O15_2 O 0.17707(17) 0.73273(17) 0.58210(12)
O16_2 O 0.14837(18) 0.90367(19) 0.71391(13)
O19_2 O 0.12170(17) 0.79084(17) 0.51299(12)
O23_2 O 0.02576(17) 0.63595(17) 0.68256(12)
O27_2 O 0.12802(18) 0.77031(18) 0.71793(13)
O29_2 O 0.00977(17) 0.80215(18) 0.50740(12)
O33_2 O 0.20125(18) 0.86120(18) 0.56024(13)
O38_2 O 0.0694(2) 0.9074(2) 0.89812(14)
O42_2 O 0.06700(16) 0.71046(17) 0.45123(12)
O45_2 O 0.05759(17) 0.90862(17) 0.65336(12)
O48_2 O 0.11040(18) 0.82341(18) 0.81573(13)
O50_2 O 0.11116(17) 0.66083(17) 0.52844(12)
O51_2 O 0.03598(17) 0.77620(17) 0.67326(12)
O52_2 O 0.12550(17) 0.67924(17) 0.65371(12)
O53_2 O 0.17884(16) 0.59857(16) 0.59040(12)
O58_2 O 0.14656(19) 0.72454(19) 0.82600(14)
O60_2 O 0.12425(19) 0.95760(19) 0.81529(14)
O62_2 O 0.13936(17) 0.82629(18) 0.63611(12)
La5_2 La 0.305890(15) 0.879470(16) 0.550530(11)
H26_2 H 0.0548665 0.946255 0.914356
H27_2 H 0.0572312 0.867199 0.914017
H32_2 H 0.131762 0.686461 0.809061
La3_2 La 0.769520(15) 0.004170(15) 0.646920(11)
H4_2 H 0.9869 0.1006 0.6895
C18_2 C 0.9554(3) 0.0006(2) 0.74004(18)
O13_2 O 0.7886(2) 0.1078(2) 0.69318(15)
O18_2 O 0.87017(19) 0.04774(19) 0.62333(14)
O56_2 O 0.6726(2) 0.0037(2) 0.60295(16)
O61_2 O 0.91335(19) 0.02052(19) 0.71359(13)
O65_2 O 0.7635(2) 0.0937(2) 0.59320(15)
O67_2 O 0.6919(2) 0.0284(2) 0.70455(14)
H12_2 H 0.881508 0.0275575 0.594416
H13_2 H 0.868668 0.0958875 0.619865
H17_2 H 0.923703 0.0125842 0.681778
H19_2 H 0.836336 0.0164624 0.737872
H21_2 H 0.668433 0.0452789 0.586186
H24_2 H 0.813115 0.0968154 0.719194
H25_2 H 0.808017 0.14065 0.674112
W1_2 W 0.903039(10) 0.870211(10) 0.632512(7)
W5_2 W 0.945388(11) 0.848141(10) 0.529275(7)
W6_2 W 0.991190(10) 0.597152(10) 0.630450(7)
W9_2 W 0.883189(10) 0.693349(10) 0.653526(7)
W10_2 W 0.977649(11) 0.792716(10) 0.725176(7)
W11_2 W 0.923208(10) 0.672421(10) 0.549612(7)
La2_2 La 0.805890(15) 0.620530(16) 0.449470(11)
N3_2 N 0.7661(2) 0.7084(2) 0.50825(14)
C1_2 C 0.7437(4) 0.8164(3) 0.5298(2)
H1_2 H 0.7462 0.8608 0.5240
C2_2 C 0.7198(3) 0.7922(3) 0.5689(2)
H2_2 H 0.7002 0.8206 0.5876
C5_2 C 0.7241(3) 0.7288(3) 0.5809(2)
H5_2 H 0.7127 0.7138 0.6089
C6_2 C 0.7869(3) 0.7899(3) 0.4580(2)
C7_2 C 0.9980(3) 0.6734(3) 0.8969(2)
H6_2 H 0.9919 0.6328 0.9100
C8_2 C 0.7473(3) 0.6865(3) 0.54768(19)
C9_2 C 0.7634(3) 0.7703(3) 0.50056(19)
C10_2 C 0.9577(3) 0.7222(3) 0.90132(19)
H7_2 H 0.9247 0.7156 0.9178
C13_2 C 0.9291(2) 0.8412(3) 0.88414(19)
C17_2 C 0.9685(2) 0.7818(3) 0.88000(18)
C20_2 C 0.7511(3) 0.6134(3) 0.55584(18)
O2_2 O 0.97874(17) 0.83759(17) 0.59987(12)
O4_2 O 0.96615(17) 0.69771(17) 0.61283(12)
O5_2 O 0.7229(2) 0.8947(2) 0.66483(15)
O8_2 O 0.7855(2) 0.9543(2) 0.56780(14)
O9_2 O 0.98673(17) 0.92546(17) 0.53989(12)
O12_2 O 0.94487(17) 0.85594(17) 0.68706(12)
O14_2 O 0.94224(19) 0.89161(19) 0.86296(13)
O17_2 O 0.99420(17) 0.51492(17) 0.64535(12)
O20_2 O 0.87656(17) 0.78538(17) 0.63646(12)
O21_2 O 0.86323(17) 0.67225(17) 0.59361(12)
O22_2 O 0.95026(18) 0.81706(18) 0.77704(13)
O24_2 O 0.95172(17) 0.95101(17) 0.62545(12)
O25_2 O 0.99670(17) 0.67799(17) 0.52126(12)
O26_2 O 0.92668(17) 0.73213(17) 0.70270(12)
O28_2 O 0.91174(18) 0.86984(18) 0.48007(12)
O30_2 O 0.82027(18) 0.68256(18) 0.68054(13)
O31_2 O 0.88362(17) 0.63914(18) 0.50682(13)
O32_2 O 0.91295(17) 0.76094(17) 0.53866(12)
O34_2 O 0.84440(17) 0.91579(17) 0.65077(12)
O35_2 O 0.7365(2) 0.5937(2) 0.59320(15)
O36_2 O 0.7899(2) 0.8527(2) 0.44971(17)
O37_2 O 0.8888(2) 0.8359(2) 0.90957(15)
O40_2 O 0.8049(2) 0.7477(2) 0.42989(16)
O41_2 O 0.91736(17) 0.61280(17) 0.66257(12)
O43_2 O 0.8109(2) 0.9802(2) 0.72872(15)
O44_2 O 0.94588(18) 0.95900(18) 0.77064(13)
O46_2 O 0.94701(17) 0.58936(17) 0.57660(12)
O47_2 O 0.7692(2) 0.5797(2) 0.52491(15)
O49_2 O 0.88641(17) 0.87820(17) 0.56925(12)
O54_2 O 0.7785(3) 0.6178(3) 0.36488(17)
O55_2 O 0.8789(2) 0.5275(2) 0.44502(18)
O57_2 O 0.7569(2) 0.5112(2) 0.43559(17)
La4_2 La 0.971752(14) 0.406526(14) 0.684686(10)
La6_2 La 0.805890(15) 0.879470(16) 0.949470(11)
La7_2 La 0.730480(15) 0.504170(15) 0.646920(11)
O64_2 O 0.70125(18) 0.63880(18) 0.43976(13)
O66_2 O 0.8888(2) 0.6641(2) 0.40957(15)
H10_2 H 0.750964 0.859077 0.66062
H11_2 H 0.709475 0.894796 0.696393
H14_2 H 0.814043 0.874071 0.472715
H15_2 H 0.789753 0.659542 0.350512
H16_2 H 0.798461 0.581077 0.349949
H18_2 H 0.83266 0.938716 0.728269
H20_2 H 0.640732 0.999072 0.624513
H22_2 H 0.748274 0.942946 0.554266
H23_2 H 0.805234 0.986555 0.548457
H28_2 H 0.86925 0.493456 0.467447
H29_2 H 0.878262 0.508156 0.414498
H30_2 H 0.71765 0.518952 0.424676
H31_2 H 0.778449 0.486192 0.41271
C6_3 C 0.2131(3) 0.2899(3) 0.0420(2)
O28_3 O 0.08826(18) 0.36984(18) 0.01993(12)
O36_3 O 0.2101(2) 0.3527(2) 0.05029(17)
O40_3 O 0.1951(2) 0.2477(2) 0.07011(16)
O54_3 O 0.2215(3) 0.1178(3) 0.13512(17)
O55_3 O 0.1211(2) 0.0275(2) 0.05498(18)
O57_3 O 0.2431(2) 0.0112(2) 0.06441(17)
O66_3 O 0.1112(2) 0.1641(2) 0.09043(15)
H14_3 H 0.185957 0.374071 0.027285
H15_3 H 0.210247 0.159542 0.149488
H16_3 H 0.201539 0.0810775 0.150051
H29_3 H 0.121738 0.00815626 0.0855024
H30_3 H 0.28235 0.0189522 0.0753243
W1_3 W 0.096961(10) 0.370211(10) 0.867488(7)
W5_3 W 0.054612(11) 0.348141(10) 0.970725(7)
W6_3 W 0.008810(10) 0.097152(10) 0.869550(7)
W9_3 W 0.116811(10) 0.193349(10) 0.846474(7)
W10_3 W 0.022351(11) 0.292716(10) 0.774824(7)
W11_3 W 0.076792(10) 0.172421(10) 0.950388(7)
La3_3 La 0.230480(15) 0.504170(15) 0.853080(11)
N3_3 N 0.2339(2) 0.2084(2) 0.99175(14)
C1_3 C 0.2563(4) 0.3164(3) 0.9702(2)
H1_3 H 0.2538 0.3608 0.9760
C2_3 C 0.2802(3) 0.2922(3) 0.9311(2)
H2_3 H 0.2998 0.3206 0.9124
H4_3 H 0.0131 0.6006 0.8105
C5_3 C 0.2759(3) 0.2288(3) 0.9191(2)
H5_3 H 0.2873 0.2138 0.8911
C7_3 C 0.0020(3) 0.1734(3) 0.6031(2)
H6_3 H 0.0081 0.1328 0.5900
C8_3 C 0.2527(3) 0.1865(3) 0.95232(19)
C9_3 C 0.2366(3) 0.2703(3) 0.99944(19)
C10_3 C 0.0423(3) 0.2222(3) 0.59868(19)
H7_3 H 0.0753 0.2156 0.5822
C13_3 C 0.0709(2) 0.3412(3) 0.61586(19)
C17_3 C 0.0315(2) 0.2818(3) 0.62000(18)
C18_3 C 0.0446(3) 0.5006(2) 0.75996(18)
C20_3 C 0.2489(3) 0.1134(3) 0.94416(18)
O2_3 O 0.02126(17) 0.33759(17) 0.90013(12)
O4_3 O 0.03385(17) 0.19771(17) 0.88717(12)
O5_3 O 0.2771(2) 0.3947(2) 0.83517(15)
O8_3 O 0.2145(2) 0.4543(2) 0.93220(14)
O9_3 O 0.01327(17) 0.42546(17) 0.96011(12)
O12_3 O 0.05513(17) 0.35594(17) 0.81294(12)
O13_3 O 0.2114(2) 0.6078(2) 0.80682(15)
O14_3 O 0.05776(19) 0.39161(19) 0.63704(13)
O18_3 O 0.12983(19) 0.54774(19) 0.87667(14)
O20_3 O 0.12344(17) 0.28538(17) 0.86354(12)
O21_3 O 0.13677(17) 0.17225(17) 0.90639(12)
O22_3 O 0.04974(18) 0.31706(18) 0.72296(13)
O24_3 O 0.04828(17) 0.45101(17) 0.87455(12)
O25_3 O 0.00330(17) 0.17799(17) 0.97874(12)
O26_3 O 0.07332(17) 0.23213(17) 0.79730(12)
O30_3 O 0.17973(18) 0.18256(18) 0.81946(13)
O31_3 O 0.11638(17) 0.13914(18) 0.99318(13)
O32_3 O 0.08705(17) 0.26094(17) 0.96134(12)
O34_3 O 0.15560(17) 0.41579(17) 0.84923(12)
O35_3 O 0.2635(2) 0.0937(2) 0.90680(15)
O37_3 O 0.1112(2) 0.3359(2) 0.59043(15)
O41_3 O 0.08264(17) 0.11280(17) 0.83743(12)
O43_3 O 0.1891(2) 0.4802(2) 0.77128(15)
O44_3 O 0.05412(18) 0.45900(18) 0.72936(13)
O46_3 O 0.05299(17) 0.08936(17) 0.92340(12)
O47_3 O 0.2308(2) 0.0797(2) 0.97509(15)
O49_3 O 0.11359(17) 0.37820(17) 0.93075(12)
O56_3 O 0.3274(2) 0.5037(2) 0.89705(16)
O61_3 O 0.08665(19) 0.52052(19) 0.78641(13)
La6_3 La 0.194110(15) 0.379470(16) 0.550530(11)
O65_3 O 0.2365(2) 0.5937(2) 0.90680(15)
O67_3 O 0.3081(2) 0.5284(2) 0.79545(14)
H10_3 H 0.249036 0.359077 0.83938
H11_3 H 0.290525 0.394796 0.803607
H12_3 H 0.118492 0.527558 0.905584
H13_3 H 0.131332 0.595888 0.880135
H17_3 H 0.0762967 0.512584 0.818222
H18_3 H 0.16734 0.438716 0.771731
H19_3 H 0.163664 0.516462 0.762128
H20_3 H 0.359268 0.499072 0.875487
H21_3 H 0.331567 0.545279 0.913814
H22_3 H 0.251726 0.442946 0.945734
H23_3 H 0.194766 0.486555 0.951543
H24_3 H 0.186885 0.596815 0.780806
H25_3 H 0.191983 0.64065 0.825888
W2_3 W 0.976811(10) 0.434329(10) 0.900715(8)
W3_3 W 0.870547(10) 0.161843(10) 0.908441(7)
W4_3 W 0.900373(11) 0.349852(10) 0.808162(7)
W7_3 W 0.860600(10) 0.319518(10) 0.926136(7)
W8_3 W 0.919445(11) 0.193061(10) 0.792068(7)
W12_3 W 0.938335(10) 0.229741(10) 0.993316(7)
N1_3 N 0.94880(18) 0.50698(19) 0.73957(13)
N2_3 N 0.98514(19) 0.2938(2) 0.64365(13)
C3_3 C 0.9284(3) 0.6121(3) 0.7930(2)
H3_3 H 0.9210 0.6481 0.8111
C4_3 C 0.9836(3) 0.5840(3) 0.79318(19)
C11_3 C 0.9901(3) 0.5313(3) 0.76612(17)
C12_3 C 0.9446(3) 0.2458(3) 0.64681(19)
C14_3 C 0.9533(3) 0.1846(3) 0.62668(16)
H8_3 H 0.9261 0.1519 0.6294
C15_3 C 0.8857(3) 0.5869(3) 0.7665(2)
H9_3 H 0.8493 0.6044 0.7661
C16_3 C 0.8926(2) 0.2679(2) 0.67047(18)
C19_3 C 0.8573(3) 0.5049(3) 0.70757(17)
C21_3 C 0.9003(3) 0.5352(3) 0.74124(17)
O1_3 O 0.92893(17) 0.24727(17) 0.91917(12)
O3_3 O 0.94128(17) 0.11165(17) 0.89912(12)
O6_3 O 0.91319(17) 0.38514(17) 0.92980(12)
O7_3 O 0.88235(18) 0.14275(18) 0.75662(13)
O10_3 O 0.97289(17) 0.22500(18) 0.74939(13)
O11_3 O 0.95861(18) 0.35768(18) 0.76365(13)
O15_3 O 0.82293(17) 0.23273(17) 0.91790(12)
O16_3 O 0.85163(18) 0.40367(19) 0.78609(13)
O19_3 O 0.87830(17) 0.29084(17) 0.98701(12)
O23_3 O 0.97424(17) 0.13595(17) 0.81744(12)
O27_3 O 0.87198(18) 0.27031(18) 0.78207(13)
O29_3 O 0.99023(17) 0.30215(18) 0.99260(12)
O38_3 O 0.9306(2) 0.4074(2) 0.60188(14)
O39_3 O 0.95199(19) 0.51299(18) 0.90676(13)
O45_3 O 0.94241(17) 0.40862(17) 0.84664(12)
O48_3 O 0.88960(18) 0.32341(18) 0.68427(13)
O50_3 O 0.88884(17) 0.16083(17) 0.97156(12)
O51_3 O 0.96402(17) 0.27620(17) 0.82674(12)
O52_3 O 0.87450(17) 0.17924(17) 0.84629(12)
O53_3 O 0.82116(16) 0.09857(16) 0.90960(12)
O58_3 O 0.85344(19) 0.22454(19) 0.67400(14)
O59_3 O 0.8081(2) 0.5284(2) 0.70455(14)
O60_3 O 0.87575(19) 0.45760(19) 0.68471(14)
O62_3 O 0.86064(17) 0.32629(18) 0.86389(12)
H26_3 H 0.945133 0.446255 0.585644
H27_3 H 0.942769 0.367199 0.585983
H32_3 H 0.868238 0.186461 0.690939
H28_3 H 0.36925 0.00654416 0.532553
H31_3 H 0.278449 0.0138077 0.58729
W1_4 W 0.403039(10) 0.629789(10) 0.367488(7)
W2_4 W 0.523189(10) 0.565671(10) 0.400715(8)
W3_4 W 0.629453(10) 0.838157(10) 0.408441(7)
W4_4 W 0.599627(11) 0.650148(10) 0.308162(7)
W5_4 W 0.445388(11) 0.651859(10) 0.470725(7)
W6_4 W 0.491190(10) 0.902848(10) 0.369550(7)
W7_4 W 0.639400(10) 0.680482(10) 0.426136(7)
W8_4 W 0.580555(11) 0.806939(10) 0.292068(7)
W9_4 W 0.383189(10) 0.806651(10) 0.346474(7)
W10_4 W 0.477649(11) 0.707284(10) 0.274824(7)
W11_4 W 0.423208(10) 0.827579(10) 0.450388(7)
W12_4 W 0.561665(10) 0.770259(10) 0.493316(7)
La3_4 La 0.269520(15) 0.495830(15) 0.353080(11)
N1_4 N 0.55120(18) 0.49302(19) 0.23957(13)
N2_4 N 0.51486(19) 0.7062(2) 0.14365(13)
N3_4 N 0.2661(2) 0.7916(2) 0.49175(14)
C1_4 C 0.2437(4) 0.6836(3) 0.4702(2)
H1_4 H 0.2462 0.6392 0.4760
C2_4 C 0.2198(3) 0.7078(3) 0.4311(2)
H2_4 H 0.2002 0.6794 0.4124
C3_4 C 0.5716(3) 0.3879(3) 0.2930(2)
H3_4 H 0.5790 0.3519 0.3111
C4_4 C 0.5164(3) 0.4160(3) 0.29318(19)
H4_4 H 0.4869 0.3994 0.3105
C5_4 C 0.2241(3) 0.7712(3) 0.4191(2)
H5_4 H 0.2127 0.7862 0.3911
C6_4 C 0.2869(3) 0.7101(3) 0.5420(2)
C7_4 C 0.4980(3) 0.8266(3) 0.1031(2)
H6_4 H 0.4919 0.8672 0.0900
C8_4 C 0.2473(3) 0.8135(3) 0.45232(19)
C9_4 C 0.2634(3) 0.7297(3) 0.49944(19)
C10_4 C 0.4577(3) 0.7778(3) 0.09868(19)
H7_4 H 0.4247 0.7844 0.0822
C11_4 C 0.5099(3) 0.4687(3) 0.26612(17)
C12_4 C 0.5554(3) 0.7542(3) 0.14681(19)
C13_4 C 0.4291(2) 0.6588(3) 0.11586(19)
C14_4 C 0.5467(3) 0.8154(3) 0.12668(16)
H8_4 H 0.5739 0.8481 0.1294
C15_4 C 0.6143(3) 0.4131(3) 0.2665(2)
H9_4 H 0.6507 0.3956 0.2661
C16_4 C 0.6074(2) 0.7321(2) 0.17047(18)
C17_4 C 0.4685(2) 0.7182(3) 0.12000(18)
C18_4 C 0.4554(3) 0.4994(2) 0.25996(18)
C19_4 C 0.6427(3) 0.4951(3) 0.20757(17)
C20_4 C 0.2511(3) 0.8866(3) 0.44416(18)
C21_4 C 0.5997(3) 0.4648(3) 0.24124(17)
O1_4 O 0.57107(17) 0.75273(17) 0.41917(12)
O2_4 O 0.47874(17) 0.66241(17) 0.40013(12)
O3_4 O 0.55872(17) 0.88835(17) 0.39912(12)
O4_4 O 0.46615(17) 0.80229(17) 0.38717(12)
O5_4 O 0.2229(2) 0.6053(2) 0.33517(15)
O6_4 O 0.58681(17) 0.61486(17) 0.42980(12)
O7_4 O 0.61765(18) 0.85725(18) 0.25662(13)
O8_4 O 0.2855(2) 0.5457(2) 0.43220(14)
O9_4 O 0.48673(17) 0.57454(17) 0.46011(12)
O10_4 O 0.52711(17) 0.77500(18) 0.24939(13)
O11_4 O 0.54139(18) 0.64232(18) 0.26365(13)
O12_4 O 0.44487(17) 0.64406(17) 0.31294(12)
O13_4 O 0.2886(2) 0.3922(2) 0.30682(15)
O14_4 O 0.44224(19) 0.60839(19) 0.13704(13)
O15_4 O 0.67707(17) 0.76727(17) 0.41790(12)
O16_4 O 0.64837(18) 0.59633(19) 0.28609(13)
O18_4 O 0.37017(19) 0.45226(19) 0.37667(14)
O19_4 O 0.62170(17) 0.70916(17) 0.48701(12)
O20_4 O 0.37656(17) 0.71462(17) 0.36354(12)
O21_4 O 0.36323(17) 0.82775(17) 0.40639(12)
O22_4 O 0.45026(18) 0.68294(18) 0.22296(13)
O23_4 O 0.52576(17) 0.86405(17) 0.31744(12)
O24_4 O 0.45172(17) 0.54899(17) 0.37455(12)
O25_4 O 0.49670(17) 0.82201(17) 0.47874(12)
O26_4 O 0.42668(17) 0.76787(17) 0.29730(12)
O27_4 O 0.62802(18) 0.72969(18) 0.28207(13)
O28_4 O 0.41174(18) 0.63016(18) 0.51993(12)
O29_4 O 0.50977(17) 0.69785(18) 0.49260(12)
O30_4 O 0.32027(18) 0.81744(18) 0.31946(13)
O31_4 O 0.38362(17) 0.86086(18) 0.49318(13)
O32_4 O 0.41295(17) 0.73906(17) 0.46134(12)
O34_4 O 0.34440(17) 0.58421(17) 0.34923(12)
O35_4 O 0.2365(2) 0.9063(2) 0.40680(15)
O36_4 O 0.2899(2) 0.6473(2) 0.55029(17)
O37_4 O 0.3888(2) 0.6641(2) 0.09043(15)
O38_4 O 0.5694(2) 0.5926(2) 0.10188(14)
O39_4 O 0.54801(19) 0.48701(18) 0.40676(13)
O40_4 O 0.3049(2) 0.7523(2) 0.57011(16)
O41_4 O 0.41736(17) 0.88720(17) 0.33743(12)
O42_3 O 0.56700(16) 0.78954(17) 0.54877(12)
O43_4 O 0.3109(2) 0.5198(2) 0.27128(15)
O44_4 O 0.44588(18) 0.54100(18) 0.22936(13)
O45_4 O 0.55759(17) 0.59138(17) 0.34664(12)
O46_4 O 0.44701(17) 0.91064(17) 0.42340(12)
O47_4 O 0.2692(2) 0.9203(2) 0.47509(15)
O48_4 O 0.61040(18) 0.67659(18) 0.18427(13)
O49_4 O 0.38641(17) 0.62180(17) 0.43075(12)
O50_4 O 0.61116(17) 0.83917(17) 0.47156(12)
O51_4 O 0.53598(17) 0.72380(17) 0.32674(12)
O52_4 O 0.62550(17) 0.82076(17) 0.34629(12)
O53_4 O 0.67884(16) 0.90143(16) 0.40960(12)
O54_4 O 0.2785(3) 0.8822(3) 0.63512(17)
O55_4 O 0.3789(2) 0.9725(2) 0.55498(18)
O56_4 O 0.1726(2) 0.4963(2) 0.39705(16)
O57_4 O 0.2569(2) 0.9888(2) 0.56441(17)
O58_4 O 0.64656(19) 0.77546(19) 0.17400(14)
O59_4 O 0.6919(2) 0.4716(2) 0.20455(14)
O60_4 O 0.62425(19) 0.54240(19) 0.18471(14)
O61_4 O 0.41335(19) 0.47948(19) 0.28641(13)
O62_4 O 0.63936(17) 0.67371(18) 0.36389(12)
La6_4 La 0.305890(15) 0.620530(16) 0.050530(11)
O65_4 O 0.2635(2) 0.4063(2) 0.40680(15)
O66_4 O 0.3888(2) 0.8359(2) 0.59043(15)
O67_4 O 0.1919(2) 0.4716(2) 0.29545(14)
H10_4 H 0.250964 0.640923 0.33938
H11_4 H 0.209475 0.605204 0.303607
H12_4 H 0.381508 0.472442 0.405584
H13_4 H 0.368668 0.404112 0.380135
H14_4 H 0.314043 0.625929 0.527285
H15_4 H 0.289753 0.840458 0.649488
H16_4 H 0.298461 0.918923 0.650051
H17_4 H 0.423703 0.487416 0.318222
H18_4 H 0.33266 0.561284 0.271731
H19_4 H 0.336336 0.483538 0.262128
H20_4 H 0.140732 0.500928 0.375487
H21_4 H 0.168433 0.454721 0.413814
H22_4 H 0.248274 0.557054 0.445734
H23_4 H 0.305234 0.513445 0.451543
H24_4 H 0.313115 0.403185 0.280806
H25_4 H 0.308017 0.35935 0.325888
H26_4 H 0.554867 0.553745 0.0856441
H27_4 H 0.557231 0.632801 0.0859831
H29_4 H 0.378262 0.991844 0.585502
H30_4 H 0.21765 0.981048 0.575324
H32_4 H 0.631762 0.813539 0.190939
N1_5 N 0.55120(18) 0.00698(19) 0.73957(13)
C3_5 C 0.5716(3) 0.1121(3) 0.7930(2)
H3_5 H 0.5790 0.1481 0.8111
C4_5 C 0.5164(3) 0.0840(3) 0.79318(19)
H4_5 H 0.4869 0.1006 0.8105
C11_5 C 0.5099(3) 0.0313(3) 0.76612(17)
C15_5 C 0.6143(3) 0.0869(3) 0.7665(2)
H9_5 H 0.6507 0.1044 0.7661
C18_5 C 0.4554(3) 0.0006(2) 0.75996(18)
C19_5 C 0.6427(3) 0.0049(3) 0.70757(17)
C21_5 C 0.5997(3) 0.0352(3) 0.74124(17)
O13_5 O 0.2886(2) 0.1078(2) 0.80682(15)
O18_5 O 0.37017(19) 0.04774(19) 0.87667(14)
O39_5 O 0.54801(19) 0.01299(18) 0.90676(13)
O56_5 O 0.1726(2) 0.0037(2) 0.89705(16)
O61_5 O 0.41335(19) 0.02052(19) 0.78641(13)
O63_3 O 0.50580(17) 0.01492(17) 0.64535(12)
H12_5 H 0.381508 0.0275575 0.905584
H13_5 H 0.368668 0.0958875 0.880135
H17_5 H 0.423703 0.0125842 0.818222
H19_5 H 0.336336 0.0164624 0.762128
H21_5 H 0.168433 0.0452789 0.913814
H24_5 H 0.313115 0.0968154 0.780806
H25_5 H 0.308017 0.14065 0.825888
C6_5 C 0.2869(3) 0.7899(3) 0.0420(2)
O28_5 O 0.41174(18) 0.86984(18) 0.01993(12)
O36_5 O 0.2899(2) 0.8527(2) 0.05029(17)
O40_5 O 0.3049(2) 0.7477(2) 0.07011(16)
O42_4 O 0.56700(16) 0.71046(17) 0.04877(12)
O54_5 O 0.2785(3) 0.6178(3) 0.13512(17)
O55_5 O 0.3789(2) 0.5275(2) 0.05498(18)
O57_5 O 0.2569(2) 0.5112(2) 0.06441(17)
O64_3 O 0.20125(18) 0.63880(18) 0.06024(13)
H14_5 H 0.314043 0.874071 0.027285
H15_5 H 0.289753 0.659542 0.149488
H16_5 H 0.298461 0.581077 0.150051
H28_4 H 0.36925 0.493456 0.032553
H29_5 H 0.378262 0.508156 0.0855024
H30_5 H 0.21765 0.518952 0.0753243
H31_4 H 0.278449 0.486192 0.0872898
W1_5 W 0.403039(10) 0.870211(10) 0.867488(7)
W2_5 W 0.523189(10) 0.934329(10) 0.900715(8)
W3_5 W 0.629453(10) 0.661843(10) 0.908441(7)
W4_5 W 0.599627(11) 0.849852(10) 0.808162(7)
W5_5 W 0.445388(11) 0.848141(10) 0.970725(7)
W6_5 W 0.491190(10) 0.597152(10) 0.869550(7)
W7_5 W 0.639400(10) 0.819518(10) 0.926136(7)
W8_5 W 0.580555(11) 0.693061(10) 0.792068(7)
W9_5 W 0.383189(10) 0.693349(10) 0.846474(7)
W10_5 W 0.477649(11) 0.792716(10) 0.774824(7)
W11_5 W 0.423208(10) 0.672421(10) 0.950388(7)
W12_5 W 0.561665(10) 0.729741(10) 0.993316(7)
La1_3 La 0.528248(14) 0.906526(14) 0.684686(10)
N2_5 N 0.51486(19) 0.7938(2) 0.64365(13)
N3_5 N 0.2661(2) 0.7084(2) 0.99175(14)
C1_5 C 0.2437(4) 0.8164(3) 0.9702(2)
H1_5 H 0.2462 0.8608 0.9760
C2_5 C 0.2198(3) 0.7922(3) 0.9311(2)
H2_5 H 0.2002 0.8206 0.9124
C5_5 C 0.2241(3) 0.7288(3) 0.9191(2)
H5_5 H 0.2127 0.7138 0.8911
C7_5 C 0.4980(3) 0.6734(3) 0.6031(2)
H6_5 H 0.4919 0.6328 0.5900
C8_5 C 0.2473(3) 0.6865(3) 0.95232(19)
C9_5 C 0.2634(3) 0.7703(3) 0.99944(19)
C10_5 C 0.4577(3) 0.7222(3) 0.59868(19)
H7_5 H 0.4247 0.7156 0.5822
C12_5 C 0.5554(3) 0.7458(3) 0.64681(19)
C13_5 C 0.4291(2) 0.8412(3) 0.61586(19)
C14_5 C 0.5467(3) 0.6846(3) 0.62668(16)
H8_5 H 0.5739 0.6519 0.6294
C16_5 C 0.6074(2) 0.7679(2) 0.67047(18)
C17_5 C 0.4685(2) 0.7818(3) 0.62000(18)
C20_5 C 0.2511(3) 0.6134(3) 0.94416(18)
O1_5 O 0.57107(17) 0.74727(17) 0.91917(12)
O2_5 O 0.47874(17) 0.83759(17) 0.90013(12)
O3_5 O 0.55872(17) 0.61165(17) 0.89912(12)
O4_5 O 0.46615(17) 0.69771(17) 0.88717(12)
O5_5 O 0.2229(2) 0.8947(2) 0.83517(15)
O6_5 O 0.58681(17) 0.88514(17) 0.92980(12)
O7_5 O 0.61765(18) 0.64275(18) 0.75662(13)
O8_5 O 0.2855(2) 0.9543(2) 0.93220(14)
O9_5 O 0.48673(17) 0.92546(17) 0.96011(12)
O10_5 O 0.52711(17) 0.72500(18) 0.74939(13)
O11_5 O 0.54139(18) 0.85768(18) 0.76365(13)
O12_5 O 0.44487(17) 0.85594(17) 0.81294(12)
O14_5 O 0.44224(19) 0.89161(19) 0.63704(13)
O15_5 O 0.67707(17) 0.73273(17) 0.91790(12)
O16_5 O 0.64837(18) 0.90367(19) 0.78609(13)
O17_3 O 0.49420(17) 0.51492(17) 0.85465(12)
O19_5 O 0.62170(17) 0.79084(17) 0.98701(12)
O20_5 O 0.37656(17) 0.78538(17) 0.86354(12)
O21_5 O 0.36323(17) 0.67225(17) 0.90639(12)
O22_5 O 0.45026(18) 0.81706(18) 0.72296(13)
O23_5 O 0.52576(17) 0.63595(17) 0.81744(12)
O24_5 O 0.45172(17) 0.95101(17) 0.87455(12)
O25_5 O 0.49670(17) 0.67799(17) 0.97874(12)
O26_5 O 0.42668(17) 0.73213(17) 0.79730(12)
O27_5 O 0.62802(18) 0.77031(18) 0.78207(13)
O29_5 O 0.50977(17) 0.80215(18) 0.99260(12)
O30_5 O 0.32027(18) 0.68256(18) 0.81946(13)
O31_5 O 0.38362(17) 0.63914(18) 0.99318(13)
O32_5 O 0.41295(17) 0.76094(17) 0.96134(12)
O33_3 O 0.70125(18) 0.86120(18) 0.93976(13)
O34_5 O 0.34440(17) 0.91579(17) 0.84923(12)
O38_5 O 0.5694(2) 0.9074(2) 0.60188(14)
O41_5 O 0.41736(17) 0.61280(17) 0.83743(12)
O43_5 O 0.3109(2) 0.9802(2) 0.77128(15)
O44_5 O 0.44588(18) 0.95900(18) 0.72936(13)
O45_5 O 0.55759(17) 0.90862(17) 0.84664(12)
O46_5 O 0.44701(17) 0.58936(17) 0.92340(12)
O47_5 O 0.2692(2) 0.5797(2) 0.97509(15)
O48_5 O 0.61040(18) 0.82341(18) 0.68427(13)
O49_5 O 0.38641(17) 0.87820(17) 0.93075(12)
O50_5 O 0.61116(17) 0.66083(17) 0.97156(12)
O51_5 O 0.53598(17) 0.77620(17) 0.82674(12)
O52_5 O 0.62550(17) 0.67924(17) 0.84629(12)
O53_5 O 0.67884(16) 0.59857(16) 0.90960(12)
O58_5 O 0.64656(19) 0.72454(19) 0.67400(14)
O60_5 O 0.62425(19) 0.95760(19) 0.68471(14)
O62_5 O 0.63936(17) 0.82629(18) 0.86389(12)
La4_3 La 0.471752(14) 0.406526(14) 0.815314(10)
H10_5 H 0.250964 0.859077 0.83938
H11_5 H 0.209475 0.894796 0.803607
H18_5 H 0.33266 0.938716 0.771731
H20_5 H 0.140732 0.999072 0.875487
H22_5 H 0.248274 0.942946 0.945734
H23_5 H 0.305234 0.986555 0.951543
H26_5 H 0.554867 0.946255 0.585644
H27_5 H 0.557231 0.867199 0.585983
H32_5 H 0.631762 0.686461 0.690939
W1_6 W 0.096961(10) 0.129789(10) 0.367488(7)
W5_6 W 0.054612(11) 0.151859(10) 0.470725(7)
W6_6 W 0.008810(10) 0.402848(10) 0.369550(7)
W9_6 W 0.116811(10) 0.306651(10) 0.346474(7)
W10_6 W 0.022351(11) 0.207284(10) 0.274824(7)
W11_6 W 0.076792(10) 0.327579(10) 0.450388(7)
N3_6 N 0.2339(2) 0.2916(2) 0.49175(14)
C1_6 C 0.2563(4) 0.1836(3) 0.4702(2)
H1_6 H 0.2538 0.1392 0.4760
C2_6 C 0.2802(3) 0.2078(3) 0.4311(2)
H2_6 H 0.2998 0.1794 0.4124
C5_6 C 0.2759(3) 0.2712(3) 0.4191(2)
H5_6 H 0.2873 0.2862 0.3911
C6_6 C 0.2131(3) 0.2101(3) 0.5420(2)
C7_6 C 0.0020(3) 0.3266(3) 0.1031(2)
H6_6 H 0.0081 0.3672 0.0900
C8_6 C 0.2527(3) 0.3135(3) 0.45232(19)
C9_6 C 0.2366(3) 0.2297(3) 0.49944(19)
C10_6 C 0.0423(3) 0.2778(3) 0.09868(19)
H7_6 H 0.0753 0.2844 0.0822
C13_6 C 0.0709(2) 0.1588(3) 0.11586(19)
C17_6 C 0.0315(2) 0.2182(3) 0.12000(18)
C20_6 C 0.2489(3) 0.3866(3) 0.44416(18)
O2_6 O 0.02126(17) 0.16241(17) 0.40013(12)
O4_6 O 0.03385(17) 0.30229(17) 0.38717(12)
O5_6 O 0.2771(2) 0.1053(2) 0.33517(15)
O8_6 O 0.2145(2) 0.0457(2) 0.43220(14)
O9_6 O 0.01327(17) 0.07454(17) 0.46011(12)
O12_6 O 0.05513(17) 0.14406(17) 0.31294(12)
O14_6 O 0.05776(19) 0.10839(19) 0.13704(13)
O17_4 O 0.00580(17) 0.48508(17) 0.35465(12)
O20_6 O 0.12344(17) 0.21462(17) 0.36354(12)
O21_6 O 0.13677(17) 0.32775(17) 0.40639(12)
O22_6 O 0.04974(18) 0.18294(18) 0.22296(13)
O24_6 O 0.04828(17) 0.04899(17) 0.37455(12)
O25_6 O 0.00330(17) 0.32201(17) 0.47874(12)
O26_6 O 0.07332(17) 0.26787(17) 0.29730(12)
O28_6 O 0.08826(18) 0.13016(18) 0.51993(12)
O30_6 O 0.17973(18) 0.31744(18) 0.31946(13)
O31_6 O 0.11638(17) 0.36086(18) 0.49318(13)
O32_6 O 0.08705(17) 0.23906(17) 0.46134(12)
O34_6 O 0.15560(17) 0.08421(17) 0.34923(12)
O36_6 O 0.2101(2) 0.1473(2) 0.55029(17)
O40_6 O 0.1951(2) 0.2523(2) 0.57011(16)
O41_6 O 0.08264(17) 0.38720(17) 0.33743(12)
O43_6 O 0.1891(2) 0.0198(2) 0.27128(15)
O44_6 O 0.05412(18) 0.04100(18) 0.22936(13)
O46_6 O 0.05299(17) 0.41064(17) 0.42340(12)
O47_6 O 0.2308(2) 0.4203(2) 0.47509(15)
O49_6 O 0.11359(17) 0.12180(17) 0.43075(12)
O54_6 O 0.2215(3) 0.3822(3) 0.63512(17)
O55_6 O 0.1211(2) 0.4725(2) 0.55498(18)
O57_6 O 0.2431(2) 0.4888(2) 0.56441(17)
La4_4 La 0.028248(14) 0.593474(14) 0.315314(10)
O64_4 O 0.29875(18) 0.36120(18) 0.56024(13)
H10_6 H 0.249036 0.140923 0.33938
H11_6 H 0.290525 0.105204 0.303607
H14_6 H 0.185957 0.125929 0.527285
H15_6 H 0.210247 0.340458 0.649488
H16_6 H 0.201539 0.418923 0.650051
H18_6 H 0.16734 0.0612838 0.271731
H20_6 H 0.359268 0.000927902 0.375487
H22_6 H 0.251726 0.0570537 0.445734
H23_6 H 0.194766 0.0134454 0.451543
H28_5 H 0.13075 0.506544 0.532553
H29_6 H 0.121738 0.491844 0.585502
H30_6 H 0.28235 0.481048 0.575324
H31_5 H 0.221551 0.513808 0.58729
H4_6 H 0.0131 0.8994 0.3105
C18_6 C 0.0446(3) 0.9994(2) 0.25996(18)
O13_6 O 0.2114(2) 0.8922(2) 0.30682(15)
O18_6 O 0.12983(19) 0.95226(19) 0.37667(14)
O56_6 O 0.3274(2) 0.9963(2) 0.39705(16)
O61_6 O 0.08665(19) 0.97948(19) 0.28641(13)
H12_6 H 0.118492 0.972442 0.405584
H13_6 H 0.131332 0.904112 0.380135
H17_6 H 0.0762967 0.987416 0.318222
H19_6 H 0.163664 0.983538 0.262128
H21_6 H 0.331567 0.954721 0.413814
H24_6 H 0.186885 0.903185 0.280806
H25_6 H 0.191983 0.85935 0.325888
W2_6 W 0.976811(10) 0.065671(10) 0.400715(8)
W3_6 W 0.870547(10) 0.338157(10) 0.408441(7)
W4_6 W 0.900373(11) 0.150148(10) 0.308162(7)
W7_6 W 0.860600(10) 0.180482(10) 0.426136(7)
W8_6 W 0.919445(11) 0.306939(10) 0.292068(7)
W12_6 W 0.938335(10) 0.270259(10) 0.493316(7)
La1_4 La 0.971752(14) 0.093474(14) 0.184686(10)
N2_6 N 0.98514(19) 0.2062(2) 0.14365(13)
C12_6 C 0.9446(3) 0.2542(3) 0.14681(19)
C14_6 C 0.9533(3) 0.3154(3) 0.12668(16)
H8_6 H 0.9261 0.3481 0.1294
C16_6 C 0.8926(2) 0.2321(2) 0.17047(18)
O1_6 O 0.92893(17) 0.25273(17) 0.41917(12)
O3_6 O 0.94128(17) 0.38835(17) 0.39912(12)
O6_6 O 0.91319(17) 0.11486(17) 0.42980(12)
O7_6 O 0.88235(18) 0.35725(18) 0.25662(13)
O10_6 O 0.97289(17) 0.27500(18) 0.24939(13)
O11_6 O 0.95861(18) 0.14232(18) 0.26365(13)
O15_6 O 0.82293(17) 0.26727(17) 0.41790(12)
O16_6 O 0.85163(18) 0.09633(19) 0.28609(13)
O19_6 O 0.87830(17) 0.20916(17) 0.48701(12)
O23_6 O 0.97424(17) 0.36405(17) 0.31744(12)
O27_6 O 0.87198(18) 0.22969(18) 0.28207(13)
O29_6 O 0.99023(17) 0.19785(18) 0.49260(12)
O33_4 O 0.79875(18) 0.13880(18) 0.43976(13)
O38_6 O 0.9306(2) 0.0926(2) 0.10188(14)
O42_5 O 0.93300(16) 0.28954(17) 0.54877(12)
O45_6 O 0.94241(17) 0.09138(17) 0.34664(12)
O48_6 O 0.88960(18) 0.17659(18) 0.18427(13)
O50_6 O 0.88884(17) 0.33917(17) 0.47156(12)
O51_6 O 0.96402(17) 0.22380(17) 0.32674(12)
O52_6 O 0.87450(17) 0.32076(17) 0.34629(12)
O53_6 O 0.82116(16) 0.40143(16) 0.40960(12)
O58_6 O 0.85344(19) 0.27546(19) 0.17400(14)
O60_6 O 0.87575(19) 0.04240(19) 0.18471(14)
O62_6 O 0.86064(17) 0.17371(18) 0.36389(12)
H26_6 H 0.945133 0.053745 0.0856441
H27_6 H 0.942769 0.132801 0.0859831
H32_6 H 0.868238 0.313539 0.190939
N1_6 N 0.94880(18) 0.99302(19) 0.23957(13)
C3_6 C 0.9284(3) 0.8879(3) 0.2930(2)
H3_6 H 0.9210 0.8519 0.3111
C4_6 C 0.9836(3) 0.9160(3) 0.29318(19)
C11_6 C 0.9901(3) 0.9687(3) 0.26612(17)
C15_6 C 0.8857(3) 0.9131(3) 0.2665(2)
H9_6 H 0.8493 0.8956 0.2661
C19_6 C 0.8573(3) 0.9951(3) 0.20757(17)
C21_6 C 0.9003(3) 0.9648(3) 0.24124(17)
O39_6 O 0.95199(19) 0.98701(18) 0.40676(13)
O63_4 O 0.99420(17) 0.98508(17) 0.14535(12)
W2_7 W 0.023189(10) 0.565671(10) 0.099285(8)
W3_7 W 0.129453(10) 0.838157(10) 0.091559(7)
W4_7 W 0.099627(11) 0.650148(10) 0.191838(7)
W7_7 W 0.139400(10) 0.680482(10) 0.073864(7)
W8_7 W 0.080555(11) 0.806939(10) 0.207932(7)
W12_7 W 0.061665(10) 0.770259(10) 0.006684(7)
N1_7 N 0.05120(18) 0.49302(19) 0.26043(13)
N2_7 N 0.01486(19) 0.7062(2) 0.35635(13)
C3_7 C 0.0716(3) 0.3879(3) 0.2070(2)
H3_7 H 0.0790 0.3519 0.1889
C4_7 C 0.0164(3) 0.4160(3) 0.20682(19)
C11_7 C 0.0099(3) 0.4687(3) 0.23388(17)
C12_7 C 0.0554(3) 0.7542(3) 0.35319(19)
C14_7 C 0.0467(3) 0.8154(3) 0.37332(16)
H8_7 H 0.0739 0.8481 0.3706
C15_7 C 0.1143(3) 0.4131(3) 0.2335(2)
H9_7 H 0.1507 0.3956 0.2339
C16_7 C 0.1074(2) 0.7321(2) 0.32953(18)
C19_7 C 0.1427(3) 0.4951(3) 0.29243(17)
C21_7 C 0.0997(3) 0.4648(3) 0.25876(17)
O1_7 O 0.07107(17) 0.75273(17) 0.08083(12)
O3_7 O 0.05872(17) 0.88835(17) 0.10088(12)
O6_7 O 0.08681(17) 0.61486(17) 0.07020(12)
O7_7 O 0.11765(18) 0.85725(18) 0.24338(13)
O10_7 O 0.02711(17) 0.77500(18) 0.25061(13)
O11_7 O 0.04139(18) 0.64232(18) 0.23635(13)
O15_7 O 0.17707(17) 0.76727(17) 0.08210(12)
O16_7 O 0.14837(18) 0.59633(19) 0.21391(13)
O19_7 O 0.12170(17) 0.70916(17) 0.01299(12)
O23_7 O 0.02576(17) 0.86405(17) 0.18256(12)
O27_7 O 0.12802(18) 0.72969(18) 0.21793(13)
O29_7 O 0.00977(17) 0.69785(18) 0.00740(12)
O38_7 O 0.0694(2) 0.5926(2) 0.39812(14)
O39_7 O 0.04801(19) 0.48701(18) 0.09324(13)
O45_7 O 0.05759(17) 0.59138(17) 0.15336(12)
O48_7 O 0.11040(18) 0.67659(18) 0.31573(13)
O50_7 O 0.11116(17) 0.83917(17) 0.02844(12)
O51_7 O 0.03598(17) 0.72380(17) 0.17326(12)
O52_7 O 0.12550(17) 0.82076(17) 0.15371(12)
O53_7 O 0.17884(16) 0.90143(16) 0.09040(12)
O58_7 O 0.14656(19) 0.77546(19) 0.32600(14)
O60_7 O 0.12425(19) 0.54240(19) 0.31529(14)
O62_7 O 0.13936(17) 0.67371(18) 0.13611(12)
H26_7 H 0.0548665 0.553745 0.414356
H27_7 H 0.0572312 0.632801 0.414017
H32_7 H 0.131762 0.813539 0.309061
W1_7 W 0.903039(10) 0.629789(10) 0.132512(7)
W5_7 W 0.945388(11) 0.651859(10) 0.029275(7)
W6_7 W 0.991190(10) 0.902848(10) 0.130450(7)
W9_7 W 0.883189(10) 0.806651(10) 0.153526(7)
W10_7 W 0.977649(11) 0.707284(10) 0.225176(7)
W11_7 W 0.923208(10) 0.827579(10) 0.049612(7)
N3_7 N 0.7661(2) 0.7916(2) 0.00825(14)
C1_7 C 0.7437(4) 0.6836(3) 0.0298(2)
H1_7 H 0.7462 0.6392 0.0240
C2_7 C 0.7198(3) 0.7078(3) 0.0689(2)
H2_7 H 0.7002 0.6794 0.0876
H4_7 H 0.9869 0.3994 0.1895
C5_7 C 0.7241(3) 0.7712(3) 0.0809(2)
H5_7 H 0.7127 0.7862 0.1089
C7_7 C 0.9980(3) 0.8266(3) 0.3969(2)
H6_7 H 0.9919 0.8672 0.4100
C8_7 C 0.7473(3) 0.8135(3) 0.04768(19)
C9_7 C 0.7634(3) 0.7297(3) 0.00056(19)
C10_7 C 0.9577(3) 0.7778(3) 0.40132(19)
H7_7 H 0.9247 0.7844 0.4178
C13_7 C 0.9291(2) 0.6588(3) 0.38414(19)
C17_7 C 0.9685(2) 0.7182(3) 0.38000(18)
C18_7 C 0.9554(3) 0.4994(2) 0.24004(18)
C20_7 C 0.7511(3) 0.8866(3) 0.05584(18)
O2_7 O 0.97874(17) 0.66241(17) 0.09987(12)
O4_7 O 0.96615(17) 0.80229(17) 0.11283(12)
O5_7 O 0.7229(2) 0.6053(2) 0.16483(15)
O8_7 O 0.7855(2) 0.5457(2) 0.06780(14)
O9_7 O 0.98673(17) 0.57454(17) 0.03989(12)
O12_7 O 0.94487(17) 0.64406(17) 0.18706(12)
O13_7 O 0.7886(2) 0.3922(2) 0.19318(15)
O14_7 O 0.94224(19) 0.60839(19) 0.36296(13)
O18_7 O 0.87017(19) 0.45226(19) 0.12333(14)
O20_7 O 0.87656(17) 0.71462(17) 0.13646(12)
O21_7 O 0.86323(17) 0.82775(17) 0.09361(12)
O22_7 O 0.95026(18) 0.68294(18) 0.27704(13)
O24_7 O 0.95172(17) 0.54899(17) 0.12545(12)
O25_7 O 0.99670(17) 0.82201(17) 0.02126(12)
O26_7 O 0.92668(17) 0.76787(17) 0.20270(12)
O30_7 O 0.82027(18) 0.81744(18) 0.18054(13)
O31_7 O 0.88362(17) 0.86086(18) 0.00682(13)
O32_7 O 0.91295(17) 0.73906(17) 0.03866(12)
O34_7 O 0.84440(17) 0.58421(17) 0.15077(12)
O41_7 O 0.91736(17) 0.88720(17) 0.16257(12)
O43_7 O 0.8109(2) 0.5198(2) 0.22872(15)
O44_7 O 0.94588(18) 0.54100(18) 0.27064(13)
O46_7 O 0.94701(17) 0.91064(17) 0.07660(12)
O47_7 O 0.7692(2) 0.9203(2) 0.02491(15)
O49_7 O 0.88641(17) 0.62180(17) 0.06925(12)
O56_7 O 0.6726(2) 0.4963(2) 0.10295(16)
O61_7 O 0.91335(19) 0.47948(19) 0.21359(13)
H10_7 H 0.750964 0.640923 0.16062
H11_7 H 0.709475 0.605204 0.196393
H12_7 H 0.881508 0.472442 0.0944162
H13_7 H 0.868668 0.404112 0.119865
H17_7 H 0.923703 0.487416 0.181778
H18_7 H 0.83266 0.561284 0.228269
H19_7 H 0.836336 0.483538 0.237872
H20_7 H 0.640732 0.500928 0.124513
H21_7 H 0.668433 0.454721 0.0861859
H22_7 H 0.748274 0.557054 0.0542657
H23_7 H 0.805234 0.513445 0.0484568
H24_7 H 0.813115 0.403185 0.219194
H25_7 H 0.808017 0.35935 0.174112
C6_7 C 0.7869(3) 0.7101(3) 0.9580(2)
O28_7 O 0.91174(18) 0.63016(18) 0.98007(12)
O36_7 O 0.7899(2) 0.6473(2) 0.94971(17)
O40_7 O 0.8049(2) 0.7523(2) 0.92989(16)
O54_7 O 0.7785(3) 0.8822(3) 0.86488(17)
O55_7 O 0.8789(2) 0.9725(2) 0.94502(18)
O57_7 O 0.7569(2) 0.9888(2) 0.93559(17)
H14_7 H 0.814043 0.625929 0.972715
H15_7 H 0.789753 0.840458 0.850512
H16_7 H 0.798461 0.918923 0.849949
H29_7 H 0.878262 0.991844 0.914498
H30_7 H 0.71765 0.981048 0.924676
W1_8 W 0.596961(10) 0.370211(10) 0.632512(7)
W2_8 W 0.476811(10) 0.434329(10) 0.599285(8)
W3_8 W 0.370547(10) 0.161843(10) 0.591559(7)
W4_8 W 0.400373(11) 0.349852(10) 0.691838(7)
W5_8 W 0.554612(11) 0.348141(10) 0.529275(7)
W6_8 W 0.508810(10) 0.097152(10) 0.630450(7)
W7_8 W 0.360600(10) 0.319518(10) 0.573864(7)
W8_8 W 0.419445(11) 0.193061(10) 0.707932(7)
W9_8 W 0.616811(10) 0.193349(10) 0.653526(7)
W10_8 W 0.522351(11) 0.292716(10) 0.725176(7)
W11_8 W 0.576792(10) 0.172421(10) 0.549612(7)
W12_8 W 0.438335(10) 0.229741(10) 0.506684(7)
N1_8 N 0.44880(18) 0.50698(19) 0.76043(13)
N2_8 N 0.48514(19) 0.2938(2) 0.85635(13)
N3_8 N 0.7339(2) 0.2084(2) 0.50825(14)
C1_8 C 0.7563(4) 0.3164(3) 0.5298(2)
H1_8 H 0.7538 0.3608 0.5240
C2_8 C 0.7802(3) 0.2922(3) 0.5689(2)
H2_8 H 0.7998 0.3206 0.5876
C3_8 C 0.4284(3) 0.6121(3) 0.7070(2)
H3_8 H 0.4210 0.6481 0.6889
C4_8 C 0.4836(3) 0.5840(3) 0.70682(19)
H4_8 H 0.5131 0.6006 0.6895
C5_8 C 0.7759(3) 0.2288(3) 0.5809(2)
H5_8 H 0.7873 0.2138 0.6089
C6_8 C 0.7131(3) 0.2899(3) 0.4580(2)
C7_8 C 0.5020(3) 0.1734(3) 0.8969(2)
H6_8 H 0.5081 0.1328 0.9100
C8_8 C 0.7527(3) 0.1865(3) 0.54768(19)
C9_8 C 0.7366(3) 0.2703(3) 0.50056(19)
C10_8 C 0.5423(3) 0.2222(3) 0.90132(19)
H7_8 H 0.5753 0.2156 0.9178
C11_8 C 0.4901(3) 0.5313(3) 0.73388(17)
C12_8 C 0.4446(3) 0.2458(3) 0.85319(19)
C13_8 C 0.5709(2) 0.3412(3) 0.88414(19)
C14_8 C 0.4533(3) 0.1846(3) 0.87332(16)
H8_8 H 0.4261 0.1519 0.8706
C15_8 C 0.3857(3) 0.5869(3) 0.7335(2)
H9_8 H 0.3493 0.6044 0.7339
C16_8 C 0.3926(2) 0.2679(2) 0.82953(18)
C17_8 C 0.5315(2) 0.2818(3) 0.88000(18)
C18_8 C 0.5446(3) 0.5006(2) 0.74004(18)
C19_8 C 0.3573(3) 0.5049(3) 0.79243(17)
C20_8 C 0.7489(3) 0.1134(3) 0.55584(18)
C21_8 C 0.4003(3) 0.5352(3) 0.75876(17)
O1_8 O 0.42893(17) 0.24727(17) 0.58083(12)
O2_8 O 0.52126(17) 0.33759(17) 0.59987(12)
O3_8 O 0.44128(17) 0.11165(17) 0.60088(12)
O4_8 O 0.53385(17) 0.19771(17) 0.61283(12)
O5_8 O 0.7771(2) 0.3947(2) 0.66483(15)
O6_8 O 0.41319(17) 0.38514(17) 0.57020(12)
O7_8 O 0.38235(18) 0.14275(18) 0.74338(13)
O8_8 O 0.7145(2) 0.4543(2) 0.56780(14)
O9_8 O 0.51327(17) 0.42546(17) 0.53989(12)
O10_8 O 0.47289(17) 0.22500(18) 0.75061(13)
O11_8 O 0.45861(18) 0.35768(18) 0.73635(13)
O12_8 O 0.55513(17) 0.35594(17) 0.68706(12)
O13_8 O 0.7114(2) 0.6078(2) 0.69318(15)
O14_8 O 0.55776(19) 0.39161(19) 0.86296(13)
O15_8 O 0.32293(17) 0.23273(17) 0.58210(12)
O16_8 O 0.35163(18) 0.40367(19) 0.71391(13)
O18_8 O 0.62983(19) 0.54774(19) 0.62333(14)
O19_8 O 0.37830(17) 0.29084(17) 0.51299(12)
O20_8 O 0.62344(17) 0.28538(17) 0.63646(12)
O21_8 O 0.63677(17) 0.17225(17) 0.59361(12)
O22_8 O 0.54974(18) 0.31706(18) 0.77704(13)
O23_8 O 0.47424(17) 0.13595(17) 0.68256(12)
O24_8 O 0.54828(17) 0.45101(17) 0.62545(12)
O25_8 O 0.50330(17) 0.17799(17) 0.52126(12)
O26_8 O 0.57332(17) 0.23213(17) 0.70270(12)
O27_8 O 0.37198(18) 0.27031(18) 0.71793(13)
O28_8 O 0.58826(18) 0.36984(18) 0.48007(12)
O29_8 O 0.49023(17) 0.30215(18) 0.50740(12)
O30_8 O 0.67973(18) 0.18256(18) 0.68054(13)
O31_8 O 0.61638(17) 0.13914(18) 0.50682(13)
O32_8 O 0.58705(17) 0.26094(17) 0.53866(12)
O34_8 O 0.65560(17) 0.41579(17) 0.65077(12)
O36_8 O 0.7101(2) 0.3527(2) 0.44971(17)
O38_8 O 0.4306(2) 0.4074(2) 0.89812(14)
O39_8 O 0.45199(19) 0.51299(18) 0.59324(13)
O40_8 O 0.6951(2) 0.2477(2) 0.42989(16)
O41_8 O 0.58264(17) 0.11280(17) 0.66257(12)
O42_6 O 0.43300(16) 0.21046(17) 0.45123(12)
O43_8 O 0.6891(2) 0.4802(2) 0.72872(15)
O44_8 O 0.55412(18) 0.45900(18) 0.77064(13)
O45_8 O 0.44241(17) 0.40862(17) 0.65336(12)
O46_8 O 0.55299(17) 0.08936(17) 0.57660(12)
O47_8 O 0.7308(2) 0.0797(2) 0.52491(15)
O48_8 O 0.38960(18) 0.32341(18) 0.81573(13)
O49_8 O 0.61359(17) 0.37820(17) 0.56925(12)
O50_8 O 0.38884(17) 0.16083(17) 0.52844(12)
O51_8 O 0.46402(17) 0.27620(17) 0.67326(12)
O52_8 O 0.37450(17) 0.17924(17) 0.65371(12)
O53_8 O 0.32116(16) 0.09857(16) 0.59040(12)
O54_8 O 0.7215(3) 0.1178(3) 0.36488(17)
O55_8 O 0.6211(2) 0.0275(2) 0.44502(18)
O56_8 O 0.8274(2) 0.5037(2) 0.60295(16)
O57_8 O 0.7431(2) 0.0112(2) 0.43559(17)
O58_8 O 0.35344(19) 0.22454(19) 0.82600(14)
O60_8 O 0.37575(19) 0.45760(19) 0.81529(14)
O61_8 O 0.58665(19) 0.52052(19) 0.71359(13)
O62_8 O 0.36064(17) 0.32629(18) 0.63611(12)
H10_8 H 0.749036 0.359077 0.66062
H11_8 H 0.790525 0.394796 0.696393
H12_8 H 0.618492 0.527558 0.594416
H13_8 H 0.631332 0.595888 0.619865
H14_8 H 0.685957 0.374071 0.472715
H15_8 H 0.710247 0.159542 0.350512
H16_8 H 0.701539 0.0810775 0.349949
H17_8 H 0.576297 0.512584 0.681778
H18_8 H 0.66734 0.438716 0.728269
H19_8 H 0.663664 0.516462 0.737872
H20_8 H 0.859268 0.499072 0.624513
H21_8 H 0.831567 0.545279 0.586186
H22_8 H 0.751726 0.442946 0.554266
H23_8 H 0.694766 0.486555 0.548457
H24_8 H 0.686885 0.596815 0.719194
H25_8 H 0.691983 0.64065 0.674112
H26_8 H 0.445133 0.446255 0.914356
H27_8 H 0.442769 0.367199 0.914017
H29_8 H 0.621738 0.00815626 0.414498
H30_8 H 0.78235 0.0189522 0.424676
H32_8 H 0.368238 0.186461 0.809061
H28_6 H 0.63075 0.993456 0.467447
H31_6 H 0.721551 0.986192 0.41271
H28_7 H 0.13075 0.993456 0.032553
H31_7 H 0.221551 0.986192 0.0872898
O42_7 O 0.93300(16) 0.21046(17) 0.04877(12)
O42_8 O 0.06700(16) 0.78954(17) 0.95123(12)
H28_8 H 0.86925 0.00654416 0.967447
H31_8 H 0.778449 0.0138077 0.91271
loop_
_geom_bond_atom_site_label_1
_geom_bond_atom_site_label_2
_geom_bond_site_symmetry_1
_geom_bond_site_symmetry_2
W1 O2 1_555 1_555
W2 O2 1_555 1_555
W3 O1 1_555 1_555
W4 O11 1_555 1_555
W5 O2 1_555 1_555
W6 O3 1_555 1_555
W7 O1 1_555 1_555
W8 O7 1_555 1_555
W9 O4 1_555 1_555
W10 O10 1_555 1_555
W11 O4 1_555 1_555
W12 O1 1_555 1_555
N2 La1 1_555 1_555
N3 C8 1_555 1_555
C1 H1 1_555 1_555
C2 C1 1_555 1_555
H2 C2 1_555 1_555
C5 C2 1_555 1_555
H5 C5 1_555 1_555
C7 H6 1_555 1_555
C8 C5 1_555 1_555
C9 N3 1_555 1_555
C10 C7 1_555 1_555
H7 C10 1_555 1_555
C12 N2 1_555 1_555
C13 C17 1_555 1_555
C14 C7 1_555 1_555
H8 C14 1_555 1_555
C16 C12 1_555 1_555
C17 N2 1_555 1_555
C20 C8 1_555 1_555
O3 W3 1_555 1_555
O4 W6 1_555 1_555
O6 W2 1_555 1_555
O9 W2 1_555 1_555
O10 W8 1_555 1_555
O11 W10 1_555 1_555
O12 W1 1_555 1_555
O14 La1 1_555 1_555
O15 W3 1_555 1_555
O16 W4 1_555 1_555
O17 W6 1_555 1_555
O19 W7 1_555 1_555
O20 W1 1_555 1_555
O21 W9 1_555 1_555
O22 W10 1_555 1_555
O23 W6 1_555 1_555
O24 W1 1_555 1_555
O25 W11 1_555 1_555
O26 W9 1_555 1_555
O27 W4 1_555 1_555
O29 W5 1_555 1_555
O30 W9 1_555 1_555
O31 W11 1_555 1_555
O32 W5 1_555 1_555
O33 W7 1_555 1_555
O34 W1 1_555 1_555
O35 C20 1_555 1_555
O37 C13 1_555 1_555
O38 La1 1_555 1_555
O41 W6 1_555 1_555
O44 La1 1_555 1_555
O45 W2 1_555 1_555
O46 W6 1_555 1_555
O48 La1 1_555 1_555
O49 W1 1_555 1_555
O50 W3 1_555 1_555
O51 W4 1_555 1_555
O52 W3 1_555 1_555
O53 W3 1_555 1_555
O58 C16 1_555 1_555
O60 La1 1_555 1_555
O62 W4 1_555 1_555
La4 O17 1_555 1_555
La5 O33 1_555 1_555
La6 O37 1_555 1_555
La7 O35 1_555 1_555
W2 O24 1_555 1_555
W4 O45 1_555 1_555
W5 O9 1_555 1_555
W5 O49 1_555 1_555
W7 O6 1_555 1_555
W7 O15 1_555 1_555
W7 O62 1_555 1_555
W8 O23 1_555 1_555
W8 O27 1_555 1_555
W8 O51 1_555 1_555
W8 O52 1_555 1_555
W9 O20 1_555 1_555
W9 O41 1_555 1_555
W10 O12 1_555 1_555
W10 O26 1_555 1_555
W10 O51 1_555 1_555
W11 O21 1_555 1_555
W11 O32 1_555 1_555
W11 O46 1_555 1_555
W12 O19 1_555 1_555
W12 O25 1_555 1_555
W12 O29 1_555 1_555
W12 O50 1_555 1_555
La1 O11 1_555 1_555
La1 O22 1_555 1_555
C1 C9 1_555 1_555
C10 C17 1_555 1_555
C12 C14 1_555 1_555
C13 O14 1_555 1_555
C16 O48 1_555 1_555
C20 O47 1_555 1_555
O5 H10 1_555 1_555
O5 H11 1_555 1_555
O43 H18 1_555 1_555
O8 H22 1_555 1_555
O8 H23 1_555 1_555
O38 H26 1_555 1_555
O38 H27 1_555 1_555
O58 H32 1_555 1_555
O36 C6 1_555 1_555
O40 La2 1_555 1_555
O54 La2 1_555 1_555
O55 La2 1_555 1_555
O57 La2 1_555 1_555
O64 La2 1_555 1_555
O66 La2 1_555 1_555
C6 O40 1_555 1_555
O36 H14 1_555 1_555
O54 H15 1_555 1_555
O54 H16 1_555 1_555
O55 H28 1_555 1_555
O55 H29 1_555 1_555
O57 H30 1_555 1_555
O57 H31 1_555 1_555
N1 C11 1_555 1_555
C3 H3 1_555 1_555
C4 C3 1_555 1_555
H4 C4 1_555 1_555
C11 C4 1_555 1_555
C15 C3 1_555 1_555
H9 C15 1_555 1_555
C18 C11 1_555 1_555
C19 C21 1_555 1_555
C21 N1 1_555 1_555
O13 La3 1_555 1_555
O18 La3 1_555 1_555
O56 La3 1_555 1_555
O59 C19 1_555 1_555
O61 C18 1_555 1_555
La8 O59 1_555 1_555
O65 La3 1_555 1_555
O67 La3 1_555 1_555
C15 C21 1_555 1_555
O18 H12 1_555 1_555
O18 H13 1_555 1_555
O61 H17 1_555 1_555
O56 H21 1_555 1_555
O13 H24 1_555 1_555
O13 H25 1_555 1_555
N1_2 C11_2 1_555 1_555
C3_2 H3_2 1_555 1_555
C4_2 C3_2 1_555 1_555
C11_2 C4_2 1_555 1_555
C15_2 C3_2 1_555 1_555
H9_2 C15_2 1_555 1_555
C19_2 C21_2 1_555 1_555
C21_2 N1_2 1_555 1_555
O59_2 C19_2 1_555 1_555
La8_2 O59_2 1_555 1_555
C15_2 C21_2 1_555 1_555
W3_2 O1_2 1_555 1_555
W4_2 O11_2 1_555 1_555
W7_2 O1_2 1_555 1_555
W8_2 O7_2 1_555 1_555
W12_2 O1_2 1_555 1_555
N2_2 La1_2 1_555 1_555
C12_2 N2_2 1_555 1_555
H8_2 C14_2 1_555 1_555
C16_2 C12_2 1_555 1_555
O3_2 W3_2 1_555 1_555
O6_2 W2_2 1_555 1_555
O10_2 W8_2 1_555 1_555
O15_2 W3_2 1_555 1_555
O16_2 W4_2 1_555 1_555
O19_2 W7_2 1_555 1_555
O27_2 W4_2 1_555 1_555
O33_2 W7_2 1_555 1_555
O38_2 La1_2 1_555 1_555
O42_2 W12_2 1_555 1_555
O45_2 W2_2 1_555 1_555
O48_2 La1_2 1_555 1_555
O50_2 W3_2 1_555 1_555
O51_2 W4_2 1_555 1_555
O52_2 W3_2 1_555 1_555
O53_2 W3_2 1_555 1_555
O58_2 C16_2 1_555 1_555
O60_2 La1_2 1_555 1_555
O62_2 W4_2 1_555 1_555
La5_2 O33_2 1_555 1_555
W4_2 O45_2 1_555 1_555
W7_2 O6_2 1_555 1_555
W7_2 O15_2 1_555 1_555
W7_2 O62_2 1_555 1_555
W8_2 O23_2 1_555 1_555
W8_2 O27_2 1_555 1_555
W8_2 O51_2 1_555 1_555
W8_2 O52_2 1_555 1_555
W12_2 O19_2 1_555 1_555
W12_2 O29_2 1_555 1_555
W12_2 O50_2 1_555 1_555
La1_2 O11_2 1_555 1_555
C12_2 C14_2 1_555 1_555
C16_2 O48_2 1_555 1_555
O38_2 H26_2 1_555 1_555
O38_2 H27_2 1_555 1_555
O58_2 H32_2 1_555 1_555
O13_2 La3_2 1_555 1_555
O18_2 La3_2 1_555 1_555
O56_2 La3_2 1_555 1_555
O61_2 C18_2 1_555 1_555
O65_2 La3_2 1_555 1_555
O67_2 La3_2 1_555 1_555
O18_2 H12_2 1_555 1_555
O18_2 H13_2 1_555 1_555
O61_2 H17_2 1_555 1_555
O56_2 H21_2 1_555 1_555
O13_2 H24_2 1_555 1_555
O13_2 H25_2 1_555 1_555
W1_2 O2_2 1_555 1_555
W5_2 O2_2 1_555 1_555
W9_2 O4_2 1_555 1_555
W11_2 O4_2 1_555 1_555
La2_2 N3_2 1_555 1_555
N3_2 C8_2 1_555 1_555
C1_2 H1_2 1_555 1_555
C2_2 C1_2 1_555 1_555
H2_2 C2_2 1_555 1_555
C5_2 C2_2 1_555 1_555
H5_2 C5_2 1_555 1_555
C6_2 C9_2 1_555 1_555
C7_2 H6_2 1_555 1_555
C8_2 C5_2 1_555 1_555
C9_2 N3_2 1_555 1_555
C10_2 C7_2 1_555 1_555
H7_2 C10_2 1_555 1_555
C13_2 C17_2 1_555 1_555
C20_2 C8_2 1_555 1_555
O4_2 W6_2 1_555 1_555
O12_2 W1_2 1_555 1_555
O17_2 W6_2 1_555 1_555
O20_2 W1_2 1_555 1_555
O21_2 W9_2 1_555 1_555
O22_2 W10_2 1_555 1_555
O24_2 W1_2 1_555 1_555
O25_2 W11_2 1_555 1_555
O26_2 W9_2 1_555 1_555
O28_2 W5_2 1_555 1_555
O30_2 W9_2 1_555 1_555
O31_2 W11_2 1_555 1_555
O32_2 W5_2 1_555 1_555
O34_2 W1_2 1_555 1_555
O35_2 C20_2 1_555 1_555
O36_2 C6_2 1_555 1_555
O37_2 C13_2 1_555 1_555
O40_2 La2_2 1_555 1_555
O41_2 W6_2 1_555 1_555
O46_2 W6_2 1_555 1_555
O47_2 La2_2 1_555 1_555
O49_2 W1_2 1_555 1_555
O54_2 La2_2 1_555 1_555
O55_2 La2_2 1_555 1_555
O57_2 La2_2 1_555 1_555
La4_2 O17_2 1_555 1_555
La6_2 O37_2 1_555 1_555
La7_2 O35_2 1_555 1_555
O64_2 La2_2 1_555 1_555
O66_2 La2_2 1_555 1_555
W5_2 O9_2 1_555 1_555
W5_2 O49_2 1_555 1_555
W9_2 O20_2 1_555 1_555
W9_2 O41_2 1_555 1_555
W10_2 O12_2 1_555 1_555
W10_2 O26_2 1_555 1_555
W11_2 O21_2 1_555 1_555
W11_2 O32_2 1_555 1_555
W11_2 O46_2 1_555 1_555
La2_2 O31_2 1_555 1_555
C1_2 C9_2 1_555 1_555
C6_2 O40_2 1_555 1_555
C10_2 C17_2 1_555 1_555
C13_2 O14_2 1_555 1_555
C20_2 O47_2 1_555 1_555
O5_2 H10_2 1_555 1_555
O5_2 H11_2 1_555 1_555
O36_2 H14_2 1_555 1_555
O54_2 H15_2 1_555 1_555
O54_2 H16_2 1_555 1_555
O43_2 H18_2 1_555 1_555
O8_2 H22_2 1_555 1_555
O8_2 H23_2 1_555 1_555
O55_2 H28_2 1_555 1_555
O55_2 H29_2 1_555 1_555
O57_2 H30_2 1_555 1_555
O57_2 H31_2 1_555 1_555
O36_3 C6_3 1_555 1_555
O40_3 La5 1_555 1_555
O54_3 La5 1_555 1_555
O55_3 La5 1_555 1_555
O57_3 La5 1_555 1_555
O66_3 La5 1_555 1_555
C6_3 O40_3 1_555 1_555
O36_3 H14_3 1_555 1_555
O54_3 H15_3 1_555 1_555
O54_3 H16_3 1_555 1_555
O55_3 H29_3 1_555 1_555
O57_3 H30_3 1_555 1_555
W1_3 O2_3 1_555 1_555
W5_3 O2_3 1_555 1_555
W9_3 O4_3 1_555 1_555
W11_3 O4_3 1_555 1_555
La3_3 O5_3 1_555 1_555
N3_3 C8_3 1_555 1_555
C1_3 H1_3 1_555 1_555
C2_3 C1_3 1_555 1_555
H2_3 C2_3 1_555 1_555
C5_3 C2_3 1_555 1_555
H5_3 C5_3 1_555 1_555
C7_3 H6_3 1_555 1_555
C8_3 C5_3 1_555 1_555
C9_3 N3_3 1_555 1_555
C10_3 C7_3 1_555 1_555
H7_3 C10_3 1_555 1_555
C13_3 C17_3 1_555 1_555
C20_3 C8_3 1_555 1_555
O4_3 W6_3 1_555 1_555
O8_3 La3_3 1_555 1_555
O12_3 W1_3 1_555 1_555
O13_3 La3_3 1_555 1_555
O63_2 W6_3 1_555 1_555
O18_3 La3_3 1_555 1_555
O20_3 W1_3 1_555 1_555
O21_3 W9_3 1_555 1_555
O22_3 W10_3 1_555 1_555
O24_3 W1_3 1_555 1_555
O25_3 W11_3 1_555 1_555
O26_3 W9_3 1_555 1_555
O30_3 W9_3 1_555 1_555
O31_3 W11_3 1_555 1_555
O32_3 W5_3 1_555 1_555
O34_3 W1_3 1_555 1_555
O35_3 C20_3 1_555 1_555
O37_3 C13_3 1_555 1_555
O41_3 W6_3 1_555 1_555
O43_3 La3_3 1_555 1_555
O46_3 W6_3 1_555 1_555
O49_3 W1_3 1_555 1_555
O56_3 La3_3 1_555 1_555
O61_3 C18_3 1_555 1_555
La6_3 O37_3 1_555 1_555
La8_2 O35_3 1_555 1_555
O65_3 La3_3 1_555 1_555
O67_3 La3_3 1_555 1_555
W5_3 O9_3 1_555 1_555
W5_3 O49_3 1_555 1_555
W9_3 O20_3 1_555 1_555
W9_3 O41_3 1_555 1_555
W10_3 O12_3 1_555 1_555
W10_3 O26_3 1_555 1_555
W11_3 O21_3 1_555 1_555
W11_3 O32_3 1_555 1_555
W11_3 O46_3 1_555 1_555
La3_3 O34_3 1_555 1_555
C1_3 C9_3 1_555 1_555
C10_3 C17_3 1_555 1_555
C13_3 O14_3 1_555 1_555
C18_3 O44_3 1_555 1_555
C20_3 O47_3 1_555 1_555
O5_3 H10_3 1_555 1_555
O5_3 H11_3 1_555 1_555
O18_3 H12_3 1_555 1_555
O18_3 H13_3 1_555 1_555
O61_3 H17_3 1_555 1_555
O43_3 H18_3 1_555 1_555
O43_3 H19_3 1_555 1_555
O56_3 H20_3 1_555 1_555
O56_3 H21_3 1_555 1_555
O8_3 H22_3 1_555 1_555
O8_3 H23_3 1_555 1_555
O13_3 H24_3 1_555 1_555
O13_3 H25_3 1_555 1_555
W3_3 O1_3 1_555 1_555
W4_3 O11_3 1_555 1_555
W7_3 O1_3 1_555 1_555
W8_3 O7_3 1_555 1_555
W12_3 O1_3 1_555 1_555
La4_2 N1_3 1_555 1_555
N1_3 C11_3 1_555 1_555
N2_3 La4_2 1_555 1_555
C3_3 H3_3 1_555 1_555
C4_3 C3_3 1_555 1_555
C11_3 C4_3 1_555 1_555
C12_3 N2_3 1_555 1_555
H8_3 C14_3 1_555 1_555
C15_3 C3_3 1_555 1_555
H9_3 C15_3 1_555 1_555
C16_3 C12_3 1_555 1_555
C19_3 C21_3 1_555 1_555
C21_3 N1_3 1_555 1_555
O3_3 W3_3 1_555 1_555
O6_3 W2_3 1_555 1_555
O10_3 W8_3 1_555 1_555
O15_3 W3_3 1_555 1_555
O16_3 W4_3 1_555 1_555
O19_3 W7_3 1_555 1_555
O27_3 W4_3 1_555 1_555
O64 W7_3 1_555 1_555
O38_3 La4_2 1_555 1_555
O39_3 W2_3 1_555 1_555
O45_3 W2_3 1_555 1_555
O48_3 La4_2 1_555 1_555
O50_3 W3_3 1_555 1_555
O51_3 W4_3 1_555 1_555
O52_3 W3_3 1_555 1_555
O53_3 W3_3 1_555 1_555
O58_3 C16_3 1_555 1_555
O59_3 C19_3 1_555 1_555
O60_3 La4_2 1_555 1_555
O62_3 W4_3 1_555 1_555
La7_2 O59_3 1_555 1_555
W4_3 O45_3 1_555 1_555
W7_3 O6_3 1_555 1_555
W7_3 O15_3 1_555 1_555
W7_3 O62_3 1_555 1_555
W8_3 O23_3 1_555 1_555
W8_3 O27_3 1_555 1_555
W8_3 O51_3 1_555 1_555
W8_3 O52_3 1_555 1_555
W12_3 O19_3 1_555 1_555
W12_3 O29_3 1_555 1_555
W12_3 O50_3 1_555 1_555
La4_2 O11_3 1_555 1_555
C12_3 C14_3 1_555 1_555
C15_3 C21_3 1_555 1_555
C16_3 O48_3 1_555 1_555
C19_3 O60_3 1_555 1_555
O38_3 H26_3 1_555 1_555
O38_3 H27_3 1_555 1_555
O58_3 H32_3 1_555 1_555
W1_4 O2_4 1_555 1_555
W2_4 O2_4 1_555 1_555
W3_4 O1_4 1_555 1_555
W4_4 O11_4 1_555 1_555
W5_4 O2_4 1_555 1_555
W6_4 O3_4 1_555 1_555
W7_4 O1_4 1_555 1_555
W8_4 O7_4 1_555 1_555
W9_4 O4_4 1_555 1_555
W10_4 O10_4 1_555 1_555
W11_4 O4_4 1_555 1_555
W12_4 O1_4 1_555 1_555
La4 N1_4 1_555 1_555
La5_2 N3_4 1_555 1_555
La3_4 O5_4 1_555 1_555
N1_4 C11_4 1_555 1_555
N2_4 La4 1_555 1_555
N3_4 C8_4 1_555 1_555
C1_4 H1_4 1_555 1_555
C2_4 C1_4 1_555 1_555
H2_4 C2_4 1_555 1_555
C3_4 H3_4 1_555 1_555
C4_4 C3_4 1_555 1_555
H4_4 C4_4 1_555 1_555
C5_4 C2_4 1_555 1_555
H5_4 C5_4 1_555 1_555
C6_4 C9_4 1_555 1_555
C7_4 H6_4 1_555 1_555
C8_4 C5_4 1_555 1_555
C9_4 N3_4 1_555 1_555
C10_4 C7_4 1_555 1_555
H7_4 C10_4 1_555 1_555
C11_4 C4_4 1_555 1_555
C12_4 N2_4 1_555 1_555
C13_4 C17_4 1_555 1_555
C14_4 C7_4 1_555 1_555
H8_4 C14_4 1_555 1_555
C15_4 C3_4 1_555 1_555
H9_4 C15_4 1_555 1_555
C16_4 C12_4 1_555 1_555
C17_4 N2_4 1_555 1_555
C18_4 C11_4 1_555 1_555
C19_4 C21_4 1_555 1_555
C20_4 C8_4 1_555 1_555
C21_4 N1_4 1_555 1_555
O3_4 W3_4 1_555 1_555
O4_4 W6_4 1_555 1_555
O6_4 W2_4 1_555 1_555
O8_4 La3_4 1_555 1_555
O9_4 W2_4 1_555 1_555
O10_4 W8_4 1_555 1_555
O11_4 W10_4 1_555 1_555
O12_4 W1_4 1_555 1_555
O13_4 La3_4 1_555 1_555
O14_4 La4 1_555 1_555
O15_4 W3_4 1_555 1_555
O16_4 W4_4 1_555 1_555
O63 W6_4 1_555 1_555
O18_4 La3_4 1_555 1_555
O19_4 W7_4 1_555 1_555
O20_4 W1_4 1_555 1_555
O21_4 W9_4 1_555 1_555
O22_4 W10_4 1_555 1_555
O23_4 W6_4 1_555 1_555
O24_4 W1_4 1_555 1_555
O25_4 W11_4 1_555 1_555
O26_4 W9_4 1_555 1_555
O27_4 W4_4 1_555 1_555
O28_4 W5_4 1_555 1_555
O29_4 W5_4 1_555 1_555
O30_4 W9_4 1_555 1_555
O31_4 W11_4 1_555 1_555
O32_4 W5_4 1_555 1_555
O64_2 W7_4 1_555 1_555
O34_4 W1_4 1_555 1_555
O35_4 C20_4 1_555 1_555
O36_4 C6_4 1_555 1_555
O37_4 C13_4 1_555 1_555
O38_4 La4 1_555 1_555
O39_4 W2_4 1_555 1_555
O40_4 La5_2 1_555 1_555
O41_4 W6_4 1_555 1_555
O42_3 W12_4 1_555 1_555
O43_4 La3_4 1_555 1_555
O44_4 La4 1_555 1_555
O45_4 W2_4 1_555 1_555
O46_4 W6_4 1_555 1_555
O47_4 La5_2 1_555 1_555
O48_4 La4 1_555 1_555
O49_4 W1_4 1_555 1_555
O50_4 W3_4 1_555 1_555
O51_4 W4_4 1_555 1_555
O52_4 W3_4 1_555 1_555
O53_4 W3_4 1_555 1_555
O54_4 La5_2 1_555 1_555
O55_4 La5_2 1_555 1_555
O56_4 La3_4 1_555 1_555
O57_4 La5_2 1_555 1_555
O58_4 C16_4 1_555 1_555
O59_4 C19_4 1_555 1_555
O60_4 La4 1_555 1_555
O61_4 C18_4 1_555 1_555
O62_4 W4_4 1_555 1_555
La6_4 O37_4 1_555 1_555
La8 O35_4 1_555 1_555
La7 O59_4 1_555 1_555
O65_4 La3_4 1_555 1_555
O66_4 La5_2 1_555 1_555
O67_4 La3_4 1_555 1_555
W2_4 O24_4 1_555 1_555
W4_4 O45_4 1_555 1_555
W5_4 O9_4 1_555 1_555
W5_4 O49_4 1_555 1_555
W7_4 O6_4 1_555 1_555
W7_4 O15_4 1_555 1_555
W7_4 O62_4 1_555 1_555
W8_4 O23_4 1_555 1_555
W8_4 O27_4 1_555 1_555
W8_4 O51_4 1_555 1_555
W8_4 O52_4 1_555 1_555
W9_4 O20_4 1_555 1_555
W9_4 O41_4 1_555 1_555
W10_4 O12_4 1_555 1_555
W10_4 O26_4 1_555 1_555
W10_4 O51_4 1_555 1_555
W11_4 O21_4 1_555 1_555
W11_4 O32_4 1_555 1_555
W11_4 O46_4 1_555 1_555
W12_4 O19_4 1_555 1_555
W12_4 O25_4 1_555 1_555
W12_4 O29_4 1_555 1_555
W12_4 O50_4 1_555 1_555
La4 O11_4 1_555 1_555
La4 O22_4 1_555 1_555
La5_2 O31_4 1_555 1_555
La3_4 O34_4 1_555 1_555
C1_4 C9_4 1_555 1_555
C6_4 O40_4 1_555 1_555
C10_4 C17_4 1_555 1_555
C12_4 C14_4 1_555 1_555
C13_4 O14_4 1_555 1_555
C15_4 C21_4 1_555 1_555
C16_4 O48_4 1_555 1_555
C18_4 O44_4 1_555 1_555
C19_4 O60_4 1_555 1_555
C20_4 O47_4 1_555 1_555
O5_4 H10_4 1_555 1_555
O5_4 H11_4 1_555 1_555
O18_4 H12_4 1_555 1_555
O18_4 H13_4 1_555 1_555
O36_4 H14_4 1_555 1_555
O54_4 H15_4 1_555 1_555
O54_4 H16_4 1_555 1_555
O61_4 H17_4 1_555 1_555
O43_4 H18_4 1_555 1_555
O43_4 H19_4 1_555 1_555
O56_4 H20_4 1_555 1_555
O56_4 H21_4 1_555 1_555
O8_4 H22_4 1_555 1_555
O8_4 H23_4 1_555 1_555
O13_4 H24_4 1_555 1_555
O13_4 H25_4 1_555 1_555
O38_4 H26_4 1_555 1_555
O38_4 H27_4 1_555 1_555
O55_4 H29_4 1_555 1_555
O57_4 H30_4 1_555 1_555
O58_4 H32_4 1_555 1_555
N1_5 C11_5 1_555 1_555
C3_5 H3_5 1_555 1_555
C4_5 C3_5 1_555 1_555
H4_5 C4_5 1_555 1_555
C11_5 C4_5 1_555 1_555
C15_5 C3_5 1_555 1_555
H9_5 C15_5 1_555 1_555
C18_5 C11_5 1_555 1_555
C19_5 C21_5 1_555 1_555
C21_5 N1_5 1_555 1_555
O13_5 La8_2 1_555 1_555
O18_5 La8_2 1_555 1_555
O56_5 La8_2 1_555 1_555
O67_2 C19_5 1_555 1_555
O61_5 C18_5 1_555 1_555
C15_5 C21_5 1_555 1_555
O18_5 H12_5 1_555 1_555
O18_5 H13_5 1_555 1_555
O61_5 H17_5 1_555 1_555
O56_5 H21_5 1_555 1_555
O13_5 H24_5 1_555 1_555
O13_5 H25_5 1_555 1_555
O36_5 C6_5 1_555 1_555
O40_5 La6_4 1_555 1_555
O54_5 La6_4 1_555 1_555
O55_5 La6_4 1_555 1_555
O57_5 La6_4 1_555 1_555
O64_3 La6_4 1_555 1_555
C6_5 O40_5 1_555 1_555
O36_5 H14_5 1_555 1_555
O54_5 H15_5 1_555 1_555
O54_5 H16_5 1_555 1_555
O55_5 H28_4 1_555 1_555
O55_5 H29_5 1_555 1_555
O57_5 H30_5 1_555 1_555
O57_5 H31_4 1_555 1_555
W1_5 O2_5 1_555 1_555
W2_5 O2_5 1_555 1_555
W3_5 O1_5 1_555 1_555
W4_5 O11_5 1_555 1_555
W5_5 O2_5 1_555 1_555
W6_5 O3_5 1_555 1_555
W7_5 O1_5 1_555 1_555
W8_5 O7_5 1_555 1_555
W9_5 O4_5 1_555 1_555
W10_5 O10_5 1_555 1_555
W11_5 O4_5 1_555 1_555
W12_5 O1_5 1_555 1_555
N2_5 La1_3 1_555 1_555
N3_5 C8_5 1_555 1_555
C1_5 H1_5 1_555 1_555
C2_5 C1_5 1_555 1_555
H2_5 C2_5 1_555 1_555
C5_5 C2_5 1_555 1_555
H5_5 C5_5 1_555 1_555
C7_5 H6_5 1_555 1_555
C8_5 C5_5 1_555 1_555
C9_5 N3_5 1_555 1_555
C10_5 C7_5 1_555 1_555
H7_5 C10_5 1_555 1_555
C12_5 N2_5 1_555 1_555
C13_5 C17_5 1_555 1_555
C14_5 C7_5 1_555 1_555
H8_5 C14_5 1_555 1_555
C16_5 C12_5 1_555 1_555
C17_5 N2_5 1_555 1_555
C20_5 C8_5 1_555 1_555
O3_5 W3_5 1_555 1_555
O4_5 W6_5 1_555 1_555
O6_5 W2_5 1_555 1_555
O9_5 W2_5 1_555 1_555
O10_5 W8_5 1_555 1_555
O11_5 W10_5 1_555 1_555
O12_5 W1_5 1_555 1_555
O14_5 La1_3 1_555 1_555
O15_5 W3_5 1_555 1_555
O16_5 W4_5 1_555 1_555
O17_3 W6_5 1_555 1_555
O19_5 W7_5 1_555 1_555
O20_5 W1_5 1_555 1_555
O21_5 W9_5 1_555 1_555
O22_5 W10_5 1_555 1_555
O23_5 W6_5 1_555 1_555
O24_5 W1_5 1_555 1_555
O25_5 W11_5 1_555 1_555
O26_5 W9_5 1_555 1_555
O27_5 W4_5 1_555 1_555
O29_5 W5_5 1_555 1_555
O30_5 W9_5 1_555 1_555
O31_5 W11_5 1_555 1_555
O32_5 W5_5 1_555 1_555
O33_3 W7_5 1_555 1_555
O34_5 W1_5 1_555 1_555
O65_3 C20_5 1_555 1_555
O66_4 C13_5 1_555 1_555
O38_5 La1_3 1_555 1_555
O41_5 W6_5 1_555 1_555
O44_5 La1_3 1_555 1_555
O45_5 W2_5 1_555 1_555
O46_5 W6_5 1_555 1_555
O48_5 La1_3 1_555 1_555
O49_5 W1_5 1_555 1_555
O50_5 W3_5 1_555 1_555
O51_5 W4_5 1_555 1_555
O52_5 W3_5 1_555 1_555
O53_5 W3_5 1_555 1_555
O58_5 C16_5 1_555 1_555
O60_5 La1_3 1_555 1_555
O62_5 W4_5 1_555 1_555
La4_3 O17_3 1_555 1_555
La6_2 O33_3 1_555 1_555
W2_5 O24_5 1_555 1_555
W4_5 O45_5 1_555 1_555
W5_5 O9_5 1_555 1_555
W5_5 O49_5 1_555 1_555
W7_5 O6_5 1_555 1_555
W7_5 O15_5 1_555 1_555
W7_5 O62_5 1_555 1_555
W8_5 O23_5 1_555 1_555
W8_5 O27_5 1_555 1_555
W8_5 O51_5 1_555 1_555
W8_5 O52_5 1_555 1_555
W9_5 O20_5 1_555 1_555
W9_5 O41_5 1_555 1_555
W10_5 O12_5 1_555 1_555
W10_5 O26_5 1_555 1_555
W10_5 O51_5 1_555 1_555
W11_5 O21_5 1_555 1_555
W11_5 O32_5 1_555 1_555
W11_5 O46_5 1_555 1_555
W12_5 O19_5 1_555 1_555
W12_5 O25_5 1_555 1_555
W12_5 O29_5 1_555 1_555
W12_5 O50_5 1_555 1_555
La1_3 O11_5 1_555 1_555
La1_3 O22_5 1_555 1_555
C1_5 C9_5 1_555 1_555
C10_5 C17_5 1_555 1_555
C12_5 C14_5 1_555 1_555
C13_5 O14_5 1_555 1_555
C16_5 O48_5 1_555 1_555
C20_5 O47_5 1_555 1_555
O5_5 H10_5 1_555 1_555
O5_5 H11_5 1_555 1_555
O43_5 H18_5 1_555 1_555
O8_5 H22_5 1_555 1_555
O8_5 H23_5 1_555 1_555
O38_5 H26_5 1_555 1_555
O38_5 H27_5 1_555 1_555
O58_5 H32_5 1_555 1_555
W1_6 O2_6 1_555 1_555
W5_6 O2_6 1_555 1_555
W9_6 O4_6 1_555 1_555
W11_6 O4_6 1_555 1_555
La6_3 N3_6 1_555 1_555
N3_6 C8_6 1_555 1_555
C1_6 H1_6 1_555 1_555
C2_6 C1_6 1_555 1_555
H2_6 C2_6 1_555 1_555
C5_6 C2_6 1_555 1_555
H5_6 C5_6 1_555 1_555
C6_6 C9_6 1_555 1_555
C7_6 H6_6 1_555 1_555
C8_6 C5_6 1_555 1_555
C9_6 N3_6 1_555 1_555
C10_6 C7_6 1_555 1_555
H7_6 C10_6 1_555 1_555
C13_6 C17_6 1_555 1_555
C20_6 C8_6 1_555 1_555
O4_6 W6_6 1_555 1_555
O12_6 W1_6 1_555 1_555
O17_4 W6_6 1_555 1_555
O20_6 W1_6 1_555 1_555
O21_6 W9_6 1_555 1_555
O22_6 W10_6 1_555 1_555
O24_6 W1_6 1_555 1_555
O25_6 W11_6 1_555 1_555
O26_6 W9_6 1_555 1_555
O28_6 W5_6 1_555 1_555
O30_6 W9_6 1_555 1_555
O31_6 W11_6 1_555 1_555
O32_6 W5_6 1_555 1_555
O34_6 W1_6 1_555 1_555
O65_4 C20_6 1_555 1_555
O36_6 C6_6 1_555 1_555
O66_3 C13_6 1_555 1_555
O40_6 La6_3 1_555 1_555
O41_6 W6_6 1_555 1_555
O46_6 W6_6 1_555 1_555
O47_6 La6_3 1_555 1_555
O49_6 W1_6 1_555 1_555
O54_6 La6_3 1_555 1_555
O55_6 La6_3 1_555 1_555
O57_6 La6_3 1_555 1_555
La4_4 O17_4 1_555 1_555
O64_4 La6_3 1_555 1_555
W5_6 O9_6 1_555 1_555
W5_6 O49_6 1_555 1_555
W9_6 O20_6 1_555 1_555
W9_6 O41_6 1_555 1_555
W10_6 O12_6 1_555 1_555
W10_6 O26_6 1_555 1_555
W11_6 O21_6 1_555 1_555
W11_6 O32_6 1_555 1_555
W11_6 O46_6 1_555 1_555
La6_3 O31_6 1_555 1_555
C1_6 C9_6 1_555 1_555
C6_6 O40_6 1_555 1_555
C10_6 C17_6 1_555 1_555
C13_6 O14_6 1_555 1_555
C20_6 O47_6 1_555 1_555
O5_6 H10_6 1_555 1_555
O5_6 H11_6 1_555 1_555
O36_6 H14_6 1_555 1_555
O54_6 H15_6 1_555 1_555
O54_6 H16_6 1_555 1_555
O43_6 H18_6 1_555 1_555
O8_6 H22_6 1_555 1_555
O8_6 H23_6 1_555 1_555
O55_6 H28_5 1_555 1_555
O55_6 H29_6 1_555 1_555
O57_6 H30_6 1_555 1_555
O57_6 H31_5 1_555 1_555
O13_6 La8 1_555 1_555
O18_6 La8 1_555 1_555
O56_6 La8 1_555 1_555
O61_6 C18_6 1_555 1_555
O18_6 H12_6 1_555 1_555
O18_6 H13_6 1_555 1_555
O61_6 H17_6 1_555 1_555
O56_6 H21_6 1_555 1_555
O13_6 H24_6 1_555 1_555
O13_6 H25_6 1_555 1_555
W3_6 O1_6 1_555 1_555
W4_6 O11_6 1_555 1_555
W7_6 O1_6 1_555 1_555
W8_6 O7_6 1_555 1_555
W12_6 O1_6 1_555 1_555
N2_6 La1_4 1_555 1_555
C12_6 N2_6 1_555 1_555
H8_6 C14_6 1_555 1_555
C16_6 C12_6 1_555 1_555
O3_6 W3_6 1_555 1_555
O6_6 W2_6 1_555 1_555
O10_6 W8_6 1_555 1_555
O15_6 W3_6 1_555 1_555
O16_6 W4_6 1_555 1_555
O19_6 W7_6 1_555 1_555
O27_6 W4_6 1_555 1_555
O33_4 W7_6 1_555 1_555
O38_6 La1_4 1_555 1_555
O42_5 W12_6 1_555 1_555
O45_6 W2_6 1_555 1_555
O48_6 La1_4 1_555 1_555
O50_6 W3_6 1_555 1_555
O51_6 W4_6 1_555 1_555
O52_6 W3_6 1_555 1_555
O53_6 W3_6 1_555 1_555
O58_6 C16_6 1_555 1_555
O60_6 La1_4 1_555 1_555
O62_6 W4_6 1_555 1_555
La6 O33_4 1_555 1_555
W4_6 O45_6 1_555 1_555
W7_6 O6_6 1_555 1_555
W7_6 O15_6 1_555 1_555
W7_6 O62_6 1_555 1_555
W8_6 O23_6 1_555 1_555
W8_6 O27_6 1_555 1_555
W8_6 O51_6 1_555 1_555
W8_6 O52_6 1_555 1_555
W12_6 O19_6 1_555 1_555
W12_6 O29_6 1_555 1_555
W12_6 O50_6 1_555 1_555
La1_4 O11_6 1_555 1_555
C12_6 C14_6 1_555 1_555
C16_6 O48_6 1_555 1_555
O38_6 H26_6 1_555 1_555
O38_6 H27_6 1_555 1_555
O58_6 H32_6 1_555 1_555
N1_6 C11_6 1_555 1_555
C3_6 H3_6 1_555 1_555
C4_6 C3_6 1_555 1_555
C11_6 C4_6 1_555 1_555
C15_6 C3_6 1_555 1_555
H9_6 C15_6 1_555 1_555
C19_6 C21_6 1_555 1_555
C21_6 N1_6 1_555 1_555
O67 C19_6 1_555 1_555
C15_6 C21_6 1_555 1_555
W3_7 O1_7 1_555 1_555
W4_7 O11_7 1_555 1_555
W7_7 O1_7 1_555 1_555
W8_7 O7_7 1_555 1_555
W12_7 O1_7 1_555 1_555
La4_4 N1_7 1_555 1_555
N1_7 C11_7 1_555 1_555
N2_7 La4_4 1_555 1_555
C3_7 H3_7 1_555 1_555
C4_7 C3_7 1_555 1_555
C11_7 C4_7 1_555 1_555
C12_7 N2_7 1_555 1_555
H8_7 C14_7 1_555 1_555
C15_7 C3_7 1_555 1_555
H9_7 C15_7 1_555 1_555
C16_7 C12_7 1_555 1_555
C19_7 C21_7 1_555 1_555
C21_7 N1_7 1_555 1_555
O3_7 W3_7 1_555 1_555
O6_7 W2_7 1_555 1_555
O10_7 W8_7 1_555 1_555
O15_7 W3_7 1_555 1_555
O16_7 W4_7 1_555 1_555
O19_7 W7_7 1_555 1_555
O27_7 W4_7 1_555 1_555
O64_3 W7_7 1_555 1_555
O38_7 La4_4 1_555 1_555
O39_7 W2_7 1_555 1_555
O45_7 W2_7 1_555 1_555
O48_7 La4_4 1_555 1_555
O50_7 W3_7 1_555 1_555
O51_7 W4_7 1_555 1_555
O52_7 W3_7 1_555 1_555
O53_7 W3_7 1_555 1_555
O58_7 C16_7 1_555 1_555
O67_4 C19_7 1_555 1_555
O60_7 La4_4 1_555 1_555
O62_7 W4_7 1_555 1_555
W4_7 O45_7 1_555 1_555
W7_7 O6_7 1_555 1_555
W7_7 O15_7 1_555 1_555
W7_7 O62_7 1_555 1_555
W8_7 O23_7 1_555 1_555
W8_7 O27_7 1_555 1_555
W8_7 O51_7 1_555 1_555
W8_7 O52_7 1_555 1_555
W12_7 O19_7 1_555 1_555
W12_7 O29_7 1_555 1_555
W12_7 O50_7 1_555 1_555
La4_4 O11_7 1_555 1_555
C12_7 C14_7 1_555 1_555
C15_7 C21_7 1_555 1_555
C16_7 O48_7 1_555 1_555
C19_7 O60_7 1_555 1_555
O38_7 H26_7 1_555 1_555
O38_7 H27_7 1_555 1_555
O58_7 H32_7 1_555 1_555
W1_7 O2_7 1_555 1_555
W5_7 O2_7 1_555 1_555
W9_7 O4_7 1_555 1_555
W11_7 O4_7 1_555 1_555
La7 O5_7 1_555 1_555
N3_7 C8_7 1_555 1_555
C1_7 H1_7 1_555 1_555
C2_7 C1_7 1_555 1_555
H2_7 C2_7 1_555 1_555
C5_7 C2_7 1_555 1_555
H5_7 C5_7 1_555 1_555
C7_7 H6_7 1_555 1_555
C8_7 C5_7 1_555 1_555
C9_7 N3_7 1_555 1_555
C10_7 C7_7 1_555 1_555
H7_7 C10_7 1_555 1_555
C13_7 C17_7 1_555 1_555
C20_7 C8_7 1_555 1_555
O4_7 W6_7 1_555 1_555
O8_7 La7 1_555 1_555
O12_7 W1_7 1_555 1_555
O13_7 La7 1_555 1_555
O63_4 W6_7 1_555 1_555
O18_7 La7 1_555 1_555
O20_7 W1_7 1_555 1_555
O21_7 W9_7 1_555 1_555
O22_7 W10_7 1_555 1_555
O24_7 W1_7 1_555 1_555
O25_7 W11_7 1_555 1_555
O26_7 W9_7 1_555 1_555
O30_7 W9_7 1_555 1_555
O31_7 W11_7 1_555 1_555
O32_7 W5_7 1_555 1_555
O34_7 W1_7 1_555 1_555
O65 C20_7 1_555 1_555
O66_2 C13_7 1_555 1_555
O41_7 W6_7 1_555 1_555
O43_7 La7 1_555 1_555
O46_7 W6_7 1_555 1_555
O49_7 W1_7 1_555 1_555
O56_7 La7 1_555 1_555
O61_7 C18_7 1_555 1_555
W5_7 O9_7 1_555 1_555
W5_7 O49_7 1_555 1_555
W9_7 O20_7 1_555 1_555
W9_7 O41_7 1_555 1_555
W10_7 O12_7 1_555 1_555
W10_7 O26_7 1_555 1_555
W11_7 O21_7 1_555 1_555
W11_7 O32_7 1_555 1_555
W11_7 O46_7 1_555 1_555
La7 O34_7 1_555 1_555
C1_7 C9_7 1_555 1_555
C10_7 C17_7 1_555 1_555
C13_7 O14_7 1_555 1_555
C18_7 O44_7 1_555 1_555
C20_7 O47_7 1_555 1_555
O5_7 H10_7 1_555 1_555
O5_7 H11_7 1_555 1_555
O18_7 H12_7 1_555 1_555
O18_7 H13_7 1_555 1_555
O61_7 H17_7 1_555 1_555
O43_7 H18_7 1_555 1_555
O43_7 H19_7 1_555 1_555
O56_7 H20_7 1_555 1_555
O56_7 H21_7 1_555 1_555
O8_7 H22_7 1_555 1_555
O8_7 H23_7 1_555 1_555
O13_7 H24_7 1_555 1_555
O13_7 H25_7 1_555 1_555
O36_7 C6_7 1_555 1_555
O40_7 La6_2 1_555 1_555
O54_7 La6_2 1_555 1_555
O55_7 La6_2 1_555 1_555
O57_7 La6_2 1_555 1_555
C6_7 O40_7 1_555 1_555
O36_7 H14_7 1_555 1_555
O54_7 H15_7 1_555 1_555
O54_7 H16_7 1_555 1_555
O55_7 H29_7 1_555 1_555
O57_7 H30_7 1_555 1_555
W1_8 O2_8 1_555 1_555
W2_8 O2_8 1_555 1_555
W3_8 O1_8 1_555 1_555
W4_8 O11_8 1_555 1_555
W5_8 O2_8 1_555 1_555
W6_8 O3_8 1_555 1_555
W7_8 O1_8 1_555 1_555
W8_8 O7_8 1_555 1_555
W9_8 O4_8 1_555 1_555
W10_8 O10_8 1_555 1_555
W11_8 O4_8 1_555 1_555
W12_8 O1_8 1_555 1_555
La4_3 N1_8 1_555 1_555
La6 N3_8 1_555 1_555
La7_2 O5_8 1_555 1_555
N1_8 C11_8 1_555 1_555
N2_8 La4_3 1_555 1_555
N3_8 C8_8 1_555 1_555
C1_8 H1_8 1_555 1_555
C2_8 C1_8 1_555 1_555
H2_8 C2_8 1_555 1_555
C3_8 H3_8 1_555 1_555
C4_8 C3_8 1_555 1_555
H4_8 C4_8 1_555 1_555
C5_8 C2_8 1_555 1_555
H5_8 C5_8 1_555 1_555
C6_8 C9_8 1_555 1_555
C7_8 H6_8 1_555 1_555
C8_8 C5_8 1_555 1_555
C9_8 N3_8 1_555 1_555
C10_8 C7_8 1_555 1_555
H7_8 C10_8 1_555 1_555
C11_8 C4_8 1_555 1_555
C12_8 N2_8 1_555 1_555
C13_8 C17_8 1_555 1_555
C14_8 C7_8 1_555 1_555
H8_8 C14_8 1_555 1_555
C15_8 C3_8 1_555 1_555
H9_8 C15_8 1_555 1_555
C16_8 C12_8 1_555 1_555
C17_8 N2_8 1_555 1_555
C18_8 C11_8 1_555 1_555
C19_8 C21_8 1_555 1_555
C20_8 C8_8 1_555 1_555
C21_8 N1_8 1_555 1_555
O3_8 W3_8 1_555 1_555
O4_8 W6_8 1_555 1_555
O6_8 W2_8 1_555 1_555
O8_8 La7_2 1_555 1_555
O9_8 W2_8 1_555 1_555
O10_8 W8_8 1_555 1_555
O11_8 W10_8 1_555 1_555
O12_8 W1_8 1_555 1_555
O13_8 La7_2 1_555 1_555
O14_8 La4_3 1_555 1_555
O15_8 W3_8 1_555 1_555
O16_8 W4_8 1_555 1_555
O63_3 W6_8 1_555 1_555
O18_8 La7_2 1_555 1_555
O19_8 W7_8 1_555 1_555
O20_8 W1_8 1_555 1_555
O21_8 W9_8 1_555 1_555
O22_8 W10_8 1_555 1_555
O23_8 W6_8 1_555 1_555
O24_8 W1_8 1_555 1_555
O25_8 W11_8 1_555 1_555
O26_8 W9_8 1_555 1_555
O27_8 W4_8 1_555 1_555
O28_8 W5_8 1_555 1_555
O29_8 W5_8 1_555 1_555
O30_8 W9_8 1_555 1_555
O31_8 W11_8 1_555 1_555
O32_8 W5_8 1_555 1_555
O64_4 W7_8 1_555 1_555
O34_8 W1_8 1_555 1_555
O65_2 C20_8 1_555 1_555
O36_8 C6_8 1_555 1_555
O66 C13_8 1_555 1_555
O38_8 La4_3 1_555 1_555
O39_8 W2_8 1_555 1_555
O40_8 La6 1_555 1_555
O41_8 W6_8 1_555 1_555
O42_6 W12_8 1_555 1_555
O43_8 La7_2 1_555 1_555
O44_8 La4_3 1_555 1_555
O45_8 W2_8 1_555 1_555
O46_8 W6_8 1_555 1_555
O47_8 La6 1_555 1_555
O48_8 La4_3 1_555 1_555
O49_8 W1_8 1_555 1_555
O50_8 W3_8 1_555 1_555
O51_8 W4_8 1_555 1_555
O52_8 W3_8 1_555 1_555
O53_8 W3_8 1_555 1_555
O54_8 La6 1_555 1_555
O55_8 La6 1_555 1_555
O56_8 La7_2 1_555 1_555
O57_8 La6 1_555 1_555
O58_8 C16_8 1_555 1_555
O67_3 C19_8 1_555 1_555
O60_8 La4_3 1_555 1_555
O61_8 C18_8 1_555 1_555
O62_8 W4_8 1_555 1_555
W2_8 O24_8 1_555 1_555
W4_8 O45_8 1_555 1_555
W5_8 O9_8 1_555 1_555
W5_8 O49_8 1_555 1_555
W7_8 O6_8 1_555 1_555
W7_8 O15_8 1_555 1_555
W7_8 O62_8 1_555 1_555
W8_8 O23_8 1_555 1_555
W8_8 O27_8 1_555 1_555
W8_8 O51_8 1_555 1_555
W8_8 O52_8 1_555 1_555
W9_8 O20_8 1_555 1_555
W9_8 O41_8 1_555 1_555
W10_8 O12_8 1_555 1_555
W10_8 O26_8 1_555 1_555
W10_8 O51_8 1_555 1_555
W11_8 O21_8 1_555 1_555
W11_8 O32_8 1_555 1_555
W11_8 O46_8 1_555 1_555
W12_8 O19_8 1_555 1_555
W12_8 O25_8 1_555 1_555
W12_8 O29_8 1_555 1_555
W12_8 O50_8 1_555 1_555
La4_3 O11_8 1_555 1_555
La4_3 O22_8 1_555 1_555
La6 O31_8 1_555 1_555
La7_2 O34_8 1_555 1_555
C1_8 C9_8 1_555 1_555
C6_8 O40_8 1_555 1_555
C10_8 C17_8 1_555 1_555
C12_8 C14_8 1_555 1_555
C13_8 O14_8 1_555 1_555
C15_8 C21_8 1_555 1_555
C16_8 O48_8 1_555 1_555
C18_8 O44_8 1_555 1_555
C19_8 O60_8 1_555 1_555
C20_8 O47_8 1_555 1_555
O5_8 H10_8 1_555 1_555
O5_8 H11_8 1_555 1_555
O18_8 H12_8 1_555 1_555
O18_8 H13_8 1_555 1_555
O36_8 H14_8 1_555 1_555
O54_8 H15_8 1_555 1_555
O54_8 H16_8 1_555 1_555
O61_8 H17_8 1_555 1_555
O43_8 H18_8 1_555 1_555
O43_8 H19_8 1_555 1_555
O56_8 H20_8 1_555 1_555
O56_8 H21_8 1_555 1_555
O8_8 H22_8 1_555 1_555
O8_8 H23_8 1_555 1_555
O13_8 H24_8 1_555 1_555
O13_8 H25_8 1_555 1_555
O38_8 H26_8 1_555 1_555
O38_8 H27_8 1_555 1_555
O55_8 H29_8 1_555 1_555
O57_8 H30_8 1_555 1_555
O58_8 H32_8 1_555 1_555

#END
