
###############################################################################
#
# This file contains modified crystal structure data generated from the
# MOF subset of the Cambridge Structural Database (CSD) v543 
# hosted by the Cambridge Crystallographic Data Centre (CCDC).
#
# This work is licensed under the Creative Commons
# Attribution-NonCommercial-ShareAlike 4.0 International License.
# To view a copy of this license, visit
# http://creativecommons.org/licenses/by-nc-sa/4.0/
# or send a letter to
# Creative Commons, PO Box 1866, Mountain View, CA 94042, USA.
#
# CIF created using the CSD Python API on 29 September 2022
# The structure has been converted into the P1 space group
# The structure has a 3D framework
# The original CSD entry DUYSIC is in the tetragonal crystal system
# The framework has been calculated to contain at least 10.0% void space
# The void calculation uses a probe of radius 1.32A, grid spacing 0.4
#
###############################################################################

data_DUYSIC
_chemical_formula_moiety         '(C192 H176 Cu15 N32 O32)n'
_symmetry_cell_setting           triclinic
_symmetry_space_group_name_H-M   'P 1'
_symmetry_Int_Tables_number      1
_space_group_name_Hall           'P 1'
loop_
_symmetry_equiv_pos_site_id
_symmetry_equiv_pos_as_xyz
1 x,y,z
_cell_length_a                   23.2432(12)
_cell_length_b                   23.2432(12)
_cell_length_c                   11.9130(7)
_cell_angle_alpha                90
_cell_angle_beta                 90
_cell_angle_gamma                90
_cell_volume                     6435.95
loop_
_atom_site_label
_atom_site_type_symbol
_atom_site_fract_x
_atom_site_fract_y
_atom_site_fract_z
Cu1 Cu 0.000000 0.500000 0.000000
O1 O 0.20773(7) 0.69874(6) 0.65079(12)
O2 O 0.29265(7) 0.69381(7) 0.56713(14)
N1 N 0.10807(8) 0.47632(8) 0.10782(15)
H1 H 0.1055(13) 0.4451(13) 0.071(3)
N2 N 0.06734(8) 0.51754(8) 0.09657(15)
C1 C 0.14704(10) 0.48956(9) 0.18672(18)
C2 C 0.13144(10) 0.54291(10) 0.22880(18)
C3 C 0.08151(9) 0.55905(9) 0.16911(18)
C4 C 0.19554(11) 0.45018(11) 0.2125(2)
H2 H 0.180654 0.411293 0.225462
H3 H 0.215587 0.463660 0.279882
H4 H 0.222392 0.449570 0.149062
C5 C 0.04971(11) 0.61458(10) 0.1741(2)
H5 H 0.029736 0.621029 0.102747
H6 H 0.076908 0.646049 0.187554
H7 H 0.021548 0.613216 0.235255
C6 C 0.16073(10) 0.57655(9) 0.31770(18)
C7 C 0.12841(10) 0.60040(10) 0.40454(19)
H8 H 0.088059 0.594014 0.406885
C8 C 0.15417(10) 0.63326(10) 0.48750(18)
H9 H 0.131388 0.649314 0.545837
C9 C 0.21330(10) 0.64286(9) 0.48579(17)
C10 C 0.24613(10) 0.61861(11) 0.4001(2)
H10 H 0.286542 0.624655 0.398435
C11 C 0.22023(10) 0.58576(11) 0.31738(19)
H11 H 0.243129 0.569276 0.259686
C12 C 0.24062(9) 0.68067(9) 0.57305(18)
Cu3 Cu 0.250000 0.750000 0.750000
Cu3_2 Cu 0.000000 1.000000 -0.000000
O6 O 0.05126(6) 0.95773(7) 0.09921(12)
O3 O 0.29227(7) 0.80126(6) 0.84921(12)
O4 O 0.20735(7) 0.80619(7) 0.93287(14)
H20 H 0.368612 0.850686 0.954163
C24 C 0.25938(9) 0.81933(9) 0.92695(18)
N1_2 N 0.22632(8) 0.64193(8) 0.85782(15)
H1_2 H 0.1951(13) 0.6445(13) 0.821(3)
N2_2 N 0.26754(8) 0.68266(8) 0.84657(15)
C1_2 C 0.23956(9) 0.60296(10) 0.93672(18)
C2_2 C 0.29291(10) 0.61856(10) 0.97880(18)
C3_2 C 0.30905(9) 0.66849(9) 0.91911(18)
C4_2 C 0.20018(11) 0.55446(11) 0.9625(2)
H2_2 H 0.161293 0.569346 0.975462
H4_2 H 0.199570 0.527608 0.899062
C5_2 C 0.36458(10) 0.70029(11) 0.9241(2)
H5_2 H 0.371029 0.720264 0.852747
H6_2 H 0.396049 0.673092 0.937554
H7_2 H 0.363216 0.728452 0.985255
N3 N 0.27368(8) 0.85807(8) 0.64218(15)
H12 H 0.3049(13) 0.8555(13) 0.679(3)
N4 N 0.23246(8) 0.81734(8) 0.65343(15)
C13 C 0.26044(9) 0.89704(10) 0.56328(18)
C14 C 0.20709(10) 0.88144(10) 0.52120(18)
C15 C 0.19095(9) 0.83151(9) 0.58089(18)
C16 C 0.29982(11) 0.94554(11) 0.5375(2)
H13 H 0.338707 0.930654 0.524538
H14 H 0.286340 0.965587 0.470118
H15 H 0.300430 0.972392 0.600938
C17 C 0.13542(10) 0.79971(11) 0.5759(2)
H16 H 0.128971 0.779736 0.647253
H17 H 0.103951 0.826908 0.562446
H18 H 0.136784 0.771548 0.514745
C18 C 0.17345(9) 0.91073(10) 0.43230(18)
C19 C 0.14960(10) 0.87841(10) 0.34546(19)
H19 H 0.155986 0.838059 0.343115
C20 C 0.11674(10) 0.90417(10) 0.26250(18)
H20_2 H 0.100686 0.881388 0.204163
C21 C 0.10714(9) 0.96330(10) 0.26421(17)
C22 C 0.13139(11) 0.99613(10) 0.3499(2)
C23 C 0.16424(11) 0.97023(10) 0.43262(19)
H22 H 0.180724 0.993129 0.490314
C24_2 C 0.06933(9) 0.99062(9) 0.17695(18)
Cu1_2 Cu 0.000000 0.500000 1.000000
O5 O 0.05126(6) 0.45773(7) 0.90079(12)
Cu3_3 Cu -0.000000 0.000000 1.000000
O3_2 O 0.20773(7) 0.19874(6) 0.34921(12)
O4_2 O 0.29265(7) 0.19381(7) 0.43287(14)
N4_2 N 0.06734(8) 0.01754(8) 0.90343(15)
C14_2 C 0.13144(10) 0.04291(10) 0.77120(18)
C15_2 C 0.08151(9) 0.05905(9) 0.83089(18)
C17_2 C 0.04971(11) 0.11458(10) 0.8259(2)
H16_2 H 0.029736 0.121029 0.897253
H17_2 H 0.076908 0.146049 0.812446
H18_2 H 0.021548 0.113216 0.764745
C18_2 C 0.16073(10) 0.07655(9) 0.68230(18)
C19_2 C 0.12841(10) 0.10040(10) 0.59546(19)
H19_2 H 0.088059 0.094014 0.593115
C20_2 C 0.15417(10) 0.13326(10) 0.51250(18)
H20_3 H 0.131388 0.149314 0.454163
C21_2 C 0.21330(10) 0.14286(9) 0.51421(17)
C22_2 C 0.24613(10) 0.11861(11) 0.5999(2)
H21 H 0.286542 0.124655 0.601565
C23_2 C 0.22023(10) 0.08576(11) 0.68262(19)
H22_2 H 0.243129 0.069276 0.740314
C24_3 C 0.24062(9) 0.18067(9) 0.42695(18)
Cu2 Cu 0.250000 0.250000 0.250000
O2_2 O 0.05619(7) 0.54265(7) 0.81713(14)
N1_3 N 0.27368(8) 0.35807(8) 0.35782(15)
H1_3 H 0.3049(13) 0.3555(13) 0.321(3)
N2_3 N 0.23246(8) 0.31734(8) 0.34657(15)
C1_3 C 0.26044(9) 0.39704(10) 0.43672(18)
C2_3 C 0.20709(10) 0.38144(10) 0.47880(18)
C3_3 C 0.19095(9) 0.33151(9) 0.41911(18)
C4_3 C 0.29982(11) 0.44554(11) 0.4625(2)
H2_3 H 0.338707 0.430654 0.475462
H3_2 H 0.286340 0.465587 0.529882
H4_3 H 0.300430 0.472392 0.399062
C5_3 C 0.13542(10) 0.29971(11) 0.4241(2)
H5_3 H 0.128971 0.279736 0.352747
H6_3 H 0.103951 0.326908 0.437554
H7_3 H 0.136784 0.271548 0.485255
C6_2 C 0.17345(9) 0.41073(10) 0.56770(18)
C7_2 C 0.14960(10) 0.37841(10) 0.65454(19)
H8_2 H 0.155986 0.338059 0.656885
C8_2 C 0.11674(10) 0.40417(10) 0.73750(18)
H9_2 H 0.100686 0.381388 0.795837
C9_2 C 0.10714(9) 0.46330(10) 0.73579(17)
C10_2 C 0.13139(11) 0.49613(10) 0.6501(2)
H10_2 H 0.125345 0.536542 0.648435
C11_2 C 0.16424(11) 0.47023(10) 0.56738(19)
H11_2 H 0.180724 0.493129 0.509686
C12_2 C 0.06933(9) 0.49062(9) 0.82305(18)
N3_2 N 0.22632(8) 0.14193(8) 0.14218(15)
H12_2 H 0.1951(13) 0.1445(13) 0.179(3)
N4_3 N 0.26754(8) 0.18266(8) 0.15343(15)
C13_2 C 0.23956(9) 0.10296(10) 0.06328(18)
C14_3 C 0.29291(10) 0.11856(10) 0.02120(18)
C15_3 C 0.30905(9) 0.16849(9) 0.08089(18)
C16_2 C 0.20018(11) 0.05446(11) 0.0375(2)
H13_2 H 0.161293 0.069346 0.024538
H15_2 H 0.199570 0.027608 0.100938
C17_3 C 0.36458(10) 0.20029(11) 0.0759(2)
H16_3 H 0.371029 0.220264 0.147253
H17_3 H 0.396049 0.173092 0.062446
H18_3 H 0.363216 0.228452 0.014745
O5_2 O 0.29227(7) 0.30126(6) 0.15079(12)
O2_3 O 0.20735(7) 0.30619(7) 0.06713(14)
H9_3 H 0.368612 0.350686 0.045837
C12_3 C 0.25938(9) 0.31933(9) 0.07305(18)
Cu1_3 Cu 1.000000 0.500000 0.000000
O6_2 O 0.94874(6) 0.54227(7) 0.09921(12)
Cu1_4 Cu 0.750000 0.750000 0.750000
N1_4 N 0.77368(8) 0.85807(8) 0.85782(15)
H1_4 H 0.8049(13) 0.8555(13) 0.821(3)
N2_4 N 0.73246(8) 0.81734(8) 0.84657(15)
C1_4 C 0.76044(9) 0.89704(10) 0.93672(18)
C2_4 C 0.70709(10) 0.88144(10) 0.97880(18)
C3_4 C 0.69095(9) 0.83151(9) 0.91911(18)
C4_4 C 0.79982(11) 0.94554(11) 0.9625(2)
H2_4 H 0.838707 0.930654 0.975462
H4_4 H 0.800430 0.972392 0.899062
C5_4 C 0.63542(10) 0.79971(11) 0.9241(2)
H5_4 H 0.628971 0.779736 0.852747
H6_4 H 0.603951 0.826908 0.937554
H7_4 H 0.636784 0.771548 0.985255
O4_3 O 0.94381(7) 0.45735(7) 0.18287(14)
N3_3 N 0.72632(8) 0.64193(8) 0.64218(15)
H12_3 H 0.6951(13) 0.6445(13) 0.679(3)
N4_4 N 0.76754(8) 0.68266(8) 0.65343(15)
C13_3 C 0.73956(9) 0.60296(10) 0.56328(18)
C14_4 C 0.79291(10) 0.61856(10) 0.52120(18)
C15_4 C 0.80905(9) 0.66849(9) 0.58089(18)
C16_3 C 0.70018(11) 0.55446(11) 0.5375(2)
H13_3 H 0.661293 0.569346 0.524538
H14_2 H 0.713660 0.534413 0.470118
H15_3 H 0.699570 0.527608 0.600938
C17_4 C 0.86458(10) 0.70029(11) 0.5759(2)
H16_4 H 0.871029 0.720264 0.647253
H17_4 H 0.896049 0.673092 0.562446
H18_4 H 0.863216 0.728452 0.514745
C18_3 C 0.82655(9) 0.58927(10) 0.43230(18)
C19_3 C 0.85040(10) 0.62159(10) 0.34546(19)
H19_3 H 0.844014 0.661941 0.343115
C20_3 C 0.88326(10) 0.59583(10) 0.26250(18)
H20_4 H 0.899314 0.618612 0.204163
C21_3 C 0.89286(9) 0.53670(10) 0.26421(17)
C22_3 C 0.86861(11) 0.50387(10) 0.3499(2)
H21_2 H 0.874655 0.463458 0.351565
C23_3 C 0.83576(11) 0.52977(10) 0.43262(19)
H22_3 H 0.819276 0.506871 0.490314
C24_4 C 0.93067(9) 0.50938(9) 0.17695(18)
O5_3 O 0.79227(7) 0.80126(6) 0.65079(12)
O6_3 O 0.70773(7) 0.69874(6) 0.84921(12)
Cu3_4 Cu 1.000000 1.000000 -0.000000
O2_4 O 0.70735(7) 0.80619(7) 0.56713(14)
N2_5 N 0.93266(8) 0.98246(8) 0.09657(15)
C2_5 C 0.86856(10) 0.95709(10) 0.22880(18)
C3_5 C 0.91849(9) 0.94095(9) 0.16911(18)
C5_5 C 0.95029(11) 0.88542(10) 0.1741(2)
H5_5 H 0.970264 0.878971 0.102747
H6_5 H 0.923092 0.853951 0.187554
H7_5 H 0.978452 0.886784 0.235255
C6_3 C 0.83927(10) 0.92345(9) 0.31770(18)
C7_3 C 0.87159(10) 0.89960(10) 0.40454(19)
H8_3 H 0.911941 0.905986 0.406885
C8_3 C 0.84583(10) 0.86674(10) 0.48750(18)
H9_4 H 0.868612 0.850686 0.545837
C9_3 C 0.78670(10) 0.85714(9) 0.48579(17)
C10_3 C 0.75387(10) 0.88139(11) 0.4001(2)
H10_3 H 0.713458 0.875345 0.398435
C11_3 C 0.77977(10) 0.91424(11) 0.31738(19)
H11_3 H 0.756871 0.930724 0.259686
C12_4 C 0.75938(9) 0.81933(9) 0.57305(18)
O4_4 O 0.79265(7) 0.69381(7) 0.93287(14)
H20_5 H 0.631388 0.649314 0.954163
C24_5 C 0.74062(9) 0.68067(9) 0.92695(18)
Cu1_5 Cu 1.000000 0.500000 1.000000
O3_3 O 0.79227(7) 0.30126(6) 0.34921(12)
O4_5 O 0.70735(7) 0.30619(7) 0.43287(14)
N3_4 N 0.89193(8) 0.52368(8) 0.89218(15)
H12_4 H 0.8945(13) 0.5549(13) 0.929(3)
N4_5 N 0.93266(8) 0.48246(8) 0.90343(15)
C13_4 C 0.85296(10) 0.51044(9) 0.81328(18)
C14_5 C 0.86856(10) 0.45709(10) 0.77120(18)
C15_5 C 0.91849(9) 0.44095(9) 0.83089(18)
C16_4 C 0.80446(11) 0.54982(11) 0.7875(2)
H13_4 H 0.819346 0.588707 0.774538
H14_3 H 0.784413 0.536340 0.720118
H15_4 H 0.777608 0.550430 0.850938
C17_5 C 0.95029(11) 0.38542(10) 0.8259(2)
H16_5 H 0.970264 0.378971 0.897253
H17_5 H 0.923092 0.353951 0.812446
H18_5 H 0.978452 0.386784 0.764745
C18_4 C 0.83927(10) 0.42345(9) 0.68230(18)
C19_4 C 0.87159(10) 0.39960(10) 0.59546(19)
H19_4 H 0.911941 0.405986 0.593115
C20_4 C 0.84583(10) 0.36674(10) 0.51250(18)
H20_6 H 0.868612 0.350686 0.454163
C21_4 C 0.78670(10) 0.35714(9) 0.51421(17)
C22_4 C 0.75387(10) 0.38139(11) 0.5999(2)
H21_3 H 0.713458 0.375345 0.601565
C23_4 C 0.77977(10) 0.41424(11) 0.68262(19)
H22_4 H 0.756871 0.430724 0.740314
C24_6 C 0.75938(9) 0.31933(9) 0.42695(18)
Cu2_2 Cu 0.750000 0.250000 0.250000
O1_2 O 0.94874(6) 0.04227(7) 0.90079(12)
N1_5 N 0.72632(8) 0.14193(8) 0.35782(15)
H1_5 H 0.6951(13) 0.1445(13) 0.321(3)
N2_6 N 0.76754(8) 0.18266(8) 0.34657(15)
C1_5 C 0.73956(9) 0.10296(10) 0.43672(18)
C2_6 C 0.79291(10) 0.11856(10) 0.47880(18)
C3_6 C 0.80905(9) 0.16849(9) 0.41911(18)
C4_5 C 0.70018(11) 0.05446(11) 0.4625(2)
H2_5 H 0.661293 0.069346 0.475462
H3_3 H 0.713660 0.034413 0.529882
H4_5 H 0.699570 0.027608 0.399062
C5_6 C 0.86458(10) 0.20029(11) 0.4241(2)
H5_6 H 0.871029 0.220264 0.352747
H6_6 H 0.896049 0.173092 0.437554
H7_6 H 0.863216 0.228452 0.485255
C6_4 C 0.82655(9) 0.08927(10) 0.56770(18)
C7_4 C 0.85040(10) 0.12159(10) 0.65454(19)
H8_4 H 0.844014 0.161941 0.656885
C8_4 C 0.88326(10) 0.09583(10) 0.73750(18)
H9_5 H 0.899314 0.118612 0.795837
C9_4 C 0.89286(9) 0.03670(10) 0.73579(17)
C10_4 C 0.86861(11) 0.00387(10) 0.6501(2)
C11_4 C 0.83576(11) 0.02977(10) 0.56738(19)
H11_4 H 0.819276 0.006871 0.509686
C12_5 C 0.93067(9) 0.00938(9) 0.82305(18)
N3_5 N 0.77368(8) 0.35807(8) 0.14218(15)
H12_5 H 0.8049(13) 0.3555(13) 0.179(3)
N4_6 N 0.73246(8) 0.31734(8) 0.15343(15)
C13_5 C 0.76044(9) 0.39704(10) 0.06328(18)
C14_6 C 0.70709(10) 0.38144(10) 0.02120(18)
C15_6 C 0.69095(9) 0.33151(9) 0.08089(18)
C16_5 C 0.79982(11) 0.44554(11) 0.0375(2)
H13_5 H 0.838707 0.430654 0.024538
H15_5 H 0.800430 0.472392 0.100938
C17_6 C 0.63542(10) 0.29971(11) 0.0759(2)
H16_6 H 0.628971 0.279736 0.147253
H17_6 H 0.603951 0.326908 0.062446
H18_6 H 0.636784 0.271548 0.014745
Cu3_5 Cu 1.000000 0.000000 1.000000
O5_4 O 0.70773(7) 0.19874(6) 0.15079(12)
O2_5 O 0.79265(7) 0.19381(7) 0.06713(14)
H9_6 H 0.631388 0.149314 0.045837
C12_6 C 0.74062(9) 0.18067(9) 0.07305(18)
O2_6 O 0.55619(7) 0.04265(7) 0.31713(14)
H10_4 H 0.625345 0.036542 0.148435
Cu3_6 Cu 0.500000 -0.000000 0.500000
N2_7 N 0.56734(8) 0.01754(8) 0.59657(15)
C2_7 C 0.63144(10) 0.04291(10) 0.72880(18)
C3_7 C 0.58151(9) 0.05905(9) 0.66911(18)
C5_7 C 0.54971(11) 0.11458(10) 0.6741(2)
H5_7 H 0.529736 0.121029 0.602747
H6_7 H 0.576908 0.146049 0.687554
H7_7 H 0.521548 0.113216 0.735255
C6_5 C 0.66073(10) 0.07655(9) 0.81770(18)
C7_5 C 0.62841(10) 0.10040(10) 0.90454(19)
H8_5 H 0.588059 0.094014 0.906885
C8_5 C 0.65417(10) 0.13326(10) 0.98750(18)
C9_5 C 0.71330(10) 0.14286(9) 0.98579(17)
C10_5 C 0.74613(10) 0.11861(11) 0.9001(2)
H10_5 H 0.786542 0.124655 0.898435
C11_5 C 0.72023(10) 0.08576(11) 0.81738(19)
H11_5 H 0.743129 0.069276 0.759686
N3_6 N 0.39193(8) 0.02368(8) 0.39218(15)
H12_6 H 0.3945(13) 0.0549(13) 0.429(3)
C13_6 C 0.35296(10) 0.01044(9) 0.31328(18)
C16_6 C 0.30446(11) 0.04982(11) 0.2875(2)
H13_6 H 0.319346 0.088707 0.274538
H14_4 H 0.284413 0.036340 0.220118
H15_6 H 0.277608 0.050430 0.350938
O6_4 O 0.44874(6) 0.04227(7) 0.59921(12)
H14_5 H 0.213660 0.034413 0.970118
C18_5 C 0.32655(9) 0.08927(10) 0.93230(18)
C19_5 C 0.35040(10) 0.12159(10) 0.84546(19)
H19_5 H 0.344014 0.161941 0.843115
C20_5 C 0.38326(10) 0.09583(10) 0.76250(18)
H20_7 H 0.399314 0.118612 0.704163
C21_5 C 0.39286(9) 0.03670(10) 0.76421(17)
C22_5 C 0.36861(11) 0.00387(10) 0.8499(2)
C23_5 C 0.33576(11) 0.02977(10) 0.93262(19)
H22_5 H 0.319276 0.006871 0.990314
C24_7 C 0.43067(9) 0.00938(9) 0.67695(18)
O1_3 O 0.55126(6) 0.95773(7) 0.40079(12)
H3_4 H 0.786340 0.965587 0.029882
C6_6 C 0.67345(9) 0.91073(10) 0.06770(18)
C7_6 C 0.64960(10) 0.87841(10) 0.15454(19)
H8_6 H 0.655986 0.838059 0.156885
C8_6 C 0.61674(10) 0.90417(10) 0.23750(18)
H9_7 H 0.600686 0.881388 0.295837
C9_6 C 0.60714(9) 0.96330(10) 0.23579(17)
C10_6 C 0.63139(11) 0.99613(10) 0.1501(2)
C11_6 C 0.66424(11) 0.97023(10) 0.06738(19)
H11_6 H 0.680724 0.993129 0.009686
C12_7 C 0.56933(9) 0.99062(9) 0.32305(18)
Cu3_7 Cu 0.500000 1.000000 0.500000
N1_6 N 0.60807(8) 0.97632(8) 0.60782(15)
H1_6 H 0.6055(13) 0.9451(13) 0.571(3)
C1_6 C 0.64704(10) 0.98956(9) 0.68672(18)
C4_6 C 0.69554(11) 0.95018(11) 0.7125(2)
H2_6 H 0.680654 0.911293 0.725462
H3_5 H 0.715587 0.963660 0.779882
H4_6 H 0.722392 0.949570 0.649062
N4_7 N 0.43266(8) 0.98246(8) 0.40343(15)
C14_7 C 0.36856(10) 0.95709(10) 0.27120(18)
C15_7 C 0.41849(9) 0.94095(9) 0.33089(18)
C17_7 C 0.45029(11) 0.88542(10) 0.3259(2)
H16_7 H 0.470264 0.878971 0.397253
H17_7 H 0.423092 0.853951 0.312446
H18_7 H 0.478452 0.886784 0.264745
C18_6 C 0.33927(10) 0.92345(9) 0.18230(18)
C19_6 C 0.37159(10) 0.89960(10) 0.09546(19)
H19_6 H 0.411941 0.905986 0.093115
C20_6 C 0.34583(10) 0.86674(10) 0.01250(18)
C21_6 C 0.28670(10) 0.85714(9) 0.01421(17)
C22_6 C 0.25387(10) 0.88139(11) 0.0999(2)
H21_4 H 0.213458 0.875345 0.101565
C23_6 C 0.27977(10) 0.91424(11) 0.18262(19)
H22_6 H 0.256871 0.930724 0.240314
O4_6 O 0.44381(7) 0.95735(7) 0.68287(14)
H21_5 H 0.374655 0.963458 0.851565
Cu3_8 Cu 0.000000 0.000000 -0.000000
O4_7 O 0.05619(7) 0.04265(7) 0.18287(14)
H21_6 H 0.125345 0.036542 0.351565
Cu3_9 Cu 0.000000 1.000000 1.000000
N3_7 N 0.10807(8) 0.97632(8) 0.89218(15)
H12_7 H 0.1055(13) 0.9451(13) 0.929(3)
C13_7 C 0.14704(10) 0.98956(9) 0.81328(18)
C16_7 C 0.19554(11) 0.95018(11) 0.7875(2)
H13_7 H 0.180654 0.911293 0.774538
H14_6 H 0.215587 0.963660 0.720118
H15_7 H 0.222392 0.949570 0.850938
Cu3_10 Cu 1.000000 0.000000 -0.000000
N1_7 N 0.89193(8) 0.02368(8) 0.10782(15)
H1_7 H 0.8945(13) 0.0549(13) 0.071(3)
C1_7 C 0.85296(10) 0.01044(9) 0.18672(18)
C4_7 C 0.80446(11) 0.04982(11) 0.2125(2)
H2_7 H 0.819346 0.088707 0.225462
H3_6 H 0.784413 0.036340 0.279882
H4_7 H 0.777608 0.050430 0.149062
O3_4 O 0.55126(6) 0.45773(7) 0.59921(12)
O4_8 O 0.55619(7) 0.54265(7) 0.68287(14)
H14_7 H 0.786340 0.465587 0.970118
C18_7 C 0.67345(9) 0.41073(10) 0.93230(18)
C19_7 C 0.64960(10) 0.37841(10) 0.84546(19)
H19_7 H 0.655986 0.338059 0.843115
C20_7 C 0.61674(10) 0.40417(10) 0.76250(18)
H20_8 H 0.600686 0.381388 0.704163
C21_7 C 0.60714(9) 0.46330(10) 0.76421(17)
C22_7 C 0.63139(11) 0.49613(10) 0.8499(2)
H21_7 H 0.625345 0.536542 0.851565
C23_7 C 0.66424(11) 0.47023(10) 0.93262(19)
H22_7 H 0.680724 0.493129 0.990314
C24_8 C 0.56933(9) 0.49062(9) 0.67695(18)
Cu2_3 Cu 0.500000 0.500000 0.500000
O1_4 O 0.44874(6) 0.54227(7) 0.40079(12)
O2_7 O 0.44381(7) 0.45735(7) 0.31713(14)
H3_7 H 0.213660 0.534413 0.029882
C6_7 C 0.32655(9) 0.58927(10) 0.06770(18)
C7_7 C 0.35040(10) 0.62159(10) 0.15454(19)
H8_7 H 0.344014 0.661941 0.156885
C8_7 C 0.38326(10) 0.59583(10) 0.23750(18)
H9_8 H 0.399314 0.618612 0.295837
C9_7 C 0.39286(9) 0.53670(10) 0.23579(17)
C10_7 C 0.36861(11) 0.50387(10) 0.1501(2)
H10_6 H 0.374655 0.463458 0.148435
C11_7 C 0.33576(11) 0.52977(10) 0.06738(19)
H11_7 H 0.319276 0.506871 0.009686
C12_8 C 0.43067(9) 0.50938(9) 0.32305(18)
N1_8 N 0.39193(8) 0.52368(8) 0.60782(15)
H1_8 H 0.3945(13) 0.5549(13) 0.571(3)
N2_8 N 0.43266(8) 0.48246(8) 0.59657(15)
C1_8 C 0.35296(10) 0.51044(9) 0.68672(18)
C2_8 C 0.36856(10) 0.45709(10) 0.72880(18)
C3_8 C 0.41849(9) 0.44095(9) 0.66911(18)
C4_8 C 0.30446(11) 0.54982(11) 0.7125(2)
H2_8 H 0.319346 0.588707 0.725462
H3_8 H 0.284413 0.536340 0.779882
H4_8 H 0.277608 0.550430 0.649062
C5_8 C 0.45029(11) 0.38542(10) 0.6741(2)
H5_8 H 0.470264 0.378971 0.602747
H6_8 H 0.423092 0.353951 0.687554
H7_8 H 0.478452 0.386784 0.735255
C6_8 C 0.33927(10) 0.42345(9) 0.81770(18)
C7_8 C 0.37159(10) 0.39960(10) 0.90454(19)
H8_8 H 0.411941 0.405986 0.906885
C8_8 C 0.34583(10) 0.36674(10) 0.98750(18)
C9_8 C 0.28670(10) 0.35714(9) 0.98579(17)
C10_8 C 0.25387(10) 0.38139(11) 0.9001(2)
H10_7 H 0.213458 0.375345 0.898435
C11_8 C 0.27977(10) 0.41424(11) 0.81738(19)
H11_8 H 0.256871 0.430724 0.759686
N3_8 N 0.60807(8) 0.47632(8) 0.39218(15)
H12_8 H 0.6055(13) 0.4451(13) 0.429(3)
N4_8 N 0.56734(8) 0.51754(8) 0.40343(15)
C13_8 C 0.64704(10) 0.48956(9) 0.31328(18)
C14_8 C 0.63144(10) 0.54291(10) 0.27120(18)
C15_8 C 0.58151(9) 0.55905(9) 0.33089(18)
C16_8 C 0.69554(11) 0.45018(11) 0.2875(2)
H13_8 H 0.680654 0.411293 0.274538
H14_8 H 0.715587 0.463660 0.220118
H15_8 H 0.722392 0.449570 0.350938
C17_8 C 0.54971(11) 0.61458(10) 0.3259(2)
H16_8 H 0.529736 0.621029 0.397253
H17_8 H 0.576908 0.646049 0.312446
H18_8 H 0.521548 0.613216 0.264745
C18_8 C 0.66073(10) 0.57655(9) 0.18230(18)
C19_8 C 0.62841(10) 0.60040(10) 0.09546(19)
H19_8 H 0.588059 0.594014 0.093115
C20_8 C 0.65417(10) 0.63326(10) 0.01250(18)
C21_8 C 0.71330(10) 0.64286(9) 0.01421(17)
C22_8 C 0.74613(10) 0.61861(11) 0.0999(2)
H21_8 H 0.786542 0.624655 0.101565
C23_8 C 0.72023(10) 0.58576(11) 0.18262(19)
H22_8 H 0.743129 0.569276 0.240314
O2_8 O 0.94381(7) 0.95735(7) 0.81713(14)
H10_8 H 0.874655 0.963458 0.648435
Cu3_11 Cu 1.000000 1.000000 1.000000
loop_
_geom_bond_atom_site_label_1
_geom_bond_atom_site_label_2
_geom_bond_site_symmetry_1
_geom_bond_site_symmetry_2
Cu1 N2 1_555 1_555
O1 C12 1_555 1_555
O2 C12 1_555 1_555
N1 H1 1_555 1_555
N2 N1 1_555 1_555
C1 N1 1_555 1_555
C2 C1 1_555 1_555
C3 N2 1_555 1_555
C4 C1 1_555 1_555
H2 C4 1_555 1_555
H3 C4 1_555 1_555
H4 C4 1_555 1_555
C5 C3 1_555 1_555
H5 C5 1_555 1_555
H6 C5 1_555 1_555
H7 C5 1_555 1_555
C6 C2 1_555 1_555
C7 C6 1_555 1_555
H8 C7 1_555 1_555
C8 C7 1_555 1_555
H9 C8 1_555 1_555
C9 C8 1_555 1_555
C10 C9 1_555 1_555
H10 C10 1_555 1_555
C11 C6 1_555 1_555
H11 C11 1_555 1_555
C12 C9 1_555 1_555
Cu3 O1 1_555 1_555
C2 C3 1_555 1_555
C10 C11 1_555 1_555
O6 Cu3_2 1_555 1_555
O3 C24 1_555 1_555
O4 C24 1_555 1_555
Cu3 O3 1_555 1_555
Cu3 N2_2 1_555 1_555
N1_2 H1_2 1_555 1_555
N2_2 N1_2 1_555 1_555
C1_2 N1_2 1_555 1_555
C2_2 C1_2 1_555 1_555
C3_2 N2_2 1_555 1_555
C4_2 C1_2 1_555 1_555
H2_2 C4_2 1_555 1_555
H4_2 C4_2 1_555 1_555
C5_2 C3_2 1_555 1_555
H5_2 C5_2 1_555 1_555
H6_2 C5_2 1_555 1_555
H7_2 C5_2 1_555 1_555
O6 C24_2 1_555 1_555
N3 H12 1_555 1_555
N4 Cu3 1_555 1_555
C13 N3 1_555 1_555
C14 C13 1_555 1_555
C15 N4 1_555 1_555
C16 C13 1_555 1_555
H13 C16 1_555 1_555
H14 C16 1_555 1_555
H15 C16 1_555 1_555
C17 C15 1_555 1_555
H16 C17 1_555 1_555
H17 C17 1_555 1_555
H18 C17 1_555 1_555
C18 C14 1_555 1_555
C19 C18 1_555 1_555
H19 C19 1_555 1_555
C20 C19 1_555 1_555
H20_2 C20 1_555 1_555
C21 C20 1_555 1_555
C22 C21 1_555 1_555
C23 C18 1_555 1_555
H22 C23 1_555 1_555
C24_2 C21 1_555 1_555
C2_2 C3_2 1_555 1_555
N3 N4 1_555 1_555
C14 C15 1_555 1_555
C22 C23 1_555 1_555
O5 Cu1_2 1_555 1_555
O3_2 C24_3 1_555 1_555
O4_2 C24_3 1_555 1_555
N4_2 Cu3_3 1_555 1_555
C15_2 N4_2 1_555 1_555
C17_2 C15_2 1_555 1_555
H16_2 C17_2 1_555 1_555
H17_2 C17_2 1_555 1_555
H18_2 C17_2 1_555 1_555
C18_2 C14_2 1_555 1_555
C19_2 C18_2 1_555 1_555
H19_2 C19_2 1_555 1_555
C20_2 C19_2 1_555 1_555
H20_3 C20_2 1_555 1_555
C21_2 C20_2 1_555 1_555
C22_2 C21_2 1_555 1_555
H21 C22_2 1_555 1_555
C23_2 C18_2 1_555 1_555
H22_2 C23_2 1_555 1_555
C24_3 C21_2 1_555 1_555
Cu2 O3_2 1_555 1_555
C14_2 C15_2 1_555 1_555
C22_2 C23_2 1_555 1_555
Cu2 N2_3 1_555 1_555
O5 C12_2 1_555 1_555
O2_2 C12_2 1_555 1_555
N1_3 H1_3 1_555 1_555
N2_3 N1_3 1_555 1_555
C1_3 N1_3 1_555 1_555
C2_3 C1_3 1_555 1_555
C3_3 N2_3 1_555 1_555
C4_3 C1_3 1_555 1_555
H2_3 C4_3 1_555 1_555
H3_2 C4_3 1_555 1_555
H4_3 C4_3 1_555 1_555
C5_3 C3_3 1_555 1_555
H5_3 C5_3 1_555 1_555
H6_3 C5_3 1_555 1_555
H7_3 C5_3 1_555 1_555
C6_2 C2_3 1_555 1_555
C7_2 C6_2 1_555 1_555
H8_2 C7_2 1_555 1_555
C8_2 C7_2 1_555 1_555
H9_2 C8_2 1_555 1_555
C9_2 C8_2 1_555 1_555
C10_2 C9_2 1_555 1_555
H10_2 C10_2 1_555 1_555
C11_2 C6_2 1_555 1_555
H11_2 C11_2 1_555 1_555
C12_2 C9_2 1_555 1_555
N3_2 H12_2 1_555 1_555
N4_3 Cu2 1_555 1_555
C13_2 N3_2 1_555 1_555
C14_3 C13_2 1_555 1_555
C15_3 N4_3 1_555 1_555
C16_2 C13_2 1_555 1_555
H13_2 C16_2 1_555 1_555
H15_2 C16_2 1_555 1_555
C17_3 C15_3 1_555 1_555
H16_3 C17_3 1_555 1_555
H17_3 C17_3 1_555 1_555
H18_3 C17_3 1_555 1_555
O5_2 Cu2 1_555 1_555
C2_3 C3_3 1_555 1_555
C10_2 C11_2 1_555 1_555
N3_2 N4_3 1_555 1_555
C14_3 C15_3 1_555 1_555
O5_2 C12_3 1_555 1_555
O2_3 C12_3 1_555 1_555
O6_2 Cu1_3 1_555 1_555
Cu1_4 N2_4 1_555 1_555
N1_4 H1_4 1_555 1_555
N2_4 N1_4 1_555 1_555
C1_4 N1_4 1_555 1_555
C2_4 C1_4 1_555 1_555
C3_4 N2_4 1_555 1_555
C4_4 C1_4 1_555 1_555
H2_4 C4_4 1_555 1_555
H4_4 C4_4 1_555 1_555
C5_4 C3_4 1_555 1_555
H5_4 C5_4 1_555 1_555
H6_4 C5_4 1_555 1_555
H7_4 C5_4 1_555 1_555
O6_2 C24_4 1_555 1_555
O4_3 C24_4 1_555 1_555
N3_3 H12_3 1_555 1_555
N4_4 Cu1_4 1_555 1_555
C13_3 N3_3 1_555 1_555
C14_4 C13_3 1_555 1_555
C15_4 N4_4 1_555 1_555
C16_3 C13_3 1_555 1_555
H13_3 C16_3 1_555 1_555
H14_2 C16_3 1_555 1_555
H15_3 C16_3 1_555 1_555
C17_4 C15_4 1_555 1_555
H16_4 C17_4 1_555 1_555
H17_4 C17_4 1_555 1_555
H18_4 C17_4 1_555 1_555
C18_3 C14_4 1_555 1_555
C19_3 C18_3 1_555 1_555
H19_3 C19_3 1_555 1_555
C20_3 C19_3 1_555 1_555
H20_4 C20_3 1_555 1_555
C21_3 C20_3 1_555 1_555
C22_3 C21_3 1_555 1_555
H21_2 C22_3 1_555 1_555
C23_3 C18_3 1_555 1_555
H22_3 C23_3 1_555 1_555
C24_4 C21_3 1_555 1_555
O5_3 Cu1_4 1_555 1_555
O6_3 Cu1_4 1_555 1_555
C2_4 C3_4 1_555 1_555
N3_3 N4_4 1_555 1_555
C14_4 C15_4 1_555 1_555
C22_3 C23_3 1_555 1_555
Cu3_4 N2_5 1_555 1_555
O5_3 C12_4 1_555 1_555
O2_4 C12_4 1_555 1_555
C3_5 N2_5 1_555 1_555
C5_5 C3_5 1_555 1_555
H5_5 C5_5 1_555 1_555
H6_5 C5_5 1_555 1_555
H7_5 C5_5 1_555 1_555
C6_3 C2_5 1_555 1_555
C7_3 C6_3 1_555 1_555
H8_3 C7_3 1_555 1_555
C8_3 C7_3 1_555 1_555
H9_4 C8_3 1_555 1_555
C9_3 C8_3 1_555 1_555
C10_3 C9_3 1_555 1_555
H10_3 C10_3 1_555 1_555
C11_3 C6_3 1_555 1_555
H11_3 C11_3 1_555 1_555
C12_4 C9_3 1_555 1_555
C2_5 C3_5 1_555 1_555
C10_3 C11_3 1_555 1_555
O6_3 C24_5 1_555 1_555
O4_4 C24_5 1_555 1_555
O3_3 C24_6 1_555 1_555
O4_5 C24_6 1_555 1_555
N3_4 H12_4 1_555 1_555
N4_5 Cu1_5 1_555 1_555
C13_4 N3_4 1_555 1_555
C14_5 C13_4 1_555 1_555
C15_5 N4_5 1_555 1_555
C16_4 C13_4 1_555 1_555
H13_4 C16_4 1_555 1_555
H14_3 C16_4 1_555 1_555
H15_4 C16_4 1_555 1_555
C17_5 C15_5 1_555 1_555
H16_5 C17_5 1_555 1_555
H17_5 C17_5 1_555 1_555
H18_5 C17_5 1_555 1_555
C18_4 C14_5 1_555 1_555
C19_4 C18_4 1_555 1_555
H19_4 C19_4 1_555 1_555
C20_4 C19_4 1_555 1_555
H20_6 C20_4 1_555 1_555
C21_4 C20_4 1_555 1_555
C22_4 C21_4 1_555 1_555
H21_3 C22_4 1_555 1_555
C23_4 C18_4 1_555 1_555
H22_4 C23_4 1_555 1_555
C24_6 C21_4 1_555 1_555
Cu2_2 O3_3 1_555 1_555
N3_4 N4_5 1_555 1_555
C14_5 C15_5 1_555 1_555
C22_4 C23_4 1_555 1_555
Cu2_2 N2_6 1_555 1_555
O1_2 C12_5 1_555 1_555
N1_5 H1_5 1_555 1_555
N2_6 N1_5 1_555 1_555
C1_5 N1_5 1_555 1_555
C2_6 C1_5 1_555 1_555
C3_6 N2_6 1_555 1_555
C4_5 C1_5 1_555 1_555
H2_5 C4_5 1_555 1_555
H3_3 C4_5 1_555 1_555
H4_5 C4_5 1_555 1_555
C5_6 C3_6 1_555 1_555
H5_6 C5_6 1_555 1_555
H6_6 C5_6 1_555 1_555
H7_6 C5_6 1_555 1_555
C6_4 C2_6 1_555 1_555
C7_4 C6_4 1_555 1_555
H8_4 C7_4 1_555 1_555
C8_4 C7_4 1_555 1_555
H9_5 C8_4 1_555 1_555
C9_4 C8_4 1_555 1_555
C10_4 C9_4 1_555 1_555
C11_4 C6_4 1_555 1_555
H11_4 C11_4 1_555 1_555
C12_5 C9_4 1_555 1_555
N3_5 H12_5 1_555 1_555
N4_6 Cu2_2 1_555 1_555
C13_5 N3_5 1_555 1_555
C14_6 C13_5 1_555 1_555
C15_6 N4_6 1_555 1_555
C16_5 C13_5 1_555 1_555
H13_5 C16_5 1_555 1_555
H15_5 C16_5 1_555 1_555
C17_6 C15_6 1_555 1_555
H16_6 C17_6 1_555 1_555
H17_6 C17_6 1_555 1_555
H18_6 C17_6 1_555 1_555
Cu3_5 O1_2 1_555 1_555
O5_4 Cu2_2 1_555 1_555
C2_6 C3_6 1_555 1_555
C10_4 C11_4 1_555 1_555
N3_5 N4_6 1_555 1_555
C14_6 C15_6 1_555 1_555
O5_4 C12_6 1_555 1_555
O2_5 C12_6 1_555 1_555
Cu3_6 N2_7 1_555 1_555
C3_7 N2_7 1_555 1_555
C5_7 C3_7 1_555 1_555
H5_7 C5_7 1_555 1_555
H6_7 C5_7 1_555 1_555
H7_7 C5_7 1_555 1_555
C6_5 C2_7 1_555 1_555
C7_5 C6_5 1_555 1_555
H8_5 C7_5 1_555 1_555
C8_5 C7_5 1_555 1_555
C9_5 C8_5 1_555 1_555
C10_5 C9_5 1_555 1_555
H10_5 C10_5 1_555 1_555
C11_5 C6_5 1_555 1_555
H11_5 C11_5 1_555 1_555
N3_6 H12_6 1_555 1_555
C13_6 N3_6 1_555 1_555
C16_6 C13_6 1_555 1_555
H13_6 C16_6 1_555 1_555
H14_4 C16_6 1_555 1_555
H15_6 C16_6 1_555 1_555
O6_4 Cu3_6 1_555 1_555
C2_7 C3_7 1_555 1_555
C10_5 C11_5 1_555 1_555
O6_4 C24_7 1_555 1_555
C19_5 C18_5 1_555 1_555
H19_5 C19_5 1_555 1_555
C20_5 C19_5 1_555 1_555
H20_7 C20_5 1_555 1_555
C21_5 C20_5 1_555 1_555
C22_5 C21_5 1_555 1_555
C23_5 C18_5 1_555 1_555
H22_5 C23_5 1_555 1_555
C24_7 C21_5 1_555 1_555
C22_5 C23_5 1_555 1_555
O1_3 C12_7 1_555 1_555
C7_6 C6_6 1_555 1_555
H8_6 C7_6 1_555 1_555
C8_6 C7_6 1_555 1_555
H9_7 C8_6 1_555 1_555
C9_6 C8_6 1_555 1_555
C10_6 C9_6 1_555 1_555
C11_6 C6_6 1_555 1_555
H11_6 C11_6 1_555 1_555
C12_7 C9_6 1_555 1_555
Cu3_7 O1_3 1_555 1_555
C10_6 C11_6 1_555 1_555
N1_6 H1_6 1_555 1_555
C1_6 N1_6 1_555 1_555
C4_6 C1_6 1_555 1_555
H2_6 C4_6 1_555 1_555
H3_5 C4_6 1_555 1_555
H4_6 C4_6 1_555 1_555
N4_7 Cu3_7 1_555 1_555
C15_7 N4_7 1_555 1_555
C17_7 C15_7 1_555 1_555
H16_7 C17_7 1_555 1_555
H17_7 C17_7 1_555 1_555
H18_7 C17_7 1_555 1_555
C18_6 C14_7 1_555 1_555
C19_6 C18_6 1_555 1_555
H19_6 C19_6 1_555 1_555
C20_6 C19_6 1_555 1_555
C21_6 C20_6 1_555 1_555
C22_6 C21_6 1_555 1_555
H21_4 C22_6 1_555 1_555
C23_6 C18_6 1_555 1_555
H22_6 C23_6 1_555 1_555
C14_7 C15_7 1_555 1_555
C22_6 C23_6 1_555 1_555
N3_7 H12_7 1_555 1_555
C13_7 N3_7 1_555 1_555
C16_7 C13_7 1_555 1_555
H13_7 C16_7 1_555 1_555
H14_6 C16_7 1_555 1_555
H15_7 C16_7 1_555 1_555
N1_7 H1_7 1_555 1_555
C1_7 N1_7 1_555 1_555
C4_7 C1_7 1_555 1_555
H2_7 C4_7 1_555 1_555
H3_6 C4_7 1_555 1_555
H4_7 C4_7 1_555 1_555
O3_4 C24_8 1_555 1_555
O4_8 C24_8 1_555 1_555
C19_7 C18_7 1_555 1_555
H19_7 C19_7 1_555 1_555
C20_7 C19_7 1_555 1_555
H20_8 C20_7 1_555 1_555
C21_7 C20_7 1_555 1_555
C22_7 C21_7 1_555 1_555
H21_7 C22_7 1_555 1_555
C23_7 C18_7 1_555 1_555
H22_7 C23_7 1_555 1_555
C24_8 C21_7 1_555 1_555
Cu2_3 O3_4 1_555 1_555
C22_7 C23_7 1_555 1_555
O1_4 C12_8 1_555 1_555
O2_7 C12_8 1_555 1_555
C7_7 C6_7 1_555 1_555
H8_7 C7_7 1_555 1_555
C8_7 C7_7 1_555 1_555
H9_8 C8_7 1_555 1_555
C9_7 C8_7 1_555 1_555
C10_7 C9_7 1_555 1_555
H10_6 C10_7 1_555 1_555
C11_7 C6_7 1_555 1_555
H11_7 C11_7 1_555 1_555
C12_8 C9_7 1_555 1_555
Cu2_3 O1_4 1_555 1_555
C10_7 C11_7 1_555 1_555
Cu2_3 N2_8 1_555 1_555
N1_8 H1_8 1_555 1_555
N2_8 N1_8 1_555 1_555
C1_8 N1_8 1_555 1_555
C2_8 C1_8 1_555 1_555
C3_8 N2_8 1_555 1_555
C4_8 C1_8 1_555 1_555
H2_8 C4_8 1_555 1_555
H3_8 C4_8 1_555 1_555
H4_8 C4_8 1_555 1_555
C5_8 C3_8 1_555 1_555
H5_8 C5_8 1_555 1_555
H6_8 C5_8 1_555 1_555
H7_8 C5_8 1_555 1_555
C6_8 C2_8 1_555 1_555
C7_8 C6_8 1_555 1_555
H8_8 C7_8 1_555 1_555
C8_8 C7_8 1_555 1_555
C9_8 C8_8 1_555 1_555
C10_8 C9_8 1_555 1_555
H10_7 C10_8 1_555 1_555
C11_8 C6_8 1_555 1_555
H11_8 C11_8 1_555 1_555
N3_8 H12_8 1_555 1_555
N4_8 Cu2_3 1_555 1_555
C13_8 N3_8 1_555 1_555
C14_8 C13_8 1_555 1_555
C15_8 N4_8 1_555 1_555
C16_8 C13_8 1_555 1_555
H13_8 C16_8 1_555 1_555
H14_8 C16_8 1_555 1_555
H15_8 C16_8 1_555 1_555
C17_8 C15_8 1_555 1_555
H16_8 C17_8 1_555 1_555
H17_8 C17_8 1_555 1_555
H18_8 C17_8 1_555 1_555
C18_8 C14_8 1_555 1_555
C19_8 C18_8 1_555 1_555
H19_8 C19_8 1_555 1_555
C20_8 C19_8 1_555 1_555
C21_8 C20_8 1_555 1_555
C22_8 C21_8 1_555 1_555
H21_8 C22_8 1_555 1_555
C23_8 C18_8 1_555 1_555
H22_8 C23_8 1_555 1_555
C2_8 C3_8 1_555 1_555
C10_8 C11_8 1_555 1_555
N3_8 N4_8 1_555 1_555
C14_8 C15_8 1_555 1_555
C22_8 C23_8 1_555 1_555

#END
