
###############################################################################
#
# This file contains modified crystal structure data generated from the
# MOF subset of the Cambridge Structural Database (CSD) v543 
# hosted by the Cambridge Crystallographic Data Centre (CCDC).
#
# This work is licensed under the Creative Commons
# Attribution-NonCommercial-ShareAlike 4.0 International License.
# To view a copy of this license, visit
# http://creativecommons.org/licenses/by-nc-sa/4.0/
# or send a letter to
# Creative Commons, PO Box 1866, Mountain View, CA 94042, USA.
#
# CIF created using the CSD Python API on 29 September 2022
# The structure has been converted into the P1 space group
# The structure has a 3D framework
# The original CSD entry DUYVEA is in the orthorhombic crystal system
# The framework has been calculated to contain at least 10.0% void space
# The void calculation uses a probe of radius 1.32A, grid spacing 0.4
#
###############################################################################

data_DUYVEA
_chemical_formula_moiety         '(C72 H82 Cd4 N16 O19)n'
_symmetry_cell_setting           triclinic
_symmetry_space_group_name_H-M   'P 1'
_symmetry_Int_Tables_number      1
_space_group_name_Hall           'P 1'
loop_
_symmetry_equiv_pos_site_id
_symmetry_equiv_pos_as_xyz
1 x,y,z
_cell_length_a                   7.087(5)
_cell_length_b                   17.669(5)
_cell_length_c                   17.793(5)
_cell_angle_alpha                90
_cell_angle_beta                 90
_cell_angle_gamma                90
_cell_volume                     2228.04
loop_
_atom_site_label
_atom_site_type_symbol
_atom_site_fract_x
_atom_site_fract_y
_atom_site_fract_z
O5 O 0.0424(3) 0.00466(11) 0.54044(16)
H20 H 0.0914 0.0125 0.4974
H19 H 0.0921 0.9653 0.5599
Cd2 Cd 0.277542(18) 0.013058(8) 0.026770(13)
C1 C 0.2070(5) 0.1854(2) 0.07851(19)
H1 H 0.1919 0.1609 0.1244
N1 N 0.2374(2) 0.14373(12) 0.0180(2)
C4 C 0.2128(3) 0.29954(17) 0.00906(16)
H2 H 0.2069 0.3521 0.0067
C6 C 0.1963(5) 0.2632(2) 0.07713(19)
H3 H 0.1783 0.2906 0.1212
O1 O 0.3382(3) 0.02377(12) 0.15546(12)
O2 O 0.5932(3) 0.03332(11) 0.08708(10)
C13 C 0.5148(4) 0.03190(14) 0.14919(13)
C16 C 0.6360(4) 0.03888(15) 0.21944(13)
H15 H 0.7540 0.0123 0.2113
H16 H 0.6653 0.0919 0.2278
C17 C 0.5437(5) 0.0079(2) 0.28771(16)
H18 H 0.4330 0.0385 0.2982
O3 O 0.8331(4) 0.00751(15) 0.35780(15)
C18 C 0.6616(5) 0.00399(16) 0.35926(18)
H17 H 0.5000 0.0428 0.7762
O4 O 0.4344(5) 0.00613(11) 0.91874(11)
N5 N 0.7127(3) 0.12009(12) 0.5348(2)
Cd1 Cd 0.722458(18) 0.986942(8) 0.526770(13)
C1_2 C 0.7930(5) 0.8146(2) 0.57851(19)
H1_2 H 0.8081 0.8391 0.6244
C2 C 0.7616(3) 0.74248(16) 0.44375(17)
N1_2 N 0.7626(2) 0.85627(12) 0.5180(2)
N2 N 0.7942(3) 0.71711(14) 0.24264(13)
N3 N 0.8001(3) 0.75143(14) 0.31465(13)
C3 C 0.7531(3) 0.70789(15) 0.36825(16)
C4_2 C 0.7872(3) 0.70046(17) 0.50906(16)
H2_2 H 0.7931 0.6479 0.5067
C5 C 0.7943(3) 0.76427(15) 0.18847(15)
C6_2 C 0.8037(5) 0.7368(2) 0.57713(19)
H3_2 H 0.8217 0.7094 0.6212
C7 C 0.6906(4) 0.62766(16) 0.36155(18)
H4 H 0.6922 0.6128 0.3096
H5 H 0.5649 0.6227 0.3810
H6 H 0.7745 0.5957 0.3897
C8 C 0.7487(4) 0.82083(18) 0.45235(17)
H7 H 0.7293 0.8500 0.4095
C9 C 0.7910(4) 0.6538(2) 0.10251(18)
H8 H 0.7926 0.6235 0.1452
C10 C 0.7924(3) 0.73181(16) 0.11148(17)
C11 C 0.7947(5) 0.84860(17) 0.19682(19)
H9 H 0.6828 0.8691 0.1743
H10 H 0.9039 0.8692 0.1723
H11 H 0.7978 0.8615 0.2492
N4 N 0.7873(3) 0.62009(12) 0.0348(2)
O1_2 O 0.6618(3) 0.97623(12) 0.65546(12)
O2_2 O 0.4068(3) 0.96668(11) 0.58708(10)
C12 C 0.7915(4) 0.77571(18) 0.04731(17)
H12 H 0.7941 0.8282 0.0509
C13_2 C 0.4852(4) 0.96810(14) 0.64919(13)
C16_2 C 0.3640(4) 0.96112(15) 0.71944(13)
H15_2 H 0.2460 0.9877 0.7113
H16_2 H 0.3347 0.9081 0.7278
C17_2 C 0.4563(5) 0.9921(2) 0.78771(16)
H18_2 H 0.5670 0.9615 0.7982
O3_2 O 0.1669(4) 0.99249(15) 0.85780(15)
C18_2 C 0.3384(5) 0.99601(16) 0.85926(18)
Cd3 Cd 0.777542(18) 0.486942(8) 0.026770(13)
O6 O 0.5656(5) 0.99387(11) 0.41874(11)
C2_2 C 0.2384(3) 0.25752(16) 0.94375(17)
N2_2 N 0.2058(3) 0.28289(14) 0.74264(13)
N3_2 N 0.1999(3) 0.24857(14) 0.81465(13)
C3_2 C 0.2469(3) 0.29211(15) 0.86825(16)
C5_2 C 0.2057(3) 0.23573(15) 0.68847(15)
C7_2 C 0.3094(4) 0.37234(16) 0.86155(18)
H4_2 H 0.3078 0.3872 0.8096
H5_2 H 0.4351 0.3773 0.8810
H6_2 H 0.2255 0.4043 0.8897
C8_2 C 0.2513(4) 0.17917(18) 0.95235(17)
H7_2 H 0.2707 0.1500 0.9095
C9_2 C 0.2090(4) 0.3462(2) 0.60251(18)
H8_2 H 0.2074 0.3765 0.6452
C10_2 C 0.2076(3) 0.26819(16) 0.61148(17)
C11_2 C 0.2053(5) 0.15140(17) 0.69682(19)
H9_2 H 0.3172 0.1309 0.6743
H10_2 H 0.0961 0.1308 0.6723
H11_2 H 0.2022 0.1385 0.7492
N4_2 N 0.2127(3) 0.37991(12) 0.5348(2)
C12_2 C 0.2085(4) 0.22429(18) 0.54731(17)
H12_2 H 0.2059 0.1718 0.5509
C14 C 0.2157(5) 0.3378(3) 0.4738(2)
H13 H 0.2194 0.3609 0.4269
C15 C 0.2133(5) 0.2585(2) 0.4788(2)
H14 H 0.2151 0.2293 0.4352
Cd3_2 Cd 0.222458(18) 0.513058(8) 0.526770(13)
H17_2 H 0.5000 0.9572 0.2762
N5_2 N 0.2873(3) 0.87991(12) 0.0348(2)
O2_3 O 0.0932(3) 0.46668(11) 0.08708(10)
C13_3 C 0.0148(4) 0.46810(14) 0.14919(13)
C16_3 C 0.1360(4) 0.46112(15) 0.21944(13)
H15_3 H 0.2540 0.4877 0.2113
H16_3 H 0.1653 0.4081 0.2278
C17_3 C 0.0437(5) 0.4921(2) 0.28771(16)
H17_3 H -0.0000 0.5428 0.2762
O3_3 O 0.3331(4) 0.49249(15) 0.35780(15)
C18_3 C 0.1616(5) 0.49601(16) 0.35926(18)
O4_2 O 0.0656(5) 0.50613(11) 0.41874(11)
C1_3 C 0.7070(5) 0.3146(2) 0.07851(19)
H1_3 H 0.6919 0.3391 0.1244
N1_3 N 0.7374(2) 0.35627(12) 0.0180(2)
C4_3 C 0.7128(3) 0.20046(17) 0.00906(16)
H2_3 H 0.7069 0.1479 0.0067
C6_3 C 0.6963(5) 0.2368(2) 0.07713(19)
H3_3 H 0.6783 0.2094 0.1212
O1_3 O 0.8382(3) 0.47623(12) 0.15546(12)
H17_4 H 1.0000 0.5428 0.2762
H18_3 H 0.9330 0.4615 0.2982
O5_2 O 0.4576(3) 0.50466(11) 0.04044(16)
H19_2 H 0.4079 0.4653 0.0599
C2_3 C 0.7384(3) 0.24248(16) 0.94375(17)
N2_3 N 0.7058(3) 0.21711(14) 0.74264(13)
N3_3 N 0.6999(3) 0.25143(14) 0.81465(13)
C3_3 C 0.7469(3) 0.20789(15) 0.86825(16)
C5_3 C 0.7057(3) 0.26427(15) 0.68847(15)
C7_3 C 0.8094(4) 0.12766(16) 0.86155(18)
H4_3 H 0.8078 0.1128 0.8096
H5_3 H 0.9351 0.1227 0.8810
H6_3 H 0.7255 0.0957 0.8897
C8_3 C 0.7513(4) 0.32083(18) 0.95235(17)
H7_3 H 0.7707 0.3500 0.9095
C9_3 C 0.7090(4) 0.1538(2) 0.60251(18)
H8_3 H 0.7074 0.1235 0.6452
C10_3 C 0.7076(3) 0.23181(16) 0.61148(17)
C11_3 C 0.7053(5) 0.34860(17) 0.69682(19)
H9_3 H 0.8172 0.3691 0.6743
H10_3 H 0.5961 0.3692 0.6723
H11_3 H 0.7022 0.3615 0.7492
C12_3 C 0.7085(4) 0.27571(18) 0.54731(17)
H12_3 H 0.7059 0.3282 0.5509
C14_2 C 0.7157(5) 0.1622(3) 0.4738(2)
H13_2 H 0.7194 0.1391 0.4269
C15_2 C 0.7133(5) 0.2415(2) 0.4788(2)
H14_2 H 0.7151 0.2707 0.4352
H20_2 H 0.4086 0.5125 0.9974
O6_2 O 0.9344(5) 0.49387(11) 0.91874(11)
C1_4 C 0.2930(5) 0.6854(2) 0.57851(19)
H1_4 H 0.3081 0.6609 0.6244
C2_4 C 0.2616(3) 0.75752(16) 0.44375(17)
N1_4 N 0.2626(2) 0.64373(12) 0.5180(2)
N2_4 N 0.2942(3) 0.78289(14) 0.24264(13)
N3_4 N 0.3001(3) 0.74857(14) 0.31465(13)
C3_4 C 0.2531(3) 0.79211(15) 0.36825(16)
C4_4 C 0.2872(3) 0.79954(17) 0.50906(16)
H2_4 H 0.2931 0.8521 0.5067
C5_4 C 0.2943(3) 0.73573(15) 0.18847(15)
C6_4 C 0.3037(5) 0.7632(2) 0.57713(19)
H3_4 H 0.3217 0.7906 0.6212
C7_4 C 0.1906(4) 0.87234(16) 0.36155(18)
H4_4 H 0.1922 0.8872 0.3096
H5_4 H 0.0649 0.8773 0.3810
H6_4 H 0.2745 0.9043 0.3897
C8_4 C 0.2487(4) 0.67917(18) 0.45235(17)
H7_4 H 0.2293 0.6500 0.4095
C9_4 C 0.2910(4) 0.8462(2) 0.10251(18)
H8_4 H 0.2926 0.8765 0.1452
C10_4 C 0.2924(3) 0.76819(16) 0.11148(17)
C11_4 C 0.2947(5) 0.65140(17) 0.19682(19)
H9_4 H 0.1828 0.6309 0.1743
H10_4 H 0.4039 0.6308 0.1723
H11_4 H 0.2978 0.6385 0.2492
O1_4 O 0.1618(3) 0.52377(12) 0.65546(12)
C12_4 C 0.2915(4) 0.72429(18) 0.04731(17)
H12_4 H 0.2941 0.6718 0.0509
H17_5 H 0.0000 0.4572 0.7762
H18_4 H 0.0670 0.5385 0.7982
O5_3 O 0.5424(3) 0.49534(11) 0.54044(16)
H19_3 H 0.5921 0.5347 0.5599
H20_3 H 0.5914 0.4875 0.4974
O2_4 O 0.9068(3) 0.53332(11) 0.58708(10)
C13_4 C 0.9852(4) 0.53190(14) 0.64919(13)
C16_4 C 0.8640(4) 0.53888(15) 0.71944(13)
H15_4 H 0.7460 0.5123 0.7113
H16_4 H 0.8347 0.5919 0.7278
C17_4 C 0.9563(5) 0.5079(2) 0.78771(16)
H17_6 H 1.0000 0.4572 0.7762
O3_4 O 0.6669(4) 0.50751(15) 0.85780(15)
C18_4 C 0.8384(5) 0.50399(16) 0.85926(18)
C14_3 C 0.7843(5) 0.6622(3) 0.9738(2)
H13_3 H 0.7806 0.6391 0.9269
C15_3 C 0.7867(5) 0.7415(2) 0.9788(2)
H14_3 H 0.7849 0.7707 0.9352
H19_4 H 0.9079 0.0347 0.0599
O5_4 O 0.9576(3) 0.99534(11) 0.04044(16)
H20_4 H 0.9086 0.9875 0.9974
C14_4 C 0.2843(5) 0.8378(3) 0.9738(2)
H13_4 H 0.2806 0.8609 0.9269
C15_4 C 0.2867(5) 0.7585(2) 0.9788(2)
H14_4 H 0.2849 0.7293 0.9352
loop_
_geom_bond_atom_site_label_1
_geom_bond_atom_site_label_2
_geom_bond_site_symmetry_1
_geom_bond_site_symmetry_2
H20 O5 1_555 1_555
Cd2 N1 1_555 1_555
C1 H1 1_555 1_555
N1 C1 1_555 1_555
H2 C4 1_555 1_555
C6 C1 1_555 1_555
H3 C6 1_555 1_555
O1 Cd2 1_555 1_555
O2 Cd2 1_555 1_555
C13 O1 1_555 1_555
C16 C13 1_555 1_555
H15 C16 1_555 1_555
H16 C16 1_555 1_555
C17 C16 1_555 1_555
H18 C17 1_555 1_555
O3 C18 1_555 1_555
C18 C17 1_555 1_555
C4 C6 1_555 1_555
O2 C13 1_555 1_555
Cd1 N1_2 1_555 1_555
C1_2 H1_2 1_555 1_555
C2 C3 1_555 1_555
N1_2 C1_2 1_555 1_555
N2 N3 1_555 1_555
N3 C3 1_555 1_555
C3 C7 1_555 1_555
C4_2 C2 1_555 1_555
H2_2 C4_2 1_555 1_555
C5 N2 1_555 1_555
C6_2 C1_2 1_555 1_555
H3_2 C6_2 1_555 1_555
C7 H4 1_555 1_555
H5 C7 1_555 1_555
H6 C7 1_555 1_555
C8 C2 1_555 1_555
H7 C8 1_555 1_555
C9 H8 1_555 1_555
C10 C5 1_555 1_555
C11 C5 1_555 1_555
H9 C11 1_555 1_555
H10 C11 1_555 1_555
H11 C11 1_555 1_555
N4 C9 1_555 1_555
O1_2 Cd1 1_555 1_555
O2_2 Cd1 1_555 1_555
C12 C10 1_555 1_555
H12 C12 1_555 1_555
C13_2 O1_2 1_555 1_555
C16_2 C13_2 1_555 1_555
H15_2 C16_2 1_555 1_555
H16_2 C16_2 1_555 1_555
C17_2 C16_2 1_555 1_555
H18_2 C17_2 1_555 1_555
O3_2 C18_2 1_555 1_555
C18_2 C17_2 1_555 1_555
Cd3 N4 1_555 1_555
O6 Cd1 1_555 1_555
N1_2 C8 1_555 1_555
C4_2 C6_2 1_555 1_555
C9 C10 1_555 1_555
O2_2 C13_2 1_555 1_555
C2_2 C3_2 1_555 1_555
N2_2 N3_2 1_555 1_555
N3_2 C3_2 1_555 1_555
C3_2 C7_2 1_555 1_555
C5_2 N2_2 1_555 1_555
C7_2 H4_2 1_555 1_555
H5_2 C7_2 1_555 1_555
H6_2 C7_2 1_555 1_555
C8_2 C2_2 1_555 1_555
H7_2 C8_2 1_555 1_555
C9_2 H8_2 1_555 1_555
C10_2 C5_2 1_555 1_555
C11_2 C5_2 1_555 1_555
H9_2 C11_2 1_555 1_555
H10_2 C11_2 1_555 1_555
H11_2 C11_2 1_555 1_555
N4_2 C9_2 1_555 1_555
C12_2 C10_2 1_555 1_555
H12_2 C12_2 1_555 1_555
C14 N4_2 1_555 1_555
H13 C14 1_555 1_555
C15 C12_2 1_555 1_555
H14 C15 1_555 1_555
Cd3_2 N4_2 1_555 1_555
C9_2 C10_2 1_555 1_555
C14 C15 1_555 1_555
C16_3 C13_3 1_555 1_555
H15_3 C16_3 1_555 1_555
H16_3 C16_3 1_555 1_555
C17_3 C16_3 1_555 1_555
H17_3 C17_3 1_555 1_555
O3_3 C18_3 1_555 1_555
C18_3 C17_3 1_555 1_555
O4_2 C18_3 1_555 1_555
Cd3_2 O4_2 1_555 1_555
O2_3 C13_3 1_555 1_555
Cd3 N1_3 1_555 1_555
C1_3 H1_3 1_555 1_555
N1_3 C1_3 1_555 1_555
H2_3 C4_3 1_555 1_555
C6_3 C1_3 1_555 1_555
H3_3 C6_3 1_555 1_555
O1_3 Cd3 1_555 1_555
O5_2 Cd3 1_555 1_555
H19_2 O5_2 1_555 1_555
C4_3 C6_3 1_555 1_555
C2_3 C3_3 1_555 1_555
N2_3 N3_3 1_555 1_555
N3_3 C3_3 1_555 1_555
C3_3 C7_3 1_555 1_555
C5_3 N2_3 1_555 1_555
C7_3 H4_3 1_555 1_555
H5_3 C7_3 1_555 1_555
H6_3 C7_3 1_555 1_555
C8_3 C2_3 1_555 1_555
H7_3 C8_3 1_555 1_555
C9_3 H8_3 1_555 1_555
C10_3 C5_3 1_555 1_555
C11_3 C5_3 1_555 1_555
H9_3 C11_3 1_555 1_555
H10_3 C11_3 1_555 1_555
H11_3 C11_3 1_555 1_555
N5 C9_3 1_555 1_555
C12_3 C10_3 1_555 1_555
H12_3 C12_3 1_555 1_555
C14_2 N5 1_555 1_555
H13_2 C14_2 1_555 1_555
C15_2 C12_3 1_555 1_555
H14_2 C15_2 1_555 1_555
C9_3 C10_3 1_555 1_555
C14_2 C15_2 1_555 1_555
Cd3_2 N1_4 1_555 1_555
C1_4 H1_4 1_555 1_555
C2_4 C3_4 1_555 1_555
N1_4 C1_4 1_555 1_555
N2_4 N3_4 1_555 1_555
N3_4 C3_4 1_555 1_555
C3_4 C7_4 1_555 1_555
C4_4 C2_4 1_555 1_555
H2_4 C4_4 1_555 1_555
C5_4 N2_4 1_555 1_555
C6_4 C1_4 1_555 1_555
H3_4 C6_4 1_555 1_555
C7_4 H4_4 1_555 1_555
H5_4 C7_4 1_555 1_555
H6_4 C7_4 1_555 1_555
C8_4 C2_4 1_555 1_555
H7_4 C8_4 1_555 1_555
C9_4 H8_4 1_555 1_555
C10_4 C5_4 1_555 1_555
C11_4 C5_4 1_555 1_555
H9_4 C11_4 1_555 1_555
H10_4 C11_4 1_555 1_555
H11_4 C11_4 1_555 1_555
N5_2 C9_4 1_555 1_555
O1_4 Cd3_2 1_555 1_555
C12_4 C10_4 1_555 1_555
H12_4 C12_4 1_555 1_555
O5_3 Cd3_2 1_555 1_555
H19_3 O5_3 1_555 1_555
H20_3 O5_3 1_555 1_555
N1_4 C8_4 1_555 1_555
C4_4 C6_4 1_555 1_555
C9_4 C10_4 1_555 1_555
C16_4 C13_4 1_555 1_555
H15_4 C16_4 1_555 1_555
H16_4 C16_4 1_555 1_555
C17_4 C16_4 1_555 1_555
H17_6 C17_4 1_555 1_555
O3_4 C18_4 1_555 1_555
C18_4 C17_4 1_555 1_555
O6_2 C18_4 1_555 1_555
O2_4 C13_4 1_555 1_555
H13_3 C14_3 1_555 1_555
H14_3 C15_3 1_555 1_555
C14_3 C15_3 1_555 1_555
H13_4 C14_4 1_555 1_555
H14_4 C15_4 1_555 1_555
C14_4 C15_4 1_555 1_555

#END
