
###############################################################################
#
# This file contains modified crystal structure data generated from the
# MOF subset of the Cambridge Structural Database (CSD) v543 
# hosted by the Cambridge Crystallographic Data Centre (CCDC).
#
# This work is licensed under the Creative Commons
# Attribution-NonCommercial-ShareAlike 4.0 International License.
# To view a copy of this license, visit
# http://creativecommons.org/licenses/by-nc-sa/4.0/
# or send a letter to
# Creative Commons, PO Box 1866, Mountain View, CA 94042, USA.
#
# CIF created using the CSD Python API on 29 September 2022
# The structure has been converted into the P1 space group
# The structure has a 3D framework
# The original CSD entry DUZKAM is in the tetragonal crystal system
# The framework has been calculated to contain at least 10.0% void space
# The void calculation uses a probe of radius 1.32A, grid spacing 0.4
# The framework is charged, counterions have been retained in the structure
# H atom positions have been added when not included in the experimental data
# Generated hydrogen atom positions removed from atoms on special positions
#
###############################################################################

data_DUZKAM
_chemical_formula_moiety         '(C336 H384 Cu32 Li16 Mn16 N48 O160 4+)n'
_symmetry_cell_setting           triclinic
_symmetry_space_group_name_H-M   'P 1'
_symmetry_Int_Tables_number      1
_space_group_name_Hall           'P 1'
loop_
_symmetry_equiv_pos_site_id
_symmetry_equiv_pos_as_xyz
1 x,y,z
_cell_length_a                   36.71(2)
_cell_length_b                   36.71(2)
_cell_length_c                   15.414(9)
_cell_angle_alpha                90
_cell_angle_beta                 90
_cell_angle_gamma                90
_cell_volume                     20772.3
loop_
_atom_site_label
_atom_site_type_symbol
_atom_site_fract_x
_atom_site_fract_y
_atom_site_fract_z
Li1 Li 0.1440 0.2798 0.2506
Li1_2 Li 0.8560 0.7202 0.2506
Li1_3 Li 0.7202 0.1440 0.2506
Li1_4 Li 0.2798 0.8560 0.2506
Li1_5 Li 0.8560 0.2798 0.7494
Li1_6 Li 0.1440 0.7202 0.7494
Li1_7 Li 0.2798 0.1440 0.7494
Li1_8 Li 0.7202 0.8560 0.7494
Li1_9 Li 0.8560 0.7202 0.7494
Li1_10 Li 0.1440 0.2798 0.7494
Li1_11 Li 0.2798 0.8560 0.7494
Li1_12 Li 0.7202 0.1440 0.7494
Li1_13 Li 0.1440 0.7202 0.2506
Li1_14 Li 0.8560 0.2798 0.2506
Li1_15 Li 0.7202 0.8560 0.2506
Li1_16 Li 0.2798 0.1440 0.2506
Cu1 Cu -0.0000 0.33016(12) 0.2727(3)
Cu2 Cu 0.14874(14) 0.5000 0.2694(3)
Cu3 Cu 0.24185(10) 0.24185(10) 0.2335(3)
Mn1 Mn 0.14392(12) 0.35117(12) 0.2500(3)
N1 N 0.0545(6) 0.3181(7) 0.3384(15)
N2 N 0.1334(5) 0.4636(5) 0.3373(12)
N3 N 0.1906(6) 0.2622(7) 0.1707(14)
O1 O 0.0330(5) 0.3579(5) 0.2027(12)
O2 O 0.0974(4) 0.3629(4) 0.1931(10)
O3 O 0.1102(4) 0.3183(5) 0.3230(12)
O4 O 0.1762(5) 0.4610(5) 0.1828(12)
O5 O 0.1711(9) 0.3951(8) 0.181(2)
O6 O 0.1366(5) 0.3915(5) 0.3431(12)
O7 O 0.1601(4) 0.3147(4) 0.1656(10)
O8 O 0.1920(6) 0.3390(6) 0.3063(15)
O9 O 0.2366(4) 0.2863(4) 0.3008(9)
C1 C 0.0641(7) 0.3565(11) 0.226(3)
C2 C 0.0776 0.3216 0.2847
C3 C 0.1427 0.4285 0.3023
C4 C 0.1571 0.4329 0.2054
C5 C 0.2078(16) 0.3040(17) 0.312(3)
C6 C 0.1904(8) 0.2905(8) 0.221(2)
C7 C 0.0507(9) 0.2937(7) 0.4219(16)
C8 C 0.0463(10) 0.3137(9) 0.5000
C9 C 0.0466(7) 0.2585(6) 0.4158(13)
C10 C 0.0360 0.2415 0.5000
H1 H 0.0222 0.2195 0.5000
C11 C 0.1110(6) 0.4592(6) 0.4213(13)
C12 C 0.1311(11) 0.4510(14) 0.5000
C13 C 0.1717(11) 0.4484(14) 0.5000
C14 C 0.1894(7) 0.2489(7) 0.0771(15)
C15 C 0.2001(9) 0.2653(8) 0.0000
C16 C 0.2274(13) 0.2989(12) 0.0000
C17 C 0.1603(7) 0.2202(8) 0.0806(17)
C18 C 0.1355(11) 0.2097(12) 0.0000
H2 H 0.1117 0.1996 0.0000
C19 C 0.0781(6) 0.4542(7) 0.3995(14)
C20 C 0.0569(11) 0.4498(11) 0.318(2)
H3 H 0.0733 0.4517 0.2683
H4 H 0.0384 0.4689 0.3148
H5 H 0.0451 0.4258 0.3180
C21 C 0.0652(11) 0.4534(11) 0.5000
H6 H 0.0394 0.4517 0.5000
C22 C 0.0355(16) 0.3556(11) 0.5000
C23 C 0.0476(8) 0.2398(8) 0.3228(16)
H7 H 0.0557 0.2576 0.2796
H8 H 0.0231 0.2312 0.3077
H9 H 0.0645 0.2192 0.3238
C24 C 0.1342(7) 0.2066(7) 0.1409(17)
H10 H 0.1434 0.2097 0.2001
H11 H 0.1300 0.1806 0.1298
H12 H 0.1113 0.2200 0.1343
O10 O 0.0280(11) 0.3023(13) 0.143(3)
N4 N 0.0545(6) 0.3181(7) 0.6616(15)
O11 O 0.0330(5) 0.3579(5) 0.7973(12)
O12 O 0.0974(4) 0.3629(4) 0.8069(10)
O13 O 0.1102(4) 0.3183(5) 0.6770(12)
C25 C 0.0641(7) 0.3565(11) 0.774(3)
C26 C 0.0776 0.3216 0.7153
C27 C 0.0507(9) 0.2937(7) 0.5781(16)
C28 C 0.0466(7) 0.2585(6) 0.5842(13)
C29 C 0.0476(8) 0.2398(8) 0.6772(16)
H13 H 0.0557 0.2576 0.7204
H14 H 0.0231 0.2312 0.6923
H15 H 0.0645 0.2192 0.6762
N5 N 0.1334(5) 0.4636(5) 0.6627(12)
O14 O 0.1762(5) 0.4610(5) 0.8172(12)
O15 O 0.1711(9) 0.3951(8) 0.819(2)
O16 O 0.1366(5) 0.3915(5) 0.6569(12)
C30 C 0.1427 0.4285 0.6977
C31 C 0.1571 0.4329 0.7946
C32 C 0.1110(6) 0.4592(6) 0.5787(13)
C33 C 0.0781(6) 0.4542(7) 0.6005(14)
C34 C 0.0569(11) 0.4498(11) 0.682(2)
H16 H 0.0733 0.4517 0.7317
H17 H 0.0384 0.4689 0.6852
H18 H 0.0451 0.4258 0.6820
Mn2 Mn 0.14392(12) 0.35117(12) 0.7500(3)
Cu4 Cu -0.0000 0.33016(12) 0.7273(3)
Cu5 Cu 0.14874(14) 0.5000 0.7306(3)
N8 N 0.1334(5) 0.5364(5) 0.3373(12)
N9 N 0.2622(7) 0.1906(6) 0.1707(14)
O22 O 0.1762(5) 0.5390(5) 0.1828(12)
O23 O 0.1601(4) 0.3147(4) 0.8344(10)
O24 O 0.1920(6) 0.3390(6) 0.6937(15)
O25 O 0.2863(4) 0.2366(4) 0.3008(9)
H22 H 0.183266 0.474282 0.479187
H23 H 0.181203 0.442064 0.565204
H24 H 0.180235 0.426958 0.455609
H25 H 0.00928114 0.359053 0.467989
H26 H 0.0336357 0.365331 0.566593
H27 H 0.0561789 0.371142 0.465418
H28 H 0.253079 0.290777 0.0296159
H30 H 0.215556 0.321264 0.0368621
C15_2 C 0.2001(9) 0.2653(8) 1.0000
C16_2 C 0.2274(13) 0.2989(12) 1.0000
C18_2 C 0.1355(11) 0.2097(12) 1.0000
H2_2 H 0.1117 0.1996 1.0000
N6 N 0.1906(6) 0.2622(7) 0.8293(14)
O19 O 0.2366(4) 0.2863(4) 0.6992(9)
C35 C 0.2078(16) 0.3040(17) 0.688(3)
C36 C 0.1904(8) 0.2905(8) 0.779(2)
C37 C 0.1894(7) 0.2489(7) 0.9229(15)
C38 C 0.1603(7) 0.2202(8) 0.9194(17)
C39 C 0.1342(7) 0.2066(7) 0.8591(17)
H19 H 0.1434 0.2097 0.7999
H20 H 0.1300 0.1806 0.8702
H21 H 0.1113 0.2200 0.8657
Cu6 Cu 0.24185(10) 0.24185(10) 0.7665(3)
H29 H 0.232272 0.307682 0.933522
Cu1_2 Cu 1.0000 0.33016(12) 0.2727(3)
O20 O 0.9720(11) 0.3023(13) 0.143(3)
Cu4_2 Cu 1.0000 0.33016(12) 0.7273(3)
N7 N 0.9455(6) 0.3181(7) 0.3384(15)
O21 O 0.9670(5) 0.3579(5) 0.2027(12)
Cu1_3 Cu 0.0000 0.66984(12) 0.2727(3)
O20_2 O 0.0280(11) 0.6977(13) 0.143(3)
Cu4_3 Cu 0.0000 0.66984(12) 0.7273(3)
N7_2 N 0.0545(6) 0.6819(7) 0.3384(15)
O21_2 O 0.0330(5) 0.6421(5) 0.2027(12)
Cu1_4 Cu 1.0000 0.66984(12) 0.2727(3)
Cu2_2 Cu 0.85126(14) 0.5000 0.2694(3)
Cu3_2 Cu 0.75815(10) 0.75815(10) 0.2335(3)
Mn1_2 Mn 0.85608(12) 0.64883(12) 0.2500(3)
N1_2 N 0.9455(6) 0.6819(7) 0.3384(15)
N2_2 N 0.8666(5) 0.5364(5) 0.3373(12)
N3_2 N 0.8094(6) 0.7378(7) 0.1707(14)
O1_2 O 0.9670(5) 0.6421(5) 0.2027(12)
O2_2 O 0.9026(4) 0.6371(4) 0.1931(10)
O3_2 O 0.8898(4) 0.6817(5) 0.3230(12)
O4_2 O 0.8238(5) 0.5390(5) 0.1828(12)
O5_2 O 0.8289(9) 0.6049(8) 0.181(2)
O6_2 O 0.8634(5) 0.6085(5) 0.3431(12)
O7_2 O 0.8399(4) 0.6853(4) 0.1656(10)
O8_2 O 0.8080(6) 0.6610(6) 0.3063(15)
O9_2 O 0.7634(4) 0.7137(4) 0.3008(9)
C1_2 C 0.9359(7) 0.6435(11) 0.226(3)
C2_2 C 0.9224 0.6784 0.2847
C3_2 C 0.8573 0.5715 0.3023
C4_2 C 0.8429 0.5671 0.2054
C5_2 C 0.7922(16) 0.6960(17) 0.312(3)
C6_2 C 0.8096(8) 0.7095(8) 0.221(2)
C7_2 C 0.9493(9) 0.7063(7) 0.4219(16)
C8_2 C 0.9537(10) 0.6863(9) 0.5000
C9_2 C 0.9534(7) 0.7415(6) 0.4158(13)
C10_2 C 0.9640 0.7585 0.5000
H1_2 H 0.9778 0.7805 0.5000
C11_2 C 0.8890(6) 0.5408(6) 0.4213(13)
C12_2 C 0.8689(11) 0.5490(14) 0.5000
C13_2 C 0.8283(11) 0.5516(14) 0.5000
C14_2 C 0.8106(7) 0.7511(7) 0.0771(15)
C15_3 C 0.7999(9) 0.7347(8) 0.0000
C16_3 C 0.7726(13) 0.7011(12) 0.0000
C17_2 C 0.8397(7) 0.7798(8) 0.0806(17)
C18_3 C 0.8645(11) 0.7903(12) 0.0000
H2_3 H 0.8883 0.8004 0.0000
C19_2 C 0.9219(6) 0.5458(7) 0.3995(14)
C20_2 C 0.9431(11) 0.5502(11) 0.318(2)
H3_2 H 0.9267 0.5483 0.2683
H4_2 H 0.9616 0.5311 0.3148
H5_2 H 0.9549 0.5742 0.3180
C21_2 C 0.9348(11) 0.5466(11) 0.5000
H6_2 H 0.9606 0.5483 0.5000
C22_2 C 0.9645(16) 0.6444(11) 0.5000
C23_2 C 0.9524(8) 0.7602(8) 0.3228(16)
H7_2 H 0.9443 0.7424 0.2796
H8_2 H 0.9769 0.7688 0.3077
H9_2 H 0.9355 0.7808 0.3238
C24_2 C 0.8658(7) 0.7934(7) 0.1409(17)
H10_2 H 0.8566 0.7903 0.2001
H11_2 H 0.8700 0.8194 0.1298
H12_2 H 0.8887 0.7800 0.1343
O10_2 O 0.9720(11) 0.6977(13) 0.143(3)
N4_2 N 0.9455(6) 0.6819(7) 0.6616(15)
O11_2 O 0.9670(5) 0.6421(5) 0.7973(12)
O12_2 O 0.9026(4) 0.6371(4) 0.8069(10)
O13_2 O 0.8898(4) 0.6817(5) 0.6770(12)
C25_2 C 0.9359(7) 0.6435(11) 0.774(3)
C26_2 C 0.9224 0.6784 0.7153
C27_2 C 0.9493(9) 0.7063(7) 0.5781(16)
C28_2 C 0.9534(7) 0.7415(6) 0.5842(13)
C29_2 C 0.9524(8) 0.7602(8) 0.6772(16)
H13_2 H 0.9443 0.7424 0.7204
H14_2 H 0.9769 0.7688 0.6923
H15_2 H 0.9355 0.7808 0.6762
N5_2 N 0.8666(5) 0.5364(5) 0.6627(12)
O14_2 O 0.8238(5) 0.5390(5) 0.8172(12)
O15_2 O 0.8289(9) 0.6049(8) 0.819(2)
O16_2 O 0.8634(5) 0.6085(5) 0.6569(12)
C30_2 C 0.8573 0.5715 0.6977
C31_2 C 0.8429 0.5671 0.7946
C32_2 C 0.8890(6) 0.5408(6) 0.5787(13)
C33_2 C 0.9219(6) 0.5458(7) 0.6005(14)
C34_2 C 0.9431(11) 0.5502(11) 0.682(2)
H16_2 H 0.9267 0.5483 0.7317
H17_2 H 0.9616 0.5311 0.6852
H18_2 H 0.9549 0.5742 0.6820
Mn2_2 Mn 0.85608(12) 0.64883(12) 0.7500(3)
Cu4_4 Cu 1.0000 0.66984(12) 0.7273(3)
Cu5_2 Cu 0.85126(14) 0.5000 0.7306(3)
N8_2 N 0.8666(5) 0.4636(5) 0.3373(12)
N9_2 N 0.7378(7) 0.8094(6) 0.1707(14)
O22_2 O 0.8238(5) 0.4610(5) 0.1828(12)
O23_2 O 0.8399(4) 0.6853(4) 0.8344(10)
O24_2 O 0.8080(6) 0.6610(6) 0.6937(15)
O25_2 O 0.7137(4) 0.7634(4) 0.3008(9)
H22_2 H 0.816734 0.525718 0.479187
H23_2 H 0.818797 0.557936 0.565204
H24_2 H 0.819765 0.573042 0.455609
H25_2 H 0.990719 0.640947 0.467989
H26_2 H 0.966364 0.634669 0.566593
H27_2 H 0.943821 0.628858 0.465418
H28_2 H 0.746921 0.709223 0.0296159
H30_2 H 0.784444 0.678736 0.0368621
C15_4 C 0.7999(9) 0.7347(8) 1.0000
C16_4 C 0.7726(13) 0.7011(12) 1.0000
C18_4 C 0.8645(11) 0.7903(12) 1.0000
H2_4 H 0.8883 0.8004 1.0000
N6_2 N 0.8094(6) 0.7378(7) 0.8293(14)
O19_2 O 0.7634(4) 0.7137(4) 0.6992(9)
C35_2 C 0.7922(16) 0.6960(17) 0.688(3)
C36_2 C 0.8096(8) 0.7095(8) 0.779(2)
C37_2 C 0.8106(7) 0.7511(7) 0.9229(15)
C38_2 C 0.8397(7) 0.7798(8) 0.9194(17)
C39_2 C 0.8658(7) 0.7934(7) 0.8591(17)
H19_2 H 0.8566 0.7903 0.7999
H20_2 H 0.8700 0.8194 0.8702
H21_2 H 0.8887 0.7800 0.8657
Cu6_2 Cu 0.75815(10) 0.75815(10) 0.7665(3)
H29_2 H 0.767728 0.692318 0.933522
Cu1_5 Cu 0.66984(12) -0.0000 0.2727(3)
Cu2_3 Cu 0.5000 0.14874(14) 0.2694(3)
Cu3_3 Cu 0.75815(10) 0.24185(10) 0.2335(3)
Mn1_3 Mn 0.64883(12) 0.14392(12) 0.2500(3)
N1_3 N 0.6819(7) 0.0545(6) 0.3384(15)
N2_3 N 0.5364(5) 0.1334(5) 0.3373(12)
N3_3 N 0.7378(7) 0.1906(6) 0.1707(14)
O1_3 O 0.6421(5) 0.0330(5) 0.2027(12)
O2_3 O 0.6371(4) 0.0974(4) 0.1931(10)
O3_3 O 0.6817(5) 0.1102(4) 0.3230(12)
O4_3 O 0.5390(5) 0.1762(5) 0.1828(12)
O5_3 O 0.6049(8) 0.1711(9) 0.181(2)
O6_3 O 0.6085(5) 0.1366(5) 0.3431(12)
O7_3 O 0.6853(4) 0.1601(4) 0.1656(10)
O8_3 O 0.6610(6) 0.1920(6) 0.3063(15)
O9_3 O 0.7137(4) 0.2366(4) 0.3008(9)
C1_3 C 0.6435(11) 0.0641(7) 0.226(3)
C2_3 C 0.6784 0.0776 0.2847
C3_3 C 0.5715 0.1427 0.3023
C4_3 C 0.5671 0.1571 0.2054
C5_3 C 0.6960(17) 0.2078(16) 0.312(3)
C6_3 C 0.7095(8) 0.1904(8) 0.221(2)
C7_3 C 0.7063(7) 0.0507(9) 0.4219(16)
C8_3 C 0.6863(9) 0.0463(10) 0.5000
C9_3 C 0.7415(6) 0.0466(7) 0.4158(13)
C10_3 C 0.7585 0.0360 0.5000
H1_3 H 0.7805 0.0222 0.5000
C11_3 C 0.5408(6) 0.1110(6) 0.4213(13)
C12_3 C 0.5490(14) 0.1311(11) 0.5000
C13_3 C 0.5516(14) 0.1717(11) 0.5000
C14_3 C 0.7511(7) 0.1894(7) 0.0771(15)
C15_5 C 0.7347(8) 0.2001(9) 0.0000
C16_5 C 0.7011(12) 0.2274(13) 0.0000
C17_3 C 0.7798(8) 0.1603(7) 0.0806(17)
C18_5 C 0.7903(12) 0.1355(11) 0.0000
H2_5 H 0.8004 0.1117 0.0000
C19_3 C 0.5458(7) 0.0781(6) 0.3995(14)
C20_3 C 0.5502(11) 0.0569(11) 0.318(2)
H3_3 H 0.5483 0.0733 0.2683
H4_3 H 0.5311 0.0384 0.3148
H5_3 H 0.5742 0.0451 0.3180
C21_3 C 0.5466(11) 0.0652(11) 0.5000
H6_3 H 0.5483 0.0394 0.5000
C22_3 C 0.6444(11) 0.0355(16) 0.5000
C23_3 C 0.7602(8) 0.0476(8) 0.3228(16)
H7_3 H 0.7424 0.0557 0.2796
H8_3 H 0.7688 0.0231 0.3077
H9_3 H 0.7808 0.0645 0.3238
C24_3 C 0.7934(7) 0.1342(7) 0.1409(17)
H10_3 H 0.7903 0.1434 0.2001
H11_3 H 0.8194 0.1300 0.1298
H12_3 H 0.7800 0.1113 0.1343
O10_3 O 0.6977(13) 0.0280(11) 0.143(3)
N4_3 N 0.6819(7) 0.0545(6) 0.6616(15)
O11_3 O 0.6421(5) 0.0330(5) 0.7973(12)
O12_3 O 0.6371(4) 0.0974(4) 0.8069(10)
O13_3 O 0.6817(5) 0.1102(4) 0.6770(12)
C25_3 C 0.6435(11) 0.0641(7) 0.774(3)
C26_3 C 0.6784 0.0776 0.7153
C27_3 C 0.7063(7) 0.0507(9) 0.5781(16)
C28_3 C 0.7415(6) 0.0466(7) 0.5842(13)
C29_3 C 0.7602(8) 0.0476(8) 0.6772(16)
H13_3 H 0.7424 0.0557 0.7204
H14_3 H 0.7688 0.0231 0.6923
H15_3 H 0.7808 0.0645 0.6762
N5_3 N 0.5364(5) 0.1334(5) 0.6627(12)
O14_3 O 0.5390(5) 0.1762(5) 0.8172(12)
O15_3 O 0.6049(8) 0.1711(9) 0.819(2)
O16_3 O 0.6085(5) 0.1366(5) 0.6569(12)
C30_3 C 0.5715 0.1427 0.6977
C31_3 C 0.5671 0.1571 0.7946
C32_3 C 0.5408(6) 0.1110(6) 0.5787(13)
C33_3 C 0.5458(7) 0.0781(6) 0.6005(14)
C34_3 C 0.5502(11) 0.0569(11) 0.682(2)
H16_3 H 0.5483 0.0733 0.7317
H17_3 H 0.5311 0.0384 0.6852
H18_3 H 0.5742 0.0451 0.6820
Mn2_3 Mn 0.64883(12) 0.14392(12) 0.7500(3)
Cu4_5 Cu 0.66984(12) -0.0000 0.7273(3)
Cu5_3 Cu 0.5000 0.14874(14) 0.7306(3)
N8_3 N 0.4636(5) 0.1334(5) 0.3373(12)
N9_3 N 0.8094(6) 0.2622(7) 0.1707(14)
O22_3 O 0.4610(5) 0.1762(5) 0.1828(12)
O23_3 O 0.6853(4) 0.1601(4) 0.8344(10)
O24_3 O 0.6610(6) 0.1920(6) 0.6937(15)
O25_3 O 0.7634(4) 0.2863(4) 0.3008(9)
H22_3 H 0.525718 0.183266 0.479187
H23_3 H 0.557936 0.181203 0.565204
H24_3 H 0.573042 0.180235 0.455609
H25_3 H 0.640947 0.00928114 0.467989
H26_3 H 0.634669 0.0336357 0.566593
H27_3 H 0.628858 0.0561789 0.465418
H28_3 H 0.709223 0.253079 0.0296159
H30_3 H 0.678736 0.215556 0.0368621
C15_6 C 0.7347(8) 0.2001(9) 1.0000
C16_6 C 0.7011(12) 0.2274(13) 1.0000
C18_6 C 0.7903(12) 0.1355(11) 1.0000
H2_6 H 0.8004 0.1117 1.0000
N6_3 N 0.7378(7) 0.1906(6) 0.8293(14)
O19_3 O 0.7137(4) 0.2366(4) 0.6992(9)
C35_3 C 0.6960(17) 0.2078(16) 0.688(3)
C36_3 C 0.7095(8) 0.1904(8) 0.779(2)
C37_3 C 0.7511(7) 0.1894(7) 0.9229(15)
C38_3 C 0.7798(8) 0.1603(7) 0.9194(17)
C39_3 C 0.7934(7) 0.1342(7) 0.8591(17)
H19_3 H 0.7903 0.1434 0.7999
H20_3 H 0.8194 0.1300 0.8702
H21_3 H 0.7800 0.1113 0.8657
Cu6_3 Cu 0.75815(10) 0.24185(10) 0.7665(3)
H29_3 H 0.692318 0.232272 0.933522
Cu1_6 Cu 0.66984(12) 1.0000 0.2727(3)
O20_3 O 0.6977(13) 0.9720(11) 0.143(3)
Cu4_6 Cu 0.66984(12) 1.0000 0.7273(3)
N7_3 N 0.6819(7) 0.9455(6) 0.3384(15)
O21_3 O 0.6421(5) 0.9670(5) 0.2027(12)
Cu1_7 Cu 0.33016(12) 0.0000 0.2727(3)
O20_4 O 0.3023(13) 0.0280(11) 0.143(3)
Cu4_7 Cu 0.33016(12) 0.0000 0.7273(3)
N7_4 N 0.3181(7) 0.0545(6) 0.3384(15)
O21_4 O 0.3579(5) 0.0330(5) 0.2027(12)
Cu1_8 Cu 0.33016(12) 1.0000 0.2727(3)
Cu2_4 Cu 0.5000 0.85126(14) 0.2694(3)
Cu3_4 Cu 0.24185(10) 0.75815(10) 0.2335(3)
Mn1_4 Mn 0.35117(12) 0.85608(12) 0.2500(3)
N1_4 N 0.3181(7) 0.9455(6) 0.3384(15)
N2_4 N 0.4636(5) 0.8666(5) 0.3373(12)
N3_4 N 0.2622(7) 0.8094(6) 0.1707(14)
O1_4 O 0.3579(5) 0.9670(5) 0.2027(12)
O2_4 O 0.3629(4) 0.9026(4) 0.1931(10)
O3_4 O 0.3183(5) 0.8898(4) 0.3230(12)
O4_4 O 0.4610(5) 0.8238(5) 0.1828(12)
O5_4 O 0.3951(8) 0.8289(9) 0.181(2)
O6_4 O 0.3915(5) 0.8634(5) 0.3431(12)
O7_4 O 0.3147(4) 0.8399(4) 0.1656(10)
O8_4 O 0.3390(6) 0.8080(6) 0.3063(15)
O9_4 O 0.2863(4) 0.7634(4) 0.3008(9)
C1_4 C 0.3565(11) 0.9359(7) 0.226(3)
C2_4 C 0.3216 0.9224 0.2847
C3_4 C 0.4285 0.8573 0.3023
C4_4 C 0.4329 0.8429 0.2054
C5_4 C 0.3040(17) 0.7922(16) 0.312(3)
C6_4 C 0.2905(8) 0.8096(8) 0.221(2)
C7_4 C 0.2937(7) 0.9493(9) 0.4219(16)
C8_4 C 0.3137(9) 0.9537(10) 0.5000
C9_4 C 0.2585(6) 0.9534(7) 0.4158(13)
C10_4 C 0.2415 0.9640 0.5000
H1_4 H 0.2195 0.9778 0.5000
C11_4 C 0.4592(6) 0.8890(6) 0.4213(13)
C12_4 C 0.4510(14) 0.8689(11) 0.5000
C13_4 C 0.4484(14) 0.8283(11) 0.5000
C14_4 C 0.2489(7) 0.8106(7) 0.0771(15)
C15_7 C 0.2653(8) 0.7999(9) 0.0000
C16_7 C 0.2989(12) 0.7726(13) 0.0000
C17_4 C 0.2202(8) 0.8397(7) 0.0806(17)
C18_7 C 0.2097(12) 0.8645(11) 0.0000
H2_7 H 0.1996 0.8883 0.0000
C19_4 C 0.4542(7) 0.9219(6) 0.3995(14)
C20_4 C 0.4498(11) 0.9431(11) 0.318(2)
H3_4 H 0.4517 0.9267 0.2683
H4_4 H 0.4689 0.9616 0.3148
H5_4 H 0.4258 0.9549 0.3180
C21_4 C 0.4534(11) 0.9348(11) 0.5000
H6_4 H 0.4517 0.9606 0.5000
C22_4 C 0.3556(11) 0.9645(16) 0.5000
C23_4 C 0.2398(8) 0.9524(8) 0.3228(16)
H7_4 H 0.2576 0.9443 0.2796
H8_4 H 0.2312 0.9769 0.3077
H9_4 H 0.2192 0.9355 0.3238
C24_4 C 0.2066(7) 0.8658(7) 0.1409(17)
H10_4 H 0.2097 0.8566 0.2001
H11_4 H 0.1806 0.8700 0.1298
H12_4 H 0.2200 0.8887 0.1343
O10_4 O 0.3023(13) 0.9720(11) 0.143(3)
N4_4 N 0.3181(7) 0.9455(6) 0.6616(15)
O11_4 O 0.3579(5) 0.9670(5) 0.7973(12)
O12_4 O 0.3629(4) 0.9026(4) 0.8069(10)
O13_4 O 0.3183(5) 0.8898(4) 0.6770(12)
C25_4 C 0.3565(11) 0.9359(7) 0.774(3)
C26_4 C 0.3216 0.9224 0.7153
C27_4 C 0.2937(7) 0.9493(9) 0.5781(16)
C28_4 C 0.2585(6) 0.9534(7) 0.5842(13)
C29_4 C 0.2398(8) 0.9524(8) 0.6772(16)
H13_4 H 0.2576 0.9443 0.7204
H14_4 H 0.2312 0.9769 0.6923
H15_4 H 0.2192 0.9355 0.6762
N5_4 N 0.4636(5) 0.8666(5) 0.6627(12)
O14_4 O 0.4610(5) 0.8238(5) 0.8172(12)
O15_4 O 0.3951(8) 0.8289(9) 0.819(2)
O16_4 O 0.3915(5) 0.8634(5) 0.6569(12)
C30_4 C 0.4285 0.8573 0.6977
C31_4 C 0.4329 0.8429 0.7946
C32_4 C 0.4592(6) 0.8890(6) 0.5787(13)
C33_4 C 0.4542(7) 0.9219(6) 0.6005(14)
C34_4 C 0.4498(11) 0.9431(11) 0.682(2)
H16_4 H 0.4517 0.9267 0.7317
H17_4 H 0.4689 0.9616 0.6852
H18_4 H 0.4258 0.9549 0.6820
Mn2_4 Mn 0.35117(12) 0.85608(12) 0.7500(3)
Cu4_8 Cu 0.33016(12) 1.0000 0.7273(3)
Cu5_4 Cu 0.5000 0.85126(14) 0.7306(3)
N8_4 N 0.5364(5) 0.8666(5) 0.3373(12)
N9_4 N 0.1906(6) 0.7378(7) 0.1707(14)
O22_4 O 0.5390(5) 0.8238(5) 0.1828(12)
O23_4 O 0.3147(4) 0.8399(4) 0.8344(10)
O24_4 O 0.3390(6) 0.8080(6) 0.6937(15)
O25_4 O 0.2366(4) 0.7137(4) 0.3008(9)
H22_4 H 0.474282 0.816734 0.479187
H23_4 H 0.442064 0.818797 0.565204
H24_4 H 0.426958 0.819765 0.455609
H25_4 H 0.359053 0.990719 0.467989
H26_4 H 0.365331 0.966364 0.566593
H27_4 H 0.371142 0.943821 0.465418
H28_4 H 0.290777 0.746921 0.0296159
H30_4 H 0.321264 0.784444 0.0368621
C15_8 C 0.2653(8) 0.7999(9) 1.0000
C16_8 C 0.2989(12) 0.7726(13) 1.0000
C18_8 C 0.2097(12) 0.8645(11) 1.0000
H2_8 H 0.1996 0.8883 1.0000
N6_4 N 0.2622(7) 0.8094(6) 0.8293(14)
O19_4 O 0.2863(4) 0.7634(4) 0.6992(9)
C35_4 C 0.3040(17) 0.7922(16) 0.688(3)
C36_4 C 0.2905(8) 0.8096(8) 0.779(2)
C37_4 C 0.2489(7) 0.8106(7) 0.9229(15)
C38_4 C 0.2202(8) 0.8397(7) 0.9194(17)
C39_4 C 0.2066(7) 0.8658(7) 0.8591(17)
H19_4 H 0.2097 0.8566 0.7999
H20_4 H 0.1806 0.8700 0.8702
H21_4 H 0.2200 0.8887 0.8657
Cu6_4 Cu 0.24185(10) 0.75815(10) 0.7665(3)
H29_4 H 0.307682 0.767728 0.933522
O20_5 O 0.0280(11) 0.3023(13) 0.857(3)
C15_9 C 0.7999(9) 0.2653(8) 0.0000
C16_9 C 0.7726(13) 0.2989(12) 0.0000
C18_9 C 0.8645(11) 0.2097(12) 0.0000
H2_9 H 0.8883 0.1996 0.0000
O17 O 0.8399(4) 0.3147(4) 0.1656(10)
O18 O 0.8080(6) 0.3390(6) 0.3063(15)
C35_5 C 0.7922(16) 0.3040(17) 0.312(3)
C36_5 C 0.8096(8) 0.2905(8) 0.221(2)
C37_5 C 0.8106(7) 0.2489(7) 0.0771(15)
C38_5 C 0.8397(7) 0.2202(8) 0.0806(17)
C39_5 C 0.8658(7) 0.2066(7) 0.1409(17)
H19_5 H 0.8566 0.2097 0.2001
H20_5 H 0.8700 0.1806 0.1298
H21_5 H 0.8887 0.2200 0.1343
Mn3 Mn 0.85608(12) 0.35117(12) 0.2500(3)
H29_5 H 0.767728 0.307682 0.066478
Mn1_5 Mn 0.85608(12) 0.35117(12) 0.7500(3)
N1_5 N 0.9455(6) 0.3181(7) 0.6616(15)
N2_5 N 0.8666(5) 0.4636(5) 0.6627(12)
N3_5 N 0.8094(6) 0.2622(7) 0.8293(14)
O1_5 O 0.9670(5) 0.3579(5) 0.7973(12)
O2_5 O 0.9026(4) 0.3629(4) 0.8069(10)
O3_5 O 0.8898(4) 0.3183(5) 0.6770(12)
O4_5 O 0.8238(5) 0.4610(5) 0.8172(12)
O5_5 O 0.8289(9) 0.3951(8) 0.819(2)
O6_5 O 0.8634(5) 0.3915(5) 0.6569(12)
O7_5 O 0.8399(4) 0.3147(4) 0.8344(10)
O8_5 O 0.8080(6) 0.3390(6) 0.6937(15)
O9_5 O 0.7634(4) 0.2863(4) 0.6992(9)
C1_5 C 0.9359(7) 0.3565(11) 0.774(3)
C2_5 C 0.9224 0.3216 0.7153
C3_5 C 0.8573 0.4285 0.6977
C4_5 C 0.8429 0.4329 0.7946
C5_5 C 0.7922(16) 0.3040(17) 0.688(3)
C6_5 C 0.8096(8) 0.2905(8) 0.779(2)
C7_5 C 0.9493(9) 0.2937(7) 0.5781(16)
C8_5 C 0.9537(10) 0.3137(9) 0.5000
C9_5 C 0.9534(7) 0.2585(6) 0.5842(13)
C10_5 C 0.9640 0.2415 0.5000
H1_5 H 0.9778 0.2195 0.5000
C11_5 C 0.8890(6) 0.4592(6) 0.5787(13)
C12_5 C 0.8689(11) 0.4510(14) 0.5000
C13_5 C 0.8283(11) 0.4484(14) 0.5000
C14_5 C 0.8106(7) 0.2489(7) 0.9229(15)
C15_10 C 0.7999(9) 0.2653(8) 1.0000
C16_10 C 0.7726(13) 0.2989(12) 1.0000
C17_5 C 0.8397(7) 0.2202(8) 0.9194(17)
C18_10 C 0.8645(11) 0.2097(12) 1.0000
H2_10 H 0.8883 0.1996 1.0000
C19_5 C 0.9219(6) 0.4542(7) 0.6005(14)
C20_5 C 0.9431(11) 0.4498(11) 0.682(2)
H3_5 H 0.9267 0.4517 0.7317
H4_5 H 0.9616 0.4689 0.6852
H5_5 H 0.9549 0.4258 0.6820
C21_5 C 0.9348(11) 0.4534(11) 0.5000
H6_5 H 0.9606 0.4517 0.5000
C22_5 C 0.9645(16) 0.3556(11) 0.5000
C23_5 C 0.9524(8) 0.2398(8) 0.6772(16)
H7_5 H 0.9443 0.2576 0.7204
H8_5 H 0.9769 0.2312 0.6923
H9_5 H 0.9355 0.2192 0.6762
C24_5 C 0.8658(7) 0.2066(7) 0.8591(17)
H10_5 H 0.8566 0.2097 0.7999
H11_5 H 0.8700 0.1806 0.8702
H12_5 H 0.8887 0.2200 0.8657
O10_5 O 0.9720(11) 0.3023(13) 0.857(3)
O12_5 O 0.9026(4) 0.3629(4) 0.1931(10)
O13_5 O 0.8898(4) 0.3183(5) 0.3230(12)
C25_5 C 0.9359(7) 0.3565(11) 0.226(3)
C26_5 C 0.9224 0.3216 0.2847
C27_5 C 0.9493(9) 0.2937(7) 0.4219(16)
C28_5 C 0.9534(7) 0.2585(6) 0.4158(13)
C29_5 C 0.9524(8) 0.2398(8) 0.3228(16)
H13_5 H 0.9443 0.2576 0.2796
H14_5 H 0.9769 0.2312 0.3077
H15_5 H 0.9355 0.2192 0.3238
O15_5 O 0.8289(9) 0.3951(8) 0.181(2)
O16_5 O 0.8634(5) 0.3915(5) 0.3431(12)
C30_5 C 0.8573 0.4285 0.3023
C31_5 C 0.8429 0.4329 0.2054
C32_5 C 0.8890(6) 0.4592(6) 0.4213(13)
C33_5 C 0.9219(6) 0.4542(7) 0.3995(14)
C34_5 C 0.9431(11) 0.4498(11) 0.318(2)
H16_5 H 0.9267 0.4517 0.2683
H17_5 H 0.9616 0.4689 0.3148
H18_5 H 0.9549 0.4258 0.3180
H22_5 H 0.816734 0.474282 0.520813
H23_5 H 0.818797 0.442064 0.434796
H24_5 H 0.819765 0.426958 0.544391
H25_5 H 0.990719 0.359053 0.532011
H26_5 H 0.966364 0.365331 0.433407
H27_5 H 0.943821 0.371142 0.534582
H28_5 H 0.746921 0.290777 0.970384
H30_5 H 0.784444 0.321264 0.963138
C15_11 C 0.2001(9) 0.7347(8) 0.0000
C16_11 C 0.2274(13) 0.7011(12) 0.0000
C18_11 C 0.1355(11) 0.7903(12) 0.0000
H2_11 H 0.1117 0.8004 0.0000
O17_2 O 0.1601(4) 0.6853(4) 0.1656(10)
O18_2 O 0.1920(6) 0.6610(6) 0.3063(15)
C35_6 C 0.2078(16) 0.6960(17) 0.312(3)
C36_6 C 0.1904(8) 0.7095(8) 0.221(2)
C37_6 C 0.1894(7) 0.7511(7) 0.0771(15)
C38_6 C 0.1603(7) 0.7798(8) 0.0806(17)
C39_6 C 0.1342(7) 0.7934(7) 0.1409(17)
H19_6 H 0.1434 0.7903 0.2001
H20_6 H 0.1300 0.8194 0.1298
H21_6 H 0.1113 0.7800 0.1343
Mn3_2 Mn 0.14392(12) 0.64883(12) 0.2500(3)
H29_6 H 0.232272 0.692318 0.066478
Mn1_6 Mn 0.14392(12) 0.64883(12) 0.7500(3)
N1_6 N 0.0545(6) 0.6819(7) 0.6616(15)
N2_6 N 0.1334(5) 0.5364(5) 0.6627(12)
N3_6 N 0.1906(6) 0.7378(7) 0.8293(14)
O1_6 O 0.0330(5) 0.6421(5) 0.7973(12)
O2_6 O 0.0974(4) 0.6371(4) 0.8069(10)
O3_6 O 0.1102(4) 0.6817(5) 0.6770(12)
O4_6 O 0.1762(5) 0.5390(5) 0.8172(12)
O5_6 O 0.1711(9) 0.6049(8) 0.819(2)
O6_6 O 0.1366(5) 0.6085(5) 0.6569(12)
O7_6 O 0.1601(4) 0.6853(4) 0.8344(10)
O8_6 O 0.1920(6) 0.6610(6) 0.6937(15)
O9_6 O 0.2366(4) 0.7137(4) 0.6992(9)
C1_6 C 0.0641(7) 0.6435(11) 0.774(3)
C2_6 C 0.0776 0.6784 0.7153
C3_6 C 0.1427 0.5715 0.6977
C4_6 C 0.1571 0.5671 0.7946
C5_6 C 0.2078(16) 0.6960(17) 0.688(3)
C6_6 C 0.1904(8) 0.7095(8) 0.779(2)
C7_6 C 0.0507(9) 0.7063(7) 0.5781(16)
C8_6 C 0.0463(10) 0.6863(9) 0.5000
C9_6 C 0.0466(7) 0.7415(6) 0.5842(13)
C10_6 C 0.0360 0.7585 0.5000
H1_6 H 0.0222 0.7805 0.5000
C11_6 C 0.1110(6) 0.5408(6) 0.5787(13)
C12_6 C 0.1311(11) 0.5490(14) 0.5000
C13_6 C 0.1717(11) 0.5516(14) 0.5000
C14_6 C 0.1894(7) 0.7511(7) 0.9229(15)
C15_12 C 0.2001(9) 0.7347(8) 1.0000
C16_12 C 0.2274(13) 0.7011(12) 1.0000
C17_6 C 0.1603(7) 0.7798(8) 0.9194(17)
C18_12 C 0.1355(11) 0.7903(12) 1.0000
H2_12 H 0.1117 0.8004 1.0000
C19_6 C 0.0781(6) 0.5458(7) 0.6005(14)
C20_6 C 0.0569(11) 0.5502(11) 0.682(2)
H3_6 H 0.0733 0.5483 0.7317
H4_6 H 0.0384 0.5311 0.6852
H5_6 H 0.0451 0.5742 0.6820
C21_6 C 0.0652(11) 0.5466(11) 0.5000
H6_6 H 0.0394 0.5483 0.5000
C22_6 C 0.0355(16) 0.6444(11) 0.5000
C23_6 C 0.0476(8) 0.7602(8) 0.6772(16)
H7_6 H 0.0557 0.7424 0.7204
H8_6 H 0.0231 0.7688 0.6923
H9_6 H 0.0645 0.7808 0.6762
C24_6 C 0.1342(7) 0.7934(7) 0.8591(17)
H10_6 H 0.1434 0.7903 0.7999
H11_6 H 0.1300 0.8194 0.8702
H12_6 H 0.1113 0.7800 0.8657
O10_6 O 0.0280(11) 0.6977(13) 0.857(3)
O12_6 O 0.0974(4) 0.6371(4) 0.1931(10)
O13_6 O 0.1102(4) 0.6817(5) 0.3230(12)
C25_6 C 0.0641(7) 0.6435(11) 0.226(3)
C26_6 C 0.0776 0.6784 0.2847
C27_6 C 0.0507(9) 0.7063(7) 0.4219(16)
C28_6 C 0.0466(7) 0.7415(6) 0.4158(13)
C29_6 C 0.0476(8) 0.7602(8) 0.3228(16)
H13_6 H 0.0557 0.7424 0.2796
H14_6 H 0.0231 0.7688 0.3077
H15_6 H 0.0645 0.7808 0.3238
O15_6 O 0.1711(9) 0.6049(8) 0.181(2)
O16_6 O 0.1366(5) 0.6085(5) 0.3431(12)
C30_6 C 0.1427 0.5715 0.3023
C31_6 C 0.1571 0.5671 0.2054
C32_6 C 0.1110(6) 0.5408(6) 0.4213(13)
C33_6 C 0.0781(6) 0.5458(7) 0.3995(14)
C34_6 C 0.0569(11) 0.5502(11) 0.318(2)
H16_6 H 0.0733 0.5483 0.2683
H17_6 H 0.0384 0.5311 0.3148
H18_6 H 0.0451 0.5742 0.3180
H22_6 H 0.183266 0.525718 0.520813
H23_6 H 0.181203 0.557936 0.434796
H24_6 H 0.180235 0.573042 0.544391
H25_6 H 0.00928114 0.640947 0.532011
H26_6 H 0.0336357 0.634669 0.433407
H27_6 H 0.0561789 0.628858 0.534582
H28_6 H 0.253079 0.709223 0.970384
H30_6 H 0.215556 0.678736 0.963138
O20_6 O 0.9720(11) 0.6977(13) 0.857(3)
C15_13 C 0.2653(8) 0.2001(9) 0.0000
C16_13 C 0.2989(12) 0.2274(13) 0.0000
C18_13 C 0.2097(12) 0.1355(11) 0.0000
H2_13 H 0.1996 0.1117 0.0000
O17_3 O 0.3147(4) 0.1601(4) 0.1656(10)
O18_3 O 0.3390(6) 0.1920(6) 0.3063(15)
C35_7 C 0.3040(17) 0.2078(16) 0.312(3)
C36_7 C 0.2905(8) 0.1904(8) 0.221(2)
C37_7 C 0.2489(7) 0.1894(7) 0.0771(15)
C38_7 C 0.2202(8) 0.1603(7) 0.0806(17)
C39_7 C 0.2066(7) 0.1342(7) 0.1409(17)
H19_7 H 0.2097 0.1434 0.2001
H20_7 H 0.1806 0.1300 0.1298
H21_7 H 0.2200 0.1113 0.1343
Mn3_3 Mn 0.35117(12) 0.14392(12) 0.2500(3)
H29_7 H 0.307682 0.232272 0.066478
Mn1_7 Mn 0.35117(12) 0.14392(12) 0.7500(3)
N1_7 N 0.3181(7) 0.0545(6) 0.6616(15)
N2_7 N 0.4636(5) 0.1334(5) 0.6627(12)
N3_7 N 0.2622(7) 0.1906(6) 0.8293(14)
O1_7 O 0.3579(5) 0.0330(5) 0.7973(12)
O2_7 O 0.3629(4) 0.0974(4) 0.8069(10)
O3_7 O 0.3183(5) 0.1102(4) 0.6770(12)
O4_7 O 0.4610(5) 0.1762(5) 0.8172(12)
O5_7 O 0.3951(8) 0.1711(9) 0.819(2)
O6_7 O 0.3915(5) 0.1366(5) 0.6569(12)
O7_7 O 0.3147(4) 0.1601(4) 0.8344(10)
O8_7 O 0.3390(6) 0.1920(6) 0.6937(15)
O9_7 O 0.2863(4) 0.2366(4) 0.6992(9)
C1_7 C 0.3565(11) 0.0641(7) 0.774(3)
C2_7 C 0.3216 0.0776 0.7153
C3_7 C 0.4285 0.1427 0.6977
C4_7 C 0.4329 0.1571 0.7946
C5_7 C 0.3040(17) 0.2078(16) 0.688(3)
C6_7 C 0.2905(8) 0.1904(8) 0.779(2)
C7_7 C 0.2937(7) 0.0507(9) 0.5781(16)
C8_7 C 0.3137(9) 0.0463(10) 0.5000
C9_7 C 0.2585(6) 0.0466(7) 0.5842(13)
C10_7 C 0.2415 0.0360 0.5000
H1_7 H 0.2195 0.0222 0.5000
C11_7 C 0.4592(6) 0.1110(6) 0.5787(13)
C12_7 C 0.4510(14) 0.1311(11) 0.5000
C13_7 C 0.4484(14) 0.1717(11) 0.5000
C14_7 C 0.2489(7) 0.1894(7) 0.9229(15)
C15_14 C 0.2653(8) 0.2001(9) 1.0000
C16_14 C 0.2989(12) 0.2274(13) 1.0000
C17_7 C 0.2202(8) 0.1603(7) 0.9194(17)
C18_14 C 0.2097(12) 0.1355(11) 1.0000
H2_14 H 0.1996 0.1117 1.0000
C19_7 C 0.4542(7) 0.0781(6) 0.6005(14)
C20_7 C 0.4498(11) 0.0569(11) 0.682(2)
H3_7 H 0.4517 0.0733 0.7317
H4_7 H 0.4689 0.0384 0.6852
H5_7 H 0.4258 0.0451 0.6820
C21_7 C 0.4534(11) 0.0652(11) 0.5000
H6_7 H 0.4517 0.0394 0.5000
C22_7 C 0.3556(11) 0.0355(16) 0.5000
C23_7 C 0.2398(8) 0.0476(8) 0.6772(16)
H7_7 H 0.2576 0.0557 0.7204
H8_7 H 0.2312 0.0231 0.6923
H9_7 H 0.2192 0.0645 0.6762
C24_7 C 0.2066(7) 0.1342(7) 0.8591(17)
H10_7 H 0.2097 0.1434 0.7999
H11_7 H 0.1806 0.1300 0.8702
H12_7 H 0.2200 0.1113 0.8657
O10_7 O 0.3023(13) 0.0280(11) 0.857(3)
O12_7 O 0.3629(4) 0.0974(4) 0.1931(10)
O13_7 O 0.3183(5) 0.1102(4) 0.3230(12)
C25_7 C 0.3565(11) 0.0641(7) 0.226(3)
C26_7 C 0.3216 0.0776 0.2847
C27_7 C 0.2937(7) 0.0507(9) 0.4219(16)
C28_7 C 0.2585(6) 0.0466(7) 0.4158(13)
C29_7 C 0.2398(8) 0.0476(8) 0.3228(16)
H13_7 H 0.2576 0.0557 0.2796
H14_7 H 0.2312 0.0231 0.3077
H15_7 H 0.2192 0.0645 0.3238
O15_7 O 0.3951(8) 0.1711(9) 0.181(2)
O16_7 O 0.3915(5) 0.1366(5) 0.3431(12)
C30_7 C 0.4285 0.1427 0.3023
C31_7 C 0.4329 0.1571 0.2054
C32_7 C 0.4592(6) 0.1110(6) 0.4213(13)
C33_7 C 0.4542(7) 0.0781(6) 0.3995(14)
C34_7 C 0.4498(11) 0.0569(11) 0.318(2)
H16_7 H 0.4517 0.0733 0.2683
H17_7 H 0.4689 0.0384 0.3148
H18_7 H 0.4258 0.0451 0.3180
H22_7 H 0.474282 0.183266 0.520813
H23_7 H 0.442064 0.181203 0.434796
H24_7 H 0.426958 0.180235 0.544391
H25_7 H 0.359053 0.00928114 0.532011
H26_7 H 0.365331 0.0336357 0.433407
H27_7 H 0.371142 0.0561789 0.534582
H28_7 H 0.290777 0.253079 0.970384
H30_7 H 0.321264 0.215556 0.963138
O20_7 O 0.3023(13) 0.9720(11) 0.857(3)
O20_8 O 0.6977(13) 0.0280(11) 0.857(3)
C15_15 C 0.7347(8) 0.7999(9) 0.0000
C16_15 C 0.7011(12) 0.7726(13) 0.0000
C18_15 C 0.7903(12) 0.8645(11) 0.0000
H2_15 H 0.8004 0.8883 0.0000
O17_4 O 0.6853(4) 0.8399(4) 0.1656(10)
O18_4 O 0.6610(6) 0.8080(6) 0.3063(15)
C35_8 C 0.6960(17) 0.7922(16) 0.312(3)
C36_8 C 0.7095(8) 0.8096(8) 0.221(2)
C37_8 C 0.7511(7) 0.8106(7) 0.0771(15)
C38_8 C 0.7798(8) 0.8397(7) 0.0806(17)
C39_8 C 0.7934(7) 0.8658(7) 0.1409(17)
H19_8 H 0.7903 0.8566 0.2001
H20_8 H 0.8194 0.8700 0.1298
H21_8 H 0.7800 0.8887 0.1343
Mn3_4 Mn 0.64883(12) 0.85608(12) 0.2500(3)
H29_8 H 0.692318 0.767728 0.066478
Mn1_8 Mn 0.64883(12) 0.85608(12) 0.7500(3)
N1_8 N 0.6819(7) 0.9455(6) 0.6616(15)
N2_8 N 0.5364(5) 0.8666(5) 0.6627(12)
N3_8 N 0.7378(7) 0.8094(6) 0.8293(14)
O1_8 O 0.6421(5) 0.9670(5) 0.7973(12)
O2_8 O 0.6371(4) 0.9026(4) 0.8069(10)
O3_8 O 0.6817(5) 0.8898(4) 0.6770(12)
O4_8 O 0.5390(5) 0.8238(5) 0.8172(12)
O5_8 O 0.6049(8) 0.8289(9) 0.819(2)
O6_8 O 0.6085(5) 0.8634(5) 0.6569(12)
O7_8 O 0.6853(4) 0.8399(4) 0.8344(10)
O8_8 O 0.6610(6) 0.8080(6) 0.6937(15)
O9_8 O 0.7137(4) 0.7634(4) 0.6992(9)
C1_8 C 0.6435(11) 0.9359(7) 0.774(3)
C2_8 C 0.6784 0.9224 0.7153
C3_8 C 0.5715 0.8573 0.6977
C4_8 C 0.5671 0.8429 0.7946
C5_8 C 0.6960(17) 0.7922(16) 0.688(3)
C6_8 C 0.7095(8) 0.8096(8) 0.779(2)
C7_8 C 0.7063(7) 0.9493(9) 0.5781(16)
C8_8 C 0.6863(9) 0.9537(10) 0.5000
C9_8 C 0.7415(6) 0.9534(7) 0.5842(13)
C10_8 C 0.7585 0.9640 0.5000
H1_8 H 0.7805 0.9778 0.5000
C11_8 C 0.5408(6) 0.8890(6) 0.5787(13)
C12_8 C 0.5490(14) 0.8689(11) 0.5000
C13_8 C 0.5516(14) 0.8283(11) 0.5000
C14_8 C 0.7511(7) 0.8106(7) 0.9229(15)
C15_16 C 0.7347(8) 0.7999(9) 1.0000
C16_16 C 0.7011(12) 0.7726(13) 1.0000
C17_8 C 0.7798(8) 0.8397(7) 0.9194(17)
C18_16 C 0.7903(12) 0.8645(11) 1.0000
H2_16 H 0.8004 0.8883 1.0000
C19_8 C 0.5458(7) 0.9219(6) 0.6005(14)
C20_8 C 0.5502(11) 0.9431(11) 0.682(2)
H3_8 H 0.5483 0.9267 0.7317
H4_8 H 0.5311 0.9616 0.6852
H5_8 H 0.5742 0.9549 0.6820
C21_8 C 0.5466(11) 0.9348(11) 0.5000
H6_8 H 0.5483 0.9606 0.5000
C22_8 C 0.6444(11) 0.9645(16) 0.5000
C23_8 C 0.7602(8) 0.9524(8) 0.6772(16)
H7_8 H 0.7424 0.9443 0.7204
H8_8 H 0.7688 0.9769 0.6923
H9_8 H 0.7808 0.9355 0.6762
C24_8 C 0.7934(7) 0.8658(7) 0.8591(17)
H10_8 H 0.7903 0.8566 0.7999
H11_8 H 0.8194 0.8700 0.8702
H12_8 H 0.7800 0.8887 0.8657
O10_8 O 0.6977(13) 0.9720(11) 0.857(3)
O12_8 O 0.6371(4) 0.9026(4) 0.1931(10)
O13_8 O 0.6817(5) 0.8898(4) 0.3230(12)
C25_8 C 0.6435(11) 0.9359(7) 0.226(3)
C26_8 C 0.6784 0.9224 0.2847
C27_8 C 0.7063(7) 0.9493(9) 0.4219(16)
C28_8 C 0.7415(6) 0.9534(7) 0.4158(13)
C29_8 C 0.7602(8) 0.9524(8) 0.3228(16)
H13_8 H 0.7424 0.9443 0.2796
H14_8 H 0.7688 0.9769 0.3077
H15_8 H 0.7808 0.9355 0.3238
O15_8 O 0.6049(8) 0.8289(9) 0.181(2)
O16_8 O 0.6085(5) 0.8634(5) 0.3431(12)
C30_8 C 0.5715 0.8573 0.3023
C31_8 C 0.5671 0.8429 0.2054
C32_8 C 0.5408(6) 0.8890(6) 0.4213(13)
C33_8 C 0.5458(7) 0.9219(6) 0.3995(14)
C34_8 C 0.5502(11) 0.9431(11) 0.318(2)
H16_8 H 0.5483 0.9267 0.2683
H17_8 H 0.5311 0.9616 0.3148
H18_8 H 0.5742 0.9549 0.3180
H22_8 H 0.525718 0.816734 0.520813
H23_8 H 0.557936 0.818797 0.434796
H24_8 H 0.573042 0.819765 0.544391
H25_8 H 0.640947 0.990719 0.532011
H26_8 H 0.634669 0.966364 0.433407
H27_8 H 0.628858 0.943821 0.534582
H28_8 H 0.709223 0.746921 0.970384
H30_8 H 0.678736 0.784444 0.963138
H29_9 H 0.767728 0.692318 0.066478
H22_9 H 0.816734 0.525718 0.520813
H23_9 H 0.818797 0.557936 0.434796
H24_9 H 0.819765 0.573042 0.544391
H25_9 H 0.990719 0.640947 0.532011
H26_9 H 0.966364 0.634669 0.433407
H27_9 H 0.943821 0.628858 0.534582
H28_9 H 0.746921 0.709223 0.970384
H30_9 H 0.784444 0.678736 0.963138
H29_10 H 0.232272 0.307682 0.066478
H22_10 H 0.183266 0.474282 0.520813
H23_10 H 0.181203 0.442064 0.434796
H24_10 H 0.180235 0.426958 0.544391
H25_10 H 0.00928114 0.359053 0.532011
H26_10 H 0.0336357 0.365331 0.433407
H27_10 H 0.0561789 0.371142 0.534582
H28_10 H 0.253079 0.290777 0.970384
H30_10 H 0.215556 0.321264 0.963138
H29_11 H 0.307682 0.767728 0.066478
H22_11 H 0.474282 0.816734 0.520813
H23_11 H 0.442064 0.818797 0.434796
H24_11 H 0.426958 0.819765 0.544391
H25_11 H 0.359053 0.990719 0.532011
H26_11 H 0.365331 0.966364 0.433407
H27_11 H 0.371142 0.943821 0.534582
H28_11 H 0.290777 0.746921 0.970384
H30_11 H 0.321264 0.784444 0.963138
H29_12 H 0.692318 0.232272 0.066478
H22_12 H 0.525718 0.183266 0.520813
H23_12 H 0.557936 0.181203 0.434796
H24_12 H 0.573042 0.180235 0.544391
H25_12 H 0.640947 0.00928114 0.532011
H26_12 H 0.634669 0.0336357 0.433407
H27_12 H 0.628858 0.0561789 0.534582
H28_12 H 0.709223 0.253079 0.970384
H30_12 H 0.678736 0.215556 0.963138
H22_13 H 0.183266 0.525718 0.479187
H23_13 H 0.181203 0.557936 0.565204
H24_13 H 0.180235 0.573042 0.455609
H25_13 H 0.00928114 0.640947 0.467989
H26_13 H 0.0336357 0.634669 0.566593
H27_13 H 0.0561789 0.628858 0.465418
H28_13 H 0.253079 0.709223 0.0296159
H30_13 H 0.215556 0.678736 0.0368621
H29_13 H 0.232272 0.692318 0.933522
H22_14 H 0.816734 0.474282 0.479187
H23_14 H 0.818797 0.442064 0.565204
H24_14 H 0.819765 0.426958 0.455609
H25_14 H 0.990719 0.359053 0.467989
H26_14 H 0.966364 0.365331 0.566593
H27_14 H 0.943821 0.371142 0.465418
H28_14 H 0.746921 0.290777 0.0296159
H30_14 H 0.784444 0.321264 0.0368621
H29_14 H 0.767728 0.307682 0.933522
H22_15 H 0.525718 0.816734 0.479187
H23_15 H 0.557936 0.818797 0.565204
H24_15 H 0.573042 0.819765 0.455609
H25_15 H 0.640947 0.990719 0.467989
H26_15 H 0.634669 0.966364 0.566593
H27_15 H 0.628858 0.943821 0.465418
H28_15 H 0.709223 0.746921 0.0296159
H30_15 H 0.678736 0.784444 0.0368621
H29_15 H 0.692318 0.767728 0.933522
H22_16 H 0.474282 0.183266 0.479187
H23_16 H 0.442064 0.181203 0.565204
H24_16 H 0.426958 0.180235 0.455609
H25_16 H 0.359053 0.00928114 0.467989
H26_16 H 0.365331 0.0336357 0.566593
H27_16 H 0.371142 0.0561789 0.465418
H28_16 H 0.290777 0.253079 0.0296159
H30_16 H 0.321264 0.215556 0.0368621
H29_16 H 0.307682 0.232272 0.933522
loop_
_geom_bond_atom_site_label_1
_geom_bond_atom_site_label_2
_geom_bond_site_symmetry_1
_geom_bond_site_symmetry_2
Cu1 N1 1_555 1_555
Cu2 N2 1_555 1_555
Cu3 N3 1_555 1_555
Mn1 O2 1_555 1_555
N1 C2 1_555 1_555
N2 C3 1_555 1_555
N3 C6 1_555 1_555
O1 Cu1 1_555 1_555
O2 C1 1_555 1_555
O3 Mn1 1_555 1_555
O4 Cu2 1_555 1_555
O5 Mn1 1_555 1_555
O6 Mn1 1_555 1_555
O7 Mn1 1_555 1_555
O8 Mn1 1_555 1_555
O9 Cu3 1_555 1_555
C1 O1 1_555 1_555
C2 O3 1_555 1_555
C3 O6 1_555 1_555
C4 O4 1_555 1_555
C5 O8 1_555 1_555
C6 O7 1_555 1_555
C7 N1 1_555 1_555
C8 C7 1_555 1_555
C9 C7 1_555 1_555
C10 C9 1_555 1_555
H1 C10 1_555 1_555
C11 N2 1_555 1_555
C12 C11 1_555 1_555
C13 C12 1_555 1_555
C14 N3 1_555 1_555
C15 C14 1_555 1_555
C16 C15 1_555 1_555
C17 C14 1_555 1_555
C18 C17 1_555 1_555
H2 C18 1_555 1_555
C19 C11 1_555 1_555
C20 C19 1_555 1_555
H3 C20 1_555 1_555
H4 C20 1_555 1_555
H5 C20 1_555 1_555
C21 C19 1_555 1_555
H6 C21 1_555 1_555
C22 C8 1_555 1_555
C23 C9 1_555 1_555
H7 C23 1_555 1_555
H8 C23 1_555 1_555
H9 C23 1_555 1_555
C24 C17 1_555 1_555
H10 C24 1_555 1_555
H11 C24 1_555 1_555
H12 C24 1_555 1_555
O10 Cu1 1_555 1_555
N4 C26 1_555 1_555
O11 C25 1_555 1_555
O12 C25 1_555 1_555
O13 C26 1_555 1_555
C25 C26 1_555 1_555
C27 C8 1_555 1_555
C28 C10 1_555 1_555
C29 C28 1_555 1_555
H13 C29 1_555 1_555
H14 C29 1_555 1_555
H15 C29 1_555 1_555
N5 C30 1_555 1_555
O14 C31 1_555 1_555
O15 C31 1_555 1_555
O16 C30 1_555 1_555
C30 C31 1_555 1_555
C32 C12 1_555 1_555
C33 C21 1_555 1_555
C34 C33 1_555 1_555
H16 C34 1_555 1_555
H17 C34 1_555 1_555
H18 C34 1_555 1_555
Mn2 O12 1_555 1_555
Cu4 N4 1_555 1_555
Cu5 N5 1_555 1_555
N8 Cu2 1_555 1_555
N9 Cu3 1_555 1_555
O22 Cu2 1_555 1_555
O23 Mn2 1_555 1_555
O24 Mn2 1_555 1_555
O25 Cu3 1_555 1_555
O5 C4 1_555 1_555
O9 C5 1_555 1_555
C1 C2 1_555 1_555
C3 C4 1_555 1_555
C5 C6 1_555 1_555
N4 C27 1_555 1_555
O11 Cu4 1_555 1_555
O13 Mn2 1_555 1_555
C27 C28 1_555 1_555
N5 C32 1_555 1_555
O14 Cu5 1_555 1_555
O15 Mn2 1_555 1_555
O16 Mn2 1_555 1_555
C32 C33 1_555 1_555
C13 H22 1_555 1_555
C13 H23 1_555 1_555
C13 H24 1_555 1_555
C22 H25 1_555 1_555
C22 H26 1_555 1_555
C22 H27 1_555 1_555
C16 H28 1_555 1_555
C16 H30 1_555 1_555
C16_2 C15_2 1_555 1_555
H2_2 C18_2 1_555 1_555
N6 C36 1_555 1_555
O23 C36 1_555 1_555
O24 C35 1_555 1_555
O19 C35 1_555 1_555
C35 C36 1_555 1_555
C37 C15_2 1_555 1_555
C38 C18_2 1_555 1_555
C39 C38 1_555 1_555
H19 C39 1_555 1_555
H20 C39 1_555 1_555
H21 C39 1_555 1_555
Cu6 N6 1_555 1_555
N6 C37 1_555 1_555
O19 Cu6 1_555 1_555
C37 C38 1_555 1_555
C16_2 H29 1_555 1_555
O20 Cu1_2 1_555 1_555
N7 Cu1_2 1_555 1_555
O21 Cu1_2 1_555 1_555
O20_2 Cu1_3 1_555 1_555
N7_2 Cu1_3 1_555 1_555
O21_2 Cu1_3 1_555 1_555
Cu1_4 N1_2 1_555 1_555
Cu2_2 N2_2 1_555 1_555
Cu3_2 N3_2 1_555 1_555
Mn1_2 O2_2 1_555 1_555
N1_2 C2_2 1_555 1_555
N2_2 C3_2 1_555 1_555
N3_2 C6_2 1_555 1_555
O1_2 Cu1_4 1_555 1_555
O2_2 C1_2 1_555 1_555
O3_2 Mn1_2 1_555 1_555
O4_2 Cu2_2 1_555 1_555
O5_2 Mn1_2 1_555 1_555
O6_2 Mn1_2 1_555 1_555
O7_2 Mn1_2 1_555 1_555
O8_2 Mn1_2 1_555 1_555
O9_2 Cu3_2 1_555 1_555
C1_2 O1_2 1_555 1_555
C2_2 O3_2 1_555 1_555
C3_2 O6_2 1_555 1_555
C4_2 O4_2 1_555 1_555
C5_2 O8_2 1_555 1_555
C6_2 O7_2 1_555 1_555
C7_2 N1_2 1_555 1_555
C8_2 C7_2 1_555 1_555
C9_2 C7_2 1_555 1_555
C10_2 C9_2 1_555 1_555
H1_2 C10_2 1_555 1_555
C11_2 N2_2 1_555 1_555
C12_2 C11_2 1_555 1_555
C13_2 C12_2 1_555 1_555
C14_2 N3_2 1_555 1_555
C15_3 C14_2 1_555 1_555
C16_3 C15_3 1_555 1_555
C17_2 C14_2 1_555 1_555
C18_3 C17_2 1_555 1_555
H2_3 C18_3 1_555 1_555
C19_2 C11_2 1_555 1_555
C20_2 C19_2 1_555 1_555
H3_2 C20_2 1_555 1_555
H4_2 C20_2 1_555 1_555
H5_2 C20_2 1_555 1_555
C21_2 C19_2 1_555 1_555
H6_2 C21_2 1_555 1_555
C22_2 C8_2 1_555 1_555
C23_2 C9_2 1_555 1_555
H7_2 C23_2 1_555 1_555
H8_2 C23_2 1_555 1_555
H9_2 C23_2 1_555 1_555
C24_2 C17_2 1_555 1_555
H10_2 C24_2 1_555 1_555
H11_2 C24_2 1_555 1_555
H12_2 C24_2 1_555 1_555
O10_2 Cu1_4 1_555 1_555
N4_2 C26_2 1_555 1_555
O11_2 C25_2 1_555 1_555
O12_2 C25_2 1_555 1_555
O13_2 C26_2 1_555 1_555
C25_2 C26_2 1_555 1_555
C27_2 C8_2 1_555 1_555
C28_2 C10_2 1_555 1_555
C29_2 C28_2 1_555 1_555
H13_2 C29_2 1_555 1_555
H14_2 C29_2 1_555 1_555
H15_2 C29_2 1_555 1_555
N5_2 C30_2 1_555 1_555
O14_2 C31_2 1_555 1_555
O15_2 C31_2 1_555 1_555
O16_2 C30_2 1_555 1_555
C30_2 C31_2 1_555 1_555
C32_2 C12_2 1_555 1_555
C33_2 C21_2 1_555 1_555
C34_2 C33_2 1_555 1_555
H16_2 C34_2 1_555 1_555
H17_2 C34_2 1_555 1_555
H18_2 C34_2 1_555 1_555
Mn2_2 O12_2 1_555 1_555
Cu4_4 N4_2 1_555 1_555
Cu5_2 N5_2 1_555 1_555
N8_2 Cu2_2 1_555 1_555
N9_2 Cu3_2 1_555 1_555
O22_2 Cu2_2 1_555 1_555
O23_2 Mn2_2 1_555 1_555
O24_2 Mn2_2 1_555 1_555
O25_2 Cu3_2 1_555 1_555
O5_2 C4_2 1_555 1_555
O9_2 C5_2 1_555 1_555
C1_2 C2_2 1_555 1_555
C3_2 C4_2 1_555 1_555
C5_2 C6_2 1_555 1_555
N4_2 C27_2 1_555 1_555
O11_2 Cu4_4 1_555 1_555
O13_2 Mn2_2 1_555 1_555
C27_2 C28_2 1_555 1_555
N5_2 C32_2 1_555 1_555
O14_2 Cu5_2 1_555 1_555
O15_2 Mn2_2 1_555 1_555
O16_2 Mn2_2 1_555 1_555
C32_2 C33_2 1_555 1_555
C13_2 H22_2 1_555 1_555
C13_2 H23_2 1_555 1_555
C13_2 H24_2 1_555 1_555
C22_2 H25_2 1_555 1_555
C22_2 H26_2 1_555 1_555
C22_2 H27_2 1_555 1_555
C16_3 H28_2 1_555 1_555
C16_3 H30_2 1_555 1_555
C16_4 C15_4 1_555 1_555
H2_4 C18_4 1_555 1_555
N6_2 C36_2 1_555 1_555
O23_2 C36_2 1_555 1_555
O24_2 C35_2 1_555 1_555
O19_2 C35_2 1_555 1_555
C35_2 C36_2 1_555 1_555
C37_2 C15_4 1_555 1_555
C38_2 C18_4 1_555 1_555
C39_2 C38_2 1_555 1_555
H19_2 C39_2 1_555 1_555
H20_2 C39_2 1_555 1_555
H21_2 C39_2 1_555 1_555
Cu6_2 N6_2 1_555 1_555
N6_2 C37_2 1_555 1_555
O19_2 Cu6_2 1_555 1_555
C37_2 C38_2 1_555 1_555
C16_4 H29_2 1_555 1_555
Cu1_5 N1_3 1_555 1_555
Cu2_3 N2_3 1_555 1_555
Cu3_3 N3_3 1_555 1_555
Mn1_3 O2_3 1_555 1_555
N1_3 C2_3 1_555 1_555
N2_3 C3_3 1_555 1_555
N3_3 C6_3 1_555 1_555
O1_3 Cu1_5 1_555 1_555
O2_3 C1_3 1_555 1_555
O3_3 Mn1_3 1_555 1_555
O4_3 Cu2_3 1_555 1_555
O5_3 Mn1_3 1_555 1_555
O6_3 Mn1_3 1_555 1_555
O7_3 Mn1_3 1_555 1_555
O8_3 Mn1_3 1_555 1_555
O9_3 Cu3_3 1_555 1_555
C1_3 O1_3 1_555 1_555
C2_3 O3_3 1_555 1_555
C3_3 O6_3 1_555 1_555
C4_3 O4_3 1_555 1_555
C5_3 O8_3 1_555 1_555
C6_3 O7_3 1_555 1_555
C7_3 N1_3 1_555 1_555
C8_3 C7_3 1_555 1_555
C9_3 C7_3 1_555 1_555
C10_3 C9_3 1_555 1_555
H1_3 C10_3 1_555 1_555
C11_3 N2_3 1_555 1_555
C12_3 C11_3 1_555 1_555
C13_3 C12_3 1_555 1_555
C14_3 N3_3 1_555 1_555
C15_5 C14_3 1_555 1_555
C16_5 C15_5 1_555 1_555
C17_3 C14_3 1_555 1_555
C18_5 C17_3 1_555 1_555
H2_5 C18_5 1_555 1_555
C19_3 C11_3 1_555 1_555
C20_3 C19_3 1_555 1_555
H3_3 C20_3 1_555 1_555
H4_3 C20_3 1_555 1_555
H5_3 C20_3 1_555 1_555
C21_3 C19_3 1_555 1_555
H6_3 C21_3 1_555 1_555
C22_3 C8_3 1_555 1_555
C23_3 C9_3 1_555 1_555
H7_3 C23_3 1_555 1_555
H8_3 C23_3 1_555 1_555
H9_3 C23_3 1_555 1_555
C24_3 C17_3 1_555 1_555
H10_3 C24_3 1_555 1_555
H11_3 C24_3 1_555 1_555
H12_3 C24_3 1_555 1_555
O10_3 Cu1_5 1_555 1_555
N4_3 C26_3 1_555 1_555
O11_3 C25_3 1_555 1_555
O12_3 C25_3 1_555 1_555
O13_3 C26_3 1_555 1_555
C25_3 C26_3 1_555 1_555
C27_3 C8_3 1_555 1_555
C28_3 C10_3 1_555 1_555
C29_3 C28_3 1_555 1_555
H13_3 C29_3 1_555 1_555
H14_3 C29_3 1_555 1_555
H15_3 C29_3 1_555 1_555
N5_3 C30_3 1_555 1_555
O14_3 C31_3 1_555 1_555
O15_3 C31_3 1_555 1_555
O16_3 C30_3 1_555 1_555
C30_3 C31_3 1_555 1_555
C32_3 C12_3 1_555 1_555
C33_3 C21_3 1_555 1_555
C34_3 C33_3 1_555 1_555
H16_3 C34_3 1_555 1_555
H17_3 C34_3 1_555 1_555
H18_3 C34_3 1_555 1_555
Mn2_3 O12_3 1_555 1_555
Cu4_5 N4_3 1_555 1_555
Cu5_3 N5_3 1_555 1_555
N8_3 Cu2_3 1_555 1_555
N9_3 Cu3_3 1_555 1_555
O22_3 Cu2_3 1_555 1_555
O23_3 Mn2_3 1_555 1_555
O24_3 Mn2_3 1_555 1_555
O25_3 Cu3_3 1_555 1_555
O5_3 C4_3 1_555 1_555
O9_3 C5_3 1_555 1_555
C1_3 C2_3 1_555 1_555
C3_3 C4_3 1_555 1_555
C5_3 C6_3 1_555 1_555
N4_3 C27_3 1_555 1_555
O11_3 Cu4_5 1_555 1_555
O13_3 Mn2_3 1_555 1_555
C27_3 C28_3 1_555 1_555
N5_3 C32_3 1_555 1_555
O14_3 Cu5_3 1_555 1_555
O15_3 Mn2_3 1_555 1_555
O16_3 Mn2_3 1_555 1_555
C32_3 C33_3 1_555 1_555
C13_3 H22_3 1_555 1_555
C13_3 H23_3 1_555 1_555
C13_3 H24_3 1_555 1_555
C22_3 H25_3 1_555 1_555
C22_3 H26_3 1_555 1_555
C22_3 H27_3 1_555 1_555
C16_5 H28_3 1_555 1_555
C16_5 H30_3 1_555 1_555
C16_6 C15_6 1_555 1_555
H2_6 C18_6 1_555 1_555
N6_3 C36_3 1_555 1_555
O23_3 C36_3 1_555 1_555
O24_3 C35_3 1_555 1_555
O19_3 C35_3 1_555 1_555
C35_3 C36_3 1_555 1_555
C37_3 C15_6 1_555 1_555
C38_3 C18_6 1_555 1_555
C39_3 C38_3 1_555 1_555
H19_3 C39_3 1_555 1_555
H20_3 C39_3 1_555 1_555
H21_3 C39_3 1_555 1_555
Cu6_3 N6_3 1_555 1_555
N6_3 C37_3 1_555 1_555
O19_3 Cu6_3 1_555 1_555
C37_3 C38_3 1_555 1_555
C16_6 H29_3 1_555 1_555
O20_3 Cu1_6 1_555 1_555
N7_3 Cu1_6 1_555 1_555
O21_3 Cu1_6 1_555 1_555
O20_4 Cu1_7 1_555 1_555
N7_4 Cu1_7 1_555 1_555
O21_4 Cu1_7 1_555 1_555
Cu1_8 N1_4 1_555 1_555
Cu2_4 N2_4 1_555 1_555
Cu3_4 N3_4 1_555 1_555
Mn1_4 O2_4 1_555 1_555
N1_4 C2_4 1_555 1_555
N2_4 C3_4 1_555 1_555
N3_4 C6_4 1_555 1_555
O1_4 Cu1_8 1_555 1_555
O2_4 C1_4 1_555 1_555
O3_4 Mn1_4 1_555 1_555
O4_4 Cu2_4 1_555 1_555
O5_4 Mn1_4 1_555 1_555
O6_4 Mn1_4 1_555 1_555
O7_4 Mn1_4 1_555 1_555
O8_4 Mn1_4 1_555 1_555
O9_4 Cu3_4 1_555 1_555
C1_4 O1_4 1_555 1_555
C2_4 O3_4 1_555 1_555
C3_4 O6_4 1_555 1_555
C4_4 O4_4 1_555 1_555
C5_4 O8_4 1_555 1_555
C6_4 O7_4 1_555 1_555
C7_4 N1_4 1_555 1_555
C8_4 C7_4 1_555 1_555
C9_4 C7_4 1_555 1_555
C10_4 C9_4 1_555 1_555
H1_4 C10_4 1_555 1_555
C11_4 N2_4 1_555 1_555
C12_4 C11_4 1_555 1_555
C13_4 C12_4 1_555 1_555
C14_4 N3_4 1_555 1_555
C15_7 C14_4 1_555 1_555
C16_7 C15_7 1_555 1_555
C17_4 C14_4 1_555 1_555
C18_7 C17_4 1_555 1_555
H2_7 C18_7 1_555 1_555
C19_4 C11_4 1_555 1_555
C20_4 C19_4 1_555 1_555
H3_4 C20_4 1_555 1_555
H4_4 C20_4 1_555 1_555
H5_4 C20_4 1_555 1_555
C21_4 C19_4 1_555 1_555
H6_4 C21_4 1_555 1_555
C22_4 C8_4 1_555 1_555
C23_4 C9_4 1_555 1_555
H7_4 C23_4 1_555 1_555
H8_4 C23_4 1_555 1_555
H9_4 C23_4 1_555 1_555
C24_4 C17_4 1_555 1_555
H10_4 C24_4 1_555 1_555
H11_4 C24_4 1_555 1_555
H12_4 C24_4 1_555 1_555
O10_4 Cu1_8 1_555 1_555
N4_4 C26_4 1_555 1_555
O11_4 C25_4 1_555 1_555
O12_4 C25_4 1_555 1_555
O13_4 C26_4 1_555 1_555
C25_4 C26_4 1_555 1_555
C27_4 C8_4 1_555 1_555
C28_4 C10_4 1_555 1_555
C29_4 C28_4 1_555 1_555
H13_4 C29_4 1_555 1_555
H14_4 C29_4 1_555 1_555
H15_4 C29_4 1_555 1_555
N5_4 C30_4 1_555 1_555
O14_4 C31_4 1_555 1_555
O15_4 C31_4 1_555 1_555
O16_4 C30_4 1_555 1_555
C30_4 C31_4 1_555 1_555
C32_4 C12_4 1_555 1_555
C33_4 C21_4 1_555 1_555
C34_4 C33_4 1_555 1_555
H16_4 C34_4 1_555 1_555
H17_4 C34_4 1_555 1_555
H18_4 C34_4 1_555 1_555
Mn2_4 O12_4 1_555 1_555
Cu4_8 N4_4 1_555 1_555
Cu5_4 N5_4 1_555 1_555
N8_4 Cu2_4 1_555 1_555
N9_4 Cu3_4 1_555 1_555
O22_4 Cu2_4 1_555 1_555
O23_4 Mn2_4 1_555 1_555
O24_4 Mn2_4 1_555 1_555
O25_4 Cu3_4 1_555 1_555
O5_4 C4_4 1_555 1_555
O9_4 C5_4 1_555 1_555
C1_4 C2_4 1_555 1_555
C3_4 C4_4 1_555 1_555
C5_4 C6_4 1_555 1_555
N4_4 C27_4 1_555 1_555
O11_4 Cu4_8 1_555 1_555
O13_4 Mn2_4 1_555 1_555
C27_4 C28_4 1_555 1_555
N5_4 C32_4 1_555 1_555
O14_4 Cu5_4 1_555 1_555
O15_4 Mn2_4 1_555 1_555
O16_4 Mn2_4 1_555 1_555
C32_4 C33_4 1_555 1_555
C13_4 H22_4 1_555 1_555
C13_4 H23_4 1_555 1_555
C13_4 H24_4 1_555 1_555
C22_4 H25_4 1_555 1_555
C22_4 H26_4 1_555 1_555
C22_4 H27_4 1_555 1_555
C16_7 H28_4 1_555 1_555
C16_7 H30_4 1_555 1_555
C16_8 C15_8 1_555 1_555
H2_8 C18_8 1_555 1_555
N6_4 C36_4 1_555 1_555
O23_4 C36_4 1_555 1_555
O24_4 C35_4 1_555 1_555
O19_4 C35_4 1_555 1_555
C35_4 C36_4 1_555 1_555
C37_4 C15_8 1_555 1_555
C38_4 C18_8 1_555 1_555
C39_4 C38_4 1_555 1_555
H19_4 C39_4 1_555 1_555
H20_4 C39_4 1_555 1_555
H21_4 C39_4 1_555 1_555
Cu6_4 N6_4 1_555 1_555
N6_4 C37_4 1_555 1_555
O19_4 Cu6_4 1_555 1_555
C37_4 C38_4 1_555 1_555
C16_8 H29_4 1_555 1_555
O20_5 Cu4 1_555 1_555
C16_9 C15_9 1_555 1_555
H2_9 C18_9 1_555 1_555
N9_3 C36_5 1_555 1_555
O17 C36_5 1_555 1_555
O18 C35_5 1_555 1_555
O25_3 C35_5 1_555 1_555
C35_5 C36_5 1_555 1_555
C37_5 C15_9 1_555 1_555
C38_5 C18_9 1_555 1_555
C39_5 C38_5 1_555 1_555
H19_5 C39_5 1_555 1_555
H20_5 C39_5 1_555 1_555
H21_5 C39_5 1_555 1_555
Mn3 O17 1_555 1_555
N9_3 C37_5 1_555 1_555
O18 Mn3 1_555 1_555
C37_5 C38_5 1_555 1_555
C16_9 H29_5 1_555 1_555
Cu4_2 N1_5 1_555 1_555
Cu5_2 N2_5 1_555 1_555
Cu6_3 N3_5 1_555 1_555
Mn1_5 O2_5 1_555 1_555
N1_5 C2_5 1_555 1_555
N2_5 C3_5 1_555 1_555
N3_5 C6_5 1_555 1_555
O1_5 Cu4_2 1_555 1_555
O2_5 C1_5 1_555 1_555
O3_5 Mn1_5 1_555 1_555
O4_5 Cu5_2 1_555 1_555
O5_5 Mn1_5 1_555 1_555
O6_5 Mn1_5 1_555 1_555
O7_5 Mn1_5 1_555 1_555
O8_5 Mn1_5 1_555 1_555
O9_5 Cu6_3 1_555 1_555
C1_5 O1_5 1_555 1_555
C2_5 O3_5 1_555 1_555
C3_5 O6_5 1_555 1_555
C4_5 O4_5 1_555 1_555
C5_5 O8_5 1_555 1_555
C6_5 O7_5 1_555 1_555
C7_5 N1_5 1_555 1_555
C8_5 C7_5 1_555 1_555
C9_5 C7_5 1_555 1_555
C10_5 C9_5 1_555 1_555
H1_5 C10_5 1_555 1_555
C11_5 N2_5 1_555 1_555
C12_5 C11_5 1_555 1_555
C13_5 C12_5 1_555 1_555
C14_5 N3_5 1_555 1_555
C15_10 C14_5 1_555 1_555
C16_10 C15_10 1_555 1_555
C17_5 C14_5 1_555 1_555
C18_10 C17_5 1_555 1_555
H2_10 C18_10 1_555 1_555
C19_5 C11_5 1_555 1_555
C20_5 C19_5 1_555 1_555
H3_5 C20_5 1_555 1_555
H4_5 C20_5 1_555 1_555
H5_5 C20_5 1_555 1_555
C21_5 C19_5 1_555 1_555
H6_5 C21_5 1_555 1_555
C22_5 C8_5 1_555 1_555
C23_5 C9_5 1_555 1_555
H7_5 C23_5 1_555 1_555
H8_5 C23_5 1_555 1_555
H9_5 C23_5 1_555 1_555
C24_5 C17_5 1_555 1_555
H10_5 C24_5 1_555 1_555
H11_5 C24_5 1_555 1_555
H12_5 C24_5 1_555 1_555
O10_5 Cu4_2 1_555 1_555
N7 C26_5 1_555 1_555
O21 C25_5 1_555 1_555
O12_5 C25_5 1_555 1_555
O13_5 C26_5 1_555 1_555
C25_5 C26_5 1_555 1_555
C27_5 C8_5 1_555 1_555
C28_5 C10_5 1_555 1_555
C29_5 C28_5 1_555 1_555
H13_5 C29_5 1_555 1_555
H14_5 C29_5 1_555 1_555
H15_5 C29_5 1_555 1_555
N8_2 C30_5 1_555 1_555
O22_2 C31_5 1_555 1_555
O15_5 C31_5 1_555 1_555
O16_5 C30_5 1_555 1_555
C30_5 C31_5 1_555 1_555
C32_5 C12_5 1_555 1_555
C33_5 C21_5 1_555 1_555
C34_5 C33_5 1_555 1_555
H16_5 C34_5 1_555 1_555
H17_5 C34_5 1_555 1_555
H18_5 C34_5 1_555 1_555
Mn3 O12_5 1_555 1_555
O5_5 C4_5 1_555 1_555
O9_5 C5_5 1_555 1_555
C1_5 C2_5 1_555 1_555
C3_5 C4_5 1_555 1_555
C5_5 C6_5 1_555 1_555
N7 C27_5 1_555 1_555
O13_5 Mn3 1_555 1_555
C27_5 C28_5 1_555 1_555
N8_2 C32_5 1_555 1_555
O15_5 Mn3 1_555 1_555
O16_5 Mn3 1_555 1_555
C32_5 C33_5 1_555 1_555
C13_5 H22_5 1_555 1_555
C13_5 H23_5 1_555 1_555
C13_5 H24_5 1_555 1_555
C22_5 H25_5 1_555 1_555
C22_5 H26_5 1_555 1_555
C22_5 H27_5 1_555 1_555
C16_10 H28_5 1_555 1_555
C16_10 H30_5 1_555 1_555
C16_11 C15_11 1_555 1_555
H2_11 C18_11 1_555 1_555
N9_4 C36_6 1_555 1_555
O17_2 C36_6 1_555 1_555
O18_2 C35_6 1_555 1_555
O25_4 C35_6 1_555 1_555
C35_6 C36_6 1_555 1_555
C37_6 C15_11 1_555 1_555
C38_6 C18_11 1_555 1_555
C39_6 C38_6 1_555 1_555
H19_6 C39_6 1_555 1_555
H20_6 C39_6 1_555 1_555
H21_6 C39_6 1_555 1_555
Mn3_2 O17_2 1_555 1_555
N9_4 C37_6 1_555 1_555
O18_2 Mn3_2 1_555 1_555
C37_6 C38_6 1_555 1_555
C16_11 H29_6 1_555 1_555
Cu4_3 N1_6 1_555 1_555
Cu5 N2_6 1_555 1_555
Cu6_4 N3_6 1_555 1_555
Mn1_6 O2_6 1_555 1_555
N1_6 C2_6 1_555 1_555
N2_6 C3_6 1_555 1_555
N3_6 C6_6 1_555 1_555
O1_6 Cu4_3 1_555 1_555
O2_6 C1_6 1_555 1_555
O3_6 Mn1_6 1_555 1_555
O4_6 Cu5 1_555 1_555
O5_6 Mn1_6 1_555 1_555
O6_6 Mn1_6 1_555 1_555
O7_6 Mn1_6 1_555 1_555
O8_6 Mn1_6 1_555 1_555
O9_6 Cu6_4 1_555 1_555
C1_6 O1_6 1_555 1_555
C2_6 O3_6 1_555 1_555
C3_6 O6_6 1_555 1_555
C4_6 O4_6 1_555 1_555
C5_6 O8_6 1_555 1_555
C6_6 O7_6 1_555 1_555
C7_6 N1_6 1_555 1_555
C8_6 C7_6 1_555 1_555
C9_6 C7_6 1_555 1_555
C10_6 C9_6 1_555 1_555
H1_6 C10_6 1_555 1_555
C11_6 N2_6 1_555 1_555
C12_6 C11_6 1_555 1_555
C13_6 C12_6 1_555 1_555
C14_6 N3_6 1_555 1_555
C15_12 C14_6 1_555 1_555
C16_12 C15_12 1_555 1_555
C17_6 C14_6 1_555 1_555
C18_12 C17_6 1_555 1_555
H2_12 C18_12 1_555 1_555
C19_6 C11_6 1_555 1_555
C20_6 C19_6 1_555 1_555
H3_6 C20_6 1_555 1_555
H4_6 C20_6 1_555 1_555
H5_6 C20_6 1_555 1_555
C21_6 C19_6 1_555 1_555
H6_6 C21_6 1_555 1_555
C22_6 C8_6 1_555 1_555
C23_6 C9_6 1_555 1_555
H7_6 C23_6 1_555 1_555
H8_6 C23_6 1_555 1_555
H9_6 C23_6 1_555 1_555
C24_6 C17_6 1_555 1_555
H10_6 C24_6 1_555 1_555
H11_6 C24_6 1_555 1_555
H12_6 C24_6 1_555 1_555
O10_6 Cu4_3 1_555 1_555
N7_2 C26_6 1_555 1_555
O21_2 C25_6 1_555 1_555
O12_6 C25_6 1_555 1_555
O13_6 C26_6 1_555 1_555
C25_6 C26_6 1_555 1_555
C27_6 C8_6 1_555 1_555
C28_6 C10_6 1_555 1_555
C29_6 C28_6 1_555 1_555
H13_6 C29_6 1_555 1_555
H14_6 C29_6 1_555 1_555
H15_6 C29_6 1_555 1_555
N8 C30_6 1_555 1_555
O22 C31_6 1_555 1_555
O15_6 C31_6 1_555 1_555
O16_6 C30_6 1_555 1_555
C30_6 C31_6 1_555 1_555
C32_6 C12_6 1_555 1_555
C33_6 C21_6 1_555 1_555
C34_6 C33_6 1_555 1_555
H16_6 C34_6 1_555 1_555
H17_6 C34_6 1_555 1_555
H18_6 C34_6 1_555 1_555
Mn3_2 O12_6 1_555 1_555
O5_6 C4_6 1_555 1_555
O9_6 C5_6 1_555 1_555
C1_6 C2_6 1_555 1_555
C3_6 C4_6 1_555 1_555
C5_6 C6_6 1_555 1_555
N7_2 C27_6 1_555 1_555
O13_6 Mn3_2 1_555 1_555
C27_6 C28_6 1_555 1_555
N8 C32_6 1_555 1_555
O15_6 Mn3_2 1_555 1_555
O16_6 Mn3_2 1_555 1_555
C32_6 C33_6 1_555 1_555
C13_6 H22_6 1_555 1_555
C13_6 H23_6 1_555 1_555
C13_6 H24_6 1_555 1_555
C22_6 H25_6 1_555 1_555
C22_6 H26_6 1_555 1_555
C22_6 H27_6 1_555 1_555
C16_12 H28_6 1_555 1_555
C16_12 H30_6 1_555 1_555
O20_6 Cu4_4 1_555 1_555
C16_13 C15_13 1_555 1_555
H2_13 C18_13 1_555 1_555
N9 C36_7 1_555 1_555
O17_3 C36_7 1_555 1_555
O18_3 C35_7 1_555 1_555
O25 C35_7 1_555 1_555
C35_7 C36_7 1_555 1_555
C37_7 C15_13 1_555 1_555
C38_7 C18_13 1_555 1_555
C39_7 C38_7 1_555 1_555
H19_7 C39_7 1_555 1_555
H20_7 C39_7 1_555 1_555
H21_7 C39_7 1_555 1_555
Mn3_3 O17_3 1_555 1_555
N9 C37_7 1_555 1_555
O18_3 Mn3_3 1_555 1_555
C37_7 C38_7 1_555 1_555
C16_13 H29_7 1_555 1_555
Cu4_7 N1_7 1_555 1_555
Cu5_3 N2_7 1_555 1_555
Cu6 N3_7 1_555 1_555
Mn1_7 O2_7 1_555 1_555
N1_7 C2_7 1_555 1_555
N2_7 C3_7 1_555 1_555
N3_7 C6_7 1_555 1_555
O1_7 Cu4_7 1_555 1_555
O2_7 C1_7 1_555 1_555
O3_7 Mn1_7 1_555 1_555
O4_7 Cu5_3 1_555 1_555
O5_7 Mn1_7 1_555 1_555
O6_7 Mn1_7 1_555 1_555
O7_7 Mn1_7 1_555 1_555
O8_7 Mn1_7 1_555 1_555
O9_7 Cu6 1_555 1_555
C1_7 O1_7 1_555 1_555
C2_7 O3_7 1_555 1_555
C3_7 O6_7 1_555 1_555
C4_7 O4_7 1_555 1_555
C5_7 O8_7 1_555 1_555
C6_7 O7_7 1_555 1_555
C7_7 N1_7 1_555 1_555
C8_7 C7_7 1_555 1_555
C9_7 C7_7 1_555 1_555
C10_7 C9_7 1_555 1_555
H1_7 C10_7 1_555 1_555
C11_7 N2_7 1_555 1_555
C12_7 C11_7 1_555 1_555
C13_7 C12_7 1_555 1_555
C14_7 N3_7 1_555 1_555
C15_14 C14_7 1_555 1_555
C16_14 C15_14 1_555 1_555
C17_7 C14_7 1_555 1_555
C18_14 C17_7 1_555 1_555
H2_14 C18_14 1_555 1_555
C19_7 C11_7 1_555 1_555
C20_7 C19_7 1_555 1_555
H3_7 C20_7 1_555 1_555
H4_7 C20_7 1_555 1_555
H5_7 C20_7 1_555 1_555
C21_7 C19_7 1_555 1_555
H6_7 C21_7 1_555 1_555
C22_7 C8_7 1_555 1_555
C23_7 C9_7 1_555 1_555
H7_7 C23_7 1_555 1_555
H8_7 C23_7 1_555 1_555
H9_7 C23_7 1_555 1_555
C24_7 C17_7 1_555 1_555
H10_7 C24_7 1_555 1_555
H11_7 C24_7 1_555 1_555
H12_7 C24_7 1_555 1_555
O10_7 Cu4_7 1_555 1_555
N7_4 C26_7 1_555 1_555
O21_4 C25_7 1_555 1_555
O12_7 C25_7 1_555 1_555
O13_7 C26_7 1_555 1_555
C25_7 C26_7 1_555 1_555
C27_7 C8_7 1_555 1_555
C28_7 C10_7 1_555 1_555
C29_7 C28_7 1_555 1_555
H13_7 C29_7 1_555 1_555
H14_7 C29_7 1_555 1_555
H15_7 C29_7 1_555 1_555
N8_3 C30_7 1_555 1_555
O22_3 C31_7 1_555 1_555
O15_7 C31_7 1_555 1_555
O16_7 C30_7 1_555 1_555
C30_7 C31_7 1_555 1_555
C32_7 C12_7 1_555 1_555
C33_7 C21_7 1_555 1_555
C34_7 C33_7 1_555 1_555
H16_7 C34_7 1_555 1_555
H17_7 C34_7 1_555 1_555
H18_7 C34_7 1_555 1_555
Mn3_3 O12_7 1_555 1_555
O5_7 C4_7 1_555 1_555
O9_7 C5_7 1_555 1_555
C1_7 C2_7 1_555 1_555
C3_7 C4_7 1_555 1_555
C5_7 C6_7 1_555 1_555
N7_4 C27_7 1_555 1_555
O13_7 Mn3_3 1_555 1_555
C27_7 C28_7 1_555 1_555
N8_3 C32_7 1_555 1_555
O15_7 Mn3_3 1_555 1_555
O16_7 Mn3_3 1_555 1_555
C32_7 C33_7 1_555 1_555
C13_7 H22_7 1_555 1_555
C13_7 H23_7 1_555 1_555
C13_7 H24_7 1_555 1_555
C22_7 H25_7 1_555 1_555
C22_7 H26_7 1_555 1_555
C22_7 H27_7 1_555 1_555
C16_14 H28_7 1_555 1_555
C16_14 H30_7 1_555 1_555
O20_7 Cu4_8 1_555 1_555
O20_8 Cu4_5 1_555 1_555
C16_15 C15_15 1_555 1_555
H2_15 C18_15 1_555 1_555
N9_2 C36_8 1_555 1_555
O17_4 C36_8 1_555 1_555
O18_4 C35_8 1_555 1_555
O25_2 C35_8 1_555 1_555
C35_8 C36_8 1_555 1_555
C37_8 C15_15 1_555 1_555
C38_8 C18_15 1_555 1_555
C39_8 C38_8 1_555 1_555
H19_8 C39_8 1_555 1_555
H20_8 C39_8 1_555 1_555
H21_8 C39_8 1_555 1_555
Mn3_4 O17_4 1_555 1_555
N9_2 C37_8 1_555 1_555
O18_4 Mn3_4 1_555 1_555
C37_8 C38_8 1_555 1_555
C16_15 H29_8 1_555 1_555
Cu4_6 N1_8 1_555 1_555
Cu5_4 N2_8 1_555 1_555
Cu6_2 N3_8 1_555 1_555
Mn1_8 O2_8 1_555 1_555
N1_8 C2_8 1_555 1_555
N2_8 C3_8 1_555 1_555
N3_8 C6_8 1_555 1_555
O1_8 Cu4_6 1_555 1_555
O2_8 C1_8 1_555 1_555
O3_8 Mn1_8 1_555 1_555
O4_8 Cu5_4 1_555 1_555
O5_8 Mn1_8 1_555 1_555
O6_8 Mn1_8 1_555 1_555
O7_8 Mn1_8 1_555 1_555
O8_8 Mn1_8 1_555 1_555
O9_8 Cu6_2 1_555 1_555
C1_8 O1_8 1_555 1_555
C2_8 O3_8 1_555 1_555
C3_8 O6_8 1_555 1_555
C4_8 O4_8 1_555 1_555
C5_8 O8_8 1_555 1_555
C6_8 O7_8 1_555 1_555
C7_8 N1_8 1_555 1_555
C8_8 C7_8 1_555 1_555
C9_8 C7_8 1_555 1_555
C10_8 C9_8 1_555 1_555
H1_8 C10_8 1_555 1_555
C11_8 N2_8 1_555 1_555
C12_8 C11_8 1_555 1_555
C13_8 C12_8 1_555 1_555
C14_8 N3_8 1_555 1_555
C15_16 C14_8 1_555 1_555
C16_16 C15_16 1_555 1_555
C17_8 C14_8 1_555 1_555
C18_16 C17_8 1_555 1_555
H2_16 C18_16 1_555 1_555
C19_8 C11_8 1_555 1_555
C20_8 C19_8 1_555 1_555
H3_8 C20_8 1_555 1_555
H4_8 C20_8 1_555 1_555
H5_8 C20_8 1_555 1_555
C21_8 C19_8 1_555 1_555
H6_8 C21_8 1_555 1_555
C22_8 C8_8 1_555 1_555
C23_8 C9_8 1_555 1_555
H7_8 C23_8 1_555 1_555
H8_8 C23_8 1_555 1_555
H9_8 C23_8 1_555 1_555
C24_8 C17_8 1_555 1_555
H10_8 C24_8 1_555 1_555
H11_8 C24_8 1_555 1_555
H12_8 C24_8 1_555 1_555
O10_8 Cu4_6 1_555 1_555
N7_3 C26_8 1_555 1_555
O21_3 C25_8 1_555 1_555
O12_8 C25_8 1_555 1_555
O13_8 C26_8 1_555 1_555
C25_8 C26_8 1_555 1_555
C27_8 C8_8 1_555 1_555
C28_8 C10_8 1_555 1_555
C29_8 C28_8 1_555 1_555
H13_8 C29_8 1_555 1_555
H14_8 C29_8 1_555 1_555
H15_8 C29_8 1_555 1_555
N8_4 C30_8 1_555 1_555
O22_4 C31_8 1_555 1_555
O15_8 C31_8 1_555 1_555
O16_8 C30_8 1_555 1_555
C30_8 C31_8 1_555 1_555
C32_8 C12_8 1_555 1_555
C33_8 C21_8 1_555 1_555
C34_8 C33_8 1_555 1_555
H16_8 C34_8 1_555 1_555
H17_8 C34_8 1_555 1_555
H18_8 C34_8 1_555 1_555
Mn3_4 O12_8 1_555 1_555
O5_8 C4_8 1_555 1_555
O9_8 C5_8 1_555 1_555
C1_8 C2_8 1_555 1_555
C3_8 C4_8 1_555 1_555
C5_8 C6_8 1_555 1_555
N7_3 C27_8 1_555 1_555
O13_8 Mn3_4 1_555 1_555
C27_8 C28_8 1_555 1_555
N8_4 C32_8 1_555 1_555
O15_8 Mn3_4 1_555 1_555
O16_8 Mn3_4 1_555 1_555
C32_8 C33_8 1_555 1_555
C13_8 H22_8 1_555 1_555
C13_8 H23_8 1_555 1_555
C13_8 H24_8 1_555 1_555
C22_8 H25_8 1_555 1_555
C22_8 H26_8 1_555 1_555
C22_8 H27_8 1_555 1_555
C16_16 H28_8 1_555 1_555
C16_16 H30_8 1_555 1_555
C16_3 H29_9 1_555 1_555
C13_2 H22_9 1_555 1_555
C13_2 H23_9 1_555 1_555
C13_2 H24_9 1_555 1_555
C22_2 H25_9 1_555 1_555
C22_2 H26_9 1_555 1_555
C22_2 H27_9 1_555 1_555
C16_4 H28_9 1_555 1_555
C16_4 H30_9 1_555 1_555
C16 H29_10 1_555 1_555
C13 H22_10 1_555 1_555
C13 H23_10 1_555 1_555
C13 H24_10 1_555 1_555
C22 H25_10 1_555 1_555
C22 H26_10 1_555 1_555
C22 H27_10 1_555 1_555
C16_2 H28_10 1_555 1_555
C16_2 H30_10 1_555 1_555
C16_7 H29_11 1_555 1_555
C13_4 H22_11 1_555 1_555
C13_4 H23_11 1_555 1_555
C13_4 H24_11 1_555 1_555
C22_4 H25_11 1_555 1_555
C22_4 H26_11 1_555 1_555
C22_4 H27_11 1_555 1_555
C16_8 H28_11 1_555 1_555
C16_8 H30_11 1_555 1_555
C16_5 H29_12 1_555 1_555
C13_3 H22_12 1_555 1_555
C13_3 H23_12 1_555 1_555
C13_3 H24_12 1_555 1_555
C22_3 H25_12 1_555 1_555
C22_3 H26_12 1_555 1_555
C22_3 H27_12 1_555 1_555
C16_6 H28_12 1_555 1_555
C16_6 H30_12 1_555 1_555
C13_6 H22_13 1_555 1_555
C13_6 H23_13 1_555 1_555
C13_6 H24_13 1_555 1_555
C22_6 H25_13 1_555 1_555
C22_6 H26_13 1_555 1_555
C22_6 H27_13 1_555 1_555
C16_11 H28_13 1_555 1_555
C16_11 H30_13 1_555 1_555
C16_12 H29_13 1_555 1_555
C13_5 H22_14 1_555 1_555
C13_5 H23_14 1_555 1_555
C13_5 H24_14 1_555 1_555
C22_5 H25_14 1_555 1_555
C22_5 H26_14 1_555 1_555
C22_5 H27_14 1_555 1_555
C16_9 H28_14 1_555 1_555
C16_9 H30_14 1_555 1_555
C16_10 H29_14 1_555 1_555
C13_8 H22_15 1_555 1_555
C13_8 H23_15 1_555 1_555
C13_8 H24_15 1_555 1_555
C22_8 H25_15 1_555 1_555
C22_8 H26_15 1_555 1_555
C22_8 H27_15 1_555 1_555
C16_15 H28_15 1_555 1_555
C16_15 H30_15 1_555 1_555
C16_16 H29_15 1_555 1_555
C13_7 H22_16 1_555 1_555
C13_7 H23_16 1_555 1_555
C13_7 H24_16 1_555 1_555
C22_7 H25_16 1_555 1_555
C22_7 H26_16 1_555 1_555
C22_7 H27_16 1_555 1_555
C16_13 H28_16 1_555 1_555
C16_13 H30_16 1_555 1_555
C16_14 H29_16 1_555 1_555

#END
