
###############################################################################
#
# This file contains modified crystal structure data generated from the
# MOF subset of the Cambridge Structural Database (CSD) v543 
# hosted by the Cambridge Crystallographic Data Centre (CCDC).
#
# This work is licensed under the Creative Commons
# Attribution-NonCommercial-ShareAlike 4.0 International License.
# To view a copy of this license, visit
# http://creativecommons.org/licenses/by-nc-sa/4.0/
# or send a letter to
# Creative Commons, PO Box 1866, Mountain View, CA 94042, USA.
#
# CIF created using the CSD Python API on 29 September 2022
# The structure has been converted into the P1 space group
# The structure has a 3D framework
# The original CSD entry DUZTIE is in the orthorhombic crystal system
# The framework has been calculated to contain at least 10.0% void space
# The void calculation uses a probe of radius 1.32A, grid spacing 0.4
#
###############################################################################

data_DUZTIE
_chemical_formula_moiety         '(C168 H152 N70 O48 Zn8)n'
_symmetry_cell_setting           triclinic
_symmetry_space_group_name_H-M   'P 1'
_symmetry_Int_Tables_number      1
_space_group_name_Hall           'P 1'
loop_
_symmetry_equiv_pos_site_id
_symmetry_equiv_pos_as_xyz
1 x,y,z
_cell_length_a                   21.6715(8)
_cell_length_b                   11.1102(4)
_cell_length_c                   23.5231(9)
_cell_angle_alpha                90
_cell_angle_beta                 90
_cell_angle_gamma                90
_cell_volume                     5663.77
loop_
_atom_site_label
_atom_site_type_symbol
_atom_site_fract_x
_atom_site_fract_y
_atom_site_fract_z
O7 O 0.3922(3) 0.0670(5) 0.8956(3)
N7 N 0.8108(3) 0.5293(6) 0.0120(3)
C21 C 0.7582(4) 0.4690(8) 0.0075(3)
H19 H 0.731483 0.451852 0.037319
Zn2 Zn 0.86432(4) 0.60828(9) 0.07380(4)
O8 O 0.4191(3) 0.8761(6) 0.0089(3)
Zn1 Zn 0.36432(4) 0.89172(9) 0.92620(4)
N1 N 0.4425(3) 0.8228(6) 0.8911(3)
N2 N 0.4988(3) 0.6611(6) 0.8848(3)
H1 H 0.510638 0.587271 0.884997
N3 N 0.5328(3) 0.7589(6) 0.8721(3)
N4 N 0.8011(3) 0.4218(5) 0.6386(3)
N5 N 0.7600(3) 0.5617(6) 0.6949(3)
N6 N 0.7245(3) 0.4631(6) 0.6932(2)
N8 N 0.7981(3) 0.4748(6) 0.9212(3)
N9 N 0.7497(3) 0.4374(6) 0.9543(3)
O1 O 0.3450(2) 0.7060(5) 0.9317(2)
O2 O 0.3858(3) 0.5288(6) 0.9127(3)
O3 O 0.8922(3) 0.5670(5) 0.6044(3)
O4 O 0.8676(4) 0.7028(7) 0.6707(4)
O5 O 0.9191(3) 0.6239(6) 0.9911(3)
O6 O 0.9127(3) 0.5932(6) 0.8997(3)
C1 C 0.6264(3) 0.6383(8) 0.8494(4)
C2 C 0.6326(3) 0.6055(8) 0.7925(3)
C3 C 0.6594(3) 0.4962(7) 0.7794(3)
C4 C 0.6806(3) 0.4213(7) 0.8230(3)
C5 C 0.6739(3) 0.4535(8) 0.8794(3)
C6 C 0.6457(3) 0.5617(9) 0.8929(3)
C7 C 0.6009(4) 0.7600(8) 0.8637(4)
H2 H 0.620530 0.788991 0.898177
H3 H 0.610976 0.815586 0.833330
C8 C 0.6101(5) 0.6859(9) 0.7456(4)
H4 H 0.640227 0.687852 0.715657
H5 H 0.604002 0.765738 0.760091
H6 H 0.571834 0.655363 0.731014
C9 C 0.6621(3) 0.4539(8) 0.7193(3)
H7 H 0.648766 0.370626 0.717868
H8 H 0.633355 0.500948 0.696832
C10 C 0.7118(4) 0.3027(7) 0.8093(4)
H9 H 0.692277 0.239202 0.830301
H10 H 0.754586 0.307126 0.819485
H11 H 0.708167 0.286749 0.769286
C11 C 0.6977(4) 0.3760(9) 0.9263(3)
H12 H 0.665103 0.361041 0.953743
H13 H 0.711199 0.299214 0.911188
C12 C 0.6354(5) 0.6015(10) 0.9542(4)
H14 H 0.637322 0.532716 0.978774
H15 H 0.595665 0.638903 0.957484
H16 H 0.666891 0.658053 0.964812
C13 C 0.3881(4) 0.6387(8) 0.9151(3)
C14 C 0.4449(4) 0.7015(7) 0.8966(3)
C15 C 0.4975(4) 0.8529(8) 0.8760(4)
H17 H 0.510266 0.931450 0.868950
C16 C 0.8592(4) 0.6083(9) 0.6444(5)
C17 C 0.8057(3) 0.5312(7) 0.6615(3)
C18 C 0.7493(4) 0.3825(7) 0.6589(3)
H18 H 0.732045 0.307997 0.650429
C19 C 0.8921(4) 0.5870(7) 0.9476(4)
C20 C 0.8332(4) 0.5312(7) 0.9585(3)
Zn3 Zn 0.86432(4) 0.39172(9) 0.57380(4)
N10 N 0.3011(3) 0.9218(5) 0.8614(3)
N11 N 0.3108(3) 0.9707(6) 0.9880(3)
N4_2 N 0.3011(3) 0.0782(5) 0.3614(3)
N6_2 N 0.2245(3) 0.0369(6) 0.3068(2)
N8_2 N 0.2981(3) 0.0252(6) 0.0788(3)
N9_2 N 0.2497(3) 0.0626(6) 0.0457(3)
C3_2 C 0.1594(3) 0.0038(7) 0.2206(3)
C4_2 C 0.1806(3) 0.0787(7) 0.1770(3)
C5_2 C 0.1739(3) 0.0465(8) 0.1206(3)
C9_2 C 0.1621(3) 0.0461(8) 0.2807(3)
H7_2 H 0.148766 0.129374 0.282132
C10_2 C 0.2118(4) 0.1973(7) 0.1907(4)
H9_2 H 0.192277 0.260798 0.169699
H10_2 H 0.254586 0.192874 0.180515
H11_2 H 0.208167 0.213251 0.230714
C11_2 C 0.1977(4) 0.1240(9) 0.0737(3)
H12_2 H 0.165103 0.138959 0.046257
H13_2 H 0.211199 0.200786 0.088812
C18_2 C 0.2493(4) 0.1175(7) 0.3411(3)
H18_2 H 0.232045 0.192003 0.349571
Zn3_2 Zn 0.36432(4) 0.10828(9) 0.42620(4)
H1_2 H 0.010638 0.912729 0.115003
N3_2 N 0.0328(3) 0.7411(6) 0.1279(3)
N5_2 N 0.2600(3) 0.9383(6) 0.3051(3)
O3_2 O 0.3922(3) 0.9330(5) 0.3956(3)
O4_2 O 0.3676(4) 0.7972(7) 0.3293(4)
O6_2 O 0.4127(3) 0.9068(6) 0.1003(3)
C1_2 C 0.1264(3) 0.8617(8) 0.1506(4)
C2_2 C 0.1326(3) 0.8945(8) 0.2075(3)
C6_2 C 0.1457(3) 0.9383(9) 0.1071(3)
C7_2 C 0.1009(4) 0.7400(8) 0.1363(4)
H2_2 H 0.120530 0.711009 0.101823
H3_2 H 0.110976 0.684414 0.166670
C8_2 C 0.1101(5) 0.8141(9) 0.2544(4)
H4_2 H 0.140227 0.812148 0.284343
H5_2 H 0.104002 0.734262 0.239909
H6_2 H 0.071834 0.844637 0.268986
H8_2 H 0.133355 0.999052 0.303168
C12_2 C 0.1354(5) 0.8985(10) 0.0458(4)
H14_2 H 0.137322 0.967284 0.021226
H15_2 H 0.095665 0.861097 0.042516
H16_2 H 0.166891 0.841947 0.035188
H17_2 H 0.010266 0.568550 0.131050
C16_2 C 0.3592(4) 0.8917(9) 0.3556(5)
C17_2 C 0.3057(3) 0.9688(7) 0.3385(3)
C19_2 C 0.3921(4) 0.9130(7) 0.0524(4)
C20_2 C 0.3332(4) 0.9688(7) 0.0415(3)
N1_2 N 0.9425(3) 0.6772(6) 0.1089(3)
N2_2 N 0.9988(3) 0.8389(6) 0.1152(3)
O1_2 O 0.8450(2) 0.7940(5) 0.0683(2)
O2_2 O 0.8858(3) 0.9712(6) 0.0873(3)
C13_2 C 0.8881(4) 0.8613(8) 0.0849(3)
C14_2 C 0.9449(4) 0.7985(7) 0.1034(3)
C15_2 C 0.9975(4) 0.6471(8) 0.1240(4)
N10_2 N 0.8011(3) 0.5782(5) 0.1386(3)
O7_2 O 0.8922(3) 0.4330(5) 0.1044(3)
H1_3 H 0.010638 0.087271 0.615003
N3_3 N 0.0328(3) 0.2589(6) 0.6279(3)
N5_3 N 0.2600(3) 0.0617(6) 0.8051(3)
N7_2 N 0.3108(3) 0.0293(6) 0.4880(3)
O4_3 O 0.3676(4) 0.2028(7) 0.8293(4)
O5_2 O 0.4191(3) 0.1239(6) 0.5089(3)
O6_3 O 0.4127(3) 0.0932(6) 0.6003(3)
C1_3 C 0.1264(3) 0.1383(8) 0.6506(4)
C2_3 C 0.1326(3) 0.1055(8) 0.7075(3)
C6_3 C 0.1457(3) 0.0617(9) 0.6071(3)
C7_3 C 0.1009(4) 0.2600(8) 0.6363(4)
H2_3 H 0.120530 0.288991 0.601823
H3_3 H 0.110976 0.315586 0.666670
C8_3 C 0.1101(5) 0.1859(9) 0.7544(4)
H4_3 H 0.140227 0.187852 0.784343
H5_3 H 0.104002 0.265738 0.739909
H6_3 H 0.071834 0.155363 0.768986
H8_3 H 0.133355 0.000948 0.803168
C12_3 C 0.1354(5) 0.1015(10) 0.5458(4)
H14_3 H 0.137322 0.032716 0.521226
H15_3 H 0.095665 0.138903 0.542516
H16_3 H 0.166891 0.158053 0.535188
H17_3 H 0.010266 0.431450 0.631050
C16_3 C 0.3592(4) 0.1083(9) 0.8556(5)
C17_3 C 0.3057(3) 0.0312(7) 0.8385(3)
C19_3 C 0.3921(4) 0.0870(7) 0.5524(4)
C20_3 C 0.3332(4) 0.0312(7) 0.5415(3)
N6_3 N 0.2245(3) 0.9631(6) 0.8068(2)
N8_3 N 0.2981(3) 0.9748(6) 0.5788(3)
N9_3 N 0.2497(3) 0.9374(6) 0.5457(3)
C3_3 C 0.1594(3) 0.9962(7) 0.7206(3)
C4_3 C 0.1806(3) 0.9213(7) 0.6770(3)
C5_3 C 0.1739(3) 0.9535(8) 0.6206(3)
C9_3 C 0.1621(3) 0.9539(8) 0.7807(3)
H7_3 H 0.148766 0.870626 0.782132
C10_3 C 0.2118(4) 0.8027(7) 0.6907(4)
H9_3 H 0.192277 0.739202 0.669699
H10_3 H 0.254586 0.807126 0.680515
H11_3 H 0.208167 0.786749 0.730714
C11_3 C 0.1977(4) 0.8760(9) 0.5737(3)
H12_3 H 0.165103 0.861041 0.546257
H13_3 H 0.211199 0.799214 0.588812
C18_3 C 0.2493(4) 0.8825(7) 0.8411(3)
H18_3 H 0.232045 0.807997 0.849571
C21_2 C 0.2582(4) 0.9690(8) 0.4925(3)
H19_2 H 0.231483 0.951852 0.462681
N1_3 N 0.9425(3) 0.3228(6) 0.6089(3)
N2_3 N 0.9988(3) 0.1611(6) 0.6152(3)
O1_3 O 0.8450(2) 0.2060(5) 0.5683(2)
O2_3 O 0.8858(3) 0.0288(6) 0.5873(3)
C13_3 C 0.8881(4) 0.1387(8) 0.5849(3)
C14_3 C 0.9449(4) 0.2015(7) 0.6034(3)
C15_3 C 0.9975(4) 0.3529(8) 0.6240(4)
N11_2 N 0.8108(3) 0.4707(6) 0.5120(3)
O8_2 O 0.9191(3) 0.3761(6) 0.4911(3)
N1_4 N 0.4425(3) 0.1772(6) 0.3911(3)
N2_4 N 0.4988(3) 0.3389(6) 0.3848(3)
H1_4 H 0.510638 0.412729 0.384997
N3_4 N 0.5328(3) 0.2411(6) 0.3721(3)
N5_4 N 0.7600(3) 0.4383(6) 0.1949(3)
N6_4 N 0.7245(3) 0.5369(6) 0.1932(2)
N8_4 N 0.7981(3) 0.5252(6) 0.4212(3)
N9_4 N 0.7497(3) 0.5626(6) 0.4543(3)
O1_4 O 0.3450(2) 0.2940(5) 0.4317(2)
O2_4 O 0.3858(3) 0.4712(6) 0.4127(3)
O4_4 O 0.8676(4) 0.2972(7) 0.1707(4)
O6_4 O 0.9127(3) 0.4068(6) 0.3997(3)
C1_4 C 0.6264(3) 0.3617(8) 0.3494(4)
C2_4 C 0.6326(3) 0.3945(8) 0.2925(3)
C3_4 C 0.6594(3) 0.5038(7) 0.2794(3)
C4_4 C 0.6806(3) 0.5787(7) 0.3230(3)
C5_4 C 0.6739(3) 0.5465(8) 0.3794(3)
C6_4 C 0.6457(3) 0.4383(9) 0.3929(3)
C7_4 C 0.6009(4) 0.2400(8) 0.3637(4)
H2_4 H 0.620530 0.211009 0.398177
H3_4 H 0.610976 0.184414 0.333330
C8_4 C 0.6101(5) 0.3141(9) 0.2456(4)
H4_4 H 0.640227 0.312148 0.215657
H5_4 H 0.604002 0.234262 0.260091
H6_4 H 0.571834 0.344637 0.231014
C9_4 C 0.6621(3) 0.5461(8) 0.2193(3)
H7_4 H 0.648766 0.629374 0.217868
H8_4 H 0.633355 0.499052 0.196832
C10_4 C 0.7118(4) 0.6973(7) 0.3093(4)
H9_4 H 0.692277 0.760798 0.330301
H10_4 H 0.754586 0.692874 0.319485
H11_4 H 0.708167 0.713251 0.269286
C11_4 C 0.6977(4) 0.6240(9) 0.4263(3)
H12_4 H 0.665103 0.638959 0.453743
H13_4 H 0.711199 0.700786 0.411188
C12_4 C 0.6354(5) 0.3985(10) 0.4542(4)
H14_4 H 0.637322 0.467284 0.478774
H15_4 H 0.595665 0.361097 0.457484
H16_4 H 0.666891 0.341947 0.464812
C13_4 C 0.3881(4) 0.3613(8) 0.4151(3)
C14_4 C 0.4449(4) 0.2985(7) 0.3966(3)
C15_4 C 0.4975(4) 0.1471(8) 0.3760(4)
H17_4 H 0.510266 0.068550 0.368950
C16_4 C 0.8592(4) 0.3917(9) 0.1444(5)
C17_4 C 0.8057(3) 0.4688(7) 0.1615(3)
C18_4 C 0.7493(4) 0.6175(7) 0.1589(3)
H18_4 H 0.732045 0.692003 0.150429
C19_4 C 0.8921(4) 0.4130(7) 0.4476(4)
C20_4 C 0.8332(4) 0.4688(7) 0.4585(3)
C21_3 C 0.7582(4) 0.5310(8) 0.5075(3)
H19_3 H 0.731483 0.548148 0.537319
Zn1_2 Zn 0.13568(4) 0.60828(9) 0.42620(4)
N1_5 N 0.0575(3) 0.6772(6) 0.3911(3)
N2_5 N 0.0012(3) 0.8389(6) 0.3848(3)
O1_5 O 0.1550(2) 0.7940(5) 0.4317(2)
O2_5 O 0.1142(3) 0.9712(6) 0.4127(3)
C13_5 C 0.1119(4) 0.8613(8) 0.4151(3)
C14_5 C 0.0551(4) 0.7985(7) 0.3966(3)
C15_5 C 0.0025(4) 0.6471(8) 0.3760(4)
N10_3 N 0.1989(3) 0.5782(5) 0.3614(3)
N11_3 N 0.1892(3) 0.5293(6) 0.4880(3)
O7_3 O 0.1078(3) 0.4330(5) 0.3956(3)
O8_3 O 0.0809(3) 0.6239(6) 0.5089(3)
N4_3 N 0.6989(3) 0.0782(5) 0.1386(3)
N6_5 N 0.7755(3) 0.0369(6) 0.1932(2)
N8_5 N 0.7019(3) 0.0252(6) 0.4212(3)
N9_5 N 0.7503(3) 0.0626(6) 0.4543(3)
C3_5 C 0.8406(3) 0.0038(7) 0.2794(3)
C4_5 C 0.8194(3) 0.0787(7) 0.3230(3)
C5_5 C 0.8261(3) 0.0465(8) 0.3794(3)
C9_5 C 0.8379(3) 0.0461(8) 0.2193(3)
H7_5 H 0.851234 0.129374 0.217868
C10_5 C 0.7882(4) 0.1973(7) 0.3093(4)
H9_5 H 0.807723 0.260798 0.330301
H10_5 H 0.745414 0.192874 0.319485
H11_5 H 0.791833 0.213251 0.269286
C11_5 C 0.8023(4) 0.1240(9) 0.4263(3)
H12_5 H 0.834897 0.138959 0.453743
H13_5 H 0.788801 0.200786 0.411188
C18_5 C 0.7507(4) 0.1175(7) 0.1589(3)
H18_5 H 0.767955 0.192003 0.150429
C21_4 C 0.7418(4) 0.0310(8) 0.5075(3)
H19_4 H 0.768517 0.048148 0.537319
Zn3_3 Zn 0.63568(4) 0.10828(9) 0.07380(4)
H1_5 H 0.989362 0.912729 0.384997
N3_5 N 0.9672(3) 0.7411(6) 0.3721(3)
N5_5 N 0.7400(3) 0.9383(6) 0.1949(3)
N7_3 N 0.6892(3) 0.9707(6) 0.5120(3)
O3_3 O 0.6078(3) 0.9330(5) 0.1044(3)
O4_5 O 0.6324(4) 0.7972(7) 0.1707(4)
O5_3 O 0.5809(3) 0.8761(6) 0.4911(3)
O6_5 O 0.5873(3) 0.9068(6) 0.3997(3)
C1_5 C 0.8736(3) 0.8617(8) 0.3494(4)
C2_5 C 0.8674(3) 0.8945(8) 0.2925(3)
C6_5 C 0.8543(3) 0.9383(9) 0.3929(3)
C7_5 C 0.8991(4) 0.7400(8) 0.3637(4)
H2_5 H 0.879470 0.711009 0.398177
H3_5 H 0.889024 0.684414 0.333330
C8_5 C 0.8899(5) 0.8141(9) 0.2456(4)
H4_5 H 0.859773 0.812148 0.215657
H5_5 H 0.895998 0.734262 0.260091
H6_5 H 0.928166 0.844637 0.231014
H8_5 H 0.866645 0.999052 0.196832
C12_5 C 0.8646(5) 0.8985(10) 0.4542(4)
H14_5 H 0.862678 0.967284 0.478774
H15_5 H 0.904335 0.861097 0.457484
H16_5 H 0.833109 0.841947 0.464812
H17_5 H 0.989734 0.568550 0.368950
C16_5 C 0.6408(4) 0.8917(9) 0.1444(5)
C17_5 C 0.6943(3) 0.9688(7) 0.1615(3)
C19_5 C 0.6079(4) 0.9130(7) 0.4476(4)
C20_5 C 0.6668(4) 0.9688(7) 0.4585(3)
Zn2_2 Zn 0.63568(4) 0.89172(9) 0.57380(4)
O7_4 O 0.6078(3) 0.0670(5) 0.6044(3)
N1_6 N 0.5575(3) 0.8228(6) 0.6089(3)
N2_6 N 0.5012(3) 0.6611(6) 0.6152(3)
H1_6 H 0.489362 0.587271 0.615003
N3_6 N 0.4672(3) 0.7589(6) 0.6279(3)
N4_4 N 0.1989(3) 0.4218(5) 0.8614(3)
N5_6 N 0.2400(3) 0.5617(6) 0.8051(3)
N6_6 N 0.2755(3) 0.4631(6) 0.8068(2)
N8_6 N 0.2019(3) 0.4748(6) 0.5788(3)
N9_6 N 0.2503(3) 0.4374(6) 0.5457(3)
O1_6 O 0.6550(2) 0.7060(5) 0.5683(2)
O2_6 O 0.6142(3) 0.5288(6) 0.5873(3)
O3_4 O 0.1078(3) 0.5670(5) 0.8956(3)
O4_6 O 0.1324(4) 0.7028(7) 0.8293(4)
O6_6 O 0.0873(3) 0.5932(6) 0.6003(3)
C1_6 C 0.3736(3) 0.6383(8) 0.6506(4)
C2_6 C 0.3674(3) 0.6055(8) 0.7075(3)
C3_6 C 0.3406(3) 0.4962(7) 0.7206(3)
C4_6 C 0.3194(3) 0.4213(7) 0.6770(3)
C5_6 C 0.3261(3) 0.4535(8) 0.6206(3)
C6_6 C 0.3543(3) 0.5617(9) 0.6071(3)
C7_6 C 0.3991(4) 0.7600(8) 0.6363(4)
H2_6 H 0.379470 0.788991 0.601823
H3_6 H 0.389024 0.815586 0.666670
C8_6 C 0.3899(5) 0.6859(9) 0.7544(4)
H4_6 H 0.359773 0.687852 0.784343
H5_6 H 0.395998 0.765738 0.739909
H6_6 H 0.428166 0.655363 0.768986
C9_6 C 0.3379(3) 0.4539(8) 0.7807(3)
H7_6 H 0.351234 0.370626 0.782132
H8_6 H 0.366645 0.500948 0.803168
C10_6 C 0.2882(4) 0.3027(7) 0.6907(4)
H9_6 H 0.307723 0.239202 0.669699
H10_6 H 0.245414 0.307126 0.680515
H11_6 H 0.291833 0.286749 0.730714
C11_6 C 0.3023(4) 0.3760(9) 0.5737(3)
H12_6 H 0.334897 0.361041 0.546257
H13_6 H 0.288801 0.299214 0.588812
C12_6 C 0.3646(5) 0.6015(10) 0.5458(4)
H14_6 H 0.362678 0.532716 0.521226
H15_6 H 0.404335 0.638903 0.542516
H16_6 H 0.333109 0.658053 0.535188
C13_6 C 0.6119(4) 0.6387(8) 0.5849(3)
C14_6 C 0.5551(4) 0.7015(7) 0.6034(3)
C15_6 C 0.5025(4) 0.8529(8) 0.6240(4)
H17_6 H 0.489734 0.931450 0.631050
C16_6 C 0.1408(4) 0.6083(9) 0.8556(5)
C17_6 C 0.1943(3) 0.5312(7) 0.8385(3)
C18_6 C 0.2507(4) 0.3825(7) 0.8411(3)
H18_6 H 0.267955 0.307997 0.849571
C19_6 C 0.1079(4) 0.5870(7) 0.5524(4)
C20_6 C 0.1668(4) 0.5312(7) 0.5415(3)
C21_5 C 0.2418(4) 0.4690(8) 0.4925(3)
H19_5 H 0.268517 0.451852 0.462681
Zn3_4 Zn 0.13568(4) 0.39172(9) 0.92620(4)
N10_4 N 0.6989(3) 0.9218(5) 0.6386(3)
N1_7 N 0.5575(3) 0.1772(6) 0.1089(3)
N2_7 N 0.5012(3) 0.3389(6) 0.1152(3)
H1_7 H 0.489362 0.412729 0.115003
N3_7 N 0.4672(3) 0.2411(6) 0.1279(3)
N5_7 N 0.2400(3) 0.4383(6) 0.3051(3)
N6_7 N 0.2755(3) 0.5369(6) 0.3068(2)
N8_7 N 0.2019(3) 0.5252(6) 0.0788(3)
N9_7 N 0.2503(3) 0.5626(6) 0.0457(3)
O1_7 O 0.6550(2) 0.2940(5) 0.0683(2)
O2_7 O 0.6142(3) 0.4712(6) 0.0873(3)
O4_7 O 0.1324(4) 0.2972(7) 0.3293(4)
O5_4 O 0.0809(3) 0.3761(6) 0.0089(3)
O6_7 O 0.0873(3) 0.4068(6) 0.1003(3)
C1_7 C 0.3736(3) 0.3617(8) 0.1506(4)
C2_7 C 0.3674(3) 0.3945(8) 0.2075(3)
C3_7 C 0.3406(3) 0.5038(7) 0.2206(3)
C4_7 C 0.3194(3) 0.5787(7) 0.1770(3)
C5_7 C 0.3261(3) 0.5465(8) 0.1206(3)
C6_7 C 0.3543(3) 0.4383(9) 0.1071(3)
C7_7 C 0.3991(4) 0.2400(8) 0.1363(4)
H2_7 H 0.379470 0.211009 0.101823
H3_7 H 0.389024 0.184414 0.166670
C8_7 C 0.3899(5) 0.3141(9) 0.2544(4)
H4_7 H 0.359773 0.312148 0.284343
H5_7 H 0.395998 0.234262 0.239909
H6_7 H 0.428166 0.344637 0.268986
C9_7 C 0.3379(3) 0.5461(8) 0.2807(3)
H7_7 H 0.351234 0.629374 0.282132
H8_7 H 0.366645 0.499052 0.303168
C10_7 C 0.2882(4) 0.6973(7) 0.1907(4)
H9_7 H 0.307723 0.760798 0.169699
H10_7 H 0.245414 0.692874 0.180515
H11_7 H 0.291833 0.713251 0.230714
C11_7 C 0.3023(4) 0.6240(9) 0.0737(3)
H12_7 H 0.334897 0.638959 0.046257
H13_7 H 0.288801 0.700786 0.088812
C12_7 C 0.3646(5) 0.3985(10) 0.0458(4)
H14_7 H 0.362678 0.467284 0.021226
H15_7 H 0.404335 0.361097 0.042516
H16_7 H 0.333109 0.341947 0.035188
C13_7 C 0.6119(4) 0.3613(8) 0.0849(3)
C14_7 C 0.5551(4) 0.2985(7) 0.1034(3)
C15_7 C 0.5025(4) 0.1471(8) 0.1240(4)
H17_7 H 0.489734 0.068550 0.131050
C16_7 C 0.1408(4) 0.3917(9) 0.3556(5)
C17_7 C 0.1943(3) 0.4688(7) 0.3385(3)
C18_7 C 0.2507(4) 0.6175(7) 0.3411(3)
H18_7 H 0.267955 0.692003 0.349571
C19_7 C 0.1079(4) 0.4130(7) 0.0524(4)
C20_7 C 0.1668(4) 0.4688(7) 0.0415(3)
N11_4 N 0.6892(3) 0.0293(6) 0.0120(3)
N7_4 N 0.1892(3) 0.4707(6) 0.9880(3)
C21_6 C 0.2418(4) 0.5310(8) 0.9925(3)
H19_6 H 0.268517 0.548148 0.962681
O8_4 O 0.5809(3) 0.1239(6) 0.9911(3)
N1_8 N 0.0575(3) 0.3228(6) 0.8911(3)
N2_8 N 0.0012(3) 0.1611(6) 0.8848(3)
O1_8 O 0.1550(2) 0.2060(5) 0.9317(2)
O2_8 O 0.1142(3) 0.0288(6) 0.9127(3)
C13_8 C 0.1119(4) 0.1387(8) 0.9151(3)
C14_8 C 0.0551(4) 0.2015(7) 0.8966(3)
C15_8 C 0.0025(4) 0.3529(8) 0.8760(4)
H1_8 H 0.989362 0.087271 0.884997
N3_8 N 0.9672(3) 0.2589(6) 0.8721(3)
N5_8 N 0.7400(3) 0.0617(6) 0.6949(3)
O4_8 O 0.6324(4) 0.2028(7) 0.6707(4)
O6_8 O 0.5873(3) 0.0932(6) 0.8997(3)
C1_8 C 0.8736(3) 0.1383(8) 0.8494(4)
C2_8 C 0.8674(3) 0.1055(8) 0.7925(3)
C6_8 C 0.8543(3) 0.0617(9) 0.8929(3)
C7_8 C 0.8991(4) 0.2600(8) 0.8637(4)
H2_8 H 0.879470 0.288991 0.898177
H3_8 H 0.889024 0.315586 0.833330
C8_8 C 0.8899(5) 0.1859(9) 0.7456(4)
H4_8 H 0.859773 0.187852 0.715657
H5_8 H 0.895998 0.265738 0.760091
H6_8 H 0.928166 0.155363 0.731014
H8_8 H 0.866645 0.000948 0.696832
C12_8 C 0.8646(5) 0.1015(10) 0.9542(4)
H14_8 H 0.862678 0.032716 0.978774
H15_8 H 0.904335 0.138903 0.957484
H16_8 H 0.833109 0.158053 0.964812
H17_8 H 0.989734 0.431450 0.868950
C16_8 C 0.6408(4) 0.1083(9) 0.6444(5)
C17_8 C 0.6943(3) 0.0312(7) 0.6615(3)
C19_8 C 0.6079(4) 0.0870(7) 0.9476(4)
C20_8 C 0.6668(4) 0.0312(7) 0.9585(3)
N6_8 N 0.7755(3) 0.9631(6) 0.6932(2)
N8_8 N 0.7019(3) 0.9748(6) 0.9212(3)
N9_8 N 0.7503(3) 0.9374(6) 0.9543(3)
C3_8 C 0.8406(3) 0.9962(7) 0.7794(3)
C4_8 C 0.8194(3) 0.9213(7) 0.8230(3)
C5_8 C 0.8261(3) 0.9535(8) 0.8794(3)
C9_8 C 0.8379(3) 0.9539(8) 0.7193(3)
H7_8 H 0.851234 0.870626 0.717868
C10_8 C 0.7882(4) 0.8027(7) 0.8093(4)
H9_8 H 0.807723 0.739202 0.830301
H10_8 H 0.745414 0.807126 0.819485
H11_8 H 0.791833 0.786749 0.769286
C11_8 C 0.8023(4) 0.8760(9) 0.9263(3)
H12_8 H 0.834897 0.861041 0.953743
H13_8 H 0.788801 0.799214 0.911188
C18_8 C 0.7507(4) 0.8825(7) 0.6589(3)
H18_8 H 0.767955 0.807997 0.650429
C21_7 C 0.2582(4) 0.0310(8) 0.9925(3)
H19_7 H 0.231483 0.048148 0.962681
C21_8 C 0.7418(4) 0.9690(8) 0.0075(3)
H19_8 H 0.768517 0.951852 0.037319
loop_
_geom_bond_atom_site_label_1
_geom_bond_atom_site_label_2
_geom_bond_site_symmetry_1
_geom_bond_site_symmetry_2
C21 N7 1_555 1_555
H19 C21 1_555 1_555
Zn2 N7 1_555 1_555
Zn1 N1 1_555 1_555
N1 C14 1_555 1_555
N2 H1 1_555 1_555
N3 N2 1_555 1_555
N4 C17 1_555 1_555
N5 N6 1_555 1_555
N6 C9 1_555 1_555
N8 N9 1_555 1_555
N9 C11 1_555 1_555
O1 Zn1 1_555 1_555
O2 C13 1_555 1_555
O3 C16 1_555 1_555
O4 C16 1_555 1_555
O5 C19 1_555 1_555
O6 C19 1_555 1_555
C1 C2 1_555 1_555
C2 C3 1_555 1_555
C3 C4 1_555 1_555
C4 C5 1_555 1_555
C5 C6 1_555 1_555
C6 C1 1_555 1_555
C7 N3 1_555 1_555
H2 C7 1_555 1_555
H3 C7 1_555 1_555
C8 C2 1_555 1_555
H4 C8 1_555 1_555
H5 C8 1_555 1_555
H6 C8 1_555 1_555
C9 C3 1_555 1_555
H7 C9 1_555 1_555
H8 C9 1_555 1_555
C10 C4 1_555 1_555
H9 C10 1_555 1_555
H10 C10 1_555 1_555
H11 C10 1_555 1_555
C11 C5 1_555 1_555
H12 C11 1_555 1_555
H13 C11 1_555 1_555
C12 C6 1_555 1_555
H14 C12 1_555 1_555
H15 C12 1_555 1_555
H16 C12 1_555 1_555
C13 O1 1_555 1_555
C14 N2 1_555 1_555
C15 N1 1_555 1_555
H17 C15 1_555 1_555
C16 C17 1_555 1_555
C17 N5 1_555 1_555
C18 N4 1_555 1_555
H18 C18 1_555 1_555
C19 C20 1_555 1_555
C20 N8 1_555 1_555
Zn3 N4 1_555 1_555
N10 Zn1 1_555 1_555
N11 Zn1 1_555 1_555
N3 C15 1_555 1_555
N6 C18 1_555 1_555
O3 Zn3 1_555 1_555
C1 C7 1_555 1_555
C13 C14 1_555 1_555
N6_2 C9_2 1_555 1_555
N8_2 N9_2 1_555 1_555
N9_2 C11_2 1_555 1_555
C3_2 C4_2 1_555 1_555
C4_2 C5_2 1_555 1_555
C9_2 C3_2 1_555 1_555
H7_2 C9_2 1_555 1_555
C10_2 C4_2 1_555 1_555
H9_2 C10_2 1_555 1_555
H10_2 C10_2 1_555 1_555
H11_2 C10_2 1_555 1_555
C11_2 C5_2 1_555 1_555
H12_2 C11_2 1_555 1_555
H13_2 C11_2 1_555 1_555
C18_2 N4_2 1_555 1_555
H18_2 C18_2 1_555 1_555
Zn3_2 N4_2 1_555 1_555
N6_2 C18_2 1_555 1_555
O3_2 C16_2 1_555 1_555
O4_2 C16_2 1_555 1_555
O8 C19_2 1_555 1_555
O6_2 C19_2 1_555 1_555
C1_2 C2_2 1_555 1_555
C6_2 C1_2 1_555 1_555
C7_2 N3_2 1_555 1_555
H2_2 C7_2 1_555 1_555
H3_2 C7_2 1_555 1_555
C8_2 C2_2 1_555 1_555
H4_2 C8_2 1_555 1_555
H5_2 C8_2 1_555 1_555
H6_2 C8_2 1_555 1_555
C12_2 C6_2 1_555 1_555
H14_2 C12_2 1_555 1_555
H15_2 C12_2 1_555 1_555
H16_2 C12_2 1_555 1_555
C16_2 C17_2 1_555 1_555
C17_2 N5_2 1_555 1_555
C19_2 C20_2 1_555 1_555
C1_2 C7_2 1_555 1_555
Zn2 N1_2 1_555 1_555
N1_2 C14_2 1_555 1_555
O1_2 Zn2 1_555 1_555
O2_2 C13_2 1_555 1_555
C13_2 O1_2 1_555 1_555
C14_2 N2_2 1_555 1_555
C15_2 N1_2 1_555 1_555
N10_2 Zn2 1_555 1_555
O7_2 Zn2 1_555 1_555
C13_2 C14_2 1_555 1_555
N7_2 C20_3 1_555 1_555
O7 C16_3 1_555 1_555
O4_3 C16_3 1_555 1_555
O5_2 C19_3 1_555 1_555
O6_3 C19_3 1_555 1_555
C1_3 C2_3 1_555 1_555
C6_3 C1_3 1_555 1_555
C7_3 N3_3 1_555 1_555
H2_3 C7_3 1_555 1_555
H3_3 C7_3 1_555 1_555
C8_3 C2_3 1_555 1_555
H4_3 C8_3 1_555 1_555
H5_3 C8_3 1_555 1_555
H6_3 C8_3 1_555 1_555
C12_3 C6_3 1_555 1_555
H14_3 C12_3 1_555 1_555
H15_3 C12_3 1_555 1_555
H16_3 C12_3 1_555 1_555
C16_3 C17_3 1_555 1_555
C17_3 N5_3 1_555 1_555
C19_3 C20_3 1_555 1_555
Zn3_2 N7_2 1_555 1_555
O5_2 Zn3_2 1_555 1_555
C1_3 C7_3 1_555 1_555
N6_3 C9_3 1_555 1_555
N8_3 N9_3 1_555 1_555
N9_3 C11_3 1_555 1_555
C3_3 C4_3 1_555 1_555
C4_3 C5_3 1_555 1_555
C9_3 C3_3 1_555 1_555
H7_3 C9_3 1_555 1_555
C10_3 C4_3 1_555 1_555
H9_3 C10_3 1_555 1_555
H10_3 C10_3 1_555 1_555
H11_3 C10_3 1_555 1_555
C11_3 C5_3 1_555 1_555
H12_3 C11_3 1_555 1_555
H13_3 C11_3 1_555 1_555
C18_3 N10 1_555 1_555
H18_3 C18_3 1_555 1_555
H19_2 C21_2 1_555 1_555
N6_3 C18_3 1_555 1_555
N9_3 C21_2 1_555 1_555
Zn3 N1_3 1_555 1_555
N1_3 C14_3 1_555 1_555
O1_3 Zn3 1_555 1_555
O2_3 C13_3 1_555 1_555
C13_3 O1_3 1_555 1_555
C14_3 N2_3 1_555 1_555
C15_3 N1_3 1_555 1_555
N11_2 Zn3 1_555 1_555
O8_2 Zn3 1_555 1_555
C13_3 C14_3 1_555 1_555
Zn3_2 N1_4 1_555 1_555
N1_4 C14_4 1_555 1_555
N2_4 H1_4 1_555 1_555
N3_4 N2_4 1_555 1_555
N10_2 C17_4 1_555 1_555
N5_4 N6_4 1_555 1_555
N6_4 C9_4 1_555 1_555
N11_2 C20_4 1_555 1_555
N8_4 N9_4 1_555 1_555
N9_4 C11_4 1_555 1_555
O1_4 Zn3_2 1_555 1_555
O2_4 C13_4 1_555 1_555
O7_2 C16_4 1_555 1_555
O4_4 C16_4 1_555 1_555
O8_2 C19_4 1_555 1_555
O6_4 C19_4 1_555 1_555
C1_4 C2_4 1_555 1_555
C2_4 C3_4 1_555 1_555
C3_4 C4_4 1_555 1_555
C4_4 C5_4 1_555 1_555
C5_4 C6_4 1_555 1_555
C6_4 C1_4 1_555 1_555
C7_4 N3_4 1_555 1_555
H2_4 C7_4 1_555 1_555
H3_4 C7_4 1_555 1_555
C8_4 C2_4 1_555 1_555
H4_4 C8_4 1_555 1_555
H5_4 C8_4 1_555 1_555
H6_4 C8_4 1_555 1_555
C9_4 C3_4 1_555 1_555
H7_4 C9_4 1_555 1_555
H8_4 C9_4 1_555 1_555
C10_4 C4_4 1_555 1_555
H9_4 C10_4 1_555 1_555
H10_4 C10_4 1_555 1_555
H11_4 C10_4 1_555 1_555
C11_4 C5_4 1_555 1_555
H12_4 C11_4 1_555 1_555
H13_4 C11_4 1_555 1_555
C12_4 C6_4 1_555 1_555
H14_4 C12_4 1_555 1_555
H15_4 C12_4 1_555 1_555
H16_4 C12_4 1_555 1_555
C13_4 O1_4 1_555 1_555
C14_4 N2_4 1_555 1_555
C15_4 N1_4 1_555 1_555
H17_4 C15_4 1_555 1_555
C16_4 C17_4 1_555 1_555
C17_4 N5_4 1_555 1_555
C18_4 N10_2 1_555 1_555
H18_4 C18_4 1_555 1_555
C19_4 C20_4 1_555 1_555
C20_4 N8_4 1_555 1_555
C21_3 N11_2 1_555 1_555
H19_3 C21_3 1_555 1_555
N3_4 C15_4 1_555 1_555
N6_4 C18_4 1_555 1_555
N9_4 C21_3 1_555 1_555
C1_4 C7_4 1_555 1_555
C13_4 C14_4 1_555 1_555
Zn1_2 N1_5 1_555 1_555
N1_5 C14_5 1_555 1_555
O1_5 Zn1_2 1_555 1_555
O2_5 C13_5 1_555 1_555
C13_5 O1_5 1_555 1_555
C14_5 N2_5 1_555 1_555
C15_5 N1_5 1_555 1_555
N10_3 Zn1_2 1_555 1_555
N11_3 Zn1_2 1_555 1_555
O7_3 Zn1_2 1_555 1_555
O8_3 Zn1_2 1_555 1_555
C13_5 C14_5 1_555 1_555
N6_5 C9_5 1_555 1_555
N8_5 N9_5 1_555 1_555
N9_5 C11_5 1_555 1_555
C3_5 C4_5 1_555 1_555
C4_5 C5_5 1_555 1_555
C9_5 C3_5 1_555 1_555
H7_5 C9_5 1_555 1_555
C10_5 C4_5 1_555 1_555
H9_5 C10_5 1_555 1_555
H10_5 C10_5 1_555 1_555
H11_5 C10_5 1_555 1_555
C11_5 C5_5 1_555 1_555
H12_5 C11_5 1_555 1_555
H13_5 C11_5 1_555 1_555
C18_5 N4_3 1_555 1_555
H18_5 C18_5 1_555 1_555
H19_4 C21_4 1_555 1_555
Zn3_3 N4_3 1_555 1_555
N6_5 C18_5 1_555 1_555
N9_5 C21_4 1_555 1_555
N7_3 C20_5 1_555 1_555
O3_3 C16_5 1_555 1_555
O4_5 C16_5 1_555 1_555
O5_3 C19_5 1_555 1_555
O6_5 C19_5 1_555 1_555
C1_5 C2_5 1_555 1_555
C6_5 C1_5 1_555 1_555
C7_5 N3_5 1_555 1_555
H2_5 C7_5 1_555 1_555
H3_5 C7_5 1_555 1_555
C8_5 C2_5 1_555 1_555
H4_5 C8_5 1_555 1_555
H5_5 C8_5 1_555 1_555
H6_5 C8_5 1_555 1_555
C12_5 C6_5 1_555 1_555
H14_5 C12_5 1_555 1_555
H15_5 C12_5 1_555 1_555
H16_5 C12_5 1_555 1_555
C16_5 C17_5 1_555 1_555
C17_5 N5_5 1_555 1_555
C19_5 C20_5 1_555 1_555
Zn2_2 N7_3 1_555 1_555
O5_3 Zn2_2 1_555 1_555
C1_5 C7_5 1_555 1_555
Zn2_2 N1_6 1_555 1_555
N1_6 C14_6 1_555 1_555
N2_6 H1_6 1_555 1_555
N3_6 N2_6 1_555 1_555
N4_4 C17_6 1_555 1_555
N5_6 N6_6 1_555 1_555
N6_6 C9_6 1_555 1_555
N11_3 C20_6 1_555 1_555
N8_6 N9_6 1_555 1_555
N9_6 C11_6 1_555 1_555
O1_6 Zn2_2 1_555 1_555
O2_6 C13_6 1_555 1_555
O3_4 C16_6 1_555 1_555
O4_6 C16_6 1_555 1_555
O8_3 C19_6 1_555 1_555
O6_6 C19_6 1_555 1_555
C1_6 C2_6 1_555 1_555
C2_6 C3_6 1_555 1_555
C3_6 C4_6 1_555 1_555
C4_6 C5_6 1_555 1_555
C5_6 C6_6 1_555 1_555
C6_6 C1_6 1_555 1_555
C7_6 N3_6 1_555 1_555
H2_6 C7_6 1_555 1_555
H3_6 C7_6 1_555 1_555
C8_6 C2_6 1_555 1_555
H4_6 C8_6 1_555 1_555
H5_6 C8_6 1_555 1_555
H6_6 C8_6 1_555 1_555
C9_6 C3_6 1_555 1_555
H7_6 C9_6 1_555 1_555
H8_6 C9_6 1_555 1_555
C10_6 C4_6 1_555 1_555
H9_6 C10_6 1_555 1_555
H10_6 C10_6 1_555 1_555
H11_6 C10_6 1_555 1_555
C11_6 C5_6 1_555 1_555
H12_6 C11_6 1_555 1_555
H13_6 C11_6 1_555 1_555
C12_6 C6_6 1_555 1_555
H14_6 C12_6 1_555 1_555
H15_6 C12_6 1_555 1_555
H16_6 C12_6 1_555 1_555
C13_6 O1_6 1_555 1_555
C14_6 N2_6 1_555 1_555
C15_6 N1_6 1_555 1_555
H17_6 C15_6 1_555 1_555
C16_6 C17_6 1_555 1_555
C17_6 N5_6 1_555 1_555
C18_6 N4_4 1_555 1_555
H18_6 C18_6 1_555 1_555
C19_6 C20_6 1_555 1_555
C20_6 N8_6 1_555 1_555
C21_5 N11_3 1_555 1_555
H19_5 C21_5 1_555 1_555
Zn3_4 N4_4 1_555 1_555
N10_4 Zn2_2 1_555 1_555
N3_6 C15_6 1_555 1_555
N6_6 C18_6 1_555 1_555
N9_6 C21_5 1_555 1_555
O3_4 Zn3_4 1_555 1_555
C1_6 C7_6 1_555 1_555
C13_6 C14_6 1_555 1_555
Zn3_3 N1_7 1_555 1_555
N1_7 C14_7 1_555 1_555
N2_7 H1_7 1_555 1_555
N3_7 N2_7 1_555 1_555
N10_3 C17_7 1_555 1_555
N5_7 N6_7 1_555 1_555
N6_7 C9_7 1_555 1_555
N8_7 N9_7 1_555 1_555
N9_7 C11_7 1_555 1_555
O1_7 Zn3_3 1_555 1_555
O2_7 C13_7 1_555 1_555
O7_3 C16_7 1_555 1_555
O4_7 C16_7 1_555 1_555
O5_4 C19_7 1_555 1_555
O6_7 C19_7 1_555 1_555
C1_7 C2_7 1_555 1_555
C2_7 C3_7 1_555 1_555
C3_7 C4_7 1_555 1_555
C4_7 C5_7 1_555 1_555
C5_7 C6_7 1_555 1_555
C6_7 C1_7 1_555 1_555
C7_7 N3_7 1_555 1_555
H2_7 C7_7 1_555 1_555
H3_7 C7_7 1_555 1_555
C8_7 C2_7 1_555 1_555
H4_7 C8_7 1_555 1_555
H5_7 C8_7 1_555 1_555
H6_7 C8_7 1_555 1_555
C9_7 C3_7 1_555 1_555
H7_7 C9_7 1_555 1_555
H8_7 C9_7 1_555 1_555
C10_7 C4_7 1_555 1_555
H9_7 C10_7 1_555 1_555
H10_7 C10_7 1_555 1_555
H11_7 C10_7 1_555 1_555
C11_7 C5_7 1_555 1_555
H12_7 C11_7 1_555 1_555
H13_7 C11_7 1_555 1_555
C12_7 C6_7 1_555 1_555
H14_7 C12_7 1_555 1_555
H15_7 C12_7 1_555 1_555
H16_7 C12_7 1_555 1_555
C13_7 O1_7 1_555 1_555
C14_7 N2_7 1_555 1_555
C15_7 N1_7 1_555 1_555
H17_7 C15_7 1_555 1_555
C16_7 C17_7 1_555 1_555
C17_7 N5_7 1_555 1_555
C18_7 N10_3 1_555 1_555
H18_7 C18_7 1_555 1_555
C19_7 C20_7 1_555 1_555
C20_7 N8_7 1_555 1_555
N11_4 Zn3_3 1_555 1_555
N3_7 C15_7 1_555 1_555
N6_7 C18_7 1_555 1_555
C1_7 C7_7 1_555 1_555
C13_7 C14_7 1_555 1_555
C21_6 N7_4 1_555 1_555
H19_6 C21_6 1_555 1_555
Zn3_4 N7_4 1_555 1_555
Zn3_4 N1_8 1_555 1_555
N1_8 C14_8 1_555 1_555
O1_8 Zn3_4 1_555 1_555
O2_8 C13_8 1_555 1_555
C13_8 O1_8 1_555 1_555
C14_8 N2_8 1_555 1_555
C15_8 N1_8 1_555 1_555
C13_8 C14_8 1_555 1_555
O7_4 C16_8 1_555 1_555
O4_8 C16_8 1_555 1_555
O8_4 C19_8 1_555 1_555
O6_8 C19_8 1_555 1_555
C1_8 C2_8 1_555 1_555
C6_8 C1_8 1_555 1_555
C7_8 N3_8 1_555 1_555
H2_8 C7_8 1_555 1_555
H3_8 C7_8 1_555 1_555
C8_8 C2_8 1_555 1_555
H4_8 C8_8 1_555 1_555
H5_8 C8_8 1_555 1_555
H6_8 C8_8 1_555 1_555
C12_8 C6_8 1_555 1_555
H14_8 C12_8 1_555 1_555
H15_8 C12_8 1_555 1_555
H16_8 C12_8 1_555 1_555
C16_8 C17_8 1_555 1_555
C17_8 N5_8 1_555 1_555
C19_8 C20_8 1_555 1_555
C1_8 C7_8 1_555 1_555
N6_8 C9_8 1_555 1_555
N8_8 N9_8 1_555 1_555
N9_8 C11_8 1_555 1_555
C3_8 C4_8 1_555 1_555
C4_8 C5_8 1_555 1_555
C9_8 C3_8 1_555 1_555
H7_8 C9_8 1_555 1_555
C10_8 C4_8 1_555 1_555
H9_8 C10_8 1_555 1_555
H10_8 C10_8 1_555 1_555
H11_8 C10_8 1_555 1_555
C11_8 C5_8 1_555 1_555
H12_8 C11_8 1_555 1_555
H13_8 C11_8 1_555 1_555
C18_8 N10_4 1_555 1_555
H18_8 C18_8 1_555 1_555
N6_8 C18_8 1_555 1_555
H19_7 C21_7 1_555 1_555
H19_8 C21_8 1_555 1_555

#END
