
###############################################################################
#
# This file contains modified crystal structure data generated from the
# MOF subset of the Cambridge Structural Database (CSD) v543 
# hosted by the Cambridge Crystallographic Data Centre (CCDC).
#
# This work is licensed under the Creative Commons
# Attribution-NonCommercial-ShareAlike 4.0 International License.
# To view a copy of this license, visit
# http://creativecommons.org/licenses/by-nc-sa/4.0/
# or send a letter to
# Creative Commons, PO Box 1866, Mountain View, CA 94042, USA.
#
# CIF created using the CSD Python API on 29 September 2022
# The structure has been converted into the P1 space group
# The structure has a 3D framework
# The original CSD entry EBAHOF is in the rhombohedral crystal system
# The framework has been calculated to contain at least 10.0% void space
# The void calculation uses a probe of radius 1.32A, grid spacing 0.4
#
###############################################################################

data_EBAHOF
_chemical_formula_moiety         '(C1188 H2160 Mn100 N72 O446)n'
_symmetry_cell_setting           triclinic
_symmetry_space_group_name_H-M   'P 1'
_symmetry_Int_Tables_number      1
_space_group_name_Hall           'P 1'
loop_
_symmetry_equiv_pos_site_id
_symmetry_equiv_pos_as_xyz
1 x,y,z
_cell_length_a                   27.476(4)
_cell_length_b                   27.476(4)
_cell_length_c                   66.576(8)
_cell_angle_alpha                90
_cell_angle_beta                 90
_cell_angle_gamma                120
_cell_volume                     43526.7
loop_
_atom_site_label
_atom_site_type_symbol
_atom_site_fract_x
_atom_site_fract_y
_atom_site_fract_z
Mn1 Mn 0.16832(3) 0.36186(3) 0.048182(11)
Mn2 Mn 0.25011(3) 0.39192(3) 0.085354(10)
Mn3 Mn 0.28374(3) 0.32697(3) 0.046810(11)
O1 O 0.27837(18) 0.36803(18) 0.02076(6)
O2 O 0.18823(18) 0.34514(18) 0.01933(6)
C1 C 0.2350(3) 0.3612(3) 0.01159(8)
O3 O 0.26885(16) 0.44652(15) 0.10682(5)
O4 O 0.30372(16) 0.41855(16) 0.13143(5)
C6 C 0.2912(2) 0.4522(2) 0.12371(9)
C7 C 0.3048(3) 0.5050(3) 0.13547(10)
C8 C 0.2757(8) 0.5303(6) 0.1283(2)
H10 H 0.2832 0.5382 0.1142
H11 H 0.2873 0.5648 0.1354
H12 H 0.2361 0.5056 0.1303
C9 C 0.3651(5) 0.5440(5) 0.1340(3)
H13 H 0.3750 0.5552 0.1203
H14 H 0.3852 0.5259 0.1387
H15 H 0.3750 0.5765 0.1421
C10 C 0.2957(10) 0.4898(6) 0.15795(17)
H16 H 0.3039 0.5226 0.1656
H17 H 0.3202 0.4761 0.1621
H18 H 0.2573 0.4612 0.1601
O5 O 0.23267(16) 0.44701(15) 0.04303(5)
O6 O 0.29146(15) 0.45598(14) 0.06752(5)
O7 O 0.22335(13) 0.33867(13) 0.06426(4)
C11 C 0.2776(2) 0.4741(2) 0.05232(9)
C12 C 0.3212(3) 0.5325(3) 0.04537(11)
C13 C 0.3656(6) 0.5280(7) 0.0355(3)
H19 H 0.3506 0.5037 0.0240
H20 H 0.3815 0.5129 0.0447
H21 H 0.3942 0.5646 0.0312
C14 C 0.3439(7) 0.5710(4) 0.06426(19)
H22 H 0.3141 0.5745 0.0703
H23 H 0.3737 0.6075 0.0604
H24 H 0.3580 0.5548 0.0738
C15 C 0.2951(4) 0.5570(4) 0.0320(2)
H25 H 0.2665 0.5600 0.0393
H26 H 0.2786 0.5331 0.0205
H27 H 0.3234 0.5937 0.0276
O8 O 0.17256(14) 0.39749(14) 0.07997(5)
O9 O 0.13606(16) 0.37754(15) 0.11075(6)
C16 C 0.1460(2) 0.4036(2) 0.09446(8)
C17 C 0.1247(3) 0.4440(3) 0.09184(9)
C18 C 0.1645(4) 0.4929(3) 0.07826(14)
H28 H 0.1675 0.4785 0.0655
H29 H 0.2009 0.5129 0.0844
H30 H 0.1499 0.5179 0.0764
C19 C 0.1196(5) 0.4677(4) 0.11188(11)
H31 H 0.0951 0.4374 0.1206
H32 H 0.1043 0.4920 0.1097
H33 H 0.1560 0.4887 0.1179
C20 C 0.0670(4) 0.4112(4) 0.08198(16)
H34 H 0.0423 0.3806 0.0905
H35 H 0.0706 0.3967 0.0693
H36 H 0.0519 0.4356 0.0799
O10 O 0.33093(14) 0.39278(14) 0.09118(5)
O11 O 0.35946(15) 0.39026(16) 0.06010(5)
C21 C 0.3692(2) 0.4073(2) 0.07805(8)
C22 C 0.4295(2) 0.4466(2) 0.08441(8)
C23 C 0.4303(3) 0.4860(4) 0.10071(13)
H37 H 0.4073 0.4642 0.1118
H38 H 0.4158 0.5087 0.0954
H39 H 0.4681 0.5098 0.1053
C24 C 0.4524(3) 0.4108(3) 0.09263(14)
H40 H 0.4521 0.3864 0.0823
H41 H 0.4295 0.3887 0.1036
H42 H 0.4903 0.4346 0.0972
C25 C 0.4667(3) 0.4813(3) 0.06672(11)
H43 H 0.4659 0.4564 0.0564
H44 H 0.5047 0.5045 0.0713
H45 H 0.4529 0.5045 0.0614
C29 C 0.0909(3) 0.4435(3) 0.01061(9)
C30 C 0.0562(6) 0.4546(3) 0.02563(11)
H52 H 0.0750 0.4641 0.0384
H53 H 0.0517 0.4852 0.0209
H54 H 0.0200 0.4215 0.0270
C31 C 0.1512(4) 0.4893(5) 0.01127(15)
H55 H 0.1636 0.4970 0.0250
H56 H 0.1738 0.4776 0.0040
H57 H 0.1548 0.5227 0.0052
N2 N 0.08919(19) 0.39082(19) 0.01688(7)
O13 O 0.10626(18) 0.38668(16) 0.03450(6)
C32 C 0.0668(2) 0.3496(2) 0.00324(8)
C33 C 0.0584(3) 0.2924(3) 0.00511(10)
H59 H 0.0941 0.2947 0.0071
H60 H 0.0344 0.2738 0.0164
O14 O 0.09185(22) 0.28913(15) 0.05592(6)
Mn4 Mn 0.19152(4) 0.27475(3) 0.081313(10)
O15 O 0.21801(18) 0.32800(13) 0.10241(4)
O16 O 0.21850(23) 0.24812(16) 0.03524(5)
O17 O 0.27148(20) 0.27389(14) 0.07549(5)
O18 O 0.34186(18) 0.30497(25) 0.02990(6)
Mn5 Mn 0.29010(4) 0.33970(3) 0.119857(11)
Mn6 Mn 0.13979(4) 0.30481(3) 0.118485(11)
H49 H 0.9949 0.4140 0.9730
H50 H 0.9816 0.3965 0.9957
Mn7 Mn 0.95677(4) 0.28374(3) 0.953190(11)
Mn1_2 Mn 0.63814(3) 0.80646(4) 0.048182(11)
Mn2_2 Mn 0.60808(3) 0.85819(4) 0.085354(10)
Mn3_2 Mn 0.67303(3) 0.95677(4) 0.046810(11)
O1_2 O 0.63197(18) 0.91034(25) 0.02076(6)
O2_2 O 0.65486(18) 0.84309(25) 0.01933(6)
C1_2 C 0.6388(3) 0.8738(4) 0.01159(8)
O3_2 O 0.55348(15) 0.82233(22) 0.10682(5)
O4_2 O 0.58145(16) 0.88517(23) 0.13143(5)
C6_2 C 0.5478(2) 0.8390(3) 0.12371(9)
C7_2 C 0.4950(3) 0.7998(4) 0.13547(10)
C8_2 C 0.4697(6) 0.7454(10) 0.1283(2)
H10_2 H 0.4618 0.7450 0.1142
H11_2 H 0.4352 0.7225 0.1354
H12_2 H 0.4944 0.7305 0.1303
C9_2 C 0.4560(5) 0.8211(7) 0.1340(3)
H13_2 H 0.4448 0.8198 0.1203
H14_2 H 0.4741 0.8593 0.1387
H15_2 H 0.4235 0.7985 0.1421
C10_2 C 0.5102(6) 0.8059(12) 0.15795(17)
H16_2 H 0.4774 0.7813 0.1656
H17_2 H 0.5239 0.8441 0.1621
H18_2 H 0.5388 0.7961 0.1601
O5_2 O 0.55299(15) 0.78566(22) 0.04303(5)
O6_2 O 0.54402(14) 0.83548(21) 0.06752(5)
O7_2 O 0.66133(13) 0.88468(18) 0.06426(4)
C11_2 C 0.5259(2) 0.8035(3) 0.05232(9)
C12_2 C 0.4675(3) 0.7887(4) 0.04537(11)
C13_2 C 0.4720(7) 0.8376(9) 0.0355(3)
H19_2 H 0.4963 0.8469 0.0240
H20_2 H 0.4871 0.8686 0.0447
H21_2 H 0.4354 0.8296 0.0312
C14_2 C 0.4290(4) 0.7729(8) 0.06426(19)
H22_2 H 0.4255 0.7396 0.0703
H23_2 H 0.3925 0.7662 0.0604
H24_2 H 0.4452 0.8032 0.0738
C15_2 C 0.4430(4) 0.7381(6) 0.0320(2)
H25_2 H 0.4400 0.7065 0.0393
H26_2 H 0.4669 0.7455 0.0205
H27_2 H 0.4063 0.7297 0.0276
O8_2 O 0.60251(14) 0.77507(20) 0.07997(5)
O9_2 O 0.62246(15) 0.75852(22) 0.11075(6)
C16_2 C 0.5964(2) 0.7424(3) 0.09446(8)
C17_2 C 0.5560(3) 0.6807(4) 0.09184(9)
C18_2 C 0.5071(3) 0.6716(5) 0.07826(14)
H28_2 H 0.5215 0.6890 0.0655
H29_2 H 0.4871 0.6880 0.0844
H30_2 H 0.4821 0.6320 0.0764
C19_2 C 0.5323(4) 0.6519(6) 0.11188(11)
H31_2 H 0.5626 0.6577 0.1206
H32_2 H 0.5080 0.6123 0.1097
H33_2 H 0.5113 0.6673 0.1179
C20_2 C 0.5888(4) 0.6558(6) 0.08198(16)
H34_2 H 0.6194 0.6617 0.0905
H35_2 H 0.6033 0.6739 0.0693
H36_2 H 0.5644 0.6163 0.0799
O10_2 O 0.60722(14) 0.93815(20) 0.09118(5)
O11_2 O 0.60974(16) 0.96920(22) 0.06010(5)
C21_2 C 0.5927(2) 0.9619(3) 0.07805(8)
C22_2 C 0.5534(2) 0.9829(3) 0.08441(8)
C23_2 C 0.5140(4) 0.9443(5) 0.10071(13)
H37_2 H 0.5358 0.9431 0.1118
H38_2 H 0.4913 0.9071 0.0954
H39_2 H 0.4902 0.9583 0.1053
C25_2 C 0.5187(3) 0.9854(4) 0.06672(11)
H45_2 H 0.4955 0.9484 0.0614
C29_2 C 0.5565(3) 0.6474(4) 0.01061(9)
C30_2 C 0.5454(3) 0.6016(7) 0.02563(11)
H52_2 H 0.5359 0.6109 0.0384
H53_2 H 0.5148 0.5665 0.0209
H54_2 H 0.5785 0.5985 0.0270
C31_2 C 0.5107(5) 0.6619(6) 0.01127(15)
H55_2 H 0.5030 0.6666 0.0250
H56_2 H 0.5224 0.6962 0.0040
H57_2 H 0.4773 0.6321 0.0052
N2_2 N 0.60918(19) 0.69837(27) 0.01688(7)
O13_2 O 0.61332(16) 0.71958(24) 0.03450(6)
C32_2 C 0.6504(2) 0.7172(3) 0.00324(8)
C33_2 C 0.7076(3) 0.7660(4) 0.00511(10)
H59_2 H 0.7053 0.7994 0.0071
H60_2 H 0.7262 0.7606 0.0164
O14_2 O 0.71087(15) 0.80273(27) 0.05592(6)
Mn4_2 Mn 0.72525(3) 0.91678(5) 0.081313(10)
O15_2 O 0.67200(13) 0.89002(22) 0.10241(4)
O16_2 O 0.75188(16) 0.97039(28) 0.03524(5)
O17_2 O 0.72611(14) 0.99760(24) 0.07549(5)
Mn5_2 Mn 0.66030(3) 0.95041(5) 0.119857(11)
Mn6_2 Mn 0.69519(3) 0.83499(5) 0.118485(11)
C2 C 0.6259(4) 0.8676(5) 0.98911(10)
C3 C 0.6875(9) 0.8875(14) 0.97886(19)
H1 H 0.6836 0.8844 0.9645
H2 H 0.7015 0.8638 0.9836
H3 H 0.7133 0.9258 0.9825
C4 C 0.6000(10) 0.8107(11) 0.98262(19)
H4 H 0.5618 0.7907 0.9873
H5 H 0.6201 0.7934 0.9881
H6 H 0.6007 0.8095 0.9682
C5 C 0.6191(11) 0.9114(13) 0.98125(16)
H7 H 0.5847 0.9080 0.9862
H8 H 0.6179 0.9093 0.9669
H9 H 0.6502 0.9469 0.9854
O12 O 0.65814(18) 0.69503(25) 0.97010(6)
N1 N 0.63100(19) 0.68480(27) 0.98686(7)
C26 C 0.5726(2) 0.6372(4) 0.98881(9)
C27 C 0.5381(4) 0.6426(5) 0.97192(11)
H46 H 0.5509 0.6366 0.9592
H47 H 0.4992 0.6150 0.9737
H48 H 0.5425 0.6795 0.9721
C28 C 0.5758(3) 0.5839(4) 0.98661(12)
H49_2 H 0.5860 0.5809 0.9730
H50_2 H 0.6035 0.5851 0.9957
H51 H 0.5399 0.5519 0.9896
H58 H 0.7284 0.7697 0.9931
Mn7_2 Mn 0.71626(3) 0.67303(5) 0.953190(11)
H49_3 H 0.4191 0.0051 0.9730
H50_3 H 0.4149 0.0184 0.9957
Mn7_3 Mn 0.32697(5) 0.04323(4) 0.953190(11)
Mn1_3 Mn 0.19354(4) 0.83168(3) 0.048182(11)
Mn2_3 Mn 0.14181(4) 0.74989(3) 0.085354(10)
Mn3_3 Mn 0.04323(4) 0.71626(3) 0.046810(11)
O1_3 O 0.08966(25) 0.72163(18) 0.02076(6)
O2_3 O 0.15691(25) 0.81177(18) 0.01933(6)
C1_3 C 0.1262(4) 0.7650(3) 0.01159(8)
O3_3 O 0.17767(22) 0.73115(16) 0.10682(5)
O4_3 O 0.11483(23) 0.69628(16) 0.13143(5)
C6_3 C 0.1610(3) 0.7088(2) 0.12371(9)
C7_3 C 0.2002(4) 0.6952(3) 0.13547(10)
C8_3 C 0.2546(10) 0.7243(8) 0.1283(2)
H10_3 H 0.2550 0.7168 0.1142
H11_3 H 0.2775 0.7127 0.1354
H12_3 H 0.2695 0.7639 0.1303
C9_3 C 0.1789(7) 0.6349(5) 0.1340(3)
H13_3 H 0.1802 0.6250 0.1203
H14_3 H 0.1407 0.6148 0.1387
H15_3 H 0.2015 0.6250 0.1421
C10_3 C 0.1941(12) 0.7043(10) 0.15795(17)
H16_3 H 0.2187 0.6961 0.1656
H17_3 H 0.1559 0.6798 0.1621
H18_3 H 0.2039 0.7427 0.1601
O5_3 O 0.21434(22) 0.76733(16) 0.04303(5)
O6_3 O 0.16452(21) 0.70854(15) 0.06752(5)
O7_3 O 0.11532(18) 0.77665(13) 0.06426(4)
C11_3 C 0.1965(3) 0.7224(2) 0.05232(9)
C12_3 C 0.2113(4) 0.6788(3) 0.04537(11)
C13_3 C 0.1624(9) 0.6344(6) 0.0355(3)
H19_3 H 0.1531 0.6494 0.0240
H20_3 H 0.1314 0.6185 0.0447
H21_3 H 0.1704 0.6058 0.0312
C14_3 C 0.2271(8) 0.6561(7) 0.06426(19)
H22_3 H 0.2604 0.6859 0.0703
H23_3 H 0.2338 0.6263 0.0604
H24_3 H 0.1968 0.6420 0.0738
C15_3 C 0.2619(6) 0.7049(4) 0.0320(2)
H25_3 H 0.2935 0.7335 0.0393
H26_3 H 0.2545 0.7214 0.0205
H27_3 H 0.2703 0.6766 0.0276
O8_3 O 0.22493(20) 0.82744(14) 0.07997(5)
O9_3 O 0.24148(22) 0.86394(16) 0.11075(6)
C16_3 C 0.2576(3) 0.8540(2) 0.09446(8)
C17_3 C 0.3193(4) 0.8753(3) 0.09184(9)
C18_3 C 0.3284(5) 0.8355(4) 0.07826(14)
H28_3 H 0.3110 0.8325 0.0655
H29_3 H 0.3120 0.7991 0.0844
H30_3 H 0.3680 0.8501 0.0764
C19_3 C 0.3481(6) 0.8804(5) 0.11188(11)
H31_3 H 0.3423 0.9049 0.1206
H32_3 H 0.3877 0.8957 0.1097
H33_3 H 0.3327 0.8440 0.1179
C20_3 C 0.3442(6) 0.9330(4) 0.08198(16)
H34_3 H 0.3383 0.9577 0.0905
H35_3 H 0.3261 0.9294 0.0693
H36_3 H 0.3837 0.9481 0.0799
O10_3 O 0.06185(20) 0.66907(14) 0.09118(5)
O11_3 O 0.03080(22) 0.64054(15) 0.06010(5)
C21_3 C 0.0381(3) 0.6308(2) 0.07805(8)
C22_3 C 0.0171(3) 0.5705(2) 0.08441(8)
C23_3 C 0.0557(5) 0.5697(3) 0.10071(13)
H37_3 H 0.0569 0.5927 0.1118
H38_3 H 0.0929 0.5842 0.0954
H39_3 H 0.0417 0.5319 0.1053
C25_3 C 0.0146(4) 0.5333(3) 0.06672(11)
H45_3 H 0.0516 0.5471 0.0614
C29_3 C 0.3526(4) 0.9091(3) 0.01061(9)
C30_3 C 0.3984(7) 0.9438(6) 0.02563(11)
H52_3 H 0.3891 0.9250 0.0384
H53_3 H 0.4335 0.9483 0.0209
H54_3 H 0.4015 0.9800 0.0270
C31_3 C 0.3381(6) 0.8488(4) 0.01127(15)
H55_3 H 0.3334 0.8364 0.0250
H56_3 H 0.3038 0.8262 0.0040
H57_3 H 0.3679 0.8452 0.0052
N2_3 N 0.30163(27) 0.91081(19) 0.01688(7)
O13_3 O 0.28042(24) 0.89374(18) 0.03450(6)
C32_3 C 0.2828(3) 0.9332(2) 0.00324(8)
C33_3 C 0.2340(4) 0.9416(3) 0.00511(10)
H59_3 H 0.2006 0.9059 0.0071
H60_3 H 0.2394 0.9656 0.0164
O14_3 O 0.19727(27) 0.90815(22) 0.05592(6)
Mn4_3 Mn 0.08322(5) 0.80848(4) 0.081313(10)
O15_3 O 0.10998(22) 0.78199(18) 0.10241(4)
O16_3 O 0.02961(28) 0.78150(23) 0.03524(5)
O17_3 O 0.00240(24) 0.72852(20) 0.07549(5)
Mn5_3 Mn 0.04959(5) 0.70990(4) 0.119857(11)
Mn6_3 Mn 0.16501(5) 0.86021(4) 0.118485(11)
Mn1_4 Mn 0.36186(3) 0.16832(3) 0.451818(11)
Mn2_4 Mn 0.39192(3) 0.25011(3) 0.414646(10)
Mn3_4 Mn 0.32697(3) 0.28374(3) 0.453190(11)
O1_4 O 0.36803(18) 0.27837(18) 0.47924(6)
O2_4 O 0.34514(18) 0.18823(18) 0.48067(6)
C1_4 C 0.3612(3) 0.2350(3) 0.48841(8)
C2_2 C 0.3741(4) 0.2417(3) 0.51089(10)
C3_2 C 0.3125(9) 0.2000(11) 0.52114(19)
H1_2 H 0.3164 0.2008 0.5355
H2_2 H 0.2985 0.1623 0.5164
H3_2 H 0.2867 0.2125 0.5175
C4_2 C 0.4000(10) 0.2107(5) 0.51738(19)
H4_2 H 0.4382 0.2289 0.5127
H5_2 H 0.3799 0.1733 0.5119
H6_2 H 0.3993 0.2088 0.5318
C5_2 C 0.3809(11) 0.2923(6) 0.51875(16)
H7_2 H 0.4153 0.3233 0.5138
H8_2 H 0.3821 0.2914 0.5331
H9_2 H 0.3498 0.2967 0.5146
O3_4 O 0.44652(15) 0.26885(16) 0.39318(5)
O4_4 O 0.41855(16) 0.30372(16) 0.36857(5)
C6_4 C 0.4522(2) 0.2912(2) 0.37629(9)
C7_4 C 0.5050(3) 0.3048(3) 0.36453(10)
C8_4 C 0.5303(6) 0.2757(8) 0.3717(2)
H10_4 H 0.5382 0.2832 0.3858
H11_4 H 0.5648 0.2873 0.3646
H12_4 H 0.5056 0.2361 0.3697
C9_4 C 0.5440(5) 0.3651(5) 0.3660(3)
H13_4 H 0.5552 0.3750 0.3797
H14_4 H 0.5259 0.3852 0.3613
H15_4 H 0.5765 0.3750 0.3579
C10_4 C 0.4898(6) 0.2957(10) 0.34205(17)
H16_4 H 0.5226 0.3039 0.3344
H17_4 H 0.4761 0.3202 0.3379
H18_4 H 0.4612 0.2573 0.3399
O5_4 O 0.44701(15) 0.23267(16) 0.45697(5)
O6_4 O 0.45598(14) 0.29146(15) 0.43248(5)
O7_4 O 0.33867(13) 0.22335(13) 0.43574(4)
C11_4 C 0.4741(2) 0.2776(2) 0.44768(9)
C12_4 C 0.5325(3) 0.3212(3) 0.45463(11)
C13_4 C 0.5280(7) 0.3656(6) 0.4645(3)
H19_4 H 0.5037 0.3506 0.4760
H20_4 H 0.5129 0.3815 0.4553
H21_4 H 0.5646 0.3942 0.4688
C14_4 C 0.5710(4) 0.3439(7) 0.43574(19)
H22_4 H 0.5745 0.3141 0.4297
H23_4 H 0.6075 0.3737 0.4396
H24_4 H 0.5548 0.3580 0.4262
C15_4 C 0.5570(4) 0.2951(4) 0.4680(2)
H25_4 H 0.5600 0.2665 0.4607
H26_4 H 0.5331 0.2786 0.4795
H27_4 H 0.5937 0.3234 0.4724
O8_4 O 0.39749(14) 0.17256(14) 0.42003(5)
O9_4 O 0.37754(15) 0.13606(16) 0.38925(6)
C16_4 C 0.4036(2) 0.1460(2) 0.40554(8)
C17_4 C 0.4440(3) 0.1247(3) 0.40816(9)
C18_4 C 0.4929(3) 0.1645(4) 0.42174(14)
H28_4 H 0.4785 0.1675 0.4345
H29_4 H 0.5129 0.2009 0.4156
H30_4 H 0.5179 0.1499 0.4236
C19_4 C 0.4677(4) 0.1196(5) 0.38812(11)
H31_4 H 0.4374 0.0951 0.3794
H32_4 H 0.4920 0.1043 0.3903
H33_4 H 0.4887 0.1560 0.3821
C20_4 C 0.4112(4) 0.0670(4) 0.41802(16)
H34_4 H 0.3806 0.0423 0.4095
H35_4 H 0.3967 0.0706 0.4307
H36_4 H 0.4356 0.0519 0.4201
O10_4 O 0.39278(14) 0.33093(14) 0.40882(5)
O11_4 O 0.39026(16) 0.35946(15) 0.43990(5)
C21_4 C 0.4073(2) 0.3692(2) 0.42195(8)
C22_4 C 0.4466(2) 0.4295(2) 0.41559(8)
C23_4 C 0.4860(4) 0.4303(3) 0.39929(13)
H37_4 H 0.4642 0.4073 0.3882
H38_4 H 0.5087 0.4158 0.4046
H39_4 H 0.5098 0.4681 0.3947
C24_2 C 0.4108(3) 0.4524(3) 0.40737(14)
H40_2 H 0.3864 0.4521 0.4177
H41_2 H 0.3887 0.4295 0.3964
H42_2 H 0.4346 0.4903 0.4028
C25_4 C 0.4813(3) 0.4667(3) 0.43328(11)
H43_2 H 0.4564 0.4659 0.4436
H44_2 H 0.5045 0.5047 0.4287
H45_4 H 0.5045 0.4529 0.4386
O12_2 O 0.34186(18) 0.03689(17) 0.52990(6)
N1_2 N 0.36900(19) 0.05380(19) 0.51314(7)
C26_2 C 0.4274(2) 0.0646(3) 0.51119(9)
C27_2 C 0.4619(4) 0.1045(3) 0.52808(11)
H46_2 H 0.4491 0.0857 0.5408
H47_2 H 0.5008 0.1158 0.5263
H48_2 H 0.4575 0.1370 0.5279
C28_2 C 0.4242(3) 0.0081(3) 0.51339(12)
H51_2 H 0.4601 0.0120 0.5104
C29_4 C 0.4435(3) 0.0909(3) 0.48939(9)
C30_4 C 0.4546(3) 0.0562(6) 0.47437(11)
H52_4 H 0.4641 0.0750 0.4616
H53_4 H 0.4852 0.0517 0.4791
H54_4 H 0.4215 0.0200 0.4730
C31_4 C 0.4893(5) 0.1512(4) 0.48873(15)
H55_4 H 0.4970 0.1636 0.4750
H56_4 H 0.4776 0.1738 0.4960
H57_4 H 0.5227 0.1548 0.4948
N2_4 N 0.39082(19) 0.08919(19) 0.48312(7)
O13_4 O 0.38668(16) 0.10626(18) 0.46550(6)
C32_4 C 0.3496(2) 0.0668(2) 0.49676(8)
C33_4 C 0.2924(3) 0.0584(3) 0.49489(10)
H58_2 H 0.2716 0.0413 0.5069
H59_4 H 0.2947 0.0941 0.4929
H60_4 H 0.2738 0.0344 0.4836
O14_4 O 0.28913(15) 0.09185(22) 0.44408(6)
Mn4_4 Mn 0.27475(3) 0.19152(4) 0.418687(10)
O15_4 O 0.32800(13) 0.21801(18) 0.39759(4)
O16_4 O 0.24812(16) 0.21850(23) 0.46476(5)
O17_4 O 0.27389(14) 0.27148(20) 0.42451(5)
O18_2 O 0.30497(25) 0.34186(18) 0.47010(6)
Mn5_4 Mn 0.33970(3) 0.29010(4) 0.380143(11)
Mn6_4 Mn 0.30481(3) 0.13979(4) 0.381515(11)
H49_4 H 0.4140 0.9949 0.5270
H50_4 H 0.3965 0.9816 0.5043
Mn7_4 Mn 0.28374(3) 0.95677(4) 0.546810(11)
C9_5 C 0.0318(5) 0.8773(5) 0.4673(3)
H13_5 H 0.0417 0.8885 0.4536
H14_5 H 0.0519 0.8592 0.4720
H15_5 H 0.0417 0.9098 0.4754
C13_5 C 0.0323(6) 0.8613(7) 0.3688(3)
H19_5 H 0.0173 0.8370 0.3573
H20_5 H 0.0482 0.8462 0.3780
H21_5 H 0.0609 0.8979 0.3645
C14_5 C 0.0106(7) 0.9043(4) 0.39759(19)
H23_5 H 0.0404 0.9408 0.3937
H24_5 H 0.0247 0.8881 0.4071
O11_5 O 0.02613(15) 0.72359(16) 0.39343(5)
C21_5 C 0.0359(2) 0.7406(2) 0.41138(8)
C22_5 C 0.0962(2) 0.7799(2) 0.41774(8)
C23_5 C 0.0970(3) 0.8193(4) 0.43404(13)
H37_5 H 0.0740 0.7975 0.4451
H38_5 H 0.0825 0.8420 0.4287
H39_5 H 0.1348 0.8431 0.4386
C24_3 C 0.1191(3) 0.7441(3) 0.42596(14)
H40_3 H 0.1188 0.7197 0.4156
H41_3 H 0.0962 0.7220 0.4369
H42_3 H 0.1570 0.7679 0.4305
C25_5 C 0.1334(3) 0.8146(3) 0.40005(11)
H43_3 H 0.1326 0.7897 0.3897
H44_3 H 0.1714 0.8378 0.4046
H45_5 H 0.1196 0.8378 0.3947
O18_3 O 0.00853(18) 0.63830(25) 0.36323(6)
Mn1_5 Mn 0.83499(3) 0.69519(3) 0.381515(11)
Mn2_5 Mn 0.91678(3) 0.72525(3) 0.418687(10)
Mn3_5 Mn 0.95041(3) 0.66030(3) 0.380143(11)
O1_5 O 0.94504(18) 0.70136(18) 0.35409(6)
O2_5 O 0.85490(18) 0.67847(18) 0.35266(6)
C1_5 C 0.9017(3) 0.6945(3) 0.34492(8)
C2_3 C 0.9084(3) 0.7074(4) 0.32244(10)
C3_3 C 0.8667(11) 0.6458(9) 0.31219(19)
H1_3 H 0.8675 0.6497 0.2978
H2_3 H 0.8290 0.6318 0.3169
H3_3 H 0.8792 0.6200 0.3158
C4_3 C 0.8774(5) 0.7333(10) 0.31595(19)
H4_3 H 0.8956 0.7715 0.3206
H5_3 H 0.8400 0.7132 0.3214
H6_3 H 0.8755 0.7326 0.3015
C5_3 C 0.9590(6) 0.7142(11) 0.31458(16)
H7_3 H 0.9900 0.7486 0.3195
H8_3 H 0.9581 0.7154 0.3002
H9_3 H 0.9634 0.6831 0.3187
O3_5 O 0.93552(16) 0.77985(15) 0.44015(5)
O4_5 O 0.97039(16) 0.75188(16) 0.46476(5)
C6_5 C 0.9579(2) 0.7855(2) 0.45704(9)
C7_5 C 0.9715(3) 0.8383(3) 0.46880(10)
C8_5 C 0.9424(8) 0.8636(6) 0.4616(2)
H10_5 H 0.9499 0.8715 0.4475
H11_5 H 0.9540 0.8981 0.4687
H12_5 H 0.9028 0.8389 0.4636
C10_5 C 0.9624(10) 0.8231(6) 0.49128(17)
H16_5 H 0.9706 0.8559 0.4989
H17_5 H 0.9869 0.8094 0.4954
H18_5 H 0.9240 0.7945 0.4934
O5_5 O 0.89934(16) 0.78034(15) 0.37636(5)
O6_5 O 0.95813(15) 0.78931(14) 0.40085(5)
O7_5 O 0.89002(13) 0.67200(13) 0.39759(4)
C11_5 C 0.9443(2) 0.8074(2) 0.38565(9)
C12_5 C 0.9879(3) 0.8658(3) 0.37870(11)
H22_5 H 0.9808 0.9078 0.4036
C15_5 C 0.9618(4) 0.8903(4) 0.3653(2)
H25_5 H 0.9332 0.8933 0.3726
H26_5 H 0.9453 0.8664 0.3538
H27_5 H 0.9901 0.9270 0.3609
O8_5 O 0.83923(14) 0.73082(14) 0.41330(5)
O9_5 O 0.80273(16) 0.71087(15) 0.44408(6)
C16_5 C 0.8127(2) 0.7369(2) 0.42779(8)
C17_5 C 0.7914(3) 0.7773(3) 0.42517(9)
C18_5 C 0.8312(4) 0.8262(3) 0.41159(14)
H28_5 H 0.8342 0.8118 0.3988
H29_5 H 0.8676 0.8462 0.4177
H30_5 H 0.8166 0.8512 0.4097
C19_5 C 0.7863(5) 0.8010(4) 0.44521(11)
H31_5 H 0.7618 0.7707 0.4539
H32_5 H 0.7710 0.8253 0.4430
H33_5 H 0.8227 0.8220 0.4512
C20_5 C 0.7337(4) 0.7445(4) 0.41531(16)
H34_5 H 0.7090 0.7139 0.4238
H35_5 H 0.7373 0.7300 0.4026
H36_5 H 0.7186 0.7689 0.4132
O10_5 O 0.99760(14) 0.72611(14) 0.42451(5)
O12_3 O 0.70356(17) 0.67519(18) 0.30343(6)
N1_3 N 0.72047(19) 0.70233(19) 0.32019(7)
C26_3 C 0.7313(3) 0.7607(2) 0.32214(9)
C27_3 C 0.7712(3) 0.7952(4) 0.30525(11)
H46_3 H 0.7524 0.7824 0.2925
H47_3 H 0.7825 0.8341 0.3070
H48_3 H 0.8037 0.7908 0.3054
C28_3 C 0.6748(3) 0.7575(3) 0.31994(12)
H49_5 H 0.6616 0.7473 0.3063
H50_5 H 0.6483 0.7298 0.3290
H51_3 H 0.6787 0.7934 0.3229
C29_5 C 0.7576(3) 0.7768(3) 0.34394(9)
C30_5 C 0.7229(6) 0.7879(3) 0.35896(11)
H52_5 H 0.7417 0.7974 0.3717
H53_5 H 0.7184 0.8185 0.3542
H54_5 H 0.6867 0.7548 0.3603
C31_5 C 0.8179(4) 0.8226(5) 0.34460(15)
H55_5 H 0.8303 0.8303 0.3583
H56_5 H 0.8405 0.8109 0.3373
H57_5 H 0.8215 0.8560 0.3385
N2_5 N 0.75586(19) 0.72415(19) 0.35021(7)
O13_5 O 0.77293(18) 0.72001(16) 0.36783(6)
C32_5 C 0.7335(2) 0.6829(2) 0.33657(8)
C33_5 C 0.7251(3) 0.6257(3) 0.33844(10)
H58_3 H 0.7080 0.6049 0.3264
H59_5 H 0.7608 0.6280 0.3404
H60_5 H 0.7011 0.6071 0.3497
O14_5 O 0.75852(22) 0.62246(15) 0.38925(6)
Mn4_5 Mn 0.85819(4) 0.60808(3) 0.414646(10)
O15_5 O 0.88468(18) 0.66133(13) 0.43574(4)
O16_5 O 0.88517(23) 0.58145(16) 0.36857(5)
O17_5 O 0.93815(20) 0.60722(14) 0.40882(5)
Mn5_5 Mn 0.95677(4) 0.67303(3) 0.453190(11)
Mn6_5 Mn 0.80646(4) 0.63814(3) 0.451818(11)
Mn7_5 Mn 0.62344(4) 0.61707(3) 0.286523(11)
O1_6 O 0.29864(18) 0.24367(25) 0.35409(6)
O2_6 O 0.32153(18) 0.17642(25) 0.35266(6)
C1_6 C 0.3055(3) 0.2071(4) 0.34492(8)
C2_4 C 0.2926(4) 0.2009(5) 0.32244(10)
C3_4 C 0.3542(9) 0.2208(14) 0.31219(19)
H1_4 H 0.3503 0.2177 0.2978
H2_4 H 0.3682 0.1971 0.3169
H3_4 H 0.3800 0.2591 0.3158
C4_4 C 0.2667(10) 0.1440(11) 0.31595(19)
H4_4 H 0.2285 0.1240 0.3206
H5_4 H 0.2868 0.1267 0.3214
H6_4 H 0.2674 0.1428 0.3015
C5_4 C 0.2858(11) 0.2447(13) 0.31458(16)
H7_4 H 0.2514 0.2413 0.3195
H8_4 H 0.2846 0.2426 0.3002
H9_4 H 0.3169 0.2802 0.3187
O3_6 O 0.22015(15) 0.15566(22) 0.44015(5)
C6_6 C 0.2145(2) 0.1723(3) 0.45704(9)
C7_6 C 0.1617(3) 0.1331(4) 0.46880(10)
C8_6 C 0.1364(6) 0.0787(10) 0.4616(2)
H10_6 H 0.1285 0.0783 0.4475
H11_6 H 0.1019 0.0558 0.4687
H12_6 H 0.1611 0.0638 0.4636
C9_6 C 0.1227(5) 0.1544(7) 0.4673(3)
H13_6 H 0.1115 0.1531 0.4536
H14_6 H 0.1408 0.1926 0.4720
H15_6 H 0.0902 0.1318 0.4754
C10_6 C 0.1769(6) 0.1392(12) 0.49128(17)
H16_6 H 0.1441 0.1146 0.4989
H17_6 H 0.1906 0.1774 0.4954
H18_6 H 0.2055 0.1294 0.4934
O5_6 O 0.21966(15) 0.11899(22) 0.37636(5)
O6_6 O 0.21069(14) 0.16881(21) 0.40085(5)
C11_6 C 0.1926(2) 0.1368(3) 0.38565(9)
C12_6 C 0.1342(3) 0.1220(4) 0.37870(11)
C13_6 C 0.1387(7) 0.1709(9) 0.3688(3)
H19_6 H 0.1630 0.1802 0.3573
H20_6 H 0.1538 0.2019 0.3780
H21_6 H 0.1021 0.1629 0.3645
C14_6 C 0.0957(4) 0.1062(8) 0.39759(19)
H22_6 H 0.0922 0.0729 0.4036
H23_6 H 0.0592 0.0995 0.3937
H24_6 H 0.1119 0.1365 0.4071
C15_6 C 0.1097(4) 0.0714(6) 0.3653(2)
H25_6 H 0.1067 0.0398 0.3726
H26_6 H 0.1336 0.0788 0.3538
H27_6 H 0.0730 0.0630 0.3609
O8_6 O 0.26918(14) 0.10840(20) 0.41330(5)
C16_6 C 0.2631(2) 0.0757(3) 0.42779(8)
C17_6 C 0.2227(3) 0.0140(4) 0.42517(9)
C18_6 C 0.1738(3) 0.0049(5) 0.41159(14)
H28_6 H 0.1882 0.0223 0.3988
H29_6 H 0.1538 0.0213 0.4177
H33_6 H 0.1780 0.0006 0.4512
H35_6 H 0.2700 0.0072 0.4026
O11_6 O 0.27641(16) 0.30253(22) 0.39343(5)
C21_6 C 0.2594(2) 0.2952(3) 0.41138(8)
C22_6 C 0.2201(2) 0.3162(3) 0.41774(8)
C23_6 C 0.1807(4) 0.2776(5) 0.43404(13)
H37_6 H 0.2025 0.2764 0.4451
H38_6 H 0.1580 0.2404 0.4287
H39_6 H 0.1569 0.2916 0.4386
C24_4 C 0.2559(3) 0.3749(4) 0.42596(14)
H40_4 H 0.2803 0.3990 0.4156
H41_4 H 0.2780 0.3741 0.4369
H42_4 H 0.2321 0.3890 0.4305
C25_6 C 0.1854(3) 0.3187(4) 0.40005(11)
H43_4 H 0.2103 0.3428 0.3897
H44_4 H 0.1622 0.3335 0.4046
H45_6 H 0.1622 0.2817 0.3947
O12_4 O 0.32481(18) 0.02836(25) 0.30343(6)
N1_4 N 0.29767(19) 0.01813(27) 0.32019(7)
H48_4 H 0.2092 0.0128 0.3054
H56_6 H 0.1891 0.0295 0.3373
N2_6 N 0.27585(19) 0.03170(27) 0.35021(7)
O13_6 O 0.27999(16) 0.05291(24) 0.36783(6)
C32_6 C 0.3171(2) 0.0505(3) 0.33657(8)
C33_6 C 0.3743(3) 0.0993(4) 0.33844(10)
H58_4 H 0.3951 0.1030 0.3264
H59_6 H 0.3720 0.1327 0.3404
H60_6 H 0.3929 0.0939 0.3497
O18_4 O 0.36170(25) 0.37022(31) 0.36323(6)
Mn7_6 Mn 0.38293(3) 0.00636(5) 0.286523(11)
Mn1_6 Mn 0.86021(4) 0.16501(3) 0.381515(11)
Mn2_6 Mn 0.80848(4) 0.08322(3) 0.418687(10)
Mn3_6 Mn 0.70990(4) 0.04959(3) 0.380143(11)
O1_7 O 0.75633(25) 0.05496(18) 0.35409(6)
O2_7 O 0.82358(25) 0.14510(18) 0.35266(6)
C1_7 C 0.7929(4) 0.0983(3) 0.34492(8)
C2_5 C 0.7991(5) 0.0916(3) 0.32244(10)
C3_5 C 0.7792(14) 0.1333(11) 0.31219(19)
H1_5 H 0.7823 0.1325 0.2978
H2_5 H 0.8029 0.1710 0.3169
H3_5 H 0.7409 0.1208 0.3158
C4_5 C 0.8560(11) 0.1226(5) 0.31595(19)
H4_5 H 0.8760 0.1044 0.3206
H5_5 H 0.8733 0.1600 0.3214
H6_5 H 0.8572 0.1245 0.3015
C5_5 C 0.7553(13) 0.0410(6) 0.31458(16)
H7_5 H 0.7587 0.0100 0.3195
H8_5 H 0.7574 0.0419 0.3002
H9_5 H 0.7198 0.0366 0.3187
O3_7 O 0.84434(22) 0.06448(16) 0.44015(5)
O4_6 O 0.78150(23) 0.02961(16) 0.46476(5)
C6_7 C 0.8277(3) 0.0421(2) 0.45704(9)
C7_7 C 0.8669(4) 0.0285(3) 0.46880(10)
C8_7 C 0.9213(10) 0.0576(8) 0.4616(2)
H10_7 H 0.9217 0.0501 0.4475
H11_7 H 0.9442 0.0460 0.4687
H12_7 H 0.9362 0.0972 0.4636
C10_7 C 0.8608(12) 0.0376(10) 0.49128(17)
H16_7 H 0.8854 0.0294 0.4989
H17_7 H 0.8226 0.0131 0.4954
H18_7 H 0.8706 0.0760 0.4934
O5_7 O 0.88101(22) 0.10066(16) 0.37636(5)
O6_7 O 0.83119(21) 0.04187(15) 0.40085(5)
O7_6 O 0.78199(18) 0.10998(13) 0.39759(4)
C11_7 C 0.8632(3) 0.0557(2) 0.38565(9)
C12_7 C 0.8780(4) 0.0121(3) 0.37870(11)
H22_7 H 0.9271 0.0192 0.4036
C15_7 C 0.9286(6) 0.0382(4) 0.3653(2)
H25_7 H 0.9602 0.0668 0.3726
H26_7 H 0.9212 0.0547 0.3538
H27_7 H 0.9370 0.0099 0.3609
O8_7 O 0.89160(20) 0.16077(14) 0.41330(5)
O9_6 O 0.90815(22) 0.19727(16) 0.44408(6)
C16_7 C 0.9243(3) 0.1873(2) 0.42779(8)
C17_7 C 0.9860(4) 0.2086(3) 0.42517(9)
C18_7 C 0.9951(5) 0.1688(4) 0.41159(14)
H28_7 H 0.9777 0.1658 0.3988
H29_7 H 0.9787 0.1324 0.4177
H33_7 H 0.9994 0.1773 0.4512
H35_7 H 0.9928 0.2627 0.4026
O10_6 O 0.72852(20) 0.00240(14) 0.42451(5)
O12_5 O 0.97164(25) 0.29644(17) 0.30343(6)
N1_5 N 0.98187(27) 0.27953(19) 0.32019(7)
H48_5 H 0.9872 0.1963 0.3054
H56_7 H 0.9705 0.1595 0.3373
N2_7 N 0.96830(27) 0.24414(19) 0.35021(7)
O13_7 O 0.94709(24) 0.22707(18) 0.36783(6)
C32_7 C 0.9495(3) 0.2665(2) 0.33657(8)
C33_7 C 0.9007(4) 0.2749(3) 0.33844(10)
H58_5 H 0.8970 0.2920 0.3264
H59_7 H 0.8673 0.2392 0.3404
H60_7 H 0.9061 0.2989 0.3497
O14_6 O 0.86394(27) 0.24148(22) 0.38925(6)
Mn4_6 Mn 0.74989(5) 0.14181(4) 0.414646(10)
O15_6 O 0.77665(22) 0.11532(18) 0.43574(4)
O16_6 O 0.69628(28) 0.11483(23) 0.36857(5)
O17_6 O 0.66907(24) 0.06185(20) 0.40882(5)
Mn5_6 Mn 0.71626(5) 0.04323(4) 0.453190(11)
Mn6_6 Mn 0.83168(5) 0.19354(4) 0.451818(11)
Mn7_7 Mn 0.99364(5) 0.37656(4) 0.286523(11)
C9_7 C 0.8456(7) 0.9682(5) 0.4673(3)
H13_7 H 0.8469 0.9583 0.4536
H14_7 H 0.8074 0.9481 0.4720
H15_7 H 0.8682 0.9583 0.4754
C13_7 C 0.8291(9) 0.9677(6) 0.3688(3)
H19_7 H 0.8198 0.9827 0.3573
H20_7 H 0.7981 0.9518 0.3780
H21_7 H 0.8371 0.9391 0.3645
C14_7 C 0.8938(8) 0.9894(7) 0.39759(19)
H23_7 H 0.9005 0.9596 0.3937
H24_7 H 0.8635 0.9753 0.4071
O11_7 O 0.69747(22) 0.97387(15) 0.39343(5)
C21_7 C 0.7048(3) 0.9641(2) 0.41138(8)
C22_7 C 0.6838(3) 0.9038(2) 0.41774(8)
C23_7 C 0.7224(5) 0.9030(3) 0.43404(13)
H37_7 H 0.7236 0.9260 0.4451
H38_7 H 0.7596 0.9175 0.4287
H39_7 H 0.7084 0.8652 0.4386
C24_5 C 0.6251(4) 0.8809(3) 0.42596(14)
H40_5 H 0.6010 0.8812 0.4156
H41_5 H 0.6259 0.9038 0.4369
H42_5 H 0.6110 0.8430 0.4305
C25_7 C 0.6813(4) 0.8666(3) 0.40005(11)
H43_5 H 0.6572 0.8674 0.3897
H44_5 H 0.6665 0.8286 0.4046
H45_7 H 0.7183 0.8804 0.3947
O18_5 O 0.62978(31) 0.99147(18) 0.36323(6)
Mn1_7 Mn 0.02853(3) 0.50165(3) 0.785151(11)
Mn2_7 Mn 0.05859(3) 0.58344(3) 0.747979(10)
O1_8 O 0.03470(18) 0.61170(18) 0.81257(6)
O2_8 O 0.01181(18) 0.52156(18) 0.81400(6)
C1_8 C 0.0279(3) 0.5683(3) 0.82174(8)
C2_6 C 0.0408(4) 0.5750(3) 0.84422(10)
C4_6 C 0.0667(10) 0.5440(5) 0.85071(19)
H4_6 H 0.1049 0.5622 0.8460
H5_6 H 0.0466 0.5066 0.8452
H6_6 H 0.0660 0.5421 0.8651
C5_6 C 0.0476(11) 0.6256(6) 0.85208(16)
H7_6 H 0.0820 0.6566 0.8471
H8_6 H 0.0488 0.6247 0.8664
H9_6 H 0.0165 0.6300 0.8479
O3_8 O 0.11319(15) 0.60218(16) 0.72651(5)
O4_7 O 0.08522(16) 0.63705(16) 0.70190(5)
C6_8 C 0.1189(2) 0.6245(2) 0.70962(9)
C7_8 C 0.1717(3) 0.6381(3) 0.69786(10)
C8_8 C 0.1970(6) 0.6090(8) 0.7050(2)
H10_8 H 0.2049 0.6165 0.7191
H11_8 H 0.2315 0.6206 0.6979
H12_8 H 0.1723 0.5694 0.7030
C9_8 C 0.2107(5) 0.6984(5) 0.6993(3)
H13_8 H 0.2219 0.7083 0.7130
H14_8 H 0.1926 0.7185 0.6946
H15_8 H 0.2432 0.7083 0.6912
C10_8 C 0.1565(6) 0.6290(10) 0.67538(17)
H16_8 H 0.1893 0.6372 0.6677
H17_8 H 0.1428 0.6535 0.6712
H18_8 H 0.1279 0.5906 0.6732
O5_8 O 0.11368(15) 0.56600(16) 0.79030(5)
O6_8 O 0.12265(14) 0.62479(15) 0.76581(5)
O7_7 O 0.00534(13) 0.55668(13) 0.76907(4)
C11_8 C 0.1408(2) 0.6109(2) 0.78101(9)
C12_8 C 0.1992(3) 0.6545(3) 0.78796(11)
C13_8 C 0.1947(7) 0.6989(6) 0.7978(3)
H19_8 H 0.1704 0.6839 0.8093
H20_8 H 0.1796 0.7148 0.7886
H21_8 H 0.2313 0.7275 0.8021
C14_8 C 0.2377(4) 0.6772(7) 0.76907(19)
H22_8 H 0.2412 0.6474 0.7630
H23_8 H 0.2742 0.7070 0.7729
H24_8 H 0.2215 0.6913 0.7595
C15_8 C 0.2237(4) 0.6284(4) 0.8013(2)
H25_8 H 0.2267 0.5998 0.7940
H26_8 H 0.1998 0.6119 0.8128
H27_8 H 0.2604 0.6567 0.8057
O8_8 O 0.06416(14) 0.50589(14) 0.75336(5)
O9_7 O 0.04421(15) 0.46939(16) 0.72258(6)
C16_8 C 0.0703(2) 0.4793(2) 0.73887(8)
C17_8 C 0.1107(3) 0.4580(3) 0.74149(9)
C18_8 C 0.1596(3) 0.4978(4) 0.75507(14)
H28_8 H 0.1452 0.5008 0.7678
H29_8 H 0.1796 0.5342 0.7489
H30_6 H 0.1846 0.4832 0.7569
C19_6 C 0.1344(4) 0.4529(5) 0.72145(11)
H31_6 H 0.1041 0.4284 0.7127
H32_6 H 0.1587 0.4376 0.7236
H33_8 H 0.1554 0.4893 0.7154
C20_6 C 0.0779(4) 0.4003(4) 0.75135(16)
H34_6 H 0.0473 0.3756 0.7428
H35_8 H 0.0634 0.4039 0.7640
H36_6 H 0.1023 0.3852 0.7534
O10_7 O 0.05945(14) 0.66426(14) 0.74215(5)
O11_8 O 0.05693(16) 0.69279(15) 0.77323(5)
C21_8 C 0.0740(2) 0.7025(2) 0.75528(8)
C22_8 C 0.1133(2) 0.7628(2) 0.74892(8)
C23_8 C 0.1527(4) 0.7636(3) 0.73262(13)
H37_8 H 0.1309 0.7406 0.7215
H38_8 H 0.1754 0.7491 0.7379
H39_8 H 0.1765 0.8014 0.7280
C24_6 C 0.0775(3) 0.7857(3) 0.74070(14)
H40_6 H 0.0531 0.7854 0.7510
H41_6 H 0.0554 0.7628 0.7297
H42_6 H 0.1013 0.8236 0.7361
C25_8 C 0.1480(3) 0.8000(3) 0.76661(11)
H43_6 H 0.1231 0.7992 0.7769
H44_6 H 0.1712 0.8380 0.7620
H45_8 H 0.1712 0.7862 0.7719
O12_6 O 0.00853(18) 0.37022(17) 0.86323(6)
N1_6 N 0.03567(19) 0.38713(19) 0.84647(7)
C26_4 C 0.0941(2) 0.3979(3) 0.84452(9)
C27_4 C 0.1286(4) 0.4378(3) 0.86141(11)
H46_4 H 0.1158 0.4190 0.8741
H47_4 H 0.1675 0.4491 0.8596
H48_6 H 0.1242 0.4703 0.8612
C28_4 C 0.0909(3) 0.3414(3) 0.84672(12)
H49_6 H 0.0807 0.3282 0.8603
H50_6 H 0.0632 0.3149 0.8376
H51_4 H 0.1268 0.3453 0.8437
C29_6 C 0.1102(3) 0.4242(3) 0.82272(9)
C30_6 C 0.1213(3) 0.3895(6) 0.80770(11)
H52_6 H 0.1308 0.4083 0.7949
H53_6 H 0.1519 0.3850 0.8124
H54_6 H 0.0882 0.3533 0.8063
C31_6 C 0.1560(5) 0.4845(4) 0.82206(15)
H55_6 H 0.1637 0.4969 0.8083
H56_8 H 0.1443 0.5071 0.8293
H57_6 H 0.1894 0.4881 0.8281
N2_8 N 0.05749(19) 0.42252(19) 0.81645(7)
O13_8 O 0.05335(16) 0.43959(18) 0.79883(6)
C32_8 C 0.0163(2) 0.4001(2) 0.83009(8)
Mn5_7 Mn 0.00636(3) 0.62344(4) 0.713477(11)
Mn3_7 Mn 0.99364(3) 0.61707(3) 0.786523(11)
C3_6 C 0.9792(9) 0.5333(11) 0.85447(19)
H1_6 H 0.9831 0.5341 0.8688
H2_6 H 0.9652 0.4956 0.8497
H3_6 H 0.9534 0.5458 0.8508
C33_8 C 0.9591(3) 0.3917(3) 0.82822(10)
H58_6 H 0.9383 0.3746 0.8402
H59_8 H 0.9614 0.4274 0.8262
H60_8 H 0.9405 0.3677 0.8169
O14_7 O 0.95579(15) 0.42519(22) 0.77742(6)
Mn4_7 Mn 0.94141(3) 0.52486(4) 0.752021(10)
O15_7 O 0.99466(13) 0.55135(18) 0.73093(4)
O16_7 O 0.91478(16) 0.55184(23) 0.79810(5)
O17_7 O 0.94055(14) 0.60482(20) 0.75785(5)
O18_6 O 0.97164(25) 0.67519(18) 0.80343(6)
Mn6_7 Mn 0.97147(3) 0.47313(4) 0.714849(11)
Mn7_8 Mn 0.95041(3) 0.29010(4) 0.880143(11)
Mn1_8 Mn 0.50165(3) 0.02853(3) 0.714849(11)
Mn2_8 Mn 0.58344(3) 0.05859(3) 0.752021(10)
O1_9 O 0.61170(18) 0.03470(18) 0.68743(6)
O2_9 O 0.52156(18) 0.01181(18) 0.68600(6)
C1_9 C 0.5683(3) 0.0279(3) 0.67826(8)
C2_7 C 0.5750(3) 0.0408(4) 0.65578(10)
C4_7 C 0.5440(5) 0.0667(10) 0.64929(19)
H4_7 H 0.5622 0.1049 0.6540
H5_7 H 0.5066 0.0466 0.6548
H6_7 H 0.5421 0.0660 0.6349
C5_7 C 0.6256(6) 0.0476(11) 0.64792(16)
H7_7 H 0.6566 0.0820 0.6529
H8_7 H 0.6247 0.0488 0.6336
H9_7 H 0.6300 0.0165 0.6521
O3_9 O 0.60218(16) 0.11319(15) 0.77349(5)
O4_8 O 0.63705(16) 0.08522(16) 0.79810(5)
C6_9 C 0.6245(2) 0.1189(2) 0.79038(9)
C7_9 C 0.6381(3) 0.1717(3) 0.80214(10)
C8_9 C 0.6090(8) 0.1970(6) 0.7950(2)
H10_9 H 0.6165 0.2049 0.7809
H11_9 H 0.6206 0.2315 0.8021
H12_9 H 0.5694 0.1723 0.7970
C9_9 C 0.6984(5) 0.2107(5) 0.8007(3)
H13_9 H 0.7083 0.2219 0.7870
H14_9 H 0.7185 0.1926 0.8054
H15_9 H 0.7083 0.2432 0.8088
C10_9 C 0.6290(10) 0.1565(6) 0.82462(17)
H16_9 H 0.6372 0.1893 0.8323
H17_9 H 0.6535 0.1428 0.8288
H18_9 H 0.5906 0.1279 0.8268
O5_9 O 0.56600(16) 0.11368(15) 0.70970(5)
O6_9 O 0.62479(15) 0.12265(14) 0.73419(5)
O7_8 O 0.55668(13) 0.00534(13) 0.73093(4)
C11_9 C 0.6109(2) 0.1408(2) 0.71899(9)
C12_9 C 0.6545(3) 0.1992(3) 0.71204(11)
C13_9 C 0.6989(6) 0.1947(7) 0.7022(3)
H19_9 H 0.6839 0.1704 0.6907
H20_9 H 0.7148 0.1796 0.7114
H21_9 H 0.7275 0.2313 0.6979
C14_9 C 0.6772(7) 0.2377(4) 0.73093(19)
H22_9 H 0.6474 0.2412 0.7370
H23_9 H 0.7070 0.2742 0.7271
H24_9 H 0.6913 0.2215 0.7405
C15_9 C 0.6284(4) 0.2237(4) 0.6987(2)
H25_9 H 0.5998 0.2267 0.7060
H26_9 H 0.6119 0.1998 0.6872
H27_9 H 0.6567 0.2604 0.6943
O8_9 O 0.50589(14) 0.06416(14) 0.74664(5)
O9_8 O 0.46939(16) 0.04421(15) 0.77742(6)
C16_9 C 0.4793(2) 0.0703(2) 0.76113(8)
C17_9 C 0.4580(3) 0.1107(3) 0.75851(9)
C18_9 C 0.4978(4) 0.1596(3) 0.74493(14)
H28_9 H 0.5008 0.1452 0.7322
H29_9 H 0.5342 0.1796 0.7511
H30_7 H 0.4832 0.1846 0.7431
C19_7 C 0.4529(5) 0.1344(4) 0.77855(11)
H31_7 H 0.4284 0.1041 0.7873
H32_7 H 0.4376 0.1587 0.7764
H33_9 H 0.4893 0.1554 0.7846
C20_7 C 0.4003(4) 0.0779(4) 0.74865(16)
H34_7 H 0.3756 0.0473 0.7572
H35_9 H 0.4039 0.0634 0.7360
H36_7 H 0.3852 0.1023 0.7466
O10_8 O 0.66426(14) 0.05945(14) 0.75785(5)
O11_9 O 0.69279(15) 0.05693(16) 0.72677(5)
C21_9 C 0.7025(2) 0.0740(2) 0.74472(8)
C22_9 C 0.7628(2) 0.1133(2) 0.75108(8)
C23_9 C 0.7636(3) 0.1527(4) 0.76738(13)
H37_9 H 0.7406 0.1309 0.7785
H38_9 H 0.7491 0.1754 0.7621
H39_9 H 0.8014 0.1765 0.7720
C24_7 C 0.7857(3) 0.0775(3) 0.75930(14)
H40_7 H 0.7854 0.0531 0.7490
H41_7 H 0.7628 0.0554 0.7703
H42_7 H 0.8236 0.1013 0.7639
C25_9 C 0.8000(3) 0.1480(3) 0.73339(11)
H43_7 H 0.7992 0.1231 0.7231
H44_7 H 0.8380 0.1712 0.7380
H45_9 H 0.7862 0.1712 0.7281
O12_7 O 0.37022(17) 0.00853(18) 0.63677(6)
N1_7 N 0.38713(19) 0.03567(19) 0.65353(7)
C26_5 C 0.3979(3) 0.0941(2) 0.65548(9)
C27_5 C 0.4378(3) 0.1286(4) 0.63859(11)
H46_5 H 0.4190 0.1158 0.6259
H47_5 H 0.4491 0.1675 0.6404
H48_7 H 0.4703 0.1242 0.6388
C28_5 C 0.3414(3) 0.0909(3) 0.65328(12)
H49_7 H 0.3282 0.0807 0.6397
H50_7 H 0.3149 0.0632 0.6624
H51_5 H 0.3453 0.1268 0.6563
C29_7 C 0.4242(3) 0.1102(3) 0.67728(9)
C30_7 C 0.3895(6) 0.1213(3) 0.69230(11)
H52_7 H 0.4083 0.1308 0.7051
H53_7 H 0.3850 0.1519 0.6876
H54_7 H 0.3533 0.0882 0.6937
C31_7 C 0.4845(4) 0.1560(5) 0.67794(15)
H55_7 H 0.4969 0.1637 0.6917
H56_9 H 0.5071 0.1443 0.6707
H57_7 H 0.4881 0.1894 0.6719
N2_9 N 0.42252(19) 0.05749(19) 0.68355(7)
O13_9 O 0.43959(18) 0.05335(16) 0.70117(6)
C32_9 C 0.4001(2) 0.0163(2) 0.66991(8)
Mn5_8 Mn 0.62344(4) 0.00636(3) 0.786523(11)
Mn3_8 Mn 0.61707(3) 0.99364(3) 0.713477(11)
C3_7 C 0.5333(11) 0.9792(9) 0.64553(19)
H1_7 H 0.5341 0.9831 0.6312
H2_7 H 0.4956 0.9652 0.6503
H3_7 H 0.5458 0.9534 0.6492
C33_9 C 0.3917(3) 0.9591(3) 0.67178(10)
H58_7 H 0.3746 0.9383 0.6598
H59_9 H 0.4274 0.9614 0.6738
H60_9 H 0.3677 0.9405 0.6831
O14_8 O 0.42519(22) 0.95579(15) 0.72258(6)
Mn4_8 Mn 0.52486(4) 0.94141(3) 0.747979(10)
O15_8 O 0.55135(18) 0.99466(13) 0.76907(4)
O16_8 O 0.55184(23) 0.91478(16) 0.70190(5)
O17_8 O 0.60482(20) 0.94055(14) 0.74215(5)
O18_7 O 0.67519(18) 0.97164(25) 0.69657(6)
Mn6_8 Mn 0.47313(4) 0.97147(3) 0.785151(11)
Mn7_9 Mn 0.29010(4) 0.95041(3) 0.619857(11)
C9_10 C 0.8773(5) 0.0318(5) 0.0327(3)
H13_10 H 0.8885 0.0417 0.0464
H14_10 H 0.8592 0.0519 0.0280
H15_10 H 0.9098 0.0417 0.0246
C13_10 C 0.8613(7) 0.0323(6) 0.1312(3)
H19_10 H 0.8370 0.0173 0.1427
H20_10 H 0.8462 0.0482 0.1220
H21_10 H 0.8979 0.0609 0.1355
C14_10 C 0.9043(4) 0.0106(7) 0.10241(19)
H23_10 H 0.9408 0.0404 0.1063
H24_10 H 0.8881 0.0247 0.0929
O11_10 O 0.72359(16) 0.02613(15) 0.10657(5)
C21_10 C 0.7406(2) 0.0359(2) 0.08862(8)
C22_10 C 0.7799(2) 0.0962(2) 0.08226(8)
C23_10 C 0.8193(4) 0.0970(3) 0.06596(13)
H37_10 H 0.7975 0.0740 0.0549
H38_10 H 0.8420 0.0825 0.0713
H39_10 H 0.8431 0.1348 0.0614
C24_8 C 0.7441(3) 0.1191(3) 0.07404(14)
H40_8 H 0.7197 0.1188 0.0844
H41_8 H 0.7220 0.0962 0.0631
H42_8 H 0.7679 0.1570 0.0695
C25_10 C 0.8146(3) 0.1334(3) 0.09995(11)
H43_8 H 0.7897 0.1326 0.1103
H44_8 H 0.8378 0.1714 0.0954
H45_10 H 0.8378 0.1196 0.1053
O18_8 O 0.63830(25) 0.00853(18) 0.13677(6)
O1_10 O 0.70136(18) 0.94504(18) 0.14591(6)
O2_10 O 0.67847(18) 0.85490(18) 0.14734(6)
C1_10 C 0.6945(3) 0.9017(3) 0.15508(8)
C2_8 C 0.7074(4) 0.9084(3) 0.17756(10)
C3_8 C 0.6458(9) 0.8667(11) 0.18781(19)
H1_8 H 0.6497 0.8675 0.2022
H2_8 H 0.6318 0.8290 0.1831
H3_8 H 0.6200 0.8792 0.1842
C4_8 C 0.7333(10) 0.8774(5) 0.18405(19)
H4_8 H 0.7715 0.8956 0.1794
H5_8 H 0.7132 0.8400 0.1786
H6_8 H 0.7326 0.8755 0.1985
C5_8 C 0.7142(11) 0.9590(6) 0.18542(16)
H7_8 H 0.7486 0.9900 0.1805
H8_8 H 0.7154 0.9581 0.1998
H9_8 H 0.6831 0.9634 0.1813
O3_10 O 0.77985(15) 0.93552(16) 0.05985(5)
C6_10 C 0.7855(2) 0.9579(2) 0.04296(9)
C7_10 C 0.8383(3) 0.9715(3) 0.03120(10)
C8_10 C 0.8636(6) 0.9424(8) 0.0384(2)
H10_10 H 0.8715 0.9499 0.0525
H11_10 H 0.8981 0.9540 0.0313
H12_10 H 0.8389 0.9028 0.0364
C10_10 C 0.8231(6) 0.9624(10) 0.00872(17)
H16_10 H 0.8559 0.9706 0.0011
H17_10 H 0.8094 0.9869 0.0046
H18_10 H 0.7945 0.9240 0.0066
O5_10 O 0.78034(15) 0.89934(16) 0.12364(5)
O6_10 O 0.78931(14) 0.95813(15) 0.09915(5)
C11_10 C 0.8074(2) 0.9443(2) 0.11435(9)
C12_10 C 0.8658(3) 0.9879(3) 0.12130(11)
H22_10 H 0.9078 0.9808 0.0964
C15_10 C 0.8903(4) 0.9618(4) 0.1347(2)
H25_10 H 0.8933 0.9332 0.1274
H26_10 H 0.8664 0.9453 0.1462
H27_10 H 0.9270 0.9901 0.1391
O8_10 O 0.73082(14) 0.83923(14) 0.08670(5)
C16_10 C 0.7369(2) 0.8127(2) 0.07221(8)
C17_10 C 0.7773(3) 0.7914(3) 0.07483(9)
C18_10 C 0.8262(3) 0.8312(4) 0.08841(14)
H28_10 H 0.8118 0.8342 0.1012
H29_10 H 0.8462 0.8676 0.0823
H30_8 H 0.8512 0.8166 0.0903
C19_8 C 0.8010(4) 0.7863(5) 0.05479(11)
H31_8 H 0.7707 0.7618 0.0461
H32_8 H 0.8253 0.7710 0.0570
H33_10 H 0.8220 0.8227 0.0488
C20_8 C 0.7445(4) 0.7337(4) 0.08469(16)
H34_8 H 0.7139 0.7090 0.0762
H35_10 H 0.7300 0.7373 0.0974
H36_8 H 0.7689 0.7186 0.0868
O12_8 O 0.67519(18) 0.70356(17) 0.19657(6)
N1_8 N 0.70233(19) 0.72047(19) 0.17981(7)
C26_6 C 0.7607(2) 0.7313(3) 0.17786(9)
C27_6 C 0.7952(4) 0.7712(3) 0.19475(11)
H46_6 H 0.7824 0.7524 0.2075
H47_6 H 0.8341 0.7825 0.1930
H48_8 H 0.7908 0.8037 0.1946
C28_6 C 0.7575(3) 0.6748(3) 0.18006(12)
H49_8 H 0.7473 0.6616 0.1937
H50_8 H 0.7298 0.6483 0.1710
H51_6 H 0.7934 0.6787 0.1771
C29_8 C 0.7768(3) 0.7576(3) 0.15606(9)
C30_8 C 0.7879(3) 0.7229(6) 0.14104(11)
H52_8 H 0.7974 0.7417 0.1283
H53_8 H 0.8185 0.7184 0.1458
H54_8 H 0.7548 0.6867 0.1397
C31_8 C 0.8226(5) 0.8179(4) 0.15540(15)
H55_8 H 0.8303 0.8303 0.1417
H56_10 H 0.8109 0.8405 0.1627
H57_8 H 0.8560 0.8215 0.1615
N2_10 N 0.72415(19) 0.75586(19) 0.14979(7)
O13_10 O 0.72001(16) 0.77293(18) 0.13217(6)
C32_10 C 0.6829(2) 0.7335(2) 0.16343(8)
C33_10 C 0.6257(3) 0.7251(3) 0.16156(10)
H58_8 H 0.6049 0.7080 0.1736
H59_10 H 0.6280 0.7608 0.1596
H60_10 H 0.6071 0.7011 0.1503
Mn7_10 Mn 0.61707(3) 0.62344(4) 0.213477(11)
C24_9 C 0.0416(4) 0.5892(3) 0.40737(14)
H40_9 H 0.0657 0.6136 0.4177
H41_9 H 0.0408 0.6113 0.3964
H42_9 H 0.0557 0.5654 0.4028
H43_9 H 0.0095 0.5436 0.4436
H44_9 H 0.0002 0.4955 0.4287
O18_9 O 0.03689(31) 0.69503(25) 0.47010(6)
O1_11 O 0.91034(25) 0.63197(18) 0.47924(6)
O2_11 O 0.84309(25) 0.65486(18) 0.48067(6)
C1_11 C 0.8738(4) 0.6388(3) 0.48841(8)
C2_9 C 0.8676(5) 0.6259(4) 0.51089(10)
C3_9 C 0.8875(14) 0.6875(9) 0.52114(19)
H1_9 H 0.8844 0.6836 0.5355
H2_9 H 0.8638 0.7015 0.5164
H3_9 H 0.9258 0.7133 0.5175
C4_9 C 0.8107(11) 0.6000(10) 0.51738(19)
H4_9 H 0.7907 0.5618 0.5127
H5_9 H 0.7934 0.6201 0.5119
H6_9 H 0.8095 0.6007 0.5318
C5_9 C 0.9114(13) 0.6191(11) 0.51875(16)
H7_9 H 0.9080 0.5847 0.5138
H8_9 H 0.9093 0.6179 0.5331
H9_9 H 0.9469 0.6502 0.5146
O3_11 O 0.82233(22) 0.55348(15) 0.39318(5)
C6_11 C 0.8390(3) 0.5478(2) 0.37629(9)
C7_11 C 0.7998(4) 0.4950(3) 0.36453(10)
C8_11 C 0.7454(10) 0.4697(6) 0.3717(2)
H10_11 H 0.7450 0.4618 0.3858
H11_11 H 0.7225 0.4352 0.3646
H12_11 H 0.7305 0.4944 0.3697
C9_11 C 0.8211(7) 0.4560(5) 0.3660(3)
H13_11 H 0.8198 0.4448 0.3797
H14_11 H 0.8593 0.4741 0.3613
H15_11 H 0.7985 0.4235 0.3579
C10_11 C 0.8059(12) 0.5102(6) 0.34205(17)
H16_11 H 0.7813 0.4774 0.3344
H17_11 H 0.8441 0.5239 0.3379
H18_11 H 0.7961 0.5388 0.3399
O5_11 O 0.78566(22) 0.55299(15) 0.45697(5)
O6_11 O 0.83548(21) 0.54402(14) 0.43248(5)
C11_11 C 0.8035(3) 0.5259(2) 0.44768(9)
C12_11 C 0.7887(4) 0.4675(3) 0.45463(11)
C13_11 C 0.8376(9) 0.4720(7) 0.4645(3)
H19_11 H 0.8469 0.4963 0.4760
H20_11 H 0.8686 0.4871 0.4553
H21_11 H 0.8296 0.4354 0.4688
C14_11 C 0.7729(8) 0.4290(4) 0.43574(19)
H22_11 H 0.7396 0.4255 0.4297
H23_11 H 0.7662 0.3925 0.4396
H24_11 H 0.8032 0.4452 0.4262
C15_11 C 0.7381(6) 0.4430(4) 0.4680(2)
H25_11 H 0.7065 0.4400 0.4607
H26_11 H 0.7455 0.4669 0.4795
H27_11 H 0.7297 0.4063 0.4724
O8_11 O 0.77507(20) 0.60251(14) 0.42003(5)
C16_11 C 0.7424(3) 0.5964(2) 0.40554(8)
C17_11 C 0.6807(4) 0.5560(3) 0.40816(9)
C18_11 C 0.6716(5) 0.5071(3) 0.42174(14)
H28_11 H 0.6890 0.5215 0.4345
H29_11 H 0.6880 0.4871 0.4156
H30_9 H 0.6320 0.4821 0.4236
C19_9 C 0.6519(6) 0.5323(4) 0.38812(11)
H31_9 H 0.6577 0.5626 0.3794
H32_9 H 0.6123 0.5080 0.3903
H33_11 H 0.6673 0.5113 0.3821
C20_9 C 0.6558(6) 0.5888(4) 0.41802(16)
H34_9 H 0.6617 0.6194 0.4095
H35_11 H 0.6739 0.6033 0.4307
H36_9 H 0.6163 0.5644 0.4201
O11_11 O 0.96920(22) 0.60974(16) 0.43990(5)
C21_11 C 0.9619(3) 0.5927(2) 0.42195(8)
C22_11 C 0.9829(3) 0.5534(2) 0.41559(8)
C23_11 C 0.9443(5) 0.5140(4) 0.39929(13)
H37_11 H 0.9431 0.5358 0.3882
H38_11 H 0.9071 0.4913 0.4046
H39_11 H 0.9583 0.4902 0.3947
C25_11 C 0.9854(4) 0.5187(3) 0.43328(11)
H45_11 H 0.9484 0.4955 0.4386
O12_9 O 0.69503(25) 0.65814(18) 0.52990(6)
N1_9 N 0.68480(27) 0.63100(19) 0.51314(7)
C26_7 C 0.6372(4) 0.5726(2) 0.51119(9)
C27_7 C 0.6426(5) 0.5381(4) 0.52808(11)
H46_7 H 0.6366 0.5509 0.5408
H47_7 H 0.6150 0.4992 0.5263
H48_9 H 0.6795 0.5425 0.5279
C28_7 C 0.5839(4) 0.5758(3) 0.51339(12)
H49_9 H 0.5809 0.5860 0.5270
H50_9 H 0.5851 0.6035 0.5043
H51_7 H 0.5519 0.5399 0.5104
C29_9 C 0.6474(4) 0.5565(3) 0.48939(9)
C30_9 C 0.6016(7) 0.5454(3) 0.47437(11)
H52_9 H 0.6109 0.5359 0.4616
H53_9 H 0.5665 0.5148 0.4791
H54_9 H 0.5985 0.5785 0.4730
C31_9 C 0.6619(6) 0.5107(5) 0.48873(15)
H55_9 H 0.6666 0.5030 0.4750
H56_11 H 0.6962 0.5224 0.4960
H57_9 H 0.6321 0.4773 0.4948
N2_11 N 0.69837(27) 0.60918(19) 0.48312(7)
O13_11 O 0.71958(24) 0.61332(16) 0.46550(6)
C32_11 C 0.7172(3) 0.6504(2) 0.49676(8)
C33_11 C 0.7660(4) 0.7076(3) 0.49489(10)
H58_9 H 0.7697 0.7284 0.5069
H59_11 H 0.7994 0.7053 0.4929
H60_11 H 0.7606 0.7262 0.4836
Mn7_11 Mn 0.67303(5) 0.71626(3) 0.546810(11)
H49_10 H 0.0051 0.4191 0.5270
H50_10 H 0.0184 0.4149 0.5043
Mn7_12 Mn 0.04323(4) 0.32697(5) 0.546810(11)
O1_12 O 0.72163(18) 0.08966(25) 0.47924(6)
O2_12 O 0.81177(18) 0.15691(25) 0.48067(6)
C1_12 C 0.7650(3) 0.1262(4) 0.48841(8)
C2_10 C 0.7583(3) 0.1324(5) 0.51089(10)
C3_10 C 0.8000(11) 0.1125(14) 0.52114(19)
H1_10 H 0.7992 0.1156 0.5355
H2_10 H 0.8377 0.1362 0.5164
H3_10 H 0.7875 0.0742 0.5175
C4_10 C 0.7893(5) 0.1893(11) 0.51738(19)
H4_10 H 0.7711 0.2093 0.5127
H5_10 H 0.8267 0.2066 0.5119
H6_10 H 0.7912 0.1905 0.5318
C5_10 C 0.7077(6) 0.0886(13) 0.51875(16)
H7_10 H 0.6767 0.0920 0.5138
H8_10 H 0.7086 0.0907 0.5331
H9_10 H 0.7033 0.0531 0.5146
O3_12 O 0.73115(16) 0.17767(22) 0.39318(5)
C6_12 C 0.7088(2) 0.1610(3) 0.37629(9)
C7_12 C 0.6952(3) 0.2002(4) 0.36453(10)
C8_12 C 0.7243(8) 0.2546(10) 0.3717(2)
H10_12 H 0.7168 0.2550 0.3858
H11_12 H 0.7127 0.2775 0.3646
H12_12 H 0.7639 0.2695 0.3697
C9_12 C 0.6349(5) 0.1789(7) 0.3660(3)
H13_12 H 0.6250 0.1802 0.3797
H14_12 H 0.6148 0.1407 0.3613
H15_12 H 0.6250 0.2015 0.3579
C10_12 C 0.7043(10) 0.1941(12) 0.34205(17)
H16_12 H 0.6961 0.2187 0.3344
H17_12 H 0.6798 0.1559 0.3379
H18_12 H 0.7427 0.2039 0.3399
O5_12 O 0.76733(16) 0.21434(22) 0.45697(5)
O6_12 O 0.70854(15) 0.16452(21) 0.43248(5)
C11_12 C 0.7224(2) 0.1965(3) 0.44768(9)
C12_12 C 0.6788(3) 0.2113(4) 0.45463(11)
C13_12 C 0.6344(6) 0.1624(9) 0.4645(3)
H19_12 H 0.6494 0.1531 0.4760
H20_12 H 0.6185 0.1314 0.4553
H21_12 H 0.6058 0.1704 0.4688
C14_12 C 0.6561(7) 0.2271(8) 0.43574(19)
H22_12 H 0.6859 0.2604 0.4297
H23_12 H 0.6263 0.2338 0.4396
H24_12 H 0.6420 0.1968 0.4262
C15_12 C 0.7049(4) 0.2619(6) 0.4680(2)
H25_12 H 0.7335 0.2935 0.4607
H26_12 H 0.7214 0.2545 0.4795
H27_12 H 0.6766 0.2703 0.4724
O8_12 O 0.82744(14) 0.22493(20) 0.42003(5)
C16_12 C 0.8540(2) 0.2576(3) 0.40554(8)
C17_12 C 0.8753(3) 0.3193(4) 0.40816(9)
C18_12 C 0.8355(4) 0.3284(5) 0.42174(14)
H28_12 H 0.8325 0.3110 0.4345
H29_12 H 0.7991 0.3120 0.4156
H30_10 H 0.8501 0.3680 0.4236
C19_10 C 0.8804(5) 0.3481(6) 0.38812(11)
H31_10 H 0.9049 0.3423 0.3794
H32_10 H 0.8957 0.3877 0.3903
H33_12 H 0.8440 0.3327 0.3821
C20_10 C 0.9330(4) 0.3442(6) 0.41802(16)
H34_10 H 0.9577 0.3383 0.4095
H35_12 H 0.9294 0.3261 0.4307
H36_10 H 0.9481 0.3837 0.4201
O11_12 O 0.64054(15) 0.03080(22) 0.43990(5)
C21_12 C 0.6308(2) 0.0381(3) 0.42195(8)
C22_12 C 0.5705(2) 0.0171(3) 0.41559(8)
C23_12 C 0.5697(3) 0.0557(5) 0.39929(13)
H37_12 H 0.5927 0.0569 0.3882
H38_12 H 0.5842 0.0929 0.4046
H39_12 H 0.5319 0.0417 0.3947
C25_12 C 0.5333(3) 0.0146(4) 0.43328(11)
H45_12 H 0.5471 0.0516 0.4386
O12_10 O 0.96311(17) 0.30497(25) 0.52990(6)
N1_10 N 0.94620(19) 0.31520(27) 0.51314(7)
C26_8 C 0.9354(3) 0.3628(4) 0.51119(9)
C27_8 C 0.8955(3) 0.3574(5) 0.52808(11)
H46_8 H 0.9143 0.3634 0.5408
H47_8 H 0.8842 0.3850 0.5263
H48_10 H 0.8630 0.3205 0.5279
C28_8 C 0.9919(3) 0.4161(4) 0.51339(12)
H51_8 H 0.9880 0.4481 0.5104
C29_10 C 0.9091(3) 0.3526(4) 0.48939(9)
C30_10 C 0.9438(6) 0.3984(7) 0.47437(11)
H52_10 H 0.9250 0.3891 0.4616
H53_10 H 0.9483 0.4335 0.4791
H54_10 H 0.9800 0.4015 0.4730
C31_10 C 0.8488(4) 0.3381(6) 0.48873(15)
H55_10 H 0.8364 0.3334 0.4750
H56_12 H 0.8262 0.3038 0.4960
H57_10 H 0.8452 0.3679 0.4948
N2_12 N 0.91081(19) 0.30163(27) 0.48312(7)
O13_12 O 0.89374(18) 0.28042(24) 0.46550(6)
C32_12 C 0.9332(2) 0.2828(3) 0.49676(8)
C33_12 C 0.9416(3) 0.2340(4) 0.49489(10)
H58_10 H 0.9587 0.2303 0.5069
H59_12 H 0.9059 0.2006 0.4929
H60_12 H 0.9656 0.2394 0.4836
C24_10 C 0.5476(3) 0.9584(4) 0.40737(14)
H40_10 H 0.5479 0.9343 0.4177
H41_10 H 0.5705 0.9592 0.3964
H42_10 H 0.5097 0.9443 0.4028
H43_10 H 0.5341 0.9905 0.4436
H44_10 H 0.4953 0.9998 0.4287
O18_10 O 0.65814(18) 0.96311(31) 0.47010(6)
C3_11 C 0.0208(9) 0.5542(14) 0.64553(19)
H1_11 H 0.0169 0.5511 0.6312
H2_11 H 0.0348 0.5305 0.6503
H3_11 H 0.0466 0.5925 0.6492
C33_13 C 0.0409(3) 0.4327(4) 0.67178(10)
H58_11 H 0.0617 0.4364 0.6598
H59_13 H 0.0386 0.4661 0.6738
H60_13 H 0.0595 0.4273 0.6831
O18_11 O 0.02836(25) 0.70356(31) 0.69657(6)
Mn7_13 Mn 0.04959(3) 0.33970(5) 0.619857(11)
O1_13 O 0.96530(18) 0.57701(25) 0.68743(6)
O2_13 O 0.98819(18) 0.50976(25) 0.68600(6)
C1_13 C 0.9721(3) 0.5405(4) 0.67826(8)
C2_11 C 0.9592(4) 0.5343(5) 0.65578(10)
C4_11 C 0.9333(10) 0.4774(11) 0.64929(19)
H4_11 H 0.8951 0.4574 0.6540
H5_11 H 0.9534 0.4601 0.6548
H6_11 H 0.9340 0.4762 0.6349
C5_11 C 0.9524(11) 0.5781(13) 0.64792(16)
H7_11 H 0.9180 0.5747 0.6529
H8_11 H 0.9512 0.5760 0.6336
H9_11 H 0.9835 0.6136 0.6521
O3_13 O 0.88681(15) 0.48900(22) 0.77349(5)
C6_13 C 0.8811(2) 0.5057(3) 0.79038(9)
C7_13 C 0.8283(3) 0.4665(4) 0.80214(10)
C8_13 C 0.8030(6) 0.4121(10) 0.7950(2)
H10_13 H 0.7951 0.4117 0.7809
H11_13 H 0.7685 0.3892 0.8021
H12_13 H 0.8277 0.3972 0.7970
C9_13 C 0.7893(5) 0.4878(7) 0.8007(3)
H13_13 H 0.7781 0.4865 0.7870
H14_13 H 0.8074 0.5260 0.8054
H15_13 H 0.7568 0.4652 0.8088
C10_13 C 0.8435(6) 0.4726(12) 0.82462(17)
H16_13 H 0.8107 0.4480 0.8323
H17_13 H 0.8572 0.5108 0.8288
H18_13 H 0.8721 0.4628 0.8268
O5_13 O 0.88632(15) 0.45233(22) 0.70970(5)
O6_13 O 0.87735(14) 0.50215(21) 0.73419(5)
C11_13 C 0.8592(2) 0.4702(3) 0.71899(9)
C12_13 C 0.8008(3) 0.4554(4) 0.71204(11)
C13_13 C 0.8053(7) 0.5043(9) 0.7022(3)
H19_13 H 0.8296 0.5136 0.6907
H20_13 H 0.8204 0.5353 0.7114
H21_13 H 0.7687 0.4963 0.6979
C14_13 C 0.7623(4) 0.4396(8) 0.73093(19)
H22_13 H 0.7588 0.4063 0.7370
H23_13 H 0.7258 0.4329 0.7271
H24_13 H 0.7785 0.4699 0.7405
C15_13 C 0.7763(4) 0.4048(6) 0.6987(2)
H25_13 H 0.7733 0.3732 0.7060
H26_13 H 0.8002 0.4122 0.6872
H27_13 H 0.7396 0.3964 0.6943
O8_13 O 0.93584(14) 0.44174(20) 0.74664(5)
C16_13 C 0.9297(2) 0.4091(3) 0.76113(8)
C17_13 C 0.8893(3) 0.3474(4) 0.75851(9)
C18_13 C 0.8404(3) 0.3383(5) 0.74493(14)
H28_13 H 0.8548 0.3557 0.7322
H29_13 H 0.8204 0.3547 0.7511
H30_11 H 0.8154 0.2987 0.7431
C19_11 C 0.8656(4) 0.3186(6) 0.77855(11)
H31_11 H 0.8959 0.3244 0.7873
H32_11 H 0.8413 0.2790 0.7764
H33_13 H 0.8446 0.3340 0.7846
C20_11 C 0.9221(4) 0.3225(6) 0.74865(16)
H34_11 H 0.9527 0.3284 0.7572
H35_13 H 0.9366 0.3406 0.7360
H36_11 H 0.8977 0.2830 0.7466
O11_13 O 0.94307(16) 0.63587(22) 0.72677(5)
C21_13 C 0.9260(2) 0.6286(3) 0.74472(8)
C22_13 C 0.8867(2) 0.6496(3) 0.75108(8)
C23_13 C 0.8473(4) 0.6110(5) 0.76738(13)
H37_13 H 0.8691 0.6098 0.7785
H38_13 H 0.8246 0.5738 0.7621
H39_13 H 0.8235 0.6250 0.7720
C24_11 C 0.9225(3) 0.7083(4) 0.75930(14)
H40_11 H 0.9469 0.7324 0.7490
H41_11 H 0.9446 0.7075 0.7703
H42_11 H 0.8987 0.7224 0.7639
C25_13 C 0.8520(3) 0.6521(4) 0.73339(11)
H43_11 H 0.8769 0.6762 0.7231
H44_11 H 0.8288 0.6669 0.7380
H45_13 H 0.8288 0.6151 0.7281
O12_11 O 0.99147(18) 0.36170(25) 0.63677(6)
N1_11 N 0.96433(19) 0.35147(27) 0.65353(7)
C26_9 C 0.9059(2) 0.3039(4) 0.65548(9)
C27_9 C 0.8714(4) 0.3093(5) 0.63859(11)
H46_9 H 0.8842 0.3033 0.6259
H47_9 H 0.8325 0.2817 0.6404
H48_11 H 0.8758 0.3462 0.6388
C28_9 C 0.9091(3) 0.2506(4) 0.65328(12)
H49_11 H 0.9193 0.2476 0.6397
H50_11 H 0.9368 0.2518 0.6624
H51_9 H 0.8732 0.2186 0.6563
C29_11 C 0.8898(3) 0.3141(4) 0.67728(9)
C30_11 C 0.8787(3) 0.2683(7) 0.69230(11)
H52_11 H 0.8692 0.2776 0.7051
H53_11 H 0.8481 0.2332 0.6876
H54_11 H 0.9118 0.2652 0.6937
C31_11 C 0.8440(5) 0.3286(6) 0.67794(15)
H55_11 H 0.8363 0.3333 0.6917
H56_13 H 0.8557 0.3629 0.6707
H57_11 H 0.8106 0.2988 0.6719
N2_13 N 0.94251(19) 0.36504(27) 0.68355(7)
O13_13 O 0.94665(16) 0.38625(24) 0.70117(6)
C32_13 C 0.9837(2) 0.3839(3) 0.66991(8)
Mn1_9 Mn 0.52687(4) 0.49835(3) 0.714849(11)
Mn2_9 Mn 0.47514(4) 0.41656(3) 0.752021(10)
Mn3_9 Mn 0.37656(4) 0.38293(3) 0.713477(11)
O1_14 O 0.42299(25) 0.38830(18) 0.68743(6)
O2_14 O 0.49024(25) 0.47844(18) 0.68600(6)
C1_14 C 0.4595(4) 0.4317(3) 0.67826(8)
C2_12 C 0.4657(5) 0.4250(3) 0.65578(10)
C3_12 C 0.4458(14) 0.4667(11) 0.64553(19)
H1_12 H 0.4489 0.4659 0.6312
H2_12 H 0.4695 0.5044 0.6503
H3_12 H 0.4075 0.4542 0.6492
C4_12 C 0.5226(11) 0.4560(5) 0.64929(19)
H4_12 H 0.5426 0.4378 0.6540
H5_12 H 0.5399 0.4934 0.6548
H6_12 H 0.5238 0.4579 0.6349
C5_12 C 0.4219(13) 0.3744(6) 0.64792(16)
H7_12 H 0.4253 0.3434 0.6529
H8_12 H 0.4240 0.3753 0.6336
H9_12 H 0.3864 0.3700 0.6521
O3_14 O 0.51100(22) 0.39782(16) 0.77349(5)
O4_9 O 0.44816(23) 0.36295(16) 0.79810(5)
C6_14 C 0.4943(3) 0.3755(2) 0.79038(9)
C7_14 C 0.5335(4) 0.3619(3) 0.80214(10)
C8_14 C 0.5879(10) 0.3910(8) 0.7950(2)
H10_14 H 0.5883 0.3835 0.7809
H11_14 H 0.6108 0.3794 0.8021
H12_14 H 0.6028 0.4306 0.7970
C9_14 C 0.5122(7) 0.3016(5) 0.8007(3)
H13_14 H 0.5135 0.2917 0.7870
H14_14 H 0.4740 0.2815 0.8054
H15_14 H 0.5348 0.2917 0.8088
C10_14 C 0.5274(12) 0.3710(10) 0.82462(17)
H16_14 H 0.5520 0.3628 0.8323
H17_14 H 0.4892 0.3465 0.8288
H18_14 H 0.5372 0.4094 0.8268
O5_14 O 0.54767(22) 0.43400(16) 0.70970(5)
O6_14 O 0.49785(21) 0.37521(15) 0.73419(5)
O7_9 O 0.44865(18) 0.44332(13) 0.73093(4)
C11_14 C 0.5298(3) 0.3891(2) 0.71899(9)
C12_14 C 0.5446(4) 0.3455(3) 0.71204(11)
C13_14 C 0.4957(9) 0.3011(6) 0.7022(3)
H19_14 H 0.4864 0.3161 0.6907
H20_14 H 0.4647 0.2852 0.7114
H21_14 H 0.5037 0.2725 0.6979
C14_14 C 0.5604(8) 0.3228(7) 0.73093(19)
H22_14 H 0.5937 0.3526 0.7370
H23_14 H 0.5671 0.2930 0.7271
H24_14 H 0.5301 0.3087 0.7405
C15_14 C 0.5952(6) 0.3716(4) 0.6987(2)
H25_14 H 0.6268 0.4002 0.7060
H26_14 H 0.5878 0.3881 0.6872
H27_14 H 0.6036 0.3433 0.6943
O8_14 O 0.55826(20) 0.49411(14) 0.74664(5)
O9_9 O 0.57481(22) 0.53061(16) 0.77742(6)
C16_14 C 0.5909(3) 0.5207(2) 0.76113(8)
C17_14 C 0.6526(4) 0.5420(3) 0.75851(9)
C18_14 C 0.6617(5) 0.5022(4) 0.74493(14)
H28_14 H 0.6443 0.4992 0.7322
H29_14 H 0.6453 0.4658 0.7511
H30_12 H 0.7013 0.5168 0.7431
C19_12 C 0.6814(6) 0.5471(5) 0.77855(11)
H31_12 H 0.6756 0.5716 0.7873
H32_12 H 0.7210 0.5624 0.7764
H33_14 H 0.6660 0.5107 0.7846
C20_12 C 0.6775(6) 0.5997(4) 0.74865(16)
H34_12 H 0.6716 0.6244 0.7572
H35_14 H 0.6594 0.5961 0.7360
H36_12 H 0.7170 0.6148 0.7466
O10_9 O 0.39518(20) 0.33574(14) 0.75785(5)
O11_14 O 0.36413(22) 0.30721(15) 0.72677(5)
C21_14 C 0.3714(3) 0.2975(2) 0.74472(8)
C22_14 C 0.3504(3) 0.2372(2) 0.75108(8)
C23_14 C 0.3890(5) 0.2364(3) 0.76738(13)
H37_14 H 0.3902 0.2594 0.7785
H38_14 H 0.4262 0.2509 0.7621
H39_14 H 0.3750 0.1986 0.7720
C24_12 C 0.2917(4) 0.2143(3) 0.75930(14)
H40_12 H 0.2676 0.2146 0.7490
H41_12 H 0.2925 0.2372 0.7703
H42_12 H 0.2776 0.1764 0.7639
C25_14 C 0.3479(4) 0.2000(3) 0.73339(11)
H43_12 H 0.3238 0.2008 0.7231
H44_12 H 0.3331 0.1620 0.7380
H45_14 H 0.3849 0.2138 0.7281
O12_12 O 0.63830(25) 0.62978(17) 0.63677(6)
N1_12 N 0.64853(27) 0.61287(19) 0.65353(7)
C26_10 C 0.6961(4) 0.6021(3) 0.65548(9)
C27_10 C 0.6907(5) 0.5622(3) 0.63859(11)
H46_10 H 0.6967 0.5810 0.6259
H47_10 H 0.7183 0.5509 0.6404
H48_12 H 0.6538 0.5297 0.6388
C28_10 C 0.7494(4) 0.6586(3) 0.65328(12)
H49_12 H 0.7524 0.6718 0.6397
H50_12 H 0.7482 0.6851 0.6624
H51_10 H 0.7814 0.6547 0.6563
C29_12 C 0.6859(4) 0.5758(3) 0.67728(9)
C30_12 C 0.7317(7) 0.6105(6) 0.69230(11)
H52_12 H 0.7224 0.5917 0.7051
H53_12 H 0.7668 0.6150 0.6876
H54_12 H 0.7348 0.6467 0.6937
C31_12 C 0.6714(6) 0.5155(4) 0.67794(15)
H55_12 H 0.6667 0.5031 0.6917
H56_14 H 0.6371 0.4929 0.6707
H57_12 H 0.7012 0.5119 0.6719
N2_14 N 0.63496(27) 0.57748(19) 0.68355(7)
O13_14 O 0.61375(24) 0.56041(18) 0.70117(6)
C32_14 C 0.6161(3) 0.5999(2) 0.66991(8)
C33_14 C 0.5673(4) 0.6083(3) 0.67178(10)
H58_12 H 0.5636 0.6254 0.6598
H59_14 H 0.5339 0.5726 0.6738
H60_14 H 0.5727 0.6323 0.6831
O14_9 O 0.53061(27) 0.57481(22) 0.72258(6)
Mn4_9 Mn 0.41656(5) 0.47514(4) 0.747979(10)
O15_9 O 0.44332(22) 0.44865(18) 0.76907(4)
O16_9 O 0.36295(28) 0.44816(23) 0.70190(5)
O17_9 O 0.33574(24) 0.39518(20) 0.74215(5)
O18_12 O 0.29644(31) 0.32481(18) 0.69657(6)
Mn5_9 Mn 0.38293(5) 0.37656(4) 0.786523(11)
Mn6_9 Mn 0.49835(5) 0.52687(4) 0.785151(11)
Mn7_14 Mn 0.66030(5) 0.70990(4) 0.619857(11)
O1_15 O 0.24367(25) 0.29864(18) 0.14591(6)
O2_15 O 0.17642(25) 0.32153(18) 0.14734(6)
C1_15 C 0.2071(4) 0.3055(3) 0.15508(8)
C2_13 C 0.2009(5) 0.2926(4) 0.17756(10)
C3_13 C 0.2208(14) 0.3542(9) 0.18781(19)
H1_13 H 0.2177 0.3503 0.2022
H2_13 H 0.1971 0.3682 0.1831
H3_13 H 0.2591 0.3800 0.1842
C4_13 C 0.1440(11) 0.2667(10) 0.18405(19)
H4_13 H 0.1240 0.2285 0.1794
H5_13 H 0.1267 0.2868 0.1786
H6_13 H 0.1428 0.2674 0.1985
C5_13 C 0.2447(13) 0.2858(11) 0.18542(16)
H7_13 H 0.2413 0.2514 0.1805
H8_13 H 0.2426 0.2846 0.1998
H9_13 H 0.2802 0.3169 0.1813
O3_15 O 0.15566(22) 0.22015(15) 0.05985(5)
C6_15 C 0.1723(3) 0.2145(2) 0.04296(9)
C7_15 C 0.1331(4) 0.1617(3) 0.03120(10)
C8_15 C 0.0787(10) 0.1364(6) 0.0384(2)
H10_15 H 0.0783 0.1285 0.0525
H11_15 H 0.0558 0.1019 0.0313
H12_15 H 0.0638 0.1611 0.0364
C9_15 C 0.1544(7) 0.1227(5) 0.0327(3)
H13_15 H 0.1531 0.1115 0.0464
H14_15 H 0.1926 0.1408 0.0280
H15_15 H 0.1318 0.0902 0.0246
C10_15 C 0.1392(12) 0.1769(6) 0.00872(17)
H16_15 H 0.1146 0.1441 0.0011
H17_15 H 0.1774 0.1906 0.0046
H18_15 H 0.1294 0.2055 0.0066
O5_15 O 0.11899(22) 0.21966(15) 0.12364(5)
O6_15 O 0.16881(21) 0.21069(14) 0.09915(5)
C11_15 C 0.1368(3) 0.1926(2) 0.11435(9)
C12_15 C 0.1220(4) 0.1342(3) 0.12130(11)
C13_15 C 0.1709(9) 0.1387(7) 0.1312(3)
H19_15 H 0.1802 0.1630 0.1427
H20_15 H 0.2019 0.1538 0.1220
H21_15 H 0.1629 0.1021 0.1355
C14_15 C 0.1062(8) 0.0957(4) 0.10241(19)
H22_15 H 0.0729 0.0922 0.0964
H23_15 H 0.0995 0.0592 0.1063
H24_15 H 0.1365 0.1119 0.0929
C15_15 C 0.0714(6) 0.1097(4) 0.1347(2)
H25_15 H 0.0398 0.1067 0.1274
H26_15 H 0.0788 0.1336 0.1462
H27_15 H 0.0630 0.0730 0.1391
O8_15 O 0.10840(20) 0.26918(14) 0.08670(5)
C16_15 C 0.0757(3) 0.2631(2) 0.07221(8)
C17_15 C 0.0140(4) 0.2227(3) 0.07483(9)
C18_15 C 0.0049(5) 0.1738(3) 0.08841(14)
H28_15 H 0.0223 0.1882 0.1012
H29_15 H 0.0213 0.1538 0.0823
H33_15 H 0.0006 0.1780 0.0488
H35_15 H 0.0072 0.2700 0.0974
O11_15 O 0.30253(22) 0.27641(16) 0.10657(5)
C21_15 C 0.2952(3) 0.2594(2) 0.08862(8)
C22_15 C 0.3162(3) 0.2201(2) 0.08226(8)
C23_15 C 0.2776(5) 0.1807(4) 0.06596(13)
H37_15 H 0.2764 0.2025 0.0549
H38_15 H 0.2404 0.1580 0.0713
H39_15 H 0.2916 0.1569 0.0614
C24_13 C 0.3749(4) 0.2559(3) 0.07404(14)
H40_13 H 0.3990 0.2803 0.0844
H41_13 H 0.3741 0.2780 0.0631
H42_13 H 0.3890 0.2321 0.0695
C25_15 C 0.3187(4) 0.1854(3) 0.09995(11)
H43_13 H 0.3428 0.2103 0.1103
H44_13 H 0.3335 0.1622 0.0954
H45_15 H 0.2817 0.1622 0.1053
O12_13 O 0.02836(25) 0.32481(18) 0.19657(6)
N1_13 N 0.01813(27) 0.29767(19) 0.17981(7)
H48_13 H 0.0128 0.2092 0.1946
H56_15 H 0.0295 0.1891 0.1627
N2_15 N 0.03170(27) 0.27585(19) 0.14979(7)
O13_15 O 0.05291(24) 0.27999(16) 0.13217(6)
C32_15 C 0.0505(3) 0.3171(2) 0.16343(8)
C33_15 C 0.0993(4) 0.3743(3) 0.16156(10)
H58_13 H 0.1030 0.3951 0.1736
H59_15 H 0.1327 0.3720 0.1596
H60_15 H 0.0939 0.3929 0.1503
O18_13 O 0.37022(31) 0.36170(25) 0.13677(6)
Mn7_15 Mn 0.00636(5) 0.38293(3) 0.213477(11)
O1_16 O 0.05496(18) 0.75633(25) 0.14591(6)
O2_16 O 0.14510(18) 0.82358(25) 0.14734(6)
C1_16 C 0.0983(3) 0.7929(4) 0.15508(8)
C2_14 C 0.0916(3) 0.7991(5) 0.17756(10)
C3_14 C 0.1333(11) 0.7792(14) 0.18781(19)
H1_14 H 0.1325 0.7823 0.2022
H2_14 H 0.1710 0.8029 0.1831
H3_14 H 0.1208 0.7409 0.1842
C4_14 C 0.1226(5) 0.8560(11) 0.18405(19)
H4_14 H 0.1044 0.8760 0.1794
H5_14 H 0.1600 0.8733 0.1786
H6_14 H 0.1245 0.8572 0.1985
C5_14 C 0.0410(6) 0.7553(13) 0.18542(16)
H7_14 H 0.0100 0.7587 0.1805
H8_14 H 0.0419 0.7574 0.1998
H9_14 H 0.0366 0.7198 0.1813
O3_16 O 0.06448(16) 0.84434(22) 0.05985(5)
C6_16 C 0.0421(2) 0.8277(3) 0.04296(9)
C7_16 C 0.0285(3) 0.8669(4) 0.03120(10)
C8_16 C 0.0576(8) 0.9213(10) 0.0384(2)
H10_16 H 0.0501 0.9217 0.0525
H11_16 H 0.0460 0.9442 0.0313
H12_16 H 0.0972 0.9362 0.0364
C10_16 C 0.0376(10) 0.8608(12) 0.00872(17)
H16_16 H 0.0294 0.8854 0.0011
H17_16 H 0.0131 0.8226 0.0046
H18_16 H 0.0760 0.8706 0.0066
O5_16 O 0.10066(16) 0.88101(22) 0.12364(5)
O6_16 O 0.04187(15) 0.83119(21) 0.09915(5)
C11_16 C 0.0557(2) 0.8632(3) 0.11435(9)
C12_16 C 0.0121(3) 0.8780(4) 0.12130(11)
H22_16 H 0.0192 0.9271 0.0964
C15_16 C 0.0382(4) 0.9286(6) 0.1347(2)
H25_16 H 0.0668 0.9602 0.1274
H26_16 H 0.0547 0.9212 0.1462
H27_16 H 0.0099 0.9370 0.1391
O8_16 O 0.16077(14) 0.89160(20) 0.08670(5)
C16_16 C 0.1873(2) 0.9243(3) 0.07221(8)
C17_16 C 0.2086(3) 0.9860(4) 0.07483(9)
C18_16 C 0.1688(4) 0.9951(5) 0.08841(14)
H28_16 H 0.1658 0.9777 0.1012
H29_16 H 0.1324 0.9787 0.0823
H33_16 H 0.1773 0.9994 0.0488
H35_16 H 0.2627 0.9928 0.0974
O12_14 O 0.29644(17) 0.97164(25) 0.19657(6)
N1_14 N 0.27953(19) 0.98187(27) 0.17981(7)
H48_14 H 0.1963 0.9872 0.1946
H56_16 H 0.1595 0.9705 0.1627
N2_16 N 0.24414(19) 0.96830(27) 0.14979(7)
O13_16 O 0.22707(18) 0.94709(24) 0.13217(6)
C32_16 C 0.2665(2) 0.9495(3) 0.16343(8)
C33_16 C 0.2749(3) 0.9007(4) 0.16156(10)
H58_14 H 0.2920 0.8970 0.1736
H59_16 H 0.2392 0.8673 0.1596
H60_16 H 0.2989 0.9061 0.1503
Mn7_16 Mn 0.37656(4) 0.99364(5) 0.213477(11)
C9_16 C 0.9682(5) 0.8456(7) 0.0327(3)
H13_16 H 0.9583 0.8469 0.0464
H14_16 H 0.9481 0.8074 0.0280
H15_16 H 0.9583 0.8682 0.0246
C13_16 C 0.9677(6) 0.8291(9) 0.1312(3)
H19_16 H 0.9827 0.8198 0.1427
H20_16 H 0.9518 0.7981 0.1220
H21_16 H 0.9391 0.8371 0.1355
C14_16 C 0.9894(7) 0.8938(8) 0.10241(19)
H23_16 H 0.9596 0.9005 0.1063
H24_16 H 0.9753 0.8635 0.0929
O11_16 O 0.97387(15) 0.69747(22) 0.10657(5)
C21_16 C 0.9641(2) 0.7048(3) 0.08862(8)
C22_16 C 0.9038(2) 0.6838(3) 0.08226(8)
C23_16 C 0.9030(3) 0.7224(5) 0.06596(13)
H37_16 H 0.9260 0.7236 0.0549
H38_16 H 0.9175 0.7596 0.0713
H39_16 H 0.8652 0.7084 0.0614
C24_14 C 0.8809(3) 0.6251(4) 0.07404(14)
H40_14 H 0.8812 0.6010 0.0844
H41_14 H 0.9038 0.6259 0.0631
H42_14 H 0.8430 0.6110 0.0695
C25_16 C 0.8666(3) 0.6813(4) 0.09995(11)
H43_14 H 0.8674 0.6572 0.1103
H44_14 H 0.8286 0.6665 0.0954
H45_16 H 0.8804 0.7183 0.1053
O18_14 O 0.99147(18) 0.62978(31) 0.13677(6)
C3_15 C 0.5542(14) 0.0208(9) 0.85447(19)
H1_15 H 0.5511 0.0169 0.8688
H2_15 H 0.5305 0.0348 0.8497
H3_15 H 0.5925 0.0466 0.8508
C33_17 C 0.4327(4) 0.0409(3) 0.82822(10)
H58_15 H 0.4364 0.0617 0.8402
H59_17 H 0.4661 0.0386 0.8262
H60_17 H 0.4273 0.0595 0.8169
O18_15 O 0.70356(31) 0.02836(25) 0.80343(6)
Mn7_17 Mn 0.33970(5) 0.04959(3) 0.880143(11)
O1_17 O 0.57701(25) 0.96530(18) 0.81257(6)
O2_17 O 0.50976(25) 0.98819(18) 0.81400(6)
C1_17 C 0.5405(4) 0.9721(3) 0.82174(8)
C2_15 C 0.5343(5) 0.9592(4) 0.84422(10)
C4_15 C 0.4774(11) 0.9333(10) 0.85071(19)
H4_15 H 0.4574 0.8951 0.8460
H5_15 H 0.4601 0.9534 0.8452
H6_15 H 0.4762 0.9340 0.8651
C5_15 C 0.5781(13) 0.9524(11) 0.85208(16)
H7_15 H 0.5747 0.9180 0.8471
H8_15 H 0.5760 0.9512 0.8664
H9_15 H 0.6136 0.9835 0.8479
O3_17 O 0.48900(22) 0.88681(15) 0.72651(5)
C6_17 C 0.5057(3) 0.8811(2) 0.70962(9)
C7_17 C 0.4665(4) 0.8283(3) 0.69786(10)
C8_17 C 0.4121(10) 0.8030(6) 0.7050(2)
H10_17 H 0.4117 0.7951 0.7191
H11_17 H 0.3892 0.7685 0.6979
H12_17 H 0.3972 0.8277 0.7030
C9_17 C 0.4878(7) 0.7893(5) 0.6993(3)
H13_17 H 0.4865 0.7781 0.7130
H14_17 H 0.5260 0.8074 0.6946
H15_17 H 0.4652 0.7568 0.6912
C10_17 C 0.4726(12) 0.8435(6) 0.67538(17)
H16_17 H 0.4480 0.8107 0.6677
H17_17 H 0.5108 0.8572 0.6712
H18_17 H 0.4628 0.8721 0.6732
O5_17 O 0.45233(22) 0.88632(15) 0.79030(5)
O6_17 O 0.50215(21) 0.87735(14) 0.76581(5)
C11_17 C 0.4702(3) 0.8592(2) 0.78101(9)
C12_17 C 0.4554(4) 0.8008(3) 0.78796(11)
C13_17 C 0.5043(9) 0.8053(7) 0.7978(3)
H19_17 H 0.5136 0.8296 0.8093
H20_17 H 0.5353 0.8204 0.7886
H21_17 H 0.4963 0.7687 0.8021
C14_17 C 0.4396(8) 0.7623(4) 0.76907(19)
H22_17 H 0.4063 0.7588 0.7630
H23_17 H 0.4329 0.7258 0.7729
H24_17 H 0.4699 0.7785 0.7595
C15_17 C 0.4048(6) 0.7763(4) 0.8013(2)
H25_17 H 0.3732 0.7733 0.7940
H26_17 H 0.4122 0.8002 0.8128
H27_17 H 0.3964 0.7396 0.8057
O8_17 O 0.44174(20) 0.93584(14) 0.75336(5)
C16_17 C 0.4091(3) 0.9297(2) 0.73887(8)
C17_17 C 0.3474(4) 0.8893(3) 0.74149(9)
C18_17 C 0.3383(5) 0.8404(3) 0.75507(14)
H28_17 H 0.3557 0.8548 0.7678
H29_17 H 0.3547 0.8204 0.7489
H30_13 H 0.2987 0.8154 0.7569
C19_13 C 0.3186(6) 0.8656(4) 0.72145(11)
H31_13 H 0.3244 0.8959 0.7127
H32_13 H 0.2790 0.8413 0.7236
H33_17 H 0.3340 0.8446 0.7154
C20_13 C 0.3225(6) 0.9221(4) 0.75135(16)
H34_13 H 0.3284 0.9527 0.7428
H35_17 H 0.3406 0.9366 0.7640
H36_13 H 0.2830 0.8977 0.7534
O11_17 O 0.63587(22) 0.94307(16) 0.77323(5)
C21_17 C 0.6286(3) 0.9260(2) 0.75528(8)
C22_17 C 0.6496(3) 0.8867(2) 0.74892(8)
C23_17 C 0.6110(5) 0.8473(4) 0.73262(13)
H37_17 H 0.6098 0.8691 0.7215
H38_17 H 0.5738 0.8246 0.7379
H39_17 H 0.6250 0.8235 0.7280
C24_15 C 0.7083(4) 0.9225(3) 0.74070(14)
H40_15 H 0.7324 0.9469 0.7510
H41_15 H 0.7075 0.9446 0.7297
H42_15 H 0.7224 0.8987 0.7361
C25_17 C 0.6521(4) 0.8520(3) 0.76661(11)
H43_15 H 0.6762 0.8769 0.7769
H44_15 H 0.6669 0.8288 0.7620
H45_17 H 0.6151 0.8288 0.7719
O12_15 O 0.36170(25) 0.99147(18) 0.86323(6)
N1_15 N 0.35147(27) 0.96433(19) 0.84647(7)
C26_11 C 0.3039(4) 0.9059(2) 0.84452(9)
C27_11 C 0.3093(5) 0.8714(4) 0.86141(11)
H46_11 H 0.3033 0.8842 0.8741
H47_11 H 0.2817 0.8325 0.8596
H48_15 H 0.3462 0.8758 0.8612
C28_11 C 0.2506(4) 0.9091(3) 0.84672(12)
H49_13 H 0.2476 0.9193 0.8603
H50_13 H 0.2518 0.9368 0.8376
H51_11 H 0.2186 0.8732 0.8437
C29_13 C 0.3141(4) 0.8898(3) 0.82272(9)
C30_13 C 0.2683(7) 0.8787(3) 0.80770(11)
H52_13 H 0.2776 0.8692 0.7949
H53_13 H 0.2332 0.8481 0.8124
H54_13 H 0.2652 0.9118 0.8063
C31_13 C 0.3286(6) 0.8440(5) 0.82206(15)
H55_13 H 0.3333 0.8363 0.8083
H56_17 H 0.3629 0.8557 0.8293
H57_13 H 0.2988 0.8106 0.8281
N2_17 N 0.36504(27) 0.94251(19) 0.81645(7)
O13_17 O 0.38625(24) 0.94665(16) 0.79883(6)
C32_17 C 0.3839(3) 0.9837(2) 0.83009(8)
O1_18 O 0.38830(18) 0.42299(25) 0.81257(6)
O2_18 O 0.47844(18) 0.49024(25) 0.81400(6)
C1_18 C 0.4317(3) 0.4595(4) 0.82174(8)
C2_16 C 0.4250(3) 0.4657(5) 0.84422(10)
C3_16 C 0.4667(11) 0.4458(14) 0.85447(19)
H1_16 H 0.4659 0.4489 0.8688
H2_16 H 0.5044 0.4695 0.8497
H3_16 H 0.4542 0.4075 0.8508
C4_16 C 0.4560(5) 0.5226(11) 0.85071(19)
H4_16 H 0.4378 0.5426 0.8460
H5_16 H 0.4934 0.5399 0.8452
H6_16 H 0.4579 0.5238 0.8651
C5_16 C 0.3744(6) 0.4219(13) 0.85208(16)
H7_16 H 0.3434 0.4253 0.8471
H8_16 H 0.3753 0.4240 0.8664
H9_16 H 0.3700 0.3864 0.8479
O3_18 O 0.39782(16) 0.51100(22) 0.72651(5)
C6_18 C 0.3755(2) 0.4943(3) 0.70962(9)
C7_18 C 0.3619(3) 0.5335(4) 0.69786(10)
C8_18 C 0.3910(8) 0.5879(10) 0.7050(2)
H10_18 H 0.3835 0.5883 0.7191
H11_18 H 0.3794 0.6108 0.6979
H12_18 H 0.4306 0.6028 0.7030
C9_18 C 0.3016(5) 0.5122(7) 0.6993(3)
H13_18 H 0.2917 0.5135 0.7130
H14_18 H 0.2815 0.4740 0.6946
H15_18 H 0.2917 0.5348 0.6912
C10_18 C 0.3710(10) 0.5274(12) 0.67538(17)
H16_18 H 0.3628 0.5520 0.6677
H17_18 H 0.3465 0.4892 0.6712
H18_18 H 0.4094 0.5372 0.6732
O5_18 O 0.43400(16) 0.54767(22) 0.79030(5)
O6_18 O 0.37521(15) 0.49785(21) 0.76581(5)
C11_18 C 0.3891(2) 0.5298(3) 0.78101(9)
C12_18 C 0.3455(3) 0.5446(4) 0.78796(11)
C13_18 C 0.3011(6) 0.4957(9) 0.7978(3)
H19_18 H 0.3161 0.4864 0.8093
H20_18 H 0.2852 0.4647 0.7886
H21_18 H 0.2725 0.5037 0.8021
C14_18 C 0.3228(7) 0.5604(8) 0.76907(19)
H22_18 H 0.3526 0.5937 0.7630
H23_18 H 0.2930 0.5671 0.7729
H24_18 H 0.3087 0.5301 0.7595
C15_18 C 0.3716(4) 0.5952(6) 0.8013(2)
H25_18 H 0.4002 0.6268 0.7940
H26_18 H 0.3881 0.5878 0.8128
H27_18 H 0.3433 0.6036 0.8057
O8_18 O 0.49411(14) 0.55826(20) 0.75336(5)
C16_18 C 0.5207(2) 0.5909(3) 0.73887(8)
C17_18 C 0.5420(3) 0.6526(4) 0.74149(9)
C18_18 C 0.5022(4) 0.6617(5) 0.75507(14)
H28_18 H 0.4992 0.6443 0.7678
H29_18 H 0.4658 0.6453 0.7489
H30_14 H 0.5168 0.7013 0.7569
C19_14 C 0.5471(5) 0.6814(6) 0.72145(11)
H31_14 H 0.5716 0.6756 0.7127
H32_14 H 0.5624 0.7210 0.7236
H33_18 H 0.5107 0.6660 0.7154
C20_14 C 0.5997(4) 0.6775(6) 0.75135(16)
H34_14 H 0.6244 0.6716 0.7428
H35_18 H 0.5961 0.6594 0.7640
H36_14 H 0.6148 0.7170 0.7534
O11_18 O 0.30721(15) 0.36413(22) 0.77323(5)
C21_18 C 0.2975(2) 0.3714(3) 0.75528(8)
C22_18 C 0.2372(2) 0.3504(3) 0.74892(8)
C23_18 C 0.2364(3) 0.3890(5) 0.73262(13)
H37_18 H 0.2594 0.3902 0.7215
H38_18 H 0.2509 0.4262 0.7379
H39_18 H 0.1986 0.3750 0.7280
C24_16 C 0.2143(3) 0.2917(4) 0.74070(14)
H40_16 H 0.2146 0.2676 0.7510
H41_16 H 0.2372 0.2925 0.7297
H42_16 H 0.1764 0.2776 0.7361
C25_18 C 0.2000(3) 0.3479(4) 0.76661(11)
H43_16 H 0.2008 0.3238 0.7769
H44_16 H 0.1620 0.3331 0.7620
H45_18 H 0.2138 0.3849 0.7719
O12_16 O 0.62978(17) 0.63830(25) 0.86323(6)
N1_16 N 0.61287(19) 0.64853(27) 0.84647(7)
C26_12 C 0.6021(3) 0.6961(4) 0.84452(9)
C27_12 C 0.5622(3) 0.6907(5) 0.86141(11)
H46_12 H 0.5810 0.6967 0.8741
H47_12 H 0.5509 0.7183 0.8596
H48_16 H 0.5297 0.6538 0.8612
C28_12 C 0.6586(3) 0.7494(4) 0.84672(12)
H49_14 H 0.6718 0.7524 0.8603
H50_14 H 0.6851 0.7482 0.8376
H51_12 H 0.6547 0.7814 0.8437
C29_14 C 0.5758(3) 0.6859(4) 0.82272(9)
C30_14 C 0.6105(6) 0.7317(7) 0.80770(11)
H52_14 H 0.5917 0.7224 0.7949
H53_14 H 0.6150 0.7668 0.8124
H54_14 H 0.6467 0.7348 0.8063
C31_14 C 0.5155(4) 0.6714(6) 0.82206(15)
H55_14 H 0.5031 0.6667 0.8083
H56_18 H 0.4929 0.6371 0.8293
H57_14 H 0.5119 0.7012 0.8281
N2_18 N 0.57748(19) 0.63496(27) 0.81645(7)
O13_18 O 0.56041(18) 0.61375(24) 0.79883(6)
C32_18 C 0.5999(2) 0.6161(3) 0.83009(8)
C33_18 C 0.6083(3) 0.5673(4) 0.82822(10)
H58_16 H 0.6254 0.5636 0.8402
H59_18 H 0.5726 0.5339 0.8262
H60_18 H 0.6323 0.5727 0.8169
O18_16 O 0.32481(18) 0.29644(31) 0.80343(6)
Mn7_18 Mn 0.70990(4) 0.66030(5) 0.880143(11)
H49_15 H 0.0051 0.5860 0.0270
H50_15 H 0.0184 0.6035 0.0043
Mn1_10 Mn 0.83168(3) 0.63814(3) 0.951818(11)
Mn2_10 Mn 0.74989(3) 0.60808(3) 0.914646(10)
O1_19 O 0.72163(18) 0.63197(18) 0.97924(6)
O2_19 O 0.81177(18) 0.65486(18) 0.98067(6)
C1_19 C 0.7650(3) 0.6388(3) 0.98841(8)
O3_19 O 0.73115(16) 0.55348(15) 0.89318(5)
O4_10 O 0.69628(16) 0.58145(16) 0.86857(5)
C6_19 C 0.7088(2) 0.5478(2) 0.87629(9)
C7_19 C 0.6952(3) 0.4950(3) 0.86453(10)
C8_19 C 0.7243(8) 0.4697(6) 0.8717(2)
H10_19 H 0.7168 0.4618 0.8858
H11_19 H 0.7127 0.4352 0.8646
H12_19 H 0.7639 0.4944 0.8697
C9_19 C 0.6349(5) 0.4560(5) 0.8660(3)
H13_19 H 0.6250 0.4448 0.8797
H14_19 H 0.6148 0.4741 0.8613
H15_19 H 0.6250 0.4235 0.8579
C10_19 C 0.7043(10) 0.5102(6) 0.84205(17)
H16_19 H 0.6961 0.4774 0.8344
H17_19 H 0.6798 0.5239 0.8379
H18_19 H 0.7427 0.5388 0.8399
O5_19 O 0.76733(16) 0.55299(15) 0.95697(5)
O6_19 O 0.70854(15) 0.54402(14) 0.93248(5)
O7_10 O 0.77665(13) 0.66133(13) 0.93574(4)
C11_19 C 0.7224(2) 0.5259(2) 0.94768(9)
C12_19 C 0.6788(3) 0.4675(3) 0.95463(11)
C13_19 C 0.6344(6) 0.4720(7) 0.9645(3)
H19_19 H 0.6494 0.4963 0.9760
H20_19 H 0.6185 0.4871 0.9553
H21_19 H 0.6058 0.4354 0.9688
C14_19 C 0.6561(7) 0.4290(4) 0.93574(19)
H22_19 H 0.6859 0.4255 0.9297
H23_19 H 0.6263 0.3925 0.9396
H24_19 H 0.6420 0.4452 0.9262
C15_19 C 0.7049(4) 0.4430(4) 0.9680(2)
H25_19 H 0.7335 0.4400 0.9607
H26_19 H 0.7214 0.4669 0.9795
H27_19 H 0.6766 0.4063 0.9724
O8_19 O 0.82744(14) 0.60251(14) 0.92003(5)
O9_10 O 0.86394(16) 0.62246(15) 0.88925(6)
C16_19 C 0.8540(2) 0.5964(2) 0.90554(8)
C17_19 C 0.8753(3) 0.5560(3) 0.90816(9)
C18_19 C 0.8355(4) 0.5071(3) 0.92174(14)
H28_19 H 0.8325 0.5215 0.9345
H29_19 H 0.7991 0.4871 0.9156
H30_15 H 0.8501 0.4821 0.9236
C19_15 C 0.8804(5) 0.5323(4) 0.88812(11)
H31_15 H 0.9049 0.5626 0.8794
H32_15 H 0.8957 0.5080 0.8903
H33_19 H 0.8440 0.5113 0.8821
C20_15 C 0.9330(4) 0.5888(4) 0.91802(16)
H34_15 H 0.9577 0.6194 0.9095
H35_19 H 0.9294 0.6033 0.9307
H36_15 H 0.9481 0.5644 0.9201
O10_10 O 0.66907(14) 0.60722(14) 0.90882(5)
O11_19 O 0.64054(15) 0.60974(16) 0.93990(5)
C21_19 C 0.6308(2) 0.5927(2) 0.92195(8)
C22_19 C 0.5705(2) 0.5534(2) 0.91559(8)
C23_19 C 0.5697(3) 0.5140(4) 0.89929(13)
H37_19 H 0.5927 0.5358 0.8882
H38_19 H 0.5842 0.4913 0.9046
H39_19 H 0.5319 0.4902 0.8947
C24_17 C 0.5476(3) 0.5892(3) 0.90737(14)
H40_17 H 0.5479 0.6136 0.9177
H41_17 H 0.5705 0.6113 0.8964
H42_17 H 0.5097 0.5654 0.9028
C25_19 C 0.5333(3) 0.5187(3) 0.93328(11)
H43_17 H 0.5341 0.5436 0.9436
H44_17 H 0.4953 0.4955 0.9287
H45_19 H 0.5471 0.4955 0.9386
C29_15 C 0.9091(3) 0.5565(3) 0.98939(9)
C30_15 C 0.9438(6) 0.5454(3) 0.97437(11)
H52_15 H 0.9250 0.5359 0.9616
H53_15 H 0.9483 0.5148 0.9791
H54_15 H 0.9800 0.5785 0.9730
C31_15 C 0.8488(4) 0.5107(5) 0.98873(15)
H55_15 H 0.8364 0.5030 0.9750
H56_19 H 0.8262 0.5224 0.9960
H57_15 H 0.8452 0.4773 0.9948
N2_19 N 0.91081(19) 0.60918(19) 0.98312(7)
O13_19 O 0.89374(18) 0.61332(16) 0.96550(6)
C32_19 C 0.9332(2) 0.6504(2) 0.99676(8)
C33_19 C 0.9416(3) 0.7076(3) 0.99489(10)
H59_19 H 0.9059 0.7053 0.9929
H60_19 H 0.9656 0.7262 0.9836
O14_10 O 0.90815(22) 0.71087(15) 0.94408(6)
Mn4_10 Mn 0.80848(4) 0.72525(3) 0.918687(10)
O15_10 O 0.78199(18) 0.67200(13) 0.89759(4)
O16_10 O 0.78150(23) 0.75188(16) 0.96476(5)
O17_10 O 0.72852(20) 0.72611(14) 0.92451(5)
Mn6_10 Mn 0.86021(4) 0.69519(3) 0.881515(11)
C2_17 C 0.3741(4) 0.1324(5) 0.01089(10)
C3_17 C 0.3125(9) 0.1125(14) 0.02114(19)
H1_17 H 0.3164 0.1156 0.0355
H2_17 H 0.2985 0.1362 0.0164
H3_17 H 0.2867 0.0742 0.0175
C4_17 C 0.4000(10) 0.1893(11) 0.01738(19)
H4_17 H 0.4382 0.2093 0.0127
H5_17 H 0.3799 0.2066 0.0119
H6_17 H 0.3993 0.1905 0.0318
C5_17 C 0.3809(11) 0.0886(13) 0.01875(16)
H7_17 H 0.4153 0.0920 0.0138
H8_17 H 0.3821 0.0907 0.0331
H9_17 H 0.3498 0.0531 0.0146
N1_17 N 0.36900(19) 0.31520(27) 0.01314(7)
C26_13 C 0.4274(2) 0.3628(4) 0.01119(9)
C27_13 C 0.4619(4) 0.3574(5) 0.02808(11)
H46_13 H 0.4491 0.3634 0.0408
H47_13 H 0.5008 0.3850 0.0263
H48_17 H 0.4575 0.3205 0.0279
C28_13 C 0.4242(3) 0.4161(4) 0.01339(12)
H49_16 H 0.4140 0.4191 0.0270
H50_16 H 0.3965 0.4149 0.0043
H51_13 H 0.4601 0.4481 0.0104
H58_17 H 0.2716 0.2303 0.0069
Mn1_11 Mn 0.36186(3) 0.19354(4) 0.951818(11)
Mn2_11 Mn 0.39192(3) 0.14181(4) 0.914646(10)
O1_20 O 0.36803(18) 0.08966(25) 0.97924(6)
O2_20 O 0.34514(18) 0.15691(25) 0.98067(6)
C1_20 C 0.3612(3) 0.1262(4) 0.98841(8)
O3_20 O 0.44652(15) 0.17767(22) 0.89318(5)
O4_11 O 0.41855(16) 0.11483(23) 0.86857(5)
C6_20 C 0.4522(2) 0.1610(3) 0.87629(9)
C7_20 C 0.5050(3) 0.2002(4) 0.86453(10)
C8_20 C 0.5303(6) 0.2546(10) 0.8717(2)
H10_20 H 0.5382 0.2550 0.8858
H11_20 H 0.5648 0.2775 0.8646
H12_20 H 0.5056 0.2695 0.8697
C9_20 C 0.5440(5) 0.1789(7) 0.8660(3)
H13_20 H 0.5552 0.1802 0.8797
H14_20 H 0.5259 0.1407 0.8613
H15_20 H 0.5765 0.2015 0.8579
C10_20 C 0.4898(6) 0.1941(12) 0.84205(17)
H16_20 H 0.5226 0.2187 0.8344
H17_20 H 0.4761 0.1559 0.8379
H18_20 H 0.4612 0.2039 0.8399
O5_20 O 0.44701(15) 0.21434(22) 0.95697(5)
O6_20 O 0.45598(14) 0.16452(21) 0.93248(5)
O7_11 O 0.33867(13) 0.11532(18) 0.93574(4)
C11_20 C 0.4741(2) 0.1965(3) 0.94768(9)
C12_20 C 0.5325(3) 0.2113(4) 0.95463(11)
C13_20 C 0.5280(7) 0.1624(9) 0.9645(3)
H19_20 H 0.5037 0.1531 0.9760
H20_20 H 0.5129 0.1314 0.9553
H21_20 H 0.5646 0.1704 0.9688
C14_20 C 0.5710(4) 0.2271(8) 0.93574(19)
H22_20 H 0.5745 0.2604 0.9297
H23_20 H 0.6075 0.2338 0.9396
H24_20 H 0.5548 0.1968 0.9262
C15_20 C 0.5570(4) 0.2619(6) 0.9680(2)
H25_20 H 0.5600 0.2935 0.9607
H26_20 H 0.5331 0.2545 0.9795
H27_20 H 0.5937 0.2703 0.9724
O8_20 O 0.39749(14) 0.22493(20) 0.92003(5)
O9_11 O 0.37754(15) 0.24148(22) 0.88925(6)
C16_20 C 0.4036(2) 0.2576(3) 0.90554(8)
C17_20 C 0.4440(3) 0.3193(4) 0.90816(9)
C18_20 C 0.4929(3) 0.3284(5) 0.92174(14)
H28_20 H 0.4785 0.3110 0.9345
H29_20 H 0.5129 0.3120 0.9156
H30_16 H 0.5179 0.3680 0.9236
C19_16 C 0.4677(4) 0.3481(6) 0.88812(11)
H31_16 H 0.4374 0.3423 0.8794
H32_16 H 0.4920 0.3877 0.8903
H33_20 H 0.4887 0.3327 0.8821
C20_16 C 0.4112(4) 0.3442(6) 0.91802(16)
H34_16 H 0.3806 0.3383 0.9095
H35_20 H 0.3967 0.3261 0.9307
H36_16 H 0.4356 0.3837 0.9201
O10_11 O 0.39278(14) 0.06185(20) 0.90882(5)
O11_20 O 0.39026(16) 0.03080(22) 0.93990(5)
C21_20 C 0.4073(2) 0.0381(3) 0.92195(8)
C22_20 C 0.4466(2) 0.0171(3) 0.91559(8)
C23_20 C 0.4860(4) 0.0557(5) 0.89929(13)
H37_20 H 0.4642 0.0569 0.8882
H38_20 H 0.5087 0.0929 0.9046
H39_20 H 0.5098 0.0417 0.8947
C25_20 C 0.4813(3) 0.0146(4) 0.93328(11)
H45_20 H 0.5045 0.0516 0.9386
C29_16 C 0.4435(3) 0.3526(4) 0.98939(9)
C30_16 C 0.4546(3) 0.3984(7) 0.97437(11)
H52_16 H 0.4641 0.3891 0.9616
H53_16 H 0.4852 0.4335 0.9791
H54_16 H 0.4215 0.4015 0.9730
C31_16 C 0.4893(5) 0.3381(6) 0.98873(15)
H55_16 H 0.4970 0.3334 0.9750
H56_20 H 0.4776 0.3038 0.9960
H57_16 H 0.5227 0.3679 0.9948
N2_20 N 0.39082(19) 0.30163(27) 0.98312(7)
O13_20 O 0.38668(16) 0.28042(24) 0.96550(6)
C32_20 C 0.3496(2) 0.2828(3) 0.99676(8)
C33_20 C 0.2924(3) 0.2340(4) 0.99489(10)
H59_20 H 0.2947 0.2006 0.9929
H60_20 H 0.2738 0.2394 0.9836
O14_11 O 0.28913(15) 0.19727(27) 0.94408(6)
Mn4_11 Mn 0.27475(3) 0.08322(5) 0.918687(10)
O15_11 O 0.32800(13) 0.10998(22) 0.89759(4)
O16_11 O 0.24812(16) 0.02961(28) 0.96476(5)
O17_11 O 0.27389(14) 0.00240(24) 0.92451(5)
Mn6_11 Mn 0.30481(3) 0.16501(5) 0.881515(11)
Mn1_12 Mn 0.80646(4) 0.16832(3) 0.951818(11)
Mn2_12 Mn 0.85819(4) 0.25011(3) 0.914646(10)
O1_21 O 0.91034(25) 0.27837(18) 0.97924(6)
O2_21 O 0.84309(25) 0.18823(18) 0.98067(6)
C1_21 C 0.8738(4) 0.2350(3) 0.98841(8)
O3_21 O 0.82233(22) 0.26885(16) 0.89318(5)
O4_12 O 0.88517(23) 0.30372(16) 0.86857(5)
C6_21 C 0.8390(3) 0.2912(2) 0.87629(9)
C7_21 C 0.7998(4) 0.3048(3) 0.86453(10)
C8_21 C 0.7454(10) 0.2757(8) 0.8717(2)
H10_21 H 0.7450 0.2832 0.8858
H11_21 H 0.7225 0.2873 0.8646
H12_21 H 0.7305 0.2361 0.8697
C9_21 C 0.8211(7) 0.3651(5) 0.8660(3)
H13_21 H 0.8198 0.3750 0.8797
H14_21 H 0.8593 0.3852 0.8613
H15_21 H 0.7985 0.3750 0.8579
C10_21 C 0.8059(12) 0.2957(10) 0.84205(17)
H16_21 H 0.7813 0.3039 0.8344
H17_21 H 0.8441 0.3202 0.8379
H18_21 H 0.7961 0.2573 0.8399
O5_21 O 0.78566(22) 0.23267(16) 0.95697(5)
O6_21 O 0.83548(21) 0.29146(15) 0.93248(5)
O7_12 O 0.88468(18) 0.22335(13) 0.93574(4)
C11_21 C 0.8035(3) 0.2776(2) 0.94768(9)
C12_21 C 0.7887(4) 0.3212(3) 0.95463(11)
C13_21 C 0.8376(9) 0.3656(6) 0.9645(3)
H19_21 H 0.8469 0.3506 0.9760
H20_21 H 0.8686 0.3815 0.9553
H21_21 H 0.8296 0.3942 0.9688
C14_21 C 0.7729(8) 0.3439(7) 0.93574(19)
H22_21 H 0.7396 0.3141 0.9297
H23_21 H 0.7662 0.3737 0.9396
H24_21 H 0.8032 0.3580 0.9262
C15_21 C 0.7381(6) 0.2951(4) 0.9680(2)
H25_21 H 0.7065 0.2665 0.9607
H26_21 H 0.7455 0.2786 0.9795
H27_21 H 0.7297 0.3234 0.9724
O8_21 O 0.77507(20) 0.17256(14) 0.92003(5)
O9_12 O 0.75852(22) 0.13606(16) 0.88925(6)
C16_21 C 0.7424(3) 0.1460(2) 0.90554(8)
C17_21 C 0.6807(4) 0.1247(3) 0.90816(9)
C18_21 C 0.6716(5) 0.1645(4) 0.92174(14)
H28_21 H 0.6890 0.1675 0.9345
H29_21 H 0.6880 0.2009 0.9156
H30_17 H 0.6320 0.1499 0.9236
C19_17 C 0.6519(6) 0.1196(5) 0.88812(11)
H31_17 H 0.6577 0.0951 0.8794
H32_17 H 0.6123 0.1043 0.8903
H33_21 H 0.6673 0.1560 0.8821
C20_17 C 0.6558(6) 0.0670(4) 0.91802(16)
H34_17 H 0.6617 0.0423 0.9095
H35_21 H 0.6739 0.0706 0.9307
H36_17 H 0.6163 0.0519 0.9201
O10_12 O 0.93815(20) 0.33093(14) 0.90882(5)
O11_21 O 0.96920(22) 0.35946(15) 0.93990(5)
C21_21 C 0.9619(3) 0.3692(2) 0.92195(8)
C22_21 C 0.9829(3) 0.4295(2) 0.91559(8)
C23_21 C 0.9443(5) 0.4303(3) 0.89929(13)
H37_21 H 0.9431 0.4073 0.8882
H38_21 H 0.9071 0.4158 0.9046
H39_21 H 0.9583 0.4681 0.8947
C25_21 C 0.9854(4) 0.4667(3) 0.93328(11)
H45_21 H 0.9484 0.4529 0.9386
C29_17 C 0.6474(4) 0.0909(3) 0.98939(9)
C30_17 C 0.6016(7) 0.0562(6) 0.97437(11)
H52_17 H 0.6109 0.0750 0.9616
H53_17 H 0.5665 0.0517 0.9791
H54_17 H 0.5985 0.0200 0.9730
C31_17 C 0.6619(6) 0.1512(4) 0.98873(15)
H55_17 H 0.6666 0.1636 0.9750
H56_21 H 0.6962 0.1738 0.9960
H57_17 H 0.6321 0.1548 0.9948
N2_21 N 0.69837(27) 0.08919(19) 0.98312(7)
O13_21 O 0.71958(24) 0.10626(18) 0.96550(6)
C32_21 C 0.7172(3) 0.0668(2) 0.99676(8)
C33_21 C 0.7660(4) 0.0584(3) 0.99489(10)
H59_21 H 0.7994 0.0941 0.9929
H60_21 H 0.7606 0.0344 0.9836
O14_12 O 0.80273(27) 0.09185(22) 0.94408(6)
Mn4_12 Mn 0.91678(5) 0.19152(4) 0.918687(10)
O15_12 O 0.89002(22) 0.21801(18) 0.89759(4)
O16_12 O 0.97039(28) 0.21850(23) 0.96476(5)
O17_12 O 0.99760(24) 0.27148(20) 0.92451(5)
Mn6_12 Mn 0.83499(5) 0.13979(4) 0.881515(11)
H49_17 H 0.5809 0.9949 0.0270
H50_17 H 0.5851 0.9816 0.0043
H49_18 H 0.5860 0.0051 0.4730
H50_18 H 0.6035 0.0184 0.4957
Mn1_13 Mn 0.63814(3) 0.83168(3) 0.548182(11)
Mn2_13 Mn 0.60808(3) 0.74989(3) 0.585354(10)
O1_22 O 0.63197(18) 0.72163(18) 0.52076(6)
O2_22 O 0.65486(18) 0.81177(18) 0.51933(6)
C1_22 C 0.6388(3) 0.7650(3) 0.51159(8)
C2_18 C 0.6259(4) 0.7583(3) 0.48911(10)
C3_18 C 0.6875(9) 0.8000(11) 0.47886(19)
H1_18 H 0.6836 0.7992 0.4645
H2_18 H 0.7015 0.8377 0.4836
H3_18 H 0.7133 0.7875 0.4825
C4_18 C 0.6000(10) 0.7893(5) 0.48262(19)
H4_18 H 0.5618 0.7711 0.4873
H5_18 H 0.6201 0.8267 0.4881
H6_18 H 0.6007 0.7912 0.4682
C5_18 C 0.6191(11) 0.7077(6) 0.48125(16)
H7_18 H 0.5847 0.6767 0.4862
H8_18 H 0.6179 0.7086 0.4669
H9_18 H 0.6502 0.7033 0.4854
O3_22 O 0.55348(15) 0.73115(16) 0.60682(5)
O4_13 O 0.58145(16) 0.69628(16) 0.63143(5)
C6_22 C 0.5478(2) 0.7088(2) 0.62371(9)
C7_22 C 0.4950(3) 0.6952(3) 0.63547(10)
C8_22 C 0.4697(6) 0.7243(8) 0.6283(2)
H10_22 H 0.4618 0.7168 0.6142
H11_22 H 0.4352 0.7127 0.6354
H12_22 H 0.4944 0.7639 0.6303
C9_22 C 0.4560(5) 0.6349(5) 0.6340(3)
H13_22 H 0.4448 0.6250 0.6203
H14_22 H 0.4741 0.6148 0.6387
H15_22 H 0.4235 0.6250 0.6421
C10_22 C 0.5102(6) 0.7043(10) 0.65795(17)
H16_22 H 0.4774 0.6961 0.6656
H17_22 H 0.5239 0.6798 0.6621
H18_22 H 0.5388 0.7427 0.6601
O5_22 O 0.55299(15) 0.76733(16) 0.54303(5)
O6_22 O 0.54402(14) 0.70854(15) 0.56752(5)
O7_13 O 0.66133(13) 0.77665(13) 0.56426(4)
C11_22 C 0.5259(2) 0.7224(2) 0.55232(9)
C12_22 C 0.4675(3) 0.6788(3) 0.54537(11)
C13_22 C 0.4720(7) 0.6344(6) 0.5355(3)
H19_22 H 0.4963 0.6494 0.5240
H20_22 H 0.4871 0.6185 0.5447
H21_22 H 0.4354 0.6058 0.5312
C14_22 C 0.4290(4) 0.6561(7) 0.56426(19)
H22_22 H 0.4255 0.6859 0.5703
H23_22 H 0.3925 0.6263 0.5604
H24_22 H 0.4452 0.6420 0.5738
C15_22 C 0.4430(4) 0.7049(4) 0.5320(2)
H25_22 H 0.4400 0.7335 0.5393
H26_22 H 0.4669 0.7214 0.5205
H27_22 H 0.4063 0.6766 0.5276
O8_22 O 0.60251(14) 0.82744(14) 0.57997(5)
O9_13 O 0.62246(15) 0.86394(16) 0.61075(6)
C16_22 C 0.5964(2) 0.8540(2) 0.59446(8)
C17_22 C 0.5560(3) 0.8753(3) 0.59184(9)
C18_22 C 0.5071(3) 0.8355(4) 0.57826(14)
H28_22 H 0.5215 0.8325 0.5655
H29_22 H 0.4871 0.7991 0.5844
H30_18 H 0.4821 0.8501 0.5764
C19_18 C 0.5323(4) 0.8804(5) 0.61188(11)
H31_18 H 0.5626 0.9049 0.6206
H32_18 H 0.5080 0.8957 0.6097
H33_22 H 0.5113 0.8440 0.6179
C20_18 C 0.5888(4) 0.9330(4) 0.58198(16)
H34_18 H 0.6194 0.9577 0.5905
H35_22 H 0.6033 0.9294 0.5693
H36_18 H 0.5644 0.9481 0.5799
O10_13 O 0.60722(14) 0.66907(14) 0.59118(5)
O11_22 O 0.60974(16) 0.64054(15) 0.56010(5)
C21_22 C 0.5927(2) 0.6308(2) 0.57805(8)
C22_22 C 0.5534(2) 0.5705(2) 0.58441(8)
C23_22 C 0.5140(4) 0.5697(3) 0.60071(13)
H37_22 H 0.5358 0.5927 0.6118
H38_22 H 0.4913 0.5842 0.5954
H39_22 H 0.4902 0.5319 0.6053
C24_18 C 0.5892(3) 0.5476(3) 0.59263(14)
H40_18 H 0.6136 0.5479 0.5823
H41_18 H 0.6113 0.5705 0.6036
H42_18 H 0.5654 0.5097 0.5972
C25_22 C 0.5187(3) 0.5333(3) 0.56672(11)
H43_18 H 0.5436 0.5341 0.5564
H44_18 H 0.4955 0.4953 0.5713
H45_22 H 0.4955 0.5471 0.5614
N1_18 N 0.63100(19) 0.94620(19) 0.48686(7)
C26_14 C 0.5726(2) 0.9354(3) 0.48881(9)
C27_14 C 0.5381(4) 0.8955(3) 0.47192(11)
H46_14 H 0.5509 0.9143 0.4592
H47_14 H 0.4992 0.8842 0.4737
H48_18 H 0.5425 0.8630 0.4721
C28_14 C 0.5758(3) 0.9919(3) 0.48661(12)
H51_14 H 0.5399 0.9880 0.4896
C29_18 C 0.5565(3) 0.9091(3) 0.51061(9)
C30_18 C 0.5454(3) 0.9438(6) 0.52563(11)
H52_18 H 0.5359 0.9250 0.5384
H53_18 H 0.5148 0.9483 0.5209
H54_18 H 0.5785 0.9800 0.5270
C31_18 C 0.5107(5) 0.8488(4) 0.51127(15)
H55_18 H 0.5030 0.8364 0.5250
H56_22 H 0.5224 0.8262 0.5040
H57_18 H 0.4773 0.8452 0.5052
N2_22 N 0.60918(19) 0.91081(19) 0.51688(7)
O13_22 O 0.61332(16) 0.89374(18) 0.53450(6)
C32_22 C 0.6504(2) 0.9332(2) 0.50324(8)
C33_22 C 0.7076(3) 0.9416(3) 0.50511(10)
H58_18 H 0.7284 0.9587 0.4931
H59_22 H 0.7053 0.9059 0.5071
H60_22 H 0.7262 0.9656 0.5164
O14_13 O 0.71087(15) 0.90815(22) 0.55592(6)
Mn4_13 Mn 0.72525(3) 0.80848(4) 0.581313(10)
O15_13 O 0.67200(13) 0.78199(18) 0.60241(4)
O16_13 O 0.75188(16) 0.78150(23) 0.53524(5)
O17_13 O 0.72611(14) 0.72852(20) 0.57549(5)
Mn6_13 Mn 0.69519(3) 0.86021(4) 0.618485(11)
Mn1_14 Mn 0.16501(3) 0.30481(3) 0.618485(11)
Mn2_14 Mn 0.08322(3) 0.27475(3) 0.581313(10)
O1_23 O 0.05496(18) 0.29864(18) 0.64591(6)
O2_23 O 0.14510(18) 0.32153(18) 0.64734(6)
C1_23 C 0.0983(3) 0.3055(3) 0.65508(8)
C2_19 C 0.0916(3) 0.2926(4) 0.67756(10)
C3_19 C 0.1333(11) 0.3542(9) 0.68781(19)
H1_19 H 0.1325 0.3503 0.7022
H2_19 H 0.1710 0.3682 0.6831
H3_19 H 0.1208 0.3800 0.6842
C4_19 C 0.1226(5) 0.2667(10) 0.68405(19)
H4_19 H 0.1044 0.2285 0.6794
H5_19 H 0.1600 0.2868 0.6786
H6_19 H 0.1245 0.2674 0.6985
C5_19 C 0.0410(6) 0.2858(11) 0.68542(16)
H7_19 H 0.0100 0.2514 0.6805
H8_19 H 0.0419 0.2846 0.6998
H9_19 H 0.0366 0.3169 0.6813
O3_23 O 0.06448(16) 0.22015(15) 0.55985(5)
O4_14 O 0.02961(16) 0.24812(16) 0.53524(5)
C6_23 C 0.0421(2) 0.2145(2) 0.54296(9)
C7_23 C 0.0285(3) 0.1617(3) 0.53120(10)
C8_23 C 0.0576(8) 0.1364(6) 0.5384(2)
H10_23 H 0.0501 0.1285 0.5525
H11_23 H 0.0460 0.1019 0.5313
H12_23 H 0.0972 0.1611 0.5364
C10_23 C 0.0376(10) 0.1769(6) 0.50872(17)
H16_23 H 0.0294 0.1441 0.5011
H17_23 H 0.0131 0.1906 0.5046
H18_23 H 0.0760 0.2055 0.5066
O5_23 O 0.10066(16) 0.21966(15) 0.62364(5)
O6_23 O 0.04187(15) 0.21069(14) 0.59915(5)
O7_14 O 0.10998(13) 0.32800(13) 0.60241(4)
C11_23 C 0.0557(2) 0.1926(2) 0.61435(9)
C12_23 C 0.0121(3) 0.1342(3) 0.62130(11)
H22_23 H 0.0192 0.0922 0.5964
C15_23 C 0.0382(4) 0.1097(4) 0.6347(2)
H25_23 H 0.0668 0.1067 0.6274
H26_23 H 0.0547 0.1336 0.6462
H27_23 H 0.0099 0.0730 0.6391
O8_23 O 0.16077(14) 0.26918(14) 0.58670(5)
O9_14 O 0.19727(16) 0.28913(15) 0.55592(6)
C16_23 C 0.1873(2) 0.2631(2) 0.57221(8)
C17_23 C 0.2086(3) 0.2227(3) 0.57483(9)
C18_23 C 0.1688(4) 0.1738(3) 0.58841(14)
H28_23 H 0.1658 0.1882 0.6012
H29_23 H 0.1324 0.1538 0.5823
H30_19 H 0.1834 0.1488 0.5903
C19_19 C 0.2137(5) 0.1990(4) 0.55479(11)
H31_19 H 0.2382 0.2293 0.5461
H32_19 H 0.2290 0.1747 0.5570
H33_23 H 0.1773 0.1780 0.5488
C20_19 C 0.2663(4) 0.2555(4) 0.58469(16)
H34_19 H 0.2910 0.2861 0.5762
H35_23 H 0.2627 0.2700 0.5974
H36_19 H 0.2814 0.2311 0.5868
O10_14 O 0.00240(14) 0.27389(14) 0.57549(5)
N1_19 N 0.27953(19) 0.29767(19) 0.67981(7)
C26_15 C 0.2687(3) 0.2393(2) 0.67786(9)
C27_15 C 0.2288(3) 0.2048(4) 0.69475(11)
H46_15 H 0.2476 0.2176 0.7075
H47_15 H 0.2175 0.1659 0.6930
H48_19 H 0.1963 0.2092 0.6946
C28_15 C 0.3252(3) 0.2425(3) 0.68006(12)
H49_19 H 0.3384 0.2527 0.6937
H50_19 H 0.3517 0.2702 0.6710
H51_15 H 0.3213 0.2066 0.6771
C29_19 C 0.2424(3) 0.2232(3) 0.65606(9)
C30_19 C 0.2771(6) 0.2121(3) 0.64104(11)
H52_19 H 0.2583 0.2026 0.6283
H53_19 H 0.2816 0.1815 0.6458
H54_19 H 0.3133 0.2452 0.6397
C31_19 C 0.1821(4) 0.1774(5) 0.65540(15)
H55_19 H 0.1697 0.1697 0.6417
H56_23 H 0.1595 0.1891 0.6627
H57_19 H 0.1785 0.1440 0.6615
N2_23 N 0.24414(19) 0.27585(19) 0.64979(7)
O13_23 O 0.22707(18) 0.27999(16) 0.63217(6)
C32_23 C 0.2665(2) 0.3171(2) 0.66343(8)
C33_23 C 0.2749(3) 0.3743(3) 0.66156(10)
H58_19 H 0.2920 0.3951 0.6736
H59_23 H 0.2392 0.3720 0.6596
H60_23 H 0.2989 0.3929 0.6503
O14_14 O 0.24148(22) 0.37754(15) 0.61075(6)
Mn4_14 Mn 0.14181(4) 0.39192(3) 0.585354(10)
O15_14 O 0.11532(18) 0.33867(13) 0.56426(4)
O16_14 O 0.11483(23) 0.41855(16) 0.63143(5)
O17_14 O 0.06185(20) 0.39278(14) 0.59118(5)
Mn6_14 Mn 0.19354(4) 0.36186(3) 0.548182(11)
C9_23 C 0.9682(5) 0.1227(5) 0.5327(3)
H13_23 H 0.9583 0.1115 0.5464
H14_23 H 0.9481 0.1408 0.5280
H15_23 H 0.9583 0.0902 0.5246
C13_23 C 0.9677(6) 0.1387(7) 0.6312(3)
H19_23 H 0.9827 0.1630 0.6427
H20_23 H 0.9518 0.1538 0.6220
H21_23 H 0.9391 0.1021 0.6355
C14_23 C 0.9894(7) 0.0957(4) 0.60241(19)
H23_23 H 0.9596 0.0592 0.6063
H24_23 H 0.9753 0.1119 0.5929
O11_23 O 0.97387(15) 0.27641(16) 0.60657(5)
C21_23 C 0.9641(2) 0.2594(2) 0.58862(8)
C22_23 C 0.9038(2) 0.2201(2) 0.58226(8)
C23_23 C 0.9030(3) 0.1807(4) 0.56596(13)
H37_23 H 0.9260 0.2025 0.5549
H38_23 H 0.9175 0.1580 0.5713
H39_23 H 0.8652 0.1569 0.5614
C24_19 C 0.8809(3) 0.2559(3) 0.57404(14)
H40_19 H 0.8812 0.2803 0.5844
H41_19 H 0.9038 0.2780 0.5631
H42_19 H 0.8430 0.2321 0.5695
C25_23 C 0.8666(3) 0.1854(3) 0.59995(11)
H43_19 H 0.8674 0.2103 0.6103
H44_19 H 0.8286 0.1622 0.5954
H45_23 H 0.8804 0.1622 0.6053
O1_24 O 0.70136(18) 0.75633(25) 0.64591(6)
O2_24 O 0.67847(18) 0.82358(25) 0.64734(6)
C1_24 C 0.6945(3) 0.7929(4) 0.65508(8)
C2_20 C 0.7074(4) 0.7991(5) 0.67756(10)
C3_20 C 0.6458(9) 0.7792(14) 0.68781(19)
H1_20 H 0.6497 0.7823 0.7022
H2_20 H 0.6318 0.8029 0.6831
H3_20 H 0.6200 0.7409 0.6842
C4_20 C 0.7333(10) 0.8560(11) 0.68405(19)
H4_20 H 0.7715 0.8760 0.6794
H5_20 H 0.7132 0.8733 0.6786
H6_20 H 0.7326 0.8572 0.6985
C5_20 C 0.7142(11) 0.7553(13) 0.68542(16)
H7_20 H 0.7486 0.7587 0.6805
H8_20 H 0.7154 0.7574 0.6998
H9_20 H 0.6831 0.7198 0.6813
O3_24 O 0.77985(15) 0.84434(22) 0.55985(5)
C6_24 C 0.7855(2) 0.8277(3) 0.54296(9)
C7_24 C 0.8383(3) 0.8669(4) 0.53120(10)
C8_24 C 0.8636(6) 0.9213(10) 0.5384(2)
H10_24 H 0.8715 0.9217 0.5525
H11_24 H 0.8981 0.9442 0.5313
H12_24 H 0.8389 0.9362 0.5364
C9_24 C 0.8773(5) 0.8456(7) 0.5327(3)
H13_24 H 0.8885 0.8469 0.5464
H14_24 H 0.8592 0.8074 0.5280
H15_24 H 0.9098 0.8682 0.5246
C10_24 C 0.8231(6) 0.8608(12) 0.50872(17)
H16_24 H 0.8559 0.8854 0.5011
H17_24 H 0.8094 0.8226 0.5046
H18_24 H 0.7945 0.8706 0.5066
O5_24 O 0.78034(15) 0.88101(22) 0.62364(5)
O6_24 O 0.78931(14) 0.83119(21) 0.59915(5)
C11_24 C 0.8074(2) 0.8632(3) 0.61435(9)
C12_24 C 0.8658(3) 0.8780(4) 0.62130(11)
C13_24 C 0.8613(7) 0.8291(9) 0.6312(3)
H19_24 H 0.8370 0.8198 0.6427
H20_24 H 0.8462 0.7981 0.6220
H21_24 H 0.8979 0.8371 0.6355
C14_24 C 0.9043(4) 0.8938(8) 0.60241(19)
H22_24 H 0.9078 0.9271 0.5964
H23_24 H 0.9408 0.9005 0.6063
H24_24 H 0.8881 0.8635 0.5929
C15_24 C 0.8903(4) 0.9286(6) 0.6347(2)
H25_24 H 0.8933 0.9602 0.6274
H26_24 H 0.8664 0.9212 0.6462
H27_24 H 0.9270 0.9370 0.6391
O8_24 O 0.73082(14) 0.89160(20) 0.58670(5)
C16_24 C 0.7369(2) 0.9243(3) 0.57221(8)
C17_24 C 0.7773(3) 0.9860(4) 0.57483(9)
C18_24 C 0.8262(3) 0.9951(5) 0.58841(14)
H28_24 H 0.8118 0.9777 0.6012
H29_24 H 0.8462 0.9787 0.5823
H33_24 H 0.8220 0.9994 0.5488
H35_24 H 0.7300 0.9928 0.5974
O11_24 O 0.72359(16) 0.69747(22) 0.60657(5)
C21_24 C 0.7406(2) 0.7048(3) 0.58862(8)
C22_24 C 0.7799(2) 0.6838(3) 0.58226(8)
C23_24 C 0.8193(4) 0.7224(5) 0.56596(13)
H37_24 H 0.7975 0.7236 0.5549
H38_24 H 0.8420 0.7596 0.5713
H39_24 H 0.8431 0.7084 0.5614
C24_20 C 0.7441(3) 0.6251(4) 0.57404(14)
H40_20 H 0.7197 0.6010 0.5844
H41_20 H 0.7220 0.6259 0.5631
H42_20 H 0.7679 0.6110 0.5695
C25_24 C 0.8146(3) 0.6813(4) 0.59995(11)
H43_20 H 0.7897 0.6572 0.6103
H44_20 H 0.8378 0.6665 0.5954
H45_24 H 0.8378 0.7183 0.6053
N1_20 N 0.70233(19) 0.98187(27) 0.67981(7)
H48_20 H 0.7908 0.9872 0.6946
H56_24 H 0.8109 0.9705 0.6627
N2_24 N 0.72415(19) 0.96830(27) 0.64979(7)
O13_24 O 0.72001(16) 0.94709(24) 0.63217(6)
C32_24 C 0.6829(2) 0.9495(3) 0.66343(8)
C33_24 C 0.6257(3) 0.9007(4) 0.66156(10)
H58_20 H 0.6049 0.8970 0.6736
H59_24 H 0.6280 0.8673 0.6596
H60_24 H 0.6071 0.9061 0.6503
C9_25 C 0.1544(7) 0.0318(5) 0.5327(3)
H13_25 H 0.1531 0.0417 0.5464
H14_25 H 0.1926 0.0519 0.5280
H15_25 H 0.1318 0.0417 0.5246
C13_25 C 0.1709(9) 0.0323(6) 0.6312(3)
H19_25 H 0.1802 0.0173 0.6427
H20_25 H 0.2019 0.0482 0.6220
H21_25 H 0.1629 0.0609 0.6355
C14_25 C 0.1062(8) 0.0106(7) 0.60241(19)
H23_25 H 0.0995 0.0404 0.6063
H24_25 H 0.1365 0.0247 0.5929
O11_25 O 0.30253(22) 0.02613(15) 0.60657(5)
C21_25 C 0.2952(3) 0.0359(2) 0.58862(8)
C22_25 C 0.3162(3) 0.0962(2) 0.58226(8)
C23_25 C 0.2776(5) 0.0970(3) 0.56596(13)
H37_25 H 0.2764 0.0740 0.5549
H38_25 H 0.2404 0.0825 0.5713
H39_25 H 0.2916 0.1348 0.5614
C24_21 C 0.3749(4) 0.1191(3) 0.57404(14)
H40_21 H 0.3990 0.1188 0.5844
H41_21 H 0.3741 0.0962 0.5631
H42_21 H 0.3890 0.1570 0.5695
C25_25 C 0.3187(4) 0.1334(3) 0.59995(11)
H43_21 H 0.3428 0.1326 0.6103
H44_21 H 0.3335 0.1714 0.5954
H45_25 H 0.2817 0.1196 0.6053
Mn1_15 Mn 0.13979(4) 0.83499(3) 0.618485(11)
Mn2_15 Mn 0.19152(4) 0.91678(3) 0.581313(10)
O1_25 O 0.24367(25) 0.94504(18) 0.64591(6)
O2_25 O 0.17642(25) 0.85490(18) 0.64734(6)
C1_25 C 0.2071(4) 0.9017(3) 0.65508(8)
C2_21 C 0.2009(5) 0.9084(3) 0.67756(10)
C3_21 C 0.2208(14) 0.8667(11) 0.68781(19)
H1_21 H 0.2177 0.8675 0.7022
H2_21 H 0.1971 0.8290 0.6831
H3_21 H 0.2591 0.8792 0.6842
C4_21 C 0.1440(11) 0.8774(5) 0.68405(19)
H4_21 H 0.1240 0.8956 0.6794
H5_21 H 0.1267 0.8400 0.6786
H6_21 H 0.1428 0.8755 0.6985
C5_21 C 0.2447(13) 0.9590(6) 0.68542(16)
H7_21 H 0.2413 0.9900 0.6805
H8_21 H 0.2426 0.9581 0.6998
H9_21 H 0.2802 0.9634 0.6813
O3_25 O 0.15566(22) 0.93552(16) 0.55985(5)
O4_15 O 0.21850(23) 0.97039(16) 0.53524(5)
C6_25 C 0.1723(3) 0.9579(2) 0.54296(9)
C7_25 C 0.1331(4) 0.9715(3) 0.53120(10)
C8_25 C 0.0787(10) 0.9424(8) 0.5384(2)
H10_25 H 0.0783 0.9499 0.5525
H11_25 H 0.0558 0.9540 0.5313
H12_25 H 0.0638 0.9028 0.5364
C10_25 C 0.1392(12) 0.9624(10) 0.50872(17)
H16_25 H 0.1146 0.9706 0.5011
H17_25 H 0.1774 0.9869 0.5046
H18_25 H 0.1294 0.9240 0.5066
O5_25 O 0.11899(22) 0.89934(16) 0.62364(5)
O6_25 O 0.16881(21) 0.95813(15) 0.59915(5)
O7_15 O 0.21801(18) 0.89002(13) 0.60241(4)
C11_25 C 0.1368(3) 0.9443(2) 0.61435(9)
C12_25 C 0.1220(4) 0.9879(3) 0.62130(11)
H22_25 H 0.0729 0.9808 0.5964
C15_25 C 0.0714(6) 0.9618(4) 0.6347(2)
H25_25 H 0.0398 0.9332 0.6274
H26_25 H 0.0788 0.9453 0.6462
H27_25 H 0.0630 0.9901 0.6391
O8_25 O 0.10840(20) 0.83923(14) 0.58670(5)
O9_15 O 0.09185(22) 0.80273(16) 0.55592(6)
C16_25 C 0.0757(3) 0.8127(2) 0.57221(8)
C17_25 C 0.0140(4) 0.7914(3) 0.57483(9)
C18_25 C 0.0049(5) 0.8312(4) 0.58841(14)
H28_25 H 0.0223 0.8342 0.6012
H29_25 H 0.0213 0.8676 0.5823
H33_25 H 0.0006 0.8227 0.5488
H35_25 H 0.0072 0.7373 0.5974
O10_15 O 0.27148(20) 0.99760(14) 0.57549(5)
N1_21 N 0.01813(27) 0.72047(19) 0.67981(7)
H48_21 H 0.0128 0.8037 0.6946
H56_25 H 0.0295 0.8405 0.6627
N2_25 N 0.03170(27) 0.75586(19) 0.64979(7)
O13_25 O 0.05291(24) 0.77293(18) 0.63217(6)
C32_25 C 0.0505(3) 0.7335(2) 0.66343(8)
C33_25 C 0.0993(4) 0.7251(3) 0.66156(10)
H58_21 H 0.1030 0.7080 0.6736
H59_25 H 0.1327 0.7608 0.6596
H60_25 H 0.0939 0.7011 0.6503
O14_15 O 0.13606(27) 0.75852(22) 0.61075(6)
Mn4_15 Mn 0.25011(5) 0.85819(4) 0.585354(10)
O15_15 O 0.22335(22) 0.88468(18) 0.56426(4)
O16_15 O 0.30372(28) 0.88517(23) 0.63143(5)
O17_15 O 0.33093(24) 0.93815(20) 0.59118(5)
Mn6_15 Mn 0.16832(5) 0.80646(4) 0.548182(11)
C3_22 C 0.0208(9) 0.4667(11) 0.14553(19)
H1_22 H 0.0169 0.4659 0.1312
H2_22 H 0.0348 0.5044 0.1503
H3_22 H 0.0466 0.4542 0.1492
C33_26 C 0.0409(3) 0.6083(3) 0.17178(10)
H58_22 H 0.0617 0.6254 0.1598
H59_26 H 0.0386 0.5726 0.1738
H60_26 H 0.0595 0.6323 0.1831
O14_16 O 0.04421(15) 0.57481(22) 0.22258(6)
Mn4_16 Mn 0.05859(3) 0.47514(4) 0.247979(10)
O15_16 O 0.00534(13) 0.44865(18) 0.26907(4)
O16_16 O 0.08522(16) 0.44816(23) 0.20190(5)
O17_16 O 0.05945(14) 0.39518(20) 0.24215(5)
Mn6_16 Mn 0.02853(3) 0.52687(4) 0.285151(11)
Mn1_16 Mn 0.97147(3) 0.49835(3) 0.214849(11)
Mn2_16 Mn 0.94141(3) 0.41656(3) 0.252021(10)
O1_26 O 0.96530(18) 0.38830(18) 0.18743(6)
O2_26 O 0.98819(18) 0.47844(18) 0.18600(6)
C1_26 C 0.9721(3) 0.4317(3) 0.17826(8)
C2_22 C 0.9592(4) 0.4250(3) 0.15578(10)
C4_22 C 0.9333(10) 0.4560(5) 0.14929(19)
H4_22 H 0.8951 0.4378 0.1540
H5_22 H 0.9534 0.4934 0.1548
H6_22 H 0.9340 0.4579 0.1349
C5_22 C 0.9524(11) 0.3744(6) 0.14792(16)
H7_22 H 0.9180 0.3434 0.1529
H8_22 H 0.9512 0.3753 0.1336
H9_22 H 0.9835 0.3700 0.1521
O3_26 O 0.88681(15) 0.39782(16) 0.27349(5)
O4_16 O 0.91478(16) 0.36295(16) 0.29810(5)
C6_26 C 0.8811(2) 0.3755(2) 0.29038(9)
C7_26 C 0.8283(3) 0.3619(3) 0.30214(10)
C8_26 C 0.8030(6) 0.3910(8) 0.2950(2)
H10_26 H 0.7951 0.3835 0.2809
H11_26 H 0.7685 0.3794 0.3021
H12_26 H 0.8277 0.4306 0.2970
C9_26 C 0.7893(5) 0.3016(5) 0.3007(3)
H13_26 H 0.7781 0.2917 0.2870
H14_26 H 0.8074 0.2815 0.3054
H15_26 H 0.7568 0.2917 0.3088
C10_26 C 0.8435(6) 0.3710(10) 0.32462(17)
H16_26 H 0.8107 0.3628 0.3323
H17_26 H 0.8572 0.3465 0.3288
H18_26 H 0.8721 0.4094 0.3268
O5_26 O 0.88632(15) 0.43400(16) 0.20970(5)
O6_26 O 0.87735(14) 0.37521(15) 0.23419(5)
O7_16 O 0.99466(13) 0.44332(13) 0.23093(4)
C11_26 C 0.8592(2) 0.3891(2) 0.21899(9)
C12_26 C 0.8008(3) 0.3455(3) 0.21204(11)
C13_26 C 0.8053(7) 0.3011(6) 0.2022(3)
H19_26 H 0.8296 0.3161 0.1907
H20_26 H 0.8204 0.2852 0.2114
H21_26 H 0.7687 0.2725 0.1979
C14_26 C 0.7623(4) 0.3228(7) 0.23093(19)
H22_26 H 0.7588 0.3526 0.2370
H23_26 H 0.7258 0.2930 0.2271
H24_26 H 0.7785 0.3087 0.2405
C15_26 C 0.7763(4) 0.3716(4) 0.1987(2)
H25_26 H 0.7733 0.4002 0.2060
H26_26 H 0.8002 0.3881 0.1872
H27_26 H 0.7396 0.3433 0.1943
O8_26 O 0.93584(14) 0.49411(14) 0.24664(5)
O9_16 O 0.95579(15) 0.53061(16) 0.27742(6)
C16_26 C 0.9297(2) 0.5207(2) 0.26113(8)
C17_26 C 0.8893(3) 0.5420(3) 0.25851(9)
C18_26 C 0.8404(3) 0.5022(4) 0.24493(14)
H28_26 H 0.8548 0.4992 0.2322
H29_26 H 0.8204 0.4658 0.2511
H30_20 H 0.8154 0.5168 0.2431
C19_20 C 0.8656(4) 0.5471(5) 0.27855(11)
H31_20 H 0.8959 0.5716 0.2873
H32_20 H 0.8413 0.5624 0.2764
H33_26 H 0.8446 0.5107 0.2846
C20_20 C 0.9221(4) 0.5997(4) 0.24865(16)
H34_20 H 0.9527 0.6244 0.2572
H35_26 H 0.9366 0.5961 0.2360
H36_20 H 0.8977 0.6148 0.2466
O10_16 O 0.94055(14) 0.33574(14) 0.25785(5)
O11_26 O 0.94307(16) 0.30721(15) 0.22677(5)
C21_26 C 0.9260(2) 0.2975(2) 0.24472(8)
C22_26 C 0.8867(2) 0.2372(2) 0.25108(8)
C23_26 C 0.8473(4) 0.2364(3) 0.26738(13)
H37_26 H 0.8691 0.2594 0.2785
H38_26 H 0.8246 0.2509 0.2621
H39_26 H 0.8235 0.1986 0.2720
C24_22 C 0.9225(3) 0.2143(3) 0.25930(14)
H40_22 H 0.9469 0.2146 0.2490
H41_22 H 0.9446 0.2372 0.2703
H42_22 H 0.8987 0.1764 0.2639
C25_26 C 0.8520(3) 0.2000(3) 0.23339(11)
H43_22 H 0.8769 0.2008 0.2231
H44_22 H 0.8288 0.1620 0.2380
H45_26 H 0.8288 0.2138 0.2281
N1_22 N 0.96433(19) 0.61287(19) 0.15353(7)
C26_16 C 0.9059(2) 0.6021(3) 0.15548(9)
C27_16 C 0.8714(4) 0.5622(3) 0.13859(11)
H46_16 H 0.8842 0.5810 0.1259
H47_16 H 0.8325 0.5509 0.1404
H48_22 H 0.8758 0.5297 0.1388
C28_16 C 0.9091(3) 0.6586(3) 0.15328(12)
H49_20 H 0.9193 0.6718 0.1397
H50_20 H 0.9368 0.6851 0.1624
H51_16 H 0.8732 0.6547 0.1563
C29_20 C 0.8898(3) 0.5758(3) 0.17728(9)
C30_20 C 0.8787(3) 0.6105(6) 0.19230(11)
H52_20 H 0.8692 0.5917 0.2051
H53_20 H 0.8481 0.6150 0.1876
H54_20 H 0.9118 0.6467 0.1937
C31_20 C 0.8440(5) 0.5155(4) 0.17794(15)
H55_20 H 0.8363 0.5031 0.1917
H56_26 H 0.8557 0.4929 0.1707
H57_20 H 0.8106 0.5119 0.1719
N2_26 N 0.94251(19) 0.57748(19) 0.18355(7)
O13_26 O 0.94665(16) 0.56041(18) 0.20117(6)
C32_26 C 0.9837(2) 0.5999(2) 0.16991(8)
C3_23 C 0.4667(11) 0.0208(9) 0.35447(19)
H1_23 H 0.4659 0.0169 0.3688
H2_23 H 0.5044 0.0348 0.3497
H3_23 H 0.4542 0.0466 0.3508
C33_27 C 0.6083(3) 0.0409(3) 0.32822(10)
H58_23 H 0.6254 0.0617 0.3402
H59_27 H 0.5726 0.0386 0.3262
H60_27 H 0.6323 0.0595 0.3169
O14_17 O 0.57481(22) 0.04421(15) 0.27742(6)
Mn4_17 Mn 0.47514(4) 0.05859(3) 0.252021(10)
O15_17 O 0.44865(18) 0.00534(13) 0.23093(4)
O16_17 O 0.44816(23) 0.08522(16) 0.29810(5)
O17_17 O 0.39518(20) 0.05945(14) 0.25785(5)
Mn6_17 Mn 0.52687(4) 0.02853(3) 0.214849(11)
Mn1_17 Mn 0.49835(3) 0.97147(3) 0.285151(11)
Mn2_17 Mn 0.41656(3) 0.94141(3) 0.247979(10)
O1_27 O 0.38830(18) 0.96530(18) 0.31257(6)
O2_27 O 0.47844(18) 0.98819(18) 0.31400(6)
C1_27 C 0.4317(3) 0.9721(3) 0.32174(8)
C2_23 C 0.4250(3) 0.9592(4) 0.34422(10)
C4_23 C 0.4560(5) 0.9333(10) 0.35071(19)
H4_23 H 0.4378 0.8951 0.3460
H5_23 H 0.4934 0.9534 0.3452
H6_23 H 0.4579 0.9340 0.3651
C5_23 C 0.3744(6) 0.9524(11) 0.35208(16)
H7_23 H 0.3434 0.9180 0.3471
H8_23 H 0.3753 0.9512 0.3664
H9_23 H 0.3700 0.9835 0.3479
O3_27 O 0.39782(16) 0.88681(15) 0.22651(5)
O4_17 O 0.36295(16) 0.91478(16) 0.20190(5)
C6_27 C 0.3755(2) 0.8811(2) 0.20962(9)
C7_27 C 0.3619(3) 0.8283(3) 0.19786(10)
C8_27 C 0.3910(8) 0.8030(6) 0.2050(2)
H10_27 H 0.3835 0.7951 0.2191
H11_27 H 0.3794 0.7685 0.1979
H12_27 H 0.4306 0.8277 0.2030
C9_27 C 0.3016(5) 0.7893(5) 0.1993(3)
H13_27 H 0.2917 0.7781 0.2130
H14_27 H 0.2815 0.8074 0.1946
H15_27 H 0.2917 0.7568 0.1912
C10_27 C 0.3710(10) 0.8435(6) 0.17538(17)
H16_27 H 0.3628 0.8107 0.1677
H17_27 H 0.3465 0.8572 0.1712
H18_27 H 0.4094 0.8721 0.1732
O5_27 O 0.43400(16) 0.88632(15) 0.29030(5)
O6_27 O 0.37521(15) 0.87735(14) 0.26581(5)
O7_17 O 0.44332(13) 0.99466(13) 0.26907(4)
C11_27 C 0.3891(2) 0.8592(2) 0.28101(9)
C12_27 C 0.3455(3) 0.8008(3) 0.28796(11)
C13_27 C 0.3011(6) 0.8053(7) 0.2978(3)
H19_27 H 0.3161 0.8296 0.3093
H20_27 H 0.2852 0.8204 0.2886
H21_27 H 0.2725 0.7687 0.3021
C14_27 C 0.3228(7) 0.7623(4) 0.26907(19)
H22_27 H 0.3526 0.7588 0.2630
H23_27 H 0.2930 0.7258 0.2729
H24_27 H 0.3087 0.7785 0.2595
C15_27 C 0.3716(4) 0.7763(4) 0.3013(2)
H25_27 H 0.4002 0.7733 0.2940
H26_27 H 0.3881 0.8002 0.3128
H27_27 H 0.3433 0.7396 0.3057
O8_27 O 0.49411(14) 0.93584(14) 0.25336(5)
O9_17 O 0.53061(16) 0.95579(15) 0.22258(6)
C16_27 C 0.5207(2) 0.9297(2) 0.23887(8)
C17_27 C 0.5420(3) 0.8893(3) 0.24149(9)
C18_27 C 0.5022(4) 0.8404(3) 0.25507(14)
H28_27 H 0.4992 0.8548 0.2678
H29_27 H 0.4658 0.8204 0.2489
H30_21 H 0.5168 0.8154 0.2569
C19_21 C 0.5471(5) 0.8656(4) 0.22145(11)
H31_21 H 0.5716 0.8959 0.2127
H32_21 H 0.5624 0.8413 0.2236
H33_27 H 0.5107 0.8446 0.2154
C20_21 C 0.5997(4) 0.9221(4) 0.25135(16)
H34_21 H 0.6244 0.9527 0.2428
H35_27 H 0.5961 0.9366 0.2640
H36_21 H 0.6148 0.8977 0.2534
O10_17 O 0.33574(14) 0.94055(14) 0.24215(5)
O11_27 O 0.30721(15) 0.94307(16) 0.27323(5)
C21_27 C 0.2975(2) 0.9260(2) 0.25528(8)
C22_27 C 0.2372(2) 0.8867(2) 0.24892(8)
C23_27 C 0.2364(3) 0.8473(4) 0.23262(13)
H37_27 H 0.2594 0.8691 0.2215
H38_27 H 0.2509 0.8246 0.2379
H39_27 H 0.1986 0.8235 0.2280
C24_23 C 0.2143(3) 0.9225(3) 0.24070(14)
H40_23 H 0.2146 0.9469 0.2510
H41_23 H 0.2372 0.9446 0.2297
H42_23 H 0.1764 0.8987 0.2361
C25_27 C 0.2000(3) 0.8520(3) 0.26661(11)
H43_23 H 0.2008 0.8769 0.2769
H44_23 H 0.1620 0.8288 0.2620
H45_27 H 0.2138 0.8288 0.2719
N1_23 N 0.61287(19) 0.96433(19) 0.34647(7)
C26_17 C 0.6021(3) 0.9059(2) 0.34452(9)
C27_17 C 0.5622(3) 0.8714(4) 0.36141(11)
H46_17 H 0.5810 0.8842 0.3741
H47_17 H 0.5509 0.8325 0.3596
H48_23 H 0.5297 0.8758 0.3612
C28_17 C 0.6586(3) 0.9091(3) 0.34672(12)
H49_21 H 0.6718 0.9193 0.3603
H50_21 H 0.6851 0.9368 0.3376
H51_17 H 0.6547 0.8732 0.3437
C29_21 C 0.5758(3) 0.8898(3) 0.32272(9)
C30_21 C 0.6105(6) 0.8787(3) 0.30770(11)
H52_21 H 0.5917 0.8692 0.2949
H53_21 H 0.6150 0.8481 0.3124
H54_21 H 0.6467 0.9118 0.3063
C31_21 C 0.5155(4) 0.8440(5) 0.32206(15)
H55_21 H 0.5031 0.8363 0.3083
H56_27 H 0.4929 0.8557 0.3293
H57_21 H 0.5119 0.8106 0.3281
N2_27 N 0.57748(19) 0.94251(19) 0.31645(7)
O13_27 O 0.56041(18) 0.94665(16) 0.29883(6)
C32_27 C 0.5999(2) 0.9837(2) 0.33009(8)
O1_28 O 0.29864(18) 0.05496(18) 0.85409(6)
O2_28 O 0.32153(18) 0.14510(18) 0.85266(6)
C1_28 C 0.3055(3) 0.0983(3) 0.84492(8)
C2_24 C 0.2926(4) 0.0916(3) 0.82244(10)
C3_24 C 0.3542(9) 0.1333(11) 0.81219(19)
H1_24 H 0.3503 0.1325 0.7978
H2_24 H 0.3682 0.1710 0.8169
H3_24 H 0.3800 0.1208 0.8158
C4_24 C 0.2667(10) 0.1226(5) 0.81595(19)
H4_24 H 0.2285 0.1044 0.8206
H5_24 H 0.2868 0.1600 0.8214
H6_24 H 0.2674 0.1245 0.8015
C5_24 C 0.2858(11) 0.0410(6) 0.81458(16)
H7_24 H 0.2514 0.0100 0.8195
H8_24 H 0.2846 0.0419 0.8002
H9_24 H 0.3169 0.0366 0.8187
O3_28 O 0.22015(15) 0.06448(16) 0.94015(5)
C6_28 C 0.2145(2) 0.0421(2) 0.95704(9)
C7_28 C 0.1617(3) 0.0285(3) 0.96880(10)
C8_28 C 0.1364(6) 0.0576(8) 0.9616(2)
H10_28 H 0.1285 0.0501 0.9475
H11_28 H 0.1019 0.0460 0.9687
H12_28 H 0.1611 0.0972 0.9636
C10_28 C 0.1769(6) 0.0376(10) 0.99128(17)
H16_28 H 0.1441 0.0294 0.9989
H17_28 H 0.1906 0.0131 0.9954
H18_28 H 0.2055 0.0760 0.9934
O5_28 O 0.21966(15) 0.10066(16) 0.87636(5)
O6_28 O 0.21069(14) 0.04187(15) 0.90085(5)
C11_28 C 0.1926(2) 0.0557(2) 0.88565(9)
C12_28 C 0.1342(3) 0.0121(3) 0.87870(11)
H22_28 H 0.0922 0.0192 0.9036
C15_28 C 0.1097(4) 0.0382(4) 0.8653(2)
H25_28 H 0.1067 0.0668 0.8726
H26_28 H 0.1336 0.0547 0.8538
H27_28 H 0.0730 0.0099 0.8609
O8_28 O 0.26918(14) 0.16077(14) 0.91330(5)
C16_28 C 0.2631(2) 0.1873(2) 0.92779(8)
C17_28 C 0.2227(3) 0.2086(3) 0.92517(9)
C18_28 C 0.1738(3) 0.1688(4) 0.91159(14)
H28_28 H 0.1882 0.1658 0.8988
H29_28 H 0.1538 0.1324 0.9177
H30_22 H 0.1488 0.1834 0.9097
C19_22 C 0.1990(4) 0.2137(5) 0.94521(11)
H31_22 H 0.2293 0.2382 0.9539
H32_22 H 0.1747 0.2290 0.9430
H33_28 H 0.1780 0.1773 0.9512
C20_22 C 0.2555(4) 0.2663(4) 0.91531(16)
H34_22 H 0.2861 0.2910 0.9238
H35_28 H 0.2700 0.2627 0.9026
H36_22 H 0.2311 0.2814 0.9132
N1_24 N 0.29767(19) 0.27953(19) 0.82019(7)
C26_18 C 0.2393(2) 0.2687(3) 0.82214(9)
C27_18 C 0.2048(4) 0.2288(3) 0.80525(11)
H46_18 H 0.2176 0.2476 0.7925
H47_18 H 0.1659 0.2175 0.8070
H48_24 H 0.2092 0.1963 0.8054
C28_18 C 0.2425(3) 0.3252(3) 0.81994(12)
H49_22 H 0.2527 0.3384 0.8063
H50_22 H 0.2702 0.3517 0.8290
H51_18 H 0.2066 0.3213 0.8229
C29_22 C 0.2232(3) 0.2424(3) 0.84394(9)
C30_22 C 0.2121(3) 0.2771(6) 0.85896(11)
H52_22 H 0.2026 0.2583 0.8717
H53_22 H 0.1815 0.2816 0.8542
H54_22 H 0.2452 0.3133 0.8603
C31_22 C 0.1774(5) 0.1821(4) 0.84460(15)
H55_22 H 0.1697 0.1697 0.8583
H56_28 H 0.1891 0.1595 0.8373
H57_22 H 0.1440 0.1785 0.8385
N2_28 N 0.27585(19) 0.24414(19) 0.85021(7)
O13_28 O 0.27999(16) 0.22707(18) 0.86783(6)
C32_28 C 0.3171(2) 0.2665(2) 0.83657(8)
C33_28 C 0.3743(3) 0.2749(3) 0.83844(10)
H58_24 H 0.3951 0.2920 0.8264
H59_28 H 0.3720 0.2392 0.8404
H60_28 H 0.3929 0.2989 0.8497
C9_28 C 0.1227(5) 0.9682(5) 0.9673(3)
H13_28 H 0.1115 0.9583 0.9536
H14_28 H 0.1408 0.9481 0.9720
H15_28 H 0.0902 0.9583 0.9754
C13_28 C 0.1387(7) 0.9677(6) 0.8688(3)
H19_28 H 0.1630 0.9827 0.8573
H20_28 H 0.1538 0.9518 0.8780
H21_28 H 0.1021 0.9391 0.8645
C14_28 C 0.0957(4) 0.9894(7) 0.89759(19)
H23_28 H 0.0592 0.9596 0.8937
H24_28 H 0.1119 0.9753 0.9071
O11_28 O 0.27641(16) 0.97387(15) 0.89343(5)
C21_28 C 0.2594(2) 0.9641(2) 0.91138(8)
C22_28 C 0.2201(2) 0.9038(2) 0.91774(8)
C23_28 C 0.1807(4) 0.9030(3) 0.93404(13)
H37_28 H 0.2025 0.9260 0.9451
H38_28 H 0.1580 0.9175 0.9287
H39_28 H 0.1569 0.8652 0.9386
C24_24 C 0.2559(3) 0.8809(3) 0.92596(14)
H40_24 H 0.2803 0.8812 0.9156
H41_24 H 0.2780 0.9038 0.9369
H42_24 H 0.2321 0.8430 0.9305
C25_28 C 0.1854(3) 0.8666(3) 0.90005(11)
H43_24 H 0.2103 0.8674 0.8897
H44_24 H 0.1622 0.8286 0.9046
H45_28 H 0.1622 0.8804 0.8947
O1_29 O 0.08966(25) 0.36803(18) 0.52076(6)
O2_29 O 0.15691(25) 0.34514(18) 0.51933(6)
C1_29 C 0.1262(4) 0.3612(3) 0.51159(8)
C2_25 C 0.1324(5) 0.3741(4) 0.48911(10)
C3_25 C 0.1125(14) 0.3125(9) 0.47886(19)
H1_25 H 0.1156 0.3164 0.4645
H2_25 H 0.1362 0.2985 0.4836
H3_25 H 0.0742 0.2867 0.4825
C4_25 C 0.1893(11) 0.4000(10) 0.48262(19)
H4_25 H 0.2093 0.4382 0.4873
H5_25 H 0.2066 0.3799 0.4881
H6_25 H 0.1905 0.3993 0.4682
C5_25 C 0.0886(13) 0.3809(11) 0.48125(16)
H7_25 H 0.0920 0.4153 0.4862
H8_25 H 0.0907 0.3821 0.4669
H9_25 H 0.0531 0.3498 0.4854
O3_29 O 0.17767(22) 0.44652(15) 0.60682(5)
C6_29 C 0.1610(3) 0.4522(2) 0.62371(9)
C7_29 C 0.2002(4) 0.5050(3) 0.63547(10)
C8_29 C 0.2546(10) 0.5303(6) 0.6283(2)
H10_29 H 0.2550 0.5382 0.6142
H11_29 H 0.2775 0.5648 0.6354
H12_29 H 0.2695 0.5056 0.6303
C9_29 C 0.1789(7) 0.5440(5) 0.6340(3)
H13_29 H 0.1802 0.5552 0.6203
H14_29 H 0.1407 0.5259 0.6387
H15_29 H 0.2015 0.5765 0.6421
C10_29 C 0.1941(12) 0.4898(6) 0.65795(17)
H16_29 H 0.2187 0.5226 0.6656
H17_29 H 0.1559 0.4761 0.6621
H18_29 H 0.2039 0.4612 0.6601
O5_29 O 0.21434(22) 0.44701(15) 0.54303(5)
O6_29 O 0.16452(21) 0.45598(14) 0.56752(5)
C11_29 C 0.1965(3) 0.4741(2) 0.55232(9)
C12_29 C 0.2113(4) 0.5325(3) 0.54537(11)
C13_29 C 0.1624(9) 0.5280(7) 0.5355(3)
H19_29 H 0.1531 0.5037 0.5240
H20_29 H 0.1314 0.5129 0.5447
H21_29 H 0.1704 0.5646 0.5312
C14_29 C 0.2271(8) 0.5710(4) 0.56426(19)
H22_29 H 0.2604 0.5745 0.5703
H23_29 H 0.2338 0.6075 0.5604
H24_29 H 0.1968 0.5548 0.5738
C15_29 C 0.2619(6) 0.5570(4) 0.5320(2)
H25_29 H 0.2935 0.5600 0.5393
H26_29 H 0.2545 0.5331 0.5205
H27_29 H 0.2703 0.5937 0.5276
O8_29 O 0.22493(20) 0.39749(14) 0.57997(5)
C16_29 C 0.2576(3) 0.4036(2) 0.59446(8)
C17_29 C 0.3193(4) 0.4440(3) 0.59184(9)
C18_29 C 0.3284(5) 0.4929(3) 0.57826(14)
H28_29 H 0.3110 0.4785 0.5655
H29_29 H 0.3120 0.5129 0.5844
H30_23 H 0.3680 0.5179 0.5764
C19_23 C 0.3481(6) 0.4677(4) 0.61188(11)
H31_23 H 0.3423 0.4374 0.6206
H32_23 H 0.3877 0.4920 0.6097
H33_29 H 0.3327 0.4887 0.6179
C20_23 C 0.3442(6) 0.4112(4) 0.58198(16)
H34_23 H 0.3383 0.3806 0.5905
H35_29 H 0.3261 0.3967 0.5693
H36_23 H 0.3837 0.4356 0.5799
O11_29 O 0.03080(22) 0.39026(16) 0.56010(5)
C21_29 C 0.0381(3) 0.4073(2) 0.57805(8)
C22_29 C 0.0171(3) 0.4466(2) 0.58441(8)
C23_29 C 0.0557(5) 0.4860(4) 0.60071(13)
H37_29 H 0.0569 0.4642 0.6118
H38_29 H 0.0929 0.5087 0.5954
H39_29 H 0.0417 0.5098 0.6053
C25_29 C 0.0146(4) 0.4813(3) 0.56672(11)
H45_29 H 0.0516 0.5045 0.5614
N1_25 N 0.31520(27) 0.36900(19) 0.48686(7)
C26_19 C 0.3628(4) 0.4274(2) 0.48881(9)
C27_19 C 0.3574(5) 0.4619(4) 0.47192(11)
H46_19 H 0.3634 0.4491 0.4592
H47_19 H 0.3850 0.5008 0.4737
H48_25 H 0.3205 0.4575 0.4721
C28_19 C 0.4161(4) 0.4242(3) 0.48661(12)
H49_23 H 0.4191 0.4140 0.4730
H50_23 H 0.4149 0.3965 0.4957
H51_19 H 0.4481 0.4601 0.4896
C29_23 C 0.3526(4) 0.4435(3) 0.51061(9)
C30_23 C 0.3984(7) 0.4546(3) 0.52563(11)
H52_23 H 0.3891 0.4641 0.5384
H53_23 H 0.4335 0.4852 0.5209
H54_23 H 0.4015 0.4215 0.5270
C31_23 C 0.3381(6) 0.4893(5) 0.51127(15)
H55_23 H 0.3334 0.4970 0.5250
H56_29 H 0.3038 0.4776 0.5040
H57_23 H 0.3679 0.5227 0.5052
N2_29 N 0.30163(27) 0.39082(19) 0.51688(7)
O13_29 O 0.28042(24) 0.38668(16) 0.53450(6)
C32_29 C 0.2828(3) 0.3496(2) 0.50324(8)
C33_29 C 0.2340(4) 0.2924(3) 0.50511(10)
H58_25 H 0.2303 0.2716 0.4931
H59_29 H 0.2006 0.2947 0.5071
H60_29 H 0.2394 0.2738 0.5164
C24_25 C 0.9584(4) 0.4108(3) 0.59263(14)
H40_25 H 0.9343 0.3864 0.5823
H41_25 H 0.9592 0.3887 0.6036
H42_25 H 0.9443 0.4346 0.5972
H43_25 H 0.9905 0.4564 0.5564
H44_25 H 0.9998 0.5045 0.5713
C24_26 C 0.4524(3) 0.0416(4) 0.59263(14)
H40_26 H 0.4521 0.0657 0.5823
H41_26 H 0.4295 0.0408 0.6036
H42_26 H 0.4903 0.0557 0.5972
H43_26 H 0.4659 0.0095 0.5564
H44_26 H 0.5047 0.0002 0.5713
O1_30 O 0.27837(18) 0.91034(25) 0.52076(6)
O2_30 O 0.18823(18) 0.84309(25) 0.51933(6)
C1_30 C 0.2350(3) 0.8738(4) 0.51159(8)
C2_26 C 0.2417(3) 0.8676(5) 0.48911(10)
C3_26 C 0.2000(11) 0.8875(14) 0.47886(19)
H1_26 H 0.2008 0.8844 0.4645
H2_26 H 0.1623 0.8638 0.4836
H3_26 H 0.2125 0.9258 0.4825
C4_26 C 0.2107(5) 0.8107(11) 0.48262(19)
H4_26 H 0.2289 0.7907 0.4873
H5_26 H 0.1733 0.7934 0.4881
H6_26 H 0.2088 0.8095 0.4682
C5_26 C 0.2923(6) 0.9114(13) 0.48125(16)
H7_26 H 0.3233 0.9080 0.4862
H8_26 H 0.2914 0.9093 0.4669
H9_26 H 0.2967 0.9469 0.4854
O3_30 O 0.26885(16) 0.82233(22) 0.60682(5)
C6_30 C 0.2912(2) 0.8390(3) 0.62371(9)
C7_30 C 0.3048(3) 0.7998(4) 0.63547(10)
C8_30 C 0.2757(8) 0.7454(10) 0.6283(2)
H10_30 H 0.2832 0.7450 0.6142
H11_30 H 0.2873 0.7225 0.6354
H12_30 H 0.2361 0.7305 0.6303
C9_30 C 0.3651(5) 0.8211(7) 0.6340(3)
H13_30 H 0.3750 0.8198 0.6203
H14_30 H 0.3852 0.8593 0.6387
H15_30 H 0.3750 0.7985 0.6421
C10_30 C 0.2957(10) 0.8059(12) 0.65795(17)
H16_30 H 0.3039 0.7813 0.6656
H17_30 H 0.3202 0.8441 0.6621
H18_30 H 0.2573 0.7961 0.6601
O5_30 O 0.23267(16) 0.78566(22) 0.54303(5)
O6_30 O 0.29146(15) 0.83548(21) 0.56752(5)
C11_30 C 0.2776(2) 0.8035(3) 0.55232(9)
C12_30 C 0.3212(3) 0.7887(4) 0.54537(11)
C13_30 C 0.3656(6) 0.8376(9) 0.5355(3)
H19_30 H 0.3506 0.8469 0.5240
H20_30 H 0.3815 0.8686 0.5447
H21_30 H 0.3942 0.8296 0.5312
C14_30 C 0.3439(7) 0.7729(8) 0.56426(19)
H22_30 H 0.3141 0.7396 0.5703
H23_30 H 0.3737 0.7662 0.5604
H24_30 H 0.3580 0.8032 0.5738
C15_30 C 0.2951(4) 0.7381(6) 0.5320(2)
H25_30 H 0.2665 0.7065 0.5393
H26_30 H 0.2786 0.7455 0.5205
H27_30 H 0.3234 0.7297 0.5276
O8_30 O 0.17256(14) 0.77507(20) 0.57997(5)
C16_30 C 0.1460(2) 0.7424(3) 0.59446(8)
C17_30 C 0.1247(3) 0.6807(4) 0.59184(9)
C18_30 C 0.1645(4) 0.6716(5) 0.57826(14)
H28_30 H 0.1675 0.6890 0.5655
H29_30 H 0.2009 0.6880 0.5844
H30_24 H 0.1499 0.6320 0.5764
C19_24 C 0.1196(5) 0.6519(6) 0.61188(11)
H31_24 H 0.0951 0.6577 0.6206
H32_24 H 0.1043 0.6123 0.6097
H33_30 H 0.1560 0.6673 0.6179
C20_24 C 0.0670(4) 0.6558(6) 0.58198(16)
H34_24 H 0.0423 0.6617 0.5905
H35_30 H 0.0706 0.6739 0.5693
H36_24 H 0.0519 0.6163 0.5799
O11_30 O 0.35946(15) 0.96920(22) 0.56010(5)
C21_30 C 0.3692(2) 0.9619(3) 0.57805(8)
C22_30 C 0.4295(2) 0.9829(3) 0.58441(8)
C23_30 C 0.4303(3) 0.9443(5) 0.60071(13)
H37_30 H 0.4073 0.9431 0.6118
H38_30 H 0.4158 0.9071 0.5954
H39_30 H 0.4681 0.9583 0.6053
C25_30 C 0.4667(3) 0.9854(4) 0.56672(11)
H45_30 H 0.4529 0.9484 0.5614
N1_26 N 0.05380(19) 0.68480(27) 0.48686(7)
C26_20 C 0.0646(3) 0.6372(4) 0.48881(9)
C27_20 C 0.1045(3) 0.6426(5) 0.47192(11)
H46_20 H 0.0857 0.6366 0.4592
H47_20 H 0.1158 0.6150 0.4737
H48_26 H 0.1370 0.6795 0.4721
C28_20 C 0.0081(3) 0.5839(4) 0.48661(12)
H51_20 H 0.0120 0.5519 0.4896
C29_24 C 0.0909(3) 0.6474(4) 0.51061(9)
C30_24 C 0.0562(6) 0.6016(7) 0.52563(11)
H52_24 H 0.0750 0.6109 0.5384
H53_24 H 0.0517 0.5665 0.5209
H54_24 H 0.0200 0.5985 0.5270
C31_24 C 0.1512(4) 0.6619(6) 0.51127(15)
H55_24 H 0.1636 0.6666 0.5250
H56_30 H 0.1738 0.6962 0.5040
H57_24 H 0.1548 0.6321 0.5052
N2_30 N 0.08919(19) 0.69837(27) 0.51688(7)
O13_30 O 0.10626(18) 0.71958(24) 0.53450(6)
C32_30 C 0.0668(2) 0.7172(3) 0.50324(8)
C33_30 C 0.0584(3) 0.7660(4) 0.50511(10)
H58_26 H 0.0413 0.7697 0.4931
H59_30 H 0.0941 0.7994 0.5071
H60_30 H 0.0344 0.7606 0.5164
H49_24 H 0.9949 0.5809 0.4730
H50_24 H 0.9816 0.5851 0.4957
O1_31 O 0.03470(18) 0.42299(25) 0.31257(6)
O2_31 O 0.01181(18) 0.49024(25) 0.31400(6)
C1_31 C 0.0279(3) 0.4595(4) 0.32174(8)
C2_27 C 0.0408(4) 0.4657(5) 0.34422(10)
C4_27 C 0.0667(10) 0.5226(11) 0.35071(19)
H4_27 H 0.1049 0.5426 0.3460
H5_27 H 0.0466 0.5399 0.3452
H6_27 H 0.0660 0.5238 0.3651
C5_27 C 0.0476(11) 0.4219(13) 0.35208(16)
H7_27 H 0.0820 0.4253 0.3471
H8_27 H 0.0488 0.4240 0.3664
H9_27 H 0.0165 0.3864 0.3479
O3_31 O 0.11319(15) 0.51100(22) 0.22651(5)
C6_31 C 0.1189(2) 0.4943(3) 0.20962(9)
C7_31 C 0.1717(3) 0.5335(4) 0.19786(10)
C8_31 C 0.1970(6) 0.5879(10) 0.2050(2)
H10_31 H 0.2049 0.5883 0.2191
H11_31 H 0.2315 0.6108 0.1979
H12_31 H 0.1723 0.6028 0.2030
C9_31 C 0.2107(5) 0.5122(7) 0.1993(3)
H13_31 H 0.2219 0.5135 0.2130
H14_31 H 0.1926 0.4740 0.1946
H15_31 H 0.2432 0.5348 0.1912
C10_31 C 0.1565(6) 0.5274(12) 0.17538(17)
H16_31 H 0.1893 0.5520 0.1677
H17_31 H 0.1428 0.4892 0.1712
H18_31 H 0.1279 0.5372 0.1732
O5_31 O 0.11368(15) 0.54767(22) 0.29030(5)
O6_31 O 0.12265(14) 0.49785(21) 0.26581(5)
C11_31 C 0.1408(2) 0.5298(3) 0.28101(9)
C12_31 C 0.1992(3) 0.5446(4) 0.28796(11)
C13_31 C 0.1947(7) 0.4957(9) 0.2978(3)
H19_31 H 0.1704 0.4864 0.3093
H20_31 H 0.1796 0.4647 0.2886
H21_31 H 0.2313 0.5037 0.3021
C14_31 C 0.2377(4) 0.5604(8) 0.26907(19)
H22_31 H 0.2412 0.5937 0.2630
H23_31 H 0.2742 0.5671 0.2729
H24_31 H 0.2215 0.5301 0.2595
C15_31 C 0.2237(4) 0.5952(6) 0.3013(2)
H25_31 H 0.2267 0.6268 0.2940
H26_31 H 0.1998 0.5878 0.3128
H27_31 H 0.2604 0.6036 0.3057
O8_31 O 0.06416(14) 0.55826(20) 0.25336(5)
C16_31 C 0.0703(2) 0.5909(3) 0.23887(8)
C17_31 C 0.1107(3) 0.6526(4) 0.24149(9)
C18_31 C 0.1596(3) 0.6617(5) 0.25507(14)
H28_31 H 0.1452 0.6443 0.2678
H29_31 H 0.1796 0.6453 0.2489
H30_25 H 0.1846 0.7013 0.2569
C19_25 C 0.1344(4) 0.6814(6) 0.22145(11)
H31_25 H 0.1041 0.6756 0.2127
H32_25 H 0.1587 0.7210 0.2236
H33_31 H 0.1554 0.6660 0.2154
C20_25 C 0.0779(4) 0.6775(6) 0.25135(16)
H34_25 H 0.0473 0.6716 0.2428
H35_31 H 0.0634 0.6594 0.2640
H36_25 H 0.1023 0.7170 0.2534
O11_31 O 0.05693(16) 0.36413(22) 0.27323(5)
C21_31 C 0.0740(2) 0.3714(3) 0.25528(8)
C22_31 C 0.1133(2) 0.3504(3) 0.24892(8)
C23_31 C 0.1527(4) 0.3890(5) 0.23262(13)
H37_31 H 0.1309 0.3902 0.2215
H38_31 H 0.1754 0.4262 0.2379
H39_31 H 0.1765 0.3750 0.2280
C24_27 C 0.0775(3) 0.2917(4) 0.24070(14)
H40_27 H 0.0531 0.2676 0.2510
H41_27 H 0.0554 0.2925 0.2297
H42_27 H 0.1013 0.2776 0.2361
C25_31 C 0.1480(3) 0.3479(4) 0.26661(11)
H43_27 H 0.1231 0.3238 0.2769
H44_27 H 0.1712 0.3331 0.2620
H45_31 H 0.1712 0.3849 0.2719
N1_27 N 0.03567(19) 0.64853(27) 0.34647(7)
C26_21 C 0.0941(2) 0.6961(4) 0.34452(9)
C27_21 C 0.1286(4) 0.6907(5) 0.36141(11)
H46_21 H 0.1158 0.6967 0.3741
H47_21 H 0.1675 0.7183 0.3596
H48_27 H 0.1242 0.6538 0.3612
C28_21 C 0.0909(3) 0.7494(4) 0.34672(12)
H49_25 H 0.0807 0.7524 0.3603
H50_25 H 0.0632 0.7482 0.3376
H51_21 H 0.1268 0.7814 0.3437
C29_25 C 0.1102(3) 0.6859(4) 0.32272(9)
C30_25 C 0.1213(3) 0.7317(7) 0.30770(11)
H52_25 H 0.1308 0.7224 0.2949
H53_25 H 0.1519 0.7668 0.3124
H54_25 H 0.0882 0.7348 0.3063
C31_25 C 0.1560(5) 0.6714(6) 0.32206(15)
H55_25 H 0.1637 0.6667 0.3083
H56_31 H 0.1443 0.6371 0.3293
H57_25 H 0.1894 0.7012 0.3281
N2_31 N 0.05749(19) 0.63496(27) 0.31645(7)
O13_31 O 0.05335(16) 0.61375(24) 0.29883(6)
C32_31 C 0.0163(2) 0.6161(3) 0.33009(8)
C3_27 C 0.9792(9) 0.4458(14) 0.35447(19)
H1_27 H 0.9831 0.4489 0.3688
H2_27 H 0.9652 0.4695 0.3497
H3_27 H 0.9534 0.4075 0.3508
C33_31 C 0.9591(3) 0.5673(4) 0.32822(10)
H58_27 H 0.9383 0.5636 0.3402
H59_31 H 0.9614 0.5339 0.3262
H60_31 H 0.9405 0.5727 0.3169
Mn1_18 Mn 0.47313(4) 0.50165(3) 0.285151(11)
Mn2_18 Mn 0.52486(4) 0.58344(3) 0.247979(10)
O1_32 O 0.57701(25) 0.61170(18) 0.31257(6)
O2_32 O 0.50976(25) 0.52156(18) 0.31400(6)
C1_32 C 0.5405(4) 0.5683(3) 0.32174(8)
C2_28 C 0.5343(5) 0.5750(3) 0.34422(10)
C3_28 C 0.5542(14) 0.5333(11) 0.35447(19)
H1_28 H 0.5511 0.5341 0.3688
H2_28 H 0.5305 0.4956 0.3497
H3_28 H 0.5925 0.5458 0.3508
C4_28 C 0.4774(11) 0.5440(5) 0.35071(19)
H4_28 H 0.4574 0.5622 0.3460
H5_28 H 0.4601 0.5066 0.3452
H6_28 H 0.4762 0.5421 0.3651
C5_28 C 0.5781(13) 0.6256(6) 0.35208(16)
H7_28 H 0.5747 0.6566 0.3471
H8_28 H 0.5760 0.6247 0.3664
H9_28 H 0.6136 0.6300 0.3479
O3_32 O 0.48900(22) 0.60218(16) 0.22651(5)
O4_18 O 0.55184(23) 0.63705(16) 0.20190(5)
C6_32 C 0.5057(3) 0.6245(2) 0.20962(9)
C7_32 C 0.4665(4) 0.6381(3) 0.19786(10)
C8_32 C 0.4121(10) 0.6090(8) 0.2050(2)
H10_32 H 0.4117 0.6165 0.2191
H11_32 H 0.3892 0.6206 0.1979
H12_32 H 0.3972 0.5694 0.2030
C9_32 C 0.4878(7) 0.6984(5) 0.1993(3)
H13_32 H 0.4865 0.7083 0.2130
H14_32 H 0.5260 0.7185 0.1946
H15_32 H 0.4652 0.7083 0.1912
C10_32 C 0.4726(12) 0.6290(10) 0.17538(17)
H16_32 H 0.4480 0.6372 0.1677
H17_32 H 0.5108 0.6535 0.1712
H18_32 H 0.4628 0.5906 0.1732
O5_32 O 0.45233(22) 0.56600(16) 0.29030(5)
O6_32 O 0.50215(21) 0.62479(15) 0.26581(5)
O7_18 O 0.55135(18) 0.55668(13) 0.26907(4)
C11_32 C 0.4702(3) 0.6109(2) 0.28101(9)
C12_32 C 0.4554(4) 0.6545(3) 0.28796(11)
C13_32 C 0.5043(9) 0.6989(6) 0.2978(3)
H19_32 H 0.5136 0.6839 0.3093
H20_32 H 0.5353 0.7148 0.2886
H21_32 H 0.4963 0.7275 0.3021
C14_32 C 0.4396(8) 0.6772(7) 0.26907(19)
H22_32 H 0.4063 0.6474 0.2630
H23_32 H 0.4329 0.7070 0.2729
H24_32 H 0.4699 0.6913 0.2595
C15_32 C 0.4048(6) 0.6284(4) 0.3013(2)
H25_32 H 0.3732 0.5998 0.2940
H26_32 H 0.4122 0.6119 0.3128
H27_32 H 0.3964 0.6567 0.3057
O8_32 O 0.44174(20) 0.50589(14) 0.25336(5)
O9_18 O 0.42519(22) 0.46939(16) 0.22258(6)
C16_32 C 0.4091(3) 0.4793(2) 0.23887(8)
C17_32 C 0.3474(4) 0.4580(3) 0.24149(9)
C18_32 C 0.3383(5) 0.4978(4) 0.25507(14)
H28_32 H 0.3557 0.5008 0.2678
H29_32 H 0.3547 0.5342 0.2489
H30_26 H 0.2987 0.4832 0.2569
C19_26 C 0.3186(6) 0.4529(5) 0.22145(11)
H31_26 H 0.3244 0.4284 0.2127
H32_26 H 0.2790 0.4376 0.2236
H33_32 H 0.3340 0.4893 0.2154
C20_26 C 0.3225(6) 0.4003(4) 0.25135(16)
H34_26 H 0.3284 0.3756 0.2428
H35_32 H 0.3406 0.4039 0.2640
H36_26 H 0.2830 0.3852 0.2534
O10_18 O 0.60482(20) 0.66426(14) 0.24215(5)
O11_32 O 0.63587(22) 0.69279(15) 0.27323(5)
C21_32 C 0.6286(3) 0.7025(2) 0.25528(8)
C22_32 C 0.6496(3) 0.7628(2) 0.24892(8)
C23_32 C 0.6110(5) 0.7636(3) 0.23262(13)
H37_32 H 0.6098 0.7406 0.2215
H38_32 H 0.5738 0.7491 0.2379
H39_32 H 0.6250 0.8014 0.2280
C24_28 C 0.7083(4) 0.7857(3) 0.24070(14)
H40_28 H 0.7324 0.7854 0.2510
H41_28 H 0.7075 0.7628 0.2297
H42_28 H 0.7224 0.8236 0.2361
C25_32 C 0.6521(4) 0.8000(3) 0.26661(11)
H43_28 H 0.6762 0.7992 0.2769
H44_28 H 0.6669 0.8380 0.2620
H45_32 H 0.6151 0.7862 0.2719
N1_28 N 0.35147(27) 0.38713(19) 0.34647(7)
C26_22 C 0.3039(4) 0.3979(3) 0.34452(9)
C27_22 C 0.3093(5) 0.4378(3) 0.36141(11)
H46_22 H 0.3033 0.4190 0.3741
H47_22 H 0.2817 0.4491 0.3596
H48_28 H 0.3462 0.4703 0.3612
C28_22 C 0.2506(4) 0.3414(3) 0.34672(12)
H49_26 H 0.2476 0.3282 0.3603
H50_26 H 0.2518 0.3149 0.3376
H51_22 H 0.2186 0.3453 0.3437
C29_26 C 0.3141(4) 0.4242(3) 0.32272(9)
C30_26 C 0.2683(7) 0.3895(6) 0.30770(11)
H52_26 H 0.2776 0.4083 0.2949
H53_26 H 0.2332 0.3850 0.3124
H54_26 H 0.2652 0.3533 0.3063
C31_26 C 0.3286(6) 0.4845(4) 0.32206(15)
H55_26 H 0.3333 0.4969 0.3083
H56_32 H 0.3629 0.5071 0.3293
H57_26 H 0.2988 0.4881 0.3281
N2_32 N 0.36504(27) 0.42252(19) 0.31645(7)
O13_32 O 0.38625(24) 0.43959(18) 0.29883(6)
C32_32 C 0.3839(3) 0.4001(2) 0.33009(8)
C33_32 C 0.4327(4) 0.3917(3) 0.32822(10)
H58_28 H 0.4364 0.3746 0.3402
H59_32 H 0.4661 0.4274 0.3262
H60_32 H 0.4273 0.3677 0.3169
O14_18 O 0.46939(27) 0.42519(22) 0.27742(6)
Mn4_18 Mn 0.58344(5) 0.52486(4) 0.252021(10)
O15_18 O 0.55668(22) 0.55135(18) 0.23093(4)
O16_18 O 0.63705(28) 0.55184(23) 0.29810(5)
O17_18 O 0.66426(24) 0.60482(20) 0.25785(5)
Mn6_18 Mn 0.50165(5) 0.47313(4) 0.214849(11)
O1_33 O 0.75633(25) 0.70136(18) 0.85409(6)
O2_33 O 0.82358(25) 0.67847(18) 0.85266(6)
C1_33 C 0.7929(4) 0.6945(3) 0.84492(8)
C2_29 C 0.7991(5) 0.7074(4) 0.82244(10)
C3_29 C 0.7792(14) 0.6458(9) 0.81219(19)
H1_29 H 0.7823 0.6497 0.7978
H2_29 H 0.8029 0.6318 0.8169
H3_29 H 0.7409 0.6200 0.8158
C4_29 C 0.8560(11) 0.7333(10) 0.81595(19)
H4_29 H 0.8760 0.7715 0.8206
H5_29 H 0.8733 0.7132 0.8214
H6_29 H 0.8572 0.7326 0.8015
C5_29 C 0.7553(13) 0.7142(11) 0.81458(16)
H7_29 H 0.7587 0.7486 0.8195
H8_29 H 0.7574 0.7154 0.8002
H9_29 H 0.7198 0.6831 0.8187
O3_33 O 0.84434(22) 0.77985(15) 0.94015(5)
C6_33 C 0.8277(3) 0.7855(2) 0.95704(9)
C7_33 C 0.8669(4) 0.8383(3) 0.96880(10)
C8_33 C 0.9213(10) 0.8636(6) 0.9616(2)
H10_33 H 0.9217 0.8715 0.9475
H11_33 H 0.9442 0.8981 0.9687
H12_33 H 0.9362 0.8389 0.9636
C9_33 C 0.8456(7) 0.8773(5) 0.9673(3)
H13_33 H 0.8469 0.8885 0.9536
H14_33 H 0.8074 0.8592 0.9720
H15_33 H 0.8682 0.9098 0.9754
C10_33 C 0.8608(12) 0.8231(6) 0.99128(17)
H16_33 H 0.8854 0.8559 0.9989
H17_33 H 0.8226 0.8094 0.9954
H18_33 H 0.8706 0.7945 0.9934
O5_33 O 0.88101(22) 0.78034(15) 0.87636(5)
O6_33 O 0.83119(21) 0.78931(14) 0.90085(5)
C11_33 C 0.8632(3) 0.8074(2) 0.88565(9)
C12_33 C 0.8780(4) 0.8658(3) 0.87870(11)
C13_33 C 0.8291(9) 0.8613(7) 0.8688(3)
H19_33 H 0.8198 0.8370 0.8573
H20_33 H 0.7981 0.8462 0.8780
H21_33 H 0.8371 0.8979 0.8645
C14_33 C 0.8938(8) 0.9043(4) 0.89759(19)
H22_33 H 0.9271 0.9078 0.9036
H23_33 H 0.9005 0.9408 0.8937
H24_33 H 0.8635 0.8881 0.9071
C15_33 C 0.9286(6) 0.8903(4) 0.8653(2)
H25_33 H 0.9602 0.8933 0.8726
H26_33 H 0.9212 0.8664 0.8538
H27_33 H 0.9370 0.9270 0.8609
O8_33 O 0.89160(20) 0.73082(14) 0.91330(5)
C16_33 C 0.9243(3) 0.7369(2) 0.92779(8)
C17_33 C 0.9860(4) 0.7773(3) 0.92517(9)
C18_33 C 0.9951(5) 0.8262(3) 0.91159(14)
H28_33 H 0.9777 0.8118 0.8988
H29_33 H 0.9787 0.8462 0.9177
H33_33 H 0.9994 0.8220 0.9512
H35_33 H 0.9928 0.7300 0.9026
O11_33 O 0.69747(22) 0.72359(16) 0.89343(5)
C21_33 C 0.7048(3) 0.7406(2) 0.91138(8)
C22_33 C 0.6838(3) 0.7799(2) 0.91774(8)
C23_33 C 0.7224(5) 0.8193(4) 0.93404(13)
H37_33 H 0.7236 0.7975 0.9451
H38_33 H 0.7596 0.8420 0.9287
H39_33 H 0.7084 0.8431 0.9386
C24_29 C 0.6251(4) 0.7441(3) 0.92596(14)
H40_29 H 0.6010 0.7197 0.9156
H41_29 H 0.6259 0.7220 0.9369
H42_29 H 0.6110 0.7679 0.9305
C25_33 C 0.6813(4) 0.8146(3) 0.90005(11)
H43_29 H 0.6572 0.7897 0.8897
H44_29 H 0.6665 0.8378 0.9046
H45_33 H 0.7183 0.8378 0.8947
N1_29 N 0.98187(27) 0.70233(19) 0.82019(7)
H48_29 H 0.9872 0.7908 0.8054
H56_33 H 0.9705 0.8109 0.8373
N2_33 N 0.96830(27) 0.72415(19) 0.85021(7)
O13_33 O 0.94709(24) 0.72001(16) 0.86783(6)
C32_33 C 0.9495(3) 0.6829(2) 0.83657(8)
C33_33 C 0.9007(4) 0.6257(3) 0.83844(10)
H58_29 H 0.8970 0.6049 0.8264
H59_33 H 0.8673 0.6280 0.8404
H60_33 H 0.9061 0.6071 0.8497
C9_34 C 0.0318(5) 0.1544(7) 0.9673(3)
H13_34 H 0.0417 0.1531 0.9536
H14_34 H 0.0519 0.1926 0.9720
H15_34 H 0.0417 0.1318 0.9754
C13_34 C 0.0323(6) 0.1709(9) 0.8688(3)
H19_34 H 0.0173 0.1802 0.8573
H20_34 H 0.0482 0.2019 0.8780
H21_34 H 0.0609 0.1629 0.8645
C14_34 C 0.0106(7) 0.1062(8) 0.89759(19)
H23_34 H 0.0404 0.0995 0.8937
H24_34 H 0.0247 0.1365 0.9071
O11_34 O 0.02613(15) 0.30253(22) 0.89343(5)
C21_34 C 0.0359(2) 0.2952(3) 0.91138(8)
C22_34 C 0.0962(2) 0.3162(3) 0.91774(8)
C23_34 C 0.0970(3) 0.2776(5) 0.93404(13)
H37_34 H 0.0740 0.2764 0.9451
H38_34 H 0.0825 0.2404 0.9287
H39_34 H 0.1348 0.2916 0.9386
C24_30 C 0.1191(3) 0.3749(4) 0.92596(14)
H40_30 H 0.1188 0.3990 0.9156
H41_30 H 0.0962 0.3741 0.9369
H42_30 H 0.1570 0.3890 0.9305
C25_34 C 0.1334(3) 0.3187(4) 0.90005(11)
H43_30 H 0.1326 0.3428 0.8897
H44_30 H 0.1714 0.3335 0.9046
H45_34 H 0.1196 0.2817 0.8947
O1_34 O 0.94504(18) 0.24367(25) 0.85409(6)
O2_34 O 0.85490(18) 0.17642(25) 0.85266(6)
C1_34 C 0.9017(3) 0.2071(4) 0.84492(8)
C2_30 C 0.9084(3) 0.2009(5) 0.82244(10)
C3_30 C 0.8667(11) 0.2208(14) 0.81219(19)
H1_30 H 0.8675 0.2177 0.7978
H2_30 H 0.8290 0.1971 0.8169
H3_30 H 0.8792 0.2591 0.8158
C4_30 C 0.8774(5) 0.1440(11) 0.81595(19)
H4_30 H 0.8956 0.1240 0.8206
H5_30 H 0.8400 0.1267 0.8214
H6_30 H 0.8755 0.1428 0.8015
C5_30 C 0.9590(6) 0.2447(13) 0.81458(16)
H7_30 H 0.9900 0.2413 0.8195
H8_30 H 0.9581 0.2426 0.8002
H9_30 H 0.9634 0.2802 0.8187
O3_34 O 0.93552(16) 0.15566(22) 0.94015(5)
C6_34 C 0.9579(2) 0.1723(3) 0.95704(9)
C7_34 C 0.9715(3) 0.1331(4) 0.96880(10)
C8_34 C 0.9424(8) 0.0787(10) 0.9616(2)
H10_34 H 0.9499 0.0783 0.9475
H11_34 H 0.9540 0.0558 0.9687
H12_34 H 0.9028 0.0638 0.9636
C10_34 C 0.9624(10) 0.1392(12) 0.99128(17)
H16_34 H 0.9706 0.1146 0.9989
H17_34 H 0.9869 0.1774 0.9954
H18_34 H 0.9240 0.1294 0.9934
O5_34 O 0.89934(16) 0.11899(22) 0.87636(5)
O6_34 O 0.95813(15) 0.16881(21) 0.90085(5)
C11_34 C 0.9443(2) 0.1368(3) 0.88565(9)
C12_34 C 0.9879(3) 0.1220(4) 0.87870(11)
H22_34 H 0.9808 0.0729 0.9036
C15_34 C 0.9618(4) 0.0714(6) 0.8653(2)
H25_34 H 0.9332 0.0398 0.8726
H26_34 H 0.9453 0.0788 0.8538
H27_34 H 0.9901 0.0630 0.8609
O8_34 O 0.83923(14) 0.10840(20) 0.91330(5)
C16_34 C 0.8127(2) 0.0757(3) 0.92779(8)
C17_34 C 0.7914(3) 0.0140(4) 0.92517(9)
C18_34 C 0.8312(4) 0.0049(5) 0.91159(14)
H28_34 H 0.8342 0.0223 0.8988
H29_34 H 0.8676 0.0213 0.9177
H33_34 H 0.8227 0.0006 0.9512
H35_34 H 0.7373 0.0072 0.9026
N1_30 N 0.72047(19) 0.01813(27) 0.82019(7)
H48_30 H 0.8037 0.0128 0.8054
H56_34 H 0.8405 0.0295 0.8373
N2_34 N 0.75586(19) 0.03170(27) 0.85021(7)
O13_34 O 0.77293(18) 0.05291(24) 0.86783(6)
C32_34 C 0.7335(2) 0.0505(3) 0.83657(8)
C33_34 C 0.7251(3) 0.0993(4) 0.83844(10)
H58_30 H 0.7080 0.1030 0.8264
H59_34 H 0.7608 0.1327 0.8404
H60_34 H 0.7011 0.0939 0.8497
O1_35 O 0.42299(25) 0.03470(18) 0.18743(6)
O2_35 O 0.49024(25) 0.01181(18) 0.18600(6)
C1_35 C 0.4595(4) 0.0279(3) 0.17826(8)
C2_31 C 0.4657(5) 0.0408(4) 0.15578(10)
C4_31 C 0.5226(11) 0.0667(10) 0.14929(19)
H4_31 H 0.5426 0.1049 0.1540
H5_31 H 0.5399 0.0466 0.1548
H6_31 H 0.5238 0.0660 0.1349
C5_31 C 0.4219(13) 0.0476(11) 0.14792(16)
H7_31 H 0.4253 0.0820 0.1529
H8_31 H 0.4240 0.0488 0.1336
H9_31 H 0.3864 0.0165 0.1521
O3_35 O 0.51100(22) 0.11319(15) 0.27349(5)
C6_35 C 0.4943(3) 0.1189(2) 0.29038(9)
C7_35 C 0.5335(4) 0.1717(3) 0.30214(10)
C8_35 C 0.5879(10) 0.1970(6) 0.2950(2)
H10_35 H 0.5883 0.2049 0.2809
H11_35 H 0.6108 0.2315 0.3021
H12_35 H 0.6028 0.1723 0.2970
C9_35 C 0.5122(7) 0.2107(5) 0.3007(3)
H13_35 H 0.5135 0.2219 0.2870
H14_35 H 0.4740 0.1926 0.3054
H15_35 H 0.5348 0.2432 0.3088
C10_35 C 0.5274(12) 0.1565(6) 0.32462(17)
H16_35 H 0.5520 0.1893 0.3323
H17_35 H 0.4892 0.1428 0.3288
H18_35 H 0.5372 0.1279 0.3268
O5_35 O 0.54767(22) 0.11368(15) 0.20970(5)
O6_35 O 0.49785(21) 0.12265(14) 0.23419(5)
C11_35 C 0.5298(3) 0.1408(2) 0.21899(9)
C12_35 C 0.5446(4) 0.1992(3) 0.21204(11)
C13_35 C 0.4957(9) 0.1947(7) 0.2022(3)
H19_35 H 0.4864 0.1704 0.1907
H20_35 H 0.4647 0.1796 0.2114
H21_35 H 0.5037 0.2313 0.1979
C14_35 C 0.5604(8) 0.2377(4) 0.23093(19)
H22_35 H 0.5937 0.2412 0.2370
H23_35 H 0.5671 0.2742 0.2271
H24_35 H 0.5301 0.2215 0.2405
C15_35 C 0.5952(6) 0.2237(4) 0.1987(2)
H25_35 H 0.6268 0.2267 0.2060
H26_35 H 0.5878 0.1998 0.1872
H27_35 H 0.6036 0.2604 0.1943
O8_35 O 0.55826(20) 0.06416(14) 0.24664(5)
C16_35 C 0.5909(3) 0.0703(2) 0.26113(8)
C17_35 C 0.6526(4) 0.1107(3) 0.25851(9)
C18_35 C 0.6617(5) 0.1596(3) 0.24493(14)
H28_35 H 0.6443 0.1452 0.2322
H29_35 H 0.6453 0.1796 0.2511
H30_27 H 0.7013 0.1846 0.2431
C19_27 C 0.6814(6) 0.1344(4) 0.27855(11)
H31_27 H 0.6756 0.1041 0.2873
H32_27 H 0.7210 0.1587 0.2764
H33_35 H 0.6660 0.1554 0.2846
C20_27 C 0.6775(6) 0.0779(4) 0.24865(16)
H34_27 H 0.6716 0.0473 0.2572
H35_35 H 0.6594 0.0634 0.2360
H36_27 H 0.7170 0.1023 0.2466
O11_35 O 0.36413(22) 0.05693(16) 0.22677(5)
C21_35 C 0.3714(3) 0.0740(2) 0.24472(8)
C22_35 C 0.3504(3) 0.1133(2) 0.25108(8)
C23_35 C 0.3890(5) 0.1527(4) 0.26738(13)
H37_35 H 0.3902 0.1309 0.2785
H38_35 H 0.4262 0.1754 0.2621
H39_35 H 0.3750 0.1765 0.2720
C24_31 C 0.2917(4) 0.0775(3) 0.25930(14)
H40_31 H 0.2676 0.0531 0.2490
H41_31 H 0.2925 0.0554 0.2703
H42_31 H 0.2776 0.1013 0.2639
C25_35 C 0.3479(4) 0.1480(3) 0.23339(11)
H43_31 H 0.3238 0.1231 0.2231
H44_31 H 0.3331 0.1712 0.2380
H45_35 H 0.3849 0.1712 0.2281
N1_31 N 0.64853(27) 0.03567(19) 0.15353(7)
C26_23 C 0.6961(4) 0.0941(2) 0.15548(9)
C27_23 C 0.6907(5) 0.1286(4) 0.13859(11)
H46_23 H 0.6967 0.1158 0.1259
H47_23 H 0.7183 0.1675 0.1404
H48_31 H 0.6538 0.1242 0.1388
C28_23 C 0.7494(4) 0.0909(3) 0.15328(12)
H49_27 H 0.7524 0.0807 0.1397
H50_27 H 0.7482 0.0632 0.1624
H51_23 H 0.7814 0.1268 0.1563
C29_27 C 0.6859(4) 0.1102(3) 0.17728(9)
C30_27 C 0.7317(7) 0.1213(3) 0.19230(11)
H52_27 H 0.7224 0.1308 0.2051
H53_27 H 0.7668 0.1519 0.1876
H54_27 H 0.7348 0.0882 0.1937
C31_27 C 0.6714(6) 0.1560(5) 0.17794(15)
H55_27 H 0.6667 0.1637 0.1917
H56_35 H 0.6371 0.1443 0.1707
H57_27 H 0.7012 0.1894 0.1719
N2_35 N 0.63496(27) 0.05749(19) 0.18355(7)
O13_35 O 0.61375(24) 0.05335(16) 0.20117(6)
C32_35 C 0.6161(3) 0.0163(2) 0.16991(8)
C3_31 C 0.4458(14) 0.9792(9) 0.14553(19)
H1_31 H 0.4489 0.9831 0.1312
H2_31 H 0.4695 0.9652 0.1503
H3_31 H 0.4075 0.9534 0.1492
C33_35 C 0.5673(4) 0.9591(3) 0.17178(10)
H58_31 H 0.5636 0.9383 0.1598
H59_35 H 0.5339 0.9614 0.1738
H60_35 H 0.5727 0.9405 0.1831
O1_36 O 0.61170(18) 0.57701(25) 0.18743(6)
O2_36 O 0.52156(18) 0.50976(25) 0.18600(6)
C1_36 C 0.5683(3) 0.5405(4) 0.17826(8)
C2_32 C 0.5750(3) 0.5343(5) 0.15578(10)
C3_32 C 0.5333(11) 0.5542(14) 0.14553(19)
H1_32 H 0.5341 0.5511 0.1312
H2_32 H 0.4956 0.5305 0.1503
H3_32 H 0.5458 0.5925 0.1492
C4_32 C 0.5440(5) 0.4774(11) 0.14929(19)
H4_32 H 0.5622 0.4574 0.1540
H5_32 H 0.5066 0.4601 0.1548
H6_32 H 0.5421 0.4762 0.1349
C5_32 C 0.6256(6) 0.5781(13) 0.14792(16)
H7_32 H 0.6566 0.5747 0.1529
H8_32 H 0.6247 0.5760 0.1336
H9_32 H 0.6300 0.6136 0.1521
O3_36 O 0.60218(16) 0.48900(22) 0.27349(5)
C6_36 C 0.6245(2) 0.5057(3) 0.29038(9)
C7_36 C 0.6381(3) 0.4665(4) 0.30214(10)
C8_36 C 0.6090(8) 0.4121(10) 0.2950(2)
H10_36 H 0.6165 0.4117 0.2809
H11_36 H 0.6206 0.3892 0.3021
H12_36 H 0.5694 0.3972 0.2970
C9_36 C 0.6984(5) 0.4878(7) 0.3007(3)
H13_36 H 0.7083 0.4865 0.2870
H14_36 H 0.7185 0.5260 0.3054
H15_36 H 0.7083 0.4652 0.3088
C10_36 C 0.6290(10) 0.4726(12) 0.32462(17)
H16_36 H 0.6372 0.4480 0.3323
H17_36 H 0.6535 0.5108 0.3288
H18_36 H 0.5906 0.4628 0.3268
O5_36 O 0.56600(16) 0.45233(22) 0.20970(5)
O6_36 O 0.62479(15) 0.50215(21) 0.23419(5)
C11_36 C 0.6109(2) 0.4702(3) 0.21899(9)
C12_36 C 0.6545(3) 0.4554(4) 0.21204(11)
C13_36 C 0.6989(6) 0.5043(9) 0.2022(3)
H19_36 H 0.6839 0.5136 0.1907
H20_36 H 0.7148 0.5353 0.2114
H21_36 H 0.7275 0.4963 0.1979
C14_36 C 0.6772(7) 0.4396(8) 0.23093(19)
H22_36 H 0.6474 0.4063 0.2370
H23_36 H 0.7070 0.4329 0.2271
H24_36 H 0.6913 0.4699 0.2405
C15_36 C 0.6284(4) 0.4048(6) 0.1987(2)
H25_36 H 0.5998 0.3732 0.2060
H26_36 H 0.6119 0.4122 0.1872
H27_36 H 0.6567 0.3964 0.1943
O8_36 O 0.50589(14) 0.44174(20) 0.24664(5)
C16_36 C 0.4793(2) 0.4091(3) 0.26113(8)
C17_36 C 0.4580(3) 0.3474(4) 0.25851(9)
C18_36 C 0.4978(4) 0.3383(5) 0.24493(14)
H28_36 H 0.5008 0.3557 0.2322
H29_36 H 0.5342 0.3547 0.2511
H30_28 H 0.4832 0.2987 0.2431
C19_28 C 0.4529(5) 0.3186(6) 0.27855(11)
H31_28 H 0.4284 0.3244 0.2873
H32_28 H 0.4376 0.2790 0.2764
H33_36 H 0.4893 0.3340 0.2846
C20_28 C 0.4003(4) 0.3225(6) 0.24865(16)
H34_28 H 0.3756 0.3284 0.2572
H35_36 H 0.4039 0.3406 0.2360
H36_28 H 0.3852 0.2830 0.2466
O11_36 O 0.69279(15) 0.63587(22) 0.22677(5)
C21_36 C 0.7025(2) 0.6286(3) 0.24472(8)
C22_36 C 0.7628(2) 0.6496(3) 0.25108(8)
C23_36 C 0.7636(3) 0.6110(5) 0.26738(13)
H37_36 H 0.7406 0.6098 0.2785
H38_36 H 0.7491 0.5738 0.2621
H39_36 H 0.8014 0.6250 0.2720
C24_32 C 0.7857(3) 0.7083(4) 0.25930(14)
H40_32 H 0.7854 0.7324 0.2490
H41_32 H 0.7628 0.7075 0.2703
H42_32 H 0.8236 0.7224 0.2639
C25_36 C 0.8000(3) 0.6521(4) 0.23339(11)
H43_32 H 0.7992 0.6762 0.2231
H44_32 H 0.8380 0.6669 0.2380
H45_36 H 0.7862 0.6151 0.2281
N1_32 N 0.38713(19) 0.35147(27) 0.15353(7)
C26_24 C 0.3979(3) 0.3039(4) 0.15548(9)
C27_24 C 0.4378(3) 0.3093(5) 0.13859(11)
H46_24 H 0.4190 0.3033 0.1259
H47_24 H 0.4491 0.2817 0.1404
H48_32 H 0.4703 0.3462 0.1388
C28_24 C 0.3414(3) 0.2506(4) 0.15328(12)
H49_28 H 0.3282 0.2476 0.1397
H50_28 H 0.3149 0.2518 0.1624
H51_24 H 0.3453 0.2186 0.1563
C29_28 C 0.4242(3) 0.3141(4) 0.17728(9)
C30_28 C 0.3895(6) 0.2683(7) 0.19230(11)
H52_28 H 0.4083 0.2776 0.2051
H53_28 H 0.3850 0.2332 0.1876
H54_28 H 0.3533 0.2652 0.1937
C31_28 C 0.4845(4) 0.3286(6) 0.17794(15)
H55_28 H 0.4969 0.3333 0.1917
H56_36 H 0.5071 0.3629 0.1707
H57_28 H 0.4881 0.2988 0.1719
N2_36 N 0.42252(19) 0.36504(27) 0.18355(7)
O13_36 O 0.43959(18) 0.38625(24) 0.20117(6)
C32_36 C 0.4001(2) 0.3839(3) 0.16991(8)
C33_36 C 0.3917(3) 0.4327(4) 0.17178(10)
H58_32 H 0.3746 0.4364 0.1598
H59_36 H 0.4274 0.4661 0.1738
H60_36 H 0.3677 0.4273 0.1831
C2_33 C 0.2417(3) 0.3741(4) 0.98911(10)
C3_33 C 0.2000(11) 0.3125(9) 0.97886(19)
H1_33 H 0.2008 0.3164 0.9645
H2_33 H 0.1623 0.2985 0.9836
H3_33 H 0.2125 0.2867 0.9825
C4_33 C 0.2107(5) 0.4000(10) 0.98262(19)
H4_33 H 0.2289 0.4382 0.9873
H5_33 H 0.1733 0.3799 0.9881
H6_33 H 0.2088 0.3993 0.9682
C5_33 C 0.2923(6) 0.3809(11) 0.98125(16)
H7_33 H 0.3233 0.4153 0.9862
H8_33 H 0.2914 0.3821 0.9669
H9_33 H 0.2967 0.3498 0.9854
O12_17 O 0.03689(17) 0.34186(18) 0.97010(6)
N1_33 N 0.05380(19) 0.36900(19) 0.98686(7)
C26_25 C 0.0646(3) 0.4274(2) 0.98881(9)
C27_25 C 0.1045(3) 0.4619(4) 0.97192(11)
H46_25 H 0.0857 0.4491 0.9592
H47_25 H 0.1158 0.5008 0.9737
H48_33 H 0.1370 0.4575 0.9721
C28_25 C 0.0081(3) 0.4242(3) 0.98661(12)
H51_25 H 0.0120 0.4601 0.9896
H58_33 H 0.0413 0.2716 0.9931
C24_33 C 0.0416(4) 0.4524(3) 0.90737(14)
H40_33 H 0.0657 0.4521 0.9177
H41_33 H 0.0408 0.4295 0.8964
H42_33 H 0.0557 0.4903 0.9028
H43_33 H 0.0095 0.4659 0.9436
H44_33 H 0.0002 0.5047 0.9287
C24_34 C 0.5892(3) 0.0416(4) 0.09263(14)
H40_34 H 0.6136 0.0657 0.0823
H41_34 H 0.6113 0.0408 0.1036
H42_34 H 0.5654 0.0557 0.0972
H43_34 H 0.5436 0.0095 0.0564
H44_34 H 0.4955 0.0002 0.0713
O18_17 O 0.69503(25) 0.03689(31) 0.02990(6)
C2_34 C 0.8676(5) 0.2417(3) 0.01089(10)
C3_34 C 0.8875(14) 0.2000(11) 0.02114(19)
H1_34 H 0.8844 0.2008 0.0355
H2_34 H 0.8638 0.1623 0.0164
H3_34 H 0.9258 0.2125 0.0175
C4_34 C 0.8107(11) 0.2107(5) 0.01738(19)
H4_34 H 0.7907 0.2289 0.0127
H5_34 H 0.7934 0.1733 0.0119
H6_34 H 0.8095 0.2088 0.0318
C5_34 C 0.9114(13) 0.2923(6) 0.01875(16)
H7_34 H 0.9080 0.3233 0.0138
H8_34 H 0.9093 0.2914 0.0331
H9_34 H 0.9469 0.2967 0.0146
N1_34 N 0.68480(27) 0.05380(19) 0.01314(7)
C26_26 C 0.6372(4) 0.0646(3) 0.01119(9)
C27_26 C 0.6426(5) 0.1045(3) 0.02808(11)
H46_26 H 0.6366 0.0857 0.0408
H47_26 H 0.6150 0.1158 0.0263
H48_34 H 0.6795 0.1370 0.0279
C28_26 C 0.5839(4) 0.0081(3) 0.01339(12)
H51_26 H 0.5519 0.0120 0.0104
H58_34 H 0.7697 0.0413 0.0069
C2_35 C 0.1324(5) 0.7583(3) 0.98911(10)
C3_35 C 0.1125(14) 0.8000(11) 0.97886(19)
H1_35 H 0.1156 0.7992 0.9645
H2_35 H 0.1362 0.8377 0.9836
H3_35 H 0.0742 0.7875 0.9825
C4_35 C 0.1893(11) 0.7893(5) 0.98262(19)
H4_35 H 0.2093 0.7711 0.9873
H5_35 H 0.2066 0.8267 0.9881
H6_35 H 0.1905 0.7912 0.9682
C5_35 C 0.0886(13) 0.7077(6) 0.98125(16)
H7_35 H 0.0920 0.6767 0.9862
H8_35 H 0.0907 0.7086 0.9669
H9_35 H 0.0531 0.7033 0.9854
O12_18 O 0.30497(25) 0.96311(17) 0.97010(6)
N1_35 N 0.31520(27) 0.94620(19) 0.98686(7)
C26_27 C 0.3628(4) 0.9354(3) 0.98881(9)
C27_27 C 0.3574(5) 0.8955(3) 0.97192(11)
H46_27 H 0.3634 0.9143 0.9592
H47_27 H 0.3850 0.8842 0.9737
H48_35 H 0.3205 0.8630 0.9721
C28_27 C 0.4161(4) 0.9919(3) 0.98661(12)
H51_27 H 0.4481 0.9880 0.9896
H58_35 H 0.2303 0.9587 0.9931
C24_35 C 0.4108(3) 0.9584(4) 0.90737(14)
H40_35 H 0.3864 0.9343 0.9177
H41_35 H 0.3887 0.9592 0.8964
H42_35 H 0.4346 0.9443 0.9028
H43_35 H 0.4564 0.9905 0.9436
H44_35 H 0.5045 0.9998 0.9287
C24_36 C 0.9584(4) 0.5476(3) 0.09263(14)
H40_36 H 0.9343 0.5479 0.0823
H41_36 H 0.9592 0.5705 0.1036
H42_36 H 0.9443 0.5097 0.0972
H43_36 H 0.9905 0.5341 0.0564
H44_36 H 0.9998 0.4953 0.0713
O18_18 O 0.96311(31) 0.65814(18) 0.02990(6)
C2_36 C 0.7583(3) 0.6259(4) 0.01089(10)
C3_36 C 0.8000(11) 0.6875(9) 0.02114(19)
H1_36 H 0.7992 0.6836 0.0355
H2_36 H 0.8377 0.7015 0.0164
H3_36 H 0.7875 0.7133 0.0175
C4_36 C 0.7893(5) 0.6000(10) 0.01738(19)
H4_36 H 0.7711 0.5618 0.0127
H5_36 H 0.8267 0.6201 0.0119
H6_36 H 0.7912 0.6007 0.0318
C5_36 C 0.7077(6) 0.6191(11) 0.01875(16)
H7_36 H 0.6767 0.5847 0.0138
H8_36 H 0.7086 0.6179 0.0331
H9_36 H 0.7033 0.6502 0.0146
N1_36 N 0.94620(19) 0.63100(19) 0.01314(7)
C26_28 C 0.9354(3) 0.5726(2) 0.01119(9)
C27_28 C 0.8955(3) 0.5381(4) 0.02808(11)
H46_28 H 0.9143 0.5509 0.0408
H47_28 H 0.8842 0.4992 0.0263
H48_36 H 0.8630 0.5425 0.0279
C28_28 C 0.9919(3) 0.5758(3) 0.01339(12)
H51_28 H 0.9880 0.5399 0.0104
H58_36 H 0.9587 0.7284 0.0069
H30_29 H 0.1488 0.9653 0.4097
C19_29 C 0.1990(4) 0.9852(6) 0.44521(11)
H31_29 H 0.2293 0.9910 0.4539
H32_29 H 0.1747 0.9456 0.4430
C20_29 C 0.2555(4) 0.9891(6) 0.41531(16)
H34_29 H 0.2861 0.9950 0.4238
H36_29 H 0.2311 0.9496 0.4132
C26_29 C 0.2393(2) 0.9705(4) 0.32214(9)
C27_29 C 0.2048(4) 0.9759(5) 0.30525(11)
H46_29 H 0.2176 0.9699 0.2925
H47_29 H 0.1659 0.9483 0.3070
C28_29 C 0.2425(3) 0.9172(4) 0.31994(12)
H49_29 H 0.2527 0.9142 0.3063
H50_29 H 0.2702 0.9184 0.3290
H51_29 H 0.2066 0.8852 0.3229
C29_29 C 0.2232(3) 0.9807(4) 0.34394(9)
C30_29 C 0.2121(3) 0.9349(7) 0.35896(11)
H52_29 H 0.2026 0.9442 0.3717
H53_29 H 0.1815 0.8998 0.3542
H54_29 H 0.2452 0.9318 0.3603
C31_29 C 0.1774(5) 0.9952(6) 0.34460(15)
H55_29 H 0.1697 0.9999 0.3583
H57_29 H 0.1440 0.9654 0.3385
H30_30 H 0.0347 0.1834 0.4097
C19_30 C 0.0148(6) 0.2137(5) 0.44521(11)
H31_30 H 0.0090 0.2382 0.4539
H32_30 H 0.0544 0.2290 0.4430
C20_30 C 0.0109(6) 0.2663(4) 0.41531(16)
H34_30 H 0.0050 0.2910 0.4238
H36_30 H 0.0504 0.2814 0.4132
C26_30 C 0.0295(4) 0.2687(3) 0.32214(9)
C27_30 C 0.0241(5) 0.2288(3) 0.30525(11)
H46_30 H 0.0301 0.2476 0.2925
H47_30 H 0.0517 0.2175 0.3070
C28_30 C 0.0828(4) 0.3252(3) 0.31994(12)
H49_30 H 0.0858 0.3384 0.3063
H50_30 H 0.0816 0.3517 0.3290
H51_30 H 0.1148 0.3213 0.3229
C29_30 C 0.0193(4) 0.2424(3) 0.34394(9)
C30_30 C 0.0651(7) 0.2771(6) 0.35896(11)
H52_30 H 0.0558 0.2583 0.3717
H53_30 H 0.1002 0.2816 0.3542
H54_30 H 0.0682 0.3133 0.3603
C31_30 C 0.0048(6) 0.1821(4) 0.34460(15)
H55_30 H 0.0001 0.1697 0.3583
H57_30 H 0.0346 0.1785 0.3385
H30_31 H 0.9653 0.1488 0.0903
C19_31 C 0.9852(6) 0.1990(4) 0.05479(11)
H31_31 H 0.9910 0.2293 0.0461
H32_31 H 0.9456 0.1747 0.0570
C20_31 C 0.9891(6) 0.2555(4) 0.08469(16)
H34_31 H 0.9950 0.2861 0.0762
H36_31 H 0.9496 0.2311 0.0868
C26_31 C 0.9705(4) 0.2393(2) 0.17786(9)
C27_31 C 0.9759(5) 0.2048(4) 0.19475(11)
H46_31 H 0.9699 0.2176 0.2075
H47_31 H 0.9483 0.1659 0.1930
C28_31 C 0.9172(4) 0.2425(3) 0.18006(12)
H49_31 H 0.9142 0.2527 0.1937
H50_31 H 0.9184 0.2702 0.1710
H51_31 H 0.8852 0.2066 0.1771
C29_31 C 0.9807(4) 0.2232(3) 0.15606(9)
C30_31 C 0.9349(7) 0.2121(3) 0.14104(11)
H52_31 H 0.9442 0.2026 0.1283
H53_31 H 0.8998 0.1815 0.1458
H54_31 H 0.9318 0.2452 0.1397
C31_31 C 0.9952(6) 0.1774(5) 0.15540(15)
H55_31 H 0.9999 0.1697 0.1417
H57_31 H 0.9654 0.1440 0.1615
H30_32 H 0.1834 0.0347 0.0903
C19_32 C 0.2137(5) 0.0148(6) 0.05479(11)
H31_32 H 0.2382 0.0090 0.0461
H32_32 H 0.2290 0.0544 0.0570
C20_32 C 0.2663(4) 0.0109(6) 0.08469(16)
H34_32 H 0.2910 0.0050 0.0762
H36_32 H 0.2814 0.0504 0.0868
C26_32 C 0.2687(3) 0.0295(4) 0.17786(9)
C27_32 C 0.2288(3) 0.0241(5) 0.19475(11)
H46_32 H 0.2476 0.0301 0.2075
H47_32 H 0.2175 0.0517 0.1930
C28_32 C 0.3252(3) 0.0828(4) 0.18006(12)
H49_32 H 0.3384 0.0858 0.1937
H50_32 H 0.3517 0.0816 0.1710
H51_32 H 0.3213 0.1148 0.1771
C29_32 C 0.2424(3) 0.0193(4) 0.15606(9)
C30_32 C 0.2771(6) 0.0651(7) 0.14104(11)
H52_32 H 0.2583 0.0558 0.1283
H53_32 H 0.2816 0.1002 0.1458
H54_32 H 0.3133 0.0682 0.1397
C31_32 C 0.1821(4) 0.0048(6) 0.15540(15)
H55_32 H 0.1697 0.0001 0.1417
H57_32 H 0.1785 0.0346 0.1615
H30_33 H 0.8512 0.0347 0.5903
C19_33 C 0.8010(4) 0.0148(6) 0.55479(11)
H31_33 H 0.7707 0.0090 0.5461
H32_33 H 0.8253 0.0544 0.5570
C20_33 C 0.7445(4) 0.0109(6) 0.58469(16)
H34_33 H 0.7139 0.0050 0.5762
H36_33 H 0.7689 0.0504 0.5868
C26_33 C 0.7607(2) 0.0295(4) 0.67786(9)
C27_33 C 0.7952(4) 0.0241(5) 0.69475(11)
H46_33 H 0.7824 0.0301 0.7075
H47_33 H 0.8341 0.0517 0.6930
C28_33 C 0.7575(3) 0.0828(4) 0.68006(12)
H49_33 H 0.7473 0.0858 0.6937
H50_33 H 0.7298 0.0816 0.6710
H51_33 H 0.7934 0.1148 0.6771
C29_33 C 0.7768(3) 0.0193(4) 0.65606(9)
C30_33 C 0.7879(3) 0.0651(7) 0.64104(11)
H52_33 H 0.7974 0.0558 0.6283
H53_33 H 0.8185 0.1002 0.6458
H54_33 H 0.7548 0.0682 0.6397
C31_33 C 0.8226(5) 0.0048(6) 0.65540(15)
H55_33 H 0.8303 0.0001 0.6417
H57_33 H 0.8560 0.0346 0.6615
H30_34 H 0.9653 0.8166 0.5903
C19_34 C 0.9852(6) 0.7863(5) 0.55479(11)
H31_34 H 0.9910 0.7618 0.5461
H32_34 H 0.9456 0.7710 0.5570
C20_34 C 0.9891(6) 0.7337(4) 0.58469(16)
H34_34 H 0.9950 0.7090 0.5762
H36_34 H 0.9496 0.7186 0.5868
C26_34 C 0.9705(4) 0.7313(3) 0.67786(9)
C27_34 C 0.9759(5) 0.7712(3) 0.69475(11)
H46_34 H 0.9699 0.7524 0.7075
H47_34 H 0.9483 0.7825 0.6930
C28_34 C 0.9172(4) 0.6748(3) 0.68006(12)
H49_34 H 0.9142 0.6616 0.6937
H50_34 H 0.9184 0.6483 0.6710
H51_34 H 0.8852 0.6787 0.6771
C29_34 C 0.9807(4) 0.7576(3) 0.65606(9)
C30_34 C 0.9349(7) 0.7229(6) 0.64104(11)
H52_34 H 0.9442 0.7417 0.6283
H53_34 H 0.8998 0.7184 0.6458
H54_34 H 0.9318 0.6867 0.6397
C31_34 C 0.9952(6) 0.8179(4) 0.65540(15)
H55_34 H 0.9999 0.8303 0.6417
H57_34 H 0.9654 0.8215 0.6615
H30_35 H 0.0347 0.8512 0.9097
C19_35 C 0.0148(6) 0.8010(4) 0.94521(11)
H31_35 H 0.0090 0.7707 0.9539
H32_35 H 0.0544 0.8253 0.9430
C20_35 C 0.0109(6) 0.7445(4) 0.91531(16)
H34_35 H 0.0050 0.7139 0.9238
H36_35 H 0.0504 0.7689 0.9132
C26_35 C 0.0295(4) 0.7607(2) 0.82214(9)
C27_35 C 0.0241(5) 0.7952(4) 0.80525(11)
H46_35 H 0.0301 0.7824 0.7925
H47_35 H 0.0517 0.8341 0.8070
C28_35 C 0.0828(4) 0.7575(3) 0.81994(12)
H49_35 H 0.0858 0.7473 0.8063
H50_35 H 0.0816 0.7298 0.8290
H51_35 H 0.1148 0.7934 0.8229
C29_35 C 0.0193(4) 0.7768(3) 0.84394(9)
C30_35 C 0.0651(7) 0.7879(3) 0.85896(11)
H52_35 H 0.0558 0.7974 0.8717
H53_35 H 0.1002 0.8185 0.8542
H54_35 H 0.0682 0.7548 0.8603
C31_35 C 0.0048(6) 0.8226(5) 0.84460(15)
H55_35 H 0.0001 0.8303 0.8583
H57_35 H 0.0346 0.8560 0.8385
H30_36 H 0.8166 0.9653 0.9097
C19_36 C 0.7863(5) 0.9852(6) 0.94521(11)
H31_36 H 0.7618 0.9910 0.9539
H32_36 H 0.7710 0.9456 0.9430
C20_36 C 0.7337(4) 0.9891(6) 0.91531(16)
H34_36 H 0.7090 0.9950 0.9238
H36_36 H 0.7186 0.9496 0.9132
C26_36 C 0.7313(3) 0.9705(4) 0.82214(9)
C27_36 C 0.7712(3) 0.9759(5) 0.80525(11)
H46_36 H 0.7524 0.9699 0.7925
H47_36 H 0.7825 0.9483 0.8070
C28_36 C 0.6748(3) 0.9172(4) 0.81994(12)
H49_36 H 0.6616 0.9142 0.8063
H50_36 H 0.6483 0.9184 0.8290
H51_36 H 0.6787 0.8852 0.8229
C29_36 C 0.7576(3) 0.9807(4) 0.84394(9)
C30_36 C 0.7229(6) 0.9349(7) 0.85896(11)
H52_36 H 0.7417 0.9442 0.8717
H53_36 H 0.7184 0.8998 0.8542
H54_36 H 0.6867 0.9318 0.8603
C31_36 C 0.8179(4) 0.9952(6) 0.84460(15)
H55_36 H 0.8303 0.9999 0.8583
H57_36 H 0.8215 0.9654 0.8385
loop_
_geom_bond_atom_site_label_1
_geom_bond_atom_site_label_2
_geom_bond_site_symmetry_1
_geom_bond_site_symmetry_2
Mn1 O2 1_555 1_555
Mn2 O3 1_555 1_555
Mn3 O1 1_555 1_555
O1 C1 1_555 1_555
O2 C1 1_555 1_555
O3 C6 1_555 1_555
O4 C6 1_555 1_555
C6 C7 1_555 1_555
C7 C8 1_555 1_555
C8 H10 1_555 1_555
H11 C8 1_555 1_555
H12 C8 1_555 1_555
C9 C7 1_555 1_555
H13 C9 1_555 1_555
H14 C9 1_555 1_555
H15 C9 1_555 1_555
C10 C7 1_555 1_555
H16 C10 1_555 1_555
H17 C10 1_555 1_555
H18 C10 1_555 1_555
O5 Mn1 1_555 1_555
O6 Mn2 1_555 1_555
O7 Mn1 1_555 1_555
C11 O5 1_555 1_555
C12 C11 1_555 1_555
C13 C12 1_555 1_555
H19 C13 1_555 1_555
H20 C13 1_555 1_555
H21 C13 1_555 1_555
C14 C12 1_555 1_555
H22 C14 1_555 1_555
H23 C14 1_555 1_555
H24 C14 1_555 1_555
C15 C12 1_555 1_555
H25 C15 1_555 1_555
H26 C15 1_555 1_555
H27 C15 1_555 1_555
O8 Mn1 1_555 1_555
O9 C16 1_555 1_555
C16 O8 1_555 1_555
C17 C16 1_555 1_555
C18 C17 1_555 1_555
H28 C18 1_555 1_555
H29 C18 1_555 1_555
H30 C18 1_555 1_555
C19 C17 1_555 1_555
H31 C19 1_555 1_555
H32 C19 1_555 1_555
H33 C19 1_555 1_555
C20 C17 1_555 1_555
H34 C20 1_555 1_555
H35 C20 1_555 1_555
H36 C20 1_555 1_555
O10 Mn2 1_555 1_555
O11 Mn3 1_555 1_555
C21 O10 1_555 1_555
C22 C21 1_555 1_555
C23 C22 1_555 1_555
H37 C23 1_555 1_555
H38 C23 1_555 1_555
H39 C23 1_555 1_555
C24 C22 1_555 1_555
H40 C24 1_555 1_555
H41 C24 1_555 1_555
H42 C24 1_555 1_555
C25 C22 1_555 1_555
H43 C25 1_555 1_555
H44 C25 1_555 1_555
H45 C25 1_555 1_555
C30 C29 1_555 1_555
H52 C30 1_555 1_555
H53 C30 1_555 1_555
H54 C30 1_555 1_555
C31 C29 1_555 1_555
H55 C31 1_555 1_555
H56 C31 1_555 1_555
H57 C31 1_555 1_555
N2 C29 1_555 1_555
O13 Mn1 1_555 1_555
C33 C32 1_555 1_555
H59 C33 1_555 1_555
H60 C33 1_555 1_555
O14 Mn1 1_555 1_555
Mn4 Mn2 1_555 1_555
O15 Mn2 1_555 1_555
O16 Mn3 1_555 1_555
O17 Mn3 1_555 1_555
O18 Mn3 1_555 1_555
Mn5 O4 1_555 1_555
Mn6 O9 1_555 1_555
Mn2 O7 1_555 1_555
Mn2 O8 1_555 1_555
Mn3 O7 1_555 1_555
O6 C11 1_555 1_555
O7 Mn4 1_555 1_555
O10 Mn5 1_555 1_555
O11 C21 1_555 1_555
N2 O13 1_555 1_555
N2 C32 1_555 1_555
Mn4 O15 1_555 1_555
Mn4 O17 1_555 1_555
O15 Mn5 1_555 1_555
O15 Mn6 1_555 1_555
Mn1_2 O2_2 1_555 1_555
Mn2_2 O3_2 1_555 1_555
Mn3_2 O1_2 1_555 1_555
O1_2 C1_2 1_555 1_555
O2_2 C1_2 1_555 1_555
O3_2 C6_2 1_555 1_555
O4_2 C6_2 1_555 1_555
C6_2 C7_2 1_555 1_555
C7_2 C8_2 1_555 1_555
C8_2 H10_2 1_555 1_555
H11_2 C8_2 1_555 1_555
H12_2 C8_2 1_555 1_555
C9_2 C7_2 1_555 1_555
H13_2 C9_2 1_555 1_555
H14_2 C9_2 1_555 1_555
H15_2 C9_2 1_555 1_555
C10_2 C7_2 1_555 1_555
H16_2 C10_2 1_555 1_555
H17_2 C10_2 1_555 1_555
H18_2 C10_2 1_555 1_555
O5_2 Mn1_2 1_555 1_555
O6_2 Mn2_2 1_555 1_555
O7_2 Mn1_2 1_555 1_555
C11_2 O5_2 1_555 1_555
C12_2 C11_2 1_555 1_555
C13_2 C12_2 1_555 1_555
H19_2 C13_2 1_555 1_555
H20_2 C13_2 1_555 1_555
H21_2 C13_2 1_555 1_555
C14_2 C12_2 1_555 1_555
H22_2 C14_2 1_555 1_555
H23_2 C14_2 1_555 1_555
H24_2 C14_2 1_555 1_555
C15_2 C12_2 1_555 1_555
H25_2 C15_2 1_555 1_555
H26_2 C15_2 1_555 1_555
H27_2 C15_2 1_555 1_555
O8_2 Mn1_2 1_555 1_555
O9_2 C16_2 1_555 1_555
C16_2 O8_2 1_555 1_555
C17_2 C16_2 1_555 1_555
C18_2 C17_2 1_555 1_555
H28_2 C18_2 1_555 1_555
H29_2 C18_2 1_555 1_555
H30_2 C18_2 1_555 1_555
C19_2 C17_2 1_555 1_555
H31_2 C19_2 1_555 1_555
H32_2 C19_2 1_555 1_555
H33_2 C19_2 1_555 1_555
C20_2 C17_2 1_555 1_555
H34_2 C20_2 1_555 1_555
H35_2 C20_2 1_555 1_555
H36_2 C20_2 1_555 1_555
O10_2 Mn2_2 1_555 1_555
O11_2 Mn3_2 1_555 1_555
C21_2 O10_2 1_555 1_555
C22_2 C21_2 1_555 1_555
C23_2 C22_2 1_555 1_555
H37_2 C23_2 1_555 1_555
H38_2 C23_2 1_555 1_555
H39_2 C23_2 1_555 1_555
C25_2 C22_2 1_555 1_555
H45_2 C25_2 1_555 1_555
C30_2 C29_2 1_555 1_555
H52_2 C30_2 1_555 1_555
H53_2 C30_2 1_555 1_555
H54_2 C30_2 1_555 1_555
C31_2 C29_2 1_555 1_555
H55_2 C31_2 1_555 1_555
H56_2 C31_2 1_555 1_555
H57_2 C31_2 1_555 1_555
N2_2 C29_2 1_555 1_555
O13_2 Mn1_2 1_555 1_555
C33_2 C32_2 1_555 1_555
H59_2 C33_2 1_555 1_555
H60_2 C33_2 1_555 1_555
O14_2 Mn1_2 1_555 1_555
Mn4_2 Mn2_2 1_555 1_555
O15_2 Mn2_2 1_555 1_555
O16_2 Mn3_2 1_555 1_555
O17_2 Mn3_2 1_555 1_555
Mn5_2 O4_2 1_555 1_555
Mn6_2 O9_2 1_555 1_555
Mn2_2 O7_2 1_555 1_555
Mn2_2 O8_2 1_555 1_555
Mn3_2 O7_2 1_555 1_555
O6_2 C11_2 1_555 1_555
O7_2 Mn4_2 1_555 1_555
O10_2 Mn5_2 1_555 1_555
O11_2 C21_2 1_555 1_555
N2_2 O13_2 1_555 1_555
N2_2 C32_2 1_555 1_555
Mn4_2 O15_2 1_555 1_555
Mn4_2 O17_2 1_555 1_555
O15_2 Mn5_2 1_555 1_555
O15_2 Mn6_2 1_555 1_555
C2 C3 1_555 1_555
C3 H1 1_555 1_555
H2 C3 1_555 1_555
H3 C3 1_555 1_555
C4 C2 1_555 1_555
H4 C4 1_555 1_555
H5 C4 1_555 1_555
H6 C4 1_555 1_555
C5 C2 1_555 1_555
H7 C5 1_555 1_555
H8 C5 1_555 1_555
H9 C5 1_555 1_555
O12 N1 1_555 1_555
N1 C26 1_555 1_555
C26 C27 1_555 1_555
C27 H46 1_555 1_555
H47 C27 1_555 1_555
H48 C27 1_555 1_555
C28 C26 1_555 1_555
H49_2 C28 1_555 1_555
H50_2 C28 1_555 1_555
H51 C28 1_555 1_555
Mn7_2 O12 1_555 1_555
Mn1_3 O2_3 1_555 1_555
Mn2_3 O3_3 1_555 1_555
Mn3_3 O1_3 1_555 1_555
O1_3 C1_3 1_555 1_555
O2_3 C1_3 1_555 1_555
O3_3 C6_3 1_555 1_555
O4_3 C6_3 1_555 1_555
C6_3 C7_3 1_555 1_555
C7_3 C8_3 1_555 1_555
C8_3 H10_3 1_555 1_555
H11_3 C8_3 1_555 1_555
H12_3 C8_3 1_555 1_555
C9_3 C7_3 1_555 1_555
H13_3 C9_3 1_555 1_555
H14_3 C9_3 1_555 1_555
H15_3 C9_3 1_555 1_555
C10_3 C7_3 1_555 1_555
H16_3 C10_3 1_555 1_555
H17_3 C10_3 1_555 1_555
H18_3 C10_3 1_555 1_555
O5_3 Mn1_3 1_555 1_555
O6_3 Mn2_3 1_555 1_555
O7_3 Mn1_3 1_555 1_555
C11_3 O5_3 1_555 1_555
C12_3 C11_3 1_555 1_555
C13_3 C12_3 1_555 1_555
H19_3 C13_3 1_555 1_555
H20_3 C13_3 1_555 1_555
H21_3 C13_3 1_555 1_555
C14_3 C12_3 1_555 1_555
H22_3 C14_3 1_555 1_555
H23_3 C14_3 1_555 1_555
H24_3 C14_3 1_555 1_555
C15_3 C12_3 1_555 1_555
H25_3 C15_3 1_555 1_555
H26_3 C15_3 1_555 1_555
H27_3 C15_3 1_555 1_555
O8_3 Mn1_3 1_555 1_555
O9_3 C16_3 1_555 1_555
C16_3 O8_3 1_555 1_555
C17_3 C16_3 1_555 1_555
C18_3 C17_3 1_555 1_555
H28_3 C18_3 1_555 1_555
H29_3 C18_3 1_555 1_555
H30_3 C18_3 1_555 1_555
C19_3 C17_3 1_555 1_555
H31_3 C19_3 1_555 1_555
H32_3 C19_3 1_555 1_555
H33_3 C19_3 1_555 1_555
C20_3 C17_3 1_555 1_555
H34_3 C20_3 1_555 1_555
H35_3 C20_3 1_555 1_555
H36_3 C20_3 1_555 1_555
O10_3 Mn2_3 1_555 1_555
O11_3 Mn3_3 1_555 1_555
C21_3 O10_3 1_555 1_555
C22_3 C21_3 1_555 1_555
C23_3 C22_3 1_555 1_555
H37_3 C23_3 1_555 1_555
H38_3 C23_3 1_555 1_555
H39_3 C23_3 1_555 1_555
C25_3 C22_3 1_555 1_555
H45_3 C25_3 1_555 1_555
C30_3 C29_3 1_555 1_555
H52_3 C30_3 1_555 1_555
H53_3 C30_3 1_555 1_555
H54_3 C30_3 1_555 1_555
C31_3 C29_3 1_555 1_555
H55_3 C31_3 1_555 1_555
H56_3 C31_3 1_555 1_555
H57_3 C31_3 1_555 1_555
N2_3 C29_3 1_555 1_555
O13_3 Mn1_3 1_555 1_555
C33_3 C32_3 1_555 1_555
H59_3 C33_3 1_555 1_555
H60_3 C33_3 1_555 1_555
O14_3 Mn1_3 1_555 1_555
Mn4_3 Mn2_3 1_555 1_555
O15_3 Mn2_3 1_555 1_555
O16_3 Mn3_3 1_555 1_555
O17_3 Mn3_3 1_555 1_555
Mn5_3 O4_3 1_555 1_555
Mn6_3 O9_3 1_555 1_555
Mn2_3 O7_3 1_555 1_555
Mn2_3 O8_3 1_555 1_555
Mn3_3 O7_3 1_555 1_555
O6_3 C11_3 1_555 1_555
O7_3 Mn4_3 1_555 1_555
O10_3 Mn5_3 1_555 1_555
O11_3 C21_3 1_555 1_555
N2_3 O13_3 1_555 1_555
N2_3 C32_3 1_555 1_555
Mn4_3 O15_3 1_555 1_555
Mn4_3 O17_3 1_555 1_555
O15_3 Mn5_3 1_555 1_555
O15_3 Mn6_3 1_555 1_555
Mn1_4 O2_4 1_555 1_555
Mn2_4 O3_4 1_555 1_555
Mn3_4 O1_4 1_555 1_555
O1_4 C1_4 1_555 1_555
O2_4 C1_4 1_555 1_555
C1_4 C2_2 1_555 1_555
C2_2 C3_2 1_555 1_555
C3_2 H1_2 1_555 1_555
H2_2 C3_2 1_555 1_555
H3_2 C3_2 1_555 1_555
C4_2 C2_2 1_555 1_555
H4_2 C4_2 1_555 1_555
H5_2 C4_2 1_555 1_555
H6_2 C4_2 1_555 1_555
C5_2 C2_2 1_555 1_555
H7_2 C5_2 1_555 1_555
H8_2 C5_2 1_555 1_555
H9_2 C5_2 1_555 1_555
O3_4 C6_4 1_555 1_555
O4_4 C6_4 1_555 1_555
C6_4 C7_4 1_555 1_555
C7_4 C8_4 1_555 1_555
C8_4 H10_4 1_555 1_555
H11_4 C8_4 1_555 1_555
H12_4 C8_4 1_555 1_555
C9_4 C7_4 1_555 1_555
H13_4 C9_4 1_555 1_555
H14_4 C9_4 1_555 1_555
H15_4 C9_4 1_555 1_555
C10_4 C7_4 1_555 1_555
H16_4 C10_4 1_555 1_555
H17_4 C10_4 1_555 1_555
H18_4 C10_4 1_555 1_555
O5_4 Mn1_4 1_555 1_555
O6_4 Mn2_4 1_555 1_555
O7_4 Mn1_4 1_555 1_555
C11_4 O5_4 1_555 1_555
C12_4 C11_4 1_555 1_555
C13_4 C12_4 1_555 1_555
H19_4 C13_4 1_555 1_555
H20_4 C13_4 1_555 1_555
H21_4 C13_4 1_555 1_555
C14_4 C12_4 1_555 1_555
H22_4 C14_4 1_555 1_555
H23_4 C14_4 1_555 1_555
H24_4 C14_4 1_555 1_555
C15_4 C12_4 1_555 1_555
H25_4 C15_4 1_555 1_555
H26_4 C15_4 1_555 1_555
H27_4 C15_4 1_555 1_555
O8_4 Mn1_4 1_555 1_555
O9_4 C16_4 1_555 1_555
C16_4 O8_4 1_555 1_555
C17_4 C16_4 1_555 1_555
C18_4 C17_4 1_555 1_555
H28_4 C18_4 1_555 1_555
H29_4 C18_4 1_555 1_555
H30_4 C18_4 1_555 1_555
C19_4 C17_4 1_555 1_555
H31_4 C19_4 1_555 1_555
H32_4 C19_4 1_555 1_555
H33_4 C19_4 1_555 1_555
C20_4 C17_4 1_555 1_555
H34_4 C20_4 1_555 1_555
H35_4 C20_4 1_555 1_555
H36_4 C20_4 1_555 1_555
O10_4 Mn2_4 1_555 1_555
O11_4 Mn3_4 1_555 1_555
C21_4 O10_4 1_555 1_555
C22_4 C21_4 1_555 1_555
C23_4 C22_4 1_555 1_555
H37_4 C23_4 1_555 1_555
H38_4 C23_4 1_555 1_555
H39_4 C23_4 1_555 1_555
C24_2 C22_4 1_555 1_555
H40_2 C24_2 1_555 1_555
H41_2 C24_2 1_555 1_555
H42_2 C24_2 1_555 1_555
C25_4 C22_4 1_555 1_555
H43_2 C25_4 1_555 1_555
H44_2 C25_4 1_555 1_555
H45_4 C25_4 1_555 1_555
O12_2 N1_2 1_555 1_555
N1_2 C26_2 1_555 1_555
C26_2 C27_2 1_555 1_555
C27_2 H46_2 1_555 1_555
H47_2 C27_2 1_555 1_555
H48_2 C27_2 1_555 1_555
C28_2 C26_2 1_555 1_555
H51_2 C28_2 1_555 1_555
C29_4 C26_2 1_555 1_555
C30_4 C29_4 1_555 1_555
H52_4 C30_4 1_555 1_555
H53_4 C30_4 1_555 1_555
H54_4 C30_4 1_555 1_555
C31_4 C29_4 1_555 1_555
H55_4 C31_4 1_555 1_555
H56_4 C31_4 1_555 1_555
H57_4 C31_4 1_555 1_555
N2_4 C29_4 1_555 1_555
O13_4 Mn1_4 1_555 1_555
C32_4 N1_2 1_555 1_555
C33_4 C32_4 1_555 1_555
H58_2 C33_4 1_555 1_555
H59_4 C33_4 1_555 1_555
H60_4 C33_4 1_555 1_555
O14_4 Mn1_4 1_555 1_555
Mn4_4 Mn2_4 1_555 1_555
O15_4 Mn2_4 1_555 1_555
O16_4 Mn3_4 1_555 1_555
O17_4 Mn3_4 1_555 1_555
O18_2 Mn3_4 1_555 1_555
Mn5_4 O4_4 1_555 1_555
Mn6_4 O9_4 1_555 1_555
Mn2_4 O7_4 1_555 1_555
Mn2_4 O8_4 1_555 1_555
Mn3_4 O7_4 1_555 1_555
O6_4 C11_4 1_555 1_555
O7_4 Mn4_4 1_555 1_555
O10_4 Mn5_4 1_555 1_555
O11_4 C21_4 1_555 1_555
N2_4 O13_4 1_555 1_555
N2_4 C32_4 1_555 1_555
Mn4_4 O15_4 1_555 1_555
Mn4_4 O17_4 1_555 1_555
O15_4 Mn5_4 1_555 1_555
O15_4 Mn6_4 1_555 1_555
H13_5 C9_5 1_555 1_555
H14_5 C9_5 1_555 1_555
H15_5 C9_5 1_555 1_555
H19_5 C13_5 1_555 1_555
H20_5 C13_5 1_555 1_555
H21_5 C13_5 1_555 1_555
H23_5 C14_5 1_555 1_555
H24_5 C14_5 1_555 1_555
C22_5 C21_5 1_555 1_555
C23_5 C22_5 1_555 1_555
H37_5 C23_5 1_555 1_555
H38_5 C23_5 1_555 1_555
H39_5 C23_5 1_555 1_555
C24_3 C22_5 1_555 1_555
H40_3 C24_3 1_555 1_555
H41_3 C24_3 1_555 1_555
H42_3 C24_3 1_555 1_555
C25_5 C22_5 1_555 1_555
H43_3 C25_5 1_555 1_555
H44_3 C25_5 1_555 1_555
H45_5 C25_5 1_555 1_555
O11_5 C21_5 1_555 1_555
Mn1_5 O2_5 1_555 1_555
Mn2_5 O3_5 1_555 1_555
Mn3_5 O1_5 1_555 1_555
O1_5 C1_5 1_555 1_555
O2_5 C1_5 1_555 1_555
C1_5 C2_3 1_555 1_555
C2_3 C3_3 1_555 1_555
C3_3 H1_3 1_555 1_555
H2_3 C3_3 1_555 1_555
H3_3 C3_3 1_555 1_555
C4_3 C2_3 1_555 1_555
H4_3 C4_3 1_555 1_555
H5_3 C4_3 1_555 1_555
H6_3 C4_3 1_555 1_555
C5_3 C2_3 1_555 1_555
H7_3 C5_3 1_555 1_555
H8_3 C5_3 1_555 1_555
H9_3 C5_3 1_555 1_555
O3_5 C6_5 1_555 1_555
O4_5 C6_5 1_555 1_555
C6_5 C7_5 1_555 1_555
C7_5 C8_5 1_555 1_555
C8_5 H10_5 1_555 1_555
H11_5 C8_5 1_555 1_555
H12_5 C8_5 1_555 1_555
C10_5 C7_5 1_555 1_555
H16_5 C10_5 1_555 1_555
H17_5 C10_5 1_555 1_555
H18_5 C10_5 1_555 1_555
O5_5 Mn1_5 1_555 1_555
O6_5 Mn2_5 1_555 1_555
O7_5 Mn1_5 1_555 1_555
C11_5 O5_5 1_555 1_555
C12_5 C11_5 1_555 1_555
C15_5 C12_5 1_555 1_555
H25_5 C15_5 1_555 1_555
H26_5 C15_5 1_555 1_555
H27_5 C15_5 1_555 1_555
O8_5 Mn1_5 1_555 1_555
O9_5 C16_5 1_555 1_555
C16_5 O8_5 1_555 1_555
C17_5 C16_5 1_555 1_555
C18_5 C17_5 1_555 1_555
H28_5 C18_5 1_555 1_555
H29_5 C18_5 1_555 1_555
H30_5 C18_5 1_555 1_555
C19_5 C17_5 1_555 1_555
H31_5 C19_5 1_555 1_555
H32_5 C19_5 1_555 1_555
H33_5 C19_5 1_555 1_555
C20_5 C17_5 1_555 1_555
H34_5 C20_5 1_555 1_555
H35_5 C20_5 1_555 1_555
H36_5 C20_5 1_555 1_555
O10_5 Mn2_5 1_555 1_555
O12_3 N1_3 1_555 1_555
N1_3 C26_3 1_555 1_555
C26_3 C27_3 1_555 1_555
C27_3 H46_3 1_555 1_555
H47_3 C27_3 1_555 1_555
H48_3 C27_3 1_555 1_555
C28_3 C26_3 1_555 1_555
H49_5 C28_3 1_555 1_555
H50_5 C28_3 1_555 1_555
H51_3 C28_3 1_555 1_555
C29_5 C26_3 1_555 1_555
C30_5 C29_5 1_555 1_555
H52_5 C30_5 1_555 1_555
H53_5 C30_5 1_555 1_555
H54_5 C30_5 1_555 1_555
C31_5 C29_5 1_555 1_555
H55_5 C31_5 1_555 1_555
H56_5 C31_5 1_555 1_555
H57_5 C31_5 1_555 1_555
N2_5 C29_5 1_555 1_555
O13_5 Mn1_5 1_555 1_555
C32_5 N1_3 1_555 1_555
C33_5 C32_5 1_555 1_555
H58_3 C33_5 1_555 1_555
H59_5 C33_5 1_555 1_555
H60_5 C33_5 1_555 1_555
O14_5 Mn1_5 1_555 1_555
Mn4_5 Mn2_5 1_555 1_555
O15_5 Mn2_5 1_555 1_555
O16_5 Mn3_5 1_555 1_555
O17_5 Mn3_5 1_555 1_555
Mn5_5 O4_5 1_555 1_555
Mn6_5 O9_5 1_555 1_555
Mn7_5 O12_3 1_555 1_555
Mn2_5 O7_5 1_555 1_555
Mn2_5 O8_5 1_555 1_555
Mn3_5 O7_5 1_555 1_555
O6_5 C11_5 1_555 1_555
O7_5 Mn4_5 1_555 1_555
O10_5 Mn5_5 1_555 1_555
N2_5 O13_5 1_555 1_555
N2_5 C32_5 1_555 1_555
Mn4_5 O15_5 1_555 1_555
Mn4_5 O17_5 1_555 1_555
O15_5 Mn5_5 1_555 1_555
O15_5 Mn6_5 1_555 1_555
Mn6_4 O2_6 1_555 1_555
Mn4_4 O3_6 1_555 1_555
Mn5_4 O1_6 1_555 1_555
O1_6 C1_6 1_555 1_555
O2_6 C1_6 1_555 1_555
C1_6 C2_4 1_555 1_555
C2_4 C3_4 1_555 1_555
C3_4 H1_4 1_555 1_555
H2_4 C3_4 1_555 1_555
H3_4 C3_4 1_555 1_555
C4_4 C2_4 1_555 1_555
H4_4 C4_4 1_555 1_555
H5_4 C4_4 1_555 1_555
H6_4 C4_4 1_555 1_555
C5_4 C2_4 1_555 1_555
H7_4 C5_4 1_555 1_555
H8_4 C5_4 1_555 1_555
H9_4 C5_4 1_555 1_555
O3_6 C6_6 1_555 1_555
O16_4 C6_6 1_555 1_555
C6_6 C7_6 1_555 1_555
C7_6 C8_6 1_555 1_555
C8_6 H10_6 1_555 1_555
H11_6 C8_6 1_555 1_555
H12_6 C8_6 1_555 1_555
C9_6 C7_6 1_555 1_555
H13_6 C9_6 1_555 1_555
H14_6 C9_6 1_555 1_555
H15_6 C9_6 1_555 1_555
C10_6 C7_6 1_555 1_555
H16_6 C10_6 1_555 1_555
H17_6 C10_6 1_555 1_555
H18_6 C10_6 1_555 1_555
O5_6 Mn6_4 1_555 1_555
O6_6 Mn4_4 1_555 1_555
C11_6 O5_6 1_555 1_555
C12_6 C11_6 1_555 1_555
C13_6 C12_6 1_555 1_555
H19_6 C13_6 1_555 1_555
H20_6 C13_6 1_555 1_555
H21_6 C13_6 1_555 1_555
C14_6 C12_6 1_555 1_555
H22_6 C14_6 1_555 1_555
H23_6 C14_6 1_555 1_555
H24_6 C14_6 1_555 1_555
C15_6 C12_6 1_555 1_555
H25_6 C15_6 1_555 1_555
H26_6 C15_6 1_555 1_555
H27_6 C15_6 1_555 1_555
O8_6 Mn6_4 1_555 1_555
O14_4 C16_6 1_555 1_555
C16_6 O8_6 1_555 1_555
C17_6 C16_6 1_555 1_555
C18_6 C17_6 1_555 1_555
H28_6 C18_6 1_555 1_555
H29_6 C18_6 1_555 1_555
O11_6 Mn5_4 1_555 1_555
C21_6 O17_4 1_555 1_555
C22_6 C21_6 1_555 1_555
C23_6 C22_6 1_555 1_555
H37_6 C23_6 1_555 1_555
H38_6 C23_6 1_555 1_555
H39_6 C23_6 1_555 1_555
C24_4 C22_6 1_555 1_555
H40_4 C24_4 1_555 1_555
H41_4 C24_4 1_555 1_555
H42_4 C24_4 1_555 1_555
C25_6 C22_6 1_555 1_555
H43_4 C25_6 1_555 1_555
H44_4 C25_6 1_555 1_555
H45_6 C25_6 1_555 1_555
O12_4 N1_4 1_555 1_555
O13_6 Mn6_4 1_555 1_555
C32_6 N1_4 1_555 1_555
C33_6 C32_6 1_555 1_555
H58_4 C33_6 1_555 1_555
H59_6 C33_6 1_555 1_555
H60_6 C33_6 1_555 1_555
O18_4 Mn5_4 1_555 1_555
Mn7_6 O12_4 1_555 1_555
Mn4_4 O8_6 1_555 1_555
O6_6 C11_6 1_555 1_555
O11_6 C21_6 1_555 1_555
N2_6 O13_6 1_555 1_555
N2_6 C32_6 1_555 1_555
Mn1_6 O2_7 1_555 1_555
Mn2_6 O3_7 1_555 1_555
Mn3_6 O1_7 1_555 1_555
O1_7 C1_7 1_555 1_555
O2_7 C1_7 1_555 1_555
C1_7 C2_5 1_555 1_555
C2_5 C3_5 1_555 1_555
C3_5 H1_5 1_555 1_555
H2_5 C3_5 1_555 1_555
H3_5 C3_5 1_555 1_555
C4_5 C2_5 1_555 1_555
H4_5 C4_5 1_555 1_555
H5_5 C4_5 1_555 1_555
H6_5 C4_5 1_555 1_555
C5_5 C2_5 1_555 1_555
H7_5 C5_5 1_555 1_555
H8_5 C5_5 1_555 1_555
H9_5 C5_5 1_555 1_555
O3_7 C6_7 1_555 1_555
O4_6 C6_7 1_555 1_555
C6_7 C7_7 1_555 1_555
C7_7 C8_7 1_555 1_555
C8_7 H10_7 1_555 1_555
H11_7 C8_7 1_555 1_555
H12_7 C8_7 1_555 1_555
C10_7 C7_7 1_555 1_555
H16_7 C10_7 1_555 1_555
H17_7 C10_7 1_555 1_555
H18_7 C10_7 1_555 1_555
O5_7 Mn1_6 1_555 1_555
O6_7 Mn2_6 1_555 1_555
O7_6 Mn1_6 1_555 1_555
C11_7 O5_7 1_555 1_555
C12_7 C11_7 1_555 1_555
C15_7 C12_7 1_555 1_555
H25_7 C15_7 1_555 1_555
H26_7 C15_7 1_555 1_555
H27_7 C15_7 1_555 1_555
O8_7 Mn1_6 1_555 1_555
O9_6 C16_7 1_555 1_555
C16_7 O8_7 1_555 1_555
C17_7 C16_7 1_555 1_555
C18_7 C17_7 1_555 1_555
H28_7 C18_7 1_555 1_555
H29_7 C18_7 1_555 1_555
O10_6 Mn2_6 1_555 1_555
O12_5 N1_5 1_555 1_555
O13_7 Mn1_6 1_555 1_555
C32_7 N1_5 1_555 1_555
C33_7 C32_7 1_555 1_555
H58_5 C33_7 1_555 1_555
H59_7 C33_7 1_555 1_555
H60_7 C33_7 1_555 1_555
O14_6 Mn1_6 1_555 1_555
Mn4_6 Mn2_6 1_555 1_555
O15_6 Mn2_6 1_555 1_555
O16_6 Mn3_6 1_555 1_555
O17_6 Mn3_6 1_555 1_555
Mn5_6 O4_6 1_555 1_555
Mn6_6 O9_6 1_555 1_555
Mn7_7 O12_5 1_555 1_555
Mn2_6 O7_6 1_555 1_555
Mn2_6 O8_7 1_555 1_555
Mn3_6 O7_6 1_555 1_555
O6_7 C11_7 1_555 1_555
O7_6 Mn4_6 1_555 1_555
O10_6 Mn5_6 1_555 1_555
N2_7 O13_7 1_555 1_555
N2_7 C32_7 1_555 1_555
Mn4_6 O15_6 1_555 1_555
Mn4_6 O17_6 1_555 1_555
O15_6 Mn5_6 1_555 1_555
O15_6 Mn6_6 1_555 1_555
H13_7 C9_7 1_555 1_555
H14_7 C9_7 1_555 1_555
H15_7 C9_7 1_555 1_555
H19_7 C13_7 1_555 1_555
H20_7 C13_7 1_555 1_555
H21_7 C13_7 1_555 1_555
H23_7 C14_7 1_555 1_555
H24_7 C14_7 1_555 1_555
C22_7 C21_7 1_555 1_555
C23_7 C22_7 1_555 1_555
H37_7 C23_7 1_555 1_555
H38_7 C23_7 1_555 1_555
H39_7 C23_7 1_555 1_555
C24_5 C22_7 1_555 1_555
H40_5 C24_5 1_555 1_555
H41_5 C24_5 1_555 1_555
H42_5 C24_5 1_555 1_555
C25_7 C22_7 1_555 1_555
H43_5 C25_7 1_555 1_555
H44_5 C25_7 1_555 1_555
H45_7 C25_7 1_555 1_555
O11_7 C21_7 1_555 1_555
Mn1_7 O2_8 1_555 1_555
Mn2_7 O3_8 1_555 1_555
O1_8 C1_8 1_555 1_555
O2_8 C1_8 1_555 1_555
C1_8 C2_6 1_555 1_555
C4_6 C2_6 1_555 1_555
H4_6 C4_6 1_555 1_555
H5_6 C4_6 1_555 1_555
H6_6 C4_6 1_555 1_555
C5_6 C2_6 1_555 1_555
H7_6 C5_6 1_555 1_555
H8_6 C5_6 1_555 1_555
H9_6 C5_6 1_555 1_555
O3_8 C6_8 1_555 1_555
O4_7 C6_8 1_555 1_555
C6_8 C7_8 1_555 1_555
C7_8 C8_8 1_555 1_555
C8_8 H10_8 1_555 1_555
H11_8 C8_8 1_555 1_555
H12_8 C8_8 1_555 1_555
C9_8 C7_8 1_555 1_555
H13_8 C9_8 1_555 1_555
H14_8 C9_8 1_555 1_555
H15_8 C9_8 1_555 1_555
C10_8 C7_8 1_555 1_555
H16_8 C10_8 1_555 1_555
H17_8 C10_8 1_555 1_555
H18_8 C10_8 1_555 1_555
O5_8 Mn1_7 1_555 1_555
O6_8 Mn2_7 1_555 1_555
O7_7 Mn1_7 1_555 1_555
C11_8 O5_8 1_555 1_555
C12_8 C11_8 1_555 1_555
C13_8 C12_8 1_555 1_555
H19_8 C13_8 1_555 1_555
H20_8 C13_8 1_555 1_555
H21_8 C13_8 1_555 1_555
C14_8 C12_8 1_555 1_555
H22_8 C14_8 1_555 1_555
H23_8 C14_8 1_555 1_555
H24_8 C14_8 1_555 1_555
C15_8 C12_8 1_555 1_555
H25_8 C15_8 1_555 1_555
H26_8 C15_8 1_555 1_555
H27_8 C15_8 1_555 1_555
O8_8 Mn1_7 1_555 1_555
O9_7 C16_8 1_555 1_555
C16_8 O8_8 1_555 1_555
C17_8 C16_8 1_555 1_555
C18_8 C17_8 1_555 1_555
H28_8 C18_8 1_555 1_555
H29_8 C18_8 1_555 1_555
H30_6 C18_8 1_555 1_555
C19_6 C17_8 1_555 1_555
H31_6 C19_6 1_555 1_555
H32_6 C19_6 1_555 1_555
H33_8 C19_6 1_555 1_555
C20_6 C17_8 1_555 1_555
H34_6 C20_6 1_555 1_555
H35_8 C20_6 1_555 1_555
H36_6 C20_6 1_555 1_555
O10_7 Mn2_7 1_555 1_555
C21_8 O10_7 1_555 1_555
C22_8 C21_8 1_555 1_555
C23_8 C22_8 1_555 1_555
H37_8 C23_8 1_555 1_555
H38_8 C23_8 1_555 1_555
H39_8 C23_8 1_555 1_555
C24_6 C22_8 1_555 1_555
H40_6 C24_6 1_555 1_555
H41_6 C24_6 1_555 1_555
H42_6 C24_6 1_555 1_555
C25_8 C22_8 1_555 1_555
H43_6 C25_8 1_555 1_555
H44_6 C25_8 1_555 1_555
H45_8 C25_8 1_555 1_555
O12_6 N1_6 1_555 1_555
N1_6 C26_4 1_555 1_555
C26_4 C27_4 1_555 1_555
C27_4 H46_4 1_555 1_555
H47_4 C27_4 1_555 1_555
H48_6 C27_4 1_555 1_555
C28_4 C26_4 1_555 1_555
H49_6 C28_4 1_555 1_555
H50_6 C28_4 1_555 1_555
H51_4 C28_4 1_555 1_555
C29_6 C26_4 1_555 1_555
C30_6 C29_6 1_555 1_555
H52_6 C30_6 1_555 1_555
H53_6 C30_6 1_555 1_555
H54_6 C30_6 1_555 1_555
C31_6 C29_6 1_555 1_555
H55_6 C31_6 1_555 1_555
H56_8 C31_6 1_555 1_555
H57_6 C31_6 1_555 1_555
N2_8 C29_6 1_555 1_555
O13_8 Mn1_7 1_555 1_555
C32_8 N1_6 1_555 1_555
Mn5_7 O4_7 1_555 1_555
Mn2_7 O7_7 1_555 1_555
Mn2_7 O8_8 1_555 1_555
O6_8 C11_8 1_555 1_555
O10_7 Mn5_7 1_555 1_555
O11_8 C21_8 1_555 1_555
N2_8 O13_8 1_555 1_555
N2_8 C32_8 1_555 1_555
C3_6 H1_6 1_555 1_555
H2_6 C3_6 1_555 1_555
H3_6 C3_6 1_555 1_555
H58_6 C33_8 1_555 1_555
H59_8 C33_8 1_555 1_555
H60_8 C33_8 1_555 1_555
O16_7 Mn3_7 1_555 1_555
O17_7 Mn3_7 1_555 1_555
O18_6 Mn3_7 1_555 1_555
Mn4_7 O15_7 1_555 1_555
Mn4_7 O17_7 1_555 1_555
O15_7 Mn6_7 1_555 1_555
Mn1_8 O2_9 1_555 1_555
Mn2_8 O3_9 1_555 1_555
O1_9 C1_9 1_555 1_555
O2_9 C1_9 1_555 1_555
C1_9 C2_7 1_555 1_555
C4_7 C2_7 1_555 1_555
H4_7 C4_7 1_555 1_555
H5_7 C4_7 1_555 1_555
H6_7 C4_7 1_555 1_555
C5_7 C2_7 1_555 1_555
H7_7 C5_7 1_555 1_555
H8_7 C5_7 1_555 1_555
H9_7 C5_7 1_555 1_555
O3_9 C6_9 1_555 1_555
O4_8 C6_9 1_555 1_555
C6_9 C7_9 1_555 1_555
C7_9 C8_9 1_555 1_555
C8_9 H10_9 1_555 1_555
H11_9 C8_9 1_555 1_555
H12_9 C8_9 1_555 1_555
C9_9 C7_9 1_555 1_555
H13_9 C9_9 1_555 1_555
H14_9 C9_9 1_555 1_555
H15_9 C9_9 1_555 1_555
C10_9 C7_9 1_555 1_555
H16_9 C10_9 1_555 1_555
H17_9 C10_9 1_555 1_555
H18_9 C10_9 1_555 1_555
O5_9 Mn1_8 1_555 1_555
O6_9 Mn2_8 1_555 1_555
O7_8 Mn1_8 1_555 1_555
C11_9 O5_9 1_555 1_555
C12_9 C11_9 1_555 1_555
C13_9 C12_9 1_555 1_555
H19_9 C13_9 1_555 1_555
H20_9 C13_9 1_555 1_555
H21_9 C13_9 1_555 1_555
C14_9 C12_9 1_555 1_555
H22_9 C14_9 1_555 1_555
H23_9 C14_9 1_555 1_555
H24_9 C14_9 1_555 1_555
C15_9 C12_9 1_555 1_555
H25_9 C15_9 1_555 1_555
H26_9 C15_9 1_555 1_555
H27_9 C15_9 1_555 1_555
O8_9 Mn1_8 1_555 1_555
O9_8 C16_9 1_555 1_555
C16_9 O8_9 1_555 1_555
C17_9 C16_9 1_555 1_555
C18_9 C17_9 1_555 1_555
H28_9 C18_9 1_555 1_555
H29_9 C18_9 1_555 1_555
H30_7 C18_9 1_555 1_555
C19_7 C17_9 1_555 1_555
H31_7 C19_7 1_555 1_555
H32_7 C19_7 1_555 1_555
H33_9 C19_7 1_555 1_555
C20_7 C17_9 1_555 1_555
H34_7 C20_7 1_555 1_555
H35_9 C20_7 1_555 1_555
H36_7 C20_7 1_555 1_555
O10_8 Mn2_8 1_555 1_555
C21_9 O10_8 1_555 1_555
C22_9 C21_9 1_555 1_555
C23_9 C22_9 1_555 1_555
H37_9 C23_9 1_555 1_555
H38_9 C23_9 1_555 1_555
H39_9 C23_9 1_555 1_555
C24_7 C22_9 1_555 1_555
H40_7 C24_7 1_555 1_555
H41_7 C24_7 1_555 1_555
H42_7 C24_7 1_555 1_555
C25_9 C22_9 1_555 1_555
H43_7 C25_9 1_555 1_555
H44_7 C25_9 1_555 1_555
H45_9 C25_9 1_555 1_555
O12_7 N1_7 1_555 1_555
N1_7 C26_5 1_555 1_555
C26_5 C27_5 1_555 1_555
C27_5 H46_5 1_555 1_555
H47_5 C27_5 1_555 1_555
H48_7 C27_5 1_555 1_555
C28_5 C26_5 1_555 1_555
H49_7 C28_5 1_555 1_555
H50_7 C28_5 1_555 1_555
H51_5 C28_5 1_555 1_555
C29_7 C26_5 1_555 1_555
C30_7 C29_7 1_555 1_555
H52_7 C30_7 1_555 1_555
H53_7 C30_7 1_555 1_555
H54_7 C30_7 1_555 1_555
C31_7 C29_7 1_555 1_555
H55_7 C31_7 1_555 1_555
H56_9 C31_7 1_555 1_555
H57_7 C31_7 1_555 1_555
N2_9 C29_7 1_555 1_555
O13_9 Mn1_8 1_555 1_555
C32_9 N1_7 1_555 1_555
Mn5_8 O4_8 1_555 1_555
Mn2_8 O7_8 1_555 1_555
Mn2_8 O8_9 1_555 1_555
O6_9 C11_9 1_555 1_555
O10_8 Mn5_8 1_555 1_555
O11_9 C21_9 1_555 1_555
N2_9 O13_9 1_555 1_555
N2_9 C32_9 1_555 1_555
C3_7 H1_7 1_555 1_555
H2_7 C3_7 1_555 1_555
H3_7 C3_7 1_555 1_555
H58_7 C33_9 1_555 1_555
H59_9 C33_9 1_555 1_555
H60_9 C33_9 1_555 1_555
O16_8 Mn3_8 1_555 1_555
O17_8 Mn3_8 1_555 1_555
O18_7 Mn3_8 1_555 1_555
Mn4_8 O15_8 1_555 1_555
Mn4_8 O17_8 1_555 1_555
O15_8 Mn6_8 1_555 1_555
H13_10 C9_10 1_555 1_555
H14_10 C9_10 1_555 1_555
H15_10 C9_10 1_555 1_555
H19_10 C13_10 1_555 1_555
H20_10 C13_10 1_555 1_555
H21_10 C13_10 1_555 1_555
H23_10 C14_10 1_555 1_555
H24_10 C14_10 1_555 1_555
C22_10 C21_10 1_555 1_555
C23_10 C22_10 1_555 1_555
H37_10 C23_10 1_555 1_555
H38_10 C23_10 1_555 1_555
H39_10 C23_10 1_555 1_555
C24_8 C22_10 1_555 1_555
H40_8 C24_8 1_555 1_555
H41_8 C24_8 1_555 1_555
H42_8 C24_8 1_555 1_555
C25_10 C22_10 1_555 1_555
H43_8 C25_10 1_555 1_555
H44_8 C25_10 1_555 1_555
H45_10 C25_10 1_555 1_555
O11_10 C21_10 1_555 1_555
Mn6_2 O2_10 1_555 1_555
Mn4_2 O3_10 1_555 1_555
Mn5_2 O1_10 1_555 1_555
O1_10 C1_10 1_555 1_555
O2_10 C1_10 1_555 1_555
C1_10 C2_8 1_555 1_555
C2_8 C3_8 1_555 1_555
C3_8 H1_8 1_555 1_555
H2_8 C3_8 1_555 1_555
H3_8 C3_8 1_555 1_555
C4_8 C2_8 1_555 1_555
H4_8 C4_8 1_555 1_555
H5_8 C4_8 1_555 1_555
H6_8 C4_8 1_555 1_555
C5_8 C2_8 1_555 1_555
H7_8 C5_8 1_555 1_555
H8_8 C5_8 1_555 1_555
H9_8 C5_8 1_555 1_555
O3_10 C6_10 1_555 1_555
O16_2 C6_10 1_555 1_555
C6_10 C7_10 1_555 1_555
C7_10 C8_10 1_555 1_555
C8_10 H10_10 1_555 1_555
H11_10 C8_10 1_555 1_555
H12_10 C8_10 1_555 1_555
C10_10 C7_10 1_555 1_555
H16_10 C10_10 1_555 1_555
H17_10 C10_10 1_555 1_555
H18_10 C10_10 1_555 1_555
O5_10 Mn6_2 1_555 1_555
O6_10 Mn4_2 1_555 1_555
C11_10 O5_10 1_555 1_555
C12_10 C11_10 1_555 1_555
C15_10 C12_10 1_555 1_555
H25_10 C15_10 1_555 1_555
H26_10 C15_10 1_555 1_555
H27_10 C15_10 1_555 1_555
O8_10 Mn6_2 1_555 1_555
O14_2 C16_10 1_555 1_555
C16_10 O8_10 1_555 1_555
C17_10 C16_10 1_555 1_555
C18_10 C17_10 1_555 1_555
H28_10 C18_10 1_555 1_555
H29_10 C18_10 1_555 1_555
H30_8 C18_10 1_555 1_555
C19_8 C17_10 1_555 1_555
H31_8 C19_8 1_555 1_555
H32_8 C19_8 1_555 1_555
H33_10 C19_8 1_555 1_555
C20_8 C17_10 1_555 1_555
H34_8 C20_8 1_555 1_555
H35_10 C20_8 1_555 1_555
H36_8 C20_8 1_555 1_555
O12_8 N1_8 1_555 1_555
N1_8 C26_6 1_555 1_555
C26_6 C27_6 1_555 1_555
C27_6 H46_6 1_555 1_555
H47_6 C27_6 1_555 1_555
H48_8 C27_6 1_555 1_555
C28_6 C26_6 1_555 1_555
H49_8 C28_6 1_555 1_555
H50_8 C28_6 1_555 1_555
H51_6 C28_6 1_555 1_555
C29_8 C26_6 1_555 1_555
C30_8 C29_8 1_555 1_555
H52_8 C30_8 1_555 1_555
H53_8 C30_8 1_555 1_555
H54_8 C30_8 1_555 1_555
C31_8 C29_8 1_555 1_555
H55_8 C31_8 1_555 1_555
H56_10 C31_8 1_555 1_555
H57_8 C31_8 1_555 1_555
N2_10 C29_8 1_555 1_555
O13_10 Mn6_2 1_555 1_555
C32_10 N1_8 1_555 1_555
C33_10 C32_10 1_555 1_555
H58_8 C33_10 1_555 1_555
H59_10 C33_10 1_555 1_555
H60_10 C33_10 1_555 1_555
Mn7_10 O12_8 1_555 1_555
Mn4_2 O8_10 1_555 1_555
O6_10 C11_10 1_555 1_555
N2_10 O13_10 1_555 1_555
N2_10 C32_10 1_555 1_555
H40_9 C24_9 1_555 1_555
H41_9 C24_9 1_555 1_555
H42_9 C24_9 1_555 1_555
Mn6_5 O2_11 1_555 1_555
Mn4_5 O3_11 1_555 1_555
Mn5_5 O1_11 1_555 1_555
O1_11 C1_11 1_555 1_555
O2_11 C1_11 1_555 1_555
C1_11 C2_9 1_555 1_555
C2_9 C3_9 1_555 1_555
C3_9 H1_9 1_555 1_555
H2_9 C3_9 1_555 1_555
H3_9 C3_9 1_555 1_555
C4_9 C2_9 1_555 1_555
H4_9 C4_9 1_555 1_555
H5_9 C4_9 1_555 1_555
H6_9 C4_9 1_555 1_555
C5_9 C2_9 1_555 1_555
H7_9 C5_9 1_555 1_555
H8_9 C5_9 1_555 1_555
H9_9 C5_9 1_555 1_555
O3_11 C6_11 1_555 1_555
O16_5 C6_11 1_555 1_555
C6_11 C7_11 1_555 1_555
C7_11 C8_11 1_555 1_555
C8_11 H10_11 1_555 1_555
H11_11 C8_11 1_555 1_555
H12_11 C8_11 1_555 1_555
C9_11 C7_11 1_555 1_555
H13_11 C9_11 1_555 1_555
H14_11 C9_11 1_555 1_555
H15_11 C9_11 1_555 1_555
C10_11 C7_11 1_555 1_555
H16_11 C10_11 1_555 1_555
H17_11 C10_11 1_555 1_555
H18_11 C10_11 1_555 1_555
O5_11 Mn6_5 1_555 1_555
O6_11 Mn4_5 1_555 1_555
C11_11 O5_11 1_555 1_555
C12_11 C11_11 1_555 1_555
C13_11 C12_11 1_555 1_555
H19_11 C13_11 1_555 1_555
H20_11 C13_11 1_555 1_555
H21_11 C13_11 1_555 1_555
C14_11 C12_11 1_555 1_555
H22_11 C14_11 1_555 1_555
H23_11 C14_11 1_555 1_555
H24_11 C14_11 1_555 1_555
C15_11 C12_11 1_555 1_555
H25_11 C15_11 1_555 1_555
H26_11 C15_11 1_555 1_555
H27_11 C15_11 1_555 1_555
O8_11 Mn6_5 1_555 1_555
O14_5 C16_11 1_555 1_555
C16_11 O8_11 1_555 1_555
C17_11 C16_11 1_555 1_555
C18_11 C17_11 1_555 1_555
H28_11 C18_11 1_555 1_555
H29_11 C18_11 1_555 1_555
H30_9 C18_11 1_555 1_555
C19_9 C17_11 1_555 1_555
H31_9 C19_9 1_555 1_555
H32_9 C19_9 1_555 1_555
H33_11 C19_9 1_555 1_555
C20_9 C17_11 1_555 1_555
H34_9 C20_9 1_555 1_555
H35_11 C20_9 1_555 1_555
H36_9 C20_9 1_555 1_555
O11_11 Mn5_5 1_555 1_555
C21_11 O17_5 1_555 1_555
C22_11 C21_11 1_555 1_555
C23_11 C22_11 1_555 1_555
H37_11 C23_11 1_555 1_555
H38_11 C23_11 1_555 1_555
H39_11 C23_11 1_555 1_555
C25_11 C22_11 1_555 1_555
H45_11 C25_11 1_555 1_555
O12_9 N1_9 1_555 1_555
N1_9 C26_7 1_555 1_555
C26_7 C27_7 1_555 1_555
C27_7 H46_7 1_555 1_555
H47_7 C27_7 1_555 1_555
H48_9 C27_7 1_555 1_555
C28_7 C26_7 1_555 1_555
H49_9 C28_7 1_555 1_555
H50_9 C28_7 1_555 1_555
H51_7 C28_7 1_555 1_555
C29_9 C26_7 1_555 1_555
C30_9 C29_9 1_555 1_555
H52_9 C30_9 1_555 1_555
H53_9 C30_9 1_555 1_555
H54_9 C30_9 1_555 1_555
C31_9 C29_9 1_555 1_555
H55_9 C31_9 1_555 1_555
H56_11 C31_9 1_555 1_555
H57_9 C31_9 1_555 1_555
N2_11 C29_9 1_555 1_555
O13_11 Mn6_5 1_555 1_555
C32_11 N1_9 1_555 1_555
C33_11 C32_11 1_555 1_555
H58_9 C33_11 1_555 1_555
H59_11 C33_11 1_555 1_555
H60_11 C33_11 1_555 1_555
Mn7_11 O12_9 1_555 1_555
Mn4_5 O8_11 1_555 1_555
O6_11 C11_11 1_555 1_555
O11_11 C21_11 1_555 1_555
N2_11 O13_11 1_555 1_555
N2_11 C32_11 1_555 1_555
Mn6_6 O2_12 1_555 1_555
Mn4_6 O3_12 1_555 1_555
Mn5_6 O1_12 1_555 1_555
O1_12 C1_12 1_555 1_555
O2_12 C1_12 1_555 1_555
C1_12 C2_10 1_555 1_555
C2_10 C3_10 1_555 1_555
C3_10 H1_10 1_555 1_555
H2_10 C3_10 1_555 1_555
H3_10 C3_10 1_555 1_555
C4_10 C2_10 1_555 1_555
H4_10 C4_10 1_555 1_555
H5_10 C4_10 1_555 1_555
H6_10 C4_10 1_555 1_555
C5_10 C2_10 1_555 1_555
H7_10 C5_10 1_555 1_555
H8_10 C5_10 1_555 1_555
H9_10 C5_10 1_555 1_555
O3_12 C6_12 1_555 1_555
O16_6 C6_12 1_555 1_555
C6_12 C7_12 1_555 1_555
C7_12 C8_12 1_555 1_555
C8_12 H10_12 1_555 1_555
H11_12 C8_12 1_555 1_555
H12_12 C8_12 1_555 1_555
C9_12 C7_12 1_555 1_555
H13_12 C9_12 1_555 1_555
H14_12 C9_12 1_555 1_555
H15_12 C9_12 1_555 1_555
C10_12 C7_12 1_555 1_555
H16_12 C10_12 1_555 1_555
H17_12 C10_12 1_555 1_555
H18_12 C10_12 1_555 1_555
O5_12 Mn6_6 1_555 1_555
O6_12 Mn4_6 1_555 1_555
C11_12 O5_12 1_555 1_555
C12_12 C11_12 1_555 1_555
C13_12 C12_12 1_555 1_555
H19_12 C13_12 1_555 1_555
H20_12 C13_12 1_555 1_555
H21_12 C13_12 1_555 1_555
C14_12 C12_12 1_555 1_555
H22_12 C14_12 1_555 1_555
H23_12 C14_12 1_555 1_555
H24_12 C14_12 1_555 1_555
C15_12 C12_12 1_555 1_555
H25_12 C15_12 1_555 1_555
H26_12 C15_12 1_555 1_555
H27_12 C15_12 1_555 1_555
O8_12 Mn6_6 1_555 1_555
O14_6 C16_12 1_555 1_555
C16_12 O8_12 1_555 1_555
C17_12 C16_12 1_555 1_555
C18_12 C17_12 1_555 1_555
H28_12 C18_12 1_555 1_555
H29_12 C18_12 1_555 1_555
H30_10 C18_12 1_555 1_555
C19_10 C17_12 1_555 1_555
H31_10 C19_10 1_555 1_555
H32_10 C19_10 1_555 1_555
H33_12 C19_10 1_555 1_555
C20_10 C17_12 1_555 1_555
H34_10 C20_10 1_555 1_555
H35_12 C20_10 1_555 1_555
H36_10 C20_10 1_555 1_555
O11_12 Mn5_6 1_555 1_555
C21_12 O17_6 1_555 1_555
C22_12 C21_12 1_555 1_555
C23_12 C22_12 1_555 1_555
H37_12 C23_12 1_555 1_555
H38_12 C23_12 1_555 1_555
H39_12 C23_12 1_555 1_555
C25_12 C22_12 1_555 1_555
H45_12 C25_12 1_555 1_555
O12_10 N1_10 1_555 1_555
N1_10 C26_8 1_555 1_555
C26_8 C27_8 1_555 1_555
C27_8 H46_8 1_555 1_555
H47_8 C27_8 1_555 1_555
H48_10 C27_8 1_555 1_555
C28_8 C26_8 1_555 1_555
H51_8 C28_8 1_555 1_555
C29_10 C26_8 1_555 1_555
C30_10 C29_10 1_555 1_555
H52_10 C30_10 1_555 1_555
H53_10 C30_10 1_555 1_555
H54_10 C30_10 1_555 1_555
C31_10 C29_10 1_555 1_555
H55_10 C31_10 1_555 1_555
H56_12 C31_10 1_555 1_555
H57_10 C31_10 1_555 1_555
N2_12 C29_10 1_555 1_555
O13_12 Mn6_6 1_555 1_555
C32_12 N1_10 1_555 1_555
C33_12 C32_12 1_555 1_555
H58_10 C33_12 1_555 1_555
H59_12 C33_12 1_555 1_555
H60_12 C33_12 1_555 1_555
Mn4_6 O8_12 1_555 1_555
O6_12 C11_12 1_555 1_555
O11_12 C21_12 1_555 1_555
N2_12 O13_12 1_555 1_555
N2_12 C32_12 1_555 1_555
H40_10 C24_10 1_555 1_555
H41_10 C24_10 1_555 1_555
H42_10 C24_10 1_555 1_555
C3_11 H1_11 1_555 1_555
H2_11 C3_11 1_555 1_555
H3_11 C3_11 1_555 1_555
H58_11 C33_13 1_555 1_555
H59_13 C33_13 1_555 1_555
H60_13 C33_13 1_555 1_555
O18_11 Mn5_7 1_555 1_555
Mn6_7 O2_13 1_555 1_555
Mn4_7 O3_13 1_555 1_555
O1_13 C1_13 1_555 1_555
O2_13 C1_13 1_555 1_555
C1_13 C2_11 1_555 1_555
C4_11 C2_11 1_555 1_555
H4_11 C4_11 1_555 1_555
H5_11 C4_11 1_555 1_555
H6_11 C4_11 1_555 1_555
C5_11 C2_11 1_555 1_555
H7_11 C5_11 1_555 1_555
H8_11 C5_11 1_555 1_555
H9_11 C5_11 1_555 1_555
O3_13 C6_13 1_555 1_555
O16_7 C6_13 1_555 1_555
C6_13 C7_13 1_555 1_555
C7_13 C8_13 1_555 1_555
C8_13 H10_13 1_555 1_555
H11_13 C8_13 1_555 1_555
H12_13 C8_13 1_555 1_555
C9_13 C7_13 1_555 1_555
H13_13 C9_13 1_555 1_555
H14_13 C9_13 1_555 1_555
H15_13 C9_13 1_555 1_555
C10_13 C7_13 1_555 1_555
H16_13 C10_13 1_555 1_555
H17_13 C10_13 1_555 1_555
H18_13 C10_13 1_555 1_555
O5_13 Mn6_7 1_555 1_555
O6_13 Mn4_7 1_555 1_555
C11_13 O5_13 1_555 1_555
C12_13 C11_13 1_555 1_555
C13_13 C12_13 1_555 1_555
H19_13 C13_13 1_555 1_555
H20_13 C13_13 1_555 1_555
H21_13 C13_13 1_555 1_555
C14_13 C12_13 1_555 1_555
H22_13 C14_13 1_555 1_555
H23_13 C14_13 1_555 1_555
H24_13 C14_13 1_555 1_555
C15_13 C12_13 1_555 1_555
H25_13 C15_13 1_555 1_555
H26_13 C15_13 1_555 1_555
H27_13 C15_13 1_555 1_555
O8_13 Mn6_7 1_555 1_555
O14_7 C16_13 1_555 1_555
C16_13 O8_13 1_555 1_555
C17_13 C16_13 1_555 1_555
C18_13 C17_13 1_555 1_555
H28_13 C18_13 1_555 1_555
H29_13 C18_13 1_555 1_555
H30_11 C18_13 1_555 1_555
C19_11 C17_13 1_555 1_555
H31_11 C19_11 1_555 1_555
H32_11 C19_11 1_555 1_555
H33_13 C19_11 1_555 1_555
C20_11 C17_13 1_555 1_555
H34_11 C20_11 1_555 1_555
H35_13 C20_11 1_555 1_555
H36_11 C20_11 1_555 1_555
C21_13 O17_7 1_555 1_555
C22_13 C21_13 1_555 1_555
C23_13 C22_13 1_555 1_555
H37_13 C23_13 1_555 1_555
H38_13 C23_13 1_555 1_555
H39_13 C23_13 1_555 1_555
C24_11 C22_13 1_555 1_555
H40_11 C24_11 1_555 1_555
H41_11 C24_11 1_555 1_555
H42_11 C24_11 1_555 1_555
C25_13 C22_13 1_555 1_555
H43_11 C25_13 1_555 1_555
H44_11 C25_13 1_555 1_555
H45_13 C25_13 1_555 1_555
O12_11 N1_11 1_555 1_555
N1_11 C26_9 1_555 1_555
C26_9 C27_9 1_555 1_555
C27_9 H46_9 1_555 1_555
H47_9 C27_9 1_555 1_555
H48_11 C27_9 1_555 1_555
C28_9 C26_9 1_555 1_555
H49_11 C28_9 1_555 1_555
H50_11 C28_9 1_555 1_555
H51_9 C28_9 1_555 1_555
C29_11 C26_9 1_555 1_555
C30_11 C29_11 1_555 1_555
H52_11 C30_11 1_555 1_555
H53_11 C30_11 1_555 1_555
H54_11 C30_11 1_555 1_555
C31_11 C29_11 1_555 1_555
H55_11 C31_11 1_555 1_555
H56_13 C31_11 1_555 1_555
H57_11 C31_11 1_555 1_555
N2_13 C29_11 1_555 1_555
O13_13 Mn6_7 1_555 1_555
C32_13 N1_11 1_555 1_555
Mn4_7 O8_13 1_555 1_555
O6_13 C11_13 1_555 1_555
O11_13 C21_13 1_555 1_555
N2_13 O13_13 1_555 1_555
N2_13 C32_13 1_555 1_555
Mn1_9 O2_14 1_555 1_555
Mn2_9 O3_14 1_555 1_555
Mn3_9 O1_14 1_555 1_555
O1_14 C1_14 1_555 1_555
O2_14 C1_14 1_555 1_555
C1_14 C2_12 1_555 1_555
C2_12 C3_12 1_555 1_555
C3_12 H1_12 1_555 1_555
H2_12 C3_12 1_555 1_555
H3_12 C3_12 1_555 1_555
C4_12 C2_12 1_555 1_555
H4_12 C4_12 1_555 1_555
H5_12 C4_12 1_555 1_555
H6_12 C4_12 1_555 1_555
C5_12 C2_12 1_555 1_555
H7_12 C5_12 1_555 1_555
H8_12 C5_12 1_555 1_555
H9_12 C5_12 1_555 1_555
O3_14 C6_14 1_555 1_555
O4_9 C6_14 1_555 1_555
C6_14 C7_14 1_555 1_555
C7_14 C8_14 1_555 1_555
C8_14 H10_14 1_555 1_555
H11_14 C8_14 1_555 1_555
H12_14 C8_14 1_555 1_555
C9_14 C7_14 1_555 1_555
H13_14 C9_14 1_555 1_555
H14_14 C9_14 1_555 1_555
H15_14 C9_14 1_555 1_555
C10_14 C7_14 1_555 1_555
H16_14 C10_14 1_555 1_555
H17_14 C10_14 1_555 1_555
H18_14 C10_14 1_555 1_555
O5_14 Mn1_9 1_555 1_555
O6_14 Mn2_9 1_555 1_555
O7_9 Mn1_9 1_555 1_555
C11_14 O5_14 1_555 1_555
C12_14 C11_14 1_555 1_555
C13_14 C12_14 1_555 1_555
H19_14 C13_14 1_555 1_555
H20_14 C13_14 1_555 1_555
H21_14 C13_14 1_555 1_555
C14_14 C12_14 1_555 1_555
H22_14 C14_14 1_555 1_555
H23_14 C14_14 1_555 1_555
H24_14 C14_14 1_555 1_555
C15_14 C12_14 1_555 1_555
H25_14 C15_14 1_555 1_555
H26_14 C15_14 1_555 1_555
H27_14 C15_14 1_555 1_555
O8_14 Mn1_9 1_555 1_555
O9_9 C16_14 1_555 1_555
C16_14 O8_14 1_555 1_555
C17_14 C16_14 1_555 1_555
C18_14 C17_14 1_555 1_555
H28_14 C18_14 1_555 1_555
H29_14 C18_14 1_555 1_555
H30_12 C18_14 1_555 1_555
C19_12 C17_14 1_555 1_555
H31_12 C19_12 1_555 1_555
H32_12 C19_12 1_555 1_555
H33_14 C19_12 1_555 1_555
C20_12 C17_14 1_555 1_555
H34_12 C20_12 1_555 1_555
H35_14 C20_12 1_555 1_555
H36_12 C20_12 1_555 1_555
O10_9 Mn2_9 1_555 1_555
O11_14 Mn3_9 1_555 1_555
C21_14 O10_9 1_555 1_555
C22_14 C21_14 1_555 1_555
C23_14 C22_14 1_555 1_555
H37_14 C23_14 1_555 1_555
H38_14 C23_14 1_555 1_555
H39_14 C23_14 1_555 1_555
C24_12 C22_14 1_555 1_555
H40_12 C24_12 1_555 1_555
H41_12 C24_12 1_555 1_555
H42_12 C24_12 1_555 1_555
C25_14 C22_14 1_555 1_555
H43_12 C25_14 1_555 1_555
H44_12 C25_14 1_555 1_555
H45_14 C25_14 1_555 1_555
O12_12 N1_12 1_555 1_555
N1_12 C26_10 1_555 1_555
C26_10 C27_10 1_555 1_555
C27_10 H46_10 1_555 1_555
H47_10 C27_10 1_555 1_555
H48_12 C27_10 1_555 1_555
C28_10 C26_10 1_555 1_555
H49_12 C28_10 1_555 1_555
H50_12 C28_10 1_555 1_555
H51_10 C28_10 1_555 1_555
C29_12 C26_10 1_555 1_555
C30_12 C29_12 1_555 1_555
H52_12 C30_12 1_555 1_555
H53_12 C30_12 1_555 1_555
H54_12 C30_12 1_555 1_555
C31_12 C29_12 1_555 1_555
H55_12 C31_12 1_555 1_555
H56_14 C31_12 1_555 1_555
H57_12 C31_12 1_555 1_555
N2_14 C29_12 1_555 1_555
O13_14 Mn1_9 1_555 1_555
C32_14 N1_12 1_555 1_555
C33_14 C32_14 1_555 1_555
H58_12 C33_14 1_555 1_555
H59_14 C33_14 1_555 1_555
H60_14 C33_14 1_555 1_555
O14_9 Mn1_9 1_555 1_555
Mn4_9 Mn2_9 1_555 1_555
O15_9 Mn2_9 1_555 1_555
O16_9 Mn3_9 1_555 1_555
O17_9 Mn3_9 1_555 1_555
O18_12 Mn3_9 1_555 1_555
Mn5_9 O4_9 1_555 1_555
Mn6_9 O9_9 1_555 1_555
Mn7_14 O12_12 1_555 1_555
Mn2_9 O7_9 1_555 1_555
Mn2_9 O8_14 1_555 1_555
Mn3_9 O7_9 1_555 1_555
O6_14 C11_14 1_555 1_555
O7_9 Mn4_9 1_555 1_555
O10_9 Mn5_9 1_555 1_555
O11_14 C21_14 1_555 1_555
N2_14 O13_14 1_555 1_555
N2_14 C32_14 1_555 1_555
Mn4_9 O15_9 1_555 1_555
Mn4_9 O17_9 1_555 1_555
O15_9 Mn5_9 1_555 1_555
O15_9 Mn6_9 1_555 1_555
Mn6 O2_15 1_555 1_555
Mn4 O3_15 1_555 1_555
Mn5 O1_15 1_555 1_555
O1_15 C1_15 1_555 1_555
O2_15 C1_15 1_555 1_555
C1_15 C2_13 1_555 1_555
C2_13 C3_13 1_555 1_555
C3_13 H1_13 1_555 1_555
H2_13 C3_13 1_555 1_555
H3_13 C3_13 1_555 1_555
C4_13 C2_13 1_555 1_555
H4_13 C4_13 1_555 1_555
H5_13 C4_13 1_555 1_555
H6_13 C4_13 1_555 1_555
C5_13 C2_13 1_555 1_555
H7_13 C5_13 1_555 1_555
H8_13 C5_13 1_555 1_555
H9_13 C5_13 1_555 1_555
O3_15 C6_15 1_555 1_555
O16 C6_15 1_555 1_555
C6_15 C7_15 1_555 1_555
C7_15 C8_15 1_555 1_555
C8_15 H10_15 1_555 1_555
H11_15 C8_15 1_555 1_555
H12_15 C8_15 1_555 1_555
C9_15 C7_15 1_555 1_555
H13_15 C9_15 1_555 1_555
H14_15 C9_15 1_555 1_555
H15_15 C9_15 1_555 1_555
C10_15 C7_15 1_555 1_555
H16_15 C10_15 1_555 1_555
H17_15 C10_15 1_555 1_555
H18_15 C10_15 1_555 1_555
O5_15 Mn6 1_555 1_555
O6_15 Mn4 1_555 1_555
C11_15 O5_15 1_555 1_555
C12_15 C11_15 1_555 1_555
C13_15 C12_15 1_555 1_555
H19_15 C13_15 1_555 1_555
H20_15 C13_15 1_555 1_555
H21_15 C13_15 1_555 1_555
C14_15 C12_15 1_555 1_555
H22_15 C14_15 1_555 1_555
H23_15 C14_15 1_555 1_555
H24_15 C14_15 1_555 1_555
C15_15 C12_15 1_555 1_555
H25_15 C15_15 1_555 1_555
H26_15 C15_15 1_555 1_555
H27_15 C15_15 1_555 1_555
O8_15 Mn6 1_555 1_555
O14 C16_15 1_555 1_555
C16_15 O8_15 1_555 1_555
C17_15 C16_15 1_555 1_555
C18_15 C17_15 1_555 1_555
H28_15 C18_15 1_555 1_555
H29_15 C18_15 1_555 1_555
O11_15 Mn5 1_555 1_555
C21_15 O17 1_555 1_555
C22_15 C21_15 1_555 1_555
C23_15 C22_15 1_555 1_555
H37_15 C23_15 1_555 1_555
H38_15 C23_15 1_555 1_555
H39_15 C23_15 1_555 1_555
C24_13 C22_15 1_555 1_555
H40_13 C24_13 1_555 1_555
H41_13 C24_13 1_555 1_555
H42_13 C24_13 1_555 1_555
C25_15 C22_15 1_555 1_555
H43_13 C25_15 1_555 1_555
H44_13 C25_15 1_555 1_555
H45_15 C25_15 1_555 1_555
O12_13 N1_13 1_555 1_555
O13_15 Mn6 1_555 1_555
C32_15 N1_13 1_555 1_555
C33_15 C32_15 1_555 1_555
H58_13 C33_15 1_555 1_555
H59_15 C33_15 1_555 1_555
H60_15 C33_15 1_555 1_555
O18_13 Mn5 1_555 1_555
Mn7_15 O12_13 1_555 1_555
Mn4 O8_15 1_555 1_555
O6_15 C11_15 1_555 1_555
O11_15 C21_15 1_555 1_555
N2_15 O13_15 1_555 1_555
N2_15 C32_15 1_555 1_555
Mn6_3 O2_16 1_555 1_555
Mn4_3 O3_16 1_555 1_555
Mn5_3 O1_16 1_555 1_555
O1_16 C1_16 1_555 1_555
O2_16 C1_16 1_555 1_555
C1_16 C2_14 1_555 1_555
C2_14 C3_14 1_555 1_555
C3_14 H1_14 1_555 1_555
H2_14 C3_14 1_555 1_555
H3_14 C3_14 1_555 1_555
C4_14 C2_14 1_555 1_555
H4_14 C4_14 1_555 1_555
H5_14 C4_14 1_555 1_555
H6_14 C4_14 1_555 1_555
C5_14 C2_14 1_555 1_555
H7_14 C5_14 1_555 1_555
H8_14 C5_14 1_555 1_555
H9_14 C5_14 1_555 1_555
O3_16 C6_16 1_555 1_555
O16_3 C6_16 1_555 1_555
C6_16 C7_16 1_555 1_555
C7_16 C8_16 1_555 1_555
C8_16 H10_16 1_555 1_555
H11_16 C8_16 1_555 1_555
H12_16 C8_16 1_555 1_555
C10_16 C7_16 1_555 1_555
H16_16 C10_16 1_555 1_555
H17_16 C10_16 1_555 1_555
H18_16 C10_16 1_555 1_555
O5_16 Mn6_3 1_555 1_555
O6_16 Mn4_3 1_555 1_555
C11_16 O5_16 1_555 1_555
C12_16 C11_16 1_555 1_555
C15_16 C12_16 1_555 1_555
H25_16 C15_16 1_555 1_555
H26_16 C15_16 1_555 1_555
H27_16 C15_16 1_555 1_555
O8_16 Mn6_3 1_555 1_555
O14_3 C16_16 1_555 1_555
C16_16 O8_16 1_555 1_555
C17_16 C16_16 1_555 1_555
C18_16 C17_16 1_555 1_555
H28_16 C18_16 1_555 1_555
H29_16 C18_16 1_555 1_555
O12_14 N1_14 1_555 1_555
O13_16 Mn6_3 1_555 1_555
C32_16 N1_14 1_555 1_555
C33_16 C32_16 1_555 1_555
H58_14 C33_16 1_555 1_555
H59_16 C33_16 1_555 1_555
H60_16 C33_16 1_555 1_555
Mn7_16 O12_14 1_555 1_555
Mn4_3 O8_16 1_555 1_555
O6_16 C11_16 1_555 1_555
N2_16 O13_16 1_555 1_555
N2_16 C32_16 1_555 1_555
H13_16 C9_16 1_555 1_555
H14_16 C9_16 1_555 1_555
H15_16 C9_16 1_555 1_555
H19_16 C13_16 1_555 1_555
H20_16 C13_16 1_555 1_555
H21_16 C13_16 1_555 1_555
H23_16 C14_16 1_555 1_555
H24_16 C14_16 1_555 1_555
C22_16 C21_16 1_555 1_555
C23_16 C22_16 1_555 1_555
H37_16 C23_16 1_555 1_555
H38_16 C23_16 1_555 1_555
H39_16 C23_16 1_555 1_555
C24_14 C22_16 1_555 1_555
H40_14 C24_14 1_555 1_555
H41_14 C24_14 1_555 1_555
H42_14 C24_14 1_555 1_555
C25_16 C22_16 1_555 1_555
H43_14 C25_16 1_555 1_555
H44_14 C25_16 1_555 1_555
H45_16 C25_16 1_555 1_555
O11_16 C21_16 1_555 1_555
C3_15 H1_15 1_555 1_555
H2_15 C3_15 1_555 1_555
H3_15 C3_15 1_555 1_555
H58_15 C33_17 1_555 1_555
H59_17 C33_17 1_555 1_555
H60_17 C33_17 1_555 1_555
O18_15 Mn5_8 1_555 1_555
Mn6_8 O2_17 1_555 1_555
Mn4_8 O3_17 1_555 1_555
O1_17 C1_17 1_555 1_555
O2_17 C1_17 1_555 1_555
C1_17 C2_15 1_555 1_555
C4_15 C2_15 1_555 1_555
H4_15 C4_15 1_555 1_555
H5_15 C4_15 1_555 1_555
H6_15 C4_15 1_555 1_555
C5_15 C2_15 1_555 1_555
H7_15 C5_15 1_555 1_555
H8_15 C5_15 1_555 1_555
H9_15 C5_15 1_555 1_555
O3_17 C6_17 1_555 1_555
O16_8 C6_17 1_555 1_555
C6_17 C7_17 1_555 1_555
C7_17 C8_17 1_555 1_555
C8_17 H10_17 1_555 1_555
H11_17 C8_17 1_555 1_555
H12_17 C8_17 1_555 1_555
C9_17 C7_17 1_555 1_555
H13_17 C9_17 1_555 1_555
H14_17 C9_17 1_555 1_555
H15_17 C9_17 1_555 1_555
C10_17 C7_17 1_555 1_555
H16_17 C10_17 1_555 1_555
H17_17 C10_17 1_555 1_555
H18_17 C10_17 1_555 1_555
O5_17 Mn6_8 1_555 1_555
O6_17 Mn4_8 1_555 1_555
C11_17 O5_17 1_555 1_555
C12_17 C11_17 1_555 1_555
C13_17 C12_17 1_555 1_555
H19_17 C13_17 1_555 1_555
H20_17 C13_17 1_555 1_555
H21_17 C13_17 1_555 1_555
C14_17 C12_17 1_555 1_555
H22_17 C14_17 1_555 1_555
H23_17 C14_17 1_555 1_555
H24_17 C14_17 1_555 1_555
C15_17 C12_17 1_555 1_555
H25_17 C15_17 1_555 1_555
H26_17 C15_17 1_555 1_555
H27_17 C15_17 1_555 1_555
O8_17 Mn6_8 1_555 1_555
O14_8 C16_17 1_555 1_555
C16_17 O8_17 1_555 1_555
C17_17 C16_17 1_555 1_555
C18_17 C17_17 1_555 1_555
H28_17 C18_17 1_555 1_555
H29_17 C18_17 1_555 1_555
H30_13 C18_17 1_555 1_555
C19_13 C17_17 1_555 1_555
H31_13 C19_13 1_555 1_555
H32_13 C19_13 1_555 1_555
H33_17 C19_13 1_555 1_555
C20_13 C17_17 1_555 1_555
H34_13 C20_13 1_555 1_555
H35_17 C20_13 1_555 1_555
H36_13 C20_13 1_555 1_555
C21_17 O17_8 1_555 1_555
C22_17 C21_17 1_555 1_555
C23_17 C22_17 1_555 1_555
H37_17 C23_17 1_555 1_555
H38_17 C23_17 1_555 1_555
H39_17 C23_17 1_555 1_555
C24_15 C22_17 1_555 1_555
H40_15 C24_15 1_555 1_555
H41_15 C24_15 1_555 1_555
H42_15 C24_15 1_555 1_555
C25_17 C22_17 1_555 1_555
H43_15 C25_17 1_555 1_555
H44_15 C25_17 1_555 1_555
H45_17 C25_17 1_555 1_555
O12_15 N1_15 1_555 1_555
N1_15 C26_11 1_555 1_555
C26_11 C27_11 1_555 1_555
C27_11 H46_11 1_555 1_555
H47_11 C27_11 1_555 1_555
H48_15 C27_11 1_555 1_555
C28_11 C26_11 1_555 1_555
H49_13 C28_11 1_555 1_555
H50_13 C28_11 1_555 1_555
H51_11 C28_11 1_555 1_555
C29_13 C26_11 1_555 1_555
C30_13 C29_13 1_555 1_555
H52_13 C30_13 1_555 1_555
H53_13 C30_13 1_555 1_555
H54_13 C30_13 1_555 1_555
C31_13 C29_13 1_555 1_555
H55_13 C31_13 1_555 1_555
H56_17 C31_13 1_555 1_555
H57_13 C31_13 1_555 1_555
N2_17 C29_13 1_555 1_555
O13_17 Mn6_8 1_555 1_555
C32_17 N1_15 1_555 1_555
Mn4_8 O8_17 1_555 1_555
O6_17 C11_17 1_555 1_555
O11_17 C21_17 1_555 1_555
N2_17 O13_17 1_555 1_555
N2_17 C32_17 1_555 1_555
Mn6_9 O2_18 1_555 1_555
Mn4_9 O3_18 1_555 1_555
Mn5_9 O1_18 1_555 1_555
O1_18 C1_18 1_555 1_555
O2_18 C1_18 1_555 1_555
C1_18 C2_16 1_555 1_555
C2_16 C3_16 1_555 1_555
C3_16 H1_16 1_555 1_555
H2_16 C3_16 1_555 1_555
H3_16 C3_16 1_555 1_555
C4_16 C2_16 1_555 1_555
H4_16 C4_16 1_555 1_555
H5_16 C4_16 1_555 1_555
H6_16 C4_16 1_555 1_555
C5_16 C2_16 1_555 1_555
H7_16 C5_16 1_555 1_555
H8_16 C5_16 1_555 1_555
H9_16 C5_16 1_555 1_555
O3_18 C6_18 1_555 1_555
O16_9 C6_18 1_555 1_555
C6_18 C7_18 1_555 1_555
C7_18 C8_18 1_555 1_555
C8_18 H10_18 1_555 1_555
H11_18 C8_18 1_555 1_555
H12_18 C8_18 1_555 1_555
C9_18 C7_18 1_555 1_555
H13_18 C9_18 1_555 1_555
H14_18 C9_18 1_555 1_555
H15_18 C9_18 1_555 1_555
C10_18 C7_18 1_555 1_555
H16_18 C10_18 1_555 1_555
H17_18 C10_18 1_555 1_555
H18_18 C10_18 1_555 1_555
O5_18 Mn6_9 1_555 1_555
O6_18 Mn4_9 1_555 1_555
C11_18 O5_18 1_555 1_555
C12_18 C11_18 1_555 1_555
C13_18 C12_18 1_555 1_555
H19_18 C13_18 1_555 1_555
H20_18 C13_18 1_555 1_555
H21_18 C13_18 1_555 1_555
C14_18 C12_18 1_555 1_555
H22_18 C14_18 1_555 1_555
H23_18 C14_18 1_555 1_555
H24_18 C14_18 1_555 1_555
C15_18 C12_18 1_555 1_555
H25_18 C15_18 1_555 1_555
H26_18 C15_18 1_555 1_555
H27_18 C15_18 1_555 1_555
O8_18 Mn6_9 1_555 1_555
O14_9 C16_18 1_555 1_555
C16_18 O8_18 1_555 1_555
C17_18 C16_18 1_555 1_555
C18_18 C17_18 1_555 1_555
H28_18 C18_18 1_555 1_555
H29_18 C18_18 1_555 1_555
H30_14 C18_18 1_555 1_555
C19_14 C17_18 1_555 1_555
H31_14 C19_14 1_555 1_555
H32_14 C19_14 1_555 1_555
H33_18 C19_14 1_555 1_555
C20_14 C17_18 1_555 1_555
H34_14 C20_14 1_555 1_555
H35_18 C20_14 1_555 1_555
H36_14 C20_14 1_555 1_555
O11_18 Mn5_9 1_555 1_555
C21_18 O17_9 1_555 1_555
C22_18 C21_18 1_555 1_555
C23_18 C22_18 1_555 1_555
H37_18 C23_18 1_555 1_555
H38_18 C23_18 1_555 1_555
H39_18 C23_18 1_555 1_555
C24_16 C22_18 1_555 1_555
H40_16 C24_16 1_555 1_555
H41_16 C24_16 1_555 1_555
H42_16 C24_16 1_555 1_555
C25_18 C22_18 1_555 1_555
H43_16 C25_18 1_555 1_555
H44_16 C25_18 1_555 1_555
H45_18 C25_18 1_555 1_555
O12_16 N1_16 1_555 1_555
N1_16 C26_12 1_555 1_555
C26_12 C27_12 1_555 1_555
C27_12 H46_12 1_555 1_555
H47_12 C27_12 1_555 1_555
H48_16 C27_12 1_555 1_555
C28_12 C26_12 1_555 1_555
H49_14 C28_12 1_555 1_555
H50_14 C28_12 1_555 1_555
H51_12 C28_12 1_555 1_555
C29_14 C26_12 1_555 1_555
C30_14 C29_14 1_555 1_555
H52_14 C30_14 1_555 1_555
H53_14 C30_14 1_555 1_555
H54_14 C30_14 1_555 1_555
C31_14 C29_14 1_555 1_555
H55_14 C31_14 1_555 1_555
H56_18 C31_14 1_555 1_555
H57_14 C31_14 1_555 1_555
N2_18 C29_14 1_555 1_555
O13_18 Mn6_9 1_555 1_555
C32_18 N1_16 1_555 1_555
C33_18 C32_18 1_555 1_555
H58_16 C33_18 1_555 1_555
H59_18 C33_18 1_555 1_555
H60_18 C33_18 1_555 1_555
O18_16 Mn5_9 1_555 1_555
Mn7_18 O12_16 1_555 1_555
Mn4_9 O8_18 1_555 1_555
O6_18 C11_18 1_555 1_555
O11_18 C21_18 1_555 1_555
N2_18 O13_18 1_555 1_555
N2_18 C32_18 1_555 1_555
Mn1_10 O2_19 1_555 1_555
Mn2_10 O3_19 1_555 1_555
Mn7_2 O1_19 1_555 1_555
O1_19 C1_19 1_555 1_555
O2_19 C1_19 1_555 1_555
O3_19 C6_19 1_555 1_555
O4_10 C6_19 1_555 1_555
C6_19 C7_19 1_555 1_555
C7_19 C8_19 1_555 1_555
C8_19 H10_19 1_555 1_555
H11_19 C8_19 1_555 1_555
H12_19 C8_19 1_555 1_555
C9_19 C7_19 1_555 1_555
H13_19 C9_19 1_555 1_555
H14_19 C9_19 1_555 1_555
H15_19 C9_19 1_555 1_555
C10_19 C7_19 1_555 1_555
H16_19 C10_19 1_555 1_555
H17_19 C10_19 1_555 1_555
H18_19 C10_19 1_555 1_555
O5_19 Mn1_10 1_555 1_555
O6_19 Mn2_10 1_555 1_555
O7_10 Mn1_10 1_555 1_555
C11_19 O5_19 1_555 1_555
C12_19 C11_19 1_555 1_555
C13_19 C12_19 1_555 1_555
H19_19 C13_19 1_555 1_555
H20_19 C13_19 1_555 1_555
H21_19 C13_19 1_555 1_555
C14_19 C12_19 1_555 1_555
H22_19 C14_19 1_555 1_555
H23_19 C14_19 1_555 1_555
H24_19 C14_19 1_555 1_555
C15_19 C12_19 1_555 1_555
H25_19 C15_19 1_555 1_555
H26_19 C15_19 1_555 1_555
H27_19 C15_19 1_555 1_555
O8_19 Mn1_10 1_555 1_555
O9_10 C16_19 1_555 1_555
C16_19 O8_19 1_555 1_555
C17_19 C16_19 1_555 1_555
C18_19 C17_19 1_555 1_555
H28_19 C18_19 1_555 1_555
H29_19 C18_19 1_555 1_555
H30_15 C18_19 1_555 1_555
C19_15 C17_19 1_555 1_555
H31_15 C19_15 1_555 1_555
H32_15 C19_15 1_555 1_555
H33_19 C19_15 1_555 1_555
C20_15 C17_19 1_555 1_555
H34_15 C20_15 1_555 1_555
H35_19 C20_15 1_555 1_555
H36_15 C20_15 1_555 1_555
O10_10 Mn2_10 1_555 1_555
O11_19 Mn7_2 1_555 1_555
C21_19 O10_10 1_555 1_555
C22_19 C21_19 1_555 1_555
C23_19 C22_19 1_555 1_555
H37_19 C23_19 1_555 1_555
H38_19 C23_19 1_555 1_555
H39_19 C23_19 1_555 1_555
C24_17 C22_19 1_555 1_555
H40_17 C24_17 1_555 1_555
H41_17 C24_17 1_555 1_555
H42_17 C24_17 1_555 1_555
C25_19 C22_19 1_555 1_555
H43_17 C25_19 1_555 1_555
H44_17 C25_19 1_555 1_555
H45_19 C25_19 1_555 1_555
C30_15 C29_15 1_555 1_555
H52_15 C30_15 1_555 1_555
H53_15 C30_15 1_555 1_555
H54_15 C30_15 1_555 1_555
C31_15 C29_15 1_555 1_555
H55_15 C31_15 1_555 1_555
H56_19 C31_15 1_555 1_555
H57_15 C31_15 1_555 1_555
N2_19 C29_15 1_555 1_555
O13_19 Mn1_10 1_555 1_555
C33_19 C32_19 1_555 1_555
H59_19 C33_19 1_555 1_555
H60_19 C33_19 1_555 1_555
O14_10 Mn1_10 1_555 1_555
Mn4_10 Mn2_10 1_555 1_555
O15_10 Mn2_10 1_555 1_555
O16_10 Mn7_2 1_555 1_555
O17_10 Mn7_2 1_555 1_555
Mn7_18 O4_10 1_555 1_555
Mn6_10 O9_10 1_555 1_555
Mn2_10 O7_10 1_555 1_555
Mn2_10 O8_19 1_555 1_555
Mn7_2 O7_10 1_555 1_555
O6_19 C11_19 1_555 1_555
O7_10 Mn4_10 1_555 1_555
O10_10 Mn7_18 1_555 1_555
O11_19 C21_19 1_555 1_555
N2_19 O13_19 1_555 1_555
N2_19 C32_19 1_555 1_555
Mn4_10 O15_10 1_555 1_555
Mn4_10 O17_10 1_555 1_555
O15_10 Mn7_18 1_555 1_555
O15_10 Mn6_10 1_555 1_555
C2_17 C3_17 1_555 1_555
C3_17 H1_17 1_555 1_555
H2_17 C3_17 1_555 1_555
H3_17 C3_17 1_555 1_555
C4_17 C2_17 1_555 1_555
H4_17 C4_17 1_555 1_555
H5_17 C4_17 1_555 1_555
H6_17 C4_17 1_555 1_555
C5_17 C2_17 1_555 1_555
H7_17 C5_17 1_555 1_555
H8_17 C5_17 1_555 1_555
H9_17 C5_17 1_555 1_555
O18 N1_17 1_555 1_555
N1_17 C26_13 1_555 1_555
C26_13 C27_13 1_555 1_555
C27_13 H46_13 1_555 1_555
H47_13 C27_13 1_555 1_555
H48_17 C27_13 1_555 1_555
C28_13 C26_13 1_555 1_555
H49_16 C28_13 1_555 1_555
H50_16 C28_13 1_555 1_555
H51_13 C28_13 1_555 1_555
Mn1_11 O2_20 1_555 1_555
Mn2_11 O3_20 1_555 1_555
Mn7_3 O1_20 1_555 1_555
O1_20 C1_20 1_555 1_555
O2_20 C1_20 1_555 1_555
O3_20 C6_20 1_555 1_555
O4_11 C6_20 1_555 1_555
C6_20 C7_20 1_555 1_555
C7_20 C8_20 1_555 1_555
C8_20 H10_20 1_555 1_555
H11_20 C8_20 1_555 1_555
H12_20 C8_20 1_555 1_555
C9_20 C7_20 1_555 1_555
H13_20 C9_20 1_555 1_555
H14_20 C9_20 1_555 1_555
H15_20 C9_20 1_555 1_555
C10_20 C7_20 1_555 1_555
H16_20 C10_20 1_555 1_555
H17_20 C10_20 1_555 1_555
H18_20 C10_20 1_555 1_555
O5_20 Mn1_11 1_555 1_555
O6_20 Mn2_11 1_555 1_555
O7_11 Mn1_11 1_555 1_555
C11_20 O5_20 1_555 1_555
C12_20 C11_20 1_555 1_555
C13_20 C12_20 1_555 1_555
H19_20 C13_20 1_555 1_555
H20_20 C13_20 1_555 1_555
H21_20 C13_20 1_555 1_555
C14_20 C12_20 1_555 1_555
H22_20 C14_20 1_555 1_555
H23_20 C14_20 1_555 1_555
H24_20 C14_20 1_555 1_555
C15_20 C12_20 1_555 1_555
H25_20 C15_20 1_555 1_555
H26_20 C15_20 1_555 1_555
H27_20 C15_20 1_555 1_555
O8_20 Mn1_11 1_555 1_555
O9_11 C16_20 1_555 1_555
C16_20 O8_20 1_555 1_555
C17_20 C16_20 1_555 1_555
C18_20 C17_20 1_555 1_555
H28_20 C18_20 1_555 1_555
H29_20 C18_20 1_555 1_555
H30_16 C18_20 1_555 1_555
C19_16 C17_20 1_555 1_555
H31_16 C19_16 1_555 1_555
H32_16 C19_16 1_555 1_555
H33_20 C19_16 1_555 1_555
C20_16 C17_20 1_555 1_555
H34_16 C20_16 1_555 1_555
H35_20 C20_16 1_555 1_555
H36_16 C20_16 1_555 1_555
O10_11 Mn2_11 1_555 1_555
O11_20 Mn7_3 1_555 1_555
C21_20 O10_11 1_555 1_555
C22_20 C21_20 1_555 1_555
C23_20 C22_20 1_555 1_555
H37_20 C23_20 1_555 1_555
H38_20 C23_20 1_555 1_555
H39_20 C23_20 1_555 1_555
C25_20 C22_20 1_555 1_555
H45_20 C25_20 1_555 1_555
C30_16 C29_16 1_555 1_555
H52_16 C30_16 1_555 1_555
H53_16 C30_16 1_555 1_555
H54_16 C30_16 1_555 1_555
C31_16 C29_16 1_555 1_555
H55_16 C31_16 1_555 1_555
H56_20 C31_16 1_555 1_555
H57_16 C31_16 1_555 1_555
N2_20 C29_16 1_555 1_555
O13_20 Mn1_11 1_555 1_555
C33_20 C32_20 1_555 1_555
H59_20 C33_20 1_555 1_555
H60_20 C33_20 1_555 1_555
O14_11 Mn1_11 1_555 1_555
Mn4_11 Mn2_11 1_555 1_555
O15_11 Mn2_11 1_555 1_555
O16_11 Mn7_3 1_555 1_555
O17_11 Mn7_3 1_555 1_555
Mn7_17 O4_11 1_555 1_555
Mn6_11 O9_11 1_555 1_555
Mn2_11 O7_11 1_555 1_555
Mn2_11 O8_20 1_555 1_555
Mn7_3 O7_11 1_555 1_555
O6_20 C11_20 1_555 1_555
O7_11 Mn4_11 1_555 1_555
O10_11 Mn7_17 1_555 1_555
O11_20 C21_20 1_555 1_555
N2_20 O13_20 1_555 1_555
N2_20 C32_20 1_555 1_555
Mn4_11 O15_11 1_555 1_555
Mn4_11 O17_11 1_555 1_555
O15_11 Mn7_17 1_555 1_555
O15_11 Mn6_11 1_555 1_555
Mn1_12 O2_21 1_555 1_555
Mn2_12 O3_21 1_555 1_555
Mn7 O1_21 1_555 1_555
O1_21 C1_21 1_555 1_555
O2_21 C1_21 1_555 1_555
O3_21 C6_21 1_555 1_555
O4_12 C6_21 1_555 1_555
C6_21 C7_21 1_555 1_555
C7_21 C8_21 1_555 1_555
C8_21 H10_21 1_555 1_555
H11_21 C8_21 1_555 1_555
H12_21 C8_21 1_555 1_555
C9_21 C7_21 1_555 1_555
H13_21 C9_21 1_555 1_555
H14_21 C9_21 1_555 1_555
H15_21 C9_21 1_555 1_555
C10_21 C7_21 1_555 1_555
H16_21 C10_21 1_555 1_555
H17_21 C10_21 1_555 1_555
H18_21 C10_21 1_555 1_555
O5_21 Mn1_12 1_555 1_555
O6_21 Mn2_12 1_555 1_555
O7_12 Mn1_12 1_555 1_555
C11_21 O5_21 1_555 1_555
C12_21 C11_21 1_555 1_555
C13_21 C12_21 1_555 1_555
H19_21 C13_21 1_555 1_555
H20_21 C13_21 1_555 1_555
H21_21 C13_21 1_555 1_555
C14_21 C12_21 1_555 1_555
H22_21 C14_21 1_555 1_555
H23_21 C14_21 1_555 1_555
H24_21 C14_21 1_555 1_555
C15_21 C12_21 1_555 1_555
H25_21 C15_21 1_555 1_555
H26_21 C15_21 1_555 1_555
H27_21 C15_21 1_555 1_555
O8_21 Mn1_12 1_555 1_555
O9_12 C16_21 1_555 1_555
C16_21 O8_21 1_555 1_555
C17_21 C16_21 1_555 1_555
C18_21 C17_21 1_555 1_555
H28_21 C18_21 1_555 1_555
H29_21 C18_21 1_555 1_555
H30_17 C18_21 1_555 1_555
C19_17 C17_21 1_555 1_555
H31_17 C19_17 1_555 1_555
H32_17 C19_17 1_555 1_555
H33_21 C19_17 1_555 1_555
C20_17 C17_21 1_555 1_555
H34_17 C20_17 1_555 1_555
H35_21 C20_17 1_555 1_555
H36_17 C20_17 1_555 1_555
O10_12 Mn2_12 1_555 1_555
O11_21 Mn7 1_555 1_555
C21_21 O10_12 1_555 1_555
C22_21 C21_21 1_555 1_555
C23_21 C22_21 1_555 1_555
H37_21 C23_21 1_555 1_555
H38_21 C23_21 1_555 1_555
H39_21 C23_21 1_555 1_555
C25_21 C22_21 1_555 1_555
H45_21 C25_21 1_555 1_555
C30_17 C29_17 1_555 1_555
H52_17 C30_17 1_555 1_555
H53_17 C30_17 1_555 1_555
H54_17 C30_17 1_555 1_555
C31_17 C29_17 1_555 1_555
H55_17 C31_17 1_555 1_555
H56_21 C31_17 1_555 1_555
H57_17 C31_17 1_555 1_555
N2_21 C29_17 1_555 1_555
O13_21 Mn1_12 1_555 1_555
C33_21 C32_21 1_555 1_555
H59_21 C33_21 1_555 1_555
H60_21 C33_21 1_555 1_555
O14_12 Mn1_12 1_555 1_555
Mn4_12 Mn2_12 1_555 1_555
O15_12 Mn2_12 1_555 1_555
O16_12 Mn7 1_555 1_555
O17_12 Mn7 1_555 1_555
Mn7_8 O4_12 1_555 1_555
Mn6_12 O9_12 1_555 1_555
Mn2_12 O7_12 1_555 1_555
Mn2_12 O8_21 1_555 1_555
Mn7 O7_12 1_555 1_555
O6_21 C11_21 1_555 1_555
O7_12 Mn4_12 1_555 1_555
O10_12 Mn7_8 1_555 1_555
O11_21 C21_21 1_555 1_555
N2_21 O13_21 1_555 1_555
N2_21 C32_21 1_555 1_555
Mn4_12 O15_12 1_555 1_555
Mn4_12 O17_12 1_555 1_555
O15_12 Mn7_8 1_555 1_555
O15_12 Mn6_12 1_555 1_555
Mn1_13 O2_22 1_555 1_555
Mn2_13 O3_22 1_555 1_555
Mn7_11 O1_22 1_555 1_555
O1_22 C1_22 1_555 1_555
O2_22 C1_22 1_555 1_555
C1_22 C2_18 1_555 1_555
C2_18 C3_18 1_555 1_555
C3_18 H1_18 1_555 1_555
H2_18 C3_18 1_555 1_555
H3_18 C3_18 1_555 1_555
C4_18 C2_18 1_555 1_555
H4_18 C4_18 1_555 1_555
H5_18 C4_18 1_555 1_555
H6_18 C4_18 1_555 1_555
C5_18 C2_18 1_555 1_555
H7_18 C5_18 1_555 1_555
H8_18 C5_18 1_555 1_555
H9_18 C5_18 1_555 1_555
O3_22 C6_22 1_555 1_555
O4_13 C6_22 1_555 1_555
C6_22 C7_22 1_555 1_555
C7_22 C8_22 1_555 1_555
C8_22 H10_22 1_555 1_555
H11_22 C8_22 1_555 1_555
H12_22 C8_22 1_555 1_555
C9_22 C7_22 1_555 1_555
H13_22 C9_22 1_555 1_555
H14_22 C9_22 1_555 1_555
H15_22 C9_22 1_555 1_555
C10_22 C7_22 1_555 1_555
H16_22 C10_22 1_555 1_555
H17_22 C10_22 1_555 1_555
H18_22 C10_22 1_555 1_555
O5_22 Mn1_13 1_555 1_555
O6_22 Mn2_13 1_555 1_555
O7_13 Mn1_13 1_555 1_555
C11_22 O5_22 1_555 1_555
C12_22 C11_22 1_555 1_555
C13_22 C12_22 1_555 1_555
H19_22 C13_22 1_555 1_555
H20_22 C13_22 1_555 1_555
H21_22 C13_22 1_555 1_555
C14_22 C12_22 1_555 1_555
H22_22 C14_22 1_555 1_555
H23_22 C14_22 1_555 1_555
H24_22 C14_22 1_555 1_555
C15_22 C12_22 1_555 1_555
H25_22 C15_22 1_555 1_555
H26_22 C15_22 1_555 1_555
H27_22 C15_22 1_555 1_555
O8_22 Mn1_13 1_555 1_555
O9_13 C16_22 1_555 1_555
C16_22 O8_22 1_555 1_555
C17_22 C16_22 1_555 1_555
C18_22 C17_22 1_555 1_555
H28_22 C18_22 1_555 1_555
H29_22 C18_22 1_555 1_555
H30_18 C18_22 1_555 1_555
C19_18 C17_22 1_555 1_555
H31_18 C19_18 1_555 1_555
H32_18 C19_18 1_555 1_555
H33_22 C19_18 1_555 1_555
C20_18 C17_22 1_555 1_555
H34_18 C20_18 1_555 1_555
H35_22 C20_18 1_555 1_555
H36_18 C20_18 1_555 1_555
O10_13 Mn2_13 1_555 1_555
O11_22 Mn7_11 1_555 1_555
C21_22 O10_13 1_555 1_555
C22_22 C21_22 1_555 1_555
C23_22 C22_22 1_555 1_555
H37_22 C23_22 1_555 1_555
H38_22 C23_22 1_555 1_555
H39_22 C23_22 1_555 1_555
C24_18 C22_22 1_555 1_555
H40_18 C24_18 1_555 1_555
H41_18 C24_18 1_555 1_555
H42_18 C24_18 1_555 1_555
C25_22 C22_22 1_555 1_555
H43_18 C25_22 1_555 1_555
H44_18 C25_22 1_555 1_555
H45_22 C25_22 1_555 1_555
O18_10 N1_18 1_555 1_555
N1_18 C26_14 1_555 1_555
C26_14 C27_14 1_555 1_555
C27_14 H46_14 1_555 1_555
H47_14 C27_14 1_555 1_555
H48_18 C27_14 1_555 1_555
C28_14 C26_14 1_555 1_555
H51_14 C28_14 1_555 1_555
C29_18 C26_14 1_555 1_555
C30_18 C29_18 1_555 1_555
H52_18 C30_18 1_555 1_555
H53_18 C30_18 1_555 1_555
H54_18 C30_18 1_555 1_555
C31_18 C29_18 1_555 1_555
H55_18 C31_18 1_555 1_555
H56_22 C31_18 1_555 1_555
H57_18 C31_18 1_555 1_555
N2_22 C29_18 1_555 1_555
O13_22 Mn1_13 1_555 1_555
C32_22 N1_18 1_555 1_555
C33_22 C32_22 1_555 1_555
H58_18 C33_22 1_555 1_555
H59_22 C33_22 1_555 1_555
H60_22 C33_22 1_555 1_555
O14_13 Mn1_13 1_555 1_555
Mn4_13 Mn2_13 1_555 1_555
O15_13 Mn2_13 1_555 1_555
O16_13 Mn7_11 1_555 1_555
O17_13 Mn7_11 1_555 1_555
Mn7_14 O4_13 1_555 1_555
Mn6_13 O9_13 1_555 1_555
Mn2_13 O7_13 1_555 1_555
Mn2_13 O8_22 1_555 1_555
Mn7_11 O7_13 1_555 1_555
O6_22 C11_22 1_555 1_555
O7_13 Mn4_13 1_555 1_555
O10_13 Mn7_14 1_555 1_555
O11_22 C21_22 1_555 1_555
N2_22 O13_22 1_555 1_555
N2_22 C32_22 1_555 1_555
Mn4_13 O15_13 1_555 1_555
Mn4_13 O17_13 1_555 1_555
O15_13 Mn7_14 1_555 1_555
O15_13 Mn6_13 1_555 1_555
Mn1_14 O2_23 1_555 1_555
Mn2_14 O3_23 1_555 1_555
Mn7_13 O1_23 1_555 1_555
O1_23 C1_23 1_555 1_555
O2_23 C1_23 1_555 1_555
C1_23 C2_19 1_555 1_555
C2_19 C3_19 1_555 1_555
C3_19 H1_19 1_555 1_555
H2_19 C3_19 1_555 1_555
H3_19 C3_19 1_555 1_555
C4_19 C2_19 1_555 1_555
H4_19 C4_19 1_555 1_555
H5_19 C4_19 1_555 1_555
H6_19 C4_19 1_555 1_555
C5_19 C2_19 1_555 1_555
H7_19 C5_19 1_555 1_555
H8_19 C5_19 1_555 1_555
H9_19 C5_19 1_555 1_555
O3_23 C6_23 1_555 1_555
O4_14 C6_23 1_555 1_555
C6_23 C7_23 1_555 1_555
C7_23 C8_23 1_555 1_555
C8_23 H10_23 1_555 1_555
H11_23 C8_23 1_555 1_555
H12_23 C8_23 1_555 1_555
C10_23 C7_23 1_555 1_555
H16_23 C10_23 1_555 1_555
H17_23 C10_23 1_555 1_555
H18_23 C10_23 1_555 1_555
O5_23 Mn1_14 1_555 1_555
O6_23 Mn2_14 1_555 1_555
O7_14 Mn1_14 1_555 1_555
C11_23 O5_23 1_555 1_555
C12_23 C11_23 1_555 1_555
C15_23 C12_23 1_555 1_555
H25_23 C15_23 1_555 1_555
H26_23 C15_23 1_555 1_555
H27_23 C15_23 1_555 1_555
O8_23 Mn1_14 1_555 1_555
O9_14 C16_23 1_555 1_555
C16_23 O8_23 1_555 1_555
C17_23 C16_23 1_555 1_555
C18_23 C17_23 1_555 1_555
H28_23 C18_23 1_555 1_555
H29_23 C18_23 1_555 1_555
H30_19 C18_23 1_555 1_555
C19_19 C17_23 1_555 1_555
H31_19 C19_19 1_555 1_555
H32_19 C19_19 1_555 1_555
H33_23 C19_19 1_555 1_555
C20_19 C17_23 1_555 1_555
H34_19 C20_19 1_555 1_555
H35_23 C20_19 1_555 1_555
H36_19 C20_19 1_555 1_555
O10_14 Mn2_14 1_555 1_555
O18_12 N1_19 1_555 1_555
N1_19 C26_15 1_555 1_555
C26_15 C27_15 1_555 1_555
C27_15 H46_15 1_555 1_555
H47_15 C27_15 1_555 1_555
H48_19 C27_15 1_555 1_555
C28_15 C26_15 1_555 1_555
H49_19 C28_15 1_555 1_555
H50_19 C28_15 1_555 1_555
H51_15 C28_15 1_555 1_555
C29_19 C26_15 1_555 1_555
C30_19 C29_19 1_555 1_555
H52_19 C30_19 1_555 1_555
H53_19 C30_19 1_555 1_555
H54_19 C30_19 1_555 1_555
C31_19 C29_19 1_555 1_555
H55_19 C31_19 1_555 1_555
H56_23 C31_19 1_555 1_555
H57_19 C31_19 1_555 1_555
N2_23 C29_19 1_555 1_555
O13_23 Mn1_14 1_555 1_555
C32_23 N1_19 1_555 1_555
C33_23 C32_23 1_555 1_555
H58_19 C33_23 1_555 1_555
H59_23 C33_23 1_555 1_555
H60_23 C33_23 1_555 1_555
O14_14 Mn1_14 1_555 1_555
Mn4_14 Mn2_14 1_555 1_555
O15_14 Mn2_14 1_555 1_555
O16_14 Mn7_13 1_555 1_555
O17_14 Mn7_13 1_555 1_555
Mn7_12 O4_14 1_555 1_555
Mn6_14 O9_14 1_555 1_555
Mn2_14 O7_14 1_555 1_555
Mn2_14 O8_23 1_555 1_555
Mn7_13 O7_14 1_555 1_555
O6_23 C11_23 1_555 1_555
O7_14 Mn4_14 1_555 1_555
O10_14 Mn7_12 1_555 1_555
N2_23 O13_23 1_555 1_555
N2_23 C32_23 1_555 1_555
Mn4_14 O15_14 1_555 1_555
Mn4_14 O17_14 1_555 1_555
O15_14 Mn7_12 1_555 1_555
O15_14 Mn6_14 1_555 1_555
H13_23 C9_23 1_555 1_555
H14_23 C9_23 1_555 1_555
H15_23 C9_23 1_555 1_555
H19_23 C13_23 1_555 1_555
H20_23 C13_23 1_555 1_555
H21_23 C13_23 1_555 1_555
H23_23 C14_23 1_555 1_555
H24_23 C14_23 1_555 1_555
C22_23 C21_23 1_555 1_555
C23_23 C22_23 1_555 1_555
H37_23 C23_23 1_555 1_555
H38_23 C23_23 1_555 1_555
H39_23 C23_23 1_555 1_555
C24_19 C22_23 1_555 1_555
H40_19 C24_19 1_555 1_555
H41_19 C24_19 1_555 1_555
H42_19 C24_19 1_555 1_555
C25_23 C22_23 1_555 1_555
H43_19 C25_23 1_555 1_555
H44_19 C25_23 1_555 1_555
H45_23 C25_23 1_555 1_555
O11_23 C21_23 1_555 1_555
Mn6_13 O2_24 1_555 1_555
Mn4_13 O3_24 1_555 1_555
Mn7_14 O1_24 1_555 1_555
O1_24 C1_24 1_555 1_555
O2_24 C1_24 1_555 1_555
C1_24 C2_20 1_555 1_555
C2_20 C3_20 1_555 1_555
C3_20 H1_20 1_555 1_555
H2_20 C3_20 1_555 1_555
H3_20 C3_20 1_555 1_555
C4_20 C2_20 1_555 1_555
H4_20 C4_20 1_555 1_555
H5_20 C4_20 1_555 1_555
H6_20 C4_20 1_555 1_555
C5_20 C2_20 1_555 1_555
H7_20 C5_20 1_555 1_555
H8_20 C5_20 1_555 1_555
H9_20 C5_20 1_555 1_555
O3_24 C6_24 1_555 1_555
O16_13 C6_24 1_555 1_555
C6_24 C7_24 1_555 1_555
C7_24 C8_24 1_555 1_555
C8_24 H10_24 1_555 1_555
H11_24 C8_24 1_555 1_555
H12_24 C8_24 1_555 1_555
C9_24 C7_24 1_555 1_555
H13_24 C9_24 1_555 1_555
H14_24 C9_24 1_555 1_555
H15_24 C9_24 1_555 1_555
C10_24 C7_24 1_555 1_555
H16_24 C10_24 1_555 1_555
H17_24 C10_24 1_555 1_555
H18_24 C10_24 1_555 1_555
O5_24 Mn6_13 1_555 1_555
O6_24 Mn4_13 1_555 1_555
C11_24 O5_24 1_555 1_555
C12_24 C11_24 1_555 1_555
C13_24 C12_24 1_555 1_555
H19_24 C13_24 1_555 1_555
H20_24 C13_24 1_555 1_555
H21_24 C13_24 1_555 1_555
C14_24 C12_24 1_555 1_555
H22_24 C14_24 1_555 1_555
H23_24 C14_24 1_555 1_555
H24_24 C14_24 1_555 1_555
C15_24 C12_24 1_555 1_555
H25_24 C15_24 1_555 1_555
H26_24 C15_24 1_555 1_555
H27_24 C15_24 1_555 1_555
O8_24 Mn6_13 1_555 1_555
O14_13 C16_24 1_555 1_555
C16_24 O8_24 1_555 1_555
C17_24 C16_24 1_555 1_555
C18_24 C17_24 1_555 1_555
H28_24 C18_24 1_555 1_555
H29_24 C18_24 1_555 1_555
O11_24 Mn7_14 1_555 1_555
C21_24 O17_13 1_555 1_555
C22_24 C21_24 1_555 1_555
C23_24 C22_24 1_555 1_555
H37_24 C23_24 1_555 1_555
H38_24 C23_24 1_555 1_555
H39_24 C23_24 1_555 1_555
C24_20 C22_24 1_555 1_555
H40_20 C24_20 1_555 1_555
H41_20 C24_20 1_555 1_555
H42_20 C24_20 1_555 1_555
C25_24 C22_24 1_555 1_555
H43_20 C25_24 1_555 1_555
H44_20 C25_24 1_555 1_555
H45_24 C25_24 1_555 1_555
O18_7 N1_20 1_555 1_555
O13_24 Mn6_13 1_555 1_555
C32_24 N1_20 1_555 1_555
C33_24 C32_24 1_555 1_555
H58_20 C33_24 1_555 1_555
H59_24 C33_24 1_555 1_555
H60_24 C33_24 1_555 1_555
Mn4_13 O8_24 1_555 1_555
O6_24 C11_24 1_555 1_555
O11_24 C21_24 1_555 1_555
N2_24 O13_24 1_555 1_555
N2_24 C32_24 1_555 1_555
H13_25 C9_25 1_555 1_555
H14_25 C9_25 1_555 1_555
H15_25 C9_25 1_555 1_555
H19_25 C13_25 1_555 1_555
H20_25 C13_25 1_555 1_555
H21_25 C13_25 1_555 1_555
H23_25 C14_25 1_555 1_555
H24_25 C14_25 1_555 1_555
C22_25 C21_25 1_555 1_555
C23_25 C22_25 1_555 1_555
H37_25 C23_25 1_555 1_555
H38_25 C23_25 1_555 1_555
H39_25 C23_25 1_555 1_555
C24_21 C22_25 1_555 1_555
H40_21 C24_21 1_555 1_555
H41_21 C24_21 1_555 1_555
H42_21 C24_21 1_555 1_555
C25_25 C22_25 1_555 1_555
H43_21 C25_25 1_555 1_555
H44_21 C25_25 1_555 1_555
H45_25 C25_25 1_555 1_555
O11_25 C21_25 1_555 1_555
Mn1_15 O2_25 1_555 1_555
Mn2_15 O3_25 1_555 1_555
Mn7_9 O1_25 1_555 1_555
O1_25 C1_25 1_555 1_555
O2_25 C1_25 1_555 1_555
C1_25 C2_21 1_555 1_555
C2_21 C3_21 1_555 1_555
C3_21 H1_21 1_555 1_555
H2_21 C3_21 1_555 1_555
H3_21 C3_21 1_555 1_555
C4_21 C2_21 1_555 1_555
H4_21 C4_21 1_555 1_555
H5_21 C4_21 1_555 1_555
H6_21 C4_21 1_555 1_555
C5_21 C2_21 1_555 1_555
H7_21 C5_21 1_555 1_555
H8_21 C5_21 1_555 1_555
H9_21 C5_21 1_555 1_555
O3_25 C6_25 1_555 1_555
O4_15 C6_25 1_555 1_555
C6_25 C7_25 1_555 1_555
C7_25 C8_25 1_555 1_555
C8_25 H10_25 1_555 1_555
H11_25 C8_25 1_555 1_555
H12_25 C8_25 1_555 1_555
C10_25 C7_25 1_555 1_555
H16_25 C10_25 1_555 1_555
H17_25 C10_25 1_555 1_555
H18_25 C10_25 1_555 1_555
O5_25 Mn1_15 1_555 1_555
O6_25 Mn2_15 1_555 1_555
O7_15 Mn1_15 1_555 1_555
C11_25 O5_25 1_555 1_555
C12_25 C11_25 1_555 1_555
C15_25 C12_25 1_555 1_555
H25_25 C15_25 1_555 1_555
H26_25 C15_25 1_555 1_555
H27_25 C15_25 1_555 1_555
O8_25 Mn1_15 1_555 1_555
O9_15 C16_25 1_555 1_555
C16_25 O8_25 1_555 1_555
C17_25 C16_25 1_555 1_555
C18_25 C17_25 1_555 1_555
H28_25 C18_25 1_555 1_555
H29_25 C18_25 1_555 1_555
O10_15 Mn2_15 1_555 1_555
O18_11 N1_21 1_555 1_555
O13_25 Mn1_15 1_555 1_555
C32_25 N1_21 1_555 1_555
C33_25 C32_25 1_555 1_555
H58_21 C33_25 1_555 1_555
H59_25 C33_25 1_555 1_555
H60_25 C33_25 1_555 1_555
O14_15 Mn1_15 1_555 1_555
Mn4_15 Mn2_15 1_555 1_555
O15_15 Mn2_15 1_555 1_555
O16_15 Mn7_9 1_555 1_555
O17_15 Mn7_9 1_555 1_555
Mn7_4 O4_15 1_555 1_555
Mn6_15 O9_15 1_555 1_555
Mn2_15 O7_15 1_555 1_555
Mn2_15 O8_25 1_555 1_555
Mn7_9 O7_15 1_555 1_555
O6_25 C11_25 1_555 1_555
O7_15 Mn4_15 1_555 1_555
O10_15 Mn7_4 1_555 1_555
N2_25 O13_25 1_555 1_555
N2_25 C32_25 1_555 1_555
Mn4_15 O15_15 1_555 1_555
Mn4_15 O17_15 1_555 1_555
O15_15 Mn7_4 1_555 1_555
O15_15 Mn6_15 1_555 1_555
C3_22 H1_22 1_555 1_555
H2_22 C3_22 1_555 1_555
H3_22 C3_22 1_555 1_555
H58_22 C33_26 1_555 1_555
H59_26 C33_26 1_555 1_555
H60_26 C33_26 1_555 1_555
O16_16 Mn7_15 1_555 1_555
O17_16 Mn7_15 1_555 1_555
Mn4_16 O15_16 1_555 1_555
Mn4_16 O17_16 1_555 1_555
O15_16 Mn6_16 1_555 1_555
Mn1_16 O2_26 1_555 1_555
Mn2_16 O3_26 1_555 1_555
O1_26 C1_26 1_555 1_555
O2_26 C1_26 1_555 1_555
C1_26 C2_22 1_555 1_555
C4_22 C2_22 1_555 1_555
H4_22 C4_22 1_555 1_555
H5_22 C4_22 1_555 1_555
H6_22 C4_22 1_555 1_555
C5_22 C2_22 1_555 1_555
H7_22 C5_22 1_555 1_555
H8_22 C5_22 1_555 1_555
H9_22 C5_22 1_555 1_555
O3_26 C6_26 1_555 1_555
O4_16 C6_26 1_555 1_555
C6_26 C7_26 1_555 1_555
C7_26 C8_26 1_555 1_555
C8_26 H10_26 1_555 1_555
H11_26 C8_26 1_555 1_555
H12_26 C8_26 1_555 1_555
C9_26 C7_26 1_555 1_555
H13_26 C9_26 1_555 1_555
H14_26 C9_26 1_555 1_555
H15_26 C9_26 1_555 1_555
C10_26 C7_26 1_555 1_555
H16_26 C10_26 1_555 1_555
H17_26 C10_26 1_555 1_555
H18_26 C10_26 1_555 1_555
O5_26 Mn1_16 1_555 1_555
O6_26 Mn2_16 1_555 1_555
O7_16 Mn1_16 1_555 1_555
C11_26 O5_26 1_555 1_555
C12_26 C11_26 1_555 1_555
C13_26 C12_26 1_555 1_555
H19_26 C13_26 1_555 1_555
H20_26 C13_26 1_555 1_555
H21_26 C13_26 1_555 1_555
C14_26 C12_26 1_555 1_555
H22_26 C14_26 1_555 1_555
H23_26 C14_26 1_555 1_555
H24_26 C14_26 1_555 1_555
C15_26 C12_26 1_555 1_555
H25_26 C15_26 1_555 1_555
H26_26 C15_26 1_555 1_555
H27_26 C15_26 1_555 1_555
O8_26 Mn1_16 1_555 1_555
O9_16 C16_26 1_555 1_555
C16_26 O8_26 1_555 1_555
C17_26 C16_26 1_555 1_555
C18_26 C17_26 1_555 1_555
H28_26 C18_26 1_555 1_555
H29_26 C18_26 1_555 1_555
H30_20 C18_26 1_555 1_555
C19_20 C17_26 1_555 1_555
H31_20 C19_20 1_555 1_555
H32_20 C19_20 1_555 1_555
H33_26 C19_20 1_555 1_555
C20_20 C17_26 1_555 1_555
H34_20 C20_20 1_555 1_555
H35_26 C20_20 1_555 1_555
H36_20 C20_20 1_555 1_555
O10_16 Mn2_16 1_555 1_555
C21_26 O10_16 1_555 1_555
C22_26 C21_26 1_555 1_555
C23_26 C22_26 1_555 1_555
H37_26 C23_26 1_555 1_555
H38_26 C23_26 1_555 1_555
H39_26 C23_26 1_555 1_555
C24_22 C22_26 1_555 1_555
H40_22 C24_22 1_555 1_555
H41_22 C24_22 1_555 1_555
H42_22 C24_22 1_555 1_555
C25_26 C22_26 1_555 1_555
H43_22 C25_26 1_555 1_555
H44_22 C25_26 1_555 1_555
H45_26 C25_26 1_555 1_555
O18_14 N1_22 1_555 1_555
N1_22 C26_16 1_555 1_555
C26_16 C27_16 1_555 1_555
C27_16 H46_16 1_555 1_555
H47_16 C27_16 1_555 1_555
H48_22 C27_16 1_555 1_555
C28_16 C26_16 1_555 1_555
H49_20 C28_16 1_555 1_555
H50_20 C28_16 1_555 1_555
H51_16 C28_16 1_555 1_555
C29_20 C26_16 1_555 1_555
C30_20 C29_20 1_555 1_555
H52_20 C30_20 1_555 1_555
H53_20 C30_20 1_555 1_555
H54_20 C30_20 1_555 1_555
C31_20 C29_20 1_555 1_555
H55_20 C31_20 1_555 1_555
H56_26 C31_20 1_555 1_555
H57_20 C31_20 1_555 1_555
N2_26 C29_20 1_555 1_555
O13_26 Mn1_16 1_555 1_555
C32_26 N1_22 1_555 1_555
Mn7_7 O4_16 1_555 1_555
Mn2_16 O7_16 1_555 1_555
Mn2_16 O8_26 1_555 1_555
O6_26 C11_26 1_555 1_555
O10_16 Mn7_7 1_555 1_555
O11_26 C21_26 1_555 1_555
N2_26 O13_26 1_555 1_555
N2_26 C32_26 1_555 1_555
C3_23 H1_23 1_555 1_555
H2_23 C3_23 1_555 1_555
H3_23 C3_23 1_555 1_555
H58_23 C33_27 1_555 1_555
H59_27 C33_27 1_555 1_555
H60_27 C33_27 1_555 1_555
O16_17 Mn7_6 1_555 1_555
O17_17 Mn7_6 1_555 1_555
Mn4_17 O15_17 1_555 1_555
Mn4_17 O17_17 1_555 1_555
O15_17 Mn6_17 1_555 1_555
Mn1_17 O2_27 1_555 1_555
Mn2_17 O3_27 1_555 1_555
O1_27 C1_27 1_555 1_555
O2_27 C1_27 1_555 1_555
C1_27 C2_23 1_555 1_555
C4_23 C2_23 1_555 1_555
H4_23 C4_23 1_555 1_555
H5_23 C4_23 1_555 1_555
H6_23 C4_23 1_555 1_555
C5_23 C2_23 1_555 1_555
H7_23 C5_23 1_555 1_555
H8_23 C5_23 1_555 1_555
H9_23 C5_23 1_555 1_555
O3_27 C6_27 1_555 1_555
O4_17 C6_27 1_555 1_555
C6_27 C7_27 1_555 1_555
C7_27 C8_27 1_555 1_555
C8_27 H10_27 1_555 1_555
H11_27 C8_27 1_555 1_555
H12_27 C8_27 1_555 1_555
C9_27 C7_27 1_555 1_555
H13_27 C9_27 1_555 1_555
H14_27 C9_27 1_555 1_555
H15_27 C9_27 1_555 1_555
C10_27 C7_27 1_555 1_555
H16_27 C10_27 1_555 1_555
H17_27 C10_27 1_555 1_555
H18_27 C10_27 1_555 1_555
O5_27 Mn1_17 1_555 1_555
O6_27 Mn2_17 1_555 1_555
O7_17 Mn1_17 1_555 1_555
C11_27 O5_27 1_555 1_555
C12_27 C11_27 1_555 1_555
C13_27 C12_27 1_555 1_555
H19_27 C13_27 1_555 1_555
H20_27 C13_27 1_555 1_555
H21_27 C13_27 1_555 1_555
C14_27 C12_27 1_555 1_555
H22_27 C14_27 1_555 1_555
H23_27 C14_27 1_555 1_555
H24_27 C14_27 1_555 1_555
C15_27 C12_27 1_555 1_555
H25_27 C15_27 1_555 1_555
H26_27 C15_27 1_555 1_555
H27_27 C15_27 1_555 1_555
O8_27 Mn1_17 1_555 1_555
O9_17 C16_27 1_555 1_555
C16_27 O8_27 1_555 1_555
C17_27 C16_27 1_555 1_555
C18_27 C17_27 1_555 1_555
H28_27 C18_27 1_555 1_555
H29_27 C18_27 1_555 1_555
H30_21 C18_27 1_555 1_555
C19_21 C17_27 1_555 1_555
H31_21 C19_21 1_555 1_555
H32_21 C19_21 1_555 1_555
H33_27 C19_21 1_555 1_555
C20_21 C17_27 1_555 1_555
H34_21 C20_21 1_555 1_555
H35_27 C20_21 1_555 1_555
H36_21 C20_21 1_555 1_555
O10_17 Mn2_17 1_555 1_555
C21_27 O10_17 1_555 1_555
C22_27 C21_27 1_555 1_555
C23_27 C22_27 1_555 1_555
H37_27 C23_27 1_555 1_555
H38_27 C23_27 1_555 1_555
H39_27 C23_27 1_555 1_555
C24_23 C22_27 1_555 1_555
H40_23 C24_23 1_555 1_555
H41_23 C24_23 1_555 1_555
H42_23 C24_23 1_555 1_555
C25_27 C22_27 1_555 1_555
H43_23 C25_27 1_555 1_555
H44_23 C25_27 1_555 1_555
H45_27 C25_27 1_555 1_555
O18_5 N1_23 1_555 1_555
N1_23 C26_17 1_555 1_555
C26_17 C27_17 1_555 1_555
C27_17 H46_17 1_555 1_555
H47_17 C27_17 1_555 1_555
H48_23 C27_17 1_555 1_555
C28_17 C26_17 1_555 1_555
H49_21 C28_17 1_555 1_555
H50_21 C28_17 1_555 1_555
H51_17 C28_17 1_555 1_555
C29_21 C26_17 1_555 1_555
C30_21 C29_21 1_555 1_555
H52_21 C30_21 1_555 1_555
H53_21 C30_21 1_555 1_555
H54_21 C30_21 1_555 1_555
C31_21 C29_21 1_555 1_555
H55_21 C31_21 1_555 1_555
H56_27 C31_21 1_555 1_555
H57_21 C31_21 1_555 1_555
N2_27 C29_21 1_555 1_555
O13_27 Mn1_17 1_555 1_555
C32_27 N1_23 1_555 1_555
Mn7_16 O4_17 1_555 1_555
Mn2_17 O7_17 1_555 1_555
Mn2_17 O8_27 1_555 1_555
O6_27 C11_27 1_555 1_555
O10_17 Mn7_16 1_555 1_555
O11_27 C21_27 1_555 1_555
N2_27 O13_27 1_555 1_555
N2_27 C32_27 1_555 1_555
Mn6_11 O2_28 1_555 1_555
Mn4_11 O3_28 1_555 1_555
Mn7_17 O1_28 1_555 1_555
O1_28 C1_28 1_555 1_555
O2_28 C1_28 1_555 1_555
C1_28 C2_24 1_555 1_555
C2_24 C3_24 1_555 1_555
C3_24 H1_24 1_555 1_555
H2_24 C3_24 1_555 1_555
H3_24 C3_24 1_555 1_555
C4_24 C2_24 1_555 1_555
H4_24 C4_24 1_555 1_555
H5_24 C4_24 1_555 1_555
H6_24 C4_24 1_555 1_555
C5_24 C2_24 1_555 1_555
H7_24 C5_24 1_555 1_555
H8_24 C5_24 1_555 1_555
H9_24 C5_24 1_555 1_555
O3_28 C6_28 1_555 1_555
O16_11 C6_28 1_555 1_555
C6_28 C7_28 1_555 1_555
C7_28 C8_28 1_555 1_555
C8_28 H10_28 1_555 1_555
H11_28 C8_28 1_555 1_555
H12_28 C8_28 1_555 1_555
C10_28 C7_28 1_555 1_555
H16_28 C10_28 1_555 1_555
H17_28 C10_28 1_555 1_555
H18_28 C10_28 1_555 1_555
O5_28 Mn6_11 1_555 1_555
O6_28 Mn4_11 1_555 1_555
C11_28 O5_28 1_555 1_555
C12_28 C11_28 1_555 1_555
C15_28 C12_28 1_555 1_555
H25_28 C15_28 1_555 1_555
H26_28 C15_28 1_555 1_555
H27_28 C15_28 1_555 1_555
O8_28 Mn6_11 1_555 1_555
O14_11 C16_28 1_555 1_555
C16_28 O8_28 1_555 1_555
C17_28 C16_28 1_555 1_555
C18_28 C17_28 1_555 1_555
H28_28 C18_28 1_555 1_555
H29_28 C18_28 1_555 1_555
H30_22 C18_28 1_555 1_555
C19_22 C17_28 1_555 1_555
H31_22 C19_22 1_555 1_555
H32_22 C19_22 1_555 1_555
H33_28 C19_22 1_555 1_555
C20_22 C17_28 1_555 1_555
H34_22 C20_22 1_555 1_555
H35_28 C20_22 1_555 1_555
H36_22 C20_22 1_555 1_555
O18_16 N1_24 1_555 1_555
N1_24 C26_18 1_555 1_555
C26_18 C27_18 1_555 1_555
C27_18 H46_18 1_555 1_555
H47_18 C27_18 1_555 1_555
H48_24 C27_18 1_555 1_555
C28_18 C26_18 1_555 1_555
H49_22 C28_18 1_555 1_555
H50_22 C28_18 1_555 1_555
H51_18 C28_18 1_555 1_555
C29_22 C26_18 1_555 1_555
C30_22 C29_22 1_555 1_555
H52_22 C30_22 1_555 1_555
H53_22 C30_22 1_555 1_555
H54_22 C30_22 1_555 1_555
C31_22 C29_22 1_555 1_555
H55_22 C31_22 1_555 1_555
H56_28 C31_22 1_555 1_555
H57_22 C31_22 1_555 1_555
N2_28 C29_22 1_555 1_555
O13_28 Mn6_11 1_555 1_555
C32_28 N1_24 1_555 1_555
C33_28 C32_28 1_555 1_555
H58_24 C33_28 1_555 1_555
H59_28 C33_28 1_555 1_555
H60_28 C33_28 1_555 1_555
Mn4_11 O8_28 1_555 1_555
O6_28 C11_28 1_555 1_555
N2_28 O13_28 1_555 1_555
N2_28 C32_28 1_555 1_555
H13_28 C9_28 1_555 1_555
H14_28 C9_28 1_555 1_555
H15_28 C9_28 1_555 1_555
H19_28 C13_28 1_555 1_555
H20_28 C13_28 1_555 1_555
H21_28 C13_28 1_555 1_555
H23_28 C14_28 1_555 1_555
H24_28 C14_28 1_555 1_555
C22_28 C21_28 1_555 1_555
C23_28 C22_28 1_555 1_555
H37_28 C23_28 1_555 1_555
H38_28 C23_28 1_555 1_555
H39_28 C23_28 1_555 1_555
C24_24 C22_28 1_555 1_555
H40_24 C24_24 1_555 1_555
H41_24 C24_24 1_555 1_555
H42_24 C24_24 1_555 1_555
C25_28 C22_28 1_555 1_555
H43_24 C25_28 1_555 1_555
H44_24 C25_28 1_555 1_555
H45_28 C25_28 1_555 1_555
O11_28 C21_28 1_555 1_555
Mn6_14 O2_29 1_555 1_555
Mn4_14 O3_29 1_555 1_555
Mn7_12 O1_29 1_555 1_555
O1_29 C1_29 1_555 1_555
O2_29 C1_29 1_555 1_555
C1_29 C2_25 1_555 1_555
C2_25 C3_25 1_555 1_555
C3_25 H1_25 1_555 1_555
H2_25 C3_25 1_555 1_555
H3_25 C3_25 1_555 1_555
C4_25 C2_25 1_555 1_555
H4_25 C4_25 1_555 1_555
H5_25 C4_25 1_555 1_555
H6_25 C4_25 1_555 1_555
C5_25 C2_25 1_555 1_555
H7_25 C5_25 1_555 1_555
H8_25 C5_25 1_555 1_555
H9_25 C5_25 1_555 1_555
O3_29 C6_29 1_555 1_555
O16_14 C6_29 1_555 1_555
C6_29 C7_29 1_555 1_555
C7_29 C8_29 1_555 1_555
C8_29 H10_29 1_555 1_555
H11_29 C8_29 1_555 1_555
H12_29 C8_29 1_555 1_555
C9_29 C7_29 1_555 1_555
H13_29 C9_29 1_555 1_555
H14_29 C9_29 1_555 1_555
H15_29 C9_29 1_555 1_555
C10_29 C7_29 1_555 1_555
H16_29 C10_29 1_555 1_555
H17_29 C10_29 1_555 1_555
H18_29 C10_29 1_555 1_555
O5_29 Mn6_14 1_555 1_555
O6_29 Mn4_14 1_555 1_555
C11_29 O5_29 1_555 1_555
C12_29 C11_29 1_555 1_555
C13_29 C12_29 1_555 1_555
H19_29 C13_29 1_555 1_555
H20_29 C13_29 1_555 1_555
H21_29 C13_29 1_555 1_555
C14_29 C12_29 1_555 1_555
H22_29 C14_29 1_555 1_555
H23_29 C14_29 1_555 1_555
H24_29 C14_29 1_555 1_555
C15_29 C12_29 1_555 1_555
H25_29 C15_29 1_555 1_555
H26_29 C15_29 1_555 1_555
H27_29 C15_29 1_555 1_555
O8_29 Mn6_14 1_555 1_555
O14_14 C16_29 1_555 1_555
C16_29 O8_29 1_555 1_555
C17_29 C16_29 1_555 1_555
C18_29 C17_29 1_555 1_555
H28_29 C18_29 1_555 1_555
H29_29 C18_29 1_555 1_555
H30_23 C18_29 1_555 1_555
C19_23 C17_29 1_555 1_555
H31_23 C19_23 1_555 1_555
H32_23 C19_23 1_555 1_555
H33_29 C19_23 1_555 1_555
C20_23 C17_29 1_555 1_555
H34_23 C20_23 1_555 1_555
H35_29 C20_23 1_555 1_555
H36_23 C20_23 1_555 1_555
O11_29 Mn7_12 1_555 1_555
C21_29 O17_14 1_555 1_555
C22_29 C21_29 1_555 1_555
C23_29 C22_29 1_555 1_555
H37_29 C23_29 1_555 1_555
H38_29 C23_29 1_555 1_555
H39_29 C23_29 1_555 1_555
C25_29 C22_29 1_555 1_555
H45_29 C25_29 1_555 1_555
O18_2 N1_25 1_555 1_555
N1_25 C26_19 1_555 1_555
C26_19 C27_19 1_555 1_555
C27_19 H46_19 1_555 1_555
H47_19 C27_19 1_555 1_555
H48_25 C27_19 1_555 1_555
C28_19 C26_19 1_555 1_555
H49_23 C28_19 1_555 1_555
H50_23 C28_19 1_555 1_555
H51_19 C28_19 1_555 1_555
C29_23 C26_19 1_555 1_555
C30_23 C29_23 1_555 1_555
H52_23 C30_23 1_555 1_555
H53_23 C30_23 1_555 1_555
H54_23 C30_23 1_555 1_555
C31_23 C29_23 1_555 1_555
H55_23 C31_23 1_555 1_555
H56_29 C31_23 1_555 1_555
H57_23 C31_23 1_555 1_555
N2_29 C29_23 1_555 1_555
O13_29 Mn6_14 1_555 1_555
C32_29 N1_25 1_555 1_555
C33_29 C32_29 1_555 1_555
H58_25 C33_29 1_555 1_555
H59_29 C33_29 1_555 1_555
H60_29 C33_29 1_555 1_555
Mn4_14 O8_29 1_555 1_555
O6_29 C11_29 1_555 1_555
O11_29 C21_29 1_555 1_555
N2_29 O13_29 1_555 1_555
N2_29 C32_29 1_555 1_555
H40_25 C24_25 1_555 1_555
H41_25 C24_25 1_555 1_555
H42_25 C24_25 1_555 1_555
H40_26 C24_26 1_555 1_555
H41_26 C24_26 1_555 1_555
H42_26 C24_26 1_555 1_555
Mn6_15 O2_30 1_555 1_555
Mn4_15 O3_30 1_555 1_555
Mn7_4 O1_30 1_555 1_555
O1_30 C1_30 1_555 1_555
O2_30 C1_30 1_555 1_555
C1_30 C2_26 1_555 1_555
C2_26 C3_26 1_555 1_555
C3_26 H1_26 1_555 1_555
H2_26 C3_26 1_555 1_555
H3_26 C3_26 1_555 1_555
C4_26 C2_26 1_555 1_555
H4_26 C4_26 1_555 1_555
H5_26 C4_26 1_555 1_555
H6_26 C4_26 1_555 1_555
C5_26 C2_26 1_555 1_555
H7_26 C5_26 1_555 1_555
H8_26 C5_26 1_555 1_555
H9_26 C5_26 1_555 1_555
O3_30 C6_30 1_555 1_555
O16_15 C6_30 1_555 1_555
C6_30 C7_30 1_555 1_555
C7_30 C8_30 1_555 1_555
C8_30 H10_30 1_555 1_555
H11_30 C8_30 1_555 1_555
H12_30 C8_30 1_555 1_555
C9_30 C7_30 1_555 1_555
H13_30 C9_30 1_555 1_555
H14_30 C9_30 1_555 1_555
H15_30 C9_30 1_555 1_555
C10_30 C7_30 1_555 1_555
H16_30 C10_30 1_555 1_555
H17_30 C10_30 1_555 1_555
H18_30 C10_30 1_555 1_555
O5_30 Mn6_15 1_555 1_555
O6_30 Mn4_15 1_555 1_555
C11_30 O5_30 1_555 1_555
C12_30 C11_30 1_555 1_555
C13_30 C12_30 1_555 1_555
H19_30 C13_30 1_555 1_555
H20_30 C13_30 1_555 1_555
H21_30 C13_30 1_555 1_555
C14_30 C12_30 1_555 1_555
H22_30 C14_30 1_555 1_555
H23_30 C14_30 1_555 1_555
H24_30 C14_30 1_555 1_555
C15_30 C12_30 1_555 1_555
H25_30 C15_30 1_555 1_555
H26_30 C15_30 1_555 1_555
H27_30 C15_30 1_555 1_555
O8_30 Mn6_15 1_555 1_555
O14_15 C16_30 1_555 1_555
C16_30 O8_30 1_555 1_555
C17_30 C16_30 1_555 1_555
C18_30 C17_30 1_555 1_555
H28_30 C18_30 1_555 1_555
H29_30 C18_30 1_555 1_555
H30_24 C18_30 1_555 1_555
C19_24 C17_30 1_555 1_555
H31_24 C19_24 1_555 1_555
H32_24 C19_24 1_555 1_555
H33_30 C19_24 1_555 1_555
C20_24 C17_30 1_555 1_555
H34_24 C20_24 1_555 1_555
H35_30 C20_24 1_555 1_555
H36_24 C20_24 1_555 1_555
O11_30 Mn7_4 1_555 1_555
C21_30 O17_15 1_555 1_555
C22_30 C21_30 1_555 1_555
C23_30 C22_30 1_555 1_555
H37_30 C23_30 1_555 1_555
H38_30 C23_30 1_555 1_555
H39_30 C23_30 1_555 1_555
C25_30 C22_30 1_555 1_555
H45_30 C25_30 1_555 1_555
O18_9 N1_26 1_555 1_555
N1_26 C26_20 1_555 1_555
C26_20 C27_20 1_555 1_555
C27_20 H46_20 1_555 1_555
H47_20 C27_20 1_555 1_555
H48_26 C27_20 1_555 1_555
C28_20 C26_20 1_555 1_555
H51_20 C28_20 1_555 1_555
C29_24 C26_20 1_555 1_555
C30_24 C29_24 1_555 1_555
H52_24 C30_24 1_555 1_555
H53_24 C30_24 1_555 1_555
H54_24 C30_24 1_555 1_555
C31_24 C29_24 1_555 1_555
H55_24 C31_24 1_555 1_555
H56_30 C31_24 1_555 1_555
H57_24 C31_24 1_555 1_555
N2_30 C29_24 1_555 1_555
O13_30 Mn6_15 1_555 1_555
C32_30 N1_26 1_555 1_555
C33_30 C32_30 1_555 1_555
H58_26 C33_30 1_555 1_555
H59_30 C33_30 1_555 1_555
H60_30 C33_30 1_555 1_555
Mn4_15 O8_30 1_555 1_555
O6_30 C11_30 1_555 1_555
O11_30 C21_30 1_555 1_555
N2_30 O13_30 1_555 1_555
N2_30 C32_30 1_555 1_555
Mn6_16 O2_31 1_555 1_555
Mn4_16 O3_31 1_555 1_555
O1_31 C1_31 1_555 1_555
O2_31 C1_31 1_555 1_555
C1_31 C2_27 1_555 1_555
C4_27 C2_27 1_555 1_555
H4_27 C4_27 1_555 1_555
H5_27 C4_27 1_555 1_555
H6_27 C4_27 1_555 1_555
C5_27 C2_27 1_555 1_555
H7_27 C5_27 1_555 1_555
H8_27 C5_27 1_555 1_555
H9_27 C5_27 1_555 1_555
O3_31 C6_31 1_555 1_555
O16_16 C6_31 1_555 1_555
C6_31 C7_31 1_555 1_555
C7_31 C8_31 1_555 1_555
C8_31 H10_31 1_555 1_555
H11_31 C8_31 1_555 1_555
H12_31 C8_31 1_555 1_555
C9_31 C7_31 1_555 1_555
H13_31 C9_31 1_555 1_555
H14_31 C9_31 1_555 1_555
H15_31 C9_31 1_555 1_555
C10_31 C7_31 1_555 1_555
H16_31 C10_31 1_555 1_555
H17_31 C10_31 1_555 1_555
H18_31 C10_31 1_555 1_555
O5_31 Mn6_16 1_555 1_555
O6_31 Mn4_16 1_555 1_555
C11_31 O5_31 1_555 1_555
C12_31 C11_31 1_555 1_555
C13_31 C12_31 1_555 1_555
H19_31 C13_31 1_555 1_555
H20_31 C13_31 1_555 1_555
H21_31 C13_31 1_555 1_555
C14_31 C12_31 1_555 1_555
H22_31 C14_31 1_555 1_555
H23_31 C14_31 1_555 1_555
H24_31 C14_31 1_555 1_555
C15_31 C12_31 1_555 1_555
H25_31 C15_31 1_555 1_555
H26_31 C15_31 1_555 1_555
H27_31 C15_31 1_555 1_555
O8_31 Mn6_16 1_555 1_555
O14_16 C16_31 1_555 1_555
C16_31 O8_31 1_555 1_555
C17_31 C16_31 1_555 1_555
C18_31 C17_31 1_555 1_555
H28_31 C18_31 1_555 1_555
H29_31 C18_31 1_555 1_555
H30_25 C18_31 1_555 1_555
C19_25 C17_31 1_555 1_555
H31_25 C19_25 1_555 1_555
H32_25 C19_25 1_555 1_555
H33_31 C19_25 1_555 1_555
C20_25 C17_31 1_555 1_555
H34_25 C20_25 1_555 1_555
H35_31 C20_25 1_555 1_555
H36_25 C20_25 1_555 1_555
C21_31 O17_16 1_555 1_555
C22_31 C21_31 1_555 1_555
C23_31 C22_31 1_555 1_555
H37_31 C23_31 1_555 1_555
H38_31 C23_31 1_555 1_555
H39_31 C23_31 1_555 1_555
C24_27 C22_31 1_555 1_555
H40_27 C24_27 1_555 1_555
H41_27 C24_27 1_555 1_555
H42_27 C24_27 1_555 1_555
C25_31 C22_31 1_555 1_555
H43_27 C25_31 1_555 1_555
H44_27 C25_31 1_555 1_555
H45_31 C25_31 1_555 1_555
O18_3 N1_27 1_555 1_555
N1_27 C26_21 1_555 1_555
C26_21 C27_21 1_555 1_555
C27_21 H46_21 1_555 1_555
H47_21 C27_21 1_555 1_555
H48_27 C27_21 1_555 1_555
C28_21 C26_21 1_555 1_555
H49_25 C28_21 1_555 1_555
H50_25 C28_21 1_555 1_555
H51_21 C28_21 1_555 1_555
C29_25 C26_21 1_555 1_555
C30_25 C29_25 1_555 1_555
H52_25 C30_25 1_555 1_555
H53_25 C30_25 1_555 1_555
H54_25 C30_25 1_555 1_555
C31_25 C29_25 1_555 1_555
H55_25 C31_25 1_555 1_555
H56_31 C31_25 1_555 1_555
H57_25 C31_25 1_555 1_555
N2_31 C29_25 1_555 1_555
O13_31 Mn6_16 1_555 1_555
C32_31 N1_27 1_555 1_555
Mn4_16 O8_31 1_555 1_555
O6_31 C11_31 1_555 1_555
O11_31 C21_31 1_555 1_555
N2_31 O13_31 1_555 1_555
N2_31 C32_31 1_555 1_555
C3_27 H1_27 1_555 1_555
H2_27 C3_27 1_555 1_555
H3_27 C3_27 1_555 1_555
H58_27 C33_31 1_555 1_555
H59_31 C33_31 1_555 1_555
H60_31 C33_31 1_555 1_555
Mn1_18 O2_32 1_555 1_555
Mn2_18 O3_32 1_555 1_555
Mn7_5 O1_32 1_555 1_555
O1_32 C1_32 1_555 1_555
O2_32 C1_32 1_555 1_555
C1_32 C2_28 1_555 1_555
C2_28 C3_28 1_555 1_555
C3_28 H1_28 1_555 1_555
H2_28 C3_28 1_555 1_555
H3_28 C3_28 1_555 1_555
C4_28 C2_28 1_555 1_555
H4_28 C4_28 1_555 1_555
H5_28 C4_28 1_555 1_555
H6_28 C4_28 1_555 1_555
C5_28 C2_28 1_555 1_555
H7_28 C5_28 1_555 1_555
H8_28 C5_28 1_555 1_555
H9_28 C5_28 1_555 1_555
O3_32 C6_32 1_555 1_555
O4_18 C6_32 1_555 1_555
C6_32 C7_32 1_555 1_555
C7_32 C8_32 1_555 1_555
C8_32 H10_32 1_555 1_555
H11_32 C8_32 1_555 1_555
H12_32 C8_32 1_555 1_555
C9_32 C7_32 1_555 1_555
H13_32 C9_32 1_555 1_555
H14_32 C9_32 1_555 1_555
H15_32 C9_32 1_555 1_555
C10_32 C7_32 1_555 1_555
H16_32 C10_32 1_555 1_555
H17_32 C10_32 1_555 1_555
H18_32 C10_32 1_555 1_555
O5_32 Mn1_18 1_555 1_555
O6_32 Mn2_18 1_555 1_555
O7_18 Mn1_18 1_555 1_555
C11_32 O5_32 1_555 1_555
C12_32 C11_32 1_555 1_555
C13_32 C12_32 1_555 1_555
H19_32 C13_32 1_555 1_555
H20_32 C13_32 1_555 1_555
H21_32 C13_32 1_555 1_555
C14_32 C12_32 1_555 1_555
H22_32 C14_32 1_555 1_555
H23_32 C14_32 1_555 1_555
H24_32 C14_32 1_555 1_555
C15_32 C12_32 1_555 1_555
H25_32 C15_32 1_555 1_555
H26_32 C15_32 1_555 1_555
H27_32 C15_32 1_555 1_555
O8_32 Mn1_18 1_555 1_555
O9_18 C16_32 1_555 1_555
C16_32 O8_32 1_555 1_555
C17_32 C16_32 1_555 1_555
C18_32 C17_32 1_555 1_555
H28_32 C18_32 1_555 1_555
H29_32 C18_32 1_555 1_555
H30_26 C18_32 1_555 1_555
C19_26 C17_32 1_555 1_555
H31_26 C19_26 1_555 1_555
H32_26 C19_26 1_555 1_555
H33_32 C19_26 1_555 1_555
C20_26 C17_32 1_555 1_555
H34_26 C20_26 1_555 1_555
H35_32 C20_26 1_555 1_555
H36_26 C20_26 1_555 1_555
O10_18 Mn2_18 1_555 1_555
O11_32 Mn7_5 1_555 1_555
C21_32 O10_18 1_555 1_555
C22_32 C21_32 1_555 1_555
C23_32 C22_32 1_555 1_555
H37_32 C23_32 1_555 1_555
H38_32 C23_32 1_555 1_555
H39_32 C23_32 1_555 1_555
C24_28 C22_32 1_555 1_555
H40_28 C24_28 1_555 1_555
H41_28 C24_28 1_555 1_555
H42_28 C24_28 1_555 1_555
C25_32 C22_32 1_555 1_555
H43_28 C25_32 1_555 1_555
H44_28 C25_32 1_555 1_555
H45_32 C25_32 1_555 1_555
O18_4 N1_28 1_555 1_555
N1_28 C26_22 1_555 1_555
C26_22 C27_22 1_555 1_555
C27_22 H46_22 1_555 1_555
H47_22 C27_22 1_555 1_555
H48_28 C27_22 1_555 1_555
C28_22 C26_22 1_555 1_555
H49_26 C28_22 1_555 1_555
H50_26 C28_22 1_555 1_555
H51_22 C28_22 1_555 1_555
C29_26 C26_22 1_555 1_555
C30_26 C29_26 1_555 1_555
H52_26 C30_26 1_555 1_555
H53_26 C30_26 1_555 1_555
H54_26 C30_26 1_555 1_555
C31_26 C29_26 1_555 1_555
H55_26 C31_26 1_555 1_555
H56_32 C31_26 1_555 1_555
H57_26 C31_26 1_555 1_555
N2_32 C29_26 1_555 1_555
O13_32 Mn1_18 1_555 1_555
C32_32 N1_28 1_555 1_555
C33_32 C32_32 1_555 1_555
H58_28 C33_32 1_555 1_555
H59_32 C33_32 1_555 1_555
H60_32 C33_32 1_555 1_555
O14_18 Mn1_18 1_555 1_555
Mn4_18 Mn2_18 1_555 1_555
O15_18 Mn2_18 1_555 1_555
O16_18 Mn7_5 1_555 1_555
O17_18 Mn7_5 1_555 1_555
Mn7_10 O4_18 1_555 1_555
Mn6_18 O9_18 1_555 1_555
Mn2_18 O7_18 1_555 1_555
Mn2_18 O8_32 1_555 1_555
Mn7_5 O7_18 1_555 1_555
O6_32 C11_32 1_555 1_555
O7_18 Mn4_18 1_555 1_555
O10_18 Mn7_10 1_555 1_555
O11_32 C21_32 1_555 1_555
N2_32 O13_32 1_555 1_555
N2_32 C32_32 1_555 1_555
Mn4_18 O15_18 1_555 1_555
Mn4_18 O17_18 1_555 1_555
O15_18 Mn7_10 1_555 1_555
O15_18 Mn6_18 1_555 1_555
Mn6_10 O2_33 1_555 1_555
Mn4_10 O3_33 1_555 1_555
Mn7_18 O1_33 1_555 1_555
O1_33 C1_33 1_555 1_555
O2_33 C1_33 1_555 1_555
C1_33 C2_29 1_555 1_555
C2_29 C3_29 1_555 1_555
C3_29 H1_29 1_555 1_555
H2_29 C3_29 1_555 1_555
H3_29 C3_29 1_555 1_555
C4_29 C2_29 1_555 1_555
H4_29 C4_29 1_555 1_555
H5_29 C4_29 1_555 1_555
H6_29 C4_29 1_555 1_555
C5_29 C2_29 1_555 1_555
H7_29 C5_29 1_555 1_555
H8_29 C5_29 1_555 1_555
H9_29 C5_29 1_555 1_555
O3_33 C6_33 1_555 1_555
O16_10 C6_33 1_555 1_555
C6_33 C7_33 1_555 1_555
C7_33 C8_33 1_555 1_555
C8_33 H10_33 1_555 1_555
H11_33 C8_33 1_555 1_555
H12_33 C8_33 1_555 1_555
C9_33 C7_33 1_555 1_555
H13_33 C9_33 1_555 1_555
H14_33 C9_33 1_555 1_555
H15_33 C9_33 1_555 1_555
C10_33 C7_33 1_555 1_555
H16_33 C10_33 1_555 1_555
H17_33 C10_33 1_555 1_555
H18_33 C10_33 1_555 1_555
O5_33 Mn6_10 1_555 1_555
O6_33 Mn4_10 1_555 1_555
C11_33 O5_33 1_555 1_555
C12_33 C11_33 1_555 1_555
C13_33 C12_33 1_555 1_555
H19_33 C13_33 1_555 1_555
H20_33 C13_33 1_555 1_555
H21_33 C13_33 1_555 1_555
C14_33 C12_33 1_555 1_555
H22_33 C14_33 1_555 1_555
H23_33 C14_33 1_555 1_555
H24_33 C14_33 1_555 1_555
C15_33 C12_33 1_555 1_555
H25_33 C15_33 1_555 1_555
H26_33 C15_33 1_555 1_555
H27_33 C15_33 1_555 1_555
O8_33 Mn6_10 1_555 1_555
O14_10 C16_33 1_555 1_555
C16_33 O8_33 1_555 1_555
C17_33 C16_33 1_555 1_555
C18_33 C17_33 1_555 1_555
H28_33 C18_33 1_555 1_555
H29_33 C18_33 1_555 1_555
O11_33 Mn7_18 1_555 1_555
C21_33 O17_10 1_555 1_555
C22_33 C21_33 1_555 1_555
C23_33 C22_33 1_555 1_555
H37_33 C23_33 1_555 1_555
H38_33 C23_33 1_555 1_555
H39_33 C23_33 1_555 1_555
C24_29 C22_33 1_555 1_555
H40_29 C24_29 1_555 1_555
H41_29 C24_29 1_555 1_555
H42_29 C24_29 1_555 1_555
C25_33 C22_33 1_555 1_555
H43_29 C25_33 1_555 1_555
H44_29 C25_33 1_555 1_555
H45_33 C25_33 1_555 1_555
O18_6 N1_29 1_555 1_555
O13_33 Mn6_10 1_555 1_555
C32_33 N1_29 1_555 1_555
C33_33 C32_33 1_555 1_555
H58_29 C33_33 1_555 1_555
H59_33 C33_33 1_555 1_555
H60_33 C33_33 1_555 1_555
Mn4_10 O8_33 1_555 1_555
O6_33 C11_33 1_555 1_555
O11_33 C21_33 1_555 1_555
N2_33 O13_33 1_555 1_555
N2_33 C32_33 1_555 1_555
H13_34 C9_34 1_555 1_555
H14_34 C9_34 1_555 1_555
H15_34 C9_34 1_555 1_555
H19_34 C13_34 1_555 1_555
H20_34 C13_34 1_555 1_555
H21_34 C13_34 1_555 1_555
H23_34 C14_34 1_555 1_555
H24_34 C14_34 1_555 1_555
C22_34 C21_34 1_555 1_555
C23_34 C22_34 1_555 1_555
H37_34 C23_34 1_555 1_555
H38_34 C23_34 1_555 1_555
H39_34 C23_34 1_555 1_555
C24_30 C22_34 1_555 1_555
H40_30 C24_30 1_555 1_555
H41_30 C24_30 1_555 1_555
H42_30 C24_30 1_555 1_555
C25_34 C22_34 1_555 1_555
H43_30 C25_34 1_555 1_555
H44_30 C25_34 1_555 1_555
H45_34 C25_34 1_555 1_555
O11_34 C21_34 1_555 1_555
Mn6_12 O2_34 1_555 1_555
Mn4_12 O3_34 1_555 1_555
Mn7_8 O1_34 1_555 1_555
O1_34 C1_34 1_555 1_555
O2_34 C1_34 1_555 1_555
C1_34 C2_30 1_555 1_555
C2_30 C3_30 1_555 1_555
C3_30 H1_30 1_555 1_555
H2_30 C3_30 1_555 1_555
H3_30 C3_30 1_555 1_555
C4_30 C2_30 1_555 1_555
H4_30 C4_30 1_555 1_555
H5_30 C4_30 1_555 1_555
H6_30 C4_30 1_555 1_555
C5_30 C2_30 1_555 1_555
H7_30 C5_30 1_555 1_555
H8_30 C5_30 1_555 1_555
H9_30 C5_30 1_555 1_555
O3_34 C6_34 1_555 1_555
O16_12 C6_34 1_555 1_555
C6_34 C7_34 1_555 1_555
C7_34 C8_34 1_555 1_555
C8_34 H10_34 1_555 1_555
H11_34 C8_34 1_555 1_555
H12_34 C8_34 1_555 1_555
C10_34 C7_34 1_555 1_555
H16_34 C10_34 1_555 1_555
H17_34 C10_34 1_555 1_555
H18_34 C10_34 1_555 1_555
O5_34 Mn6_12 1_555 1_555
O6_34 Mn4_12 1_555 1_555
C11_34 O5_34 1_555 1_555
C12_34 C11_34 1_555 1_555
C15_34 C12_34 1_555 1_555
H25_34 C15_34 1_555 1_555
H26_34 C15_34 1_555 1_555
H27_34 C15_34 1_555 1_555
O8_34 Mn6_12 1_555 1_555
O14_12 C16_34 1_555 1_555
C16_34 O8_34 1_555 1_555
C17_34 C16_34 1_555 1_555
C18_34 C17_34 1_555 1_555
H28_34 C18_34 1_555 1_555
H29_34 C18_34 1_555 1_555
O18_15 N1_30 1_555 1_555
O13_34 Mn6_12 1_555 1_555
C32_34 N1_30 1_555 1_555
C33_34 C32_34 1_555 1_555
H58_30 C33_34 1_555 1_555
H59_34 C33_34 1_555 1_555
H60_34 C33_34 1_555 1_555
Mn4_12 O8_34 1_555 1_555
O6_34 C11_34 1_555 1_555
N2_34 O13_34 1_555 1_555
N2_34 C32_34 1_555 1_555
Mn6_17 O2_35 1_555 1_555
Mn4_17 O3_35 1_555 1_555
O1_35 C1_35 1_555 1_555
O2_35 C1_35 1_555 1_555
C1_35 C2_31 1_555 1_555
C4_31 C2_31 1_555 1_555
H4_31 C4_31 1_555 1_555
H5_31 C4_31 1_555 1_555
H6_31 C4_31 1_555 1_555
C5_31 C2_31 1_555 1_555
H7_31 C5_31 1_555 1_555
H8_31 C5_31 1_555 1_555
H9_31 C5_31 1_555 1_555
O3_35 C6_35 1_555 1_555
O16_17 C6_35 1_555 1_555
C6_35 C7_35 1_555 1_555
C7_35 C8_35 1_555 1_555
C8_35 H10_35 1_555 1_555
H11_35 C8_35 1_555 1_555
H12_35 C8_35 1_555 1_555
C9_35 C7_35 1_555 1_555
H13_35 C9_35 1_555 1_555
H14_35 C9_35 1_555 1_555
H15_35 C9_35 1_555 1_555
C10_35 C7_35 1_555 1_555
H16_35 C10_35 1_555 1_555
H17_35 C10_35 1_555 1_555
H18_35 C10_35 1_555 1_555
O5_35 Mn6_17 1_555 1_555
O6_35 Mn4_17 1_555 1_555
C11_35 O5_35 1_555 1_555
C12_35 C11_35 1_555 1_555
C13_35 C12_35 1_555 1_555
H19_35 C13_35 1_555 1_555
H20_35 C13_35 1_555 1_555
H21_35 C13_35 1_555 1_555
C14_35 C12_35 1_555 1_555
H22_35 C14_35 1_555 1_555
H23_35 C14_35 1_555 1_555
H24_35 C14_35 1_555 1_555
C15_35 C12_35 1_555 1_555
H25_35 C15_35 1_555 1_555
H26_35 C15_35 1_555 1_555
H27_35 C15_35 1_555 1_555
O8_35 Mn6_17 1_555 1_555
O14_17 C16_35 1_555 1_555
C16_35 O8_35 1_555 1_555
C17_35 C16_35 1_555 1_555
C18_35 C17_35 1_555 1_555
H28_35 C18_35 1_555 1_555
H29_35 C18_35 1_555 1_555
H30_27 C18_35 1_555 1_555
C19_27 C17_35 1_555 1_555
H31_27 C19_27 1_555 1_555
H32_27 C19_27 1_555 1_555
H33_35 C19_27 1_555 1_555
C20_27 C17_35 1_555 1_555
H34_27 C20_27 1_555 1_555
H35_35 C20_27 1_555 1_555
H36_27 C20_27 1_555 1_555
C21_35 O17_17 1_555 1_555
C22_35 C21_35 1_555 1_555
C23_35 C22_35 1_555 1_555
H37_35 C23_35 1_555 1_555
H38_35 C23_35 1_555 1_555
H39_35 C23_35 1_555 1_555
C24_31 C22_35 1_555 1_555
H40_31 C24_31 1_555 1_555
H41_31 C24_31 1_555 1_555
H42_31 C24_31 1_555 1_555
C25_35 C22_35 1_555 1_555
H43_31 C25_35 1_555 1_555
H44_31 C25_35 1_555 1_555
H45_35 C25_35 1_555 1_555
O18_8 N1_31 1_555 1_555
N1_31 C26_23 1_555 1_555
C26_23 C27_23 1_555 1_555
C27_23 H46_23 1_555 1_555
H47_23 C27_23 1_555 1_555
H48_31 C27_23 1_555 1_555
C28_23 C26_23 1_555 1_555
H49_27 C28_23 1_555 1_555
H50_27 C28_23 1_555 1_555
H51_23 C28_23 1_555 1_555
C29_27 C26_23 1_555 1_555
C30_27 C29_27 1_555 1_555
H52_27 C30_27 1_555 1_555
H53_27 C30_27 1_555 1_555
H54_27 C30_27 1_555 1_555
C31_27 C29_27 1_555 1_555
H55_27 C31_27 1_555 1_555
H56_35 C31_27 1_555 1_555
H57_27 C31_27 1_555 1_555
N2_35 C29_27 1_555 1_555
O13_35 Mn6_17 1_555 1_555
C32_35 N1_31 1_555 1_555
Mn4_17 O8_35 1_555 1_555
O6_35 C11_35 1_555 1_555
O11_35 C21_35 1_555 1_555
N2_35 O13_35 1_555 1_555
N2_35 C32_35 1_555 1_555
C3_31 H1_31 1_555 1_555
H2_31 C3_31 1_555 1_555
H3_31 C3_31 1_555 1_555
H58_31 C33_35 1_555 1_555
H59_35 C33_35 1_555 1_555
H60_35 C33_35 1_555 1_555
Mn6_18 O2_36 1_555 1_555
Mn4_18 O3_36 1_555 1_555
Mn7_10 O1_36 1_555 1_555
O1_36 C1_36 1_555 1_555
O2_36 C1_36 1_555 1_555
C1_36 C2_32 1_555 1_555
C2_32 C3_32 1_555 1_555
C3_32 H1_32 1_555 1_555
H2_32 C3_32 1_555 1_555
H3_32 C3_32 1_555 1_555
C4_32 C2_32 1_555 1_555
H4_32 C4_32 1_555 1_555
H5_32 C4_32 1_555 1_555
H6_32 C4_32 1_555 1_555
C5_32 C2_32 1_555 1_555
H7_32 C5_32 1_555 1_555
H8_32 C5_32 1_555 1_555
H9_32 C5_32 1_555 1_555
O3_36 C6_36 1_555 1_555
O16_18 C6_36 1_555 1_555
C6_36 C7_36 1_555 1_555
C7_36 C8_36 1_555 1_555
C8_36 H10_36 1_555 1_555
H11_36 C8_36 1_555 1_555
H12_36 C8_36 1_555 1_555
C9_36 C7_36 1_555 1_555
H13_36 C9_36 1_555 1_555
H14_36 C9_36 1_555 1_555
H15_36 C9_36 1_555 1_555
C10_36 C7_36 1_555 1_555
H16_36 C10_36 1_555 1_555
H17_36 C10_36 1_555 1_555
H18_36 C10_36 1_555 1_555
O5_36 Mn6_18 1_555 1_555
O6_36 Mn4_18 1_555 1_555
C11_36 O5_36 1_555 1_555
C12_36 C11_36 1_555 1_555
C13_36 C12_36 1_555 1_555
H19_36 C13_36 1_555 1_555
H20_36 C13_36 1_555 1_555
H21_36 C13_36 1_555 1_555
C14_36 C12_36 1_555 1_555
H22_36 C14_36 1_555 1_555
H23_36 C14_36 1_555 1_555
H24_36 C14_36 1_555 1_555
C15_36 C12_36 1_555 1_555
H25_36 C15_36 1_555 1_555
H26_36 C15_36 1_555 1_555
H27_36 C15_36 1_555 1_555
O8_36 Mn6_18 1_555 1_555
O14_18 C16_36 1_555 1_555
C16_36 O8_36 1_555 1_555
C17_36 C16_36 1_555 1_555
C18_36 C17_36 1_555 1_555
H28_36 C18_36 1_555 1_555
H29_36 C18_36 1_555 1_555
H30_28 C18_36 1_555 1_555
C19_28 C17_36 1_555 1_555
H31_28 C19_28 1_555 1_555
H32_28 C19_28 1_555 1_555
H33_36 C19_28 1_555 1_555
C20_28 C17_36 1_555 1_555
H34_28 C20_28 1_555 1_555
H35_36 C20_28 1_555 1_555
H36_28 C20_28 1_555 1_555
O11_36 Mn7_10 1_555 1_555
C21_36 O17_18 1_555 1_555
C22_36 C21_36 1_555 1_555
C23_36 C22_36 1_555 1_555
H37_36 C23_36 1_555 1_555
H38_36 C23_36 1_555 1_555
H39_36 C23_36 1_555 1_555
C24_32 C22_36 1_555 1_555
H40_32 C24_32 1_555 1_555
H41_32 C24_32 1_555 1_555
H42_32 C24_32 1_555 1_555
C25_36 C22_36 1_555 1_555
H43_32 C25_36 1_555 1_555
H44_32 C25_36 1_555 1_555
H45_36 C25_36 1_555 1_555
O18_13 N1_32 1_555 1_555
N1_32 C26_24 1_555 1_555
C26_24 C27_24 1_555 1_555
C27_24 H46_24 1_555 1_555
H47_24 C27_24 1_555 1_555
H48_32 C27_24 1_555 1_555
C28_24 C26_24 1_555 1_555
H49_28 C28_24 1_555 1_555
H50_28 C28_24 1_555 1_555
H51_24 C28_24 1_555 1_555
C29_28 C26_24 1_555 1_555
C30_28 C29_28 1_555 1_555
H52_28 C30_28 1_555 1_555
H53_28 C30_28 1_555 1_555
H54_28 C30_28 1_555 1_555
C31_28 C29_28 1_555 1_555
H55_28 C31_28 1_555 1_555
H56_36 C31_28 1_555 1_555
H57_28 C31_28 1_555 1_555
N2_36 C29_28 1_555 1_555
O13_36 Mn6_18 1_555 1_555
C32_36 N1_32 1_555 1_555
C33_36 C32_36 1_555 1_555
H58_32 C33_36 1_555 1_555
H59_36 C33_36 1_555 1_555
H60_36 C33_36 1_555 1_555
Mn4_18 O8_36 1_555 1_555
O6_36 C11_36 1_555 1_555
O11_36 C21_36 1_555 1_555
N2_36 O13_36 1_555 1_555
N2_36 C32_36 1_555 1_555
C2_33 C3_33 1_555 1_555
C3_33 H1_33 1_555 1_555
H2_33 C3_33 1_555 1_555
H3_33 C3_33 1_555 1_555
C4_33 C2_33 1_555 1_555
H4_33 C4_33 1_555 1_555
H5_33 C4_33 1_555 1_555
H6_33 C4_33 1_555 1_555
C5_33 C2_33 1_555 1_555
H7_33 C5_33 1_555 1_555
H8_33 C5_33 1_555 1_555
H9_33 C5_33 1_555 1_555
O12_17 N1_33 1_555 1_555
N1_33 C26_25 1_555 1_555
C26_25 C27_25 1_555 1_555
C27_25 H46_25 1_555 1_555
H47_25 C27_25 1_555 1_555
H48_33 C27_25 1_555 1_555
C28_25 C26_25 1_555 1_555
H51_25 C28_25 1_555 1_555
H40_33 C24_33 1_555 1_555
H41_33 C24_33 1_555 1_555
H42_33 C24_33 1_555 1_555
H40_34 C24_34 1_555 1_555
H41_34 C24_34 1_555 1_555
H42_34 C24_34 1_555 1_555
C2_34 C3_34 1_555 1_555
C3_34 H1_34 1_555 1_555
H2_34 C3_34 1_555 1_555
H3_34 C3_34 1_555 1_555
C4_34 C2_34 1_555 1_555
H4_34 C4_34 1_555 1_555
H5_34 C4_34 1_555 1_555
H6_34 C4_34 1_555 1_555
C5_34 C2_34 1_555 1_555
H7_34 C5_34 1_555 1_555
H8_34 C5_34 1_555 1_555
H9_34 C5_34 1_555 1_555
O18_17 N1_34 1_555 1_555
N1_34 C26_26 1_555 1_555
C26_26 C27_26 1_555 1_555
C27_26 H46_26 1_555 1_555
H47_26 C27_26 1_555 1_555
H48_34 C27_26 1_555 1_555
C28_26 C26_26 1_555 1_555
H51_26 C28_26 1_555 1_555
C2_35 C3_35 1_555 1_555
C3_35 H1_35 1_555 1_555
H2_35 C3_35 1_555 1_555
H3_35 C3_35 1_555 1_555
C4_35 C2_35 1_555 1_555
H4_35 C4_35 1_555 1_555
H5_35 C4_35 1_555 1_555
H6_35 C4_35 1_555 1_555
C5_35 C2_35 1_555 1_555
H7_35 C5_35 1_555 1_555
H8_35 C5_35 1_555 1_555
H9_35 C5_35 1_555 1_555
O12_18 N1_35 1_555 1_555
N1_35 C26_27 1_555 1_555
C26_27 C27_27 1_555 1_555
C27_27 H46_27 1_555 1_555
H47_27 C27_27 1_555 1_555
H48_35 C27_27 1_555 1_555
C28_27 C26_27 1_555 1_555
H51_27 C28_27 1_555 1_555
H40_35 C24_35 1_555 1_555
H41_35 C24_35 1_555 1_555
H42_35 C24_35 1_555 1_555
H40_36 C24_36 1_555 1_555
H41_36 C24_36 1_555 1_555
H42_36 C24_36 1_555 1_555
C2_36 C3_36 1_555 1_555
C3_36 H1_36 1_555 1_555
H2_36 C3_36 1_555 1_555
H3_36 C3_36 1_555 1_555
C4_36 C2_36 1_555 1_555
H4_36 C4_36 1_555 1_555
H5_36 C4_36 1_555 1_555
H6_36 C4_36 1_555 1_555
C5_36 C2_36 1_555 1_555
H7_36 C5_36 1_555 1_555
H8_36 C5_36 1_555 1_555
H9_36 C5_36 1_555 1_555
O18_18 N1_36 1_555 1_555
N1_36 C26_28 1_555 1_555
C26_28 C27_28 1_555 1_555
C27_28 H46_28 1_555 1_555
H47_28 C27_28 1_555 1_555
H48_36 C27_28 1_555 1_555
C28_28 C26_28 1_555 1_555
H51_28 C28_28 1_555 1_555
H31_29 C19_29 1_555 1_555
H32_29 C19_29 1_555 1_555
H34_29 C20_29 1_555 1_555
H36_29 C20_29 1_555 1_555
C26_29 C27_29 1_555 1_555
C27_29 H46_29 1_555 1_555
H47_29 C27_29 1_555 1_555
C28_29 C26_29 1_555 1_555
H49_29 C28_29 1_555 1_555
H50_29 C28_29 1_555 1_555
H51_29 C28_29 1_555 1_555
C29_29 C26_29 1_555 1_555
C30_29 C29_29 1_555 1_555
H52_29 C30_29 1_555 1_555
H53_29 C30_29 1_555 1_555
H54_29 C30_29 1_555 1_555
C31_29 C29_29 1_555 1_555
H55_29 C31_29 1_555 1_555
H57_29 C31_29 1_555 1_555
H31_30 C19_30 1_555 1_555
H32_30 C19_30 1_555 1_555
H34_30 C20_30 1_555 1_555
H36_30 C20_30 1_555 1_555
C26_30 C27_30 1_555 1_555
C27_30 H46_30 1_555 1_555
H47_30 C27_30 1_555 1_555
C28_30 C26_30 1_555 1_555
H49_30 C28_30 1_555 1_555
H50_30 C28_30 1_555 1_555
H51_30 C28_30 1_555 1_555
C29_30 C26_30 1_555 1_555
C30_30 C29_30 1_555 1_555
H52_30 C30_30 1_555 1_555
H53_30 C30_30 1_555 1_555
H54_30 C30_30 1_555 1_555
C31_30 C29_30 1_555 1_555
H55_30 C31_30 1_555 1_555
H57_30 C31_30 1_555 1_555
H31_31 C19_31 1_555 1_555
H32_31 C19_31 1_555 1_555
H34_31 C20_31 1_555 1_555
H36_31 C20_31 1_555 1_555
C26_31 C27_31 1_555 1_555
C27_31 H46_31 1_555 1_555
H47_31 C27_31 1_555 1_555
C28_31 C26_31 1_555 1_555
H49_31 C28_31 1_555 1_555
H50_31 C28_31 1_555 1_555
H51_31 C28_31 1_555 1_555
C29_31 C26_31 1_555 1_555
C30_31 C29_31 1_555 1_555
H52_31 C30_31 1_555 1_555
H53_31 C30_31 1_555 1_555
H54_31 C30_31 1_555 1_555
C31_31 C29_31 1_555 1_555
H55_31 C31_31 1_555 1_555
H57_31 C31_31 1_555 1_555
H31_32 C19_32 1_555 1_555
H32_32 C19_32 1_555 1_555
H34_32 C20_32 1_555 1_555
H36_32 C20_32 1_555 1_555
C26_32 C27_32 1_555 1_555
C27_32 H46_32 1_555 1_555
H47_32 C27_32 1_555 1_555
C28_32 C26_32 1_555 1_555
H49_32 C28_32 1_555 1_555
H50_32 C28_32 1_555 1_555
H51_32 C28_32 1_555 1_555
C29_32 C26_32 1_555 1_555
C30_32 C29_32 1_555 1_555
H52_32 C30_32 1_555 1_555
H53_32 C30_32 1_555 1_555
H54_32 C30_32 1_555 1_555
C31_32 C29_32 1_555 1_555
H55_32 C31_32 1_555 1_555
H57_32 C31_32 1_555 1_555
H31_33 C19_33 1_555 1_555
H32_33 C19_33 1_555 1_555
H34_33 C20_33 1_555 1_555
H36_33 C20_33 1_555 1_555
C26_33 C27_33 1_555 1_555
C27_33 H46_33 1_555 1_555
H47_33 C27_33 1_555 1_555
C28_33 C26_33 1_555 1_555
H49_33 C28_33 1_555 1_555
H50_33 C28_33 1_555 1_555
H51_33 C28_33 1_555 1_555
C29_33 C26_33 1_555 1_555
C30_33 C29_33 1_555 1_555
H52_33 C30_33 1_555 1_555
H53_33 C30_33 1_555 1_555
H54_33 C30_33 1_555 1_555
C31_33 C29_33 1_555 1_555
H55_33 C31_33 1_555 1_555
H57_33 C31_33 1_555 1_555
H31_34 C19_34 1_555 1_555
H32_34 C19_34 1_555 1_555
H34_34 C20_34 1_555 1_555
H36_34 C20_34 1_555 1_555
C26_34 C27_34 1_555 1_555
C27_34 H46_34 1_555 1_555
H47_34 C27_34 1_555 1_555
C28_34 C26_34 1_555 1_555
H49_34 C28_34 1_555 1_555
H50_34 C28_34 1_555 1_555
H51_34 C28_34 1_555 1_555
C29_34 C26_34 1_555 1_555
C30_34 C29_34 1_555 1_555
H52_34 C30_34 1_555 1_555
H53_34 C30_34 1_555 1_555
H54_34 C30_34 1_555 1_555
C31_34 C29_34 1_555 1_555
H55_34 C31_34 1_555 1_555
H57_34 C31_34 1_555 1_555
H31_35 C19_35 1_555 1_555
H32_35 C19_35 1_555 1_555
H34_35 C20_35 1_555 1_555
H36_35 C20_35 1_555 1_555
C26_35 C27_35 1_555 1_555
C27_35 H46_35 1_555 1_555
H47_35 C27_35 1_555 1_555
C28_35 C26_35 1_555 1_555
H49_35 C28_35 1_555 1_555
H50_35 C28_35 1_555 1_555
H51_35 C28_35 1_555 1_555
C29_35 C26_35 1_555 1_555
C30_35 C29_35 1_555 1_555
H52_35 C30_35 1_555 1_555
H53_35 C30_35 1_555 1_555
H54_35 C30_35 1_555 1_555
C31_35 C29_35 1_555 1_555
H55_35 C31_35 1_555 1_555
H57_35 C31_35 1_555 1_555
H31_36 C19_36 1_555 1_555
H32_36 C19_36 1_555 1_555
H34_36 C20_36 1_555 1_555
H36_36 C20_36 1_555 1_555
C26_36 C27_36 1_555 1_555
C27_36 H46_36 1_555 1_555
H47_36 C27_36 1_555 1_555
C28_36 C26_36 1_555 1_555
H49_36 C28_36 1_555 1_555
H50_36 C28_36 1_555 1_555
H51_36 C28_36 1_555 1_555
C29_36 C26_36 1_555 1_555
C30_36 C29_36 1_555 1_555
H52_36 C30_36 1_555 1_555
H53_36 C30_36 1_555 1_555
H54_36 C30_36 1_555 1_555
C31_36 C29_36 1_555 1_555
H55_36 C31_36 1_555 1_555
H57_36 C31_36 1_555 1_555

#END
