
###############################################################################
#
# This file contains modified crystal structure data generated from the
# MOF subset of the Cambridge Structural Database (CSD) v543 
# hosted by the Cambridge Crystallographic Data Centre (CCDC).
#
# This work is licensed under the Creative Commons
# Attribution-NonCommercial-ShareAlike 4.0 International License.
# To view a copy of this license, visit
# http://creativecommons.org/licenses/by-nc-sa/4.0/
# or send a letter to
# Creative Commons, PO Box 1866, Mountain View, CA 94042, USA.
#
# CIF created using the CSD Python API on 29 September 2022
# The structure has been converted into the P1 space group
# The structure has a 3D framework
# The original CSD entry EBAMOL is in the cubic crystal system
# The framework has been calculated to contain at least 10.0% void space
# The void calculation uses a probe of radius 1.32A, grid spacing 0.4
#
###############################################################################

data_EBAMOL
_chemical_formula_moiety         '(C240 H144 N24 Ni24 O104)n'
_symmetry_cell_setting           triclinic
_symmetry_space_group_name_H-M   'P 1'
_symmetry_Int_Tables_number      1
_space_group_name_Hall           'P 1'
loop_
_symmetry_equiv_pos_site_id
_symmetry_equiv_pos_as_xyz
1 x,y,z
_cell_length_a                   21.657(2)
_cell_length_b                   21.657(2)
_cell_length_c                   21.657(2)
_cell_angle_alpha                90
_cell_angle_beta                 90
_cell_angle_gamma                90
_cell_volume                     10157.7
loop_
_atom_site_label
_atom_site_type_symbol
_atom_site_fract_x
_atom_site_fract_y
_atom_site_fract_z
C4 C 0.2590(6) 0.0611(2) 0.0149(3)
H2 H 0.2625 0.1024 0.0261
C10 C 0.2590(6) 0.0149(3) 0.0611(2)
H6 H 0.2625 0.0261 0.1024
C47 C 0.0611(2) 0.2590(6) 0.0149(3)
H27 H 0.1024 0.2625 0.0261
C48 C 0.0149(3) 0.2590(6) 0.0611(2)
H28 H 0.0261 0.2625 0.1024
C47_2 C 0.0149(3) 0.0611(2) 0.2590(6)
H27_2 H 0.0261 0.1024 0.2625
C48_2 C 0.0611(2) 0.0149(3) 0.2590(6)
H28_2 H 0.1024 0.0261 0.2625
Ni1 Ni 0.232582(19) 0.11933(3) 0.767418(19)
O1 O 0.1982(2) 0.1982(2) 0.8018(2)
N1 N 0.22990(16) 0.22990(16) 0.46216(18)
O2 O 0.22675(17) 0.15318(15) 0.67831(13)
O3 O 0.2428(2) 0.07618(15) 0.85097(15)
C1 C 0.19189(18) 0.19189(18) 0.6528(2)
C2 C 0.20185(18) 0.20185(18) 0.5847(2)
C3 C 0.1687(2) 0.2452(2) 0.55269(19)
H1 H 0.1361 0.2657 0.5716
C5 C 0.2540(4) 0.04566(19) 0.95434(19)
C6 C 0.1841(2) 0.2583(2) 0.4912(2)
H3 H 0.1615 0.2880 0.4701
C7 C 0.2460(3) 0.09432(17) 0.90568(17)
O4 O 0.15318(15) 0.22675(17) 0.67831(13)
C8 C 0.2452(2) 0.1687(2) 0.55269(19)
H4 H 0.2657 0.1361 0.5716
C9 C 0.2583(2) 0.1841(2) 0.4912(2)
H5 H 0.2880 0.1615 0.4701
O6 O 0.2428(2) 0.14903(15) 0.92382(15)
Ni4 Ni 0.232582(19) 0.232582(19) 0.88067(3)
N4 N 0.53784(18) 0.22990(16) 0.77010(16)
O17 O 0.32169(13) 0.22675(17) 0.84682(15)
O18 O 0.14903(15) 0.2428(2) 0.92382(15)
C35 C 0.3472(2) 0.19189(18) 0.80811(18)
C36 C 0.4153(2) 0.20185(18) 0.79815(18)
C37 C 0.44731(19) 0.1687(2) 0.7548(2)
H21 H 0.4284 0.1361 0.7343
C39 C 0.04566(19) 0.2540(4) 0.95434(19)
C40 C 0.5088(2) 0.1841(2) 0.7417(2)
H23 H 0.5299 0.1615 0.7120
C41 C 0.09432(17) 0.2460(3) 0.90568(17)
O19 O 0.32169(13) 0.15318(15) 0.77325(17)
C42 C 0.44731(19) 0.2452(2) 0.8313(2)
H24 H 0.4284 0.2657 0.8639
C43 C 0.5088(2) 0.2583(2) 0.8159(2)
H25 H 0.5299 0.2880 0.8385
O21 O 0.07618(15) 0.2428(2) 0.85097(15)
Ni9 Ni 0.11933(3) 0.232582(19) 0.767418(19)
Ni14 Ni 0.267418(19) 0.267418(19) 0.38067(3)
Ni15 Ni 0.61933(3) 0.267418(19) 0.732582(19)
N7 N 0.27010(16) 0.27010(16) 0.96216(18)
N12 N 0.27010(16) 0.03784(18) 0.72990(16)
O29 O 0.22675(17) 0.32169(13) 0.84682(15)
O32 O 0.14903(15) 0.07618(15) 0.7572(2)
O5 O 0.2428(2) 0.85097(15) 0.07618(15)
C11 C 0.2540(4) 0.95434(19) 0.04566(19)
C12 C 0.2460(3) 0.90568(17) 0.09432(17)
O7 O 0.2428(2) 0.92382(15) 0.14903(15)
Ni2 Ni 0.232582(19) 0.88067(3) 0.232582(19)
O8 O 0.1982(2) 0.8018(2) 0.1982(2)
N2 N 0.22990(16) 0.77010(16) 0.53784(18)
O9 O 0.22675(17) 0.84682(15) 0.32169(13)
C15 C 0.19189(18) 0.80811(18) 0.3472(2)
C16 C 0.20185(18) 0.79815(18) 0.4153(2)
C17 C 0.1687(2) 0.7548(2) 0.44731(19)
H9 H 0.1361 0.7343 0.4284
C18 C 0.1841(2) 0.7417(2) 0.5088(2)
H10 H 0.1615 0.7120 0.5299
O10 O 0.15318(15) 0.77325(17) 0.32169(13)
C19 C 0.2452(2) 0.8313(2) 0.44731(19)
H11 H 0.2657 0.8639 0.4284
C20 C 0.2583(2) 0.8159(2) 0.5088(2)
H12 H 0.2880 0.8385 0.5299
Ni3 Ni 0.232582(19) 0.767418(19) 0.11933(3)
N3 N 0.53784(18) 0.77010(16) 0.22990(16)
O11 O 0.32169(13) 0.77325(17) 0.15318(15)
O12 O 0.14903(15) 0.7572(2) 0.07618(15)
C21 C 0.3472(2) 0.80811(18) 0.19189(18)
C22 C 0.4153(2) 0.79815(18) 0.20185(18)
C23 C 0.44731(19) 0.8313(2) 0.2452(2)
H13 H 0.4284 0.8639 0.2657
C25 C 0.04566(19) 0.7460(4) 0.04566(19)
C26 C 0.5088(2) 0.8159(2) 0.2583(2)
H15 H 0.5299 0.8385 0.2880
C27 C 0.09432(17) 0.7540(3) 0.09432(17)
O13 O 0.32169(13) 0.84682(15) 0.22675(17)
C28 C 0.44731(19) 0.7548(2) 0.1687(2)
H16 H 0.4284 0.7343 0.1361
C29 C 0.5088(2) 0.7417(2) 0.1841(2)
H17 H 0.5299 0.7120 0.1615
O15 O 0.07618(15) 0.7572(2) 0.14903(15)
Ni5 Ni 0.11933(3) 0.767418(19) 0.232582(19)
N5 N 0.22990(16) 0.46216(18) 0.22990(16)
O23 O 0.15318(15) 0.67831(13) 0.22675(17)
C49 C 0.19189(18) 0.6528(2) 0.19189(18)
C50 C 0.20185(18) 0.5847(2) 0.20185(18)
C51 C 0.2452(2) 0.55269(19) 0.1687(2)
H29 H 0.2657 0.5716 0.1361
C52 C 0.2583(2) 0.4912(2) 0.1841(2)
H30 H 0.2880 0.4701 0.1615
O24 O 0.22675(17) 0.67831(13) 0.15318(15)
C53 C 0.1687(2) 0.55269(19) 0.2452(2)
H31 H 0.1361 0.5716 0.2657
C54 C 0.1841(2) 0.4912(2) 0.2583(2)
H32 H 0.1615 0.4701 0.2880
Ni11 Ni 0.267418(19) 0.38067(3) 0.267418(19)
Ni13 Ni 0.267418(19) 0.732582(19) 0.61933(3)
Ni16 Ni 0.61933(3) 0.732582(19) 0.267418(19)
N8 N 0.27010(16) 0.72990(16) 0.03784(18)
N10 N 0.03784(18) 0.72990(16) 0.27010(16)
N11 N 0.27010(16) 0.96216(18) 0.27010(16)
O30 O 0.07618(15) 0.85097(15) 0.2428(2)
O33 O 0.14903(15) 0.92382(15) 0.2428(2)
O20 O 0.92382(15) 0.2428(2) 0.14903(15)
C45 C 0.95434(19) 0.2540(4) 0.04566(19)
C46 C 0.90568(17) 0.2460(3) 0.09432(17)
O22 O 0.85097(15) 0.2428(2) 0.07618(15)
Ni7 Ni 0.767418(19) 0.232582(19) 0.11933(3)
Ni10 Ni 0.88067(3) 0.232582(19) 0.232582(19)
O14 O 0.92382(15) 0.7572(2) 0.85097(15)
C31 C 0.95434(19) 0.7460(4) 0.95434(19)
C32 C 0.90568(17) 0.7540(3) 0.90568(17)
O16 O 0.85097(15) 0.7572(2) 0.92382(15)
Ni6 Ni 0.88067(3) 0.767418(19) 0.767418(19)
N6 N 0.77010(16) 0.46216(18) 0.77010(16)
O25 O 0.84682(15) 0.67831(13) 0.77325(17)
C55 C 0.80811(18) 0.6528(2) 0.80811(18)
C56 C 0.79815(18) 0.5847(2) 0.79815(18)
C57 C 0.7548(2) 0.55269(19) 0.8313(2)
H33 H 0.7343 0.5716 0.8639
C58 C 0.7417(2) 0.4912(2) 0.8159(2)
H34 H 0.7120 0.4701 0.8385
O26 O 0.77325(17) 0.67831(13) 0.84682(15)
C59 C 0.8313(2) 0.55269(19) 0.7548(2)
H35 H 0.8639 0.5716 0.7343
C60 C 0.8159(2) 0.4912(2) 0.7417(2)
H36 H 0.8385 0.4701 0.7120
Ni8 Ni 0.767418(19) 0.767418(19) 0.88067(3)
Ni12 Ni 0.732582(19) 0.38067(3) 0.732582(19)
O27 O 0.8018(2) 0.8018(2) 0.8018(2)
N9 N 0.96216(18) 0.72990(16) 0.72990(16)
O28 O 0.84682(15) 0.77325(17) 0.67831(13)
O31 O 0.92382(15) 0.85097(15) 0.7572(2)
N6_2 N 0.22990(16) 0.53784(18) 0.77010(16)
O25_2 O 0.15318(15) 0.32169(13) 0.77325(17)
C55_2 C 0.19189(18) 0.3472(2) 0.80811(18)
C56_2 C 0.20185(18) 0.4153(2) 0.79815(18)
C57_2 C 0.2452(2) 0.44731(19) 0.8313(2)
H33_2 H 0.2657 0.4284 0.8639
C58_2 C 0.2583(2) 0.5088(2) 0.8159(2)
H34_2 H 0.2880 0.5299 0.8385
C59_2 C 0.1687(2) 0.44731(19) 0.7548(2)
H35_2 H 0.1361 0.4284 0.7343
C60_2 C 0.1841(2) 0.5088(2) 0.7417(2)
H36_2 H 0.1615 0.5299 0.7120
Ni12_2 Ni 0.267418(19) 0.61933(3) 0.732582(19)
N9_2 N 0.03784(18) 0.27010(16) 0.72990(16)
O31_2 O 0.07618(15) 0.14903(15) 0.7572(2)
O5_2 O 0.7572(2) 0.14903(15) 0.07618(15)
C11_2 C 0.7460(4) 0.04566(19) 0.04566(19)
C12_2 C 0.7540(3) 0.09432(17) 0.09432(17)
O7_2 O 0.7572(2) 0.07618(15) 0.14903(15)
Ni2_2 Ni 0.767418(19) 0.11933(3) 0.232582(19)
O8_2 O 0.8018(2) 0.1982(2) 0.1982(2)
N2_2 N 0.77010(16) 0.22990(16) 0.53784(18)
O9_2 O 0.77325(17) 0.15318(15) 0.32169(13)
C15_2 C 0.80811(18) 0.19189(18) 0.3472(2)
C16_2 C 0.79815(18) 0.20185(18) 0.4153(2)
C17_2 C 0.8313(2) 0.2452(2) 0.44731(19)
H9_2 H 0.8639 0.2657 0.4284
C18_2 C 0.8159(2) 0.2583(2) 0.5088(2)
H10_2 H 0.8385 0.2880 0.5299
O10_2 O 0.84682(15) 0.22675(17) 0.32169(13)
C19_2 C 0.7548(2) 0.1687(2) 0.44731(19)
H11_2 H 0.7343 0.1361 0.4284
C20_2 C 0.7417(2) 0.1841(2) 0.5088(2)
H12_2 H 0.7120 0.1615 0.5299
N3_2 N 0.46216(18) 0.22990(16) 0.22990(16)
O11_2 O 0.67831(13) 0.22675(17) 0.15318(15)
C21_2 C 0.6528(2) 0.19189(18) 0.19189(18)
C22_2 C 0.5847(2) 0.20185(18) 0.20185(18)
C23_2 C 0.55269(19) 0.1687(2) 0.2452(2)
H13_2 H 0.5716 0.1361 0.2657
C26_2 C 0.4912(2) 0.1841(2) 0.2583(2)
H15_2 H 0.4701 0.1615 0.2880
O13_2 O 0.67831(13) 0.15318(15) 0.22675(17)
C28_2 C 0.55269(19) 0.2452(2) 0.1687(2)
H16_2 H 0.5716 0.2657 0.1361
C29_2 C 0.4912(2) 0.2583(2) 0.1841(2)
H17_2 H 0.4701 0.2880 0.1615
N5_2 N 0.77010(16) 0.53784(18) 0.22990(16)
O23_2 O 0.84682(15) 0.32169(13) 0.22675(17)
C49_2 C 0.80811(18) 0.3472(2) 0.19189(18)
C50_2 C 0.79815(18) 0.4153(2) 0.20185(18)
C51_2 C 0.7548(2) 0.44731(19) 0.1687(2)
H29_2 H 0.7343 0.4284 0.1361
C52_2 C 0.7417(2) 0.5088(2) 0.1841(2)
H30_2 H 0.7120 0.5299 0.1615
O24_2 O 0.77325(17) 0.32169(13) 0.15318(15)
C53_2 C 0.8313(2) 0.44731(19) 0.2452(2)
H31_2 H 0.8639 0.4284 0.2657
C54_2 C 0.8159(2) 0.5088(2) 0.2583(2)
H32_2 H 0.8385 0.5299 0.2880
Ni11_2 Ni 0.732582(19) 0.61933(3) 0.267418(19)
Ni13_2 Ni 0.732582(19) 0.267418(19) 0.61933(3)
Ni16_2 Ni 0.38067(3) 0.267418(19) 0.267418(19)
N8_2 N 0.72990(16) 0.27010(16) 0.03784(18)
N10_2 N 0.96216(18) 0.27010(16) 0.27010(16)
N11_2 N 0.72990(16) 0.03784(18) 0.27010(16)
O30_2 O 0.92382(15) 0.14903(15) 0.2428(2)
O33_2 O 0.85097(15) 0.07618(15) 0.2428(2)
Ni1_2 Ni 0.767418(19) 0.88067(3) 0.767418(19)
N1_2 N 0.77010(16) 0.77010(16) 0.46216(18)
O2_2 O 0.77325(17) 0.84682(15) 0.67831(13)
O3_2 O 0.7572(2) 0.92382(15) 0.85097(15)
C1_2 C 0.80811(18) 0.80811(18) 0.6528(2)
C2_2 C 0.79815(18) 0.79815(18) 0.5847(2)
C3_2 C 0.8313(2) 0.7548(2) 0.55269(19)
H1_2 H 0.8639 0.7343 0.5716
C5_2 C 0.7460(4) 0.95434(19) 0.95434(19)
C6_2 C 0.8159(2) 0.7417(2) 0.4912(2)
H3_2 H 0.8385 0.7120 0.4701
C7_2 C 0.7540(3) 0.90568(17) 0.90568(17)
C8_2 C 0.7548(2) 0.8313(2) 0.55269(19)
H4_2 H 0.7343 0.8639 0.5716
C9_2 C 0.7417(2) 0.8159(2) 0.4912(2)
H5_2 H 0.7120 0.8385 0.4701
O6_2 O 0.7572(2) 0.85097(15) 0.92382(15)
N4_2 N 0.46216(18) 0.77010(16) 0.77010(16)
O17_2 O 0.67831(13) 0.77325(17) 0.84682(15)
C35_2 C 0.6528(2) 0.80811(18) 0.80811(18)
C36_2 C 0.5847(2) 0.79815(18) 0.79815(18)
C37_2 C 0.55269(19) 0.8313(2) 0.7548(2)
H21_2 H 0.5716 0.8639 0.7343
C40_2 C 0.4912(2) 0.8159(2) 0.7417(2)
H23_2 H 0.4701 0.8385 0.7120
O19_2 O 0.67831(13) 0.84682(15) 0.77325(17)
C42_2 C 0.55269(19) 0.7548(2) 0.8313(2)
H24_2 H 0.5716 0.7343 0.8639
C43_2 C 0.4912(2) 0.7417(2) 0.8159(2)
H25_2 H 0.4701 0.7120 0.8385
Ni14_2 Ni 0.732582(19) 0.732582(19) 0.38067(3)
Ni15_2 Ni 0.38067(3) 0.732582(19) 0.732582(19)
N7_2 N 0.72990(16) 0.72990(16) 0.96216(18)
N12_2 N 0.72990(16) 0.96216(18) 0.72990(16)
O32_2 O 0.85097(15) 0.92382(15) 0.7572(2)
C25_2 C 0.04566(19) 0.04566(19) 0.7460(4)
C27_2 C 0.09432(17) 0.09432(17) 0.7540(3)
C45_2 C 0.04566(19) 0.95434(19) 0.2540(4)
C46_2 C 0.09432(17) 0.90568(17) 0.2460(3)
C39_2 C 0.95434(19) 0.04566(19) 0.2540(4)
C41_2 C 0.90568(17) 0.09432(17) 0.2460(3)
C31_2 C 0.95434(19) 0.95434(19) 0.7460(4)
C32_2 C 0.90568(17) 0.90568(17) 0.7540(3)
C26_3 C 0.0088(2) 0.3159(2) 0.7583(2)
H15_3 H 0.0299 0.3385 0.7880
C29_3 C 0.0088(2) 0.2417(2) 0.6841(2)
H17_3 H 0.0299 0.2120 0.6615
C40_3 C 0.0088(2) 0.6841(2) 0.2417(2)
H23_3 H 0.0299 0.6615 0.2120
C43_3 C 0.0088(2) 0.7583(2) 0.3159(2)
H25_3 H 0.0299 0.7880 0.3385
C18_3 C 0.6841(2) 0.2417(2) 0.0088(2)
H10_3 H 0.6615 0.2120 0.0299
C20_3 C 0.7583(2) 0.3159(2) 0.0088(2)
H12_3 H 0.7880 0.3385 0.0299
O1_2 O 0.6982(2) 0.6982(2) 0.3018(2)
O2_3 O 0.72675(17) 0.65318(15) 0.17831(13)
O3_3 O 0.7428(2) 0.57618(15) 0.35097(15)
C1_3 C 0.69189(18) 0.69189(18) 0.1528(2)
C2_3 C 0.70185(18) 0.70185(18) 0.0847(2)
C3_3 C 0.6687(2) 0.7452(2) 0.05269(19)
H1_3 H 0.6361 0.7657 0.0716
C4_2 C 0.7590(6) 0.5611(2) 0.5149(3)
H2_2 H 0.7625 0.6024 0.5261
C5_3 C 0.7540(4) 0.54566(19) 0.45434(19)
C7_3 C 0.7460(3) 0.59432(17) 0.40568(17)
O4_2 O 0.65318(15) 0.72675(17) 0.17831(13)
C8_3 C 0.7452(2) 0.6687(2) 0.05269(19)
H4_3 H 0.7657 0.6361 0.0716
O5_3 O 0.7428(2) 0.35097(15) 0.57618(15)
C10_2 C 0.7590(6) 0.5149(3) 0.5611(2)
H6_2 H 0.7625 0.5261 0.6024
C11_3 C 0.7540(4) 0.45434(19) 0.54566(19)
C12_3 C 0.7460(3) 0.40568(17) 0.59432(17)
O6_3 O 0.7428(2) 0.64903(15) 0.42382(15)
C13 C 0.7590(6) 0.4851(3) 0.4389(2)
H7 H 0.7625 0.4739 0.3976
O7_3 O 0.7428(2) 0.42382(15) 0.64903(15)
C14 C 0.7590(6) 0.4389(2) 0.4851(3)
H8 H 0.7625 0.3976 0.4739
O8_3 O 0.6982(2) 0.3018(2) 0.6982(2)
O9_3 O 0.72675(17) 0.34682(15) 0.82169(13)
C15_3 C 0.69189(18) 0.30811(18) 0.8472(2)
C16_3 C 0.70185(18) 0.29815(18) 0.9153(2)
C17_3 C 0.6687(2) 0.2548(2) 0.94731(19)
H9_3 H 0.6361 0.2343 0.9284
O10_3 O 0.65318(15) 0.27325(17) 0.82169(13)
C19_3 C 0.7452(2) 0.3313(2) 0.94731(19)
H11_3 H 0.7657 0.3639 0.9284
O11_3 O 0.82169(13) 0.27325(17) 0.65318(15)
O12_2 O 0.64903(15) 0.2572(2) 0.57618(15)
C21_3 C 0.8472(2) 0.30811(18) 0.69189(18)
C22_3 C 0.9153(2) 0.29815(18) 0.70185(18)
C23_3 C 0.94731(19) 0.3313(2) 0.7452(2)
H13_3 H 0.9284 0.3639 0.7657
C24 C 0.4851(3) 0.2410(6) 0.5611(2)
H14 H 0.4739 0.2375 0.6024
C25_3 C 0.54566(19) 0.2460(4) 0.54566(19)
C27_3 C 0.59432(17) 0.2540(3) 0.59432(17)
O13_3 O 0.82169(13) 0.34682(15) 0.72675(17)
C28_3 C 0.94731(19) 0.2548(2) 0.6687(2)
H16_3 H 0.9284 0.2343 0.6361
O14_2 O 0.42382(15) 0.2572(2) 0.35097(15)
C30 C 0.4389(2) 0.2410(6) 0.5149(3)
H18 H 0.3976 0.2375 0.5261
C31_3 C 0.45434(19) 0.2460(4) 0.45434(19)
C32_3 C 0.40568(17) 0.2540(3) 0.40568(17)
O15_2 O 0.57618(15) 0.2572(2) 0.64903(15)
C33 C 0.5611(2) 0.2410(6) 0.4851(3)
H19 H 0.6024 0.2375 0.4739
O16_2 O 0.35097(15) 0.2572(2) 0.42382(15)
C34 C 0.5149(3) 0.2410(6) 0.4389(2)
H20 H 0.5261 0.2375 0.3976
O17_3 O 0.82169(13) 0.72675(17) 0.34682(15)
O18_2 O 0.64903(15) 0.7428(2) 0.42382(15)
C35_3 C 0.8472(2) 0.69189(18) 0.30811(18)
C36_3 C 0.9153(2) 0.70185(18) 0.29815(18)
C37_3 C 0.94731(19) 0.6687(2) 0.2548(2)
H21_3 H 0.9284 0.6361 0.2343
C38 C 0.4851(3) 0.7590(6) 0.4389(2)
H22 H 0.4739 0.7625 0.3976
C39_3 C 0.54566(19) 0.7540(4) 0.45434(19)
C41_3 C 0.59432(17) 0.7460(3) 0.40568(17)
O19_3 O 0.82169(13) 0.65318(15) 0.27325(17)
C42_3 C 0.94731(19) 0.7452(2) 0.3313(2)
H24_3 H 0.9284 0.7657 0.3639
O20_2 O 0.42382(15) 0.7428(2) 0.64903(15)
C44 C 0.4389(2) 0.7590(6) 0.4851(3)
H26 H 0.3976 0.7625 0.4739
C45_3 C 0.45434(19) 0.7540(4) 0.54566(19)
C46_3 C 0.40568(17) 0.7460(3) 0.59432(17)
O21_2 O 0.57618(15) 0.7428(2) 0.35097(15)
C47_3 C 0.5611(2) 0.7590(6) 0.5149(3)
H27_3 H 0.6024 0.7625 0.5261
O22_2 O 0.35097(15) 0.7428(2) 0.57618(15)
C48_3 C 0.5149(3) 0.7590(6) 0.5611(2)
H28_3 H 0.5261 0.7625 0.6024
O23_3 O 0.65318(15) 0.17831(13) 0.72675(17)
C49_3 C 0.69189(18) 0.1528(2) 0.69189(18)
C50_3 C 0.70185(18) 0.0847(2) 0.70185(18)
C51_3 C 0.7452(2) 0.05269(19) 0.6687(2)
H29_3 H 0.7657 0.0716 0.6361
O24_3 O 0.72675(17) 0.17831(13) 0.65318(15)
C53_3 C 0.6687(2) 0.05269(19) 0.7452(2)
H31_3 H 0.6361 0.0716 0.7657
O25_3 O 0.34682(15) 0.17831(13) 0.27325(17)
C55_3 C 0.30811(18) 0.1528(2) 0.30811(18)
C56_3 C 0.29815(18) 0.0847(2) 0.29815(18)
C57_3 C 0.2548(2) 0.05269(19) 0.3313(2)
H33_3 H 0.2343 0.0716 0.3639
O26_2 O 0.27325(17) 0.17831(13) 0.34682(15)
C59_3 C 0.3313(2) 0.05269(19) 0.2548(2)
H35_3 H 0.3639 0.0716 0.2343
O27_2 O 0.3018(2) 0.3018(2) 0.3018(2)
O28_2 O 0.34682(15) 0.27325(17) 0.17831(13)
O29_2 O 0.72675(17) 0.82169(13) 0.34682(15)
O30_3 O 0.57618(15) 0.35097(15) 0.7428(2)
O31_3 O 0.42382(15) 0.35097(15) 0.2572(2)
O32_3 O 0.64903(15) 0.57618(15) 0.2572(2)
O33_3 O 0.64903(15) 0.42382(15) 0.7428(2)
C6_3 C 0.6841(2) 0.7583(2) 0.9912(2)
H3_3 H 0.6615 0.7880 0.9701
C9_3 C 0.7583(2) 0.6841(2) 0.9912(2)
H5_3 H 0.7880 0.6615 0.9701
C52_3 C 0.7583(2) 0.9912(2) 0.6841(2)
H30_3 H 0.7880 0.9701 0.6615
C54_3 C 0.6841(2) 0.9912(2) 0.7583(2)
H32_3 H 0.6615 0.9701 0.7880
C58_3 C 0.2417(2) 0.9912(2) 0.3159(2)
H34_3 H 0.2120 0.9701 0.3385
C60_3 C 0.3159(2) 0.9912(2) 0.2417(2)
H36_3 H 0.3385 0.9701 0.2120
C52_4 C 0.2417(2) 0.0088(2) 0.6841(2)
H30_4 H 0.2120 0.0299 0.6615
C54_4 C 0.3159(2) 0.0088(2) 0.7583(2)
H32_4 H 0.3385 0.0299 0.7880
C58_4 C 0.7583(2) 0.0088(2) 0.3159(2)
H34_4 H 0.7880 0.0299 0.3385
C60_4 C 0.6841(2) 0.0088(2) 0.2417(2)
H36_4 H 0.6615 0.0299 0.2120
C18_4 C 0.3159(2) 0.7583(2) 0.0088(2)
H10_4 H 0.3385 0.7880 0.0299
C20_4 C 0.2417(2) 0.6841(2) 0.0088(2)
H12_4 H 0.2120 0.6615 0.0299
O2_4 O 0.27325(17) 0.34682(15) 0.17831(13)
O3_4 O 0.2572(2) 0.42382(15) 0.35097(15)
C1_4 C 0.30811(18) 0.30811(18) 0.1528(2)
C2_4 C 0.29815(18) 0.29815(18) 0.0847(2)
C3_4 C 0.3313(2) 0.2548(2) 0.05269(19)
H1_4 H 0.3639 0.2343 0.0716
C4_3 C 0.2410(6) 0.4389(2) 0.5149(3)
H2_3 H 0.2375 0.3976 0.5261
C5_4 C 0.2460(4) 0.45434(19) 0.45434(19)
C7_4 C 0.2540(3) 0.40568(17) 0.40568(17)
C8_4 C 0.2548(2) 0.3313(2) 0.05269(19)
H4_4 H 0.2343 0.3639 0.0716
O5_4 O 0.2572(2) 0.64903(15) 0.57618(15)
C10_3 C 0.2410(6) 0.4851(3) 0.5611(2)
H6_3 H 0.2375 0.4739 0.6024
C11_4 C 0.2460(4) 0.54566(19) 0.54566(19)
C12_4 C 0.2540(3) 0.59432(17) 0.59432(17)
O6_4 O 0.2572(2) 0.35097(15) 0.42382(15)
C13_2 C 0.2410(6) 0.5149(3) 0.4389(2)
H7_2 H 0.2375 0.5261 0.3976
O7_4 O 0.2572(2) 0.57618(15) 0.64903(15)
C14_2 C 0.2410(6) 0.5611(2) 0.4851(3)
H8_2 H 0.2375 0.6024 0.4739
O8_4 O 0.3018(2) 0.6982(2) 0.6982(2)
O9_4 O 0.27325(17) 0.65318(15) 0.82169(13)
C15_4 C 0.30811(18) 0.69189(18) 0.8472(2)
C16_4 C 0.29815(18) 0.70185(18) 0.9153(2)
C17_4 C 0.3313(2) 0.7452(2) 0.94731(19)
H9_4 H 0.3639 0.7657 0.9284
O10_4 O 0.34682(15) 0.72675(17) 0.82169(13)
C19_4 C 0.2548(2) 0.6687(2) 0.94731(19)
H11_4 H 0.2343 0.6361 0.9284
O11_4 O 0.17831(13) 0.72675(17) 0.65318(15)
C21_4 C 0.1528(2) 0.69189(18) 0.69189(18)
C22_4 C 0.0847(2) 0.70185(18) 0.70185(18)
C23_4 C 0.05269(19) 0.6687(2) 0.7452(2)
H13_4 H 0.0716 0.6361 0.7657
O13_4 O 0.17831(13) 0.65318(15) 0.72675(17)
C28_4 C 0.05269(19) 0.7452(2) 0.6687(2)
H16_4 H 0.0716 0.7657 0.6361
O17_4 O 0.17831(13) 0.27325(17) 0.34682(15)
C35_4 C 0.1528(2) 0.30811(18) 0.30811(18)
C36_4 C 0.0847(2) 0.29815(18) 0.29815(18)
C37_4 C 0.05269(19) 0.3313(2) 0.2548(2)
H21_4 H 0.0716 0.3639 0.2343
O19_4 O 0.17831(13) 0.34682(15) 0.27325(17)
C42_4 C 0.05269(19) 0.2548(2) 0.3313(2)
H24_4 H 0.0716 0.2343 0.3639
O23_4 O 0.34682(15) 0.82169(13) 0.72675(17)
C49_4 C 0.30811(18) 0.8472(2) 0.69189(18)
C50_4 C 0.29815(18) 0.9153(2) 0.70185(18)
C51_4 C 0.2548(2) 0.94731(19) 0.6687(2)
H29_4 H 0.2343 0.9284 0.6361
O24_4 O 0.27325(17) 0.82169(13) 0.65318(15)
C53_4 C 0.3313(2) 0.94731(19) 0.7452(2)
H31_4 H 0.3639 0.9284 0.7657
O25_4 O 0.65318(15) 0.82169(13) 0.27325(17)
C55_4 C 0.69189(18) 0.8472(2) 0.30811(18)
C56_4 C 0.70185(18) 0.9153(2) 0.29815(18)
C57_4 C 0.7452(2) 0.94731(19) 0.3313(2)
H33_4 H 0.7657 0.9284 0.3639
C59_4 C 0.6687(2) 0.94731(19) 0.2548(2)
H35_4 H 0.6361 0.9284 0.2343
O30_4 O 0.42382(15) 0.64903(15) 0.7428(2)
O31_4 O 0.57618(15) 0.64903(15) 0.2572(2)
O32_4 O 0.35097(15) 0.42382(15) 0.2572(2)
O33_4 O 0.35097(15) 0.57618(15) 0.7428(2)
C6_4 C 0.3159(2) 0.2417(2) 0.9912(2)
H3_4 H 0.3385 0.2120 0.9701
C9_4 C 0.2417(2) 0.3159(2) 0.9912(2)
H5_4 H 0.2120 0.3385 0.9701
C26_4 C 0.9912(2) 0.6841(2) 0.7583(2)
H15_4 H 0.9701 0.6615 0.7880
C29_4 C 0.9912(2) 0.7583(2) 0.6841(2)
H17_4 H 0.9701 0.7880 0.6615
C40_4 C 0.9912(2) 0.3159(2) 0.2417(2)
H23_4 H 0.9701 0.3385 0.2120
C43_4 C 0.9912(2) 0.2417(2) 0.3159(2)
H25_4 H 0.9701 0.2120 0.3385
C24_2 C 0.5611(2) 0.4851(3) 0.2410(6)
H14_2 H 0.6024 0.4739 0.2375
C25_4 C 0.54566(19) 0.54566(19) 0.2460(4)
C27_4 C 0.59432(17) 0.59432(17) 0.2540(3)
C30_2 C 0.5149(3) 0.4389(2) 0.2410(6)
H18_2 H 0.5261 0.3976 0.2375
C31_4 C 0.45434(19) 0.45434(19) 0.2460(4)
C32_4 C 0.40568(17) 0.40568(17) 0.2540(3)
C33_2 C 0.4851(3) 0.5611(2) 0.2410(6)
H19_2 H 0.4739 0.6024 0.2375
C34_2 C 0.4389(2) 0.5149(3) 0.2410(6)
H20_2 H 0.3976 0.5261 0.2375
C38_2 C 0.4389(2) 0.4851(3) 0.7590(6)
H22_2 H 0.3976 0.4739 0.7625
C39_4 C 0.45434(19) 0.54566(19) 0.7540(4)
C41_4 C 0.40568(17) 0.59432(17) 0.7460(3)
C44_2 C 0.4851(3) 0.4389(2) 0.7590(6)
H26_2 H 0.4739 0.3976 0.7625
C45_4 C 0.54566(19) 0.45434(19) 0.7540(4)
C46_4 C 0.59432(17) 0.40568(17) 0.7460(3)
C47_4 C 0.5149(3) 0.5611(2) 0.7590(6)
H27_4 H 0.5261 0.6024 0.7625
C48_4 C 0.5611(2) 0.5149(3) 0.7590(6)
H28_4 H 0.6024 0.5261 0.7625
C13_3 C 0.2590(6) 0.9851(3) 0.9389(2)
H7_3 H 0.2625 0.9739 0.8976
C14_3 C 0.2590(6) 0.9389(2) 0.9851(3)
H8_3 H 0.2625 0.8976 0.9739
C33_3 C 0.0611(2) 0.7410(6) 0.9851(3)
H19_3 H 0.1024 0.7375 0.9739
C34_3 C 0.0149(3) 0.7410(6) 0.9389(2)
H20_3 H 0.0261 0.7375 0.8976
C24_3 C 0.0611(2) 0.9851(3) 0.7410(6)
H14_3 H 0.1024 0.9739 0.7375
C30_3 C 0.0149(3) 0.9389(2) 0.7410(6)
H18_3 H 0.0261 0.8976 0.7375
C38_3 C 0.9851(3) 0.2590(6) 0.9389(2)
H22_3 H 0.9739 0.2625 0.8976
C44_3 C 0.9389(2) 0.2590(6) 0.9851(3)
H26_3 H 0.8976 0.2625 0.9739
C13_4 C 0.7410(6) 0.0149(3) 0.9389(2)
H7_4 H 0.7375 0.0261 0.8976
C14_4 C 0.7410(6) 0.0611(2) 0.9851(3)
H8_4 H 0.7375 0.1024 0.9739
C33_4 C 0.9851(3) 0.0611(2) 0.7410(6)
H19_4 H 0.9739 0.1024 0.7375
C34_4 C 0.9389(2) 0.0149(3) 0.7410(6)
H20_4 H 0.8976 0.0261 0.7375
C24_4 C 0.9851(3) 0.7410(6) 0.0611(2)
H14_4 H 0.9739 0.7375 0.1024
C30_4 C 0.9389(2) 0.7410(6) 0.0149(3)
H18_4 H 0.8976 0.7375 0.0261
C4_4 C 0.7410(6) 0.9389(2) 0.0149(3)
H2_4 H 0.7375 0.8976 0.0261
C10_4 C 0.7410(6) 0.9851(3) 0.0611(2)
H6_4 H 0.7375 0.9739 0.1024
C38_4 C 0.9389(2) 0.9851(3) 0.2590(6)
H22_4 H 0.8976 0.9739 0.2625
C44_4 C 0.9851(3) 0.9389(2) 0.2590(6)
H26_4 H 0.9739 0.8976 0.2625
loop_
_geom_bond_atom_site_label_1
_geom_bond_atom_site_label_2
_geom_bond_site_symmetry_1
_geom_bond_site_symmetry_2
C4 H2 1_555 1_555
C10 C4 1_555 1_555
H6 C10 1_555 1_555
H27 C47 1_555 1_555
H28 C48 1_555 1_555
C47 C48 1_555 1_555
H27_2 C47_2 1_555 1_555
H28_2 C48_2 1_555 1_555
C47_2 C48_2 1_555 1_555
Ni1 O1 1_555 1_555
O1 Ni4 1_555 1_555
N1 C6 1_555 1_555
O2 Ni1 1_555 1_555
O3 Ni1 1_555 1_555
C1 O2 1_555 1_555
C2 C1 1_555 1_555
C3 C2 1_555 1_555
H1 C3 1_555 1_555
C6 C3 1_555 1_555
H3 C6 1_555 1_555
C7 O3 1_555 1_555
O4 C1 1_555 1_555
C8 C2 1_555 1_555
H4 C8 1_555 1_555
C9 N1 1_555 1_555
H5 C9 1_555 1_555
O6 C7 1_555 1_555
Ni4 O6 1_555 1_555
N4 C40 1_555 1_555
O17 Ni4 1_555 1_555
O18 Ni4 1_555 1_555
C35 O17 1_555 1_555
C36 C35 1_555 1_555
C37 C36 1_555 1_555
H21 C37 1_555 1_555
C40 C37 1_555 1_555
H23 C40 1_555 1_555
C41 O18 1_555 1_555
O19 Ni1 1_555 1_555
C42 C36 1_555 1_555
H24 C42 1_555 1_555
C43 N4 1_555 1_555
H25 C43 1_555 1_555
O21 C41 1_555 1_555
Ni9 O1 1_555 1_555
Ni14 N1 1_555 1_555
Ni15 N4 1_555 1_555
N7 Ni4 1_555 1_555
N12 Ni1 1_555 1_555
O29 Ni4 1_555 1_555
O32 Ni1 1_555 1_555
C5 C7 1_555 1_555
O4 Ni9 1_555 1_555
C8 C9 1_555 1_555
C35 O19 1_555 1_555
C39 C41 1_555 1_555
C42 C43 1_555 1_555
O21 Ni9 1_555 1_555
O5 C12 1_555 1_555
C12 C11 1_555 1_555
O7 C12 1_555 1_555
Ni2 O7 1_555 1_555
O8 Ni2 1_555 1_555
N2 C18 1_555 1_555
O9 Ni2 1_555 1_555
C15 O9 1_555 1_555
C16 C15 1_555 1_555
C17 C16 1_555 1_555
H9 C17 1_555 1_555
C18 C17 1_555 1_555
H10 C18 1_555 1_555
O10 C15 1_555 1_555
C19 C16 1_555 1_555
H11 C19 1_555 1_555
C20 N2 1_555 1_555
H12 C20 1_555 1_555
Ni3 O5 1_555 1_555
N3 C26 1_555 1_555
O11 Ni3 1_555 1_555
O12 Ni3 1_555 1_555
C21 O11 1_555 1_555
C22 C21 1_555 1_555
C23 C22 1_555 1_555
H13 C23 1_555 1_555
C26 C23 1_555 1_555
H15 C26 1_555 1_555
C27 O12 1_555 1_555
O13 Ni2 1_555 1_555
C28 C22 1_555 1_555
H16 C28 1_555 1_555
C29 N3 1_555 1_555
H17 C29 1_555 1_555
O15 C27 1_555 1_555
Ni5 O8 1_555 1_555
N5 C52 1_555 1_555
O23 Ni5 1_555 1_555
C49 O23 1_555 1_555
C50 C49 1_555 1_555
C51 C50 1_555 1_555
H29 C51 1_555 1_555
C52 C51 1_555 1_555
H30 C52 1_555 1_555
O24 Ni3 1_555 1_555
C53 C50 1_555 1_555
H31 C53 1_555 1_555
C54 N5 1_555 1_555
H32 C54 1_555 1_555
Ni11 N5 1_555 1_555
Ni13 N2 1_555 1_555
Ni16 N3 1_555 1_555
N8 Ni3 1_555 1_555
N10 Ni5 1_555 1_555
N11 Ni2 1_555 1_555
O30 Ni5 1_555 1_555
O33 Ni2 1_555 1_555
O8 Ni3 1_555 1_555
O10 Ni5 1_555 1_555
C19 C20 1_555 1_555
C21 O13 1_555 1_555
C25 C27 1_555 1_555
C28 C29 1_555 1_555
O15 Ni5 1_555 1_555
C49 O24 1_555 1_555
C53 C54 1_555 1_555
O20 C46 1_555 1_555
C46 C45 1_555 1_555
O22 C46 1_555 1_555
Ni7 O22 1_555 1_555
Ni10 O20 1_555 1_555
O14 C32 1_555 1_555
C32 C31 1_555 1_555
O16 C32 1_555 1_555
Ni6 O14 1_555 1_555
N6 C58 1_555 1_555
O25 Ni6 1_555 1_555
C55 O25 1_555 1_555
C56 C55 1_555 1_555
C57 C56 1_555 1_555
H33 C57 1_555 1_555
C58 C57 1_555 1_555
H34 C58 1_555 1_555
O26 C55 1_555 1_555
C59 C56 1_555 1_555
H35 C59 1_555 1_555
C60 N6 1_555 1_555
H36 C60 1_555 1_555
Ni8 O16 1_555 1_555
Ni12 N6 1_555 1_555
O27 Ni6 1_555 1_555
N9 Ni6 1_555 1_555
O28 Ni6 1_555 1_555
O31 Ni6 1_555 1_555
O26 Ni8 1_555 1_555
C59 C60 1_555 1_555
Ni8 O27 1_555 1_555
N6_2 C58_2 1_555 1_555
O25_2 Ni9 1_555 1_555
C55_2 O25_2 1_555 1_555
C56_2 C55_2 1_555 1_555
C57_2 C56_2 1_555 1_555
H33_2 C57_2 1_555 1_555
C58_2 C57_2 1_555 1_555
H34_2 C58_2 1_555 1_555
O29 C55_2 1_555 1_555
C59_2 C56_2 1_555 1_555
H35_2 C59_2 1_555 1_555
C60_2 N6_2 1_555 1_555
H36_2 C60_2 1_555 1_555
Ni12_2 N6_2 1_555 1_555
N9_2 Ni9 1_555 1_555
O31_2 Ni9 1_555 1_555
C59_2 C60_2 1_555 1_555
O5_2 C12_2 1_555 1_555
C12_2 C11_2 1_555 1_555
O7_2 C12_2 1_555 1_555
Ni2_2 O7_2 1_555 1_555
O8_2 Ni2_2 1_555 1_555
N2_2 C18_2 1_555 1_555
O9_2 Ni2_2 1_555 1_555
C15_2 O9_2 1_555 1_555
C16_2 C15_2 1_555 1_555
C17_2 C16_2 1_555 1_555
H9_2 C17_2 1_555 1_555
C18_2 C17_2 1_555 1_555
H10_2 C18_2 1_555 1_555
O10_2 C15_2 1_555 1_555
C19_2 C16_2 1_555 1_555
H11_2 C19_2 1_555 1_555
C20_2 N2_2 1_555 1_555
H12_2 C20_2 1_555 1_555
Ni7 O5_2 1_555 1_555
N3_2 C26_2 1_555 1_555
O11_2 Ni7 1_555 1_555
C21_2 O11_2 1_555 1_555
C22_2 C21_2 1_555 1_555
C23_2 C22_2 1_555 1_555
H13_2 C23_2 1_555 1_555
C26_2 C23_2 1_555 1_555
H15_2 C26_2 1_555 1_555
O13_2 Ni2_2 1_555 1_555
C28_2 C22_2 1_555 1_555
H16_2 C28_2 1_555 1_555
C29_2 N3_2 1_555 1_555
H17_2 C29_2 1_555 1_555
Ni10 O8_2 1_555 1_555
N5_2 C52_2 1_555 1_555
O23_2 Ni10 1_555 1_555
C49_2 O23_2 1_555 1_555
C50_2 C49_2 1_555 1_555
C51_2 C50_2 1_555 1_555
H29_2 C51_2 1_555 1_555
C52_2 C51_2 1_555 1_555
H30_2 C52_2 1_555 1_555
O24_2 Ni7 1_555 1_555
C53_2 C50_2 1_555 1_555
H31_2 C53_2 1_555 1_555
C54_2 N5_2 1_555 1_555
H32_2 C54_2 1_555 1_555
Ni11_2 N5_2 1_555 1_555
Ni13_2 N2_2 1_555 1_555
Ni16_2 N3_2 1_555 1_555
N8_2 Ni7 1_555 1_555
N10_2 Ni10 1_555 1_555
N11_2 Ni2_2 1_555 1_555
O30_2 Ni10 1_555 1_555
O33_2 Ni2_2 1_555 1_555
O8_2 Ni7 1_555 1_555
O10_2 Ni10 1_555 1_555
C19_2 C20_2 1_555 1_555
C21_2 O13_2 1_555 1_555
C28_2 C29_2 1_555 1_555
C49_2 O24_2 1_555 1_555
C53_2 C54_2 1_555 1_555
Ni1_2 O27 1_555 1_555
N1_2 C6_2 1_555 1_555
O2_2 Ni1_2 1_555 1_555
O3_2 Ni1_2 1_555 1_555
C1_2 O2_2 1_555 1_555
C2_2 C1_2 1_555 1_555
C3_2 C2_2 1_555 1_555
H1_2 C3_2 1_555 1_555
C6_2 C3_2 1_555 1_555
H3_2 C6_2 1_555 1_555
C7_2 O3_2 1_555 1_555
O28 C1_2 1_555 1_555
C8_2 C2_2 1_555 1_555
H4_2 C8_2 1_555 1_555
C9_2 N1_2 1_555 1_555
H5_2 C9_2 1_555 1_555
O6_2 C7_2 1_555 1_555
Ni8 O6_2 1_555 1_555
N4_2 C40_2 1_555 1_555
O17_2 Ni8 1_555 1_555
C35_2 O17_2 1_555 1_555
C36_2 C35_2 1_555 1_555
C37_2 C36_2 1_555 1_555
H21_2 C37_2 1_555 1_555
C40_2 C37_2 1_555 1_555
H23_2 C40_2 1_555 1_555
O19_2 Ni1_2 1_555 1_555
C42_2 C36_2 1_555 1_555
H24_2 C42_2 1_555 1_555
C43_2 N4_2 1_555 1_555
H25_2 C43_2 1_555 1_555
Ni14_2 N1_2 1_555 1_555
Ni15_2 N4_2 1_555 1_555
N7_2 Ni8 1_555 1_555
N12_2 Ni1_2 1_555 1_555
O32_2 Ni1_2 1_555 1_555
C5_2 C7_2 1_555 1_555
C8_2 C9_2 1_555 1_555
C35_2 O19_2 1_555 1_555
C42_2 C43_2 1_555 1_555
C27_2 O31_2 1_555 1_555
O32 C27_2 1_555 1_555
C25_2 C27_2 1_555 1_555
O33 C46_2 1_555 1_555
C46_2 C45_2 1_555 1_555
O30 C46_2 1_555 1_555
C41_2 O30_2 1_555 1_555
O33_2 C41_2 1_555 1_555
C39_2 C41_2 1_555 1_555
O32_2 C32_2 1_555 1_555
C32_2 C31_2 1_555 1_555
O31 C32_2 1_555 1_555
N9_2 C26_3 1_555 1_555
H15_3 C26_3 1_555 1_555
C29_3 N9_2 1_555 1_555
H17_3 C29_3 1_555 1_555
N10 C40_3 1_555 1_555
H23_3 C40_3 1_555 1_555
C43_3 N10 1_555 1_555
H25_3 C43_3 1_555 1_555
N8_2 C18_3 1_555 1_555
H10_3 C18_3 1_555 1_555
C20_3 N8_2 1_555 1_555
H12_3 C20_3 1_555 1_555
Ni11_2 O1_2 1_555 1_555
O1_2 Ni14_2 1_555 1_555
O2_3 Ni11_2 1_555 1_555
O3_3 Ni11_2 1_555 1_555
C1_3 O2_3 1_555 1_555
C2_3 C1_3 1_555 1_555
C3_3 C2_3 1_555 1_555
H1_3 C3_3 1_555 1_555
C4_2 H2_2 1_555 1_555
C5_3 C4_2 1_555 1_555
C7_3 O3_3 1_555 1_555
O4_2 C1_3 1_555 1_555
C8_3 C2_3 1_555 1_555
H4_3 C8_3 1_555 1_555
O5_3 C12_3 1_555 1_555
C10_2 C4_2 1_555 1_555
H6_2 C10_2 1_555 1_555
C11_3 C10_2 1_555 1_555
C12_3 C11_3 1_555 1_555
O6_3 C7_3 1_555 1_555
C13 C5_3 1_555 1_555
H7 C13 1_555 1_555
O7_3 C12_3 1_555 1_555
C14 C11_3 1_555 1_555
H8 C14 1_555 1_555
Ni12 O7_3 1_555 1_555
O8_3 Ni12 1_555 1_555
O9_3 Ni12 1_555 1_555
C15_3 O9_3 1_555 1_555
C16_3 C15_3 1_555 1_555
C17_3 C16_3 1_555 1_555
H9_3 C17_3 1_555 1_555
O10_3 C15_3 1_555 1_555
C19_3 C16_3 1_555 1_555
H11_3 C19_3 1_555 1_555
Ni13_2 O5_3 1_555 1_555
O11_3 Ni13_2 1_555 1_555
O12_2 Ni13_2 1_555 1_555
C21_3 O11_3 1_555 1_555
C22_3 C21_3 1_555 1_555
C23_3 C22_3 1_555 1_555
H13_3 C23_3 1_555 1_555
C24 H14 1_555 1_555
C25_3 C24 1_555 1_555
C27_3 O12_2 1_555 1_555
O13_3 Ni12 1_555 1_555
C28_3 C22_3 1_555 1_555
H16_3 C28_3 1_555 1_555
O14_2 C32_3 1_555 1_555
C30 C24 1_555 1_555
H18 C30 1_555 1_555
C31_3 C30 1_555 1_555
C32_3 C31_3 1_555 1_555
O15_2 C27_3 1_555 1_555
C33 C25_3 1_555 1_555
H19 C33 1_555 1_555
O16_2 C32_3 1_555 1_555
C34 C31_3 1_555 1_555
H20 C34 1_555 1_555
Ni14_2 O6_3 1_555 1_555
O17_3 Ni14_2 1_555 1_555
O18_2 Ni14_2 1_555 1_555
C35_3 O17_3 1_555 1_555
C36_3 C35_3 1_555 1_555
C37_3 C36_3 1_555 1_555
H21_3 C37_3 1_555 1_555
C38 H22 1_555 1_555
C39_3 C38 1_555 1_555
C41_3 O18_2 1_555 1_555
O19_3 Ni11_2 1_555 1_555
C42_3 C36_3 1_555 1_555
H24_3 C42_3 1_555 1_555
O20_2 C46_3 1_555 1_555
C44 C38 1_555 1_555
H26 C44 1_555 1_555
C45_3 C44 1_555 1_555
C46_3 C45_3 1_555 1_555
O21_2 C41_3 1_555 1_555
C47_3 C39_3 1_555 1_555
H27_3 C47_3 1_555 1_555
O22_2 C46_3 1_555 1_555
C48_3 C45_3 1_555 1_555
H28_3 C48_3 1_555 1_555
Ni15 O8_3 1_555 1_555
O23_3 Ni15 1_555 1_555
C49_3 O23_3 1_555 1_555
C50_3 C49_3 1_555 1_555
C51_3 C50_3 1_555 1_555
H29_3 C51_3 1_555 1_555
O24_3 Ni13_2 1_555 1_555
C53_3 C50_3 1_555 1_555
H31_3 C53_3 1_555 1_555
Ni16_2 O14_2 1_555 1_555
O25_3 Ni16_2 1_555 1_555
C55_3 O25_3 1_555 1_555
C56_3 C55_3 1_555 1_555
C57_3 C56_3 1_555 1_555
H33_3 C57_3 1_555 1_555
O26_2 C55_3 1_555 1_555
C59_3 C56_3 1_555 1_555
H35_3 C59_3 1_555 1_555
Ni13 O22_2 1_555 1_555
Ni14 O16_2 1_555 1_555
Ni16 O1_2 1_555 1_555
Ni15_2 O20_2 1_555 1_555
O27_2 Ni16_2 1_555 1_555
O28_2 Ni16_2 1_555 1_555
O29_2 Ni14_2 1_555 1_555
O30_3 Ni15 1_555 1_555
O31_3 Ni16_2 1_555 1_555
O32_3 Ni11_2 1_555 1_555
O33_3 Ni12 1_555 1_555
C5_3 C7_3 1_555 1_555
O4_2 Ni16 1_555 1_555
C13 C14 1_555 1_555
O8_3 Ni13_2 1_555 1_555
O10_3 Ni15 1_555 1_555
C21_3 O13_3 1_555 1_555
C25_3 C27_3 1_555 1_555
O15_2 Ni15 1_555 1_555
C33 C34 1_555 1_555
C35_3 O19_3 1_555 1_555
C39_3 C41_3 1_555 1_555
O21_2 Ni16 1_555 1_555
C47_3 C48_3 1_555 1_555
C49_3 O24_3 1_555 1_555
O26_2 Ni14 1_555 1_555
Ni14 O27_2 1_555 1_555
N7_2 C6_3 1_555 1_555
H3_3 C6_3 1_555 1_555
C9_3 N7_2 1_555 1_555
H5_3 C9_3 1_555 1_555
N12_2 C52_3 1_555 1_555
H30_3 C52_3 1_555 1_555
C54_3 N12_2 1_555 1_555
H32_3 C54_3 1_555 1_555
N11 C58_3 1_555 1_555
H34_3 C58_3 1_555 1_555
C60_3 N11 1_555 1_555
H36_3 C60_3 1_555 1_555
N12 C52_4 1_555 1_555
H30_4 C52_4 1_555 1_555
C54_4 N12 1_555 1_555
H32_4 C54_4 1_555 1_555
N11_2 C58_4 1_555 1_555
H34_4 C58_4 1_555 1_555
C60_4 N11_2 1_555 1_555
H36_4 C60_4 1_555 1_555
N8 C18_4 1_555 1_555
H10_4 C18_4 1_555 1_555
C20_4 N8 1_555 1_555
H12_4 C20_4 1_555 1_555
Ni11 O27_2 1_555 1_555
O2_4 Ni11 1_555 1_555
O3_4 Ni11 1_555 1_555
C1_4 O2_4 1_555 1_555
C2_4 C1_4 1_555 1_555
C3_4 C2_4 1_555 1_555
H1_4 C3_4 1_555 1_555
C4_3 H2_3 1_555 1_555
C5_4 C4_3 1_555 1_555
C7_4 O3_4 1_555 1_555
O28_2 C1_4 1_555 1_555
C8_4 C2_4 1_555 1_555
H4_4 C8_4 1_555 1_555
O5_4 C12_4 1_555 1_555
C10_3 C4_3 1_555 1_555
H6_3 C10_3 1_555 1_555
C11_4 C10_3 1_555 1_555
C12_4 C11_4 1_555 1_555
O6_4 C7_4 1_555 1_555
C13_2 C5_4 1_555 1_555
H7_2 C13_2 1_555 1_555
O7_4 C12_4 1_555 1_555
C14_2 C11_4 1_555 1_555
H8_2 C14_2 1_555 1_555
Ni12_2 O7_4 1_555 1_555
O8_4 Ni12_2 1_555 1_555
O9_4 Ni12_2 1_555 1_555
C15_4 O9_4 1_555 1_555
C16_4 C15_4 1_555 1_555
C17_4 C16_4 1_555 1_555
H9_4 C17_4 1_555 1_555
O10_4 C15_4 1_555 1_555
C19_4 C16_4 1_555 1_555
H11_4 C19_4 1_555 1_555
Ni13 O5_4 1_555 1_555
O11_4 Ni13 1_555 1_555
C21_4 O11_4 1_555 1_555
C22_4 C21_4 1_555 1_555
C23_4 C22_4 1_555 1_555
H13_4 C23_4 1_555 1_555
O13_4 Ni12_2 1_555 1_555
C28_4 C22_4 1_555 1_555
H16_4 C28_4 1_555 1_555
Ni14 O6_4 1_555 1_555
O17_4 Ni14 1_555 1_555
C35_4 O17_4 1_555 1_555
C36_4 C35_4 1_555 1_555
C37_4 C36_4 1_555 1_555
H21_4 C37_4 1_555 1_555
O19_4 Ni11 1_555 1_555
C42_4 C36_4 1_555 1_555
H24_4 C42_4 1_555 1_555
Ni15_2 O8_4 1_555 1_555
O23_4 Ni15_2 1_555 1_555
C49_4 O23_4 1_555 1_555
C50_4 C49_4 1_555 1_555
C51_4 C50_4 1_555 1_555
H29_4 C51_4 1_555 1_555
O24_4 Ni13 1_555 1_555
C53_4 C50_4 1_555 1_555
H31_4 C53_4 1_555 1_555
O25_4 Ni16 1_555 1_555
C55_4 O25_4 1_555 1_555
C56_4 C55_4 1_555 1_555
C57_4 C56_4 1_555 1_555
H33_4 C57_4 1_555 1_555
O29_2 C55_4 1_555 1_555
C59_4 C56_4 1_555 1_555
H35_4 C59_4 1_555 1_555
O30_4 Ni15_2 1_555 1_555
O31_4 Ni16 1_555 1_555
O32_4 Ni11 1_555 1_555
O33_4 Ni12_2 1_555 1_555
C5_4 C7_4 1_555 1_555
C13_2 C14_2 1_555 1_555
O8_4 Ni13 1_555 1_555
O10_4 Ni15_2 1_555 1_555
C21_4 O13_4 1_555 1_555
C35_4 O19_4 1_555 1_555
C49_4 O24_4 1_555 1_555
N7 C6_4 1_555 1_555
H3_4 C6_4 1_555 1_555
C9_4 N7 1_555 1_555
H5_4 C9_4 1_555 1_555
N9 C26_4 1_555 1_555
H15_4 C26_4 1_555 1_555
C29_4 N9 1_555 1_555
H17_4 C29_4 1_555 1_555
N10_2 C40_4 1_555 1_555
H23_4 C40_4 1_555 1_555
C43_4 N10_2 1_555 1_555
H25_4 C43_4 1_555 1_555
C24_2 H14_2 1_555 1_555
C25_4 C24_2 1_555 1_555
C27_4 O31_4 1_555 1_555
O32_4 C32_4 1_555 1_555
C30_2 C24_2 1_555 1_555
H18_2 C30_2 1_555 1_555
C31_4 C30_2 1_555 1_555
C32_4 C31_4 1_555 1_555
O32_3 C27_4 1_555 1_555
C33_2 C25_4 1_555 1_555
H19_2 C33_2 1_555 1_555
O31_3 C32_4 1_555 1_555
C34_2 C31_4 1_555 1_555
H20_2 C34_2 1_555 1_555
C38_2 H22_2 1_555 1_555
C39_4 C38_2 1_555 1_555
C41_4 O30_4 1_555 1_555
O33_3 C46_4 1_555 1_555
C44_2 C38_2 1_555 1_555
H26_2 C44_2 1_555 1_555
C45_4 C44_2 1_555 1_555
C46_4 C45_4 1_555 1_555
O33_4 C41_4 1_555 1_555
C47_4 C39_4 1_555 1_555
H27_4 C47_4 1_555 1_555
O30_3 C46_4 1_555 1_555
C48_4 C45_4 1_555 1_555
H28_4 C48_4 1_555 1_555
C25_4 C27_4 1_555 1_555
C33_2 C34_2 1_555 1_555
C39_4 C41_4 1_555 1_555
C47_4 C48_4 1_555 1_555
H7_3 C13_3 1_555 1_555
H8_3 C14_3 1_555 1_555
H19_3 C33_3 1_555 1_555
H20_3 C34_3 1_555 1_555
C13_3 C14_3 1_555 1_555
C33_3 C34_3 1_555 1_555
C24_3 H14_3 1_555 1_555
C30_3 C24_3 1_555 1_555
H18_3 C30_3 1_555 1_555
C38_3 H22_3 1_555 1_555
C44_3 C38_3 1_555 1_555
H26_3 C44_3 1_555 1_555
H7_4 C13_4 1_555 1_555
H8_4 C14_4 1_555 1_555
C13_4 C14_4 1_555 1_555
H19_4 C33_4 1_555 1_555
H20_4 C34_4 1_555 1_555
C33_4 C34_4 1_555 1_555
C24_4 H14_4 1_555 1_555
C30_4 C24_4 1_555 1_555
H18_4 C30_4 1_555 1_555
C4_4 H2_4 1_555 1_555
C10_4 C4_4 1_555 1_555
H6_4 C10_4 1_555 1_555
C38_4 H22_4 1_555 1_555
C44_4 C38_4 1_555 1_555
H26_4 C44_4 1_555 1_555

#END
