
###############################################################################
#
# This file contains modified crystal structure data generated from the
# MOF subset of the Cambridge Structural Database (CSD) v543 
# hosted by the Cambridge Crystallographic Data Centre (CCDC).
#
# This work is licensed under the Creative Commons
# Attribution-NonCommercial-ShareAlike 4.0 International License.
# To view a copy of this license, visit
# http://creativecommons.org/licenses/by-nc-sa/4.0/
# or send a letter to
# Creative Commons, PO Box 1866, Mountain View, CA 94042, USA.
#
# CIF created using the CSD Python API on 29 September 2022
# The structure has been converted into the P1 space group
# The structure has a 3D framework
# The original CSD entry EBAVIP is in the monoclinic crystal system
# The framework has been calculated to contain at least 10.0% void space
# The void calculation uses a probe of radius 1.32A, grid spacing 0.4
#
###############################################################################

data_EBAVIP
_chemical_formula_moiety         '(C240 H168 Co14 N44 O56)n'
_symmetry_cell_setting           triclinic
_symmetry_space_group_name_H-M   'P 1'
_symmetry_Int_Tables_number      1
_space_group_name_Hall           'P 1'
loop_
_symmetry_equiv_pos_site_id
_symmetry_equiv_pos_as_xyz
1 x,y,z
_cell_length_a                   24.028(9)
_cell_length_b                   13.413(5)
_cell_length_c                   24.048(5)
_cell_angle_alpha                90
_cell_angle_beta                 113.111(13)
_cell_angle_gamma                90
_cell_volume                     7128.37
loop_
_atom_site_label
_atom_site_type_symbol
_atom_site_fract_x
_atom_site_fract_y
_atom_site_fract_z
O13 O 0.04042(9) 0.14468(15) 0.49212(11)
O14 O 0.03497(8) 0.28822(13) 0.53593(8)
C58 C 0.01257(12) 0.20734(18) 0.50958(11)
Co5 Co 0.11609(2) 0.35265(2) 0.54970(2)
H2 H 0.3426 0.7360 0.0119
O4 O 0.39594(8) 0.92404(14) 0.03524(8)
C20 C 0.34360(12) 0.96049(18) 0.01162(11)
Co3 Co 0.61609(2) 0.85265(2) 0.54970(2)
O9 O 0.64863(10) 0.72224(15) 0.52275(10)
H22 H 0.6292 0.6681 0.5281
H23 H 0.6574 0.7360 0.4881
O11 O 0.60406(8) 0.92404(14) 0.46476(8)
O12 O 0.69159(8) 0.93933(14) 0.54209(8)
C50 C 0.65640(12) 0.96049(18) 0.48838(11)
O16 O 0.53497(8) 0.78822(13) 0.53593(8)
N13 N 0.66405(10) 0.81460(17) 0.64066(10)
N16 N 0.58659(10) 0.98495(15) 0.57944(9)
Co2 Co 0.38391(2) 0.85265(2) 0.95030(2)
O2 O 0.35137(10) 0.72224(15) 0.97725(10)
H1 H 0.3708 0.6681 0.9719
O5 O 0.30841(8) 0.93933(14) 0.95791(8)
O15 O 0.46503(8) 0.78822(13) 0.96407(8)
N14 N 0.33595(10) 0.81460(17) 0.85934(10)
N15 N 0.41341(10) 0.98495(15) 0.92056(9)
O7 O 0.96503(8) 0.28822(13) 0.96407(8)
C28 C 0.98743(12) 0.20734(18) 0.99042(11)
Co4 Co 0.88391(2) 0.35265(2) 0.95030(2)
Co1 Co 0.0000 0.79648(3) 0.2500
N1 N 0.02707(10) 0.89589(16) 0.20130(9)
C7 C 0.07002(13) 0.96321(19) 0.22209(11)
H6 H 0.0996 0.9640 0.2612
O8 O 0.05647(9) 0.70500(14) 0.30876(8)
O9_2 O 0.14863(10) 0.22224(15) 0.52275(10)
H22_2 H 0.1292 0.1681 0.5281
H23_2 H 0.1574 0.2360 0.4881
O10 O 0.12465(10) 0.82442(14) 0.32959(9)
O11_2 O 0.10406(8) 0.42404(14) 0.46476(8)
O12_2 O 0.19159(8) 0.43933(14) 0.54209(8)
O13_2 O 0.54042(9) 0.64468(15) 0.49212(11)
C38 C 0.00638(15) 0.9220(2) 0.35740(12)
H28 H 0.0398 0.8871 0.3836
C46 C 0.10910(12) 0.73980(19) 0.33796(11)
C47 C 0.15362(12) 0.67235(18) 0.38386(10)
C48 C 0.13448(12) 0.59227(18) 0.40855(10)
H36 H 0.0935 0.5768 0.3946
C49 C 0.17641(11) 0.53532(18) 0.45408(11)
C50_2 C 0.15640(12) 0.46049(18) 0.48838(11)
C51 C 0.23798(12) 0.55455(18) 0.47187(10)
H37 H 0.2660 0.5149 0.5014
C52 C 0.25836(11) 0.63180(18) 0.44628(10)
C53 C 0.21494(12) 0.69240(18) 0.40368(11)
H38 H 0.2276 0.7475 0.3883
C54 C 0.32352(12) 0.65082(18) 0.46390(10)
C55 C 0.34728(12) 0.74669(19) 0.47789(11)
H39 H 0.3215 0.7997 0.4757
C56 C 0.40810(12) 0.76446(19) 0.49494(11)
H40 H 0.4230 0.8287 0.5055
C57 C 0.44771(11) 0.68733(17) 0.49666(10)
C58_2 C 0.51257(12) 0.70734(18) 0.50958(11)
C59 C 0.42392(12) 0.59123(19) 0.48254(11)
H41 H 0.4494 0.5386 0.4833
C60 C 0.36328(12) 0.57303(19) 0.46747(12)
H42 H 0.3487 0.5081 0.4596
N13_2 N 0.16405(10) 0.31460(17) 0.64066(10)
N16_2 N 0.08659(10) 0.48495(15) 0.57944(9)
O2_2 O 0.85137(10) 0.22224(15) 0.97725(10)
H1_2 H 0.8708 0.1681 0.9719
O5_2 O 0.80841(8) 0.43933(14) 0.95791(8)
H16 H 0.7340 0.5149 0.9986
H19 H 0.5770 0.8287 0.9945
C28_2 C 0.48743(12) 0.70734(18) 0.99042(11)
N14_2 N 0.83595(10) 0.31460(17) 0.85934(10)
N15_2 N 0.91341(10) 0.48495(15) 0.92056(9)
Co1_2 Co 0.5000 0.70352(3) 0.7500
O1 O 0.55647(9) 0.79500(14) 0.80876(8)
O3 O 0.62465(10) 0.67558(14) 0.82959(9)
N1_2 N 0.47293(10) 0.60411(16) 0.79870(9)
N2 N 0.43452(11) 0.46899(16) 0.82090(9)
N4 N 0.24018(10) 0.30039(16) 0.72831(9)
N6 N 0.40958(10) 0.12866(15) 0.87564(9)
C1 C 0.42202(13) 0.29921(19) 0.84820(11)
H3 H 0.4627 0.2976 0.8739
C2 C 0.39680(13) 0.38342(19) 0.81400(11)
C3 C 0.33652(13) 0.3868(2) 0.77530(11)
H4 H 0.3200 0.4439 0.7530
C4 C 0.30135(13) 0.3032(2) 0.77064(11)
C5 C 0.32486(12) 0.21873(19) 0.80474(11)
H5 H 0.3004 0.1636 0.8018
C6 C 0.38470(12) 0.21741(19) 0.84289(11)
C7_2 C 0.42998(13) 0.53679(19) 0.77791(11)
H6_2 H 0.4004 0.5360 0.7388
C8 C 0.50638(15) 0.5780(2) 0.85740(12)
H7 H 0.5398 0.6129 0.8836
C9 C 0.48407(15) 0.4950(2) 0.87172(12)
H8 H 0.4990 0.4617 0.9086
C10 C 0.22051(13) 0.3374(2) 0.67137(12)
H9 H 0.2443 0.3742 0.6562
C11 C 0.14570(14) 0.2604(3) 0.67859(13)
H10 H 0.1071 0.2345 0.6688
C12 C 0.19254(14) 0.2506(3) 0.73256(13)
H11 H 0.1924 0.2165 0.7662
C13 C 0.37815(13) 0.05820(18) 0.89161(11)
H12 H 0.3369 0.0616 0.8831
C14 C 0.46997(13) 0.0086(2) 0.92383(12)
C15 C 0.46848(13) 0.0962(2) 0.89635(12)
H14 H 0.5009 0.1286 0.8922
C16 C 0.60910(12) 0.76020(19) 0.83796(11)
C17 C 0.65362(12) 0.82765(18) 0.88386(10)
C18 C 0.63448(12) 0.90773(18) 0.90855(10)
H15 H 0.5935 0.9232 0.8946
C19 C 0.67641(11) 0.96468(18) 0.95408(11)
C21 C 0.73798(12) 0.94545(18) 0.97187(10)
C22 C 0.75836(11) 0.86820(18) 0.94628(10)
C23 C 0.71494(12) 0.80760(18) 0.90368(11)
H17 H 0.7276 0.7525 0.8883
C24 C 0.82352(12) 0.84918(18) 0.96390(10)
C25 C 0.84728(12) 0.75331(19) 0.97789(11)
H18 H 0.8215 0.7003 0.9757
C26 C 0.90810(12) 0.73554(19) 0.99494(11)
C27 C 0.94771(11) 0.81267(17) 0.99666(10)
C29 C 0.92392(12) 0.90877(19) 0.98254(11)
H20 H 0.9494 0.9614 0.9833
C30 C 0.86328(12) 0.92697(19) 0.96747(12)
H21 H 0.8487 0.9919 0.9596
O8_2 O 0.44353(9) 0.79500(14) 0.69124(8)
O10_2 O 0.37535(10) 0.67558(14) 0.67041(9)
N7 N 0.52707(10) 0.60411(16) 0.70130(9)
N8 N 0.56548(11) 0.46899(16) 0.67910(9)
N10 N 0.75982(10) 0.30039(16) 0.77169(9)
N12 N 0.59042(10) 0.12866(15) 0.62436(9)
C31 C 0.57798(13) 0.29921(19) 0.65180(11)
H24 H 0.5373 0.2976 0.6261
C32 C 0.60320(13) 0.38342(19) 0.68600(11)
C33 C 0.66348(13) 0.3868(2) 0.72470(11)
H25 H 0.6800 0.4439 0.7470
C34 C 0.69865(13) 0.3032(2) 0.72936(11)
C35 C 0.67514(12) 0.21873(19) 0.69526(11)
H26 H 0.6996 0.1636 0.6982
C36 C 0.61530(12) 0.21741(19) 0.65711(11)
C37 C 0.57002(13) 0.53679(19) 0.72209(11)
H27 H 0.5996 0.5360 0.7612
C38_2 C 0.49362(15) 0.5780(2) 0.64260(12)
H28_2 H 0.4602 0.6129 0.6164
C39 C 0.51593(15) 0.4950(2) 0.62828(12)
H29 H 0.5010 0.4617 0.5914
C40 C 0.77949(13) 0.3374(2) 0.82863(12)
H30 H 0.7557 0.3742 0.8438
C41 C 0.85430(14) 0.2604(3) 0.82141(13)
H31 H 0.8929 0.2345 0.8312
C42 C 0.80746(14) 0.2506(3) 0.76744(13)
H32 H 0.8076 0.2165 0.7338
C43 C 0.62185(13) 0.05820(18) 0.60839(11)
H33 H 0.6631 0.0616 0.6169
C44 C 0.53003(13) 0.0086(2) 0.57617(12)
C45 C 0.53152(13) 0.0962(2) 0.60365(12)
H35 H 0.4991 0.1286 0.6078
C46_2 C 0.39090(12) 0.76020(19) 0.66204(11)
C47_2 C 0.34638(12) 0.82765(18) 0.61614(10)
C48_2 C 0.36552(12) 0.90773(18) 0.59145(10)
H36_2 H 0.4065 0.9232 0.6054
C49_2 C 0.32359(11) 0.96468(18) 0.54592(11)
C51_2 C 0.26202(12) 0.94545(18) 0.52813(10)
H37_2 H 0.2340 0.9851 0.4986
C52_2 C 0.24164(11) 0.86820(18) 0.55372(10)
C53_2 C 0.28506(12) 0.80760(18) 0.59632(11)
H38_2 H 0.2724 0.7525 0.6117
C54_2 C 0.17648(12) 0.84918(18) 0.53610(10)
C55_2 C 0.15272(12) 0.75331(19) 0.52211(11)
H39_2 H 0.1785 0.7003 0.5243
C56_2 C 0.09190(12) 0.73554(19) 0.50506(11)
H40_2 H 0.0770 0.6713 0.4945
C57_2 C 0.05229(11) 0.81267(17) 0.50334(10)
C59_2 C 0.07608(12) 0.90877(19) 0.51746(11)
H41_2 H 0.0506 0.9614 0.5167
C60_2 C 0.13672(12) 0.92697(19) 0.53253(12)
H42_2 H 0.1513 0.9919 0.5404
H13 H 0.5044 0.9696 0.9423
H34 H 0.4956 0.9696 0.5577
H13_2 H 0.0044 0.4696 0.9423
H14_2 H 0.0009 0.6286 0.8922
N8_2 N 0.06548(11) 0.96899(16) 0.67910(9)
N10_2 N 0.25982(10) 0.80039(16) 0.77169(9)
N12_2 N 0.09042(10) 0.62866(15) 0.62436(9)
C31_2 C 0.07798(13) 0.79921(19) 0.65180(11)
H24_2 H 0.0373 0.7976 0.6261
C32_2 C 0.10320(13) 0.88342(19) 0.68600(11)
C33_2 C 0.16348(13) 0.8868(2) 0.72470(11)
H25_2 H 0.1800 0.9439 0.7470
C34_2 C 0.19865(13) 0.8032(2) 0.72936(11)
C35_2 C 0.17514(12) 0.71873(19) 0.69526(11)
H26_2 H 0.1996 0.6636 0.6982
C36_2 C 0.11530(12) 0.71741(19) 0.65711(11)
C39_2 C 0.01593(15) 0.9950(2) 0.62828(12)
H29_2 H 0.0010 0.9617 0.5914
C40_2 C 0.27949(13) 0.8374(2) 0.82863(12)
H30_2 H 0.2557 0.8742 0.8438
C41_2 C 0.35430(14) 0.7604(3) 0.82141(13)
H31_2 H 0.3929 0.7345 0.8312
C42_2 C 0.30746(14) 0.7506(3) 0.76744(13)
H32_2 H 0.3076 0.7165 0.7338
C43_2 C 0.12185(13) 0.55820(18) 0.60839(11)
H33_2 H 0.1631 0.5616 0.6169
C44_2 C 0.03003(13) 0.5086(2) 0.57617(12)
C45_2 C 0.03152(13) 0.5962(2) 0.60365(12)
N2_2 N 0.93452(11) 0.96899(16) 0.82090(9)
N4_2 N 0.74018(10) 0.80039(16) 0.72831(9)
N6_2 N 0.90958(10) 0.62866(15) 0.87564(9)
C1_2 C 0.92202(13) 0.79921(19) 0.84820(11)
H3_2 H 0.9627 0.7976 0.8739
C2_2 C 0.89680(13) 0.88342(19) 0.81400(11)
C3_2 C 0.83652(13) 0.8868(2) 0.77530(11)
H4_2 H 0.8200 0.9439 0.7530
C4_2 C 0.80135(13) 0.8032(2) 0.77064(11)
C5_2 C 0.82486(12) 0.71873(19) 0.80474(11)
H5_2 H 0.8004 0.6636 0.8018
C6_2 C 0.88470(12) 0.71741(19) 0.84289(11)
C9_2 C 0.98407(15) 0.9950(2) 0.87172(12)
H8_2 H 0.9990 0.9617 0.9086
C10_2 C 0.72051(13) 0.8374(2) 0.67137(12)
H9_2 H 0.7443 0.8742 0.6562
C11_2 C 0.64570(14) 0.7604(3) 0.67859(13)
H10_2 H 0.6071 0.7345 0.6688
C12_2 C 0.69254(14) 0.7506(3) 0.73256(13)
H11_2 H 0.6924 0.7165 0.7662
C13_2 C 0.87815(13) 0.55820(18) 0.89161(11)
H12_2 H 0.8369 0.5616 0.8831
C14_2 C 0.96997(13) 0.5086(2) 0.92383(12)
C15_2 C 0.96848(13) 0.5962(2) 0.89635(12)
H34_2 H 0.9956 0.4696 0.5577
H35_2 H 0.9991 0.6286 0.6078
N5 N 0.58659(10) 0.01505(15) 0.07944(9)
H13_3 H 0.4956 0.0304 0.0577
N11 N 0.41341(10) 0.01505(15) 0.42056(9)
H34_3 H 0.5044 0.0304 0.4423
Co6 Co 0.61609(2) 0.14735(2) 0.04970(2)
Co7 Co 0.38391(2) 0.14735(2) 0.45030(2)
Co1_3 Co 0.5000 0.29648(3) 0.2500
O1_2 O 0.44353(9) 0.20500(14) 0.19124(8)
O3_2 O 0.37535(10) 0.32442(14) 0.17041(9)
N1_3 N 0.52707(10) 0.39589(16) 0.20130(9)
N2_3 N 0.56548(11) 0.53101(16) 0.17910(9)
N3 N 0.83595(10) 0.68540(17) 0.35934(10)
N4_3 N 0.75982(10) 0.69961(16) 0.27169(9)
N6_3 N 0.59042(10) 0.87134(15) 0.12436(9)
C1_3 C 0.57798(13) 0.70079(19) 0.15180(11)
H3_3 H 0.5373 0.7024 0.1261
C2_3 C 0.60320(13) 0.61658(19) 0.18600(11)
C3_3 C 0.66348(13) 0.6132(2) 0.22470(11)
H4_3 H 0.6800 0.5561 0.2470
C4_3 C 0.69865(13) 0.6968(2) 0.22936(11)
C5_3 C 0.67514(12) 0.78127(19) 0.19526(11)
H5_3 H 0.6996 0.8364 0.1982
C6_3 C 0.61530(12) 0.78259(19) 0.15711(11)
C7_3 C 0.57002(13) 0.46321(19) 0.22209(11)
H6_3 H 0.5996 0.4640 0.2612
C8_2 C 0.49362(15) 0.4220(2) 0.14260(12)
H7_2 H 0.4602 0.3871 0.1164
C9_3 C 0.51593(15) 0.5050(2) 0.12828(12)
H8_3 H 0.5010 0.5383 0.0914
C10_3 C 0.77949(13) 0.6626(2) 0.32863(12)
H9_3 H 0.7557 0.6258 0.3438
C11_3 C 0.85430(14) 0.7396(3) 0.32141(13)
H10_3 H 0.8929 0.7655 0.3312
C12_3 C 0.80746(14) 0.7494(3) 0.26744(13)
H11_3 H 0.8076 0.7835 0.2338
C13_3 C 0.62185(13) 0.94180(18) 0.10839(11)
H12_3 H 0.6631 0.9384 0.1169
C14_3 C 0.53003(13) 0.9914(2) 0.07617(12)
C15_3 C 0.53152(13) 0.9038(2) 0.10365(12)
H14_3 H 0.4991 0.8714 0.1078
C16_2 C 0.39090(12) 0.23980(19) 0.16204(11)
C17_2 C 0.34638(12) 0.17235(18) 0.11614(10)
C18_2 C 0.36552(12) 0.09227(18) 0.09145(10)
H15_2 H 0.4065 0.0768 0.1054
C19_2 C 0.32359(11) 0.03532(18) 0.04592(11)
C21_2 C 0.26202(12) 0.05455(18) 0.02813(10)
C22_2 C 0.24164(11) 0.13180(18) 0.05372(10)
C23_2 C 0.28506(12) 0.19240(18) 0.09632(11)
H17_2 H 0.2724 0.2475 0.1117
C24_2 C 0.17648(12) 0.15082(18) 0.03610(10)
C25_2 C 0.15272(12) 0.24669(19) 0.02211(11)
H18_2 H 0.1785 0.2997 0.0243
C26_2 C 0.09190(12) 0.26446(19) 0.00506(11)
C27_2 C 0.05229(11) 0.18733(17) 0.00334(10)
C29_2 C 0.07608(12) 0.09123(19) 0.01746(11)
H20_2 H 0.0506 0.0386 0.0167
C30_2 C 0.13672(12) 0.07303(19) 0.03253(12)
H21_2 H 0.1513 0.0081 0.0404
O8_3 O 0.55647(9) 0.20500(14) 0.30876(8)
O10_3 O 0.62465(10) 0.32442(14) 0.32959(9)
N7_2 N 0.47293(10) 0.39589(16) 0.29870(9)
N8_3 N 0.43452(11) 0.53101(16) 0.32090(9)
N9 N 0.16405(10) 0.68540(17) 0.14066(10)
N10_3 N 0.24018(10) 0.69961(16) 0.22831(9)
N12_3 N 0.40958(10) 0.87134(15) 0.37564(9)
C31_3 C 0.42202(13) 0.70079(19) 0.34820(11)
H24_3 H 0.4627 0.7024 0.3739
C32_3 C 0.39680(13) 0.61658(19) 0.31400(11)
C33_3 C 0.33652(13) 0.6132(2) 0.27530(11)
H25_3 H 0.3200 0.5561 0.2530
C34_3 C 0.30135(13) 0.6968(2) 0.27064(11)
C35_3 C 0.32486(12) 0.78127(19) 0.30474(11)
H26_3 H 0.3004 0.8364 0.3018
C36_3 C 0.38470(12) 0.78259(19) 0.34289(11)
C37_2 C 0.42998(13) 0.46321(19) 0.27791(11)
H27_2 H 0.4004 0.4640 0.2388
C38_3 C 0.50638(15) 0.4220(2) 0.35740(12)
H28_3 H 0.5398 0.3871 0.3836
C39_3 C 0.48407(15) 0.5050(2) 0.37172(12)
H29_3 H 0.4990 0.5383 0.4086
C40_3 C 0.22051(13) 0.6626(2) 0.17137(12)
H30_3 H 0.2443 0.6258 0.1562
C41_3 C 0.14570(14) 0.7396(3) 0.17859(13)
H31_3 H 0.1071 0.7655 0.1688
C42_3 C 0.19254(14) 0.7494(3) 0.23256(13)
H32_3 H 0.1924 0.7835 0.2662
C43_3 C 0.37815(13) 0.94180(18) 0.39161(11)
H33_3 H 0.3369 0.9384 0.3831
C44_3 C 0.46997(13) 0.9914(2) 0.42383(12)
C45_3 C 0.46848(13) 0.9038(2) 0.39635(12)
H35_3 H 0.5009 0.8714 0.3922
C46_3 C 0.60910(12) 0.23980(19) 0.33796(11)
C47_3 C 0.65362(12) 0.17235(18) 0.38386(10)
C48_3 C 0.63448(12) 0.09227(18) 0.40855(10)
H36_3 H 0.5935 0.0768 0.3946
C49_3 C 0.67641(11) 0.03532(18) 0.45408(11)
C51_3 C 0.73798(12) 0.05455(18) 0.47187(10)
H37_3 H 0.7660 0.0149 0.5014
C52_3 C 0.75836(11) 0.13180(18) 0.44628(10)
C53_3 C 0.71494(12) 0.19240(18) 0.40368(11)
H38_3 H 0.7276 0.2475 0.3883
C54_3 C 0.82352(12) 0.15082(18) 0.46390(10)
C55_3 C 0.84728(12) 0.24669(19) 0.47789(11)
H39_3 H 0.8215 0.2997 0.4757
C56_3 C 0.90810(12) 0.26446(19) 0.49494(11)
H40_3 H 0.9230 0.3287 0.5055
C57_3 C 0.94771(11) 0.18733(17) 0.49666(10)
C59_3 C 0.92392(12) 0.09123(19) 0.48254(11)
H41_3 H 0.9494 0.0386 0.4833
C60_3 C 0.86328(12) 0.07303(19) 0.46747(12)
H42_3 H 0.8487 0.0081 0.4596
Co8 Co 0.11609(2) 0.64735(2) 0.04970(2)
Co9 Co 0.88391(2) 0.64735(2) 0.45030(2)
N2_4 N 0.06548(11) 0.03101(16) 0.17910(9)
N3_2 N 0.33595(10) 0.18540(17) 0.35934(10)
N4_4 N 0.25982(10) 0.19961(16) 0.27169(9)
N5_2 N 0.08659(10) 0.51505(15) 0.07944(9)
N6_4 N 0.09042(10) 0.37134(15) 0.12436(9)
C1_4 C 0.07798(13) 0.20079(19) 0.15180(11)
H3_4 H 0.0373 0.2024 0.1261
C2_4 C 0.10320(13) 0.11658(19) 0.18600(11)
C3_4 C 0.16348(13) 0.1132(2) 0.22470(11)
H4_4 H 0.1800 0.0561 0.2470
C4_4 C 0.19865(13) 0.1968(2) 0.22936(11)
C5_4 C 0.17514(12) 0.28127(19) 0.19526(11)
H5_4 H 0.1996 0.3364 0.1982
C6_4 C 0.11530(12) 0.28259(19) 0.15711(11)
C9_4 C 0.01593(15) 0.0050(2) 0.12828(12)
H8_4 H 0.0010 0.0383 0.0914
C10_4 C 0.27949(13) 0.1626(2) 0.32863(12)
H9_4 H 0.2557 0.1258 0.3438
C11_4 C 0.35430(14) 0.2396(3) 0.32141(13)
H10_4 H 0.3929 0.2655 0.3312
C12_4 C 0.30746(14) 0.2494(3) 0.26744(13)
H11_4 H 0.3076 0.2835 0.2338
C13_4 C 0.12185(13) 0.44180(18) 0.10839(11)
H12_4 H 0.1631 0.4384 0.1169
C14_4 C 0.03003(13) 0.4914(2) 0.07617(12)
C15_4 C 0.03152(13) 0.4038(2) 0.10365(12)
H34_4 H 0.0044 0.5304 0.4423
H35_4 H 0.0009 0.3714 0.3922
H13_4 H 0.9956 0.5304 0.0577
H14_4 H 0.9991 0.3714 0.1078
N8_4 N 0.93452(11) 0.03101(16) 0.32090(9)
N9_2 N 0.66405(10) 0.18540(17) 0.14066(10)
N10_4 N 0.74018(10) 0.19961(16) 0.22831(9)
N11_2 N 0.91341(10) 0.51505(15) 0.42056(9)
N12_4 N 0.90958(10) 0.37134(15) 0.37564(9)
C31_4 C 0.92202(13) 0.20079(19) 0.34820(11)
H24_4 H 0.9627 0.2024 0.3739
C32_4 C 0.89680(13) 0.11658(19) 0.31400(11)
C33_4 C 0.83652(13) 0.1132(2) 0.27530(11)
H25_4 H 0.8200 0.0561 0.2530
C34_4 C 0.80135(13) 0.1968(2) 0.27064(11)
C35_4 C 0.82486(12) 0.28127(19) 0.30474(11)
H26_4 H 0.8004 0.3364 0.3018
C36_4 C 0.88470(12) 0.28259(19) 0.34289(11)
C39_4 C 0.98407(15) 0.0050(2) 0.37172(12)
H29_4 H 0.9990 0.0383 0.4086
C40_4 C 0.72051(13) 0.1626(2) 0.17137(12)
H30_4 H 0.7443 0.1258 0.1562
C41_4 C 0.64570(14) 0.2396(3) 0.17859(13)
H31_4 H 0.6071 0.2655 0.1688
C42_4 C 0.69254(14) 0.2494(3) 0.23256(13)
H32_4 H 0.6924 0.2835 0.2662
C43_4 C 0.87815(13) 0.44180(18) 0.39161(11)
H33_4 H 0.8369 0.4384 0.3831
C44_4 C 0.96997(13) 0.4914(2) 0.42383(12)
C45_4 C 0.96848(13) 0.4038(2) 0.39635(12)
O7_2 O 0.03497(8) 0.71178(13) 0.03593(8)
C28_3 C 0.01257(12) 0.79266(18) 0.00958(11)
O2_3 O 0.64863(10) 0.27776(15) 0.02275(10)
H1_3 H 0.6292 0.3319 0.0281
O5_3 O 0.69159(8) 0.06067(14) 0.04209(8)
O15_2 O 0.53497(8) 0.21178(13) 0.03593(8)
H2_2 H 0.6574 0.2640 0.9881
O4_2 O 0.60406(8) 0.07596(14) 0.96476(8)
C20_2 C 0.65640(12) 0.03951(18) 0.98838(11)
O9_3 O 0.35137(10) 0.27776(15) 0.47725(10)
H22_3 H 0.3708 0.3319 0.4719
H23_3 H 0.3426 0.2640 0.5119
O11_3 O 0.39594(8) 0.07596(14) 0.53524(8)
O12_3 O 0.30841(8) 0.06067(14) 0.45791(8)
C50_3 C 0.34360(12) 0.03951(18) 0.51162(11)
O16_2 O 0.46503(8) 0.21178(13) 0.46407(8)
O13_3 O 0.95958(9) 0.85532(15) 0.50788(11)
O14_2 O 0.96503(8) 0.71178(13) 0.46407(8)
C58_3 C 0.98743(12) 0.79266(18) 0.49042(11)
O2_4 O 0.14863(10) 0.77776(15) 0.02275(10)
H1_4 H 0.1292 0.8319 0.0281
O5_4 O 0.19159(8) 0.56067(14) 0.04209(8)
H16_2 H 0.2660 0.4851 0.0014
H19_2 H 0.4230 0.1713 0.0055
C28_4 C 0.51257(12) 0.29266(18) 0.00958(11)
Co1_4 Co 1.0000 0.20352(3) 0.7500
N1_4 N 0.97293(10) 0.10411(16) 0.79870(9)
C7_4 C 0.92998(13) 0.03679(19) 0.77791(11)
H6_4 H 0.9004 0.0360 0.7388
O8_4 O 0.94353(9) 0.29500(14) 0.69124(8)
O9_4 O 0.85137(10) 0.77776(15) 0.47725(10)
H22_4 H 0.8708 0.8319 0.4719
H23_4 H 0.8426 0.7640 0.5119
O10_4 O 0.87535(10) 0.17558(14) 0.67041(9)
O11_4 O 0.89594(8) 0.57596(14) 0.53524(8)
O12_4 O 0.80841(8) 0.56067(14) 0.45791(8)
O13_4 O 0.45958(9) 0.35532(15) 0.50788(11)
C38_4 C 0.99362(15) 0.0780(2) 0.64260(12)
H28_4 H 0.9602 0.1129 0.6164
C46_4 C 0.89090(12) 0.26020(19) 0.66204(11)
C47_4 C 0.84638(12) 0.32765(18) 0.61614(10)
C48_4 C 0.86552(12) 0.40773(18) 0.59145(10)
H36_4 H 0.9065 0.4232 0.6054
C49_4 C 0.82359(11) 0.46468(18) 0.54592(11)
C50_4 C 0.84360(12) 0.53951(18) 0.51162(11)
C51_4 C 0.76202(12) 0.44545(18) 0.52813(10)
H37_4 H 0.7340 0.4851 0.4986
C52_4 C 0.74164(11) 0.36820(18) 0.55372(10)
C53_4 C 0.78506(12) 0.30760(18) 0.59632(11)
H38_4 H 0.7724 0.2525 0.6117
C54_4 C 0.67648(12) 0.34918(18) 0.53610(10)
C55_4 C 0.65272(12) 0.25331(19) 0.52211(11)
H39_4 H 0.6785 0.2003 0.5243
C56_4 C 0.59190(12) 0.23554(19) 0.50506(11)
H40_4 H 0.5770 0.1713 0.4945
C57_4 C 0.55229(11) 0.31267(17) 0.50334(10)
C58_4 C 0.48743(12) 0.29266(18) 0.49042(11)
C59_4 C 0.57608(12) 0.40877(19) 0.51746(11)
H41_4 H 0.5506 0.4614 0.5167
C60_4 C 0.63672(12) 0.42697(19) 0.53253(12)
H42_4 H 0.6513 0.4919 0.5404
H16_3 H 0.2340 0.0149 0.9986
H19_3 H 0.0770 0.3287 0.9945
O6 O 0.95958(9) 0.14468(15) 0.00788(11)
Co1_5 Co 1.0000 0.79648(3) 0.2500
O1_3 O 0.94353(9) 0.70500(14) 0.19124(8)
H2_3 H 0.8426 0.2360 0.0119
O3_3 O 0.87535(10) 0.82442(14) 0.17041(9)
O4_3 O 0.89594(8) 0.42404(14) 0.03524(8)
O6_2 O 0.45958(9) 0.64468(15) 0.00788(11)
C8_3 C 0.99362(15) 0.9220(2) 0.14260(12)
H7_3 H 0.9602 0.8871 0.1164
C16_3 C 0.89090(12) 0.73980(19) 0.16204(11)
C17_3 C 0.84638(12) 0.67235(18) 0.11614(10)
C18_3 C 0.86552(12) 0.59227(18) 0.09145(10)
H15_3 H 0.9065 0.5768 0.1054
C19_3 C 0.82359(11) 0.53532(18) 0.04592(11)
C20_3 C 0.84360(12) 0.46049(18) 0.01162(11)
C21_3 C 0.76202(12) 0.55455(18) 0.02813(10)
C22_3 C 0.74164(11) 0.63180(18) 0.05372(10)
C23_3 C 0.78506(12) 0.69240(18) 0.09632(11)
H17_3 H 0.7724 0.7475 0.1117
C24_3 C 0.67648(12) 0.65082(18) 0.03610(10)
C25_3 C 0.65272(12) 0.74669(19) 0.02211(11)
H18_3 H 0.6785 0.7997 0.0243
C26_3 C 0.59190(12) 0.76446(19) 0.00506(11)
C27_3 C 0.55229(11) 0.68733(17) 0.00334(10)
C29_3 C 0.57608(12) 0.59123(19) 0.01746(11)
H20_3 H 0.5506 0.5386 0.0167
C30_3 C 0.63672(12) 0.57303(19) 0.03253(12)
H21_3 H 0.6513 0.5081 0.0404
N7_3 N 0.97293(10) 0.89589(16) 0.29870(9)
C37_3 C 0.92998(13) 0.96321(19) 0.27791(11)
H27_3 H 0.9004 0.9640 0.2388
O6_3 O 0.04042(9) 0.85532(15) 0.99212(11)
H16_4 H 0.7660 0.9851 0.0014
H19_4 H 0.9230 0.6713 0.0055
Co1_6 Co 0.0000 0.20352(3) 0.7500
O1_4 O 0.05647(9) 0.29500(14) 0.80876(8)
H2_4 H 0.1574 0.7640 0.9881
O3_4 O 0.12465(10) 0.17558(14) 0.82959(9)
O4_4 O 0.10406(8) 0.57596(14) 0.96476(8)
O6_4 O 0.54042(9) 0.35532(15) 0.99212(11)
C8_4 C 0.00638(15) 0.0780(2) 0.85740(12)
H7_4 H 0.0398 0.1129 0.8836
C16_4 C 0.10910(12) 0.26020(19) 0.83796(11)
C17_4 C 0.15362(12) 0.32765(18) 0.88386(10)
C18_4 C 0.13448(12) 0.40773(18) 0.90855(10)
H15_4 H 0.0935 0.4232 0.8946
C19_4 C 0.17641(11) 0.46468(18) 0.95408(11)
C20_4 C 0.15640(12) 0.53951(18) 0.98838(11)
C21_4 C 0.23798(12) 0.44545(18) 0.97187(10)
C22_4 C 0.25836(11) 0.36820(18) 0.94628(10)
C23_4 C 0.21494(12) 0.30760(18) 0.90368(11)
H17_4 H 0.2276 0.2525 0.8883
C24_4 C 0.32352(12) 0.34918(18) 0.96390(10)
C25_4 C 0.34728(12) 0.25331(19) 0.97789(11)
H18_4 H 0.3215 0.2003 0.9757
C26_4 C 0.40810(12) 0.23554(19) 0.99494(11)
C27_4 C 0.44771(11) 0.31267(17) 0.99666(10)
C29_4 C 0.42392(12) 0.40877(19) 0.98254(11)
H20_4 H 0.4494 0.4614 0.9833
C30_4 C 0.36328(12) 0.42697(19) 0.96747(12)
H21_4 H 0.3487 0.4919 0.9596
N7_4 N 0.02707(10) 0.10411(16) 0.70130(9)
C37_4 C 0.07002(13) 0.03679(19) 0.72209(11)
H27_4 H 0.0996 0.0360 0.7612
loop_
_geom_bond_atom_site_label_1
_geom_bond_atom_site_label_2
_geom_bond_site_symmetry_1
_geom_bond_site_symmetry_2
O13 C58 1_555 1_555
O14 C58 1_555 1_555
Co5 O14 1_555 1_555
C20 O4 1_555 1_555
Co3 O9 1_555 1_555
O9 H22 1_555 1_555
H23 O9 1_555 1_555
O11 Co3 1_555 1_555
O12 Co3 1_555 1_555
C50 O11 1_555 1_555
O16 Co3 1_555 1_555
N13 Co3 1_555 1_555
N16 Co3 1_555 1_555
O12 C50 1_555 1_555
Co2 O2 1_555 1_555
O2 H1 1_555 1_555
O5 Co2 1_555 1_555
O15 Co2 1_555 1_555
N14 Co2 1_555 1_555
N15 Co2 1_555 1_555
O7 C28 1_555 1_555
Co4 O7 1_555 1_555
N1 Co1 1_555 1_555
C7 N1 1_555 1_555
H6 C7 1_555 1_555
Co5 O9_2 1_555 1_555
O8 Co1 1_555 1_555
O9_2 H22_2 1_555 1_555
H23_2 O9_2 1_555 1_555
O10 C46 1_555 1_555
O11_2 Co5 1_555 1_555
O12_2 Co5 1_555 1_555
O13_2 C58_2 1_555 1_555
O16 C58_2 1_555 1_555
H28 C38 1_555 1_555
C46 O8 1_555 1_555
C47 C46 1_555 1_555
C48 C47 1_555 1_555
H36 C48 1_555 1_555
C49 C48 1_555 1_555
C50_2 O11_2 1_555 1_555
C51 C49 1_555 1_555
H37 C51 1_555 1_555
C52 C51 1_555 1_555
C53 C47 1_555 1_555
H38 C53 1_555 1_555
C54 C52 1_555 1_555
C55 C54 1_555 1_555
H39 C55 1_555 1_555
C56 C55 1_555 1_555
H40 C56 1_555 1_555
C57 C56 1_555 1_555
C58_2 C57 1_555 1_555
C59 C57 1_555 1_555
H41 C59 1_555 1_555
C60 C54 1_555 1_555
H42 C60 1_555 1_555
N13_2 Co5 1_555 1_555
N16_2 Co5 1_555 1_555
O12_2 C50_2 1_555 1_555
C49 C50_2 1_555 1_555
C52 C53 1_555 1_555
C59 C60 1_555 1_555
Co4 O2_2 1_555 1_555
O2_2 H1_2 1_555 1_555
O5_2 Co4 1_555 1_555
O15 C28_2 1_555 1_555
N14_2 Co4 1_555 1_555
N15_2 Co4 1_555 1_555
Co1_2 O1 1_555 1_555
O1 C16 1_555 1_555
O3 C16 1_555 1_555
N1_2 Co1_2 1_555 1_555
N2 C2 1_555 1_555
N13_2 C10 1_555 1_555
N4 C4 1_555 1_555
N6 C6 1_555 1_555
C1 H3 1_555 1_555
C2 C1 1_555 1_555
C3 C2 1_555 1_555
H4 C3 1_555 1_555
C4 C3 1_555 1_555
C5 C4 1_555 1_555
H5 C5 1_555 1_555
C6 C1 1_555 1_555
C7_2 N1_2 1_555 1_555
H6_2 C7_2 1_555 1_555
C8 N1_2 1_555 1_555
H7 C8 1_555 1_555
C9 N2 1_555 1_555
H8 C9 1_555 1_555
C10 N4 1_555 1_555
H9 C10 1_555 1_555
C11 N13_2 1_555 1_555
H10 C11 1_555 1_555
C12 N4 1_555 1_555
H11 C12 1_555 1_555
C13 N6 1_555 1_555
H12 C13 1_555 1_555
C15 N6 1_555 1_555
H14 C15 1_555 1_555
C16 C17 1_555 1_555
C17 C18 1_555 1_555
C18 H15 1_555 1_555
C19 C18 1_555 1_555
C21 C19 1_555 1_555
C22 C21 1_555 1_555
C23 C17 1_555 1_555
H17 C23 1_555 1_555
C24 C22 1_555 1_555
C25 C24 1_555 1_555
H18 C25 1_555 1_555
C26 C25 1_555 1_555
C27 C26 1_555 1_555
C29 C27 1_555 1_555
H20 C29 1_555 1_555
C30 C24 1_555 1_555
H21 C30 1_555 1_555
O8_2 Co1_2 1_555 1_555
O10_2 C46_2 1_555 1_555
N7 Co1_2 1_555 1_555
N8 C32 1_555 1_555
N14_2 C40 1_555 1_555
N10 C34 1_555 1_555
N12 C36 1_555 1_555
C31 H24 1_555 1_555
C32 C31 1_555 1_555
C33 C32 1_555 1_555
H25 C33 1_555 1_555
C34 C33 1_555 1_555
C35 C34 1_555 1_555
H26 C35 1_555 1_555
C36 C31 1_555 1_555
C37 N7 1_555 1_555
H27 C37 1_555 1_555
C38_2 N7 1_555 1_555
H28_2 C38_2 1_555 1_555
C39 N8 1_555 1_555
H29 C39 1_555 1_555
C40 N10 1_555 1_555
H30 C40 1_555 1_555
C41 N14_2 1_555 1_555
H31 C41 1_555 1_555
C42 N10 1_555 1_555
H32 C42 1_555 1_555
C43 N12 1_555 1_555
H33 C43 1_555 1_555
C45 N12 1_555 1_555
H35 C45 1_555 1_555
C46_2 O8_2 1_555 1_555
C47_2 C46_2 1_555 1_555
C48_2 C47_2 1_555 1_555
H36_2 C48_2 1_555 1_555
C49_2 C48_2 1_555 1_555
C51_2 C49_2 1_555 1_555
H37_2 C51_2 1_555 1_555
C52_2 C51_2 1_555 1_555
C53_2 C47_2 1_555 1_555
H38_2 C53_2 1_555 1_555
C54_2 C52_2 1_555 1_555
C55_2 C54_2 1_555 1_555
H39_2 C55_2 1_555 1_555
C56_2 C55_2 1_555 1_555
H40_2 C56_2 1_555 1_555
C57_2 C56_2 1_555 1_555
C59_2 C57_2 1_555 1_555
H41_2 C59_2 1_555 1_555
C60_2 C54_2 1_555 1_555
H42_2 C60_2 1_555 1_555
N2 C7_2 1_555 1_555
C5 C6 1_555 1_555
C8 C9 1_555 1_555
C11 C12 1_555 1_555
C14 C15 1_555 1_555
C22 C23 1_555 1_555
C29 C30 1_555 1_555
N8 C37 1_555 1_555
C35 C36 1_555 1_555
C38_2 C39 1_555 1_555
C41 C42 1_555 1_555
C44 C45 1_555 1_555
C52_2 C53_2 1_555 1_555
C59_2 C60_2 1_555 1_555
N8_2 C32_2 1_555 1_555
N14 C40_2 1_555 1_555
N10_2 C34_2 1_555 1_555
N16_2 C43_2 1_555 1_555
N12_2 C36_2 1_555 1_555
C31_2 H24_2 1_555 1_555
C32_2 C31_2 1_555 1_555
C33_2 C32_2 1_555 1_555
H25_2 C33_2 1_555 1_555
C34_2 C33_2 1_555 1_555
C35_2 C34_2 1_555 1_555
H26_2 C35_2 1_555 1_555
C36_2 C31_2 1_555 1_555
C39_2 N8_2 1_555 1_555
H29_2 C39_2 1_555 1_555
C40_2 N10_2 1_555 1_555
H30_2 C40_2 1_555 1_555
C41_2 N14 1_555 1_555
H31_2 C41_2 1_555 1_555
C42_2 N10_2 1_555 1_555
H32_2 C42_2 1_555 1_555
C43_2 N12_2 1_555 1_555
H33_2 C43_2 1_555 1_555
C44_2 N16_2 1_555 1_555
C45_2 N12_2 1_555 1_555
C35_2 C36_2 1_555 1_555
C41_2 C42_2 1_555 1_555
C44_2 C45_2 1_555 1_555
N2_2 C2_2 1_555 1_555
N13 C10_2 1_555 1_555
N4_2 C4_2 1_555 1_555
N15_2 C13_2 1_555 1_555
N6_2 C6_2 1_555 1_555
C1_2 H3_2 1_555 1_555
C2_2 C1_2 1_555 1_555
C3_2 C2_2 1_555 1_555
H4_2 C3_2 1_555 1_555
C4_2 C3_2 1_555 1_555
C5_2 C4_2 1_555 1_555
H5_2 C5_2 1_555 1_555
C6_2 C1_2 1_555 1_555
C9_2 N2_2 1_555 1_555
H8_2 C9_2 1_555 1_555
C10_2 N4_2 1_555 1_555
H9_2 C10_2 1_555 1_555
C11_2 N13 1_555 1_555
H10_2 C11_2 1_555 1_555
C12_2 N4_2 1_555 1_555
H11_2 C12_2 1_555 1_555
C13_2 N6_2 1_555 1_555
H12_2 C13_2 1_555 1_555
C14_2 N15_2 1_555 1_555
C15_2 N6_2 1_555 1_555
C5_2 C6_2 1_555 1_555
C11_2 C12_2 1_555 1_555
C14_2 C15_2 1_555 1_555
Co6 N5 1_555 1_555
Co7 N11 1_555 1_555
Co1_3 O1_2 1_555 1_555
O1_2 C16_2 1_555 1_555
O3_2 C16_2 1_555 1_555
N1_3 Co1_3 1_555 1_555
N2_3 C2_3 1_555 1_555
N3 C10_3 1_555 1_555
N4_3 C4_3 1_555 1_555
N6_3 C6_3 1_555 1_555
C1_3 H3_3 1_555 1_555
C2_3 C1_3 1_555 1_555
C3_3 C2_3 1_555 1_555
H4_3 C3_3 1_555 1_555
C4_3 C3_3 1_555 1_555
C5_3 C4_3 1_555 1_555
H5_3 C5_3 1_555 1_555
C6_3 C1_3 1_555 1_555
C7_3 N1_3 1_555 1_555
H6_3 C7_3 1_555 1_555
C8_2 N1_3 1_555 1_555
H7_2 C8_2 1_555 1_555
C9_3 N2_3 1_555 1_555
H8_3 C9_3 1_555 1_555
C10_3 N4_3 1_555 1_555
H9_3 C10_3 1_555 1_555
C11_3 N3 1_555 1_555
H10_3 C11_3 1_555 1_555
C12_3 N4_3 1_555 1_555
H11_3 C12_3 1_555 1_555
C13_3 N6_3 1_555 1_555
H12_3 C13_3 1_555 1_555
C15_3 N6_3 1_555 1_555
H14_3 C15_3 1_555 1_555
C16_2 C17_2 1_555 1_555
C17_2 C18_2 1_555 1_555
C18_2 H15_2 1_555 1_555
C19_2 C18_2 1_555 1_555
C21_2 C19_2 1_555 1_555
C22_2 C21_2 1_555 1_555
C23_2 C17_2 1_555 1_555
H17_2 C23_2 1_555 1_555
C24_2 C22_2 1_555 1_555
C25_2 C24_2 1_555 1_555
H18_2 C25_2 1_555 1_555
C26_2 C25_2 1_555 1_555
C27_2 C26_2 1_555 1_555
C29_2 C27_2 1_555 1_555
H20_2 C29_2 1_555 1_555
C30_2 C24_2 1_555 1_555
H21_2 C30_2 1_555 1_555
O8_3 Co1_3 1_555 1_555
O10_3 C46_3 1_555 1_555
N7_2 Co1_3 1_555 1_555
N8_3 C32_3 1_555 1_555
N9 C40_3 1_555 1_555
N10_3 C34_3 1_555 1_555
N12_3 C36_3 1_555 1_555
C31_3 H24_3 1_555 1_555
C32_3 C31_3 1_555 1_555
C33_3 C32_3 1_555 1_555
H25_3 C33_3 1_555 1_555
C34_3 C33_3 1_555 1_555
C35_3 C34_3 1_555 1_555
H26_3 C35_3 1_555 1_555
C36_3 C31_3 1_555 1_555
C37_2 N7_2 1_555 1_555
H27_2 C37_2 1_555 1_555
C38_3 N7_2 1_555 1_555
H28_3 C38_3 1_555 1_555
C39_3 N8_3 1_555 1_555
H29_3 C39_3 1_555 1_555
C40_3 N10_3 1_555 1_555
H30_3 C40_3 1_555 1_555
C41_3 N9 1_555 1_555
H31_3 C41_3 1_555 1_555
C42_3 N10_3 1_555 1_555
H32_3 C42_3 1_555 1_555
C43_3 N12_3 1_555 1_555
H33_3 C43_3 1_555 1_555
C45_3 N12_3 1_555 1_555
H35_3 C45_3 1_555 1_555
C46_3 O8_3 1_555 1_555
C47_3 C46_3 1_555 1_555
C48_3 C47_3 1_555 1_555
H36_3 C48_3 1_555 1_555
C49_3 C48_3 1_555 1_555
C51_3 C49_3 1_555 1_555
H37_3 C51_3 1_555 1_555
C52_3 C51_3 1_555 1_555
C53_3 C47_3 1_555 1_555
H38_3 C53_3 1_555 1_555
C54_3 C52_3 1_555 1_555
C55_3 C54_3 1_555 1_555
H39_3 C55_3 1_555 1_555
C56_3 C55_3 1_555 1_555
H40_3 C56_3 1_555 1_555
C57_3 C56_3 1_555 1_555
C59_3 C57_3 1_555 1_555
H41_3 C59_3 1_555 1_555
C60_3 C54_3 1_555 1_555
H42_3 C60_3 1_555 1_555
Co8 N9 1_555 1_555
Co9 N3 1_555 1_555
N2_3 C7_3 1_555 1_555
C5_3 C6_3 1_555 1_555
C8_2 C9_3 1_555 1_555
C11_3 C12_3 1_555 1_555
C14_3 C15_3 1_555 1_555
C22_2 C23_2 1_555 1_555
C29_2 C30_2 1_555 1_555
N8_3 C37_2 1_555 1_555
C35_3 C36_3 1_555 1_555
C38_3 C39_3 1_555 1_555
C41_3 C42_3 1_555 1_555
C44_3 C45_3 1_555 1_555
C52_3 C53_3 1_555 1_555
C59_3 C60_3 1_555 1_555
N2_4 C2_4 1_555 1_555
N3_2 C10_4 1_555 1_555
N4_4 C4_4 1_555 1_555
N5_2 C13_4 1_555 1_555
N6_4 C6_4 1_555 1_555
C1_4 H3_4 1_555 1_555
C2_4 C1_4 1_555 1_555
C3_4 C2_4 1_555 1_555
H4_4 C3_4 1_555 1_555
C4_4 C3_4 1_555 1_555
C5_4 C4_4 1_555 1_555
H5_4 C5_4 1_555 1_555
C6_4 C1_4 1_555 1_555
C9_4 N2_4 1_555 1_555
H8_4 C9_4 1_555 1_555
C10_4 N4_4 1_555 1_555
H9_4 C10_4 1_555 1_555
C11_4 N3_2 1_555 1_555
H10_4 C11_4 1_555 1_555
C12_4 N4_4 1_555 1_555
H11_4 C12_4 1_555 1_555
C13_4 N6_4 1_555 1_555
H12_4 C13_4 1_555 1_555
C14_4 N5_2 1_555 1_555
C15_4 N6_4 1_555 1_555
Co8 N5_2 1_555 1_555
Co7 N3_2 1_555 1_555
C5_4 C6_4 1_555 1_555
C11_4 C12_4 1_555 1_555
C14_4 C15_4 1_555 1_555
N8_4 C32_4 1_555 1_555
N9_2 C40_4 1_555 1_555
N10_4 C34_4 1_555 1_555
N11_2 C43_4 1_555 1_555
N12_4 C36_4 1_555 1_555
C31_4 H24_4 1_555 1_555
C32_4 C31_4 1_555 1_555
C33_4 C32_4 1_555 1_555
H25_4 C33_4 1_555 1_555
C34_4 C33_4 1_555 1_555
C35_4 C34_4 1_555 1_555
H26_4 C35_4 1_555 1_555
C36_4 C31_4 1_555 1_555
C39_4 N8_4 1_555 1_555
H29_4 C39_4 1_555 1_555
C40_4 N10_4 1_555 1_555
H30_4 C40_4 1_555 1_555
C41_4 N9_2 1_555 1_555
H31_4 C41_4 1_555 1_555
C42_4 N10_4 1_555 1_555
H32_4 C42_4 1_555 1_555
C43_4 N12_4 1_555 1_555
H33_4 C43_4 1_555 1_555
C44_4 N11_2 1_555 1_555
C45_4 N12_4 1_555 1_555
Co9 N11_2 1_555 1_555
Co6 N9_2 1_555 1_555
C35_4 C36_4 1_555 1_555
C41_4 C42_4 1_555 1_555
C44_4 C45_4 1_555 1_555
O7_2 C28_3 1_555 1_555
Co8 O7_2 1_555 1_555
Co6 O2_3 1_555 1_555
O2_3 H1_3 1_555 1_555
O5_3 Co6 1_555 1_555
O15_2 Co6 1_555 1_555
C20_2 O4_2 1_555 1_555
Co7 O9_3 1_555 1_555
O9_3 H22_3 1_555 1_555
H23_3 O9_3 1_555 1_555
O11_3 Co7 1_555 1_555
O12_3 Co7 1_555 1_555
C50_3 O11_3 1_555 1_555
O16_2 Co7 1_555 1_555
O12_3 C50_3 1_555 1_555
O13_3 C58_3 1_555 1_555
O14_2 C58_3 1_555 1_555
Co9 O14_2 1_555 1_555
Co8 O2_4 1_555 1_555
O2_4 H1_4 1_555 1_555
O5_4 Co8 1_555 1_555
O15_2 C28_4 1_555 1_555
N1_4 Co1_4 1_555 1_555
C7_4 N1_4 1_555 1_555
H6_4 C7_4 1_555 1_555
Co9 O9_4 1_555 1_555
O8_4 Co1_4 1_555 1_555
O9_4 H22_4 1_555 1_555
H23_4 O9_4 1_555 1_555
O10_4 C46_4 1_555 1_555
O11_4 Co9 1_555 1_555
O12_4 Co9 1_555 1_555
O13_4 C58_4 1_555 1_555
O16_2 C58_4 1_555 1_555
H28_4 C38_4 1_555 1_555
C46_4 O8_4 1_555 1_555
C47_4 C46_4 1_555 1_555
C48_4 C47_4 1_555 1_555
H36_4 C48_4 1_555 1_555
C49_4 C48_4 1_555 1_555
C50_4 O11_4 1_555 1_555
C51_4 C49_4 1_555 1_555
H37_4 C51_4 1_555 1_555
C52_4 C51_4 1_555 1_555
C53_4 C47_4 1_555 1_555
H38_4 C53_4 1_555 1_555
C54_4 C52_4 1_555 1_555
C55_4 C54_4 1_555 1_555
H39_4 C55_4 1_555 1_555
C56_4 C55_4 1_555 1_555
H40_4 C56_4 1_555 1_555
C57_4 C56_4 1_555 1_555
C58_4 C57_4 1_555 1_555
C59_4 C57_4 1_555 1_555
H41_4 C59_4 1_555 1_555
C60_4 C54_4 1_555 1_555
H42_4 C60_4 1_555 1_555
O12_4 C50_4 1_555 1_555
C49_4 C50_4 1_555 1_555
C52_4 C53_4 1_555 1_555
C59_4 C60_4 1_555 1_555
Co1_5 O1_3 1_555 1_555
O1_3 C16_3 1_555 1_555
O3_3 C16_3 1_555 1_555
H7_3 C8_3 1_555 1_555
C16_3 C17_3 1_555 1_555
C17_3 C18_3 1_555 1_555
C18_3 H15_3 1_555 1_555
C19_3 C18_3 1_555 1_555
C20_3 O4_3 1_555 1_555
C21_3 C19_3 1_555 1_555
C22_3 C21_3 1_555 1_555
C23_3 C17_3 1_555 1_555
H17_3 C23_3 1_555 1_555
C24_3 C22_3 1_555 1_555
C25_3 C24_3 1_555 1_555
H18_3 C25_3 1_555 1_555
C26_3 C25_3 1_555 1_555
C27_3 C26_3 1_555 1_555
C29_3 C27_3 1_555 1_555
H20_3 C29_3 1_555 1_555
C30_3 C24_3 1_555 1_555
H21_3 C30_3 1_555 1_555
N7_3 Co1_5 1_555 1_555
C37_3 N7_3 1_555 1_555
H27_3 C37_3 1_555 1_555
C19_3 C20_3 1_555 1_555
C22_3 C23_3 1_555 1_555
C29_3 C30_3 1_555 1_555
Co1_6 O1_4 1_555 1_555
O1_4 C16_4 1_555 1_555
O3_4 C16_4 1_555 1_555
H7_4 C8_4 1_555 1_555
C16_4 C17_4 1_555 1_555
C17_4 C18_4 1_555 1_555
C18_4 H15_4 1_555 1_555
C19_4 C18_4 1_555 1_555
C20_4 O4_4 1_555 1_555
C21_4 C19_4 1_555 1_555
C22_4 C21_4 1_555 1_555
C23_4 C17_4 1_555 1_555
H17_4 C23_4 1_555 1_555
C24_4 C22_4 1_555 1_555
C25_4 C24_4 1_555 1_555
H18_4 C25_4 1_555 1_555
C26_4 C25_4 1_555 1_555
C27_4 C26_4 1_555 1_555
C29_4 C27_4 1_555 1_555
H20_4 C29_4 1_555 1_555
C30_4 C24_4 1_555 1_555
H21_4 C30_4 1_555 1_555
N7_4 Co1_6 1_555 1_555
C37_4 N7_4 1_555 1_555
H27_4 C37_4 1_555 1_555
C19_4 C20_4 1_555 1_555
C22_4 C23_4 1_555 1_555
C29_4 C30_4 1_555 1_555

#END
