
###############################################################################
#
# This file contains modified crystal structure data generated from the
# MOF subset of the Cambridge Structural Database (CSD) v543 
# hosted by the Cambridge Crystallographic Data Centre (CCDC).
#
# This work is licensed under the Creative Commons
# Attribution-NonCommercial-ShareAlike 4.0 International License.
# To view a copy of this license, visit
# http://creativecommons.org/licenses/by-nc-sa/4.0/
# or send a letter to
# Creative Commons, PO Box 1866, Mountain View, CA 94042, USA.
#
# CIF created using the CSD Python API on 29 September 2022
# The structure has been converted into the P1 space group
# The structure has a 3D framework
# The original CSD entry EBAVUB is in the monoclinic crystal system
# The framework has been calculated to contain at least 10.0% void space
# The void calculation uses a probe of radius 1.32A, grid spacing 0.4
#
###############################################################################

data_EBAVUB
_chemical_formula_moiety         '(C240 H168 N44 Ni14 O56)n'
_symmetry_cell_setting           triclinic
_symmetry_space_group_name_H-M   'P 1'
_symmetry_Int_Tables_number      1
_space_group_name_Hall           'P 1'
loop_
_symmetry_equiv_pos_site_id
_symmetry_equiv_pos_as_xyz
1 x,y,z
_cell_length_a                   23.4092(16)
_cell_length_b                   13.3865(9)
_cell_length_c                   25.2954(19)
_cell_angle_alpha                90
_cell_angle_beta                 114.823(2)
_cell_angle_gamma                90
_cell_volume                     7194.39
loop_
_atom_site_label
_atom_site_type_symbol
_atom_site_fract_x
_atom_site_fract_y
_atom_site_fract_z
H8 H 0.0049 0.0394 0.9115
H13 H 0.0025 0.5383 0.9457
H14 H 0.0013 0.3811 0.8976
N8 N 0.05792(13) 0.0416(2) 0.67595(13)
N9 N 0.33487(12) 0.19551(18) 0.86392(13)
N10 N 0.26266(13) 0.2014(2) 0.77663(14)
N11 N 0.09073(12) 0.51507(17) 0.57637(12)
N12 N 0.09420(12) 0.3770(2) 0.62237(13)
C31 C 0.07681(16) 0.2082(3) 0.64820(16)
H24 H 0.0353 0.2108 0.6206
C32 C 0.09917(17) 0.1242(3) 0.68284(16)
C33 C 0.16118(16) 0.1188(3) 0.72457(17)
H25 H 0.1762 0.0621 0.7476
C34 C 0.19990(16) 0.2010(3) 0.73070(17)
C35 C 0.17901(16) 0.2845(3) 0.69662(16)
H26 H 0.2059 0.3381 0.7011
C36 C 0.11667(15) 0.2879(2) 0.65503(15)
C39 C 0.00834(19) 0.0105(3) 0.62515(17)
C40 C 0.27770(16) 0.1718(3) 0.83143(16)
H30 H 0.2507 0.1390 0.8441
C41 C 0.36146(18) 0.2325(4) 0.8300(2)
H31 H 0.4037 0.2488 0.8421
C42 C 0.31576(18) 0.2415(4) 0.77545(19)
H32 H 0.3197 0.2694 0.7435
C43 C 0.12787(15) 0.4444(2) 0.60773(16)
H33 H 0.1710 0.4411 0.6184
C44 C 0.03238(16) 0.4973(3) 0.57265(17)
C45 C 0.03291(16) 0.4117(3) 0.59951(17)
Ni6 Ni 0.12052(2) 0.64818(3) 0.54999(2)
Ni9 Ni 0.37948(2) 0.14818(3) 0.95001(2)
N2 N 0.94208(13) 0.0416(2) 0.82405(13)
N3 N 0.66513(12) 0.19551(18) 0.63608(13)
N4 N 0.73734(13) 0.2014(2) 0.72337(14)
N5 N 0.90927(12) 0.51507(17) 0.92363(12)
N6 N 0.90580(12) 0.3770(2) 0.87763(13)
C1 C 0.92319(16) 0.2082(3) 0.85180(16)
H3 H 0.9647 0.2108 0.8794
C2 C 0.90083(17) 0.1242(3) 0.81716(16)
C3 C 0.83882(16) 0.1188(3) 0.77543(17)
H4 H 0.8238 0.0621 0.7524
C4 C 0.80010(16) 0.2010(3) 0.76930(17)
C5 C 0.82099(16) 0.2845(3) 0.80338(16)
H5 H 0.7941 0.3381 0.7989
C6 C 0.88333(15) 0.2879(2) 0.84497(15)
C9 C 0.99166(19) 0.0105(3) 0.87485(17)
C10 C 0.72230(16) 0.1718(3) 0.66857(16)
H9 H 0.7493 0.1390 0.6559
C11 C 0.63854(18) 0.2325(4) 0.6700(2)
H10 H 0.5963 0.2488 0.6579
C12 C 0.68424(18) 0.2415(4) 0.72455(19)
H11 H 0.6803 0.2694 0.7565
C13 C 0.87213(15) 0.4444(2) 0.89227(16)
H12 H 0.8290 0.4411 0.8816
C14 C 0.96762(16) 0.4973(3) 0.92735(17)
C15 C 0.96709(16) 0.4117(3) 0.90049(17)
H29 H 0.9951 0.0394 0.5885
H34 H 0.9975 0.5383 0.5543
H35 H 0.9987 0.3811 0.6024
Ni7 Ni 0.87948(2) 0.64818(3) 0.95001(2)
Ni8 Ni 0.62052(2) 0.14818(3) 0.54999(2)
N5_2 N 0.40927(12) 0.01507(17) 0.92363(12)
H13_2 H 0.5025 0.0383 0.9457
N11_2 N 0.59073(12) 0.01507(17) 0.57637(12)
H34_2 H 0.4975 0.0383 0.5543
Ni1 Ni 0.5000 0.30650(4) 0.7500
N1 N 0.48518(13) 0.4110(2) 0.80193(13)
N2_2 N 0.44208(13) 0.5416(2) 0.82405(13)
N3_2 N 0.16513(12) 0.69551(18) 0.63608(13)
N4_2 N 0.23734(13) 0.7014(2) 0.72337(14)
N6_2 N 0.40580(12) 0.8770(2) 0.87763(13)
O1 O 0.40215(11) 0.28762(18) 0.69544(11)
O2 O 0.47176(10) 0.19353(18) 0.68322(11)
C1_2 C 0.42319(16) 0.7082(3) 0.85180(16)
H3_2 H 0.4647 0.7108 0.8794
C2_2 C 0.40083(17) 0.6242(3) 0.81716(16)
C3_2 C 0.33882(16) 0.6188(3) 0.77543(17)
H4_2 H 0.3238 0.5621 0.7524
C4_2 C 0.30010(16) 0.7010(3) 0.76930(17)
C5_2 C 0.32099(16) 0.7845(3) 0.80338(16)
H5_2 H 0.2941 0.8381 0.7989
C6_2 C 0.38333(15) 0.7879(2) 0.84497(15)
C7 C 0.44102(16) 0.4790(3) 0.78207(16)
H6 H 0.4122 0.4835 0.7433
C8 C 0.51669(18) 0.4307(3) 0.86076(17)
H7 H 0.5504 0.3938 0.8868
C9_2 C 0.49166(19) 0.5105(3) 0.87485(17)
H8_2 H 0.5049 0.5394 0.9115
C10_2 C 0.22230(16) 0.6718(3) 0.66857(16)
H9_2 H 0.2493 0.6390 0.6559
C11_2 C 0.13854(18) 0.7325(4) 0.6700(2)
H10_2 H 0.0963 0.7488 0.6579
C12_2 C 0.18424(18) 0.7415(4) 0.72455(19)
H11_2 H 0.1803 0.7694 0.7565
C13_2 C 0.37213(15) 0.9444(2) 0.89227(16)
H12_2 H 0.3290 0.9411 0.8816
C14_2 C 0.46762(16) 0.9973(3) 0.92735(17)
C15_2 C 0.46709(16) 0.9117(3) 0.90049(17)
H14_2 H 0.5013 0.8811 0.8976
C16 C 0.41566(16) 0.2166(2) 0.66916(16)
C17 C 0.36339(15) 0.1611(2) 0.62091(15)
C18 C 0.29990(15) 0.1853(2) 0.60543(15)
H15 H 0.2899 0.2370 0.6246
C19 C 0.37775(15) 0.0840(2) 0.59220(15)
H16 H 0.4195 0.0657 0.6034
C20 C 0.25163(15) 0.1322(2) 0.56144(15)
C21 C 0.33045(14) 0.0334(2) 0.54680(15)
C22 C 0.26764(15) 0.0576(2) 0.53206(15)
H17 H 0.2360 0.0232 0.5020
C23 C 0.18379(15) 0.1538(2) 0.54444(15)
C24 C 0.15938(16) 0.2499(2) 0.52953(17)
H18 H 0.1862 0.3032 0.5330
C25 C 0.14252(16) 0.0766(3) 0.53973(17)
H19 H 0.1581 0.0119 0.5487
C26 C 0.07938(15) 0.0928(2) 0.52222(17)
H20 H 0.0530 0.0398 0.5205
C27 C 0.09536(15) 0.2661(3) 0.50957(16)
H21 H 0.0794 0.3299 0.4977
C28 C 0.05451(15) 0.1895(2) 0.50679(15)
N7 N 0.51482(13) 0.4110(2) 0.69807(13)
N8_2 N 0.55792(13) 0.5416(2) 0.67595(13)
N9_2 N 0.83487(12) 0.69551(18) 0.86392(13)
N10_2 N 0.76266(13) 0.7014(2) 0.77663(14)
N12_2 N 0.59420(12) 0.8770(2) 0.62237(13)
O8 O 0.59785(11) 0.28762(18) 0.80456(11)
O9 O 0.52824(10) 0.19353(18) 0.81678(11)
C31_2 C 0.57681(16) 0.7082(3) 0.64820(16)
H24_2 H 0.5353 0.7108 0.6206
C32_2 C 0.59917(17) 0.6242(3) 0.68284(16)
C33_2 C 0.66118(16) 0.6188(3) 0.72457(17)
H25_2 H 0.6762 0.5621 0.7476
C34_2 C 0.69990(16) 0.7010(3) 0.73070(17)
C35_2 C 0.67901(16) 0.7845(3) 0.69662(16)
H26_2 H 0.7059 0.8381 0.7011
C36_2 C 0.61667(15) 0.7879(2) 0.65503(15)
C37 C 0.55898(16) 0.4790(3) 0.71793(16)
H27 H 0.5878 0.4835 0.7567
C38 C 0.48331(18) 0.4307(3) 0.63924(17)
H28 H 0.4496 0.3938 0.6132
C39_2 C 0.50834(19) 0.5105(3) 0.62515(17)
H29_2 H 0.4951 0.5394 0.5885
C40_2 C 0.77770(16) 0.6718(3) 0.83143(16)
H30_2 H 0.7507 0.6390 0.8441
C41_2 C 0.86146(18) 0.7325(4) 0.8300(2)
H31_2 H 0.9037 0.7488 0.8421
C42_2 C 0.81576(18) 0.7415(4) 0.77545(19)
H32_2 H 0.8197 0.7694 0.7435
C43_2 C 0.62787(15) 0.9444(2) 0.60773(16)
H33_2 H 0.6710 0.9411 0.6184
C44_2 C 0.53238(16) 0.9973(3) 0.57265(17)
C45_2 C 0.53291(16) 0.9117(3) 0.59951(17)
H35_2 H 0.4987 0.8811 0.6024
C46 C 0.58434(16) 0.2166(2) 0.83084(16)
C47 C 0.63661(15) 0.1611(2) 0.87909(15)
C48 C 0.70010(15) 0.1853(2) 0.89457(15)
H36 H 0.7101 0.2370 0.8754
C49 C 0.62225(15) 0.0840(2) 0.90780(15)
H37 H 0.5805 0.0657 0.8966
C50 C 0.74837(15) 0.1322(2) 0.93856(15)
C51 C 0.66955(14) 0.0334(2) 0.95320(15)
C52 C 0.73236(15) 0.0576(2) 0.96794(15)
H38 H 0.7640 0.0232 0.9980
C53 C 0.81621(15) 0.1538(2) 0.95556(15)
C54 C 0.84062(16) 0.2499(2) 0.97047(17)
H39 H 0.8138 0.3032 0.9670
C55 C 0.85748(16) 0.0766(3) 0.96027(17)
H40 H 0.8419 0.0119 0.9513
C56 C 0.92062(15) 0.0928(2) 0.97778(17)
H41 H 0.9470 0.0398 0.9795
C57 C 0.90464(15) 0.2661(3) 0.99043(16)
C58 C 0.94549(15) 0.1895(2) 0.99321(15)
Ni1_2 Ni -0.0000 0.19350(4) 0.2500
N1_2 N 0.01482(13) 0.0890(2) 0.19807(13)
O1_2 O 0.09785(11) 0.21238(18) 0.30456(11)
O2_2 O 0.02824(10) 0.30647(18) 0.31678(11)
O3 O 0.53634(10) 0.21032(16) 0.53413(11)
O4 O 0.54436(12) 0.35739(18) 0.49691(15)
O5 O 0.19410(10) 0.56127(18) 0.54040(10)
O6 O 0.10154(10) 0.58369(18) 0.46818(11)
O7 O 0.15485(12) 0.77706(18) 0.52579(14)
H1 H 0.1474 0.8283 0.5418
H2 H 0.1353 0.7854 0.4882
C7_2 C 0.05898(16) 0.0210(3) 0.21793(16)
H6_2 H 0.0878 0.0165 0.2567
C16_2 C 0.08434(16) 0.2834(2) 0.33084(16)
C17_2 C 0.13661(15) 0.3389(2) 0.37909(15)
C18_2 C 0.20010(15) 0.3147(2) 0.39457(15)
H15_2 H 0.2101 0.2630 0.3754
C19_2 C 0.12225(15) 0.4160(2) 0.40780(15)
H16_2 H 0.0805 0.4343 0.3966
C20_2 C 0.24837(15) 0.3678(2) 0.43856(15)
C21_2 C 0.16955(14) 0.4666(2) 0.45320(15)
C22_2 C 0.23236(15) 0.4424(2) 0.46794(15)
H17_2 H 0.2640 0.4768 0.4980
C23_2 C 0.31621(15) 0.3462(2) 0.45556(15)
C24_2 C 0.34062(16) 0.2501(2) 0.47047(17)
H18_2 H 0.3138 0.1968 0.4670
C25_2 C 0.35748(16) 0.4234(3) 0.46027(17)
H19_2 H 0.3419 0.4881 0.4513
C26_2 C 0.42062(15) 0.4072(2) 0.47778(17)
H20_2 H 0.4470 0.4602 0.4795
C27_2 C 0.40464(15) 0.2339(3) 0.49043(16)
H21_2 H 0.4206 0.1701 0.5023
C28_2 C 0.44549(15) 0.3105(2) 0.49321(15)
C29 C 0.51419(15) 0.2923(2) 0.50993(15)
C30 C 0.15433(15) 0.5418(2) 0.48861(16)
C38_2 C 0.01669(18) 0.0693(3) 0.36076(17)
H28_2 H 0.0504 0.1062 0.3868
O15 O 0.03634(10) 0.71032(16) 0.53413(11)
O10 O 0.46366(10) 0.21032(16) 0.96587(11)
O12 O 0.80590(10) 0.56127(18) 0.95960(10)
O14 O 0.84515(12) 0.77706(18) 0.97421(14)
H22 H 0.8526 0.8283 0.9582
H42 H 0.5794 0.1701 0.9977
C59 C 0.48581(15) 0.2923(2) 0.99007(15)
O16 O 0.96366(10) 0.71032(16) 0.96587(11)
O4_2 O 0.04436(12) 0.85739(18) 0.49691(15)
C29_2 C 0.01419(15) 0.7923(2) 0.50993(15)
O5_2 O 0.69410(10) 0.06127(18) 0.54040(10)
O6_2 O 0.60154(10) 0.08369(18) 0.46818(11)
O7_2 O 0.65485(12) 0.27706(18) 0.52579(14)
H1_2 H 0.6474 0.3283 0.5418
H2_2 H 0.6353 0.2854 0.4882
C30_2 C 0.65433(15) 0.0418(2) 0.48861(16)
O13 O 0.39846(10) 0.08369(18) 0.03182(11)
H23 H 0.3647 0.2854 0.0118
C60 C 0.34567(15) 0.0418(2) 0.01139(16)
O12_2 O 0.30590(10) 0.06127(18) 0.95960(10)
O14_2 O 0.34515(12) 0.27706(18) 0.97421(14)
H22_2 H 0.3526 0.3283 0.9582
C59_2 C 0.98581(15) 0.7923(2) 0.99007(15)
Ni3 Ni 0.12052(2) 0.35182(3) 0.04999(2)
O10_2 O 0.53634(10) 0.78968(16) 0.03413(11)
O12_3 O 0.19410(10) 0.43873(18) 0.04040(10)
O14_3 O 0.15485(12) 0.22294(18) 0.02579(14)
H22_3 H 0.1474 0.1717 0.0418
H42_2 H 0.4206 0.8299 0.0023
C59_3 C 0.51419(15) 0.7077(2) 0.00993(15)
Ni5 Ni 0.62052(2) 0.85182(3) 0.04999(2)
N14 N 0.16513(12) 0.30449(18) 0.13608(13)
N15 N 0.09073(12) 0.48493(17) 0.07637(12)
O16_2 O 0.03634(10) 0.28968(16) 0.03413(11)
Ni1_3 Ni 1.0000 0.80650(4) 0.7500
Ni2 Ni 0.87948(2) 0.35182(3) 0.45001(2)
N1_3 N 0.98518(13) 0.9110(2) 0.80193(13)
O1_3 O 0.90215(11) 0.78762(18) 0.69544(11)
O2_3 O 0.97176(10) 0.69353(18) 0.68322(11)
O3_2 O 0.46366(10) 0.78968(16) 0.46587(11)
O4_3 O 0.45564(12) 0.64261(18) 0.50309(15)
O5_3 O 0.80590(10) 0.43873(18) 0.45960(10)
O6_3 O 0.89846(10) 0.41631(18) 0.53182(11)
O7_3 O 0.84515(12) 0.22294(18) 0.47421(14)
H1_3 H 0.8526 0.1717 0.4582
H2_3 H 0.8647 0.2146 0.5118
C7_3 C 0.94102(16) 0.9790(3) 0.78207(16)
H6_3 H 0.9122 0.9835 0.7433
C16_3 C 0.91566(16) 0.7166(2) 0.66916(16)
C17_3 C 0.86339(15) 0.6611(2) 0.62091(15)
C18_3 C 0.79990(15) 0.6853(2) 0.60543(15)
H15_3 H 0.7899 0.7370 0.6246
C19_3 C 0.87775(15) 0.5840(2) 0.59220(15)
H16_3 H 0.9195 0.5657 0.6034
C20_3 C 0.75163(15) 0.6322(2) 0.56144(15)
C21_3 C 0.83045(14) 0.5334(2) 0.54680(15)
C22_3 C 0.76764(15) 0.5576(2) 0.53206(15)
H17_3 H 0.7360 0.5232 0.5020
C23_3 C 0.68379(15) 0.6538(2) 0.54444(15)
C24_3 C 0.65938(16) 0.7499(2) 0.52953(17)
H18_3 H 0.6862 0.8032 0.5330
C25_3 C 0.64252(16) 0.5766(3) 0.53973(17)
H19_3 H 0.6581 0.5119 0.5487
C26_3 C 0.57938(15) 0.5928(2) 0.52222(17)
H20_3 H 0.5530 0.5398 0.5205
C27_3 C 0.59536(15) 0.7661(3) 0.50957(16)
H21_3 H 0.5794 0.8299 0.4977
C28_3 C 0.55451(15) 0.6895(2) 0.50679(15)
C29_3 C 0.48581(15) 0.7077(2) 0.49007(15)
C30_3 C 0.84567(15) 0.4582(2) 0.51139(16)
C38_3 C 0.98331(18) 0.9307(3) 0.63924(17)
H28_3 H 0.9496 0.8938 0.6132
Ni4 Ni 0.37948(2) 0.85182(3) 0.45001(2)
N13 N 0.83487(12) 0.30449(18) 0.36392(13)
N16 N 0.90927(12) 0.48493(17) 0.42363(12)
O15_2 O 0.96366(10) 0.28968(16) 0.46587(11)
C59_4 C 0.01419(15) 0.2077(2) 0.00993(15)
O12_4 O 0.69410(10) 0.93873(18) 0.04040(10)
O14_4 O 0.65485(12) 0.72294(18) 0.02579(14)
H22_4 H 0.6474 0.6717 0.0418
N14_2 N 0.66513(12) 0.80449(18) 0.13608(13)
N15_2 N 0.59073(12) 0.98493(17) 0.07637(12)
O5_4 O 0.30590(10) 0.93873(18) 0.45960(10)
O6_4 O 0.39846(10) 0.91631(18) 0.53182(11)
O7_4 O 0.34515(12) 0.72294(18) 0.47421(14)
H1_4 H 0.3526 0.6717 0.4582
H2_4 H 0.3647 0.7146 0.5118
C30_4 C 0.34567(15) 0.9582(2) 0.51139(16)
O13_2 O 0.60154(10) 0.91631(18) 0.96818(11)
H23_2 H 0.6353 0.7146 0.9882
C60_2 C 0.65433(15) 0.9582(2) 0.98861(16)
N13_2 N 0.33487(12) 0.80449(18) 0.36392(13)
N16_2 N 0.40927(12) 0.98493(17) 0.42363(12)
O4_4 O 0.95564(12) 0.14261(18) 0.50309(15)
C29_4 C 0.98581(15) 0.2077(2) 0.49007(15)
N2_3 N 0.05792(13) 0.9584(2) 0.17595(13)
N4_3 N 0.26266(13) 0.7986(2) 0.27663(14)
N6_3 N 0.09420(12) 0.6230(2) 0.12237(13)
C1_3 C 0.07681(16) 0.7918(3) 0.14820(16)
H3_3 H 0.0353 0.7892 0.1206
C2_3 C 0.09917(17) 0.8758(3) 0.18284(16)
C3_3 C 0.16118(16) 0.8812(3) 0.22457(17)
H4_3 H 0.1762 0.9379 0.2476
C4_3 C 0.19990(16) 0.7990(3) 0.23070(17)
C5_3 C 0.17901(16) 0.7155(3) 0.19662(16)
H5_3 H 0.2059 0.6619 0.2011
C6_3 C 0.11667(15) 0.7121(2) 0.15503(15)
C9_3 C 0.00834(19) 0.9895(3) 0.12515(17)
C10_3 C 0.27770(16) 0.8282(3) 0.33143(16)
H9_3 H 0.2507 0.8610 0.3441
C11_3 C 0.36146(18) 0.7675(4) 0.3300(2)
H10_3 H 0.4037 0.7512 0.3421
C12_3 C 0.31576(18) 0.7585(4) 0.27545(19)
H11_3 H 0.3197 0.7306 0.2435
C13_3 C 0.12787(15) 0.5556(2) 0.10773(16)
H12_3 H 0.1710 0.5589 0.1184
C14_3 C 0.03238(16) 0.5027(3) 0.07265(17)
C15_3 C 0.03291(16) 0.5883(3) 0.09951(17)
H29_3 H 0.0049 0.9606 0.4115
H34_3 H 0.0025 0.4617 0.4457
H35_3 H 0.0013 0.6189 0.3976
H8_3 H 0.9951 0.9606 0.0885
H13_3 H 0.9975 0.4617 0.0543
H14_3 H 0.9987 0.6189 0.1024
N8_3 N 0.94208(13) 0.9584(2) 0.32405(13)
N10_3 N 0.73734(13) 0.7986(2) 0.22337(14)
N12_3 N 0.90580(12) 0.6230(2) 0.37763(13)
C31_3 C 0.92319(16) 0.7918(3) 0.35180(16)
H24_3 H 0.9647 0.7892 0.3794
C32_3 C 0.90083(17) 0.8758(3) 0.31716(16)
C33_3 C 0.83882(16) 0.8812(3) 0.27543(17)
H25_3 H 0.8238 0.9379 0.2524
C34_3 C 0.80010(16) 0.7990(3) 0.26930(17)
C35_3 C 0.82099(16) 0.7155(3) 0.30338(16)
H26_3 H 0.7941 0.6619 0.2989
C36_3 C 0.88333(15) 0.7121(2) 0.34497(15)
C39_3 C 0.99166(19) 0.9895(3) 0.37485(17)
C40_3 C 0.72230(16) 0.8282(3) 0.16857(16)
H30_3 H 0.7493 0.8610 0.1559
C41_3 C 0.63854(18) 0.7675(4) 0.1700(2)
H31_3 H 0.5963 0.7512 0.1579
C42_3 C 0.68424(18) 0.7585(4) 0.22455(19)
H32_3 H 0.6803 0.7306 0.2565
C43_3 C 0.87213(15) 0.5556(2) 0.39227(16)
H33_3 H 0.8290 0.5589 0.3816
C44_3 C 0.96762(16) 0.5027(3) 0.42735(17)
C45_3 C 0.96709(16) 0.5883(3) 0.40049(17)
Ni1_4 Ni 0.5000 0.69350(4) 0.2500
N1_4 N 0.51482(13) 0.5890(2) 0.19807(13)
N2_4 N 0.55792(13) 0.4584(2) 0.17595(13)
N4_4 N 0.76266(13) 0.2986(2) 0.27663(14)
N6_4 N 0.59420(12) 0.1230(2) 0.12237(13)
O1_4 O 0.59785(11) 0.71238(18) 0.30456(11)
O2_4 O 0.52824(10) 0.80647(18) 0.31678(11)
C1_4 C 0.57681(16) 0.2918(3) 0.14820(16)
H3_4 H 0.5353 0.2892 0.1206
C2_4 C 0.59917(17) 0.3758(3) 0.18284(16)
C3_4 C 0.66118(16) 0.3812(3) 0.22457(17)
H4_4 H 0.6762 0.4379 0.2476
C4_4 C 0.69990(16) 0.2990(3) 0.23070(17)
C5_4 C 0.67901(16) 0.2155(3) 0.19662(16)
H5_4 H 0.7059 0.1619 0.2011
C6_4 C 0.61667(15) 0.2121(2) 0.15503(15)
C7_4 C 0.55898(16) 0.5210(3) 0.21793(16)
H6_4 H 0.5878 0.5165 0.2567
C8_2 C 0.48331(18) 0.5693(3) 0.13924(17)
H7_2 H 0.4496 0.6062 0.1132
C9_4 C 0.50834(19) 0.4895(3) 0.12515(17)
H8_4 H 0.4951 0.4606 0.0885
C10_4 C 0.77770(16) 0.3282(3) 0.33143(16)
H9_4 H 0.7507 0.3610 0.3441
C11_4 C 0.86146(18) 0.2675(4) 0.3300(2)
H10_4 H 0.9037 0.2512 0.3421
C12_4 C 0.81576(18) 0.2585(4) 0.27545(19)
H11_4 H 0.8197 0.2306 0.2435
C13_4 C 0.62787(15) 0.0556(2) 0.10773(16)
H12_4 H 0.6710 0.0589 0.1184
C14_4 C 0.53238(16) 0.0027(3) 0.07265(17)
C15_4 C 0.53291(16) 0.0883(3) 0.09951(17)
H14_4 H 0.4987 0.1189 0.1024
C16_4 C 0.58434(16) 0.7834(2) 0.33084(16)
C17_4 C 0.63661(15) 0.8389(2) 0.37909(15)
C18_4 C 0.70010(15) 0.8147(2) 0.39457(15)
H15_4 H 0.7101 0.7630 0.3754
C19_4 C 0.62225(15) 0.9160(2) 0.40780(15)
H16_4 H 0.5805 0.9343 0.3966
C20_4 C 0.74837(15) 0.8678(2) 0.43856(15)
C21_4 C 0.66955(14) 0.9666(2) 0.45320(15)
C22_4 C 0.73236(15) 0.9424(2) 0.46794(15)
H17_4 H 0.7640 0.9768 0.4980
C23_4 C 0.81621(15) 0.8462(2) 0.45556(15)
C24_4 C 0.84062(16) 0.7501(2) 0.47047(17)
H18_4 H 0.8138 0.6968 0.4670
C25_4 C 0.85748(16) 0.9234(3) 0.46027(17)
H19_4 H 0.8419 0.9881 0.4513
C26_4 C 0.92062(15) 0.9072(2) 0.47778(17)
H20_4 H 0.9470 0.9602 0.4795
C27_4 C 0.90464(15) 0.7339(3) 0.49043(16)
H21_4 H 0.9206 0.6701 0.5023
C28_4 C 0.94549(15) 0.8105(2) 0.49321(15)
N7_2 N 0.48518(13) 0.5890(2) 0.30193(13)
N8_4 N 0.44208(13) 0.4584(2) 0.32405(13)
N10_4 N 0.23734(13) 0.2986(2) 0.22337(14)
N12_4 N 0.40580(12) 0.1230(2) 0.37763(13)
O8_2 O 0.40215(11) 0.71238(18) 0.19544(11)
O9_2 O 0.47176(10) 0.80647(18) 0.18322(11)
C31_4 C 0.42319(16) 0.2918(3) 0.35180(16)
H24_4 H 0.4647 0.2892 0.3794
C32_4 C 0.40083(17) 0.3758(3) 0.31716(16)
C33_4 C 0.33882(16) 0.3812(3) 0.27543(17)
H25_4 H 0.3238 0.4379 0.2524
C34_4 C 0.30010(16) 0.2990(3) 0.26930(17)
C35_4 C 0.32099(16) 0.2155(3) 0.30338(16)
H26_4 H 0.2941 0.1619 0.2989
C36_4 C 0.38333(15) 0.2121(2) 0.34497(15)
C37_2 C 0.44102(16) 0.5210(3) 0.28207(16)
H27_2 H 0.4122 0.5165 0.2433
C38_4 C 0.51669(18) 0.5693(3) 0.36076(17)
H28_4 H 0.5504 0.6062 0.3868
C39_4 C 0.49166(19) 0.4895(3) 0.37485(17)
H29_4 H 0.5049 0.4606 0.4115
C40_4 C 0.22230(16) 0.3282(3) 0.16857(16)
H30_4 H 0.2493 0.3610 0.1559
C41_4 C 0.13854(18) 0.2675(4) 0.1700(2)
H31_4 H 0.0963 0.2512 0.1579
C42_4 C 0.18424(18) 0.2585(4) 0.22455(19)
H32_4 H 0.1803 0.2306 0.2565
C43_4 C 0.37213(15) 0.0556(2) 0.39227(16)
H33_4 H 0.3290 0.0589 0.3816
C44_4 C 0.46762(16) 0.0027(3) 0.42735(17)
C45_4 C 0.46709(16) 0.0883(3) 0.40049(17)
H35_4 H 0.5013 0.1189 0.3976
C46_2 C 0.41566(16) 0.7834(2) 0.16916(16)
C47_2 C 0.36339(15) 0.8389(2) 0.12091(15)
C48_2 C 0.29990(15) 0.8147(2) 0.10543(15)
H36_2 H 0.2899 0.7630 0.1246
C49_2 C 0.37775(15) 0.9160(2) 0.09220(15)
H37_2 H 0.4195 0.9343 0.1034
C50_2 C 0.25163(15) 0.8678(2) 0.06144(15)
C51_2 C 0.33045(14) 0.9666(2) 0.04680(15)
C52_2 C 0.26764(15) 0.9424(2) 0.03206(15)
H38_2 H 0.2360 0.9768 0.0020
C53_2 C 0.18379(15) 0.8462(2) 0.04444(15)
C54_2 C 0.15938(16) 0.7501(2) 0.02953(17)
H39_2 H 0.1862 0.6968 0.0330
C55_2 C 0.14252(16) 0.9234(3) 0.03973(17)
H40_2 H 0.1581 0.9881 0.0487
C56_2 C 0.07938(15) 0.9072(2) 0.02222(17)
H41_2 H 0.0530 0.9602 0.0205
C57_2 C 0.09536(15) 0.7339(3) 0.00957(16)
C58_2 C 0.05451(15) 0.8105(2) 0.00679(15)
H13_4 H 0.4975 0.9617 0.0543
H34_4 H 0.5025 0.9617 0.4457
Ni1_5 Ni -0.0000 0.80650(4) 0.7500
C8_3 C 0.01669(18) 0.9307(3) 0.86076(17)
H7_3 H 0.0504 0.8938 0.8868
N7_3 N 0.01482(13) 0.9110(2) 0.69807(13)
O8_3 O 0.09785(11) 0.78762(18) 0.80456(11)
O9_3 O 0.02824(10) 0.69353(18) 0.81678(11)
O11 O 0.54436(12) 0.64261(18) 0.99691(15)
O13_3 O 0.10154(10) 0.41631(18) 0.96818(11)
H23_3 H 0.1353 0.2146 0.9882
C37_3 C 0.05898(16) 0.9790(3) 0.71793(16)
H27_3 H 0.0878 0.9835 0.7567
C46_3 C 0.08434(16) 0.7166(2) 0.83084(16)
C47_3 C 0.13661(15) 0.6611(2) 0.87909(15)
C48_3 C 0.20010(15) 0.6853(2) 0.89457(15)
H36_3 H 0.2101 0.7370 0.8754
C49_3 C 0.12225(15) 0.5840(2) 0.90780(15)
H37_3 H 0.0805 0.5657 0.8966
C50_3 C 0.24837(15) 0.6322(2) 0.93856(15)
C51_3 C 0.16955(14) 0.5334(2) 0.95320(15)
C52_3 C 0.23236(15) 0.5576(2) 0.96794(15)
H38_3 H 0.2640 0.5232 0.9980
C53_3 C 0.31621(15) 0.6538(2) 0.95556(15)
C54_3 C 0.34062(16) 0.7499(2) 0.97047(17)
H39_3 H 0.3138 0.8032 0.9670
C55_3 C 0.35748(16) 0.5766(3) 0.96027(17)
H40_3 H 0.3419 0.5119 0.9513
C56_3 C 0.42062(15) 0.5928(2) 0.97778(17)
H41_3 H 0.4470 0.5398 0.9795
C57_3 C 0.40464(15) 0.7661(3) 0.99043(16)
C58_3 C 0.44549(15) 0.6895(2) 0.99321(15)
C60_3 C 0.15433(15) 0.4582(2) 0.98861(16)
O11_2 O 0.04436(12) 0.14261(18) 0.99691(15)
H42_3 H 0.9206 0.3299 0.0023
Ni1_6 Ni 1.0000 0.19350(4) 0.2500
C8_4 C 0.98331(18) 0.0693(3) 0.13924(17)
H7_4 H 0.9496 0.1062 0.1132
N7_4 N 0.98518(13) 0.0890(2) 0.30193(13)
O8_4 O 0.90215(11) 0.21238(18) 0.19544(11)
O9_4 O 0.97176(10) 0.30647(18) 0.18322(11)
O11_3 O 0.45564(12) 0.35739(18) 0.00309(15)
O13_4 O 0.89846(10) 0.58369(18) 0.03182(11)
H23_4 H 0.8647 0.7854 0.0118
C37_4 C 0.94102(16) 0.0210(3) 0.28207(16)
H27_4 H 0.9122 0.0165 0.2433
C46_4 C 0.91566(16) 0.2834(2) 0.16916(16)
C47_4 C 0.86339(15) 0.3389(2) 0.12091(15)
C48_4 C 0.79990(15) 0.3147(2) 0.10543(15)
H36_4 H 0.7899 0.2630 0.1246
C49_4 C 0.87775(15) 0.4160(2) 0.09220(15)
H37_4 H 0.9195 0.4343 0.1034
C50_4 C 0.75163(15) 0.3678(2) 0.06144(15)
C51_4 C 0.83045(14) 0.4666(2) 0.04680(15)
C52_4 C 0.76764(15) 0.4424(2) 0.03206(15)
H38_4 H 0.7360 0.4768 0.0020
C53_4 C 0.68379(15) 0.3462(2) 0.04444(15)
C54_4 C 0.65938(16) 0.2501(2) 0.02953(17)
H39_4 H 0.6862 0.1968 0.0330
C55_4 C 0.64252(16) 0.4234(3) 0.03973(17)
H40_4 H 0.6581 0.4881 0.0487
C56_4 C 0.57938(15) 0.4072(2) 0.02222(17)
H41_4 H 0.5530 0.4602 0.0205
C57_4 C 0.59536(15) 0.2339(3) 0.00957(16)
C58_4 C 0.55451(15) 0.3105(2) 0.00679(15)
C60_4 C 0.84567(15) 0.5418(2) 0.01139(16)
H42_4 H 0.0794 0.6701 0.9977
O11_4 O 0.95564(12) 0.85739(18) 0.00309(15)
loop_
_geom_bond_atom_site_label_1
_geom_bond_atom_site_label_2
_geom_bond_site_symmetry_1
_geom_bond_site_symmetry_2
N8 C32 1_555 1_555
N9 C40 1_555 1_555
N10 C34 1_555 1_555
N11 C43 1_555 1_555
N12 C36 1_555 1_555
C31 H24 1_555 1_555
C32 C31 1_555 1_555
C33 C32 1_555 1_555
H25 C33 1_555 1_555
C34 C33 1_555 1_555
C35 C34 1_555 1_555
H26 C35 1_555 1_555
C36 C31 1_555 1_555
C39 N8 1_555 1_555
C40 N10 1_555 1_555
H30 C40 1_555 1_555
C41 N9 1_555 1_555
H31 C41 1_555 1_555
C42 N10 1_555 1_555
H32 C42 1_555 1_555
C43 N12 1_555 1_555
H33 C43 1_555 1_555
C44 N11 1_555 1_555
C45 N12 1_555 1_555
Ni6 N11 1_555 1_555
Ni9 N9 1_555 1_555
C35 C36 1_555 1_555
C41 C42 1_555 1_555
C44 C45 1_555 1_555
N2 C2 1_555 1_555
N3 C10 1_555 1_555
N4 C4 1_555 1_555
N5 C13 1_555 1_555
N6 C6 1_555 1_555
C1 H3 1_555 1_555
C2 C1 1_555 1_555
C3 C2 1_555 1_555
H4 C3 1_555 1_555
C4 C3 1_555 1_555
C5 C4 1_555 1_555
H5 C5 1_555 1_555
C6 C1 1_555 1_555
C9 N2 1_555 1_555
C10 N4 1_555 1_555
H9 C10 1_555 1_555
C11 N3 1_555 1_555
H10 C11 1_555 1_555
C12 N4 1_555 1_555
H11 C12 1_555 1_555
C13 N6 1_555 1_555
H12 C13 1_555 1_555
C14 N5 1_555 1_555
C15 N6 1_555 1_555
Ni7 N5 1_555 1_555
Ni8 N3 1_555 1_555
C5 C6 1_555 1_555
C11 C12 1_555 1_555
C14 C15 1_555 1_555
Ni8 N11_2 1_555 1_555
Ni9 N5_2 1_555 1_555
Ni1 N1 1_555 1_555
N1 C7 1_555 1_555
N2_2 C2_2 1_555 1_555
N3_2 C10_2 1_555 1_555
N4_2 C4_2 1_555 1_555
N6_2 C6_2 1_555 1_555
O1 Ni1 1_555 1_555
O2 Ni1 1_555 1_555
C1_2 H3_2 1_555 1_555
C2_2 C1_2 1_555 1_555
C3_2 C2_2 1_555 1_555
H4_2 C3_2 1_555 1_555
C4_2 C3_2 1_555 1_555
C5_2 C4_2 1_555 1_555
H5_2 C5_2 1_555 1_555
C6_2 C1_2 1_555 1_555
C7 N2_2 1_555 1_555
H6 C7 1_555 1_555
C8 N1 1_555 1_555
H7 C8 1_555 1_555
C9_2 N2_2 1_555 1_555
H8_2 C9_2 1_555 1_555
C10_2 N4_2 1_555 1_555
H9_2 C10_2 1_555 1_555
C11_2 N3_2 1_555 1_555
H10_2 C11_2 1_555 1_555
C12_2 N4_2 1_555 1_555
H11_2 C12_2 1_555 1_555
C13_2 N6_2 1_555 1_555
H12_2 C13_2 1_555 1_555
C15_2 N6_2 1_555 1_555
H14_2 C15_2 1_555 1_555
C16 O1 1_555 1_555
C17 C16 1_555 1_555
C18 C17 1_555 1_555
H15 C18 1_555 1_555
C19 C17 1_555 1_555
H16 C19 1_555 1_555
C20 C18 1_555 1_555
C21 C19 1_555 1_555
C22 C20 1_555 1_555
H17 C22 1_555 1_555
C23 C20 1_555 1_555
C24 C23 1_555 1_555
H18 C24 1_555 1_555
C25 C23 1_555 1_555
H19 C25 1_555 1_555
C26 C25 1_555 1_555
H20 C26 1_555 1_555
C27 C24 1_555 1_555
H21 C27 1_555 1_555
C28 C26 1_555 1_555
N7 Ni1 1_555 1_555
N8_2 C32_2 1_555 1_555
N9_2 C40_2 1_555 1_555
N10_2 C34_2 1_555 1_555
N12_2 C36_2 1_555 1_555
O8 Ni1 1_555 1_555
O9 Ni1 1_555 1_555
C31_2 H24_2 1_555 1_555
C32_2 C31_2 1_555 1_555
C33_2 C32_2 1_555 1_555
H25_2 C33_2 1_555 1_555
C34_2 C33_2 1_555 1_555
C35_2 C34_2 1_555 1_555
H26_2 C35_2 1_555 1_555
C36_2 C31_2 1_555 1_555
C37 N7 1_555 1_555
H27 C37 1_555 1_555
C38 N7 1_555 1_555
H28 C38 1_555 1_555
C39_2 N8_2 1_555 1_555
H29_2 C39_2 1_555 1_555
C40_2 N10_2 1_555 1_555
H30_2 C40_2 1_555 1_555
C41_2 N9_2 1_555 1_555
H31_2 C41_2 1_555 1_555
C42_2 N10_2 1_555 1_555
H32_2 C42_2 1_555 1_555
C43_2 N12_2 1_555 1_555
H33_2 C43_2 1_555 1_555
C45_2 N12_2 1_555 1_555
H35_2 C45_2 1_555 1_555
C46 O8 1_555 1_555
C47 C46 1_555 1_555
C48 C47 1_555 1_555
H36 C48 1_555 1_555
C49 C47 1_555 1_555
H37 C49 1_555 1_555
C50 C48 1_555 1_555
C51 C49 1_555 1_555
C52 C50 1_555 1_555
H38 C52 1_555 1_555
C53 C50 1_555 1_555
C54 C53 1_555 1_555
H39 C54 1_555 1_555
C55 C53 1_555 1_555
H40 C55 1_555 1_555
C56 C55 1_555 1_555
H41 C56 1_555 1_555
C57 C54 1_555 1_555
C58 C56 1_555 1_555
Ni6 N3_2 1_555 1_555
Ni7 N9_2 1_555 1_555
O2 C16 1_555 1_555
C5_2 C6_2 1_555 1_555
C8 C9_2 1_555 1_555
C11_2 C12_2 1_555 1_555
C14_2 C15_2 1_555 1_555
C21 C22 1_555 1_555
C27 C28 1_555 1_555
N8_2 C37 1_555 1_555
O9 C46 1_555 1_555
C35_2 C36_2 1_555 1_555
C38 C39_2 1_555 1_555
C41_2 C42_2 1_555 1_555
C44_2 C45_2 1_555 1_555
C51 C52 1_555 1_555
C57 C58 1_555 1_555
Ni1_2 N1_2 1_555 1_555
Ni6 O5 1_555 1_555
N1_2 C7_2 1_555 1_555
O1_2 Ni1_2 1_555 1_555
O2_2 Ni1_2 1_555 1_555
O3 C29 1_555 1_555
O4 C29 1_555 1_555
O5 C30 1_555 1_555
O6 Ni6 1_555 1_555
O7 Ni6 1_555 1_555
H1 O7 1_555 1_555
H2 O7 1_555 1_555
H6_2 C7_2 1_555 1_555
C16_2 O1_2 1_555 1_555
C17_2 C16_2 1_555 1_555
C18_2 C17_2 1_555 1_555
H15_2 C18_2 1_555 1_555
C19_2 C17_2 1_555 1_555
H16_2 C19_2 1_555 1_555
C20_2 C18_2 1_555 1_555
C21_2 C19_2 1_555 1_555
C22_2 C20_2 1_555 1_555
H17_2 C22_2 1_555 1_555
C23_2 C20_2 1_555 1_555
C24_2 C23_2 1_555 1_555
H18_2 C24_2 1_555 1_555
C25_2 C23_2 1_555 1_555
H19_2 C25_2 1_555 1_555
C26_2 C25_2 1_555 1_555
H20_2 C26_2 1_555 1_555
C27_2 C24_2 1_555 1_555
H21_2 C27_2 1_555 1_555
C28_2 C26_2 1_555 1_555
C29 C28_2 1_555 1_555
C30 O6 1_555 1_555
H28_2 C38_2 1_555 1_555
Ni8 O3 1_555 1_555
O15 Ni6 1_555 1_555
O2_2 C16_2 1_555 1_555
C21_2 C22_2 1_555 1_555
C21_2 C30 1_555 1_555
C27_2 C28_2 1_555 1_555
Ni7 O12 1_555 1_555
O10 C59 1_555 1_555
O14 Ni7 1_555 1_555
H22 O14 1_555 1_555
Ni9 O10 1_555 1_555
O16 Ni7 1_555 1_555
O15 C29_2 1_555 1_555
O4_2 C29_2 1_555 1_555
Ni8 O5_2 1_555 1_555
O5_2 C30_2 1_555 1_555
O6_2 Ni8 1_555 1_555
O7_2 Ni8 1_555 1_555
H1_2 O7_2 1_555 1_555
H2_2 O7_2 1_555 1_555
C30_2 O6_2 1_555 1_555
C60 O13 1_555 1_555
Ni9 O12_2 1_555 1_555
O14_2 Ni9 1_555 1_555
H22_2 O14_2 1_555 1_555
O16 C59_2 1_555 1_555
Ni3 O12_3 1_555 1_555
O10_2 C59_3 1_555 1_555
O14_3 Ni3 1_555 1_555
H22_3 O14_3 1_555 1_555
Ni5 O10_2 1_555 1_555
N14 Ni3 1_555 1_555
N15 Ni3 1_555 1_555
O16_2 Ni3 1_555 1_555
Ni1_3 N1_3 1_555 1_555
Ni2 O5_3 1_555 1_555
N1_3 C7_3 1_555 1_555
O1_3 Ni1_3 1_555 1_555
O2_3 Ni1_3 1_555 1_555
O3_2 C29_3 1_555 1_555
O4_3 C29_3 1_555 1_555
O5_3 C30_3 1_555 1_555
O6_3 Ni2 1_555 1_555
O7_3 Ni2 1_555 1_555
H1_3 O7_3 1_555 1_555
H2_3 O7_3 1_555 1_555
H6_3 C7_3 1_555 1_555
C16_3 O1_3 1_555 1_555
C17_3 C16_3 1_555 1_555
C18_3 C17_3 1_555 1_555
H15_3 C18_3 1_555 1_555
C19_3 C17_3 1_555 1_555
H16_3 C19_3 1_555 1_555
C20_3 C18_3 1_555 1_555
C21_3 C19_3 1_555 1_555
C22_3 C20_3 1_555 1_555
H17_3 C22_3 1_555 1_555
C23_3 C20_3 1_555 1_555
C24_3 C23_3 1_555 1_555
H18_3 C24_3 1_555 1_555
C25_3 C23_3 1_555 1_555
H19_3 C25_3 1_555 1_555
C26_3 C25_3 1_555 1_555
H20_3 C26_3 1_555 1_555
C27_3 C24_3 1_555 1_555
H21_3 C27_3 1_555 1_555
C28_3 C26_3 1_555 1_555
C29_3 C28_3 1_555 1_555
C30_3 O6_3 1_555 1_555
H28_3 C38_3 1_555 1_555
Ni4 O3_2 1_555 1_555
N13 Ni2 1_555 1_555
N16 Ni2 1_555 1_555
O15_2 Ni2 1_555 1_555
O2_3 C16_3 1_555 1_555
C21_3 C22_3 1_555 1_555
C21_3 C30_3 1_555 1_555
C27_3 C28_3 1_555 1_555
O16_2 C59_4 1_555 1_555
Ni5 O12_4 1_555 1_555
O14_4 Ni5 1_555 1_555
H22_4 O14_4 1_555 1_555
N14_2 Ni5 1_555 1_555
N15_2 Ni5 1_555 1_555
Ni4 O5_4 1_555 1_555
O5_4 C30_4 1_555 1_555
O6_4 Ni4 1_555 1_555
O7_4 Ni4 1_555 1_555
H1_4 O7_4 1_555 1_555
H2_4 O7_4 1_555 1_555
C30_4 O6_4 1_555 1_555
C60_2 O13_2 1_555 1_555
N13_2 Ni4 1_555 1_555
N16_2 Ni4 1_555 1_555
O15_2 C29_4 1_555 1_555
O4_4 C29_4 1_555 1_555
N2_3 C2_3 1_555 1_555
N13_2 C10_3 1_555 1_555
N4_3 C4_3 1_555 1_555
N15 C13_3 1_555 1_555
N6_3 C6_3 1_555 1_555
C1_3 H3_3 1_555 1_555
C2_3 C1_3 1_555 1_555
C3_3 C2_3 1_555 1_555
H4_3 C3_3 1_555 1_555
C4_3 C3_3 1_555 1_555
C5_3 C4_3 1_555 1_555
H5_3 C5_3 1_555 1_555
C6_3 C1_3 1_555 1_555
C9_3 N2_3 1_555 1_555
C10_3 N4_3 1_555 1_555
H9_3 C10_3 1_555 1_555
C11_3 N13_2 1_555 1_555
H10_3 C11_3 1_555 1_555
C12_3 N4_3 1_555 1_555
H11_3 C12_3 1_555 1_555
C13_3 N6_3 1_555 1_555
H12_3 C13_3 1_555 1_555
C14_3 N15 1_555 1_555
C15_3 N6_3 1_555 1_555
C5_3 C6_3 1_555 1_555
C11_3 C12_3 1_555 1_555
C14_3 C15_3 1_555 1_555
N8_3 C32_3 1_555 1_555
N14_2 C40_3 1_555 1_555
N10_3 C34_3 1_555 1_555
N16 C43_3 1_555 1_555
N12_3 C36_3 1_555 1_555
C31_3 H24_3 1_555 1_555
C32_3 C31_3 1_555 1_555
C33_3 C32_3 1_555 1_555
H25_3 C33_3 1_555 1_555
C34_3 C33_3 1_555 1_555
C35_3 C34_3 1_555 1_555
H26_3 C35_3 1_555 1_555
C36_3 C31_3 1_555 1_555
C39_3 N8_3 1_555 1_555
C40_3 N10_3 1_555 1_555
H30_3 C40_3 1_555 1_555
C41_3 N14_2 1_555 1_555
H31_3 C41_3 1_555 1_555
C42_3 N10_3 1_555 1_555
H32_3 C42_3 1_555 1_555
C43_3 N12_3 1_555 1_555
H33_3 C43_3 1_555 1_555
C44_3 N16 1_555 1_555
C45_3 N12_3 1_555 1_555
C35_3 C36_3 1_555 1_555
C41_3 C42_3 1_555 1_555
C44_3 C45_3 1_555 1_555
Ni1_4 N1_4 1_555 1_555
N1_4 C7_4 1_555 1_555
N2_4 C2_4 1_555 1_555
N13 C10_4 1_555 1_555
N4_4 C4_4 1_555 1_555
N6_4 C6_4 1_555 1_555
O1_4 Ni1_4 1_555 1_555
O2_4 Ni1_4 1_555 1_555
C1_4 H3_4 1_555 1_555
C2_4 C1_4 1_555 1_555
C3_4 C2_4 1_555 1_555
H4_4 C3_4 1_555 1_555
C4_4 C3_4 1_555 1_555
C5_4 C4_4 1_555 1_555
H5_4 C5_4 1_555 1_555
C6_4 C1_4 1_555 1_555
C7_4 N2_4 1_555 1_555
H6_4 C7_4 1_555 1_555
C8_2 N1_4 1_555 1_555
H7_2 C8_2 1_555 1_555
C9_4 N2_4 1_555 1_555
H8_4 C9_4 1_555 1_555
C10_4 N4_4 1_555 1_555
H9_4 C10_4 1_555 1_555
C11_4 N13 1_555 1_555
H10_4 C11_4 1_555 1_555
C12_4 N4_4 1_555 1_555
H11_4 C12_4 1_555 1_555
C13_4 N6_4 1_555 1_555
H12_4 C13_4 1_555 1_555
C15_4 N6_4 1_555 1_555
H14_4 C15_4 1_555 1_555
C16_4 O1_4 1_555 1_555
C17_4 C16_4 1_555 1_555
C18_4 C17_4 1_555 1_555
H15_4 C18_4 1_555 1_555
C19_4 C17_4 1_555 1_555
H16_4 C19_4 1_555 1_555
C20_4 C18_4 1_555 1_555
C21_4 C19_4 1_555 1_555
C22_4 C20_4 1_555 1_555
H17_4 C22_4 1_555 1_555
C23_4 C20_4 1_555 1_555
C24_4 C23_4 1_555 1_555
H18_4 C24_4 1_555 1_555
C25_4 C23_4 1_555 1_555
H19_4 C25_4 1_555 1_555
C26_4 C25_4 1_555 1_555
H20_4 C26_4 1_555 1_555
C27_4 C24_4 1_555 1_555
H21_4 C27_4 1_555 1_555
C28_4 C26_4 1_555 1_555
N7_2 Ni1_4 1_555 1_555
N8_4 C32_4 1_555 1_555
N14 C40_4 1_555 1_555
N10_4 C34_4 1_555 1_555
N12_4 C36_4 1_555 1_555
O8_2 Ni1_4 1_555 1_555
O9_2 Ni1_4 1_555 1_555
C31_4 H24_4 1_555 1_555
C32_4 C31_4 1_555 1_555
C33_4 C32_4 1_555 1_555
H25_4 C33_4 1_555 1_555
C34_4 C33_4 1_555 1_555
C35_4 C34_4 1_555 1_555
H26_4 C35_4 1_555 1_555
C36_4 C31_4 1_555 1_555
C37_2 N7_2 1_555 1_555
H27_2 C37_2 1_555 1_555
C38_4 N7_2 1_555 1_555
H28_4 C38_4 1_555 1_555
C39_4 N8_4 1_555 1_555
H29_4 C39_4 1_555 1_555
C40_4 N10_4 1_555 1_555
H30_4 C40_4 1_555 1_555
C41_4 N14 1_555 1_555
H31_4 C41_4 1_555 1_555
C42_4 N10_4 1_555 1_555
H32_4 C42_4 1_555 1_555
C43_4 N12_4 1_555 1_555
H33_4 C43_4 1_555 1_555
C45_4 N12_4 1_555 1_555
H35_4 C45_4 1_555 1_555
C46_2 O8_2 1_555 1_555
C47_2 C46_2 1_555 1_555
C48_2 C47_2 1_555 1_555
H36_2 C48_2 1_555 1_555
C49_2 C47_2 1_555 1_555
H37_2 C49_2 1_555 1_555
C50_2 C48_2 1_555 1_555
C51_2 C49_2 1_555 1_555
C52_2 C50_2 1_555 1_555
H38_2 C52_2 1_555 1_555
C53_2 C50_2 1_555 1_555
C54_2 C53_2 1_555 1_555
H39_2 C54_2 1_555 1_555
C55_2 C53_2 1_555 1_555
H40_2 C55_2 1_555 1_555
C56_2 C55_2 1_555 1_555
H41_2 C56_2 1_555 1_555
C57_2 C54_2 1_555 1_555
C58_2 C56_2 1_555 1_555
O2_4 C16_4 1_555 1_555
C5_4 C6_4 1_555 1_555
C8_2 C9_4 1_555 1_555
C11_4 C12_4 1_555 1_555
C14_4 C15_4 1_555 1_555
C21_4 C22_4 1_555 1_555
C27_4 C28_4 1_555 1_555
N8_4 C37_2 1_555 1_555
O9_2 C46_2 1_555 1_555
C35_4 C36_4 1_555 1_555
C38_4 C39_4 1_555 1_555
C41_4 C42_4 1_555 1_555
C44_4 C45_4 1_555 1_555
C51_2 C52_2 1_555 1_555
C57_2 C58_2 1_555 1_555
H7_3 C8_3 1_555 1_555
N7_3 Ni1_5 1_555 1_555
O8_3 Ni1_5 1_555 1_555
O9_3 Ni1_5 1_555 1_555
C37_3 N7_3 1_555 1_555
H27_3 C37_3 1_555 1_555
C46_3 O8_3 1_555 1_555
C47_3 C46_3 1_555 1_555
C48_3 C47_3 1_555 1_555
H36_3 C48_3 1_555 1_555
C49_3 C47_3 1_555 1_555
H37_3 C49_3 1_555 1_555
C50_3 C48_3 1_555 1_555
C51_3 C49_3 1_555 1_555
C52_3 C50_3 1_555 1_555
H38_3 C52_3 1_555 1_555
C53_3 C50_3 1_555 1_555
C54_3 C53_3 1_555 1_555
H39_3 C54_3 1_555 1_555
C55_3 C53_3 1_555 1_555
H40_3 C55_3 1_555 1_555
C56_3 C55_3 1_555 1_555
H41_3 C56_3 1_555 1_555
C57_3 C54_3 1_555 1_555
C58_3 C56_3 1_555 1_555
C60_3 O13_3 1_555 1_555
O9_3 C46_3 1_555 1_555
C51_3 C52_3 1_555 1_555
C51_3 C60_3 1_555 1_555
C57_3 C58_3 1_555 1_555
H7_4 C8_4 1_555 1_555
N7_4 Ni1_6 1_555 1_555
O8_4 Ni1_6 1_555 1_555
O9_4 Ni1_6 1_555 1_555
C37_4 N7_4 1_555 1_555
H27_4 C37_4 1_555 1_555
C46_4 O8_4 1_555 1_555
C47_4 C46_4 1_555 1_555
C48_4 C47_4 1_555 1_555
H36_4 C48_4 1_555 1_555
C49_4 C47_4 1_555 1_555
H37_4 C49_4 1_555 1_555
C50_4 C48_4 1_555 1_555
C51_4 C49_4 1_555 1_555
C52_4 C50_4 1_555 1_555
H38_4 C52_4 1_555 1_555
C53_4 C50_4 1_555 1_555
C54_4 C53_4 1_555 1_555
H39_4 C54_4 1_555 1_555
C55_4 C53_4 1_555 1_555
H40_4 C55_4 1_555 1_555
C56_4 C55_4 1_555 1_555
H41_4 C56_4 1_555 1_555
C57_4 C54_4 1_555 1_555
C58_4 C56_4 1_555 1_555
C60_4 O13_4 1_555 1_555
O9_4 C46_4 1_555 1_555
C51_4 C52_4 1_555 1_555
C51_4 C60_4 1_555 1_555
C57_4 C58_4 1_555 1_555

#END
