
###############################################################################
#
# This file contains modified crystal structure data generated from the
# MOF subset of the Cambridge Structural Database (CSD) v543 
# hosted by the Cambridge Crystallographic Data Centre (CCDC).
#
# This work is licensed under the Creative Commons
# Attribution-NonCommercial-ShareAlike 4.0 International License.
# To view a copy of this license, visit
# http://creativecommons.org/licenses/by-nc-sa/4.0/
# or send a letter to
# Creative Commons, PO Box 1866, Mountain View, CA 94042, USA.
#
# CIF created using the CSD Python API on 29 September 2022
# The structure has been converted into the P1 space group
# The structure has a 3D framework
# The original CSD entry EBAVOV is in the monoclinic crystal system
# The framework has been calculated to contain at least 10.0% void space
# The void calculation uses a probe of radius 1.32A, grid spacing 0.4
#
###############################################################################

data_EBAVOV
_chemical_formula_moiety         '(C240 H168 Co14 N48 O52)n'
_symmetry_cell_setting           triclinic
_symmetry_space_group_name_H-M   'P 1'
_symmetry_Int_Tables_number      1
_space_group_name_Hall           'P 1'
loop_
_symmetry_equiv_pos_site_id
_symmetry_equiv_pos_as_xyz
1 x,y,z
_cell_length_a                   23.9792(7)
_cell_length_b                   13.3721(4)
_cell_length_c                   24.2227(9)
_cell_angle_alpha                90
_cell_angle_beta                 112.7060(10)
_cell_angle_gamma                90
_cell_volume                     7165.1
loop_
_atom_site_label
_atom_site_type_symbol
_atom_site_fract_x
_atom_site_fract_y
_atom_site_fract_z
O12 O 0.03482(7) 0.78801(11) 0.53561(8)
O13 O 0.03978(8) 0.64231(13) 0.49301(11)
C60 C 0.01240(10) 0.70702(17) 0.50984(11)
Co8 Co 0.11612(2) 0.85133(2) 0.54841(2)
Co2 Co 0.38388(2) 0.64867(2) 0.45159(2)
N2 N 0.43073(9) 0.03028(15) 0.32051(10)
N3 N 0.41212(8) 0.51671(14) 0.42087(9)
N4 N 0.40792(8) 0.37280(14) 0.37504(9)
N5 N 0.16367(9) 0.19137(15) 0.13697(10)
N6 N 0.23904(9) 0.20641(15) 0.22457(10)
O7 O 0.35300(8) 0.78154(13) 0.47965(10)
H1 H 0.3861 0.8273 0.4965
H2 H 0.3371 0.7647 0.5093
C1 C 0.33422(11) 0.1159(2) 0.27375(13)
H3 H 0.3177 0.0591 0.2512
C2 C 0.39372(11) 0.11755(18) 0.31365(12)
C3 C 0.41920(11) 0.20081(18) 0.34805(12)
H4 H 0.4595 0.2006 0.3745
C4 C 0.38330(11) 0.28437(17) 0.34217(11)
C5 C 0.32345(11) 0.28562(18) 0.30232(12)
H5 H 0.2997 0.3422 0.2987
C6 C 0.29968(11) 0.20209(18) 0.26823(12)
H8 H 0.4892 0.0295 0.4095
C10 C 0.37708(10) 0.44363(17) 0.39144(12)
H9 H 0.3358 0.4407 0.3828
C11 C 0.46883(10) 0.49191(18) 0.42383(13)
H10 H 0.5033 0.5306 0.4422
C12 C 0.46742(11) 0.4039(2) 0.39652(13)
H11 H 0.4999 0.3708 0.3928
C13 C 0.22033(11) 0.16775(19) 0.16938(12)
H12 H 0.2444 0.1289 0.1556
C14 C 0.14554(12) 0.2487(2) 0.17434(14)
H13 H 0.1073 0.2765 0.1639
C15 C 0.19116(12) 0.2588(2) 0.22820(14)
H14 H 0.1904 0.2940 0.2611
Co3 Co 0.61612(2) 0.64867(2) 0.04841(2)
N8 N 0.56927(9) 0.03028(15) 0.17949(10)
N9 N 0.58788(8) 0.51671(14) 0.07913(9)
N10 N 0.59208(8) 0.37280(14) 0.12496(9)
N11 N 0.83633(9) 0.19137(15) 0.36303(10)
N12 N 0.76096(9) 0.20641(15) 0.27543(10)
O14 O 0.64700(8) 0.78154(13) 0.02035(10)
H22 H 0.6139 0.8273 0.0035
C31 C 0.66578(11) 0.1159(2) 0.22625(13)
H24 H 0.6823 0.0591 0.2488
C32 C 0.60628(11) 0.11755(18) 0.18635(12)
C33 C 0.58080(11) 0.20081(18) 0.15195(12)
H25 H 0.5405 0.2006 0.1255
C34 C 0.61670(11) 0.28437(17) 0.15783(11)
C35 C 0.67655(11) 0.28562(18) 0.19768(12)
H26 H 0.7003 0.3422 0.2013
C36 C 0.70032(11) 0.20209(18) 0.23177(12)
H29 H 0.5108 0.0295 0.0905
C40 C 0.62292(10) 0.44363(17) 0.10856(12)
H30 H 0.6642 0.4407 0.1172
C41 C 0.53117(10) 0.49191(18) 0.07617(13)
H31 H 0.4967 0.5306 0.0578
C42 C 0.53258(11) 0.4039(2) 0.10348(13)
H32 H 0.5001 0.3708 0.1072
C43 C 0.77967(11) 0.16775(19) 0.33062(12)
H33 H 0.7556 0.1289 0.3444
C44 C 0.85446(12) 0.2487(2) 0.32566(14)
H34 H 0.8927 0.2765 0.3361
C45 C 0.80884(12) 0.2588(2) 0.27180(14)
H35 H 0.8096 0.2940 0.2389
Co4 Co 0.88388(2) 0.14867(2) 0.45159(2)
Co5 Co 0.11612(2) 0.14867(2) 0.04841(2)
N13 N 0.66367(9) 0.69137(15) 0.13697(10)
N14 N 0.33633(9) 0.69137(15) 0.36303(10)
O16 O 0.39666(7) 0.57582(13) 0.53586(8)
O17 O 0.69151(7) 0.56481(13) 0.03880(8)
O18 O 0.30849(7) 0.56481(13) 0.46120(8)
O19 O 0.53482(7) 0.71199(11) 0.03561(8)
O20 O 0.46518(7) 0.71199(11) 0.46439(8)
H23 H 0.6629 0.7647 0.9907
O15 O 0.60334(7) 0.57582(13) 0.96414(8)
Co1 Co 0.5000 0.80023(3) 0.2500
N1 N 0.47050(9) 0.89662(15) 0.29765(10)
O1 O 0.44414(7) 0.70887(13) 0.19066(8)
O2 O 0.37583(8) 0.82878(14) 0.16850(10)
O3 O 0.39666(7) 0.42418(13) 0.03586(8)
C7 C 0.42866(11) 0.96595(17) 0.27700(12)
H6 H 0.4012 0.9700 0.2375
C8 C 0.50085(12) 0.9178(2) 0.35732(12)
H7 H 0.5331 0.8810 0.3836
C9 C 0.47693(12) 0.9997(2) 0.37197(13)
C16 C 0.39153(10) 0.74319(18) 0.16138(11)
C17 C 0.34723(10) 0.67476(17) 0.11603(11)
C18 C 0.36636(10) 0.59334(17) 0.09194(11)
H15 H 0.4072 0.5772 0.1059
C19 C 0.32454(10) 0.53617(17) 0.04707(11)
C20 C 0.26290(10) 0.55638(17) 0.02923(11)
C21 C 0.24269(10) 0.63437(16) 0.05466(11)
C22 C 0.28549(10) 0.69508(17) 0.09675(11)
H17 H 0.2727 0.7501 0.1123
C23 C 0.34461(10) 0.45956(17) 0.01356(12)
C24 C 0.17700(10) 0.65291(17) 0.03624(11)
C25 C 0.15367(10) 0.74961(17) 0.02439(12)
H18 H 0.1796 0.8034 0.0285
C26 C 0.09241(10) 0.76618(17) 0.00654(12)
C27 C 0.05325(10) 0.68785(16) 0.00331(11)
C28 C 0.07662(10) 0.59157(17) 0.01530(12)
H20 H 0.0510 0.5382 0.0130
C29 C 0.13748(10) 0.57426(17) 0.03058(12)
H21 H 0.1522 0.5091 0.0372
N7 N 0.52950(9) 0.89662(15) 0.20235(10)
O8 O 0.55586(7) 0.70887(13) 0.30934(8)
O9 O 0.62417(8) 0.82878(14) 0.33150(10)
O10 O 0.60334(7) 0.42418(13) 0.46414(8)
O11 O 0.69151(7) 0.43519(13) 0.53880(8)
C37 C 0.57134(11) 0.96595(17) 0.22300(12)
H27 H 0.5988 0.9700 0.2625
C38 C 0.49915(12) 0.9178(2) 0.14268(12)
H28 H 0.4669 0.8810 0.1164
C39 C 0.52307(12) 0.9997(2) 0.12803(13)
C46 C 0.60847(10) 0.74319(18) 0.33862(11)
C47 C 0.65277(10) 0.67476(17) 0.38397(11)
C48 C 0.63364(10) 0.59334(17) 0.40806(11)
H36 H 0.5928 0.5772 0.3941
C49 C 0.67546(10) 0.53617(17) 0.45293(11)
C50 C 0.73710(10) 0.55638(17) 0.47077(11)
H37 H 0.7651 0.5170 0.5001
C51 C 0.75731(10) 0.63437(16) 0.44534(11)
C52 C 0.71451(10) 0.69508(17) 0.40325(11)
H38 H 0.7273 0.7501 0.3877
C53 C 0.65539(10) 0.45956(17) 0.48644(12)
C54 C 0.82300(10) 0.65291(17) 0.46376(11)
C55 C 0.84633(10) 0.74961(17) 0.47561(12)
H39 H 0.8204 0.8034 0.4715
C56 C 0.90759(10) 0.76618(17) 0.49346(12)
H40 H 0.9228 0.8306 0.5034
C57 C 0.94675(10) 0.68785(16) 0.49669(11)
C58 C 0.92338(10) 0.59157(17) 0.48470(12)
H41 H 0.9490 0.5382 0.4870
C59 C 0.86252(10) 0.57426(17) 0.46942(12)
H42 H 0.8478 0.5091 0.4628
Co6 Co 0.61612(2) 0.35133(2) 0.54841(2)
O4 O 0.30849(7) 0.43519(13) 0.96120(8)
H16 H 0.2349 0.5170 0.9999
H19 H 0.0772 0.8306 0.9966
Co7 Co 0.38388(2) 0.35133(2) 0.95159(2)
O5 O 0.96518(7) 0.78801(11) 0.96439(8)
C30 C 0.98760(10) 0.70702(17) 0.99016(11)
Co9 Co 0.88388(2) 0.85133(2) 0.95159(2)
H10_2 H 0.0033 0.0306 0.4422
N9_2 N 0.08788(8) 0.01671(14) 0.07913(9)
O14_2 O 0.14700(8) 0.28154(13) 0.02035(10)
H22_2 H 0.1139 0.3273 0.0035
O17_2 O 0.19151(7) 0.06481(13) 0.03880(8)
O19_2 O 0.03482(7) 0.21199(11) 0.03561(8)
Co1_2 Co 0.0000 0.30023(3) 0.2500
C8_2 C 0.00085(12) 0.4178(2) 0.35732(12)
H7_2 H 0.0331 0.3810 0.3836
N7_2 N 0.02950(9) 0.39662(15) 0.20235(10)
N8_2 N 0.06927(9) 0.53028(15) 0.17949(10)
N10_2 N 0.09208(8) 0.87280(14) 0.12496(9)
N12_2 N 0.26096(9) 0.70641(15) 0.27543(10)
O8_2 O 0.05586(7) 0.20887(13) 0.30934(8)
O9_2 O 0.12417(8) 0.32878(14) 0.33150(10)
O12_2 O 0.53482(7) 0.28801(11) 0.53561(8)
O13_2 O 0.53978(8) 0.14231(13) 0.49301(11)
C31_2 C 0.16578(11) 0.6159(2) 0.22625(13)
H24_2 H 0.1823 0.5591 0.2488
C32_2 C 0.10628(11) 0.61755(18) 0.18635(12)
C33_2 C 0.08080(11) 0.70081(18) 0.15195(12)
H25_2 H 0.0405 0.7006 0.1255
C34_2 C 0.11670(11) 0.78437(17) 0.15783(11)
C35_2 C 0.17655(11) 0.78562(18) 0.19768(12)
H26_2 H 0.2003 0.8422 0.2013
C36_2 C 0.20032(11) 0.70209(18) 0.23177(12)
C37_2 C 0.07134(11) 0.46595(17) 0.22300(12)
H27_2 H 0.0988 0.4700 0.2625
C39_2 C 0.02307(12) 0.4997(2) 0.12803(13)
H29_2 H 0.0108 0.5295 0.0905
C40_2 C 0.12292(10) 0.94363(17) 0.10856(12)
H30_2 H 0.1642 0.9407 0.1172
C41_2 C 0.03117(10) 0.99191(18) 0.07617(13)
C42_2 C 0.03258(11) 0.9039(2) 0.10348(13)
H32_2 H 0.0001 0.8708 0.1072
C43_2 C 0.27967(11) 0.66775(19) 0.33062(12)
H33_2 H 0.2556 0.6289 0.3444
C44_2 C 0.35446(12) 0.7487(2) 0.32566(14)
H34_2 H 0.3927 0.7765 0.3361
C45_2 C 0.30884(12) 0.7588(2) 0.27180(14)
H35_2 H 0.3096 0.7940 0.2389
C46_2 C 0.10847(10) 0.24319(18) 0.33862(11)
C47_2 C 0.15277(10) 0.17476(17) 0.38397(11)
C48_2 C 0.13364(10) 0.09334(17) 0.40806(11)
H36_2 H 0.0928 0.0772 0.3941
C49_2 C 0.17546(10) 0.03617(17) 0.45293(11)
C50_2 C 0.23710(10) 0.05638(17) 0.47077(11)
H37_2 H 0.2651 0.0170 0.5001
C51_2 C 0.25731(10) 0.13437(16) 0.44534(11)
C52_2 C 0.21451(10) 0.19508(17) 0.40325(11)
H38_2 H 0.2273 0.2501 0.3877
C54_2 C 0.32300(10) 0.15291(17) 0.46376(11)
C55_2 C 0.34633(10) 0.24961(17) 0.47561(12)
H39_2 H 0.3204 0.3034 0.4715
C56_2 C 0.40759(10) 0.26618(17) 0.49346(12)
H40_2 H 0.4228 0.3306 0.5034
C57_2 C 0.44675(10) 0.18785(16) 0.49669(11)
C58_2 C 0.42338(10) 0.09157(17) 0.48470(12)
H41_2 H 0.4490 0.0382 0.4870
C59_2 C 0.36252(10) 0.07426(17) 0.46942(12)
H42_2 H 0.3478 0.0091 0.4628
C60_2 C 0.51240(10) 0.20702(17) 0.50984(11)
O10_2 O 0.10334(7) 0.92418(13) 0.46414(8)
O11_2 O 0.19151(7) 0.93519(13) 0.53880(8)
C53_2 C 0.15539(10) 0.95956(17) 0.48644(12)
N3_2 N 0.91212(8) 0.01671(14) 0.42087(9)
O7_2 O 0.85300(8) 0.28154(13) 0.47965(10)
H1_2 H 0.8861 0.3273 0.4965
H2_2 H 0.8371 0.2647 0.5093
H31_2 H 0.9967 0.0306 0.0578
O16_2 O 0.89666(7) 0.07582(13) 0.53586(8)
O18_2 O 0.80849(7) 0.06481(13) 0.46120(8)
O20_2 O 0.96518(7) 0.21199(11) 0.46439(8)
Co1_3 Co 1.0000 0.30023(3) 0.2500
N1_2 N 0.97050(9) 0.39662(15) 0.29765(10)
N2_2 N 0.93073(9) 0.53028(15) 0.32051(10)
N4_2 N 0.90792(8) 0.87280(14) 0.37504(9)
N6_2 N 0.73904(9) 0.70641(15) 0.22457(10)
O1_2 O 0.94414(7) 0.20887(13) 0.19066(8)
O2_2 O 0.87583(8) 0.32878(14) 0.16850(10)
O6 O 0.46022(8) 0.14231(13) 0.00699(11)
C1_2 C 0.83422(11) 0.6159(2) 0.27375(13)
H3_2 H 0.8177 0.5591 0.2512
C2_2 C 0.89372(11) 0.61755(18) 0.31365(12)
C3_2 C 0.91920(11) 0.70081(18) 0.34805(12)
H4_2 H 0.9595 0.7006 0.3745
C4_2 C 0.88330(11) 0.78437(17) 0.34217(11)
C5_2 C 0.82345(11) 0.78562(18) 0.30232(12)
H5_2 H 0.7997 0.8422 0.2987
C6_2 C 0.79968(11) 0.70209(18) 0.26823(12)
C7_2 C 0.92866(11) 0.46595(17) 0.27700(12)
H6_2 H 0.9012 0.4700 0.2375
C9_2 C 0.97693(12) 0.4997(2) 0.37197(13)
H8_2 H 0.9892 0.5295 0.4095
C10_2 C 0.87708(10) 0.94363(17) 0.39144(12)
H9_2 H 0.8358 0.9407 0.3828
C11_2 C 0.96883(10) 0.99191(18) 0.42383(13)
C12_2 C 0.96742(11) 0.9039(2) 0.39652(13)
H11_2 H 0.9999 0.8708 0.3928
C13_2 C 0.72033(11) 0.66775(19) 0.16938(12)
H12_2 H 0.7444 0.6289 0.1556
C14_2 C 0.64554(12) 0.7487(2) 0.17434(14)
H13_2 H 0.6073 0.7765 0.1639
C15_2 C 0.69116(12) 0.7588(2) 0.22820(14)
H14_2 H 0.6904 0.7940 0.2611
C16_2 C 0.89153(10) 0.24319(18) 0.16138(11)
C17_2 C 0.84723(10) 0.17476(17) 0.11603(11)
C18_2 C 0.86636(10) 0.09334(17) 0.09194(11)
H15_2 H 0.9072 0.0772 0.1059
C19_2 C 0.82454(10) 0.03617(17) 0.04707(11)
C20_2 C 0.76290(10) 0.05638(17) 0.02923(11)
C21_2 C 0.74269(10) 0.13437(16) 0.05466(11)
C22_2 C 0.78549(10) 0.19508(17) 0.09675(11)
H17_2 H 0.7727 0.2501 0.1123
C24_2 C 0.67700(10) 0.15291(17) 0.03624(11)
C25_2 C 0.65367(10) 0.24961(17) 0.02439(12)
H18_2 H 0.6796 0.3034 0.0285
C26_2 C 0.59241(10) 0.26618(17) 0.00654(12)
C27_2 C 0.55325(10) 0.18785(16) 0.00331(11)
C28_2 C 0.57662(10) 0.09157(17) 0.01530(12)
H20_2 H 0.5510 0.0382 0.0130
C29_2 C 0.63748(10) 0.07426(17) 0.03058(12)
H21_2 H 0.6522 0.0091 0.0372
C38_2 C 0.99915(12) 0.4178(2) 0.14268(12)
H28_2 H 0.9669 0.3810 0.1164
O5_2 O 0.46518(7) 0.28801(11) 0.96439(8)
H16_2 H 0.7349 0.0170 0.9999
H19_2 H 0.5772 0.3306 0.9966
C30_2 C 0.48760(10) 0.20702(17) 0.99016(11)
O4_2 O 0.80849(7) 0.93519(13) 0.96120(8)
C30_3 C 0.01240(10) 0.29298(17) 0.00984(11)
H16_3 H 0.7651 0.4830 0.0001
H19_3 H 0.9228 0.1694 0.0034
Co1_4 Co 0.5000 0.19977(3) 0.7500
N1_3 N 0.52950(9) 0.10338(15) 0.70235(10)
O1_3 O 0.55586(7) 0.29113(13) 0.80934(8)
O2_3 O 0.62417(8) 0.17122(14) 0.83150(10)
C7_3 C 0.57134(11) 0.03405(17) 0.72300(12)
H6_3 H 0.5988 0.0300 0.7625
C8_3 C 0.49915(12) 0.0822(2) 0.64268(12)
H7_3 H 0.4669 0.1190 0.6164
C9_3 C 0.52307(12) 0.0003(2) 0.62803(13)
C16_3 C 0.60847(10) 0.25681(18) 0.83862(11)
C17_3 C 0.65277(10) 0.32524(17) 0.88397(11)
C18_3 C 0.63364(10) 0.40666(17) 0.90806(11)
H15_3 H 0.5928 0.4228 0.8941
C19_3 C 0.67546(10) 0.46383(17) 0.95293(11)
C20_3 C 0.73710(10) 0.44362(17) 0.97077(11)
C21_3 C 0.75731(10) 0.36563(16) 0.94534(11)
C22_3 C 0.71451(10) 0.30492(17) 0.90325(11)
H17_3 H 0.7273 0.2499 0.8877
C23_2 C 0.65539(10) 0.54044(17) 0.98644(12)
C24_3 C 0.82300(10) 0.34709(17) 0.96376(11)
C25_3 C 0.84633(10) 0.25039(17) 0.97561(12)
H18_3 H 0.8204 0.1966 0.9715
C26_3 C 0.90759(10) 0.23382(17) 0.99346(12)
C27_3 C 0.94675(10) 0.31215(16) 0.99669(11)
C28_3 C 0.92338(10) 0.40843(17) 0.98470(12)
H20_3 H 0.9490 0.4618 0.9870
C29_3 C 0.86252(10) 0.42574(17) 0.96942(12)
H21_3 H 0.8478 0.4909 0.9628
N7_3 N 0.47050(9) 0.10338(15) 0.79765(10)
O8_3 O 0.44414(7) 0.29113(13) 0.69066(8)
O9_3 O 0.37583(8) 0.17122(14) 0.66850(10)
C37_3 C 0.42866(11) 0.03405(17) 0.77700(12)
H27_3 H 0.4012 0.0300 0.7375
C38_3 C 0.50085(12) 0.0822(2) 0.85732(12)
H28_3 H 0.5331 0.1190 0.8836
C39_3 C 0.47693(12) 0.0003(2) 0.87197(13)
C46_3 C 0.39153(10) 0.25681(18) 0.66138(11)
C47_3 C 0.34723(10) 0.32524(17) 0.61603(11)
C48_3 C 0.36636(10) 0.40666(17) 0.59194(11)
H36_3 H 0.4072 0.4228 0.6059
C49_3 C 0.32454(10) 0.46383(17) 0.54707(11)
C50_3 C 0.26290(10) 0.44362(17) 0.52923(11)
H37_3 H 0.2349 0.4830 0.4999
C51_3 C 0.24269(10) 0.36563(16) 0.55466(11)
C52_3 C 0.28549(10) 0.30492(17) 0.59675(11)
H38_3 H 0.2727 0.2499 0.6123
C53_3 C 0.34461(10) 0.54044(17) 0.51356(12)
C54_3 C 0.17700(10) 0.34709(17) 0.53624(11)
C55_3 C 0.15367(10) 0.25039(17) 0.52439(12)
H39_3 H 0.1796 0.1966 0.5285
C56_3 C 0.09241(10) 0.23382(17) 0.50654(12)
H40_3 H 0.0772 0.1694 0.4966
C57_3 C 0.05325(10) 0.31215(16) 0.50331(11)
C58_3 C 0.07662(10) 0.40843(17) 0.51530(12)
H41_3 H 0.0510 0.4618 0.5130
C59_3 C 0.13748(10) 0.42574(17) 0.53058(12)
H42_3 H 0.1522 0.4909 0.5372
H23_2 H 0.3371 0.2353 0.0093
N2_3 N 0.56927(9) 0.96972(15) 0.67949(10)
N3_3 N 0.58788(8) 0.48329(14) 0.57913(9)
N4_3 N 0.59208(8) 0.62720(14) 0.62496(9)
N5_2 N 0.83633(9) 0.80863(15) 0.86303(10)
N6_3 N 0.76096(9) 0.79359(15) 0.77543(10)
O7_3 O 0.64700(8) 0.21846(13) 0.52035(10)
H1_3 H 0.6139 0.1727 0.5035
H2_3 H 0.6629 0.2353 0.4907
C1_3 C 0.66578(11) 0.8841(2) 0.72625(13)
H3_3 H 0.6823 0.9409 0.7488
C2_3 C 0.60628(11) 0.88245(18) 0.68635(12)
C3_3 C 0.58080(11) 0.79919(18) 0.65195(12)
H4_3 H 0.5405 0.7994 0.6255
C4_3 C 0.61670(11) 0.71563(17) 0.65783(11)
C5_3 C 0.67655(11) 0.71438(18) 0.69768(12)
H5_3 H 0.7003 0.6578 0.7013
C6_3 C 0.70032(11) 0.79791(18) 0.73177(12)
H8_3 H 0.5108 0.9705 0.5905
C10_3 C 0.62292(10) 0.55637(17) 0.60856(12)
H9_3 H 0.6642 0.5593 0.6172
C11_3 C 0.53117(10) 0.50809(18) 0.57617(13)
H10_3 H 0.4967 0.4694 0.5578
C12_3 C 0.53258(11) 0.5961(2) 0.60348(13)
H11_3 H 0.5001 0.6292 0.6072
C13_3 C 0.77967(11) 0.83225(19) 0.83062(12)
H12_3 H 0.7556 0.8711 0.8444
C14_3 C 0.85446(12) 0.7513(2) 0.82566(14)
H13_3 H 0.8927 0.7235 0.8361
C15_3 C 0.80884(12) 0.7412(2) 0.77180(14)
H14_3 H 0.8096 0.7060 0.7389
N8_3 N 0.43073(9) 0.96972(15) 0.82051(10)
N9_3 N 0.41212(8) 0.48329(14) 0.92087(9)
N10_3 N 0.40792(8) 0.62720(14) 0.87504(9)
N11_2 N 0.16367(9) 0.80863(15) 0.63697(10)
N12_3 N 0.23904(9) 0.79359(15) 0.72457(10)
O14_3 O 0.35300(8) 0.21846(13) 0.97965(10)
H22_3 H 0.3861 0.1727 0.9965
C31_3 C 0.33422(11) 0.8841(2) 0.77375(13)
H24_3 H 0.3177 0.9409 0.7512
C32_3 C 0.39372(11) 0.88245(18) 0.81365(12)
C33_3 C 0.41920(11) 0.79919(18) 0.84805(12)
H25_3 H 0.4595 0.7994 0.8745
C34_3 C 0.38330(11) 0.71563(17) 0.84217(11)
C35_3 C 0.32345(11) 0.71438(18) 0.80232(12)
H26_3 H 0.2997 0.6578 0.7987
C36_3 C 0.29968(11) 0.79791(18) 0.76823(12)
H29_3 H 0.4892 0.9705 0.9095
C40_3 C 0.37708(10) 0.55637(17) 0.89144(12)
H30_3 H 0.3358 0.5593 0.8828
C41_3 C 0.46883(10) 0.50809(18) 0.92383(13)
H31_3 H 0.5033 0.4694 0.9422
C42_3 C 0.46742(11) 0.5961(2) 0.89652(13)
H32_3 H 0.4999 0.6292 0.8928
C43_3 C 0.22033(11) 0.83225(19) 0.66938(12)
H33_3 H 0.2444 0.8711 0.6556
C44_3 C 0.14554(12) 0.7513(2) 0.67434(14)
H34_3 H 0.1073 0.7235 0.6639
C45_3 C 0.19116(12) 0.7412(2) 0.72820(14)
H35_3 H 0.1904 0.7060 0.7611
N13_2 N 0.33633(9) 0.30863(15) 0.86303(10)
N14_2 N 0.66367(9) 0.30863(15) 0.63697(10)
O13_3 O 0.96022(8) 0.35769(13) 0.50699(11)
C60_3 C 0.98760(10) 0.29298(17) 0.49016(11)
H16_4 H 0.2651 0.9830 0.0001
H19_4 H 0.4228 0.6694 0.0034
C30_4 C 0.51240(10) 0.79298(17) 0.00984(11)
Co1_5 Co 0.0000 0.69977(3) 0.7500
N1_4 N 0.02950(9) 0.60338(15) 0.70235(10)
N2_4 N 0.06927(9) 0.46972(15) 0.67949(10)
N4_4 N 0.09208(8) 0.12720(14) 0.62496(9)
N6_4 N 0.26096(9) 0.29359(15) 0.77543(10)
O1_4 O 0.05586(7) 0.79113(13) 0.80934(8)
O2_4 O 0.12417(8) 0.67122(14) 0.83150(10)
O6_2 O 0.53978(8) 0.85769(13) 0.99301(11)
C1_4 C 0.16578(11) 0.3841(2) 0.72625(13)
H3_4 H 0.1823 0.4409 0.7488
C2_4 C 0.10628(11) 0.38245(18) 0.68635(12)
C3_4 C 0.08080(11) 0.29919(18) 0.65195(12)
H4_4 H 0.0405 0.2994 0.6255
C4_4 C 0.11670(11) 0.21563(17) 0.65783(11)
C5_4 C 0.17655(11) 0.21438(18) 0.69768(12)
H5_4 H 0.2003 0.1578 0.7013
C6_4 C 0.20032(11) 0.29791(18) 0.73177(12)
C7_4 C 0.07134(11) 0.53405(17) 0.72300(12)
H6_4 H 0.0988 0.5300 0.7625
C9_4 C 0.02307(12) 0.5003(2) 0.62803(13)
H8_4 H 0.0108 0.4705 0.5905
C10_4 C 0.12292(10) 0.05637(17) 0.60856(12)
H9_4 H 0.1642 0.0593 0.6172
C11_4 C 0.03117(10) 0.00809(18) 0.57617(13)
C12_4 C 0.03258(11) 0.0961(2) 0.60348(13)
H11_4 H 0.0001 0.1292 0.6072
C13_4 C 0.27967(11) 0.33225(19) 0.83062(12)
H12_4 H 0.2556 0.3711 0.8444
C14_4 C 0.35446(12) 0.2513(2) 0.82566(14)
H13_4 H 0.3927 0.2235 0.8361
C15_4 C 0.30884(12) 0.2412(2) 0.77180(14)
H14_4 H 0.3096 0.2060 0.7389
C16_4 C 0.10847(10) 0.75681(18) 0.83862(11)
C17_4 C 0.15277(10) 0.82524(17) 0.88397(11)
C18_4 C 0.13364(10) 0.90666(17) 0.90806(11)
H15_4 H 0.0928 0.9228 0.8941
C19_4 C 0.17546(10) 0.96383(17) 0.95293(11)
C20_4 C 0.23710(10) 0.94362(17) 0.97077(11)
C21_4 C 0.25731(10) 0.86563(16) 0.94534(11)
C22_4 C 0.21451(10) 0.80492(17) 0.90325(11)
H17_4 H 0.2273 0.7499 0.8877
C24_4 C 0.32300(10) 0.84709(17) 0.96376(11)
C25_4 C 0.34633(10) 0.75039(17) 0.97561(12)
H18_4 H 0.3204 0.6966 0.9715
C26_4 C 0.40759(10) 0.73382(17) 0.99346(12)
C27_4 C 0.44675(10) 0.81215(16) 0.99669(11)
C28_4 C 0.42338(10) 0.90843(17) 0.98470(12)
H20_4 H 0.4490 0.9618 0.9870
C29_4 C 0.36252(10) 0.92574(17) 0.96942(12)
H21_4 H 0.3478 0.9909 0.9628
C38_4 C 0.00085(12) 0.5822(2) 0.85732(12)
H28_4 H 0.0331 0.6190 0.8836
N3_4 N 0.08788(8) 0.98329(14) 0.57913(9)
O7_4 O 0.14700(8) 0.71846(13) 0.52035(10)
H1_4 H 0.1139 0.6727 0.5035
H2_4 H 0.1629 0.7353 0.4907
H31_4 H 0.0033 0.9694 0.9422
C53_4 C 0.84461(10) 0.04044(17) 0.51356(12)
Co1_6 Co 1.0000 0.69977(3) 0.7500
C8_4 C 0.99915(12) 0.5822(2) 0.64268(12)
H7_4 H 0.9669 0.6190 0.6164
N7_4 N 0.97050(9) 0.60338(15) 0.79765(10)
N8_4 N 0.93073(9) 0.46972(15) 0.82051(10)
N10_4 N 0.90792(8) 0.12720(14) 0.87504(9)
N12_4 N 0.73904(9) 0.29359(15) 0.72457(10)
O8_4 O 0.94414(7) 0.79113(13) 0.69066(8)
O9_4 O 0.87583(8) 0.67122(14) 0.66850(10)
O13_4 O 0.46022(8) 0.85769(13) 0.50699(11)
C31_4 C 0.83422(11) 0.3841(2) 0.77375(13)
H24_4 H 0.8177 0.4409 0.7512
C32_4 C 0.89372(11) 0.38245(18) 0.81365(12)
C33_4 C 0.91920(11) 0.29919(18) 0.84805(12)
H25_4 H 0.9595 0.2994 0.8745
C34_4 C 0.88330(11) 0.21563(17) 0.84217(11)
C35_4 C 0.82345(11) 0.21438(18) 0.80232(12)
H26_4 H 0.7997 0.1578 0.7987
C36_4 C 0.79968(11) 0.29791(18) 0.76823(12)
C37_4 C 0.92866(11) 0.53405(17) 0.77700(12)
H27_4 H 0.9012 0.5300 0.7375
C39_4 C 0.97693(12) 0.5003(2) 0.87197(13)
H29_4 H 0.9892 0.4705 0.9095
C40_4 C 0.87708(10) 0.05637(17) 0.89144(12)
H30_4 H 0.8358 0.0593 0.8828
C41_4 C 0.96883(10) 0.00809(18) 0.92383(13)
C42_4 C 0.96742(11) 0.0961(2) 0.89652(13)
H32_4 H 0.9999 0.1292 0.8928
C43_4 C 0.72033(11) 0.33225(19) 0.66938(12)
H33_4 H 0.7444 0.3711 0.6556
C44_4 C 0.64554(12) 0.2513(2) 0.67434(14)
H34_4 H 0.6073 0.2235 0.6639
C45_4 C 0.69116(12) 0.2412(2) 0.72820(14)
H35_4 H 0.6904 0.2060 0.7611
C46_4 C 0.89153(10) 0.75681(18) 0.66138(11)
C47_4 C 0.84723(10) 0.82524(17) 0.61603(11)
C48_4 C 0.86636(10) 0.90666(17) 0.59194(11)
H36_4 H 0.9072 0.9228 0.6059
C49_4 C 0.82454(10) 0.96383(17) 0.54707(11)
C50_4 C 0.76290(10) 0.94362(17) 0.52923(11)
H37_4 H 0.7349 0.9830 0.4999
C51_4 C 0.74269(10) 0.86563(16) 0.55466(11)
C52_4 C 0.78549(10) 0.80492(17) 0.59675(11)
H38_4 H 0.7727 0.7499 0.6123
C54_4 C 0.67700(10) 0.84709(17) 0.53624(11)
C55_4 C 0.65367(10) 0.75039(17) 0.52439(12)
H39_4 H 0.6796 0.6966 0.5285
C56_4 C 0.59241(10) 0.73382(17) 0.50654(12)
H40_4 H 0.5772 0.6694 0.4966
C57_4 C 0.55325(10) 0.81215(16) 0.50331(11)
C58_4 C 0.57662(10) 0.90843(17) 0.51530(12)
H41_4 H 0.5510 0.9618 0.5130
C59_4 C 0.63748(10) 0.92574(17) 0.53058(12)
H42_4 H 0.6522 0.9909 0.5372
C60_4 C 0.48760(10) 0.79298(17) 0.49016(11)
H10_4 H 0.9967 0.9694 0.5578
N9_4 N 0.91212(8) 0.98329(14) 0.92087(9)
O14_4 O 0.85300(8) 0.71846(13) 0.97965(10)
H22_4 H 0.8861 0.6727 0.9965
O6_3 O 0.96022(8) 0.64231(13) 0.00699(11)
H23_3 H 0.1629 0.2647 0.9907
O15_2 O 0.10334(7) 0.07582(13) 0.96414(8)
C23_3 C 0.15539(10) 0.04044(17) 0.98644(12)
O3_2 O 0.89666(7) 0.92418(13) 0.03586(8)
C23_4 C 0.84461(10) 0.95956(17) 0.01356(12)
H23_4 H 0.8371 0.7353 0.0093
O6_4 O 0.03978(8) 0.35769(13) 0.99301(11)
loop_
_geom_bond_atom_site_label_1
_geom_bond_atom_site_label_2
_geom_bond_site_symmetry_1
_geom_bond_site_symmetry_2
O12 C60 1_555 1_555
O13 C60 1_555 1_555
Co8 O12 1_555 1_555
Co2 N3 1_555 1_555
N2 C2 1_555 1_555
N3 C10 1_555 1_555
N4 C4 1_555 1_555
N5 C13 1_555 1_555
N6 C6 1_555 1_555
O7 Co2 1_555 1_555
H1 O7 1_555 1_555
H2 O7 1_555 1_555
C1 H3 1_555 1_555
C2 C1 1_555 1_555
C3 C2 1_555 1_555
H4 C3 1_555 1_555
C4 C3 1_555 1_555
C5 C4 1_555 1_555
H5 C5 1_555 1_555
C6 C1 1_555 1_555
C10 N4 1_555 1_555
H9 C10 1_555 1_555
C11 N3 1_555 1_555
H10 C11 1_555 1_555
C12 N4 1_555 1_555
H11 C12 1_555 1_555
C13 N6 1_555 1_555
H12 C13 1_555 1_555
C14 N5 1_555 1_555
H13 C14 1_555 1_555
C15 N6 1_555 1_555
H14 C15 1_555 1_555
Co3 N9 1_555 1_555
N8 C32 1_555 1_555
N9 C40 1_555 1_555
N10 C34 1_555 1_555
N11 C43 1_555 1_555
N12 C36 1_555 1_555
O14 Co3 1_555 1_555
H22 O14 1_555 1_555
C31 H24 1_555 1_555
C32 C31 1_555 1_555
C33 C32 1_555 1_555
H25 C33 1_555 1_555
C34 C33 1_555 1_555
C35 C34 1_555 1_555
H26 C35 1_555 1_555
C36 C31 1_555 1_555
C40 N10 1_555 1_555
H30 C40 1_555 1_555
C41 N9 1_555 1_555
H31 C41 1_555 1_555
C42 N10 1_555 1_555
H32 C42 1_555 1_555
C43 N12 1_555 1_555
H33 C43 1_555 1_555
C44 N11 1_555 1_555
H34 C44 1_555 1_555
C45 N12 1_555 1_555
H35 C45 1_555 1_555
Co4 N11 1_555 1_555
Co5 N5 1_555 1_555
N13 Co3 1_555 1_555
N14 Co2 1_555 1_555
O16 Co2 1_555 1_555
O17 Co3 1_555 1_555
O18 Co2 1_555 1_555
O19 Co3 1_555 1_555
O20 Co2 1_555 1_555
C5 C6 1_555 1_555
C11 C12 1_555 1_555
C14 C15 1_555 1_555
C35 C36 1_555 1_555
C41 C42 1_555 1_555
C44 C45 1_555 1_555
Co1 N1 1_555 1_555
N1 C7 1_555 1_555
O1 Co1 1_555 1_555
O2 C16 1_555 1_555
O3 C23 1_555 1_555
H6 C7 1_555 1_555
C8 N1 1_555 1_555
H7 C8 1_555 1_555
C16 O1 1_555 1_555
C17 C16 1_555 1_555
C18 C17 1_555 1_555
H15 C18 1_555 1_555
C19 C18 1_555 1_555
C20 C19 1_555 1_555
C21 C20 1_555 1_555
C22 C17 1_555 1_555
H17 C22 1_555 1_555
C23 C19 1_555 1_555
C24 C21 1_555 1_555
C25 C24 1_555 1_555
H18 C25 1_555 1_555
C26 C25 1_555 1_555
C27 C26 1_555 1_555
C28 C27 1_555 1_555
H20 C28 1_555 1_555
C29 C24 1_555 1_555
H21 C29 1_555 1_555
N7 Co1 1_555 1_555
O8 Co1 1_555 1_555
O9 C46 1_555 1_555
O10 C53 1_555 1_555
O11 C53 1_555 1_555
C37 N7 1_555 1_555
H27 C37 1_555 1_555
C38 N7 1_555 1_555
H28 C38 1_555 1_555
C46 O8 1_555 1_555
C47 C46 1_555 1_555
C48 C47 1_555 1_555
H36 C48 1_555 1_555
C49 C48 1_555 1_555
C50 C49 1_555 1_555
H37 C50 1_555 1_555
C51 C50 1_555 1_555
C52 C47 1_555 1_555
H38 C52 1_555 1_555
C53 C49 1_555 1_555
C54 C51 1_555 1_555
C55 C54 1_555 1_555
H39 C55 1_555 1_555
C56 C55 1_555 1_555
H40 C56 1_555 1_555
C57 C56 1_555 1_555
C58 C57 1_555 1_555
H41 C58 1_555 1_555
C59 C54 1_555 1_555
H42 C59 1_555 1_555
Co6 O10 1_555 1_555
C8 C9 1_555 1_555
C21 C22 1_555 1_555
C28 C29 1_555 1_555
O11 Co6 1_555 1_555
C38 C39 1_555 1_555
C51 C52 1_555 1_555
C58 C59 1_555 1_555
O4 Co7 1_555 1_555
O5 C30 1_555 1_555
Co9 O5 1_555 1_555
Co5 N9_2 1_555 1_555
O14_2 Co5 1_555 1_555
H22_2 O14_2 1_555 1_555
O17_2 Co5 1_555 1_555
O19_2 Co5 1_555 1_555
H7_2 C8_2 1_555 1_555
N7_2 Co1_2 1_555 1_555
N8_2 C32_2 1_555 1_555
N10_2 C34_2 1_555 1_555
N14 C43_2 1_555 1_555
N12_2 C36_2 1_555 1_555
O8_2 Co1_2 1_555 1_555
O9_2 C46_2 1_555 1_555
O12_2 C60_2 1_555 1_555
O13_2 C60_2 1_555 1_555
C31_2 H24_2 1_555 1_555
C32_2 C31_2 1_555 1_555
C33_2 C32_2 1_555 1_555
H25_2 C33_2 1_555 1_555
C34_2 C33_2 1_555 1_555
C35_2 C34_2 1_555 1_555
H26_2 C35_2 1_555 1_555
C36_2 C31_2 1_555 1_555
C37_2 N7_2 1_555 1_555
H27_2 C37_2 1_555 1_555
C39_2 N8_2 1_555 1_555
H29_2 C39_2 1_555 1_555
C40_2 N10_2 1_555 1_555
H30_2 C40_2 1_555 1_555
C42_2 N10_2 1_555 1_555
H32_2 C42_2 1_555 1_555
C43_2 N12_2 1_555 1_555
H33_2 C43_2 1_555 1_555
C44_2 N14 1_555 1_555
H34_2 C44_2 1_555 1_555
C45_2 N12_2 1_555 1_555
H35_2 C45_2 1_555 1_555
C46_2 O8_2 1_555 1_555
C47_2 C46_2 1_555 1_555
C48_2 C47_2 1_555 1_555
H36_2 C48_2 1_555 1_555
C49_2 C48_2 1_555 1_555
C50_2 C49_2 1_555 1_555
H37_2 C50_2 1_555 1_555
C51_2 C50_2 1_555 1_555
C52_2 C47_2 1_555 1_555
H38_2 C52_2 1_555 1_555
C54_2 C51_2 1_555 1_555
C55_2 C54_2 1_555 1_555
H39_2 C55_2 1_555 1_555
C56_2 C55_2 1_555 1_555
H40_2 C56_2 1_555 1_555
C57_2 C56_2 1_555 1_555
C58_2 C57_2 1_555 1_555
H41_2 C58_2 1_555 1_555
C59_2 C54_2 1_555 1_555
H42_2 C59_2 1_555 1_555
C60_2 C57_2 1_555 1_555
Co6 O12_2 1_555 1_555
N8_2 C37_2 1_555 1_555
C35_2 C36_2 1_555 1_555
C41_2 C42_2 1_555 1_555
C44_2 C45_2 1_555 1_555
C51_2 C52_2 1_555 1_555
C58_2 C59_2 1_555 1_555
O10_2 C53_2 1_555 1_555
O11_2 C53_2 1_555 1_555
Co8 O10_2 1_555 1_555
O11_2 Co8 1_555 1_555
Co4 N3_2 1_555 1_555
O7_2 Co4 1_555 1_555
H1_2 O7_2 1_555 1_555
H2_2 O7_2 1_555 1_555
O16_2 Co4 1_555 1_555
O18_2 Co4 1_555 1_555
O20_2 Co4 1_555 1_555
Co1_3 N1_2 1_555 1_555
N1_2 C7_2 1_555 1_555
N2_2 C2_2 1_555 1_555
N4_2 C4_2 1_555 1_555
N13 C13_2 1_555 1_555
N6_2 C6_2 1_555 1_555
O1_2 Co1_3 1_555 1_555
O2_2 C16_2 1_555 1_555
C1_2 H3_2 1_555 1_555
C2_2 C1_2 1_555 1_555
C3_2 C2_2 1_555 1_555
H4_2 C3_2 1_555 1_555
C4_2 C3_2 1_555 1_555
C5_2 C4_2 1_555 1_555
H5_2 C5_2 1_555 1_555
C6_2 C1_2 1_555 1_555
C7_2 N2_2 1_555 1_555
H6_2 C7_2 1_555 1_555
C9_2 N2_2 1_555 1_555
H8_2 C9_2 1_555 1_555
C10_2 N4_2 1_555 1_555
H9_2 C10_2 1_555 1_555
C12_2 N4_2 1_555 1_555
H11_2 C12_2 1_555 1_555
C13_2 N6_2 1_555 1_555
H12_2 C13_2 1_555 1_555
C14_2 N13 1_555 1_555
H13_2 C14_2 1_555 1_555
C15_2 N6_2 1_555 1_555
H14_2 C15_2 1_555 1_555
C16_2 O1_2 1_555 1_555
C17_2 C16_2 1_555 1_555
C18_2 C17_2 1_555 1_555
H15_2 C18_2 1_555 1_555
C19_2 C18_2 1_555 1_555
C20_2 C19_2 1_555 1_555
C21_2 C20_2 1_555 1_555
C22_2 C17_2 1_555 1_555
H17_2 C22_2 1_555 1_555
C24_2 C21_2 1_555 1_555
C25_2 C24_2 1_555 1_555
H18_2 C25_2 1_555 1_555
C26_2 C25_2 1_555 1_555
C27_2 C26_2 1_555 1_555
C28_2 C27_2 1_555 1_555
H20_2 C28_2 1_555 1_555
C29_2 C24_2 1_555 1_555
H21_2 C29_2 1_555 1_555
H28_2 C38_2 1_555 1_555
C5_2 C6_2 1_555 1_555
C11_2 C12_2 1_555 1_555
C14_2 C15_2 1_555 1_555
C21_2 C22_2 1_555 1_555
C28_2 C29_2 1_555 1_555
O5_2 C30_2 1_555 1_555
Co7 O5_2 1_555 1_555
O4_2 Co9 1_555 1_555
O19_2 C30_3 1_555 1_555
Co1_4 N1_3 1_555 1_555
N1_3 C7_3 1_555 1_555
O1_3 Co1_4 1_555 1_555
O2_3 C16_3 1_555 1_555
O15 C23_2 1_555 1_555
H6_3 C7_3 1_555 1_555
C8_3 N1_3 1_555 1_555
H7_3 C8_3 1_555 1_555
C16_3 O1_3 1_555 1_555
C17_3 C16_3 1_555 1_555
C18_3 C17_3 1_555 1_555
H15_3 C18_3 1_555 1_555
C19_3 C18_3 1_555 1_555
C20_3 C19_3 1_555 1_555
C21_3 C20_3 1_555 1_555
C22_3 C17_3 1_555 1_555
H17_3 C22_3 1_555 1_555
C23_2 C19_3 1_555 1_555
C24_3 C21_3 1_555 1_555
C25_3 C24_3 1_555 1_555
H18_3 C25_3 1_555 1_555
C26_3 C25_3 1_555 1_555
C27_3 C26_3 1_555 1_555
C28_3 C27_3 1_555 1_555
H20_3 C28_3 1_555 1_555
C29_3 C24_3 1_555 1_555
H21_3 C29_3 1_555 1_555
N7_3 Co1_4 1_555 1_555
O8_3 Co1_4 1_555 1_555
O9_3 C46_3 1_555 1_555
O16 C53_3 1_555 1_555
O18 C53_3 1_555 1_555
C37_3 N7_3 1_555 1_555
H27_3 C37_3 1_555 1_555
C38_3 N7_3 1_555 1_555
H28_3 C38_3 1_555 1_555
C46_3 O8_3 1_555 1_555
C47_3 C46_3 1_555 1_555
C48_3 C47_3 1_555 1_555
H36_3 C48_3 1_555 1_555
C49_3 C48_3 1_555 1_555
C50_3 C49_3 1_555 1_555
H37_3 C50_3 1_555 1_555
C51_3 C50_3 1_555 1_555
C52_3 C47_3 1_555 1_555
H38_3 C52_3 1_555 1_555
C53_3 C49_3 1_555 1_555
C54_3 C51_3 1_555 1_555
C55_3 C54_3 1_555 1_555
H39_3 C55_3 1_555 1_555
C56_3 C55_3 1_555 1_555
H40_3 C56_3 1_555 1_555
C57_3 C56_3 1_555 1_555
C58_3 C57_3 1_555 1_555
H41_3 C58_3 1_555 1_555
C59_3 C54_3 1_555 1_555
H42_3 C59_3 1_555 1_555
C8_3 C9_3 1_555 1_555
C21_3 C22_3 1_555 1_555
C28_3 C29_3 1_555 1_555
C38_3 C39_3 1_555 1_555
C51_3 C52_3 1_555 1_555
C58_3 C59_3 1_555 1_555
Co6 N3_3 1_555 1_555
N2_3 C2_3 1_555 1_555
N3_3 C10_3 1_555 1_555
N4_3 C4_3 1_555 1_555
N5_2 C13_3 1_555 1_555
N6_3 C6_3 1_555 1_555
O7_3 Co6 1_555 1_555
H1_3 O7_3 1_555 1_555
H2_3 O7_3 1_555 1_555
C1_3 H3_3 1_555 1_555
C2_3 C1_3 1_555 1_555
C3_3 C2_3 1_555 1_555
H4_3 C3_3 1_555 1_555
C4_3 C3_3 1_555 1_555
C5_3 C4_3 1_555 1_555
H5_3 C5_3 1_555 1_555
C6_3 C1_3 1_555 1_555
C10_3 N4_3 1_555 1_555
H9_3 C10_3 1_555 1_555
C11_3 N3_3 1_555 1_555
H10_3 C11_3 1_555 1_555
C12_3 N4_3 1_555 1_555
H11_3 C12_3 1_555 1_555
C13_3 N6_3 1_555 1_555
H12_3 C13_3 1_555 1_555
C14_3 N5_2 1_555 1_555
H13_3 C14_3 1_555 1_555
C15_3 N6_3 1_555 1_555
H14_3 C15_3 1_555 1_555
Co7 N9_3 1_555 1_555
N8_3 C32_3 1_555 1_555
N9_3 C40_3 1_555 1_555
N10_3 C34_3 1_555 1_555
N11_2 C43_3 1_555 1_555
N12_3 C36_3 1_555 1_555
O14_3 Co7 1_555 1_555
H22_3 O14_3 1_555 1_555
C31_3 H24_3 1_555 1_555
C32_3 C31_3 1_555 1_555
C33_3 C32_3 1_555 1_555
H25_3 C33_3 1_555 1_555
C34_3 C33_3 1_555 1_555
C35_3 C34_3 1_555 1_555
H26_3 C35_3 1_555 1_555
C36_3 C31_3 1_555 1_555
C40_3 N10_3 1_555 1_555
H30_3 C40_3 1_555 1_555
C41_3 N9_3 1_555 1_555
H31_3 C41_3 1_555 1_555
C42_3 N10_3 1_555 1_555
H32_3 C42_3 1_555 1_555
C43_3 N12_3 1_555 1_555
H33_3 C43_3 1_555 1_555
C44_3 N11_2 1_555 1_555
H34_3 C44_3 1_555 1_555
C45_3 N12_3 1_555 1_555
H35_3 C45_3 1_555 1_555
Co8 N11_2 1_555 1_555
Co9 N5_2 1_555 1_555
N13_2 Co7 1_555 1_555
N14_2 Co6 1_555 1_555
C5_3 C6_3 1_555 1_555
C11_3 C12_3 1_555 1_555
C14_3 C15_3 1_555 1_555
C35_3 C36_3 1_555 1_555
C41_3 C42_3 1_555 1_555
C44_3 C45_3 1_555 1_555
O20_2 C60_3 1_555 1_555
O13_3 C60_3 1_555 1_555
O19 C30_4 1_555 1_555
Co1_5 N1_4 1_555 1_555
N1_4 C7_4 1_555 1_555
N2_4 C2_4 1_555 1_555
N4_4 C4_4 1_555 1_555
N13_2 C13_4 1_555 1_555
N6_4 C6_4 1_555 1_555
O1_4 Co1_5 1_555 1_555
O2_4 C16_4 1_555 1_555
C1_4 H3_4 1_555 1_555
C2_4 C1_4 1_555 1_555
C3_4 C2_4 1_555 1_555
H4_4 C3_4 1_555 1_555
C4_4 C3_4 1_555 1_555
C5_4 C4_4 1_555 1_555
H5_4 C5_4 1_555 1_555
C6_4 C1_4 1_555 1_555
C7_4 N2_4 1_555 1_555
H6_4 C7_4 1_555 1_555
C9_4 N2_4 1_555 1_555
H8_4 C9_4 1_555 1_555
C10_4 N4_4 1_555 1_555
H9_4 C10_4 1_555 1_555
C12_4 N4_4 1_555 1_555
H11_4 C12_4 1_555 1_555
C13_4 N6_4 1_555 1_555
H12_4 C13_4 1_555 1_555
C14_4 N13_2 1_555 1_555
H13_4 C14_4 1_555 1_555
C15_4 N6_4 1_555 1_555
H14_4 C15_4 1_555 1_555
C16_4 O1_4 1_555 1_555
C17_4 C16_4 1_555 1_555
C18_4 C17_4 1_555 1_555
H15_4 C18_4 1_555 1_555
C19_4 C18_4 1_555 1_555
C20_4 C19_4 1_555 1_555
C21_4 C20_4 1_555 1_555
C22_4 C17_4 1_555 1_555
H17_4 C22_4 1_555 1_555
C24_4 C21_4 1_555 1_555
C25_4 C24_4 1_555 1_555
H18_4 C25_4 1_555 1_555
C26_4 C25_4 1_555 1_555
C27_4 C26_4 1_555 1_555
C28_4 C27_4 1_555 1_555
H20_4 C28_4 1_555 1_555
C29_4 C24_4 1_555 1_555
H21_4 C29_4 1_555 1_555
H28_4 C38_4 1_555 1_555
C5_4 C6_4 1_555 1_555
C11_4 C12_4 1_555 1_555
C14_4 C15_4 1_555 1_555
C21_4 C22_4 1_555 1_555
C28_4 C29_4 1_555 1_555
Co8 N3_4 1_555 1_555
O7_4 Co8 1_555 1_555
H1_4 O7_4 1_555 1_555
H2_4 O7_4 1_555 1_555
O16_2 C53_4 1_555 1_555
O18_2 C53_4 1_555 1_555
H7_4 C8_4 1_555 1_555
N7_4 Co1_6 1_555 1_555
N8_4 C32_4 1_555 1_555
N10_4 C34_4 1_555 1_555
N14_2 C43_4 1_555 1_555
N12_4 C36_4 1_555 1_555
O8_4 Co1_6 1_555 1_555
O9_4 C46_4 1_555 1_555
O20 C60_4 1_555 1_555
O13_4 C60_4 1_555 1_555
C31_4 H24_4 1_555 1_555
C32_4 C31_4 1_555 1_555
C33_4 C32_4 1_555 1_555
H25_4 C33_4 1_555 1_555
C34_4 C33_4 1_555 1_555
C35_4 C34_4 1_555 1_555
H26_4 C35_4 1_555 1_555
C36_4 C31_4 1_555 1_555
C37_4 N7_4 1_555 1_555
H27_4 C37_4 1_555 1_555
C39_4 N8_4 1_555 1_555
H29_4 C39_4 1_555 1_555
C40_4 N10_4 1_555 1_555
H30_4 C40_4 1_555 1_555
C42_4 N10_4 1_555 1_555
H32_4 C42_4 1_555 1_555
C43_4 N12_4 1_555 1_555
H33_4 C43_4 1_555 1_555
C44_4 N14_2 1_555 1_555
H34_4 C44_4 1_555 1_555
C45_4 N12_4 1_555 1_555
H35_4 C45_4 1_555 1_555
C46_4 O8_4 1_555 1_555
C47_4 C46_4 1_555 1_555
C48_4 C47_4 1_555 1_555
H36_4 C48_4 1_555 1_555
C49_4 C48_4 1_555 1_555
C50_4 C49_4 1_555 1_555
H37_4 C50_4 1_555 1_555
C51_4 C50_4 1_555 1_555
C52_4 C47_4 1_555 1_555
H38_4 C52_4 1_555 1_555
C54_4 C51_4 1_555 1_555
C55_4 C54_4 1_555 1_555
H39_4 C55_4 1_555 1_555
C56_4 C55_4 1_555 1_555
H40_4 C56_4 1_555 1_555
C57_4 C56_4 1_555 1_555
C58_4 C57_4 1_555 1_555
H41_4 C58_4 1_555 1_555
C59_4 C54_4 1_555 1_555
H42_4 C59_4 1_555 1_555
C60_4 C57_4 1_555 1_555
N8_4 C37_4 1_555 1_555
C35_4 C36_4 1_555 1_555
C41_4 C42_4 1_555 1_555
C44_4 C45_4 1_555 1_555
C51_4 C52_4 1_555 1_555
C58_4 C59_4 1_555 1_555
Co9 N9_4 1_555 1_555
O14_4 Co9 1_555 1_555
H22_4 O14_4 1_555 1_555
O15_2 C23_3 1_555 1_555
O3_2 C23_4 1_555 1_555

#END
