
###############################################################################
#
# This file contains modified crystal structure data generated from the
# MOF subset of the Cambridge Structural Database (CSD) v543 
# hosted by the Cambridge Crystallographic Data Centre (CCDC).
#
# This work is licensed under the Creative Commons
# Attribution-NonCommercial-ShareAlike 4.0 International License.
# To view a copy of this license, visit
# http://creativecommons.org/licenses/by-nc-sa/4.0/
# or send a letter to
# Creative Commons, PO Box 1866, Mountain View, CA 94042, USA.
#
# CIF created using the CSD Python API on 29 September 2022
# The structure has been converted into the P1 space group
# The structure has a 3D framework
# The original CSD entry EBAWIQ is in the monoclinic crystal system
# The framework has been calculated to contain at least 10.0% void space
# The void calculation uses a probe of radius 1.32A, grid spacing 0.4
#
###############################################################################

data_EBAWIQ
_chemical_formula_moiety         '(C168 H116 N24 Ni10 O28)n'
_symmetry_cell_setting           triclinic
_symmetry_space_group_name_H-M   'P 1'
_symmetry_Int_Tables_number      1
_space_group_name_Hall           'P 1'
loop_
_symmetry_equiv_pos_site_id
_symmetry_equiv_pos_as_xyz
1 x,y,z
_cell_length_a                   8.3661(6)
_cell_length_b                   29.139(2)
_cell_length_c                   18.8583(13)
_cell_angle_alpha                90
_cell_angle_beta                 94.3070(10)
_cell_angle_gamma                90
_cell_volume                     4584.29
loop_
_atom_site_label
_atom_site_type_symbol
_atom_site_fract_x
_atom_site_fract_y
_atom_site_fract_z
Ni2 Ni 0.02097(5) 0.74354(2) 0.72388(2)
Ni9 Ni 0.02097(5) 0.75646(2) 0.22388(2)
O15 O 0.1040(3) 0.71040(9) 0.81409(13)
O17 O 0.2452(3) 0.70206(9) 0.72174(13)
O19 O 0.0178(3) 0.78660(8) 0.63558(12)
O21 O 0.1578(3) 0.80613(8) 0.73342(12)
O10 O 0.8960(3) 0.28960(9) 0.18591(13)
O11 O 0.7548(3) 0.29794(9) 0.27826(13)
O12 O 0.0178(3) 0.71340(8) 0.13558(12)
O13 O 0.1578(3) 0.69387(8) 0.23342(12)
C66 C 0.2584(4) 0.51158(11) 0.04174(17)
C67 C 0.3321(5) 0.47583(12) 0.08085(17)
H49 H 0.3484 0.4787 0.1300
C68 C 0.3817(4) 0.43618(11) 0.04845(17)
C70 C 0.4745(4) 0.40067(12) 0.09072(17)
C71 C 0.4496(5) 0.39218(14) 0.16170(19)
H51 H 0.3676 0.4074 0.1828
C72 C 0.5457(5) 0.36135(14) 0.20128(19)
H52 H 0.5278 0.3562 0.2487
C73 C 0.6681(5) 0.33811(12) 0.17119(18)
C74 C 0.6919(5) 0.34602(14) 0.1005(2)
H53 H 0.7735 0.3307 0.0794
C75 C 0.5958(5) 0.37639(14) 0.06106(19)
H54 H 0.6124 0.3808 0.0133
C76 C 0.7777(5) 0.30683(12) 0.21449(19)
C77 C 0.2161(4) 0.55522(11) 0.07567(17)
C78 C 0.3011(5) 0.57055(13) 0.1376(2)
H55 H 0.3824 0.5524 0.1590
C79 C 0.2664(5) 0.61234(13) 0.1678(2)
H56 H 0.3242 0.6218 0.2093
C80 C 0.1470(4) 0.64019(12) 0.13709(18)
C81 C 0.0627(4) 0.62562(12) 0.07493(18)
C82 C 0.0953(4) 0.58335(12) 0.04547(18)
H58 H 0.0352 0.5737 0.0047
C83 C 0.1068(4) 0.68459(11) 0.17024(18)
Ni7 Ni 0.97903(5) 0.25646(2) 0.27612(2)
Ni1 Ni 0.0000 0.5000 0.5000
N1 N 0.2104(3) 0.51525(10) 0.45409(14)
N2 N 0.4204(3) 0.55753(10) 0.43398(15)
N3 N 0.8266(4) 0.72767(10) 0.26475(15)
N4 N 0.6858(4) 0.68903(10) 0.33822(15)
N5 N 0.8958(4) 0.69150(9) 0.67550(14)
N6 N 0.7636(4) 0.65361(10) 0.58925(14)
O7 O 0.0246(3) 0.43103(9) 0.46843(12)
H1 H 0.1059 0.4215 0.4486
C1 C 0.5983(4) 0.60444(12) 0.51000(19)
H3 H 0.5820 0.5849 0.5478
C2 C 0.5280(4) 0.59538(11) 0.44313(19)
C3 C 0.5535(4) 0.62313(12) 0.38544(19)
H4 H 0.5059 0.6167 0.3404
C4 C 0.6522(4) 0.66066(12) 0.39737(18)
C5 C 0.7213(4) 0.67163(12) 0.46364(18)
H5 H 0.7851 0.6976 0.4703
C6 C 0.6939(4) 0.64308(12) 0.52023(18)
C7 C 0.3112(4) 0.54627(12) 0.48035(19)
H6 H 0.3080 0.5590 0.5254
C8 C 0.2564(5) 0.50606(13) 0.3872(2)
H7 H 0.2060 0.4852 0.3556
C9 C 0.3851(5) 0.53166(14) 0.3740(2)
H8 H 0.4390 0.5318 0.3326
C10 C 0.8319(4) 0.70413(12) 0.32410(18)
H9 H 0.9251 0.6986 0.3529
C11 C 0.5796(5) 0.70424(15) 0.2840(2)
H10 H 0.4696 0.6991 0.2789
C12 C 0.6681(5) 0.72812(16) 0.2398(2)
H11 H 0.6276 0.7428 0.1985
C13 C 0.8501(5) 0.69056(13) 0.60817(19)
H12 H 0.8753 0.7134 0.5764
C14 C 0.8388(8) 0.65228(18) 0.7018(2)
H13 H 0.8528 0.6431 0.7491
C15 C 0.7594(9) 0.62876(19) 0.6501(2)
H14 H 0.7100 0.6004 0.6547
O8 O 0.1276(3) 0.48786(9) 0.59468(12)
O9 O 0.0672(3) 0.41381(8) 0.60742(12)
H31 H 0.0603 0.5815 0.5498
C58 C 0.1732(4) 0.45493(12) 0.70860(17)
C59 C 0.2089(5) 0.49718(12) 0.73937(18)
H44 H 0.2069 0.5234 0.7112
C60 C 0.2477(5) 0.50074(12) 0.81201(19)
H45 H 0.2727 0.5293 0.8318
C61 C 0.2498(4) 0.46231(11) 0.85569(17)
C62 C 0.2204(5) 0.42007(12) 0.82387(18)
H46 H 0.2267 0.3936 0.8516
C63 C 0.1818(5) 0.41653(12) 0.75162(18)
H47 H 0.1612 0.3878 0.7316
C64 C 0.2805(4) 0.46668(11) 0.93407(17)
C65 C 0.2331(4) 0.50629(11) 0.96839(17)
H48 H 0.1834 0.5298 0.9416
C69 C 0.3542(4) 0.43181(12) 0.97494(17)
H50 H 0.3856 0.4051 0.9528
C84 C 0.1186(4) 0.45164(12) 0.63068(17)
N14 N 0.8266(4) 0.77233(10) 0.76475(15)
Ni1_2 Ni 1.0000 0.5000 0.5000
O1 O 0.8724(3) 0.51214(9) 0.40532(12)
O2 O 0.9328(3) 0.58619(8) 0.39258(12)
H2 H 0.9397 0.4185 0.4502
C16 C 0.8268(4) 0.54507(12) 0.29140(17)
C17 C 0.7911(5) 0.50282(12) 0.26063(18)
H15 H 0.7931 0.4766 0.2888
C18 C 0.7523(5) 0.49926(12) 0.18799(19)
H16 H 0.7273 0.4707 0.1682
C19 C 0.7502(4) 0.53769(11) 0.14431(17)
C20 C 0.7796(5) 0.57993(12) 0.17613(18)
H17 H 0.7733 0.6064 0.1484
C21 C 0.8182(5) 0.58347(12) 0.24838(18)
H18 H 0.8388 0.6122 0.2684
C22 C 0.7195(4) 0.53332(11) 0.06593(17)
C23 C 0.7669(4) 0.49371(11) 0.03161(17)
H19 H 0.8166 0.4702 0.0584
C27 C 0.6458(4) 0.56819(12) 0.02506(17)
H21 H 0.6144 0.5949 0.0472
C42 C 0.8814(4) 0.54836(12) 0.36932(17)
N7 N 0.7896(3) 0.48475(10) 0.54591(14)
N8 N 0.5796(3) 0.44247(10) 0.56602(15)
N9 N 0.1734(4) 0.27233(10) 0.73525(15)
N10 N 0.3142(4) 0.31097(10) 0.66178(15)
N11 N 0.1042(4) 0.30850(9) 0.32450(14)
N12 N 0.2364(4) 0.34639(10) 0.41075(14)
O14 O 0.9754(3) 0.56897(9) 0.53157(12)
H30 H 0.8941 0.5785 0.5514
C43 C 0.4017(4) 0.39556(12) 0.49000(19)
H32 H 0.4180 0.4151 0.4522
C44 C 0.4720(4) 0.40462(11) 0.55687(19)
C45 C 0.4465(4) 0.37687(12) 0.61456(19)
H33 H 0.4941 0.3833 0.6596
C46 C 0.3478(4) 0.33934(12) 0.60263(18)
C47 C 0.2787(4) 0.32837(12) 0.53636(18)
H34 H 0.2149 0.3024 0.5297
C48 C 0.3061(4) 0.35692(12) 0.47977(18)
C49 C 0.6888(4) 0.45373(12) 0.51965(19)
H35 H 0.6920 0.4410 0.4746
C50 C 0.7436(5) 0.49394(13) 0.6128(2)
H36 H 0.7940 0.5148 0.6444
C51 C 0.6149(5) 0.46834(14) 0.6260(2)
H37 H 0.5610 0.4682 0.6674
C52 C 0.1681(4) 0.29587(12) 0.67590(18)
H38 H 0.0749 0.3014 0.6471
C53 C 0.4204(5) 0.29576(15) 0.7160(2)
H39 H 0.5304 0.3009 0.7211
C54 C 0.3319(5) 0.27188(16) 0.7602(2)
H40 H 0.3724 0.2572 0.8015
C55 C 0.1499(5) 0.30944(13) 0.39183(19)
H41 H 0.1247 0.2866 0.4236
C56 C 0.1612(8) 0.34772(18) 0.2982(2)
H42 H 0.1472 0.3569 0.2509
C57 C 0.2406(9) 0.37124(19) 0.3499(2)
H43 H 0.2900 0.3996 0.3453
N13 N 0.1734(4) 0.22767(10) 0.23525(15)
O5 O 0.9822(3) 0.28660(8) 0.86442(12)
O6 O 0.8422(3) 0.30613(8) 0.76658(12)
C24 C 0.7416(4) 0.48842(11) 0.95826(17)
C25 C 0.6679(5) 0.52417(12) 0.91915(17)
H20 H 0.6516 0.5213 0.8700
C26 C 0.6183(4) 0.56382(11) 0.95155(17)
C28 C 0.5255(4) 0.59933(12) 0.90928(17)
C29 C 0.5504(5) 0.60782(14) 0.83830(19)
H22 H 0.6324 0.5926 0.8172
C30 C 0.4543(5) 0.63865(14) 0.79872(19)
H23 H 0.4722 0.6438 0.7513
C31 C 0.3319(5) 0.66189(12) 0.82881(18)
C32 C 0.3081(5) 0.65398(14) 0.8995(2)
H24 H 0.2265 0.6693 0.9206
C33 C 0.4042(5) 0.62361(14) 0.93894(19)
H25 H 0.3876 0.6192 0.9867
C34 C 0.2223(5) 0.69317(12) 0.78551(19)
C35 C 0.7839(4) 0.44478(11) 0.92433(17)
C36 C 0.6989(5) 0.42945(13) 0.8624(2)
H26 H 0.6176 0.4476 0.8410
C37 C 0.7336(5) 0.38766(13) 0.8322(2)
H27 H 0.6758 0.3782 0.7907
C38 C 0.8530(4) 0.35981(12) 0.86291(18)
C39 C 0.9373(4) 0.37438(12) 0.92507(18)
C40 C 0.9047(4) 0.41665(12) 0.95453(18)
H29 H 0.9648 0.4263 0.9953
C41 C 0.8932(4) 0.31541(11) 0.82976(18)
Ni6 Ni 0.97903(5) 0.24354(2) 0.77612(2)
O20 O 0.9822(3) 0.21340(8) 0.36442(12)
O22 O 0.8422(3) 0.19387(8) 0.26658(12)
O16 O 0.1040(3) 0.78960(9) 0.31409(13)
O18 O 0.2452(3) 0.79794(9) 0.22174(13)
Ni1_3 Ni 0.0000 0.0000 0.0000
O1_2 O 0.1276(3) 0.01214(9) 0.09468(12)
O2_2 O 0.0672(3) 0.08619(8) 0.10742(12)
O3 O 0.8960(3) 0.21040(9) 0.68591(13)
O4 O 0.7548(3) 0.20206(9) 0.77826(13)
C16_2 C 0.1732(4) 0.04507(12) 0.20860(17)
C17_2 C 0.2089(5) 0.00282(12) 0.23937(18)
C19_2 C 0.2498(4) 0.03769(11) 0.35569(17)
C20_2 C 0.2204(5) 0.07993(12) 0.32387(18)
H17_2 H 0.2267 0.1064 0.3516
C21_2 C 0.1818(5) 0.08347(12) 0.25162(18)
H18_2 H 0.1612 0.1122 0.2316
C22_2 C 0.2805(4) 0.03332(11) 0.43407(17)
C25_2 C 0.3321(5) 0.02417(12) 0.58085(17)
H20_2 H 0.3484 0.0213 0.6300
C26_2 C 0.3817(4) 0.06382(11) 0.54845(17)
C27_2 C 0.3542(4) 0.06819(12) 0.47494(17)
H21_2 H 0.3856 0.0949 0.4528
C28_2 C 0.4745(4) 0.09933(12) 0.59072(17)
C29_2 C 0.4496(5) 0.10782(14) 0.66170(19)
H22_2 H 0.3676 0.0926 0.6828
C30_2 C 0.5457(5) 0.13865(14) 0.70128(19)
H23_2 H 0.5278 0.1438 0.7487
C31_2 C 0.6681(5) 0.16189(12) 0.67119(18)
C32_2 C 0.6919(5) 0.15398(14) 0.6005(2)
H24_2 H 0.7735 0.1693 0.5794
C33_2 C 0.5958(5) 0.12361(14) 0.56106(19)
H25_2 H 0.6124 0.1192 0.5133
C34_2 C 0.7777(5) 0.19317(12) 0.71449(19)
C42_2 C 0.1186(4) 0.04836(12) 0.13068(17)
Ni1_4 Ni 0.0000 1.0000 0.0000
H2_2 H 0.0603 0.9185 0.0498
H15_2 H 0.2069 0.9766 0.2112
C18_2 C 0.2477(5) 0.99926(12) 0.31201(19)
H16_2 H 0.2727 0.9707 0.3318
C23_2 C 0.2331(4) 0.99371(11) 0.46839(17)
H19_2 H 0.1834 0.9702 0.4416
C24_2 C 0.2584(4) 0.98842(11) 0.54174(17)
C35_2 C 0.2161(4) 0.94478(11) 0.57567(17)
C36_2 C 0.3011(5) 0.92945(13) 0.6376(2)
H26_2 H 0.3824 0.9476 0.6590
C37_2 C 0.2664(5) 0.88766(13) 0.6678(2)
H27_2 H 0.3242 0.8782 0.7093
C38_2 C 0.1470(4) 0.85981(12) 0.63709(18)
C39_2 C 0.0627(4) 0.87438(12) 0.57493(18)
C40_2 C 0.0953(4) 0.91665(12) 0.54547(18)
H29_2 H 0.0352 0.9263 0.5047
C41_2 C 0.1068(4) 0.81541(11) 0.67024(18)
N11_2 N 0.8958(4) 0.80850(9) 0.17550(14)
N12_2 N 0.7636(4) 0.84639(10) 0.08925(14)
C43_2 C 0.5983(4) 0.89556(12) 0.01000(19)
H32_2 H 0.5820 0.9151 0.0478
C48_2 C 0.6939(4) 0.85692(12) 0.02023(18)
H35_2 H 0.3080 0.9410 0.0254
C55_2 C 0.8501(5) 0.80944(13) 0.10817(19)
H41_2 H 0.8753 0.7866 0.0764
C56_2 C 0.8388(8) 0.84772(18) 0.2018(2)
H42_2 H 0.8528 0.8569 0.2491
C57_2 C 0.7594(9) 0.87124(19) 0.1501(2)
H43_2 H 0.7100 0.8996 0.1547
Ni1_5 Ni 0.0000 1.0000 1.0000
N7_2 N 0.2104(3) 0.98475(10) 0.95409(14)
N8_2 N 0.4204(3) 0.94247(10) 0.93398(15)
N10_2 N 0.6858(4) 0.81097(10) 0.83822(15)
C44_2 C 0.5280(4) 0.90462(11) 0.94313(19)
C45_2 C 0.5535(4) 0.87687(12) 0.88544(19)
H33_2 H 0.5059 0.8833 0.8404
C46_2 C 0.6522(4) 0.83934(12) 0.89737(18)
C47_2 C 0.7213(4) 0.82837(12) 0.96364(18)
H34_2 H 0.7851 0.8024 0.9703
C49_2 C 0.3112(4) 0.95373(12) 0.98035(19)
C50_2 C 0.2564(5) 0.99394(13) 0.8872(2)
C51_2 C 0.3851(5) 0.96834(14) 0.8740(2)
H37_2 H 0.4390 0.9682 0.8326
C52_2 C 0.8319(4) 0.79587(12) 0.82410(18)
H38_2 H 0.9251 0.8014 0.8529
C53_2 C 0.5796(5) 0.79576(15) 0.7840(2)
H39_2 H 0.4696 0.8009 0.7789
C54_2 C 0.6681(5) 0.77188(16) 0.7398(2)
H40_2 H 0.6276 0.7572 0.6985
Ni1_6 Ni 1.0000 0.0000 0.0000
N1_2 N 0.7896(3) 0.01525(10) 0.04591(14)
N2_2 N 0.5796(3) 0.05753(10) 0.06602(15)
N4_2 N 0.3142(4) 0.18903(10) 0.16178(15)
C2_2 C 0.4720(4) 0.09538(11) 0.05687(19)
C3_2 C 0.4465(4) 0.12313(12) 0.11456(19)
H4_2 H 0.4941 0.1167 0.1596
C4_2 C 0.3478(4) 0.16066(12) 0.10263(18)
C5_2 C 0.2787(4) 0.17163(12) 0.03636(18)
H5_2 H 0.2149 0.1976 0.0297
C7_2 C 0.6888(4) 0.04627(12) 0.01965(19)
C8_2 C 0.7436(5) 0.00606(13) 0.1128(2)
C9_2 C 0.6149(5) 0.03166(14) 0.1260(2)
H8_2 H 0.5610 0.0318 0.1674
C10_2 C 0.1681(4) 0.20413(12) 0.17590(18)
H9_2 H 0.0749 0.1986 0.1471
C11_2 C 0.4204(5) 0.20424(15) 0.2160(2)
H10_2 H 0.5304 0.1991 0.2211
C12_2 C 0.3319(5) 0.22812(16) 0.2602(2)
H11_2 H 0.3724 0.2428 0.3015
Ni1_7 Ni 1.0000 0.0000 1.0000
N5_2 N 0.1042(4) 0.19150(9) 0.82450(14)
N6_2 N 0.2364(4) 0.15361(10) 0.91075(14)
C1_2 C 0.4017(4) 0.10444(12) 0.99000(19)
H3_2 H 0.4180 0.0849 0.9522
C6_2 C 0.3061(4) 0.14308(12) 0.97977(18)
H6_2 H 0.6920 0.0590 0.9746
C13_2 C 0.1499(5) 0.19056(13) 0.89183(19)
H12_2 H 0.1247 0.2134 0.9236
C14_2 C 0.1612(8) 0.15228(18) 0.7982(2)
H13_2 H 0.1472 0.1431 0.7509
C15_2 C 0.2406(9) 0.12876(19) 0.8499(2)
H14_2 H 0.2900 0.1004 0.8453
H31_2 H 0.9397 0.0815 0.9502
H44_2 H 0.7931 0.0234 0.7888
C60_2 C 0.7523(5) 0.00074(12) 0.68799(19)
H45_2 H 0.7273 0.0293 0.6682
C65_2 C 0.7669(4) 0.00629(11) 0.53161(17)
H48_2 H 0.8166 0.0298 0.5584
C66_2 C 0.7416(4) 0.01158(11) 0.45826(17)
C77_2 C 0.7839(4) 0.05522(11) 0.42433(17)
C78_2 C 0.6989(5) 0.07055(13) 0.3624(2)
H55_2 H 0.6176 0.0524 0.3410
C79_2 C 0.7336(5) 0.11234(13) 0.3322(2)
H56_2 H 0.6758 0.1218 0.2907
C80_2 C 0.8530(4) 0.14019(12) 0.36291(18)
C81_2 C 0.9373(4) 0.12562(12) 0.42507(18)
C82_2 C 0.9047(4) 0.08335(12) 0.45453(18)
H58_2 H 0.9648 0.0737 0.4953
C83_2 C 0.8932(4) 0.18459(11) 0.32976(18)
Ni1_8 Ni 1.0000 1.0000 1.0000
O8_2 O 0.8724(3) 0.98786(9) 0.90532(12)
O9_2 O 0.9328(3) 0.91381(8) 0.89258(12)
C58_2 C 0.8268(4) 0.95493(12) 0.79140(17)
C59_2 C 0.7911(5) 0.99718(12) 0.76063(18)
C61_2 C 0.7502(4) 0.96231(11) 0.64431(17)
C62_2 C 0.7796(5) 0.92007(12) 0.67613(18)
H46_2 H 0.7733 0.8936 0.6484
C63_2 C 0.8182(5) 0.91653(12) 0.74838(18)
H47_2 H 0.8388 0.8878 0.7684
C64_2 C 0.7195(4) 0.96668(11) 0.56593(17)
C67_2 C 0.6679(5) 0.97583(12) 0.41915(17)
H49_2 H 0.6516 0.9787 0.3700
C68_2 C 0.6183(4) 0.93618(11) 0.45155(17)
C69_2 C 0.6458(4) 0.93181(12) 0.52506(17)
H50_2 H 0.6144 0.9051 0.5472
C70_2 C 0.5255(4) 0.90067(12) 0.40928(17)
C71_2 C 0.5504(5) 0.89218(14) 0.33830(19)
H51_2 H 0.6324 0.9074 0.3172
C72_2 C 0.4543(5) 0.86135(14) 0.29872(19)
H52_2 H 0.4722 0.8562 0.2513
C73_2 C 0.3319(5) 0.83811(12) 0.32881(18)
C74_2 C 0.3081(5) 0.84602(14) 0.3995(2)
H53_2 H 0.2265 0.8307 0.4206
C75_2 C 0.4042(5) 0.87639(14) 0.43894(19)
H54_2 H 0.3876 0.8808 0.4867
C76_2 C 0.2223(5) 0.80683(12) 0.28551(19)
C84_2 C 0.8814(4) 0.95164(12) 0.86932(17)
H28 H 0.0162 0.3557 0.9471
H57 H 0.9838 0.6443 0.0529
Ni1_9 Ni 0.0000 0.0000 1.0000
O14_2 O 0.0246(3) 0.06897(9) 0.96843(12)
H30_2 H 0.1059 0.0785 0.9486
H36_2 H 0.2060 0.0148 0.8556
H57_2 H 0.0162 0.1443 0.4471
Ni1_10 Ni 1.0000 1.0000 0.0000
O7_2 O 0.9754(3) 0.93103(9) 0.03157(12)
H1_2 H 0.8941 0.9215 0.0514
H7_2 H 0.7940 0.9852 0.1444
H28_2 H 0.9838 0.8557 0.5529
loop_
_geom_bond_atom_site_label_1
_geom_bond_atom_site_label_2
_geom_bond_site_symmetry_1
_geom_bond_site_symmetry_2
O15 Ni2 1_555 1_555
O17 Ni2 1_555 1_555
O19 Ni2 1_555 1_555
O21 Ni2 1_555 1_555
O10 C76 1_555 1_555
O11 C76 1_555 1_555
O12 C83 1_555 1_555
O13 C83 1_555 1_555
C67 C66 1_555 1_555
H49 C67 1_555 1_555
C68 C67 1_555 1_555
C70 C68 1_555 1_555
C71 C70 1_555 1_555
H51 C71 1_555 1_555
C72 C71 1_555 1_555
H52 C72 1_555 1_555
C73 C72 1_555 1_555
C74 C73 1_555 1_555
H53 C74 1_555 1_555
C75 C70 1_555 1_555
H54 C75 1_555 1_555
C76 C73 1_555 1_555
C77 C66 1_555 1_555
C78 C77 1_555 1_555
H55 C78 1_555 1_555
C79 C78 1_555 1_555
H56 C79 1_555 1_555
C80 C79 1_555 1_555
C81 C80 1_555 1_555
C82 C77 1_555 1_555
H58 C82 1_555 1_555
C83 C80 1_555 1_555
Ni7 O10 1_555 1_555
Ni9 O12 1_555 1_555
O11 Ni7 1_555 1_555
O13 Ni9 1_555 1_555
C74 C75 1_555 1_555
C81 C82 1_555 1_555
Ni1 N1 1_555 1_555
N1 C7 1_555 1_555
N2 C2 1_555 1_555
N3 C10 1_555 1_555
N4 C4 1_555 1_555
N5 C13 1_555 1_555
N6 C6 1_555 1_555
O7 Ni1 1_555 1_555
H1 O7 1_555 1_555
C1 H3 1_555 1_555
C2 C1 1_555 1_555
C3 C2 1_555 1_555
H4 C3 1_555 1_555
C4 C3 1_555 1_555
C5 C4 1_555 1_555
H5 C5 1_555 1_555
C6 C1 1_555 1_555
C7 N2 1_555 1_555
H6 C7 1_555 1_555
C8 N1 1_555 1_555
H7 C8 1_555 1_555
C9 N2 1_555 1_555
H8 C9 1_555 1_555
C10 N4 1_555 1_555
H9 C10 1_555 1_555
C11 N4 1_555 1_555
H10 C11 1_555 1_555
C12 N3 1_555 1_555
H11 C12 1_555 1_555
C13 N6 1_555 1_555
H12 C13 1_555 1_555
C14 N5 1_555 1_555
H13 C14 1_555 1_555
C15 N6 1_555 1_555
H14 C15 1_555 1_555
O8 Ni1 1_555 1_555
O9 C84 1_555 1_555
C58 C59 1_555 1_555
C59 H44 1_555 1_555
C60 C59 1_555 1_555
H45 C60 1_555 1_555
C61 C60 1_555 1_555
C62 C61 1_555 1_555
H46 C62 1_555 1_555
C63 C58 1_555 1_555
H47 C63 1_555 1_555
C64 C61 1_555 1_555
C65 C64 1_555 1_555
H48 C65 1_555 1_555
C69 C64 1_555 1_555
H50 C69 1_555 1_555
C84 O8 1_555 1_555
C5 C6 1_555 1_555
C8 C9 1_555 1_555
C11 C12 1_555 1_555
C14 C15 1_555 1_555
C58 C84 1_555 1_555
C62 C63 1_555 1_555
O1 Ni1_2 1_555 1_555
O2 C42 1_555 1_555
C16 C17 1_555 1_555
C17 H15 1_555 1_555
C18 C17 1_555 1_555
H16 C18 1_555 1_555
C19 C18 1_555 1_555
C20 C19 1_555 1_555
H17 C20 1_555 1_555
C21 C16 1_555 1_555
H18 C21 1_555 1_555
C22 C19 1_555 1_555
C23 C22 1_555 1_555
H19 C23 1_555 1_555
C27 C22 1_555 1_555
H21 C27 1_555 1_555
C42 O1 1_555 1_555
N7 Ni1_2 1_555 1_555
N8 C44 1_555 1_555
N9 C52 1_555 1_555
N10 C46 1_555 1_555
N11 C55 1_555 1_555
N12 C48 1_555 1_555
O14 Ni1_2 1_555 1_555
H30 O14 1_555 1_555
C43 H32 1_555 1_555
C44 C43 1_555 1_555
C45 C44 1_555 1_555
H33 C45 1_555 1_555
C46 C45 1_555 1_555
C47 C46 1_555 1_555
H34 C47 1_555 1_555
C48 C43 1_555 1_555
C49 N7 1_555 1_555
H35 C49 1_555 1_555
C50 N7 1_555 1_555
H36 C50 1_555 1_555
C51 N8 1_555 1_555
H37 C51 1_555 1_555
C52 N10 1_555 1_555
H38 C52 1_555 1_555
C53 N10 1_555 1_555
H39 C53 1_555 1_555
C54 N9 1_555 1_555
H40 C54 1_555 1_555
C55 N12 1_555 1_555
H41 C55 1_555 1_555
C56 N11 1_555 1_555
H42 C56 1_555 1_555
C57 N12 1_555 1_555
H43 C57 1_555 1_555
C16 C42 1_555 1_555
C20 C21 1_555 1_555
N8 C49 1_555 1_555
C47 C48 1_555 1_555
C50 C51 1_555 1_555
C53 C54 1_555 1_555
C56 C57 1_555 1_555
O15 C34 1_555 1_555
O17 C34 1_555 1_555
O5 C41 1_555 1_555
O6 C41 1_555 1_555
C25 C24 1_555 1_555
H20 C25 1_555 1_555
C26 C25 1_555 1_555
C28 C26 1_555 1_555
C29 C28 1_555 1_555
H22 C29 1_555 1_555
C30 C29 1_555 1_555
H23 C30 1_555 1_555
C31 C30 1_555 1_555
C32 C31 1_555 1_555
H24 C32 1_555 1_555
C33 C28 1_555 1_555
H25 C33 1_555 1_555
C34 C31 1_555 1_555
C35 C24 1_555 1_555
C36 C35 1_555 1_555
H26 C36 1_555 1_555
C37 C36 1_555 1_555
H27 C37 1_555 1_555
C38 C37 1_555 1_555
C39 C38 1_555 1_555
C40 C35 1_555 1_555
H29 C40 1_555 1_555
C41 C38 1_555 1_555
Ni6 O5 1_555 1_555
O6 Ni6 1_555 1_555
C32 C33 1_555 1_555
C39 C40 1_555 1_555
O20 Ni7 1_555 1_555
O22 Ni7 1_555 1_555
O16 Ni9 1_555 1_555
O18 Ni9 1_555 1_555
O1_2 Ni1_3 1_555 1_555
O2_2 C42_2 1_555 1_555
O3 C34_2 1_555 1_555
O4 C34_2 1_555 1_555
C16_2 C17_2 1_555 1_555
C20_2 C19_2 1_555 1_555
H17_2 C20_2 1_555 1_555
C21_2 C16_2 1_555 1_555
H18_2 C21_2 1_555 1_555
C22_2 C19_2 1_555 1_555
H20_2 C25_2 1_555 1_555
C26_2 C25_2 1_555 1_555
C27_2 C22_2 1_555 1_555
H21_2 C27_2 1_555 1_555
C28_2 C26_2 1_555 1_555
C29_2 C28_2 1_555 1_555
H22_2 C29_2 1_555 1_555
C30_2 C29_2 1_555 1_555
H23_2 C30_2 1_555 1_555
C31_2 C30_2 1_555 1_555
C32_2 C31_2 1_555 1_555
H24_2 C32_2 1_555 1_555
C33_2 C28_2 1_555 1_555
H25_2 C33_2 1_555 1_555
C34_2 C31_2 1_555 1_555
C42_2 O1_2 1_555 1_555
Ni6 O3 1_555 1_555
O4 Ni6 1_555 1_555
C16_2 C42_2 1_555 1_555
C20_2 C21_2 1_555 1_555
C26_2 C27_2 1_555 1_555
C32_2 C33_2 1_555 1_555
O19 C41_2 1_555 1_555
O21 C41_2 1_555 1_555
H16_2 C18_2 1_555 1_555
H19_2 C23_2 1_555 1_555
C24_2 C23_2 1_555 1_555
C35_2 C24_2 1_555 1_555
C36_2 C35_2 1_555 1_555
H26_2 C36_2 1_555 1_555
C37_2 C36_2 1_555 1_555
H27_2 C37_2 1_555 1_555
C38_2 C37_2 1_555 1_555
C39_2 C38_2 1_555 1_555
C40_2 C35_2 1_555 1_555
H29_2 C40_2 1_555 1_555
C41_2 C38_2 1_555 1_555
N11_2 C55_2 1_555 1_555
N12_2 C48_2 1_555 1_555
C43_2 H32_2 1_555 1_555
C48_2 C43_2 1_555 1_555
C55_2 N12_2 1_555 1_555
H41_2 C55_2 1_555 1_555
C56_2 N11_2 1_555 1_555
H42_2 C56_2 1_555 1_555
C57_2 N12_2 1_555 1_555
H43_2 C57_2 1_555 1_555
C39_2 C40_2 1_555 1_555
C56_2 C57_2 1_555 1_555
N7_2 Ni1_5 1_555 1_555
N8_2 C44_2 1_555 1_555
N14 C52_2 1_555 1_555
N10_2 C46_2 1_555 1_555
C45_2 C44_2 1_555 1_555
H33_2 C45_2 1_555 1_555
C46_2 C45_2 1_555 1_555
C47_2 C46_2 1_555 1_555
H34_2 C47_2 1_555 1_555
C49_2 N7_2 1_555 1_555
C50_2 N7_2 1_555 1_555
C51_2 N8_2 1_555 1_555
H37_2 C51_2 1_555 1_555
C52_2 N10_2 1_555 1_555
H38_2 C52_2 1_555 1_555
C53_2 N10_2 1_555 1_555
H39_2 C53_2 1_555 1_555
C54_2 N14 1_555 1_555
H40_2 C54_2 1_555 1_555
N8_2 C49_2 1_555 1_555
C50_2 C51_2 1_555 1_555
C53_2 C54_2 1_555 1_555
Ni1_6 N1_2 1_555 1_555
N1_2 C7_2 1_555 1_555
N2_2 C2_2 1_555 1_555
N13 C10_2 1_555 1_555
N4_2 C4_2 1_555 1_555
C3_2 C2_2 1_555 1_555
H4_2 C3_2 1_555 1_555
C4_2 C3_2 1_555 1_555
C5_2 C4_2 1_555 1_555
H5_2 C5_2 1_555 1_555
C7_2 N2_2 1_555 1_555
C8_2 N1_2 1_555 1_555
C9_2 N2_2 1_555 1_555
H8_2 C9_2 1_555 1_555
C10_2 N4_2 1_555 1_555
H9_2 C10_2 1_555 1_555
C11_2 N4_2 1_555 1_555
H10_2 C11_2 1_555 1_555
C12_2 N13 1_555 1_555
H11_2 C12_2 1_555 1_555
C8_2 C9_2 1_555 1_555
C11_2 C12_2 1_555 1_555
N5_2 C13_2 1_555 1_555
N6_2 C6_2 1_555 1_555
C1_2 H3_2 1_555 1_555
C6_2 C1_2 1_555 1_555
C13_2 N6_2 1_555 1_555
H12_2 C13_2 1_555 1_555
C14_2 N5_2 1_555 1_555
H13_2 C14_2 1_555 1_555
C15_2 N6_2 1_555 1_555
H14_2 C15_2 1_555 1_555
O20 C83_2 1_555 1_555
O22 C83_2 1_555 1_555
H45_2 C60_2 1_555 1_555
H48_2 C65_2 1_555 1_555
C66_2 C65_2 1_555 1_555
C77_2 C66_2 1_555 1_555
C78_2 C77_2 1_555 1_555
H55_2 C78_2 1_555 1_555
C79_2 C78_2 1_555 1_555
H56_2 C79_2 1_555 1_555
C80_2 C79_2 1_555 1_555
C81_2 C80_2 1_555 1_555
C82_2 C77_2 1_555 1_555
H58_2 C82_2 1_555 1_555
C83_2 C80_2 1_555 1_555
C14_2 C15_2 1_555 1_555
C81_2 C82_2 1_555 1_555
O8_2 Ni1_8 1_555 1_555
O9_2 C84_2 1_555 1_555
O16 C76_2 1_555 1_555
O18 C76_2 1_555 1_555
C58_2 C59_2 1_555 1_555
C62_2 C61_2 1_555 1_555
H46_2 C62_2 1_555 1_555
C63_2 C58_2 1_555 1_555
H47_2 C63_2 1_555 1_555
C64_2 C61_2 1_555 1_555
H49_2 C67_2 1_555 1_555
C68_2 C67_2 1_555 1_555
C69_2 C64_2 1_555 1_555
H50_2 C69_2 1_555 1_555
C70_2 C68_2 1_555 1_555
C71_2 C70_2 1_555 1_555
H51_2 C71_2 1_555 1_555
C72_2 C71_2 1_555 1_555
H52_2 C72_2 1_555 1_555
C73_2 C72_2 1_555 1_555
C74_2 C73_2 1_555 1_555
H53_2 C74_2 1_555 1_555
C75_2 C70_2 1_555 1_555
H54_2 C75_2 1_555 1_555
C76_2 C73_2 1_555 1_555
C84_2 O8_2 1_555 1_555
C58_2 C84_2 1_555 1_555
C62_2 C63_2 1_555 1_555
C68_2 C69_2 1_555 1_555
C74_2 C75_2 1_555 1_555
O14_2 Ni1_9 1_555 1_555
H30_2 O14_2 1_555 1_555
O7_2 Ni1_10 1_555 1_555
H1_2 O7_2 1_555 1_555

#END
