
###############################################################################
#
# This file contains modified crystal structure data generated from the
# MOF subset of the Cambridge Structural Database (CSD) v543 
# hosted by the Cambridge Crystallographic Data Centre (CCDC).
#
# This work is licensed under the Creative Commons
# Attribution-NonCommercial-ShareAlike 4.0 International License.
# To view a copy of this license, visit
# http://creativecommons.org/licenses/by-nc-sa/4.0/
# or send a letter to
# Creative Commons, PO Box 1866, Mountain View, CA 94042, USA.
#
# CIF created using the CSD Python API on 29 September 2022
# The structure has been converted into the P1 space group
# The structure has a 3D framework
# The original CSD entry EBAWOW is in the orthorhombic crystal system
# The framework has been calculated to contain at least 10.0% void space
# The void calculation uses a probe of radius 1.32A, grid spacing 0.4
#
###############################################################################

data_EBAWOW
_chemical_formula_moiety         '(C336 H216 Co14 N48 O48)n'
_symmetry_cell_setting           triclinic
_symmetry_space_group_name_H-M   'P 1'
_symmetry_Int_Tables_number      1
_space_group_name_Hall           'P 1'
loop_
_symmetry_equiv_pos_site_id
_symmetry_equiv_pos_as_xyz
1 x,y,z
_cell_length_a                   29.507(5)
_cell_length_b                   19.224(3)
_cell_length_c                   16.462(3)
_cell_angle_alpha                90
_cell_angle_beta                 90
_cell_angle_gamma                90
_cell_volume                     9337.95
loop_
_atom_site_label
_atom_site_type_symbol
_atom_site_fract_x
_atom_site_fract_y
_atom_site_fract_z
N5 N 0.72148(13) 0.24273(19) 0.1692(3)
N6 N 0.68657(14) 0.1671(2) 0.0907(3)
C5 C 0.67134(16) 0.0438(2) 0.1074(3)
H3 H 0.6874 0.0434 0.1560
C6 C 0.66527(18) 0.1050(2) 0.0643(3)
C13 C 0.70090(16) 0.1837(2) 0.1669(3)
H10 H 0.6963 0.1556 0.2122
C14 C 0.7217(2) 0.2649(3) 0.0904(4)
H11 H 0.7348 0.3064 0.0732
C15 C 0.7011(3) 0.2200(3) 0.0410(4)
Co4 Co 0.76263(2) 0.27868(3) 0.26047(3)
N1 N 0.54763(19) 0.0138(2) 0.7997(3)
N2 N 0.59820(17) 0.0461(2) 0.8892(3)
C1 C 0.6408(2) 0.1073(2) 0.9938(4)
H1 H 0.6359 0.1492 0.9670
C2 C 0.6237(2) 0.0458(3) 0.9636(4)
C7 C 0.5633(2) 0.0023(3) 0.8743(4)
C8 C 0.5724(3) 0.0667(4) 0.7679(5)
H5 H 0.5693 0.0845 0.7157
C9 C 0.6026(3) 0.0895(4) 0.8248(4)
H6 H 0.6223 0.1272 0.8202
H12 H 0.6973 0.2237 0.9851
N7 N 0.45237(19) 0.0138(2) 0.7003(3)
N8 N 0.40180(17) 0.0461(2) 0.6108(3)
N11 N 0.27852(13) 0.24273(19) 0.3308(3)
N12 N 0.31343(14) 0.1671(2) 0.4093(3)
C43 C 0.3592(2) 0.1073(2) 0.5062(4)
H28 H 0.3641 0.1492 0.5330
C44 C 0.3763(2) 0.0458(3) 0.5364(4)
C47 C 0.32866(16) 0.0438(2) 0.3926(3)
H30 H 0.3126 0.0434 0.3440
C48 C 0.33473(18) 0.1050(2) 0.4357(3)
C49 C 0.4367(2) 0.0023(3) 0.6257(4)
C50 C 0.4276(3) 0.0667(4) 0.7321(5)
H32 H 0.4307 0.0845 0.7843
C51 C 0.3974(3) 0.0895(4) 0.6752(4)
H33 H 0.3777 0.1272 0.6798
C55 C 0.29910(16) 0.1837(2) 0.3331(3)
H37 H 0.3037 0.1556 0.2878
C56 C 0.2783(2) 0.2649(3) 0.4096(4)
H38 H 0.2652 0.3064 0.4268
C57 C 0.2989(3) 0.2200(3) 0.4590(4)
H39 H 0.3027 0.2237 0.5149
Co6 Co 0.23737(2) 0.27868(3) 0.23953(3)
N3 N 0.69372(12) 0.83696(18) 0.1886(2)
N4 N 0.66094(13) 0.91831(18) 0.1159(2)
C3 C 0.62965(19) 0.9840(3) 0.0040(4)
C4 C 0.65302(18) 0.9835(2) 0.0763(3)
C10 C 0.69352(15) 0.9020(2) 0.1691(3)
H7 H 0.7139 0.9343 0.1900
C11 C 0.65709(19) 0.8094(3) 0.1472(3)
H8 H 0.6473 0.7636 0.1510
C12 C 0.63807(19) 0.8576(3) 0.1016(4)
H9 H 0.6137 0.8515 0.0664
O7 O 0.27384(12) 0.35703(17) 0.1882(2)
O8 O 0.29304(13) 0.2544(2) 0.1452(2)
C73 C 0.35574(19) 0.3149(3) 0.0339(4)
H48 H 0.3490 0.2680 0.0265
C74 C 0.33354(16) 0.3516(3) 0.0934(3)
C75 C 0.34385(18) 0.4216(3) 0.1030(4)
H49 H 0.3292 0.4475 0.1428
C76 C 0.37580(17) 0.4528(3) 0.0536(4)
H50 H 0.3826 0.4996 0.0611
C77 C 0.29850(17) 0.3192(3) 0.1448(3)
Co9 Co 0.73737(2) 0.77868(3) 0.26047(3)
N13 N 0.19372(12) 0.33696(18) 0.3114(2)
O13 O 0.19796(11) 0.18968(17) 0.2398(2)
O15 O 0.17833(11) 0.26546(18) 0.1482(2)
Co2 Co 0.5000 0.95301(5) 0.7500
O1 O 0.72616(12) 0.35703(17) 0.3118(2)
O2 O 0.70696(13) 0.2544(2) 0.3548(2)
O3 O 0.51769(18) 0.8861(2) 0.6674(3)
O4 O 0.5834(2) 0.8680(2) 0.7263(4)
O5 O 0.30204(11) 0.31032(17) 0.7398(2)
O6 O 0.32167(11) 0.23454(18) 0.6482(2)
H2 H 0.6180 0.9429 0.9827
H4 H 0.5520 0.9695 0.9105
C16 C 0.5517(3) 0.8476(3) 0.6878(5)
C17 C 0.5475(2) 0.7711(3) 0.6676(3)
C18 C 0.50679(19) 0.7443(3) 0.6427(4)
H13 H 0.4821 0.7735 0.6343
C19 C 0.50260(18) 0.6718(3) 0.6298(3)
H14 H 0.4748 0.6532 0.6143
C20 C 0.53957(15) 0.6283(3) 0.6401(3)
C21 C 0.57999(18) 0.6562(3) 0.6641(4)
H15 H 0.6051 0.6275 0.6708
C22 C 0.5840(2) 0.7277(3) 0.6789(4)
H16 H 0.6115 0.7459 0.6964
C23 C 0.53553(15) 0.5527(2) 0.6205(3)
C24 C 0.49639(15) 0.5158(3) 0.6377(3)
H17 H 0.4727 0.5382 0.6641
C25 C 0.49164(14) 0.4467(2) 0.6169(3)
C26 C 0.52652(15) 0.4143(3) 0.5757(3)
H18 H 0.5235 0.3679 0.5607
C27 C 0.56639(15) 0.4501(3) 0.5562(3)
C28 C 0.56975(15) 0.5189(3) 0.5801(3)
H19 H 0.5962 0.5432 0.5683
C29 C 0.60228(15) 0.4161(3) 0.5066(3)
C30 C 0.61166(18) 0.3465(3) 0.5160(4)
H20 H 0.5965 0.3205 0.5551
C31 C 0.64426(19) 0.3149(3) 0.4661(4)
H21 H 0.6510 0.2680 0.4735
C32 C 0.66646(16) 0.3516(3) 0.4066(3)
C33 C 0.65615(18) 0.4216(3) 0.3970(4)
H22 H 0.6708 0.4475 0.3572
C34 C 0.62420(17) 0.4528(3) 0.4464(4)
H23 H 0.6174 0.4996 0.4389
C35 C 0.70150(17) 0.3192(3) 0.3552(3)
C36 C 0.44901(15) 0.4085(2) 0.6343(3)
C37 C 0.42287(15) 0.4218(3) 0.7029(3)
H24 H 0.4319 0.4564 0.7389
C38 C 0.38402(15) 0.3850(3) 0.7186(3)
H25 H 0.3673 0.3947 0.7651
C39 C 0.36948(14) 0.3331(2) 0.6655(3)
C40 C 0.39477(16) 0.3205(3) 0.5963(3)
H26 H 0.3855 0.2862 0.5601
C41 C 0.43343(17) 0.3580(3) 0.5806(3)
H27 H 0.4495 0.3494 0.5331
C42 C 0.32833(16) 0.2911(3) 0.6844(3)
N9 N 0.30628(12) 0.83696(18) 0.3114(2)
N10 N 0.33906(13) 0.91831(18) 0.3841(2)
O9 O 0.48231(18) 0.8861(2) 0.8326(3)
O10 O 0.4166(2) 0.8680(2) 0.7737(4)
O11 O 0.69796(11) 0.31032(17) 0.7602(2)
O12 O 0.67833(11) 0.23454(18) 0.8518(2)
C45 C 0.37035(19) 0.9840(3) 0.4960(4)
H29 H 0.3820 0.9429 0.5173
C46 C 0.34698(18) 0.9835(2) 0.4237(3)
H31 H 0.4480 0.9695 0.5895
C52 C 0.30648(15) 0.9020(2) 0.3309(3)
H34 H 0.2861 0.9343 0.3100
C53 C 0.34291(19) 0.8094(3) 0.3528(3)
H35 H 0.3527 0.7636 0.3490
C54 C 0.36193(19) 0.8576(3) 0.3984(4)
H36 H 0.3863 0.8515 0.4336
C58 C 0.4483(3) 0.8476(3) 0.8122(5)
C59 C 0.4525(2) 0.7711(3) 0.8324(3)
C60 C 0.49321(19) 0.7443(3) 0.8573(4)
H40 H 0.5179 0.7735 0.8657
C61 C 0.49740(18) 0.6718(3) 0.8702(3)
H41 H 0.5252 0.6532 0.8857
C62 C 0.46043(15) 0.6283(3) 0.8599(3)
C63 C 0.42001(18) 0.6562(3) 0.8359(4)
H42 H 0.3949 0.6275 0.8292
C64 C 0.4160(2) 0.7277(3) 0.8211(4)
H43 H 0.3885 0.7459 0.8036
C65 C 0.46447(15) 0.5527(2) 0.8795(3)
C66 C 0.50361(15) 0.5158(3) 0.8623(3)
H44 H 0.5273 0.5382 0.8359
C67 C 0.50836(14) 0.4467(2) 0.8831(3)
C68 C 0.47348(15) 0.4143(3) 0.9243(3)
H45 H 0.4765 0.3679 0.9393
C69 C 0.43361(15) 0.4501(3) 0.9438(3)
C70 C 0.43025(15) 0.5189(3) 0.9199(3)
H46 H 0.4038 0.5432 0.9317
C71 C 0.39772(15) 0.4161(3) 0.9934(3)
C72 C 0.38834(18) 0.3465(3) 0.9840(4)
H47 H 0.4035 0.3205 0.9449
C78 C 0.55099(15) 0.4085(2) 0.8657(3)
C79 C 0.57713(15) 0.4218(3) 0.7971(3)
H51 H 0.5681 0.4564 0.7611
C80 C 0.61598(15) 0.3850(3) 0.7814(3)
H52 H 0.6327 0.3947 0.7349
C81 C 0.63052(14) 0.3331(2) 0.8345(3)
C82 C 0.60523(16) 0.3205(3) 0.9037(3)
H53 H 0.6145 0.2862 0.9399
C83 C 0.56657(17) 0.3580(3) 0.9194(3)
H54 H 0.5505 0.3494 0.9669
C84 C 0.67167(16) 0.2911(3) 0.8156(3)
Co5 Co 0.73737(2) 0.22132(3) 0.76047(3)
Co7 Co 0.26263(2) 0.22132(3) 0.73953(3)
Co8 Co 0.26263(2) 0.77868(3) 0.23953(3)
N14 N 0.80628(12) 0.33696(18) 0.1886(2)
O14 O 0.80204(11) 0.18968(17) 0.2602(2)
O16 O 0.82167(11) 0.26546(18) 0.3518(2)
C25_2 C 0.00836(14) 0.0533(2) 0.1169(3)
C36_2 C 0.05099(15) 0.0915(2) 0.1343(3)
C37_2 C 0.07713(15) 0.0782(3) 0.2029(3)
H24_2 H 0.0681 0.0436 0.2389
C38_2 C 0.11598(15) 0.1150(3) 0.2186(3)
H25_2 H 0.1327 0.1053 0.2651
C39_2 C 0.13052(14) 0.1669(2) 0.1655(3)
C40_2 C 0.10523(16) 0.1795(3) 0.0963(3)
H26_2 H 0.1145 0.2138 0.0601
C41_2 C 0.06657(17) 0.1420(3) 0.0806(3)
H27_2 H 0.0505 0.1506 0.0331
C42_2 C 0.17167(16) 0.2089(3) 0.1844(3)
O7_2 O 0.22616(12) 0.14297(17) 0.6882(2)
O8_2 O 0.20696(13) 0.2456(2) 0.6452(2)
C68_2 C 0.02652(15) 0.0857(3) 0.4243(3)
H45_2 H 0.0235 0.1321 0.4393
C69_2 C 0.06639(15) 0.0499(3) 0.4438(3)
C71_2 C 0.10228(15) 0.0839(3) 0.4934(3)
C72_2 C 0.11166(18) 0.1535(3) 0.4840(4)
H47_2 H 0.0965 0.1795 0.4449
C73_2 C 0.14426(19) 0.1851(3) 0.5339(4)
H48_2 H 0.1510 0.2320 0.5265
C74_2 C 0.16646(16) 0.1484(3) 0.5934(3)
C75_2 C 0.15615(18) 0.0784(3) 0.6030(4)
H49_2 H 0.1708 0.0525 0.6428
C76_2 C 0.12420(17) 0.0472(3) 0.5536(4)
H50_2 H 0.1174 0.0004 0.5611
C77_2 C 0.20150(17) 0.1808(3) 0.6448(3)
N13_2 N 0.30628(12) 0.16304(18) 0.8114(2)
N16 N 0.22148(13) 0.25727(19) 0.8308(3)
N9_2 N 0.19372(12) 0.66304(18) 0.8114(2)
N10_2 N 0.16094(13) 0.58169(18) 0.8841(2)
N12_2 N 0.18657(14) 0.3329(2) 0.9093(3)
C45_2 C 0.12965(19) 0.5160(3) 0.9960(4)
C46_2 C 0.15302(18) 0.5165(2) 0.9237(3)
C47_2 C 0.17134(16) 0.4562(2) 0.8926(3)
H30_2 H 0.1874 0.4566 0.8440
C48_2 C 0.16527(18) 0.3950(2) 0.9357(3)
C52_2 C 0.19352(15) 0.5980(2) 0.8309(3)
H34_2 H 0.2139 0.5657 0.8100
C53_2 C 0.15709(19) 0.6906(3) 0.8528(3)
H35_2 H 0.1473 0.7364 0.8490
C54_2 C 0.13807(19) 0.6424(3) 0.8984(4)
H36_2 H 0.1137 0.6485 0.9336
C55_2 C 0.20090(16) 0.3163(2) 0.8331(3)
H37_2 H 0.1963 0.3444 0.7878
C56_2 C 0.2217(2) 0.2351(3) 0.9096(4)
H38_2 H 0.2348 0.1936 0.9268
C57_2 C 0.2011(3) 0.2800(3) 0.9590(4)
Co8_2 Co 0.23737(2) 0.72132(3) 0.73953(3)
C26_2 C 0.97348(15) 0.0857(3) 0.0757(3)
H18_2 H 0.9765 0.1321 0.0607
C27_2 C 0.93361(15) 0.0499(3) 0.0562(3)
C29_2 C 0.89772(15) 0.0839(3) 0.0066(3)
C30_2 C 0.88834(18) 0.1535(3) 0.0160(4)
H20_2 H 0.9035 0.1795 0.0551
C67_2 C 0.99164(14) 0.0533(2) 0.3831(3)
C78_2 C 0.94901(15) 0.0915(2) 0.3657(3)
C79_2 C 0.92287(15) 0.0782(3) 0.2971(3)
H51_2 H 0.9319 0.0436 0.2611
C80_2 C 0.88402(15) 0.1150(3) 0.2814(3)
H52_2 H 0.8673 0.1053 0.2349
C81_2 C 0.86948(14) 0.1669(2) 0.3345(3)
C82_2 C 0.89477(16) 0.1795(3) 0.4037(3)
H53_2 H 0.8855 0.2138 0.4399
C83_2 C 0.93343(17) 0.1420(3) 0.4194(3)
H54_2 H 0.9495 0.1506 0.4669
C84_2 C 0.82833(16) 0.2089(3) 0.3156(3)
O1_2 O 0.77384(12) 0.14297(17) 0.8118(2)
O2_2 O 0.79304(13) 0.2456(2) 0.8548(2)
C31_2 C 0.85574(19) 0.1851(3) 0.9661(4)
H21_2 H 0.8490 0.2320 0.9735
C32_2 C 0.83354(16) 0.1484(3) 0.9066(3)
C33_2 C 0.84385(18) 0.0784(3) 0.8970(4)
H22_2 H 0.8292 0.0525 0.8572
C34_2 C 0.87580(17) 0.0472(3) 0.9464(4)
H23_2 H 0.8826 0.0004 0.9389
C35_2 C 0.79850(17) 0.1808(3) 0.8552(3)
N14_2 N 0.69372(12) 0.16304(18) 0.6886(2)
N15 N 0.77852(13) 0.25727(19) 0.6692(3)
Co2_2 Co 1.0000 0.54699(5) 0.2500
N1_2 N 0.95237(19) 0.4862(2) 0.2997(3)
N2_2 N 0.90180(17) 0.4539(2) 0.3892(3)
N3_2 N 0.80628(12) 0.66304(18) 0.6886(2)
N4_2 N 0.83906(13) 0.58169(18) 0.6159(2)
N6_2 N 0.81343(14) 0.3329(2) 0.5907(3)
O3_2 O 0.98231(18) 0.6139(2) 0.1674(3)
O4_2 O 0.9166(2) 0.6320(2) 0.2263(4)
C1_2 C 0.8592(2) 0.3927(2) 0.4938(4)
H1_2 H 0.8641 0.3508 0.4670
C2_2 C 0.8763(2) 0.4542(3) 0.4636(4)
C3_2 C 0.87035(19) 0.5160(3) 0.5040(4)
H2_2 H 0.8820 0.5571 0.4827
C4_2 C 0.84698(18) 0.5165(2) 0.5763(3)
C5_2 C 0.82866(16) 0.4562(2) 0.6074(3)
H3_2 H 0.8126 0.4566 0.6560
C6_2 C 0.83473(18) 0.3950(2) 0.5643(3)
C7_2 C 0.9367(2) 0.4977(3) 0.3743(4)
H4_2 H 0.9480 0.5305 0.4105
C8_2 C 0.9276(3) 0.4333(4) 0.2679(5)
H5_2 H 0.9307 0.4155 0.2157
C9_2 C 0.8974(3) 0.4105(4) 0.3248(4)
H6_2 H 0.8777 0.3728 0.3202
C10_2 C 0.80648(15) 0.5980(2) 0.6691(3)
H7_2 H 0.7861 0.5657 0.6900
C11_2 C 0.84291(19) 0.6906(3) 0.6472(3)
H8_2 H 0.8527 0.7364 0.6510
C12_2 C 0.86193(19) 0.6424(3) 0.6016(4)
H9_2 H 0.8863 0.6485 0.5664
C13_2 C 0.79910(16) 0.3163(2) 0.6669(3)
H10_2 H 0.8037 0.3444 0.7122
C14_2 C 0.7783(2) 0.2351(3) 0.5904(4)
H11_2 H 0.7652 0.1936 0.5732
C15_2 C 0.7989(3) 0.2800(3) 0.5410(4)
H12_2 H 0.8027 0.2763 0.4851
C16_2 C 0.9483(3) 0.6524(3) 0.1878(5)
C17_2 C 0.9525(2) 0.7289(3) 0.1676(3)
C18_2 C 0.99321(19) 0.7557(3) 0.1427(4)
C19_2 C 0.99740(18) 0.8282(3) 0.1298(3)
C20_2 C 0.96043(15) 0.8717(3) 0.1401(3)
C21_2 C 0.92001(18) 0.8438(3) 0.1641(4)
H15_2 H 0.8949 0.8725 0.1708
C22_2 C 0.9160(2) 0.7723(3) 0.1789(4)
H16_2 H 0.8885 0.7541 0.1964
C23_2 C 0.96447(15) 0.9473(2) 0.1205(3)
C28_2 C 0.93025(15) 0.9811(3) 0.0801(3)
H19_2 H 0.9038 0.9568 0.0683
H40_2 H 0.9821 0.7265 0.3657
H41_2 H 0.9748 0.8468 0.3857
C66_2 C 0.99639(15) 0.9842(3) 0.3623(3)
H44_2 H 0.9727 0.9618 0.3359
Co9_2 Co 0.76263(2) 0.72132(3) 0.76047(3)
Co2_3 Co 0.5000 0.04699(5) 0.2500
O1_3 O 0.27384(12) 0.64297(17) 0.6882(2)
O2_3 O 0.29304(13) 0.7456(2) 0.6452(2)
O3_3 O 0.48231(18) 0.1139(2) 0.3326(3)
O4_3 O 0.4166(2) 0.1320(2) 0.2737(4)
O5_2 O 0.69796(11) 0.68968(17) 0.2602(2)
O6_2 O 0.67833(11) 0.76546(18) 0.3518(2)
H2_3 H 0.3820 0.0571 0.0173
H4_3 H 0.4480 0.0305 0.0895
C16_3 C 0.4483(3) 0.1524(3) 0.3122(5)
C17_3 C 0.4525(2) 0.2289(3) 0.3324(3)
C18_3 C 0.49321(19) 0.2557(3) 0.3573(4)
H13_2 H 0.5179 0.2265 0.3657
C19_3 C 0.49740(18) 0.3282(3) 0.3702(3)
H14_2 H 0.5252 0.3468 0.3857
C20_3 C 0.46043(15) 0.3717(3) 0.3599(3)
C21_3 C 0.42001(18) 0.3438(3) 0.3359(4)
H15_3 H 0.3949 0.3725 0.3292
C22_3 C 0.4160(2) 0.2723(3) 0.3211(4)
H16_3 H 0.3885 0.2541 0.3036
C23_3 C 0.46447(15) 0.4473(2) 0.3795(3)
C24_2 C 0.50361(15) 0.4842(3) 0.3623(3)
H17_2 H 0.5273 0.4618 0.3359
C25_3 C 0.50836(14) 0.5533(2) 0.3831(3)
C26_3 C 0.47348(15) 0.5857(3) 0.4243(3)
H18_3 H 0.4765 0.6321 0.4393
C27_3 C 0.43361(15) 0.5499(3) 0.4438(3)
C28_3 C 0.43025(15) 0.4811(3) 0.4199(3)
H19_3 H 0.4038 0.4568 0.4317
C29_3 C 0.39772(15) 0.5839(3) 0.4934(3)
C30_3 C 0.38834(18) 0.6535(3) 0.4840(4)
H20_3 H 0.4035 0.6795 0.4449
C31_3 C 0.35574(19) 0.6851(3) 0.5339(4)
H21_3 H 0.3490 0.7320 0.5265
C32_3 C 0.33354(16) 0.6484(3) 0.5934(3)
C33_3 C 0.34385(18) 0.5784(3) 0.6030(4)
H22_3 H 0.3292 0.5525 0.6428
C34_3 C 0.37580(17) 0.5472(3) 0.5536(4)
H23_3 H 0.3826 0.5004 0.5611
C35_3 C 0.29850(17) 0.6808(3) 0.6448(3)
C36_3 C 0.55099(15) 0.5915(2) 0.3657(3)
C37_3 C 0.57713(15) 0.5782(3) 0.2971(3)
H24_3 H 0.5681 0.5436 0.2611
C38_3 C 0.61598(15) 0.6150(3) 0.2814(3)
H25_3 H 0.6327 0.6053 0.2349
C39_3 C 0.63052(14) 0.6669(2) 0.3345(3)
C40_3 C 0.60523(16) 0.6795(3) 0.4037(3)
H26_3 H 0.6145 0.7138 0.4399
C41_3 C 0.56657(17) 0.6420(3) 0.4194(3)
H27_3 H 0.5505 0.6506 0.4669
C42_3 C 0.67167(16) 0.7089(3) 0.3156(3)
N10_3 N 0.66094(13) 0.08169(18) 0.6159(2)
O9_2 O 0.51769(18) 0.1139(2) 0.1674(3)
O10_2 O 0.5834(2) 0.1320(2) 0.2263(4)
O11_2 O 0.30204(11) 0.68968(17) 0.2398(2)
O12_2 O 0.32167(11) 0.76546(18) 0.1482(2)
C45_3 C 0.62965(19) 0.0160(3) 0.5040(4)
H29_2 H 0.6180 0.0571 0.4827
C46_3 C 0.65302(18) 0.0165(2) 0.5763(3)
H31_2 H 0.5520 0.0305 0.4105
C52_3 C 0.69352(15) 0.0980(2) 0.6691(3)
H34_3 H 0.7139 0.0657 0.6900
C53_3 C 0.65709(19) 0.1906(3) 0.6472(3)
H35_3 H 0.6473 0.2364 0.6510
C54_3 C 0.63807(19) 0.1424(3) 0.6016(4)
H36_3 H 0.6137 0.1485 0.5664
C58_2 C 0.5517(3) 0.1524(3) 0.1878(5)
C59_2 C 0.5475(2) 0.2289(3) 0.1676(3)
C60_2 C 0.50679(19) 0.2557(3) 0.1427(4)
H40_3 H 0.4821 0.2265 0.1343
C61_2 C 0.50260(18) 0.3282(3) 0.1298(3)
H41_3 H 0.4748 0.3468 0.1143
C62_2 C 0.53957(15) 0.3717(3) 0.1401(3)
C63_2 C 0.57999(18) 0.3438(3) 0.1641(4)
H42_2 H 0.6051 0.3725 0.1708
C64_2 C 0.5840(2) 0.2723(3) 0.1789(4)
H43_2 H 0.6115 0.2541 0.1964
C65_2 C 0.53553(15) 0.4473(2) 0.1205(3)
C66_3 C 0.49639(15) 0.4842(3) 0.1377(3)
H44_3 H 0.4727 0.4618 0.1641
C67_3 C 0.49164(14) 0.5533(2) 0.1169(3)
C68_3 C 0.52652(15) 0.5857(3) 0.0757(3)
H45_3 H 0.5235 0.6321 0.0607
C69_3 C 0.56639(15) 0.5499(3) 0.0562(3)
C70_2 C 0.56975(15) 0.4811(3) 0.0801(3)
H46_2 H 0.5962 0.4568 0.0683
C71_3 C 0.60228(15) 0.5839(3) 0.0066(3)
C72_3 C 0.61166(18) 0.6535(3) 0.0160(4)
H47_3 H 0.5965 0.6795 0.0551
C78_3 C 0.44901(15) 0.5915(2) 0.1343(3)
C79_3 C 0.42287(15) 0.5782(3) 0.2029(3)
H51_3 H 0.4319 0.5436 0.2389
C80_3 C 0.38402(15) 0.6150(3) 0.2186(3)
H52_3 H 0.3673 0.6053 0.2651
C81_3 C 0.36948(14) 0.6669(2) 0.1655(3)
C82_3 C 0.39477(16) 0.6795(3) 0.0963(3)
H53_3 H 0.3855 0.7138 0.0601
C83_3 C 0.43343(17) 0.6420(3) 0.0806(3)
H54_3 H 0.4495 0.6506 0.0331
C84_3 C 0.32833(16) 0.7089(3) 0.1844(3)
N15_2 N 0.27852(13) 0.75727(19) 0.8308(3)
O14_2 O 0.19796(11) 0.81032(17) 0.7398(2)
O16_2 O 0.17833(11) 0.73454(18) 0.6482(2)
N4_3 N 0.33906(13) 0.08169(18) 0.8841(2)
C3_3 C 0.37035(19) 0.0160(3) 0.9960(4)
C4_3 C 0.34698(18) 0.0165(2) 0.9237(3)
C10_3 C 0.30648(15) 0.0980(2) 0.8309(3)
H7_3 H 0.2861 0.0657 0.8100
C11_3 C 0.34291(19) 0.1906(3) 0.8528(3)
H8_3 H 0.3527 0.2364 0.8490
C12_3 C 0.36193(19) 0.1424(3) 0.8984(4)
H9_3 H 0.3863 0.1485 0.9336
O7_3 O 0.72616(12) 0.64297(17) 0.8118(2)
O8_3 O 0.70696(13) 0.7456(2) 0.8548(2)
C73_3 C 0.64426(19) 0.6851(3) 0.9661(4)
H48_3 H 0.6510 0.7320 0.9735
C74_3 C 0.66646(16) 0.6484(3) 0.9066(3)
C75_3 C 0.65615(18) 0.5784(3) 0.8970(4)
H49_3 H 0.6708 0.5525 0.8572
C76_3 C 0.62420(17) 0.5472(3) 0.9464(4)
H50_3 H 0.6174 0.5004 0.9389
C77_3 C 0.70150(17) 0.6808(3) 0.8552(3)
N16_2 N 0.72148(13) 0.75727(19) 0.6692(3)
O13_2 O 0.80204(11) 0.81032(17) 0.7602(2)
O15_2 O 0.82167(11) 0.73454(18) 0.8518(2)
N1_3 N 0.45237(19) 0.9862(2) 0.2003(3)
N2_3 N 0.40180(17) 0.9539(2) 0.1108(3)
C1_3 C 0.3592(2) 0.8927(2) 0.0062(4)
H1_3 H 0.3641 0.8508 0.0330
C2_3 C 0.3763(2) 0.9542(3) 0.0364(4)
C7_3 C 0.4367(2) 0.9977(3) 0.1257(4)
C8_3 C 0.4276(3) 0.9333(4) 0.2321(5)
H5_3 H 0.4307 0.9155 0.2843
C9_3 C 0.3974(3) 0.9105(4) 0.1752(4)
H6_3 H 0.3777 0.8728 0.1798
H12_3 H 0.3027 0.7763 0.0149
N7_2 N 0.54763(19) 0.9862(2) 0.2997(3)
N8_2 N 0.59820(17) 0.9539(2) 0.3892(3)
N12_3 N 0.68657(14) 0.8329(2) 0.5907(3)
C43_2 C 0.6408(2) 0.8927(2) 0.4938(4)
H28_2 H 0.6359 0.8508 0.4670
C44_2 C 0.6237(2) 0.9542(3) 0.4636(4)
C47_3 C 0.67134(16) 0.9562(2) 0.6074(3)
H30_3 H 0.6874 0.9566 0.6560
C48_3 C 0.66527(18) 0.8950(2) 0.5643(3)
C49_2 C 0.5633(2) 0.9977(3) 0.3743(4)
C50_2 C 0.5724(3) 0.9333(4) 0.2679(5)
H32_2 H 0.5693 0.9155 0.2157
C51_2 C 0.6026(3) 0.9105(4) 0.3248(4)
H33_2 H 0.6223 0.8728 0.3202
C55_3 C 0.70090(16) 0.8163(2) 0.6669(3)
H37_3 H 0.6963 0.8444 0.7122
C56_3 C 0.7217(2) 0.7351(3) 0.5904(4)
H38_3 H 0.7348 0.6936 0.5732
C57_3 C 0.7011(3) 0.7800(3) 0.5410(4)
H39_2 H 0.6973 0.7763 0.4851
N6_3 N 0.31343(14) 0.8329(2) 0.9093(3)
C5_3 C 0.32866(16) 0.9562(2) 0.8926(3)
H3_3 H 0.3126 0.9566 0.8440
C6_3 C 0.33473(18) 0.8950(2) 0.9357(3)
C13_3 C 0.29910(16) 0.8163(2) 0.8331(3)
H10_3 H 0.3037 0.8444 0.7878
C14_3 C 0.2783(2) 0.7351(3) 0.9096(4)
H11_3 H 0.2652 0.6936 0.9268
C15_3 C 0.2989(3) 0.7800(3) 0.9590(4)
Co2_4 Co -0.0000 0.45301(5) 0.7500
N1_4 N 0.04763(19) 0.5138(2) 0.7003(3)
N2_4 N 0.09820(17) 0.5461(2) 0.6108(3)
N4_4 N 0.16094(13) 0.41831(18) 0.3841(2)
N5_2 N 0.22148(13) 0.74273(19) 0.3308(3)
N6_4 N 0.18657(14) 0.6671(2) 0.4093(3)
O3_4 O 0.01769(18) 0.3861(2) 0.8326(3)
O4_4 O 0.0834(2) 0.3680(2) 0.7737(4)
C1_4 C 0.1408(2) 0.6073(2) 0.5062(4)
H1_4 H 0.1359 0.6492 0.5330
C2_4 C 0.1237(2) 0.5458(3) 0.5364(4)
C3_4 C 0.12965(19) 0.4840(3) 0.4960(4)
H2_4 H 0.1180 0.4429 0.5173
C4_4 C 0.15302(18) 0.4835(2) 0.4237(3)
C5_4 C 0.17134(16) 0.5438(2) 0.3926(3)
H3_4 H 0.1874 0.5434 0.3440
C6_4 C 0.16527(18) 0.6050(2) 0.4357(3)
C7_4 C 0.0633(2) 0.5023(3) 0.6257(4)
H4_4 H 0.0520 0.4695 0.5895
C8_4 C 0.0724(3) 0.5667(4) 0.7321(5)
H5_4 H 0.0693 0.5845 0.7843
C9_4 C 0.1026(3) 0.5895(4) 0.6752(4)
H6_4 H 0.1223 0.6272 0.6798
C10_4 C 0.19352(15) 0.4020(2) 0.3309(3)
H7_4 H 0.2139 0.4343 0.3100
C11_4 C 0.15709(19) 0.3094(3) 0.3528(3)
H8_4 H 0.1473 0.2636 0.3490
C12_4 C 0.13807(19) 0.3576(3) 0.3984(4)
H9_4 H 0.1137 0.3515 0.4336
C13_4 C 0.20090(16) 0.6837(2) 0.3331(3)
H10_4 H 0.1963 0.6556 0.2878
C14_4 C 0.2217(2) 0.7649(3) 0.4096(4)
H11_4 H 0.2348 0.8064 0.4268
C15_4 C 0.2011(3) 0.7200(3) 0.4590(4)
H12_4 H 0.1973 0.7237 0.5149
C16_4 C 0.0517(3) 0.3476(3) 0.8122(5)
C17_4 C 0.0475(2) 0.2711(3) 0.8324(3)
C18_4 C 0.00679(19) 0.2443(3) 0.8573(4)
C19_4 C 0.00260(18) 0.1718(3) 0.8702(3)
C20_4 C 0.03957(15) 0.1283(3) 0.8599(3)
C21_4 C 0.07999(18) 0.1562(3) 0.8359(4)
H15_4 H 0.1051 0.1275 0.8292
C22_4 C 0.0840(2) 0.2277(3) 0.8211(4)
H16_4 H 0.1115 0.2459 0.8036
C23_4 C 0.03553(15) 0.0527(2) 0.8795(3)
C28_4 C 0.06975(15) 0.0189(3) 0.9199(3)
H19_4 H 0.0962 0.0432 0.9317
H40_4 H 0.0179 0.2735 0.6343
H41_4 H 0.0252 0.1532 0.6143
C66_4 C 0.00361(15) 0.0158(3) 0.6377(3)
H44_4 H 0.0273 0.0382 0.6641
O1_4 O 0.22616(12) 0.85703(17) 0.1882(2)
O2_4 O 0.20696(13) 0.7544(2) 0.1452(2)
C31_4 C 0.14426(19) 0.8149(3) 0.0339(4)
H21_4 H 0.1510 0.7680 0.0265
C32_4 C 0.16646(16) 0.8516(3) 0.0934(3)
C33_4 C 0.15615(18) 0.9216(3) 0.1030(4)
H22_4 H 0.1708 0.9475 0.1428
C34_4 C 0.12420(17) 0.9528(3) 0.0536(4)
H23_4 H 0.1174 0.9996 0.0611
C35_4 C 0.20150(17) 0.8192(3) 0.1448(3)
C26_4 C 0.02652(15) 0.9143(3) 0.9243(3)
H18_4 H 0.0235 0.8679 0.9393
C27_4 C 0.06639(15) 0.9501(3) 0.9438(3)
C29_4 C 0.10228(15) 0.9161(3) 0.9934(3)
C30_4 C 0.11166(18) 0.8465(3) 0.9840(4)
H20_4 H 0.0965 0.8205 0.9449
C67_4 C 0.00836(14) 0.9467(2) 0.6169(3)
C78_4 C 0.05099(15) 0.9085(2) 0.6343(3)
C79_4 C 0.07713(15) 0.9218(3) 0.7029(3)
H51_4 H 0.0681 0.9564 0.7389
C80_4 C 0.11598(15) 0.8850(3) 0.7186(3)
H52_4 H 0.1327 0.8947 0.7651
C81_4 C 0.13052(14) 0.8331(2) 0.6655(3)
C82_4 C 0.10523(16) 0.8205(3) 0.5963(3)
H53_4 H 0.1145 0.7862 0.5601
C83_4 C 0.06657(17) 0.8580(3) 0.5806(3)
H54_4 H 0.0505 0.8494 0.5331
C84_4 C 0.17167(16) 0.7911(3) 0.6844(3)
N10_4 N 0.83906(13) 0.41831(18) 0.1159(2)
N11_2 N 0.77852(13) 0.74273(19) 0.1692(3)
N12_4 N 0.81343(14) 0.6671(2) 0.0907(3)
C45_4 C 0.87035(19) 0.4840(3) 0.0040(4)
C46_4 C 0.84698(18) 0.4835(2) 0.0763(3)
C47_4 C 0.82866(16) 0.5438(2) 0.1074(3)
H30_4 H 0.8126 0.5434 0.1560
C48_4 C 0.83473(18) 0.6050(2) 0.0643(3)
C52_4 C 0.80648(15) 0.4020(2) 0.1691(3)
H34_4 H 0.7861 0.4343 0.1900
C53_4 C 0.84291(19) 0.3094(3) 0.1472(3)
H35_4 H 0.8527 0.2636 0.1510
C54_4 C 0.86193(19) 0.3576(3) 0.1016(4)
H36_4 H 0.8863 0.3515 0.0664
C55_4 C 0.79910(16) 0.6837(2) 0.1669(3)
H37_4 H 0.8037 0.6556 0.2122
C56_4 C 0.7783(2) 0.7649(3) 0.0904(4)
H38_4 H 0.7652 0.8064 0.0732
C57_4 C 0.7989(3) 0.7200(3) 0.0410(4)
C25_4 C 0.99164(14) 0.9467(2) 0.8831(3)
C36_4 C 0.94901(15) 0.9085(2) 0.8657(3)
C37_4 C 0.92287(15) 0.9218(3) 0.7971(3)
H24_4 H 0.9319 0.9564 0.7611
C38_4 C 0.88402(15) 0.8850(3) 0.7814(3)
H25_4 H 0.8673 0.8947 0.7349
C39_4 C 0.86948(14) 0.8331(2) 0.8345(3)
C40_4 C 0.89477(16) 0.8205(3) 0.9037(3)
H26_4 H 0.8855 0.7862 0.9399
C41_4 C 0.93343(17) 0.8580(3) 0.9194(3)
H27_4 H 0.9495 0.8494 0.9669
C42_4 C 0.82833(16) 0.7911(3) 0.8156(3)
O7_4 O 0.77384(12) 0.85703(17) 0.3118(2)
O8_4 O 0.79304(13) 0.7544(2) 0.3548(2)
C68_4 C 0.97348(15) 0.9143(3) 0.5757(3)
H45_4 H 0.9765 0.8679 0.5607
C69_4 C 0.93361(15) 0.9501(3) 0.5562(3)
C71_4 C 0.89772(15) 0.9161(3) 0.5066(3)
C72_4 C 0.88834(18) 0.8465(3) 0.5160(4)
H47_4 H 0.9035 0.8205 0.5551
C73_4 C 0.85574(19) 0.8149(3) 0.4661(4)
H48_4 H 0.8490 0.7680 0.4735
C74_4 C 0.83354(16) 0.8516(3) 0.4066(3)
C75_4 C 0.84385(18) 0.9216(3) 0.3970(4)
H49_4 H 0.8292 0.9475 0.3572
C76_4 C 0.87580(17) 0.9528(3) 0.4464(4)
H50_4 H 0.8826 0.9996 0.4389
C77_4 C 0.79850(17) 0.8192(3) 0.3552(3)
Co2_5 Co 0.0000 0.54699(5) 0.2500
H13_3 H 0.0179 0.7265 0.1343
H14_3 H 0.0252 0.8468 0.1143
C24_3 C 0.00361(15) 0.9842(3) 0.1377(3)
H17_3 H 0.0273 0.9618 0.1641
N7_3 N 0.04763(19) 0.4862(2) 0.2003(3)
N8_3 N 0.09820(17) 0.4539(2) 0.1108(3)
O9_3 O 0.01769(18) 0.6139(2) 0.3326(3)
O10_3 O 0.0834(2) 0.6320(2) 0.2737(4)
C43_3 C 0.1408(2) 0.3927(2) 0.0062(4)
H28_3 H 0.1359 0.3508 0.0330
C44_3 C 0.1237(2) 0.4542(3) 0.0364(4)
H29_3 H 0.1180 0.5571 0.0173
C49_3 C 0.0633(2) 0.4977(3) 0.1257(4)
H31_3 H 0.0520 0.5305 0.0895
C50_3 C 0.0724(3) 0.4333(4) 0.2321(5)
H32_3 H 0.0693 0.4155 0.2843
C51_3 C 0.1026(3) 0.4105(4) 0.1752(4)
H33_3 H 0.1223 0.3728 0.1798
H39_3 H 0.1973 0.2763 0.0149
C58_3 C 0.0517(3) 0.6524(3) 0.3122(5)
C59_3 C 0.0475(2) 0.7289(3) 0.3324(3)
C60_3 C 0.00679(19) 0.7557(3) 0.3573(4)
C61_3 C 0.00260(18) 0.8282(3) 0.3702(3)
C62_3 C 0.03957(15) 0.8717(3) 0.3599(3)
C63_3 C 0.07999(18) 0.8438(3) 0.3359(4)
H42_3 H 0.1051 0.8725 0.3292
C64_3 C 0.0840(2) 0.7723(3) 0.3211(4)
H43_3 H 0.1115 0.7541 0.3036
C65_3 C 0.03553(15) 0.9473(2) 0.3795(3)
C70_3 C 0.06975(15) 0.9811(3) 0.4199(3)
H46_3 H 0.0962 0.9568 0.4317
Co2_6 Co 1.0000 0.45301(5) 0.7500
H13_4 H 0.9821 0.2735 0.8657
H14_4 H 0.9748 0.1532 0.8857
C24_4 C 0.99639(15) 0.0158(3) 0.8623(3)
H17_4 H 0.9727 0.0382 0.8359
N7_4 N 0.95237(19) 0.5138(2) 0.7997(3)
N8_4 N 0.90180(17) 0.5461(2) 0.8892(3)
O9_4 O 0.98231(18) 0.3861(2) 0.6674(3)
O10_4 O 0.9166(2) 0.3680(2) 0.7263(4)
C43_4 C 0.8592(2) 0.6073(2) 0.9938(4)
H28_4 H 0.8641 0.6492 0.9670
C44_4 C 0.8763(2) 0.5458(3) 0.9636(4)
H29_4 H 0.8820 0.4429 0.9827
C49_4 C 0.9367(2) 0.5023(3) 0.8743(4)
H31_4 H 0.9480 0.4695 0.9105
C50_4 C 0.9276(3) 0.5667(4) 0.7679(5)
H32_4 H 0.9307 0.5845 0.7157
C51_4 C 0.8974(3) 0.5895(4) 0.8248(4)
H33_4 H 0.8777 0.6272 0.8202
H39_4 H 0.8027 0.7237 0.9851
C58_4 C 0.9483(3) 0.3476(3) 0.6878(5)
C59_4 C 0.9525(2) 0.2711(3) 0.6676(3)
C60_4 C 0.99321(19) 0.2443(3) 0.6427(4)
C61_4 C 0.99740(18) 0.1718(3) 0.6298(3)
C62_4 C 0.96043(15) 0.1283(3) 0.6401(3)
C63_4 C 0.92001(18) 0.1562(3) 0.6641(4)
H42_4 H 0.8949 0.1275 0.6708
C64_4 C 0.9160(2) 0.2277(3) 0.6789(4)
H43_4 H 0.8885 0.2459 0.6964
C65_4 C 0.96447(15) 0.0527(2) 0.6205(3)
C70_4 C 0.93025(15) 0.0189(3) 0.5801(3)
H46_4 H 0.9038 0.0432 0.5683
loop_
_geom_bond_atom_site_label_1
_geom_bond_atom_site_label_2
_geom_bond_site_symmetry_1
_geom_bond_site_symmetry_2
N5 C13 1_555 1_555
N6 C6 1_555 1_555
H3 C5 1_555 1_555
C13 N6 1_555 1_555
H10 C13 1_555 1_555
C14 N5 1_555 1_555
H11 C14 1_555 1_555
C15 N6 1_555 1_555
Co4 N5 1_555 1_555
C5 C6 1_555 1_555
C14 C15 1_555 1_555
N1 C7 1_555 1_555
N2 C2 1_555 1_555
C1 H1 1_555 1_555
C2 C1 1_555 1_555
C7 N2 1_555 1_555
C8 N1 1_555 1_555
H5 C8 1_555 1_555
C9 N2 1_555 1_555
H6 C9 1_555 1_555
N8 C44 1_555 1_555
N11 C55 1_555 1_555
N12 C48 1_555 1_555
C43 H28 1_555 1_555
C44 C43 1_555 1_555
H30 C47 1_555 1_555
C48 C43 1_555 1_555
C49 N7 1_555 1_555
C50 N7 1_555 1_555
H32 C50 1_555 1_555
C51 N8 1_555 1_555
H33 C51 1_555 1_555
C55 N12 1_555 1_555
H37 C55 1_555 1_555
C56 N11 1_555 1_555
H38 C56 1_555 1_555
C57 N12 1_555 1_555
H39 C57 1_555 1_555
Co6 N11 1_555 1_555
C8 C9 1_555 1_555
N8 C49 1_555 1_555
C47 C48 1_555 1_555
C50 C51 1_555 1_555
C56 C57 1_555 1_555
N3 C10 1_555 1_555
N4 C4 1_555 1_555
C4 C3 1_555 1_555
C10 N4 1_555 1_555
H7 C10 1_555 1_555
C11 N3 1_555 1_555
H8 C11 1_555 1_555
C12 N4 1_555 1_555
H9 C12 1_555 1_555
Co6 O7 1_555 1_555
O7 C77 1_555 1_555
O8 Co6 1_555 1_555
H48 C73 1_555 1_555
C74 C73 1_555 1_555
C75 C74 1_555 1_555
H49 C75 1_555 1_555
H50 C76 1_555 1_555
C77 O8 1_555 1_555
Co9 N3 1_555 1_555
N13 Co6 1_555 1_555
O13 Co6 1_555 1_555
O15 Co6 1_555 1_555
C11 C12 1_555 1_555
C74 C77 1_555 1_555
C75 C76 1_555 1_555
Co4 O1 1_555 1_555
O1 C35 1_555 1_555
O2 Co4 1_555 1_555
O3 Co2 1_555 1_555
O4 C16 1_555 1_555
O5 C42 1_555 1_555
O6 C42 1_555 1_555
C16 O3 1_555 1_555
C17 C16 1_555 1_555
C18 C17 1_555 1_555
H13 C18 1_555 1_555
C19 C18 1_555 1_555
H14 C19 1_555 1_555
C20 C19 1_555 1_555
C21 C20 1_555 1_555
H15 C21 1_555 1_555
C22 C17 1_555 1_555
H16 C22 1_555 1_555
C23 C20 1_555 1_555
C24 C23 1_555 1_555
H17 C24 1_555 1_555
C25 C24 1_555 1_555
C26 C25 1_555 1_555
H18 C26 1_555 1_555
C27 C26 1_555 1_555
C28 C23 1_555 1_555
H19 C28 1_555 1_555
C29 C27 1_555 1_555
C30 C29 1_555 1_555
H20 C30 1_555 1_555
C31 C30 1_555 1_555
H21 C31 1_555 1_555
C32 C31 1_555 1_555
C33 C32 1_555 1_555
H22 C33 1_555 1_555
C34 C29 1_555 1_555
H23 C34 1_555 1_555
C35 O2 1_555 1_555
C36 C25 1_555 1_555
C37 C36 1_555 1_555
H24 C37 1_555 1_555
C38 C37 1_555 1_555
H25 C38 1_555 1_555
C39 C38 1_555 1_555
C40 C39 1_555 1_555
H26 C40 1_555 1_555
C41 C36 1_555 1_555
H27 C41 1_555 1_555
C42 C39 1_555 1_555
N9 C52 1_555 1_555
N10 C46 1_555 1_555
O9 Co2 1_555 1_555
O10 C58 1_555 1_555
O11 C84 1_555 1_555
O12 C84 1_555 1_555
H29 C45 1_555 1_555
C46 C45 1_555 1_555
C52 N10 1_555 1_555
H34 C52 1_555 1_555
C53 N9 1_555 1_555
H35 C53 1_555 1_555
C54 N10 1_555 1_555
H36 C54 1_555 1_555
C58 O9 1_555 1_555
C59 C58 1_555 1_555
C60 C59 1_555 1_555
H40 C60 1_555 1_555
C61 C60 1_555 1_555
H41 C61 1_555 1_555
C62 C61 1_555 1_555
C63 C62 1_555 1_555
H42 C63 1_555 1_555
C64 C59 1_555 1_555
H43 C64 1_555 1_555
C65 C62 1_555 1_555
C66 C65 1_555 1_555
H44 C66 1_555 1_555
C67 C66 1_555 1_555
C68 C67 1_555 1_555
H45 C68 1_555 1_555
C69 C68 1_555 1_555
C70 C65 1_555 1_555
H46 C70 1_555 1_555
C71 C69 1_555 1_555
C72 C71 1_555 1_555
H47 C72 1_555 1_555
C78 C67 1_555 1_555
C79 C78 1_555 1_555
H51 C79 1_555 1_555
C80 C79 1_555 1_555
H52 C80 1_555 1_555
C81 C80 1_555 1_555
C82 C81 1_555 1_555
H53 C82 1_555 1_555
C83 C78 1_555 1_555
H54 C83 1_555 1_555
C84 C81 1_555 1_555
Co5 O11 1_555 1_555
Co7 O5 1_555 1_555
Co8 N9 1_555 1_555
N14 Co4 1_555 1_555
O14 Co4 1_555 1_555
O16 Co4 1_555 1_555
O6 Co7 1_555 1_555
C21 C22 1_555 1_555
C27 C28 1_555 1_555
C32 C35 1_555 1_555
C33 C34 1_555 1_555
C40 C41 1_555 1_555
O12 Co5 1_555 1_555
C53 C54 1_555 1_555
C63 C64 1_555 1_555
C69 C70 1_555 1_555
C82 C83 1_555 1_555
O13 C42_2 1_555 1_555
O15 C42_2 1_555 1_555
C36_2 C25_2 1_555 1_555
C37_2 C36_2 1_555 1_555
H24_2 C37_2 1_555 1_555
C38_2 C37_2 1_555 1_555
H25_2 C38_2 1_555 1_555
C39_2 C38_2 1_555 1_555
C40_2 C39_2 1_555 1_555
H26_2 C40_2 1_555 1_555
C41_2 C36_2 1_555 1_555
H27_2 C41_2 1_555 1_555
C42_2 C39_2 1_555 1_555
Co7 O7_2 1_555 1_555
O7_2 C77_2 1_555 1_555
O8_2 Co7 1_555 1_555
H45_2 C68_2 1_555 1_555
C69_2 C68_2 1_555 1_555
C71_2 C69_2 1_555 1_555
C72_2 C71_2 1_555 1_555
H47_2 C72_2 1_555 1_555
C73_2 C72_2 1_555 1_555
H48_2 C73_2 1_555 1_555
C74_2 C73_2 1_555 1_555
C75_2 C74_2 1_555 1_555
H49_2 C75_2 1_555 1_555
C76_2 C71_2 1_555 1_555
H50_2 C76_2 1_555 1_555
C77_2 O8_2 1_555 1_555
N13_2 Co7 1_555 1_555
N16 Co7 1_555 1_555
C40_2 C41_2 1_555 1_555
C74_2 C77_2 1_555 1_555
C75_2 C76_2 1_555 1_555
N9_2 C52_2 1_555 1_555
N10_2 C46_2 1_555 1_555
N16 C55_2 1_555 1_555
N12_2 C48_2 1_555 1_555
C46_2 C45_2 1_555 1_555
C47_2 C46_2 1_555 1_555
H30_2 C47_2 1_555 1_555
C52_2 N10_2 1_555 1_555
H34_2 C52_2 1_555 1_555
C53_2 N9_2 1_555 1_555
H35_2 C53_2 1_555 1_555
C54_2 N10_2 1_555 1_555
H36_2 C54_2 1_555 1_555
C55_2 N12_2 1_555 1_555
H37_2 C55_2 1_555 1_555
C56_2 N16 1_555 1_555
H38_2 C56_2 1_555 1_555
C57_2 N12_2 1_555 1_555
Co8_2 N9_2 1_555 1_555
C47_2 C48_2 1_555 1_555
C53_2 C54_2 1_555 1_555
C56_2 C57_2 1_555 1_555
H18_2 C26_2 1_555 1_555
C27_2 C26_2 1_555 1_555
C29_2 C27_2 1_555 1_555
C30_2 C29_2 1_555 1_555
H20_2 C30_2 1_555 1_555
O14 C84_2 1_555 1_555
O16 C84_2 1_555 1_555
C78_2 C67_2 1_555 1_555
C79_2 C78_2 1_555 1_555
H51_2 C79_2 1_555 1_555
C80_2 C79_2 1_555 1_555
H52_2 C80_2 1_555 1_555
C81_2 C80_2 1_555 1_555
C82_2 C81_2 1_555 1_555
H53_2 C82_2 1_555 1_555
C83_2 C78_2 1_555 1_555
H54_2 C83_2 1_555 1_555
C84_2 C81_2 1_555 1_555
C82_2 C83_2 1_555 1_555
Co5 O1_2 1_555 1_555
O1_2 C35_2 1_555 1_555
O2_2 Co5 1_555 1_555
H21_2 C31_2 1_555 1_555
C32_2 C31_2 1_555 1_555
C33_2 C32_2 1_555 1_555
H22_2 C33_2 1_555 1_555
H23_2 C34_2 1_555 1_555
C35_2 O2_2 1_555 1_555
N14_2 Co5 1_555 1_555
N15 Co5 1_555 1_555
C32_2 C35_2 1_555 1_555
C33_2 C34_2 1_555 1_555
Co2_2 N1_2 1_555 1_555
N1_2 C7_2 1_555 1_555
N2_2 C2_2 1_555 1_555
N3_2 C10_2 1_555 1_555
N4_2 C4_2 1_555 1_555
N15 C13_2 1_555 1_555
N6_2 C6_2 1_555 1_555
O3_2 Co2_2 1_555 1_555
O4_2 C16_2 1_555 1_555
C1_2 H1_2 1_555 1_555
C2_2 C1_2 1_555 1_555
C3_2 C2_2 1_555 1_555
H2_2 C3_2 1_555 1_555
C4_2 C3_2 1_555 1_555
C5_2 C4_2 1_555 1_555
H3_2 C5_2 1_555 1_555
C6_2 C1_2 1_555 1_555
C7_2 N2_2 1_555 1_555
H4_2 C7_2 1_555 1_555
C8_2 N1_2 1_555 1_555
H5_2 C8_2 1_555 1_555
C9_2 N2_2 1_555 1_555
H6_2 C9_2 1_555 1_555
C10_2 N4_2 1_555 1_555
H7_2 C10_2 1_555 1_555
C11_2 N3_2 1_555 1_555
H8_2 C11_2 1_555 1_555
C12_2 N4_2 1_555 1_555
H9_2 C12_2 1_555 1_555
C13_2 N6_2 1_555 1_555
H10_2 C13_2 1_555 1_555
C14_2 N15 1_555 1_555
H11_2 C14_2 1_555 1_555
C15_2 N6_2 1_555 1_555
H12_2 C15_2 1_555 1_555
C16_2 O3_2 1_555 1_555
C17_2 C16_2 1_555 1_555
C18_2 C17_2 1_555 1_555
C19_2 C18_2 1_555 1_555
C20_2 C19_2 1_555 1_555
C21_2 C20_2 1_555 1_555
H15_2 C21_2 1_555 1_555
C22_2 C17_2 1_555 1_555
H16_2 C22_2 1_555 1_555
C23_2 C20_2 1_555 1_555
C28_2 C23_2 1_555 1_555
H19_2 C28_2 1_555 1_555
H44_2 C66_2 1_555 1_555
Co9_2 N3_2 1_555 1_555
C5_2 C6_2 1_555 1_555
C8_2 C9_2 1_555 1_555
C11_2 C12_2 1_555 1_555
C14_2 C15_2 1_555 1_555
C21_2 C22_2 1_555 1_555
Co8_2 O1_3 1_555 1_555
O1_3 C35_3 1_555 1_555
O2_3 Co8_2 1_555 1_555
O3_3 Co2_3 1_555 1_555
O4_3 C16_3 1_555 1_555
O5_2 C42_3 1_555 1_555
O6_2 C42_3 1_555 1_555
C16_3 O3_3 1_555 1_555
C17_3 C16_3 1_555 1_555
C18_3 C17_3 1_555 1_555
H13_2 C18_3 1_555 1_555
C19_3 C18_3 1_555 1_555
H14_2 C19_3 1_555 1_555
C20_3 C19_3 1_555 1_555
C21_3 C20_3 1_555 1_555
H15_3 C21_3 1_555 1_555
C22_3 C17_3 1_555 1_555
H16_3 C22_3 1_555 1_555
C23_3 C20_3 1_555 1_555
C24_2 C23_3 1_555 1_555
H17_2 C24_2 1_555 1_555
C25_3 C24_2 1_555 1_555
C26_3 C25_3 1_555 1_555
H18_3 C26_3 1_555 1_555
C27_3 C26_3 1_555 1_555
C28_3 C23_3 1_555 1_555
H19_3 C28_3 1_555 1_555
C29_3 C27_3 1_555 1_555
C30_3 C29_3 1_555 1_555
H20_3 C30_3 1_555 1_555
C31_3 C30_3 1_555 1_555
H21_3 C31_3 1_555 1_555
C32_3 C31_3 1_555 1_555
C33_3 C32_3 1_555 1_555
H22_3 C33_3 1_555 1_555
C34_3 C29_3 1_555 1_555
H23_3 C34_3 1_555 1_555
C35_3 O2_3 1_555 1_555
C36_3 C25_3 1_555 1_555
C37_3 C36_3 1_555 1_555
H24_3 C37_3 1_555 1_555
C38_3 C37_3 1_555 1_555
H25_3 C38_3 1_555 1_555
C39_3 C38_3 1_555 1_555
C40_3 C39_3 1_555 1_555
H26_3 C40_3 1_555 1_555
C41_3 C36_3 1_555 1_555
H27_3 C41_3 1_555 1_555
C42_3 C39_3 1_555 1_555
N14_2 C52_3 1_555 1_555
N10_3 C46_3 1_555 1_555
O9_2 Co2_3 1_555 1_555
O10_2 C58_2 1_555 1_555
O11_2 C84_3 1_555 1_555
O12_2 C84_3 1_555 1_555
H29_2 C45_3 1_555 1_555
C46_3 C45_3 1_555 1_555
C52_3 N10_3 1_555 1_555
H34_3 C52_3 1_555 1_555
C53_3 N14_2 1_555 1_555
H35_3 C53_3 1_555 1_555
C54_3 N10_3 1_555 1_555
H36_3 C54_3 1_555 1_555
C58_2 O9_2 1_555 1_555
C59_2 C58_2 1_555 1_555
C60_2 C59_2 1_555 1_555
H40_3 C60_2 1_555 1_555
C61_2 C60_2 1_555 1_555
H41_3 C61_2 1_555 1_555
C62_2 C61_2 1_555 1_555
C63_2 C62_2 1_555 1_555
H42_2 C63_2 1_555 1_555
C64_2 C59_2 1_555 1_555
H43_2 C64_2 1_555 1_555
C65_2 C62_2 1_555 1_555
C66_3 C65_2 1_555 1_555
H44_3 C66_3 1_555 1_555
C67_3 C66_3 1_555 1_555
C68_3 C67_3 1_555 1_555
H45_3 C68_3 1_555 1_555
C69_3 C68_3 1_555 1_555
C70_2 C65_2 1_555 1_555
H46_2 C70_2 1_555 1_555
C71_3 C69_3 1_555 1_555
C72_3 C71_3 1_555 1_555
H47_3 C72_3 1_555 1_555
C78_3 C67_3 1_555 1_555
C79_3 C78_3 1_555 1_555
H51_3 C79_3 1_555 1_555
C80_3 C79_3 1_555 1_555
H52_3 C80_3 1_555 1_555
C81_3 C80_3 1_555 1_555
C82_3 C81_3 1_555 1_555
H53_3 C82_3 1_555 1_555
C83_3 C78_3 1_555 1_555
H54_3 C83_3 1_555 1_555
C84_3 C81_3 1_555 1_555
Co8 O11_2 1_555 1_555
Co9 O5_2 1_555 1_555
N15_2 Co8_2 1_555 1_555
O14_2 Co8_2 1_555 1_555
O16_2 Co8_2 1_555 1_555
O6_2 Co9 1_555 1_555
C21_3 C22_3 1_555 1_555
C27_3 C28_3 1_555 1_555
C32_3 C35_3 1_555 1_555
C33_3 C34_3 1_555 1_555
C40_3 C41_3 1_555 1_555
O12_2 Co8 1_555 1_555
C53_3 C54_3 1_555 1_555
C63_2 C64_2 1_555 1_555
C69_3 C70_2 1_555 1_555
C82_3 C83_3 1_555 1_555
N13_2 C10_3 1_555 1_555
N4_3 C4_3 1_555 1_555
C4_3 C3_3 1_555 1_555
C10_3 N4_3 1_555 1_555
H7_3 C10_3 1_555 1_555
C11_3 N13_2 1_555 1_555
H8_3 C11_3 1_555 1_555
C12_3 N4_3 1_555 1_555
H9_3 C12_3 1_555 1_555
Co9_2 O7_3 1_555 1_555
O7_3 C77_3 1_555 1_555
O8_3 Co9_2 1_555 1_555
H48_3 C73_3 1_555 1_555
C74_3 C73_3 1_555 1_555
C75_3 C74_3 1_555 1_555
H49_3 C75_3 1_555 1_555
H50_3 C76_3 1_555 1_555
C77_3 O8_3 1_555 1_555
N16_2 Co9_2 1_555 1_555
O13_2 Co9_2 1_555 1_555
O15_2 Co9_2 1_555 1_555
C11_3 C12_3 1_555 1_555
C74_3 C77_3 1_555 1_555
C75_3 C76_3 1_555 1_555
N1_3 C7_3 1_555 1_555
N2_3 C2_3 1_555 1_555
C1_3 H1_3 1_555 1_555
C2_3 C1_3 1_555 1_555
C7_3 N2_3 1_555 1_555
C8_3 N1_3 1_555 1_555
H5_3 C8_3 1_555 1_555
C9_3 N2_3 1_555 1_555
H6_3 C9_3 1_555 1_555
N8_2 C44_2 1_555 1_555
N16_2 C55_3 1_555 1_555
N12_3 C48_3 1_555 1_555
C43_2 H28_2 1_555 1_555
C44_2 C43_2 1_555 1_555
H30_3 C47_3 1_555 1_555
C48_3 C43_2 1_555 1_555
C49_2 N7_2 1_555 1_555
C50_2 N7_2 1_555 1_555
H32_2 C50_2 1_555 1_555
C51_2 N8_2 1_555 1_555
H33_2 C51_2 1_555 1_555
C55_3 N12_3 1_555 1_555
H37_3 C55_3 1_555 1_555
C56_3 N16_2 1_555 1_555
H38_3 C56_3 1_555 1_555
C57_3 N12_3 1_555 1_555
H39_2 C57_3 1_555 1_555
C8_3 C9_3 1_555 1_555
N8_2 C49_2 1_555 1_555
C47_3 C48_3 1_555 1_555
C50_2 C51_2 1_555 1_555
C56_3 C57_3 1_555 1_555
N15_2 C13_3 1_555 1_555
N6_3 C6_3 1_555 1_555
H3_3 C5_3 1_555 1_555
C13_3 N6_3 1_555 1_555
H10_3 C13_3 1_555 1_555
C14_3 N15_2 1_555 1_555
H11_3 C14_3 1_555 1_555
C15_3 N6_3 1_555 1_555
C5_3 C6_3 1_555 1_555
C14_3 C15_3 1_555 1_555
Co2_4 N1_4 1_555 1_555
N1_4 C7_4 1_555 1_555
N2_4 C2_4 1_555 1_555
N13 C10_4 1_555 1_555
N4_4 C4_4 1_555 1_555
N5_2 C13_4 1_555 1_555
N6_4 C6_4 1_555 1_555
O3_4 Co2_4 1_555 1_555
O4_4 C16_4 1_555 1_555
C1_4 H1_4 1_555 1_555
C2_4 C1_4 1_555 1_555
C3_4 C2_4 1_555 1_555
H2_4 C3_4 1_555 1_555
C4_4 C3_4 1_555 1_555
C5_4 C4_4 1_555 1_555
H3_4 C5_4 1_555 1_555
C6_4 C1_4 1_555 1_555
C7_4 N2_4 1_555 1_555
H4_4 C7_4 1_555 1_555
C8_4 N1_4 1_555 1_555
H5_4 C8_4 1_555 1_555
C9_4 N2_4 1_555 1_555
H6_4 C9_4 1_555 1_555
C10_4 N4_4 1_555 1_555
H7_4 C10_4 1_555 1_555
C11_4 N13 1_555 1_555
H8_4 C11_4 1_555 1_555
C12_4 N4_4 1_555 1_555
H9_4 C12_4 1_555 1_555
C13_4 N6_4 1_555 1_555
H10_4 C13_4 1_555 1_555
C14_4 N5_2 1_555 1_555
H11_4 C14_4 1_555 1_555
C15_4 N6_4 1_555 1_555
H12_4 C15_4 1_555 1_555
C16_4 O3_4 1_555 1_555
C17_4 C16_4 1_555 1_555
C18_4 C17_4 1_555 1_555
C19_4 C18_4 1_555 1_555
C20_4 C19_4 1_555 1_555
C21_4 C20_4 1_555 1_555
H15_4 C21_4 1_555 1_555
C22_4 C17_4 1_555 1_555
H16_4 C22_4 1_555 1_555
C23_4 C20_4 1_555 1_555
C28_4 C23_4 1_555 1_555
H19_4 C28_4 1_555 1_555
H44_4 C66_4 1_555 1_555
Co8 N5_2 1_555 1_555
C5_4 C6_4 1_555 1_555
C8_4 C9_4 1_555 1_555
C11_4 C12_4 1_555 1_555
C14_4 C15_4 1_555 1_555
C21_4 C22_4 1_555 1_555
Co8 O1_4 1_555 1_555
O1_4 C35_4 1_555 1_555
O2_4 Co8 1_555 1_555
H21_4 C31_4 1_555 1_555
C32_4 C31_4 1_555 1_555
C33_4 C32_4 1_555 1_555
H22_4 C33_4 1_555 1_555
H23_4 C34_4 1_555 1_555
C35_4 O2_4 1_555 1_555
C32_4 C35_4 1_555 1_555
C33_4 C34_4 1_555 1_555
H18_4 C26_4 1_555 1_555
C27_4 C26_4 1_555 1_555
C29_4 C27_4 1_555 1_555
C30_4 C29_4 1_555 1_555
H20_4 C30_4 1_555 1_555
O14_2 C84_4 1_555 1_555
O16_2 C84_4 1_555 1_555
C78_4 C67_4 1_555 1_555
C79_4 C78_4 1_555 1_555
H51_4 C79_4 1_555 1_555
C80_4 C79_4 1_555 1_555
H52_4 C80_4 1_555 1_555
C81_4 C80_4 1_555 1_555
C82_4 C81_4 1_555 1_555
H53_4 C82_4 1_555 1_555
C83_4 C78_4 1_555 1_555
H54_4 C83_4 1_555 1_555
C84_4 C81_4 1_555 1_555
C82_4 C83_4 1_555 1_555
N14 C52_4 1_555 1_555
N10_4 C46_4 1_555 1_555
N11_2 C55_4 1_555 1_555
N12_4 C48_4 1_555 1_555
C46_4 C45_4 1_555 1_555
C47_4 C46_4 1_555 1_555
H30_4 C47_4 1_555 1_555
C52_4 N10_4 1_555 1_555
H34_4 C52_4 1_555 1_555
C53_4 N14 1_555 1_555
H35_4 C53_4 1_555 1_555
C54_4 N10_4 1_555 1_555
H36_4 C54_4 1_555 1_555
C55_4 N12_4 1_555 1_555
H37_4 C55_4 1_555 1_555
C56_4 N11_2 1_555 1_555
H38_4 C56_4 1_555 1_555
C57_4 N12_4 1_555 1_555
Co9 N11_2 1_555 1_555
C47_4 C48_4 1_555 1_555
C53_4 C54_4 1_555 1_555
C56_4 C57_4 1_555 1_555
O13_2 C42_4 1_555 1_555
O15_2 C42_4 1_555 1_555
C36_4 C25_4 1_555 1_555
C37_4 C36_4 1_555 1_555
H24_4 C37_4 1_555 1_555
C38_4 C37_4 1_555 1_555
H25_4 C38_4 1_555 1_555
C39_4 C38_4 1_555 1_555
C40_4 C39_4 1_555 1_555
H26_4 C40_4 1_555 1_555
C41_4 C36_4 1_555 1_555
H27_4 C41_4 1_555 1_555
C42_4 C39_4 1_555 1_555
Co9 O7_4 1_555 1_555
O7_4 C77_4 1_555 1_555
O8_4 Co9 1_555 1_555
H45_4 C68_4 1_555 1_555
C69_4 C68_4 1_555 1_555
C71_4 C69_4 1_555 1_555
C72_4 C71_4 1_555 1_555
H47_4 C72_4 1_555 1_555
C73_4 C72_4 1_555 1_555
H48_4 C73_4 1_555 1_555
C74_4 C73_4 1_555 1_555
C75_4 C74_4 1_555 1_555
H49_4 C75_4 1_555 1_555
C76_4 C71_4 1_555 1_555
H50_4 C76_4 1_555 1_555
C77_4 O8_4 1_555 1_555
C40_4 C41_4 1_555 1_555
C74_4 C77_4 1_555 1_555
C75_4 C76_4 1_555 1_555
H17_3 C24_3 1_555 1_555
N7_3 Co2_5 1_555 1_555
N8_3 C44_3 1_555 1_555
O9_3 Co2_5 1_555 1_555
O10_3 C58_3 1_555 1_555
C43_3 H28_3 1_555 1_555
C44_3 C43_3 1_555 1_555
C49_3 N7_3 1_555 1_555
H31_3 C49_3 1_555 1_555
C50_3 N7_3 1_555 1_555
H32_3 C50_3 1_555 1_555
C51_3 N8_3 1_555 1_555
H33_3 C51_3 1_555 1_555
C58_3 O9_3 1_555 1_555
C59_3 C58_3 1_555 1_555
C60_3 C59_3 1_555 1_555
C61_3 C60_3 1_555 1_555
C62_3 C61_3 1_555 1_555
C63_3 C62_3 1_555 1_555
H42_3 C63_3 1_555 1_555
C64_3 C59_3 1_555 1_555
H43_3 C64_3 1_555 1_555
C65_3 C62_3 1_555 1_555
C70_3 C65_3 1_555 1_555
H46_3 C70_3 1_555 1_555
N8_3 C49_3 1_555 1_555
C50_3 C51_3 1_555 1_555
C63_3 C64_3 1_555 1_555
H17_4 C24_4 1_555 1_555
N7_4 Co2_6 1_555 1_555
N8_4 C44_4 1_555 1_555
O9_4 Co2_6 1_555 1_555
O10_4 C58_4 1_555 1_555
C43_4 H28_4 1_555 1_555
C44_4 C43_4 1_555 1_555
C49_4 N7_4 1_555 1_555
H31_4 C49_4 1_555 1_555
C50_4 N7_4 1_555 1_555
H32_4 C50_4 1_555 1_555
C51_4 N8_4 1_555 1_555
H33_4 C51_4 1_555 1_555
C58_4 O9_4 1_555 1_555
C59_4 C58_4 1_555 1_555
C60_4 C59_4 1_555 1_555
C61_4 C60_4 1_555 1_555
C62_4 C61_4 1_555 1_555
C63_4 C62_4 1_555 1_555
H42_4 C63_4 1_555 1_555
C64_4 C59_4 1_555 1_555
H43_4 C64_4 1_555 1_555
C65_4 C62_4 1_555 1_555
C70_4 C65_4 1_555 1_555
H46_4 C70_4 1_555 1_555
N8_4 C49_4 1_555 1_555
C50_4 C51_4 1_555 1_555
C63_4 C64_4 1_555 1_555

#END
