
###############################################################################
#
# This file contains modified crystal structure data generated from the
# MOF subset of the Cambridge Structural Database (CSD) v543 
# hosted by the Cambridge Crystallographic Data Centre (CCDC).
#
# This work is licensed under the Creative Commons
# Attribution-NonCommercial-ShareAlike 4.0 International License.
# To view a copy of this license, visit
# http://creativecommons.org/licenses/by-nc-sa/4.0/
# or send a letter to
# Creative Commons, PO Box 1866, Mountain View, CA 94042, USA.
#
# CIF created using the CSD Python API on 29 September 2022
# The structure has been converted into the P1 space group
# The structure has a 3D framework
# The original CSD entry EBEKON is in the rhombohedral crystal system
# The framework has been calculated to contain at least 10.0% void space
# The void calculation uses a probe of radius 1.32A, grid spacing 0.4
#
###############################################################################

data_EBEKON
_chemical_formula_moiety         '(C1224 H936 N144 O144 Zn32)n'
_symmetry_cell_setting           triclinic
_symmetry_space_group_name_H-M   'P 1'
_symmetry_Int_Tables_number      1
_space_group_name_Hall           'P 1'
loop_
_symmetry_equiv_pos_site_id
_symmetry_equiv_pos_as_xyz
1 x,y,z
_cell_length_a                   23.2562(6)
_cell_length_b                   23.2562(6)
_cell_length_c                   62.035(2)
_cell_angle_alpha                90
_cell_angle_beta                 90
_cell_angle_gamma                120
_cell_volume                     29056.6
loop_
_atom_site_label
_atom_site_type_symbol
_atom_site_fract_x
_atom_site_fract_y
_atom_site_fract_z
C1 C 0.2061(6) 0.5400(4) 0.19063(11)
H1 H 0.2532 0.5622 0.1930
H2 H 0.1889 0.5674 0.1958
H3 H 0.1971 0.5320 0.1755
C2 C 0.1737(6) 0.4757(4) 0.20243(9)
C3 C 0.1549(5) 0.4754(4) 0.22404(9)
H4 H 0.1647 0.5162 0.2298
C4 C 0.1231(4) 0.4204(3) 0.23769(9)
C5 C 0.1094(4) 0.4278(3) 0.26088(9)
C6 C 0.1302(6) 0.4891(4) 0.27044(10)
H5 H 0.1516 0.5272 0.2620
C7 C 0.1202(6) 0.4954(4) 0.29216(9)
H6 H 0.1336 0.5369 0.2981
C8 C 0.0899(6) 0.4388(4) 0.30470(9)
C9 C 0.0665(6) 0.3763(4) 0.29571(10)
H7 H 0.0439 0.3380 0.3039
C10 C 0.0785(6) 0.3733(4) 0.27381(10)
H8 H 0.0646 0.3319 0.2677
C11 C 0.0507(6) 0.4770(4) 0.33594(9)
H9 H 0.0282 0.4927 0.3276
C12 C 0.0928(6) 0.4535(4) 0.36275(10)
C13 C 0.1142(6) 0.4462(4) 0.38337(11)
H10 H 0.1028 0.4610 0.3957
C14 C 0.1521(6) 0.4169(4) 0.38458(12)
H11 H 0.1673 0.4122 0.3979
C15 C 0.1686(6) 0.3934(4) 0.36604(12)
H12 H 0.1940 0.3730 0.3675
C16 C 0.1485(6) 0.3998(4) 0.34558(11)
H13 H 0.1598 0.3847 0.3333
C17 C 0.1102(6) 0.4302(4) 0.34472(9)
C52 C 0.2078(8) 0.6661(5) 0.39233(12)
H40 H 0.2383 0.7073 0.3854
H41 H 0.2257 0.6368 0.3920
H42 H 0.2011 0.6745 0.4070
C53 C 0.1417(6) 0.6341(4) 0.38042(9)
C54 C 0.1419(6) 0.6536(4) 0.35866(9)
H43 H 0.1827 0.6851 0.3530
C55 C 0.0880(6) 0.6306(4) 0.34500(9)
C56 C 0.0966(4) 0.6520(3) 0.32209(9)
C57 C 0.1592(6) 0.6913(4) 0.31248(10)
H44 H 0.1974 0.7075 0.3208
C58 C 0.1645(6) 0.7060(4) 0.29068(10)
H45 H 0.2061 0.7323 0.2846
C59 C 0.1083(6) 0.6818(4) 0.27792(9)
C60 C 0.0479(6) 0.6466(4) 0.28709(10)
H46 H 0.0100 0.6331 0.2788
C61 C 0.0420(6) 0.6302(4) 0.30908(10)
C62 C 0.1470(6) 0.7567(4) 0.24671(9)
H48 H 0.1645 0.7953 0.2549
C63 C 0.1219(6) 0.6909(4) 0.21983(9)
C64 C 0.1144(6) 0.6614(4) 0.19963(10)
H49 H 0.1301 0.6870 0.1872
C65 C 0.0829(6) 0.5932(5) 0.19871(11)
H50 H 0.0771 0.5722 0.1855
C66 C 0.0601(6) 0.5563(4) 0.21703(12)
H51 H 0.0392 0.5103 0.2158
C67 C 0.0661(6) 0.5833(4) 0.23772(11)
H52 H 0.0503 0.5571 0.2500
C68 C 0.0973(6) 0.6521(4) 0.23844(10)
N1 N 0.0552(4) 0.4825(3) 0.35688(7)
N2 N 0.0822(4) 0.4460(3) 0.32742(7)
N7 N 0.1522(4) 0.7572(3) 0.22567(7)
N8 N 0.1145(4) 0.6959(3) 0.25539(7)
O1 O 0.1660(4) 0.4254(3) 0.19198(6)
O2 O 0.1048(3) 0.3603(2) 0.23211(6)
O7 O 0.0925(4) 0.5913(3) 0.39055(6)
O8 O 0.0282(3) 0.5904(2) 0.35044(6)
Zn1 Zn 0.00498(6) 0.52300(4) 0.375345(9)
Zn3 Zn 0.18899(6) 0.84933(4) 0.207347(9)
Zn4 Zn 0.15067(4) 0.33967(7) 0.207347(9)
C18 C 0.7771(6) 0.4743(4) 0.55796(12)
H14 H 0.7991 0.4825 0.5716
H15 H 0.7859 0.4446 0.5497
H16 H 0.7302 0.4547 0.5601
C19 C 0.8032(6) 0.5399(4) 0.54580(10)
C20 C 0.8234(5) 0.5420(4) 0.52416(9)
H17 H 0.8172 0.5025 0.5182
C21 C 0.8519(6) 0.5978(4) 0.51088(9)
C22 C 0.8669(4) 0.5898(3) 0.48787(9)
C23 C 0.8191(6) 0.5389(4) 0.47514(10)
H18 H 0.7792 0.5073 0.4813
C24 C 0.8304(6) 0.5347(4) 0.45317(10)
H19 H 0.7976 0.5016 0.4446
C25 C 0.8903(6) 0.5800(4) 0.44430(9)
C26 C 0.9377(6) 0.6308(4) 0.45654(9)
H20 H 0.9782 0.6618 0.4505
C27 C 0.9238(6) 0.6349(4) 0.47825(9)
H21 H 0.9552 0.6703 0.4864
C28 C 0.9521(6) 0.5668(4) 0.41377(9)
H22 H 0.9836 0.5645 0.4224
C29 C 0.8961(6) 0.5669(4) 0.38631(9)
C30 C 0.8718(6) 0.5663(4) 0.36569(11)
H23 H 0.8932 0.5625 0.3535
C31 C 0.8154(6) 0.5716(4) 0.36371(11)
H24 H 0.7977 0.5701 0.3501
C32 C 0.7846(6) 0.5790(4) 0.38208(12)
H25 H 0.7463 0.5817 0.3803
C33 C 0.8089(6) 0.5824(4) 0.40267(11)
H26 H 0.7888 0.5886 0.4147
C34 C 0.8650(6) 0.5761(4) 0.40433(10)
C35 C 0.8014(8) 0.3728(5) 0.35969(12)
H27 H 0.7821 0.4008 0.3592
H28 H 0.7724 0.3327 0.3673
H29 H 0.8076 0.3620 0.3452
C36 C 0.8681(6) 0.4088(4) 0.37111(10)
C37 C 0.8702(6) 0.3912(4) 0.39287(10)
H30 H 0.8300 0.3610 0.3992
C38 C 0.9270(6) 0.4150(4) 0.40571(9)
C39 C 0.9197(6) 0.3914(4) 0.42864(10)
C40 C 0.9625(6) 0.3727(4) 0.43738(11)
H31 H 0.9944 0.3719 0.4285
C41 C 0.9598(6) 0.3551(4) 0.45896(10)
H32 H 0.9889 0.3422 0.4644
C42 C 0.9130(6) 0.3573(4) 0.47190(10)
C43 C 0.8684(6) 0.3767(5) 0.46373(11)
H33 H 0.8373 0.3783 0.4727
C44 C 0.8715(7) 0.3933(5) 0.44204(11)
H34 H 0.8421 0.4055 0.4364
C45 C 0.8937(6) 0.2791(4) 0.50222(9)
H35 H 0.8884 0.2444 0.4934
C46 C 0.8987(6) 0.3357(4) 0.53000(9)
C47 C 0.8988(6) 0.3602(4) 0.55086(10)
H36 H 0.8911 0.3337 0.5629
C48 C 0.9100(6) 0.4225(4) 0.55285(12)
H37 H 0.9102 0.4389 0.5665
C49 C 0.9215(6) 0.4636(4) 0.53501(11)
H38 H 0.9295 0.5066 0.5370
C50 C 0.9211(6) 0.4407(4) 0.51401(12)
H39 H 0.9290 0.4677 0.5020
C51 C 0.9087(6) 0.3768(4) 0.51211(10)
H47 H 0.9999 0.6039 0.3150
N3 N 0.9508(4) 0.5617(3) 0.39285(7)
N4 N 0.9022(4) 0.5760(3) 0.42180(7)
N5 N 0.8892(4) 0.2749(3) 0.52314(7)
N6 N 0.9070(4) 0.3393(3) 0.49436(8)
O3 O 0.8035(3) 0.5866(2) 0.55594(6)
O4 O 0.8663(3) 0.6560(2) 0.51590(6)
O5 O 0.9161(4) 0.4526(2) 0.36077(6)
O6 O 0.9857(4) 0.4560(3) 0.40027(6)
Zn2 Zn 0.85566(6) 0.18266(4) 0.540680(9)
N9 N 0.8189(4) 0.0905(3) 0.55900(7)
O9 O 0.9261(5) 0.1673(4) 0.52531(6)
O10 O 0.9222(4) 0.2285(3) 0.56544(6)
O11 O 0.7831(4) 0.1965(3) 0.55594(6)
O12 O 0.7897(4) 0.1337(3) 0.51590(6)
Zn5 Zn 0.81734(4) 0.67300(7) 0.540680(9)
C1_2 C 0.4600(4) 0.6661(7) 0.19063(11)
H1_2 H 0.4378 0.6910 0.1930
H2_2 H 0.4326 0.6215 0.1958
H3_2 H 0.4680 0.6651 0.1755
C2_2 C 0.5243(4) 0.6980(7) 0.20243(9)
C3_2 C 0.5246(4) 0.6795(6) 0.22404(9)
H4_2 H 0.4838 0.6485 0.2298
C4_2 C 0.5796(3) 0.7027(5) 0.23769(9)
C5_2 C 0.5722(3) 0.6816(5) 0.26088(9)
C6_2 C 0.5109(4) 0.6411(7) 0.27044(10)
H5_2 H 0.4728 0.6244 0.2620
C7_2 C 0.5046(4) 0.6248(7) 0.29216(9)
H6_2 H 0.4631 0.5967 0.2981
C8_2 C 0.5612(4) 0.6511(7) 0.30470(9)
C9_2 C 0.6237(4) 0.6902(7) 0.29571(10)
H7_2 H 0.6620 0.7059 0.3039
C10_2 C 0.6267(4) 0.7052(7) 0.27381(10)
H8_2 H 0.6681 0.7327 0.2677
C11_2 C 0.5230(4) 0.5737(7) 0.33594(9)
H9_2 H 0.5073 0.5355 0.3276
C12_2 C 0.5465(4) 0.6393(7) 0.36275(10)
C13_2 C 0.5538(4) 0.6680(7) 0.38337(11)
H10_2 H 0.5390 0.6418 0.3957
C14_2 C 0.5831(4) 0.7352(7) 0.38458(12)
H11_2 H 0.5878 0.7551 0.3979
C15_2 C 0.6066(4) 0.7752(7) 0.36604(12)
H12_2 H 0.6270 0.8210 0.3675
C16_2 C 0.6002(4) 0.7487(7) 0.34558(11)
H13_2 H 0.6153 0.7751 0.3333
C17_2 C 0.5698(4) 0.6800(7) 0.34472(9)
C18_2 C 0.5257(4) 0.3028(7) 0.55796(12)
H14_2 H 0.5175 0.3166 0.5716
H15_2 H 0.5554 0.3413 0.5497
H16_2 H 0.5453 0.2755 0.5601
C19_2 C 0.4601(4) 0.2633(7) 0.54580(10)
C20_2 C 0.4580(4) 0.2814(6) 0.52416(9)
H17_2 H 0.4975 0.3147 0.5182
C21_2 C 0.4022(4) 0.2541(7) 0.51088(9)
C22_2 C 0.4102(3) 0.2771(5) 0.48787(9)
C23_2 C 0.4611(4) 0.2802(7) 0.47514(10)
H18_2 H 0.4927 0.2719 0.4813
C24_2 C 0.4653(4) 0.2957(7) 0.45317(10)
H19_2 H 0.4984 0.2960 0.4446
C25_2 C 0.4200(4) 0.3103(7) 0.44430(9)
C26_2 C 0.3692(4) 0.3069(7) 0.45654(9)
H20_2 H 0.3382 0.3164 0.4505
C27_2 C 0.3651(4) 0.2889(7) 0.47825(9)
H21_2 H 0.3297 0.2849 0.4864
C28_2 C 0.4332(4) 0.3853(7) 0.41377(9)
H22_2 H 0.4355 0.4191 0.4224
C29_2 C 0.4331(4) 0.3292(7) 0.38631(9)
C30_2 C 0.4337(4) 0.3055(7) 0.36569(11)
H23_2 H 0.4375 0.3307 0.3535
C31_2 C 0.4284(4) 0.2438(7) 0.36371(11)
H24_2 H 0.4299 0.2276 0.3501
C32_2 C 0.4210(4) 0.2056(7) 0.38208(12)
H25_2 H 0.4183 0.1646 0.3803
C33_2 C 0.4176(4) 0.2265(7) 0.40267(11)
H26_2 H 0.4114 0.2002 0.4147
C34_2 C 0.4239(4) 0.2889(7) 0.40433(10)
C35_2 C 0.6272(5) 0.4286(9) 0.35969(12)
H27_2 H 0.5992 0.3813 0.3592
H28_2 H 0.6673 0.4397 0.3673
H29_2 H 0.6380 0.4456 0.3452
C36_2 C 0.5912(4) 0.4593(7) 0.37111(10)
C37_2 C 0.6088(4) 0.4790(7) 0.39287(10)
H30_2 H 0.6390 0.4690 0.3992
C38_2 C 0.5850(4) 0.5120(7) 0.40571(9)
C39_2 C 0.6086(4) 0.5283(7) 0.42864(10)
C40_2 C 0.6273(4) 0.5898(7) 0.43738(11)
H31_2 H 0.6281 0.6225 0.4285
C41_2 C 0.6449(4) 0.6047(7) 0.45896(10)
H32_2 H 0.6578 0.6467 0.4644
C42_2 C 0.6427(4) 0.5557(7) 0.47190(10)
C43_2 C 0.6233(5) 0.4917(8) 0.46373(11)
H33_2 H 0.6217 0.4590 0.4727
C44_2 C 0.6067(5) 0.4782(9) 0.44204(11)
H34_2 H 0.5945 0.4366 0.4364
C45_2 C 0.7209(4) 0.6146(7) 0.50222(9)
H35_2 H 0.7556 0.6440 0.4934
C46_2 C 0.6643(4) 0.5630(7) 0.53000(9)
C47_2 C 0.6398(4) 0.5386(7) 0.55086(10)
H36_2 H 0.6663 0.5574 0.5629
C48_2 C 0.5775(4) 0.4875(7) 0.55285(12)
H37_2 H 0.5611 0.4713 0.5665
C49_2 C 0.5364(4) 0.4579(7) 0.53501(11)
H38_2 H 0.4934 0.4229 0.5370
C50_2 C 0.5593(4) 0.4804(7) 0.51401(12)
H39_2 H 0.5323 0.4613 0.5020
C51_2 C 0.6232(4) 0.5319(7) 0.51211(10)
C52_2 C 0.3339(5) 0.5417(9) 0.39233(12)
H40_2 H 0.2927 0.5310 0.3854
H41_2 H 0.3632 0.5889 0.3920
H42_2 H 0.3255 0.5266 0.4070
C53_2 C 0.3659(4) 0.5076(7) 0.38042(9)
C54_2 C 0.3464(4) 0.4883(7) 0.35866(9)
H43_2 H 0.3149 0.4976 0.3530
C55_2 C 0.3694(4) 0.4574(7) 0.34500(9)
C56_2 C 0.3480(3) 0.4446(5) 0.32209(9)
C57_2 C 0.3087(4) 0.4679(7) 0.31248(10)
H44_2 H 0.2925 0.4899 0.3208
C58_2 C 0.2940(4) 0.4585(7) 0.29068(10)
H45_2 H 0.2677 0.4738 0.2846
C59_2 C 0.3182(4) 0.4265(7) 0.27792(9)
C60_2 C 0.3534(4) 0.4013(7) 0.28709(10)
H46_2 H 0.3669 0.3769 0.2788
C61_2 C 0.3698(4) 0.4118(7) 0.30908(10)
H47_2 H 0.3961 0.3960 0.3150
C62_2 C 0.2433(4) 0.3903(7) 0.24671(9)
H48_2 H 0.2047 0.3692 0.2549
C63_2 C 0.3091(4) 0.4310(7) 0.21983(9)
C64_2 C 0.3386(4) 0.4530(7) 0.19963(10)
H49_2 H 0.3130 0.4431 0.1872
C65_2 C 0.4068(5) 0.4897(8) 0.19871(11)
H50_2 H 0.4278 0.5049 0.1855
C66_2 C 0.4437(4) 0.5038(7) 0.21703(12)
H51_2 H 0.4897 0.5289 0.2158
C67_2 C 0.4167(4) 0.4828(7) 0.23772(11)
H52_2 H 0.4429 0.4932 0.2500
C68_2 C 0.3479(4) 0.4452(7) 0.23844(10)
N1_2 N 0.5175(3) 0.5727(5) 0.35688(7)
N2_2 N 0.5540(3) 0.6362(5) 0.32742(7)
N3_2 N 0.4383(3) 0.3891(5) 0.39285(7)
N4_2 N 0.4240(3) 0.3262(5) 0.42180(7)
N5_2 N 0.7251(3) 0.6143(5) 0.52314(7)
N6_2 N 0.6607(3) 0.5677(5) 0.49436(8)
N7_2 N 0.2428(3) 0.3950(5) 0.22567(7)
N8_2 N 0.3041(3) 0.4186(5) 0.25539(7)
O1_2 O 0.5746(3) 0.7406(5) 0.19198(6)
O2_2 O 0.6397(2) 0.7445(4) 0.23211(6)
O3_2 O 0.4134(2) 0.2169(4) 0.55594(6)
O4_2 O 0.3440(2) 0.2103(4) 0.51590(6)
O5_2 O 0.5474(2) 0.4635(4) 0.36077(6)
O6_2 O 0.5440(3) 0.5297(5) 0.40027(6)
O7_2 O 0.4087(3) 0.5012(5) 0.39055(6)
O8_2 O 0.4096(2) 0.4378(4) 0.35044(6)
Zn1_2 Zn 0.47700(4) 0.48198(7) 0.375345(9)
N9_2 N 0.9095(3) 0.7283(5) 0.55900(7)
O9_2 O 0.8327(4) 0.7587(6) 0.52531(6)
O10_2 O 0.7715(3) 0.6936(5) 0.56544(6)
Zn4_2 Zn 0.66033(7) 0.81101(8) 0.207347(9)
Zn5_2 Zn 0.32700(7) 0.14434(8) 0.540680(9)
C18_3 C 0.6972(7) 0.2229(6) 0.55796(12)
H14_3 H 0.6834 0.2009 0.5716
H15_3 H 0.6587 0.2141 0.5497
H16_3 H 0.7245 0.2698 0.5601
C19_3 C 0.7367(7) 0.1968(6) 0.54580(10)
C20_3 C 0.7186(6) 0.1766(5) 0.52416(9)
H17_3 H 0.6853 0.1828 0.5182
C21_3 C 0.7459(7) 0.1481(6) 0.51088(9)
C22_3 C 0.7229(5) 0.1331(4) 0.48787(9)
C23_3 C 0.7198(7) 0.1809(6) 0.47514(10)
H18_3 H 0.7281 0.2208 0.4813
C24_3 C 0.7043(7) 0.1696(6) 0.45317(10)
H19_3 H 0.7040 0.2024 0.4446
C25_3 C 0.6897(7) 0.1097(6) 0.44430(9)
C26_3 C 0.6931(7) 0.0623(6) 0.45654(9)
H20_3 H 0.6836 0.0218 0.4505
C27_3 C 0.7111(7) 0.0762(6) 0.47825(9)
H21_3 H 0.7151 0.0448 0.4864
C28_3 C 0.6147(7) 0.0479(6) 0.41377(9)
H22_3 H 0.5809 0.0164 0.4224
C29_3 C 0.6708(7) 0.1039(6) 0.38631(9)
C30_3 C 0.6945(7) 0.1282(6) 0.36569(11)
H23_3 H 0.6693 0.1068 0.3535
C31_3 C 0.7562(7) 0.1846(6) 0.36371(11)
H24_3 H 0.7724 0.2023 0.3501
C32_3 C 0.7944(7) 0.2154(6) 0.38208(12)
H25_3 H 0.8354 0.2537 0.3803
C33_3 C 0.7735(7) 0.1911(6) 0.40267(11)
H26_3 H 0.7998 0.2112 0.4147
C34_3 C 0.7111(7) 0.1350(6) 0.40433(10)
C35_3 C 0.5714(9) 0.1986(8) 0.35969(12)
H27_3 H 0.6187 0.2179 0.3592
H28_3 H 0.5603 0.2276 0.3673
H29_3 H 0.5544 0.1924 0.3452
C36_3 C 0.5407(7) 0.1319(6) 0.37111(10)
C37_3 C 0.5210(7) 0.1298(6) 0.39287(10)
H30_3 H 0.5310 0.1700 0.3992
C38_3 C 0.4880(7) 0.0730(6) 0.40571(9)
C39_3 C 0.4717(7) 0.0803(6) 0.42864(10)
C40_3 C 0.4102(7) 0.0375(6) 0.43738(11)
H31_3 H 0.3775 0.0056 0.4285
C41_3 C 0.3953(7) 0.0402(6) 0.45896(10)
H32_3 H 0.3533 0.0111 0.4644
C42_3 C 0.4443(7) 0.0870(6) 0.47190(10)
C43_3 C 0.5083(8) 0.1316(6) 0.46373(11)
H33_3 H 0.5410 0.1627 0.4727
C44_3 C 0.5218(9) 0.1285(7) 0.44204(11)
H34_3 H 0.5634 0.1579 0.4364
C45_3 C 0.3854(7) 0.1063(6) 0.50222(9)
H35_3 H 0.3560 0.1116 0.4934
C46_3 C 0.4370(7) 0.1013(6) 0.53000(9)
C47_3 C 0.4614(7) 0.1012(6) 0.55086(10)
H36_3 H 0.4426 0.1089 0.5629
C48_3 C 0.5125(7) 0.0900(6) 0.55285(12)
H37_3 H 0.5287 0.0898 0.5665
C49_3 C 0.5421(7) 0.0785(6) 0.53501(11)
H38_3 H 0.5771 0.0705 0.5370
C50_3 C 0.5196(7) 0.0789(6) 0.51401(12)
H39_3 H 0.5387 0.0710 0.5020
C51_3 C 0.4681(7) 0.0913(6) 0.51211(10)
H47_3 H 0.6040 0.0001 0.3150
N3_3 N 0.6109(5) 0.0492(4) 0.39285(7)
N4_3 N 0.6738(5) 0.0978(4) 0.42180(7)
N5_3 N 0.3857(5) 0.1108(4) 0.52314(7)
N6_3 N 0.4323(5) 0.0930(4) 0.49436(8)
O5_3 O 0.5365(4) 0.0839(4) 0.36077(6)
O6_3 O 0.4703(5) 0.0143(4) 0.40027(6)
N9_3 N 0.2717(5) 0.1811(4) 0.55900(7)
O9_3 O 0.2413(6) 0.0739(5) 0.52531(6)
O10_3 O 0.3064(5) 0.0778(4) 0.56544(6)
C1_3 C 0.3339(7) 0.7939(6) 0.19063(11)
H1_3 H 0.3090 0.7468 0.1930
H2_3 H 0.3785 0.8111 0.1958
H3_3 H 0.3349 0.8029 0.1755
C2_3 C 0.3020(7) 0.8263(6) 0.20243(9)
C3_3 C 0.3205(6) 0.8451(5) 0.22404(9)
H4_3 H 0.3515 0.8353 0.2298
C4_3 C 0.2973(5) 0.8769(4) 0.23769(9)
C5_3 C 0.3184(5) 0.8906(4) 0.26088(9)
C6_3 C 0.3589(7) 0.8698(6) 0.27044(10)
H5_3 H 0.3756 0.8484 0.2620
C7_3 C 0.3752(7) 0.8798(6) 0.29216(9)
H6_3 H 0.4033 0.8664 0.2981
C8_3 C 0.3489(7) 0.9101(6) 0.30470(9)
C9_3 C 0.3098(7) 0.9335(6) 0.29571(10)
H7_3 H 0.2941 0.9561 0.3039
C10_3 C 0.2948(7) 0.9215(6) 0.27381(10)
H8_3 H 0.2673 0.9354 0.2677
C11_3 C 0.4263(7) 0.9493(6) 0.33594(9)
H9_3 H 0.4645 0.9718 0.3276
C12_3 C 0.3607(7) 0.9072(6) 0.36275(10)
C13_3 C 0.3320(7) 0.8858(6) 0.38337(11)
H10_3 H 0.3582 0.8972 0.3957
C14_3 C 0.2648(7) 0.8479(6) 0.38458(12)
H11_3 H 0.2449 0.8327 0.3979
C15_3 C 0.2248(7) 0.8314(6) 0.36604(12)
H12_3 H 0.1790 0.8060 0.3675
C16_3 C 0.2513(7) 0.8515(6) 0.34558(11)
H13_3 H 0.2249 0.8402 0.3333
C17_3 C 0.3200(7) 0.8898(6) 0.34472(9)
C52_3 C 0.4583(9) 0.7922(8) 0.39233(12)
H40_3 H 0.4690 0.7617 0.3854
H41_3 H 0.4111 0.7743 0.3920
H42_3 H 0.4734 0.7989 0.4070
C53_3 C 0.4924(7) 0.8583(6) 0.38042(9)
C54_3 C 0.5117(7) 0.8581(6) 0.35866(9)
H43_3 H 0.5024 0.8173 0.3530
C55_3 C 0.5426(7) 0.9120(6) 0.34500(9)
C56_3 C 0.5554(5) 0.9034(4) 0.32209(9)
C57_3 C 0.5321(7) 0.8408(6) 0.31248(10)
H44_3 H 0.5101 0.8026 0.3208
C58_3 C 0.5415(7) 0.8355(6) 0.29068(10)
H45_3 H 0.5262 0.7939 0.2846
C59_3 C 0.5735(7) 0.8917(6) 0.27792(9)
C60_3 C 0.5987(7) 0.9521(6) 0.28709(10)
H46_3 H 0.6231 0.9900 0.2788
C61_3 C 0.5882(7) 0.9580(6) 0.30908(10)
C62_3 C 0.6097(7) 0.8530(6) 0.24671(9)
H48_3 H 0.6308 0.8355 0.2549
C63_3 C 0.5690(7) 0.8781(6) 0.21983(9)
C64_3 C 0.5470(7) 0.8856(6) 0.19963(10)
H49_3 H 0.5569 0.8699 0.1872
C65_3 C 0.5103(8) 0.9171(6) 0.19871(11)
H50_3 H 0.4951 0.9229 0.1855
C66_3 C 0.4962(7) 0.9399(6) 0.21703(12)
H51_3 H 0.4711 0.9608 0.2158
C67_3 C 0.5172(7) 0.9339(6) 0.23772(11)
H52_3 H 0.5068 0.9497 0.2500
C68_3 C 0.5548(7) 0.9027(6) 0.23844(10)
N1_3 N 0.4273(5) 0.9448(4) 0.35688(7)
N2_3 N 0.3638(5) 0.9178(4) 0.32742(7)
N7_3 N 0.6050(5) 0.8478(4) 0.22567(7)
N8_3 N 0.5814(5) 0.8855(4) 0.25539(7)
O1_3 O 0.2594(5) 0.8340(4) 0.19198(6)
O2_3 O 0.2555(4) 0.8952(3) 0.23211(6)
O7_3 O 0.4988(5) 0.9075(4) 0.39055(6)
O8_3 O 0.5622(4) 0.9718(3) 0.35044(6)
Zn1_3 Zn 0.51802(7) 0.99502(6) 0.375345(9)
H21_4 H 0.6219 0.0036 0.8197
H40_4 H 0.9050 0.0406 0.7187
H42_4 H 0.8678 0.0078 0.7403
H43_4 H 0.8494 0.0184 0.6863
C57_4 C 0.8259(6) 0.0246(4) 0.64581(10)
H44_4 H 0.8641 0.0408 0.6541
C58_4 C 0.8312(6) 0.0393(4) 0.62401(10)
H45_4 H 0.8728 0.0656 0.6179
C59_4 C 0.7750(6) 0.0151(4) 0.61125(9)
C62_4 C 0.8137(6) 0.0900(4) 0.58004(9)
H48_4 H 0.8312 0.1286 0.5882
C63_4 C 0.7886(6) 0.0242(4) 0.55316(9)
H49_4 H 0.7968 0.0203 0.5205
N8_4 N 0.7812(4) 0.0292(3) 0.58872(7)
Zn5_3 Zn 0.48401(4) 0.00633(7) 0.874013(9)
C1_4 C 0.8728(6) 0.8733(4) 0.52396(11)
H1_4 H 0.9199 0.8955 0.5263
H2_4 H 0.8556 0.9007 0.5291
H3_4 H 0.8638 0.8653 0.5088
C2_4 C 0.8404(6) 0.8090(4) 0.53576(9)
C3_4 C 0.8216(5) 0.8087(4) 0.55737(9)
H4_4 H 0.8314 0.8495 0.5631
C4_4 C 0.7898(4) 0.7537(3) 0.57102(9)
C5_4 C 0.7761(4) 0.7611(3) 0.59421(9)
C6_4 C 0.7969(6) 0.8224(4) 0.60377(10)
H5_4 H 0.8183 0.8605 0.5953
C7_4 C 0.7869(6) 0.8287(4) 0.62549(9)
H6_4 H 0.8003 0.8702 0.6314
C8_4 C 0.7566(6) 0.7721(4) 0.63803(9)
C9_4 C 0.7332(6) 0.7096(4) 0.62904(10)
H7_4 H 0.7106 0.6713 0.6372
C10_4 C 0.7452(6) 0.7066(4) 0.60714(10)
H8_4 H 0.7313 0.6652 0.6010
C11_4 C 0.7174(6) 0.8103(4) 0.66927(9)
H9_4 H 0.6949 0.8260 0.6609
C12_4 C 0.7595(6) 0.7868(4) 0.69608(10)
C13_4 C 0.7809(6) 0.7795(4) 0.71670(11)
H10_4 H 0.7695 0.7943 0.7290
C14_4 C 0.8188(6) 0.7502(4) 0.71791(12)
H11_4 H 0.8340 0.7455 0.7312
C15_4 C 0.8353(6) 0.7267(4) 0.69937(12)
H12_4 H 0.8607 0.7063 0.7008
C16_4 C 0.8152(6) 0.7331(4) 0.67891(11)
H13_4 H 0.8265 0.7180 0.6666
C17_4 C 0.7769(6) 0.7635(4) 0.67805(9)
C18_4 C 0.4438(6) 0.8076(4) 0.89129(12)
H14_4 H 0.4658 0.8158 0.9049
H15_4 H 0.4526 0.7779 0.8830
H16_4 H 0.3969 0.7880 0.8934
C19_4 C 0.4699(6) 0.8732(4) 0.87913(10)
C20_4 C 0.4901(5) 0.8753(4) 0.85749(9)
H17_4 H 0.4839 0.8358 0.8515
C21_4 C 0.5186(6) 0.9311(4) 0.84421(9)
C22_4 C 0.5336(4) 0.9231(3) 0.82120(9)
C23_4 C 0.4858(6) 0.8722(4) 0.80847(10)
H18_4 H 0.4459 0.8406 0.8146
C24_4 C 0.4971(6) 0.8680(4) 0.78650(10)
H19_4 H 0.4643 0.8349 0.7779
C25_4 C 0.5570(6) 0.9133(4) 0.77763(9)
C26_4 C 0.6044(6) 0.9641(4) 0.78987(9)
H20_4 H 0.6449 0.9951 0.7838
C27_4 C 0.5905(6) 0.9682(4) 0.81158(9)
C28_4 C 0.6188(6) 0.9001(4) 0.74710(9)
H22_4 H 0.6503 0.8978 0.7557
C29_4 C 0.5628(6) 0.9002(4) 0.71964(9)
C30_4 C 0.5385(6) 0.8996(4) 0.69902(11)
H23_4 H 0.5599 0.8958 0.6868
C31_4 C 0.4821(6) 0.9049(4) 0.69704(11)
H24_4 H 0.4644 0.9034 0.6834
C32_4 C 0.4513(6) 0.9123(4) 0.71541(12)
H25_4 H 0.4130 0.9150 0.7136
C33_4 C 0.4756(6) 0.9157(4) 0.73600(11)
H26_4 H 0.4555 0.9219 0.7480
C34_4 C 0.5317(6) 0.9094(4) 0.73766(10)
C35_4 C 0.4681(8) 0.7061(5) 0.69302(12)
H27_4 H 0.4488 0.7341 0.6925
H28_4 H 0.4391 0.6660 0.7006
H29_4 H 0.4743 0.6953 0.6785
C36_4 C 0.5348(6) 0.7421(4) 0.70444(10)
C37_4 C 0.5369(6) 0.7245(4) 0.72620(10)
H30_4 H 0.4967 0.6943 0.7325
C38_4 C 0.5937(6) 0.7483(4) 0.73904(9)
C39_4 C 0.5864(6) 0.7247(4) 0.76197(10)
C40_4 C 0.6292(6) 0.7060(4) 0.77071(11)
H31_4 H 0.6611 0.7052 0.7618
C41_4 C 0.6265(6) 0.6884(4) 0.79229(10)
H32_4 H 0.6556 0.6755 0.7977
C42_4 C 0.5797(6) 0.6906(4) 0.80523(10)
C43_4 C 0.5351(6) 0.7100(5) 0.79706(11)
H33_4 H 0.5040 0.7116 0.8060
C44_4 C 0.5382(7) 0.7266(5) 0.77537(11)
H34_4 H 0.5088 0.7388 0.7697
C45_4 C 0.5604(6) 0.6124(4) 0.83555(9)
H35_4 H 0.5551 0.5777 0.8267
C46_4 C 0.5654(6) 0.6690(4) 0.86333(9)
C47_4 C 0.5655(6) 0.6935(4) 0.88419(10)
H36_4 H 0.5578 0.6670 0.8962
C48_4 C 0.5767(6) 0.7558(4) 0.88618(12)
H37_4 H 0.5769 0.7722 0.8998
C49_4 C 0.5882(6) 0.7969(4) 0.86834(11)
H38_4 H 0.5962 0.8399 0.8703
C50_4 C 0.5878(6) 0.7740(4) 0.84734(12)
H39_4 H 0.5957 0.8010 0.8353
C51_4 C 0.5754(6) 0.7101(4) 0.84544(10)
C52_4 C 0.8745(8) 0.9994(5) 0.72566(12)
H41_4 H 0.8924 0.9701 0.7253
C53_4 C 0.8084(6) 0.9674(4) 0.71375(9)
C54_4 C 0.8086(6) 0.9869(4) 0.69199(9)
C55_4 C 0.7547(6) 0.9639(4) 0.67833(9)
C56_4 C 0.7633(4) 0.9853(3) 0.65542(9)
C60_4 C 0.7146(6) 0.9799(4) 0.62042(10)
H46_4 H 0.6767 0.9664 0.6121
C61_4 C 0.7087(6) 0.9635(4) 0.64241(10)
H47_4 H 0.6666 0.9372 0.6483
C64_4 C 0.7811(6) 0.9947(4) 0.53296(10)
C65_4 C 0.7496(6) 0.9265(5) 0.53204(11)
H50_4 H 0.7438 0.9055 0.5188
C66_4 C 0.7268(6) 0.8896(4) 0.55036(12)
H51_4 H 0.7059 0.8436 0.5491
C67_4 C 0.7328(6) 0.9166(4) 0.57105(11)
H52_4 H 0.7170 0.8904 0.5833
C68_4 C 0.7640(6) 0.9854(4) 0.57177(10)
N1_4 N 0.7219(4) 0.8158(3) 0.69021(7)
N2_4 N 0.7489(4) 0.7793(3) 0.66075(7)
N3_4 N 0.6175(4) 0.8950(3) 0.72618(7)
N4_4 N 0.5689(4) 0.9093(3) 0.75513(7)
N5_4 N 0.5559(4) 0.6082(3) 0.85647(7)
N6_4 N 0.5737(4) 0.6726(3) 0.82769(8)
O3_3 O 0.4702(3) 0.9199(2) 0.88927(6)
O4_3 O 0.5330(3) 0.9893(2) 0.84923(6)
O5_4 O 0.5828(4) 0.7859(2) 0.69410(6)
O6_4 O 0.6524(4) 0.7893(3) 0.73360(6)
O7_4 O 0.7592(4) 0.9246(3) 0.72388(6)
O8_4 O 0.6949(3) 0.9237(2) 0.68377(6)
Zn1_4 Zn 0.67165(6) 0.85633(4) 0.708678(9)
Zn2_2 Zn 0.52233(6) 0.51599(4) 0.874013(9)
N9_4 N 0.4855(4) 0.4239(3) 0.89234(7)
O9_4 O 0.5927(5) 0.5007(4) 0.85865(6)
O10_4 O 0.5888(4) 0.5619(3) 0.89878(6)
O11_2 O 0.4498(4) 0.5298(3) 0.88927(6)
O12_2 O 0.4564(4) 0.4670(3) 0.84923(6)
H1_5 H 0.1045 0.0243 0.5263
C2_5 C 0.1910(4) 0.0313(7) 0.53576(9)
C3_5 C 0.1913(4) 0.0128(6) 0.55737(9)
C4_5 C 0.2463(3) 0.0360(5) 0.57102(9)
C5_5 C 0.2389(3) 0.0149(5) 0.59421(9)
C9_5 C 0.2904(4) 0.0235(7) 0.62904(10)
H7_5 H 0.3287 0.0392 0.6372
C10_5 C 0.2934(4) 0.0385(7) 0.60714(10)
H8_5 H 0.3348 0.0660 0.6010
C13_5 C 0.2205(4) 0.0013(7) 0.71670(11)
C14_5 C 0.2498(4) 0.0685(7) 0.71791(12)
H11_5 H 0.2545 0.0884 0.7312
C15_5 C 0.2733(4) 0.1085(7) 0.69937(12)
H12_5 H 0.2937 0.1543 0.7008
C16_5 C 0.2669(4) 0.0820(7) 0.67891(11)
H13_5 H 0.2820 0.1084 0.6666
C17_5 C 0.2365(4) 0.0133(7) 0.67805(9)
N9_5 N 0.5761(3) 0.0617(5) 0.89234(7)
O9_5 O 0.4993(4) 0.0921(6) 0.85865(6)
O10_5 O 0.4381(3) 0.0270(5) 0.89878(6)
C1_5 C 0.1267(4) 0.9994(7) 0.52396(11)
H2_5 H 0.0993 0.9548 0.5291
H3_5 H 0.1347 0.9984 0.5088
H4_5 H 0.1505 0.9818 0.5631
C6_5 C 0.1776(4) 0.9744(7) 0.60377(10)
H5_5 H 0.1395 0.9577 0.5953
C7_5 C 0.1713(4) 0.9581(7) 0.62549(9)
H6_5 H 0.1298 0.9300 0.6314
C8_5 C 0.2279(4) 0.9844(7) 0.63803(9)
C11_5 C 0.1897(4) 0.9070(7) 0.66927(9)
H9_5 H 0.1740 0.8688 0.6609
C12_5 C 0.2132(4) 0.9726(7) 0.69608(10)
H10_5 H 0.2057 0.9751 0.7290
C18_5 C 0.1924(4) 0.6361(7) 0.89129(12)
H14_5 H 0.1842 0.6499 0.9049
H15_5 H 0.2221 0.6746 0.8830
H16_5 H 0.2120 0.6088 0.8934
C19_5 C 0.1268(4) 0.5966(7) 0.87913(10)
C20_5 C 0.1247(4) 0.6147(6) 0.85749(9)
H17_5 H 0.1642 0.6480 0.8515
C21_5 C 0.0689(4) 0.5874(7) 0.84421(9)
C22_5 C 0.0769(3) 0.6104(5) 0.82120(9)
C23_5 C 0.1278(4) 0.6135(7) 0.80847(10)
H18_5 H 0.1594 0.6052 0.8146
C24_5 C 0.1320(4) 0.6290(7) 0.78650(10)
H19_5 H 0.1651 0.6293 0.7779
C25_5 C 0.0867(4) 0.6436(7) 0.77763(9)
C26_5 C 0.0359(4) 0.6402(7) 0.78987(9)
H20_5 H 0.0049 0.6497 0.7838
C27_5 C 0.0318(4) 0.6222(7) 0.81158(9)
C28_5 C 0.0999(4) 0.7186(7) 0.74710(9)
H22_5 H 0.1022 0.7524 0.7557
C29_5 C 0.0998(4) 0.6625(7) 0.71964(9)
C30_5 C 0.1004(4) 0.6388(7) 0.69902(11)
H23_5 H 0.1042 0.6640 0.6868
C31_5 C 0.0951(4) 0.5771(7) 0.69704(11)
H24_5 H 0.0966 0.5609 0.6834
C32_5 C 0.0877(4) 0.5389(7) 0.71541(12)
H25_5 H 0.0850 0.4979 0.7136
C33_5 C 0.0843(4) 0.5598(7) 0.73600(11)
H26_5 H 0.0781 0.5335 0.7480
C34_5 C 0.0906(4) 0.6222(7) 0.73766(10)
C35_5 C 0.2939(5) 0.7619(9) 0.69302(12)
H27_5 H 0.2659 0.7146 0.6925
H28_5 H 0.3340 0.7730 0.7006
H29_5 H 0.3047 0.7789 0.6785
C36_5 C 0.2579(4) 0.7926(7) 0.70444(10)
C37_5 C 0.2755(4) 0.8123(7) 0.72620(10)
H30_5 H 0.3057 0.8023 0.7325
C38_5 C 0.2517(4) 0.8453(7) 0.73904(9)
C39_5 C 0.2753(4) 0.8616(7) 0.76197(10)
C40_5 C 0.2940(4) 0.9231(7) 0.77071(11)
H31_5 H 0.2948 0.9558 0.7618
C41_5 C 0.3116(4) 0.9380(7) 0.79229(10)
H32_5 H 0.3245 0.9800 0.7977
C42_5 C 0.3094(4) 0.8890(7) 0.80523(10)
C43_5 C 0.2900(5) 0.8250(8) 0.79706(11)
H33_5 H 0.2884 0.7923 0.8060
C44_5 C 0.2734(5) 0.8115(9) 0.77537(11)
H34_5 H 0.2612 0.7699 0.7697
C45_5 C 0.3876(4) 0.9479(7) 0.83555(9)
H35_5 H 0.4223 0.9773 0.8267
C46_5 C 0.3310(4) 0.8963(7) 0.86333(9)
C47_5 C 0.3065(4) 0.8719(7) 0.88419(10)
H36_5 H 0.3330 0.8907 0.8962
C48_5 C 0.2442(4) 0.8208(7) 0.88618(12)
H37_5 H 0.2278 0.8046 0.8998
C49_5 C 0.2031(4) 0.7912(7) 0.86834(11)
H38_5 H 0.1601 0.7562 0.8703
C50_5 C 0.2260(4) 0.8137(7) 0.84734(12)
H39_5 H 0.1990 0.7946 0.8353
C51_5 C 0.2899(4) 0.8652(7) 0.84544(10)
C52_5 C 0.0006(5) 0.8750(9) 0.72566(12)
H41_5 H 0.0299 0.9222 0.7253
C53_5 C 0.0326(4) 0.8409(7) 0.71375(9)
C54_5 C 0.0131(4) 0.8216(7) 0.69199(9)
C55_5 C 0.0361(4) 0.7907(7) 0.67833(9)
C56_5 C 0.0147(3) 0.7779(5) 0.65542(9)
C60_5 C 0.0201(4) 0.7346(7) 0.62042(10)
H46_5 H 0.0336 0.7102 0.6121
C61_5 C 0.0365(4) 0.7451(7) 0.64241(10)
H47_5 H 0.0628 0.7293 0.6483
C64_5 C 0.0053(4) 0.7863(7) 0.53296(10)
C65_5 C 0.0735(5) 0.8230(8) 0.53204(11)
H50_5 H 0.0945 0.8382 0.5188
C66_5 C 0.1104(4) 0.8371(7) 0.55036(12)
H51_5 H 0.1564 0.8622 0.5491
C67_5 C 0.0834(4) 0.8161(7) 0.57105(11)
H52_5 H 0.1096 0.8265 0.5833
C68_5 C 0.0146(4) 0.7785(7) 0.57177(10)
N1_5 N 0.1842(3) 0.9060(5) 0.69021(7)
N2_5 N 0.2207(3) 0.9695(5) 0.66075(7)
N3_5 N 0.1050(3) 0.7224(5) 0.72618(7)
N4_5 N 0.0907(3) 0.6595(5) 0.75513(7)
N5_5 N 0.3918(3) 0.9476(5) 0.85647(7)
N6_5 N 0.3274(3) 0.9010(5) 0.82769(8)
O3_4 O 0.0801(2) 0.5502(4) 0.88927(6)
O4_4 O 0.0107(2) 0.5436(4) 0.84923(6)
O5_5 O 0.2141(2) 0.7968(4) 0.69410(6)
O6_5 O 0.2107(3) 0.8630(5) 0.73360(6)
O7_5 O 0.0754(3) 0.8345(5) 0.72388(6)
O8_5 O 0.0763(2) 0.7711(4) 0.68377(6)
Zn1_5 Zn 0.14367(4) 0.81531(7) 0.708678(9)
H21_5 H 0.9964 0.6182 0.8197
H40_5 H 0.9594 0.8643 0.7187
H42_5 H 0.9922 0.8599 0.7403
H43_5 H 0.9816 0.8309 0.6863
C57_5 C 0.9754(4) 0.8012(7) 0.64581(10)
H44_5 H 0.9592 0.8232 0.6541
C58_5 C 0.9607(4) 0.7918(7) 0.62401(10)
H45_5 H 0.9344 0.8071 0.6179
C59_5 C 0.9849(4) 0.7598(7) 0.61125(9)
C62_5 C 0.9100(4) 0.7236(7) 0.58004(9)
H48_5 H 0.8714 0.7025 0.5882
C63_5 C 0.9758(4) 0.7643(7) 0.55316(9)
H49_5 H 0.9797 0.7764 0.5205
N8_5 N 0.9708(3) 0.7519(5) 0.58872(7)
Zn5_4 Zn 0.99367(7) 0.47767(8) 0.874013(9)
C1_6 C 0.0006(7) 0.1272(6) 0.52396(11)
H2_6 H 0.0452 0.1444 0.5291
H3_6 H 0.0016 0.1362 0.5088
H4_6 H 0.0182 0.1686 0.5631
C6_6 C 0.0256(7) 0.2031(6) 0.60377(10)
H5_6 H 0.0423 0.1817 0.5953
C7_6 C 0.0419(7) 0.2131(6) 0.62549(9)
H6_6 H 0.0700 0.1997 0.6314
C8_6 C 0.0156(7) 0.2434(6) 0.63803(9)
C11_6 C 0.0930(7) 0.2826(6) 0.66927(9)
H9_6 H 0.1312 0.3051 0.6609
C12_6 C 0.0274(7) 0.2405(6) 0.69608(10)
H10_6 H 0.0249 0.2305 0.7290
C18_6 C 0.3639(7) 0.5562(6) 0.89129(12)
H14_6 H 0.3501 0.5342 0.9049
H15_6 H 0.3254 0.5474 0.8830
H16_6 H 0.3912 0.6031 0.8934
C19_6 C 0.4034(7) 0.5301(6) 0.87913(10)
C20_6 C 0.3853(6) 0.5099(5) 0.85749(9)
H17_6 H 0.3520 0.5161 0.8515
C21_6 C 0.4126(7) 0.4814(6) 0.84421(9)
C22_6 C 0.3896(5) 0.4664(4) 0.82120(9)
C23_6 C 0.3865(7) 0.5142(6) 0.80847(10)
H18_6 H 0.3948 0.5541 0.8146
C24_6 C 0.3710(7) 0.5029(6) 0.78650(10)
H19_6 H 0.3707 0.5357 0.7779
C25_6 C 0.3564(7) 0.4430(6) 0.77763(9)
C26_6 C 0.3598(7) 0.3956(6) 0.78987(9)
H20_6 H 0.3503 0.3551 0.7838
C27_6 C 0.3778(7) 0.4095(6) 0.81158(9)
H21_6 H 0.3818 0.3781 0.8197
C28_6 C 0.2814(7) 0.3812(6) 0.74710(9)
H22_6 H 0.2476 0.3497 0.7557
C29_6 C 0.3375(7) 0.4372(6) 0.71964(9)
C30_6 C 0.3612(7) 0.4615(6) 0.69902(11)
H23_6 H 0.3360 0.4401 0.6868
C31_6 C 0.4229(7) 0.5179(6) 0.69704(11)
H24_6 H 0.4391 0.5356 0.6834
C32_6 C 0.4611(7) 0.5487(6) 0.71541(12)
H25_6 H 0.5021 0.5870 0.7136
C33_6 C 0.4402(7) 0.5244(6) 0.73600(11)
H26_6 H 0.4665 0.5445 0.7480
C34_6 C 0.3778(7) 0.4683(6) 0.73766(10)
C35_6 C 0.2381(9) 0.5319(8) 0.69302(12)
H27_6 H 0.2854 0.5512 0.6925
H28_6 H 0.2270 0.5609 0.7006
H29_6 H 0.2211 0.5257 0.6785
C36_6 C 0.2074(7) 0.4652(6) 0.70444(10)
C37_6 C 0.1877(7) 0.4631(6) 0.72620(10)
H30_6 H 0.1977 0.5033 0.7325
C38_6 C 0.1547(7) 0.4063(6) 0.73904(9)
C39_6 C 0.1384(7) 0.4136(6) 0.76197(10)
C40_6 C 0.0769(7) 0.3708(6) 0.77071(11)
H31_6 H 0.0442 0.3389 0.7618
C41_6 C 0.0620(7) 0.3735(6) 0.79229(10)
H32_6 H 0.0200 0.3444 0.7977
C42_6 C 0.1110(7) 0.4203(6) 0.80523(10)
C43_6 C 0.1750(8) 0.4649(6) 0.79706(11)
H33_6 H 0.2077 0.4960 0.8060
C44_6 C 0.1885(9) 0.4618(7) 0.77537(11)
H34_6 H 0.2301 0.4912 0.7697
C45_6 C 0.0521(7) 0.4396(6) 0.83555(9)
H35_6 H 0.0227 0.4449 0.8267
C46_6 C 0.1037(7) 0.4346(6) 0.86333(9)
C47_6 C 0.1281(7) 0.4345(6) 0.88419(10)
H36_6 H 0.1093 0.4422 0.8962
C48_6 C 0.1792(7) 0.4233(6) 0.88618(12)
H37_6 H 0.1954 0.4231 0.8998
C49_6 C 0.2088(7) 0.4118(6) 0.86834(11)
H38_6 H 0.2438 0.4038 0.8703
C50_6 C 0.1863(7) 0.4122(6) 0.84734(12)
H39_6 H 0.2054 0.4043 0.8353
C51_6 C 0.1348(7) 0.4246(6) 0.84544(10)
C52_6 C 0.1250(9) 0.1255(8) 0.72566(12)
H40_6 H 0.1357 0.0950 0.7187
H41_6 H 0.0778 0.1076 0.7253
H42_6 H 0.1401 0.1322 0.7403
C53_6 C 0.1591(7) 0.1916(6) 0.71375(9)
C54_6 C 0.1784(7) 0.1914(6) 0.69199(9)
H43_6 H 0.1691 0.1506 0.6863
C55_6 C 0.2093(7) 0.2453(6) 0.67833(9)
C56_6 C 0.2221(5) 0.2367(4) 0.65542(9)
C57_6 C 0.1988(7) 0.1741(6) 0.64581(10)
H44_6 H 0.1768 0.1359 0.6541
C58_6 C 0.2082(7) 0.1688(6) 0.62401(10)
H45_6 H 0.1929 0.1272 0.6179
C59_6 C 0.2402(7) 0.2250(6) 0.61125(9)
C60_6 C 0.2654(7) 0.2854(6) 0.62042(10)
H46_6 H 0.2898 0.3233 0.6121
C61_6 C 0.2549(7) 0.2913(6) 0.64241(10)
H47_6 H 0.2707 0.3334 0.6483
C62_6 C 0.2764(7) 0.1863(6) 0.58004(9)
H48_6 H 0.2975 0.1688 0.5882
C63_6 C 0.2357(7) 0.2114(6) 0.55316(9)
C64_6 C 0.2137(7) 0.2189(6) 0.53296(10)
H49_6 H 0.2236 0.2032 0.5205
C65_6 C 0.1770(8) 0.2504(6) 0.53204(11)
H50_6 H 0.1618 0.2562 0.5188
C66_6 C 0.1629(7) 0.2732(6) 0.55036(12)
H51_6 H 0.1378 0.2941 0.5491
C67_6 C 0.1839(7) 0.2672(6) 0.57105(11)
H52_6 H 0.1735 0.2830 0.5833
C68_6 C 0.2215(7) 0.2360(6) 0.57177(10)
N1_6 N 0.0940(5) 0.2781(4) 0.69021(7)
N2_6 N 0.0305(5) 0.2511(4) 0.66075(7)
N3_6 N 0.2776(5) 0.3825(4) 0.72618(7)
N4_6 N 0.3405(5) 0.4311(4) 0.75513(7)
N5_6 N 0.0524(5) 0.4441(4) 0.85647(7)
N6_6 N 0.0990(5) 0.4263(4) 0.82769(8)
N8_6 N 0.2481(5) 0.2188(4) 0.58872(7)
O5_6 O 0.2032(4) 0.4172(4) 0.69410(6)
O6_6 O 0.1370(5) 0.3476(4) 0.73360(6)
O7_6 O 0.1655(5) 0.2408(4) 0.72388(6)
O8_6 O 0.2289(4) 0.3051(3) 0.68377(6)
Zn1_6 Zn 0.18469(7) 0.32835(6) 0.708678(9)
H1_6 H 0.9757 0.0801 0.5263
C2_6 C 0.9687(7) 0.1596(6) 0.53576(9)
C3_6 C 0.9872(6) 0.1784(5) 0.55737(9)
C4_6 C 0.9640(5) 0.2102(4) 0.57102(9)
C5_6 C 0.9851(5) 0.2239(4) 0.59421(9)
C9_6 C 0.9765(7) 0.2668(6) 0.62904(10)
H7_6 H 0.9608 0.2894 0.6372
C10_6 C 0.9615(7) 0.2548(6) 0.60714(10)
H8_6 H 0.9340 0.2687 0.6010
C13_6 C 0.9987(7) 0.2191(6) 0.71670(11)
C14_6 C 0.9315(7) 0.1812(6) 0.71791(12)
H11_6 H 0.9116 0.1660 0.7312
C15_6 C 0.8915(7) 0.1647(6) 0.69937(12)
H12_6 H 0.8457 0.1393 0.7008
C16_6 C 0.9180(7) 0.1848(6) 0.67891(11)
H13_6 H 0.8916 0.1735 0.6666
C17_6 C 0.9867(7) 0.2231(6) 0.67805(9)
N9_6 N 0.9383(5) 0.5145(4) 0.89234(7)
O9_6 O 0.9079(6) 0.4073(5) 0.85865(6)
O10_6 O 0.9730(5) 0.4112(4) 0.89878(6)
C11_7 C 0.3840(6) 0.1437(4) 0.00261(9)
C12_7 C 0.4261(6) 0.1202(4) 0.02942(10)
C13_7 C 0.4475(6) 0.1129(4) 0.05004(11)
H10_7 H 0.4361 0.1277 0.0624
C14_7 C 0.4854(6) 0.0836(4) 0.05125(12)
H11_7 H 0.5006 0.0789 0.0646
C15_7 C 0.5019(6) 0.0601(4) 0.03271(12)
H12_7 H 0.5273 0.0397 0.0342
C16_7 C 0.4818(6) 0.0665(4) 0.01225(11)
C17_7 C 0.4435(6) 0.0969(4) 0.01139(9)
C18_7 C 0.1104(6) 0.1410(4) 0.22463(12)
H14_7 H 0.1324 0.1492 0.2383
H15_7 H 0.1192 0.1113 0.2164
H16_7 H 0.0635 0.1214 0.2268
C19_7 C 0.1365(6) 0.2066(4) 0.21247(10)
C20_7 C 0.1567(5) 0.2087(4) 0.19083(9)
H17_7 H 0.1505 0.1692 0.1849
C21_7 C 0.1852(6) 0.2645(4) 0.17755(9)
C22_7 C 0.2002(4) 0.2565(3) 0.15454(9)
C23_7 C 0.1524(6) 0.2056(4) 0.14181(10)
H18_7 H 0.1125 0.1740 0.1480
C24_7 C 0.1637(6) 0.2014(4) 0.11984(10)
H19_7 H 0.1309 0.1683 0.1113
C25_7 C 0.2236(6) 0.2467(4) 0.11097(9)
C26_7 C 0.2710(6) 0.2975(4) 0.12321(9)
H20_7 H 0.3115 0.3285 0.1172
C27_7 C 0.2571(6) 0.3016(4) 0.14492(9)
H21_7 H 0.2885 0.3370 0.1531
C28_7 C 0.2854(6) 0.2335(4) 0.08044(9)
H22_7 H 0.3169 0.2312 0.0891
C29_7 C 0.2294(6) 0.2336(4) 0.05298(9)
C30_7 C 0.2051(6) 0.2330(4) 0.03236(11)
H23_7 H 0.2265 0.2292 0.0202
C31_7 C 0.1487(6) 0.2383(4) 0.03038(11)
H24_7 H 0.1310 0.2368 0.0168
C32_7 C 0.1179(6) 0.2457(4) 0.04875(12)
H25_7 H 0.0796 0.2484 0.0470
C33_7 C 0.1422(6) 0.2491(4) 0.06934(11)
H26_7 H 0.1221 0.2553 0.0814
C34_7 C 0.1983(6) 0.2428(4) 0.07100(10)
C35_7 C 0.1347(8) 0.0395(5) 0.02636(12)
H27_7 H 0.1154 0.0675 0.0259
H29_7 H 0.1409 0.0287 0.0119
C36_7 C 0.2014(6) 0.0755(4) 0.03778(10)
C37_7 C 0.2035(6) 0.0579(4) 0.05954(10)
H30_7 H 0.1633 0.0277 0.0659
C38_7 C 0.2603(6) 0.0817(4) 0.07238(9)
C39_7 C 0.2530(6) 0.0581(4) 0.09531(10)
C40_7 C 0.2958(6) 0.0394(4) 0.10405(11)
H31_7 H 0.3277 0.0386 0.0952
C41_7 C 0.2931(6) 0.0218(4) 0.12563(10)
H32_7 H 0.3222 0.0089 0.1311
C42_7 C 0.2463(6) 0.0240(4) 0.13857(10)
C43_7 C 0.2017(6) 0.0434(5) 0.13040(11)
H33_7 H 0.1706 0.0450 0.1394
C44_7 C 0.2048(7) 0.0600(5) 0.10871(11)
H34_7 H 0.1754 0.0722 0.1031
C46_7 C 0.2320(6) 0.0024(4) 0.19667(9)
C47_7 C 0.2321(6) 0.0269(4) 0.21753(10)
H36_7 H 0.2244 0.0004 0.2296
C48_7 C 0.2433(6) 0.0892(4) 0.21952(12)
H37_7 H 0.2435 0.1056 0.2332
C49_7 C 0.2548(6) 0.1303(4) 0.20168(11)
H38_7 H 0.2628 0.1733 0.2037
C50_7 C 0.2544(6) 0.1074(4) 0.18068(12)
H39_7 H 0.2623 0.1344 0.1687
C51_7 C 0.2420(6) 0.0435(4) 0.17878(10)
C52_7 C 0.5411(8) 0.3328(5) 0.05900(12)
H40_7 H 0.5716 0.3740 0.0521
H41_7 H 0.5590 0.3035 0.0587
H42_7 H 0.5344 0.3412 0.0737
C53_7 C 0.4750(6) 0.3008(4) 0.04709(9)
C54_7 C 0.4752(6) 0.3203(4) 0.02533(9)
H43_7 H 0.5160 0.3518 0.0197
C55_7 C 0.4213(6) 0.2973(4) 0.01167(9)
N1_7 N 0.3885(4) 0.1492(3) 0.02355(7)
N3_7 N 0.2841(4) 0.2284(3) 0.05952(7)
N4_7 N 0.2355(4) 0.2427(3) 0.08847(7)
N6_7 N 0.2403(4) 0.0060(3) 0.16103(8)
O3_5 O 0.1368(3) 0.2533(2) 0.22261(6)
O4_5 O 0.1996(3) 0.3227(2) 0.18257(6)
O5_7 O 0.2494(4) 0.1193(2) 0.02744(6)
O6_7 O 0.3190(4) 0.1227(3) 0.06694(6)
O7_7 O 0.4258(4) 0.2580(3) 0.05722(6)
O8_7 O 0.3615(3) 0.2571(2) 0.01711(6)
Zn1_7 Zn 0.33831(6) 0.18967(4) 0.042012(9)
C1_7 C 0.5394(6) 0.2067(4) 0.85730(11)
H1_7 H 0.5865 0.2289 0.8597
H2_7 H 0.5222 0.2341 0.8625
H3_7 H 0.5304 0.1987 0.8422
C2_7 C 0.5070(6) 0.1424(4) 0.86910(9)
C3_7 C 0.4882(5) 0.1421(4) 0.89071(9)
H4_7 H 0.4980 0.1829 0.8965
C4_7 C 0.4564(4) 0.0871(3) 0.90436(9)
C5_7 C 0.4427(4) 0.0945(3) 0.92755(9)
C6_7 C 0.4635(6) 0.1558(4) 0.93711(10)
H5_7 H 0.4849 0.1939 0.9287
C7_7 C 0.4535(6) 0.1621(4) 0.95883(9)
H6_7 H 0.4669 0.2036 0.9648
C8_7 C 0.4232(6) 0.1055(4) 0.97137(9)
C9_7 C 0.3998(6) 0.0430(4) 0.96238(10)
H7_7 H 0.3772 0.0047 0.9706
C10_7 C 0.4118(6) 0.0400(4) 0.94048(10)
H9_7 H 0.3615 0.1594 0.9943
H13_7 H 0.4931 0.0514 1.0000
C56_7 C 0.4299(4) 0.3187(3) 0.98876(9)
C57_7 C 0.4925(6) 0.3580(4) 0.97915(10)
H44_7 H 0.5307 0.3742 0.9875
C58_7 C 0.4978(6) 0.3727(4) 0.95735(10)
H45_7 H 0.5394 0.3990 0.9513
C59_7 C 0.4416(6) 0.3485(4) 0.94459(9)
C60_7 C 0.3812(6) 0.3133(4) 0.95376(10)
H46_7 H 0.3433 0.2998 0.9455
C61_7 C 0.3753(6) 0.2969(4) 0.97575(10)
H47_7 H 0.3332 0.2706 0.9817
C62_7 C 0.4803(6) 0.4234(4) 0.91338(9)
H48_7 H 0.4978 0.4620 0.9216
C63_7 C 0.4552(6) 0.3576(4) 0.88650(9)
C64_7 C 0.4477(6) 0.3281(4) 0.86630(10)
H49_7 H 0.4634 0.3537 0.8539
C65_7 C 0.4162(6) 0.2599(5) 0.86538(11)
H50_7 H 0.4104 0.2389 0.8522
C66_7 C 0.3934(6) 0.2230(4) 0.88370(12)
H51_7 H 0.3725 0.1770 0.8825
C67_7 C 0.3994(6) 0.2500(4) 0.90439(11)
H52_7 H 0.3836 0.2238 0.9167
C68_7 C 0.4306(6) 0.3188(4) 0.90511(10)
N2_7 N 0.4155(4) 0.1127(3) 0.99409(7)
N8_7 N 0.4478(4) 0.3626(3) 0.92206(7)
H28_7 H 0.1057 0.9994 0.0340
C45_7 C 0.2270(6) 0.9458(4) 0.16889(9)
H35_7 H 0.2217 0.9111 0.1601
N5_7 N 0.2225(4) 0.9416(3) 0.18981(7)
O11_3 O 0.1164(4) 0.8632(3) 0.22261(6)
O12_3 O 0.1230(4) 0.8004(3) 0.18257(6)
H28_8 H 0.0006 0.1064 0.0340
C45_8 C 0.0542(4) 0.2813(7) 0.16889(9)
H35_8 H 0.0889 0.3107 0.1601
N5_8 N 0.0584(3) 0.2810(5) 0.18981(7)
C1_8 C 0.7933(4) 0.3328(7) 0.85730(11)
H1_8 H 0.7711 0.3577 0.8597
H2_8 H 0.7659 0.2882 0.8625
H3_8 H 0.8013 0.3318 0.8422
C2_8 C 0.8576(4) 0.3647(7) 0.86910(9)
C3_8 C 0.8579(4) 0.3462(6) 0.89071(9)
H4_8 H 0.8171 0.3152 0.8965
C4_8 C 0.9129(3) 0.3694(5) 0.90436(9)
C5_8 C 0.9055(3) 0.3483(5) 0.92755(9)
C6_8 C 0.8442(4) 0.3078(7) 0.93711(10)
H5_8 H 0.8061 0.2911 0.9287
C7_8 C 0.8379(4) 0.2915(7) 0.95883(9)
H6_8 H 0.7964 0.2634 0.9648
C8_8 C 0.8945(4) 0.3178(7) 0.97137(9)
C9_8 C 0.9570(4) 0.3569(7) 0.96238(10)
H7_8 H 0.9953 0.3726 0.9706
C10_8 C 0.9600(4) 0.3719(7) 0.94048(10)
H9_8 H 0.8406 0.2022 0.9943
H13_8 H 0.9486 0.4418 1.0000
C56_8 C 0.6813(3) 0.1113(5) 0.98876(9)
C57_8 C 0.6420(4) 0.1346(7) 0.97915(10)
H44_8 H 0.6258 0.1566 0.9875
C58_8 C 0.6273(4) 0.1252(7) 0.95735(10)
H45_8 H 0.6010 0.1405 0.9513
C59_8 C 0.6515(4) 0.0932(7) 0.94459(9)
C60_8 C 0.6867(4) 0.0680(7) 0.95376(10)
H46_8 H 0.7002 0.0436 0.9455
C61_8 C 0.7031(4) 0.0785(7) 0.97575(10)
H47_8 H 0.7294 0.0627 0.9817
C62_8 C 0.5766(4) 0.0570(7) 0.91338(9)
H48_8 H 0.5380 0.0359 0.9216
C63_8 C 0.6424(4) 0.0977(7) 0.88650(9)
C64_8 C 0.6719(4) 0.1197(7) 0.86630(10)
H49_8 H 0.6463 0.1098 0.8539
C65_8 C 0.7401(5) 0.1564(8) 0.86538(11)
H50_8 H 0.7611 0.1716 0.8522
C66_8 C 0.7770(4) 0.1705(7) 0.88370(12)
H51_8 H 0.8230 0.1956 0.8825
C67_8 C 0.7500(4) 0.1495(7) 0.90439(11)
H52_8 H 0.7762 0.1599 0.9167
C68_8 C 0.6812(4) 0.1119(7) 0.90511(10)
N2_8 N 0.8873(3) 0.3029(5) 0.99409(7)
N8_8 N 0.6374(3) 0.0853(5) 0.92206(7)
C18_8 C 0.8590(4) 0.9695(7) 0.22463(12)
H14_8 H 0.8508 0.9833 0.2383
H16_8 H 0.8786 0.9422 0.2268
C19_8 C 0.7934(4) 0.9300(7) 0.21247(10)
C20_8 C 0.7913(4) 0.9481(6) 0.19083(9)
H17_8 H 0.8308 0.9814 0.1849
C21_8 C 0.7355(4) 0.9208(7) 0.17755(9)
C22_8 C 0.7435(3) 0.9438(5) 0.15454(9)
C23_8 C 0.7944(4) 0.9469(7) 0.14181(10)
H18_8 H 0.8260 0.9386 0.1480
C24_8 C 0.7986(4) 0.9624(7) 0.11984(10)
H19_8 H 0.8317 0.9627 0.1113
C25_8 C 0.7533(4) 0.9770(7) 0.11097(9)
C26_8 C 0.7025(4) 0.9736(7) 0.12321(9)
H20_8 H 0.6715 0.9831 0.1172
C27_8 C 0.6984(4) 0.9556(7) 0.14492(9)
H21_8 H 0.6630 0.9516 0.1531
C29_8 C 0.7664(4) 0.9959(7) 0.05298(9)
C30_8 C 0.7670(4) 0.9722(7) 0.03236(11)
H23_8 H 0.7708 0.9974 0.0202
C31_8 C 0.7617(4) 0.9105(7) 0.03038(11)
H24_8 H 0.7632 0.8943 0.0168
C32_8 C 0.7543(4) 0.8723(7) 0.04875(12)
H25_8 H 0.7516 0.8313 0.0470
C33_8 C 0.7509(4) 0.8932(7) 0.06934(11)
H26_8 H 0.7447 0.8669 0.0814
C34_8 C 0.7572(4) 0.9556(7) 0.07100(10)
N4_8 N 0.7573(3) 0.9929(5) 0.08847(7)
O3_6 O 0.7467(2) 0.8836(4) 0.22261(6)
O4_6 O 0.6773(2) 0.8770(4) 0.18257(6)
C18_9 C 0.0305(7) 0.8896(6) 0.22463(12)
H14_9 H 0.0167 0.8676 0.2383
H16_9 H 0.0578 0.9365 0.2268
C19_9 C 0.0700(7) 0.8635(6) 0.21247(10)
C20_9 C 0.0519(6) 0.8433(5) 0.19083(9)
H17_9 H 0.0186 0.8495 0.1849
C21_9 C 0.0792(7) 0.8148(6) 0.17755(9)
C22_9 C 0.0562(5) 0.7998(4) 0.15454(9)
C23_9 C 0.0531(7) 0.8476(6) 0.14181(10)
H18_9 H 0.0614 0.8875 0.1480
C24_9 C 0.0376(7) 0.8363(6) 0.11984(10)
H19_9 H 0.0373 0.8691 0.1113
C25_9 C 0.0230(7) 0.7764(6) 0.11097(9)
C26_9 C 0.0264(7) 0.7290(6) 0.12321(9)
H20_9 H 0.0169 0.6885 0.1172
C27_9 C 0.0444(7) 0.7429(6) 0.14492(9)
H21_9 H 0.0484 0.7115 0.1531
C29_9 C 0.0041(7) 0.7706(6) 0.05298(9)
C30_9 C 0.0278(7) 0.7949(6) 0.03236(11)
H23_9 H 0.0026 0.7735 0.0202
C31_9 C 0.0895(7) 0.8513(6) 0.03038(11)
H24_9 H 0.1057 0.8690 0.0168
C32_9 C 0.1277(7) 0.8821(6) 0.04875(12)
H25_9 H 0.1687 0.9204 0.0470
C33_9 C 0.1068(7) 0.8578(6) 0.06934(11)
H26_9 H 0.1331 0.8779 0.0814
C34_9 C 0.0444(7) 0.8017(6) 0.07100(10)
N4_9 N 0.0071(5) 0.7645(4) 0.08847(7)
C11_8 C 0.7596(7) 0.6160(6) 0.00261(9)
C12_8 C 0.6940(7) 0.5739(6) 0.02942(10)
C13_8 C 0.6653(7) 0.5525(6) 0.05004(11)
H10_8 H 0.6915 0.5639 0.0624
C14_8 C 0.5981(7) 0.5146(6) 0.05125(12)
H11_8 H 0.5782 0.4994 0.0646
C15_8 C 0.5581(7) 0.4981(6) 0.03271(12)
H12_8 H 0.5123 0.4727 0.0342
C16_8 C 0.5846(7) 0.5182(6) 0.01225(11)
C17_8 C 0.6533(7) 0.5565(6) 0.01139(9)
H15_8 H 0.9920 0.8808 0.2164
C28_8 C 0.9480(7) 0.7146(6) 0.08044(9)
H22_8 H 0.9142 0.6831 0.0891
C35_8 C 0.9047(9) 0.8653(8) 0.02636(12)
H27_8 H 0.9520 0.8846 0.0259
H28_9 H 0.8936 0.8943 0.0340
H29_8 H 0.8877 0.8591 0.0119
C36_8 C 0.8740(7) 0.7986(6) 0.03778(10)
C37_8 C 0.8543(7) 0.7965(6) 0.05954(10)
H30_8 H 0.8643 0.8367 0.0659
C38_8 C 0.8213(7) 0.7397(6) 0.07238(9)
C39_8 C 0.8050(7) 0.7470(6) 0.09531(10)
C40_8 C 0.7435(7) 0.7042(6) 0.10405(11)
H31_8 H 0.7108 0.6723 0.0952
C41_8 C 0.7286(7) 0.7069(6) 0.12563(10)
H32_8 H 0.6866 0.6778 0.1311
C42_8 C 0.7776(7) 0.7537(6) 0.13857(10)
C43_8 C 0.8416(8) 0.7983(6) 0.13040(11)
H33_8 H 0.8743 0.8294 0.1394
C44_8 C 0.8551(9) 0.7952(7) 0.10871(11)
H34_8 H 0.8967 0.8246 0.1031
C45_9 C 0.7187(7) 0.7730(6) 0.16889(9)
H35_9 H 0.6893 0.7783 0.1601
C46_8 C 0.7703(7) 0.7680(6) 0.19667(9)
C47_8 C 0.7947(7) 0.7679(6) 0.21753(10)
H36_8 H 0.7759 0.7756 0.2296
C48_8 C 0.8458(7) 0.7567(6) 0.21952(12)
H37_8 H 0.8620 0.7565 0.2332
C49_8 C 0.8754(7) 0.7452(6) 0.20168(11)
H38_8 H 0.9104 0.7372 0.2037
C50_8 C 0.8529(7) 0.7456(6) 0.18068(12)
H39_8 H 0.8720 0.7377 0.1687
C51_8 C 0.8014(7) 0.7580(6) 0.17878(10)
C52_8 C 0.7916(9) 0.4589(8) 0.05900(12)
H40_8 H 0.8023 0.4284 0.0521
H41_8 H 0.7444 0.4410 0.0587
H42_8 H 0.8067 0.4656 0.0737
C53_8 C 0.8257(7) 0.5250(6) 0.04709(9)
C54_8 C 0.8450(7) 0.5248(6) 0.02533(9)
H43_8 H 0.8357 0.4840 0.0197
C55_8 C 0.8759(7) 0.5787(6) 0.01167(9)
N1_8 N 0.7606(5) 0.6115(4) 0.02355(7)
N3_8 N 0.9442(5) 0.7159(4) 0.05952(7)
N5_9 N 0.7190(5) 0.7775(4) 0.18981(7)
N6_8 N 0.7656(5) 0.7597(4) 0.16103(8)
O5_8 O 0.8698(4) 0.7506(4) 0.02744(6)
O6_8 O 0.8036(5) 0.6810(4) 0.06694(6)
O7_8 O 0.8321(5) 0.5742(4) 0.05722(6)
O8_8 O 0.8955(4) 0.6385(3) 0.01711(6)
Zn1_8 Zn 0.85135(7) 0.66169(6) 0.042012(9)
C1_9 C 0.6672(7) 0.4606(6) 0.85730(11)
H1_9 H 0.6423 0.4135 0.8597
H2_9 H 0.7118 0.4778 0.8625
H3_9 H 0.6682 0.4696 0.8422
C2_9 C 0.6353(7) 0.4930(6) 0.86910(9)
C3_9 C 0.6538(6) 0.5118(5) 0.89071(9)
H4_9 H 0.6848 0.5020 0.8965
C4_9 C 0.6306(5) 0.5436(4) 0.90436(9)
C5_9 C 0.6517(5) 0.5573(4) 0.92755(9)
C6_9 C 0.6922(7) 0.5365(6) 0.93711(10)
H5_9 H 0.7089 0.5151 0.9287
C7_9 C 0.7085(7) 0.5465(6) 0.95883(9)
H6_9 H 0.7366 0.5331 0.9648
C8_9 C 0.6822(7) 0.5768(6) 0.97137(9)
C9_9 C 0.6431(7) 0.6002(6) 0.96238(10)
H7_9 H 0.6274 0.6228 0.9706
C10_9 C 0.6281(7) 0.5882(6) 0.94048(10)
H8_7 H 0.6006 0.6021 0.9344
H9_9 H 0.7978 0.6385 0.9943
H13_9 H 0.5582 0.5069 1.0000
C56_9 C 0.8887(5) 0.5701(4) 0.98876(9)
C57_9 C 0.8654(7) 0.5075(6) 0.97915(10)
H44_9 H 0.8434 0.4693 0.9875
C58_9 C 0.8748(7) 0.5022(6) 0.95735(10)
H45_9 H 0.8595 0.4606 0.9513
C59_9 C 0.9068(7) 0.5584(6) 0.94459(9)
C60_9 C 0.9320(7) 0.6188(6) 0.95376(10)
H46_9 H 0.9564 0.6567 0.9455
C61_9 C 0.9215(7) 0.6247(6) 0.97575(10)
H47_9 H 0.9373 0.6668 0.9817
C62_9 C 0.9430(7) 0.5197(6) 0.91338(9)
H48_9 H 0.9641 0.5022 0.9216
C63_9 C 0.9023(7) 0.5448(6) 0.88650(9)
C64_9 C 0.8803(7) 0.5523(6) 0.86630(10)
H49_9 H 0.8902 0.5366 0.8539
C65_9 C 0.8436(8) 0.5838(6) 0.86538(11)
H50_9 H 0.8284 0.5896 0.8522
C66_9 C 0.8295(7) 0.6066(6) 0.88370(12)
H51_9 H 0.8044 0.6275 0.8825
C67_9 C 0.8505(7) 0.6006(6) 0.90439(11)
H52_9 H 0.8401 0.6164 0.9167
C68_9 C 0.8881(7) 0.5694(6) 0.90511(10)
N2_9 N 0.6971(5) 0.5845(4) 0.99409(7)
N8_9 N 0.9147(5) 0.5522(4) 0.92206(7)
H8_8 H 0.3979 0.9986 0.9344
H8_9 H 0.0014 0.3994 0.9344
C11_9 C 0.8563(4) 0.2404(7) 0.00261(9)
C12_9 C 0.8798(4) 0.3060(7) 0.02942(10)
C13_9 C 0.8871(4) 0.3347(7) 0.05004(11)
H10_9 H 0.8723 0.3085 0.0624
C14_9 C 0.9164(4) 0.4019(7) 0.05125(12)
H11_9 H 0.9211 0.4218 0.0646
C15_9 C 0.9399(4) 0.4419(7) 0.03271(12)
H12_9 H 0.9603 0.4877 0.0342
C16_9 C 0.9335(4) 0.4154(7) 0.01225(11)
C17_9 C 0.9031(4) 0.3467(7) 0.01139(9)
H15_9 H 0.8887 0.0080 0.2164
C28_9 C 0.7665(4) 0.0520(7) 0.08044(9)
H22_9 H 0.7688 0.0858 0.0891
C35_9 C 0.9605(5) 0.0953(9) 0.02636(12)
H27_9 H 0.9325 0.0480 0.0259
H29_9 H 0.9713 0.1123 0.0119
C36_9 C 0.9245(4) 0.1260(7) 0.03778(10)
C37_9 C 0.9421(4) 0.1457(7) 0.05954(10)
H30_9 H 0.9723 0.1357 0.0659
C38_9 C 0.9183(4) 0.1787(7) 0.07238(9)
C39_9 C 0.9419(4) 0.1950(7) 0.09531(10)
C40_9 C 0.9606(4) 0.2565(7) 0.10405(11)
H31_9 H 0.9614 0.2892 0.0952
C41_9 C 0.9782(4) 0.2714(7) 0.12563(10)
H32_9 H 0.9911 0.3134 0.1311
C42_9 C 0.9760(4) 0.2224(7) 0.13857(10)
C43_9 C 0.9566(5) 0.1584(8) 0.13040(11)
H33_9 H 0.9550 0.1257 0.1394
C44_9 C 0.9400(5) 0.1449(9) 0.10871(11)
H34_9 H 0.9278 0.1033 0.1031
C46_9 C 0.9976(4) 0.2297(7) 0.19667(9)
C47_9 C 0.9731(4) 0.2053(7) 0.21753(10)
H36_9 H 0.9996 0.2241 0.2296
C48_9 C 0.9108(4) 0.1542(7) 0.21952(12)
H37_9 H 0.8944 0.1380 0.2332
C49_9 C 0.8697(4) 0.1246(7) 0.20168(11)
H38_9 H 0.8267 0.0896 0.2037
C50_9 C 0.8926(4) 0.1471(7) 0.18068(12)
H39_9 H 0.8656 0.1280 0.1687
C51_9 C 0.9565(4) 0.1986(7) 0.17878(10)
C52_9 C 0.6672(5) 0.2084(9) 0.05900(12)
H40_9 H 0.6260 0.1977 0.0521
H41_9 H 0.6965 0.2556 0.0587
H42_9 H 0.6588 0.1933 0.0737
C53_9 C 0.6992(4) 0.1743(7) 0.04709(9)
C54_9 C 0.6797(4) 0.1550(7) 0.02533(9)
H43_9 H 0.6482 0.1643 0.0197
C55_9 C 0.7027(4) 0.1241(7) 0.01167(9)
N1_9 N 0.8508(3) 0.2394(5) 0.02355(7)
N3_9 N 0.7716(3) 0.0558(5) 0.05952(7)
N6_9 N 0.9940(3) 0.2344(5) 0.16103(8)
O5_9 O 0.8807(2) 0.1302(4) 0.02744(6)
O6_9 O 0.8773(3) 0.1964(5) 0.06694(6)
O7_9 O 0.7420(3) 0.1679(5) 0.05722(6)
O8_9 O 0.7429(2) 0.1045(4) 0.01711(6)
Zn1_9 Zn 0.81033(4) 0.14865(7) 0.042012(9)
C18_10 C 0.2229(6) 0.5257(4) 0.44204(12)
H14_10 H 0.2009 0.5175 0.4284
H15_10 H 0.2141 0.5554 0.4503
H16_10 H 0.2698 0.5453 0.4399
C19_10 C 0.1968(6) 0.4601(4) 0.45420(10)
C20_10 C 0.1766(5) 0.4580(4) 0.47584(9)
H17_10 H 0.1828 0.4975 0.4818
C21_10 C 0.1481(6) 0.4022(4) 0.48912(9)
C22_10 C 0.1331(4) 0.4102(3) 0.51213(9)
C23_10 C 0.1809(6) 0.4611(4) 0.52486(10)
H18_10 H 0.2208 0.4927 0.5187
C24_10 C 0.1696(6) 0.4653(4) 0.54683(10)
H19_10 H 0.2024 0.4984 0.5554
C25_10 C 0.1097(6) 0.4200(4) 0.55570(9)
C26_10 C 0.0623(6) 0.3692(4) 0.54346(9)
H20_10 H 0.0218 0.3382 0.5495
C27_10 C 0.0762(6) 0.3651(4) 0.52175(9)
H21_10 H 0.0448 0.3297 0.5136
C28_10 C 0.0479(6) 0.4332(4) 0.58623(9)
H22_10 H 0.0164 0.4355 0.5776
C29_10 C 0.1039(6) 0.4331(4) 0.61369(9)
C30_10 C 0.1282(6) 0.4337(4) 0.63431(11)
H23_10 H 0.1068 0.4375 0.6465
C31_10 C 0.1846(6) 0.4284(4) 0.63629(11)
H24_10 H 0.2023 0.4299 0.6499
C32_10 C 0.2154(6) 0.4210(4) 0.61792(12)
H25_10 H 0.2537 0.4183 0.6197
C33_10 C 0.1911(6) 0.4176(4) 0.59733(11)
H26_10 H 0.2112 0.4114 0.5853
C34_10 C 0.1350(6) 0.4239(4) 0.59567(10)
C35_10 C 0.1986(8) 0.6272(5) 0.64031(12)
H27_10 H 0.2179 0.5992 0.6408
H28_10 H 0.2276 0.6673 0.6327
H29_10 H 0.1924 0.6380 0.6548
C36_10 C 0.1319(6) 0.5912(4) 0.62889(10)
C37_10 C 0.1298(6) 0.6088(4) 0.60713(10)
H30_10 H 0.1700 0.6390 0.6008
C38_10 C 0.0730(6) 0.5850(4) 0.59429(9)
C39_10 C 0.0803(6) 0.6086(4) 0.57136(10)
C40_10 C 0.0375(6) 0.6273(4) 0.56262(11)
H31_10 H 0.0056 0.6281 0.5715
C41_10 C 0.0402(6) 0.6449(4) 0.54104(10)
H32_10 H 0.0111 0.6578 0.5356
C42_10 C 0.0870(6) 0.6427(4) 0.52810(10)
C43_10 C 0.1316(6) 0.6233(5) 0.53627(11)
H33_10 H 0.1627 0.6217 0.5273
C44_10 C 0.1285(7) 0.6067(5) 0.55796(11)
H34_10 H 0.1579 0.5945 0.5636
C45_10 C 0.1063(6) 0.7209(4) 0.49778(9)
H35_10 H 0.1116 0.7556 0.5066
C46_10 C 0.1013(6) 0.6643(4) 0.47000(9)
C47_10 C 0.1012(6) 0.6398(4) 0.44914(10)
H36_10 H 0.1089 0.6663 0.4371
C48_10 C 0.0900(6) 0.5775(4) 0.44715(12)
H37_10 H 0.0898 0.5611 0.4335
C49_10 C 0.0785(6) 0.5364(4) 0.46499(11)
H38_10 H 0.0705 0.4934 0.4630
C50_10 C 0.0789(6) 0.5593(4) 0.48599(12)
H39_10 H 0.0710 0.5323 0.4980
C51_10 C 0.0913(6) 0.6232(4) 0.48789(10)
H47_10 H 0.0001 0.3961 0.6850
N3_10 N 0.0492(4) 0.4383(3) 0.60715(7)
N4_10 N 0.0978(4) 0.4240(3) 0.57820(7)
N5_10 N 0.1108(4) 0.7251(3) 0.47686(7)
N6_10 N 0.0930(4) 0.6607(3) 0.50564(8)
O3_7 O 0.1965(3) 0.4134(2) 0.44406(6)
O4_7 O 0.1337(3) 0.3440(2) 0.48410(6)
O5_10 O 0.0839(4) 0.5474(2) 0.63923(6)
O6_10 O 0.0143(4) 0.5440(3) 0.59973(6)
Zn2_3 Zn 0.14434(6) 0.81734(4) 0.459320(9)
N9_7 N 0.1811(4) 0.9095(3) 0.44100(7)
O9_7 O 0.0739(5) 0.8327(4) 0.47469(6)
O10_7 O 0.0778(4) 0.7715(3) 0.43456(6)
O11_4 O 0.2169(4) 0.8035(3) 0.44406(6)
O12_4 O 0.2103(4) 0.8663(3) 0.48410(6)
Zn5_5 Zn 0.18266(4) 0.32700(7) 0.459320(9)
C1_10 C 0.7939(6) 0.4600(4) 0.80937(11)
H1_10 H 0.7468 0.4378 0.8070
H2_10 H 0.8111 0.4326 0.8042
H3_10 H 0.8029 0.4680 0.8245
C2_10 C 0.8263(6) 0.5243(4) 0.79757(9)
C3_10 C 0.8451(5) 0.5246(4) 0.77596(9)
H4_10 H 0.8353 0.4838 0.7702
C4_10 C 0.8769(4) 0.5796(3) 0.76231(9)
C5_10 C 0.8906(4) 0.5722(3) 0.73912(9)
C6_10 C 0.8698(6) 0.5109(4) 0.72956(10)
H5_10 H 0.8484 0.4728 0.7380
C7_10 C 0.8798(6) 0.5046(4) 0.70784(9)
H6_10 H 0.8664 0.4631 0.7019
C8_10 C 0.9101(6) 0.5612(4) 0.69530(9)
C9_10 C 0.9335(6) 0.6237(4) 0.70429(10)
H7_10 H 0.9561 0.6620 0.6961
C10_10 C 0.9215(6) 0.6267(4) 0.72619(10)
H8_10 H 0.9354 0.6681 0.7323
C11_10 C 0.9493(6) 0.5230(4) 0.66406(9)
H9_10 H 0.9718 0.5073 0.6724
C12_10 C 0.9072(6) 0.5465(4) 0.63725(10)
C13_10 C 0.8858(6) 0.5538(4) 0.61663(11)
H10_10 H 0.8972 0.5390 0.6043
C14_10 C 0.8479(6) 0.5831(4) 0.61542(12)
H11_10 H 0.8327 0.5878 0.6021
C15_10 C 0.8314(6) 0.6066(4) 0.63396(12)
H12_10 H 0.8060 0.6270 0.6325
C16_10 C 0.8515(6) 0.6002(4) 0.65442(11)
H13_10 H 0.8402 0.6153 0.6667
C17_10 C 0.8898(6) 0.5698(4) 0.65528(9)
C52_10 C 0.7922(8) 0.3339(5) 0.60767(12)
H40_10 H 0.7617 0.2927 0.6146
H41_10 H 0.7743 0.3632 0.6080
H42_10 H 0.7989 0.3255 0.5930
C53_10 C 0.8583(6) 0.3659(4) 0.61958(9)
C54_10 C 0.8581(6) 0.3464(4) 0.64134(9)
H43_10 H 0.8173 0.3149 0.6470
C55_10 C 0.9120(6) 0.3694(4) 0.65500(9)
C56_10 C 0.9034(4) 0.3480(3) 0.67791(9)
C57_10 C 0.8408(6) 0.3087(4) 0.68752(10)
H44_10 H 0.8026 0.2925 0.6792
C58_10 C 0.8355(6) 0.2940(4) 0.70932(10)
H45_10 H 0.7939 0.2677 0.7154
C59_10 C 0.8917(6) 0.3182(4) 0.72208(9)
C60_10 C 0.9521(6) 0.3534(4) 0.71291(10)
H46_10 H 0.9900 0.3669 0.7212
C61_10 C 0.9580(6) 0.3698(4) 0.69092(10)
C62_10 C 0.8530(6) 0.2433(4) 0.75329(9)
H48_10 H 0.8355 0.2047 0.7451
C63_10 C 0.8781(6) 0.3091(4) 0.78017(9)
C64_10 C 0.8856(6) 0.3386(4) 0.80037(10)
H49_10 H 0.8699 0.3130 0.8128
C65_10 C 0.9171(6) 0.4068(5) 0.80129(11)
H50_10 H 0.9229 0.4278 0.8145
C66_10 C 0.9399(6) 0.4437(4) 0.78297(12)
H51_10 H 0.9608 0.4897 0.7842
C67_10 C 0.9339(6) 0.4167(4) 0.76228(11)
H52_10 H 0.9497 0.4429 0.7500
C68_10 C 0.9027(6) 0.3479(4) 0.76156(10)
N1_10 N 0.9448(4) 0.5175(3) 0.64312(7)
N2_10 N 0.9178(4) 0.5540(3) 0.67258(7)
N7_4 N 0.8478(4) 0.2428(3) 0.77433(7)
N8_10 N 0.8855(4) 0.3041(3) 0.74461(7)
O1_4 O 0.8340(4) 0.5746(3) 0.80802(6)
O2_4 O 0.8952(3) 0.6397(2) 0.76789(6)
O7_10 O 0.9075(4) 0.4087(3) 0.60945(6)
O8_10 O 0.9718(3) 0.4096(2) 0.64956(6)
Zn1_10 Zn 0.99502(6) 0.47700(4) 0.624655(9)
Zn3_2 Zn 0.81101(6) 0.15067(4) 0.792653(9)
Zn4_3 Zn 0.84933(4) 0.66033(7) 0.792653(9)
C1_11 C 0.5400(4) 0.3339(7) 0.80937(11)
H1_11 H 0.5622 0.3090 0.8070
H2_11 H 0.5674 0.3785 0.8042
H3_11 H 0.5320 0.3349 0.8245
C2_11 C 0.4757(4) 0.3020(7) 0.79757(9)
C3_11 C 0.4754(4) 0.3205(6) 0.77596(9)
H4_11 H 0.5162 0.3515 0.7702
C4_11 C 0.4204(3) 0.2973(5) 0.76231(9)
C5_11 C 0.4278(3) 0.3184(5) 0.73912(9)
C6_11 C 0.4891(4) 0.3589(7) 0.72956(10)
H5_11 H 0.5272 0.3756 0.7380
C7_11 C 0.4954(4) 0.3752(7) 0.70784(9)
H6_11 H 0.5369 0.4033 0.7019
C8_11 C 0.4388(4) 0.3489(7) 0.69530(9)
C9_11 C 0.3763(4) 0.3098(7) 0.70429(10)
H7_11 H 0.3380 0.2941 0.6961
C10_11 C 0.3733(4) 0.2948(7) 0.72619(10)
H8_11 H 0.3319 0.2673 0.7323
C11_11 C 0.4770(4) 0.4263(7) 0.66406(9)
H9_11 H 0.4927 0.4645 0.6724
C12_11 C 0.4535(4) 0.3607(7) 0.63725(10)
C13_11 C 0.4462(4) 0.3320(7) 0.61663(11)
H10_11 H 0.4610 0.3582 0.6043
C14_11 C 0.4169(4) 0.2648(7) 0.61542(12)
H11_11 H 0.4122 0.2449 0.6021
C15_11 C 0.3934(4) 0.2248(7) 0.63396(12)
H12_11 H 0.3730 0.1790 0.6325
C16_11 C 0.3998(4) 0.2513(7) 0.65442(11)
H13_11 H 0.3847 0.2249 0.6667
C17_11 C 0.4302(4) 0.3200(7) 0.65528(9)
C18_11 C 0.4743(4) 0.6972(7) 0.44204(12)
H14_11 H 0.4825 0.6834 0.4284
H15_11 H 0.4446 0.6587 0.4503
H16_11 H 0.4547 0.7245 0.4399
C19_11 C 0.5399(4) 0.7367(7) 0.45420(10)
C20_11 C 0.5420(4) 0.7186(6) 0.47584(9)
H17_11 H 0.5025 0.6853 0.4818
C21_11 C 0.5978(4) 0.7459(7) 0.48912(9)
C22_11 C 0.5898(3) 0.7229(5) 0.51213(9)
C23_11 C 0.5389(4) 0.7198(7) 0.52486(10)
H18_11 H 0.5073 0.7281 0.5187
C24_11 C 0.5347(4) 0.7043(7) 0.54683(10)
H19_11 H 0.5016 0.7040 0.5554
C25_11 C 0.5800(4) 0.6897(7) 0.55570(9)
C26_11 C 0.6308(4) 0.6931(7) 0.54346(9)
H20_11 H 0.6618 0.6836 0.5495
C27_11 C 0.6349(4) 0.7111(7) 0.52175(9)
H21_11 H 0.6703 0.7151 0.5136
C28_11 C 0.5668(4) 0.6147(7) 0.58623(9)
H22_11 H 0.5645 0.5809 0.5776
C29_11 C 0.5669(4) 0.6708(7) 0.61369(9)
C30_11 C 0.5663(4) 0.6945(7) 0.63431(11)
H23_11 H 0.5625 0.6693 0.6465
C31_11 C 0.5716(4) 0.7562(7) 0.63629(11)
H24_11 H 0.5701 0.7724 0.6499
C32_11 C 0.5790(4) 0.7944(7) 0.61792(12)
H25_11 H 0.5817 0.8354 0.6197
C33_11 C 0.5824(4) 0.7735(7) 0.59733(11)
H26_11 H 0.5886 0.7998 0.5853
C34_11 C 0.5761(4) 0.7111(7) 0.59567(10)
C35_11 C 0.3728(5) 0.5714(9) 0.64031(12)
H27_11 H 0.4008 0.6187 0.6408
H28_11 H 0.3327 0.5603 0.6327
H29_11 H 0.3620 0.5544 0.6548
C36_11 C 0.4088(4) 0.5407(7) 0.62889(10)
C37_11 C 0.3912(4) 0.5210(7) 0.60713(10)
H30_11 H 0.3610 0.5310 0.6008
C38_11 C 0.4150(4) 0.4880(7) 0.59429(9)
C39_11 C 0.3914(4) 0.4717(7) 0.57136(10)
C40_11 C 0.3727(4) 0.4102(7) 0.56262(11)
H31_11 H 0.3719 0.3775 0.5715
C41_11 C 0.3551(4) 0.3953(7) 0.54104(10)
H32_11 H 0.3422 0.3533 0.5356
C42_11 C 0.3573(4) 0.4443(7) 0.52810(10)
C43_11 C 0.3767(5) 0.5083(8) 0.53627(11)
H33_11 H 0.3783 0.5410 0.5273
C44_11 C 0.3933(5) 0.5218(9) 0.55796(11)
H34_11 H 0.4055 0.5634 0.5636
C45_11 C 0.2791(4) 0.3854(7) 0.49778(9)
H35_11 H 0.2444 0.3560 0.5066
C46_11 C 0.3357(4) 0.4370(7) 0.47000(9)
C47_11 C 0.3602(4) 0.4614(7) 0.44914(10)
H36_11 H 0.3337 0.4426 0.4371
C48_11 C 0.4225(4) 0.5125(7) 0.44715(12)
H37_11 H 0.4389 0.5287 0.4335
C49_11 C 0.4636(4) 0.5421(7) 0.46499(11)
H38_11 H 0.5066 0.5771 0.4630
C50_11 C 0.4407(4) 0.5196(7) 0.48599(12)
H39_11 H 0.4677 0.5387 0.4980
C51_11 C 0.3768(4) 0.4681(7) 0.48789(10)
C52_11 C 0.6661(5) 0.4583(9) 0.60767(12)
H40_11 H 0.7073 0.4690 0.6146
H41_11 H 0.6368 0.4111 0.6080
H42_11 H 0.6745 0.4734 0.5930
C53_11 C 0.6341(4) 0.4924(7) 0.61958(9)
C54_11 C 0.6536(4) 0.5117(7) 0.64134(9)
H43_11 H 0.6851 0.5024 0.6470
C55_11 C 0.6306(4) 0.5426(7) 0.65500(9)
C56_11 C 0.6520(3) 0.5554(5) 0.67791(9)
C57_11 C 0.6913(4) 0.5321(7) 0.68752(10)
H44_11 H 0.7075 0.5101 0.6792
C58_11 C 0.7060(4) 0.5415(7) 0.70932(10)
H45_11 H 0.7323 0.5262 0.7154
C59_11 C 0.6818(4) 0.5735(7) 0.72208(9)
C60_11 C 0.6466(4) 0.5987(7) 0.71291(10)
H46_11 H 0.6331 0.6231 0.7212
C61_11 C 0.6302(4) 0.5882(7) 0.69092(10)
H47_11 H 0.6039 0.6040 0.6850
C62_11 C 0.7567(4) 0.6097(7) 0.75329(9)
H48_11 H 0.7953 0.6308 0.7451
C63_11 C 0.6909(4) 0.5690(7) 0.78017(9)
C64_11 C 0.6614(4) 0.5470(7) 0.80037(10)
H49_11 H 0.6870 0.5569 0.8128
C65_11 C 0.5932(5) 0.5103(8) 0.80129(11)
H50_11 H 0.5722 0.4951 0.8145
C66_11 C 0.5563(4) 0.4962(7) 0.78297(12)
H51_11 H 0.5103 0.4711 0.7842
C67_11 C 0.5833(4) 0.5172(7) 0.76228(11)
H52_11 H 0.5571 0.5068 0.7500
C68_11 C 0.6521(4) 0.5548(7) 0.76156(10)
N1_11 N 0.4825(3) 0.4273(5) 0.64312(7)
N2_11 N 0.4460(3) 0.3638(5) 0.67258(7)
N3_11 N 0.5617(3) 0.6109(5) 0.60715(7)
N4_11 N 0.5760(3) 0.6738(5) 0.57820(7)
N5_11 N 0.2749(3) 0.3857(5) 0.47686(7)
N6_11 N 0.3393(3) 0.4323(5) 0.50564(8)
N7_5 N 0.7572(3) 0.6050(5) 0.77433(7)
N8_11 N 0.6959(3) 0.5814(5) 0.74461(7)
O1_5 O 0.4254(3) 0.2594(5) 0.80802(6)
O2_5 O 0.3603(2) 0.2555(4) 0.76789(6)
O3_8 O 0.5866(2) 0.7831(4) 0.44406(6)
O4_8 O 0.6560(2) 0.7897(4) 0.48410(6)
O5_11 O 0.4526(2) 0.5365(4) 0.63923(6)
O6_11 O 0.4560(3) 0.4703(5) 0.59973(6)
O7_11 O 0.5913(3) 0.4988(5) 0.60945(6)
O8_11 O 0.5904(2) 0.5622(4) 0.64956(6)
Zn1_11 Zn 0.52300(4) 0.51802(7) 0.624655(9)
N9_8 N 0.0905(3) 0.2717(5) 0.44100(7)
O9_8 O 0.1673(4) 0.2413(6) 0.47469(6)
O10_8 O 0.2285(3) 0.3064(5) 0.43456(6)
Zn4_4 Zn 0.33967(7) 0.18899(8) 0.792653(9)
Zn5_6 Zn 0.67300(7) 0.85566(8) 0.459320(9)
C1_12 C 0.6661(7) 0.2061(6) 0.80937(11)
H1_12 H 0.6910 0.2532 0.8070
H2_12 H 0.6215 0.1889 0.8042
H3_12 H 0.6651 0.1971 0.8245
C2_12 C 0.6980(7) 0.1737(6) 0.79757(9)
C3_12 C 0.6795(6) 0.1549(5) 0.77596(9)
H4_12 H 0.6485 0.1647 0.7702
C4_12 C 0.7027(5) 0.1231(4) 0.76231(9)
C5_12 C 0.6816(5) 0.1094(4) 0.73912(9)
C6_12 C 0.6411(7) 0.1302(6) 0.72956(10)
H5_12 H 0.6244 0.1516 0.7380
C7_12 C 0.6248(7) 0.1202(6) 0.70784(9)
H6_12 H 0.5967 0.1336 0.7019
C8_12 C 0.6511(7) 0.0899(6) 0.69530(9)
C9_12 C 0.6902(7) 0.0665(6) 0.70429(10)
H7_12 H 0.7059 0.0439 0.6961
C10_12 C 0.7052(7) 0.0785(6) 0.72619(10)
H8_12 H 0.7327 0.0646 0.7323
C11_12 C 0.5737(7) 0.0507(6) 0.66406(9)
H9_12 H 0.5355 0.0282 0.6724
C12_12 C 0.6393(7) 0.0928(6) 0.63725(10)
C13_12 C 0.6680(7) 0.1142(6) 0.61663(11)
H10_12 H 0.6418 0.1028 0.6043
C14_12 C 0.7352(7) 0.1521(6) 0.61542(12)
H11_12 H 0.7551 0.1673 0.6021
C15_12 C 0.7752(7) 0.1686(6) 0.63396(12)
H12_12 H 0.8210 0.1940 0.6325
C16_12 C 0.7487(7) 0.1485(6) 0.65442(11)
H13_12 H 0.7751 0.1598 0.6667
C17_12 C 0.6800(7) 0.1102(6) 0.65528(9)
C52_12 C 0.5417(9) 0.2078(8) 0.60767(12)
H40_12 H 0.5310 0.2383 0.6146
H41_12 H 0.5889 0.2257 0.6080
H42_12 H 0.5266 0.2011 0.5930
C53_12 C 0.5076(7) 0.1417(6) 0.61958(9)
C54_12 C 0.4883(7) 0.1419(6) 0.64134(9)
H43_12 H 0.4976 0.1827 0.6470
C55_12 C 0.4574(7) 0.0880(6) 0.65500(9)
C56_12 C 0.4446(5) 0.0966(4) 0.67791(9)
C57_12 C 0.4679(7) 0.1592(6) 0.68752(10)
H44_12 H 0.4899 0.1974 0.6792
C58_12 C 0.4585(7) 0.1645(6) 0.70932(10)
H45_12 H 0.4738 0.2061 0.7154
C59_12 C 0.4265(7) 0.1083(6) 0.72208(9)
C60_12 C 0.4013(7) 0.0479(6) 0.71291(10)
H46_12 H 0.3769 0.0100 0.7212
C61_12 C 0.4118(7) 0.0420(6) 0.69092(10)
C62_12 C 0.3903(7) 0.1470(6) 0.75329(9)
H48_12 H 0.3692 0.1645 0.7451
C63_12 C 0.4310(7) 0.1219(6) 0.78017(9)
C64_12 C 0.4530(7) 0.1144(6) 0.80037(10)
H49_12 H 0.4431 0.1301 0.8128
C65_12 C 0.4897(8) 0.0829(6) 0.80129(11)
H50_12 H 0.5049 0.0771 0.8145
C66_12 C 0.5038(7) 0.0601(6) 0.78297(12)
H51_12 H 0.5289 0.0392 0.7842
C67_12 C 0.4828(7) 0.0661(6) 0.76228(11)
H52_12 H 0.4932 0.0503 0.7500
C68_12 C 0.4452(7) 0.0973(6) 0.76156(10)
N1_12 N 0.5727(5) 0.0552(4) 0.64312(7)
N2_12 N 0.6362(5) 0.0822(4) 0.67258(7)
N7_6 N 0.3950(5) 0.1522(4) 0.77433(7)
N8_12 N 0.4186(5) 0.1145(4) 0.74461(7)
O1_6 O 0.7406(5) 0.1660(4) 0.80802(6)
O2_6 O 0.7445(4) 0.1048(3) 0.76789(6)
O7_12 O 0.5012(5) 0.0925(4) 0.60945(6)
O8_12 O 0.4378(4) 0.0282(3) 0.64956(6)
Zn1_12 Zn 0.48198(7) 0.00498(6) 0.624655(9)
C18_12 C 0.3028(7) 0.7771(6) 0.44204(12)
H14_12 H 0.3166 0.7991 0.4284
H15_12 H 0.3413 0.7859 0.4503
H16_12 H 0.2755 0.7302 0.4399
C19_12 C 0.2633(7) 0.8032(6) 0.45420(10)
C20_12 C 0.2814(6) 0.8234(5) 0.47584(9)
H17_12 H 0.3147 0.8172 0.4818
C21_12 C 0.2541(7) 0.8519(6) 0.48912(9)
C22_12 C 0.2771(5) 0.8669(4) 0.51213(9)
C23_12 C 0.2802(7) 0.8191(6) 0.52486(10)
H18_12 H 0.2719 0.7792 0.5187
C24_12 C 0.2957(7) 0.8304(6) 0.54683(10)
H19_12 H 0.2960 0.7976 0.5554
C25_12 C 0.3103(7) 0.8903(6) 0.55570(9)
C26_12 C 0.3069(7) 0.9377(6) 0.54346(9)
H20_12 H 0.3164 0.9782 0.5495
C27_12 C 0.2889(7) 0.9238(6) 0.52175(9)
H21_12 H 0.2849 0.9552 0.5136
C28_12 C 0.3853(7) 0.9521(6) 0.58623(9)
H22_12 H 0.4191 0.9836 0.5776
C29_12 C 0.3292(7) 0.8961(6) 0.61369(9)
C30_12 C 0.3055(7) 0.8718(6) 0.63431(11)
H23_12 H 0.3307 0.8932 0.6465
C31_12 C 0.2438(7) 0.8154(6) 0.63629(11)
H24_12 H 0.2276 0.7977 0.6499
C32_12 C 0.2056(7) 0.7846(6) 0.61792(12)
H25_12 H 0.1646 0.7463 0.6197
C33_12 C 0.2265(7) 0.8089(6) 0.59733(11)
H26_12 H 0.2002 0.7888 0.5853
C34_12 C 0.2889(7) 0.8650(6) 0.59567(10)
C35_12 C 0.4286(9) 0.8014(8) 0.64031(12)
H27_12 H 0.3813 0.7821 0.6408
H28_12 H 0.4397 0.7724 0.6327
H29_12 H 0.4456 0.8076 0.6548
C36_12 C 0.4593(7) 0.8681(6) 0.62889(10)
C37_12 C 0.4790(7) 0.8702(6) 0.60713(10)
H30_12 H 0.4690 0.8300 0.6008
C38_12 C 0.5120(7) 0.9270(6) 0.59429(9)
C39_12 C 0.5283(7) 0.9197(6) 0.57136(10)
C40_12 C 0.5898(7) 0.9625(6) 0.56262(11)
H31_12 H 0.6225 0.9944 0.5715
C41_12 C 0.6047(7) 0.9598(6) 0.54104(10)
H32_12 H 0.6467 0.9889 0.5356
C42_12 C 0.5557(7) 0.9130(6) 0.52810(10)
C43_12 C 0.4917(8) 0.8684(6) 0.53627(11)
H33_12 H 0.4590 0.8373 0.5273
C44_12 C 0.4782(9) 0.8715(7) 0.55796(11)
H34_12 H 0.4366 0.8421 0.5636
C45_12 C 0.6146(7) 0.8937(6) 0.49778(9)
H35_12 H 0.6440 0.8884 0.5066
C46_12 C 0.5630(7) 0.8987(6) 0.47000(9)
C47_12 C 0.5386(7) 0.8988(6) 0.44914(10)
H36_12 H 0.5574 0.8911 0.4371
C48_12 C 0.4875(7) 0.9100(6) 0.44715(12)
H37_12 H 0.4713 0.9102 0.4335
C49_12 C 0.4579(7) 0.9215(6) 0.46499(11)
H38_12 H 0.4229 0.9295 0.4630
C50_12 C 0.4804(7) 0.9211(6) 0.48599(12)
H39_12 H 0.4613 0.9290 0.4980
C51_12 C 0.5319(7) 0.9087(6) 0.48789(10)
H47_12 H 0.3960 0.9999 0.6850
N3_12 N 0.3891(5) 0.9508(4) 0.60715(7)
N4_12 N 0.3262(5) 0.9022(4) 0.57820(7)
N5_12 N 0.6143(5) 0.8892(4) 0.47686(7)
N6_12 N 0.5677(5) 0.9070(4) 0.50564(8)
O5_12 O 0.4635(4) 0.9161(4) 0.63923(6)
O6_12 O 0.5297(5) 0.9857(4) 0.59973(6)
N9_9 N 0.7283(5) 0.8189(4) 0.44100(7)
O9_9 O 0.7587(6) 0.9261(5) 0.47469(6)
O10_9 O 0.6936(5) 0.9222(4) 0.43456(6)
C1_13 C 0.1272(6) 0.1267(4) 0.47604(11)
H1_13 H 0.0801 0.1045 0.4737
H2_13 H 0.1444 0.0993 0.4709
H3_13 H 0.1362 0.1347 0.4912
C2_13 C 0.1596(6) 0.1910(4) 0.46424(9)
C3_13 C 0.1784(5) 0.1913(4) 0.44263(9)
H4_13 H 0.1686 0.1505 0.4369
C4_13 C 0.2102(4) 0.2463(3) 0.42898(9)
C5_13 C 0.2239(4) 0.2389(3) 0.40579(9)
C6_13 C 0.2031(6) 0.1776(4) 0.39623(10)
H5_13 H 0.1817 0.1395 0.4047
C7_13 C 0.2131(6) 0.1713(4) 0.37451(9)
H6_13 H 0.1997 0.1298 0.3686
C8_13 C 0.2434(6) 0.2279(4) 0.36197(9)
C9_13 C 0.2668(6) 0.2904(4) 0.37096(10)
H7_13 H 0.2894 0.3287 0.3628
C10_13 C 0.2548(6) 0.2934(4) 0.39286(10)
H8_13 H 0.2687 0.3348 0.3990
C11_13 C 0.2826(6) 0.1897(4) 0.33073(9)
H9_13 H 0.3051 0.1740 0.3391
C12_13 C 0.2405(6) 0.2132(4) 0.30392(10)
C13_13 C 0.2191(6) 0.2205(4) 0.28330(11)
H10_13 H 0.2305 0.2057 0.2710
C14_13 C 0.1812(6) 0.2498(4) 0.28209(12)
H11_13 H 0.1660 0.2545 0.2688
C15_13 C 0.1647(6) 0.2733(4) 0.30063(12)
H12_13 H 0.1393 0.2937 0.2992
C16_13 C 0.1848(6) 0.2669(4) 0.32109(11)
H13_13 H 0.1735 0.2820 0.3334
C17_13 C 0.2231(6) 0.2365(4) 0.32195(9)
C18_13 C 0.5562(6) 0.1924(4) 0.10871(12)
H14_13 H 0.5342 0.1842 0.0951
H15_13 H 0.5474 0.2221 0.1170
H16_13 H 0.6031 0.2120 0.1066
C19_13 C 0.5301(6) 0.1268(4) 0.12087(10)
C20_13 C 0.5099(5) 0.1247(4) 0.14251(9)
H17_13 H 0.5161 0.1642 0.1485
C21_13 C 0.4814(6) 0.0689(4) 0.15579(9)
C22_13 C 0.4664(4) 0.0769(3) 0.17880(9)
C23_13 C 0.5142(6) 0.1278(4) 0.19153(10)
H18_13 H 0.5541 0.1594 0.1854
C24_13 C 0.5029(6) 0.1320(4) 0.21350(10)
H19_13 H 0.5357 0.1651 0.2221
C25_13 C 0.4430(6) 0.0867(4) 0.22237(9)
C26_13 C 0.3956(6) 0.0359(4) 0.21013(9)
H20_13 H 0.3551 0.0049 0.2162
C27_13 C 0.4095(6) 0.0318(4) 0.18842(9)
C28_13 C 0.3812(6) 0.0999(4) 0.25290(9)
H22_13 H 0.3497 0.1022 0.2443
C29_13 C 0.4372(6) 0.0998(4) 0.28036(9)
C30_13 C 0.4615(6) 0.1004(4) 0.30098(11)
H23_13 H 0.4401 0.1042 0.3132
C31_13 C 0.5179(6) 0.0951(4) 0.30296(11)
H24_13 H 0.5356 0.0966 0.3166
C32_13 C 0.5487(6) 0.0877(4) 0.28459(12)
H25_13 H 0.5870 0.0850 0.2864
C33_13 C 0.5244(6) 0.0843(4) 0.26400(11)
H26_13 H 0.5445 0.0781 0.2520
C34_13 C 0.4683(6) 0.0906(4) 0.26234(10)
C35_13 C 0.5319(8) 0.2939(5) 0.30698(12)
H27_13 H 0.5512 0.2659 0.3075
H28_13 H 0.5609 0.3340 0.2994
H29_13 H 0.5257 0.3047 0.3215
C36_13 C 0.4652(6) 0.2579(4) 0.29556(10)
C37_13 C 0.4631(6) 0.2755(4) 0.27380(10)
H30_13 H 0.5033 0.3057 0.2675
C38_13 C 0.4063(6) 0.2517(4) 0.26096(9)
C39_13 C 0.4136(6) 0.2753(4) 0.23803(10)
C40_13 C 0.3708(6) 0.2940(4) 0.22929(11)
H31_13 H 0.3389 0.2948 0.2382
C41_13 C 0.3735(6) 0.3116(4) 0.20771(10)
H32_13 H 0.3444 0.3245 0.2023
C42_13 C 0.4203(6) 0.3094(4) 0.19477(10)
C43_13 C 0.4649(6) 0.2900(5) 0.20294(11)
H33_13 H 0.4960 0.2884 0.1940
C44_13 C 0.4618(7) 0.2734(5) 0.22463(11)
H34_13 H 0.4912 0.2612 0.2303
C45_13 C 0.4396(6) 0.3876(4) 0.16445(9)
H35_13 H 0.4449 0.4223 0.1733
C46_13 C 0.4346(6) 0.3310(4) 0.13667(9)
C47_13 C 0.4345(6) 0.3065(4) 0.11581(10)
H36_13 H 0.4422 0.3330 0.1038
C48_13 C 0.4233(6) 0.2442(4) 0.11382(12)
H37_13 H 0.4231 0.2278 0.1002
C49_13 C 0.4118(6) 0.2031(4) 0.13166(11)
H38_13 H 0.4038 0.1601 0.1297
C50_13 C 0.4122(6) 0.2260(4) 0.15266(12)
H39_13 H 0.4043 0.1990 0.1647
C51_13 C 0.4246(6) 0.2899(4) 0.15456(10)
C52_13 C 0.1255(8) 0.0006(5) 0.27434(12)
H41_13 H 0.1076 0.0299 0.2747
C53_13 C 0.1916(6) 0.0326(4) 0.28625(9)
C54_13 C 0.1914(6) 0.0131(4) 0.30801(9)
C55_13 C 0.2453(6) 0.0361(4) 0.32167(9)
C56_13 C 0.2367(4) 0.0147(3) 0.34458(9)
C60_13 C 0.2854(6) 0.0201(4) 0.37958(10)
H46_13 H 0.3233 0.0336 0.3879
C61_13 C 0.2913(6) 0.0365(4) 0.35759(10)
H47_13 H 0.3334 0.0628 0.3517
C64_13 C 0.2189(6) 0.0053(4) 0.46704(10)
C65_13 C 0.2504(6) 0.0735(5) 0.46796(11)
H50_13 H 0.2562 0.0945 0.4812
C66_13 C 0.2732(6) 0.1104(4) 0.44964(12)
H51_13 H 0.2941 0.1564 0.4509
C67_13 C 0.2672(6) 0.0834(4) 0.42895(11)
H52_13 H 0.2830 0.1096 0.4167
C68_13 C 0.2360(6) 0.0146(4) 0.42823(10)
N1_13 N 0.2781(4) 0.1842(3) 0.30979(7)
N2_13 N 0.2511(4) 0.2207(3) 0.33925(7)
N3_13 N 0.3825(4) 0.1050(3) 0.27382(7)
N4_13 N 0.4311(4) 0.0907(3) 0.24487(7)
N5_13 N 0.4441(4) 0.3918(3) 0.14353(7)
N6_13 N 0.4263(4) 0.3274(3) 0.17231(8)
O3_9 O 0.5298(3) 0.0801(2) 0.11073(6)
O4_9 O 0.4670(3) 0.0107(2) 0.15077(6)
O5_13 O 0.4172(4) 0.2141(2) 0.30590(6)
O6_13 O 0.3476(4) 0.2107(3) 0.26640(6)
O7_13 O 0.2408(4) 0.0754(3) 0.27612(6)
O8_13 O 0.3051(3) 0.0763(2) 0.31623(6)
Zn1_13 Zn 0.32835(6) 0.14367(4) 0.291322(9)
Zn2_4 Zn 0.47767(6) 0.48401(4) 0.125987(9)
N9_10 N 0.5145(4) 0.5761(3) 0.10766(7)
O9_10 O 0.4073(5) 0.4993(4) 0.14135(6)
O10_10 O 0.4112(4) 0.4381(3) 0.10122(6)
O11_5 O 0.5502(4) 0.4702(3) 0.11073(6)
O12_5 O 0.5436(4) 0.5330(3) 0.15077(6)
H21_13 H 0.3781 0.9964 0.1803
H40_13 H 0.0950 0.9594 0.2813
H42_13 H 0.1322 0.9922 0.2597
H43_13 H 0.1506 0.9816 0.3137
C57_13 C 0.1741(6) 0.9754(4) 0.35419(10)
H44_13 H 0.1359 0.9592 0.3459
C58_13 C 0.1688(6) 0.9607(4) 0.37599(10)
H45_13 H 0.1272 0.9344 0.3821
C59_13 C 0.2250(6) 0.9849(4) 0.38875(9)
C62_13 C 0.1863(6) 0.9100(4) 0.41996(9)
H48_13 H 0.1688 0.8714 0.4118
C63_13 C 0.2114(6) 0.9758(4) 0.44684(9)
H49_13 H 0.2032 0.9797 0.4795
N8_13 N 0.2188(4) 0.9708(3) 0.41128(7)
Zn5_7 Zn 0.51599(4) 0.99367(7) 0.125987(9)
H21_14 H 0.0036 0.3818 0.1803
H40_14 H 0.0406 0.1357 0.2813
H42_14 H 0.0078 0.1401 0.2597
H43_14 H 0.0184 0.1691 0.3137
C57_14 C 0.0246(4) 0.1988(7) 0.35419(10)
H44_14 H 0.0408 0.1768 0.3459
C58_14 C 0.0393(4) 0.2082(7) 0.37599(10)
H45_14 H 0.0656 0.1929 0.3821
C59_14 C 0.0151(4) 0.2402(7) 0.38875(9)
C62_14 C 0.0900(4) 0.2764(7) 0.41996(9)
H48_14 H 0.1286 0.2975 0.4118
C63_14 C 0.0242(4) 0.2357(7) 0.44684(9)
H49_14 H 0.0203 0.2236 0.4795
N8_14 N 0.0292(3) 0.2481(5) 0.41128(7)
Zn5_8 Zn 0.00633(7) 0.52233(8) 0.125987(9)
C1_14 C 0.8733(4) 0.0006(7) 0.47604(11)
H2_14 H 0.9007 0.0452 0.4709
H3_14 H 0.8653 0.0016 0.4912
H4_14 H 0.8495 0.0182 0.4369
C6_14 C 0.8224(4) 0.0256(7) 0.39623(10)
H5_14 H 0.8605 0.0423 0.4047
C7_14 C 0.8287(4) 0.0419(7) 0.37451(9)
H6_14 H 0.8702 0.0700 0.3686
C8_14 C 0.7721(4) 0.0156(7) 0.36197(9)
C11_14 C 0.8103(4) 0.0930(7) 0.33073(9)
H9_14 H 0.8260 0.1312 0.3391
C12_14 C 0.7868(4) 0.0274(7) 0.30392(10)
H10_14 H 0.7943 0.0249 0.2710
C18_14 C 0.8076(4) 0.3639(7) 0.10871(12)
H14_14 H 0.8158 0.3501 0.0951
H15_14 H 0.7779 0.3254 0.1170
H16_14 H 0.7880 0.3912 0.1066
C19_14 C 0.8732(4) 0.4034(7) 0.12087(10)
C20_14 C 0.8753(4) 0.3853(6) 0.14251(9)
H17_14 H 0.8358 0.3520 0.1485
C21_14 C 0.9311(4) 0.4126(7) 0.15579(9)
C22_14 C 0.9231(3) 0.3896(5) 0.17880(9)
C23_14 C 0.8722(4) 0.3865(7) 0.19153(10)
H18_14 H 0.8406 0.3948 0.1854
C24_14 C 0.8680(4) 0.3710(7) 0.21350(10)
H19_14 H 0.8349 0.3707 0.2221
C25_14 C 0.9133(4) 0.3564(7) 0.22237(9)
C26_14 C 0.9641(4) 0.3598(7) 0.21013(9)
H20_14 H 0.9951 0.3503 0.2162
C27_14 C 0.9682(4) 0.3778(7) 0.18842(9)
C28_14 C 0.9001(4) 0.2814(7) 0.25290(9)
H22_14 H 0.8978 0.2476 0.2443
C29_14 C 0.9002(4) 0.3375(7) 0.28036(9)
C30_14 C 0.8996(4) 0.3612(7) 0.30098(11)
H23_14 H 0.8958 0.3360 0.3132
C31_14 C 0.9049(4) 0.4229(7) 0.30296(11)
H24_14 H 0.9034 0.4391 0.3166
C32_14 C 0.9123(4) 0.4611(7) 0.28459(12)
H25_14 H 0.9150 0.5021 0.2864
C33_14 C 0.9157(4) 0.4402(7) 0.26400(11)
H26_14 H 0.9219 0.4665 0.2520
C34_14 C 0.9094(4) 0.3778(7) 0.26234(10)
C35_14 C 0.7061(5) 0.2381(9) 0.30698(12)
H27_14 H 0.7341 0.2854 0.3075
H28_14 H 0.6660 0.2270 0.2994
H29_14 H 0.6953 0.2211 0.3215
C36_14 C 0.7421(4) 0.2074(7) 0.29556(10)
C37_14 C 0.7245(4) 0.1877(7) 0.27380(10)
H30_14 H 0.6943 0.1977 0.2675
C38_14 C 0.7483(4) 0.1547(7) 0.26096(9)
C39_14 C 0.7247(4) 0.1384(7) 0.23803(10)
C40_14 C 0.7060(4) 0.0769(7) 0.22929(11)
H31_14 H 0.7052 0.0442 0.2382
C41_14 C 0.6884(4) 0.0620(7) 0.20771(10)
H32_14 H 0.6755 0.0200 0.2023
C42_14 C 0.6906(4) 0.1110(7) 0.19477(10)
C43_14 C 0.7100(5) 0.1750(8) 0.20294(11)
H33_14 H 0.7116 0.2077 0.1940
C44_14 C 0.7266(5) 0.1885(9) 0.22463(11)
H34_14 H 0.7388 0.2301 0.2303
C45_14 C 0.6124(4) 0.0521(7) 0.16445(9)
H35_14 H 0.5777 0.0227 0.1733
C46_14 C 0.6690(4) 0.1037(7) 0.13667(9)
C47_14 C 0.6935(4) 0.1281(7) 0.11581(10)
H36_14 H 0.6670 0.1093 0.1038
C48_14 C 0.7558(4) 0.1792(7) 0.11382(12)
H37_14 H 0.7722 0.1954 0.1002
C49_14 C 0.7969(4) 0.2088(7) 0.13166(11)
H38_14 H 0.8399 0.2438 0.1297
C50_14 C 0.7740(4) 0.1863(7) 0.15266(12)
H39_14 H 0.8010 0.2054 0.1647
C51_14 C 0.7101(4) 0.1348(7) 0.15456(10)
C52_14 C 0.9994(5) 0.1250(9) 0.27434(12)
H41_14 H 0.9701 0.0778 0.2747
C53_14 C 0.9674(4) 0.1591(7) 0.28625(9)
C54_14 C 0.9869(4) 0.1784(7) 0.30801(9)
C55_14 C 0.9639(4) 0.2093(7) 0.32167(9)
C56_14 C 0.9853(3) 0.2221(5) 0.34458(9)
C60_14 C 0.9799(4) 0.2654(7) 0.37958(10)
H46_14 H 0.9664 0.2898 0.3879
C61_14 C 0.9635(4) 0.2549(7) 0.35759(10)
H47_14 H 0.9372 0.2707 0.3517
C64_14 C 0.9947(4) 0.2137(7) 0.46704(10)
C65_14 C 0.9265(5) 0.1770(8) 0.46796(11)
H50_14 H 0.9055 0.1618 0.4812
C66_14 C 0.8896(4) 0.1629(7) 0.44964(12)
H51_14 H 0.8436 0.1378 0.4509
C67_14 C 0.9166(4) 0.1839(7) 0.42895(11)
H52_14 H 0.8904 0.1735 0.4167
C68_14 C 0.9854(4) 0.2215(7) 0.42823(10)
N1_14 N 0.8158(3) 0.0940(5) 0.30979(7)
N2_14 N 0.7793(3) 0.0305(5) 0.33925(7)
N3_14 N 0.8950(3) 0.2776(5) 0.27382(7)
N4_14 N 0.9093(3) 0.3405(5) 0.24487(7)
N5_14 N 0.6082(3) 0.0524(5) 0.14353(7)
N6_14 N 0.6726(3) 0.0990(5) 0.17231(8)
O3_10 O 0.9199(2) 0.4498(4) 0.11073(6)
O4_10 O 0.9893(2) 0.4564(4) 0.15077(6)
O5_14 O 0.7859(2) 0.2032(4) 0.30590(6)
O6_14 O 0.7893(3) 0.1370(5) 0.26640(6)
O7_14 O 0.9246(3) 0.1655(5) 0.27612(6)
O8_14 O 0.9237(2) 0.2289(4) 0.31623(6)
Zn1_14 Zn 0.85633(4) 0.18469(7) 0.291322(9)
H1_14 H 0.8955 0.9757 0.4737
C2_14 C 0.8090(4) 0.9687(7) 0.46424(9)
C3_14 C 0.8087(4) 0.9872(6) 0.44263(9)
C4_14 C 0.7537(3) 0.9640(5) 0.42898(9)
C5_14 C 0.7611(3) 0.9851(5) 0.40579(9)
C9_14 C 0.7096(4) 0.9765(7) 0.37096(10)
H7_14 H 0.6713 0.9608 0.3628
C10_14 C 0.7066(4) 0.9615(7) 0.39286(10)
H8_14 H 0.6652 0.9340 0.3990
C13_14 C 0.7795(4) 0.9987(7) 0.28330(11)
C14_14 C 0.7502(4) 0.9315(7) 0.28209(12)
H11_14 H 0.7455 0.9116 0.2688
C15_14 C 0.7267(4) 0.8915(7) 0.30063(12)
H12_14 H 0.7063 0.8457 0.2992
C16_14 C 0.7331(4) 0.9180(7) 0.32109(11)
H13_14 H 0.7180 0.8916 0.3334
C17_14 C 0.7635(4) 0.9867(7) 0.32195(9)
N9_11 N 0.4239(3) 0.9383(5) 0.10766(7)
O9_11 O 0.5007(4) 0.9079(6) 0.14135(6)
O10_11 O 0.5619(3) 0.9730(5) 0.10122(6)
H1_15 H 0.0243 0.9199 0.4737
C2_15 C 0.0313(7) 0.8404(6) 0.46424(9)
C3_15 C 0.0128(6) 0.8216(5) 0.44263(9)
C4_15 C 0.0360(5) 0.7898(4) 0.42898(9)
C5_15 C 0.0149(5) 0.7761(4) 0.40579(9)
C9_15 C 0.0235(7) 0.7332(6) 0.37096(10)
H7_15 H 0.0392 0.7106 0.3628
C10_15 C 0.0385(7) 0.7452(6) 0.39286(10)
H8_15 H 0.0660 0.7313 0.3990
C13_15 C 0.0013(7) 0.7809(6) 0.28330(11)
C14_15 C 0.0685(7) 0.8188(6) 0.28209(12)
H11_15 H 0.0884 0.8340 0.2688
C15_15 C 0.1085(7) 0.8353(6) 0.30063(12)
H12_15 H 0.1543 0.8607 0.2992
C16_15 C 0.0820(7) 0.8152(6) 0.32109(11)
H13_15 H 0.1084 0.8265 0.3334
C17_15 C 0.0133(7) 0.7769(6) 0.32195(9)
N9_12 N 0.0617(5) 0.4855(4) 0.10766(7)
O9_12 O 0.0921(6) 0.5927(5) 0.14135(6)
O10_12 O 0.0270(5) 0.5888(4) 0.10122(6)
C1_15 C 0.9994(7) 0.8728(6) 0.47604(11)
H2_15 H 0.9548 0.8556 0.4709
H3_15 H 0.9984 0.8638 0.4912
H4_15 H 0.9818 0.8314 0.4369
C6_15 C 0.9744(7) 0.7969(6) 0.39623(10)
H5_15 H 0.9577 0.8183 0.4047
C7_15 C 0.9581(7) 0.7869(6) 0.37451(9)
H6_15 H 0.9300 0.8003 0.3686
C8_15 C 0.9844(7) 0.7566(6) 0.36197(9)
C11_15 C 0.9070(7) 0.7174(6) 0.33073(9)
H9_15 H 0.8688 0.6949 0.3391
C12_15 C 0.9726(7) 0.7595(6) 0.30392(10)
H10_15 H 0.9751 0.7695 0.2710
C18_15 C 0.6361(7) 0.4438(6) 0.10871(12)
H14_15 H 0.6499 0.4658 0.0951
H15_15 H 0.6746 0.4526 0.1170
H16_15 H 0.6088 0.3969 0.1066
C19_15 C 0.5966(7) 0.4699(6) 0.12087(10)
C20_15 C 0.6147(6) 0.4901(5) 0.14251(9)
H17_15 H 0.6480 0.4839 0.1485
C21_15 C 0.5874(7) 0.5186(6) 0.15579(9)
C22_15 C 0.6104(5) 0.5336(4) 0.17880(9)
C23_15 C 0.6135(7) 0.4858(6) 0.19153(10)
H18_15 H 0.6052 0.4459 0.1854
C24_15 C 0.6290(7) 0.4971(6) 0.21350(10)
H19_15 H 0.6293 0.4643 0.2221
C25_15 C 0.6436(7) 0.5570(6) 0.22237(9)
C26_15 C 0.6402(7) 0.6044(6) 0.21013(9)
H20_15 H 0.6497 0.6449 0.2162
C27_15 C 0.6222(7) 0.5905(6) 0.18842(9)
H21_15 H 0.6182 0.6219 0.1803
C28_15 C 0.7186(7) 0.6188(6) 0.25290(9)
H22_15 H 0.7524 0.6503 0.2443
C29_15 C 0.6625(7) 0.5628(6) 0.28036(9)
C30_15 C 0.6388(7) 0.5385(6) 0.30098(11)
H23_15 H 0.6640 0.5599 0.3132
C31_15 C 0.5771(7) 0.4821(6) 0.30296(11)
H24_15 H 0.5609 0.4644 0.3166
C32_15 C 0.5389(7) 0.4513(6) 0.28459(12)
H25_15 H 0.4979 0.4130 0.2864
C33_15 C 0.5598(7) 0.4756(6) 0.26400(11)
H26_15 H 0.5335 0.4555 0.2520
C34_15 C 0.6222(7) 0.5317(6) 0.26234(10)
C35_15 C 0.7619(9) 0.4681(8) 0.30698(12)
H27_15 H 0.7146 0.4488 0.3075
H28_15 H 0.7730 0.4391 0.2994
H29_15 H 0.7789 0.4743 0.3215
C36_15 C 0.7926(7) 0.5348(6) 0.29556(10)
C37_15 C 0.8123(7) 0.5369(6) 0.27380(10)
H30_15 H 0.8023 0.4967 0.2675
C38_15 C 0.8453(7) 0.5937(6) 0.26096(9)
C39_15 C 0.8616(7) 0.5864(6) 0.23803(10)
C40_15 C 0.9231(7) 0.6292(6) 0.22929(11)
H31_15 H 0.9558 0.6611 0.2382
C41_15 C 0.9380(7) 0.6265(6) 0.20771(10)
H32_15 H 0.9800 0.6556 0.2023
C42_15 C 0.8890(7) 0.5797(6) 0.19477(10)
C43_15 C 0.8250(8) 0.5351(6) 0.20294(11)
H33_15 H 0.7923 0.5040 0.1940
C44_15 C 0.8115(9) 0.5382(7) 0.22463(11)
H34_15 H 0.7699 0.5088 0.2303
C45_15 C 0.9479(7) 0.5604(6) 0.16445(9)
H35_15 H 0.9773 0.5551 0.1733
C46_15 C 0.8963(7) 0.5654(6) 0.13667(9)
C47_15 C 0.8719(7) 0.5655(6) 0.11581(10)
H36_15 H 0.8907 0.5578 0.1038
C48_15 C 0.8208(7) 0.5767(6) 0.11382(12)
H37_15 H 0.8046 0.5769 0.1002
C49_15 C 0.7912(7) 0.5882(6) 0.13166(11)
H38_15 H 0.7562 0.5962 0.1297
C50_15 C 0.8137(7) 0.5878(6) 0.15266(12)
H39_15 H 0.7946 0.5957 0.1647
C51_15 C 0.8652(7) 0.5754(6) 0.15456(10)
C52_15 C 0.8750(9) 0.8745(8) 0.27434(12)
H40_15 H 0.8643 0.9050 0.2813
H41_15 H 0.9222 0.8924 0.2747
H42_15 H 0.8599 0.8678 0.2597
C53_15 C 0.8409(7) 0.8084(6) 0.28625(9)
C54_15 C 0.8216(7) 0.8086(6) 0.30801(9)
H43_15 H 0.8309 0.8494 0.3137
C55_15 C 0.7907(7) 0.7547(6) 0.32167(9)
C56_15 C 0.7779(5) 0.7633(4) 0.34458(9)
C57_15 C 0.8012(7) 0.8259(6) 0.35419(10)
H44_15 H 0.8232 0.8641 0.3459
C58_15 C 0.7918(7) 0.8312(6) 0.37599(10)
H45_15 H 0.8071 0.8728 0.3821
C59_15 C 0.7598(7) 0.7750(6) 0.38875(9)
C60_15 C 0.7346(7) 0.7146(6) 0.37958(10)
H46_15 H 0.7102 0.6767 0.3879
C61_15 C 0.7451(7) 0.7087(6) 0.35759(10)
H47_15 H 0.7293 0.6666 0.3517
C62_15 C 0.7236(7) 0.8137(6) 0.41996(9)
H48_15 H 0.7025 0.8312 0.4118
C63_15 C 0.7643(7) 0.7886(6) 0.44684(9)
C64_15 C 0.7863(7) 0.7811(6) 0.46704(10)
H49_15 H 0.7764 0.7968 0.4795
C65_15 C 0.8230(8) 0.7496(6) 0.46796(11)
H50_15 H 0.8382 0.7438 0.4812
C66_15 C 0.8371(7) 0.7268(6) 0.44964(12)
H51_15 H 0.8622 0.7059 0.4509
C67_15 C 0.8161(7) 0.7328(6) 0.42895(11)
H52_15 H 0.8265 0.7170 0.4167
C68_15 C 0.7785(7) 0.7640(6) 0.42823(10)
N1_15 N 0.9060(5) 0.7219(4) 0.30979(7)
N2_15 N 0.9695(5) 0.7489(4) 0.33925(7)
N3_15 N 0.7224(5) 0.6175(4) 0.27382(7)
N4_15 N 0.6595(5) 0.5689(4) 0.24487(7)
N5_15 N 0.9476(5) 0.5559(4) 0.14353(7)
N6_15 N 0.9010(5) 0.5737(4) 0.17231(8)
N8_15 N 0.7519(5) 0.7812(4) 0.41128(7)
O5_15 O 0.7968(4) 0.5828(4) 0.30590(6)
O6_15 O 0.8630(5) 0.6524(4) 0.26640(6)
O7_15 O 0.8345(5) 0.7592(4) 0.27612(6)
O8_15 O 0.7711(4) 0.6949(3) 0.31623(6)
Zn1_15 Zn 0.81531(7) 0.67165(6) 0.291322(9)
H28_16 H 0.8943 0.0006 0.9660
C45_16 C 0.7730(6) 0.0542(4) 0.83111(9)
H35_16 H 0.7783 0.0889 0.8399
N5_16 N 0.7775(4) 0.0584(3) 0.81019(7)
O11_6 O 0.8836(4) 0.1368(3) 0.77739(6)
O12_6 O 0.8770(4) 0.1996(3) 0.81743(6)
C1_16 C 0.4606(6) 0.7933(4) 0.14270(11)
H1_16 H 0.4135 0.7711 0.1403
H2_16 H 0.4778 0.7659 0.1375
H3_16 H 0.4696 0.8013 0.1578
C2_16 C 0.4930(6) 0.8576(4) 0.13090(9)
C3_16 C 0.5118(5) 0.8579(4) 0.10929(9)
H4_16 H 0.5020 0.8171 0.1035
C4_16 C 0.5436(4) 0.9129(3) 0.09564(9)
C5_16 C 0.5573(4) 0.9055(3) 0.07245(9)
C6_16 C 0.5365(6) 0.8442(4) 0.06289(10)
H5_16 H 0.5151 0.8061 0.0713
C7_16 C 0.5465(6) 0.8379(4) 0.04117(9)
H6_16 H 0.5331 0.7964 0.0352
C8_16 C 0.5768(6) 0.8945(4) 0.02863(9)
C9_16 C 0.6002(6) 0.9570(4) 0.03762(10)
H7_16 H 0.6228 0.9953 0.0294
C10_16 C 0.5882(6) 0.9600(4) 0.05952(10)
H9_16 H 0.6385 0.8406 0.0057
H13_16 H 0.5069 0.9486 0.0000
C56_16 C 0.5701(4) 0.6813(3) 0.01124(9)
C57_16 C 0.5075(6) 0.6420(4) 0.02085(10)
H44_16 H 0.4693 0.6258 0.0125
C58_16 C 0.5022(6) 0.6273(4) 0.04265(10)
H45_16 H 0.4606 0.6010 0.0487
C59_16 C 0.5584(6) 0.6515(4) 0.05541(9)
C60_16 C 0.6188(6) 0.6867(4) 0.04624(10)
H46_16 H 0.6567 0.7002 0.0545
C61_16 C 0.6247(6) 0.7031(4) 0.02425(10)
H47_16 H 0.6668 0.7294 0.0183
C62_16 C 0.5197(6) 0.5766(4) 0.08662(9)
H48_16 H 0.5022 0.5380 0.0784
C63_16 C 0.5448(6) 0.6424(4) 0.11350(9)
C64_16 C 0.5523(6) 0.6719(4) 0.13370(10)
H49_16 H 0.5366 0.6463 0.1461
C65_16 C 0.5838(6) 0.7401(5) 0.13462(11)
H50_16 H 0.5896 0.7611 0.1478
C66_16 C 0.6066(6) 0.7770(4) 0.11630(12)
H51_16 H 0.6275 0.8230 0.1175
C67_16 C 0.6006(6) 0.7500(4) 0.09561(11)
H52_16 H 0.6164 0.7762 0.0833
C68_16 C 0.5694(6) 0.6812(4) 0.09489(10)
N2_16 N 0.5845(4) 0.8873(3) 0.00591(7)
N8_16 N 0.5522(4) 0.6374(3) 0.07794(7)
C11_16 C 0.6160(6) 0.8563(4) 0.99739(9)
C12_16 C 0.5739(6) 0.8798(4) 0.97058(10)
C13_16 C 0.5525(6) 0.8871(4) 0.94996(11)
H10_16 H 0.5639 0.8723 0.9376
C14_16 C 0.5146(6) 0.9164(4) 0.94875(12)
H11_16 H 0.4994 0.9211 0.9354
C15_16 C 0.4981(6) 0.9399(4) 0.96729(12)
H12_16 H 0.4727 0.9603 0.9658
C16_16 C 0.5182(6) 0.9335(4) 0.98775(11)
C17_16 C 0.5565(6) 0.9031(4) 0.98861(9)
C18_16 C 0.8896(6) 0.8590(4) 0.77537(12)
H14_16 H 0.8676 0.8508 0.7617
H15_16 H 0.8808 0.8887 0.7836
H16_16 H 0.9365 0.8786 0.7732
C19_16 C 0.8635(6) 0.7934(4) 0.78753(10)
C20_16 C 0.8433(5) 0.7913(4) 0.80917(9)
H17_16 H 0.8495 0.8308 0.8151
C21_16 C 0.8148(6) 0.7355(4) 0.82245(9)
C22_16 C 0.7998(4) 0.7435(3) 0.84546(9)
C23_16 C 0.8476(6) 0.7944(4) 0.85819(10)
H18_16 H 0.8875 0.8260 0.8520
C24_16 C 0.8363(6) 0.7986(4) 0.88016(10)
H19_16 H 0.8691 0.8317 0.8887
C25_16 C 0.7764(6) 0.7533(4) 0.88903(9)
C26_16 C 0.7290(6) 0.7025(4) 0.87679(9)
H20_16 H 0.6885 0.6715 0.8828
C27_16 C 0.7429(6) 0.6984(4) 0.85508(9)
H21_16 H 0.7115 0.6630 0.8469
C28_16 C 0.7146(6) 0.7665(4) 0.91956(9)
H22_16 H 0.6831 0.7688 0.9109
C29_16 C 0.7706(6) 0.7664(4) 0.94702(9)
C30_16 C 0.7949(6) 0.7670(4) 0.96764(11)
H23_16 H 0.7735 0.7708 0.9798
C31_16 C 0.8513(6) 0.7617(4) 0.96962(11)
H24_16 H 0.8690 0.7632 0.9832
C32_16 C 0.8821(6) 0.7543(4) 0.95125(12)
H25_16 H 0.9204 0.7516 0.9530
C33_16 C 0.8578(6) 0.7509(4) 0.93066(11)
H26_16 H 0.8779 0.7447 0.9186
C34_16 C 0.8017(6) 0.7572(4) 0.92900(10)
C35_16 C 0.8653(8) 0.9605(5) 0.97364(12)
H27_16 H 0.8846 0.9325 0.9741
H29_16 H 0.8591 0.9713 0.9881
C36_16 C 0.7986(6) 0.9245(4) 0.96222(10)
C37_16 C 0.7965(6) 0.9421(4) 0.94046(10)
H30_16 H 0.8367 0.9723 0.9341
C38_16 C 0.7397(6) 0.9183(4) 0.92762(9)
C39_16 C 0.7470(6) 0.9419(4) 0.90469(10)
C40_16 C 0.7042(6) 0.9606(4) 0.89595(11)
H31_16 H 0.6723 0.9614 0.9048
C41_16 C 0.7069(6) 0.9782(4) 0.87437(10)
H32_16 H 0.6778 0.9911 0.8689
C42_16 C 0.7537(6) 0.9760(4) 0.86143(10)
C43_16 C 0.7983(6) 0.9566(5) 0.86960(11)
H33_16 H 0.8294 0.9550 0.8606
C44_16 C 0.7952(7) 0.9400(5) 0.89129(11)
H34_16 H 0.8246 0.9278 0.8969
C46_16 C 0.7680(6) 0.9976(4) 0.80333(9)
C47_16 C 0.7679(6) 0.9731(4) 0.78247(10)
H36_16 H 0.7756 0.9996 0.7704
C48_16 C 0.7567(6) 0.9108(4) 0.78048(12)
H37_16 H 0.7565 0.8944 0.7668
C49_16 C 0.7452(6) 0.8697(4) 0.79832(11)
H38_16 H 0.7372 0.8267 0.7963
C50_16 C 0.7456(6) 0.8926(4) 0.81932(12)
H39_16 H 0.7377 0.8656 0.8313
C51_16 C 0.7580(6) 0.9565(4) 0.82122(10)
C52_16 C 0.4589(8) 0.6672(5) 0.94100(12)
H40_16 H 0.4284 0.6260 0.9479
H41_16 H 0.4410 0.6965 0.9413
H42_16 H 0.4656 0.6588 0.9263
C53_16 C 0.5250(6) 0.6992(4) 0.95291(9)
C54_16 C 0.5248(6) 0.6797(4) 0.97467(9)
H43_16 H 0.4840 0.6482 0.9803
C55_16 C 0.5787(6) 0.7027(4) 0.98833(9)
N1_16 N 0.6115(4) 0.8508(3) 0.97645(7)
N3_16 N 0.7159(4) 0.7716(3) 0.94048(7)
N4_16 N 0.7645(4) 0.7573(3) 0.91153(7)
N6_16 N 0.7597(4) 0.9940(3) 0.83897(8)
O3_11 O 0.8632(3) 0.7467(2) 0.77739(6)
O4_11 O 0.8004(3) 0.6773(2) 0.81743(6)
O5_16 O 0.7506(4) 0.8807(2) 0.97256(6)
O6_16 O 0.6810(4) 0.8773(3) 0.93306(6)
O7_16 O 0.5742(4) 0.7420(3) 0.94278(6)
O8_16 O 0.6385(3) 0.7429(2) 0.98289(6)
Zn1_16 Zn 0.66169(6) 0.81033(4) 0.957988(9)
C18_17 C 0.1410(4) 0.0305(7) 0.77537(12)
H14_17 H 0.1492 0.0167 0.7617
H16_17 H 0.1214 0.0578 0.7732
C19_17 C 0.2066(4) 0.0700(7) 0.78753(10)
C20_17 C 0.2087(4) 0.0519(6) 0.80917(9)
H17_17 H 0.1692 0.0186 0.8151
C21_17 C 0.2645(4) 0.0792(7) 0.82245(9)
C22_17 C 0.2565(3) 0.0562(5) 0.84546(9)
C23_17 C 0.2056(4) 0.0531(7) 0.85819(10)
H18_17 H 0.1740 0.0614 0.8520
C24_17 C 0.2014(4) 0.0376(7) 0.88016(10)
H19_17 H 0.1683 0.0373 0.8887
C25_17 C 0.2467(4) 0.0230(7) 0.88903(9)
C26_17 C 0.2975(4) 0.0264(7) 0.87679(9)
H20_17 H 0.3285 0.0169 0.8828
C27_17 C 0.3016(4) 0.0444(7) 0.85508(9)
H21_17 H 0.3370 0.0484 0.8469
C29_17 C 0.2336(4) 0.0041(7) 0.94702(9)
C30_17 C 0.2330(4) 0.0278(7) 0.96764(11)
H23_17 H 0.2292 0.0026 0.9798
C31_17 C 0.2383(4) 0.0895(7) 0.96962(11)
H24_17 H 0.2368 0.1057 0.9832
C32_17 C 0.2457(4) 0.1277(7) 0.95125(12)
H25_17 H 0.2484 0.1687 0.9530
C33_17 C 0.2491(4) 0.1068(7) 0.93066(11)
H26_17 H 0.2553 0.1331 0.9186
C34_17 C 0.2428(4) 0.0444(7) 0.92900(10)
N4_17 N 0.2427(3) 0.0071(5) 0.91153(7)
O3_12 O 0.2533(2) 0.1164(4) 0.77739(6)
O4_12 O 0.3227(2) 0.1230(4) 0.81743(6)
C1_17 C 0.2067(4) 0.6672(7) 0.14270(11)
H1_17 H 0.2289 0.6423 0.1403
H2_17 H 0.2341 0.7118 0.1375
H3_17 H 0.1987 0.6682 0.1578
C2_17 C 0.1424(4) 0.6353(7) 0.13090(9)
C3_17 C 0.1421(4) 0.6538(6) 0.10929(9)
H4_17 H 0.1829 0.6848 0.1035
C4_17 C 0.0871(3) 0.6306(5) 0.09564(9)
C5_17 C 0.0945(3) 0.6517(5) 0.07245(9)
C6_17 C 0.1558(4) 0.6922(7) 0.06289(10)
H5_17 H 0.1939 0.7089 0.0713
C7_17 C 0.1621(4) 0.7085(7) 0.04117(9)
H6_17 H 0.2036 0.7366 0.0352
C8_17 C 0.1055(4) 0.6822(7) 0.02863(9)
C9_17 C 0.0430(4) 0.6431(7) 0.03762(10)
H7_17 H 0.0047 0.6274 0.0294
C10_17 C 0.0400(4) 0.6281(7) 0.05952(10)
H9_17 H 0.1594 0.7978 0.0057
H13_17 H 0.0514 0.5582 0.0000
C56_17 C 0.3187(3) 0.8887(5) 0.01124(9)
C57_17 C 0.3580(4) 0.8654(7) 0.02085(10)
H44_17 H 0.3742 0.8434 0.0125
C58_17 C 0.3727(4) 0.8748(7) 0.04265(10)
H45_17 H 0.3990 0.8595 0.0487
C59_17 C 0.3485(4) 0.9068(7) 0.05541(9)
C60_17 C 0.3133(4) 0.9320(7) 0.04624(10)
H46_17 H 0.2998 0.9564 0.0545
C61_17 C 0.2969(4) 0.9215(7) 0.02425(10)
H47_17 H 0.2706 0.9373 0.0183
C62_17 C 0.4234(4) 0.9430(7) 0.08662(9)
H48_17 H 0.4620 0.9641 0.0784
C63_17 C 0.3576(4) 0.9023(7) 0.11350(9)
C64_17 C 0.3281(4) 0.8803(7) 0.13370(10)
H49_17 H 0.3537 0.8902 0.1461
C65_17 C 0.2599(5) 0.8436(8) 0.13462(11)
H50_17 H 0.2389 0.8284 0.1478
C66_17 C 0.2230(4) 0.8295(7) 0.11630(12)
H51_17 H 0.1770 0.8044 0.1175
C67_17 C 0.2500(4) 0.8505(7) 0.09561(11)
H52_17 H 0.2238 0.8401 0.0833
C68_17 C 0.3188(4) 0.8881(7) 0.09489(10)
N2_17 N 0.1127(3) 0.6971(5) 0.00591(7)
N8_17 N 0.3626(3) 0.9147(5) 0.07794(7)
H28_17 H 0.9994 0.8936 0.9660
C45_17 C 0.9458(4) 0.7187(7) 0.83111(9)
H35_17 H 0.9111 0.6893 0.8399
N5_17 N 0.9416(3) 0.7190(5) 0.81019(7)
C1_18 C 0.3328(7) 0.5394(6) 0.14270(11)
H1_18 H 0.3577 0.5865 0.1403
H2_18 H 0.2882 0.5222 0.1375
H3_18 H 0.3318 0.5304 0.1578
C2_18 C 0.3647(7) 0.5070(6) 0.13090(9)
C3_18 C 0.3462(6) 0.4882(5) 0.10929(9)
H4_18 H 0.3152 0.4980 0.1035
C4_18 C 0.3694(5) 0.4564(4) 0.09564(9)
C5_18 C 0.3483(5) 0.4427(4) 0.07245(9)
C6_18 C 0.3078(7) 0.4635(6) 0.06289(10)
H5_18 H 0.2911 0.4849 0.0713
C7_18 C 0.2915(7) 0.4535(6) 0.04117(9)
H6_18 H 0.2634 0.4669 0.0352
C8_18 C 0.3178(7) 0.4232(6) 0.02863(9)
C9_18 C 0.3569(7) 0.3998(6) 0.03762(10)
H7_18 H 0.3726 0.3772 0.0294
C10_18 C 0.3719(7) 0.4118(6) 0.05952(10)
H8_16 H 0.3994 0.3979 0.0656
H9_18 H 0.2022 0.3615 0.0057
H13_18 H 0.4418 0.4931 0.0000
C56_18 C 0.1113(5) 0.4299(4) 0.01124(9)
C57_18 C 0.1346(7) 0.4925(6) 0.02085(10)
H44_18 H 0.1566 0.5307 0.0125
C58_18 C 0.1252(7) 0.4978(6) 0.04265(10)
H45_18 H 0.1405 0.5394 0.0487
C59_18 C 0.0932(7) 0.4416(6) 0.05541(9)
C60_18 C 0.0680(7) 0.3812(6) 0.04624(10)
H46_18 H 0.0436 0.3433 0.0545
C61_18 C 0.0785(7) 0.3753(6) 0.02425(10)
H47_18 H 0.0627 0.3332 0.0183
C62_18 C 0.0570(7) 0.4803(6) 0.08662(9)
H48_18 H 0.0359 0.4978 0.0784
C63_18 C 0.0977(7) 0.4552(6) 0.11350(9)
C64_18 C 0.1197(7) 0.4477(6) 0.13370(10)
H49_18 H 0.1098 0.4634 0.1461
C65_18 C 0.1564(8) 0.4162(6) 0.13462(11)
H50_18 H 0.1716 0.4104 0.1478
C66_18 C 0.1705(7) 0.3934(6) 0.11630(12)
H51_18 H 0.1956 0.3725 0.1175
C67_18 C 0.1495(7) 0.3994(6) 0.09561(11)
H52_18 H 0.1599 0.3836 0.0833
C68_18 C 0.1119(7) 0.4306(6) 0.09489(10)
N2_18 N 0.3029(5) 0.4155(4) 0.00591(7)
N8_18 N 0.0853(5) 0.4478(4) 0.07794(7)
C11_17 C 0.2404(7) 0.3840(6) 0.99739(9)
C12_17 C 0.3060(7) 0.4261(6) 0.97058(10)
C13_17 C 0.3347(7) 0.4475(6) 0.94996(11)
H10_17 H 0.3085 0.4361 0.9376
C14_17 C 0.4019(7) 0.4854(6) 0.94875(12)
H11_17 H 0.4218 0.5006 0.9354
C15_17 C 0.4419(7) 0.5019(6) 0.96729(12)
H12_17 H 0.4877 0.5273 0.9658
C16_17 C 0.4154(7) 0.4818(6) 0.98775(11)
C17_17 C 0.3467(7) 0.4435(6) 0.98861(9)
H15_17 H 0.0080 0.1192 0.7836
C28_17 C 0.0520(7) 0.2854(6) 0.91956(9)
H22_17 H 0.0858 0.3169 0.9109
C35_17 C 0.0953(9) 0.1347(8) 0.97364(12)
H27_17 H 0.0480 0.1154 0.9741
H28_18 H 0.1064 0.1057 0.9660
H29_17 H 0.1123 0.1409 0.9881
C36_17 C 0.1260(7) 0.2014(6) 0.96222(10)
C37_17 C 0.1457(7) 0.2035(6) 0.94046(10)
H30_17 H 0.1357 0.1633 0.9341
C38_17 C 0.1787(7) 0.2603(6) 0.92762(9)
C39_17 C 0.1950(7) 0.2530(6) 0.90469(10)
C40_17 C 0.2565(7) 0.2958(6) 0.89595(11)
H31_17 H 0.2892 0.3277 0.9048
C41_17 C 0.2714(7) 0.2931(6) 0.87437(10)
H32_17 H 0.3134 0.3222 0.8689
C42_17 C 0.2224(7) 0.2463(6) 0.86143(10)
C43_17 C 0.1584(8) 0.2017(6) 0.86960(11)
H33_17 H 0.1257 0.1706 0.8606
C44_17 C 0.1449(9) 0.2048(7) 0.89129(11)
H34_17 H 0.1033 0.1754 0.8969
C45_18 C 0.2813(7) 0.2270(6) 0.83111(9)
H35_18 H 0.3107 0.2217 0.8399
C46_17 C 0.2297(7) 0.2320(6) 0.80333(9)
C47_17 C 0.2053(7) 0.2321(6) 0.78247(10)
H36_17 H 0.2241 0.2244 0.7704
C48_17 C 0.1542(7) 0.2433(6) 0.78048(12)
H37_17 H 0.1380 0.2435 0.7668
C49_17 C 0.1246(7) 0.2548(6) 0.79832(11)
H38_17 H 0.0896 0.2628 0.7963
C50_17 C 0.1471(7) 0.2544(6) 0.81932(12)
H39_17 H 0.1280 0.2623 0.8313
C51_17 C 0.1986(7) 0.2420(6) 0.82122(10)
C52_17 C 0.2084(9) 0.5411(8) 0.94100(12)
H40_17 H 0.1977 0.5716 0.9479
H41_17 H 0.2556 0.5590 0.9413
H42_17 H 0.1933 0.5344 0.9263
C53_17 C 0.1743(7) 0.4750(6) 0.95291(9)
C54_17 C 0.1550(7) 0.4752(6) 0.97467(9)
H43_17 H 0.1643 0.5160 0.9803
C55_17 C 0.1241(7) 0.4213(6) 0.98833(9)
N1_17 N 0.2394(5) 0.3885(4) 0.97645(7)
N3_17 N 0.0558(5) 0.2841(4) 0.94048(7)
N5_18 N 0.2810(5) 0.2225(4) 0.81019(7)
N6_17 N 0.2344(5) 0.2403(4) 0.83897(8)
O5_17 O 0.1302(4) 0.2494(4) 0.97256(6)
O6_17 O 0.1964(5) 0.3190(4) 0.93306(6)
O7_17 O 0.1679(5) 0.4258(4) 0.94278(6)
O8_17 O 0.1045(4) 0.3615(3) 0.98289(6)
Zn1_17 Zn 0.14865(7) 0.33831(6) 0.957988(9)
C18_18 C 0.9695(7) 0.1104(6) 0.77537(12)
H14_18 H 0.9833 0.1324 0.7617
H16_18 H 0.9422 0.0635 0.7732
C19_18 C 0.9300(7) 0.1365(6) 0.78753(10)
C20_18 C 0.9481(6) 0.1567(5) 0.80917(9)
H17_18 H 0.9814 0.1505 0.8151
C21_18 C 0.9208(7) 0.1852(6) 0.82245(9)
C22_18 C 0.9438(5) 0.2002(4) 0.84546(9)
C23_18 C 0.9469(7) 0.1524(6) 0.85819(10)
H18_18 H 0.9386 0.1125 0.8520
C24_18 C 0.9624(7) 0.1637(6) 0.88016(10)
H19_18 H 0.9627 0.1309 0.8887
C25_18 C 0.9770(7) 0.2236(6) 0.88903(9)
C26_18 C 0.9736(7) 0.2710(6) 0.87679(9)
H20_18 H 0.9831 0.3115 0.8828
C27_18 C 0.9556(7) 0.2571(6) 0.85508(9)
H21_18 H 0.9516 0.2885 0.8469
C29_18 C 0.9959(7) 0.2294(6) 0.94702(9)
C30_18 C 0.9722(7) 0.2051(6) 0.96764(11)
H23_18 H 0.9974 0.2265 0.9798
C31_18 C 0.9105(7) 0.1487(6) 0.96962(11)
H24_18 H 0.8943 0.1310 0.9832
C32_18 C 0.8723(7) 0.1179(6) 0.95125(12)
H25_18 H 0.8313 0.0796 0.9530
C33_18 C 0.8932(7) 0.1422(6) 0.93066(11)
H26_18 H 0.8669 0.1221 0.9186
C34_18 C 0.9556(7) 0.1983(6) 0.92900(10)
N4_18 N 0.9929(5) 0.2355(4) 0.91153(7)
H8_17 H 0.6021 0.0014 0.0656
C11_18 C 0.1437(4) 0.7596(7) 0.99739(9)
C12_18 C 0.1202(4) 0.6940(7) 0.97058(10)
C13_18 C 0.1129(4) 0.6653(7) 0.94996(11)
H10_18 H 0.1277 0.6915 0.9376
C14_18 C 0.0836(4) 0.5981(7) 0.94875(12)
H11_18 H 0.0789 0.5782 0.9354
C15_18 C 0.0601(4) 0.5581(7) 0.96729(12)
H12_18 H 0.0397 0.5123 0.9658
C16_18 C 0.0665(4) 0.5846(7) 0.98775(11)
C17_18 C 0.0969(4) 0.6533(7) 0.98861(9)
H15_18 H 0.1113 0.9920 0.7836
C28_18 C 0.2335(4) 0.9480(7) 0.91956(9)
H22_18 H 0.2312 0.9142 0.9109
C35_18 C 0.0395(5) 0.9047(9) 0.97364(12)
H27_18 H 0.0675 0.9520 0.9741
H29_18 H 0.0287 0.8877 0.9881
C36_18 C 0.0755(4) 0.8740(7) 0.96222(10)
C37_18 C 0.0579(4) 0.8543(7) 0.94046(10)
H30_18 H 0.0277 0.8643 0.9341
C38_18 C 0.0817(4) 0.8213(7) 0.92762(9)
C39_18 C 0.0581(4) 0.8050(7) 0.90469(10)
C40_18 C 0.0394(4) 0.7435(7) 0.89595(11)
H31_18 H 0.0386 0.7108 0.9048
C41_18 C 0.0218(4) 0.7286(7) 0.87437(10)
H32_18 H 0.0089 0.6866 0.8689
C42_18 C 0.0240(4) 0.7776(7) 0.86143(10)
C43_18 C 0.0434(5) 0.8416(8) 0.86960(11)
H33_18 H 0.0450 0.8743 0.8606
C44_18 C 0.0600(5) 0.8551(9) 0.89129(11)
H34_18 H 0.0722 0.8967 0.8969
C46_18 C 0.0024(4) 0.7703(7) 0.80333(9)
C47_18 C 0.0269(4) 0.7947(7) 0.78247(10)
H36_18 H 0.0004 0.7759 0.7704
C48_18 C 0.0892(4) 0.8458(7) 0.78048(12)
H37_18 H 0.1056 0.8620 0.7668
C49_18 C 0.1303(4) 0.8754(7) 0.79832(11)
H38_18 H 0.1733 0.9104 0.7963
C50_18 C 0.1074(4) 0.8529(7) 0.81932(12)
H39_18 H 0.1344 0.8720 0.8313
C51_18 C 0.0435(4) 0.8014(7) 0.82122(10)
C52_18 C 0.3328(5) 0.7916(9) 0.94100(12)
H40_18 H 0.3740 0.8023 0.9479
H41_18 H 0.3035 0.7444 0.9413
H42_18 H 0.3412 0.8067 0.9263
C53_18 C 0.3008(4) 0.8257(7) 0.95291(9)
C54_18 C 0.3203(4) 0.8450(7) 0.97467(9)
H43_18 H 0.3518 0.8357 0.9803
C55_18 C 0.2973(4) 0.8759(7) 0.98833(9)
N1_18 N 0.1492(3) 0.7606(5) 0.97645(7)
N3_18 N 0.2284(3) 0.9442(5) 0.94048(7)
N6_18 N 0.0060(3) 0.7656(5) 0.83897(8)
O5_18 O 0.1193(2) 0.8698(4) 0.97256(6)
O6_18 O 0.1227(3) 0.8036(5) 0.93306(6)
O7_18 O 0.2580(3) 0.8321(5) 0.94278(6)
O8_18 O 0.2571(2) 0.8955(4) 0.98289(6)
Zn1_18 Zn 0.18967(4) 0.85135(7) 0.957988(9)
H8_18 H 0.9986 0.6006 0.0656
loop_
_geom_bond_atom_site_label_1
_geom_bond_atom_site_label_2
_geom_bond_site_symmetry_1
_geom_bond_site_symmetry_2
C1 H1 1_555 1_555
H2 C1 1_555 1_555
H3 C1 1_555 1_555
C2 C1 1_555 1_555
C3 C2 1_555 1_555
H4 C3 1_555 1_555
C4 C3 1_555 1_555
C5 C4 1_555 1_555
C6 C5 1_555 1_555
H5 C6 1_555 1_555
C7 C6 1_555 1_555
H6 C7 1_555 1_555
C8 C7 1_555 1_555
C9 C8 1_555 1_555
H7 C9 1_555 1_555
C10 C5 1_555 1_555
H8 C10 1_555 1_555
C11 H9 1_555 1_555
C12 C13 1_555 1_555
C13 H10 1_555 1_555
C14 C13 1_555 1_555
H11 C14 1_555 1_555
C15 C14 1_555 1_555
H12 C15 1_555 1_555
C16 C15 1_555 1_555
H13 C16 1_555 1_555
C17 C12 1_555 1_555
C52 H40 1_555 1_555
H41 C52 1_555 1_555
H42 C52 1_555 1_555
C53 C52 1_555 1_555
C54 C53 1_555 1_555
H43 C54 1_555 1_555
C55 C54 1_555 1_555
C56 C55 1_555 1_555
C57 C56 1_555 1_555
H44 C57 1_555 1_555
C58 C57 1_555 1_555
H45 C58 1_555 1_555
C59 C58 1_555 1_555
C60 C59 1_555 1_555
H46 C60 1_555 1_555
C61 C56 1_555 1_555
C62 H48 1_555 1_555
C63 C64 1_555 1_555
C64 H49 1_555 1_555
C65 C64 1_555 1_555
H50 C65 1_555 1_555
C66 C65 1_555 1_555
H51 C66 1_555 1_555
C67 C66 1_555 1_555
H52 C67 1_555 1_555
C68 C63 1_555 1_555
N1 C11 1_555 1_555
N2 C8 1_555 1_555
N7 C62 1_555 1_555
N8 C59 1_555 1_555
O1 C2 1_555 1_555
O2 C4 1_555 1_555
O7 C53 1_555 1_555
O8 C55 1_555 1_555
Zn1 N1 1_555 1_555
Zn3 N7 1_555 1_555
Zn4 O1 1_555 1_555
C9 C10 1_555 1_555
C11 N2 1_555 1_555
C12 N1 1_555 1_555
C16 C17 1_555 1_555
C17 N2 1_555 1_555
C60 C61 1_555 1_555
C62 N8 1_555 1_555
C63 N7 1_555 1_555
C67 C68 1_555 1_555
C68 N8 1_555 1_555
O2 Zn4 1_555 1_555
O7 Zn1 1_555 1_555
O8 Zn1 1_555 1_555
C18 H14 1_555 1_555
H15 C18 1_555 1_555
H16 C18 1_555 1_555
C19 C18 1_555 1_555
C20 C19 1_555 1_555
H17 C20 1_555 1_555
C21 C20 1_555 1_555
C22 C21 1_555 1_555
C23 C22 1_555 1_555
H18 C23 1_555 1_555
C24 C23 1_555 1_555
H19 C24 1_555 1_555
C25 C24 1_555 1_555
C26 C25 1_555 1_555
H20 C26 1_555 1_555
C27 C22 1_555 1_555
H21 C27 1_555 1_555
C28 H22 1_555 1_555
C29 C30 1_555 1_555
C30 H23 1_555 1_555
C31 C30 1_555 1_555
H24 C31 1_555 1_555
C32 C31 1_555 1_555
H25 C32 1_555 1_555
C33 C32 1_555 1_555
H26 C33 1_555 1_555
C34 C29 1_555 1_555
C35 H27 1_555 1_555
H28 C35 1_555 1_555
H29 C35 1_555 1_555
C36 C35 1_555 1_555
C37 C36 1_555 1_555
H30 C37 1_555 1_555
C38 C37 1_555 1_555
C39 C38 1_555 1_555
C40 C39 1_555 1_555
H31 C40 1_555 1_555
C41 C40 1_555 1_555
H32 C41 1_555 1_555
C42 C41 1_555 1_555
C43 C42 1_555 1_555
H33 C43 1_555 1_555
C44 C39 1_555 1_555
H34 C44 1_555 1_555
C45 H35 1_555 1_555
C46 C47 1_555 1_555
C47 H36 1_555 1_555
C48 C47 1_555 1_555
H37 C48 1_555 1_555
C49 C48 1_555 1_555
H38 C49 1_555 1_555
C50 C49 1_555 1_555
H39 C50 1_555 1_555
C51 C46 1_555 1_555
N3 C28 1_555 1_555
N4 C25 1_555 1_555
N5 C45 1_555 1_555
N6 C42 1_555 1_555
O3 C19 1_555 1_555
O4 C21 1_555 1_555
O5 C36 1_555 1_555
O6 C38 1_555 1_555
Zn2 N5 1_555 1_555
N9 Zn2 1_555 1_555
O9 Zn2 1_555 1_555
O10 Zn2 1_555 1_555
O11 Zn2 1_555 1_555
O12 Zn2 1_555 1_555
Zn5 O3 1_555 1_555
C26 C27 1_555 1_555
C28 N4 1_555 1_555
C29 N3 1_555 1_555
C33 C34 1_555 1_555
C34 N4 1_555 1_555
C43 C44 1_555 1_555
C45 N6 1_555 1_555
C46 N5 1_555 1_555
C50 C51 1_555 1_555
C51 N6 1_555 1_555
O4 Zn5 1_555 1_555
C1_2 H1_2 1_555 1_555
H2_2 C1_2 1_555 1_555
H3_2 C1_2 1_555 1_555
C2_2 C1_2 1_555 1_555
C3_2 C2_2 1_555 1_555
H4_2 C3_2 1_555 1_555
C4_2 C3_2 1_555 1_555
C5_2 C4_2 1_555 1_555
C6_2 C5_2 1_555 1_555
H5_2 C6_2 1_555 1_555
C7_2 C6_2 1_555 1_555
H6_2 C7_2 1_555 1_555
C8_2 C7_2 1_555 1_555
C9_2 C8_2 1_555 1_555
H7_2 C9_2 1_555 1_555
C10_2 C5_2 1_555 1_555
H8_2 C10_2 1_555 1_555
C11_2 H9_2 1_555 1_555
C12_2 C13_2 1_555 1_555
C13_2 H10_2 1_555 1_555
C14_2 C13_2 1_555 1_555
H11_2 C14_2 1_555 1_555
C15_2 C14_2 1_555 1_555
H12_2 C15_2 1_555 1_555
C16_2 C15_2 1_555 1_555
H13_2 C16_2 1_555 1_555
C17_2 C12_2 1_555 1_555
C18_2 H14_2 1_555 1_555
H15_2 C18_2 1_555 1_555
H16_2 C18_2 1_555 1_555
C19_2 C18_2 1_555 1_555
C20_2 C19_2 1_555 1_555
H17_2 C20_2 1_555 1_555
C21_2 C20_2 1_555 1_555
C22_2 C21_2 1_555 1_555
C23_2 C22_2 1_555 1_555
H18_2 C23_2 1_555 1_555
C24_2 C23_2 1_555 1_555
H19_2 C24_2 1_555 1_555
C25_2 C24_2 1_555 1_555
C26_2 C25_2 1_555 1_555
H20_2 C26_2 1_555 1_555
C27_2 C22_2 1_555 1_555
H21_2 C27_2 1_555 1_555
C28_2 H22_2 1_555 1_555
C29_2 C30_2 1_555 1_555
C30_2 H23_2 1_555 1_555
C31_2 C30_2 1_555 1_555
H24_2 C31_2 1_555 1_555
C32_2 C31_2 1_555 1_555
H25_2 C32_2 1_555 1_555
C33_2 C32_2 1_555 1_555
H26_2 C33_2 1_555 1_555
C34_2 C29_2 1_555 1_555
C35_2 H27_2 1_555 1_555
H28_2 C35_2 1_555 1_555
H29_2 C35_2 1_555 1_555
C36_2 C35_2 1_555 1_555
C37_2 C36_2 1_555 1_555
H30_2 C37_2 1_555 1_555
C38_2 C37_2 1_555 1_555
C39_2 C38_2 1_555 1_555
C40_2 C39_2 1_555 1_555
H31_2 C40_2 1_555 1_555
C41_2 C40_2 1_555 1_555
H32_2 C41_2 1_555 1_555
C42_2 C41_2 1_555 1_555
C43_2 C42_2 1_555 1_555
H33_2 C43_2 1_555 1_555
C44_2 C39_2 1_555 1_555
H34_2 C44_2 1_555 1_555
C45_2 H35_2 1_555 1_555
C46_2 C47_2 1_555 1_555
C47_2 H36_2 1_555 1_555
C48_2 C47_2 1_555 1_555
H37_2 C48_2 1_555 1_555
C49_2 C48_2 1_555 1_555
H38_2 C49_2 1_555 1_555
C50_2 C49_2 1_555 1_555
H39_2 C50_2 1_555 1_555
C51_2 C46_2 1_555 1_555
C52_2 H40_2 1_555 1_555
H41_2 C52_2 1_555 1_555
H42_2 C52_2 1_555 1_555
C53_2 C52_2 1_555 1_555
C54_2 C53_2 1_555 1_555
H43_2 C54_2 1_555 1_555
C55_2 C54_2 1_555 1_555
C56_2 C55_2 1_555 1_555
C57_2 C56_2 1_555 1_555
H44_2 C57_2 1_555 1_555
C58_2 C57_2 1_555 1_555
H45_2 C58_2 1_555 1_555
C59_2 C58_2 1_555 1_555
C60_2 C59_2 1_555 1_555
H46_2 C60_2 1_555 1_555
C61_2 C56_2 1_555 1_555
H47_2 C61_2 1_555 1_555
C62_2 H48_2 1_555 1_555
C63_2 C64_2 1_555 1_555
C64_2 H49_2 1_555 1_555
C65_2 C64_2 1_555 1_555
H50_2 C65_2 1_555 1_555
C66_2 C65_2 1_555 1_555
H51_2 C66_2 1_555 1_555
C67_2 C66_2 1_555 1_555
H52_2 C67_2 1_555 1_555
C68_2 C63_2 1_555 1_555
N1_2 C11_2 1_555 1_555
N2_2 C8_2 1_555 1_555
N3_2 C28_2 1_555 1_555
N4_2 C25_2 1_555 1_555
N5_2 C45_2 1_555 1_555
N6_2 C42_2 1_555 1_555
N7_2 C62_2 1_555 1_555
N8_2 C59_2 1_555 1_555
O1_2 C2_2 1_555 1_555
O2_2 C4_2 1_555 1_555
O3_2 C19_2 1_555 1_555
O4_2 C21_2 1_555 1_555
O5_2 C36_2 1_555 1_555
O6_2 C38_2 1_555 1_555
O7_2 C53_2 1_555 1_555
O8_2 C55_2 1_555 1_555
Zn1_2 N1_2 1_555 1_555
Zn5 N5_2 1_555 1_555
N9_2 Zn5 1_555 1_555
O9_2 Zn5 1_555 1_555
O10_2 Zn5 1_555 1_555
Zn4 N7_2 1_555 1_555
Zn4_2 O1_2 1_555 1_555
Zn5_2 O3_2 1_555 1_555
C9_2 C10_2 1_555 1_555
C11_2 N2_2 1_555 1_555
C12_2 N1_2 1_555 1_555
C16_2 C17_2 1_555 1_555
C17_2 N2_2 1_555 1_555
C26_2 C27_2 1_555 1_555
C28_2 N4_2 1_555 1_555
C29_2 N3_2 1_555 1_555
C33_2 C34_2 1_555 1_555
C34_2 N4_2 1_555 1_555
C43_2 C44_2 1_555 1_555
C45_2 N6_2 1_555 1_555
C46_2 N5_2 1_555 1_555
C50_2 C51_2 1_555 1_555
C51_2 N6_2 1_555 1_555
C60_2 C61_2 1_555 1_555
C62_2 N8_2 1_555 1_555
C63_2 N7_2 1_555 1_555
C67_2 C68_2 1_555 1_555
C68_2 N8_2 1_555 1_555
N3_2 Zn1_2 1_555 1_555
O2_2 Zn4_2 1_555 1_555
O4_2 Zn5_2 1_555 1_555
O5_2 Zn1_2 1_555 1_555
O6_2 Zn1_2 1_555 1_555
O7_2 Zn1_2 1_555 1_555
O8_2 Zn1_2 1_555 1_555
C18_3 H14_3 1_555 1_555
H15_3 C18_3 1_555 1_555
H16_3 C18_3 1_555 1_555
C19_3 C18_3 1_555 1_555
C20_3 C19_3 1_555 1_555
H17_3 C20_3 1_555 1_555
C21_3 C20_3 1_555 1_555
C22_3 C21_3 1_555 1_555
C23_3 C22_3 1_555 1_555
H18_3 C23_3 1_555 1_555
C24_3 C23_3 1_555 1_555
H19_3 C24_3 1_555 1_555
C25_3 C24_3 1_555 1_555
C26_3 C25_3 1_555 1_555
H20_3 C26_3 1_555 1_555
C27_3 C22_3 1_555 1_555
H21_3 C27_3 1_555 1_555
C28_3 H22_3 1_555 1_555
C29_3 C30_3 1_555 1_555
C30_3 H23_3 1_555 1_555
C31_3 C30_3 1_555 1_555
H24_3 C31_3 1_555 1_555
C32_3 C31_3 1_555 1_555
H25_3 C32_3 1_555 1_555
C33_3 C32_3 1_555 1_555
H26_3 C33_3 1_555 1_555
C34_3 C29_3 1_555 1_555
C35_3 H27_3 1_555 1_555
H28_3 C35_3 1_555 1_555
H29_3 C35_3 1_555 1_555
C36_3 C35_3 1_555 1_555
C37_3 C36_3 1_555 1_555
H30_3 C37_3 1_555 1_555
C38_3 C37_3 1_555 1_555
C39_3 C38_3 1_555 1_555
C40_3 C39_3 1_555 1_555
H31_3 C40_3 1_555 1_555
C41_3 C40_3 1_555 1_555
H32_3 C41_3 1_555 1_555
C42_3 C41_3 1_555 1_555
C43_3 C42_3 1_555 1_555
H33_3 C43_3 1_555 1_555
C44_3 C39_3 1_555 1_555
H34_3 C44_3 1_555 1_555
C45_3 H35_3 1_555 1_555
C46_3 C47_3 1_555 1_555
C47_3 H36_3 1_555 1_555
C48_3 C47_3 1_555 1_555
H37_3 C48_3 1_555 1_555
C49_3 C48_3 1_555 1_555
H38_3 C49_3 1_555 1_555
C50_3 C49_3 1_555 1_555
H39_3 C50_3 1_555 1_555
C51_3 C46_3 1_555 1_555
N3_3 C28_3 1_555 1_555
N4_3 C25_3 1_555 1_555
N5_3 C45_3 1_555 1_555
N6_3 C42_3 1_555 1_555
O11 C19_3 1_555 1_555
O12 C21_3 1_555 1_555
O5_3 C36_3 1_555 1_555
O6_3 C38_3 1_555 1_555
Zn5_2 N5_3 1_555 1_555
N9_3 Zn5_2 1_555 1_555
O9_3 Zn5_2 1_555 1_555
O10_3 Zn5_2 1_555 1_555
C26_3 C27_3 1_555 1_555
C28_3 N4_3 1_555 1_555
C29_3 N3_3 1_555 1_555
C33_3 C34_3 1_555 1_555
C34_3 N4_3 1_555 1_555
C43_3 C44_3 1_555 1_555
C45_3 N6_3 1_555 1_555
C46_3 N5_3 1_555 1_555
C50_3 C51_3 1_555 1_555
C51_3 N6_3 1_555 1_555
C1_3 H1_3 1_555 1_555
H2_3 C1_3 1_555 1_555
H3_3 C1_3 1_555 1_555
C2_3 C1_3 1_555 1_555
C3_3 C2_3 1_555 1_555
H4_3 C3_3 1_555 1_555
C4_3 C3_3 1_555 1_555
C5_3 C4_3 1_555 1_555
C6_3 C5_3 1_555 1_555
H5_3 C6_3 1_555 1_555
C7_3 C6_3 1_555 1_555
H6_3 C7_3 1_555 1_555
C8_3 C7_3 1_555 1_555
C9_3 C8_3 1_555 1_555
H7_3 C9_3 1_555 1_555
C10_3 C5_3 1_555 1_555
H8_3 C10_3 1_555 1_555
C11_3 H9_3 1_555 1_555
C12_3 C13_3 1_555 1_555
C13_3 H10_3 1_555 1_555
C14_3 C13_3 1_555 1_555
H11_3 C14_3 1_555 1_555
C15_3 C14_3 1_555 1_555
H12_3 C15_3 1_555 1_555
C16_3 C15_3 1_555 1_555
H13_3 C16_3 1_555 1_555
C17_3 C12_3 1_555 1_555
C52_3 H40_3 1_555 1_555
H41_3 C52_3 1_555 1_555
H42_3 C52_3 1_555 1_555
C53_3 C52_3 1_555 1_555
C54_3 C53_3 1_555 1_555
H43_3 C54_3 1_555 1_555
C55_3 C54_3 1_555 1_555
C56_3 C55_3 1_555 1_555
C57_3 C56_3 1_555 1_555
H44_3 C57_3 1_555 1_555
C58_3 C57_3 1_555 1_555
H45_3 C58_3 1_555 1_555
C59_3 C58_3 1_555 1_555
C60_3 C59_3 1_555 1_555
H46_3 C60_3 1_555 1_555
C61_3 C56_3 1_555 1_555
C62_3 H48_3 1_555 1_555
C63_3 C64_3 1_555 1_555
C64_3 H49_3 1_555 1_555
C65_3 C64_3 1_555 1_555
H50_3 C65_3 1_555 1_555
C66_3 C65_3 1_555 1_555
H51_3 C66_3 1_555 1_555
C67_3 C66_3 1_555 1_555
H52_3 C67_3 1_555 1_555
C68_3 C63_3 1_555 1_555
N1_3 C11_3 1_555 1_555
N2_3 C8_3 1_555 1_555
N7_3 C62_3 1_555 1_555
N8_3 C59_3 1_555 1_555
O1_3 C2_3 1_555 1_555
O2_3 C4_3 1_555 1_555
O7_3 C53_3 1_555 1_555
O8_3 C55_3 1_555 1_555
Zn1_3 N1_3 1_555 1_555
Zn4_2 N7_3 1_555 1_555
Zn3 O1_3 1_555 1_555
C9_3 C10_3 1_555 1_555
C11_3 N2_3 1_555 1_555
C12_3 N1_3 1_555 1_555
C16_3 C17_3 1_555 1_555
C17_3 N2_3 1_555 1_555
C60_3 C61_3 1_555 1_555
C62_3 N8_3 1_555 1_555
C63_3 N7_3 1_555 1_555
C67_3 C68_3 1_555 1_555
C68_3 N8_3 1_555 1_555
O2_3 Zn3 1_555 1_555
O7_3 Zn1_3 1_555 1_555
O8_3 Zn1_3 1_555 1_555
H44_4 C57_4 1_555 1_555
C58_4 C57_4 1_555 1_555
H45_4 C58_4 1_555 1_555
C59_4 C58_4 1_555 1_555
C62_4 H48_4 1_555 1_555
N9 C62_4 1_555 1_555
N8_4 C59_4 1_555 1_555
C62_4 N8_4 1_555 1_555
C63_4 N9 1_555 1_555
C1_4 H1_4 1_555 1_555
H2_4 C1_4 1_555 1_555
H3_4 C1_4 1_555 1_555
C2_4 C1_4 1_555 1_555
C3_4 C2_4 1_555 1_555
H4_4 C3_4 1_555 1_555
C4_4 C3_4 1_555 1_555
C5_4 C4_4 1_555 1_555
C6_4 C5_4 1_555 1_555
H5_4 C6_4 1_555 1_555
C7_4 C6_4 1_555 1_555
H6_4 C7_4 1_555 1_555
C8_4 C7_4 1_555 1_555
C9_4 C8_4 1_555 1_555
H7_4 C9_4 1_555 1_555
C10_4 C5_4 1_555 1_555
H8_4 C10_4 1_555 1_555
C11_4 H9_4 1_555 1_555
C12_4 C13_4 1_555 1_555
C13_4 H10_4 1_555 1_555
C14_4 C13_4 1_555 1_555
H11_4 C14_4 1_555 1_555
C15_4 C14_4 1_555 1_555
H12_4 C15_4 1_555 1_555
C16_4 C15_4 1_555 1_555
H13_4 C16_4 1_555 1_555
C17_4 C12_4 1_555 1_555
C18_4 H14_4 1_555 1_555
H15_4 C18_4 1_555 1_555
H16_4 C18_4 1_555 1_555
C19_4 C18_4 1_555 1_555
C20_4 C19_4 1_555 1_555
H17_4 C20_4 1_555 1_555
C21_4 C20_4 1_555 1_555
C22_4 C21_4 1_555 1_555
C23_4 C22_4 1_555 1_555
H18_4 C23_4 1_555 1_555
C24_4 C23_4 1_555 1_555
H19_4 C24_4 1_555 1_555
C25_4 C24_4 1_555 1_555
C26_4 C25_4 1_555 1_555
H20_4 C26_4 1_555 1_555
C27_4 C22_4 1_555 1_555
C28_4 H22_4 1_555 1_555
C29_4 C30_4 1_555 1_555
C30_4 H23_4 1_555 1_555
C31_4 C30_4 1_555 1_555
H24_4 C31_4 1_555 1_555
C32_4 C31_4 1_555 1_555
H25_4 C32_4 1_555 1_555
C33_4 C32_4 1_555 1_555
H26_4 C33_4 1_555 1_555
C34_4 C29_4 1_555 1_555
C35_4 H27_4 1_555 1_555
H28_4 C35_4 1_555 1_555
H29_4 C35_4 1_555 1_555
C36_4 C35_4 1_555 1_555
C37_4 C36_4 1_555 1_555
H30_4 C37_4 1_555 1_555
C38_4 C37_4 1_555 1_555
C39_4 C38_4 1_555 1_555
C40_4 C39_4 1_555 1_555
H31_4 C40_4 1_555 1_555
C41_4 C40_4 1_555 1_555
H32_4 C41_4 1_555 1_555
C42_4 C41_4 1_555 1_555
C43_4 C42_4 1_555 1_555
H33_4 C43_4 1_555 1_555
C44_4 C39_4 1_555 1_555
H34_4 C44_4 1_555 1_555
C45_4 H35_4 1_555 1_555
C46_4 C47_4 1_555 1_555
C47_4 H36_4 1_555 1_555
C48_4 C47_4 1_555 1_555
H37_4 C48_4 1_555 1_555
C49_4 C48_4 1_555 1_555
H38_4 C49_4 1_555 1_555
C50_4 C49_4 1_555 1_555
H39_4 C50_4 1_555 1_555
C51_4 C46_4 1_555 1_555
H41_4 C52_4 1_555 1_555
C53_4 C52_4 1_555 1_555
C54_4 C53_4 1_555 1_555
C55_4 C54_4 1_555 1_555
C56_4 C55_4 1_555 1_555
H46_4 C60_4 1_555 1_555
C61_4 C56_4 1_555 1_555
H47_4 C61_4 1_555 1_555
C65_4 C64_4 1_555 1_555
H50_4 C65_4 1_555 1_555
C66_4 C65_4 1_555 1_555
H51_4 C66_4 1_555 1_555
C67_4 C66_4 1_555 1_555
H52_4 C67_4 1_555 1_555
N1_4 C11_4 1_555 1_555
N2_4 C8_4 1_555 1_555
N3_4 C28_4 1_555 1_555
N4_4 C25_4 1_555 1_555
N5_4 C45_4 1_555 1_555
N6_4 C42_4 1_555 1_555
O9_2 C2_4 1_555 1_555
O10_2 C4_4 1_555 1_555
O3_3 C19_4 1_555 1_555
O4_3 C21_4 1_555 1_555
O5_4 C36_4 1_555 1_555
O6_4 C38_4 1_555 1_555
O7_4 C53_4 1_555 1_555
O8_4 C55_4 1_555 1_555
Zn1_4 N1_4 1_555 1_555
Zn2_2 N5_4 1_555 1_555
N9_4 Zn2_2 1_555 1_555
O9_4 Zn2_2 1_555 1_555
O10_4 Zn2_2 1_555 1_555
O11_2 Zn2_2 1_555 1_555
O12_2 Zn2_2 1_555 1_555
C9_4 C10_4 1_555 1_555
C11_4 N2_4 1_555 1_555
C12_4 N1_4 1_555 1_555
C16_4 C17_4 1_555 1_555
C17_4 N2_4 1_555 1_555
C26_4 C27_4 1_555 1_555
C28_4 N4_4 1_555 1_555
C29_4 N3_4 1_555 1_555
C33_4 C34_4 1_555 1_555
C34_4 N4_4 1_555 1_555
C43_4 C44_4 1_555 1_555
C45_4 N6_4 1_555 1_555
C46_4 N5_4 1_555 1_555
C50_4 C51_4 1_555 1_555
C51_4 N6_4 1_555 1_555
C60_4 C61_4 1_555 1_555
C67_4 C68_4 1_555 1_555
N3_4 Zn1_4 1_555 1_555
O5_4 Zn1_4 1_555 1_555
O6_4 Zn1_4 1_555 1_555
O7_4 Zn1_4 1_555 1_555
O8_4 Zn1_4 1_555 1_555
C3_5 C2_5 1_555 1_555
C4_5 C3_5 1_555 1_555
C5_5 C4_5 1_555 1_555
H7_5 C9_5 1_555 1_555
C10_5 C5_5 1_555 1_555
H8_5 C10_5 1_555 1_555
C14_5 C13_5 1_555 1_555
H11_5 C14_5 1_555 1_555
C15_5 C14_5 1_555 1_555
H12_5 C15_5 1_555 1_555
C16_5 C15_5 1_555 1_555
H13_5 C16_5 1_555 1_555
O9_3 C2_5 1_555 1_555
O10_3 C4_5 1_555 1_555
N9_5 Zn5_3 1_555 1_555
O9_5 Zn5_3 1_555 1_555
O10_5 Zn5_3 1_555 1_555
C9_5 C10_5 1_555 1_555
C16_5 C17_5 1_555 1_555
H2_5 C1_5 1_555 1_555
H3_5 C1_5 1_555 1_555
H5_5 C6_5 1_555 1_555
C7_5 C6_5 1_555 1_555
H6_5 C7_5 1_555 1_555
C8_5 C7_5 1_555 1_555
C11_5 H9_5 1_555 1_555
C18_5 H14_5 1_555 1_555
H15_5 C18_5 1_555 1_555
H16_5 C18_5 1_555 1_555
C19_5 C18_5 1_555 1_555
C20_5 C19_5 1_555 1_555
H17_5 C20_5 1_555 1_555
C21_5 C20_5 1_555 1_555
C22_5 C21_5 1_555 1_555
C23_5 C22_5 1_555 1_555
H18_5 C23_5 1_555 1_555
C24_5 C23_5 1_555 1_555
H19_5 C24_5 1_555 1_555
C25_5 C24_5 1_555 1_555
C26_5 C25_5 1_555 1_555
H20_5 C26_5 1_555 1_555
C27_5 C22_5 1_555 1_555
C28_5 H22_5 1_555 1_555
C29_5 C30_5 1_555 1_555
C30_5 H23_5 1_555 1_555
C31_5 C30_5 1_555 1_555
H24_5 C31_5 1_555 1_555
C32_5 C31_5 1_555 1_555
H25_5 C32_5 1_555 1_555
C33_5 C32_5 1_555 1_555
H26_5 C33_5 1_555 1_555
C34_5 C29_5 1_555 1_555
C35_5 H27_5 1_555 1_555
H28_5 C35_5 1_555 1_555
H29_5 C35_5 1_555 1_555
C36_5 C35_5 1_555 1_555
C37_5 C36_5 1_555 1_555
H30_5 C37_5 1_555 1_555
C38_5 C37_5 1_555 1_555
C39_5 C38_5 1_555 1_555
C40_5 C39_5 1_555 1_555
H31_5 C40_5 1_555 1_555
C41_5 C40_5 1_555 1_555
H32_5 C41_5 1_555 1_555
C42_5 C41_5 1_555 1_555
C43_5 C42_5 1_555 1_555
H33_5 C43_5 1_555 1_555
C44_5 C39_5 1_555 1_555
H34_5 C44_5 1_555 1_555
C45_5 H35_5 1_555 1_555
C46_5 C47_5 1_555 1_555
C47_5 H36_5 1_555 1_555
C48_5 C47_5 1_555 1_555
H37_5 C48_5 1_555 1_555
C49_5 C48_5 1_555 1_555
H38_5 C49_5 1_555 1_555
C50_5 C49_5 1_555 1_555
H39_5 C50_5 1_555 1_555
C51_5 C46_5 1_555 1_555
H41_5 C52_5 1_555 1_555
C53_5 C52_5 1_555 1_555
C54_5 C53_5 1_555 1_555
C55_5 C54_5 1_555 1_555
C56_5 C55_5 1_555 1_555
H46_5 C60_5 1_555 1_555
C61_5 C56_5 1_555 1_555
H47_5 C61_5 1_555 1_555
C65_5 C64_5 1_555 1_555
H50_5 C65_5 1_555 1_555
C66_5 C65_5 1_555 1_555
H51_5 C66_5 1_555 1_555
C67_5 C66_5 1_555 1_555
H52_5 C67_5 1_555 1_555
N1_5 C11_5 1_555 1_555
N2_5 C8_5 1_555 1_555
N3_5 C28_5 1_555 1_555
N4_5 C25_5 1_555 1_555
N5_5 C45_5 1_555 1_555
N6_5 C42_5 1_555 1_555
O3_4 C19_5 1_555 1_555
O4_4 C21_5 1_555 1_555
O5_5 C36_5 1_555 1_555
O6_5 C38_5 1_555 1_555
O7_5 C53_5 1_555 1_555
O8_5 C55_5 1_555 1_555
Zn1_5 N1_5 1_555 1_555
C11_5 N2_5 1_555 1_555
C12_5 N1_5 1_555 1_555
C26_5 C27_5 1_555 1_555
C28_5 N4_5 1_555 1_555
C29_5 N3_5 1_555 1_555
C33_5 C34_5 1_555 1_555
C34_5 N4_5 1_555 1_555
C43_5 C44_5 1_555 1_555
C45_5 N6_5 1_555 1_555
C46_5 N5_5 1_555 1_555
C50_5 C51_5 1_555 1_555
C51_5 N6_5 1_555 1_555
C60_5 C61_5 1_555 1_555
C67_5 C68_5 1_555 1_555
N3_5 Zn1_5 1_555 1_555
O5_5 Zn1_5 1_555 1_555
O6_5 Zn1_5 1_555 1_555
O7_5 Zn1_5 1_555 1_555
O8_5 Zn1_5 1_555 1_555
H44_5 C57_5 1_555 1_555
C58_5 C57_5 1_555 1_555
H45_5 C58_5 1_555 1_555
C59_5 C58_5 1_555 1_555
C62_5 H48_5 1_555 1_555
N9_2 C62_5 1_555 1_555
N8_5 C59_5 1_555 1_555
C62_5 N8_5 1_555 1_555
C63_5 N9_2 1_555 1_555
H2_6 C1_6 1_555 1_555
H3_6 C1_6 1_555 1_555
H5_6 C6_6 1_555 1_555
C7_6 C6_6 1_555 1_555
H6_6 C7_6 1_555 1_555
C8_6 C7_6 1_555 1_555
C11_6 H9_6 1_555 1_555
C18_6 H14_6 1_555 1_555
H15_6 C18_6 1_555 1_555
H16_6 C18_6 1_555 1_555
C19_6 C18_6 1_555 1_555
C20_6 C19_6 1_555 1_555
H17_6 C20_6 1_555 1_555
C21_6 C20_6 1_555 1_555
C22_6 C21_6 1_555 1_555
C23_6 C22_6 1_555 1_555
H18_6 C23_6 1_555 1_555
C24_6 C23_6 1_555 1_555
H19_6 C24_6 1_555 1_555
C25_6 C24_6 1_555 1_555
C26_6 C25_6 1_555 1_555
H20_6 C26_6 1_555 1_555
C27_6 C22_6 1_555 1_555
H21_6 C27_6 1_555 1_555
C28_6 H22_6 1_555 1_555
C29_6 C30_6 1_555 1_555
C30_6 H23_6 1_555 1_555
C31_6 C30_6 1_555 1_555
H24_6 C31_6 1_555 1_555
C32_6 C31_6 1_555 1_555
H25_6 C32_6 1_555 1_555
C33_6 C32_6 1_555 1_555
H26_6 C33_6 1_555 1_555
C34_6 C29_6 1_555 1_555
C35_6 H27_6 1_555 1_555
H28_6 C35_6 1_555 1_555
H29_6 C35_6 1_555 1_555
C36_6 C35_6 1_555 1_555
C37_6 C36_6 1_555 1_555
H30_6 C37_6 1_555 1_555
C38_6 C37_6 1_555 1_555
C39_6 C38_6 1_555 1_555
C40_6 C39_6 1_555 1_555
H31_6 C40_6 1_555 1_555
C41_6 C40_6 1_555 1_555
H32_6 C41_6 1_555 1_555
C42_6 C41_6 1_555 1_555
C43_6 C42_6 1_555 1_555
H33_6 C43_6 1_555 1_555
C44_6 C39_6 1_555 1_555
H34_6 C44_6 1_555 1_555
C45_6 H35_6 1_555 1_555
C46_6 C47_6 1_555 1_555
C47_6 H36_6 1_555 1_555
C48_6 C47_6 1_555 1_555
H37_6 C48_6 1_555 1_555
C49_6 C48_6 1_555 1_555
H38_6 C49_6 1_555 1_555
C50_6 C49_6 1_555 1_555
H39_6 C50_6 1_555 1_555
C51_6 C46_6 1_555 1_555
C52_6 H40_6 1_555 1_555
H41_6 C52_6 1_555 1_555
H42_6 C52_6 1_555 1_555
C53_6 C52_6 1_555 1_555
C54_6 C53_6 1_555 1_555
H43_6 C54_6 1_555 1_555
C55_6 C54_6 1_555 1_555
C56_6 C55_6 1_555 1_555
C57_6 C56_6 1_555 1_555
H44_6 C57_6 1_555 1_555
C58_6 C57_6 1_555 1_555
H45_6 C58_6 1_555 1_555
C59_6 C58_6 1_555 1_555
C60_6 C59_6 1_555 1_555
H46_6 C60_6 1_555 1_555
C61_6 C56_6 1_555 1_555
H47_6 C61_6 1_555 1_555
C62_6 H48_6 1_555 1_555
C63_6 C64_6 1_555 1_555
C64_6 H49_6 1_555 1_555
C65_6 C64_6 1_555 1_555
H50_6 C65_6 1_555 1_555
C66_6 C65_6 1_555 1_555
H51_6 C66_6 1_555 1_555
C67_6 C66_6 1_555 1_555
H52_6 C67_6 1_555 1_555
C68_6 C63_6 1_555 1_555
N1_6 C11_6 1_555 1_555
N2_6 C8_6 1_555 1_555
N3_6 C28_6 1_555 1_555
N4_6 C25_6 1_555 1_555
N5_6 C45_6 1_555 1_555
N6_6 C42_6 1_555 1_555
N9_3 C62_6 1_555 1_555
N8_6 C59_6 1_555 1_555
O11_2 C19_6 1_555 1_555
O12_2 C21_6 1_555 1_555
O5_6 C36_6 1_555 1_555
O6_6 C38_6 1_555 1_555
O7_6 C53_6 1_555 1_555
O8_6 C55_6 1_555 1_555
Zn1_6 N1_6 1_555 1_555
C11_6 N2_6 1_555 1_555
C12_6 N1_6 1_555 1_555
C26_6 C27_6 1_555 1_555
C28_6 N4_6 1_555 1_555
C29_6 N3_6 1_555 1_555
C33_6 C34_6 1_555 1_555
C34_6 N4_6 1_555 1_555
C43_6 C44_6 1_555 1_555
C45_6 N6_6 1_555 1_555
C46_6 N5_6 1_555 1_555
C50_6 C51_6 1_555 1_555
C51_6 N6_6 1_555 1_555
C60_6 C61_6 1_555 1_555
C62_6 N8_6 1_555 1_555
C63_6 N9_3 1_555 1_555
C67_6 C68_6 1_555 1_555
C68_6 N8_6 1_555 1_555
N3_6 Zn1_6 1_555 1_555
O5_6 Zn1_6 1_555 1_555
O6_6 Zn1_6 1_555 1_555
O7_6 Zn1_6 1_555 1_555
O8_6 Zn1_6 1_555 1_555
C3_6 C2_6 1_555 1_555
C4_6 C3_6 1_555 1_555
C5_6 C4_6 1_555 1_555
H7_6 C9_6 1_555 1_555
C10_6 C5_6 1_555 1_555
H8_6 C10_6 1_555 1_555
C14_6 C13_6 1_555 1_555
H11_6 C14_6 1_555 1_555
C15_6 C14_6 1_555 1_555
H12_6 C15_6 1_555 1_555
C16_6 C15_6 1_555 1_555
H13_6 C16_6 1_555 1_555
O9 C2_6 1_555 1_555
O10 C4_6 1_555 1_555
N9_6 Zn5_4 1_555 1_555
O9_6 Zn5_4 1_555 1_555
O10_6 Zn5_4 1_555 1_555
C9_6 C10_6 1_555 1_555
C16_6 C17_6 1_555 1_555
C12_7 C13_7 1_555 1_555
C13_7 H10_7 1_555 1_555
C14_7 C13_7 1_555 1_555
H11_7 C14_7 1_555 1_555
C15_7 C14_7 1_555 1_555
H12_7 C15_7 1_555 1_555
C16_7 C15_7 1_555 1_555
C17_7 C12_7 1_555 1_555
C18_7 H14_7 1_555 1_555
H15_7 C18_7 1_555 1_555
H16_7 C18_7 1_555 1_555
C19_7 C18_7 1_555 1_555
C20_7 C19_7 1_555 1_555
H17_7 C20_7 1_555 1_555
C21_7 C20_7 1_555 1_555
C22_7 C21_7 1_555 1_555
C23_7 C22_7 1_555 1_555
H18_7 C23_7 1_555 1_555
C24_7 C23_7 1_555 1_555
H19_7 C24_7 1_555 1_555
C25_7 C24_7 1_555 1_555
C26_7 C25_7 1_555 1_555
H20_7 C26_7 1_555 1_555
C27_7 C22_7 1_555 1_555
H21_7 C27_7 1_555 1_555
C28_7 H22_7 1_555 1_555
C29_7 C30_7 1_555 1_555
C30_7 H23_7 1_555 1_555
C31_7 C30_7 1_555 1_555
H24_7 C31_7 1_555 1_555
C32_7 C31_7 1_555 1_555
H25_7 C32_7 1_555 1_555
C33_7 C32_7 1_555 1_555
H26_7 C33_7 1_555 1_555
C34_7 C29_7 1_555 1_555
C35_7 H27_7 1_555 1_555
H29_7 C35_7 1_555 1_555
C36_7 C35_7 1_555 1_555
C37_7 C36_7 1_555 1_555
H30_7 C37_7 1_555 1_555
C38_7 C37_7 1_555 1_555
C39_7 C38_7 1_555 1_555
C40_7 C39_7 1_555 1_555
H31_7 C40_7 1_555 1_555
C41_7 C40_7 1_555 1_555
H32_7 C41_7 1_555 1_555
C42_7 C41_7 1_555 1_555
C43_7 C42_7 1_555 1_555
H33_7 C43_7 1_555 1_555
C44_7 C39_7 1_555 1_555
H34_7 C44_7 1_555 1_555
C46_7 C47_7 1_555 1_555
C47_7 H36_7 1_555 1_555
C48_7 C47_7 1_555 1_555
H37_7 C48_7 1_555 1_555
C49_7 C48_7 1_555 1_555
H38_7 C49_7 1_555 1_555
C50_7 C49_7 1_555 1_555
H39_7 C50_7 1_555 1_555
C51_7 C46_7 1_555 1_555
C52_7 H40_7 1_555 1_555
H41_7 C52_7 1_555 1_555
H42_7 C52_7 1_555 1_555
C53_7 C52_7 1_555 1_555
C54_7 C53_7 1_555 1_555
H43_7 C54_7 1_555 1_555
C55_7 C54_7 1_555 1_555
N1_7 C11_7 1_555 1_555
N3_7 C28_7 1_555 1_555
N4_7 C25_7 1_555 1_555
N6_7 C42_7 1_555 1_555
O3_5 C19_7 1_555 1_555
O4_5 C21_7 1_555 1_555
O5_7 C36_7 1_555 1_555
O6_7 C38_7 1_555 1_555
O7_7 C53_7 1_555 1_555
O8_7 C55_7 1_555 1_555
Zn1_7 N1_7 1_555 1_555
Zn4 O3_5 1_555 1_555
C12_7 N1_7 1_555 1_555
C16_7 C17_7 1_555 1_555
C26_7 C27_7 1_555 1_555
C28_7 N4_7 1_555 1_555
C29_7 N3_7 1_555 1_555
C33_7 C34_7 1_555 1_555
C34_7 N4_7 1_555 1_555
C43_7 C44_7 1_555 1_555
C50_7 C51_7 1_555 1_555
C51_7 N6_7 1_555 1_555
N3_7 Zn1_7 1_555 1_555
O4_5 Zn4 1_555 1_555
O5_7 Zn1_7 1_555 1_555
O6_7 Zn1_7 1_555 1_555
O7_7 Zn1_7 1_555 1_555
O8_7 Zn1_7 1_555 1_555
C1_7 H1_7 1_555 1_555
H2_7 C1_7 1_555 1_555
H3_7 C1_7 1_555 1_555
C2_7 C1_7 1_555 1_555
C3_7 C2_7 1_555 1_555
H4_7 C3_7 1_555 1_555
C4_7 C3_7 1_555 1_555
C5_7 C4_7 1_555 1_555
C6_7 C5_7 1_555 1_555
H5_7 C6_7 1_555 1_555
C7_7 C6_7 1_555 1_555
H6_7 C7_7 1_555 1_555
C8_7 C7_7 1_555 1_555
C9_7 C8_7 1_555 1_555
H7_7 C9_7 1_555 1_555
C10_7 C5_7 1_555 1_555
C57_7 C56_7 1_555 1_555
H44_7 C57_7 1_555 1_555
C58_7 C57_7 1_555 1_555
H45_7 C58_7 1_555 1_555
C59_7 C58_7 1_555 1_555
C60_7 C59_7 1_555 1_555
H46_7 C60_7 1_555 1_555
C61_7 C56_7 1_555 1_555
H47_7 C61_7 1_555 1_555
C62_7 H48_7 1_555 1_555
C63_7 C64_7 1_555 1_555
C64_7 H49_7 1_555 1_555
C65_7 C64_7 1_555 1_555
H50_7 C65_7 1_555 1_555
C66_7 C65_7 1_555 1_555
H51_7 C66_7 1_555 1_555
C67_7 C66_7 1_555 1_555
H52_7 C67_7 1_555 1_555
C68_7 C63_7 1_555 1_555
N2_7 C8_7 1_555 1_555
N9_4 C62_7 1_555 1_555
N8_7 C59_7 1_555 1_555
O9_5 C2_7 1_555 1_555
O10_5 C4_7 1_555 1_555
C9_7 C10_7 1_555 1_555
C60_7 C61_7 1_555 1_555
C62_7 N8_7 1_555 1_555
C63_7 N9_4 1_555 1_555
C67_7 C68_7 1_555 1_555
C68_7 N8_7 1_555 1_555
C45_7 H35_7 1_555 1_555
N5_7 C45_7 1_555 1_555
Zn3 N5_7 1_555 1_555
O11_3 Zn3 1_555 1_555
O12_3 Zn3 1_555 1_555
C45_8 H35_8 1_555 1_555
N5_8 C45_8 1_555 1_555
Zn4 N5_8 1_555 1_555
C1_8 H1_8 1_555 1_555
H2_8 C1_8 1_555 1_555
H3_8 C1_8 1_555 1_555
C2_8 C1_8 1_555 1_555
C3_8 C2_8 1_555 1_555
H4_8 C3_8 1_555 1_555
C4_8 C3_8 1_555 1_555
C5_8 C4_8 1_555 1_555
C6_8 C5_8 1_555 1_555
H5_8 C6_8 1_555 1_555
C7_8 C6_8 1_555 1_555
H6_8 C7_8 1_555 1_555
C8_8 C7_8 1_555 1_555
C9_8 C8_8 1_555 1_555
H7_8 C9_8 1_555 1_555
C10_8 C5_8 1_555 1_555
C57_8 C56_8 1_555 1_555
H44_8 C57_8 1_555 1_555
C58_8 C57_8 1_555 1_555
H45_8 C58_8 1_555 1_555
C59_8 C58_8 1_555 1_555
C60_8 C59_8 1_555 1_555
H46_8 C60_8 1_555 1_555
C61_8 C56_8 1_555 1_555
H47_8 C61_8 1_555 1_555
C62_8 H48_8 1_555 1_555
C63_8 C64_8 1_555 1_555
C64_8 H49_8 1_555 1_555
C65_8 C64_8 1_555 1_555
H50_8 C65_8 1_555 1_555
C66_8 C65_8 1_555 1_555
H51_8 C66_8 1_555 1_555
C67_8 C66_8 1_555 1_555
H52_8 C67_8 1_555 1_555
C68_8 C63_8 1_555 1_555
N2_8 C8_8 1_555 1_555
N9_5 C62_8 1_555 1_555
N8_8 C59_8 1_555 1_555
O9_6 C2_8 1_555 1_555
O10_6 C4_8 1_555 1_555
C9_8 C10_8 1_555 1_555
C60_8 C61_8 1_555 1_555
C62_8 N8_8 1_555 1_555
C63_8 N9_5 1_555 1_555
C67_8 C68_8 1_555 1_555
C68_8 N8_8 1_555 1_555
C18_8 H14_8 1_555 1_555
H16_8 C18_8 1_555 1_555
C19_8 C18_8 1_555 1_555
C20_8 C19_8 1_555 1_555
H17_8 C20_8 1_555 1_555
C21_8 C20_8 1_555 1_555
C22_8 C21_8 1_555 1_555
C23_8 C22_8 1_555 1_555
H18_8 C23_8 1_555 1_555
C24_8 C23_8 1_555 1_555
H19_8 C24_8 1_555 1_555
C25_8 C24_8 1_555 1_555
C26_8 C25_8 1_555 1_555
H20_8 C26_8 1_555 1_555
C27_8 C22_8 1_555 1_555
H21_8 C27_8 1_555 1_555
C29_8 C30_8 1_555 1_555
C30_8 H23_8 1_555 1_555
C31_8 C30_8 1_555 1_555
H24_8 C31_8 1_555 1_555
C32_8 C31_8 1_555 1_555
H25_8 C32_8 1_555 1_555
C33_8 C32_8 1_555 1_555
H26_8 C33_8 1_555 1_555
C34_8 C29_8 1_555 1_555
N4_8 C25_8 1_555 1_555
O3_6 C19_8 1_555 1_555
O4_6 C21_8 1_555 1_555
Zn4_2 O3_6 1_555 1_555
C26_8 C27_8 1_555 1_555
C33_8 C34_8 1_555 1_555
C34_8 N4_8 1_555 1_555
O4_6 Zn4_2 1_555 1_555
C18_9 H14_9 1_555 1_555
H16_9 C18_9 1_555 1_555
C19_9 C18_9 1_555 1_555
C20_9 C19_9 1_555 1_555
H17_9 C20_9 1_555 1_555
C21_9 C20_9 1_555 1_555
C22_9 C21_9 1_555 1_555
C23_9 C22_9 1_555 1_555
H18_9 C23_9 1_555 1_555
C24_9 C23_9 1_555 1_555
H19_9 C24_9 1_555 1_555
C25_9 C24_9 1_555 1_555
C26_9 C25_9 1_555 1_555
H20_9 C26_9 1_555 1_555
C27_9 C22_9 1_555 1_555
H21_9 C27_9 1_555 1_555
C29_9 C30_9 1_555 1_555
C30_9 H23_9 1_555 1_555
C31_9 C30_9 1_555 1_555
H24_9 C31_9 1_555 1_555
C32_9 C31_9 1_555 1_555
H25_9 C32_9 1_555 1_555
C33_9 C32_9 1_555 1_555
H26_9 C33_9 1_555 1_555
C34_9 C29_9 1_555 1_555
N4_9 C25_9 1_555 1_555
O11_3 C19_9 1_555 1_555
O12_3 C21_9 1_555 1_555
C26_9 C27_9 1_555 1_555
C33_9 C34_9 1_555 1_555
C34_9 N4_9 1_555 1_555
C12_8 C13_8 1_555 1_555
C13_8 H10_8 1_555 1_555
C14_8 C13_8 1_555 1_555
H11_8 C14_8 1_555 1_555
C15_8 C14_8 1_555 1_555
H12_8 C15_8 1_555 1_555
C16_8 C15_8 1_555 1_555
C17_8 C12_8 1_555 1_555
C28_8 H22_8 1_555 1_555
C35_8 H27_8 1_555 1_555
H28_9 C35_8 1_555 1_555
H29_8 C35_8 1_555 1_555
C36_8 C35_8 1_555 1_555
C37_8 C36_8 1_555 1_555
H30_8 C37_8 1_555 1_555
C38_8 C37_8 1_555 1_555
C39_8 C38_8 1_555 1_555
C40_8 C39_8 1_555 1_555
H31_8 C40_8 1_555 1_555
C41_8 C40_8 1_555 1_555
H32_8 C41_8 1_555 1_555
C42_8 C41_8 1_555 1_555
C43_8 C42_8 1_555 1_555
H33_8 C43_8 1_555 1_555
C44_8 C39_8 1_555 1_555
H34_8 C44_8 1_555 1_555
C45_9 H35_9 1_555 1_555
C46_8 C47_8 1_555 1_555
C47_8 H36_8 1_555 1_555
C48_8 C47_8 1_555 1_555
H37_8 C48_8 1_555 1_555
C49_8 C48_8 1_555 1_555
H38_8 C49_8 1_555 1_555
C50_8 C49_8 1_555 1_555
H39_8 C50_8 1_555 1_555
C51_8 C46_8 1_555 1_555
C52_8 H40_8 1_555 1_555
H41_8 C52_8 1_555 1_555
H42_8 C52_8 1_555 1_555
C53_8 C52_8 1_555 1_555
C54_8 C53_8 1_555 1_555
H43_8 C54_8 1_555 1_555
C55_8 C54_8 1_555 1_555
N1_8 C11_8 1_555 1_555
N3_8 C28_8 1_555 1_555
N5_9 C45_9 1_555 1_555
N6_8 C42_8 1_555 1_555
O5_8 C36_8 1_555 1_555
O6_8 C38_8 1_555 1_555
O7_8 C53_8 1_555 1_555
O8_8 C55_8 1_555 1_555
Zn1_8 N1_8 1_555 1_555
Zn4_2 N5_9 1_555 1_555
C12_8 N1_8 1_555 1_555
C16_8 C17_8 1_555 1_555
C43_8 C44_8 1_555 1_555
C45_9 N6_8 1_555 1_555
C46_8 N5_9 1_555 1_555
C50_8 C51_8 1_555 1_555
C51_8 N6_8 1_555 1_555
N3_8 Zn1_8 1_555 1_555
O5_8 Zn1_8 1_555 1_555
O6_8 Zn1_8 1_555 1_555
O7_8 Zn1_8 1_555 1_555
O8_8 Zn1_8 1_555 1_555
C1_9 H1_9 1_555 1_555
H2_9 C1_9 1_555 1_555
H3_9 C1_9 1_555 1_555
C2_9 C1_9 1_555 1_555
C3_9 C2_9 1_555 1_555
H4_9 C3_9 1_555 1_555
C4_9 C3_9 1_555 1_555
C5_9 C4_9 1_555 1_555
C6_9 C5_9 1_555 1_555
H5_9 C6_9 1_555 1_555
C7_9 C6_9 1_555 1_555
H6_9 C7_9 1_555 1_555
C8_9 C7_9 1_555 1_555
C9_9 C8_9 1_555 1_555
H7_9 C9_9 1_555 1_555
C10_9 C5_9 1_555 1_555
H8_7 C10_9 1_555 1_555
C57_9 C56_9 1_555 1_555
H44_9 C57_9 1_555 1_555
C58_9 C57_9 1_555 1_555
H45_9 C58_9 1_555 1_555
C59_9 C58_9 1_555 1_555
C60_9 C59_9 1_555 1_555
H46_9 C60_9 1_555 1_555
C61_9 C56_9 1_555 1_555
H47_9 C61_9 1_555 1_555
C62_9 H48_9 1_555 1_555
C63_9 C64_9 1_555 1_555
C64_9 H49_9 1_555 1_555
C65_9 C64_9 1_555 1_555
H50_9 C65_9 1_555 1_555
C66_9 C65_9 1_555 1_555
H51_9 C66_9 1_555 1_555
C67_9 C66_9 1_555 1_555
H52_9 C67_9 1_555 1_555
C68_9 C63_9 1_555 1_555
N2_9 C8_9 1_555 1_555
N9_6 C62_9 1_555 1_555
N8_9 C59_9 1_555 1_555
O9_4 C2_9 1_555 1_555
O10_4 C4_9 1_555 1_555
C9_9 C10_9 1_555 1_555
C60_9 C61_9 1_555 1_555
C62_9 N8_9 1_555 1_555
C63_9 N9_6 1_555 1_555
C67_9 C68_9 1_555 1_555
C68_9 N8_9 1_555 1_555
C12_9 C13_9 1_555 1_555
C13_9 H10_9 1_555 1_555
C14_9 C13_9 1_555 1_555
H11_9 C14_9 1_555 1_555
C15_9 C14_9 1_555 1_555
H12_9 C15_9 1_555 1_555
C16_9 C15_9 1_555 1_555
C17_9 C12_9 1_555 1_555
C28_9 H22_9 1_555 1_555
C35_9 H27_9 1_555 1_555
H29_9 C35_9 1_555 1_555
C36_9 C35_9 1_555 1_555
C37_9 C36_9 1_555 1_555
H30_9 C37_9 1_555 1_555
C38_9 C37_9 1_555 1_555
C39_9 C38_9 1_555 1_555
C40_9 C39_9 1_555 1_555
H31_9 C40_9 1_555 1_555
C41_9 C40_9 1_555 1_555
H32_9 C41_9 1_555 1_555
C42_9 C41_9 1_555 1_555
C43_9 C42_9 1_555 1_555
H33_9 C43_9 1_555 1_555
C44_9 C39_9 1_555 1_555
H34_9 C44_9 1_555 1_555
C46_9 C47_9 1_555 1_555
C47_9 H36_9 1_555 1_555
C48_9 C47_9 1_555 1_555
H37_9 C48_9 1_555 1_555
C49_9 C48_9 1_555 1_555
H38_9 C49_9 1_555 1_555
C50_9 C49_9 1_555 1_555
H39_9 C50_9 1_555 1_555
C51_9 C46_9 1_555 1_555
C52_9 H40_9 1_555 1_555
H41_9 C52_9 1_555 1_555
H42_9 C52_9 1_555 1_555
C53_9 C52_9 1_555 1_555
C54_9 C53_9 1_555 1_555
H43_9 C54_9 1_555 1_555
C55_9 C54_9 1_555 1_555
N1_9 C11_9 1_555 1_555
N3_9 C28_9 1_555 1_555
N6_9 C42_9 1_555 1_555
O5_9 C36_9 1_555 1_555
O6_9 C38_9 1_555 1_555
O7_9 C53_9 1_555 1_555
O8_9 C55_9 1_555 1_555
Zn1_9 N1_9 1_555 1_555
C12_9 N1_9 1_555 1_555
C16_9 C17_9 1_555 1_555
C43_9 C44_9 1_555 1_555
C50_9 C51_9 1_555 1_555
C51_9 N6_9 1_555 1_555
N3_9 Zn1_9 1_555 1_555
O5_9 Zn1_9 1_555 1_555
O6_9 Zn1_9 1_555 1_555
O7_9 Zn1_9 1_555 1_555
O8_9 Zn1_9 1_555 1_555
C18_10 H14_10 1_555 1_555
H15_10 C18_10 1_555 1_555
H16_10 C18_10 1_555 1_555
C19_10 C18_10 1_555 1_555
C20_10 C19_10 1_555 1_555
H17_10 C20_10 1_555 1_555
C21_10 C20_10 1_555 1_555
C22_10 C21_10 1_555 1_555
C23_10 C22_10 1_555 1_555
H18_10 C23_10 1_555 1_555
C24_10 C23_10 1_555 1_555
H19_10 C24_10 1_555 1_555
C25_10 C24_10 1_555 1_555
C26_10 C25_10 1_555 1_555
H20_10 C26_10 1_555 1_555
C27_10 C22_10 1_555 1_555
H21_10 C27_10 1_555 1_555
C28_10 H22_10 1_555 1_555
C29_10 C30_10 1_555 1_555
C30_10 H23_10 1_555 1_555
C31_10 C30_10 1_555 1_555
H24_10 C31_10 1_555 1_555
C32_10 C31_10 1_555 1_555
H25_10 C32_10 1_555 1_555
C33_10 C32_10 1_555 1_555
H26_10 C33_10 1_555 1_555
C34_10 C29_10 1_555 1_555
C35_10 H27_10 1_555 1_555
H28_10 C35_10 1_555 1_555
H29_10 C35_10 1_555 1_555
C36_10 C35_10 1_555 1_555
C37_10 C36_10 1_555 1_555
H30_10 C37_10 1_555 1_555
C38_10 C37_10 1_555 1_555
C39_10 C38_10 1_555 1_555
C40_10 C39_10 1_555 1_555
H31_10 C40_10 1_555 1_555
C41_10 C40_10 1_555 1_555
H32_10 C41_10 1_555 1_555
C42_10 C41_10 1_555 1_555
C43_10 C42_10 1_555 1_555
H33_10 C43_10 1_555 1_555
C44_10 C39_10 1_555 1_555
H34_10 C44_10 1_555 1_555
C45_10 H35_10 1_555 1_555
C46_10 C47_10 1_555 1_555
C47_10 H36_10 1_555 1_555
C48_10 C47_10 1_555 1_555
H37_10 C48_10 1_555 1_555
C49_10 C48_10 1_555 1_555
H38_10 C49_10 1_555 1_555
C50_10 C49_10 1_555 1_555
H39_10 C50_10 1_555 1_555
C51_10 C46_10 1_555 1_555
N3_10 C28_10 1_555 1_555
N4_10 C25_10 1_555 1_555
N5_10 C45_10 1_555 1_555
N6_10 C42_10 1_555 1_555
O3_7 C19_10 1_555 1_555
O4_7 C21_10 1_555 1_555
O5_10 C36_10 1_555 1_555
O6_10 C38_10 1_555 1_555
Zn2_3 N5_10 1_555 1_555
N9_7 Zn2_3 1_555 1_555
O9_7 Zn2_3 1_555 1_555
O10_7 Zn2_3 1_555 1_555
O11_4 Zn2_3 1_555 1_555
O12_4 Zn2_3 1_555 1_555
Zn5_5 O3_7 1_555 1_555
C26_10 C27_10 1_555 1_555
C28_10 N4_10 1_555 1_555
C29_10 N3_10 1_555 1_555
C33_10 C34_10 1_555 1_555
C34_10 N4_10 1_555 1_555
C43_10 C44_10 1_555 1_555
C45_10 N6_10 1_555 1_555
C46_10 N5_10 1_555 1_555
C50_10 C51_10 1_555 1_555
C51_10 N6_10 1_555 1_555
O4_7 Zn5_5 1_555 1_555
C1_10 H1_10 1_555 1_555
H2_10 C1_10 1_555 1_555
H3_10 C1_10 1_555 1_555
C2_10 C1_10 1_555 1_555
C3_10 C2_10 1_555 1_555
H4_10 C3_10 1_555 1_555
C4_10 C3_10 1_555 1_555
C5_10 C4_10 1_555 1_555
C6_10 C5_10 1_555 1_555
H5_10 C6_10 1_555 1_555
C7_10 C6_10 1_555 1_555
H6_10 C7_10 1_555 1_555
C8_10 C7_10 1_555 1_555
C9_10 C8_10 1_555 1_555
H7_10 C9_10 1_555 1_555
C10_10 C5_10 1_555 1_555
H8_10 C10_10 1_555 1_555
C11_10 H9_10 1_555 1_555
C12_10 C13_10 1_555 1_555
C13_10 H10_10 1_555 1_555
C14_10 C13_10 1_555 1_555
H11_10 C14_10 1_555 1_555
C15_10 C14_10 1_555 1_555
H12_10 C15_10 1_555 1_555
C16_10 C15_10 1_555 1_555
H13_10 C16_10 1_555 1_555
C17_10 C12_10 1_555 1_555
C52_10 H40_10 1_555 1_555
H41_10 C52_10 1_555 1_555
H42_10 C52_10 1_555 1_555
C53_10 C52_10 1_555 1_555
C54_10 C53_10 1_555 1_555
H43_10 C54_10 1_555 1_555
C55_10 C54_10 1_555 1_555
C56_10 C55_10 1_555 1_555
C57_10 C56_10 1_555 1_555
H44_10 C57_10 1_555 1_555
C58_10 C57_10 1_555 1_555
H45_10 C58_10 1_555 1_555
C59_10 C58_10 1_555 1_555
C60_10 C59_10 1_555 1_555
H46_10 C60_10 1_555 1_555
C61_10 C56_10 1_555 1_555
C62_10 H48_10 1_555 1_555
C63_10 C64_10 1_555 1_555
C64_10 H49_10 1_555 1_555
C65_10 C64_10 1_555 1_555
H50_10 C65_10 1_555 1_555
C66_10 C65_10 1_555 1_555
H51_10 C66_10 1_555 1_555
C67_10 C66_10 1_555 1_555
H52_10 C67_10 1_555 1_555
C68_10 C63_10 1_555 1_555
N1_10 C11_10 1_555 1_555
N2_10 C8_10 1_555 1_555
N7_4 C62_10 1_555 1_555
N8_10 C59_10 1_555 1_555
O1_4 C2_10 1_555 1_555
O2_4 C4_10 1_555 1_555
O7_10 C53_10 1_555 1_555
O8_10 C55_10 1_555 1_555
Zn1_10 N1_10 1_555 1_555
Zn3_2 N7_4 1_555 1_555
Zn4_3 O1_4 1_555 1_555
C9_10 C10_10 1_555 1_555
C11_10 N2_10 1_555 1_555
C12_10 N1_10 1_555 1_555
C16_10 C17_10 1_555 1_555
C17_10 N2_10 1_555 1_555
C60_10 C61_10 1_555 1_555
C62_10 N8_10 1_555 1_555
C63_10 N7_4 1_555 1_555
C67_10 C68_10 1_555 1_555
C68_10 N8_10 1_555 1_555
O2_4 Zn4_3 1_555 1_555
O7_10 Zn1_10 1_555 1_555
O8_10 Zn1_10 1_555 1_555
C1_11 H1_11 1_555 1_555
H2_11 C1_11 1_555 1_555
H3_11 C1_11 1_555 1_555
C2_11 C1_11 1_555 1_555
C3_11 C2_11 1_555 1_555
H4_11 C3_11 1_555 1_555
C4_11 C3_11 1_555 1_555
C5_11 C4_11 1_555 1_555
C6_11 C5_11 1_555 1_555
H5_11 C6_11 1_555 1_555
C7_11 C6_11 1_555 1_555
H6_11 C7_11 1_555 1_555
C8_11 C7_11 1_555 1_555
C9_11 C8_11 1_555 1_555
H7_11 C9_11 1_555 1_555
C10_11 C5_11 1_555 1_555
H8_11 C10_11 1_555 1_555
C11_11 H9_11 1_555 1_555
C12_11 C13_11 1_555 1_555
C13_11 H10_11 1_555 1_555
C14_11 C13_11 1_555 1_555
H11_11 C14_11 1_555 1_555
C15_11 C14_11 1_555 1_555
H12_11 C15_11 1_555 1_555
C16_11 C15_11 1_555 1_555
H13_11 C16_11 1_555 1_555
C17_11 C12_11 1_555 1_555
C18_11 H14_11 1_555 1_555
H15_11 C18_11 1_555 1_555
H16_11 C18_11 1_555 1_555
C19_11 C18_11 1_555 1_555
C20_11 C19_11 1_555 1_555
H17_11 C20_11 1_555 1_555
C21_11 C20_11 1_555 1_555
C22_11 C21_11 1_555 1_555
C23_11 C22_11 1_555 1_555
H18_11 C23_11 1_555 1_555
C24_11 C23_11 1_555 1_555
H19_11 C24_11 1_555 1_555
C25_11 C24_11 1_555 1_555
C26_11 C25_11 1_555 1_555
H20_11 C26_11 1_555 1_555
C27_11 C22_11 1_555 1_555
H21_11 C27_11 1_555 1_555
C28_11 H22_11 1_555 1_555
C29_11 C30_11 1_555 1_555
C30_11 H23_11 1_555 1_555
C31_11 C30_11 1_555 1_555
H24_11 C31_11 1_555 1_555
C32_11 C31_11 1_555 1_555
H25_11 C32_11 1_555 1_555
C33_11 C32_11 1_555 1_555
H26_11 C33_11 1_555 1_555
C34_11 C29_11 1_555 1_555
C35_11 H27_11 1_555 1_555
H28_11 C35_11 1_555 1_555
H29_11 C35_11 1_555 1_555
C36_11 C35_11 1_555 1_555
C37_11 C36_11 1_555 1_555
H30_11 C37_11 1_555 1_555
C38_11 C37_11 1_555 1_555
C39_11 C38_11 1_555 1_555
C40_11 C39_11 1_555 1_555
H31_11 C40_11 1_555 1_555
C41_11 C40_11 1_555 1_555
H32_11 C41_11 1_555 1_555
C42_11 C41_11 1_555 1_555
C43_11 C42_11 1_555 1_555
H33_11 C43_11 1_555 1_555
C44_11 C39_11 1_555 1_555
H34_11 C44_11 1_555 1_555
C45_11 H35_11 1_555 1_555
C46_11 C47_11 1_555 1_555
C47_11 H36_11 1_555 1_555
C48_11 C47_11 1_555 1_555
H37_11 C48_11 1_555 1_555
C49_11 C48_11 1_555 1_555
H38_11 C49_11 1_555 1_555
C50_11 C49_11 1_555 1_555
H39_11 C50_11 1_555 1_555
C51_11 C46_11 1_555 1_555
C52_11 H40_11 1_555 1_555
H41_11 C52_11 1_555 1_555
H42_11 C52_11 1_555 1_555
C53_11 C52_11 1_555 1_555
C54_11 C53_11 1_555 1_555
H43_11 C54_11 1_555 1_555
C55_11 C54_11 1_555 1_555
C56_11 C55_11 1_555 1_555
C57_11 C56_11 1_555 1_555
H44_11 C57_11 1_555 1_555
C58_11 C57_11 1_555 1_555
H45_11 C58_11 1_555 1_555
C59_11 C58_11 1_555 1_555
C60_11 C59_11 1_555 1_555
H46_11 C60_11 1_555 1_555
C61_11 C56_11 1_555 1_555
H47_11 C61_11 1_555 1_555
C62_11 H48_11 1_555 1_555
C63_11 C64_11 1_555 1_555
C64_11 H49_11 1_555 1_555
C65_11 C64_11 1_555 1_555
H50_11 C65_11 1_555 1_555
C66_11 C65_11 1_555 1_555
H51_11 C66_11 1_555 1_555
C67_11 C66_11 1_555 1_555
H52_11 C67_11 1_555 1_555
C68_11 C63_11 1_555 1_555
N1_11 C11_11 1_555 1_555
N2_11 C8_11 1_555 1_555
N3_11 C28_11 1_555 1_555
N4_11 C25_11 1_555 1_555
N5_11 C45_11 1_555 1_555
N6_11 C42_11 1_555 1_555
N7_5 C62_11 1_555 1_555
N8_11 C59_11 1_555 1_555
O1_5 C2_11 1_555 1_555
O2_5 C4_11 1_555 1_555
O3_8 C19_11 1_555 1_555
O4_8 C21_11 1_555 1_555
O5_11 C36_11 1_555 1_555
O6_11 C38_11 1_555 1_555
O7_11 C53_11 1_555 1_555
O8_11 C55_11 1_555 1_555
Zn1_11 N1_11 1_555 1_555
Zn5_5 N5_11 1_555 1_555
N9_8 Zn5_5 1_555 1_555
O9_8 Zn5_5 1_555 1_555
O10_8 Zn5_5 1_555 1_555
Zn4_3 N7_5 1_555 1_555
Zn4_4 O1_5 1_555 1_555
Zn5_6 O3_8 1_555 1_555
C9_11 C10_11 1_555 1_555
C11_11 N2_11 1_555 1_555
C12_11 N1_11 1_555 1_555
C16_11 C17_11 1_555 1_555
C17_11 N2_11 1_555 1_555
C26_11 C27_11 1_555 1_555
C28_11 N4_11 1_555 1_555
C29_11 N3_11 1_555 1_555
C33_11 C34_11 1_555 1_555
C34_11 N4_11 1_555 1_555
C43_11 C44_11 1_555 1_555
C45_11 N6_11 1_555 1_555
C46_11 N5_11 1_555 1_555
C50_11 C51_11 1_555 1_555
C51_11 N6_11 1_555 1_555
C60_11 C61_11 1_555 1_555
C62_11 N8_11 1_555 1_555
C63_11 N7_5 1_555 1_555
C67_11 C68_11 1_555 1_555
C68_11 N8_11 1_555 1_555
N3_11 Zn1_11 1_555 1_555
O2_5 Zn4_4 1_555 1_555
O4_8 Zn5_6 1_555 1_555
O5_11 Zn1_11 1_555 1_555
O6_11 Zn1_11 1_555 1_555
O7_11 Zn1_11 1_555 1_555
O8_11 Zn1_11 1_555 1_555
C1_12 H1_12 1_555 1_555
H2_12 C1_12 1_555 1_555
H3_12 C1_12 1_555 1_555
C2_12 C1_12 1_555 1_555
C3_12 C2_12 1_555 1_555
H4_12 C3_12 1_555 1_555
C4_12 C3_12 1_555 1_555
C5_12 C4_12 1_555 1_555
C6_12 C5_12 1_555 1_555
H5_12 C6_12 1_555 1_555
C7_12 C6_12 1_555 1_555
H6_12 C7_12 1_555 1_555
C8_12 C7_12 1_555 1_555
C9_12 C8_12 1_555 1_555
H7_12 C9_12 1_555 1_555
C10_12 C5_12 1_555 1_555
H8_12 C10_12 1_555 1_555
C11_12 H9_12 1_555 1_555
C12_12 C13_12 1_555 1_555
C13_12 H10_12 1_555 1_555
C14_12 C13_12 1_555 1_555
H11_12 C14_12 1_555 1_555
C15_12 C14_12 1_555 1_555
H12_12 C15_12 1_555 1_555
C16_12 C15_12 1_555 1_555
H13_12 C16_12 1_555 1_555
C17_12 C12_12 1_555 1_555
C52_12 H40_12 1_555 1_555
H41_12 C52_12 1_555 1_555
H42_12 C52_12 1_555 1_555
C53_12 C52_12 1_555 1_555
C54_12 C53_12 1_555 1_555
H43_12 C54_12 1_555 1_555
C55_12 C54_12 1_555 1_555
C56_12 C55_12 1_555 1_555
C57_12 C56_12 1_555 1_555
H44_12 C57_12 1_555 1_555
C58_12 C57_12 1_555 1_555
H45_12 C58_12 1_555 1_555
C59_12 C58_12 1_555 1_555
C60_12 C59_12 1_555 1_555
H46_12 C60_12 1_555 1_555
C61_12 C56_12 1_555 1_555
C62_12 H48_12 1_555 1_555
C63_12 C64_12 1_555 1_555
C64_12 H49_12 1_555 1_555
C65_12 C64_12 1_555 1_555
H50_12 C65_12 1_555 1_555
C66_12 C65_12 1_555 1_555
H51_12 C66_12 1_555 1_555
C67_12 C66_12 1_555 1_555
H52_12 C67_12 1_555 1_555
C68_12 C63_12 1_555 1_555
N1_12 C11_12 1_555 1_555
N2_12 C8_12 1_555 1_555
N7_6 C62_12 1_555 1_555
N8_12 C59_12 1_555 1_555
O1_6 C2_12 1_555 1_555
O2_6 C4_12 1_555 1_555
O7_12 C53_12 1_555 1_555
O8_12 C55_12 1_555 1_555
Zn1_12 N1_12 1_555 1_555
Zn4_4 N7_6 1_555 1_555
Zn3_2 O1_6 1_555 1_555
C9_12 C10_12 1_555 1_555
C11_12 N2_12 1_555 1_555
C12_12 N1_12 1_555 1_555
C16_12 C17_12 1_555 1_555
C17_12 N2_12 1_555 1_555
C60_12 C61_12 1_555 1_555
C62_12 N8_12 1_555 1_555
C63_12 N7_6 1_555 1_555
C67_12 C68_12 1_555 1_555
C68_12 N8_12 1_555 1_555
O2_6 Zn3_2 1_555 1_555
O7_12 Zn1_12 1_555 1_555
O8_12 Zn1_12 1_555 1_555
C18_12 H14_12 1_555 1_555
H15_12 C18_12 1_555 1_555
H16_12 C18_12 1_555 1_555
C19_12 C18_12 1_555 1_555
C20_12 C19_12 1_555 1_555
H17_12 C20_12 1_555 1_555
C21_12 C20_12 1_555 1_555
C22_12 C21_12 1_555 1_555
C23_12 C22_12 1_555 1_555
H18_12 C23_12 1_555 1_555
C24_12 C23_12 1_555 1_555
H19_12 C24_12 1_555 1_555
C25_12 C24_12 1_555 1_555
C26_12 C25_12 1_555 1_555
H20_12 C26_12 1_555 1_555
C27_12 C22_12 1_555 1_555
H21_12 C27_12 1_555 1_555
C28_12 H22_12 1_555 1_555
C29_12 C30_12 1_555 1_555
C30_12 H23_12 1_555 1_555
C31_12 C30_12 1_555 1_555
H24_12 C31_12 1_555 1_555
C32_12 C31_12 1_555 1_555
H25_12 C32_12 1_555 1_555
C33_12 C32_12 1_555 1_555
H26_12 C33_12 1_555 1_555
C34_12 C29_12 1_555 1_555
C35_12 H27_12 1_555 1_555
H28_12 C35_12 1_555 1_555
H29_12 C35_12 1_555 1_555
C36_12 C35_12 1_555 1_555
C37_12 C36_12 1_555 1_555
H30_12 C37_12 1_555 1_555
C38_12 C37_12 1_555 1_555
C39_12 C38_12 1_555 1_555
C40_12 C39_12 1_555 1_555
H31_12 C40_12 1_555 1_555
C41_12 C40_12 1_555 1_555
H32_12 C41_12 1_555 1_555
C42_12 C41_12 1_555 1_555
C43_12 C42_12 1_555 1_555
H33_12 C43_12 1_555 1_555
C44_12 C39_12 1_555 1_555
H34_12 C44_12 1_555 1_555
C45_12 H35_12 1_555 1_555
C46_12 C47_12 1_555 1_555
C47_12 H36_12 1_555 1_555
C48_12 C47_12 1_555 1_555
H37_12 C48_12 1_555 1_555
C49_12 C48_12 1_555 1_555
H38_12 C49_12 1_555 1_555
C50_12 C49_12 1_555 1_555
H39_12 C50_12 1_555 1_555
C51_12 C46_12 1_555 1_555
N3_12 C28_12 1_555 1_555
N4_12 C25_12 1_555 1_555
N5_12 C45_12 1_555 1_555
N6_12 C42_12 1_555 1_555
O11_4 C19_12 1_555 1_555
O12_4 C21_12 1_555 1_555
O5_12 C36_12 1_555 1_555
O6_12 C38_12 1_555 1_555
Zn5_6 N5_12 1_555 1_555
N9_9 Zn5_6 1_555 1_555
O9_9 Zn5_6 1_555 1_555
O10_9 Zn5_6 1_555 1_555
C26_12 C27_12 1_555 1_555
C28_12 N4_12 1_555 1_555
C29_12 N3_12 1_555 1_555
C33_12 C34_12 1_555 1_555
C34_12 N4_12 1_555 1_555
C43_12 C44_12 1_555 1_555
C45_12 N6_12 1_555 1_555
C46_12 N5_12 1_555 1_555
C50_12 C51_12 1_555 1_555
C51_12 N6_12 1_555 1_555
C1_13 H1_13 1_555 1_555
H2_13 C1_13 1_555 1_555
H3_13 C1_13 1_555 1_555
C2_13 C1_13 1_555 1_555
C3_13 C2_13 1_555 1_555
H4_13 C3_13 1_555 1_555
C4_13 C3_13 1_555 1_555
C5_13 C4_13 1_555 1_555
C6_13 C5_13 1_555 1_555
H5_13 C6_13 1_555 1_555
C7_13 C6_13 1_555 1_555
H6_13 C7_13 1_555 1_555
C8_13 C7_13 1_555 1_555
C9_13 C8_13 1_555 1_555
H7_13 C9_13 1_555 1_555
C10_13 C5_13 1_555 1_555
H8_13 C10_13 1_555 1_555
C11_13 H9_13 1_555 1_555
C12_13 C13_13 1_555 1_555
C13_13 H10_13 1_555 1_555
C14_13 C13_13 1_555 1_555
H11_13 C14_13 1_555 1_555
C15_13 C14_13 1_555 1_555
H12_13 C15_13 1_555 1_555
C16_13 C15_13 1_555 1_555
H13_13 C16_13 1_555 1_555
C17_13 C12_13 1_555 1_555
C18_13 H14_13 1_555 1_555
H15_13 C18_13 1_555 1_555
H16_13 C18_13 1_555 1_555
C19_13 C18_13 1_555 1_555
C20_13 C19_13 1_555 1_555
H17_13 C20_13 1_555 1_555
C21_13 C20_13 1_555 1_555
C22_13 C21_13 1_555 1_555
C23_13 C22_13 1_555 1_555
H18_13 C23_13 1_555 1_555
C24_13 C23_13 1_555 1_555
H19_13 C24_13 1_555 1_555
C25_13 C24_13 1_555 1_555
C26_13 C25_13 1_555 1_555
H20_13 C26_13 1_555 1_555
C27_13 C22_13 1_555 1_555
C28_13 H22_13 1_555 1_555
C29_13 C30_13 1_555 1_555
C30_13 H23_13 1_555 1_555
C31_13 C30_13 1_555 1_555
H24_13 C31_13 1_555 1_555
C32_13 C31_13 1_555 1_555
H25_13 C32_13 1_555 1_555
C33_13 C32_13 1_555 1_555
H26_13 C33_13 1_555 1_555
C34_13 C29_13 1_555 1_555
C35_13 H27_13 1_555 1_555
H28_13 C35_13 1_555 1_555
H29_13 C35_13 1_555 1_555
C36_13 C35_13 1_555 1_555
C37_13 C36_13 1_555 1_555
H30_13 C37_13 1_555 1_555
C38_13 C37_13 1_555 1_555
C39_13 C38_13 1_555 1_555
C40_13 C39_13 1_555 1_555
H31_13 C40_13 1_555 1_555
C41_13 C40_13 1_555 1_555
H32_13 C41_13 1_555 1_555
C42_13 C41_13 1_555 1_555
C43_13 C42_13 1_555 1_555
H33_13 C43_13 1_555 1_555
C44_13 C39_13 1_555 1_555
H34_13 C44_13 1_555 1_555
C45_13 H35_13 1_555 1_555
C46_13 C47_13 1_555 1_555
C47_13 H36_13 1_555 1_555
C48_13 C47_13 1_555 1_555
H37_13 C48_13 1_555 1_555
C49_13 C48_13 1_555 1_555
H38_13 C49_13 1_555 1_555
C50_13 C49_13 1_555 1_555
H39_13 C50_13 1_555 1_555
C51_13 C46_13 1_555 1_555
H41_13 C52_13 1_555 1_555
C53_13 C52_13 1_555 1_555
C54_13 C53_13 1_555 1_555
C55_13 C54_13 1_555 1_555
C56_13 C55_13 1_555 1_555
H46_13 C60_13 1_555 1_555
C61_13 C56_13 1_555 1_555
H47_13 C61_13 1_555 1_555
C65_13 C64_13 1_555 1_555
H50_13 C65_13 1_555 1_555
C66_13 C65_13 1_555 1_555
H51_13 C66_13 1_555 1_555
C67_13 C66_13 1_555 1_555
H52_13 C67_13 1_555 1_555
N1_13 C11_13 1_555 1_555
N2_13 C8_13 1_555 1_555
N3_13 C28_13 1_555 1_555
N4_13 C25_13 1_555 1_555
N5_13 C45_13 1_555 1_555
N6_13 C42_13 1_555 1_555
O9_8 C2_13 1_555 1_555
O10_8 C4_13 1_555 1_555
O3_9 C19_13 1_555 1_555
O4_9 C21_13 1_555 1_555
O5_13 C36_13 1_555 1_555
O6_13 C38_13 1_555 1_555
O7_13 C53_13 1_555 1_555
O8_13 C55_13 1_555 1_555
Zn1_13 N1_13 1_555 1_555
Zn2_4 N5_13 1_555 1_555
N9_10 Zn2_4 1_555 1_555
O9_10 Zn2_4 1_555 1_555
O10_10 Zn2_4 1_555 1_555
O11_5 Zn2_4 1_555 1_555
O12_5 Zn2_4 1_555 1_555
C9_13 C10_13 1_555 1_555
C11_13 N2_13 1_555 1_555
C12_13 N1_13 1_555 1_555
C16_13 C17_13 1_555 1_555
C17_13 N2_13 1_555 1_555
C26_13 C27_13 1_555 1_555
C28_13 N4_13 1_555 1_555
C29_13 N3_13 1_555 1_555
C33_13 C34_13 1_555 1_555
C34_13 N4_13 1_555 1_555
C43_13 C44_13 1_555 1_555
C45_13 N6_13 1_555 1_555
C46_13 N5_13 1_555 1_555
C50_13 C51_13 1_555 1_555
C51_13 N6_13 1_555 1_555
C60_13 C61_13 1_555 1_555
C67_13 C68_13 1_555 1_555
N3_13 Zn1_13 1_555 1_555
O5_13 Zn1_13 1_555 1_555
O6_13 Zn1_13 1_555 1_555
O7_13 Zn1_13 1_555 1_555
O8_13 Zn1_13 1_555 1_555
H44_13 C57_13 1_555 1_555
C58_13 C57_13 1_555 1_555
H45_13 C58_13 1_555 1_555
C59_13 C58_13 1_555 1_555
C62_13 H48_13 1_555 1_555
N9_7 C62_13 1_555 1_555
N8_13 C59_13 1_555 1_555
C62_13 N8_13 1_555 1_555
C63_13 N9_7 1_555 1_555
H44_14 C57_14 1_555 1_555
C58_14 C57_14 1_555 1_555
H45_14 C58_14 1_555 1_555
C59_14 C58_14 1_555 1_555
C62_14 H48_14 1_555 1_555
N9_8 C62_14 1_555 1_555
N8_14 C59_14 1_555 1_555
C62_14 N8_14 1_555 1_555
C63_14 N9_8 1_555 1_555
H2_14 C1_14 1_555 1_555
H3_14 C1_14 1_555 1_555
H5_14 C6_14 1_555 1_555
C7_14 C6_14 1_555 1_555
H6_14 C7_14 1_555 1_555
C8_14 C7_14 1_555 1_555
C11_14 H9_14 1_555 1_555
C18_14 H14_14 1_555 1_555
H15_14 C18_14 1_555 1_555
H16_14 C18_14 1_555 1_555
C19_14 C18_14 1_555 1_555
C20_14 C19_14 1_555 1_555
H17_14 C20_14 1_555 1_555
C21_14 C20_14 1_555 1_555
C22_14 C21_14 1_555 1_555
C23_14 C22_14 1_555 1_555
H18_14 C23_14 1_555 1_555
C24_14 C23_14 1_555 1_555
H19_14 C24_14 1_555 1_555
C25_14 C24_14 1_555 1_555
C26_14 C25_14 1_555 1_555
H20_14 C26_14 1_555 1_555
C27_14 C22_14 1_555 1_555
C28_14 H22_14 1_555 1_555
C29_14 C30_14 1_555 1_555
C30_14 H23_14 1_555 1_555
C31_14 C30_14 1_555 1_555
H24_14 C31_14 1_555 1_555
C32_14 C31_14 1_555 1_555
H25_14 C32_14 1_555 1_555
C33_14 C32_14 1_555 1_555
H26_14 C33_14 1_555 1_555
C34_14 C29_14 1_555 1_555
C35_14 H27_14 1_555 1_555
H28_14 C35_14 1_555 1_555
H29_14 C35_14 1_555 1_555
C36_14 C35_14 1_555 1_555
C37_14 C36_14 1_555 1_555
H30_14 C37_14 1_555 1_555
C38_14 C37_14 1_555 1_555
C39_14 C38_14 1_555 1_555
C40_14 C39_14 1_555 1_555
H31_14 C40_14 1_555 1_555
C41_14 C40_14 1_555 1_555
H32_14 C41_14 1_555 1_555
C42_14 C41_14 1_555 1_555
C43_14 C42_14 1_555 1_555
H33_14 C43_14 1_555 1_555
C44_14 C39_14 1_555 1_555
H34_14 C44_14 1_555 1_555
C45_14 H35_14 1_555 1_555
C46_14 C47_14 1_555 1_555
C47_14 H36_14 1_555 1_555
C48_14 C47_14 1_555 1_555
H37_14 C48_14 1_555 1_555
C49_14 C48_14 1_555 1_555
H38_14 C49_14 1_555 1_555
C50_14 C49_14 1_555 1_555
H39_14 C50_14 1_555 1_555
C51_14 C46_14 1_555 1_555
H41_14 C52_14 1_555 1_555
C53_14 C52_14 1_555 1_555
C54_14 C53_14 1_555 1_555
C55_14 C54_14 1_555 1_555
C56_14 C55_14 1_555 1_555
H46_14 C60_14 1_555 1_555
C61_14 C56_14 1_555 1_555
H47_14 C61_14 1_555 1_555
C65_14 C64_14 1_555 1_555
H50_14 C65_14 1_555 1_555
C66_14 C65_14 1_555 1_555
H51_14 C66_14 1_555 1_555
C67_14 C66_14 1_555 1_555
H52_14 C67_14 1_555 1_555
N1_14 C11_14 1_555 1_555
N2_14 C8_14 1_555 1_555
N3_14 C28_14 1_555 1_555
N4_14 C25_14 1_555 1_555
N5_14 C45_14 1_555 1_555
N6_14 C42_14 1_555 1_555
O3_10 C19_14 1_555 1_555
O4_10 C21_14 1_555 1_555
O5_14 C36_14 1_555 1_555
O6_14 C38_14 1_555 1_555
O7_14 C53_14 1_555 1_555
O8_14 C55_14 1_555 1_555
Zn1_14 N1_14 1_555 1_555
C11_14 N2_14 1_555 1_555
C12_14 N1_14 1_555 1_555
C26_14 C27_14 1_555 1_555
C28_14 N4_14 1_555 1_555
C29_14 N3_14 1_555 1_555
C33_14 C34_14 1_555 1_555
C34_14 N4_14 1_555 1_555
C43_14 C44_14 1_555 1_555
C45_14 N6_14 1_555 1_555
C46_14 N5_14 1_555 1_555
C50_14 C51_14 1_555 1_555
C51_14 N6_14 1_555 1_555
C60_14 C61_14 1_555 1_555
C67_14 C68_14 1_555 1_555
N3_14 Zn1_14 1_555 1_555
O5_14 Zn1_14 1_555 1_555
O6_14 Zn1_14 1_555 1_555
O7_14 Zn1_14 1_555 1_555
O8_14 Zn1_14 1_555 1_555
C3_14 C2_14 1_555 1_555
C4_14 C3_14 1_555 1_555
C5_14 C4_14 1_555 1_555
H7_14 C9_14 1_555 1_555
C10_14 C5_14 1_555 1_555
H8_14 C10_14 1_555 1_555
C14_14 C13_14 1_555 1_555
H11_14 C14_14 1_555 1_555
C15_14 C14_14 1_555 1_555
H12_14 C15_14 1_555 1_555
C16_14 C15_14 1_555 1_555
H13_14 C16_14 1_555 1_555
O9_9 C2_14 1_555 1_555
O10_9 C4_14 1_555 1_555
N9_11 Zn5_7 1_555 1_555
O9_11 Zn5_7 1_555 1_555
O10_11 Zn5_7 1_555 1_555
C9_14 C10_14 1_555 1_555
C16_14 C17_14 1_555 1_555
C3_15 C2_15 1_555 1_555
C4_15 C3_15 1_555 1_555
C5_15 C4_15 1_555 1_555
H7_15 C9_15 1_555 1_555
C10_15 C5_15 1_555 1_555
H8_15 C10_15 1_555 1_555
C14_15 C13_15 1_555 1_555
H11_15 C14_15 1_555 1_555
C15_15 C14_15 1_555 1_555
H12_15 C15_15 1_555 1_555
C16_15 C15_15 1_555 1_555
H13_15 C16_15 1_555 1_555
O9_7 C2_15 1_555 1_555
O10_7 C4_15 1_555 1_555
N9_12 Zn5_8 1_555 1_555
O9_12 Zn5_8 1_555 1_555
O10_12 Zn5_8 1_555 1_555
C9_15 C10_15 1_555 1_555
C16_15 C17_15 1_555 1_555
H2_15 C1_15 1_555 1_555
H3_15 C1_15 1_555 1_555
H5_15 C6_15 1_555 1_555
C7_15 C6_15 1_555 1_555
H6_15 C7_15 1_555 1_555
C8_15 C7_15 1_555 1_555
C11_15 H9_15 1_555 1_555
C18_15 H14_15 1_555 1_555
H15_15 C18_15 1_555 1_555
H16_15 C18_15 1_555 1_555
C19_15 C18_15 1_555 1_555
C20_15 C19_15 1_555 1_555
H17_15 C20_15 1_555 1_555
C21_15 C20_15 1_555 1_555
C22_15 C21_15 1_555 1_555
C23_15 C22_15 1_555 1_555
H18_15 C23_15 1_555 1_555
C24_15 C23_15 1_555 1_555
H19_15 C24_15 1_555 1_555
C25_15 C24_15 1_555 1_555
C26_15 C25_15 1_555 1_555
H20_15 C26_15 1_555 1_555
C27_15 C22_15 1_555 1_555
H21_15 C27_15 1_555 1_555
C28_15 H22_15 1_555 1_555
C29_15 C30_15 1_555 1_555
C30_15 H23_15 1_555 1_555
C31_15 C30_15 1_555 1_555
H24_15 C31_15 1_555 1_555
C32_15 C31_15 1_555 1_555
H25_15 C32_15 1_555 1_555
C33_15 C32_15 1_555 1_555
H26_15 C33_15 1_555 1_555
C34_15 C29_15 1_555 1_555
C35_15 H27_15 1_555 1_555
H28_15 C35_15 1_555 1_555
H29_15 C35_15 1_555 1_555
C36_15 C35_15 1_555 1_555
C37_15 C36_15 1_555 1_555
H30_15 C37_15 1_555 1_555
C38_15 C37_15 1_555 1_555
C39_15 C38_15 1_555 1_555
C40_15 C39_15 1_555 1_555
H31_15 C40_15 1_555 1_555
C41_15 C40_15 1_555 1_555
H32_15 C41_15 1_555 1_555
C42_15 C41_15 1_555 1_555
C43_15 C42_15 1_555 1_555
H33_15 C43_15 1_555 1_555
C44_15 C39_15 1_555 1_555
H34_15 C44_15 1_555 1_555
C45_15 H35_15 1_555 1_555
C46_15 C47_15 1_555 1_555
C47_15 H36_15 1_555 1_555
C48_15 C47_15 1_555 1_555
H37_15 C48_15 1_555 1_555
C49_15 C48_15 1_555 1_555
H38_15 C49_15 1_555 1_555
C50_15 C49_15 1_555 1_555
H39_15 C50_15 1_555 1_555
C51_15 C46_15 1_555 1_555
C52_15 H40_15 1_555 1_555
H41_15 C52_15 1_555 1_555
H42_15 C52_15 1_555 1_555
C53_15 C52_15 1_555 1_555
C54_15 C53_15 1_555 1_555
H43_15 C54_15 1_555 1_555
C55_15 C54_15 1_555 1_555
C56_15 C55_15 1_555 1_555
C57_15 C56_15 1_555 1_555
H44_15 C57_15 1_555 1_555
C58_15 C57_15 1_555 1_555
H45_15 C58_15 1_555 1_555
C59_15 C58_15 1_555 1_555
C60_15 C59_15 1_555 1_555
H46_15 C60_15 1_555 1_555
C61_15 C56_15 1_555 1_555
H47_15 C61_15 1_555 1_555
C62_15 H48_15 1_555 1_555
C63_15 C64_15 1_555 1_555
C64_15 H49_15 1_555 1_555
C65_15 C64_15 1_555 1_555
H50_15 C65_15 1_555 1_555
C66_15 C65_15 1_555 1_555
H51_15 C66_15 1_555 1_555
C67_15 C66_15 1_555 1_555
H52_15 C67_15 1_555 1_555
C68_15 C63_15 1_555 1_555
N1_15 C11_15 1_555 1_555
N2_15 C8_15 1_555 1_555
N3_15 C28_15 1_555 1_555
N4_15 C25_15 1_555 1_555
N5_15 C45_15 1_555 1_555
N6_15 C42_15 1_555 1_555
N9_9 C62_15 1_555 1_555
N8_15 C59_15 1_555 1_555
O11_5 C19_15 1_555 1_555
O12_5 C21_15 1_555 1_555
O5_15 C36_15 1_555 1_555
O6_15 C38_15 1_555 1_555
O7_15 C53_15 1_555 1_555
O8_15 C55_15 1_555 1_555
Zn1_15 N1_15 1_555 1_555
C11_15 N2_15 1_555 1_555
C12_15 N1_15 1_555 1_555
C26_15 C27_15 1_555 1_555
C28_15 N4_15 1_555 1_555
C29_15 N3_15 1_555 1_555
C33_15 C34_15 1_555 1_555
C34_15 N4_15 1_555 1_555
C43_15 C44_15 1_555 1_555
C45_15 N6_15 1_555 1_555
C46_15 N5_15 1_555 1_555
C50_15 C51_15 1_555 1_555
C51_15 N6_15 1_555 1_555
C60_15 C61_15 1_555 1_555
C62_15 N8_15 1_555 1_555
C63_15 N9_9 1_555 1_555
C67_15 C68_15 1_555 1_555
C68_15 N8_15 1_555 1_555
N3_15 Zn1_15 1_555 1_555
O5_15 Zn1_15 1_555 1_555
O6_15 Zn1_15 1_555 1_555
O7_15 Zn1_15 1_555 1_555
O8_15 Zn1_15 1_555 1_555
C45_16 H35_16 1_555 1_555
N5_16 C45_16 1_555 1_555
Zn3_2 N5_16 1_555 1_555
O11_6 Zn3_2 1_555 1_555
O12_6 Zn3_2 1_555 1_555
C1_16 H1_16 1_555 1_555
H2_16 C1_16 1_555 1_555
H3_16 C1_16 1_555 1_555
C2_16 C1_16 1_555 1_555
C3_16 C2_16 1_555 1_555
H4_16 C3_16 1_555 1_555
C4_16 C3_16 1_555 1_555
C5_16 C4_16 1_555 1_555
C6_16 C5_16 1_555 1_555
H5_16 C6_16 1_555 1_555
C7_16 C6_16 1_555 1_555
H6_16 C7_16 1_555 1_555
C8_16 C7_16 1_555 1_555
C9_16 C8_16 1_555 1_555
H7_16 C9_16 1_555 1_555
C10_16 C5_16 1_555 1_555
C57_16 C56_16 1_555 1_555
H44_16 C57_16 1_555 1_555
C58_16 C57_16 1_555 1_555
H45_16 C58_16 1_555 1_555
C59_16 C58_16 1_555 1_555
C60_16 C59_16 1_555 1_555
H46_16 C60_16 1_555 1_555
C61_16 C56_16 1_555 1_555
H47_16 C61_16 1_555 1_555
C62_16 H48_16 1_555 1_555
C63_16 C64_16 1_555 1_555
C64_16 H49_16 1_555 1_555
C65_16 C64_16 1_555 1_555
H50_16 C65_16 1_555 1_555
C66_16 C65_16 1_555 1_555
H51_16 C66_16 1_555 1_555
C67_16 C66_16 1_555 1_555
H52_16 C67_16 1_555 1_555
C68_16 C63_16 1_555 1_555
N2_16 C8_16 1_555 1_555
N9_10 C62_16 1_555 1_555
N8_16 C59_16 1_555 1_555
O9_11 C2_16 1_555 1_555
O10_11 C4_16 1_555 1_555
C9_16 C10_16 1_555 1_555
C60_16 C61_16 1_555 1_555
C62_16 N8_16 1_555 1_555
C63_16 N9_10 1_555 1_555
C67_16 C68_16 1_555 1_555
C68_16 N8_16 1_555 1_555
C12_16 C13_16 1_555 1_555
C13_16 H10_16 1_555 1_555
C14_16 C13_16 1_555 1_555
H11_16 C14_16 1_555 1_555
C15_16 C14_16 1_555 1_555
H12_16 C15_16 1_555 1_555
C16_16 C15_16 1_555 1_555
C17_16 C12_16 1_555 1_555
C18_16 H14_16 1_555 1_555
H15_16 C18_16 1_555 1_555
H16_16 C18_16 1_555 1_555
C19_16 C18_16 1_555 1_555
C20_16 C19_16 1_555 1_555
H17_16 C20_16 1_555 1_555
C21_16 C20_16 1_555 1_555
C22_16 C21_16 1_555 1_555
C23_16 C22_16 1_555 1_555
H18_16 C23_16 1_555 1_555
C24_16 C23_16 1_555 1_555
H19_16 C24_16 1_555 1_555
C25_16 C24_16 1_555 1_555
C26_16 C25_16 1_555 1_555
H20_16 C26_16 1_555 1_555
C27_16 C22_16 1_555 1_555
H21_16 C27_16 1_555 1_555
C28_16 H22_16 1_555 1_555
C29_16 C30_16 1_555 1_555
C30_16 H23_16 1_555 1_555
C31_16 C30_16 1_555 1_555
H24_16 C31_16 1_555 1_555
C32_16 C31_16 1_555 1_555
H25_16 C32_16 1_555 1_555
C33_16 C32_16 1_555 1_555
H26_16 C33_16 1_555 1_555
C34_16 C29_16 1_555 1_555
C35_16 H27_16 1_555 1_555
H29_16 C35_16 1_555 1_555
C36_16 C35_16 1_555 1_555
C37_16 C36_16 1_555 1_555
H30_16 C37_16 1_555 1_555
C38_16 C37_16 1_555 1_555
C39_16 C38_16 1_555 1_555
C40_16 C39_16 1_555 1_555
H31_16 C40_16 1_555 1_555
C41_16 C40_16 1_555 1_555
H32_16 C41_16 1_555 1_555
C42_16 C41_16 1_555 1_555
C43_16 C42_16 1_555 1_555
H33_16 C43_16 1_555 1_555
C44_16 C39_16 1_555 1_555
H34_16 C44_16 1_555 1_555
C46_16 C47_16 1_555 1_555
C47_16 H36_16 1_555 1_555
C48_16 C47_16 1_555 1_555
H37_16 C48_16 1_555 1_555
C49_16 C48_16 1_555 1_555
H38_16 C49_16 1_555 1_555
C50_16 C49_16 1_555 1_555
H39_16 C50_16 1_555 1_555
C51_16 C46_16 1_555 1_555
C52_16 H40_16 1_555 1_555
H41_16 C52_16 1_555 1_555
H42_16 C52_16 1_555 1_555
C53_16 C52_16 1_555 1_555
C54_16 C53_16 1_555 1_555
H43_16 C54_16 1_555 1_555
C55_16 C54_16 1_555 1_555
N1_16 C11_16 1_555 1_555
N3_16 C28_16 1_555 1_555
N4_16 C25_16 1_555 1_555
N6_16 C42_16 1_555 1_555
O3_11 C19_16 1_555 1_555
O4_11 C21_16 1_555 1_555
O5_16 C36_16 1_555 1_555
O6_16 C38_16 1_555 1_555
O7_16 C53_16 1_555 1_555
O8_16 C55_16 1_555 1_555
Zn1_16 N1_16 1_555 1_555
Zn4_3 O3_11 1_555 1_555
C12_16 N1_16 1_555 1_555
C16_16 C17_16 1_555 1_555
C26_16 C27_16 1_555 1_555
C28_16 N4_16 1_555 1_555
C29_16 N3_16 1_555 1_555
C33_16 C34_16 1_555 1_555
C34_16 N4_16 1_555 1_555
C43_16 C44_16 1_555 1_555
C50_16 C51_16 1_555 1_555
C51_16 N6_16 1_555 1_555
N3_16 Zn1_16 1_555 1_555
O4_11 Zn4_3 1_555 1_555
O5_16 Zn1_16 1_555 1_555
O6_16 Zn1_16 1_555 1_555
O7_16 Zn1_16 1_555 1_555
O8_16 Zn1_16 1_555 1_555
C18_17 H14_17 1_555 1_555
H16_17 C18_17 1_555 1_555
C19_17 C18_17 1_555 1_555
C20_17 C19_17 1_555 1_555
H17_17 C20_17 1_555 1_555
C21_17 C20_17 1_555 1_555
C22_17 C21_17 1_555 1_555
C23_17 C22_17 1_555 1_555
H18_17 C23_17 1_555 1_555
C24_17 C23_17 1_555 1_555
H19_17 C24_17 1_555 1_555
C25_17 C24_17 1_555 1_555
C26_17 C25_17 1_555 1_555
H20_17 C26_17 1_555 1_555
C27_17 C22_17 1_555 1_555
H21_17 C27_17 1_555 1_555
C29_17 C30_17 1_555 1_555
C30_17 H23_17 1_555 1_555
C31_17 C30_17 1_555 1_555
H24_17 C31_17 1_555 1_555
C32_17 C31_17 1_555 1_555
H25_17 C32_17 1_555 1_555
C33_17 C32_17 1_555 1_555
H26_17 C33_17 1_555 1_555
C34_17 C29_17 1_555 1_555
N4_17 C25_17 1_555 1_555
O3_12 C19_17 1_555 1_555
O4_12 C21_17 1_555 1_555
Zn4_4 O3_12 1_555 1_555
C26_17 C27_17 1_555 1_555
C33_17 C34_17 1_555 1_555
C34_17 N4_17 1_555 1_555
O4_12 Zn4_4 1_555 1_555
C1_17 H1_17 1_555 1_555
H2_17 C1_17 1_555 1_555
H3_17 C1_17 1_555 1_555
C2_17 C1_17 1_555 1_555
C3_17 C2_17 1_555 1_555
H4_17 C3_17 1_555 1_555
C4_17 C3_17 1_555 1_555
C5_17 C4_17 1_555 1_555
C6_17 C5_17 1_555 1_555
H5_17 C6_17 1_555 1_555
C7_17 C6_17 1_555 1_555
H6_17 C7_17 1_555 1_555
C8_17 C7_17 1_555 1_555
C9_17 C8_17 1_555 1_555
H7_17 C9_17 1_555 1_555
C10_17 C5_17 1_555 1_555
C57_17 C56_17 1_555 1_555
H44_17 C57_17 1_555 1_555
C58_17 C57_17 1_555 1_555
H45_17 C58_17 1_555 1_555
C59_17 C58_17 1_555 1_555
C60_17 C59_17 1_555 1_555
H46_17 C60_17 1_555 1_555
C61_17 C56_17 1_555 1_555
H47_17 C61_17 1_555 1_555
C62_17 H48_17 1_555 1_555
C63_17 C64_17 1_555 1_555
C64_17 H49_17 1_555 1_555
C65_17 C64_17 1_555 1_555
H50_17 C65_17 1_555 1_555
C66_17 C65_17 1_555 1_555
H51_17 C66_17 1_555 1_555
C67_17 C66_17 1_555 1_555
H52_17 C67_17 1_555 1_555
C68_17 C63_17 1_555 1_555
N2_17 C8_17 1_555 1_555
N9_11 C62_17 1_555 1_555
N8_17 C59_17 1_555 1_555
O9_12 C2_17 1_555 1_555
O10_12 C4_17 1_555 1_555
C9_17 C10_17 1_555 1_555
C60_17 C61_17 1_555 1_555
C62_17 N8_17 1_555 1_555
C63_17 N9_11 1_555 1_555
C67_17 C68_17 1_555 1_555
C68_17 N8_17 1_555 1_555
C45_17 H35_17 1_555 1_555
N5_17 C45_17 1_555 1_555
Zn4_3 N5_17 1_555 1_555
C1_18 H1_18 1_555 1_555
H2_18 C1_18 1_555 1_555
H3_18 C1_18 1_555 1_555
C2_18 C1_18 1_555 1_555
C3_18 C2_18 1_555 1_555
H4_18 C3_18 1_555 1_555
C4_18 C3_18 1_555 1_555
C5_18 C4_18 1_555 1_555
C6_18 C5_18 1_555 1_555
H5_18 C6_18 1_555 1_555
C7_18 C6_18 1_555 1_555
H6_18 C7_18 1_555 1_555
C8_18 C7_18 1_555 1_555
C9_18 C8_18 1_555 1_555
H7_18 C9_18 1_555 1_555
C10_18 C5_18 1_555 1_555
H8_16 C10_18 1_555 1_555
C57_18 C56_18 1_555 1_555
H44_18 C57_18 1_555 1_555
C58_18 C57_18 1_555 1_555
H45_18 C58_18 1_555 1_555
C59_18 C58_18 1_555 1_555
C60_18 C59_18 1_555 1_555
H46_18 C60_18 1_555 1_555
C61_18 C56_18 1_555 1_555
H47_18 C61_18 1_555 1_555
C62_18 H48_18 1_555 1_555
C63_18 C64_18 1_555 1_555
C64_18 H49_18 1_555 1_555
C65_18 C64_18 1_555 1_555
H50_18 C65_18 1_555 1_555
C66_18 C65_18 1_555 1_555
H51_18 C66_18 1_555 1_555
C67_18 C66_18 1_555 1_555
H52_18 C67_18 1_555 1_555
C68_18 C63_18 1_555 1_555
N2_18 C8_18 1_555 1_555
N9_12 C62_18 1_555 1_555
N8_18 C59_18 1_555 1_555
O9_10 C2_18 1_555 1_555
O10_10 C4_18 1_555 1_555
C9_18 C10_18 1_555 1_555
C60_18 C61_18 1_555 1_555
C62_18 N8_18 1_555 1_555
C63_18 N9_12 1_555 1_555
C67_18 C68_18 1_555 1_555
C68_18 N8_18 1_555 1_555
C12_17 C13_17 1_555 1_555
C13_17 H10_17 1_555 1_555
C14_17 C13_17 1_555 1_555
H11_17 C14_17 1_555 1_555
C15_17 C14_17 1_555 1_555
H12_17 C15_17 1_555 1_555
C16_17 C15_17 1_555 1_555
C17_17 C12_17 1_555 1_555
C28_17 H22_17 1_555 1_555
C35_17 H27_17 1_555 1_555
H28_18 C35_17 1_555 1_555
H29_17 C35_17 1_555 1_555
C36_17 C35_17 1_555 1_555
C37_17 C36_17 1_555 1_555
H30_17 C37_17 1_555 1_555
C38_17 C37_17 1_555 1_555
C39_17 C38_17 1_555 1_555
C40_17 C39_17 1_555 1_555
H31_17 C40_17 1_555 1_555
C41_17 C40_17 1_555 1_555
H32_17 C41_17 1_555 1_555
C42_17 C41_17 1_555 1_555
C43_17 C42_17 1_555 1_555
H33_17 C43_17 1_555 1_555
C44_17 C39_17 1_555 1_555
H34_17 C44_17 1_555 1_555
C45_18 H35_18 1_555 1_555
C46_17 C47_17 1_555 1_555
C47_17 H36_17 1_555 1_555
C48_17 C47_17 1_555 1_555
H37_17 C48_17 1_555 1_555
C49_17 C48_17 1_555 1_555
H38_17 C49_17 1_555 1_555
C50_17 C49_17 1_555 1_555
H39_17 C50_17 1_555 1_555
C51_17 C46_17 1_555 1_555
C52_17 H40_17 1_555 1_555
H41_17 C52_17 1_555 1_555
H42_17 C52_17 1_555 1_555
C53_17 C52_17 1_555 1_555
C54_17 C53_17 1_555 1_555
H43_17 C54_17 1_555 1_555
C55_17 C54_17 1_555 1_555
N1_17 C11_17 1_555 1_555
N3_17 C28_17 1_555 1_555
N5_18 C45_18 1_555 1_555
N6_17 C42_17 1_555 1_555
O5_17 C36_17 1_555 1_555
O6_17 C38_17 1_555 1_555
O7_17 C53_17 1_555 1_555
O8_17 C55_17 1_555 1_555
Zn1_17 N1_17 1_555 1_555
Zn4_4 N5_18 1_555 1_555
C12_17 N1_17 1_555 1_555
C16_17 C17_17 1_555 1_555
C43_17 C44_17 1_555 1_555
C45_18 N6_17 1_555 1_555
C46_17 N5_18 1_555 1_555
C50_17 C51_17 1_555 1_555
C51_17 N6_17 1_555 1_555
N3_17 Zn1_17 1_555 1_555
O5_17 Zn1_17 1_555 1_555
O6_17 Zn1_17 1_555 1_555
O7_17 Zn1_17 1_555 1_555
O8_17 Zn1_17 1_555 1_555
C18_18 H14_18 1_555 1_555
H16_18 C18_18 1_555 1_555
C19_18 C18_18 1_555 1_555
C20_18 C19_18 1_555 1_555
H17_18 C20_18 1_555 1_555
C21_18 C20_18 1_555 1_555
C22_18 C21_18 1_555 1_555
C23_18 C22_18 1_555 1_555
H18_18 C23_18 1_555 1_555
C24_18 C23_18 1_555 1_555
H19_18 C24_18 1_555 1_555
C25_18 C24_18 1_555 1_555
C26_18 C25_18 1_555 1_555
H20_18 C26_18 1_555 1_555
C27_18 C22_18 1_555 1_555
H21_18 C27_18 1_555 1_555
C29_18 C30_18 1_555 1_555
C30_18 H23_18 1_555 1_555
C31_18 C30_18 1_555 1_555
H24_18 C31_18 1_555 1_555
C32_18 C31_18 1_555 1_555
H25_18 C32_18 1_555 1_555
C33_18 C32_18 1_555 1_555
H26_18 C33_18 1_555 1_555
C34_18 C29_18 1_555 1_555
N4_18 C25_18 1_555 1_555
O11_6 C19_18 1_555 1_555
O12_6 C21_18 1_555 1_555
C26_18 C27_18 1_555 1_555
C33_18 C34_18 1_555 1_555
C34_18 N4_18 1_555 1_555
C12_18 C13_18 1_555 1_555
C13_18 H10_18 1_555 1_555
C14_18 C13_18 1_555 1_555
H11_18 C14_18 1_555 1_555
C15_18 C14_18 1_555 1_555
H12_18 C15_18 1_555 1_555
C16_18 C15_18 1_555 1_555
C17_18 C12_18 1_555 1_555
C28_18 H22_18 1_555 1_555
C35_18 H27_18 1_555 1_555
H29_18 C35_18 1_555 1_555
C36_18 C35_18 1_555 1_555
C37_18 C36_18 1_555 1_555
H30_18 C37_18 1_555 1_555
C38_18 C37_18 1_555 1_555
C39_18 C38_18 1_555 1_555
C40_18 C39_18 1_555 1_555
H31_18 C40_18 1_555 1_555
C41_18 C40_18 1_555 1_555
H32_18 C41_18 1_555 1_555
C42_18 C41_18 1_555 1_555
C43_18 C42_18 1_555 1_555
H33_18 C43_18 1_555 1_555
C44_18 C39_18 1_555 1_555
H34_18 C44_18 1_555 1_555
C46_18 C47_18 1_555 1_555
C47_18 H36_18 1_555 1_555
C48_18 C47_18 1_555 1_555
H37_18 C48_18 1_555 1_555
C49_18 C48_18 1_555 1_555
H38_18 C49_18 1_555 1_555
C50_18 C49_18 1_555 1_555
H39_18 C50_18 1_555 1_555
C51_18 C46_18 1_555 1_555
C52_18 H40_18 1_555 1_555
H41_18 C52_18 1_555 1_555
H42_18 C52_18 1_555 1_555
C53_18 C52_18 1_555 1_555
C54_18 C53_18 1_555 1_555
H43_18 C54_18 1_555 1_555
C55_18 C54_18 1_555 1_555
N1_18 C11_18 1_555 1_555
N3_18 C28_18 1_555 1_555
N6_18 C42_18 1_555 1_555
O5_18 C36_18 1_555 1_555
O6_18 C38_18 1_555 1_555
O7_18 C53_18 1_555 1_555
O8_18 C55_18 1_555 1_555
Zn1_18 N1_18 1_555 1_555
C12_18 N1_18 1_555 1_555
C16_18 C17_18 1_555 1_555
C43_18 C44_18 1_555 1_555
C50_18 C51_18 1_555 1_555
C51_18 N6_18 1_555 1_555
N3_18 Zn1_18 1_555 1_555
O5_18 Zn1_18 1_555 1_555
O6_18 Zn1_18 1_555 1_555
O7_18 Zn1_18 1_555 1_555
O8_18 Zn1_18 1_555 1_555

#END
