
###############################################################################
#
# This file contains modified crystal structure data generated from the
# MOF subset of the Cambridge Structural Database (CSD) v543 
# hosted by the Cambridge Crystallographic Data Centre (CCDC).
#
# This work is licensed under the Creative Commons
# Attribution-NonCommercial-ShareAlike 4.0 International License.
# To view a copy of this license, visit
# http://creativecommons.org/licenses/by-nc-sa/4.0/
# or send a letter to
# Creative Commons, PO Box 1866, Mountain View, CA 94042, USA.
#
# CIF created using the CSD Python API on 29 September 2022
# The structure has been converted into the P1 space group
# The structure has a 3D framework
# The original CSD entry EBEKIH is in the rhombohedral crystal system
# The framework has been calculated to contain at least 10.0% void space
# The void calculation uses a probe of radius 1.32A, grid spacing 0.4
#
###############################################################################

data_EBEKIH
_chemical_formula_moiety         '(C1224 H936 Co32 N144 O144)n'
_symmetry_cell_setting           triclinic
_symmetry_space_group_name_H-M   'P 1'
_symmetry_Int_Tables_number      1
_space_group_name_Hall           'P 1'
loop_
_symmetry_equiv_pos_site_id
_symmetry_equiv_pos_as_xyz
1 x,y,z
_cell_length_a                   22.8907(9)
_cell_length_b                   22.8907(9)
_cell_length_c                   62.003(4)
_cell_angle_alpha                90
_cell_angle_beta                 90
_cell_angle_gamma                120
_cell_volume                     28135.9
loop_
_atom_site_label
_atom_site_type_symbol
_atom_site_fract_x
_atom_site_fract_y
_atom_site_fract_z
H15 H 0.0018 0.1016 0.0347
C28 C 0.0536(7) 0.2820(5) 0.16928(12)
H22 H 0.0891 0.3138 0.1604
H23 H 0.0037 0.2212 0.2303
Co2 Co 0.15177(9) 0.33956(7) 0.207510(14)
N4 N 0.0582(6) 0.2809(4) 0.19024(9)
N9 N 0.2431(6) 0.3944(4) 0.22538(9)
O9 O 0.1680(5) 0.4260(4) 0.19264(7)
O10 O 0.1054(5) 0.3602(4) 0.23203(7)
O11 O 0.1369(5) 0.2531(4) 0.22226(7)
O12 O 0.2008(5) 0.3225(4) 0.18281(7)
C1 C 0.7894(7) 0.3332(5) 0.85773(13)
H1 H 0.7765 0.3670 0.8543
H2 H 0.7548 0.2980 0.8669
H3 H 0.7938 0.3129 0.8444
C2 C 0.8559(7) 0.3666(5) 0.86946(12)
C3 C 0.8571(7) 0.3477(5) 0.89128(12)
H4 H 0.8149 0.3157 0.8974
C4 C 0.9123(7) 0.3704(5) 0.90457(12)
C5 C 0.9055(6) 0.3491(4) 0.92753(12)
C6 C 0.8416(8) 0.3058(5) 0.93703(12)
H5 H 0.8019 0.2867 0.9285
C7 C 0.8376(8) 0.2918(5) 0.95883(13)
H6 H 0.7948 0.2620 0.9651
C8 C 0.8947(7) 0.3203(5) 0.97193(11)
C9 C 0.9580(7) 0.3579(5) 0.96248(12)
H7 H 0.9980 0.3734 0.9708
C10 C 0.9608(6) 0.3722(4) 0.94045(11)
H9 H 0.8405 0.2014 0.9940
C56 C 0.6825(7) 0.1126(5) 0.98853(12)
C57 C 0.6396(8) 0.1330(5) 0.97884(13)
H44 H 0.6198 0.1527 0.9875
C58 C 0.6261(7) 0.1250(5) 0.95718(12)
H45 H 0.5978 0.1396 0.9508
C59 C 0.6544(7) 0.0948(5) 0.94454(11)
C60 C 0.6885(7) 0.0680(5) 0.95399(13)
H46 H 0.7033 0.0430 0.9456
C61 C 0.7022(7) 0.0768(5) 0.97625(12)
H47 H 0.7258 0.0571 0.9828
C62 C 0.5787(7) 0.0573(5) 0.91300(11)
H48 H 0.5390 0.0350 0.9216
C63 C 0.6445(7) 0.0994(5) 0.88619(11)
C64 C 0.6731(7) 0.1215(5) 0.86574(11)
H49 H 0.6459 0.1106 0.8532
C65 C 0.7433(8) 0.1600(6) 0.86468(14)
H50 H 0.7651 0.1777 0.8513
C66 C 0.7813(7) 0.1723(5) 0.88369(15)
H51 H 0.8291 0.1967 0.8826
C67 C 0.7530(7) 0.1509(5) 0.90396(14)
H52 H 0.7798 0.1606 0.9166
C68 C 0.6862(7) 0.1160(5) 0.90453(12)
N1 N 0.8878(6) 0.3056(4) 0.99429(9)
N7 N 0.6408(6) 0.0871(4) 0.92179(9)
N8 N 0.5764(6) 0.0611(4) 0.89205(9)
O1 O 0.9073(4) 0.4086(3) 0.85931(7)
O2 O 0.9731(4) 0.4118(3) 0.89870(7)
Co3 Co 0.48510(9) 0.00623(7) 0.874177(14)
Co4 Co 0.99377(7) 0.47888(11) 0.874177(14)
C35 C 0.8638(8) 0.9677(6) 0.22441(13)
H27 H 0.8556 0.9810 0.2386
H29 H 0.8829 0.9381 0.2262
C36 C 0.7960(7) 0.9295(5) 0.21190(11)
C37 C 0.7951(7) 0.9464(5) 0.19018(12)
H30 H 0.8370 0.9780 0.1838
C38 C 0.7380(7) 0.9209(5) 0.17712(12)
C39 C 0.7439(7) 0.9429(5) 0.15399(11)
C40 C 0.7957(8) 0.9439(5) 0.14117(13)
H31 H 0.8282 0.9349 0.1475
C41 C 0.7984(8) 0.9580(6) 0.11944(13)
H32 H 0.8307 0.9553 0.1105
C42 C 0.7535(7) 0.9764(5) 0.11048(11)
C43 C 0.7035(6) 0.9751(4) 0.12320(11)
H33 H 0.6717 0.9855 0.1171
C44 C 0.6996(6) 0.9588(4) 0.14483(11)
H34 H 0.6654 0.9588 0.1535
C46 C 0.7657(7) 0.9963(5) 0.05277(11)
C47 C 0.7695(7) 0.9736(5) 0.03158(12)
C48 C 0.7614(7) 0.9103(5) 0.02985(14)
H37 H 0.7592 0.8926 0.0158
C49 C 0.7561(8) 0.8691(6) 0.04809(13)
H38 H 0.7561 0.8279 0.0463
C50 C 0.7510(7) 0.8916(5) 0.06864(13)
H39 H 0.7427 0.8636 0.0809
C51 C 0.7581(6) 0.9551(5) 0.07084(11)
N5 N 0.7584(6) 0.9938(4) 0.08825(9)
O5 O 0.7469(4) 0.8838(3) 0.22226(7)
O6 O 0.6775(4) 0.8783(3) 0.18281(7)
Co5 Co 0.66044(7) 0.81221(11) 0.207510(14)
C35_2 C 0.0323(6) 0.8961(10) 0.22441(13)
H27_2 H 0.0190 0.8746 0.2386
H29_2 H 0.0619 0.9448 0.2262
C36_2 C 0.0705(5) 0.8665(9) 0.21190(11)
C37_2 C 0.0536(5) 0.8487(9) 0.19018(12)
H30_2 H 0.0220 0.8590 0.1838
C38_2 C 0.0791(5) 0.8171(9) 0.17712(12)
C39_2 C 0.0571(5) 0.8010(9) 0.15399(11)
C40_2 C 0.0561(5) 0.8518(9) 0.14117(13)
H31_2 H 0.0651 0.8933 0.1475
C41_2 C 0.0420(6) 0.8404(10) 0.11944(13)
H32_2 H 0.0447 0.8754 0.1105
C42_2 C 0.0236(5) 0.7771(9) 0.11048(11)
C43_2 C 0.0249(4) 0.7284(7) 0.12320(11)
H33_2 H 0.0145 0.6862 0.1171
C44_2 C 0.0412(4) 0.7408(7) 0.14483(11)
H34_2 H 0.0412 0.7066 0.1535
C46_2 C 0.0037(5) 0.7694(9) 0.05277(11)
C47_2 C 0.0264(5) 0.7959(9) 0.03158(12)
C48_2 C 0.0897(5) 0.8511(9) 0.02985(14)
H37_2 H 0.1074 0.8666 0.0158
C49_2 C 0.1309(6) 0.8870(10) 0.04809(13)
H38_2 H 0.1721 0.9282 0.0463
C50_2 C 0.1084(5) 0.8594(9) 0.06864(13)
H39_2 H 0.1364 0.8791 0.0809
C51_2 C 0.0449(5) 0.8030(8) 0.07084(11)
N5_2 N 0.0062(4) 0.7646(7) 0.08825(9)
O5_2 O 0.1162(3) 0.8631(5) 0.22226(7)
O6_2 O 0.1217(3) 0.7992(5) 0.18281(7)
Co5_2 Co 0.18779(11) 0.84823(13) 0.207510(14)
C11 C 0.7592(5) 0.6156(9) 0.00255(11)
C12 C 0.6498(5) 0.5535(9) 0.01156(12)
C13 C 0.5805(5) 0.5147(9) 0.01287(14)
H10 H 0.5525 0.5026 0.0005
C14 C 0.5550(5) 0.4952(9) 0.03290(14)
H11 H 0.5074 0.4697 0.0345
C15 C 0.5955(6) 0.5106(10) 0.05166(14)
H12 H 0.5745 0.4935 0.0652
C16 C 0.6626(5) 0.5487(9) 0.05071(13)
H13 H 0.6900 0.5594 0.0633
C17 C 0.6905(5) 0.5721(9) 0.03002(11)
C18 C 0.9064(6) 0.8684(10) 0.02637(14)
H14 H 0.9551 0.8868 0.0246
H15_2 H 0.8984 0.9002 0.0347
H16 H 0.8852 0.8614 0.0122
C19 C 0.8759(5) 0.8008(9) 0.03842(12)
C20 C 0.8574(5) 0.8010(9) 0.06022(13)
H17 H 0.8693 0.8431 0.0667
C21 C 0.8222(6) 0.7423(10) 0.07287(12)
C22 C 0.8076(5) 0.7497(9) 0.09567(12)
C23 C 0.8567(6) 0.7954(10) 0.10926(13)
H18 H 0.9001 0.8260 0.1036
C24 C 0.8441(6) 0.7978(11) 0.13113(14)
H19 H 0.8793 0.8274 0.1406
C25 C 0.7787(5) 0.7557(9) 0.13898(11)
C26 C 0.7288(5) 0.7084(9) 0.12616(12)
H20 H 0.6856 0.6784 0.1320
C27 C 0.7420(5) 0.7049(9) 0.10455(12)
H21 H 0.7074 0.6726 0.0955
C28_2 C 0.7180(5) 0.7716(9) 0.16928(12)
H22_2 H 0.6862 0.7753 0.1604
C29 C 0.7727(4) 0.7702(7) 0.19701(10)
C30 C 0.7968(5) 0.7717(9) 0.21815(12)
H23_2 H 0.7788 0.7825 0.2303
C31 C 0.8465(5) 0.7568(9) 0.21998(13)
H24 H 0.8616 0.7541 0.2340
C32 C 0.8774(5) 0.7450(9) 0.20201(14)
H25 H 0.9143 0.7377 0.2042
C33 C 0.8542(5) 0.7441(9) 0.18118(13)
H26 H 0.8725 0.7339 0.1690
C34 C 0.8025(5) 0.7589(9) 0.17938(12)
H28 H 0.9920 0.8874 0.2163
C45 C 0.9487(5) 0.7149(9) 0.07998(12)
H35 H 0.9142 0.6812 0.0887
H36 H 0.9988 0.7760 0.0193
C52 C 0.7863(5) 0.4555(9) 0.05877(15)
H40 H 0.8038 0.4624 0.0735
H41 H 0.7952 0.4229 0.0514
H42 H 0.7375 0.4383 0.0592
C53 C 0.8212(5) 0.5227(9) 0.04659(12)
C54 C 0.8415(5) 0.5219(9) 0.02487(13)
H43 H 0.8321 0.4796 0.0191
C55 C 0.8734(5) 0.5772(9) 0.01165(12)
Co1 Co 0.85005(6) 0.66177(11) 0.041990(14)
N2 N 0.7600(4) 0.6112(7) 0.02383(10)
N3 N 0.7659(4) 0.7600(7) 0.16145(9)
N4_2 N 0.7191(4) 0.7773(7) 0.19024(9)
N6 N 0.9433(4) 0.7160(7) 0.05931(9)
O3 O 0.8690(3) 0.7507(5) 0.02769(7)
O4 O 0.8025(4) 0.6808(7) 0.06662(8)
O7 O 0.8294(3) 0.5735(5) 0.05693(7)
O8 O 0.8955(3) 0.6400(5) 0.01728(7)
N9_2 N 0.6056(4) 0.8486(7) 0.22538(9)
O9_2 O 0.5740(4) 0.7419(6) 0.19264(7)
O10_2 O 0.6398(4) 0.7451(6) 0.23203(7)
C1_2 C 0.6668(5) 0.4562(9) 0.85773(13)
H1_2 H 0.6330 0.4095 0.8543
H2_2 H 0.7020 0.4568 0.8669
H3_2 H 0.6871 0.4809 0.8444
C2_2 C 0.6334(5) 0.4893(9) 0.86946(12)
C3_2 C 0.6523(5) 0.5094(9) 0.89128(12)
H4_2 H 0.6843 0.4992 0.8974
C4_2 C 0.6296(5) 0.5419(9) 0.90457(12)
C5_2 C 0.6509(4) 0.5564(7) 0.92753(12)
C6_2 C 0.6942(5) 0.5358(9) 0.93703(12)
H5_2 H 0.7133 0.5152 0.9285
C7_2 C 0.7082(5) 0.5458(9) 0.95883(13)
H6_2 H 0.7380 0.5328 0.9651
C8_2 C 0.6797(5) 0.5744(9) 0.97193(11)
C9_2 C 0.6421(5) 0.6001(9) 0.96248(12)
H7_2 H 0.6266 0.6246 0.9708
C10_2 C 0.6278(4) 0.5886(7) 0.94045(11)
H8 H 0.6003 0.6042 0.9341
H9_2 H 0.7986 0.6391 0.9940
C56_2 C 0.8874(5) 0.5699(9) 0.98853(12)
C57_2 C 0.8670(5) 0.5066(9) 0.97884(13)
H44_2 H 0.8473 0.4671 0.9875
C58_2 C 0.8750(5) 0.5011(9) 0.95718(12)
H45_2 H 0.8604 0.4582 0.9508
C59_2 C 0.9052(5) 0.5596(9) 0.94454(11)
C60_2 C 0.9320(5) 0.6205(9) 0.95399(13)
H46_2 H 0.9570 0.6603 0.9456
C61_2 C 0.9232(5) 0.6254(9) 0.97625(12)
H47_2 H 0.9429 0.6687 0.9828
C62_2 C 0.9427(5) 0.5214(9) 0.91300(11)
H48_2 H 0.9650 0.5040 0.9216
C63_2 C 0.9006(5) 0.5451(9) 0.88619(11)
C64_2 C 0.8785(5) 0.5516(9) 0.86574(11)
H49_2 H 0.8894 0.5353 0.8532
C65_2 C 0.8400(6) 0.5833(10) 0.86468(14)
H50_2 H 0.8223 0.5874 0.8513
C66_2 C 0.8277(5) 0.6090(9) 0.88369(15)
H51_2 H 0.8033 0.6324 0.8826
C67_2 C 0.8491(5) 0.6021(9) 0.90396(14)
H52_2 H 0.8394 0.6192 0.9166
C68_2 C 0.8840(5) 0.5702(9) 0.90453(12)
N1_2 N 0.6944(4) 0.5822(7) 0.99429(9)
N7_2 N 0.9129(4) 0.5537(7) 0.92179(9)
N8_2 N 0.9389(4) 0.5153(7) 0.89205(9)
O1_2 O 0.5914(3) 0.4987(5) 0.85931(7)
O2_2 O 0.5882(3) 0.5613(5) 0.89870(7)
Co4_2 Co 0.52112(11) 0.51490(13) 0.874177(14)
C11_2 C 0.3844(9) 0.1436(7) 0.00255(11)
C12_2 C 0.4465(9) 0.0963(7) 0.01156(12)
C13_2 C 0.4853(9) 0.0658(8) 0.01287(14)
H10_2 H 0.4974 0.0499 0.0005
C14_2 C 0.5048(9) 0.0598(8) 0.03290(14)
H11_2 H 0.5303 0.0377 0.0345
C15_2 C 0.4894(10) 0.0849(8) 0.05166(14)
H12_2 H 0.5065 0.0810 0.0652
C16_2 C 0.4513(9) 0.1139(8) 0.05071(13)
H13_2 H 0.4406 0.1306 0.0633
C17_2 C 0.4279(9) 0.1184(7) 0.03002(11)
C18_2 C 0.1316(10) 0.0380(8) 0.02637(14)
H14_2 H 0.1132 0.0683 0.0246
H16_2 H 0.1386 0.0238 0.0122
C19_2 C 0.1992(9) 0.0751(7) 0.03842(12)
C20_2 C 0.1990(9) 0.0564(7) 0.06022(13)
H17_2 H 0.1569 0.0262 0.0667
C21_2 C 0.2577(10) 0.0799(8) 0.07287(12)
C22_2 C 0.2503(9) 0.0579(7) 0.09567(12)
C23_2 C 0.2046(10) 0.0613(8) 0.10926(13)
H18_2 H 0.1740 0.0741 0.1036
C24_2 C 0.2022(11) 0.0463(9) 0.13113(14)
H19_2 H 0.1726 0.0519 0.1406
C25_2 C 0.2443(9) 0.0230(7) 0.13898(11)
C26_2 C 0.2916(9) 0.0204(7) 0.12616(12)
H20_2 H 0.3216 0.0072 0.1320
C27_2 C 0.2951(9) 0.0371(7) 0.10455(12)
H21_2 H 0.3274 0.0348 0.0955
C29_2 C 0.2298(7) 0.0025(6) 0.19701(10)
C30_2 C 0.2283(9) 0.0251(7) 0.21815(12)
C31_2 C 0.2432(9) 0.0897(7) 0.21998(13)
H24_2 H 0.2459 0.1075 0.2340
C32_2 C 0.2550(9) 0.1324(8) 0.20201(14)
H25_2 H 0.2623 0.1766 0.2042
C33_2 C 0.2559(9) 0.1101(7) 0.18118(13)
H26_2 H 0.2661 0.1386 0.1690
C34_2 C 0.2411(9) 0.0436(7) 0.17938(12)
C35_3 C 0.1039(10) 0.1362(8) 0.22441(13)
H27_3 H 0.1254 0.1444 0.2386
H28_2 H 0.1126 0.1046 0.2163
H29_3 H 0.0552 0.1171 0.2262
C36_3 C 0.1335(9) 0.2040(7) 0.21190(11)
C37_3 C 0.1513(9) 0.2049(7) 0.19018(12)
H30_3 H 0.1410 0.1630 0.1838
C38_3 C 0.1829(9) 0.2620(7) 0.17712(12)
C39_3 C 0.1990(9) 0.2561(7) 0.15399(11)
C40_3 C 0.1482(9) 0.2043(8) 0.14117(13)
H31_3 H 0.1067 0.1718 0.1475
C41_3 C 0.1596(10) 0.2016(8) 0.11944(13)
H32_3 H 0.1246 0.1693 0.1105
C42_3 C 0.2229(9) 0.2465(7) 0.11048(11)
C43_3 C 0.2716(7) 0.2965(6) 0.12320(11)
H33_3 H 0.3138 0.3283 0.1171
C44_3 C 0.2592(7) 0.3004(6) 0.14483(11)
H34_3 H 0.2934 0.3346 0.1535
C45_2 C 0.2851(9) 0.2338(7) 0.07998(12)
H35_2 H 0.3188 0.2330 0.0887
C46_3 C 0.2306(9) 0.2343(7) 0.05277(11)
C47_3 C 0.2041(9) 0.2305(7) 0.03158(12)
H36_2 H 0.2240 0.2228 0.0193
C48_3 C 0.1489(9) 0.2386(7) 0.02985(14)
H37_3 H 0.1334 0.2408 0.0158
C49_3 C 0.1130(10) 0.2439(8) 0.04809(13)
H38_3 H 0.0718 0.2439 0.0463
C50_3 C 0.1406(9) 0.2490(7) 0.06864(13)
H39_3 H 0.1209 0.2573 0.0809
C51_3 C 0.1970(8) 0.2419(6) 0.07084(11)
C52_2 C 0.5445(9) 0.3308(8) 0.05877(15)
H40_2 H 0.5376 0.3414 0.0735
H41_2 H 0.5771 0.3723 0.0514
H42_2 H 0.5617 0.2992 0.0592
C53_2 C 0.4773(9) 0.2985(8) 0.04659(12)
C54_2 C 0.4781(9) 0.3196(8) 0.02487(13)
H43_2 H 0.5204 0.3525 0.0191
C55_2 C 0.4228(9) 0.2962(7) 0.01165(12)
Co1_2 Co 0.33823(11) 0.18828(9) 0.041990(14)
N2_2 N 0.3888(7) 0.1488(6) 0.02383(10)
N3_2 N 0.2400(7) 0.0059(6) 0.16145(9)
N5_3 N 0.2354(7) 0.2416(6) 0.08825(9)
N6_2 N 0.2840(7) 0.2273(6) 0.05931(9)
O3_2 O 0.2493(5) 0.1183(4) 0.02769(7)
O4_2 O 0.3192(7) 0.1217(6) 0.06662(8)
O7_2 O 0.4265(5) 0.2559(4) 0.05693(7)
O8_2 O 0.3600(5) 0.2555(4) 0.01728(7)
C1_3 C 0.5438(9) 0.2106(7) 0.85773(13)
H1_3 H 0.5905 0.2235 0.8543
H2_3 H 0.5432 0.2452 0.8669
H3_3 H 0.5191 0.2062 0.8444
C2_3 C 0.5107(9) 0.1441(7) 0.86946(12)
C3_3 C 0.4906(9) 0.1429(7) 0.89128(12)
H4_3 H 0.5008 0.1851 0.8974
C4_3 C 0.4581(9) 0.0877(7) 0.90457(12)
C5_3 C 0.4436(7) 0.0945(6) 0.92753(12)
C6_3 C 0.4642(9) 0.1584(8) 0.93703(12)
H5_3 H 0.4848 0.1981 0.9285
C7_3 C 0.4542(9) 0.1624(8) 0.95883(13)
H6_3 H 0.4672 0.2052 0.9651
C8_3 C 0.4256(9) 0.1053(7) 0.97193(11)
C9_3 C 0.3999(9) 0.0420(7) 0.96248(12)
H7_3 H 0.3754 0.0020 0.9708
C10_3 C 0.4114(7) 0.0392(6) 0.94045(11)
H9_3 H 0.3609 0.1595 0.9940
C56_3 C 0.4301(9) 0.3175(7) 0.98853(12)
C57_3 C 0.4934(9) 0.3604(8) 0.97884(13)
H44_3 H 0.5329 0.3802 0.9875
C58_3 C 0.4989(9) 0.3739(7) 0.95718(12)
H45_3 H 0.5418 0.4022 0.9508
C59_3 C 0.4404(9) 0.3456(7) 0.94454(11)
C60_3 C 0.3795(9) 0.3115(7) 0.95399(13)
H46_3 H 0.3397 0.2967 0.9456
C61_3 C 0.3746(9) 0.2978(7) 0.97625(12)
H47_3 H 0.3313 0.2742 0.9828
C62_3 C 0.4786(9) 0.4213(7) 0.91300(11)
H48_3 H 0.4960 0.4610 0.9216
C63_3 C 0.4549(9) 0.3555(7) 0.88619(11)
C64_3 C 0.4484(9) 0.3269(7) 0.86574(11)
H49_3 H 0.4647 0.3541 0.8532
C65_3 C 0.4167(10) 0.2567(8) 0.86468(14)
H50_3 H 0.4126 0.2349 0.8513
C66_3 C 0.3910(9) 0.2187(7) 0.88369(15)
H51_3 H 0.3676 0.1709 0.8826
C67_3 C 0.3979(9) 0.2470(7) 0.90396(14)
H52_3 H 0.3808 0.2202 0.9166
C68_3 C 0.4298(9) 0.3138(7) 0.90453(12)
N1_3 N 0.4178(7) 0.1122(6) 0.99429(9)
N7_3 N 0.4463(7) 0.3592(6) 0.92179(9)
N8_3 N 0.4847(7) 0.4236(6) 0.89205(9)
O1_3 O 0.5013(5) 0.0927(4) 0.85931(7)
O2_3 O 0.4387(5) 0.0269(4) 0.89870(7)
H15_3 H 0.0998 0.9982 0.0347
C28_3 C 0.2284(9) 0.9464(7) 0.16928(12)
H22_3 H 0.2247 0.9109 0.1604
H23_3 H 0.2175 0.9963 0.2303
N4_3 N 0.2227(7) 0.9418(6) 0.19024(9)
N9_3 N 0.1514(7) 0.7569(6) 0.22538(9)
O9_3 O 0.2581(6) 0.8320(5) 0.19264(7)
O10_3 O 0.2549(6) 0.8946(5) 0.23203(7)
C1_4 C 0.4561(7) 0.6665(5) 0.19106(13)
H1_4 H 0.4432 0.7003 0.1876
H2_4 H 0.4215 0.6313 0.2002
H3_4 H 0.4605 0.6462 0.1777
C2_4 C 0.5226(7) 0.6999(5) 0.20279(12)
C3_4 C 0.5238(7) 0.6810(5) 0.22461(12)
H4_4 H 0.4816 0.6490 0.2307
C4_4 C 0.5790(7) 0.7037(5) 0.23790(12)
C5_4 C 0.5722(6) 0.6824(4) 0.26086(12)
C6_4 C 0.5083(8) 0.6391(5) 0.27036(12)
H5_4 H 0.4686 0.6200 0.2618
C7_4 C 0.5043(8) 0.6251(5) 0.29216(13)
H6_4 H 0.4615 0.5953 0.2984
C8_4 C 0.5614(7) 0.6536(5) 0.30526(11)
C9_4 C 0.6247(7) 0.6912(5) 0.29581(12)
H7_4 H 0.6647 0.7067 0.3041
C10_4 C 0.6275(6) 0.7055(4) 0.27378(11)
H8_2 H 0.6706 0.7330 0.2674
C11_3 C 0.5231(7) 0.5741(5) 0.33588(11)
H9_4 H 0.5072 0.5347 0.3273
C12_3 C 0.5704(7) 0.6835(5) 0.34489(12)
C13_3 C 0.6009(8) 0.7528(5) 0.34620(14)
H10_3 H 0.6168 0.7808 0.3338
C14_3 C 0.6069(8) 0.7783(5) 0.36623(14)
H11_3 H 0.6290 0.8259 0.3678
C15_3 C 0.5818(8) 0.7378(6) 0.38499(14)
H12_3 H 0.5857 0.7588 0.3985
C16_3 C 0.5528(8) 0.6707(5) 0.38404(13)
H13_3 H 0.5361 0.6433 0.3966
C17_3 C 0.5483(7) 0.6428(5) 0.36335(11)
C18_3 C 0.6287(8) 0.4269(6) 0.35970(14)
H14_3 H 0.5984 0.3782 0.3579
H15_4 H 0.6685 0.4349 0.3680
H16_3 H 0.6429 0.4481 0.3455
C19_3 C 0.5916(7) 0.4574(5) 0.37175(12)
C20_3 C 0.6103(7) 0.4759(5) 0.39355(13)
H17_3 H 0.6405 0.4640 0.4000
C21_3 C 0.5868(8) 0.5111(6) 0.40620(12)
C22_3 C 0.6088(7) 0.5257(5) 0.42900(12)
C23_3 C 0.6054(8) 0.4766(6) 0.44259(13)
H18_3 H 0.5926 0.4332 0.4369
C24_3 C 0.6204(9) 0.4892(6) 0.46446(14)
H19_3 H 0.6148 0.4540 0.4739
C25_3 C 0.6437(7) 0.5546(5) 0.47231(11)
C26_3 C 0.6463(7) 0.6045(5) 0.45949(12)
H20_3 H 0.6595 0.6477 0.4653
C27_3 C 0.6296(7) 0.5913(5) 0.43788(12)
H21_3 H 0.6319 0.6259 0.4288
C28_4 C 0.7203(7) 0.6153(5) 0.50261(12)
H22_4 H 0.7558 0.6471 0.4937
C29_3 C 0.6642(6) 0.5606(4) 0.53034(10)
C30_3 C 0.6416(7) 0.5365(5) 0.55148(12)
H23_4 H 0.6704 0.5545 0.5636
C31_3 C 0.5770(7) 0.4868(5) 0.55331(13)
H24_3 H 0.5592 0.4717 0.5673
C32_3 C 0.5343(8) 0.4559(5) 0.53534(14)
H25_3 H 0.4901 0.4190 0.5375
C33_3 C 0.5566(7) 0.4791(5) 0.51451(13)
H26_3 H 0.5281 0.4608 0.5023
C34_3 C 0.6231(7) 0.5308(5) 0.51271(12)
C35_4 C 0.5305(8) 0.3010(6) 0.55774(13)
H27_4 H 0.5223 0.3143 0.5719
H28_3 H 0.5621 0.3413 0.5496
H29_4 H 0.5496 0.2714 0.5595
C36_4 C 0.4627(7) 0.2628(5) 0.54523(11)
C37_4 C 0.4618(7) 0.2797(5) 0.52351(12)
H30_4 H 0.5037 0.3113 0.5171
C38_4 C 0.4047(7) 0.2542(5) 0.51045(12)
C39_4 C 0.4106(7) 0.2762(5) 0.48732(11)
C40_4 C 0.4624(8) 0.2772(5) 0.47450(13)
H31_4 H 0.4949 0.2682 0.4808
C41_4 C 0.4651(8) 0.2913(6) 0.45277(13)
H32_4 H 0.4974 0.2886 0.4438
C42_4 C 0.4202(7) 0.3097(5) 0.44381(11)
C43_4 C 0.3702(6) 0.3084(4) 0.45653(11)
H33_4 H 0.3384 0.3188 0.4504
C44_4 C 0.3663(6) 0.2921(4) 0.47816(11)
H34_4 H 0.3321 0.2921 0.4868
C45_3 C 0.4329(7) 0.3846(5) 0.41331(12)
H35_3 H 0.4337 0.4191 0.4220
C46_4 C 0.4324(7) 0.3296(5) 0.38610(11)
C47_4 C 0.4362(7) 0.3069(5) 0.36491(12)
H36_3 H 0.4439 0.3345 0.3526
C48_4 C 0.4281(7) 0.2436(5) 0.36318(14)
H37_4 H 0.4259 0.2259 0.3491
C49_4 C 0.4228(8) 0.2024(6) 0.38142(13)
H38_4 H 0.4228 0.1612 0.3796
C50_4 C 0.4177(7) 0.2249(5) 0.40197(13)
H39_4 H 0.4094 0.1969 0.4142
C51_4 C 0.4248(6) 0.2884(5) 0.40417(11)
C52_3 C 0.3359(8) 0.5470(5) 0.39210(15)
H40_3 H 0.3253 0.5295 0.4068
H41_3 H 0.2944 0.5381 0.3847
H42_3 H 0.3675 0.5958 0.3925
C53_3 C 0.3682(8) 0.5121(5) 0.37992(12)
C54_3 C 0.3471(8) 0.4918(5) 0.35820(13)
H43_3 H 0.3142 0.5012 0.3524
C55_3 C 0.3705(7) 0.4599(5) 0.34498(12)
C56_4 C 0.3492(7) 0.4459(5) 0.32186(12)
C57_4 C 0.3063(8) 0.4663(5) 0.31217(13)
H44_4 H 0.2865 0.4860 0.3208
C58_4 C 0.2928(7) 0.4583(5) 0.29051(12)
H45_4 H 0.2645 0.4729 0.2841
C59_4 C 0.3211(7) 0.4281(5) 0.27787(11)
C60_4 C 0.3552(7) 0.4013(5) 0.28732(13)
H46_4 H 0.3700 0.3763 0.2789
C61_4 C 0.3689(7) 0.4101(5) 0.30958(12)
H47_4 H 0.3925 0.3904 0.3161
C62_4 C 0.2454(7) 0.3906(5) 0.24633(11)
H48_4 H 0.2057 0.3683 0.2549
C63_4 C 0.3112(7) 0.4327(5) 0.21952(11)
C64_4 C 0.3398(7) 0.4548(5) 0.19907(11)
H49_4 H 0.3126 0.4439 0.1865
C65_4 C 0.4100(8) 0.4933(6) 0.19801(14)
H50_4 H 0.4318 0.5110 0.1846
C66_4 C 0.4480(7) 0.5056(5) 0.21702(15)
H51_4 H 0.4958 0.5300 0.2159
C67_4 C 0.4197(7) 0.4842(5) 0.23729(14)
H52_4 H 0.4465 0.4939 0.2499
C68_4 C 0.3529(7) 0.4493(5) 0.23786(12)
Co1_3 Co 0.47839(9) 0.48328(6) 0.375323(14)
Co2_2 Co 0.81844(9) 0.67289(7) 0.540843(14)
N1_4 N 0.5545(6) 0.6389(4) 0.32762(9)
N2_3 N 0.5179(6) 0.5733(4) 0.35716(10)
N3_3 N 0.6608(6) 0.5674(4) 0.49478(9)
N4_4 N 0.7249(6) 0.6142(4) 0.52357(9)
N5_4 N 0.4251(6) 0.3271(4) 0.42158(9)
N6_3 N 0.4394(6) 0.3900(4) 0.39264(9)
N7_4 N 0.3075(6) 0.4204(4) 0.25512(9)
O3_3 O 0.5484(4) 0.4643(3) 0.36102(7)
O4_3 O 0.5450(6) 0.5308(4) 0.39995(8)
O5_3 O 0.4136(4) 0.2171(3) 0.55559(7)
O6_3 O 0.3442(4) 0.2116(3) 0.51614(7)
O7_3 O 0.4108(4) 0.5039(3) 0.39026(7)
O8_3 O 0.4112(4) 0.4378(3) 0.35061(7)
Co5_3 Co 0.32711(7) 0.14554(11) 0.540843(14)
N9_4 N 0.9097(6) 0.7278(4) 0.55872(9)
O9_4 O 0.8346(5) 0.7594(4) 0.52598(7)
O10_4 O 0.7720(5) 0.6936(4) 0.56537(7)
O11_2 O 0.8036(5) 0.5864(4) 0.55559(7)
O12_2 O 0.8675(5) 0.6558(4) 0.51614(7)
C18_4 C 0.5731(6) 0.2017(10) 0.35970(14)
H14_4 H 0.6218 0.2201 0.3579
H15_5 H 0.5651 0.2335 0.3680
H16_4 H 0.5519 0.1947 0.3455
C19_4 C 0.5426(5) 0.1341(9) 0.37175(12)
C20_4 C 0.5241(5) 0.1343(9) 0.39355(13)
H17_4 H 0.5360 0.1764 0.4000
C21_4 C 0.4889(6) 0.0756(10) 0.40620(12)
C22_4 C 0.4743(5) 0.0830(9) 0.42900(12)
C23_4 C 0.5234(6) 0.1287(10) 0.44259(13)
H18_4 H 0.5668 0.1593 0.4369
C24_4 C 0.5108(6) 0.1311(11) 0.46446(14)
H19_4 H 0.5460 0.1607 0.4739
C25_4 C 0.4454(5) 0.0890(9) 0.47231(11)
C26_4 C 0.3955(5) 0.0417(9) 0.45949(12)
H20_4 H 0.3523 0.0117 0.4653
C27_4 C 0.4087(5) 0.0382(9) 0.43788(12)
H21_4 H 0.3741 0.0059 0.4288
C28_5 C 0.3847(5) 0.1049(9) 0.50261(12)
H22_5 H 0.3529 0.1086 0.4937
C29_4 C 0.4394(4) 0.1035(7) 0.53034(10)
C30_4 C 0.4635(5) 0.1050(9) 0.55148(12)
H23_5 H 0.4455 0.1158 0.5636
C31_4 C 0.5132(5) 0.0901(9) 0.55331(13)
H24_4 H 0.5283 0.0874 0.5673
C32_4 C 0.5441(5) 0.0783(9) 0.53534(14)
H25_4 H 0.5810 0.0710 0.5375
C33_4 C 0.5209(5) 0.0774(9) 0.51451(13)
H26_4 H 0.5392 0.0672 0.5023
C34_4 C 0.4692(5) 0.0922(9) 0.51271(12)
C35_5 C 0.6990(6) 0.2294(10) 0.55774(13)
H27_5 H 0.6857 0.2079 0.5719
H28_4 H 0.6587 0.2207 0.5496
H29_5 H 0.7286 0.2781 0.5595
C36_5 C 0.7372(5) 0.1998(9) 0.54523(11)
C37_5 C 0.7203(5) 0.1820(9) 0.52351(12)
H30_5 H 0.6887 0.1923 0.5171
C38_5 C 0.7458(5) 0.1504(9) 0.51045(12)
C39_5 C 0.7238(5) 0.1343(9) 0.48732(11)
C40_5 C 0.7228(5) 0.1851(9) 0.47450(13)
H31_5 H 0.7318 0.2266 0.4808
C41_5 C 0.7087(6) 0.1737(10) 0.45277(13)
H32_5 H 0.7114 0.2087 0.4438
C42_5 C 0.6903(5) 0.1104(9) 0.44381(11)
C43_5 C 0.6916(4) 0.0617(7) 0.45653(11)
H33_5 H 0.6812 0.0195 0.4504
C44_5 C 0.7079(4) 0.0741(7) 0.47816(11)
H34_5 H 0.7079 0.0399 0.4868
C45_4 C 0.6154(5) 0.0482(9) 0.41331(12)
H35_4 H 0.5809 0.0145 0.4220
C46_5 C 0.6704(5) 0.1027(9) 0.38610(11)
C47_5 C 0.6931(5) 0.1292(9) 0.36491(12)
H36_4 H 0.6655 0.1093 0.3526
C48_5 C 0.7564(5) 0.1844(9) 0.36318(14)
H37_5 H 0.7741 0.1999 0.3491
C49_5 C 0.7976(6) 0.2203(10) 0.38142(13)
H38_5 H 0.8388 0.2615 0.3796
C50_5 C 0.7751(5) 0.1927(9) 0.40197(13)
H39_5 H 0.8031 0.2124 0.4142
C51_5 C 0.7116(5) 0.1363(8) 0.40417(11)
H47_5 H 0.6096 0.0020 0.3161
N3_4 N 0.4326(4) 0.0933(7) 0.49478(9)
N4_5 N 0.3858(4) 0.1106(7) 0.52357(9)
N5_5 N 0.6729(4) 0.0979(7) 0.42158(9)
N6_4 N 0.6100(4) 0.0493(7) 0.39264(9)
O3_4 O 0.5357(3) 0.0840(5) 0.36102(7)
O4_4 O 0.4692(4) 0.0141(7) 0.39995(8)
O5_4 O 0.7829(3) 0.1964(5) 0.55559(7)
O6_4 O 0.7884(3) 0.1325(5) 0.51614(7)
Co5_4 Co 0.85446(11) 0.18156(13) 0.540843(14)
N9_5 N 0.2722(4) 0.1820(7) 0.55872(9)
O9_5 O 0.2406(4) 0.0753(6) 0.52598(7)
O10_5 O 0.3064(4) 0.0785(6) 0.56537(7)
C1_5 C 0.3335(5) 0.7895(9) 0.19106(13)
H1_5 H 0.2997 0.7428 0.1876
H2_5 H 0.3687 0.7901 0.2002
H3_5 H 0.3538 0.8142 0.1777
C2_5 C 0.3001(5) 0.8226(9) 0.20279(12)
C3_5 C 0.3190(5) 0.8427(9) 0.22461(12)
H4_5 H 0.3510 0.8325 0.2307
C4_5 C 0.2963(5) 0.8752(9) 0.23790(12)
C5_5 C 0.3176(4) 0.8897(7) 0.26086(12)
C6_5 C 0.3609(5) 0.8691(9) 0.27036(12)
H5_5 H 0.3800 0.8485 0.2618
C7_5 C 0.3749(5) 0.8791(9) 0.29216(13)
H6_5 H 0.4047 0.8661 0.2984
C8_5 C 0.3464(5) 0.9077(9) 0.30526(11)
C9_5 C 0.3088(5) 0.9334(9) 0.29581(12)
H7_5 H 0.2933 0.9579 0.3041
C10_5 C 0.2945(4) 0.9219(7) 0.27378(11)
H8_3 H 0.2670 0.9375 0.2674
C11_4 C 0.4259(5) 0.9489(9) 0.33588(11)
H9_5 H 0.4653 0.9724 0.3273
C12_4 C 0.3165(5) 0.8868(9) 0.34489(12)
C13_4 C 0.2472(5) 0.8480(9) 0.34620(14)
H10_4 H 0.2192 0.8359 0.3338
C14_4 C 0.2217(5) 0.8285(9) 0.36623(14)
H11_4 H 0.1741 0.8030 0.3678
C15_4 C 0.2622(6) 0.8439(10) 0.38499(14)
H12_4 H 0.2412 0.8268 0.3985
C16_4 C 0.3293(5) 0.8820(9) 0.38404(13)
H13_4 H 0.3567 0.8927 0.3966
C17_4 C 0.3572(5) 0.9054(9) 0.36335(11)
C52_4 C 0.4530(5) 0.7888(9) 0.39210(15)
H40_4 H 0.4705 0.7957 0.4068
H41_4 H 0.4619 0.7562 0.3847
H42_4 H 0.4042 0.7716 0.3925
C53_4 C 0.4879(5) 0.8560(9) 0.37992(12)
C54_4 C 0.5082(5) 0.8552(9) 0.35820(13)
H43_4 H 0.4988 0.8129 0.3524
C55_4 C 0.5401(5) 0.9105(9) 0.34498(12)
C56_5 C 0.5541(5) 0.9032(9) 0.32186(12)
C57_5 C 0.5337(5) 0.8399(9) 0.31217(13)
H44_5 H 0.5140 0.8004 0.3208
C58_5 C 0.5417(5) 0.8344(9) 0.29051(12)
H45_5 H 0.5271 0.7915 0.2841
C59_5 C 0.5719(5) 0.8929(9) 0.27787(11)
C60_5 C 0.5987(5) 0.9538(9) 0.28732(13)
H46_5 H 0.6237 0.9936 0.2789
C61_5 C 0.5899(5) 0.9587(9) 0.30958(12)
C62_5 C 0.6094(5) 0.8547(9) 0.24633(11)
H48_5 H 0.6317 0.8373 0.2549
C63_5 C 0.5673(5) 0.8784(9) 0.21952(11)
C64_5 C 0.5452(5) 0.8849(9) 0.19907(11)
H49_5 H 0.5561 0.8686 0.1865
C65_5 C 0.5067(6) 0.9166(10) 0.19801(14)
H50_5 H 0.4890 0.9207 0.1846
C66_5 C 0.4944(5) 0.9423(9) 0.21702(15)
H51_5 H 0.4700 0.9657 0.2159
C67_5 C 0.5158(5) 0.9354(9) 0.23729(14)
H52_5 H 0.5061 0.9525 0.2499
C68_5 C 0.5507(5) 0.9035(9) 0.23786(12)
Co1_4 Co 0.51672(6) 0.99510(11) 0.375323(14)
N1_5 N 0.3611(4) 0.9155(7) 0.32762(9)
N2_4 N 0.4267(4) 0.9445(7) 0.35716(10)
N7_5 N 0.5796(4) 0.8870(7) 0.25512(9)
O7_4 O 0.4961(3) 0.9068(5) 0.39026(7)
O8_4 O 0.5622(3) 0.9733(5) 0.35061(7)
C1_6 C 0.2105(9) 0.5439(7) 0.19106(13)
H1_6 H 0.2572 0.5568 0.1876
H2_6 H 0.2099 0.5785 0.2002
H3_6 H 0.1858 0.5395 0.1777
C2_6 C 0.1774(9) 0.4774(7) 0.20279(12)
C3_6 C 0.1573(9) 0.4762(7) 0.22461(12)
H4_6 H 0.1675 0.5184 0.2307
C4_6 C 0.1248(9) 0.4210(7) 0.23790(12)
C5_6 C 0.1103(7) 0.4278(6) 0.26086(12)
C6_6 C 0.1309(9) 0.4917(8) 0.27036(12)
H5_6 H 0.1515 0.5314 0.2618
C7_6 C 0.1209(9) 0.4957(8) 0.29216(13)
H6_6 H 0.1339 0.5385 0.2984
C8_6 C 0.0923(9) 0.4386(7) 0.30526(11)
C9_6 C 0.0666(9) 0.3753(7) 0.29581(12)
H7_6 H 0.0421 0.3353 0.3041
C10_6 C 0.0781(7) 0.3725(6) 0.27378(11)
H8_4 H 0.0625 0.3294 0.2674
C11_5 C 0.0511(9) 0.4769(7) 0.33588(11)
H9_6 H 0.0276 0.4928 0.3273
C12_5 C 0.1132(9) 0.4296(7) 0.34489(12)
C13_5 C 0.1520(9) 0.3991(8) 0.34620(14)
H10_5 H 0.1641 0.3832 0.3338
C14_5 C 0.1715(9) 0.3931(8) 0.36623(14)
H11_5 H 0.1970 0.3710 0.3678
C15_5 C 0.1561(10) 0.4182(8) 0.38499(14)
H12_5 H 0.1732 0.4143 0.3985
C16_5 C 0.1180(9) 0.4472(8) 0.38404(13)
H13_5 H 0.1073 0.4639 0.3966
C17_5 C 0.0946(9) 0.4517(7) 0.36335(11)
C52_5 C 0.2112(9) 0.6641(8) 0.39210(15)
H40_5 H 0.2043 0.6747 0.4068
H41_5 H 0.2438 0.7056 0.3847
H42_5 H 0.2284 0.6325 0.3925
C53_5 C 0.1440(9) 0.6318(8) 0.37992(12)
C54_5 C 0.1448(9) 0.6529(8) 0.35820(13)
H43_5 H 0.1871 0.6858 0.3524
C55_5 C 0.0895(9) 0.6295(7) 0.34498(12)
C56_6 C 0.0968(9) 0.6508(7) 0.32186(12)
C57_6 C 0.1601(9) 0.6937(8) 0.31217(13)
H44_6 H 0.1996 0.7135 0.3208
C58_6 C 0.1656(9) 0.7072(7) 0.29051(12)
H45_6 H 0.2085 0.7355 0.2841
C59_6 C 0.1071(9) 0.6789(7) 0.27787(11)
C60_6 C 0.0462(9) 0.6448(7) 0.28732(13)
H46_6 H 0.0064 0.6300 0.2789
C61_6 C 0.0413(9) 0.6311(7) 0.30958(12)
C62_6 C 0.1453(9) 0.7546(7) 0.24633(11)
H48_6 H 0.1627 0.7943 0.2549
C63_6 C 0.1216(9) 0.6888(7) 0.21952(11)
C64_6 C 0.1151(9) 0.6602(7) 0.19907(11)
H49_6 H 0.1314 0.6874 0.1865
C65_6 C 0.0834(10) 0.5900(8) 0.19801(14)
H50_6 H 0.0793 0.5682 0.1846
C66_6 C 0.0577(9) 0.5520(7) 0.21702(15)
H51_6 H 0.0343 0.5042 0.2159
C67_6 C 0.0646(9) 0.5803(7) 0.23729(14)
H52_6 H 0.0475 0.5535 0.2499
C68_6 C 0.0965(9) 0.6471(7) 0.23786(12)
Co1_5 Co 0.00490(11) 0.52161(9) 0.375323(14)
N1_6 N 0.0845(7) 0.4455(6) 0.32762(9)
N2_5 N 0.0555(7) 0.4821(6) 0.35716(10)
N7_6 N 0.1130(7) 0.6925(6) 0.25512(9)
O7_5 O 0.0932(5) 0.5892(4) 0.39026(7)
O8_5 O 0.0267(5) 0.5888(4) 0.35061(7)
C18_5 C 0.7983(10) 0.3713(8) 0.35970(14)
H14_5 H 0.7799 0.4016 0.3579
H15_6 H 0.7665 0.3315 0.3680
H16_5 H 0.8053 0.3571 0.3455
C19_5 C 0.8659(9) 0.4084(7) 0.37175(12)
C20_5 C 0.8657(9) 0.3897(7) 0.39355(13)
H17_5 H 0.8236 0.3595 0.4000
C21_5 C 0.9244(10) 0.4132(8) 0.40620(12)
C22_5 C 0.9170(9) 0.3912(7) 0.42900(12)
C23_5 C 0.8713(10) 0.3946(8) 0.44259(13)
H18_5 H 0.8407 0.4074 0.4369
C24_5 C 0.8689(11) 0.3796(9) 0.46446(14)
H19_5 H 0.8393 0.3852 0.4739
C25_5 C 0.9110(9) 0.3563(7) 0.47231(11)
C26_5 C 0.9583(9) 0.3537(7) 0.45949(12)
H20_5 H 0.9883 0.3405 0.4653
C27_5 C 0.9618(9) 0.3704(7) 0.43788(12)
H21_5 H 0.9941 0.3681 0.4288
C28_6 C 0.8951(9) 0.2797(7) 0.50261(12)
H22_6 H 0.8914 0.2442 0.4937
C29_5 C 0.8965(7) 0.3358(6) 0.53034(10)
C30_5 C 0.8950(9) 0.3584(7) 0.55148(12)
H23_6 H 0.8842 0.3296 0.5636
C31_5 C 0.9099(9) 0.4230(7) 0.55331(13)
H24_5 H 0.9126 0.4408 0.5673
C32_5 C 0.9217(9) 0.4657(8) 0.53534(14)
H25_5 H 0.9290 0.5099 0.5375
C33_5 C 0.9226(9) 0.4434(7) 0.51451(13)
H26_5 H 0.9328 0.4719 0.5023
C34_5 C 0.9078(9) 0.3769(7) 0.51271(12)
C35_6 C 0.7706(10) 0.4695(8) 0.55774(13)
H27_6 H 0.7921 0.4777 0.5719
H28_5 H 0.7793 0.4379 0.5496
H29_6 H 0.7219 0.4504 0.5595
C36_6 C 0.8002(9) 0.5373(7) 0.54523(11)
C37_6 C 0.8180(9) 0.5382(7) 0.52351(12)
H30_6 H 0.8077 0.4963 0.5171
C38_6 C 0.8496(9) 0.5953(7) 0.51045(12)
C39_6 C 0.8657(9) 0.5894(7) 0.48732(11)
C40_6 C 0.8149(9) 0.5376(8) 0.47450(13)
H31_6 H 0.7734 0.5051 0.4808
C41_6 C 0.8263(10) 0.5349(8) 0.45277(13)
H32_6 H 0.7913 0.5026 0.4438
C42_6 C 0.8896(9) 0.5798(7) 0.44381(11)
C43_6 C 0.9383(7) 0.6298(6) 0.45653(11)
H33_6 H 0.9805 0.6616 0.4504
C44_6 C 0.9259(7) 0.6337(6) 0.47816(11)
H34_6 H 0.9601 0.6679 0.4868
C45_5 C 0.9518(9) 0.5671(7) 0.41331(12)
H35_5 H 0.9855 0.5663 0.4220
C46_6 C 0.8973(9) 0.5676(7) 0.38610(11)
C47_6 C 0.8708(9) 0.5638(7) 0.36491(12)
H36_5 H 0.8907 0.5561 0.3526
C48_6 C 0.8156(9) 0.5719(7) 0.36318(14)
H37_6 H 0.8001 0.5741 0.3491
C49_6 C 0.7797(10) 0.5772(8) 0.38142(13)
H38_6 H 0.7385 0.5772 0.3796
C50_6 C 0.8073(9) 0.5823(7) 0.40197(13)
H39_6 H 0.7876 0.5906 0.4142
C51_6 C 0.8637(8) 0.5752(6) 0.40417(11)
H47_6 H 0.9980 0.6075 0.3161
N3_5 N 0.9067(7) 0.3392(6) 0.49478(9)
N4_6 N 0.8894(7) 0.2751(6) 0.52357(9)
N5_6 N 0.9021(7) 0.5749(6) 0.42158(9)
N6_5 N 0.9507(7) 0.5606(6) 0.39264(9)
O3_5 O 0.9160(5) 0.4516(4) 0.36102(7)
O4_5 O 0.9859(7) 0.4550(6) 0.39995(8)
N9_6 N 0.8180(7) 0.0903(6) 0.55872(9)
O9_6 O 0.9247(6) 0.1654(5) 0.52598(7)
O10_6 O 0.9215(6) 0.2280(5) 0.56537(7)
H1_7 H 0.1098 0.0337 0.5210
C2_7 C 0.1892(7) 0.0333(5) 0.53613(12)
C3_7 C 0.1904(7) 0.0144(5) 0.55795(12)
C4_7 C 0.2456(7) 0.0371(5) 0.57124(12)
C5_7 C 0.2388(6) 0.0158(4) 0.59420(12)
C9_7 C 0.2913(7) 0.0246(5) 0.62915(12)
H7_7 H 0.3313 0.0401 0.6375
C10_7 C 0.2941(6) 0.0389(4) 0.60712(11)
H8_5 H 0.3372 0.0664 0.6008
C12_6 C 0.2370(7) 0.0169(5) 0.67823(12)
C13_6 C 0.2675(8) 0.0862(5) 0.67954(14)
H10_6 H 0.2834 0.1142 0.6672
C14_6 C 0.2735(8) 0.1117(5) 0.69957(14)
H11_6 H 0.2956 0.1593 0.7012
C15_6 C 0.2484(8) 0.0712(6) 0.71833(14)
H12_6 H 0.2523 0.0922 0.7319
C16_6 C 0.2194(8) 0.0041(5) 0.71738(13)
C1_7 C 0.1227(7) 0.9999(5) 0.52440(13)
H2_7 H 0.0881 0.9647 0.5336
H3_7 H 0.1271 0.9796 0.5111
H4_7 H 0.1482 0.9824 0.5641
C6_7 C 0.1749(8) 0.9725(5) 0.60370(12)
H5_7 H 0.1352 0.9534 0.5952
C7_7 C 0.1709(8) 0.9585(5) 0.62550(13)
H6_7 H 0.1281 0.9287 0.6318
C8_7 C 0.2280(7) 0.9870(5) 0.63860(11)
C11_6 C 0.1897(7) 0.9075(5) 0.66922(11)
H9_7 H 0.1738 0.8681 0.6607
H13_6 H 0.2027 0.9767 0.7300
C17_6 C 0.2149(7) 0.9762(5) 0.69669(11)
C18_6 C 0.2953(8) 0.7603(6) 0.69304(14)
H14_6 H 0.2650 0.7116 0.6913
H15_7 H 0.3351 0.7683 0.7014
H16_6 H 0.3095 0.7815 0.6789
C19_6 C 0.2582(7) 0.7908(5) 0.70509(12)
C20_6 C 0.2769(7) 0.8093(5) 0.72689(13)
H17_6 H 0.3071 0.7974 0.7334
C21_6 C 0.2534(8) 0.8445(6) 0.73954(12)
C22_6 C 0.2754(7) 0.8591(5) 0.76234(12)
C23_6 C 0.2720(8) 0.8100(6) 0.77593(13)
H18_6 H 0.2592 0.7666 0.7703
C24_6 C 0.2870(9) 0.8226(6) 0.79780(14)
H19_6 H 0.2814 0.7874 0.8073
C25_6 C 0.3103(7) 0.8880(5) 0.80565(11)
C26_6 C 0.3129(7) 0.9379(5) 0.79283(12)
H20_6 H 0.3261 0.9811 0.7987
C27_6 C 0.2962(7) 0.9247(5) 0.77122(12)
H21_6 H 0.2985 0.9593 0.7622
C28_7 C 0.3869(7) 0.9487(5) 0.83595(12)
H22_7 H 0.4224 0.9805 0.8271
C29_6 C 0.3308(6) 0.8940(4) 0.86368(10)
C30_6 C 0.3082(7) 0.8699(5) 0.88482(12)
H23_7 H 0.3370 0.8879 0.8970
C31_6 C 0.2436(7) 0.8202(5) 0.88665(13)
H24_6 H 0.2258 0.8051 0.9007
C32_6 C 0.2009(8) 0.7893(5) 0.86868(14)
H25_6 H 0.1567 0.7524 0.8709
C33_6 C 0.2232(7) 0.8125(5) 0.84785(13)
H26_6 H 0.1947 0.7942 0.8357
C34_6 C 0.2897(7) 0.8642(5) 0.84605(12)
C35_7 C 0.1971(8) 0.6344(6) 0.89108(13)
H27_7 H 0.1889 0.6477 0.9053
H28_6 H 0.2287 0.6747 0.8830
H29_7 H 0.2162 0.6048 0.8929
C36_7 C 0.1293(7) 0.5962(5) 0.87857(11)
C37_7 C 0.1284(7) 0.6131(5) 0.85685(12)
H30_7 H 0.1703 0.6447 0.8505
C38_7 C 0.0713(7) 0.5876(5) 0.84379(12)
C39_7 C 0.0772(7) 0.6096(5) 0.82066(11)
C40_7 C 0.1290(8) 0.6106(5) 0.80784(13)
H31_7 H 0.1615 0.6016 0.8142
C41_7 C 0.1317(8) 0.6247(6) 0.78611(13)
H32_7 H 0.1640 0.6220 0.7772
C42_7 C 0.0868(7) 0.6431(5) 0.77715(11)
C43_7 C 0.0368(6) 0.6418(4) 0.78987(11)
H33_7 H 0.0050 0.6522 0.7838
C44_7 C 0.0329(6) 0.6255(4) 0.81150(11)
C45_6 C 0.0995(7) 0.7180(5) 0.74665(12)
H35_6 H 0.1003 0.7525 0.7554
C46_7 C 0.0990(7) 0.6630(5) 0.71944(11)
C47_7 C 0.1028(7) 0.6403(5) 0.69825(12)
H36_6 H 0.1105 0.6679 0.6860
C48_7 C 0.0947(7) 0.5770(5) 0.69652(14)
H37_7 H 0.0925 0.5593 0.6825
C49_7 C 0.0894(8) 0.5358(6) 0.71476(13)
H38_7 H 0.0894 0.4946 0.7130
C50_7 C 0.0843(7) 0.5583(5) 0.73531(13)
H39_7 H 0.0760 0.5303 0.7476
C51_7 C 0.0914(6) 0.6218(5) 0.73751(11)
C52_6 C 0.0025(8) 0.8804(5) 0.72544(15)
H42_6 H 0.0341 0.9292 0.7259
C53_6 C 0.0348(8) 0.8455(5) 0.71326(12)
C54_6 C 0.0137(8) 0.8252(5) 0.69154(13)
C55_6 C 0.0371(7) 0.7933(5) 0.67832(12)
C56_7 C 0.0158(7) 0.7793(5) 0.65520(12)
C60_7 C 0.0218(7) 0.7347(5) 0.62066(13)
H46_7 H 0.0366 0.7097 0.6123
C61_7 C 0.0355(7) 0.7435(5) 0.64292(12)
H47_7 H 0.0591 0.7238 0.6495
C64_7 C 0.0064(7) 0.7882(5) 0.53241(11)
C65_7 C 0.0766(8) 0.8267(6) 0.53135(14)
H50_7 H 0.0984 0.8444 0.5180
C66_7 C 0.1146(7) 0.8390(5) 0.55036(15)
H51_7 H 0.1624 0.8634 0.5493
C67_7 C 0.0863(7) 0.8176(5) 0.57063(14)
H52_7 H 0.1131 0.8273 0.5833
C68_7 C 0.0195(7) 0.7827(5) 0.57120(12)
Co1_6 Co 0.14505(9) 0.81662(6) 0.708657(14)
N1_7 N 0.2211(6) 0.9723(4) 0.66096(9)
N2_6 N 0.1845(6) 0.9067(4) 0.69050(10)
N3_6 N 0.3274(6) 0.9008(4) 0.82812(9)
N4_7 N 0.3915(6) 0.9476(4) 0.85691(9)
N5_7 N 0.0917(6) 0.6605(4) 0.75492(9)
N6_6 N 0.1060(6) 0.7234(4) 0.72598(9)
O3_6 O 0.2150(4) 0.7977(3) 0.69436(7)
O4_6 O 0.2116(6) 0.8642(4) 0.73329(8)
O5_5 O 0.0802(4) 0.5505(3) 0.88893(7)
O6_5 O 0.0108(4) 0.5450(3) 0.84948(7)
O7_6 O 0.0774(4) 0.8373(3) 0.72360(7)
O8_6 O 0.0778(4) 0.7712(3) 0.68395(7)
O11_3 O 0.4702(5) 0.9198(4) 0.88893(7)
O12_3 O 0.5341(5) 0.9892(4) 0.84948(7)
H34_7 H 0.9987 0.6255 0.8202
H40_6 H 0.9919 0.8629 0.7402
H41_6 H 0.9610 0.8715 0.7181
H43_6 H 0.9808 0.8346 0.6858
C57_7 C 0.9729(8) 0.7997(5) 0.64551(13)
H44_7 H 0.9531 0.8194 0.6542
C58_7 C 0.9594(7) 0.7917(5) 0.62385(12)
H45_7 H 0.9311 0.8063 0.6175
C59_7 C 0.9877(7) 0.7615(5) 0.61121(11)
C62_7 C 0.9120(7) 0.7240(5) 0.57967(11)
H48_7 H 0.8723 0.7017 0.5883
C63_7 C 0.9778(7) 0.7661(5) 0.55286(11)
H49_7 H 0.9792 0.7773 0.5199
N7_7 N 0.9741(6) 0.7538(4) 0.58846(9)
C1_8 C 0.0001(5) 0.1229(9) 0.52440(13)
H2_8 H 0.0353 0.1235 0.5336
H3_8 H 0.0204 0.1476 0.5111
H4_8 H 0.0176 0.1659 0.5641
C6_8 C 0.0275(5) 0.2025(9) 0.60370(12)
H5_8 H 0.0466 0.1819 0.5952
C7_8 C 0.0415(5) 0.2125(9) 0.62550(13)
H6_8 H 0.0713 0.1995 0.6318
C8_8 C 0.0130(5) 0.2411(9) 0.63860(11)
C11_7 C 0.0925(5) 0.2823(9) 0.66922(11)
H9_8 H 0.1319 0.3058 0.6607
H13_7 H 0.0233 0.2261 0.7300
C17_7 C 0.0238(5) 0.2388(9) 0.69669(11)
C18_7 C 0.2397(6) 0.5351(10) 0.69304(14)
H14_7 H 0.2884 0.5535 0.6913
H15_8 H 0.2317 0.5669 0.7014
H16_7 H 0.2185 0.5281 0.6789
C19_7 C 0.2092(5) 0.4675(9) 0.70509(12)
C20_7 C 0.1907(5) 0.4677(9) 0.72689(13)
H17_7 H 0.2026 0.5098 0.7334
C21_7 C 0.1555(6) 0.4090(10) 0.73954(12)
C22_7 C 0.1409(5) 0.4164(9) 0.76234(12)
C23_7 C 0.1900(6) 0.4621(10) 0.77593(13)
H18_7 H 0.2334 0.4927 0.7703
C24_7 C 0.1774(6) 0.4645(11) 0.79780(14)
H19_7 H 0.2126 0.4941 0.8073
C25_7 C 0.1120(5) 0.4224(9) 0.80565(11)
C26_7 C 0.0621(5) 0.3751(9) 0.79283(12)
H20_7 H 0.0189 0.3451 0.7987
C27_7 C 0.0753(5) 0.3716(9) 0.77122(12)
H21_7 H 0.0407 0.3393 0.7622
C28_8 C 0.0513(5) 0.4383(9) 0.83595(12)
H22_8 H 0.0195 0.4420 0.8271
C29_7 C 0.1060(4) 0.4369(7) 0.86368(10)
C30_7 C 0.1301(5) 0.4384(9) 0.88482(12)
H23_8 H 0.1121 0.4492 0.8970
C31_7 C 0.1798(5) 0.4235(9) 0.88665(13)
H24_7 H 0.1949 0.4208 0.9007
C32_7 C 0.2107(5) 0.4117(9) 0.86868(14)
H25_7 H 0.2476 0.4044 0.8709
C33_7 C 0.1875(5) 0.4108(9) 0.84785(13)
H26_7 H 0.2058 0.4006 0.8357
C34_7 C 0.1358(5) 0.4256(9) 0.84605(12)
C35_8 C 0.3656(6) 0.5628(10) 0.89108(13)
H27_8 H 0.3523 0.5413 0.9053
H28_7 H 0.3253 0.5541 0.8830
H29_8 H 0.3952 0.6115 0.8929
C36_8 C 0.4038(5) 0.5332(9) 0.87857(11)
C37_8 C 0.3869(5) 0.5154(9) 0.85685(12)
H30_8 H 0.3553 0.5257 0.8505
C38_8 C 0.4124(5) 0.4838(9) 0.84379(12)
C39_8 C 0.3904(5) 0.4677(9) 0.82066(11)
C40_8 C 0.3894(5) 0.5185(9) 0.80784(13)
H31_8 H 0.3984 0.5600 0.8142
C41_8 C 0.3753(6) 0.5071(10) 0.78611(13)
H32_8 H 0.3780 0.5421 0.7772
C42_8 C 0.3569(5) 0.4438(9) 0.77715(11)
C43_8 C 0.3582(4) 0.3951(7) 0.78987(11)
H33_8 H 0.3478 0.3529 0.7838
C44_8 C 0.3745(4) 0.4075(7) 0.81150(11)
H34_8 H 0.3745 0.3733 0.8202
C45_7 C 0.2820(5) 0.3816(9) 0.74665(12)
H35_7 H 0.2475 0.3479 0.7554
C46_8 C 0.3370(5) 0.4361(9) 0.71944(11)
C47_8 C 0.3597(5) 0.4626(9) 0.69825(12)
H36_7 H 0.3321 0.4427 0.6860
C48_8 C 0.4230(5) 0.5178(9) 0.69652(14)
H37_8 H 0.4407 0.5333 0.6825
C49_8 C 0.4642(6) 0.5537(10) 0.71476(13)
H38_8 H 0.5054 0.5949 0.7130
C50_8 C 0.4417(5) 0.5261(9) 0.73531(13)
H39_8 H 0.4697 0.5458 0.7476
C51_8 C 0.3782(5) 0.4697(8) 0.73751(11)
C52_7 C 0.1196(5) 0.1222(9) 0.72544(15)
H40_7 H 0.1371 0.1291 0.7402
H41_7 H 0.1285 0.0896 0.7181
H42_7 H 0.0708 0.1050 0.7259
C53_7 C 0.1545(5) 0.1894(9) 0.71326(12)
C54_7 C 0.1748(5) 0.1886(9) 0.69154(13)
H43_7 H 0.1654 0.1463 0.6858
C55_7 C 0.2067(5) 0.2439(9) 0.67832(12)
C56_8 C 0.2207(5) 0.2366(9) 0.65520(12)
C57_8 C 0.2003(5) 0.1733(9) 0.64551(13)
H44_8 H 0.1806 0.1338 0.6542
C58_8 C 0.2083(5) 0.1678(9) 0.62385(12)
H45_8 H 0.1937 0.1249 0.6175
C59_8 C 0.2385(5) 0.2263(9) 0.61121(11)
C60_8 C 0.2653(5) 0.2872(9) 0.62066(13)
H46_8 H 0.2903 0.3270 0.6123
C61_8 C 0.2565(5) 0.2921(9) 0.64292(12)
H47_8 H 0.2762 0.3354 0.6495
C62_8 C 0.2760(5) 0.1881(9) 0.57967(11)
H48_8 H 0.2983 0.1707 0.5883
C63_8 C 0.2339(5) 0.2118(9) 0.55286(11)
C64_8 C 0.2118(5) 0.2183(9) 0.53241(11)
H49_8 H 0.2227 0.2020 0.5199
C65_8 C 0.1733(6) 0.2500(10) 0.53135(14)
H50_8 H 0.1556 0.2541 0.5180
C66_8 C 0.1610(5) 0.2757(9) 0.55036(15)
H51_8 H 0.1366 0.2991 0.5493
C67_8 C 0.1824(5) 0.2688(9) 0.57063(14)
H52_8 H 0.1727 0.2859 0.5833
C68_8 C 0.2173(5) 0.2369(9) 0.57120(12)
Co1_7 Co 0.18338(6) 0.32844(11) 0.708657(14)
N1_8 N 0.0277(4) 0.2489(7) 0.66096(9)
N2_7 N 0.0933(4) 0.2779(7) 0.69050(10)
N3_7 N 0.0992(4) 0.4267(7) 0.82812(9)
N4_8 N 0.0524(4) 0.4440(7) 0.85691(9)
N5_8 N 0.3395(4) 0.4313(7) 0.75492(9)
N6_7 N 0.2766(4) 0.3827(7) 0.72598(9)
N7_8 N 0.2462(4) 0.2204(7) 0.58846(9)
O3_7 O 0.2023(3) 0.4174(5) 0.69436(7)
O4_7 O 0.1358(4) 0.3475(7) 0.73329(8)
O5_6 O 0.4495(3) 0.5298(5) 0.88893(7)
O6_6 O 0.4550(3) 0.4659(5) 0.84948(7)
O7_7 O 0.1627(3) 0.2402(5) 0.72360(7)
O8_7 O 0.2288(3) 0.3067(5) 0.68395(7)
H1_8 H 0.9663 0.0762 0.5210
C2_8 C 0.9667(5) 0.1560(9) 0.53613(12)
C3_8 C 0.9856(5) 0.1761(9) 0.55795(12)
C4_8 C 0.9629(5) 0.2086(9) 0.57124(12)
C5_8 C 0.9842(4) 0.2231(7) 0.59420(12)
C9_8 C 0.9754(5) 0.2668(9) 0.62915(12)
H7_8 H 0.9599 0.2913 0.6375
C10_8 C 0.9611(4) 0.2553(7) 0.60712(11)
H8_6 H 0.9336 0.2709 0.6008
C12_7 C 0.9831(5) 0.2202(9) 0.67823(12)
C13_7 C 0.9138(5) 0.1814(9) 0.67954(14)
H10_7 H 0.8858 0.1693 0.6672
C14_7 C 0.8883(5) 0.1619(9) 0.69957(14)
H11_7 H 0.8407 0.1364 0.7012
C15_7 C 0.9288(6) 0.1773(10) 0.71833(14)
H12_7 H 0.9078 0.1602 0.7319
C16_7 C 0.9959(5) 0.2154(9) 0.71738(13)
H34_9 H 0.6267 0.0013 0.8202
H40_8 H 0.8709 0.0081 0.7402
H41_8 H 0.9104 0.0390 0.7181
H43_8 H 0.8537 0.0192 0.6858
C57_9 C 0.8267(9) 0.0271(8) 0.64551(13)
H44_9 H 0.8662 0.0469 0.6542
C58_9 C 0.8322(9) 0.0406(7) 0.62385(12)
H45_9 H 0.8751 0.0689 0.6175
C59_9 C 0.7737(9) 0.0123(7) 0.61121(11)
C62_9 C 0.8119(9) 0.0880(7) 0.57967(11)
H48_9 H 0.8293 0.1277 0.5883
C63_9 C 0.7882(9) 0.0222(7) 0.55286(11)
H49_9 H 0.7980 0.0208 0.5199
N7_9 N 0.7796(7) 0.0259(6) 0.58846(9)
C1_9 C 0.8771(9) 0.8773(7) 0.52440(13)
H1_9 H 0.9238 0.8902 0.5210
H2_9 H 0.8765 0.9119 0.5336
H3_9 H 0.8524 0.8729 0.5111
C2_9 C 0.8440(9) 0.8108(7) 0.53613(12)
C3_9 C 0.8239(9) 0.8096(7) 0.55795(12)
H4_9 H 0.8341 0.8518 0.5641
C4_9 C 0.7914(9) 0.7544(7) 0.57124(12)
C5_9 C 0.7769(7) 0.7612(6) 0.59420(12)
C6_9 C 0.7975(9) 0.8251(8) 0.60370(12)
H5_9 H 0.8181 0.8648 0.5952
C7_9 C 0.7875(9) 0.8291(8) 0.62550(13)
H6_9 H 0.8005 0.8719 0.6318
C8_9 C 0.7589(9) 0.7720(7) 0.63860(11)
C9_9 C 0.7332(9) 0.7087(7) 0.62915(12)
H7_9 H 0.7087 0.6687 0.6375
C10_9 C 0.7447(7) 0.7059(6) 0.60712(11)
H8_7 H 0.7291 0.6628 0.6008
C11_8 C 0.7177(9) 0.8103(7) 0.66922(11)
H9_9 H 0.6942 0.8262 0.6607
C12_8 C 0.7798(9) 0.7630(7) 0.67823(12)
C13_8 C 0.8186(9) 0.7325(8) 0.67954(14)
H10_8 H 0.8307 0.7166 0.6672
C14_8 C 0.8381(9) 0.7265(8) 0.69957(14)
H11_8 H 0.8636 0.7044 0.7012
C15_8 C 0.8227(10) 0.7516(8) 0.71833(14)
H12_8 H 0.8398 0.7477 0.7319
C16_8 C 0.7846(9) 0.7806(8) 0.71738(13)
H13_8 H 0.7739 0.7973 0.7300
C17_8 C 0.7612(9) 0.7851(7) 0.69669(11)
C18_8 C 0.4649(10) 0.7047(8) 0.69304(14)
H14_8 H 0.4465 0.7350 0.6913
H15_9 H 0.4331 0.6649 0.7014
H16_8 H 0.4719 0.6905 0.6789
C19_8 C 0.5325(9) 0.7418(7) 0.70509(12)
C20_8 C 0.5323(9) 0.7231(7) 0.72689(13)
H17_8 H 0.4902 0.6929 0.7334
C21_8 C 0.5910(10) 0.7466(8) 0.73954(12)
C22_8 C 0.5836(9) 0.7246(7) 0.76234(12)
C23_8 C 0.5379(10) 0.7280(8) 0.77593(13)
H18_8 H 0.5073 0.7408 0.7703
C24_8 C 0.5355(11) 0.7130(9) 0.79780(14)
H19_8 H 0.5059 0.7186 0.8073
C25_8 C 0.5776(9) 0.6897(7) 0.80565(11)
C26_8 C 0.6249(9) 0.6871(7) 0.79283(12)
H20_8 H 0.6549 0.6739 0.7987
C27_8 C 0.6284(9) 0.7038(7) 0.77122(12)
H21_8 H 0.6607 0.7015 0.7622
C28_9 C 0.5617(9) 0.6131(7) 0.83595(12)
H22_9 H 0.5580 0.5776 0.8271
C29_8 C 0.5631(7) 0.6692(6) 0.86368(10)
C30_8 C 0.5616(9) 0.6918(7) 0.88482(12)
H23_9 H 0.5508 0.6630 0.8970
C31_8 C 0.5765(9) 0.7564(7) 0.88665(13)
H24_8 H 0.5792 0.7742 0.9007
C32_8 C 0.5883(9) 0.7991(8) 0.86868(14)
H25_8 H 0.5956 0.8433 0.8709
C33_8 C 0.5892(9) 0.7768(7) 0.84785(13)
H26_8 H 0.5994 0.8053 0.8357
C34_8 C 0.5744(9) 0.7103(7) 0.84605(12)
C35_9 C 0.4372(10) 0.8029(8) 0.89108(13)
H27_9 H 0.4587 0.8111 0.9053
H28_8 H 0.4459 0.7713 0.8830
H29_9 H 0.3885 0.7838 0.8929
C36_9 C 0.4668(9) 0.8707(7) 0.87857(11)
C37_9 C 0.4846(9) 0.8716(7) 0.85685(12)
H30_9 H 0.4743 0.8297 0.8505
C38_9 C 0.5162(9) 0.9287(7) 0.84379(12)
C39_9 C 0.5323(9) 0.9228(7) 0.82066(11)
C40_9 C 0.4815(9) 0.8710(8) 0.80784(13)
H31_9 H 0.4400 0.8385 0.8142
C41_9 C 0.4929(10) 0.8683(8) 0.78611(13)
H32_9 H 0.4579 0.8360 0.7772
C42_9 C 0.5562(9) 0.9132(7) 0.77715(11)
C43_9 C 0.6049(7) 0.9632(6) 0.78987(11)
H33_9 H 0.6471 0.9950 0.7838
C44_9 C 0.5925(7) 0.9671(6) 0.81150(11)
C45_8 C 0.6184(9) 0.9005(7) 0.74665(12)
H35_8 H 0.6521 0.8997 0.7554
C46_9 C 0.5639(9) 0.9010(7) 0.71944(11)
C47_9 C 0.5374(9) 0.8972(7) 0.69825(12)
H36_8 H 0.5573 0.8895 0.6860
C48_9 C 0.4822(9) 0.9053(7) 0.69652(14)
H37_9 H 0.4667 0.9075 0.6825
C49_9 C 0.4463(10) 0.9106(8) 0.71476(13)
H38_9 H 0.4051 0.9106 0.7130
C50_9 C 0.4739(9) 0.9157(7) 0.73531(13)
H39_9 H 0.4542 0.9240 0.7476
C51_9 C 0.5303(8) 0.9086(6) 0.73751(11)
C52_8 C 0.8778(9) 0.9975(8) 0.72544(15)
H42_8 H 0.8950 0.9659 0.7259
C53_8 C 0.8106(9) 0.9652(8) 0.71326(12)
C54_8 C 0.8114(9) 0.9863(8) 0.69154(13)
C55_8 C 0.7561(9) 0.9629(7) 0.67832(12)
C56_9 C 0.7634(9) 0.9842(7) 0.65520(12)
C60_9 C 0.7128(9) 0.9782(7) 0.62066(13)
H46_9 H 0.6730 0.9634 0.6123
C61_9 C 0.7079(9) 0.9645(7) 0.64292(12)
H47_9 H 0.6646 0.9409 0.6495
C64_9 C 0.7817(9) 0.9936(7) 0.53241(11)
C65_9 C 0.7500(10) 0.9234(8) 0.53135(14)
H50_9 H 0.7459 0.9016 0.5180
C66_9 C 0.7243(9) 0.8854(7) 0.55036(15)
H51_9 H 0.7009 0.8376 0.5493
C67_9 C 0.7312(9) 0.9137(7) 0.57063(14)
H52_9 H 0.7141 0.8869 0.5833
C68_9 C 0.7631(9) 0.9805(7) 0.57120(12)
Co1_8 Co 0.67156(11) 0.85495(9) 0.708657(14)
N1_9 N 0.7511(7) 0.7789(6) 0.66096(9)
N2_8 N 0.7221(7) 0.8155(6) 0.69050(10)
N3_8 N 0.5733(7) 0.6726(6) 0.82812(9)
N4_9 N 0.5560(7) 0.6085(6) 0.85691(9)
N5_9 N 0.5687(7) 0.9083(6) 0.75492(9)
N6_8 N 0.6173(7) 0.8940(6) 0.72598(9)
O3_8 O 0.5826(5) 0.7850(4) 0.69436(7)
O4_8 O 0.6525(7) 0.7884(6) 0.73329(8)
O7_8 O 0.7598(5) 0.9226(4) 0.72360(7)
O8_8 O 0.6933(5) 0.9222(4) 0.68395(7)
H8_8 H 0.0039 0.3997 0.9341
C11_9 C 0.8564(7) 0.2408(5) 0.00255(11)
C12_9 C 0.9037(7) 0.3502(5) 0.01156(12)
C13_9 C 0.9342(8) 0.4195(5) 0.01287(14)
H10_9 H 0.9501 0.4475 0.0005
C14_9 C 0.9402(8) 0.4450(5) 0.03290(14)
H11_9 H 0.9623 0.4926 0.0345
C15_9 C 0.9151(8) 0.4045(6) 0.05166(14)
H12_9 H 0.9190 0.4255 0.0652
C16_9 C 0.8861(8) 0.3374(5) 0.05071(13)
H13_9 H 0.8694 0.3100 0.0633
C17_9 C 0.8816(7) 0.3095(5) 0.03002(11)
C18_9 C 0.9620(8) 0.0936(6) 0.02637(14)
H14_9 H 0.9317 0.0449 0.0246
H16_9 H 0.9762 0.1148 0.0122
C19_9 C 0.9249(7) 0.1241(5) 0.03842(12)
C20_9 C 0.9436(7) 0.1426(5) 0.06022(13)
H17_9 H 0.9738 0.1307 0.0667
C21_9 C 0.9201(8) 0.1778(6) 0.07287(12)
C22_9 C 0.9421(7) 0.1924(5) 0.09567(12)
C23_9 C 0.9387(8) 0.1433(6) 0.10926(13)
H18_9 H 0.9259 0.0999 0.1036
C24_9 C 0.9537(9) 0.1559(6) 0.13113(14)
H19_9 H 0.9481 0.1207 0.1406
C25_9 C 0.9770(7) 0.2213(5) 0.13898(11)
C26_9 C 0.9796(7) 0.2712(5) 0.12616(12)
H20_9 H 0.9928 0.3144 0.1320
C27_9 C 0.9629(7) 0.2580(5) 0.10455(12)
H21_9 H 0.9652 0.2926 0.0955
C29_9 C 0.9975(6) 0.2273(4) 0.19701(10)
C30_9 C 0.9749(7) 0.2032(5) 0.21815(12)
C31_9 C 0.9103(7) 0.1535(5) 0.21998(13)
H24_9 H 0.8925 0.1384 0.2340
C32_9 C 0.8676(8) 0.1226(5) 0.20201(14)
H25_9 H 0.8234 0.0857 0.2042
C33_9 C 0.8899(7) 0.1458(5) 0.18118(13)
H26_9 H 0.8614 0.1275 0.1690
C34_9 C 0.9564(7) 0.1975(5) 0.17938(12)
H28_9 H 0.8954 0.0080 0.2163
C45_9 C 0.7662(7) 0.0513(5) 0.07998(12)
H35_9 H 0.7670 0.0858 0.0887
H36_9 H 0.7772 0.0012 0.0193
C52_9 C 0.6692(8) 0.2137(5) 0.05877(15)
H40_9 H 0.6586 0.1962 0.0735
H41_9 H 0.6277 0.2048 0.0514
H42_9 H 0.7008 0.2625 0.0592
C53_9 C 0.7015(8) 0.1788(5) 0.04659(12)
C54_9 C 0.6804(8) 0.1585(5) 0.02487(13)
H43_9 H 0.6475 0.1679 0.0191
C55_9 C 0.7038(7) 0.1266(5) 0.01165(12)
Co1_9 Co 0.81172(9) 0.14995(6) 0.041990(14)
N2_9 N 0.8512(6) 0.2400(4) 0.02383(10)
N3_9 N 0.9941(6) 0.2341(4) 0.16145(9)
N6_9 N 0.7727(6) 0.0567(4) 0.05931(9)
O3_9 O 0.8817(4) 0.1310(3) 0.02769(7)
O4_9 O 0.8783(6) 0.1975(4) 0.06662(8)
O7_9 O 0.7441(4) 0.1706(3) 0.05693(7)
O8_9 O 0.7445(4) 0.1045(3) 0.01728(7)
H8_9 H 0.3958 0.9961 0.9341
C35_10 C 0.1362(8) 0.0323(6) 0.77559(13)
H27_10 H 0.1444 0.0190 0.7614
H29_10 H 0.1171 0.0619 0.7738
C36_10 C 0.2040(7) 0.0705(5) 0.78810(11)
C37_10 C 0.2049(7) 0.0536(5) 0.80982(12)
H30_10 H 0.1630 0.0220 0.8162
C38_10 C 0.2620(7) 0.0791(5) 0.82288(12)
C39_10 C 0.2561(7) 0.0571(5) 0.84601(11)
C40_10 C 0.2043(8) 0.0561(5) 0.85883(13)
H31_10 H 0.1718 0.0651 0.8525
C41_10 C 0.2016(8) 0.0420(6) 0.88056(13)
H32_10 H 0.1693 0.0447 0.8895
C42_10 C 0.2465(7) 0.0236(5) 0.88952(11)
C43_10 C 0.2965(6) 0.0249(4) 0.87680(11)
H33_10 H 0.3283 0.0145 0.8829
C44_10 C 0.3004(6) 0.0412(4) 0.85517(11)
H34_10 H 0.3346 0.0412 0.8465
C46_10 C 0.2343(7) 0.0037(5) 0.94723(11)
C47_10 C 0.2305(7) 0.0264(5) 0.96842(12)
C48_10 C 0.2386(7) 0.0897(5) 0.97015(14)
H37_10 H 0.2408 0.1074 0.9842
C49_10 C 0.2439(8) 0.1309(6) 0.95191(13)
H38_10 H 0.2439 0.1721 0.9537
C50_10 C 0.2490(7) 0.1084(5) 0.93136(13)
H39_10 H 0.2573 0.1364 0.9191
C51_10 C 0.2419(6) 0.0449(5) 0.92916(11)
N5_10 N 0.2416(6) 0.0062(4) 0.91175(9)
O5_7 O 0.2531(4) 0.1162(3) 0.77774(7)
O6_7 O 0.3225(4) 0.1217(3) 0.81719(7)
Co5_5 Co 0.33956(7) 0.18779(11) 0.792490(14)
C1_10 C 0.2106(7) 0.6668(5) 0.14227(13)
H1_10 H 0.2235 0.6330 0.1457
H2_10 H 0.2452 0.7020 0.1331
H3_10 H 0.2062 0.6871 0.1556
C2_10 C 0.1441(7) 0.6334(5) 0.13054(12)
C3_10 C 0.1429(7) 0.6523(5) 0.10872(12)
H4_10 H 0.1851 0.6843 0.1026
C4_10 C 0.0877(7) 0.6296(5) 0.09543(12)
C5_10 C 0.0945(6) 0.6509(4) 0.07247(12)
C6_10 C 0.1584(8) 0.6942(5) 0.06297(12)
H5_10 H 0.1981 0.7133 0.0715
C7_10 C 0.1624(8) 0.7082(5) 0.04117(13)
H6_10 H 0.2052 0.7380 0.0349
C8_10 C 0.1053(7) 0.6797(5) 0.02807(11)
C9_10 C 0.0420(7) 0.6421(5) 0.03752(12)
H7_10 H 0.0020 0.6266 0.0292
C10_10 C 0.0392(6) 0.6278(4) 0.05955(11)
H9_10 H 0.1595 0.7986 0.0060
C56_10 C 0.3175(7) 0.8874(5) 0.01147(12)
C57_10 C 0.3604(8) 0.8670(5) 0.02116(13)
H44_10 H 0.3802 0.8473 0.0125
C58_10 C 0.3739(7) 0.8750(5) 0.04282(12)
H45_10 H 0.4022 0.8604 0.0492
C59_10 C 0.3456(7) 0.9052(5) 0.05546(11)
C60_10 C 0.3115(7) 0.9320(5) 0.04601(13)
H46_10 H 0.2967 0.9570 0.0544
C61_10 C 0.2978(7) 0.9232(5) 0.02375(12)
H47_10 H 0.2742 0.9429 0.0172
C62_10 C 0.4213(7) 0.9427(5) 0.08700(11)
H48_10 H 0.4610 0.9650 0.0784
C63_10 C 0.3555(7) 0.9006(5) 0.11381(11)
C64_10 C 0.3269(7) 0.8785(5) 0.13426(11)
H49_10 H 0.3541 0.8894 0.1468
C65_10 C 0.2567(8) 0.8400(6) 0.13532(14)
H50_10 H 0.2349 0.8223 0.1487
C66_10 C 0.2187(7) 0.8277(5) 0.11631(15)
H51_10 H 0.1709 0.8033 0.1174
C67_10 C 0.2470(7) 0.8491(5) 0.09604(14)
H52_10 H 0.2202 0.8394 0.0834
C68_10 C 0.3138(7) 0.8840(5) 0.09547(12)
N1_10 N 0.1122(6) 0.6944(4) 0.00571(9)
N7_10 N 0.3592(6) 0.9129(4) 0.07821(9)
N8_4 N 0.4236(6) 0.9389(4) 0.10795(9)
O1_4 O 0.0927(4) 0.5914(3) 0.14069(7)
O2_4 O 0.0269(4) 0.5882(3) 0.10130(7)
Co3_2 Co 0.51490(9) 0.99377(7) 0.125823(14)
Co4_3 Co 0.00623(7) 0.52112(11) 0.125823(14)
H15_10 H 0.9982 0.8984 0.9653
C28_10 C 0.9464(7) 0.7180(5) 0.83072(12)
H22_10 H 0.9109 0.6862 0.8396
H23_10 H 0.9963 0.7788 0.7697
Co2_3 Co 0.84823(9) 0.66044(7) 0.792490(14)
N4_10 N 0.9418(6) 0.7191(4) 0.80976(9)
N9_7 N 0.7569(6) 0.6056(4) 0.77462(9)
O9_7 O 0.8320(5) 0.5740(4) 0.80736(7)
O10_7 O 0.8946(5) 0.6398(4) 0.76797(7)
O11_4 O 0.8631(5) 0.7469(4) 0.77774(7)
O12_4 O 0.7992(5) 0.6775(4) 0.81719(7)
C1_11 C 0.3332(5) 0.5438(9) 0.14227(13)
H1_11 H 0.3670 0.5905 0.1457
H2_11 H 0.2980 0.5432 0.1331
H3_11 H 0.3129 0.5191 0.1556
C2_11 C 0.3666(5) 0.5107(9) 0.13054(12)
C3_11 C 0.3477(5) 0.4906(9) 0.10872(12)
H4_11 H 0.3157 0.5008 0.1026
C4_11 C 0.3704(5) 0.4581(9) 0.09543(12)
C5_11 C 0.3491(4) 0.4436(7) 0.07247(12)
C6_11 C 0.3058(5) 0.4642(9) 0.06297(12)
H5_11 H 0.2867 0.4848 0.0715
C7_11 C 0.2918(5) 0.4542(9) 0.04117(13)
H6_11 H 0.2620 0.4672 0.0349
C8_11 C 0.3203(5) 0.4256(9) 0.02807(11)
C9_11 C 0.3579(5) 0.3999(9) 0.03752(12)
H7_11 H 0.3734 0.3754 0.0292
C10_11 C 0.3722(4) 0.4114(7) 0.05955(11)
H8_10 H 0.3997 0.3958 0.0659
H9_11 H 0.2014 0.3609 0.0060
C56_11 C 0.1126(5) 0.4301(9) 0.01147(12)
C57_11 C 0.1330(5) 0.4934(9) 0.02116(13)
H44_11 H 0.1527 0.5329 0.0125
C58_11 C 0.1250(5) 0.4989(9) 0.04282(12)
H45_11 H 0.1396 0.5418 0.0492
C59_11 C 0.0948(5) 0.4404(9) 0.05546(11)
C60_11 C 0.0680(5) 0.3795(9) 0.04601(13)
H46_11 H 0.0430 0.3397 0.0544
C61_11 C 0.0768(5) 0.3746(9) 0.02375(12)
H47_11 H 0.0571 0.3313 0.0172
C62_11 C 0.0573(5) 0.4786(9) 0.08700(11)
H48_11 H 0.0350 0.4960 0.0784
C63_11 C 0.0994(5) 0.4549(9) 0.11381(11)
C64_11 C 0.1215(5) 0.4484(9) 0.13426(11)
H49_11 H 0.1106 0.4647 0.1468
C65_11 C 0.1600(6) 0.4167(10) 0.13532(14)
H50_11 H 0.1777 0.4126 0.1487
C66_11 C 0.1723(5) 0.3910(9) 0.11631(15)
H51_11 H 0.1967 0.3676 0.1174
C67_11 C 0.1509(5) 0.3979(9) 0.09604(14)
H52_11 H 0.1606 0.3808 0.0834
C68_11 C 0.1160(5) 0.4298(9) 0.09547(12)
N1_11 N 0.3056(4) 0.4178(7) 0.00571(9)
N7_11 N 0.0871(4) 0.4463(7) 0.07821(9)
N8_5 N 0.0611(4) 0.4847(7) 0.10795(9)
O1_5 O 0.4086(3) 0.5013(5) 0.14069(7)
O2_5 O 0.4118(3) 0.4387(5) 0.10130(7)
Co4_4 Co 0.47888(11) 0.48510(13) 0.125823(14)
C11_10 C 0.2408(5) 0.3844(9) 0.99745(11)
C12_10 C 0.3502(5) 0.4465(9) 0.98844(12)
C13_10 C 0.4195(5) 0.4853(9) 0.98713(14)
H10_10 H 0.4475 0.4974 0.9995
C14_10 C 0.4450(5) 0.5048(9) 0.96710(14)
H11_10 H 0.4926 0.5303 0.9655
C15_10 C 0.4045(6) 0.4894(10) 0.94834(14)
H12_10 H 0.4255 0.5065 0.9348
C16_10 C 0.3374(5) 0.4513(9) 0.94929(13)
H13_10 H 0.3100 0.4406 0.9367
C17_10 C 0.3095(5) 0.4279(9) 0.96998(11)
C18_10 C 0.0936(6) 0.1316(10) 0.97363(14)
H14_10 H 0.0449 0.1132 0.9754
H15_11 H 0.1016 0.0998 0.9653
H16_10 H 0.1148 0.1386 0.9878
C19_10 C 0.1241(5) 0.1992(9) 0.96158(12)
C20_10 C 0.1426(5) 0.1990(9) 0.93978(13)
H17_10 H 0.1307 0.1569 0.9333
C21_10 C 0.1778(6) 0.2577(10) 0.92713(12)
C22_10 C 0.1924(5) 0.2503(9) 0.90433(12)
C23_10 C 0.1433(6) 0.2046(10) 0.89074(13)
H18_10 H 0.0999 0.1740 0.8964
C24_10 C 0.1559(6) 0.2022(11) 0.86887(14)
H19_10 H 0.1207 0.1726 0.8594
C25_10 C 0.2213(5) 0.2443(9) 0.86102(11)
C26_10 C 0.2712(5) 0.2916(9) 0.87384(12)
H20_10 H 0.3144 0.3216 0.8680
C27_10 C 0.2580(5) 0.2951(9) 0.89545(12)
H21_10 H 0.2926 0.3274 0.9045
C28_11 C 0.2820(5) 0.2284(9) 0.83072(12)
H22_11 H 0.3138 0.2247 0.8396
C29_10 C 0.2273(4) 0.2298(7) 0.80299(10)
C30_10 C 0.2032(5) 0.2283(9) 0.78185(12)
H23_11 H 0.2212 0.2175 0.7697
C31_10 C 0.1535(5) 0.2432(9) 0.78002(13)
H24_10 H 0.1384 0.2459 0.7660
C32_10 C 0.1226(5) 0.2550(9) 0.79799(14)
H25_10 H 0.0857 0.2623 0.7958
C33_10 C 0.1458(5) 0.2559(9) 0.81882(13)
H26_10 H 0.1275 0.2661 0.8310
C34_10 C 0.1975(5) 0.2411(9) 0.82062(12)
H28_10 H 0.0080 0.1126 0.7837
C45_10 C 0.0513(5) 0.2851(9) 0.92002(12)
H35_10 H 0.0858 0.3188 0.9113
H36_10 H 0.0012 0.2240 0.9807
C52_10 C 0.2137(5) 0.5445(9) 0.94123(15)
H40_10 H 0.1962 0.5376 0.9265
H41_10 H 0.2048 0.5771 0.9486
H42_10 H 0.2625 0.5617 0.9408
C53_10 C 0.1788(5) 0.4773(9) 0.95341(12)
C54_10 C 0.1585(5) 0.4781(9) 0.97513(13)
H43_10 H 0.1679 0.5204 0.9809
C55_10 C 0.1266(5) 0.4228(9) 0.98835(12)
Co1_10 Co 0.14995(6) 0.33823(11) 0.958010(14)
N2_10 N 0.2400(4) 0.3888(7) 0.97617(10)
N3_10 N 0.2341(4) 0.2400(7) 0.83855(9)
N4_11 N 0.2809(4) 0.2227(7) 0.80976(9)
N6_10 N 0.0567(4) 0.2840(7) 0.94069(9)
O3_10 O 0.1310(3) 0.2493(5) 0.97231(7)
O4_10 O 0.1975(4) 0.3192(7) 0.93338(8)
O7_10 O 0.1706(3) 0.4265(5) 0.94307(7)
O8_10 O 0.1045(3) 0.3600(5) 0.98272(7)
N9_8 N 0.3944(4) 0.1514(7) 0.77462(9)
O9_8 O 0.4260(4) 0.2581(6) 0.80736(7)
O10_8 O 0.3602(4) 0.2549(6) 0.76797(7)
C35_11 C 0.9677(6) 0.1039(10) 0.77559(13)
H27_11 H 0.9810 0.1254 0.7614
H29_11 H 0.9381 0.0552 0.7738
C36_11 C 0.9295(5) 0.1335(9) 0.78810(11)
C37_11 C 0.9464(5) 0.1513(9) 0.80982(12)
H30_11 H 0.9780 0.1410 0.8162
C38_11 C 0.9209(5) 0.1829(9) 0.82288(12)
C39_11 C 0.9429(5) 0.1990(9) 0.84601(11)
C40_11 C 0.9439(5) 0.1482(9) 0.85883(13)
H31_11 H 0.9349 0.1067 0.8525
C41_11 C 0.9580(6) 0.1596(10) 0.88056(13)
H32_11 H 0.9553 0.1246 0.8895
C42_11 C 0.9764(5) 0.2229(9) 0.88952(11)
C43_11 C 0.9751(4) 0.2716(7) 0.87680(11)
H33_11 H 0.9855 0.3138 0.8829
C44_11 C 0.9588(4) 0.2592(7) 0.85517(11)
H34_11 H 0.9588 0.2934 0.8465
C46_11 C 0.9963(5) 0.2306(9) 0.94723(11)
C47_11 C 0.9736(5) 0.2041(9) 0.96842(12)
C48_11 C 0.9103(5) 0.1489(9) 0.97015(14)
H37_11 H 0.8926 0.1334 0.9842
C49_11 C 0.8691(6) 0.1130(10) 0.95191(13)
H38_11 H 0.8279 0.0718 0.9537
C50_11 C 0.8916(5) 0.1406(9) 0.93136(13)
H39_11 H 0.8636 0.1209 0.9191
C51_11 C 0.9551(5) 0.1970(8) 0.92916(11)
N5_11 N 0.9938(4) 0.2354(7) 0.91175(9)
O5_8 O 0.8838(3) 0.1369(5) 0.77774(7)
O6_8 O 0.8783(3) 0.2008(5) 0.81719(7)
Co5_6 Co 0.81221(11) 0.15177(13) 0.792490(14)
H15_12 H 0.9002 0.0018 0.9653
C28_12 C 0.7716(9) 0.0536(7) 0.83072(12)
H22_12 H 0.7753 0.0891 0.8396
H23_12 H 0.7825 0.0037 0.7697
N4_12 N 0.7773(7) 0.0582(6) 0.80976(9)
N9_9 N 0.8486(7) 0.2431(6) 0.77462(9)
O9_9 O 0.7419(6) 0.1680(5) 0.80736(7)
O10_9 O 0.7451(6) 0.1054(5) 0.76797(7)
C1_12 C 0.4562(9) 0.7894(7) 0.14227(13)
H1_12 H 0.4095 0.7765 0.1457
H2_12 H 0.4568 0.7548 0.1331
H3_12 H 0.4809 0.7938 0.1556
C2_12 C 0.4893(9) 0.8559(7) 0.13054(12)
C3_12 C 0.5094(9) 0.8571(7) 0.10872(12)
H4_12 H 0.4992 0.8149 0.1026
C4_12 C 0.5419(9) 0.9123(7) 0.09543(12)
C5_12 C 0.5564(7) 0.9055(6) 0.07247(12)
C6_12 C 0.5358(9) 0.8416(8) 0.06297(12)
H5_12 H 0.5152 0.8019 0.0715
C7_12 C 0.5458(9) 0.8376(8) 0.04117(13)
H6_12 H 0.5328 0.7948 0.0349
C8_12 C 0.5744(9) 0.8947(7) 0.02807(11)
C9_12 C 0.6001(9) 0.9580(7) 0.03752(12)
H7_12 H 0.6246 0.9980 0.0292
C10_12 C 0.5886(7) 0.9608(6) 0.05955(11)
H9_12 H 0.6391 0.8405 0.0060
C56_12 C 0.5699(9) 0.6825(7) 0.01147(12)
C57_12 C 0.5066(9) 0.6396(8) 0.02116(13)
H44_12 H 0.4671 0.6198 0.0125
C58_12 C 0.5011(9) 0.6261(7) 0.04282(12)
H45_12 H 0.4582 0.5978 0.0492
C59_12 C 0.5596(9) 0.6544(7) 0.05546(11)
C60_12 C 0.6205(9) 0.6885(7) 0.04601(13)
H46_12 H 0.6603 0.7033 0.0544
C61_12 C 0.6254(9) 0.7022(7) 0.02375(12)
H47_12 H 0.6687 0.7258 0.0172
C62_12 C 0.5214(9) 0.5787(7) 0.08700(11)
H48_12 H 0.5040 0.5390 0.0784
C63_12 C 0.5451(9) 0.6445(7) 0.11381(11)
C64_12 C 0.5516(9) 0.6731(7) 0.13426(11)
H49_12 H 0.5353 0.6459 0.1468
C65_12 C 0.5833(10) 0.7433(8) 0.13532(14)
H50_12 H 0.5874 0.7651 0.1487
C66_12 C 0.6090(9) 0.7813(7) 0.11631(15)
H51_12 H 0.6324 0.8291 0.1174
C67_12 C 0.6021(9) 0.7530(7) 0.09604(14)
H52_12 H 0.6192 0.7798 0.0834
C68_12 C 0.5702(9) 0.6862(7) 0.09547(12)
N1_12 N 0.5822(7) 0.8878(6) 0.00571(9)
N7_12 N 0.5537(7) 0.6408(6) 0.07821(9)
N8_6 N 0.5153(7) 0.5764(6) 0.10795(9)
O1_6 O 0.4987(5) 0.9073(4) 0.14069(7)
O2_6 O 0.5613(5) 0.9731(4) 0.10130(7)
C11_11 C 0.6156(9) 0.8564(7) 0.99745(11)
C12_11 C 0.5535(9) 0.9037(7) 0.98844(12)
C13_11 C 0.5147(9) 0.9342(8) 0.98713(14)
H10_11 H 0.5026 0.9501 0.9995
C14_11 C 0.4952(9) 0.9402(8) 0.96710(14)
H11_11 H 0.4697 0.9623 0.9655
C15_11 C 0.5106(10) 0.9151(8) 0.94834(14)
H12_11 H 0.4935 0.9190 0.9348
C16_11 C 0.5487(9) 0.8861(8) 0.94929(13)
H13_11 H 0.5594 0.8694 0.9367
C17_11 C 0.5721(9) 0.8816(7) 0.96998(11)
C18_11 C 0.8684(10) 0.9620(8) 0.97363(14)
H14_11 H 0.8868 0.9317 0.9754
H16_11 H 0.8614 0.9762 0.9878
C19_11 C 0.8008(9) 0.9249(7) 0.96158(12)
C20_11 C 0.8010(9) 0.9436(7) 0.93978(13)
H17_11 H 0.8431 0.9738 0.9333
C21_11 C 0.7423(10) 0.9201(8) 0.92713(12)
C22_11 C 0.7497(9) 0.9421(7) 0.90433(12)
C23_11 C 0.7954(10) 0.9387(8) 0.89074(13)
H18_11 H 0.8260 0.9259 0.8964
C24_11 C 0.7978(11) 0.9537(9) 0.86887(14)
H19_11 H 0.8274 0.9481 0.8594
C25_11 C 0.7557(9) 0.9770(7) 0.86102(11)
C26_11 C 0.7084(9) 0.9796(7) 0.87384(12)
H20_11 H 0.6784 0.9928 0.8680
C27_11 C 0.7049(9) 0.9629(7) 0.89545(12)
H21_11 H 0.6726 0.9652 0.9045
C29_11 C 0.7702(7) 0.9975(6) 0.80299(10)
C30_11 C 0.7717(9) 0.9749(7) 0.78185(12)
C31_11 C 0.7568(9) 0.9103(7) 0.78002(13)
H24_11 H 0.7541 0.8925 0.7660
C32_11 C 0.7450(9) 0.8676(8) 0.79799(14)
H25_11 H 0.7377 0.8234 0.7958
C33_11 C 0.7441(9) 0.8899(7) 0.81882(13)
H26_11 H 0.7339 0.8614 0.8310
C34_11 C 0.7589(9) 0.9564(7) 0.82062(12)
C35_12 C 0.8961(10) 0.8638(8) 0.77559(13)
H27_12 H 0.8746 0.8556 0.7614
H28_11 H 0.8874 0.8954 0.7837
H29_12 H 0.9448 0.8829 0.7738
C36_12 C 0.8665(9) 0.7960(7) 0.78810(11)
C37_12 C 0.8487(9) 0.7951(7) 0.80982(12)
H30_12 H 0.8590 0.8370 0.8162
C38_12 C 0.8171(9) 0.7380(7) 0.82288(12)
C39_12 C 0.8010(9) 0.7439(7) 0.84601(11)
C40_12 C 0.8518(9) 0.7957(8) 0.85883(13)
H31_12 H 0.8933 0.8282 0.8525
C41_12 C 0.8404(10) 0.7984(8) 0.88056(13)
H32_12 H 0.8754 0.8307 0.8895
C42_12 C 0.7771(9) 0.7535(7) 0.88952(11)
C43_12 C 0.7284(7) 0.7035(6) 0.87680(11)
H33_12 H 0.6862 0.6717 0.8829
C44_12 C 0.7408(7) 0.6996(6) 0.85517(11)
H34_12 H 0.7066 0.6654 0.8465
C45_11 C 0.7149(9) 0.7662(7) 0.92002(12)
H35_11 H 0.6812 0.7670 0.9113
C46_12 C 0.7694(9) 0.7657(7) 0.94723(11)
C47_12 C 0.7959(9) 0.7695(7) 0.96842(12)
H36_11 H 0.7760 0.7772 0.9807
C48_12 C 0.8511(9) 0.7614(7) 0.97015(14)
H37_12 H 0.8666 0.7592 0.9842
C49_12 C 0.8870(10) 0.7561(8) 0.95191(13)
H38_12 H 0.9282 0.7561 0.9537
C50_12 C 0.8594(9) 0.7510(7) 0.93136(13)
H39_12 H 0.8791 0.7427 0.9191
C51_12 C 0.8030(8) 0.7581(6) 0.92916(11)
C52_11 C 0.4555(9) 0.6692(8) 0.94123(15)
H40_11 H 0.4624 0.6586 0.9265
H41_11 H 0.4229 0.6277 0.9486
H42_11 H 0.4383 0.7008 0.9408
C53_11 C 0.5227(9) 0.7015(8) 0.95341(12)
C54_11 C 0.5219(9) 0.6804(8) 0.97513(13)
H43_11 H 0.4796 0.6475 0.9809
C55_11 C 0.5772(9) 0.7038(7) 0.98835(12)
Co1_11 Co 0.66177(11) 0.81172(9) 0.958010(14)
N2_11 N 0.6112(7) 0.8512(6) 0.97617(10)
N3_11 N 0.7600(7) 0.9941(6) 0.83855(9)
N5_12 N 0.7646(7) 0.7584(6) 0.91175(9)
N6_11 N 0.7160(7) 0.7727(6) 0.94069(9)
O3_11 O 0.7507(5) 0.8817(4) 0.97231(7)
O4_11 O 0.6808(7) 0.8783(6) 0.93338(8)
O7_11 O 0.5735(5) 0.7441(4) 0.94307(7)
O8_11 O 0.6400(5) 0.7445(4) 0.98272(7)
C1_13 C 0.5439(7) 0.3335(5) 0.80894(13)
H1_13 H 0.5568 0.2997 0.8124
H2_13 H 0.5785 0.3687 0.7998
H3_13 H 0.5395 0.3538 0.8223
C2_13 C 0.4774(7) 0.3001(5) 0.79721(12)
C3_13 C 0.4762(7) 0.3190(5) 0.77539(12)
H4_13 H 0.5184 0.3510 0.7693
C4_13 C 0.4210(7) 0.2963(5) 0.76210(12)
C5_13 C 0.4278(6) 0.3176(4) 0.73914(12)
C6_13 C 0.4917(8) 0.3609(5) 0.72964(12)
H5_13 H 0.5314 0.3800 0.7382
C7_13 C 0.4957(8) 0.3749(5) 0.70784(13)
H6_13 H 0.5385 0.4047 0.7016
C8_13 C 0.4386(7) 0.3464(5) 0.69474(11)
C9_13 C 0.3753(7) 0.3088(5) 0.70419(12)
H7_13 H 0.3353 0.2933 0.6959
C10_13 C 0.3725(6) 0.2945(4) 0.72622(11)
H8_11 H 0.3294 0.2670 0.7326
C11_12 C 0.4769(7) 0.4259(5) 0.66412(11)
H9_13 H 0.4928 0.4653 0.6727
C12_12 C 0.4296(7) 0.3165(5) 0.65511(12)
C13_12 C 0.3991(8) 0.2472(5) 0.65380(14)
H10_12 H 0.3832 0.2192 0.6662
C14_12 C 0.3931(8) 0.2217(5) 0.63377(14)
H11_12 H 0.3710 0.1741 0.6322
C15_12 C 0.4182(8) 0.2622(6) 0.61501(14)
H12_12 H 0.4143 0.2412 0.6015
C16_12 C 0.4472(8) 0.3293(5) 0.61596(13)
H13_12 H 0.4639 0.3567 0.6034
C17_12 C 0.4517(7) 0.3572(5) 0.63665(11)
C18_12 C 0.3713(8) 0.5731(6) 0.64030(14)
H14_12 H 0.4016 0.6218 0.6421
H15_13 H 0.3315 0.5651 0.6320
H16_12 H 0.3571 0.5519 0.6545
C19_12 C 0.4084(7) 0.5426(5) 0.62825(12)
C20_12 C 0.3897(7) 0.5241(5) 0.60645(13)
H17_12 H 0.3595 0.5360 0.6000
C21_12 C 0.4132(8) 0.4889(6) 0.59380(12)
C22_12 C 0.3912(7) 0.4743(5) 0.57100(12)
C23_12 C 0.3946(8) 0.5234(6) 0.55741(13)
H18_12 H 0.4074 0.5668 0.5631
C24_12 C 0.3796(9) 0.5108(6) 0.53554(14)
H19_12 H 0.3852 0.5460 0.5261
C25_12 C 0.3563(7) 0.4454(5) 0.52769(11)
C26_12 C 0.3537(7) 0.3955(5) 0.54051(12)
H20_12 H 0.3405 0.3523 0.5347
C27_12 C 0.3704(7) 0.4087(5) 0.56212(12)
H21_12 H 0.3681 0.3741 0.5712
C28_13 C 0.2797(7) 0.3847(5) 0.49739(12)
H22_13 H 0.2442 0.3529 0.5063
C29_12 C 0.3358(6) 0.4394(4) 0.46966(10)
C30_12 C 0.3584(7) 0.4635(5) 0.44852(12)
H23_13 H 0.3296 0.4455 0.4364
C31_12 C 0.4230(7) 0.5132(5) 0.44669(13)
H24_12 H 0.4408 0.5283 0.4327
C32_12 C 0.4657(8) 0.5441(5) 0.46466(14)
H25_12 H 0.5099 0.5810 0.4625
C33_12 C 0.4434(7) 0.5209(5) 0.48549(13)
H26_12 H 0.4719 0.5392 0.4977
C34_12 C 0.3769(7) 0.4692(5) 0.48729(12)
C35_13 C 0.4695(8) 0.6990(6) 0.44226(13)
H27_13 H 0.4777 0.6857 0.4281
H28_12 H 0.4379 0.6587 0.4504
H29_13 H 0.4504 0.7286 0.4405
C36_13 C 0.5373(7) 0.7372(5) 0.45477(11)
C37_13 C 0.5382(7) 0.7203(5) 0.47649(12)
H30_13 H 0.4963 0.6887 0.4829
C38_13 C 0.5953(7) 0.7458(5) 0.48955(12)
C39_13 C 0.5894(7) 0.7238(5) 0.51268(11)
C40_13 C 0.5376(8) 0.7228(5) 0.52550(13)
H31_13 H 0.5051 0.7318 0.5192
C41_13 C 0.5349(8) 0.7087(6) 0.54723(13)
H32_13 H 0.5026 0.7114 0.5562
C42_13 C 0.5798(7) 0.6903(5) 0.55619(11)
C43_13 C 0.6298(6) 0.6916(4) 0.54347(11)
H33_13 H 0.6616 0.6812 0.5496
C44_13 C 0.6337(6) 0.7079(4) 0.52184(11)
H34_13 H 0.6679 0.7079 0.5132
C45_12 C 0.5671(7) 0.6154(5) 0.58669(12)
H35_12 H 0.5663 0.5809 0.5780
C46_13 C 0.5676(7) 0.6704(5) 0.61390(11)
C47_13 C 0.5638(7) 0.6931(5) 0.63509(12)
H36_12 H 0.5561 0.6655 0.6474
C48_13 C 0.5719(7) 0.7564(5) 0.63682(14)
H37_13 H 0.5741 0.7741 0.6509
C49_13 C 0.5772(8) 0.7976(6) 0.61858(13)
H38_13 H 0.5772 0.8388 0.6204
C50_13 C 0.5823(7) 0.7751(5) 0.59803(13)
H39_13 H 0.5906 0.8031 0.5858
C51_13 C 0.5752(6) 0.7116(5) 0.59583(11)
C52_12 C 0.6641(8) 0.4530(5) 0.60790(15)
H40_12 H 0.6747 0.4705 0.5932
H41_12 H 0.7056 0.4619 0.6153
H42_12 H 0.6325 0.4042 0.6075
C53_12 C 0.6318(8) 0.4879(5) 0.62008(12)
C54_12 C 0.6529(8) 0.5082(5) 0.64180(13)
H43_12 H 0.6858 0.4988 0.6476
C55_12 C 0.6295(7) 0.5401(5) 0.65502(12)
C56_13 C 0.6508(7) 0.5541(5) 0.67814(12)
C57_13 C 0.6937(8) 0.5337(5) 0.68783(13)
H44_13 H 0.7135 0.5140 0.6792
C58_13 C 0.7072(7) 0.5417(5) 0.70949(12)
H45_13 H 0.7355 0.5271 0.7159
C59_13 C 0.6789(7) 0.5719(5) 0.72213(11)
C60_13 C 0.6448(7) 0.5987(5) 0.71268(13)
H46_13 H 0.6300 0.6237 0.7211
C61_13 C 0.6311(7) 0.5899(5) 0.69042(12)
H47_13 H 0.6075 0.6096 0.6839
C62_13 C 0.7546(7) 0.6094(5) 0.75367(11)
H48_13 H 0.7943 0.6317 0.7451
C63_13 C 0.6888(7) 0.5673(5) 0.78048(11)
C64_13 C 0.6602(7) 0.5452(5) 0.80093(11)
H49_13 H 0.6874 0.5561 0.8135
C65_13 C 0.5900(8) 0.5067(6) 0.80199(14)
H50_13 H 0.5682 0.4890 0.8154
C66_13 C 0.5520(7) 0.4944(5) 0.78298(15)
H51_13 H 0.5042 0.4700 0.7841
C67_13 C 0.5803(7) 0.5158(5) 0.76271(14)
H52_13 H 0.5535 0.5061 0.7501
C68_13 C 0.6471(7) 0.5507(5) 0.76214(12)
Co1_12 Co 0.52161(9) 0.51672(6) 0.624677(14)
Co2_4 Co 0.18156(9) 0.32711(7) 0.459157(14)
N1_13 N 0.4455(6) 0.3611(4) 0.67238(9)
N2_12 N 0.4821(6) 0.4267(4) 0.64284(10)
N3_12 N 0.3392(6) 0.4326(4) 0.50522(9)
N4_13 N 0.2751(6) 0.3858(4) 0.47643(9)
N5_13 N 0.5749(6) 0.6729(4) 0.57842(9)
N6_12 N 0.5606(6) 0.6100(4) 0.60736(9)
N7_13 N 0.6925(6) 0.5796(4) 0.74488(9)
O3_12 O 0.4516(4) 0.5357(3) 0.63898(7)
O4_12 O 0.4550(6) 0.4692(4) 0.60005(8)
O5_9 O 0.5864(4) 0.7829(3) 0.44441(7)
O6_9 O 0.6558(4) 0.7884(3) 0.48386(7)
O7_12 O 0.5892(4) 0.4961(3) 0.60974(7)
O8_12 O 0.5888(4) 0.5622(3) 0.64939(7)
Co5_7 Co 0.67289(7) 0.85446(11) 0.459157(14)
N9_10 N 0.0903(6) 0.2722(4) 0.44128(9)
O9_10 O 0.1654(5) 0.2406(4) 0.47402(7)
O10_10 O 0.2280(5) 0.3064(4) 0.43463(7)
O11_5 O 0.1964(5) 0.4136(4) 0.44441(7)
O12_5 O 0.1325(5) 0.3442(4) 0.48386(7)
C1_14 C 0.6665(5) 0.2105(9) 0.80894(13)
H1_14 H 0.7003 0.2572 0.8124
H2_14 H 0.6313 0.2099 0.7998
H3_14 H 0.6462 0.1858 0.8223
C2_14 C 0.6999(5) 0.1774(9) 0.79721(12)
C3_14 C 0.6810(5) 0.1573(9) 0.77539(12)
H4_14 H 0.6490 0.1675 0.7693
C4_14 C 0.7037(5) 0.1248(9) 0.76210(12)
C5_14 C 0.6824(4) 0.1103(7) 0.73914(12)
C6_14 C 0.6391(5) 0.1309(9) 0.72964(12)
H5_14 H 0.6200 0.1515 0.7382
C7_14 C 0.6251(5) 0.1209(9) 0.70784(13)
H6_14 H 0.5953 0.1339 0.7016
C8_14 C 0.6536(5) 0.0923(9) 0.69474(11)
C9_14 C 0.6912(5) 0.0666(9) 0.70419(12)
H7_14 H 0.7067 0.0421 0.6959
C10_14 C 0.7055(4) 0.0781(7) 0.72622(11)
H8_12 H 0.7330 0.0625 0.7326
C11_13 C 0.5741(5) 0.0511(9) 0.66412(11)
H9_14 H 0.5347 0.0276 0.6727
C12_13 C 0.6835(5) 0.1132(9) 0.65511(12)
C13_13 C 0.7528(5) 0.1520(9) 0.65380(14)
H10_13 H 0.7808 0.1641 0.6662
C14_13 C 0.7783(5) 0.1715(9) 0.63377(14)
H11_13 H 0.8259 0.1970 0.6322
C15_13 C 0.7378(6) 0.1561(10) 0.61501(14)
H12_13 H 0.7588 0.1732 0.6015
C16_13 C 0.6707(5) 0.1180(9) 0.61596(13)
H13_13 H 0.6433 0.1073 0.6034
C17_13 C 0.6428(5) 0.0946(9) 0.63665(11)
C52_13 C 0.5470(5) 0.2112(9) 0.60790(15)
H40_13 H 0.5295 0.2043 0.5932
H41_13 H 0.5381 0.2438 0.6153
H42_13 H 0.5958 0.2284 0.6075
C53_13 C 0.5121(5) 0.1440(9) 0.62008(12)
C54_13 C 0.4918(5) 0.1448(9) 0.64180(13)
H43_13 H 0.5012 0.1871 0.6476
C55_13 C 0.4599(5) 0.0895(9) 0.65502(12)
C56_14 C 0.4459(5) 0.0968(9) 0.67814(12)
C57_14 C 0.4663(5) 0.1601(9) 0.68783(13)
H44_14 H 0.4860 0.1996 0.6792
C58_14 C 0.4583(5) 0.1656(9) 0.70949(12)
H45_14 H 0.4729 0.2085 0.7159
C59_14 C 0.4281(5) 0.1071(9) 0.72213(11)
C60_14 C 0.4013(5) 0.0462(9) 0.71268(13)
H46_14 H 0.3763 0.0064 0.7211
C61_14 C 0.4101(5) 0.0413(9) 0.69042(12)
C62_14 C 0.3906(5) 0.1453(9) 0.75367(11)
H48_14 H 0.3683 0.1627 0.7451
C63_14 C 0.4327(5) 0.1216(9) 0.78048(11)
C64_14 C 0.4548(5) 0.1151(9) 0.80093(11)
H49_14 H 0.4439 0.1314 0.8135
C65_14 C 0.4933(6) 0.0834(10) 0.80199(14)
H50_14 H 0.5110 0.0793 0.8154
C66_14 C 0.5056(5) 0.0577(9) 0.78298(15)
H51_14 H 0.5300 0.0343 0.7841
C67_14 C 0.4842(5) 0.0646(9) 0.76271(14)
H52_14 H 0.4939 0.0475 0.7501
C68_14 C 0.4493(5) 0.0965(9) 0.76214(12)
Co1_13 Co 0.48328(6) 0.00490(11) 0.624677(14)
N1_14 N 0.6389(4) 0.0845(7) 0.67238(9)
N2_13 N 0.5733(4) 0.0555(7) 0.64284(10)
N7_14 N 0.4204(4) 0.1130(7) 0.74488(9)
O7_13 O 0.5039(3) 0.0932(5) 0.60974(7)
O8_13 O 0.4378(3) 0.0267(5) 0.64939(7)
C18_13 C 0.4269(6) 0.7983(10) 0.64030(14)
H14_13 H 0.3782 0.7799 0.6421
H15_14 H 0.4349 0.7665 0.6320
H16_13 H 0.4481 0.8053 0.6545
C19_13 C 0.4574(5) 0.8659(9) 0.62825(12)
C20_13 C 0.4759(5) 0.8657(9) 0.60645(13)
H17_13 H 0.4640 0.8236 0.6000
C21_13 C 0.5111(6) 0.9244(10) 0.59380(12)
C22_13 C 0.5257(5) 0.9170(9) 0.57100(12)
C23_13 C 0.4766(6) 0.8713(10) 0.55741(13)
H18_13 H 0.4332 0.8407 0.5631
C24_13 C 0.4892(6) 0.8689(11) 0.53554(14)
H19_13 H 0.4540 0.8393 0.5261
C25_13 C 0.5546(5) 0.9110(9) 0.52769(11)
C26_13 C 0.6045(5) 0.9583(9) 0.54051(12)
H20_13 H 0.6477 0.9883 0.5347
C27_13 C 0.5913(5) 0.9618(9) 0.56212(12)
H21_13 H 0.6259 0.9941 0.5712
C28_14 C 0.6153(5) 0.8951(9) 0.49739(12)
H22_14 H 0.6471 0.8914 0.5063
C29_13 C 0.5606(4) 0.8965(7) 0.46966(10)
C30_13 C 0.5365(5) 0.8950(9) 0.44852(12)
H23_14 H 0.5545 0.8842 0.4364
C31_13 C 0.4868(5) 0.9099(9) 0.44669(13)
H24_13 H 0.4717 0.9126 0.4327
C32_13 C 0.4559(5) 0.9217(9) 0.46466(14)
H25_13 H 0.4190 0.9290 0.4625
C33_13 C 0.4791(5) 0.9226(9) 0.48549(13)
H26_13 H 0.4608 0.9328 0.4977
C34_13 C 0.5308(5) 0.9078(9) 0.48729(12)
C35_14 C 0.3010(6) 0.7706(10) 0.44226(13)
H27_14 H 0.3143 0.7921 0.4281
H28_13 H 0.3413 0.7793 0.4504
H29_14 H 0.2714 0.7219 0.4405
C36_14 C 0.2628(5) 0.8002(9) 0.45477(11)
C37_14 C 0.2797(5) 0.8180(9) 0.47649(12)
H30_14 H 0.3113 0.8077 0.4829
C38_14 C 0.2542(5) 0.8496(9) 0.48955(12)
C39_14 C 0.2762(5) 0.8657(9) 0.51268(11)
C40_14 C 0.2772(5) 0.8149(9) 0.52550(13)
H31_14 H 0.2682 0.7734 0.5192
C41_14 C 0.2913(6) 0.8263(10) 0.54723(13)
H32_14 H 0.2886 0.7913 0.5562
C42_14 C 0.3097(5) 0.8896(9) 0.55619(11)
C43_14 C 0.3084(4) 0.9383(7) 0.54347(11)
H33_14 H 0.3188 0.9805 0.5496
C44_14 C 0.2921(4) 0.9259(7) 0.52184(11)
H34_14 H 0.2921 0.9601 0.5132
C45_13 C 0.3846(5) 0.9518(9) 0.58669(12)
H35_13 H 0.4191 0.9855 0.5780
C46_14 C 0.3296(5) 0.8973(9) 0.61390(11)
C47_14 C 0.3069(5) 0.8708(9) 0.63509(12)
H36_13 H 0.3345 0.8907 0.6474
C48_14 C 0.2436(5) 0.8156(9) 0.63682(14)
H37_14 H 0.2259 0.8001 0.6509
C49_14 C 0.2024(6) 0.7797(10) 0.61858(13)
H38_14 H 0.1612 0.7385 0.6204
C50_14 C 0.2249(5) 0.8073(9) 0.59803(13)
H39_14 H 0.1969 0.7876 0.5858
C51_14 C 0.2884(5) 0.8637(8) 0.59583(11)
H47_14 H 0.3904 0.9980 0.6839
N3_13 N 0.5674(4) 0.9067(7) 0.50522(9)
N4_14 N 0.6142(4) 0.8894(7) 0.47643(9)
N5_14 N 0.3271(4) 0.9021(7) 0.57842(9)
N6_13 N 0.3900(4) 0.9507(7) 0.60736(9)
O3_13 O 0.4643(3) 0.9160(5) 0.63898(7)
O4_13 O 0.5308(4) 0.9859(7) 0.60005(8)
O5_10 O 0.2171(3) 0.8036(5) 0.44441(7)
O6_10 O 0.2116(3) 0.8675(5) 0.48386(7)
Co5_8 Co 0.14554(11) 0.81844(13) 0.459157(14)
N9_11 N 0.7278(4) 0.8180(7) 0.44128(9)
O9_11 O 0.7594(4) 0.9247(6) 0.47402(7)
O10_11 O 0.6936(4) 0.9215(6) 0.43463(7)
C18_14 C 0.2017(10) 0.6287(8) 0.64030(14)
H14_14 H 0.2201 0.5984 0.6421
H15_15 H 0.2335 0.6685 0.6320
H16_14 H 0.1947 0.6429 0.6545
C19_14 C 0.1341(9) 0.5916(7) 0.62825(12)
C20_14 C 0.1343(9) 0.6103(7) 0.60645(13)
H17_14 H 0.1764 0.6405 0.6000
C21_14 C 0.0756(10) 0.5868(8) 0.59380(12)
C22_14 C 0.0830(9) 0.6088(7) 0.57100(12)
C23_14 C 0.1287(10) 0.6054(8) 0.55741(13)
H18_14 H 0.1593 0.5926 0.5631
C24_14 C 0.1311(11) 0.6204(9) 0.53554(14)
H19_14 H 0.1607 0.6148 0.5261
C25_14 C 0.0890(9) 0.6437(7) 0.52769(11)
C26_14 C 0.0417(9) 0.6463(7) 0.54051(12)
H20_14 H 0.0117 0.6595 0.5347
C27_14 C 0.0382(9) 0.6296(7) 0.56212(12)
H21_14 H 0.0059 0.6319 0.5712
C28_15 C 0.1049(9) 0.7203(7) 0.49739(12)
H22_15 H 0.1086 0.7558 0.5063
C29_14 C 0.1035(7) 0.6642(6) 0.46966(10)
C30_14 C 0.1050(9) 0.6416(7) 0.44852(12)
H23_15 H 0.1158 0.6704 0.4364
C31_14 C 0.0901(9) 0.5770(7) 0.44669(13)
H24_14 H 0.0874 0.5592 0.4327
C32_14 C 0.0783(9) 0.5343(8) 0.46466(14)
H25_14 H 0.0710 0.4901 0.4625
C33_14 C 0.0774(9) 0.5566(7) 0.48549(13)
H26_14 H 0.0672 0.5281 0.4977
C34_14 C 0.0922(9) 0.6231(7) 0.48729(12)
C35_15 C 0.2294(10) 0.5305(8) 0.44226(13)
H27_15 H 0.2079 0.5223 0.4281
H28_14 H 0.2207 0.5621 0.4504
H29_15 H 0.2781 0.5496 0.4405
C36_15 C 0.1998(9) 0.4627(7) 0.45477(11)
C37_15 C 0.1820(9) 0.4618(7) 0.47649(12)
H30_15 H 0.1923 0.5037 0.4829
C38_15 C 0.1504(9) 0.4047(7) 0.48955(12)
C39_15 C 0.1343(9) 0.4106(7) 0.51268(11)
C40_15 C 0.1851(9) 0.4624(8) 0.52550(13)
H31_15 H 0.2266 0.4949 0.5192
C41_15 C 0.1737(10) 0.4651(8) 0.54723(13)
H32_15 H 0.2087 0.4974 0.5562
C42_15 C 0.1104(9) 0.4202(7) 0.55619(11)
C43_15 C 0.0617(7) 0.3702(6) 0.54347(11)
H33_15 H 0.0195 0.3384 0.5496
C44_15 C 0.0741(7) 0.3663(6) 0.52184(11)
H34_15 H 0.0399 0.3321 0.5132
C45_14 C 0.0482(9) 0.4329(7) 0.58669(12)
H35_14 H 0.0145 0.4337 0.5780
C46_15 C 0.1027(9) 0.4324(7) 0.61390(11)
C47_15 C 0.1292(9) 0.4362(7) 0.63509(12)
H36_14 H 0.1093 0.4439 0.6474
C48_15 C 0.1844(9) 0.4281(7) 0.63682(14)
H37_15 H 0.1999 0.4259 0.6509
C49_15 C 0.2203(10) 0.4228(8) 0.61858(13)
H38_15 H 0.2615 0.4228 0.6204
C50_15 C 0.1927(9) 0.4177(7) 0.59803(13)
H39_15 H 0.2124 0.4094 0.5858
C51_15 C 0.1363(8) 0.4248(6) 0.59583(11)
H47_15 H 0.0020 0.3925 0.6839
N3_14 N 0.0933(7) 0.6608(6) 0.50522(9)
N4_15 N 0.1106(7) 0.7249(6) 0.47643(9)
N5_15 N 0.0979(7) 0.4251(6) 0.57842(9)
N6_14 N 0.0493(7) 0.4394(6) 0.60736(9)
O3_14 O 0.0840(5) 0.5484(4) 0.63898(7)
O4_14 O 0.0141(7) 0.5450(6) 0.60005(8)
N9_12 N 0.1820(7) 0.9097(6) 0.44128(9)
O9_12 O 0.0753(6) 0.8346(5) 0.47402(7)
O10_12 O 0.0785(6) 0.7720(5) 0.43463(7)
C1_15 C 0.7895(9) 0.4561(7) 0.80894(13)
H1_15 H 0.7428 0.4432 0.8124
H2_15 H 0.7901 0.4215 0.7998
H3_15 H 0.8142 0.4605 0.8223
C2_15 C 0.8226(9) 0.5226(7) 0.79721(12)
C3_15 C 0.8427(9) 0.5238(7) 0.77539(12)
H4_15 H 0.8325 0.4816 0.7693
C4_15 C 0.8752(9) 0.5790(7) 0.76210(12)
C5_15 C 0.8897(7) 0.5722(6) 0.73914(12)
C6_15 C 0.8691(9) 0.5083(8) 0.72964(12)
H5_15 H 0.8485 0.4686 0.7382
C7_15 C 0.8791(9) 0.5043(8) 0.70784(13)
H6_15 H 0.8661 0.4615 0.7016
C8_15 C 0.9077(9) 0.5614(7) 0.69474(11)
C9_15 C 0.9334(9) 0.6247(7) 0.70419(12)
H7_15 H 0.9579 0.6647 0.6959
C10_15 C 0.9219(7) 0.6275(6) 0.72622(11)
H8_13 H 0.9375 0.6706 0.7326
C11_14 C 0.9489(9) 0.5231(7) 0.66412(11)
H9_15 H 0.9724 0.5072 0.6727
C12_14 C 0.8868(9) 0.5704(7) 0.65511(12)
C13_14 C 0.8480(9) 0.6009(8) 0.65380(14)
H10_14 H 0.8359 0.6168 0.6662
C14_14 C 0.8285(9) 0.6069(8) 0.63377(14)
H11_14 H 0.8030 0.6290 0.6322
C15_14 C 0.8439(10) 0.5818(8) 0.61501(14)
H12_14 H 0.8268 0.5857 0.6015
C16_14 C 0.8820(9) 0.5528(8) 0.61596(13)
H13_14 H 0.8927 0.5361 0.6034
C17_14 C 0.9054(9) 0.5483(7) 0.63665(11)
C52_14 C 0.7888(9) 0.3359(8) 0.60790(15)
H40_14 H 0.7957 0.3253 0.5932
H41_14 H 0.7562 0.2944 0.6153
H42_14 H 0.7716 0.3675 0.6075
C53_14 C 0.8560(9) 0.3682(8) 0.62008(12)
C54_14 C 0.8552(9) 0.3471(8) 0.64180(13)
H43_14 H 0.8129 0.3142 0.6476
C55_14 C 0.9105(9) 0.3705(7) 0.65502(12)
C56_15 C 0.9032(9) 0.3492(7) 0.67814(12)
C57_15 C 0.8399(9) 0.3063(8) 0.68783(13)
H44_15 H 0.8004 0.2865 0.6792
C58_15 C 0.8344(9) 0.2928(7) 0.70949(12)
H45_15 H 0.7915 0.2645 0.7159
C59_15 C 0.8929(9) 0.3211(7) 0.72213(11)
C60_15 C 0.9538(9) 0.3552(7) 0.71268(13)
H46_15 H 0.9936 0.3700 0.7211
C61_15 C 0.9587(9) 0.3689(7) 0.69042(12)
C62_15 C 0.8547(9) 0.2454(7) 0.75367(11)
H48_15 H 0.8373 0.2057 0.7451
C63_15 C 0.8784(9) 0.3112(7) 0.78048(11)
C64_15 C 0.8849(9) 0.3398(7) 0.80093(11)
H49_15 H 0.8686 0.3126 0.8135
C65_15 C 0.9166(10) 0.4100(8) 0.80199(14)
H50_15 H 0.9207 0.4318 0.8154
C66_15 C 0.9423(9) 0.4480(7) 0.78298(15)
H51_15 H 0.9657 0.4958 0.7841
C67_15 C 0.9354(9) 0.4197(7) 0.76271(14)
H52_15 H 0.9525 0.4465 0.7501
C68_15 C 0.9035(9) 0.3529(7) 0.76214(12)
Co1_14 Co 0.99510(11) 0.47839(9) 0.624677(14)
N1_15 N 0.9155(7) 0.5545(6) 0.67238(9)
N2_14 N 0.9445(7) 0.5179(6) 0.64284(10)
N7_15 N 0.8870(7) 0.3075(6) 0.74488(9)
O7_14 O 0.9068(5) 0.4108(4) 0.60974(7)
O8_14 O 0.9733(5) 0.4112(4) 0.64939(7)
H34_16 H 0.0013 0.3745 0.1798
H40_15 H 0.0081 0.1371 0.2598
H41_15 H 0.0390 0.1285 0.2819
H43_15 H 0.0192 0.1654 0.3142
C57_16 C 0.0271(8) 0.2003(5) 0.35449(13)
H44_16 H 0.0469 0.1806 0.3458
C58_16 C 0.0406(7) 0.2083(5) 0.37615(12)
H45_16 H 0.0689 0.1937 0.3825
C59_16 C 0.0123(7) 0.2385(5) 0.38879(11)
C62_16 C 0.0880(7) 0.2760(5) 0.42033(11)
H48_16 H 0.1277 0.2983 0.4117
C63_16 C 0.0222(7) 0.2339(5) 0.44714(11)
H49_16 H 0.0208 0.2227 0.4801
N7_16 N 0.0259(6) 0.2462(4) 0.41154(9)
C1_16 C 0.8773(7) 0.0001(5) 0.47560(13)
H2_16 H 0.9119 0.0353 0.4664
H3_16 H 0.8729 0.0204 0.4889
H4_16 H 0.8518 0.0176 0.4359
C6_16 C 0.8251(8) 0.0275(5) 0.39630(12)
H5_16 H 0.8648 0.0466 0.4048
C7_16 C 0.8291(8) 0.0415(5) 0.37450(13)
H6_16 H 0.8719 0.0713 0.3682
C8_16 C 0.7720(7) 0.0130(5) 0.36140(11)
C11_15 C 0.8103(7) 0.0925(5) 0.33078(11)
H9_16 H 0.8262 0.1319 0.3393
H13_15 H 0.7973 0.0233 0.2700
C17_15 C 0.7851(7) 0.0238(5) 0.30331(11)
C18_15 C 0.7047(8) 0.2397(6) 0.30696(14)
H14_15 H 0.7350 0.2884 0.3087
H15_16 H 0.6649 0.2317 0.2986
H16_15 H 0.6905 0.2185 0.3211
C19_15 C 0.7418(7) 0.2092(5) 0.29491(12)
C20_15 C 0.7231(7) 0.1907(5) 0.27311(13)
H17_15 H 0.6929 0.2026 0.2666
C21_15 C 0.7466(8) 0.1555(6) 0.26046(12)
C22_15 C 0.7246(7) 0.1409(5) 0.23766(12)
C23_15 C 0.7280(8) 0.1900(6) 0.22407(13)
H18_15 H 0.7408 0.2334 0.2297
C24_15 C 0.7130(9) 0.1774(6) 0.20220(14)
H19_15 H 0.7186 0.2126 0.1927
C25_15 C 0.6897(7) 0.1120(5) 0.19435(11)
C26_15 C 0.6871(7) 0.0621(5) 0.20717(12)
H20_15 H 0.6739 0.0189 0.2013
C27_15 C 0.7038(7) 0.0753(5) 0.22878(12)
H21_15 H 0.7015 0.0407 0.2378
C28_16 C 0.6131(7) 0.0513(5) 0.16405(12)
H22_16 H 0.5776 0.0195 0.1729
C29_15 C 0.6692(6) 0.1060(4) 0.13632(10)
C30_15 C 0.6918(7) 0.1301(5) 0.11518(12)
H23_16 H 0.6630 0.1121 0.1030
C31_15 C 0.7564(7) 0.1798(5) 0.11335(13)
H24_15 H 0.7742 0.1949 0.0993
C32_15 C 0.7991(8) 0.2107(5) 0.13132(14)
H25_15 H 0.8433 0.2476 0.1291
C33_15 C 0.7768(7) 0.1875(5) 0.15215(13)
H26_15 H 0.8053 0.2058 0.1643
C34_15 C 0.7103(7) 0.1358(5) 0.15395(12)
C35_16 C 0.8029(8) 0.3656(6) 0.10892(13)
H27_16 H 0.8111 0.3523 0.0947
H28_15 H 0.7713 0.3253 0.1170
H29_16 H 0.7838 0.3952 0.1071
C36_16 C 0.8707(7) 0.4038(5) 0.12143(11)
C37_16 C 0.8716(7) 0.3869(5) 0.14315(12)
H30_16 H 0.8297 0.3553 0.1495
C38_16 C 0.9287(7) 0.4124(5) 0.15621(12)
C39_16 C 0.9228(7) 0.3904(5) 0.17934(11)
C40_16 C 0.8710(8) 0.3894(5) 0.19216(13)
H31_16 H 0.8385 0.3984 0.1858
C41_16 C 0.8683(8) 0.3753(6) 0.21389(13)
H32_16 H 0.8360 0.3780 0.2228
C42_16 C 0.9132(7) 0.3569(5) 0.22285(11)
C43_16 C 0.9632(6) 0.3582(4) 0.21013(11)
H33_16 H 0.9950 0.3478 0.2162
C44_16 C 0.9671(6) 0.3745(4) 0.18850(11)
C45_15 C 0.9005(7) 0.2820(5) 0.25335(12)
H35_15 H 0.8997 0.2475 0.2446
C46_16 C 0.9010(7) 0.3370(5) 0.28056(11)
C47_16 C 0.8972(7) 0.3597(5) 0.30175(12)
H36_15 H 0.8895 0.3321 0.3140
C48_16 C 0.9053(7) 0.4230(5) 0.30348(14)
H37_16 H 0.9075 0.4407 0.3175
C49_16 C 0.9106(8) 0.4642(6) 0.28524(13)
H38_16 H 0.9106 0.5054 0.2870
C50_16 C 0.9157(7) 0.4417(5) 0.26469(13)
H39_16 H 0.9240 0.4697 0.2524
C51_16 C 0.9086(6) 0.3782(5) 0.26249(11)
C52_15 C 0.9975(8) 0.1196(5) 0.27456(15)
H42_15 H 0.9659 0.0708 0.2741
C53_15 C 0.9652(8) 0.1545(5) 0.28674(12)
C54_15 C 0.9863(8) 0.1748(5) 0.30846(13)
C55_15 C 0.9629(7) 0.2067(5) 0.32168(12)
C56_16 C 0.9842(7) 0.2207(5) 0.34480(12)
C60_16 C 0.9782(7) 0.2653(5) 0.37934(13)
H46_16 H 0.9634 0.2903 0.3877
C61_16 C 0.9645(7) 0.2565(5) 0.35708(12)
H47_16 H 0.9409 0.2762 0.3505
C64_16 C 0.9936(7) 0.2118(5) 0.46759(11)
C65_16 C 0.9234(8) 0.1733(6) 0.46865(14)
H50_16 H 0.9016 0.1556 0.4820
C66_16 C 0.8854(7) 0.1610(5) 0.44964(15)
H51_16 H 0.8376 0.1366 0.4507
C67_16 C 0.9137(7) 0.1824(5) 0.42937(14)
H52_16 H 0.8869 0.1727 0.4167
C68_16 C 0.9805(7) 0.2173(5) 0.42880(12)
Co1_15 Co 0.85495(9) 0.18338(6) 0.291343(14)
N1_16 N 0.7789(6) 0.0277(4) 0.33904(9)
N2_15 N 0.8155(6) 0.0933(4) 0.30950(10)
N3_15 N 0.6726(6) 0.0992(4) 0.17188(9)
N4_16 N 0.6085(6) 0.0524(4) 0.14309(9)
N5_16 N 0.9083(6) 0.3395(4) 0.24508(9)
N6_15 N 0.8940(6) 0.2766(4) 0.27402(9)
O3_15 O 0.7850(4) 0.2023(3) 0.30564(7)
O4_15 O 0.7884(6) 0.1358(4) 0.26671(8)
O5_11 O 0.9198(4) 0.4495(3) 0.11107(7)
O6_11 O 0.9892(4) 0.4550(3) 0.15052(7)
O7_15 O 0.9226(4) 0.1627(3) 0.27640(7)
O8_15 O 0.9222(4) 0.2288(3) 0.31605(7)
O11_6 O 0.5298(5) 0.0802(4) 0.11107(7)
O12_6 O 0.4659(5) 0.0108(4) 0.15052(7)
H1_16 H 0.8902 0.9663 0.4790
C2_16 C 0.8108(7) 0.9667(5) 0.46387(12)
C3_16 C 0.8096(7) 0.9856(5) 0.44205(12)
C4_16 C 0.7544(7) 0.9629(5) 0.42876(12)
C5_16 C 0.7612(6) 0.9842(4) 0.40580(12)
C9_16 C 0.7087(7) 0.9754(5) 0.37085(12)
H7_16 H 0.6687 0.9599 0.3625
C10_16 C 0.7059(6) 0.9611(4) 0.39288(11)
H8_14 H 0.6628 0.9336 0.3992
C12_15 C 0.7630(7) 0.9831(5) 0.32177(12)
C13_15 C 0.7325(8) 0.9138(5) 0.32046(14)
H10_15 H 0.7166 0.8858 0.3328
C14_15 C 0.7265(8) 0.8883(5) 0.30043(14)
H11_15 H 0.7044 0.8407 0.2988
C15_15 C 0.7516(8) 0.9288(6) 0.28167(14)
H12_15 H 0.7477 0.9078 0.2681
C16_15 C 0.7806(8) 0.9959(5) 0.28262(13)
H1_17 H 0.0337 0.9238 0.4790
C2_17 C 0.0333(5) 0.8440(9) 0.46387(12)
C3_17 C 0.0144(5) 0.8239(9) 0.44205(12)
C4_17 C 0.0371(5) 0.7914(9) 0.42876(12)
C5_17 C 0.0158(4) 0.7769(7) 0.40580(12)
C9_17 C 0.0246(5) 0.7332(9) 0.37085(12)
H7_17 H 0.0401 0.7087 0.3625
C10_17 C 0.0389(4) 0.7447(7) 0.39288(11)
H8_15 H 0.0664 0.7291 0.3992
C12_16 C 0.0169(5) 0.7798(9) 0.32177(12)
C13_16 C 0.0862(5) 0.8186(9) 0.32046(14)
H10_16 H 0.1142 0.8307 0.3328
C14_16 C 0.1117(5) 0.8381(9) 0.30043(14)
H11_16 H 0.1593 0.8636 0.2988
C15_16 C 0.0712(6) 0.8227(10) 0.28167(14)
H12_16 H 0.0922 0.8398 0.2681
C16_16 C 0.0041(5) 0.7846(9) 0.28262(13)
C1_17 C 0.9999(5) 0.8771(9) 0.47560(13)
H2_17 H 0.9647 0.8765 0.4664
H3_17 H 0.9796 0.8524 0.4889
H4_17 H 0.9824 0.8341 0.4359
C6_17 C 0.9725(5) 0.7975(9) 0.39630(12)
H5_17 H 0.9534 0.8181 0.4048
C7_17 C 0.9585(5) 0.7875(9) 0.37450(13)
H6_17 H 0.9287 0.8005 0.3682
C8_17 C 0.9870(5) 0.7589(9) 0.36140(11)
C11_16 C 0.9075(5) 0.7177(9) 0.33078(11)
H9_17 H 0.8681 0.6942 0.3393
H13_16 H 0.9767 0.7739 0.2700
C17_16 C 0.9762(5) 0.7612(9) 0.30331(11)
C18_16 C 0.7603(6) 0.4649(10) 0.30696(14)
H14_16 H 0.7116 0.4465 0.3087
H15_17 H 0.7683 0.4331 0.2986
H16_16 H 0.7815 0.4719 0.3211
C19_16 C 0.7908(5) 0.5325(9) 0.29491(12)
C20_16 C 0.8093(5) 0.5323(9) 0.27311(13)
H17_16 H 0.7974 0.4902 0.2666
C21_16 C 0.8445(6) 0.5910(10) 0.26046(12)
C22_16 C 0.8591(5) 0.5836(9) 0.23766(12)
C23_16 C 0.8100(6) 0.5379(10) 0.22407(13)
H18_16 H 0.7666 0.5073 0.2297
C24_16 C 0.8226(6) 0.5355(11) 0.20220(14)
H19_16 H 0.7874 0.5059 0.1927
C25_16 C 0.8880(5) 0.5776(9) 0.19435(11)
C26_16 C 0.9379(5) 0.6249(9) 0.20717(12)
H20_16 H 0.9811 0.6549 0.2013
C27_16 C 0.9247(5) 0.6284(9) 0.22878(12)
H21_16 H 0.9593 0.6607 0.2378
C28_17 C 0.9487(5) 0.5617(9) 0.16405(12)
H22_17 H 0.9805 0.5580 0.1729
C29_16 C 0.8940(4) 0.5631(7) 0.13632(10)
C30_16 C 0.8699(5) 0.5616(9) 0.11518(12)
H23_17 H 0.8879 0.5508 0.1030
C31_16 C 0.8202(5) 0.5765(9) 0.11335(13)
H24_16 H 0.8051 0.5792 0.0993
C32_16 C 0.7893(5) 0.5883(9) 0.13132(14)
H25_16 H 0.7524 0.5956 0.1291
C33_16 C 0.8125(5) 0.5892(9) 0.15215(13)
H26_16 H 0.7942 0.5994 0.1643
C34_16 C 0.8642(5) 0.5744(9) 0.15395(12)
C35_17 C 0.6344(6) 0.4372(10) 0.10892(13)
H27_17 H 0.6477 0.4587 0.0947
H28_16 H 0.6747 0.4459 0.1170
H29_17 H 0.6048 0.3885 0.1071
C36_17 C 0.5962(5) 0.4668(9) 0.12143(11)
C37_17 C 0.6131(5) 0.4846(9) 0.14315(12)
H30_17 H 0.6447 0.4743 0.1495
C38_17 C 0.5876(5) 0.5162(9) 0.15621(12)
C39_17 C 0.6096(5) 0.5323(9) 0.17934(11)
C40_17 C 0.6106(5) 0.4815(9) 0.19216(13)
H31_17 H 0.6016 0.4400 0.1858
C41_17 C 0.6247(6) 0.4929(10) 0.21389(13)
H32_17 H 0.6220 0.4579 0.2228
C42_17 C 0.6431(5) 0.5562(9) 0.22285(11)
C43_17 C 0.6418(4) 0.6049(7) 0.21013(11)
H33_17 H 0.6522 0.6471 0.2162
C44_17 C 0.6255(4) 0.5925(7) 0.18850(11)
H34_17 H 0.6255 0.6267 0.1798
C45_16 C 0.7180(5) 0.6184(9) 0.25335(12)
H35_16 H 0.7525 0.6521 0.2446
C46_17 C 0.6630(5) 0.5639(9) 0.28056(11)
C47_17 C 0.6403(5) 0.5374(9) 0.30175(12)
H36_16 H 0.6679 0.5573 0.3140
C48_17 C 0.5770(5) 0.4822(9) 0.30348(14)
H37_17 H 0.5593 0.4667 0.3175
C49_17 C 0.5358(6) 0.4463(10) 0.28524(13)
H38_17 H 0.4946 0.4051 0.2870
C50_17 C 0.5583(5) 0.4739(9) 0.26469(13)
H39_17 H 0.5303 0.4542 0.2524
C51_17 C 0.6218(5) 0.5303(8) 0.26249(11)
C52_16 C 0.8804(5) 0.8778(9) 0.27456(15)
H40_16 H 0.8629 0.8709 0.2598
H41_16 H 0.8715 0.9104 0.2819
H42_16 H 0.9292 0.8950 0.2741
C53_16 C 0.8455(5) 0.8106(9) 0.28674(12)
C54_16 C 0.8252(5) 0.8114(9) 0.30846(13)
H43_16 H 0.8346 0.8537 0.3142
C55_16 C 0.7933(5) 0.7561(9) 0.32168(12)
C56_17 C 0.7793(5) 0.7634(9) 0.34480(12)
C57_17 C 0.7997(5) 0.8267(9) 0.35449(13)
H44_17 H 0.8194 0.8662 0.3458
C58_17 C 0.7917(5) 0.8322(9) 0.37615(12)
H45_17 H 0.8063 0.8751 0.3825
C59_17 C 0.7615(5) 0.7737(9) 0.38879(11)
C60_17 C 0.7347(5) 0.7128(9) 0.37934(13)
H46_17 H 0.7097 0.6730 0.3877
C61_17 C 0.7435(5) 0.7079(9) 0.35708(12)
H47_17 H 0.7238 0.6646 0.3505
C62_17 C 0.7240(5) 0.8119(9) 0.42033(11)
H48_17 H 0.7017 0.8293 0.4117
C63_17 C 0.7661(5) 0.7882(9) 0.44714(11)
C64_17 C 0.7882(5) 0.7817(9) 0.46759(11)
H49_17 H 0.7773 0.7980 0.4801
C65_17 C 0.8267(6) 0.7500(10) 0.46865(14)
H50_17 H 0.8444 0.7459 0.4820
C66_17 C 0.8390(5) 0.7243(9) 0.44964(15)
H51_17 H 0.8634 0.7009 0.4507
C67_17 C 0.8176(5) 0.7312(9) 0.42937(14)
H52_17 H 0.8273 0.7141 0.4167
C68_17 C 0.7827(5) 0.7631(9) 0.42880(12)
Co1_16 Co 0.81662(6) 0.67156(11) 0.291343(14)
N1_17 N 0.9723(4) 0.7511(7) 0.33904(9)
N2_16 N 0.9067(4) 0.7221(7) 0.30950(10)
N3_16 N 0.9008(4) 0.5733(7) 0.17188(9)
N4_17 N 0.9476(4) 0.5560(7) 0.14309(9)
N5_17 N 0.6605(4) 0.5687(7) 0.24508(9)
N6_16 N 0.7234(4) 0.6173(7) 0.27402(9)
N7_17 N 0.7538(4) 0.7796(7) 0.41154(9)
O3_16 O 0.7977(3) 0.5826(5) 0.30564(7)
O4_16 O 0.8642(4) 0.6525(7) 0.26671(8)
O5_12 O 0.5505(3) 0.4702(5) 0.11107(7)
O6_12 O 0.5450(3) 0.5341(5) 0.15052(7)
O7_16 O 0.8373(3) 0.7598(5) 0.27640(7)
O8_16 O 0.7712(3) 0.6933(5) 0.31605(7)
C1_18 C 0.1229(9) 0.1227(7) 0.47560(13)
H1_18 H 0.0762 0.1098 0.4790
H2_18 H 0.1235 0.0881 0.4664
H3_18 H 0.1476 0.1271 0.4889
C2_18 C 0.1560(9) 0.1892(7) 0.46387(12)
C3_18 C 0.1761(9) 0.1904(7) 0.44205(12)
H4_18 H 0.1659 0.1482 0.4359
C4_18 C 0.2086(9) 0.2456(7) 0.42876(12)
C5_18 C 0.2231(7) 0.2388(6) 0.40580(12)
C6_18 C 0.2025(9) 0.1749(8) 0.39630(12)
H5_18 H 0.1819 0.1352 0.4048
C7_18 C 0.2125(9) 0.1709(8) 0.37450(13)
H6_18 H 0.1995 0.1281 0.3682
C8_18 C 0.2411(9) 0.2280(7) 0.36140(11)
C9_18 C 0.2668(9) 0.2913(7) 0.37085(12)
H7_18 H 0.2913 0.3313 0.3625
C10_18 C 0.2553(7) 0.2941(6) 0.39288(11)
H8_16 H 0.2709 0.3372 0.3992
C11_17 C 0.2823(9) 0.1897(7) 0.33078(11)
H9_18 H 0.3058 0.1738 0.3393
C12_17 C 0.2202(9) 0.2370(7) 0.32177(12)
C13_17 C 0.1814(9) 0.2675(8) 0.32046(14)
H10_17 H 0.1693 0.2834 0.3328
C14_17 C 0.1619(9) 0.2735(8) 0.30043(14)
H11_17 H 0.1364 0.2956 0.2988
C15_17 C 0.1773(10) 0.2484(8) 0.28167(14)
H12_17 H 0.1602 0.2523 0.2681
C16_17 C 0.2154(9) 0.2194(8) 0.28262(13)
H13_17 H 0.2261 0.2027 0.2700
C17_17 C 0.2388(9) 0.2149(7) 0.30331(11)
C18_17 C 0.5351(10) 0.2953(8) 0.30696(14)
H14_17 H 0.5535 0.2650 0.3087
H15_18 H 0.5669 0.3351 0.2986
H16_17 H 0.5281 0.3095 0.3211
C19_17 C 0.4675(9) 0.2582(7) 0.29491(12)
C20_17 C 0.4677(9) 0.2769(7) 0.27311(13)
H17_17 H 0.5098 0.3071 0.2666
C21_17 C 0.4090(10) 0.2534(8) 0.26046(12)
C22_17 C 0.4164(9) 0.2754(7) 0.23766(12)
C23_17 C 0.4621(10) 0.2720(8) 0.22407(13)
H18_17 H 0.4927 0.2592 0.2297
C24_17 C 0.4645(11) 0.2870(9) 0.20220(14)
H19_17 H 0.4941 0.2814 0.1927
C25_17 C 0.4224(9) 0.3103(7) 0.19435(11)
C26_17 C 0.3751(9) 0.3129(7) 0.20717(12)
H20_17 H 0.3451 0.3261 0.2013
C27_17 C 0.3716(9) 0.2962(7) 0.22878(12)
H21_17 H 0.3393 0.2985 0.2378
C28_18 C 0.4383(9) 0.3869(7) 0.16405(12)
H22_18 H 0.4420 0.4224 0.1729
C29_17 C 0.4369(7) 0.3308(6) 0.13632(10)
C30_17 C 0.4384(9) 0.3082(7) 0.11518(12)
H23_18 H 0.4492 0.3370 0.1030
C31_17 C 0.4235(9) 0.2436(7) 0.11335(13)
H24_17 H 0.4208 0.2258 0.0993
C32_17 C 0.4117(9) 0.2009(8) 0.13132(14)
H25_17 H 0.4044 0.1567 0.1291
C33_17 C 0.4108(9) 0.2232(7) 0.15215(13)
H26_17 H 0.4006 0.1947 0.1643
C34_17 C 0.4256(9) 0.2897(7) 0.15395(12)
C35_18 C 0.5628(10) 0.1971(8) 0.10892(13)
H27_18 H 0.5413 0.1889 0.0947
H28_17 H 0.5541 0.2287 0.1170
H29_18 H 0.6115 0.2162 0.1071
C36_18 C 0.5332(9) 0.1293(7) 0.12143(11)
C37_18 C 0.5154(9) 0.1284(7) 0.14315(12)
H30_18 H 0.5257 0.1703 0.1495
C38_18 C 0.4838(9) 0.0713(7) 0.15621(12)
C39_18 C 0.4677(9) 0.0772(7) 0.17934(11)
C40_18 C 0.5185(9) 0.1290(8) 0.19216(13)
H31_18 H 0.5600 0.1615 0.1858
C41_18 C 0.5071(10) 0.1317(8) 0.21389(13)
H32_18 H 0.5421 0.1640 0.2228
C42_18 C 0.4438(9) 0.0868(7) 0.22285(11)
C43_18 C 0.3951(7) 0.0368(6) 0.21013(11)
H33_18 H 0.3529 0.0050 0.2162
C44_18 C 0.4075(7) 0.0329(6) 0.18850(11)
C45_17 C 0.3816(9) 0.0995(7) 0.25335(12)
H35_17 H 0.3479 0.1003 0.2446
C46_18 C 0.4361(9) 0.0990(7) 0.28056(11)
C47_18 C 0.4626(9) 0.1028(7) 0.30175(12)
H36_17 H 0.4427 0.1105 0.3140
C48_18 C 0.5178(9) 0.0947(7) 0.30348(14)
H37_18 H 0.5333 0.0925 0.3175
C49_18 C 0.5537(10) 0.0894(8) 0.28524(13)
H38_18 H 0.5949 0.0894 0.2870
C50_18 C 0.5261(9) 0.0843(7) 0.26469(13)
H39_18 H 0.5458 0.0760 0.2524
C51_18 C 0.4697(8) 0.0914(6) 0.26249(11)
C52_17 C 0.1222(9) 0.0025(8) 0.27456(15)
H42_17 H 0.1050 0.0341 0.2741
C53_17 C 0.1894(9) 0.0348(8) 0.28674(12)
C54_17 C 0.1886(9) 0.0137(8) 0.30846(13)
C55_17 C 0.2439(9) 0.0371(7) 0.32168(12)
C56_18 C 0.2366(9) 0.0158(7) 0.34480(12)
C60_18 C 0.2872(9) 0.0218(7) 0.37934(13)
H46_18 H 0.3270 0.0366 0.3877
C61_18 C 0.2921(9) 0.0355(7) 0.35708(12)
H47_18 H 0.3354 0.0591 0.3505
C64_18 C 0.2183(9) 0.0064(7) 0.46759(11)
C65_18 C 0.2500(10) 0.0766(8) 0.46865(14)
H50_18 H 0.2541 0.0984 0.4820
C66_18 C 0.2757(9) 0.1146(7) 0.44964(15)
H51_18 H 0.2991 0.1624 0.4507
C67_18 C 0.2688(9) 0.0863(7) 0.42937(14)
H52_18 H 0.2859 0.1131 0.4167
C68_18 C 0.2369(9) 0.0195(7) 0.42880(12)
Co1_17 Co 0.32844(11) 0.14505(9) 0.291343(14)
N1_18 N 0.2489(7) 0.2211(6) 0.33904(9)
N2_17 N 0.2779(7) 0.1845(6) 0.30950(10)
N3_17 N 0.4267(7) 0.3274(6) 0.17188(9)
N4_18 N 0.4440(7) 0.3915(6) 0.14309(9)
N5_18 N 0.4313(7) 0.0917(6) 0.24508(9)
N6_17 N 0.3827(7) 0.1060(6) 0.27402(9)
O3_17 O 0.4174(5) 0.2150(4) 0.30564(7)
O4_17 O 0.3475(7) 0.2116(6) 0.26671(8)
O7_17 O 0.2402(5) 0.0774(4) 0.27640(7)
O8_17 O 0.3067(5) 0.0778(4) 0.31605(7)
H34_18 H 0.3733 0.9987 0.1798
H40_17 H 0.1291 0.9919 0.2598
H41_17 H 0.0896 0.9610 0.2819
H43_17 H 0.1463 0.9808 0.3142
C57_18 C 0.1733(9) 0.9729(8) 0.35449(13)
H44_18 H 0.1338 0.9531 0.3458
C58_18 C 0.1678(9) 0.9594(7) 0.37615(12)
H45_18 H 0.1249 0.9311 0.3825
C59_18 C 0.2263(9) 0.9877(7) 0.38879(11)
C62_18 C 0.1881(9) 0.9120(7) 0.42033(11)
H48_18 H 0.1707 0.8723 0.4117
C63_18 C 0.2118(9) 0.9778(7) 0.44714(11)
H49_18 H 0.2020 0.9792 0.4801
N7_18 N 0.2204(7) 0.9741(6) 0.41154(9)
C11_18 C 0.1436(7) 0.7592(5) 0.99745(11)
C12_18 C 0.0963(7) 0.6498(5) 0.98844(12)
C13_18 C 0.0658(8) 0.5805(5) 0.98713(14)
H10_18 H 0.0499 0.5525 0.9995
C14_18 C 0.0598(8) 0.5550(5) 0.96710(14)
H11_18 H 0.0377 0.5074 0.9655
C15_18 C 0.0849(8) 0.5955(6) 0.94834(14)
H12_18 H 0.0810 0.5745 0.9348
C16_18 C 0.1139(8) 0.6626(5) 0.94929(13)
H13_18 H 0.1306 0.6900 0.9367
C17_18 C 0.1184(7) 0.6905(5) 0.96998(11)
C18_18 C 0.0380(8) 0.9064(6) 0.97363(14)
H14_18 H 0.0683 0.9551 0.9754
H16_18 H 0.0238 0.8852 0.9878
C19_18 C 0.0751(7) 0.8759(5) 0.96158(12)
C20_18 C 0.0564(7) 0.8574(5) 0.93978(13)
H17_18 H 0.0262 0.8693 0.9333
C21_18 C 0.0799(8) 0.8222(6) 0.92713(12)
C22_18 C 0.0579(7) 0.8076(5) 0.90433(12)
C23_18 C 0.0613(8) 0.8567(6) 0.89074(13)
H18_18 H 0.0741 0.9001 0.8964
C24_18 C 0.0463(9) 0.8441(6) 0.86887(14)
H19_18 H 0.0519 0.8793 0.8594
C25_18 C 0.0230(7) 0.7787(5) 0.86102(11)
C26_18 C 0.0204(7) 0.7288(5) 0.87384(12)
H20_18 H 0.0072 0.6856 0.8680
C27_18 C 0.0371(7) 0.7420(5) 0.89545(12)
H21_18 H 0.0348 0.7074 0.9045
C29_18 C 0.0025(6) 0.7727(4) 0.80299(10)
C30_18 C 0.0251(7) 0.7968(5) 0.78185(12)
C31_18 C 0.0897(7) 0.8465(5) 0.78002(13)
H24_18 H 0.1075 0.8616 0.7660
C32_18 C 0.1324(8) 0.8774(5) 0.79799(14)
H25_18 H 0.1766 0.9143 0.7958
C33_18 C 0.1101(7) 0.8542(5) 0.81882(13)
H26_18 H 0.1386 0.8725 0.8310
C34_18 C 0.0436(7) 0.8025(5) 0.82062(12)
H28_18 H 0.1046 0.9920 0.7837
C45_18 C 0.2338(7) 0.9487(5) 0.92002(12)
H35_18 H 0.2330 0.9142 0.9113
H36_18 H 0.2228 0.9988 0.9807
C52_18 C 0.3308(8) 0.7863(5) 0.94123(15)
H40_18 H 0.3414 0.8038 0.9265
H41_18 H 0.3723 0.7952 0.9486
H42_18 H 0.2992 0.7375 0.9408
C53_18 C 0.2985(8) 0.8212(5) 0.95341(12)
C54_18 C 0.3196(8) 0.8415(5) 0.97513(13)
H43_18 H 0.3525 0.8321 0.9809
C55_18 C 0.2962(7) 0.8734(5) 0.98835(12)
Co1_18 Co 0.18828(9) 0.85005(6) 0.958010(14)
N2_18 N 0.1488(6) 0.7600(4) 0.97617(10)
N3_18 N 0.0059(6) 0.7659(4) 0.83855(9)
N6_18 N 0.2273(6) 0.9433(4) 0.94069(9)
O3_18 O 0.1183(4) 0.8690(3) 0.97231(7)
O4_18 O 0.1217(6) 0.8025(4) 0.93338(8)
O7_18 O 0.2559(4) 0.8294(3) 0.94307(7)
O8_18 O 0.2555(4) 0.8955(3) 0.98272(7)
H8_17 H 0.9961 0.6003 0.0659
H8_18 H 0.6042 0.0039 0.0659
loop_
_geom_bond_atom_site_label_1
_geom_bond_atom_site_label_2
_geom_bond_site_symmetry_1
_geom_bond_site_symmetry_2
C28 H22 1_555 1_555
Co2 N4 1_555 1_555
N4 C28 1_555 1_555
N9 Co2 1_555 1_555
O9 Co2 1_555 1_555
O10 Co2 1_555 1_555
O11 Co2 1_555 1_555
O12 Co2 1_555 1_555
C1 H1 1_555 1_555
H2 C1 1_555 1_555
H3 C1 1_555 1_555
C2 C1 1_555 1_555
C3 C2 1_555 1_555
H4 C3 1_555 1_555
C4 C3 1_555 1_555
C5 C4 1_555 1_555
C6 C5 1_555 1_555
H5 C6 1_555 1_555
C7 C6 1_555 1_555
H6 C7 1_555 1_555
C8 C7 1_555 1_555
C9 C8 1_555 1_555
H7 C9 1_555 1_555
C10 C5 1_555 1_555
C57 C56 1_555 1_555
H44 C57 1_555 1_555
C58 C57 1_555 1_555
H45 C58 1_555 1_555
C59 C58 1_555 1_555
C60 C59 1_555 1_555
H46 C60 1_555 1_555
C61 C56 1_555 1_555
H47 C61 1_555 1_555
C62 H48 1_555 1_555
C63 C64 1_555 1_555
C64 H49 1_555 1_555
C65 C64 1_555 1_555
H50 C65 1_555 1_555
C66 C65 1_555 1_555
H51 C66 1_555 1_555
C67 C66 1_555 1_555
H52 C67 1_555 1_555
C68 C63 1_555 1_555
N1 C8 1_555 1_555
N7 C59 1_555 1_555
N8 C62 1_555 1_555
O1 C2 1_555 1_555
O2 C4 1_555 1_555
Co3 N8 1_555 1_555
Co4 O1 1_555 1_555
C9 C10 1_555 1_555
C60 C61 1_555 1_555
C62 N7 1_555 1_555
C63 N8 1_555 1_555
C67 C68 1_555 1_555
C68 N7 1_555 1_555
O2 Co4 1_555 1_555
C35 H27 1_555 1_555
H29 C35 1_555 1_555
C36 C35 1_555 1_555
C37 C36 1_555 1_555
H30 C37 1_555 1_555
C38 C37 1_555 1_555
C39 C38 1_555 1_555
C40 C39 1_555 1_555
H31 C40 1_555 1_555
C41 C40 1_555 1_555
H32 C41 1_555 1_555
C42 C41 1_555 1_555
C43 C42 1_555 1_555
H33 C43 1_555 1_555
C44 C39 1_555 1_555
H34 C44 1_555 1_555
C46 C47 1_555 1_555
C48 C47 1_555 1_555
H37 C48 1_555 1_555
C49 C48 1_555 1_555
H38 C49 1_555 1_555
C50 C49 1_555 1_555
H39 C50 1_555 1_555
C51 C46 1_555 1_555
N5 C42 1_555 1_555
O5 C36 1_555 1_555
O6 C38 1_555 1_555
Co5 O5 1_555 1_555
C43 C44 1_555 1_555
C50 C51 1_555 1_555
C51 N5 1_555 1_555
O6 Co5 1_555 1_555
C35_2 H27_2 1_555 1_555
H29_2 C35_2 1_555 1_555
C36_2 C35_2 1_555 1_555
C37_2 C36_2 1_555 1_555
H30_2 C37_2 1_555 1_555
C38_2 C37_2 1_555 1_555
C39_2 C38_2 1_555 1_555
C40_2 C39_2 1_555 1_555
H31_2 C40_2 1_555 1_555
C41_2 C40_2 1_555 1_555
H32_2 C41_2 1_555 1_555
C42_2 C41_2 1_555 1_555
C43_2 C42_2 1_555 1_555
H33_2 C43_2 1_555 1_555
C44_2 C39_2 1_555 1_555
H34_2 C44_2 1_555 1_555
C46_2 C47_2 1_555 1_555
C48_2 C47_2 1_555 1_555
H37_2 C48_2 1_555 1_555
C49_2 C48_2 1_555 1_555
H38_2 C49_2 1_555 1_555
C50_2 C49_2 1_555 1_555
H39_2 C50_2 1_555 1_555
C51_2 C46_2 1_555 1_555
N5_2 C42_2 1_555 1_555
O5_2 C36_2 1_555 1_555
O6_2 C38_2 1_555 1_555
Co5_2 O5_2 1_555 1_555
C43_2 C44_2 1_555 1_555
C50_2 C51_2 1_555 1_555
C51_2 N5_2 1_555 1_555
O6_2 Co5_2 1_555 1_555
C12 C13 1_555 1_555
C13 H10 1_555 1_555
C14 C13 1_555 1_555
H11 C14 1_555 1_555
C15 C14 1_555 1_555
H12 C15 1_555 1_555
C16 C15 1_555 1_555
H13 C16 1_555 1_555
C17 C12 1_555 1_555
C18 H14 1_555 1_555
H15_2 C18 1_555 1_555
H16 C18 1_555 1_555
C19 C18 1_555 1_555
C20 C19 1_555 1_555
H17 C20 1_555 1_555
C21 C20 1_555 1_555
C22 C21 1_555 1_555
C23 C22 1_555 1_555
H18 C23 1_555 1_555
C24 C23 1_555 1_555
H19 C24 1_555 1_555
C25 C24 1_555 1_555
C26 C25 1_555 1_555
H20 C26 1_555 1_555
C27 C22 1_555 1_555
H21 C27 1_555 1_555
C28_2 H22_2 1_555 1_555
C29 C30 1_555 1_555
C30 H23_2 1_555 1_555
C31 C30 1_555 1_555
H24 C31 1_555 1_555
C32 C31 1_555 1_555
H25 C32 1_555 1_555
C33 C32 1_555 1_555
H26 C33 1_555 1_555
C34 C29 1_555 1_555
C45 H35 1_555 1_555
C52 H40 1_555 1_555
H41 C52 1_555 1_555
H42 C52 1_555 1_555
C53 C52 1_555 1_555
C54 C53 1_555 1_555
H43 C54 1_555 1_555
C55 C54 1_555 1_555
Co1 N2 1_555 1_555
Co5 N4_2 1_555 1_555
N2 C11 1_555 1_555
N3 C25 1_555 1_555
N4_2 C28_2 1_555 1_555
N6 C45 1_555 1_555
O3 C19 1_555 1_555
O4 C21 1_555 1_555
O7 C53 1_555 1_555
O8 C55 1_555 1_555
N9_2 Co5 1_555 1_555
O9_2 Co5 1_555 1_555
O10_2 Co5 1_555 1_555
C16 C17 1_555 1_555
C17 N2 1_555 1_555
C26 C27 1_555 1_555
C28_2 N3 1_555 1_555
C29 N4_2 1_555 1_555
C33 C34 1_555 1_555
C34 N3 1_555 1_555
Co1 N6 1_555 1_555
Co1 O3 1_555 1_555
Co1 O4 1_555 1_555
Co1 O7 1_555 1_555
Co1 O8 1_555 1_555
C1_2 H1_2 1_555 1_555
H2_2 C1_2 1_555 1_555
H3_2 C1_2 1_555 1_555
C2_2 C1_2 1_555 1_555
C3_2 C2_2 1_555 1_555
H4_2 C3_2 1_555 1_555
C4_2 C3_2 1_555 1_555
C5_2 C4_2 1_555 1_555
C6_2 C5_2 1_555 1_555
H5_2 C6_2 1_555 1_555
C7_2 C6_2 1_555 1_555
H6_2 C7_2 1_555 1_555
C8_2 C7_2 1_555 1_555
C9_2 C8_2 1_555 1_555
H7_2 C9_2 1_555 1_555
C10_2 C5_2 1_555 1_555
H8 C10_2 1_555 1_555
C57_2 C56_2 1_555 1_555
H44_2 C57_2 1_555 1_555
C58_2 C57_2 1_555 1_555
H45_2 C58_2 1_555 1_555
C59_2 C58_2 1_555 1_555
C60_2 C59_2 1_555 1_555
H46_2 C60_2 1_555 1_555
C61_2 C56_2 1_555 1_555
H47_2 C61_2 1_555 1_555
C62_2 H48_2 1_555 1_555
C63_2 C64_2 1_555 1_555
C64_2 H49_2 1_555 1_555
C65_2 C64_2 1_555 1_555
H50_2 C65_2 1_555 1_555
C66_2 C65_2 1_555 1_555
H51_2 C66_2 1_555 1_555
C67_2 C66_2 1_555 1_555
H52_2 C67_2 1_555 1_555
C68_2 C63_2 1_555 1_555
N1_2 C8_2 1_555 1_555
N7_2 C59_2 1_555 1_555
N8_2 C62_2 1_555 1_555
O1_2 C2_2 1_555 1_555
O2_2 C4_2 1_555 1_555
Co4 N8_2 1_555 1_555
Co4_2 O1_2 1_555 1_555
C9_2 C10_2 1_555 1_555
C60_2 C61_2 1_555 1_555
C62_2 N7_2 1_555 1_555
C63_2 N8_2 1_555 1_555
C67_2 C68_2 1_555 1_555
C68_2 N7_2 1_555 1_555
O2_2 Co4_2 1_555 1_555
C12_2 C13_2 1_555 1_555
C13_2 H10_2 1_555 1_555
C14_2 C13_2 1_555 1_555
H11_2 C14_2 1_555 1_555
C15_2 C14_2 1_555 1_555
H12_2 C15_2 1_555 1_555
C16_2 C15_2 1_555 1_555
H13_2 C16_2 1_555 1_555
C17_2 C12_2 1_555 1_555
C18_2 H14_2 1_555 1_555
H16_2 C18_2 1_555 1_555
C19_2 C18_2 1_555 1_555
C20_2 C19_2 1_555 1_555
H17_2 C20_2 1_555 1_555
C21_2 C20_2 1_555 1_555
C22_2 C21_2 1_555 1_555
C23_2 C22_2 1_555 1_555
H18_2 C23_2 1_555 1_555
C24_2 C23_2 1_555 1_555
H19_2 C24_2 1_555 1_555
C25_2 C24_2 1_555 1_555
C26_2 C25_2 1_555 1_555
H20_2 C26_2 1_555 1_555
C27_2 C22_2 1_555 1_555
H21_2 C27_2 1_555 1_555
C29_2 C30_2 1_555 1_555
C31_2 C30_2 1_555 1_555
H24_2 C31_2 1_555 1_555
C32_2 C31_2 1_555 1_555
H25_2 C32_2 1_555 1_555
C33_2 C32_2 1_555 1_555
H26_2 C33_2 1_555 1_555
C34_2 C29_2 1_555 1_555
C35_3 H27_3 1_555 1_555
H28_2 C35_3 1_555 1_555
H29_3 C35_3 1_555 1_555
C36_3 C35_3 1_555 1_555
C37_3 C36_3 1_555 1_555
H30_3 C37_3 1_555 1_555
C38_3 C37_3 1_555 1_555
C39_3 C38_3 1_555 1_555
C40_3 C39_3 1_555 1_555
H31_3 C40_3 1_555 1_555
C41_3 C40_3 1_555 1_555
H32_3 C41_3 1_555 1_555
C42_3 C41_3 1_555 1_555
C43_3 C42_3 1_555 1_555
H33_3 C43_3 1_555 1_555
C44_3 C39_3 1_555 1_555
H34_3 C44_3 1_555 1_555
C45_2 H35_2 1_555 1_555
C46_3 C47_3 1_555 1_555
C47_3 H36_2 1_555 1_555
C48_3 C47_3 1_555 1_555
H37_3 C48_3 1_555 1_555
C49_3 C48_3 1_555 1_555
H38_3 C49_3 1_555 1_555
C50_3 C49_3 1_555 1_555
H39_3 C50_3 1_555 1_555
C51_3 C46_3 1_555 1_555
C52_2 H40_2 1_555 1_555
H41_2 C52_2 1_555 1_555
H42_2 C52_2 1_555 1_555
C53_2 C52_2 1_555 1_555
C54_2 C53_2 1_555 1_555
H43_2 C54_2 1_555 1_555
C55_2 C54_2 1_555 1_555
Co1_2 N2_2 1_555 1_555
N2_2 C11_2 1_555 1_555
N3_2 C25_2 1_555 1_555
N5_3 C42_3 1_555 1_555
N6_2 C45_2 1_555 1_555
O3_2 C19_2 1_555 1_555
O4_2 C21_2 1_555 1_555
O11 C36_3 1_555 1_555
O12 C38_3 1_555 1_555
O7_2 C53_2 1_555 1_555
O8_2 C55_2 1_555 1_555
C16_2 C17_2 1_555 1_555
C17_2 N2_2 1_555 1_555
C26_2 C27_2 1_555 1_555
C33_2 C34_2 1_555 1_555
C34_2 N3_2 1_555 1_555
C43_3 C44_3 1_555 1_555
C45_2 N5_3 1_555 1_555
C46_3 N6_2 1_555 1_555
C50_3 C51_3 1_555 1_555
C51_3 N5_3 1_555 1_555
Co1_2 N6_2 1_555 1_555
Co1_2 O3_2 1_555 1_555
Co1_2 O4_2 1_555 1_555
Co1_2 O7_2 1_555 1_555
Co1_2 O8_2 1_555 1_555
C1_3 H1_3 1_555 1_555
H2_3 C1_3 1_555 1_555
H3_3 C1_3 1_555 1_555
C2_3 C1_3 1_555 1_555
C3_3 C2_3 1_555 1_555
H4_3 C3_3 1_555 1_555
C4_3 C3_3 1_555 1_555
C5_3 C4_3 1_555 1_555
C6_3 C5_3 1_555 1_555
H5_3 C6_3 1_555 1_555
C7_3 C6_3 1_555 1_555
H6_3 C7_3 1_555 1_555
C8_3 C7_3 1_555 1_555
C9_3 C8_3 1_555 1_555
H7_3 C9_3 1_555 1_555
C10_3 C5_3 1_555 1_555
C57_3 C56_3 1_555 1_555
H44_3 C57_3 1_555 1_555
C58_3 C57_3 1_555 1_555
H45_3 C58_3 1_555 1_555
C59_3 C58_3 1_555 1_555
C60_3 C59_3 1_555 1_555
H46_3 C60_3 1_555 1_555
C61_3 C56_3 1_555 1_555
H47_3 C61_3 1_555 1_555
C62_3 H48_3 1_555 1_555
C63_3 C64_3 1_555 1_555
C64_3 H49_3 1_555 1_555
C65_3 C64_3 1_555 1_555
H50_3 C65_3 1_555 1_555
C66_3 C65_3 1_555 1_555
H51_3 C66_3 1_555 1_555
C67_3 C66_3 1_555 1_555
H52_3 C67_3 1_555 1_555
C68_3 C63_3 1_555 1_555
N1_3 C8_3 1_555 1_555
N7_3 C59_3 1_555 1_555
N8_3 C62_3 1_555 1_555
O1_3 C2_3 1_555 1_555
O2_3 C4_3 1_555 1_555
Co4_2 N8_3 1_555 1_555
Co3 O1_3 1_555 1_555
C9_3 C10_3 1_555 1_555
C60_3 C61_3 1_555 1_555
C62_3 N7_3 1_555 1_555
C63_3 N8_3 1_555 1_555
C67_3 C68_3 1_555 1_555
C68_3 N7_3 1_555 1_555
O2_3 Co3 1_555 1_555
C28_3 H22_3 1_555 1_555
Co5_2 N4_3 1_555 1_555
N4_3 C28_3 1_555 1_555
N9_3 Co5_2 1_555 1_555
O9_3 Co5_2 1_555 1_555
O10_3 Co5_2 1_555 1_555
C1_4 H1_4 1_555 1_555
H2_4 C1_4 1_555 1_555
H3_4 C1_4 1_555 1_555
C2_4 C1_4 1_555 1_555
C3_4 C2_4 1_555 1_555
H4_4 C3_4 1_555 1_555
C4_4 C3_4 1_555 1_555
C5_4 C4_4 1_555 1_555
C6_4 C5_4 1_555 1_555
H5_4 C6_4 1_555 1_555
C7_4 C6_4 1_555 1_555
H6_4 C7_4 1_555 1_555
C8_4 C7_4 1_555 1_555
C9_4 C8_4 1_555 1_555
H7_4 C9_4 1_555 1_555
C10_4 C5_4 1_555 1_555
H8_2 C10_4 1_555 1_555
C11_3 H9_4 1_555 1_555
C12_3 C13_3 1_555 1_555
C13_3 H10_3 1_555 1_555
C14_3 C13_3 1_555 1_555
H11_3 C14_3 1_555 1_555
C15_3 C14_3 1_555 1_555
H12_3 C15_3 1_555 1_555
C16_3 C15_3 1_555 1_555
H13_3 C16_3 1_555 1_555
C17_3 C12_3 1_555 1_555
C18_3 H14_3 1_555 1_555
H15_4 C18_3 1_555 1_555
H16_3 C18_3 1_555 1_555
C19_3 C18_3 1_555 1_555
C20_3 C19_3 1_555 1_555
H17_3 C20_3 1_555 1_555
C21_3 C20_3 1_555 1_555
C22_3 C21_3 1_555 1_555
C23_3 C22_3 1_555 1_555
H18_3 C23_3 1_555 1_555
C24_3 C23_3 1_555 1_555
H19_3 C24_3 1_555 1_555
C25_3 C24_3 1_555 1_555
C26_3 C25_3 1_555 1_555
H20_3 C26_3 1_555 1_555
C27_3 C22_3 1_555 1_555
H21_3 C27_3 1_555 1_555
C28_4 H22_4 1_555 1_555
C29_3 C30_3 1_555 1_555
C30_3 H23_4 1_555 1_555
C31_3 C30_3 1_555 1_555
H24_3 C31_3 1_555 1_555
C32_3 C31_3 1_555 1_555
H25_3 C32_3 1_555 1_555
C33_3 C32_3 1_555 1_555
H26_3 C33_3 1_555 1_555
C34_3 C29_3 1_555 1_555
C35_4 H27_4 1_555 1_555
H28_3 C35_4 1_555 1_555
H29_4 C35_4 1_555 1_555
C36_4 C35_4 1_555 1_555
C37_4 C36_4 1_555 1_555
H30_4 C37_4 1_555 1_555
C38_4 C37_4 1_555 1_555
C39_4 C38_4 1_555 1_555
C40_4 C39_4 1_555 1_555
H31_4 C40_4 1_555 1_555
C41_4 C40_4 1_555 1_555
H32_4 C41_4 1_555 1_555
C42_4 C41_4 1_555 1_555
C43_4 C42_4 1_555 1_555
H33_4 C43_4 1_555 1_555
C44_4 C39_4 1_555 1_555
H34_4 C44_4 1_555 1_555
C45_3 H35_3 1_555 1_555
C46_4 C47_4 1_555 1_555
C47_4 H36_3 1_555 1_555
C48_4 C47_4 1_555 1_555
H37_4 C48_4 1_555 1_555
C49_4 C48_4 1_555 1_555
H38_4 C49_4 1_555 1_555
C50_4 C49_4 1_555 1_555
H39_4 C50_4 1_555 1_555
C51_4 C46_4 1_555 1_555
C52_3 H40_3 1_555 1_555
H41_3 C52_3 1_555 1_555
H42_3 C52_3 1_555 1_555
C53_3 C52_3 1_555 1_555
C54_3 C53_3 1_555 1_555
H43_3 C54_3 1_555 1_555
C55_3 C54_3 1_555 1_555
C56_4 C55_3 1_555 1_555
C57_4 C56_4 1_555 1_555
H44_4 C57_4 1_555 1_555
C58_4 C57_4 1_555 1_555
H45_4 C58_4 1_555 1_555
C59_4 C58_4 1_555 1_555
C60_4 C59_4 1_555 1_555
H46_4 C60_4 1_555 1_555
C61_4 C56_4 1_555 1_555
H47_4 C61_4 1_555 1_555
C62_4 H48_4 1_555 1_555
C63_4 C64_4 1_555 1_555
C64_4 H49_4 1_555 1_555
C65_4 C64_4 1_555 1_555
H50_4 C65_4 1_555 1_555
C66_4 C65_4 1_555 1_555
H51_4 C66_4 1_555 1_555
C67_4 C66_4 1_555 1_555
H52_4 C67_4 1_555 1_555
C68_4 C63_4 1_555 1_555
Co1_3 N2_3 1_555 1_555
Co2_2 N4_4 1_555 1_555
N1_4 C8_4 1_555 1_555
N2_3 C11_3 1_555 1_555
N3_3 C25_3 1_555 1_555
N4_4 C28_4 1_555 1_555
N5_4 C42_4 1_555 1_555
N6_3 C45_3 1_555 1_555
N7_4 C59_4 1_555 1_555
N9 C62_4 1_555 1_555
O9_2 C2_4 1_555 1_555
O10_2 C4_4 1_555 1_555
O3_3 C19_3 1_555 1_555
O4_3 C21_3 1_555 1_555
O5_3 C36_4 1_555 1_555
O6_3 C38_4 1_555 1_555
O7_3 C53_3 1_555 1_555
O8_3 C55_3 1_555 1_555
Co5_3 O5_3 1_555 1_555
N9_4 Co2_2 1_555 1_555
O9_4 Co2_2 1_555 1_555
O10_4 Co2_2 1_555 1_555
O11_2 Co2_2 1_555 1_555
O12_2 Co2_2 1_555 1_555
C9_4 C10_4 1_555 1_555
C11_3 N1_4 1_555 1_555
C12_3 N1_4 1_555 1_555
C16_3 C17_3 1_555 1_555
C17_3 N2_3 1_555 1_555
C26_3 C27_3 1_555 1_555
C28_4 N3_3 1_555 1_555
C29_3 N4_4 1_555 1_555
C33_3 C34_3 1_555 1_555
C34_3 N3_3 1_555 1_555
C43_4 C44_4 1_555 1_555
C45_3 N5_4 1_555 1_555
C46_4 N6_3 1_555 1_555
C50_4 C51_4 1_555 1_555
C51_4 N5_4 1_555 1_555
C60_4 C61_4 1_555 1_555
C62_4 N7_4 1_555 1_555
C63_4 N9 1_555 1_555
C67_4 C68_4 1_555 1_555
C68_4 N7_4 1_555 1_555
Co1_3 N6_3 1_555 1_555
Co1_3 O3_3 1_555 1_555
Co1_3 O4_3 1_555 1_555
Co1_3 O7_3 1_555 1_555
Co1_3 O8_3 1_555 1_555
O6_3 Co5_3 1_555 1_555
C18_4 H14_4 1_555 1_555
H15_5 C18_4 1_555 1_555
H16_4 C18_4 1_555 1_555
C19_4 C18_4 1_555 1_555
C20_4 C19_4 1_555 1_555
H17_4 C20_4 1_555 1_555
C21_4 C20_4 1_555 1_555
C22_4 C21_4 1_555 1_555
C23_4 C22_4 1_555 1_555
H18_4 C23_4 1_555 1_555
C24_4 C23_4 1_555 1_555
H19_4 C24_4 1_555 1_555
C25_4 C24_4 1_555 1_555
C26_4 C25_4 1_555 1_555
H20_4 C26_4 1_555 1_555
C27_4 C22_4 1_555 1_555
H21_4 C27_4 1_555 1_555
C28_5 H22_5 1_555 1_555
C29_4 C30_4 1_555 1_555
C30_4 H23_5 1_555 1_555
C31_4 C30_4 1_555 1_555
H24_4 C31_4 1_555 1_555
C32_4 C31_4 1_555 1_555
H25_4 C32_4 1_555 1_555
C33_4 C32_4 1_555 1_555
H26_4 C33_4 1_555 1_555
C34_4 C29_4 1_555 1_555
C35_5 H27_5 1_555 1_555
H28_4 C35_5 1_555 1_555
H29_5 C35_5 1_555 1_555
C36_5 C35_5 1_555 1_555
C37_5 C36_5 1_555 1_555
H30_5 C37_5 1_555 1_555
C38_5 C37_5 1_555 1_555
C39_5 C38_5 1_555 1_555
C40_5 C39_5 1_555 1_555
H31_5 C40_5 1_555 1_555
C41_5 C40_5 1_555 1_555
H32_5 C41_5 1_555 1_555
C42_5 C41_5 1_555 1_555
C43_5 C42_5 1_555 1_555
H33_5 C43_5 1_555 1_555
C44_5 C39_5 1_555 1_555
H34_5 C44_5 1_555 1_555
C45_4 H35_4 1_555 1_555
C46_5 C47_5 1_555 1_555
C47_5 H36_4 1_555 1_555
C48_5 C47_5 1_555 1_555
H37_5 C48_5 1_555 1_555
C49_5 C48_5 1_555 1_555
H38_5 C49_5 1_555 1_555
C50_5 C49_5 1_555 1_555
H39_5 C50_5 1_555 1_555
C51_5 C46_5 1_555 1_555
Co5_3 N4_5 1_555 1_555
N3_4 C25_4 1_555 1_555
N4_5 C28_5 1_555 1_555
N5_5 C42_5 1_555 1_555
N6_4 C45_4 1_555 1_555
O3_4 C19_4 1_555 1_555
O4_4 C21_4 1_555 1_555
O5_4 C36_5 1_555 1_555
O6_4 C38_5 1_555 1_555
Co5_4 O5_4 1_555 1_555
N9_5 Co5_3 1_555 1_555
O9_5 Co5_3 1_555 1_555
O10_5 Co5_3 1_555 1_555
C26_4 C27_4 1_555 1_555
C28_5 N3_4 1_555 1_555
C29_4 N4_5 1_555 1_555
C33_4 C34_4 1_555 1_555
C34_4 N3_4 1_555 1_555
C43_5 C44_5 1_555 1_555
C45_4 N5_5 1_555 1_555
C46_5 N6_4 1_555 1_555
C50_5 C51_5 1_555 1_555
C51_5 N5_5 1_555 1_555
O6_4 Co5_4 1_555 1_555
C1_5 H1_5 1_555 1_555
H2_5 C1_5 1_555 1_555
H3_5 C1_5 1_555 1_555
C2_5 C1_5 1_555 1_555
C3_5 C2_5 1_555 1_555
H4_5 C3_5 1_555 1_555
C4_5 C3_5 1_555 1_555
C5_5 C4_5 1_555 1_555
C6_5 C5_5 1_555 1_555
H5_5 C6_5 1_555 1_555
C7_5 C6_5 1_555 1_555
H6_5 C7_5 1_555 1_555
C8_5 C7_5 1_555 1_555
C9_5 C8_5 1_555 1_555
H7_5 C9_5 1_555 1_555
C10_5 C5_5 1_555 1_555
H8_3 C10_5 1_555 1_555
C11_4 H9_5 1_555 1_555
C12_4 C13_4 1_555 1_555
C13_4 H10_4 1_555 1_555
C14_4 C13_4 1_555 1_555
H11_4 C14_4 1_555 1_555
C15_4 C14_4 1_555 1_555
H12_4 C15_4 1_555 1_555
C16_4 C15_4 1_555 1_555
H13_4 C16_4 1_555 1_555
C17_4 C12_4 1_555 1_555
C52_4 H40_4 1_555 1_555
H41_4 C52_4 1_555 1_555
H42_4 C52_4 1_555 1_555
C53_4 C52_4 1_555 1_555
C54_4 C53_4 1_555 1_555
H43_4 C54_4 1_555 1_555
C55_4 C54_4 1_555 1_555
C56_5 C55_4 1_555 1_555
C57_5 C56_5 1_555 1_555
H44_5 C57_5 1_555 1_555
C58_5 C57_5 1_555 1_555
H45_5 C58_5 1_555 1_555
C59_5 C58_5 1_555 1_555
C60_5 C59_5 1_555 1_555
H46_5 C60_5 1_555 1_555
C61_5 C56_5 1_555 1_555
C62_5 H48_5 1_555 1_555
C63_5 C64_5 1_555 1_555
C64_5 H49_5 1_555 1_555
C65_5 C64_5 1_555 1_555
H50_5 C65_5 1_555 1_555
C66_5 C65_5 1_555 1_555
H51_5 C66_5 1_555 1_555
C67_5 C66_5 1_555 1_555
H52_5 C67_5 1_555 1_555
C68_5 C63_5 1_555 1_555
Co1_4 N2_4 1_555 1_555
N1_5 C8_5 1_555 1_555
N2_4 C11_4 1_555 1_555
N7_5 C59_5 1_555 1_555
N9_2 C62_5 1_555 1_555
O9_3 C2_5 1_555 1_555
O10_3 C4_5 1_555 1_555
O7_4 C53_4 1_555 1_555
O8_4 C55_4 1_555 1_555
C9_5 C10_5 1_555 1_555
C11_4 N1_5 1_555 1_555
C12_4 N1_5 1_555 1_555
C16_4 C17_4 1_555 1_555
C17_4 N2_4 1_555 1_555
C60_5 C61_5 1_555 1_555
C62_5 N7_5 1_555 1_555
C63_5 N9_2 1_555 1_555
C67_5 C68_5 1_555 1_555
C68_5 N7_5 1_555 1_555
Co1_4 O7_4 1_555 1_555
Co1_4 O8_4 1_555 1_555
C1_6 H1_6 1_555 1_555
H2_6 C1_6 1_555 1_555
H3_6 C1_6 1_555 1_555
C2_6 C1_6 1_555 1_555
C3_6 C2_6 1_555 1_555
H4_6 C3_6 1_555 1_555
C4_6 C3_6 1_555 1_555
C5_6 C4_6 1_555 1_555
C6_6 C5_6 1_555 1_555
H5_6 C6_6 1_555 1_555
C7_6 C6_6 1_555 1_555
H6_6 C7_6 1_555 1_555
C8_6 C7_6 1_555 1_555
C9_6 C8_6 1_555 1_555
H7_6 C9_6 1_555 1_555
C10_6 C5_6 1_555 1_555
H8_4 C10_6 1_555 1_555
C11_5 H9_6 1_555 1_555
C12_5 C13_5 1_555 1_555
C13_5 H10_5 1_555 1_555
C14_5 C13_5 1_555 1_555
H11_5 C14_5 1_555 1_555
C15_5 C14_5 1_555 1_555
H12_5 C15_5 1_555 1_555
C16_5 C15_5 1_555 1_555
H13_5 C16_5 1_555 1_555
C17_5 C12_5 1_555 1_555
C52_5 H40_5 1_555 1_555
H41_5 C52_5 1_555 1_555
H42_5 C52_5 1_555 1_555
C53_5 C52_5 1_555 1_555
C54_5 C53_5 1_555 1_555
H43_5 C54_5 1_555 1_555
C55_5 C54_5 1_555 1_555
C56_6 C55_5 1_555 1_555
C57_6 C56_6 1_555 1_555
H44_6 C57_6 1_555 1_555
C58_6 C57_6 1_555 1_555
H45_6 C58_6 1_555 1_555
C59_6 C58_6 1_555 1_555
C60_6 C59_6 1_555 1_555
H46_6 C60_6 1_555 1_555
C61_6 C56_6 1_555 1_555
C62_6 H48_6 1_555 1_555
C63_6 C64_6 1_555 1_555
C64_6 H49_6 1_555 1_555
C65_6 C64_6 1_555 1_555
H50_6 C65_6 1_555 1_555
C66_6 C65_6 1_555 1_555
H51_6 C66_6 1_555 1_555
C67_6 C66_6 1_555 1_555
H52_6 C67_6 1_555 1_555
C68_6 C63_6 1_555 1_555
Co1_5 N2_5 1_555 1_555
N1_6 C8_6 1_555 1_555
N2_5 C11_5 1_555 1_555
N7_6 C59_6 1_555 1_555
N9_3 C62_6 1_555 1_555
O9 C2_6 1_555 1_555
O10 C4_6 1_555 1_555
O7_5 C53_5 1_555 1_555
O8_5 C55_5 1_555 1_555
C9_6 C10_6 1_555 1_555
C11_5 N1_6 1_555 1_555
C12_5 N1_6 1_555 1_555
C16_5 C17_5 1_555 1_555
C17_5 N2_5 1_555 1_555
C60_6 C61_6 1_555 1_555
C62_6 N7_6 1_555 1_555
C63_6 N9_3 1_555 1_555
C67_6 C68_6 1_555 1_555
C68_6 N7_6 1_555 1_555
Co1_5 O7_5 1_555 1_555
Co1_5 O8_5 1_555 1_555
C18_5 H14_5 1_555 1_555
H15_6 C18_5 1_555 1_555
H16_5 C18_5 1_555 1_555
C19_5 C18_5 1_555 1_555
C20_5 C19_5 1_555 1_555
H17_5 C20_5 1_555 1_555
C21_5 C20_5 1_555 1_555
C22_5 C21_5 1_555 1_555
C23_5 C22_5 1_555 1_555
H18_5 C23_5 1_555 1_555
C24_5 C23_5 1_555 1_555
H19_5 C24_5 1_555 1_555
C25_5 C24_5 1_555 1_555
C26_5 C25_5 1_555 1_555
H20_5 C26_5 1_555 1_555
C27_5 C22_5 1_555 1_555
H21_5 C27_5 1_555 1_555
C28_6 H22_6 1_555 1_555
C29_5 C30_5 1_555 1_555
C30_5 H23_6 1_555 1_555
C31_5 C30_5 1_555 1_555
H24_5 C31_5 1_555 1_555
C32_5 C31_5 1_555 1_555
H25_5 C32_5 1_555 1_555
C33_5 C32_5 1_555 1_555
H26_5 C33_5 1_555 1_555
C34_5 C29_5 1_555 1_555
C35_6 H27_6 1_555 1_555
H28_5 C35_6 1_555 1_555
H29_6 C35_6 1_555 1_555
C36_6 C35_6 1_555 1_555
C37_6 C36_6 1_555 1_555
H30_6 C37_6 1_555 1_555
C38_6 C37_6 1_555 1_555
C39_6 C38_6 1_555 1_555
C40_6 C39_6 1_555 1_555
H31_6 C40_6 1_555 1_555
C41_6 C40_6 1_555 1_555
H32_6 C41_6 1_555 1_555
C42_6 C41_6 1_555 1_555
C43_6 C42_6 1_555 1_555
H33_6 C43_6 1_555 1_555
C44_6 C39_6 1_555 1_555
H34_6 C44_6 1_555 1_555
C45_5 H35_5 1_555 1_555
C46_6 C47_6 1_555 1_555
C47_6 H36_5 1_555 1_555
C48_6 C47_6 1_555 1_555
H37_6 C48_6 1_555 1_555
C49_6 C48_6 1_555 1_555
H38_6 C49_6 1_555 1_555
C50_6 C49_6 1_555 1_555
H39_6 C50_6 1_555 1_555
C51_6 C46_6 1_555 1_555
Co5_4 N4_6 1_555 1_555
N3_5 C25_5 1_555 1_555
N4_6 C28_6 1_555 1_555
N5_6 C42_6 1_555 1_555
N6_5 C45_5 1_555 1_555
O3_5 C19_5 1_555 1_555
O4_5 C21_5 1_555 1_555
O11_2 C36_6 1_555 1_555
O12_2 C38_6 1_555 1_555
N9_6 Co5_4 1_555 1_555
O9_6 Co5_4 1_555 1_555
O10_6 Co5_4 1_555 1_555
C26_5 C27_5 1_555 1_555
C28_6 N3_5 1_555 1_555
C29_5 N4_6 1_555 1_555
C33_5 C34_5 1_555 1_555
C34_5 N3_5 1_555 1_555
C43_6 C44_6 1_555 1_555
C45_5 N5_6 1_555 1_555
C46_6 N6_5 1_555 1_555
C50_6 C51_6 1_555 1_555
C51_6 N5_6 1_555 1_555
C3_7 C2_7 1_555 1_555
C4_7 C3_7 1_555 1_555
C5_7 C4_7 1_555 1_555
H7_7 C9_7 1_555 1_555
C10_7 C5_7 1_555 1_555
H8_5 C10_7 1_555 1_555
C12_6 C13_6 1_555 1_555
C13_6 H10_6 1_555 1_555
C14_6 C13_6 1_555 1_555
H11_6 C14_6 1_555 1_555
C15_6 C14_6 1_555 1_555
H12_6 C15_6 1_555 1_555
C16_6 C15_6 1_555 1_555
O9_5 C2_7 1_555 1_555
O10_5 C4_7 1_555 1_555
C9_7 C10_7 1_555 1_555
H2_7 C1_7 1_555 1_555
H3_7 C1_7 1_555 1_555
H5_7 C6_7 1_555 1_555
C7_7 C6_7 1_555 1_555
H6_7 C7_7 1_555 1_555
C8_7 C7_7 1_555 1_555
C11_6 H9_7 1_555 1_555
C18_6 H14_6 1_555 1_555
H15_7 C18_6 1_555 1_555
H16_6 C18_6 1_555 1_555
C19_6 C18_6 1_555 1_555
C20_6 C19_6 1_555 1_555
H17_6 C20_6 1_555 1_555
C21_6 C20_6 1_555 1_555
C22_6 C21_6 1_555 1_555
C23_6 C22_6 1_555 1_555
H18_6 C23_6 1_555 1_555
C24_6 C23_6 1_555 1_555
H19_6 C24_6 1_555 1_555
C25_6 C24_6 1_555 1_555
C26_6 C25_6 1_555 1_555
H20_6 C26_6 1_555 1_555
C27_6 C22_6 1_555 1_555
H21_6 C27_6 1_555 1_555
C28_7 H22_7 1_555 1_555
C29_6 C30_6 1_555 1_555
C30_6 H23_7 1_555 1_555
C31_6 C30_6 1_555 1_555
H24_6 C31_6 1_555 1_555
C32_6 C31_6 1_555 1_555
H25_6 C32_6 1_555 1_555
C33_6 C32_6 1_555 1_555
H26_6 C33_6 1_555 1_555
C34_6 C29_6 1_555 1_555
C35_7 H27_7 1_555 1_555
H28_6 C35_7 1_555 1_555
H29_7 C35_7 1_555 1_555
C36_7 C35_7 1_555 1_555
C37_7 C36_7 1_555 1_555
H30_7 C37_7 1_555 1_555
C38_7 C37_7 1_555 1_555
C39_7 C38_7 1_555 1_555
C40_7 C39_7 1_555 1_555
H31_7 C40_7 1_555 1_555
C41_7 C40_7 1_555 1_555
H32_7 C41_7 1_555 1_555
C42_7 C41_7 1_555 1_555
C43_7 C42_7 1_555 1_555
H33_7 C43_7 1_555 1_555
C44_7 C39_7 1_555 1_555
C45_6 H35_6 1_555 1_555
C46_7 C47_7 1_555 1_555
C47_7 H36_6 1_555 1_555
C48_7 C47_7 1_555 1_555
H37_7 C48_7 1_555 1_555
C49_7 C48_7 1_555 1_555
H38_7 C49_7 1_555 1_555
C50_7 C49_7 1_555 1_555
H39_7 C50_7 1_555 1_555
C51_7 C46_7 1_555 1_555
H42_6 C52_6 1_555 1_555
C53_6 C52_6 1_555 1_555
C54_6 C53_6 1_555 1_555
C55_6 C54_6 1_555 1_555
C56_7 C55_6 1_555 1_555
H46_7 C60_7 1_555 1_555
C61_7 C56_7 1_555 1_555
H47_7 C61_7 1_555 1_555
C65_7 C64_7 1_555 1_555
H50_7 C65_7 1_555 1_555
C66_7 C65_7 1_555 1_555
H51_7 C66_7 1_555 1_555
C67_7 C66_7 1_555 1_555
H52_7 C67_7 1_555 1_555
Co1_6 N2_6 1_555 1_555
N1_7 C8_7 1_555 1_555
N2_6 C11_6 1_555 1_555
N3_6 C25_6 1_555 1_555
N4_7 C28_7 1_555 1_555
N5_7 C42_7 1_555 1_555
N6_6 C45_6 1_555 1_555
O3_6 C19_6 1_555 1_555
O4_6 C21_6 1_555 1_555
O5_5 C36_7 1_555 1_555
O6_5 C38_7 1_555 1_555
O7_6 C53_6 1_555 1_555
O8_6 C55_6 1_555 1_555
C11_6 N1_7 1_555 1_555
C17_6 N2_6 1_555 1_555
C26_6 C27_6 1_555 1_555
C28_7 N3_6 1_555 1_555
C29_6 N4_7 1_555 1_555
C33_6 C34_6 1_555 1_555
C34_6 N3_6 1_555 1_555
C43_7 C44_7 1_555 1_555
C45_6 N5_7 1_555 1_555
C46_7 N6_6 1_555 1_555
C50_7 C51_7 1_555 1_555
C51_7 N5_7 1_555 1_555
C60_7 C61_7 1_555 1_555
C67_7 C68_7 1_555 1_555
Co1_6 N6_6 1_555 1_555
Co1_6 O3_6 1_555 1_555
Co1_6 O4_6 1_555 1_555
Co1_6 O7_6 1_555 1_555
Co1_6 O8_6 1_555 1_555
H44_7 C57_7 1_555 1_555
C58_7 C57_7 1_555 1_555
H45_7 C58_7 1_555 1_555
C59_7 C58_7 1_555 1_555
C62_7 H48_7 1_555 1_555
N7_7 C59_7 1_555 1_555
N9_4 C62_7 1_555 1_555
C62_7 N7_7 1_555 1_555
C63_7 N9_4 1_555 1_555
H2_8 C1_8 1_555 1_555
H3_8 C1_8 1_555 1_555
H5_8 C6_8 1_555 1_555
C7_8 C6_8 1_555 1_555
H6_8 C7_8 1_555 1_555
C8_8 C7_8 1_555 1_555
C11_7 H9_8 1_555 1_555
C18_7 H14_7 1_555 1_555
H15_8 C18_7 1_555 1_555
H16_7 C18_7 1_555 1_555
C19_7 C18_7 1_555 1_555
C20_7 C19_7 1_555 1_555
H17_7 C20_7 1_555 1_555
C21_7 C20_7 1_555 1_555
C22_7 C21_7 1_555 1_555
C23_7 C22_7 1_555 1_555
H18_7 C23_7 1_555 1_555
C24_7 C23_7 1_555 1_555
H19_7 C24_7 1_555 1_555
C25_7 C24_7 1_555 1_555
C26_7 C25_7 1_555 1_555
H20_7 C26_7 1_555 1_555
C27_7 C22_7 1_555 1_555
H21_7 C27_7 1_555 1_555
C28_8 H22_8 1_555 1_555
C29_7 C30_7 1_555 1_555
C30_7 H23_8 1_555 1_555
C31_7 C30_7 1_555 1_555
H24_7 C31_7 1_555 1_555
C32_7 C31_7 1_555 1_555
H25_7 C32_7 1_555 1_555
C33_7 C32_7 1_555 1_555
H26_7 C33_7 1_555 1_555
C34_7 C29_7 1_555 1_555
C35_8 H27_8 1_555 1_555
H28_7 C35_8 1_555 1_555
H29_8 C35_8 1_555 1_555
C36_8 C35_8 1_555 1_555
C37_8 C36_8 1_555 1_555
H30_8 C37_8 1_555 1_555
C38_8 C37_8 1_555 1_555
C39_8 C38_8 1_555 1_555
C40_8 C39_8 1_555 1_555
H31_8 C40_8 1_555 1_555
C41_8 C40_8 1_555 1_555
H32_8 C41_8 1_555 1_555
C42_8 C41_8 1_555 1_555
C43_8 C42_8 1_555 1_555
H33_8 C43_8 1_555 1_555
C44_8 C39_8 1_555 1_555
H34_8 C44_8 1_555 1_555
C45_7 H35_7 1_555 1_555
C46_8 C47_8 1_555 1_555
C47_8 H36_7 1_555 1_555
C48_8 C47_8 1_555 1_555
H37_8 C48_8 1_555 1_555
C49_8 C48_8 1_555 1_555
H38_8 C49_8 1_555 1_555
C50_8 C49_8 1_555 1_555
H39_8 C50_8 1_555 1_555
C51_8 C46_8 1_555 1_555
C52_7 H40_7 1_555 1_555
H41_7 C52_7 1_555 1_555
H42_7 C52_7 1_555 1_555
C53_7 C52_7 1_555 1_555
C54_7 C53_7 1_555 1_555
H43_7 C54_7 1_555 1_555
C55_7 C54_7 1_555 1_555
C56_8 C55_7 1_555 1_555
C57_8 C56_8 1_555 1_555
H44_8 C57_8 1_555 1_555
C58_8 C57_8 1_555 1_555
H45_8 C58_8 1_555 1_555
C59_8 C58_8 1_555 1_555
C60_8 C59_8 1_555 1_555
H46_8 C60_8 1_555 1_555
C61_8 C56_8 1_555 1_555
H47_8 C61_8 1_555 1_555
C62_8 H48_8 1_555 1_555
C63_8 C64_8 1_555 1_555
C64_8 H49_8 1_555 1_555
C65_8 C64_8 1_555 1_555
H50_8 C65_8 1_555 1_555
C66_8 C65_8 1_555 1_555
H51_8 C66_8 1_555 1_555
C67_8 C66_8 1_555 1_555
H52_8 C67_8 1_555 1_555
C68_8 C63_8 1_555 1_555
Co1_7 N2_7 1_555 1_555
N1_8 C8_8 1_555 1_555
N2_7 C11_7 1_555 1_555
N3_7 C25_7 1_555 1_555
N4_8 C28_8 1_555 1_555
N5_8 C42_8 1_555 1_555
N6_7 C45_7 1_555 1_555
N7_8 C59_8 1_555 1_555
N9_5 C62_8 1_555 1_555
O3_7 C19_7 1_555 1_555
O4_7 C21_7 1_555 1_555
O5_6 C36_8 1_555 1_555
O6_6 C38_8 1_555 1_555
O7_7 C53_7 1_555 1_555
O8_7 C55_7 1_555 1_555
Co4_2 O5_6 1_555 1_555
C11_7 N1_8 1_555 1_555
C17_7 N2_7 1_555 1_555
C26_7 C27_7 1_555 1_555
C28_8 N3_7 1_555 1_555
C29_7 N4_8 1_555 1_555
C33_7 C34_7 1_555 1_555
C34_7 N3_7 1_555 1_555
C43_8 C44_8 1_555 1_555
C45_7 N5_8 1_555 1_555
C46_8 N6_7 1_555 1_555
C50_8 C51_8 1_555 1_555
C51_8 N5_8 1_555 1_555
C60_8 C61_8 1_555 1_555
C62_8 N7_8 1_555 1_555
C63_8 N9_5 1_555 1_555
C67_8 C68_8 1_555 1_555
C68_8 N7_8 1_555 1_555
Co1_7 N6_7 1_555 1_555
Co1_7 O3_7 1_555 1_555
Co1_7 O4_7 1_555 1_555
Co1_7 O7_7 1_555 1_555
Co1_7 O8_7 1_555 1_555
O6_6 Co4_2 1_555 1_555
C3_8 C2_8 1_555 1_555
C4_8 C3_8 1_555 1_555
C5_8 C4_8 1_555 1_555
H7_8 C9_8 1_555 1_555
C10_8 C5_8 1_555 1_555
H8_6 C10_8 1_555 1_555
C12_7 C13_7 1_555 1_555
C13_7 H10_7 1_555 1_555
C14_7 C13_7 1_555 1_555
H11_7 C14_7 1_555 1_555
C15_7 C14_7 1_555 1_555
H12_7 C15_7 1_555 1_555
C16_7 C15_7 1_555 1_555
O9_6 C2_8 1_555 1_555
O10_6 C4_8 1_555 1_555
C9_8 C10_8 1_555 1_555
H44_9 C57_9 1_555 1_555
C58_9 C57_9 1_555 1_555
H45_9 C58_9 1_555 1_555
C59_9 C58_9 1_555 1_555
C62_9 H48_9 1_555 1_555
N7_9 C59_9 1_555 1_555
N9_6 C62_9 1_555 1_555
C62_9 N7_9 1_555 1_555
C63_9 N9_6 1_555 1_555
C1_9 H1_9 1_555 1_555
H2_9 C1_9 1_555 1_555
H3_9 C1_9 1_555 1_555
C2_9 C1_9 1_555 1_555
C3_9 C2_9 1_555 1_555
H4_9 C3_9 1_555 1_555
C4_9 C3_9 1_555 1_555
C5_9 C4_9 1_555 1_555
C6_9 C5_9 1_555 1_555
H5_9 C6_9 1_555 1_555
C7_9 C6_9 1_555 1_555
H6_9 C7_9 1_555 1_555
C8_9 C7_9 1_555 1_555
C9_9 C8_9 1_555 1_555
H7_9 C9_9 1_555 1_555
C10_9 C5_9 1_555 1_555
H8_7 C10_9 1_555 1_555
C11_8 H9_9 1_555 1_555
C12_8 C13_8 1_555 1_555
C13_8 H10_8 1_555 1_555
C14_8 C13_8 1_555 1_555
H11_8 C14_8 1_555 1_555
C15_8 C14_8 1_555 1_555
H12_8 C15_8 1_555 1_555
C16_8 C15_8 1_555 1_555
H13_8 C16_8 1_555 1_555
C17_8 C12_8 1_555 1_555
C18_8 H14_8 1_555 1_555
H15_9 C18_8 1_555 1_555
H16_8 C18_8 1_555 1_555
C19_8 C18_8 1_555 1_555
C20_8 C19_8 1_555 1_555
H17_8 C20_8 1_555 1_555
C21_8 C20_8 1_555 1_555
C22_8 C21_8 1_555 1_555
C23_8 C22_8 1_555 1_555
H18_8 C23_8 1_555 1_555
C24_8 C23_8 1_555 1_555
H19_8 C24_8 1_555 1_555
C25_8 C24_8 1_555 1_555
C26_8 C25_8 1_555 1_555
H20_8 C26_8 1_555 1_555
C27_8 C22_8 1_555 1_555
H21_8 C27_8 1_555 1_555
C28_9 H22_9 1_555 1_555
C29_8 C30_8 1_555 1_555
C30_8 H23_9 1_555 1_555
C31_8 C30_8 1_555 1_555
H24_8 C31_8 1_555 1_555
C32_8 C31_8 1_555 1_555
H25_8 C32_8 1_555 1_555
C33_8 C32_8 1_555 1_555
H26_8 C33_8 1_555 1_555
C34_8 C29_8 1_555 1_555
C35_9 H27_9 1_555 1_555
H28_8 C35_9 1_555 1_555
H29_9 C35_9 1_555 1_555
C36_9 C35_9 1_555 1_555
C37_9 C36_9 1_555 1_555
H30_9 C37_9 1_555 1_555
C38_9 C37_9 1_555 1_555
C39_9 C38_9 1_555 1_555
C40_9 C39_9 1_555 1_555
H31_9 C40_9 1_555 1_555
C41_9 C40_9 1_555 1_555
H32_9 C41_9 1_555 1_555
C42_9 C41_9 1_555 1_555
C43_9 C42_9 1_555 1_555
H33_9 C43_9 1_555 1_555
C44_9 C39_9 1_555 1_555
C45_8 H35_8 1_555 1_555
C46_9 C47_9 1_555 1_555
C47_9 H36_8 1_555 1_555
C48_9 C47_9 1_555 1_555
H37_9 C48_9 1_555 1_555
C49_9 C48_9 1_555 1_555
H38_9 C49_9 1_555 1_555
C50_9 C49_9 1_555 1_555
H39_9 C50_9 1_555 1_555
C51_9 C46_9 1_555 1_555
H42_8 C52_8 1_555 1_555
C53_8 C52_8 1_555 1_555
C54_8 C53_8 1_555 1_555
C55_8 C54_8 1_555 1_555
C56_9 C55_8 1_555 1_555
H46_9 C60_9 1_555 1_555
C61_9 C56_9 1_555 1_555
H47_9 C61_9 1_555 1_555
C65_9 C64_9 1_555 1_555
H50_9 C65_9 1_555 1_555
C66_9 C65_9 1_555 1_555
H51_9 C66_9 1_555 1_555
C67_9 C66_9 1_555 1_555
H52_9 C67_9 1_555 1_555
Co1_8 N2_8 1_555 1_555
Co4_2 N4_9 1_555 1_555
N1_9 C8_9 1_555 1_555
N2_8 C11_8 1_555 1_555
N3_8 C25_8 1_555 1_555
N4_9 C28_9 1_555 1_555
N5_9 C42_9 1_555 1_555
N6_8 C45_8 1_555 1_555
O9_4 C2_9 1_555 1_555
O10_4 C4_9 1_555 1_555
O3_8 C19_8 1_555 1_555
O4_8 C21_8 1_555 1_555
O11_3 C36_9 1_555 1_555
O12_3 C38_9 1_555 1_555
O7_8 C53_8 1_555 1_555
O8_8 C55_8 1_555 1_555
C9_9 C10_9 1_555 1_555
C11_8 N1_9 1_555 1_555
C12_8 N1_9 1_555 1_555
C16_8 C17_8 1_555 1_555
C17_8 N2_8 1_555 1_555
C26_8 C27_8 1_555 1_555
C28_9 N3_8 1_555 1_555
C29_8 N4_9 1_555 1_555
C33_8 C34_8 1_555 1_555
C34_8 N3_8 1_555 1_555
C43_9 C44_9 1_555 1_555
C45_8 N5_9 1_555 1_555
C46_9 N6_8 1_555 1_555
C50_9 C51_9 1_555 1_555
C51_9 N5_9 1_555 1_555
C60_9 C61_9 1_555 1_555
C67_9 C68_9 1_555 1_555
Co1_8 N6_8 1_555 1_555
Co1_8 O3_8 1_555 1_555
Co1_8 O4_8 1_555 1_555
Co1_8 O7_8 1_555 1_555
Co1_8 O8_8 1_555 1_555
C12_9 C13_9 1_555 1_555
C13_9 H10_9 1_555 1_555
C14_9 C13_9 1_555 1_555
H11_9 C14_9 1_555 1_555
C15_9 C14_9 1_555 1_555
H12_9 C15_9 1_555 1_555
C16_9 C15_9 1_555 1_555
H13_9 C16_9 1_555 1_555
C17_9 C12_9 1_555 1_555
C18_9 H14_9 1_555 1_555
H16_9 C18_9 1_555 1_555
C19_9 C18_9 1_555 1_555
C20_9 C19_9 1_555 1_555
H17_9 C20_9 1_555 1_555
C21_9 C20_9 1_555 1_555
C22_9 C21_9 1_555 1_555
C23_9 C22_9 1_555 1_555
H18_9 C23_9 1_555 1_555
C24_9 C23_9 1_555 1_555
H19_9 C24_9 1_555 1_555
C25_9 C24_9 1_555 1_555
C26_9 C25_9 1_555 1_555
H20_9 C26_9 1_555 1_555
C27_9 C22_9 1_555 1_555
H21_9 C27_9 1_555 1_555
C29_9 C30_9 1_555 1_555
C31_9 C30_9 1_555 1_555
H24_9 C31_9 1_555 1_555
C32_9 C31_9 1_555 1_555
H25_9 C32_9 1_555 1_555
C33_9 C32_9 1_555 1_555
H26_9 C33_9 1_555 1_555
C34_9 C29_9 1_555 1_555
C45_9 H35_9 1_555 1_555
C52_9 H40_9 1_555 1_555
H41_9 C52_9 1_555 1_555
H42_9 C52_9 1_555 1_555
C53_9 C52_9 1_555 1_555
C54_9 C53_9 1_555 1_555
H43_9 C54_9 1_555 1_555
C55_9 C54_9 1_555 1_555
Co1_9 N2_9 1_555 1_555
N2_9 C11_9 1_555 1_555
N3_9 C25_9 1_555 1_555
N6_9 C45_9 1_555 1_555
O3_9 C19_9 1_555 1_555
O4_9 C21_9 1_555 1_555
O7_9 C53_9 1_555 1_555
O8_9 C55_9 1_555 1_555
C16_9 C17_9 1_555 1_555
C17_9 N2_9 1_555 1_555
C26_9 C27_9 1_555 1_555
C33_9 C34_9 1_555 1_555
C34_9 N3_9 1_555 1_555
Co1_9 N6_9 1_555 1_555
Co1_9 O3_9 1_555 1_555
Co1_9 O4_9 1_555 1_555
Co1_9 O7_9 1_555 1_555
Co1_9 O8_9 1_555 1_555
C35_10 H27_10 1_555 1_555
H29_10 C35_10 1_555 1_555
C36_10 C35_10 1_555 1_555
C37_10 C36_10 1_555 1_555
H30_10 C37_10 1_555 1_555
C38_10 C37_10 1_555 1_555
C39_10 C38_10 1_555 1_555
C40_10 C39_10 1_555 1_555
H31_10 C40_10 1_555 1_555
C41_10 C40_10 1_555 1_555
H32_10 C41_10 1_555 1_555
C42_10 C41_10 1_555 1_555
C43_10 C42_10 1_555 1_555
H33_10 C43_10 1_555 1_555
C44_10 C39_10 1_555 1_555
H34_10 C44_10 1_555 1_555
C46_10 C47_10 1_555 1_555
C48_10 C47_10 1_555 1_555
H37_10 C48_10 1_555 1_555
C49_10 C48_10 1_555 1_555
H38_10 C49_10 1_555 1_555
C50_10 C49_10 1_555 1_555
H39_10 C50_10 1_555 1_555
C51_10 C46_10 1_555 1_555
N5_10 C42_10 1_555 1_555
O5_7 C36_10 1_555 1_555
O6_7 C38_10 1_555 1_555
Co5_5 O5_7 1_555 1_555
C43_10 C44_10 1_555 1_555
C50_10 C51_10 1_555 1_555
C51_10 N5_10 1_555 1_555
O6_7 Co5_5 1_555 1_555
C1_10 H1_10 1_555 1_555
H2_10 C1_10 1_555 1_555
H3_10 C1_10 1_555 1_555
C2_10 C1_10 1_555 1_555
C3_10 C2_10 1_555 1_555
H4_10 C3_10 1_555 1_555
C4_10 C3_10 1_555 1_555
C5_10 C4_10 1_555 1_555
C6_10 C5_10 1_555 1_555
H5_10 C6_10 1_555 1_555
C7_10 C6_10 1_555 1_555
H6_10 C7_10 1_555 1_555
C8_10 C7_10 1_555 1_555
C9_10 C8_10 1_555 1_555
H7_10 C9_10 1_555 1_555
C10_10 C5_10 1_555 1_555
C57_10 C56_10 1_555 1_555
H44_10 C57_10 1_555 1_555
C58_10 C57_10 1_555 1_555
H45_10 C58_10 1_555 1_555
C59_10 C58_10 1_555 1_555
C60_10 C59_10 1_555 1_555
H46_10 C60_10 1_555 1_555
C61_10 C56_10 1_555 1_555
H47_10 C61_10 1_555 1_555
C62_10 H48_10 1_555 1_555
C63_10 C64_10 1_555 1_555
C64_10 H49_10 1_555 1_555
C65_10 C64_10 1_555 1_555
H50_10 C65_10 1_555 1_555
C66_10 C65_10 1_555 1_555
H51_10 C66_10 1_555 1_555
C67_10 C66_10 1_555 1_555
H52_10 C67_10 1_555 1_555
C68_10 C63_10 1_555 1_555
N1_10 C8_10 1_555 1_555
N7_10 C59_10 1_555 1_555
N8_4 C62_10 1_555 1_555
O1_4 C2_10 1_555 1_555
O2_4 C4_10 1_555 1_555
Co3_2 N8_4 1_555 1_555
Co4_3 O1_4 1_555 1_555
C9_10 C10_10 1_555 1_555
C60_10 C61_10 1_555 1_555
C62_10 N7_10 1_555 1_555
C63_10 N8_4 1_555 1_555
C67_10 C68_10 1_555 1_555
C68_10 N7_10 1_555 1_555
O2_4 Co4_3 1_555 1_555
C28_10 H22_10 1_555 1_555
Co2_3 N4_10 1_555 1_555
N4_10 C28_10 1_555 1_555
N9_7 Co2_3 1_555 1_555
O9_7 Co2_3 1_555 1_555
O10_7 Co2_3 1_555 1_555
O11_4 Co2_3 1_555 1_555
O12_4 Co2_3 1_555 1_555
C1_11 H1_11 1_555 1_555
H2_11 C1_11 1_555 1_555
H3_11 C1_11 1_555 1_555
C2_11 C1_11 1_555 1_555
C3_11 C2_11 1_555 1_555
H4_11 C3_11 1_555 1_555
C4_11 C3_11 1_555 1_555
C5_11 C4_11 1_555 1_555
C6_11 C5_11 1_555 1_555
H5_11 C6_11 1_555 1_555
C7_11 C6_11 1_555 1_555
H6_11 C7_11 1_555 1_555
C8_11 C7_11 1_555 1_555
C9_11 C8_11 1_555 1_555
H7_11 C9_11 1_555 1_555
C10_11 C5_11 1_555 1_555
H8_10 C10_11 1_555 1_555
C57_11 C56_11 1_555 1_555
H44_11 C57_11 1_555 1_555
C58_11 C57_11 1_555 1_555
H45_11 C58_11 1_555 1_555
C59_11 C58_11 1_555 1_555
C60_11 C59_11 1_555 1_555
H46_11 C60_11 1_555 1_555
C61_11 C56_11 1_555 1_555
H47_11 C61_11 1_555 1_555
C62_11 H48_11 1_555 1_555
C63_11 C64_11 1_555 1_555
C64_11 H49_11 1_555 1_555
C65_11 C64_11 1_555 1_555
H50_11 C65_11 1_555 1_555
C66_11 C65_11 1_555 1_555
H51_11 C66_11 1_555 1_555
C67_11 C66_11 1_555 1_555
H52_11 C67_11 1_555 1_555
C68_11 C63_11 1_555 1_555
N1_11 C8_11 1_555 1_555
N7_11 C59_11 1_555 1_555
N8_5 C62_11 1_555 1_555
O1_5 C2_11 1_555 1_555
O2_5 C4_11 1_555 1_555
Co4_3 N8_5 1_555 1_555
Co4_4 O1_5 1_555 1_555
C9_11 C10_11 1_555 1_555
C60_11 C61_11 1_555 1_555
C62_11 N7_11 1_555 1_555
C63_11 N8_5 1_555 1_555
C67_11 C68_11 1_555 1_555
C68_11 N7_11 1_555 1_555
O2_5 Co4_4 1_555 1_555
C12_10 C13_10 1_555 1_555
C13_10 H10_10 1_555 1_555
C14_10 C13_10 1_555 1_555
H11_10 C14_10 1_555 1_555
C15_10 C14_10 1_555 1_555
H12_10 C15_10 1_555 1_555
C16_10 C15_10 1_555 1_555
H13_10 C16_10 1_555 1_555
C17_10 C12_10 1_555 1_555
C18_10 H14_10 1_555 1_555
H15_11 C18_10 1_555 1_555
H16_10 C18_10 1_555 1_555
C19_10 C18_10 1_555 1_555
C20_10 C19_10 1_555 1_555
H17_10 C20_10 1_555 1_555
C21_10 C20_10 1_555 1_555
C22_10 C21_10 1_555 1_555
C23_10 C22_10 1_555 1_555
H18_10 C23_10 1_555 1_555
C24_10 C23_10 1_555 1_555
H19_10 C24_10 1_555 1_555
C25_10 C24_10 1_555 1_555
C26_10 C25_10 1_555 1_555
H20_10 C26_10 1_555 1_555
C27_10 C22_10 1_555 1_555
H21_10 C27_10 1_555 1_555
C28_11 H22_11 1_555 1_555
C29_10 C30_10 1_555 1_555
C30_10 H23_11 1_555 1_555
C31_10 C30_10 1_555 1_555
H24_10 C31_10 1_555 1_555
C32_10 C31_10 1_555 1_555
H25_10 C32_10 1_555 1_555
C33_10 C32_10 1_555 1_555
H26_10 C33_10 1_555 1_555
C34_10 C29_10 1_555 1_555
C45_10 H35_10 1_555 1_555
C52_10 H40_10 1_555 1_555
H41_10 C52_10 1_555 1_555
H42_10 C52_10 1_555 1_555
C53_10 C52_10 1_555 1_555
C54_10 C53_10 1_555 1_555
H43_10 C54_10 1_555 1_555
C55_10 C54_10 1_555 1_555
Co1_10 N2_10 1_555 1_555
Co5_5 N4_11 1_555 1_555
N2_10 C11_10 1_555 1_555
N3_10 C25_10 1_555 1_555
N4_11 C28_11 1_555 1_555
N6_10 C45_10 1_555 1_555
O3_10 C19_10 1_555 1_555
O4_10 C21_10 1_555 1_555
O7_10 C53_10 1_555 1_555
O8_10 C55_10 1_555 1_555
N9_8 Co5_5 1_555 1_555
O9_8 Co5_5 1_555 1_555
O10_8 Co5_5 1_555 1_555
C16_10 C17_10 1_555 1_555
C17_10 N2_10 1_555 1_555
C26_10 C27_10 1_555 1_555
C28_11 N3_10 1_555 1_555
C29_10 N4_11 1_555 1_555
C33_10 C34_10 1_555 1_555
C34_10 N3_10 1_555 1_555
Co1_10 N6_10 1_555 1_555
Co1_10 O3_10 1_555 1_555
Co1_10 O4_10 1_555 1_555
Co1_10 O7_10 1_555 1_555
Co1_10 O8_10 1_555 1_555
C35_11 H27_11 1_555 1_555
H29_11 C35_11 1_555 1_555
C36_11 C35_11 1_555 1_555
C37_11 C36_11 1_555 1_555
H30_11 C37_11 1_555 1_555
C38_11 C37_11 1_555 1_555
C39_11 C38_11 1_555 1_555
C40_11 C39_11 1_555 1_555
H31_11 C40_11 1_555 1_555
C41_11 C40_11 1_555 1_555
H32_11 C41_11 1_555 1_555
C42_11 C41_11 1_555 1_555
C43_11 C42_11 1_555 1_555
H33_11 C43_11 1_555 1_555
C44_11 C39_11 1_555 1_555
H34_11 C44_11 1_555 1_555
C46_11 C47_11 1_555 1_555
C48_11 C47_11 1_555 1_555
H37_11 C48_11 1_555 1_555
C49_11 C48_11 1_555 1_555
H38_11 C49_11 1_555 1_555
C50_11 C49_11 1_555 1_555
H39_11 C50_11 1_555 1_555
C51_11 C46_11 1_555 1_555
N5_11 C42_11 1_555 1_555
O5_8 C36_11 1_555 1_555
O6_8 C38_11 1_555 1_555
Co5_6 O5_8 1_555 1_555
C43_11 C44_11 1_555 1_555
C50_11 C51_11 1_555 1_555
C51_11 N5_11 1_555 1_555
O6_8 Co5_6 1_555 1_555
C28_12 H22_12 1_555 1_555
Co5_6 N4_12 1_555 1_555
N4_12 C28_12 1_555 1_555
N9_9 Co5_6 1_555 1_555
O9_9 Co5_6 1_555 1_555
O10_9 Co5_6 1_555 1_555
C1_12 H1_12 1_555 1_555
H2_12 C1_12 1_555 1_555
H3_12 C1_12 1_555 1_555
C2_12 C1_12 1_555 1_555
C3_12 C2_12 1_555 1_555
H4_12 C3_12 1_555 1_555
C4_12 C3_12 1_555 1_555
C5_12 C4_12 1_555 1_555
C6_12 C5_12 1_555 1_555
H5_12 C6_12 1_555 1_555
C7_12 C6_12 1_555 1_555
H6_12 C7_12 1_555 1_555
C8_12 C7_12 1_555 1_555
C9_12 C8_12 1_555 1_555
H7_12 C9_12 1_555 1_555
C10_12 C5_12 1_555 1_555
C57_12 C56_12 1_555 1_555
H44_12 C57_12 1_555 1_555
C58_12 C57_12 1_555 1_555
H45_12 C58_12 1_555 1_555
C59_12 C58_12 1_555 1_555
C60_12 C59_12 1_555 1_555
H46_12 C60_12 1_555 1_555
C61_12 C56_12 1_555 1_555
H47_12 C61_12 1_555 1_555
C62_12 H48_12 1_555 1_555
C63_12 C64_12 1_555 1_555
C64_12 H49_12 1_555 1_555
C65_12 C64_12 1_555 1_555
H50_12 C65_12 1_555 1_555
C66_12 C65_12 1_555 1_555
H51_12 C66_12 1_555 1_555
C67_12 C66_12 1_555 1_555
H52_12 C67_12 1_555 1_555
C68_12 C63_12 1_555 1_555
N1_12 C8_12 1_555 1_555
N7_12 C59_12 1_555 1_555
N8_6 C62_12 1_555 1_555
O1_6 C2_12 1_555 1_555
O2_6 C4_12 1_555 1_555
Co4_4 N8_6 1_555 1_555
Co3_2 O1_6 1_555 1_555
C9_12 C10_12 1_555 1_555
C60_12 C61_12 1_555 1_555
C62_12 N7_12 1_555 1_555
C63_12 N8_6 1_555 1_555
C67_12 C68_12 1_555 1_555
C68_12 N7_12 1_555 1_555
O2_6 Co3_2 1_555 1_555
C12_11 C13_11 1_555 1_555
C13_11 H10_11 1_555 1_555
C14_11 C13_11 1_555 1_555
H11_11 C14_11 1_555 1_555
C15_11 C14_11 1_555 1_555
H12_11 C15_11 1_555 1_555
C16_11 C15_11 1_555 1_555
H13_11 C16_11 1_555 1_555
C17_11 C12_11 1_555 1_555
C18_11 H14_11 1_555 1_555
H16_11 C18_11 1_555 1_555
C19_11 C18_11 1_555 1_555
C20_11 C19_11 1_555 1_555
H17_11 C20_11 1_555 1_555
C21_11 C20_11 1_555 1_555
C22_11 C21_11 1_555 1_555
C23_11 C22_11 1_555 1_555
H18_11 C23_11 1_555 1_555
C24_11 C23_11 1_555 1_555
H19_11 C24_11 1_555 1_555
C25_11 C24_11 1_555 1_555
C26_11 C25_11 1_555 1_555
H20_11 C26_11 1_555 1_555
C27_11 C22_11 1_555 1_555
H21_11 C27_11 1_555 1_555
C29_11 C30_11 1_555 1_555
C31_11 C30_11 1_555 1_555
H24_11 C31_11 1_555 1_555
C32_11 C31_11 1_555 1_555
H25_11 C32_11 1_555 1_555
C33_11 C32_11 1_555 1_555
H26_11 C33_11 1_555 1_555
C34_11 C29_11 1_555 1_555
C35_12 H27_12 1_555 1_555
H28_11 C35_12 1_555 1_555
H29_12 C35_12 1_555 1_555
C36_12 C35_12 1_555 1_555
C37_12 C36_12 1_555 1_555
H30_12 C37_12 1_555 1_555
C38_12 C37_12 1_555 1_555
C39_12 C38_12 1_555 1_555
C40_12 C39_12 1_555 1_555
H31_12 C40_12 1_555 1_555
C41_12 C40_12 1_555 1_555
H32_12 C41_12 1_555 1_555
C42_12 C41_12 1_555 1_555
C43_12 C42_12 1_555 1_555
H33_12 C43_12 1_555 1_555
C44_12 C39_12 1_555 1_555
H34_12 C44_12 1_555 1_555
C45_11 H35_11 1_555 1_555
C46_12 C47_12 1_555 1_555
C47_12 H36_11 1_555 1_555
C48_12 C47_12 1_555 1_555
H37_12 C48_12 1_555 1_555
C49_12 C48_12 1_555 1_555
H38_12 C49_12 1_555 1_555
C50_12 C49_12 1_555 1_555
H39_12 C50_12 1_555 1_555
C51_12 C46_12 1_555 1_555
C52_11 H40_11 1_555 1_555
H41_11 C52_11 1_555 1_555
H42_11 C52_11 1_555 1_555
C53_11 C52_11 1_555 1_555
C54_11 C53_11 1_555 1_555
H43_11 C54_11 1_555 1_555
C55_11 C54_11 1_555 1_555
Co1_11 N2_11 1_555 1_555
N2_11 C11_11 1_555 1_555
N3_11 C25_11 1_555 1_555
N5_12 C42_12 1_555 1_555
N6_11 C45_11 1_555 1_555
O3_11 C19_11 1_555 1_555
O4_11 C21_11 1_555 1_555
O11_4 C36_12 1_555 1_555
O12_4 C38_12 1_555 1_555
O7_11 C53_11 1_555 1_555
O8_11 C55_11 1_555 1_555
C16_11 C17_11 1_555 1_555
C17_11 N2_11 1_555 1_555
C26_11 C27_11 1_555 1_555
C33_11 C34_11 1_555 1_555
C34_11 N3_11 1_555 1_555
C43_12 C44_12 1_555 1_555
C45_11 N5_12 1_555 1_555
C46_12 N6_11 1_555 1_555
C50_12 C51_12 1_555 1_555
C51_12 N5_12 1_555 1_555
Co1_11 N6_11 1_555 1_555
Co1_11 O3_11 1_555 1_555
Co1_11 O4_11 1_555 1_555
Co1_11 O7_11 1_555 1_555
Co1_11 O8_11 1_555 1_555
C1_13 H1_13 1_555 1_555
H2_13 C1_13 1_555 1_555
H3_13 C1_13 1_555 1_555
C2_13 C1_13 1_555 1_555
C3_13 C2_13 1_555 1_555
H4_13 C3_13 1_555 1_555
C4_13 C3_13 1_555 1_555
C5_13 C4_13 1_555 1_555
C6_13 C5_13 1_555 1_555
H5_13 C6_13 1_555 1_555
C7_13 C6_13 1_555 1_555
H6_13 C7_13 1_555 1_555
C8_13 C7_13 1_555 1_555
C9_13 C8_13 1_555 1_555
H7_13 C9_13 1_555 1_555
C10_13 C5_13 1_555 1_555
H8_11 C10_13 1_555 1_555
C11_12 H9_13 1_555 1_555
C12_12 C13_12 1_555 1_555
C13_12 H10_12 1_555 1_555
C14_12 C13_12 1_555 1_555
H11_12 C14_12 1_555 1_555
C15_12 C14_12 1_555 1_555
H12_12 C15_12 1_555 1_555
C16_12 C15_12 1_555 1_555
H13_12 C16_12 1_555 1_555
C17_12 C12_12 1_555 1_555
C18_12 H14_12 1_555 1_555
H15_13 C18_12 1_555 1_555
H16_12 C18_12 1_555 1_555
C19_12 C18_12 1_555 1_555
C20_12 C19_12 1_555 1_555
H17_12 C20_12 1_555 1_555
C21_12 C20_12 1_555 1_555
C22_12 C21_12 1_555 1_555
C23_12 C22_12 1_555 1_555
H18_12 C23_12 1_555 1_555
C24_12 C23_12 1_555 1_555
H19_12 C24_12 1_555 1_555
C25_12 C24_12 1_555 1_555
C26_12 C25_12 1_555 1_555
H20_12 C26_12 1_555 1_555
C27_12 C22_12 1_555 1_555
H21_12 C27_12 1_555 1_555
C28_13 H22_13 1_555 1_555
C29_12 C30_12 1_555 1_555
C30_12 H23_13 1_555 1_555
C31_12 C30_12 1_555 1_555
H24_12 C31_12 1_555 1_555
C32_12 C31_12 1_555 1_555
H25_12 C32_12 1_555 1_555
C33_12 C32_12 1_555 1_555
H26_12 C33_12 1_555 1_555
C34_12 C29_12 1_555 1_555
C35_13 H27_13 1_555 1_555
H28_12 C35_13 1_555 1_555
H29_13 C35_13 1_555 1_555
C36_13 C35_13 1_555 1_555
C37_13 C36_13 1_555 1_555
H30_13 C37_13 1_555 1_555
C38_13 C37_13 1_555 1_555
C39_13 C38_13 1_555 1_555
C40_13 C39_13 1_555 1_555
H31_13 C40_13 1_555 1_555
C41_13 C40_13 1_555 1_555
H32_13 C41_13 1_555 1_555
C42_13 C41_13 1_555 1_555
C43_13 C42_13 1_555 1_555
H33_13 C43_13 1_555 1_555
C44_13 C39_13 1_555 1_555
H34_13 C44_13 1_555 1_555
C45_12 H35_12 1_555 1_555
C46_13 C47_13 1_555 1_555
C47_13 H36_12 1_555 1_555
C48_13 C47_13 1_555 1_555
H37_13 C48_13 1_555 1_555
C49_13 C48_13 1_555 1_555
H38_13 C49_13 1_555 1_555
C50_13 C49_13 1_555 1_555
H39_13 C50_13 1_555 1_555
C51_13 C46_13 1_555 1_555
C52_12 H40_12 1_555 1_555
H41_12 C52_12 1_555 1_555
H42_12 C52_12 1_555 1_555
C53_12 C52_12 1_555 1_555
C54_12 C53_12 1_555 1_555
H43_12 C54_12 1_555 1_555
C55_12 C54_12 1_555 1_555
C56_13 C55_12 1_555 1_555
C57_13 C56_13 1_555 1_555
H44_13 C57_13 1_555 1_555
C58_13 C57_13 1_555 1_555
H45_13 C58_13 1_555 1_555
C59_13 C58_13 1_555 1_555
C60_13 C59_13 1_555 1_555
H46_13 C60_13 1_555 1_555
C61_13 C56_13 1_555 1_555
H47_13 C61_13 1_555 1_555
C62_13 H48_13 1_555 1_555
C63_13 C64_13 1_555 1_555
C64_13 H49_13 1_555 1_555
C65_13 C64_13 1_555 1_555
H50_13 C65_13 1_555 1_555
C66_13 C65_13 1_555 1_555
H51_13 C66_13 1_555 1_555
C67_13 C66_13 1_555 1_555
H52_13 C67_13 1_555 1_555
C68_13 C63_13 1_555 1_555
Co1_12 N2_12 1_555 1_555
Co2_4 N4_13 1_555 1_555
N1_13 C8_13 1_555 1_555
N2_12 C11_12 1_555 1_555
N3_12 C25_12 1_555 1_555
N4_13 C28_13 1_555 1_555
N5_13 C42_13 1_555 1_555
N6_12 C45_12 1_555 1_555
N7_13 C59_13 1_555 1_555
N9_7 C62_13 1_555 1_555
O9_8 C2_13 1_555 1_555
O10_8 C4_13 1_555 1_555
O3_12 C19_12 1_555 1_555
O4_12 C21_12 1_555 1_555
O5_9 C36_13 1_555 1_555
O6_9 C38_13 1_555 1_555
O7_12 C53_12 1_555 1_555
O8_12 C55_12 1_555 1_555
Co5_7 O5_9 1_555 1_555
N9_10 Co2_4 1_555 1_555
O9_10 Co2_4 1_555 1_555
O10_10 Co2_4 1_555 1_555
O11_5 Co2_4 1_555 1_555
O12_5 Co2_4 1_555 1_555
C9_13 C10_13 1_555 1_555
C11_12 N1_13 1_555 1_555
C12_12 N1_13 1_555 1_555
C16_12 C17_12 1_555 1_555
C17_12 N2_12 1_555 1_555
C26_12 C27_12 1_555 1_555
C28_13 N3_12 1_555 1_555
C29_12 N4_13 1_555 1_555
C33_12 C34_12 1_555 1_555
C34_12 N3_12 1_555 1_555
C43_13 C44_13 1_555 1_555
C45_12 N5_13 1_555 1_555
C46_13 N6_12 1_555 1_555
C50_13 C51_13 1_555 1_555
C51_13 N5_13 1_555 1_555
C60_13 C61_13 1_555 1_555
C62_13 N7_13 1_555 1_555
C63_13 N9_7 1_555 1_555
C67_13 C68_13 1_555 1_555
C68_13 N7_13 1_555 1_555
Co1_12 N6_12 1_555 1_555
Co1_12 O3_12 1_555 1_555
Co1_12 O4_12 1_555 1_555
Co1_12 O7_12 1_555 1_555
Co1_12 O8_12 1_555 1_555
O6_9 Co5_7 1_555 1_555
C1_14 H1_14 1_555 1_555
H2_14 C1_14 1_555 1_555
H3_14 C1_14 1_555 1_555
C2_14 C1_14 1_555 1_555
C3_14 C2_14 1_555 1_555
H4_14 C3_14 1_555 1_555
C4_14 C3_14 1_555 1_555
C5_14 C4_14 1_555 1_555
C6_14 C5_14 1_555 1_555
H5_14 C6_14 1_555 1_555
C7_14 C6_14 1_555 1_555
H6_14 C7_14 1_555 1_555
C8_14 C7_14 1_555 1_555
C9_14 C8_14 1_555 1_555
H7_14 C9_14 1_555 1_555
C10_14 C5_14 1_555 1_555
H8_12 C10_14 1_555 1_555
C11_13 H9_14 1_555 1_555
C12_13 C13_13 1_555 1_555
C13_13 H10_13 1_555 1_555
C14_13 C13_13 1_555 1_555
H11_13 C14_13 1_555 1_555
C15_13 C14_13 1_555 1_555
H12_13 C15_13 1_555 1_555
C16_13 C15_13 1_555 1_555
H13_13 C16_13 1_555 1_555
C17_13 C12_13 1_555 1_555
C52_13 H40_13 1_555 1_555
H41_13 C52_13 1_555 1_555
H42_13 C52_13 1_555 1_555
C53_13 C52_13 1_555 1_555
C54_13 C53_13 1_555 1_555
H43_13 C54_13 1_555 1_555
C55_13 C54_13 1_555 1_555
C56_14 C55_13 1_555 1_555
C57_14 C56_14 1_555 1_555
H44_14 C57_14 1_555 1_555
C58_14 C57_14 1_555 1_555
H45_14 C58_14 1_555 1_555
C59_14 C58_14 1_555 1_555
C60_14 C59_14 1_555 1_555
H46_14 C60_14 1_555 1_555
C61_14 C56_14 1_555 1_555
C62_14 H48_14 1_555 1_555
C63_14 C64_14 1_555 1_555
C64_14 H49_14 1_555 1_555
C65_14 C64_14 1_555 1_555
H50_14 C65_14 1_555 1_555
C66_14 C65_14 1_555 1_555
H51_14 C66_14 1_555 1_555
C67_14 C66_14 1_555 1_555
H52_14 C67_14 1_555 1_555
C68_14 C63_14 1_555 1_555
Co1_13 N2_13 1_555 1_555
N1_14 C8_14 1_555 1_555
N2_13 C11_13 1_555 1_555
N7_14 C59_14 1_555 1_555
N9_8 C62_14 1_555 1_555
O9_9 C2_14 1_555 1_555
O10_9 C4_14 1_555 1_555
O7_13 C53_13 1_555 1_555
O8_13 C55_13 1_555 1_555
C9_14 C10_14 1_555 1_555
C11_13 N1_14 1_555 1_555
C12_13 N1_14 1_555 1_555
C16_13 C17_13 1_555 1_555
C17_13 N2_13 1_555 1_555
C60_14 C61_14 1_555 1_555
C62_14 N7_14 1_555 1_555
C63_14 N9_8 1_555 1_555
C67_14 C68_14 1_555 1_555
C68_14 N7_14 1_555 1_555
Co1_13 O7_13 1_555 1_555
Co1_13 O8_13 1_555 1_555
C18_13 H14_13 1_555 1_555
H15_14 C18_13 1_555 1_555
H16_13 C18_13 1_555 1_555
C19_13 C18_13 1_555 1_555
C20_13 C19_13 1_555 1_555
H17_13 C20_13 1_555 1_555
C21_13 C20_13 1_555 1_555
C22_13 C21_13 1_555 1_555
C23_13 C22_13 1_555 1_555
H18_13 C23_13 1_555 1_555
C24_13 C23_13 1_555 1_555
H19_13 C24_13 1_555 1_555
C25_13 C24_13 1_555 1_555
C26_13 C25_13 1_555 1_555
H20_13 C26_13 1_555 1_555
C27_13 C22_13 1_555 1_555
H21_13 C27_13 1_555 1_555
C28_14 H22_14 1_555 1_555
C29_13 C30_13 1_555 1_555
C30_13 H23_14 1_555 1_555
C31_13 C30_13 1_555 1_555
H24_13 C31_13 1_555 1_555
C32_13 C31_13 1_555 1_555
H25_13 C32_13 1_555 1_555
C33_13 C32_13 1_555 1_555
H26_13 C33_13 1_555 1_555
C34_13 C29_13 1_555 1_555
C35_14 H27_14 1_555 1_555
H28_13 C35_14 1_555 1_555
H29_14 C35_14 1_555 1_555
C36_14 C35_14 1_555 1_555
C37_14 C36_14 1_555 1_555
H30_14 C37_14 1_555 1_555
C38_14 C37_14 1_555 1_555
C39_14 C38_14 1_555 1_555
C40_14 C39_14 1_555 1_555
H31_14 C40_14 1_555 1_555
C41_14 C40_14 1_555 1_555
H32_14 C41_14 1_555 1_555
C42_14 C41_14 1_555 1_555
C43_14 C42_14 1_555 1_555
H33_14 C43_14 1_555 1_555
C44_14 C39_14 1_555 1_555
H34_14 C44_14 1_555 1_555
C45_13 H35_13 1_555 1_555
C46_14 C47_14 1_555 1_555
C47_14 H36_13 1_555 1_555
C48_14 C47_14 1_555 1_555
H37_14 C48_14 1_555 1_555
C49_14 C48_14 1_555 1_555
H38_14 C49_14 1_555 1_555
C50_14 C49_14 1_555 1_555
H39_14 C50_14 1_555 1_555
C51_14 C46_14 1_555 1_555
Co5_7 N4_14 1_555 1_555
N3_13 C25_13 1_555 1_555
N4_14 C28_14 1_555 1_555
N5_14 C42_14 1_555 1_555
N6_13 C45_13 1_555 1_555
O3_13 C19_13 1_555 1_555
O4_13 C21_13 1_555 1_555
O5_10 C36_14 1_555 1_555
O6_10 C38_14 1_555 1_555
Co5_8 O5_10 1_555 1_555
N9_11 Co5_7 1_555 1_555
O9_11 Co5_7 1_555 1_555
O10_11 Co5_7 1_555 1_555
C26_13 C27_13 1_555 1_555
C28_14 N3_13 1_555 1_555
C29_13 N4_14 1_555 1_555
C33_13 C34_13 1_555 1_555
C34_13 N3_13 1_555 1_555
C43_14 C44_14 1_555 1_555
C45_13 N5_14 1_555 1_555
C46_14 N6_13 1_555 1_555
C50_14 C51_14 1_555 1_555
C51_14 N5_14 1_555 1_555
O6_10 Co5_8 1_555 1_555
C18_14 H14_14 1_555 1_555
H15_15 C18_14 1_555 1_555
H16_14 C18_14 1_555 1_555
C19_14 C18_14 1_555 1_555
C20_14 C19_14 1_555 1_555
H17_14 C20_14 1_555 1_555
C21_14 C20_14 1_555 1_555
C22_14 C21_14 1_555 1_555
C23_14 C22_14 1_555 1_555
H18_14 C23_14 1_555 1_555
C24_14 C23_14 1_555 1_555
H19_14 C24_14 1_555 1_555
C25_14 C24_14 1_555 1_555
C26_14 C25_14 1_555 1_555
H20_14 C26_14 1_555 1_555
C27_14 C22_14 1_555 1_555
H21_14 C27_14 1_555 1_555
C28_15 H22_15 1_555 1_555
C29_14 C30_14 1_555 1_555
C30_14 H23_15 1_555 1_555
C31_14 C30_14 1_555 1_555
H24_14 C31_14 1_555 1_555
C32_14 C31_14 1_555 1_555
H25_14 C32_14 1_555 1_555
C33_14 C32_14 1_555 1_555
H26_14 C33_14 1_555 1_555
C34_14 C29_14 1_555 1_555
C35_15 H27_15 1_555 1_555
H28_14 C35_15 1_555 1_555
H29_15 C35_15 1_555 1_555
C36_15 C35_15 1_555 1_555
C37_15 C36_15 1_555 1_555
H30_15 C37_15 1_555 1_555
C38_15 C37_15 1_555 1_555
C39_15 C38_15 1_555 1_555
C40_15 C39_15 1_555 1_555
H31_15 C40_15 1_555 1_555
C41_15 C40_15 1_555 1_555
H32_15 C41_15 1_555 1_555
C42_15 C41_15 1_555 1_555
C43_15 C42_15 1_555 1_555
H33_15 C43_15 1_555 1_555
C44_15 C39_15 1_555 1_555
H34_15 C44_15 1_555 1_555
C45_14 H35_14 1_555 1_555
C46_15 C47_15 1_555 1_555
C47_15 H36_14 1_555 1_555
C48_15 C47_15 1_555 1_555
H37_15 C48_15 1_555 1_555
C49_15 C48_15 1_555 1_555
H38_15 C49_15 1_555 1_555
C50_15 C49_15 1_555 1_555
H39_15 C50_15 1_555 1_555
C51_15 C46_15 1_555 1_555
Co5_8 N4_15 1_555 1_555
N3_14 C25_14 1_555 1_555
N4_15 C28_15 1_555 1_555
N5_15 C42_15 1_555 1_555
N6_14 C45_14 1_555 1_555
O3_14 C19_14 1_555 1_555
O4_14 C21_14 1_555 1_555
O11_5 C36_15 1_555 1_555
O12_5 C38_15 1_555 1_555
N9_12 Co5_8 1_555 1_555
O9_12 Co5_8 1_555 1_555
O10_12 Co5_8 1_555 1_555
C26_14 C27_14 1_555 1_555
C28_15 N3_14 1_555 1_555
C29_14 N4_15 1_555 1_555
C33_14 C34_14 1_555 1_555
C34_14 N3_14 1_555 1_555
C43_15 C44_15 1_555 1_555
C45_14 N5_15 1_555 1_555
C46_15 N6_14 1_555 1_555
C50_15 C51_15 1_555 1_555
C51_15 N5_15 1_555 1_555
C1_15 H1_15 1_555 1_555
H2_15 C1_15 1_555 1_555
H3_15 C1_15 1_555 1_555
C2_15 C1_15 1_555 1_555
C3_15 C2_15 1_555 1_555
H4_15 C3_15 1_555 1_555
C4_15 C3_15 1_555 1_555
C5_15 C4_15 1_555 1_555
C6_15 C5_15 1_555 1_555
H5_15 C6_15 1_555 1_555
C7_15 C6_15 1_555 1_555
H6_15 C7_15 1_555 1_555
C8_15 C7_15 1_555 1_555
C9_15 C8_15 1_555 1_555
H7_15 C9_15 1_555 1_555
C10_15 C5_15 1_555 1_555
H8_13 C10_15 1_555 1_555
C11_14 H9_15 1_555 1_555
C12_14 C13_14 1_555 1_555
C13_14 H10_14 1_555 1_555
C14_14 C13_14 1_555 1_555
H11_14 C14_14 1_555 1_555
C15_14 C14_14 1_555 1_555
H12_14 C15_14 1_555 1_555
C16_14 C15_14 1_555 1_555
H13_14 C16_14 1_555 1_555
C17_14 C12_14 1_555 1_555
C52_14 H40_14 1_555 1_555
H41_14 C52_14 1_555 1_555
H42_14 C52_14 1_555 1_555
C53_14 C52_14 1_555 1_555
C54_14 C53_14 1_555 1_555
H43_14 C54_14 1_555 1_555
C55_14 C54_14 1_555 1_555
C56_15 C55_14 1_555 1_555
C57_15 C56_15 1_555 1_555
H44_15 C57_15 1_555 1_555
C58_15 C57_15 1_555 1_555
H45_15 C58_15 1_555 1_555
C59_15 C58_15 1_555 1_555
C60_15 C59_15 1_555 1_555
H46_15 C60_15 1_555 1_555
C61_15 C56_15 1_555 1_555
C62_15 H48_15 1_555 1_555
C63_15 C64_15 1_555 1_555
C64_15 H49_15 1_555 1_555
C65_15 C64_15 1_555 1_555
H50_15 C65_15 1_555 1_555
C66_15 C65_15 1_555 1_555
H51_15 C66_15 1_555 1_555
C67_15 C66_15 1_555 1_555
H52_15 C67_15 1_555 1_555
C68_15 C63_15 1_555 1_555
Co1_14 N2_14 1_555 1_555
N1_15 C8_15 1_555 1_555
N2_14 C11_14 1_555 1_555
N7_15 C59_15 1_555 1_555
N9_9 C62_15 1_555 1_555
O9_7 C2_15 1_555 1_555
O10_7 C4_15 1_555 1_555
O7_14 C53_14 1_555 1_555
O8_14 C55_14 1_555 1_555
C9_15 C10_15 1_555 1_555
C11_14 N1_15 1_555 1_555
C12_14 N1_15 1_555 1_555
C16_14 C17_14 1_555 1_555
C17_14 N2_14 1_555 1_555
C60_15 C61_15 1_555 1_555
C62_15 N7_15 1_555 1_555
C63_15 N9_9 1_555 1_555
C67_15 C68_15 1_555 1_555
C68_15 N7_15 1_555 1_555
Co1_14 O7_14 1_555 1_555
Co1_14 O8_14 1_555 1_555
H44_16 C57_16 1_555 1_555
C58_16 C57_16 1_555 1_555
H45_16 C58_16 1_555 1_555
C59_16 C58_16 1_555 1_555
C62_16 H48_16 1_555 1_555
N7_16 C59_16 1_555 1_555
N9_10 C62_16 1_555 1_555
C62_16 N7_16 1_555 1_555
C63_16 N9_10 1_555 1_555
H2_16 C1_16 1_555 1_555
H3_16 C1_16 1_555 1_555
H5_16 C6_16 1_555 1_555
C7_16 C6_16 1_555 1_555
H6_16 C7_16 1_555 1_555
C8_16 C7_16 1_555 1_555
C11_15 H9_16 1_555 1_555
C18_15 H14_15 1_555 1_555
H15_16 C18_15 1_555 1_555
H16_15 C18_15 1_555 1_555
C19_15 C18_15 1_555 1_555
C20_15 C19_15 1_555 1_555
H17_15 C20_15 1_555 1_555
C21_15 C20_15 1_555 1_555
C22_15 C21_15 1_555 1_555
C23_15 C22_15 1_555 1_555
H18_15 C23_15 1_555 1_555
C24_15 C23_15 1_555 1_555
H19_15 C24_15 1_555 1_555
C25_15 C24_15 1_555 1_555
C26_15 C25_15 1_555 1_555
H20_15 C26_15 1_555 1_555
C27_15 C22_15 1_555 1_555
H21_15 C27_15 1_555 1_555
C28_16 H22_16 1_555 1_555
C29_15 C30_15 1_555 1_555
C30_15 H23_16 1_555 1_555
C31_15 C30_15 1_555 1_555
H24_15 C31_15 1_555 1_555
C32_15 C31_15 1_555 1_555
H25_15 C32_15 1_555 1_555
C33_15 C32_15 1_555 1_555
H26_15 C33_15 1_555 1_555
C34_15 C29_15 1_555 1_555
C35_16 H27_16 1_555 1_555
H28_15 C35_16 1_555 1_555
H29_16 C35_16 1_555 1_555
C36_16 C35_16 1_555 1_555
C37_16 C36_16 1_555 1_555
H30_16 C37_16 1_555 1_555
C38_16 C37_16 1_555 1_555
C39_16 C38_16 1_555 1_555
C40_16 C39_16 1_555 1_555
H31_16 C40_16 1_555 1_555
C41_16 C40_16 1_555 1_555
H32_16 C41_16 1_555 1_555
C42_16 C41_16 1_555 1_555
C43_16 C42_16 1_555 1_555
H33_16 C43_16 1_555 1_555
C44_16 C39_16 1_555 1_555
C45_15 H35_15 1_555 1_555
C46_16 C47_16 1_555 1_555
C47_16 H36_15 1_555 1_555
C48_16 C47_16 1_555 1_555
H37_16 C48_16 1_555 1_555
C49_16 C48_16 1_555 1_555
H38_16 C49_16 1_555 1_555
C50_16 C49_16 1_555 1_555
H39_16 C50_16 1_555 1_555
C51_16 C46_16 1_555 1_555
H42_15 C52_15 1_555 1_555
C53_15 C52_15 1_555 1_555
C54_15 C53_15 1_555 1_555
C55_15 C54_15 1_555 1_555
C56_16 C55_15 1_555 1_555
H46_16 C60_16 1_555 1_555
C61_16 C56_16 1_555 1_555
H47_16 C61_16 1_555 1_555
C65_16 C64_16 1_555 1_555
H50_16 C65_16 1_555 1_555
C66_16 C65_16 1_555 1_555
H51_16 C66_16 1_555 1_555
C67_16 C66_16 1_555 1_555
H52_16 C67_16 1_555 1_555
Co1_15 N2_15 1_555 1_555
N1_16 C8_16 1_555 1_555
N2_15 C11_15 1_555 1_555
N3_15 C25_15 1_555 1_555
N4_16 C28_16 1_555 1_555
N5_16 C42_16 1_555 1_555
N6_15 C45_15 1_555 1_555
O3_15 C19_15 1_555 1_555
O4_15 C21_15 1_555 1_555
O5_11 C36_16 1_555 1_555
O6_11 C38_16 1_555 1_555
O7_15 C53_15 1_555 1_555
O8_15 C55_15 1_555 1_555
C11_15 N1_16 1_555 1_555
C17_15 N2_15 1_555 1_555
C26_15 C27_15 1_555 1_555
C28_16 N3_15 1_555 1_555
C29_15 N4_16 1_555 1_555
C33_15 C34_15 1_555 1_555
C34_15 N3_15 1_555 1_555
C43_16 C44_16 1_555 1_555
C45_15 N5_16 1_555 1_555
C46_16 N6_15 1_555 1_555
C50_16 C51_16 1_555 1_555
C51_16 N5_16 1_555 1_555
C60_16 C61_16 1_555 1_555
C67_16 C68_16 1_555 1_555
Co1_15 N6_15 1_555 1_555
Co1_15 O3_15 1_555 1_555
Co1_15 O4_15 1_555 1_555
Co1_15 O7_15 1_555 1_555
Co1_15 O8_15 1_555 1_555
C3_16 C2_16 1_555 1_555
C4_16 C3_16 1_555 1_555
C5_16 C4_16 1_555 1_555
H7_16 C9_16 1_555 1_555
C10_16 C5_16 1_555 1_555
H8_14 C10_16 1_555 1_555
C12_15 C13_15 1_555 1_555
C13_15 H10_15 1_555 1_555
C14_15 C13_15 1_555 1_555
H11_15 C14_15 1_555 1_555
C15_15 C14_15 1_555 1_555
H12_15 C15_15 1_555 1_555
C16_15 C15_15 1_555 1_555
O9_11 C2_16 1_555 1_555
O10_11 C4_16 1_555 1_555
C9_16 C10_16 1_555 1_555
C3_17 C2_17 1_555 1_555
C4_17 C3_17 1_555 1_555
C5_17 C4_17 1_555 1_555
H7_17 C9_17 1_555 1_555
C10_17 C5_17 1_555 1_555
H8_15 C10_17 1_555 1_555
C12_16 C13_16 1_555 1_555
C13_16 H10_16 1_555 1_555
C14_16 C13_16 1_555 1_555
H11_16 C14_16 1_555 1_555
C15_16 C14_16 1_555 1_555
H12_16 C15_16 1_555 1_555
C16_16 C15_16 1_555 1_555
O9_12 C2_17 1_555 1_555
O10_12 C4_17 1_555 1_555
C9_17 C10_17 1_555 1_555
H2_17 C1_17 1_555 1_555
H3_17 C1_17 1_555 1_555
H5_17 C6_17 1_555 1_555
C7_17 C6_17 1_555 1_555
H6_17 C7_17 1_555 1_555
C8_17 C7_17 1_555 1_555
C11_16 H9_17 1_555 1_555
C18_16 H14_16 1_555 1_555
H15_17 C18_16 1_555 1_555
H16_16 C18_16 1_555 1_555
C19_16 C18_16 1_555 1_555
C20_16 C19_16 1_555 1_555
H17_16 C20_16 1_555 1_555
C21_16 C20_16 1_555 1_555
C22_16 C21_16 1_555 1_555
C23_16 C22_16 1_555 1_555
H18_16 C23_16 1_555 1_555
C24_16 C23_16 1_555 1_555
H19_16 C24_16 1_555 1_555
C25_16 C24_16 1_555 1_555
C26_16 C25_16 1_555 1_555
H20_16 C26_16 1_555 1_555
C27_16 C22_16 1_555 1_555
H21_16 C27_16 1_555 1_555
C28_17 H22_17 1_555 1_555
C29_16 C30_16 1_555 1_555
C30_16 H23_17 1_555 1_555
C31_16 C30_16 1_555 1_555
H24_16 C31_16 1_555 1_555
C32_16 C31_16 1_555 1_555
H25_16 C32_16 1_555 1_555
C33_16 C32_16 1_555 1_555
H26_16 C33_16 1_555 1_555
C34_16 C29_16 1_555 1_555
C35_17 H27_17 1_555 1_555
H28_16 C35_17 1_555 1_555
H29_17 C35_17 1_555 1_555
C36_17 C35_17 1_555 1_555
C37_17 C36_17 1_555 1_555
H30_17 C37_17 1_555 1_555
C38_17 C37_17 1_555 1_555
C39_17 C38_17 1_555 1_555
C40_17 C39_17 1_555 1_555
H31_17 C40_17 1_555 1_555
C41_17 C40_17 1_555 1_555
H32_17 C41_17 1_555 1_555
C42_17 C41_17 1_555 1_555
C43_17 C42_17 1_555 1_555
H33_17 C43_17 1_555 1_555
C44_17 C39_17 1_555 1_555
H34_17 C44_17 1_555 1_555
C45_16 H35_16 1_555 1_555
C46_17 C47_17 1_555 1_555
C47_17 H36_16 1_555 1_555
C48_17 C47_17 1_555 1_555
H37_17 C48_17 1_555 1_555
C49_17 C48_17 1_555 1_555
H38_17 C49_17 1_555 1_555
C50_17 C49_17 1_555 1_555
H39_17 C50_17 1_555 1_555
C51_17 C46_17 1_555 1_555
C52_16 H40_16 1_555 1_555
H41_16 C52_16 1_555 1_555
H42_16 C52_16 1_555 1_555
C53_16 C52_16 1_555 1_555
C54_16 C53_16 1_555 1_555
H43_16 C54_16 1_555 1_555
C55_16 C54_16 1_555 1_555
C56_17 C55_16 1_555 1_555
C57_17 C56_17 1_555 1_555
H44_17 C57_17 1_555 1_555
C58_17 C57_17 1_555 1_555
H45_17 C58_17 1_555 1_555
C59_17 C58_17 1_555 1_555
C60_17 C59_17 1_555 1_555
H46_17 C60_17 1_555 1_555
C61_17 C56_17 1_555 1_555
H47_17 C61_17 1_555 1_555
C62_17 H48_17 1_555 1_555
C63_17 C64_17 1_555 1_555
C64_17 H49_17 1_555 1_555
C65_17 C64_17 1_555 1_555
H50_17 C65_17 1_555 1_555
C66_17 C65_17 1_555 1_555
H51_17 C66_17 1_555 1_555
C67_17 C66_17 1_555 1_555
H52_17 C67_17 1_555 1_555
C68_17 C63_17 1_555 1_555
Co1_16 N2_16 1_555 1_555
N1_17 C8_17 1_555 1_555
N2_16 C11_16 1_555 1_555
N3_16 C25_16 1_555 1_555
N4_17 C28_17 1_555 1_555
N5_17 C42_17 1_555 1_555
N6_16 C45_16 1_555 1_555
N7_17 C59_17 1_555 1_555
N9_11 C62_17 1_555 1_555
O3_16 C19_16 1_555 1_555
O4_16 C21_16 1_555 1_555
O5_12 C36_17 1_555 1_555
O6_12 C38_17 1_555 1_555
O7_16 C53_16 1_555 1_555
O8_16 C55_16 1_555 1_555
Co4_4 O5_12 1_555 1_555
C11_16 N1_17 1_555 1_555
C17_16 N2_16 1_555 1_555
C26_16 C27_16 1_555 1_555
C28_17 N3_16 1_555 1_555
C29_16 N4_17 1_555 1_555
C33_16 C34_16 1_555 1_555
C34_16 N3_16 1_555 1_555
C43_17 C44_17 1_555 1_555
C45_16 N5_17 1_555 1_555
C46_17 N6_16 1_555 1_555
C50_17 C51_17 1_555 1_555
C51_17 N5_17 1_555 1_555
C60_17 C61_17 1_555 1_555
C62_17 N7_17 1_555 1_555
C63_17 N9_11 1_555 1_555
C67_17 C68_17 1_555 1_555
C68_17 N7_17 1_555 1_555
Co1_16 N6_16 1_555 1_555
Co1_16 O3_16 1_555 1_555
Co1_16 O4_16 1_555 1_555
Co1_16 O7_16 1_555 1_555
Co1_16 O8_16 1_555 1_555
O6_12 Co4_4 1_555 1_555
C1_18 H1_18 1_555 1_555
H2_18 C1_18 1_555 1_555
H3_18 C1_18 1_555 1_555
C2_18 C1_18 1_555 1_555
C3_18 C2_18 1_555 1_555
H4_18 C3_18 1_555 1_555
C4_18 C3_18 1_555 1_555
C5_18 C4_18 1_555 1_555
C6_18 C5_18 1_555 1_555
H5_18 C6_18 1_555 1_555
C7_18 C6_18 1_555 1_555
H6_18 C7_18 1_555 1_555
C8_18 C7_18 1_555 1_555
C9_18 C8_18 1_555 1_555
H7_18 C9_18 1_555 1_555
C10_18 C5_18 1_555 1_555
H8_16 C10_18 1_555 1_555
C11_17 H9_18 1_555 1_555
C12_17 C13_17 1_555 1_555
C13_17 H10_17 1_555 1_555
C14_17 C13_17 1_555 1_555
H11_17 C14_17 1_555 1_555
C15_17 C14_17 1_555 1_555
H12_17 C15_17 1_555 1_555
C16_17 C15_17 1_555 1_555
H13_17 C16_17 1_555 1_555
C17_17 C12_17 1_555 1_555
C18_17 H14_17 1_555 1_555
H15_18 C18_17 1_555 1_555
H16_17 C18_17 1_555 1_555
C19_17 C18_17 1_555 1_555
C20_17 C19_17 1_555 1_555
H17_17 C20_17 1_555 1_555
C21_17 C20_17 1_555 1_555
C22_17 C21_17 1_555 1_555
C23_17 C22_17 1_555 1_555
H18_17 C23_17 1_555 1_555
C24_17 C23_17 1_555 1_555
H19_17 C24_17 1_555 1_555
C25_17 C24_17 1_555 1_555
C26_17 C25_17 1_555 1_555
H20_17 C26_17 1_555 1_555
C27_17 C22_17 1_555 1_555
H21_17 C27_17 1_555 1_555
C28_18 H22_18 1_555 1_555
C29_17 C30_17 1_555 1_555
C30_17 H23_18 1_555 1_555
C31_17 C30_17 1_555 1_555
H24_17 C31_17 1_555 1_555
C32_17 C31_17 1_555 1_555
H25_17 C32_17 1_555 1_555
C33_17 C32_17 1_555 1_555
H26_17 C33_17 1_555 1_555
C34_17 C29_17 1_555 1_555
C35_18 H27_18 1_555 1_555
H28_17 C35_18 1_555 1_555
H29_18 C35_18 1_555 1_555
C36_18 C35_18 1_555 1_555
C37_18 C36_18 1_555 1_555
H30_18 C37_18 1_555 1_555
C38_18 C37_18 1_555 1_555
C39_18 C38_18 1_555 1_555
C40_18 C39_18 1_555 1_555
H31_18 C40_18 1_555 1_555
C41_18 C40_18 1_555 1_555
H32_18 C41_18 1_555 1_555
C42_18 C41_18 1_555 1_555
C43_18 C42_18 1_555 1_555
H33_18 C43_18 1_555 1_555
C44_18 C39_18 1_555 1_555
C45_17 H35_17 1_555 1_555
C46_18 C47_18 1_555 1_555
C47_18 H36_17 1_555 1_555
C48_18 C47_18 1_555 1_555
H37_18 C48_18 1_555 1_555
C49_18 C48_18 1_555 1_555
H38_18 C49_18 1_555 1_555
C50_18 C49_18 1_555 1_555
H39_18 C50_18 1_555 1_555
C51_18 C46_18 1_555 1_555
H42_17 C52_17 1_555 1_555
C53_17 C52_17 1_555 1_555
C54_17 C53_17 1_555 1_555
C55_17 C54_17 1_555 1_555
C56_18 C55_17 1_555 1_555
H46_18 C60_18 1_555 1_555
C61_18 C56_18 1_555 1_555
H47_18 C61_18 1_555 1_555
C65_18 C64_18 1_555 1_555
H50_18 C65_18 1_555 1_555
C66_18 C65_18 1_555 1_555
H51_18 C66_18 1_555 1_555
C67_18 C66_18 1_555 1_555
H52_18 C67_18 1_555 1_555
Co1_17 N2_17 1_555 1_555
Co4_4 N4_18 1_555 1_555
N1_18 C8_18 1_555 1_555
N2_17 C11_17 1_555 1_555
N3_17 C25_17 1_555 1_555
N4_18 C28_18 1_555 1_555
N5_18 C42_18 1_555 1_555
N6_17 C45_17 1_555 1_555
O9_10 C2_18 1_555 1_555
O10_10 C4_18 1_555 1_555
O3_17 C19_17 1_555 1_555
O4_17 C21_17 1_555 1_555
O11_6 C36_18 1_555 1_555
O12_6 C38_18 1_555 1_555
O7_17 C53_17 1_555 1_555
O8_17 C55_17 1_555 1_555
C9_18 C10_18 1_555 1_555
C11_17 N1_18 1_555 1_555
C12_17 N1_18 1_555 1_555
C16_17 C17_17 1_555 1_555
C17_17 N2_17 1_555 1_555
C26_17 C27_17 1_555 1_555
C28_18 N3_17 1_555 1_555
C29_17 N4_18 1_555 1_555
C33_17 C34_17 1_555 1_555
C34_17 N3_17 1_555 1_555
C43_18 C44_18 1_555 1_555
C45_17 N5_18 1_555 1_555
C46_18 N6_17 1_555 1_555
C50_18 C51_18 1_555 1_555
C51_18 N5_18 1_555 1_555
C60_18 C61_18 1_555 1_555
C67_18 C68_18 1_555 1_555
Co1_17 N6_17 1_555 1_555
Co1_17 O3_17 1_555 1_555
Co1_17 O4_17 1_555 1_555
Co1_17 O7_17 1_555 1_555
Co1_17 O8_17 1_555 1_555
H44_18 C57_18 1_555 1_555
C58_18 C57_18 1_555 1_555
H45_18 C58_18 1_555 1_555
C59_18 C58_18 1_555 1_555
C62_18 H48_18 1_555 1_555
N7_18 C59_18 1_555 1_555
N9_12 C62_18 1_555 1_555
C62_18 N7_18 1_555 1_555
C63_18 N9_12 1_555 1_555
C12_18 C13_18 1_555 1_555
C13_18 H10_18 1_555 1_555
C14_18 C13_18 1_555 1_555
H11_18 C14_18 1_555 1_555
C15_18 C14_18 1_555 1_555
H12_18 C15_18 1_555 1_555
C16_18 C15_18 1_555 1_555
H13_18 C16_18 1_555 1_555
C17_18 C12_18 1_555 1_555
C18_18 H14_18 1_555 1_555
H16_18 C18_18 1_555 1_555
C19_18 C18_18 1_555 1_555
C20_18 C19_18 1_555 1_555
H17_18 C20_18 1_555 1_555
C21_18 C20_18 1_555 1_555
C22_18 C21_18 1_555 1_555
C23_18 C22_18 1_555 1_555
H18_18 C23_18 1_555 1_555
C24_18 C23_18 1_555 1_555
H19_18 C24_18 1_555 1_555
C25_18 C24_18 1_555 1_555
C26_18 C25_18 1_555 1_555
H20_18 C26_18 1_555 1_555
C27_18 C22_18 1_555 1_555
H21_18 C27_18 1_555 1_555
C29_18 C30_18 1_555 1_555
C31_18 C30_18 1_555 1_555
H24_18 C31_18 1_555 1_555
C32_18 C31_18 1_555 1_555
H25_18 C32_18 1_555 1_555
C33_18 C32_18 1_555 1_555
H26_18 C33_18 1_555 1_555
C34_18 C29_18 1_555 1_555
C45_18 H35_18 1_555 1_555
C52_18 H40_18 1_555 1_555
H41_18 C52_18 1_555 1_555
H42_18 C52_18 1_555 1_555
C53_18 C52_18 1_555 1_555
C54_18 C53_18 1_555 1_555
H43_18 C54_18 1_555 1_555
C55_18 C54_18 1_555 1_555
Co1_18 N2_18 1_555 1_555
N2_18 C11_18 1_555 1_555
N3_18 C25_18 1_555 1_555
N6_18 C45_18 1_555 1_555
O3_18 C19_18 1_555 1_555
O4_18 C21_18 1_555 1_555
O7_18 C53_18 1_555 1_555
O8_18 C55_18 1_555 1_555
C16_18 C17_18 1_555 1_555
C17_18 N2_18 1_555 1_555
C26_18 C27_18 1_555 1_555
C33_18 C34_18 1_555 1_555
C34_18 N3_18 1_555 1_555
Co1_18 N6_18 1_555 1_555
Co1_18 O3_18 1_555 1_555
Co1_18 O4_18 1_555 1_555
Co1_18 O7_18 1_555 1_555
Co1_18 O8_18 1_555 1_555

#END
