
###############################################################################
#
# This file contains modified crystal structure data generated from the
# MOF subset of the Cambridge Structural Database (CSD) v543 
# hosted by the Cambridge Crystallographic Data Centre (CCDC).
#
# This work is licensed under the Creative Commons
# Attribution-NonCommercial-ShareAlike 4.0 International License.
# To view a copy of this license, visit
# http://creativecommons.org/licenses/by-nc-sa/4.0/
# or send a letter to
# Creative Commons, PO Box 1866, Mountain View, CA 94042, USA.
#
# CIF created using the CSD Python API on 29 September 2022
# The structure has been converted into the P1 space group
# The structure has a 3D framework
# The original CSD entry EBEMII is in the monoclinic crystal system
# The framework has been calculated to contain at least 10.0% void space
# The void calculation uses a probe of radius 1.32A, grid spacing 0.4
#
###############################################################################

data_EBEMII
_chemical_formula_moiety         '(C148 H96 Cd8 N32 O32)n'
_symmetry_cell_setting           triclinic
_symmetry_space_group_name_H-M   'P 1'
_symmetry_Int_Tables_number      1
_space_group_name_Hall           'P 1'
loop_
_symmetry_equiv_pos_site_id
_symmetry_equiv_pos_as_xyz
1 x,y,z
_cell_length_a                   25.65(1)
_cell_length_b                   11.215(5)
_cell_length_c                   13.983(9)
_cell_angle_alpha                90
_cell_angle_beta                 105.6(1)
_cell_angle_gamma                90
_cell_volume                     3874.24
loop_
_atom_site_label
_atom_site_type_symbol
_atom_site_fract_x
_atom_site_fract_y
_atom_site_fract_z
N1 N 0.3294(6) 0.240(1) 0.0171(9)
N2 N 0.2990(4) 0.0222(10) 0.0857(7)
C3 C 0.3169(7) 0.117(2) 0.148(1)
C4 C 0.3297(9) 0.225(1) 0.112(1)
H1 H 0.3205 0.1085 0.2167
H2 H 0.3392 0.2902 0.1565
O11 O 0.2374(3) 0.6539(7) 0.0436(6)
Cd1 Cd 0.27574(3) 0.17890(9) 0.63277(7)
O1 O 0.2824(5) 0.212(1) 0.7949(7)
O2 O 0.3583(7) 0.119(1) 0.833(1)
N3 N 0.3598(4) 0.258(1) 0.6357(8)
N4 N 0.6880(4) 0.6096(10) 0.6276(8)
C1 C 0.3159(5) 0.144(1) 0.9588(10)
C2 C 0.2983(5) 0.038(1) 0.9896(9)
C5 C 0.3195(8) 0.159(1) 0.854(1)
C7 C 0.3693(5) 0.375(1) 0.6295(10)
C8 C 0.4177(5) 0.423(1) 0.623(1)
C9 C 0.4597(5) 0.348(2) 0.622(1)
C10 C 0.4516(5) 0.226(2) 0.630(1)
C11 C 0.4009(5) 0.186(1) 0.635(1)
C12 C 0.5858(5) 0.538(1) 0.6246(9)
C13 C 0.5973(5) 0.661(1) 0.625(1)
C14 C 0.6492(5) 0.691(1) 0.6263(10)
C15 C 0.6765(5) 0.495(1) 0.628(1)
C16 C 0.6257(6) 0.457(1) 0.627(1)
C17 C 0.5117(7) 0.386(2) 0.623(2)
C18 C 0.5288(6) 0.500(2) 0.622(1)
H3 H 0.3406 0.4289 0.6297
H4 H 0.4218 0.5066 0.6187
H5 H 0.4799 0.1704 0.6309
H6 H 0.3954 0.1029 0.6389
H7 H 0.5705 0.7201 0.6241
H8 H 0.6583 0.7728 0.6264
H9 H 0.7039 0.4382 0.6282
H10 H 0.6183 0.3745 0.6280
H11 H 0.5377 0.3257 0.6234
H12 H 0.5029 0.5609 0.6196
O5 O 0.2176(5) 0.712(1) 0.7051(7)
O6 O 0.1417(7) 0.619(1) 0.667(1)
O7 O 0.2304(9) 0.453(1) 0.6663(9)
O8 O 0.2374(3) 0.3461(7) 0.5436(6)
N5 N 0.1706(6) 0.740(1) 0.4829(9)
N6 N 0.2010(4) 0.5222(10) 0.4143(7)
C19 C 0.1841(5) 0.644(1) 0.5412(10)
C20 C 0.2017(5) 0.538(1) 0.5104(9)
C21 C 0.1831(7) 0.617(2) 0.352(1)
C22 C 0.1703(9) 0.725(1) 0.388(1)
C23 C 0.1805(8) 0.659(1) 0.646(1)
C24 C 0.2264(7) 0.440(1) 0.583(1)
H13 H 0.1795 0.6085 0.2833
H14 H 0.1608 0.7902 0.3435
N8 N 0.1880(4) 0.1096(10) 0.6276(8)
C30 C 0.0858(5) 0.038(1) 0.6246(9)
C31 C 0.0973(5) 0.161(1) 0.625(1)
C32 C 0.1492(5) 0.191(1) 0.6263(10)
C36 C 0.0288(6) 0.000(2) 0.622(1)
H19 H 0.0705 0.2201 0.6241
H20 H 0.1583 0.2728 0.6264
H24 H 0.0029 0.0609 0.6196
Cd2 Cd 0.22426(3) 0.67890(9) 0.86723(7)
O9 O 0.2626(3) 0.1539(7) 0.4564(6)
Cd5 Cd 0.77574(3) 0.67890(9) 0.63277(7)
Cd6 Cd 0.22426(3) 0.32110(9) 0.36723(7)
O10 O 0.2626(3) 0.8461(7) 0.9564(6)
N10 N 0.2010(4) 0.4778(10) 0.9143(7)
N11 N 0.1402(4) 0.758(1) 0.8643(8)
N12 N 0.3120(4) 0.6096(10) 0.8724(8)
Cd3 Cd 0.27574(3) 0.82110(9) 0.13277(7)
O3 O 0.2696(9) 0.953(1) 0.8337(9)
C6 C 0.2736(7) 0.940(1) 0.917(1)
C33 C 0.1765(5) 0.995(1) 0.628(1)
C34 C 0.1257(6) 0.957(1) 0.627(1)
C35 C 0.0117(7) 0.886(2) 0.623(2)
C36_2 C 0.0288(6) 1.000(2) 0.622(1)
H21 H 0.2039 0.9382 0.6282
H22 H 0.1183 0.8745 0.6280
H23 H 0.0377 0.8257 0.6234
N9 N 0.2990(4) 0.9778(10) 0.5857(7)
H16 H 0.9218 0.0066 0.6187
N7 N 0.8598(4) 0.758(1) 0.6357(8)
C25 C 0.8693(5) 0.875(1) 0.6295(10)
C26 C 0.9177(5) 0.923(1) 0.623(1)
C27 C 0.9597(5) 0.848(2) 0.622(1)
C28 C 0.9516(5) 0.726(2) 0.630(1)
C29 C 0.9009(5) 0.686(1) 0.635(1)
H15 H 0.8406 0.9289 0.6297
H17 H 0.9799 0.6704 0.6309
H18 H 0.8954 0.6029 0.6389
O11_2 O 0.7374(3) 0.1539(7) 0.0436(6)
O5_2 O 0.7176(5) 0.212(1) 0.7051(7)
O6_2 O 0.6417(7) 0.119(1) 0.667(1)
N5_2 N 0.6706(6) 0.240(1) 0.4829(9)
N6_2 N 0.7010(4) 0.0222(10) 0.4143(7)
C19_2 C 0.6841(5) 0.144(1) 0.5412(10)
C20_2 C 0.7017(5) 0.038(1) 0.5104(9)
C21_2 C 0.6831(7) 0.117(2) 0.352(1)
C22_2 C 0.6703(9) 0.225(1) 0.388(1)
C23_2 C 0.6805(8) 0.159(1) 0.646(1)
H13_2 H 0.6795 0.1085 0.2833
H14_2 H 0.6608 0.2902 0.3435
Cd2_2 Cd 0.72426(3) 0.17890(9) 0.86723(7)
O10_2 O 0.7626(3) 0.3461(7) 0.9564(6)
N11_2 N 0.6402(4) 0.258(1) 0.8643(8)
N12_2 N 0.8120(4) 0.1096(10) 0.8724(8)
N1_2 N 0.8294(6) 0.740(1) 0.0171(9)
N2_2 N 0.7990(4) 0.5222(10) 0.0857(7)
C3_2 C 0.8169(7) 0.617(2) 0.148(1)
C4_2 C 0.8297(9) 0.725(1) 0.112(1)
H1_2 H 0.8205 0.6085 0.2167
H2_2 H 0.8392 0.7902 0.1565
Cd3_2 Cd 0.77574(3) 0.32110(9) 0.13277(7)
O1_2 O 0.7824(5) 0.712(1) 0.7949(7)
O2_2 O 0.8583(7) 0.619(1) 0.833(1)
O3_2 O 0.7696(9) 0.453(1) 0.8337(9)
C1_2 C 0.8159(5) 0.644(1) 0.9588(10)
C2_2 C 0.7983(5) 0.538(1) 0.9896(9)
C5_2 C 0.8195(8) 0.659(1) 0.854(1)
C6_2 C 0.7736(7) 0.440(1) 0.917(1)
O7_2 O 0.7304(9) 0.953(1) 0.6663(9)
O8_2 O 0.7374(3) 0.8461(7) 0.5436(6)
C24_2 C 0.7264(7) 0.940(1) 0.583(1)
O9_2 O 0.7626(3) 0.6539(7) 0.4564(6)
N9_2 N 0.7990(4) 0.4778(10) 0.5857(7)
Cd6_2 Cd 0.72426(3) 0.82110(9) 0.36723(7)
N10_2 N 0.7010(4) 0.9778(10) 0.9143(7)
H16_2 H 0.0782 0.0066 0.8813
C25_2 C 0.1307(5) 0.875(1) 0.8705(10)
C26_2 C 0.0823(5) 0.923(1) 0.877(1)
C27_2 C 0.0403(5) 0.848(2) 0.878(1)
C28_2 C 0.0484(5) 0.726(2) 0.870(1)
C29_2 C 0.0991(5) 0.686(1) 0.865(1)
H15_2 H 0.1594 0.9289 0.8703
H17_2 H 0.0201 0.6704 0.8691
H18_2 H 0.1046 0.6029 0.8611
C7_2 C 0.6307(5) 0.375(1) 0.8705(10)
C8_2 C 0.5823(5) 0.423(1) 0.877(1)
C9_2 C 0.5403(5) 0.348(2) 0.878(1)
C10_2 C 0.5484(5) 0.226(2) 0.870(1)
C11_2 C 0.5991(5) 0.186(1) 0.865(1)
C12_2 C 0.4142(5) 0.538(1) 0.8754(9)
C13_2 C 0.4027(5) 0.661(1) 0.875(1)
C14_2 C 0.3508(5) 0.691(1) 0.8737(10)
C15_2 C 0.3235(5) 0.495(1) 0.872(1)
C16_2 C 0.3743(6) 0.457(1) 0.873(1)
C17_2 C 0.4883(7) 0.386(2) 0.877(2)
C18_2 C 0.4712(6) 0.500(2) 0.878(1)
H3_2 H 0.6594 0.4289 0.8703
H4_2 H 0.5782 0.5066 0.8813
H5_2 H 0.5201 0.1704 0.8691
H6_2 H 0.6046 0.1029 0.8611
H7_2 H 0.4295 0.7201 0.8759
H8_2 H 0.3417 0.7728 0.8736
H9_2 H 0.2961 0.4382 0.8718
H10_2 H 0.3817 0.3745 0.8720
H11_2 H 0.4623 0.3257 0.8766
H12_2 H 0.4971 0.5609 0.8804
C30_2 C 0.9142(5) 0.038(1) 0.8754(9)
C31_2 C 0.9027(5) 0.161(1) 0.875(1)
C32_2 C 0.8508(5) 0.191(1) 0.8737(10)
C36_3 C 0.9712(6) -0.000(2) 0.878(1)
H19_2 H 0.9295 0.2201 0.8759
H20_2 H 0.8417 0.2728 0.8736
H24_2 H 0.9971 0.0609 0.8804
C33_2 C 0.8235(5) 0.995(1) 0.872(1)
C34_2 C 0.8743(6) 0.957(1) 0.873(1)
C35_2 C 0.9883(7) 0.886(2) 0.877(2)
C36_4 C 0.9712(6) 1.000(2) 0.878(1)
H21_2 H 0.7961 0.9382 0.8718
H22_2 H 0.8817 0.8745 0.8720
H23_2 H 0.9623 0.8257 0.8766
N7_2 N 0.1402(4) 0.242(1) 0.3643(8)
C25_3 C 0.1307(5) 0.125(1) 0.3705(10)
C26_3 C 0.0823(5) 0.077(1) 0.377(1)
C27_3 C 0.0403(5) 0.152(2) 0.378(1)
C28_3 C 0.0484(5) 0.274(2) 0.370(1)
C29_3 C 0.0991(5) 0.314(1) 0.365(1)
H15_3 H 0.1594 0.0711 0.3703
H17_3 H 0.0201 0.3296 0.3691
H18_3 H 0.1046 0.3971 0.3611
H16_3 H 0.0782 0.9934 0.3813
O3_3 O 0.7304(9) 0.047(1) 0.1663(9)
C6_3 C 0.7264(7) 0.060(1) 0.083(1)
C33_3 C 0.8235(5) 0.005(1) 0.372(1)
C34_3 C 0.8743(6) 0.043(1) 0.373(1)
C35_3 C 0.9883(7) 0.114(2) 0.377(2)
C36_5 C 0.9712(6) 0.000(2) 0.378(1)
H21_3 H 0.7961 0.0618 0.3718
H22_3 H 0.8817 0.1255 0.3720
H23_3 H 0.9623 0.1743 0.3766
O1_3 O 0.7176(5) 0.788(1) 0.2051(7)
O2_3 O 0.6417(7) 0.881(1) 0.167(1)
N3_2 N 0.6402(4) 0.742(1) 0.3643(8)
N4_2 N 0.3120(4) 0.3904(10) 0.3724(8)
C1_3 C 0.6841(5) 0.856(1) 0.0412(10)
C2_3 C 0.7017(5) 0.962(1) 0.0104(9)
C5_3 C 0.6805(8) 0.841(1) 0.146(1)
C7_3 C 0.6307(5) 0.625(1) 0.3705(10)
C8_3 C 0.5823(5) 0.577(1) 0.377(1)
C9_3 C 0.5403(5) 0.652(2) 0.378(1)
C10_3 C 0.5484(5) 0.774(2) 0.370(1)
C11_3 C 0.5991(5) 0.814(1) 0.365(1)
C12_3 C 0.4142(5) 0.462(1) 0.3754(9)
C13_3 C 0.4027(5) 0.339(1) 0.375(1)
C14_3 C 0.3508(5) 0.309(1) 0.3737(10)
C15_3 C 0.3235(5) 0.505(1) 0.372(1)
C16_3 C 0.3743(6) 0.543(1) 0.373(1)
C17_3 C 0.4883(7) 0.614(2) 0.377(2)
C18_3 C 0.4712(6) 0.500(2) 0.378(1)
H3_3 H 0.6594 0.5711 0.3703
H4_3 H 0.5782 0.4934 0.3813
H5_3 H 0.5201 0.8296 0.3691
H6_3 H 0.6046 0.8971 0.3611
H7_3 H 0.4295 0.2799 0.3759
H8_3 H 0.3417 0.2272 0.3736
H9_3 H 0.2961 0.5618 0.3718
H10_3 H 0.3817 0.6255 0.3720
H11_3 H 0.4623 0.6743 0.3766
H12_3 H 0.4971 0.4391 0.3804
O5_3 O 0.7824(5) 0.288(1) 0.2949(7)
O6_3 O 0.8583(7) 0.381(1) 0.333(1)
O7_3 O 0.7696(9) 0.547(1) 0.3337(9)
N5_3 N 0.8294(6) 0.260(1) 0.5171(9)
C19_3 C 0.8159(5) 0.356(1) 0.4588(10)
C20_3 C 0.7983(5) 0.462(1) 0.4896(9)
C21_3 C 0.8169(7) 0.383(2) 0.648(1)
C22_3 C 0.8297(9) 0.275(1) 0.612(1)
C23_3 C 0.8195(8) 0.341(1) 0.354(1)
C24_3 C 0.7736(7) 0.560(1) 0.417(1)
H13_3 H 0.8205 0.3915 0.7167
H14_3 H 0.8392 0.2098 0.6565
N8_2 N 0.8120(4) 0.8904(10) 0.3724(8)
C30_3 C 0.9142(5) 0.962(1) 0.3754(9)
C31_3 C 0.9027(5) 0.839(1) 0.375(1)
C32_3 C 0.8508(5) 0.809(1) 0.3737(10)
C36_6 C 0.9712(6) 1.000(2) 0.378(1)
H19_3 H 0.9295 0.7799 0.3759
H20_3 H 0.8417 0.7272 0.3736
H24_3 H 0.9971 0.9391 0.3804
N11_3 N 0.8598(4) 0.242(1) 0.1357(8)
N12_3 N 0.6880(4) 0.3904(10) 0.1276(8)
N1_3 N 0.6706(6) 0.760(1) 0.9829(9)
C3_3 C 0.6831(7) 0.883(2) 0.852(1)
C4_3 C 0.6703(9) 0.775(1) 0.888(1)
H1_3 H 0.6795 0.8915 0.7833
H2_3 H 0.6608 0.7098 0.8435
O1_4 O 0.2176(5) 0.288(1) 0.2051(7)
O2_4 O 0.1417(7) 0.381(1) 0.167(1)
O3_4 O 0.2304(9) 0.547(1) 0.1663(9)
C1_4 C 0.1841(5) 0.356(1) 0.0412(10)
C2_4 C 0.2017(5) 0.462(1) 0.0104(9)
C5_4 C 0.1805(8) 0.341(1) 0.146(1)
C6_4 C 0.2264(7) 0.560(1) 0.083(1)
O7_4 O 0.2696(9) 0.047(1) 0.3337(9)
C24_4 C 0.2736(7) 0.060(1) 0.417(1)
N1_4 N 0.1706(6) 0.260(1) 0.9829(9)
C3_4 C 0.1831(7) 0.383(2) 0.852(1)
C4_4 C 0.1703(9) 0.275(1) 0.888(1)
H1_4 H 0.1795 0.3915 0.7833
H2_4 H 0.1608 0.2098 0.8435
O5_4 O 0.2824(5) 0.788(1) 0.2949(7)
O6_4 O 0.3583(7) 0.881(1) 0.333(1)
N5_4 N 0.3294(6) 0.760(1) 0.5171(9)
C19_4 C 0.3159(5) 0.856(1) 0.4588(10)
C20_4 C 0.2983(5) 0.962(1) 0.4896(9)
C21_4 C 0.3169(7) 0.883(2) 0.648(1)
C22_4 C 0.3297(9) 0.775(1) 0.612(1)
C23_4 C 0.3195(8) 0.841(1) 0.354(1)
H13_4 H 0.3205 0.8915 0.7167
H14_4 H 0.3392 0.7098 0.6565
N11_4 N 0.3598(4) 0.742(1) 0.1357(8)
N12_4 N 0.1880(4) 0.8904(10) 0.1276(8)
C33_4 C 0.1765(5) 0.005(1) 0.128(1)
C34_4 C 0.1257(6) 0.043(1) 0.127(1)
C35_4 C 0.0117(7) 0.114(2) 0.123(2)
C36_7 C 0.0288(6) 0.000(2) 0.122(1)
H21_4 H 0.2039 0.0618 0.1282
H22_4 H 0.1183 0.1255 0.1280
H23_4 H 0.0377 0.1743 0.1234
C7_4 C 0.3693(5) 0.625(1) 0.1295(10)
C8_4 C 0.4177(5) 0.577(1) 0.123(1)
C9_4 C 0.4597(5) 0.652(2) 0.122(1)
C10_4 C 0.4516(5) 0.774(2) 0.130(1)
C11_4 C 0.4009(5) 0.814(1) 0.135(1)
C12_4 C 0.5858(5) 0.462(1) 0.1246(9)
C13_4 C 0.5973(5) 0.339(1) 0.125(1)
C14_4 C 0.6492(5) 0.309(1) 0.1263(10)
C15_4 C 0.6765(5) 0.505(1) 0.128(1)
C16_4 C 0.6257(6) 0.543(1) 0.127(1)
C17_4 C 0.5117(7) 0.614(2) 0.123(2)
C18_4 C 0.5288(6) 0.500(2) 0.122(1)
H3_4 H 0.3406 0.5711 0.1297
H4_4 H 0.4218 0.4934 0.1187
H5_4 H 0.4799 0.8296 0.1309
H6_4 H 0.3954 0.8971 0.1389
H7_4 H 0.5705 0.2799 0.1241
H8_4 H 0.6583 0.2272 0.1264
H9_4 H 0.7039 0.5618 0.1282
H10_4 H 0.6183 0.6255 0.1280
H11_4 H 0.5377 0.6743 0.1234
H12_4 H 0.5029 0.4391 0.1196
C30_4 C 0.0858(5) 0.962(1) 0.1246(9)
C31_4 C 0.0973(5) 0.839(1) 0.125(1)
C32_4 C 0.1492(5) 0.809(1) 0.1263(10)
C36_8 C 0.0288(6) 1.000(2) 0.122(1)
H19_4 H 0.0705 0.7799 0.1241
H20_4 H 0.1583 0.7272 0.1264
H24_4 H 0.0029 0.9391 0.1196
C25_4 C 0.8693(5) 0.125(1) 0.1295(10)
C26_4 C 0.9177(5) 0.077(1) 0.123(1)
C27_4 C 0.9597(5) 0.152(2) 0.122(1)
C28_4 C 0.9516(5) 0.274(2) 0.130(1)
C29_4 C 0.9009(5) 0.314(1) 0.135(1)
H15_4 H 0.8406 0.0711 0.1297
H17_4 H 0.9799 0.3296 0.1309
H18_4 H 0.8954 0.3971 0.1389
H16_4 H 0.9218 0.9934 0.1187
loop_
_geom_bond_atom_site_label_1
_geom_bond_atom_site_label_2
_geom_bond_site_symmetry_1
_geom_bond_site_symmetry_2
C3 N2 1_555 1_555
C4 N1 1_555 1_555
H1 C3 1_555 1_555
H2 C4 1_555 1_555
C3 C4 1_555 1_555
Cd1 O1 1_555 1_555
O1 C5 1_555 1_555
O2 C5 1_555 1_555
N3 Cd1 1_555 1_555
N4 C14 1_555 1_555
C1 C2 1_555 1_555
C5 C1 1_555 1_555
C7 N3 1_555 1_555
C8 C7 1_555 1_555
C9 C8 1_555 1_555
C10 C9 1_555 1_555
C11 N3 1_555 1_555
C12 C13 1_555 1_555
C13 C14 1_555 1_555
C14 H8 1_555 1_555
C15 N4 1_555 1_555
C16 C12 1_555 1_555
C17 C9 1_555 1_555
C18 C12 1_555 1_555
H3 C7 1_555 1_555
H4 C8 1_555 1_555
H5 C10 1_555 1_555
H6 C11 1_555 1_555
H7 C13 1_555 1_555
H9 C15 1_555 1_555
H10 C16 1_555 1_555
H11 C17 1_555 1_555
H12 C18 1_555 1_555
O5 C23 1_555 1_555
O6 C23 1_555 1_555
O7 C24 1_555 1_555
O8 Cd1 1_555 1_555
N5 C19 1_555 1_555
N6 C20 1_555 1_555
C19 C20 1_555 1_555
C20 C24 1_555 1_555
C21 N6 1_555 1_555
C22 N5 1_555 1_555
C23 C19 1_555 1_555
C24 O8 1_555 1_555
H13 C21 1_555 1_555
H14 C22 1_555 1_555
N8 Cd1 1_555 1_555
C30 C31 1_555 1_555
C31 C32 1_555 1_555
C32 N8 1_555 1_555
C36 C30 1_555 1_555
H19 C31 1_555 1_555
H20 C32 1_555 1_555
H24 C36 1_555 1_555
Cd2 O5 1_555 1_555
O9 Cd1 1_555 1_555
Cd5 N4 1_555 1_555
Cd6 O8 1_555 1_555
O10 Cd2 1_555 1_555
N10 Cd2 1_555 1_555
N11 Cd2 1_555 1_555
N12 Cd2 1_555 1_555
C10 C11 1_555 1_555
C15 C16 1_555 1_555
C17 C18 1_555 1_555
N6 Cd6 1_555 1_555
C21 C22 1_555 1_555
O9 Cd6 1_555 1_555
O3 C6 1_555 1_555
O10 C6 1_555 1_555
H21 C33 1_555 1_555
H22 C34 1_555 1_555
H23 C35 1_555 1_555
C33 C34 1_555 1_555
C35 C36_2 1_555 1_555
N7 C25 1_555 1_555
C25 C26 1_555 1_555
C26 C27 1_555 1_555
C27 C28 1_555 1_555
C28 C29 1_555 1_555
C29 N7 1_555 1_555
H15 C25 1_555 1_555
H17 C28 1_555 1_555
H18 C29 1_555 1_555
Cd5 N7 1_555 1_555
O5_2 C23_2 1_555 1_555
O6_2 C23_2 1_555 1_555
N5_2 C19_2 1_555 1_555
N6_2 C20_2 1_555 1_555
C19_2 C20_2 1_555 1_555
C21_2 N6_2 1_555 1_555
C22_2 N5_2 1_555 1_555
C23_2 C19_2 1_555 1_555
H13_2 C21_2 1_555 1_555
H14_2 C22_2 1_555 1_555
Cd2_2 O5_2 1_555 1_555
O10_2 Cd2_2 1_555 1_555
N11_2 Cd2_2 1_555 1_555
N12_2 Cd2_2 1_555 1_555
C21_2 C22_2 1_555 1_555
C3_2 N2_2 1_555 1_555
C4_2 N1_2 1_555 1_555
H1_2 C3_2 1_555 1_555
H2_2 C4_2 1_555 1_555
N2_2 Cd3_2 1_555 1_555
C3_2 C4_2 1_555 1_555
Cd5 O1_2 1_555 1_555
O1_2 C5_2 1_555 1_555
O2_2 C5_2 1_555 1_555
O3_2 C6_2 1_555 1_555
O10_2 C6_2 1_555 1_555
C1_2 C2_2 1_555 1_555
C2_2 C6_2 1_555 1_555
C5_2 C1_2 1_555 1_555
O7_2 C24_2 1_555 1_555
O8_2 Cd5 1_555 1_555
C24_2 O8_2 1_555 1_555
O9_2 Cd5 1_555 1_555
N9_2 Cd5 1_555 1_555
Cd6_2 O8_2 1_555 1_555
O9_2 Cd6_2 1_555 1_555
N11 C25_2 1_555 1_555
C25_2 C26_2 1_555 1_555
C26_2 C27_2 1_555 1_555
C27_2 C28_2 1_555 1_555
C28_2 C29_2 1_555 1_555
C29_2 N11 1_555 1_555
H15_2 C25_2 1_555 1_555
H17_2 C28_2 1_555 1_555
H18_2 C29_2 1_555 1_555
O11_2 Cd3_2 1_555 1_555
N12 C14_2 1_555 1_555
C7_2 N11_2 1_555 1_555
C8_2 C7_2 1_555 1_555
C9_2 C8_2 1_555 1_555
C10_2 C9_2 1_555 1_555
C11_2 N11_2 1_555 1_555
C12_2 C13_2 1_555 1_555
C13_2 C14_2 1_555 1_555
C14_2 H8_2 1_555 1_555
C15_2 N12 1_555 1_555
C16_2 C12_2 1_555 1_555
C17_2 C9_2 1_555 1_555
C18_2 C12_2 1_555 1_555
H3_2 C7_2 1_555 1_555
H4_2 C8_2 1_555 1_555
H5_2 C10_2 1_555 1_555
H6_2 C11_2 1_555 1_555
H7_2 C13_2 1_555 1_555
H9_2 C15_2 1_555 1_555
H10_2 C16_2 1_555 1_555
H11_2 C17_2 1_555 1_555
H12_2 C18_2 1_555 1_555
C30_2 C31_2 1_555 1_555
C31_2 C32_2 1_555 1_555
C32_2 N12_2 1_555 1_555
C36_3 C30_2 1_555 1_555
H19_2 C31_2 1_555 1_555
H20_2 C32_2 1_555 1_555
H24_2 C36_3 1_555 1_555
C10_2 C11_2 1_555 1_555
C15_2 C16_2 1_555 1_555
C17_2 C18_2 1_555 1_555
H21_2 C33_2 1_555 1_555
H22_2 C34_2 1_555 1_555
H23_2 C35_2 1_555 1_555
C33_2 C34_2 1_555 1_555
C35_2 C36_4 1_555 1_555
O11 Cd3 1_555 1_555
N7_2 C25_3 1_555 1_555
C25_3 C26_3 1_555 1_555
C26_3 C27_3 1_555 1_555
C27_3 C28_3 1_555 1_555
C28_3 C29_3 1_555 1_555
C29_3 N7_2 1_555 1_555
H15_3 C25_3 1_555 1_555
H17_3 C28_3 1_555 1_555
H18_3 C29_3 1_555 1_555
Cd6 N7_2 1_555 1_555
O3_3 C6_3 1_555 1_555
O11_2 C6_3 1_555 1_555
H21_3 C33_3 1_555 1_555
H22_3 C34_3 1_555 1_555
H23_3 C35_3 1_555 1_555
C33_3 C34_3 1_555 1_555
C35_3 C36_5 1_555 1_555
Cd6_2 O1_3 1_555 1_555
O1_3 C5_3 1_555 1_555
O2_3 C5_3 1_555 1_555
N3_2 Cd6_2 1_555 1_555
N4_2 C14_3 1_555 1_555
C1_3 C2_3 1_555 1_555
C5_3 C1_3 1_555 1_555
C7_3 N3_2 1_555 1_555
C8_3 C7_3 1_555 1_555
C9_3 C8_3 1_555 1_555
C10_3 C9_3 1_555 1_555
C11_3 N3_2 1_555 1_555
C12_3 C13_3 1_555 1_555
C13_3 C14_3 1_555 1_555
C14_3 H8_3 1_555 1_555
C15_3 N4_2 1_555 1_555
C16_3 C12_3 1_555 1_555
C17_3 C9_3 1_555 1_555
C18_3 C12_3 1_555 1_555
H3_3 C7_3 1_555 1_555
H4_3 C8_3 1_555 1_555
H5_3 C10_3 1_555 1_555
H6_3 C11_3 1_555 1_555
H7_3 C13_3 1_555 1_555
H9_3 C15_3 1_555 1_555
H10_3 C16_3 1_555 1_555
H11_3 C17_3 1_555 1_555
H12_3 C18_3 1_555 1_555
O5_3 C23_3 1_555 1_555
O6_3 C23_3 1_555 1_555
O7_3 C24_3 1_555 1_555
N5_3 C19_3 1_555 1_555
N9_2 C20_3 1_555 1_555
C19_3 C20_3 1_555 1_555
C20_3 C24_3 1_555 1_555
C21_3 N9_2 1_555 1_555
C22_3 N5_3 1_555 1_555
C23_3 C19_3 1_555 1_555
C24_3 O9_2 1_555 1_555
H13_3 C21_3 1_555 1_555
H14_3 C22_3 1_555 1_555
N8_2 Cd6_2 1_555 1_555
C30_3 C31_3 1_555 1_555
C31_3 C32_3 1_555 1_555
C32_3 N8_2 1_555 1_555
C36_6 C30_3 1_555 1_555
H19_3 C31_3 1_555 1_555
H20_3 C32_3 1_555 1_555
H24_3 C36_6 1_555 1_555
Cd3_2 O5_3 1_555 1_555
Cd6 N4_2 1_555 1_555
N11_3 Cd3_2 1_555 1_555
N12_3 Cd3_2 1_555 1_555
C10_3 C11_3 1_555 1_555
C15_3 C16_3 1_555 1_555
C17_3 C18_3 1_555 1_555
C21_3 C22_3 1_555 1_555
C3_3 N10_2 1_555 1_555
C4_3 N1_3 1_555 1_555
H1_3 C3_3 1_555 1_555
H2_3 C4_3 1_555 1_555
C3_3 C4_3 1_555 1_555
Cd6 O1_4 1_555 1_555
O1_4 C5_4 1_555 1_555
O2_4 C5_4 1_555 1_555
O3_4 C6_4 1_555 1_555
O11 C6_4 1_555 1_555
C1_4 C2_4 1_555 1_555
C2_4 C6_4 1_555 1_555
C5_4 C1_4 1_555 1_555
O7_4 C24_4 1_555 1_555
C24_4 O9 1_555 1_555
C3_4 N10 1_555 1_555
C4_4 N1_4 1_555 1_555
H1_4 C3_4 1_555 1_555
H2_4 C4_4 1_555 1_555
C3_4 C4_4 1_555 1_555
O5_4 C23_4 1_555 1_555
O6_4 C23_4 1_555 1_555
N5_4 C19_4 1_555 1_555
N9 C20_4 1_555 1_555
C19_4 C20_4 1_555 1_555
C21_4 N9 1_555 1_555
C22_4 N5_4 1_555 1_555
C23_4 C19_4 1_555 1_555
H13_4 C21_4 1_555 1_555
H14_4 C22_4 1_555 1_555
Cd3 O5_4 1_555 1_555
N11_4 Cd3 1_555 1_555
N12_4 Cd3 1_555 1_555
C21_4 C22_4 1_555 1_555
H21_4 C33_4 1_555 1_555
H22_4 C34_4 1_555 1_555
H23_4 C35_4 1_555 1_555
C33_4 C34_4 1_555 1_555
C35_4 C36_7 1_555 1_555
N12_3 C14_4 1_555 1_555
C7_4 N11_4 1_555 1_555
C8_4 C7_4 1_555 1_555
C9_4 C8_4 1_555 1_555
C10_4 C9_4 1_555 1_555
C11_4 N11_4 1_555 1_555
C12_4 C13_4 1_555 1_555
C13_4 C14_4 1_555 1_555
C14_4 H8_4 1_555 1_555
C15_4 N12_3 1_555 1_555
C16_4 C12_4 1_555 1_555
C17_4 C9_4 1_555 1_555
C18_4 C12_4 1_555 1_555
H3_4 C7_4 1_555 1_555
H4_4 C8_4 1_555 1_555
H5_4 C10_4 1_555 1_555
H6_4 C11_4 1_555 1_555
H7_4 C13_4 1_555 1_555
H9_4 C15_4 1_555 1_555
H10_4 C16_4 1_555 1_555
H11_4 C17_4 1_555 1_555
H12_4 C18_4 1_555 1_555
C30_4 C31_4 1_555 1_555
C31_4 C32_4 1_555 1_555
C32_4 N12_4 1_555 1_555
C36_8 C30_4 1_555 1_555
H19_4 C31_4 1_555 1_555
H20_4 C32_4 1_555 1_555
H24_4 C36_8 1_555 1_555
C10_4 C11_4 1_555 1_555
C15_4 C16_4 1_555 1_555
C17_4 C18_4 1_555 1_555
N11_3 C25_4 1_555 1_555
C25_4 C26_4 1_555 1_555
C26_4 C27_4 1_555 1_555
C27_4 C28_4 1_555 1_555
C28_4 C29_4 1_555 1_555
C29_4 N11_3 1_555 1_555
H15_4 C25_4 1_555 1_555
H17_4 C28_4 1_555 1_555
H18_4 C29_4 1_555 1_555

#END
