
###############################################################################
#
# This file contains modified crystal structure data generated from the
# MOF subset of the Cambridge Structural Database (CSD) v543 
# hosted by the Cambridge Crystallographic Data Centre (CCDC).
#
# This work is licensed under the Creative Commons
# Attribution-NonCommercial-ShareAlike 4.0 International License.
# To view a copy of this license, visit
# http://creativecommons.org/licenses/by-nc-sa/4.0/
# or send a letter to
# Creative Commons, PO Box 1866, Mountain View, CA 94042, USA.
#
# CIF created using the CSD Python API on 29 September 2022
# The structure has been converted into the P1 space group
# The structure has a 3D framework
# The original CSD entry EBEMOO is in the monoclinic crystal system
# The framework has been calculated to contain at least 10.0% void space
# The void calculation uses a probe of radius 1.32A, grid spacing 0.4
#
###############################################################################

data_EBEMOO
_chemical_formula_moiety         '(C128 H80 Cd8 N48 O32)n'
_symmetry_cell_setting           triclinic
_symmetry_space_group_name_H-M   'P 1'
_symmetry_Int_Tables_number      1
_space_group_name_Hall           'P 1'
loop_
_symmetry_equiv_pos_site_id
_symmetry_equiv_pos_as_xyz
1 x,y,z
_cell_length_a                   25.09(3)
_cell_length_b                   11.472(3)
_cell_length_c                   13.762(6)
_cell_angle_alpha                90
_cell_angle_beta                 102.94(2)
_cell_angle_gamma                90
_cell_volume                     3860.56
loop_
_atom_site_label
_atom_site_type_symbol
_atom_site_fract_x
_atom_site_fract_y
_atom_site_fract_z
N1 N 0.3294(2) 0.2285(4) 0.0089(3)
N2 N 0.3027(1) 0.0152(3) 0.0826(2)
C3 C 0.3216(2) 0.1031(4) 0.1428(3)
C4 C 0.3326(3) 0.2075(5) 0.1051(4)
H1 H 0.3433 0.2700 0.1506
H2 H 0.3274 0.0931 0.2129
Cd1 Cd 0.27801(1) 0.18128(2) 0.63129(2)
O1 O 0.2734(2) 0.2261(4) 0.7929(3)
O2 O 0.3395(2) 0.1043(5) 0.7987(3)
N3 N 0.3645(2) 0.2659(4) 0.6291(3)
N4 N 0.6886(1) 0.6038(3) 0.6242(2)
N5 N 0.5214(2) 0.3882(5) 0.6205(4)
N6 N 0.5293(2) 0.4936(4) 0.6308(3)
C1 C 0.3102(2) 0.1392(4) 0.9482(3)
C2 C 0.2958(2) 0.0345(3) 0.9847(3)
C5 C 0.3077(3) 0.1577(4) 0.8371(3)
C7 C 0.4068(2) 0.1984(6) 0.6297(6)
C8 C 0.4579(2) 0.2376(6) 0.6248(5)
C9 C 0.4664(2) 0.3539(5) 0.6239(4)
C10 C 0.4244(2) 0.4275(5) 0.6246(4)
C11 C 0.3735(2) 0.3782(5) 0.6267(4)
C12 C 0.5849(2) 0.5246(4) 0.6296(3)
C13 C 0.6258(2) 0.4466(4) 0.6232(4)
C14 C 0.6771(2) 0.4905(4) 0.6213(4)
C15 C 0.6480(2) 0.6789(4) 0.6293(4)
C16 C 0.5964(2) 0.6430(5) 0.6336(4)
H3 H 0.4017 0.1166 0.6339
H4 H 0.4865 0.1843 0.6221
H5 H 0.4292 0.5096 0.6236
H6 H 0.3437 0.4295 0.6264
H7 H 0.6191 0.3650 0.6202
H8 H 0.7054 0.4368 0.6178
H9 H 0.6554 0.7601 0.6299
H10 H 0.5690 0.6982 0.6392
O5 O 0.2661(1) 0.1604(2) 0.4543(2)
O6 O 0.2339(1) 0.3396(2) 0.5457(2)
N8 N 0.1886(1) 0.1038(3) 0.6242(2)
Cd4 Cd 0.77801(1) 0.68128(2) 0.63129(2)
Cd2 Cd 0.27801(1) 0.81872(2) 0.13129(2)
O3 O 0.2472(3) 0.9643(4) 0.8307(3)
O4 O 0.2661(1) 0.8396(2) 0.9543(2)
C6 C 0.2680(2) 0.9386(4) 0.9160(3)
N7 N 0.3027(1) 0.9848(3) 0.5826(2)
Cd3 Cd 0.22199(1) 0.68128(2) 0.86871(2)
O3_2 O 0.2472(3) 0.0357(4) 0.3307(3)
C6_2 C 0.2680(2) 0.0614(4) 0.4160(3)
Cd3_2 Cd 0.22199(1) 0.31872(2) 0.36871(2)
O1_2 O 0.2734(2) 0.7739(4) 0.2929(3)
O2_2 O 0.3395(2) 0.8957(5) 0.2987(3)
N1_2 N 0.3294(2) 0.7715(4) 0.5089(3)
N3_2 N 0.3645(2) 0.7341(4) 0.1291(3)
N4_2 N 0.6886(1) 0.3962(3) 0.1242(2)
N5_2 N 0.5214(2) 0.6118(5) 0.1205(4)
N6_2 N 0.5293(2) 0.5064(4) 0.1308(3)
C1_2 C 0.3102(2) 0.8608(4) 0.4482(3)
C2_2 C 0.2958(2) 0.9655(3) 0.4847(3)
C3_2 C 0.3216(2) 0.8969(4) 0.6428(3)
C4_2 C 0.3326(3) 0.7925(5) 0.6051(4)
C5_2 C 0.3077(3) 0.8423(4) 0.3371(3)
C7_2 C 0.4068(2) 0.8016(6) 0.1297(6)
C8_2 C 0.4579(2) 0.7624(6) 0.1248(5)
C9_2 C 0.4664(2) 0.6461(5) 0.1239(4)
C10_2 C 0.4244(2) 0.5725(5) 0.1246(4)
C11_2 C 0.3735(2) 0.6218(5) 0.1267(4)
C12_2 C 0.5849(2) 0.4754(4) 0.1296(3)
C13_2 C 0.6258(2) 0.5534(4) 0.1232(4)
C14_2 C 0.6771(2) 0.5095(4) 0.1213(4)
C15_2 C 0.6480(2) 0.3211(4) 0.1293(4)
C16_2 C 0.5964(2) 0.3570(5) 0.1336(4)
H1_2 H 0.3433 0.7300 0.6506
H2_2 H 0.3274 0.9069 0.7129
H3_2 H 0.4017 0.8834 0.1339
H4_2 H 0.4865 0.8157 0.1221
H5_2 H 0.4292 0.4904 0.1236
H6_2 H 0.3437 0.5705 0.1264
H7_2 H 0.6191 0.6350 0.1202
H8_2 H 0.7054 0.5632 0.1178
H9_2 H 0.6554 0.2399 0.1299
H10_2 H 0.5690 0.3018 0.1392
O6_2 O 0.2339(1) 0.6604(2) 0.0457(2)
N8_2 N 0.1886(1) 0.8962(3) 0.1242(2)
Cd4_2 Cd 0.77801(1) 0.31872(2) 0.13129(2)
C12_3 C 0.0849(2) 0.0246(4) 0.6296(3)
C15_3 C 0.1480(2) 0.1789(4) 0.6293(4)
C16_3 C 0.0964(2) 0.1430(5) 0.6336(4)
H9_3 H 0.1554 0.2601 0.6299
H10_3 H 0.0690 0.1982 0.6392
N1_3 N 0.8294(2) 0.7285(4) 0.0089(3)
N2_2 N 0.8027(1) 0.5152(3) 0.0826(2)
C3_3 C 0.8216(2) 0.6031(4) 0.1428(3)
C4_3 C 0.8326(3) 0.7075(5) 0.1051(4)
H1_3 H 0.8433 0.7700 0.1506
H2_3 H 0.8274 0.5931 0.2129
O1_3 O 0.7734(2) 0.7261(4) 0.7929(3)
O2_3 O 0.8395(2) 0.6043(5) 0.7987(3)
O3_3 O 0.7472(3) 0.4643(4) 0.8307(3)
O4_2 O 0.7661(1) 0.3396(2) 0.9543(2)
N3_3 N 0.8645(2) 0.7659(4) 0.6291(3)
C1_3 C 0.8102(2) 0.6392(4) 0.9482(3)
C2_3 C 0.7958(2) 0.5345(3) 0.9847(3)
C5_3 C 0.8077(3) 0.6577(4) 0.8371(3)
C6_3 C 0.7680(2) 0.4386(4) 0.9160(3)
C7_3 C 0.9068(2) 0.6984(6) 0.6297(6)
C8_3 C 0.9579(2) 0.7376(6) 0.6248(5)
C9_3 C 0.9664(2) 0.8539(5) 0.6239(4)
C10_3 C 0.9244(2) 0.9275(5) 0.6246(4)
C11_3 C 0.8735(2) 0.8782(5) 0.6267(4)
H3_3 H 0.9017 0.6166 0.6339
H4_3 H 0.9865 0.6843 0.6221
H6_3 H 0.8437 0.9295 0.6264
O5_2 O 0.7661(1) 0.6604(2) 0.4543(2)
O6_3 O 0.7339(1) 0.8396(2) 0.5457(2)
N7_2 N 0.8027(1) 0.4848(3) 0.5826(2)
Cd3_3 Cd 0.72199(1) 0.18128(2) 0.86871(2)
C12_4 C 0.0849(2) 0.9754(4) 0.1296(3)
C15_4 C 0.1480(2) 0.8211(4) 0.1293(4)
C16_4 C 0.0964(2) 0.8570(5) 0.1336(4)
H9_4 H 0.1554 0.7399 0.1299
H10_4 H 0.0690 0.8018 0.1392
O1_4 O 0.7734(2) 0.2739(4) 0.2929(3)
O2_4 O 0.8395(2) 0.3957(5) 0.2987(3)
O3_4 O 0.7472(3) 0.5357(4) 0.3307(3)
N1_4 N 0.8294(2) 0.2715(4) 0.5089(3)
N3_4 N 0.8645(2) 0.2341(4) 0.1291(3)
C1_4 C 0.8102(2) 0.3608(4) 0.4482(3)
C2_4 C 0.7958(2) 0.4655(3) 0.4847(3)
C3_4 C 0.8216(2) 0.3969(4) 0.6428(3)
C4_4 C 0.8326(3) 0.2925(5) 0.6051(4)
C5_4 C 0.8077(3) 0.3423(4) 0.3371(3)
C6_4 C 0.7680(2) 0.5614(4) 0.4160(3)
C7_4 C 0.9068(2) 0.3016(6) 0.1297(6)
C8_4 C 0.9579(2) 0.2624(6) 0.1248(5)
C9_4 C 0.9664(2) 0.1461(5) 0.1239(4)
C10_4 C 0.9244(2) 0.0725(5) 0.1246(4)
C11_4 C 0.8735(2) 0.1218(5) 0.1267(4)
H1_4 H 0.8433 0.2300 0.6506
H2_4 H 0.8274 0.4069 0.7129
H3_4 H 0.9017 0.3834 0.1339
H4_4 H 0.9865 0.3157 0.1221
H6_4 H 0.8437 0.0705 0.1264
O6_4 O 0.7339(1) 0.1604(2) 0.0457(2)
Cd3_4 Cd 0.72199(1) 0.81872(2) 0.36871(2)
O3_5 O 0.7528(3) 0.0357(4) 0.1693(3)
C6_5 C 0.7320(2) 0.0614(4) 0.0840(3)
N7_3 N 0.6973(1) 0.0152(3) 0.4174(2)
O1_5 O 0.7266(2) 0.7739(4) 0.2071(3)
O2_5 O 0.6605(2) 0.8957(5) 0.2013(3)
N3_5 N 0.6355(2) 0.7341(4) 0.3709(3)
N4_3 N 0.3114(1) 0.3962(3) 0.3758(2)
N5_3 N 0.4786(2) 0.6118(5) 0.3795(4)
N6_3 N 0.4707(2) 0.5064(4) 0.3692(3)
C1_5 C 0.6898(2) 0.8608(4) 0.0518(3)
C2_5 C 0.7042(2) 0.9655(3) 0.0153(3)
C5_5 C 0.6923(3) 0.8423(4) 0.1629(3)
C7_5 C 0.5932(2) 0.8016(6) 0.3703(6)
C8_5 C 0.5421(2) 0.7624(6) 0.3752(5)
C9_5 C 0.5336(2) 0.6461(5) 0.3761(4)
C10_5 C 0.5756(2) 0.5725(5) 0.3754(4)
C11_5 C 0.6265(2) 0.6218(5) 0.3733(4)
C12_5 C 0.4151(2) 0.4754(4) 0.3704(3)
C13_3 C 0.3742(2) 0.5534(4) 0.3768(4)
C14_3 C 0.3229(2) 0.5095(4) 0.3787(4)
C15_5 C 0.3520(2) 0.3211(4) 0.3707(4)
C16_5 C 0.4036(2) 0.3570(5) 0.3664(4)
H3_5 H 0.5983 0.8834 0.3661
H4_5 H 0.5135 0.8157 0.3779
H5_3 H 0.5708 0.4904 0.3764
H6_5 H 0.6563 0.5705 0.3736
H7_3 H 0.3809 0.6350 0.3798
H8_3 H 0.2946 0.5632 0.3822
H9_5 H 0.3446 0.2399 0.3701
H10_5 H 0.4310 0.3018 0.3608
N8_3 N 0.8114(1) 0.8962(3) 0.3758(2)
N1_5 N 0.6706(2) 0.7715(4) 0.9911(3)
N2_3 N 0.6973(1) 0.9848(3) 0.9174(2)
C3_5 C 0.6784(2) 0.8969(4) 0.8572(3)
C4_5 C 0.6674(3) 0.7925(5) 0.8949(4)
H1_5 H 0.6567 0.7300 0.8494
H2_5 H 0.6726 0.9069 0.7871
O1_6 O 0.7266(2) 0.2261(4) 0.7071(3)
O2_6 O 0.6605(2) 0.1043(5) 0.7013(3)
N1_6 N 0.6706(2) 0.2285(4) 0.4911(3)
N3_6 N 0.6355(2) 0.2659(4) 0.8709(3)
N4_4 N 0.3114(1) 0.6038(3) 0.8758(2)
N5_4 N 0.4786(2) 0.3882(5) 0.8795(4)
N6_4 N 0.4707(2) 0.4936(4) 0.8692(3)
C1_6 C 0.6898(2) 0.1392(4) 0.5518(3)
C2_6 C 0.7042(2) 0.0345(3) 0.5153(3)
C3_6 C 0.6784(2) 0.1031(4) 0.3572(3)
C4_6 C 0.6674(3) 0.2075(5) 0.3949(4)
C5_6 C 0.6923(3) 0.1577(4) 0.6629(3)
C7_6 C 0.5932(2) 0.1984(6) 0.8703(6)
C8_6 C 0.5421(2) 0.2376(6) 0.8752(5)
C9_6 C 0.5336(2) 0.3539(5) 0.8761(4)
C10_6 C 0.5756(2) 0.4275(5) 0.8754(4)
C11_6 C 0.6265(2) 0.3782(5) 0.8733(4)
C12_6 C 0.4151(2) 0.5246(4) 0.8704(3)
C13_4 C 0.3742(2) 0.4466(4) 0.8768(4)
C14_4 C 0.3229(2) 0.4905(4) 0.8787(4)
C15_6 C 0.3520(2) 0.6789(4) 0.8707(4)
C16_6 C 0.4036(2) 0.6430(5) 0.8664(4)
H1_6 H 0.6567 0.2700 0.3494
H2_6 H 0.6726 0.0931 0.2871
H3_6 H 0.5983 0.1166 0.8661
H4_6 H 0.5135 0.1843 0.8779
H5_4 H 0.5708 0.5096 0.8764
H6_6 H 0.6563 0.4295 0.8736
H7_4 H 0.3809 0.3650 0.8798
H8_4 H 0.2946 0.4368 0.8822
H9_6 H 0.3446 0.7601 0.8701
H10_6 H 0.4310 0.6982 0.8608
N8_4 N 0.8114(1) 0.1038(3) 0.8758(2)
O3_6 O 0.7528(3) 0.9643(4) 0.6693(3)
C6_6 C 0.7320(2) 0.9386(4) 0.5840(3)
O1_7 O 0.2266(2) 0.2739(4) 0.2071(3)
O2_7 O 0.1605(2) 0.3957(5) 0.2013(3)
O3_7 O 0.2528(3) 0.5357(4) 0.1693(3)
N3_7 N 0.1355(2) 0.2341(4) 0.3709(3)
C1_7 C 0.1898(2) 0.3608(4) 0.0518(3)
C2_7 C 0.2042(2) 0.4655(3) 0.0153(3)
C5_7 C 0.1923(3) 0.3423(4) 0.1629(3)
C6_7 C 0.2320(2) 0.5614(4) 0.0840(3)
C7_7 C 0.0932(2) 0.3016(6) 0.3703(6)
C8_7 C 0.0421(2) 0.2624(6) 0.3752(5)
C9_7 C 0.0336(2) 0.1461(5) 0.3761(4)
C10_7 C 0.0756(2) 0.0725(5) 0.3754(4)
C11_7 C 0.1265(2) 0.1218(5) 0.3733(4)
H3_7 H 0.0983 0.3834 0.3661
H4_7 H 0.0135 0.3157 0.3779
H6_7 H 0.1563 0.0705 0.3736
N7_4 N 0.1973(1) 0.5152(3) 0.4174(2)
N1_7 N 0.1706(2) 0.2715(4) 0.9911(3)
N2_4 N 0.1973(1) 0.4848(3) 0.9174(2)
C3_7 C 0.1784(2) 0.3969(4) 0.8572(3)
C4_7 C 0.1674(3) 0.2925(5) 0.8949(4)
H1_7 H 0.1567 0.2300 0.8494
H2_7 H 0.1726 0.4069 0.7871
C12_7 C 0.9151(2) 0.9754(4) 0.3704(3)
C15_7 C 0.8520(2) 0.8211(4) 0.3707(4)
C16_7 C 0.9036(2) 0.8570(5) 0.3664(4)
H9_7 H 0.8446 0.7399 0.3701
H10_7 H 0.9310 0.8018 0.3608
O1_8 O 0.2266(2) 0.7261(4) 0.7071(3)
O2_8 O 0.1605(2) 0.6043(5) 0.7013(3)
O3_8 O 0.2528(3) 0.4643(4) 0.6693(3)
N1_8 N 0.1706(2) 0.7285(4) 0.4911(3)
N3_8 N 0.1355(2) 0.7659(4) 0.8709(3)
C1_8 C 0.1898(2) 0.6392(4) 0.5518(3)
C2_8 C 0.2042(2) 0.5345(3) 0.5153(3)
C3_8 C 0.1784(2) 0.6031(4) 0.3572(3)
C4_8 C 0.1674(3) 0.7075(5) 0.3949(4)
C5_8 C 0.1923(3) 0.6577(4) 0.6629(3)
C6_8 C 0.2320(2) 0.4386(4) 0.5840(3)
C7_8 C 0.0932(2) 0.6984(6) 0.8703(6)
C8_8 C 0.0421(2) 0.7376(6) 0.8752(5)
C9_8 C 0.0336(2) 0.8539(5) 0.8761(4)
C10_8 C 0.0756(2) 0.9275(5) 0.8754(4)
C11_8 C 0.1265(2) 0.8782(5) 0.8733(4)
H1_8 H 0.1567 0.7700 0.3494
H2_8 H 0.1726 0.5931 0.2871
H3_8 H 0.0983 0.6166 0.8661
H4_8 H 0.0135 0.6843 0.8779
H6_8 H 0.1563 0.9295 0.8736
C12_8 C 0.9151(2) 0.0246(4) 0.8704(3)
C15_8 C 0.8520(2) 0.1789(4) 0.8707(4)
C16_8 C 0.9036(2) 0.1430(5) 0.8664(4)
H9_8 H 0.8446 0.2601 0.8701
H10_8 H 0.9310 0.1982 0.8608
N5_5 N 0.0214(2) 0.8882(5) 0.6205(4)
N6_5 N 0.0293(2) 0.9936(4) 0.6308(3)
C13_5 C 0.1258(2) 0.9466(4) 0.6232(4)
C14_5 C 0.1771(2) 0.9905(4) 0.6213(4)
H7_5 H 0.1191 0.8650 0.6202
H8_5 H 0.2054 0.9368 0.6178
H5_5 H 0.9292 0.0096 0.6236
N5_6 N 0.0214(2) 0.1118(5) 0.1205(4)
N6_6 N 0.0293(2) 0.0064(4) 0.1308(3)
C13_6 C 0.1258(2) 0.0534(4) 0.1232(4)
C14_6 C 0.1771(2) 0.0095(4) 0.1213(4)
H7_6 H 0.1191 0.1350 0.1202
H8_6 H 0.2054 0.0632 0.1178
H5_6 H 0.9292 0.9904 0.1236
H5_7 H 0.0708 0.9904 0.3764
N5_7 N 0.9786(2) 0.1118(5) 0.3795(4)
N6_7 N 0.9707(2) 0.0064(4) 0.3692(3)
C13_7 C 0.8742(2) 0.0534(4) 0.3768(4)
C14_7 C 0.8229(2) 0.0095(4) 0.3787(4)
H7_7 H 0.8809 0.1350 0.3798
H8_7 H 0.7946 0.0632 0.3822
H5_8 H 0.0708 0.0096 0.8764
N5_8 N 0.9786(2) 0.8882(5) 0.8795(4)
N6_8 N 0.9707(2) 0.9936(4) 0.8692(3)
C13_8 C 0.8742(2) 0.9466(4) 0.8768(4)
C14_8 C 0.8229(2) 0.9905(4) 0.8787(4)
H7_8 H 0.8809 0.8650 0.8798
H8_8 H 0.7946 0.9368 0.8822
loop_
_geom_bond_atom_site_label_1
_geom_bond_atom_site_label_2
_geom_bond_site_symmetry_1
_geom_bond_site_symmetry_2
C3 N2 1_555 1_555
C4 N1 1_555 1_555
H1 C4 1_555 1_555
H2 C3 1_555 1_555
C3 C4 1_555 1_555
Cd1 O1 1_555 1_555
O1 C5 1_555 1_555
O2 C5 1_555 1_555
N3 Cd1 1_555 1_555
N4 C14 1_555 1_555
N5 N6 1_555 1_555
N6 C12 1_555 1_555
C1 C2 1_555 1_555
C5 C1 1_555 1_555
C7 N3 1_555 1_555
C8 C7 1_555 1_555
C9 N5 1_555 1_555
C10 C9 1_555 1_555
C11 N3 1_555 1_555
C12 C13 1_555 1_555
C13 C14 1_555 1_555
C14 H8 1_555 1_555
C15 N4 1_555 1_555
C16 C12 1_555 1_555
H3 C7 1_555 1_555
H4 C8 1_555 1_555
H5 C10 1_555 1_555
H6 C11 1_555 1_555
H7 C13 1_555 1_555
H9 C15 1_555 1_555
H10 C16 1_555 1_555
O5 Cd1 1_555 1_555
O6 Cd1 1_555 1_555
N8 Cd1 1_555 1_555
Cd4 N4 1_555 1_555
C8 C9 1_555 1_555
C10 C11 1_555 1_555
C15 C16 1_555 1_555
O3 C6 1_555 1_555
O4 C6 1_555 1_555
Cd3 O4 1_555 1_555
O3_2 C6_2 1_555 1_555
O5 C6_2 1_555 1_555
Cd3_2 O5 1_555 1_555
Cd2 O1_2 1_555 1_555
O1_2 C5_2 1_555 1_555
O2_2 C5_2 1_555 1_555
N1_2 C1_2 1_555 1_555
N7 C2_2 1_555 1_555
N3_2 Cd2 1_555 1_555
N4_2 C14_2 1_555 1_555
N5_2 N6_2 1_555 1_555
N6_2 C12_2 1_555 1_555
C1_2 C2_2 1_555 1_555
C3_2 N7 1_555 1_555
C4_2 N1_2 1_555 1_555
C5_2 C1_2 1_555 1_555
C7_2 N3_2 1_555 1_555
C8_2 C7_2 1_555 1_555
C9_2 N5_2 1_555 1_555
C10_2 C9_2 1_555 1_555
C11_2 N3_2 1_555 1_555
C12_2 C13_2 1_555 1_555
C13_2 C14_2 1_555 1_555
C14_2 H8_2 1_555 1_555
C15_2 N4_2 1_555 1_555
C16_2 C12_2 1_555 1_555
H1_2 C4_2 1_555 1_555
H2_2 C3_2 1_555 1_555
H3_2 C7_2 1_555 1_555
H4_2 C8_2 1_555 1_555
H5_2 C10_2 1_555 1_555
H6_2 C11_2 1_555 1_555
H7_2 C13_2 1_555 1_555
H9_2 C15_2 1_555 1_555
H10_2 C16_2 1_555 1_555
O6_2 Cd2 1_555 1_555
N8_2 Cd2 1_555 1_555
Cd4_2 N4_2 1_555 1_555
C3_2 C4_2 1_555 1_555
C8_2 C9_2 1_555 1_555
C10_2 C11_2 1_555 1_555
C15_2 C16_2 1_555 1_555
C15_3 N8 1_555 1_555
C16_3 C12_3 1_555 1_555
H9_3 C15_3 1_555 1_555
H10_3 C16_3 1_555 1_555
C15_3 C16_3 1_555 1_555
C3_3 N2_2 1_555 1_555
C4_3 N1_3 1_555 1_555
H1_3 C4_3 1_555 1_555
H2_3 C3_3 1_555 1_555
N2_2 Cd4_2 1_555 1_555
C3_3 C4_3 1_555 1_555
Cd4 O1_3 1_555 1_555
O1_3 C5_3 1_555 1_555
O2_3 C5_3 1_555 1_555
O3_3 C6_3 1_555 1_555
O4_2 C6_3 1_555 1_555
N3_3 Cd4 1_555 1_555
C1_3 C2_3 1_555 1_555
C2_3 C6_3 1_555 1_555
C5_3 C1_3 1_555 1_555
C7_3 N3_3 1_555 1_555
C8_3 C7_3 1_555 1_555
C10_3 C9_3 1_555 1_555
C11_3 N3_3 1_555 1_555
H3_3 C7_3 1_555 1_555
H4_3 C8_3 1_555 1_555
H6_3 C11_3 1_555 1_555
O5_2 Cd4 1_555 1_555
O6_3 Cd4 1_555 1_555
N7_2 Cd4 1_555 1_555
Cd3_3 O4_2 1_555 1_555
C8_3 C9_3 1_555 1_555
C10_3 C11_3 1_555 1_555
C15_4 N8_2 1_555 1_555
C16_4 C12_4 1_555 1_555
H9_4 C15_4 1_555 1_555
H10_4 C16_4 1_555 1_555
C15_4 C16_4 1_555 1_555
Cd4_2 O1_4 1_555 1_555
O1_4 C5_4 1_555 1_555
O2_4 C5_4 1_555 1_555
O3_4 C6_4 1_555 1_555
O5_2 C6_4 1_555 1_555
N1_4 C1_4 1_555 1_555
N7_2 C2_4 1_555 1_555
N3_4 Cd4_2 1_555 1_555
C1_4 C2_4 1_555 1_555
C2_4 C6_4 1_555 1_555
C3_4 N7_2 1_555 1_555
C4_4 N1_4 1_555 1_555
C5_4 C1_4 1_555 1_555
C7_4 N3_4 1_555 1_555
C8_4 C7_4 1_555 1_555
C10_4 C9_4 1_555 1_555
C11_4 N3_4 1_555 1_555
H1_4 C4_4 1_555 1_555
H2_4 C3_4 1_555 1_555
H3_4 C7_4 1_555 1_555
H4_4 C8_4 1_555 1_555
H6_4 C11_4 1_555 1_555
O6_4 Cd4_2 1_555 1_555
Cd3_4 O5_2 1_555 1_555
C3_4 C4_4 1_555 1_555
C8_4 C9_4 1_555 1_555
C10_4 C11_4 1_555 1_555
O3_5 C6_5 1_555 1_555
O6_4 C6_5 1_555 1_555
Cd3_4 O1_5 1_555 1_555
O1_5 C5_5 1_555 1_555
O2_5 C5_5 1_555 1_555
N3_5 Cd3_4 1_555 1_555
N4_3 C14_3 1_555 1_555
N5_3 N6_3 1_555 1_555
N6_3 C12_5 1_555 1_555
C1_5 C2_5 1_555 1_555
C5_5 C1_5 1_555 1_555
C7_5 N3_5 1_555 1_555
C8_5 C7_5 1_555 1_555
C9_5 N5_3 1_555 1_555
C10_5 C9_5 1_555 1_555
C11_5 N3_5 1_555 1_555
C12_5 C13_3 1_555 1_555
C13_3 C14_3 1_555 1_555
C14_3 H8_3 1_555 1_555
C15_5 N4_3 1_555 1_555
C16_5 C12_5 1_555 1_555
H3_5 C7_5 1_555 1_555
H4_5 C8_5 1_555 1_555
H5_3 C10_5 1_555 1_555
H6_5 C11_5 1_555 1_555
H7_3 C13_3 1_555 1_555
H9_5 C15_5 1_555 1_555
H10_5 C16_5 1_555 1_555
O6_3 Cd3_4 1_555 1_555
N8_3 Cd3_4 1_555 1_555
Cd3_2 N4_3 1_555 1_555
C8_5 C9_5 1_555 1_555
C10_5 C11_5 1_555 1_555
C15_5 C16_5 1_555 1_555
C3_5 N2_3 1_555 1_555
C4_5 N1_5 1_555 1_555
H1_5 C4_5 1_555 1_555
H2_5 C3_5 1_555 1_555
C3_5 C4_5 1_555 1_555
Cd3_3 O1_6 1_555 1_555
O1_6 C5_6 1_555 1_555
O2_6 C5_6 1_555 1_555
N1_6 C1_6 1_555 1_555
N7_3 C2_6 1_555 1_555
N3_6 Cd3_3 1_555 1_555
N4_4 C14_4 1_555 1_555
N5_4 N6_4 1_555 1_555
N6_4 C12_6 1_555 1_555
C1_6 C2_6 1_555 1_555
C3_6 N7_3 1_555 1_555
C4_6 N1_6 1_555 1_555
C5_6 C1_6 1_555 1_555
C7_6 N3_6 1_555 1_555
C8_6 C7_6 1_555 1_555
C9_6 N5_4 1_555 1_555
C10_6 C9_6 1_555 1_555
C11_6 N3_6 1_555 1_555
C12_6 C13_4 1_555 1_555
C13_4 C14_4 1_555 1_555
C14_4 H8_4 1_555 1_555
C15_6 N4_4 1_555 1_555
C16_6 C12_6 1_555 1_555
H1_6 C4_6 1_555 1_555
H2_6 C3_6 1_555 1_555
H3_6 C7_6 1_555 1_555
H4_6 C8_6 1_555 1_555
H5_4 C10_6 1_555 1_555
H6_6 C11_6 1_555 1_555
H7_4 C13_4 1_555 1_555
H9_6 C15_6 1_555 1_555
H10_6 C16_6 1_555 1_555
N8_4 Cd3_3 1_555 1_555
Cd3 N4_4 1_555 1_555
C3_6 C4_6 1_555 1_555
C8_6 C9_6 1_555 1_555
C10_6 C11_6 1_555 1_555
C15_6 C16_6 1_555 1_555
O3_6 C6_6 1_555 1_555
O6_3 C6_6 1_555 1_555
Cd3_2 O1_7 1_555 1_555
O1_7 C5_7 1_555 1_555
O2_7 C5_7 1_555 1_555
O3_7 C6_7 1_555 1_555
O6_2 C6_7 1_555 1_555
N3_7 Cd3_2 1_555 1_555
C1_7 C2_7 1_555 1_555
C2_7 C6_7 1_555 1_555
C5_7 C1_7 1_555 1_555
C7_7 N3_7 1_555 1_555
C8_7 C7_7 1_555 1_555
C10_7 C9_7 1_555 1_555
C11_7 N3_7 1_555 1_555
H3_7 C7_7 1_555 1_555
H4_7 C8_7 1_555 1_555
H6_7 C11_7 1_555 1_555
O6 Cd3_2 1_555 1_555
N7_4 Cd3_2 1_555 1_555
C8_7 C9_7 1_555 1_555
C10_7 C11_7 1_555 1_555
C3_7 N2_4 1_555 1_555
C4_7 N1_7 1_555 1_555
H1_7 C4_7 1_555 1_555
H2_7 C3_7 1_555 1_555
N2_4 Cd3 1_555 1_555
C3_7 C4_7 1_555 1_555
C15_7 N8_3 1_555 1_555
C16_7 C12_7 1_555 1_555
H9_7 C15_7 1_555 1_555
H10_7 C16_7 1_555 1_555
C15_7 C16_7 1_555 1_555
Cd3 O1_8 1_555 1_555
O1_8 C5_8 1_555 1_555
O2_8 C5_8 1_555 1_555
O3_8 C6_8 1_555 1_555
O6 C6_8 1_555 1_555
N1_8 C1_8 1_555 1_555
N7_4 C2_8 1_555 1_555
N3_8 Cd3 1_555 1_555
C1_8 C2_8 1_555 1_555
C2_8 C6_8 1_555 1_555
C3_8 N7_4 1_555 1_555
C4_8 N1_8 1_555 1_555
C5_8 C1_8 1_555 1_555
C7_8 N3_8 1_555 1_555
C8_8 C7_8 1_555 1_555
C10_8 C9_8 1_555 1_555
C11_8 N3_8 1_555 1_555
H1_8 C4_8 1_555 1_555
H2_8 C3_8 1_555 1_555
H3_8 C7_8 1_555 1_555
H4_8 C8_8 1_555 1_555
H6_8 C11_8 1_555 1_555
C3_8 C4_8 1_555 1_555
C8_8 C9_8 1_555 1_555
C10_8 C11_8 1_555 1_555
C15_8 N8_4 1_555 1_555
C16_8 C12_8 1_555 1_555
H9_8 C15_8 1_555 1_555
H10_8 C16_8 1_555 1_555
C15_8 C16_8 1_555 1_555
N5_5 N6_5 1_555 1_555
C13_5 C14_5 1_555 1_555
C14_5 H8_5 1_555 1_555
H7_5 C13_5 1_555 1_555
N5_6 N6_6 1_555 1_555
C13_6 C14_6 1_555 1_555
C14_6 H8_6 1_555 1_555
H7_6 C13_6 1_555 1_555
N5_7 N6_7 1_555 1_555
C13_7 C14_7 1_555 1_555
C14_7 H8_7 1_555 1_555
H7_7 C13_7 1_555 1_555
N5_8 N6_8 1_555 1_555
C13_8 C14_8 1_555 1_555
C14_8 H8_8 1_555 1_555
H7_8 C13_8 1_555 1_555

#END
