
###############################################################################
#
# This file contains modified crystal structure data generated from the
# MOF subset of the Cambridge Structural Database (CSD) v543 
# hosted by the Cambridge Crystallographic Data Centre (CCDC).
#
# This work is licensed under the Creative Commons
# Attribution-NonCommercial-ShareAlike 4.0 International License.
# To view a copy of this license, visit
# http://creativecommons.org/licenses/by-nc-sa/4.0/
# or send a letter to
# Creative Commons, PO Box 1866, Mountain View, CA 94042, USA.
#
# CIF created using the CSD Python API on 29 September 2022
# The structure has been converted into the P1 space group
# The structure has a 3D framework
# The original CSD entry EBEPOU is in the monoclinic crystal system
# The framework has been calculated to contain at least 10.0% void space
# The void calculation uses a probe of radius 1.32A, grid spacing 0.4
# The framework is charged, counterions have been retained in the structure
#
###############################################################################

data_EBEPOU
_chemical_formula_moiety         '(C168 H136 Cu24 N108 O52 4-)n'
_symmetry_cell_setting           triclinic
_symmetry_space_group_name_H-M   'P 1'
_symmetry_Int_Tables_number      1
_space_group_name_Hall           'P 1'
loop_
_symmetry_equiv_pos_site_id
_symmetry_equiv_pos_as_xyz
1 x,y,z
_cell_length_a                   19.7115(10)
_cell_length_b                   26.1902(12)
_cell_length_c                   20.0351(11)
_cell_angle_alpha                90
_cell_angle_beta                 113.054(2)
_cell_angle_gamma                90
_cell_volume                     9517.04
loop_
_atom_site_label
_atom_site_type_symbol
_atom_site_fract_x
_atom_site_fract_y
_atom_site_fract_z
N1 N 0.500000 0.13351(14) 0.000000
O1 O 0.55828(14) 0.11006(10) 0.03287(16)
O2 O 0.500000 0.18175(13) 0.000000
N1_2 N 0.500000 0.13351(14) 1.000000
O2_2 O 0.500000 0.18175(13) 1.000000
O3 O 0.44172(14) 0.11006(10) 0.96713(16)
N1_3 N -0.000000 0.63351(14) 0.000000
O1_2 O 0.05828(14) 0.61006(10) 0.03287(16)
O2_3 O -0.000000 0.68175(13) 0.000000
N1_4 N 0.000000 0.63351(14) 1.000000
O2_4 O 0.000000 0.68175(13) 1.000000
N1_5 N 1.000000 0.63351(14) 0.000000
O2_5 O 1.000000 0.68175(13) 0.000000
N1_6 N 1.000000 0.63351(14) 1.000000
O2_6 O 1.000000 0.68175(13) 1.000000
O3_2 O 0.94172(14) 0.61006(10) 0.96713(16)
N1_7 N 0.500000 0.86649(14) 0.000000
O2_7 O 0.500000 0.81825(13) 0.000000
O3_3 O 0.55828(14) 0.88994(10) 0.03287(16)
N1_8 N 0.500000 0.86649(14) 1.000000
O1_3 O 0.44172(14) 0.88994(10) 0.96713(16)
O2_8 O 0.500000 0.81825(13) 1.000000
N1_9 N -0.000000 0.36649(14) 0.000000
O2_9 O 0.000000 0.31825(13) 0.000000
O3_4 O 0.05828(14) 0.38994(10) 0.03287(16)
N1_10 N 0.000000 0.36649(14) 1.000000
O2_10 O 0.000000 0.31825(13) 1.000000
N1_11 N 1.000000 0.36649(14) 0.000000
O2_11 O 1.000000 0.31825(13) 0.000000
N1_12 N 1.000000 0.36649(14) 1.000000
O1_4 O 0.94172(14) 0.38994(10) 0.96713(16)
O2_12 O 1.000000 0.31825(13) 1.000000
N13 N 0.01321(12) 0.23269(9) 0.26090(13)
C18 C 0.0550(5) 0.2471(4) 0.4840(4)
H14 H 0.088689 0.266493 0.471039
C20 C 0.04222(16) 0.22697(12) 0.33122(16)
H16 H 0.093533 0.226529 0.360470
N23 N 0.01230(14) 0.22177(11) 0.64400(14)
N24 N 0.06268(13) 0.23137(11) 0.76109(14)
C37 C 0.0529(4) 0.1934(4) 0.5513(4)
H30 H 0.091321 0.174856 0.587335
C38 C 0.00550(19) 0.21931(15) 0.56987(17)
C40 C 0.07633(17) 0.22492(14) 0.70324(17)
H32 H 0.124172 0.222735 0.702579
Cu12 Cu 0.05540(2) 0.25347(2) 0.18874(2)
Cu13 Cu 0.13840(2) 0.24896(2) 0.87521(2)
Cu1 Cu 0.69452(2) 0.25401(2) 0.13350(2)
Cu2 Cu 0.55540(2) 0.24653(2) 0.18874(2)
Cu3 Cu 0.86160(2) 0.24896(2) 0.12479(2)
O4 O 0.60642(11) 0.22272(8) 0.13175(12)
O5 O 0.78647(10) 0.28455(7) 0.14421(12)
O6 O 0.65066(14) 0.27312(14) 0.01315(14)
N2 N 0.63584(14) 0.39326(9) 0.19630(16)
N3 N 0.66099(13) 0.31722(9) 0.16969(14)
N4 N 0.60558(12) 0.31342(8) 0.19497(13)
N5 N 0.76731(13) 0.10698(8) 0.11791(14)
N6 N 0.73652(12) 0.18656(8) 0.12012(14)
N7 N 0.80421(12) 0.18501(8) 0.11627(13)
N8 N 0.45019(13) 0.10649(8) 0.13778(15)
N9 N 0.49120(12) 0.18415(8) 0.16195(13)
N10 N 0.41521(12) 0.18572(8) 0.12926(14)
N11 N 0.98770(14) 0.22177(11) 0.35600(14)
N12 N 0.93732(13) 0.23137(11) 0.23891(14)
C1 C 0.70214(19) 0.47378(11) 0.2206(3)
H1 H 0.747102 0.455454 0.233727
C2 C 0.63579(17) 0.44787(10) 0.2011(2)
C3 C 0.56980(18) 0.47353(11) 0.1842(2)
H2 H 0.525102 0.455138 0.172736
C4 C 0.67793(16) 0.36542(10) 0.17071(19)
H3 H 0.714437 0.378888 0.155678
C5 C 0.59101(16) 0.35972(10) 0.21072(17)
H4 H 0.554875 0.368318 0.229232
C6 C 0.70072(15) 0.02673(10) 0.07873(17)
H5 H 0.656819 0.045216 0.052604
C7 C 0.76595(15) 0.05216(9) 0.11755(17)
C8 C 0.83098(16) 0.02686(11) 0.1569(2)
H6 H 0.874749 0.045367 0.183387
C9 C 0.71498(15) 0.13958(10) 0.12077(18)
H7 H 0.669529 0.129646 0.122929
C10 C 0.82264(15) 0.13712(10) 0.11633(18)
H8 H 0.867791 0.125222 0.115398
C11 C 0.5009(2) 0.02638(11) 0.1183(3)
H9 H 0.536467 0.044777 0.106933
C12 C 0.44870(16) 0.05179(10) 0.13501(18)
C13 C 0.3948(2) 0.02647(11) 0.1484(3)
H10 H 0.357769 0.044873 0.157565
C14 C 0.51134(14) 0.13636(9) 0.16665(16)
H11 H 0.560741 0.124344 0.186944
C15 C 0.39208(15) 0.13865(10) 0.11487(17)
H12 H 0.341925 0.128592 0.091772
C16 C 0.9471(4) 0.1934(4) 0.4487(4)
H13 H 0.908679 0.174856 0.412665
C17 C 0.99450(19) 0.21931(15) 0.43013(17)
C19 C 0.92367(17) 0.22492(14) 0.29676(17)
H15 H 0.875828 0.222735 0.297421
N14 N 0.63584(14) 0.60674(9) 0.19630(16)
N15 N 0.66099(13) 0.68278(9) 0.16969(14)
N16 N 0.60558(12) 0.68658(8) 0.19497(13)
C22 C 0.70214(19) 0.52622(11) 0.2206(3)
H18 H 0.747102 0.544546 0.233727
C23 C 0.63579(17) 0.55213(10) 0.2011(2)
C24 C 0.56980(18) 0.52647(11) 0.1842(2)
H19 H 0.525102 0.544862 0.172736
C25 C 0.67793(16) 0.63458(10) 0.17071(19)
H20 H 0.714437 0.621112 0.155678
C26 C 0.59101(16) 0.64028(10) 0.21072(17)
H21 H 0.554875 0.631682 0.229232
N25 N 0.98679(12) 0.23269(9) 0.73910(13)
C39 C 0.9450(5) 0.2471(4) 0.5160(4)
H31 H 0.911311 0.266493 0.528961
C41 C 0.95778(16) 0.22697(12) 0.66878(16)
H33 H 0.906467 0.226529 0.639530
O11 O 0.43575(11) 0.28591(8) 0.09563(12)
C42 C 0.41129(17) 0.28676(13) 0.02637(18)
H34 H 0.443168 0.298699 0.004427
Cu8 Cu 0.69452(2) 0.74599(2) 0.13350(2)
Cu10 Cu 0.55540(2) 0.75347(2) 0.18874(2)
Cu11 Cu 0.94460(2) 0.25347(2) 0.81126(2)
Cu17 Cu 0.36160(2) 0.25104(2) 0.12479(2)
O13 O 0.15066(14) 0.22688(14) 0.01315(14)
O14 O 0.93575(11) 0.21409(8) 0.09563(12)
N32 N 0.91521(12) 0.31428(8) 0.12926(14)
N35 N 0.51321(12) 0.26731(9) 0.26090(13)
O7 O 0.56425(11) 0.28591(8) 0.90437(12)
C21 C 0.58871(17) 0.28676(13) 0.97363(18)
H17 H 0.556832 0.298699 0.995573
Cu4 Cu 0.30548(2) 0.25401(2) 0.86650(2)
Cu5 Cu 0.44460(2) 0.24653(2) 0.81126(2)
O8 O 0.39358(11) 0.22272(8) 0.86825(12)
O9 O 0.21353(10) 0.28455(7) 0.85579(12)
O10 O 0.34934(14) 0.27312(14) 0.98685(14)
Cu16 Cu 0.63840(2) 0.25104(2) 0.87521(2)
O12 O 0.84934(14) 0.22688(14) 0.98685(14)
O15 O 0.06425(11) 0.21409(8) 0.90437(12)
N26 N 0.33901(13) 0.31722(9) 0.83031(14)
N27 N 0.39442(12) 0.31342(8) 0.80503(13)
N28 N 0.26348(12) 0.18656(8) 0.87988(14)
N29 N 0.19579(12) 0.18501(8) 0.88373(13)
N30 N 0.50880(12) 0.18415(8) 0.83805(13)
N31 N 0.08479(12) 0.31428(8) 0.87074(14)
N34 N 0.48679(12) 0.26731(9) 0.73910(13)
N17 N 0.76731(13) 0.89302(8) 0.11791(14)
N18 N 0.73652(12) 0.81344(8) 0.12012(14)
N19 N 0.80421(12) 0.81499(8) 0.11627(13)
C27 C 0.70072(15) 0.97327(10) 0.07873(17)
H22 H 0.656819 0.954784 0.052604
C28 C 0.76595(15) 0.94784(9) 0.11755(17)
C29 C 0.83098(16) 0.97314(11) 0.1569(2)
H23 H 0.874749 0.954633 0.183387
C30 C 0.71498(15) 0.86042(10) 0.12077(18)
H24 H 0.669529 0.870354 0.122929
C31 C 0.82264(15) 0.86288(10) 0.11633(18)
H25 H 0.867791 0.874778 0.115398
N20 N 0.45019(13) 0.89351(8) 0.13778(15)
N21 N 0.49120(12) 0.81585(8) 0.16195(13)
N22 N 0.41521(12) 0.81428(8) 0.12926(14)
C32 C 0.5009(2) 0.97362(11) 0.1183(3)
H26 H 0.536467 0.955223 0.106933
C33 C 0.44870(16) 0.94821(10) 0.13501(18)
C34 C 0.3948(2) 0.97353(11) 0.1484(3)
H27 H 0.357769 0.955127 0.157565
C35 C 0.51134(14) 0.86364(9) 0.16665(16)
H28 H 0.560741 0.875656 0.186944
C36 C 0.39208(15) 0.86135(10) 0.11487(17)
H29 H 0.341925 0.871408 0.091772
Cu14 Cu 0.36160(2) 0.74896(2) 0.12479(2)
Cu15 Cu 0.86160(2) 0.75104(2) 0.12479(2)
N2_2 N 0.36416(14) 0.39326(9) 0.80370(16)
N5_2 N 0.23269(13) 0.10698(8) 0.88209(14)
N8_2 N 0.54981(13) 0.10649(8) 0.86222(15)
N10_2 N 0.58479(12) 0.18572(8) 0.87074(14)
C1_2 C 0.29786(19) 0.47378(11) 0.7794(3)
H1_2 H 0.252898 0.455454 0.766273
C2_2 C 0.36421(17) 0.44787(10) 0.7989(2)
C3_2 C 0.43020(18) 0.47353(11) 0.8158(2)
H2_2 H 0.474898 0.455138 0.827264
C4_2 C 0.32207(16) 0.36542(10) 0.82929(19)
H3_2 H 0.285563 0.378888 0.844322
C5_2 C 0.40899(16) 0.35972(10) 0.78928(17)
H4_2 H 0.445125 0.368318 0.770768
C6_2 C 0.29928(15) 0.02673(10) 0.92127(17)
H5_2 H 0.343181 0.045216 0.947396
C7_2 C 0.23405(15) 0.05216(9) 0.88245(17)
C8_2 C 0.16902(16) 0.02686(11) 0.8431(2)
H6_2 H 0.125251 0.045367 0.816613
C9_2 C 0.28502(15) 0.13958(10) 0.87923(18)
H7_2 H 0.330471 0.129646 0.877071
C10_2 C 0.17736(15) 0.13712(10) 0.88367(18)
H8_2 H 0.132209 0.125222 0.884602
C11_2 C 0.4991(2) 0.02638(11) 0.8817(3)
H9_2 H 0.463533 0.044777 0.893067
C12_2 C 0.55130(16) 0.05179(10) 0.86499(18)
C13_2 C 0.6052(2) 0.02647(11) 0.8516(3)
H10_2 H 0.642231 0.044873 0.842435
C14_2 C 0.48866(14) 0.13636(9) 0.83335(16)
H11_2 H 0.439259 0.124344 0.813056
C15_2 C 0.60792(15) 0.13865(10) 0.88513(17)
H12_2 H 0.658075 0.128592 0.908228
N14_2 N 0.36416(14) 0.60674(9) 0.80370(16)
N15_2 N 0.33901(13) 0.68278(9) 0.83031(14)
N16_2 N 0.39442(12) 0.68658(8) 0.80503(13)
C22_2 C 0.29786(19) 0.52622(11) 0.7794(3)
H18_2 H 0.252898 0.544546 0.766273
C23_2 C 0.36421(17) 0.55213(10) 0.7989(2)
C24_2 C 0.43020(18) 0.52647(11) 0.8158(2)
H19_2 H 0.474898 0.544862 0.827264
C25_2 C 0.32207(16) 0.63458(10) 0.82929(19)
H20_2 H 0.285563 0.621112 0.844322
C26_2 C 0.40899(16) 0.64028(10) 0.78928(17)
H21_2 H 0.445125 0.631682 0.770768
Cu8_2 Cu 0.30548(2) 0.74599(2) 0.86650(2)
Cu10_2 Cu 0.44460(2) 0.75347(2) 0.81126(2)
N17_2 N 0.23269(13) 0.89302(8) 0.88209(14)
N18_2 N 0.26348(12) 0.81344(8) 0.87988(14)
N19_2 N 0.19579(12) 0.81499(8) 0.88373(13)
C27_2 C 0.29928(15) 0.97327(10) 0.92127(17)
H22_2 H 0.343181 0.954784 0.947396
C28_2 C 0.23405(15) 0.94784(9) 0.88245(17)
C29_2 C 0.16902(16) 0.97314(11) 0.8431(2)
H23_2 H 0.125251 0.954633 0.816613
C30_2 C 0.28502(15) 0.86042(10) 0.87923(18)
H24_2 H 0.330471 0.870354 0.877071
C31_2 C 0.17736(15) 0.86288(10) 0.88367(18)
H25_2 H 0.132209 0.874778 0.884602
N20_2 N 0.54981(13) 0.89351(8) 0.86222(15)
N21_2 N 0.50880(12) 0.81585(8) 0.83805(13)
N22_2 N 0.58479(12) 0.81428(8) 0.87074(14)
C32_2 C 0.4991(2) 0.97362(11) 0.8817(3)
H26_2 H 0.463533 0.955223 0.893067
C33_2 C 0.55130(16) 0.94821(10) 0.86499(18)
C34_2 C 0.6052(2) 0.97353(11) 0.8516(3)
H27_2 H 0.642231 0.955127 0.842435
C35_2 C 0.48866(14) 0.86364(9) 0.83335(16)
H28_2 H 0.439259 0.875656 0.813056
C36_2 C 0.60792(15) 0.86135(10) 0.88513(17)
H29_2 H 0.658075 0.871408 0.908228
Cu14_2 Cu 0.63840(2) 0.74896(2) 0.87521(2)
Cu15_2 Cu 0.13840(2) 0.75104(2) 0.87521(2)
N14_3 N 0.13584(14) 0.10674(9) 0.19630(16)
N15_3 N 0.16099(13) 0.18278(9) 0.16969(14)
N16_3 N 0.10558(12) 0.18658(8) 0.19497(13)
C22_3 C 0.20214(19) 0.02622(11) 0.2206(3)
H18_3 H 0.247102 0.044546 0.233727
C23_3 C 0.13579(17) 0.05213(10) 0.2011(2)
C24_3 C 0.06980(18) 0.02647(11) 0.1842(2)
H19_3 H 0.025102 0.044862 0.172736
C25_3 C 0.17793(16) 0.13458(10) 0.17071(19)
H20_3 H 0.214437 0.121112 0.155678
C26_3 C 0.09101(16) 0.14028(10) 0.21072(17)
H21_3 H 0.054875 0.131682 0.229232
Cu8_3 Cu 0.19452(2) 0.24599(2) 0.13350(2)
Cu1_2 Cu 0.19452(2) 0.75401(2) 0.13350(2)
Cu2_2 Cu 0.05540(2) 0.74653(2) 0.18874(2)
O4_2 O 0.10642(11) 0.72272(8) 0.13175(12)
O5_2 O 0.28647(10) 0.78455(7) 0.14421(12)
O6_2 O 0.15066(14) 0.77312(14) 0.01315(14)
N2_3 N 0.13584(14) 0.89326(9) 0.19630(16)
N3_2 N 0.16099(13) 0.81722(9) 0.16969(14)
N4_2 N 0.10558(12) 0.81342(8) 0.19497(13)
N5_3 N 0.26731(13) 0.60698(8) 0.11791(14)
N6_2 N 0.23652(12) 0.68656(8) 0.12012(14)
N7_2 N 0.30421(12) 0.68501(8) 0.11627(13)
N11_2 N 0.48770(14) 0.72177(11) 0.35600(14)
N12_2 N 0.43732(13) 0.73137(11) 0.23891(14)
N13_2 N 0.51321(12) 0.73269(9) 0.26090(13)
C1_3 C 0.20214(19) 0.97378(11) 0.2206(3)
H1_3 H 0.247102 0.955454 0.233727
C2_3 C 0.13579(17) 0.94787(10) 0.2011(2)
C3_3 C 0.06980(18) 0.97353(11) 0.1842(2)
H2_3 H 0.025102 0.955138 0.172736
C4_3 C 0.17793(16) 0.86542(10) 0.17071(19)
H3_3 H 0.214437 0.878888 0.155678
C5_3 C 0.09101(16) 0.85972(10) 0.21072(17)
H4_3 H 0.054875 0.868318 0.229232
C6_3 C 0.20072(15) 0.52673(10) 0.07873(17)
H5_3 H 0.156819 0.545216 0.052604
C7_3 C 0.26595(15) 0.55216(9) 0.11755(17)
C8_3 C 0.33098(16) 0.52686(11) 0.1569(2)
H6_3 H 0.374749 0.545367 0.183387
C9_3 C 0.21498(15) 0.63958(10) 0.12077(18)
H7_3 H 0.169529 0.629646 0.122929
C10_3 C 0.32264(15) 0.63712(10) 0.11633(18)
H8_3 H 0.367791 0.625222 0.115398
C11_3 C 0.0009(2) 0.52638(11) 0.1183(3)
H9_3 H 0.036467 0.544777 0.106933
C14_3 C 0.01134(14) 0.63636(9) 0.16665(16)
H11_3 H 0.060741 0.624344 0.186944
C16_2 C 0.4471(4) 0.6934(4) 0.4487(4)
H13_2 H 0.408679 0.674856 0.412665
C17_2 C 0.49450(19) 0.71931(15) 0.43013(17)
C18_2 C 0.5550(5) 0.7471(4) 0.4840(4)
H14_2 H 0.588689 0.766493 0.471039
C19_2 C 0.42367(17) 0.72492(14) 0.29676(17)
H15_2 H 0.375828 0.722735 0.297421
C20_2 C 0.54222(16) 0.72697(12) 0.33122(16)
H16_2 H 0.593533 0.726529 0.360470
N17_3 N 0.26731(13) 0.39302(8) 0.11791(14)
N18_3 N 0.23652(12) 0.31344(8) 0.12012(14)
N19_3 N 0.30421(12) 0.31499(8) 0.11627(13)
C27_3 C 0.20072(15) 0.47327(10) 0.07873(17)
H22_3 H 0.156819 0.454784 0.052604
C28_3 C 0.26595(15) 0.44784(9) 0.11755(17)
C29_3 C 0.33098(16) 0.47314(11) 0.1569(2)
H23_3 H 0.374749 0.454633 0.183387
C30_3 C 0.21498(15) 0.36042(10) 0.12077(18)
H24_3 H 0.169529 0.370354 0.122929
C31_3 C 0.32264(15) 0.36288(10) 0.11633(18)
H25_3 H 0.367791 0.374778 0.115398
C32_3 C 0.0009(2) 0.47362(11) 0.1183(3)
H26_3 H 0.036467 0.455223 0.106933
C35_3 C 0.01134(14) 0.36364(9) 0.16665(16)
H28_3 H 0.060741 0.375656 0.186944
N23_2 N 0.51230(14) 0.72177(11) 0.64400(14)
N24_2 N 0.56268(13) 0.73137(11) 0.76109(14)
N25_2 N 0.48679(12) 0.73269(9) 0.73910(13)
C37_2 C 0.5529(4) 0.6934(4) 0.5513(4)
H30_2 H 0.591321 0.674856 0.587335
C38_2 C 0.50550(19) 0.71931(15) 0.56987(17)
C39_2 C 0.4450(5) 0.7471(4) 0.5160(4)
H31_2 H 0.411311 0.766493 0.528961
C40_2 C 0.57633(17) 0.72492(14) 0.70324(17)
H32_2 H 0.624172 0.722735 0.702579
C41_2 C 0.45778(16) 0.72697(12) 0.66878(16)
H33_2 H 0.406467 0.726529 0.639530
O14_2 O 0.43575(11) 0.71409(8) 0.09563(12)
N35_2 N 0.01321(12) 0.76731(9) 0.26090(13)
O7_2 O 0.06425(11) 0.78591(8) 0.90437(12)
C21_2 C 0.08871(17) 0.78676(13) 0.97363(18)
H17_2 H 0.056832 0.798699 0.995573
O12_2 O 0.34934(14) 0.72688(14) 0.98685(14)
N30_2 N 0.00880(12) 0.68415(8) 0.83805(13)
N8_3 N 0.95019(13) 0.60649(8) 0.13778(15)
N9_2 N 0.99120(12) 0.68415(8) 0.16195(13)
N10_3 N 0.91521(12) 0.68572(8) 0.12926(14)
C12_3 C 0.94870(16) 0.55179(10) 0.13501(18)
C13_3 C 0.8948(2) 0.52647(11) 0.1484(3)
H10_3 H 0.857769 0.544873 0.157565
C15_3 C 0.89208(15) 0.63865(10) 0.11487(17)
H12_3 H 0.841925 0.628592 0.091772
N20_3 N 0.95019(13) 0.39351(8) 0.13778(15)
N21_3 N 0.99120(12) 0.31585(8) 0.16195(13)
C33_3 C 0.94870(16) 0.44821(10) 0.13501(18)
C34_3 C 0.8948(2) 0.47353(11) 0.1484(3)
H27_3 H 0.857769 0.455127 0.157565
C36_3 C 0.89208(15) 0.36135(10) 0.11487(17)
H29_3 H 0.841925 0.371408 0.091772
O11_2 O 0.93575(11) 0.78591(8) 0.09563(12)
C42_2 C 0.91129(17) 0.78676(13) 0.02637(18)
H34_2 H 0.943168 0.798699 0.004427
O13_2 O 0.65066(14) 0.72688(14) 0.01315(14)
Cu4_2 Cu 0.80548(2) 0.75401(2) 0.86650(2)
Cu5_2 Cu 0.94460(2) 0.74653(2) 0.81126(2)
O8_2 O 0.89358(11) 0.72272(8) 0.86825(12)
O9_2 O 0.71353(10) 0.78455(7) 0.85579(12)
O10_2 O 0.84934(14) 0.77312(14) 0.98685(14)
O15_2 O 0.56425(11) 0.71409(8) 0.90437(12)
N26_2 N 0.83901(13) 0.81722(9) 0.83031(14)
N27_2 N 0.89442(12) 0.81342(8) 0.80503(13)
N28_2 N 0.76348(12) 0.68656(8) 0.87988(14)
N29_2 N 0.69579(12) 0.68501(8) 0.88373(13)
N34_2 N 0.98679(12) 0.76731(9) 0.73910(13)
N8_4 N 0.04981(13) 0.60649(8) 0.86222(15)
N10_4 N 0.08479(12) 0.68572(8) 0.87074(14)
C12_4 C 0.05130(16) 0.55179(10) 0.86499(18)
C13_4 C 0.1052(2) 0.52647(11) 0.8516(3)
H10_4 H 0.142231 0.544873 0.842435
C15_4 C 0.10792(15) 0.63865(10) 0.88513(17)
H12_4 H 0.158075 0.628592 0.908228
N20_4 N 0.04981(13) 0.39351(8) 0.86222(15)
N21_4 N 0.00880(12) 0.31585(8) 0.83805(13)
C33_4 C 0.05130(16) 0.44821(10) 0.86499(18)
C34_4 C 0.1052(2) 0.47353(11) 0.8516(3)
H27_4 H 0.142231 0.455127 0.842435
C36_4 C 0.10792(15) 0.36135(10) 0.88513(17)
H29_4 H 0.158075 0.371408 0.908228
N14_4 N 0.86416(14) 0.10674(9) 0.80370(16)
N15_4 N 0.83901(13) 0.18278(9) 0.83031(14)
N16_4 N 0.89442(12) 0.18658(8) 0.80503(13)
C22_4 C 0.79786(19) 0.02622(11) 0.7794(3)
H18_4 H 0.752898 0.044546 0.766273
C23_4 C 0.86421(17) 0.05213(10) 0.7989(2)
C24_4 C 0.93020(18) 0.02647(11) 0.8158(2)
H19_4 H 0.974898 0.044862 0.827264
C25_4 C 0.82207(16) 0.13458(10) 0.82929(19)
H20_4 H 0.785563 0.121112 0.844322
C26_4 C 0.90899(16) 0.14028(10) 0.78928(17)
H21_4 H 0.945125 0.131682 0.770768
Cu8_4 Cu 0.80548(2) 0.24599(2) 0.86650(2)
N2_4 N 0.86416(14) 0.89326(9) 0.80370(16)
N5_4 N 0.73269(13) 0.60698(8) 0.88209(14)
C1_4 C 0.79786(19) 0.97378(11) 0.7794(3)
H1_4 H 0.752898 0.955454 0.766273
C2_4 C 0.86421(17) 0.94787(10) 0.7989(2)
C3_4 C 0.93020(18) 0.97353(11) 0.8158(2)
H2_4 H 0.974898 0.955138 0.827264
C4_4 C 0.82207(16) 0.86542(10) 0.82929(19)
H3_4 H 0.785563 0.878888 0.844322
C5_4 C 0.90899(16) 0.85972(10) 0.78928(17)
H4_4 H 0.945125 0.868318 0.770768
C6_4 C 0.79928(15) 0.52673(10) 0.92127(17)
H5_4 H 0.843181 0.545216 0.947396
C7_4 C 0.73405(15) 0.55216(9) 0.88245(17)
C8_4 C 0.66902(16) 0.52686(11) 0.8431(2)
H6_4 H 0.625251 0.545367 0.816613
C9_4 C 0.78502(15) 0.63958(10) 0.87923(18)
H7_4 H 0.830471 0.629646 0.877071
C10_4 C 0.67736(15) 0.63712(10) 0.88367(18)
H8_4 H 0.632209 0.625222 0.884602
C11_4 C 0.9991(2) 0.52638(11) 0.8817(3)
H9_4 H 0.963533 0.544777 0.893067
C14_4 C 0.98866(14) 0.63636(9) 0.83335(16)
H11_4 H 0.939259 0.624344 0.813056
N17_4 N 0.73269(13) 0.39302(8) 0.88209(14)
N18_4 N 0.76348(12) 0.31344(8) 0.87988(14)
N19_4 N 0.69579(12) 0.31499(8) 0.88373(13)
C27_4 C 0.79928(15) 0.47327(10) 0.92127(17)
H22_4 H 0.843181 0.454784 0.947396
C28_4 C 0.73405(15) 0.44784(9) 0.88245(17)
C29_4 C 0.66902(16) 0.47314(11) 0.8431(2)
H23_4 H 0.625251 0.454633 0.816613
C30_4 C 0.78502(15) 0.36042(10) 0.87923(18)
H24_4 H 0.830471 0.370354 0.877071
C31_4 C 0.67736(15) 0.36288(10) 0.88367(18)
H25_4 H 0.632209 0.374778 0.884602
C32_4 C 0.9991(2) 0.47362(11) 0.8817(3)
H26_4 H 0.963533 0.455223 0.893067
C35_4 C 0.98866(14) 0.36364(9) 0.83335(16)
H28_4 H 0.939259 0.375656 0.813056
C21_3 C 0.41129(17) 0.71324(13) 0.02637(18)
H17_3 H 0.443168 0.701301 0.004427
O8_3 O 0.60642(11) 0.77728(8) 0.13175(12)
O9_3 O 0.78647(10) 0.71545(7) 0.14421(12)
N33 N 0.93732(13) 0.76863(11) 0.23891(14)
O4_3 O 0.39358(11) 0.77728(8) 0.86825(12)
O5_3 O 0.21353(10) 0.71545(7) 0.85579(12)
N11_3 N 0.01230(14) 0.77823(11) 0.64400(14)
N12_3 N 0.06268(13) 0.76863(11) 0.76109(14)
C16_3 C 0.0529(4) 0.8066(4) 0.5513(4)
H13_3 H 0.091321 0.825144 0.587335
C17_3 C 0.00550(19) 0.78069(15) 0.56987(17)
C19_3 C 0.07633(17) 0.77508(14) 0.70324(17)
H15_3 H 0.124172 0.777265 0.702579
C39_3 C 0.0550(5) 0.7529(4) 0.4840(4)
H31_3 H 0.088689 0.733507 0.471039
C41_3 C 0.04222(16) 0.77303(12) 0.33122(16)
H33_3 H 0.093533 0.773471 0.360470
C42_3 C 0.58871(17) 0.71324(13) 0.97363(18)
H34_3 H 0.556832 0.701301 0.995573
C18_3 C 0.9450(5) 0.7529(4) 0.5160(4)
H14_3 H 0.911311 0.733507 0.528961
C20_3 C 0.95778(16) 0.77303(12) 0.66878(16)
H16_3 H 0.906467 0.773471 0.639530
N23_3 N 0.98770(14) 0.77823(11) 0.35600(14)
C37_3 C 0.9471(4) 0.8066(4) 0.4487(4)
H30_3 H 0.908679 0.825144 0.412665
C38_3 C 0.99450(19) 0.78069(15) 0.43013(17)
C40_3 C 0.92367(17) 0.77508(14) 0.29676(17)
H32_3 H 0.875828 0.777265 0.297421
O8_4 O 0.10642(11) 0.27728(8) 0.13175(12)
O9_4 O 0.28647(10) 0.21545(7) 0.14421(12)
N33_2 N 0.43732(13) 0.26863(11) 0.23891(14)
C42_4 C 0.08871(17) 0.21324(13) 0.97363(18)
H34_4 H 0.056832 0.201301 0.995573
C21_4 C 0.91129(17) 0.21324(13) 0.02637(18)
H17_4 H 0.943168 0.201301 0.004427
O4_4 O 0.89358(11) 0.27728(8) 0.86825(12)
O5_4 O 0.71353(10) 0.21545(7) 0.85579(12)
N11_4 N 0.51230(14) 0.27823(11) 0.64400(14)
N12_4 N 0.56268(13) 0.26863(11) 0.76109(14)
C16_4 C 0.5529(4) 0.3066(4) 0.5513(4)
H13_4 H 0.591321 0.325144 0.587335
C17_4 C 0.50550(19) 0.28069(15) 0.56987(17)
C18_4 C 0.4450(5) 0.2529(4) 0.5160(4)
H14_4 H 0.411311 0.233507 0.528961
C19_4 C 0.57633(17) 0.27508(14) 0.70324(17)
H15_4 H 0.624172 0.277265 0.702579
C20_4 C 0.45778(16) 0.27303(12) 0.66878(16)
H16_4 H 0.406467 0.273471 0.639530
N23_4 N 0.48770(14) 0.27823(11) 0.35600(14)
C37_4 C 0.4471(4) 0.3066(4) 0.4487(4)
H30_4 H 0.408679 0.325144 0.412665
C38_4 C 0.49450(19) 0.28069(15) 0.43013(17)
C39_4 C 0.5550(5) 0.2529(4) 0.4840(4)
H31_4 H 0.588689 0.233507 0.471039
C40_4 C 0.42367(17) 0.27508(14) 0.29676(17)
H32_4 H 0.375828 0.277265 0.297421
C41_4 C 0.54222(16) 0.27303(12) 0.33122(16)
H33_4 H 0.593533 0.273471 0.360470
loop_
_geom_bond_atom_site_label_1
_geom_bond_atom_site_label_2
_geom_bond_site_symmetry_1
_geom_bond_site_symmetry_2
N1 O1 1_555 1_555
O2 N1 1_555 1_555
O2_2 N1_2 1_555 1_555
O3 N1_2 1_555 1_555
N1_3 O1_2 1_555 1_555
O2_3 N1_3 1_555 1_555
O2_4 N1_4 1_555 1_555
O2_5 N1_5 1_555 1_555
O2_6 N1_6 1_555 1_555
O3_2 N1_6 1_555 1_555
O2_7 N1_7 1_555 1_555
O3_3 N1_7 1_555 1_555
N1_8 O1_3 1_555 1_555
O2_8 N1_8 1_555 1_555
O2_9 N1_9 1_555 1_555
O3_4 N1_9 1_555 1_555
O2_10 N1_10 1_555 1_555
O2_11 N1_11 1_555 1_555
N1_12 O1_4 1_555 1_555
O2_12 N1_12 1_555 1_555
H14 C18 1_555 1_555
H16 C20 1_555 1_555
N23 C38 1_555 1_555
C37 C18 1_555 1_555
H30 C37 1_555 1_555
C38 C37 1_555 1_555
C40 N23 1_555 1_555
H32 C40 1_555 1_555
Cu12 N13 1_555 1_555
Cu13 N24 1_555 1_555
N13 C20 1_555 1_555
N24 C40 1_555 1_555
Cu1 O4 1_555 1_555
Cu2 O4 1_555 1_555
Cu3 O5 1_555 1_555
O5 Cu1 1_555 1_555
O6 Cu1 1_555 1_555
N2 C2 1_555 1_555
N3 Cu1 1_555 1_555
N4 Cu2 1_555 1_555
N5 C7 1_555 1_555
N6 Cu1 1_555 1_555
N7 Cu3 1_555 1_555
N8 C12 1_555 1_555
N9 Cu2 1_555 1_555
N10 N9 1_555 1_555
N11 C17 1_555 1_555
N12 Cu3 1_555 1_555
C1 H1 1_555 1_555
C2 C1 1_555 1_555
C3 C2 1_555 1_555
H2 C3 1_555 1_555
C4 N2 1_555 1_555
H3 C4 1_555 1_555
C5 N2 1_555 1_555
H4 C5 1_555 1_555
C6 H5 1_555 1_555
C7 C6 1_555 1_555
C8 C7 1_555 1_555
H6 C8 1_555 1_555
C9 N5 1_555 1_555
H7 C9 1_555 1_555
C10 N5 1_555 1_555
H8 C10 1_555 1_555
C11 H9 1_555 1_555
C12 C11 1_555 1_555
C13 C12 1_555 1_555
H10 C13 1_555 1_555
C14 N8 1_555 1_555
H11 C14 1_555 1_555
C15 N8 1_555 1_555
H12 C15 1_555 1_555
C16 H13 1_555 1_555
C17 C16 1_555 1_555
C19 N11 1_555 1_555
H15 C19 1_555 1_555
N14 C23 1_555 1_555
N15 N16 1_555 1_555
N16 C26 1_555 1_555
C22 C1 1_555 1_555
H18 C22 1_555 1_555
C23 C22 1_555 1_555
C24 C3 1_555 1_555
H19 C24 1_555 1_555
C25 N14 1_555 1_555
H20 C25 1_555 1_555
C26 N14 1_555 1_555
H21 C26 1_555 1_555
N25 C41 1_555 1_555
C39 C16 1_555 1_555
H31 C39 1_555 1_555
H33 C41 1_555 1_555
O11 Cu2 1_555 1_555
H34 C42 1_555 1_555
Cu8 N15 1_555 1_555
Cu10 N16 1_555 1_555
Cu11 N25 1_555 1_555
Cu17 N10 1_555 1_555
O14 Cu3 1_555 1_555
N32 Cu3 1_555 1_555
N35 Cu2 1_555 1_555
N3 N4 1_555 1_555
N3 C4 1_555 1_555
N4 C5 1_555 1_555
N6 N7 1_555 1_555
N6 C9 1_555 1_555
N7 C10 1_555 1_555
N9 C14 1_555 1_555
N10 C15 1_555 1_555
N12 C19 1_555 1_555
N15 C25 1_555 1_555
C23 C24 1_555 1_555
O11 C42 1_555 1_555
O11 Cu17 1_555 1_555
O7 C21 1_555 1_555
H17 C21 1_555 1_555
Cu4 O8 1_555 1_555
Cu5 O7 1_555 1_555
Cu13 O9 1_555 1_555
O8 Cu5 1_555 1_555
O9 Cu4 1_555 1_555
O10 Cu4 1_555 1_555
O15 Cu13 1_555 1_555
N26 Cu4 1_555 1_555
N27 Cu5 1_555 1_555
N28 Cu4 1_555 1_555
N29 Cu13 1_555 1_555
N30 Cu5 1_555 1_555
N31 Cu13 1_555 1_555
N34 Cu5 1_555 1_555
O7 Cu16 1_555 1_555
N26 N27 1_555 1_555
N28 N29 1_555 1_555
N17 C28 1_555 1_555
N18 N19 1_555 1_555
N19 C31 1_555 1_555
H22 C27 1_555 1_555
C28 C27 1_555 1_555
H23 C29 1_555 1_555
C30 N17 1_555 1_555
H24 C30 1_555 1_555
C31 N17 1_555 1_555
H25 C31 1_555 1_555
N20 C33 1_555 1_555
N21 N22 1_555 1_555
N22 C36 1_555 1_555
H26 C32 1_555 1_555
C33 C32 1_555 1_555
H27 C34 1_555 1_555
C35 N20 1_555 1_555
H28 C35 1_555 1_555
C36 N20 1_555 1_555
H29 C36 1_555 1_555
Cu8 N18 1_555 1_555
Cu10 N21 1_555 1_555
Cu14 N22 1_555 1_555
Cu15 N19 1_555 1_555
N18 C30 1_555 1_555
C28 C29 1_555 1_555
N21 C35 1_555 1_555
C33 C34 1_555 1_555
N2_2 C2_2 1_555 1_555
N5_2 C7_2 1_555 1_555
N8_2 C12_2 1_555 1_555
N10_2 N30 1_555 1_555
C1_2 H1_2 1_555 1_555
C2_2 C1_2 1_555 1_555
C3_2 C2_2 1_555 1_555
H2_2 C3_2 1_555 1_555
C4_2 N2_2 1_555 1_555
H3_2 C4_2 1_555 1_555
C5_2 N2_2 1_555 1_555
H4_2 C5_2 1_555 1_555
C6_2 H5_2 1_555 1_555
C7_2 C6_2 1_555 1_555
C8_2 C7_2 1_555 1_555
H6_2 C8_2 1_555 1_555
C9_2 N5_2 1_555 1_555
H7_2 C9_2 1_555 1_555
C10_2 N5_2 1_555 1_555
H8_2 C10_2 1_555 1_555
C11_2 H9_2 1_555 1_555
C12_2 C11_2 1_555 1_555
C13_2 C12_2 1_555 1_555
H10_2 C13_2 1_555 1_555
C14_2 N8_2 1_555 1_555
H11_2 C14_2 1_555 1_555
C15_2 N8_2 1_555 1_555
H12_2 C15_2 1_555 1_555
N14_2 C23_2 1_555 1_555
N15_2 N16_2 1_555 1_555
N16_2 C26_2 1_555 1_555
C22_2 C1_2 1_555 1_555
H18_2 C22_2 1_555 1_555
C23_2 C22_2 1_555 1_555
C24_2 C3_2 1_555 1_555
H19_2 C24_2 1_555 1_555
C25_2 N14_2 1_555 1_555
H20_2 C25_2 1_555 1_555
C26_2 N14_2 1_555 1_555
H21_2 C26_2 1_555 1_555
Cu8_2 N15_2 1_555 1_555
Cu10_2 N16_2 1_555 1_555
Cu16 N10_2 1_555 1_555
N26 C4_2 1_555 1_555
N27 C5_2 1_555 1_555
N28 C9_2 1_555 1_555
N29 C10_2 1_555 1_555
N30 C14_2 1_555 1_555
N10_2 C15_2 1_555 1_555
N15_2 C25_2 1_555 1_555
C23_2 C24_2 1_555 1_555
N17_2 C28_2 1_555 1_555
N18_2 N19_2 1_555 1_555
N19_2 C31_2 1_555 1_555
H22_2 C27_2 1_555 1_555
C28_2 C27_2 1_555 1_555
H23_2 C29_2 1_555 1_555
C30_2 N17_2 1_555 1_555
H24_2 C30_2 1_555 1_555
C31_2 N17_2 1_555 1_555
H25_2 C31_2 1_555 1_555
N20_2 C33_2 1_555 1_555
N21_2 N22_2 1_555 1_555
N22_2 C36_2 1_555 1_555
H26_2 C32_2 1_555 1_555
C33_2 C32_2 1_555 1_555
H27_2 C34_2 1_555 1_555
C35_2 N20_2 1_555 1_555
H28_2 C35_2 1_555 1_555
C36_2 N20_2 1_555 1_555
H29_2 C36_2 1_555 1_555
Cu8_2 N18_2 1_555 1_555
Cu10_2 N21_2 1_555 1_555
Cu14_2 N22_2 1_555 1_555
Cu15_2 N19_2 1_555 1_555
N18_2 C30_2 1_555 1_555
C28_2 C29_2 1_555 1_555
N21_2 C35_2 1_555 1_555
C33_2 C34_2 1_555 1_555
N14_3 C23_3 1_555 1_555
N15_3 N16_3 1_555 1_555
N16_3 C26_3 1_555 1_555
H18_3 C22_3 1_555 1_555
C23_3 C22_3 1_555 1_555
H19_3 C24_3 1_555 1_555
C25_3 N14_3 1_555 1_555
H20_3 C25_3 1_555 1_555
C26_3 N14_3 1_555 1_555
H21_3 C26_3 1_555 1_555
Cu8_3 N15_3 1_555 1_555
Cu12 N16_3 1_555 1_555
N15_3 C25_3 1_555 1_555
C23_3 C24_3 1_555 1_555
Cu1_2 O4_2 1_555 1_555
Cu2_2 O4_2 1_555 1_555
Cu14 O5_2 1_555 1_555
O5_2 Cu1_2 1_555 1_555
O6_2 Cu1_2 1_555 1_555
N2_3 C2_3 1_555 1_555
N3_2 Cu1_2 1_555 1_555
N4_2 Cu2_2 1_555 1_555
N5_3 C7_3 1_555 1_555
N6_2 Cu1_2 1_555 1_555
N7_2 Cu14 1_555 1_555
N11_2 C17_2 1_555 1_555
N12_2 Cu14 1_555 1_555
N13_2 N12_2 1_555 1_555
C1_3 H1_3 1_555 1_555
C2_3 C1_3 1_555 1_555
C3_3 C2_3 1_555 1_555
H2_3 C3_3 1_555 1_555
C4_3 N2_3 1_555 1_555
H3_3 C4_3 1_555 1_555
C5_3 N2_3 1_555 1_555
H4_3 C5_3 1_555 1_555
C6_3 H5_3 1_555 1_555
C7_3 C6_3 1_555 1_555
C8_3 C7_3 1_555 1_555
H6_3 C8_3 1_555 1_555
C9_3 N5_3 1_555 1_555
H7_3 C9_3 1_555 1_555
C10_3 N5_3 1_555 1_555
H8_3 C10_3 1_555 1_555
C11_3 H9_3 1_555 1_555
H11_3 C14_3 1_555 1_555
C16_2 H13_2 1_555 1_555
C17_2 C16_2 1_555 1_555
C18_2 C17_2 1_555 1_555
H14_2 C18_2 1_555 1_555
C19_2 N11_2 1_555 1_555
H15_2 C19_2 1_555 1_555
C20_2 N11_2 1_555 1_555
H16_2 C20_2 1_555 1_555
N17_3 C28_3 1_555 1_555
N18_3 N19_3 1_555 1_555
N19_3 C31_3 1_555 1_555
C27_3 C6_3 1_555 1_555
H22_3 C27_3 1_555 1_555
C28_3 C27_3 1_555 1_555
C29_3 C8_3 1_555 1_555
H23_3 C29_3 1_555 1_555
C30_3 N17_3 1_555 1_555
H24_3 C30_3 1_555 1_555
C31_3 N17_3 1_555 1_555
H25_3 C31_3 1_555 1_555
C32_3 C11_3 1_555 1_555
H26_3 C32_3 1_555 1_555
H28_3 C35_3 1_555 1_555
N23_2 C38_2 1_555 1_555
N24_2 N25_2 1_555 1_555
N25_2 C41_2 1_555 1_555
C37_2 C18_2 1_555 1_555
H30_2 C37_2 1_555 1_555
C38_2 C37_2 1_555 1_555
C39_2 C16_2 1_555 1_555
H31_2 C39_2 1_555 1_555
C40_2 N23_2 1_555 1_555
H32_2 C40_2 1_555 1_555
C41_2 N23_2 1_555 1_555
H33_2 C41_2 1_555 1_555
Cu8_3 N18_3 1_555 1_555
Cu10_2 N25_2 1_555 1_555
Cu10 N13_2 1_555 1_555
Cu14_2 N24_2 1_555 1_555
Cu17 N19_3 1_555 1_555
O14_2 Cu14 1_555 1_555
N35_2 Cu2_2 1_555 1_555
N3_2 N4_2 1_555 1_555
N3_2 C4_3 1_555 1_555
N4_2 C5_3 1_555 1_555
N6_2 N7_2 1_555 1_555
N6_2 C9_3 1_555 1_555
N7_2 C10_3 1_555 1_555
N12_2 C19_2 1_555 1_555
N13_2 C20_2 1_555 1_555
N18_3 C30_3 1_555 1_555
C28_3 C29_3 1_555 1_555
N24_2 C40_2 1_555 1_555
C38_2 C39_2 1_555 1_555
Cu10 O14_2 1_555 1_555
O7_2 C21_2 1_555 1_555
H17_2 C21_2 1_555 1_555
O7_2 Cu15_2 1_555 1_555
N8_3 C12_3 1_555 1_555
N10_3 N9_2 1_555 1_555
C13_3 C12_3 1_555 1_555
H10_3 C13_3 1_555 1_555
C15_3 N8_3 1_555 1_555
H12_3 C15_3 1_555 1_555
N20_3 C33_3 1_555 1_555
N21_3 N32 1_555 1_555
N32 C36_3 1_555 1_555
C34_3 C13_3 1_555 1_555
H27_3 C34_3 1_555 1_555
C36_3 N20_3 1_555 1_555
H29_3 C36_3 1_555 1_555
H34_2 C42_2 1_555 1_555
Cu15 N10_3 1_555 1_555
N10_3 C15_3 1_555 1_555
C33_3 C34_3 1_555 1_555
O11_2 C42_2 1_555 1_555
O11_2 Cu15 1_555 1_555
Cu4_2 O8_2 1_555 1_555
Cu14_2 O9_2 1_555 1_555
O8_2 Cu5_2 1_555 1_555
O9_2 Cu4_2 1_555 1_555
O10_2 Cu4_2 1_555 1_555
O15_2 Cu14_2 1_555 1_555
N26_2 Cu4_2 1_555 1_555
N27_2 Cu5_2 1_555 1_555
N28_2 Cu4_2 1_555 1_555
N29_2 Cu14_2 1_555 1_555
N34_2 Cu5_2 1_555 1_555
N26_2 N27_2 1_555 1_555
N28_2 N29_2 1_555 1_555
N8_4 C12_4 1_555 1_555
N10_4 N30_2 1_555 1_555
C13_4 C12_4 1_555 1_555
H10_4 C13_4 1_555 1_555
C15_4 N8_4 1_555 1_555
H12_4 C15_4 1_555 1_555
N20_4 C33_4 1_555 1_555
N21_4 N31 1_555 1_555
N31 C36_4 1_555 1_555
C34_4 C13_4 1_555 1_555
H27_4 C34_4 1_555 1_555
C36_4 N20_4 1_555 1_555
H29_4 C36_4 1_555 1_555
Cu15_2 N10_4 1_555 1_555
N10_4 C15_4 1_555 1_555
C33_4 C34_4 1_555 1_555
N14_4 C23_4 1_555 1_555
N15_4 N16_4 1_555 1_555
N16_4 C26_4 1_555 1_555
H18_4 C22_4 1_555 1_555
C23_4 C22_4 1_555 1_555
H19_4 C24_4 1_555 1_555
C25_4 N14_4 1_555 1_555
H20_4 C25_4 1_555 1_555
C26_4 N14_4 1_555 1_555
H21_4 C26_4 1_555 1_555
Cu8_4 N15_4 1_555 1_555
Cu11 N16_4 1_555 1_555
N15_4 C25_4 1_555 1_555
C23_4 C24_4 1_555 1_555
N2_4 C2_4 1_555 1_555
N5_4 C7_4 1_555 1_555
C1_4 H1_4 1_555 1_555
C2_4 C1_4 1_555 1_555
C3_4 C2_4 1_555 1_555
H2_4 C3_4 1_555 1_555
C4_4 N2_4 1_555 1_555
H3_4 C4_4 1_555 1_555
C5_4 N2_4 1_555 1_555
H4_4 C5_4 1_555 1_555
C6_4 H5_4 1_555 1_555
C7_4 C6_4 1_555 1_555
C8_4 C7_4 1_555 1_555
H6_4 C8_4 1_555 1_555
C9_4 N5_4 1_555 1_555
H7_4 C9_4 1_555 1_555
C10_4 N5_4 1_555 1_555
H8_4 C10_4 1_555 1_555
C11_4 H9_4 1_555 1_555
H11_4 C14_4 1_555 1_555
N17_4 C28_4 1_555 1_555
N18_4 N19_4 1_555 1_555
N19_4 C31_4 1_555 1_555
C27_4 C6_4 1_555 1_555
H22_4 C27_4 1_555 1_555
C28_4 C27_4 1_555 1_555
C29_4 C8_4 1_555 1_555
H23_4 C29_4 1_555 1_555
C30_4 N17_4 1_555 1_555
H24_4 C30_4 1_555 1_555
C31_4 N17_4 1_555 1_555
H25_4 C31_4 1_555 1_555
C32_4 C11_4 1_555 1_555
H26_4 C32_4 1_555 1_555
H28_4 C35_4 1_555 1_555
Cu8_4 N18_4 1_555 1_555
Cu16 N19_4 1_555 1_555
N26_2 C4_4 1_555 1_555
N27_2 C5_4 1_555 1_555
N28_2 C9_4 1_555 1_555
N29_2 C10_4 1_555 1_555
N18_4 C30_4 1_555 1_555
C28_4 C29_4 1_555 1_555
Cu10_2 O15_2 1_555 1_555
O14_2 C21_3 1_555 1_555
H17_3 C21_3 1_555 1_555
Cu8 O8_3 1_555 1_555
Cu15 O9_3 1_555 1_555
O8_3 Cu10 1_555 1_555
O9_3 Cu8 1_555 1_555
O13_2 Cu8 1_555 1_555
N33 Cu15 1_555 1_555
Cu8_2 O4_3 1_555 1_555
Cu10_2 O4_3 1_555 1_555
Cu15_2 O5_3 1_555 1_555
O5_3 Cu8_2 1_555 1_555
O12_2 Cu8_2 1_555 1_555
N11_3 C17_3 1_555 1_555
N12_3 Cu15_2 1_555 1_555
C16_3 H13_3 1_555 1_555
C17_3 C16_3 1_555 1_555
C19_3 N11_3 1_555 1_555
H15_3 C19_3 1_555 1_555
N35_2 C41_3 1_555 1_555
C39_3 C16_3 1_555 1_555
H31_3 C39_3 1_555 1_555
H33_3 C41_3 1_555 1_555
H34_3 C42_3 1_555 1_555
N12_3 C19_3 1_555 1_555
O15_2 C42_3 1_555 1_555
H14_3 C18_3 1_555 1_555
H16_3 C20_3 1_555 1_555
N23_3 C38_3 1_555 1_555
C37_3 C18_3 1_555 1_555
H30_3 C37_3 1_555 1_555
C38_3 C37_3 1_555 1_555
C40_3 N23_3 1_555 1_555
H32_3 C40_3 1_555 1_555
N34_2 C20_3 1_555 1_555
N33 C40_3 1_555 1_555
Cu8_3 O8_4 1_555 1_555
Cu17 O9_4 1_555 1_555
O8_4 Cu12 1_555 1_555
O9_4 Cu8_3 1_555 1_555
O13 Cu8_3 1_555 1_555
N33_2 Cu17 1_555 1_555
H34_4 C42_4 1_555 1_555
O15 C42_4 1_555 1_555
O14 C21_4 1_555 1_555
H17_4 C21_4 1_555 1_555
Cu8_4 O4_4 1_555 1_555
Cu11 O4_4 1_555 1_555
Cu16 O5_4 1_555 1_555
O5_4 Cu8_4 1_555 1_555
O12 Cu8_4 1_555 1_555
N11_4 C17_4 1_555 1_555
N12_4 Cu16 1_555 1_555
N34 N12_4 1_555 1_555
C16_4 H13_4 1_555 1_555
C17_4 C16_4 1_555 1_555
C18_4 C17_4 1_555 1_555
H14_4 C18_4 1_555 1_555
C19_4 N11_4 1_555 1_555
H15_4 C19_4 1_555 1_555
C20_4 N11_4 1_555 1_555
H16_4 C20_4 1_555 1_555
N23_4 C38_4 1_555 1_555
N33_2 N35 1_555 1_555
N35 C41_4 1_555 1_555
C37_4 C18_4 1_555 1_555
H30_4 C37_4 1_555 1_555
C38_4 C37_4 1_555 1_555
C39_4 C16_4 1_555 1_555
H31_4 C39_4 1_555 1_555
C40_4 N23_4 1_555 1_555
H32_4 C40_4 1_555 1_555
C41_4 N23_4 1_555 1_555
H33_4 C41_4 1_555 1_555
N12_4 C19_4 1_555 1_555
N34 C20_4 1_555 1_555
N33_2 C40_4 1_555 1_555
C38_4 C39_4 1_555 1_555

#END
