
###############################################################################
#
# This file contains modified crystal structure data generated from the
# MOF subset of the Cambridge Structural Database (CSD) v543 
# hosted by the Cambridge Crystallographic Data Centre (CCDC).
#
# This work is licensed under the Creative Commons
# Attribution-NonCommercial-ShareAlike 4.0 International License.
# To view a copy of this license, visit
# http://creativecommons.org/licenses/by-nc-sa/4.0/
# or send a letter to
# Creative Commons, PO Box 1866, Mountain View, CA 94042, USA.
#
# CIF created using the CSD Python API on 29 September 2022
# The structure has been converted into the P1 space group
# The structure has a 3D framework
# The original CSD entry EBEVAK is in the monoclinic crystal system
# The framework has been calculated to contain at least 10.0% void space
# The void calculation uses a probe of radius 1.32A, grid spacing 0.4
# The framework is charged, counterions have been retained in the structure
#
###############################################################################

data_EBEVAK
_chemical_formula_moiety         '(C256 H152 Cd8 N8 O48 8-)n'
_symmetry_cell_setting           triclinic
_symmetry_space_group_name_H-M   'P 1'
_symmetry_Int_Tables_number      1
_space_group_name_Hall           'P 1'
loop_
_symmetry_equiv_pos_site_id
_symmetry_equiv_pos_as_xyz
1 x,y,z
_cell_length_a                   16.8416(6)
_cell_length_b                   29.9444(9)
_cell_length_c                   15.9876(5)
_cell_angle_alpha                90
_cell_angle_beta                 98.0760(10)
_cell_angle_gamma                90
_cell_volume                     7982.77
loop_
_atom_site_label
_atom_site_type_symbol
_atom_site_fract_x
_atom_site_fract_y
_atom_site_fract_z
C47 C 0.4364(3) 0.08284(12) 0.0303(2)
H26 H 0.4795 0.0682 0.0643
C48 C 0.4357(3) 0.12877(12) 0.0250(2)
H27 H 0.4788 0.1453 0.0550
H30 H 0.4324 0.0040 0.1125
C55 C 0.2714(4) 0.2929(2) 0.1821(3)
H31 H 0.3117 0.3147 0.1982
C56 C 0.2145(4) 0.2846(2) 0.2365(3)
H32 H 0.2162 0.3013 0.2873
C57 C 0.1580(3) 0.25354(12) 0.2175(2)
C58 C 0.1553(3) 0.23194(17) 0.1420(3)
H33 H 0.1142 0.2108 0.1245
C59 C 0.2137(3) 0.24148(17) 0.0909(3)
H34 H 0.2124 0.2253 0.0396
C60 C 0.0526(3) 0.24918(16) 0.4108(2)
H35 H 0.0640 0.2565 0.4690
C61 C 0.1117(3) 0.25585(15) 0.3602(2)
H36 H 0.1624 0.2675 0.3839
C62 C 0.0970(3) 0.24545(12) 0.2745(2)
C63 C 0.0212(3) 0.22789(14) 0.2444(2)
H37 H 0.0082 0.2199 0.1866
Cd1 Cd 0.357057(18) 0.290605(8) 0.011872(15)
N1 N 0.2717(2) 0.27200(10) 0.10981(19)
O12 O 0.4251(2) 0.22315(9) 0.0199(2)
O15 O 0.3741(2) 0.36469(10) 0.08680(17)
O16 O 0.4681(2) 0.31355(11) 0.1043(2)
C28 C 0.5609(3) 0.85006(14) 0.3747(2)
C29 C 0.5193(3) 0.87467(12) 0.2998(2)
C30 C 0.5568(3) 0.91046(13) 0.2650(2)
H16 H 0.6080 0.9203 0.2912
C31 C 0.5199(3) 0.93186(13) 0.1923(2)
H17 H 0.5458 0.9564 0.1698
C32 C 0.4451(3) 0.91753(12) 0.1521(2)
C33 C 0.4082(3) 0.88186(13) 0.1878(3)
H18 H 0.3569 0.8719 0.1621
C34 C 0.4450(3) 0.86077(14) 0.2600(3)
H19 H 0.4190 0.8364 0.2826
C49 C 0.4067(3) 0.93959(12) 0.0731(2)
C50 C 0.3720(2) 0.91474(12) 0.0042(2)
H28 H 0.3710 0.8831 0.0082
C54 C 0.4080(2) 0.98655(12) 0.0662(2)
O7 O 0.6259(2) 0.86469(10) 0.41320(17)
O8 O 0.5319(2) 0.81355(11) 0.3957(2)
Cd3 Cd 0.642943(18) 0.790605(8) 0.488128(15)
Cd5 Cd 0.892720(18) 0.277445(8) 0.979437(16)
C10 C 0.8219(3) 0.11520(13) 0.9681(2)
H5 H 0.7817 0.1317 0.9335
C11 C 0.8201(3) 0.06922(12) 0.9655(2)
H6 H 0.7794 0.0546 0.9282
O3 O 0.8291(2) 0.21022(8) 0.9826(2)
N3 N 0.9808(2) 0.26703(11) 0.88156(18)
O17 O 0.7854(2) 0.29448(12) 0.8710(2)
O18 O 0.8643(2) 0.35123(10) 0.9114(2)
C1 C 0.7085(3) 0.83377(11) 0.6286(2)
C2 C 0.7457(2) 0.85719(12) 0.7083(2)
C3 C 0.8225(3) 0.87329(16) 0.7160(2)
H1 H 0.8539 0.8687 0.6718
C4 C 0.8544(3) 0.89627(17) 0.7882(3)
H2 H 0.9066 0.9088 0.7910
C5 C 0.8134(3) 0.90151(12) 0.8552(2)
C6 C 0.7398(4) 0.8826(2) 0.8493(3)
H3 H 0.7115 0.8838 0.8967
C7 C 0.7041(4) 0.8614(2) 0.7750(3)
H4 H 0.6510 0.8501 0.7713
C22 C 0.8478(2) 0.92493(12) 0.9349(2)
C23 C 0.8478(2) 0.97138(12) 0.9392(2)
H13 H 0.8277 0.9881 0.8903
C28_2 C 0.4391(3) 0.35006(14) 0.1253(2)
C29_2 C 0.4807(3) 0.37467(12) 0.2002(2)
C30_2 C 0.4432(3) 0.41046(13) 0.2350(2)
H16_2 H 0.3920 0.4203 0.2088
C31_2 C 0.4801(3) 0.43186(13) 0.3077(2)
H17_2 H 0.4542 0.4564 0.3302
C32_2 C 0.5549(3) 0.41753(12) 0.3479(2)
C33_2 C 0.5918(3) 0.38186(13) 0.3122(3)
H18_2 H 0.6431 0.3719 0.3379
C34_2 C 0.5550(3) 0.36077(14) 0.2400(3)
H19_2 H 0.5810 0.3364 0.2174
C35 C 0.8074(3) 0.33404(15) 0.8615(3)
C36 C 0.7691(3) 0.36003(14) 0.7871(3)
C37 C 0.7988(3) 0.40207(15) 0.7694(3)
H20 H 0.8434 0.4142 0.8052
C38 C 0.7629(3) 0.42672(15) 0.6987(3)
H21 H 0.7825 0.4556 0.6882
C39 C 0.6990(3) 0.40895(13) 0.6444(2)
C40 C 0.6776(4) 0.36591(17) 0.6575(4)
H22 H 0.6381 0.3520 0.6176
C41 C 0.7117(4) 0.34204(17) 0.7273(4)
H23 H 0.6948 0.3121 0.7341
C42 C 0.6328(3) 0.70122(13) 0.5232(2)
C43 C 0.6265(2) 0.65122(12) 0.5230(2)
C44 C 0.6884(3) 0.62598(12) 0.5694(2)
H24 H 0.7309 0.6406 0.6041
C45 C 0.6871(2) 0.57991(12) 0.5643(2)
H25 H 0.7290 0.5631 0.5956
C46 C 0.6251(2) 0.55764(11) 0.5136(2)
C47_2 C 0.5636(3) 0.58284(12) 0.4697(2)
H26_2 H 0.5205 0.5682 0.4357
C48_2 C 0.5643(3) 0.62877(12) 0.4750(2)
H27_2 H 0.5212 0.6453 0.4450
C49_2 C 0.5933(3) 0.43959(12) 0.4269(2)
C50_2 C 0.6280(2) 0.41474(12) 0.4958(2)
H28_2 H 0.6290 0.3831 0.4918
C51 C 0.6615(2) 0.43543(12) 0.5712(2)
C52 C 0.6587(2) 0.48181(12) 0.5755(2)
H29 H 0.6799 0.4961 0.6268
C53 C 0.6262(2) 0.50771(12) 0.5081(2)
C54_2 C 0.5920(2) 0.48655(12) 0.4338(2)
H30_2 H 0.5676 0.5040 0.3875
C55_2 C 0.7286(4) 0.7929(2) 0.3179(3)
H31_2 H 0.6883 0.8147 0.3018
C56_2 C 0.7855(4) 0.7846(2) 0.2635(3)
H32_2 H 0.7838 0.8013 0.2127
C57_2 C 0.8420(3) 0.75354(12) 0.2825(2)
C58_2 C 0.8447(3) 0.73194(17) 0.3580(3)
H33_2 H 0.8858 0.7108 0.3755
C59_2 C 0.7863(3) 0.74148(17) 0.4091(3)
H34_2 H 0.7876 0.7253 0.4604
C60_2 C 0.9474(3) 0.74918(16) 0.0892(2)
H35_2 H 0.9360 0.7565 0.0310
C61_2 C 0.8883(3) 0.75585(15) 0.1398(2)
H36_2 H 0.8376 0.7675 0.1161
C62_2 C 0.9030(3) 0.74545(12) 0.2255(2)
C63_2 C 0.9788(3) 0.72789(14) 0.2556(2)
H37_2 H 0.9918 0.7199 0.3134
N1_2 N 0.7283(2) 0.77200(10) 0.39019(19)
O1 O 0.75188(17) 0.82493(9) 0.57247(15)
O2 O 0.63573(18) 0.82293(9) 0.61989(15)
O11 O 0.6925(2) 0.72030(8) 0.56090(17)
O12_2 O 0.5749(2) 0.72315(9) 0.4801(2)
C64 C 0.9657(3) 0.27779(14) 0.7990(2)
H38 H 0.9147 0.2898 0.7776
C1_2 C 0.2915(3) 0.33377(11) 0.8714(2)
C2_2 C 0.2543(2) 0.35719(12) 0.7917(2)
C3_2 C 0.1775(3) 0.37329(16) 0.7840(2)
H1_2 H 0.1461 0.3687 0.8282
C4_2 C 0.1456(3) 0.39627(17) 0.7118(3)
H2_2 H 0.0934 0.4088 0.7090
C5_2 C 0.1866(3) 0.40151(12) 0.6448(2)
C6_2 C 0.2602(4) 0.3826(2) 0.6507(3)
H3_2 H 0.2885 0.3838 0.6033
C7_2 C 0.2959(4) 0.3614(2) 0.7250(3)
H4_2 H 0.3490 0.3501 0.7287
C8 C 0.1117(3) 0.68820(13) 0.4832(2)
C9 C 0.1183(3) 0.63792(12) 0.4794(2)
C10_2 C 0.1781(3) 0.61520(13) 0.5319(2)
H5_2 H 0.2183 0.6317 0.5665
C11_2 C 0.1799(3) 0.56922(12) 0.5345(2)
H6_2 H 0.2206 0.5546 0.5718
C12 C 0.1229(2) 0.54362(12) 0.4830(2)
C13 C 0.0637(3) 0.56690(12) 0.4281(2)
H7 H 0.0251 0.5507 0.3911
C14 C 0.0615(3) 0.61307(13) 0.4281(2)
H8 H 0.0203 0.6281 0.3921
C17 C 0.0592(3) 0.37661(16) 0.1945(2)
H9 H 0.0819 0.3798 0.1437
C18 C 0.0905(3) 0.40125(16) 0.2656(3)
H10 H 0.1330 0.4218 0.2624
C19 C 0.0595(3) 0.39579(11) 0.3410(2)
C22_2 C 0.1522(2) 0.42493(12) 0.5651(2)
C23_2 C 0.1522(2) 0.47138(12) 0.5608(2)
H13_2 H 0.1723 0.4881 0.6097
C24 C 0.1232(2) 0.49385(12) 0.4862(2)
C25 C 0.0948(2) 0.46860(11) 0.4142(2)
H14 H 0.0763 0.4834 0.3625
C26 C 0.0932(2) 0.42210(12) 0.4175(2)
C27 C 0.1214(2) 0.40023(12) 0.4938(2)
H15 H 0.1194 0.3686 0.4968
C42_2 C 0.3672(3) 0.20122(13) 0.9768(2)
C43_2 C 0.3735(2) 0.15122(12) 0.9770(2)
C44_2 C 0.3116(3) 0.12598(12) 0.9306(2)
H24_2 H 0.2691 0.1406 0.8959
C45_2 C 0.3129(2) 0.07991(12) 0.9357(2)
H25_2 H 0.2710 0.0631 0.9044
C46_2 C 0.3749(2) 0.05764(11) 0.9864(2)
C53_2 C 0.3738(2) 0.00771(12) 0.9919(2)
Cd2 Cd 0.107280(18) 0.777445(8) 0.520563(16)
O1_2 O 0.24812(17) 0.32493(9) 0.92753(15)
O2_2 O 0.36427(18) 0.32293(9) 0.88011(15)
O3_2 O 0.1709(2) 0.71022(8) 0.5174(2)
O4 O 0.0468(2) 0.70650(8) 0.45502(17)
O5 O 0.00240(19) 0.31627(9) 0.06105(16)
O11_2 O 0.3075(2) 0.22030(8) 0.93910(17)
N3_2 N 0.0192(2) 0.76703(11) 0.61844(18)
O14 O 0.1097(2) 0.80703(9) 0.38577(16)
O17_2 O 0.2146(2) 0.79448(12) 0.6290(2)
O18_2 O 0.1357(2) 0.85123(10) 0.5886(2)
C35_2 C 0.1926(3) 0.83404(15) 0.6385(3)
C36_2 C 0.2309(3) 0.86003(14) 0.7129(3)
C37_2 C 0.2012(3) 0.90207(15) 0.7306(3)
H20_2 H 0.1566 0.9142 0.6948
C38_2 C 0.2371(3) 0.92672(15) 0.8013(3)
H21_2 H 0.2175 0.9556 0.8118
C39_2 C 0.3010(3) 0.90895(13) 0.8556(2)
C40_2 C 0.3224(4) 0.86591(17) 0.8425(4)
H22_2 H 0.3619 0.8520 0.8824
C41_2 C 0.2883(4) 0.84204(17) 0.7727(4)
H23_2 H 0.3052 0.8121 0.7659
C51_2 C 0.3385(2) 0.93543(12) 0.9288(2)
C52_2 C 0.3413(2) 0.98181(12) 0.9245(2)
H29_2 H 0.3201 0.9961 0.8732
C15 C 0.0391(3) 0.82198(12) 0.3807(2)
C16 C 0.0046(3) 0.84743(12) 0.3030(2)
C20 C 0.0010(3) 0.86572(14) 0.1555(2)
H11 H 0.0202 0.8606 0.1031
C21 C 0.0353(3) 0.84237(14) 0.2270(2)
H12 H 0.0795 0.8230 0.2240
C64_2 C 0.0343(3) 0.77779(14) 0.7010(2)
H38_2 H 0.0853 0.7898 0.7224
C64_3 C 0.9657(3) 0.22221(14) 0.2990(2)
H38_3 H 0.9147 0.2102 0.2776
N2 N 0.9808(2) 0.23297(11) 0.38156(18)
Cd4 Cd 0.892720(18) 0.222555(8) 0.479437(16)
C35_3 C 0.8074(3) 0.16596(15) 0.3615(3)
C36_3 C 0.7691(3) 0.13997(14) 0.2871(3)
C37_3 C 0.7988(3) 0.09793(15) 0.2694(3)
H20_3 H 0.8434 0.0858 0.3052
C38_3 C 0.7629(3) 0.07328(15) 0.1987(3)
H21_3 H 0.7825 0.0444 0.1882
C39_3 C 0.6990(3) 0.09105(13) 0.1444(2)
C40_3 C 0.6776(4) 0.13409(17) 0.1575(4)
H22_3 H 0.6381 0.1480 0.1176
C41_3 C 0.7117(4) 0.15796(17) 0.2273(4)
H23_3 H 0.6948 0.1879 0.2341
C51_3 C 0.6615(2) 0.06457(12) 0.0712(2)
C52_3 C 0.6587(2) 0.01819(12) 0.0755(2)
H29_3 H 0.6799 0.0039 0.1268
O9 O 0.7854(2) 0.20552(12) 0.3710(2)
O10 O 0.8643(2) 0.14877(10) 0.4114(2)
C1_3 C 0.7085(3) 0.66623(11) 0.1286(2)
C2_3 C 0.7457(2) 0.64281(12) 0.2083(2)
C3_3 C 0.8225(3) 0.62671(16) 0.2160(2)
H1_3 H 0.8539 0.6313 0.1718
C4_3 C 0.8544(3) 0.60373(17) 0.2882(3)
H2_3 H 0.9066 0.5912 0.2910
C5_3 C 0.8134(3) 0.59849(12) 0.3552(2)
C6_3 C 0.7398(4) 0.6174(2) 0.3493(3)
H3_3 H 0.7115 0.6162 0.3967
C7_3 C 0.7041(4) 0.6386(2) 0.2750(3)
H4_3 H 0.6510 0.6499 0.2713
C8_2 C 0.8883(3) 0.31180(13) 0.5168(2)
C9_2 C 0.8817(3) 0.36208(12) 0.5206(2)
C10_3 C 0.8219(3) 0.38480(13) 0.4681(2)
H5_3 H 0.7817 0.3683 0.4335
C11_3 C 0.8201(3) 0.43078(12) 0.4655(2)
H6_3 H 0.7794 0.4454 0.4282
C12_2 C 0.8771(2) 0.45638(12) 0.5170(2)
C13_2 C 0.9363(3) 0.43310(12) 0.5719(2)
H7_2 H 0.9749 0.4493 0.6089
C14_2 C 0.9385(3) 0.38693(13) 0.5719(2)
H8_2 H 0.9797 0.3719 0.6079
C17_2 C 0.9408(3) 0.62339(16) 0.8055(2)
H9_2 H 0.9181 0.6202 0.8563
C18_2 C 0.9095(3) 0.59875(16) 0.7344(3)
H10_2 H 0.8670 0.5782 0.7376
C19_2 C 0.9405(3) 0.60421(11) 0.6590(2)
C22_3 C 0.8478(2) 0.57507(12) 0.4349(2)
C23_3 C 0.8478(2) 0.52862(12) 0.4392(2)
H13_3 H 0.8277 0.5119 0.3903
C24_2 C 0.8768(2) 0.50615(12) 0.5138(2)
C25_2 C 0.9052(2) 0.53140(11) 0.5858(2)
H14_2 H 0.9237 0.5166 0.6375
C26_2 C 0.9068(2) 0.57790(12) 0.5825(2)
C27_2 C 0.8786(2) 0.59977(12) 0.5062(2)
H15_2 H 0.8806 0.6314 0.5032
C42_3 C 0.6328(3) 0.79878(13) 0.0232(2)
C43_3 C 0.6265(2) 0.84878(12) 0.0230(2)
C44_3 C 0.6884(3) 0.87402(12) 0.0694(2)
H24_3 H 0.7309 0.8594 0.1041
C45_3 C 0.6871(2) 0.92009(12) 0.0643(2)
H25_3 H 0.7290 0.9369 0.0956
C46_3 C 0.6251(2) 0.94236(11) 0.0136(2)
C53_3 C 0.6262(2) 0.99229(12) 0.0081(2)
O1_3 O 0.75188(17) 0.67507(9) 0.07247(15)
O2_3 O 0.63573(18) 0.67707(9) 0.11989(15)
O3_3 O 0.8291(2) 0.28978(8) 0.4826(2)
O4_2 O 0.9532(2) 0.29350(8) 0.54498(17)
O5_2 O 0.99760(19) 0.68373(9) 0.93895(16)
O11_3 O 0.6925(2) 0.77970(8) 0.06090(17)
O14_2 O 0.8903(2) 0.19297(9) 0.61423(16)
C15_2 C 0.9609(3) 0.17802(12) 0.6193(2)
C16_2 C 0.9954(3) 0.15257(12) 0.6970(2)
C20_2 C 0.9990(3) 0.13428(14) 0.8445(2)
H11_2 H 0.9798 0.1394 0.8969
C21_2 C 0.9647(3) 0.15763(14) 0.7730(2)
H12_2 H 0.9205 0.1770 0.7760
C15_3 C 0.9609(3) 0.32198(12) 0.1193(2)
C16_3 C 0.9954(3) 0.34743(12) 0.1970(2)
C20_3 C 0.9990(3) 0.36572(14) 0.3445(2)
H11_3 H 0.9798 0.3606 0.3969
C21_3 C 0.9647(3) 0.34237(14) 0.2730(2)
H12_3 H 0.9205 0.3230 0.2760
O6 O 0.8903(2) 0.30703(9) 0.11423(16)
O13 O 0.99760(19) 0.81627(9) 0.43895(16)
C8_3 C 0.8883(3) 0.18820(13) 0.0168(2)
C9_3 C 0.8817(3) 0.13792(12) 0.0206(2)
C12_3 C 0.8771(2) 0.04362(12) 0.0170(2)
C13_3 C 0.9363(3) 0.06690(12) 0.0719(2)
H7_3 H 0.9749 0.0507 0.1089
C14_3 C 0.9385(3) 0.11307(13) 0.0719(2)
H8_3 H 0.9797 0.1281 0.1079
O4_3 O 0.9532(2) 0.20650(8) 0.04498(17)
C17_3 C 0.9408(3) 0.87661(16) 0.3055(2)
H9_3 H 0.9181 0.8798 0.3563
C18_3 C 0.9095(3) 0.90125(16) 0.2344(3)
H10_3 H 0.8670 0.9218 0.2376
C19_3 C 0.9405(3) 0.89579(11) 0.1590(2)
C24_3 C 0.8768(2) 0.99385(12) 0.0138(2)
C25_3 C 0.9052(2) 0.96860(11) 0.0858(2)
H14_3 H 0.9237 0.9834 0.1375
C26_3 C 0.9068(2) 0.92210(12) 0.0825(2)
C27_3 C 0.8786(2) 0.90023(12) 0.0062(2)
H15_3 H 0.8806 0.8686 0.0032
C64_4 C 0.0343(3) 0.72221(14) 0.2010(2)
H38_4 H 0.0853 0.7102 0.2224
N2_2 N 0.0192(2) 0.73297(11) 0.11844(18)
Cd4_2 Cd 0.107280(18) 0.722555(8) 0.020563(16)
C28_3 C 0.4391(3) 0.14994(14) 0.6253(2)
C29_3 C 0.4807(3) 0.12533(12) 0.7002(2)
C30_3 C 0.4432(3) 0.08954(13) 0.7350(2)
H16_3 H 0.3920 0.0797 0.7088
C31_3 C 0.4801(3) 0.06814(13) 0.8077(2)
H17_3 H 0.4542 0.0436 0.8302
C32_3 C 0.5549(3) 0.08247(12) 0.8479(2)
C33_3 C 0.5918(3) 0.11814(13) 0.8122(3)
H18_3 H 0.6431 0.1281 0.8379
C34_3 C 0.5550(3) 0.13923(14) 0.7400(3)
H19_3 H 0.5810 0.1636 0.7174
C49_3 C 0.5933(3) 0.06041(12) 0.9269(2)
C50_3 C 0.6280(2) 0.08526(12) 0.9958(2)
H28_3 H 0.6290 0.1169 0.9918
C54_3 C 0.5920(2) 0.01345(12) 0.9338(2)
O7_2 O 0.3741(2) 0.13531(10) 0.58680(17)
O8_2 O 0.4681(2) 0.18645(11) 0.6043(2)
Cd3_2 Cd 0.357057(18) 0.209395(8) 0.511872(15)
C47_3 C 0.5636(3) 0.91716(12) 0.9697(2)
H26_3 H 0.5205 0.9318 0.9357
C48_3 C 0.5643(3) 0.87123(12) 0.9750(2)
H27_3 H 0.5212 0.8547 0.9450
H30_3 H 0.5676 0.9960 0.8875
C55_3 C 0.7286(4) 0.7071(2) 0.8179(3)
H31_3 H 0.6883 0.6853 0.8018
C56_3 C 0.7855(4) 0.7154(2) 0.7635(3)
H32_3 H 0.7838 0.6987 0.7127
C57_3 C 0.8420(3) 0.74646(12) 0.7825(2)
C58_3 C 0.8447(3) 0.76806(17) 0.8580(3)
H33_3 H 0.8858 0.7892 0.8755
C59_3 C 0.7863(3) 0.75852(17) 0.9091(3)
H34_3 H 0.7876 0.7747 0.9604
C60_3 C 0.9474(3) 0.75082(16) 0.5892(2)
H35_3 H 0.9360 0.7435 0.5310
C61_3 C 0.8883(3) 0.74415(15) 0.6398(2)
H36_3 H 0.8376 0.7325 0.6161
C62_3 C 0.9030(3) 0.75455(12) 0.7255(2)
C63_3 C 0.9788(3) 0.77211(14) 0.7556(2)
H37_3 H 0.9918 0.7801 0.8134
Cd1_2 Cd 0.642943(18) 0.709395(8) 0.988128(15)
N1_3 N 0.7283(2) 0.72800(10) 0.89019(19)
O12_3 O 0.5749(2) 0.77685(9) 0.9801(2)
O15_2 O 0.6259(2) 0.63531(10) 0.91320(17)
O16_2 O 0.5319(2) 0.68645(11) 0.8957(2)
C1_4 C 0.2915(3) 0.16623(11) 0.3714(2)
C2_4 C 0.2543(2) 0.14281(12) 0.2917(2)
C3_4 C 0.1775(3) 0.12671(16) 0.2840(2)
H1_4 H 0.1461 0.1313 0.3282
C4_4 C 0.1456(3) 0.10373(17) 0.2118(3)
H2_4 H 0.0934 0.0912 0.2090
C5_4 C 0.1866(3) 0.09849(12) 0.1448(2)
C6_4 C 0.2602(4) 0.1174(2) 0.1507(3)
H3_4 H 0.2885 0.1162 0.1033
C7_4 C 0.2959(4) 0.1386(2) 0.2250(3)
H4_4 H 0.3490 0.1499 0.2287
C22_4 C 0.1522(2) 0.07507(12) 0.0651(2)
C23_4 C 0.1522(2) 0.02862(12) 0.0608(2)
H13_4 H 0.1723 0.0119 0.1097
C28_4 C 0.5609(3) 0.64994(14) 0.8747(2)
C29_4 C 0.5193(3) 0.62533(12) 0.7998(2)
C30_4 C 0.5568(3) 0.58954(13) 0.7650(2)
H16_4 H 0.6080 0.5797 0.7912
C31_4 C 0.5199(3) 0.56814(13) 0.6923(2)
H17_4 H 0.5458 0.5436 0.6698
C32_4 C 0.4451(3) 0.58247(12) 0.6521(2)
C33_4 C 0.4082(3) 0.61814(13) 0.6878(3)
H18_4 H 0.3569 0.6281 0.6621
C34_4 C 0.4450(3) 0.63923(14) 0.7600(3)
H19_4 H 0.4190 0.6636 0.7826
C35_4 C 0.1926(3) 0.66596(15) 0.1385(3)
C36_4 C 0.2309(3) 0.63997(14) 0.2129(3)
C37_4 C 0.2012(3) 0.59793(15) 0.2306(3)
H20_4 H 0.1566 0.5858 0.1948
C38_4 C 0.2371(3) 0.57328(15) 0.3013(3)
H21_4 H 0.2175 0.5444 0.3118
C39_4 C 0.3010(3) 0.59105(13) 0.3556(2)
C40_4 C 0.3224(4) 0.63409(17) 0.3425(4)
H22_4 H 0.3619 0.6480 0.3824
C41_4 C 0.2883(4) 0.65796(17) 0.2727(4)
H23_4 H 0.3052 0.6879 0.2659
C42_4 C 0.3672(3) 0.29878(13) 0.4768(2)
C43_4 C 0.3735(2) 0.34878(12) 0.4770(2)
C44_4 C 0.3116(3) 0.37402(12) 0.4306(2)
H24_4 H 0.2691 0.3594 0.3959
C45_4 C 0.3129(2) 0.42009(12) 0.4357(2)
H25_4 H 0.2710 0.4369 0.4044
C46_4 C 0.3749(2) 0.44236(11) 0.4864(2)
C47_4 C 0.4364(3) 0.41716(12) 0.5303(2)
H26_4 H 0.4795 0.4318 0.5643
C48_4 C 0.4357(3) 0.37123(12) 0.5250(2)
H27_4 H 0.4788 0.3547 0.5550
C49_4 C 0.4067(3) 0.56041(12) 0.5731(2)
C50_4 C 0.3720(2) 0.58526(12) 0.5042(2)
H28_4 H 0.3710 0.6169 0.5082
C51_4 C 0.3385(2) 0.56457(12) 0.4288(2)
C52_4 C 0.3413(2) 0.51819(12) 0.4245(2)
H29_4 H 0.3201 0.5039 0.3732
C53_4 C 0.3738(2) 0.49229(12) 0.4919(2)
C54_4 C 0.4080(2) 0.51345(12) 0.5662(2)
H30_4 H 0.4324 0.4960 0.6125
C55_4 C 0.2714(4) 0.2071(2) 0.6821(3)
H31_4 H 0.3117 0.1853 0.6982
C56_4 C 0.2145(4) 0.2154(2) 0.7365(3)
H32_4 H 0.2162 0.1987 0.7873
C57_4 C 0.1580(3) 0.24646(12) 0.7175(2)
C58_4 C 0.1553(3) 0.26806(17) 0.6420(3)
H33_4 H 0.1142 0.2892 0.6245
C59_4 C 0.2137(3) 0.25852(17) 0.5909(3)
H34_4 H 0.2124 0.2747 0.5396
C60_4 C 0.0526(3) 0.25082(16) 0.9108(2)
H35_4 H 0.0640 0.2435 0.9690
C61_4 C 0.1117(3) 0.24415(15) 0.8602(2)
H36_4 H 0.1624 0.2325 0.8839
C62_4 C 0.0970(3) 0.25455(12) 0.7745(2)
C63_4 C 0.0212(3) 0.27211(14) 0.7444(2)
H37_4 H 0.0082 0.2801 0.6866
N1_4 N 0.2717(2) 0.22800(10) 0.60981(19)
O1_4 O 0.24812(17) 0.17507(9) 0.42753(15)
O2_4 O 0.36427(18) 0.17707(9) 0.38011(15)
O9_2 O 0.2146(2) 0.70552(12) 0.1290(2)
O10_2 O 0.1357(2) 0.64877(10) 0.0886(2)
O11_4 O 0.3075(2) 0.27970(8) 0.43910(17)
O12_4 O 0.4251(2) 0.27685(9) 0.5199(2)
C10_4 C 0.1781(3) 0.88480(13) 0.0319(2)
H5_4 H 0.2183 0.8683 0.0665
C11_4 C 0.1799(3) 0.93078(12) 0.0345(2)
H6_4 H 0.2206 0.9454 0.0718
O3_4 O 0.1709(2) 0.78978(8) 0.0174(2)
C15_4 C 0.0391(3) 0.67802(12) 0.8807(2)
C16_4 C 0.0046(3) 0.65257(12) 0.8030(2)
C20_4 C 0.0010(3) 0.63428(14) 0.6555(2)
H11_4 H 0.0202 0.6394 0.6031
C21_4 C 0.0353(3) 0.65763(14) 0.7270(2)
H12_4 H 0.0795 0.6770 0.7240
O6_2 O 0.1097(2) 0.69297(9) 0.88577(16)
O13_2 O 0.00240(19) 0.18373(9) 0.56105(16)
C17_4 C 0.0592(3) 0.12339(16) 0.6945(2)
H9_4 H 0.0819 0.1202 0.6437
C18_4 C 0.0905(3) 0.09875(16) 0.7656(3)
H10_4 H 0.1330 0.0782 0.7624
C19_4 C 0.0595(3) 0.10421(11) 0.8410(2)
C24_4 C 0.1232(2) 0.00615(12) 0.9862(2)
C25_4 C 0.0948(2) 0.03140(11) 0.9142(2)
H14_4 H 0.0763 0.0166 0.8625
C26_4 C 0.0932(2) 0.07790(12) 0.9175(2)
C27_4 C 0.1214(2) 0.09977(12) 0.9938(2)
H15_4 H 0.1194 0.1314 0.9968
C8_4 C 0.1117(3) 0.81180(13) 0.9832(2)
C9_4 C 0.1183(3) 0.86208(12) 0.9794(2)
C12_4 C 0.1229(2) 0.95638(12) 0.9830(2)
C13_4 C 0.0637(3) 0.93310(12) 0.9281(2)
H7_4 H 0.0251 0.9493 0.8911
C14_4 C 0.0615(3) 0.88693(13) 0.9281(2)
H8_4 H 0.0203 0.8719 0.8921
O4_4 O 0.0468(2) 0.79350(8) 0.95502(17)
loop_
_geom_bond_atom_site_label_1
_geom_bond_atom_site_label_2
_geom_bond_site_symmetry_1
_geom_bond_site_symmetry_2
H26 C47 1_555 1_555
H27 C48 1_555 1_555
C55 H31 1_555 1_555
C56 C55 1_555 1_555
H32 C56 1_555 1_555
C57 C56 1_555 1_555
C58 C57 1_555 1_555
H33 C58 1_555 1_555
C59 C58 1_555 1_555
H34 C59 1_555 1_555
C60 H35 1_555 1_555
C61 C60 1_555 1_555
H36 C61 1_555 1_555
C62 C57 1_555 1_555
C63 C62 1_555 1_555
H37 C63 1_555 1_555
Cd1 N1 1_555 1_555
N1 C55 1_555 1_555
O15 Cd1 1_555 1_555
O16 Cd1 1_555 1_555
C47 C48 1_555 1_555
C59 N1 1_555 1_555
C61 C62 1_555 1_555
Cd1 O12 1_555 1_555
C28 C29 1_555 1_555
C29 C30 1_555 1_555
C30 H16 1_555 1_555
C31 C30 1_555 1_555
H17 C31 1_555 1_555
C32 C31 1_555 1_555
C33 C32 1_555 1_555
H18 C33 1_555 1_555
C34 C29 1_555 1_555
H19 C34 1_555 1_555
C49 C32 1_555 1_555
C50 C49 1_555 1_555
H28 C50 1_555 1_555
C54 C49 1_555 1_555
O7 C28 1_555 1_555
O8 C28 1_555 1_555
Cd3 O7 1_555 1_555
C33 C34 1_555 1_555
O8 Cd3 1_555 1_555
C10 H5 1_555 1_555
C11 C10 1_555 1_555
H6 C11 1_555 1_555
Cd5 O3 1_555 1_555
N3 Cd5 1_555 1_555
O17 Cd5 1_555 1_555
O18 Cd5 1_555 1_555
C1 C2 1_555 1_555
C2 C3 1_555 1_555
C3 H1 1_555 1_555
C4 C3 1_555 1_555
H2 C4 1_555 1_555
C5 C4 1_555 1_555
C6 C5 1_555 1_555
H3 C6 1_555 1_555
C7 C2 1_555 1_555
H4 C7 1_555 1_555
C22 C5 1_555 1_555
C23 C22 1_555 1_555
H13 C23 1_555 1_555
C28_2 C29_2 1_555 1_555
C29_2 C30_2 1_555 1_555
C30_2 H16_2 1_555 1_555
C31_2 C30_2 1_555 1_555
H17_2 C31_2 1_555 1_555
C32_2 C31_2 1_555 1_555
C33_2 C32_2 1_555 1_555
H18_2 C33_2 1_555 1_555
C34_2 C29_2 1_555 1_555
H19_2 C34_2 1_555 1_555
C35 C36 1_555 1_555
C36 C37 1_555 1_555
C37 H20 1_555 1_555
C38 C37 1_555 1_555
H21 C38 1_555 1_555
C39 C38 1_555 1_555
C40 C39 1_555 1_555
H22 C40 1_555 1_555
C41 C36 1_555 1_555
H23 C41 1_555 1_555
C42 C43 1_555 1_555
C43 C44 1_555 1_555
C44 H24 1_555 1_555
C45 C44 1_555 1_555
H25 C45 1_555 1_555
C46 C45 1_555 1_555
C47_2 C46 1_555 1_555
H26_2 C47_2 1_555 1_555
C48_2 C43 1_555 1_555
H27_2 C48_2 1_555 1_555
C49_2 C32_2 1_555 1_555
C50_2 C49_2 1_555 1_555
H28_2 C50_2 1_555 1_555
C51 C39 1_555 1_555
C52 C51 1_555 1_555
H29 C52 1_555 1_555
C53 C46 1_555 1_555
C54_2 C49_2 1_555 1_555
H30_2 C54_2 1_555 1_555
C55_2 H31_2 1_555 1_555
C56_2 C55_2 1_555 1_555
H32_2 C56_2 1_555 1_555
C57_2 C56_2 1_555 1_555
C58_2 C57_2 1_555 1_555
H33_2 C58_2 1_555 1_555
C59_2 C58_2 1_555 1_555
H34_2 C59_2 1_555 1_555
C60_2 H35_2 1_555 1_555
C61_2 C60_2 1_555 1_555
H36_2 C61_2 1_555 1_555
C62_2 C57_2 1_555 1_555
C63_2 C62_2 1_555 1_555
H37_2 C63_2 1_555 1_555
Cd3 N1_2 1_555 1_555
N1_2 C55_2 1_555 1_555
O1 C1 1_555 1_555
O2 C1 1_555 1_555
O15 C28_2 1_555 1_555
O16 C28_2 1_555 1_555
O17 C35 1_555 1_555
O18 C35 1_555 1_555
O11 C42 1_555 1_555
O12_2 C42 1_555 1_555
C6 C7 1_555 1_555
C33_2 C34_2 1_555 1_555
C40 C41 1_555 1_555
C47_2 C48_2 1_555 1_555
C50_2 C51 1_555 1_555
C52 C53 1_555 1_555
C53 C54_2 1_555 1_555
C59_2 N1_2 1_555 1_555
C61_2 C62_2 1_555 1_555
Cd3 O1 1_555 1_555
Cd3 O2 1_555 1_555
Cd3 O11 1_555 1_555
Cd3 O12_2 1_555 1_555
H38 C64 1_555 1_555
C64 N3 1_555 1_555
C1_2 C2_2 1_555 1_555
C2_2 C3_2 1_555 1_555
C3_2 H1_2 1_555 1_555
C4_2 C3_2 1_555 1_555
H2_2 C4_2 1_555 1_555
C5_2 C4_2 1_555 1_555
C6_2 C5_2 1_555 1_555
H3_2 C6_2 1_555 1_555
C7_2 C2_2 1_555 1_555
H4_2 C7_2 1_555 1_555
C8 C9 1_555 1_555
C9 C10_2 1_555 1_555
C10_2 H5_2 1_555 1_555
C11_2 C10_2 1_555 1_555
H6_2 C11_2 1_555 1_555
C12 C11_2 1_555 1_555
C13 C12 1_555 1_555
H7 C13 1_555 1_555
C14 C9 1_555 1_555
H8 C14 1_555 1_555
C17 H9 1_555 1_555
C18 C17 1_555 1_555
H10 C18 1_555 1_555
C19 C18 1_555 1_555
C22_2 C5_2 1_555 1_555
C23_2 C22_2 1_555 1_555
H13_2 C23_2 1_555 1_555
C24 C12 1_555 1_555
C25 C24 1_555 1_555
H14 C25 1_555 1_555
C26 C19 1_555 1_555
C27 C22_2 1_555 1_555
H15 C27 1_555 1_555
C42_2 C43_2 1_555 1_555
C43_2 C44_2 1_555 1_555
C44_2 H24_2 1_555 1_555
C45_2 C44_2 1_555 1_555
H25_2 C45_2 1_555 1_555
C46_2 C45_2 1_555 1_555
C53_2 C46_2 1_555 1_555
Cd2 O3_2 1_555 1_555
O1_2 C1_2 1_555 1_555
O2_2 C1_2 1_555 1_555
O3_2 C8 1_555 1_555
O4 C8 1_555 1_555
O11_2 C42_2 1_555 1_555
N3_2 Cd2 1_555 1_555
O14 Cd2 1_555 1_555
O17_2 Cd2 1_555 1_555
O18_2 Cd2 1_555 1_555
C6_2 C7_2 1_555 1_555
C13 C14 1_555 1_555
C23_2 C24 1_555 1_555
C25 C26 1_555 1_555
C26 C27 1_555 1_555
Cd2 O4 1_555 1_555
C35_2 C36_2 1_555 1_555
C36_2 C37_2 1_555 1_555
C37_2 H20_2 1_555 1_555
C38_2 C37_2 1_555 1_555
H21_2 C38_2 1_555 1_555
C39_2 C38_2 1_555 1_555
C40_2 C39_2 1_555 1_555
H22_2 C40_2 1_555 1_555
C41_2 C36_2 1_555 1_555
H23_2 C41_2 1_555 1_555
C51_2 C39_2 1_555 1_555
C52_2 C51_2 1_555 1_555
H29_2 C52_2 1_555 1_555
O17_2 C35_2 1_555 1_555
O18_2 C35_2 1_555 1_555
C40_2 C41_2 1_555 1_555
C15 C16 1_555 1_555
H11 C20 1_555 1_555
C21 C16 1_555 1_555
H12 C21 1_555 1_555
O14 C15 1_555 1_555
C20 C21 1_555 1_555
H38_2 C64_2 1_555 1_555
C64_2 N3_2 1_555 1_555
H38_3 C64_3 1_555 1_555
Cd4 N2 1_555 1_555
C64_3 N2 1_555 1_555
C35_3 C36_3 1_555 1_555
C36_3 C37_3 1_555 1_555
C37_3 H20_3 1_555 1_555
C38_3 C37_3 1_555 1_555
H21_3 C38_3 1_555 1_555
C39_3 C38_3 1_555 1_555
C40_3 C39_3 1_555 1_555
H22_3 C40_3 1_555 1_555
C41_3 C36_3 1_555 1_555
H23_3 C41_3 1_555 1_555
C51_3 C39_3 1_555 1_555
C52_3 C51_3 1_555 1_555
H29_3 C52_3 1_555 1_555
O9 C35_3 1_555 1_555
O10 C35_3 1_555 1_555
Cd4 O9 1_555 1_555
C40_3 C41_3 1_555 1_555
O10 Cd4 1_555 1_555
C1_3 C2_3 1_555 1_555
C2_3 C3_3 1_555 1_555
C3_3 H1_3 1_555 1_555
C4_3 C3_3 1_555 1_555
H2_3 C4_3 1_555 1_555
C5_3 C4_3 1_555 1_555
C6_3 C5_3 1_555 1_555
H3_3 C6_3 1_555 1_555
C7_3 C2_3 1_555 1_555
H4_3 C7_3 1_555 1_555
C8_2 C9_2 1_555 1_555
C9_2 C10_3 1_555 1_555
C10_3 H5_3 1_555 1_555
C11_3 C10_3 1_555 1_555
H6_3 C11_3 1_555 1_555
C12_2 C11_3 1_555 1_555
C13_2 C12_2 1_555 1_555
H7_2 C13_2 1_555 1_555
C14_2 C9_2 1_555 1_555
H8_2 C14_2 1_555 1_555
C17_2 H9_2 1_555 1_555
C18_2 C17_2 1_555 1_555
H10_2 C18_2 1_555 1_555
C19_2 C18_2 1_555 1_555
C22_3 C5_3 1_555 1_555
C23_3 C22_3 1_555 1_555
H13_3 C23_3 1_555 1_555
C24_2 C12_2 1_555 1_555
C25_2 C24_2 1_555 1_555
H14_2 C25_2 1_555 1_555
C26_2 C19_2 1_555 1_555
C27_2 C22_3 1_555 1_555
H15_2 C27_2 1_555 1_555
C42_3 C43_3 1_555 1_555
C43_3 C44_3 1_555 1_555
C44_3 H24_3 1_555 1_555
C45_3 C44_3 1_555 1_555
H25_3 C45_3 1_555 1_555
C46_3 C45_3 1_555 1_555
C53_3 C46_3 1_555 1_555
Cd4 O3_3 1_555 1_555
O1_3 C1_3 1_555 1_555
O2_3 C1_3 1_555 1_555
O3_3 C8_2 1_555 1_555
O4_2 C8_2 1_555 1_555
O11_3 C42_3 1_555 1_555
O14_2 Cd4 1_555 1_555
C6_3 C7_3 1_555 1_555
C13_2 C14_2 1_555 1_555
C23_3 C24_2 1_555 1_555
C25_2 C26_2 1_555 1_555
C26_2 C27_2 1_555 1_555
Cd4 O4_2 1_555 1_555
C15_2 C16_2 1_555 1_555
H11_2 C20_2 1_555 1_555
C21_2 C16_2 1_555 1_555
H12_2 C21_2 1_555 1_555
O14_2 C15_2 1_555 1_555
C20_2 C21_2 1_555 1_555
C15_3 C16_3 1_555 1_555
H11_3 C20_3 1_555 1_555
C21_3 C16_3 1_555 1_555
H12_3 C21_3 1_555 1_555
O6 C15_3 1_555 1_555
C20_3 C21_3 1_555 1_555
C8_3 C9_3 1_555 1_555
C13_3 C12_3 1_555 1_555
H7_3 C13_3 1_555 1_555
C14_3 C9_3 1_555 1_555
H8_3 C14_3 1_555 1_555
O4_3 C8_3 1_555 1_555
C13_3 C14_3 1_555 1_555
C17_3 H9_3 1_555 1_555
C18_3 C17_3 1_555 1_555
H10_3 C18_3 1_555 1_555
C19_3 C18_3 1_555 1_555
C25_3 C24_3 1_555 1_555
H14_3 C25_3 1_555 1_555
C26_3 C19_3 1_555 1_555
H15_3 C27_3 1_555 1_555
C25_3 C26_3 1_555 1_555
C26_3 C27_3 1_555 1_555
H38_4 C64_4 1_555 1_555
Cd4_2 N2_2 1_555 1_555
C64_4 N2_2 1_555 1_555
C28_3 C29_3 1_555 1_555
C29_3 C30_3 1_555 1_555
C30_3 H16_3 1_555 1_555
C31_3 C30_3 1_555 1_555
H17_3 C31_3 1_555 1_555
C32_3 C31_3 1_555 1_555
C33_3 C32_3 1_555 1_555
H18_3 C33_3 1_555 1_555
C34_3 C29_3 1_555 1_555
H19_3 C34_3 1_555 1_555
C49_3 C32_3 1_555 1_555
C50_3 C49_3 1_555 1_555
H28_3 C50_3 1_555 1_555
C54_3 C49_3 1_555 1_555
O7_2 C28_3 1_555 1_555
O8_2 C28_3 1_555 1_555
Cd3_2 O7_2 1_555 1_555
C33_3 C34_3 1_555 1_555
O8_2 Cd3_2 1_555 1_555
H26_3 C47_3 1_555 1_555
H27_3 C48_3 1_555 1_555
C55_3 H31_3 1_555 1_555
C56_3 C55_3 1_555 1_555
H32_3 C56_3 1_555 1_555
C57_3 C56_3 1_555 1_555
C58_3 C57_3 1_555 1_555
H33_3 C58_3 1_555 1_555
C59_3 C58_3 1_555 1_555
H34_3 C59_3 1_555 1_555
C60_3 H35_3 1_555 1_555
C61_3 C60_3 1_555 1_555
H36_3 C61_3 1_555 1_555
C62_3 C57_3 1_555 1_555
C63_3 C62_3 1_555 1_555
H37_3 C63_3 1_555 1_555
Cd1_2 N1_3 1_555 1_555
N1_3 C55_3 1_555 1_555
O15_2 Cd1_2 1_555 1_555
O16_2 Cd1_2 1_555 1_555
C47_3 C48_3 1_555 1_555
C59_3 N1_3 1_555 1_555
C61_3 C62_3 1_555 1_555
Cd1_2 O12_3 1_555 1_555
C1_4 C2_4 1_555 1_555
C2_4 C3_4 1_555 1_555
C3_4 H1_4 1_555 1_555
C4_4 C3_4 1_555 1_555
H2_4 C4_4 1_555 1_555
C5_4 C4_4 1_555 1_555
C6_4 C5_4 1_555 1_555
H3_4 C6_4 1_555 1_555
C7_4 C2_4 1_555 1_555
H4_4 C7_4 1_555 1_555
C22_4 C5_4 1_555 1_555
C23_4 C22_4 1_555 1_555
H13_4 C23_4 1_555 1_555
C28_4 C29_4 1_555 1_555
C29_4 C30_4 1_555 1_555
C30_4 H16_4 1_555 1_555
C31_4 C30_4 1_555 1_555
H17_4 C31_4 1_555 1_555
C32_4 C31_4 1_555 1_555
C33_4 C32_4 1_555 1_555
H18_4 C33_4 1_555 1_555
C34_4 C29_4 1_555 1_555
H19_4 C34_4 1_555 1_555
C35_4 C36_4 1_555 1_555
C36_4 C37_4 1_555 1_555
C37_4 H20_4 1_555 1_555
C38_4 C37_4 1_555 1_555
H21_4 C38_4 1_555 1_555
C39_4 C38_4 1_555 1_555
C40_4 C39_4 1_555 1_555
H22_4 C40_4 1_555 1_555
C41_4 C36_4 1_555 1_555
H23_4 C41_4 1_555 1_555
C42_4 C43_4 1_555 1_555
C43_4 C44_4 1_555 1_555
C44_4 H24_4 1_555 1_555
C45_4 C44_4 1_555 1_555
H25_4 C45_4 1_555 1_555
C46_4 C45_4 1_555 1_555
C47_4 C46_4 1_555 1_555
H26_4 C47_4 1_555 1_555
C48_4 C43_4 1_555 1_555
H27_4 C48_4 1_555 1_555
C49_4 C32_4 1_555 1_555
C50_4 C49_4 1_555 1_555
H28_4 C50_4 1_555 1_555
C51_4 C39_4 1_555 1_555
C52_4 C51_4 1_555 1_555
H29_4 C52_4 1_555 1_555
C53_4 C46_4 1_555 1_555
C54_4 C49_4 1_555 1_555
H30_4 C54_4 1_555 1_555
C55_4 H31_4 1_555 1_555
C56_4 C55_4 1_555 1_555
H32_4 C56_4 1_555 1_555
C57_4 C56_4 1_555 1_555
C58_4 C57_4 1_555 1_555
H33_4 C58_4 1_555 1_555
C59_4 C58_4 1_555 1_555
H34_4 C59_4 1_555 1_555
C60_4 H35_4 1_555 1_555
C61_4 C60_4 1_555 1_555
H36_4 C61_4 1_555 1_555
C62_4 C57_4 1_555 1_555
C63_4 C62_4 1_555 1_555
H37_4 C63_4 1_555 1_555
Cd3_2 N1_4 1_555 1_555
N1_4 C55_4 1_555 1_555
O1_4 C1_4 1_555 1_555
O2_4 C1_4 1_555 1_555
O15_2 C28_4 1_555 1_555
O16_2 C28_4 1_555 1_555
O9_2 C35_4 1_555 1_555
O10_2 C35_4 1_555 1_555
O11_4 C42_4 1_555 1_555
O12_4 C42_4 1_555 1_555
Cd4_2 O9_2 1_555 1_555
C6_4 C7_4 1_555 1_555
C33_4 C34_4 1_555 1_555
C40_4 C41_4 1_555 1_555
C47_4 C48_4 1_555 1_555
C50_4 C51_4 1_555 1_555
C52_4 C53_4 1_555 1_555
C53_4 C54_4 1_555 1_555
C59_4 N1_4 1_555 1_555
C61_4 C62_4 1_555 1_555
Cd3_2 O1_4 1_555 1_555
Cd3_2 O2_4 1_555 1_555
Cd3_2 O11_4 1_555 1_555
Cd3_2 O12_4 1_555 1_555
O10_2 Cd4_2 1_555 1_555
C10_4 H5_4 1_555 1_555
C11_4 C10_4 1_555 1_555
H6_4 C11_4 1_555 1_555
Cd4_2 O3_4 1_555 1_555
C15_4 C16_4 1_555 1_555
H11_4 C20_4 1_555 1_555
C21_4 C16_4 1_555 1_555
H12_4 C21_4 1_555 1_555
O6_2 C15_4 1_555 1_555
C20_4 C21_4 1_555 1_555
C17_4 H9_4 1_555 1_555
C18_4 C17_4 1_555 1_555
H10_4 C18_4 1_555 1_555
C19_4 C18_4 1_555 1_555
C25_4 C24_4 1_555 1_555
H14_4 C25_4 1_555 1_555
C26_4 C19_4 1_555 1_555
H15_4 C27_4 1_555 1_555
C25_4 C26_4 1_555 1_555
C26_4 C27_4 1_555 1_555
C8_4 C9_4 1_555 1_555
C13_4 C12_4 1_555 1_555
H7_4 C13_4 1_555 1_555
C14_4 C9_4 1_555 1_555
H8_4 C14_4 1_555 1_555
O4_4 C8_4 1_555 1_555
C13_4 C14_4 1_555 1_555

#END
