
###############################################################################
#
# This file contains modified crystal structure data generated from the
# MOF subset of the Cambridge Structural Database (CSD) v543 
# hosted by the Cambridge Crystallographic Data Centre (CCDC).
#
# This work is licensed under the Creative Commons
# Attribution-NonCommercial-ShareAlike 4.0 International License.
# To view a copy of this license, visit
# http://creativecommons.org/licenses/by-nc-sa/4.0/
# or send a letter to
# Creative Commons, PO Box 1866, Mountain View, CA 94042, USA.
#
# CIF created using the CSD Python API on 29 September 2022
# The structure has been converted into the P1 space group
# The structure has a 3D framework
# The original CSD entry EBEWOZ is in the tetragonal crystal system
# The original CSD entry EBEWOZ is in a Sohncke space group
# The framework has been calculated to contain at least 10.0% void space
# The void calculation uses a probe of radius 1.32A, grid spacing 0.4
#
###############################################################################

data_EBEWOZ
_chemical_formula_moiety         '(C54 H18 Gd4 O24)n'
_symmetry_cell_setting           triclinic
_symmetry_space_group_name_H-M   'P 1'
_symmetry_Int_Tables_number      1
_space_group_name_Hall           'P 1'
loop_
_symmetry_equiv_pos_site_id
_symmetry_equiv_pos_as_xyz
1 x,y,z
_cell_length_a                   10.3635(7)
_cell_length_b                   10.3635(7)
_cell_length_c                   13.8321(18)
_cell_angle_alpha                90
_cell_angle_beta                 90
_cell_angle_gamma                90
_cell_volume                     1485.6
loop_
_atom_site_label
_atom_site_type_symbol
_atom_site_fract_x
_atom_site_fract_y
_atom_site_fract_z
Gd6 Gd 0.12260(3) 0.12260(3) 0.8750
C1 C -0.0000 0.3733(11) 0.0000
C3 C -0.0000 0.5131(11) 0.0000
C6 C 0.0000 0.7804(10) 0.0000
H2 H 0.0000 0.8702 0.0000
O13 O 0.0918(5) 0.0870(6) 0.0819(4)
C1_2 C -0.0000 0.3733(11) 1.0000
C3_2 C -0.0000 0.5131(11) 1.0000
C6_2 C -0.0000 0.7804(10) 1.0000
H2_2 H -0.0000 0.8702 1.0000
Gd5 Gd 0.12260(3) 0.87740(3) 0.6250
O4 O 0.0824(6) 0.3161(5) 0.9476(4)
O6 O 0.0824(8) 0.7302(6) 0.7506(4)
O9 O 0.0870(6) 0.9082(5) 0.8319(4)
C7 C 0.0719(8) 0.7903(7) 0.8290(6)
C8 C 0.0375(9) 0.5833(7) 0.9182(5)
H3 H 0.0644 0.5393 0.8631
C9 C 0.0355(9) 0.7162(7) 0.9175(5)
Gd3 Gd 0.87740(3) 0.12260(3) 0.1250
O1 O 0.9176(6) 0.3161(5) 0.0524(4)
O2 O 0.9176(8) 0.7302(6) 0.2494(4)
O3 O 0.9130(6) 0.9082(5) 0.1681(4)
C1_3 C 1.0000 0.3733(11) 0.0000
C2 C 0.9281(8) 0.7903(7) 0.1710(6)
C3_3 C 1.0000 0.5131(11) 0.0000
C4 C 0.9625(9) 0.5833(7) 0.0818(5)
H1 H 0.9356 0.5393 0.1369
C5 C 0.9645(9) 0.7162(7) 0.0825(5)
C6_3 C 1.0000 0.7804(10) 0.0000
H2_3 H 1.0000 0.8702 0.0000
Gd2 Gd 0.87740(3) 0.87740(3) 0.3750
O5 O 0.6839(5) 0.0824(6) 0.1976(4)
O8 O 0.9176(8) 0.2698(6) 0.2506(4)
O12 O 0.9130(6) 0.0918(5) 0.3319(4)
C1_4 C 1.0000 0.3733(11) 1.0000
C3_4 C 1.0000 0.5131(11) 1.0000
C6_4 C 1.0000 0.7804(10) 1.0000
H2_4 H 1.0000 0.8702 1.0000
O7 O 0.7302(6) 0.0824(8) 0.9994(4)
O11 O 0.9082(5) 0.0870(6) 0.9181(4)
O10 O 0.0870(6) 0.0918(5) 0.6681(4)
O1_2 O 0.0824(6) 0.6839(5) 0.5524(4)
O2_2 O 0.0824(8) 0.2698(6) 0.7494(4)
C1_5 C 0.0000 0.6267(11) 0.5000
C2_2 C 0.0719(8) 0.2097(7) 0.6710(6)
C3_5 C 0.0000 0.4869(11) 0.5000
C4_2 C 0.0375(9) 0.4167(7) 0.5818(5)
H1_2 H 0.0644 0.4607 0.6369
C5_2 C 0.0355(9) 0.2838(7) 0.5825(5)
C6_5 C -0.0000 0.2196(10) 0.5000
H2_5 H -0.0000 0.1298 0.5000
O5_2 O 0.3161(5) 0.9176(6) 0.6976(4)
O7_2 O 0.2698(6) 0.9176(8) 0.4994(4)
O11_2 O 0.0918(5) 0.9130(6) 0.4181(4)
C1_6 C 1.0000 0.6267(11) 0.5000
C3_6 C 1.0000 0.4869(11) 0.5000
C6_6 C 1.0000 0.2196(10) 0.5000
H2_6 H 1.0000 0.1298 0.5000
O4_2 O 0.9176(6) 0.6839(5) 0.4476(4)
O13_2 O 0.9082(5) 0.9130(6) 0.5819(4)
C7_2 C 0.9281(8) 0.2097(7) 0.3290(6)
C8_2 C 0.9625(9) 0.4167(7) 0.4182(5)
H3_2 H 0.9356 0.4607 0.3631
C9_2 C 0.9645(9) 0.2838(7) 0.4175(5)
C1_7 C 0.6267(11) 0.0000 0.2500
C3_7 C 0.4869(11) 0.0000 0.2500
C6_7 C 0.2196(10) 0.0000 0.2500
H2_7 H 0.1298 0.0000 0.2500
O6_2 O 0.2698(6) 0.0824(8) 0.0006(4)
C7_3 C 0.2097(7) 0.0719(8) 0.0790(6)
C8_3 C 0.4167(7) 0.0375(9) 0.1682(5)
H3_3 H 0.4607 0.0644 0.1131
C9_3 C 0.2838(7) 0.0355(9) 0.1675(5)
O1_3 O 0.6839(5) 0.9176(6) 0.3024(4)
C1_8 C 0.6267(11) 1.0000 0.2500
C2_3 C 0.2097(7) 0.9281(8) 0.4210(6)
C3_8 C 0.4869(11) 1.0000 0.2500
C4_3 C 0.4167(7) 0.9625(9) 0.3318(5)
H1_3 H 0.4607 0.9356 0.3869
C5_3 C 0.2838(7) 0.9645(9) 0.3325(5)
C6_8 C 0.2196(10) 1.0000 0.2500
H2_8 H 0.1298 1.0000 0.2500
O8_2 O 0.7302(6) 0.9176(8) 0.5006(4)
O1_4 O 0.3161(5) 0.0824(6) 0.8024(4)
C1_9 C 0.3733(11) -0.0000 0.7500
C2_4 C 0.7903(7) 0.0719(8) 0.9210(6)
C3_9 C 0.5131(11) -0.0000 0.7500
C4_4 C 0.5833(7) 0.0375(9) 0.8318(5)
H1_4 H 0.5393 0.0644 0.8869
C5_4 C 0.7162(7) 0.0355(9) 0.8325(5)
C6_9 C 0.7804(10) -0.0000 0.7500
H2_9 H 0.8702 -0.0000 0.7500
C1_10 C 0.3733(11) 1.0000 0.7500
C3_10 C 0.5131(11) 1.0000 0.7500
C6_10 C 0.7804(10) 1.0000 0.7500
H2_10 H 0.8702 1.0000 0.7500
C7_4 C 0.7903(7) 0.9281(8) 0.5790(6)
C8_4 C 0.5833(7) 0.9625(9) 0.6682(5)
H3_4 H 0.5393 0.9356 0.6131
C9_4 C 0.7162(7) 0.9645(9) 0.6675(5)
loop_
_geom_bond_atom_site_label_1
_geom_bond_atom_site_label_2
_geom_bond_site_symmetry_1
_geom_bond_site_symmetry_2
C1 C3 1_555 1_555
H2 C6 1_555 1_555
C1_2 C3_2 1_555 1_555
H2_2 C6_2 1_555 1_555
Gd6 O4 1_555 1_555
Gd5 O6 1_555 1_555
O4 C1_2 1_555 1_555
O6 C7 1_555 1_555
O9 Gd5 1_555 1_555
C7 O9 1_555 1_555
C8 C3_2 1_555 1_555
H3 C8 1_555 1_555
C9 C6_2 1_555 1_555
C7 C9 1_555 1_555
C8 C9 1_555 1_555
Gd3 O1 1_555 1_555
O1 C1_3 1_555 1_555
O2 C2 1_555 1_555
O3 C2 1_555 1_555
C1_3 C3_3 1_555 1_555
C2 C5 1_555 1_555
C3_3 C4 1_555 1_555
C4 H1 1_555 1_555
C5 C4 1_555 1_555
C6_3 C5 1_555 1_555
H2_3 C6_3 1_555 1_555
Gd2 O2 1_555 1_555
O5 Gd3 1_555 1_555
O8 Gd3 1_555 1_555
O12 Gd3 1_555 1_555
O3 Gd2 1_555 1_555
C1_4 C3_4 1_555 1_555
H2_4 C6_4 1_555 1_555
Gd5 O1_2 1_555 1_555
O1_2 C1_5 1_555 1_555
O2_2 C2_2 1_555 1_555
O10 C2_2 1_555 1_555
C1_5 C3_5 1_555 1_555
C2_2 C5_2 1_555 1_555
C3_5 C4_2 1_555 1_555
C4_2 H1_2 1_555 1_555
C5_2 C4_2 1_555 1_555
C6_5 C5_2 1_555 1_555
H2_5 C6_5 1_555 1_555
Gd6 O2_2 1_555 1_555
O5_2 Gd5 1_555 1_555
O7_2 Gd5 1_555 1_555
O11_2 Gd5 1_555 1_555
O10 Gd6 1_555 1_555
C1_6 C3_6 1_555 1_555
H2_6 C6_6 1_555 1_555
Gd2 O4_2 1_555 1_555
O4_2 C1_6 1_555 1_555
O8 C7_2 1_555 1_555
C7_2 O12 1_555 1_555
C8_2 C3_6 1_555 1_555
H3_2 C8_2 1_555 1_555
C9_2 C6_6 1_555 1_555
Gd2 O13_2 1_555 1_555
C7_2 C9_2 1_555 1_555
C8_2 C9_2 1_555 1_555
C1_7 C3_7 1_555 1_555
H2_7 C6_7 1_555 1_555
O5 C1_7 1_555 1_555
O6_2 C7_3 1_555 1_555
C7_3 O13 1_555 1_555
C8_3 C3_7 1_555 1_555
H3_3 C8_3 1_555 1_555
C9_3 C6_7 1_555 1_555
C7_3 C9_3 1_555 1_555
C8_3 C9_3 1_555 1_555
Gd2 O1_3 1_555 1_555
O1_3 C1_8 1_555 1_555
O7_2 C2_3 1_555 1_555
O11_2 C2_3 1_555 1_555
C1_8 C3_8 1_555 1_555
C2_3 C5_3 1_555 1_555
C3_8 C4_3 1_555 1_555
C4_3 H1_3 1_555 1_555
C5_3 C4_3 1_555 1_555
C6_8 C5_3 1_555 1_555
H2_8 C6_8 1_555 1_555
O8_2 Gd2 1_555 1_555
Gd6 O1_4 1_555 1_555
O1_4 C1_9 1_555 1_555
O7 C2_4 1_555 1_555
O11 C2_4 1_555 1_555
C1_9 C3_9 1_555 1_555
C2_4 C5_4 1_555 1_555
C3_9 C4_4 1_555 1_555
C4_4 H1_4 1_555 1_555
C5_4 C4_4 1_555 1_555
C6_9 C5_4 1_555 1_555
H2_9 C6_9 1_555 1_555
C1_10 C3_10 1_555 1_555
H2_10 C6_10 1_555 1_555
O5_2 C1_10 1_555 1_555
O8_2 C7_4 1_555 1_555
C7_4 O13_2 1_555 1_555
C8_4 C3_10 1_555 1_555
H3_4 C8_4 1_555 1_555
C9_4 C6_10 1_555 1_555
C7_4 C9_4 1_555 1_555
C8_4 C9_4 1_555 1_555

#END
