
###############################################################################
#
# This file contains modified crystal structure data generated from the
# MOF subset of the Cambridge Structural Database (CSD) v543 
# hosted by the Cambridge Crystallographic Data Centre (CCDC).
#
# This work is licensed under the Creative Commons
# Attribution-NonCommercial-ShareAlike 4.0 International License.
# To view a copy of this license, visit
# http://creativecommons.org/licenses/by-nc-sa/4.0/
# or send a letter to
# Creative Commons, PO Box 1866, Mountain View, CA 94042, USA.
#
# CIF created using the CSD Python API on 29 September 2022
# The structure has been converted into the P1 space group
# The structure has a 3D framework
# The original CSD entry EBEWOZ01 is in the tetragonal crystal system
# The original CSD entry EBEWOZ01 is in a Sohncke space group
# The framework has been calculated to contain at least 10.0% void space
# The void calculation uses a probe of radius 1.32A, grid spacing 0.4
#
###############################################################################

data_EBEWOZ01
_chemical_formula_moiety         '(C54 H18 Gd4 O24)n'
_symmetry_cell_setting           triclinic
_symmetry_space_group_name_H-M   'P 1'
_symmetry_Int_Tables_number      1
_space_group_name_Hall           'P 1'
loop_
_symmetry_equiv_pos_site_id
_symmetry_equiv_pos_as_xyz
1 x,y,z
_cell_length_a                   10.3625(7)
_cell_length_b                   10.3625(7)
_cell_length_c                   13.8473(19)
_cell_angle_alpha                90
_cell_angle_beta                 90
_cell_angle_gamma                90
_cell_volume                     1486.94
loop_
_atom_site_label
_atom_site_type_symbol
_atom_site_fract_x
_atom_site_fract_y
_atom_site_fract_z
C1 C -0.0000 0.6266(7) 0.5000
C3 C 0.0000 0.4844(7) 0.5000
C6 C 0.0000 0.2169(7) 0.5000
H2 H 0.0000 0.1272 0.5000
Gd4 Gd 0.122736(19) 0.877264(19) 0.3750
Gd5 Gd 0.122736(19) 0.122736(19) 0.1250
O4 O 0.0813(5) 0.6842(3) 0.4475(2)
O6 O 0.0823(5) 0.2692(4) 0.2510(3)
O9 O 0.0856(4) 0.0913(3) 0.3305(3)
O11 O 0.0913(3) 0.9144(4) 0.5805(3)
C7 C 0.0713(6) 0.2093(5) 0.3285(4)
C8 C 0.0371(6) 0.4169(5) 0.4181(4)
H3 H 0.0626 0.4618 0.3632
C9 C 0.0364(6) 0.2834(5) 0.4173(3)
O10 O 0.9144(4) 0.0913(3) 0.6695(3)
Gd1 Gd 0.877264(19) 0.877264(19) 0.6250
O1 O 0.9187(5) 0.6842(3) 0.5525(2)
O2 O 0.9177(5) 0.2692(4) 0.7490(3)
C1_2 C 1.0000 0.6266(7) 0.5000
C2 C 0.9287(6) 0.2093(5) 0.6715(4)
C3_2 C 1.0000 0.4844(7) 0.5000
C4 C 0.9629(6) 0.4169(5) 0.5819(4)
H1 H 0.9374 0.4618 0.6368
C5 C 0.9636(6) 0.2834(5) 0.5827(3)
C6_2 C 1.0000 0.2169(7) 0.5000
H2_2 H 1.0000 0.1272 0.5000
Gd2 Gd 0.877264(19) 0.122736(19) 0.8750
O5 O 0.6842(3) 0.9187(5) 0.6975(2)
O7 O 0.9177(5) 0.7308(4) 0.7510(3)
O8 O 0.7308(4) 0.9177(5) 0.4990(3)
O12 O 0.9144(4) 0.9087(3) 0.8305(3)
O13 O 0.9087(3) 0.9144(4) 0.4195(3)
O1_2 O 0.0813(5) 0.3158(3) 0.0525(2)
O2_2 O 0.0823(5) 0.7308(4) 0.2490(3)
O3 O 0.0856(4) 0.9087(3) 0.1695(3)
C1_3 C -0.0000 0.3734(7) 0.0000
C2_2 C 0.0713(6) 0.7907(5) 0.1715(4)
C3_3 C 0.0000 0.5156(7) 0.0000
C4_2 C 0.0371(6) 0.5831(5) 0.0819(4)
H1_2 H 0.0626 0.5382 0.1368
C5_2 C 0.0364(6) 0.7166(5) 0.0827(3)
C6_3 C 0.0000 0.7831(7) 0.0000
H2_3 H 0.0000 0.8728 0.0000
O5_2 O 0.3158(3) 0.0813(5) 0.1975(2)
C1_4 C 0.0000 0.3734(7) 1.0000
C3_4 C -0.0000 0.5156(7) 1.0000
C6_4 C -0.0000 0.7831(7) 1.0000
H2_4 H 0.0000 0.8728 1.0000
O8_2 O 0.2692(4) 0.0823(5) 0.9990(3)
O13_2 O 0.0913(3) 0.0856(4) 0.9195(3)
C1_5 C 1.0000 0.3734(7) 0.0000
C3_5 C 1.0000 0.5156(7) 0.0000
C6_5 C 1.0000 0.7831(7) 0.0000
H2_5 H 1.0000 0.8728 0.0000
O11_2 O 0.9087(3) 0.0856(4) 0.0805(3)
C1_6 C 1.0000 0.3734(7) 1.0000
C3_6 C 1.0000 0.5156(7) 1.0000
C6_6 C 1.0000 0.7831(7) 1.0000
H2_6 H 1.0000 0.8728 1.0000
O4_2 O 0.9187(5) 0.3158(3) 0.9475(2)
C7_2 C 0.9287(6) 0.7907(5) 0.8285(4)
C8_2 C 0.9629(6) 0.5831(5) 0.9181(4)
H3_2 H 0.9374 0.5382 0.8632
C9_2 C 0.9636(6) 0.7166(5) 0.9173(3)
C1_7 C 0.3734(7) 0.0000 0.2500
C3_7 C 0.5156(7) 0.0000 0.2500
C6_7 C 0.7831(7) 0.0000 0.2500
H2_7 H 0.8728 0.0000 0.2500
O6_2 O 0.7308(4) 0.0823(5) 0.0010(3)
C7_3 C 0.7907(5) 0.0713(6) 0.0785(4)
C8_3 C 0.5831(5) 0.0371(6) 0.1681(4)
H3_3 H 0.5382 0.0626 0.1132
C9_3 C 0.7166(5) 0.0364(6) 0.1673(3)
O1_3 O 0.3158(3) 0.9187(5) 0.3025(2)
C1_8 C 0.3734(7) 1.0000 0.2500
C2_3 C 0.7907(5) 0.9287(6) 0.4215(4)
C3_8 C 0.5156(7) 1.0000 0.2500
C4_3 C 0.5831(5) 0.9629(6) 0.3319(4)
H1_3 H 0.5382 0.9374 0.3868
C5_3 C 0.7166(5) 0.9636(6) 0.3327(3)
C6_8 C 0.7831(7) 1.0000 0.2500
H2_8 H 0.8728 1.0000 0.2500
O7_2 O 0.2692(4) 0.9177(5) 0.5010(3)
O1_4 O 0.6842(3) 0.0813(5) 0.8025(2)
C1_9 C 0.6266(7) 0.0000 0.7500
C2_4 C 0.2093(5) 0.0713(6) 0.9215(4)
C3_9 C 0.4844(7) 0.0000 0.7500
C4_4 C 0.4169(5) 0.0371(6) 0.8319(4)
H1_4 H 0.4618 0.0626 0.8868
C5_4 C 0.2834(5) 0.0364(6) 0.8327(3)
C6_9 C 0.2169(7) 0.0000 0.7500
H2_9 H 0.1272 0.0000 0.7500
C1_10 C 0.6266(7) 1.0000 0.7500
C3_10 C 0.4844(7) 1.0000 0.7500
C6_10 C 0.2169(7) 1.0000 0.7500
H2_10 H 0.1272 1.0000 0.7500
C7_4 C 0.2093(5) 0.9287(6) 0.5785(4)
C8_4 C 0.4169(5) 0.9629(6) 0.6681(4)
H3_4 H 0.4618 0.9374 0.6132
C9_4 C 0.2834(5) 0.9636(6) 0.6673(3)
loop_
_geom_bond_atom_site_label_1
_geom_bond_atom_site_label_2
_geom_bond_site_symmetry_1
_geom_bond_site_symmetry_2
C1 C3 1_555 1_555
H2 C6 1_555 1_555
Gd4 O4 1_555 1_555
Gd5 O6 1_555 1_555
O4 C1 1_555 1_555
O6 C7 1_555 1_555
O9 Gd5 1_555 1_555
C7 O9 1_555 1_555
C8 C3 1_555 1_555
H3 C8 1_555 1_555
C9 C6 1_555 1_555
Gd4 O11 1_555 1_555
C7 C9 1_555 1_555
C8 C9 1_555 1_555
Gd1 O1 1_555 1_555
O1 C1_2 1_555 1_555
O2 C2 1_555 1_555
O10 C2 1_555 1_555
C1_2 C3_2 1_555 1_555
C2 C5 1_555 1_555
C3_2 C4 1_555 1_555
C4 H1 1_555 1_555
C5 C4 1_555 1_555
C6_2 C5 1_555 1_555
H2_2 C6_2 1_555 1_555
Gd2 O2 1_555 1_555
O5 Gd1 1_555 1_555
O7 Gd1 1_555 1_555
O8 Gd1 1_555 1_555
O12 Gd1 1_555 1_555
O13 Gd1 1_555 1_555
O10 Gd2 1_555 1_555
Gd5 O1_2 1_555 1_555
O1_2 C1_3 1_555 1_555
O2_2 C2_2 1_555 1_555
O3 C2_2 1_555 1_555
C1_3 C3_3 1_555 1_555
C2_2 C5_2 1_555 1_555
C3_3 C4_2 1_555 1_555
C4_2 H1_2 1_555 1_555
C5_2 C4_2 1_555 1_555
C6_3 C5_2 1_555 1_555
H2_3 C6_3 1_555 1_555
Gd4 O2_2 1_555 1_555
O5_2 Gd5 1_555 1_555
O3 Gd4 1_555 1_555
C1_4 C3_4 1_555 1_555
H2_4 C6_4 1_555 1_555
C1_5 C3_5 1_555 1_555
H2_5 C6_5 1_555 1_555
C1_6 C3_6 1_555 1_555
H2_6 C6_6 1_555 1_555
Gd2 O4_2 1_555 1_555
O4_2 C1_6 1_555 1_555
O7 C7_2 1_555 1_555
C7_2 O12 1_555 1_555
C8_2 C3_6 1_555 1_555
H3_2 C8_2 1_555 1_555
C9_2 C6_6 1_555 1_555
C7_2 C9_2 1_555 1_555
C8_2 C9_2 1_555 1_555
C1_7 C3_7 1_555 1_555
H2_7 C6_7 1_555 1_555
O5_2 C1_7 1_555 1_555
O6_2 C7_3 1_555 1_555
C7_3 O11_2 1_555 1_555
C8_3 C3_7 1_555 1_555
H3_3 C8_3 1_555 1_555
C9_3 C6_7 1_555 1_555
C7_3 C9_3 1_555 1_555
C8_3 C9_3 1_555 1_555
Gd4 O1_3 1_555 1_555
O1_3 C1_8 1_555 1_555
O8 C2_3 1_555 1_555
O13 C2_3 1_555 1_555
C1_8 C3_8 1_555 1_555
C2_3 C5_3 1_555 1_555
C3_8 C4_3 1_555 1_555
C4_3 H1_3 1_555 1_555
C5_3 C4_3 1_555 1_555
C6_8 C5_3 1_555 1_555
H2_8 C6_8 1_555 1_555
O7_2 Gd4 1_555 1_555
Gd2 O1_4 1_555 1_555
O1_4 C1_9 1_555 1_555
O8_2 C2_4 1_555 1_555
O13_2 C2_4 1_555 1_555
C1_9 C3_9 1_555 1_555
C2_4 C5_4 1_555 1_555
C3_9 C4_4 1_555 1_555
C4_4 H1_4 1_555 1_555
C5_4 C4_4 1_555 1_555
C6_9 C5_4 1_555 1_555
H2_9 C6_9 1_555 1_555
C1_10 C3_10 1_555 1_555
H2_10 C6_10 1_555 1_555
O5 C1_10 1_555 1_555
O7_2 C7_4 1_555 1_555
C7_4 O11 1_555 1_555
C8_4 C3_10 1_555 1_555
H3_4 C8_4 1_555 1_555
C9_4 C6_10 1_555 1_555
C7_4 C9_4 1_555 1_555
C8_4 C9_4 1_555 1_555

#END
