
###############################################################################
#
# This file contains modified crystal structure data generated from the
# MOF subset of the Cambridge Structural Database (CSD) v543 
# hosted by the Cambridge Crystallographic Data Centre (CCDC).
#
# This work is licensed under the Creative Commons
# Attribution-NonCommercial-ShareAlike 4.0 International License.
# To view a copy of this license, visit
# http://creativecommons.org/licenses/by-nc-sa/4.0/
# or send a letter to
# Creative Commons, PO Box 1866, Mountain View, CA 94042, USA.
#
# CIF created using the CSD Python API on 29 September 2022
# The structure has been converted into the P1 space group
# The structure has a 3D framework
# The original CSD entry EBEWIT is in the tetragonal crystal system
# The original CSD entry EBEWIT is in a Sohncke space group
# The framework has been calculated to contain at least 10.0% void space
# The void calculation uses a probe of radius 1.32A, grid spacing 0.4
# H atom positions have been added when not included in the experimental data
# Generated hydrogen atom positions removed from atoms on special positions
#
###############################################################################

data_EBEWIT
_chemical_formula_moiety         '(C54 H34 Gd4 O28)n'
_symmetry_cell_setting           triclinic
_symmetry_space_group_name_H-M   'P 1'
_symmetry_Int_Tables_number      1
_space_group_name_Hall           'P 1'
loop_
_symmetry_equiv_pos_site_id
_symmetry_equiv_pos_as_xyz
1 x,y,z
_cell_length_a                   10.3604(7)
_cell_length_b                   10.3604(7)
_cell_length_c                   14.5059(10)
_cell_angle_alpha                90
_cell_angle_beta                 90
_cell_angle_gamma                90
_cell_volume                     1557.03
loop_
_atom_site_label
_atom_site_type_symbol
_atom_site_fract_x
_atom_site_fract_y
_atom_site_fract_z
C1 C -0.0000 0.6107(8) 0.5000
C3 C -0.0000 0.4629(8) 0.5000
C6 C -0.0000 0.1994(9) 0.5000
H2 H -0.0000 0.1096 0.5000
Gd4 Gd 0.14567(2) 0.85433(2) 0.3750
Gd5 Gd 0.14567(2) 0.14567(2) 0.1250
O5 O 0.0692(5) 0.6645(5) 0.4414(3)
O7 O 0.0895(5) 0.2475(5) 0.2638(4)
O10 O 0.1069(5) 0.0724(5) 0.3455(3)
O12 O 0.0724(5) 0.8931(5) 0.5955(3)
C7 C 0.0828(6) 0.1890(6) 0.3394(4)
C8 C 0.0412(6) 0.3978(6) 0.4230(4)
H3 H 0.0698 0.4434 0.3717
C9 C 0.0399(7) 0.2625(6) 0.4220(4)
O11 O 0.8931(5) 0.0724(5) 0.6545(3)
Gd1 Gd 0.85433(2) 0.85433(2) 0.6250
O1 O 0.9308(5) 0.6645(5) 0.5586(3)
O2 O 0.9105(5) 0.2475(5) 0.7362(4)
O4 O 0.6859(6) 0.6859(6) 0.6250
C1_2 C 1.0000 0.6107(8) 0.5000
C2 C 0.9172(6) 0.1890(6) 0.6606(4)
C3_2 C 1.0000 0.4629(8) 0.5000
C4 C 0.9588(6) 0.3978(6) 0.5770(4)
H1 H 0.9302 0.4434 0.6283
C5 C 0.9601(7) 0.2625(6) 0.5780(4)
C6_2 C 1.0000 0.1994(9) 0.5000
H2_2 H 1.0000 0.1096 0.5000
Gd2 Gd 0.85433(2) 0.14567(2) 0.8750
O6 O 0.6645(5) 0.9308(5) 0.6914(3)
O8 O 0.7525(5) 0.9105(5) 0.4862(4)
O9 O 0.9105(5) 0.7525(5) 0.7638(4)
O1_2 O 0.0692(5) 0.3355(5) 0.0586(3)
O2_2 O 0.0895(5) 0.7525(5) 0.2362(4)
O3 O 0.1069(5) 0.9276(5) 0.1545(3)
O4_2 O 0.3141(6) 0.3141(6) 0.1250
C1_3 C 0.0000 0.3893(8) 0.0000
C2_2 C 0.0828(6) 0.8110(6) 0.1606(4)
C3_3 C 0.0000 0.5371(8) 0.0000
C4_2 C 0.0412(6) 0.6022(6) 0.0770(4)
H1_2 H 0.0698 0.5566 0.1283
C5_2 C 0.0399(7) 0.7375(6) 0.0780(4)
C6_3 C 0.0000 0.8006(9) 0.0000
H2_3 H 0.0000 0.8904 0.0000
O6_2 O 0.3355(5) 0.0692(5) 0.1914(3)
C1_4 C 0.0000 0.3893(8) 1.0000
C3_4 C 0.0000 0.5371(8) 1.0000
C6_4 C 0.0000 0.8006(9) 1.0000
H2_4 H 0.0000 0.8904 1.0000
O8_2 O 0.2475(5) 0.0895(5) 0.9862(4)
C1_5 C 1.0000 0.3893(8) 0.0000
C3_5 C 1.0000 0.5371(8) 0.0000
C6_5 C 1.0000 0.8006(9) 0.0000
H2_5 H 1.0000 0.8904 0.0000
O12_2 O 0.9276(5) 0.1069(5) 0.0955(3)
C1_6 C 1.0000 0.3893(8) 1.0000
C3_6 C 1.0000 0.5371(8) 1.0000
C6_6 C 1.0000 0.8006(9) 1.0000
H2_6 H 1.0000 0.8904 1.0000
O5_2 O 0.9308(5) 0.3355(5) 0.9414(3)
O10_2 O 0.8931(5) 0.9276(5) 0.8455(3)
C7_2 C 0.9172(6) 0.8110(6) 0.8394(4)
C8_2 C 0.9588(6) 0.6022(6) 0.9230(4)
H3_2 H 0.9302 0.5566 0.8717
C9_2 C 0.9601(7) 0.7375(6) 0.9220(4)
C1_7 C 0.3893(8) -0.0000 0.2500
C3_7 C 0.5371(8) -0.0000 0.2500
C6_7 C 0.8006(9) -0.0000 0.2500
H2_7 H 0.8904 -0.0000 0.2500
O7_2 O 0.7525(5) 0.0895(5) 0.0138(4)
C7_3 C 0.8110(6) 0.0828(6) 0.0894(4)
C8_3 C 0.6022(6) 0.0412(6) 0.1730(4)
H3_3 H 0.5566 0.0698 0.1217
C9_3 C 0.7375(6) 0.0399(7) 0.1720(4)
O1_3 O 0.3355(5) 0.9308(5) 0.3086(3)
O3_2 O 0.9276(5) 0.8931(5) 0.4045(3)
O4_3 O 0.3141(6) 0.6859(6) 0.3750
C1_8 C 0.3893(8) 1.0000 0.2500
C2_3 C 0.8110(6) 0.9172(6) 0.4106(4)
C3_8 C 0.5371(8) 1.0000 0.2500
C4_3 C 0.6022(6) 0.9588(6) 0.3270(4)
H1_3 H 0.5566 0.9302 0.3783
C5_3 C 0.7375(6) 0.9601(7) 0.3280(4)
C6_8 C 0.8006(9) 1.0000 0.2500
H2_8 H 0.8904 1.0000 0.2500
O9_2 O 0.2475(5) 0.9105(5) 0.5138(4)
O11_2 O 0.0724(5) 0.1069(5) 0.9045(3)
O1_4 O 0.6645(5) 0.0692(5) 0.8086(3)
O4_4 O 0.6859(6) 0.3141(6) 0.8750
C1_9 C 0.6107(8) 0.0000 0.7500
C2_4 C 0.1890(6) 0.0828(6) 0.9106(4)
C3_9 C 0.4629(8) 0.0000 0.7500
C4_4 C 0.3978(6) 0.0412(6) 0.8270(4)
H1_4 H 0.4434 0.0698 0.8783
C5_4 C 0.2625(6) 0.0399(7) 0.8280(4)
C6_9 C 0.1994(9) 0.0000 0.7500
H2_9 H 0.1096 0.0000 0.7500
C1_10 C 0.6107(8) 1.0000 0.7500
C3_10 C 0.4629(8) 1.0000 0.7500
C6_10 C 0.1994(9) 1.0000 0.7500
H2_10 H 0.1096 1.0000 0.7500
C7_4 C 0.1890(6) 0.9172(6) 0.5894(4)
C8_4 C 0.3978(6) 0.9588(6) 0.6730(4)
H3_4 H 0.4434 0.9302 0.6217
C9_4 C 0.2625(6) 0.9601(7) 0.6720(4)
loop_
_geom_bond_atom_site_label_1
_geom_bond_atom_site_label_2
_geom_bond_site_symmetry_1
_geom_bond_site_symmetry_2
C1 C3 1_555 1_555
H2 C6 1_555 1_555
Gd4 O5 1_555 1_555
Gd5 O7 1_555 1_555
O5 C1 1_555 1_555
O7 C7 1_555 1_555
O10 C7 1_555 1_555
C7 C9 1_555 1_555
C8 C3 1_555 1_555
H3 C8 1_555 1_555
C9 C6 1_555 1_555
C8 C9 1_555 1_555
Gd1 O1 1_555 1_555
O1 C1_2 1_555 1_555
O2 C2 1_555 1_555
O11 C2 1_555 1_555
O4 Gd1 1_555 1_555
C1_2 C3_2 1_555 1_555
C2 C5 1_555 1_555
C3_2 C4 1_555 1_555
C4 H1 1_555 1_555
C5 C4 1_555 1_555
C6_2 C5 1_555 1_555
H2_2 C6_2 1_555 1_555
Gd2 O2 1_555 1_555
O6 Gd1 1_555 1_555
O8 Gd1 1_555 1_555
O9 Gd1 1_555 1_555
Gd5 O1_2 1_555 1_555
O1_2 C1_3 1_555 1_555
O2_2 C2_2 1_555 1_555
O3 C2_2 1_555 1_555
O4_2 Gd5 1_555 1_555
C1_3 C3_3 1_555 1_555
C2_2 C5_2 1_555 1_555
C3_3 C4_2 1_555 1_555
C4_2 H1_2 1_555 1_555
C5_2 C4_2 1_555 1_555
C6_3 C5_2 1_555 1_555
H2_3 C6_3 1_555 1_555
Gd4 O2_2 1_555 1_555
O6_2 Gd5 1_555 1_555
C1_4 C3_4 1_555 1_555
H2_4 C6_4 1_555 1_555
C1_5 C3_5 1_555 1_555
H2_5 C6_5 1_555 1_555
C1_6 C3_6 1_555 1_555
H2_6 C6_6 1_555 1_555
Gd2 O5_2 1_555 1_555
O5_2 C1_6 1_555 1_555
O9 C7_2 1_555 1_555
O10_2 C7_2 1_555 1_555
C7_2 C9_2 1_555 1_555
C8_2 C3_6 1_555 1_555
H3_2 C8_2 1_555 1_555
C9_2 C6_6 1_555 1_555
C8_2 C9_2 1_555 1_555
C1_7 C3_7 1_555 1_555
H2_7 C6_7 1_555 1_555
O6_2 C1_7 1_555 1_555
O7_2 C7_3 1_555 1_555
O12_2 C7_3 1_555 1_555
C7_3 C9_3 1_555 1_555
C8_3 C3_7 1_555 1_555
H3_3 C8_3 1_555 1_555
C9_3 C6_7 1_555 1_555
C8_3 C9_3 1_555 1_555
Gd4 O1_3 1_555 1_555
O1_3 C1_8 1_555 1_555
O8 C2_3 1_555 1_555
O3_2 C2_3 1_555 1_555
O4_3 Gd4 1_555 1_555
C1_8 C3_8 1_555 1_555
C2_3 C5_3 1_555 1_555
C3_8 C4_3 1_555 1_555
C4_3 H1_3 1_555 1_555
C5_3 C4_3 1_555 1_555
C6_8 C5_3 1_555 1_555
H2_8 C6_8 1_555 1_555
O9_2 Gd4 1_555 1_555
Gd2 O1_4 1_555 1_555
O1_4 C1_9 1_555 1_555
O8_2 C2_4 1_555 1_555
O11_2 C2_4 1_555 1_555
O4_4 Gd2 1_555 1_555
C1_9 C3_9 1_555 1_555
C2_4 C5_4 1_555 1_555
C3_9 C4_4 1_555 1_555
C4_4 H1_4 1_555 1_555
C5_4 C4_4 1_555 1_555
C6_9 C5_4 1_555 1_555
H2_9 C6_9 1_555 1_555
C1_10 C3_10 1_555 1_555
H2_10 C6_10 1_555 1_555
O6 C1_10 1_555 1_555
O9_2 C7_4 1_555 1_555
O12 C7_4 1_555 1_555
C7_4 C9_4 1_555 1_555
C8_4 C3_10 1_555 1_555
H3_4 C8_4 1_555 1_555
C9_4 C6_10 1_555 1_555
C8_4 C9_4 1_555 1_555

#END
