
###############################################################################
#
# This file contains modified crystal structure data generated from the
# MOF subset of the Cambridge Structural Database (CSD) v543 
# hosted by the Cambridge Crystallographic Data Centre (CCDC).
#
# This work is licensed under the Creative Commons
# Attribution-NonCommercial-ShareAlike 4.0 International License.
# To view a copy of this license, visit
# http://creativecommons.org/licenses/by-nc-sa/4.0/
# or send a letter to
# Creative Commons, PO Box 1866, Mountain View, CA 94042, USA.
#
# CIF created using the CSD Python API on 29 September 2022
# The structure has been converted into the P1 space group
# The structure has a 3D framework
# The original CSD entry EBEXEQ is in the tetragonal crystal system
# The original CSD entry EBEXEQ is in a Sohncke space group
# The framework has been calculated to contain at least 10.0% void space
# The void calculation uses a probe of radius 1.32A, grid spacing 0.4
#
###############################################################################

data_EBEXEQ
_chemical_formula_moiety         '(C44 H36 Gd4 O23)n'
_symmetry_cell_setting           triclinic
_symmetry_space_group_name_H-M   'P 1'
_symmetry_Int_Tables_number      1
_space_group_name_Hall           'P 1'
loop_
_symmetry_equiv_pos_site_id
_symmetry_equiv_pos_as_xyz
1 x,y,z
_cell_length_a                   10.3197(4)
_cell_length_b                   10.3197(4)
_cell_length_c                   14.0444(10)
_cell_angle_alpha                90
_cell_angle_beta                 90
_cell_angle_gamma                90
_cell_volume                     1495.68
loop_
_atom_site_label
_atom_site_type_symbol
_atom_site_fract_x
_atom_site_fract_y
_atom_site_fract_z
Gd4 Gd 0.12896(4) 0.13679(3) 0.83374(4)
O10 O 0.0943(6) 0.1048(6) 0.0255(5)
O2 O 0.0209(6) 0.3260(5) 0.8762(4)
O3 O 0.0082(6) 0.7480(6) 0.6910(4)
O4 O 0.1048(6) 0.9057(6) 0.7755(5)
C2 C 0.0417(8) 0.7998(8) 0.7723(6)
H2 H 0.0060 0.5456 0.8001
C6 C 0.0042(8) 0.7277(8) 0.8594(5)
Gd3 Gd 0.13679(3) 0.87104(4) 0.58374(4)
Gd5 Gd 0.86321(3) 0.12896(4) 0.08374(4)
O1 O 0.8929(5) 0.3250(5) 0.0059(3)
O5 O 0.9280(6) 0.9211(6) 0.1149(5)
O6 O 0.9071(6) 0.7382(5) 0.1924(4)
O7 O 0.7105(6) 0.2728(6) 0.1648(4)
H1 H 0.6948 0.2348 0.2164
C3 C 0.9228(9) 0.7987(10) 0.1167(6)
C8 C 0.9463(8) 0.7266(8) 0.0259(6)
C9 C 0.9318(7) 0.5927(7) 0.0228(5)
H4 H 0.9048 0.5476 0.0783
C10 C 0.7184(8) 0.4081(8) 0.1914(6)
H5 H 0.8090 0.4380 0.1845
H6 H 0.6935 0.4176 0.2591
C11 C 0.6336(10) 0.4895(8) 0.1326(7)
H7 H 0.6377 0.5793 0.1552
H8 H 0.5443 0.4580 0.1372
H9 H 0.6623 0.4858 0.0661
Gd6 Gd 0.87104(4) 0.86321(3) 0.33374(4)
O8 O 0.6740(5) 0.0209(6) 0.1262(4)
O9 O 0.9918(6) 0.2520(6) 0.1910(4)
O11 O 0.8952(6) 0.0943(6) 0.2755(5)
C1 C 0.9552(6) 0.3774(7) 0.9415(5)
C4 C 0.9560(7) 0.5250(7) 0.9409(5)
C5 C 0.9911(7) 0.5919(7) 0.8575(5)
C7 C 0.9816(8) 0.7924(7) 0.9473(8)
H3 H 0.9916 0.8838 0.9506
O13 O 0.7382(5) 0.0929(6) 0.9424(4)
O12 O 0.0720(6) 0.0789(6) 0.6149(5)
O1_2 O 0.1071(5) 0.6750(5) 0.5059(3)
O6_2 O 0.0929(6) 0.2618(5) 0.6924(4)
O7_2 O 0.2895(6) 0.7272(6) 0.6648(4)
H1_2 H 0.3052 0.7652 0.7164
C1_2 C 0.0448(6) 0.6226(7) 0.4415(5)
C3_2 C 0.0772(9) 0.2013(10) 0.6167(6)
C4_2 C 0.0440(7) 0.4750(7) 0.4409(5)
C5_2 C 0.0089(7) 0.4081(7) 0.3575(5)
C7_2 C 0.0184(8) 0.2076(7) 0.4473(8)
H3_2 H 0.0084 0.1162 0.4506
C8_2 C 0.0537(8) 0.2734(8) 0.5259(6)
C9_2 C 0.0682(7) 0.4073(7) 0.5228(5)
H4_2 H 0.0952 0.4524 0.5783
C10_2 C 0.2816(8) 0.5919(8) 0.6914(6)
H5_2 H 0.1910 0.5620 0.6845
H6_2 H 0.3065 0.5824 0.7591
C11_2 C 0.3664(10) 0.5105(8) 0.6326(7)
H7_2 H 0.3623 0.4207 0.6552
H8_2 H 0.4557 0.5420 0.6372
H9_2 H 0.3377 0.5142 0.5661
O8_2 O 0.3260(5) 0.9791(6) 0.6262(4)
O13_2 O 0.2618(5) 0.9071(6) 0.4424(4)
O2_2 O 0.9791(6) 0.6740(5) 0.3762(4)
C2_2 C 0.9583(8) 0.2002(8) 0.2723(6)
H2_2 H 0.9940 0.4544 0.3001
C6_2 C 0.9958(8) 0.2723(8) 0.3594(5)
O10_2 O 0.9057(6) 0.8952(6) 0.5255(5)
O12_2 O 0.0789(6) 0.9280(6) 0.3649(5)
C2_3 C 0.2002(8) 0.0417(8) 0.0223(6)
H2_3 H 0.4544 0.0060 0.0501
C6_3 C 0.2723(8) 0.0042(8) 0.1094(5)
O3_2 O 0.2520(6) 0.0082(6) 0.9410(4)
O1_3 O 0.6750(5) 0.8929(5) 0.2559(3)
O7_3 O 0.7272(6) 0.7105(6) 0.4148(4)
H1_3 H 0.7652 0.6948 0.4664
C1_3 C 0.6226(7) 0.9552(6) 0.1915(5)
C3_3 C 0.2013(10) 0.9228(9) 0.3667(6)
C4_3 C 0.4750(7) 0.9560(7) 0.1909(5)
C5_3 C 0.4081(7) 0.9911(7) 0.1075(5)
C7_3 C 0.2076(7) 0.9816(8) 0.1973(8)
H3_3 H 0.1162 0.9916 0.2006
C8_3 C 0.2734(8) 0.9463(8) 0.2759(6)
C9_3 C 0.4073(7) 0.9318(7) 0.2728(5)
H4_3 H 0.4524 0.9048 0.3283
C10_3 C 0.5919(8) 0.7184(8) 0.4414(6)
H5_3 H 0.5620 0.8090 0.4345
H6_3 H 0.5824 0.6935 0.5091
C11_3 C 0.5105(8) 0.6336(10) 0.3826(7)
H7_3 H 0.4207 0.6377 0.4052
H8_3 H 0.5420 0.5443 0.3872
H9_3 H 0.5142 0.6623 0.3161
O9_2 O 0.7480(6) 0.9918(6) 0.4410(4)
H6_4 H 0.4176 0.3065 0.0091
O1_4 O 0.3250(5) 0.1071(5) 0.7559(3)
O5_2 O 0.9211(6) 0.0720(6) 0.8649(5)
O7_4 O 0.2728(6) 0.2895(6) 0.9148(4)
H1_4 H 0.2348 0.3052 0.9664
C1_4 C 0.3774(7) 0.0448(6) 0.6915(5)
C3_4 C 0.7987(10) 0.0772(9) 0.8667(6)
C4_4 C 0.5250(7) 0.0440(7) 0.6909(5)
C5_4 C 0.5919(7) 0.0089(7) 0.6075(5)
C7_4 C 0.7924(7) 0.0184(8) 0.6973(8)
H3_4 H 0.8838 0.0084 0.7006
C8_4 C 0.7266(8) 0.0537(8) 0.7759(6)
C9_4 C 0.5927(7) 0.0682(7) 0.7728(5)
H4_4 H 0.5476 0.0952 0.8283
C10_4 C 0.4081(8) 0.2816(8) 0.9414(6)
H5_4 H 0.4380 0.1910 0.9345
C11_4 C 0.4895(8) 0.3664(10) 0.8826(7)
H7_4 H 0.5793 0.3623 0.9052
H8_4 H 0.4580 0.4557 0.8872
H9_4 H 0.4858 0.3377 0.8161
C2_4 C 0.7998(8) 0.9583(8) 0.5223(6)
H2_4 H 0.5456 0.9940 0.5501
C6_4 C 0.7277(8) 0.9958(8) 0.6094(5)
loop_
_geom_bond_atom_site_label_1
_geom_bond_atom_site_label_2
_geom_bond_site_symmetry_1
_geom_bond_site_symmetry_2
O3 C2 1_555 1_555
O4 C2 1_555 1_555
C2 C6 1_555 1_555
Gd4 O2 1_555 1_555
Gd3 O3 1_555 1_555
O4 Gd3 1_555 1_555
Gd5 O1 1_555 1_555
O5 C3 1_555 1_555
O6 C3 1_555 1_555
O7 Gd5 1_555 1_555
H1 O7 1_555 1_555
C3 C8 1_555 1_555
H4 C9 1_555 1_555
C10 O7 1_555 1_555
H5 C10 1_555 1_555
H6 C10 1_555 1_555
C11 C10 1_555 1_555
H7 C11 1_555 1_555
H8 C11 1_555 1_555
H9 C11 1_555 1_555
Gd6 O6 1_555 1_555
O8 Gd5 1_555 1_555
O9 Gd5 1_555 1_555
O11 Gd5 1_555 1_555
C8 C9 1_555 1_555
C1 C4 1_555 1_555
C4 C5 1_555 1_555
H3 C7 1_555 1_555
Gd3 O1_2 1_555 1_555
O1_2 C1_2 1_555 1_555
O12 C3_2 1_555 1_555
O6_2 C3_2 1_555 1_555
O7_2 Gd3 1_555 1_555
H1_2 O7_2 1_555 1_555
C1_2 C4_2 1_555 1_555
C3_2 C8_2 1_555 1_555
C4_2 C5_2 1_555 1_555
H3_2 C7_2 1_555 1_555
C8_2 C7_2 1_555 1_555
C9_2 C4_2 1_555 1_555
H4_2 C9_2 1_555 1_555
C10_2 O7_2 1_555 1_555
H5_2 C10_2 1_555 1_555
H6_2 C10_2 1_555 1_555
C11_2 C10_2 1_555 1_555
H7_2 C11_2 1_555 1_555
H8_2 C11_2 1_555 1_555
H9_2 C11_2 1_555 1_555
Gd4 O6_2 1_555 1_555
O8_2 Gd3 1_555 1_555
O13_2 Gd3 1_555 1_555
C8_2 C9_2 1_555 1_555
O9 C2_2 1_555 1_555
O11 C2_2 1_555 1_555
C2_2 C6_2 1_555 1_555
Gd6 O2_2 1_555 1_555
Gd6 O10_2 1_555 1_555
O10 C2_3 1_555 1_555
C2_3 C6_3 1_555 1_555
Gd4 O3_2 1_555 1_555
Gd6 O1_3 1_555 1_555
O1_3 C1_3 1_555 1_555
O12_2 C3_3 1_555 1_555
O13_2 C3_3 1_555 1_555
O7_3 Gd6 1_555 1_555
H1_3 O7_3 1_555 1_555
C1_3 C4_3 1_555 1_555
C3_3 C8_3 1_555 1_555
C4_3 C5_3 1_555 1_555
H3_3 C7_3 1_555 1_555
C8_3 C7_3 1_555 1_555
C9_3 C4_3 1_555 1_555
H4_3 C9_3 1_555 1_555
C10_3 O7_3 1_555 1_555
H5_3 C10_3 1_555 1_555
H6_3 C10_3 1_555 1_555
C11_3 C10_3 1_555 1_555
H7_3 C11_3 1_555 1_555
H8_3 C11_3 1_555 1_555
H9_3 C11_3 1_555 1_555
O9_2 Gd6 1_555 1_555
C8_3 C9_3 1_555 1_555
Gd4 O1_4 1_555 1_555
O1_4 C1_4 1_555 1_555
O5_2 C3_4 1_555 1_555
O13 C3_4 1_555 1_555
O7_4 Gd4 1_555 1_555
H1_4 O7_4 1_555 1_555
C1_4 C4_4 1_555 1_555
C3_4 C8_4 1_555 1_555
C4_4 C5_4 1_555 1_555
H3_4 C7_4 1_555 1_555
C8_4 C7_4 1_555 1_555
C9_4 C4_4 1_555 1_555
H4_4 C9_4 1_555 1_555
C10_4 O7_4 1_555 1_555
H5_4 C10_4 1_555 1_555
C11_4 C10_4 1_555 1_555
H7_4 C11_4 1_555 1_555
H8_4 C11_4 1_555 1_555
H9_4 C11_4 1_555 1_555
C8_4 C9_4 1_555 1_555
O9_2 C2_4 1_555 1_555
O10_2 C2_4 1_555 1_555
C2_4 C6_4 1_555 1_555

#END
