
###############################################################################
#
# This file contains modified crystal structure data generated from the
# MOF subset of the Cambridge Structural Database (CSD) v543 
# hosted by the Cambridge Crystallographic Data Centre (CCDC).
#
# This work is licensed under the Creative Commons
# Attribution-NonCommercial-ShareAlike 4.0 International License.
# To view a copy of this license, visit
# http://creativecommons.org/licenses/by-nc-sa/4.0/
# or send a letter to
# Creative Commons, PO Box 1866, Mountain View, CA 94042, USA.
#
# CIF created using the CSD Python API on 29 September 2022
# The structure has been converted into the P1 space group
# The structure has a 3D framework
# The original CSD entry EBEXEQ01 is in the tetragonal crystal system
# The original CSD entry EBEXEQ01 is in a Sohncke space group
# The framework has been calculated to contain at least 10.0% void space
# The void calculation uses a probe of radius 1.32A, grid spacing 0.4
#
###############################################################################

data_EBEXEQ01
_chemical_formula_moiety         '(C44 H36 Gd4 O23)n'
_symmetry_cell_setting           triclinic
_symmetry_space_group_name_H-M   'P 1'
_symmetry_Int_Tables_number      1
_space_group_name_Hall           'P 1'
loop_
_symmetry_equiv_pos_site_id
_symmetry_equiv_pos_as_xyz
1 x,y,z
_cell_length_a                   10.339(2)
_cell_length_b                   10.339(2)
_cell_length_c                   14.057(6)
_cell_angle_alpha                90
_cell_angle_beta                 90
_cell_angle_gamma                90
_cell_volume                     1502.62
loop_
_atom_site_label
_atom_site_type_symbol
_atom_site_fract_x
_atom_site_fract_y
_atom_site_fract_z
Gd4 Gd 0.128031(14) 0.136502(12) 0.16609(3)
Gd5 Gd 0.136502(12) 0.871969(14) 0.41609(3)
O3 O 0.9202(2) 0.0722(2) 0.13527(19)
O4 O 0.7378(2) 0.0943(3) 0.05769(19)
O5 O 0.3233(2) 0.1091(3) 0.24486(17)
O7 O 0.2713(2) 0.2887(3) 0.08340(19)
H1 H 0.2328 0.3050 0.0322
C3 C 0.7932(3) 0.0188(3) 0.3051(3)
H2 H 0.8845 0.0084 0.3026
C4 C 0.7250(4) 0.0546(4) 0.2240(3)
C5 C 0.5924(4) 0.0702(3) 0.2271(3)
H3 H 0.5467 0.0969 0.1718
C6 C 0.5255(3) 0.0466(3) 0.3117(3)
C7 C 0.5929(4) 0.0104(3) 0.3937(2)
C8 C 0.7991(4) 0.0767(3) 0.1333(3)
C9 C 0.3791(4) 0.0463(3) 0.3099(3)
C10 C 0.4071(4) 0.2785(4) 0.0562(3)
H6 H 0.4367 0.1882 0.0645
C11 C 0.4886(4) 0.3671(5) 0.1162(4)
H7 H 0.5790 0.3613 0.0959
H8 H 0.4816 0.3415 0.1832
H9 H 0.4581 0.4563 0.1088
O8 O 0.2522(2) 0.0068(3) 0.05870(19)
O12 O 0.0943(3) 0.2622(2) 0.30769(19)
O13 O 0.0184(3) 0.3247(2) 0.12432(18)
H5 H 0.4170 0.3018 0.9883
Gd2 Gd 0.863498(12) 0.128031(14) 0.91609(3)
O10 O 0.0958(2) 0.1018(3) 0.97686(19)
O1 O 0.7478(2) 0.9932(3) 0.55870(19)
O2 O 0.9042(2) 0.8982(3) 0.47686(19)
O6 O 0.3247(2) 0.9816(3) 0.37432(18)
C1 C 0.7982(3) 0.9618(3) 0.4781(3)
C2 C 0.7267(4) 0.9981(3) 0.3905(2)
H4 H 0.5475 0.9942 0.4513
Gd6 Gd 0.871969(14) 0.863498(12) 0.66609(3)
O9 O 0.1018(3) 0.9042(2) 0.22686(19)
O11 O 0.0798(2) 0.9278(2) 0.63527(19)
O6_2 O 0.6753(2) 0.0184(3) 0.87432(18)
C1_2 C 0.2018(3) 0.0382(3) 0.9781(3)
C2_2 C 0.2733(4) 0.0019(3) 0.8905(2)
H4_2 H 0.4525 0.0058 0.9513
O9_2 O 0.8982(3) 0.0958(2) 0.72686(19)
O4_2 O 0.2622(2) 0.9057(3) 0.55769(19)
O5_2 O 0.6767(2) 0.8909(3) 0.74486(17)
O7_2 O 0.7287(2) 0.7113(3) 0.58340(19)
H1_2 H 0.7672 0.6950 0.5322
C3_2 C 0.2068(3) 0.9812(3) 0.8051(3)
H2_2 H 0.1155 0.9916 0.8026
C4_2 C 0.2750(4) 0.9454(4) 0.7240(3)
C5_2 C 0.4076(4) 0.9298(3) 0.7271(3)
H3_2 H 0.4533 0.9031 0.6718
C6_2 C 0.4745(3) 0.9534(3) 0.8117(3)
C7_2 C 0.4071(4) 0.9896(3) 0.8937(2)
C8_2 C 0.2009(4) 0.9233(3) 0.6333(3)
C9_2 C 0.6209(4) 0.9537(3) 0.8099(3)
C10_2 C 0.5929(4) 0.7215(4) 0.5562(3)
H5_2 H 0.5830 0.6982 0.4883
H6_2 H 0.5633 0.8118 0.5645
C11_2 C 0.5114(4) 0.6329(5) 0.6162(4)
H7_2 H 0.4210 0.6387 0.5959
H8_2 H 0.5184 0.6585 0.6832
H9_2 H 0.5419 0.5437 0.6088
O12_2 O 0.9057(3) 0.7378(2) 0.80769(19)
O13_2 O 0.9816(3) 0.6753(2) 0.62432(18)
O1_2 O 0.0068(3) 0.7478(2) 0.30870(19)
C1_3 C 0.0382(3) 0.7982(3) 0.2281(3)
C2_3 C 0.0019(3) 0.7267(4) 0.1405(2)
H4_3 H 0.0058 0.5475 0.2013
C3_3 C 0.9812(3) 0.7932(3) 0.0551(3)
H2_3 H 0.9916 0.8845 0.0526
C6_3 C 0.9534(3) 0.5255(3) 0.0617(3)
C7_3 C 0.9896(3) 0.5929(4) 0.1437(2)
C9_3 C 0.9537(3) 0.3791(4) 0.0599(3)
O3_2 O 0.9278(2) 0.9202(2) 0.88527(19)
O5_3 O 0.8909(3) 0.3233(2) 0.99486(17)
O7_3 O 0.7113(3) 0.2713(2) 0.83340(19)
H1_3 H 0.6950 0.2328 0.7822
C4_3 C 0.9454(4) 0.7250(4) 0.9740(3)
C5_3 C 0.9298(3) 0.5924(4) 0.9771(3)
H3_3 H 0.9031 0.5467 0.9218
C8_3 C 0.9233(3) 0.7991(4) 0.8833(3)
C10_3 C 0.7215(4) 0.4071(4) 0.8062(3)
H5_3 H 0.6982 0.4170 0.7383
H6_3 H 0.8118 0.4367 0.8145
C11_3 C 0.6329(5) 0.4886(4) 0.8662(4)
H7_3 H 0.6387 0.5790 0.8459
H8_3 H 0.6585 0.4816 0.9332
H9_3 H 0.5437 0.4581 0.8588
O8_2 O 0.9932(3) 0.2522(2) 0.80870(19)
O11_2 O 0.0722(2) 0.0798(2) 0.38527(19)
O5_4 O 0.1091(3) 0.6767(2) 0.49486(17)
O7_4 O 0.2887(3) 0.7287(2) 0.33340(19)
H1_4 H 0.3050 0.7672 0.2822
C3_4 C 0.0188(3) 0.2068(3) 0.5551(3)
H2_4 H 0.0084 0.1155 0.5526
C4_4 C 0.0546(4) 0.2750(4) 0.4740(3)
C5_4 C 0.0702(3) 0.4076(4) 0.4771(3)
H3_4 H 0.0969 0.4533 0.4218
C6_4 C 0.0466(3) 0.4745(3) 0.5617(3)
C7_4 C 0.0104(3) 0.4071(4) 0.6437(2)
C8_4 C 0.0767(3) 0.2009(4) 0.3833(3)
C9_4 C 0.0463(3) 0.6209(4) 0.5599(3)
C10_4 C 0.2785(4) 0.5929(4) 0.3062(3)
H5_4 H 0.3018 0.5830 0.2383
H6_4 H 0.1882 0.5633 0.3145
C11_4 C 0.3671(5) 0.5114(4) 0.3662(4)
H7_4 H 0.3613 0.4210 0.3459
H8_4 H 0.3415 0.5184 0.4332
H9_4 H 0.4563 0.5419 0.3588
C1_4 C 0.9618(3) 0.2018(3) 0.7281(3)
C2_4 C 0.9981(3) 0.2733(4) 0.6405(2)
H4_4 H 0.9942 0.4525 0.7013
loop_
_geom_bond_atom_site_label_1
_geom_bond_atom_site_label_2
_geom_bond_site_symmetry_1
_geom_bond_site_symmetry_2
Gd4 O5 1_555 1_555
O3 C8 1_555 1_555
O4 C8 1_555 1_555
O5 C9 1_555 1_555
O7 Gd4 1_555 1_555
H1 O7 1_555 1_555
C3 H2 1_555 1_555
C4 C3 1_555 1_555
C5 C4 1_555 1_555
H3 C5 1_555 1_555
C6 C5 1_555 1_555
C8 C4 1_555 1_555
C9 C6 1_555 1_555
C10 O7 1_555 1_555
H6 C10 1_555 1_555
C11 C10 1_555 1_555
H7 C11 1_555 1_555
H8 C11 1_555 1_555
H9 C11 1_555 1_555
O8 Gd4 1_555 1_555
O12 Gd4 1_555 1_555
O13 Gd4 1_555 1_555
C6 C7 1_555 1_555
O1 C1 1_555 1_555
O2 C1 1_555 1_555
C1 C2 1_555 1_555
Gd5 O6 1_555 1_555
Gd6 O1 1_555 1_555
O2 Gd6 1_555 1_555
Gd5 O9 1_555 1_555
O10 C1_2 1_555 1_555
C1_2 C2_2 1_555 1_555
Gd2 O6_2 1_555 1_555
Gd2 O9_2 1_555 1_555
Gd6 O5_2 1_555 1_555
O11 C8_2 1_555 1_555
O4_2 C8_2 1_555 1_555
O5_2 C9_2 1_555 1_555
O7_2 Gd6 1_555 1_555
H1_2 O7_2 1_555 1_555
C3_2 H2_2 1_555 1_555
C4_2 C3_2 1_555 1_555
C5_2 C4_2 1_555 1_555
H3_2 C5_2 1_555 1_555
C6_2 C5_2 1_555 1_555
C8_2 C4_2 1_555 1_555
C9_2 C6_2 1_555 1_555
C10_2 O7_2 1_555 1_555
H5_2 C10_2 1_555 1_555
H6_2 C10_2 1_555 1_555
C11_2 C10_2 1_555 1_555
H7_2 C11_2 1_555 1_555
H8_2 C11_2 1_555 1_555
H9_2 C11_2 1_555 1_555
Gd5 O4_2 1_555 1_555
O12_2 Gd6 1_555 1_555
O13_2 Gd6 1_555 1_555
C6_2 C7_2 1_555 1_555
O1_2 C1_3 1_555 1_555
O9 C1_3 1_555 1_555
C1_3 C2_3 1_555 1_555
Gd5 O1_2 1_555 1_555
C3_3 H2_3 1_555 1_555
C9_3 C6_3 1_555 1_555
C6_3 C7_3 1_555 1_555
Gd2 O5_3 1_555 1_555
O3_2 C8_3 1_555 1_555
O12_2 C8_3 1_555 1_555
O7_3 Gd2 1_555 1_555
H1_3 O7_3 1_555 1_555
C5_3 C4_3 1_555 1_555
H3_3 C5_3 1_555 1_555
C8_3 C4_3 1_555 1_555
C10_3 O7_3 1_555 1_555
H5_3 C10_3 1_555 1_555
H6_3 C10_3 1_555 1_555
C11_3 C10_3 1_555 1_555
H7_3 C11_3 1_555 1_555
H8_3 C11_3 1_555 1_555
H9_3 C11_3 1_555 1_555
O8_2 Gd2 1_555 1_555
Gd5 O5_4 1_555 1_555
O11_2 C8_4 1_555 1_555
O12 C8_4 1_555 1_555
O5_4 C9_4 1_555 1_555
O7_4 Gd5 1_555 1_555
H1_4 O7_4 1_555 1_555
C3_4 H2_4 1_555 1_555
C4_4 C3_4 1_555 1_555
C5_4 C4_4 1_555 1_555
H3_4 C5_4 1_555 1_555
C6_4 C5_4 1_555 1_555
C8_4 C4_4 1_555 1_555
C9_4 C6_4 1_555 1_555
C10_4 O7_4 1_555 1_555
H5_4 C10_4 1_555 1_555
H6_4 C10_4 1_555 1_555
C11_4 C10_4 1_555 1_555
H7_4 C11_4 1_555 1_555
H8_4 C11_4 1_555 1_555
H9_4 C11_4 1_555 1_555
C6_4 C7_4 1_555 1_555
O8_2 C1_4 1_555 1_555
O9_2 C1_4 1_555 1_555
C1_4 C2_4 1_555 1_555

#END
