
###############################################################################
#
# This file contains modified crystal structure data generated from the
# MOF subset of the Cambridge Structural Database (CSD) v543 
# hosted by the Cambridge Crystallographic Data Centre (CCDC).
#
# This work is licensed under the Creative Commons
# Attribution-NonCommercial-ShareAlike 4.0 International License.
# To view a copy of this license, visit
# http://creativecommons.org/licenses/by-nc-sa/4.0/
# or send a letter to
# Creative Commons, PO Box 1866, Mountain View, CA 94042, USA.
#
# CIF created using the CSD Python API on 29 September 2022
# The structure has been converted into the P1 space group
# The structure has a 3D framework
# The original CSD entry EBIDOK is in the trigonal crystal system
# The framework has been calculated to contain at least 10.0% void space
# The void calculation uses a probe of radius 1.32A, grid spacing 0.4
# The framework is charged, counterions have been retained in the structure
#
###############################################################################

data_EBIDOK
_chemical_formula_moiety         '(C238 H166 Ag9 Fe10 N36 O32 9+)n'
_symmetry_cell_setting           triclinic
_symmetry_space_group_name_H-M   'P 1'
_symmetry_Int_Tables_number      1
_space_group_name_Hall           'P 1'
loop_
_symmetry_equiv_pos_site_id
_symmetry_equiv_pos_as_xyz
1 x,y,z
_cell_length_a                   27.6841(11)
_cell_length_b                   27.6841(11)
_cell_length_c                   17.4801(14)
_cell_angle_alpha                90
_cell_angle_beta                 90
_cell_angle_gamma                120
_cell_volume                     11602.1
loop_
_atom_site_label
_atom_site_type_symbol
_atom_site_fract_x
_atom_site_fract_y
_atom_site_fract_z
N16 N 0.0055(5) 0.3277(7) 0.1333(4)
H59 H 0.0528 0.6597 0.0208
N25 N 0.0817(5) 0.2896(6) 0.2505(6)
O10 O 0.0651(3) 0.6318(3) 0.2509(5)
O13 O 0.0014(3) 0.6393(4) 0.1399(4)
O26 O 0.0565(3) 0.7225(3) 0.2511(5)
Fe3 Fe 0.0000 0.64401(8) 0.2500
Ag7 Ag 0.0000 0.29168(5) 0.2500
C40 C 0.0532(4) 0.2882(6) 0.7501(6)
C42 C -0.0000(9) 0.2331(13) 0.7500
H21 H 0.0000 0.1995 0.7500
C85 C 0.0369(4) 0.6774(6) 0.9147(6)
H54 H 0.0735 0.6949 0.8973
C90 C 0.0244(3) 0.6562(5) 0.9887(5)
C97 C 0.1052(3) 0.2848(5) 0.7539(5)
C102 C 0.1094(5) 0.2407(6) 0.7233(7)
H66 H 0.0779 0.2096 0.7041
C107 C 0.1608(4) 0.2431(6) 0.7216(7)
H71 H 0.1636 0.2136 0.7012
N22 N 0.2079(4) 0.2896(6) 0.7505(6)
C112 C 0.2036(5) 0.3337(6) 0.7810(7)
H76 H 0.2352 0.3648 0.8003
C117 C 0.1523(4) 0.3313(6) 0.7827(7)
H81 H 0.1494 0.3608 0.8031
O22 O 0.0565(3) 0.3340(4) 0.7511(5)
Fe6 Fe -0.0000 0.35599(8) 0.7500
Ag10 Ag -0.0000 0.70832(5) 0.7500
Ag12 Ag 0.29168(5) 0.29168(5) 0.7500
C25 C 0.6482(7) 0.1000(7) 0.1917(10)
C30 C 0.6603(7) 0.0907(7) 0.1246(9)
H19 H 0.6725 0.1208 0.0914
C35 C 0.6587(6) 0.0408(6) 0.0897(11)
C47 C 0.6521(4) 0.1534(3) 0.2122(6)
C52 C 0.6467(4) 0.1593(4) 0.2902(5)
H26 H 0.6414 0.1309 0.3237
C57 C 0.6493(5) 0.2075(5) 0.3181(5)
H31 H 0.6457 0.2115 0.3703
N8 N 0.6573(4) 0.2499(4) 0.2680(7)
N9 N 0.5926(6) 0.3427(4) 0.2680(7)
N10 N 0.7501(4) 0.4074(6) 0.2680(7)
C62 C 0.6627(5) 0.2440(4) 0.1900(7)
H36 H 0.6680 0.2724 0.1565
C67 C 0.6600(4) 0.1957(4) 0.1621(5)
H41 H 0.6636 0.1918 0.1099
C72 C 0.6603(4) 0.0303(4) 0.0147(4)
O8 O 0.6318(3) 0.0651(3) 0.2491(5)
Fe7 Fe 0.64401(8) 0.0000 0.2500
Ag5 Ag 0.6667 0.3333 0.30205(8)
C4 C 0.7650(4) 0.0532(4) 0.2499(6)
C5 C 0.7669(9) 0.0000(9) 0.2500
H2 H 0.8005 0.0000 0.2500
C16 C 0.8204(4) 0.1052(3) 0.2461(5)
C17 C 0.8687(4) 0.1094(5) 0.2767(7)
H11 H 0.8683 0.0779 0.2959
C18 C 0.9177(4) 0.1608(4) 0.2784(7)
H12 H 0.9500 0.1636 0.2988
N3 N 0.9183(5) 0.2079(4) 0.2495(6)
C19 C 0.8699(4) 0.2036(5) 0.2190(7)
H13 H 0.8704 0.2352 0.1997
C20 C 0.8210(4) 0.1523(4) 0.2173(7)
H14 H 0.7886 0.1494 0.1969
O3 O 0.7225(3) 0.0565(3) 0.2489(5)
C22 C 0.4518(10) 0.3518(7) 0.1917(10)
C23 C 0.9000(7) 0.5482(10) 0.1917(10)
C27 C 0.4304(10) 0.3397(7) 0.1246(9)
C28 C 0.9093(7) 0.5696(10) 0.1246(9)
H16 H 0.4483 0.3275 0.0914
H17 H 0.8792 0.5517 0.0914
C32 C 0.3821(8) 0.3413(6) 0.0897(11)
C33 C 0.9592(6) 0.6179(8) 0.0897(11)
C44 C 0.5013(5) 0.3479(4) 0.2122(6)
C45 C 0.8466(3) 0.4987(5) 0.2122(6)
C49 C 0.5126(6) 0.3533(4) 0.2902(5)
C50 C 0.8407(4) 0.4874(6) 0.2902(5)
H23 H 0.4895 0.3586 0.3237
H24 H 0.8691 0.5105 0.3237
C54 C 0.5582(7) 0.3507(5) 0.3181(5)
C55 C 0.7925(5) 0.4418(7) 0.3181(5)
H28 H 0.5658 0.3543 0.3703
H29 H 0.7885 0.4342 0.3703
C59 C 0.5813(6) 0.3373(5) 0.1900(7)
C60 C 0.7560(4) 0.4187(6) 0.1900(7)
H33 H 0.6044 0.3320 0.1565
H34 H 0.7276 0.3956 0.1565
C64 C 0.5357(6) 0.3400(4) 0.1621(5)
C65 C 0.8043(4) 0.4643(6) 0.1621(5)
H38 H 0.5282 0.3364 0.1099
H39 H 0.8082 0.4718 0.1099
C69 C 0.3700(6) 0.3397(4) 0.0147(4)
C70 C 0.9697(4) 0.6300(6) 0.0147(4)
C77 C 0.6975(4) 0.0727(3) 0.9667(6)
H46 H 0.7166 0.1093 0.9841
C82 C 0.7063(4) 0.0603(4) 0.8927(5)
H51 H 0.7312 0.0886 0.8606
N15 N 0.6778(5) 0.0055(5) 0.8667(4)
N17 N 0.9945(5) 0.3222(5) 0.3667(4)
C83 C 0.6774(6) 0.0369(4) 0.5853(6)
H52 H 0.6949 0.0735 0.6027
C88 C 0.6562(5) 0.0244(3) 0.5113(5)
H57 H 0.6597 0.0528 0.4792
H58 H 0.3403 0.3931 0.0208
N23 N 0.7921(4) 0.0817(5) 0.7495(6)
O5 O 0.4333(4) 0.3682(3) 0.2491(5)
O6 O 0.9349(3) 0.5667(4) 0.2491(5)
O9 O 0.3682(3) 0.4333(4) 0.2509(5)
O11 O 0.6393(4) 0.0014(3) 0.3601(4)
O12 O 0.3607(4) 0.3621(3) 0.1399(4)
O16 O 0.3621(3) 0.3607(4) 0.3601(4)
O17 O 0.9986(3) 0.6379(3) 0.3601(4)
O23 O 0.3340(4) 0.2775(3) 0.2489(5)
O24 O 0.2775(3) 0.3340(4) 0.2511(5)
O25 O 0.9435(3) 0.6660(4) 0.2489(5)
Fe2 Fe 0.35599(8) 0.35599(8) 0.2500
Fe3_2 Fe 1.0000 0.64401(8) 0.2500
Ag6 Ag 0.70832(5) 0.0000 0.7500
Ag7_2 Ag 1.0000 0.29168(5) 0.2500
C39 C 0.9468(4) 0.2350(4) 0.7499(6)
C42_2 C 1.0000(9) 0.2331(13) 0.7500
H21_2 H 1.0000 0.1995 0.7500
C74 C 0.3752(5) 0.3025(4) 0.9667(6)
C75 C 0.9273(3) 0.6248(5) 0.9667(6)
H43 H 0.3927 0.2834 0.9841
H44 H 0.8907 0.6073 0.9841
C79 C 0.3540(6) 0.2937(4) 0.8927(5)
C80 C 0.9397(4) 0.6460(6) 0.8927(5)
H48 H 0.3574 0.2688 0.8606
H49 H 0.9114 0.6426 0.8606
N12 N 0.3277(7) 0.3222(5) 0.8667(4)
N13 N 0.9945(5) 0.6723(7) 0.8667(4)
C84 C 0.3226(6) 0.3595(5) 0.9147(6)
H53 H 0.3051 0.3786 0.8973
C89 C 0.3438(5) 0.3682(4) 0.9887(5)
C96 C 0.8948(3) 0.1796(4) 0.7461(5)
C101 C 0.8906(5) 0.1313(4) 0.7767(7)
H65 H 0.9221 0.1317 0.7959
C106 C 0.8392(4) 0.0823(4) 0.7784(7)
H70 H 0.8364 0.0500 0.7988
C111 C 0.7964(5) 0.1301(4) 0.7190(7)
H75 H 0.7648 0.1296 0.6997
C116 C 0.8477(4) 0.1790(4) 0.7173(7)
H80 H 0.8506 0.2114 0.6969
O21 O 0.9435(3) 0.2775(3) 0.7489(5)
Fe6_2 Fe 1.0000 0.35599(8) 0.7500
Ag10_2 Ag 1.0000 0.70832(5) 0.7500
H61 H 0.6069 0.9472 0.0208
O15 O 0.6379(3) 0.9986(3) 0.1399(4)
Fe7_2 Fe 0.64401(8) 1.0000 0.2500
C5_2 C 0.7669(9) 1.0000(9) 0.2500
H2_2 H 0.8005 1.0000 0.2500
C21 C 0.5482(10) 0.9000(7) 0.3083(10)
C26 C 0.5696(10) 0.9093(7) 0.3754(9)
H15 H 0.5517 0.8792 0.4086
C31 C 0.6179(8) 0.9592(6) 0.4103(11)
C36 C 0.7118(6) 0.9468(4) 0.2501(6)
C43 C 0.4987(5) 0.8466(3) 0.2878(6)
C48 C 0.4874(6) 0.8407(4) 0.2098(5)
H22 H 0.5105 0.8691 0.1763
C53 C 0.4418(7) 0.7925(5) 0.1819(5)
H27 H 0.4342 0.7885 0.1297
N4 N 0.4074(6) 0.7501(4) 0.2320(7)
C58 C 0.4187(6) 0.7560(4) 0.3100(7)
H32 H 0.3956 0.7276 0.3435
C63 C 0.4643(6) 0.8043(4) 0.3379(5)
H37 H 0.4718 0.8082 0.3901
C68 C 0.6300(6) 0.9697(4) 0.4853(4)
C73 C 0.6248(5) 0.9273(3) 0.5333(6)
H42 H 0.6073 0.8907 0.5159
C78 C 0.6460(6) 0.9397(4) 0.6073(5)
H47 H 0.6426 0.9114 0.6394
N11 N 0.6723(7) 0.9945(5) 0.6333(4)
C87 C 0.6405(5) 0.9631(4) 0.9147(6)
H56 H 0.6214 0.9265 0.8973
C92 C 0.6318(4) 0.9756(3) 0.9887(5)
C93 C 0.7152(5) 0.8948(3) 0.2539(5)
C98 C 0.7593(6) 0.8906(5) 0.2233(7)
H62 H 0.7904 0.9221 0.2041
C103 C 0.7569(6) 0.8392(4) 0.2216(7)
H67 H 0.7864 0.8364 0.2012
N18 N 0.7104(6) 0.7921(4) 0.2505(6)
N24 N 0.7104(6) 0.9183(5) 0.7505(6)
C108 C 0.6663(6) 0.7964(5) 0.2810(7)
H72 H 0.6352 0.7648 0.3003
C113 C 0.6687(6) 0.8477(4) 0.2827(7)
H77 H 0.6392 0.8506 0.3031
O4 O 0.5667(4) 0.9349(3) 0.2509(5)
O18 O 0.6660(4) 0.9435(3) 0.2511(5)
Ag3 Ag 0.3334 0.6667 0.19795(8)
Ag6_2 Ag 0.70832(5) 1.0000 0.7500
Ag8 Ag 0.70832(5) 0.70832(5) 0.2500
C37 C 0.7118(6) 0.7650(4) 0.7501(6)
C38 C 0.7650(4) 0.7118(6) 0.7499(6)
C41 C 0.7669(13) 0.7669(9) 0.7500
H20 H 0.8005 0.8005 0.7500
C94 C 0.7152(5) 0.8204(4) 0.7539(5)
C95 C 0.8204(4) 0.7152(5) 0.7461(5)
C99 C 0.7593(6) 0.8687(4) 0.7233(7)
C100 C 0.8687(4) 0.7593(6) 0.7767(7)
H63 H 0.7904 0.8683 0.7041
H64 H 0.8683 0.7904 0.7959
C104 C 0.7569(6) 0.9177(4) 0.7216(7)
C105 C 0.9177(4) 0.7569(6) 0.7784(7)
H68 H 0.7864 0.9500 0.7012
H69 H 0.9500 0.7864 0.7988
N20 N 0.9183(5) 0.7104(6) 0.7495(6)
C109 C 0.6663(6) 0.8699(4) 0.7810(7)
C110 C 0.8699(4) 0.6663(6) 0.7190(7)
H73 H 0.6352 0.8704 0.8003
H74 H 0.8704 0.6352 0.6997
C114 C 0.6687(6) 0.8210(4) 0.7827(7)
C115 C 0.8210(4) 0.6687(6) 0.7173(7)
H78 H 0.6392 0.7886 0.8031
H79 H 0.7886 0.6392 0.6969
O19 O 0.6660(4) 0.7225(3) 0.7511(5)
O20 O 0.7225(3) 0.6660(4) 0.7489(5)
Fe4 Fe 0.64401(8) 0.64401(8) 0.7500
Ag8_2 Ag 0.29168(5) -0.00000(7) 0.2500
C38_2 C 0.2882(6) 0.0532(7) 0.7499(6)
C41_2 C 0.2331(9) 0.0000(16) 0.7500
H20_2 H 0.1995 -0.0000 0.7500
C95_2 C 0.2848(5) 0.1052(6) 0.7461(5)
C100_2 C 0.2407(6) 0.1094(7) 0.7767(7)
H64_2 H 0.2096 0.0779 0.7959
C105_2 C 0.2431(6) 0.1608(7) 0.7784(7)
H69_2 H 0.2136 0.1636 0.7988
N20_2 N 0.2896(6) 0.2079(8) 0.7495(6)
C110_2 C 0.3337(6) 0.2036(7) 0.7190(7)
H74_2 H 0.3648 0.2352 0.6997
C115_2 C 0.3313(6) 0.1523(7) 0.7173(7)
H79_2 H 0.3608 0.1494 0.6969
O20_2 O 0.3340(4) 0.0565(5) 0.7489(5)
Fe4_2 Fe 0.35599(8) 0.00000(11) 0.7500
C5_3 C 0.0000(9) 0.7669(13) 0.2500
H2_3 H -0.0000 0.8005 0.2500
C21_2 C 0.1000(7) 0.6482(12) 0.3083(10)
C26_2 C 0.0907(7) 0.6603(12) 0.3754(9)
H15_2 H 0.1208 0.6725 0.4086
C31_2 C 0.0408(6) 0.6587(10) 0.4103(11)
C36_2 C 0.0532(4) 0.7650(7) 0.2501(6)
C43_2 C 0.1534(3) 0.6521(6) 0.2878(6)
C48_2 C 0.1593(4) 0.6467(7) 0.2098(5)
H22_2 H 0.1309 0.6414 0.1763
C53_2 C 0.2075(5) 0.6493(9) 0.1819(5)
H27_2 H 0.2115 0.6457 0.1297
N4_2 N 0.2499(4) 0.6573(7) 0.2320(7)
C58_2 C 0.2440(4) 0.6627(7) 0.3100(7)
H32_2 H 0.2724 0.6680 0.3435
C63_2 C 0.1957(4) 0.6600(7) 0.3379(5)
H37_2 H 0.1918 0.6636 0.3901
C68_2 C 0.0303(4) 0.6603(7) 0.4853(4)
C73_2 C 0.0727(3) 0.6975(6) 0.5333(6)
H42_2 H 0.1093 0.7166 0.5159
C78_2 C 0.0603(4) 0.7063(7) 0.6073(5)
H47_2 H 0.0886 0.7312 0.6394
N11_2 N 0.0055(5) 0.6778(9) 0.6333(4)
C93_2 C 0.1052(3) 0.8204(6) 0.2539(5)
C98_2 C 0.1094(5) 0.8687(8) 0.2233(7)
H62_2 H 0.0779 0.8683 0.2041
C103_2 C 0.1608(4) 0.9177(7) 0.2216(7)
H67_2 H 0.1636 0.9500 0.2012
N18_2 N 0.2079(4) 0.9183(7) 0.2505(6)
N24_2 N 0.0817(5) 0.7921(8) 0.7505(6)
C108_2 C 0.2036(5) 0.8699(8) 0.2810(7)
H72_2 H 0.2352 0.8704 0.3003
C113_2 C 0.1523(4) 0.8210(7) 0.2827(7)
H77_2 H 0.1494 0.7886 0.3031
Ag8_3 Ag 0.29168(5) 1.00000(7) 0.2500
C37_2 C 0.2350(4) 0.9468(7) 0.7501(6)
C41_3 C 0.2331(9) 1.0000(16) 0.7500
H20_3 H 0.1995 1.0000 0.7500
C94_2 C 0.1796(4) 0.8948(6) 0.7539(5)
C99_2 C 0.1313(4) 0.8906(7) 0.7233(7)
H63_2 H 0.1317 0.9221 0.7041
C104_2 C 0.0823(4) 0.8392(7) 0.7216(7)
H68_2 H 0.0500 0.8364 0.7012
C109_2 C 0.1301(4) 0.7964(7) 0.7810(7)
H73_2 H 0.1296 0.7648 0.8003
C114_2 C 0.1790(4) 0.8477(7) 0.7827(7)
H78_2 H 0.2114 0.8506 0.8031
O19_2 O 0.2775(3) 0.9435(5) 0.7511(5)
Fe4_3 Fe 0.35599(8) 1.00000(11) 0.7500
C4_2 C 0.9468(4) 0.7118(6) 0.2499(6)
C5_4 C 1.0000(9) 0.7669(13) 0.2500
H2_4 H 1.0000 0.8005 0.2500
C16_2 C 0.8948(3) 0.7152(5) 0.2461(5)
C17_2 C 0.8906(5) 0.7593(6) 0.2767(7)
H11_2 H 0.9221 0.7904 0.2959
C18_2 C 0.8392(4) 0.7569(6) 0.2784(7)
H12_2 H 0.8364 0.7864 0.2988
N3_2 N 0.7921(4) 0.7104(6) 0.2495(6)
C19_2 C 0.7964(5) 0.6663(6) 0.2190(7)
H13_2 H 0.7648 0.6352 0.1997
C20_2 C 0.8477(4) 0.6687(6) 0.2173(7)
H14_2 H 0.8506 0.6392 0.1969
N16_2 N 0.6723(7) 0.6778(9) 0.1333(4)
N17_2 N 0.6778(5) 0.6723(7) 0.3667(4)
C83_2 C 0.9631(4) 0.6405(7) 0.5853(6)
H52_2 H 0.9265 0.6214 0.6027
C88_2 C 0.9756(3) 0.6318(6) 0.5113(5)
H57_2 H 0.9472 0.6069 0.4792
C4_3 C 0.2882(6) 0.2350(4) 0.2499(6)
C5_5 C 0.2331(13) 0.2331(9) 0.2500
H2_5 H 0.1995 0.1995 0.2500
C16_3 C 0.2848(5) 0.1796(4) 0.2461(5)
C17_3 C 0.2407(6) 0.1313(4) 0.2767(7)
H11_3 H 0.2096 0.1317 0.2959
C18_3 C 0.2431(6) 0.0823(4) 0.2784(7)
H12_3 H 0.2136 0.0500 0.2988
N3_3 N 0.2896(6) 0.0817(5) 0.2495(6)
C19_3 C 0.3337(6) 0.1301(4) 0.2190(7)
H13_3 H 0.3648 0.1296 0.1997
C20_3 C 0.3313(6) 0.1790(4) 0.2173(7)
H14_3 H 0.3608 0.2114 0.1969
C21_3 C 0.3518(12) 0.4518(10) 0.3083(10)
C26_3 C 0.3397(12) 0.4304(10) 0.3754(9)
H15_3 H 0.3275 0.4483 0.4086
C31_3 C 0.3413(10) 0.3821(8) 0.4103(11)
C36_3 C 0.2350(7) 0.2882(6) 0.2501(6)
C43_3 C 0.3479(6) 0.5013(5) 0.2878(6)
C48_3 C 0.3533(7) 0.5126(6) 0.2098(5)
H22_3 H 0.3586 0.4895 0.1763
C53_3 C 0.3507(9) 0.5582(7) 0.1819(5)
H27_3 H 0.3543 0.5658 0.1297
N4_3 N 0.3427(7) 0.5926(6) 0.2320(7)
C58_3 C 0.3373(7) 0.5813(6) 0.3100(7)
H32_3 H 0.3320 0.6044 0.3435
C63_3 C 0.3400(7) 0.5357(6) 0.3379(5)
H37_3 H 0.3364 0.5282 0.3901
C68_3 C 0.3397(7) 0.3700(6) 0.4853(4)
C73_3 C 0.3025(6) 0.3752(5) 0.5333(6)
H42_3 H 0.2834 0.3927 0.5159
C78_3 C 0.2937(7) 0.3540(6) 0.6073(5)
H47_3 H 0.2688 0.3574 0.6394
N11_3 N 0.3222(9) 0.3277(7) 0.6333(4)
N17_3 N 0.3277(7) 0.0055(5) 0.3667(4)
C83_3 C 0.3595(7) 0.3226(6) 0.5853(6)
H52_3 H 0.3786 0.3051 0.6027
C88_3 C 0.3682(6) 0.3438(5) 0.5113(5)
H57_3 H 0.3931 0.3403 0.4792
C93_3 C 0.1796(6) 0.2848(5) 0.2539(5)
C98_3 C 0.1313(8) 0.2407(6) 0.2233(7)
H62_3 H 0.1317 0.2096 0.2041
C103_3 C 0.0823(7) 0.2431(6) 0.2216(7)
H67_3 H 0.0500 0.2136 0.2012
C108_3 C 0.1301(8) 0.3337(6) 0.2810(7)
H72_3 H 0.1296 0.3648 0.3003
C113_3 C 0.1790(7) 0.3313(6) 0.2827(7)
H77_3 H 0.2114 0.3608 0.3031
N16_3 N 0.3222(9) 0.9945(5) 0.1333(4)
C14 C 0.3595(5) 0.0369(4) 0.0853(6)
H9 H 0.3786 0.0735 0.1027
C15 C 0.3682(4) 0.0244(3) 0.0113(5)
C24 C 0.4518(10) 0.1000(7) 0.6917(10)
C29 C 0.4304(10) 0.0907(7) 0.6246(9)
H18 H 0.4483 0.1208 0.5914
C34 C 0.3821(8) 0.0408(6) 0.5897(11)
C46 C 0.5013(5) 0.1534(3) 0.7122(6)
C51 C 0.5126(6) 0.1593(4) 0.7902(5)
H25 H 0.4895 0.1309 0.8237
C56 C 0.5582(7) 0.2075(5) 0.8181(5)
H30 H 0.5658 0.2115 0.8703
N7 N 0.5926(6) 0.2499(4) 0.7680(7)
C61 C 0.5813(6) 0.2440(4) 0.6900(7)
H35 H 0.6044 0.2724 0.6565
C66 C 0.5357(6) 0.1957(4) 0.6621(5)
H40 H 0.5282 0.1918 0.6099
C71 C 0.3700(6) 0.0303(4) 0.5147(4)
C76 C 0.3752(5) 0.0727(3) 0.4667(6)
H45 H 0.3927 0.1093 0.4841
C81 C 0.3540(6) 0.0603(4) 0.3927(5)
H50 H 0.3574 0.0886 0.3606
O7 O 0.4333(4) 0.0651(3) 0.7491(5)
Ag4 Ag 0.6666 0.3333 0.80205(8)
H10 H 0.3931 0.0528 0.9792
O2 O 0.3621(3) 0.0014(3) 0.8601(4)
C12 C 0.3025(4) 0.9273(3) 0.0333(6)
H7 H 0.2834 0.8907 0.0159
C13 C 0.2937(4) 0.9397(4) 0.1073(5)
H8 H 0.2688 0.9114 0.1394
C74_2 C 0.6248(5) 0.6975(4) 0.0333(6)
C75_2 C 0.0727(3) 0.3752(5) 0.0333(6)
H43_2 H 0.6073 0.7166 0.0159
H44_2 H 0.1093 0.3927 0.0159
C79_2 C 0.6460(6) 0.7063(4) 0.1073(5)
C80_2 C 0.0603(4) 0.3540(6) 0.1073(5)
H48_2 H 0.6426 0.7312 0.1394
H49_2 H 0.0886 0.3574 0.1394
C84_2 C 0.6774(6) 0.6405(5) 0.0853(6)
C86 C 0.3226(6) 0.9631(4) 0.4147(6)
H53_2 H 0.6949 0.6214 0.1027
H55 H 0.3051 0.9265 0.3973
C89_2 C 0.6562(5) 0.6318(4) 0.0113(5)
C91 C 0.3438(5) 0.9756(3) 0.4887(5)
H60 H 0.3403 0.9472 0.5208
O14 O 0.3607(4) 0.9986(3) 0.6399(4)
C1 C 0.3518(7) 0.9000(7) 0.8083(10)
C2 C 0.3397(7) 0.9093(7) 0.8754(9)
H1 H 0.3275 0.8792 0.9086
C3 C 0.3413(6) 0.9592(6) 0.9103(11)
C6 C 0.3479(4) 0.8466(3) 0.7878(6)
C7 C 0.3533(4) 0.8407(4) 0.7098(5)
H3 H 0.3586 0.8691 0.6763
C8 C 0.3507(5) 0.7925(5) 0.6819(5)
H4 H 0.3543 0.7885 0.6297
N1 N 0.3427(4) 0.7501(4) 0.7320(7)
C9 C 0.3373(5) 0.7560(4) 0.8100(7)
H5 H 0.3320 0.7276 0.8435
C10 C 0.3400(4) 0.8043(4) 0.8379(5)
H6 H 0.3364 0.8082 0.8901
C11 C 0.3397(4) 0.9697(4) 0.9853(4)
O1 O 0.3682(3) 0.9349(3) 0.7509(5)
Ag1 Ag 0.3333 0.6667 0.69795(8)
C22_2 C 0.5482(10) 0.6482(7) 0.8083(10)
C23_2 C 0.1000(7) 0.4518(10) 0.8083(10)
C27_2 C 0.5696(10) 0.6603(7) 0.8754(9)
C28_2 C 0.0907(7) 0.4304(10) 0.8754(9)
H16_2 H 0.5517 0.6725 0.9086
H17_2 H 0.1208 0.4483 0.9086
C32_2 C 0.6179(8) 0.6587(6) 0.9103(11)
C33_2 C 0.0408(6) 0.3821(8) 0.9103(11)
C44_2 C 0.4987(5) 0.6521(4) 0.7878(6)
C45_2 C 0.1534(3) 0.5013(5) 0.7878(6)
C49_2 C 0.4874(6) 0.6467(4) 0.7098(5)
C50_2 C 0.1593(4) 0.5126(6) 0.7098(5)
H23_2 H 0.5105 0.6414 0.6763
H24_2 H 0.1309 0.4895 0.6763
C54_2 C 0.4418(7) 0.6493(5) 0.6819(5)
C55_2 C 0.2075(5) 0.5582(7) 0.6819(5)
H28_2 H 0.4342 0.6457 0.6297
H29_2 H 0.2115 0.5658 0.6297
N5 N 0.4074(6) 0.6573(4) 0.7320(7)
N6 N 0.2499(4) 0.5926(6) 0.7320(7)
C59_2 C 0.4187(6) 0.6627(5) 0.8100(7)
C60_2 C 0.2440(4) 0.5813(6) 0.8100(7)
H33_2 H 0.3956 0.6680 0.8435
H34_2 H 0.2724 0.6044 0.8435
C64_2 C 0.4643(6) 0.6600(4) 0.8379(5)
C65_2 C 0.1957(4) 0.5357(6) 0.8379(5)
H38_2 H 0.4718 0.6636 0.8901
H39_2 H 0.1918 0.5282 0.8901
C69_2 C 0.6300(6) 0.6603(4) 0.9853(4)
C70_2 C 0.0303(4) 0.3700(6) 0.9853(4)
H58_2 H 0.6597 0.6069 0.9792
O5_2 O 0.5667(4) 0.6318(3) 0.7509(5)
O6_2 O 0.0651(3) 0.4333(4) 0.7509(5)
O9_2 O 0.6318(3) 0.5667(4) 0.7491(5)
O12_2 O 0.6393(4) 0.6379(3) 0.8601(4)
O16_2 O 0.6379(3) 0.6393(4) 0.6399(4)
O17_2 O 0.0014(3) 0.3621(3) 0.6399(4)
C85_2 C 0.9631(4) 0.3226(6) 0.0853(6)
H54_2 H 0.9265 0.3051 0.1027
C90_2 C 0.9756(3) 0.3438(5) 0.0113(5)
H59_2 H 0.9472 0.3403 0.9792
O10_2 O 0.9349(3) 0.3682(3) 0.7491(5)
O13_2 O 0.9986(3) 0.3607(4) 0.8601(4)
C86_2 C 0.0369(4) 0.3595(7) 0.4147(6)
H55_2 H 0.0735 0.3786 0.3973
C91_2 C 0.0244(3) 0.3682(6) 0.4887(5)
H60_2 H 0.0528 0.3931 0.5208
C24_2 C 0.9000(7) 0.3518(12) 0.6917(10)
C29_2 C 0.9093(7) 0.3397(12) 0.6246(9)
H18_2 H 0.8792 0.3275 0.5914
C34_2 C 0.9592(6) 0.3413(10) 0.5897(11)
C46_2 C 0.8466(3) 0.3479(6) 0.7122(6)
C51_2 C 0.8407(4) 0.3533(7) 0.7902(5)
H25_2 H 0.8691 0.3586 0.8237
C56_2 C 0.7925(5) 0.3507(9) 0.8181(5)
H30_2 H 0.7885 0.3543 0.8703
N7_2 N 0.7501(4) 0.3427(7) 0.7680(7)
C61_2 C 0.7560(4) 0.3373(7) 0.6900(7)
H35_2 H 0.7276 0.3320 0.6565
C66_2 C 0.8043(4) 0.3400(7) 0.6621(5)
H40_2 H 0.8082 0.3364 0.6099
C71_2 C 0.9697(4) 0.3397(7) 0.5147(4)
C76_2 C 0.9273(3) 0.3025(6) 0.4667(6)
H45_2 H 0.8907 0.2834 0.4841
C81_2 C 0.9397(4) 0.2937(7) 0.3927(5)
H50_2 H 0.9114 0.2688 0.3606
C24_3 C 0.6482(12) 0.5482(10) 0.6917(10)
C29_3 C 0.6603(12) 0.5696(10) 0.6246(9)
H18_3 H 0.6725 0.5517 0.5914
C34_3 C 0.6587(10) 0.6179(8) 0.5897(11)
C46_3 C 0.6521(6) 0.4987(5) 0.7122(6)
C51_3 C 0.6467(7) 0.4874(6) 0.7902(5)
H25_3 H 0.6414 0.5105 0.8237
C56_3 C 0.6493(9) 0.4418(7) 0.8181(5)
H30_3 H 0.6457 0.4342 0.8703
N7_3 N 0.6573(7) 0.4074(6) 0.7680(7)
C61_3 C 0.6627(7) 0.4187(6) 0.6900(7)
H35_3 H 0.6680 0.3956 0.6565
C66_3 C 0.6600(7) 0.4643(6) 0.6621(5)
H40_3 H 0.6636 0.4718 0.6099
C71_3 C 0.6603(7) 0.6300(6) 0.5147(4)
C76_3 C 0.6975(6) 0.6248(5) 0.4667(6)
H45_3 H 0.7166 0.6073 0.4841
C81_3 C 0.7063(7) 0.6460(6) 0.3927(5)
H50_3 H 0.7312 0.6426 0.3606
C86_3 C 0.6405(7) 0.6774(6) 0.4147(6)
H55_3 H 0.6214 0.6949 0.3973
C91_3 C 0.6318(6) 0.6562(5) 0.4887(5)
H60_3 H 0.6069 0.6597 0.5208
loop_
_geom_bond_atom_site_label_1
_geom_bond_atom_site_label_2
_geom_bond_site_symmetry_1
_geom_bond_site_symmetry_2
N16 Ag7 1_555 1_555
N25 Ag7 1_555 1_555
O10 Fe3 1_555 1_555
O26 Fe3 1_555 1_555
O13 Fe3 1_555 1_555
C40 C42 1_555 1_555
C42 H21 1_555 1_555
H54 C85 1_555 1_555
C97 C40 1_555 1_555
C102 C97 1_555 1_555
H66 C102 1_555 1_555
C107 C102 1_555 1_555
H71 C107 1_555 1_555
N22 C107 1_555 1_555
C112 N22 1_555 1_555
H76 C112 1_555 1_555
C117 C97 1_555 1_555
H81 C117 1_555 1_555
O22 C40 1_555 1_555
Ag12 N22 1_555 1_555
C85 C90 1_555 1_555
C112 C117 1_555 1_555
O22 Fe6 1_555 1_555
C25 C30 1_555 1_555
C30 H19 1_555 1_555
C35 C30 1_555 1_555
C47 C25 1_555 1_555
C52 C47 1_555 1_555
H26 C52 1_555 1_555
C57 C52 1_555 1_555
H31 C57 1_555 1_555
N8 C57 1_555 1_555
N9 Ag5 1_555 1_555
N10 Ag5 1_555 1_555
C62 N8 1_555 1_555
H36 C62 1_555 1_555
C67 C47 1_555 1_555
H41 C67 1_555 1_555
C72 C35 1_555 1_555
O8 C25 1_555 1_555
Fe7 O8 1_555 1_555
Ag5 N8 1_555 1_555
C62 C67 1_555 1_555
C4 C5 1_555 1_555
C5 H2 1_555 1_555
C16 C4 1_555 1_555
C17 C16 1_555 1_555
H11 C17 1_555 1_555
C18 C17 1_555 1_555
H12 C18 1_555 1_555
N3 C18 1_555 1_555
C19 N3 1_555 1_555
H13 C19 1_555 1_555
C20 C16 1_555 1_555
H14 C20 1_555 1_555
O3 C4 1_555 1_555
C22 C27 1_555 1_555
C23 C28 1_555 1_555
C27 H16 1_555 1_555
C28 H17 1_555 1_555
C32 C27 1_555 1_555
C33 C28 1_555 1_555
C44 C22 1_555 1_555
C45 C23 1_555 1_555
C49 C44 1_555 1_555
C50 C45 1_555 1_555
H23 C49 1_555 1_555
H24 C50 1_555 1_555
C54 C49 1_555 1_555
C55 C50 1_555 1_555
H28 C54 1_555 1_555
H29 C55 1_555 1_555
C59 N9 1_555 1_555
C60 N10 1_555 1_555
H33 C59 1_555 1_555
H34 C60 1_555 1_555
C64 C44 1_555 1_555
C65 C45 1_555 1_555
H38 C64 1_555 1_555
H39 C65 1_555 1_555
C69 C32 1_555 1_555
C70 C33 1_555 1_555
H46 C77 1_555 1_555
C82 C77 1_555 1_555
H51 C82 1_555 1_555
N15 C82 1_555 1_555
N17 Ag7_2 1_555 1_555
H52 C83 1_555 1_555
H57 C88 1_555 1_555
N23 Ag6 1_555 1_555
O5 C22 1_555 1_555
O6 C23 1_555 1_555
O9 Fe2 1_555 1_555
O11 Fe7 1_555 1_555
O12 C32 1_555 1_555
O16 Fe2 1_555 1_555
O17 Fe3_2 1_555 1_555
O23 Fe2 1_555 1_555
O24 Fe2 1_555 1_555
O25 Fe3_2 1_555 1_555
Fe2 O5 1_555 1_555
Fe3_2 O6 1_555 1_555
Ag7_2 N3 1_555 1_555
C19 C20 1_555 1_555
O3 Fe7 1_555 1_555
C54 N9 1_555 1_555
C55 N10 1_555 1_555
C59 C64 1_555 1_555
C60 C65 1_555 1_555
N15 Ag6 1_555 1_555
C83 C88 1_555 1_555
O12 Fe2 1_555 1_555
C39 C42_2 1_555 1_555
C42_2 H21_2 1_555 1_555
H43 C74 1_555 1_555
H44 C75 1_555 1_555
C79 C74 1_555 1_555
C80 C75 1_555 1_555
H48 C79 1_555 1_555
H49 C80 1_555 1_555
N12 C79 1_555 1_555
N13 C80 1_555 1_555
C84 N12 1_555 1_555
H53 C84 1_555 1_555
C96 C39 1_555 1_555
C101 C96 1_555 1_555
H65 C101 1_555 1_555
C106 C101 1_555 1_555
H70 C106 1_555 1_555
C111 N23 1_555 1_555
H75 C111 1_555 1_555
C116 C96 1_555 1_555
H80 C116 1_555 1_555
O21 C39 1_555 1_555
Fe6_2 O21 1_555 1_555
Ag12 N12 1_555 1_555
Ag10_2 N13 1_555 1_555
C84 C89 1_555 1_555
C106 N23 1_555 1_555
C111 C116 1_555 1_555
O15 Fe7_2 1_555 1_555
C5_2 H2_2 1_555 1_555
C21 C26 1_555 1_555
C26 H15 1_555 1_555
C31 C26 1_555 1_555
C36 C5_2 1_555 1_555
C43 C21 1_555 1_555
C48 C43 1_555 1_555
H22 C48 1_555 1_555
C53 C48 1_555 1_555
H27 C53 1_555 1_555
N4 C53 1_555 1_555
C58 N4 1_555 1_555
H32 C58 1_555 1_555
C63 C43 1_555 1_555
H37 C63 1_555 1_555
C68 C31 1_555 1_555
C73 C68 1_555 1_555
H42 C73 1_555 1_555
C78 C73 1_555 1_555
H47 C78 1_555 1_555
N11 C78 1_555 1_555
H56 C87 1_555 1_555
C93 C36 1_555 1_555
C98 C93 1_555 1_555
H62 C98 1_555 1_555
C103 C98 1_555 1_555
H67 C103 1_555 1_555
N18 C103 1_555 1_555
N24 Ag6_2 1_555 1_555
C108 N18 1_555 1_555
H72 C108 1_555 1_555
C113 C93 1_555 1_555
H77 C113 1_555 1_555
O4 Fe7_2 1_555 1_555
O18 Fe7_2 1_555 1_555
Ag3 N4 1_555 1_555
Ag6_2 N11 1_555 1_555
Ag8 N18 1_555 1_555
C21 O4 1_555 1_555
C36 O18 1_555 1_555
C58 C63 1_555 1_555
C87 C92 1_555 1_555
C108 C113 1_555 1_555
C37 C41 1_555 1_555
C38 C41 1_555 1_555
C41 H20 1_555 1_555
C94 C37 1_555 1_555
C95 C38 1_555 1_555
C99 C94 1_555 1_555
C100 C95 1_555 1_555
H63 C99 1_555 1_555
H64 C100 1_555 1_555
C104 C99 1_555 1_555
C105 C100 1_555 1_555
H68 C104 1_555 1_555
H69 C105 1_555 1_555
N20 C105 1_555 1_555
C109 N24 1_555 1_555
C110 N20 1_555 1_555
H73 C109 1_555 1_555
H74 C110 1_555 1_555
C114 C94 1_555 1_555
C115 C95 1_555 1_555
H78 C114 1_555 1_555
H79 C115 1_555 1_555
O19 C37 1_555 1_555
O20 C38 1_555 1_555
Fe4 O19 1_555 1_555
Ag10_2 N20 1_555 1_555
C104 N24 1_555 1_555
C109 C114 1_555 1_555
C110 C115 1_555 1_555
O20 Fe4 1_555 1_555
C38_2 C41_2 1_555 1_555
C41_2 H20_2 1_555 1_555
C95_2 C38_2 1_555 1_555
C100_2 C95_2 1_555 1_555
H64_2 C100_2 1_555 1_555
C105_2 C100_2 1_555 1_555
H69_2 C105_2 1_555 1_555
N20_2 C105_2 1_555 1_555
C110_2 N20_2 1_555 1_555
H74_2 C110_2 1_555 1_555
C115_2 C95_2 1_555 1_555
H79_2 C115_2 1_555 1_555
O20_2 C38_2 1_555 1_555
Ag12 N20_2 1_555 1_555
C110_2 C115_2 1_555 1_555
O20_2 Fe4_2 1_555 1_555
C5_3 H2_3 1_555 1_555
C21_2 C26_2 1_555 1_555
C26_2 H15_2 1_555 1_555
C31_2 C26_2 1_555 1_555
C36_2 C5_3 1_555 1_555
C43_2 C21_2 1_555 1_555
C48_2 C43_2 1_555 1_555
H22_2 C48_2 1_555 1_555
C53_2 C48_2 1_555 1_555
H27_2 C53_2 1_555 1_555
N4_2 C53_2 1_555 1_555
C58_2 N4_2 1_555 1_555
H32_2 C58_2 1_555 1_555
C63_2 C43_2 1_555 1_555
H37_2 C63_2 1_555 1_555
C68_2 C31_2 1_555 1_555
C73_2 C68_2 1_555 1_555
H42_2 C73_2 1_555 1_555
C78_2 C73_2 1_555 1_555
H47_2 C78_2 1_555 1_555
N11_2 C78_2 1_555 1_555
C93_2 C36_2 1_555 1_555
C98_2 C93_2 1_555 1_555
H62_2 C98_2 1_555 1_555
C103_2 C98_2 1_555 1_555
H67_2 C103_2 1_555 1_555
N18_2 C103_2 1_555 1_555
N24_2 Ag10 1_555 1_555
C108_2 N18_2 1_555 1_555
H72_2 C108_2 1_555 1_555
C113_2 C93_2 1_555 1_555
H77_2 C113_2 1_555 1_555
Ag3 N4_2 1_555 1_555
Ag10 N11_2 1_555 1_555
Ag8_3 N18_2 1_555 1_555
C21_2 O10 1_555 1_555
C36_2 O26 1_555 1_555
C58_2 C63_2 1_555 1_555
C108_2 C113_2 1_555 1_555
C37_2 C41_3 1_555 1_555
C41_3 H20_3 1_555 1_555
C94_2 C37_2 1_555 1_555
C99_2 C94_2 1_555 1_555
H63_2 C99_2 1_555 1_555
C104_2 C99_2 1_555 1_555
H68_2 C104_2 1_555 1_555
C109_2 N24_2 1_555 1_555
H73_2 C109_2 1_555 1_555
C114_2 C94_2 1_555 1_555
H78_2 C114_2 1_555 1_555
O19_2 C37_2 1_555 1_555
Fe4_3 O19_2 1_555 1_555
C104_2 N24_2 1_555 1_555
C109_2 C114_2 1_555 1_555
C4_2 C5_4 1_555 1_555
C5_4 H2_4 1_555 1_555
C16_2 C4_2 1_555 1_555
C17_2 C16_2 1_555 1_555
H11_2 C17_2 1_555 1_555
C18_2 C17_2 1_555 1_555
H12_2 C18_2 1_555 1_555
N3_2 C18_2 1_555 1_555
C19_2 N3_2 1_555 1_555
H13_2 C19_2 1_555 1_555
C20_2 C16_2 1_555 1_555
H14_2 C20_2 1_555 1_555
O25 C4_2 1_555 1_555
N16_2 Ag8 1_555 1_555
N17_2 Ag8 1_555 1_555
H52_2 C83_2 1_555 1_555
H57_2 C88_2 1_555 1_555
Ag8 N3_2 1_555 1_555
C19_2 C20_2 1_555 1_555
C83_2 C88_2 1_555 1_555
C4_3 C5_5 1_555 1_555
C5_5 H2_5 1_555 1_555
C16_3 C4_3 1_555 1_555
C17_3 C16_3 1_555 1_555
H11_3 C17_3 1_555 1_555
C18_3 C17_3 1_555 1_555
H12_3 C18_3 1_555 1_555
N3_3 C18_3 1_555 1_555
C19_3 N3_3 1_555 1_555
H13_3 C19_3 1_555 1_555
C20_3 C16_3 1_555 1_555
H14_3 C20_3 1_555 1_555
O23 C4_3 1_555 1_555
C21_3 C26_3 1_555 1_555
C26_3 H15_3 1_555 1_555
C31_3 C26_3 1_555 1_555
C36_3 C5_5 1_555 1_555
C43_3 C21_3 1_555 1_555
C48_3 C43_3 1_555 1_555
H22_3 C48_3 1_555 1_555
C53_3 C48_3 1_555 1_555
H27_3 C53_3 1_555 1_555
N4_3 C53_3 1_555 1_555
C58_3 N4_3 1_555 1_555
H32_3 C58_3 1_555 1_555
C63_3 C43_3 1_555 1_555
H37_3 C63_3 1_555 1_555
C68_3 C31_3 1_555 1_555
C73_3 C68_3 1_555 1_555
H42_3 C73_3 1_555 1_555
C78_3 C73_3 1_555 1_555
H47_3 C78_3 1_555 1_555
N11_3 C78_3 1_555 1_555
N17_3 Ag8_2 1_555 1_555
C83_3 N11_3 1_555 1_555
H52_3 C83_3 1_555 1_555
C88_3 C68_3 1_555 1_555
H57_3 C88_3 1_555 1_555
C93_3 C36_3 1_555 1_555
C98_3 C93_3 1_555 1_555
H62_3 C98_3 1_555 1_555
C103_3 C98_3 1_555 1_555
H67_3 C103_3 1_555 1_555
N25 C103_3 1_555 1_555
C108_3 N25 1_555 1_555
H72_3 C108_3 1_555 1_555
C113_3 C93_3 1_555 1_555
H77_3 C113_3 1_555 1_555
Ag3 N4_3 1_555 1_555
Ag12 N11_3 1_555 1_555
Ag8_2 N3_3 1_555 1_555
C19_3 C20_3 1_555 1_555
C21_3 O9 1_555 1_555
C31_3 O16 1_555 1_555
C36_3 O24 1_555 1_555
C58_3 C63_3 1_555 1_555
C83_3 C88_3 1_555 1_555
C108_3 C113_3 1_555 1_555
N16_3 Ag8_3 1_555 1_555
H9 C14 1_555 1_555
C24 C29 1_555 1_555
C29 H18 1_555 1_555
C34 C29 1_555 1_555
C46 C24 1_555 1_555
C51 C46 1_555 1_555
H25 C51 1_555 1_555
C56 C51 1_555 1_555
H30 C56 1_555 1_555
N7 C56 1_555 1_555
C61 N7 1_555 1_555
H35 C61 1_555 1_555
C66 C46 1_555 1_555
H40 C66 1_555 1_555
C71 C34 1_555 1_555
C76 C71 1_555 1_555
H45 C76 1_555 1_555
C81 C76 1_555 1_555
H50 C81 1_555 1_555
O7 C24 1_555 1_555
Fe4_2 O7 1_555 1_555
Ag4 N7 1_555 1_555
C14 C15 1_555 1_555
C61 C66 1_555 1_555
C81 N17_3 1_555 1_555
O2 Fe4_2 1_555 1_555
H7 C12 1_555 1_555
C13 C12 1_555 1_555
H8 C13 1_555 1_555
N16_3 C13 1_555 1_555
H43_2 C74_2 1_555 1_555
H44_2 C75_2 1_555 1_555
C79_2 C74_2 1_555 1_555
C80_2 C75_2 1_555 1_555
H48_2 C79_2 1_555 1_555
H49_2 C80_2 1_555 1_555
N16_2 C79_2 1_555 1_555
N16 C80_2 1_555 1_555
C84_2 N16_2 1_555 1_555
H53_2 C84_2 1_555 1_555
H55 C86 1_555 1_555
H60 C91 1_555 1_555
C84_2 C89_2 1_555 1_555
C86 C91 1_555 1_555
O14 Fe4_3 1_555 1_555
C1 C2 1_555 1_555
C2 H1 1_555 1_555
C3 C2 1_555 1_555
C6 C1 1_555 1_555
C7 C6 1_555 1_555
H3 C7 1_555 1_555
C8 C7 1_555 1_555
H4 C8 1_555 1_555
N1 C8 1_555 1_555
C9 N1 1_555 1_555
H5 C9 1_555 1_555
C10 C6 1_555 1_555
H6 C10 1_555 1_555
C11 C3 1_555 1_555
O1 C1 1_555 1_555
Fe4_3 O1 1_555 1_555
Ag1 N1 1_555 1_555
C22_2 C27_2 1_555 1_555
C23_2 C28_2 1_555 1_555
C27_2 H16_2 1_555 1_555
C28_2 H17_2 1_555 1_555
C32_2 C27_2 1_555 1_555
C33_2 C28_2 1_555 1_555
C44_2 C22_2 1_555 1_555
C45_2 C23_2 1_555 1_555
C49_2 C44_2 1_555 1_555
C50_2 C45_2 1_555 1_555
H23_2 C49_2 1_555 1_555
H24_2 C50_2 1_555 1_555
C54_2 C49_2 1_555 1_555
C55_2 C50_2 1_555 1_555
H28_2 C54_2 1_555 1_555
H29_2 C55_2 1_555 1_555
N5 Ag1 1_555 1_555
N6 Ag1 1_555 1_555
C59_2 N5 1_555 1_555
C60_2 N6 1_555 1_555
H33_2 C59_2 1_555 1_555
H34_2 C60_2 1_555 1_555
C64_2 C44_2 1_555 1_555
C65_2 C45_2 1_555 1_555
H38_2 C64_2 1_555 1_555
H39_2 C65_2 1_555 1_555
C69_2 C32_2 1_555 1_555
C70_2 C33_2 1_555 1_555
O5_2 C22_2 1_555 1_555
O6_2 C23_2 1_555 1_555
O9_2 Fe4 1_555 1_555
O12_2 C32_2 1_555 1_555
O16_2 Fe4 1_555 1_555
O17_2 Fe6 1_555 1_555
Fe4 O5_2 1_555 1_555
Fe6 O6_2 1_555 1_555
C9 C10 1_555 1_555
C54_2 N5 1_555 1_555
C55_2 N6 1_555 1_555
C59_2 C64_2 1_555 1_555
C60_2 C65_2 1_555 1_555
O12_2 Fe4 1_555 1_555
H54_2 C85_2 1_555 1_555
C85_2 C90_2 1_555 1_555
O10_2 Fe6_2 1_555 1_555
O13_2 Fe6_2 1_555 1_555
H55_2 C86_2 1_555 1_555
H60_2 C91_2 1_555 1_555
C86_2 C91_2 1_555 1_555
C24_2 C29_2 1_555 1_555
C29_2 H18_2 1_555 1_555
C34_2 C29_2 1_555 1_555
C46_2 C24_2 1_555 1_555
C51_2 C46_2 1_555 1_555
H25_2 C51_2 1_555 1_555
C56_2 C51_2 1_555 1_555
H30_2 C56_2 1_555 1_555
N7_2 C56_2 1_555 1_555
C61_2 N7_2 1_555 1_555
H35_2 C61_2 1_555 1_555
C66_2 C46_2 1_555 1_555
H40_2 C66_2 1_555 1_555
C71_2 C34_2 1_555 1_555
C76_2 C71_2 1_555 1_555
H45_2 C76_2 1_555 1_555
C81_2 C76_2 1_555 1_555
H50_2 C81_2 1_555 1_555
O10_2 C24_2 1_555 1_555
Ag4 N7_2 1_555 1_555
C61_2 C66_2 1_555 1_555
C81_2 N17 1_555 1_555
C24_3 C29_3 1_555 1_555
C29_3 H18_3 1_555 1_555
C34_3 C29_3 1_555 1_555
C46_3 C24_3 1_555 1_555
C51_3 C46_3 1_555 1_555
H25_3 C51_3 1_555 1_555
C56_3 C51_3 1_555 1_555
H30_3 C56_3 1_555 1_555
N7_3 C56_3 1_555 1_555
C61_3 N7_3 1_555 1_555
H35_3 C61_3 1_555 1_555
C66_3 C46_3 1_555 1_555
H40_3 C66_3 1_555 1_555
C71_3 C34_3 1_555 1_555
C76_3 C71_3 1_555 1_555
H45_3 C76_3 1_555 1_555
C81_3 C76_3 1_555 1_555
H50_3 C81_3 1_555 1_555
C86_3 N17_2 1_555 1_555
H55_3 C86_3 1_555 1_555
C91_3 C71_3 1_555 1_555
H60_3 C91_3 1_555 1_555
O9_2 C24_3 1_555 1_555
O16_2 C34_3 1_555 1_555
Ag4 N7_3 1_555 1_555
C61_3 C66_3 1_555 1_555
C81_3 N17_2 1_555 1_555
C86_3 C91_3 1_555 1_555

#END
