
###############################################################################
#
# This file contains modified crystal structure data generated from the
# MOF subset of the Cambridge Structural Database (CSD) v543 
# hosted by the Cambridge Crystallographic Data Centre (CCDC).
#
# This work is licensed under the Creative Commons
# Attribution-NonCommercial-ShareAlike 4.0 International License.
# To view a copy of this license, visit
# http://creativecommons.org/licenses/by-nc-sa/4.0/
# or send a letter to
# Creative Commons, PO Box 1866, Mountain View, CA 94042, USA.
#
# CIF created using the CSD Python API on 29 September 2022
# The structure has been converted into the P1 space group
# The structure has a 3D framework
# The original CSD entry EBIHEE is in the cubic crystal system
# The framework has been calculated to contain at least 10.0% void space
# The void calculation uses a probe of radius 1.32A, grid spacing 0.4
# H atom positions have been added when not included in the experimental data
# Generated hydrogen atom positions removed from atoms on special positions
#
###############################################################################

data_EBIHEE
_chemical_formula_moiety         '(C288 H432 Mn16 N48 Na11 O144 S48)n'
_symmetry_cell_setting           triclinic
_symmetry_space_group_name_H-M   'P 1'
_symmetry_Int_Tables_number      1
_space_group_name_Hall           'P 1'
loop_
_symmetry_equiv_pos_site_id
_symmetry_equiv_pos_as_xyz
1 x,y,z
_cell_length_a                   21.9371(8)
_cell_length_b                   21.9371(8)
_cell_length_c                   21.9371(8)
_cell_angle_alpha                90
_cell_angle_beta                 90
_cell_angle_gamma                90
_cell_volume                     10556.9
loop_
_atom_site_label
_atom_site_type_symbol
_atom_site_fract_x
_atom_site_fract_y
_atom_site_fract_z
Mn2 Mn 0.08065(3) 0.08065(3) 0.08065(3)
Na2 Na 0.0000 0.0000 -0.0000
Na4 Na 0.5000 0.5000 -0.0000
O21 O 0.17198(16) 0.11686(18) 0.0600(2)
O22 O 0.0600(2) 0.17198(16) 0.11686(18)
O23 O 0.11686(18) 0.0600(2) 0.17198(16)
Mn1 Mn 0.08065(3) 0.41935(3) 0.41935(3)
Na1 Na 0.0000 0.5000 0.5000
H2 H 0.0195 0.2409 0.5899
C6 C 0.03184(16) 0.34327(17) 0.52655(17)
O1 O 0.02784(13) 0.39569(11) 0.50278(11)
O2 O 0.0662(2) 0.30256(18) 0.5080(2)
O3 O 0.17198(16) 0.38314(18) 0.4400(2)
Mn5 Mn 0.58065(3) 0.58065(3) 0.91935(3)
Na2_2 Na 0.0000 0.0000 1.0000
Na4_2 Na 0.5000 0.5000 1.0000
C10 C 0.10487(15) 0.45206(16) 0.62975(15)
C11 C 0.39513(15) 0.45206(16) 0.87025(15)
H7 H 0.0879 0.4507 0.5909
H8 H 0.4121 0.4507 0.9091
C15 C 0.08027(15) 0.49198(16) 0.67153(15)
C16 C 0.41973(15) 0.49198(16) 0.82847(15)
C20 C 0.10553(17) 0.49324(17) 0.72967(16)
C21 C 0.39447(17) 0.49324(17) 0.77033(16)
H9 H 0.0195 0.2591 0.9101
H12 H 0.0899 0.5195 0.7591
H13 H 0.4101 0.5195 0.7409
C25 C 0.15450(16) 0.45488(16) 0.74384(16)
C26 C 0.34550(16) 0.45488(16) 0.75616(16)
H17 H 0.1719 0.4549 0.7825
H18 H 0.3281 0.4549 0.7175
C30 C 0.17601(15) 0.41735(15) 0.69875(16)
C31 C 0.32399(15) 0.41735(15) 0.80125(16)
C32 C 0.03184(16) 0.15673(17) 0.97345(17)
C35 C 0.02655(17) 0.53184(16) 0.65673(17)
C36 C 0.47345(17) 0.53184(16) 0.84327(17)
N5 N 0.15226(14) 0.41483(14) 0.64214(14)
N6 N 0.34774(14) 0.41483(14) 0.85786(14)
S5 S 0.23856(4) 0.36552(4) 0.70503(4)
S6 S 0.26144(4) 0.36552(4) 0.79497(4)
O4 O 0.02784(13) 0.10431(11) 0.99722(11)
O7 O 0.00278(11) 0.52784(13) 0.60431(11)
O8 O 0.49722(11) 0.52784(13) 0.89569(11)
O11 O 0.10431(11) 0.50278(11) 0.47216(13)
O14 O 0.0662(2) 0.19744(18) 0.9920(2)
O17 O 0.0080(2) 0.5662(2) 0.69744(18)
O18 O 0.4920(2) 0.5662(2) 0.80256(18)
O19 O 0.0600(2) 0.32802(16) 0.38314(18)
O20 O 0.11686(18) 0.4400(2) 0.32802(16)
Na2_3 Na 0.0000 1.0000 -0.0000
O13 O 0.10431(11) 0.99722(11) 0.02784(13)
Na2_4 Na 0.0000 1.0000 1.0000
Na2_5 Na 1.0000 0.0000 -0.0000
O12 O 0.99722(11) 0.02784(13) 0.10431(11)
Na1_2 Na 1.0000 0.5000 0.5000
C1 C 0.95206(16) 0.37025(15) 0.60487(15)
H1 H 0.9507 0.4091 0.5879
C2 C 0.99198(16) 0.32847(15) 0.58027(15)
C3 C 0.99324(17) 0.27033(16) 0.60553(17)
C4 C 0.95488(16) 0.25616(16) 0.65450(16)
H3 H 0.9549 0.2175 0.6719
C5 C 0.91735(15) 0.30125(16) 0.67601(15)
N1 N 0.91483(14) 0.35786(14) 0.65226(14)
S1 S 0.86552(4) 0.29497(4) 0.73856(4)
Mn3 Mn 0.41935(3) 0.41935(3) 0.08065(3)
Mn4 Mn 0.91935(3) 0.58065(3) 0.58065(3)
Na2_6 Na 1.0000 0.0000 1.0000
C7 C 0.95206(16) 0.12975(15) 0.89513(15)
C8 C 0.89513(15) 0.54794(16) 0.37025(15)
C9 C 0.60487(15) 0.54794(16) 0.12975(15)
H4 H 0.9507 0.0909 0.9121
H5 H 0.9121 0.5493 0.4091
H6 H 0.5879 0.5493 0.0909
C12 C 0.99198(16) 0.17153(15) 0.91973(15)
C13 C 0.91973(15) 0.50802(16) 0.32847(15)
C14 C 0.58027(15) 0.50802(16) 0.17153(15)
C17 C 0.99324(17) 0.22967(16) 0.89447(17)
C18 C 0.89447(17) 0.50676(17) 0.27033(16)
C19 C 0.60553(17) 0.50676(17) 0.22967(16)
H10 H 0.9101 0.4805 0.2409
H11 H 0.5899 0.4805 0.2591
C22 C 0.95488(16) 0.24384(16) 0.84550(16)
C23 C 0.84550(16) 0.54512(16) 0.25616(16)
C24 C 0.65450(16) 0.54512(16) 0.24384(16)
H14 H 0.9549 0.2825 0.8281
H15 H 0.8281 0.5451 0.2175
H16 H 0.6719 0.5451 0.2825
C27 C 0.91735(15) 0.19875(16) 0.82399(15)
C28 C 0.82399(15) 0.58265(15) 0.30125(16)
C29 C 0.67601(15) 0.58265(15) 0.19875(16)
C33 C 0.97345(17) 0.46816(16) 0.34327(17)
C34 C 0.52655(17) 0.46816(16) 0.15673(17)
N2 N 0.91483(14) 0.14214(14) 0.84774(14)
N3 N 0.84774(14) 0.58517(14) 0.35786(14)
N4 N 0.65226(14) 0.58517(14) 0.14214(14)
S2 S 0.86552(4) 0.20503(4) 0.76144(4)
S3 S 0.76144(4) 0.63448(4) 0.29497(4)
S4 S 0.73856(4) 0.63448(4) 0.20503(4)
O5 O 0.99722(11) 0.47216(13) 0.39569(11)
O6 O 0.50278(11) 0.47216(13) 0.10431(11)
O9 O 0.97216(13) 0.60431(11) 0.49722(11)
O10 O 0.89569(11) 0.49722(11) 0.52784(13)
O15 O 0.9920(2) 0.4338(2) 0.30256(18)
O16 O 0.5080(2) 0.4338(2) 0.19744(18)
Na2_7 Na 1.0000 1.0000 -0.0000
Na2_8 Na 1.0000 1.0000 1.0000
O13_2 O 0.39569(11) 0.50278(11) 0.02784(13)
O21_2 O 0.32802(16) 0.38314(18) 0.0600(2)
O22_2 O 0.4400(2) 0.32802(16) 0.11686(18)
O23_2 O 0.38314(18) 0.4400(2) 0.17198(16)
Mn1_2 Mn 0.41935(3) 0.08065(3) 0.41935(3)
Na1_3 Na 0.5000 0.0000 0.5000
C1_2 C 0.54794(16) 0.12975(15) 0.60487(15)
H1_2 H 0.5493 0.0909 0.5879
C2_2 C 0.50802(16) 0.17153(15) 0.58027(15)
C3_2 C 0.50676(17) 0.22967(16) 0.60553(17)
H2_2 H 0.4805 0.2591 0.5899
C4_2 C 0.54512(16) 0.24384(16) 0.65450(16)
H3_2 H 0.5451 0.2825 0.6719
C5_2 C 0.58265(15) 0.19875(16) 0.67601(15)
C6_2 C 0.46816(16) 0.15673(17) 0.52655(17)
N1_2 N 0.58517(14) 0.14214(14) 0.65226(14)
S1_2 S 0.63448(4) 0.20503(4) 0.73856(4)
O1_2 O 0.47216(13) 0.10431(11) 0.50278(11)
O2_2 O 0.4338(2) 0.19744(18) 0.5080(2)
O3_2 O 0.32802(16) 0.11686(18) 0.4400(2)
C7_2 C 0.54794(16) 0.37025(15) 0.89513(15)
C10_2 C 0.39513(15) 0.04794(16) 0.62975(15)
C11_2 C 0.10487(15) 0.04794(16) 0.87025(15)
H4_2 H 0.5493 0.4091 0.9121
H7_2 H 0.4121 0.0493 0.5909
H8_2 H 0.0879 0.0493 0.9091
C12_2 C 0.50802(16) 0.32847(15) 0.91973(15)
C15_2 C 0.41973(15) 0.00802(16) 0.67153(15)
C16_2 C 0.08027(15) 0.00802(16) 0.82847(15)
C17_2 C 0.50676(17) 0.27033(16) 0.89447(17)
C20_2 C 0.39447(17) 0.00676(17) 0.72967(16)
C21_2 C 0.10553(17) 0.00676(17) 0.77033(16)
H9_2 H 0.4805 0.2409 0.9101
H10_2 H 0.5899 0.0195 0.2409
H11_2 H 0.9101 0.0195 0.2591
C22_2 C 0.54512(16) 0.25616(16) 0.84550(16)
C25_2 C 0.34550(16) 0.04512(16) 0.74384(16)
C26_2 C 0.15450(16) 0.04512(16) 0.75616(16)
H14_2 H 0.5451 0.2175 0.8281
H17_2 H 0.3281 0.0451 0.7825
H18_2 H 0.1719 0.0451 0.7175
C27_2 C 0.58265(15) 0.30125(16) 0.82399(15)
C30_2 C 0.32399(15) 0.08265(15) 0.69875(16)
C31_2 C 0.17601(15) 0.08265(15) 0.80125(16)
C32_2 C 0.46816(16) 0.34327(17) 0.97345(17)
C33_2 C 0.52655(17) 0.03184(16) 0.34327(17)
C34_2 C 0.97345(17) 0.03184(16) 0.15673(17)
N2_2 N 0.58517(14) 0.35786(14) 0.84774(14)
N5_2 N 0.34774(14) 0.08517(14) 0.64214(14)
N6_2 N 0.15226(14) 0.08517(14) 0.85786(14)
S2_2 S 0.63448(4) 0.29497(4) 0.76144(4)
S5_2 S 0.26144(4) 0.13448(4) 0.70503(4)
S6_2 S 0.23856(4) 0.13448(4) 0.79497(4)
O4_2 O 0.47216(13) 0.39569(11) 0.99722(11)
O5_2 O 0.50278(11) 0.02784(13) 0.39569(11)
O10_2 O 0.60431(11) 0.00278(11) 0.52784(13)
O14_2 O 0.4338(2) 0.30256(18) 0.9920(2)
O15_2 O 0.5080(2) 0.0662(2) 0.30256(18)
O16_2 O 0.9920(2) 0.0662(2) 0.19744(18)
O19_2 O 0.4400(2) 0.17198(16) 0.38314(18)
O20_2 O 0.38314(18) 0.0600(2) 0.32802(16)
Na1_4 Na 0.5000 1.0000 0.5000
Mn4_2 Mn 0.58065(3) 0.91935(3) 0.58065(3)
C8_2 C 0.60487(15) 0.95206(16) 0.37025(15)
C9_2 C 0.89513(15) 0.95206(16) 0.12975(15)
H5_2 H 0.5879 0.9507 0.4091
H6_2 H 0.9121 0.9507 0.0909
C13_2 C 0.58027(15) 0.99198(16) 0.32847(15)
C14_2 C 0.91973(15) 0.99198(16) 0.17153(15)
C18_2 C 0.60553(17) 0.99324(17) 0.27033(16)
C19_2 C 0.89447(17) 0.99324(17) 0.22967(16)
H12_2 H 0.4101 0.9805 0.7591
H13_2 H 0.0899 0.9805 0.7409
C23_2 C 0.65450(16) 0.95488(16) 0.25616(16)
C24_2 C 0.84550(16) 0.95488(16) 0.24384(16)
H15_2 H 0.6719 0.9549 0.2175
H16_2 H 0.8281 0.9549 0.2825
C28_2 C 0.67601(15) 0.91735(15) 0.30125(16)
C29_2 C 0.82399(15) 0.91735(15) 0.19875(16)
C35_2 C 0.47345(17) 0.96816(16) 0.65673(17)
C36_2 C 0.02655(17) 0.96816(16) 0.84327(17)
N3_2 N 0.65226(14) 0.91483(14) 0.35786(14)
N4_2 N 0.84774(14) 0.91483(14) 0.14214(14)
S3_2 S 0.73856(4) 0.86552(4) 0.29497(4)
S4_2 S 0.76144(4) 0.86552(4) 0.20503(4)
O7_2 O 0.49722(11) 0.97216(13) 0.60431(11)
O8_2 O 0.00278(11) 0.97216(13) 0.89569(11)
O9_2 O 0.52784(13) 0.89569(11) 0.49722(11)
O11_2 O 0.39569(11) 0.99722(11) 0.47216(13)
O17_2 O 0.4920(2) 0.9338(2) 0.69744(18)
O18_2 O 0.0080(2) 0.9338(2) 0.80256(18)
Mn5_2 Mn 0.91935(3) 0.91935(3) 0.91935(3)
O9_3 O 0.52784(13) 0.60431(11) 0.00278(11)
O10_3 O 0.60431(11) 0.49722(11) 0.97216(13)
O10_4 O 0.89569(11) 0.00278(11) 0.97216(13)
O9_4 O 0.97216(13) 0.89569(11) 0.00278(11)
C10_3 C 0.62975(15) 0.10487(15) 0.45206(16)
C11_3 C 0.87025(15) 0.39513(15) 0.45206(16)
H7_3 H 0.5909 0.0879 0.4507
H8_3 H 0.9091 0.4121 0.4507
C15_3 C 0.67153(15) 0.08027(15) 0.49198(16)
C16_3 C 0.82847(15) 0.41973(15) 0.49198(16)
C20_3 C 0.72967(16) 0.10553(17) 0.49324(17)
C21_3 C 0.77033(16) 0.39447(17) 0.49324(17)
H12_3 H 0.7591 0.0899 0.5195
H13_3 H 0.7409 0.4101 0.5195
C25_3 C 0.74384(16) 0.15450(16) 0.45488(16)
C26_3 C 0.75616(16) 0.34550(16) 0.45488(16)
H17_3 H 0.7825 0.1719 0.4549
H18_3 H 0.7175 0.3281 0.4549
C30_3 C 0.69875(16) 0.17601(15) 0.41735(15)
C31_3 C 0.80125(16) 0.32399(15) 0.41735(15)
C35_3 C 0.65673(17) 0.02655(17) 0.53184(16)
C36_3 C 0.84327(17) 0.47345(17) 0.53184(16)
N5_3 N 0.64214(14) 0.15226(14) 0.41483(14)
N6_3 N 0.85786(14) 0.34774(14) 0.41483(14)
S5_3 S 0.70503(4) 0.23856(4) 0.36552(4)
S6_3 S 0.79497(4) 0.26144(4) 0.36552(4)
O17_3 O 0.69744(18) 0.0080(2) 0.5662(2)
O18_3 O 0.80256(18) 0.4920(2) 0.5662(2)
C8_3 C 0.37025(15) 0.89513(15) 0.54794(16)
C9_3 C 0.12975(15) 0.60487(15) 0.54794(16)
H5_3 H 0.4091 0.9121 0.5493
H6_3 H 0.0909 0.5879 0.5493
C13_3 C 0.32847(15) 0.91973(15) 0.50802(16)
C14_3 C 0.17153(15) 0.58027(15) 0.50802(16)
C18_3 C 0.27033(16) 0.89447(17) 0.50676(17)
C19_3 C 0.22967(16) 0.60553(17) 0.50676(17)
H10_3 H 0.2409 0.9101 0.4805
H11_3 H 0.2591 0.5899 0.4805
C23_3 C 0.25616(16) 0.84550(16) 0.54512(16)
C24_3 C 0.24384(16) 0.65450(16) 0.54512(16)
H15_3 H 0.2175 0.8281 0.5451
H16_3 H 0.2825 0.6719 0.5451
C28_3 C 0.30125(16) 0.82399(15) 0.58265(15)
C29_3 C 0.19875(16) 0.67601(15) 0.58265(15)
C33_3 C 0.34327(17) 0.97345(17) 0.46816(16)
C34_3 C 0.15673(17) 0.52655(17) 0.46816(16)
N3_3 N 0.35786(14) 0.84774(14) 0.58517(14)
N4_3 N 0.14214(14) 0.65226(14) 0.58517(14)
S3_3 S 0.29497(4) 0.76144(4) 0.63448(4)
S4_3 S 0.20503(4) 0.73856(4) 0.63448(4)
O15_3 O 0.30256(18) 0.9920(2) 0.4338(2)
O16_3 O 0.19744(18) 0.5080(2) 0.4338(2)
C10_4 C 0.62975(15) 0.39513(15) 0.04794(16)
C11_4 C 0.87025(15) 0.10487(15) 0.04794(16)
H7_4 H 0.5909 0.4121 0.0493
H8_4 H 0.9091 0.0879 0.0493
C15_4 C 0.67153(15) 0.41973(15) 0.00802(16)
C16_4 C 0.82847(15) 0.08027(15) 0.00802(16)
C20_4 C 0.72967(16) 0.39447(17) 0.00676(17)
C21_4 C 0.77033(16) 0.10553(17) 0.00676(17)
H10_4 H 0.2409 0.5899 0.0195
H11_4 H 0.2591 0.9101 0.0195
C25_4 C 0.74384(16) 0.34550(16) 0.04512(16)
C26_4 C 0.75616(16) 0.15450(16) 0.04512(16)
H17_4 H 0.7825 0.3281 0.0451
H18_4 H 0.7175 0.1719 0.0451
C30_4 C 0.69875(16) 0.32399(15) 0.08265(15)
C31_4 C 0.80125(16) 0.17601(15) 0.08265(15)
C33_4 C 0.34327(17) 0.52655(17) 0.03184(16)
C34_4 C 0.15673(17) 0.97345(17) 0.03184(16)
N5_4 N 0.64214(14) 0.34774(14) 0.08517(14)
N6_4 N 0.85786(14) 0.15226(14) 0.08517(14)
S5_4 S 0.70503(4) 0.26144(4) 0.13448(4)
S6_4 S 0.79497(4) 0.23856(4) 0.13448(4)
O15_4 O 0.30256(18) 0.5080(2) 0.0662(2)
O16_4 O 0.19744(18) 0.9920(2) 0.0662(2)
C8_4 C 0.37025(15) 0.60487(15) 0.95206(16)
C9_4 C 0.12975(15) 0.89513(15) 0.95206(16)
H5_4 H 0.4091 0.5879 0.9507
H6_4 H 0.0909 0.9121 0.9507
C13_4 C 0.32847(15) 0.58027(15) 0.99198(16)
C14_4 C 0.17153(15) 0.91973(15) 0.99198(16)
C18_4 C 0.27033(16) 0.60553(17) 0.99324(17)
C19_4 C 0.22967(16) 0.89447(17) 0.99324(17)
H12_4 H 0.7591 0.4101 0.9805
H13_4 H 0.7409 0.0899 0.9805
C23_4 C 0.25616(16) 0.65450(16) 0.95488(16)
C24_4 C 0.24384(16) 0.84550(16) 0.95488(16)
H15_4 H 0.2175 0.6719 0.9549
H16_4 H 0.2825 0.8281 0.9549
C28_4 C 0.30125(16) 0.67601(15) 0.91735(15)
C29_4 C 0.19875(16) 0.82399(15) 0.91735(15)
C35_4 C 0.65673(17) 0.47345(17) 0.96816(16)
C36_4 C 0.84327(17) 0.02655(17) 0.96816(16)
N3_4 N 0.35786(14) 0.65226(14) 0.91483(14)
N4_4 N 0.14214(14) 0.84774(14) 0.91483(14)
S3_4 S 0.29497(4) 0.73856(4) 0.86552(4)
S4_4 S 0.20503(4) 0.76144(4) 0.86552(4)
O17_4 O 0.69744(18) 0.4920(2) 0.9338(2)
O18_4 O 0.80256(18) 0.0080(2) 0.9338(2)
C10_5 C 0.45206(16) 0.62975(15) 0.10487(15)
C11_5 C 0.45206(16) 0.87025(15) 0.39513(15)
H7_5 H 0.4507 0.5909 0.0879
H8_5 H 0.4507 0.9091 0.4121
C15_5 C 0.49198(16) 0.67153(15) 0.08027(15)
C16_5 C 0.49198(16) 0.82847(15) 0.41973(15)
C20_5 C 0.49324(17) 0.72967(16) 0.10553(17)
C21_5 C 0.49324(17) 0.77033(16) 0.39447(17)
H12_5 H 0.5195 0.7591 0.0899
H13_5 H 0.5195 0.7409 0.4101
C25_5 C 0.45488(16) 0.74384(16) 0.15450(16)
C26_5 C 0.45488(16) 0.75616(16) 0.34550(16)
H17_5 H 0.4549 0.7825 0.1719
H18_5 H 0.4549 0.7175 0.3281
C30_5 C 0.41735(15) 0.69875(16) 0.17601(15)
C31_5 C 0.41735(15) 0.80125(16) 0.32399(15)
C35_5 C 0.53184(16) 0.65673(17) 0.02655(17)
C36_5 C 0.53184(16) 0.84327(17) 0.47345(17)
N5_5 N 0.41483(14) 0.64214(14) 0.15226(14)
N6_5 N 0.41483(14) 0.85786(14) 0.34774(14)
S5_5 S 0.36552(4) 0.70503(4) 0.23856(4)
S6_5 S 0.36552(4) 0.79497(4) 0.26144(4)
O17_5 O 0.5662(2) 0.69744(18) 0.0080(2)
O18_5 O 0.5662(2) 0.80256(18) 0.4920(2)
C10_6 C 0.04794(16) 0.62975(15) 0.39513(15)
C11_6 C 0.04794(16) 0.87025(15) 0.10487(15)
H7_6 H 0.0493 0.5909 0.4121
H8_6 H 0.0493 0.9091 0.0879
C15_6 C 0.00802(16) 0.67153(15) 0.41973(15)
C16_6 C 0.00802(16) 0.82847(15) 0.08027(15)
C20_6 C 0.00676(17) 0.72967(16) 0.39447(17)
C21_6 C 0.00676(17) 0.77033(16) 0.10553(17)
C25_6 C 0.04512(16) 0.74384(16) 0.34550(16)
C26_6 C 0.04512(16) 0.75616(16) 0.15450(16)
H17_6 H 0.0451 0.7825 0.3281
H18_6 H 0.0451 0.7175 0.1719
C30_6 C 0.08265(15) 0.69875(16) 0.32399(15)
C31_6 C 0.08265(15) 0.80125(16) 0.17601(15)
N5_6 N 0.08517(14) 0.64214(14) 0.34774(14)
N6_6 N 0.08517(14) 0.85786(14) 0.15226(14)
S5_6 S 0.13448(4) 0.70503(4) 0.26144(4)
S6_6 S 0.13448(4) 0.79497(4) 0.23856(4)
H12_6 H 0.9805 0.7591 0.4101
H13_6 H 0.9805 0.7409 0.0899
C35_6 C 0.96816(16) 0.65673(17) 0.47345(17)
C36_6 C 0.96816(16) 0.84327(17) 0.02655(17)
O17_6 O 0.9338(2) 0.69744(18) 0.4920(2)
O18_6 O 0.9338(2) 0.80256(18) 0.0080(2)
O3_3 O 0.82802(16) 0.61686(18) 0.5600(2)
O19_3 O 0.9400(2) 0.67198(16) 0.61686(18)
O20_3 O 0.88314(18) 0.5600(2) 0.67198(16)
O21_3 O 0.82802(16) 0.88314(18) 0.9400(2)
O22_3 O 0.9400(2) 0.82802(16) 0.88314(18)
O23_3 O 0.88314(18) 0.9400(2) 0.82802(16)
O3_4 O 0.67198(16) 0.88314(18) 0.5600(2)
O19_4 O 0.5600(2) 0.82802(16) 0.61686(18)
O20_4 O 0.61686(18) 0.9400(2) 0.67198(16)
O21_4 O 0.67198(16) 0.61686(18) 0.9400(2)
O22_4 O 0.5600(2) 0.67198(16) 0.88314(18)
O23_4 O 0.61686(18) 0.5600(2) 0.82802(16)
Mn1_3 Mn 0.41935(3) 0.08065(3) 0.08065(3)
Na1_5 Na 0.5000 0.0000 0.0000
O3_5 O 0.38314(18) 0.17198(16) 0.0600(2)
O11_3 O 0.50278(11) 0.10431(11) 0.02784(13)
O19_5 O 0.32802(16) 0.0600(2) 0.11686(18)
O20_5 O 0.4400(2) 0.11686(18) 0.17198(16)
Na1_6 Na 0.5000 0.0000 1.0000
H2_3 H 0.2409 0.0195 0.9101
C6_3 C 0.34327(17) 0.03184(16) 0.97345(17)
O1_3 O 0.39569(11) 0.02784(13) 0.99722(11)
O2_3 O 0.30256(18) 0.0662(2) 0.9920(2)
Mn2_2 Mn 0.08065(3) 0.08065(3) 0.41935(3)
Mn5_3 Mn 0.58065(3) 0.58065(3) 0.58065(3)
Na2_9 Na 0.0000 0.0000 0.5000
Na4_3 Na 0.5000 0.5000 0.5000
C10_7 C 0.45206(16) 0.10487(15) 0.87025(15)
C11_7 C 0.45206(16) 0.39513(15) 0.62975(15)
H7_7 H 0.4507 0.0879 0.9091
H8_7 H 0.4507 0.4121 0.5909
C15_7 C 0.49198(16) 0.08027(15) 0.82847(15)
C16_7 C 0.49198(16) 0.41973(15) 0.67153(15)
C20_7 C 0.49324(17) 0.10553(17) 0.77033(16)
C21_7 C 0.49324(17) 0.39447(17) 0.72967(16)
H9_3 H 0.2591 0.0195 0.5899
H12_7 H 0.5195 0.0899 0.7409
H13_7 H 0.5195 0.4101 0.7591
C25_7 C 0.45488(16) 0.15450(16) 0.75616(16)
C26_7 C 0.45488(16) 0.34550(16) 0.74384(16)
H17_7 H 0.4549 0.1719 0.7175
H18_7 H 0.4549 0.3281 0.7825
C30_7 C 0.41735(15) 0.17601(15) 0.80125(16)
C31_7 C 0.41735(15) 0.32399(15) 0.69875(16)
C32_3 C 0.15673(17) 0.03184(16) 0.52655(17)
C35_7 C 0.53184(16) 0.02655(17) 0.84327(17)
C36_7 C 0.53184(16) 0.47345(17) 0.65673(17)
N5_7 N 0.41483(14) 0.15226(14) 0.85786(14)
N6_7 N 0.41483(14) 0.34774(14) 0.64214(14)
S5_7 S 0.36552(4) 0.23856(4) 0.79497(4)
S6_7 S 0.36552(4) 0.26144(4) 0.70503(4)
O4_3 O 0.10431(11) 0.02784(13) 0.50278(11)
O7_3 O 0.52784(13) 0.00278(11) 0.89569(11)
O8_3 O 0.52784(13) 0.49722(11) 0.60431(11)
O14_3 O 0.19744(18) 0.0662(2) 0.5080(2)
O17_7 O 0.5662(2) 0.0080(2) 0.80256(18)
O18_7 O 0.5662(2) 0.4920(2) 0.69744(18)
O21_5 O 0.11686(18) 0.17198(16) 0.4400(2)
O22_5 O 0.17198(16) 0.0600(2) 0.38314(18)
O23_5 O 0.0600(2) 0.11686(18) 0.32802(16)
Na1_7 Na 0.5000 1.0000 0.0000
Mn3_2 Mn 0.41935(3) 0.41935(3) 0.41935(3)
C8_5 C 0.54794(16) 0.89513(15) 0.12975(15)
C9_5 C 0.54794(16) 0.60487(15) 0.37025(15)
H5_5 H 0.5493 0.9121 0.0909
H6_5 H 0.5493 0.5879 0.4091
C13_5 C 0.50802(16) 0.91973(15) 0.17153(15)
C14_5 C 0.50802(16) 0.58027(15) 0.32847(15)
C18_5 C 0.50676(17) 0.89447(17) 0.22967(16)
C19_5 C 0.50676(17) 0.60553(17) 0.27033(16)
H10_5 H 0.4805 0.9101 0.2591
H11_5 H 0.4805 0.5899 0.2409
C23_5 C 0.54512(16) 0.84550(16) 0.24384(16)
C24_5 C 0.54512(16) 0.65450(16) 0.25616(16)
H15_5 H 0.5451 0.8281 0.2825
H16_5 H 0.5451 0.6719 0.2175
C28_5 C 0.58265(15) 0.82399(15) 0.19875(16)
C29_5 C 0.58265(15) 0.67601(15) 0.30125(16)
C33_5 C 0.46816(16) 0.97345(17) 0.15673(17)
C34_5 C 0.46816(16) 0.52655(17) 0.34327(17)
N3_5 N 0.58517(14) 0.84774(14) 0.14214(14)
N4_5 N 0.58517(14) 0.65226(14) 0.35786(14)
S3_5 S 0.63448(4) 0.76144(4) 0.20503(4)
S4_5 S 0.63448(4) 0.73856(4) 0.29497(4)
O5_3 O 0.47216(13) 0.99722(11) 0.10431(11)
O6_2 O 0.47216(13) 0.50278(11) 0.39569(11)
O9_5 O 0.60431(11) 0.97216(13) 0.00278(11)
O15_5 O 0.4338(2) 0.9920(2) 0.19744(18)
O16_5 O 0.4338(2) 0.5080(2) 0.30256(18)
Na1_8 Na 0.5000 1.0000 1.0000
C1_3 C 0.37025(15) 0.95206(16) 0.89513(15)
H1_3 H 0.4091 0.9507 0.9121
C2_3 C 0.32847(15) 0.99198(16) 0.91973(15)
C3_3 C 0.27033(16) 0.99324(17) 0.89447(17)
C4_3 C 0.25616(16) 0.95488(16) 0.84550(16)
H3_3 H 0.2175 0.9549 0.8281
C5_3 C 0.30125(16) 0.91735(15) 0.82399(15)
N1_3 N 0.35786(14) 0.91483(14) 0.84774(14)
S1_3 S 0.29497(4) 0.86552(4) 0.76144(4)
Mn4_3 Mn 0.58065(3) 0.91935(3) 0.91935(3)
Na2_10 Na 0.0000 1.0000 0.5000
C7_3 C 0.12975(15) 0.95206(16) 0.60487(15)
H4_3 H 0.0909 0.9507 0.5879
C12_3 C 0.17153(15) 0.99198(16) 0.58027(15)
C17_3 C 0.22967(16) 0.99324(17) 0.60553(17)
C22_3 C 0.24384(16) 0.95488(16) 0.65450(16)
H14_3 H 0.2825 0.9549 0.6719
C27_3 C 0.19875(16) 0.91735(15) 0.67601(15)
N2_3 N 0.14214(14) 0.91483(14) 0.65226(14)
S2_3 S 0.20503(4) 0.86552(4) 0.73856(4)
O10_5 O 0.49722(11) 0.89569(11) 0.97216(13)
O12_2 O 0.02784(13) 0.99722(11) 0.39569(11)
Na2_11 Na 1.0000 0.0000 0.5000
O13_3 O 0.99722(11) 0.10431(11) 0.47216(13)
Na2_12 Na 1.0000 1.0000 0.5000
Mn1_4 Mn 0.08065(3) 0.41935(3) 0.08065(3)
Na1_9 Na 0.0000 0.5000 0.0000
O3_6 O 0.11686(18) 0.32802(16) 0.0600(2)
H10_6 H 0.0195 0.5899 0.2591
H11_6 H 0.0195 0.9101 0.2409
C33_6 C 0.03184(16) 0.52655(17) 0.15673(17)
C34_6 C 0.03184(16) 0.97345(17) 0.34327(17)
O5_4 O 0.02784(13) 0.50278(11) 0.10431(11)
O15_6 O 0.0662(2) 0.5080(2) 0.19744(18)
O16_6 O 0.0662(2) 0.9920(2) 0.30256(18)
O19_6 O 0.17198(16) 0.4400(2) 0.11686(18)
O20_6 O 0.0600(2) 0.38314(18) 0.17198(16)
Na1_10 Na 0.0000 0.5000 1.0000
C1_4 C 0.12975(15) 0.54794(16) 0.89513(15)
H1_4 H 0.0909 0.5493 0.9121
C2_4 C 0.17153(15) 0.50802(16) 0.91973(15)
C3_4 C 0.22967(16) 0.50676(17) 0.89447(17)
H2_4 H 0.2591 0.4805 0.9101
C4_4 C 0.24384(16) 0.54512(16) 0.84550(16)
H3_4 H 0.2825 0.5451 0.8281
C5_4 C 0.19875(16) 0.58265(15) 0.82399(15)
C6_4 C 0.15673(17) 0.46816(16) 0.97345(17)
N1_4 N 0.14214(14) 0.58517(14) 0.84774(14)
S1_4 S 0.20503(4) 0.63448(4) 0.76144(4)
O1_4 O 0.10431(11) 0.47216(13) 0.99722(11)
O2_4 O 0.19744(18) 0.4338(2) 0.9920(2)
C7_4 C 0.37025(15) 0.54794(16) 0.60487(15)
C10_8 C 0.04794(16) 0.39513(15) 0.87025(15)
C11_8 C 0.04794(16) 0.10487(15) 0.62975(15)
H4_4 H 0.4091 0.5493 0.5879
H7_8 H 0.0493 0.4121 0.9091
H8_8 H 0.0493 0.0879 0.5909
C12_4 C 0.32847(15) 0.50802(16) 0.58027(15)
C15_8 C 0.00802(16) 0.41973(15) 0.82847(15)
C16_8 C 0.00802(16) 0.08027(15) 0.67153(15)
C17_4 C 0.27033(16) 0.50676(17) 0.60553(17)
C20_8 C 0.00676(17) 0.39447(17) 0.77033(16)
C21_8 C 0.00676(17) 0.10553(17) 0.72967(16)
H9_4 H 0.2409 0.4805 0.5899
C22_4 C 0.25616(16) 0.54512(16) 0.65450(16)
C25_8 C 0.04512(16) 0.34550(16) 0.75616(16)
C26_8 C 0.04512(16) 0.15450(16) 0.74384(16)
H14_4 H 0.2175 0.5451 0.6719
H17_8 H 0.0451 0.3281 0.7175
H18_8 H 0.0451 0.1719 0.7825
C27_4 C 0.30125(16) 0.58265(15) 0.67601(15)
C30_8 C 0.08265(15) 0.32399(15) 0.80125(16)
C31_8 C 0.08265(15) 0.17601(15) 0.69875(16)
C32_4 C 0.34327(17) 0.46816(16) 0.52655(17)
N2_4 N 0.35786(14) 0.58517(14) 0.65226(14)
N5_8 N 0.08517(14) 0.34774(14) 0.85786(14)
N6_8 N 0.08517(14) 0.15226(14) 0.64214(14)
S2_4 S 0.29497(4) 0.63448(4) 0.73856(4)
S5_8 S 0.13448(4) 0.26144(4) 0.79497(4)
S6_8 S 0.13448(4) 0.23856(4) 0.70503(4)
O4_4 O 0.39569(11) 0.47216(13) 0.50278(11)
O10_6 O 0.00278(11) 0.60431(11) 0.97216(13)
O13_4 O 0.50278(11) 0.39569(11) 0.47216(13)
O14_4 O 0.30256(18) 0.4338(2) 0.5080(2)
O21_6 O 0.38314(18) 0.32802(16) 0.4400(2)
O22_6 O 0.32802(16) 0.4400(2) 0.38314(18)
O23_6 O 0.4400(2) 0.38314(18) 0.32802(16)
Na1_11 Na 1.0000 0.5000 0.0000
C8_6 C 0.95206(16) 0.60487(15) 0.12975(15)
C9_6 C 0.95206(16) 0.89513(15) 0.37025(15)
H5_6 H 0.9507 0.5879 0.0909
H6_6 H 0.9507 0.9121 0.4091
C13_6 C 0.99198(16) 0.58027(15) 0.17153(15)
C14_6 C 0.99198(16) 0.91973(15) 0.32847(15)
C18_6 C 0.99324(17) 0.60553(17) 0.22967(16)
C19_6 C 0.99324(17) 0.89447(17) 0.27033(16)
C23_6 C 0.95488(16) 0.65450(16) 0.24384(16)
C24_6 C 0.95488(16) 0.84550(16) 0.25616(16)
H15_6 H 0.9549 0.6719 0.2825
H16_6 H 0.9549 0.8281 0.2175
C28_6 C 0.91735(15) 0.67601(15) 0.19875(16)
C29_6 C 0.91735(15) 0.82399(15) 0.30125(16)
N3_6 N 0.91483(14) 0.65226(14) 0.14214(14)
N4_6 N 0.91483(14) 0.84774(14) 0.35786(14)
S3_6 S 0.86552(4) 0.73856(4) 0.20503(4)
S4_6 S 0.86552(4) 0.76144(4) 0.29497(4)
O9_6 O 0.89569(11) 0.52784(13) 0.00278(11)
O11_4 O 0.99722(11) 0.39569(11) 0.02784(13)
Na1_12 Na 1.0000 0.5000 1.0000
Mn4_4 Mn 0.91935(3) 0.58065(3) 0.91935(3)
H12_8 H 0.9805 0.4101 0.7409
H13_8 H 0.9805 0.0899 0.7591
C35_8 C 0.96816(16) 0.47345(17) 0.84327(17)
C36_8 C 0.96816(16) 0.02655(17) 0.65673(17)
O7_4 O 0.97216(13) 0.49722(11) 0.89569(11)
O8_4 O 0.97216(13) 0.00278(11) 0.60431(11)
O17_8 O 0.9338(2) 0.4920(2) 0.80256(18)
O18_8 O 0.9338(2) 0.0080(2) 0.69744(18)
Mn5_4 Mn 0.91935(3) 0.91935(3) 0.58065(3)
O9_7 O 0.60431(11) 0.52784(13) 0.49722(11)
O10_7 O 0.49722(11) 0.60431(11) 0.52784(13)
O10_8 O 0.00278(11) 0.89569(11) 0.52784(13)
O9_8 O 0.89569(11) 0.97216(13) 0.49722(11)
C10_9 C 0.10487(15) 0.62975(15) 0.04794(16)
C11_9 C 0.39513(15) 0.87025(15) 0.04794(16)
H7_9 H 0.0879 0.5909 0.0493
H8_9 H 0.4121 0.9091 0.0493
C15_9 C 0.08027(15) 0.67153(15) 0.00802(16)
C16_9 C 0.41973(15) 0.82847(15) 0.00802(16)
C20_9 C 0.10553(17) 0.72967(16) 0.00676(17)
C21_9 C 0.39447(17) 0.77033(16) 0.00676(17)
C25_9 C 0.15450(16) 0.74384(16) 0.04512(16)
C26_9 C 0.34550(16) 0.75616(16) 0.04512(16)
H17_9 H 0.1719 0.7825 0.0451
H18_9 H 0.3281 0.7175 0.0451
C30_9 C 0.17601(15) 0.69875(16) 0.08265(15)
C31_9 C 0.32399(15) 0.80125(16) 0.08265(15)
N5_9 N 0.15226(14) 0.64214(14) 0.08517(14)
N6_9 N 0.34774(14) 0.85786(14) 0.08517(14)
S5_9 S 0.23856(4) 0.70503(4) 0.13448(4)
S6_9 S 0.26144(4) 0.79497(4) 0.13448(4)
H12_9 H 0.0899 0.7591 0.9805
H13_9 H 0.4101 0.7409 0.9805
C35_9 C 0.02655(17) 0.65673(17) 0.96816(16)
C36_9 C 0.47345(17) 0.84327(17) 0.96816(16)
O17_9 O 0.0080(2) 0.69744(18) 0.9338(2)
O18_9 O 0.4920(2) 0.80256(18) 0.9338(2)
H10_7 H 0.9101 0.2409 0.0195
H11_7 H 0.5899 0.2591 0.0195
C33_7 C 0.97345(17) 0.34327(17) 0.03184(16)
C34_7 C 0.52655(17) 0.15673(17) 0.03184(16)
O15_7 O 0.9920(2) 0.30256(18) 0.0662(2)
O16_7 O 0.5080(2) 0.19744(18) 0.0662(2)
C8_7 C 0.89513(15) 0.37025(15) 0.95206(16)
C9_7 C 0.60487(15) 0.12975(15) 0.95206(16)
H5_7 H 0.9121 0.4091 0.9507
H6_7 H 0.5879 0.0909 0.9507
C13_7 C 0.91973(15) 0.32847(15) 0.99198(16)
C14_7 C 0.58027(15) 0.17153(15) 0.99198(16)
C18_7 C 0.89447(17) 0.27033(16) 0.99324(17)
C19_7 C 0.60553(17) 0.22967(16) 0.99324(17)
C23_7 C 0.84550(16) 0.25616(16) 0.95488(16)
C24_7 C 0.65450(16) 0.24384(16) 0.95488(16)
H15_7 H 0.8281 0.2175 0.9549
H16_7 H 0.6719 0.2825 0.9549
C28_7 C 0.82399(15) 0.30125(16) 0.91735(15)
C29_7 C 0.67601(15) 0.19875(16) 0.91735(15)
N3_7 N 0.84774(14) 0.35786(14) 0.91483(14)
N4_7 N 0.65226(14) 0.14214(14) 0.91483(14)
S3_7 S 0.76144(4) 0.29497(4) 0.86552(4)
S4_7 S 0.73856(4) 0.20503(4) 0.86552(4)
C8_8 C 0.60487(15) 0.37025(15) 0.54794(16)
C9_8 C 0.89513(15) 0.12975(15) 0.54794(16)
C10_10 C 0.39513(15) 0.62975(15) 0.45206(16)
C11_10 C 0.10487(15) 0.87025(15) 0.45206(16)
H5_8 H 0.5879 0.4091 0.5493
H6_8 H 0.9121 0.0909 0.5493
H7_10 H 0.4121 0.5909 0.4507
H8_10 H 0.0879 0.9091 0.4507
C13_8 C 0.58027(15) 0.32847(15) 0.50802(16)
C14_8 C 0.91973(15) 0.17153(15) 0.50802(16)
C15_10 C 0.41973(15) 0.67153(15) 0.49198(16)
C16_10 C 0.08027(15) 0.82847(15) 0.49198(16)
C18_8 C 0.60553(17) 0.27033(16) 0.50676(17)
C19_8 C 0.89447(17) 0.22967(16) 0.50676(17)
C20_10 C 0.39447(17) 0.72967(16) 0.49324(17)
C21_10 C 0.10553(17) 0.77033(16) 0.49324(17)
H10_8 H 0.5899 0.2409 0.4805
H11_8 H 0.9101 0.2591 0.4805
H12_10 H 0.4101 0.7591 0.5195
H13_10 H 0.0899 0.7409 0.5195
C23_8 C 0.65450(16) 0.25616(16) 0.54512(16)
C24_8 C 0.84550(16) 0.24384(16) 0.54512(16)
C25_10 C 0.34550(16) 0.74384(16) 0.45488(16)
C26_10 C 0.15450(16) 0.75616(16) 0.45488(16)
H15_8 H 0.6719 0.2175 0.5451
H16_8 H 0.8281 0.2825 0.5451
H17_10 H 0.3281 0.7825 0.4549
H18_10 H 0.1719 0.7175 0.4549
C28_8 C 0.67601(15) 0.30125(16) 0.58265(15)
C29_8 C 0.82399(15) 0.19875(16) 0.58265(15)
C30_10 C 0.32399(15) 0.69875(16) 0.41735(15)
C31_10 C 0.17601(15) 0.80125(16) 0.41735(15)
C33_8 C 0.52655(17) 0.34327(17) 0.46816(16)
C34_8 C 0.97345(17) 0.15673(17) 0.46816(16)
C35_10 C 0.47345(17) 0.65673(17) 0.53184(16)
C36_10 C 0.02655(17) 0.84327(17) 0.53184(16)
N3_8 N 0.65226(14) 0.35786(14) 0.58517(14)
N4_8 N 0.84774(14) 0.14214(14) 0.58517(14)
N5_10 N 0.34774(14) 0.64214(14) 0.41483(14)
N6_10 N 0.15226(14) 0.85786(14) 0.41483(14)
S3_8 S 0.73856(4) 0.29497(4) 0.63448(4)
S4_8 S 0.76144(4) 0.20503(4) 0.63448(4)
S5_10 S 0.26144(4) 0.70503(4) 0.36552(4)
S6_10 S 0.23856(4) 0.79497(4) 0.36552(4)
O15_8 O 0.5080(2) 0.30256(18) 0.4338(2)
O16_8 O 0.9920(2) 0.19744(18) 0.4338(2)
O17_10 O 0.4920(2) 0.69744(18) 0.5662(2)
O18_10 O 0.0080(2) 0.80256(18) 0.5662(2)
C10_11 C 0.62975(15) 0.45206(16) 0.39513(15)
C11_11 C 0.87025(15) 0.45206(16) 0.10487(15)
H7_11 H 0.5909 0.4507 0.4121
H8_11 H 0.9091 0.4507 0.0879
C15_11 C 0.67153(15) 0.49198(16) 0.41973(15)
C16_11 C 0.82847(15) 0.49198(16) 0.08027(15)
C20_11 C 0.72967(16) 0.49324(17) 0.39447(17)
C21_11 C 0.77033(16) 0.49324(17) 0.10553(17)
H12_11 H 0.7591 0.5195 0.4101
H13_11 H 0.7409 0.5195 0.0899
C25_11 C 0.74384(16) 0.45488(16) 0.34550(16)
C26_11 C 0.75616(16) 0.45488(16) 0.15450(16)
H17_11 H 0.7825 0.4549 0.3281
H18_11 H 0.7175 0.4549 0.1719
C30_11 C 0.69875(16) 0.41735(15) 0.32399(15)
C31_11 C 0.80125(16) 0.41735(15) 0.17601(15)
C35_11 C 0.65673(17) 0.53184(16) 0.47345(17)
C36_11 C 0.84327(17) 0.53184(16) 0.02655(17)
N5_11 N 0.64214(14) 0.41483(14) 0.34774(14)
N6_11 N 0.85786(14) 0.41483(14) 0.15226(14)
S5_11 S 0.70503(4) 0.36552(4) 0.26144(4)
S6_11 S 0.79497(4) 0.36552(4) 0.23856(4)
O17_11 O 0.69744(18) 0.5662(2) 0.4920(2)
O18_11 O 0.80256(18) 0.5662(2) 0.0080(2)
C10_12 C 0.62975(15) 0.04794(16) 0.10487(15)
C11_12 C 0.87025(15) 0.04794(16) 0.39513(15)
H7_12 H 0.5909 0.0493 0.0879
H8_12 H 0.9091 0.0493 0.4121
C15_12 C 0.67153(15) 0.00802(16) 0.08027(15)
C16_12 C 0.82847(15) 0.00802(16) 0.41973(15)
C20_12 C 0.72967(16) 0.00676(17) 0.10553(17)
C21_12 C 0.77033(16) 0.00676(17) 0.39447(17)
C25_12 C 0.74384(16) 0.04512(16) 0.15450(16)
C26_12 C 0.75616(16) 0.04512(16) 0.34550(16)
H17_12 H 0.7825 0.0451 0.1719
H18_12 H 0.7175 0.0451 0.3281
C30_12 C 0.69875(16) 0.08265(15) 0.17601(15)
C31_12 C 0.80125(16) 0.08265(15) 0.32399(15)
N5_12 N 0.64214(14) 0.08517(14) 0.15226(14)
N6_12 N 0.85786(14) 0.08517(14) 0.34774(14)
S5_12 S 0.70503(4) 0.13448(4) 0.23856(4)
S6_12 S 0.79497(4) 0.13448(4) 0.26144(4)
H12_12 H 0.7591 0.9805 0.0899
H13_12 H 0.7409 0.9805 0.4101
C35_12 C 0.65673(17) 0.96816(16) 0.02655(17)
C36_12 C 0.84327(17) 0.96816(16) 0.47345(17)
O17_12 O 0.69744(18) 0.9338(2) 0.0080(2)
O18_12 O 0.80256(18) 0.9338(2) 0.4920(2)
O21_7 O 0.88314(18) 0.82802(16) 0.5600(2)
O22_7 O 0.82802(16) 0.9400(2) 0.61686(18)
O23_7 O 0.9400(2) 0.88314(18) 0.67198(16)
O3_7 O 0.61686(18) 0.82802(16) 0.9400(2)
O19_7 O 0.67198(16) 0.9400(2) 0.88314(18)
O20_7 O 0.5600(2) 0.88314(18) 0.82802(16)
O21_8 O 0.61686(18) 0.67198(16) 0.5600(2)
O22_8 O 0.67198(16) 0.5600(2) 0.61686(18)
O23_8 O 0.5600(2) 0.61686(18) 0.67198(16)
O3_8 O 0.88314(18) 0.67198(16) 0.9400(2)
O19_8 O 0.82802(16) 0.5600(2) 0.88314(18)
O20_8 O 0.9400(2) 0.61686(18) 0.82802(16)
loop_
_geom_bond_atom_site_label_1
_geom_bond_atom_site_label_2
_geom_bond_site_symmetry_1
_geom_bond_site_symmetry_2
O21 Mn2 1_555 1_555
O22 Mn2 1_555 1_555
O23 Mn2 1_555 1_555
Mn1 O1 1_555 1_555
Na1 O1 1_555 1_555
O1 C6 1_555 1_555
O2 C6 1_555 1_555
O3 Mn1 1_555 1_555
Mn5 O8 1_555 1_555
Na2_2 O4 1_555 1_555
Na4_2 O8 1_555 1_555
C10 H7 1_555 1_555
C11 H8 1_555 1_555
C15 C10 1_555 1_555
C16 C11 1_555 1_555
C20 C15 1_555 1_555
C21 C16 1_555 1_555
H12 C20 1_555 1_555
H13 C21 1_555 1_555
C25 C20 1_555 1_555
C26 C21 1_555 1_555
H17 C25 1_555 1_555
H18 C26 1_555 1_555
C30 C25 1_555 1_555
C31 C26 1_555 1_555
C35 C15 1_555 1_555
C36 C16 1_555 1_555
N5 C10 1_555 1_555
N6 C11 1_555 1_555
S5 C30 1_555 1_555
S6 C31 1_555 1_555
O4 C32 1_555 1_555
O7 Na1 1_555 1_555
O8 C36 1_555 1_555
O11 Mn1 1_555 1_555
O14 C32 1_555 1_555
O17 C35 1_555 1_555
O18 C36 1_555 1_555
O19 Mn1 1_555 1_555
O20 Mn1 1_555 1_555
Na1 O11 1_555 1_555
C30 N5 1_555 1_555
C31 N6 1_555 1_555
C35 O7 1_555 1_555
S5 S6 1_555 1_555
Na2_3 O13 1_555 1_555
Na2_5 O12 1_555 1_555
C1 H1 1_555 1_555
C2 C1 1_555 1_555
C3 C2 1_555 1_555
C4 C3 1_555 1_555
H3 C4 1_555 1_555
C5 C4 1_555 1_555
N1 C1 1_555 1_555
S1 C5 1_555 1_555
Mn3 O6 1_555 1_555
Na4 O6 1_555 1_555
C7 H4 1_555 1_555
C8 H5 1_555 1_555
C9 H6 1_555 1_555
C12 C7 1_555 1_555
C13 C8 1_555 1_555
C14 C9 1_555 1_555
C17 C12 1_555 1_555
C18 C13 1_555 1_555
C19 C14 1_555 1_555
H10 C18 1_555 1_555
H11 C19 1_555 1_555
C22 C17 1_555 1_555
C23 C18 1_555 1_555
C24 C19 1_555 1_555
H14 C22 1_555 1_555
H15 C23 1_555 1_555
H16 C24 1_555 1_555
C27 C22 1_555 1_555
C28 C23 1_555 1_555
C29 C24 1_555 1_555
C33 C13 1_555 1_555
C34 C14 1_555 1_555
N2 C7 1_555 1_555
N3 C8 1_555 1_555
N4 C9 1_555 1_555
S2 S1 1_555 1_555
S3 C28 1_555 1_555
S4 C29 1_555 1_555
O6 C34 1_555 1_555
O9 Na1_2 1_555 1_555
O10 Na1_2 1_555 1_555
O15 C33 1_555 1_555
O16 C34 1_555 1_555
Na1_2 O5 1_555 1_555
C5 N1 1_555 1_555
Mn4 O9 1_555 1_555
Mn4 O10 1_555 1_555
C27 N2 1_555 1_555
C27 S2 1_555 1_555
C28 N3 1_555 1_555
C29 N4 1_555 1_555
C33 O5 1_555 1_555
S3 S4 1_555 1_555
O13_2 Mn3 1_555 1_555
O21_2 Mn3 1_555 1_555
O22_2 Mn3 1_555 1_555
O23_2 Mn3 1_555 1_555
Na4 O13_2 1_555 1_555
Mn1_2 O1_2 1_555 1_555
Na1_3 O1_2 1_555 1_555
C1_2 H1_2 1_555 1_555
C2_2 C1_2 1_555 1_555
C3_2 C2_2 1_555 1_555
H2_2 C3_2 1_555 1_555
C4_2 C3_2 1_555 1_555
H3_2 C4_2 1_555 1_555
C5_2 C4_2 1_555 1_555
C6_2 C2_2 1_555 1_555
N1_2 C1_2 1_555 1_555
S1_2 C5_2 1_555 1_555
O1_2 C6_2 1_555 1_555
O2_2 C6_2 1_555 1_555
O3_2 Mn1_2 1_555 1_555
Na4_2 O4_2 1_555 1_555
C7_2 H4_2 1_555 1_555
C10_2 H7_2 1_555 1_555
C11_2 H8_2 1_555 1_555
C12_2 C7_2 1_555 1_555
C15_2 C10_2 1_555 1_555
C16_2 C11_2 1_555 1_555
C17_2 C12_2 1_555 1_555
C20_2 C15_2 1_555 1_555
C21_2 C16_2 1_555 1_555
H9_2 C17_2 1_555 1_555
C22_2 C17_2 1_555 1_555
C25_2 C20_2 1_555 1_555
C26_2 C21_2 1_555 1_555
H14_2 C22_2 1_555 1_555
H17_2 C25_2 1_555 1_555
H18_2 C26_2 1_555 1_555
C27_2 C22_2 1_555 1_555
C30_2 C25_2 1_555 1_555
C31_2 C26_2 1_555 1_555
C32_2 C12_2 1_555 1_555
N2_2 C7_2 1_555 1_555
N5_2 C10_2 1_555 1_555
N6_2 C11_2 1_555 1_555
S2_2 S1_2 1_555 1_555
S5_2 C30_2 1_555 1_555
S6_2 C31_2 1_555 1_555
O4_2 C32_2 1_555 1_555
O5_2 Mn1_2 1_555 1_555
O12 C34_2 1_555 1_555
O10_2 Na1_3 1_555 1_555
O14_2 C32_2 1_555 1_555
O15_2 C33_2 1_555 1_555
O16_2 C34_2 1_555 1_555
O19_2 Mn1_2 1_555 1_555
O20_2 Mn1_2 1_555 1_555
Na1_3 O5_2 1_555 1_555
C5_2 N1_2 1_555 1_555
C27_2 N2_2 1_555 1_555
C27_2 S2_2 1_555 1_555
C30_2 N5_2 1_555 1_555
C31_2 N6_2 1_555 1_555
C33_2 O5_2 1_555 1_555
S5_2 S6_2 1_555 1_555
Mn4_2 O7_2 1_555 1_555
Na2_4 O8_2 1_555 1_555
C8_2 H5_2 1_555 1_555
C9_2 H6_2 1_555 1_555
C13_2 C8_2 1_555 1_555
C14_2 C9_2 1_555 1_555
C18_2 C13_2 1_555 1_555
C19_2 C14_2 1_555 1_555
C23_2 C18_2 1_555 1_555
C24_2 C19_2 1_555 1_555
H15_2 C23_2 1_555 1_555
H16_2 C24_2 1_555 1_555
C28_2 C23_2 1_555 1_555
C29_2 C24_2 1_555 1_555
N3_2 C8_2 1_555 1_555
N4_2 C9_2 1_555 1_555
S3_2 C28_2 1_555 1_555
S4_2 C29_2 1_555 1_555
O7_2 Na1_4 1_555 1_555
O8_2 C36_2 1_555 1_555
O9_2 Na1_4 1_555 1_555
O17_2 C35_2 1_555 1_555
O18_2 C36_2 1_555 1_555
Na1_4 O11_2 1_555 1_555
Mn4_2 O9_2 1_555 1_555
C28_2 N3_2 1_555 1_555
C29_2 N4_2 1_555 1_555
C35_2 O7_2 1_555 1_555
S3_2 S4_2 1_555 1_555
O9_3 Na4 1_555 1_555
O10_3 Na4_2 1_555 1_555
Mn5 O10_3 1_555 1_555
O10_4 Na2_6 1_555 1_555
O9_4 Na2_7 1_555 1_555
C10_3 H7_3 1_555 1_555
C11_3 H8_3 1_555 1_555
C15_3 C10_3 1_555 1_555
C16_3 C11_3 1_555 1_555
C20_3 C15_3 1_555 1_555
C21_3 C16_3 1_555 1_555
H12_3 C20_3 1_555 1_555
H13_3 C21_3 1_555 1_555
C25_3 C20_3 1_555 1_555
C26_3 C21_3 1_555 1_555
H17_3 C25_3 1_555 1_555
H18_3 C26_3 1_555 1_555
C30_3 C25_3 1_555 1_555
C31_3 C26_3 1_555 1_555
C35_3 C15_3 1_555 1_555
C36_3 C16_3 1_555 1_555
N5_3 C10_3 1_555 1_555
N6_3 C11_3 1_555 1_555
S5_3 C30_3 1_555 1_555
S6_3 C31_3 1_555 1_555
O10 C36_3 1_555 1_555
O17_3 C35_3 1_555 1_555
O18_3 C36_3 1_555 1_555
C30_3 N5_3 1_555 1_555
C31_3 N6_3 1_555 1_555
C35_3 O10_2 1_555 1_555
S5_3 S6_3 1_555 1_555
C8_3 H5_3 1_555 1_555
C9_3 H6_3 1_555 1_555
C13_3 C8_3 1_555 1_555
C14_3 C9_3 1_555 1_555
C18_3 C13_3 1_555 1_555
C19_3 C14_3 1_555 1_555
H10_3 C18_3 1_555 1_555
H11_3 C19_3 1_555 1_555
C23_3 C18_3 1_555 1_555
C24_3 C19_3 1_555 1_555
H15_3 C23_3 1_555 1_555
H16_3 C24_3 1_555 1_555
C28_3 C23_3 1_555 1_555
C29_3 C24_3 1_555 1_555
C33_3 C13_3 1_555 1_555
C34_3 C14_3 1_555 1_555
N3_3 C8_3 1_555 1_555
N4_3 C9_3 1_555 1_555
S3_3 C28_3 1_555 1_555
S4_3 C29_3 1_555 1_555
O11 C34_3 1_555 1_555
O15_3 C33_3 1_555 1_555
O16_3 C34_3 1_555 1_555
C28_3 N3_3 1_555 1_555
C29_3 N4_3 1_555 1_555
C33_3 O11_2 1_555 1_555
S3_3 S4_3 1_555 1_555
C10_4 H7_4 1_555 1_555
C11_4 H8_4 1_555 1_555
C15_4 C10_4 1_555 1_555
C16_4 C11_4 1_555 1_555
C20_4 C15_4 1_555 1_555
C21_4 C16_4 1_555 1_555
C25_4 C20_4 1_555 1_555
C26_4 C21_4 1_555 1_555
H17_4 C25_4 1_555 1_555
H18_4 C26_4 1_555 1_555
C30_4 C25_4 1_555 1_555
C31_4 C26_4 1_555 1_555
N5_4 C10_4 1_555 1_555
N6_4 C11_4 1_555 1_555
S5_4 C30_4 1_555 1_555
S6_4 C31_4 1_555 1_555
O13 C34_4 1_555 1_555
O15_4 C33_4 1_555 1_555
O16_4 C34_4 1_555 1_555
C30_4 N5_4 1_555 1_555
C31_4 N6_4 1_555 1_555
C33_4 O13_2 1_555 1_555
S5_4 S6_4 1_555 1_555
C8_4 H5_4 1_555 1_555
C9_4 H6_4 1_555 1_555
C13_4 C8_4 1_555 1_555
C14_4 C9_4 1_555 1_555
C18_4 C13_4 1_555 1_555
C19_4 C14_4 1_555 1_555
C23_4 C18_4 1_555 1_555
C24_4 C19_4 1_555 1_555
H15_4 C23_4 1_555 1_555
H16_4 C24_4 1_555 1_555
C28_4 C23_4 1_555 1_555
C29_4 C24_4 1_555 1_555
N3_4 C8_4 1_555 1_555
N4_4 C9_4 1_555 1_555
S3_4 C28_4 1_555 1_555
S4_4 C29_4 1_555 1_555
O10_4 C36_4 1_555 1_555
O17_4 C35_4 1_555 1_555
O18_4 C36_4 1_555 1_555
C28_4 N3_4 1_555 1_555
C29_4 N4_4 1_555 1_555
C35_4 O10_3 1_555 1_555
S3_4 S4_4 1_555 1_555
C10_5 H7_5 1_555 1_555
C11_5 H8_5 1_555 1_555
C15_5 C10_5 1_555 1_555
C16_5 C11_5 1_555 1_555
C20_5 C15_5 1_555 1_555
C21_5 C16_5 1_555 1_555
H12_5 C20_5 1_555 1_555
H13_5 C21_5 1_555 1_555
C25_5 C20_5 1_555 1_555
C26_5 C21_5 1_555 1_555
H17_5 C25_5 1_555 1_555
H18_5 C26_5 1_555 1_555
C30_5 C25_5 1_555 1_555
C31_5 C26_5 1_555 1_555
C35_5 C15_5 1_555 1_555
C36_5 C16_5 1_555 1_555
N5_5 C10_5 1_555 1_555
N6_5 C11_5 1_555 1_555
S5_5 C30_5 1_555 1_555
S6_5 C31_5 1_555 1_555
O9_2 C36_5 1_555 1_555
O17_5 C35_5 1_555 1_555
O18_5 C36_5 1_555 1_555
C30_5 N5_5 1_555 1_555
C31_5 N6_5 1_555 1_555
C35_5 O9_3 1_555 1_555
S5_5 S6_5 1_555 1_555
C10_6 H7_6 1_555 1_555
C11_6 H8_6 1_555 1_555
C15_6 C10_6 1_555 1_555
C16_6 C11_6 1_555 1_555
C20_6 C15_6 1_555 1_555
C21_6 C16_6 1_555 1_555
C25_6 C20_6 1_555 1_555
C26_6 C21_6 1_555 1_555
H17_6 C25_6 1_555 1_555
H18_6 C26_6 1_555 1_555
C30_6 C25_6 1_555 1_555
C31_6 C26_6 1_555 1_555
N5_6 C10_6 1_555 1_555
N6_6 C11_6 1_555 1_555
S5_6 C30_6 1_555 1_555
S6_6 C31_6 1_555 1_555
C30_6 N5_6 1_555 1_555
C31_6 N6_6 1_555 1_555
S5_6 S6_6 1_555 1_555
O9_4 C36_6 1_555 1_555
O17_6 C35_6 1_555 1_555
O18_6 C36_6 1_555 1_555
C35_6 O9 1_555 1_555
O3_3 Mn4 1_555 1_555
O19_3 Mn4 1_555 1_555
O20_3 Mn4 1_555 1_555
O21_3 Mn5_2 1_555 1_555
O22_3 Mn5_2 1_555 1_555
O23_3 Mn5_2 1_555 1_555
O3_4 Mn4_2 1_555 1_555
O19_4 Mn4_2 1_555 1_555
O20_4 Mn4_2 1_555 1_555
O21_4 Mn5 1_555 1_555
O22_4 Mn5 1_555 1_555
O23_4 Mn5 1_555 1_555
O3_5 Mn1_3 1_555 1_555
O11_3 Mn1_3 1_555 1_555
O19_5 Mn1_3 1_555 1_555
O20_5 Mn1_3 1_555 1_555
Na1_5 O11_3 1_555 1_555
Na1_6 O1_3 1_555 1_555
O1_3 C6_3 1_555 1_555
O2_3 C6_3 1_555 1_555
Mn2_2 O4_3 1_555 1_555
Mn5_3 O8_3 1_555 1_555
Na2_9 O4_3 1_555 1_555
Na4_3 O8_3 1_555 1_555
C10_7 H7_7 1_555 1_555
C11_7 H8_7 1_555 1_555
C15_7 C10_7 1_555 1_555
C16_7 C11_7 1_555 1_555
C20_7 C15_7 1_555 1_555
C21_7 C16_7 1_555 1_555
H12_7 C20_7 1_555 1_555
H13_7 C21_7 1_555 1_555
C25_7 C20_7 1_555 1_555
C26_7 C21_7 1_555 1_555
H17_7 C25_7 1_555 1_555
H18_7 C26_7 1_555 1_555
C30_7 C25_7 1_555 1_555
C31_7 C26_7 1_555 1_555
C35_7 C15_7 1_555 1_555
C36_7 C16_7 1_555 1_555
N5_7 C10_7 1_555 1_555
N6_7 C11_7 1_555 1_555
S5_7 C30_7 1_555 1_555
S6_7 C31_7 1_555 1_555
O4_3 C32_3 1_555 1_555
O7_3 Na1_6 1_555 1_555
O8_3 C36_7 1_555 1_555
O14_3 C32_3 1_555 1_555
O17_7 C35_7 1_555 1_555
O18_7 C36_7 1_555 1_555
O21_5 Mn2_2 1_555 1_555
O22_5 Mn2_2 1_555 1_555
O23_5 Mn2_2 1_555 1_555
C30_7 N5_7 1_555 1_555
C31_7 N6_7 1_555 1_555
C35_7 O7_3 1_555 1_555
S5_7 S6_7 1_555 1_555
Mn3_2 O6_2 1_555 1_555
Na4_3 O6_2 1_555 1_555
C8_5 H5_5 1_555 1_555
C9_5 H6_5 1_555 1_555
C13_5 C8_5 1_555 1_555
C14_5 C9_5 1_555 1_555
C18_5 C13_5 1_555 1_555
C19_5 C14_5 1_555 1_555
H10_5 C18_5 1_555 1_555
H11_5 C19_5 1_555 1_555
C23_5 C18_5 1_555 1_555
C24_5 C19_5 1_555 1_555
H15_5 C23_5 1_555 1_555
H16_5 C24_5 1_555 1_555
C28_5 C23_5 1_555 1_555
C29_5 C24_5 1_555 1_555
C33_5 C13_5 1_555 1_555
C34_5 C14_5 1_555 1_555
N3_5 C8_5 1_555 1_555
N4_5 C9_5 1_555 1_555
S3_5 C28_5 1_555 1_555
S4_5 C29_5 1_555 1_555
O6_2 C34_5 1_555 1_555
O9_5 Na1_7 1_555 1_555
O15_5 C33_5 1_555 1_555
O16_5 C34_5 1_555 1_555
Na1_7 O5_3 1_555 1_555
C28_5 N3_5 1_555 1_555
C29_5 N4_5 1_555 1_555
C33_5 O5_3 1_555 1_555
S3_5 S4_5 1_555 1_555
C1_3 H1_3 1_555 1_555
C2_3 C1_3 1_555 1_555
C3_3 C2_3 1_555 1_555
C4_3 C3_3 1_555 1_555
H3_3 C4_3 1_555 1_555
C5_3 C4_3 1_555 1_555
N1_3 C1_3 1_555 1_555
S1_3 C5_3 1_555 1_555
C7_3 H4_3 1_555 1_555
C12_3 C7_3 1_555 1_555
C17_3 C12_3 1_555 1_555
C22_3 C17_3 1_555 1_555
H14_3 C22_3 1_555 1_555
C27_3 C22_3 1_555 1_555
N2_3 C7_3 1_555 1_555
S2_3 S1_3 1_555 1_555
O10_5 Na1_8 1_555 1_555
C5_3 N1_3 1_555 1_555
Mn4_3 O10_5 1_555 1_555
Na2_10 O12_2 1_555 1_555
C27_3 N2_3 1_555 1_555
C27_3 S2_3 1_555 1_555
Na2_11 O13_3 1_555 1_555
O3_6 Mn1_4 1_555 1_555
O5_4 Mn1_4 1_555 1_555
O12_2 C34_6 1_555 1_555
O15_6 C33_6 1_555 1_555
O16_6 C34_6 1_555 1_555
O19_6 Mn1_4 1_555 1_555
O20_6 Mn1_4 1_555 1_555
Na1_9 O5_4 1_555 1_555
C33_6 O5_4 1_555 1_555
Na1_10 O1_4 1_555 1_555
C1_4 H1_4 1_555 1_555
C2_4 C1_4 1_555 1_555
C3_4 C2_4 1_555 1_555
H2_4 C3_4 1_555 1_555
C4_4 C3_4 1_555 1_555
H3_4 C4_4 1_555 1_555
C5_4 C4_4 1_555 1_555
C6_4 C2_4 1_555 1_555
N1_4 C1_4 1_555 1_555
S1_4 C5_4 1_555 1_555
O1_4 C6_4 1_555 1_555
O2_4 C6_4 1_555 1_555
Mn3_2 O4_4 1_555 1_555
Na4_3 O4_4 1_555 1_555
C7_4 H4_4 1_555 1_555
C10_8 H7_8 1_555 1_555
C11_8 H8_8 1_555 1_555
C12_4 C7_4 1_555 1_555
C15_8 C10_8 1_555 1_555
C16_8 C11_8 1_555 1_555
C17_4 C12_4 1_555 1_555
C20_8 C15_8 1_555 1_555
C21_8 C16_8 1_555 1_555
H9_4 C17_4 1_555 1_555
C22_4 C17_4 1_555 1_555
C25_8 C20_8 1_555 1_555
C26_8 C21_8 1_555 1_555
H14_4 C22_4 1_555 1_555
H17_8 C25_8 1_555 1_555
H18_8 C26_8 1_555 1_555
C27_4 C22_4 1_555 1_555
C30_8 C25_8 1_555 1_555
C31_8 C26_8 1_555 1_555
C32_4 C12_4 1_555 1_555
N2_4 C7_4 1_555 1_555
N5_8 C10_8 1_555 1_555
N6_8 C11_8 1_555 1_555
S2_4 S1_4 1_555 1_555
S5_8 C30_8 1_555 1_555
S6_8 C31_8 1_555 1_555
O4_4 C32_4 1_555 1_555
O10_6 Na1_10 1_555 1_555
O13_4 Mn3_2 1_555 1_555
O14_4 C32_4 1_555 1_555
O21_6 Mn3_2 1_555 1_555
O22_6 Mn3_2 1_555 1_555
O23_6 Mn3_2 1_555 1_555
C5_4 N1_4 1_555 1_555
Na4_3 O13_4 1_555 1_555
C27_4 N2_4 1_555 1_555
C27_4 S2_4 1_555 1_555
C30_8 N5_8 1_555 1_555
C31_8 N6_8 1_555 1_555
S5_8 S6_8 1_555 1_555
C8_6 H5_6 1_555 1_555
C9_6 H6_6 1_555 1_555
C13_6 C8_6 1_555 1_555
C14_6 C9_6 1_555 1_555
C18_6 C13_6 1_555 1_555
C19_6 C14_6 1_555 1_555
C23_6 C18_6 1_555 1_555
C24_6 C19_6 1_555 1_555
H15_6 C23_6 1_555 1_555
H16_6 C24_6 1_555 1_555
C28_6 C23_6 1_555 1_555
C29_6 C24_6 1_555 1_555
N3_6 C8_6 1_555 1_555
N4_6 C9_6 1_555 1_555
S3_6 C28_6 1_555 1_555
S4_6 C29_6 1_555 1_555
O9_6 Na1_11 1_555 1_555
Na1_11 O11_4 1_555 1_555
C28_6 N3_6 1_555 1_555
C29_6 N4_6 1_555 1_555
S3_6 S4_6 1_555 1_555
Mn4_4 O7_4 1_555 1_555
Na2_11 O8_4 1_555 1_555
O7_4 Na1_12 1_555 1_555
O8_4 C36_8 1_555 1_555
O17_8 C35_8 1_555 1_555
O18_8 C36_8 1_555 1_555
C35_8 O7_4 1_555 1_555
O9_7 Na4_3 1_555 1_555
O10_7 Na4_3 1_555 1_555
Mn5_3 O9_7 1_555 1_555
Mn5_3 O10_7 1_555 1_555
O10_8 Na2_10 1_555 1_555
O9_8 Na2_12 1_555 1_555
Mn5_4 O9_8 1_555 1_555
C10_9 H7_9 1_555 1_555
C11_9 H8_9 1_555 1_555
C15_9 C10_9 1_555 1_555
C16_9 C11_9 1_555 1_555
C20_9 C15_9 1_555 1_555
C21_9 C16_9 1_555 1_555
C25_9 C20_9 1_555 1_555
C26_9 C21_9 1_555 1_555
H17_9 C25_9 1_555 1_555
H18_9 C26_9 1_555 1_555
C30_9 C25_9 1_555 1_555
C31_9 C26_9 1_555 1_555
N5_9 C10_9 1_555 1_555
N6_9 C11_9 1_555 1_555
S5_9 C30_9 1_555 1_555
S6_9 C31_9 1_555 1_555
C30_9 N5_9 1_555 1_555
C31_9 N6_9 1_555 1_555
S5_9 S6_9 1_555 1_555
O10_5 C36_9 1_555 1_555
O17_9 C35_9 1_555 1_555
O18_9 C36_9 1_555 1_555
C35_9 O10_6 1_555 1_555
O11_3 C34_7 1_555 1_555
O15_7 C33_7 1_555 1_555
O16_7 C34_7 1_555 1_555
C33_7 O11_4 1_555 1_555
C8_7 H5_7 1_555 1_555
C9_7 H6_7 1_555 1_555
C13_7 C8_7 1_555 1_555
C14_7 C9_7 1_555 1_555
C18_7 C13_7 1_555 1_555
C19_7 C14_7 1_555 1_555
C23_7 C18_7 1_555 1_555
C24_7 C19_7 1_555 1_555
H15_7 C23_7 1_555 1_555
H16_7 C24_7 1_555 1_555
C28_7 C23_7 1_555 1_555
C29_7 C24_7 1_555 1_555
N3_7 C8_7 1_555 1_555
N4_7 C9_7 1_555 1_555
S3_7 C28_7 1_555 1_555
S4_7 C29_7 1_555 1_555
C28_7 N3_7 1_555 1_555
C29_7 N4_7 1_555 1_555
S3_7 S4_7 1_555 1_555
C8_8 H5_8 1_555 1_555
C9_8 H6_8 1_555 1_555
C10_10 H7_10 1_555 1_555
C11_10 H8_10 1_555 1_555
C13_8 C8_8 1_555 1_555
C14_8 C9_8 1_555 1_555
C15_10 C10_10 1_555 1_555
C16_10 C11_10 1_555 1_555
C18_8 C13_8 1_555 1_555
C19_8 C14_8 1_555 1_555
C20_10 C15_10 1_555 1_555
C21_10 C16_10 1_555 1_555
H10_8 C18_8 1_555 1_555
H11_8 C19_8 1_555 1_555
H12_10 C20_10 1_555 1_555
H13_10 C21_10 1_555 1_555
C23_8 C18_8 1_555 1_555
C24_8 C19_8 1_555 1_555
C25_10 C20_10 1_555 1_555
C26_10 C21_10 1_555 1_555
H15_8 C23_8 1_555 1_555
H16_8 C24_8 1_555 1_555
H17_10 C25_10 1_555 1_555
H18_10 C26_10 1_555 1_555
C28_8 C23_8 1_555 1_555
C29_8 C24_8 1_555 1_555
C30_10 C25_10 1_555 1_555
C31_10 C26_10 1_555 1_555
C33_8 C13_8 1_555 1_555
C34_8 C14_8 1_555 1_555
C35_10 C15_10 1_555 1_555
C36_10 C16_10 1_555 1_555
N3_8 C8_8 1_555 1_555
N4_8 C9_8 1_555 1_555
N5_10 C10_10 1_555 1_555
N6_10 C11_10 1_555 1_555
S3_8 C28_8 1_555 1_555
S4_8 C29_8 1_555 1_555
S5_10 C30_10 1_555 1_555
S6_10 C31_10 1_555 1_555
O13_3 C34_8 1_555 1_555
O10_8 C36_10 1_555 1_555
O15_8 C33_8 1_555 1_555
O16_8 C34_8 1_555 1_555
O17_10 C35_10 1_555 1_555
O18_10 C36_10 1_555 1_555
C28_8 N3_8 1_555 1_555
C29_8 N4_8 1_555 1_555
C30_10 N5_10 1_555 1_555
C31_10 N6_10 1_555 1_555
C33_8 O13_4 1_555 1_555
C35_10 O10_7 1_555 1_555
S3_8 S4_8 1_555 1_555
S5_10 S6_10 1_555 1_555
C10_11 H7_11 1_555 1_555
C11_11 H8_11 1_555 1_555
C15_11 C10_11 1_555 1_555
C16_11 C11_11 1_555 1_555
C20_11 C15_11 1_555 1_555
C21_11 C16_11 1_555 1_555
H12_11 C20_11 1_555 1_555
H13_11 C21_11 1_555 1_555
C25_11 C20_11 1_555 1_555
C26_11 C21_11 1_555 1_555
H17_11 C25_11 1_555 1_555
H18_11 C26_11 1_555 1_555
C30_11 C25_11 1_555 1_555
C31_11 C26_11 1_555 1_555
C35_11 C15_11 1_555 1_555
C36_11 C16_11 1_555 1_555
N5_11 C10_11 1_555 1_555
N6_11 C11_11 1_555 1_555
S5_11 C30_11 1_555 1_555
S6_11 C31_11 1_555 1_555
O9_6 C36_11 1_555 1_555
O17_11 C35_11 1_555 1_555
O18_11 C36_11 1_555 1_555
C30_11 N5_11 1_555 1_555
C31_11 N6_11 1_555 1_555
C35_11 O9_7 1_555 1_555
S5_11 S6_11 1_555 1_555
C10_12 H7_12 1_555 1_555
C11_12 H8_12 1_555 1_555
C15_12 C10_12 1_555 1_555
C16_12 C11_12 1_555 1_555
C20_12 C15_12 1_555 1_555
C21_12 C16_12 1_555 1_555
C25_12 C20_12 1_555 1_555
C26_12 C21_12 1_555 1_555
H17_12 C25_12 1_555 1_555
H18_12 C26_12 1_555 1_555
C30_12 C25_12 1_555 1_555
C31_12 C26_12 1_555 1_555
N5_12 C10_12 1_555 1_555
N6_12 C11_12 1_555 1_555
S5_12 C30_12 1_555 1_555
S6_12 C31_12 1_555 1_555
C30_12 N5_12 1_555 1_555
C31_12 N6_12 1_555 1_555
S5_12 S6_12 1_555 1_555
O9_8 C36_12 1_555 1_555
O17_12 C35_12 1_555 1_555
O18_12 C36_12 1_555 1_555
C35_12 O9_5 1_555 1_555
O21_7 Mn5_4 1_555 1_555
O22_7 Mn5_4 1_555 1_555
O23_7 Mn5_4 1_555 1_555
O3_7 Mn4_3 1_555 1_555
O19_7 Mn4_3 1_555 1_555
O20_7 Mn4_3 1_555 1_555
O21_8 Mn5_3 1_555 1_555
O22_8 Mn5_3 1_555 1_555
O23_8 Mn5_3 1_555 1_555
O3_8 Mn4_4 1_555 1_555
O19_8 Mn4_4 1_555 1_555
O20_8 Mn4_4 1_555 1_555

#END
