
###############################################################################
#
# This file contains modified crystal structure data generated from the
# MOF subset of the Cambridge Structural Database (CSD) v543 
# hosted by the Cambridge Crystallographic Data Centre (CCDC).
#
# This work is licensed under the Creative Commons
# Attribution-NonCommercial-ShareAlike 4.0 International License.
# To view a copy of this license, visit
# http://creativecommons.org/licenses/by-nc-sa/4.0/
# or send a letter to
# Creative Commons, PO Box 1866, Mountain View, CA 94042, USA.
#
# CIF created using the CSD Python API on 29 September 2022
# The structure has been converted into the P1 space group
# The structure has a 3D framework
# The original CSD entry EBIMIN is in the orthorhombic crystal system
# The framework has been calculated to contain at least 10.0% void space
# The void calculation uses a probe of radius 1.32A, grid spacing 0.4
# The framework is charged, counterions have been retained in the structure
#
###############################################################################

data_EBIMIN
_chemical_formula_moiety         '(C152 H128 Mn13 N8 O62 2+)n'
_symmetry_cell_setting           triclinic
_symmetry_space_group_name_H-M   'P 1'
_symmetry_Int_Tables_number      1
_space_group_name_Hall           'P 1'
loop_
_symmetry_equiv_pos_site_id
_symmetry_equiv_pos_as_xyz
1 x,y,z
_cell_length_a                   16.2417(11)
_cell_length_b                   10.7616(7)
_cell_length_c                   25.6486(17)
_cell_angle_alpha                90
_cell_angle_beta                 90
_cell_angle_gamma                90
_cell_volume                     4483.03
loop_
_atom_site_label
_atom_site_type_symbol
_atom_site_fract_x
_atom_site_fract_y
_atom_site_fract_z
O6 O 0.4863(2) 0.0120(3) 0.64209(14)
Mn5 Mn 0.56817(4) 0.15223(6) 0.61952(3)
Mn10 Mn 0.5000 0.0000 0.5000
Mn1 Mn 0.06817(4) 0.34777(6) 0.38048(3)
Mn2 Mn -0.0000 0.5000 0.5000
C1 C 0.2341(3) 0.3950(4) 0.49978(17)
C2 C 0.3035(3) 0.3205(4) 0.50461(18)
H1 H 0.3142 0.2570 0.4798
C3 C 0.3575(3) 0.3396(4) 0.54635(18)
C4 C 0.3390(3) 0.4279(4) 0.58400(18)
H2 H 0.3750 0.4388 0.6128
C5 C 0.2687(3) 0.5005(4) 0.58020(17)
C6 C 0.2183(3) 0.4868(4) 0.53659(17)
H3 H 0.1726 0.5408 0.5319
C7 C 0.2395(3) 0.5849(4) 0.62357(17)
H4 H 0.2124 0.5328 0.6504
H5 H 0.1972 0.6413 0.6091
C8 C 0.3046(3) 0.6636(4) 0.65044(18)
C9 C 0.3503(3) 0.7507(4) 0.62256(17)
H6 H 0.3439 0.7565 0.5858
C10 C 0.4051(3) 0.8293(4) 0.64796(17)
C11 C 0.4164(3) 0.8184(5) 0.70217(18)
H7 H 0.4531 0.8725 0.7200
C12 C 0.3735(3) 0.7282(4) 0.72909(17)
C13 C 0.3173(3) 0.6537(4) 0.70357(18)
H8 H 0.2866 0.5943 0.7229
C14 C 0.1741(3) 0.3753(4) 0.45610(17)
C15 C 0.4326(3) 0.2577(4) 0.55123(17)
C16 C 0.4529(3) 0.9246(4) 0.61705(18)
C17 C 0.3891(3) 0.7066(5) 0.78657(18)
O1 O 0.11018(19) 0.4438(3) 0.45348(12)
O2 O 0.1862(2) 0.2929(3) 0.42255(13)
O3 O 0.4406(2) 0.1724(3) 0.51900(14)
O4 O 0.4822(2) 0.2808(3) 0.58811(14)
O5 O 0.4561(2) 0.9091(3) 0.56875(13)
O7 O 0.4349(2) 0.7795(3) 0.81156(13)
O8 O 0.3574(3) 0.6146(4) 0.80836(14)
Mn6 Mn 0.43183(4) 0.65223(6) 0.88048(3)
Mn10_2 Mn 0.5000 1.0000 0.5000
O13 O 0.0594(2) 0.6724(3) 0.51900(14)
O18 O 0.0439(2) 0.4091(3) 0.56875(13)
O23 O 0.0651(2) 0.2205(3) 0.31156(13)
O26 O 0.1426(3) 0.3854(4) 0.30836(14)
Mn2_2 Mn 1.0000 0.5000 0.5000
C18 C 0.7341(3) 0.1050(4) 0.50022(17)
C19 C 0.8035(3) 0.1795(4) 0.49539(18)
H9 H 0.8142 0.2430 0.5202
C20 C 0.8575(3) 0.1604(4) 0.45365(18)
C21 C 0.8390(3) 0.0721(4) 0.41600(18)
H10 H 0.8750 0.0612 0.3872
C23 C 0.7183(3) 0.0132(4) 0.46341(17)
C31 C 0.6741(3) 0.1247(4) 0.54390(17)
C32 C 0.9326(3) 0.2423(4) 0.44877(17)
O9 O 0.61018(19) 0.0562(3) 0.54652(12)
O10 O 0.88982(19) 0.5562(3) 0.54652(12)
O11 O 0.6862(2) 0.2071(3) 0.57745(13)
O12 O 0.9406(2) 0.3276(3) 0.48100(14)
O14 O 0.9822(2) 0.2192(3) 0.41189(14)
O17 O 0.9561(2) 0.5909(3) 0.43125(13)
O20 O 0.9863(2) 0.4880(3) 0.35791(14)
O24 O 0.5651(2) 0.2795(3) 0.68844(13)
O27 O 0.6426(3) 0.1146(4) 0.69164(14)
Mn8 Mn 0.93183(4) 0.84777(6) 0.11952(3)
C22 C 0.7687(3) 0.9995(4) 0.41980(17)
H11 H 0.6726 0.9592 0.4681
C24 C 0.7395(3) 0.9151(4) 0.37643(17)
H12 H 0.7124 0.9672 0.3496
H13 H 0.6972 0.8587 0.3909
C25 C 0.8046(3) 0.8364(4) 0.34956(18)
C26 C 0.8503(3) 0.7493(4) 0.37744(17)
H14 H 0.8439 0.7435 0.4142
C27 C 0.9051(3) 0.6707(4) 0.35204(17)
C28 C 0.9164(3) 0.6816(5) 0.29783(18)
H15 H 0.9531 0.6275 0.2800
C29 C 0.8735(3) 0.7718(4) 0.27091(17)
C30 C 0.8173(3) 0.8463(4) 0.29643(18)
H16 H 0.7866 0.9057 0.2771
C33 C 0.9529(3) 0.5754(4) 0.38295(18)
C34 C 0.8891(3) 0.7934(5) 0.21343(18)
O22 O 0.9349(2) 0.7205(3) 0.18844(13)
O25 O 0.8574(3) 0.8854(4) 0.19164(14)
Mn11 Mn 0.0000 0.0000 0.0000
Mn11_2 Mn -0.0000 0.0000 1.0000
Mn11_3 Mn -0.0000 1.0000 0.0000
O15 O 0.0178(2) 0.7192(3) 0.08811(14)
O21 O 0.0137(2) 0.9880(3) 0.14209(14)
Mn11_4 Mn -0.0000 1.0000 1.0000
Mn11_5 Mn 1.0000 0.0000 0.0000
Mn12 Mn 0.5000 0.5000 0.0000
Mn11_6 Mn 1.0000 0.0000 1.0000
Mn12_2 Mn 0.5000 0.5000 1.0000
C22_2 C 0.7313(3) 0.0005(4) 0.91980(17)
H11_2 H 0.8274 0.0408 0.9681
C24_2 C 0.7605(3) 0.0849(4) 0.87643(17)
H12_2 H 0.7876 0.0328 0.8496
H13_2 H 0.8028 0.1413 0.8909
C25_2 C 0.6954(3) 0.1636(4) 0.84956(18)
C26_2 C 0.6497(3) 0.2507(4) 0.87744(17)
H14_2 H 0.6561 0.2565 0.9142
C27_2 C 0.5949(3) 0.3293(4) 0.85204(17)
C28_2 C 0.5836(3) 0.3184(5) 0.79783(18)
H15_2 H 0.5469 0.3725 0.7800
C29_2 C 0.6265(3) 0.2282(4) 0.77091(17)
C30_2 C 0.6827(3) 0.1537(4) 0.79643(18)
H16_2 H 0.7134 0.0943 0.7771
C33_2 C 0.5471(3) 0.4246(4) 0.88295(18)
C34_2 C 0.6109(3) 0.2066(5) 0.71343(18)
O16 O 0.5439(2) 0.4091(3) 0.93125(13)
O19 O 0.5137(2) 0.5120(3) 0.85791(14)
C2_2 C 0.1965(3) 0.6795(4) 0.00461(18)
C3_2 C 0.1425(3) 0.6604(4) 0.04635(18)
C4_2 C 0.1610(3) 0.5721(4) 0.08400(18)
H2_2 H 0.1250 0.5612 0.1128
C5_2 C 0.2313(3) 0.4995(4) 0.08020(17)
C6_2 C 0.2817(3) 0.5132(4) 0.03659(17)
H3_2 H 0.3274 0.4592 0.0319
C7_2 C 0.2605(3) 0.4151(4) 0.12357(17)
H4_2 H 0.2876 0.4672 0.1504
H5_2 H 0.3028 0.3587 0.1091
C8_2 C 0.1954(3) 0.3364(4) 0.15044(18)
C9_2 C 0.1497(3) 0.2493(4) 0.12256(17)
H6_2 H 0.1561 0.2435 0.0858
C10_2 C 0.0949(3) 0.1707(4) 0.14796(17)
C11_2 C 0.0836(3) 0.1816(5) 0.20217(18)
H7_2 H 0.0469 0.1275 0.2200
C12_2 C 0.1265(3) 0.2718(4) 0.22909(17)
C13_2 C 0.1827(3) 0.3463(4) 0.20357(18)
H8_2 H 0.2134 0.4057 0.2229
C15_2 C 0.0674(3) 0.7423(4) 0.05123(17)
C16_2 C 0.0471(3) 0.0754(4) 0.11705(18)
C17_2 C 0.1109(3) 0.2934(5) 0.28657(18)
O3_2 O 0.0594(2) 0.8276(3) 0.01900(14)
O5_2 O 0.0439(2) 0.0909(3) 0.06875(13)
Mn11_7 Mn 1.0000 1.0000 0.0000
C18_2 C 0.7659(3) 0.8950(4) 0.00022(17)
H9_2 H 0.6858 0.7570 0.0202
C31_2 C 0.8259(3) 0.8753(4) 0.04390(17)
O9_2 O 0.88982(19) 0.9438(3) 0.04652(12)
O10_2 O 0.61018(19) 0.4438(3) 0.04652(12)
O11_2 O 0.8138(2) 0.7929(3) 0.07745(13)
O13_2 O 0.4406(2) 0.3276(3) 0.01900(14)
O18_2 O 0.4561(2) 0.5909(3) 0.06875(13)
C1_2 C 0.2659(3) 0.6050(4) 0.99978(17)
H1_2 H 0.1858 0.7430 0.9798
C14_2 C 0.3259(3) 0.6247(4) 0.95610(17)
O1_2 O 0.38982(19) 0.5562(3) 0.95348(12)
O2_2 O 0.3138(2) 0.7071(3) 0.92255(13)
Mn11_8 Mn 1.0000 1.0000 1.0000
C19_2 C 0.6965(3) 0.8205(4) 0.99539(18)
C20_2 C 0.6425(3) 0.8396(4) 0.95365(18)
C21_2 C 0.6610(3) 0.9279(4) 0.91600(18)
H10_2 H 0.6250 0.9388 0.8872
C23_2 C 0.7817(3) 0.9868(4) 0.96341(17)
C32_2 C 0.5674(3) 0.7577(4) 0.94877(17)
O12_2 O 0.5594(2) 0.6724(3) 0.98100(14)
O14_2 O 0.5178(2) 0.7808(3) 0.91189(14)
O10_3 O 0.11018(19) 0.0562(3) 0.95348(12)
O13_3 O 0.9406(2) 0.1724(3) 0.98100(14)
O18_3 O 0.9561(2) 0.9091(3) 0.93125(13)
O18_4 O 0.5439(2) 0.0909(3) 0.43125(13)
O10_4 O 0.38982(19) 0.9438(3) 0.45348(12)
O13_4 O 0.5594(2) 0.8276(3) 0.48100(14)
Mn8_2 Mn 0.06817(4) 0.15223(6) 0.88048(3)
C22_3 C 0.2313(3) 0.0005(4) 0.58020(17)
H11_3 H 0.3274 0.0408 0.5319
C24_3 C 0.2605(3) 0.0849(4) 0.62357(17)
H12_3 H 0.2876 0.0328 0.6504
H13_3 H 0.3028 0.1413 0.6091
C25_3 C 0.1954(3) 0.1636(4) 0.65044(18)
C26_3 C 0.1497(3) 0.2507(4) 0.62256(17)
H14_3 H 0.1561 0.2565 0.5858
C27_3 C 0.0949(3) 0.3293(4) 0.64796(17)
C28_3 C 0.0836(3) 0.3184(5) 0.70217(18)
H15_3 H 0.0469 0.3725 0.7200
C29_3 C 0.1265(3) 0.2282(4) 0.72909(17)
C30_3 C 0.1827(3) 0.1537(4) 0.70357(18)
H16_3 H 0.2134 0.0943 0.7229
C33_3 C 0.0471(3) 0.4246(4) 0.61705(18)
C34_3 C 0.1109(3) 0.2066(5) 0.78657(18)
O19_2 O 0.0137(2) 0.5120(3) 0.64209(14)
O22_2 O 0.0651(2) 0.2795(3) 0.81156(13)
O25_2 O 0.1426(3) 0.1146(4) 0.80836(14)
Mn3 Mn 0.43183(4) 0.84777(6) 0.38048(3)
C18_3 C 0.2659(3) 0.8950(4) 0.49978(17)
C19_3 C 0.1965(3) 0.8205(4) 0.50461(18)
H9_3 H 0.1858 0.7570 0.4798
C20_3 C 0.1425(3) 0.8396(4) 0.54635(18)
C21_3 C 0.1610(3) 0.9279(4) 0.58400(18)
H10_3 H 0.1250 0.9388 0.6128
C23_3 C 0.2817(3) 0.9868(4) 0.53659(17)
C31_3 C 0.3259(3) 0.8753(4) 0.45610(17)
C32_3 C 0.0674(3) 0.7577(4) 0.55123(17)
O11_3 O 0.3138(2) 0.7929(3) 0.42255(13)
O14_3 O 0.0178(2) 0.7808(3) 0.58811(14)
O15_2 O 0.5178(2) 0.7192(3) 0.41189(14)
O21_2 O 0.5137(2) 0.9880(3) 0.35791(14)
O24_2 O 0.4349(2) 0.7205(3) 0.31156(13)
O27_2 O 0.3574(3) 0.8854(4) 0.30836(14)
Mn7 Mn 0.93183(4) 0.65223(6) 0.61952(3)
C1_3 C 0.7659(3) 0.6050(4) 0.50022(17)
C2_3 C 0.6965(3) 0.6795(4) 0.49539(18)
H1_3 H 0.6858 0.7430 0.5202
C3_3 C 0.6425(3) 0.6604(4) 0.45365(18)
C4_3 C 0.6610(3) 0.5721(4) 0.41600(18)
H2_3 H 0.6250 0.5612 0.3872
C5_3 C 0.7313(3) 0.4995(4) 0.41980(17)
C6_3 C 0.7817(3) 0.5132(4) 0.46341(17)
H3_3 H 0.8274 0.4592 0.4681
C7_3 C 0.7605(3) 0.4151(4) 0.37643(17)
H4_3 H 0.7876 0.4672 0.3496
H5_3 H 0.8028 0.3587 0.3909
C8_3 C 0.6954(3) 0.3364(4) 0.34956(18)
C9_3 C 0.6497(3) 0.2493(4) 0.37744(17)
H6_3 H 0.6561 0.2435 0.4142
C10_3 C 0.5949(3) 0.1707(4) 0.35204(17)
C11_3 C 0.5836(3) 0.1816(5) 0.29783(18)
H7_3 H 0.5469 0.1275 0.2800
C12_3 C 0.6265(3) 0.2718(4) 0.27091(17)
C13_3 C 0.6827(3) 0.3463(4) 0.29643(18)
H8_3 H 0.7134 0.4057 0.2771
C14_3 C 0.8259(3) 0.6247(4) 0.54390(17)
C15_3 C 0.5674(3) 0.7423(4) 0.44877(17)
C16_3 C 0.5471(3) 0.0754(4) 0.38295(18)
C17_3 C 0.6109(3) 0.2934(5) 0.21343(18)
O2_3 O 0.8138(2) 0.7071(3) 0.57745(13)
O7_2 O 0.5651(2) 0.2205(3) 0.18844(13)
O8_2 O 0.6426(3) 0.3854(4) 0.19164(14)
Mn6_2 Mn 0.56817(4) 0.34777(6) 0.11952(3)
O23_2 O 0.9349(2) 0.7795(3) 0.68844(13)
O26_2 O 0.8574(3) 0.6146(4) 0.69164(14)
O6_2 O 0.9863(2) 0.0120(3) 0.85791(14)
C1_4 C 0.7341(3) 0.3950(4) 0.00022(17)
H1_4 H 0.8142 0.2570 0.0202
C14_4 C 0.6741(3) 0.3753(4) 0.04390(17)
O2_4 O 0.6862(2) 0.2929(3) 0.07745(13)
C19_4 C 0.3035(3) 0.1795(4) 0.00461(18)
C20_4 C 0.3575(3) 0.1604(4) 0.04635(18)
C21_4 C 0.3390(3) 0.0721(4) 0.08400(18)
H10_4 H 0.3750 0.0612 0.1128
C23_4 C 0.2183(3) 0.0132(4) 0.03659(17)
C32_4 C 0.4326(3) 0.2423(4) 0.05123(17)
O14_4 O 0.4822(2) 0.2192(3) 0.08811(14)
O20_2 O 0.4863(2) 0.4880(3) 0.14209(14)
C2_4 C 0.8035(3) 0.3205(4) 0.99539(18)
C3_4 C 0.8575(3) 0.3396(4) 0.95365(18)
C4_4 C 0.8390(3) 0.4279(4) 0.91600(18)
H2_4 H 0.8750 0.4388 0.8872
C5_4 C 0.7687(3) 0.5005(4) 0.91980(17)
C6_4 C 0.7183(3) 0.4868(4) 0.96341(17)
H3_4 H 0.6726 0.5408 0.9681
C7_4 C 0.7395(3) 0.5849(4) 0.87643(17)
H4_4 H 0.7124 0.5328 0.8496
H5_4 H 0.6972 0.6413 0.8909
C8_4 C 0.8046(3) 0.6636(4) 0.84956(18)
C9_4 C 0.8503(3) 0.7507(4) 0.87744(17)
H6_4 H 0.8439 0.7565 0.9142
C10_4 C 0.9051(3) 0.8293(4) 0.85204(17)
C11_4 C 0.9164(3) 0.8184(5) 0.79783(18)
H7_4 H 0.9531 0.8725 0.7800
C12_4 C 0.8735(3) 0.7282(4) 0.77091(17)
C13_4 C 0.8173(3) 0.6537(4) 0.79643(18)
H8_4 H 0.7866 0.5943 0.7771
C15_4 C 0.9326(3) 0.2577(4) 0.94877(17)
C16_4 C 0.9529(3) 0.9246(4) 0.88295(18)
C17_4 C 0.8891(3) 0.7066(5) 0.71343(18)
O4_2 O 0.9822(2) 0.2808(3) 0.91189(14)
C18_4 C 0.2341(3) 0.1050(4) 0.99978(17)
H9_4 H 0.3142 0.2430 0.9798
C31_4 C 0.1741(3) 0.1247(4) 0.95610(17)
O11_4 O 0.1862(2) 0.2071(3) 0.92255(13)
C22_4 C 0.2687(3) 0.9995(4) 0.08020(17)
H11_4 H 0.1726 0.9592 0.0319
C24_4 C 0.2395(3) 0.9151(4) 0.12357(17)
H12_4 H 0.2124 0.9672 0.1504
H13_4 H 0.1972 0.8587 0.1091
C25_4 C 0.3046(3) 0.8364(4) 0.15044(18)
C26_4 C 0.3503(3) 0.7493(4) 0.12256(17)
H14_4 H 0.3439 0.7435 0.0858
C27_4 C 0.4051(3) 0.6707(4) 0.14796(17)
C28_4 C 0.4164(3) 0.6816(5) 0.20217(18)
H15_4 H 0.4531 0.6275 0.2200
C29_4 C 0.3735(3) 0.7718(4) 0.22909(17)
C30_4 C 0.3173(3) 0.8463(4) 0.20357(18)
H16_4 H 0.2866 0.9057 0.2229
C33_4 C 0.4529(3) 0.5754(4) 0.11705(18)
C34_4 C 0.3891(3) 0.7934(5) 0.28657(18)
C35 C 0.6647(8) 0.4881(11) 0.6164(6)
H17 H 0.6811 0.4356 0.6458
H18 H 0.6937 0.5678 0.6184
H19 H 0.6787 0.4464 0.5836
C36 C 0.5355(8) 0.5914(10) 0.5774(5)
H20 H 0.4762 0.6030 0.5824
H21 H 0.5455 0.5525 0.5435
H22 H 0.5631 0.6723 0.5787
N1 N 0.5677(5) 0.5118(9) 0.6186(4)
H23 H 0.5413 0.4363 0.6170
H24 H 0.5551 0.5471 0.6503
H20_2 H 0.0238 0.3970 0.0824
C35_2 C 0.8353(8) 0.5119(11) 0.1164(6)
H17_2 H 0.8189 0.5644 0.1458
H18_2 H 0.8063 0.4322 0.1184
H19_2 H 0.8213 0.5536 0.0836
C36_2 C 0.9645(8) 0.4086(10) 0.0774(5)
H21_2 H 0.9545 0.4475 0.0435
H22_2 H 0.9369 0.3277 0.0787
N1_2 N 0.9323(5) 0.4882(9) 0.1186(4)
H23_2 H 0.9587 0.5637 0.1170
H24_2 H 0.9449 0.4529 0.1503
H18_3 H 0.3063 0.0678 0.8816
C36_3 C 0.4645(8) 0.0914(10) 0.9226(5)
H20_3 H 0.5238 0.1030 0.9176
H21_3 H 0.4545 0.0525 0.9565
H22_3 H 0.4369 0.1723 0.9213
N1_3 N 0.4323(5) 0.0118(9) 0.8814(4)
H24_3 H 0.4449 0.0471 0.8497
C35_3 C 0.3353(8) 0.9881(11) 0.8836(6)
H17_3 H 0.3189 0.9356 0.8542
H19_3 H 0.3213 0.9464 0.9164
H23_3 H 0.4587 0.9363 0.8830
C35_4 C 0.1647(8) 0.0119(11) 0.3836(6)
H17_4 H 0.1811 0.0644 0.3542
H19_4 H 0.1787 0.0536 0.4164
H23_4 H 0.0413 0.0637 0.3830
H18_4 H 0.1937 0.9322 0.3816
C36_4 C 0.0355(8) 0.9086(10) 0.4226(5)
H21_4 H 0.0455 0.9475 0.4565
H22_4 H 0.0631 0.8277 0.4213
N1_4 N 0.0677(5) 0.9882(9) 0.3814(4)
H24_4 H 0.0551 0.9529 0.3497
H20_4 H 0.9762 0.8970 0.4176
C35_5 C 0.3353(8) 0.5119(11) 0.3836(6)
H17_5 H 0.3189 0.5644 0.3542
H18_5 H 0.3063 0.4322 0.3816
H19_5 H 0.3213 0.5536 0.4164
C36_5 C 0.4645(8) 0.4086(10) 0.4226(5)
H20_5 H 0.5238 0.3970 0.4176
H21_5 H 0.4545 0.4475 0.4565
H22_5 H 0.4369 0.3277 0.4213
N1_5 N 0.4323(5) 0.4882(9) 0.3814(4)
H23_5 H 0.4587 0.5637 0.3830
H24_5 H 0.4449 0.4529 0.3497
C35_6 C 0.1647(8) 0.4881(11) 0.8836(6)
H17_6 H 0.1811 0.4356 0.8542
H18_6 H 0.1937 0.5678 0.8816
H19_6 H 0.1787 0.4464 0.9164
C36_6 C 0.0355(8) 0.5914(10) 0.9226(5)
H21_6 H 0.0455 0.5525 0.9565
H22_6 H 0.0631 0.6723 0.9213
N1_6 N 0.0677(5) 0.5118(9) 0.8814(4)
H23_6 H 0.0413 0.4363 0.8830
H24_6 H 0.0551 0.5471 0.8497
H20_6 H 0.9762 0.6030 0.9176
C35_7 C 0.6647(8) 0.0119(11) 0.1164(6)
H17_7 H 0.6811 0.0644 0.1458
H19_7 H 0.6787 0.0536 0.0836
H23_7 H 0.5413 0.0637 0.1170
H18_7 H 0.6937 0.9322 0.1184
C36_7 C 0.5355(8) 0.9086(10) 0.0774(5)
H20_7 H 0.4762 0.8970 0.0824
H21_7 H 0.5455 0.9475 0.0435
H22_7 H 0.5631 0.8277 0.0787
N1_7 N 0.5677(5) 0.9882(9) 0.1186(4)
H24_7 H 0.5551 0.9529 0.1503
H20_8 H 0.0238 0.1030 0.5824
H18_8 H 0.8063 0.0678 0.6184
C36_8 C 0.9645(8) 0.0914(10) 0.5774(5)
H21_8 H 0.9545 0.0525 0.5435
H22_8 H 0.9369 0.1723 0.5787
N1_8 N 0.9323(5) 0.0118(9) 0.6186(4)
H24_8 H 0.9449 0.0471 0.6503
C35_8 C 0.8353(8) 0.9881(11) 0.6164(6)
H17_8 H 0.8189 0.9356 0.6458
H19_8 H 0.8213 0.9464 0.5836
H23_8 H 0.9587 0.9363 0.6170
loop_
_geom_bond_atom_site_label_1
_geom_bond_atom_site_label_2
_geom_bond_site_symmetry_1
_geom_bond_site_symmetry_2
Mn5 O6 1_555 1_555
Mn1 O1 1_555 1_555
Mn2 O1 1_555 1_555
C1 C2 1_555 1_555
C2 H1 1_555 1_555
C3 C2 1_555 1_555
C4 C3 1_555 1_555
H2 C4 1_555 1_555
C5 C4 1_555 1_555
C6 C1 1_555 1_555
H3 C6 1_555 1_555
C7 C5 1_555 1_555
H4 C7 1_555 1_555
H5 C7 1_555 1_555
C8 C7 1_555 1_555
C9 C8 1_555 1_555
H6 C9 1_555 1_555
C10 C9 1_555 1_555
C11 C10 1_555 1_555
H7 C11 1_555 1_555
C12 C11 1_555 1_555
C13 C8 1_555 1_555
H8 C13 1_555 1_555
C14 C1 1_555 1_555
C15 C3 1_555 1_555
C16 C10 1_555 1_555
C17 C12 1_555 1_555
O1 C14 1_555 1_555
O2 Mn1 1_555 1_555
O3 C15 1_555 1_555
O4 C15 1_555 1_555
O5 C16 1_555 1_555
O7 C17 1_555 1_555
O8 C17 1_555 1_555
Mn5 O4 1_555 1_555
Mn6 O7 1_555 1_555
Mn10 O3 1_555 1_555
Mn10_2 O5 1_555 1_555
O13 Mn2 1_555 1_555
O18 Mn2 1_555 1_555
O23 Mn1 1_555 1_555
O26 Mn1 1_555 1_555
C5 C6 1_555 1_555
C12 C13 1_555 1_555
C14 O2 1_555 1_555
O8 Mn6 1_555 1_555
Mn5 O9 1_555 1_555
Mn10 O9 1_555 1_555
C18 C19 1_555 1_555
C19 H9 1_555 1_555
C20 C19 1_555 1_555
C21 C20 1_555 1_555
H10 C21 1_555 1_555
C23 C18 1_555 1_555
C31 C18 1_555 1_555
C32 C20 1_555 1_555
O9 C31 1_555 1_555
O10 Mn2_2 1_555 1_555
O11 Mn5 1_555 1_555
O12 Mn2_2 1_555 1_555
O17 Mn2_2 1_555 1_555
O24 Mn5 1_555 1_555
O27 Mn5 1_555 1_555
C31 O11 1_555 1_555
C32 O12 1_555 1_555
C32 O14 1_555 1_555
Mn8 O22 1_555 1_555
C24 C22 1_555 1_555
H12 C24 1_555 1_555
H13 C24 1_555 1_555
C25 C24 1_555 1_555
C26 C25 1_555 1_555
H14 C26 1_555 1_555
C27 C26 1_555 1_555
C28 C27 1_555 1_555
H15 C28 1_555 1_555
C29 C28 1_555 1_555
C30 C25 1_555 1_555
H16 C30 1_555 1_555
C33 C27 1_555 1_555
C34 C29 1_555 1_555
O17 C33 1_555 1_555
O20 C33 1_555 1_555
O22 C34 1_555 1_555
O25 Mn8 1_555 1_555
C29 C30 1_555 1_555
C34 O25 1_555 1_555
Mn6 O19 1_555 1_555
Mn12_2 O16 1_555 1_555
C24_2 C22_2 1_555 1_555
H12_2 C24_2 1_555 1_555
H13_2 C24_2 1_555 1_555
C25_2 C24_2 1_555 1_555
C26_2 C25_2 1_555 1_555
H14_2 C26_2 1_555 1_555
C27_2 C26_2 1_555 1_555
C28_2 C27_2 1_555 1_555
H15_2 C28_2 1_555 1_555
C29_2 C28_2 1_555 1_555
C30_2 C25_2 1_555 1_555
H16_2 C30_2 1_555 1_555
C33_2 C27_2 1_555 1_555
C34_2 C29_2 1_555 1_555
O16 C33_2 1_555 1_555
O19 C33_2 1_555 1_555
O24 C34_2 1_555 1_555
C29_2 C30_2 1_555 1_555
C34_2 O27 1_555 1_555
C3_2 C2_2 1_555 1_555
C4_2 C3_2 1_555 1_555
H2_2 C4_2 1_555 1_555
C5_2 C4_2 1_555 1_555
H3_2 C6_2 1_555 1_555
C7_2 C5_2 1_555 1_555
H4_2 C7_2 1_555 1_555
H5_2 C7_2 1_555 1_555
C8_2 C7_2 1_555 1_555
C9_2 C8_2 1_555 1_555
H6_2 C9_2 1_555 1_555
C10_2 C9_2 1_555 1_555
C11_2 C10_2 1_555 1_555
H7_2 C11_2 1_555 1_555
C12_2 C11_2 1_555 1_555
C13_2 C8_2 1_555 1_555
H8_2 C13_2 1_555 1_555
C15_2 C3_2 1_555 1_555
C16_2 C10_2 1_555 1_555
C17_2 C12_2 1_555 1_555
O3_2 C15_2 1_555 1_555
O15 C15_2 1_555 1_555
O5_2 C16_2 1_555 1_555
O23 C17_2 1_555 1_555
O26 C17_2 1_555 1_555
Mn8 O9_2 1_555 1_555
Mn11_3 O3_2 1_555 1_555
Mn11 O5_2 1_555 1_555
Mn11_7 O9_2 1_555 1_555
C31_2 C18_2 1_555 1_555
O9_2 C31_2 1_555 1_555
O10_2 Mn12 1_555 1_555
O11_2 Mn8 1_555 1_555
O13_2 Mn12 1_555 1_555
O18_2 Mn12 1_555 1_555
C5_2 C6_2 1_555 1_555
C12_2 C13_2 1_555 1_555
C31_2 O11_2 1_555 1_555
Mn6 O1_2 1_555 1_555
Mn12_2 O1_2 1_555 1_555
C14_2 C1_2 1_555 1_555
O1_2 C14_2 1_555 1_555
O2_2 Mn6 1_555 1_555
C20_2 C19_2 1_555 1_555
C21_2 C20_2 1_555 1_555
H10_2 C21_2 1_555 1_555
C32_2 C20_2 1_555 1_555
O12_2 Mn12_2 1_555 1_555
O14_2 Mn6 1_555 1_555
C14_2 O2_2 1_555 1_555
C32_2 O12_2 1_555 1_555
C32_2 O14_2 1_555 1_555
O10_3 Mn11_2 1_555 1_555
O13_3 Mn11_6 1_555 1_555
O18_3 Mn11_8 1_555 1_555
O18_4 Mn10 1_555 1_555
O10_4 Mn10_2 1_555 1_555
O13_4 Mn10_2 1_555 1_555
Mn8_2 O22_2 1_555 1_555
C24_3 C22_3 1_555 1_555
H12_3 C24_3 1_555 1_555
H13_3 C24_3 1_555 1_555
C25_3 C24_3 1_555 1_555
C26_3 C25_3 1_555 1_555
H14_3 C26_3 1_555 1_555
C27_3 C26_3 1_555 1_555
C28_3 C27_3 1_555 1_555
H15_3 C28_3 1_555 1_555
C29_3 C28_3 1_555 1_555
C30_3 C25_3 1_555 1_555
H16_3 C30_3 1_555 1_555
C33_3 C27_3 1_555 1_555
C34_3 C29_3 1_555 1_555
O18 C33_3 1_555 1_555
O19_2 C33_3 1_555 1_555
O22_2 C34_3 1_555 1_555
O25_2 Mn8_2 1_555 1_555
C29_3 C30_3 1_555 1_555
C34_3 O25_2 1_555 1_555
Mn3 O10_4 1_555 1_555
C18_3 C19_3 1_555 1_555
C19_3 H9_3 1_555 1_555
C20_3 C19_3 1_555 1_555
C21_3 C20_3 1_555 1_555
H10_3 C21_3 1_555 1_555
C23_3 C18_3 1_555 1_555
C31_3 C18_3 1_555 1_555
C32_3 C20_3 1_555 1_555
O10_4 C31_3 1_555 1_555
O11_3 Mn3 1_555 1_555
O15_2 Mn3 1_555 1_555
O21_2 Mn3 1_555 1_555
O24_2 Mn3 1_555 1_555
O27_2 Mn3 1_555 1_555
C31_3 O11_3 1_555 1_555
C32_3 O13 1_555 1_555
C32_3 O14_3 1_555 1_555
Mn7 O10 1_555 1_555
C1_3 C2_3 1_555 1_555
C2_3 H1_3 1_555 1_555
C3_3 C2_3 1_555 1_555
C4_3 C3_3 1_555 1_555
H2_3 C4_3 1_555 1_555
C5_3 C4_3 1_555 1_555
C6_3 C1_3 1_555 1_555
H3_3 C6_3 1_555 1_555
C7_3 C5_3 1_555 1_555
H4_3 C7_3 1_555 1_555
H5_3 C7_3 1_555 1_555
C8_3 C7_3 1_555 1_555
C9_3 C8_3 1_555 1_555
H6_3 C9_3 1_555 1_555
C10_3 C9_3 1_555 1_555
C11_3 C10_3 1_555 1_555
H7_3 C11_3 1_555 1_555
C12_3 C11_3 1_555 1_555
C13_3 C8_3 1_555 1_555
H8_3 C13_3 1_555 1_555
C14_3 C1_3 1_555 1_555
C15_3 C3_3 1_555 1_555
C16_3 C10_3 1_555 1_555
C17_3 C12_3 1_555 1_555
O10 C14_3 1_555 1_555
O2_3 Mn7 1_555 1_555
O13_4 C15_3 1_555 1_555
O15_2 C15_3 1_555 1_555
O18_4 C16_3 1_555 1_555
O7_2 C17_3 1_555 1_555
O8_2 C17_3 1_555 1_555
Mn6_2 O7_2 1_555 1_555
O23_2 Mn7 1_555 1_555
O26_2 Mn7 1_555 1_555
C5_3 C6_3 1_555 1_555
C12_3 C13_3 1_555 1_555
C14_3 O2_3 1_555 1_555
O8_2 Mn6_2 1_555 1_555
Mn6_2 O10_2 1_555 1_555
C14_4 C1_4 1_555 1_555
O10_2 C14_4 1_555 1_555
O2_4 Mn6_2 1_555 1_555
C20_4 C19_4 1_555 1_555
C21_4 C20_4 1_555 1_555
H10_4 C21_4 1_555 1_555
C32_4 C20_4 1_555 1_555
O14_4 Mn6_2 1_555 1_555
O20_2 Mn6_2 1_555 1_555
C14_4 O2_4 1_555 1_555
C32_4 O13_2 1_555 1_555
C32_4 O14_4 1_555 1_555
C3_4 C2_4 1_555 1_555
C4_4 C3_4 1_555 1_555
H2_4 C4_4 1_555 1_555
C5_4 C4_4 1_555 1_555
H3_4 C6_4 1_555 1_555
C7_4 C5_4 1_555 1_555
H4_4 C7_4 1_555 1_555
H5_4 C7_4 1_555 1_555
C8_4 C7_4 1_555 1_555
C9_4 C8_4 1_555 1_555
H6_4 C9_4 1_555 1_555
C10_4 C9_4 1_555 1_555
C11_4 C10_4 1_555 1_555
H7_4 C11_4 1_555 1_555
C12_4 C11_4 1_555 1_555
C13_4 C8_4 1_555 1_555
H8_4 C13_4 1_555 1_555
C15_4 C3_4 1_555 1_555
C16_4 C10_4 1_555 1_555
C17_4 C12_4 1_555 1_555
O13_3 C15_4 1_555 1_555
O4_2 C15_4 1_555 1_555
O18_3 C16_4 1_555 1_555
O23_2 C17_4 1_555 1_555
O26_2 C17_4 1_555 1_555
Mn8_2 O10_3 1_555 1_555
C31_4 C18_4 1_555 1_555
O10_3 C31_4 1_555 1_555
O11_4 Mn8_2 1_555 1_555
C5_4 C6_4 1_555 1_555
C12_4 C13_4 1_555 1_555
C31_4 O11_4 1_555 1_555
C24_4 C22_4 1_555 1_555
H12_4 C24_4 1_555 1_555
H13_4 C24_4 1_555 1_555
C25_4 C24_4 1_555 1_555
C26_4 C25_4 1_555 1_555
H14_4 C26_4 1_555 1_555
C27_4 C26_4 1_555 1_555
C28_4 C27_4 1_555 1_555
H15_4 C28_4 1_555 1_555
C29_4 C28_4 1_555 1_555
C30_4 C25_4 1_555 1_555
H16_4 C30_4 1_555 1_555
C33_4 C27_4 1_555 1_555
C34_4 C29_4 1_555 1_555
O18_2 C33_4 1_555 1_555
O20_2 C33_4 1_555 1_555
O24_2 C34_4 1_555 1_555
C29_4 C30_4 1_555 1_555
C34_4 O27_2 1_555 1_555
C35 H17 1_555 1_555
H18 C35 1_555 1_555
H19 C35 1_555 1_555
C36 H20 1_555 1_555
H21 C36 1_555 1_555
H22 C36 1_555 1_555
N1 C35 1_555 1_555
H23 N1 1_555 1_555
H24 N1 1_555 1_555
C36 N1 1_555 1_555
C35_2 H17_2 1_555 1_555
H18_2 C35_2 1_555 1_555
H19_2 C35_2 1_555 1_555
H21_2 C36_2 1_555 1_555
H22_2 C36_2 1_555 1_555
N1_2 C35_2 1_555 1_555
H23_2 N1_2 1_555 1_555
H24_2 N1_2 1_555 1_555
C36_2 N1_2 1_555 1_555
C36_3 H20_3 1_555 1_555
H21_3 C36_3 1_555 1_555
H22_3 C36_3 1_555 1_555
H24_3 N1_3 1_555 1_555
C36_3 N1_3 1_555 1_555
C35_3 H17_3 1_555 1_555
H19_3 C35_3 1_555 1_555
C35_4 H17_4 1_555 1_555
H19_4 C35_4 1_555 1_555
H21_4 C36_4 1_555 1_555
H22_4 C36_4 1_555 1_555
H24_4 N1_4 1_555 1_555
C36_4 N1_4 1_555 1_555
C35_5 H17_5 1_555 1_555
H18_5 C35_5 1_555 1_555
H19_5 C35_5 1_555 1_555
C36_5 H20_5 1_555 1_555
H21_5 C36_5 1_555 1_555
H22_5 C36_5 1_555 1_555
N1_5 C35_5 1_555 1_555
H23_5 N1_5 1_555 1_555
H24_5 N1_5 1_555 1_555
C36_5 N1_5 1_555 1_555
C35_6 H17_6 1_555 1_555
H18_6 C35_6 1_555 1_555
H19_6 C35_6 1_555 1_555
H21_6 C36_6 1_555 1_555
H22_6 C36_6 1_555 1_555
N1_6 C35_6 1_555 1_555
H23_6 N1_6 1_555 1_555
H24_6 N1_6 1_555 1_555
C36_6 N1_6 1_555 1_555
C35_7 H17_7 1_555 1_555
H19_7 C35_7 1_555 1_555
C36_7 H20_7 1_555 1_555
H21_7 C36_7 1_555 1_555
H22_7 C36_7 1_555 1_555
H24_7 N1_7 1_555 1_555
C36_7 N1_7 1_555 1_555
H21_8 C36_8 1_555 1_555
H22_8 C36_8 1_555 1_555
H24_8 N1_8 1_555 1_555
C36_8 N1_8 1_555 1_555
C35_8 H17_8 1_555 1_555
H19_8 C35_8 1_555 1_555

#END
