
###############################################################################
#
# This file contains modified crystal structure data generated from the
# MOF subset of the Cambridge Structural Database (CSD) v543 
# hosted by the Cambridge Crystallographic Data Centre (CCDC).
#
# This work is licensed under the Creative Commons
# Attribution-NonCommercial-ShareAlike 4.0 International License.
# To view a copy of this license, visit
# http://creativecommons.org/licenses/by-nc-sa/4.0/
# or send a letter to
# Creative Commons, PO Box 1866, Mountain View, CA 94042, USA.
#
# CIF created using the CSD Python API on 29 September 2022
# The structure has been converted into the P1 space group
# The structure has a 3D framework
# The original CSD entry EBIMOT is in the orthorhombic crystal system
# The framework has been calculated to contain at least 10.0% void space
# The void calculation uses a probe of radius 1.32A, grid spacing 0.4
# The framework is charged, counterions have been retained in the structure
# H atom positions have been added when not included in the experimental data
#
###############################################################################

data_EBIMOT
_chemical_formula_moiety         '(C156 H128 Mg11 N8 O62 4-)n'
_symmetry_cell_setting           triclinic
_symmetry_space_group_name_H-M   'P 1'
_symmetry_Int_Tables_number      1
_space_group_name_Hall           'P 1'
loop_
_symmetry_equiv_pos_site_id
_symmetry_equiv_pos_as_xyz
1 x,y,z
_cell_length_a                   10.7810(5)
_cell_length_b                   15.8837(7)
_cell_length_c                   25.1737(11)
_cell_angle_alpha                90
_cell_angle_beta                 90
_cell_angle_gamma                90
_cell_volume                     4310.8
loop_
_atom_site_label
_atom_site_type_symbol
_atom_site_fract_x
_atom_site_fract_y
_atom_site_fract_z
Mg10 Mg 0.07241(16) 0.67011(12) 0.48331(7)
Mg1 Mg 0.29454(17) 0.17574(11) 0.71825(7)
Mg2 Mg 0.43367(17) 0.24978(12) 0.60260(7)
C1 C 0.3260(5) 0.0132(4) 0.5993(2)
C6 C 0.4153(5) 0.0274(3) 0.5607(2)
H3 H 0.4715 0.0729 0.5650
C7 C 0.5045(5) 0.0037(4) 0.4706(2)
H4 H 0.5512 0.0540 0.4824
H5 H 0.4490 0.0221 0.4415
C14 C 0.3123(5) 0.0732(3) 0.6435(2)
C18 C 0.0460(5) 0.5168(4) 0.6105(2)
C19 C 0.1219(5) 0.4474(4) 0.6146(2)
H9 H 0.1845 0.4382 0.5887
C20 C 0.1078(5) 0.3913(3) 0.6558(2)
C21 C 0.0217(5) 0.4063(4) 0.6958(2)
H10 H 0.0143 0.3686 0.7249
C31 C 0.0599(5) 0.5774(4) 0.5645(2)
C32 C 0.1908(5) 0.3138(3) 0.6591(2)
O1 O 0.3770(3) 0.1398(2) 0.64564(14)
O2 O 0.2335(4) 0.0606(3) 0.68076(15)
O10 O 0.1369(3) 0.5628(2) 0.52860(14)
O11 O 0.2779(3) 0.3100(3) 0.62724(16)
O12 O 0.1650(4) 0.2584(3) 0.69390(15)
O18 O 0.5870(3) 0.1879(2) 0.58059(15)
O19 O 0.3806(4) 0.0949(3) 0.78077(16)
O20 O 0.2103(4) 0.1678(3) 0.79112(15)
O22 O 0.3344(4) 0.2114(3) 0.53786(14)
O23 O 0.4910(3) 0.3578(2) 0.56197(13)
O27 O 0.4237(4) 0.2620(3) 0.73840(15)
O28 O 0.5397(4) 0.2887(3) 0.66725(14)
C2 C 0.2484(5) 0.9429(4) 0.5952(2)
H1 H 0.1884 0.9322 0.6220
C3 C 0.2588(5) 0.8884(3) 0.5519(2)
C4 C 0.3452(5) 0.9063(3) 0.5121(2)
H2 H 0.3507 0.8704 0.4821
C5 C 0.4245(5) 0.9766(3) 0.5157(2)
C8 C 0.5967(5) 0.9429(4) 0.4473(2)
C9 C 0.6021(5) 0.9333(4) 0.3921(2)
H6 H 0.5428 0.9607 0.3702
C10 C 0.6945(5) 0.8833(4) 0.3691(2)
C11 C 0.7769(5) 0.8395(4) 0.4012(2)
H7 H 0.8391 0.8053 0.3854
C12 C 0.7691(5) 0.8454(4) 0.4557(2)
C13 C 0.6786(5) 0.8965(4) 0.4783(2)
H8 H 0.6727 0.8999 0.5159
C15 C 0.1735(5) 0.8141(3) 0.5476(2)
C16 C 0.7010(5) 0.8737(4) 0.3102(2)
C17 C 0.8581(5) 0.7957(3) 0.4894(2)
O3 O 0.0870(3) 0.8121(2) 0.58059(15)
O4 O 0.1938(4) 0.7602(2) 0.51259(15)
O5 O 0.6194(4) 0.9051(3) 0.28077(16)
O6 O 0.7897(4) 0.8322(3) 0.29112(15)
O7 O 0.9513(4) 0.7645(3) 0.46642(15)
O8 O 0.8344(4) 0.7886(3) 0.53786(14)
Mg4 Mg 0.70546(17) 0.82426(11) 0.21825(7)
Mg7 Mg 0.93367(17) 0.75022(12) 0.60260(7)
O26 O 0.1778(4) 0.6544(3) 0.41786(16)
C22 C 0.9466(5) 0.4771(3) 0.6926(2)
C23 C 0.9558(5) 0.5301(3) 0.6492(2)
H11 H 0.9001 0.5761 0.6457
C24 C 0.8615(5) 0.5013(4) 0.7393(2)
H12 H 0.8052 0.5467 0.7274
H13 H 0.9137 0.5246 0.7682
C25 C 0.7840(5) 0.4313(4) 0.7620(2)
C26 C 0.7941(5) 0.4065(4) 0.8144(2)
H14 H 0.8559 0.4313 0.8364
C27 C 0.7146(5) 0.3455(4) 0.8358(2)
C28 C 0.6230(5) 0.3102(4) 0.8048(2)
H15 H 0.5665 0.2711 0.8199
C29 C 0.6129(5) 0.3321(4) 0.7507(2)
C30 C 0.6931(5) 0.3932(3) 0.7301(2)
H16 H 0.6858 0.4093 0.6939
C33 C 0.7305(5) 0.3188(4) 0.8928(2)
C34 C 0.5189(5) 0.2909(3) 0.7164(2)
O9 O 0.9910(3) 0.6422(2) 0.56197(13)
O13 O 0.8222(4) 0.3456(3) 0.91786(16)
O14 O 0.6487(4) 0.2703(3) 0.91151(17)
H24 H 0.6657 0.2589 0.9433
Mg12 Mg 0.92759(16) 0.32989(12) 0.98331(7)
C35 C 0.8264(8) 0.5952(6) 0.4364(3)
H17 H 0.7675 0.5838 0.4636
C36 C 0.8725(7) 0.6293(6) 0.3431(3)
H18 H 0.9579 0.6213 0.3555
H19 H 0.8547 0.5893 0.3145
H20 H 0.8623 0.6869 0.3299
C37 C 0.6559(7) 0.6253(6) 0.3776(3)
H21 H 0.6086 0.6122 0.4098
H22 H 0.6398 0.6836 0.3670
H23 H 0.6305 0.5872 0.3489
O17 O 0.9396(5) 0.5915(4) 0.4475(2)
N1 N 0.7854(6) 0.6147(4) 0.3879(3)
Mg6 Mg 0.06633(17) 0.24978(12) 0.10260(7)
O24 O 0.0090(3) 0.3578(2) 0.06197(13)
C35_2 C 0.1736(8) 0.4048(6) 0.9364(3)
H17_2 H 0.2325 0.4162 0.9636
C36_2 C 0.1275(7) 0.3707(6) 0.8431(3)
H18_2 H 0.0421 0.3787 0.8555
H19_2 H 0.1453 0.4107 0.8145
H20_2 H 0.1377 0.3131 0.8299
C37_2 C 0.3441(7) 0.3747(6) 0.8776(3)
H21_2 H 0.3914 0.3878 0.9098
H22_2 H 0.3602 0.3164 0.8670
H23_2 H 0.3695 0.4128 0.8489
O17_2 O 0.0604(5) 0.4085(4) 0.9475(2)
N1_2 N 0.2146(6) 0.3853(4) 0.8879(3)
O21 O 0.0487(4) 0.2355(3) 0.96642(15)
C22_2 C 0.0534(5) 0.5229(3) 0.1926(2)
C23_2 C 0.0442(5) 0.4699(3) 0.1492(2)
H11_2 H 0.0999 0.4239 0.1457
C24_2 C 0.1385(5) 0.4987(4) 0.2393(2)
H12_2 H 0.1948 0.4533 0.2274
H13_2 H 0.0863 0.4754 0.2682
C25_2 C 0.2160(5) 0.5687(4) 0.2620(2)
C26_2 C 0.2059(5) 0.5935(4) 0.3144(2)
H14_2 H 0.1441 0.5687 0.3364
C27_2 C 0.2854(5) 0.6545(4) 0.3358(2)
C28_2 C 0.3770(5) 0.6898(4) 0.3048(2)
H15_2 H 0.4335 0.7289 0.3199
C29_2 C 0.3871(5) 0.6679(4) 0.2507(2)
C30_2 C 0.3069(5) 0.6068(3) 0.2301(2)
H16_2 H 0.3142 0.5907 0.1939
C33_2 C 0.2695(5) 0.6812(4) 0.3928(2)
C34_2 C 0.4811(5) 0.7091(3) 0.2164(2)
O14_2 O 0.3513(4) 0.7297(3) 0.41151(17)
H24_2 H 0.3343 0.7411 0.4433
O15 O 0.5763(4) 0.7380(3) 0.23840(15)
O16 O 0.4603(4) 0.7113(3) 0.16725(14)
Mg9 Mg 0.56633(17) 0.75022(12) 0.10260(7)
C2_2 C 0.7516(5) 0.0571(4) 0.0952(2)
H1_2 H 0.8116 0.0678 0.1220
C3_2 C 0.7412(5) 0.1116(3) 0.0519(2)
C4_2 C 0.6548(5) 0.0937(3) 0.0121(2)
C5_2 C 0.5755(5) 0.0234(3) 0.0157(2)
H8_2 H 0.3273 0.1001 0.0159
C15_2 C 0.8265(5) 0.1859(3) 0.0476(2)
O3_2 O 0.9130(3) 0.1879(2) 0.08059(15)
O4_2 O 0.8062(4) 0.2398(2) 0.01259(15)
O8_2 O 0.1656(4) 0.2114(3) 0.03786(14)
O25 O 0.8631(3) 0.4372(2) 0.02860(14)
H2_2 H 0.6493 0.1296 0.9821
C8_2 C 0.4033(5) 0.0571(4) 0.9473(2)
C9_2 C 0.3979(5) 0.0667(4) 0.8921(2)
H6_2 H 0.4572 0.0393 0.8702
C10_2 C 0.3055(5) 0.1167(4) 0.8691(2)
C11_2 C 0.2231(5) 0.1605(4) 0.9012(2)
H7_2 H 0.1609 0.1947 0.8854
C12_2 C 0.2309(5) 0.1546(4) 0.9557(2)
C13_2 C 0.3214(5) 0.1035(4) 0.9783(2)
C16_2 C 0.2990(5) 0.1263(4) 0.8102(2)
C17_2 C 0.1419(5) 0.2043(3) 0.9894(2)
C1_2 C 0.6740(5) 0.9868(4) 0.0993(2)
C6_2 C 0.5847(5) 0.9726(3) 0.0607(2)
H3_2 H 0.5285 0.9271 0.0650
C14_2 C 0.6877(5) 0.9268(3) 0.1435(2)
C18_2 C 0.9540(5) 0.4832(4) 0.1105(2)
C19_2 C 0.8781(5) 0.5526(4) 0.1146(2)
H9_2 H 0.8155 0.5618 0.0887
C20_2 C 0.8922(5) 0.6087(3) 0.1558(2)
C21_2 C 0.9783(5) 0.5937(4) 0.1958(2)
H10_2 H 0.9857 0.6314 0.2249
C31_2 C 0.9401(5) 0.4226(4) 0.0645(2)
C32_2 C 0.8092(5) 0.6862(3) 0.1591(2)
O1_2 O 0.6230(3) 0.8602(2) 0.14564(14)
O2_2 O 0.7665(4) 0.9394(3) 0.18076(15)
O11_2 O 0.7221(3) 0.6900(3) 0.12724(16)
O12_2 O 0.8350(4) 0.7416(3) 0.19390(15)
O18_2 O 0.4130(3) 0.8121(2) 0.08059(15)
O22_2 O 0.6656(4) 0.7886(3) 0.03786(14)
O23_2 O 0.5090(3) 0.6422(2) 0.06197(13)
C7_2 C 0.4955(5) 0.9963(4) 0.9706(2)
H4_2 H 0.4488 0.9460 0.9824
H5_2 H 0.5510 0.9779 0.9415
C8_3 C 0.0967(5) 0.0571(4) 0.4473(2)
C9_3 C 0.1021(5) 0.0667(4) 0.3921(2)
H6_3 H 0.0428 0.0393 0.3702
C10_3 C 0.1945(5) 0.1167(4) 0.3691(2)
C11_3 C 0.2769(5) 0.1605(4) 0.4012(2)
H7_3 H 0.3391 0.1947 0.3854
C12_3 C 0.2691(5) 0.1546(4) 0.4557(2)
C13_3 C 0.1786(5) 0.1035(4) 0.4783(2)
H8_3 H 0.1727 0.1001 0.5159
C16_3 C 0.2010(5) 0.1263(4) 0.3102(2)
C17_3 C 0.3581(5) 0.2043(3) 0.4894(2)
O5_2 O 0.1194(4) 0.0949(3) 0.28077(16)
O6_2 O 0.2897(4) 0.1678(3) 0.29112(15)
O7_2 O 0.4513(4) 0.2355(3) 0.46642(15)
Mg4_2 Mg 0.20546(17) 0.17574(11) 0.21825(7)
Mg10_2 Mg 0.57241(16) 0.32989(12) 0.48331(7)
C7_3 C 0.0045(5) 0.9963(4) 0.4706(2)
H4_3 H 0.0512 0.9460 0.4824
O28_2 O 0.0397(4) 0.7113(3) 0.66725(14)
C2_3 C 0.7484(5) 0.0571(4) 0.5952(2)
H1_3 H 0.6884 0.0678 0.6220
C3_3 C 0.7588(5) 0.1116(3) 0.5519(2)
C4_3 C 0.8452(5) 0.0937(3) 0.5121(2)
H2_3 H 0.8507 0.1296 0.4821
C5_3 C 0.9245(5) 0.0234(3) 0.5157(2)
C15_3 C 0.6735(5) 0.1859(3) 0.5476(2)
C35_3 C 0.3264(8) 0.4048(6) 0.4364(3)
H17_3 H 0.2675 0.4162 0.4636
C36_3 C 0.3725(7) 0.3707(6) 0.3431(3)
H18_3 H 0.4579 0.3787 0.3555
H19_3 H 0.3547 0.4107 0.3145
H20_3 H 0.3623 0.3131 0.3299
C37_3 C 0.1559(7) 0.3747(6) 0.3776(3)
H21_3 H 0.1086 0.3878 0.4098
H22_3 H 0.1398 0.3164 0.3670
H23_3 H 0.1305 0.4128 0.3489
O4_3 O 0.6938(4) 0.2398(2) 0.51259(15)
O17_3 O 0.4396(5) 0.4085(4) 0.4475(2)
N1_3 N 0.2854(6) 0.3853(4) 0.3879(3)
O25_2 O 0.6369(3) 0.4372(2) 0.52860(14)
O26_2 O 0.6778(4) 0.3456(3) 0.41786(16)
Mg1_2 Mg 0.79454(17) 0.82426(11) 0.71825(7)
C1_3 C 0.8260(5) 0.9868(4) 0.5993(2)
C6_3 C 0.9153(5) 0.9726(3) 0.5607(2)
H3_3 H 0.9715 0.9271 0.5650
H5_3 H 0.9490 0.9779 0.4415
C14_3 C 0.8123(5) 0.9268(3) 0.6435(2)
C18_3 C 0.5460(5) 0.4832(4) 0.6105(2)
C19_3 C 0.6219(5) 0.5526(4) 0.6146(2)
H9_3 H 0.6845 0.5618 0.5887
C20_3 C 0.6078(5) 0.6087(3) 0.6558(2)
C21_3 C 0.5217(5) 0.5937(4) 0.6958(2)
H10_3 H 0.5143 0.6314 0.7249
C22_3 C 0.4466(5) 0.5229(3) 0.6926(2)
C23_3 C 0.4558(5) 0.4699(3) 0.6492(2)
H11_3 H 0.4001 0.4239 0.6457
C24_3 C 0.3615(5) 0.4987(4) 0.7393(2)
H12_3 H 0.3052 0.4533 0.7274
H13_3 H 0.4137 0.4754 0.7682
C25_3 C 0.2840(5) 0.5687(4) 0.7620(2)
C26_3 C 0.2941(5) 0.5935(4) 0.8144(2)
H14_3 H 0.3559 0.5687 0.8364
C27_3 C 0.2146(5) 0.6545(4) 0.8358(2)
C28_3 C 0.1230(5) 0.6898(4) 0.8048(2)
H15_3 H 0.0665 0.7289 0.8199
C29_3 C 0.1129(5) 0.6679(4) 0.7507(2)
C30_3 C 0.1931(5) 0.6068(3) 0.7301(2)
H16_3 H 0.1858 0.5907 0.6939
C31_3 C 0.5599(5) 0.4226(4) 0.5645(2)
C32_3 C 0.6908(5) 0.6862(3) 0.6591(2)
C33_3 C 0.2305(5) 0.6812(4) 0.8928(2)
C34_3 C 0.0189(5) 0.7091(3) 0.7164(2)
O1_3 O 0.8770(3) 0.8602(2) 0.64564(14)
O2_3 O 0.7335(4) 0.9394(3) 0.68076(15)
O11_3 O 0.7779(3) 0.6900(3) 0.62724(16)
O12_3 O 0.6650(4) 0.7416(3) 0.69390(15)
O13_2 O 0.3222(4) 0.6544(3) 0.91786(16)
O14_3 O 0.1487(4) 0.7297(3) 0.91151(17)
H24_3 H 0.1657 0.7411 0.9433
Mg12_2 Mg 0.42759(16) 0.67011(12) 0.98331(7)
O19_2 O 0.8806(4) 0.9051(3) 0.78077(16)
O20_2 O 0.7103(4) 0.8322(3) 0.79112(15)
O27_2 O 0.9237(4) 0.7380(3) 0.73840(15)
O15_2 O 0.0763(4) 0.2620(3) 0.23840(15)
C1_4 C 0.1740(5) 0.0132(4) 0.0993(2)
C6_4 C 0.0847(5) 0.0274(3) 0.0607(2)
H3_4 H 0.0285 0.0729 0.0650
C14_4 C 0.1877(5) 0.0732(3) 0.1435(2)
C18_4 C 0.4540(5) 0.5168(4) 0.1105(2)
C19_4 C 0.3781(5) 0.4474(4) 0.1146(2)
H9_4 H 0.3155 0.4382 0.0887
C20_4 C 0.3922(5) 0.3913(3) 0.1558(2)
C21_4 C 0.4783(5) 0.4063(4) 0.1958(2)
H10_4 H 0.4857 0.3686 0.2249
C22_4 C 0.5534(5) 0.4771(3) 0.1926(2)
C23_4 C 0.5442(5) 0.5301(3) 0.1492(2)
H11_4 H 0.5999 0.5761 0.1457
C24_4 C 0.6385(5) 0.5013(4) 0.2393(2)
H12_4 H 0.6948 0.5467 0.2274
H13_4 H 0.5863 0.5246 0.2682
C25_4 C 0.7160(5) 0.4313(4) 0.2620(2)
C26_4 C 0.7059(5) 0.4065(4) 0.3144(2)
H14_4 H 0.6441 0.4313 0.3364
C27_4 C 0.7854(5) 0.3455(4) 0.3358(2)
C28_4 C 0.8770(5) 0.3102(4) 0.3048(2)
H15_4 H 0.9335 0.2711 0.3199
C29_4 C 0.8871(5) 0.3321(4) 0.2507(2)
C30_4 C 0.8069(5) 0.3932(3) 0.2301(2)
H16_4 H 0.8142 0.4093 0.1939
C31_4 C 0.4401(5) 0.5774(4) 0.0645(2)
C32_4 C 0.3092(5) 0.3138(3) 0.1591(2)
C33_4 C 0.7695(5) 0.3188(4) 0.3928(2)
C34_4 C 0.9811(5) 0.2909(3) 0.2164(2)
O1_4 O 0.1230(3) 0.1398(2) 0.14564(14)
O2_4 O 0.2665(4) 0.0606(3) 0.18076(15)
O10_2 O 0.3631(3) 0.5628(2) 0.02860(14)
O11_4 O 0.2221(3) 0.3100(3) 0.12724(16)
O12_4 O 0.3350(4) 0.2584(3) 0.19390(15)
O14_4 O 0.8513(4) 0.2703(3) 0.41151(17)
H24_4 H 0.8343 0.2589 0.4433
O16_2 O 0.9603(4) 0.2887(3) 0.16725(14)
H5_4 H 0.0510 0.0221 0.9415
C2_4 C 0.2516(5) 0.9429(4) 0.0952(2)
H1_4 H 0.3116 0.9322 0.1220
C3_4 C 0.2412(5) 0.8884(3) 0.0519(2)
C4_4 C 0.1548(5) 0.9063(3) 0.0121(2)
C5_4 C 0.0755(5) 0.9766(3) 0.0157(2)
C15_4 C 0.3265(5) 0.8141(3) 0.0476(2)
O4_4 O 0.3062(4) 0.7602(2) 0.01259(15)
H2_4 H 0.1493 0.8704 0.9821
C35_4 C 0.6736(8) 0.5952(6) 0.9364(3)
H17_4 H 0.7325 0.5838 0.9636
C36_4 C 0.6275(7) 0.6293(6) 0.8431(3)
H18_4 H 0.5421 0.6213 0.8555
H19_4 H 0.6453 0.5893 0.8145
H20_4 H 0.6377 0.6869 0.8299
C37_4 C 0.8441(7) 0.6253(6) 0.8776(3)
H21_4 H 0.8914 0.6122 0.9098
H22_4 H 0.8602 0.6836 0.8670
H23_4 H 0.8695 0.5872 0.8489
O17_4 O 0.5604(5) 0.5915(4) 0.9475(2)
N1_4 N 0.7146(6) 0.6147(4) 0.8879(3)
O21_2 O 0.5487(4) 0.7645(3) 0.96642(15)
H8_4 H 0.8273 0.8999 0.0159
C8_4 C 0.9033(5) 0.9429(4) 0.9473(2)
C9_4 C 0.8979(5) 0.9333(4) 0.8921(2)
H6_4 H 0.9572 0.9607 0.8702
C10_4 C 0.8055(5) 0.8833(4) 0.8691(2)
C11_4 C 0.7231(5) 0.8395(4) 0.9012(2)
H7_4 H 0.6609 0.8053 0.8854
C12_4 C 0.7309(5) 0.8454(4) 0.9557(2)
C13_4 C 0.8214(5) 0.8965(4) 0.9783(2)
C16_4 C 0.7990(5) 0.8737(4) 0.8102(2)
C17_4 C 0.6419(5) 0.7957(3) 0.9894(2)
C7_4 C 0.9955(5) 0.0037(4) 0.9706(2)
H4_4 H 0.9488 0.0540 0.9824
H26 H 0.5257 0.4423 0.0221
C39 C 0.4694(7) 0.2782(5) 0.0242(4)
H28 H 0.4866 0.2212 0.0374
H30 H 0.4190 0.3086 0.0503
N2 N 0.5837(5) 0.3218(4) 0.0162(3)
H31 H 0.629424 0.322747 0.0514404
C38 C 0.5751(7) 0.4089(5) 0.9971(3)
H25 H 0.6585 0.4330 0.9943
H27 H 0.5353 0.4096 0.9621
H29 H 0.4243 0.2746 0.9905
H32 H 0.633888 0.288686 0.989234
C38_2 C 0.4249(7) 0.5911(5) 0.4971(3)
H25_2 H 0.3415 0.5670 0.4943
H26_2 H 0.4743 0.5577 0.5221
H27_2 H 0.4647 0.5904 0.4621
C39_2 C 0.5306(7) 0.7218(5) 0.5242(4)
H28_2 H 0.5134 0.7788 0.5374
H29_2 H 0.5757 0.7254 0.4905
H30_2 H 0.5810 0.6914 0.5503
N2_2 N 0.4163(5) 0.6782(4) 0.5162(3)
H31_2 H 0.370576 0.677253 0.55144
H32_2 H 0.366112 0.711314 0.489234
H26_3 H 0.0257 0.5577 0.0221
N2_3 N 0.0837(5) 0.6782(4) 0.0162(3)
H31_3 H 0.129424 0.677253 0.0514404
C38_3 C 0.0751(7) 0.5911(5) 0.9971(3)
H25_3 H 0.1585 0.5670 0.9943
H27_3 H 0.0353 0.5904 0.9621
H32_3 H 0.133888 0.711314 0.989234
C39_3 C 0.9694(7) 0.7218(5) 0.0242(4)
H28_3 H 0.9866 0.7788 0.0374
H30_3 H 0.9190 0.6914 0.0503
H29_3 H 0.9243 0.7254 0.9905
C39_4 C 0.0306(7) 0.2782(5) 0.5242(4)
H28_4 H 0.0134 0.2212 0.5374
H29_4 H 0.0757 0.2746 0.4905
H30_4 H 0.0810 0.3086 0.5503
C38_4 C 0.9249(7) 0.4089(5) 0.4971(3)
H25_4 H 0.8415 0.4330 0.4943
H26_4 H 0.9743 0.4423 0.5221
H27_4 H 0.9647 0.4096 0.4621
N2_4 N 0.9163(5) 0.3218(4) 0.5162(3)
H31_4 H 0.870576 0.322747 0.55144
H32_4 H 0.866112 0.288686 0.489234
loop_
_geom_bond_atom_site_label_1
_geom_bond_atom_site_label_2
_geom_bond_site_symmetry_1
_geom_bond_site_symmetry_2
Mg1 O1 1_555 1_555
Mg2 O1 1_555 1_555
C6 C1 1_555 1_555
H3 C6 1_555 1_555
H4 C7 1_555 1_555
H5 C7 1_555 1_555
C14 C1 1_555 1_555
C18 C19 1_555 1_555
C19 H9 1_555 1_555
C20 C19 1_555 1_555
C21 C20 1_555 1_555
H10 C21 1_555 1_555
C31 C18 1_555 1_555
C32 C20 1_555 1_555
O1 C14 1_555 1_555
O2 Mg1 1_555 1_555
O10 C31 1_555 1_555
O11 Mg2 1_555 1_555
O12 Mg1 1_555 1_555
O18 Mg2 1_555 1_555
O19 Mg1 1_555 1_555
O20 Mg1 1_555 1_555
O22 Mg2 1_555 1_555
O23 Mg2 1_555 1_555
O27 Mg1 1_555 1_555
O28 Mg2 1_555 1_555
C14 O2 1_555 1_555
C32 O11 1_555 1_555
C32 O12 1_555 1_555
O10 Mg10 1_555 1_555
Mg10 O4 1_555 1_555
C2 H1 1_555 1_555
C3 C2 1_555 1_555
C4 C3 1_555 1_555
H2 C4 1_555 1_555
C5 C4 1_555 1_555
C9 C8 1_555 1_555
H6 C9 1_555 1_555
C10 C9 1_555 1_555
C11 C10 1_555 1_555
H7 C11 1_555 1_555
C12 C11 1_555 1_555
C13 C8 1_555 1_555
H8 C13 1_555 1_555
C15 C3 1_555 1_555
C16 C10 1_555 1_555
C17 C12 1_555 1_555
O3 C15 1_555 1_555
O4 C15 1_555 1_555
O5 C16 1_555 1_555
O6 C16 1_555 1_555
O7 C17 1_555 1_555
O8 C17 1_555 1_555
Mg4 O5 1_555 1_555
Mg7 O8 1_555 1_555
O26 Mg10 1_555 1_555
C12 C13 1_555 1_555
O6 Mg4 1_555 1_555
H11 C23 1_555 1_555
C24 C22 1_555 1_555
H12 C24 1_555 1_555
H13 C24 1_555 1_555
C25 C24 1_555 1_555
C26 C25 1_555 1_555
H14 C26 1_555 1_555
C27 C26 1_555 1_555
C28 C27 1_555 1_555
H15 C28 1_555 1_555
C29 C28 1_555 1_555
C30 C25 1_555 1_555
H16 C30 1_555 1_555
C33 C27 1_555 1_555
C34 C29 1_555 1_555
O13 C33 1_555 1_555
O14 C33 1_555 1_555
H24 O14 1_555 1_555
O27 C34 1_555 1_555
O28 C34 1_555 1_555
Mg7 O9 1_555 1_555
Mg12 O13 1_555 1_555
C22 C23 1_555 1_555
C29 C30 1_555 1_555
C35 H17 1_555 1_555
C36 H18 1_555 1_555
H19 C36 1_555 1_555
H20 C36 1_555 1_555
C37 H21 1_555 1_555
H22 C37 1_555 1_555
H23 C37 1_555 1_555
N1 C35 1_555 1_555
C35 O17 1_555 1_555
C36 N1 1_555 1_555
C37 N1 1_555 1_555
Mg6 O24 1_555 1_555
C35_2 H17_2 1_555 1_555
C36_2 H18_2 1_555 1_555
H19_2 C36_2 1_555 1_555
H20_2 C36_2 1_555 1_555
C37_2 H21_2 1_555 1_555
H22_2 C37_2 1_555 1_555
H23_2 C37_2 1_555 1_555
N1_2 C35_2 1_555 1_555
C35_2 O17_2 1_555 1_555
C36_2 N1_2 1_555 1_555
C37_2 N1_2 1_555 1_555
H11_2 C23_2 1_555 1_555
C24_2 C22_2 1_555 1_555
H12_2 C24_2 1_555 1_555
H13_2 C24_2 1_555 1_555
C25_2 C24_2 1_555 1_555
C26_2 C25_2 1_555 1_555
H14_2 C26_2 1_555 1_555
C27_2 C26_2 1_555 1_555
C28_2 C27_2 1_555 1_555
H15_2 C28_2 1_555 1_555
C29_2 C28_2 1_555 1_555
C30_2 C25_2 1_555 1_555
H16_2 C30_2 1_555 1_555
C33_2 C27_2 1_555 1_555
C34_2 C29_2 1_555 1_555
O26 C33_2 1_555 1_555
O14_2 C33_2 1_555 1_555
H24_2 O14_2 1_555 1_555
O15 C34_2 1_555 1_555
O16 C34_2 1_555 1_555
Mg4 O15 1_555 1_555
Mg9 O16 1_555 1_555
C22_2 C23_2 1_555 1_555
C29_2 C30_2 1_555 1_555
C2_2 H1_2 1_555 1_555
C3_2 C2_2 1_555 1_555
C4_2 C3_2 1_555 1_555
C5_2 C4_2 1_555 1_555
C15_2 C3_2 1_555 1_555
O3_2 C15_2 1_555 1_555
O4_2 C15_2 1_555 1_555
Mg6 O8_2 1_555 1_555
C9_2 C8_2 1_555 1_555
H6_2 C9_2 1_555 1_555
C10_2 C9_2 1_555 1_555
C11_2 C10_2 1_555 1_555
H7_2 C11_2 1_555 1_555
C12_2 C11_2 1_555 1_555
C13_2 C8_2 1_555 1_555
C16_2 C10_2 1_555 1_555
C17_2 C12_2 1_555 1_555
O19 C16_2 1_555 1_555
O20 C16_2 1_555 1_555
O21 C17_2 1_555 1_555
C12_2 C13_2 1_555 1_555
Mg4 O1_2 1_555 1_555
Mg9 O1_2 1_555 1_555
C6_2 C1_2 1_555 1_555
H3_2 C6_2 1_555 1_555
C14_2 C1_2 1_555 1_555
C18_2 C19_2 1_555 1_555
C19_2 H9_2 1_555 1_555
C20_2 C19_2 1_555 1_555
C21_2 C20_2 1_555 1_555
H10_2 C21_2 1_555 1_555
C31_2 C18_2 1_555 1_555
C32_2 C20_2 1_555 1_555
O1_2 C14_2 1_555 1_555
O2_2 Mg4 1_555 1_555
O25 C31_2 1_555 1_555
O11_2 Mg9 1_555 1_555
O12_2 Mg4 1_555 1_555
O18_2 Mg9 1_555 1_555
O22_2 Mg9 1_555 1_555
O23_2 Mg9 1_555 1_555
C14_2 O2_2 1_555 1_555
C32_2 O11_2 1_555 1_555
C32_2 O12_2 1_555 1_555
H4_2 C7_2 1_555 1_555
H5_2 C7_2 1_555 1_555
C9_3 C8_3 1_555 1_555
H6_3 C9_3 1_555 1_555
C10_3 C9_3 1_555 1_555
C11_3 C10_3 1_555 1_555
H7_3 C11_3 1_555 1_555
C12_3 C11_3 1_555 1_555
C13_3 C8_3 1_555 1_555
H8_3 C13_3 1_555 1_555
C16_3 C10_3 1_555 1_555
C17_3 C12_3 1_555 1_555
O5_2 C16_3 1_555 1_555
O6_2 C16_3 1_555 1_555
O7_2 C17_3 1_555 1_555
O22 C17_3 1_555 1_555
Mg4_2 O5_2 1_555 1_555
Mg10_2 O7_2 1_555 1_555
C12_3 C13_3 1_555 1_555
O6_2 Mg4_2 1_555 1_555
H4_3 C7_3 1_555 1_555
Mg10_2 O4_3 1_555 1_555
C2_3 H1_3 1_555 1_555
C3_3 C2_3 1_555 1_555
C4_3 C3_3 1_555 1_555
H2_3 C4_3 1_555 1_555
C5_3 C4_3 1_555 1_555
C15_3 C3_3 1_555 1_555
C35_3 H17_3 1_555 1_555
C36_3 H18_3 1_555 1_555
H19_3 C36_3 1_555 1_555
H20_3 C36_3 1_555 1_555
C37_3 H21_3 1_555 1_555
H22_3 C37_3 1_555 1_555
H23_3 C37_3 1_555 1_555
O18 C15_3 1_555 1_555
O4_3 C15_3 1_555 1_555
O17_3 Mg10_2 1_555 1_555
N1_3 C35_3 1_555 1_555
O23 Mg10_2 1_555 1_555
O25_2 Mg10_2 1_555 1_555
O26_2 Mg10_2 1_555 1_555
C35_3 O17_3 1_555 1_555
C36_3 N1_3 1_555 1_555
C37_3 N1_3 1_555 1_555
Mg1_2 O1_3 1_555 1_555
Mg7 O1_3 1_555 1_555
C6_3 C1_3 1_555 1_555
H3_3 C6_3 1_555 1_555
C14_3 C1_3 1_555 1_555
C18_3 C19_3 1_555 1_555
C19_3 H9_3 1_555 1_555
C20_3 C19_3 1_555 1_555
C21_3 C20_3 1_555 1_555
H10_3 C21_3 1_555 1_555
C22_3 C21_3 1_555 1_555
C23_3 C18_3 1_555 1_555
H11_3 C23_3 1_555 1_555
C24_3 C22_3 1_555 1_555
H12_3 C24_3 1_555 1_555
H13_3 C24_3 1_555 1_555
C25_3 C24_3 1_555 1_555
C26_3 C25_3 1_555 1_555
H14_3 C26_3 1_555 1_555
C27_3 C26_3 1_555 1_555
C28_3 C27_3 1_555 1_555
H15_3 C28_3 1_555 1_555
C29_3 C28_3 1_555 1_555
C30_3 C25_3 1_555 1_555
H16_3 C30_3 1_555 1_555
C31_3 C18_3 1_555 1_555
C32_3 C20_3 1_555 1_555
C33_3 C27_3 1_555 1_555
C34_3 C29_3 1_555 1_555
O1_3 C14_3 1_555 1_555
O2_3 Mg1_2 1_555 1_555
O23 C31_3 1_555 1_555
O25_2 C31_3 1_555 1_555
O11_3 Mg7 1_555 1_555
O12_3 Mg1_2 1_555 1_555
O13_2 C33_3 1_555 1_555
O14_3 C33_3 1_555 1_555
H24_3 O14_3 1_555 1_555
O28_2 C34_3 1_555 1_555
Mg12_2 O13_2 1_555 1_555
O19_2 Mg1_2 1_555 1_555
O20_2 Mg1_2 1_555 1_555
O27_2 Mg1_2 1_555 1_555
C14_3 O2_3 1_555 1_555
C22_3 C23_3 1_555 1_555
C29_3 C30_3 1_555 1_555
C32_3 O11_3 1_555 1_555
C32_3 O12_3 1_555 1_555
Mg4_2 O15_2 1_555 1_555
Mg4_2 O1_4 1_555 1_555
Mg6 O1_4 1_555 1_555
C6_4 C1_4 1_555 1_555
H3_4 C6_4 1_555 1_555
C14_4 C1_4 1_555 1_555
C18_4 C19_4 1_555 1_555
C19_4 H9_4 1_555 1_555
C20_4 C19_4 1_555 1_555
C21_4 C20_4 1_555 1_555
H10_4 C21_4 1_555 1_555
C22_4 C21_4 1_555 1_555
C23_4 C18_4 1_555 1_555
H11_4 C23_4 1_555 1_555
C24_4 C22_4 1_555 1_555
H12_4 C24_4 1_555 1_555
H13_4 C24_4 1_555 1_555
C25_4 C24_4 1_555 1_555
C26_4 C25_4 1_555 1_555
H14_4 C26_4 1_555 1_555
C27_4 C26_4 1_555 1_555
C28_4 C27_4 1_555 1_555
H15_4 C28_4 1_555 1_555
C29_4 C28_4 1_555 1_555
C30_4 C25_4 1_555 1_555
H16_4 C30_4 1_555 1_555
C31_4 C18_4 1_555 1_555
C32_4 C20_4 1_555 1_555
C33_4 C27_4 1_555 1_555
C34_4 C29_4 1_555 1_555
O1_4 C14_4 1_555 1_555
O2_4 Mg4_2 1_555 1_555
O23_2 C31_4 1_555 1_555
O10_2 C31_4 1_555 1_555
O11_4 Mg6 1_555 1_555
O12_4 Mg4_2 1_555 1_555
O26_2 C33_4 1_555 1_555
O14_4 C33_4 1_555 1_555
H24_4 O14_4 1_555 1_555
O16_2 C34_4 1_555 1_555
C14_4 O2_4 1_555 1_555
C22_4 C23_4 1_555 1_555
C29_4 C30_4 1_555 1_555
C32_4 O11_4 1_555 1_555
C32_4 O12_4 1_555 1_555
C2_4 H1_4 1_555 1_555
C3_4 C2_4 1_555 1_555
C4_4 C3_4 1_555 1_555
C5_4 C4_4 1_555 1_555
C15_4 C3_4 1_555 1_555
O18_2 C15_4 1_555 1_555
O4_4 C15_4 1_555 1_555
C35_4 H17_4 1_555 1_555
C36_4 H18_4 1_555 1_555
H19_4 C36_4 1_555 1_555
H20_4 C36_4 1_555 1_555
C37_4 H21_4 1_555 1_555
H22_4 C37_4 1_555 1_555
H23_4 C37_4 1_555 1_555
O17_4 Mg12_2 1_555 1_555
N1_4 C35_4 1_555 1_555
O21_2 Mg12_2 1_555 1_555
C35_4 O17_4 1_555 1_555
C36_4 N1_4 1_555 1_555
C37_4 N1_4 1_555 1_555
C9_4 C8_4 1_555 1_555
H6_4 C9_4 1_555 1_555
C10_4 C9_4 1_555 1_555
C11_4 C10_4 1_555 1_555
H7_4 C11_4 1_555 1_555
C12_4 C11_4 1_555 1_555
C13_4 C8_4 1_555 1_555
C16_4 C10_4 1_555 1_555
C17_4 C12_4 1_555 1_555
O19_2 C16_4 1_555 1_555
O20_2 C16_4 1_555 1_555
O21_2 C17_4 1_555 1_555
C12_4 C13_4 1_555 1_555
H4_4 C7_4 1_555 1_555
C39 H28 1_555 1_555
H30 C39 1_555 1_555
C39 N2 1_555 1_555
N2 H31 1_555 1_555
C38 H25 1_555 1_555
H27 C38 1_555 1_555
C38_2 H25_2 1_555 1_555
H26_2 C38_2 1_555 1_555
H27_2 C38_2 1_555 1_555
C39_2 H28_2 1_555 1_555
H29_2 C39_2 1_555 1_555
H30_2 C39_2 1_555 1_555
N2_2 C38_2 1_555 1_555
C39_2 N2_2 1_555 1_555
N2_2 H31_2 1_555 1_555
N2_2 H32_2 1_555 1_555
N2_3 H31_3 1_555 1_555
C38_3 H25_3 1_555 1_555
H27_3 C38_3 1_555 1_555
C39_3 H28_3 1_555 1_555
H30_3 C39_3 1_555 1_555
C39_4 H28_4 1_555 1_555
H29_4 C39_4 1_555 1_555
H30_4 C39_4 1_555 1_555
C38_4 H25_4 1_555 1_555
H26_4 C38_4 1_555 1_555
H27_4 C38_4 1_555 1_555
N2_4 C38_4 1_555 1_555
N2_4 H31_4 1_555 1_555
N2_4 H32_4 1_555 1_555

#END
