
###############################################################################
#
# This file contains modified crystal structure data generated from the
# MOF subset of the Cambridge Structural Database (CSD) v543 
# hosted by the Cambridge Crystallographic Data Centre (CCDC).
#
# This work is licensed under the Creative Commons
# Attribution-NonCommercial-ShareAlike 4.0 International License.
# To view a copy of this license, visit
# http://creativecommons.org/licenses/by-nc-sa/4.0/
# or send a letter to
# Creative Commons, PO Box 1866, Mountain View, CA 94042, USA.
#
# CIF created using the CSD Python API on 29 September 2022
# The structure has been converted into the P1 space group
# The structure has a 3D framework
# The original CSD entry EBIMEJ is in the monoclinic crystal system
# The framework has been calculated to contain at least 10.0% void space
# The void calculation uses a probe of radius 1.32A, grid spacing 0.4
#
###############################################################################

data_EBIMEJ
_chemical_formula_moiety         '(C76 H76 Co4 N4 O38)n'
_symmetry_cell_setting           triclinic
_symmetry_space_group_name_H-M   'P 1'
_symmetry_Int_Tables_number      1
_space_group_name_Hall           'P 1'
loop_
_symmetry_equiv_pos_site_id
_symmetry_equiv_pos_as_xyz
1 x,y,z
_cell_length_a                   11.0660(5)
_cell_length_b                   13.8214(6)
_cell_length_c                   16.8387(7)
_cell_angle_alpha                90
_cell_angle_beta                 103.3100(10)
_cell_angle_gamma                90
_cell_volume                     2506.26
loop_
_atom_site_label
_atom_site_type_symbol
_atom_site_fract_x
_atom_site_fract_y
_atom_site_fract_z
Co1 Co 0.05672(4) 0.08925(3) 0.17407(2)
H9 H 0.225(4) 0.183(3) 0.005(2)
H10 H 0.120(4) 0.176(3) 0.024(3)
O13 O 0.24351(19) 0.10505(15) 0.17039(12)
O14 O 0.00855(19) 0.21939(15) 0.10741(12)
O16 O 0.11548(19) 0.15402(14) 0.29035(12)
O9 O 0.03072(19) 0.99278(17) 0.08246(12)
H11 H 0.038(3) 0.941(3) 0.098(2)
O12 O 0.30055(19) 0.99428(15) 0.08752(12)
O17 O 0.1438(2) 0.99616(15) 0.28704(12)
Co2 Co 0.14177(4) 0.99727(3) 0.99494(2)
O11 O 0.2449(2) 0.99483(16) 0.90841(13)
O15 O 0.1384(2) 0.84440(15) 0.99286(12)
C1 C 0.6736(3) 0.0580(2) 0.20162(18)
C2 C 0.5513(3) 0.0502(2) 0.15661(17)
H1 H 0.5348 0.0384 0.0995
C3 C 0.4539(3) 0.0596(2) 0.19516(17)
C4 C 0.4782(3) 0.0744(2) 0.27912(17)
H2 H 0.4111 0.0812 0.3052
C5 C 0.6002(3) 0.0791(2) 0.32538(17)
C6 C 0.6967(3) 0.0718(2) 0.28600(18)
H3 H 0.7800 0.0763 0.3168
C7 C 0.6239(3) 0.0907(2) 0.41671(18)
C13 C 0.7313(3) 0.0017(2) 0.54308(18)
H6 H 0.7656 0.0621 0.5639
C14 C 0.7793(3) 0.0468(2) 0.15981(17)
C15 C 0.3212(3) 0.0527(2) 0.14716(17)
O1 O 0.88325(19) 0.07870(16) 0.19762(12)
O2 O 0.7551(2) 0.00517(16) 0.09159(13)
O8 O 0.8562(2) 0.00384(15) 0.71296(12)
H7 H 0.557(3) 0.123(3) 0.435(2)
H8 H 0.692(3) 0.135(2) 0.4365(18)
Co6 Co 0.85823(4) 0.00273(3) 0.00506(2)
O18 O 0.96928(19) 0.00722(17) 0.91754(12)
H12 H 0.962(3) 0.059(3) 0.902(2)
C8 C 0.6536(3) 0.9972(2) 0.46507(17)
C9 C 0.6035(3) 0.9083(2) 0.43588(17)
H4 H 0.5487 0.9046 0.3835
C10 C 0.6325(3) 0.8241(2) 0.48260(17)
C11 C 0.7100(3) 0.8305(2) 0.56021(17)
H5 H 0.7297 0.7738 0.5926
C12 C 0.7588(3) 0.9191(2) 0.59054(17)
C16 C 0.5839(3) 0.7253(2) 0.45330(17)
C17 C 0.8387(3) 0.9249(2) 0.67564(17)
O5 O 0.49145(19) 0.71939(15) 0.39259(12)
O6 O 0.6384(2) 0.65560(15) 0.49286(12)
O7 O 0.88452(19) 0.84598(14) 0.70965(12)
Co4 Co 0.44328(4) 0.58925(3) 0.32593(2)
Co5 Co 0.94328(4) 0.91075(3) 0.82593(2)
Co8 Co 0.64177(4) 0.50273(3) 0.49494(2)
C3_2 C 0.0461(3) 0.5596(2) 0.30484(17)
C4_2 C 0.0218(3) 0.5744(2) 0.22088(17)
H2_2 H 0.0889 0.5812 0.1948
C15_2 C 0.1788(3) 0.5527(2) 0.35284(17)
O3 O 0.19945(19) 0.49428(15) 0.41248(12)
O4 O 0.25649(19) 0.60505(15) 0.32961(12)
Co7 Co 0.35823(4) 0.49727(3) 0.50506(2)
C1_2 C 0.8264(3) 0.5580(2) 0.29838(18)
C2_2 C 0.9487(3) 0.5502(2) 0.34339(17)
H1_2 H 0.9652 0.5384 0.4005
C5_2 C 0.8998(3) 0.5791(2) 0.17462(17)
C6_2 C 0.8033(3) 0.5718(2) 0.21400(18)
H3_2 H 0.7200 0.5763 0.1832
C7_2 C 0.8761(3) 0.5907(2) 0.08329(18)
C8_2 C 0.8464(3) 0.4972(2) 0.03493(17)
C9_2 C 0.8965(3) 0.4083(2) 0.06412(17)
H4_2 H 0.9513 0.4046 0.1165
C10_2 C 0.8675(3) 0.3241(2) 0.01740(17)
C14_2 C 0.7207(3) 0.5468(2) 0.34019(17)
C16_2 C 0.9161(3) 0.2253(2) 0.04670(17)
O1_2 O 0.61675(19) 0.57870(16) 0.30238(12)
O2_2 O 0.7449(2) 0.50517(16) 0.40841(13)
O6_2 O 0.8616(2) 0.15560(15) 0.00714(12)
O9_2 O 0.46928(19) 0.49278(17) 0.41754(12)
O10 O 0.3460(2) 0.65584(17) 0.50773(14)
H7_2 H 0.943(3) 0.623(3) 0.065(2)
H8_2 H 0.808(3) 0.635(2) 0.0635(18)
H9_2 H 0.275(4) 0.683(3) 0.495(2)
H10_2 H 0.380(4) 0.676(3) 0.476(3)
H11_2 H 0.462(3) 0.441(3) 0.402(2)
O11_2 O 0.2551(2) 0.49483(16) 0.59159(13)
O15_2 O 0.3616(2) 0.34440(15) 0.50714(12)
O16_2 O 0.38452(19) 0.65402(14) 0.20965(12)
O17_2 O 0.3562(2) 0.49616(15) 0.21296(12)
O18_2 O 0.53072(19) 0.50722(17) 0.58246(12)
H12_2 H 0.538(3) 0.559(3) 0.598(2)
C11_2 C 0.7900(3) 0.3305(2) 0.93979(17)
H5_2 H 0.7703 0.2738 0.9074
C12_2 C 0.7412(3) 0.4191(2) 0.90946(17)
C13_2 C 0.7687(3) 0.5017(2) 0.95692(18)
H6_2 H 0.7344 0.5621 0.9361
C17_2 C 0.6613(3) 0.4249(2) 0.82436(17)
O7_2 O 0.61548(19) 0.34598(14) 0.79035(12)
O8_2 O 0.6438(2) 0.50384(15) 0.78704(12)
Co5_2 Co 0.55672(4) 0.41075(3) 0.67407(2)
C8_3 C 0.3464(3) 0.0028(2) 0.53493(17)
C9_3 C 0.3965(3) 0.0917(2) 0.56412(17)
H4_3 H 0.4513 0.0954 0.6165
C10_3 C 0.3675(3) 0.1759(2) 0.51740(17)
C11_3 C 0.2900(3) 0.1695(2) 0.43979(17)
H5_3 H 0.2703 0.2262 0.4074
C12_3 C 0.2412(3) 0.0809(2) 0.40946(17)
C16_3 C 0.4161(3) 0.2747(2) 0.54670(17)
C17_3 C 0.1613(3) 0.0751(2) 0.32436(17)
O3_2 O 0.69945(19) 0.00572(15) 0.91248(12)
O5_2 O 0.50855(19) 0.28061(15) 0.60741(12)
C1_3 C 0.3264(3) 0.9420(2) 0.79838(18)
C2_3 C 0.4487(3) 0.9498(2) 0.84339(17)
H1_3 H 0.4652 0.9616 0.9005
C3_3 C 0.5461(3) 0.9404(2) 0.80484(17)
C4_3 C 0.5218(3) 0.9256(2) 0.72088(17)
H2_3 H 0.5889 0.9188 0.6948
C5_3 C 0.3998(3) 0.9209(2) 0.67462(17)
C6_3 C 0.3033(3) 0.9282(2) 0.71400(18)
H3_3 H 0.2200 0.9237 0.6832
C7_3 C 0.3761(3) 0.9093(2) 0.58329(18)
C13_3 C 0.2687(3) 0.9983(2) 0.45692(18)
H6_3 H 0.2344 0.9379 0.4361
C14_3 C 0.2207(3) 0.9532(2) 0.84019(17)
C15_3 C 0.6788(3) 0.9473(2) 0.85284(17)
O1_3 O 0.11675(19) 0.92130(16) 0.80238(12)
O4_2 O 0.75649(19) 0.89495(15) 0.82961(12)
H7_3 H 0.443(3) 0.877(3) 0.565(2)
H8_3 H 0.308(3) 0.865(2) 0.5635(18)
H9_3 H 0.775(4) 0.817(3) 0.995(2)
H10_3 H 0.880(4) 0.824(3) 0.976(3)
O14_2 O 0.99145(19) 0.78061(15) 0.89259(12)
C11_4 C 0.2100(3) 0.6695(2) 0.06021(17)
H5_4 H 0.2297 0.7262 0.0926
C12_4 C 0.2588(3) 0.5809(2) 0.09054(17)
C13_4 C 0.2313(3) 0.4983(2) 0.04308(18)
H6_4 H 0.2656 0.4379 0.0639
C17_4 C 0.3387(3) 0.5751(2) 0.17564(17)
C1_4 C 0.1736(3) 0.4420(2) 0.70162(18)
C2_4 C 0.0513(3) 0.4498(2) 0.65661(17)
H1_4 H 0.0348 0.4616 0.5995
C5_4 C 0.1002(3) 0.4209(2) 0.82538(17)
C6_4 C 0.1967(3) 0.4282(2) 0.78600(18)
H3_4 H 0.2800 0.4237 0.8168
C7_4 C 0.1239(3) 0.4093(2) 0.91671(18)
C8_4 C 0.1536(3) 0.5028(2) 0.96507(17)
C9_4 C 0.1035(3) 0.5917(2) 0.93588(17)
H4_4 H 0.0487 0.5954 0.8835
C10_4 C 0.1325(3) 0.6759(2) 0.98260(17)
C14_4 C 0.2793(3) 0.4532(2) 0.65981(17)
C16_4 C 0.0839(3) 0.7747(2) 0.95330(17)
O1_4 O 0.38325(19) 0.42130(16) 0.69762(12)
O10_2 O 0.6540(2) 0.34416(17) 0.49227(14)
H7_4 H 0.057(3) 0.377(3) 0.935(2)
H8_4 H 0.192(3) 0.365(2) 0.9365(18)
H9_4 H 0.725(4) 0.317(3) 0.505(2)
H10_4 H 0.620(4) 0.324(3) 0.524(3)
O12_2 O 0.80055(19) 0.50572(15) 0.58752(12)
O13_2 O 0.74351(19) 0.39495(15) 0.67039(12)
C3_4 C 0.9539(3) 0.4404(2) 0.69516(17)
C4_4 C 0.9782(3) 0.4256(2) 0.77912(17)
H2_4 H 0.9111 0.4188 0.8052
C15_4 C 0.8212(3) 0.4473(2) 0.64716(17)
O10_3 O 0.1540(2) 0.15584(17) 0.99227(14)
O10_4 O 0.8460(2) 0.84416(17) 0.00773(14)
C19 C 0.0242(4) 0.3103(3) 0.4366(2)
H16 H 0.1069 0.3152 0.4730
N1 N 0.0347(3) 0.3179(2) 0.35140(17)
H19 H 0.0855 0.2691 0.3410
H20 H 0.0718 0.3759 0.3445
C18 C 0.9139(4) 0.3117(3) 0.2916(3)
H13 H 0.9272 0.3173 0.2362
H14 H 0.8598 0.3643 0.3015
H15 H 0.8748 0.2493 0.2975
H17 H 0.9870 0.2479 0.4450
H18 H 0.9715 0.3628 0.4486
C18_2 C 0.5861(4) 0.8117(3) 0.2084(3)
H13_2 H 0.5728 0.8173 0.2638
H14_2 H 0.6402 0.8643 0.1985
H15_2 H 0.6252 0.7493 0.2025
C19_2 C 0.4758(4) 0.8103(3) 0.0634(2)
H16_2 H 0.3931 0.8152 0.0270
H17_2 H 0.5130 0.7479 0.0550
H18_2 H 0.5285 0.8628 0.0514
N1_2 N 0.4653(3) 0.8179(2) 0.14860(17)
H19_2 H 0.4145 0.7691 0.1590
H20_2 H 0.4282 0.8759 0.1555
C18_3 C 0.0861(4) 0.6883(3) 0.7084(3)
H13_3 H 0.0728 0.6827 0.7638
H14_3 H 0.1402 0.6357 0.6985
H15_3 H 0.1252 0.7507 0.7025
H17_3 H 0.0130 0.7521 0.5550
H18_3 H 0.0285 0.6372 0.5514
C19_3 C 0.9758(4) 0.6897(3) 0.5634(2)
H16_3 H 0.8931 0.6848 0.5270
N1_3 N 0.9653(3) 0.6821(2) 0.64860(17)
H19_3 H 0.9145 0.7309 0.6590
H20_3 H 0.9282 0.6241 0.6555
C18_4 C 0.4139(4) 0.1883(3) 0.7916(3)
H13_4 H 0.4272 0.1827 0.7362
H14_4 H 0.3598 0.1357 0.8015
H15_4 H 0.3748 0.2507 0.7975
C19_4 C 0.5242(4) 0.1897(3) 0.9366(2)
H16_4 H 0.6069 0.1848 0.9730
H17_4 H 0.4870 0.2521 0.9450
H18_4 H 0.4715 0.1372 0.9486
N1_4 N 0.5347(3) 0.1821(2) 0.85140(17)
H19_4 H 0.5855 0.2309 0.8410
H20_4 H 0.5718 0.1241 0.8445
loop_
_geom_bond_atom_site_label_1
_geom_bond_atom_site_label_2
_geom_bond_site_symmetry_1
_geom_bond_site_symmetry_2
O13 Co1 1_555 1_555
O14 Co1 1_555 1_555
O16 Co1 1_555 1_555
H11 O9 1_555 1_555
O11 Co2 1_555 1_555
O15 Co2 1_555 1_555
C1 C2 1_555 1_555
C2 H1 1_555 1_555
C3 C2 1_555 1_555
C4 C3 1_555 1_555
H2 C4 1_555 1_555
C5 C4 1_555 1_555
C6 C1 1_555 1_555
H3 C6 1_555 1_555
C7 C5 1_555 1_555
H6 C13 1_555 1_555
C14 C1 1_555 1_555
C15 C3 1_555 1_555
O1 C14 1_555 1_555
O2 C14 1_555 1_555
O13 C15 1_555 1_555
H7 C7 1_555 1_555
H8 C7 1_555 1_555
Co6 O2 1_555 1_555
C5 C6 1_555 1_555
H12 O18 1_555 1_555
C9 C8 1_555 1_555
H4 C9 1_555 1_555
C10 C9 1_555 1_555
C11 C10 1_555 1_555
H5 C11 1_555 1_555
C12 C11 1_555 1_555
C16 C10 1_555 1_555
C17 C12 1_555 1_555
O5 C16 1_555 1_555
O6 C16 1_555 1_555
O7 C17 1_555 1_555
Co4 O5 1_555 1_555
Co5 O7 1_555 1_555
Co8 O6 1_555 1_555
C4_2 C3_2 1_555 1_555
H2_2 C4_2 1_555 1_555
C15_2 C3_2 1_555 1_555
O3 C15_2 1_555 1_555
O4 C15_2 1_555 1_555
Co4 O4 1_555 1_555
Co7 O3 1_555 1_555
Co4 O1_2 1_555 1_555
Co7 O9_2 1_555 1_555
C1_2 C2_2 1_555 1_555
C2_2 H1_2 1_555 1_555
C6_2 C1_2 1_555 1_555
H3_2 C6_2 1_555 1_555
C7_2 C5_2 1_555 1_555
C8_2 C7_2 1_555 1_555
C9_2 C8_2 1_555 1_555
H4_2 C9_2 1_555 1_555
C10_2 C9_2 1_555 1_555
C14_2 C1_2 1_555 1_555
C16_2 C10_2 1_555 1_555
O1_2 C14_2 1_555 1_555
O2_2 C14_2 1_555 1_555
O6_2 C16_2 1_555 1_555
O9_2 Co4 1_555 1_555
O10 Co7 1_555 1_555
H7_2 C7_2 1_555 1_555
H8_2 C7_2 1_555 1_555
H9_2 O10 1_555 1_555
H10_2 O10 1_555 1_555
H11_2 O9_2 1_555 1_555
Co8 O2_2 1_555 1_555
Co6 O6_2 1_555 1_555
O11_2 Co7 1_555 1_555
O15_2 Co7 1_555 1_555
O16_2 Co4 1_555 1_555
O17_2 Co4 1_555 1_555
O18_2 Co7 1_555 1_555
H12_2 O18_2 1_555 1_555
C5_2 C6_2 1_555 1_555
O9_2 Co8 1_555 1_555
Co8 O18_2 1_555 1_555
H5_2 C11_2 1_555 1_555
C12_2 C11_2 1_555 1_555
H6_2 C13_2 1_555 1_555
C17_2 C12_2 1_555 1_555
O7_2 C17_2 1_555 1_555
O8_2 C17_2 1_555 1_555
Co5_2 O7_2 1_555 1_555
C12_2 C13_2 1_555 1_555
O8_2 Co5_2 1_555 1_555
C9_3 C8_3 1_555 1_555
H4_3 C9_3 1_555 1_555
C10_3 C9_3 1_555 1_555
C11_3 C10_3 1_555 1_555
H5_3 C11_3 1_555 1_555
C12_3 C11_3 1_555 1_555
C16_3 C10_3 1_555 1_555
C17_3 C12_3 1_555 1_555
O5_2 C16_3 1_555 1_555
O15_2 C16_3 1_555 1_555
O16 C17_3 1_555 1_555
Co5_2 O5_2 1_555 1_555
C1_3 C2_3 1_555 1_555
C2_3 H1_3 1_555 1_555
C3_3 C2_3 1_555 1_555
C4_3 C3_3 1_555 1_555
H2_3 C4_3 1_555 1_555
C5_3 C4_3 1_555 1_555
C6_3 C1_3 1_555 1_555
H3_3 C6_3 1_555 1_555
C7_3 C5_3 1_555 1_555
H6_3 C13_3 1_555 1_555
C14_3 C1_3 1_555 1_555
C15_3 C3_3 1_555 1_555
O1_3 C14_3 1_555 1_555
O11 C14_3 1_555 1_555
O4_2 C15_3 1_555 1_555
H7_3 C7_3 1_555 1_555
H8_3 C7_3 1_555 1_555
Co5 O4_2 1_555 1_555
C5_3 C6_3 1_555 1_555
O14_2 Co5 1_555 1_555
H5_4 C11_4 1_555 1_555
C12_4 C11_4 1_555 1_555
H6_4 C13_4 1_555 1_555
C17_4 C12_4 1_555 1_555
O16_2 C17_4 1_555 1_555
O17_2 C17_4 1_555 1_555
C12_4 C13_4 1_555 1_555
Co5_2 O1_4 1_555 1_555
C1_4 C2_4 1_555 1_555
C2_4 H1_4 1_555 1_555
C6_4 C1_4 1_555 1_555
H3_4 C6_4 1_555 1_555
C7_4 C5_4 1_555 1_555
C8_4 C7_4 1_555 1_555
C9_4 C8_4 1_555 1_555
H4_4 C9_4 1_555 1_555
C10_4 C9_4 1_555 1_555
C14_4 C1_4 1_555 1_555
C16_4 C10_4 1_555 1_555
O1_4 C14_4 1_555 1_555
O11_2 C14_4 1_555 1_555
O15 C16_4 1_555 1_555
O18_2 Co5_2 1_555 1_555
O10_2 Co8 1_555 1_555
H7_4 C7_4 1_555 1_555
H8_4 C7_4 1_555 1_555
H9_4 O10_2 1_555 1_555
H10_4 O10_2 1_555 1_555
O12_2 Co8 1_555 1_555
O13_2 Co5_2 1_555 1_555
C5_4 C6_4 1_555 1_555
C4_4 C3_4 1_555 1_555
H2_4 C4_4 1_555 1_555
C15_4 C3_4 1_555 1_555
O12_2 C15_4 1_555 1_555
O13_2 C15_4 1_555 1_555
C19 H16 1_555 1_555
H19 N1 1_555 1_555
H20 N1 1_555 1_555
C19 N1 1_555 1_555
C18 H13 1_555 1_555
H14 C18 1_555 1_555
H15 C18 1_555 1_555
C18_2 H13_2 1_555 1_555
H14_2 C18_2 1_555 1_555
H15_2 C18_2 1_555 1_555
C19_2 H16_2 1_555 1_555
H17_2 C19_2 1_555 1_555
H18_2 C19_2 1_555 1_555
N1_2 C18_2 1_555 1_555
H19_2 N1_2 1_555 1_555
H20_2 N1_2 1_555 1_555
C19_2 N1_2 1_555 1_555
C18_3 H13_3 1_555 1_555
H14_3 C18_3 1_555 1_555
H15_3 C18_3 1_555 1_555
C19_3 H16_3 1_555 1_555
H19_3 N1_3 1_555 1_555
H20_3 N1_3 1_555 1_555
C19_3 N1_3 1_555 1_555
C18_4 H13_4 1_555 1_555
H14_4 C18_4 1_555 1_555
H15_4 C18_4 1_555 1_555
C19_4 H16_4 1_555 1_555
H17_4 C19_4 1_555 1_555
H18_4 C19_4 1_555 1_555
N1_4 C18_4 1_555 1_555
H19_4 N1_4 1_555 1_555
H20_4 N1_4 1_555 1_555
C19_4 N1_4 1_555 1_555

#END
