
###############################################################################
#
# This file contains modified crystal structure data generated from the
# MOF subset of the Cambridge Structural Database (CSD) v543 
# hosted by the Cambridge Crystallographic Data Centre (CCDC).
#
# This work is licensed under the Creative Commons
# Attribution-NonCommercial-ShareAlike 4.0 International License.
# To view a copy of this license, visit
# http://creativecommons.org/licenses/by-nc-sa/4.0/
# or send a letter to
# Creative Commons, PO Box 1866, Mountain View, CA 94042, USA.
#
# CIF created using the CSD Python API on 29 September 2022
# The structure has been converted into the P1 space group
# The structure has a 3D framework
# The original CSD entry EBIPOX is in the orthorhombic crystal system
# The original CSD entry EBIPOX is in a Sohncke space group
# The framework has been calculated to contain at least 10.0% void space
# The void calculation uses a probe of radius 1.32A, grid spacing 0.4
#
###############################################################################

data_EBIPOX
_chemical_formula_moiety         '(C56 H60 N4 O32 Zn8)n'
_symmetry_cell_setting           triclinic
_symmetry_space_group_name_H-M   'P 1'
_symmetry_Int_Tables_number      1
_space_group_name_Hall           'P 1'
loop_
_symmetry_equiv_pos_site_id
_symmetry_equiv_pos_as_xyz
1 x,y,z
_cell_length_a                   10.33318(13)
_cell_length_b                   11.76350(16)
_cell_length_c                   20.4524(3)
_cell_angle_alpha                90
_cell_angle_beta                 90
_cell_angle_gamma                90
_cell_volume                     2486.08
loop_
_atom_site_label
_atom_site_type_symbol
_atom_site_fract_x
_atom_site_fract_y
_atom_site_fract_z
Zn1 Zn 0.45083(6) 0.42233(5) 0.00975(3)
Zn2 Zn 0.13842(6) 0.32406(5) 0.00750(3)
O1 O 0.3369(4) 0.2726(3) 0.0039(2)
O4 O 0.3677(5) 0.4615(4) 0.0935(2)
O5 O 0.1706(4) 0.3806(4) 0.0981(2)
C4 C 0.2665(6) 0.4315(5) 0.1227(3)
C5 C 0.2584(6) 0.4618(5) 0.1940(3)
C6 C 0.1767(7) 0.4001(6) 0.2352(3)
H5 H 0.1247 0.3403 0.2184
C7 C 0.1728(6) 0.4277(6) 0.3011(3)
H6 H 0.1190 0.3849 0.3296
C8 C 0.2455(6) 0.5160(5) 0.3261(3)
C9 C 0.3270(7) 0.5759(7) 0.2851(3)
H7 H 0.3791 0.6355 0.3021
C10 C 0.3330(7) 0.5494(6) 0.2189(3)
H8 H 0.3884 0.5914 0.1908
C11 C 0.2356(6) 0.5484(5) 0.3978(3)
O6 O 0.1300(5) 0.5265(4) 0.4253(2)
O7 O 0.3350(4) 0.5909(4) 0.4235(2)
O8 O 0.5381(4) 0.5831(4) 0.0165(3)
C13 C 0.6499(12) 0.7889(11) 0.0489(9)
H10 H 0.5982 0.8398 0.0764
H11 H 0.7324 0.8255 0.0382
H12 H 0.6664 0.7178 0.0725
Zn3 Zn 0.04917(6) 0.57767(5) 0.50975(3)
Zn5 Zn 0.36158(6) 0.67594(5) 0.50750(3)
O10 O 0.6160(3) 0.3400(3) 0.0091(2)
O2 O 0.4554(4) 0.1181(3) 0.9825(2)
O3 O 0.1160(3) 0.1600(3) 0.9909(2)
C1 C 0.3506(5) 0.1695(5) 0.9865(3)
C2 C 0.2276(5) 0.1053(5) 0.9669(3)
H1 H 0.2314 0.0265 0.9852
C3 C 0.2239(7) 0.0983(8) 0.8922(4)
H2 H 0.1679 0.0352 0.8788
H3 H 0.3116 0.0855 0.8755
H4 H 0.1899 0.1696 0.8744
C12 C 0.5307(7) 0.6627(5) 0.9781(4)
H9 H 0.4867 0.6503 0.9380
N1 N 0.5796(7) 0.7643(5) 0.9888(5)
C14 C 0.5745(17) 0.8547(9) 0.9422(8)
H13 H 0.6626 0.8798 0.9319
H14 H 0.5253 0.9184 0.9605
H15 H 0.5322 0.8278 0.9022
Zn6 Zn 0.63842(6) 0.17594(5) 0.99250(3)
O11 O 0.3700(5) 0.4735(4) 0.9253(2)
O12 O 0.1650(4) 0.4091(4) 0.9235(2)
O9 O 0.9554(4) 0.3819(3) 0.0175(2)
Zn4 Zn 0.95083(6) 0.07767(5) 0.99025(3)
O1_2 O 0.1631(4) 0.7274(3) 0.5039(2)
O2_2 O 0.0446(4) 0.8819(3) 0.4825(2)
O3_2 O 0.3840(3) 0.8400(3) 0.4909(2)
C1_2 C 0.1494(5) 0.8305(5) 0.4865(3)
C2_2 C 0.2724(5) 0.8947(5) 0.4669(3)
H1_2 H 0.2686 0.9735 0.4852
C3_2 C 0.2761(7) 0.9017(8) 0.3922(4)
H2_2 H 0.3321 0.9648 0.3788
H3_2 H 0.1884 0.9145 0.3755
H4_2 H 0.3101 0.8304 0.3744
O4_2 O 0.1323(5) 0.5385(4) 0.5935(2)
O5_2 O 0.3294(4) 0.6194(4) 0.5981(2)
C4_2 C 0.2335(6) 0.5685(5) 0.6227(3)
C5_2 C 0.2416(6) 0.5382(5) 0.6940(3)
C6_2 C 0.3233(7) 0.5999(6) 0.7352(3)
H5_2 H 0.3753 0.6597 0.7184
C7_2 C 0.3272(6) 0.5723(6) 0.8011(3)
H6_2 H 0.3810 0.6151 0.8296
C8_2 C 0.2545(6) 0.4840(5) 0.8261(3)
C9_2 C 0.1730(7) 0.4241(7) 0.7851(3)
H7_2 H 0.1209 0.3645 0.8021
C10_2 C 0.1670(7) 0.4506(6) 0.7189(3)
H8_2 H 0.1116 0.4086 0.6908
C11_2 C 0.2644(6) 0.4516(5) 0.8978(3)
H9_2 H 0.0133 0.3497 0.4380
Zn4_2 Zn 0.54917(6) 0.92233(5) 0.49025(3)
O9_2 O 0.5446(4) 0.6181(3) 0.5175(2)
O8_2 O 0.9619(4) 0.4169(4) 0.5165(3)
C12_2 C 0.9693(7) 0.3373(5) 0.4781(4)
N1_2 N 0.9204(7) 0.2357(5) 0.4888(5)
C13_2 C 0.8501(12) 0.2111(11) 0.5489(9)
H10_2 H 0.9018 0.1602 0.5764
H11_2 H 0.7676 0.1745 0.5382
H12_2 H 0.8336 0.2822 0.5725
C14_2 C 0.9255(17) 0.1453(9) 0.4422(8)
H13_2 H 0.8374 0.1202 0.4319
H14_2 H 0.9747 0.0816 0.4605
H15_2 H 0.9678 0.1722 0.4022
Zn6_2 Zn 0.86158(6) 0.82406(5) 0.49250(3)
O10_2 O 0.8840(3) 0.6600(3) 0.5091(2)
C8_3 C 0.7545(6) 0.0160(5) 0.1739(3)
C9_3 C 0.6730(7) 0.0759(7) 0.2149(3)
H7_3 H 0.6209 0.1355 0.1979
C10_3 C 0.6670(7) 0.0494(6) 0.2811(3)
H8_3 H 0.6116 0.0914 0.3092
C11_3 C 0.7644(6) 0.0484(5) 0.1022(3)
O6_2 O 0.8700(5) 0.0265(4) 0.0747(2)
O7_2 O 0.6650(4) 0.0909(4) 0.0765(2)
O8_3 O 0.4619(4) 0.0831(4) 0.4835(3)
C12_3 C 0.4693(7) 0.1627(5) 0.5219(4)
H9_3 H 0.5133 0.1503 0.5620
N1_3 N 0.4204(7) 0.2643(5) 0.5112(5)
C13_3 C 0.3501(12) 0.2889(11) 0.4511(9)
H10_3 H 0.4018 0.3398 0.4236
H11_3 H 0.2676 0.3255 0.4618
H12_3 H 0.3336 0.2178 0.4275
C14_3 C 0.4255(17) 0.3547(9) 0.5578(8)
H13_3 H 0.3374 0.3798 0.5681
H14_3 H 0.4747 0.4184 0.5395
H15_3 H 0.4678 0.3278 0.5978
O1_3 O 0.6631(4) 0.7726(3) 0.4961(2)
C1_3 C 0.6494(5) 0.6695(5) 0.5135(3)
C2_3 C 0.7724(5) 0.6053(5) 0.5331(3)
H1_3 H 0.7686 0.5265 0.5148
C3_3 C 0.7761(7) 0.5983(8) 0.6078(4)
H2_3 H 0.8321 0.5352 0.6212
H3_3 H 0.6884 0.5855 0.6245
H4_3 H 0.8101 0.6696 0.6256
O4_3 O 0.6323(5) 0.9615(4) 0.4065(2)
O5_3 O 0.8294(4) 0.8806(4) 0.4019(2)
C4_3 C 0.7335(6) 0.9315(5) 0.3773(3)
C5_3 C 0.7416(6) 0.9618(5) 0.3060(3)
C6_3 C 0.8233(7) 0.9001(6) 0.2648(3)
H5_3 H 0.8753 0.8403 0.2816
C7_3 C 0.8272(6) 0.9277(6) 0.1989(3)
H6_3 H 0.8810 0.8849 0.1704
O11_2 O 0.6300(5) 0.9735(4) 0.5747(2)
O12_2 O 0.8350(4) 0.9091(4) 0.5765(2)
C1_4 C 0.8506(5) 0.3305(5) 0.0135(3)
C2_4 C 0.7276(5) 0.3947(5) 0.0331(3)
H1_4 H 0.7314 0.4735 0.0148
C3_4 C 0.7239(7) 0.4017(8) 0.1078(4)
H2_4 H 0.6679 0.4648 0.1212
H3_4 H 0.8116 0.4145 0.1245
H4_4 H 0.6899 0.3304 0.1256
O1_4 O 0.8369(4) 0.2274(3) 0.9961(2)
O4_4 O 0.8677(5) 0.0385(4) 0.9065(2)
O5_4 O 0.6706(4) 0.1194(4) 0.9019(2)
C4_4 C 0.7665(6) 0.0685(5) 0.8773(3)
C5_4 C 0.7584(6) 0.0382(5) 0.8060(3)
C6_4 C 0.6767(7) 0.0999(6) 0.7648(3)
H5_4 H 0.6247 0.1597 0.7816
C7_4 C 0.6728(6) 0.0723(6) 0.6989(3)
H6_4 H 0.6190 0.1151 0.6704
C8_4 C 0.7455(6) 0.9840(5) 0.6739(3)
C9_4 C 0.8270(7) 0.9241(7) 0.7149(3)
H7_4 H 0.8791 0.8645 0.6979
C10_4 C 0.8330(7) 0.9506(6) 0.7811(3)
H8_4 H 0.8884 0.9086 0.8092
C11_4 C 0.7356(6) 0.9516(5) 0.6022(3)
C12_4 C 0.0307(7) 0.8373(5) 0.0219(4)
N1_4 N 0.0796(7) 0.7357(5) 0.0112(5)
C14_4 C 0.0745(17) 0.6453(9) 0.0578(8)
H13_4 H 0.1626 0.6202 0.0681
H14_4 H 0.0253 0.5816 0.0395
H15_4 H 0.0322 0.6722 0.0978
O8_4 O 0.0381(4) 0.9169(4) 0.9835(3)
C13_4 C 0.1499(12) 0.7111(11) 0.9511(9)
H10_4 H 0.0982 0.6602 0.9236
H11_4 H 0.2324 0.6745 0.9618
H12_4 H 0.1664 0.7822 0.9275
H9_4 H 0.9867 0.8497 0.0620
loop_
_geom_bond_atom_site_label_1
_geom_bond_atom_site_label_2
_geom_bond_site_symmetry_1
_geom_bond_site_symmetry_2
Zn1 O1 1_555 1_555
Zn2 O1 1_555 1_555
O4 Zn1 1_555 1_555
O5 Zn2 1_555 1_555
C4 O4 1_555 1_555
C5 C4 1_555 1_555
C6 C5 1_555 1_555
H5 C6 1_555 1_555
C7 C6 1_555 1_555
H6 C7 1_555 1_555
C8 C7 1_555 1_555
C9 C8 1_555 1_555
H7 C9 1_555 1_555
C10 C5 1_555 1_555
H8 C10 1_555 1_555
C11 C8 1_555 1_555
O6 C11 1_555 1_555
O7 C11 1_555 1_555
O8 Zn1 1_555 1_555
H10 C13 1_555 1_555
H11 C13 1_555 1_555
H12 C13 1_555 1_555
Zn3 O6 1_555 1_555
Zn5 O7 1_555 1_555
O10 Zn1 1_555 1_555
O5 C4 1_555 1_555
C9 C10 1_555 1_555
O2 C1 1_555 1_555
C1 C2 1_555 1_555
C2 O3 1_555 1_555
H1 C2 1_555 1_555
C3 C2 1_555 1_555
H2 C3 1_555 1_555
H3 C3 1_555 1_555
H4 C3 1_555 1_555
H9 C12 1_555 1_555
N1 C12 1_555 1_555
C14 N1 1_555 1_555
H13 C14 1_555 1_555
H14 C14 1_555 1_555
H15 C14 1_555 1_555
Zn6 O2 1_555 1_555
Zn3 O1_2 1_555 1_555
Zn5 O1_2 1_555 1_555
O1_2 C1_2 1_555 1_555
O2_2 C1_2 1_555 1_555
O3_2 Zn5 1_555 1_555
C1_2 C2_2 1_555 1_555
C2_2 O3_2 1_555 1_555
H1_2 C2_2 1_555 1_555
C3_2 C2_2 1_555 1_555
H2_2 C3_2 1_555 1_555
H3_2 C3_2 1_555 1_555
H4_2 C3_2 1_555 1_555
O4_2 Zn3 1_555 1_555
O5_2 Zn5 1_555 1_555
C4_2 O4_2 1_555 1_555
C5_2 C4_2 1_555 1_555
C6_2 C5_2 1_555 1_555
H5_2 C6_2 1_555 1_555
C7_2 C6_2 1_555 1_555
H6_2 C7_2 1_555 1_555
C8_2 C7_2 1_555 1_555
C9_2 C8_2 1_555 1_555
H7_2 C9_2 1_555 1_555
C10_2 C5_2 1_555 1_555
H8_2 C10_2 1_555 1_555
C11_2 C8_2 1_555 1_555
O11 C11_2 1_555 1_555
O12 C11_2 1_555 1_555
Zn4_2 O3_2 1_555 1_555
O9_2 Zn5 1_555 1_555
O5_2 C4_2 1_555 1_555
C9_2 C10_2 1_555 1_555
C12_2 O8_2 1_555 1_555
N1_2 C12_2 1_555 1_555
C13_2 N1_2 1_555 1_555
H10_2 C13_2 1_555 1_555
H11_2 C13_2 1_555 1_555
H12_2 C13_2 1_555 1_555
C14_2 N1_2 1_555 1_555
H13_2 C14_2 1_555 1_555
H14_2 C14_2 1_555 1_555
H15_2 C14_2 1_555 1_555
Zn6_2 O10_2 1_555 1_555
C9_3 C8_3 1_555 1_555
H7_3 C9_3 1_555 1_555
H8_3 C10_3 1_555 1_555
C11_3 C8_3 1_555 1_555
O6_2 C11_3 1_555 1_555
O7_2 C11_3 1_555 1_555
C12_3 O8_3 1_555 1_555
H9_3 C12_3 1_555 1_555
N1_3 C12_3 1_555 1_555
C13_3 N1_3 1_555 1_555
H10_3 C13_3 1_555 1_555
H11_3 C13_3 1_555 1_555
H12_3 C13_3 1_555 1_555
C14_3 N1_3 1_555 1_555
H13_3 C14_3 1_555 1_555
H14_3 C14_3 1_555 1_555
H15_3 C14_3 1_555 1_555
C9_3 C10_3 1_555 1_555
Zn4_2 O1_3 1_555 1_555
Zn6_2 O1_3 1_555 1_555
O1_3 C1_3 1_555 1_555
O9_2 C1_3 1_555 1_555
C1_3 C2_3 1_555 1_555
C2_3 O10_2 1_555 1_555
H1_3 C2_3 1_555 1_555
C3_3 C2_3 1_555 1_555
H2_3 C3_3 1_555 1_555
H3_3 C3_3 1_555 1_555
H4_3 C3_3 1_555 1_555
O4_3 Zn4_2 1_555 1_555
O5_3 Zn6_2 1_555 1_555
C4_3 O4_3 1_555 1_555
C5_3 C4_3 1_555 1_555
C6_3 C5_3 1_555 1_555
H5_3 C6_3 1_555 1_555
C7_3 C6_3 1_555 1_555
H6_3 C7_3 1_555 1_555
O11_2 Zn4_2 1_555 1_555
O12_2 Zn6_2 1_555 1_555
O5_3 C4_3 1_555 1_555
O9 C1_4 1_555 1_555
C1_4 C2_4 1_555 1_555
C2_4 O10 1_555 1_555
H1_4 C2_4 1_555 1_555
C3_4 C2_4 1_555 1_555
H2_4 C3_4 1_555 1_555
H3_4 C3_4 1_555 1_555
H4_4 C3_4 1_555 1_555
Zn4 O1_4 1_555 1_555
Zn6 O1_4 1_555 1_555
O4_4 Zn4 1_555 1_555
O5_4 Zn6 1_555 1_555
C4_4 O4_4 1_555 1_555
C5_4 C4_4 1_555 1_555
C6_4 C5_4 1_555 1_555
H5_4 C6_4 1_555 1_555
C7_4 C6_4 1_555 1_555
H6_4 C7_4 1_555 1_555
O5_4 C4_4 1_555 1_555
C9_4 C8_4 1_555 1_555
H7_4 C9_4 1_555 1_555
H8_4 C10_4 1_555 1_555
C11_4 C8_4 1_555 1_555
O11_2 C11_4 1_555 1_555
O12_2 C11_4 1_555 1_555
C9_4 C10_4 1_555 1_555
N1_4 C12_4 1_555 1_555
C14_4 N1_4 1_555 1_555
H13_4 C14_4 1_555 1_555
H14_4 C14_4 1_555 1_555
H15_4 C14_4 1_555 1_555
H10_4 C13_4 1_555 1_555
H11_4 C13_4 1_555 1_555
H12_4 C13_4 1_555 1_555

#END
