
###############################################################################
#
# This file contains modified crystal structure data generated from the
# MOF subset of the Cambridge Structural Database (CSD) v543 
# hosted by the Cambridge Crystallographic Data Centre (CCDC).
#
# This work is licensed under the Creative Commons
# Attribution-NonCommercial-ShareAlike 4.0 International License.
# To view a copy of this license, visit
# http://creativecommons.org/licenses/by-nc-sa/4.0/
# or send a letter to
# Creative Commons, PO Box 1866, Mountain View, CA 94042, USA.
#
# CIF created using the CSD Python API on 29 September 2022
# The structure has been converted into the P1 space group
# The structure has a 3D framework
# The original CSD entry EBISEQ is in the monoclinic crystal system
# The framework has been calculated to contain at least 10.0% void space
# The void calculation uses a probe of radius 1.32A, grid spacing 0.4
#
###############################################################################

data_EBISEQ
_chemical_formula_moiety         '(C76 H80 Cd4 N16 O16)n'
_symmetry_cell_setting           triclinic
_symmetry_space_group_name_H-M   'P 1'
_symmetry_Int_Tables_number      1
_space_group_name_Hall           'P 1'
loop_
_symmetry_equiv_pos_site_id
_symmetry_equiv_pos_as_xyz
1 x,y,z
_cell_length_a                   10.8546(3)
_cell_length_b                   23.6261(7)
_cell_length_c                   9.6799(3)
_cell_angle_alpha                90
_cell_angle_beta                 104.140(3)
_cell_angle_gamma                90
_cell_volume                     2407.22
loop_
_atom_site_label
_atom_site_type_symbol
_atom_site_fract_x
_atom_site_fract_y
_atom_site_fract_z
C17 C 0.22376(19) 0.21661(8) 0.0366(2)
H18 H 0.2365 0.1816 0.0861
C18 C 0.29645(19) 0.26368(8) 0.0666(2)
H19 H 0.3697 0.2673 0.1433
N3 N 0.12782(14) 0.22991(6) 0.91998(16)
N4 N 0.24848(14) 0.30551(6) 0.96919(15)
H11 H 0.0149 0.0884 0.5096
C15 C 0.04011(16) 0.16894(8) 0.7103(2)
H14 H 0.1160 0.1442 0.7301
H15 H 0.0541 0.2000 0.6471
C16 C 0.02212(17) 0.19343(8) 0.8487(2)
H17 H 0.0135 0.1621 0.9135
C19 C 0.14675(16) 0.28339(7) 0.88283(18)
H20 H 0.0937 0.3028 0.8045
Cd5 Cd 0.31934(2) 0.39446(2) 0.97238(2)
C3 C 0.01368(15) 0.49202(7) 0.36211(17)
H1 H 0.0231 0.4866 0.2680
O5 O 0.16405(13) 0.45542(5) 0.86101(13)
O6 O 0.23175(13) 0.40039(5) 0.71045(14)
C20 C 0.16382(15) 0.43970(6) 0.73581(17)
C21 C 0.07842(14) 0.47078(6) 0.61325(16)
C23 C 0.09155(15) 0.46289(7) 0.47468(17)
H22 H 0.1540 0.4375 0.4574
N5 N 0.51175(14) 0.37809(6) 0.93047(15)
N6 N 0.70227(14) 0.39950(6) 0.90508(16)
C28 C 0.60985(16) 0.41288(7) 0.96913(17)
C29 C 0.54424(19) 0.34077(8) 0.8362(2)
H26 H 0.4921 0.3108 0.7895
C30 C 0.66168(19) 0.35320(8) 0.8199(2)
H27 H 0.7068 0.3339 0.7616
C31 C 0.82476(17) 0.42843(8) 0.9252(2)
H28 H 0.8357 0.4414 0.8317
H29 H 0.8255 0.4622 0.9860
C32 C 0.93461(18) 0.38989(8) 0.9942(2)
H30 H 0.9392 0.3584 0.9280
C26 C 0.47918(15) 0.02329(7) 0.12446(17)
H23 H 0.4648 0.0391 0.2094
Cd1 Cd 0.31934(2) 0.10554(2) 0.47238(2)
O1 O 0.16405(13) 0.04458(5) 0.36101(13)
O2 O 0.23175(13) 0.09961(5) 0.21045(14)
C1 C 0.16382(15) 0.06030(6) 0.23581(17)
C2 C 0.07842(14) 0.02922(6) 0.11325(16)
O3 O 0.42350(13) 0.03360(5) 0.61964(13)
O4 O 0.33006(14) 0.09829(6) 0.72234(14)
C5 C 0.39694(15) 0.05461(7) 0.72827(17)
C6 C 0.44928(14) 0.02613(7) 0.86914(16)
C8 C 0.42909(15) 0.04940(7) 0.99476(17)
H4 H 0.3809 0.0832 0.9911
N1 N 0.51175(14) 0.12191(6) 0.43047(15)
N2 N 0.70227(14) 0.10050(6) 0.40508(16)
C9 C 0.60985(16) 0.08712(7) 0.46913(17)
H5 H 0.6141 0.0566 0.5340
C10 C 0.54424(19) 0.15923(8) 0.3362(2)
H6 H 0.4921 0.1892 0.2895
C11 C 0.66168(19) 0.14680(8) 0.3199(2)
H7 H 0.7068 0.1661 0.2616
C12 C 0.82476(17) 0.07157(8) 0.4252(2)
H8 H 0.8357 0.0586 0.3317
H9 H 0.8255 0.0378 0.4860
C13 C 0.93461(18) 0.11011(8) 0.4942(2)
H10 H 0.9392 0.1416 0.4280
C14 C 0.92315(16) 0.13472(7) 0.63587(19)
H12 H 0.9106 0.1035 0.6992
H13 H 0.8473 0.1594 0.6193
H16 H 0.9424 0.2156 0.8289
N10 N 0.24848(14) 0.19449(6) 0.46919(15)
N7 N 0.12782(14) 0.27009(6) 0.41998(16)
H31 H 0.0149 0.4116 0.0096
C34 C 0.04011(16) 0.33106(8) 0.2103(2)
H34 H 0.1160 0.3558 0.2301
H35 H 0.0541 0.3000 0.1471
C35 C 0.02212(17) 0.30657(8) 0.3487(2)
H37 H 0.0135 0.3379 0.4135
C36 C 0.22376(19) 0.28339(8) 0.5366(2)
H38 H 0.2365 0.3184 0.5861
C37 C 0.29645(19) 0.23632(8) 0.5666(2)
H39 H 0.3697 0.2327 0.6433
C38 C 0.14675(16) 0.21661(7) 0.38283(18)
H40 H 0.0937 0.1972 0.3045
C4 C 0.09155(15) 0.03711(7) 0.97468(17)
H2 H 0.1540 0.0625 0.9574
C22 C 0.01368(15) 0.00798(7) 0.86211(17)
H21 H 0.0231 0.0134 0.7680
O7 O 0.57650(13) 0.96640(5) 0.38036(13)
O8 O 0.66994(14) 0.90171(6) 0.27766(14)
C24 C 0.60306(15) 0.94539(7) 0.27173(17)
C25 C 0.55072(14) 0.97387(7) 0.13086(16)
C27 C 0.57091(15) 0.95060(7) 0.00524(17)
H24 H 0.6191 0.9168 0.0089
Cd4 Cd 0.68066(2) 0.89446(2) 0.52762(2)
O5_2 O 0.83595(13) 0.95542(5) 0.63899(13)
O6_2 O 0.76825(13) 0.90039(5) 0.78955(14)
C20_2 C 0.83618(15) 0.93970(6) 0.76419(17)
C21_2 C 0.92158(14) 0.97078(6) 0.88675(16)
N5_2 N 0.48825(14) 0.87809(6) 0.56953(15)
N6_2 N 0.29773(14) 0.89950(6) 0.59492(16)
C28_2 C 0.39015(16) 0.91288(7) 0.53087(17)
H25 H 0.3859 0.9434 0.4660
C29_2 C 0.45576(19) 0.84077(8) 0.6638(2)
H26_2 H 0.5079 0.8108 0.7105
C30_2 C 0.33832(19) 0.85320(8) 0.6801(2)
H27_2 H 0.2932 0.8339 0.7384
C31_2 C 0.17524(17) 0.92843(8) 0.5748(2)
H28_2 H 0.1643 0.9414 0.6683
H29_2 H 0.1745 0.9622 0.5140
C32_2 C 0.06539(18) 0.88989(8) 0.5058(2)
H30_2 H 0.0608 0.8584 0.5720
C33 C 0.07685(16) 0.86528(7) 0.36413(19)
H32 H 0.0894 0.8965 0.3008
H33 H 0.1527 0.8406 0.3807
H36 H 0.0576 0.7844 0.1711
N9 N 0.75152(14) 0.80551(6) 0.53081(15)
N3_2 N 0.87218(14) 0.72991(6) 0.58002(16)
H11_2 H 0.9851 0.5884 0.9904
C15_2 C 0.95989(16) 0.66894(8) 0.7897(2)
H14_2 H 0.8840 0.6442 0.7699
H15_2 H 0.9459 0.7000 0.8529
C16_2 C 0.97788(17) 0.69343(8) 0.6513(2)
H17_2 H 0.9865 0.6621 0.5865
C17_2 C 0.77624(19) 0.71661(8) 0.4634(2)
H18_2 H 0.7635 0.6816 0.4139
C18_2 C 0.70355(19) 0.76368(8) 0.4334(2)
H19_2 H 0.6303 0.7673 0.3567
C19_2 C 0.85325(16) 0.78339(7) 0.61717(18)
H20_2 H 0.9063 0.8028 0.6955
C7 C 0.52082(15) 0.97671(7) 0.87554(17)
H3 H 0.5352 0.9609 0.7906
C3_2 C 0.98632(15) 0.99202(7) 0.13789(17)
H1_2 H 0.9769 0.9866 0.2320
C23_2 C 0.90845(15) 0.96289(7) 0.02532(17)
H22_2 H 0.8460 0.9375 0.0426
N7_2 N 0.87218(14) 0.77009(6) 0.08002(16)
N8 N 0.75152(14) 0.69449(6) 0.03081(15)
H31_2 H 0.9851 0.9116 0.4904
C34_2 C 0.95989(16) 0.83106(8) 0.2897(2)
H34_2 H 0.8840 0.8558 0.2699
H35_2 H 0.9459 0.8000 0.3529
C35_2 C 0.97788(17) 0.80657(8) 0.1513(2)
H37_2 H 0.9865 0.8379 0.0865
C38_2 C 0.85325(16) 0.71661(7) 0.11717(18)
H40_2 H 0.9063 0.6972 0.1955
Cd3 Cd 0.68066(2) 0.60554(2) 0.02762(2)
O1_2 O 0.83595(13) 0.54458(5) 0.13899(13)
O2_2 O 0.76825(13) 0.59961(5) 0.28955(14)
C1_2 C 0.83618(15) 0.56030(6) 0.26419(17)
C2_2 C 0.92158(14) 0.52922(6) 0.38675(16)
C4_2 C 0.90845(15) 0.53711(7) 0.52532(17)
H2_2 H 0.8460 0.5625 0.5426
N1_2 N 0.48825(14) 0.62191(6) 0.06953(15)
N2_2 N 0.29773(14) 0.60050(6) 0.09492(16)
C9_2 C 0.39015(16) 0.58712(7) 0.03087(17)
C10_2 C 0.45576(19) 0.65923(8) 0.1638(2)
H6_2 H 0.5079 0.6892 0.2105
C11_2 C 0.33832(19) 0.64680(8) 0.1801(2)
H7_2 H 0.2932 0.6661 0.2384
C12_2 C 0.17524(17) 0.57157(8) 0.0748(2)
H8_2 H 0.1643 0.5586 0.1683
H9_2 H 0.1745 0.5378 0.0140
C13_2 C 0.06539(18) 0.61011(8) 0.0058(2)
H10_2 H 0.0608 0.6416 0.0720
C22_2 C 0.98632(15) 0.50798(7) 0.63789(17)
H21_2 H 0.9769 0.5134 0.7320
C36_2 C 0.77624(19) 0.78339(8) 0.9634(2)
H38_2 H 0.7635 0.8184 0.9139
C37_2 C 0.70355(19) 0.73632(8) 0.9334(2)
H39_2 H 0.6303 0.7327 0.8567
H25_2 H 0.6141 0.4434 0.0340
C33_2 C 0.92315(16) 0.36528(7) 0.13587(19)
H32_2 H 0.9106 0.3965 0.1992
H33_2 H 0.8473 0.3406 0.1193
H36_2 H 0.9424 0.2844 0.3289
O9 O 0.42350(13) 0.46640(5) 0.11964(13)
O10 O 0.33006(14) 0.40171(6) 0.22234(14)
O3_2 O 0.57650(13) 0.53360(5) 0.88036(13)
O4_2 O 0.66994(14) 0.59829(6) 0.77766(14)
C5_2 C 0.60306(15) 0.55461(7) 0.77173(17)
C6_2 C 0.55072(14) 0.52613(7) 0.63086(16)
C7_2 C 0.47918(15) 0.47671(7) 0.62446(17)
H3_2 H 0.4648 0.4609 0.7094
C8_2 C 0.57091(15) 0.54940(7) 0.50524(17)
H4_2 H 0.6191 0.5832 0.5089
H5_2 H 0.3859 0.5566 0.9660
C14_2 C 0.07685(16) 0.63472(7) 0.86413(19)
H12_2 H 0.0894 0.6035 0.8008
H13_2 H 0.1527 0.6594 0.8807
H16_2 H 0.0576 0.7156 0.6711
C24_2 C 0.39694(15) 0.44539(7) 0.22827(17)
C25_2 C 0.44928(14) 0.47387(7) 0.36914(16)
C26_2 C 0.52082(15) 0.52329(7) 0.37554(17)
H23_2 H 0.5352 0.5391 0.2906
C27_2 C 0.42909(15) 0.45060(7) 0.49476(17)
H24_2 H 0.3809 0.4168 0.4911
loop_
_geom_bond_atom_site_label_1
_geom_bond_atom_site_label_2
_geom_bond_site_symmetry_1
_geom_bond_site_symmetry_2
H18 C17 1_555 1_555
C18 C17 1_555 1_555
H19 C18 1_555 1_555
N3 C16 1_555 1_555
H14 C15 1_555 1_555
H15 C15 1_555 1_555
C16 C15 1_555 1_555
H17 C16 1_555 1_555
C19 N3 1_555 1_555
H20 C19 1_555 1_555
Cd5 N4 1_555 1_555
N4 C19 1_555 1_555
H1 C3 1_555 1_555
O5 C20 1_555 1_555
O6 C20 1_555 1_555
C20 C21 1_555 1_555
C23 C3 1_555 1_555
H22 C23 1_555 1_555
Cd5 O5 1_555 1_555
N5 Cd5 1_555 1_555
N6 C28 1_555 1_555
C28 N5 1_555 1_555
C29 N5 1_555 1_555
H26 C29 1_555 1_555
C30 N6 1_555 1_555
H27 C30 1_555 1_555
C31 N6 1_555 1_555
H28 C31 1_555 1_555
H29 C31 1_555 1_555
C32 C31 1_555 1_555
H30 C32 1_555 1_555
O6 Cd5 1_555 1_555
C21 C23 1_555 1_555
C29 C30 1_555 1_555
H23 C26 1_555 1_555
Cd1 O1 1_555 1_555
O1 C1 1_555 1_555
O2 Cd1 1_555 1_555
C1 O2 1_555 1_555
C2 C1 1_555 1_555
O3 Cd1 1_555 1_555
O4 Cd1 1_555 1_555
C5 O3 1_555 1_555
C6 C5 1_555 1_555
C8 C6 1_555 1_555
H4 C8 1_555 1_555
N1 Cd1 1_555 1_555
N2 C9 1_555 1_555
C9 N1 1_555 1_555
H5 C9 1_555 1_555
C10 N1 1_555 1_555
H6 C10 1_555 1_555
C11 N2 1_555 1_555
H7 C11 1_555 1_555
C12 N2 1_555 1_555
H8 C12 1_555 1_555
H9 C12 1_555 1_555
C13 C12 1_555 1_555
H10 C13 1_555 1_555
C14 C13 1_555 1_555
H12 C14 1_555 1_555
H13 C14 1_555 1_555
N10 Cd1 1_555 1_555
O4 C5 1_555 1_555
C10 C11 1_555 1_555
N7 C35 1_555 1_555
N10 C37 1_555 1_555
H34 C34 1_555 1_555
H35 C34 1_555 1_555
C35 C34 1_555 1_555
H37 C35 1_555 1_555
C36 N7 1_555 1_555
H38 C36 1_555 1_555
C37 C36 1_555 1_555
H39 C37 1_555 1_555
C38 N7 1_555 1_555
H40 C38 1_555 1_555
N10 C38 1_555 1_555
H2 C4 1_555 1_555
C22 C4 1_555 1_555
H21 C22 1_555 1_555
O7 C24 1_555 1_555
O8 C24 1_555 1_555
C24 C25 1_555 1_555
H24 C27 1_555 1_555
Cd4 O7 1_555 1_555
O8 Cd4 1_555 1_555
C25 C27 1_555 1_555
O5_2 C20_2 1_555 1_555
O6_2 C20_2 1_555 1_555
C20_2 C21_2 1_555 1_555
Cd4 O5_2 1_555 1_555
N5_2 Cd4 1_555 1_555
N6_2 C28_2 1_555 1_555
C28_2 N5_2 1_555 1_555
H25 C28_2 1_555 1_555
C29_2 N5_2 1_555 1_555
H26_2 C29_2 1_555 1_555
C30_2 N6_2 1_555 1_555
H27_2 C30_2 1_555 1_555
C31_2 N6_2 1_555 1_555
H28_2 C31_2 1_555 1_555
H29_2 C31_2 1_555 1_555
C32_2 C31_2 1_555 1_555
H30_2 C32_2 1_555 1_555
C33 C32_2 1_555 1_555
H32 C33 1_555 1_555
H33 C33 1_555 1_555
N9 Cd4 1_555 1_555
O6_2 Cd4 1_555 1_555
C29_2 C30_2 1_555 1_555
N3_2 C16_2 1_555 1_555
N9 C18_2 1_555 1_555
H14_2 C15_2 1_555 1_555
H15_2 C15_2 1_555 1_555
C16_2 C15_2 1_555 1_555
H17_2 C16_2 1_555 1_555
C17_2 N3_2 1_555 1_555
H18_2 C17_2 1_555 1_555
C18_2 C17_2 1_555 1_555
H19_2 C18_2 1_555 1_555
C19_2 N3_2 1_555 1_555
H20_2 C19_2 1_555 1_555
N9 C19_2 1_555 1_555
H3 C7 1_555 1_555
H1_2 C3_2 1_555 1_555
C23_2 C3_2 1_555 1_555
H22_2 C23_2 1_555 1_555
N7_2 C35_2 1_555 1_555
H34_2 C34_2 1_555 1_555
H35_2 C34_2 1_555 1_555
C35_2 C34_2 1_555 1_555
H37_2 C35_2 1_555 1_555
C38_2 N7_2 1_555 1_555
H40_2 C38_2 1_555 1_555
Cd3 N8 1_555 1_555
N8 C38_2 1_555 1_555
Cd3 O1_2 1_555 1_555
O1_2 C1_2 1_555 1_555
O2_2 Cd3 1_555 1_555
C1_2 O2_2 1_555 1_555
C2_2 C1_2 1_555 1_555
C4_2 C2_2 1_555 1_555
H2_2 C4_2 1_555 1_555
N1_2 Cd3 1_555 1_555
N2_2 C9_2 1_555 1_555
C9_2 N1_2 1_555 1_555
C10_2 N1_2 1_555 1_555
H6_2 C10_2 1_555 1_555
C11_2 N2_2 1_555 1_555
H7_2 C11_2 1_555 1_555
C12_2 N2_2 1_555 1_555
H8_2 C12_2 1_555 1_555
H9_2 C12_2 1_555 1_555
C13_2 C12_2 1_555 1_555
H10_2 C13_2 1_555 1_555
C22_2 C4_2 1_555 1_555
H21_2 C22_2 1_555 1_555
C10_2 C11_2 1_555 1_555
H38_2 C36_2 1_555 1_555
C37_2 C36_2 1_555 1_555
H39_2 C37_2 1_555 1_555
H32_2 C33_2 1_555 1_555
H33_2 C33_2 1_555 1_555
C5_2 O3_2 1_555 1_555
C6_2 C5_2 1_555 1_555
C7_2 C6_2 1_555 1_555
H3_2 C7_2 1_555 1_555
C8_2 C6_2 1_555 1_555
H4_2 C8_2 1_555 1_555
H12_2 C14_2 1_555 1_555
H13_2 C14_2 1_555 1_555
O9 C24_2 1_555 1_555
O10 C24_2 1_555 1_555
C24_2 C25_2 1_555 1_555
C25_2 C26_2 1_555 1_555
C26_2 C8_2 1_555 1_555
H23_2 C26_2 1_555 1_555
C27_2 C7_2 1_555 1_555
H24_2 C27_2 1_555 1_555
O4_2 C5_2 1_555 1_555
C25_2 C27_2 1_555 1_555

#END
