
###############################################################################
#
# This file contains modified crystal structure data generated from the
# MOF subset of the Cambridge Structural Database (CSD) v543 
# hosted by the Cambridge Crystallographic Data Centre (CCDC).
#
# This work is licensed under the Creative Commons
# Attribution-NonCommercial-ShareAlike 4.0 International License.
# To view a copy of this license, visit
# http://creativecommons.org/licenses/by-nc-sa/4.0/
# or send a letter to
# Creative Commons, PO Box 1866, Mountain View, CA 94042, USA.
#
# CIF created using the CSD Python API on 29 September 2022
# The structure has been converted into the P1 space group
# The structure has a 3D framework
# The original CSD entry EBIZUN is in the rhombohedral crystal system
# The original CSD entry EBIZUN is in a Sohncke space group
# The framework has been calculated to contain at least 10.0% void space
# The void calculation uses a probe of radius 1.32A, grid spacing 0.4
# H atom positions have been added when not included in the experimental data
#
###############################################################################

data_EBIZUN
_chemical_formula_moiety         '(C153 H117 Cu18 N9 O88)n'
_symmetry_cell_setting           triclinic
_symmetry_space_group_name_H-M   'P 1'
_symmetry_Int_Tables_number      1
_space_group_name_Hall           'P 1'
loop_
_symmetry_equiv_pos_site_id
_symmetry_equiv_pos_as_xyz
1 x,y,z
_cell_length_a                   23.358(2)
_cell_length_b                   23.358(2)
_cell_length_c                   19.300(2)
_cell_angle_alpha                90
_cell_angle_beta                 90
_cell_angle_gamma                120
_cell_volume                     9119.25
loop_
_atom_site_label
_atom_site_type_symbol
_atom_site_fract_x
_atom_site_fract_y
_atom_site_fract_z
O8 O 0.4626(11) 0.0412(10) 0.9056(15)
O9 O 0.3736(10) 0.1292(8) 0.7333(10)
O10 O 0.2658(10) 0.0719(9) 0.7114(11)
C13 C 0.3614(8) 0.0295(9) 0.8224(12)
H8 H 0.4014 0.0707 0.8246
C14 C 0.3090(11) 0.0232(10) 0.7825(13)
C17 C 0.315(2) 0.0786(17) 0.7370(18)
Cu4 Cu 0.39832(12) 0.19938(12) 0.66661(16)
Cu6 Cu 0.53265(24) 0.06506(17) 0.9732(2)
Cu7 Cu 0.26827(17) 0.13426(17) 0.6399(2)
O1 O 0.1647(13) 0.5797(18) 0.031(2)
O11 O 0.0406(10) 0.5796(13) 0.0672(10)
O15 O 0.0403(10) 0.4625(8) 0.0666(10)
H10 H 0.177659 0.623844 0.0506169
H11 H 0.170496 0.552409 0.0667121
Cu1 Cu 0.06499(12) 0.53271(12) 0.99994(16)
O3 O 0.0663(12) 0.5942(12) 0.9316(12)
O7 O 0.4055(12) 0.9323(12) 0.9286(12)
C1 C 0.0168(15) 0.5862(14) 0.9010(16)
C3 C 0.0242(12) 0.6435(10) 0.8565(13)
C6 C 0.0333(14) 0.7510(10) 0.7848(18)
H2 H 0.0363 0.7877 0.7604
C7 C 0.0880(12) 0.7570(11) 0.820(2)
C8 C 0.0834(10) 0.7033(13) 0.8558(17)
H3 H 0.1208 0.7074 0.8799
C9 C 0.197(5) 0.843(2) 0.790(6)
H4 H 0.1895 0.8449 0.7397
H5 H 0.2147 0.8124 0.7969
N1 N 0.140(4) 0.8217(18) 0.826(6)
H6 H 0.1358 0.8493 0.8542
C10 C 0.2443(11) 0.9089(10) 0.8161(19)
C11 C 0.2967(12) 0.9152(10) 0.8560(16)
H7 H 0.2925 0.8783 0.8811
C12 C 0.3553(9) 0.9755(11) 0.8591(12)
C15 C 0.2504(10) 0.9628(13) 0.7794(16)
H9 H 0.2146 0.9585 0.7521
C16 C 0.4116(13) 0.9857(15) 0.9056(17)
Cu3 Cu 0.46772(17) 0.93501(12) 0.99994(16)
O13 O 0.0677(12) 0.4732(17) 0.9286(12)
O12 O 0.9319(12) 0.5259(16) 0.0423(12)
O16 O 0.9325(10) 0.4052(9) 0.0447(11)
Cu2 Cu 0.93494(17) 0.46759(17) 0.9732(2)
O2 O 0.8307(12) 0.4163(16) 0.9515(19)
O4 O 0.9605(12) 0.5423(14) 0.9069(12)
O5 O 0.8724(9) 0.6261(10) 0.7339(10)
O6 O 0.9274(11) 0.7348(12) 0.7090(12)
C2 C 0.9178(19) 0.687(2) 0.7430(15)
C4 C 0.9695(9) 0.6374(8) 0.8213(12)
H1 H 0.9291 0.5966 0.8217
C5 C 0.9741(11) 0.6912(11) 0.7855(14)
Cu5 Cu 0.80105(17) 0.60168(12) 0.66661(16)
Cu8 Cu 0.86598(24) 0.73173(17) 0.6399(2)
O14 O 0.9588(10) 0.4214(15) 0.9056(15)
H12 H 0.82334 0.403664 0.901799
H13 H 0.808192 0.375909 0.980606
O1_2 O 0.4203(18) 0.5850(22) 0.031(2)
O11_2 O 0.4204(13) 0.4609(16) 0.0672(10)
O12_2 O 0.4741(16) 0.4059(20) 0.0423(12)
O15_2 O 0.5375(8) 0.5777(13) 0.0666(10)
O16_2 O 0.5948(9) 0.5272(13) 0.0447(11)
H10_2 H 0.376156 0.553815 0.0506169
H11_2 H 0.447591 0.618087 0.0667121
Cu1_2 Cu 0.46729(12) 0.53228(17) 0.99994(16)
Cu2_2 Cu 0.53241(17) 0.46735(24) 0.9732(2)
O2_2 O 0.5837(16) 0.4144(20) 0.9515(19)
O3_2 O 0.4058(12) 0.4721(17) 0.9316(12)
O4_2 O 0.4577(14) 0.4182(18) 0.9069(12)
O5_2 O 0.3739(10) 0.2463(13) 0.7339(10)
O6_2 O 0.2652(12) 0.1926(16) 0.7090(12)
C1_2 C 0.4138(14) 0.4306(21) 0.9010(16)
C2_2 C 0.313(2) 0.2308(28) 0.7430(15)
C3_2 C 0.3565(10) 0.3807(16) 0.8565(13)
C4_2 C 0.3626(8) 0.3321(12) 0.8213(12)
H1_2 H 0.4034 0.3325 0.8217
C5_2 C 0.3088(11) 0.2829(16) 0.7855(14)
C6_2 C 0.2490(10) 0.2823(17) 0.7848(18)
H2_2 H 0.2123 0.2486 0.7604
C7_2 C 0.2430(11) 0.3310(16) 0.820(2)
C8_2 C 0.2967(13) 0.3801(16) 0.8558(17)
H3_2 H 0.2926 0.4134 0.8799
C9_2 C 0.157(2) 0.354(5) 0.790(6)
H4_2 H 0.1551 0.3446 0.7397
H5_2 H 0.1876 0.4023 0.7969
N1_2 N 0.1783(18) 0.3183(44) 0.826(6)
H6_2 H 0.1507 0.2865 0.8542
C10_2 C 0.0911(10) 0.3354(15) 0.8161(19)
C11_2 C 0.0848(10) 0.3815(16) 0.8560(16)
H7_2 H 0.1217 0.4142 0.8811
C12_2 C 0.0245(11) 0.3798(14) 0.8591(12)
C15_2 C 0.0372(13) 0.2876(16) 0.7794(16)
H9_2 H 0.0415 0.2561 0.7521
C16_2 C 0.0143(15) 0.4259(20) 0.9056(17)
O13_2 O 0.5268(17) 0.5945(21) 0.9286(12)
O14_2 O 0.5786(15) 0.5374(18) 0.9056(15)
H12_2 H 0.596336 0.419676 0.901799
H13_2 H 0.624091 0.432282 0.980606
O9_2 O 0.8708(8) 0.2444(13) 0.7333(10)
O10_2 O 0.9281(9) 0.1939(13) 0.7114(11)
C13_2 C 0.9705(9) 0.3319(12) 0.8224(12)
H8_2 H 0.9293 0.3307 0.8246
C14_2 C 0.9768(10) 0.2858(15) 0.7825(13)
C17_2 C 0.9214(17) 0.2364(26) 0.7370(18)
Cu4_2 Cu 0.80062(12) 0.19895(17) 0.66661(16)
Cu7_2 Cu 0.86574(17) 0.13402(24) 0.6399(2)
O12_3 O 0.5941(20) 0.0681(12) 0.0423(12)
O16_3 O 0.4728(13) 0.0675(10) 0.0447(11)
O2_3 O 0.5856(20) 0.1693(12) 0.9515(19)
O4_3 O 0.5818(18) 0.0395(12) 0.9069(12)
O5_3 O 0.7537(13) 0.1276(9) 0.7339(10)
O6_3 O 0.8074(16) 0.0726(11) 0.7090(12)
C2_3 C 0.7692(28) 0.0822(19) 0.7430(15)
C4_3 C 0.6679(12) 0.0305(9) 0.8213(12)
H1_3 H 0.6675 0.0709 0.8217
C5_3 C 0.7171(16) 0.0259(11) 0.7855(14)
H12_3 H 0.580324 0.17666 0.901799
H13_3 H 0.567718 0.191808 0.980606
O1_3 O 0.4150(22) 0.8353(13) 0.031(2)
O11_3 O 0.5391(16) 0.9594(10) 0.0672(10)
O15_3 O 0.4223(13) 0.9597(10) 0.0666(10)
H10_3 H 0.446185 0.822341 0.0506169
H11_3 H 0.381913 0.829504 0.0667121
O3_3 O 0.5279(17) 0.9337(12) 0.9316(12)
O9_3 O 0.7556(13) 0.6264(10) 0.7333(10)
O10_3 O 0.8061(13) 0.7342(10) 0.7114(11)
C1_3 C 0.5694(21) 0.9832(15) 0.9010(16)
C3_3 C 0.6193(16) 0.9758(12) 0.8565(13)
C6_3 C 0.7177(17) 0.9667(14) 0.7848(18)
H2_3 H 0.7514 0.9637 0.7604
C7_3 C 0.6690(16) 0.9120(12) 0.820(2)
C8_3 C 0.6199(16) 0.9166(10) 0.8558(17)
H3_3 H 0.5866 0.8792 0.8799
C9_3 C 0.646(5) 0.803(5) 0.790(6)
H4_3 H 0.6554 0.8105 0.7397
H5_3 H 0.5977 0.7853 0.7969
N1_3 N 0.6817(44) 0.860(4) 0.826(6)
H6_3 H 0.7135 0.8642 0.8542
C10_3 C 0.6646(15) 0.7557(11) 0.8161(19)
C11_3 C 0.6185(16) 0.7033(12) 0.8560(16)
H7_3 H 0.5858 0.7075 0.8811
C12_3 C 0.6202(14) 0.6447(9) 0.8591(12)
C13_3 C 0.6681(12) 0.6386(8) 0.8224(12)
H8_3 H 0.6693 0.5986 0.8246
C14_3 C 0.7142(15) 0.6910(11) 0.7825(13)
C15_3 C 0.7124(16) 0.7496(10) 0.7794(16)
H9_3 H 0.7439 0.7854 0.7521
C16_3 C 0.5741(20) 0.5884(13) 0.9056(17)
C17_3 C 0.7636(26) 0.685(2) 0.7370(18)
O7_2 O 0.0722(12) 0.2656(12) 0.2619(12)
O8_2 O 0.1293(11) 0.3745(10) 0.2389(15)
C12_4 C 0.0220(9) 0.3088(11) 0.1924(12)
C13_4 C 0.0281(8) 0.3628(9) 0.1557(12)
H8_4 H 0.0681 0.4040 0.1579
C16_4 C 0.0783(13) 0.3190(15) 0.2389(17)
Cu3_2 Cu 0.13439(17) 0.26834(12) 0.33327(16)
Cu6_2 Cu 0.19932(24) 0.39839(17) 0.3065(2)
C2_4 C 0.5845(19) 0.020(2) 0.0763(15)
C5_4 C 0.6408(11) 0.0245(11) 0.1188(14)
C6_4 C 0.7000(14) 0.0843(10) 0.1181(18)
H2_4 H 0.7030 0.1210 0.0937
C7_4 C 0.7547(12) 0.0903(11) 0.153(2)
C8_4 C 0.7501(10) 0.0366(13) 0.1891(17)
H3_4 H 0.7875 0.0407 0.2132
C9_4 C 0.864(5) 0.176(2) 0.123(6)
H4_4 H 0.8562 0.1782 0.0730
H5_4 H 0.8814 0.1457 0.1302
N1_4 N 0.807(4) 0.1550(18) 0.159(6)
H6_4 H 0.8025 0.1826 0.1875
C10_4 C 0.9110(11) 0.2422(10) 0.1494(19)
C11_4 C 0.9634(12) 0.2485(10) 0.1893(16)
H7_4 H 0.9592 0.2116 0.2144
C14_4 C 0.9757(11) 0.3565(10) 0.1158(13)
C15_4 C 0.9171(10) 0.2961(13) 0.1127(16)
H9_4 H 0.8813 0.2918 0.0854
C17_4 C 0.982(2) 0.4119(17) 0.0703(18)
Cu1_3 Cu 0.73166(12) 0.86604(12) 0.33327(16)
Cu2_3 Cu 0.60161(17) 0.80092(17) 0.3065(2)
O1_4 O 0.8314(13) 0.9130(18) 0.364(2)
O2_4 O 0.4974(12) 0.7496(16) 0.2848(19)
O3_4 O 0.7330(12) 0.9275(12) 0.2649(12)
O4_4 O 0.6272(12) 0.8756(14) 0.2402(12)
C1_4 C 0.6835(15) 0.9195(14) 0.2343(16)
C3_4 C 0.6909(12) 0.9768(10) 0.1898(13)
C4_4 C 0.6362(9) 0.9707(8) 0.1546(12)
H1_4 H 0.5958 0.9299 0.1550
O11_4 O 0.7072(10) 0.9130(13) 0.4006(10)
O12_4 O 0.5985(12) 0.8593(16) 0.3757(12)
O13_3 O 0.7344(12) 0.8065(17) 0.2619(12)
O14_3 O 0.6255(10) 0.7547(15) 0.2389(15)
O15_4 O 0.7069(10) 0.7959(8) 0.4000(10)
O16_4 O 0.5991(10) 0.7386(9) 0.3781(11)
H10_4 H 0.844326 0.957177 0.38395
H11_4 H 0.837163 0.885742 0.400045
H12_4 H 0.490007 0.736997 0.235132
H13_4 H 0.474858 0.709243 0.31394
Cu1_4 Cu 0.13396(12) 0.86561(17) 0.33327(16)
Cu2_4 Cu 0.19908(17) 0.80068(24) 0.3065(2)
O1_5 O 0.0870(18) 0.9183(22) 0.364(2)
O2_5 O 0.2504(16) 0.7477(20) 0.2848(19)
O3_5 O 0.0725(12) 0.8054(17) 0.2649(12)
O4_5 O 0.1244(14) 0.7515(18) 0.2402(12)
C1_5 C 0.0805(14) 0.7639(21) 0.2343(16)
C3_5 C 0.0232(10) 0.7140(16) 0.1898(13)
C4_5 C 0.0293(8) 0.6654(12) 0.1546(12)
H1_5 H 0.0701 0.6658 0.1550
O11_5 O 0.0870(13) 0.7943(16) 0.4006(10)
O12_5 O 0.1407(16) 0.7393(20) 0.3757(12)
O13_4 O 0.1935(17) 0.9278(21) 0.2619(12)
O14_4 O 0.2453(15) 0.8707(18) 0.2389(15)
O15_5 O 0.2041(8) 0.9111(13) 0.4000(10)
O16_5 O 0.2614(9) 0.8606(13) 0.3781(11)
H10_5 H 0.0428227 0.887149 0.38395
H11_5 H 0.114258 0.95142 0.400045
H12_5 H 0.263003 0.75301 0.235132
H13_5 H 0.290757 0.765616 0.31394
C2_5 C 0.980(2) 0.5641(28) 0.0763(15)
C5_5 C 0.9755(11) 0.6162(16) 0.1188(14)
C6_5 C 0.9157(10) 0.6156(17) 0.1181(18)
H2_5 H 0.8790 0.5819 0.0937
C7_5 C 0.9097(11) 0.6643(16) 0.153(2)
C8_5 C 0.9634(13) 0.7134(16) 0.1891(17)
H3_5 H 0.9593 0.7467 0.2132
C9_5 C 0.824(2) 0.687(5) 0.123(6)
H4_5 H 0.8218 0.6779 0.0730
H5_5 H 0.8543 0.7356 0.1302
N1_5 N 0.8450(18) 0.6516(44) 0.159(6)
H6_5 H 0.8174 0.6198 0.1875
C10_5 C 0.7578(10) 0.6687(15) 0.1494(19)
C11_5 C 0.7515(10) 0.7148(16) 0.1893(16)
H7_5 H 0.7884 0.7475 0.2144
C12_5 C 0.6912(11) 0.7131(14) 0.1924(12)
C13_5 C 0.6372(9) 0.6652(12) 0.1557(12)
H8_5 H 0.5960 0.6640 0.1579
C14_5 C 0.6435(10) 0.6191(15) 0.1158(13)
C15_5 C 0.7039(13) 0.6209(16) 0.1127(16)
H9_5 H 0.7082 0.5894 0.0854
C16_5 C 0.6810(15) 0.7592(20) 0.2389(17)
C17_5 C 0.5881(17) 0.5697(26) 0.0703(18)
O1_6 O 0.0817(22) 0.1686(13) 0.364(2)
O2_6 O 0.2523(20) 0.5026(12) 0.2848(19)
O3_6 O 0.1946(17) 0.2670(12) 0.2649(12)
O4_6 O 0.2485(18) 0.3728(12) 0.2402(12)
C1_6 C 0.2361(21) 0.3165(15) 0.2343(16)
C2_6 C 0.4359(28) 0.4155(19) 0.0763(15)
C3_6 C 0.2860(16) 0.3091(12) 0.1898(13)
C4_6 C 0.3346(12) 0.3638(9) 0.1546(12)
H1_6 H 0.3342 0.4042 0.1550
C5_6 C 0.3838(16) 0.3592(11) 0.1188(14)
C6_6 C 0.3844(17) 0.3000(14) 0.1181(18)
H2_6 H 0.4181 0.2970 0.0937
C7_6 C 0.3357(16) 0.2453(12) 0.153(2)
C8_6 C 0.2866(16) 0.2499(10) 0.1891(17)
H3_6 H 0.2533 0.2125 0.2132
C9_6 C 0.313(5) 0.136(5) 0.123(6)
H4_6 H 0.3221 0.1438 0.0730
H5_6 H 0.2644 0.1186 0.1302
N1_6 N 0.3484(44) 0.193(4) 0.159(6)
H6_6 H 0.3802 0.1975 0.1875
C10_6 C 0.3313(15) 0.0890(11) 0.1494(19)
C11_6 C 0.2852(16) 0.0366(12) 0.1893(16)
H7_6 H 0.2525 0.0408 0.2144
C14_6 C 0.3809(15) 0.0243(11) 0.1158(13)
C15_6 C 0.3791(16) 0.0829(10) 0.1127(16)
H9_6 H 0.4106 0.1187 0.0854
C17_6 C 0.4303(26) 0.018(2) 0.0703(18)
O11_6 O 0.2057(16) 0.2928(10) 0.4006(10)
O12_6 O 0.2607(20) 0.4015(12) 0.3757(12)
O15_6 O 0.0889(13) 0.2931(10) 0.4000(10)
O16_6 O 0.1394(13) 0.4009(10) 0.3781(11)
H10_6 H 0.112851 0.155674 0.38395
H11_6 H 0.0485797 0.162837 0.400045
H12_6 H 0.24699 0.509993 0.235132
H13_6 H 0.234384 0.525142 0.31394
C12_6 C 0.2869(14) 0.9780(9) 0.1924(12)
C13_6 C 0.3348(12) 0.9719(8) 0.1557(12)
H8_6 H 0.3360 0.9319 0.1579
C16_6 C 0.2408(20) 0.9217(13) 0.2389(17)
O1_7 O 0.4980(13) 0.2464(18) 0.698(2)
O2_7 O 0.1640(12) 0.0830(16) 0.6182(19)
O3_7 O 0.3996(12) 0.2609(12) 0.5983(12)
O4_7 O 0.2938(12) 0.2090(14) 0.5736(12)
O7_3 O 0.7388(12) 0.5990(12) 0.5953(12)
O8_3 O 0.7959(11) 0.7079(10) 0.5723(15)
C1_7 C 0.3501(15) 0.2529(14) 0.5677(16)
C2_7 C 0.2511(19) 0.354(2) 0.4097(15)
C3_7 C 0.3575(12) 0.3102(10) 0.5232(13)
C4_7 C 0.3028(9) 0.3041(8) 0.4880(12)
H1_7 H 0.2624 0.2633 0.4884
C5_7 C 0.3074(11) 0.3579(11) 0.4522(14)
C6_7 C 0.3666(14) 0.4177(10) 0.4515(18)
H2_7 H 0.3696 0.4544 0.4271
C7_7 C 0.4213(12) 0.4237(11) 0.487(2)
C8_7 C 0.4167(10) 0.3700(13) 0.5225(17)
H3_7 H 0.4541 0.3741 0.5466
C9_7 C 0.530(5) 0.510(2) 0.457(6)
H4_7 H 0.5228 0.5116 0.4064
H5_7 H 0.5480 0.4791 0.4636
N1_7 N 0.473(4) 0.4884(18) 0.493(6)
H6_7 H 0.4691 0.5160 0.5209
C10_7 C 0.5776(11) 0.5756(10) 0.4828(19)
C11_7 C 0.6300(12) 0.5819(10) 0.5227(16)
H7_7 H 0.6258 0.5450 0.5478
C12_7 C 0.6886(9) 0.6422(11) 0.5258(12)
C13_7 C 0.6947(8) 0.6962(9) 0.4891(12)
H8_7 H 0.7347 0.7374 0.4913
C14_7 C 0.6423(11) 0.6899(10) 0.4492(13)
C15_7 C 0.5837(10) 0.6295(13) 0.4461(16)
H9_7 H 0.5479 0.6252 0.4188
C16_7 C 0.7449(13) 0.6524(15) 0.5723(17)
C17_7 C 0.648(2) 0.7453(17) 0.4037(18)
O13_5 O 0.4010(12) 0.1399(17) 0.5953(12)
O14_5 O 0.2921(10) 0.0881(15) 0.5723(15)
H10_7 H 0.510993 0.290511 0.717284
H11_7 H 0.503829 0.219076 0.733379
H12_7 H 0.156673 0.0703302 0.568466
H13_7 H 0.141525 0.0425761 0.647273
O1_8 O 0.7536(18) 0.2517(22) 0.698(2)
O2_8 O 0.9170(16) 0.0811(20) 0.6182(19)
O3_8 O 0.7391(12) 0.1388(17) 0.5983(12)
O4_8 O 0.7910(14) 0.0849(18) 0.5736(12)
C1_8 C 0.7471(14) 0.0973(21) 0.5677(16)
C3_8 C 0.6898(10) 0.0474(16) 0.5232(13)
C8_8 C 0.6300(13) 0.0468(16) 0.5225(17)
H3_8 H 0.6259 0.0801 0.5466
C9_8 C 0.490(2) 0.021(5) 0.457(6)
H4_8 H 0.4884 0.0113 0.4064
H5_8 H 0.5209 0.0690 0.4636
C10_8 C 0.4244(10) 0.0021(15) 0.4828(19)
C11_8 C 0.4181(10) 0.0482(16) 0.5227(16)
H7_8 H 0.4550 0.0809 0.5478
C12_8 C 0.3578(11) 0.0465(14) 0.5258(12)
C16_8 C 0.3476(15) 0.0926(20) 0.5723(17)
O13_6 O 0.8601(17) 0.2612(21) 0.5953(12)
O14_6 O 0.9119(15) 0.2041(18) 0.5723(15)
H10_8 H 0.709489 0.220482 0.717284
H11_8 H 0.780924 0.284754 0.733379
H12_8 H 0.92967 0.086343 0.568466
H13_8 H 0.957424 0.098949 0.647273
C2_8 C 0.646(2) 0.8975(28) 0.4097(15)
C4_8 C 0.6959(8) 0.9988(12) 0.4880(12)
H1_8 H 0.7367 0.9992 0.4884
C5_8 C 0.6421(11) 0.9496(16) 0.4522(14)
C6_8 C 0.5823(10) 0.9490(17) 0.4515(18)
H2_8 H 0.5456 0.9153 0.4271
C7_8 C 0.5763(11) 0.9977(16) 0.487(2)
N1_8 N 0.5116(18) 0.9850(44) 0.493(6)
H6_8 H 0.4840 0.9532 0.5209
C13_8 C 0.3038(9) 0.9986(12) 0.4891(12)
H8_8 H 0.2626 0.9974 0.4913
C14_8 C 0.3101(10) 0.9525(15) 0.4492(13)
C15_8 C 0.3705(13) 0.9543(16) 0.4461(16)
H9_8 H 0.3748 0.9228 0.4188
C17_8 C 0.2547(17) 0.9031(26) 0.4037(18)
C2_9 C 0.1025(28) 0.7489(19) 0.4097(15)
C4_9 C 0.0012(12) 0.6972(9) 0.4880(12)
H1_9 H 0.0008 0.7376 0.4884
C5_9 C 0.0504(16) 0.6926(11) 0.4522(14)
C6_9 C 0.0510(17) 0.6334(14) 0.4515(18)
H2_9 H 0.0847 0.6304 0.4271
C7_9 C 0.0023(16) 0.5787(12) 0.487(2)
N1_9 N 0.0150(44) 0.527(4) 0.493(6)
H6_9 H 0.0468 0.5309 0.5209
C13_9 C 0.0014(12) 0.3053(8) 0.4891(12)
H8_9 H 0.0026 0.2653 0.4913
C14_9 C 0.0475(15) 0.3577(11) 0.4492(13)
C15_9 C 0.0457(16) 0.4163(10) 0.4461(16)
H9_9 H 0.0772 0.4521 0.4188
C17_9 C 0.0969(26) 0.352(2) 0.4037(18)
O1_9 O 0.7483(22) 0.5020(13) 0.698(2)
O2_9 O 0.9189(20) 0.8360(12) 0.6182(19)
O3_9 O 0.8612(17) 0.6004(12) 0.5983(12)
O4_9 O 0.9151(18) 0.7062(12) 0.5736(12)
C1_9 C 0.9027(21) 0.6499(15) 0.5677(16)
C3_9 C 0.9526(16) 0.6425(12) 0.5232(13)
C8_9 C 0.9532(16) 0.5833(10) 0.5225(17)
H3_9 H 0.9199 0.5459 0.5466
C9_9 C 0.979(5) 0.470(5) 0.457(6)
H4_9 H 0.9887 0.4772 0.4064
H5_9 H 0.9310 0.4520 0.4636
C10_9 C 0.9979(15) 0.4224(11) 0.4828(19)
C11_9 C 0.9518(16) 0.3700(12) 0.5227(16)
H7_9 H 0.9191 0.3742 0.5478
C12_9 C 0.9535(14) 0.3114(9) 0.5258(12)
C16_9 C 0.9074(20) 0.2551(13) 0.5723(17)
H10_9 H 0.779518 0.489007 0.717284
H11_9 H 0.715246 0.496171 0.733379
H12_9 H 0.913657 0.843327 0.568466
H13_9 H 0.901051 0.858475 0.647273
loop_
_geom_bond_atom_site_label_1
_geom_bond_atom_site_label_2
_geom_bond_site_symmetry_1
_geom_bond_site_symmetry_2
O9 C17 1_555 1_555
O10 C17 1_555 1_555
H8 C13 1_555 1_555
C14 C13 1_555 1_555
C17 C14 1_555 1_555
Cu4 O9 1_555 1_555
Cu6 O8 1_555 1_555
Cu7 O10 1_555 1_555
O1 H10 1_555 1_555
O1 H11 1_555 1_555
O3 Cu1 1_555 1_555
O7 C16 1_555 1_555
C1 O3 1_555 1_555
C3 C1 1_555 1_555
H2 C6 1_555 1_555
C7 C6 1_555 1_555
C8 C3 1_555 1_555
H3 C8 1_555 1_555
C9 H4 1_555 1_555
H5 C9 1_555 1_555
N1 C7 1_555 1_555
H6 N1 1_555 1_555
C10 C9 1_555 1_555
C11 C10 1_555 1_555
H7 C11 1_555 1_555
C12 C11 1_555 1_555
C15 C10 1_555 1_555
H9 C15 1_555 1_555
C16 C12 1_555 1_555
Cu3 O7 1_555 1_555
O13 Cu1 1_555 1_555
C7 C8 1_555 1_555
C9 N1 1_555 1_555
Cu2 O2 1_555 1_555
O4 Cu2 1_555 1_555
O5 C2 1_555 1_555
O6 C2 1_555 1_555
C2 C5 1_555 1_555
H1 C4 1_555 1_555
C5 C4 1_555 1_555
Cu5 O5 1_555 1_555
Cu8 O6 1_555 1_555
O14 Cu2 1_555 1_555
O2 H12 1_555 1_555
O2 H13 1_555 1_555
O1_2 H10_2 1_555 1_555
O1_2 H11_2 1_555 1_555
Cu2_2 O2_2 1_555 1_555
O3_2 Cu1_2 1_555 1_555
O4_2 Cu2_2 1_555 1_555
O5_2 C2_2 1_555 1_555
O6_2 C2_2 1_555 1_555
O13 C16_2 1_555 1_555
C1_2 O3_2 1_555 1_555
C2_2 C5_2 1_555 1_555
C3_2 C1_2 1_555 1_555
C4_2 C3_2 1_555 1_555
H1_2 C4_2 1_555 1_555
C5_2 C4_2 1_555 1_555
C6_2 C5_2 1_555 1_555
H2_2 C6_2 1_555 1_555
C7_2 C6_2 1_555 1_555
C8_2 C3_2 1_555 1_555
H3_2 C8_2 1_555 1_555
C9_2 H4_2 1_555 1_555
H5_2 C9_2 1_555 1_555
N1_2 C7_2 1_555 1_555
H6_2 N1_2 1_555 1_555
C10_2 C9_2 1_555 1_555
C11_2 C10_2 1_555 1_555
H7_2 C11_2 1_555 1_555
C12_2 C11_2 1_555 1_555
C15_2 C10_2 1_555 1_555
H9_2 C15_2 1_555 1_555
C16_2 C12_2 1_555 1_555
Cu4 O5_2 1_555 1_555
Cu7 O6_2 1_555 1_555
O13_2 Cu1_2 1_555 1_555
O14_2 Cu2_2 1_555 1_555
O4_2 C1_2 1_555 1_555
C7_2 C8_2 1_555 1_555
C9_2 N1_2 1_555 1_555
O2_2 H12_2 1_555 1_555
O2_2 H13_2 1_555 1_555
O9_2 C17_2 1_555 1_555
O10_2 C17_2 1_555 1_555
H8_2 C13_2 1_555 1_555
C14_2 C13_2 1_555 1_555
C17_2 C14_2 1_555 1_555
Cu4_2 O9_2 1_555 1_555
Cu7_2 O10_2 1_555 1_555
Cu6 O2_3 1_555 1_555
O4_3 Cu6 1_555 1_555
O5_3 C2_3 1_555 1_555
O6_3 C2_3 1_555 1_555
C2_3 C5_3 1_555 1_555
H1_3 C4_3 1_555 1_555
C5_3 C4_3 1_555 1_555
Cu4_2 O5_3 1_555 1_555
Cu7_2 O6_3 1_555 1_555
O2_3 H12_3 1_555 1_555
O2_3 H13_3 1_555 1_555
O1_3 H10_3 1_555 1_555
O1_3 H11_3 1_555 1_555
O3_3 Cu3 1_555 1_555
O13_2 C16_3 1_555 1_555
O14_2 C16_3 1_555 1_555
O9_3 C17_3 1_555 1_555
O10_3 C17_3 1_555 1_555
C1_3 O3_3 1_555 1_555
C3_3 C1_3 1_555 1_555
H2_3 C6_3 1_555 1_555
C7_3 C6_3 1_555 1_555
C8_3 C3_3 1_555 1_555
H3_3 C8_3 1_555 1_555
C9_3 H4_3 1_555 1_555
H5_3 C9_3 1_555 1_555
N1_3 C7_3 1_555 1_555
H6_3 N1_3 1_555 1_555
C10_3 C9_3 1_555 1_555
C11_3 C10_3 1_555 1_555
H7_3 C11_3 1_555 1_555
C12_3 C11_3 1_555 1_555
C13_3 C12_3 1_555 1_555
H8_3 C13_3 1_555 1_555
C14_3 C13_3 1_555 1_555
C15_3 C10_3 1_555 1_555
H9_3 C15_3 1_555 1_555
C16_3 C12_3 1_555 1_555
C17_3 C14_3 1_555 1_555
Cu5 O9_3 1_555 1_555
Cu8 O10_3 1_555 1_555
C7_3 C8_3 1_555 1_555
C9_3 N1_3 1_555 1_555
C14_3 C15_3 1_555 1_555
O7_2 C16_4 1_555 1_555
O8_2 C16_4 1_555 1_555
C13_4 C12_4 1_555 1_555
H8_4 C13_4 1_555 1_555
C16_4 C12_4 1_555 1_555
Cu3_2 O7_2 1_555 1_555
Cu6_2 O8_2 1_555 1_555
O12_3 C2_4 1_555 1_555
O16 C17_4 1_555 1_555
C2_4 C5_4 1_555 1_555
C6_4 C5_4 1_555 1_555
H2_4 C6_4 1_555 1_555
C7_4 C6_4 1_555 1_555
H3_4 C8_4 1_555 1_555
C9_4 H4_4 1_555 1_555
H5_4 C9_4 1_555 1_555
N1_4 C7_4 1_555 1_555
H6_4 N1_4 1_555 1_555
C10_4 C9_4 1_555 1_555
C11_4 C10_4 1_555 1_555
H7_4 C11_4 1_555 1_555
C15_4 C10_4 1_555 1_555
H9_4 C15_4 1_555 1_555
C17_4 C14_4 1_555 1_555
C7_4 C8_4 1_555 1_555
C9_4 N1_4 1_555 1_555
C14_4 C15_4 1_555 1_555
Cu1_3 O1_4 1_555 1_555
Cu2_3 O2_4 1_555 1_555
O3_4 Cu1_3 1_555 1_555
O4_4 Cu2_3 1_555 1_555
C1_4 O3_4 1_555 1_555
C3_4 C1_4 1_555 1_555
C4_4 C3_4 1_555 1_555
H1_4 C4_4 1_555 1_555
O11_4 Cu1_3 1_555 1_555
O12_4 Cu2_3 1_555 1_555
O13_3 Cu1_3 1_555 1_555
O14_3 Cu2_3 1_555 1_555
O15_4 Cu1_3 1_555 1_555
O16_4 Cu2_3 1_555 1_555
O4_4 C1_4 1_555 1_555
O1_4 H10_4 1_555 1_555
O1_4 H11_4 1_555 1_555
O2_4 H12_4 1_555 1_555
O2_4 H13_4 1_555 1_555
Cu1_4 O1_5 1_555 1_555
Cu2_4 O2_5 1_555 1_555
O3_5 Cu1_4 1_555 1_555
O4_5 Cu2_4 1_555 1_555
C1_5 O3_5 1_555 1_555
C3_5 C1_5 1_555 1_555
C4_5 C3_5 1_555 1_555
H1_5 C4_5 1_555 1_555
O11_5 Cu1_4 1_555 1_555
O12_5 Cu2_4 1_555 1_555
O13_4 Cu1_4 1_555 1_555
O14_4 Cu2_4 1_555 1_555
O15_5 Cu1_4 1_555 1_555
O16_5 Cu2_4 1_555 1_555
O4_5 C1_5 1_555 1_555
O1_5 H10_5 1_555 1_555
O1_5 H11_5 1_555 1_555
O2_5 H12_5 1_555 1_555
O2_5 H13_5 1_555 1_555
O12 C2_5 1_555 1_555
O13_3 C16_5 1_555 1_555
O14_3 C16_5 1_555 1_555
O15_2 C17_5 1_555 1_555
O16_2 C17_5 1_555 1_555
C2_5 C5_5 1_555 1_555
C6_5 C5_5 1_555 1_555
H2_5 C6_5 1_555 1_555
C7_5 C6_5 1_555 1_555
H3_5 C8_5 1_555 1_555
C9_5 H4_5 1_555 1_555
H5_5 C9_5 1_555 1_555
N1_5 C7_5 1_555 1_555
H6_5 N1_5 1_555 1_555
C10_5 C9_5 1_555 1_555
C11_5 C10_5 1_555 1_555
H7_5 C11_5 1_555 1_555
C12_5 C11_5 1_555 1_555
C13_5 C12_5 1_555 1_555
H8_5 C13_5 1_555 1_555
C14_5 C13_5 1_555 1_555
C15_5 C10_5 1_555 1_555
H9_5 C15_5 1_555 1_555
C16_5 C12_5 1_555 1_555
C17_5 C14_5 1_555 1_555
C7_5 C8_5 1_555 1_555
C9_5 N1_5 1_555 1_555
C14_5 C15_5 1_555 1_555
Cu3_2 O1_6 1_555 1_555
Cu6_2 O2_6 1_555 1_555
O3_6 Cu3_2 1_555 1_555
O4_6 Cu6_2 1_555 1_555
O11_2 C2_6 1_555 1_555
O12_2 C2_6 1_555 1_555
O16_3 C17_6 1_555 1_555
C1_6 O3_6 1_555 1_555
C2_6 C5_6 1_555 1_555
C3_6 C1_6 1_555 1_555
C4_6 C3_6 1_555 1_555
H1_6 C4_6 1_555 1_555
C5_6 C4_6 1_555 1_555
C6_6 C5_6 1_555 1_555
H2_6 C6_6 1_555 1_555
C7_6 C6_6 1_555 1_555
C8_6 C3_6 1_555 1_555
H3_6 C8_6 1_555 1_555
C9_6 H4_6 1_555 1_555
H5_6 C9_6 1_555 1_555
N1_6 C7_6 1_555 1_555
H6_6 N1_6 1_555 1_555
C10_6 C9_6 1_555 1_555
C11_6 C10_6 1_555 1_555
H7_6 C11_6 1_555 1_555
C15_6 C10_6 1_555 1_555
H9_6 C15_6 1_555 1_555
C17_6 C14_6 1_555 1_555
O11_6 Cu3_2 1_555 1_555
O12_6 Cu6_2 1_555 1_555
O15_6 Cu3_2 1_555 1_555
O16_6 Cu6_2 1_555 1_555
O4_6 C1_6 1_555 1_555
C7_6 C8_6 1_555 1_555
C9_6 N1_6 1_555 1_555
C14_6 C15_6 1_555 1_555
O1_6 H10_6 1_555 1_555
O1_6 H11_6 1_555 1_555
O2_6 H12_6 1_555 1_555
O2_6 H13_6 1_555 1_555
O13_4 C16_6 1_555 1_555
O14_4 C16_6 1_555 1_555
C13_6 C12_6 1_555 1_555
H8_6 C13_6 1_555 1_555
C16_6 C12_6 1_555 1_555
Cu4 O1_7 1_555 1_555
Cu7 O2_7 1_555 1_555
O3_7 Cu4 1_555 1_555
O4_7 Cu7 1_555 1_555
O11_6 C2_7 1_555 1_555
O12_6 C2_7 1_555 1_555
O7_3 C16_7 1_555 1_555
O8_3 C16_7 1_555 1_555
O15_4 C17_7 1_555 1_555
O16_4 C17_7 1_555 1_555
C1_7 O3_7 1_555 1_555
C2_7 C5_7 1_555 1_555
C3_7 C1_7 1_555 1_555
C4_7 C3_7 1_555 1_555
H1_7 C4_7 1_555 1_555
C5_7 C4_7 1_555 1_555
C6_7 C5_7 1_555 1_555
H2_7 C6_7 1_555 1_555
C7_7 C6_7 1_555 1_555
C8_7 C3_7 1_555 1_555
H3_7 C8_7 1_555 1_555
C9_7 H4_7 1_555 1_555
H5_7 C9_7 1_555 1_555
N1_7 C7_7 1_555 1_555
H6_7 N1_7 1_555 1_555
C10_7 C9_7 1_555 1_555
C11_7 C10_7 1_555 1_555
H7_7 C11_7 1_555 1_555
C12_7 C11_7 1_555 1_555
C13_7 C12_7 1_555 1_555
H8_7 C13_7 1_555 1_555
C14_7 C13_7 1_555 1_555
C15_7 C10_7 1_555 1_555
H9_7 C15_7 1_555 1_555
C16_7 C12_7 1_555 1_555
C17_7 C14_7 1_555 1_555
Cu5 O7_3 1_555 1_555
Cu8 O8_3 1_555 1_555
O13_5 Cu4 1_555 1_555
O14_5 Cu7 1_555 1_555
O4_7 C1_7 1_555 1_555
C7_7 C8_7 1_555 1_555
C9_7 N1_7 1_555 1_555
C14_7 C15_7 1_555 1_555
O1_7 H10_7 1_555 1_555
O1_7 H11_7 1_555 1_555
O2_7 H12_7 1_555 1_555
O2_7 H13_7 1_555 1_555
Cu4_2 O1_8 1_555 1_555
Cu7_2 O2_8 1_555 1_555
O3_8 Cu4_2 1_555 1_555
O4_8 Cu7_2 1_555 1_555
O13_5 C16_8 1_555 1_555
O14_5 C16_8 1_555 1_555
C1_8 O3_8 1_555 1_555
C3_8 C1_8 1_555 1_555
C8_8 C3_8 1_555 1_555
H3_8 C8_8 1_555 1_555
C9_8 H4_8 1_555 1_555
H5_8 C9_8 1_555 1_555
C10_8 C9_8 1_555 1_555
C11_8 C10_8 1_555 1_555
H7_8 C11_8 1_555 1_555
C12_8 C11_8 1_555 1_555
C16_8 C12_8 1_555 1_555
O13_6 Cu4_2 1_555 1_555
O14_6 Cu7_2 1_555 1_555
O4_8 C1_8 1_555 1_555
O1_8 H10_8 1_555 1_555
O1_8 H11_8 1_555 1_555
O2_8 H12_8 1_555 1_555
O2_8 H13_8 1_555 1_555
O11_4 C2_8 1_555 1_555
O12_4 C2_8 1_555 1_555
O15_5 C17_8 1_555 1_555
O16_5 C17_8 1_555 1_555
C2_8 C5_8 1_555 1_555
H1_8 C4_8 1_555 1_555
C5_8 C4_8 1_555 1_555
C6_8 C5_8 1_555 1_555
H2_8 C6_8 1_555 1_555
C7_8 C6_8 1_555 1_555
N1_8 C7_8 1_555 1_555
H6_8 N1_8 1_555 1_555
H8_8 C13_8 1_555 1_555
C14_8 C13_8 1_555 1_555
H9_8 C15_8 1_555 1_555
C17_8 C14_8 1_555 1_555
C14_8 C15_8 1_555 1_555
O11_5 C2_9 1_555 1_555
O12_5 C2_9 1_555 1_555
O15_6 C17_9 1_555 1_555
O16_6 C17_9 1_555 1_555
C2_9 C5_9 1_555 1_555
H1_9 C4_9 1_555 1_555
C5_9 C4_9 1_555 1_555
C6_9 C5_9 1_555 1_555
H2_9 C6_9 1_555 1_555
C7_9 C6_9 1_555 1_555
N1_9 C7_9 1_555 1_555
H6_9 N1_9 1_555 1_555
H8_9 C13_9 1_555 1_555
C14_9 C13_9 1_555 1_555
H9_9 C15_9 1_555 1_555
C17_9 C14_9 1_555 1_555
C14_9 C15_9 1_555 1_555
Cu5 O1_9 1_555 1_555
Cu8 O2_9 1_555 1_555
O3_9 Cu5 1_555 1_555
O4_9 Cu8 1_555 1_555
O13_6 C16_9 1_555 1_555
O14_6 C16_9 1_555 1_555
C1_9 O3_9 1_555 1_555
C3_9 C1_9 1_555 1_555
C8_9 C3_9 1_555 1_555
H3_9 C8_9 1_555 1_555
C9_9 H4_9 1_555 1_555
H5_9 C9_9 1_555 1_555
C10_9 C9_9 1_555 1_555
C11_9 C10_9 1_555 1_555
H7_9 C11_9 1_555 1_555
C12_9 C11_9 1_555 1_555
C16_9 C12_9 1_555 1_555
O4_9 C1_9 1_555 1_555
O1_9 H10_9 1_555 1_555
O1_9 H11_9 1_555 1_555
O2_9 H12_9 1_555 1_555
O2_9 H13_9 1_555 1_555

#END
