
###############################################################################
#
# This file contains modified crystal structure data generated from the
# MOF subset of the Cambridge Structural Database (CSD) v543 
# hosted by the Cambridge Crystallographic Data Centre (CCDC).
#
# This work is licensed under the Creative Commons
# Attribution-NonCommercial-ShareAlike 4.0 International License.
# To view a copy of this license, visit
# http://creativecommons.org/licenses/by-nc-sa/4.0/
# or send a letter to
# Creative Commons, PO Box 1866, Mountain View, CA 94042, USA.
#
# CIF created using the CSD Python API on 29 September 2022
# The structure has been converted into the P1 space group
# The structure has a 3D framework
# The original CSD entry EBOBUV is in the orthorhombic crystal system
# The framework has been calculated to contain at least 10.0% void space
# The void calculation uses a probe of radius 1.32A, grid spacing 0.4
#
###############################################################################

data_EBOBUV
_chemical_formula_moiety         '(C72 H56 N8 O16 Zn2)n'
_symmetry_cell_setting           triclinic
_symmetry_space_group_name_H-M   'P 1'
_symmetry_Int_Tables_number      1
_space_group_name_Hall           'P 1'
loop_
_symmetry_equiv_pos_site_id
_symmetry_equiv_pos_as_xyz
1 x,y,z
_cell_length_a                   12.396(3)
_cell_length_b                   13.262(3)
_cell_length_c                   15.772(3)
_cell_angle_alpha                90
_cell_angle_beta                 90
_cell_angle_gamma                90
_cell_volume                     2592.85
loop_
_atom_site_label
_atom_site_type_symbol
_atom_site_fract_x
_atom_site_fract_y
_atom_site_fract_z
C2 C 0.0119(5) 0.3822(4) 0.0575(3)
H1 H 0.0698 0.3558 0.0273
C10 C 0.0355(5) 0.6773(5) 0.8709(3)
C12 C 0.0268(5) 0.5286(4) 0.9636(3)
H9 H 0.0854 0.5012 0.9349
O3 O 0.1070(3) 0.6367(2) 0.8263(2)
O4 O 0.0050(4) 0.7676(3) 0.8611(3)
Zn3 Zn 0.14864(7) 0.7500 0.7500
C1 C 0.9645(5) 0.3227(5) 0.1291(3)
C3 C 0.9732(5) 0.4714(4) 0.0364(3)
H2 H 0.9146 0.4988 0.0651
C4 C 0.7260(5) 0.3150(3) 0.4051(3)
H3 H 0.7677 0.2663 0.4322
C5 C 0.6541(5) 0.3686(4) 0.4530(3)
H4 H 0.6482 0.3565 0.5109
C6 C 0.5901(3) 0.4411(3) 0.4149(3)
C7 C 0.6041(4) 0.4553(4) 0.3290(3)
H5 H 0.5634 0.5032 0.3003
C8 C 0.6778(4) 0.3987(3) 0.2867(3)
H6 H 0.6855 0.4099 0.2288
C9 C 0.5136(4) 0.5086(3) 0.4623(3)
H7 H 0.4855 0.5649 0.4350
N1 N 0.7399(3) 0.3281(2) 0.3222(2)
O1 O 0.8930(3) 0.3633(2) 0.1737(2)
O2 O 0.9950(4) 0.2324(3) 0.1389(3)
Zn1 Zn 0.85136(7) 0.2500 0.2500
C13 C 0.2740(5) 0.6850(3) 0.5949(3)
H10 H 0.2323 0.7337 0.5678
C14 C 0.3459(5) 0.6314(4) 0.5470(3)
H11 H 0.3518 0.6435 0.4891
C15 C 0.4099(3) 0.5589(3) 0.5851(3)
C16 C 0.3959(4) 0.5447(4) 0.6710(3)
H12 H 0.4366 0.4968 0.6997
C17 C 0.3222(4) 0.6013(3) 0.7133(3)
H13 H 0.3145 0.5901 0.7712
C18 C 0.4864(4) 0.4914(3) 0.5377(3)
H14 H 0.5145 0.4351 0.5650
N2 N 0.2601(3) 0.6719(2) 0.6778(2)
N3 N 0.7399(3) 0.1719(2) 0.1778(2)
O5 O 0.8930(3) 0.1367(2) 0.3263(2)
O6 O 0.9950(4) 0.2676(3) 0.3611(3)
C10_2 C 0.0355(5) 0.8227(5) 0.6291(3)
C12_2 C 0.0268(5) 0.9714(4) 0.5364(3)
H9_2 H 0.0854 0.9988 0.5651
O3_2 O 0.1070(3) 0.8633(2) 0.6737(2)
O4_2 O 0.0050(4) 0.7324(3) 0.6389(3)
C1_2 C 0.9645(5) 0.1773(5) 0.3709(3)
C3_2 C 0.9732(5) 0.0286(4) 0.4636(3)
H2_2 H 0.9146 0.0012 0.4349
C4_2 C 0.7260(5) 0.1850(3) 0.0949(3)
H3_2 H 0.7677 0.2337 0.0678
C5_2 C 0.6541(5) 0.1314(4) 0.0470(3)
C6_2 C 0.5901(3) 0.0589(3) 0.0851(3)
C7_2 C 0.6041(4) 0.0447(4) 0.1710(3)
C8_2 C 0.6778(4) 0.1013(3) 0.2133(3)
H6_2 H 0.6855 0.0901 0.2712
C13_2 C 0.2740(5) 0.8150(3) 0.9051(3)
H10_2 H 0.2323 0.7663 0.9322
C14_2 C 0.3459(5) 0.8686(4) 0.9530(3)
C15_2 C 0.4099(3) 0.9411(3) 0.9149(3)
C16_2 C 0.3959(4) 0.9553(4) 0.8290(3)
C17_2 C 0.3222(4) 0.8987(3) 0.7867(3)
H13_2 H 0.3145 0.9099 0.7288
N2_2 N 0.2601(3) 0.8281(2) 0.8222(2)
C11 C 0.9881(5) 0.6178(4) 0.9425(3)
H8 H 0.9302 0.6442 0.9727
H7_2 H 0.0145 0.4351 0.4350
C13_3 C 0.2260(5) 0.3150(3) 0.5949(3)
H10_3 H 0.2677 0.2663 0.5678
C14_3 C 0.1541(5) 0.3686(4) 0.5470(3)
H11_2 H 0.1482 0.3565 0.4891
C15_3 C 0.0901(3) 0.4411(3) 0.5851(3)
C16_3 C 0.1041(4) 0.4553(4) 0.6710(3)
H12_2 H 0.0634 0.5032 0.6997
C17_3 C 0.1778(4) 0.3987(3) 0.7133(3)
H13_3 H 0.1855 0.4099 0.7712
C18_2 C 0.0136(4) 0.5086(3) 0.5377(3)
N2_3 N 0.2399(3) 0.3281(2) 0.6778(2)
Zn2 Zn 0.35136(7) 0.2500 0.7500
C10_3 C 0.4645(5) 0.3227(5) 0.8709(3)
C11_2 C 0.5119(5) 0.3822(4) 0.9425(3)
H8_2 H 0.5698 0.3558 0.9727
C12_3 C 0.4732(5) 0.4714(4) 0.9636(3)
H9_3 H 0.4146 0.4988 0.9349
O3_3 O 0.3930(3) 0.3633(2) 0.8263(2)
O4_3 O 0.4950(4) 0.2324(3) 0.8611(3)
C13_4 C 0.2260(5) 0.1850(3) 0.9051(3)
H10_4 H 0.2677 0.2337 0.9322
C14_4 C 0.1541(5) 0.1314(4) 0.9530(3)
C15_4 C 0.0901(3) 0.0589(3) 0.9149(3)
C16_4 C 0.1041(4) 0.0447(4) 0.8290(3)
C17_4 C 0.1778(4) 0.1013(3) 0.7867(3)
H13_4 H 0.1855 0.0901 0.7288
N2_4 N 0.2399(3) 0.1719(2) 0.8222(2)
H5_2 H 0.9366 0.0032 0.1997
C9_2 C 0.9864(4) 0.0086(3) 0.0377(3)
C10_4 C 0.4645(5) 0.1773(5) 0.6291(3)
C11_3 C 0.5119(5) 0.1178(4) 0.5575(3)
H8_3 H 0.5698 0.1442 0.5273
C12_4 C 0.4732(5) 0.0286(4) 0.5364(3)
H9_4 H 0.4146 0.0012 0.5651
O3_4 O 0.3930(3) 0.1367(2) 0.6737(2)
O4_4 O 0.4950(4) 0.2676(3) 0.6389(3)
C1_3 C 0.5355(5) 0.6773(5) 0.1291(3)
C2_2 C 0.4881(5) 0.6178(4) 0.0575(3)
H1_2 H 0.4302 0.6442 0.0273
C3_3 C 0.5268(5) 0.5286(4) 0.0364(3)
H2_3 H 0.5854 0.5012 0.0651
C4_3 C 0.7740(5) 0.6850(3) 0.4051(3)
H3_3 H 0.7323 0.7337 0.4322
C5_3 C 0.8459(5) 0.6314(4) 0.4530(3)
H4_2 H 0.8518 0.6435 0.5109
C6_3 C 0.9099(3) 0.5589(3) 0.4149(3)
C7_3 C 0.8959(4) 0.5447(4) 0.3290(3)
H5_3 H 0.9366 0.4968 0.3003
C8_3 C 0.8222(4) 0.6013(3) 0.2867(3)
H6_3 H 0.8145 0.5901 0.2288
C9_3 C 0.9864(4) 0.4914(3) 0.4623(3)
N1_2 N 0.7601(3) 0.6719(2) 0.3222(2)
O1_2 O 0.6070(3) 0.6367(2) 0.1737(2)
O2_2 O 0.5050(4) 0.7676(3) 0.1389(3)
Zn1_2 Zn 0.64864(7) 0.7500 0.2500
H14_2 H 0.9855 0.5649 0.5650
N3_2 N 0.7601(3) 0.8281(2) 0.1778(2)
O5_2 O 0.6070(3) 0.8633(2) 0.3263(2)
O6_2 O 0.5050(4) 0.7324(3) 0.3611(3)
H12_3 H 0.0634 0.9968 0.8003
C18_3 C 0.0136(4) 0.9914(3) 0.9623(3)
C1_4 C 0.5355(5) 0.8227(5) 0.3709(3)
C2_3 C 0.4881(5) 0.8822(4) 0.4425(3)
H1_3 H 0.4302 0.8558 0.4727
C3_4 C 0.5268(5) 0.9714(4) 0.4636(3)
H2_4 H 0.5854 0.9988 0.4349
C4_4 C 0.7740(5) 0.8150(3) 0.0949(3)
H3_4 H 0.7323 0.7663 0.0678
C5_4 C 0.8459(5) 0.8686(4) 0.0470(3)
C6_4 C 0.9099(3) 0.9411(3) 0.0851(3)
C7_4 C 0.8959(4) 0.9553(4) 0.1710(3)
C8_4 C 0.8222(4) 0.8987(3) 0.2133(3)
H6_4 H 0.8145 0.9099 0.2712
H7_3 H 0.0145 0.0649 0.0650
H11_3 H 0.1482 0.1435 0.0109
H4_3 H 0.8518 0.8565 0.9891
H14_3 H 0.9855 0.9351 0.9350
C2_4 C 0.0119(5) 0.1178(4) 0.4425(3)
H1_4 H 0.0698 0.1442 0.4727
H4_4 H 0.6482 0.1435 0.9891
H12_4 H 0.4366 0.0032 0.8003
C18_4 C 0.4864(4) 0.0086(3) 0.9623(3)
H14_4 H 0.5145 0.0649 0.9350
H5_4 H 0.5634 0.9968 0.1997
C9_4 C 0.5136(4) 0.9914(3) 0.0377(3)
H7_4 H 0.4855 0.9351 0.0650
C11_4 C 0.9881(5) 0.8822(4) 0.5575(3)
H8_4 H 0.9302 0.8558 0.5273
H11_4 H 0.3518 0.8565 0.0109
loop_
_geom_bond_atom_site_label_1
_geom_bond_atom_site_label_2
_geom_bond_site_symmetry_1
_geom_bond_site_symmetry_2
C2 H1 1_555 1_555
H9 C12 1_555 1_555
O3 C10 1_555 1_555
O4 C10 1_555 1_555
Zn3 O3 1_555 1_555
O4 Zn3 1_555 1_555
H2 C3 1_555 1_555
C4 H3 1_555 1_555
C5 C4 1_555 1_555
H4 C5 1_555 1_555
C6 C5 1_555 1_555
C7 C6 1_555 1_555
H5 C7 1_555 1_555
C8 C7 1_555 1_555
H6 C8 1_555 1_555
C9 C6 1_555 1_555
H7 C9 1_555 1_555
N1 C4 1_555 1_555
O1 C1 1_555 1_555
O2 C1 1_555 1_555
Zn1 N1 1_555 1_555
C13 H10 1_555 1_555
C14 C13 1_555 1_555
H11 C14 1_555 1_555
C15 C14 1_555 1_555
C16 C15 1_555 1_555
H12 C16 1_555 1_555
C17 C16 1_555 1_555
H13 C17 1_555 1_555
C18 C9 1_555 1_555
H14 C18 1_555 1_555
N2 C13 1_555 1_555
N3 Zn1 1_555 1_555
O5 Zn1 1_555 1_555
O6 Zn1 1_555 1_555
Zn3 N2 1_555 1_555
C8 N1 1_555 1_555
O1 Zn1 1_555 1_555
O2 Zn1 1_555 1_555
C15 C18 1_555 1_555
C17 N2 1_555 1_555
H9_2 C12_2 1_555 1_555
O3_2 C10_2 1_555 1_555
O4_2 C10_2 1_555 1_555
Zn3 O3_2 1_555 1_555
O4_2 Zn3 1_555 1_555
H2_2 C3_2 1_555 1_555
C4_2 H3_2 1_555 1_555
C5_2 C4_2 1_555 1_555
C6_2 C5_2 1_555 1_555
C7_2 C6_2 1_555 1_555
C8_2 C7_2 1_555 1_555
H6_2 C8_2 1_555 1_555
N3 C4_2 1_555 1_555
O5 C1_2 1_555 1_555
O6 C1_2 1_555 1_555
C8_2 N3 1_555 1_555
C13_2 H10_2 1_555 1_555
C14_2 C13_2 1_555 1_555
C15_2 C14_2 1_555 1_555
C16_2 C15_2 1_555 1_555
C17_2 C16_2 1_555 1_555
H13_2 C17_2 1_555 1_555
N2_2 C13_2 1_555 1_555
Zn3 N2_2 1_555 1_555
C17_2 N2_2 1_555 1_555
C11 H8 1_555 1_555
C13_3 H10_3 1_555 1_555
C14_3 C13_3 1_555 1_555
H11_2 C14_3 1_555 1_555
C15_3 C14_3 1_555 1_555
C16_3 C15_3 1_555 1_555
H12_2 C16_3 1_555 1_555
C17_3 C16_3 1_555 1_555
H13_3 C17_3 1_555 1_555
N2_3 C13_3 1_555 1_555
Zn2 N2_3 1_555 1_555
C15_3 C18_2 1_555 1_555
C17_3 N2_3 1_555 1_555
C10_3 C11_2 1_555 1_555
C11_2 H8_2 1_555 1_555
H9_3 C12_3 1_555 1_555
O3_3 C10_3 1_555 1_555
O4_3 C10_3 1_555 1_555
Zn2 O3_3 1_555 1_555
C11_2 C12_3 1_555 1_555
O4_3 Zn2 1_555 1_555
C13_4 H10_4 1_555 1_555
C14_4 C13_4 1_555 1_555
C15_4 C14_4 1_555 1_555
C16_4 C15_4 1_555 1_555
C17_4 C16_4 1_555 1_555
H13_4 C17_4 1_555 1_555
N2_4 C13_4 1_555 1_555
Zn2 N2_4 1_555 1_555
C17_4 N2_4 1_555 1_555
C10_4 C11_3 1_555 1_555
C11_3 H8_3 1_555 1_555
H9_4 C12_4 1_555 1_555
O3_4 C10_4 1_555 1_555
O4_4 C10_4 1_555 1_555
Zn2 O3_4 1_555 1_555
C11_3 C12_4 1_555 1_555
O4_4 Zn2 1_555 1_555
C1_3 C2_2 1_555 1_555
C2_2 H1_2 1_555 1_555
C3_3 C2_2 1_555 1_555
H2_3 C3_3 1_555 1_555
C4_3 H3_3 1_555 1_555
C5_3 C4_3 1_555 1_555
H4_2 C5_3 1_555 1_555
C6_3 C5_3 1_555 1_555
C7_3 C6_3 1_555 1_555
H5_3 C7_3 1_555 1_555
C8_3 C7_3 1_555 1_555
H6_3 C8_3 1_555 1_555
C9_3 C6_3 1_555 1_555
N1_2 C4_3 1_555 1_555
O1_2 C1_3 1_555 1_555
O2_2 C1_3 1_555 1_555
Zn1_2 N1_2 1_555 1_555
N3_2 Zn1_2 1_555 1_555
O5_2 Zn1_2 1_555 1_555
O6_2 Zn1_2 1_555 1_555
C8_3 N1_2 1_555 1_555
O1_2 Zn1_2 1_555 1_555
O2_2 Zn1_2 1_555 1_555
C1_4 C2_3 1_555 1_555
C2_3 H1_3 1_555 1_555
C3_4 C2_3 1_555 1_555
H2_4 C3_4 1_555 1_555
C4_4 H3_4 1_555 1_555
C5_4 C4_4 1_555 1_555
C6_4 C5_4 1_555 1_555
C7_4 C6_4 1_555 1_555
C8_4 C7_4 1_555 1_555
H6_4 C8_4 1_555 1_555
N3_2 C4_4 1_555 1_555
O5_2 C1_4 1_555 1_555
O6_2 C1_4 1_555 1_555
C8_4 N3_2 1_555 1_555
C2_4 H1_4 1_555 1_555
H14_4 C18_4 1_555 1_555
H7_4 C9_4 1_555 1_555
C11_4 H8_4 1_555 1_555

#END
