
###############################################################################
#
# This file contains modified crystal structure data generated from the
# MOF subset of the Cambridge Structural Database (CSD) v543 
# hosted by the Cambridge Crystallographic Data Centre (CCDC).
#
# This work is licensed under the Creative Commons
# Attribution-NonCommercial-ShareAlike 4.0 International License.
# To view a copy of this license, visit
# http://creativecommons.org/licenses/by-nc-sa/4.0/
# or send a letter to
# Creative Commons, PO Box 1866, Mountain View, CA 94042, USA.
#
# CIF created using the CSD Python API on 29 September 2022
# The structure has been converted into the P1 space group
# The structure has a 3D framework
# The original CSD entry EBOBIJ is in the monoclinic crystal system
# The framework has been calculated to contain at least 10.0% void space
# The void calculation uses a probe of radius 1.32A, grid spacing 0.4
#
###############################################################################

data_EBOBIJ
_chemical_formula_moiety         '(C64 H48 N8 O16 Zn3)n'
_symmetry_cell_setting           triclinic
_symmetry_space_group_name_H-M   'P 1'
_symmetry_Int_Tables_number      1
_space_group_name_Hall           'P 1'
loop_
_symmetry_equiv_pos_site_id
_symmetry_equiv_pos_as_xyz
1 x,y,z
_cell_length_a                   8.8979(3)
_cell_length_b                   21.4587(7)
_cell_length_c                   13.4851(4)
_cell_angle_alpha                90
_cell_angle_beta                 96.7804(16)
_cell_angle_gamma                90
_cell_volume                     2556.8
loop_
_atom_site_label
_atom_site_type_symbol
_atom_site_fract_x
_atom_site_fract_y
_atom_site_fract_z
Zn3 Zn -0.0000 0.85268(2) 0.2500
Zn1 Zn 0.5000 0.64732(2) 0.7500
O1 O 0.6028(2) 0.70593(9) 0.84632(14)
O2 O 0.7071(3) 0.62298(11) 0.9219(2)
N1 N 0.3533(2) 0.59490(11) 0.81818(17)
C1 C 0.6871(3) 0.67905(13) 0.9168(2)
C2 C 0.7610(3) 0.72009(14) 0.9967(2)
C3 C 0.3977(4) 0.54151(14) 0.8652(2)
H2 H 0.4952 0.5270 0.8610
C4 C 0.3041(4) 0.50750(15) 0.9193(3)
H3 H 0.3383 0.4706 0.9503
C5 C 0.1598(4) 0.52854(15) 0.9274(3)
C6 C 0.1143(3) 0.58322(19) 0.8781(3)
H4 H 0.0178 0.5990 0.8819
C7 C 0.2128(3) 0.61410(17) 0.8233(3)
H5 H 0.1792 0.6499 0.7886
C8 C 0.0672(4) 0.49230(17) 0.9908(3)
H7 H 0.6716 0.7984 0.9540
O5 O 0.3972(2) 0.70593(9) 0.65368(14)
N3 N 0.6467(2) 0.59490(11) 0.68182(17)
O2_2 O 0.2929(3) 0.62298(11) 0.5781(2)
C1_2 C 0.3129(3) 0.67905(13) 0.5832(2)
C2_2 C 0.2390(3) 0.72009(14) 0.5033(2)
H1 H 0.1716 0.7016 0.4540
C3_2 C 0.6023(4) 0.54151(14) 0.6348(2)
H2_2 H 0.5048 0.5270 0.6390
C4_2 C 0.6959(4) 0.50750(15) 0.5807(3)
H3_2 H 0.6617 0.4706 0.5497
C5_2 C 0.8402(4) 0.52854(15) 0.5726(3)
C6_2 C 0.8857(3) 0.58322(19) 0.6219(3)
H4_2 H 0.9822 0.5990 0.6181
C7_2 C 0.7872(3) 0.61410(17) 0.6767(3)
H5_2 H 0.8208 0.6499 0.7114
C8_2 C 0.9328(4) 0.49230(17) 0.5092(3)
H6 H 0.8916 0.4558 0.4806
O3 O 0.1028(2) 0.79407(9) 0.34632(14)
O4 O 0.2071(3) 0.87702(11) 0.4219(2)
C9 C 0.1871(3) 0.82095(13) 0.4168(2)
C10 C 0.2610(3) 0.77991(14) 0.4967(2)
H7_2 H 0.3284 0.7984 0.5460
H6_2 H 0.6084 0.9558 0.0194
N2 N 0.1467(2) 0.90510(11) 0.18182(17)
C11 C 0.1023(4) 0.95849(14) 0.1348(2)
H8 H 0.0048 0.9730 0.1390
C12 C 0.1959(4) 0.99250(15) 0.0807(3)
C13 C 0.3402(4) 0.97146(15) 0.0726(3)
C14 C 0.3857(3) 0.91678(19) 0.1219(3)
H10 H 0.4822 0.9010 0.1181
C15 C 0.2872(3) 0.88590(17) 0.1767(3)
H11 H 0.3208 0.8501 0.2114
H1_2 H 0.8284 0.7016 0.0460
H6_3 H 0.1084 0.4558 0.0194
O3_2 O 0.8972(2) 0.79407(9) 0.15368(14)
O4_2 O 0.7929(3) 0.87702(11) 0.0781(2)
C9_2 C 0.8129(3) 0.82095(13) 0.0832(2)
C10_2 C 0.7390(3) 0.77991(14) 0.0033(2)
Zn3_2 Zn 1.0000 0.85268(2) 0.2500
H3_3 H 0.1617 0.9706 0.5497
C8_3 C 0.4328(4) 0.99230(17) 0.5092(3)
H6_4 H 0.3916 0.9558 0.4806
N2_2 N 0.8533(2) 0.90510(11) 0.31818(17)
C11_2 C 0.8977(4) 0.95849(14) 0.3652(2)
H8_2 H 0.9952 0.9730 0.3610
C12_2 C 0.8041(4) 0.99250(15) 0.4193(3)
C13_2 C 0.6598(4) 0.97146(15) 0.4274(3)
C14_2 C 0.6143(3) 0.91678(19) 0.3781(3)
H10_2 H 0.5178 0.9010 0.3819
C15_2 C 0.7128(3) 0.88590(17) 0.3233(3)
H11_2 H 0.6792 0.8501 0.2886
N2_3 N 0.6467(2) 0.40510(11) 0.18182(17)
C11_3 C 0.6023(4) 0.45849(14) 0.1348(2)
H8_3 H 0.5048 0.4730 0.1390
C12_3 C 0.6959(4) 0.49250(15) 0.0807(3)
H9 H 0.6617 0.5294 0.0497
C13_3 C 0.8402(4) 0.47146(15) 0.0726(3)
C14_3 C 0.8857(3) 0.41678(19) 0.1219(3)
H10_3 H 0.9822 0.4010 0.1181
C15_3 C 0.7872(3) 0.38590(17) 0.1767(3)
H11_3 H 0.8208 0.3501 0.2114
C16 C 0.9328(4) 0.50770(17) 0.0092(3)
Zn2 Zn 0.5000 0.35268(2) 0.2500
N2_4 N 0.3533(2) 0.40510(11) 0.31818(17)
C11_4 C 0.3977(4) 0.45849(14) 0.3652(2)
H8_4 H 0.4952 0.4730 0.3610
C12_4 C 0.3041(4) 0.49250(15) 0.4193(3)
H9_2 H 0.3383 0.5294 0.4503
C13_4 C 0.1598(4) 0.47146(15) 0.4274(3)
C14_4 C 0.1143(3) 0.41678(19) 0.3781(3)
H10_4 H 0.0178 0.4010 0.3819
C15_4 C 0.2128(3) 0.38590(17) 0.3233(3)
H11_4 H 0.1792 0.3501 0.2886
C16_2 C 0.0672(4) 0.50770(17) 0.4908(3)
H12 H 0.1084 0.5442 0.5194
H1_3 H 0.3284 0.2016 0.0460
O3_3 O 0.3972(2) 0.29407(9) 0.15368(14)
O4_3 O 0.2929(3) 0.37702(11) 0.0781(2)
C9_3 C 0.3129(3) 0.32095(13) 0.0832(2)
C10_3 C 0.2390(3) 0.27991(14) 0.0033(2)
Zn1_2 Zn 1.0000 0.14732(2) 0.7500
N1_2 N 0.8533(2) 0.09490(11) 0.81818(17)
C3_3 C 0.8977(4) 0.04151(14) 0.8652(2)
H2_3 H 0.9952 0.0270 0.8610
C4_3 C 0.8041(4) 0.00750(15) 0.9193(3)
C5_3 C 0.6598(4) 0.02854(15) 0.9274(3)
C6_3 C 0.6143(3) 0.08322(19) 0.8781(3)
H4_3 H 0.5178 0.0990 0.8819
C7_3 C 0.7128(3) 0.11410(17) 0.8233(3)
H5_3 H 0.6792 0.1499 0.7886
H12_2 H 0.3916 0.0442 0.9806
O5_2 O 0.8972(2) 0.20593(9) 0.65368(14)
O2_3 O 0.7929(3) 0.12298(11) 0.5781(2)
C1_3 C 0.8129(3) 0.17905(13) 0.5832(2)
C2_3 C 0.7390(3) 0.22009(14) 0.5033(2)
H1_4 H 0.6716 0.2016 0.4540
O3_4 O 0.6028(2) 0.29407(9) 0.34632(14)
O4_4 O 0.7071(3) 0.37702(11) 0.4219(2)
C9_4 C 0.6871(3) 0.32095(13) 0.4168(2)
C10_4 C 0.7610(3) 0.27991(14) 0.4967(2)
H7_3 H 0.8284 0.2984 0.5460
H12_3 H 0.8916 0.5442 0.9806
Zn1_3 Zn -0.0000 0.14732(2) 0.7500
O1_2 O 0.1028(2) 0.20593(9) 0.84632(14)
O2_4 O 0.2071(3) 0.12298(11) 0.9219(2)
C1_4 C 0.1871(3) 0.17905(13) 0.9168(2)
C2_4 C 0.2610(3) 0.22009(14) 0.9967(2)
H7_4 H 0.1716 0.2984 0.9540
N3_2 N 0.1467(2) 0.09490(11) 0.68182(17)
C3_4 C 0.1023(4) 0.04151(14) 0.6348(2)
H2_4 H 0.0048 0.0270 0.6390
C4_4 C 0.1959(4) 0.00750(15) 0.5807(3)
C5_4 C 0.3402(4) 0.02854(15) 0.5726(3)
C6_4 C 0.3857(3) 0.08322(19) 0.6219(3)
H4_4 H 0.4822 0.0990 0.6181
C7_4 C 0.2872(3) 0.11410(17) 0.6767(3)
H5_4 H 0.3208 0.1499 0.7114
H9_3 H 0.8383 0.0294 0.4503
C16_3 C 0.5672(4) 0.00770(17) 0.4908(3)
H12_4 H 0.6084 0.0442 0.5194
H9_4 H 0.1617 0.0294 0.0497
C16_4 C 0.4328(4) 0.00770(17) 0.0092(3)
H3_4 H 0.8383 0.9706 0.9503
C8_4 C 0.5672(4) 0.99230(17) 0.9908(3)
loop_
_geom_bond_atom_site_label_1
_geom_bond_atom_site_label_2
_geom_bond_site_symmetry_1
_geom_bond_site_symmetry_2
Zn1 O1 1_555 1_555
O1 C1 1_555 1_555
O2 C1 1_555 1_555
N1 Zn1 1_555 1_555
C1 C2 1_555 1_555
C3 N1 1_555 1_555
H2 C3 1_555 1_555
C4 C3 1_555 1_555
H3 C4 1_555 1_555
C5 C4 1_555 1_555
C6 C5 1_555 1_555
H4 C6 1_555 1_555
C7 N1 1_555 1_555
H5 C7 1_555 1_555
C8 C5 1_555 1_555
O5 Zn1 1_555 1_555
N3 Zn1 1_555 1_555
C6 C7 1_555 1_555
O5 C1_2 1_555 1_555
O2_2 C1_2 1_555 1_555
C1_2 C2_2 1_555 1_555
C2_2 H1 1_555 1_555
C3_2 N3 1_555 1_555
H2_2 C3_2 1_555 1_555
C4_2 C3_2 1_555 1_555
H3_2 C4_2 1_555 1_555
C5_2 C4_2 1_555 1_555
C6_2 C5_2 1_555 1_555
H4_2 C6_2 1_555 1_555
C7_2 N3 1_555 1_555
H5_2 C7_2 1_555 1_555
C8_2 C5_2 1_555 1_555
H6 C8_2 1_555 1_555
O3 C9 1_555 1_555
O4 C9 1_555 1_555
C9 C10 1_555 1_555
C10 C2_2 1_555 1_555
H7_2 C10 1_555 1_555
Zn3 O3 1_555 1_555
C6_2 C7_2 1_555 1_555
N2 C11 1_555 1_555
C11 H8 1_555 1_555
C12 C11 1_555 1_555
C13 C12 1_555 1_555
C14 C13 1_555 1_555
H10 C14 1_555 1_555
C15 N2 1_555 1_555
H11 C15 1_555 1_555
Zn3 N2 1_555 1_555
C14 C15 1_555 1_555
O3_2 C9_2 1_555 1_555
O4_2 C9_2 1_555 1_555
C9_2 C10_2 1_555 1_555
Zn3_2 O3_2 1_555 1_555
H6_4 C8_3 1_555 1_555
N2_2 C11_2 1_555 1_555
C11_2 H8_2 1_555 1_555
C12_2 C11_2 1_555 1_555
C13_2 C12_2 1_555 1_555
C14_2 C13_2 1_555 1_555
H10_2 C14_2 1_555 1_555
C15_2 N2_2 1_555 1_555
H11_2 C15_2 1_555 1_555
Zn3_2 N2_2 1_555 1_555
C14_2 C15_2 1_555 1_555
N2_3 C11_3 1_555 1_555
C11_3 H8_3 1_555 1_555
C12_3 C11_3 1_555 1_555
H9 C12_3 1_555 1_555
C13_3 C12_3 1_555 1_555
C14_3 C13_3 1_555 1_555
H10_3 C14_3 1_555 1_555
C15_3 N2_3 1_555 1_555
H11_3 C15_3 1_555 1_555
Zn2 N2_3 1_555 1_555
C13_3 C16 1_555 1_555
C14_3 C15_3 1_555 1_555
N2_4 C11_4 1_555 1_555
C11_4 H8_4 1_555 1_555
C12_4 C11_4 1_555 1_555
H9_2 C12_4 1_555 1_555
C13_4 C12_4 1_555 1_555
C14_4 C13_4 1_555 1_555
H10_4 C14_4 1_555 1_555
C15_4 N2_4 1_555 1_555
H11_4 C15_4 1_555 1_555
H12 C16_2 1_555 1_555
Zn2 N2_4 1_555 1_555
C13_4 C16_2 1_555 1_555
C14_4 C15_4 1_555 1_555
O3_3 C9_3 1_555 1_555
O4_3 C9_3 1_555 1_555
C9_3 C10_3 1_555 1_555
Zn2 O3_3 1_555 1_555
N1_2 Zn1_2 1_555 1_555
C3_3 N1_2 1_555 1_555
H2_3 C3_3 1_555 1_555
C4_3 C3_3 1_555 1_555
C5_3 C4_3 1_555 1_555
C6_3 C5_3 1_555 1_555
H4_3 C6_3 1_555 1_555
C7_3 N1_2 1_555 1_555
H5_3 C7_3 1_555 1_555
O5_2 Zn1_2 1_555 1_555
C6_3 C7_3 1_555 1_555
O5_2 C1_3 1_555 1_555
O2_3 C1_3 1_555 1_555
C1_3 C2_3 1_555 1_555
C2_3 H1_4 1_555 1_555
O3_4 C9_4 1_555 1_555
O4_4 C9_4 1_555 1_555
C9_4 C10_4 1_555 1_555
C10_4 C2_3 1_555 1_555
H7_3 C10_4 1_555 1_555
Zn2 O3_4 1_555 1_555
Zn1_3 O1_2 1_555 1_555
O1_2 C1_4 1_555 1_555
O2_4 C1_4 1_555 1_555
C1_4 C2_4 1_555 1_555
N3_2 Zn1_3 1_555 1_555
C3_4 N3_2 1_555 1_555
H2_4 C3_4 1_555 1_555
C4_4 C3_4 1_555 1_555
C5_4 C4_4 1_555 1_555
C6_4 C5_4 1_555 1_555
H4_4 C6_4 1_555 1_555
C7_4 N3_2 1_555 1_555
H5_4 C7_4 1_555 1_555
H12_4 C16_3 1_555 1_555
C6_4 C7_4 1_555 1_555

#END
