
###############################################################################
#
# This file contains modified crystal structure data generated from the
# MOF subset of the Cambridge Structural Database (CSD) v543 
# hosted by the Cambridge Crystallographic Data Centre (CCDC).
#
# This work is licensed under the Creative Commons
# Attribution-NonCommercial-ShareAlike 4.0 International License.
# To view a copy of this license, visit
# http://creativecommons.org/licenses/by-nc-sa/4.0/
# or send a letter to
# Creative Commons, PO Box 1866, Mountain View, CA 94042, USA.
#
# CIF created using the CSD Python API on 29 September 2022
# The structure has been converted into the P1 space group
# The structure has a 3D framework
# The original CSD entry EBOCOQ is in the orthorhombic crystal system
# The framework has been calculated to contain at least 10.0% void space
# The void calculation uses a probe of radius 1.32A, grid spacing 0.4
#
###############################################################################

data_EBOCOQ
_chemical_formula_moiety         '(C72 H56 N8 O16 Zn2)n'
_symmetry_cell_setting           triclinic
_symmetry_space_group_name_H-M   'P 1'
_symmetry_Int_Tables_number      1
_space_group_name_Hall           'P 1'
loop_
_symmetry_equiv_pos_site_id
_symmetry_equiv_pos_as_xyz
1 x,y,z
_cell_length_a                   12.471(3)
_cell_length_b                   13.306(3)
_cell_length_c                   15.711(3)
_cell_angle_alpha                90
_cell_angle_beta                 90
_cell_angle_gamma                90
_cell_volume                     2607.07
loop_
_atom_site_label
_atom_site_type_symbol
_atom_site_fract_x
_atom_site_fract_y
_atom_site_fract_z
C2 C 0.0107(9) 0.3821(8) 0.0582(6)
H1 H 0.0674 0.3554 0.0272
C10 C 0.0322(11) 0.6803(8) 0.8709(6)
C12 C 0.0240(9) 0.5282(7) 0.9647(5)
H9 H 0.0810 0.4997 0.9351
O3 O 0.1076(7) 0.6369(5) 0.8267(4)
O4 O 0.0081(7) 0.7676(4) 0.8595(4)
Zn3 Zn 0.14991(12) 0.7500 0.7500
C1 C 0.9678(11) 0.3197(8) 0.1291(6)
C3 C 0.9760(9) 0.4718(7) 0.0353(5)
H2 H 0.9190 0.5003 0.0649
C4 C 0.7260(9) 0.3134(6) 0.4072(5)
H3 H 0.7674 0.2654 0.4349
C5 C 0.6529(9) 0.3686(7) 0.4536(5)
H4 H 0.6445 0.3569 0.5116
C6 C 0.5926(8) 0.4411(6) 0.4138(6)
C7 C 0.6048(8) 0.4558(7) 0.3294(6)
H5 H 0.5645 0.5043 0.3012
C8 C 0.6756(9) 0.3997(7) 0.2872(6)
H6 H 0.6820 0.4112 0.2290
C9 C 0.5137(10) 0.5055(7) 0.4613(5)
H7 H 0.4822 0.5581 0.4314
N1 N 0.7391(6) 0.3273(5) 0.3214(4)
O1 O 0.8924(7) 0.3631(5) 0.1733(4)
O2 O 0.9919(7) 0.2324(4) 0.1405(4)
Zn1 Zn 0.85009(12) 0.2500 0.2500
C13 C 0.2740(9) 0.6866(6) 0.5928(5)
H10 H 0.2326 0.7346 0.5651
C14 C 0.3471(9) 0.6314(7) 0.5464(5)
H11 H 0.3555 0.6431 0.4884
C15 C 0.4074(8) 0.5589(6) 0.5862(6)
C16 C 0.3952(8) 0.5442(7) 0.6706(6)
H12 H 0.4355 0.4957 0.6988
C17 C 0.3244(9) 0.6003(7) 0.7128(6)
H13 H 0.3180 0.5888 0.7710
C18 C 0.4863(10) 0.4945(7) 0.5387(5)
H14 H 0.5178 0.4419 0.5686
N2 N 0.2609(6) 0.6727(5) 0.6786(4)
N3 N 0.7391(6) 0.1727(5) 0.1786(4)
O5 O 0.8924(7) 0.1369(5) 0.3267(4)
O6 O 0.9919(7) 0.2676(4) 0.3595(4)
C10_2 C 0.0322(11) 0.8197(8) 0.6291(6)
C12_2 C 0.0240(9) 0.9718(7) 0.5353(5)
O3_2 O 0.1076(7) 0.8631(5) 0.6733(4)
O4_2 O 0.0081(7) 0.7324(4) 0.6405(4)
C1_2 C 0.9678(11) 0.1803(8) 0.3709(6)
C3_2 C 0.9760(9) 0.0282(7) 0.4647(5)
C4_2 C 0.7260(9) 0.1866(6) 0.0928(5)
H3_2 H 0.7674 0.2346 0.0651
C5_2 C 0.6529(9) 0.1314(7) 0.0464(5)
C6_2 C 0.5926(8) 0.0589(6) 0.0862(6)
C7_2 C 0.6048(8) 0.0442(7) 0.1706(6)
C8_2 C 0.6756(9) 0.1003(7) 0.2128(6)
H6_2 H 0.6820 0.0888 0.2710
C13_2 C 0.2740(9) 0.8134(6) 0.9072(5)
H10_2 H 0.2326 0.7654 0.9349
C14_2 C 0.3471(9) 0.8686(7) 0.9536(5)
C15_2 C 0.4074(8) 0.9411(6) 0.9138(6)
C16_2 C 0.3952(8) 0.9558(7) 0.8294(6)
C17_2 C 0.3244(9) 0.8997(7) 0.7872(6)
H13_2 H 0.3180 0.9112 0.7290
N2_2 N 0.2609(6) 0.8273(5) 0.8214(4)
C11 C 0.9893(9) 0.6179(8) 0.9418(6)
H8 H 0.9326 0.6446 0.9728
H7_2 H 0.0178 0.4419 0.4314
C13_3 C 0.2260(9) 0.3134(6) 0.5928(5)
H10_3 H 0.2674 0.2654 0.5651
C14_3 C 0.1529(9) 0.3686(7) 0.5464(5)
H11_2 H 0.1445 0.3569 0.4884
C15_3 C 0.0926(8) 0.4411(6) 0.5862(6)
C16_3 C 0.1048(8) 0.4558(7) 0.6706(6)
H12_2 H 0.0645 0.5043 0.6988
C17_3 C 0.1756(9) 0.3997(7) 0.7128(6)
H13_3 H 0.1820 0.4112 0.7710
C18_2 C 0.0137(10) 0.5055(7) 0.5387(5)
N2_3 N 0.2391(6) 0.3273(5) 0.6786(4)
Zn2 Zn 0.35009(12) 0.2500 0.7500
C10_3 C 0.4678(11) 0.3197(8) 0.8709(6)
C11_2 C 0.5107(9) 0.3821(8) 0.9418(6)
H8_2 H 0.5674 0.3554 0.9728
C12_3 C 0.4760(9) 0.4718(7) 0.9647(5)
H9_2 H 0.4190 0.5003 0.9351
O3_3 O 0.3924(7) 0.3631(5) 0.8267(4)
O4_3 O 0.4919(7) 0.2324(4) 0.8595(4)
C13_4 C 0.2260(9) 0.1866(6) 0.9072(5)
H10_4 H 0.2674 0.2346 0.9349
C14_4 C 0.1529(9) 0.1314(7) 0.9536(5)
C15_4 C 0.0926(8) 0.0589(6) 0.9138(6)
C16_4 C 0.1048(8) 0.0442(7) 0.8294(6)
C17_4 C 0.1756(9) 0.1003(7) 0.7872(6)
H13_4 H 0.1820 0.0888 0.7290
N2_4 N 0.2391(6) 0.1727(5) 0.8214(4)
H2_2 H 0.5810 0.0003 0.4351
H5_2 H 0.9355 0.0043 0.1988
C9_2 C 0.9863(10) 0.0055(7) 0.0387(5)
C10_4 C 0.4678(11) 0.1803(8) 0.6291(6)
C11_3 C 0.5107(9) 0.1179(8) 0.5582(6)
H8_3 H 0.5674 0.1446 0.5272
C12_4 C 0.4760(9) 0.0282(7) 0.5353(5)
O3_4 O 0.3924(7) 0.1369(5) 0.6733(4)
O4_4 O 0.4919(7) 0.2676(4) 0.6405(4)
C1_3 C 0.5322(11) 0.6803(8) 0.1291(6)
C2_2 C 0.4893(9) 0.6179(8) 0.0582(6)
H1_2 H 0.4326 0.6446 0.0272
C3_3 C 0.5240(9) 0.5282(7) 0.0353(5)
H2_3 H 0.5810 0.4997 0.0649
C4_3 C 0.7740(9) 0.6866(6) 0.4072(5)
H3_3 H 0.7326 0.7346 0.4349
C5_3 C 0.8471(9) 0.6314(7) 0.4536(5)
H4_2 H 0.8555 0.6431 0.5116
C6_3 C 0.9074(8) 0.5589(6) 0.4138(6)
C7_3 C 0.8952(8) 0.5442(7) 0.3294(6)
H5_3 H 0.9355 0.4957 0.3012
C8_3 C 0.8244(9) 0.6003(7) 0.2872(6)
H6_3 H 0.8180 0.5888 0.2290
C9_3 C 0.9863(10) 0.4945(7) 0.4613(5)
N1_2 N 0.7609(6) 0.6727(5) 0.3214(4)
O1_2 O 0.6076(7) 0.6369(5) 0.1733(4)
O2_2 O 0.5081(7) 0.7676(4) 0.1405(4)
Zn1_2 Zn 0.64991(12) 0.7500 0.2500
H14_2 H 0.9822 0.5581 0.5686
N3_2 N 0.7609(6) 0.8273(5) 0.1786(4)
O5_2 O 0.6076(7) 0.8631(5) 0.3267(4)
O6_2 O 0.5081(7) 0.7324(4) 0.3595(4)
H12_3 H 0.0645 0.9957 0.8012
C18_3 C 0.0137(10) 0.9945(7) 0.9613(5)
C1_4 C 0.5322(11) 0.8197(8) 0.3709(6)
C2_3 C 0.4893(9) 0.8821(8) 0.4418(6)
H1_3 H 0.4326 0.8554 0.4728
C3_4 C 0.5240(9) 0.9718(7) 0.4647(5)
C4_4 C 0.7740(9) 0.8134(6) 0.0928(5)
H3_4 H 0.7326 0.7654 0.0651
C5_4 C 0.8471(9) 0.8686(7) 0.0464(5)
C6_4 C 0.9074(8) 0.9411(6) 0.0862(6)
C7_4 C 0.8952(8) 0.9558(7) 0.1706(6)
C8_4 C 0.8244(9) 0.8997(7) 0.2128(6)
H6_4 H 0.8180 0.9112 0.2710
H9_3 H 0.4190 0.9997 0.5649
H7_3 H 0.0178 0.0581 0.0686
H11_3 H 0.1445 0.1431 0.0116
H4_3 H 0.8555 0.8569 0.9884
H14_3 H 0.9822 0.9419 0.9314
C2_4 C 0.0107(9) 0.1179(8) 0.4418(6)
H1_4 H 0.0674 0.1446 0.4728
H9_4 H 0.0810 0.0003 0.5649
H4_4 H 0.6445 0.1431 0.9884
H12_4 H 0.4355 0.0043 0.8012
C18_4 C 0.4863(10) 0.0055(7) 0.9613(5)
H14_4 H 0.5178 0.0581 0.9314
H2_4 H 0.9190 0.9997 0.4351
H5_4 H 0.5645 0.9957 0.1988
C9_4 C 0.5137(10) 0.9945(7) 0.0387(5)
H7_4 H 0.4822 0.9419 0.0686
C11_4 C 0.9893(9) 0.8821(8) 0.5582(6)
H8_4 H 0.9326 0.8554 0.5272
H11_4 H 0.3555 0.8569 0.0116
loop_
_geom_bond_atom_site_label_1
_geom_bond_atom_site_label_2
_geom_bond_site_symmetry_1
_geom_bond_site_symmetry_2
C2 H1 1_555 1_555
H9 C12 1_555 1_555
O3 C10 1_555 1_555
O4 C10 1_555 1_555
Zn3 O3 1_555 1_555
O4 Zn3 1_555 1_555
H2 C3 1_555 1_555
C4 H3 1_555 1_555
C5 C4 1_555 1_555
H4 C5 1_555 1_555
C6 C5 1_555 1_555
C7 C6 1_555 1_555
H5 C7 1_555 1_555
C8 C7 1_555 1_555
H6 C8 1_555 1_555
C9 C6 1_555 1_555
H7 C9 1_555 1_555
N1 C4 1_555 1_555
O1 C1 1_555 1_555
O2 C1 1_555 1_555
Zn1 N1 1_555 1_555
C13 H10 1_555 1_555
C14 C13 1_555 1_555
H11 C14 1_555 1_555
C15 C14 1_555 1_555
C16 C15 1_555 1_555
H12 C16 1_555 1_555
C17 C16 1_555 1_555
H13 C17 1_555 1_555
C18 C9 1_555 1_555
H14 C18 1_555 1_555
N2 C13 1_555 1_555
N3 Zn1 1_555 1_555
O5 Zn1 1_555 1_555
O6 Zn1 1_555 1_555
Zn3 N2 1_555 1_555
C8 N1 1_555 1_555
O1 Zn1 1_555 1_555
O2 Zn1 1_555 1_555
C15 C18 1_555 1_555
C17 N2 1_555 1_555
O3_2 C10_2 1_555 1_555
O4_2 C10_2 1_555 1_555
Zn3 O3_2 1_555 1_555
O4_2 Zn3 1_555 1_555
C4_2 H3_2 1_555 1_555
C5_2 C4_2 1_555 1_555
C6_2 C5_2 1_555 1_555
C7_2 C6_2 1_555 1_555
C8_2 C7_2 1_555 1_555
H6_2 C8_2 1_555 1_555
N3 C4_2 1_555 1_555
O5 C1_2 1_555 1_555
O6 C1_2 1_555 1_555
C8_2 N3 1_555 1_555
C13_2 H10_2 1_555 1_555
C14_2 C13_2 1_555 1_555
C15_2 C14_2 1_555 1_555
C16_2 C15_2 1_555 1_555
C17_2 C16_2 1_555 1_555
H13_2 C17_2 1_555 1_555
N2_2 C13_2 1_555 1_555
Zn3 N2_2 1_555 1_555
C17_2 N2_2 1_555 1_555
C11 H8 1_555 1_555
C13_3 H10_3 1_555 1_555
C14_3 C13_3 1_555 1_555
H11_2 C14_3 1_555 1_555
C15_3 C14_3 1_555 1_555
C16_3 C15_3 1_555 1_555
H12_2 C16_3 1_555 1_555
C17_3 C16_3 1_555 1_555
H13_3 C17_3 1_555 1_555
N2_3 C13_3 1_555 1_555
Zn2 N2_3 1_555 1_555
C15_3 C18_2 1_555 1_555
C17_3 N2_3 1_555 1_555
C10_3 C11_2 1_555 1_555
C11_2 H8_2 1_555 1_555
H9_2 C12_3 1_555 1_555
O3_3 C10_3 1_555 1_555
O4_3 C10_3 1_555 1_555
Zn2 O3_3 1_555 1_555
C11_2 C12_3 1_555 1_555
O4_3 Zn2 1_555 1_555
C13_4 H10_4 1_555 1_555
C14_4 C13_4 1_555 1_555
C15_4 C14_4 1_555 1_555
C16_4 C15_4 1_555 1_555
C17_4 C16_4 1_555 1_555
H13_4 C17_4 1_555 1_555
N2_4 C13_4 1_555 1_555
Zn2 N2_4 1_555 1_555
C17_4 N2_4 1_555 1_555
C10_4 C11_3 1_555 1_555
C11_3 H8_3 1_555 1_555
O3_4 C10_4 1_555 1_555
O4_4 C10_4 1_555 1_555
Zn2 O3_4 1_555 1_555
C11_3 C12_4 1_555 1_555
O4_4 Zn2 1_555 1_555
C1_3 C2_2 1_555 1_555
C2_2 H1_2 1_555 1_555
C3_3 C2_2 1_555 1_555
H2_3 C3_3 1_555 1_555
C4_3 H3_3 1_555 1_555
C5_3 C4_3 1_555 1_555
H4_2 C5_3 1_555 1_555
C6_3 C5_3 1_555 1_555
C7_3 C6_3 1_555 1_555
H5_3 C7_3 1_555 1_555
C8_3 C7_3 1_555 1_555
H6_3 C8_3 1_555 1_555
C9_3 C6_3 1_555 1_555
N1_2 C4_3 1_555 1_555
O1_2 C1_3 1_555 1_555
O2_2 C1_3 1_555 1_555
Zn1_2 N1_2 1_555 1_555
N3_2 Zn1_2 1_555 1_555
O5_2 Zn1_2 1_555 1_555
O6_2 Zn1_2 1_555 1_555
C8_3 N1_2 1_555 1_555
O1_2 Zn1_2 1_555 1_555
O2_2 Zn1_2 1_555 1_555
C1_4 C2_3 1_555 1_555
C2_3 H1_3 1_555 1_555
C3_4 C2_3 1_555 1_555
C4_4 H3_4 1_555 1_555
C5_4 C4_4 1_555 1_555
C6_4 C5_4 1_555 1_555
C7_4 C6_4 1_555 1_555
C8_4 C7_4 1_555 1_555
H6_4 C8_4 1_555 1_555
N3_2 C4_4 1_555 1_555
O5_2 C1_4 1_555 1_555
O6_2 C1_4 1_555 1_555
C8_4 N3_2 1_555 1_555
C2_4 H1_4 1_555 1_555
H14_4 C18_4 1_555 1_555
H7_4 C9_4 1_555 1_555
C11_4 H8_4 1_555 1_555

#END
