
###############################################################################
#
# This file contains modified crystal structure data generated from the
# MOF subset of the Cambridge Structural Database (CSD) v543 
# hosted by the Cambridge Crystallographic Data Centre (CCDC).
#
# This work is licensed under the Creative Commons
# Attribution-NonCommercial-ShareAlike 4.0 International License.
# To view a copy of this license, visit
# http://creativecommons.org/licenses/by-nc-sa/4.0/
# or send a letter to
# Creative Commons, PO Box 1866, Mountain View, CA 94042, USA.
#
# CIF created using the CSD Python API on 29 September 2022
# The structure has been converted into the P1 space group
# The structure has a 3D framework
# The original CSD entry EBOCIK is in the monoclinic crystal system
# The framework has been calculated to contain at least 10.0% void space
# The void calculation uses a probe of radius 1.32A, grid spacing 0.4
#
###############################################################################

data_EBOCIK
_chemical_formula_moiety         '(C64 H48 N8 O16 Zn3)n'
_symmetry_cell_setting           triclinic
_symmetry_space_group_name_H-M   'P 1'
_symmetry_Int_Tables_number      1
_space_group_name_Hall           'P 1'
loop_
_symmetry_equiv_pos_site_id
_symmetry_equiv_pos_as_xyz
1 x,y,z
_cell_length_a                   8.8583(2)
_cell_length_b                   21.4370(5)
_cell_length_c                   13.5925(3)
_cell_angle_alpha                90
_cell_angle_beta                 95.7932(12)
_cell_angle_gamma                90
_cell_volume                     2567.97
loop_
_atom_site_label
_atom_site_type_symbol
_atom_site_fract_x
_atom_site_fract_y
_atom_site_fract_z
Zn3 Zn 0.0000 0.84859(2) 0.2500
C1 C 0.6907(2) 0.67976(10) 0.91481(15)
C2 C 0.7610(2) 0.72004(10) 0.99578(15)
C3 C 0.4007(3) 0.54496(11) 0.86730(17)
H2 H 0.4998 0.5314 0.8637
C4 C 0.3085(3) 0.51002(12) 0.9204(2)
H3 H 0.3448 0.4735 0.9512
C5 C 0.1625(3) 0.52892(12) 0.92794(19)
C6 C 0.1145(3) 0.58294(14) 0.8783(2)
H4 H 0.0160 0.5973 0.8810
C7 C 0.2128(3) 0.61511(13) 0.8251(2)
H5 H 0.1778 0.6507 0.7909
C8 C 0.0672(3) 0.49182(14) 0.9898(2)
N1 N 0.35581(18) 0.59758(8) 0.82035(12)
O1 O 0.7128(2) 0.62343(8) 0.91808(13)
O2 O 0.60820(17) 0.70693(6) 0.84530(10)
Zn1 Zn 0.5000 0.65141(2) 0.7500
H7 H 0.6739 0.7990 0.9553
N3 N 0.64419(18) 0.59758(8) 0.67965(12)
O5 O 0.39180(17) 0.70693(6) 0.65470(10)
C1_2 C 0.3093(2) 0.67976(10) 0.58519(15)
C2_2 C 0.2390(2) 0.72004(10) 0.50422(15)
H1 H 0.1739 0.7010 0.4553
C3_2 C 0.5993(3) 0.54496(11) 0.63270(17)
H2_2 H 0.5002 0.5314 0.6363
C4_2 C 0.6915(3) 0.51002(12) 0.5796(2)
H3_2 H 0.6552 0.4735 0.5488
C5_2 C 0.8375(3) 0.52892(12) 0.57206(19)
C6_2 C 0.8855(3) 0.58294(14) 0.6217(2)
H4_2 H 0.9840 0.5973 0.6190
C7_2 C 0.7872(3) 0.61511(13) 0.6749(2)
H5_2 H 0.8222 0.6507 0.7091
C8_2 C 0.9328(3) 0.49182(14) 0.5102(2)
H6 H 0.8937 0.4543 0.4843
O1_2 O 0.2872(2) 0.62343(8) 0.58192(13)
C9 C 0.1907(2) 0.82024(10) 0.41481(15)
C10 C 0.2610(2) 0.77996(10) 0.49578(15)
H7_2 H 0.3261 0.7990 0.5447
O3 O 0.2128(2) 0.87657(8) 0.41808(13)
O4 O 0.10820(17) 0.79307(6) 0.34530(10)
H6_2 H 0.6063 0.9543 0.0157
C11 C 0.0993(3) 0.95504(11) 0.13270(17)
H8 H 0.0002 0.9686 0.1363
C12 C 0.1915(3) 0.98998(12) 0.0796(2)
C13 C 0.3375(3) 0.97108(12) 0.07206(19)
C14 C 0.3855(3) 0.91706(14) 0.1217(2)
H10 H 0.4840 0.9027 0.1190
C15 C 0.2872(3) 0.88489(13) 0.1749(2)
H11 H 0.3222 0.8493 0.2091
N2 N 0.14419(18) 0.90242(8) 0.17965(12)
H1_2 H 0.8261 0.7010 0.0447
H6_3 H 0.1063 0.4543 0.0157
C9_2 C 0.8093(2) 0.82024(10) 0.08519(15)
C10_2 C 0.7390(2) 0.77996(10) 0.00422(15)
O3_2 O 0.7872(2) 0.87657(8) 0.08192(13)
O4_2 O 0.89180(17) 0.79307(6) 0.15470(10)
Zn3_2 Zn 1.0000 0.84859(2) 0.2500
H3_3 H 0.1552 0.9735 0.5488
C8_3 C 0.4328(3) 0.99182(14) 0.5102(2)
H6_4 H 0.3937 0.9543 0.4843
C11_2 C 0.9007(3) 0.95504(11) 0.36730(17)
H8_2 H 0.9998 0.9686 0.3637
C12_2 C 0.8085(3) 0.98998(12) 0.4204(2)
C13_2 C 0.6625(3) 0.97108(12) 0.42794(19)
C14_2 C 0.6145(3) 0.91706(14) 0.3783(2)
H10_2 H 0.5160 0.9027 0.3810
C15_2 C 0.7128(3) 0.88489(13) 0.3251(2)
H11_2 H 0.6778 0.8493 0.2909
N2_2 N 0.85581(18) 0.90242(8) 0.32035(12)
C11_3 C 0.5993(3) 0.45504(11) 0.13270(17)
H8_3 H 0.5002 0.4686 0.1363
C12_3 C 0.6915(3) 0.48998(12) 0.0796(2)
H9 H 0.6552 0.5265 0.0488
C13_3 C 0.8375(3) 0.47108(12) 0.07206(19)
C14_3 C 0.8855(3) 0.41706(14) 0.1217(2)
H10_3 H 0.9840 0.4027 0.1190
C15_3 C 0.7872(3) 0.38489(13) 0.1749(2)
H11_3 H 0.8222 0.3493 0.2091
C16 C 0.9328(3) 0.50818(14) 0.0102(2)
N2_3 N 0.64419(18) 0.40242(8) 0.17965(12)
Zn2 Zn 0.5000 0.34859(2) 0.2500
C11_4 C 0.4007(3) 0.45504(11) 0.36730(17)
H8_4 H 0.4998 0.4686 0.3637
C12_4 C 0.3085(3) 0.48998(12) 0.4204(2)
H9_2 H 0.3448 0.5265 0.4512
C13_4 C 0.1625(3) 0.47108(12) 0.42794(19)
C14_4 C 0.1145(3) 0.41706(14) 0.3783(2)
H10_4 H 0.0160 0.4027 0.3810
C15_4 C 0.2128(3) 0.38489(13) 0.3251(2)
H11_4 H 0.1778 0.3493 0.2909
C16_2 C 0.0672(3) 0.50818(14) 0.4898(2)
H12 H 0.1063 0.5457 0.5157
N2_4 N 0.35581(18) 0.40242(8) 0.32035(12)
H1_3 H 0.3261 0.2010 0.0447
C9_3 C 0.3093(2) 0.32024(10) 0.08519(15)
C10_3 C 0.2390(2) 0.27996(10) 0.00422(15)
O3_3 O 0.2872(2) 0.37657(8) 0.08192(13)
O4_3 O 0.39180(17) 0.29307(6) 0.15470(10)
C3_3 C 0.9007(3) 0.04496(11) 0.86730(17)
H2_3 H 0.9998 0.0314 0.8637
C4_3 C 0.8085(3) 0.01002(12) 0.9204(2)
C5_3 C 0.6625(3) 0.02892(12) 0.92794(19)
C6_3 C 0.6145(3) 0.08294(14) 0.8783(2)
H4_3 H 0.5160 0.0973 0.8810
C7_3 C 0.7128(3) 0.11511(13) 0.8251(2)
H5_3 H 0.6778 0.1507 0.7909
N1_2 N 0.85581(18) 0.09758(8) 0.82035(12)
Zn1_2 Zn 1.0000 0.15141(2) 0.7500
H12_2 H 0.3937 0.0457 0.9843
O5_2 O 0.89180(17) 0.20693(6) 0.65470(10)
C1_3 C 0.8093(2) 0.17976(10) 0.58519(15)
C2_3 C 0.7390(2) 0.22004(10) 0.50422(15)
H1_4 H 0.6739 0.2010 0.4553
O1_3 O 0.7872(2) 0.12343(8) 0.58192(13)
C9_4 C 0.6907(2) 0.32024(10) 0.41481(15)
C10_4 C 0.7610(2) 0.27996(10) 0.49578(15)
H7_3 H 0.8261 0.2990 0.5447
O3_4 O 0.7128(2) 0.37657(8) 0.41808(13)
O4_4 O 0.60820(17) 0.29307(6) 0.34530(10)
H12_3 H 0.8937 0.5457 0.9843
C1_4 C 0.1907(2) 0.17976(10) 0.91481(15)
C2_4 C 0.2610(2) 0.22004(10) 0.99578(15)
O1_4 O 0.2128(2) 0.12343(8) 0.91808(13)
O2_2 O 0.10820(17) 0.20693(6) 0.84530(10)
Zn1_3 Zn -0.0000 0.15141(2) 0.7500
H7_4 H 0.1739 0.2990 0.9553
N3_2 N 0.14419(18) 0.09758(8) 0.67965(12)
C3_4 C 0.0993(3) 0.04496(11) 0.63270(17)
H2_4 H 0.0002 0.0314 0.6363
C4_4 C 0.1915(3) 0.01002(12) 0.5796(2)
C5_4 C 0.3375(3) 0.02892(12) 0.57206(19)
C6_4 C 0.3855(3) 0.08294(14) 0.6217(2)
H4_4 H 0.4840 0.0973 0.6190
C7_4 C 0.2872(3) 0.11511(13) 0.6749(2)
H5_4 H 0.3222 0.1507 0.7091
H9_3 H 0.8448 0.0265 0.4512
C16_3 C 0.5672(3) 0.00818(14) 0.4898(2)
H12_4 H 0.6063 0.0457 0.5157
H9_4 H 0.1552 0.0265 0.0488
C16_4 C 0.4328(3) 0.00818(14) 0.0102(2)
H3_4 H 0.8448 0.9735 0.9512
C8_4 C 0.5672(3) 0.99182(14) 0.9898(2)
loop_
_geom_bond_atom_site_label_1
_geom_bond_atom_site_label_2
_geom_bond_site_symmetry_1
_geom_bond_site_symmetry_2
C1 C2 1_555 1_555
C3 H2 1_555 1_555
C4 C3 1_555 1_555
H3 C4 1_555 1_555
C5 C4 1_555 1_555
C6 C5 1_555 1_555
H4 C6 1_555 1_555
C7 C6 1_555 1_555
H5 C7 1_555 1_555
C8 C5 1_555 1_555
N1 C3 1_555 1_555
O1 C1 1_555 1_555
O2 C1 1_555 1_555
Zn1 N1 1_555 1_555
N3 Zn1 1_555 1_555
O5 Zn1 1_555 1_555
C7 N1 1_555 1_555
O2 Zn1 1_555 1_555
C1_2 C2_2 1_555 1_555
C2_2 H1 1_555 1_555
C3_2 H2_2 1_555 1_555
C4_2 C3_2 1_555 1_555
H3_2 C4_2 1_555 1_555
C5_2 C4_2 1_555 1_555
C6_2 C5_2 1_555 1_555
H4_2 C6_2 1_555 1_555
C7_2 C6_2 1_555 1_555
H5_2 C7_2 1_555 1_555
C8_2 C5_2 1_555 1_555
H6 C8_2 1_555 1_555
N3 C3_2 1_555 1_555
O1_2 C1_2 1_555 1_555
O5 C1_2 1_555 1_555
C9 C10 1_555 1_555
C10 C2_2 1_555 1_555
H7_2 C10 1_555 1_555
O3 C9 1_555 1_555
O4 C9 1_555 1_555
Zn3 O4 1_555 1_555
C7_2 N3 1_555 1_555
C11 H8 1_555 1_555
C12 C11 1_555 1_555
C13 C12 1_555 1_555
C14 C13 1_555 1_555
H10 C14 1_555 1_555
C15 C14 1_555 1_555
H11 C15 1_555 1_555
N2 C11 1_555 1_555
Zn3 N2 1_555 1_555
C15 N2 1_555 1_555
C9_2 C10_2 1_555 1_555
O3_2 C9_2 1_555 1_555
O4_2 C9_2 1_555 1_555
Zn3_2 O4_2 1_555 1_555
H6_4 C8_3 1_555 1_555
C11_2 H8_2 1_555 1_555
C12_2 C11_2 1_555 1_555
C13_2 C12_2 1_555 1_555
C14_2 C13_2 1_555 1_555
H10_2 C14_2 1_555 1_555
C15_2 C14_2 1_555 1_555
H11_2 C15_2 1_555 1_555
N2_2 C11_2 1_555 1_555
Zn3_2 N2_2 1_555 1_555
C15_2 N2_2 1_555 1_555
C11_3 H8_3 1_555 1_555
C12_3 C11_3 1_555 1_555
H9 C12_3 1_555 1_555
C13_3 C12_3 1_555 1_555
C14_3 C13_3 1_555 1_555
H10_3 C14_3 1_555 1_555
C15_3 C14_3 1_555 1_555
H11_3 C15_3 1_555 1_555
N2_3 C11_3 1_555 1_555
Zn2 N2_3 1_555 1_555
C13_3 C16 1_555 1_555
C15_3 N2_3 1_555 1_555
C11_4 H8_4 1_555 1_555
C12_4 C11_4 1_555 1_555
H9_2 C12_4 1_555 1_555
C13_4 C12_4 1_555 1_555
C14_4 C13_4 1_555 1_555
H10_4 C14_4 1_555 1_555
C15_4 C14_4 1_555 1_555
H11_4 C15_4 1_555 1_555
H12 C16_2 1_555 1_555
N2_4 C11_4 1_555 1_555
Zn2 N2_4 1_555 1_555
C13_4 C16_2 1_555 1_555
C15_4 N2_4 1_555 1_555
C9_3 C10_3 1_555 1_555
O3_3 C9_3 1_555 1_555
O4_3 C9_3 1_555 1_555
Zn2 O4_3 1_555 1_555
C3_3 H2_3 1_555 1_555
C4_3 C3_3 1_555 1_555
C5_3 C4_3 1_555 1_555
C6_3 C5_3 1_555 1_555
H4_3 C6_3 1_555 1_555
C7_3 C6_3 1_555 1_555
H5_3 C7_3 1_555 1_555
N1_2 C3_3 1_555 1_555
Zn1_2 N1_2 1_555 1_555
O5_2 Zn1_2 1_555 1_555
C7_3 N1_2 1_555 1_555
C1_3 C2_3 1_555 1_555
C2_3 H1_4 1_555 1_555
O1_3 C1_3 1_555 1_555
O5_2 C1_3 1_555 1_555
C9_4 C10_4 1_555 1_555
C10_4 C2_3 1_555 1_555
H7_3 C10_4 1_555 1_555
O3_4 C9_4 1_555 1_555
O4_4 C9_4 1_555 1_555
Zn2 O4_4 1_555 1_555
C1_4 C2_4 1_555 1_555
O1_4 C1_4 1_555 1_555
O2_2 C1_4 1_555 1_555
N3_2 Zn1_3 1_555 1_555
O2_2 Zn1_3 1_555 1_555
C3_4 H2_4 1_555 1_555
C4_4 C3_4 1_555 1_555
C5_4 C4_4 1_555 1_555
C6_4 C5_4 1_555 1_555
H4_4 C6_4 1_555 1_555
C7_4 C6_4 1_555 1_555
H5_4 C7_4 1_555 1_555
N3_2 C3_4 1_555 1_555
H12_4 C16_3 1_555 1_555
C7_4 N3_2 1_555 1_555

#END
