
###############################################################################
#
# This file contains modified crystal structure data generated from the
# MOF subset of the Cambridge Structural Database (CSD) v543 
# hosted by the Cambridge Crystallographic Data Centre (CCDC).
#
# This work is licensed under the Creative Commons
# Attribution-NonCommercial-ShareAlike 4.0 International License.
# To view a copy of this license, visit
# http://creativecommons.org/licenses/by-nc-sa/4.0/
# or send a letter to
# Creative Commons, PO Box 1866, Mountain View, CA 94042, USA.
#
# CIF created using the CSD Python API on 29 September 2022
# The structure has been converted into the P1 space group
# The structure has a 3D framework
# The original CSD entry EBOMOZ is in the cubic crystal system
# The original CSD entry EBOMOZ is in a Sohncke space group
# The framework has been calculated to contain at least 10.0% void space
# The void calculation uses a probe of radius 1.32A, grid spacing 0.4
#
###############################################################################

data_EBOMOZ
_chemical_formula_moiety         '(C132 H132 Cd12 Cl4 N12 Na1 O63)n'
_symmetry_cell_setting           triclinic
_symmetry_space_group_name_H-M   'P 1'
_symmetry_Int_Tables_number      1
_space_group_name_Hall           'P 1'
loop_
_symmetry_equiv_pos_site_id
_symmetry_equiv_pos_as_xyz
1 x,y,z
_cell_length_a                   17.01460(10)
_cell_length_b                   17.01460(10)
_cell_length_c                   17.01460(10)
_cell_angle_alpha                90
_cell_angle_beta                 90
_cell_angle_gamma                90
_cell_volume                     4925.67
loop_
_atom_site_label
_atom_site_type_symbol
_atom_site_fract_x
_atom_site_fract_y
_atom_site_fract_z
O2 O 0.1647(4) 0.1719(4) 0.4698(3)
O3 O 0.1205(3) 0.0580(3) 0.5033(3)
O5 O 0.5281(3) 0.0071(3) 0.2479(3)
C4 C 0.1590(4) 0.0991(5) 0.4596(4)
C8 C 0.2806(4) 0.0777(5) 0.2735(4)
H9 H 0.3116 0.1079 0.2401
C10 C 0.2438(5) 0.1126(4) 0.3364(5)
H11 H 0.2485 0.1666 0.3440
C11 C 0.2000(4) 0.0680(4) 0.3883(4)
Cd3 Cd 0.08533(3) 0.16172(3) 0.59052(3)
Cd4 Cd 0.59052(3) 0.08533(3) 0.16172(3)
O9 O 0.0048(4) 0.2035(3) 0.7097(4)
O21 O 0.1644(2) 0.2697(3) 0.6152(3)
O26 O 0.0071(3) 0.2479(3) 0.5281(3)
O28 O 0.0102(3) 0.0439(3) 0.6369(3)
N3 N 0.1392(3) 0.1084(3) 0.7040(3)
H15 H 0.1705 0.1430 0.7340
C13 C 0.1906(5) 0.0422(5) 0.6868(5)
H17 H 0.2318 0.0598 0.6515
H19 H 0.1604 0.0023 0.6596
C15 C 0.0324(5) 0.1632(5) 0.7815(5)
H23 H 0.0686 0.1964 0.8104
C17 C 0.0730(3) 0.0894(4) 0.7540(3)
H25 H 0.0922 0.0605 0.8000
C21 C 0.0156(4) 0.0374(4) 0.7094(4)
C23 C 0.2286(4) 0.0052(4) 0.7587(4)
C25 C 0.2707(5) 0.0505(5) 0.8120(5)
H27 H 0.2736 0.1047 0.8056
C29 C 0.3083(5) 0.0146(5) 0.8748(5)
H31 H 0.3393 0.0445 0.9084
Cd8 Cd 0.41467(3) 0.83828(3) 0.09052(3)
Na4 Na 0.50496(13) 0.99504(13) 0.00496(13)
O15 O 0.3795(3) 0.9420(3) 0.0033(3)
Cl1 Cl 0.31213(9) 0.68787(9) 0.18787(9)
O1 O 0.4952(4) 0.7965(3) 0.2097(4)
H1 H 0.5364 0.7607 0.2082
O4 O 0.3356(2) 0.7303(3) 0.1152(3)
O6 O 0.4898(3) 0.9561(3) 0.1369(3)
O7 O 0.2619(3) 0.7381(3) 0.2381(3)
N1 N 0.3608(3) 0.8916(3) 0.2040(3)
H2 H 0.3295 0.8570 0.2340
C1 C 0.3094(5) 0.9578(5) 0.1868(5)
H3 H 0.2682 0.9402 0.1515
H4 H 0.3396 0.9977 0.1596
C2 C 0.4676(5) 0.8368(5) 0.2815(5)
H5 H 0.5117 0.8496 0.3154
H6 H 0.4314 0.8036 0.3104
C3 C 0.4270(3) 0.9106(4) 0.2540(3)
H7 H 0.4078 0.9395 0.3000
C5 C 0.4844(4) 0.9626(4) 0.2094(4)
C6 C 0.2714(4) 0.9948(4) 0.2587(4)
C7 C 0.2293(5) 0.9495(5) 0.3120(5)
H8 H 0.2264 0.8953 0.3056
C9 C 0.1917(5) 0.9854(5) 0.3748(5)
H10 H 0.1607 0.9555 0.4084
Cd2 Cd 0.16172(3) 0.59052(3) 0.08533(3)
Cd5 Cd 0.40948(3) 0.58533(3) 0.33828(3)
O8 O 0.2035(3) 0.7097(4) 0.0048(4)
O11 O 0.3353(4) 0.8281(4) 0.9698(3)
O13 O 0.1719(4) 0.4698(3) 0.1647(4)
O18 O 0.0580(3) 0.5033(3) 0.1205(3)
O19 O 0.3848(3) 0.6644(2) 0.2303(3)
O20 O 0.2697(3) 0.6152(3) 0.1644(2)
O24 O 0.4929(3) 0.7521(3) 0.0281(3)
O25 O 0.2479(3) 0.5281(3) 0.0071(3)
O27 O 0.0439(3) 0.6369(3) 0.0102(3)
N2 N 0.1084(3) 0.7040(3) 0.1392(3)
H14 H 0.1430 0.7340 0.1705
C12 C 0.0422(5) 0.6868(5) 0.1906(5)
H16 H 0.0598 0.6515 0.2318
H18 H 0.0023 0.6596 0.1604
C14 C 0.1632(5) 0.7815(5) 0.0324(5)
H22 H 0.1964 0.8104 0.0686
C16 C 0.0894(4) 0.7540(3) 0.0730(3)
H24 H 0.0605 0.8000 0.0922
C19 C 0.3410(4) 0.9009(5) 0.9596(4)
C20 C 0.0374(4) 0.7094(4) 0.0156(4)
C22 C 0.0052(4) 0.7587(4) 0.2286(4)
C24 C 0.0505(5) 0.8120(5) 0.2707(5)
H26 H 0.1047 0.8056 0.2736
C27 C 0.2194(4) 0.9223(5) 0.7735(4)
H29 H 0.1884 0.8921 0.7401
C28 C 0.0146(5) 0.8748(5) 0.3083(5)
H30 H 0.0445 0.9084 0.3393
C31 C 0.2562(5) 0.8874(4) 0.8364(5)
H33 H 0.2515 0.8334 0.8440
C33 C 0.3000(4) 0.9320(4) 0.8883(4)
Na3 Na 0.00496(13) 0.50496(13) 0.99504(13)
H12 H 0.2393 0.7082 0.9636
H20 H 0.1504 0.8154 0.9883
Na1 Na 0.99504(13) 0.00496(13) 0.50496(13)
Cd6 Cd 0.83828(3) 0.09052(3) 0.41467(3)
H13 H 0.9636 0.2393 0.7082
O14 O 0.9420(3) 0.0033(3) 0.3795(3)
O29 O 0.9561(3) 0.1369(3) 0.4898(3)
H21 H 0.9883 0.1504 0.8154
Cd9 Cd 0.90948(3) 0.91467(3) 0.66172(3)
O10 O 0.8281(4) 0.9698(3) 0.3353(4)
O17 O 0.9967(3) 0.8795(3) 0.5580(3)
O23 O 0.9719(3) 0.9929(3) 0.7479(3)
O30 O 0.8631(3) 0.9898(3) 0.5439(3)
C18 C 0.9009(5) 0.9596(4) 0.3410(4)
C26 C 0.9223(5) 0.7735(4) 0.2194(4)
H28 H 0.8921 0.7401 0.1884
C30 C 0.8874(4) 0.8364(5) 0.2562(5)
H32 H 0.8334 0.8440 0.2515
C32 C 0.9320(4) 0.8883(4) 0.3000(4)
Cd7 Cd 0.91467(3) 0.66172(3) 0.90948(3)
O22 O 0.9929(3) 0.7479(3) 0.9719(3)
O17_2 O 0.5033(3) 0.1205(3) 0.0580(3)
O30_2 O 0.6369(3) 0.0102(3) 0.0439(3)
Cl1_2 Cl 0.18787(9) 0.31213(9) 0.68787(9)
O7_2 O 0.2381(3) 0.2619(3) 0.7381(3)
Cd2_2 Cd 0.33828(3) 0.40948(3) 0.58533(3)
Cd5_2 Cd 0.09052(3) 0.41467(3) 0.83828(3)
Cd7_2 Cd 0.58533(3) 0.33828(3) 0.40948(3)
Na3_2 Na 0.49504(13) 0.49504(13) 0.49504(13)
O8_2 O 0.2965(3) 0.2903(4) 0.5048(4)
H12_2 H 0.2607 0.2918 0.4636
O10_2 O 0.6719(4) 0.0302(3) 0.8353(4)
O13_2 O 0.3281(4) 0.5302(3) 0.6647(4)
O18_2 O 0.4420(3) 0.4967(3) 0.6205(3)
O19_2 O 0.1152(3) 0.3356(2) 0.7303(3)
O20_2 O 0.2303(3) 0.3848(3) 0.6644(2)
O22_2 O 0.5071(3) 0.2521(3) 0.4719(3)
O25_2 O 0.2521(3) 0.4719(3) 0.5071(3)
O27_2 O 0.4561(3) 0.3631(3) 0.5102(3)
N2_2 N 0.3916(3) 0.2960(3) 0.6392(3)
H14_2 H 0.3570 0.2660 0.6705
C12_2 C 0.4578(5) 0.3132(5) 0.6906(5)
H16_2 H 0.4402 0.3485 0.7318
H18_2 H 0.4977 0.3404 0.6604
C14_2 C 0.3368(5) 0.2185(5) 0.5324(5)
H20_2 H 0.3496 0.1846 0.4883
H22_2 H 0.3036 0.1896 0.5686
C16_2 C 0.4106(4) 0.2460(3) 0.5730(3)
H24_2 H 0.4395 0.2000 0.5922
C18_2 C 0.5991(5) 0.0404(4) 0.8410(4)
C20_2 C 0.4626(4) 0.2906(4) 0.5156(4)
C22_2 C 0.4948(4) 0.2413(4) 0.7286(4)
C24_2 C 0.4495(5) 0.1880(5) 0.7707(5)
H26_2 H 0.3953 0.1944 0.7736
C26_2 C 0.5777(5) 0.2265(4) 0.7194(4)
H28_2 H 0.6079 0.2599 0.6884
C28_2 C 0.4854(5) 0.1252(5) 0.8083(5)
H30_2 H 0.4555 0.0916 0.8393
C30_2 C 0.6126(4) 0.1636(5) 0.7562(5)
H32_2 H 0.6666 0.1560 0.7515
C32_2 C 0.5680(4) 0.1117(4) 0.8000(4)
Cd6_2 Cd 0.66172(3) 0.90948(3) 0.91467(3)
O14_2 O 0.5580(3) 0.9967(3) 0.8795(3)
O29_2 O 0.5439(3) 0.8631(3) 0.9898(3)
C18_3 C 0.0991(5) 0.4596(4) 0.1590(4)
C26_3 C 0.0777(5) 0.2735(4) 0.2806(4)
H28_3 H 0.1079 0.2401 0.3116
C30_3 C 0.1126(4) 0.3364(5) 0.2438(5)
H32_3 H 0.1666 0.3440 0.2485
C32_3 C 0.0680(4) 0.3883(4) 0.2000(4)
H13_2 H 0.0364 0.7393 0.7918
O17_3 O 0.0033(3) 0.3795(3) 0.9420(3)
O23_2 O 0.0281(3) 0.4929(3) 0.7521(3)
O30_3 O 0.1369(3) 0.4898(3) 0.9561(3)
H21_2 H 0.0117 0.6504 0.6846
Cl1_3 Cl 0.68787(9) 0.18787(9) 0.31213(9)
O1_2 O 0.5048(4) 0.2965(3) 0.2903(4)
H1_2 H 0.4636 0.2607 0.2918
O2_2 O 0.8353(4) 0.6719(4) 0.0302(3)
O4_2 O 0.6644(2) 0.2303(3) 0.3848(3)
O5_2 O 0.4719(3) 0.5071(3) 0.2521(3)
O6_2 O 0.5102(3) 0.4561(3) 0.3631(3)
O7_3 O 0.7381(3) 0.2381(3) 0.2619(3)
N1_2 N 0.6392(3) 0.3916(3) 0.2960(3)
H2_2 H 0.6705 0.3570 0.2660
C1_2 C 0.6906(5) 0.4578(5) 0.3132(5)
H3_2 H 0.7318 0.4402 0.3485
H4_2 H 0.6604 0.4977 0.3404
C2_2 C 0.5324(5) 0.3368(5) 0.2185(5)
H5_2 H 0.4883 0.3496 0.1846
H6_2 H 0.5686 0.3036 0.1896
C3_2 C 0.5730(3) 0.4106(4) 0.2460(3)
H7_2 H 0.5922 0.4395 0.2000
C4_2 C 0.8410(4) 0.5991(5) 0.0404(4)
C5_2 C 0.5156(4) 0.4626(4) 0.2906(4)
C6_2 C 0.7286(4) 0.4948(4) 0.2413(4)
C7_2 C 0.7707(5) 0.4495(5) 0.1880(5)
H8_2 H 0.7736 0.3953 0.1944
C8_2 C 0.7194(4) 0.5777(5) 0.2265(4)
H9_2 H 0.6884 0.6079 0.2599
C9_2 C 0.8083(5) 0.4854(5) 0.1252(5)
H10_2 H 0.8393 0.4555 0.0916
C10_2 C 0.7562(5) 0.6126(4) 0.1636(5)
H11_2 H 0.7515 0.6666 0.1560
C11_2 C 0.8000(4) 0.5680(4) 0.1117(4)
O8_3 O 0.7965(3) 0.2097(4) 0.4952(4)
H12_3 H 0.7607 0.2082 0.5364
O12 O 0.6647(4) 0.3281(4) 0.5302(3)
O16 O 0.6205(3) 0.4420(3) 0.4967(3)
O19_3 O 0.6152(3) 0.1644(2) 0.2697(3)
O20_3 O 0.7303(3) 0.1152(3) 0.3356(2)
O25_3 O 0.7521(3) 0.0281(3) 0.4929(3)
N2_3 N 0.8916(3) 0.2040(3) 0.3608(3)
H14_3 H 0.8570 0.2340 0.3295
C12_3 C 0.9578(5) 0.1868(5) 0.3094(5)
H16_3 H 0.9402 0.1515 0.2682
H18_3 H 0.9977 0.1596 0.3396
C14_3 C 0.8368(5) 0.2815(5) 0.4676(5)
H20_3 H 0.8496 0.3154 0.5117
H22_3 H 0.8036 0.3104 0.4314
C16_3 C 0.9106(4) 0.2540(3) 0.4270(3)
H24_3 H 0.9395 0.3000 0.4078
C20_3 C 0.9626(4) 0.2094(4) 0.4844(4)
C22_3 C 0.9948(4) 0.2587(4) 0.2714(4)
C24_3 C 0.9495(5) 0.3120(5) 0.2293(5)
H26_3 H 0.8953 0.3056 0.2264
C28_3 C 0.9854(5) 0.3748(5) 0.1917(5)
H30_3 H 0.9555 0.4084 0.1607
O3_2 O 0.8795(3) 0.5580(3) 0.9967(3)
O9_2 O 0.9952(4) 0.7035(3) 0.7903(4)
O21_2 O 0.8356(2) 0.7697(3) 0.8848(3)
O28_2 O 0.9898(3) 0.5439(3) 0.8631(3)
N3_2 N 0.8608(3) 0.6084(3) 0.7960(3)
H15_2 H 0.8295 0.6430 0.7660
C13_2 C 0.8094(5) 0.5422(5) 0.8132(5)
H17_2 H 0.7682 0.5598 0.8485
H19_2 H 0.8396 0.5023 0.8404
C15_2 C 0.9676(5) 0.6632(5) 0.7185(5)
H23_2 H 0.9314 0.6964 0.6896
C17_2 C 0.9270(3) 0.5894(4) 0.7460(3)
H25_2 H 0.9078 0.5605 0.7000
C19_2 C 0.6590(4) 0.4009(5) 0.5404(4)
C21_2 C 0.9844(4) 0.5374(4) 0.7906(4)
C23_2 C 0.7714(4) 0.5052(4) 0.7413(4)
C25_2 C 0.7293(5) 0.5505(5) 0.6880(5)
H27_2 H 0.7264 0.6047 0.6944
C27_2 C 0.7806(4) 0.4223(5) 0.7265(4)
H29_2 H 0.8116 0.3921 0.7599
C29_2 C 0.6917(5) 0.5146(5) 0.6252(5)
H31_2 H 0.6607 0.5445 0.5916
C31_2 C 0.7438(5) 0.3874(4) 0.6636(5)
H33_2 H 0.7485 0.3334 0.6560
C33_2 C 0.7000(4) 0.4320(4) 0.6117(4)
H12_4 H 0.7393 0.7918 0.0364
H20_4 H 0.6504 0.6846 0.0117
Cl1_4 Cl 0.81213(9) 0.81213(9) 0.81213(9)
O7_4 O 0.7619(3) 0.7619(3) 0.7619(3)
O8_4 O 0.7035(3) 0.7903(4) 0.9952(4)
O17_4 O 0.4967(3) 0.6205(3) 0.4420(3)
O19_4 O 0.8848(3) 0.8356(2) 0.7697(3)
O20_4 O 0.7697(3) 0.8848(3) 0.8356(2)
O25_4 O 0.7479(3) 0.9719(3) 0.9929(3)
O30_4 O 0.3631(3) 0.5102(3) 0.4561(3)
N2_4 N 0.6084(3) 0.7960(3) 0.8608(3)
H14_4 H 0.6430 0.7660 0.8295
C12_4 C 0.5422(5) 0.8132(5) 0.8094(5)
H16_4 H 0.5598 0.8485 0.7682
H18_4 H 0.5023 0.8404 0.8396
C14_4 C 0.6632(5) 0.7185(5) 0.9676(5)
H22_4 H 0.6964 0.6896 0.9314
C16_4 C 0.5894(4) 0.7460(3) 0.9270(3)
H24_4 H 0.5605 0.7000 0.9078
C18_4 C 0.4009(5) 0.5404(4) 0.6590(4)
C20_4 C 0.5374(4) 0.7906(4) 0.9844(4)
C22_4 C 0.5052(4) 0.7413(4) 0.7714(4)
C24_4 C 0.5505(5) 0.6880(5) 0.7293(5)
H26_4 H 0.6047 0.6944 0.7264
C26_4 C 0.4223(5) 0.7265(4) 0.7806(4)
H28_4 H 0.3921 0.7599 0.8116
C28_4 C 0.5146(5) 0.6252(5) 0.6917(5)
H30_4 H 0.5445 0.5916 0.6607
C30_4 C 0.3874(4) 0.6636(5) 0.7438(5)
H32_4 H 0.3334 0.6560 0.7485
C32_4 C 0.4320(4) 0.6117(4) 0.7000(4)
O2_3 O 0.4698(3) 0.1647(4) 0.1719(4)
C4_3 C 0.4596(4) 0.1590(4) 0.0991(5)
C8_3 C 0.2735(4) 0.2806(4) 0.0777(5)
H9_3 H 0.2401 0.3116 0.1079
C10_3 C 0.3364(5) 0.2438(5) 0.1126(4)
H11_3 H 0.3440 0.2485 0.1666
C11_3 C 0.3883(4) 0.2000(4) 0.0680(4)
O9_3 O 0.7097(4) 0.0048(4) 0.2035(3)
N3_3 N 0.7040(3) 0.1392(3) 0.1084(3)
H15_3 H 0.7340 0.1705 0.1430
C13_3 C 0.6868(5) 0.1906(5) 0.0422(5)
H17_3 H 0.6515 0.2318 0.0598
H19_3 H 0.6596 0.1604 0.0023
C15_3 C 0.7815(5) 0.0324(5) 0.1632(5)
H23_3 H 0.8104 0.0686 0.1964
C17_3 C 0.7540(3) 0.0730(3) 0.0894(4)
H25_3 H 0.8000 0.0922 0.0605
C21_3 C 0.7094(4) 0.0156(4) 0.0374(4)
C23_3 C 0.7587(4) 0.2286(4) 0.0052(4)
C25_3 C 0.8120(5) 0.2707(5) 0.0505(5)
H27_3 H 0.8056 0.2736 0.1047
C29_3 C 0.8748(5) 0.3083(5) 0.0146(5)
H31_3 H 0.9084 0.3393 0.0445
O1_3 O 0.2097(4) 0.4952(4) 0.7965(3)
H1_3 H 0.2082 0.5364 0.7607
N1_3 N 0.2040(3) 0.3608(3) 0.8916(3)
H2_3 H 0.2340 0.3295 0.8570
C1_3 C 0.1868(5) 0.3094(5) 0.9578(5)
H3_3 H 0.1515 0.2682 0.9402
H4_3 H 0.1596 0.3396 0.9977
C2_3 C 0.2815(5) 0.4676(5) 0.8368(5)
H5_3 H 0.3154 0.5117 0.8496
H6_3 H 0.3104 0.4314 0.8036
C3_3 C 0.2540(3) 0.4270(3) 0.9106(4)
H7_3 H 0.3000 0.4078 0.9395
C5_3 C 0.2094(4) 0.4844(4) 0.9626(4)
C6_3 C 0.2587(4) 0.2714(4) 0.9948(4)
C7_3 C 0.3120(5) 0.2293(5) 0.9495(5)
H8_3 H 0.3056 0.2264 0.8953
C9_3 C 0.3748(5) 0.1917(5) 0.9854(5)
H10_3 H 0.4084 0.1607 0.9555
O11_2 O 0.9698(3) 0.3353(4) 0.8281(4)
C19_3 C 0.9596(4) 0.3410(4) 0.9009(5)
C27_3 C 0.7735(4) 0.2194(4) 0.9223(5)
H29_3 H 0.7401 0.1884 0.8921
C31_3 C 0.8364(5) 0.2562(5) 0.8874(4)
H33_3 H 0.8440 0.2515 0.8334
C33_3 C 0.8883(4) 0.3000(4) 0.9320(4)
H13_3 H 0.7082 0.9636 0.2393
H21_3 H 0.8154 0.9883 0.1504
O1_4 O 0.2903(4) 0.5048(4) 0.2965(3)
H1_4 H 0.2918 0.4636 0.2607
O2_4 O 0.0302(3) 0.8353(4) 0.6719(4)
N1_4 N 0.2960(3) 0.6392(3) 0.3916(3)
H2_4 H 0.2660 0.6705 0.3570
C1_4 C 0.3132(5) 0.6906(5) 0.4578(5)
H3_4 H 0.3485 0.7318 0.4402
H4_4 H 0.3404 0.6604 0.4977
C2_4 C 0.2185(5) 0.5324(5) 0.3368(5)
H5_4 H 0.1846 0.4883 0.3496
H6_4 H 0.1896 0.5686 0.3036
C3_4 C 0.2460(3) 0.5730(3) 0.4106(4)
H7_4 H 0.2000 0.5922 0.4395
C4_4 C 0.0404(4) 0.8410(4) 0.5991(5)
C5_4 C 0.2906(4) 0.5156(4) 0.4626(4)
C6_4 C 0.2413(4) 0.7286(4) 0.4948(4)
C7_4 C 0.1880(5) 0.7707(5) 0.4495(5)
H8_4 H 0.1944 0.7736 0.3953
C8_4 C 0.2265(4) 0.7194(4) 0.5777(5)
H9_4 H 0.2599 0.6884 0.6079
C9_4 C 0.1252(5) 0.8083(5) 0.4854(5)
H10_4 H 0.0916 0.8393 0.4555
C10_4 C 0.1636(5) 0.7562(5) 0.6126(4)
H11_4 H 0.1560 0.7515 0.6666
C11_4 C 0.1117(4) 0.8000(4) 0.5680(4)
O12_2 O 0.5302(3) 0.6647(4) 0.3281(4)
H13_4 H 0.7918 0.0364 0.7393
H21_4 H 0.6846 0.0117 0.6504
O9_4 O 0.7903(4) 0.9952(4) 0.7035(3)
N3_4 N 0.7960(3) 0.8608(3) 0.6084(3)
H15_4 H 0.7660 0.8295 0.6430
C13_4 C 0.8132(5) 0.8094(5) 0.5422(5)
H17_4 H 0.8485 0.7682 0.5598
H19_4 H 0.8404 0.8396 0.5023
C15_4 C 0.7185(5) 0.9676(5) 0.6632(5)
H23_4 H 0.6896 0.9314 0.6964
C17_4 C 0.7460(3) 0.9270(3) 0.5894(4)
H25_4 H 0.7000 0.9078 0.5605
C19_4 C 0.5404(4) 0.6590(4) 0.4009(5)
C21_4 C 0.7906(4) 0.9844(4) 0.5374(4)
C23_4 C 0.7413(4) 0.7714(4) 0.5052(4)
C25_4 C 0.6880(5) 0.7293(5) 0.5505(5)
H27_4 H 0.6944 0.7264 0.6047
C27_4 C 0.7265(4) 0.7806(4) 0.4223(5)
H29_4 H 0.7599 0.8116 0.3921
C29_4 C 0.6252(5) 0.6917(5) 0.5146(5)
H31_4 H 0.5916 0.6607 0.5445
C31_4 C 0.6636(5) 0.7438(5) 0.3874(4)
H33_4 H 0.6560 0.7485 0.3334
C33_4 C 0.6117(4) 0.7000(4) 0.4320(4)
loop_
_geom_bond_atom_site_label_1
_geom_bond_atom_site_label_2
_geom_bond_site_symmetry_1
_geom_bond_site_symmetry_2
O2 C4 1_555 1_555
O3 C4 1_555 1_555
C4 C11 1_555 1_555
H9 C8 1_555 1_555
C10 C8 1_555 1_555
H11 C10 1_555 1_555
Cd3 O2 1_555 1_555
Cd4 O5 1_555 1_555
O9 Cd3 1_555 1_555
O21 Cd3 1_555 1_555
O26 Cd3 1_555 1_555
N3 Cd3 1_555 1_555
H15 N3 1_555 1_555
C13 N3 1_555 1_555
H17 C13 1_555 1_555
H19 C13 1_555 1_555
C15 O9 1_555 1_555
H23 C15 1_555 1_555
C17 N3 1_555 1_555
H25 C17 1_555 1_555
C23 C13 1_555 1_555
C25 C23 1_555 1_555
H27 C25 1_555 1_555
C29 C25 1_555 1_555
H31 C29 1_555 1_555
O3 Cd3 1_555 1_555
C10 C11 1_555 1_555
Cd3 O28 1_555 1_555
O28 C21 1_555 1_555
C15 C17 1_555 1_555
C17 C21 1_555 1_555
Na4 O15 1_555 1_555
O15 Cd8 1_555 1_555
Cd8 O1 1_555 1_555
Cl1 O4 1_555 1_555
O1 H1 1_555 1_555
O4 Cd8 1_555 1_555
O6 Cd8 1_555 1_555
O7 Cl1 1_555 1_555
N1 Cd8 1_555 1_555
H2 N1 1_555 1_555
C1 N1 1_555 1_555
H3 C1 1_555 1_555
H4 C1 1_555 1_555
C2 O1 1_555 1_555
H5 C2 1_555 1_555
H6 C2 1_555 1_555
C3 N1 1_555 1_555
H7 C3 1_555 1_555
C5 O6 1_555 1_555
C6 C1 1_555 1_555
C7 C6 1_555 1_555
H8 C7 1_555 1_555
C9 C7 1_555 1_555
H10 C9 1_555 1_555
Cd2 O8 1_555 1_555
Cd5 O19 1_555 1_555
Na4 O6 1_555 1_555
O11 C19 1_555 1_555
O13 Cd2 1_555 1_555
O18 Cd2 1_555 1_555
O19 Cl1 1_555 1_555
O20 Cl1 1_555 1_555
O24 Cd8 1_555 1_555
O25 Cd2 1_555 1_555
O27 Cd2 1_555 1_555
N2 Cd2 1_555 1_555
H14 N2 1_555 1_555
C12 N2 1_555 1_555
H16 C12 1_555 1_555
H18 C12 1_555 1_555
C14 O8 1_555 1_555
H22 C14 1_555 1_555
C16 N2 1_555 1_555
H24 C16 1_555 1_555
C20 O27 1_555 1_555
C22 C12 1_555 1_555
C24 C22 1_555 1_555
H26 C24 1_555 1_555
H29 C27 1_555 1_555
C28 C24 1_555 1_555
H30 C28 1_555 1_555
C31 C27 1_555 1_555
H33 C31 1_555 1_555
C33 C19 1_555 1_555
C2 C3 1_555 1_555
C3 C5 1_555 1_555
Cd2 O20 1_555 1_555
C14 C16 1_555 1_555
C16 C20 1_555 1_555
C31 C33 1_555 1_555
O14 Na1 1_555 1_555
O29 Na1 1_555 1_555
Cd6 O14 1_555 1_555
Cd6 O29 1_555 1_555
Cd9 O17 1_555 1_555
O10 C18 1_555 1_555
O23 Cd9 1_555 1_555
H28 C26 1_555 1_555
C30 C26 1_555 1_555
H32 C30 1_555 1_555
C32 C18 1_555 1_555
Cd9 O30 1_555 1_555
C30 C32 1_555 1_555
Cd7 O22 1_555 1_555
Cd4 O17_2 1_555 1_555
Cd4 O30_2 1_555 1_555
Cl1_2 O21 1_555 1_555
O7_2 Cl1_2 1_555 1_555
Cd2_2 O8_2 1_555 1_555
Cd5_2 O19_2 1_555 1_555
Cd7_2 O22_2 1_555 1_555
Na3_2 O18_2 1_555 1_555
O8_2 H12_2 1_555 1_555
O10_2 C18_2 1_555 1_555
O13_2 Cd2_2 1_555 1_555
O18_2 Cd2_2 1_555 1_555
O19_2 Cl1_2 1_555 1_555
O20_2 Cl1_2 1_555 1_555
O22_2 C20_2 1_555 1_555
O25_2 Cd2_2 1_555 1_555
O27_2 Cd2_2 1_555 1_555
N2_2 Cd2_2 1_555 1_555
H14_2 N2_2 1_555 1_555
C12_2 N2_2 1_555 1_555
H16_2 C12_2 1_555 1_555
H18_2 C12_2 1_555 1_555
C14_2 O8_2 1_555 1_555
H20_2 C14_2 1_555 1_555
H22_2 C14_2 1_555 1_555
C16_2 N2_2 1_555 1_555
H24_2 C16_2 1_555 1_555
C20_2 O27_2 1_555 1_555
C22_2 C12_2 1_555 1_555
C24_2 C22_2 1_555 1_555
H26_2 C24_2 1_555 1_555
C26_2 C22_2 1_555 1_555
H28_2 C26_2 1_555 1_555
C28_2 C24_2 1_555 1_555
H30_2 C28_2 1_555 1_555
C30_2 C26_2 1_555 1_555
H32_2 C30_2 1_555 1_555
C32_2 C18_2 1_555 1_555
Cd2_2 O20_2 1_555 1_555
Na3_2 O27_2 1_555 1_555
C14_2 C16_2 1_555 1_555
C16_2 C20_2 1_555 1_555
C28_2 C32_2 1_555 1_555
C30_2 C32_2 1_555 1_555
Cd6_2 O14_2 1_555 1_555
Cd6_2 O29_2 1_555 1_555
O13 C18_3 1_555 1_555
C18_3 O18 1_555 1_555
H28_3 C26_3 1_555 1_555
C30_3 C26_3 1_555 1_555
H32_3 C30_3 1_555 1_555
C32_3 C18_3 1_555 1_555
C30_3 C32_3 1_555 1_555
Cd5_2 O17_3 1_555 1_555
O17_3 Na3 1_555 1_555
O23_2 Cd5_2 1_555 1_555
O30_3 Na3 1_555 1_555
Cd5_2 O30_3 1_555 1_555
Cd7_2 O1_2 1_555 1_555
Cl1_3 O4_2 1_555 1_555
O1_2 H1_2 1_555 1_555
O2_2 C4_2 1_555 1_555
O4_2 Cd7_2 1_555 1_555
O5_2 C5_2 1_555 1_555
O6_2 Cd7_2 1_555 1_555
O7_3 Cl1_3 1_555 1_555
N1_2 Cd7_2 1_555 1_555
H2_2 N1_2 1_555 1_555
C1_2 N1_2 1_555 1_555
H3_2 C1_2 1_555 1_555
H4_2 C1_2 1_555 1_555
C2_2 O1_2 1_555 1_555
H5_2 C2_2 1_555 1_555
H6_2 C2_2 1_555 1_555
C3_2 N1_2 1_555 1_555
H7_2 C3_2 1_555 1_555
C4_2 C11_2 1_555 1_555
C5_2 O6_2 1_555 1_555
C6_2 C1_2 1_555 1_555
C7_2 C6_2 1_555 1_555
H8_2 C7_2 1_555 1_555
C8_2 C6_2 1_555 1_555
H9_2 C8_2 1_555 1_555
C9_2 C7_2 1_555 1_555
H10_2 C9_2 1_555 1_555
C10_2 C8_2 1_555 1_555
H11_2 C10_2 1_555 1_555
C11_2 C9_2 1_555 1_555
Cd6 O8_3 1_555 1_555
Cd5 O5_2 1_555 1_555
Cd4 O19_3 1_555 1_555
Na3_2 O6_2 1_555 1_555
O8_3 H12_3 1_555 1_555
O12 Cd7_2 1_555 1_555
O16 Cd7_2 1_555 1_555
O19_3 Cl1_3 1_555 1_555
O20_3 Cl1_3 1_555 1_555
O25_3 Cd6 1_555 1_555
N2_3 Cd6 1_555 1_555
H14_3 N2_3 1_555 1_555
C12_3 N2_3 1_555 1_555
H16_3 C12_3 1_555 1_555
H18_3 C12_3 1_555 1_555
C14_3 O8_3 1_555 1_555
H20_3 C14_3 1_555 1_555
H22_3 C14_3 1_555 1_555
C16_3 N2_3 1_555 1_555
H24_3 C16_3 1_555 1_555
C20_3 O29 1_555 1_555
C22_3 C12_3 1_555 1_555
C24_3 C22_3 1_555 1_555
H26_3 C24_3 1_555 1_555
C28_3 C24_3 1_555 1_555
H30_3 C28_3 1_555 1_555
C2_2 C3_2 1_555 1_555
C3_2 C5_2 1_555 1_555
C10_2 C11_2 1_555 1_555
Cd6 O20_3 1_555 1_555
Na3_2 O16 1_555 1_555
C14_3 C16_3 1_555 1_555
C16_3 C20_3 1_555 1_555
O9_2 Cd7 1_555 1_555
O12 C19_2 1_555 1_555
O21_2 Cd7 1_555 1_555
N3_2 Cd7 1_555 1_555
H15_2 N3_2 1_555 1_555
C13_2 N3_2 1_555 1_555
H17_2 C13_2 1_555 1_555
H19_2 C13_2 1_555 1_555
C15_2 O9_2 1_555 1_555
H23_2 C15_2 1_555 1_555
C17_2 N3_2 1_555 1_555
H25_2 C17_2 1_555 1_555
C19_2 O16 1_555 1_555
C23_2 C13_2 1_555 1_555
C25_2 C23_2 1_555 1_555
H27_2 C25_2 1_555 1_555
C27_2 C23_2 1_555 1_555
H29_2 C27_2 1_555 1_555
C29_2 C25_2 1_555 1_555
H31_2 C29_2 1_555 1_555
C31_2 C27_2 1_555 1_555
H33_2 C31_2 1_555 1_555
C33_2 C19_2 1_555 1_555
O3_2 Cd7 1_555 1_555
Cd7 O28_2 1_555 1_555
O28_2 C21_2 1_555 1_555
C15_2 C17_2 1_555 1_555
C17_2 C21_2 1_555 1_555
C29_2 C33_2 1_555 1_555
C31_2 C33_2 1_555 1_555
Cl1_4 O21_2 1_555 1_555
O7_4 Cl1_4 1_555 1_555
Cd6_2 O8_4 1_555 1_555
Cd9 O19_4 1_555 1_555
Cd5 O17_4 1_555 1_555
O13_2 C18_4 1_555 1_555
O17_4 Na3_2 1_555 1_555
O19_4 Cl1_4 1_555 1_555
O20_4 Cl1_4 1_555 1_555
O25_4 Cd6_2 1_555 1_555
O30_4 Na3_2 1_555 1_555
N2_4 Cd6_2 1_555 1_555
H14_4 N2_4 1_555 1_555
C12_4 N2_4 1_555 1_555
H16_4 C12_4 1_555 1_555
H18_4 C12_4 1_555 1_555
C14_4 O8_4 1_555 1_555
H22_4 C14_4 1_555 1_555
C16_4 N2_4 1_555 1_555
H24_4 C16_4 1_555 1_555
C18_4 O18_2 1_555 1_555
C20_4 O29_2 1_555 1_555
C22_4 C12_4 1_555 1_555
C24_4 C22_4 1_555 1_555
H26_4 C24_4 1_555 1_555
C26_4 C22_4 1_555 1_555
H28_4 C26_4 1_555 1_555
C28_4 C24_4 1_555 1_555
H30_4 C28_4 1_555 1_555
C30_4 C26_4 1_555 1_555
H32_4 C30_4 1_555 1_555
C32_4 C18_4 1_555 1_555
Cd6_2 O20_4 1_555 1_555
Cd5 O30_4 1_555 1_555
C14_4 C16_4 1_555 1_555
C16_4 C20_4 1_555 1_555
C28_4 C32_4 1_555 1_555
C30_4 C32_4 1_555 1_555
O2_3 C4_3 1_555 1_555
O17_2 C4_3 1_555 1_555
C4_3 C11_3 1_555 1_555
H9_3 C8_3 1_555 1_555
C10_3 C8_3 1_555 1_555
H11_3 C10_3 1_555 1_555
Cd4 O2_3 1_555 1_555
O9_3 Cd4 1_555 1_555
N3_3 Cd4 1_555 1_555
H15_3 N3_3 1_555 1_555
C13_3 N3_3 1_555 1_555
H17_3 C13_3 1_555 1_555
H19_3 C13_3 1_555 1_555
C15_3 O9_3 1_555 1_555
H23_3 C15_3 1_555 1_555
C17_3 N3_3 1_555 1_555
H25_3 C17_3 1_555 1_555
C23_3 C13_3 1_555 1_555
C25_3 C23_3 1_555 1_555
H27_3 C25_3 1_555 1_555
C29_3 C25_3 1_555 1_555
H31_3 C29_3 1_555 1_555
C10_3 C11_3 1_555 1_555
O30_2 C21_3 1_555 1_555
C15_3 C17_3 1_555 1_555
C17_3 C21_3 1_555 1_555
Cd5_2 O1_3 1_555 1_555
O1_3 H1_3 1_555 1_555
N1_3 Cd5_2 1_555 1_555
H2_3 N1_3 1_555 1_555
C1_3 N1_3 1_555 1_555
H3_3 C1_3 1_555 1_555
H4_3 C1_3 1_555 1_555
C2_3 O1_3 1_555 1_555
H5_3 C2_3 1_555 1_555
H6_3 C2_3 1_555 1_555
C3_3 N1_3 1_555 1_555
H7_3 C3_3 1_555 1_555
C5_3 O30_3 1_555 1_555
C6_3 C1_3 1_555 1_555
C7_3 C6_3 1_555 1_555
H8_3 C7_3 1_555 1_555
C9_3 C7_3 1_555 1_555
H10_3 C9_3 1_555 1_555
O11_2 C19_3 1_555 1_555
H29_3 C27_3 1_555 1_555
C31_3 C27_3 1_555 1_555
H33_3 C31_3 1_555 1_555
C33_3 C19_3 1_555 1_555
C2_3 C3_3 1_555 1_555
C3_3 C5_3 1_555 1_555
C31_3 C33_3 1_555 1_555
Cd5 O1_4 1_555 1_555
O1_4 H1_4 1_555 1_555
O2_4 C4_4 1_555 1_555
O25_2 C5_4 1_555 1_555
N1_4 Cd5 1_555 1_555
H2_4 N1_4 1_555 1_555
C1_4 N1_4 1_555 1_555
H3_4 C1_4 1_555 1_555
H4_4 C1_4 1_555 1_555
C2_4 O1_4 1_555 1_555
H5_4 C2_4 1_555 1_555
H6_4 C2_4 1_555 1_555
C3_4 N1_4 1_555 1_555
H7_4 C3_4 1_555 1_555
C4_4 C11_4 1_555 1_555
C5_4 O30_4 1_555 1_555
C6_4 C1_4 1_555 1_555
C7_4 C6_4 1_555 1_555
H8_4 C7_4 1_555 1_555
C8_4 C6_4 1_555 1_555
H9_4 C8_4 1_555 1_555
C9_4 C7_4 1_555 1_555
H10_4 C9_4 1_555 1_555
C10_4 C8_4 1_555 1_555
H11_4 C10_4 1_555 1_555
C11_4 C9_4 1_555 1_555
O12_2 Cd5 1_555 1_555
C2_4 C3_4 1_555 1_555
C3_4 C5_4 1_555 1_555
C10_4 C11_4 1_555 1_555
O9_4 Cd9 1_555 1_555
O12_2 C19_4 1_555 1_555
N3_4 Cd9 1_555 1_555
H15_4 N3_4 1_555 1_555
C13_4 N3_4 1_555 1_555
H17_4 C13_4 1_555 1_555
H19_4 C13_4 1_555 1_555
C15_4 O9_4 1_555 1_555
H23_4 C15_4 1_555 1_555
C17_4 N3_4 1_555 1_555
H25_4 C17_4 1_555 1_555
C19_4 O17_4 1_555 1_555
C23_4 C13_4 1_555 1_555
C25_4 C23_4 1_555 1_555
H27_4 C25_4 1_555 1_555
C27_4 C23_4 1_555 1_555
H29_4 C27_4 1_555 1_555
C29_4 C25_4 1_555 1_555
H31_4 C29_4 1_555 1_555
C31_4 C27_4 1_555 1_555
H33_4 C31_4 1_555 1_555
C33_4 C19_4 1_555 1_555
O30 C21_4 1_555 1_555
C15_4 C17_4 1_555 1_555
C17_4 C21_4 1_555 1_555
C29_4 C33_4 1_555 1_555
C31_4 C33_4 1_555 1_555

#END
