
###############################################################################
#
# This file contains modified crystal structure data generated from the
# MOF subset of the Cambridge Structural Database (CSD) v543 
# hosted by the Cambridge Crystallographic Data Centre (CCDC).
#
# This work is licensed under the Creative Commons
# Attribution-NonCommercial-ShareAlike 4.0 International License.
# To view a copy of this license, visit
# http://creativecommons.org/licenses/by-nc-sa/4.0/
# or send a letter to
# Creative Commons, PO Box 1866, Mountain View, CA 94042, USA.
#
# CIF created using the CSD Python API on 29 September 2022
# The structure has been converted into the P1 space group
# The structure has a 3D framework
# The original CSD entry EBUKUL is in the monoclinic crystal system
# The framework has been calculated to contain at least 10.0% void space
# The void calculation uses a probe of radius 1.32A, grid spacing 0.4
# H atom positions have been added when not included in the experimental data
# Generated hydrogen atom positions removed from atoms on special positions
#
###############################################################################

data_EBUKUL
_chemical_formula_moiety         '(C176 H128 N16 O40 Zn8)n'
_symmetry_cell_setting           triclinic
_symmetry_space_group_name_H-M   'P 1'
_symmetry_Int_Tables_number      1
_space_group_name_Hall           'P 1'
loop_
_symmetry_equiv_pos_site_id
_symmetry_equiv_pos_as_xyz
1 x,y,z
_cell_length_a                   26.722(4)
_cell_length_b                   7.5859(11)
_cell_length_c                   22.487(3)
_cell_angle_alpha                90
_cell_angle_beta                 92.709(3)
_cell_angle_gamma                90
_cell_volume                     4553.26
loop_
_atom_site_label
_atom_site_type_symbol
_atom_site_fract_x
_atom_site_fract_y
_atom_site_fract_z
Zn1 Zn 0.42372(2) 0.23011(4) 0.85363(2)
N1 N 0.44668(7) 0.0220(3) 0.90570(8)
O1 O 0.37669(8) 0.1316(3) 0.79189(8)
O2 O 0.44456(8) 0.0786(4) 0.74193(10)
O5 O 0.49454(9) 0.2920(3) 0.82958(11)
C13 C 0.36518(9) 0.0171(3) 0.69534(10)
C14 C 0.31349(9) 0.0119(4) 0.69697(11)
H7 H 0.298059 0.048315 0.731087
C16 C 0.39842(11) 0.0804(4) 0.74604(11)
C21 C 0.43435(8) 0.0041(3) 0.96198(10)
H12 H 0.416328 0.093989 0.979249
O8 O 0.39761(9) 0.5311(3) 0.36470(11)
O9 O 0.37331(10) 0.6678(3) 0.44359(13)
C29 C 0.37401(10) 0.5356(4) 0.41267(14)
C30 C 0.34804(8) 0.3700(3) 0.43055(11)
C31 C 0.33044(9) 0.3583(3) 0.48680(11)
H19 H 0.333638 0.454736 0.512238
C32 C 0.30807(9) 0.2060(3) 0.50637(11)
H20 H 0.296820 0.200409 0.544833
C33 C 0.30228(8) 0.0607(3) 0.46868(9)
C34 C 0.31901(9) 0.0739(3) 0.41153(10)
C35 C 0.34235(11) 0.2259(3) 0.39267(12)
H22 H 0.354242 0.231425 0.354512
Zn4 Zn 0.42372(2) 0.76989(4) 0.35363(2)
O12 O 0.39761(9) 0.4689(3) 0.86470(11)
H11 H 0.437393 0.850825 0.034721
C22 C 0.48660(10) 0.5668(4) 0.00764(11)
H13 H 0.473810 0.562930 0.045369
C23 C 0.52639(9) 0.1074(3) 0.11799(11)
H14 H 0.517268 0.096618 0.157224
C24 C 0.51185(11) 0.2548(3) 0.08654(14)
H15 H 0.492658 0.340473 0.104320
C25 C 0.52558(10) 0.2769(3) 0.02836(12)
C26 C 0.55288(9) 0.1415(3) 0.00436(11)
O3 O 0.89761(9) 0.9689(3) 0.86470(11)
O4 O 0.87331(10) 0.8322(3) 0.94359(13)
C1 C 0.87401(10) 0.9644(4) 0.91267(14)
N3 N 0.44668(7) 0.9780(3) 0.40570(8)
C27 C 0.43435(8) 0.9959(3) 0.46198(10)
H17 H 0.416328 0.906011 0.479249
O10 O 0.49454(9) 0.7080(3) 0.32958(11)
Zn3 Zn 0.92372(2) 0.73011(4) 0.85363(2)
O11 O 0.37669(8) 0.8684(3) 0.29189(8)
N1_2 N 0.94668(7) 0.5220(3) 0.90570(8)
N2 N 0.75027(7) 0.1848(3) 0.55714(8)
O1_2 O 0.87669(8) 0.6316(3) 0.79189(8)
O2_2 O 0.94456(8) 0.5786(4) 0.74193(10)
O5_2 O 0.99454(9) 0.7920(3) 0.82958(11)
H3 H 0.685468 0.020486 0.614590
C8 C 0.72364(8) 0.1022(3) 0.51307(9)
C9 C 0.77638(8) 0.3277(3) 0.54531(9)
C10 C 0.80679(8) 0.3995(3) 0.59662(9)
C11 C 0.85822(9) 0.4022(4) 0.59574(10)
H5 H 0.873761 0.364201 0.561898
C12 C 0.88708(9) 0.4604(4) 0.64421(10)
H6 H 0.921780 0.461633 0.642522
C13_2 C 0.86518(9) 0.5171(3) 0.69534(10)
C14_2 C 0.81349(9) 0.5119(4) 0.69697(11)
H7_2 H 0.798059 0.548315 0.731087
C15 C 0.78444(9) 0.4527(4) 0.64810(10)
H8 H 0.749763 0.448690 0.649918
C16_2 C 0.89842(11) 0.5804(4) 0.74604(11)
C17 C 0.97361(9) 0.3926(3) 0.88201(11)
H9 H 0.982732 0.403382 0.842776
C18 C 0.98815(11) 0.2452(3) 0.91346(14)
C19 C 0.97442(10) 0.2231(3) 0.97164(12)
C20 C 0.94712(9) 0.3585(3) 0.99564(11)
C21_2 C 0.93435(8) 0.5041(3) 0.96198(10)
H12_2 H 0.916328 0.593989 0.979249
N4 N 0.74973(7) 0.3152(3) 0.44286(8)
C30_2 C 0.84804(8) 0.8700(3) 0.43055(11)
C31_2 C 0.83044(9) 0.8583(3) 0.48680(11)
H19_2 H 0.833638 0.954736 0.512238
C32_2 C 0.80807(9) 0.7060(3) 0.50637(11)
H20_2 H 0.796820 0.700409 0.544833
C33_2 C 0.80228(8) 0.5607(3) 0.46868(9)
C34_2 C 0.81901(9) 0.5739(3) 0.41153(10)
H21 H 0.814532 0.479514 0.385410
C35_2 C 0.84235(11) 0.7259(3) 0.39267(12)
H22_2 H 0.854242 0.731425 0.354512
C36 C 0.77636(8) 0.3978(3) 0.48693(9)
C37 C 0.72362(8) 0.1723(3) 0.45469(9)
C38 C 0.69321(8) 0.1005(3) 0.40338(9)
C39 C 0.64178(9) 0.0978(4) 0.40426(10)
H23 H 0.626239 0.135799 0.438102
C40 C 0.61292(9) 0.0396(4) 0.35579(10)
H24 H 0.578220 0.038367 0.357478
C43 C 0.71556(9) 0.0473(4) 0.35190(10)
H26 H 0.750237 0.051310 0.350082
H28 H 0.993091 0.895595 0.802559
H1 H 0.333638 0.545264 0.012238
C4 C 0.30807(9) 0.7940(3) 0.00637(11)
H2 H 0.296820 0.799591 0.044833
O7 O 0.44456(8) 0.9214(4) 0.24193(10)
C41 C 0.36518(9) 0.9829(3) 0.19534(10)
C42 C 0.31349(9) 0.9881(4) 0.19697(11)
H25 H 0.298059 0.951685 0.231087
C44 C 0.39842(11) 0.9196(4) 0.24604(11)
O4_2 O 0.37331(10) 0.3322(3) 0.94359(13)
C1_2 C 0.37401(10) 0.4644(4) 0.91267(14)
C2 C 0.34804(8) 0.6300(3) 0.93055(11)
C3 C 0.33044(9) 0.6417(3) 0.98680(11)
C5 C 0.30228(8) 0.9393(3) 0.96868(9)
C6 C 0.31901(9) 0.9261(3) 0.91153(10)
C7 C 0.34235(11) 0.7741(3) 0.89267(12)
H4 H 0.354242 0.768575 0.854512
H15_2 H 0.007342 0.840473 0.395680
H29 H 0.0157826 0.179569 0.365733
H27 H 0.00909825 0.310006 0.308782
N2_2 N 0.25027(7) 0.6848(3) 0.55714(8)
C2_2 C 0.15196(8) 0.1300(3) 0.56945(11)
C3_2 C 0.16956(9) 0.1417(3) 0.51320(11)
H1_2 H 0.166362 0.045264 0.487762
C4_2 C 0.19193(9) 0.2940(3) 0.49363(11)
H2_2 H 0.203180 0.299591 0.455167
C5_2 C 0.19772(8) 0.4393(3) 0.53132(9)
C6_2 C 0.18099(9) 0.4261(3) 0.58847(10)
H3_2 H 0.185468 0.520486 0.614590
C7_2 C 0.15765(11) 0.2741(3) 0.60733(12)
H4_2 H 0.145758 0.268575 0.645488
C8_2 C 0.22364(8) 0.6022(3) 0.51307(9)
C9_2 C 0.27638(8) 0.8277(3) 0.54531(9)
C10_2 C 0.30679(8) 0.8995(3) 0.59662(9)
C11_2 C 0.35822(9) 0.9022(4) 0.59574(10)
H5_2 H 0.373761 0.864201 0.561898
C12_2 C 0.38708(9) 0.9604(4) 0.64421(10)
H6_2 H 0.421780 0.961633 0.642522
C15_2 C 0.28444(9) 0.9527(4) 0.64810(10)
H8_2 H 0.249763 0.948690 0.649918
C17_2 C 0.47361(9) 0.8926(3) 0.88201(11)
H9_2 H 0.482732 0.903382 0.842776
C18_2 C 0.48815(11) 0.7452(3) 0.91346(14)
H10 H 0.507342 0.659527 0.895680
C19_2 C 0.47442(10) 0.7231(3) 0.97164(12)
C20_2 C 0.44712(9) 0.8585(3) 0.99564(11)
H16 H 0.562607 0.149175 0.965279
C28 C 0.51340(10) 0.4332(4) 0.99236(11)
H18 H 0.526190 0.437070 0.954631
N4_2 N 0.24973(7) 0.8152(3) 0.44286(8)
O6 O 0.12331(8) 0.3684(3) 0.20811(8)
O7_2 O 0.05544(8) 0.4214(4) 0.25807(10)
H21_2 H 0.314532 0.979514 0.385410
C36_2 C 0.27636(8) 0.8978(3) 0.48693(9)
C37_2 C 0.22362(8) 0.6723(3) 0.45469(9)
C38_2 C 0.19321(8) 0.6005(3) 0.40338(9)
C39_2 C 0.14178(9) 0.5978(4) 0.40426(10)
H23_2 H 0.126239 0.635799 0.438102
C40_2 C 0.11292(9) 0.5396(4) 0.35579(10)
H24_2 H 0.078220 0.538367 0.357478
C41_2 C 0.13482(9) 0.4829(3) 0.30466(10)
C42_2 C 0.18651(9) 0.4881(4) 0.30303(11)
H25_2 H 0.201941 0.451685 0.268913
C43_2 C 0.21556(9) 0.5473(4) 0.35190(10)
H26_2 H 0.250237 0.551310 0.350082
C44_2 C 0.10158(11) 0.4196(4) 0.25396(11)
Zn5 Zn 0.07628(2) 0.26989(4) 0.14637(2)
N3_2 N 0.55332(7) 0.9780(3) 0.09430(8)
C27_2 C 0.56565(8) 0.9959(3) 0.03802(10)
H17_2 H 0.583672 0.906011 0.020751
Zn2 Zn 0.57628(2) 0.76989(4) 0.14637(2)
O10_2 O 0.50546(9) 0.7080(3) 0.17042(11)
O11_2 O 0.62331(8) 0.8684(3) 0.20811(8)
O13 O 0.60239(9) 0.5311(3) 0.13530(11)
O9_2 O 0.62669(10) 0.6678(3) 0.05641(13)
C29_2 C 0.62599(10) 0.5356(4) 0.08733(14)
C30_3 C 0.65196(8) 0.3700(3) 0.06945(11)
C31_3 C 0.66956(9) 0.3583(3) 0.01320(11)
C33_3 C 0.69772(8) 0.0607(3) 0.03132(9)
C34_3 C 0.68099(9) 0.0739(3) 0.08847(10)
C35_3 C 0.65765(11) 0.2259(3) 0.10733(12)
H22_3 H 0.645758 0.231425 0.145488
Zn1_2 Zn 0.57628(2) 0.23011(4) 0.64637(2)
N1_3 N 0.55332(7) 0.0220(3) 0.59430(8)
O1_3 O 0.62331(8) 0.1316(3) 0.70811(8)
O2_3 O 0.55544(8) 0.0786(4) 0.75807(10)
O5_3 O 0.50546(9) 0.2920(3) 0.67042(11)
C13_3 C 0.63482(9) 0.0171(3) 0.80466(10)
C14_3 C 0.68651(9) 0.0119(4) 0.80303(11)
H7_3 H 0.701941 0.048315 0.768913
C16_3 C 0.60158(11) 0.0804(4) 0.75396(11)
C21_3 C 0.56565(8) 0.0041(3) 0.53802(10)
H12_3 H 0.583672 0.093989 0.520751
H19_3 H 0.666362 0.454736 0.987762
C32_3 C 0.69193(9) 0.2060(3) 0.99363(11)
H20_3 H 0.703180 0.200409 0.955167
O12_2 O 0.60239(9) 0.4689(3) 0.63530(11)
N3_3 N 0.05332(7) 0.4780(3) 0.09430(8)
C23_2 C 0.02639(9) 0.6074(3) 0.11799(11)
H14_2 H 0.017268 0.596618 0.157224
C24_2 C 0.01185(11) 0.7548(3) 0.08654(14)
C25_2 C 0.02558(10) 0.7769(3) 0.02836(12)
C26_2 C 0.05288(9) 0.6415(3) 0.00436(11)
C27_3 C 0.06565(8) 0.4959(3) 0.03802(10)
H17_3 H 0.083672 0.406011 0.020751
O10_3 O 0.00546(9) 0.2080(3) 0.17042(11)
O13_2 O 0.10239(9) 0.0311(3) 0.13530(11)
H30 H 0.00690938 0.104405 0.197441
O4_3 O 0.62669(10) 0.3322(3) 0.55641(13)
C1_3 C 0.62599(10) 0.4644(4) 0.58733(14)
C2_3 C 0.65196(8) 0.6300(3) 0.56945(11)
C3_3 C 0.66956(9) 0.6417(3) 0.51320(11)
H1_3 H 0.666362 0.545264 0.487762
C4_3 C 0.69193(9) 0.7940(3) 0.49363(11)
H2_3 H 0.703180 0.799591 0.455167
C5_3 C 0.69772(8) 0.9393(3) 0.53132(9)
C6_3 C 0.68099(9) 0.9261(3) 0.58847(10)
C7_3 C 0.65765(11) 0.7741(3) 0.60733(12)
H4_3 H 0.645758 0.768575 0.645488
O7_3 O 0.55544(8) 0.9214(4) 0.25807(10)
C41_3 C 0.63482(9) 0.9829(3) 0.30466(10)
C42_3 C 0.68651(9) 0.9881(4) 0.30303(11)
H25_3 H 0.701941 0.951685 0.268913
C44_3 C 0.60158(11) 0.9196(4) 0.25396(11)
O9_3 O 0.12669(10) 0.1678(3) 0.05641(13)
C29_3 C 0.12599(10) 0.0356(4) 0.08733(14)
H10_2 H 0.992658 0.159527 0.604320
H27_2 H 0.990902 0.689994 0.691218
H29_2 H 0.984217 0.820431 0.634267
O3_2 O 0.10239(9) 0.9689(3) 0.63530(11)
O4_4 O 0.12669(10) 0.8322(3) 0.55641(13)
C1_4 C 0.12599(10) 0.9644(4) 0.58733(14)
Zn3_2 Zn 0.07628(2) 0.73011(4) 0.64637(2)
N1_4 N 0.05332(7) 0.5220(3) 0.59430(8)
N2_3 N 0.24973(7) 0.1848(3) 0.94286(8)
O1_4 O 0.12331(8) 0.6316(3) 0.70811(8)
O2_4 O 0.05544(8) 0.5786(4) 0.75807(10)
O5_4 O 0.00546(9) 0.7920(3) 0.67042(11)
H3_3 H 0.314532 0.020486 0.885410
C8_3 C 0.27636(8) 0.1022(3) 0.98693(9)
C9_3 C 0.22362(8) 0.3277(3) 0.95469(9)
C10_3 C 0.19321(8) 0.3995(3) 0.90338(9)
C11_3 C 0.14178(9) 0.4022(4) 0.90426(10)
H5_3 H 0.126239 0.364201 0.938102
C12_3 C 0.11292(9) 0.4604(4) 0.85579(10)
H6_3 H 0.078220 0.461633 0.857478
C13_4 C 0.13482(9) 0.5171(3) 0.80466(10)
C14_4 C 0.18651(9) 0.5119(4) 0.80303(11)
H7_4 H 0.201941 0.548315 0.768913
C15_3 C 0.21556(9) 0.4527(4) 0.85190(10)
H8_3 H 0.250237 0.448690 0.850082
C16_4 C 0.10158(11) 0.5804(4) 0.75396(11)
C17_3 C 0.02639(9) 0.3926(3) 0.61799(11)
H9_3 H 0.017268 0.403382 0.657224
C18_3 C 0.01185(11) 0.2452(3) 0.58654(14)
C19_3 C 0.02558(10) 0.2231(3) 0.52836(12)
C20_3 C 0.05288(9) 0.3585(3) 0.50436(11)
H11_2 H 0.062607 0.350825 0.465279
C21_4 C 0.06565(8) 0.5041(3) 0.53802(10)
H12_4 H 0.083672 0.593989 0.520751
C22_2 C 0.01340(10) 0.0668(4) 0.49236(11)
H13_2 H 0.026190 0.062930 0.454631
H19_4 H 0.166362 0.954736 0.987762
C32_4 C 0.19193(9) 0.7060(3) 0.99363(11)
H20_4 H 0.203180 0.700409 0.955167
H28_2 H 0.00690938 0.895595 0.697441
H1_4 H 0.833638 0.045264 0.012238
C4_4 C 0.80807(9) 0.2940(3) 0.00637(11)
H2_4 H 0.796820 0.299591 0.044833
N4_3 N 0.75027(7) 0.8152(3) 0.05714(8)
O6_2 O 0.87669(8) 0.3684(3) 0.29189(8)
O7_4 O 0.94456(8) 0.4214(4) 0.24193(10)
H21_3 H 0.685468 0.979514 0.114590
C36_3 C 0.72364(8) 0.8978(3) 0.01307(9)
C37_3 C 0.77638(8) 0.6723(3) 0.04531(9)
C38_3 C 0.80679(8) 0.6005(3) 0.09662(9)
C39_3 C 0.85822(9) 0.5978(4) 0.09574(10)
H23_3 H 0.873761 0.635799 0.061898
C40_3 C 0.88708(9) 0.5396(4) 0.14421(10)
H24_3 H 0.921780 0.538367 0.142522
C41_4 C 0.86518(9) 0.4829(3) 0.19534(10)
C42_4 C 0.81349(9) 0.4881(4) 0.19697(11)
H25_4 H 0.798059 0.451685 0.231087
C43_3 C 0.78444(9) 0.5473(4) 0.14810(10)
H26_3 H 0.749763 0.551310 0.149918
C44_4 C 0.89842(11) 0.4196(4) 0.24604(11)
Zn5_2 Zn 0.92372(2) 0.26989(4) 0.35363(2)
O8_2 O 0.89761(9) 0.0311(3) 0.36470(11)
O9_4 O 0.87331(10) 0.1678(3) 0.44359(13)
C29_4 C 0.87401(10) 0.0356(4) 0.41267(14)
N3_4 N 0.94668(7) 0.4780(3) 0.40570(8)
C23_3 C 0.97361(9) 0.6074(3) 0.38201(11)
H14_3 H 0.982732 0.596618 0.342776
C24_3 C 0.98815(11) 0.7548(3) 0.41346(14)
C25_3 C 0.97442(10) 0.7769(3) 0.47164(12)
C26_3 C 0.94712(9) 0.6415(3) 0.49564(11)
H16_2 H 0.937393 0.649175 0.534721
C27_4 C 0.93435(8) 0.4959(3) 0.46198(10)
H17_4 H 0.916328 0.406011 0.479249
C28_2 C 0.98660(10) 0.9332(4) 0.50764(11)
H18_2 H 0.973810 0.937070 0.545369
O10_4 O 0.99454(9) 0.2080(3) 0.32958(11)
H30_2 H 0.993091 0.104405 0.302559
N2_4 N 0.74973(7) 0.6848(3) 0.94286(8)
C2_4 C 0.84804(8) 0.1300(3) 0.93055(11)
C3_4 C 0.83044(9) 0.1417(3) 0.98680(11)
C5_4 C 0.80228(8) 0.4393(3) 0.96868(9)
C6_4 C 0.81901(9) 0.4261(3) 0.91153(10)
H3_4 H 0.814532 0.520486 0.885410
C7_4 C 0.84235(11) 0.2741(3) 0.89267(12)
H4_4 H 0.854242 0.268575 0.854512
C8_4 C 0.77636(8) 0.6022(3) 0.98693(9)
C9_4 C 0.72362(8) 0.8277(3) 0.95469(9)
C10_4 C 0.69321(8) 0.8995(3) 0.90338(9)
C11_4 C 0.64178(9) 0.9022(4) 0.90426(10)
H5_4 H 0.626239 0.864201 0.938102
C12_4 C 0.61292(9) 0.9604(4) 0.85579(10)
H6_4 H 0.578220 0.961633 0.857478
C15_4 C 0.71556(9) 0.9527(4) 0.85190(10)
H8_4 H 0.750237 0.948690 0.850082
C17_4 C 0.52639(9) 0.8926(3) 0.61799(11)
H9_4 H 0.517268 0.903382 0.657224
C18_4 C 0.51185(11) 0.7452(3) 0.58654(14)
H10_3 H 0.492658 0.659527 0.604320
C19_4 C 0.52558(10) 0.7231(3) 0.52836(12)
C20_4 C 0.55288(9) 0.8585(3) 0.50436(11)
H11_3 H 0.562607 0.850825 0.465279
C22_3 C 0.51340(10) 0.5668(4) 0.49236(11)
H13_3 H 0.526190 0.562930 0.454631
C23_4 C 0.47361(9) 0.1074(3) 0.38201(11)
H14_4 H 0.482732 0.096618 0.342776
C24_4 C 0.48815(11) 0.2548(3) 0.41346(14)
H15_3 H 0.507342 0.340473 0.395680
C25_4 C 0.47442(10) 0.2769(3) 0.47164(12)
C26_4 C 0.44712(9) 0.1415(3) 0.49564(11)
H16_3 H 0.437393 0.149175 0.534721
C28_3 C 0.48660(10) 0.4332(4) 0.50764(11)
H18_3 H 0.473810 0.437070 0.545369
N4_4 N 0.25027(7) 0.3152(3) 0.05714(8)
C30_4 C 0.15196(8) 0.8700(3) 0.06945(11)
C31_4 C 0.16956(9) 0.8583(3) 0.01320(11)
C33_4 C 0.19772(8) 0.5607(3) 0.03132(9)
C34_4 C 0.18099(9) 0.5739(3) 0.08847(10)
H21_4 H 0.185468 0.479514 0.114590
C35_4 C 0.15765(11) 0.7259(3) 0.10733(12)
H22_4 H 0.145758 0.731425 0.145488
C36_4 C 0.22364(8) 0.3978(3) 0.01307(9)
C37_4 C 0.27638(8) 0.1723(3) 0.04531(9)
C38_4 C 0.30679(8) 0.1005(3) 0.09662(9)
C39_4 C 0.35822(9) 0.0978(4) 0.09574(10)
H23_4 H 0.373761 0.135799 0.061898
C40_4 C 0.38708(9) 0.0396(4) 0.14421(10)
H24_4 H 0.421780 0.038367 0.142522
C43_4 C 0.28444(9) 0.0473(4) 0.14810(10)
H26_4 H 0.249763 0.051310 0.149918
H10_4 H 0.007342 0.159527 0.895680
H27_3 H 0.00909825 0.689994 0.808782
H29_3 H 0.0157826 0.820431 0.865733
H16_4 H 0.062607 0.649175 0.965279
C28_4 C 0.01340(10) 0.9332(4) 0.99236(11)
H18_4 H 0.026190 0.937070 0.954631
H11_4 H 0.937393 0.350825 0.034721
C22_4 C 0.98660(10) 0.0668(4) 0.00764(11)
H13_4 H 0.973810 0.062930 0.045369
H15_4 H 0.992658 0.840473 0.104320
H29_4 H 0.984217 0.179569 0.134267
H27_4 H 0.990902 0.310006 0.191218
loop_
_geom_bond_atom_site_label_1
_geom_bond_atom_site_label_2
_geom_bond_site_symmetry_1
_geom_bond_site_symmetry_2
Zn1 N1 1_555 1_555
O1 Zn1 1_555 1_555
O2 C16 1_555 1_555
O5 Zn1 1_555 1_555
C14 C13 1_555 1_555
H7 C14 1_555 1_555
C16 O1 1_555 1_555
C21 N1 1_555 1_555
H12 C21 1_555 1_555
O8 C29 1_555 1_555
O9 C29 1_555 1_555
C29 C30 1_555 1_555
C30 C31 1_555 1_555
C31 H19 1_555 1_555
C32 C31 1_555 1_555
H20 C32 1_555 1_555
C33 C32 1_555 1_555
C34 C33 1_555 1_555
C35 C30 1_555 1_555
H22 C35 1_555 1_555
Zn4 O8 1_555 1_555
O12 Zn1 1_555 1_555
C13 C16 1_555 1_555
C34 C35 1_555 1_555
H13 C22 1_555 1_555
C23 H14 1_555 1_555
C24 C23 1_555 1_555
H15 C24 1_555 1_555
C25 C24 1_555 1_555
C26 C25 1_555 1_555
O3 C1 1_555 1_555
O4 C1 1_555 1_555
C27 N3 1_555 1_555
H17 C27 1_555 1_555
Zn4 N3 1_555 1_555
O10 Zn4 1_555 1_555
Zn3 O3 1_555 1_555
O11 Zn4 1_555 1_555
Zn3 N1_2 1_555 1_555
N1_2 C17 1_555 1_555
N2 C8 1_555 1_555
O1_2 Zn3 1_555 1_555
O2_2 C16_2 1_555 1_555
O5_2 Zn3 1_555 1_555
C9 N2 1_555 1_555
C10 C9 1_555 1_555
C11 C10 1_555 1_555
H5 C11 1_555 1_555
C12 C11 1_555 1_555
H6 C12 1_555 1_555
C13_2 C12 1_555 1_555
C14_2 C13_2 1_555 1_555
H7_2 C14_2 1_555 1_555
C15 C10 1_555 1_555
H8 C15 1_555 1_555
C16_2 O1_2 1_555 1_555
C17 H9 1_555 1_555
C18 C17 1_555 1_555
C19 C18 1_555 1_555
C20 C19 1_555 1_555
C21_2 N1_2 1_555 1_555
H12_2 C21_2 1_555 1_555
N4 C36 1_555 1_555
C30_2 C31_2 1_555 1_555
C31_2 H19_2 1_555 1_555
C32_2 C31_2 1_555 1_555
H20_2 C32_2 1_555 1_555
C33_2 C32_2 1_555 1_555
C34_2 C33_2 1_555 1_555
H21 C34_2 1_555 1_555
C35_2 C30_2 1_555 1_555
H22_2 C35_2 1_555 1_555
C36 C9 1_555 1_555
C37 C8 1_555 1_555
C38 C37 1_555 1_555
C39 C38 1_555 1_555
H23 C39 1_555 1_555
C40 C39 1_555 1_555
H24 C40 1_555 1_555
C43 C38 1_555 1_555
H26 C43 1_555 1_555
C13_2 C16_2 1_555 1_555
C14_2 C15 1_555 1_555
C20 C21_2 1_555 1_555
N4 C37 1_555 1_555
C33_2 C36 1_555 1_555
C34_2 C35_2 1_555 1_555
O5_2 H28 1_555 1_555
H2 C4 1_555 1_555
O11 C44 1_555 1_555
O7 C44 1_555 1_555
C42 C41 1_555 1_555
H25 C42 1_555 1_555
C44 C41 1_555 1_555
O12 C1_2 1_555 1_555
O4_2 C1_2 1_555 1_555
C1_2 C2 1_555 1_555
C2 C3 1_555 1_555
C6 C5 1_555 1_555
C7 C2 1_555 1_555
H4 C7 1_555 1_555
C6 C7 1_555 1_555
N2_2 C8_2 1_555 1_555
C2_2 C3_2 1_555 1_555
C3_2 H1_2 1_555 1_555
C4_2 C3_2 1_555 1_555
H2_2 C4_2 1_555 1_555
C5_2 C4_2 1_555 1_555
C6_2 C5_2 1_555 1_555
H3_2 C6_2 1_555 1_555
C7_2 C2_2 1_555 1_555
H4_2 C7_2 1_555 1_555
C8_2 C5_2 1_555 1_555
C9_2 N2_2 1_555 1_555
C10_2 C9_2 1_555 1_555
C11_2 C10_2 1_555 1_555
H5_2 C11_2 1_555 1_555
C12_2 C11_2 1_555 1_555
H6_2 C12_2 1_555 1_555
C15_2 C10_2 1_555 1_555
H8_2 C15_2 1_555 1_555
C17_2 H9_2 1_555 1_555
C18_2 C17_2 1_555 1_555
H10 C18_2 1_555 1_555
C19_2 C18_2 1_555 1_555
C20_2 C19_2 1_555 1_555
H18 C28 1_555 1_555
N4_2 C36_2 1_555 1_555
O6 C44_2 1_555 1_555
O7_2 C44_2 1_555 1_555
C36_2 C9_2 1_555 1_555
C37_2 C8_2 1_555 1_555
C38_2 C37_2 1_555 1_555
C39_2 C38_2 1_555 1_555
H23_2 C39_2 1_555 1_555
C40_2 C39_2 1_555 1_555
H24_2 C40_2 1_555 1_555
C41_2 C40_2 1_555 1_555
C42_2 C41_2 1_555 1_555
H25_2 C42_2 1_555 1_555
C43_2 C38_2 1_555 1_555
H26_2 C43_2 1_555 1_555
C44_2 C41_2 1_555 1_555
Zn5 O6 1_555 1_555
C6_2 C7_2 1_555 1_555
N4_2 C37_2 1_555 1_555
C42_2 C43_2 1_555 1_555
C27_2 N3_2 1_555 1_555
H17_2 C27_2 1_555 1_555
Zn2 N3_2 1_555 1_555
O10_2 Zn2 1_555 1_555
O11_2 Zn2 1_555 1_555
O13 Zn2 1_555 1_555
O13 C29_2 1_555 1_555
O9_2 C29_2 1_555 1_555
C29_2 C30_3 1_555 1_555
C30_3 C31_3 1_555 1_555
C34_3 C33_3 1_555 1_555
C35_3 C30_3 1_555 1_555
H22_3 C35_3 1_555 1_555
C34_3 C35_3 1_555 1_555
Zn1_2 N1_3 1_555 1_555
O1_3 Zn1_2 1_555 1_555
O2_3 C16_3 1_555 1_555
O5_3 Zn1_2 1_555 1_555
C14_3 C13_3 1_555 1_555
H7_3 C14_3 1_555 1_555
C16_3 O1_3 1_555 1_555
C21_3 N1_3 1_555 1_555
H12_3 C21_3 1_555 1_555
H20_3 C32_3 1_555 1_555
O12_2 Zn1_2 1_555 1_555
C13_3 C16_3 1_555 1_555
N3_3 C23_2 1_555 1_555
C23_2 H14_2 1_555 1_555
C24_2 C23_2 1_555 1_555
C25_2 C24_2 1_555 1_555
C26_2 C25_2 1_555 1_555
C27_3 N3_3 1_555 1_555
H17_3 C27_3 1_555 1_555
Zn5 N3_3 1_555 1_555
O10_3 Zn5 1_555 1_555
O13_2 Zn5 1_555 1_555
C26_2 C27_3 1_555 1_555
O10_3 H30 1_555 1_555
O12_2 C1_3 1_555 1_555
O4_3 C1_3 1_555 1_555
C1_3 C2_3 1_555 1_555
C2_3 C3_3 1_555 1_555
C3_3 H1_3 1_555 1_555
C4_3 C3_3 1_555 1_555
H2_3 C4_3 1_555 1_555
C5_3 C4_3 1_555 1_555
C6_3 C5_3 1_555 1_555
C7_3 C2_3 1_555 1_555
H4_3 C7_3 1_555 1_555
O11_2 C44_3 1_555 1_555
O7_3 C44_3 1_555 1_555
C42_3 C41_3 1_555 1_555
H25_3 C42_3 1_555 1_555
C44_3 C41_3 1_555 1_555
C6_3 C7_3 1_555 1_555
O13_2 C29_3 1_555 1_555
O9_3 C29_3 1_555 1_555
O3_2 C1_4 1_555 1_555
O4_4 C1_4 1_555 1_555
Zn3_2 O3_2 1_555 1_555
Zn3_2 N1_4 1_555 1_555
N1_4 C17_3 1_555 1_555
N2_3 C8_3 1_555 1_555
O1_4 Zn3_2 1_555 1_555
O2_4 C16_4 1_555 1_555
O5_4 Zn3_2 1_555 1_555
C9_3 N2_3 1_555 1_555
C10_3 C9_3 1_555 1_555
C11_3 C10_3 1_555 1_555
H5_3 C11_3 1_555 1_555
C12_3 C11_3 1_555 1_555
H6_3 C12_3 1_555 1_555
C13_4 C12_3 1_555 1_555
C14_4 C13_4 1_555 1_555
H7_4 C14_4 1_555 1_555
C15_3 C10_3 1_555 1_555
H8_3 C15_3 1_555 1_555
C16_4 O1_4 1_555 1_555
C17_3 H9_3 1_555 1_555
C18_3 C17_3 1_555 1_555
C19_3 C18_3 1_555 1_555
C20_3 C19_3 1_555 1_555
H11_2 C20_3 1_555 1_555
C21_4 N1_4 1_555 1_555
H12_4 C21_4 1_555 1_555
C22_2 C19_3 1_555 1_555
H13_2 C22_2 1_555 1_555
H20_4 C32_4 1_555 1_555
C13_4 C16_4 1_555 1_555
C14_4 C15_3 1_555 1_555
C20_3 C21_4 1_555 1_555
O5_4 H28_2 1_555 1_555
H2_4 C4_4 1_555 1_555
N4_3 C36_3 1_555 1_555
O6_2 C44_4 1_555 1_555
O7_4 C44_4 1_555 1_555
C38_3 C37_3 1_555 1_555
C39_3 C38_3 1_555 1_555
H23_3 C39_3 1_555 1_555
C40_3 C39_3 1_555 1_555
H24_3 C40_3 1_555 1_555
C41_4 C40_3 1_555 1_555
C42_4 C41_4 1_555 1_555
H25_4 C42_4 1_555 1_555
C43_3 C38_3 1_555 1_555
H26_3 C43_3 1_555 1_555
C44_4 C41_4 1_555 1_555
Zn5_2 O6_2 1_555 1_555
N4_3 C37_3 1_555 1_555
C42_4 C43_3 1_555 1_555
O8_2 C29_4 1_555 1_555
O9_4 C29_4 1_555 1_555
Zn5_2 O8_2 1_555 1_555
N3_4 C23_3 1_555 1_555
C23_3 H14_3 1_555 1_555
C24_3 C23_3 1_555 1_555
C25_3 C24_3 1_555 1_555
C26_3 C25_3 1_555 1_555
H16_2 C26_3 1_555 1_555
C27_4 N3_4 1_555 1_555
H17_4 C27_4 1_555 1_555
H18_2 C28_2 1_555 1_555
Zn5_2 N3_4 1_555 1_555
O10_4 Zn5_2 1_555 1_555
C25_3 C28_2 1_555 1_555
C26_3 C27_4 1_555 1_555
O10_4 H30_2 1_555 1_555
N2_4 C8_4 1_555 1_555
C2_4 C3_4 1_555 1_555
C6_4 C5_4 1_555 1_555
H3_4 C6_4 1_555 1_555
C7_4 C2_4 1_555 1_555
H4_4 C7_4 1_555 1_555
C8_4 C5_4 1_555 1_555
C9_4 N2_4 1_555 1_555
C10_4 C9_4 1_555 1_555
C11_4 C10_4 1_555 1_555
H5_4 C11_4 1_555 1_555
C12_4 C11_4 1_555 1_555
H6_4 C12_4 1_555 1_555
C15_4 C10_4 1_555 1_555
H8_4 C15_4 1_555 1_555
C17_4 H9_4 1_555 1_555
C18_4 C17_4 1_555 1_555
H10_3 C18_4 1_555 1_555
C19_4 C18_4 1_555 1_555
C20_4 C19_4 1_555 1_555
H11_3 C20_4 1_555 1_555
C22_3 C19_4 1_555 1_555
H13_3 C22_3 1_555 1_555
C23_4 H14_4 1_555 1_555
C24_4 C23_4 1_555 1_555
H15_3 C24_4 1_555 1_555
C25_4 C24_4 1_555 1_555
C26_4 C25_4 1_555 1_555
H16_3 C26_4 1_555 1_555
C28_3 C22_3 1_555 1_555
H18_3 C28_3 1_555 1_555
C6_4 C7_4 1_555 1_555
C25_4 C28_3 1_555 1_555
N4_4 C36_4 1_555 1_555
C30_4 C31_4 1_555 1_555
C34_4 C33_4 1_555 1_555
H21_4 C34_4 1_555 1_555
C35_4 C30_4 1_555 1_555
H22_4 C35_4 1_555 1_555
C38_4 C37_4 1_555 1_555
C39_4 C38_4 1_555 1_555
H23_4 C39_4 1_555 1_555
C40_4 C39_4 1_555 1_555
H24_4 C40_4 1_555 1_555
C43_4 C38_4 1_555 1_555
H26_4 C43_4 1_555 1_555
N4_4 C37_4 1_555 1_555
C33_4 C36_4 1_555 1_555
C34_4 C35_4 1_555 1_555
H18_4 C28_4 1_555 1_555
H13_4 C22_4 1_555 1_555

#END
