
###############################################################################
#
# This file contains modified crystal structure data generated from the
# MOF subset of the Cambridge Structural Database (CSD) v543 
# hosted by the Cambridge Crystallographic Data Centre (CCDC).
#
# This work is licensed under the Creative Commons
# Attribution-NonCommercial-ShareAlike 4.0 International License.
# To view a copy of this license, visit
# http://creativecommons.org/licenses/by-nc-sa/4.0/
# or send a letter to
# Creative Commons, PO Box 1866, Mountain View, CA 94042, USA.
#
# CIF created using the CSD Python API on 29 September 2022
# The structure has been converted into the P1 space group
# The structure has a 3D framework
# The original CSD entry EBUQIB is in the monoclinic crystal system
# The framework has been calculated to contain at least 10.0% void space
# The void calculation uses a probe of radius 1.32A, grid spacing 0.4
# H atom positions have been added when not included in the experimental data
#
###############################################################################

data_EBUQIB
_chemical_formula_moiety         '(C384 H240 N32 Na8 O72 Zn8)n'
_symmetry_cell_setting           triclinic
_symmetry_space_group_name_H-M   'P 1'
_symmetry_Int_Tables_number      1
_space_group_name_Hall           'P 1'
loop_
_symmetry_equiv_pos_site_id
_symmetry_equiv_pos_as_xyz
1 x,y,z
_cell_length_a                   10.8640(7)
_cell_length_b                   21.5620(11)
_cell_length_c                   45.165(3)
_cell_angle_alpha                90
_cell_angle_beta                 93.858(2)
_cell_angle_gamma                90
_cell_volume                     10555.9
loop_
_atom_site_label
_atom_site_type_symbol
_atom_site_fract_x
_atom_site_fract_y
_atom_site_fract_z
Na7 Na 0.12328(15) 0.72647(7) 0.87765(4)
C77 C 0.5001(4) 0.2468(2) 0.00793(10)
H40 H 0.5817 0.2336 0.0097
C78 C 0.4354(4) 0.2571(2) 0.03327(11)
H41 H 0.4739 0.2496 0.0519
C79 C 0.3146(4) 0.27820(19) 0.03087(9)
C80 C 0.2578(4) 0.2886(2) 0.00294(10)
H42 H 0.1771 0.3031 0.0009
C82 C 0.2513(4) 0.2919(2) 0.05840(10)
O12 O 0.2988(3) 0.29124(15) 0.08271(6)
O13 O 0.1319(3) 0.30981(14) 0.05252(7)
H44 H 0.0967 0.3233 0.0702
Na8 Na 0.37322(15) 0.28387(7) 0.13108(4)
N1 N 0.1812(3) 0.28052(13) 0.83983(8)
N2 N 0.0751(3) 0.30000(14) 0.89611(7)
N4 N 0.1128(3) 0.15190(14) 0.84074(8)
C1 C 0.1717(4) 0.15094(17) 0.81569(9)
C2 C 0.2197(4) 0.20258(18) 0.80184(9)
C3 C 0.2205(4) 0.26361(18) 0.81269(10)
C4 C 0.2720(4) 0.31538(18) 0.79926(10)
H1 H 0.3063 0.3158 0.7809
C5 C 0.2632(4) 0.3639(2) 0.81735(11)
H2 H 0.2890 0.4042 0.8139
C6 C 0.2067(4) 0.34215(17) 0.84301(10)
C7 C 0.1898(4) 0.37707(16) 0.86865(10)
C8 C 0.1311(4) 0.35650(17) 0.89336(10)
C9 C 0.1229(4) 0.38976(18) 0.92064(10)
H3 H 0.1554 0.4289 0.9249
C10 C 0.0608(4) 0.35501(17) 0.93890(9)
H4 H 0.0423 0.3653 0.9581
C11 C 0.0276(4) 0.29821(19) 0.92328(10)
C18 C 0.0722(4) 0.09243(17) 0.84555(10)
C19 C 0.1083(4) 0.05336(18) 0.82168(9)
H7 H 0.0920 0.0112 0.8193
C20 C 0.1705(4) 0.08991(18) 0.80342(10)
H8 H 0.2058 0.0776 0.7862
C21 C 0.2819(4) 0.19313(19) 0.77293(9)
C22 C 0.2200(4) 0.20715(19) 0.74592(10)
H9 H 0.1391 0.2214 0.7454
C23 C 0.2780(4) 0.20009(19) 0.71930(10)
H10 H 0.2351 0.2092 0.7013
C24 C 0.3958(4) 0.18021(18) 0.71966(9)
C25 C 0.4601(4) 0.1661(2) 0.74632(10)
H11 H 0.5413 0.1523 0.7467
C26 C 0.4013(4) 0.1729(2) 0.77267(11)
H12 H 0.4445 0.1635 0.7906
C27 C 0.4582(4) 0.17501(17) 0.69113(10)
O1 O 0.4033(3) 0.18211(13) 0.66791(6)
O2 O 0.5767(3) 0.16140(13) 0.69503(7)
H13 H 0.6076 0.1632 0.6759
C28 C 0.2375(4) 0.44313(19) 0.86934(10)
C29 C 0.1579(4) 0.49391(18) 0.87240(10)
H14 H 0.0736 0.4872 0.8732
C30 C 0.2038(4) 0.55312(17) 0.87427(10)
H15 H 0.1511 0.5863 0.8769
C31 C 0.3279(4) 0.56329(17) 0.87221(9)
C32 C 0.4066(4) 0.51381(18) 0.86829(10)
H16 H 0.4895 0.5214 0.8659
C33 C 0.3653(4) 0.45512(19) 0.86790(10)
H17 H 0.4205 0.4224 0.8667
C34 C 0.3771(4) 0.62867(19) 0.87316(9)
O3 O 0.4782(3) 0.63974(12) 0.86238(6)
O4 O 0.3194(2) 0.66996(11) 0.88735(6)
H18 H 0.0133 0.1842 0.9845
Zn1 Zn 0.09839(5) 0.22489(2) 0.869457(12)
O9 O 0.2759(3) 0.19497(16) 0.89612(8)
N5 N 0.6223(3) 0.29752(16) 0.91480(8)
N6 N 0.5554(3) 0.16773(14) 0.91560(8)
N7 N 0.6493(3) 0.15157(14) 0.85786(8)
N8 N 0.7379(3) 0.27724(14) 0.85966(7)
C49 C 0.7736(4) 0.33790(19) 0.86483(9)
C50 C 0.7345(4) 0.37506(17) 0.88739(9)
C51 C 0.6598(4) 0.35766(16) 0.90960(9)
C52 C 0.6095(4) 0.39589(18) 0.93133(10)
H28 H 0.6180 0.4388 0.9324
C53 C 0.5484(4) 0.36177(19) 0.94999(11)
H29 H 0.5096 0.3755 0.9665
C54 C 0.5551(4) 0.29829(19) 0.93901(10)
C55 C 0.5076(4) 0.2444(2) 0.95288(10)
C56 C 0.5118(5) 0.18399(18) 0.94233(10)
C57 C 0.4558(5) 0.13234(19) 0.95585(10)
H30 H 0.4196 0.1323 0.9739
C58 C 0.4658(4) 0.08182(19) 0.93682(9)
H31 H 0.4390 0.0415 0.9398
C59 C 0.5262(4) 0.10521(19) 0.91166(11)
C60 C 0.5354(4) 0.07331(18) 0.88517(10)
C61 C 0.5894(4) 0.09521(19) 0.85965(10)
C62 C 0.5889(4) 0.0635(2) 0.83152(9)
H32 H 0.5501 0.0260 0.8268
C63 C 0.6537(4) 0.09751(17) 0.81366(10)
H33 H 0.6719 0.0876 0.7944
C64 C 0.6909(4) 0.15307(17) 0.82995(9)
C65 C 0.7619(4) 0.20053(19) 0.81987(9)
C66 C 0.7892(4) 0.25864(18) 0.83460(10)
C67 C 0.8681(4) 0.30697(18) 0.82403(10)
H34 H 0.9160 0.3050 0.8077
C68 C 0.8581(4) 0.35485(19) 0.84244(9)
H35 H 0.8983 0.3927 0.8412
C69 C 0.7689(4) 0.44244(17) 0.88641(9)
C70 C 0.7343(4) 0.47822(17) 0.86145(10)
H36 H 0.6880 0.4602 0.8456
C71 C 0.7674(4) 0.53971(18) 0.85979(9)
H37 H 0.7402 0.5632 0.8434
C72 C 0.8402(4) 0.56650(17) 0.88225(9)
C73 C 0.8770(4) 0.53241(18) 0.90729(9)
H38 H 0.9249 0.5506 0.9228
C74 C 0.8411(4) 0.47013(18) 0.90902(10)
H39 H 0.8664 0.4470 0.9257
C75 C 0.8841(4) 0.6334(2) 0.88025(9)
O10 O 0.8340(2) 0.66620(11) 0.85960(6)
O11 O 0.9690(3) 0.65304(12) 0.89812(6)
C76 C 0.4413(4) 0.25667(18) 0.98060(9)
C81 C 0.3224(4) 0.2770(2) 0.97806(11)
H43 H 0.2837 0.2833 0.9593
C83 C 0.4890(4) 0.00646(18) 0.88367(10)
H48 H 0.3405 0.0220 0.8556
C90 C 0.8109(4) 0.19325(18) 0.78947(9)
C91 C 0.7739(4) 0.23688(17) 0.76735(9)
H50 H 0.7268 0.2711 0.7720
C92 C 0.8089(4) 0.22806(18) 0.73855(9)
H51 H 0.7857 0.2568 0.7239
C93 C 0.8771(4) 0.17741(18) 0.73165(9)
C94 C 0.9133(4) 0.13420(19) 0.75369(10)
H52 H 0.9618 0.1004 0.7492
C95 C 0.8766(4) 0.14219(19) 0.78189(10)
H53 H 0.8968 0.1122 0.7962
C96 C 0.9090(4) 0.1696(2) 0.70035(10)
O16 O 0.8836(3) 0.20894(14) 0.68173(7)
O17 O 0.9693(3) 0.11821(12) 0.69395(6)
H54 H 0.9880 0.1261 0.6740
Zn2 Zn 0.63163(5) 0.22471(2) 0.885532(12)
O18 O 0.4514(3) 0.25609(17) 0.86091(9)
Na1 Na 0.62678(15) 0.71613(7) 0.86892(4)
Na2 Na 0.37672(15) 0.22647(7) 0.62235(4)
Na10 Na 0.87322(15) 0.21613(7) 0.63108(4)
O19 O 0.7328(3) 0.80704(12) 0.86370(7)
O20 O 0.7012(3) 0.70876(15) 0.91729(6)
O21 O 0.4358(3) 0.77606(12) 0.88769(6)
O22 O 0.6164(3) 0.70894(14) 0.81827(7)
O23 O 0.1806(2) 0.16996(11) 0.61265(6)
O24 O 0.3358(3) 0.25284(13) 0.57348(7)
O25 O 0.5741(3) 0.27680(12) 0.63284(7)
O26 O 0.5310(3) 0.15304(12) 0.60188(6)
O27 O 0.2438(3) 0.30829(12) 0.63507(7)
H55 H 0.3930 0.7376 0.8876
H56 H 0.6085 0.2366 0.6357
H57 H 0.3186 0.232141 0.904777
H58 H 0.254891 0.166505 0.912312
H59 H 0.461579 0.298748 0.853157
H60 H 0.430238 0.227409 0.844132
H61 H 0.399286 0.807308 0.873533
H62 H 0.579054 0.303441 0.650814
C43 C 0.0418(5) 0.96108(19) 0.87805(14)
H23 H 0.1221 0.9706 0.8850
C44 C 0.0035(5) 0.8999(2) 0.87700(14)
H24 H 0.0603 0.8693 0.8828
C84 C 0.5533(4) 0.96011(19) 0.89854(10)
H45 H 0.6240 0.9698 0.9104
C85 C 0.5136(4) 0.8970(2) 0.89608(10)
H46 H 0.5582 0.8653 0.9058
C86 C 0.4097(4) 0.88516(18) 0.87934(10)
C87 C 0.3420(5) 0.93045(18) 0.86348(12)
H47 H 0.2714 0.9205 0.8516
C88 C 0.3840(4) 0.9908(2) 0.86605(12)
C89 C 0.3595(4) 0.81801(19) 0.87618(10)
O15 O 0.2562(3) 0.80829(12) 0.86493(7)
C37 C 0.9191(4) 0.22345(18) 0.01674(10)
H19 H 0.9440 0.1957 0.0317
C38 C 0.8420(4) 0.27241(18) 0.02250(9)
H20 H 0.7545 0.3467 0.0040
C41 C 0.8057(4) 0.28185(19) 0.05339(9)
O5 O 0.8358(3) 0.24716(13) 0.07348(7)
O6 O 0.7365(3) 0.33339(13) 0.05677(6)
H22 H 0.7162 0.3321 0.0769
Na4 Na 0.87672(15) 0.27353(7) 0.12235(4)
C45 C 0.8903(4) 0.88282(18) 0.86812(9)
C46 C 0.8088(5) 0.92782(19) 0.86042(13)
H25 H 0.7269 0.9180 0.8551
C47 C 0.8481(5) 0.9895(2) 0.86055(14)
C48 C 0.8394(4) 0.81854(16) 0.86602(9)
O8 O 0.9259(3) 0.77680(12) 0.86716(7)
H27 H 0.8915 0.7366 0.8643
H11_2 H 0.0413 0.3477 0.2467
O2_2 O 0.0767(3) 0.33860(13) 0.19503(7)
H13_2 H 0.1076 0.3368 0.1759
N5_2 N 0.1223(3) 0.20248(16) 0.41480(8)
N6_2 N 0.0554(3) 0.33227(14) 0.41560(8)
N7_2 N 0.1493(3) 0.34843(14) 0.35786(8)
N8_2 N 0.2379(3) 0.22276(14) 0.35966(7)
C49_2 C 0.2736(4) 0.16210(19) 0.36483(9)
C50_2 C 0.2345(4) 0.12494(17) 0.38739(9)
C51_2 C 0.1598(4) 0.14234(16) 0.40960(9)
C52_2 C 0.1095(4) 0.10411(18) 0.43133(10)
H28_2 H 0.1180 0.0612 0.4324
C53_2 C 0.0484(4) 0.13823(19) 0.44999(11)
H29_2 H 0.0096 0.1245 0.4665
C54_2 C 0.0551(4) 0.20171(19) 0.43901(10)
C55_2 C 0.0076(4) 0.2556(2) 0.45288(10)
C56_2 C 0.0118(5) 0.31601(18) 0.44233(10)
C59_2 C 0.0262(4) 0.39479(19) 0.41166(11)
C60_2 C 0.0354(4) 0.42669(18) 0.38517(10)
C61_2 C 0.0894(4) 0.40479(19) 0.35965(10)
C62_2 C 0.0889(4) 0.4365(2) 0.33152(9)
H32_2 H 0.0501 0.4740 0.3268
C63_2 C 0.1537(4) 0.40249(17) 0.31366(10)
H33_2 H 0.1719 0.4124 0.2944
C64_2 C 0.1909(4) 0.34693(17) 0.32995(9)
C65_2 C 0.2619(4) 0.29947(19) 0.31987(9)
C66_2 C 0.2892(4) 0.24136(18) 0.33460(10)
C67_2 C 0.3681(4) 0.19303(18) 0.32403(10)
H34_2 H 0.4160 0.1950 0.3077
C68_2 C 0.3581(4) 0.14515(19) 0.34244(9)
H35_2 H 0.3983 0.1073 0.3412
C69_2 C 0.2689(4) 0.05756(17) 0.38641(9)
C70_2 C 0.2343(4) 0.02178(17) 0.36145(10)
H36_2 H 0.1880 0.0398 0.3456
C74_2 C 0.3411(4) 0.02987(18) 0.40902(10)
H39_2 H 0.3664 0.0530 0.4257
C77_2 C 0.0001(4) 0.2532(2) 0.50793(10)
H40_2 H 0.0817 0.2664 0.5097
C84_2 C 0.0533(4) 0.53989(19) 0.39854(10)
H45_2 H 0.1240 0.5302 0.4104
C85_2 C 0.0136(4) 0.6030(2) 0.39608(10)
H46_2 H 0.0582 0.6347 0.4058
C90_2 C 0.3109(4) 0.30675(18) 0.28947(9)
C91_2 C 0.2739(4) 0.26312(17) 0.26735(9)
H50_2 H 0.2268 0.2289 0.2720
C92_2 C 0.3089(4) 0.27194(18) 0.23855(9)
H51_2 H 0.2857 0.2432 0.2239
C93_2 C 0.3771(4) 0.32259(18) 0.23165(9)
C94_2 C 0.4133(4) 0.36580(19) 0.25369(10)
H52_2 H 0.4618 0.3996 0.2492
C95_2 C 0.3766(4) 0.35781(19) 0.28189(10)
H53_2 H 0.3968 0.3878 0.2962
C96_2 C 0.4090(4) 0.3304(2) 0.20035(10)
O16_2 O 0.3836(3) 0.29106(14) 0.18173(7)
O17_2 O 0.4693(3) 0.38179(12) 0.19395(6)
H54_2 H 0.4880 0.3739 0.1740
Zn2_2 Zn 0.13163(5) 0.27529(2) 0.385532(12)
Na9 Na 0.12678(15) 0.78387(7) 0.36892(4)
O25_2 O 0.0741(3) 0.22320(12) 0.13284(7)
O26_2 O 0.0310(3) 0.34696(12) 0.10188(6)
H56_2 H 0.1085 0.2634 0.1357
H62_2 H 0.0790537 0.196559 0.150814
C71_2 C 0.2674(4) 0.96029(18) 0.35979(9)
H37_2 H 0.2402 0.9368 0.3434
C72_2 C 0.3402(4) 0.93350(17) 0.38225(9)
C73_2 C 0.3770(4) 0.96759(18) 0.40729(9)
H38_2 H 0.4249 0.9494 0.4228
C75_2 C 0.3841(4) 0.8666(2) 0.38025(9)
O10_2 O 0.3340(2) 0.83380(11) 0.35960(6)
O11_2 O 0.4690(3) 0.84696(12) 0.39812(6)
Na7_2 Na 0.62328(15) 0.77353(7) 0.37765(4)
O19_2 O 0.2328(3) 0.69296(12) 0.36370(7)
O20_2 O 0.2012(3) 0.79124(15) 0.41729(6)
O22_2 O 0.1164(3) 0.79106(14) 0.31827(7)
N1_2 N 0.6812(3) 0.21948(13) 0.33983(8)
N2_2 N 0.5751(3) 0.20000(14) 0.39611(7)
N3 N 0.4899(3) 0.32694(14) 0.39543(7)
N4_2 N 0.6128(3) 0.34810(14) 0.34074(8)
C1_2 C 0.6717(4) 0.34906(17) 0.31569(9)
C2_2 C 0.7197(4) 0.29742(18) 0.30184(9)
C3_2 C 0.7205(4) 0.23639(18) 0.31269(10)
C4_2 C 0.7720(4) 0.18462(18) 0.29926(10)
H1_2 H 0.8063 0.1842 0.2809
C5_2 C 0.7632(4) 0.1361(2) 0.31735(11)
H2_2 H 0.7890 0.0958 0.3139
C6_2 C 0.7067(4) 0.15785(17) 0.34301(10)
C7_2 C 0.6898(4) 0.12293(16) 0.36865(10)
C8_2 C 0.6311(4) 0.14350(17) 0.39336(10)
C9_2 C 0.6229(4) 0.11024(18) 0.42064(10)
H3_2 H 0.6554 0.0711 0.4249
C10_2 C 0.5608(4) 0.14499(17) 0.43890(9)
H4_2 H 0.5423 0.1347 0.4581
C11_2 C 0.5276(4) 0.20179(19) 0.42328(10)
C12 C 0.4616(4) 0.25177(18) 0.43512(9)
C13 C 0.4436(4) 0.30888(17) 0.42113(10)
C14 C 0.3734(4) 0.35903(18) 0.43234(10)
H5 H 0.3286 0.3578 0.4492
C15 C 0.3838(4) 0.40792(19) 0.41432(10)
H6 H 0.3481 0.4468 0.4164
C16 C 0.4603(4) 0.38893(16) 0.39124(9)
C17 C 0.4971(4) 0.42698(18) 0.36837(10)
C18_2 C 0.5722(4) 0.40757(17) 0.34555(10)
C19_2 C 0.6083(4) 0.44664(18) 0.32168(9)
H7_2 H 0.5920 0.4888 0.3193
C20_2 C 0.6705(4) 0.41009(18) 0.30342(10)
H8_2 H 0.7058 0.4224 0.2862
C21_2 C 0.7819(4) 0.30687(19) 0.27293(9)
C22_2 C 0.7200(4) 0.29285(19) 0.24592(10)
H9_2 H 0.6391 0.2786 0.2454
C23_2 C 0.7780(4) 0.29991(19) 0.21930(10)
H10_2 H 0.7351 0.2908 0.2013
C24_2 C 0.8958(4) 0.31979(18) 0.21966(9)
C25_2 C 0.9601(4) 0.3339(2) 0.24632(10)
C26_2 C 0.9013(4) 0.3271(2) 0.27267(11)
H12_2 H 0.9445 0.3365 0.2906
C27_2 C 0.9582(4) 0.32499(17) 0.19113(10)
O1_2 O 0.9033(3) 0.31789(13) 0.16791(6)
C28_2 C 0.7375(4) 0.05687(19) 0.36934(10)
C29_2 C 0.6579(4) 0.00609(18) 0.37240(10)
H14_2 H 0.5736 0.0128 0.3732
C33_2 C 0.8653(4) 0.04488(19) 0.36790(10)
H17_2 H 0.9205 0.0776 0.3667
C35 C 0.4169(4) 0.24283(19) 0.46511(9)
C36 C 0.4590(4) 0.2839(2) 0.48834(10)
H18_2 H 0.5133 0.3158 0.4845
C37_2 C 0.4191(4) 0.27655(18) 0.51674(10)
H19_2 H 0.4440 0.3043 0.5317
C38_2 C 0.3420(4) 0.22759(18) 0.52250(9)
C39 C 0.3046(4) 0.18676(19) 0.49992(10)
H20_2 H 0.2545 0.1533 0.5040
C40 C 0.3402(4) 0.1947(2) 0.47175(10)
H21 H 0.3123 0.1674 0.4569
C41_2 C 0.3057(4) 0.21815(19) 0.55339(9)
O6_2 O 0.2365(3) 0.16661(13) 0.55677(6)
H22_2 H 0.2162 0.1679 0.5769
C42 C 0.4630(4) 0.49268(18) 0.36904(10)
C43_2 C 0.5418(5) 0.53892(19) 0.37805(14)
H23_2 H 0.6221 0.5294 0.3850
C44_2 C 0.5035(5) 0.6001(2) 0.37700(14)
H24_2 H 0.5603 0.6307 0.3828
C45_2 C 0.3903(4) 0.61718(18) 0.36812(9)
C46_2 C 0.3088(5) 0.57218(19) 0.36042(13)
H25_2 H 0.2269 0.5820 0.3551
C47_2 C 0.3481(5) 0.5105(2) 0.36055(14)
H26 H 0.2913 0.4802 0.3544
C48_2 C 0.3394(4) 0.68146(16) 0.36602(9)
O8_2 O 0.4259(3) 0.72320(12) 0.36716(7)
H27_2 H 0.3915 0.7634 0.3643
Zn1_2 Zn 0.59839(5) 0.27511(2) 0.369457(12)
O9_2 O 0.7759(3) 0.30503(16) 0.39612(8)
C57_2 C 0.9558(5) 0.36766(19) 0.45585(10)
H30_2 H 0.9196 0.3677 0.4739
C58_2 C 0.9658(4) 0.41818(19) 0.43682(9)
H31_2 H 0.9390 0.4585 0.4398
C76_2 C 0.9413(4) 0.24333(18) 0.48060(9)
C78_2 C 0.9354(4) 0.2429(2) 0.53327(11)
H41_2 H 0.9739 0.2504 0.5519
C79_2 C 0.8146(4) 0.22180(19) 0.53087(9)
C80_2 C 0.7578(4) 0.2114(2) 0.50294(10)
H42_2 H 0.6771 0.1969 0.5009
C81_2 C 0.8224(4) 0.2230(2) 0.47806(11)
H43_2 H 0.7837 0.2167 0.4593
C82_2 C 0.7513(4) 0.2081(2) 0.55840(10)
O12_2 O 0.7988(3) 0.20876(15) 0.58271(6)
O13_2 O 0.6319(3) 0.19019(14) 0.55252(7)
H44_2 H 0.5967 0.1767 0.5702
C83_2 C 0.9890(4) 0.49354(18) 0.38367(10)
C86_2 C 0.9097(4) 0.61484(18) 0.37934(10)
C87_2 C 0.8420(5) 0.56955(18) 0.36348(12)
H47_2 H 0.7714 0.5795 0.3516
C88_2 C 0.8840(4) 0.5092(2) 0.36605(12)
H48_2 H 0.8405 0.4780 0.3556
C89_2 C 0.8595(4) 0.68199(19) 0.37618(10)
O14 O 0.9358(3) 0.72394(12) 0.38769(6)
H49 H 0.8930 0.7624 0.3876
O15_2 O 0.7562(3) 0.69171(12) 0.36493(7)
O18_2 O 0.9514(3) 0.24391(17) 0.36091(9)
O23_2 O 0.6806(2) 0.33004(11) 0.11265(6)
O27_2 O 0.7438(3) 0.19171(12) 0.13507(7)
H57_2 H 0.8186 0.267859 0.404777
H58_2 H 0.754891 0.333495 0.412312
H59_2 H 0.961579 0.201252 0.353157
H60_2 H 0.930238 0.272591 0.344132
C30_2 C 0.7038(4) 0.94688(17) 0.37427(10)
H15_2 H 0.6511 0.9137 0.3769
C31_2 C 0.8279(4) 0.93671(17) 0.37221(9)
C32_2 C 0.9066(4) 0.98619(18) 0.36829(10)
H16_2 H 0.9895 0.9786 0.3659
C34_2 C 0.8771(4) 0.87133(19) 0.37316(9)
O3_2 O 0.9782(3) 0.86026(12) 0.36238(6)
O4_2 O 0.8194(2) 0.83004(11) 0.38735(6)
H61_2 H 0.899286 0.692692 0.373533
C45_3 C 0.1097(4) 0.11718(18) 0.13188(9)
C46_3 C 0.1912(5) 0.07218(19) 0.13958(13)
H25_3 H 0.2731 0.0820 0.1449
C47_3 C 0.1519(5) 0.0105(2) 0.13945(14)
C48_3 C 0.1606(4) 0.18146(16) 0.13398(9)
O7 O 0.2672(3) 0.19296(12) 0.13630(7)
C37_3 C 0.0809(4) 0.77655(18) 0.98326(10)
H19_3 H 0.0560 0.8043 0.9683
C38_3 C 0.1580(4) 0.72759(18) 0.97750(9)
H20_3 H 0.2455 0.6533 0.9960
C41_3 C 0.1943(4) 0.71815(19) 0.94661(9)
O5_2 O 0.1642(3) 0.75284(13) 0.92652(7)
O6_3 O 0.2635(3) 0.66661(13) 0.94323(6)
H22_3 H 0.2838 0.6679 0.9231
C43_3 C 0.9582(5) 0.03892(19) 0.12195(14)
H23_3 H 0.8779 0.0294 0.1150
C44_3 C 0.9965(5) 0.1001(2) 0.12300(14)
H24_3 H 0.9397 0.1307 0.1172
C84_3 C 0.4467(4) 0.03989(19) 0.10146(10)
H45_3 H 0.3760 0.0302 0.0896
C85_3 C 0.4864(4) 0.1030(2) 0.10392(10)
H46_3 H 0.4418 0.1347 0.0942
C86_3 C 0.5903(4) 0.11484(18) 0.12066(10)
C87_3 C 0.6580(5) 0.06955(18) 0.13652(12)
H47_3 H 0.7286 0.0795 0.1484
C88_3 C 0.6160(4) 0.0092(2) 0.13395(12)
C89_3 C 0.6405(4) 0.18199(19) 0.12382(10)
O14_2 O 0.5642(3) 0.22394(12) 0.11231(6)
H49_2 H 0.6070 0.2624 0.1124
N1_3 N 0.8188(3) 0.71948(13) 0.16017(8)
N2_3 N 0.9249(3) 0.70000(14) 0.10389(7)
N4_3 N 0.8872(3) 0.84810(14) 0.15926(8)
C1_3 C 0.8283(4) 0.84906(17) 0.18431(9)
C2_3 C 0.7803(4) 0.79742(18) 0.19816(9)
C3_3 C 0.7795(4) 0.73639(18) 0.18731(10)
C4_3 C 0.7280(4) 0.68462(18) 0.20074(10)
H1_3 H 0.6937 0.6842 0.2191
C5_3 C 0.7368(4) 0.6361(2) 0.18265(11)
H2_3 H 0.7110 0.5958 0.1861
C6_3 C 0.7933(4) 0.65785(17) 0.15699(10)
C7_3 C 0.8102(4) 0.62293(16) 0.13135(10)
C8_3 C 0.8689(4) 0.64350(17) 0.10664(10)
C9_3 C 0.8771(4) 0.61024(18) 0.07936(10)
H3_3 H 0.8446 0.5711 0.0751
C10_3 C 0.9392(4) 0.64499(17) 0.06110(9)
H4_3 H 0.9577 0.6347 0.0419
C11_3 C 0.9724(4) 0.70179(19) 0.07672(10)
C18_3 C 0.9278(4) 0.90757(17) 0.15445(10)
C19_3 C 0.8917(4) 0.94664(18) 0.17832(9)
H7_3 H 0.9080 0.9888 0.1807
C20_3 C 0.8295(4) 0.91009(18) 0.19658(10)
H8_3 H 0.7942 0.9224 0.2138
C21_3 C 0.7181(4) 0.80687(19) 0.22707(9)
C22_3 C 0.7800(4) 0.79285(19) 0.25408(10)
H9_3 H 0.8609 0.7786 0.2546
C23_3 C 0.7220(4) 0.79991(19) 0.28070(10)
H10_3 H 0.7649 0.7908 0.2987
C24_3 C 0.6042(4) 0.81979(18) 0.28034(9)
C25_3 C 0.5399(4) 0.8339(2) 0.25368(10)
H11_3 H 0.4587 0.8477 0.2533
C26_3 C 0.5987(4) 0.8271(2) 0.22733(11)
H12_3 H 0.5555 0.8365 0.2094
C27_3 C 0.5418(4) 0.82499(17) 0.30887(10)
O1_3 O 0.5967(3) 0.81789(13) 0.33209(6)
O2_3 O 0.4233(3) 0.83860(13) 0.30497(7)
H13_3 H 0.3924 0.8368 0.3241
C28_3 C 0.7625(4) 0.55687(19) 0.13066(10)
C29_3 C 0.8421(4) 0.50609(18) 0.12760(10)
H14_3 H 0.9264 0.5128 0.1268
C30_3 C 0.7962(4) 0.44688(17) 0.12573(10)
H15_3 H 0.8489 0.4137 0.1231
C31_3 C 0.6721(4) 0.43671(17) 0.12779(9)
C32_3 C 0.5934(4) 0.48619(18) 0.13171(10)
H16_3 H 0.5105 0.4786 0.1341
C33_3 C 0.6347(4) 0.54488(19) 0.13210(10)
H17_3 H 0.5795 0.5776 0.1333
C34_3 C 0.6229(4) 0.37133(19) 0.12684(9)
O3_3 O 0.5218(3) 0.36026(12) 0.13762(6)
H18_3 H 0.9867 0.8158 0.0155
Zn1_3 Zn 0.90161(5) 0.77511(2) 0.130543(12)
O9_3 O 0.7241(3) 0.80503(16) 0.10388(8)
N5_3 N 0.3777(3) 0.70248(16) 0.08520(8)
N6_3 N 0.4446(3) 0.83227(14) 0.08440(8)
N7_3 N 0.3507(3) 0.84843(14) 0.14214(8)
N8_3 N 0.2621(3) 0.72276(14) 0.14034(7)
C49_3 C 0.2264(4) 0.66210(19) 0.13517(9)
C50_3 C 0.2655(4) 0.62494(17) 0.11261(9)
C51_3 C 0.3402(4) 0.64234(16) 0.09040(9)
C52_3 C 0.3905(4) 0.60411(18) 0.06867(10)
H28_3 H 0.3820 0.5612 0.0676
C53_3 C 0.4516(4) 0.63823(19) 0.05001(11)
H29_3 H 0.4904 0.6245 0.0335
C54_3 C 0.4449(4) 0.70171(19) 0.06099(10)
C55_3 C 0.4924(4) 0.7556(2) 0.04712(10)
C56_3 C 0.4882(5) 0.81601(18) 0.05767(10)
C57_3 C 0.5442(5) 0.86766(19) 0.04415(10)
H30_3 H 0.5804 0.8677 0.0261
C58_3 C 0.5342(4) 0.91818(19) 0.06318(9)
H31_3 H 0.5610 0.9585 0.0602
C59_3 C 0.4738(4) 0.89479(19) 0.08834(11)
C60_3 C 0.4646(4) 0.92669(18) 0.11483(10)
C61_3 C 0.4106(4) 0.90479(19) 0.14035(10)
C62_3 C 0.4111(4) 0.9365(2) 0.16848(9)
H32_3 H 0.4499 0.9740 0.1732
C63_3 C 0.3463(4) 0.90249(17) 0.18634(10)
H33_3 H 0.3281 0.9124 0.2056
C64_3 C 0.3091(4) 0.84693(17) 0.17005(9)
C65_3 C 0.2381(4) 0.79947(19) 0.18013(9)
C66_3 C 0.2108(4) 0.74136(18) 0.16540(10)
C67_3 C 0.1319(4) 0.69303(18) 0.17597(10)
H34_3 H 0.0840 0.6950 0.1923
C68_3 C 0.1419(4) 0.64515(19) 0.15756(9)
H35_3 H 0.1017 0.6073 0.1588
C69_3 C 0.2311(4) 0.55756(17) 0.11359(9)
C70_3 C 0.2657(4) 0.52178(17) 0.13855(10)
H36_3 H 0.3120 0.5398 0.1544
C71_3 C 0.2326(4) 0.46029(18) 0.14021(9)
H37_3 H 0.2598 0.4368 0.1566
C72_3 C 0.1598(4) 0.43350(17) 0.11775(9)
C73_3 C 0.1230(4) 0.46759(18) 0.09271(9)
H38_3 H 0.0751 0.4494 0.0772
C74_3 C 0.1589(4) 0.52987(18) 0.09098(10)
H39_3 H 0.1336 0.5530 0.0743
C75_3 C 0.1159(4) 0.3666(2) 0.11975(9)
O10_3 O 0.1660(2) 0.33380(11) 0.14040(6)
C76_3 C 0.5587(4) 0.74333(18) 0.01940(9)
C81_3 C 0.6776(4) 0.7230(2) 0.02194(11)
H43_3 H 0.7163 0.7167 0.0407
C83_3 C 0.5110(4) 0.99354(18) 0.11633(10)
H48_3 H 0.6595 0.9780 0.1444
C90_3 C 0.1891(4) 0.80675(18) 0.21053(9)
C91_3 C 0.2261(4) 0.76312(17) 0.23265(9)
H50_3 H 0.2732 0.7289 0.2280
C92_3 C 0.1911(4) 0.77194(18) 0.26145(9)
H51_3 H 0.2143 0.7432 0.2761
C93_3 C 0.1229(4) 0.82259(18) 0.26835(9)
C94_3 C 0.0867(4) 0.86580(19) 0.24631(10)
H52_3 H 0.0382 0.8996 0.2508
C95_3 C 0.1234(4) 0.85781(19) 0.21811(10)
H53_3 H 0.1032 0.8878 0.2038
C96_3 C 0.0910(4) 0.8304(2) 0.29965(10)
O17_3 O 0.0307(3) 0.88179(12) 0.30605(6)
H54_3 H 0.0120 0.8739 0.3260
Zn2_3 Zn 0.36837(5) 0.77529(2) 0.114468(12)
O18_3 O 0.5486(3) 0.74391(17) 0.13909(9)
O24_2 O 0.6642(3) 0.74716(13) 0.42652(7)
H57_3 H 0.6814 0.767859 0.095223
H58_3 H 0.745109 0.833495 0.0876883
H59_3 H 0.538421 0.701252 0.146843
H60_3 H 0.569762 0.772591 0.155868
H61_3 H 0.600714 0.192692 0.126467
H62_3 H 0.420946 0.696559 0.349186
C77_3 C 0.4999(4) 0.7532(2) 0.99207(10)
H40_3 H 0.4183 0.7664 0.9903
C78_3 C 0.5646(4) 0.7429(2) 0.96673(11)
H41_3 H 0.5261 0.7504 0.9481
C79_3 C 0.6854(4) 0.72180(19) 0.96913(9)
C80_3 C 0.7422(4) 0.7114(2) 0.99706(10)
H42_3 H 0.8229 0.6969 0.9991
C82_3 C 0.7487(4) 0.7081(2) 0.94160(10)
O13_3 O 0.8681(3) 0.69019(14) 0.94748(7)
H44_3 H 0.9033 0.6767 0.9298
C30_4 C 0.2962(4) 0.05312(17) 0.62573(10)
H15_4 H 0.3489 0.0863 0.6231
C31_4 C 0.1721(4) 0.06329(17) 0.62779(9)
C32_4 C 0.0934(4) 0.01381(18) 0.63171(10)
H16_4 H 0.0105 0.0214 0.6341
C34_4 C 0.1229(4) 0.12867(19) 0.62684(9)
O3_4 O 0.0218(3) 0.13974(12) 0.63762(6)
O21_2 O 0.0642(3) 0.27606(12) 0.61231(6)
H55_2 H 0.1070 0.2376 0.6124
H61_4 H 0.100714 0.307308 0.626467
N1_4 N 0.3188(3) 0.78052(13) 0.66017(8)
N2_4 N 0.4249(3) 0.80000(14) 0.60389(7)
N3_2 N 0.5101(3) 0.67306(14) 0.60457(7)
N4_4 N 0.3872(3) 0.65190(14) 0.65926(8)
C1_4 C 0.3283(4) 0.65094(17) 0.68431(9)
C2_4 C 0.2803(4) 0.70258(18) 0.69816(9)
C3_4 C 0.2795(4) 0.76361(18) 0.68731(10)
C4_4 C 0.2280(4) 0.81538(18) 0.70074(10)
H1_4 H 0.1937 0.8158 0.7191
C5_4 C 0.2368(4) 0.8639(2) 0.68265(11)
H2_4 H 0.2110 0.9042 0.6861
C6_4 C 0.2933(4) 0.84215(17) 0.65699(10)
C7_4 C 0.3102(4) 0.87707(16) 0.63135(10)
C8_4 C 0.3689(4) 0.85650(17) 0.60664(10)
C9_4 C 0.3771(4) 0.88976(18) 0.57936(10)
H3_4 H 0.3446 0.9289 0.5751
C10_4 C 0.4392(4) 0.85501(17) 0.56110(9)
H4_4 H 0.4577 0.8653 0.5419
C11_4 C 0.4724(4) 0.79821(19) 0.57672(10)
C12_2 C 0.5384(4) 0.74823(18) 0.56488(9)
C13_2 C 0.5564(4) 0.69112(17) 0.57887(10)
C14_2 C 0.6266(4) 0.64097(18) 0.56766(10)
H5_2 H 0.6714 0.6422 0.5508
C15_2 C 0.6162(4) 0.59208(19) 0.58568(10)
H6_2 H 0.6519 0.5532 0.5836
C16_2 C 0.5397(4) 0.61107(16) 0.60876(9)
C17_2 C 0.5029(4) 0.57302(18) 0.63163(10)
C18_4 C 0.4278(4) 0.59243(17) 0.65445(10)
C19_4 C 0.3917(4) 0.55336(18) 0.67832(9)
H7_4 H 0.4080 0.5112 0.6807
C20_4 C 0.3295(4) 0.58991(18) 0.69658(10)
H8_4 H 0.2942 0.5776 0.7138
C21_4 C 0.2181(4) 0.69313(19) 0.72707(9)
C22_4 C 0.2800(4) 0.70715(19) 0.75408(10)
H9_4 H 0.3609 0.7214 0.7546
C23_4 C 0.2220(4) 0.70009(19) 0.78070(10)
H10_4 H 0.2649 0.7092 0.7987
C24_4 C 0.1042(4) 0.68021(18) 0.78034(9)
C25_4 C 0.0399(4) 0.6661(2) 0.75368(10)
C26_4 C 0.0987(4) 0.6729(2) 0.72733(11)
H12_4 H 0.0555 0.6635 0.7094
C27_4 C 0.0418(4) 0.67501(17) 0.80887(10)
O1_4 O 0.0967(3) 0.68211(13) 0.83209(6)
C28_4 C 0.2625(4) 0.94313(19) 0.63066(10)
C29_4 C 0.3421(4) 0.99391(18) 0.62760(10)
H14_4 H 0.4264 0.9872 0.6268
C33_4 C 0.1347(4) 0.95512(19) 0.63210(10)
H17_4 H 0.0795 0.9224 0.6333
C35_2 C 0.5831(4) 0.75717(19) 0.53489(9)
C36_2 C 0.5410(4) 0.7161(2) 0.51166(10)
H18_4 H 0.4867 0.6842 0.5155
C37_4 C 0.5809(4) 0.72345(18) 0.48326(10)
H19_4 H 0.5560 0.6957 0.4683
C38_4 C 0.6580(4) 0.77241(18) 0.47750(9)
C39_2 C 0.6954(4) 0.81324(19) 0.50008(10)
H20_4 H 0.7455 0.8467 0.4960
C40_2 C 0.6598(4) 0.8053(2) 0.52825(10)
H21_2 H 0.6877 0.8326 0.5431
C41_4 C 0.6943(4) 0.78185(19) 0.44661(9)
O6_4 O 0.7635(3) 0.83339(13) 0.44323(6)
H22_4 H 0.7838 0.8321 0.4231
C42_2 C 0.5370(4) 0.50732(18) 0.63096(10)
C43_4 C 0.4582(5) 0.46108(19) 0.62195(14)
H23_4 H 0.3779 0.4706 0.6150
C44_4 C 0.4965(5) 0.3999(2) 0.62300(14)
H24_4 H 0.4397 0.3693 0.6172
C45_4 C 0.6097(4) 0.38282(18) 0.63188(9)
C46_4 C 0.6912(5) 0.42782(19) 0.63958(13)
H25_4 H 0.7731 0.4180 0.6449
C47_4 C 0.6519(5) 0.4895(2) 0.63945(14)
H26_2 H 0.7087 0.5198 0.6456
C48_4 C 0.6606(4) 0.31854(16) 0.63398(9)
O7_2 O 0.7672(3) 0.30704(12) 0.63630(7)
Zn1_4 Zn 0.40161(5) 0.72489(2) 0.630543(12)
O9_4 O 0.2241(3) 0.69497(16) 0.60388(8)
C57_4 C 0.0442(5) 0.63234(19) 0.54415(10)
H30_4 H 0.0804 0.6323 0.5261
C58_4 C 0.0342(4) 0.58182(19) 0.56318(9)
H31_4 H 0.0610 0.5415 0.5602
C76_4 C 0.0587(4) 0.75667(18) 0.51940(9)
C78_4 C 0.0646(4) 0.7571(2) 0.46673(11)
H41_4 H 0.0261 0.7496 0.4481
C79_4 C 0.1854(4) 0.77820(19) 0.46913(9)
C80_4 C 0.2422(4) 0.7886(2) 0.49706(10)
H42_4 H 0.3229 0.8031 0.4991
C81_4 C 0.1776(4) 0.7770(2) 0.52194(11)
H43_4 H 0.2163 0.7833 0.5407
C82_4 C 0.2487(4) 0.7919(2) 0.44160(10)
O13_4 O 0.3681(3) 0.80981(14) 0.44748(7)
H44_4 H 0.4033 0.8233 0.4298
C83_4 C 0.0110(4) 0.50646(18) 0.61633(10)
C86_4 C 0.0903(4) 0.38516(18) 0.62066(10)
C87_4 C 0.1580(5) 0.43045(18) 0.63652(12)
H47_4 H 0.2286 0.4205 0.6484
C88_4 C 0.1160(4) 0.4908(2) 0.63395(12)
H48_4 H 0.1595 0.5220 0.6444
C89_4 C 0.1405(4) 0.31801(19) 0.62382(10)
O18_4 O 0.0486(3) 0.75609(17) 0.63909(9)
H57_4 H 0.1814 0.732141 0.595223
H58_4 H 0.245109 0.666505 0.587688
H59_4 H 0.0384214 0.798748 0.646843
H60_4 H 0.0697616 0.727409 0.655868
C71_4 C 0.7326(4) 0.03971(18) 0.64021(9)
H37_4 H 0.7598 0.0632 0.6566
C72_4 C 0.6598(4) 0.06650(17) 0.61775(9)
C73_4 C 0.6230(4) 0.03241(18) 0.59271(9)
H38_4 H 0.5751 0.0506 0.5772
C75_4 C 0.6159(4) 0.1334(2) 0.61975(9)
O10_4 O 0.6660(2) 0.16620(11) 0.64040(6)
H11_4 H 0.9587 0.6523 0.7533
O2_4 O 0.9233(3) 0.66140(13) 0.80497(7)
H13_4 H 0.8924 0.6632 0.8241
N5_4 N 0.8777(3) 0.79752(16) 0.58520(8)
N6_4 N 0.9446(3) 0.66773(14) 0.58440(8)
N7_4 N 0.8507(3) 0.65157(14) 0.64214(8)
N8_4 N 0.7621(3) 0.77724(14) 0.64034(7)
C49_4 C 0.7264(4) 0.83790(19) 0.63517(9)
C50_4 C 0.7655(4) 0.87506(17) 0.61261(9)
C51_4 C 0.8402(4) 0.85766(16) 0.59040(9)
C52_4 C 0.8905(4) 0.89589(18) 0.56867(10)
H28_4 H 0.8820 0.9388 0.5676
C53_4 C 0.9516(4) 0.86177(19) 0.55001(11)
H29_4 H 0.9904 0.8755 0.5335
C54_4 C 0.9449(4) 0.79829(19) 0.56099(10)
C55_4 C 0.9924(4) 0.7444(2) 0.54712(10)
C56_4 C 0.9882(5) 0.68399(18) 0.55767(10)
C59_4 C 0.9738(4) 0.60521(19) 0.58834(11)
C60_4 C 0.9646(4) 0.57331(18) 0.61483(10)
C61_4 C 0.9106(4) 0.59521(19) 0.64035(10)
C62_4 C 0.9111(4) 0.5635(2) 0.66848(9)
H32_4 H 0.9499 0.5260 0.6732
C63_4 C 0.8463(4) 0.59751(17) 0.68634(10)
H33_4 H 0.8281 0.5876 0.7056
C64_4 C 0.8091(4) 0.65307(17) 0.67005(9)
C65_4 C 0.7381(4) 0.70053(19) 0.68013(9)
C66_4 C 0.7108(4) 0.75864(18) 0.66540(10)
C67_4 C 0.6319(4) 0.80697(18) 0.67597(10)
H34_4 H 0.5840 0.8050 0.6923
C68_4 C 0.6419(4) 0.85485(19) 0.65756(9)
H35_4 H 0.6017 0.8927 0.6588
C69_4 C 0.7311(4) 0.94244(17) 0.61359(9)
C70_4 C 0.7657(4) 0.97822(17) 0.63855(10)
H36_4 H 0.8120 0.9602 0.6544
C74_4 C 0.6589(4) 0.97013(18) 0.59098(10)
H39_4 H 0.6336 0.9470 0.5743
C77_4 C 0.9999(4) 0.7468(2) 0.49207(10)
H40_4 H 0.9183 0.7336 0.4903
C84_4 C 0.9467(4) 0.46011(19) 0.60146(10)
H45_4 H 0.8760 0.4698 0.5896
C85_4 C 0.9864(4) 0.3970(2) 0.60392(10)
H46_4 H 0.9418 0.3653 0.5942
C90_4 C 0.6891(4) 0.69325(18) 0.71053(9)
C91_4 C 0.7261(4) 0.73688(17) 0.73265(9)
H50_4 H 0.7732 0.7711 0.7280
C92_4 C 0.6911(4) 0.72806(18) 0.76145(9)
H51_4 H 0.7143 0.7568 0.7761
C93_4 C 0.6229(4) 0.67741(18) 0.76835(9)
C94_4 C 0.5867(4) 0.63420(19) 0.74631(10)
H52_4 H 0.5382 0.6004 0.7508
C95_4 C 0.6234(4) 0.64219(19) 0.71811(10)
H53_4 H 0.6032 0.6122 0.7038
C96_4 C 0.5910(4) 0.6696(2) 0.79965(10)
O17_4 O 0.5307(3) 0.61821(12) 0.80605(6)
H54_4 H 0.5120 0.6261 0.8260
Zn2_4 Zn 0.86837(5) 0.72471(2) 0.614468(12)
H62_4 H 0.920946 0.803441 0.849186
N3_3 N 0.9899(3) 0.17306(14) 0.89543(7)
C12_3 C 0.9616(4) 0.24823(18) 0.93512(9)
C13_3 C 0.9436(4) 0.19112(17) 0.92113(10)
C14_3 C 0.8734(4) 0.14097(18) 0.93234(10)
H5_3 H 0.8286 0.1422 0.9492
C15_3 C 0.8838(4) 0.09208(19) 0.91432(10)
H6_3 H 0.8481 0.0532 0.9164
C16_3 C 0.9603(4) 0.11107(16) 0.89124(9)
C17_3 C 0.9971(4) 0.07302(18) 0.86837(10)
C35_3 C 0.9169(4) 0.25717(19) 0.96511(9)
C36_3 C 0.9590(4) 0.2161(2) 0.98834(10)
C39_3 C 0.8046(4) 0.31324(19) 0.99992(10)
C40_3 C 0.8402(4) 0.3053(2) 0.97175(10)
H21_3 H 0.8123 0.3326 0.9569
C42_3 C 0.9630(4) 0.00732(18) 0.86904(10)
H26_3 H 0.7913 0.0198 0.8544
N3_4 N 0.0101(3) 0.82694(14) 0.10457(7)
C12_4 C 0.0384(4) 0.75177(18) 0.06488(9)
C13_4 C 0.0564(4) 0.80888(17) 0.07887(10)
C14_4 C 0.1266(4) 0.85903(18) 0.06766(10)
H5_4 H 0.1714 0.8578 0.0508
C15_4 C 0.1162(4) 0.90792(19) 0.08568(10)
H6_4 H 0.1519 0.9468 0.0836
C16_4 C 0.0397(4) 0.88893(16) 0.10876(9)
C17_4 C 0.0029(4) 0.92698(18) 0.13163(10)
C35_4 C 0.0831(4) 0.74283(19) 0.03489(9)
C36_4 C 0.0410(4) 0.7839(2) 0.01166(10)
C39_4 C 0.1954(4) 0.68676(19) 0.00008(10)
C40_4 C 0.1598(4) 0.6947(2) 0.02825(10)
H21_4 H 0.1877 0.6674 0.0431
C42_4 C 0.0370(4) 0.99268(18) 0.13096(10)
H26_4 H 0.2087 0.9802 0.1456
loop_
_geom_bond_atom_site_label_1
_geom_bond_atom_site_label_2
_geom_bond_site_symmetry_1
_geom_bond_site_symmetry_2
H40 C77 1_555 1_555
C78 C77 1_555 1_555
H41 C78 1_555 1_555
C79 C78 1_555 1_555
C80 C79 1_555 1_555
H42 C80 1_555 1_555
C82 C79 1_555 1_555
O12 C82 1_555 1_555
O13 C82 1_555 1_555
H44 O13 1_555 1_555
Na8 O12 1_555 1_555
N1 C3 1_555 1_555
N2 C8 1_555 1_555
N4 C1 1_555 1_555
C1 C2 1_555 1_555
C2 C3 1_555 1_555
C3 C4 1_555 1_555
C4 H1 1_555 1_555
C5 C4 1_555 1_555
H2 C5 1_555 1_555
C6 N1 1_555 1_555
C7 C6 1_555 1_555
C8 C7 1_555 1_555
C9 C8 1_555 1_555
H3 C9 1_555 1_555
C10 C9 1_555 1_555
H4 C10 1_555 1_555
C11 N2 1_555 1_555
C18 N4 1_555 1_555
C19 C18 1_555 1_555
H7 C19 1_555 1_555
C20 C1 1_555 1_555
H8 C20 1_555 1_555
C21 C2 1_555 1_555
C22 C21 1_555 1_555
H9 C22 1_555 1_555
C23 C22 1_555 1_555
H10 C23 1_555 1_555
C24 C23 1_555 1_555
C25 C24 1_555 1_555
H11 C25 1_555 1_555
C26 C21 1_555 1_555
H12 C26 1_555 1_555
C27 C24 1_555 1_555
O1 C27 1_555 1_555
O2 C27 1_555 1_555
H13 O2 1_555 1_555
C28 C7 1_555 1_555
C29 C28 1_555 1_555
H14 C29 1_555 1_555
C30 C29 1_555 1_555
H15 C30 1_555 1_555
C31 C30 1_555 1_555
C32 C31 1_555 1_555
H16 C32 1_555 1_555
C33 C28 1_555 1_555
H17 C33 1_555 1_555
C34 C31 1_555 1_555
O3 C34 1_555 1_555
O4 C34 1_555 1_555
Zn1 N1 1_555 1_555
O9 Zn1 1_555 1_555
N5 C51 1_555 1_555
N6 C56 1_555 1_555
N7 C61 1_555 1_555
N8 C49 1_555 1_555
C49 C50 1_555 1_555
C50 C51 1_555 1_555
C51 C52 1_555 1_555
C52 H28 1_555 1_555
C53 C52 1_555 1_555
H29 C53 1_555 1_555
C54 N5 1_555 1_555
C55 C54 1_555 1_555
C56 C55 1_555 1_555
C57 C56 1_555 1_555
H30 C57 1_555 1_555
C58 C57 1_555 1_555
H31 C58 1_555 1_555
C59 N6 1_555 1_555
C60 C59 1_555 1_555
C61 C60 1_555 1_555
C62 C61 1_555 1_555
H32 C62 1_555 1_555
C63 C62 1_555 1_555
H33 C63 1_555 1_555
C64 N7 1_555 1_555
C65 C64 1_555 1_555
C66 N8 1_555 1_555
C67 C66 1_555 1_555
H34 C67 1_555 1_555
C68 C49 1_555 1_555
H35 C68 1_555 1_555
C69 C50 1_555 1_555
C70 C69 1_555 1_555
H36 C70 1_555 1_555
C71 C70 1_555 1_555
H37 C71 1_555 1_555
C72 C71 1_555 1_555
C73 C72 1_555 1_555
H38 C73 1_555 1_555
C74 C69 1_555 1_555
H39 C74 1_555 1_555
C75 C72 1_555 1_555
O10 C75 1_555 1_555
O11 C75 1_555 1_555
C76 C55 1_555 1_555
C81 C76 1_555 1_555
H43 C81 1_555 1_555
C83 C60 1_555 1_555
C90 C65 1_555 1_555
C91 C90 1_555 1_555
H50 C91 1_555 1_555
C92 C91 1_555 1_555
H51 C92 1_555 1_555
C93 C92 1_555 1_555
C94 C93 1_555 1_555
H52 C94 1_555 1_555
C95 C90 1_555 1_555
H53 C95 1_555 1_555
C96 C93 1_555 1_555
O16 C96 1_555 1_555
O17 C96 1_555 1_555
H54 O17 1_555 1_555
Zn2 N5 1_555 1_555
O18 Zn2 1_555 1_555
Na1 O3 1_555 1_555
Na2 O1 1_555 1_555
Na7 O4 1_555 1_555
Na10 O16 1_555 1_555
O19 Na1 1_555 1_555
O20 Na1 1_555 1_555
O21 Na1 1_555 1_555
O22 Na1 1_555 1_555
O23 Na2 1_555 1_555
O24 Na2 1_555 1_555
O25 Na2 1_555 1_555
O26 Na2 1_555 1_555
O27 Na2 1_555 1_555
H55 O21 1_555 1_555
H56 O25 1_555 1_555
N2 Zn1 1_555 1_555
N4 Zn1 1_555 1_555
C5 C6 1_555 1_555
C10 C11 1_555 1_555
C19 C20 1_555 1_555
C25 C26 1_555 1_555
C32 C33 1_555 1_555
N6 Zn2 1_555 1_555
N7 Zn2 1_555 1_555
N8 Zn2 1_555 1_555
C53 C54 1_555 1_555
C58 C59 1_555 1_555
C63 C64 1_555 1_555
C65 C66 1_555 1_555
C67 C68 1_555 1_555
C73 C74 1_555 1_555
O10 Na1 1_555 1_555
C94 C95 1_555 1_555
O9 H57 1_555 1_555
O9 H58 1_555 1_555
O18 H59 1_555 1_555
O18 H60 1_555 1_555
O21 H61 1_555 1_555
O25 H62 1_555 1_555
H23 C43 1_555 1_555
C44 C43 1_555 1_555
H24 C44 1_555 1_555
H45 C84 1_555 1_555
C85 C84 1_555 1_555
H46 C85 1_555 1_555
C86 C85 1_555 1_555
C87 C86 1_555 1_555
H47 C87 1_555 1_555
C89 C86 1_555 1_555
O21 C89 1_555 1_555
O15 C89 1_555 1_555
C87 C88 1_555 1_555
O15 Na7 1_555 1_555
H19 C37 1_555 1_555
C38 C37 1_555 1_555
C41 C38 1_555 1_555
O5 C41 1_555 1_555
O6 C41 1_555 1_555
H22 O6 1_555 1_555
Na4 O5 1_555 1_555
C46 C45 1_555 1_555
H25 C46 1_555 1_555
C48 C45 1_555 1_555
O19 C48 1_555 1_555
O8 C48 1_555 1_555
H27 O8 1_555 1_555
C46 C47 1_555 1_555
H13_2 O2_2 1_555 1_555
N5_2 C51_2 1_555 1_555
N6_2 C56_2 1_555 1_555
N7_2 C61_2 1_555 1_555
N8_2 C49_2 1_555 1_555
C49_2 C50_2 1_555 1_555
C50_2 C51_2 1_555 1_555
C51_2 C52_2 1_555 1_555
C52_2 H28_2 1_555 1_555
C53_2 C52_2 1_555 1_555
H29_2 C53_2 1_555 1_555
C54_2 N5_2 1_555 1_555
C55_2 C54_2 1_555 1_555
C56_2 C55_2 1_555 1_555
C59_2 N6_2 1_555 1_555
C60_2 C59_2 1_555 1_555
C61_2 C60_2 1_555 1_555
C62_2 C61_2 1_555 1_555
H32_2 C62_2 1_555 1_555
C63_2 C62_2 1_555 1_555
H33_2 C63_2 1_555 1_555
C64_2 N7_2 1_555 1_555
C65_2 C64_2 1_555 1_555
C66_2 N8_2 1_555 1_555
C67_2 C66_2 1_555 1_555
H34_2 C67_2 1_555 1_555
C68_2 C49_2 1_555 1_555
H35_2 C68_2 1_555 1_555
C69_2 C50_2 1_555 1_555
C70_2 C69_2 1_555 1_555
H36_2 C70_2 1_555 1_555
C74_2 C69_2 1_555 1_555
H39_2 C74_2 1_555 1_555
H40_2 C77_2 1_555 1_555
H45_2 C84_2 1_555 1_555
C85_2 C84_2 1_555 1_555
H46_2 C85_2 1_555 1_555
C90_2 C65_2 1_555 1_555
C91_2 C90_2 1_555 1_555
H50_2 C91_2 1_555 1_555
C92_2 C91_2 1_555 1_555
H51_2 C92_2 1_555 1_555
C93_2 C92_2 1_555 1_555
C94_2 C93_2 1_555 1_555
H52_2 C94_2 1_555 1_555
C95_2 C90_2 1_555 1_555
H53_2 C95_2 1_555 1_555
C96_2 C93_2 1_555 1_555
O16_2 C96_2 1_555 1_555
O17_2 C96_2 1_555 1_555
H54_2 O17_2 1_555 1_555
Zn2_2 N5_2 1_555 1_555
Na8 O16_2 1_555 1_555
H56_2 O25_2 1_555 1_555
N6_2 Zn2_2 1_555 1_555
N7_2 Zn2_2 1_555 1_555
N8_2 Zn2_2 1_555 1_555
C53_2 C54_2 1_555 1_555
C63_2 C64_2 1_555 1_555
C65_2 C66_2 1_555 1_555
C67_2 C68_2 1_555 1_555
C94_2 C95_2 1_555 1_555
O25_2 H62_2 1_555 1_555
H37_2 C71_2 1_555 1_555
C72_2 C71_2 1_555 1_555
C73_2 C72_2 1_555 1_555
H38_2 C73_2 1_555 1_555
C75_2 C72_2 1_555 1_555
O10_2 C75_2 1_555 1_555
O11_2 C75_2 1_555 1_555
Na7_2 O11_2 1_555 1_555
O19_2 Na9 1_555 1_555
O20_2 Na9 1_555 1_555
O22_2 Na9 1_555 1_555
O10_2 Na9 1_555 1_555
N1_2 C3_2 1_555 1_555
N2_2 C8_2 1_555 1_555
N3 C13 1_555 1_555
N4_2 C1_2 1_555 1_555
C1_2 C2_2 1_555 1_555
C2_2 C3_2 1_555 1_555
C3_2 C4_2 1_555 1_555
C4_2 H1_2 1_555 1_555
C5_2 C4_2 1_555 1_555
H2_2 C5_2 1_555 1_555
C6_2 N1_2 1_555 1_555
C7_2 C6_2 1_555 1_555
C8_2 C7_2 1_555 1_555
C9_2 C8_2 1_555 1_555
H3_2 C9_2 1_555 1_555
C10_2 C9_2 1_555 1_555
H4_2 C10_2 1_555 1_555
C11_2 N2_2 1_555 1_555
C12 C11_2 1_555 1_555
C13 C12 1_555 1_555
C14 C13 1_555 1_555
H5 C14 1_555 1_555
C15 C14 1_555 1_555
H6 C15 1_555 1_555
C16 N3 1_555 1_555
C17 C16 1_555 1_555
C18_2 N4_2 1_555 1_555
C19_2 C18_2 1_555 1_555
H7_2 C19_2 1_555 1_555
C20_2 C1_2 1_555 1_555
H8_2 C20_2 1_555 1_555
C21_2 C2_2 1_555 1_555
C22_2 C21_2 1_555 1_555
H9_2 C22_2 1_555 1_555
C23_2 C22_2 1_555 1_555
H10_2 C23_2 1_555 1_555
C24_2 C23_2 1_555 1_555
C25_2 C24_2 1_555 1_555
C26_2 C21_2 1_555 1_555
H12_2 C26_2 1_555 1_555
C27_2 C24_2 1_555 1_555
O1_2 C27_2 1_555 1_555
C28_2 C7_2 1_555 1_555
C29_2 C28_2 1_555 1_555
H14_2 C29_2 1_555 1_555
C33_2 C28_2 1_555 1_555
H17_2 C33_2 1_555 1_555
C35 C12 1_555 1_555
C36 C35 1_555 1_555
H18_2 C36 1_555 1_555
C37_2 C36 1_555 1_555
H19_2 C37_2 1_555 1_555
C38_2 C37_2 1_555 1_555
C39 C38_2 1_555 1_555
H20_2 C39 1_555 1_555
C40 C35 1_555 1_555
H21 C40 1_555 1_555
C41_2 C38_2 1_555 1_555
O24 C41_2 1_555 1_555
O6_2 C41_2 1_555 1_555
H22_2 O6_2 1_555 1_555
C42 C17 1_555 1_555
C43_2 C42 1_555 1_555
H23_2 C43_2 1_555 1_555
C44_2 C43_2 1_555 1_555
H24_2 C44_2 1_555 1_555
C45_2 C44_2 1_555 1_555
C46_2 C45_2 1_555 1_555
H25_2 C46_2 1_555 1_555
C47_2 C42 1_555 1_555
H26 C47_2 1_555 1_555
C48_2 C45_2 1_555 1_555
O19_2 C48_2 1_555 1_555
O8_2 C48_2 1_555 1_555
H27_2 O8_2 1_555 1_555
Zn1_2 N1_2 1_555 1_555
O9_2 Zn1_2 1_555 1_555
H30_2 C57_2 1_555 1_555
C58_2 C57_2 1_555 1_555
H31_2 C58_2 1_555 1_555
H41_2 C78_2 1_555 1_555
C79_2 C78_2 1_555 1_555
C80_2 C79_2 1_555 1_555
H42_2 C80_2 1_555 1_555
C81_2 C76_2 1_555 1_555
H43_2 C81_2 1_555 1_555
C82_2 C79_2 1_555 1_555
O12_2 C82_2 1_555 1_555
O13_2 C82_2 1_555 1_555
H44_2 O13_2 1_555 1_555
C87_2 C86_2 1_555 1_555
H47_2 C87_2 1_555 1_555
C88_2 C83_2 1_555 1_555
H48_2 C88_2 1_555 1_555
C89_2 C86_2 1_555 1_555
O14 C89_2 1_555 1_555
H49 O14 1_555 1_555
O15_2 C89_2 1_555 1_555
Na4 O1_2 1_555 1_555
Na7_2 O8_2 1_555 1_555
Na10 O12_2 1_555 1_555
O23_2 Na4 1_555 1_555
O27_2 Na4 1_555 1_555
N2_2 Zn1_2 1_555 1_555
N3 Zn1_2 1_555 1_555
N4_2 Zn1_2 1_555 1_555
C5_2 C6_2 1_555 1_555
C10_2 C11_2 1_555 1_555
C15 C16 1_555 1_555
C17 C18_2 1_555 1_555
C19_2 C20_2 1_555 1_555
C25_2 C26_2 1_555 1_555
C39 C40 1_555 1_555
C46_2 C47_2 1_555 1_555
C80_2 C81_2 1_555 1_555
C87_2 C88_2 1_555 1_555
O15_2 Na7_2 1_555 1_555
O9_2 H57_2 1_555 1_555
O9_2 H58_2 1_555 1_555
O18_2 H59_2 1_555 1_555
O18_2 H60_2 1_555 1_555
H15_2 C30_2 1_555 1_555
C31_2 C30_2 1_555 1_555
C32_2 C31_2 1_555 1_555
H16_2 C32_2 1_555 1_555
C34_2 C31_2 1_555 1_555
O3_2 C34_2 1_555 1_555
O4_2 C34_2 1_555 1_555
Na7_2 O4_2 1_555 1_555
O14 H61_2 1_555 1_555
C46_3 C45_3 1_555 1_555
H25_3 C46_3 1_555 1_555
C48_3 C45_3 1_555 1_555
O7 C48_3 1_555 1_555
O25_2 C48_3 1_555 1_555
Na8 O7 1_555 1_555
C46_3 C47_3 1_555 1_555
H19_3 C37_3 1_555 1_555
C38_3 C37_3 1_555 1_555
C41_3 C38_3 1_555 1_555
O5_2 C41_3 1_555 1_555
O6_3 C41_3 1_555 1_555
H22_3 O6_3 1_555 1_555
Na7 O5_2 1_555 1_555
H23_3 C43_3 1_555 1_555
C44_3 C43_3 1_555 1_555
H24_3 C44_3 1_555 1_555
H45_3 C84_3 1_555 1_555
C85_3 C84_3 1_555 1_555
H46_3 C85_3 1_555 1_555
C86_3 C85_3 1_555 1_555
C87_3 C86_3 1_555 1_555
H47_3 C87_3 1_555 1_555
C89_3 C86_3 1_555 1_555
O14_2 C89_3 1_555 1_555
H49_2 O14_2 1_555 1_555
O27_2 C89_3 1_555 1_555
Na8 O14_2 1_555 1_555
C87_3 C88_3 1_555 1_555
N1_3 C3_3 1_555 1_555
N2_3 C8_3 1_555 1_555
N4_3 C1_3 1_555 1_555
C1_3 C2_3 1_555 1_555
C2_3 C3_3 1_555 1_555
C3_3 C4_3 1_555 1_555
C4_3 H1_3 1_555 1_555
C5_3 C4_3 1_555 1_555
H2_3 C5_3 1_555 1_555
C6_3 N1_3 1_555 1_555
C7_3 C6_3 1_555 1_555
C8_3 C7_3 1_555 1_555
C9_3 C8_3 1_555 1_555
H3_3 C9_3 1_555 1_555
C10_3 C9_3 1_555 1_555
H4_3 C10_3 1_555 1_555
C11_3 N2_3 1_555 1_555
C18_3 N4_3 1_555 1_555
C19_3 C18_3 1_555 1_555
H7_3 C19_3 1_555 1_555
C20_3 C1_3 1_555 1_555
H8_3 C20_3 1_555 1_555
C21_3 C2_3 1_555 1_555
C22_3 C21_3 1_555 1_555
H9_3 C22_3 1_555 1_555
C23_3 C22_3 1_555 1_555
H10_3 C23_3 1_555 1_555
C24_3 C23_3 1_555 1_555
C25_3 C24_3 1_555 1_555
H11_3 C25_3 1_555 1_555
C26_3 C21_3 1_555 1_555
H12_3 C26_3 1_555 1_555
C27_3 C24_3 1_555 1_555
O1_3 C27_3 1_555 1_555
O2_3 C27_3 1_555 1_555
H13_3 O2_3 1_555 1_555
C28_3 C7_3 1_555 1_555
C29_3 C28_3 1_555 1_555
H14_3 C29_3 1_555 1_555
C30_3 C29_3 1_555 1_555
H15_3 C30_3 1_555 1_555
C31_3 C30_3 1_555 1_555
C32_3 C31_3 1_555 1_555
H16_3 C32_3 1_555 1_555
C33_3 C28_3 1_555 1_555
H17_3 C33_3 1_555 1_555
C34_3 C31_3 1_555 1_555
O3_3 C34_3 1_555 1_555
O23_2 C34_3 1_555 1_555
Zn1_3 N1_3 1_555 1_555
O9_3 Zn1_3 1_555 1_555
N5_3 C51_3 1_555 1_555
N6_3 C56_3 1_555 1_555
N7_3 C61_3 1_555 1_555
N8_3 C49_3 1_555 1_555
C49_3 C50_3 1_555 1_555
C50_3 C51_3 1_555 1_555
C51_3 C52_3 1_555 1_555
C52_3 H28_3 1_555 1_555
C53_3 C52_3 1_555 1_555
H29_3 C53_3 1_555 1_555
C54_3 N5_3 1_555 1_555
C55_3 C54_3 1_555 1_555
C56_3 C55_3 1_555 1_555
C57_3 C56_3 1_555 1_555
H30_3 C57_3 1_555 1_555
C58_3 C57_3 1_555 1_555
H31_3 C58_3 1_555 1_555
C59_3 N6_3 1_555 1_555
C60_3 C59_3 1_555 1_555
C61_3 C60_3 1_555 1_555
C62_3 C61_3 1_555 1_555
H32_3 C62_3 1_555 1_555
C63_3 C62_3 1_555 1_555
H33_3 C63_3 1_555 1_555
C64_3 N7_3 1_555 1_555
C65_3 C64_3 1_555 1_555
C66_3 N8_3 1_555 1_555
C67_3 C66_3 1_555 1_555
H34_3 C67_3 1_555 1_555
C68_3 C49_3 1_555 1_555
H35_3 C68_3 1_555 1_555
C69_3 C50_3 1_555 1_555
C70_3 C69_3 1_555 1_555
H36_3 C70_3 1_555 1_555
C71_3 C70_3 1_555 1_555
H37_3 C71_3 1_555 1_555
C72_3 C71_3 1_555 1_555
C73_3 C72_3 1_555 1_555
H38_3 C73_3 1_555 1_555
C74_3 C69_3 1_555 1_555
H39_3 C74_3 1_555 1_555
C75_3 C72_3 1_555 1_555
O10_3 C75_3 1_555 1_555
O26_2 C75_3 1_555 1_555
C76_3 C55_3 1_555 1_555
C81_3 C76_3 1_555 1_555
H43_3 C81_3 1_555 1_555
C83_3 C60_3 1_555 1_555
C90_3 C65_3 1_555 1_555
C91_3 C90_3 1_555 1_555
H50_3 C91_3 1_555 1_555
C92_3 C91_3 1_555 1_555
H51_3 C92_3 1_555 1_555
C93_3 C92_3 1_555 1_555
C94_3 C93_3 1_555 1_555
H52_3 C94_3 1_555 1_555
C95_3 C90_3 1_555 1_555
H53_3 C95_3 1_555 1_555
C96_3 C93_3 1_555 1_555
O22_2 C96_3 1_555 1_555
O17_3 C96_3 1_555 1_555
H54_3 O17_3 1_555 1_555
Zn2_3 N5_3 1_555 1_555
O18_3 Zn2_3 1_555 1_555
Na8 O3_3 1_555 1_555
Na7_2 O1_3 1_555 1_555
O24_2 Na7_2 1_555 1_555
N2_3 Zn1_3 1_555 1_555
N4_3 Zn1_3 1_555 1_555
C5_3 C6_3 1_555 1_555
C10_3 C11_3 1_555 1_555
C19_3 C20_3 1_555 1_555
C25_3 C26_3 1_555 1_555
C32_3 C33_3 1_555 1_555
N6_3 Zn2_3 1_555 1_555
N7_3 Zn2_3 1_555 1_555
N8_3 Zn2_3 1_555 1_555
C53_3 C54_3 1_555 1_555
C58_3 C59_3 1_555 1_555
C63_3 C64_3 1_555 1_555
C65_3 C66_3 1_555 1_555
C67_3 C68_3 1_555 1_555
C73_3 C74_3 1_555 1_555
O10_3 Na8 1_555 1_555
C94_3 C95_3 1_555 1_555
O9_3 H57_3 1_555 1_555
O9_3 H58_3 1_555 1_555
O18_3 H59_3 1_555 1_555
O18_3 H60_3 1_555 1_555
O14_2 H61_3 1_555 1_555
O8_2 H62_3 1_555 1_555
H40_3 C77_3 1_555 1_555
C78_3 C77_3 1_555 1_555
H41_3 C78_3 1_555 1_555
C79_3 C78_3 1_555 1_555
C80_3 C79_3 1_555 1_555
H42_3 C80_3 1_555 1_555
C82_3 C79_3 1_555 1_555
O20 C82_3 1_555 1_555
O13_3 C82_3 1_555 1_555
H44_3 O13_3 1_555 1_555
H15_4 C30_4 1_555 1_555
C31_4 C30_4 1_555 1_555
C32_4 C31_4 1_555 1_555
H16_4 C32_4 1_555 1_555
C34_4 C31_4 1_555 1_555
O3_4 C34_4 1_555 1_555
O23 C34_4 1_555 1_555
H55_2 O21_2 1_555 1_555
O21_2 H61_4 1_555 1_555
N1_4 C3_4 1_555 1_555
N2_4 C8_4 1_555 1_555
N3_2 C13_2 1_555 1_555
N4_4 C1_4 1_555 1_555
C1_4 C2_4 1_555 1_555
C2_4 C3_4 1_555 1_555
C3_4 C4_4 1_555 1_555
C4_4 H1_4 1_555 1_555
C5_4 C4_4 1_555 1_555
H2_4 C5_4 1_555 1_555
C6_4 N1_4 1_555 1_555
C7_4 C6_4 1_555 1_555
C8_4 C7_4 1_555 1_555
C9_4 C8_4 1_555 1_555
H3_4 C9_4 1_555 1_555
C10_4 C9_4 1_555 1_555
H4_4 C10_4 1_555 1_555
C11_4 N2_4 1_555 1_555
C12_2 C11_4 1_555 1_555
C13_2 C12_2 1_555 1_555
C14_2 C13_2 1_555 1_555
H5_2 C14_2 1_555 1_555
C15_2 C14_2 1_555 1_555
H6_2 C15_2 1_555 1_555
C16_2 N3_2 1_555 1_555
C17_2 C16_2 1_555 1_555
C18_4 N4_4 1_555 1_555
C19_4 C18_4 1_555 1_555
H7_4 C19_4 1_555 1_555
C20_4 C1_4 1_555 1_555
H8_4 C20_4 1_555 1_555
C21_4 C2_4 1_555 1_555
C22_4 C21_4 1_555 1_555
H9_4 C22_4 1_555 1_555
C23_4 C22_4 1_555 1_555
H10_4 C23_4 1_555 1_555
C24_4 C23_4 1_555 1_555
C25_4 C24_4 1_555 1_555
C26_4 C21_4 1_555 1_555
H12_4 C26_4 1_555 1_555
C27_4 C24_4 1_555 1_555
O1_4 C27_4 1_555 1_555
C28_4 C7_4 1_555 1_555
C29_4 C28_4 1_555 1_555
H14_4 C29_4 1_555 1_555
C33_4 C28_4 1_555 1_555
H17_4 C33_4 1_555 1_555
C35_2 C12_2 1_555 1_555
C36_2 C35_2 1_555 1_555
H18_4 C36_2 1_555 1_555
C37_4 C36_2 1_555 1_555
H19_4 C37_4 1_555 1_555
C38_4 C37_4 1_555 1_555
C39_2 C38_4 1_555 1_555
H20_4 C39_2 1_555 1_555
C40_2 C35_2 1_555 1_555
H21_2 C40_2 1_555 1_555
C41_4 C38_4 1_555 1_555
O24_2 C41_4 1_555 1_555
O6_4 C41_4 1_555 1_555
H22_4 O6_4 1_555 1_555
C42_2 C17_2 1_555 1_555
C43_4 C42_2 1_555 1_555
H23_4 C43_4 1_555 1_555
C44_4 C43_4 1_555 1_555
H24_4 C44_4 1_555 1_555
C45_4 C44_4 1_555 1_555
C46_4 C45_4 1_555 1_555
H25_4 C46_4 1_555 1_555
C47_4 C42_2 1_555 1_555
H26_2 C47_4 1_555 1_555
C48_4 C45_4 1_555 1_555
O7_2 C48_4 1_555 1_555
O25 C48_4 1_555 1_555
Zn1_4 N1_4 1_555 1_555
O9_4 Zn1_4 1_555 1_555
H30_4 C57_4 1_555 1_555
C58_4 C57_4 1_555 1_555
H31_4 C58_4 1_555 1_555
H41_4 C78_4 1_555 1_555
C79_4 C78_4 1_555 1_555
C80_4 C79_4 1_555 1_555
H42_4 C80_4 1_555 1_555
C81_4 C76_4 1_555 1_555
H43_4 C81_4 1_555 1_555
C82_4 C79_4 1_555 1_555
O20_2 C82_4 1_555 1_555
O13_4 C82_4 1_555 1_555
H44_4 O13_4 1_555 1_555
C87_4 C86_4 1_555 1_555
H47_4 C87_4 1_555 1_555
C88_4 C83_4 1_555 1_555
H48_4 C88_4 1_555 1_555
C89_4 C86_4 1_555 1_555
O21_2 C89_4 1_555 1_555
O27 C89_4 1_555 1_555
Na7 O1_4 1_555 1_555
Na10 O7_2 1_555 1_555
N2_4 Zn1_4 1_555 1_555
N3_2 Zn1_4 1_555 1_555
N4_4 Zn1_4 1_555 1_555
C5_4 C6_4 1_555 1_555
C10_4 C11_4 1_555 1_555
C15_2 C16_2 1_555 1_555
C17_2 C18_4 1_555 1_555
C19_4 C20_4 1_555 1_555
C25_4 C26_4 1_555 1_555
C39_2 C40_2 1_555 1_555
C46_4 C47_4 1_555 1_555
C80_4 C81_4 1_555 1_555
C87_4 C88_4 1_555 1_555
O9_4 H57_4 1_555 1_555
O9_4 H58_4 1_555 1_555
O18_4 H59_4 1_555 1_555
O18_4 H60_4 1_555 1_555
H37_4 C71_4 1_555 1_555
C72_4 C71_4 1_555 1_555
C73_4 C72_4 1_555 1_555
H38_4 C73_4 1_555 1_555
C75_4 C72_4 1_555 1_555
O10_4 C75_4 1_555 1_555
O26 C75_4 1_555 1_555
O10_4 Na10 1_555 1_555
H13_4 O2_4 1_555 1_555
N5_4 C51_4 1_555 1_555
N6_4 C56_4 1_555 1_555
N7_4 C61_4 1_555 1_555
N8_4 C49_4 1_555 1_555
C49_4 C50_4 1_555 1_555
C50_4 C51_4 1_555 1_555
C51_4 C52_4 1_555 1_555
C52_4 H28_4 1_555 1_555
C53_4 C52_4 1_555 1_555
H29_4 C53_4 1_555 1_555
C54_4 N5_4 1_555 1_555
C55_4 C54_4 1_555 1_555
C56_4 C55_4 1_555 1_555
C59_4 N6_4 1_555 1_555
C60_4 C59_4 1_555 1_555
C61_4 C60_4 1_555 1_555
C62_4 C61_4 1_555 1_555
H32_4 C62_4 1_555 1_555
C63_4 C62_4 1_555 1_555
H33_4 C63_4 1_555 1_555
C64_4 N7_4 1_555 1_555
C65_4 C64_4 1_555 1_555
C66_4 N8_4 1_555 1_555
C67_4 C66_4 1_555 1_555
H34_4 C67_4 1_555 1_555
C68_4 C49_4 1_555 1_555
H35_4 C68_4 1_555 1_555
C69_4 C50_4 1_555 1_555
C70_4 C69_4 1_555 1_555
H36_4 C70_4 1_555 1_555
C74_4 C69_4 1_555 1_555
H39_4 C74_4 1_555 1_555
H40_4 C77_4 1_555 1_555
H45_4 C84_4 1_555 1_555
C85_4 C84_4 1_555 1_555
H46_4 C85_4 1_555 1_555
C90_4 C65_4 1_555 1_555
C91_4 C90_4 1_555 1_555
H50_4 C91_4 1_555 1_555
C92_4 C91_4 1_555 1_555
H51_4 C92_4 1_555 1_555
C93_4 C92_4 1_555 1_555
C94_4 C93_4 1_555 1_555
H52_4 C94_4 1_555 1_555
C95_4 C90_4 1_555 1_555
H53_4 C95_4 1_555 1_555
C96_4 C93_4 1_555 1_555
O22 C96_4 1_555 1_555
O17_4 C96_4 1_555 1_555
H54_4 O17_4 1_555 1_555
Zn2_4 N5_4 1_555 1_555
N6_4 Zn2_4 1_555 1_555
N7_4 Zn2_4 1_555 1_555
N8_4 Zn2_4 1_555 1_555
C53_4 C54_4 1_555 1_555
C63_4 C64_4 1_555 1_555
C65_4 C66_4 1_555 1_555
C67_4 C68_4 1_555 1_555
C94_4 C95_4 1_555 1_555
O8 H62_4 1_555 1_555
N3_3 C13_3 1_555 1_555
C13_3 C12_3 1_555 1_555
C14_3 C13_3 1_555 1_555
H5_3 C14_3 1_555 1_555
C15_3 C14_3 1_555 1_555
H6_3 C15_3 1_555 1_555
C16_3 N3_3 1_555 1_555
C17_3 C16_3 1_555 1_555
C35_3 C12_3 1_555 1_555
C36_3 C35_3 1_555 1_555
C40_3 C35_3 1_555 1_555
H21_3 C40_3 1_555 1_555
C42_3 C17_3 1_555 1_555
C15_3 C16_3 1_555 1_555
C39_3 C40_3 1_555 1_555
N3_4 C13_4 1_555 1_555
C13_4 C12_4 1_555 1_555
C14_4 C13_4 1_555 1_555
H5_4 C14_4 1_555 1_555
C15_4 C14_4 1_555 1_555
H6_4 C15_4 1_555 1_555
C16_4 N3_4 1_555 1_555
C17_4 C16_4 1_555 1_555
C35_4 C12_4 1_555 1_555
C36_4 C35_4 1_555 1_555
C40_4 C35_4 1_555 1_555
H21_4 C40_4 1_555 1_555
C42_4 C17_4 1_555 1_555
C15_4 C16_4 1_555 1_555
C39_4 C40_4 1_555 1_555

#END
