
###############################################################################
#
# This file contains modified crystal structure data generated from the
# MOF subset of the Cambridge Structural Database (CSD) v543 
# hosted by the Cambridge Crystallographic Data Centre (CCDC).
#
# This work is licensed under the Creative Commons
# Attribution-NonCommercial-ShareAlike 4.0 International License.
# To view a copy of this license, visit
# http://creativecommons.org/licenses/by-nc-sa/4.0/
# or send a letter to
# Creative Commons, PO Box 1866, Mountain View, CA 94042, USA.
#
# CIF created using the CSD Python API on 29 September 2022
# The structure has been converted into the P1 space group
# The structure has a 3D framework
# The original CSD entry EBUQOH is in the monoclinic crystal system
# The framework has been calculated to contain at least 10.0% void space
# The void calculation uses a probe of radius 1.32A, grid spacing 0.4
# H atom positions have been added when not included in the experimental data
#
###############################################################################

data_EBUQOH
_chemical_formula_moiety         '(C520 H374 N40 Na20 O102 Zn8)n'
_symmetry_cell_setting           triclinic
_symmetry_space_group_name_H-M   'P 1'
_symmetry_Int_Tables_number      1
_space_group_name_Hall           'P 1'
loop_
_symmetry_equiv_pos_site_id
_symmetry_equiv_pos_as_xyz
1 x,y,z
_cell_length_a                   30.7150(5)
_cell_length_b                   13.7960(3)
_cell_length_c                   33.5550(8)
_cell_angle_alpha                90
_cell_angle_beta                 92.7990(6)
_cell_angle_gamma                90
_cell_volume                     14201.8
loop_
_atom_site_label
_atom_site_type_symbol
_atom_site_fract_x
_atom_site_fract_y
_atom_site_fract_z
Na1 Na 0.75040(6) 0.37056(12) 0.04075(6)
O1 O 0.76631(11) 0.1982(2) 0.07118(10)
C1 C 0.76458(16) 0.1257(4) 0.04395(18)
C2 C 0.75981(19) 0.0273(4) 0.0545(2)
H1 H 0.7589 0.0085 0.0810
C6 C 0.76861(18) 0.1536(4) 0.00477(19)
C8 C 0.8422(2) 0.2940(4) 0.0154(4)
H7 H 0.8724 0.3018 0.0087
H8 H 0.8402 0.2373 0.0323
O3 O 0.82795(12) 0.3786(2) 0.03636(15)
C9 C 0.8472(2) 0.3921(5) 0.0752(3)
H9 H 0.8785 0.4002 0.0738
H10 H 0.8419 0.3357 0.0915
C10 C 0.8273(3) 0.4822(6) 0.0937(3)
H11 H 0.8398 0.4925 0.1205
H12 H 0.8330 0.5391 0.0778
O4 O 0.78271(17) 0.4659(3) 0.09467(12)
C11 C 0.7547(3) 0.5596(5) 0.0978(3)
H13 H 0.7250 0.5423 0.1034
H14 H 0.7664 0.5995 0.1196
C12 C 0.7550(3) 0.6120(5) 0.0620(3)
H15 H 0.7374 0.6700 0.0640
H16 H 0.7846 0.6315 0.0569
O5 O 0.73871(11) 0.5556(2) 0.03128(15)
H17 H 0.7479 0.7338 0.0082
O7 O 0.67237(19) 0.3373(4) 0.0074(2)
C21 C 0.6628(3) 0.3304(5) 0.0400(3)
H25 H 0.6315 0.3336 0.0344
H26 H 0.6703 0.3963 0.0477
C22 C 0.6607(2) 0.2908(6) 0.0819(4)
H27 H 0.6588 0.2207 0.0825
H28 H 0.6372 0.3192 0.0963
O8 O 0.7049(2) 0.3278(3) 0.09606(18)
C23 C 0.7305(3) 0.2802(5) 0.1222(2)
H29 H 0.7148 0.2715 0.1463
H30 H 0.7556 0.3205 0.1290
C24 C 0.7472(2) 0.1799(4) 0.10929(19)
H31 H 0.7688 0.1549 0.1286
H32 H 0.7233 0.1339 0.1063
C5 C 0.7657(2) 0.0805(5) 0.9754(2)
H4 H 0.7667 0.0967 0.9486
O2 O 0.77363(14) 0.2510(2) 0.99501(11)
C7 C 0.8160(3) 0.2816(6) 0.9806(3)
H5 H 0.8280 0.2322 0.9636
H6 H 0.8133 0.3417 0.9657
C13 C 0.74172(18) 0.5931(5) 0.9917(2)
C14 C 0.74648(19) 0.6917(4) 0.9865(3)
C15 C 0.7490(2) 0.7242(4) 0.9495(3)
H18 H 0.7535 0.7899 0.9449
C16 C 0.7450(2) 0.6606(4) 0.9180(3)
H19 H 0.7464 0.6850 0.8923
C17 C 0.7391(2) 0.5637(5) 0.9228(3)
H20 H 0.7365 0.5220 0.9010
C18 C 0.7371(2) 0.5290(4) 0.9623(3)
O6 O 0.73300(15) 0.4311(3) 0.97339(15)
C19 C 0.7041(4) 0.3841(6) 0.9512(3)
H21 H 0.7123 0.3167 0.9482
H22 H 0.7001 0.4135 0.9250
C20 C 0.6678(3) 0.3927(7) 0.9720(4)
H23 H 0.6427 0.3700 0.9559
H24 H 0.6631 0.4602 0.9786
C3 C 0.7565(2) 0.9602(5) 0.0241(3)
H2 H 0.7507 0.8961 0.0306
C4 C 0.7613(2) 0.9822(5) 0.9868(3)
H3 H 0.7618 0.9335 0.9677
C3_2 C 0.7565(2) 0.0398(5) 0.5241(3)
H2_2 H 0.7507 0.1039 0.5306
C4_2 C 0.7613(2) 0.0178(5) 0.4868(3)
H3_2 H 0.7618 0.0665 0.4677
Na1_2 Na 0.75040(6) 0.62944(12) 0.54075(6)
O1_2 O 0.76631(11) 0.8018(2) 0.57118(10)
C1_2 C 0.76458(16) 0.8743(4) 0.54395(18)
C2_2 C 0.75981(19) 0.9727(4) 0.5545(2)
H1_2 H 0.7589 0.9915 0.5810
C5_2 C 0.7657(2) 0.9195(5) 0.4754(2)
H4_2 H 0.7667 0.9033 0.4486
C6_2 C 0.76861(18) 0.8464(4) 0.50477(19)
O2_2 O 0.77363(14) 0.7490(2) 0.49501(11)
C7_2 C 0.8160(3) 0.7184(6) 0.4806(3)
H5_2 H 0.8280 0.7678 0.4636
H6_2 H 0.8133 0.6583 0.4657
C8_2 C 0.8422(2) 0.7060(4) 0.5154(4)
H7_2 H 0.8724 0.6982 0.5087
H8_2 H 0.8402 0.7627 0.5323
O3_2 O 0.82795(12) 0.6214(2) 0.53636(15)
C9_2 C 0.8472(2) 0.6079(5) 0.5752(3)
H9_2 H 0.8785 0.5998 0.5738
H10_2 H 0.8419 0.6643 0.5915
C10_2 C 0.8273(3) 0.5178(6) 0.5937(3)
H11_2 H 0.8398 0.5075 0.6205
H12_2 H 0.8330 0.4609 0.5778
O4_2 O 0.78271(17) 0.5341(3) 0.59467(12)
C11_2 C 0.7547(3) 0.4404(5) 0.5978(3)
H13_2 H 0.7250 0.4577 0.6034
H14_2 H 0.7664 0.4005 0.6196
C12_2 C 0.7550(3) 0.3880(5) 0.5620(3)
H15_2 H 0.7374 0.3300 0.5640
H16_2 H 0.7846 0.3685 0.5569
O5_2 O 0.73871(11) 0.4444(2) 0.53128(15)
C13_2 C 0.74172(18) 0.4069(5) 0.4917(2)
C14_2 C 0.74648(19) 0.3083(4) 0.4865(3)
H17_2 H 0.7479 0.2662 0.5082
C15_2 C 0.7490(2) 0.2758(4) 0.4495(3)
H18_2 H 0.7535 0.2101 0.4449
C16_2 C 0.7450(2) 0.3394(4) 0.4180(3)
H19_2 H 0.7464 0.3150 0.3923
C17_2 C 0.7391(2) 0.4363(5) 0.4228(3)
H20_2 H 0.7365 0.4780 0.4010
C18_2 C 0.7371(2) 0.4710(4) 0.4623(3)
O6_2 O 0.73300(15) 0.5689(3) 0.47339(15)
C19_2 C 0.7041(4) 0.6159(6) 0.4512(3)
H21_2 H 0.7123 0.6833 0.4482
H22_2 H 0.7001 0.5865 0.4250
C20_2 C 0.6678(3) 0.6073(7) 0.4720(4)
H23_2 H 0.6427 0.6300 0.4559
H24_2 H 0.6631 0.5398 0.4786
O7_2 O 0.67237(19) 0.6627(4) 0.5074(2)
C21_2 C 0.6628(3) 0.6696(5) 0.5400(3)
H25_2 H 0.6315 0.6664 0.5344
H26_2 H 0.6703 0.6037 0.5477
C22_2 C 0.6607(2) 0.7092(6) 0.5819(4)
H27_2 H 0.6588 0.7793 0.5825
H28_2 H 0.6372 0.6808 0.5963
O8_2 O 0.7049(2) 0.6722(3) 0.59606(18)
C23_2 C 0.7305(3) 0.7198(5) 0.6222(2)
H29_2 H 0.7148 0.7285 0.6463
H30_2 H 0.7556 0.6795 0.6290
C24_2 C 0.7472(2) 0.8201(4) 0.60929(19)
H31_2 H 0.7688 0.8451 0.6286
H32_2 H 0.7233 0.8661 0.6063
C4_3 C 0.2387(2) 0.0178(5) 0.0132(3)
H3_3 H 0.2382 0.0665 0.0323
C3_3 C 0.2435(2) 0.0398(5) 0.9759(3)
H2_3 H 0.2493 0.1039 0.9694
C5_3 C 0.2343(2) 0.9195(5) 0.0246(2)
H4_3 H 0.2333 0.9033 0.0514
O2_3 O 0.22637(14) 0.7490(2) 0.00499(11)
C7_3 C 0.1840(3) 0.7184(6) 0.0194(3)
H5_3 H 0.1720 0.7678 0.0364
H6_3 H 0.1867 0.6583 0.0343
C13_3 C 0.25828(18) 0.4069(5) 0.0083(2)
C14_3 C 0.25352(19) 0.3083(4) 0.0135(3)
C15_3 C 0.2510(2) 0.2758(4) 0.0505(3)
H18_3 H 0.2465 0.2101 0.0551
C16_3 C 0.2550(2) 0.3394(4) 0.0820(3)
H19_3 H 0.2536 0.3150 0.1077
C17_3 C 0.2609(2) 0.4363(5) 0.0772(3)
H20_3 H 0.2635 0.4780 0.0990
C18_3 C 0.2629(2) 0.4710(4) 0.0377(3)
O6_3 O 0.26700(15) 0.5689(3) 0.02661(15)
C19_3 C 0.2959(4) 0.6159(6) 0.0488(3)
H21_3 H 0.2877 0.6833 0.0518
H22_3 H 0.2999 0.5865 0.0750
C20_3 C 0.3322(3) 0.6073(7) 0.0280(4)
H23_3 H 0.3573 0.6300 0.0441
H24_3 H 0.3369 0.5398 0.0214
Na1_3 Na 0.24960(6) 0.62944(12) 0.95925(6)
O1_3 O 0.23369(11) 0.8018(2) 0.92882(10)
C1_3 C 0.23542(16) 0.8743(4) 0.95605(18)
C2_3 C 0.24019(19) 0.9727(4) 0.9455(2)
H1_3 H 0.2411 0.9915 0.9190
C6_3 C 0.23139(18) 0.8464(4) 0.99523(19)
C8_3 C 0.1578(2) 0.7060(4) 0.9846(4)
H7_3 H 0.1276 0.6982 0.9913
H8_3 H 0.1598 0.7627 0.9677
O3_3 O 0.17205(12) 0.6214(2) 0.96364(15)
C9_3 C 0.1528(2) 0.6079(5) 0.9248(3)
H9_3 H 0.1215 0.5998 0.9262
H10_3 H 0.1581 0.6643 0.9085
C10_3 C 0.1727(3) 0.5178(6) 0.9063(3)
H11_3 H 0.1602 0.5075 0.8795
H12_3 H 0.1670 0.4609 0.9222
O4_3 O 0.21729(17) 0.5341(3) 0.90533(12)
C11_3 C 0.2453(3) 0.4404(5) 0.9022(3)
H13_3 H 0.2750 0.4577 0.8966
H14_3 H 0.2336 0.4005 0.8804
C12_3 C 0.2450(3) 0.3880(5) 0.9380(3)
H15_3 H 0.2626 0.3300 0.9360
H16_3 H 0.2154 0.3685 0.9431
O5_3 O 0.26129(11) 0.4444(2) 0.96872(15)
H17_3 H 0.2521 0.2662 0.9918
O7_3 O 0.32763(19) 0.6627(4) 0.9926(2)
C21_3 C 0.3372(3) 0.6696(5) 0.9600(3)
H25_3 H 0.3685 0.6664 0.9656
H26_3 H 0.3297 0.6037 0.9523
C22_3 C 0.3393(2) 0.7092(6) 0.9181(4)
H27_3 H 0.3412 0.7793 0.9175
H28_3 H 0.3628 0.6808 0.9037
O8_3 O 0.2951(2) 0.6722(3) 0.90394(18)
C23_3 C 0.2695(3) 0.7198(5) 0.8778(2)
H29_3 H 0.2852 0.7285 0.8537
H30_3 H 0.2444 0.6795 0.8710
C24_3 C 0.2528(2) 0.8201(4) 0.89071(19)
H31_3 H 0.2312 0.8451 0.8714
H32_3 H 0.2767 0.8661 0.8937
Na1_4 Na 0.24960(6) 0.37056(12) 0.45925(6)
O1_4 O 0.23369(11) 0.1982(2) 0.42882(10)
C1_4 C 0.23542(16) 0.1257(4) 0.45605(18)
C2_4 C 0.24019(19) 0.0273(4) 0.4455(2)
H1_4 H 0.2411 0.0085 0.4190
C5_4 C 0.2343(2) 0.0805(5) 0.5246(2)
H4_4 H 0.2333 0.0967 0.5514
C6_4 C 0.23139(18) 0.1536(4) 0.49523(19)
O2_4 O 0.22637(14) 0.2510(2) 0.50499(11)
C7_4 C 0.1840(3) 0.2816(6) 0.5194(3)
H5_4 H 0.1720 0.2322 0.5364
H6_4 H 0.1867 0.3417 0.5343
C8_4 C 0.1578(2) 0.2940(4) 0.4846(4)
H7_4 H 0.1276 0.3018 0.4913
H8_4 H 0.1598 0.2373 0.4677
O3_4 O 0.17205(12) 0.3786(2) 0.46364(15)
C9_4 C 0.1528(2) 0.3921(5) 0.4248(3)
H9_4 H 0.1215 0.4002 0.4262
H10_4 H 0.1581 0.3357 0.4085
C10_4 C 0.1727(3) 0.4822(6) 0.4063(3)
H11_4 H 0.1602 0.4925 0.3795
H12_4 H 0.1670 0.5391 0.4222
O4_4 O 0.21729(17) 0.4659(3) 0.40533(12)
C11_4 C 0.2453(3) 0.5596(5) 0.4022(3)
H13_4 H 0.2750 0.5423 0.3966
H14_4 H 0.2336 0.5995 0.3804
C12_4 C 0.2450(3) 0.6120(5) 0.4380(3)
H15_4 H 0.2626 0.6700 0.4360
H16_4 H 0.2154 0.6315 0.4431
O5_4 O 0.26129(11) 0.5556(2) 0.46872(15)
C13_4 C 0.25828(18) 0.5931(5) 0.5083(2)
C14_4 C 0.25352(19) 0.6917(4) 0.5135(3)
H17_4 H 0.2521 0.7338 0.4918
C15_4 C 0.2510(2) 0.7242(4) 0.5505(3)
H18_4 H 0.2465 0.7899 0.5551
C16_4 C 0.2550(2) 0.6606(4) 0.5820(3)
H19_4 H 0.2536 0.6850 0.6077
C17_4 C 0.2609(2) 0.5637(5) 0.5772(3)
H20_4 H 0.2635 0.5220 0.5990
C18_4 C 0.2629(2) 0.5290(4) 0.5377(3)
O6_4 O 0.26700(15) 0.4311(3) 0.52661(15)
C19_4 C 0.2959(4) 0.3841(6) 0.5488(3)
H21_4 H 0.2877 0.3167 0.5518
H22_4 H 0.2999 0.4135 0.5750
C20_4 C 0.3322(3) 0.3927(7) 0.5280(4)
H23_4 H 0.3573 0.3700 0.5441
H24_4 H 0.3369 0.4602 0.5214
O7_4 O 0.32763(19) 0.3373(4) 0.4926(2)
C21_4 C 0.3372(3) 0.3304(5) 0.4600(3)
H25_4 H 0.3685 0.3336 0.4656
H26_4 H 0.3297 0.3963 0.4523
C22_4 C 0.3393(2) 0.2908(6) 0.4181(4)
H27_4 H 0.3412 0.2207 0.4175
H28_4 H 0.3628 0.3192 0.4037
O8_4 O 0.2951(2) 0.3278(3) 0.40394(18)
C23_4 C 0.2695(3) 0.2802(5) 0.3778(2)
H29_4 H 0.2852 0.2715 0.3537
H30_4 H 0.2444 0.3205 0.3710
C24_4 C 0.2528(2) 0.1799(4) 0.39071(19)
H31_4 H 0.2312 0.1549 0.3714
H32_4 H 0.2767 0.1339 0.3937
C3_4 C 0.2435(2) 0.9602(5) 0.4759(3)
H2_4 H 0.2493 0.8961 0.4694
C4_4 C 0.2387(2) 0.9822(5) 0.5132(3)
H3_4 H 0.2382 0.9335 0.5323
N1 N 0.01261(10) 0.1983(2) 0.09308(9)
N2 N 0.06803(10) 0.2353(2) 0.02712(9)
C29 C 0.03715(14) 0.2459(3) 0.15615(13)
H34 H 0.0549 0.2713 0.1768
C30 C 0.04729(13) 0.2412(3) 0.11346(12)
C31 C 0.08490(13) 0.2781(3) 0.09775(12)
C32 C 0.09480(12) 0.2749(2) 0.05759(12)
C33 C 0.13427(13) 0.3062(3) 0.04151(12)
H35 H 0.1574 0.3358 0.0556
C34 C 0.13236(13) 0.2853(2) 0.00163(12)
C52 C 0.11762(13) 0.3289(3) 0.12489(12)
C53 C 0.14065(13) 0.2783(3) 0.15550(12)
H45 H 0.1360 0.2120 0.1582
C54 C 0.16978(13) 0.3239(3) 0.18153(12)
H46 H 0.1849 0.2884 0.2013
C55 C 0.17673(14) 0.4220(3) 0.17845(12)
C56 C 0.15441(15) 0.4742(3) 0.14838(14)
H47 H 0.1593 0.5404 0.1456
C57 C 0.12493(15) 0.4270(3) 0.12258(13)
H48 H 0.1096 0.4628 0.1031
C58 C 0.20709(13) 0.4780(3) 0.20694(13)
O11 O 0.21045(11) 0.56527(19) 0.20509(9)
O12 O 0.22779(10) 0.42421(19) 0.23337(9)
Zn1 Zn 0.003917(14) 0.19102(3) 0.031695(13)
Na5 Na 0.23433(6) 0.67206(11) 0.25465(5)
Na6 Na 0.26927(5) 0.28325(10) 0.25179(5)
O34 O 0.17399(9) 0.6625(2) 0.29705(9)
O35 O 0.27215(10) 0.5294(2) 0.27909(10)
O36 O 0.29193(10) 0.76887(19) 0.24241(9)
Na16 Na 0.24065(5) 0.88805(11) 0.27887(5)
O37 O 0.19482(13) 0.8191(2) 0.22670(10)
H93 H 0.1564 0.8245 0.2247
N3 N 0.00372(10) 0.1447(2) 0.97285(9)
H36 H 0.1538 0.2978 0.9837
C35 C 0.09106(12) 0.2405(2) 0.99294(11)
C36 C 0.07618(12) 0.2073(2) 0.95538(12)
C37 C 0.03551(12) 0.1599(3) 0.94683(12)
C38 C 0.02167(13) 0.1200(3) 0.90810(12)
H37 H 0.0375 0.1200 0.8852
C59 C 0.10446(12) 0.2237(2) 0.92062(12)
C60 C 0.14358(13) 0.1762(3) 0.91833(12)
H49 H 0.1524 0.1329 0.9384
C61 C 0.16996(12) 0.1917(2) 0.88686(12)
H50 H 0.1959 0.1574 0.8855
C62 C 0.15836(12) 0.2573(2) 0.85760(12)
C63 C 0.11859(13) 0.3038(3) 0.85977(13)
H51 H 0.1095 0.3467 0.8397
C64 C 0.09262(14) 0.2880(3) 0.89071(12)
H52 H 0.0664 0.3212 0.8917
C65 C 0.18658(13) 0.2772(3) 0.82332(13)
O13 O 0.22284(9) 0.23398(18) 0.82143(8)
O14 O 0.17399(9) 0.3375(2) 0.79705(9)
Na7 Na 0.24065(5) 0.11195(11) 0.77887(5)
Na8 Na 0.23433(6) 0.32794(11) 0.75465(5)
N4 N 0.94737(10) 0.11239(19) 0.03889(9)
C25 C 0.92514(12) 0.1085(2) 0.07265(11)
C26 C 0.94044(13) 0.1382(3) 0.11021(12)
C27 C 0.98195(13) 0.1783(3) 0.11976(12)
C28 C 0.99716(14) 0.2063(3) 0.15929(13)
H33 H 0.9823 0.1987 0.1826
C42 C 0.91993(13) 0.0796(2) 0.00816(12)
C43 C 0.87892(13) 0.0529(3) 0.02406(12)
H39 H 0.8549 0.0276 0.0097
C44 C 0.88167(13) 0.0712(3) 0.06335(12)
H40 H 0.8599 0.0617 0.0812
C45 C 0.90878(13) 0.1314(3) 0.14328(11)
C46 C 0.89398(14) 0.0421(3) 0.15574(13)
C47 C 0.86125(13) 0.0365(3) 0.18174(13)
C48 C 0.84271(13) 0.1190(3) 0.19783(12)
C49 C 0.85854(13) 0.2081(3) 0.18640(12)
H43 H 0.8472 0.2644 0.1970
C50 C 0.89090(14) 0.2144(3) 0.15941(12)
H44 H 0.9009 0.2750 0.1519
C51 C 0.80591(13) 0.1122(3) 0.22597(12)
O9 O 0.79079(9) 0.18812(19) 0.23961(9)
O10 O 0.79248(10) 0.0280(2) 0.23333(9)
N5 N 0.97405(11) 0.3311(2) 0.02272(11)
C73 C 0.97055(17) 0.3969(3) 0.05134(18)
H57 H 0.9803 0.3818 0.0773
C74 C 0.9526(2) 0.4874(3) 0.0434(2)
H58 H 0.9507 0.5336 0.0634
C75 C 0.9382(2) 0.5061(5) 0.0058(3)
H59 H 0.9255 0.5661 0.0001
C120 C 0.66812(14) 0.0489(3) 0.61113(13)
C121 C 0.65844(15) 0.0920(3) 0.57471(13)
H85 H 0.6741 0.1461 0.5672
C122 C 0.62581(15) 0.0556(3) 0.54943(14)
H86 H 0.6189 0.0861 0.5252
C123 C 0.70411(15) 0.0873(3) 0.63793(14)
O21 O 0.72277(10) 0.1672(2) 0.62498(9)
O22 O 0.71613(11) 0.0472(2) 0.66885(10)
Na2 Na 0.73720(5) 0.06717(10) 0.27386(5)
Na3 Na 0.73073(5) 0.28325(10) 0.24821(5)
O25 O 0.69433(11) 0.1384(2) 0.21902(10)
H91 H 0.6571 0.1460 0.2199
Na13 Na 0.75935(5) 0.11195(11) 0.72113(5)
O27 O 0.77779(11) 0.0006(2) 0.32812(10)
O28 O 0.71676(8) 0.18899(18) 0.31540(8)
O29 O 0.77221(10) 0.42421(19) 0.26663(9)
O30 O 0.69561(10) 0.39253(19) 0.20373(8)
O31 O 0.67413(11) 0.3062(2) 0.29335(10)
H95 H 0.700639 0.21948 0.621907
H41 H 0.9064 0.9856 0.1463
H42 H 0.8510 0.9758 0.1889
C78 C 0.56087(10) 0.4922(2) 0.50421(13)
H62 H 0.5729 0.4318 0.5103
C79 C 0.55745(13) 0.5238(3) 0.46484(13)
H63 H 0.5672 0.4845 0.4446
C80 C 0.53949(14) 0.6140(3) 0.45574(12)
H64 H 0.5372 0.6351 0.4294
N6 N 0.52494(11) 0.6728(2) 0.48602(15)
C81 C 0.52836(13) 0.6412(3) 0.52539(13)
H65 H 0.5186 0.6805 0.5456
C82 C 0.54632(13) 0.5509(3) 0.53448(12)
H66 H 0.5486 0.5298 0.5608
N7 N 0.49153(12) 0.7732(3) 0.41038(11)
N8 N 0.55562(11) 0.8693(3) 0.46334(11)
N9 N 0.49448(11) 0.8597(3) 0.52631(10)
N10 N 0.43310(11) 0.7541(3) 0.47478(10)
C83 C 0.40791(14) 0.7073(3) 0.44530(13)
C84 C 0.41930(15) 0.6971(3) 0.40654(13)
C85 C 0.45735(16) 0.7301(4) 0.38968(14)
C86 C 0.46768(16) 0.7210(4) 0.34849(15)
H67 H 0.4499 0.6936 0.3283
C87 C 0.50714(17) 0.7586(4) 0.34426(15)
H68 H 0.5216 0.7640 0.3207
C88 C 0.52304(16) 0.7897(4) 0.38354(14)
C89 C 0.56536(16) 0.8267(3) 0.39315(14)
C90 C 0.58024(14) 0.8590(3) 0.43063(14)
C91 C 0.62496(15) 0.8848(3) 0.44189(14)
H69 H 0.6485 0.8824 0.4255
C92 C 0.62640(14) 0.9128(3) 0.48037(13)
H70 H 0.6509 0.9339 0.4953
C93 C 0.58260(14) 0.9043(3) 0.49430(14)
C94 C 0.56854(13) 0.9279(3) 0.53205(13)
C95 C 0.52776(15) 0.9121(3) 0.54586(13)
C96 C 0.51189(14) 0.9422(3) 0.58367(13)
H71 H 0.5269 0.9807 0.6025
C97 C 0.47179(14) 0.9052(3) 0.58709(13)
H72 H 0.4541 0.9128 0.6086
C98 C 0.46156(13) 0.8525(3) 0.55184(12)
C99 C 0.42251(13) 0.7997(3) 0.54430(12)
C100 C 0.40990(14) 0.7539(3) 0.50838(14)
C101 C 0.36928(15) 0.7031(4) 0.50061(14)
H73 H 0.3479 0.6921 0.5188
C102 C 0.36800(15) 0.6746(4) 0.46204(13)
H74 H 0.3456 0.6403 0.4487
C103 C 0.38717(14) 0.6408(3) 0.37806(12)
C104 C 0.3895(2) 0.5431(4) 0.3759(2)
H75 H 0.4102 0.5095 0.3916
C105 C 0.3602(2) 0.4921(4) 0.34951(17)
H76 H 0.3617 0.4248 0.3486
C106 C 0.33096(14) 0.5368(3) 0.32621(13)
C107 C 0.3286(2) 0.6361(4) 0.3304(2)
H77 H 0.3079 0.6708 0.3150
C108 C 0.3559(2) 0.6838(4) 0.3564(2)
H78 H 0.3524 0.7503 0.3592
C109 C 0.30133(14) 0.4784(3) 0.29919(12)
O17 O 0.30439(10) 0.39253(19) 0.29627(8)
C110 C 0.59622(15) 0.8299(3) 0.36097(14)
C111 C 0.61236(15) 0.9165(3) 0.34748(14)
H79 H 0.6025 0.9736 0.3587
C112 C 0.64260(15) 0.9230(3) 0.31801(14)
H80 H 0.6522 0.9830 0.3094
C113 C 0.65798(15) 0.8384(3) 0.30186(13)
C114 C 0.64227(17) 0.7514(3) 0.31439(16)
H81 H 0.6518 0.6944 0.3028
C115 C 0.61261(18) 0.7464(4) 0.34377(16)
H82 H 0.6033 0.6860 0.3523
C116 C 0.69205(14) 0.8440(3) 0.27047(13)
O19 O 0.70807(10) 0.76887(19) 0.25759(9)
O20 O 0.70247(11) 0.9282(2) 0.26001(10)
C117 C 0.60295(14) 0.9719(3) 0.56032(13)
C118 C 0.61222(14) 0.9319(3) 0.59731(14)
H83 H 0.5964 0.8786 0.6055
C119 C 0.64418(15) 0.9696(3) 0.62199(14)
H84 H 0.6500 0.9413 0.6468
C124 C 0.39361(13) 0.7879(3) 0.57827(12)
C125 C 0.36310(14) 0.8545(3) 0.58719(12)
H87 H 0.3591 0.9082 0.5706
C126 C 0.33764(14) 0.8460(3) 0.61979(12)
H88 H 0.3171 0.8935 0.6247
C127 C 0.34243(12) 0.7679(3) 0.64499(12)
C128 C 0.37281(18) 0.7005(4) 0.63491(15)
H89 H 0.3763 0.6452 0.6506
C129 C 0.39803(18) 0.7109(4) 0.60305(16)
H90 H 0.4188 0.6640 0.5982
C130 C 0.31578(13) 0.7557(3) 0.68087(12)
O23 O 0.28324(8) 0.81101(18) 0.68460(8)
O24 O 0.32587(11) 0.6938(2) 0.70665(10)
Zn2 Zn 0.496990(17) 0.79859(4) 0.470630(15)
Na4 Na 0.75935(5) 0.88805(11) 0.22113(5)
O26 O 0.80518(13) 0.8191(2) 0.27330(10)
H92 H 0.8436 0.8245 0.2753
Na12 Na 0.76567(6) 0.67206(11) 0.24535(5)
Na14 Na 0.26280(5) 0.93283(10) 0.72614(5)
Na15 Na 0.26927(5) 0.71675(10) 0.75179(5)
O32 O 0.77716(9) 0.76602(18) 0.17857(8)
O33 O 0.71613(11) 0.9528(2) 0.16885(10)
C67 C 0.87417(13) 0.9526(3) 0.94294(13)
H53 H 0.8837 0.9114 0.9635
C68 C 0.84038(13) 0.9249(3) 0.91738(12)
H54 H 0.8269 0.8653 0.9210
C69 C 0.82600(13) 0.9838(3) 0.88637(13)
C72 C 0.78905(13) 0.9518(3) 0.85809(13)
O15 O 0.77070(9) 0.8718(2) 0.86860(9)
O16 O 0.77779(11) 0.9994(2) 0.82812(10)
Na9 Na 0.73720(5) 0.93283(10) 0.77386(5)
H94 H 0.758595 0.880171 0.895288
N1_2 N 0.01261(10) 0.8017(2) 0.59308(9)
N2_2 N 0.06803(10) 0.7647(2) 0.52712(9)
N3_2 N 0.00372(10) 0.8553(2) 0.47285(9)
C29_2 C 0.03715(14) 0.7541(3) 0.65615(13)
H34_2 H 0.0549 0.7287 0.6768
C30_2 C 0.04729(13) 0.7588(3) 0.61346(12)
C31_2 C 0.08490(13) 0.7219(3) 0.59775(12)
C32_2 C 0.09480(12) 0.7251(2) 0.55759(12)
C33_2 C 0.13427(13) 0.6938(3) 0.54151(12)
H35_2 H 0.1574 0.6642 0.5556
C34_2 C 0.13236(13) 0.7147(2) 0.50163(12)
H36_2 H 0.1538 0.7022 0.4837
C35_2 C 0.09106(12) 0.7595(2) 0.49294(11)
C36_2 C 0.07618(12) 0.7927(2) 0.45538(12)
C37_2 C 0.03551(12) 0.8401(3) 0.44683(12)
C38_2 C 0.02167(13) 0.8800(3) 0.40810(12)
H37_2 H 0.0375 0.8800 0.3852
C52_2 C 0.11762(13) 0.6711(3) 0.62489(12)
C53_2 C 0.14065(13) 0.7217(3) 0.65550(12)
H45_2 H 0.1360 0.7880 0.6582
C54_2 C 0.16978(13) 0.6761(3) 0.68153(12)
H46_2 H 0.1849 0.7116 0.7013
C55_2 C 0.17673(14) 0.5780(3) 0.67845(12)
C56_2 C 0.15441(15) 0.5258(3) 0.64838(14)
H47_2 H 0.1593 0.4596 0.6456
C57_2 C 0.12493(15) 0.5730(3) 0.62258(13)
H48_2 H 0.1096 0.5372 0.6031
C58_2 C 0.20709(13) 0.5220(3) 0.70694(13)
O11_2 O 0.21045(11) 0.43473(19) 0.70509(9)
O12_2 O 0.22779(10) 0.57579(19) 0.73337(9)
C59_2 C 0.10446(12) 0.7763(2) 0.42062(12)
C60_2 C 0.14358(13) 0.8238(3) 0.41833(12)
H49_2 H 0.1524 0.8671 0.4384
C61_2 C 0.16996(12) 0.8083(2) 0.38686(12)
H50_2 H 0.1959 0.8426 0.3855
C62_2 C 0.15836(12) 0.7427(2) 0.35760(12)
C63_2 C 0.11859(13) 0.6962(3) 0.35977(13)
H51_2 H 0.1095 0.6533 0.3397
C64_2 C 0.09262(14) 0.7120(3) 0.39071(12)
H52_2 H 0.0664 0.6788 0.3917
C65_2 C 0.18658(13) 0.7228(3) 0.32332(13)
O13_2 O 0.22284(9) 0.76602(18) 0.32143(8)
Zn1_2 Zn 0.003917(14) 0.80898(3) 0.531695(13)
O35_2 O 0.27215(10) 0.4706(2) 0.77909(10)
O36_2 O 0.29193(10) 0.23113(19) 0.74241(9)
O37_2 O 0.19482(13) 0.1809(2) 0.72670(10)
H93_2 H 0.1564 0.1755 0.7247
C78_2 C 0.56087(10) 0.5078(2) 0.00421(13)
H62_2 H 0.5729 0.5682 0.0103
C81_2 C 0.52836(13) 0.3588(3) 0.02539(13)
H65_2 H 0.5186 0.3195 0.0456
C82_2 C 0.54632(13) 0.4491(3) 0.03448(12)
H66_2 H 0.5486 0.4702 0.0608
N9_2 N 0.49448(11) 0.1403(3) 0.02631(10)
C94_2 C 0.56854(13) 0.0721(3) 0.03205(13)
C95_2 C 0.52776(15) 0.0879(3) 0.04586(13)
C96_2 C 0.51189(14) 0.0578(3) 0.08367(13)
H71_2 H 0.5269 0.0193 0.1025
C97_2 C 0.47179(14) 0.0948(3) 0.08709(13)
H72_2 H 0.4541 0.0872 0.1086
C98_2 C 0.46156(13) 0.1475(3) 0.05184(12)
C99_2 C 0.42251(13) 0.2003(3) 0.04430(12)
C100_2 C 0.40990(14) 0.2461(3) 0.00838(14)
C101_2 C 0.36928(15) 0.2969(4) 0.00061(14)
H73_2 H 0.3479 0.3079 0.0188
C117_2 C 0.60295(14) 0.0281(3) 0.06032(13)
C118_2 C 0.61222(14) 0.0681(3) 0.09731(14)
H83_2 H 0.5964 0.1214 0.1055
C119_2 C 0.64418(15) 0.0304(3) 0.12199(14)
H84_2 H 0.6500 0.0587 0.1468
C124_2 C 0.39361(13) 0.2121(3) 0.07827(12)
C125_2 C 0.36310(14) 0.1455(3) 0.08719(12)
H87_2 H 0.3591 0.0918 0.0706
C126_2 C 0.33764(14) 0.1540(3) 0.11979(12)
H88_2 H 0.3171 0.1065 0.1247
C127_2 C 0.34243(12) 0.2321(3) 0.14499(12)
C128_2 C 0.37281(18) 0.2995(4) 0.13491(15)
H89_2 H 0.3763 0.3548 0.1506
C129_2 C 0.39803(18) 0.2891(4) 0.10305(16)
H90_2 H 0.4188 0.3360 0.0982
C130_2 C 0.31578(13) 0.2443(3) 0.18087(12)
O23_2 O 0.28324(8) 0.18899(18) 0.18460(8)
O24_2 O 0.32587(11) 0.3062(2) 0.20665(10)
Na14_2 Na 0.26280(5) 0.06717(10) 0.22614(5)
H41_2 H 0.9064 0.0144 0.6463
H42_2 H 0.8510 0.0242 0.6889
C67_2 C 0.87417(13) 0.0474(3) 0.44294(13)
H53_2 H 0.8837 0.0886 0.4635
C68_2 C 0.84038(13) 0.0751(3) 0.41738(12)
H54_2 H 0.8269 0.1347 0.4210
C69_2 C 0.82600(13) 0.0162(3) 0.38637(13)
C72_2 C 0.78905(13) 0.0482(3) 0.35809(13)
O15_2 O 0.77070(9) 0.1282(2) 0.36860(9)
C79_2 C 0.55745(13) 0.4762(3) 0.96484(13)
H63_2 H 0.5672 0.5155 0.9446
C80_2 C 0.53949(14) 0.3860(3) 0.95574(12)
H64_2 H 0.5372 0.3649 0.9294
N6_2 N 0.52494(11) 0.3272(2) 0.98602(15)
N7_2 N 0.49153(12) 0.2268(3) 0.91038(11)
N8_2 N 0.55562(11) 0.1307(3) 0.96334(11)
N10_2 N 0.43310(11) 0.2459(3) 0.97478(10)
C83_2 C 0.40791(14) 0.2927(3) 0.94530(13)
C84_2 C 0.41930(15) 0.3029(3) 0.90654(13)
C85_2 C 0.45735(16) 0.2699(4) 0.88968(14)
C86_2 C 0.46768(16) 0.2790(4) 0.84849(15)
H67_2 H 0.4499 0.3064 0.8283
C87_2 C 0.50714(17) 0.2414(4) 0.84426(15)
H68_2 H 0.5216 0.2360 0.8207
C88_2 C 0.52304(16) 0.2103(4) 0.88354(14)
C89_2 C 0.56536(16) 0.1733(3) 0.89315(14)
C90_2 C 0.58024(14) 0.1410(3) 0.93063(14)
C91_2 C 0.62496(15) 0.1152(3) 0.94189(14)
H69_2 H 0.6485 0.1176 0.9255
C92_2 C 0.62640(14) 0.0872(3) 0.98037(13)
H70_2 H 0.6509 0.0661 0.9953
C93_2 C 0.58260(14) 0.0957(3) 0.99430(14)
C102_2 C 0.36800(15) 0.3254(4) 0.96204(13)
H74_2 H 0.3456 0.3597 0.9487
C103_2 C 0.38717(14) 0.3592(3) 0.87806(12)
C104_2 C 0.3895(2) 0.4569(4) 0.8759(2)
H75_2 H 0.4102 0.4905 0.8916
C105_2 C 0.3602(2) 0.5079(4) 0.84951(17)
H76_2 H 0.3617 0.5752 0.8486
C106_2 C 0.33096(14) 0.4632(3) 0.82621(13)
C107_2 C 0.3286(2) 0.3639(4) 0.8304(2)
H77_2 H 0.3079 0.3292 0.8150
C108_2 C 0.3559(2) 0.3162(4) 0.8564(2)
H78_2 H 0.3524 0.2497 0.8592
C109_2 C 0.30133(14) 0.5216(3) 0.79919(12)
O17_2 O 0.30439(10) 0.60747(19) 0.79627(8)
C110_2 C 0.59622(15) 0.1701(3) 0.86097(14)
C111_2 C 0.61236(15) 0.0835(3) 0.84748(14)
H79_2 H 0.6025 0.0264 0.8587
C112_2 C 0.64260(15) 0.0770(3) 0.81801(14)
H80_2 H 0.6522 0.0170 0.8094
C113_2 C 0.65798(15) 0.1616(3) 0.80186(13)
C114_2 C 0.64227(17) 0.2486(3) 0.81439(16)
H81_2 H 0.6518 0.3056 0.8028
C115_2 C 0.61261(18) 0.2536(4) 0.84377(16)
H82_2 H 0.6033 0.3140 0.8523
C116_2 C 0.69205(14) 0.1560(3) 0.77047(13)
O19_2 O 0.70807(10) 0.23113(19) 0.75759(9)
O20_2 O 0.70247(11) 0.0718(2) 0.76001(10)
Zn2_2 Zn 0.496990(17) 0.20141(4) 0.970630(15)
O26_2 O 0.80518(13) 0.1809(2) 0.77330(10)
H92_2 H 0.8436 0.1755 0.7753
Na12_2 Na 0.76567(6) 0.32794(11) 0.74535(5)
O32_2 O 0.77716(9) 0.23398(18) 0.67857(8)
H94_2 H 0.758595 0.119829 0.395288
C120_2 C 0.66812(14) 0.9511(3) 0.11113(13)
C121_2 C 0.65844(15) 0.9080(3) 0.07471(13)
H85_2 H 0.6741 0.8539 0.0672
C122_2 C 0.62581(15) 0.9444(3) 0.04943(14)
H86_2 H 0.6189 0.9139 0.0252
C123_2 C 0.70411(15) 0.9127(3) 0.13793(14)
O21_2 O 0.72277(10) 0.8328(2) 0.12498(9)
H95_2 H 0.700639 0.78052 0.121907
N4_2 N 0.94737(10) 0.88761(19) 0.53889(9)
C25_2 C 0.92514(12) 0.8915(2) 0.57265(11)
C26_2 C 0.94044(13) 0.8618(3) 0.61021(12)
C27_2 C 0.98195(13) 0.8217(3) 0.61976(12)
C28_2 C 0.99716(14) 0.7937(3) 0.65929(13)
H33_2 H 0.9823 0.8013 0.6826
C39 C 0.98138(13) 0.9169(3) 0.41203(12)
H38 H 0.9643 0.9478 0.3922
C40 C 0.96976(12) 0.9000(2) 0.45197(12)
C41 C 0.93020(12) 0.9249(2) 0.46788(11)
C42_2 C 0.91993(13) 0.9204(2) 0.50816(12)
C43_2 C 0.87892(13) 0.9471(3) 0.52406(12)
H39_2 H 0.8549 0.9724 0.5097
C44_2 C 0.88167(13) 0.9288(3) 0.56335(12)
H40_2 H 0.8599 0.9383 0.5812
C45_2 C 0.90878(13) 0.8686(3) 0.64328(11)
C46_2 C 0.89398(14) 0.9579(3) 0.65574(13)
C47_2 C 0.86125(13) 0.9635(3) 0.68174(13)
C48_2 C 0.84271(13) 0.8810(3) 0.69783(12)
C49_2 C 0.85854(13) 0.7919(3) 0.68640(12)
H43_2 H 0.8472 0.7356 0.6970
C50_2 C 0.89090(14) 0.7856(3) 0.65941(12)
H44_2 H 0.9009 0.7250 0.6519
C51_2 C 0.80591(13) 0.8878(3) 0.72597(12)
O9_2 O 0.79079(9) 0.81188(19) 0.73961(9)
O10_2 O 0.79248(10) 0.9720(2) 0.73333(9)
C66 C 0.89441(13) 0.9575(3) 0.43842(12)
C70 C 0.84607(14) 0.9266(3) 0.38169(13)
H55 H 0.8368 0.8863 0.3607
C71 C 0.87943(14) 0.8973(3) 0.40777(12)
H56 H 0.8920 0.8366 0.4048
N5_2 N 0.97405(11) 0.6689(2) 0.52272(11)
C73_2 C 0.97055(17) 0.6031(3) 0.55134(18)
H57_2 H 0.9803 0.6182 0.5773
C74_2 C 0.9526(2) 0.5126(3) 0.5434(2)
H58_2 H 0.9507 0.4664 0.5634
C75_2 C 0.9382(2) 0.4939(5) 0.5058(3)
H59_2 H 0.9255 0.4339 0.5001
C76 C 0.9412(3) 0.5577(4) 0.4762(3)
H60 H 0.9315 0.5432 0.4502
C77 C 0.95907(16) 0.6450(3) 0.48620(19)
H61 H 0.9610 0.6911 0.4661
Na3_2 Na 0.73073(5) 0.71675(10) 0.74821(5)
O25_2 O 0.69433(11) 0.8616(2) 0.71902(10)
H91_2 H 0.6571 0.8540 0.7199
O28_2 O 0.71676(8) 0.81101(18) 0.81540(8)
O29_2 O 0.77221(10) 0.57579(19) 0.76663(9)
O30_2 O 0.69561(10) 0.60747(19) 0.70373(8)
O31_2 O 0.67413(11) 0.6938(2) 0.79335(10)
C67_3 C 0.12583(13) 0.0474(3) 0.05706(13)
H53_3 H 0.1163 0.0886 0.0365
C68_3 C 0.15962(13) 0.0751(3) 0.08262(12)
H54_3 H 0.1731 0.1347 0.0790
C69_3 C 0.17400(13) 0.0162(3) 0.11363(13)
C72_3 C 0.21095(13) 0.0482(3) 0.14191(13)
O15_3 O 0.22930(9) 0.1282(2) 0.13140(9)
O16_2 O 0.22221(11) 0.0006(2) 0.17188(10)
H94_3 H 0.241405 0.119829 0.104712
H41_3 H 0.0936 0.0144 0.8537
H42_3 H 0.1490 0.0242 0.8111
C78_3 C 0.43913(10) 0.5078(2) 0.49579(13)
H62_3 H 0.4271 0.5682 0.4897
C79_3 C 0.44255(13) 0.4762(3) 0.53516(13)
H63_3 H 0.4328 0.5155 0.5554
C80_3 C 0.46051(14) 0.3860(3) 0.54426(12)
H64_3 H 0.4628 0.3649 0.5706
N6_3 N 0.47506(11) 0.3272(2) 0.51398(15)
C81_3 C 0.47164(13) 0.3588(3) 0.47461(13)
H65_3 H 0.4814 0.3195 0.4544
C82_3 C 0.45368(13) 0.4491(3) 0.46552(12)
H66_3 H 0.4514 0.4702 0.4392
N7_3 N 0.50847(12) 0.2268(3) 0.58962(11)
N8_3 N 0.44438(11) 0.1307(3) 0.53666(11)
N9_3 N 0.50552(11) 0.1403(3) 0.47369(10)
N10_3 N 0.56690(11) 0.2459(3) 0.52522(10)
C83_3 C 0.59209(14) 0.2927(3) 0.55470(13)
C84_3 C 0.58070(15) 0.3029(3) 0.59346(13)
C85_3 C 0.54265(16) 0.2699(4) 0.61032(14)
C86_3 C 0.53232(16) 0.2790(4) 0.65151(15)
H67_3 H 0.5501 0.3064 0.6717
C87_3 C 0.49286(17) 0.2414(4) 0.65574(15)
H68_3 H 0.4784 0.2360 0.6793
C88_3 C 0.47696(16) 0.2103(4) 0.61646(14)
C89_3 C 0.43464(16) 0.1733(3) 0.60685(14)
C90_3 C 0.41976(14) 0.1410(3) 0.56937(14)
C91_3 C 0.37504(15) 0.1152(3) 0.55811(14)
H69_3 H 0.3515 0.1176 0.5745
C92_3 C 0.37360(14) 0.0872(3) 0.51963(13)
H70_3 H 0.3491 0.0661 0.5047
C93_3 C 0.41740(14) 0.0957(3) 0.50570(14)
C94_3 C 0.43146(13) 0.0721(3) 0.46795(13)
C95_3 C 0.47224(15) 0.0879(3) 0.45414(13)
C96_3 C 0.48811(14) 0.0578(3) 0.41633(13)
H71_3 H 0.4731 0.0193 0.3975
C97_3 C 0.52821(14) 0.0948(3) 0.41291(13)
H72_3 H 0.5459 0.0872 0.3914
C98_3 C 0.53844(13) 0.1475(3) 0.44816(12)
C99_3 C 0.57749(13) 0.2003(3) 0.45570(12)
C100_3 C 0.59010(14) 0.2461(3) 0.49162(14)
C101_3 C 0.63072(15) 0.2969(4) 0.49939(14)
H73_3 H 0.6521 0.3079 0.4812
C102_3 C 0.63200(15) 0.3254(4) 0.53796(13)
H74_3 H 0.6544 0.3597 0.5513
C103_3 C 0.61283(14) 0.3592(3) 0.62194(12)
C104_3 C 0.6105(2) 0.4569(4) 0.6241(2)
H75_3 H 0.5898 0.4905 0.6084
C105_3 C 0.6398(2) 0.5079(4) 0.65049(17)
H76_3 H 0.6383 0.5752 0.6514
C106_3 C 0.66904(14) 0.4632(3) 0.67379(13)
C107_3 C 0.6714(2) 0.3639(4) 0.6696(2)
H77_3 H 0.6921 0.3292 0.6850
C108_3 C 0.6441(2) 0.3162(4) 0.6436(2)
H78_3 H 0.6476 0.2497 0.6408
C109_3 C 0.69867(14) 0.5216(3) 0.70081(12)
O18 O 0.72785(10) 0.4706(2) 0.72091(10)
C110_3 C 0.40378(15) 0.1701(3) 0.63903(14)
C111_3 C 0.38764(15) 0.0835(3) 0.65252(14)
H79_3 H 0.3975 0.0264 0.6413
C112_3 C 0.35740(15) 0.0770(3) 0.68199(14)
H80_3 H 0.3478 0.0170 0.6906
C113_3 C 0.34202(15) 0.1616(3) 0.69814(13)
C114_3 C 0.35773(17) 0.2486(3) 0.68561(16)
H81_3 H 0.3482 0.3056 0.6972
C115_3 C 0.38739(18) 0.2536(4) 0.65623(16)
H82_3 H 0.3967 0.3140 0.6477
C116_3 C 0.30795(14) 0.1560(3) 0.72953(13)
O20_3 O 0.29753(11) 0.0718(2) 0.73999(10)
C117_3 C 0.39705(14) 0.0281(3) 0.43968(13)
C118_3 C 0.38778(14) 0.0681(3) 0.40269(14)
H83_3 H 0.4036 0.1214 0.3945
C119_3 C 0.35582(15) 0.0304(3) 0.37801(14)
H84_3 H 0.3500 0.0587 0.3532
C124_3 C 0.60639(13) 0.2121(3) 0.42173(12)
C125_3 C 0.63690(14) 0.1455(3) 0.41281(12)
H87_3 H 0.6409 0.0918 0.4294
C126_3 C 0.66236(14) 0.1540(3) 0.38021(12)
H88_3 H 0.6829 0.1065 0.3753
C127_3 C 0.65757(12) 0.2321(3) 0.35501(12)
C128_3 C 0.62719(18) 0.2995(4) 0.36509(15)
H89_3 H 0.6237 0.3548 0.3494
C129_3 C 0.60197(18) 0.2891(4) 0.39695(16)
H90_3 H 0.5812 0.3360 0.4018
C130_3 C 0.68422(13) 0.2443(3) 0.31913(12)
Zn2_3 Zn 0.503010(17) 0.20141(4) 0.529370(15)
O33_2 O 0.28387(11) 0.0472(2) 0.83115(10)
N4_3 N 0.05263(10) 0.88761(19) 0.96111(9)
C25_3 C 0.07486(12) 0.8915(2) 0.92735(11)
C26_3 C 0.05956(13) 0.8618(3) 0.88979(12)
C27_3 C 0.01805(13) 0.8217(3) 0.88024(12)
C28_3 C 0.00284(14) 0.7937(3) 0.84071(13)
H33_3 H 0.0177 0.8013 0.8174
C42_3 C 0.08007(13) 0.9204(2) 0.99184(12)
C43_3 C 0.12108(13) 0.9471(3) 0.97594(12)
H39_3 H 0.1451 0.9724 0.9903
C44_3 C 0.11833(13) 0.9288(3) 0.93665(12)
H40_3 H 0.1401 0.9383 0.9188
C45_3 C 0.09122(13) 0.8686(3) 0.85672(11)
C46_3 C 0.10602(14) 0.9579(3) 0.84426(13)
C47_3 C 0.13875(13) 0.9635(3) 0.81826(13)
C48_3 C 0.15729(13) 0.8810(3) 0.80217(12)
C49_3 C 0.14146(13) 0.7919(3) 0.81360(12)
H43_3 H 0.1528 0.7356 0.8030
C50_3 C 0.10910(14) 0.7856(3) 0.84059(12)
H44_3 H 0.0991 0.7250 0.8481
C51_3 C 0.19409(13) 0.8878(3) 0.77403(12)
O9_3 O 0.20921(9) 0.81188(19) 0.76039(9)
O10_3 O 0.20752(10) 0.9720(2) 0.76667(9)
N5_3 N 0.02595(11) 0.6689(2) 0.97728(11)
C73_3 C 0.02945(17) 0.6031(3) 0.94866(18)
H57_3 H 0.0197 0.6182 0.9227
C74_3 C 0.0474(2) 0.5126(3) 0.9566(2)
H58_3 H 0.0493 0.4664 0.9366
C75_3 C 0.0618(2) 0.4939(5) 0.9942(3)
H59_3 H 0.0745 0.4339 0.9999
C120_3 C 0.33188(14) 0.9511(3) 0.38887(13)
C121_3 C 0.34156(15) 0.9080(3) 0.42529(13)
H85_3 H 0.3259 0.8539 0.4328
C122_3 C 0.37419(15) 0.9444(3) 0.45057(14)
H86_3 H 0.3811 0.9139 0.4748
C123_3 C 0.29589(15) 0.9127(3) 0.36207(14)
O21_3 O 0.27723(10) 0.8328(2) 0.37502(9)
O22_2 O 0.28387(11) 0.9528(2) 0.33115(10)
O25_3 O 0.30567(11) 0.8616(2) 0.78098(10)
H91_3 H 0.3429 0.8540 0.7801
O27_2 O 0.22221(11) 0.9994(2) 0.67188(10)
H95_3 H 0.299361 0.78052 0.378093
N3_3 N 0.99628(10) 0.8553(2) 0.02715(9)
H36_3 H 0.8462 0.7022 0.0163
C35_3 C 0.90894(12) 0.7595(2) 0.00706(11)
C36_3 C 0.92382(12) 0.7927(2) 0.04462(12)
C37_3 C 0.96449(12) 0.8401(3) 0.05317(12)
C38_3 C 0.97833(13) 0.8800(3) 0.09190(12)
H37_3 H 0.9625 0.8800 0.1148
C59_3 C 0.89554(12) 0.7763(2) 0.07938(12)
C60_3 C 0.85642(13) 0.8238(3) 0.08167(12)
H49_3 H 0.8476 0.8671 0.0616
C61_3 C 0.83004(12) 0.8083(2) 0.11314(12)
H50_3 H 0.8041 0.8426 0.1145
C62_3 C 0.84164(12) 0.7427(2) 0.14240(12)
C63_3 C 0.88141(13) 0.6962(3) 0.14023(13)
H51_3 H 0.8905 0.6533 0.1603
C64_3 C 0.90738(14) 0.7120(3) 0.10929(12)
H52_3 H 0.9336 0.6788 0.1083
C65_3 C 0.81342(13) 0.7228(3) 0.17668(13)
O14_2 O 0.82601(9) 0.6625(2) 0.20295(9)
N1_3 N 0.98739(10) 0.8017(2) 0.90692(9)
N2_3 N 0.93197(10) 0.7647(2) 0.97288(9)
C29_3 C 0.96285(14) 0.7541(3) 0.84385(13)
H34_3 H 0.9451 0.7287 0.8232
C30_3 C 0.95271(13) 0.7588(3) 0.88654(12)
C31_3 C 0.91510(13) 0.7219(3) 0.90225(12)
C32_3 C 0.90520(12) 0.7251(2) 0.94241(12)
C33_3 C 0.86573(13) 0.6938(3) 0.95849(12)
H35_3 H 0.8426 0.6642 0.9444
C34_3 C 0.86764(13) 0.7147(2) 0.99837(12)
C52_3 C 0.88238(13) 0.6711(3) 0.87511(12)
C53_3 C 0.85935(13) 0.7217(3) 0.84450(12)
H45_3 H 0.8640 0.7880 0.8418
C54_3 C 0.83022(13) 0.6761(3) 0.81847(12)
H46_3 H 0.8151 0.7116 0.7987
C55_3 C 0.82327(14) 0.5780(3) 0.82155(12)
C56_3 C 0.84559(15) 0.5258(3) 0.85162(14)
H47_3 H 0.8407 0.4596 0.8544
C57_3 C 0.87507(15) 0.5730(3) 0.87742(13)
H48_3 H 0.8904 0.5372 0.8969
C58_3 C 0.79291(13) 0.5220(3) 0.79306(13)
O11_3 O 0.78955(11) 0.43473(19) 0.79491(9)
Zn1_3 Zn 0.996083(14) 0.80898(3) 0.968305(13)
O34_2 O 0.82601(9) 0.3375(2) 0.70295(9)
N4_4 N 0.05263(10) 0.11239(19) 0.46111(9)
C25_4 C 0.07486(12) 0.1085(2) 0.42735(11)
C26_4 C 0.05956(13) 0.1382(3) 0.38979(12)
C27_4 C 0.01805(13) 0.1783(3) 0.38024(12)
C28_4 C 0.00284(14) 0.2063(3) 0.34071(13)
H33_4 H 0.0177 0.1987 0.3174
C39_2 C 0.01862(13) 0.0831(3) 0.58797(12)
H38_2 H 0.0357 0.0522 0.6078
C40_2 C 0.03024(12) 0.1000(2) 0.54803(12)
C41_2 C 0.06980(12) 0.0751(2) 0.53212(11)
C42_4 C 0.08007(13) 0.0796(2) 0.49184(12)
C43_4 C 0.12108(13) 0.0529(3) 0.47594(12)
H39_4 H 0.1451 0.0276 0.4903
C44_4 C 0.11833(13) 0.0712(3) 0.43665(12)
H40_4 H 0.1401 0.0617 0.4188
C45_4 C 0.09122(13) 0.1314(3) 0.35672(11)
C46_4 C 0.10602(14) 0.0421(3) 0.34426(13)
C47_4 C 0.13875(13) 0.0365(3) 0.31826(13)
C48_4 C 0.15729(13) 0.1190(3) 0.30217(12)
C49_4 C 0.14146(13) 0.2081(3) 0.31360(12)
H43_4 H 0.1528 0.2644 0.3030
C50_4 C 0.10910(14) 0.2144(3) 0.34059(12)
H44_4 H 0.0991 0.2750 0.3481
C51_4 C 0.19409(13) 0.1122(3) 0.27403(12)
O9_4 O 0.20921(9) 0.18812(19) 0.26039(9)
O10_4 O 0.20752(10) 0.0280(2) 0.26667(9)
C66_2 C 0.10559(13) 0.0425(3) 0.56158(12)
C70_2 C 0.15393(14) 0.0734(3) 0.61831(13)
H55_2 H 0.1632 0.1137 0.6393
C71_2 C 0.12057(14) 0.1027(3) 0.59223(12)
H56_2 H 0.1080 0.1634 0.5952
N5_4 N 0.02595(11) 0.3311(2) 0.47728(11)
C73_4 C 0.02945(17) 0.3969(3) 0.44866(18)
H57_4 H 0.0197 0.3818 0.4227
C74_4 C 0.0474(2) 0.4874(3) 0.4566(2)
H58_4 H 0.0493 0.5336 0.4366
C75_4 C 0.0618(2) 0.5061(5) 0.4942(3)
H59_4 H 0.0745 0.5661 0.4999
C76_2 C 0.0588(3) 0.4423(4) 0.5238(3)
H60_2 H 0.0685 0.4568 0.5498
C77_2 C 0.04093(16) 0.3550(3) 0.51380(19)
H61_2 H 0.0390 0.3089 0.5339
O25_4 O 0.30567(11) 0.1384(2) 0.28098(10)
H91_4 H 0.3429 0.1460 0.2801
C120_4 C 0.33188(14) 0.0489(3) 0.88887(13)
C121_4 C 0.34156(15) 0.0920(3) 0.92529(13)
H85_4 H 0.3259 0.1461 0.9328
C122_4 C 0.37419(15) 0.0556(3) 0.95057(14)
H86_4 H 0.3811 0.0861 0.9748
C123_4 C 0.29589(15) 0.0873(3) 0.86207(14)
O21_4 O 0.27723(10) 0.1672(2) 0.87502(9)
H95_4 H 0.299361 0.21948 0.878093
H41_4 H 0.0936 0.9856 0.3537
H42_4 H 0.1490 0.9758 0.3111
C67_4 C 0.12583(13) 0.9526(3) 0.55706(13)
H53_4 H 0.1163 0.9114 0.5365
C68_4 C 0.15962(13) 0.9249(3) 0.58262(12)
H54_4 H 0.1731 0.8653 0.5790
C69_4 C 0.17400(13) 0.9838(3) 0.61363(13)
C72_4 C 0.21095(13) 0.9518(3) 0.64191(13)
O15_4 O 0.22930(9) 0.8718(2) 0.63140(9)
C79_4 C 0.44255(13) 0.5238(3) 0.03516(13)
H63_4 H 0.4328 0.4845 0.0554
C80_4 C 0.46051(14) 0.6140(3) 0.04426(12)
H64_4 H 0.4628 0.6351 0.0706
N6_4 N 0.47506(11) 0.6728(2) 0.01398(15)
N7_4 N 0.50847(12) 0.7732(3) 0.08962(11)
N8_4 N 0.44438(11) 0.8693(3) 0.03666(11)
N10_4 N 0.56690(11) 0.7541(3) 0.02522(10)
C83_4 C 0.59209(14) 0.7073(3) 0.05470(13)
C84_4 C 0.58070(15) 0.6971(3) 0.09346(13)
C85_4 C 0.54265(16) 0.7301(4) 0.11032(14)
C86_4 C 0.53232(16) 0.7210(4) 0.15151(15)
H67_4 H 0.5501 0.6936 0.1717
C87_4 C 0.49286(17) 0.7586(4) 0.15574(15)
H68_4 H 0.4784 0.7640 0.1793
C88_4 C 0.47696(16) 0.7897(4) 0.11646(14)
C89_4 C 0.43464(16) 0.8267(3) 0.10685(14)
C90_4 C 0.41976(14) 0.8590(3) 0.06937(14)
C91_4 C 0.37504(15) 0.8848(3) 0.05811(14)
H69_4 H 0.3515 0.8824 0.0745
C92_4 C 0.37360(14) 0.9128(3) 0.01963(13)
H70_4 H 0.3491 0.9339 0.0047
C93_4 C 0.41740(14) 0.9043(3) 0.00570(14)
C102_4 C 0.63200(15) 0.6746(4) 0.03796(13)
H74_4 H 0.6544 0.6403 0.0513
C103_4 C 0.61283(14) 0.6408(3) 0.12194(12)
C104_4 C 0.6105(2) 0.5431(4) 0.1241(2)
H75_4 H 0.5898 0.5095 0.1084
C105_4 C 0.6398(2) 0.4921(4) 0.15049(17)
H76_4 H 0.6383 0.4248 0.1514
C106_4 C 0.66904(14) 0.5368(3) 0.17379(13)
C107_4 C 0.6714(2) 0.6361(4) 0.1696(2)
H77_4 H 0.6921 0.6708 0.1850
C108_4 C 0.6441(2) 0.6838(4) 0.1436(2)
H78_4 H 0.6476 0.7503 0.1408
C109_4 C 0.69867(14) 0.4784(3) 0.20081(12)
O18_2 O 0.72785(10) 0.5294(2) 0.22091(10)
C110_4 C 0.40378(15) 0.8299(3) 0.13903(14)
C111_4 C 0.38764(15) 0.9165(3) 0.15252(14)
H79_4 H 0.3975 0.9736 0.1413
C112_4 C 0.35740(15) 0.9230(3) 0.18199(14)
H80_4 H 0.3478 0.9830 0.1906
C113_4 C 0.34202(15) 0.8384(3) 0.19814(13)
C114_4 C 0.35773(17) 0.7514(3) 0.18561(16)
H81_4 H 0.3482 0.6944 0.1972
C115_4 C 0.38739(18) 0.7464(4) 0.15623(16)
H82_4 H 0.3967 0.6860 0.1477
C116_4 C 0.30795(14) 0.8440(3) 0.22953(13)
O20_4 O 0.29753(11) 0.9282(2) 0.23999(10)
Zn2_4 Zn 0.503010(17) 0.79859(4) 0.029370(15)
H94_4 H 0.241405 0.880171 0.604712
C78_4 C 0.43913(10) 0.4922(2) 0.99579(13)
H62_4 H 0.4271 0.4318 0.9897
C81_4 C 0.47164(13) 0.6412(3) 0.97461(13)
H65_4 H 0.4814 0.6805 0.9544
C82_4 C 0.45368(13) 0.5509(3) 0.96552(12)
H66_4 H 0.4514 0.5298 0.9392
N9_4 N 0.50552(11) 0.8597(3) 0.97369(10)
C94_4 C 0.43146(13) 0.9279(3) 0.96795(13)
C95_4 C 0.47224(15) 0.9121(3) 0.95414(13)
C96_4 C 0.48811(14) 0.9422(3) 0.91633(13)
H71_4 H 0.4731 0.9807 0.8975
C97_4 C 0.52821(14) 0.9052(3) 0.91291(13)
H72_4 H 0.5459 0.9128 0.8914
C98_4 C 0.53844(13) 0.8525(3) 0.94816(12)
C99_4 C 0.57749(13) 0.7997(3) 0.95570(12)
C100_4 C 0.59010(14) 0.7539(3) 0.99162(14)
C101_4 C 0.63072(15) 0.7031(4) 0.99939(14)
H73_4 H 0.6521 0.6921 0.9812
C117_4 C 0.39705(14) 0.9719(3) 0.93968(13)
C118_4 C 0.38778(14) 0.9319(3) 0.90269(14)
H83_4 H 0.4036 0.8786 0.8945
C119_4 C 0.35582(15) 0.9696(3) 0.87801(14)
H84_4 H 0.3500 0.9413 0.8532
C124_4 C 0.60639(13) 0.7879(3) 0.92173(12)
C125_4 C 0.63690(14) 0.8545(3) 0.91281(12)
H87_4 H 0.6409 0.9082 0.9294
C126_4 C 0.66236(14) 0.8460(3) 0.88021(12)
H88_4 H 0.6829 0.8935 0.8753
C127_4 C 0.65757(12) 0.7679(3) 0.85501(12)
C128_4 C 0.62719(18) 0.7005(4) 0.86509(15)
H89_4 H 0.6237 0.6452 0.8494
C129_4 C 0.60197(18) 0.7109(4) 0.89695(16)
H90_4 H 0.5812 0.6640 0.9018
C130_4 C 0.68422(13) 0.7557(3) 0.81913(12)
N1_4 N 0.98739(10) 0.1983(2) 0.40692(9)
N2_4 N 0.93197(10) 0.2353(2) 0.47288(9)
N3_4 N 0.99628(10) 0.1447(2) 0.52715(9)
C29_4 C 0.96285(14) 0.2459(3) 0.34385(13)
H34_4 H 0.9451 0.2713 0.3232
C30_4 C 0.95271(13) 0.2412(3) 0.38654(12)
C31_4 C 0.91510(13) 0.2781(3) 0.40225(12)
C32_4 C 0.90520(12) 0.2749(2) 0.44241(12)
C33_4 C 0.86573(13) 0.3062(3) 0.45849(12)
H35_4 H 0.8426 0.3358 0.4444
C34_4 C 0.86764(13) 0.2853(2) 0.49837(12)
H36_4 H 0.8462 0.2978 0.5163
C35_4 C 0.90894(12) 0.2405(2) 0.50706(11)
C36_4 C 0.92382(12) 0.2073(2) 0.54462(12)
C37_4 C 0.96449(12) 0.1599(3) 0.55317(12)
C38_4 C 0.97833(13) 0.1200(3) 0.59190(12)
H37_4 H 0.9625 0.1200 0.6148
C52_4 C 0.88238(13) 0.3289(3) 0.37511(12)
C53_4 C 0.85935(13) 0.2783(3) 0.34450(12)
H45_4 H 0.8640 0.2120 0.3418
C54_4 C 0.83022(13) 0.3239(3) 0.31847(12)
H46_4 H 0.8151 0.2884 0.2987
C55_4 C 0.82327(14) 0.4220(3) 0.32155(12)
C56_4 C 0.84559(15) 0.4742(3) 0.35162(14)
H47_4 H 0.8407 0.5404 0.3544
C57_4 C 0.87507(15) 0.4270(3) 0.37742(13)
H48_4 H 0.8904 0.4628 0.3969
C58_4 C 0.79291(13) 0.4780(3) 0.29306(13)
O11_4 O 0.78955(11) 0.56527(19) 0.29491(9)
C59_4 C 0.89554(12) 0.2237(2) 0.57938(12)
C60_4 C 0.85642(13) 0.1762(3) 0.58167(12)
H49_4 H 0.8476 0.1329 0.5616
C61_4 C 0.83004(12) 0.1917(2) 0.61314(12)
H50_4 H 0.8041 0.1574 0.6145
C62_4 C 0.84164(12) 0.2573(2) 0.64240(12)
C63_4 C 0.88141(13) 0.3038(3) 0.64023(13)
H51_4 H 0.8905 0.3467 0.6603
C64_4 C 0.90738(14) 0.2880(3) 0.60929(12)
H52_4 H 0.9336 0.3212 0.6083
C65_4 C 0.81342(13) 0.2772(3) 0.67668(13)
Zn1_4 Zn 0.996083(14) 0.19102(3) 0.468305(13)
C39_3 C 0.98138(13) 0.0831(3) 0.91203(12)
H38_3 H 0.9643 0.0522 0.8922
C40_3 C 0.96976(12) 0.1000(2) 0.95197(12)
C41_3 C 0.93020(12) 0.0751(2) 0.96788(11)
C66_3 C 0.89441(13) 0.0425(3) 0.93842(12)
C70_3 C 0.84607(14) 0.0734(3) 0.88169(13)
H55_3 H 0.8368 0.1137 0.8607
C71_3 C 0.87943(14) 0.1027(3) 0.90777(12)
H56_3 H 0.8920 0.1634 0.9048
C76_3 C 0.9412(3) 0.4423(4) 0.9762(3)
H60_3 H 0.9315 0.4568 0.9502
C77_3 C 0.95907(16) 0.3550(3) 0.98620(19)
H61_3 H 0.9610 0.3089 0.9661
C39_4 C 0.01862(13) 0.9169(3) 0.08797(12)
H38_4 H 0.0357 0.9478 0.1078
C40_4 C 0.03024(12) 0.9000(2) 0.04803(12)
C41_4 C 0.06980(12) 0.9249(2) 0.03212(11)
C66_4 C 0.10559(13) 0.9575(3) 0.06158(12)
C70_4 C 0.15393(14) 0.9266(3) 0.11831(13)
H55_4 H 0.1632 0.8863 0.1393
C71_4 C 0.12057(14) 0.8973(3) 0.09223(12)
H56_4 H 0.1080 0.8366 0.0952
C76_4 C 0.0588(3) 0.5577(4) 0.0238(3)
H60_4 H 0.0685 0.5432 0.0498
C77_4 C 0.04093(16) 0.6450(3) 0.01380(19)
H61_4 H 0.0390 0.6911 0.0339
loop_
_geom_bond_atom_site_label_1
_geom_bond_atom_site_label_2
_geom_bond_site_symmetry_1
_geom_bond_site_symmetry_2
Na1 O1 1_555 1_555
O1 C1 1_555 1_555
C1 C2 1_555 1_555
C2 H1 1_555 1_555
C6 C1 1_555 1_555
H7 C8 1_555 1_555
H8 C8 1_555 1_555
O3 Na1 1_555 1_555
C9 O3 1_555 1_555
H9 C9 1_555 1_555
H10 C9 1_555 1_555
C10 C9 1_555 1_555
H11 C10 1_555 1_555
H12 C10 1_555 1_555
O4 Na1 1_555 1_555
C11 O4 1_555 1_555
H13 C11 1_555 1_555
H14 C11 1_555 1_555
C12 C11 1_555 1_555
H15 C12 1_555 1_555
H16 C12 1_555 1_555
O5 Na1 1_555 1_555
O7 Na1 1_555 1_555
C21 O7 1_555 1_555
H25 C21 1_555 1_555
H26 C21 1_555 1_555
C22 C21 1_555 1_555
H27 C22 1_555 1_555
H28 C22 1_555 1_555
O8 Na1 1_555 1_555
C23 O8 1_555 1_555
H29 C23 1_555 1_555
H30 C23 1_555 1_555
C24 O1 1_555 1_555
H31 C24 1_555 1_555
H32 C24 1_555 1_555
C8 O3 1_555 1_555
C10 O4 1_555 1_555
C12 O5 1_555 1_555
C22 O8 1_555 1_555
C23 C24 1_555 1_555
H4 C5 1_555 1_555
C7 O2 1_555 1_555
H5 C7 1_555 1_555
H6 C7 1_555 1_555
C14 C13 1_555 1_555
C15 C14 1_555 1_555
H18 C15 1_555 1_555
C16 C15 1_555 1_555
H19 C16 1_555 1_555
C17 C16 1_555 1_555
H20 C17 1_555 1_555
C18 C13 1_555 1_555
C19 O6 1_555 1_555
H21 C19 1_555 1_555
H22 C19 1_555 1_555
C20 C19 1_555 1_555
H23 C20 1_555 1_555
H24 C20 1_555 1_555
C17 C18 1_555 1_555
C18 O6 1_555 1_555
H2 C3 1_555 1_555
H3 C4 1_555 1_555
H2_2 C3_2 1_555 1_555
C4_2 C3_2 1_555 1_555
H3_2 C4_2 1_555 1_555
Na1_2 O1_2 1_555 1_555
O1_2 C1_2 1_555 1_555
C1_2 C2_2 1_555 1_555
C2_2 H1_2 1_555 1_555
H4_2 C5_2 1_555 1_555
C6_2 C1_2 1_555 1_555
O2_2 Na1_2 1_555 1_555
C7_2 O2_2 1_555 1_555
H5_2 C7_2 1_555 1_555
H6_2 C7_2 1_555 1_555
C8_2 C7_2 1_555 1_555
H7_2 C8_2 1_555 1_555
H8_2 C8_2 1_555 1_555
O3_2 Na1_2 1_555 1_555
C9_2 O3_2 1_555 1_555
H9_2 C9_2 1_555 1_555
H10_2 C9_2 1_555 1_555
C10_2 C9_2 1_555 1_555
H11_2 C10_2 1_555 1_555
H12_2 C10_2 1_555 1_555
O4_2 Na1_2 1_555 1_555
C11_2 O4_2 1_555 1_555
H13_2 C11_2 1_555 1_555
H14_2 C11_2 1_555 1_555
C12_2 C11_2 1_555 1_555
H15_2 C12_2 1_555 1_555
H16_2 C12_2 1_555 1_555
O5_2 Na1_2 1_555 1_555
C13_2 O5_2 1_555 1_555
C14_2 C13_2 1_555 1_555
H17_2 C14_2 1_555 1_555
C15_2 C14_2 1_555 1_555
H18_2 C15_2 1_555 1_555
C16_2 C15_2 1_555 1_555
H19_2 C16_2 1_555 1_555
C17_2 C16_2 1_555 1_555
H20_2 C17_2 1_555 1_555
C18_2 C13_2 1_555 1_555
O6_2 Na1_2 1_555 1_555
C19_2 O6_2 1_555 1_555
H21_2 C19_2 1_555 1_555
H22_2 C19_2 1_555 1_555
C20_2 C19_2 1_555 1_555
H23_2 C20_2 1_555 1_555
H24_2 C20_2 1_555 1_555
O7_2 Na1_2 1_555 1_555
C21_2 O7_2 1_555 1_555
H25_2 C21_2 1_555 1_555
H26_2 C21_2 1_555 1_555
C22_2 C21_2 1_555 1_555
H27_2 C22_2 1_555 1_555
H28_2 C22_2 1_555 1_555
O8_2 Na1_2 1_555 1_555
C23_2 O8_2 1_555 1_555
H29_2 C23_2 1_555 1_555
H30_2 C23_2 1_555 1_555
C24_2 O1_2 1_555 1_555
H31_2 C24_2 1_555 1_555
H32_2 C24_2 1_555 1_555
C5_2 C6_2 1_555 1_555
C6_2 O2_2 1_555 1_555
C8_2 O3_2 1_555 1_555
C10_2 O4_2 1_555 1_555
C12_2 O5_2 1_555 1_555
C17_2 C18_2 1_555 1_555
C18_2 O6_2 1_555 1_555
C20_2 O7_2 1_555 1_555
C22_2 O8_2 1_555 1_555
C23_2 C24_2 1_555 1_555
H3_3 C4_3 1_555 1_555
H2_3 C3_3 1_555 1_555
H4_3 C5_3 1_555 1_555
C7_3 O2_3 1_555 1_555
H5_3 C7_3 1_555 1_555
H6_3 C7_3 1_555 1_555
C14_3 C13_3 1_555 1_555
C15_3 C14_3 1_555 1_555
H18_3 C15_3 1_555 1_555
C16_3 C15_3 1_555 1_555
H19_3 C16_3 1_555 1_555
C17_3 C16_3 1_555 1_555
H20_3 C17_3 1_555 1_555
C18_3 C13_3 1_555 1_555
C19_3 O6_3 1_555 1_555
H21_3 C19_3 1_555 1_555
H22_3 C19_3 1_555 1_555
C20_3 C19_3 1_555 1_555
H23_3 C20_3 1_555 1_555
H24_3 C20_3 1_555 1_555
C17_3 C18_3 1_555 1_555
C18_3 O6_3 1_555 1_555
Na1_3 O1_3 1_555 1_555
O1_3 C1_3 1_555 1_555
C1_3 C2_3 1_555 1_555
C2_3 H1_3 1_555 1_555
C6_3 C1_3 1_555 1_555
H7_3 C8_3 1_555 1_555
H8_3 C8_3 1_555 1_555
O3_3 Na1_3 1_555 1_555
C9_3 O3_3 1_555 1_555
H9_3 C9_3 1_555 1_555
H10_3 C9_3 1_555 1_555
C10_3 C9_3 1_555 1_555
H11_3 C10_3 1_555 1_555
H12_3 C10_3 1_555 1_555
O4_3 Na1_3 1_555 1_555
C11_3 O4_3 1_555 1_555
H13_3 C11_3 1_555 1_555
H14_3 C11_3 1_555 1_555
C12_3 C11_3 1_555 1_555
H15_3 C12_3 1_555 1_555
H16_3 C12_3 1_555 1_555
O5_3 Na1_3 1_555 1_555
O7_3 Na1_3 1_555 1_555
C21_3 O7_3 1_555 1_555
H25_3 C21_3 1_555 1_555
H26_3 C21_3 1_555 1_555
C22_3 C21_3 1_555 1_555
H27_3 C22_3 1_555 1_555
H28_3 C22_3 1_555 1_555
O8_3 Na1_3 1_555 1_555
C23_3 O8_3 1_555 1_555
H29_3 C23_3 1_555 1_555
H30_3 C23_3 1_555 1_555
C24_3 O1_3 1_555 1_555
H31_3 C24_3 1_555 1_555
H32_3 C24_3 1_555 1_555
C8_3 O3_3 1_555 1_555
C10_3 O4_3 1_555 1_555
C12_3 O5_3 1_555 1_555
C22_3 O8_3 1_555 1_555
C23_3 C24_3 1_555 1_555
Na1_4 O1_4 1_555 1_555
O1_4 C1_4 1_555 1_555
C1_4 C2_4 1_555 1_555
C2_4 H1_4 1_555 1_555
H4_4 C5_4 1_555 1_555
C6_4 C1_4 1_555 1_555
O2_4 Na1_4 1_555 1_555
C7_4 O2_4 1_555 1_555
H5_4 C7_4 1_555 1_555
H6_4 C7_4 1_555 1_555
C8_4 C7_4 1_555 1_555
H7_4 C8_4 1_555 1_555
H8_4 C8_4 1_555 1_555
O3_4 Na1_4 1_555 1_555
C9_4 O3_4 1_555 1_555
H9_4 C9_4 1_555 1_555
H10_4 C9_4 1_555 1_555
C10_4 C9_4 1_555 1_555
H11_4 C10_4 1_555 1_555
H12_4 C10_4 1_555 1_555
O4_4 Na1_4 1_555 1_555
C11_4 O4_4 1_555 1_555
H13_4 C11_4 1_555 1_555
H14_4 C11_4 1_555 1_555
C12_4 C11_4 1_555 1_555
H15_4 C12_4 1_555 1_555
H16_4 C12_4 1_555 1_555
O5_4 Na1_4 1_555 1_555
C13_4 O5_4 1_555 1_555
C14_4 C13_4 1_555 1_555
H17_4 C14_4 1_555 1_555
C15_4 C14_4 1_555 1_555
H18_4 C15_4 1_555 1_555
C16_4 C15_4 1_555 1_555
H19_4 C16_4 1_555 1_555
C17_4 C16_4 1_555 1_555
H20_4 C17_4 1_555 1_555
C18_4 C13_4 1_555 1_555
O6_4 Na1_4 1_555 1_555
C19_4 O6_4 1_555 1_555
H21_4 C19_4 1_555 1_555
H22_4 C19_4 1_555 1_555
C20_4 C19_4 1_555 1_555
H23_4 C20_4 1_555 1_555
H24_4 C20_4 1_555 1_555
O7_4 Na1_4 1_555 1_555
C21_4 O7_4 1_555 1_555
H25_4 C21_4 1_555 1_555
H26_4 C21_4 1_555 1_555
C22_4 C21_4 1_555 1_555
H27_4 C22_4 1_555 1_555
H28_4 C22_4 1_555 1_555
O8_4 Na1_4 1_555 1_555
C23_4 O8_4 1_555 1_555
H29_4 C23_4 1_555 1_555
H30_4 C23_4 1_555 1_555
C24_4 O1_4 1_555 1_555
H31_4 C24_4 1_555 1_555
H32_4 C24_4 1_555 1_555
C5_4 C6_4 1_555 1_555
C6_4 O2_4 1_555 1_555
C8_4 O3_4 1_555 1_555
C10_4 O4_4 1_555 1_555
C12_4 O5_4 1_555 1_555
C17_4 C18_4 1_555 1_555
C18_4 O6_4 1_555 1_555
C20_4 O7_4 1_555 1_555
C22_4 O8_4 1_555 1_555
C23_4 C24_4 1_555 1_555
H2_4 C3_4 1_555 1_555
C4_4 C3_4 1_555 1_555
H3_4 C4_4 1_555 1_555
N2 C32 1_555 1_555
H34 C29 1_555 1_555
C30 N1 1_555 1_555
C31 C30 1_555 1_555
C32 C31 1_555 1_555
C33 C32 1_555 1_555
H35 C33 1_555 1_555
C34 C33 1_555 1_555
C52 C31 1_555 1_555
C53 C52 1_555 1_555
H45 C53 1_555 1_555
C54 C53 1_555 1_555
H46 C54 1_555 1_555
C55 C54 1_555 1_555
C56 C55 1_555 1_555
H47 C56 1_555 1_555
C57 C52 1_555 1_555
H48 C57 1_555 1_555
C58 C55 1_555 1_555
O11 C58 1_555 1_555
O12 C58 1_555 1_555
Zn1 N1 1_555 1_555
Na5 O11 1_555 1_555
Na6 O12 1_555 1_555
O34 Na5 1_555 1_555
O35 Na5 1_555 1_555
O36 Na5 1_555 1_555
Na16 O37 1_555 1_555
O37 Na5 1_555 1_555
H93 O37 1_555 1_555
N2 Zn1 1_555 1_555
C29 C30 1_555 1_555
C56 C57 1_555 1_555
N3 C37 1_555 1_555
C36 C35 1_555 1_555
C37 C36 1_555 1_555
C38 C37 1_555 1_555
H37 C38 1_555 1_555
C59 C36 1_555 1_555
C60 C59 1_555 1_555
H49 C60 1_555 1_555
C61 C60 1_555 1_555
H50 C61 1_555 1_555
C62 C61 1_555 1_555
C63 C62 1_555 1_555
H51 C63 1_555 1_555
C64 C59 1_555 1_555
H52 C64 1_555 1_555
C65 C62 1_555 1_555
O13 C65 1_555 1_555
O14 C65 1_555 1_555
Na7 O13 1_555 1_555
Na8 O14 1_555 1_555
C63 C64 1_555 1_555
N4 C25 1_555 1_555
C25 C26 1_555 1_555
C26 C27 1_555 1_555
C27 C28 1_555 1_555
C28 H33 1_555 1_555
C42 N4 1_555 1_555
C43 C42 1_555 1_555
H39 C43 1_555 1_555
C44 C25 1_555 1_555
H40 C44 1_555 1_555
C45 C26 1_555 1_555
C46 C45 1_555 1_555
C47 C46 1_555 1_555
C48 C47 1_555 1_555
C49 C48 1_555 1_555
H43 C49 1_555 1_555
C50 C45 1_555 1_555
H44 C50 1_555 1_555
C51 C48 1_555 1_555
O9 C51 1_555 1_555
O10 C51 1_555 1_555
C73 N5 1_555 1_555
H57 C73 1_555 1_555
C74 C73 1_555 1_555
H58 C74 1_555 1_555
C75 C74 1_555 1_555
H59 C75 1_555 1_555
C121 C120 1_555 1_555
H85 C121 1_555 1_555
H86 C122 1_555 1_555
C123 C120 1_555 1_555
O21 C123 1_555 1_555
O22 C123 1_555 1_555
Na2 O10 1_555 1_555
Na3 O9 1_555 1_555
O25 Na2 1_555 1_555
H91 O25 1_555 1_555
Na13 O22 1_555 1_555
O27 Na2 1_555 1_555
O28 Na2 1_555 1_555
O29 Na3 1_555 1_555
O30 Na3 1_555 1_555
O31 Na3 1_555 1_555
C43 C44 1_555 1_555
C49 C50 1_555 1_555
C121 C122 1_555 1_555
Na3 O25 1_555 1_555
O21 H95 1_555 1_555
C78 H62 1_555 1_555
C79 C78 1_555 1_555
H63 C79 1_555 1_555
C80 C79 1_555 1_555
H64 C80 1_555 1_555
N6 C80 1_555 1_555
C81 N6 1_555 1_555
H65 C81 1_555 1_555
C82 C78 1_555 1_555
H66 C82 1_555 1_555
N7 C85 1_555 1_555
N8 C90 1_555 1_555
N9 C95 1_555 1_555
N10 C83 1_555 1_555
C83 C84 1_555 1_555
C84 C85 1_555 1_555
C85 C86 1_555 1_555
C86 H67 1_555 1_555
C87 C86 1_555 1_555
H68 C87 1_555 1_555
C88 N7 1_555 1_555
C89 C88 1_555 1_555
C90 C89 1_555 1_555
C91 C90 1_555 1_555
H69 C91 1_555 1_555
C92 C91 1_555 1_555
H70 C92 1_555 1_555
C93 N8 1_555 1_555
C94 C93 1_555 1_555
C95 C94 1_555 1_555
C96 C95 1_555 1_555
H71 C96 1_555 1_555
C97 C96 1_555 1_555
H72 C97 1_555 1_555
C98 N9 1_555 1_555
C99 C98 1_555 1_555
C100 N10 1_555 1_555
C101 C100 1_555 1_555
H73 C101 1_555 1_555
C102 C83 1_555 1_555
H74 C102 1_555 1_555
C103 C84 1_555 1_555
C104 C103 1_555 1_555
H75 C104 1_555 1_555
C105 C104 1_555 1_555
H76 C105 1_555 1_555
C106 C105 1_555 1_555
C107 C106 1_555 1_555
H77 C107 1_555 1_555
C108 C103 1_555 1_555
H78 C108 1_555 1_555
C109 C106 1_555 1_555
O17 C109 1_555 1_555
O35 C109 1_555 1_555
C110 C89 1_555 1_555
C111 C110 1_555 1_555
H79 C111 1_555 1_555
C112 C111 1_555 1_555
H80 C112 1_555 1_555
C113 C112 1_555 1_555
C114 C113 1_555 1_555
H81 C114 1_555 1_555
C115 C110 1_555 1_555
H82 C115 1_555 1_555
C116 C113 1_555 1_555
O19 C116 1_555 1_555
O20 C116 1_555 1_555
C117 C94 1_555 1_555
C118 C117 1_555 1_555
H83 C118 1_555 1_555
C119 C118 1_555 1_555
H84 C119 1_555 1_555
C124 C99 1_555 1_555
C125 C124 1_555 1_555
H87 C125 1_555 1_555
C126 C125 1_555 1_555
H88 C126 1_555 1_555
C127 C126 1_555 1_555
C128 C127 1_555 1_555
H89 C128 1_555 1_555
C129 C124 1_555 1_555
H90 C129 1_555 1_555
C130 C127 1_555 1_555
O23 C130 1_555 1_555
O24 C130 1_555 1_555
Zn2 N6 1_555 1_555
O26 Na4 1_555 1_555
H92 O26 1_555 1_555
Na6 O17 1_555 1_555
Na12 O19 1_555 1_555
Na14 O23 1_555 1_555
Na15 O24 1_555 1_555
O32 Na4 1_555 1_555
O33 Na4 1_555 1_555
C81 C82 1_555 1_555
N7 Zn2 1_555 1_555
N8 Zn2 1_555 1_555
N9 Zn2 1_555 1_555
N10 Zn2 1_555 1_555
C87 C88 1_555 1_555
C92 C93 1_555 1_555
C97 C98 1_555 1_555
C99 C100 1_555 1_555
C101 C102 1_555 1_555
C107 C108 1_555 1_555
C114 C115 1_555 1_555
O20 Na4 1_555 1_555
C128 C129 1_555 1_555
O26 Na12 1_555 1_555
H53 C67 1_555 1_555
C68 C67 1_555 1_555
H54 C68 1_555 1_555
C69 C68 1_555 1_555
C72 C69 1_555 1_555
O15 C72 1_555 1_555
O16 C72 1_555 1_555
Na9 O16 1_555 1_555
O15 H94 1_555 1_555
N2_2 C32_2 1_555 1_555
N3_2 C37_2 1_555 1_555
H34_2 C29_2 1_555 1_555
C30_2 N1_2 1_555 1_555
C31_2 C30_2 1_555 1_555
C32_2 C31_2 1_555 1_555
C33_2 C32_2 1_555 1_555
H35_2 C33_2 1_555 1_555
C34_2 C33_2 1_555 1_555
H36_2 C34_2 1_555 1_555
C35_2 N2_2 1_555 1_555
C36_2 C35_2 1_555 1_555
C37_2 C36_2 1_555 1_555
C38_2 C37_2 1_555 1_555
H37_2 C38_2 1_555 1_555
C52_2 C31_2 1_555 1_555
C53_2 C52_2 1_555 1_555
H45_2 C53_2 1_555 1_555
C54_2 C53_2 1_555 1_555
H46_2 C54_2 1_555 1_555
C55_2 C54_2 1_555 1_555
C56_2 C55_2 1_555 1_555
H47_2 C56_2 1_555 1_555
C57_2 C52_2 1_555 1_555
H48_2 C57_2 1_555 1_555
C58_2 C55_2 1_555 1_555
O11_2 C58_2 1_555 1_555
O12_2 C58_2 1_555 1_555
C59_2 C36_2 1_555 1_555
C60_2 C59_2 1_555 1_555
H49_2 C60_2 1_555 1_555
C61_2 C60_2 1_555 1_555
H50_2 C61_2 1_555 1_555
C62_2 C61_2 1_555 1_555
C63_2 C62_2 1_555 1_555
H51_2 C63_2 1_555 1_555
C64_2 C59_2 1_555 1_555
H52_2 C64_2 1_555 1_555
C65_2 C62_2 1_555 1_555
O13_2 C65_2 1_555 1_555
O34 C65_2 1_555 1_555
Zn1_2 N1_2 1_555 1_555
Na8 O11_2 1_555 1_555
Na15 O12_2 1_555 1_555
Na16 O13_2 1_555 1_555
O35_2 Na8 1_555 1_555
O36_2 Na8 1_555 1_555
Na7 O37_2 1_555 1_555
O37_2 Na8 1_555 1_555
H93_2 O37_2 1_555 1_555
N2_2 Zn1_2 1_555 1_555
N3_2 Zn1_2 1_555 1_555
C29_2 C30_2 1_555 1_555
C34_2 C35_2 1_555 1_555
C56_2 C57_2 1_555 1_555
C63_2 C64_2 1_555 1_555
C78_2 H62_2 1_555 1_555
H65_2 C81_2 1_555 1_555
C82_2 C78_2 1_555 1_555
H66_2 C82_2 1_555 1_555
N9_2 C95_2 1_555 1_555
C95_2 C94_2 1_555 1_555
C96_2 C95_2 1_555 1_555
H71_2 C96_2 1_555 1_555
C97_2 C96_2 1_555 1_555
H72_2 C97_2 1_555 1_555
C98_2 N9_2 1_555 1_555
C99_2 C98_2 1_555 1_555
C101_2 C100_2 1_555 1_555
H73_2 C101_2 1_555 1_555
C117_2 C94_2 1_555 1_555
C118_2 C117_2 1_555 1_555
H83_2 C118_2 1_555 1_555
C119_2 C118_2 1_555 1_555
H84_2 C119_2 1_555 1_555
C124_2 C99_2 1_555 1_555
C125_2 C124_2 1_555 1_555
H87_2 C125_2 1_555 1_555
C126_2 C125_2 1_555 1_555
H88_2 C126_2 1_555 1_555
C127_2 C126_2 1_555 1_555
C128_2 C127_2 1_555 1_555
H89_2 C128_2 1_555 1_555
C129_2 C124_2 1_555 1_555
H90_2 C129_2 1_555 1_555
C130_2 C127_2 1_555 1_555
O23_2 C130_2 1_555 1_555
O24_2 C130_2 1_555 1_555
Na14_2 O23_2 1_555 1_555
Na6 O24_2 1_555 1_555
C81_2 C82_2 1_555 1_555
C97_2 C98_2 1_555 1_555
C99_2 C100_2 1_555 1_555
C128_2 C129_2 1_555 1_555
H53_2 C67_2 1_555 1_555
C68_2 C67_2 1_555 1_555
H54_2 C68_2 1_555 1_555
C69_2 C68_2 1_555 1_555
C72_2 C69_2 1_555 1_555
O15_2 C72_2 1_555 1_555
O27 C72_2 1_555 1_555
H63_2 C79_2 1_555 1_555
C80_2 C79_2 1_555 1_555
H64_2 C80_2 1_555 1_555
N6_2 C80_2 1_555 1_555
N7_2 C85_2 1_555 1_555
N8_2 C90_2 1_555 1_555
N10_2 C83_2 1_555 1_555
C83_2 C84_2 1_555 1_555
C84_2 C85_2 1_555 1_555
C85_2 C86_2 1_555 1_555
C86_2 H67_2 1_555 1_555
C87_2 C86_2 1_555 1_555
H68_2 C87_2 1_555 1_555
C88_2 N7_2 1_555 1_555
C89_2 C88_2 1_555 1_555
C90_2 C89_2 1_555 1_555
C91_2 C90_2 1_555 1_555
H69_2 C91_2 1_555 1_555
C92_2 C91_2 1_555 1_555
H70_2 C92_2 1_555 1_555
C93_2 N8_2 1_555 1_555
C102_2 C83_2 1_555 1_555
H74_2 C102_2 1_555 1_555
C103_2 C84_2 1_555 1_555
C104_2 C103_2 1_555 1_555
H75_2 C104_2 1_555 1_555
C105_2 C104_2 1_555 1_555
H76_2 C105_2 1_555 1_555
C106_2 C105_2 1_555 1_555
C107_2 C106_2 1_555 1_555
H77_2 C107_2 1_555 1_555
C108_2 C103_2 1_555 1_555
H78_2 C108_2 1_555 1_555
C109_2 C106_2 1_555 1_555
O17_2 C109_2 1_555 1_555
O35_2 C109_2 1_555 1_555
C110_2 C89_2 1_555 1_555
C111_2 C110_2 1_555 1_555
H79_2 C111_2 1_555 1_555
C112_2 C111_2 1_555 1_555
H80_2 C112_2 1_555 1_555
C113_2 C112_2 1_555 1_555
C114_2 C113_2 1_555 1_555
H81_2 C114_2 1_555 1_555
C115_2 C110_2 1_555 1_555
H82_2 C115_2 1_555 1_555
C116_2 C113_2 1_555 1_555
O19_2 C116_2 1_555 1_555
O20_2 C116_2 1_555 1_555
Zn2_2 N6_2 1_555 1_555
O26_2 Na13 1_555 1_555
H92_2 O26_2 1_555 1_555
Na15 O17_2 1_555 1_555
Na12_2 O19_2 1_555 1_555
O32_2 Na13 1_555 1_555
N7_2 Zn2_2 1_555 1_555
N8_2 Zn2_2 1_555 1_555
N10_2 Zn2_2 1_555 1_555
C87_2 C88_2 1_555 1_555
C92_2 C93_2 1_555 1_555
C107_2 C108_2 1_555 1_555
C114_2 C115_2 1_555 1_555
O20_2 Na13 1_555 1_555
O26_2 Na12_2 1_555 1_555
O15_2 H94_2 1_555 1_555
C121_2 C120_2 1_555 1_555
H85_2 C121_2 1_555 1_555
H86_2 C122_2 1_555 1_555
C123_2 C120_2 1_555 1_555
O21_2 C123_2 1_555 1_555
O33 C123_2 1_555 1_555
C121_2 C122_2 1_555 1_555
O21_2 H95_2 1_555 1_555
N4_2 C25_2 1_555 1_555
C25_2 C26_2 1_555 1_555
C26_2 C27_2 1_555 1_555
C27_2 C28_2 1_555 1_555
C28_2 H33_2 1_555 1_555
H38 C39 1_555 1_555
C41 C40 1_555 1_555
C42_2 N4_2 1_555 1_555
C43_2 C42_2 1_555 1_555
H39_2 C43_2 1_555 1_555
C44_2 C25_2 1_555 1_555
H40_2 C44_2 1_555 1_555
C45_2 C26_2 1_555 1_555
C46_2 C45_2 1_555 1_555
C47_2 C46_2 1_555 1_555
C48_2 C47_2 1_555 1_555
C49_2 C48_2 1_555 1_555
H43_2 C49_2 1_555 1_555
C50_2 C45_2 1_555 1_555
H44_2 C50_2 1_555 1_555
C51_2 C48_2 1_555 1_555
O9_2 C51_2 1_555 1_555
O10_2 C51_2 1_555 1_555
C66 C41 1_555 1_555
H55 C70 1_555 1_555
C71 C66 1_555 1_555
H56 C71 1_555 1_555
C73_2 N5_2 1_555 1_555
H57_2 C73_2 1_555 1_555
C74_2 C73_2 1_555 1_555
H58_2 C74_2 1_555 1_555
C75_2 C74_2 1_555 1_555
H59_2 C75_2 1_555 1_555
C76 C75_2 1_555 1_555
H60 C76 1_555 1_555
C77 N5_2 1_555 1_555
H61 C77 1_555 1_555
Na9 O10_2 1_555 1_555
Na3_2 O9_2 1_555 1_555
O25_2 Na9 1_555 1_555
H91_2 O25_2 1_555 1_555
O28_2 Na9 1_555 1_555
O29_2 Na3_2 1_555 1_555
O30_2 Na3_2 1_555 1_555
O31_2 Na3_2 1_555 1_555
C39 C40 1_555 1_555
C41 C42_2 1_555 1_555
C43_2 C44_2 1_555 1_555
C49_2 C50_2 1_555 1_555
C70 C71 1_555 1_555
C76 C77 1_555 1_555
Na3_2 O25_2 1_555 1_555
H53_3 C67_3 1_555 1_555
C68_3 C67_3 1_555 1_555
H54_3 C68_3 1_555 1_555
C69_3 C68_3 1_555 1_555
C72_3 C69_3 1_555 1_555
O15_3 C72_3 1_555 1_555
O16_2 C72_3 1_555 1_555
Na14_2 O16_2 1_555 1_555
O15_3 H94_3 1_555 1_555
C78_3 H62_3 1_555 1_555
C79_3 C78_3 1_555 1_555
H63_3 C79_3 1_555 1_555
C80_3 C79_3 1_555 1_555
H64_3 C80_3 1_555 1_555
N6_3 C80_3 1_555 1_555
C81_3 N6_3 1_555 1_555
H65_3 C81_3 1_555 1_555
C82_3 C78_3 1_555 1_555
H66_3 C82_3 1_555 1_555
N7_3 C85_3 1_555 1_555
N8_3 C90_3 1_555 1_555
N9_3 C95_3 1_555 1_555
N10_3 C83_3 1_555 1_555
C83_3 C84_3 1_555 1_555
C84_3 C85_3 1_555 1_555
C85_3 C86_3 1_555 1_555
C86_3 H67_3 1_555 1_555
C87_3 C86_3 1_555 1_555
H68_3 C87_3 1_555 1_555
C88_3 N7_3 1_555 1_555
C89_3 C88_3 1_555 1_555
C90_3 C89_3 1_555 1_555
C91_3 C90_3 1_555 1_555
H69_3 C91_3 1_555 1_555
C92_3 C91_3 1_555 1_555
H70_3 C92_3 1_555 1_555
C93_3 N8_3 1_555 1_555
C94_3 C93_3 1_555 1_555
C95_3 C94_3 1_555 1_555
C96_3 C95_3 1_555 1_555
H71_3 C96_3 1_555 1_555
C97_3 C96_3 1_555 1_555
H72_3 C97_3 1_555 1_555
C98_3 N9_3 1_555 1_555
C99_3 C98_3 1_555 1_555
C100_3 N10_3 1_555 1_555
C101_3 C100_3 1_555 1_555
H73_3 C101_3 1_555 1_555
C102_3 C83_3 1_555 1_555
H74_3 C102_3 1_555 1_555
C103_3 C84_3 1_555 1_555
C104_3 C103_3 1_555 1_555
H75_3 C104_3 1_555 1_555
C105_3 C104_3 1_555 1_555
H76_3 C105_3 1_555 1_555
C106_3 C105_3 1_555 1_555
C107_3 C106_3 1_555 1_555
H77_3 C107_3 1_555 1_555
C108_3 C103_3 1_555 1_555
H78_3 C108_3 1_555 1_555
C109_3 C106_3 1_555 1_555
O30_2 C109_3 1_555 1_555
O18 C109_3 1_555 1_555
C110_3 C89_3 1_555 1_555
C111_3 C110_3 1_555 1_555
H79_3 C111_3 1_555 1_555
C112_3 C111_3 1_555 1_555
H80_3 C112_3 1_555 1_555
C113_3 C112_3 1_555 1_555
C114_3 C113_3 1_555 1_555
H81_3 C114_3 1_555 1_555
C115_3 C110_3 1_555 1_555
H82_3 C115_3 1_555 1_555
C116_3 C113_3 1_555 1_555
O36_2 C116_3 1_555 1_555
O20_3 C116_3 1_555 1_555
C117_3 C94_3 1_555 1_555
C118_3 C117_3 1_555 1_555
H83_3 C118_3 1_555 1_555
C119_3 C118_3 1_555 1_555
H84_3 C119_3 1_555 1_555
C124_3 C99_3 1_555 1_555
C125_3 C124_3 1_555 1_555
H87_3 C125_3 1_555 1_555
C126_3 C125_3 1_555 1_555
H88_3 C126_3 1_555 1_555
C127_3 C126_3 1_555 1_555
C128_3 C127_3 1_555 1_555
H89_3 C128_3 1_555 1_555
C129_3 C124_3 1_555 1_555
H90_3 C129_3 1_555 1_555
C130_3 C127_3 1_555 1_555
O28 C130_3 1_555 1_555
O31 C130_3 1_555 1_555
Zn2_3 N6_3 1_555 1_555
Na12_2 O18 1_555 1_555
O33_2 Na7 1_555 1_555
C81_3 C82_3 1_555 1_555
N7_3 Zn2_3 1_555 1_555
N8_3 Zn2_3 1_555 1_555
N9_3 Zn2_3 1_555 1_555
N10_3 Zn2_3 1_555 1_555
C87_3 C88_3 1_555 1_555
C92_3 C93_3 1_555 1_555
C97_3 C98_3 1_555 1_555
C99_3 C100_3 1_555 1_555
C101_3 C102_3 1_555 1_555
C107_3 C108_3 1_555 1_555
C114_3 C115_3 1_555 1_555
O20_3 Na7 1_555 1_555
C128_3 C129_3 1_555 1_555
N4_3 C25_3 1_555 1_555
C25_3 C26_3 1_555 1_555
C26_3 C27_3 1_555 1_555
C27_3 C28_3 1_555 1_555
C28_3 H33_3 1_555 1_555
C42_3 N4_3 1_555 1_555
C43_3 C42_3 1_555 1_555
H39_3 C43_3 1_555 1_555
C44_3 C25_3 1_555 1_555
H40_3 C44_3 1_555 1_555
C45_3 C26_3 1_555 1_555
C46_3 C45_3 1_555 1_555
C47_3 C46_3 1_555 1_555
C48_3 C47_3 1_555 1_555
C49_3 C48_3 1_555 1_555
H43_3 C49_3 1_555 1_555
C50_3 C45_3 1_555 1_555
H44_3 C50_3 1_555 1_555
C51_3 C48_3 1_555 1_555
O9_3 C51_3 1_555 1_555
O10_3 C51_3 1_555 1_555
C73_3 N5_3 1_555 1_555
H57_3 C73_3 1_555 1_555
C74_3 C73_3 1_555 1_555
H58_3 C74_3 1_555 1_555
C75_3 C74_3 1_555 1_555
H59_3 C75_3 1_555 1_555
C121_3 C120_3 1_555 1_555
H85_3 C121_3 1_555 1_555
H86_3 C122_3 1_555 1_555
C123_3 C120_3 1_555 1_555
O21_3 C123_3 1_555 1_555
O22_2 C123_3 1_555 1_555
Na14 O10_3 1_555 1_555
Na15 O9_3 1_555 1_555
O25_3 Na14 1_555 1_555
H91_3 O25_3 1_555 1_555
Na16 O22_2 1_555 1_555
O27_2 Na14 1_555 1_555
C43_3 C44_3 1_555 1_555
C49_3 C50_3 1_555 1_555
C121_3 C122_3 1_555 1_555
Na15 O25_3 1_555 1_555
O21_3 H95_3 1_555 1_555
N3_3 C37_3 1_555 1_555
C36_3 C35_3 1_555 1_555
C37_3 C36_3 1_555 1_555
C38_3 C37_3 1_555 1_555
H37_3 C38_3 1_555 1_555
C59_3 C36_3 1_555 1_555
C60_3 C59_3 1_555 1_555
H49_3 C60_3 1_555 1_555
C61_3 C60_3 1_555 1_555
H50_3 C61_3 1_555 1_555
C62_3 C61_3 1_555 1_555
C63_3 C62_3 1_555 1_555
H51_3 C63_3 1_555 1_555
C64_3 C59_3 1_555 1_555
H52_3 C64_3 1_555 1_555
C65_3 C62_3 1_555 1_555
O32 C65_3 1_555 1_555
O14_2 C65_3 1_555 1_555
Na12 O14_2 1_555 1_555
C63_3 C64_3 1_555 1_555
N2_3 C32_3 1_555 1_555
H34_3 C29_3 1_555 1_555
C30_3 N1_3 1_555 1_555
C31_3 C30_3 1_555 1_555
C32_3 C31_3 1_555 1_555
C33_3 C32_3 1_555 1_555
H35_3 C33_3 1_555 1_555
C34_3 C33_3 1_555 1_555
C52_3 C31_3 1_555 1_555
C53_3 C52_3 1_555 1_555
H45_3 C53_3 1_555 1_555
C54_3 C53_3 1_555 1_555
H46_3 C54_3 1_555 1_555
C55_3 C54_3 1_555 1_555
C56_3 C55_3 1_555 1_555
H47_3 C56_3 1_555 1_555
C57_3 C52_3 1_555 1_555
H48_3 C57_3 1_555 1_555
C58_3 C55_3 1_555 1_555
O11_3 C58_3 1_555 1_555
O29_2 C58_3 1_555 1_555
Zn1_3 N1_3 1_555 1_555
Na12_2 O11_3 1_555 1_555
O34_2 Na12_2 1_555 1_555
N2_3 Zn1_3 1_555 1_555
C29_3 C30_3 1_555 1_555
C56_3 C57_3 1_555 1_555
N4_4 C25_4 1_555 1_555
C25_4 C26_4 1_555 1_555
C26_4 C27_4 1_555 1_555
C27_4 C28_4 1_555 1_555
C28_4 H33_4 1_555 1_555
H38_2 C39_2 1_555 1_555
C41_2 C40_2 1_555 1_555
C42_4 N4_4 1_555 1_555
C43_4 C42_4 1_555 1_555
H39_4 C43_4 1_555 1_555
C44_4 C25_4 1_555 1_555
H40_4 C44_4 1_555 1_555
C45_4 C26_4 1_555 1_555
C46_4 C45_4 1_555 1_555
C47_4 C46_4 1_555 1_555
C48_4 C47_4 1_555 1_555
C49_4 C48_4 1_555 1_555
H43_4 C49_4 1_555 1_555
C50_4 C45_4 1_555 1_555
H44_4 C50_4 1_555 1_555
C51_4 C48_4 1_555 1_555
O9_4 C51_4 1_555 1_555
O10_4 C51_4 1_555 1_555
C66_2 C41_2 1_555 1_555
H55_2 C70_2 1_555 1_555
C71_2 C66_2 1_555 1_555
H56_2 C71_2 1_555 1_555
C73_4 N5_4 1_555 1_555
H57_4 C73_4 1_555 1_555
C74_4 C73_4 1_555 1_555
H58_4 C74_4 1_555 1_555
C75_4 C74_4 1_555 1_555
H59_4 C75_4 1_555 1_555
C76_2 C75_4 1_555 1_555
H60_2 C76_2 1_555 1_555
C77_2 N5_4 1_555 1_555
H61_2 C77_2 1_555 1_555
Na14_2 O10_4 1_555 1_555
Na6 O9_4 1_555 1_555
O25_4 Na14_2 1_555 1_555
H91_4 O25_4 1_555 1_555
C39_2 C40_2 1_555 1_555
C41_2 C42_4 1_555 1_555
C43_4 C44_4 1_555 1_555
C49_4 C50_4 1_555 1_555
C70_2 C71_2 1_555 1_555
C76_2 C77_2 1_555 1_555
Na6 O25_4 1_555 1_555
C121_4 C120_4 1_555 1_555
H85_4 C121_4 1_555 1_555
H86_4 C122_4 1_555 1_555
C123_4 C120_4 1_555 1_555
O21_4 C123_4 1_555 1_555
O33_2 C123_4 1_555 1_555
C121_4 C122_4 1_555 1_555
O21_4 H95_4 1_555 1_555
H53_4 C67_4 1_555 1_555
C68_4 C67_4 1_555 1_555
H54_4 C68_4 1_555 1_555
C69_4 C68_4 1_555 1_555
C72_4 C69_4 1_555 1_555
O15_4 C72_4 1_555 1_555
O27_2 C72_4 1_555 1_555
H63_4 C79_4 1_555 1_555
C80_4 C79_4 1_555 1_555
H64_4 C80_4 1_555 1_555
N6_4 C80_4 1_555 1_555
N7_4 C85_4 1_555 1_555
N8_4 C90_4 1_555 1_555
N10_4 C83_4 1_555 1_555
C83_4 C84_4 1_555 1_555
C84_4 C85_4 1_555 1_555
C85_4 C86_4 1_555 1_555
C86_4 H67_4 1_555 1_555
C87_4 C86_4 1_555 1_555
H68_4 C87_4 1_555 1_555
C88_4 N7_4 1_555 1_555
C89_4 C88_4 1_555 1_555
C90_4 C89_4 1_555 1_555
C91_4 C90_4 1_555 1_555
H69_4 C91_4 1_555 1_555
C92_4 C91_4 1_555 1_555
H70_4 C92_4 1_555 1_555
C93_4 N8_4 1_555 1_555
C102_4 C83_4 1_555 1_555
H74_4 C102_4 1_555 1_555
C103_4 C84_4 1_555 1_555
C104_4 C103_4 1_555 1_555
H75_4 C104_4 1_555 1_555
C105_4 C104_4 1_555 1_555
H76_4 C105_4 1_555 1_555
C106_4 C105_4 1_555 1_555
C107_4 C106_4 1_555 1_555
H77_4 C107_4 1_555 1_555
C108_4 C103_4 1_555 1_555
H78_4 C108_4 1_555 1_555
C109_4 C106_4 1_555 1_555
O30 C109_4 1_555 1_555
O18_2 C109_4 1_555 1_555
C110_4 C89_4 1_555 1_555
C111_4 C110_4 1_555 1_555
H79_4 C111_4 1_555 1_555
C112_4 C111_4 1_555 1_555
H80_4 C112_4 1_555 1_555
C113_4 C112_4 1_555 1_555
C114_4 C113_4 1_555 1_555
H81_4 C114_4 1_555 1_555
C115_4 C110_4 1_555 1_555
H82_4 C115_4 1_555 1_555
C116_4 C113_4 1_555 1_555
O36 C116_4 1_555 1_555
O20_4 C116_4 1_555 1_555
Zn2_4 N6_4 1_555 1_555
Na12 O18_2 1_555 1_555
N7_4 Zn2_4 1_555 1_555
N8_4 Zn2_4 1_555 1_555
N10_4 Zn2_4 1_555 1_555
C87_4 C88_4 1_555 1_555
C92_4 C93_4 1_555 1_555
C107_4 C108_4 1_555 1_555
C114_4 C115_4 1_555 1_555
O20_4 Na16 1_555 1_555
O15_4 H94_4 1_555 1_555
C78_4 H62_4 1_555 1_555
H65_4 C81_4 1_555 1_555
C82_4 C78_4 1_555 1_555
H66_4 C82_4 1_555 1_555
N9_4 C95_4 1_555 1_555
C95_4 C94_4 1_555 1_555
C96_4 C95_4 1_555 1_555
H71_4 C96_4 1_555 1_555
C97_4 C96_4 1_555 1_555
H72_4 C97_4 1_555 1_555
C98_4 N9_4 1_555 1_555
C99_4 C98_4 1_555 1_555
C101_4 C100_4 1_555 1_555
H73_4 C101_4 1_555 1_555
C117_4 C94_4 1_555 1_555
C118_4 C117_4 1_555 1_555
H83_4 C118_4 1_555 1_555
C119_4 C118_4 1_555 1_555
H84_4 C119_4 1_555 1_555
C124_4 C99_4 1_555 1_555
C125_4 C124_4 1_555 1_555
H87_4 C125_4 1_555 1_555
C126_4 C125_4 1_555 1_555
H88_4 C126_4 1_555 1_555
C127_4 C126_4 1_555 1_555
C128_4 C127_4 1_555 1_555
H89_4 C128_4 1_555 1_555
C129_4 C124_4 1_555 1_555
H90_4 C129_4 1_555 1_555
C130_4 C127_4 1_555 1_555
O28_2 C130_4 1_555 1_555
O31_2 C130_4 1_555 1_555
C81_4 C82_4 1_555 1_555
C97_4 C98_4 1_555 1_555
C99_4 C100_4 1_555 1_555
C128_4 C129_4 1_555 1_555
N2_4 C32_4 1_555 1_555
N3_4 C37_4 1_555 1_555
H34_4 C29_4 1_555 1_555
C30_4 N1_4 1_555 1_555
C31_4 C30_4 1_555 1_555
C32_4 C31_4 1_555 1_555
C33_4 C32_4 1_555 1_555
H35_4 C33_4 1_555 1_555
C34_4 C33_4 1_555 1_555
H36_4 C34_4 1_555 1_555
C35_4 N2_4 1_555 1_555
C36_4 C35_4 1_555 1_555
C37_4 C36_4 1_555 1_555
C38_4 C37_4 1_555 1_555
H37_4 C38_4 1_555 1_555
C52_4 C31_4 1_555 1_555
C53_4 C52_4 1_555 1_555
H45_4 C53_4 1_555 1_555
C54_4 C53_4 1_555 1_555
H46_4 C54_4 1_555 1_555
C55_4 C54_4 1_555 1_555
C56_4 C55_4 1_555 1_555
H47_4 C56_4 1_555 1_555
C57_4 C52_4 1_555 1_555
H48_4 C57_4 1_555 1_555
C58_4 C55_4 1_555 1_555
O11_4 C58_4 1_555 1_555
O29 C58_4 1_555 1_555
C59_4 C36_4 1_555 1_555
C60_4 C59_4 1_555 1_555
H49_4 C60_4 1_555 1_555
C61_4 C60_4 1_555 1_555
H50_4 C61_4 1_555 1_555
C62_4 C61_4 1_555 1_555
C63_4 C62_4 1_555 1_555
H51_4 C63_4 1_555 1_555
C64_4 C59_4 1_555 1_555
H52_4 C64_4 1_555 1_555
C65_4 C62_4 1_555 1_555
O32_2 C65_4 1_555 1_555
O34_2 C65_4 1_555 1_555
Zn1_4 N1_4 1_555 1_555
Na12 O11_4 1_555 1_555
N2_4 Zn1_4 1_555 1_555
N3_4 Zn1_4 1_555 1_555
C29_4 C30_4 1_555 1_555
C34_4 C35_4 1_555 1_555
C56_4 C57_4 1_555 1_555
C63_4 C64_4 1_555 1_555
H38_3 C39_3 1_555 1_555
C41_3 C40_3 1_555 1_555
C66_3 C41_3 1_555 1_555
H55_3 C70_3 1_555 1_555
C71_3 C66_3 1_555 1_555
H56_3 C71_3 1_555 1_555
H60_3 C76_3 1_555 1_555
H61_3 C77_3 1_555 1_555
C39_3 C40_3 1_555 1_555
C70_3 C71_3 1_555 1_555
C76_3 C77_3 1_555 1_555
H38_4 C39_4 1_555 1_555
C41_4 C40_4 1_555 1_555
C66_4 C41_4 1_555 1_555
H55_4 C70_4 1_555 1_555
C71_4 C66_4 1_555 1_555
H56_4 C71_4 1_555 1_555
H60_4 C76_4 1_555 1_555
H61_4 C77_4 1_555 1_555
C39_4 C40_4 1_555 1_555
C70_4 C71_4 1_555 1_555
C76_4 C77_4 1_555 1_555

#END
