
###############################################################################
#
# This file contains modified crystal structure data generated from the
# MOF subset of the Cambridge Structural Database (CSD) v543 
# hosted by the Cambridge Crystallographic Data Centre (CCDC).
#
# This work is licensed under the Creative Commons
# Attribution-NonCommercial-ShareAlike 4.0 International License.
# To view a copy of this license, visit
# http://creativecommons.org/licenses/by-nc-sa/4.0/
# or send a letter to
# Creative Commons, PO Box 1866, Mountain View, CA 94042, USA.
#
# CIF created using the CSD Python API on 29 September 2022
# The structure has been converted into the P1 space group
# The structure has a 3D framework
# The original CSD entry EBUQEX is in the monoclinic crystal system
# The framework has been calculated to contain at least 10.0% void space
# The void calculation uses a probe of radius 1.32A, grid spacing 0.4
#
###############################################################################

data_EBUQEX
_chemical_formula_moiety         '(C432 H272 N40 Na4 O80)n'
_symmetry_cell_setting           triclinic
_symmetry_space_group_name_H-M   'P 1'
_symmetry_Int_Tables_number      1
_space_group_name_Hall           'P 1'
loop_
_symmetry_equiv_pos_site_id
_symmetry_equiv_pos_as_xyz
1 x,y,z
_cell_length_a                   19.2710(5)
_cell_length_b                   26.2120(9)
_cell_length_c                   24.0160(7)
_cell_angle_alpha                90
_cell_angle_beta                 92.2180(18)
_cell_angle_gamma                90
_cell_volume                     12122.1
loop_
_atom_site_label
_atom_site_type_symbol
_atom_site_fract_x
_atom_site_fract_y
_atom_site_fract_z
O5 O 0.00207(10) 0.99198(7) 0.34609(8)
N1 N 0.48683(12) 0.07355(8) 0.10033(10)
N2 N 0.61710(11) 0.07795(8) 0.16439(10)
H1 H 0.5930 0.0525 0.1513
C2 C 0.39988(14) 0.01717(11) 0.05499(12)
C3 C 0.42174(14) 0.06391(11) 0.07663(12)
C4 C 0.38185(15) 0.11017(11) 0.07501(13)
H3 H 0.3358 0.1135 0.0624
C5 C 0.42313(16) 0.14794(12) 0.09508(14)
H4 H 0.4111 0.1821 0.0983
C6 C 0.48985(15) 0.12527(11) 0.11069(13)
C7 C 0.54741(15) 0.15176(10) 0.13321(12)
C8 C 0.60696(15) 0.12907(11) 0.15692(12)
C9 C 0.66650(15) 0.15507(12) 0.18141(14)
H5 H 0.6739 0.1901 0.1819
C10 C 0.70965(16) 0.11907(11) 0.20352(13)
H6 H 0.7522 0.1252 0.2219
C11 C 0.67891(14) 0.06988(11) 0.19386(13)
C12 C 0.70713(14) 0.02284(11) 0.21062(12)
C21 C 0.32874(14) 0.01467(11) 0.02793(12)
C25 C 0.20541(15) 0.00596(13) 0.03361(13)
H13 H 0.1670 0.0014 0.0554
C26 C 0.27122(15) 0.00753(14) 0.05869(14)
H14 H 0.2765 0.0037 0.0971
C28 C 0.54400(14) 0.20895(11) 0.13161(13)
C29 C 0.54645(16) 0.23822(11) 0.17992(13)
H16 H 0.5522 0.2224 0.2145
C30 C 0.54034(16) 0.29078(11) 0.17680(12)
H17 H 0.5423 0.3101 0.2093
C31 C 0.53128(15) 0.31503(11) 0.12564(12)
C32 C 0.52905(17) 0.28613(11) 0.07757(13)
H18 H 0.5237 0.3020 0.0431
C33 C 0.53481(17) 0.23372(11) 0.08059(13)
H19 H 0.5325 0.2146 0.0479
C34 C 0.52329(16) 0.37136(11) 0.12090(14)
O3 O 0.52006(11) 0.39445(8) 0.17009(9)
H20 H 0.5121 0.4298 0.1643
O4 O 0.51956(13) 0.39437(8) 0.07689(9)
C35 C 0.77085(14) 0.02379(10) 0.24775(12)
C38 C 0.88987(14) 0.02283(10) 0.31857(12)
C39 C 0.83074(14) 0.04930(11) 0.33341(12)
H23 H 0.8307 0.0669 0.3670
C40 C 0.77209(14) 0.04960(11) 0.29840(12)
H24 H 0.7329 0.0673 0.3089
C41 C 0.95371(14) 0.02296(11) 0.35689(12)
O6 O 0.95693(10) 0.05363(7) 0.39695(8)
Na2 Na 0.00359(6) 0.07071(4) 0.00995(5)
Na4 Na 0.99641(6) 0.07071(4) 0.49005(5)
C22 C 0.31928(15) 0.01921(14) 0.97047(13)
H11 H 0.3577 0.0237 0.9487
C23 C 0.25381(15) 0.01710(14) 0.94526(14)
H12 H 0.2485 0.0197 0.9067
C24 C 0.19609(13) 0.01112(11) 0.97692(12)
C27 C 0.12492(14) 0.00768(11) 0.95153(13)
O1 O 0.07392(10) 0.00138(8) 0.97994(9)
O2 O 0.12024(10) 0.01209(9) 0.89769(9)
H15 H 0.0763 0.0105 0.8786
Na3 Na 0.49641(6) 0.42929(4) 0.99005(5)
N3 N 0.62557(11) 0.96704(8) 0.15688(9)
N4 N 0.50112(11) 0.96510(9) 0.08444(9)
H2 H 0.5227 0.9849 0.1046
C1 C 0.43857(14) 0.97240(11) 0.05647(12)
C13 C 0.68033(14) 0.97511(10) 0.19461(12)
C14 C 0.70863(15) 0.92615(11) 0.21165(12)
H7 H 0.7449 0.9208 0.2377
C15 C 0.67302(15) 0.88967(11) 0.18296(12)
H8 H 0.6805 0.8547 0.1850
C16 C 0.62103(14) 0.91552(10) 0.14845(12)
C17 C 0.57402(14) 0.89120(10) 0.11092(12)
C18 C 0.51881(14) 0.91474(10) 0.08143(12)
C19 C 0.46620(16) 0.88934(12) 0.04787(13)
H9 H 0.4656 0.8550 0.0382
C20 C 0.41769(16) 0.92439(11) 0.03281(14)
H10 H 0.3777 0.9184 0.0109
C36 C 0.83101(14) 0.99863(11) 0.23275(12)
H21 H 0.8320 0.9822 0.1985
C37 C 0.88937(14) 0.99782(11) 0.26831(12)
H22 H 0.9287 0.9801 0.2580
C42 C 0.57943(14) 0.83483(10) 0.10344(12)
C43 C 0.60199(17) 0.81393(12) 0.05447(14)
H25 H 0.6184 0.8354 0.0271
C44 C 0.60064(18) 0.76173(12) 0.04527(14)
H26 H 0.6142 0.7487 0.0113
C45 C 0.57958(15) 0.72945(11) 0.08576(13)
C46 C 0.55858(19) 0.74947(12) 0.13557(14)
H27 H 0.5445 0.7277 0.1635
C47 C 0.55825(18) 0.80160(12) 0.14424(14)
H28 H 0.5436 0.8145 0.1779
C48 C 0.57606(17) 0.67345(12) 0.07574(15)
O7 O 0.57636(14) 0.65314(8) 0.03043(10)
O8 O 0.57001(13) 0.64719(8) 0.12237(9)
H29 H 0.5601 0.6123 0.1152
Na5 Na 0.50359(6) 0.57071(4) 0.00995(5)
O12 O 0.01956(13) 0.89437(8) 0.07689(9)
O11 O 0.92608(10) 0.99862(8) 0.02006(9)
Na1 Na 0.99641(6) 0.92929(4) 0.99005(5)
O13 O 0.95693(10) 0.94637(7) 0.89695(8)
O14 O 0.92364(14) 0.84686(8) 0.96957(10)
N2_2 N 0.11710(11) 0.57795(8) 0.16439(10)
H1_2 H 0.0930 0.5525 0.1513
N3_2 N 0.12557(11) 0.46704(8) 0.15688(9)
N4_2 N 0.00112(11) 0.46510(9) 0.08444(9)
H2_2 H 0.0227 0.4849 0.1046
C7_2 C 0.04741(15) 0.65176(10) 0.13321(12)
C8_2 C 0.10696(15) 0.62907(11) 0.15692(12)
C9_2 C 0.16650(15) 0.65507(12) 0.18141(14)
H5_2 H 0.1739 0.6901 0.1819
C10_2 C 0.20965(16) 0.61907(11) 0.20352(13)
H6_2 H 0.2522 0.6252 0.2219
C11_2 C 0.17891(14) 0.56988(11) 0.19386(13)
C12_2 C 0.20713(14) 0.52284(11) 0.21062(12)
C13_2 C 0.18033(14) 0.47511(10) 0.19461(12)
C14_2 C 0.20863(15) 0.42615(11) 0.21165(12)
H7_2 H 0.2449 0.4208 0.2377
C15_2 C 0.17302(15) 0.38967(11) 0.18296(12)
H8_2 H 0.1805 0.3547 0.1850
C16_2 C 0.12103(14) 0.41552(10) 0.14845(12)
C17_2 C 0.07402(14) 0.39120(10) 0.11092(12)
C18_2 C 0.01881(14) 0.41474(10) 0.08143(12)
C28_2 C 0.04400(14) 0.70895(11) 0.13161(13)
C29_2 C 0.04645(16) 0.73822(11) 0.17992(13)
H16_2 H 0.0522 0.7224 0.2145
C30_2 C 0.04034(16) 0.79078(11) 0.17680(12)
H17_2 H 0.0423 0.8101 0.2093
C31_2 C 0.03128(15) 0.81503(11) 0.12564(12)
C32_2 C 0.02905(17) 0.78613(11) 0.07757(13)
H18_2 H 0.0237 0.8020 0.0431
C33_2 C 0.03481(17) 0.73372(11) 0.08059(13)
H19_2 H 0.0325 0.7146 0.0479
C34_2 C 0.02329(16) 0.87136(11) 0.12090(14)
O3_2 O 0.02006(11) 0.89445(8) 0.17009(9)
H20_2 H 0.0121 0.9298 0.1643
C35_2 C 0.27085(14) 0.52379(10) 0.24775(12)
C36_2 C 0.33101(14) 0.49863(11) 0.23275(12)
H21_2 H 0.3320 0.4822 0.1985
C37_2 C 0.38937(14) 0.49782(11) 0.26831(12)
H22_2 H 0.4287 0.4801 0.2580
C38_2 C 0.38987(14) 0.52283(10) 0.31857(12)
C39_2 C 0.33074(14) 0.54930(11) 0.33341(12)
H23_2 H 0.3307 0.5669 0.3670
C40_2 C 0.27209(14) 0.54960(11) 0.29840(12)
H24_2 H 0.2329 0.5673 0.3089
C41_2 C 0.45371(14) 0.52296(11) 0.35689(12)
O5_2 O 0.50207(10) 0.49198(7) 0.34609(8)
O6_2 O 0.45693(10) 0.55363(7) 0.39695(8)
C42_2 C 0.07943(14) 0.33483(10) 0.10344(12)
C43_2 C 0.10199(17) 0.31393(12) 0.05447(14)
H25_2 H 0.1184 0.3354 0.0271
C44_2 C 0.10064(18) 0.26173(12) 0.04527(14)
H26_2 H 0.1142 0.2487 0.0113
C45_2 C 0.07958(15) 0.22945(11) 0.08576(13)
C46_2 C 0.05858(19) 0.24947(12) 0.13557(14)
H27_2 H 0.0445 0.2277 0.1635
C47_2 C 0.05825(18) 0.30160(12) 0.14424(14)
H28_2 H 0.0436 0.3145 0.1779
C48_2 C 0.07606(17) 0.17345(12) 0.07574(15)
O7_2 O 0.07636(14) 0.15314(8) 0.03043(10)
O8_2 O 0.07001(13) 0.14719(8) 0.12237(9)
H29_2 H 0.0601 0.1123 0.1152
Na4_2 Na 0.49641(6) 0.57071(4) 0.49005(5)
N1_2 N 0.98683(12) 0.57355(8) 0.10033(10)
C1_2 C 0.93857(14) 0.47240(11) 0.05647(12)
C2_2 C 0.89988(14) 0.51717(11) 0.05499(12)
C3_2 C 0.92174(14) 0.56391(11) 0.07663(12)
C4_2 C 0.88185(15) 0.61017(11) 0.07501(13)
H3_2 H 0.8358 0.6135 0.0624
C5_2 C 0.92313(16) 0.64794(12) 0.09508(14)
H4_2 H 0.9111 0.6821 0.0983
C6_2 C 0.98985(15) 0.62527(11) 0.11069(13)
C19_2 C 0.96620(16) 0.38934(12) 0.04787(13)
H9_2 H 0.9656 0.3550 0.0382
C20_2 C 0.91769(16) 0.42439(11) 0.03281(14)
H10_2 H 0.8777 0.4184 0.0109
C21_2 C 0.82874(14) 0.51467(11) 0.02793(12)
C25_2 C 0.70541(15) 0.50596(13) 0.03361(13)
H13_2 H 0.6670 0.5014 0.0554
C26_2 C 0.77122(15) 0.50753(14) 0.05869(14)
H14_2 H 0.7765 0.5037 0.0971
O11_2 O 0.42608(10) 0.49862(8) 0.02006(9)
C22_2 C 0.81928(15) 0.51921(14) 0.97047(13)
H11_2 H 0.8577 0.5237 0.9487
C23_2 C 0.75381(15) 0.51710(14) 0.94526(14)
H12_2 H 0.7485 0.5197 0.9067
C24_2 C 0.69609(13) 0.51112(11) 0.97692(12)
C27_2 C 0.62492(14) 0.50768(11) 0.95153(13)
O1_2 O 0.57392(10) 0.50138(8) 0.97994(9)
O2_2 O 0.62024(10) 0.51209(9) 0.89769(9)
H15_2 H 0.5763 0.5105 0.8786
O9 O 0.58183(18) 0.37962(17) 0.94020(16)
O10 O 0.5938(2) 0.29805(19) 0.95054(15)
N5 N 0.5921(2) 0.3371(2) 0.92234(19)
C49 C 0.6034(2) 0.33134(17) 0.86249(17)
C50 C 0.5923(2) 0.37183(17) 0.8288(2)
H30 H 0.5790 0.4031 0.8433
C51 C 0.6009(3) 0.3662(3) 0.7740(3)
H31 H 0.5917 0.3935 0.7501
C52 C 0.6229(3) 0.3212(3) 0.7527(2)
H32 H 0.6311 0.3186 0.7149
C53 C 0.6326(3) 0.2808(2) 0.7859(2)
H33 H 0.6473 0.2500 0.7712
C54 C 0.6209(3) 0.28464(19) 0.8429(2)
H34 H 0.6249 0.2565 0.8663
O13_2 O 0.45693(10) 0.44637(7) 0.89695(8)
O14_2 O 0.42364(14) 0.34686(8) 0.96957(10)
N3_3 N 0.62557(11) 0.03296(8) 0.65688(9)
N4_3 N 0.50112(11) 0.03490(9) 0.58444(9)
H2_3 H 0.5227 0.0151 0.6046
C1_3 C 0.43857(14) 0.02760(11) 0.55647(12)
C13_3 C 0.68033(14) 0.02489(10) 0.69461(12)
C14_3 C 0.70863(15) 0.07385(11) 0.71165(12)
H7_3 H 0.7449 0.0792 0.7377
C15_3 C 0.67302(15) 0.11033(11) 0.68296(12)
H8_3 H 0.6805 0.1453 0.6850
C16_3 C 0.62103(14) 0.08448(10) 0.64845(12)
C17_3 C 0.57402(14) 0.10880(10) 0.61092(12)
C18_3 C 0.51881(14) 0.08526(10) 0.58143(12)
C19_3 C 0.46620(16) 0.11066(12) 0.54787(13)
H9_3 H 0.4656 0.1450 0.5382
C20_3 C 0.41769(16) 0.07561(11) 0.53281(14)
H10_3 H 0.3777 0.0816 0.5109
C36_3 C 0.83101(14) 0.00137(11) 0.73275(12)
H21_3 H 0.8320 0.0178 0.6985
C37_3 C 0.88937(14) 0.00218(11) 0.76831(12)
H22_3 H 0.9287 0.0199 0.7580
C42_3 C 0.57943(14) 0.16517(10) 0.60344(12)
C43_3 C 0.60199(17) 0.18607(12) 0.55447(14)
H25_3 H 0.6184 0.1646 0.5271
C44_3 C 0.60064(18) 0.23827(12) 0.54527(14)
H26_3 H 0.6142 0.2513 0.5113
C45_3 C 0.57958(15) 0.27055(11) 0.58576(13)
C46_3 C 0.55858(19) 0.25053(12) 0.63557(14)
H27_3 H 0.5445 0.2723 0.6635
C47_3 C 0.55825(18) 0.19840(12) 0.64424(14)
H28_3 H 0.5436 0.1855 0.6779
C48_3 C 0.57606(17) 0.32655(12) 0.57574(15)
O7_3 O 0.57636(14) 0.34686(8) 0.53043(10)
O8_3 O 0.57001(13) 0.35281(8) 0.62237(9)
H29_3 H 0.5601 0.3877 0.6152
O9_2 O 0.08183(18) 0.12038(17) 0.44020(16)
O10_2 O 0.0938(2) 0.20195(19) 0.45054(15)
N5_2 N 0.0921(2) 0.1629(2) 0.42234(19)
C49_2 C 0.1034(2) 0.16866(17) 0.36249(17)
C50_2 C 0.0923(2) 0.12817(17) 0.3288(2)
H30_2 H 0.0790 0.0969 0.3433
C51_2 C 0.1009(3) 0.1338(3) 0.2740(3)
H31_2 H 0.0917 0.1065 0.2501
C52_2 C 0.1229(3) 0.1788(3) 0.2527(2)
H32_2 H 0.1311 0.1814 0.2149
C53_2 C 0.1326(3) 0.2192(2) 0.2859(2)
H33_2 H 0.1473 0.2500 0.2712
C54_2 C 0.1209(3) 0.21536(19) 0.3429(2)
H34_2 H 0.1249 0.2435 0.3663
Na5_2 Na 0.50359(6) 0.42929(4) 0.50995(5)
O12_2 O 0.01956(13) 0.10563(8) 0.57689(9)
N1_3 N 0.48683(12) 0.92645(8) 0.60033(10)
N2_3 N 0.61710(11) 0.92205(8) 0.66439(10)
H1_3 H 0.5930 0.9475 0.6513
C2_3 C 0.39988(14) 0.98283(11) 0.55499(12)
C3_3 C 0.42174(14) 0.93609(11) 0.57663(12)
C4_3 C 0.38185(15) 0.88983(11) 0.57501(13)
H3_3 H 0.3358 0.8865 0.5624
C5_3 C 0.42313(16) 0.85206(12) 0.59508(14)
H4_3 H 0.4111 0.8179 0.5983
C6_3 C 0.48985(15) 0.87473(11) 0.61069(13)
C7_3 C 0.54741(15) 0.84824(10) 0.63321(12)
C8_3 C 0.60696(15) 0.87093(11) 0.65692(12)
C9_3 C 0.66650(15) 0.84493(12) 0.68141(14)
H5_3 H 0.6739 0.8099 0.6819
C10_3 C 0.70965(16) 0.88093(11) 0.70352(13)
H6_3 H 0.7522 0.8748 0.7219
C11_3 C 0.67891(14) 0.93012(11) 0.69386(13)
C12_3 C 0.70713(14) 0.97716(11) 0.71062(12)
C21_3 C 0.32874(14) 0.98533(11) 0.52793(12)
C22_3 C 0.31928(15) 0.98079(14) 0.47047(13)
H11_3 H 0.3577 0.9763 0.4487
C23_3 C 0.25381(15) 0.98290(14) 0.44526(14)
H12_3 H 0.2485 0.9803 0.4067
C24_3 C 0.19609(13) 0.98888(11) 0.47692(12)
C25_3 C 0.20541(15) 0.99404(13) 0.53361(13)
H13_3 H 0.1670 0.9986 0.5554
C26_3 C 0.27122(15) 0.99247(14) 0.55869(14)
H14_3 H 0.2765 0.9963 0.5971
C27_3 C 0.12492(14) 0.99232(11) 0.45153(13)
O1_3 O 0.07392(10) 0.99862(8) 0.47994(9)
O2_3 O 0.12024(10) 0.98791(9) 0.39769(9)
H15_3 H 0.0763 0.9895 0.3786
C28_3 C 0.54400(14) 0.79105(11) 0.63161(13)
C29_3 C 0.54645(16) 0.76178(11) 0.67992(13)
H16_3 H 0.5522 0.7776 0.7145
C30_3 C 0.54034(16) 0.70922(11) 0.67680(12)
H17_3 H 0.5423 0.6899 0.7093
C31_3 C 0.53128(15) 0.68497(11) 0.62564(12)
C32_3 C 0.52905(17) 0.71387(11) 0.57757(13)
H18_3 H 0.5237 0.6980 0.5431
C33_3 C 0.53481(17) 0.76628(11) 0.58059(13)
H19_3 H 0.5325 0.7854 0.5479
C34_3 C 0.52329(16) 0.62864(11) 0.62090(14)
O3_3 O 0.52006(11) 0.60555(8) 0.67009(9)
H20_3 H 0.5121 0.5702 0.6643
O4_2 O 0.51956(13) 0.60563(8) 0.57689(9)
C35_3 C 0.77085(14) 0.97621(10) 0.74775(12)
C38_3 C 0.88987(14) 0.97717(10) 0.81857(12)
C39_3 C 0.83074(14) 0.95070(11) 0.83341(12)
H23_3 H 0.8307 0.9331 0.8670
C40_3 C 0.77209(14) 0.95040(11) 0.79840(12)
H24_3 H 0.7329 0.9327 0.8089
C41_3 C 0.95371(14) 0.97704(11) 0.85689(12)
Na2_2 Na 0.00359(6) 0.92929(4) 0.50995(5)
O11_3 O 0.92608(10) 0.00138(8) 0.52006(9)
O14_3 O 0.92364(14) 0.15314(8) 0.46957(10)
N2_4 N 0.11710(11) 0.42205(8) 0.66439(10)
H1_4 H 0.0930 0.4475 0.6513
N3_4 N 0.12557(11) 0.53296(8) 0.65688(9)
N4_4 N 0.00112(11) 0.53490(9) 0.58444(9)
H2_4 H 0.0227 0.5151 0.6046
C7_4 C 0.04741(15) 0.34824(10) 0.63321(12)
C8_4 C 0.10696(15) 0.37093(11) 0.65692(12)
C9_4 C 0.16650(15) 0.34493(12) 0.68141(14)
H5_4 H 0.1739 0.3099 0.6819
C10_4 C 0.20965(16) 0.38093(11) 0.70352(13)
H6_4 H 0.2522 0.3748 0.7219
C11_4 C 0.17891(14) 0.43012(11) 0.69386(13)
C12_4 C 0.20713(14) 0.47716(11) 0.71062(12)
C13_4 C 0.18033(14) 0.52489(10) 0.69461(12)
C14_4 C 0.20863(15) 0.57385(11) 0.71165(12)
H7_4 H 0.2449 0.5792 0.7377
C15_4 C 0.17302(15) 0.61033(11) 0.68296(12)
H8_4 H 0.1805 0.6453 0.6850
C16_4 C 0.12103(14) 0.58448(10) 0.64845(12)
C17_4 C 0.07402(14) 0.60880(10) 0.61092(12)
C18_4 C 0.01881(14) 0.58526(10) 0.58143(12)
C28_4 C 0.04400(14) 0.29105(11) 0.63161(13)
C29_4 C 0.04645(16) 0.26178(11) 0.67992(13)
H16_4 H 0.0522 0.2776 0.7145
C30_4 C 0.04034(16) 0.20922(11) 0.67680(12)
H17_4 H 0.0423 0.1899 0.7093
C31_4 C 0.03128(15) 0.18497(11) 0.62564(12)
C32_4 C 0.02905(17) 0.21387(11) 0.57757(13)
H18_4 H 0.0237 0.1980 0.5431
C33_4 C 0.03481(17) 0.26628(11) 0.58059(13)
H19_4 H 0.0325 0.2854 0.5479
C34_4 C 0.02329(16) 0.12864(11) 0.62090(14)
O3_4 O 0.02006(11) 0.10555(8) 0.67009(9)
H20_4 H 0.0121 0.0702 0.6643
C35_4 C 0.27085(14) 0.47621(10) 0.74775(12)
C36_4 C 0.33101(14) 0.50137(11) 0.73275(12)
H21_4 H 0.3320 0.5178 0.6985
C37_4 C 0.38937(14) 0.50218(11) 0.76831(12)
H22_4 H 0.4287 0.5199 0.7580
C38_4 C 0.38987(14) 0.47717(10) 0.81857(12)
C39_4 C 0.33074(14) 0.45070(11) 0.83341(12)
H23_4 H 0.3307 0.4331 0.8670
C40_4 C 0.27209(14) 0.45040(11) 0.79840(12)
H24_4 H 0.2329 0.4327 0.8089
C41_4 C 0.45371(14) 0.47704(11) 0.85689(12)
O5_3 O 0.50207(10) 0.50802(7) 0.84609(8)
C42_4 C 0.07943(14) 0.66517(10) 0.60344(12)
C43_4 C 0.10199(17) 0.68607(12) 0.55447(14)
H25_4 H 0.1184 0.6646 0.5271
C44_4 C 0.10064(18) 0.73827(12) 0.54527(14)
H26_4 H 0.1142 0.7513 0.5113
C45_4 C 0.07958(15) 0.77055(11) 0.58576(13)
C46_4 C 0.05858(19) 0.75053(12) 0.63557(14)
H27_4 H 0.0445 0.7723 0.6635
C47_4 C 0.05825(18) 0.69840(12) 0.64424(14)
H28_4 H 0.0436 0.6855 0.6779
C48_4 C 0.07606(17) 0.82655(12) 0.57574(15)
O7_4 O 0.07636(14) 0.84686(8) 0.53043(10)
O8_4 O 0.07001(13) 0.85281(8) 0.62237(9)
H29_4 H 0.0601 0.8877 0.6152
N1_4 N 0.98683(12) 0.42645(8) 0.60033(10)
C1_4 C 0.93857(14) 0.52760(11) 0.55647(12)
C2_4 C 0.89988(14) 0.48283(11) 0.55499(12)
C3_4 C 0.92174(14) 0.43609(11) 0.57663(12)
C4_4 C 0.88185(15) 0.38983(11) 0.57501(13)
H3_4 H 0.8358 0.3865 0.5624
C5_4 C 0.92313(16) 0.35206(12) 0.59508(14)
H4_4 H 0.9111 0.3179 0.5983
C6_4 C 0.98985(15) 0.37473(11) 0.61069(13)
C19_4 C 0.96620(16) 0.61066(12) 0.54787(13)
H9_4 H 0.9656 0.6450 0.5382
C20_4 C 0.91769(16) 0.57561(11) 0.53281(14)
H10_4 H 0.8777 0.5816 0.5109
C21_4 C 0.82874(14) 0.48533(11) 0.52793(12)
C22_4 C 0.81928(15) 0.48079(14) 0.47047(13)
H11_4 H 0.8577 0.4763 0.4487
C23_4 C 0.75381(15) 0.48290(14) 0.44526(14)
H12_4 H 0.7485 0.4803 0.4067
C24_4 C 0.69609(13) 0.48888(11) 0.47692(12)
C25_4 C 0.70541(15) 0.49404(13) 0.53361(13)
H13_4 H 0.6670 0.4986 0.5554
C26_4 C 0.77122(15) 0.49247(14) 0.55869(14)
H14_4 H 0.7765 0.4963 0.5971
C27_4 C 0.62492(14) 0.49232(11) 0.45153(13)
O1_4 O 0.57392(10) 0.49862(8) 0.47994(9)
O2_4 O 0.62024(10) 0.48791(9) 0.39769(9)
H15_4 H 0.5763 0.4895 0.3786
O9_3 O 0.58183(18) 0.62038(17) 0.44020(16)
O10_3 O 0.5938(2) 0.70195(19) 0.45054(15)
N5_3 N 0.5921(2) 0.6629(2) 0.42234(19)
C49_3 C 0.6034(2) 0.66866(17) 0.36249(17)
C50_3 C 0.5923(2) 0.62817(17) 0.3288(2)
H30_3 H 0.5790 0.5969 0.3433
C51_3 C 0.6009(3) 0.6338(3) 0.2740(3)
H31_3 H 0.5917 0.6065 0.2501
C52_3 C 0.6229(3) 0.6788(3) 0.2527(2)
H32_3 H 0.6311 0.6814 0.2149
C53_3 C 0.6326(3) 0.7192(2) 0.2859(2)
H33_3 H 0.6473 0.7500 0.2712
C54_3 C 0.6209(3) 0.71536(19) 0.3429(2)
H34_3 H 0.6249 0.7435 0.3663
O11_4 O 0.42608(10) 0.50138(8) 0.52006(9)
O14_4 O 0.42364(14) 0.65314(8) 0.46957(10)
O13_3 O 0.04307(10) 0.05363(7) 0.10305(8)
N3_5 N 0.37443(11) 0.03296(8) 0.84312(9)
N4_5 N 0.49888(11) 0.03490(9) 0.91556(9)
H2_5 H 0.4773 0.0151 0.8954
C1_5 C 0.56143(14) 0.02760(11) 0.94353(12)
C13_5 C 0.31967(14) 0.02489(10) 0.80539(12)
C14_5 C 0.29137(15) 0.07385(11) 0.78835(12)
H7_5 H 0.2551 0.0792 0.7623
C15_5 C 0.32698(15) 0.11033(11) 0.81704(12)
H8_5 H 0.3195 0.1453 0.8150
C16_5 C 0.37897(14) 0.08448(10) 0.85155(12)
C17_5 C 0.42598(14) 0.10880(10) 0.88908(12)
C18_5 C 0.48119(14) 0.08526(10) 0.91857(12)
C19_5 C 0.53380(16) 0.11066(12) 0.95213(13)
H9_5 H 0.5344 0.1450 0.9618
C20_5 C 0.58231(16) 0.07561(11) 0.96719(14)
H10_5 H 0.6223 0.0816 0.9891
C36_5 C 0.16899(14) 0.00137(11) 0.76725(12)
H21_5 H 0.1680 0.0178 0.8015
C37_5 C 0.11063(14) 0.00218(11) 0.73169(12)
H22_5 H 0.0713 0.0199 0.7420
C42_5 C 0.42057(14) 0.16517(10) 0.89656(12)
C43_5 C 0.39801(17) 0.18607(12) 0.94553(14)
H25_5 H 0.3816 0.1646 0.9729
C44_5 C 0.39936(18) 0.23827(12) 0.95473(14)
H26_5 H 0.3858 0.2513 0.9887
C45_5 C 0.42042(15) 0.27055(11) 0.91424(13)
C46_5 C 0.44142(19) 0.25053(12) 0.86443(14)
H27_5 H 0.4555 0.2723 0.8365
C47_5 C 0.44175(18) 0.19840(12) 0.85576(14)
H28_5 H 0.4564 0.1855 0.8221
C48_5 C 0.42394(17) 0.32655(12) 0.92426(15)
O8_5 O 0.42999(13) 0.35281(8) 0.87763(9)
H29_5 H 0.4399 0.3877 0.8848
O12_3 O 0.98044(13) 0.10563(8) 0.92311(9)
C22_5 C 0.68072(15) 0.98079(14) 0.02953(13)
H11_5 H 0.6423 0.9763 0.0513
C23_5 C 0.74619(15) 0.98290(14) 0.05474(14)
H12_5 H 0.7515 0.9803 0.0933
C24_5 C 0.80391(13) 0.98888(11) 0.02308(12)
C27_5 C 0.87508(14) 0.99232(11) 0.04847(13)
O2_5 O 0.87976(10) 0.98791(9) 0.10231(9)
H15_5 H 0.9237 0.9895 0.1214
N1_5 N 0.51317(12) 0.92645(8) 0.89967(10)
N2_5 N 0.38290(11) 0.92205(8) 0.83561(10)
H1_5 H 0.4070 0.9475 0.8487
C2_5 C 0.60012(14) 0.98283(11) 0.94501(12)
C3_5 C 0.57826(14) 0.93609(11) 0.92337(12)
C4_5 C 0.61815(15) 0.88983(11) 0.92499(13)
H3_5 H 0.6642 0.8865 0.9376
C5_5 C 0.57687(16) 0.85206(12) 0.90492(14)
H4_5 H 0.5889 0.8179 0.9017
C6_5 C 0.51015(15) 0.87473(11) 0.88931(13)
C7_5 C 0.45259(15) 0.84824(10) 0.86679(12)
C8_5 C 0.39304(15) 0.87093(11) 0.84308(12)
C9_5 C 0.33350(15) 0.84493(12) 0.81859(14)
H5_5 H 0.3261 0.8099 0.8181
C10_5 C 0.29035(16) 0.88093(11) 0.79648(13)
H6_5 H 0.2478 0.8748 0.7781
C11_5 C 0.32109(14) 0.93012(11) 0.80614(13)
C12_5 C 0.29287(14) 0.97716(11) 0.78938(12)
C21_5 C 0.67126(14) 0.98533(11) 0.97207(12)
C25_5 C 0.79459(15) 0.99404(13) 0.96639(13)
H13_5 H 0.8330 0.9986 0.9446
C26_5 C 0.72878(15) 0.99247(14) 0.94131(14)
H14_5 H 0.7235 0.9963 0.9029
C28_5 C 0.45600(14) 0.79105(11) 0.86839(13)
C29_5 C 0.45355(16) 0.76178(11) 0.82008(13)
H16_5 H 0.4478 0.7776 0.7855
C30_5 C 0.45966(16) 0.70922(11) 0.82320(12)
H17_5 H 0.4577 0.6899 0.7907
C31_5 C 0.46872(15) 0.68497(11) 0.87436(12)
C32_5 C 0.47095(17) 0.71387(11) 0.92243(13)
H18_5 H 0.4763 0.6980 0.9569
C33_5 C 0.46519(17) 0.76628(11) 0.91941(13)
H19_5 H 0.4675 0.7854 0.9521
C34_5 C 0.47671(16) 0.62864(11) 0.87910(14)
O3_5 O 0.47994(11) 0.60555(8) 0.82991(9)
H20_5 H 0.4879 0.5702 0.8357
O4_3 O 0.48044(13) 0.60563(8) 0.92311(9)
C35_5 C 0.22915(14) 0.97621(10) 0.75225(12)
C38_5 C 0.11013(14) 0.97717(10) 0.68143(12)
C39_5 C 0.16926(14) 0.95070(11) 0.66659(12)
H23_5 H 0.1693 0.9331 0.6330
C40_5 C 0.22791(14) 0.95040(11) 0.70160(12)
H24_5 H 0.2671 0.9327 0.6911
C41_5 C 0.04629(14) 0.97704(11) 0.64311(12)
O6_3 O 0.04307(10) 0.94637(7) 0.60305(8)
C22_6 C 0.18072(15) 0.48079(14) 0.02953(13)
H11_6 H 0.1423 0.4763 0.0513
C23_6 C 0.24619(15) 0.48290(14) 0.05474(14)
H12_6 H 0.2515 0.4803 0.0933
C24_6 C 0.30391(13) 0.48888(11) 0.02308(12)
C27_6 C 0.37508(14) 0.49232(11) 0.04847(13)
O2_6 O 0.37976(10) 0.48791(9) 0.10231(9)
H15_6 H 0.4237 0.4895 0.1214
O9_4 O 0.41817(18) 0.62038(17) 0.05980(16)
O10_4 O 0.4062(2) 0.70195(19) 0.04946(15)
N5_4 N 0.4079(2) 0.6629(2) 0.07766(19)
C49_4 C 0.3966(2) 0.66866(17) 0.13751(17)
C50_4 C 0.4077(2) 0.62817(17) 0.1712(2)
H30_4 H 0.4210 0.5969 0.1567
C51_4 C 0.3991(3) 0.6338(3) 0.2260(3)
H31_4 H 0.4083 0.6065 0.2499
C52_4 C 0.3771(3) 0.6788(3) 0.2473(2)
H32_4 H 0.3689 0.6814 0.2851
C53_4 C 0.3674(3) 0.7192(2) 0.2141(2)
H33_4 H 0.3527 0.7500 0.2288
C54_4 C 0.3791(3) 0.71536(19) 0.1571(2)
H34_4 H 0.3751 0.7435 0.1337
O13_4 O 0.54307(10) 0.55363(7) 0.10305(8)
N1_6 N 0.01317(12) 0.42645(8) 0.89967(10)
C1_6 C 0.06143(14) 0.52760(11) 0.94353(12)
C2_6 C 0.10012(14) 0.48283(11) 0.94501(12)
C3_6 C 0.07826(14) 0.43609(11) 0.92337(12)
C4_6 C 0.11815(15) 0.38983(11) 0.92499(13)
H3_6 H 0.1642 0.3865 0.9376
C5_6 C 0.07687(16) 0.35206(12) 0.90492(14)
H4_6 H 0.0889 0.3179 0.9017
C6_6 C 0.01015(15) 0.37473(11) 0.88931(13)
C19_6 C 0.03380(16) 0.61066(12) 0.95213(13)
H9_6 H 0.0344 0.6450 0.9618
C20_6 C 0.08231(16) 0.57561(11) 0.96719(14)
H10_6 H 0.1223 0.5816 0.9891
C21_6 C 0.17126(14) 0.48533(11) 0.97207(12)
C25_6 C 0.29459(15) 0.49404(13) 0.96639(13)
H13_6 H 0.3330 0.4986 0.9446
C26_6 C 0.22878(15) 0.49247(14) 0.94131(14)
H14_6 H 0.2235 0.4963 0.9029
N2_6 N 0.88290(11) 0.42205(8) 0.83561(10)
H1_6 H 0.9070 0.4475 0.8487
N3_6 N 0.87443(11) 0.53296(8) 0.84312(9)
N4_6 N 0.99888(11) 0.53490(9) 0.91556(9)
H2_6 H 0.9773 0.5151 0.8954
C7_6 C 0.95259(15) 0.34824(10) 0.86679(12)
C8_6 C 0.89304(15) 0.37093(11) 0.84308(12)
C9_6 C 0.83350(15) 0.34493(12) 0.81859(14)
H5_6 H 0.8261 0.3099 0.8181
C10_6 C 0.79035(16) 0.38093(11) 0.79648(13)
H6_6 H 0.7478 0.3748 0.7781
C11_6 C 0.82109(14) 0.43012(11) 0.80614(13)
C12_6 C 0.79287(14) 0.47716(11) 0.78938(12)
C13_6 C 0.81967(14) 0.52489(10) 0.80539(12)
C14_6 C 0.79137(15) 0.57385(11) 0.78835(12)
H7_6 H 0.7551 0.5792 0.7623
C15_6 C 0.82698(15) 0.61033(11) 0.81704(12)
H8_6 H 0.8195 0.6453 0.8150
C16_6 C 0.87897(14) 0.58448(10) 0.85155(12)
C17_6 C 0.92598(14) 0.60880(10) 0.88908(12)
C18_6 C 0.98119(14) 0.58526(10) 0.91857(12)
C28_6 C 0.95600(14) 0.29105(11) 0.86839(13)
C29_6 C 0.95355(16) 0.26178(11) 0.82008(13)
H16_6 H 0.9478 0.2776 0.7855
C30_6 C 0.95966(16) 0.20922(11) 0.82320(12)
H17_6 H 0.9577 0.1899 0.7907
C31_6 C 0.96872(15) 0.18497(11) 0.87436(12)
C32_6 C 0.97095(17) 0.21387(11) 0.92243(13)
H18_6 H 0.9763 0.1980 0.9569
C33_6 C 0.96519(17) 0.26628(11) 0.91941(13)
H19_6 H 0.9675 0.2854 0.9521
C34_6 C 0.97671(16) 0.12864(11) 0.87910(14)
O3_6 O 0.97994(11) 0.10555(8) 0.82991(9)
H20_6 H 0.9879 0.0702 0.8357
C35_6 C 0.72915(14) 0.47621(10) 0.75225(12)
C36_6 C 0.66899(14) 0.50137(11) 0.76725(12)
H21_6 H 0.6680 0.5178 0.8015
C37_6 C 0.61063(14) 0.50218(11) 0.73169(12)
H22_6 H 0.5713 0.5199 0.7420
C38_6 C 0.61013(14) 0.47717(10) 0.68143(12)
C39_6 C 0.66926(14) 0.45070(11) 0.66659(12)
H23_6 H 0.6693 0.4331 0.6330
C40_6 C 0.72791(14) 0.45040(11) 0.70160(12)
H24_6 H 0.7671 0.4327 0.6911
C41_6 C 0.54629(14) 0.47704(11) 0.64311(12)
O5_4 O 0.49793(10) 0.50802(7) 0.65391(8)
O6_4 O 0.54307(10) 0.44637(7) 0.60305(8)
C42_6 C 0.92057(14) 0.66517(10) 0.89656(12)
C43_6 C 0.89801(17) 0.68607(12) 0.94553(14)
H25_6 H 0.8816 0.6646 0.9729
C44_6 C 0.89936(18) 0.73827(12) 0.95473(14)
H26_6 H 0.8858 0.7513 0.9887
C45_6 C 0.92042(15) 0.77055(11) 0.91424(13)
C46_6 C 0.94142(19) 0.75053(12) 0.86443(14)
H27_6 H 0.9555 0.7723 0.8365
C47_6 C 0.94175(18) 0.69840(12) 0.85576(14)
H28_6 H 0.9564 0.6855 0.8221
C48_6 C 0.92394(17) 0.82655(12) 0.92426(15)
O8_6 O 0.92999(13) 0.85281(8) 0.87763(9)
H29_6 H 0.9399 0.8877 0.8848
N1_7 N 0.51317(12) 0.07355(8) 0.39967(10)
N2_7 N 0.38290(11) 0.07795(8) 0.33561(10)
H1_7 H 0.4070 0.0525 0.3487
C2_7 C 0.60012(14) 0.01717(11) 0.44501(12)
C3_7 C 0.57826(14) 0.06391(11) 0.42337(12)
C4_7 C 0.61815(15) 0.11017(11) 0.42499(13)
H3_7 H 0.6642 0.1135 0.4376
C5_7 C 0.57687(16) 0.14794(12) 0.40492(14)
H4_7 H 0.5889 0.1821 0.4017
C6_7 C 0.51015(15) 0.12527(11) 0.38931(13)
C7_7 C 0.45259(15) 0.15176(10) 0.36679(12)
C8_7 C 0.39304(15) 0.12907(11) 0.34308(12)
C9_7 C 0.33350(15) 0.15507(12) 0.31859(14)
H5_7 H 0.3261 0.1901 0.3181
C10_7 C 0.29035(16) 0.11907(11) 0.29648(13)
H6_7 H 0.2478 0.1252 0.2781
C11_7 C 0.32109(14) 0.06988(11) 0.30614(13)
C12_7 C 0.29287(14) 0.02284(11) 0.28938(12)
C21_7 C 0.67126(14) 0.01467(11) 0.47207(12)
C22_7 C 0.68072(15) 0.01921(14) 0.52953(13)
H11_7 H 0.6423 0.0237 0.5513
C23_7 C 0.74619(15) 0.01710(14) 0.55474(14)
H12_7 H 0.7515 0.0197 0.5933
C24_7 C 0.80391(13) 0.01112(11) 0.52308(12)
C25_7 C 0.79459(15) 0.00596(13) 0.46639(13)
H13_7 H 0.8330 0.0014 0.4446
C26_7 C 0.72878(15) 0.00753(14) 0.44131(14)
H14_7 H 0.7235 0.0037 0.4029
C27_7 C 0.87508(14) 0.00768(11) 0.54847(13)
O2_7 O 0.87976(10) 0.01209(9) 0.60231(9)
H15_7 H 0.9237 0.0105 0.6214
C28_7 C 0.45600(14) 0.20895(11) 0.36839(13)
C29_7 C 0.45355(16) 0.23822(11) 0.32008(13)
H16_7 H 0.4478 0.2224 0.2855
C30_7 C 0.45966(16) 0.29078(11) 0.32320(12)
H17_7 H 0.4577 0.3101 0.2907
C31_7 C 0.46872(15) 0.31503(11) 0.37436(12)
C32_7 C 0.47095(17) 0.28613(11) 0.42243(13)
H18_7 H 0.4763 0.3020 0.4569
C33_7 C 0.46519(17) 0.23372(11) 0.41941(13)
H19_7 H 0.4675 0.2146 0.4521
C34_7 C 0.47671(16) 0.37136(11) 0.37910(14)
O3_7 O 0.47994(11) 0.39445(8) 0.32991(9)
H20_7 H 0.4879 0.4298 0.3357
O4_4 O 0.48044(13) 0.39437(8) 0.42311(9)
C35_7 C 0.22915(14) 0.02379(10) 0.25225(12)
C38_7 C 0.11013(14) 0.02283(10) 0.18143(12)
C39_7 C 0.16926(14) 0.04930(11) 0.16659(12)
H23_7 H 0.1693 0.0669 0.1330
C40_7 C 0.22791(14) 0.04960(11) 0.20160(12)
H24_7 H 0.2671 0.0673 0.1911
C41_7 C 0.04629(14) 0.02296(11) 0.14311(12)
N3_7 N 0.37443(11) 0.96704(8) 0.34312(9)
N4_7 N 0.49888(11) 0.96510(9) 0.41556(9)
H2_7 H 0.4773 0.9849 0.3954
C1_7 C 0.56143(14) 0.97240(11) 0.44353(12)
C13_7 C 0.31967(14) 0.97511(10) 0.30539(12)
C14_7 C 0.29137(15) 0.92615(11) 0.28835(12)
H7_7 H 0.2551 0.9208 0.2623
C15_7 C 0.32698(15) 0.88967(11) 0.31704(12)
H8_7 H 0.3195 0.8547 0.3150
C16_7 C 0.37897(14) 0.91552(10) 0.35155(12)
C17_7 C 0.42598(14) 0.89120(10) 0.38908(12)
C18_7 C 0.48119(14) 0.91474(10) 0.41857(12)
C19_7 C 0.53380(16) 0.88934(12) 0.45213(13)
H9_7 H 0.5344 0.8550 0.4618
C20_7 C 0.58231(16) 0.92439(11) 0.46719(14)
H10_7 H 0.6223 0.9184 0.4891
C36_7 C 0.16899(14) 0.99863(11) 0.26725(12)
H21_7 H 0.1680 0.9822 0.3015
C37_7 C 0.11063(14) 0.99782(11) 0.23169(12)
H22_7 H 0.0713 0.9801 0.2420
C42_7 C 0.42057(14) 0.83483(10) 0.39656(12)
C43_7 C 0.39801(17) 0.81393(12) 0.44553(14)
H25_7 H 0.3816 0.8354 0.4729
C44_7 C 0.39936(18) 0.76173(12) 0.45473(14)
H26_7 H 0.3858 0.7487 0.4887
C45_7 C 0.42042(15) 0.72945(11) 0.41424(13)
C46_7 C 0.44142(19) 0.74947(12) 0.36443(14)
H27_7 H 0.4555 0.7277 0.3365
C47_7 C 0.44175(18) 0.80160(12) 0.35576(14)
H28_7 H 0.4564 0.8145 0.3221
C48_7 C 0.42394(17) 0.67345(12) 0.42426(15)
O8_7 O 0.42999(13) 0.64719(8) 0.37763(9)
H29_7 H 0.4399 0.6123 0.3848
O9_5 O 0.91817(18) 0.87962(17) 0.55980(16)
O10_5 O 0.9062(2) 0.79805(19) 0.54946(15)
N5_5 N 0.9079(2) 0.8371(2) 0.57766(19)
C49_5 C 0.8966(2) 0.83134(17) 0.63751(17)
C50_5 C 0.9077(2) 0.87183(17) 0.6712(2)
H30_5 H 0.9210 0.9031 0.6567
C51_5 C 0.8991(3) 0.8662(3) 0.7260(3)
H31_5 H 0.9083 0.8935 0.7499
C52_5 C 0.8771(3) 0.8212(3) 0.7473(2)
H32_5 H 0.8689 0.8186 0.7851
C53_5 C 0.8674(3) 0.7808(2) 0.7141(2)
H33_5 H 0.8527 0.7500 0.7288
C54_5 C 0.8791(3) 0.78464(19) 0.6571(2)
H34_5 H 0.8751 0.7565 0.6337
O12_4 O 0.98044(13) 0.89437(8) 0.42311(9)
N1_8 N 0.01317(12) 0.57355(8) 0.39967(10)
C1_8 C 0.06143(14) 0.47240(11) 0.44353(12)
C2_8 C 0.10012(14) 0.51717(11) 0.44501(12)
C3_8 C 0.07826(14) 0.56391(11) 0.42337(12)
C4_8 C 0.11815(15) 0.61017(11) 0.42499(13)
H3_8 H 0.1642 0.6135 0.4376
C5_8 C 0.07687(16) 0.64794(12) 0.40492(14)
H4_8 H 0.0889 0.6821 0.4017
C6_8 C 0.01015(15) 0.62527(11) 0.38931(13)
C19_8 C 0.03380(16) 0.38934(12) 0.45213(13)
H9_8 H 0.0344 0.3550 0.4618
C20_8 C 0.08231(16) 0.42439(11) 0.46719(14)
H10_8 H 0.1223 0.4184 0.4891
C21_8 C 0.17126(14) 0.51467(11) 0.47207(12)
C22_8 C 0.18072(15) 0.51921(14) 0.52953(13)
H11_8 H 0.1423 0.5237 0.5513
C23_8 C 0.24619(15) 0.51710(14) 0.55474(14)
H12_8 H 0.2515 0.5197 0.5933
C24_8 C 0.30391(13) 0.51112(11) 0.52308(12)
C25_8 C 0.29459(15) 0.50596(13) 0.46639(13)
H13_8 H 0.3330 0.5014 0.4446
C26_8 C 0.22878(15) 0.50753(14) 0.44131(14)
H14_8 H 0.2235 0.5037 0.4029
C27_8 C 0.37508(14) 0.50768(11) 0.54847(13)
O2_8 O 0.37976(10) 0.51209(9) 0.60231(9)
H15_8 H 0.4237 0.5105 0.6214
O9_6 O 0.41817(18) 0.37962(17) 0.55980(16)
O10_6 O 0.4062(2) 0.29805(19) 0.54946(15)
N5_6 N 0.4079(2) 0.3371(2) 0.57766(19)
C49_6 C 0.3966(2) 0.33134(17) 0.63751(17)
C50_6 C 0.4077(2) 0.37183(17) 0.6712(2)
H30_6 H 0.4210 0.4031 0.6567
C51_6 C 0.3991(3) 0.3662(3) 0.7260(3)
H31_6 H 0.4083 0.3935 0.7499
C52_6 C 0.3771(3) 0.3212(3) 0.7473(2)
H32_6 H 0.3689 0.3186 0.7851
C53_6 C 0.3674(3) 0.2808(2) 0.7141(2)
H33_6 H 0.3527 0.2500 0.7288
C54_6 C 0.3791(3) 0.28464(19) 0.6571(2)
H34_6 H 0.3751 0.2565 0.6337
N2_8 N 0.88290(11) 0.57795(8) 0.33561(10)
H1_8 H 0.9070 0.5525 0.3487
N3_8 N 0.87443(11) 0.46704(8) 0.34312(9)
N4_8 N 0.99888(11) 0.46510(9) 0.41556(9)
H2_8 H 0.9773 0.4849 0.3954
C7_8 C 0.95259(15) 0.65176(10) 0.36679(12)
C8_8 C 0.89304(15) 0.62907(11) 0.34308(12)
C9_8 C 0.83350(15) 0.65507(12) 0.31859(14)
H5_8 H 0.8261 0.6901 0.3181
C10_8 C 0.79035(16) 0.61907(11) 0.29648(13)
H6_8 H 0.7478 0.6252 0.2781
C11_8 C 0.82109(14) 0.56988(11) 0.30614(13)
C12_8 C 0.79287(14) 0.52284(11) 0.28938(12)
C13_8 C 0.81967(14) 0.47511(10) 0.30539(12)
C14_8 C 0.79137(15) 0.42615(11) 0.28835(12)
H7_8 H 0.7551 0.4208 0.2623
C15_8 C 0.82698(15) 0.38967(11) 0.31704(12)
H8_8 H 0.8195 0.3547 0.3150
C16_8 C 0.87897(14) 0.41552(10) 0.35155(12)
C17_8 C 0.92598(14) 0.39120(10) 0.38908(12)
C18_8 C 0.98119(14) 0.41474(10) 0.41857(12)
C28_8 C 0.95600(14) 0.70895(11) 0.36839(13)
C29_8 C 0.95355(16) 0.73822(11) 0.32008(13)
H16_8 H 0.9478 0.7224 0.2855
C30_8 C 0.95966(16) 0.79078(11) 0.32320(12)
H17_8 H 0.9577 0.8101 0.2907
C31_8 C 0.96872(15) 0.81503(11) 0.37436(12)
C32_8 C 0.97095(17) 0.78613(11) 0.42243(13)
H18_8 H 0.9763 0.8020 0.4569
C33_8 C 0.96519(17) 0.73372(11) 0.41941(13)
H19_8 H 0.9675 0.7146 0.4521
C34_8 C 0.97671(16) 0.87136(11) 0.37910(14)
O3_8 O 0.97994(11) 0.89445(8) 0.32991(9)
H20_8 H 0.9879 0.9298 0.3357
C35_8 C 0.72915(14) 0.52379(10) 0.25225(12)
C36_8 C 0.66899(14) 0.49863(11) 0.26725(12)
H21_8 H 0.6680 0.4822 0.3015
C37_8 C 0.61063(14) 0.49782(11) 0.23169(12)
H22_8 H 0.5713 0.4801 0.2420
C38_8 C 0.61013(14) 0.52283(10) 0.18143(12)
C39_8 C 0.66926(14) 0.54930(11) 0.16659(12)
H23_8 H 0.6693 0.5669 0.1330
C40_8 C 0.72791(14) 0.54960(11) 0.20160(12)
H24_8 H 0.7671 0.5673 0.1911
C41_8 C 0.54629(14) 0.52296(11) 0.14311(12)
O5_5 O 0.49793(10) 0.49198(7) 0.15391(8)
C42_8 C 0.92057(14) 0.33483(10) 0.39656(12)
C43_8 C 0.89801(17) 0.31393(12) 0.44553(14)
H25_8 H 0.8816 0.3354 0.4729
C44_8 C 0.89936(18) 0.26173(12) 0.45473(14)
H26_8 H 0.8858 0.2487 0.4887
C45_8 C 0.92042(15) 0.22945(11) 0.41424(13)
C46_8 C 0.94142(19) 0.24947(12) 0.36443(14)
H27_8 H 0.9555 0.2277 0.3365
C47_8 C 0.94175(18) 0.30160(12) 0.35576(14)
H28_8 H 0.9564 0.3145 0.3221
C48_8 C 0.92394(17) 0.17345(12) 0.42426(15)
O8_8 O 0.92999(13) 0.14719(8) 0.37763(9)
H29_8 H 0.9399 0.1123 0.3848
O9_7 O 0.08183(18) 0.87962(17) 0.94020(16)
O10_7 O 0.0938(2) 0.79805(19) 0.95054(15)
N5_7 N 0.0921(2) 0.8371(2) 0.92234(19)
C49_7 C 0.1034(2) 0.83134(17) 0.86249(17)
C50_7 C 0.0923(2) 0.87183(17) 0.8288(2)
H30_7 H 0.0790 0.9031 0.8433
C51_7 C 0.1009(3) 0.8662(3) 0.7740(3)
H31_7 H 0.0917 0.8935 0.7501
C52_7 C 0.1229(3) 0.8212(3) 0.7527(2)
H32_7 H 0.1311 0.8186 0.7149
C53_7 C 0.1326(3) 0.7808(2) 0.7859(2)
H33_7 H 0.1473 0.7500 0.7712
C54_7 C 0.1209(3) 0.78464(19) 0.8429(2)
H34_7 H 0.1249 0.7565 0.8663
O5_6 O 0.00207(10) 0.00802(7) 0.84609(8)
O9_8 O 0.91817(18) 0.12038(17) 0.05980(16)
O10_8 O 0.9062(2) 0.20195(19) 0.04946(15)
N5_8 N 0.9079(2) 0.1629(2) 0.07766(19)
C49_8 C 0.8966(2) 0.16866(17) 0.13751(17)
C50_8 C 0.9077(2) 0.12817(17) 0.1712(2)
H30_8 H 0.9210 0.0969 0.1567
C51_8 C 0.8991(3) 0.1338(3) 0.2260(3)
H31_8 H 0.9083 0.1065 0.2499
C52_8 C 0.8771(3) 0.1788(3) 0.2473(2)
H32_8 H 0.8689 0.1814 0.2851
C53_8 C 0.8674(3) 0.2192(2) 0.2141(2)
H33_8 H 0.8527 0.2500 0.2288
C54_8 C 0.8791(3) 0.21536(19) 0.1571(2)
H34_8 H 0.8751 0.2435 0.1337
O5_7 O 0.99793(10) 0.00802(7) 0.65391(8)
O5_8 O 0.99793(10) 0.99198(7) 0.15391(8)
loop_
_geom_bond_atom_site_label_1
_geom_bond_atom_site_label_2
_geom_bond_site_symmetry_1
_geom_bond_site_symmetry_2
N1 C3 1_555 1_555
N2 H1 1_555 1_555
C3 C2 1_555 1_555
C4 C3 1_555 1_555
H3 C4 1_555 1_555
C5 C4 1_555 1_555
H4 C5 1_555 1_555
C6 N1 1_555 1_555
C7 C6 1_555 1_555
C8 N2 1_555 1_555
C9 C8 1_555 1_555
H5 C9 1_555 1_555
C10 C9 1_555 1_555
H6 C10 1_555 1_555
C11 N2 1_555 1_555
C12 C11 1_555 1_555
C21 C2 1_555 1_555
H13 C25 1_555 1_555
C26 C21 1_555 1_555
H14 C26 1_555 1_555
C28 C7 1_555 1_555
C29 C28 1_555 1_555
H16 C29 1_555 1_555
C30 C29 1_555 1_555
H17 C30 1_555 1_555
C31 C30 1_555 1_555
C32 C31 1_555 1_555
H18 C32 1_555 1_555
C33 C28 1_555 1_555
H19 C33 1_555 1_555
C34 C31 1_555 1_555
O3 C34 1_555 1_555
H20 O3 1_555 1_555
O4 C34 1_555 1_555
C35 C12 1_555 1_555
C39 C38 1_555 1_555
H23 C39 1_555 1_555
C40 C35 1_555 1_555
H24 C40 1_555 1_555
C41 C38 1_555 1_555
O6 C41 1_555 1_555
Na4 O6 1_555 1_555
C5 C6 1_555 1_555
C7 C8 1_555 1_555
C10 C11 1_555 1_555
C25 C26 1_555 1_555
C32 C33 1_555 1_555
C39 C40 1_555 1_555
H11 C22 1_555 1_555
C23 C22 1_555 1_555
H12 C23 1_555 1_555
C24 C23 1_555 1_555
C27 C24 1_555 1_555
O1 C27 1_555 1_555
O2 C27 1_555 1_555
H15 O2 1_555 1_555
N3 C13 1_555 1_555
N4 H2 1_555 1_555
C1 N4 1_555 1_555
C14 C13 1_555 1_555
H7 C14 1_555 1_555
C15 C14 1_555 1_555
H8 C15 1_555 1_555
C16 N3 1_555 1_555
C17 C16 1_555 1_555
C18 N4 1_555 1_555
C19 C18 1_555 1_555
H9 C19 1_555 1_555
C20 C1 1_555 1_555
H10 C20 1_555 1_555
H21 C36 1_555 1_555
C37 C36 1_555 1_555
H22 C37 1_555 1_555
C42 C17 1_555 1_555
C43 C42 1_555 1_555
H25 C43 1_555 1_555
C44 C43 1_555 1_555
H26 C44 1_555 1_555
C45 C44 1_555 1_555
C46 C45 1_555 1_555
H27 C46 1_555 1_555
C47 C42 1_555 1_555
H28 C47 1_555 1_555
C48 C45 1_555 1_555
O7 C48 1_555 1_555
O8 C48 1_555 1_555
H29 O8 1_555 1_555
Na5 O7 1_555 1_555
C15 C16 1_555 1_555
C17 C18 1_555 1_555
C19 C20 1_555 1_555
C46 C47 1_555 1_555
O13 Na1 1_555 1_555
O14 Na1 1_555 1_555
N2_2 H1_2 1_555 1_555
N3_2 C13_2 1_555 1_555
N4_2 H2_2 1_555 1_555
C8_2 N2_2 1_555 1_555
C9_2 C8_2 1_555 1_555
H5_2 C9_2 1_555 1_555
C10_2 C9_2 1_555 1_555
H6_2 C10_2 1_555 1_555
C11_2 N2_2 1_555 1_555
C12_2 C11_2 1_555 1_555
C13_2 C12_2 1_555 1_555
C14_2 C13_2 1_555 1_555
H7_2 C14_2 1_555 1_555
C15_2 C14_2 1_555 1_555
H8_2 C15_2 1_555 1_555
C16_2 N3_2 1_555 1_555
C17_2 C16_2 1_555 1_555
C18_2 N4_2 1_555 1_555
C28_2 C7_2 1_555 1_555
C29_2 C28_2 1_555 1_555
H16_2 C29_2 1_555 1_555
C30_2 C29_2 1_555 1_555
H17_2 C30_2 1_555 1_555
C31_2 C30_2 1_555 1_555
C32_2 C31_2 1_555 1_555
H18_2 C32_2 1_555 1_555
C33_2 C28_2 1_555 1_555
H19_2 C33_2 1_555 1_555
C34_2 C31_2 1_555 1_555
O3_2 C34_2 1_555 1_555
H20_2 O3_2 1_555 1_555
O12 C34_2 1_555 1_555
C35_2 C12_2 1_555 1_555
C36_2 C35_2 1_555 1_555
H21_2 C36_2 1_555 1_555
C37_2 C36_2 1_555 1_555
H22_2 C37_2 1_555 1_555
C38_2 C37_2 1_555 1_555
C39_2 C38_2 1_555 1_555
H23_2 C39_2 1_555 1_555
C40_2 C35_2 1_555 1_555
H24_2 C40_2 1_555 1_555
C41_2 C38_2 1_555 1_555
O5_2 C41_2 1_555 1_555
O6_2 C41_2 1_555 1_555
C42_2 C17_2 1_555 1_555
C43_2 C42_2 1_555 1_555
H25_2 C43_2 1_555 1_555
C44_2 C43_2 1_555 1_555
H26_2 C44_2 1_555 1_555
C45_2 C44_2 1_555 1_555
C46_2 C45_2 1_555 1_555
H27_2 C46_2 1_555 1_555
C47_2 C42_2 1_555 1_555
H28_2 C47_2 1_555 1_555
C48_2 C45_2 1_555 1_555
O7_2 C48_2 1_555 1_555
O8_2 C48_2 1_555 1_555
H29_2 O8_2 1_555 1_555
Na4_2 O6_2 1_555 1_555
Na2 O7_2 1_555 1_555
C7_2 C8_2 1_555 1_555
C10_2 C11_2 1_555 1_555
C15_2 C16_2 1_555 1_555
C17_2 C18_2 1_555 1_555
C32_2 C33_2 1_555 1_555
C39_2 C40_2 1_555 1_555
C46_2 C47_2 1_555 1_555
N1_2 C3_2 1_555 1_555
C2_2 C1_2 1_555 1_555
C3_2 C2_2 1_555 1_555
C4_2 C3_2 1_555 1_555
H3_2 C4_2 1_555 1_555
C5_2 C4_2 1_555 1_555
H4_2 C5_2 1_555 1_555
C6_2 N1_2 1_555 1_555
H9_2 C19_2 1_555 1_555
C20_2 C1_2 1_555 1_555
H10_2 C20_2 1_555 1_555
C21_2 C2_2 1_555 1_555
H13_2 C25_2 1_555 1_555
C26_2 C21_2 1_555 1_555
H14_2 C26_2 1_555 1_555
C5_2 C6_2 1_555 1_555
C19_2 C20_2 1_555 1_555
C25_2 C26_2 1_555 1_555
Na5 O11_2 1_555 1_555
H11_2 C22_2 1_555 1_555
C23_2 C22_2 1_555 1_555
H12_2 C23_2 1_555 1_555
C24_2 C23_2 1_555 1_555
C27_2 C24_2 1_555 1_555
O1_2 C27_2 1_555 1_555
O2_2 C27_2 1_555 1_555
H15_2 O2_2 1_555 1_555
Na3 O1_2 1_555 1_555
O9 Na3 1_555 1_555
O10 N5 1_555 1_555
N5 O9 1_555 1_555
C49 N5 1_555 1_555
C50 C49 1_555 1_555
H30 C50 1_555 1_555
C51 C50 1_555 1_555
H31 C51 1_555 1_555
C52 C51 1_555 1_555
H32 C52 1_555 1_555
C53 C52 1_555 1_555
H33 C53 1_555 1_555
C54 C49 1_555 1_555
H34 C54 1_555 1_555
O13_2 Na3 1_555 1_555
O14_2 Na3 1_555 1_555
C53 C54 1_555 1_555
N3_3 C13_3 1_555 1_555
N4_3 H2_3 1_555 1_555
C1_3 N4_3 1_555 1_555
C14_3 C13_3 1_555 1_555
H7_3 C14_3 1_555 1_555
C15_3 C14_3 1_555 1_555
H8_3 C15_3 1_555 1_555
C16_3 N3_3 1_555 1_555
C17_3 C16_3 1_555 1_555
C18_3 N4_3 1_555 1_555
C19_3 C18_3 1_555 1_555
H9_3 C19_3 1_555 1_555
C20_3 C1_3 1_555 1_555
H10_3 C20_3 1_555 1_555
H21_3 C36_3 1_555 1_555
C37_3 C36_3 1_555 1_555
H22_3 C37_3 1_555 1_555
C42_3 C17_3 1_555 1_555
C43_3 C42_3 1_555 1_555
H25_3 C43_3 1_555 1_555
C44_3 C43_3 1_555 1_555
H26_3 C44_3 1_555 1_555
C45_3 C44_3 1_555 1_555
C46_3 C45_3 1_555 1_555
H27_3 C46_3 1_555 1_555
C47_3 C42_3 1_555 1_555
H28_3 C47_3 1_555 1_555
C48_3 C45_3 1_555 1_555
O7_3 C48_3 1_555 1_555
O8_3 C48_3 1_555 1_555
H29_3 O8_3 1_555 1_555
O10_2 N5_2 1_555 1_555
N5_2 O9_2 1_555 1_555
C49_2 N5_2 1_555 1_555
C50_2 C49_2 1_555 1_555
H30_2 C50_2 1_555 1_555
C51_2 C50_2 1_555 1_555
H31_2 C51_2 1_555 1_555
C52_2 C51_2 1_555 1_555
H32_2 C52_2 1_555 1_555
C53_2 C52_2 1_555 1_555
H33_2 C53_2 1_555 1_555
C54_2 C49_2 1_555 1_555
H34_2 C54_2 1_555 1_555
Na5_2 O7_3 1_555 1_555
C15_3 C16_3 1_555 1_555
C17_3 C18_3 1_555 1_555
C19_3 C20_3 1_555 1_555
C46_3 C47_3 1_555 1_555
C53_2 C54_2 1_555 1_555
N1_3 C3_3 1_555 1_555
N2_3 H1_3 1_555 1_555
C3_3 C2_3 1_555 1_555
C4_3 C3_3 1_555 1_555
H3_3 C4_3 1_555 1_555
C5_3 C4_3 1_555 1_555
H4_3 C5_3 1_555 1_555
C6_3 N1_3 1_555 1_555
C7_3 C6_3 1_555 1_555
C8_3 N2_3 1_555 1_555
C9_3 C8_3 1_555 1_555
H5_3 C9_3 1_555 1_555
C10_3 C9_3 1_555 1_555
H6_3 C10_3 1_555 1_555
C11_3 N2_3 1_555 1_555
C12_3 C11_3 1_555 1_555
C21_3 C2_3 1_555 1_555
C22_3 C21_3 1_555 1_555
H11_3 C22_3 1_555 1_555
C23_3 C22_3 1_555 1_555
H12_3 C23_3 1_555 1_555
C24_3 C23_3 1_555 1_555
C25_3 C24_3 1_555 1_555
H13_3 C25_3 1_555 1_555
C26_3 C21_3 1_555 1_555
H14_3 C26_3 1_555 1_555
C27_3 C24_3 1_555 1_555
O1_3 C27_3 1_555 1_555
O2_3 C27_3 1_555 1_555
H15_3 O2_3 1_555 1_555
C28_3 C7_3 1_555 1_555
C29_3 C28_3 1_555 1_555
H16_3 C29_3 1_555 1_555
C30_3 C29_3 1_555 1_555
H17_3 C30_3 1_555 1_555
C31_3 C30_3 1_555 1_555
C32_3 C31_3 1_555 1_555
H18_3 C32_3 1_555 1_555
C33_3 C28_3 1_555 1_555
H19_3 C33_3 1_555 1_555
C34_3 C31_3 1_555 1_555
O3_3 C34_3 1_555 1_555
H20_3 O3_3 1_555 1_555
O4_2 C34_3 1_555 1_555
C35_3 C12_3 1_555 1_555
C39_3 C38_3 1_555 1_555
H23_3 C39_3 1_555 1_555
C40_3 C35_3 1_555 1_555
H24_3 C40_3 1_555 1_555
C41_3 C38_3 1_555 1_555
O13 C41_3 1_555 1_555
Na2_2 O1_3 1_555 1_555
Na4_2 O4_2 1_555 1_555
C5_3 C6_3 1_555 1_555
C7_3 C8_3 1_555 1_555
C10_3 C11_3 1_555 1_555
C25_3 C26_3 1_555 1_555
C32_3 C33_3 1_555 1_555
C39_3 C40_3 1_555 1_555
O11_3 Na4 1_555 1_555
O14_3 Na4 1_555 1_555
N2_4 H1_4 1_555 1_555
N3_4 C13_4 1_555 1_555
N4_4 H2_4 1_555 1_555
C8_4 N2_4 1_555 1_555
C9_4 C8_4 1_555 1_555
H5_4 C9_4 1_555 1_555
C10_4 C9_4 1_555 1_555
H6_4 C10_4 1_555 1_555
C11_4 N2_4 1_555 1_555
C12_4 C11_4 1_555 1_555
C13_4 C12_4 1_555 1_555
C14_4 C13_4 1_555 1_555
H7_4 C14_4 1_555 1_555
C15_4 C14_4 1_555 1_555
H8_4 C15_4 1_555 1_555
C16_4 N3_4 1_555 1_555
C17_4 C16_4 1_555 1_555
C18_4 N4_4 1_555 1_555
C28_4 C7_4 1_555 1_555
C29_4 C28_4 1_555 1_555
H16_4 C29_4 1_555 1_555
C30_4 C29_4 1_555 1_555
H17_4 C30_4 1_555 1_555
C31_4 C30_4 1_555 1_555
C32_4 C31_4 1_555 1_555
H18_4 C32_4 1_555 1_555
C33_4 C28_4 1_555 1_555
H19_4 C33_4 1_555 1_555
C34_4 C31_4 1_555 1_555
O3_4 C34_4 1_555 1_555
H20_4 O3_4 1_555 1_555
O12_2 C34_4 1_555 1_555
C35_4 C12_4 1_555 1_555
C36_4 C35_4 1_555 1_555
H21_4 C36_4 1_555 1_555
C37_4 C36_4 1_555 1_555
H22_4 C37_4 1_555 1_555
C38_4 C37_4 1_555 1_555
C39_4 C38_4 1_555 1_555
H23_4 C39_4 1_555 1_555
C40_4 C35_4 1_555 1_555
H24_4 C40_4 1_555 1_555
C41_4 C38_4 1_555 1_555
O5_3 C41_4 1_555 1_555
O13_2 C41_4 1_555 1_555
C42_4 C17_4 1_555 1_555
C43_4 C42_4 1_555 1_555
H25_4 C43_4 1_555 1_555
C44_4 C43_4 1_555 1_555
H26_4 C44_4 1_555 1_555
C45_4 C44_4 1_555 1_555
C46_4 C45_4 1_555 1_555
H27_4 C46_4 1_555 1_555
C47_4 C42_4 1_555 1_555
H28_4 C47_4 1_555 1_555
C48_4 C45_4 1_555 1_555
O7_4 C48_4 1_555 1_555
O8_4 C48_4 1_555 1_555
H29_4 O8_4 1_555 1_555
Na2_2 O7_4 1_555 1_555
C7_4 C8_4 1_555 1_555
C10_4 C11_4 1_555 1_555
C15_4 C16_4 1_555 1_555
C17_4 C18_4 1_555 1_555
C32_4 C33_4 1_555 1_555
C39_4 C40_4 1_555 1_555
C46_4 C47_4 1_555 1_555
N1_4 C3_4 1_555 1_555
C2_4 C1_4 1_555 1_555
C3_4 C2_4 1_555 1_555
C4_4 C3_4 1_555 1_555
H3_4 C4_4 1_555 1_555
C5_4 C4_4 1_555 1_555
H4_4 C5_4 1_555 1_555
C6_4 N1_4 1_555 1_555
H9_4 C19_4 1_555 1_555
C20_4 C1_4 1_555 1_555
H10_4 C20_4 1_555 1_555
C21_4 C2_4 1_555 1_555
C22_4 C21_4 1_555 1_555
H11_4 C22_4 1_555 1_555
C23_4 C22_4 1_555 1_555
H12_4 C23_4 1_555 1_555
C24_4 C23_4 1_555 1_555
C25_4 C24_4 1_555 1_555
H13_4 C25_4 1_555 1_555
C26_4 C21_4 1_555 1_555
H14_4 C26_4 1_555 1_555
C27_4 C24_4 1_555 1_555
O1_4 C27_4 1_555 1_555
O2_4 C27_4 1_555 1_555
H15_4 O2_4 1_555 1_555
Na4_2 O1_4 1_555 1_555
O9_3 Na4_2 1_555 1_555
O10_3 N5_3 1_555 1_555
N5_3 O9_3 1_555 1_555
C49_3 N5_3 1_555 1_555
C50_3 C49_3 1_555 1_555
H30_3 C50_3 1_555 1_555
C51_3 C50_3 1_555 1_555
H31_3 C51_3 1_555 1_555
C52_3 C51_3 1_555 1_555
H32_3 C52_3 1_555 1_555
C53_3 C52_3 1_555 1_555
H33_3 C53_3 1_555 1_555
C54_3 C49_3 1_555 1_555
H34_3 C54_3 1_555 1_555
Na5_2 O1_4 1_555 1_555
O11_4 Na4_2 1_555 1_555
O14_4 Na4_2 1_555 1_555
C5_4 C6_4 1_555 1_555
C19_4 C20_4 1_555 1_555
C25_4 C26_4 1_555 1_555
C53_3 C54_3 1_555 1_555
Na5_2 O11_4 1_555 1_555
O13_3 Na2 1_555 1_555
N3_5 C13_5 1_555 1_555
N4_5 H2_5 1_555 1_555
C1_5 N4_5 1_555 1_555
C14_5 C13_5 1_555 1_555
H7_5 C14_5 1_555 1_555
C15_5 C14_5 1_555 1_555
H8_5 C15_5 1_555 1_555
C16_5 N3_5 1_555 1_555
C17_5 C16_5 1_555 1_555
C18_5 N4_5 1_555 1_555
C19_5 C18_5 1_555 1_555
H9_5 C19_5 1_555 1_555
C20_5 C1_5 1_555 1_555
H10_5 C20_5 1_555 1_555
H21_5 C36_5 1_555 1_555
C37_5 C36_5 1_555 1_555
H22_5 C37_5 1_555 1_555
C42_5 C17_5 1_555 1_555
C43_5 C42_5 1_555 1_555
H25_5 C43_5 1_555 1_555
C44_5 C43_5 1_555 1_555
H26_5 C44_5 1_555 1_555
C45_5 C44_5 1_555 1_555
C46_5 C45_5 1_555 1_555
H27_5 C46_5 1_555 1_555
C47_5 C42_5 1_555 1_555
H28_5 C47_5 1_555 1_555
C48_5 C45_5 1_555 1_555
O14_2 C48_5 1_555 1_555
O8_5 C48_5 1_555 1_555
H29_5 O8_5 1_555 1_555
C15_5 C16_5 1_555 1_555
C17_5 C18_5 1_555 1_555
C19_5 C20_5 1_555 1_555
C46_5 C47_5 1_555 1_555
H11_5 C22_5 1_555 1_555
C23_5 C22_5 1_555 1_555
H12_5 C23_5 1_555 1_555
C24_5 C23_5 1_555 1_555
C27_5 C24_5 1_555 1_555
O11 C27_5 1_555 1_555
O2_5 C27_5 1_555 1_555
H15_5 O2_5 1_555 1_555
N1_5 C3_5 1_555 1_555
N2_5 H1_5 1_555 1_555
C3_5 C2_5 1_555 1_555
C4_5 C3_5 1_555 1_555
H3_5 C4_5 1_555 1_555
C5_5 C4_5 1_555 1_555
H4_5 C5_5 1_555 1_555
C6_5 N1_5 1_555 1_555
C7_5 C6_5 1_555 1_555
C8_5 N2_5 1_555 1_555
C9_5 C8_5 1_555 1_555
H5_5 C9_5 1_555 1_555
C10_5 C9_5 1_555 1_555
H6_5 C10_5 1_555 1_555
C11_5 N2_5 1_555 1_555
C12_5 C11_5 1_555 1_555
C21_5 C2_5 1_555 1_555
H13_5 C25_5 1_555 1_555
C26_5 C21_5 1_555 1_555
H14_5 C26_5 1_555 1_555
C28_5 C7_5 1_555 1_555
C29_5 C28_5 1_555 1_555
H16_5 C29_5 1_555 1_555
C30_5 C29_5 1_555 1_555
H17_5 C30_5 1_555 1_555
C31_5 C30_5 1_555 1_555
C32_5 C31_5 1_555 1_555
H18_5 C32_5 1_555 1_555
C33_5 C28_5 1_555 1_555
H19_5 C33_5 1_555 1_555
C34_5 C31_5 1_555 1_555
O3_5 C34_5 1_555 1_555
H20_5 O3_5 1_555 1_555
O4_3 C34_5 1_555 1_555
C35_5 C12_5 1_555 1_555
C39_5 C38_5 1_555 1_555
H23_5 C39_5 1_555 1_555
C40_5 C35_5 1_555 1_555
H24_5 C40_5 1_555 1_555
C41_5 C38_5 1_555 1_555
O6_3 C41_5 1_555 1_555
Na2_2 O6_3 1_555 1_555
C5_5 C6_5 1_555 1_555
C7_5 C8_5 1_555 1_555
C10_5 C11_5 1_555 1_555
C25_5 C26_5 1_555 1_555
C32_5 C33_5 1_555 1_555
C39_5 C40_5 1_555 1_555
H11_6 C22_6 1_555 1_555
C23_6 C22_6 1_555 1_555
H12_6 C23_6 1_555 1_555
C24_6 C23_6 1_555 1_555
C27_6 C24_6 1_555 1_555
O11_2 C27_6 1_555 1_555
O2_6 C27_6 1_555 1_555
H15_6 O2_6 1_555 1_555
O9_4 Na5 1_555 1_555
O10_4 N5_4 1_555 1_555
N5_4 O9_4 1_555 1_555
C49_4 N5_4 1_555 1_555
C50_4 C49_4 1_555 1_555
H30_4 C50_4 1_555 1_555
C51_4 C50_4 1_555 1_555
H31_4 C51_4 1_555 1_555
C52_4 C51_4 1_555 1_555
H32_4 C52_4 1_555 1_555
C53_4 C52_4 1_555 1_555
H33_4 C53_4 1_555 1_555
C54_4 C49_4 1_555 1_555
H34_4 C54_4 1_555 1_555
O13_4 Na5 1_555 1_555
C53_4 C54_4 1_555 1_555
N1_6 C3_6 1_555 1_555
C2_6 C1_6 1_555 1_555
C3_6 C2_6 1_555 1_555
C4_6 C3_6 1_555 1_555
H3_6 C4_6 1_555 1_555
C5_6 C4_6 1_555 1_555
H4_6 C5_6 1_555 1_555
C6_6 N1_6 1_555 1_555
H9_6 C19_6 1_555 1_555
C20_6 C1_6 1_555 1_555
H10_6 C20_6 1_555 1_555
C21_6 C2_6 1_555 1_555
H13_6 C25_6 1_555 1_555
C26_6 C21_6 1_555 1_555
H14_6 C26_6 1_555 1_555
C5_6 C6_6 1_555 1_555
C19_6 C20_6 1_555 1_555
C25_6 C26_6 1_555 1_555
N2_6 H1_6 1_555 1_555
N3_6 C13_6 1_555 1_555
N4_6 H2_6 1_555 1_555
C8_6 N2_6 1_555 1_555
C9_6 C8_6 1_555 1_555
H5_6 C9_6 1_555 1_555
C10_6 C9_6 1_555 1_555
H6_6 C10_6 1_555 1_555
C11_6 N2_6 1_555 1_555
C12_6 C11_6 1_555 1_555
C13_6 C12_6 1_555 1_555
C14_6 C13_6 1_555 1_555
H7_6 C14_6 1_555 1_555
C15_6 C14_6 1_555 1_555
H8_6 C15_6 1_555 1_555
C16_6 N3_6 1_555 1_555
C17_6 C16_6 1_555 1_555
C18_6 N4_6 1_555 1_555
C28_6 C7_6 1_555 1_555
C29_6 C28_6 1_555 1_555
H16_6 C29_6 1_555 1_555
C30_6 C29_6 1_555 1_555
H17_6 C30_6 1_555 1_555
C31_6 C30_6 1_555 1_555
C32_6 C31_6 1_555 1_555
H18_6 C32_6 1_555 1_555
C33_6 C28_6 1_555 1_555
H19_6 C33_6 1_555 1_555
C34_6 C31_6 1_555 1_555
O3_6 C34_6 1_555 1_555
H20_6 O3_6 1_555 1_555
O12_3 C34_6 1_555 1_555
C35_6 C12_6 1_555 1_555
C36_6 C35_6 1_555 1_555
H21_6 C36_6 1_555 1_555
C37_6 C36_6 1_555 1_555
H22_6 C37_6 1_555 1_555
C38_6 C37_6 1_555 1_555
C39_6 C38_6 1_555 1_555
H23_6 C39_6 1_555 1_555
C40_6 C35_6 1_555 1_555
H24_6 C40_6 1_555 1_555
C41_6 C38_6 1_555 1_555
O5_4 C41_6 1_555 1_555
O6_4 C41_6 1_555 1_555
C42_6 C17_6 1_555 1_555
C43_6 C42_6 1_555 1_555
H25_6 C43_6 1_555 1_555
C44_6 C43_6 1_555 1_555
H26_6 C44_6 1_555 1_555
C45_6 C44_6 1_555 1_555
C46_6 C45_6 1_555 1_555
H27_6 C46_6 1_555 1_555
C47_6 C42_6 1_555 1_555
H28_6 C47_6 1_555 1_555
C48_6 C45_6 1_555 1_555
O14 C48_6 1_555 1_555
O8_6 C48_6 1_555 1_555
H29_6 O8_6 1_555 1_555
Na5_2 O6_4 1_555 1_555
C7_6 C8_6 1_555 1_555
C10_6 C11_6 1_555 1_555
C15_6 C16_6 1_555 1_555
C17_6 C18_6 1_555 1_555
C32_6 C33_6 1_555 1_555
C39_6 C40_6 1_555 1_555
C46_6 C47_6 1_555 1_555
N1_7 C3_7 1_555 1_555
N2_7 H1_7 1_555 1_555
C3_7 C2_7 1_555 1_555
C4_7 C3_7 1_555 1_555
H3_7 C4_7 1_555 1_555
C5_7 C4_7 1_555 1_555
H4_7 C5_7 1_555 1_555
C6_7 N1_7 1_555 1_555
C7_7 C6_7 1_555 1_555
C8_7 N2_7 1_555 1_555
C9_7 C8_7 1_555 1_555
H5_7 C9_7 1_555 1_555
C10_7 C9_7 1_555 1_555
H6_7 C10_7 1_555 1_555
C11_7 N2_7 1_555 1_555
C12_7 C11_7 1_555 1_555
C21_7 C2_7 1_555 1_555
C22_7 C21_7 1_555 1_555
H11_7 C22_7 1_555 1_555
C23_7 C22_7 1_555 1_555
H12_7 C23_7 1_555 1_555
C24_7 C23_7 1_555 1_555
C25_7 C24_7 1_555 1_555
H13_7 C25_7 1_555 1_555
C26_7 C21_7 1_555 1_555
H14_7 C26_7 1_555 1_555
C27_7 C24_7 1_555 1_555
O11_3 C27_7 1_555 1_555
O2_7 C27_7 1_555 1_555
H15_7 O2_7 1_555 1_555
C28_7 C7_7 1_555 1_555
C29_7 C28_7 1_555 1_555
H16_7 C29_7 1_555 1_555
C30_7 C29_7 1_555 1_555
H17_7 C30_7 1_555 1_555
C31_7 C30_7 1_555 1_555
C32_7 C31_7 1_555 1_555
H18_7 C32_7 1_555 1_555
C33_7 C28_7 1_555 1_555
H19_7 C33_7 1_555 1_555
C34_7 C31_7 1_555 1_555
O3_7 C34_7 1_555 1_555
H20_7 O3_7 1_555 1_555
O4_4 C34_7 1_555 1_555
C35_7 C12_7 1_555 1_555
C39_7 C38_7 1_555 1_555
H23_7 C39_7 1_555 1_555
C40_7 C35_7 1_555 1_555
H24_7 C40_7 1_555 1_555
C41_7 C38_7 1_555 1_555
O13_3 C41_7 1_555 1_555
Na5_2 O4_4 1_555 1_555
C5_7 C6_7 1_555 1_555
C7_7 C8_7 1_555 1_555
C10_7 C11_7 1_555 1_555
C25_7 C26_7 1_555 1_555
C32_7 C33_7 1_555 1_555
C39_7 C40_7 1_555 1_555
N3_7 C13_7 1_555 1_555
N4_7 H2_7 1_555 1_555
C1_7 N4_7 1_555 1_555
C14_7 C13_7 1_555 1_555
H7_7 C14_7 1_555 1_555
C15_7 C14_7 1_555 1_555
H8_7 C15_7 1_555 1_555
C16_7 N3_7 1_555 1_555
C17_7 C16_7 1_555 1_555
C18_7 N4_7 1_555 1_555
C19_7 C18_7 1_555 1_555
H9_7 C19_7 1_555 1_555
C20_7 C1_7 1_555 1_555
H10_7 C20_7 1_555 1_555
H21_7 C36_7 1_555 1_555
C37_7 C36_7 1_555 1_555
H22_7 C37_7 1_555 1_555
C42_7 C17_7 1_555 1_555
C43_7 C42_7 1_555 1_555
H25_7 C43_7 1_555 1_555
C44_7 C43_7 1_555 1_555
H26_7 C44_7 1_555 1_555
C45_7 C44_7 1_555 1_555
C46_7 C45_7 1_555 1_555
H27_7 C46_7 1_555 1_555
C47_7 C42_7 1_555 1_555
H28_7 C47_7 1_555 1_555
C48_7 C45_7 1_555 1_555
O14_4 C48_7 1_555 1_555
O8_7 C48_7 1_555 1_555
H29_7 O8_7 1_555 1_555
O10_5 N5_5 1_555 1_555
N5_5 O9_5 1_555 1_555
C49_5 N5_5 1_555 1_555
C50_5 C49_5 1_555 1_555
H30_5 C50_5 1_555 1_555
C51_5 C50_5 1_555 1_555
H31_5 C51_5 1_555 1_555
C52_5 C51_5 1_555 1_555
H32_5 C52_5 1_555 1_555
C53_5 C52_5 1_555 1_555
H33_5 C53_5 1_555 1_555
C54_5 C49_5 1_555 1_555
H34_5 C54_5 1_555 1_555
C15_7 C16_7 1_555 1_555
C17_7 C18_7 1_555 1_555
C19_7 C20_7 1_555 1_555
C46_7 C47_7 1_555 1_555
C53_5 C54_5 1_555 1_555
N1_8 C3_8 1_555 1_555
C2_8 C1_8 1_555 1_555
C3_8 C2_8 1_555 1_555
C4_8 C3_8 1_555 1_555
H3_8 C4_8 1_555 1_555
C5_8 C4_8 1_555 1_555
H4_8 C5_8 1_555 1_555
C6_8 N1_8 1_555 1_555
H9_8 C19_8 1_555 1_555
C20_8 C1_8 1_555 1_555
H10_8 C20_8 1_555 1_555
C21_8 C2_8 1_555 1_555
C22_8 C21_8 1_555 1_555
H11_8 C22_8 1_555 1_555
C23_8 C22_8 1_555 1_555
H12_8 C23_8 1_555 1_555
C24_8 C23_8 1_555 1_555
C25_8 C24_8 1_555 1_555
H13_8 C25_8 1_555 1_555
C26_8 C21_8 1_555 1_555
H14_8 C26_8 1_555 1_555
C27_8 C24_8 1_555 1_555
O11_4 C27_8 1_555 1_555
O2_8 C27_8 1_555 1_555
H15_8 O2_8 1_555 1_555
O9_6 Na5_2 1_555 1_555
O10_6 N5_6 1_555 1_555
N5_6 O9_6 1_555 1_555
C49_6 N5_6 1_555 1_555
C50_6 C49_6 1_555 1_555
H30_6 C50_6 1_555 1_555
C51_6 C50_6 1_555 1_555
H31_6 C51_6 1_555 1_555
C52_6 C51_6 1_555 1_555
H32_6 C52_6 1_555 1_555
C53_6 C52_6 1_555 1_555
H33_6 C53_6 1_555 1_555
C54_6 C49_6 1_555 1_555
H34_6 C54_6 1_555 1_555
C5_8 C6_8 1_555 1_555
C19_8 C20_8 1_555 1_555
C25_8 C26_8 1_555 1_555
C53_6 C54_6 1_555 1_555
N2_8 H1_8 1_555 1_555
N3_8 C13_8 1_555 1_555
N4_8 H2_8 1_555 1_555
C8_8 N2_8 1_555 1_555
C9_8 C8_8 1_555 1_555
H5_8 C9_8 1_555 1_555
C10_8 C9_8 1_555 1_555
H6_8 C10_8 1_555 1_555
C11_8 N2_8 1_555 1_555
C12_8 C11_8 1_555 1_555
C13_8 C12_8 1_555 1_555
C14_8 C13_8 1_555 1_555
H7_8 C14_8 1_555 1_555
C15_8 C14_8 1_555 1_555
H8_8 C15_8 1_555 1_555
C16_8 N3_8 1_555 1_555
C17_8 C16_8 1_555 1_555
C18_8 N4_8 1_555 1_555
C28_8 C7_8 1_555 1_555
C29_8 C28_8 1_555 1_555
H16_8 C29_8 1_555 1_555
C30_8 C29_8 1_555 1_555
H17_8 C30_8 1_555 1_555
C31_8 C30_8 1_555 1_555
C32_8 C31_8 1_555 1_555
H18_8 C32_8 1_555 1_555
C33_8 C28_8 1_555 1_555
H19_8 C33_8 1_555 1_555
C34_8 C31_8 1_555 1_555
O3_8 C34_8 1_555 1_555
H20_8 O3_8 1_555 1_555
O12_4 C34_8 1_555 1_555
C35_8 C12_8 1_555 1_555
C36_8 C35_8 1_555 1_555
H21_8 C36_8 1_555 1_555
C37_8 C36_8 1_555 1_555
H22_8 C37_8 1_555 1_555
C38_8 C37_8 1_555 1_555
C39_8 C38_8 1_555 1_555
H23_8 C39_8 1_555 1_555
C40_8 C35_8 1_555 1_555
H24_8 C40_8 1_555 1_555
C41_8 C38_8 1_555 1_555
O5_5 C41_8 1_555 1_555
O13_4 C41_8 1_555 1_555
C42_8 C17_8 1_555 1_555
C43_8 C42_8 1_555 1_555
H25_8 C43_8 1_555 1_555
C44_8 C43_8 1_555 1_555
H26_8 C44_8 1_555 1_555
C45_8 C44_8 1_555 1_555
C46_8 C45_8 1_555 1_555
H27_8 C46_8 1_555 1_555
C47_8 C42_8 1_555 1_555
H28_8 C47_8 1_555 1_555
C48_8 C45_8 1_555 1_555
O14_3 C48_8 1_555 1_555
O8_8 C48_8 1_555 1_555
H29_8 O8_8 1_555 1_555
C7_8 C8_8 1_555 1_555
C10_8 C11_8 1_555 1_555
C15_8 C16_8 1_555 1_555
C17_8 C18_8 1_555 1_555
C32_8 C33_8 1_555 1_555
C39_8 C40_8 1_555 1_555
C46_8 C47_8 1_555 1_555
O10_7 N5_7 1_555 1_555
N5_7 O9_7 1_555 1_555
C49_7 N5_7 1_555 1_555
C50_7 C49_7 1_555 1_555
H30_7 C50_7 1_555 1_555
C51_7 C50_7 1_555 1_555
H31_7 C51_7 1_555 1_555
C52_7 C51_7 1_555 1_555
H32_7 C52_7 1_555 1_555
C53_7 C52_7 1_555 1_555
H33_7 C53_7 1_555 1_555
C54_7 C49_7 1_555 1_555
H34_7 C54_7 1_555 1_555
C53_7 C54_7 1_555 1_555
O10_8 N5_8 1_555 1_555
N5_8 O9_8 1_555 1_555
C49_8 N5_8 1_555 1_555
C50_8 C49_8 1_555 1_555
H30_8 C50_8 1_555 1_555
C51_8 C50_8 1_555 1_555
H31_8 C51_8 1_555 1_555
C52_8 C51_8 1_555 1_555
H32_8 C52_8 1_555 1_555
C53_8 C52_8 1_555 1_555
H33_8 C53_8 1_555 1_555
C54_8 C49_8 1_555 1_555
H34_8 C54_8 1_555 1_555
C53_8 C54_8 1_555 1_555

#END
