
###############################################################################
#
# This file contains modified crystal structure data generated from the
# MOF subset of the Cambridge Structural Database (CSD) v543 
# hosted by the Cambridge Crystallographic Data Centre (CCDC).
#
# This work is licensed under the Creative Commons
# Attribution-NonCommercial-ShareAlike 4.0 International License.
# To view a copy of this license, visit
# http://creativecommons.org/licenses/by-nc-sa/4.0/
# or send a letter to
# Creative Commons, PO Box 1866, Mountain View, CA 94042, USA.
#
# CIF created using the CSD Python API on 29 September 2022
# The structure has been converted into the P1 space group
# The structure has a 3D framework
# The original CSD entry EBUREC is in the orthorhombic crystal system
# The framework has been calculated to contain at least 10.0% void space
# The void calculation uses a probe of radius 1.32A, grid spacing 0.4
#
###############################################################################

data_EBUREC
_chemical_formula_moiety         '(C168 H112 Ca8 N8 O52)n'
_symmetry_cell_setting           triclinic
_symmetry_space_group_name_H-M   'P 1'
_symmetry_Int_Tables_number      1
_space_group_name_Hall           'P 1'
loop_
_symmetry_equiv_pos_site_id
_symmetry_equiv_pos_as_xyz
1 x,y,z
_cell_length_a                   28.604(2)
_cell_length_b                   9.4587(13)
_cell_length_c                   23.4682(19)
_cell_angle_alpha                90
_cell_angle_beta                 90
_cell_angle_gamma                90
_cell_volume                     6349.48
loop_
_atom_site_label
_atom_site_type_symbol
_atom_site_fract_x
_atom_site_fract_y
_atom_site_fract_z
C15 C 0.0455(3) 0.0819(8) 0.3734(4)
C16 C 0.0036(2) 0.0957(8) 0.4107(4)
C17 C 0.0021(3) 0.0343(8) 0.4658(3)
O6 O 0.04934(17) 0.1611(6) 0.3310(3)
Ca6 Ca 0.13393(5) 0.07534(16) 0.31565(7)
Ca13 Ca 0.06668(5) 0.39540(16) 0.29277(8)
H9 H 0.0283 0.9876 0.4799
O5 O 0.07751(18) 0.9936(6) 0.3868(3)
Ca9 Ca 0.09847(5) 0.74895(17) 0.38631(9)
C1 C 0.7036(3) 0.0970(10) 0.4034(4)
C2 C 0.7500(3) 0.1037(9) 0.4319(4)
C3 C 0.7576(3) 0.1980(9) 0.4776(4)
H1 H 0.7338 0.2584 0.4894
C4 C 0.8003(3) 0.2000(9) 0.5046(4)
H2 H 0.8043 0.2569 0.5365
C5 C 0.8364(2) 0.1220(8) 0.4859(3)
C6 C 0.8296(3) 0.0326(9) 0.4409(4)
C7 C 0.7876(3) 0.0260(9) 0.4129(4)
C8 C 0.8945(3) 0.2593(10) 0.7521(4)
C9 C 0.8911(3) 0.2234(8) 0.6895(3)
C10 C 0.8588(3) 0.1278(9) 0.6677(4)
H5 H 0.8384 0.0834 0.6929
C11 C 0.8556(3) 0.0954(9) 0.6103(3)
H6 H 0.8332 0.0321 0.5973
C12 C 0.8860(3) 0.1578(7) 0.5730(3)
C13 C 0.9190(2) 0.2529(8) 0.5930(3)
H7 H 0.9395 0.2959 0.5677
C14 C 0.9216(3) 0.2852(8) 0.6521(3)
H8 H 0.9440 0.3484 0.6654
C18 C 0.9617(3) 0.0432(9) 0.4993(4)
C19 C 0.9230(2) 0.1179(8) 0.4799(3)
C20 C 0.9251(3) 0.1792(9) 0.4261(4)
H11 H 0.8991 0.2272 0.4122
C21 C 0.9651(3) 0.1709(9) 0.3922(4)
H12 H 0.9659 0.2161 0.3570
C22 C 0.4946(3) 0.4037(11) 0.3670(5)
C23 C 0.4480(3) 0.3937(8) 0.3909(5)
C24 C 0.4401(3) 0.2941(10) 0.4323(5)
H13 H 0.4635 0.2294 0.4412
C25 C 0.3978(3) 0.2885(9) 0.4612(5)
H14 H 0.3932 0.2175 0.4880
C26 C 0.3634(3) 0.3820(9) 0.4517(4)
C27 C 0.3687(3) 0.4784(9) 0.4103(4)
H15 H 0.3445 0.5402 0.4013
C28 C 0.4119(3) 0.4844(9) 0.3804(5)
H16 H 0.4157 0.5532 0.3525
C29 C 0.3451(3) 0.2210(10) 0.7153(4)
C30 C 0.3355(3) 0.2754(10) 0.6573(4)
C31 C 0.3667(3) 0.3692(10) 0.6306(4)
H17 H 0.3920 0.4048 0.6511
C32 C 0.3608(3) 0.4076(10) 0.5770(4)
H18 H 0.3809 0.4739 0.5609
C33 C 0.3246(3) 0.3493(9) 0.5441(4)
C34 C 0.2933(3) 0.2600(9) 0.5690(4)
H19 H 0.2685 0.2228 0.5481
C35 C 0.2990(3) 0.2253(9) 0.6267(4)
H20 H 0.2773 0.1665 0.6443
C36 C 0.1431(3) 0.4107(9) 0.3778(4)
C37 C 0.1905(3) 0.4088(8) 0.4053(3)
C38 C 0.2269(3) 0.3400(9) 0.3799(4)
H21 H 0.2222 0.2953 0.3450
C39 C 0.2708(3) 0.3355(9) 0.4052(4)
H22 H 0.2956 0.2926 0.3863
C40 C 0.2775(3) 0.3937(9) 0.4574(4)
C41 C 0.2404(3) 0.4661(9) 0.4846(4)
H23 H 0.2447 0.5107 0.5195
C42 C 0.1981(3) 0.4683(9) 0.4576(4)
H24 H 0.1731 0.5124 0.4758
Ca2 Ca 0.59847(5) 0.25105(17) 0.38631(9)
Ca3 Ca 0.56668(5) 0.60460(16) 0.29277(8)
N1 N 0.8824(2) 0.1283(7) 0.5122(3)
N2 N 0.3214(2) 0.3811(7) 0.4852(3)
O1 O 0.6727(2) 0.1853(7) 0.4156(3)
O2 O 0.6972(2) 0.0020(7) 0.3660(3)
O3 O 0.88247(18) 0.1652(6) 0.7887(3)
O4 O 0.9066(2) 0.3807(6) 0.7662(2)
O7 O 0.5228(2) 0.3104(7) 0.3729(4)
O8 O 0.5023(2) 0.5141(9) 0.3371(4)
O9 O 0.3857(2) 0.2420(7) 0.7371(3)
O10 O 0.3164(2) 0.1471(6) 0.7410(3)
O11 O 0.1326(2) 0.3090(7) 0.3464(3)
O12 O 0.11672(19) 0.5105(6) 0.3847(3)
O13 O 0.5802(4) 0.2815(11) 0.4849(4)
H25 H 0.5625 0.3420 0.5008
H26 H 0.5891 0.2296 0.5123
O14 O 0.5173(3) 0.6232(10) 0.2139(4)
H27 H 0.5129 0.7019 0.1973
H28 H 0.5041 0.5488 0.2015
Ca4 Ca 0.36607(5) 0.07534(16) 0.81565(7)
Ca10 Ca 0.90153(5) 0.25105(17) 0.88631(9)
Ca11 Ca 0.43332(5) 0.39540(16) 0.79277(8)
Ca14 Ca 0.93332(5) 0.60460(16) 0.79277(8)
O15 O 0.61753(18) 0.1652(6) 0.2887(3)
O16 O 0.5934(2) 0.3807(6) 0.2662(2)
O17 O 0.57751(18) 0.0064(6) 0.3868(3)
O19 O 0.54934(17) 0.8389(6) 0.3310(3)
O21 O 0.6143(2) 0.7580(7) 0.2371(3)
O24 O 0.6326(2) 0.6910(7) 0.3464(3)
O25 O 0.61672(19) 0.4895(6) 0.3847(3)
H3 H 0.8540 0.9748 0.4290
H4 H 0.7845 0.9688 0.3809
H10 H 0.9608 0.9990 0.5347
Ca1 Ca 0.63393(5) 0.92466(16) 0.31565(7)
Ca7 Ca 0.86607(5) 0.92466(16) 0.81565(7)
O22 O 0.6836(2) 0.8529(6) 0.2410(3)
H10_2 H 0.0392 0.0010 0.0347
H3_2 H 0.1460 0.0252 0.9290
H4_2 H 0.2155 0.0312 0.8809
O18 O 0.45066(17) 0.1611(6) 0.8310(3)
O23 O 0.3674(2) 0.3090(7) 0.8464(3)
C4_2 C 0.1997(3) 0.8000(9) 0.0046(4)
H2_2 H 0.1957 0.7431 0.0365
C8_2 C 0.1055(3) 0.7407(10) 0.2521(4)
C9_2 C 0.1089(3) 0.7766(8) 0.1895(3)
C10_2 C 0.1412(3) 0.8722(9) 0.1677(4)
H5_2 H 0.1616 0.9166 0.1929
C11_2 C 0.1444(3) 0.9046(9) 0.1103(3)
H6_2 H 0.1668 0.9679 0.0973
C12_2 C 0.1140(3) 0.8422(7) 0.0730(3)
C13_2 C 0.0810(2) 0.7471(8) 0.0930(3)
H7_2 H 0.0605 0.7041 0.0677
C14_2 C 0.0784(3) 0.7148(8) 0.1521(3)
H8_2 H 0.0560 0.6516 0.1654
C29_2 C 0.6549(3) 0.7790(10) 0.2153(4)
C30_2 C 0.6645(3) 0.7246(10) 0.1573(4)
C31_2 C 0.6333(3) 0.6308(10) 0.1306(4)
H17_2 H 0.6080 0.5952 0.1511
C32_2 C 0.6392(3) 0.5924(10) 0.0770(4)
H18_2 H 0.6191 0.5261 0.0609
C33_2 C 0.6754(3) 0.6507(9) 0.0441(4)
C34_2 C 0.7067(3) 0.7400(9) 0.0690(4)
H19_2 H 0.7315 0.7772 0.0481
C35_2 C 0.7010(3) 0.7747(9) 0.1267(4)
H20_2 H 0.7227 0.8335 0.1443
H23_2 H 0.7553 0.4893 0.0195
N1_2 N 0.1176(2) 0.8717(7) 0.0122(3)
O3_2 O 0.11753(18) 0.8348(6) 0.2887(3)
O4_2 O 0.0934(2) 0.6193(6) 0.2662(2)
H25_2 H 0.4375 0.6580 0.0008
H26_2 H 0.4109 0.7704 0.0123
C1_2 C 0.2964(3) 0.9030(10) 0.9034(4)
C2_2 C 0.2500(3) 0.8963(9) 0.9319(4)
C3_2 C 0.2424(3) 0.8020(9) 0.9776(4)
H1_2 H 0.2662 0.7416 0.9894
C5_2 C 0.1636(2) 0.8780(8) 0.9859(3)
C6_2 C 0.1704(3) 0.9674(9) 0.9409(4)
C7_2 C 0.2124(3) 0.9740(9) 0.9129(4)
C18_2 C 0.0383(3) 0.9568(9) 0.9993(4)
C19_2 C 0.0770(2) 0.8821(8) 0.9799(3)
C20_2 C 0.0749(3) 0.8208(9) 0.9261(4)
H11_2 H 0.1009 0.7728 0.9122
C21_2 C 0.0349(3) 0.8291(9) 0.8922(4)
H12_2 H 0.0341 0.7839 0.8570
C22_2 C 0.5054(3) 0.5963(11) 0.8670(5)
C23_2 C 0.5520(3) 0.6063(8) 0.8909(5)
C24_2 C 0.5599(3) 0.7059(10) 0.9323(5)
H13_2 H 0.5365 0.7706 0.9412
C25_2 C 0.6022(3) 0.7115(9) 0.9612(5)
H14_2 H 0.6068 0.7825 0.9880
C26_2 C 0.6366(3) 0.6180(9) 0.9517(4)
C27_2 C 0.6313(3) 0.5216(9) 0.9103(4)
H15_2 H 0.6555 0.4598 0.9013
C28_2 C 0.5881(3) 0.5156(9) 0.8804(5)
H16_2 H 0.5843 0.4468 0.8525
C36_2 C 0.8569(3) 0.5893(9) 0.8778(4)
C37_2 C 0.8095(3) 0.5912(8) 0.9053(3)
C38_2 C 0.7731(3) 0.6600(9) 0.8799(4)
H21_2 H 0.7778 0.7047 0.8450
C39_2 C 0.7292(3) 0.6645(9) 0.9052(4)
H22_2 H 0.7044 0.7074 0.8863
C40_2 C 0.7225(3) 0.6063(9) 0.9574(4)
C41_2 C 0.7596(3) 0.5339(9) 0.9846(4)
C42_2 C 0.8019(3) 0.5317(9) 0.9576(4)
H24_2 H 0.8269 0.4876 0.9758
Ca2_2 Ca 0.40153(5) 0.74895(17) 0.88631(9)
N2_2 N 0.6786(2) 0.6189(7) 0.9852(3)
O1_2 O 0.3273(2) 0.8147(7) 0.9156(3)
O2_2 O 0.3028(2) 0.9980(7) 0.8660(3)
O7_2 O 0.4772(2) 0.6896(7) 0.8729(4)
O8_2 O 0.4977(2) 0.4859(9) 0.8371(4)
O11_2 O 0.8674(2) 0.6910(7) 0.8464(3)
O12_2 O 0.88328(19) 0.4895(6) 0.8847(3)
O13_2 O 0.4198(4) 0.7185(11) 0.9849(4)
O14_2 O 0.4827(3) 0.3768(10) 0.7139(4)
H27_2 H 0.4871 0.2981 0.6973
H28_2 H 0.4959 0.4512 0.7015
O15_2 O 0.38247(18) 0.8348(6) 0.7887(3)
O16_2 O 0.4066(2) 0.6193(6) 0.7662(2)
O17_2 O 0.42249(18) 0.9936(6) 0.8868(3)
O25_2 O 0.38328(19) 0.5105(6) 0.8847(3)
H9_2 H 0.9717 0.0124 0.9799
O5_2 O 0.92249(18) 0.0064(6) 0.8868(3)
C15_2 C 0.9545(3) 0.9181(8) 0.8734(4)
C16_2 C 0.9964(2) 0.9043(8) 0.9107(4)
C17_2 C 0.9979(3) 0.9657(8) 0.9658(3)
O6_2 O 0.95066(17) 0.8389(6) 0.8310(3)
H3_3 H 0.3540 0.0252 0.4290
H4_3 H 0.2845 0.0312 0.3809
H9_3 H 0.5283 0.0124 0.4799
H10_3 H 0.4608 0.0010 0.5347
O20 O 0.1143(2) 0.2420(7) 0.2371(3)
O22_2 O 0.1836(2) 0.1471(6) 0.2410(3)
C1_3 C 0.2036(3) 0.9030(10) 0.4034(4)
C2_3 C 0.2500(3) 0.8963(9) 0.4319(4)
C3_3 C 0.2576(3) 0.8020(9) 0.4776(4)
H1_3 H 0.2338 0.7416 0.4894
C4_3 C 0.3003(3) 0.8000(9) 0.5046(4)
H2_3 H 0.3043 0.7431 0.5365
C5_3 C 0.3364(2) 0.8780(8) 0.4859(3)
C6_3 C 0.3296(3) 0.9674(9) 0.4409(4)
C7_3 C 0.2876(3) 0.9740(9) 0.4129(4)
C8_3 C 0.3945(3) 0.7407(10) 0.7521(4)
C9_3 C 0.3911(3) 0.7766(8) 0.6895(3)
C10_3 C 0.3588(3) 0.8722(9) 0.6677(4)
H5_3 H 0.3384 0.9166 0.6929
C11_3 C 0.3556(3) 0.9046(9) 0.6103(3)
H6_3 H 0.3332 0.9679 0.5973
C12_3 C 0.3860(3) 0.8422(7) 0.5730(3)
C13_3 C 0.4190(2) 0.7471(8) 0.5930(3)
H7_3 H 0.4395 0.7041 0.5677
C14_3 C 0.4216(3) 0.7148(8) 0.6521(3)
H8_3 H 0.4440 0.6516 0.6654
C15_3 C 0.5455(3) 0.9181(8) 0.3734(4)
C16_3 C 0.5036(2) 0.9043(8) 0.4107(4)
C17_3 C 0.5021(3) 0.9657(8) 0.4658(3)
C18_3 C 0.4617(3) 0.9568(9) 0.4993(4)
C19_3 C 0.4230(2) 0.8821(8) 0.4799(3)
C20_3 C 0.4251(3) 0.8208(9) 0.4261(4)
H11_3 H 0.3991 0.7728 0.4122
C21_3 C 0.4651(3) 0.8291(9) 0.3922(4)
H12_3 H 0.4659 0.7839 0.3570
N1_3 N 0.3824(2) 0.8717(7) 0.5122(3)
O1_3 O 0.1727(2) 0.8147(7) 0.4156(3)
O2_3 O 0.1972(2) 0.9980(7) 0.3660(3)
O7_3 O 0.0228(2) 0.6896(7) 0.3729(4)
O8_3 O 0.0023(2) 0.4859(9) 0.3371(4)
O13_3 O 0.0802(4) 0.7185(11) 0.4849(4)
H25_3 H 0.0625 0.6580 0.5008
H26_3 H 0.0891 0.7704 0.5123
O14_3 O 0.0173(3) 0.3768(10) 0.2139(4)
H27_3 H 0.0129 0.2981 0.1973
H28_3 H 0.0041 0.4512 0.2015
C22_3 C 0.9946(3) 0.5963(11) 0.3670(5)
C23_3 C 0.9480(3) 0.6063(8) 0.3909(5)
C24_3 C 0.9401(3) 0.7059(10) 0.4323(5)
H13_3 H 0.9635 0.7706 0.4412
C25_3 C 0.8978(3) 0.7115(9) 0.4612(5)
H14_3 H 0.8932 0.7825 0.4880
C26_3 C 0.8634(3) 0.6180(9) 0.4517(4)
C27_3 C 0.8687(3) 0.5216(9) 0.4103(4)
H15_3 H 0.8445 0.4598 0.4013
C28_3 C 0.9119(3) 0.5156(9) 0.3804(5)
H16_3 H 0.9157 0.4468 0.3525
C29_3 C 0.8451(3) 0.7790(10) 0.7153(4)
C30_3 C 0.8355(3) 0.7246(10) 0.6573(4)
C31_3 C 0.8667(3) 0.6308(10) 0.6306(4)
H17_3 H 0.8920 0.5952 0.6511
C32_3 C 0.8608(3) 0.5924(10) 0.5770(4)
H18_3 H 0.8809 0.5261 0.5609
C33_3 C 0.8246(3) 0.6507(9) 0.5441(4)
C34_3 C 0.7933(3) 0.7400(9) 0.5690(4)
H19_3 H 0.7685 0.7772 0.5481
C35_3 C 0.7990(3) 0.7747(9) 0.6267(4)
H20_3 H 0.7773 0.8335 0.6443
C36_3 C 0.6431(3) 0.5893(9) 0.3778(4)
C37_3 C 0.6905(3) 0.5912(8) 0.4053(3)
C38_3 C 0.7269(3) 0.6600(9) 0.3799(4)
H21_3 H 0.7222 0.7047 0.3450
C39_3 C 0.7708(3) 0.6645(9) 0.4052(4)
H22_3 H 0.7956 0.7074 0.3863
C40_3 C 0.7775(3) 0.6063(9) 0.4574(4)
C41_3 C 0.7404(3) 0.5339(9) 0.4846(4)
H23_3 H 0.7447 0.4893 0.5195
C42_3 C 0.6981(3) 0.5317(9) 0.4576(4)
H24_3 H 0.6731 0.4876 0.4758
N2_3 N 0.8214(2) 0.6189(7) 0.4852(3)
O9_2 O 0.8857(2) 0.7580(7) 0.7371(3)
O10_2 O 0.8164(2) 0.8529(6) 0.7410(3)
C29_4 C 0.1549(3) 0.2210(10) 0.2153(4)
C30_4 C 0.1645(3) 0.2754(10) 0.1573(4)
C31_4 C 0.1333(3) 0.3692(10) 0.1306(4)
H17_4 H 0.1080 0.4048 0.1511
C32_4 C 0.1392(3) 0.4076(10) 0.0770(4)
H18_4 H 0.1191 0.4739 0.0609
C33_4 C 0.1754(3) 0.3493(9) 0.0441(4)
C34_4 C 0.2067(3) 0.2600(9) 0.0690(4)
H19_4 H 0.2315 0.2228 0.0481
C35_4 C 0.2010(3) 0.2253(9) 0.1267(4)
H20_4 H 0.2227 0.1665 0.1443
H23_4 H 0.2553 0.5107 0.0195
C22_4 C 0.0054(3) 0.4037(11) 0.8670(5)
C23_4 C 0.0520(3) 0.3937(8) 0.8909(5)
C24_4 C 0.0599(3) 0.2941(10) 0.9323(5)
H13_4 H 0.0365 0.2294 0.9412
C25_4 C 0.1022(3) 0.2885(9) 0.9612(5)
H14_4 H 0.1068 0.2175 0.9880
C26_4 C 0.1366(3) 0.3820(9) 0.9517(4)
C27_4 C 0.1313(3) 0.4784(9) 0.9103(4)
H15_4 H 0.1555 0.5402 0.9013
C28_4 C 0.0881(3) 0.4844(9) 0.8804(5)
H16_4 H 0.0843 0.5532 0.8525
C36_4 C 0.3569(3) 0.4107(9) 0.8778(4)
C37_4 C 0.3095(3) 0.4088(8) 0.9053(3)
C38_4 C 0.2731(3) 0.3400(9) 0.8799(4)
H21_4 H 0.2778 0.2953 0.8450
C39_4 C 0.2292(3) 0.3355(9) 0.9052(4)
H22_4 H 0.2044 0.2926 0.8863
C40_4 C 0.2225(3) 0.3937(9) 0.9574(4)
C41_4 C 0.2596(3) 0.4661(9) 0.9846(4)
C42_4 C 0.3019(3) 0.4683(9) 0.9576(4)
H24_4 H 0.3269 0.5124 0.9758
N2_4 N 0.1786(2) 0.3811(7) 0.9852(3)
C4_4 C 0.6997(3) 0.2000(9) 0.0046(4)
H2_4 H 0.6957 0.2569 0.0365
C8_4 C 0.6055(3) 0.2593(10) 0.2521(4)
C9_4 C 0.6089(3) 0.2234(8) 0.1895(3)
C10_4 C 0.6412(3) 0.1278(9) 0.1677(4)
H5_4 H 0.6616 0.0834 0.1929
C11_4 C 0.6444(3) 0.0954(9) 0.1103(3)
H6_4 H 0.6668 0.0321 0.0973
C12_4 C 0.6140(3) 0.1578(7) 0.0730(3)
C13_4 C 0.5810(2) 0.2529(8) 0.0930(3)
H7_4 H 0.5605 0.2959 0.0677
C14_4 C 0.5784(3) 0.2852(8) 0.1521(3)
H8_4 H 0.5560 0.3484 0.1654
N1_4 N 0.6176(2) 0.1283(7) 0.0122(3)
H25_4 H 0.9375 0.3420 0.0008
H26_4 H 0.9109 0.2296 0.0123
C1_4 C 0.7964(3) 0.0970(10) 0.9034(4)
C2_4 C 0.7500(3) 0.1037(9) 0.9319(4)
C3_4 C 0.7424(3) 0.1980(9) 0.9776(4)
H1_4 H 0.7662 0.2584 0.9894
C5_4 C 0.6636(2) 0.1220(8) 0.9859(3)
C6_4 C 0.6704(3) 0.0326(9) 0.9409(4)
C7_4 C 0.7124(3) 0.0260(9) 0.9129(4)
C15_4 C 0.4545(3) 0.0819(8) 0.8734(4)
C16_4 C 0.4964(2) 0.0957(8) 0.9107(4)
C17_4 C 0.4979(3) 0.0343(8) 0.9658(3)
C18_4 C 0.5383(3) 0.0432(9) 0.9993(4)
C19_4 C 0.5770(2) 0.1179(8) 0.9799(3)
C20_4 C 0.5749(3) 0.1792(9) 0.9261(4)
H11_4 H 0.6009 0.2272 0.9122
C21_4 C 0.5349(3) 0.1709(9) 0.8922(4)
H12_4 H 0.5341 0.2161 0.8570
O1_4 O 0.8273(2) 0.1853(7) 0.9156(3)
O2_4 O 0.8028(2) 0.0020(7) 0.8660(3)
O7_4 O 0.9772(2) 0.3104(7) 0.8729(4)
O8_4 O 0.9977(2) 0.5141(9) 0.8371(4)
O13_4 O 0.9198(4) 0.2815(11) 0.9849(4)
O14_4 O 0.9827(3) 0.6232(10) 0.7139(4)
H27_4 H 0.9871 0.7019 0.6973
H28_4 H 0.9959 0.5488 0.7015
H10_4 H 0.5392 0.9990 0.0347
H3_4 H 0.6460 0.9748 0.9290
H4_4 H 0.7155 0.9688 0.8809
H9_4 H 0.4717 0.9876 0.9799
loop_
_geom_bond_atom_site_label_1
_geom_bond_atom_site_label_2
_geom_bond_site_symmetry_1
_geom_bond_site_symmetry_2
C15 C16 1_555 1_555
C16 C17 1_555 1_555
O6 C15 1_555 1_555
Ca13 O6 1_555 1_555
O6 Ca6 1_555 1_555
Ca9 O5 1_555 1_555
C1 C2 1_555 1_555
C2 C3 1_555 1_555
C3 H1 1_555 1_555
C4 C3 1_555 1_555
H2 C4 1_555 1_555
C5 C4 1_555 1_555
C6 C5 1_555 1_555
C7 C2 1_555 1_555
C8 C9 1_555 1_555
C9 C10 1_555 1_555
C10 H5 1_555 1_555
C11 C10 1_555 1_555
H6 C11 1_555 1_555
C12 C11 1_555 1_555
C13 C12 1_555 1_555
H7 C13 1_555 1_555
C14 C9 1_555 1_555
H8 C14 1_555 1_555
C19 C18 1_555 1_555
C20 C19 1_555 1_555
H11 C20 1_555 1_555
H12 C21 1_555 1_555
C22 C23 1_555 1_555
C23 C24 1_555 1_555
C24 H13 1_555 1_555
C25 C24 1_555 1_555
H14 C25 1_555 1_555
C26 C25 1_555 1_555
C27 C26 1_555 1_555
H15 C27 1_555 1_555
C28 C23 1_555 1_555
H16 C28 1_555 1_555
C29 C30 1_555 1_555
C30 C31 1_555 1_555
C31 H17 1_555 1_555
C32 C31 1_555 1_555
H18 C32 1_555 1_555
C33 C32 1_555 1_555
C34 C33 1_555 1_555
H19 C34 1_555 1_555
C35 C30 1_555 1_555
H20 C35 1_555 1_555
C36 C37 1_555 1_555
C37 C38 1_555 1_555
C38 H21 1_555 1_555
C39 C38 1_555 1_555
H22 C39 1_555 1_555
C40 C39 1_555 1_555
C41 C40 1_555 1_555
H23 C41 1_555 1_555
C42 C37 1_555 1_555
H24 C42 1_555 1_555
Ca2 O1 1_555 1_555
Ca3 O8 1_555 1_555
N1 C5 1_555 1_555
N2 C26 1_555 1_555
O1 C1 1_555 1_555
O2 C1 1_555 1_555
O3 C8 1_555 1_555
O4 C8 1_555 1_555
O7 C22 1_555 1_555
O8 C22 1_555 1_555
O9 C29 1_555 1_555
O10 C29 1_555 1_555
O11 C36 1_555 1_555
O12 C36 1_555 1_555
O13 Ca2 1_555 1_555
H25 O13 1_555 1_555
H26 O13 1_555 1_555
O14 Ca3 1_555 1_555
H27 O14 1_555 1_555
H28 O14 1_555 1_555
Ca4 O9 1_555 1_555
Ca6 O11 1_555 1_555
Ca9 O12 1_555 1_555
Ca10 O3 1_555 1_555
Ca11 O9 1_555 1_555
Ca13 O11 1_555 1_555
Ca14 O4 1_555 1_555
O16 Ca3 1_555 1_555
O19 Ca3 1_555 1_555
O21 Ca3 1_555 1_555
O24 Ca3 1_555 1_555
O25 Ca2 1_555 1_555
C6 C7 1_555 1_555
C12 N1 1_555 1_555
C13 C14 1_555 1_555
C19 N1 1_555 1_555
C20 C21 1_555 1_555
C27 C28 1_555 1_555
C33 N2 1_555 1_555
C34 C35 1_555 1_555
C40 N2 1_555 1_555
C41 C42 1_555 1_555
Ca2 O7 1_555 1_555
Ca2 O15 1_555 1_555
Ca2 O17 1_555 1_555
Ca3 O25 1_555 1_555
O10 Ca4 1_555 1_555
O12 Ca13 1_555 1_555
O19 Ca1 1_555 1_555
O21 Ca1 1_555 1_555
O22 Ca1 1_555 1_555
O24 Ca1 1_555 1_555
O18 Ca4 1_555 1_555
O23 Ca4 1_555 1_555
H2_2 C4_2 1_555 1_555
C8_2 C9_2 1_555 1_555
C9_2 C10_2 1_555 1_555
C10_2 H5_2 1_555 1_555
C11_2 C10_2 1_555 1_555
H6_2 C11_2 1_555 1_555
C12_2 C11_2 1_555 1_555
C13_2 C12_2 1_555 1_555
H7_2 C13_2 1_555 1_555
C14_2 C9_2 1_555 1_555
H8_2 C14_2 1_555 1_555
C29_2 C30_2 1_555 1_555
C30_2 C31_2 1_555 1_555
C31_2 H17_2 1_555 1_555
C32_2 C31_2 1_555 1_555
H18_2 C32_2 1_555 1_555
C33_2 C32_2 1_555 1_555
C34_2 C33_2 1_555 1_555
H19_2 C34_2 1_555 1_555
C35_2 C30_2 1_555 1_555
H20_2 C35_2 1_555 1_555
O3_2 C8_2 1_555 1_555
O4_2 C8_2 1_555 1_555
O21 C29_2 1_555 1_555
O22 C29_2 1_555 1_555
Ca9 O3_2 1_555 1_555
Ca13 O4_2 1_555 1_555
C12_2 N1_2 1_555 1_555
C13_2 C14_2 1_555 1_555
C34_2 C35_2 1_555 1_555
C1_2 C2_2 1_555 1_555
C2_2 C3_2 1_555 1_555
C3_2 H1_2 1_555 1_555
C6_2 C5_2 1_555 1_555
C7_2 C2_2 1_555 1_555
C19_2 C18_2 1_555 1_555
C20_2 C19_2 1_555 1_555
H11_2 C20_2 1_555 1_555
H12_2 C21_2 1_555 1_555
C22_2 C23_2 1_555 1_555
C23_2 C24_2 1_555 1_555
C24_2 H13_2 1_555 1_555
C25_2 C24_2 1_555 1_555
H14_2 C25_2 1_555 1_555
C26_2 C25_2 1_555 1_555
C27_2 C26_2 1_555 1_555
H15_2 C27_2 1_555 1_555
C28_2 C23_2 1_555 1_555
H16_2 C28_2 1_555 1_555
C36_2 C37_2 1_555 1_555
C37_2 C38_2 1_555 1_555
C38_2 H21_2 1_555 1_555
C39_2 C38_2 1_555 1_555
H22_2 C39_2 1_555 1_555
C40_2 C39_2 1_555 1_555
C41_2 C40_2 1_555 1_555
C42_2 C37_2 1_555 1_555
H24_2 C42_2 1_555 1_555
Ca2_2 O1_2 1_555 1_555
Ca11 O8_2 1_555 1_555
N2_2 C26_2 1_555 1_555
O1_2 C1_2 1_555 1_555
O2_2 C1_2 1_555 1_555
O7_2 C22_2 1_555 1_555
O8_2 C22_2 1_555 1_555
O11_2 C36_2 1_555 1_555
O12_2 C36_2 1_555 1_555
O13_2 Ca2_2 1_555 1_555
O14_2 Ca11 1_555 1_555
H27_2 O14_2 1_555 1_555
H28_2 O14_2 1_555 1_555
Ca7 O11_2 1_555 1_555
Ca10 O12_2 1_555 1_555
Ca14 O11_2 1_555 1_555
O16_2 Ca11 1_555 1_555
O18 Ca11 1_555 1_555
O23 Ca11 1_555 1_555
O25_2 Ca2_2 1_555 1_555
C6_2 C7_2 1_555 1_555
C20_2 C21_2 1_555 1_555
C27_2 C28_2 1_555 1_555
C40_2 N2_2 1_555 1_555
C41_2 C42_2 1_555 1_555
Ca2_2 O7_2 1_555 1_555
Ca2_2 O15_2 1_555 1_555
Ca2_2 O17_2 1_555 1_555
Ca11 O25_2 1_555 1_555
O12_2 Ca14 1_555 1_555
Ca10 O5_2 1_555 1_555
C15_2 C16_2 1_555 1_555
C16_2 C17_2 1_555 1_555
O6_2 C15_2 1_555 1_555
Ca14 O6_2 1_555 1_555
O6_2 Ca7 1_555 1_555
O20 Ca6 1_555 1_555
O22_2 Ca6 1_555 1_555
C1_3 C2_3 1_555 1_555
C2_3 C3_3 1_555 1_555
C3_3 H1_3 1_555 1_555
C4_3 C3_3 1_555 1_555
H2_3 C4_3 1_555 1_555
C5_3 C4_3 1_555 1_555
C6_3 C5_3 1_555 1_555
C7_3 C2_3 1_555 1_555
C8_3 C9_3 1_555 1_555
C9_3 C10_3 1_555 1_555
C10_3 H5_3 1_555 1_555
C11_3 C10_3 1_555 1_555
H6_3 C11_3 1_555 1_555
C12_3 C11_3 1_555 1_555
C13_3 C12_3 1_555 1_555
H7_3 C13_3 1_555 1_555
C14_3 C9_3 1_555 1_555
H8_3 C14_3 1_555 1_555
C15_3 C16_3 1_555 1_555
C16_3 C17_3 1_555 1_555
C18_3 C17_3 1_555 1_555
C19_3 C18_3 1_555 1_555
C20_3 C19_3 1_555 1_555
H11_3 C20_3 1_555 1_555
C21_3 C16_3 1_555 1_555
H12_3 C21_3 1_555 1_555
Ca9 O1_3 1_555 1_555
Ca13 O8_3 1_555 1_555
N1_3 C5_3 1_555 1_555
O1_3 C1_3 1_555 1_555
O2_3 C1_3 1_555 1_555
O15_2 C8_3 1_555 1_555
O16_2 C8_3 1_555 1_555
O19 C15_3 1_555 1_555
O13_3 Ca9 1_555 1_555
H25_3 O13_3 1_555 1_555
H26_3 O13_3 1_555 1_555
O14_3 Ca13 1_555 1_555
H27_3 O14_3 1_555 1_555
H28_3 O14_3 1_555 1_555
O20 Ca13 1_555 1_555
C6_3 C7_3 1_555 1_555
C12_3 N1_3 1_555 1_555
C13_3 C14_3 1_555 1_555
C19_3 N1_3 1_555 1_555
C20_3 C21_3 1_555 1_555
Ca9 O7_3 1_555 1_555
C22_3 C23_3 1_555 1_555
C23_3 C24_3 1_555 1_555
C24_3 H13_3 1_555 1_555
C25_3 C24_3 1_555 1_555
H14_3 C25_3 1_555 1_555
C26_3 C25_3 1_555 1_555
C27_3 C26_3 1_555 1_555
H15_3 C27_3 1_555 1_555
C28_3 C23_3 1_555 1_555
H16_3 C28_3 1_555 1_555
C29_3 C30_3 1_555 1_555
C30_3 C31_3 1_555 1_555
C31_3 H17_3 1_555 1_555
C32_3 C31_3 1_555 1_555
H18_3 C32_3 1_555 1_555
C33_3 C32_3 1_555 1_555
C34_3 C33_3 1_555 1_555
H19_3 C34_3 1_555 1_555
C35_3 C30_3 1_555 1_555
H20_3 C35_3 1_555 1_555
C36_3 C37_3 1_555 1_555
C37_3 C38_3 1_555 1_555
C38_3 H21_3 1_555 1_555
C39_3 C38_3 1_555 1_555
H22_3 C39_3 1_555 1_555
C40_3 C39_3 1_555 1_555
C41_3 C40_3 1_555 1_555
H23_3 C41_3 1_555 1_555
C42_3 C37_3 1_555 1_555
H24_3 C42_3 1_555 1_555
N2_3 C26_3 1_555 1_555
O9_2 C29_3 1_555 1_555
O10_2 C29_3 1_555 1_555
O24 C36_3 1_555 1_555
O25 C36_3 1_555 1_555
Ca7 O9_2 1_555 1_555
Ca14 O9_2 1_555 1_555
C27_3 C28_3 1_555 1_555
C33_3 N2_3 1_555 1_555
C34_3 C35_3 1_555 1_555
C40_3 N2_3 1_555 1_555
C41_3 C42_3 1_555 1_555
O10_2 Ca7 1_555 1_555
C29_4 C30_4 1_555 1_555
C30_4 C31_4 1_555 1_555
C31_4 H17_4 1_555 1_555
C32_4 C31_4 1_555 1_555
H18_4 C32_4 1_555 1_555
C33_4 C32_4 1_555 1_555
C34_4 C33_4 1_555 1_555
H19_4 C34_4 1_555 1_555
C35_4 C30_4 1_555 1_555
H20_4 C35_4 1_555 1_555
O20 C29_4 1_555 1_555
O22_2 C29_4 1_555 1_555
C34_4 C35_4 1_555 1_555
C22_4 C23_4 1_555 1_555
C23_4 C24_4 1_555 1_555
C24_4 H13_4 1_555 1_555
C25_4 C24_4 1_555 1_555
H14_4 C25_4 1_555 1_555
C26_4 C25_4 1_555 1_555
C27_4 C26_4 1_555 1_555
H15_4 C27_4 1_555 1_555
C28_4 C23_4 1_555 1_555
H16_4 C28_4 1_555 1_555
C36_4 C37_4 1_555 1_555
C37_4 C38_4 1_555 1_555
C38_4 H21_4 1_555 1_555
C39_4 C38_4 1_555 1_555
H22_4 C39_4 1_555 1_555
C40_4 C39_4 1_555 1_555
C41_4 C40_4 1_555 1_555
C42_4 C37_4 1_555 1_555
H24_4 C42_4 1_555 1_555
N2_4 C26_4 1_555 1_555
O23 C36_4 1_555 1_555
O25_2 C36_4 1_555 1_555
C27_4 C28_4 1_555 1_555
C40_4 N2_4 1_555 1_555
C41_4 C42_4 1_555 1_555
H2_4 C4_4 1_555 1_555
C8_4 C9_4 1_555 1_555
C9_4 C10_4 1_555 1_555
C10_4 H5_4 1_555 1_555
C11_4 C10_4 1_555 1_555
H6_4 C11_4 1_555 1_555
C12_4 C11_4 1_555 1_555
C13_4 C12_4 1_555 1_555
H7_4 C13_4 1_555 1_555
C14_4 C9_4 1_555 1_555
H8_4 C14_4 1_555 1_555
O15 C8_4 1_555 1_555
O16 C8_4 1_555 1_555
C12_4 N1_4 1_555 1_555
C13_4 C14_4 1_555 1_555
C1_4 C2_4 1_555 1_555
C2_4 C3_4 1_555 1_555
C3_4 H1_4 1_555 1_555
C6_4 C5_4 1_555 1_555
C7_4 C2_4 1_555 1_555
C15_4 C16_4 1_555 1_555
C16_4 C17_4 1_555 1_555
C18_4 C17_4 1_555 1_555
C19_4 C18_4 1_555 1_555
C20_4 C19_4 1_555 1_555
H11_4 C20_4 1_555 1_555
C21_4 C16_4 1_555 1_555
H12_4 C21_4 1_555 1_555
Ca10 O1_4 1_555 1_555
Ca14 O8_4 1_555 1_555
O1_4 C1_4 1_555 1_555
O2_4 C1_4 1_555 1_555
O18 C15_4 1_555 1_555
O13_4 Ca10 1_555 1_555
O14_4 Ca14 1_555 1_555
H27_4 O14_4 1_555 1_555
H28_4 O14_4 1_555 1_555
C6_4 C7_4 1_555 1_555
C20_4 C21_4 1_555 1_555
Ca10 O7_4 1_555 1_555

#END
