
###############################################################################
#
# This file contains modified crystal structure data generated from the
# MOF subset of the Cambridge Structural Database (CSD) v543 
# hosted by the Cambridge Crystallographic Data Centre (CCDC).
#
# This work is licensed under the Creative Commons
# Attribution-NonCommercial-ShareAlike 4.0 International License.
# To view a copy of this license, visit
# http://creativecommons.org/licenses/by-nc-sa/4.0/
# or send a letter to
# Creative Commons, PO Box 1866, Mountain View, CA 94042, USA.
#
# CIF created using the CSD Python API on 29 September 2022
# The structure has been converted into the P1 space group
# The structure has a 3D framework
# The original CSD entry ECAFIB is in the orthorhombic crystal system
# The framework has been calculated to contain at least 10.0% void space
# The void calculation uses a probe of radius 1.32A, grid spacing 0.4
#
###############################################################################

data_ECAFIB
_chemical_formula_moiety         '(C352 H288 N64 O64 Zn23)n'
_symmetry_cell_setting           triclinic
_symmetry_space_group_name_H-M   'P 1'
_symmetry_Int_Tables_number      1
_space_group_name_Hall           'P 1'
loop_
_symmetry_equiv_pos_site_id
_symmetry_equiv_pos_as_xyz
1 x,y,z
_cell_length_a                   20.3964(3)
_cell_length_b                   40.6227(7)
_cell_length_c                   13.4070(3)
_cell_angle_alpha                90
_cell_angle_beta                 90
_cell_angle_gamma                90
_cell_volume                     11108.5
loop_
_atom_site_label
_atom_site_type_symbol
_atom_site_fract_x
_atom_site_fract_y
_atom_site_fract_z
Zn13 Zn 0.000000 -0.000000 0.47734(8)
Zn13_2 Zn 0.000000 1.000000 0.47734(8)
O23 O 0.0290(2) 0.03338(9) 0.3800(3)
O26 O 0.1782(2) 0.27026(13) 0.0046(3)
O27 O 0.0564(3) 0.06561(12) 0.5063(3)
N27 N 0.0910(2) 0.16464(11) 0.1383(4)
N30 N 0.0768(2) 0.20840(11) 0.0473(4)
C119 C 0.0482(3) 0.06097(14) 0.4170(5)
C127 C 0.0795(3) 0.13897(13) 0.2103(5)
C128 C 0.0559(3) 0.19300(13) 0.1273(4)
C135 C 0.0564(3) 0.08247(13) 0.2425(5)
H99 H 0.046842 0.061414 0.219494
C139 C 0.0604(3) 0.08792(13) 0.3439(4)
C143 C 0.0038(3) 0.20418(15) 0.1947(5)
H105 H 0.022582 0.217160 0.247230
C146 C 0.0661(3) 0.10752(14) 0.1744(5)
H108 H 0.063670 0.103465 0.106180
C151 C 0.0833(4) 0.14544(15) 0.3119(5)
H115 H 0.092037 0.166576 0.335025
C153 C 0.0736(3) 0.11974(15) 0.3780(5)
H117 H 0.075960 0.123701 0.446205
C158 C 0.1349(3) 0.16241(16) 0.0606(5)
H124 H 0.164607 0.145497 0.048738
C164 C 0.1260(3) 0.18980(15) 0.0050(5)
N35 N 0.0078(2) 0.28879(11) 0.0400(4)
Zn1 Zn 0.500000 -0.000000 0.97140(8)
C77 C 0.0943(3) 0.01568(15) 0.6930(5)
H51 H 0.066576 0.031053 0.658606
H52 H 0.133976 0.026497 0.713086
H53 H 0.071843 0.007525 0.750945
H110 H 0.391268 0.053098 0.943425
H123 H 0.608148 0.448871 0.946501
O31 O 0.56930(16) 0.01201(10) 0.8742(3)
N31 N 0.9233(2) 0.02077(11) 0.5463(4)
N32 N 0.8370(2) 0.03185(12) 0.6363(4)
C166 C 0.8899(2) 0.01194(13) 0.6263(4)
C167 C 0.6256(3) 0.01907(14) 0.9132(5)
C168 C 0.7840(3) 0.02856(15) 0.7081(5)
C169 C 0.6698(2) 0.02172(14) 0.7392(5)
H136 H 0.627451 0.018865 0.715032
C170 C 0.6803(2) 0.02286(14) 0.8405(5)
C171 C 0.7448(3) 0.02681(17) 0.8751(5)
H137 H 0.752921 0.027457 0.943385
C172 C 0.7966(3) 0.02974(17) 0.8087(5)
H138 H 0.839216 0.032465 0.831855
C173 C 0.7217(3) 0.02479(15) 0.6721(5)
H139 H 0.714039 0.024275 0.603750
C175 C 0.8914(3) 0.04741(15) 0.5045(5)
H143 H 0.905002 0.058684 0.447738
C176 C 0.8376(3) 0.05449(16) 0.5586(5)
H144 H 0.807227 0.071084 0.546586
Zn13_3 Zn 1.000000 -0.000000 0.47734(8)
Zn17 Zn 0.500000 0.500000 0.98248(8)
Zn1_2 Zn 0.500000 1.000000 0.97140(8)
O4 O 0.43070(16) 0.98799(10) 0.8742(3)
N11 N 0.0767(2) 0.97923(11) 0.5463(4)
N12 N 0.1630(2) 0.96815(12) 0.6363(4)
O16 O 0.0961(2) 0.77188(14) 0.0087(4)
C6 C 0.1101(2) 0.98806(13) 0.6263(4)
C23 C 0.3744(3) 0.98093(14) 0.9132(5)
C27 C 0.2160(3) 0.97144(15) 0.7081(5)
C42 C 0.3302(2) 0.97828(14) 0.7392(5)
H15 H 0.372549 0.981135 0.715032
C45 C 0.3197(2) 0.97714(14) 0.8405(5)
H23 H 0.018128 0.814560 0.222747
H24 H 0.027148 0.782729 0.158074
C57 C 0.2552(3) 0.97319(17) 0.8751(5)
H27 H 0.247079 0.972543 0.943385
C60 C 0.2034(3) 0.97026(17) 0.8087(5)
H30 H 0.160784 0.967535 0.831855
C62 C 0.2783(3) 0.97521(15) 0.6721(5)
H32 H 0.285961 0.975725 0.603750
C79 C 0.1086(3) 0.95259(15) 0.5045(5)
H55 H 0.094998 0.941316 0.447738
C81 C 0.1624(3) 0.94551(16) 0.5586(5)
H59 H 0.192773 0.928916 0.546586
C174 C 0.9057(3) 0.98432(15) 0.6930(5)
H140 H 0.933424 0.968947 0.658606
H141 H 0.866024 0.973503 0.713086
H142 H 0.928157 0.992475 0.750945
Zn13_4 Zn 1.000000 1.000000 0.47734(8)
O30 O 0.9039(2) 0.22812(14) 0.0087(4)
H103 H 0.981872 0.185440 0.222747
H104 H 0.972852 0.217271 0.158074
O3 O 0.9710(2) 0.96662(9) 0.3800(3)
O9 O 0.8218(2) 0.72974(13) 0.0046(3)
O10 O 0.9436(3) 0.93439(12) 0.5063(3)
N13 N 0.9090(2) 0.83536(11) 0.1383(4)
N16 N 0.9232(2) 0.79160(11) 0.0473(4)
C12 C 0.9518(3) 0.93903(14) 0.4170(5)
C29 C 0.9205(3) 0.86103(13) 0.2103(5)
C33 C 0.9441(3) 0.80700(13) 0.1273(4)
C43 C 0.9436(3) 0.91753(13) 0.2425(5)
H16 H 0.953158 0.938586 0.219494
C50 C 0.9396(3) 0.91208(13) 0.3439(4)
C55 C 0.9962(3) 0.79582(15) 0.1947(5)
H25 H 0.977418 0.782840 0.247230
C59 C 0.9339(3) 0.89248(14) 0.1744(5)
H29 H 0.936330 0.896535 0.106180
C67 C 0.9167(4) 0.85456(15) 0.3119(5)
H39 H 0.907963 0.833424 0.335025
C70 C 0.9264(3) 0.88026(15) 0.3780(5)
H42 H 0.924040 0.876299 0.446205
C76 C 0.8651(3) 0.83759(16) 0.0606(5)
H50 H 0.835393 0.854503 0.048738
C87 C 0.8740(3) 0.81020(15) 0.0050(5)
N36 N 0.9922(2) 0.71121(11) 0.0400(4)
Zn5 Zn 0.000000 0.500000 0.47631(8)
O7 O 0.43100(17) 0.48785(11) 0.8872(3)
N3 N 0.0829(2) 0.48629(12) 0.5425(4)
N6 N 0.1705(2) 0.47953(12) 0.6334(4)
C2 C 0.0261(2) 0.30553(13) 0.1201(4)
C11 C 0.2040(3) 0.48310(14) 0.8097(5)
H2 H 0.160384 0.483243 0.830003
C14 C 0.1138(3) 0.49677(13) 0.6230(4)
C19 C 0.3733(3) 0.48314(15) 0.9242(5)
C32 C 0.2198(3) 0.48249(15) 0.7097(5)
C37 C 0.3200(3) 0.48297(14) 0.8486(4)
C47 C 0.3338(3) 0.48314(15) 0.7482(5)
H17 H 0.377327 0.483092 0.727315
C48 C 0.2539(3) 0.48350(16) 0.8793(5)
H18 H 0.243826 0.484128 0.946953
C54 C 0.1212(3) 0.46201(16) 0.4987(5)
H22 H 0.111311 0.450637 0.440457
H33 H 0.608732 0.946902 0.943425
C65 C 0.2844(3) 0.48339(17) 0.6777(5)
H35 H 0.294257 0.484138 0.610044
C69 C 0.1752(3) 0.45774(17) 0.5551(5)
H41 H 0.209091 0.442923 0.543416
H48 H 0.391852 0.551129 0.946501
C82 C 0.0913(3) 0.52364(16) 0.6901(5)
H60 H 0.070252 0.514311 0.747568
H61 H 0.060899 0.537489 0.655168
H62 H 0.128393 0.536483 0.711024
C83 C 0.0814(3) 0.29727(16) 0.1858(5)
H63 H 0.065093 0.287914 0.246648
H64 H 0.105899 0.316865 0.200562
H65 H 0.109427 0.281650 0.153035
O18 O 0.0179(2) 0.53594(9) 0.3822(3)
N17 N 0.0141(2) 0.66778(11) 0.1302(4)
O19 O 0.0284(3) 0.57137(11) 0.5085(3)
C93 C 0.0210(3) 0.58530(13) 0.2429(5)
H75 H 0.024912 0.563609 0.221460
C95 C 0.0222(3) 0.56502(14) 0.4183(4)
C96 C 0.0100(3) 0.65013(13) 0.3067(5)
H76 H 0.006736 0.671915 0.327442
C97 C 0.0122(3) 0.64239(13) 0.2055(4)
C98 C 0.0129(3) 0.62484(14) 0.3758(5)
H77 H 0.010540 0.629546 0.443547
C99 C 0.0193(3) 0.59223(13) 0.3438(5)
C102 C 0.0591(3) 0.66808(15) 0.0538(5)
H78 H 0.092769 0.653063 0.043144
C108 C 0.0170(3) 0.61019(14) 0.1742(5)
H84 H 0.017577 0.605339 0.106436
O34 O 0.56900(17) 0.51215(11) 0.8872(3)
Zn5_2 Zn 1.000000 0.500000 0.47631(8)
O8 O 0.9821(2) 0.46406(9) 0.3822(3)
N1 N 0.9859(2) 0.33222(11) 0.1302(4)
O12 O 0.9716(3) 0.42863(11) 0.5085(3)
C18 C 0.9790(3) 0.41470(13) 0.2429(5)
H5 H 0.975088 0.436391 0.221460
C20 C 0.9778(3) 0.43498(14) 0.4183(4)
C21 C 0.9900(3) 0.34987(13) 0.3067(5)
H6 H 0.993264 0.328085 0.327442
C24 C 0.9878(3) 0.35761(13) 0.2055(4)
C30 C 0.9871(3) 0.37516(14) 0.3758(5)
H9 H 0.989460 0.370454 0.443547
C31 C 0.9807(3) 0.40777(13) 0.3438(5)
C41 C 0.9409(3) 0.33192(15) 0.0538(5)
H14 H 0.907231 0.346937 0.043144
C75 C 0.9830(3) 0.38981(14) 0.1742(5)
H49 H 0.982423 0.394661 0.106436
N18 N 0.9171(2) 0.51371(12) 0.5425(4)
N19 N 0.8295(2) 0.52047(12) 0.6334(4)
C89 C 0.9739(2) 0.69447(13) 0.1201(4)
C90 C 0.7960(3) 0.51690(14) 0.8097(5)
H73 H 0.839616 0.516757 0.830003
C91 C 0.8862(3) 0.50323(13) 0.6230(4)
C94 C 0.6267(3) 0.51686(15) 0.9242(5)
C100 C 0.7802(3) 0.51751(15) 0.7097(5)
C101 C 0.6800(3) 0.51703(14) 0.8486(4)
C103 C 0.6662(3) 0.51686(15) 0.7482(5)
H79 H 0.622673 0.516908 0.727315
C104 C 0.7461(3) 0.51650(16) 0.8793(5)
H80 H 0.756174 0.515872 0.946953
C105 C 0.8788(3) 0.53799(16) 0.4987(5)
H81 H 0.888689 0.549363 0.440457
C106 C 0.7156(3) 0.51661(17) 0.6777(5)
H82 H 0.705743 0.515862 0.610044
C107 C 0.8248(3) 0.54226(17) 0.5551(5)
H83 H 0.790909 0.557077 0.543416
C109 C 0.9087(3) 0.47636(16) 0.6901(5)
H85 H 0.929748 0.485689 0.747568
H86 H 0.939101 0.462511 0.655168
H87 H 0.871607 0.463517 0.711024
C110 C 0.9186(3) 0.70273(16) 0.1858(5)
H88 H 0.934907 0.712086 0.246648
H89 H 0.894101 0.683135 0.200562
H90 H 0.890573 0.718350 0.153035
Zn7 Zn 0.54221(3) 0.24755(2) 0.47547(7)
Zn8 Zn 0.04217(3) 0.24815(2) 0.97583(7)
O21 O 0.51908(19) 0.21449(9) 0.3733(3)
O22 O 0.11112(18) 0.25907(11) 0.8783(3)
O25 O 0.5676(2) 0.28404(9) 0.3876(3)
N21 N 0.3732(2) 0.27352(11) 0.6295(4)
N22 N 0.5566(2) 0.41611(11) 0.1370(4)
O28 O 0.4920(3) 0.18224(11) 0.4999(3)
N24 N 0.5345(2) 0.45966(11) 0.0470(4)
N25 N 0.4649(2) 0.03981(11) 0.0415(4)
O29 O 0.5759(3) 0.31950(11) 0.5139(4)
N26 N 0.4508(2) 0.08406(11) 0.1318(4)
N29 N 0.4606(2) 0.26457(11) 0.5390(4)
C111 C 0.1669(3) 0.26594(13) 0.9161(4)
C113 C 0.3381(3) 0.27031(14) 0.8045(5)
H91 H 0.381410 0.270984 0.826098
C114 C 0.3235(3) 0.27078(15) 0.7041(4)
C115 C 0.5169(3) 0.44281(13) 0.1283(4)
C116 C 0.4861(3) 0.05579(12) 0.1211(4)
C117 C 0.5560(3) 0.39093(13) 0.2124(5)
C118 C 0.5709(3) 0.31327(13) 0.4256(5)
C120 C 0.4993(3) 0.18686(14) 0.4104(4)
C121 C 0.5654(3) 0.34058(13) 0.3511(5)
C122 C 0.4880(3) 0.16614(13) 0.2362(5)
H92 H 0.498017 0.187098 0.212805
C123 C 0.5535(3) 0.39832(13) 0.3137(5)
H93 H 0.548259 0.419951 0.334956
C125 C 0.2214(2) 0.26788(13) 0.8417(4)
C126 C 0.2871(3) 0.26881(15) 0.8727(5)
H94 H 0.296664 0.268408 0.940502
C129 C 0.4235(3) 0.28899(14) 0.4932(5)
H95 H 0.434218 0.299835 0.434351
C130 C 0.5587(3) 0.37310(14) 0.3819(5)
H96 H 0.557780 0.377909 0.449664
C131 C 0.4853(3) 0.16019(13) 0.3370(4)
C132 C 0.3694(3) 0.29428(15) 0.5485(5)
H97 H 0.335914 0.309117 0.534594
C134 C 0.2084(3) 0.26840(14) 0.7401(4)
H98 H 0.165162 0.267758 0.718234
C137 C 0.4616(3) 0.10931(14) 0.2031(4)
C140 C 0.4294(3) 0.25548(13) 0.6205(5)
C141 C 0.5995(3) 0.41594(15) 0.0589(5)
H101 H 0.631717 0.400304 0.046157
C142 C 0.5668(3) 0.33392(13) 0.2492(5)
H102 H 0.572319 0.312314 0.227803
C147 C 0.4757(3) 0.14064(13) 0.1692(5)
H109 H 0.477044 0.144754 0.101009
C148 C 0.4147(3) 0.05846(14) 0.0006(5)
C150 C 0.4517(3) 0.23025(15) 0.6912(5)
H112 H 0.480108 0.215031 0.657593
H113 H 0.414484 0.218660 0.717466
H114 H 0.475121 0.240576 0.744908
C152 C 0.2587(3) 0.26984(16) 0.6707(5)
H116 H 0.249402 0.270182 0.602815
C154 C 0.4054(3) 0.08522(16) 0.0560(5)
H118 H 0.374225 0.101560 0.045545
C155 C 0.5604(3) 0.35825(13) 0.1801(5)
H119 H 0.558958 0.353242 0.112433
C156 C 0.5390(3) 0.04535(16) 0.1881(5)
H120 H 0.520494 0.036297 0.247918
H121 H 0.565865 0.063967 0.204568
H122 H 0.565260 0.028936 0.155521
C157 C 0.5861(3) 0.44267(15) 0.0043(5)
C159 C 0.4596(4) 0.10285(14) 0.3047(5)
H125 H 0.450628 0.081757 0.328002
C160 C 0.4620(3) 0.45160(17) 0.1939(5)
H126 H 0.478427 0.462613 0.252096
H127 H 0.439138 0.431982 0.213550
H128 H 0.432488 0.465934 0.158892
C161 C 0.4714(3) 0.12873(15) 0.3716(5)
H129 H 0.469915 0.124774 0.439927
H134 H 0.149247 0.195213 0.947686
O32 O 0.6360(2) 0.02253(14) 0.0028(4)
N34 N 0.6200(2) 0.22920(11) 0.5469(4)
O13 O 0.3640(2) 0.97747(14) 0.0028(4)
N38 N 0.5351(2) 0.96019(11) 0.0415(4)
O5 O 0.02747(17) 0.76426(10) 0.8810(3)
N5 N 0.3800(2) 0.77080(11) 0.5469(4)
N14 N 0.2936(2) 0.77992(12) 0.6385(4)
C3 C 0.3463(2) 0.76047(14) 0.6252(4)
C25 C 0.2420(3) 0.77640(16) 0.7106(5)
C39 C 0.1391(3) 0.77214(14) 0.8453(5)
C44 C 0.0851(3) 0.76971(14) 0.9181(5)
C49 C 0.1274(2) 0.77121(15) 0.7438(5)
H19 H 0.084603 0.769352 0.720478
C56 C 0.1789(3) 0.77300(17) 0.6764(5)
H26 H 0.170716 0.771912 0.608257
C58 C 0.2040(3) 0.77487(18) 0.8784(6)
H28 H 0.212749 0.774811 0.946502
C64 C 0.2547(3) 0.77762(18) 0.8121(5)
H34 H 0.297464 0.780283 0.835017
C85 C 0.3627(4) 0.73137(17) 0.6882(5)
H67 H 0.382247 0.738666 0.749437
H68 H 0.392968 0.717467 0.653100
H69 H 0.323406 0.719253 0.702538
C86 C 0.3484(3) 0.79820(16) 0.5100(5)
H70 H 0.361702 0.810594 0.455329
C88 C 0.2947(3) 0.80407(18) 0.5665(5)
H72 H 0.264554 0.821034 0.558370
Zn10 Zn 0.45779(3) 0.75245(2) 0.47547(7)
O24 O 0.97253(17) 0.23574(10) 0.8810(3)
N28 N 0.7064(2) 0.22008(12) 0.6385(4)
C112 C 0.6537(2) 0.23953(14) 0.6252(4)
C124 C 0.7580(3) 0.22360(16) 0.7106(5)
C133 C 0.8609(3) 0.22786(14) 0.8453(5)
C136 C 0.9149(3) 0.23029(14) 0.9181(5)
C138 C 0.8726(2) 0.22879(15) 0.7438(5)
H100 H 0.915397 0.230648 0.720478
C144 C 0.8211(3) 0.22700(17) 0.6764(5)
H106 H 0.829284 0.228088 0.608257
C145 C 0.7960(3) 0.22513(18) 0.8784(6)
H107 H 0.787251 0.225189 0.946502
C149 C 0.7453(3) 0.22238(18) 0.8121(5)
H111 H 0.702536 0.219717 0.835017
C162 C 0.6373(4) 0.26863(17) 0.6882(5)
H130 H 0.617753 0.261334 0.749437
H131 H 0.607032 0.282533 0.653100
H132 H 0.676594 0.280747 0.702538
C163 C 0.6516(3) 0.20180(16) 0.5100(5)
H133 H 0.638298 0.189406 0.455329
C165 C 0.7053(3) 0.19593(18) 0.5665(5)
H135 H 0.735446 0.178966 0.558370
Zn4 Zn 0.95783(3) 0.75185(2) 0.97583(7)
O1 O 0.48092(19) 0.78551(9) 0.3733(3)
O2 O 0.88888(18) 0.74093(11) 0.8783(3)
O6 O 0.4324(2) 0.71596(9) 0.3876(3)
N2 N 0.6268(2) 0.72648(11) 0.6295(4)
N4 N 0.4434(2) 0.58389(11) 0.1370(4)
O11 O 0.5080(3) 0.81776(11) 0.4999(3)
N8 N 0.4655(2) 0.54034(11) 0.0470(4)
O14 O 0.4241(3) 0.68050(11) 0.5139(4)
N10 N 0.5492(2) 0.91594(11) 0.1318(4)
O15 O 0.3613(2) 0.47948(14) 0.0131(4)
N15 N 0.5394(2) 0.73543(11) 0.5390(4)
C1 C 0.8331(3) 0.73406(13) 0.9161(4)
C4 C 0.6619(3) 0.72969(14) 0.8045(5)
H1 H 0.618590 0.729016 0.826098
C5 C 0.6765(3) 0.72922(15) 0.7041(4)
C7 C 0.4831(3) 0.55719(13) 0.1283(4)
C8 C 0.5139(3) 0.94421(12) 0.1211(4)
C9 C 0.4440(3) 0.60907(13) 0.2124(5)
C10 C 0.4291(3) 0.68673(13) 0.4256(5)
C13 C 0.5007(3) 0.81314(14) 0.4104(4)
C15 C 0.4346(3) 0.65942(13) 0.3511(5)
C16 C 0.5120(3) 0.83386(13) 0.2362(5)
H3 H 0.501983 0.812902 0.212805
C22 C 0.4465(3) 0.60168(13) 0.3137(5)
H7 H 0.451741 0.580049 0.334956
C26 C 0.7786(2) 0.73212(13) 0.8417(4)
C28 C 0.7129(3) 0.73119(15) 0.8727(5)
H8 H 0.703336 0.731592 0.940502
C34 C 0.5765(3) 0.71101(14) 0.4932(5)
H10 H 0.565782 0.700165 0.434351
C35 C 0.4413(3) 0.62690(14) 0.3819(5)
H11 H 0.442220 0.622091 0.449664
C36 C 0.5147(3) 0.83981(13) 0.3370(4)
C38 C 0.6306(3) 0.70572(15) 0.5485(5)
H12 H 0.664086 0.690883 0.534594
C40 C 0.7916(3) 0.73160(14) 0.7401(4)
H13 H 0.834838 0.732242 0.718234
C46 C 0.5384(3) 0.89069(14) 0.2031(4)
C51 C 0.5706(3) 0.74452(13) 0.6205(5)
C52 C 0.4005(3) 0.58406(15) 0.0589(5)
H20 H 0.368283 0.599696 0.046157
C53 C 0.4332(3) 0.66608(13) 0.2492(5)
H21 H 0.427681 0.687686 0.227803
C61 C 0.5243(3) 0.85936(13) 0.1692(5)
H31 H 0.522956 0.855246 0.101009
C63 C 0.5853(3) 0.94154(14) 0.0006(5)
C66 C 0.5483(3) 0.76975(15) 0.6912(5)
H36 H 0.519892 0.784969 0.657593
H37 H 0.585516 0.781340 0.717466
H38 H 0.524879 0.759424 0.744908
C68 C 0.7413(3) 0.73016(16) 0.6707(5)
H40 H 0.750598 0.729818 0.602815
C71 C 0.5946(3) 0.91478(16) 0.0560(5)
H43 H 0.625775 0.898440 0.045545
C72 C 0.4396(3) 0.64175(13) 0.1801(5)
H44 H 0.441042 0.646758 0.112433
C73 C 0.4610(3) 0.95465(16) 0.1881(5)
H45 H 0.479506 0.963703 0.247918
H46 H 0.434135 0.936033 0.204568
H47 H 0.434740 0.971064 0.155521
C74 C 0.4139(3) 0.55733(15) 0.0043(5)
C78 C 0.5404(4) 0.89715(14) 0.3047(5)
H54 H 0.549372 0.918243 0.328002
C80 C 0.5380(3) 0.54840(17) 0.1939(5)
H56 H 0.521573 0.537387 0.252096
H57 H 0.560862 0.568018 0.213550
H58 H 0.567512 0.534066 0.158892
C84 C 0.5286(3) 0.87127(15) 0.3716(5)
H66 H 0.530085 0.875226 0.439927
H71 H 0.850753 0.804787 0.947686
C92 C 0.0445(3) 0.69444(14) 0.9978(5)
H74 H 0.066067 0.700529 0.939558
O20 O 0.6387(2) 0.52052(14) 0.0131(4)
C17 C 0.9555(3) 0.30556(14) 0.9978(5)
H4 H 0.933933 0.299471 0.939558
Zn13_5 Zn 0.000000 0.500000 0.97734(8)
Zn8_2 Zn 0.04217(3) 0.25185(2) 0.47583(7)
O22_2 O 0.11112(18) 0.24093(11) 0.3783(3)
O23_2 O 0.0290(2) 0.46662(9) 0.8800(3)
O26_2 O 0.1782(2) 0.22974(13) 0.5046(3)
N21_2 N 0.3732(2) 0.22648(11) 0.1295(4)
O29_2 O 0.5759(3) 0.18050(11) 0.0139(4)
N27_2 N 0.0910(2) 0.33536(11) 0.6383(4)
N29_2 N 0.4606(2) 0.23543(11) 0.0390(4)
N30_2 N 0.0768(2) 0.29160(11) 0.5473(4)
C111_2 C 0.1669(3) 0.23406(13) 0.4161(4)
C113_2 C 0.3381(3) 0.22969(14) 0.3045(5)
H91_2 H 0.381410 0.229016 0.326098
C114_2 C 0.3235(3) 0.22922(15) 0.2041(4)
C119_2 C 0.0482(3) 0.43903(14) 0.9170(5)
C125_2 C 0.2214(2) 0.23212(13) 0.3417(4)
C126_2 C 0.2871(3) 0.23119(15) 0.3727(5)
H94_2 H 0.296664 0.231592 0.440502
C127_2 C 0.0795(3) 0.36103(13) 0.7103(5)
C128_2 C 0.0559(3) 0.30700(13) 0.6273(4)
C132_2 C 0.3694(3) 0.20572(15) 0.0485(5)
H97_2 H 0.335914 0.190883 0.034594
C134_2 C 0.2084(3) 0.23160(14) 0.2401(4)
H98_2 H 0.165162 0.232242 0.218234
C135_2 C 0.0564(3) 0.41753(13) 0.7425(5)
H99_2 H 0.046842 0.438586 0.719494
C139_2 C 0.0604(3) 0.41208(13) 0.8439(4)
C140_2 C 0.4294(3) 0.24452(13) 0.1205(5)
C143_2 C 0.0038(3) 0.29582(15) 0.6947(5)
H105_2 H 0.022582 0.282840 0.747230
C146_2 C 0.0661(3) 0.39248(14) 0.6744(5)
H108_2 H 0.063670 0.396535 0.606180
C150_2 C 0.4517(3) 0.26975(15) 0.1912(5)
H112_2 H 0.480108 0.284969 0.157593
H113_2 H 0.414484 0.281340 0.217466
H114_2 H 0.475121 0.259424 0.244908
C151_2 C 0.0833(4) 0.35456(15) 0.8119(5)
H115_2 H 0.092037 0.333424 0.835025
C152_2 C 0.2587(3) 0.23016(16) 0.1707(5)
H116_2 H 0.249402 0.229818 0.102815
C153_2 C 0.0736(3) 0.38026(15) 0.8780(5)
H117_2 H 0.075960 0.376299 0.946205
C158_2 C 0.1349(3) 0.33759(16) 0.5606(5)
H124_2 H 0.164607 0.354503 0.548738
C164_2 C 0.1260(3) 0.31020(15) 0.5050(5)
H134_2 H 0.149247 0.304787 0.447686
N34_2 N 0.6200(2) 0.27080(11) 0.0469(4)
N35_2 N 0.0078(2) 0.21121(11) 0.5400(4)
O5_2 O 0.02747(17) 0.73574(10) 0.3810(3)
N5_2 N 0.3800(2) 0.72920(11) 0.0469(4)
N14_2 N 0.2936(2) 0.72008(12) 0.1385(4)
O16_2 O 0.0961(2) 0.72812(14) 0.5087(4)
C3_2 C 0.3463(2) 0.73953(14) 0.1252(4)
C25_2 C 0.2420(3) 0.72360(16) 0.2106(5)
C39_2 C 0.1391(3) 0.72786(14) 0.3453(5)
C44_2 C 0.0851(3) 0.73029(14) 0.4181(5)
C49_2 C 0.1274(2) 0.72879(15) 0.2438(5)
H19_2 H 0.084603 0.730648 0.220478
H23_2 H 0.018128 0.685440 0.722747
H24_2 H 0.027148 0.717271 0.658074
C56_2 C 0.1789(3) 0.72700(17) 0.1764(5)
H26_2 H 0.170716 0.728088 0.108257
C58_2 C 0.2040(3) 0.72513(18) 0.3784(6)
H28_2 H 0.212749 0.725189 0.446502
C64_2 C 0.2547(3) 0.72238(18) 0.3121(5)
H34_2 H 0.297464 0.719717 0.335017
H55_2 H 0.094998 0.558684 0.947738
C85_2 C 0.3627(4) 0.76863(17) 0.1882(5)
H67_2 H 0.382247 0.761334 0.249437
H68_2 H 0.392968 0.782533 0.153100
H69_2 H 0.323406 0.780747 0.202538
C86_2 C 0.3484(3) 0.70180(16) 0.0100(5)
C88_2 C 0.2947(3) 0.69593(18) 0.0665(5)
H72_2 H 0.264554 0.678966 0.058370
H143_2 H 0.905002 0.441316 0.947738
Zn13_6 Zn 1.000000 0.500000 0.97734(8)
Zn5_3 Zn 0.000000 -0.000000 0.97631(8)
C2_2 C 0.0261(2) 0.19447(13) 0.6201(4)
C54_2 C 0.1212(3) 0.03799(16) 0.9987(5)
H22_2 H 0.111311 0.049363 0.940457
C83_2 C 0.0814(3) 0.20273(16) 0.6858(5)
H63_2 H 0.065093 0.212086 0.746648
H64_2 H 0.105899 0.183135 0.700562
H65_2 H 0.109427 0.218350 0.653035
O24_2 O 0.97253(17) 0.26426(10) 0.3810(3)
N28_2 N 0.7064(2) 0.27992(12) 0.1385(4)
O30_2 O 0.9039(2) 0.27188(14) 0.5087(4)
C112_2 C 0.6537(2) 0.26047(14) 0.1252(4)
C124_2 C 0.7580(3) 0.27640(16) 0.2106(5)
C133_2 C 0.8609(3) 0.27214(14) 0.3453(5)
C136_2 C 0.9149(3) 0.26971(14) 0.4181(5)
C138_2 C 0.8726(2) 0.27121(15) 0.2438(5)
H100_2 H 0.915397 0.269352 0.220478
H103_2 H 0.981872 0.314560 0.722747
H104_2 H 0.972852 0.282729 0.658074
C144_2 C 0.8211(3) 0.27300(17) 0.1764(5)
H106_2 H 0.829284 0.271912 0.108257
C145_2 C 0.7960(3) 0.27487(18) 0.3784(6)
H107_2 H 0.787251 0.274811 0.446502
C149_2 C 0.7453(3) 0.27762(18) 0.3121(5)
H111_2 H 0.702536 0.280283 0.335017
C162_2 C 0.6373(4) 0.23137(17) 0.1882(5)
H130_2 H 0.617753 0.238666 0.249437
H131_2 H 0.607032 0.217467 0.153100
H132_2 H 0.676594 0.219253 0.202538
C163_2 C 0.6516(3) 0.29820(16) 0.0100(5)
C165_2 C 0.7053(3) 0.30407(18) 0.0665(5)
H135_2 H 0.735446 0.321034 0.058370
Zn4_2 Zn 0.95783(3) 0.74815(2) 0.47583(7)
O2_2 O 0.88888(18) 0.75907(11) 0.3783(3)
O3_2 O 0.9710(2) 0.53338(9) 0.8800(3)
O9_2 O 0.8218(2) 0.77026(13) 0.5046(3)
N2_2 N 0.6268(2) 0.77352(11) 0.1295(4)
O14_2 O 0.4241(3) 0.81950(11) 0.0139(4)
N13_2 N 0.9090(2) 0.66464(11) 0.6383(4)
N15_2 N 0.5394(2) 0.76457(11) 0.0390(4)
N16_2 N 0.9232(2) 0.70840(11) 0.5473(4)
C1_2 C 0.8331(3) 0.76594(13) 0.4161(4)
C4_2 C 0.6619(3) 0.77031(14) 0.3045(5)
H1_2 H 0.618590 0.770984 0.326098
C5_2 C 0.6765(3) 0.77078(15) 0.2041(4)
C12_2 C 0.9518(3) 0.56097(14) 0.9170(5)
C26_2 C 0.7786(2) 0.76788(13) 0.3417(4)
C28_2 C 0.7129(3) 0.76881(15) 0.3727(5)
H8_2 H 0.703336 0.768408 0.440502
C29_2 C 0.9205(3) 0.63897(13) 0.7103(5)
C33_2 C 0.9441(3) 0.69300(13) 0.6273(4)
C38_2 C 0.6306(3) 0.79428(15) 0.0485(5)
H12_2 H 0.664086 0.809117 0.034594
C40_2 C 0.7916(3) 0.76840(14) 0.2401(4)
H13_2 H 0.834838 0.767758 0.218234
C43_2 C 0.9436(3) 0.58247(13) 0.7425(5)
H16_2 H 0.953158 0.561414 0.719494
C50_2 C 0.9396(3) 0.58792(13) 0.8439(4)
C51_2 C 0.5706(3) 0.75548(13) 0.1205(5)
C55_2 C 0.9962(3) 0.70418(15) 0.6947(5)
H25_2 H 0.977418 0.717160 0.747230
C59_2 C 0.9339(3) 0.60752(14) 0.6744(5)
H29_2 H 0.936330 0.603465 0.606180
C66_2 C 0.5483(3) 0.73025(15) 0.1912(5)
H36_2 H 0.519892 0.715031 0.157593
H37_2 H 0.585516 0.718660 0.217466
H38_2 H 0.524879 0.740576 0.244908
C67_2 C 0.9167(4) 0.64544(15) 0.8119(5)
H39_2 H 0.907963 0.666576 0.835025
C68_2 C 0.7413(3) 0.76984(16) 0.1707(5)
H40_2 H 0.750598 0.770182 0.102815
C70_2 C 0.9264(3) 0.61974(15) 0.8780(5)
H42_2 H 0.924040 0.623701 0.946205
C76_2 C 0.8651(3) 0.66241(16) 0.5606(5)
H50_2 H 0.835393 0.645497 0.548738
C87_2 C 0.8740(3) 0.68980(15) 0.5050(5)
H71_2 H 0.850753 0.695213 0.447686
N36_2 N 0.9922(2) 0.78879(11) 0.5400(4)
Zn5_4 Zn 1.000000 1.000000 0.97631(8)
C89_2 C 0.9739(2) 0.80553(13) 0.6201(4)
C105_2 C 0.8788(3) 0.96201(16) 0.9987(5)
H81_2 H 0.888689 0.950637 0.940457
C110_2 C 0.9186(3) 0.79727(16) 0.6858(5)
H88_2 H 0.934907 0.787914 0.746648
H89_2 H 0.894101 0.816865 0.700562
H90_2 H 0.890573 0.781650 0.653035
O27_2 O 0.0564(3) 0.43439(12) 0.0063(3)
Zn1_3 Zn 0.500000 0.500000 0.47140(8)
O4_2 O 0.43070(16) 0.51201(10) 0.3742(3)
O13_2 O 0.3640(2) 0.52253(14) 0.5028(4)
N11_2 N 0.0767(2) 0.52077(11) 0.0463(4)
N12_2 N 0.1630(2) 0.53185(12) 0.1363(4)
C6_2 C 0.1101(2) 0.51194(13) 0.1263(4)
C23_2 C 0.3744(3) 0.51907(14) 0.4132(5)
C27_2 C 0.2160(3) 0.52856(15) 0.2081(5)
C42_2 C 0.3302(2) 0.52172(14) 0.2392(5)
H15_2 H 0.372549 0.518865 0.215032
C45_2 C 0.3197(2) 0.52286(14) 0.3405(5)
C57_2 C 0.2552(3) 0.52681(17) 0.3751(5)
H27_2 H 0.247079 0.527457 0.443385
C60_2 C 0.2034(3) 0.52974(17) 0.3087(5)
H30_2 H 0.160784 0.532465 0.331855
C62_2 C 0.2783(3) 0.52479(15) 0.1721(5)
H32_2 H 0.285961 0.524275 0.103750
C77_2 C 0.0943(3) 0.48432(15) 0.1930(5)
H51_2 H 0.066576 0.468947 0.158606
H52_2 H 0.133976 0.473503 0.213086
H53_2 H 0.071843 0.492475 0.250945
C79_2 C 0.1086(3) 0.54741(15) 0.0045(5)
C81_2 C 0.1624(3) 0.55449(16) 0.0586(5)
H59_2 H 0.192773 0.571084 0.046586
Zn7_2 Zn 0.54221(3) 0.25245(2) 0.97547(7)
O21_2 O 0.51908(19) 0.28551(9) 0.8733(3)
O25_2 O 0.5676(2) 0.21596(9) 0.8876(3)
N22_2 N 0.5566(2) 0.08389(11) 0.6370(4)
O28_2 O 0.4920(3) 0.31776(11) 0.9999(3)
N24_2 N 0.5345(2) 0.04034(11) 0.5470(4)
N25_2 N 0.4649(2) 0.46019(11) 0.5415(4)
N26_2 N 0.4508(2) 0.41594(11) 0.6318(4)
C115_2 C 0.5169(3) 0.05719(13) 0.6283(4)
C116_2 C 0.4861(3) 0.44421(12) 0.6211(4)
C117_2 C 0.5560(3) 0.10907(13) 0.7124(5)
C118_2 C 0.5709(3) 0.18673(13) 0.9256(5)
C120_2 C 0.4993(3) 0.31314(14) 0.9104(4)
C121_2 C 0.5654(3) 0.15942(13) 0.8511(5)
C122_2 C 0.4880(3) 0.33386(13) 0.7362(5)
H92_2 H 0.498017 0.312902 0.712805
C123_2 C 0.5535(3) 0.10168(13) 0.8137(5)
H93_2 H 0.548259 0.080049 0.834956
C129_2 C 0.4235(3) 0.21101(14) 0.9932(5)
H95_2 H 0.434218 0.200165 0.934351
C130_2 C 0.5587(3) 0.12690(14) 0.8819(5)
H96_2 H 0.557780 0.122091 0.949664
C131_2 C 0.4853(3) 0.33981(13) 0.8370(4)
C137_2 C 0.4616(3) 0.39069(14) 0.7031(4)
C141_2 C 0.5995(3) 0.08406(15) 0.5589(5)
H101_2 H 0.631717 0.099696 0.546157
C142_2 C 0.5668(3) 0.16608(13) 0.7492(5)
H102_2 H 0.572319 0.187686 0.727803
C147_2 C 0.4757(3) 0.35936(13) 0.6692(5)
H109_2 H 0.477044 0.355246 0.601009
C148_2 C 0.4147(3) 0.44154(14) 0.5006(5)
H110_2 H 0.391268 0.446902 0.443425
C154_2 C 0.4054(3) 0.41478(16) 0.5560(5)
H118_2 H 0.374225 0.398440 0.545545
C155_2 C 0.5604(3) 0.14175(13) 0.6801(5)
H119_2 H 0.558958 0.146758 0.612433
C156_2 C 0.5390(3) 0.45465(16) 0.6881(5)
H120_2 H 0.520494 0.463703 0.747918
H121_2 H 0.565865 0.436033 0.704568
H122_2 H 0.565260 0.471064 0.655521
C157_2 C 0.5861(3) 0.05733(15) 0.5043(5)
H123_2 H 0.608148 0.051129 0.446501
C159_2 C 0.4596(4) 0.39715(14) 0.8047(5)
H125_2 H 0.450628 0.418243 0.828002
C160_2 C 0.4620(3) 0.04840(17) 0.6939(5)
H126_2 H 0.478427 0.037387 0.752096
H127_2 H 0.439138 0.068018 0.713550
H128_2 H 0.432488 0.034066 0.658892
C161_2 C 0.4714(3) 0.37127(15) 0.8716(5)
H129_2 H 0.469915 0.375226 0.939927
O31_2 O 0.56930(16) 0.48799(10) 0.3742(3)
O32_2 O 0.6360(2) 0.47747(14) 0.5028(4)
N31_2 N 0.9233(2) 0.47923(11) 0.0463(4)
N32_2 N 0.8370(2) 0.46815(12) 0.1363(4)
C166_2 C 0.8899(2) 0.48806(13) 0.1263(4)
C167_2 C 0.6256(3) 0.48093(14) 0.4132(5)
C168_2 C 0.7840(3) 0.47144(15) 0.2081(5)
C169_2 C 0.6698(2) 0.47828(14) 0.2392(5)
H136_2 H 0.627451 0.481135 0.215032
C170_2 C 0.6803(2) 0.47714(14) 0.3405(5)
C171_2 C 0.7448(3) 0.47319(17) 0.3751(5)
H137_2 H 0.752921 0.472543 0.443385
C172_2 C 0.7966(3) 0.47026(17) 0.3087(5)
H138_2 H 0.839216 0.467535 0.331855
C173_2 C 0.7217(3) 0.47521(15) 0.1721(5)
H139_2 H 0.714039 0.475725 0.103750
C174_2 C 0.9057(3) 0.51568(15) 0.1930(5)
H140_2 H 0.933424 0.531053 0.158606
H141_2 H 0.866024 0.526497 0.213086
H142_2 H 0.928157 0.507525 0.250945
C175_2 C 0.8914(3) 0.45259(15) 0.0045(5)
C176_2 C 0.8376(3) 0.44551(16) 0.0586(5)
H144_2 H 0.807227 0.428916 0.046586
Zn17_2 Zn 0.500000 0.000000 0.48248(8)
N38_2 N 0.5351(2) 0.53981(11) 0.5415(4)
H70_2 H 0.361702 0.689406 0.955329
Zn10_2 Zn 0.45779(3) 0.74755(2) 0.97547(7)
Zn17_3 Zn 0.500000 1.000000 0.48248(8)
O7_2 O 0.43100(17) 0.01215(11) 0.3872(3)
N3_2 N 0.0829(2) 0.01371(12) 0.0425(4)
N6_2 N 0.1705(2) 0.02047(12) 0.1334(4)
O15_2 O 0.3613(2) 0.02052(14) 0.5131(4)
C11_2 C 0.2040(3) 0.01690(14) 0.3097(5)
H2_2 H 0.160384 0.016757 0.330003
C14_2 C 0.1138(3) 0.00323(13) 0.1230(4)
C19_2 C 0.3733(3) 0.01686(15) 0.4242(5)
C32_2 C 0.2198(3) 0.01751(15) 0.2097(5)
C37_2 C 0.3200(3) 0.01703(14) 0.3486(4)
C47_2 C 0.3338(3) 0.01686(15) 0.2482(5)
H17_2 H 0.377327 0.016908 0.227315
C48_2 C 0.2539(3) 0.01650(16) 0.3793(5)
H18_2 H 0.243826 0.015872 0.446953
C65_2 C 0.2844(3) 0.01661(17) 0.1777(5)
H35_2 H 0.294257 0.015862 0.110044
C69_2 C 0.1752(3) 0.04226(17) 0.0551(5)
H41_2 H 0.209091 0.057077 0.043416
O10_2 O 0.9436(3) 0.56561(12) 0.0063(3)
H133_2 H 0.638298 0.310594 0.955329
O1_2 O 0.48092(19) 0.71449(9) 0.8733(3)
O6_2 O 0.4324(2) 0.78404(9) 0.8876(3)
N4_2 N 0.4434(2) 0.91611(11) 0.6370(4)
O11_2 O 0.5080(3) 0.68224(11) 0.9999(3)
N8_2 N 0.4655(2) 0.95966(11) 0.5470(4)
N10_2 N 0.5492(2) 0.58406(11) 0.6318(4)
C7_2 C 0.4831(3) 0.94281(13) 0.6283(4)
C8_2 C 0.5139(3) 0.55579(12) 0.6211(4)
C9_2 C 0.4440(3) 0.89093(13) 0.7124(5)
C10_2 C 0.4291(3) 0.81327(13) 0.9256(5)
C13_2 C 0.5007(3) 0.68686(14) 0.9104(4)
C15_2 C 0.4346(3) 0.84058(13) 0.8511(5)
C16_2 C 0.5120(3) 0.66614(13) 0.7362(5)
H3_2 H 0.501983 0.687098 0.712805
C22_2 C 0.4465(3) 0.89832(13) 0.8137(5)
H7_2 H 0.451741 0.919951 0.834956
C34_2 C 0.5765(3) 0.78899(14) 0.9932(5)
H10_2 H 0.565782 0.799835 0.934351
C35_2 C 0.4413(3) 0.87310(14) 0.8819(5)
H11_2 H 0.442220 0.877909 0.949664
C36_2 C 0.5147(3) 0.66019(13) 0.8370(4)
C46_2 C 0.5384(3) 0.60931(14) 0.7031(4)
C52_2 C 0.4005(3) 0.91594(15) 0.5589(5)
H20_2 H 0.368283 0.900304 0.546157
C53_2 C 0.4332(3) 0.83392(13) 0.7492(5)
H21_2 H 0.427681 0.812314 0.727803
C61_2 C 0.5243(3) 0.64064(13) 0.6692(5)
H31_2 H 0.522956 0.644754 0.601009
C63_2 C 0.5853(3) 0.55846(14) 0.5006(5)
H33_2 H 0.608732 0.553098 0.443425
C71_2 C 0.5946(3) 0.58522(16) 0.5560(5)
H43_2 H 0.625775 0.601560 0.545545
C72_2 C 0.4396(3) 0.85825(13) 0.6801(5)
H44_2 H 0.441042 0.853242 0.612433
C73_2 C 0.4610(3) 0.54535(16) 0.6881(5)
H45_2 H 0.479506 0.536297 0.747918
H46_2 H 0.434135 0.563967 0.704568
H47_2 H 0.434740 0.528936 0.655521
C74_2 C 0.4139(3) 0.94267(15) 0.5043(5)
H48_2 H 0.391852 0.948871 0.446501
C78_2 C 0.5404(4) 0.60285(14) 0.8047(5)
H54_2 H 0.549372 0.581757 0.828002
C80_2 C 0.5380(3) 0.95160(17) 0.6939(5)
H56_2 H 0.521573 0.962613 0.752096
H57_2 H 0.560862 0.931982 0.713550
H58_2 H 0.567512 0.965934 0.658892
C82_2 C 0.0913(3) 0.97636(16) 0.1901(5)
H60_2 H 0.070252 0.985689 0.247568
H61_2 H 0.060899 0.962511 0.155168
H62_2 H 0.128393 0.963517 0.211024
C84_2 C 0.5286(3) 0.62873(15) 0.8716(5)
H66_2 H 0.530085 0.624774 0.939927
O19_2 O 0.0284(3) 0.92863(11) 0.0085(3)
O34_2 O 0.56900(17) 0.98785(11) 0.3872(3)
O12_2 O 0.9716(3) 0.07137(11) 0.0085(3)
C109_2 C 0.9087(3) 0.02364(16) 0.1901(5)
H85_2 H 0.929748 0.014311 0.247568
H86_2 H 0.939101 0.037489 0.155168
H87_2 H 0.871607 0.036483 0.211024
N18_2 N 0.9171(2) 0.98629(12) 0.0425(4)
N19_2 N 0.8295(2) 0.97953(12) 0.1334(4)
O20_2 O 0.6387(2) 0.97948(14) 0.5131(4)
C90_2 C 0.7960(3) 0.98310(14) 0.3097(5)
H73_2 H 0.839616 0.983243 0.330003
C91_2 C 0.8862(3) 0.99677(13) 0.1230(4)
C94_2 C 0.6267(3) 0.98314(15) 0.4242(5)
C100_2 C 0.7802(3) 0.98249(15) 0.2097(5)
C101_2 C 0.6800(3) 0.98297(14) 0.3486(4)
C103_2 C 0.6662(3) 0.98314(15) 0.2482(5)
H79_2 H 0.622673 0.983092 0.227315
C104_2 C 0.7461(3) 0.98350(16) 0.3793(5)
H80_2 H 0.756174 0.984128 0.446953
C106_2 C 0.7156(3) 0.98339(17) 0.1777(5)
H82_2 H 0.705743 0.984138 0.110044
C107_2 C 0.8248(3) 0.95774(17) 0.0551(5)
H83_2 H 0.790909 0.942923 0.043416
Zn5_5 Zn 0.000000 1.000000 0.97631(8)
O18_2 O 0.0179(2) 0.96406(9) 0.8822(3)
N17_2 N 0.0141(2) 0.83222(11) 0.6302(4)
C92_2 C 0.0445(3) 0.80556(14) 0.4978(5)
H74_2 H 0.066067 0.799471 0.439558
C93_2 C 0.0210(3) 0.91470(13) 0.7429(5)
H75_2 H 0.024912 0.936391 0.721460
C95_2 C 0.0222(3) 0.93498(14) 0.9183(4)
C96_2 C 0.0100(3) 0.84987(13) 0.8067(5)
H76_2 H 0.006736 0.828085 0.827442
C97_2 C 0.0122(3) 0.85761(13) 0.7055(4)
C98_2 C 0.0129(3) 0.87516(14) 0.8758(5)
H77_2 H 0.010540 0.870454 0.943547
C99_2 C 0.0193(3) 0.90777(13) 0.8438(5)
C102_2 C 0.0591(3) 0.83192(15) 0.5538(5)
H78_2 H 0.092769 0.846937 0.543144
C108_2 C 0.0170(3) 0.88981(14) 0.6742(5)
H84_2 H 0.017577 0.894661 0.606436
Zn5_6 Zn 1.000000 -0.000000 0.97631(8)
O8_2 O 0.9821(2) 0.03594(9) 0.8822(3)
N1_2 N 0.9859(2) 0.16778(11) 0.6302(4)
C17_2 C 0.9555(3) 0.19444(14) 0.4978(5)
H4_2 H 0.933933 0.200529 0.439558
C18_2 C 0.9790(3) 0.08530(13) 0.7429(5)
H5_2 H 0.975088 0.063609 0.721460
C20_2 C 0.9778(3) 0.06502(14) 0.9183(4)
C21_2 C 0.9900(3) 0.15013(13) 0.8067(5)
H6_2 H 0.993264 0.171915 0.827442
C24_2 C 0.9878(3) 0.14239(13) 0.7055(4)
C30_2 C 0.9871(3) 0.12484(14) 0.8758(5)
H9_2 H 0.989460 0.129546 0.943547
C31_2 C 0.9807(3) 0.09223(13) 0.8438(5)
C41_2 C 0.9409(3) 0.16808(15) 0.5538(5)
H14_2 H 0.907231 0.153063 0.543144
C75_2 C 0.9830(3) 0.11019(14) 0.6742(5)
H49_2 H 0.982423 0.105339 0.606436
loop_
_geom_bond_atom_site_label_1
_geom_bond_atom_site_label_2
_geom_bond_site_symmetry_1
_geom_bond_site_symmetry_2
O23 C119 1_555 1_555
O27 C119 1_555 1_555
N27 C127 1_555 1_555
C119 C139 1_555 1_555
C127 C146 1_555 1_555
C128 N27 1_555 1_555
C135 H99 1_555 1_555
C139 C135 1_555 1_555
C143 C128 1_555 1_555
H105 C143 1_555 1_555
C146 C135 1_555 1_555
H108 C146 1_555 1_555
C151 C127 1_555 1_555
H115 C151 1_555 1_555
C153 C139 1_555 1_555
H117 C153 1_555 1_555
C158 N27 1_555 1_555
H124 C158 1_555 1_555
C164 N30 1_555 1_555
Zn13 O23 1_555 1_555
N30 C128 1_555 1_555
C151 C153 1_555 1_555
C158 C164 1_555 1_555
H51 C77 1_555 1_555
H52 C77 1_555 1_555
H53 C77 1_555 1_555
O31 Zn1 1_555 1_555
N31 C166 1_555 1_555
N32 C166 1_555 1_555
C167 O31 1_555 1_555
C168 N32 1_555 1_555
C169 H136 1_555 1_555
C170 C167 1_555 1_555
C171 C170 1_555 1_555
H137 C171 1_555 1_555
C172 C168 1_555 1_555
H138 C172 1_555 1_555
C173 C168 1_555 1_555
H139 C173 1_555 1_555
C175 N31 1_555 1_555
H143 C175 1_555 1_555
C176 N32 1_555 1_555
H144 C176 1_555 1_555
Zn13_3 N31 1_555 1_555
C169 C170 1_555 1_555
C169 C173 1_555 1_555
C171 C172 1_555 1_555
C175 C176 1_555 1_555
Zn1_2 O4 1_555 1_555
O4 C23 1_555 1_555
N11 Zn13_2 1_555 1_555
N12 C6 1_555 1_555
C6 N11 1_555 1_555
C23 C45 1_555 1_555
C27 N12 1_555 1_555
C42 H15 1_555 1_555
C45 C42 1_555 1_555
C57 C45 1_555 1_555
H27 C57 1_555 1_555
C60 C27 1_555 1_555
H30 C60 1_555 1_555
C62 C27 1_555 1_555
H32 C62 1_555 1_555
C79 N11 1_555 1_555
H55 C79 1_555 1_555
C81 N12 1_555 1_555
H59 C81 1_555 1_555
C174 H140 1_555 1_555
H141 C174 1_555 1_555
H142 C174 1_555 1_555
C42 C62 1_555 1_555
C57 C60 1_555 1_555
C79 C81 1_555 1_555
Zn13_4 O3 1_555 1_555
O3 C12 1_555 1_555
O10 C12 1_555 1_555
N13 C29 1_555 1_555
C12 C50 1_555 1_555
C29 C59 1_555 1_555
C33 N13 1_555 1_555
C43 H16 1_555 1_555
C50 C43 1_555 1_555
C55 C33 1_555 1_555
H25 C55 1_555 1_555
C59 C43 1_555 1_555
H29 C59 1_555 1_555
C67 C29 1_555 1_555
H39 C67 1_555 1_555
C70 C50 1_555 1_555
H42 C70 1_555 1_555
C76 N13 1_555 1_555
H50 C76 1_555 1_555
C87 N16 1_555 1_555
N16 C33 1_555 1_555
C67 C70 1_555 1_555
C76 C87 1_555 1_555
Zn17 O7 1_555 1_555
O7 C19 1_555 1_555
N3 Zn5 1_555 1_555
N6 C14 1_555 1_555
N35 C2 1_555 1_555
C2 C83 1_555 1_555
C11 H2 1_555 1_555
C14 N3 1_555 1_555
C19 C37 1_555 1_555
C32 N6 1_555 1_555
C37 C47 1_555 1_555
C47 H17 1_555 1_555
C48 C11 1_555 1_555
H18 C48 1_555 1_555
C54 N3 1_555 1_555
H22 C54 1_555 1_555
C65 C32 1_555 1_555
H35 C65 1_555 1_555
C69 N6 1_555 1_555
H41 C69 1_555 1_555
C82 C14 1_555 1_555
H60 C82 1_555 1_555
H61 C82 1_555 1_555
H62 C82 1_555 1_555
C83 H63 1_555 1_555
H64 C83 1_555 1_555
H65 C83 1_555 1_555
O18 Zn5 1_555 1_555
O19 C95 1_555 1_555
C93 H75 1_555 1_555
C95 O18 1_555 1_555
C96 H76 1_555 1_555
C97 N17 1_555 1_555
C98 C96 1_555 1_555
H77 C98 1_555 1_555
C99 C93 1_555 1_555
C102 N17 1_555 1_555
H78 C102 1_555 1_555
C108 C93 1_555 1_555
H84 C108 1_555 1_555
O34 Zn17 1_555 1_555
C11 C32 1_555 1_555
C37 C48 1_555 1_555
C47 C65 1_555 1_555
C54 C69 1_555 1_555
C95 C99 1_555 1_555
C96 C97 1_555 1_555
C97 C108 1_555 1_555
C98 C99 1_555 1_555
Zn5_2 O8 1_555 1_555
O8 C20 1_555 1_555
O12 C20 1_555 1_555
C18 H5 1_555 1_555
C20 C31 1_555 1_555
C21 H6 1_555 1_555
C24 N1 1_555 1_555
C30 C21 1_555 1_555
H9 C30 1_555 1_555
C31 C18 1_555 1_555
C41 N1 1_555 1_555
H14 C41 1_555 1_555
C75 C18 1_555 1_555
H49 C75 1_555 1_555
O34 C94 1_555 1_555
N18 Zn5_2 1_555 1_555
N19 C91 1_555 1_555
N36 C89 1_555 1_555
C89 C110 1_555 1_555
C90 H73 1_555 1_555
C91 N18 1_555 1_555
C94 C101 1_555 1_555
C100 N19 1_555 1_555
C101 C103 1_555 1_555
C103 H79 1_555 1_555
C104 C90 1_555 1_555
H80 C104 1_555 1_555
C105 N18 1_555 1_555
H81 C105 1_555 1_555
C106 C100 1_555 1_555
H82 C106 1_555 1_555
C107 N19 1_555 1_555
H83 C107 1_555 1_555
C109 C91 1_555 1_555
H85 C109 1_555 1_555
H86 C109 1_555 1_555
H87 C109 1_555 1_555
C110 H88 1_555 1_555
H89 C110 1_555 1_555
H90 C110 1_555 1_555
C21 C24 1_555 1_555
C24 C75 1_555 1_555
C30 C31 1_555 1_555
C90 C100 1_555 1_555
C101 C104 1_555 1_555
C103 C106 1_555 1_555
C105 C107 1_555 1_555
Zn7 O21 1_555 1_555
Zn8 O22 1_555 1_555
O21 C120 1_555 1_555
O22 C111 1_555 1_555
O25 Zn7 1_555 1_555
N21 C114 1_555 1_555
N22 C115 1_555 1_555
O28 C120 1_555 1_555
N24 C115 1_555 1_555
O29 C118 1_555 1_555
N26 C116 1_555 1_555
N29 Zn7 1_555 1_555
C111 C125 1_555 1_555
C113 H91 1_555 1_555
C114 C113 1_555 1_555
C115 C160 1_555 1_555
C116 N25 1_555 1_555
C117 N22 1_555 1_555
C118 O25 1_555 1_555
C120 C131 1_555 1_555
C121 C118 1_555 1_555
C122 H92 1_555 1_555
C123 C117 1_555 1_555
H93 C123 1_555 1_555
C125 C126 1_555 1_555
C126 C113 1_555 1_555
H94 C126 1_555 1_555
C129 N29 1_555 1_555
H95 C129 1_555 1_555
C130 C121 1_555 1_555
H96 C130 1_555 1_555
C131 C122 1_555 1_555
C132 N21 1_555 1_555
H97 C132 1_555 1_555
C134 C125 1_555 1_555
H98 C134 1_555 1_555
C137 N26 1_555 1_555
C140 N21 1_555 1_555
C141 N22 1_555 1_555
H101 C141 1_555 1_555
C142 C121 1_555 1_555
H102 C142 1_555 1_555
C147 C122 1_555 1_555
H109 C147 1_555 1_555
C148 N25 1_555 1_555
C150 C140 1_555 1_555
H112 C150 1_555 1_555
H113 C150 1_555 1_555
H114 C150 1_555 1_555
C152 C114 1_555 1_555
H116 C152 1_555 1_555
C154 N26 1_555 1_555
H118 C154 1_555 1_555
C155 C117 1_555 1_555
H119 C155 1_555 1_555
C156 C116 1_555 1_555
H120 C156 1_555 1_555
H121 C156 1_555 1_555
H122 C156 1_555 1_555
C157 N24 1_555 1_555
C159 C137 1_555 1_555
H125 C159 1_555 1_555
C160 H126 1_555 1_555
H127 C160 1_555 1_555
H128 C160 1_555 1_555
C161 C131 1_555 1_555
H129 C161 1_555 1_555
N34 Zn7 1_555 1_555
N29 C140 1_555 1_555
C123 C130 1_555 1_555
C129 C132 1_555 1_555
C134 C152 1_555 1_555
C137 C147 1_555 1_555
C141 C157 1_555 1_555
C142 C155 1_555 1_555
C148 C154 1_555 1_555
C159 C161 1_555 1_555
N5 C3 1_555 1_555
N14 C3 1_555 1_555
C3 C85 1_555 1_555
C25 N14 1_555 1_555
C39 C44 1_555 1_555
C44 O5 1_555 1_555
C49 C39 1_555 1_555
H19 C49 1_555 1_555
C56 C25 1_555 1_555
H26 C56 1_555 1_555
C58 C39 1_555 1_555
H28 C58 1_555 1_555
C64 C25 1_555 1_555
H34 C64 1_555 1_555
C85 H67 1_555 1_555
H68 C85 1_555 1_555
H69 C85 1_555 1_555
C86 N5 1_555 1_555
H70 C86 1_555 1_555
C88 N14 1_555 1_555
H72 C88 1_555 1_555
Zn10 N5 1_555 1_555
C49 C56 1_555 1_555
C58 C64 1_555 1_555
C86 C88 1_555 1_555
N34 C112 1_555 1_555
N28 C112 1_555 1_555
C112 C162 1_555 1_555
C124 N28 1_555 1_555
C133 C136 1_555 1_555
C136 O24 1_555 1_555
C138 C133 1_555 1_555
H100 C138 1_555 1_555
C144 C124 1_555 1_555
H106 C144 1_555 1_555
C145 C133 1_555 1_555
H107 C145 1_555 1_555
C149 C124 1_555 1_555
H111 C149 1_555 1_555
C162 H130 1_555 1_555
H131 C162 1_555 1_555
H132 C162 1_555 1_555
C163 N34 1_555 1_555
H133 C163 1_555 1_555
C165 N28 1_555 1_555
H135 C165 1_555 1_555
C138 C144 1_555 1_555
C145 C149 1_555 1_555
C163 C165 1_555 1_555
Zn10 O1 1_555 1_555
Zn4 O2 1_555 1_555
O1 C13 1_555 1_555
O2 C1 1_555 1_555
O6 Zn10 1_555 1_555
N2 C5 1_555 1_555
N4 C7 1_555 1_555
O11 C13 1_555 1_555
N38 C8 1_555 1_555
O14 C10 1_555 1_555
N10 C8 1_555 1_555
N15 Zn10 1_555 1_555
C1 C26 1_555 1_555
C4 H1 1_555 1_555
C5 C4 1_555 1_555
C7 N8 1_555 1_555
C8 C73 1_555 1_555
C9 N4 1_555 1_555
C10 O6 1_555 1_555
C13 C36 1_555 1_555
C15 C10 1_555 1_555
C16 H3 1_555 1_555
C22 C9 1_555 1_555
H7 C22 1_555 1_555
C26 C28 1_555 1_555
C28 C4 1_555 1_555
H8 C28 1_555 1_555
C34 N15 1_555 1_555
H10 C34 1_555 1_555
C35 C15 1_555 1_555
H11 C35 1_555 1_555
C36 C16 1_555 1_555
C38 N2 1_555 1_555
H12 C38 1_555 1_555
C40 C26 1_555 1_555
H13 C40 1_555 1_555
C46 N10 1_555 1_555
C51 N2 1_555 1_555
C52 N4 1_555 1_555
H20 C52 1_555 1_555
C53 C15 1_555 1_555
H21 C53 1_555 1_555
C61 C16 1_555 1_555
H31 C61 1_555 1_555
C63 N38 1_555 1_555
C66 C51 1_555 1_555
H36 C66 1_555 1_555
H37 C66 1_555 1_555
H38 C66 1_555 1_555
C68 C5 1_555 1_555
H40 C68 1_555 1_555
C71 N10 1_555 1_555
H43 C71 1_555 1_555
C72 C9 1_555 1_555
H44 C72 1_555 1_555
C73 H45 1_555 1_555
H46 C73 1_555 1_555
H47 C73 1_555 1_555
C74 N8 1_555 1_555
C78 C46 1_555 1_555
H54 C78 1_555 1_555
C80 C7 1_555 1_555
H56 C80 1_555 1_555
H57 C80 1_555 1_555
H58 C80 1_555 1_555
C84 C36 1_555 1_555
H66 C84 1_555 1_555
N15 C51 1_555 1_555
C22 C35 1_555 1_555
C34 C38 1_555 1_555
C40 C68 1_555 1_555
C46 C61 1_555 1_555
C52 C74 1_555 1_555
C53 C72 1_555 1_555
C63 C71 1_555 1_555
C78 C84 1_555 1_555
H74 C92 1_555 1_555
H4 C17 1_555 1_555
Zn8_2 O22_2 1_555 1_555
O22_2 C111_2 1_555 1_555
O23_2 C119_2 1_555 1_555
O26_2 C111_2 1_555 1_555
N21_2 C114_2 1_555 1_555
N27_2 C127_2 1_555 1_555
N30_2 Zn8_2 1_555 1_555
C111_2 C125_2 1_555 1_555
C113_2 H91_2 1_555 1_555
C114_2 C113_2 1_555 1_555
C119_2 C139_2 1_555 1_555
C125_2 C126_2 1_555 1_555
C126_2 C113_2 1_555 1_555
H94_2 C126_2 1_555 1_555
C127_2 C146_2 1_555 1_555
C128_2 N27_2 1_555 1_555
C132_2 N21_2 1_555 1_555
H97_2 C132_2 1_555 1_555
C134_2 C125_2 1_555 1_555
H98_2 C134_2 1_555 1_555
C135_2 H99_2 1_555 1_555
C139_2 C135_2 1_555 1_555
C140_2 N21_2 1_555 1_555
C143_2 C128_2 1_555 1_555
H105_2 C143_2 1_555 1_555
C146_2 C135_2 1_555 1_555
H108_2 C146_2 1_555 1_555
C150_2 C140_2 1_555 1_555
H112_2 C150_2 1_555 1_555
H113_2 C150_2 1_555 1_555
H114_2 C150_2 1_555 1_555
C151_2 C127_2 1_555 1_555
H115_2 C151_2 1_555 1_555
C152_2 C114_2 1_555 1_555
H116_2 C152_2 1_555 1_555
C153_2 C139_2 1_555 1_555
H117_2 C153_2 1_555 1_555
C158_2 N27_2 1_555 1_555
H124_2 C158_2 1_555 1_555
C164_2 N30_2 1_555 1_555
H134_2 C164_2 1_555 1_555
Zn13_5 O23_2 1_555 1_555
N35_2 Zn8_2 1_555 1_555
N29_2 C140_2 1_555 1_555
N30_2 C128_2 1_555 1_555
C134_2 C152_2 1_555 1_555
C151_2 C153_2 1_555 1_555
C158_2 C164_2 1_555 1_555
N5_2 C3_2 1_555 1_555
N14_2 C3_2 1_555 1_555
O16_2 C44_2 1_555 1_555
C3_2 C85_2 1_555 1_555
C25_2 N14_2 1_555 1_555
C39_2 C44_2 1_555 1_555
C44_2 O5_2 1_555 1_555
C49_2 C39_2 1_555 1_555
H19_2 C49_2 1_555 1_555
C56_2 C25_2 1_555 1_555
H26_2 C56_2 1_555 1_555
C58_2 C39_2 1_555 1_555
H28_2 C58_2 1_555 1_555
C64_2 C25_2 1_555 1_555
H34_2 C64_2 1_555 1_555
C85_2 H67_2 1_555 1_555
H68_2 C85_2 1_555 1_555
H69_2 C85_2 1_555 1_555
C86_2 N5_2 1_555 1_555
C88_2 N14_2 1_555 1_555
H72_2 C88_2 1_555 1_555
C49_2 C56_2 1_555 1_555
C58_2 C64_2 1_555 1_555
C86_2 C88_2 1_555 1_555
N35_2 C2_2 1_555 1_555
C2_2 C83_2 1_555 1_555
H22_2 C54_2 1_555 1_555
C83_2 H63_2 1_555 1_555
H64_2 C83_2 1_555 1_555
H65_2 C83_2 1_555 1_555
N34_2 C112_2 1_555 1_555
N28_2 C112_2 1_555 1_555
O30_2 C136_2 1_555 1_555
C112_2 C162_2 1_555 1_555
C124_2 N28_2 1_555 1_555
C133_2 C136_2 1_555 1_555
C136_2 O24_2 1_555 1_555
C138_2 C133_2 1_555 1_555
H100_2 C138_2 1_555 1_555
C144_2 C124_2 1_555 1_555
H106_2 C144_2 1_555 1_555
C145_2 C133_2 1_555 1_555
H107_2 C145_2 1_555 1_555
C149_2 C124_2 1_555 1_555
H111_2 C149_2 1_555 1_555
C162_2 H130_2 1_555 1_555
H131_2 C162_2 1_555 1_555
H132_2 C162_2 1_555 1_555
C163_2 N34_2 1_555 1_555
C165_2 N28_2 1_555 1_555
H135_2 C165_2 1_555 1_555
C138_2 C144_2 1_555 1_555
C145_2 C149_2 1_555 1_555
C163_2 C165_2 1_555 1_555
Zn13_6 O3_2 1_555 1_555
Zn4_2 O2_2 1_555 1_555
O2_2 C1_2 1_555 1_555
O3_2 C12_2 1_555 1_555
O9_2 C1_2 1_555 1_555
N2_2 C5_2 1_555 1_555
N13_2 C29_2 1_555 1_555
N16_2 Zn4_2 1_555 1_555
C1_2 C26_2 1_555 1_555
C4_2 H1_2 1_555 1_555
C5_2 C4_2 1_555 1_555
C12_2 C50_2 1_555 1_555
C26_2 C28_2 1_555 1_555
C28_2 C4_2 1_555 1_555
H8_2 C28_2 1_555 1_555
C29_2 C59_2 1_555 1_555
C33_2 N13_2 1_555 1_555
C38_2 N2_2 1_555 1_555
H12_2 C38_2 1_555 1_555
C40_2 C26_2 1_555 1_555
H13_2 C40_2 1_555 1_555
C43_2 H16_2 1_555 1_555
C50_2 C43_2 1_555 1_555
C51_2 N2_2 1_555 1_555
C55_2 C33_2 1_555 1_555
H25_2 C55_2 1_555 1_555
C59_2 C43_2 1_555 1_555
H29_2 C59_2 1_555 1_555
C66_2 C51_2 1_555 1_555
H36_2 C66_2 1_555 1_555
H37_2 C66_2 1_555 1_555
H38_2 C66_2 1_555 1_555
C67_2 C29_2 1_555 1_555
H39_2 C67_2 1_555 1_555
C68_2 C5_2 1_555 1_555
H40_2 C68_2 1_555 1_555
C70_2 C50_2 1_555 1_555
H42_2 C70_2 1_555 1_555
C76_2 N13_2 1_555 1_555
H50_2 C76_2 1_555 1_555
C87_2 N16_2 1_555 1_555
H71_2 C87_2 1_555 1_555
N36_2 Zn4_2 1_555 1_555
N15_2 C51_2 1_555 1_555
N16_2 C33_2 1_555 1_555
C40_2 C68_2 1_555 1_555
C67_2 C70_2 1_555 1_555
C76_2 C87_2 1_555 1_555
N36_2 C89_2 1_555 1_555
C89_2 C110_2 1_555 1_555
H81_2 C105_2 1_555 1_555
C110_2 H88_2 1_555 1_555
H89_2 C110_2 1_555 1_555
H90_2 C110_2 1_555 1_555
Zn1_3 O4_2 1_555 1_555
O4_2 C23_2 1_555 1_555
O13_2 C23_2 1_555 1_555
N12_2 C6_2 1_555 1_555
C6_2 N11_2 1_555 1_555
C23_2 C45_2 1_555 1_555
C27_2 N12_2 1_555 1_555
C42_2 H15_2 1_555 1_555
C45_2 C42_2 1_555 1_555
C57_2 C45_2 1_555 1_555
H27_2 C57_2 1_555 1_555
C60_2 C27_2 1_555 1_555
H30_2 C60_2 1_555 1_555
C62_2 C27_2 1_555 1_555
H32_2 C62_2 1_555 1_555
C77_2 C6_2 1_555 1_555
H51_2 C77_2 1_555 1_555
H52_2 C77_2 1_555 1_555
H53_2 C77_2 1_555 1_555
C79_2 N11_2 1_555 1_555
C81_2 N12_2 1_555 1_555
H59_2 C81_2 1_555 1_555
Zn7_2 O21_2 1_555 1_555
O21_2 C120_2 1_555 1_555
O25_2 Zn7_2 1_555 1_555
N22_2 C115_2 1_555 1_555
O28_2 C120_2 1_555 1_555
N24_2 C115_2 1_555 1_555
N25_2 Zn1_3 1_555 1_555
N26_2 C116_2 1_555 1_555
C115_2 C160_2 1_555 1_555
C116_2 N25_2 1_555 1_555
C117_2 N22_2 1_555 1_555
C118_2 O25_2 1_555 1_555
C120_2 C131_2 1_555 1_555
C121_2 C118_2 1_555 1_555
C122_2 H92_2 1_555 1_555
C123_2 C117_2 1_555 1_555
H93_2 C123_2 1_555 1_555
H95_2 C129_2 1_555 1_555
C130_2 C121_2 1_555 1_555
H96_2 C130_2 1_555 1_555
C131_2 C122_2 1_555 1_555
C137_2 N26_2 1_555 1_555
C141_2 N22_2 1_555 1_555
H101_2 C141_2 1_555 1_555
C142_2 C121_2 1_555 1_555
H102_2 C142_2 1_555 1_555
C147_2 C122_2 1_555 1_555
H109_2 C147_2 1_555 1_555
C148_2 N25_2 1_555 1_555
H110_2 C148_2 1_555 1_555
C154_2 N26_2 1_555 1_555
H118_2 C154_2 1_555 1_555
C155_2 C117_2 1_555 1_555
H119_2 C155_2 1_555 1_555
C156_2 C116_2 1_555 1_555
H120_2 C156_2 1_555 1_555
H121_2 C156_2 1_555 1_555
H122_2 C156_2 1_555 1_555
C157_2 N24_2 1_555 1_555
H123_2 C157_2 1_555 1_555
C159_2 C137_2 1_555 1_555
H125_2 C159_2 1_555 1_555
C160_2 H126_2 1_555 1_555
H127_2 C160_2 1_555 1_555
H128_2 C160_2 1_555 1_555
C161_2 C131_2 1_555 1_555
H129_2 C161_2 1_555 1_555
O31_2 Zn1_3 1_555 1_555
O32_2 C167_2 1_555 1_555
N31_2 C166_2 1_555 1_555
N32_2 C166_2 1_555 1_555
C166_2 C174_2 1_555 1_555
C167_2 O31_2 1_555 1_555
C168_2 N32_2 1_555 1_555
C169_2 H136_2 1_555 1_555
C170_2 C167_2 1_555 1_555
C171_2 C170_2 1_555 1_555
H137_2 C171_2 1_555 1_555
C172_2 C168_2 1_555 1_555
H138_2 C172_2 1_555 1_555
C173_2 C168_2 1_555 1_555
H139_2 C173_2 1_555 1_555
C174_2 H140_2 1_555 1_555
H141_2 C174_2 1_555 1_555
H142_2 C174_2 1_555 1_555
C175_2 N31_2 1_555 1_555
C176_2 N32_2 1_555 1_555
H144_2 C176_2 1_555 1_555
Zn17_2 N24_2 1_555 1_555
N38_2 Zn1_3 1_555 1_555
C42_2 C62_2 1_555 1_555
C57_2 C60_2 1_555 1_555
C79_2 C81_2 1_555 1_555
C123_2 C130_2 1_555 1_555
C137_2 C147_2 1_555 1_555
C141_2 C157_2 1_555 1_555
C142_2 C155_2 1_555 1_555
C148_2 C154_2 1_555 1_555
C159_2 C161_2 1_555 1_555
C169_2 C170_2 1_555 1_555
C169_2 C173_2 1_555 1_555
C171_2 C172_2 1_555 1_555
C175_2 C176_2 1_555 1_555
Zn17_2 O7_2 1_555 1_555
O7_2 C19_2 1_555 1_555
N6_2 C14_2 1_555 1_555
O15_2 C19_2 1_555 1_555
C11_2 H2_2 1_555 1_555
C14_2 N3_2 1_555 1_555
C19_2 C37_2 1_555 1_555
C32_2 N6_2 1_555 1_555
C37_2 C47_2 1_555 1_555
C47_2 H17_2 1_555 1_555
C48_2 C11_2 1_555 1_555
H18_2 C48_2 1_555 1_555
C65_2 C32_2 1_555 1_555
H35_2 C65_2 1_555 1_555
C69_2 N6_2 1_555 1_555
H41_2 C69_2 1_555 1_555
C11_2 C32_2 1_555 1_555
C37_2 C48_2 1_555 1_555
C47_2 C65_2 1_555 1_555
Zn10_2 O1_2 1_555 1_555
O1_2 C13_2 1_555 1_555
O6_2 Zn10_2 1_555 1_555
N4_2 C7_2 1_555 1_555
O11_2 C13_2 1_555 1_555
N8_2 Zn17_3 1_555 1_555
N38_2 C8_2 1_555 1_555
N10_2 C8_2 1_555 1_555
C7_2 N8_2 1_555 1_555
C8_2 C73_2 1_555 1_555
C9_2 N4_2 1_555 1_555
C10_2 O6_2 1_555 1_555
C13_2 C36_2 1_555 1_555
C15_2 C10_2 1_555 1_555
C16_2 H3_2 1_555 1_555
C22_2 C9_2 1_555 1_555
H7_2 C22_2 1_555 1_555
H10_2 C34_2 1_555 1_555
C35_2 C15_2 1_555 1_555
H11_2 C35_2 1_555 1_555
C36_2 C16_2 1_555 1_555
C46_2 N10_2 1_555 1_555
C52_2 N4_2 1_555 1_555
H20_2 C52_2 1_555 1_555
C53_2 C15_2 1_555 1_555
H21_2 C53_2 1_555 1_555
C61_2 C16_2 1_555 1_555
H31_2 C61_2 1_555 1_555
C63_2 N38_2 1_555 1_555
H33_2 C63_2 1_555 1_555
C71_2 N10_2 1_555 1_555
H43_2 C71_2 1_555 1_555
C72_2 C9_2 1_555 1_555
H44_2 C72_2 1_555 1_555
C73_2 H45_2 1_555 1_555
H46_2 C73_2 1_555 1_555
H47_2 C73_2 1_555 1_555
C74_2 N8_2 1_555 1_555
H48_2 C74_2 1_555 1_555
C78_2 C46_2 1_555 1_555
H54_2 C78_2 1_555 1_555
C80_2 C7_2 1_555 1_555
H56_2 C80_2 1_555 1_555
H57_2 C80_2 1_555 1_555
H58_2 C80_2 1_555 1_555
H60_2 C82_2 1_555 1_555
H61_2 C82_2 1_555 1_555
H62_2 C82_2 1_555 1_555
C84_2 C36_2 1_555 1_555
H66_2 C84_2 1_555 1_555
O34_2 Zn17_3 1_555 1_555
C22_2 C35_2 1_555 1_555
C46_2 C61_2 1_555 1_555
C52_2 C74_2 1_555 1_555
C53_2 C72_2 1_555 1_555
C63_2 C71_2 1_555 1_555
C78_2 C84_2 1_555 1_555
H85_2 C109_2 1_555 1_555
H86_2 C109_2 1_555 1_555
H87_2 C109_2 1_555 1_555
O34_2 C94_2 1_555 1_555
N19_2 C91_2 1_555 1_555
O20_2 C94_2 1_555 1_555
C90_2 H73_2 1_555 1_555
C91_2 N18_2 1_555 1_555
C94_2 C101_2 1_555 1_555
C100_2 N19_2 1_555 1_555
C101_2 C103_2 1_555 1_555
C103_2 H79_2 1_555 1_555
C104_2 C90_2 1_555 1_555
H80_2 C104_2 1_555 1_555
C106_2 C100_2 1_555 1_555
H82_2 C106_2 1_555 1_555
C107_2 N19_2 1_555 1_555
H83_2 C107_2 1_555 1_555
C90_2 C100_2 1_555 1_555
C101_2 C104_2 1_555 1_555
C103_2 C106_2 1_555 1_555
O18_2 Zn5_5 1_555 1_555
H74_2 C92_2 1_555 1_555
C93_2 H75_2 1_555 1_555
C95_2 O18_2 1_555 1_555
C96_2 H76_2 1_555 1_555
C97_2 N17_2 1_555 1_555
C98_2 C96_2 1_555 1_555
H77_2 C98_2 1_555 1_555
C99_2 C93_2 1_555 1_555
C102_2 N17_2 1_555 1_555
H78_2 C102_2 1_555 1_555
C108_2 C93_2 1_555 1_555
H84_2 C108_2 1_555 1_555
C92_2 C102_2 1_555 1_555
C95_2 C99_2 1_555 1_555
C96_2 C97_2 1_555 1_555
C97_2 C108_2 1_555 1_555
C98_2 C99_2 1_555 1_555
Zn5_6 O8_2 1_555 1_555
O8_2 C20_2 1_555 1_555
H4_2 C17_2 1_555 1_555
C18_2 H5_2 1_555 1_555
C20_2 C31_2 1_555 1_555
C21_2 H6_2 1_555 1_555
C24_2 N1_2 1_555 1_555
C30_2 C21_2 1_555 1_555
H9_2 C30_2 1_555 1_555
C31_2 C18_2 1_555 1_555
C41_2 N1_2 1_555 1_555
H14_2 C41_2 1_555 1_555
C75_2 C18_2 1_555 1_555
H49_2 C75_2 1_555 1_555
C17_2 C41_2 1_555 1_555
C21_2 C24_2 1_555 1_555
C24_2 C75_2 1_555 1_555
C30_2 C31_2 1_555 1_555

#END
