
###############################################################################
#
# This file contains modified crystal structure data generated from the
# MOF subset of the Cambridge Structural Database (CSD) v543 
# hosted by the Cambridge Crystallographic Data Centre (CCDC).
#
# This work is licensed under the Creative Commons
# Attribution-NonCommercial-ShareAlike 4.0 International License.
# To view a copy of this license, visit
# http://creativecommons.org/licenses/by-nc-sa/4.0/
# or send a letter to
# Creative Commons, PO Box 1866, Mountain View, CA 94042, USA.
#
# CIF created using the CSD Python API on 29 September 2022
# The structure has been converted into the P1 space group
# The structure has a 3D framework
# The original CSD entry ECAHIB15 is in the rhombohedral crystal system
# The framework has been calculated to contain at least 10.0% void space
# The void calculation uses a probe of radius 1.32A, grid spacing 0.4
#
###############################################################################

data_ECAHIB15
_chemical_formula_moiety         '(C162 H144 Cu16 N18 O36)n'
_symmetry_cell_setting           triclinic
_symmetry_space_group_name_H-M   'P 1'
_symmetry_Int_Tables_number      1
_space_group_name_Hall           'P 1'
loop_
_symmetry_equiv_pos_site_id
_symmetry_equiv_pos_as_xyz
1 x,y,z
_cell_length_a                   25.2568(11)
_cell_length_b                   25.2568(11)
_cell_length_c                   7.7047(4)
_cell_angle_alpha                90
_cell_angle_beta                 90
_cell_angle_gamma                120
_cell_volume                     4256.41
loop_
_atom_site_label
_atom_site_type_symbol
_atom_site_fract_x
_atom_site_fract_y
_atom_site_fract_z
C13 C 0.0394(5) 0.7591(7) 0.1833(13)
N2 N 0.0979(4) 0.8003(5) 0.1536(12)
H10 H 0.0280 0.7436 0.2978
Cu2 Cu 0.1666 0.8333 0.3333
Cu3 Cu 0.4999 0.5000 1.0000
Cu1 Cu 0.1666 0.3334 0.3334
O1 O 0.0903(4) 0.3005(4) 0.1995(12)
C1 C 0.0391(4) 0.2550(5) 0.2416(12)
C7 C 0.0262(4) 0.2199(6) 0.3886(15)
C8 C 0.0678(4) 0.2171(7) 0.5038(18)
O2 O 0.1247(4) 0.2505(5) 0.4955(13)
C9 C 0.0427(6) 0.1690(8) 0.645(2)
H6 H 0.0765 0.1717 0.7138
H7 H 0.0153 0.1758 0.7193
H8 H 0.0200 0.1283 0.5917
O3 O 0.2430(4) 0.3662(4) 0.4672(12)
C10 C 0.2942(4) 0.4117(5) 0.4251(12)
C11 C 0.3433(4) 0.4294(5) 0.5583(11)
C12 C 0.3287(4) 0.4054(6) 0.7234(13)
C13_2 C 0.3727(5) 0.4258(7) 0.8500(13)
N2_2 N 0.4312(4) 0.4670(5) 0.8203(12)
C14 C 0.4451(4) 0.4877(6) 0.6575(13)
C15 C 0.4034(4) 0.4717(5) 0.5262(13)
C16 C 0.3071(4) 0.4468(6) 0.2781(15)
C17 C 0.2655(4) 0.4496(7) 0.1629(18)
O4 O 0.2086(4) 0.4162(5) 0.1712(13)
C18 C 0.2906(6) 0.4977(8) 0.022(2)
H9 H 0.2882 0.3743 0.7505
H10_2 H 0.3613 0.4103 0.9645
H11 H 0.4870 0.5139 0.6305
H12 H 0.4161 0.4886 0.4134
H13 H 0.3492 0.4718 0.2502
H16 H 0.3133 0.5384 0.0750
N3 N 0.1337(5) 0.3691(6) 0.5130(12)
N4 N 0.1997(5) 0.2975(6) 0.1536(12)
Cu1_2 Cu 0.5000 1.0000 1.0000
O1_2 O 0.4237(4) 0.9671(4) 0.8661(12)
C1_2 C 0.3725(4) 0.9216(5) 0.9082(12)
C2 C 0.3234(4) 0.9039(5) 0.7750(11)
C3 C 0.3380(4) 0.9279(6) 0.6099(13)
C4 C 0.2940(5) 0.9075(7) 0.4833(13)
N1 N 0.2355(4) 0.8663(5) 0.5130(12)
C5 C 0.2216(4) 0.8456(6) 0.6758(13)
C6 C 0.2633(4) 0.8616(5) 0.8071(13)
H1 H 0.3785 0.9590 0.5828
H2 H 0.3054 0.9230 0.3688
H3 H 0.1797 0.8194 0.7028
H4 H 0.2506 0.8447 0.9199
N4_2 N 0.5330(5) 0.9642(6) 0.8203(12)
H6_2 H 0.4950 0.2382 0.0471
H7_2 H 0.4909 0.1729 0.0526
C12_2 C 0.2613(6) 0.2566(7) 0.0567(13)
C13_3 C 0.2409(7) 0.2802(9) 0.1833(13)
H9_2 H 0.2924 0.2472 0.0838
H10_3 H 0.2564 0.2843 0.2978
Cu1_3 Cu 0.6666 0.8333 0.3334
O1_3 O 0.6995(4) 0.7899(6) 0.1995(12)
C1_3 C 0.7450(5) 0.7842(6) 0.2416(12)
C2_2 C 0.7627(5) 0.7528(6) 0.1084(11)
C5_2 C 0.8210(6) 0.7093(7) 0.0092(13)
C6_2 C 0.8050(5) 0.7350(6) 0.1405(13)
C7_2 C 0.7801(6) 0.8064(7) 0.3886(15)
C8_2 C 0.7829(7) 0.8508(8) 0.5038(18)
O2_2 O 0.7495(5) 0.8743(6) 0.4955(13)
C9_2 C 0.8310(8) 0.8738(10) 0.645(2)
H3_2 H 0.8472 0.6936 0.0362
H4_2 H 0.8219 0.7392 0.2533
H5 H 0.8051 0.7893 0.4165
H6_3 H 0.8283 0.9049 0.7138
H7_3 H 0.8242 0.8396 0.7193
H8_2 H 0.8717 0.8918 0.5917
O3_2 O 0.6338(4) 0.8768(6) 0.4672(12)
C10_2 C 0.5883(5) 0.8825(6) 0.4251(12)
C11_2 C 0.5706(5) 0.9139(6) 0.5583(11)
C12_3 C 0.5946(6) 0.9233(7) 0.7234(13)
C13_4 C 0.5742(7) 0.9469(9) 0.8500(13)
C14_2 C 0.5123(6) 0.9574(7) 0.6575(13)
C15_2 C 0.5283(5) 0.9317(6) 0.5262(13)
C16_2 C 0.5532(6) 0.8603(7) 0.2781(15)
C17_2 C 0.5504(7) 0.8159(8) 0.1629(18)
O4_2 O 0.5838(5) 0.7924(6) 0.1712(13)
C18_2 C 0.5023(8) 0.7929(10) 0.022(2)
H9_3 H 0.6257 0.9139 0.7505
H10_4 H 0.5897 0.9510 0.9645
H11_2 H 0.4861 0.9731 0.6305
H12_2 H 0.5114 0.9275 0.4134
H13_2 H 0.5282 0.8774 0.2502
H16_2 H 0.4616 0.7749 0.0750
N3_2 N 0.6309(6) 0.7645(8) 0.5130(12)
N4_3 N 0.7025(6) 0.9021(8) 0.1536(12)
Cu1_4 Cu -0.0000 0.4999 1.0000
O1_4 O 0.0329(4) 0.4565(6) 0.8661(12)
C1_4 C 0.0784(5) 0.4508(6) 0.9082(12)
C2_3 C 0.0961(5) 0.4194(6) 0.7750(11)
C3_2 C 0.0721(6) 0.4100(7) 0.6099(13)
C4_2 C 0.0925(7) 0.3864(9) 0.4833(13)
C5_3 C 0.1544(6) 0.3759(7) 0.6758(13)
C6_3 C 0.1384(5) 0.4016(6) 0.8071(13)
H1_2 H 0.0410 0.4194 0.5828
H2_2 H 0.0770 0.3823 0.3688
H3_3 H 0.1806 0.3602 0.7028
H4_3 H 0.1553 0.4058 0.9199
N4_4 N 0.0358(6) 0.5688(8) 0.8203(12)
C13_5 C 0.7198(9) 0.9606(5) 0.1833(13)
H10_5 H 0.7157 0.9720 0.2978
O1_5 O 0.2101(6) 0.9097(4) 0.1995(12)
C1_5 C 0.2158(6) 0.9609(4) 0.2416(12)
C7_3 C 0.1936(7) 0.9738(4) 0.3886(15)
C8_3 C 0.1492(8) 0.9322(4) 0.5038(18)
O2_3 O 0.1257(6) 0.8753(4) 0.4955(13)
C9_3 C 0.1262(10) 0.9573(6) 0.645(2)
H6_4 H 0.0951 0.9235 0.7138
H7_4 H 0.1604 0.9847 0.7193
H8_3 H 0.1082 0.9800 0.5917
O3_3 O 0.1232(6) 0.7570(4) 0.4672(12)
C10_3 C 0.1175(6) 0.7058(4) 0.4251(12)
C11_3 C 0.0861(6) 0.6567(4) 0.5583(11)
C12_4 C 0.0767(7) 0.6713(4) 0.7234(13)
C13_6 C 0.0531(9) 0.6273(5) 0.8500(13)
C14_3 C 0.0426(7) 0.5549(4) 0.6575(13)
C15_3 C 0.0683(6) 0.5966(4) 0.5262(13)
C16_3 C 0.1397(7) 0.6929(4) 0.2781(15)
C17_3 C 0.1841(8) 0.7345(4) 0.1629(18)
O4_3 O 0.2076(6) 0.7914(4) 0.1712(13)
C18_3 C 0.2071(10) 0.7094(6) 0.022(2)
H9_4 H 0.0861 0.7118 0.7505
H10_6 H 0.0490 0.6387 0.9645
H11_3 H 0.0269 0.5130 0.6305
H12_3 H 0.0725 0.5839 0.4134
H13_3 H 0.1226 0.6508 0.2502
H16_3 H 0.2251 0.6867 0.0750
O1_6 O 0.5435(6) 0.5763(4) 0.8661(12)
C1_6 C 0.5492(6) 0.6275(4) 0.9082(12)
C2_4 C 0.5806(6) 0.6766(4) 0.7750(11)
C3_3 C 0.5900(7) 0.6620(4) 0.6099(13)
C4_3 C 0.6136(9) 0.7060(5) 0.4833(13)
C5_4 C 0.6241(7) 0.7784(4) 0.6758(13)
C6_4 C 0.5984(6) 0.7367(4) 0.8071(13)
H1_3 H 0.5806 0.6215 0.5828
H2_3 H 0.6177 0.6946 0.3688
H3_4 H 0.6398 0.8203 0.7028
H4_4 H 0.5942 0.7494 0.9199
C16_4 C 0.4730(7) 0.3596(4) 0.9448(15)
C17_4 C 0.5174(8) 0.4012(4) 0.8296(18)
O4_4 O 0.5409(6) 0.4581(4) 0.8379(13)
C18_4 C 0.5404(10) 0.3761(6) 0.689(2)
H13_4 H 0.4559 0.3175 0.9169
H14 H 0.5715 0.4099 0.6196
H15 H 0.5062 0.3487 0.6141
H16_4 H 0.5584 0.3534 0.7417
C11_4 C 0.0100(4) 0.7627(5) 0.8916(11)
C14_4 C 0.1118(4) 0.8210(6) 0.9908(13)
C15_4 C 0.0701(4) 0.8050(5) 0.8595(13)
H11_4 H 0.1537 0.8472 0.9638
H12_4 H 0.0828 0.8219 0.7467
H13_5 H 0.0159 0.8051 0.5835
H6_5 H 0.7432 0.5050 0.0471
H7_5 H 0.6820 0.5091 0.0526
C12_5 C 0.9954(4) 0.7387(6) 0.0567(13)
H9_5 H 0.9549 0.7076 0.0838
Cu1_5 Cu 0.8333 0.6667 0.6667
O1_7 O 0.7570(4) 0.6338(4) 0.5328(12)
C1_7 C 0.7058(4) 0.5883(5) 0.5749(12)
C2_5 C 0.6567(4) 0.5706(5) 0.4417(11)
C3_4 C 0.6713(4) 0.5946(6) 0.2766(13)
C4_4 C 0.6273(5) 0.5742(7) 0.1500(13)
N1_2 N 0.5688(4) 0.5330(5) 0.1797(12)
C5_5 C 0.5549(4) 0.5123(6) 0.3425(13)
C6_5 C 0.5966(4) 0.5283(5) 0.4738(13)
C7_4 C 0.6929(4) 0.5532(6) 0.7219(15)
C8_4 C 0.7345(4) 0.5504(7) 0.8371(18)
O2_4 O 0.7914(4) 0.5838(5) 0.8288(13)
C9_4 C 0.7094(6) 0.5023(8) 0.978(2)
H1_4 H 0.7118 0.6257 0.2495
H2_4 H 0.6387 0.5897 0.0355
H3_5 H 0.5130 0.4861 0.3695
H4_5 H 0.5839 0.5114 0.5866
H5_2 H 0.6508 0.5282 0.7498
H8_4 H 0.6867 0.4616 0.9250
O3_4 O 0.9097(4) 0.6995(4) 0.8005(12)
C10_4 C 0.9609(4) 0.7450(5) 0.7584(12)
C16_5 C 0.9738(4) 0.7801(6) 0.6114(15)
C17_5 C 0.9322(4) 0.7829(7) 0.4962(18)
O4_5 O 0.8753(4) 0.7495(5) 0.5045(13)
C18_5 C 0.9573(6) 0.8310(8) 0.355(2)
H14_2 H 0.9235 0.8283 0.2862
H15_2 H 0.9847 0.8242 0.2807
H16_5 H 0.9800 0.8717 0.4083
Cu3_2 Cu 0.4999 0.5000 -0.0000
N3_3 N 0.8003(5) 0.7025(6) 0.8464(12)
N4_5 N 0.8663(5) 0.6309(6) 0.4870(12)
C4_5 C 0.9606(5) 0.2409(7) 0.8167(13)
N1_3 N 0.9021(4) 0.1997(5) 0.8464(12)
H2_5 H 0.9720 0.2564 0.7022
Cu3_3 Cu 0.8333 0.1666 0.6666
Cu1_6 Cu 0.5000 0.0000 0.0000
O3_5 O 0.5763(4) 0.0329(4) 0.1339(12)
C10_5 C 0.6275(4) 0.0784(5) 0.0918(12)
C11_5 C 0.6766(4) 0.0961(5) 0.2250(11)
C12_6 C 0.6620(4) 0.0721(6) 0.3901(13)
C13_7 C 0.7060(5) 0.0925(7) 0.5167(13)
N2_3 N 0.7645(4) 0.1337(5) 0.4870(12)
C14_5 C 0.7784(4) 0.1544(6) 0.3242(13)
C15_5 C 0.7367(4) 0.1384(5) 0.1929(13)
H9_6 H 0.6215 0.0410 0.4172
H10_7 H 0.6946 0.0770 0.6312
H11_5 H 0.8203 0.1806 0.2972
H12_5 H 0.7494 0.1553 0.0801
N3_4 N 0.4670(5) 0.0358(6) 0.1797(12)
Cu1_7 Cu 0.3333 0.1666 0.6667
O1_8 O 0.3662(4) 0.1232(6) 0.5328(12)
C1_8 C 0.4117(5) 0.1175(6) 0.5749(12)
C2_6 C 0.4294(5) 0.0861(6) 0.4417(11)
C3_5 C 0.4054(6) 0.0767(7) 0.2766(13)
C4_6 C 0.4258(7) 0.0531(9) 0.1500(13)
C5_6 C 0.4877(6) 0.0426(7) 0.3425(13)
C6_6 C 0.4717(5) 0.0683(6) 0.4738(13)
C7_5 C 0.4468(6) 0.1397(7) 0.7219(15)
C8_5 C 0.4496(7) 0.1841(8) 0.8371(18)
O2_5 O 0.4162(5) 0.2076(6) 0.8288(13)
C9_5 C 0.4977(8) 0.2071(10) 0.978(2)
H1_5 H 0.3743 0.0861 0.2495
H2_6 H 0.4103 0.0490 0.0355
H3_6 H 0.5139 0.0269 0.3695
H4_6 H 0.4886 0.0725 0.5866
H5_3 H 0.4718 0.1226 0.7498
H8_5 H 0.5384 0.2251 0.9250
O3_6 O 0.3005(4) 0.2101(6) 0.8005(12)
C10_6 C 0.2550(5) 0.2158(6) 0.7584(12)
C11_6 C 0.2373(5) 0.2472(6) 0.8916(11)
C14_6 C 0.1790(6) 0.2907(7) 0.9908(13)
C15_6 C 0.1950(5) 0.2650(6) 0.8595(13)
C16_6 C 0.2199(6) 0.1936(7) 0.6114(15)
C17_6 C 0.2171(7) 0.1492(8) 0.4962(18)
O4_6 O 0.2505(5) 0.1257(6) 0.5045(13)
C18_6 C 0.1690(8) 0.1262(10) 0.355(2)
H11_6 H 0.1528 0.3064 0.9638
H12_6 H 0.1781 0.2608 0.7467
H13_6 H 0.1949 0.2107 0.5835
H14_3 H 0.1717 0.0951 0.2862
H15_3 H 0.1758 0.1604 0.2807
H16_6 H 0.1283 0.1082 0.4083
N3_5 N 0.2975(6) 0.0979(8) 0.8464(12)
N4_6 N 0.3691(6) 0.2355(8) 0.4870(12)
C3_6 C 0.7387(6) 0.7434(7) 0.9433(13)
C4_7 C 0.7591(7) 0.7198(9) 0.8167(13)
H1_6 H 0.7076 0.7528 0.9162
H2_7 H 0.7436 0.7157 0.7022
H14_4 H 0.5050 0.7618 0.9529
H15_4 H 0.5091 0.8271 0.9474
Cu1_8 Cu 1.0000 0.4999 0.0000
O3_7 O 0.9671(4) 0.5435(6) 0.1339(12)
C10_7 C 0.9216(5) 0.5492(6) 0.0918(12)
C11_7 C 0.9039(5) 0.5806(6) 0.2250(11)
C12_7 C 0.9279(6) 0.5900(7) 0.3901(13)
C13_8 C 0.9075(7) 0.6136(9) 0.5167(13)
C14_7 C 0.8456(6) 0.6241(7) 0.3242(13)
C15_7 C 0.8616(5) 0.5984(6) 0.1929(13)
H9_7 H 0.9590 0.5806 0.4172
H10_8 H 0.9230 0.6177 0.6312
H11_7 H 0.8194 0.6398 0.2972
H12_7 H 0.8447 0.5942 0.0801
N3_6 N 0.9642(6) 0.4312(8) 0.1797(12)
O1_9 O 0.8768(6) 0.2430(4) 0.5328(12)
C1_9 C 0.8825(6) 0.2942(4) 0.5749(12)
C2_7 C 0.9139(6) 0.3433(4) 0.4417(11)
C3_7 C 0.9233(7) 0.3287(4) 0.2766(13)
C4_8 C 0.9469(9) 0.3727(5) 0.1500(13)
C5_7 C 0.9574(7) 0.4451(4) 0.3425(13)
C6_7 C 0.9317(6) 0.4034(4) 0.4738(13)
C7_6 C 0.8603(7) 0.3071(4) 0.7219(15)
C8_6 C 0.8159(8) 0.2655(4) 0.8371(18)
O2_6 O 0.7924(6) 0.2086(4) 0.8288(13)
C9_6 C 0.7929(10) 0.2906(6) 0.978(2)
H1_7 H 0.9139 0.2882 0.2495
H2_8 H 0.9510 0.3613 0.0355
H3_7 H 0.9731 0.4870 0.3695
H4_7 H 0.9275 0.4161 0.5866
H5_4 H 0.8774 0.3492 0.7498
H8_6 H 0.7749 0.3133 0.9250
O3_8 O 0.7899(6) 0.0903(4) 0.8005(12)
C10_8 C 0.7842(6) 0.0391(4) 0.7584(12)
C16_7 C 0.8064(7) 0.0262(4) 0.6114(15)
C17_7 C 0.8508(8) 0.0678(4) 0.4962(18)
O4_7 O 0.8743(6) 0.1247(4) 0.5045(13)
C18_7 C 0.8738(10) 0.0427(6) 0.355(2)
H14_5 H 0.9049 0.0765 0.2862
H15_5 H 0.8396 0.0153 0.2807
H16_7 H 0.8918 0.0200 0.4083
C4_9 C 0.2802(9) 0.0394(5) 0.8167(13)
H2_9 H 0.2843 0.0280 0.7022
C7_7 C 0.5270(7) 0.6404(4) 0.0552(15)
C8_7 C 0.4826(8) 0.5988(4) 0.1704(18)
O2_7 O 0.4591(6) 0.5419(4) 0.1621(13)
C9_7 C 0.4596(10) 0.6239(6) 0.311(2)
H5_5 H 0.5441 0.6825 0.0831
H6_6 H 0.4285 0.5901 0.3804
H7_6 H 0.4938 0.6513 0.3859
H8_7 H 0.4416 0.6466 0.2583
O3_9 O 0.4565(6) 0.4237(4) 0.1339(12)
C10_9 C 0.4508(6) 0.3725(4) 0.0918(12)
C11_8 C 0.4194(6) 0.3234(4) 0.2250(11)
C12_8 C 0.4100(7) 0.3380(4) 0.3901(13)
C13_9 C 0.3864(9) 0.2940(5) 0.5167(13)
C14_8 C 0.3759(7) 0.2216(4) 0.3242(13)
C15_8 C 0.4016(6) 0.2633(4) 0.1929(13)
H9_8 H 0.4194 0.3785 0.4172
H10_9 H 0.3823 0.3054 0.6312
H11_8 H 0.3602 0.1797 0.2972
H12_8 H 0.4058 0.2506 0.0801
C3_8 C 0.0046(4) 0.2613(6) 0.9433(13)
H1_8 H 0.0451 0.2924 0.9162
H14_6 H 0.2568 0.4950 0.9529
H15_6 H 0.3180 0.4909 0.9474
C2_8 C 0.9900(4) 0.2373(5) 0.1084(11)
C5_8 C 0.8882(4) 0.1790(6) 0.0092(13)
C6_8 C 0.9299(4) 0.1950(5) 0.1405(13)
H3_8 H 0.8463 0.1528 0.0362
H4_8 H 0.9172 0.1781 0.2533
H5_6 H 0.9841 0.1949 0.4165
Cu1_9 Cu 0.5000 0.0000 1.0000
C16_8 C 0.6404(4) 0.1135(6) 0.9448(15)
C17_8 C 0.5988(4) 0.1163(7) 0.8296(18)
O4_8 O 0.5419(4) 0.0829(5) 0.8379(13)
C18_8 C 0.6239(6) 0.1644(8) 0.689(2)
H13_7 H 0.6825 0.1385 0.9169
H14_7 H 0.5901 0.1617 0.6196
H15_7 H 0.6513 0.1576 0.6141
H16_8 H 0.6466 0.2051 0.7417
Cu1_10 Cu 0.5000 1.0000 0.0000
C7_8 C 0.3596(4) 0.8865(6) 0.0552(15)
C8_8 C 0.4012(4) 0.8837(7) 0.1704(18)
O2_8 O 0.4581(4) 0.9171(5) 0.1621(13)
C9_8 C 0.3761(6) 0.8356(8) 0.311(2)
H5_7 H 0.3175 0.8615 0.0831
H6_7 H 0.4099 0.8383 0.3804
H7_7 H 0.3487 0.8424 0.3859
H8_8 H 0.3534 0.7949 0.2583
Cu1_11 Cu -0.0000 0.4999 0.0000
C7_9 C 0.1135(6) 0.4730(7) 0.0552(15)
C8_9 C 0.1163(7) 0.5174(8) 0.1704(18)
O2_9 O 0.0829(5) 0.5409(6) 0.1621(13)
C9_9 C 0.1644(8) 0.5404(10) 0.311(2)
H5_8 H 0.1385 0.4559 0.0831
H6_8 H 0.1617 0.5715 0.3804
H7_8 H 0.1576 0.5062 0.3859
H8_9 H 0.2051 0.5584 0.2583
Cu1_12 Cu 1.0000 0.4999 1.0000
C16_9 C 0.8865(6) 0.5270(7) 0.9448(15)
C17_9 C 0.8837(7) 0.4826(8) 0.8296(18)
O4_9 O 0.9171(5) 0.4591(6) 0.8379(13)
C18_9 C 0.8356(8) 0.4596(10) 0.689(2)
H13_8 H 0.8615 0.5441 0.9169
H14_8 H 0.8383 0.4285 0.6196
H15_8 H 0.8424 0.4938 0.6141
H16_9 H 0.7949 0.4416 0.7417
H6_9 H 0.7618 0.2568 0.0471
H7_9 H 0.8271 0.3180 0.0526
C12_9 C 0.7434(7) 0.0046(4) 0.0567(13)
H9_9 H 0.7528 0.0451 0.0838
C11_9 C 0.7528(6) 0.9900(4) 0.8916(11)
C14_9 C 0.7093(7) 0.8882(4) 0.9908(13)
C15_9 C 0.7350(6) 0.9299(4) 0.8595(13)
H11_9 H 0.6936 0.8463 0.9638
H12_9 H 0.7392 0.9172 0.7467
H13_9 H 0.7893 0.9841 0.5835
C2_9 C 0.2472(6) 0.0100(4) 0.1084(11)
C5_9 C 0.2907(7) 0.1118(4) 0.0092(13)
C6_9 C 0.2650(6) 0.0701(4) 0.1405(13)
H3_9 H 0.3064 0.1537 0.0362
H4_9 H 0.2608 0.0828 0.2533
H5_9 H 0.2107 0.0159 0.4165
C3_9 C 0.2566(7) 0.9954(4) 0.9433(13)
H1_9 H 0.2472 0.9549 0.9162
H14_9 H 0.2382 0.7432 0.9529
H15_9 H 0.1729 0.6820 0.9474
loop_
_geom_bond_atom_site_label_1
_geom_bond_atom_site_label_2
_geom_bond_site_symmetry_1
_geom_bond_site_symmetry_2
N2 C13 1_555 1_555
H10 C13 1_555 1_555
Cu2 N2 1_555 1_555
Cu1 O1 1_555 1_555
O1 C1 1_555 1_555
C7 C1 1_555 1_555
C8 C7 1_555 1_555
O2 Cu1 1_555 1_555
C9 C8 1_555 1_555
H6 C9 1_555 1_555
H7 C9 1_555 1_555
H8 C9 1_555 1_555
O3 Cu1 1_555 1_555
C10 O3 1_555 1_555
C11 C10 1_555 1_555
C12 C11 1_555 1_555
C13_2 C12 1_555 1_555
N2_2 C13_2 1_555 1_555
C14 N2_2 1_555 1_555
C15 C11 1_555 1_555
C16 C10 1_555 1_555
C17 C16 1_555 1_555
O4 Cu1 1_555 1_555
C18 C17 1_555 1_555
H9 C12 1_555 1_555
H10_2 C13_2 1_555 1_555
H11 C14 1_555 1_555
H12 C15 1_555 1_555
H13 C16 1_555 1_555
H16 C18 1_555 1_555
Cu3 N2_2 1_555 1_555
N3 Cu1 1_555 1_555
N4 Cu1 1_555 1_555
C8 O2 1_555 1_555
C14 C15 1_555 1_555
C17 O4 1_555 1_555
Cu1_2 O1_2 1_555 1_555
O1_2 C1_2 1_555 1_555
C1_2 C2 1_555 1_555
C2 C3 1_555 1_555
C3 C4 1_555 1_555
C4 N1 1_555 1_555
N1 C5 1_555 1_555
C5 C6 1_555 1_555
C6 C2 1_555 1_555
H1 C3 1_555 1_555
H2 C4 1_555 1_555
H3 C5 1_555 1_555
H4 C6 1_555 1_555
Cu2 N1 1_555 1_555
N4_2 Cu1_2 1_555 1_555
C13_3 C12_2 1_555 1_555
N4 C13_3 1_555 1_555
H9_2 C12_2 1_555 1_555
H10_3 C13_3 1_555 1_555
Cu1_3 O1_3 1_555 1_555
O1_3 C1_3 1_555 1_555
C1_3 C2_2 1_555 1_555
C5_2 C6_2 1_555 1_555
C6_2 C2_2 1_555 1_555
C7_2 C1_3 1_555 1_555
C8_2 C7_2 1_555 1_555
O2_2 Cu1_3 1_555 1_555
C9_2 C8_2 1_555 1_555
H3_2 C5_2 1_555 1_555
H4_2 C6_2 1_555 1_555
H5 C7_2 1_555 1_555
H6_3 C9_2 1_555 1_555
H7_3 C9_2 1_555 1_555
H8_2 C9_2 1_555 1_555
O3_2 Cu1_3 1_555 1_555
C10_2 O3_2 1_555 1_555
C11_2 C10_2 1_555 1_555
C12_3 C11_2 1_555 1_555
C13_4 C12_3 1_555 1_555
N4_2 C13_4 1_555 1_555
C14_2 N4_2 1_555 1_555
C15_2 C11_2 1_555 1_555
C16_2 C10_2 1_555 1_555
C17_2 C16_2 1_555 1_555
O4_2 Cu1_3 1_555 1_555
C18_2 C17_2 1_555 1_555
H9_3 C12_3 1_555 1_555
H10_4 C13_4 1_555 1_555
H11_2 C14_2 1_555 1_555
H12_2 C15_2 1_555 1_555
H13_2 C16_2 1_555 1_555
H16_2 C18_2 1_555 1_555
N3_2 Cu1_3 1_555 1_555
N4_3 Cu1_3 1_555 1_555
C8_2 O2_2 1_555 1_555
C14_2 C15_2 1_555 1_555
C17_2 O4_2 1_555 1_555
Cu1_4 O1_4 1_555 1_555
O1_4 C1_4 1_555 1_555
C1_4 C2_3 1_555 1_555
C2_3 C3_2 1_555 1_555
C3_2 C4_2 1_555 1_555
C4_2 N3 1_555 1_555
N3 C5_3 1_555 1_555
C5_3 C6_3 1_555 1_555
C6_3 C2_3 1_555 1_555
H1_2 C3_2 1_555 1_555
H2_2 C4_2 1_555 1_555
H3_3 C5_3 1_555 1_555
H4_3 C6_3 1_555 1_555
N4_4 Cu1_4 1_555 1_555
N4_3 C13_5 1_555 1_555
H10_5 C13_5 1_555 1_555
Cu2 O1_5 1_555 1_555
O1_5 C1_5 1_555 1_555
C7_3 C1_5 1_555 1_555
C8_3 C7_3 1_555 1_555
O2_3 Cu2 1_555 1_555
C9_3 C8_3 1_555 1_555
H6_4 C9_3 1_555 1_555
H7_4 C9_3 1_555 1_555
H8_3 C9_3 1_555 1_555
O3_3 Cu2 1_555 1_555
C10_3 O3_3 1_555 1_555
C11_3 C10_3 1_555 1_555
C12_4 C11_3 1_555 1_555
C13_6 C12_4 1_555 1_555
N4_4 C13_6 1_555 1_555
C14_3 N4_4 1_555 1_555
C15_3 C11_3 1_555 1_555
C16_3 C10_3 1_555 1_555
C17_3 C16_3 1_555 1_555
O4_3 Cu2 1_555 1_555
C18_3 C17_3 1_555 1_555
H9_4 C12_4 1_555 1_555
H10_6 C13_6 1_555 1_555
H11_3 C14_3 1_555 1_555
H12_3 C15_3 1_555 1_555
H13_3 C16_3 1_555 1_555
H16_3 C18_3 1_555 1_555
C8_3 O2_3 1_555 1_555
C14_3 C15_3 1_555 1_555
C17_3 O4_3 1_555 1_555
Cu3 O1_6 1_555 1_555
O1_6 C1_6 1_555 1_555
C1_6 C2_4 1_555 1_555
C2_4 C3_3 1_555 1_555
C3_3 C4_3 1_555 1_555
C4_3 N3_2 1_555 1_555
N3_2 C5_4 1_555 1_555
C5_4 C6_4 1_555 1_555
C6_4 C2_4 1_555 1_555
H1_3 C3_3 1_555 1_555
H2_3 C4_3 1_555 1_555
H3_4 C5_4 1_555 1_555
H4_4 C6_4 1_555 1_555
C17_4 C16_4 1_555 1_555
O4_4 Cu3 1_555 1_555
C18_4 C17_4 1_555 1_555
H13_4 C16_4 1_555 1_555
H14 C18_4 1_555 1_555
H15 C18_4 1_555 1_555
H16_4 C18_4 1_555 1_555
C17_4 O4_4 1_555 1_555
C15_4 C11_4 1_555 1_555
H11_4 C14_4 1_555 1_555
H12_4 C15_4 1_555 1_555
C14_4 C15_4 1_555 1_555
H9_5 C12_5 1_555 1_555
Cu1_5 O1_7 1_555 1_555
O1_7 C1_7 1_555 1_555
C1_7 C2_5 1_555 1_555
C2_5 C3_4 1_555 1_555
C3_4 C4_4 1_555 1_555
C4_4 N1_2 1_555 1_555
N1_2 C5_5 1_555 1_555
C5_5 C6_5 1_555 1_555
C6_5 C2_5 1_555 1_555
C7_4 C1_7 1_555 1_555
C8_4 C7_4 1_555 1_555
O2_4 Cu1_5 1_555 1_555
C9_4 C8_4 1_555 1_555
H1_4 C3_4 1_555 1_555
H2_4 C4_4 1_555 1_555
H3_5 C5_5 1_555 1_555
H4_5 C6_5 1_555 1_555
H5_2 C7_4 1_555 1_555
H8_4 C9_4 1_555 1_555
O3_4 Cu1_5 1_555 1_555
C10_4 O3_4 1_555 1_555
C16_5 C10_4 1_555 1_555
C17_5 C16_5 1_555 1_555
O4_5 Cu1_5 1_555 1_555
C18_5 C17_5 1_555 1_555
H14_2 C18_5 1_555 1_555
H15_2 C18_5 1_555 1_555
H16_5 C18_5 1_555 1_555
Cu3_2 N1_2 1_555 1_555
N3_3 Cu1_5 1_555 1_555
N4_5 Cu1_5 1_555 1_555
C8_4 O2_4 1_555 1_555
C17_5 O4_5 1_555 1_555
C4_5 N1_3 1_555 1_555
H2_5 C4_5 1_555 1_555
Cu3_3 N1_3 1_555 1_555
O3_5 Cu1_6 1_555 1_555
C10_5 O3_5 1_555 1_555
C11_5 C10_5 1_555 1_555
C12_6 C11_5 1_555 1_555
C13_7 C12_6 1_555 1_555
N2_3 C13_7 1_555 1_555
C14_5 N2_3 1_555 1_555
C15_5 C11_5 1_555 1_555
H9_6 C12_6 1_555 1_555
H10_7 C13_7 1_555 1_555
H11_5 C14_5 1_555 1_555
H12_5 C15_5 1_555 1_555
Cu3_3 N2_3 1_555 1_555
N3_4 Cu1_6 1_555 1_555
C14_5 C15_5 1_555 1_555
Cu1_7 O1_8 1_555 1_555
O1_8 C1_8 1_555 1_555
C1_8 C2_6 1_555 1_555
C2_6 C3_5 1_555 1_555
C3_5 C4_6 1_555 1_555
C4_6 N3_4 1_555 1_555
N3_4 C5_6 1_555 1_555
C5_6 C6_6 1_555 1_555
C6_6 C2_6 1_555 1_555
C7_5 C1_8 1_555 1_555
C8_5 C7_5 1_555 1_555
O2_5 Cu1_7 1_555 1_555
C9_5 C8_5 1_555 1_555
H1_5 C3_5 1_555 1_555
H2_6 C4_6 1_555 1_555
H3_6 C5_6 1_555 1_555
H4_6 C6_6 1_555 1_555
H5_3 C7_5 1_555 1_555
H8_5 C9_5 1_555 1_555
O3_6 Cu1_7 1_555 1_555
C10_6 O3_6 1_555 1_555
C11_6 C10_6 1_555 1_555
C15_6 C11_6 1_555 1_555
C16_6 C10_6 1_555 1_555
C17_6 C16_6 1_555 1_555
O4_6 Cu1_7 1_555 1_555
C18_6 C17_6 1_555 1_555
H11_6 C14_6 1_555 1_555
H12_6 C15_6 1_555 1_555
H13_6 C16_6 1_555 1_555
H14_3 C18_6 1_555 1_555
H15_3 C18_6 1_555 1_555
H16_6 C18_6 1_555 1_555
N3_5 Cu1_7 1_555 1_555
N4_6 Cu1_7 1_555 1_555
C8_5 O2_5 1_555 1_555
C14_6 C15_6 1_555 1_555
C17_6 O4_6 1_555 1_555
C3_6 C4_7 1_555 1_555
C4_7 N3_3 1_555 1_555
H1_6 C3_6 1_555 1_555
H2_7 C4_7 1_555 1_555
O3_7 Cu1_8 1_555 1_555
C10_7 O3_7 1_555 1_555
C11_7 C10_7 1_555 1_555
C12_7 C11_7 1_555 1_555
C13_8 C12_7 1_555 1_555
N4_5 C13_8 1_555 1_555
C14_7 N4_5 1_555 1_555
C15_7 C11_7 1_555 1_555
H9_7 C12_7 1_555 1_555
H10_8 C13_8 1_555 1_555
H11_7 C14_7 1_555 1_555
H12_7 C15_7 1_555 1_555
N3_6 Cu1_8 1_555 1_555
C14_7 C15_7 1_555 1_555
Cu3_3 O1_9 1_555 1_555
O1_9 C1_9 1_555 1_555
C1_9 C2_7 1_555 1_555
C2_7 C3_7 1_555 1_555
C3_7 C4_8 1_555 1_555
C4_8 N3_6 1_555 1_555
N3_6 C5_7 1_555 1_555
C5_7 C6_7 1_555 1_555
C6_7 C2_7 1_555 1_555
C7_6 C1_9 1_555 1_555
C8_6 C7_6 1_555 1_555
O2_6 Cu3_3 1_555 1_555
C9_6 C8_6 1_555 1_555
H1_7 C3_7 1_555 1_555
H2_8 C4_8 1_555 1_555
H3_7 C5_7 1_555 1_555
H4_7 C6_7 1_555 1_555
H5_4 C7_6 1_555 1_555
H8_6 C9_6 1_555 1_555
O3_8 Cu3_3 1_555 1_555
C10_8 O3_8 1_555 1_555
C16_7 C10_8 1_555 1_555
C17_7 C16_7 1_555 1_555
O4_7 Cu3_3 1_555 1_555
C18_7 C17_7 1_555 1_555
H14_5 C18_7 1_555 1_555
H15_5 C18_7 1_555 1_555
H16_7 C18_7 1_555 1_555
C8_6 O2_6 1_555 1_555
C17_7 O4_7 1_555 1_555
C4_9 N3_5 1_555 1_555
H2_9 C4_9 1_555 1_555
C8_7 C7_7 1_555 1_555
O2_7 Cu3_2 1_555 1_555
C9_7 C8_7 1_555 1_555
H5_5 C7_7 1_555 1_555
H6_6 C9_7 1_555 1_555
H7_6 C9_7 1_555 1_555
H8_7 C9_7 1_555 1_555
O3_9 Cu3_2 1_555 1_555
C10_9 O3_9 1_555 1_555
C11_8 C10_9 1_555 1_555
C12_8 C11_8 1_555 1_555
C13_9 C12_8 1_555 1_555
N4_6 C13_9 1_555 1_555
C14_8 N4_6 1_555 1_555
C15_8 C11_8 1_555 1_555
H9_8 C12_8 1_555 1_555
H10_9 C13_9 1_555 1_555
H11_8 C14_8 1_555 1_555
H12_8 C15_8 1_555 1_555
C8_7 O2_7 1_555 1_555
C14_8 C15_8 1_555 1_555
H1_8 C3_8 1_555 1_555
C5_8 C6_8 1_555 1_555
C6_8 C2_8 1_555 1_555
H3_8 C5_8 1_555 1_555
H4_8 C6_8 1_555 1_555
C17_8 C16_8 1_555 1_555
O4_8 Cu1_9 1_555 1_555
C18_8 C17_8 1_555 1_555
H13_7 C16_8 1_555 1_555
H14_7 C18_8 1_555 1_555
H15_7 C18_8 1_555 1_555
H16_8 C18_8 1_555 1_555
C17_8 O4_8 1_555 1_555
C8_8 C7_8 1_555 1_555
O2_8 Cu1_10 1_555 1_555
C9_8 C8_8 1_555 1_555
H5_7 C7_8 1_555 1_555
H6_7 C9_8 1_555 1_555
H7_7 C9_8 1_555 1_555
H8_8 C9_8 1_555 1_555
C8_8 O2_8 1_555 1_555
C8_9 C7_9 1_555 1_555
O2_9 Cu1_11 1_555 1_555
C9_9 C8_9 1_555 1_555
H5_8 C7_9 1_555 1_555
H6_8 C9_9 1_555 1_555
H7_8 C9_9 1_555 1_555
H8_9 C9_9 1_555 1_555
C8_9 O2_9 1_555 1_555
C17_9 C16_9 1_555 1_555
O4_9 Cu1_12 1_555 1_555
C18_9 C17_9 1_555 1_555
H13_8 C16_9 1_555 1_555
H14_8 C18_9 1_555 1_555
H15_8 C18_9 1_555 1_555
H16_9 C18_9 1_555 1_555
C17_9 O4_9 1_555 1_555
H9_9 C12_9 1_555 1_555
C15_9 C11_9 1_555 1_555
H11_9 C14_9 1_555 1_555
H12_9 C15_9 1_555 1_555
C14_9 C15_9 1_555 1_555
C5_9 C6_9 1_555 1_555
C6_9 C2_9 1_555 1_555
H3_9 C5_9 1_555 1_555
H4_9 C6_9 1_555 1_555
H1_9 C3_9 1_555 1_555

#END
