
###############################################################################
#
# This file contains modified crystal structure data generated from the
# MOF subset of the Cambridge Structural Database (CSD) v543 
# hosted by the Cambridge Crystallographic Data Centre (CCDC).
#
# This work is licensed under the Creative Commons
# Attribution-NonCommercial-ShareAlike 4.0 International License.
# To view a copy of this license, visit
# http://creativecommons.org/licenses/by-nc-sa/4.0/
# or send a letter to
# Creative Commons, PO Box 1866, Mountain View, CA 94042, USA.
#
# CIF created using the CSD Python API on 29 September 2022
# The structure has been converted into the P1 space group
# The structure has a 3D framework
# The original CSD entry ECAHIB13 is in the rhombohedral crystal system
# The framework has been calculated to contain at least 10.0% void space
# The void calculation uses a probe of radius 1.32A, grid spacing 0.4
#
###############################################################################

data_ECAHIB13
_chemical_formula_moiety         '(C162 H144 Cu16 N18 O36)n'
_symmetry_cell_setting           triclinic
_symmetry_space_group_name_H-M   'P 1'
_symmetry_Int_Tables_number      1
_space_group_name_Hall           'P 1'
loop_
_symmetry_equiv_pos_site_id
_symmetry_equiv_pos_as_xyz
1 x,y,z
_cell_length_a                   25.4689(16)
_cell_length_b                   25.4689(16)
_cell_length_c                   7.7069(6)
_cell_angle_alpha                90
_cell_angle_beta                 90
_cell_angle_gamma                120
_cell_volume                     4329.43
loop_
_atom_site_label
_atom_site_type_symbol
_atom_site_fract_x
_atom_site_fract_y
_atom_site_fract_z
C13 C 0.0395(5) 0.7615(7) 0.1877(14)
N2 N 0.0975(4) 0.8002(5) 0.1543(13)
H10 H 0.0280 0.7479 0.3037
Cu2 Cu 0.1666 0.8333 0.3333
Cu3 Cu 0.4999 0.5000 1.0000
Cu1 Cu 0.1666 0.3334 0.3334
O1 O 0.0910(4) 0.3016(4) 0.1969(13)
C1 C 0.0406(4) 0.2552(5) 0.2359(13)
C7 C 0.0280(4) 0.2194(7) 0.3804(18)
C8 C 0.0693(4) 0.2191(7) 0.5001(18)
O2 O 0.1256(4) 0.2530(5) 0.4946(15)
C9 C 0.0448(7) 0.1703(9) 0.637(3)
H6 H 0.0782 0.1738 0.7082
H7 H 0.0152 0.1736 0.7102
H8 H 0.0251 0.1310 0.5774
O3 O 0.2423(4) 0.3651(4) 0.4698(13)
C10 C 0.2927(4) 0.4115(5) 0.4308(13)
C11 C 0.3422(4) 0.4277(6) 0.5608(12)
C12 C 0.3287(4) 0.4055(7) 0.7285(14)
C13_2 C 0.3728(5) 0.4282(7) 0.8544(14)
N2_2 N 0.4308(4) 0.4669(5) 0.8210(13)
C14 C 0.4438(4) 0.4870(7) 0.6577(15)
C15 C 0.4020(4) 0.4694(7) 0.5267(14)
C16 C 0.3053(4) 0.4473(7) 0.2863(18)
C17 C 0.2640(4) 0.4476(7) 0.1666(18)
O4 O 0.2077(4) 0.4137(5) 0.1721(15)
C18 C 0.2885(7) 0.4964(9) 0.030(3)
H9 H 0.2883 0.3756 0.7570
H10_2 H 0.3613 0.4146 0.9704
H11 H 0.4849 0.5149 0.6308
H12 H 0.4146 0.4840 0.4120
H13 H 0.3470 0.4736 0.2616
H16 H 0.3082 0.5357 0.0893
N3 N 0.1336(5) 0.3694(6) 0.5123(13)
N4 N 0.1998(5) 0.2972(6) 0.1543(13)
Cu1_2 Cu 0.5000 1.0000 1.0000
O1_2 O 0.4244(4) 0.9682(4) 0.8635(13)
C1_2 C 0.3740(4) 0.9218(5) 0.9025(13)
C2 C 0.3245(4) 0.9056(6) 0.7725(12)
C3 C 0.3380(4) 0.9278(7) 0.6048(14)
C4 C 0.2939(5) 0.9051(7) 0.4789(14)
N1 N 0.2359(4) 0.8664(5) 0.5123(13)
C5 C 0.2229(4) 0.8463(7) 0.6756(15)
C6 C 0.2647(4) 0.8639(7) 0.8066(14)
H1 H 0.3784 0.9577 0.5763
H2 H 0.3054 0.9187 0.3629
H3 H 0.1818 0.8184 0.7025
H4 H 0.2521 0.8493 0.9213
N4_2 N 0.5331(5) 0.9639(6) 0.8210(13)
H6_2 H 0.4929 0.2378 0.0415
H7_2 H 0.4931 0.1750 0.0435
C12_2 C 0.2612(7) 0.2565(8) 0.0618(14)
C13_3 C 0.2385(7) 0.2779(9) 0.1877(14)
H9_2 H 0.2911 0.2460 0.0903
H10_3 H 0.2521 0.2800 0.3037
Cu1_3 Cu 0.6666 0.8333 0.3334
O1_3 O 0.6984(4) 0.7895(6) 0.1969(13)
C1_3 C 0.7448(5) 0.7855(6) 0.2359(13)
C2_2 C 0.7610(6) 0.7522(7) 0.1059(12)
C5_2 C 0.8203(7) 0.7099(8) 0.0090(15)
C6_2 C 0.8027(7) 0.7341(8) 0.1400(14)
C7_2 C 0.7806(7) 0.8087(8) 0.3804(18)
C8_2 C 0.7809(7) 0.8503(8) 0.5001(18)
O2_2 O 0.7470(5) 0.8727(6) 0.4946(15)
C9_2 C 0.8297(9) 0.8746(11) 0.637(3)
H3_2 H 0.8482 0.6967 0.0359
H4_2 H 0.8173 0.7361 0.2547
H5 H 0.8069 0.7933 0.4051
H6_3 H 0.8262 0.9045 0.7082
H7_3 H 0.8264 0.8417 0.7102
H8_2 H 0.8690 0.8942 0.5774
O3_2 O 0.6349(4) 0.8772(6) 0.4698(13)
C10_2 C 0.5885(5) 0.8812(6) 0.4308(13)
C11_2 C 0.5723(6) 0.9145(7) 0.5608(12)
C12_3 C 0.5945(7) 0.9232(8) 0.7285(14)
C13_4 C 0.5718(7) 0.9446(9) 0.8544(14)
C14_2 C 0.5130(7) 0.9568(8) 0.6577(15)
C15_2 C 0.5306(7) 0.9326(8) 0.5267(14)
C16_2 C 0.5527(7) 0.8580(8) 0.2863(18)
C17_2 C 0.5524(7) 0.8164(8) 0.1666(18)
O4_2 O 0.5863(5) 0.7940(6) 0.1721(15)
C18_2 C 0.5036(9) 0.7921(11) 0.030(3)
H9_3 H 0.6244 0.9127 0.7570
H10_4 H 0.5854 0.9467 0.9704
H11_2 H 0.4851 0.9700 0.6308
H12_2 H 0.5160 0.9306 0.4120
H13_2 H 0.5264 0.8734 0.2616
H16_2 H 0.4643 0.7725 0.0893
N3_2 N 0.6306(6) 0.7641(8) 0.5123(13)
N4_3 N 0.7028(6) 0.9025(8) 0.1543(13)
Cu1_4 Cu -0.0000 0.4999 1.0000
O1_4 O 0.0318(4) 0.4561(6) 0.8635(13)
C1_4 C 0.0782(5) 0.4521(6) 0.9025(13)
C2_3 C 0.0944(6) 0.4188(7) 0.7725(12)
C3_2 C 0.0722(7) 0.4101(8) 0.6048(14)
C4_2 C 0.0949(7) 0.3887(9) 0.4789(14)
C5_3 C 0.1537(7) 0.3765(8) 0.6756(15)
C6_3 C 0.1361(7) 0.4007(8) 0.8066(14)
H1_2 H 0.0423 0.4206 0.5763
H2_2 H 0.0813 0.3866 0.3629
H3_3 H 0.1816 0.3633 0.7025
H4_3 H 0.1507 0.4027 0.9213
N4_4 N 0.0361(6) 0.5692(8) 0.8210(13)
C13_5 C 0.7221(9) 0.9605(5) 0.1877(14)
H10_5 H 0.7200 0.9720 0.3037
O1_5 O 0.2105(6) 0.9090(4) 0.1969(13)
C1_5 C 0.2145(6) 0.9594(4) 0.2359(13)
C7_3 C 0.1913(8) 0.9720(4) 0.3804(18)
C8_3 C 0.1497(8) 0.9307(4) 0.5001(18)
O2_3 O 0.1273(6) 0.8744(4) 0.4946(15)
C9_3 C 0.1254(11) 0.9552(7) 0.637(3)
H6_4 H 0.0955 0.9218 0.7082
H7_4 H 0.1583 0.9848 0.7102
H8_3 H 0.1058 0.9749 0.5774
O3_3 O 0.1228(6) 0.7577(4) 0.4698(13)
C10_3 C 0.1188(6) 0.7073(4) 0.4308(13)
C11_3 C 0.0855(7) 0.6578(4) 0.5608(12)
C12_4 C 0.0768(8) 0.6713(4) 0.7285(14)
C13_6 C 0.0554(9) 0.6272(5) 0.8544(14)
C14_3 C 0.0432(8) 0.5562(4) 0.6577(15)
C15_3 C 0.0674(8) 0.5980(4) 0.5267(14)
C16_3 C 0.1420(8) 0.6947(4) 0.2863(18)
C17_3 C 0.1836(8) 0.7360(4) 0.1666(18)
O4_3 O 0.2060(6) 0.7923(4) 0.1721(15)
C18_3 C 0.2079(11) 0.7115(7) 0.030(3)
H9_4 H 0.0873 0.7117 0.7570
H10_6 H 0.0533 0.6387 0.9704
H11_3 H 0.0300 0.5151 0.6308
H12_3 H 0.0694 0.5854 0.4120
H13_3 H 0.1266 0.6530 0.2616
H16_3 H 0.2275 0.6918 0.0893
O1_6 O 0.5439(6) 0.5756(4) 0.8635(13)
C1_6 C 0.5479(6) 0.6260(4) 0.9025(13)
C2_4 C 0.5812(7) 0.6755(4) 0.7725(12)
C3_3 C 0.5899(8) 0.6620(4) 0.6048(14)
C4_3 C 0.6113(9) 0.7061(5) 0.4789(14)
C5_4 C 0.6235(8) 0.7771(4) 0.6756(15)
C6_4 C 0.5993(8) 0.7353(4) 0.8066(14)
H1_3 H 0.5794 0.6216 0.5763
H2_3 H 0.6134 0.6946 0.3629
H3_4 H 0.6367 0.8182 0.7025
H4_4 H 0.5973 0.7479 0.9213
C16_4 C 0.4753(8) 0.3614(4) 0.9530(18)
C17_4 C 0.5169(8) 0.4027(4) 0.8333(18)
O4_4 O 0.5393(6) 0.4590(4) 0.8388(15)
C18_4 C 0.5412(11) 0.3782(7) 0.697(3)
H13_4 H 0.4599 0.3197 0.9283
H14 H 0.5711 0.4116 0.6252
H15 H 0.5083 0.3486 0.6232
H16_4 H 0.5608 0.3585 0.7560
C11_4 C 0.0089(4) 0.7610(6) 0.8941(12)
C14_4 C 0.1105(4) 0.8203(7) 0.9910(15)
C15_4 C 0.0687(4) 0.8027(7) 0.8600(14)
H11_4 H 0.1516 0.8482 0.9641
H12_4 H 0.0813 0.8173 0.7453
H13_5 H 0.0137 0.8069 0.5949
H6_5 H 0.7449 0.5071 0.0415
H7_5 H 0.6819 0.5069 0.0435
C12_5 C 0.9954(4) 0.7388(7) 0.0618(14)
H9_5 H 0.9550 0.7089 0.0903
Cu1_5 Cu 0.8333 0.6667 0.6667
O1_7 O 0.7577(4) 0.6349(4) 0.5302(13)
C1_7 C 0.7073(4) 0.5885(5) 0.5692(13)
C2_5 C 0.6578(4) 0.5723(6) 0.4392(12)
C3_4 C 0.6713(4) 0.5945(7) 0.2715(14)
C4_4 C 0.6272(5) 0.5718(7) 0.1456(14)
N1_2 N 0.5692(4) 0.5331(5) 0.1790(13)
C5_5 C 0.5562(4) 0.5130(7) 0.3423(15)
C6_5 C 0.5980(4) 0.5306(7) 0.4733(14)
C7_4 C 0.6947(4) 0.5527(7) 0.7137(18)
C8_4 C 0.7360(4) 0.5524(7) 0.8334(18)
O2_4 O 0.7923(4) 0.5863(5) 0.8279(15)
C9_4 C 0.7115(7) 0.5036(9) 0.970(3)
H1_4 H 0.7117 0.6244 0.2430
H2_4 H 0.6387 0.5854 0.0296
H3_5 H 0.5151 0.4851 0.3692
H4_5 H 0.5854 0.5160 0.5880
H5_2 H 0.6530 0.5264 0.7384
H8_4 H 0.6918 0.4643 0.9107
O3_4 O 0.9090(4) 0.6984(4) 0.8031(13)
C10_4 C 0.9594(4) 0.7448(5) 0.7641(13)
C16_5 C 0.9720(4) 0.7806(7) 0.6196(18)
C17_5 C 0.9307(4) 0.7809(7) 0.4999(18)
O4_5 O 0.8744(4) 0.7470(5) 0.5054(15)
C18_5 C 0.9552(7) 0.8297(9) 0.363(3)
H14_2 H 0.9218 0.8262 0.2918
H15_2 H 0.9848 0.8264 0.2898
H16_5 H 0.9749 0.8690 0.4226
Cu3_2 Cu 0.4999 0.5000 -0.0000
N3_3 N 0.8002(5) 0.7028(6) 0.8457(13)
N4_5 N 0.8664(5) 0.6306(6) 0.4877(13)
C4_5 C 0.9605(5) 0.2385(7) 0.8123(14)
N1_3 N 0.9025(4) 0.1998(5) 0.8457(13)
H2_5 H 0.9720 0.2521 0.6963
Cu3_3 Cu 0.8333 0.1666 0.6666
Cu1_6 Cu 0.5000 0.0000 0.0000
O3_5 O 0.5756(4) 0.0318(4) 0.1365(13)
C10_5 C 0.6260(4) 0.0782(5) 0.0975(13)
C11_5 C 0.6755(4) 0.0944(6) 0.2275(12)
C12_6 C 0.6620(4) 0.0722(7) 0.3952(14)
C13_7 C 0.7061(5) 0.0949(7) 0.5211(14)
N2_3 N 0.7641(4) 0.1336(5) 0.4877(13)
C14_5 C 0.7771(4) 0.1537(7) 0.3244(15)
C15_5 C 0.7353(4) 0.1361(7) 0.1934(14)
H9_6 H 0.6216 0.0423 0.4237
H10_7 H 0.6946 0.0813 0.6371
H11_5 H 0.8182 0.1816 0.2975
H12_5 H 0.7479 0.1507 0.0787
N3_4 N 0.4669(5) 0.0361(6) 0.1790(13)
Cu1_7 Cu 0.3333 0.1666 0.6667
O1_8 O 0.3651(4) 0.1228(6) 0.5302(13)
C1_8 C 0.4115(5) 0.1188(6) 0.5692(13)
C2_6 C 0.4277(6) 0.0855(7) 0.4392(12)
C3_5 C 0.4055(7) 0.0768(8) 0.2715(14)
C4_6 C 0.4282(7) 0.0554(9) 0.1456(14)
C5_6 C 0.4870(7) 0.0432(8) 0.3423(15)
C6_6 C 0.4694(7) 0.0674(8) 0.4733(14)
C7_5 C 0.4473(7) 0.1420(8) 0.7137(18)
C8_5 C 0.4476(7) 0.1836(8) 0.8334(18)
O2_5 O 0.4137(5) 0.2060(6) 0.8279(15)
C9_5 C 0.4964(9) 0.2079(11) 0.970(3)
H1_5 H 0.3756 0.0873 0.2430
H2_6 H 0.4146 0.0533 0.0296
H3_6 H 0.5149 0.0300 0.3692
H4_6 H 0.4840 0.0694 0.5880
H5_3 H 0.4736 0.1266 0.7384
H8_5 H 0.5357 0.2275 0.9107
O3_6 O 0.3016(4) 0.2105(6) 0.8031(13)
C10_6 C 0.2552(5) 0.2145(6) 0.7641(13)
C11_6 C 0.2390(6) 0.2478(7) 0.8941(12)
C14_6 C 0.1797(7) 0.2901(8) 0.9910(15)
C15_6 C 0.1973(7) 0.2659(8) 0.8600(14)
C16_6 C 0.2194(7) 0.1913(8) 0.6196(18)
C17_6 C 0.2191(7) 0.1497(8) 0.4999(18)
O4_6 O 0.2530(5) 0.1273(6) 0.5054(15)
C18_6 C 0.1703(9) 0.1254(11) 0.363(3)
H11_6 H 0.1518 0.3033 0.9641
H12_6 H 0.1827 0.2639 0.7453
H13_6 H 0.1931 0.2067 0.5949
H14_3 H 0.1738 0.0955 0.2918
H15_3 H 0.1736 0.1583 0.2898
H16_6 H 0.1310 0.1058 0.4226
N3_5 N 0.2972(6) 0.0975(8) 0.8457(13)
N4_6 N 0.3694(6) 0.2359(8) 0.4877(13)
C3_6 C 0.7388(7) 0.7435(8) 0.9382(14)
C4_7 C 0.7615(7) 0.7221(9) 0.8123(14)
H1_6 H 0.7089 0.7540 0.9097
H2_7 H 0.7479 0.7200 0.6963
H14_4 H 0.5071 0.7622 0.9585
H15_4 H 0.5069 0.8250 0.9565
Cu1_8 Cu 1.0000 0.4999 0.0000
O3_7 O 0.9682(4) 0.5439(6) 0.1365(13)
C10_7 C 0.9218(5) 0.5479(6) 0.0975(13)
C11_7 C 0.9056(6) 0.5812(7) 0.2275(12)
C12_7 C 0.9278(7) 0.5899(8) 0.3952(14)
C13_8 C 0.9051(7) 0.6113(9) 0.5211(14)
C14_7 C 0.8463(7) 0.6235(8) 0.3244(15)
C15_7 C 0.8639(7) 0.5993(8) 0.1934(14)
H9_7 H 0.9577 0.5794 0.4237
H10_8 H 0.9187 0.6134 0.6371
H11_7 H 0.8184 0.6367 0.2975
H12_7 H 0.8493 0.5973 0.0787
N3_6 N 0.9639(6) 0.4308(8) 0.1790(13)
O1_9 O 0.8772(6) 0.2423(4) 0.5302(13)
C1_9 C 0.8812(6) 0.2927(4) 0.5692(13)
C2_7 C 0.9145(7) 0.3422(4) 0.4392(12)
C3_7 C 0.9232(8) 0.3287(4) 0.2715(14)
C4_8 C 0.9446(9) 0.3728(5) 0.1456(14)
C5_7 C 0.9568(8) 0.4438(4) 0.3423(15)
C6_7 C 0.9326(8) 0.4020(4) 0.4733(14)
C7_6 C 0.8580(8) 0.3053(4) 0.7137(18)
C8_6 C 0.8164(8) 0.2640(4) 0.8334(18)
O2_6 O 0.7940(6) 0.2077(4) 0.8279(15)
C9_6 C 0.7921(11) 0.2885(7) 0.970(3)
H1_7 H 0.9127 0.2883 0.2430
H2_8 H 0.9467 0.3613 0.0296
H3_7 H 0.9700 0.4849 0.3692
H4_7 H 0.9306 0.4146 0.5880
H5_4 H 0.8734 0.3470 0.7384
H8_6 H 0.7725 0.3082 0.9107
O3_8 O 0.7895(6) 0.0910(4) 0.8031(13)
C10_8 C 0.7855(6) 0.0406(4) 0.7641(13)
C16_7 C 0.8087(8) 0.0280(4) 0.6196(18)
C17_7 C 0.8503(8) 0.0693(4) 0.4999(18)
O4_7 O 0.8727(6) 0.1256(4) 0.5054(15)
C18_7 C 0.8746(11) 0.0448(7) 0.363(3)
H14_5 H 0.9045 0.0782 0.2918
H15_5 H 0.8417 0.0152 0.2898
H16_7 H 0.8942 0.0251 0.4226
C4_9 C 0.2779(9) 0.0395(5) 0.8123(14)
H2_9 H 0.2800 0.0280 0.6963
C7_7 C 0.5247(8) 0.6386(4) 0.0470(18)
C8_7 C 0.4831(8) 0.5973(4) 0.1667(18)
O2_7 O 0.4607(6) 0.5410(4) 0.1612(15)
C9_7 C 0.4588(11) 0.6218(7) 0.303(3)
H5_5 H 0.5401 0.6803 0.0717
H6_6 H 0.4289 0.5884 0.3748
H7_6 H 0.4917 0.6514 0.3768
H8_7 H 0.4392 0.6415 0.2440
O3_9 O 0.4561(6) 0.4244(4) 0.1365(13)
C10_9 C 0.4521(6) 0.3740(4) 0.0975(13)
C11_8 C 0.4188(7) 0.3245(4) 0.2275(12)
C12_8 C 0.4101(8) 0.3380(4) 0.3952(14)
C13_9 C 0.3887(9) 0.2939(5) 0.5211(14)
C14_8 C 0.3765(8) 0.2229(4) 0.3244(15)
C15_8 C 0.4007(8) 0.2647(4) 0.1934(14)
H9_8 H 0.4206 0.3784 0.4237
H10_9 H 0.3866 0.3054 0.6371
H11_8 H 0.3633 0.1818 0.2975
H12_8 H 0.4027 0.2521 0.0787
C3_8 C 0.0046(4) 0.2612(7) 0.9382(14)
H1_8 H 0.0450 0.2911 0.9097
H14_6 H 0.2551 0.4929 0.9585
H15_6 H 0.3181 0.4931 0.9565
C2_8 C 0.9911(4) 0.2390(6) 0.1059(12)
C5_8 C 0.8895(4) 0.1797(7) 0.0090(15)
C6_8 C 0.9313(4) 0.1973(7) 0.1400(14)
H3_8 H 0.8484 0.1518 0.0359
H4_8 H 0.9187 0.1827 0.2547
H5_6 H 0.9863 0.1931 0.4051
Cu1_9 Cu 0.5000 0.0000 1.0000
C16_8 C 0.6386(4) 0.1140(7) 0.9530(18)
C17_8 C 0.5973(4) 0.1143(7) 0.8333(18)
O4_8 O 0.5410(4) 0.0804(5) 0.8388(15)
C18_8 C 0.6218(7) 0.1631(9) 0.697(3)
H13_7 H 0.6803 0.1403 0.9283
H14_7 H 0.5884 0.1596 0.6252
H15_7 H 0.6514 0.1598 0.6232
H16_8 H 0.6415 0.2024 0.7560
Cu1_10 Cu 0.5000 1.0000 0.0000
C7_8 C 0.3614(4) 0.8860(7) 0.0470(18)
C8_8 C 0.4027(4) 0.8857(7) 0.1667(18)
O2_8 O 0.4590(4) 0.9196(5) 0.1612(15)
C9_8 C 0.3782(7) 0.8369(9) 0.303(3)
H5_7 H 0.3197 0.8597 0.0717
H6_7 H 0.4116 0.8404 0.3748
H7_7 H 0.3486 0.8402 0.3768
H8_8 H 0.3585 0.7976 0.2440
Cu1_11 Cu -0.0000 0.4999 0.0000
C7_9 C 0.1140(7) 0.4753(8) 0.0470(18)
C8_9 C 0.1143(7) 0.5169(8) 0.1667(18)
O2_9 O 0.0804(5) 0.5393(6) 0.1612(15)
C9_9 C 0.1631(9) 0.5412(11) 0.303(3)
H5_8 H 0.1403 0.4599 0.0717
H6_8 H 0.1596 0.5711 0.3748
H7_8 H 0.1598 0.5083 0.3768
H8_9 H 0.2024 0.5608 0.2440
Cu1_12 Cu 1.0000 0.4999 1.0000
C16_9 C 0.8860(7) 0.5247(8) 0.9530(18)
C17_9 C 0.8857(7) 0.4831(8) 0.8333(18)
O4_9 O 0.9196(5) 0.4607(6) 0.8388(15)
C18_9 C 0.8369(9) 0.4588(11) 0.697(3)
H13_8 H 0.8597 0.5401 0.9283
H14_8 H 0.8404 0.4289 0.6252
H15_8 H 0.8402 0.4917 0.6232
H16_9 H 0.7976 0.4392 0.7560
H6_9 H 0.7622 0.2551 0.0415
H7_9 H 0.8250 0.3181 0.0435
C12_9 C 0.7435(8) 0.0046(4) 0.0618(14)
H9_9 H 0.7540 0.0450 0.0903
C11_9 C 0.7522(7) 0.9911(4) 0.8941(12)
C14_9 C 0.7099(8) 0.8895(4) 0.9910(15)
C15_9 C 0.7341(8) 0.9313(4) 0.8600(14)
H11_9 H 0.6967 0.8484 0.9641
H12_9 H 0.7361 0.9187 0.7453
H13_9 H 0.7933 0.9863 0.5949
C2_9 C 0.2478(7) 0.0089(4) 0.1059(12)
C5_9 C 0.2901(8) 0.1105(4) 0.0090(15)
C6_9 C 0.2659(8) 0.0687(4) 0.1400(14)
H3_9 H 0.3033 0.1516 0.0359
H4_9 H 0.2639 0.0813 0.2547
H5_9 H 0.2067 0.0137 0.4051
C3_9 C 0.2565(8) 0.9954(4) 0.9382(14)
H1_9 H 0.2460 0.9550 0.9097
H14_9 H 0.2378 0.7449 0.9585
H15_9 H 0.1750 0.6819 0.9565
loop_
_geom_bond_atom_site_label_1
_geom_bond_atom_site_label_2
_geom_bond_site_symmetry_1
_geom_bond_site_symmetry_2
N2 C13 1_555 1_555
H10 C13 1_555 1_555
Cu2 N2 1_555 1_555
Cu1 O1 1_555 1_555
O1 C1 1_555 1_555
C7 C1 1_555 1_555
C8 C7 1_555 1_555
O2 Cu1 1_555 1_555
C9 C8 1_555 1_555
H6 C9 1_555 1_555
H7 C9 1_555 1_555
H8 C9 1_555 1_555
O3 Cu1 1_555 1_555
C10 O3 1_555 1_555
C11 C10 1_555 1_555
C12 C11 1_555 1_555
C13_2 C12 1_555 1_555
N2_2 C13_2 1_555 1_555
C14 N2_2 1_555 1_555
C15 C11 1_555 1_555
C16 C10 1_555 1_555
C17 C16 1_555 1_555
O4 Cu1 1_555 1_555
C18 C17 1_555 1_555
H9 C12 1_555 1_555
H10_2 C13_2 1_555 1_555
H11 C14 1_555 1_555
H12 C15 1_555 1_555
H13 C16 1_555 1_555
H16 C18 1_555 1_555
Cu3 N2_2 1_555 1_555
N3 Cu1 1_555 1_555
N4 Cu1 1_555 1_555
C8 O2 1_555 1_555
C14 C15 1_555 1_555
C17 O4 1_555 1_555
Cu1_2 O1_2 1_555 1_555
O1_2 C1_2 1_555 1_555
C1_2 C2 1_555 1_555
C2 C3 1_555 1_555
C3 C4 1_555 1_555
C4 N1 1_555 1_555
N1 C5 1_555 1_555
C5 C6 1_555 1_555
C6 C2 1_555 1_555
H1 C3 1_555 1_555
H2 C4 1_555 1_555
H3 C5 1_555 1_555
H4 C6 1_555 1_555
Cu2 N1 1_555 1_555
N4_2 Cu1_2 1_555 1_555
C13_3 C12_2 1_555 1_555
N4 C13_3 1_555 1_555
H9_2 C12_2 1_555 1_555
H10_3 C13_3 1_555 1_555
Cu1_3 O1_3 1_555 1_555
O1_3 C1_3 1_555 1_555
C1_3 C2_2 1_555 1_555
C5_2 C6_2 1_555 1_555
C6_2 C2_2 1_555 1_555
C7_2 C1_3 1_555 1_555
C8_2 C7_2 1_555 1_555
O2_2 Cu1_3 1_555 1_555
C9_2 C8_2 1_555 1_555
H3_2 C5_2 1_555 1_555
H4_2 C6_2 1_555 1_555
H5 C7_2 1_555 1_555
H6_3 C9_2 1_555 1_555
H7_3 C9_2 1_555 1_555
H8_2 C9_2 1_555 1_555
O3_2 Cu1_3 1_555 1_555
C10_2 O3_2 1_555 1_555
C11_2 C10_2 1_555 1_555
C12_3 C11_2 1_555 1_555
C13_4 C12_3 1_555 1_555
N4_2 C13_4 1_555 1_555
C14_2 N4_2 1_555 1_555
C15_2 C11_2 1_555 1_555
C16_2 C10_2 1_555 1_555
C17_2 C16_2 1_555 1_555
O4_2 Cu1_3 1_555 1_555
C18_2 C17_2 1_555 1_555
H9_3 C12_3 1_555 1_555
H10_4 C13_4 1_555 1_555
H11_2 C14_2 1_555 1_555
H12_2 C15_2 1_555 1_555
H13_2 C16_2 1_555 1_555
H16_2 C18_2 1_555 1_555
N3_2 Cu1_3 1_555 1_555
N4_3 Cu1_3 1_555 1_555
C8_2 O2_2 1_555 1_555
C14_2 C15_2 1_555 1_555
C17_2 O4_2 1_555 1_555
Cu1_4 O1_4 1_555 1_555
O1_4 C1_4 1_555 1_555
C1_4 C2_3 1_555 1_555
C2_3 C3_2 1_555 1_555
C3_2 C4_2 1_555 1_555
C4_2 N3 1_555 1_555
N3 C5_3 1_555 1_555
C5_3 C6_3 1_555 1_555
C6_3 C2_3 1_555 1_555
H1_2 C3_2 1_555 1_555
H2_2 C4_2 1_555 1_555
H3_3 C5_3 1_555 1_555
H4_3 C6_3 1_555 1_555
N4_4 Cu1_4 1_555 1_555
N4_3 C13_5 1_555 1_555
H10_5 C13_5 1_555 1_555
Cu2 O1_5 1_555 1_555
O1_5 C1_5 1_555 1_555
C7_3 C1_5 1_555 1_555
C8_3 C7_3 1_555 1_555
O2_3 Cu2 1_555 1_555
C9_3 C8_3 1_555 1_555
H6_4 C9_3 1_555 1_555
H7_4 C9_3 1_555 1_555
H8_3 C9_3 1_555 1_555
O3_3 Cu2 1_555 1_555
C10_3 O3_3 1_555 1_555
C11_3 C10_3 1_555 1_555
C12_4 C11_3 1_555 1_555
C13_6 C12_4 1_555 1_555
N4_4 C13_6 1_555 1_555
C14_3 N4_4 1_555 1_555
C15_3 C11_3 1_555 1_555
C16_3 C10_3 1_555 1_555
C17_3 C16_3 1_555 1_555
O4_3 Cu2 1_555 1_555
C18_3 C17_3 1_555 1_555
H9_4 C12_4 1_555 1_555
H10_6 C13_6 1_555 1_555
H11_3 C14_3 1_555 1_555
H12_3 C15_3 1_555 1_555
H13_3 C16_3 1_555 1_555
H16_3 C18_3 1_555 1_555
C8_3 O2_3 1_555 1_555
C14_3 C15_3 1_555 1_555
C17_3 O4_3 1_555 1_555
Cu3 O1_6 1_555 1_555
O1_6 C1_6 1_555 1_555
C1_6 C2_4 1_555 1_555
C2_4 C3_3 1_555 1_555
C3_3 C4_3 1_555 1_555
C4_3 N3_2 1_555 1_555
N3_2 C5_4 1_555 1_555
C5_4 C6_4 1_555 1_555
C6_4 C2_4 1_555 1_555
H1_3 C3_3 1_555 1_555
H2_3 C4_3 1_555 1_555
H3_4 C5_4 1_555 1_555
H4_4 C6_4 1_555 1_555
C17_4 C16_4 1_555 1_555
O4_4 Cu3 1_555 1_555
C18_4 C17_4 1_555 1_555
H13_4 C16_4 1_555 1_555
H14 C18_4 1_555 1_555
H15 C18_4 1_555 1_555
H16_4 C18_4 1_555 1_555
C17_4 O4_4 1_555 1_555
C15_4 C11_4 1_555 1_555
H11_4 C14_4 1_555 1_555
H12_4 C15_4 1_555 1_555
C14_4 C15_4 1_555 1_555
H9_5 C12_5 1_555 1_555
Cu1_5 O1_7 1_555 1_555
O1_7 C1_7 1_555 1_555
C1_7 C2_5 1_555 1_555
C2_5 C3_4 1_555 1_555
C3_4 C4_4 1_555 1_555
C4_4 N1_2 1_555 1_555
N1_2 C5_5 1_555 1_555
C5_5 C6_5 1_555 1_555
C6_5 C2_5 1_555 1_555
C7_4 C1_7 1_555 1_555
C8_4 C7_4 1_555 1_555
O2_4 Cu1_5 1_555 1_555
C9_4 C8_4 1_555 1_555
H1_4 C3_4 1_555 1_555
H2_4 C4_4 1_555 1_555
H3_5 C5_5 1_555 1_555
H4_5 C6_5 1_555 1_555
H5_2 C7_4 1_555 1_555
H8_4 C9_4 1_555 1_555
O3_4 Cu1_5 1_555 1_555
C10_4 O3_4 1_555 1_555
C16_5 C10_4 1_555 1_555
C17_5 C16_5 1_555 1_555
O4_5 Cu1_5 1_555 1_555
C18_5 C17_5 1_555 1_555
H14_2 C18_5 1_555 1_555
H15_2 C18_5 1_555 1_555
H16_5 C18_5 1_555 1_555
Cu3_2 N1_2 1_555 1_555
N3_3 Cu1_5 1_555 1_555
N4_5 Cu1_5 1_555 1_555
C8_4 O2_4 1_555 1_555
C17_5 O4_5 1_555 1_555
C4_5 N1_3 1_555 1_555
H2_5 C4_5 1_555 1_555
Cu3_3 N1_3 1_555 1_555
O3_5 Cu1_6 1_555 1_555
C10_5 O3_5 1_555 1_555
C11_5 C10_5 1_555 1_555
C12_6 C11_5 1_555 1_555
C13_7 C12_6 1_555 1_555
N2_3 C13_7 1_555 1_555
C14_5 N2_3 1_555 1_555
C15_5 C11_5 1_555 1_555
H9_6 C12_6 1_555 1_555
H10_7 C13_7 1_555 1_555
H11_5 C14_5 1_555 1_555
H12_5 C15_5 1_555 1_555
Cu3_3 N2_3 1_555 1_555
N3_4 Cu1_6 1_555 1_555
C14_5 C15_5 1_555 1_555
Cu1_7 O1_8 1_555 1_555
O1_8 C1_8 1_555 1_555
C1_8 C2_6 1_555 1_555
C2_6 C3_5 1_555 1_555
C3_5 C4_6 1_555 1_555
C4_6 N3_4 1_555 1_555
N3_4 C5_6 1_555 1_555
C5_6 C6_6 1_555 1_555
C6_6 C2_6 1_555 1_555
C7_5 C1_8 1_555 1_555
C8_5 C7_5 1_555 1_555
O2_5 Cu1_7 1_555 1_555
C9_5 C8_5 1_555 1_555
H1_5 C3_5 1_555 1_555
H2_6 C4_6 1_555 1_555
H3_6 C5_6 1_555 1_555
H4_6 C6_6 1_555 1_555
H5_3 C7_5 1_555 1_555
H8_5 C9_5 1_555 1_555
O3_6 Cu1_7 1_555 1_555
C10_6 O3_6 1_555 1_555
C11_6 C10_6 1_555 1_555
C15_6 C11_6 1_555 1_555
C16_6 C10_6 1_555 1_555
C17_6 C16_6 1_555 1_555
O4_6 Cu1_7 1_555 1_555
C18_6 C17_6 1_555 1_555
H11_6 C14_6 1_555 1_555
H12_6 C15_6 1_555 1_555
H13_6 C16_6 1_555 1_555
H14_3 C18_6 1_555 1_555
H15_3 C18_6 1_555 1_555
H16_6 C18_6 1_555 1_555
N3_5 Cu1_7 1_555 1_555
N4_6 Cu1_7 1_555 1_555
C8_5 O2_5 1_555 1_555
C14_6 C15_6 1_555 1_555
C17_6 O4_6 1_555 1_555
C3_6 C4_7 1_555 1_555
C4_7 N3_3 1_555 1_555
H1_6 C3_6 1_555 1_555
H2_7 C4_7 1_555 1_555
O3_7 Cu1_8 1_555 1_555
C10_7 O3_7 1_555 1_555
C11_7 C10_7 1_555 1_555
C12_7 C11_7 1_555 1_555
C13_8 C12_7 1_555 1_555
N4_5 C13_8 1_555 1_555
C14_7 N4_5 1_555 1_555
C15_7 C11_7 1_555 1_555
H9_7 C12_7 1_555 1_555
H10_8 C13_8 1_555 1_555
H11_7 C14_7 1_555 1_555
H12_7 C15_7 1_555 1_555
N3_6 Cu1_8 1_555 1_555
C14_7 C15_7 1_555 1_555
Cu3_3 O1_9 1_555 1_555
O1_9 C1_9 1_555 1_555
C1_9 C2_7 1_555 1_555
C2_7 C3_7 1_555 1_555
C3_7 C4_8 1_555 1_555
C4_8 N3_6 1_555 1_555
N3_6 C5_7 1_555 1_555
C5_7 C6_7 1_555 1_555
C6_7 C2_7 1_555 1_555
C7_6 C1_9 1_555 1_555
C8_6 C7_6 1_555 1_555
O2_6 Cu3_3 1_555 1_555
C9_6 C8_6 1_555 1_555
H1_7 C3_7 1_555 1_555
H2_8 C4_8 1_555 1_555
H3_7 C5_7 1_555 1_555
H4_7 C6_7 1_555 1_555
H5_4 C7_6 1_555 1_555
H8_6 C9_6 1_555 1_555
O3_8 Cu3_3 1_555 1_555
C10_8 O3_8 1_555 1_555
C16_7 C10_8 1_555 1_555
C17_7 C16_7 1_555 1_555
O4_7 Cu3_3 1_555 1_555
C18_7 C17_7 1_555 1_555
H14_5 C18_7 1_555 1_555
H15_5 C18_7 1_555 1_555
H16_7 C18_7 1_555 1_555
C8_6 O2_6 1_555 1_555
C17_7 O4_7 1_555 1_555
C4_9 N3_5 1_555 1_555
H2_9 C4_9 1_555 1_555
C8_7 C7_7 1_555 1_555
O2_7 Cu3_2 1_555 1_555
C9_7 C8_7 1_555 1_555
H5_5 C7_7 1_555 1_555
H6_6 C9_7 1_555 1_555
H7_6 C9_7 1_555 1_555
H8_7 C9_7 1_555 1_555
O3_9 Cu3_2 1_555 1_555
C10_9 O3_9 1_555 1_555
C11_8 C10_9 1_555 1_555
C12_8 C11_8 1_555 1_555
C13_9 C12_8 1_555 1_555
N4_6 C13_9 1_555 1_555
C14_8 N4_6 1_555 1_555
C15_8 C11_8 1_555 1_555
H9_8 C12_8 1_555 1_555
H10_9 C13_9 1_555 1_555
H11_8 C14_8 1_555 1_555
H12_8 C15_8 1_555 1_555
C8_7 O2_7 1_555 1_555
C14_8 C15_8 1_555 1_555
H1_8 C3_8 1_555 1_555
C5_8 C6_8 1_555 1_555
C6_8 C2_8 1_555 1_555
H3_8 C5_8 1_555 1_555
H4_8 C6_8 1_555 1_555
C17_8 C16_8 1_555 1_555
O4_8 Cu1_9 1_555 1_555
C18_8 C17_8 1_555 1_555
H13_7 C16_8 1_555 1_555
H14_7 C18_8 1_555 1_555
H15_7 C18_8 1_555 1_555
H16_8 C18_8 1_555 1_555
C17_8 O4_8 1_555 1_555
C8_8 C7_8 1_555 1_555
O2_8 Cu1_10 1_555 1_555
C9_8 C8_8 1_555 1_555
H5_7 C7_8 1_555 1_555
H6_7 C9_8 1_555 1_555
H7_7 C9_8 1_555 1_555
H8_8 C9_8 1_555 1_555
C8_8 O2_8 1_555 1_555
C8_9 C7_9 1_555 1_555
O2_9 Cu1_11 1_555 1_555
C9_9 C8_9 1_555 1_555
H5_8 C7_9 1_555 1_555
H6_8 C9_9 1_555 1_555
H7_8 C9_9 1_555 1_555
H8_9 C9_9 1_555 1_555
C8_9 O2_9 1_555 1_555
C17_9 C16_9 1_555 1_555
O4_9 Cu1_12 1_555 1_555
C18_9 C17_9 1_555 1_555
H13_8 C16_9 1_555 1_555
H14_8 C18_9 1_555 1_555
H15_8 C18_9 1_555 1_555
H16_9 C18_9 1_555 1_555
C17_9 O4_9 1_555 1_555
H9_9 C12_9 1_555 1_555
C15_9 C11_9 1_555 1_555
H11_9 C14_9 1_555 1_555
H12_9 C15_9 1_555 1_555
C14_9 C15_9 1_555 1_555
C5_9 C6_9 1_555 1_555
C6_9 C2_9 1_555 1_555
H3_9 C5_9 1_555 1_555
H4_9 C6_9 1_555 1_555
H1_9 C3_9 1_555 1_555

#END
