
###############################################################################
#
# This file contains modified crystal structure data generated from the
# MOF subset of the Cambridge Structural Database (CSD) v543 
# hosted by the Cambridge Crystallographic Data Centre (CCDC).
#
# This work is licensed under the Creative Commons
# Attribution-NonCommercial-ShareAlike 4.0 International License.
# To view a copy of this license, visit
# http://creativecommons.org/licenses/by-nc-sa/4.0/
# or send a letter to
# Creative Commons, PO Box 1866, Mountain View, CA 94042, USA.
#
# CIF created using the CSD Python API on 29 September 2022
# The structure has been converted into the P1 space group
# The structure has a 3D framework
# The original CSD entry ECAHOH is in the rhombohedral crystal system
# The framework has been calculated to contain at least 10.0% void space
# The void calculation uses a probe of radius 1.32A, grid spacing 0.4
#
###############################################################################

data_ECAHOH
_chemical_formula_moiety         '(C162 H144 Cu16 N18 O36)n'
_symmetry_cell_setting           triclinic
_symmetry_space_group_name_H-M   'P 1'
_symmetry_Int_Tables_number      1
_space_group_name_Hall           'P 1'
loop_
_symmetry_equiv_pos_site_id
_symmetry_equiv_pos_as_xyz
1 x,y,z
_cell_length_a                   26.642(4)
_cell_length_b                   26.642(4)
_cell_length_c                   7.741(2)
_cell_angle_alpha                90
_cell_angle_beta                 90
_cell_angle_gamma                120
_cell_volume                     4758.4
loop_
_atom_site_label
_atom_site_type_symbol
_atom_site_fract_x
_atom_site_fract_y
_atom_site_fract_z
H4 H 0.8016 0.0005 0.4092
C5 C 0.75814(14) 0.00032(14) 0.1096(4)
C8 C 0.80985(16) 0.09885(16) 0.0228(5)
H7 H 0.8341 0.1374 0.0530
C9 C 0.79347(15) 0.05807(15) 0.1509(5)
H8 H 0.8060 0.0691 0.2639
C7 C 0.75810(18) 0.03150(18) 0.8204(5)
H6 H 0.7452 0.0219 0.7072
N1 N 0.79353(13) 0.08712(13) 0.8581(4)
Cu2 Cu 0.8334 0.1667 0.6666
Cu3 Cu 0.5000 0.5001 -0.0000
Cu3_2 Cu 0.4999 -0.0000 -0.0000
C7_2 C 0.96850(18) 0.72660(25) 0.8204(5)
H6_2 H 0.9781 0.7233 0.7072
N1_2 N 0.91288(13) 0.70641(18) 0.8581(4)
Cu2_2 Cu 0.8333 0.6666 0.6666
C6 C 0.24795(25) 0.26042(18) 0.9389(5)
H5 H 0.2346 0.2852 0.9055
C7_3 C 0.27340(25) 0.24190(18) 0.8204(5)
H6_3 H 0.2767 0.2548 0.7072
N1_3 N 0.29359(18) 0.20647(13) 0.8581(4)
H9 H 0.2116 0.4671 0.9264
Cu2_3 Cu 0.3334 0.1666 0.6666
Cu3_3 Cu 1.0000 0.5000 -0.0000
C1 C 0.4852(2) 0.2714(2) 0.9645(6)
H2 H 0.5062 0.3130 0.9719
H3 H 0.5115 0.2579 0.9359
C2 C 0.43948(17) 0.25284(17) 0.8267(5)
C3 C 0.44182(19) 0.29545(18) 0.7157(5)
H4_2 H 0.4683 0.3338 0.7425
C4 C 0.40805(15) 0.28525(15) 0.5687(4)
C5_2 C 0.42481(14) 0.33365(14) 0.4429(4)
C6_2 C 0.40625(18) 0.32086(18) 0.2722(5)
H5_2 H 0.3815 0.2827 0.2388
C7_4 C 0.42477(18) 0.36483(18) 0.1537(5)
H6_4 H 0.4119 0.3552 0.0405
C8_2 C 0.47652(16) 0.43218(16) 0.3561(5)
H7_2 H 0.5008 0.4707 0.3863
C9_2 C 0.46014(15) 0.39140(15) 0.4842(5)
H8_2 H 0.4727 0.4024 0.5972
N1_4 N 0.46020(13) 0.42045(13) 0.1914(4)
O1 O 0.40227(10) 0.19989(10) 0.8204(3)
O2 O 0.36518(10) 0.23689(10) 0.5256(3)
C10 C 0.1815(2) 0.0619(2) 0.3688(6)
H9_2 H 0.1996 0.0779 0.2597
H10 H 0.1605 0.0203 0.3614
H11 H 0.1552 0.0754 0.3974
C11 C 0.22719(17) 0.08049(17) 0.5066(5)
C12 C 0.22485(19) 0.03788(18) 0.6176(5)
C13 C 0.25862(15) 0.04808(15) 0.7646(4)
N2 N 0.37308(18) 0.12686(13) 0.4752(4)
O3 O 0.26440(10) 0.13344(10) 0.5129(3)
O4 O 0.30149(10) 0.09644(10) 0.8077(3)
C1_2 C 0.7286(2) 0.2137(3) 0.9645(6)
H2_2 H 0.6870 0.1931 0.9719
H3_2 H 0.7421 0.2535 0.9359
C2_2 C 0.74716(17) 0.18663(24) 0.8267(5)
C3_2 C 0.70455(18) 0.14636(26) 0.7157(5)
H4_3 H 0.6662 0.1344 0.7425
C4_2 C 0.71475(15) 0.12279(21) 0.5687(4)
C5_3 C 0.66635(14) 0.09115(20) 0.4429(4)
C6_3 C 0.67914(18) 0.08538(25) 0.2722(5)
H5_3 H 0.7173 0.0987 0.2388
C7_5 C 0.63517(18) 0.05993(25) 0.1537(5)
H6_5 H 0.6448 0.0566 0.0405
C8_3 C 0.56782(16) 0.04433(23) 0.3561(5)
H7_3 H 0.5293 0.0300 0.3863
C9_3 C 0.60860(15) 0.06873(21) 0.4842(5)
H8_3 H 0.5976 0.0702 0.5972
N1_5 N 0.57955(13) 0.03974(18) 0.1914(4)
O1_2 O 0.80011(10) 0.20237(14) 0.8204(3)
O2_2 O 0.76311(10) 0.12828(14) 0.5256(3)
C10_2 C 0.9381(2) 0.1196(3) 0.3688(6)
H9_3 H 0.9221 0.1217 0.2597
H10_2 H 0.9797 0.1402 0.3614
H11_2 H 0.9246 0.0798 0.3974
C11_2 C 0.91951(17) 0.14670(24) 0.5066(5)
C12_2 C 0.96212(18) 0.18697(26) 0.6176(5)
C13_2 C 0.95192(15) 0.21054(21) 0.7646(4)
N2_2 N 0.87314(13) 0.24621(22) 0.4752(4)
O3_2 O 0.86656(10) 0.13096(14) 0.5129(3)
O4_2 O 0.90356(10) 0.20505(14) 0.8077(3)
C1_3 C 0.7863(3) 0.5148(2) 0.9645(6)
H2_3 H 0.8069 0.4938 0.9719
H3_3 H 0.7465 0.4885 0.9359
C2_3 C 0.81337(24) 0.56052(17) 0.8267(5)
C3_3 C 0.85364(26) 0.55818(19) 0.7157(5)
H4_4 H 0.8656 0.5317 0.7425
C4_3 C 0.87721(21) 0.59195(15) 0.5687(4)
C5_4 C 0.90885(20) 0.57519(14) 0.4429(4)
C6_4 C 0.91462(25) 0.59375(18) 0.2722(5)
H5_4 H 0.9013 0.6185 0.2388
C7_6 C 0.94007(25) 0.57523(18) 0.1537(5)
H6_6 H 0.9434 0.5881 0.0405
C8_4 C 0.95567(23) 0.52348(16) 0.3561(5)
H7_4 H 0.9700 0.4992 0.3863
C9_4 C 0.93127(21) 0.53986(15) 0.4842(5)
H8_4 H 0.9298 0.5273 0.5972
N1_6 N 0.96026(18) 0.53980(13) 0.1914(4)
O1_3 O 0.79763(14) 0.59773(10) 0.8204(3)
O2_3 O 0.87172(14) 0.63482(10) 0.5256(3)
C10_3 C 0.8804(3) 0.8185(2) 0.3688(6)
H9_4 H 0.8783 0.8004 0.2597
H10_3 H 0.8598 0.8395 0.3614
H11_3 H 0.9202 0.8448 0.3974
C11_3 C 0.85330(24) 0.77281(17) 0.5066(5)
C12_3 C 0.81303(26) 0.77515(19) 0.6176(5)
H12 H 0.8011 0.8016 0.5908
C13_3 C 0.78946(21) 0.74138(15) 0.7646(4)
C14 C 0.75782(20) 0.75814(14) 0.8904(4)
C17 C 0.71100(23) 0.80985(16) 0.9772(5)
H15 H 0.6967 0.8341 0.9470
C18 C 0.73540(21) 0.79347(15) 0.8491(5)
H16 H 0.7369 0.8060 0.7361
N2_3 N 0.75379(22) 0.62692(18) 0.4752(4)
O3_3 O 0.86904(14) 0.73560(10) 0.5129(3)
O4_3 O 0.79495(14) 0.69851(10) 0.8077(3)
C13_4 C 0.92529(15) 0.38141(15) 0.0979(4)
C14_2 C 0.90853(14) 0.33301(14) 0.2237(4)
C15 C 0.92709(18) 0.34580(18) 0.3944(5)
H13 H 0.9519 0.3839 0.4278
C16 C 0.90857(18) 0.30183(18) 0.5129(5)
H14 H 0.9215 0.3114 0.6261
C17_2 C 0.85682(16) 0.23448(16) 0.3105(5)
H15_2 H 0.8326 0.1959 0.2803
C18_2 C 0.87320(15) 0.27526(15) 0.1824(5)
H16_2 H 0.8607 0.2642 0.0694
O4_4 O 0.96816(10) 0.42977(10) 0.1410(3)
C1_4 C 0.3952(2) 0.5471(3) 0.2979(6)
H1 H 0.4112 0.5450 0.4070
H2_4 H 0.3536 0.5265 0.3053
H3_4 H 0.4087 0.5869 0.2693
C2_4 C 0.41382(17) 0.51997(24) 0.1601(5)
C3_4 C 0.37121(18) 0.47970(26) 0.0491(5)
H4_5 H 0.3328 0.4678 0.0759
O1_4 O 0.46677(10) 0.53571(14) 0.1538(3)
C13_5 C 0.61859(15) 0.54387(21) 0.0979(4)
C14_3 C 0.66699(14) 0.57551(20) 0.2237(4)
C15_2 C 0.65420(18) 0.58128(25) 0.3944(5)
H13_2 H 0.6161 0.5679 0.4278
C16_2 C 0.69817(18) 0.60673(25) 0.5129(5)
H14_2 H 0.6886 0.6100 0.6261
C17_3 C 0.76552(16) 0.62233(23) 0.3105(5)
H15_3 H 0.8041 0.6366 0.2803
C18_3 C 0.72474(15) 0.59793(21) 0.1824(5)
H16_3 H 0.7358 0.5964 0.0694
O4_5 O 0.57023(10) 0.53838(14) 0.1410(3)
C13_6 C 0.45613(21) 0.07471(15) 0.0979(4)
C14_4 C 0.42449(20) 0.09147(14) 0.2237(4)
C15_3 C 0.41872(25) 0.07291(18) 0.3944(5)
H13_3 H 0.4321 0.0481 0.4278
C16_3 C 0.39327(25) 0.09143(18) 0.5129(5)
H14_3 H 0.3900 0.0785 0.6261
C17_4 C 0.37767(23) 0.14318(16) 0.3105(5)
H15_4 H 0.3634 0.1674 0.2803
C18_4 C 0.40207(21) 0.12680(15) 0.1824(5)
H16_4 H 0.4036 0.1393 0.0694
O4_6 O 0.46162(14) 0.03184(10) 0.1410(3)
C1_5 C 0.8185(2) 0.9381(2) 0.6312(6)
H1_2 H 0.8004 0.9221 0.7403
H2_5 H 0.8395 0.9797 0.6386
H3_5 H 0.8448 0.9246 0.6026
C2_5 C 0.77281(17) 0.91951(17) 0.4934(5)
C3_5 C 0.77515(19) 0.96212(18) 0.3824(5)
C4_4 C 0.74138(15) 0.95192(15) 0.2354(4)
Cu1 Cu 0.6667 0.8333 0.3333
O1_5 O 0.73560(10) 0.86656(10) 0.4871(3)
O2_4 O 0.69851(10) 0.90356(10) 0.1923(3)
C10_4 C 0.5148(2) 0.7286(2) 0.0355(6)
H10_4 H 0.4938 0.6870 0.0281
H11_4 H 0.4885 0.7421 0.0641
C11_4 C 0.56052(17) 0.74716(17) 0.1733(5)
C12_4 C 0.55818(19) 0.70455(18) 0.2843(5)
H12_2 H 0.5317 0.6662 0.2575
C13_7 C 0.59195(15) 0.71475(15) 0.4313(4)
C14_5 C 0.57519(14) 0.66635(14) 0.5571(4)
C15_4 C 0.59375(18) 0.67914(18) 0.7278(5)
H13_4 H 0.6185 0.7173 0.7612
C16_4 C 0.57523(18) 0.63517(18) 0.8463(5)
H14_4 H 0.5881 0.6448 0.9595
C17_5 C 0.52348(16) 0.56782(16) 0.6439(5)
H15_5 H 0.4992 0.5293 0.6137
C18_5 C 0.53986(15) 0.60860(15) 0.5158(5)
H16_5 H 0.5273 0.5976 0.4028
Cu3_4 Cu 0.5000 0.5001 1.0000
N2_4 N 0.70641(18) 0.79353(13) 0.1419(4)
N3 N 0.62692(18) 0.87314(13) 0.5248(4)
N4 N 0.53980(13) 0.57955(13) 0.8086(4)
O3_4 O 0.59773(10) 0.80011(10) 0.1796(3)
O4_7 O 0.63482(10) 0.76311(10) 0.4744(3)
C1_6 C 0.0619(2) 0.8804(3) 0.6312(6)
H1_3 H 0.0779 0.8783 0.7403
H2_6 H 0.0203 0.8598 0.6386
H3_6 H 0.0754 0.9202 0.6026
C2_6 C 0.08049(17) 0.85330(24) 0.4934(5)
C3_6 C 0.03788(18) 0.81303(26) 0.3824(5)
C4_5 C 0.04808(15) 0.78946(21) 0.2354(4)
Cu1_2 Cu 0.1667 0.8334 0.3333
O1_6 O 0.13344(10) 0.86904(14) 0.4871(3)
O2_5 O 0.09644(10) 0.79495(14) 0.1923(3)
C10_5 C 0.2714(2) 0.7863(3) 0.0355(6)
H10_5 H 0.3130 0.8069 0.0281
H11_5 H 0.2579 0.7465 0.0641
C11_5 C 0.25284(17) 0.81337(24) 0.1733(5)
C12_5 C 0.29545(18) 0.85364(26) 0.2843(5)
H12_3 H 0.3338 0.8656 0.2575
C13_8 C 0.28525(15) 0.87721(21) 0.4313(4)
C14_6 C 0.33365(14) 0.90885(20) 0.5571(4)
C15_5 C 0.32086(18) 0.91462(25) 0.7278(5)
H13_5 H 0.2827 0.9013 0.7612
C16_5 C 0.36483(18) 0.94007(25) 0.8463(5)
H14_5 H 0.3552 0.9434 0.9595
C17_6 C 0.43218(16) 0.95567(23) 0.6439(5)
H15_6 H 0.4707 0.9700 0.6137
C18_6 C 0.39140(15) 0.93127(21) 0.5158(5)
H16_6 H 0.4024 0.9298 0.4028
Cu3_5 Cu 0.4999 1.0000 1.0000
N2_5 N 0.20647(13) 0.91288(22) 0.1419(4)
N3_2 N 0.12686(13) 0.75379(22) 0.5248(4)
N4_2 N 0.42045(13) 0.96026(18) 0.8086(4)
O3_5 O 0.19989(10) 0.79763(14) 0.1796(3)
O4_8 O 0.23689(10) 0.87172(14) 0.4744(3)
C1_7 C 0.1196(3) 0.1815(2) 0.6312(6)
H1_4 H 0.1217 0.1996 0.7403
H2_7 H 0.1402 0.1605 0.6386
H3_7 H 0.0798 0.1552 0.6026
C2_7 C 0.14670(24) 0.22719(17) 0.4934(5)
C3_7 C 0.18697(26) 0.22485(19) 0.3824(5)
H4_6 H 0.1989 0.1984 0.4092
C4_6 C 0.21054(21) 0.25862(15) 0.2354(4)
C5_5 C 0.24218(20) 0.24186(14) 0.1096(4)
C8_5 C 0.28900(23) 0.19015(16) 0.0228(5)
H7_5 H 0.3033 0.1659 0.0530
C9_5 C 0.26460(21) 0.20653(15) 0.1509(5)
H8_5 H 0.2631 0.1940 0.2639
Cu1_3 Cu 0.1666 0.3333 0.3333
O1_7 O 0.13096(14) 0.26440(10) 0.4871(3)
O2_6 O 0.20505(14) 0.30149(10) 0.1923(3)
C10_6 C 0.2137(3) 0.4852(2) 0.0355(6)
H10_6 H 0.1931 0.5062 0.0281
H11_6 H 0.2535 0.5115 0.0641
C11_6 C 0.18663(24) 0.43948(17) 0.1733(5)
C12_6 C 0.14636(26) 0.44182(19) 0.2843(5)
H12_4 H 0.1344 0.4683 0.2575
C13_9 C 0.12279(21) 0.40805(15) 0.4313(4)
C14_7 C 0.09115(20) 0.42481(14) 0.5571(4)
C15_6 C 0.08538(25) 0.40625(18) 0.7278(5)
H13_6 H 0.0987 0.3815 0.7612
C16_6 C 0.05993(25) 0.42477(18) 0.8463(5)
H14_6 H 0.0566 0.4119 0.9595
C17_7 C 0.04433(23) 0.47652(16) 0.6439(5)
H15_7 H 0.0300 0.5008 0.6137
C18_7 C 0.06873(21) 0.46014(15) 0.5158(5)
H16_7 H 0.0702 0.4727 0.4028
Cu3_6 Cu 0.0000 0.5000 1.0000
N2_6 N 0.08712(22) 0.29359(18) 0.1419(4)
N3_3 N 0.24621(22) 0.37308(18) 0.5248(4)
N4_3 N 0.03974(18) 0.46020(13) 0.8086(4)
O3_6 O 0.20237(14) 0.40227(10) 0.1796(3)
O4_9 O 0.12828(14) 0.36518(10) 0.4744(3)
C16_7 C 0.24190(18) 0.96850(18) 0.1796(5)
H14_7 H 0.2548 0.9781 0.2928
C16_8 C 0.03150(18) 0.27340(25) 0.1796(5)
H14_8 H 0.0219 0.2767 0.2928
H1_5 H 0.7884 0.5329 0.0736
C15_7 C 0.75205(25) 0.73958(18) 0.0611(5)
H13_7 H 0.7654 0.7148 0.0945
C16_9 C 0.72660(25) 0.75810(18) 0.1796(5)
H14_9 H 0.7233 0.7452 0.2928
C4_7 C 0.07471(15) 0.61859(15) 0.9021(4)
C5_6 C 0.09147(14) 0.66699(14) 0.7763(4)
C6_5 C 0.07291(18) 0.65420(18) 0.6056(5)
H5_5 H 0.0481 0.6161 0.5722
C7_7 C 0.09143(18) 0.69817(18) 0.4871(5)
H6_7 H 0.0785 0.6886 0.3739
C8_6 C 0.14318(16) 0.76552(16) 0.6895(5)
H7_6 H 0.1674 0.8041 0.7197
C9_6 C 0.12680(15) 0.72474(15) 0.8176(5)
H8_6 H 0.1393 0.7358 0.9306
O2_7 O 0.03184(10) 0.57023(10) 0.8590(3)
C4_8 C 0.38141(15) 0.45613(21) 0.9021(4)
C5_7 C 0.33301(14) 0.42449(20) 0.7763(4)
C6_6 C 0.34580(18) 0.41872(25) 0.6056(5)
H5_6 H 0.3839 0.4321 0.5722
C7_8 C 0.30183(18) 0.39327(25) 0.4871(5)
H6_8 H 0.3114 0.3900 0.3739
C8_7 C 0.23448(16) 0.37767(23) 0.6895(5)
H7_7 H 0.1959 0.3634 0.7197
C9_7 C 0.27526(15) 0.40207(21) 0.8176(5)
H8_7 H 0.2642 0.4036 0.9306
O2_8 O 0.42977(10) 0.46162(14) 0.8590(3)
C10_7 C 0.6048(2) 0.4529(3) 0.7021(6)
H9_5 H 0.5888 0.4550 0.5930
H10_7 H 0.6464 0.4735 0.6947
H11_7 H 0.5913 0.4131 0.7307
C11_7 C 0.58618(17) 0.48003(24) 0.8399(5)
C12_7 C 0.62879(18) 0.52030(26) 0.9509(5)
H12_5 H 0.6672 0.5322 0.9241
O3_7 O 0.53323(10) 0.46429(14) 0.8462(3)
C4_9 C 0.54387(21) 0.92529(15) 0.9021(4)
C5_8 C 0.57551(20) 0.90853(14) 0.7763(4)
C6_7 C 0.58128(25) 0.92709(18) 0.6056(5)
H5_7 H 0.5679 0.9519 0.5722
C7_9 C 0.60673(25) 0.90857(18) 0.4871(5)
H6_9 H 0.6100 0.9215 0.3739
C8_8 C 0.62233(23) 0.85682(16) 0.6895(5)
H7_8 H 0.6366 0.8326 0.7197
C9_8 C 0.59793(21) 0.87320(15) 0.8176(5)
H8_8 H 0.5964 0.8607 0.9306
O2_9 O 0.53838(14) 0.96816(10) 0.8590(3)
C6_8 C 0.73958(18) 0.98753(18) 0.9389(5)
H5_8 H 0.7148 0.9494 0.9055
H9_6 H 0.5329 0.7446 0.9264
Cu3_7 Cu 0.4999 -0.0000 1.0000
C10_8 C 0.5471(3) 0.1518(2) 0.7021(6)
H9_7 H 0.5450 0.1337 0.5930
H10_8 H 0.5265 0.1728 0.6947
H11_8 H 0.5869 0.1781 0.7307
C11_8 C 0.51997(24) 0.10614(17) 0.8399(5)
C12_8 C 0.47970(26) 0.10848(19) 0.9509(5)
H12_6 H 0.4678 0.1349 0.9241
O3_8 O 0.53571(14) 0.06893(10) 0.8462(3)
Cu3_8 Cu 0.4999 1.0000 -0.0000
C1_8 C 0.4529(3) 0.8482(2) 0.2979(6)
H1_6 H 0.4550 0.8663 0.4070
H2_8 H 0.4735 0.8272 0.3053
H3_8 H 0.4131 0.8219 0.2693
C2_8 C 0.48003(24) 0.89386(17) 0.1601(5)
C3_8 C 0.52030(26) 0.89152(19) 0.0491(5)
H4_7 H 0.5322 0.8651 0.0759
O1_8 O 0.46429(14) 0.93107(10) 0.1538(3)
C6_9 C 0.01247(18) 0.75205(25) 0.9389(5)
H5_9 H 0.0506 0.7654 0.9055
H9_8 H 0.2554 0.7884 0.9264
H4_8 H 0.9995 0.8011 0.4092
C5_9 C 0.99968(14) 0.75782(20) 0.1096(4)
C8_9 C 0.90115(16) 0.71100(23) 0.0228(5)
H7_9 H 0.8626 0.6967 0.0530
C9_9 C 0.94193(15) 0.73540(21) 0.1509(5)
H8_9 H 0.9309 0.7369 0.2639
Cu3_9 Cu 0.0000 0.5000 -0.0000
C1_9 C 0.1518(2) 0.6048(2) 0.2979(6)
H1_7 H 0.1337 0.5888 0.4070
H2_9 H 0.1728 0.6464 0.3053
H3_9 H 0.1781 0.5913 0.2693
C2_9 C 0.10614(17) 0.58618(17) 0.1601(5)
C3_9 C 0.10848(19) 0.62879(18) 0.0491(5)
H4_9 H 0.1349 0.6672 0.0759
O1_9 O 0.06893(10) 0.53323(10) 0.1538(3)
Cu3_10 Cu 1.0000 0.5000 1.0000
C10_9 C 0.8482(2) 0.3952(2) 0.7021(6)
H9_9 H 0.8663 0.4112 0.5930
H10_9 H 0.8272 0.3536 0.6947
H11_9 H 0.8219 0.4087 0.7307
C11_9 C 0.89386(17) 0.41382(17) 0.8399(5)
C12_9 C 0.89152(19) 0.37121(18) 0.9509(5)
H12_7 H 0.8651 0.3328 0.9241
O3_9 O 0.93107(10) 0.46677(10) 0.8462(3)
H1_8 H 0.4671 0.2554 0.0736
C15_8 C 0.26042(18) 0.01247(18) 0.0611(5)
H13_8 H 0.2852 0.0506 0.0945
H12_8 H 0.1984 0.9995 0.5908
C14_8 C 0.24186(14) 0.99968(14) 0.8904(4)
C17_8 C 0.19015(16) 0.90115(16) 0.9772(5)
H15_8 H 0.1659 0.8626 0.9470
C18_8 C 0.20653(15) 0.94193(15) 0.8491(5)
H16_8 H 0.1940 0.9309 0.7361
H12_9 H 0.0005 0.1989 0.5908
C14_9 C 0.00032(14) 0.24218(20) 0.8904(4)
C17_9 C 0.09885(16) 0.28900(23) 0.9772(5)
H15_9 H 0.1374 0.3033 0.9470
C18_9 C 0.05807(15) 0.26460(21) 0.8491(5)
H16_9 H 0.0691 0.2631 0.7361
H1_9 H 0.7446 0.2116 0.0736
C15_9 C 0.98753(18) 0.24795(25) 0.0611(5)
H13_9 H 0.9494 0.2346 0.0945
loop_
_geom_bond_atom_site_label_1
_geom_bond_atom_site_label_2
_geom_bond_site_symmetry_1
_geom_bond_site_symmetry_2
C8 H7 1_555 1_555
C9 C5 1_555 1_555
H8 C9 1_555 1_555
C8 C9 1_555 1_555
H6 C7 1_555 1_555
N1 C7 1_555 1_555
Cu2 N1 1_555 1_555
H6_2 C7_2 1_555 1_555
N1_2 C7_2 1_555 1_555
Cu2_2 N1_2 1_555 1_555
H5 C6 1_555 1_555
C7_3 C6 1_555 1_555
H6_3 C7_3 1_555 1_555
N1_3 C7_3 1_555 1_555
Cu2_3 N1_3 1_555 1_555
H2 C1 1_555 1_555
H3 C1 1_555 1_555
C2 C1 1_555 1_555
C3 C2 1_555 1_555
H4_2 C3 1_555 1_555
C4 C3 1_555 1_555
C5_2 C4 1_555 1_555
C6_2 C5_2 1_555 1_555
H5_2 C6_2 1_555 1_555
C7_4 C6_2 1_555 1_555
H6_4 C7_4 1_555 1_555
C8_2 H7_2 1_555 1_555
C9_2 C5_2 1_555 1_555
H8_2 C9_2 1_555 1_555
Cu2_3 O1 1_555 1_555
N1_4 C7_4 1_555 1_555
O1 C2 1_555 1_555
O2 C4 1_555 1_555
C10 H9_2 1_555 1_555
H10 C10 1_555 1_555
H11 C10 1_555 1_555
C11 C10 1_555 1_555
C12 C11 1_555 1_555
C13 C12 1_555 1_555
Cu3 N1_4 1_555 1_555
N2 Cu2_3 1_555 1_555
O3 Cu2_3 1_555 1_555
O4 Cu2_3 1_555 1_555
C8_2 C9_2 1_555 1_555
C8_2 N1_4 1_555 1_555
Cu2_3 O2 1_555 1_555
C11 O3 1_555 1_555
C13 O4 1_555 1_555
H2_2 C1_2 1_555 1_555
H3_2 C1_2 1_555 1_555
C2_2 C1_2 1_555 1_555
C3_2 C2_2 1_555 1_555
H4_3 C3_2 1_555 1_555
C4_2 C3_2 1_555 1_555
C5_3 C4_2 1_555 1_555
C6_3 C5_3 1_555 1_555
H5_3 C6_3 1_555 1_555
C7_5 C6_3 1_555 1_555
H6_5 C7_5 1_555 1_555
C8_3 H7_3 1_555 1_555
C9_3 C5_3 1_555 1_555
H8_3 C9_3 1_555 1_555
Cu2 O1_2 1_555 1_555
N1_5 C7_5 1_555 1_555
O1_2 C2_2 1_555 1_555
O2_2 C4_2 1_555 1_555
C10_2 H9_3 1_555 1_555
H10_2 C10_2 1_555 1_555
H11_2 C10_2 1_555 1_555
C11_2 C10_2 1_555 1_555
C12_2 C11_2 1_555 1_555
C13_2 C12_2 1_555 1_555
Cu3_2 N1_5 1_555 1_555
N2_2 Cu2 1_555 1_555
O3_2 Cu2 1_555 1_555
O4_2 Cu2 1_555 1_555
C8_3 C9_3 1_555 1_555
C8_3 N1_5 1_555 1_555
Cu2 O2_2 1_555 1_555
C11_2 O3_2 1_555 1_555
C13_2 O4_2 1_555 1_555
H2_3 C1_3 1_555 1_555
H3_3 C1_3 1_555 1_555
C2_3 C1_3 1_555 1_555
C3_3 C2_3 1_555 1_555
H4_4 C3_3 1_555 1_555
C4_3 C3_3 1_555 1_555
C5_4 C4_3 1_555 1_555
C6_4 C5_4 1_555 1_555
H5_4 C6_4 1_555 1_555
C7_6 C6_4 1_555 1_555
H6_6 C7_6 1_555 1_555
C8_4 H7_4 1_555 1_555
C9_4 C5_4 1_555 1_555
H8_4 C9_4 1_555 1_555
Cu2_2 O1_3 1_555 1_555
N1_6 C7_6 1_555 1_555
O1_3 C2_3 1_555 1_555
O2_3 C4_3 1_555 1_555
C10_3 H9_4 1_555 1_555
H10_3 C10_3 1_555 1_555
H11_3 C10_3 1_555 1_555
C11_3 C10_3 1_555 1_555
C12_3 C11_3 1_555 1_555
H12 C12_3 1_555 1_555
C13_3 C12_3 1_555 1_555
C14 C13_3 1_555 1_555
C17 H15 1_555 1_555
C18 C14 1_555 1_555
H16 C18 1_555 1_555
Cu3_3 N1_6 1_555 1_555
N2_3 Cu2_2 1_555 1_555
O3_3 Cu2_2 1_555 1_555
O4_3 Cu2_2 1_555 1_555
C8_4 C9_4 1_555 1_555
C8_4 N1_6 1_555 1_555
Cu2_2 O2_3 1_555 1_555
C11_3 O3_3 1_555 1_555
C13_3 O4_3 1_555 1_555
C17 C18 1_555 1_555
C14_2 C13_4 1_555 1_555
C15 C14_2 1_555 1_555
H13 C15 1_555 1_555
C16 C15 1_555 1_555
H14 C16 1_555 1_555
C17_2 H15_2 1_555 1_555
C18_2 C14_2 1_555 1_555
H16_2 C18_2 1_555 1_555
N2_2 C16 1_555 1_555
O4_4 Cu3_3 1_555 1_555
C13_4 O4_4 1_555 1_555
C17_2 C18_2 1_555 1_555
C17_2 N2_2 1_555 1_555
C1_4 H1 1_555 1_555
H2_4 C1_4 1_555 1_555
H3_4 C1_4 1_555 1_555
C2_4 C1_4 1_555 1_555
C3_4 C2_4 1_555 1_555
H4_5 C3_4 1_555 1_555
Cu3 O1_4 1_555 1_555
O1_4 C2_4 1_555 1_555
C14_3 C13_5 1_555 1_555
C15_2 C14_3 1_555 1_555
H13_2 C15_2 1_555 1_555
C16_2 C15_2 1_555 1_555
H14_2 C16_2 1_555 1_555
C17_3 H15_3 1_555 1_555
C18_3 C14_3 1_555 1_555
H16_3 C18_3 1_555 1_555
N2_3 C16_2 1_555 1_555
O4_5 Cu3 1_555 1_555
C13_5 O4_5 1_555 1_555
C17_3 C18_3 1_555 1_555
C17_3 N2_3 1_555 1_555
C14_4 C13_6 1_555 1_555
C15_3 C14_4 1_555 1_555
H13_3 C15_3 1_555 1_555
C16_3 C15_3 1_555 1_555
H14_3 C16_3 1_555 1_555
C17_4 H15_4 1_555 1_555
C18_4 C14_4 1_555 1_555
H16_4 C18_4 1_555 1_555
N2 C16_3 1_555 1_555
O4_6 Cu3_2 1_555 1_555
C13_6 O4_6 1_555 1_555
C17_4 C18_4 1_555 1_555
C17_4 N2 1_555 1_555
C1_5 H1_2 1_555 1_555
H2_5 C1_5 1_555 1_555
H3_5 C1_5 1_555 1_555
C2_5 C1_5 1_555 1_555
C3_5 C2_5 1_555 1_555
C4_4 C3_5 1_555 1_555
Cu1 O1_5 1_555 1_555
O1_5 C2_5 1_555 1_555
O2_4 C4_4 1_555 1_555
H10_4 C10_4 1_555 1_555
H11_4 C10_4 1_555 1_555
C11_4 C10_4 1_555 1_555
C12_4 C11_4 1_555 1_555
H12_2 C12_4 1_555 1_555
C13_7 C12_4 1_555 1_555
C14_5 C13_7 1_555 1_555
C15_4 C14_5 1_555 1_555
H13_4 C15_4 1_555 1_555
C16_4 C15_4 1_555 1_555
H14_4 C16_4 1_555 1_555
C17_5 H15_5 1_555 1_555
C18_5 C14_5 1_555 1_555
H16_5 C18_5 1_555 1_555
Cu3_4 N4 1_555 1_555
N2_4 Cu1 1_555 1_555
N3 Cu1 1_555 1_555
N4 C16_4 1_555 1_555
O3_4 Cu1 1_555 1_555
O4_7 Cu1 1_555 1_555
Cu1 O2_4 1_555 1_555
C11_4 O3_4 1_555 1_555
C13_7 O4_7 1_555 1_555
C17_5 C18_5 1_555 1_555
C17_5 N4 1_555 1_555
C1_6 H1_3 1_555 1_555
H2_6 C1_6 1_555 1_555
H3_6 C1_6 1_555 1_555
C2_6 C1_6 1_555 1_555
C3_6 C2_6 1_555 1_555
C4_5 C3_6 1_555 1_555
Cu1_2 O1_6 1_555 1_555
O1_6 C2_6 1_555 1_555
O2_5 C4_5 1_555 1_555
H10_5 C10_5 1_555 1_555
H11_5 C10_5 1_555 1_555
C11_5 C10_5 1_555 1_555
C12_5 C11_5 1_555 1_555
H12_3 C12_5 1_555 1_555
C13_8 C12_5 1_555 1_555
C14_6 C13_8 1_555 1_555
C15_5 C14_6 1_555 1_555
H13_5 C15_5 1_555 1_555
C16_5 C15_5 1_555 1_555
H14_5 C16_5 1_555 1_555
C17_6 H15_6 1_555 1_555
C18_6 C14_6 1_555 1_555
H16_6 C18_6 1_555 1_555
Cu3_5 N4_2 1_555 1_555
N2_5 Cu1_2 1_555 1_555
N3_2 Cu1_2 1_555 1_555
N4_2 C16_5 1_555 1_555
O3_5 Cu1_2 1_555 1_555
O4_8 Cu1_2 1_555 1_555
Cu1_2 O2_5 1_555 1_555
C11_5 O3_5 1_555 1_555
C13_8 O4_8 1_555 1_555
C17_6 C18_6 1_555 1_555
C17_6 N4_2 1_555 1_555
C1_7 H1_4 1_555 1_555
H2_7 C1_7 1_555 1_555
H3_7 C1_7 1_555 1_555
C2_7 C1_7 1_555 1_555
C3_7 C2_7 1_555 1_555
H4_6 C3_7 1_555 1_555
C4_6 C3_7 1_555 1_555
C5_5 C4_6 1_555 1_555
C8_5 H7_5 1_555 1_555
C9_5 C5_5 1_555 1_555
H8_5 C9_5 1_555 1_555
Cu1_3 O1_7 1_555 1_555
O1_7 C2_7 1_555 1_555
O2_6 C4_6 1_555 1_555
H10_6 C10_6 1_555 1_555
H11_6 C10_6 1_555 1_555
C11_6 C10_6 1_555 1_555
C12_6 C11_6 1_555 1_555
H12_4 C12_6 1_555 1_555
C13_9 C12_6 1_555 1_555
C14_7 C13_9 1_555 1_555
C15_6 C14_7 1_555 1_555
H13_6 C15_6 1_555 1_555
C16_6 C15_6 1_555 1_555
H14_6 C16_6 1_555 1_555
C17_7 H15_7 1_555 1_555
C18_7 C14_7 1_555 1_555
H16_7 C18_7 1_555 1_555
Cu3_6 N4_3 1_555 1_555
N2_6 Cu1_3 1_555 1_555
N3_3 Cu1_3 1_555 1_555
N4_3 C16_6 1_555 1_555
O3_6 Cu1_3 1_555 1_555
O4_9 Cu1_3 1_555 1_555
C8_5 C9_5 1_555 1_555
Cu1_3 O2_6 1_555 1_555
C11_6 O3_6 1_555 1_555
C13_9 O4_9 1_555 1_555
C17_7 C18_7 1_555 1_555
C17_7 N4_3 1_555 1_555
H14_7 C16_7 1_555 1_555
N2_5 C16_7 1_555 1_555
H14_8 C16_8 1_555 1_555
N2_6 C16_8 1_555 1_555
H13_7 C15_7 1_555 1_555
C16_9 C15_7 1_555 1_555
H14_9 C16_9 1_555 1_555
N2_4 C16_9 1_555 1_555
C5_6 C4_7 1_555 1_555
C6_5 C5_6 1_555 1_555
H5_5 C6_5 1_555 1_555
C7_7 C6_5 1_555 1_555
H6_7 C7_7 1_555 1_555
C8_6 H7_6 1_555 1_555
C9_6 C5_6 1_555 1_555
H8_6 C9_6 1_555 1_555
N3_2 C7_7 1_555 1_555
O2_7 C4_7 1_555 1_555
C8_6 C9_6 1_555 1_555
C8_6 N3_2 1_555 1_555
Cu3_6 O2_7 1_555 1_555
C5_7 C4_8 1_555 1_555
C6_6 C5_7 1_555 1_555
H5_6 C6_6 1_555 1_555
C7_8 C6_6 1_555 1_555
H6_8 C7_8 1_555 1_555
C8_7 H7_7 1_555 1_555
C9_7 C5_7 1_555 1_555
H8_7 C9_7 1_555 1_555
N3_3 C7_8 1_555 1_555
O2_8 C4_8 1_555 1_555
C10_7 H9_5 1_555 1_555
H10_7 C10_7 1_555 1_555
H11_7 C10_7 1_555 1_555
C11_7 C10_7 1_555 1_555
C12_7 C11_7 1_555 1_555
H12_5 C12_7 1_555 1_555
O3_7 Cu3_4 1_555 1_555
C8_7 C9_7 1_555 1_555
C8_7 N3_3 1_555 1_555
Cu3_4 O2_8 1_555 1_555
C11_7 O3_7 1_555 1_555
C5_8 C4_9 1_555 1_555
C6_7 C5_8 1_555 1_555
H5_7 C6_7 1_555 1_555
C7_9 C6_7 1_555 1_555
H6_9 C7_9 1_555 1_555
C8_8 H7_8 1_555 1_555
C9_8 C5_8 1_555 1_555
H8_8 C9_8 1_555 1_555
N3 C7_9 1_555 1_555
O2_9 C4_9 1_555 1_555
C8_8 C9_8 1_555 1_555
C8_8 N3 1_555 1_555
Cu3_5 O2_9 1_555 1_555
H5_8 C6_8 1_555 1_555
C10_8 H9_7 1_555 1_555
H10_8 C10_8 1_555 1_555
H11_8 C10_8 1_555 1_555
C11_8 C10_8 1_555 1_555
C12_8 C11_8 1_555 1_555
H12_6 C12_8 1_555 1_555
O3_8 Cu3_7 1_555 1_555
C11_8 O3_8 1_555 1_555
C1_8 H1_6 1_555 1_555
H2_8 C1_8 1_555 1_555
H3_8 C1_8 1_555 1_555
C2_8 C1_8 1_555 1_555
C3_8 C2_8 1_555 1_555
H4_7 C3_8 1_555 1_555
Cu3_8 O1_8 1_555 1_555
O1_8 C2_8 1_555 1_555
H5_9 C6_9 1_555 1_555
C8_9 H7_9 1_555 1_555
C9_9 C5_9 1_555 1_555
H8_9 C9_9 1_555 1_555
C8_9 C9_9 1_555 1_555
C1_9 H1_7 1_555 1_555
H2_9 C1_9 1_555 1_555
H3_9 C1_9 1_555 1_555
C2_9 C1_9 1_555 1_555
C3_9 C2_9 1_555 1_555
H4_9 C3_9 1_555 1_555
Cu3_9 O1_9 1_555 1_555
O1_9 C2_9 1_555 1_555
C10_9 H9_9 1_555 1_555
H10_9 C10_9 1_555 1_555
H11_9 C10_9 1_555 1_555
C11_9 C10_9 1_555 1_555
C12_9 C11_9 1_555 1_555
H12_7 C12_9 1_555 1_555
O3_9 Cu3_10 1_555 1_555
C11_9 O3_9 1_555 1_555
H13_8 C15_8 1_555 1_555
C17_8 H15_8 1_555 1_555
C18_8 C14_8 1_555 1_555
H16_8 C18_8 1_555 1_555
C17_8 C18_8 1_555 1_555
C17_9 H15_9 1_555 1_555
C18_9 C14_9 1_555 1_555
H16_9 C18_9 1_555 1_555
C17_9 C18_9 1_555 1_555
H13_9 C15_9 1_555 1_555

#END
