
###############################################################################
#
# This file contains modified crystal structure data generated from the
# MOF subset of the Cambridge Structural Database (CSD) v543 
# hosted by the Cambridge Crystallographic Data Centre (CCDC).
#
# This work is licensed under the Creative Commons
# Attribution-NonCommercial-ShareAlike 4.0 International License.
# To view a copy of this license, visit
# http://creativecommons.org/licenses/by-nc-sa/4.0/
# or send a letter to
# Creative Commons, PO Box 1866, Mountain View, CA 94042, USA.
#
# CIF created using the CSD Python API on 29 September 2022
# The structure has been converted into the P1 space group
# The structure has a 3D framework
# The original CSD entry ECAHIB02 is in the rhombohedral crystal system
# The framework has been calculated to contain at least 10.0% void space
# The void calculation uses a probe of radius 1.32A, grid spacing 0.4
#
###############################################################################

data_ECAHIB02
_chemical_formula_moiety         '(C162 H144 Cu16 N18 O36)n'
_symmetry_cell_setting           triclinic
_symmetry_space_group_name_H-M   'P 1'
_symmetry_Int_Tables_number      1
_space_group_name_Hall           'P 1'
loop_
_symmetry_equiv_pos_site_id
_symmetry_equiv_pos_as_xyz
1 x,y,z
_cell_length_a                   26.453(2)
_cell_length_b                   26.453(2)
_cell_length_c                   7.7499(6)
_cell_angle_alpha                90
_cell_angle_beta                 90
_cell_angle_gamma                120
_cell_volume                     4696.52
loop_
_atom_site_label
_atom_site_type_symbol
_atom_site_fract_x
_atom_site_fract_y
_atom_site_fract_z
C13 C 0.0334(3) 0.7569(3) 0.1759(7)
N2 N 0.0892(2) 0.7940(3) 0.1403(6)
H10 H 0.0233 0.7432 0.2911
Cu2 Cu 0.1666 0.8333 0.3333
Cu3 Cu 0.4999 0.5000 1.0000
Cu1 Cu 0.1666 0.3334 0.3334
O1 O 0.09521(17) 0.30194(18) 0.1948(5)
C1 C 0.0459(2) 0.2598(3) 0.2417(6)
C7 C 0.0352(3) 0.2268(3) 0.3902(7)
C8 C 0.0784(2) 0.2271(3) 0.4979(7)
O2 O 0.13212(19) 0.2622(2) 0.4845(5)
C9 C 0.0597(4) 0.1819(4) 0.6360(11)
H6 H 0.0940 0.1873 0.6999
H7 H 0.0330 0.1858 0.7152
H8 H 0.0398 0.1429 0.5838
O3 O 0.23812(17) 0.36473(18) 0.4719(5)
C10 C 0.2874(2) 0.4069(3) 0.4250(6)
C11 C 0.3361(2) 0.4238(3) 0.5519(6)
C12 C 0.3228(2) 0.4042(3) 0.7221(7)
C13_2 C 0.3667(3) 0.4236(3) 0.8426(7)
N2_2 N 0.4225(2) 0.4607(3) 0.8070(6)
C14 C 0.4351(2) 0.4786(3) 0.6432(6)
C15 C 0.3947(2) 0.4613(3) 0.5130(6)
C16 C 0.2981(3) 0.4399(3) 0.2765(7)
C17 C 0.2549(2) 0.4396(3) 0.1688(7)
O4 O 0.20121(19) 0.4045(2) 0.1822(5)
C18 C 0.2736(4) 0.4848(4) 0.0307(11)
H9 H 0.2836 0.3776 0.7543
H10_2 H 0.3566 0.4099 0.9578
H11 H 0.4748 0.5050 0.6152
H12 H 0.4064 0.4748 0.3984
H13 H 0.3377 0.4646 0.2442
H16 H 0.2935 0.5238 0.0829
N3 N 0.1274(3) 0.3715(4) 0.5263(6)
N4 N 0.2060(3) 0.2951(4) 0.1403(6)
Cu1_2 Cu 0.5000 1.0000 1.0000
O1_2 O 0.42855(17) 0.96860(18) 0.8614(5)
C1_2 C 0.3793(2) 0.9264(3) 0.9083(6)
C2 C 0.3306(2) 0.9095(3) 0.7814(6)
C3 C 0.3439(2) 0.9291(3) 0.6112(7)
C4 C 0.3000(3) 0.9097(3) 0.4907(7)
N1 N 0.2442(2) 0.8726(3) 0.5263(6)
C5 C 0.2316(2) 0.8547(3) 0.6901(6)
C6 C 0.2720(2) 0.8720(3) 0.8203(6)
H1 H 0.3831 0.9557 0.5790
H2 H 0.3101 0.9234 0.3755
H3 H 0.1919 0.8283 0.7181
H4 H 0.2603 0.8585 0.9349
N4_2 N 0.5393(3) 0.9618(4) 0.8070(6)
H6_2 H 0.4794 0.2401 0.0332
H7_2 H 0.4809 0.1806 0.0485
C12_2 C 0.2625(3) 0.2519(4) 0.0554(7)
C13_3 C 0.2431(3) 0.2764(4) 0.1759(7)
H9_2 H 0.2891 0.2393 0.0876
H10_3 H 0.2568 0.2800 0.2911
Cu1_3 Cu 0.6666 0.8333 0.3334
O1_3 O 0.69806(18) 0.79328(25) 0.1948(5)
C1_3 C 0.7402(3) 0.7862(4) 0.2417(6)
C2_2 C 0.7571(3) 0.7544(4) 0.1148(6)
C5_2 C 0.8119(3) 0.7102(4) 0.0235(6)
C6_2 C 0.7946(3) 0.7333(4) 0.1537(6)
C7_2 C 0.7732(3) 0.8085(4) 0.3902(7)
C8_2 C 0.7729(3) 0.8514(4) 0.4979(7)
O2_2 O 0.7378(2) 0.86996(28) 0.4845(5)
C9_2 C 0.8181(4) 0.8779(6) 0.6360(11)
H3_2 H 0.8383 0.6969 0.0515
H4_2 H 0.8081 0.7351 0.2683
H5 H 0.7979 0.7936 0.4225
H6_3 H 0.8127 0.9068 0.6999
H7_3 H 0.8142 0.8473 0.7152
H8_2 H 0.8571 0.8970 0.5838
O3_2 O 0.63527(18) 0.87339(25) 0.4719(5)
C10_2 C 0.5931(3) 0.8805(4) 0.4250(6)
C11_2 C 0.5762(3) 0.9123(4) 0.5519(6)
C12_3 C 0.5958(3) 0.9186(4) 0.7221(7)
C13_4 C 0.5764(3) 0.9431(4) 0.8426(7)
C14_2 C 0.5214(3) 0.9565(4) 0.6432(6)
C15_2 C 0.5387(3) 0.9334(4) 0.5130(6)
C16_2 C 0.5601(3) 0.8582(4) 0.2765(7)
C17_2 C 0.5604(3) 0.8153(4) 0.1688(7)
O4_2 O 0.5955(2) 0.79671(28) 0.1822(5)
C18_2 C 0.5152(4) 0.7888(6) 0.0307(11)
H9_3 H 0.6224 0.9060 0.7543
H10_4 H 0.5901 0.9467 0.9578
H11_2 H 0.4950 0.9698 0.6152
H12_2 H 0.5252 0.9316 0.3984
H13_2 H 0.5354 0.8731 0.2442
H16_2 H 0.4762 0.7697 0.0829
N3_2 N 0.6285(4) 0.7558(5) 0.5263(6)
N4_3 N 0.7049(4) 0.9108(5) 0.1403(6)
Cu1_4 Cu -0.0000 0.4999 1.0000
O1_4 O 0.03140(18) 0.45994(25) 0.8614(5)
C1_4 C 0.0736(3) 0.4528(4) 0.9083(6)
C2_3 C 0.0905(3) 0.4210(4) 0.7814(6)
C3_2 C 0.0709(3) 0.4147(4) 0.6112(7)
C4_2 C 0.0903(3) 0.3902(4) 0.4907(7)
C5_3 C 0.1453(3) 0.3768(4) 0.6901(6)
C6_3 C 0.1280(3) 0.3999(4) 0.8203(6)
H1_2 H 0.0443 0.4273 0.5790
H2_2 H 0.0766 0.3866 0.3755
H3_3 H 0.1717 0.3635 0.7181
H4_3 H 0.1415 0.4017 0.9349
N4_4 N 0.0382(4) 0.5775(5) 0.8070(6)
C13_5 C 0.7236(4) 0.9666(3) 0.1759(7)
H10_5 H 0.7200 0.9767 0.2911
O1_5 O 0.20672(25) 0.90479(17) 0.1948(5)
C1_5 C 0.2138(4) 0.9541(2) 0.2417(6)
C7_3 C 0.1915(4) 0.9648(3) 0.3902(7)
C8_3 C 0.1486(4) 0.9216(2) 0.4979(7)
O2_3 O 0.13004(28) 0.86788(19) 0.4845(5)
C9_3 C 0.1221(6) 0.9403(4) 0.6360(11)
H6_4 H 0.0932 0.9060 0.6999
H7_4 H 0.1527 0.9670 0.7152
H8_3 H 0.1030 0.9602 0.5838
O3_3 O 0.12661(25) 0.76188(17) 0.4719(5)
C10_3 C 0.1195(4) 0.7126(2) 0.4250(6)
C11_3 C 0.0877(4) 0.6639(2) 0.5519(6)
C12_4 C 0.0814(4) 0.6772(2) 0.7221(7)
C13_6 C 0.0569(4) 0.6333(3) 0.8426(7)
C14_3 C 0.0435(4) 0.5649(2) 0.6432(6)
C15_3 C 0.0666(4) 0.6053(2) 0.5130(6)
C16_3 C 0.1418(4) 0.7019(3) 0.2765(7)
C17_3 C 0.1847(4) 0.7451(2) 0.1688(7)
O4_3 O 0.20329(28) 0.79879(19) 0.1822(5)
C18_3 C 0.2112(6) 0.7264(4) 0.0307(11)
H9_4 H 0.0940 0.7164 0.7543
H10_6 H 0.0533 0.6434 0.9578
H11_3 H 0.0302 0.5252 0.6152
H12_3 H 0.0684 0.5936 0.3984
H13_3 H 0.1269 0.6623 0.2442
H16_3 H 0.2303 0.7065 0.0829
O1_6 O 0.54006(25) 0.57145(17) 0.8614(5)
C1_6 C 0.5472(4) 0.6207(2) 0.9083(6)
C2_4 C 0.5790(4) 0.6694(2) 0.7814(6)
C3_3 C 0.5853(4) 0.6561(2) 0.6112(7)
C4_3 C 0.6098(4) 0.7000(3) 0.4907(7)
C5_4 C 0.6232(4) 0.7684(2) 0.6901(6)
C6_4 C 0.6001(4) 0.7280(2) 0.8203(6)
H1_3 H 0.5727 0.6169 0.5790
H2_3 H 0.6134 0.6899 0.3755
H3_4 H 0.6365 0.8081 0.7181
H4_4 H 0.5983 0.7397 0.9349
C16_4 C 0.4751(4) 0.3686(3) 0.9432(7)
C17_4 C 0.5180(4) 0.4118(2) 0.8355(7)
O4_4 O 0.53662(28) 0.46546(19) 0.8489(5)
C18_4 C 0.5445(6) 0.3931(4) 0.6974(11)
H13_4 H 0.4602 0.3290 0.9109
H14 H 0.5734 0.4274 0.6335
H15 H 0.5139 0.3664 0.6182
H16_4 H 0.5636 0.3732 0.7496
C11_4 C 0.0028(2) 0.7571(3) 0.8852(6)
C14_4 C 0.1018(2) 0.8119(3) 0.9765(6)
C15_4 C 0.0614(2) 0.7946(3) 0.8463(6)
H11_4 H 0.1415 0.8383 0.9485
H12_4 H 0.0731 0.8081 0.7317
H13_5 H 0.0044 0.7979 0.5775
H6_5 H 0.7607 0.5206 0.0332
H7_5 H 0.6997 0.5191 0.0485
C12_5 C 0.9895(2) 0.7375(3) 0.0554(7)
H9_5 H 0.9503 0.7109 0.0876
Cu1_5 Cu 0.8333 0.6667 0.6667
O1_7 O 0.76188(17) 0.63527(18) 0.5281(5)
C1_7 C 0.7126(2) 0.5931(3) 0.5750(6)
C2_5 C 0.6639(2) 0.5762(3) 0.4481(6)
C3_4 C 0.6772(2) 0.5958(3) 0.2779(7)
C4_4 C 0.6333(3) 0.5764(3) 0.1574(7)
N1_2 N 0.5775(2) 0.5393(3) 0.1930(6)
C5_5 C 0.5649(2) 0.5214(3) 0.3568(6)
C6_5 C 0.6053(2) 0.5387(3) 0.4870(6)
C7_4 C 0.7019(3) 0.5601(3) 0.7235(7)
C8_4 C 0.7451(2) 0.5604(3) 0.8312(7)
O2_4 O 0.79879(19) 0.5955(2) 0.8178(5)
C9_4 C 0.7264(4) 0.5152(4) 0.9693(11)
H1_4 H 0.7164 0.6224 0.2457
H2_4 H 0.6434 0.5901 0.0422
H3_5 H 0.5252 0.4950 0.3848
H4_5 H 0.5936 0.5252 0.6016
H5_2 H 0.6623 0.5354 0.7558
H8_4 H 0.7065 0.4762 0.9171
O3_4 O 0.90479(17) 0.69806(18) 0.8052(5)
C10_4 C 0.9541(2) 0.7402(3) 0.7583(6)
C16_5 C 0.9648(3) 0.7732(3) 0.6098(7)
C17_5 C 0.9216(2) 0.7729(3) 0.5021(7)
O4_5 O 0.86788(19) 0.7378(2) 0.5155(5)
C18_5 C 0.9403(4) 0.8181(4) 0.3640(11)
H14_2 H 0.9060 0.8127 0.3001
H15_2 H 0.9670 0.8142 0.2848
H16_5 H 0.9602 0.8571 0.4162
Cu3_2 Cu 0.4999 0.5000 -0.0000
N3_3 N 0.7940(3) 0.7049(4) 0.8597(6)
N4_5 N 0.8726(3) 0.6285(4) 0.4737(6)
C4_5 C 0.9666(3) 0.2431(3) 0.8241(7)
N1_3 N 0.9108(2) 0.2060(3) 0.8597(6)
H2_5 H 0.9767 0.2568 0.7089
Cu3_3 Cu 0.8333 0.1666 0.6666
Cu1_6 Cu 0.5000 0.0000 0.0000
O3_5 O 0.57145(17) 0.03140(18) 0.1386(5)
C10_5 C 0.6207(2) 0.0736(3) 0.0917(6)
C11_5 C 0.6694(2) 0.0905(3) 0.2186(6)
C12_6 C 0.6561(2) 0.0709(3) 0.3888(7)
C13_7 C 0.7000(3) 0.0903(3) 0.5093(7)
N2_3 N 0.7558(2) 0.1274(3) 0.4737(6)
C14_5 C 0.7684(2) 0.1453(3) 0.3099(6)
C15_5 C 0.7280(2) 0.1280(3) 0.1797(6)
H9_6 H 0.6169 0.0443 0.4210
H10_7 H 0.6899 0.0766 0.6245
H11_5 H 0.8081 0.1717 0.2819
H12_5 H 0.7397 0.1415 0.0651
N3_4 N 0.4607(3) 0.0382(4) 0.1930(6)
Cu1_7 Cu 0.3333 0.1666 0.6667
O1_8 O 0.36473(18) 0.12661(25) 0.5281(5)
C1_8 C 0.4069(3) 0.1195(4) 0.5750(6)
C2_6 C 0.4238(3) 0.0877(4) 0.4481(6)
C3_5 C 0.4042(3) 0.0814(4) 0.2779(7)
C4_6 C 0.4236(3) 0.0569(4) 0.1574(7)
C5_6 C 0.4786(3) 0.0435(4) 0.3568(6)
C6_6 C 0.4613(3) 0.0666(4) 0.4870(6)
C7_5 C 0.4399(3) 0.1418(4) 0.7235(7)
C8_5 C 0.4396(3) 0.1847(4) 0.8312(7)
O2_5 O 0.4045(2) 0.20329(28) 0.8178(5)
C9_5 C 0.4848(4) 0.2112(6) 0.9693(11)
H1_5 H 0.3776 0.0940 0.2457
H2_6 H 0.4099 0.0533 0.0422
H3_6 H 0.5050 0.0302 0.3848
H4_6 H 0.4748 0.0684 0.6016
H5_3 H 0.4646 0.1269 0.7558
H8_5 H 0.5238 0.2303 0.9171
O3_6 O 0.30194(18) 0.20672(25) 0.8052(5)
C10_6 C 0.2598(3) 0.2138(4) 0.7583(6)
C11_6 C 0.2429(3) 0.2456(4) 0.8852(6)
C14_6 C 0.1881(3) 0.2898(4) 0.9765(6)
C15_6 C 0.2054(3) 0.2667(4) 0.8463(6)
C16_6 C 0.2268(3) 0.1915(4) 0.6098(7)
C17_6 C 0.2271(3) 0.1486(4) 0.5021(7)
O4_6 O 0.2622(2) 0.13004(28) 0.5155(5)
C18_6 C 0.1819(4) 0.1221(6) 0.3640(11)
H11_6 H 0.1617 0.3031 0.9485
H12_6 H 0.1919 0.2649 0.7317
H13_6 H 0.2021 0.2064 0.5775
H14_3 H 0.1873 0.0932 0.3001
H15_3 H 0.1858 0.1527 0.2848
H16_6 H 0.1429 0.1030 0.4162
N3_5 N 0.2951(4) 0.0892(5) 0.8597(6)
N4_6 N 0.3715(4) 0.2442(5) 0.4737(6)
C3_6 C 0.7375(3) 0.7481(4) 0.9446(7)
C4_7 C 0.7569(3) 0.7236(4) 0.8241(7)
H1_6 H 0.7109 0.7607 0.9124
H2_7 H 0.7432 0.7200 0.7089
H14_4 H 0.5206 0.7599 0.9668
H15_4 H 0.5191 0.8194 0.9515
Cu1_8 Cu 1.0000 0.4999 0.0000
O3_7 O 0.96860(18) 0.54006(25) 0.1386(5)
C10_7 C 0.9264(3) 0.5472(4) 0.0917(6)
C11_7 C 0.9095(3) 0.5790(4) 0.2186(6)
C12_7 C 0.9291(3) 0.5853(4) 0.3888(7)
C13_8 C 0.9097(3) 0.6098(4) 0.5093(7)
C14_7 C 0.8547(3) 0.6232(4) 0.3099(6)
C15_7 C 0.8720(3) 0.6001(4) 0.1797(6)
H9_7 H 0.9557 0.5727 0.4210
H10_8 H 0.9234 0.6134 0.6245
H11_7 H 0.8283 0.6365 0.2819
H12_7 H 0.8585 0.5983 0.0651
N3_6 N 0.9618(4) 0.4225(5) 0.1930(6)
O1_9 O 0.87339(25) 0.23812(17) 0.5281(5)
C1_9 C 0.8805(4) 0.2874(2) 0.5750(6)
C2_7 C 0.9123(4) 0.3361(2) 0.4481(6)
C3_7 C 0.9186(4) 0.3228(2) 0.2779(7)
C4_8 C 0.9431(4) 0.3667(3) 0.1574(7)
C5_7 C 0.9565(4) 0.4351(2) 0.3568(6)
C6_7 C 0.9334(4) 0.3947(2) 0.4870(6)
C7_6 C 0.8582(4) 0.2981(3) 0.7235(7)
C8_6 C 0.8153(4) 0.2549(2) 0.8312(7)
O2_6 O 0.79671(28) 0.20121(19) 0.8178(5)
C9_6 C 0.7888(6) 0.2736(4) 0.9693(11)
H1_7 H 0.9060 0.2836 0.2457
H2_8 H 0.9467 0.3566 0.0422
H3_7 H 0.9698 0.4748 0.3848
H4_7 H 0.9316 0.4064 0.6016
H5_4 H 0.8731 0.3377 0.7558
H8_6 H 0.7697 0.2935 0.9171
O3_8 O 0.79328(25) 0.09521(17) 0.8052(5)
C10_8 C 0.7862(4) 0.0459(2) 0.7583(6)
C16_7 C 0.8085(4) 0.0352(3) 0.6098(7)
C17_7 C 0.8514(4) 0.0784(2) 0.5021(7)
O4_7 O 0.86996(28) 0.13212(19) 0.5155(5)
C18_7 C 0.8779(6) 0.0597(4) 0.3640(11)
H14_5 H 0.9068 0.0940 0.3001
H15_5 H 0.8473 0.0330 0.2848
H16_7 H 0.8970 0.0398 0.4162
C4_9 C 0.2764(4) 0.0334(3) 0.8241(7)
H2_9 H 0.2800 0.0233 0.7089
C7_7 C 0.5249(4) 0.6314(3) 0.0568(7)
C8_7 C 0.4820(4) 0.5882(2) 0.1645(7)
O2_7 O 0.46338(28) 0.53454(19) 0.1511(5)
C9_7 C 0.4555(6) 0.6069(4) 0.3026(11)
H5_5 H 0.5398 0.6710 0.0891
H6_6 H 0.4266 0.5726 0.3665
H7_6 H 0.4861 0.6336 0.3818
H8_7 H 0.4364 0.6268 0.2504
O3_9 O 0.45994(25) 0.42855(17) 0.1386(5)
C10_9 C 0.4528(4) 0.3793(2) 0.0917(6)
C11_8 C 0.4210(4) 0.3306(2) 0.2186(6)
C12_8 C 0.4147(4) 0.3439(2) 0.3888(7)
C13_9 C 0.3902(4) 0.3000(3) 0.5093(7)
C14_8 C 0.3768(4) 0.2316(2) 0.3099(6)
C15_8 C 0.3999(4) 0.2720(2) 0.1797(6)
H9_8 H 0.4273 0.3831 0.4210
H10_9 H 0.3866 0.3101 0.6245
H11_8 H 0.3635 0.1919 0.2819
H12_8 H 0.4017 0.2603 0.0651
C3_8 C 0.0105(2) 0.2625(3) 0.9446(7)
H1_8 H 0.0497 0.2891 0.9124
H14_6 H 0.2393 0.4794 0.9668
H15_6 H 0.3003 0.4809 0.9515
C2_8 C 0.9972(2) 0.2429(3) 0.1148(6)
C5_8 C 0.8982(2) 0.1881(3) 0.0235(6)
C6_8 C 0.9386(2) 0.2054(3) 0.1537(6)
H3_8 H 0.8585 0.1617 0.0515
H4_8 H 0.9269 0.1919 0.2683
H5_6 H 0.9956 0.2021 0.4225
Cu1_9 Cu 0.5000 0.0000 1.0000
C16_8 C 0.6314(3) 0.1066(3) 0.9432(7)
C17_8 C 0.5882(2) 0.1063(3) 0.8355(7)
O4_8 O 0.53454(19) 0.0712(2) 0.8489(5)
C18_8 C 0.6069(4) 0.1515(4) 0.6974(11)
H13_7 H 0.6710 0.1313 0.9109
H14_7 H 0.5726 0.1461 0.6335
H15_7 H 0.6336 0.1476 0.6182
H16_8 H 0.6268 0.1905 0.7496
Cu1_10 Cu 0.5000 1.0000 0.0000
C7_8 C 0.3686(3) 0.8934(3) 0.0568(7)
C8_8 C 0.4118(2) 0.8937(3) 0.1645(7)
O2_8 O 0.46546(19) 0.9288(2) 0.1511(5)
C9_8 C 0.3931(4) 0.8485(4) 0.3026(11)
H5_7 H 0.3290 0.8687 0.0891
H6_7 H 0.4274 0.8539 0.3665
H7_7 H 0.3664 0.8524 0.3818
H8_8 H 0.3732 0.8095 0.2504
Cu1_11 Cu -0.0000 0.4999 0.0000
C7_9 C 0.1066(3) 0.4751(4) 0.0568(7)
C8_9 C 0.1063(3) 0.5180(4) 0.1645(7)
O2_9 O 0.0712(2) 0.53662(28) 0.1511(5)
C9_9 C 0.1515(4) 0.5445(6) 0.3026(11)
H5_8 H 0.1313 0.4602 0.0891
H6_8 H 0.1461 0.5734 0.3665
H7_8 H 0.1476 0.5139 0.3818
H8_9 H 0.1905 0.5636 0.2504
Cu1_12 Cu 1.0000 0.4999 1.0000
C16_9 C 0.8934(3) 0.5249(4) 0.9432(7)
C17_9 C 0.8937(3) 0.4820(4) 0.8355(7)
O4_9 O 0.9288(2) 0.46338(28) 0.8489(5)
C18_9 C 0.8485(4) 0.4555(6) 0.6974(11)
H13_8 H 0.8687 0.5398 0.9109
H14_8 H 0.8539 0.4266 0.6335
H15_8 H 0.8524 0.4861 0.6182
H16_9 H 0.8095 0.4364 0.7496
H6_9 H 0.7599 0.2393 0.0332
H7_9 H 0.8194 0.3003 0.0485
C12_9 C 0.7481(4) 0.0105(2) 0.0554(7)
H9_9 H 0.7607 0.0497 0.0876
C11_9 C 0.7544(4) 0.9972(2) 0.8852(6)
C14_9 C 0.7102(4) 0.8982(2) 0.9765(6)
C15_9 C 0.7333(4) 0.9386(2) 0.8463(6)
H11_9 H 0.6969 0.8585 0.9485
H12_9 H 0.7351 0.9269 0.7317
H13_9 H 0.7936 0.9956 0.5775
C2_9 C 0.2456(4) 0.0028(2) 0.1148(6)
C5_9 C 0.2898(4) 0.1018(2) 0.0235(6)
C6_9 C 0.2667(4) 0.0614(2) 0.1537(6)
H3_9 H 0.3031 0.1415 0.0515
H4_9 H 0.2649 0.0731 0.2683
H5_9 H 0.2064 0.0044 0.4225
C3_9 C 0.2519(4) 0.9895(2) 0.9446(7)
H1_9 H 0.2393 0.9503 0.9124
H14_9 H 0.2401 0.7607 0.9668
H15_9 H 0.1806 0.6997 0.9515
loop_
_geom_bond_atom_site_label_1
_geom_bond_atom_site_label_2
_geom_bond_site_symmetry_1
_geom_bond_site_symmetry_2
N2 C13 1_555 1_555
H10 C13 1_555 1_555
Cu2 N2 1_555 1_555
Cu1 O1 1_555 1_555
O1 C1 1_555 1_555
C7 C1 1_555 1_555
C8 C7 1_555 1_555
O2 Cu1 1_555 1_555
C9 C8 1_555 1_555
H6 C9 1_555 1_555
H7 C9 1_555 1_555
H8 C9 1_555 1_555
O3 Cu1 1_555 1_555
C10 O3 1_555 1_555
C11 C10 1_555 1_555
C12 C11 1_555 1_555
C13_2 C12 1_555 1_555
N2_2 C13_2 1_555 1_555
C14 N2_2 1_555 1_555
C15 C11 1_555 1_555
C16 C10 1_555 1_555
C17 C16 1_555 1_555
O4 Cu1 1_555 1_555
C18 C17 1_555 1_555
H9 C12 1_555 1_555
H10_2 C13_2 1_555 1_555
H11 C14 1_555 1_555
H12 C15 1_555 1_555
H13 C16 1_555 1_555
H16 C18 1_555 1_555
Cu3 N2_2 1_555 1_555
N3 Cu1 1_555 1_555
N4 Cu1 1_555 1_555
C8 O2 1_555 1_555
C14 C15 1_555 1_555
C17 O4 1_555 1_555
Cu1_2 O1_2 1_555 1_555
O1_2 C1_2 1_555 1_555
C1_2 C2 1_555 1_555
C2 C3 1_555 1_555
C3 C4 1_555 1_555
C4 N1 1_555 1_555
N1 C5 1_555 1_555
C5 C6 1_555 1_555
C6 C2 1_555 1_555
H1 C3 1_555 1_555
H2 C4 1_555 1_555
H3 C5 1_555 1_555
H4 C6 1_555 1_555
Cu2 N1 1_555 1_555
N4_2 Cu1_2 1_555 1_555
C13_3 C12_2 1_555 1_555
N4 C13_3 1_555 1_555
H9_2 C12_2 1_555 1_555
H10_3 C13_3 1_555 1_555
Cu1_3 O1_3 1_555 1_555
O1_3 C1_3 1_555 1_555
C1_3 C2_2 1_555 1_555
C5_2 C6_2 1_555 1_555
C6_2 C2_2 1_555 1_555
C7_2 C1_3 1_555 1_555
C8_2 C7_2 1_555 1_555
O2_2 Cu1_3 1_555 1_555
C9_2 C8_2 1_555 1_555
H3_2 C5_2 1_555 1_555
H4_2 C6_2 1_555 1_555
H5 C7_2 1_555 1_555
H6_3 C9_2 1_555 1_555
H7_3 C9_2 1_555 1_555
H8_2 C9_2 1_555 1_555
O3_2 Cu1_3 1_555 1_555
C10_2 O3_2 1_555 1_555
C11_2 C10_2 1_555 1_555
C12_3 C11_2 1_555 1_555
C13_4 C12_3 1_555 1_555
N4_2 C13_4 1_555 1_555
C14_2 N4_2 1_555 1_555
C15_2 C11_2 1_555 1_555
C16_2 C10_2 1_555 1_555
C17_2 C16_2 1_555 1_555
O4_2 Cu1_3 1_555 1_555
C18_2 C17_2 1_555 1_555
H9_3 C12_3 1_555 1_555
H10_4 C13_4 1_555 1_555
H11_2 C14_2 1_555 1_555
H12_2 C15_2 1_555 1_555
H13_2 C16_2 1_555 1_555
H16_2 C18_2 1_555 1_555
N3_2 Cu1_3 1_555 1_555
N4_3 Cu1_3 1_555 1_555
C8_2 O2_2 1_555 1_555
C14_2 C15_2 1_555 1_555
C17_2 O4_2 1_555 1_555
Cu1_4 O1_4 1_555 1_555
O1_4 C1_4 1_555 1_555
C1_4 C2_3 1_555 1_555
C2_3 C3_2 1_555 1_555
C3_2 C4_2 1_555 1_555
C4_2 N3 1_555 1_555
N3 C5_3 1_555 1_555
C5_3 C6_3 1_555 1_555
C6_3 C2_3 1_555 1_555
H1_2 C3_2 1_555 1_555
H2_2 C4_2 1_555 1_555
H3_3 C5_3 1_555 1_555
H4_3 C6_3 1_555 1_555
N4_4 Cu1_4 1_555 1_555
N4_3 C13_5 1_555 1_555
H10_5 C13_5 1_555 1_555
Cu2 O1_5 1_555 1_555
O1_5 C1_5 1_555 1_555
C7_3 C1_5 1_555 1_555
C8_3 C7_3 1_555 1_555
O2_3 Cu2 1_555 1_555
C9_3 C8_3 1_555 1_555
H6_4 C9_3 1_555 1_555
H7_4 C9_3 1_555 1_555
H8_3 C9_3 1_555 1_555
O3_3 Cu2 1_555 1_555
C10_3 O3_3 1_555 1_555
C11_3 C10_3 1_555 1_555
C12_4 C11_3 1_555 1_555
C13_6 C12_4 1_555 1_555
N4_4 C13_6 1_555 1_555
C14_3 N4_4 1_555 1_555
C15_3 C11_3 1_555 1_555
C16_3 C10_3 1_555 1_555
C17_3 C16_3 1_555 1_555
O4_3 Cu2 1_555 1_555
C18_3 C17_3 1_555 1_555
H9_4 C12_4 1_555 1_555
H10_6 C13_6 1_555 1_555
H11_3 C14_3 1_555 1_555
H12_3 C15_3 1_555 1_555
H13_3 C16_3 1_555 1_555
H16_3 C18_3 1_555 1_555
C8_3 O2_3 1_555 1_555
C14_3 C15_3 1_555 1_555
C17_3 O4_3 1_555 1_555
Cu3 O1_6 1_555 1_555
O1_6 C1_6 1_555 1_555
C1_6 C2_4 1_555 1_555
C2_4 C3_3 1_555 1_555
C3_3 C4_3 1_555 1_555
C4_3 N3_2 1_555 1_555
N3_2 C5_4 1_555 1_555
C5_4 C6_4 1_555 1_555
C6_4 C2_4 1_555 1_555
H1_3 C3_3 1_555 1_555
H2_3 C4_3 1_555 1_555
H3_4 C5_4 1_555 1_555
H4_4 C6_4 1_555 1_555
C17_4 C16_4 1_555 1_555
O4_4 Cu3 1_555 1_555
C18_4 C17_4 1_555 1_555
H13_4 C16_4 1_555 1_555
H14 C18_4 1_555 1_555
H15 C18_4 1_555 1_555
H16_4 C18_4 1_555 1_555
C17_4 O4_4 1_555 1_555
C15_4 C11_4 1_555 1_555
H11_4 C14_4 1_555 1_555
H12_4 C15_4 1_555 1_555
C14_4 C15_4 1_555 1_555
H9_5 C12_5 1_555 1_555
Cu1_5 O1_7 1_555 1_555
O1_7 C1_7 1_555 1_555
C1_7 C2_5 1_555 1_555
C2_5 C3_4 1_555 1_555
C3_4 C4_4 1_555 1_555
C4_4 N1_2 1_555 1_555
N1_2 C5_5 1_555 1_555
C5_5 C6_5 1_555 1_555
C6_5 C2_5 1_555 1_555
C7_4 C1_7 1_555 1_555
C8_4 C7_4 1_555 1_555
O2_4 Cu1_5 1_555 1_555
C9_4 C8_4 1_555 1_555
H1_4 C3_4 1_555 1_555
H2_4 C4_4 1_555 1_555
H3_5 C5_5 1_555 1_555
H4_5 C6_5 1_555 1_555
H5_2 C7_4 1_555 1_555
H8_4 C9_4 1_555 1_555
O3_4 Cu1_5 1_555 1_555
C10_4 O3_4 1_555 1_555
C16_5 C10_4 1_555 1_555
C17_5 C16_5 1_555 1_555
O4_5 Cu1_5 1_555 1_555
C18_5 C17_5 1_555 1_555
H14_2 C18_5 1_555 1_555
H15_2 C18_5 1_555 1_555
H16_5 C18_5 1_555 1_555
Cu3_2 N1_2 1_555 1_555
N3_3 Cu1_5 1_555 1_555
N4_5 Cu1_5 1_555 1_555
C8_4 O2_4 1_555 1_555
C17_5 O4_5 1_555 1_555
C4_5 N1_3 1_555 1_555
H2_5 C4_5 1_555 1_555
Cu3_3 N1_3 1_555 1_555
O3_5 Cu1_6 1_555 1_555
C10_5 O3_5 1_555 1_555
C11_5 C10_5 1_555 1_555
C12_6 C11_5 1_555 1_555
C13_7 C12_6 1_555 1_555
N2_3 C13_7 1_555 1_555
C14_5 N2_3 1_555 1_555
C15_5 C11_5 1_555 1_555
H9_6 C12_6 1_555 1_555
H10_7 C13_7 1_555 1_555
H11_5 C14_5 1_555 1_555
H12_5 C15_5 1_555 1_555
Cu3_3 N2_3 1_555 1_555
N3_4 Cu1_6 1_555 1_555
C14_5 C15_5 1_555 1_555
Cu1_7 O1_8 1_555 1_555
O1_8 C1_8 1_555 1_555
C1_8 C2_6 1_555 1_555
C2_6 C3_5 1_555 1_555
C3_5 C4_6 1_555 1_555
C4_6 N3_4 1_555 1_555
N3_4 C5_6 1_555 1_555
C5_6 C6_6 1_555 1_555
C6_6 C2_6 1_555 1_555
C7_5 C1_8 1_555 1_555
C8_5 C7_5 1_555 1_555
O2_5 Cu1_7 1_555 1_555
C9_5 C8_5 1_555 1_555
H1_5 C3_5 1_555 1_555
H2_6 C4_6 1_555 1_555
H3_6 C5_6 1_555 1_555
H4_6 C6_6 1_555 1_555
H5_3 C7_5 1_555 1_555
H8_5 C9_5 1_555 1_555
O3_6 Cu1_7 1_555 1_555
C10_6 O3_6 1_555 1_555
C11_6 C10_6 1_555 1_555
C15_6 C11_6 1_555 1_555
C16_6 C10_6 1_555 1_555
C17_6 C16_6 1_555 1_555
O4_6 Cu1_7 1_555 1_555
C18_6 C17_6 1_555 1_555
H11_6 C14_6 1_555 1_555
H12_6 C15_6 1_555 1_555
H13_6 C16_6 1_555 1_555
H14_3 C18_6 1_555 1_555
H15_3 C18_6 1_555 1_555
H16_6 C18_6 1_555 1_555
N3_5 Cu1_7 1_555 1_555
N4_6 Cu1_7 1_555 1_555
C8_5 O2_5 1_555 1_555
C14_6 C15_6 1_555 1_555
C17_6 O4_6 1_555 1_555
C3_6 C4_7 1_555 1_555
C4_7 N3_3 1_555 1_555
H1_6 C3_6 1_555 1_555
H2_7 C4_7 1_555 1_555
O3_7 Cu1_8 1_555 1_555
C10_7 O3_7 1_555 1_555
C11_7 C10_7 1_555 1_555
C12_7 C11_7 1_555 1_555
C13_8 C12_7 1_555 1_555
N4_5 C13_8 1_555 1_555
C14_7 N4_5 1_555 1_555
C15_7 C11_7 1_555 1_555
H9_7 C12_7 1_555 1_555
H10_8 C13_8 1_555 1_555
H11_7 C14_7 1_555 1_555
H12_7 C15_7 1_555 1_555
N3_6 Cu1_8 1_555 1_555
C14_7 C15_7 1_555 1_555
Cu3_3 O1_9 1_555 1_555
O1_9 C1_9 1_555 1_555
C1_9 C2_7 1_555 1_555
C2_7 C3_7 1_555 1_555
C3_7 C4_8 1_555 1_555
C4_8 N3_6 1_555 1_555
N3_6 C5_7 1_555 1_555
C5_7 C6_7 1_555 1_555
C6_7 C2_7 1_555 1_555
C7_6 C1_9 1_555 1_555
C8_6 C7_6 1_555 1_555
O2_6 Cu3_3 1_555 1_555
C9_6 C8_6 1_555 1_555
H1_7 C3_7 1_555 1_555
H2_8 C4_8 1_555 1_555
H3_7 C5_7 1_555 1_555
H4_7 C6_7 1_555 1_555
H5_4 C7_6 1_555 1_555
H8_6 C9_6 1_555 1_555
O3_8 Cu3_3 1_555 1_555
C10_8 O3_8 1_555 1_555
C16_7 C10_8 1_555 1_555
C17_7 C16_7 1_555 1_555
O4_7 Cu3_3 1_555 1_555
C18_7 C17_7 1_555 1_555
H14_5 C18_7 1_555 1_555
H15_5 C18_7 1_555 1_555
H16_7 C18_7 1_555 1_555
C8_6 O2_6 1_555 1_555
C17_7 O4_7 1_555 1_555
C4_9 N3_5 1_555 1_555
H2_9 C4_9 1_555 1_555
C8_7 C7_7 1_555 1_555
O2_7 Cu3_2 1_555 1_555
C9_7 C8_7 1_555 1_555
H5_5 C7_7 1_555 1_555
H6_6 C9_7 1_555 1_555
H7_6 C9_7 1_555 1_555
H8_7 C9_7 1_555 1_555
O3_9 Cu3_2 1_555 1_555
C10_9 O3_9 1_555 1_555
C11_8 C10_9 1_555 1_555
C12_8 C11_8 1_555 1_555
C13_9 C12_8 1_555 1_555
N4_6 C13_9 1_555 1_555
C14_8 N4_6 1_555 1_555
C15_8 C11_8 1_555 1_555
H9_8 C12_8 1_555 1_555
H10_9 C13_9 1_555 1_555
H11_8 C14_8 1_555 1_555
H12_8 C15_8 1_555 1_555
C8_7 O2_7 1_555 1_555
C14_8 C15_8 1_555 1_555
H1_8 C3_8 1_555 1_555
C5_8 C6_8 1_555 1_555
C6_8 C2_8 1_555 1_555
H3_8 C5_8 1_555 1_555
H4_8 C6_8 1_555 1_555
C17_8 C16_8 1_555 1_555
O4_8 Cu1_9 1_555 1_555
C18_8 C17_8 1_555 1_555
H13_7 C16_8 1_555 1_555
H14_7 C18_8 1_555 1_555
H15_7 C18_8 1_555 1_555
H16_8 C18_8 1_555 1_555
C17_8 O4_8 1_555 1_555
C8_8 C7_8 1_555 1_555
O2_8 Cu1_10 1_555 1_555
C9_8 C8_8 1_555 1_555
H5_7 C7_8 1_555 1_555
H6_7 C9_8 1_555 1_555
H7_7 C9_8 1_555 1_555
H8_8 C9_8 1_555 1_555
C8_8 O2_8 1_555 1_555
C8_9 C7_9 1_555 1_555
O2_9 Cu1_11 1_555 1_555
C9_9 C8_9 1_555 1_555
H5_8 C7_9 1_555 1_555
H6_8 C9_9 1_555 1_555
H7_8 C9_9 1_555 1_555
H8_9 C9_9 1_555 1_555
C8_9 O2_9 1_555 1_555
C17_9 C16_9 1_555 1_555
O4_9 Cu1_12 1_555 1_555
C18_9 C17_9 1_555 1_555
H13_8 C16_9 1_555 1_555
H14_8 C18_9 1_555 1_555
H15_8 C18_9 1_555 1_555
H16_9 C18_9 1_555 1_555
C17_9 O4_9 1_555 1_555
H9_9 C12_9 1_555 1_555
C15_9 C11_9 1_555 1_555
H11_9 C14_9 1_555 1_555
H12_9 C15_9 1_555 1_555
C14_9 C15_9 1_555 1_555
C5_9 C6_9 1_555 1_555
C6_9 C2_9 1_555 1_555
H3_9 C5_9 1_555 1_555
H4_9 C6_9 1_555 1_555
H1_9 C3_9 1_555 1_555

#END
