
###############################################################################
#
# This file contains modified crystal structure data generated from the
# MOF subset of the Cambridge Structural Database (CSD) v543 
# hosted by the Cambridge Crystallographic Data Centre (CCDC).
#
# This work is licensed under the Creative Commons
# Attribution-NonCommercial-ShareAlike 4.0 International License.
# To view a copy of this license, visit
# http://creativecommons.org/licenses/by-nc-sa/4.0/
# or send a letter to
# Creative Commons, PO Box 1866, Mountain View, CA 94042, USA.
#
# CIF created using the CSD Python API on 29 September 2022
# The structure has been converted into the P1 space group
# The structure has a 3D framework
# The original CSD entry ECAHIB01 is in the rhombohedral crystal system
# The framework has been calculated to contain at least 10.0% void space
# The void calculation uses a probe of radius 1.32A, grid spacing 0.4
#
###############################################################################

data_ECAHIB01
_chemical_formula_moiety         '(C162 H144 Cu16 N18 O36)n'
_symmetry_cell_setting           triclinic
_symmetry_space_group_name_H-M   'P 1'
_symmetry_Int_Tables_number      1
_space_group_name_Hall           'P 1'
loop_
_symmetry_equiv_pos_site_id
_symmetry_equiv_pos_as_xyz
1 x,y,z
_cell_length_a                   26.6200(12)
_cell_length_b                   26.6200(12)
_cell_length_c                   7.7505(4)
_cell_angle_alpha                90
_cell_angle_beta                 90
_cell_angle_gamma                120
_cell_volume                     4756.38
loop_
_atom_site_label
_atom_site_type_symbol
_atom_site_fract_x
_atom_site_fract_y
_atom_site_fract_z
C13 C 0.0323(3) 0.7565(4) 0.1759(8)
N2 N 0.0877(2) 0.7929(2) 0.1396(6)
H10 H 0.0224 0.7428 0.2909
Cu2 Cu 0.1666 0.8333 0.3333
Cu3 Cu 0.4999 0.5000 1.0000
Cu1 Cu 0.1666 0.3334 0.3334
O1 O 0.09579(18) 0.30158(19) 0.1936(5)
C1 C 0.0468(2) 0.2601(3) 0.2410(7)
C7 C 0.0365(3) 0.2272(3) 0.3892(9)
C8 C 0.0799(2) 0.2284(3) 0.4962(8)
O2 O 0.1329(2) 0.2639(2) 0.4852(6)
C9 C 0.0605(4) 0.1823(4) 0.6334(12)
H6 H 0.0901 0.1713 0.6529
H7 H 0.0547 0.1987 0.7398
H8 H 0.0239 0.1480 0.6001
O3 O 0.23754(18) 0.36509(19) 0.4731(5)
C10 C 0.2865(2) 0.4066(3) 0.4257(7)
C11 C 0.3350(2) 0.4235(3) 0.5530(6)
C12 C 0.3222(3) 0.4047(3) 0.7224(7)
C13_2 C 0.3656(3) 0.4232(4) 0.8426(8)
N2_2 N 0.4210(2) 0.4596(2) 0.8063(6)
C14 C 0.4333(3) 0.4769(3) 0.6419(7)
C15 C 0.3922(2) 0.4600(3) 0.5133(7)
C16 C 0.2968(3) 0.4395(3) 0.2775(9)
C17 C 0.2534(2) 0.4383(3) 0.1705(8)
O4 O 0.2004(2) 0.4028(2) 0.1815(6)
C18 C 0.2728(4) 0.4844(4) 0.0333(12)
H9 H 0.2832 0.3788 0.7554
H10_2 H 0.3557 0.4095 0.9576
H11 H 0.4728 0.5015 0.6113
H12 H 0.4033 0.4740 0.3989
H13 H 0.3361 0.4651 0.2472
H14 H 0.2432 0.4954 0.0138
H16 H 0.3094 0.5187 0.0666
N3 N 0.1263(2) 0.3719(3) 0.5270(6)
N4 N 0.2071(2) 0.2947(3) 0.1396(6)
Cu1_2 Cu 0.5000 1.0000 1.0000
O1_2 O 0.42913(18) 0.96824(19) 0.8602(5)
C1_2 C 0.3802(2) 0.9267(3) 0.9076(7)
C2 C 0.3317(2) 0.9098(3) 0.7803(6)
C3 C 0.3445(3) 0.9286(3) 0.6109(7)
C4 C 0.3011(3) 0.9101(4) 0.4907(8)
N1 N 0.2457(2) 0.8737(2) 0.5270(6)
C5 C 0.2334(3) 0.8564(3) 0.6914(7)
C6 C 0.2745(2) 0.8733(3) 0.8200(7)
H1 H 0.3835 0.9545 0.5779
H2 H 0.3110 0.9238 0.3757
H3 H 0.1939 0.8318 0.7220
H4 H 0.2634 0.8593 0.9344
N4_2 N 0.5404(2) 0.9614(3) 0.8063(6)
H7_2 H 0.4680 0.1894 0.0731
C12_2 C 0.2620(3) 0.2508(4) 0.0557(7)
C13_3 C 0.2435(4) 0.2757(5) 0.1759(8)
H9_2 H 0.2879 0.2377 0.0887
H10_3 H 0.2572 0.2795 0.2909
Cu1_3 Cu 0.6666 0.8333 0.3334
O1_3 O 0.69842(19) 0.79422(26) 0.1936(5)
C1_3 C 0.7399(3) 0.7868(4) 0.2410(7)
C2_2 C 0.7568(3) 0.7552(4) 0.1137(6)
C5_2 C 0.8102(3) 0.7103(4) 0.0248(7)
C6_2 C 0.7933(3) 0.7345(4) 0.1534(7)
C7_2 C 0.7728(3) 0.8094(4) 0.3892(9)
C8_2 C 0.7716(3) 0.8516(4) 0.4962(8)
O2_2 O 0.7361(2) 0.8691(3) 0.4852(6)
C9_2 C 0.8177(4) 0.8783(6) 0.6334(12)
H3_2 H 0.8348 0.6954 0.0554
H4_2 H 0.8073 0.7374 0.2678
H5 H 0.7984 0.7957 0.4195
H6_2 H 0.8287 0.9189 0.6529
H7_3 H 0.8013 0.8561 0.7398
H8_2 H 0.8520 0.8760 0.6001
O3_2 O 0.63491(19) 0.87245(26) 0.4731(5)
C10_2 C 0.5934(3) 0.8799(4) 0.4257(7)
C11_2 C 0.5765(3) 0.9115(4) 0.5530(6)
C12_3 C 0.5953(3) 0.9175(4) 0.7224(7)
C13_4 C 0.5768(4) 0.9424(5) 0.8426(8)
C14_2 C 0.5231(3) 0.9564(4) 0.6419(7)
C15_2 C 0.5400(3) 0.9322(4) 0.5133(7)
C16_2 C 0.5605(3) 0.8573(4) 0.2775(9)
C17_2 C 0.5617(3) 0.8151(4) 0.1705(8)
O4_2 O 0.5972(2) 0.7976(3) 0.1815(6)
C18_2 C 0.5156(4) 0.7884(6) 0.0333(12)
H9_3 H 0.6212 0.9044 0.7554
H10_4 H 0.5905 0.9462 0.9576
H11_2 H 0.4985 0.9713 0.6113
H12_2 H 0.5260 0.9293 0.3989
H13_2 H 0.5349 0.8710 0.2472
H14_2 H 0.5046 0.7478 0.0138
H16_2 H 0.4813 0.7907 0.0666
N3_2 N 0.6281(3) 0.7543(4) 0.5270(6)
N4_3 N 0.7053(3) 0.9123(4) 0.1396(6)
Cu1_4 Cu -0.0000 0.4999 1.0000
O1_4 O 0.03176(19) 0.46088(26) 0.8602(5)
C1_4 C 0.0733(3) 0.4534(4) 0.9076(7)
C2_3 C 0.0902(3) 0.4218(4) 0.7803(6)
C3_2 C 0.0714(3) 0.4158(4) 0.6109(7)
C4_2 C 0.0899(4) 0.3909(5) 0.4907(8)
C5_3 C 0.1436(3) 0.3769(4) 0.6914(7)
C6_3 C 0.1267(3) 0.4011(4) 0.8200(7)
H1_2 H 0.0455 0.4289 0.5779
H2_2 H 0.0762 0.3871 0.3757
H3_3 H 0.1682 0.3620 0.7220
H4_3 H 0.1407 0.4040 0.9344
N4_4 N 0.0386(3) 0.5790(4) 0.8063(6)
C13_5 C 0.7243(5) 0.9677(3) 0.1759(8)
H10_5 H 0.7205 0.9776 0.2909
O1_5 O 0.20578(26) 0.90421(18) 0.1936(5)
C1_5 C 0.2132(4) 0.9532(2) 0.2410(7)
C7_3 C 0.1906(4) 0.9635(3) 0.3892(9)
C8_3 C 0.1484(4) 0.9201(2) 0.4962(8)
O2_3 O 0.1309(3) 0.8671(2) 0.4852(6)
C9_3 C 0.1217(6) 0.9395(4) 0.6334(12)
H6_3 H 0.0811 0.9099 0.6529
H7_4 H 0.1439 0.9453 0.7398
H8_3 H 0.1240 0.9761 0.6001
O3_3 O 0.12755(26) 0.76246(18) 0.4731(5)
C10_3 C 0.1201(4) 0.7135(2) 0.4257(7)
C11_3 C 0.0885(4) 0.6650(2) 0.5530(6)
C12_4 C 0.0825(4) 0.6778(3) 0.7224(7)
C13_6 C 0.0576(5) 0.6344(3) 0.8426(8)
C14_3 C 0.0436(4) 0.5667(3) 0.6419(7)
C15_3 C 0.0678(4) 0.6078(2) 0.5133(7)
C16_3 C 0.1427(4) 0.7032(3) 0.2775(9)
C17_3 C 0.1849(4) 0.7466(2) 0.1705(8)
O4_3 O 0.2024(3) 0.7996(2) 0.1815(6)
C18_3 C 0.2116(6) 0.7272(4) 0.0333(12)
H9_4 H 0.0956 0.7168 0.7554
H10_6 H 0.0538 0.6443 0.9576
H11_3 H 0.0287 0.5272 0.6113
H12_3 H 0.0707 0.5967 0.3989
H13_3 H 0.1290 0.6639 0.2472
H14_3 H 0.2522 0.7568 0.0138
H16_3 H 0.2093 0.6906 0.0666
O1_6 O 0.53912(26) 0.57087(18) 0.8602(5)
C1_6 C 0.5466(4) 0.6198(2) 0.9076(7)
C2_4 C 0.5782(4) 0.6683(2) 0.7803(6)
C3_3 C 0.5842(4) 0.6555(3) 0.6109(7)
C4_3 C 0.6091(5) 0.6989(3) 0.4907(8)
C5_4 C 0.6231(4) 0.7666(3) 0.6914(7)
C6_4 C 0.5989(4) 0.7255(2) 0.8200(7)
H1_3 H 0.5711 0.6165 0.5779
H2_3 H 0.6129 0.6890 0.3757
H3_4 H 0.6380 0.8061 0.7220
H4_4 H 0.5960 0.7366 0.9344
C16_4 C 0.4760(4) 0.3699(3) 0.9442(9)
C17_4 C 0.5182(4) 0.4133(2) 0.8372(8)
O4_4 O 0.5357(3) 0.4663(2) 0.8482(6)
C18_4 C 0.5449(6) 0.3939(4) 0.7000(12)
H13_4 H 0.4623 0.3306 0.9139
H14_4 H 0.5855 0.4235 0.6805
H15 H 0.5227 0.3881 0.5936
H16_4 H 0.5426 0.3573 0.7333
C11_4 C 0.0017(2) 0.7568(3) 0.8863(6)
C14_4 C 0.1000(3) 0.8102(3) 0.9752(7)
C15_4 C 0.0589(2) 0.7933(3) 0.8466(7)
H11_4 H 0.1395 0.8348 0.9446
H12_4 H 0.0700 0.8073 0.7322
H13_5 H 0.0028 0.7984 0.5805
H7_5 H 0.7214 0.5320 0.0731
C12_5 C 0.9889(3) 0.7380(3) 0.0557(7)
H9_5 H 0.9499 0.7121 0.0887
Cu1_5 Cu 0.8333 0.6667 0.6667
O1_7 O 0.76246(18) 0.63491(19) 0.5269(5)
C1_7 C 0.7135(2) 0.5934(3) 0.5743(7)
C2_5 C 0.6650(2) 0.5765(3) 0.4470(6)
C3_4 C 0.6778(3) 0.5953(3) 0.2776(7)
C4_4 C 0.6344(3) 0.5768(4) 0.1574(8)
N1_2 N 0.5790(2) 0.5404(2) 0.1937(6)
C5_5 C 0.5667(3) 0.5231(3) 0.3581(7)
C6_5 C 0.6078(2) 0.5400(3) 0.4867(7)
C7_4 C 0.7032(3) 0.5605(3) 0.7225(9)
C8_4 C 0.7466(2) 0.5617(3) 0.8295(8)
O2_4 O 0.7996(2) 0.5972(2) 0.8185(6)
C9_4 C 0.7272(4) 0.5156(4) 0.9667(12)
H1_4 H 0.7168 0.6212 0.2446
H2_4 H 0.6443 0.5905 0.0424
H3_5 H 0.5272 0.4985 0.3887
H4_5 H 0.5967 0.5260 0.6011
H5_2 H 0.6639 0.5349 0.7528
H6_4 H 0.7568 0.5046 0.9862
H8_4 H 0.6906 0.4813 0.9334
O3_4 O 0.90421(18) 0.69842(19) 0.8064(5)
C10_4 C 0.9532(2) 0.7399(3) 0.7590(7)
C16_5 C 0.9635(3) 0.7728(3) 0.6108(9)
C17_5 C 0.9201(2) 0.7716(3) 0.5038(8)
O4_5 O 0.8671(2) 0.7361(2) 0.5148(6)
C18_5 C 0.9395(4) 0.8177(4) 0.3666(12)
H14_5 H 0.9099 0.8287 0.3471
H15_2 H 0.9453 0.8013 0.2602
H16_5 H 0.9761 0.8520 0.3999
Cu3_2 Cu 0.4999 0.5000 -0.0000
N3_3 N 0.7929(2) 0.7053(3) 0.8604(6)
N4_5 N 0.8737(2) 0.6281(3) 0.4730(6)
C4_5 C 0.9677(3) 0.2435(4) 0.8241(8)
N1_3 N 0.9123(2) 0.2071(2) 0.8604(6)
H2_5 H 0.9776 0.2572 0.7091
Cu3_3 Cu 0.8333 0.1666 0.6666
Cu1_6 Cu 0.5000 0.0000 0.0000
O3_5 O 0.57087(18) 0.03176(19) 0.1398(5)
C10_5 C 0.6198(2) 0.0733(3) 0.0924(7)
C11_5 C 0.6683(2) 0.0902(3) 0.2197(6)
C12_6 C 0.6555(3) 0.0714(3) 0.3891(7)
C13_7 C 0.6989(3) 0.0899(4) 0.5093(8)
N2_3 N 0.7543(2) 0.1263(2) 0.4730(6)
C14_5 C 0.7666(3) 0.1436(3) 0.3086(7)
C15_5 C 0.7255(2) 0.1267(3) 0.1800(7)
H9_6 H 0.6165 0.0455 0.4221
H10_7 H 0.6890 0.0762 0.6243
H11_5 H 0.8061 0.1682 0.2780
H12_5 H 0.7366 0.1407 0.0656
N3_4 N 0.4596(2) 0.0386(3) 0.1937(6)
Cu1_7 Cu 0.3333 0.1666 0.6667
O1_8 O 0.36509(19) 0.12755(26) 0.5269(5)
C1_8 C 0.4066(3) 0.1201(4) 0.5743(7)
C2_6 C 0.4235(3) 0.0885(4) 0.4470(6)
C3_5 C 0.4047(3) 0.0825(4) 0.2776(7)
C4_6 C 0.4232(4) 0.0576(5) 0.1574(8)
C5_6 C 0.4769(3) 0.0436(4) 0.3581(7)
C6_6 C 0.4600(3) 0.0678(4) 0.4867(7)
C7_5 C 0.4395(3) 0.1427(4) 0.7225(9)
C8_5 C 0.4383(3) 0.1849(4) 0.8295(8)
O2_5 O 0.4028(2) 0.2024(3) 0.8185(6)
C9_5 C 0.4844(4) 0.2116(6) 0.9667(12)
H1_5 H 0.3788 0.0956 0.2446
H2_6 H 0.4095 0.0538 0.0424
H3_6 H 0.5015 0.0287 0.3887
H4_6 H 0.4740 0.0707 0.6011
H5_3 H 0.4651 0.1290 0.7528
H6_5 H 0.4954 0.2522 0.9862
H8_5 H 0.5187 0.2093 0.9334
O3_6 O 0.30158(19) 0.20578(26) 0.8064(5)
C10_6 C 0.2601(3) 0.2132(4) 0.7590(7)
C11_6 C 0.2432(3) 0.2448(4) 0.8863(6)
C14_6 C 0.1898(3) 0.2897(4) 0.9752(7)
C15_6 C 0.2067(3) 0.2655(4) 0.8466(7)
C16_6 C 0.2272(3) 0.1906(4) 0.6108(9)
C17_6 C 0.2284(3) 0.1484(4) 0.5038(8)
O4_6 O 0.2639(2) 0.1309(3) 0.5148(6)
C18_6 C 0.1823(4) 0.1217(6) 0.3666(12)
H11_6 H 0.1652 0.3046 0.9446
H12_6 H 0.1927 0.2626 0.7322
H13_6 H 0.2016 0.2043 0.5805
H14_6 H 0.1713 0.0811 0.3471
H15_3 H 0.1987 0.1439 0.2602
H16_6 H 0.1480 0.1240 0.3999
N3_5 N 0.2947(3) 0.0877(4) 0.8604(6)
N4_6 N 0.3719(3) 0.2457(4) 0.4730(6)
C3_6 C 0.7380(3) 0.7492(4) 0.9443(7)
C4_7 C 0.7565(4) 0.7243(5) 0.8241(8)
H1_6 H 0.7121 0.7623 0.9113
H2_7 H 0.7428 0.7205 0.7091
H15_4 H 0.5320 0.8106 0.9269
Cu1_8 Cu 1.0000 0.4999 0.0000
O3_7 O 0.96824(19) 0.53912(26) 0.1398(5)
C10_7 C 0.9267(3) 0.5466(4) 0.0924(7)
C11_7 C 0.9098(3) 0.5782(4) 0.2197(6)
C12_7 C 0.9286(3) 0.5842(4) 0.3891(7)
C13_8 C 0.9101(4) 0.6091(5) 0.5093(8)
C14_7 C 0.8564(3) 0.6231(4) 0.3086(7)
C15_7 C 0.8733(3) 0.5989(4) 0.1800(7)
H9_7 H 0.9545 0.5711 0.4221
H10_8 H 0.9238 0.6129 0.6243
H11_7 H 0.8318 0.6380 0.2780
H12_7 H 0.8593 0.5960 0.0656
N3_6 N 0.9614(3) 0.4210(4) 0.1937(6)
O1_9 O 0.87245(26) 0.23754(18) 0.5269(5)
C1_9 C 0.8799(4) 0.2865(2) 0.5743(7)
C2_7 C 0.9115(4) 0.3350(2) 0.4470(6)
C3_7 C 0.9175(4) 0.3222(3) 0.2776(7)
C4_8 C 0.9424(5) 0.3656(3) 0.1574(8)
C5_7 C 0.9564(4) 0.4333(3) 0.3581(7)
C6_7 C 0.9322(4) 0.3922(2) 0.4867(7)
C7_6 C 0.8573(4) 0.2968(3) 0.7225(9)
C8_6 C 0.8151(4) 0.2534(2) 0.8295(8)
O2_6 O 0.7976(3) 0.2004(2) 0.8185(6)
C9_6 C 0.7884(6) 0.2728(4) 0.9667(12)
H1_7 H 0.9044 0.2832 0.2446
H2_8 H 0.9462 0.3557 0.0424
H3_7 H 0.9713 0.4728 0.3887
H4_7 H 0.9293 0.4033 0.6011
H5_4 H 0.8710 0.3361 0.7528
H6_6 H 0.7478 0.2432 0.9862
H8_6 H 0.7907 0.3094 0.9334
O3_8 O 0.79422(26) 0.09579(18) 0.8064(5)
C10_8 C 0.7868(4) 0.0468(2) 0.7590(7)
C16_7 C 0.8094(4) 0.0365(3) 0.6108(9)
C17_7 C 0.8516(4) 0.0799(2) 0.5038(8)
O4_7 O 0.8691(3) 0.1329(2) 0.5148(6)
C18_7 C 0.8783(6) 0.0605(4) 0.3666(12)
H14_7 H 0.9189 0.0901 0.3471
H15_5 H 0.8561 0.0547 0.2602
H16_7 H 0.8760 0.0239 0.3999
C4_9 C 0.2757(5) 0.0323(3) 0.8241(8)
H2_9 H 0.2795 0.0224 0.7091
C7_7 C 0.5240(4) 0.6301(3) 0.0558(9)
C8_7 C 0.4818(4) 0.5867(2) 0.1628(8)
O2_7 O 0.4643(3) 0.5337(2) 0.1518(6)
C9_7 C 0.4551(6) 0.6061(4) 0.3000(12)
H5_5 H 0.5377 0.6694 0.0861
H6_7 H 0.4145 0.5765 0.3195
H7_6 H 0.4773 0.6119 0.4064
H8_7 H 0.4574 0.6427 0.2667
O3_9 O 0.46088(26) 0.42913(18) 0.1398(5)
C10_9 C 0.4534(4) 0.3802(2) 0.0924(7)
C11_8 C 0.4218(4) 0.3317(2) 0.2197(6)
C12_8 C 0.4158(4) 0.3445(3) 0.3891(7)
C13_9 C 0.3909(5) 0.3011(3) 0.5093(8)
C14_8 C 0.3769(4) 0.2334(3) 0.3086(7)
C15_8 C 0.4011(4) 0.2745(2) 0.1800(7)
H9_8 H 0.4289 0.3835 0.4221
H10_9 H 0.3871 0.3110 0.6243
H11_8 H 0.3620 0.1939 0.2780
H12_8 H 0.4040 0.2634 0.0656
C3_8 C 0.0111(3) 0.2620(3) 0.9443(7)
H1_8 H 0.0501 0.2879 0.9113
H15_6 H 0.2786 0.4680 0.9269
C2_8 C 0.9983(2) 0.2432(3) 0.1137(6)
C5_8 C 0.9000(3) 0.1898(3) 0.0248(7)
C6_8 C 0.9411(2) 0.2067(3) 0.1534(7)
H3_8 H 0.8605 0.1652 0.0554
H4_8 H 0.9300 0.1927 0.2678
H5_6 H 0.9972 0.2016 0.4195
Cu1_9 Cu 0.5000 0.0000 1.0000
C16_8 C 0.6301(3) 0.1062(3) 0.9442(9)
C17_8 C 0.5867(2) 0.1050(3) 0.8372(8)
O4_8 O 0.5337(2) 0.0695(2) 0.8482(6)
C18_8 C 0.6061(4) 0.1511(4) 0.7000(12)
H13_7 H 0.6694 0.1318 0.9139
H14_8 H 0.5765 0.1621 0.6805
H15_7 H 0.6119 0.1347 0.5936
H16_8 H 0.6427 0.1854 0.7333
Cu1_10 Cu 0.5000 1.0000 0.0000
C7_8 C 0.3699(3) 0.8938(3) 0.0558(9)
C8_8 C 0.4133(2) 0.8950(3) 0.1628(8)
O2_8 O 0.4663(2) 0.9305(2) 0.1518(6)
C9_8 C 0.3939(4) 0.8489(4) 0.3000(12)
H5_7 H 0.3306 0.8682 0.0861
H6_8 H 0.4235 0.8379 0.3195
H7_7 H 0.3881 0.8653 0.4064
H8_8 H 0.3573 0.8146 0.2667
Cu1_11 Cu -0.0000 0.4999 0.0000
C7_9 C 0.1062(3) 0.4760(4) 0.0558(9)
C8_9 C 0.1050(3) 0.5182(4) 0.1628(8)
O2_9 O 0.0695(2) 0.5357(3) 0.1518(6)
C9_9 C 0.1511(4) 0.5449(6) 0.3000(12)
H5_8 H 0.1318 0.4623 0.0861
H6_9 H 0.1621 0.5855 0.3195
H7_8 H 0.1347 0.5227 0.4064
H8_9 H 0.1854 0.5426 0.2667
Cu1_12 Cu 1.0000 0.4999 1.0000
C16_9 C 0.8938(3) 0.5240(4) 0.9442(9)
C17_9 C 0.8950(3) 0.4818(4) 0.8372(8)
O4_9 O 0.9305(2) 0.4643(3) 0.8482(6)
C18_9 C 0.8489(4) 0.4551(6) 0.7000(12)
H13_8 H 0.8682 0.5377 0.9139
H14_9 H 0.8379 0.4145 0.6805
H15_8 H 0.8653 0.4773 0.5936
H16_9 H 0.8146 0.4574 0.7333
H7_9 H 0.8106 0.2786 0.0731
C12_9 C 0.7492(4) 0.0111(3) 0.0557(7)
H9_9 H 0.7623 0.0501 0.0887
C11_9 C 0.7552(4) 0.9983(2) 0.8863(6)
C14_9 C 0.7103(4) 0.9000(3) 0.9752(7)
C15_9 C 0.7345(4) 0.9411(2) 0.8466(7)
H11_9 H 0.6954 0.8605 0.9446
H12_9 H 0.7374 0.9300 0.7322
H13_9 H 0.7957 0.9972 0.5805
C2_9 C 0.2448(4) 0.0017(2) 0.1137(6)
C5_9 C 0.2897(4) 0.1000(3) 0.0248(7)
C6_9 C 0.2655(4) 0.0589(2) 0.1534(7)
H3_9 H 0.3046 0.1395 0.0554
H4_9 H 0.2626 0.0700 0.2678
H5_9 H 0.2043 0.0028 0.4195
C3_9 C 0.2508(4) 0.9889(3) 0.9443(7)
H1_9 H 0.2377 0.9499 0.9113
H15_9 H 0.1894 0.7214 0.9269
loop_
_geom_bond_atom_site_label_1
_geom_bond_atom_site_label_2
_geom_bond_site_symmetry_1
_geom_bond_site_symmetry_2
N2 C13 1_555 1_555
H10 C13 1_555 1_555
Cu2 N2 1_555 1_555
Cu1 O1 1_555 1_555
O1 C1 1_555 1_555
C7 C1 1_555 1_555
C8 C7 1_555 1_555
O2 Cu1 1_555 1_555
C9 C8 1_555 1_555
H6 C9 1_555 1_555
H7 C9 1_555 1_555
H8 C9 1_555 1_555
O3 Cu1 1_555 1_555
C10 O3 1_555 1_555
C11 C10 1_555 1_555
C12 C11 1_555 1_555
C13_2 C12 1_555 1_555
N2_2 C13_2 1_555 1_555
C14 N2_2 1_555 1_555
C15 C11 1_555 1_555
C16 C10 1_555 1_555
C17 C16 1_555 1_555
O4 Cu1 1_555 1_555
C18 C17 1_555 1_555
H9 C12 1_555 1_555
H10_2 C13_2 1_555 1_555
H11 C14 1_555 1_555
H12 C15 1_555 1_555
H13 C16 1_555 1_555
H14 C18 1_555 1_555
H16 C18 1_555 1_555
Cu3 N2_2 1_555 1_555
N3 Cu1 1_555 1_555
N4 Cu1 1_555 1_555
C8 O2 1_555 1_555
C14 C15 1_555 1_555
C17 O4 1_555 1_555
Cu1_2 O1_2 1_555 1_555
O1_2 C1_2 1_555 1_555
C1_2 C2 1_555 1_555
C2 C3 1_555 1_555
C3 C4 1_555 1_555
C4 N1 1_555 1_555
N1 C5 1_555 1_555
C5 C6 1_555 1_555
C6 C2 1_555 1_555
H1 C3 1_555 1_555
H2 C4 1_555 1_555
H3 C5 1_555 1_555
H4 C6 1_555 1_555
Cu2 N1 1_555 1_555
N4_2 Cu1_2 1_555 1_555
C13_3 C12_2 1_555 1_555
N4 C13_3 1_555 1_555
H9_2 C12_2 1_555 1_555
H10_3 C13_3 1_555 1_555
Cu1_3 O1_3 1_555 1_555
O1_3 C1_3 1_555 1_555
C1_3 C2_2 1_555 1_555
C5_2 C6_2 1_555 1_555
C6_2 C2_2 1_555 1_555
C7_2 C1_3 1_555 1_555
C8_2 C7_2 1_555 1_555
O2_2 Cu1_3 1_555 1_555
C9_2 C8_2 1_555 1_555
H3_2 C5_2 1_555 1_555
H4_2 C6_2 1_555 1_555
H5 C7_2 1_555 1_555
H6_2 C9_2 1_555 1_555
H7_3 C9_2 1_555 1_555
H8_2 C9_2 1_555 1_555
O3_2 Cu1_3 1_555 1_555
C10_2 O3_2 1_555 1_555
C11_2 C10_2 1_555 1_555
C12_3 C11_2 1_555 1_555
C13_4 C12_3 1_555 1_555
N4_2 C13_4 1_555 1_555
C14_2 N4_2 1_555 1_555
C15_2 C11_2 1_555 1_555
C16_2 C10_2 1_555 1_555
C17_2 C16_2 1_555 1_555
O4_2 Cu1_3 1_555 1_555
C18_2 C17_2 1_555 1_555
H9_3 C12_3 1_555 1_555
H10_4 C13_4 1_555 1_555
H11_2 C14_2 1_555 1_555
H12_2 C15_2 1_555 1_555
H13_2 C16_2 1_555 1_555
H14_2 C18_2 1_555 1_555
H16_2 C18_2 1_555 1_555
N3_2 Cu1_3 1_555 1_555
N4_3 Cu1_3 1_555 1_555
C8_2 O2_2 1_555 1_555
C14_2 C15_2 1_555 1_555
C17_2 O4_2 1_555 1_555
Cu1_4 O1_4 1_555 1_555
O1_4 C1_4 1_555 1_555
C1_4 C2_3 1_555 1_555
C2_3 C3_2 1_555 1_555
C3_2 C4_2 1_555 1_555
C4_2 N3 1_555 1_555
N3 C5_3 1_555 1_555
C5_3 C6_3 1_555 1_555
C6_3 C2_3 1_555 1_555
H1_2 C3_2 1_555 1_555
H2_2 C4_2 1_555 1_555
H3_3 C5_3 1_555 1_555
H4_3 C6_3 1_555 1_555
N4_4 Cu1_4 1_555 1_555
N4_3 C13_5 1_555 1_555
H10_5 C13_5 1_555 1_555
Cu2 O1_5 1_555 1_555
O1_5 C1_5 1_555 1_555
C7_3 C1_5 1_555 1_555
C8_3 C7_3 1_555 1_555
O2_3 Cu2 1_555 1_555
C9_3 C8_3 1_555 1_555
H6_3 C9_3 1_555 1_555
H7_4 C9_3 1_555 1_555
H8_3 C9_3 1_555 1_555
O3_3 Cu2 1_555 1_555
C10_3 O3_3 1_555 1_555
C11_3 C10_3 1_555 1_555
C12_4 C11_3 1_555 1_555
C13_6 C12_4 1_555 1_555
N4_4 C13_6 1_555 1_555
C14_3 N4_4 1_555 1_555
C15_3 C11_3 1_555 1_555
C16_3 C10_3 1_555 1_555
C17_3 C16_3 1_555 1_555
O4_3 Cu2 1_555 1_555
C18_3 C17_3 1_555 1_555
H9_4 C12_4 1_555 1_555
H10_6 C13_6 1_555 1_555
H11_3 C14_3 1_555 1_555
H12_3 C15_3 1_555 1_555
H13_3 C16_3 1_555 1_555
H14_3 C18_3 1_555 1_555
H16_3 C18_3 1_555 1_555
C8_3 O2_3 1_555 1_555
C14_3 C15_3 1_555 1_555
C17_3 O4_3 1_555 1_555
Cu3 O1_6 1_555 1_555
O1_6 C1_6 1_555 1_555
C1_6 C2_4 1_555 1_555
C2_4 C3_3 1_555 1_555
C3_3 C4_3 1_555 1_555
C4_3 N3_2 1_555 1_555
N3_2 C5_4 1_555 1_555
C5_4 C6_4 1_555 1_555
C6_4 C2_4 1_555 1_555
H1_3 C3_3 1_555 1_555
H2_3 C4_3 1_555 1_555
H3_4 C5_4 1_555 1_555
H4_4 C6_4 1_555 1_555
C17_4 C16_4 1_555 1_555
O4_4 Cu3 1_555 1_555
C18_4 C17_4 1_555 1_555
H13_4 C16_4 1_555 1_555
H14_4 C18_4 1_555 1_555
H15 C18_4 1_555 1_555
H16_4 C18_4 1_555 1_555
C17_4 O4_4 1_555 1_555
C15_4 C11_4 1_555 1_555
H11_4 C14_4 1_555 1_555
H12_4 C15_4 1_555 1_555
C14_4 C15_4 1_555 1_555
H9_5 C12_5 1_555 1_555
Cu1_5 O1_7 1_555 1_555
O1_7 C1_7 1_555 1_555
C1_7 C2_5 1_555 1_555
C2_5 C3_4 1_555 1_555
C3_4 C4_4 1_555 1_555
C4_4 N1_2 1_555 1_555
N1_2 C5_5 1_555 1_555
C5_5 C6_5 1_555 1_555
C6_5 C2_5 1_555 1_555
C7_4 C1_7 1_555 1_555
C8_4 C7_4 1_555 1_555
O2_4 Cu1_5 1_555 1_555
C9_4 C8_4 1_555 1_555
H1_4 C3_4 1_555 1_555
H2_4 C4_4 1_555 1_555
H3_5 C5_5 1_555 1_555
H4_5 C6_5 1_555 1_555
H5_2 C7_4 1_555 1_555
H6_4 C9_4 1_555 1_555
H8_4 C9_4 1_555 1_555
O3_4 Cu1_5 1_555 1_555
C10_4 O3_4 1_555 1_555
C16_5 C10_4 1_555 1_555
C17_5 C16_5 1_555 1_555
O4_5 Cu1_5 1_555 1_555
C18_5 C17_5 1_555 1_555
H14_5 C18_5 1_555 1_555
H15_2 C18_5 1_555 1_555
H16_5 C18_5 1_555 1_555
Cu3_2 N1_2 1_555 1_555
N3_3 Cu1_5 1_555 1_555
N4_5 Cu1_5 1_555 1_555
C8_4 O2_4 1_555 1_555
C17_5 O4_5 1_555 1_555
C4_5 N1_3 1_555 1_555
H2_5 C4_5 1_555 1_555
Cu3_3 N1_3 1_555 1_555
O3_5 Cu1_6 1_555 1_555
C10_5 O3_5 1_555 1_555
C11_5 C10_5 1_555 1_555
C12_6 C11_5 1_555 1_555
C13_7 C12_6 1_555 1_555
N2_3 C13_7 1_555 1_555
C14_5 N2_3 1_555 1_555
C15_5 C11_5 1_555 1_555
H9_6 C12_6 1_555 1_555
H10_7 C13_7 1_555 1_555
H11_5 C14_5 1_555 1_555
H12_5 C15_5 1_555 1_555
Cu3_3 N2_3 1_555 1_555
N3_4 Cu1_6 1_555 1_555
C14_5 C15_5 1_555 1_555
Cu1_7 O1_8 1_555 1_555
O1_8 C1_8 1_555 1_555
C1_8 C2_6 1_555 1_555
C2_6 C3_5 1_555 1_555
C3_5 C4_6 1_555 1_555
C4_6 N3_4 1_555 1_555
N3_4 C5_6 1_555 1_555
C5_6 C6_6 1_555 1_555
C6_6 C2_6 1_555 1_555
C7_5 C1_8 1_555 1_555
C8_5 C7_5 1_555 1_555
O2_5 Cu1_7 1_555 1_555
C9_5 C8_5 1_555 1_555
H1_5 C3_5 1_555 1_555
H2_6 C4_6 1_555 1_555
H3_6 C5_6 1_555 1_555
H4_6 C6_6 1_555 1_555
H5_3 C7_5 1_555 1_555
H6_5 C9_5 1_555 1_555
H8_5 C9_5 1_555 1_555
O3_6 Cu1_7 1_555 1_555
C10_6 O3_6 1_555 1_555
C11_6 C10_6 1_555 1_555
C15_6 C11_6 1_555 1_555
C16_6 C10_6 1_555 1_555
C17_6 C16_6 1_555 1_555
O4_6 Cu1_7 1_555 1_555
C18_6 C17_6 1_555 1_555
H11_6 C14_6 1_555 1_555
H12_6 C15_6 1_555 1_555
H13_6 C16_6 1_555 1_555
H14_6 C18_6 1_555 1_555
H15_3 C18_6 1_555 1_555
H16_6 C18_6 1_555 1_555
N3_5 Cu1_7 1_555 1_555
N4_6 Cu1_7 1_555 1_555
C8_5 O2_5 1_555 1_555
C14_6 C15_6 1_555 1_555
C17_6 O4_6 1_555 1_555
C3_6 C4_7 1_555 1_555
C4_7 N3_3 1_555 1_555
H1_6 C3_6 1_555 1_555
H2_7 C4_7 1_555 1_555
O3_7 Cu1_8 1_555 1_555
C10_7 O3_7 1_555 1_555
C11_7 C10_7 1_555 1_555
C12_7 C11_7 1_555 1_555
C13_8 C12_7 1_555 1_555
N4_5 C13_8 1_555 1_555
C14_7 N4_5 1_555 1_555
C15_7 C11_7 1_555 1_555
H9_7 C12_7 1_555 1_555
H10_8 C13_8 1_555 1_555
H11_7 C14_7 1_555 1_555
H12_7 C15_7 1_555 1_555
N3_6 Cu1_8 1_555 1_555
C14_7 C15_7 1_555 1_555
Cu3_3 O1_9 1_555 1_555
O1_9 C1_9 1_555 1_555
C1_9 C2_7 1_555 1_555
C2_7 C3_7 1_555 1_555
C3_7 C4_8 1_555 1_555
C4_8 N3_6 1_555 1_555
N3_6 C5_7 1_555 1_555
C5_7 C6_7 1_555 1_555
C6_7 C2_7 1_555 1_555
C7_6 C1_9 1_555 1_555
C8_6 C7_6 1_555 1_555
O2_6 Cu3_3 1_555 1_555
C9_6 C8_6 1_555 1_555
H1_7 C3_7 1_555 1_555
H2_8 C4_8 1_555 1_555
H3_7 C5_7 1_555 1_555
H4_7 C6_7 1_555 1_555
H5_4 C7_6 1_555 1_555
H6_6 C9_6 1_555 1_555
H8_6 C9_6 1_555 1_555
O3_8 Cu3_3 1_555 1_555
C10_8 O3_8 1_555 1_555
C16_7 C10_8 1_555 1_555
C17_7 C16_7 1_555 1_555
O4_7 Cu3_3 1_555 1_555
C18_7 C17_7 1_555 1_555
H14_7 C18_7 1_555 1_555
H15_5 C18_7 1_555 1_555
H16_7 C18_7 1_555 1_555
C8_6 O2_6 1_555 1_555
C17_7 O4_7 1_555 1_555
C4_9 N3_5 1_555 1_555
H2_9 C4_9 1_555 1_555
C8_7 C7_7 1_555 1_555
O2_7 Cu3_2 1_555 1_555
C9_7 C8_7 1_555 1_555
H5_5 C7_7 1_555 1_555
H6_7 C9_7 1_555 1_555
H7_6 C9_7 1_555 1_555
H8_7 C9_7 1_555 1_555
O3_9 Cu3_2 1_555 1_555
C10_9 O3_9 1_555 1_555
C11_8 C10_9 1_555 1_555
C12_8 C11_8 1_555 1_555
C13_9 C12_8 1_555 1_555
N4_6 C13_9 1_555 1_555
C14_8 N4_6 1_555 1_555
C15_8 C11_8 1_555 1_555
H9_8 C12_8 1_555 1_555
H10_9 C13_9 1_555 1_555
H11_8 C14_8 1_555 1_555
H12_8 C15_8 1_555 1_555
C8_7 O2_7 1_555 1_555
C14_8 C15_8 1_555 1_555
H1_8 C3_8 1_555 1_555
C5_8 C6_8 1_555 1_555
C6_8 C2_8 1_555 1_555
H3_8 C5_8 1_555 1_555
H4_8 C6_8 1_555 1_555
C17_8 C16_8 1_555 1_555
O4_8 Cu1_9 1_555 1_555
C18_8 C17_8 1_555 1_555
H13_7 C16_8 1_555 1_555
H14_8 C18_8 1_555 1_555
H15_7 C18_8 1_555 1_555
H16_8 C18_8 1_555 1_555
C17_8 O4_8 1_555 1_555
C8_8 C7_8 1_555 1_555
O2_8 Cu1_10 1_555 1_555
C9_8 C8_8 1_555 1_555
H5_7 C7_8 1_555 1_555
H6_8 C9_8 1_555 1_555
H7_7 C9_8 1_555 1_555
H8_8 C9_8 1_555 1_555
C8_8 O2_8 1_555 1_555
C8_9 C7_9 1_555 1_555
O2_9 Cu1_11 1_555 1_555
C9_9 C8_9 1_555 1_555
H5_8 C7_9 1_555 1_555
H6_9 C9_9 1_555 1_555
H7_8 C9_9 1_555 1_555
H8_9 C9_9 1_555 1_555
C8_9 O2_9 1_555 1_555
C17_9 C16_9 1_555 1_555
O4_9 Cu1_12 1_555 1_555
C18_9 C17_9 1_555 1_555
H13_8 C16_9 1_555 1_555
H14_9 C18_9 1_555 1_555
H15_8 C18_9 1_555 1_555
H16_9 C18_9 1_555 1_555
C17_9 O4_9 1_555 1_555
H9_9 C12_9 1_555 1_555
C15_9 C11_9 1_555 1_555
H11_9 C14_9 1_555 1_555
H12_9 C15_9 1_555 1_555
C14_9 C15_9 1_555 1_555
C5_9 C6_9 1_555 1_555
C6_9 C2_9 1_555 1_555
H3_9 C5_9 1_555 1_555
H4_9 C6_9 1_555 1_555
H1_9 C3_9 1_555 1_555

#END
