
###############################################################################
#
# This file contains modified crystal structure data generated from the
# MOF subset of the Cambridge Structural Database (CSD) v543 
# hosted by the Cambridge Crystallographic Data Centre (CCDC).
#
# This work is licensed under the Creative Commons
# Attribution-NonCommercial-ShareAlike 4.0 International License.
# To view a copy of this license, visit
# http://creativecommons.org/licenses/by-nc-sa/4.0/
# or send a letter to
# Creative Commons, PO Box 1866, Mountain View, CA 94042, USA.
#
# CIF created using the CSD Python API on 29 September 2022
# The structure has been converted into the P1 space group
# The structure has a 3D framework
# The original CSD entry ECAHIB14 is in the rhombohedral crystal system
# The framework has been calculated to contain at least 10.0% void space
# The void calculation uses a probe of radius 1.32A, grid spacing 0.4
#
###############################################################################

data_ECAHIB14
_chemical_formula_moiety         '(C162 H144 Cu16 N18 O36)n'
_symmetry_cell_setting           triclinic
_symmetry_space_group_name_H-M   'P 1'
_symmetry_Int_Tables_number      1
_space_group_name_Hall           'P 1'
loop_
_symmetry_equiv_pos_site_id
_symmetry_equiv_pos_as_xyz
1 x,y,z
_cell_length_a                   25.342(2)
_cell_length_b                   25.342(2)
_cell_length_c                   7.7011(5)
_cell_angle_alpha                90
_cell_angle_beta                 90
_cell_angle_gamma                120
_cell_volume                     4283.17
loop_
_atom_site_label
_atom_site_type_symbol
_atom_site_fract_x
_atom_site_fract_y
_atom_site_fract_z
C13 C 0.0397(4) 0.7604(6) 0.1850(12)
N2 N 0.0982(4) 0.7996(4) 0.1523(11)
H10 H 0.0283 0.7445 0.2992
Cu2 Cu 0.1666 0.8333 0.3333
Cu3 Cu 0.4999 0.5000 1.0000
Cu1 Cu 0.1666 0.3334 0.3334
O1 O 0.0904(3) 0.3004(4) 0.1975(11)
C1 C 0.0396(3) 0.2541(4) 0.2391(11)
C7 C 0.0266(4) 0.2198(6) 0.3876(15)
C8 C 0.0684(4) 0.2168(6) 0.5021(16)
O2 O 0.1251(4) 0.2509(4) 0.4955(12)
C9 C 0.0439(6) 0.1683(8) 0.642(2)
H6 H 0.0779 0.1726 0.7125
H7 H 0.0143 0.1717 0.7155
H8 H 0.0242 0.1285 0.5840
O3 O 0.2429(3) 0.3663(4) 0.4692(11)
C10 C 0.2937(3) 0.4126(4) 0.4276(11)
C11 C 0.3433(3) 0.4287(5) 0.5580(11)
C12 C 0.3290(4) 0.4072(6) 0.7257(13)
C13_2 C 0.3730(4) 0.4271(6) 0.8517(12)
N2_2 N 0.4315(4) 0.4663(4) 0.8190(11)
C14 C 0.4451(4) 0.4879(5) 0.6573(13)
C15 C 0.4038(4) 0.4711(5) 0.5251(12)
C16 C 0.3067(4) 0.4469(6) 0.2791(15)
C17 C 0.2649(4) 0.4499(6) 0.1646(16)
O4 O 0.2082(4) 0.4158(4) 0.1712(12)
C18 C 0.2894(6) 0.4984(8) 0.025(2)
H9 H 0.2882 0.3780 0.7541
H10_2 H 0.3616 0.4112 0.9659
H11 H 0.4867 0.5150 0.6302
H12 H 0.4160 0.4895 0.4138
H13 H 0.3485 0.4721 0.2514
H16 H 0.3091 0.5382 0.0827
N3 N 0.1330(4) 0.3681(6) 0.5143(11)
N4 N 0.2004(4) 0.2985(6) 0.1523(11)
Cu1_2 Cu 0.5000 1.0000 1.0000
O1_2 O 0.4238(3) 0.9670(4) 0.8641(11)
C1_2 C 0.3730(3) 0.9207(4) 0.9057(11)
C2 C 0.3234(3) 0.9046(5) 0.7753(11)
C3 C 0.3377(4) 0.9261(6) 0.6076(13)
C4 C 0.2937(4) 0.9062(6) 0.4816(12)
N1 N 0.2352(4) 0.8670(4) 0.5143(11)
C5 C 0.2216(4) 0.8454(5) 0.6760(13)
C6 C 0.2629(4) 0.8622(5) 0.8082(12)
H1 H 0.3785 0.9553 0.5792
H2 H 0.3051 0.9221 0.3674
H3 H 0.1800 0.8183 0.7031
H4 H 0.2507 0.8438 0.9195
N4_2 N 0.5337(4) 0.9652(6) 0.8190(11)
H6_2 H 0.4941 0.2387 0.0458
H7_2 H 0.4950 0.1760 0.0488
C12_2 C 0.2595(6) 0.2551(7) 0.0590(13)
C13_3 C 0.2396(6) 0.2792(7) 0.1850(12)
H9_2 H 0.2887 0.2435 0.0874
H10_3 H 0.2555 0.2837 0.2992
Cu1_3 Cu 0.6666 0.8333 0.3334
O1_3 O 0.6996(4) 0.7901(5) 0.1975(11)
C1_3 C 0.7459(4) 0.7856(5) 0.2391(11)
C2_2 C 0.7620(5) 0.7521(6) 0.1087(11)
C5_2 C 0.8212(5) 0.7095(6) 0.0094(13)
C6_2 C 0.8044(5) 0.7340(6) 0.1416(12)
C7_2 C 0.7802(6) 0.8069(7) 0.3876(15)
C8_2 C 0.7832(6) 0.8517(7) 0.5021(16)
O2_2 O 0.7491(4) 0.8743(6) 0.4955(12)
C9_2 C 0.8317(8) 0.8757(10) 0.642(2)
H3_2 H 0.8483 0.6950 0.0365
H4_2 H 0.8228 0.7402 0.2529
H5 H 0.8054 0.7903 0.4153
H6_3 H 0.8274 0.9054 0.7125
H7_3 H 0.8283 0.8427 0.7155
H8_2 H 0.8715 0.8958 0.5840
O3_2 O 0.6337(4) 0.8766(5) 0.4692(11)
C10_2 C 0.5874(4) 0.8811(5) 0.4276(11)
C11_2 C 0.5713(5) 0.9146(6) 0.5580(11)
C12_3 C 0.5928(6) 0.9218(7) 0.7257(13)
C13_4 C 0.5729(6) 0.9459(7) 0.8517(12)
C14_2 C 0.5121(5) 0.9572(6) 0.6573(13)
C15_2 C 0.5289(5) 0.9327(6) 0.5251(12)
C16_2 C 0.5531(6) 0.8598(7) 0.2791(15)
C17_2 C 0.5501(6) 0.8150(7) 0.1646(16)
O4_2 O 0.5842(4) 0.7924(6) 0.1712(12)
C18_2 C 0.5016(8) 0.7910(10) 0.025(2)
H9_3 H 0.6220 0.9102 0.7541
H10_4 H 0.5888 0.9504 0.9659
H11_2 H 0.4850 0.9717 0.6302
H12_2 H 0.5105 0.9265 0.4138
H13_2 H 0.5279 0.8764 0.2514
H16_2 H 0.4618 0.7709 0.0827
N3_2 N 0.6319(6) 0.7648(7) 0.5143(11)
N4_3 N 0.7015(6) 0.9018(7) 0.1523(11)
Cu1_4 Cu -0.0000 0.4999 1.0000
O1_4 O 0.0330(4) 0.4567(5) 0.8641(11)
C1_4 C 0.0793(4) 0.4522(5) 0.9057(11)
C2_3 C 0.0954(5) 0.4187(6) 0.7753(11)
C3_2 C 0.0739(6) 0.4115(7) 0.6076(13)
C4_2 C 0.0938(6) 0.3874(7) 0.4816(12)
C5_3 C 0.1546(5) 0.3761(6) 0.6760(13)
C6_3 C 0.1378(5) 0.4006(6) 0.8082(12)
H1_2 H 0.0447 0.4231 0.5792
H2_2 H 0.0779 0.3829 0.3674
H3_3 H 0.1817 0.3616 0.7031
H4_3 H 0.1562 0.4068 0.9195
N4_4 N 0.0348(6) 0.5685(7) 0.8190(11)
C13_5 C 0.7208(7) 0.9603(4) 0.1850(12)
H10_5 H 0.7163 0.9717 0.2992
O1_5 O 0.2099(5) 0.9096(3) 0.1975(11)
C1_5 C 0.2144(5) 0.9604(3) 0.2391(11)
C7_3 C 0.1931(7) 0.9734(4) 0.3876(15)
C8_3 C 0.1483(7) 0.9316(4) 0.5021(16)
O2_3 O 0.1257(6) 0.8749(4) 0.4955(12)
C9_3 C 0.1243(10) 0.9561(6) 0.642(2)
H6_4 H 0.0946 0.9221 0.7125
H7_4 H 0.1573 0.9857 0.7155
H8_3 H 0.1042 0.9758 0.5840
O3_3 O 0.1234(5) 0.7571(3) 0.4692(11)
C10_3 C 0.1189(5) 0.7063(3) 0.4276(11)
C11_3 C 0.0854(6) 0.6567(3) 0.5580(11)
C12_4 C 0.0782(7) 0.6710(4) 0.7257(13)
C13_6 C 0.0541(7) 0.6270(4) 0.8517(12)
C14_3 C 0.0428(6) 0.5549(4) 0.6573(13)
C15_3 C 0.0673(6) 0.5962(4) 0.5251(12)
C16_3 C 0.1402(7) 0.6933(4) 0.2791(15)
C17_3 C 0.1850(7) 0.7351(4) 0.1646(16)
O4_3 O 0.2076(6) 0.7918(4) 0.1712(12)
C18_3 C 0.2090(10) 0.7106(6) 0.025(2)
H9_4 H 0.0898 0.7118 0.7541
H10_6 H 0.0496 0.6384 0.9659
H11_3 H 0.0283 0.5133 0.6302
H12_3 H 0.0735 0.5840 0.4138
H13_3 H 0.1236 0.6515 0.2514
H16_3 H 0.2291 0.6909 0.0827
O1_6 O 0.5433(5) 0.5762(3) 0.8641(11)
C1_6 C 0.5478(5) 0.6270(3) 0.9057(11)
C2_4 C 0.5813(6) 0.6766(3) 0.7753(11)
C3_3 C 0.5885(7) 0.6623(4) 0.6076(13)
C4_3 C 0.6126(7) 0.7063(4) 0.4816(12)
C5_4 C 0.6239(6) 0.7784(4) 0.6760(13)
C6_4 C 0.5994(6) 0.7371(4) 0.8082(12)
H1_3 H 0.5769 0.6215 0.5792
H2_3 H 0.6171 0.6949 0.3674
H3_4 H 0.6384 0.8200 0.7031
H4_4 H 0.5932 0.7493 0.9195
C16_4 C 0.4735(7) 0.3600(4) 0.9458(15)
C17_4 C 0.5183(7) 0.4018(4) 0.8313(16)
O4_4 O 0.5409(6) 0.4585(4) 0.8379(12)
C18_4 C 0.5423(10) 0.3773(6) 0.692(2)
H13_4 H 0.4569 0.3182 0.9181
H14 H 0.5720 0.4113 0.6209
H15 H 0.5093 0.3477 0.6179
H16_4 H 0.5624 0.3576 0.7494
C11_4 C 0.0100(3) 0.7620(5) 0.8913(11)
C14_4 C 0.1118(4) 0.8212(5) 0.9906(13)
C15_4 C 0.0705(4) 0.8044(5) 0.8584(12)
H11_4 H 0.1534 0.8483 0.9635
H12_4 H 0.0827 0.8228 0.7471
H13_5 H 0.0152 0.8054 0.5847
H6_5 H 0.7446 0.5059 0.0458
H7_5 H 0.6810 0.5050 0.0488
C12_5 C 0.9957(4) 0.7405(6) 0.0590(13)
H9_5 H 0.9549 0.7113 0.0874
Cu1_5 Cu 0.8333 0.6667 0.6667
O1_7 O 0.7571(3) 0.6337(4) 0.5308(11)
C1_7 C 0.7063(3) 0.5874(4) 0.5724(11)
C2_5 C 0.6567(3) 0.5713(5) 0.4420(11)
C3_4 C 0.6710(4) 0.5928(6) 0.2743(13)
C4_4 C 0.6270(4) 0.5729(6) 0.1483(12)
N1_2 N 0.5685(4) 0.5337(4) 0.1810(11)
C5_5 C 0.5549(4) 0.5121(5) 0.3427(13)
C6_5 C 0.5962(4) 0.5289(5) 0.4749(12)
C7_4 C 0.6933(4) 0.5531(6) 0.7209(15)
C8_4 C 0.7351(4) 0.5501(6) 0.8354(16)
O2_4 O 0.7918(4) 0.5842(4) 0.8288(12)
C9_4 C 0.7106(6) 0.5016(8) 0.975(2)
H1_4 H 0.7118 0.6220 0.2459
H2_4 H 0.6384 0.5888 0.0341
H3_5 H 0.5133 0.4850 0.3698
H4_5 H 0.5840 0.5105 0.5862
H5_2 H 0.6515 0.5279 0.7486
H8_4 H 0.6909 0.4618 0.9173
O3_4 O 0.9096(3) 0.6996(4) 0.8025(11)
C10_4 C 0.9604(3) 0.7459(4) 0.7609(11)
C16_5 C 0.9734(4) 0.7802(6) 0.6124(15)
C17_5 C 0.9316(4) 0.7832(6) 0.4979(16)
O4_5 O 0.8749(4) 0.7491(4) 0.5045(12)
C18_5 C 0.9561(6) 0.8317(8) 0.358(2)
H14_2 H 0.9221 0.8274 0.2875
H15_2 H 0.9857 0.8283 0.2845
H16_5 H 0.9758 0.8715 0.4160
Cu3_2 Cu 0.4999 0.5000 -0.0000
N3_3 N 0.7996(4) 0.7015(6) 0.8477(11)
N4_5 N 0.8670(4) 0.6319(6) 0.4857(11)
C4_5 C 0.9603(4) 0.2396(6) 0.8150(12)
N1_3 N 0.9018(4) 0.2004(4) 0.8477(11)
H2_5 H 0.9717 0.2555 0.7008
Cu3_3 Cu 0.8333 0.1666 0.6666
Cu1_6 Cu 0.5000 0.0000 0.0000
O3_5 O 0.5762(3) 0.0330(4) 0.1359(11)
C10_5 C 0.6270(3) 0.0793(4) 0.0943(11)
C11_5 C 0.6766(3) 0.0954(5) 0.2247(11)
C12_6 C 0.6623(4) 0.0739(6) 0.3924(13)
C13_7 C 0.7063(4) 0.0938(6) 0.5184(12)
N2_3 N 0.7648(4) 0.1330(4) 0.4857(11)
C14_5 C 0.7784(4) 0.1546(5) 0.3240(13)
C15_5 C 0.7371(4) 0.1378(5) 0.1918(12)
H9_6 H 0.6215 0.0447 0.4208
H10_7 H 0.6949 0.0779 0.6326
H11_5 H 0.8200 0.1817 0.2969
H12_5 H 0.7493 0.1562 0.0805
N3_4 N 0.4663(4) 0.0348(6) 0.1810(11)
Cu1_7 Cu 0.3333 0.1666 0.6667
O1_8 O 0.3663(4) 0.1234(5) 0.5308(11)
C1_8 C 0.4126(4) 0.1189(5) 0.5724(11)
C2_6 C 0.4287(5) 0.0854(6) 0.4420(11)
C3_5 C 0.4072(6) 0.0782(7) 0.2743(13)
C4_6 C 0.4271(6) 0.0541(7) 0.1483(12)
C5_6 C 0.4879(5) 0.0428(6) 0.3427(13)
C6_6 C 0.4711(5) 0.0673(6) 0.4749(12)
C7_5 C 0.4469(6) 0.1402(7) 0.7209(15)
C8_5 C 0.4499(6) 0.1850(7) 0.8354(16)
O2_5 O 0.4158(4) 0.2076(6) 0.8288(12)
C9_5 C 0.4984(8) 0.2090(10) 0.975(2)
H1_5 H 0.3780 0.0898 0.2459
H2_6 H 0.4112 0.0496 0.0341
H3_6 H 0.5150 0.0283 0.3698
H4_6 H 0.4895 0.0735 0.5862
H5_3 H 0.4721 0.1236 0.7486
H8_5 H 0.5382 0.2291 0.9173
O3_6 O 0.3004(4) 0.2099(5) 0.8025(11)
C10_6 C 0.2541(4) 0.2144(5) 0.7609(11)
C11_6 C 0.2380(5) 0.2479(6) 0.8913(11)
C14_6 C 0.1788(5) 0.2905(6) 0.9906(13)
C15_6 C 0.1956(5) 0.2660(6) 0.8584(12)
C16_6 C 0.2198(6) 0.1931(7) 0.6124(15)
C17_6 C 0.2168(6) 0.1483(7) 0.4979(16)
O4_6 O 0.2509(4) 0.1257(6) 0.5045(12)
C18_6 C 0.1683(8) 0.1243(10) 0.358(2)
H11_6 H 0.1517 0.3050 0.9635
H12_6 H 0.1772 0.2598 0.7471
H13_6 H 0.1946 0.2097 0.5847
H14_3 H 0.1726 0.0946 0.2875
H15_3 H 0.1717 0.1573 0.2845
H16_6 H 0.1285 0.1042 0.4160
N3_5 N 0.2985(6) 0.0982(7) 0.8477(11)
N4_6 N 0.3681(6) 0.2352(7) 0.4857(11)
C3_6 C 0.7405(6) 0.7449(7) 0.9410(13)
C4_7 C 0.7604(6) 0.7208(7) 0.8150(12)
H1_6 H 0.7113 0.7565 0.9126
H2_7 H 0.7445 0.7163 0.7008
H14_4 H 0.5059 0.7613 0.9542
H15_4 H 0.5050 0.8240 0.9512
Cu1_8 Cu 1.0000 0.4999 0.0000
O3_7 O 0.9670(4) 0.5433(5) 0.1359(11)
C10_7 C 0.9207(4) 0.5478(5) 0.0943(11)
C11_7 C 0.9046(5) 0.5813(6) 0.2247(11)
C12_7 C 0.9261(6) 0.5885(7) 0.3924(13)
C13_8 C 0.9062(6) 0.6126(7) 0.5184(12)
C14_7 C 0.8454(5) 0.6239(6) 0.3240(13)
C15_7 C 0.8622(5) 0.5994(6) 0.1918(12)
H9_7 H 0.9553 0.5769 0.4208
H10_8 H 0.9221 0.6171 0.6326
H11_7 H 0.8183 0.6384 0.2969
H12_7 H 0.8438 0.5932 0.0805
N3_6 N 0.9652(6) 0.4315(7) 0.1810(11)
O1_9 O 0.8766(5) 0.2429(3) 0.5308(11)
C1_9 C 0.8811(5) 0.2937(3) 0.5724(11)
C2_7 C 0.9146(6) 0.3433(3) 0.4420(11)
C3_7 C 0.9218(7) 0.3290(4) 0.2743(13)
C4_8 C 0.9459(7) 0.3730(4) 0.1483(12)
C5_7 C 0.9572(6) 0.4451(4) 0.3427(13)
C6_7 C 0.9327(6) 0.4038(4) 0.4749(12)
C7_6 C 0.8598(7) 0.3067(4) 0.7209(15)
C8_6 C 0.8150(7) 0.2649(4) 0.8354(16)
O2_6 O 0.7924(6) 0.2082(4) 0.8288(12)
C9_6 C 0.7910(10) 0.2894(6) 0.975(2)
H1_7 H 0.9102 0.2882 0.2459
H2_8 H 0.9504 0.3616 0.0341
H3_7 H 0.9717 0.4867 0.3698
H4_7 H 0.9265 0.4160 0.5862
H5_4 H 0.8764 0.3485 0.7486
H8_6 H 0.7709 0.3091 0.9173
O3_8 O 0.7901(5) 0.0904(3) 0.8025(11)
C10_8 C 0.7856(5) 0.0396(3) 0.7609(11)
C16_7 C 0.8069(7) 0.0266(4) 0.6124(15)
C17_7 C 0.8517(7) 0.0684(4) 0.4979(16)
O4_7 O 0.8743(6) 0.1251(4) 0.5045(12)
C18_7 C 0.8757(10) 0.0439(6) 0.358(2)
H14_5 H 0.9054 0.0779 0.2875
H15_5 H 0.8427 0.0143 0.2845
H16_7 H 0.8958 0.0242 0.4160
C4_9 C 0.2792(7) 0.0397(4) 0.8150(12)
H2_9 H 0.2837 0.0283 0.7008
C7_7 C 0.5265(7) 0.6400(4) 0.0542(15)
C8_7 C 0.4817(7) 0.5982(4) 0.1687(16)
O2_7 O 0.4591(6) 0.5415(4) 0.1621(12)
C9_7 C 0.4577(10) 0.6227(6) 0.308(2)
H5_5 H 0.5431 0.6818 0.0819
H6_6 H 0.4280 0.5887 0.3791
H7_6 H 0.4907 0.6523 0.3821
H8_7 H 0.4376 0.6424 0.2506
O3_9 O 0.4567(5) 0.4238(3) 0.1359(11)
C10_9 C 0.4522(5) 0.3730(3) 0.0943(11)
C11_8 C 0.4187(6) 0.3234(3) 0.2247(11)
C12_8 C 0.4115(7) 0.3377(4) 0.3924(13)
C13_9 C 0.3874(7) 0.2937(4) 0.5184(12)
C14_8 C 0.3761(6) 0.2216(4) 0.3240(13)
C15_8 C 0.4006(6) 0.2629(4) 0.1918(12)
H9_8 H 0.4231 0.3785 0.4208
H10_9 H 0.3829 0.3051 0.6326
H11_8 H 0.3616 0.1800 0.2969
H12_8 H 0.4068 0.2507 0.0805
C3_8 C 0.0043(4) 0.2595(6) 0.9410(13)
H1_8 H 0.0451 0.2887 0.9126
H14_6 H 0.2554 0.4941 0.9542
H15_6 H 0.3190 0.4950 0.9512
C2_8 C 0.9900(3) 0.2380(5) 0.1087(11)
C5_8 C 0.8882(4) 0.1788(5) 0.0094(13)
C6_8 C 0.9295(4) 0.1956(5) 0.1416(12)
H3_8 H 0.8466 0.1517 0.0365
H4_8 H 0.9173 0.1772 0.2529
H5_6 H 0.9848 0.1946 0.4153
Cu1_9 Cu 0.5000 0.0000 1.0000
C16_8 C 0.6400(4) 0.1136(6) 0.9458(15)
C17_8 C 0.5982(4) 0.1166(6) 0.8313(16)
O4_8 O 0.5415(4) 0.0825(4) 0.8379(12)
C18_8 C 0.6227(6) 0.1651(8) 0.692(2)
H13_7 H 0.6818 0.1388 0.9181
H14_7 H 0.5887 0.1608 0.6209
H15_7 H 0.6523 0.1617 0.6179
H16_8 H 0.6424 0.2049 0.7494
Cu1_10 Cu 0.5000 1.0000 0.0000
C7_8 C 0.3600(4) 0.8864(6) 0.0542(15)
C8_8 C 0.4018(4) 0.8834(6) 0.1687(16)
O2_8 O 0.4585(4) 0.9175(4) 0.1621(12)
C9_8 C 0.3773(6) 0.8349(8) 0.308(2)
H5_7 H 0.3182 0.8612 0.0819
H6_7 H 0.4113 0.8392 0.3791
H7_7 H 0.3477 0.8383 0.3821
H8_8 H 0.3576 0.7951 0.2506
Cu1_11 Cu -0.0000 0.4999 0.0000
C7_9 C 0.1136(6) 0.4735(7) 0.0542(15)
C8_9 C 0.1166(6) 0.5183(7) 0.1687(16)
O2_9 O 0.0825(4) 0.5409(6) 0.1621(12)
C9_9 C 0.1651(8) 0.5423(10) 0.308(2)
H5_8 H 0.1388 0.4569 0.0819
H6_8 H 0.1608 0.5720 0.3791
H7_8 H 0.1617 0.5093 0.3821
H8_9 H 0.2049 0.5624 0.2506
Cu1_12 Cu 1.0000 0.4999 1.0000
C16_9 C 0.8864(6) 0.5265(7) 0.9458(15)
C17_9 C 0.8834(6) 0.4817(7) 0.8313(16)
O4_9 O 0.9175(4) 0.4591(6) 0.8379(12)
C18_9 C 0.8349(8) 0.4577(10) 0.692(2)
H13_8 H 0.8612 0.5431 0.9181
H14_8 H 0.8392 0.4280 0.6209
H15_8 H 0.8383 0.4907 0.6179
H16_9 H 0.7951 0.4376 0.7494
H6_9 H 0.7613 0.2554 0.0458
H7_9 H 0.8240 0.3190 0.0488
C12_9 C 0.7449(7) 0.0043(4) 0.0590(13)
H9_9 H 0.7565 0.0451 0.0874
C11_9 C 0.7521(6) 0.9900(3) 0.8913(11)
C14_9 C 0.7095(6) 0.8882(4) 0.9906(13)
C15_9 C 0.7340(6) 0.9295(4) 0.8584(12)
H11_9 H 0.6950 0.8466 0.9635
H12_9 H 0.7402 0.9173 0.7471
H13_9 H 0.7903 0.9848 0.5847
C2_9 C 0.2479(6) 0.0100(3) 0.1087(11)
C5_9 C 0.2905(6) 0.1118(4) 0.0094(13)
C6_9 C 0.2660(6) 0.0705(4) 0.1416(12)
H3_9 H 0.3050 0.1534 0.0365
H4_9 H 0.2598 0.0827 0.2529
H5_9 H 0.2097 0.0152 0.4153
C3_9 C 0.2551(7) 0.9957(4) 0.9410(13)
H1_9 H 0.2435 0.9549 0.9126
H14_9 H 0.2387 0.7446 0.9542
H15_9 H 0.1760 0.6810 0.9512
loop_
_geom_bond_atom_site_label_1
_geom_bond_atom_site_label_2
_geom_bond_site_symmetry_1
_geom_bond_site_symmetry_2
N2 C13 1_555 1_555
H10 C13 1_555 1_555
Cu2 N2 1_555 1_555
Cu1 O1 1_555 1_555
O1 C1 1_555 1_555
C7 C1 1_555 1_555
C8 C7 1_555 1_555
O2 Cu1 1_555 1_555
C9 C8 1_555 1_555
H6 C9 1_555 1_555
H7 C9 1_555 1_555
H8 C9 1_555 1_555
O3 Cu1 1_555 1_555
C10 O3 1_555 1_555
C11 C10 1_555 1_555
C12 C11 1_555 1_555
C13_2 C12 1_555 1_555
N2_2 C13_2 1_555 1_555
C14 N2_2 1_555 1_555
C15 C11 1_555 1_555
C16 C10 1_555 1_555
C17 C16 1_555 1_555
O4 Cu1 1_555 1_555
C18 C17 1_555 1_555
H9 C12 1_555 1_555
H10_2 C13_2 1_555 1_555
H11 C14 1_555 1_555
H12 C15 1_555 1_555
H13 C16 1_555 1_555
H16 C18 1_555 1_555
Cu3 N2_2 1_555 1_555
N3 Cu1 1_555 1_555
N4 Cu1 1_555 1_555
C8 O2 1_555 1_555
C14 C15 1_555 1_555
C17 O4 1_555 1_555
Cu1_2 O1_2 1_555 1_555
O1_2 C1_2 1_555 1_555
C1_2 C2 1_555 1_555
C2 C3 1_555 1_555
C3 C4 1_555 1_555
C4 N1 1_555 1_555
N1 C5 1_555 1_555
C5 C6 1_555 1_555
C6 C2 1_555 1_555
H1 C3 1_555 1_555
H2 C4 1_555 1_555
H3 C5 1_555 1_555
H4 C6 1_555 1_555
Cu2 N1 1_555 1_555
N4_2 Cu1_2 1_555 1_555
C13_3 C12_2 1_555 1_555
N4 C13_3 1_555 1_555
H9_2 C12_2 1_555 1_555
H10_3 C13_3 1_555 1_555
Cu1_3 O1_3 1_555 1_555
O1_3 C1_3 1_555 1_555
C1_3 C2_2 1_555 1_555
C5_2 C6_2 1_555 1_555
C6_2 C2_2 1_555 1_555
C7_2 C1_3 1_555 1_555
C8_2 C7_2 1_555 1_555
O2_2 Cu1_3 1_555 1_555
C9_2 C8_2 1_555 1_555
H3_2 C5_2 1_555 1_555
H4_2 C6_2 1_555 1_555
H5 C7_2 1_555 1_555
H6_3 C9_2 1_555 1_555
H7_3 C9_2 1_555 1_555
H8_2 C9_2 1_555 1_555
O3_2 Cu1_3 1_555 1_555
C10_2 O3_2 1_555 1_555
C11_2 C10_2 1_555 1_555
C12_3 C11_2 1_555 1_555
C13_4 C12_3 1_555 1_555
N4_2 C13_4 1_555 1_555
C14_2 N4_2 1_555 1_555
C15_2 C11_2 1_555 1_555
C16_2 C10_2 1_555 1_555
C17_2 C16_2 1_555 1_555
O4_2 Cu1_3 1_555 1_555
C18_2 C17_2 1_555 1_555
H9_3 C12_3 1_555 1_555
H10_4 C13_4 1_555 1_555
H11_2 C14_2 1_555 1_555
H12_2 C15_2 1_555 1_555
H13_2 C16_2 1_555 1_555
H16_2 C18_2 1_555 1_555
N3_2 Cu1_3 1_555 1_555
N4_3 Cu1_3 1_555 1_555
C8_2 O2_2 1_555 1_555
C14_2 C15_2 1_555 1_555
C17_2 O4_2 1_555 1_555
Cu1_4 O1_4 1_555 1_555
O1_4 C1_4 1_555 1_555
C1_4 C2_3 1_555 1_555
C2_3 C3_2 1_555 1_555
C3_2 C4_2 1_555 1_555
C4_2 N3 1_555 1_555
N3 C5_3 1_555 1_555
C5_3 C6_3 1_555 1_555
C6_3 C2_3 1_555 1_555
H1_2 C3_2 1_555 1_555
H2_2 C4_2 1_555 1_555
H3_3 C5_3 1_555 1_555
H4_3 C6_3 1_555 1_555
N4_4 Cu1_4 1_555 1_555
N4_3 C13_5 1_555 1_555
H10_5 C13_5 1_555 1_555
Cu2 O1_5 1_555 1_555
O1_5 C1_5 1_555 1_555
C7_3 C1_5 1_555 1_555
C8_3 C7_3 1_555 1_555
O2_3 Cu2 1_555 1_555
C9_3 C8_3 1_555 1_555
H6_4 C9_3 1_555 1_555
H7_4 C9_3 1_555 1_555
H8_3 C9_3 1_555 1_555
O3_3 Cu2 1_555 1_555
C10_3 O3_3 1_555 1_555
C11_3 C10_3 1_555 1_555
C12_4 C11_3 1_555 1_555
C13_6 C12_4 1_555 1_555
N4_4 C13_6 1_555 1_555
C14_3 N4_4 1_555 1_555
C15_3 C11_3 1_555 1_555
C16_3 C10_3 1_555 1_555
C17_3 C16_3 1_555 1_555
O4_3 Cu2 1_555 1_555
C18_3 C17_3 1_555 1_555
H9_4 C12_4 1_555 1_555
H10_6 C13_6 1_555 1_555
H11_3 C14_3 1_555 1_555
H12_3 C15_3 1_555 1_555
H13_3 C16_3 1_555 1_555
H16_3 C18_3 1_555 1_555
C8_3 O2_3 1_555 1_555
C14_3 C15_3 1_555 1_555
C17_3 O4_3 1_555 1_555
Cu3 O1_6 1_555 1_555
O1_6 C1_6 1_555 1_555
C1_6 C2_4 1_555 1_555
C2_4 C3_3 1_555 1_555
C3_3 C4_3 1_555 1_555
C4_3 N3_2 1_555 1_555
N3_2 C5_4 1_555 1_555
C5_4 C6_4 1_555 1_555
C6_4 C2_4 1_555 1_555
H1_3 C3_3 1_555 1_555
H2_3 C4_3 1_555 1_555
H3_4 C5_4 1_555 1_555
H4_4 C6_4 1_555 1_555
C17_4 C16_4 1_555 1_555
O4_4 Cu3 1_555 1_555
C18_4 C17_4 1_555 1_555
H13_4 C16_4 1_555 1_555
H14 C18_4 1_555 1_555
H15 C18_4 1_555 1_555
H16_4 C18_4 1_555 1_555
C17_4 O4_4 1_555 1_555
C15_4 C11_4 1_555 1_555
H11_4 C14_4 1_555 1_555
H12_4 C15_4 1_555 1_555
C14_4 C15_4 1_555 1_555
H9_5 C12_5 1_555 1_555
Cu1_5 O1_7 1_555 1_555
O1_7 C1_7 1_555 1_555
C1_7 C2_5 1_555 1_555
C2_5 C3_4 1_555 1_555
C3_4 C4_4 1_555 1_555
C4_4 N1_2 1_555 1_555
N1_2 C5_5 1_555 1_555
C5_5 C6_5 1_555 1_555
C6_5 C2_5 1_555 1_555
C7_4 C1_7 1_555 1_555
C8_4 C7_4 1_555 1_555
O2_4 Cu1_5 1_555 1_555
C9_4 C8_4 1_555 1_555
H1_4 C3_4 1_555 1_555
H2_4 C4_4 1_555 1_555
H3_5 C5_5 1_555 1_555
H4_5 C6_5 1_555 1_555
H5_2 C7_4 1_555 1_555
H8_4 C9_4 1_555 1_555
O3_4 Cu1_5 1_555 1_555
C10_4 O3_4 1_555 1_555
C16_5 C10_4 1_555 1_555
C17_5 C16_5 1_555 1_555
O4_5 Cu1_5 1_555 1_555
C18_5 C17_5 1_555 1_555
H14_2 C18_5 1_555 1_555
H15_2 C18_5 1_555 1_555
H16_5 C18_5 1_555 1_555
Cu3_2 N1_2 1_555 1_555
N3_3 Cu1_5 1_555 1_555
N4_5 Cu1_5 1_555 1_555
C8_4 O2_4 1_555 1_555
C17_5 O4_5 1_555 1_555
C4_5 N1_3 1_555 1_555
H2_5 C4_5 1_555 1_555
Cu3_3 N1_3 1_555 1_555
O3_5 Cu1_6 1_555 1_555
C10_5 O3_5 1_555 1_555
C11_5 C10_5 1_555 1_555
C12_6 C11_5 1_555 1_555
C13_7 C12_6 1_555 1_555
N2_3 C13_7 1_555 1_555
C14_5 N2_3 1_555 1_555
C15_5 C11_5 1_555 1_555
H9_6 C12_6 1_555 1_555
H10_7 C13_7 1_555 1_555
H11_5 C14_5 1_555 1_555
H12_5 C15_5 1_555 1_555
Cu3_3 N2_3 1_555 1_555
N3_4 Cu1_6 1_555 1_555
C14_5 C15_5 1_555 1_555
Cu1_7 O1_8 1_555 1_555
O1_8 C1_8 1_555 1_555
C1_8 C2_6 1_555 1_555
C2_6 C3_5 1_555 1_555
C3_5 C4_6 1_555 1_555
C4_6 N3_4 1_555 1_555
N3_4 C5_6 1_555 1_555
C5_6 C6_6 1_555 1_555
C6_6 C2_6 1_555 1_555
C7_5 C1_8 1_555 1_555
C8_5 C7_5 1_555 1_555
O2_5 Cu1_7 1_555 1_555
C9_5 C8_5 1_555 1_555
H1_5 C3_5 1_555 1_555
H2_6 C4_6 1_555 1_555
H3_6 C5_6 1_555 1_555
H4_6 C6_6 1_555 1_555
H5_3 C7_5 1_555 1_555
H8_5 C9_5 1_555 1_555
O3_6 Cu1_7 1_555 1_555
C10_6 O3_6 1_555 1_555
C11_6 C10_6 1_555 1_555
C15_6 C11_6 1_555 1_555
C16_6 C10_6 1_555 1_555
C17_6 C16_6 1_555 1_555
O4_6 Cu1_7 1_555 1_555
C18_6 C17_6 1_555 1_555
H11_6 C14_6 1_555 1_555
H12_6 C15_6 1_555 1_555
H13_6 C16_6 1_555 1_555
H14_3 C18_6 1_555 1_555
H15_3 C18_6 1_555 1_555
H16_6 C18_6 1_555 1_555
N3_5 Cu1_7 1_555 1_555
N4_6 Cu1_7 1_555 1_555
C8_5 O2_5 1_555 1_555
C14_6 C15_6 1_555 1_555
C17_6 O4_6 1_555 1_555
C3_6 C4_7 1_555 1_555
C4_7 N3_3 1_555 1_555
H1_6 C3_6 1_555 1_555
H2_7 C4_7 1_555 1_555
O3_7 Cu1_8 1_555 1_555
C10_7 O3_7 1_555 1_555
C11_7 C10_7 1_555 1_555
C12_7 C11_7 1_555 1_555
C13_8 C12_7 1_555 1_555
N4_5 C13_8 1_555 1_555
C14_7 N4_5 1_555 1_555
C15_7 C11_7 1_555 1_555
H9_7 C12_7 1_555 1_555
H10_8 C13_8 1_555 1_555
H11_7 C14_7 1_555 1_555
H12_7 C15_7 1_555 1_555
N3_6 Cu1_8 1_555 1_555
C14_7 C15_7 1_555 1_555
Cu3_3 O1_9 1_555 1_555
O1_9 C1_9 1_555 1_555
C1_9 C2_7 1_555 1_555
C2_7 C3_7 1_555 1_555
C3_7 C4_8 1_555 1_555
C4_8 N3_6 1_555 1_555
N3_6 C5_7 1_555 1_555
C5_7 C6_7 1_555 1_555
C6_7 C2_7 1_555 1_555
C7_6 C1_9 1_555 1_555
C8_6 C7_6 1_555 1_555
O2_6 Cu3_3 1_555 1_555
C9_6 C8_6 1_555 1_555
H1_7 C3_7 1_555 1_555
H2_8 C4_8 1_555 1_555
H3_7 C5_7 1_555 1_555
H4_7 C6_7 1_555 1_555
H5_4 C7_6 1_555 1_555
H8_6 C9_6 1_555 1_555
O3_8 Cu3_3 1_555 1_555
C10_8 O3_8 1_555 1_555
C16_7 C10_8 1_555 1_555
C17_7 C16_7 1_555 1_555
O4_7 Cu3_3 1_555 1_555
C18_7 C17_7 1_555 1_555
H14_5 C18_7 1_555 1_555
H15_5 C18_7 1_555 1_555
H16_7 C18_7 1_555 1_555
C8_6 O2_6 1_555 1_555
C17_7 O4_7 1_555 1_555
C4_9 N3_5 1_555 1_555
H2_9 C4_9 1_555 1_555
C8_7 C7_7 1_555 1_555
O2_7 Cu3_2 1_555 1_555
C9_7 C8_7 1_555 1_555
H5_5 C7_7 1_555 1_555
H6_6 C9_7 1_555 1_555
H7_6 C9_7 1_555 1_555
H8_7 C9_7 1_555 1_555
O3_9 Cu3_2 1_555 1_555
C10_9 O3_9 1_555 1_555
C11_8 C10_9 1_555 1_555
C12_8 C11_8 1_555 1_555
C13_9 C12_8 1_555 1_555
N4_6 C13_9 1_555 1_555
C14_8 N4_6 1_555 1_555
C15_8 C11_8 1_555 1_555
H9_8 C12_8 1_555 1_555
H10_9 C13_9 1_555 1_555
H11_8 C14_8 1_555 1_555
H12_8 C15_8 1_555 1_555
C8_7 O2_7 1_555 1_555
C14_8 C15_8 1_555 1_555
H1_8 C3_8 1_555 1_555
C5_8 C6_8 1_555 1_555
C6_8 C2_8 1_555 1_555
H3_8 C5_8 1_555 1_555
H4_8 C6_8 1_555 1_555
C17_8 C16_8 1_555 1_555
O4_8 Cu1_9 1_555 1_555
C18_8 C17_8 1_555 1_555
H13_7 C16_8 1_555 1_555
H14_7 C18_8 1_555 1_555
H15_7 C18_8 1_555 1_555
H16_8 C18_8 1_555 1_555
C17_8 O4_8 1_555 1_555
C8_8 C7_8 1_555 1_555
O2_8 Cu1_10 1_555 1_555
C9_8 C8_8 1_555 1_555
H5_7 C7_8 1_555 1_555
H6_7 C9_8 1_555 1_555
H7_7 C9_8 1_555 1_555
H8_8 C9_8 1_555 1_555
C8_8 O2_8 1_555 1_555
C8_9 C7_9 1_555 1_555
O2_9 Cu1_11 1_555 1_555
C9_9 C8_9 1_555 1_555
H5_8 C7_9 1_555 1_555
H6_8 C9_9 1_555 1_555
H7_8 C9_9 1_555 1_555
H8_9 C9_9 1_555 1_555
C8_9 O2_9 1_555 1_555
C17_9 C16_9 1_555 1_555
O4_9 Cu1_12 1_555 1_555
C18_9 C17_9 1_555 1_555
H13_8 C16_9 1_555 1_555
H14_8 C18_9 1_555 1_555
H15_8 C18_9 1_555 1_555
H16_9 C18_9 1_555 1_555
C17_9 O4_9 1_555 1_555
H9_9 C12_9 1_555 1_555
C15_9 C11_9 1_555 1_555
H11_9 C14_9 1_555 1_555
H12_9 C15_9 1_555 1_555
C14_9 C15_9 1_555 1_555
C5_9 C6_9 1_555 1_555
C6_9 C2_9 1_555 1_555
H3_9 C5_9 1_555 1_555
H4_9 C6_9 1_555 1_555
H1_9 C3_9 1_555 1_555

#END
