
###############################################################################
#
# This file contains modified crystal structure data generated from the
# MOF subset of the Cambridge Structural Database (CSD) v543 
# hosted by the Cambridge Crystallographic Data Centre (CCDC).
#
# This work is licensed under the Creative Commons
# Attribution-NonCommercial-ShareAlike 4.0 International License.
# To view a copy of this license, visit
# http://creativecommons.org/licenses/by-nc-sa/4.0/
# or send a letter to
# Creative Commons, PO Box 1866, Mountain View, CA 94042, USA.
#
# CIF created using the CSD Python API on 29 September 2022
# The structure has been converted into the P1 space group
# The structure has a 3D framework
# The original CSD entry ECAHIB12 is in the rhombohedral crystal system
# The framework has been calculated to contain at least 10.0% void space
# The void calculation uses a probe of radius 1.32A, grid spacing 0.4
#
###############################################################################

data_ECAHIB12
_chemical_formula_moiety         '(C162 H144 Cu16 N18 O36)n'
_symmetry_cell_setting           triclinic
_symmetry_space_group_name_H-M   'P 1'
_symmetry_Int_Tables_number      1
_space_group_name_Hall           'P 1'
loop_
_symmetry_equiv_pos_site_id
_symmetry_equiv_pos_as_xyz
1 x,y,z
_cell_length_a                   26.0243(5)
_cell_length_b                   26.0243(5)
_cell_length_c                   7.7622(2)
_cell_angle_alpha                90
_cell_angle_beta                 90
_cell_angle_gamma                120
_cell_volume                     4552.75
loop_
_atom_site_label
_atom_site_type_symbol
_atom_site_fract_x
_atom_site_fract_y
_atom_site_fract_z
C13 C 0.0364(3) 0.7602(4) 0.1832(9)
N2 N 0.0930(3) 0.7979(3) 0.1478(7)
H10 H 0.0255 0.7470 0.2985
Cu2 Cu 0.1666 0.8333 0.3333
Cu3 Cu 0.4999 0.5000 1.0000
Cu1 Cu 0.1666 0.3334 0.3334
O1 O 0.0934(2) 0.3006(2) 0.1959(6)
C1 C 0.0437(3) 0.2559(3) 0.2355(8)
C7 C 0.0322(3) 0.2209(4) 0.3802(10)
C8 C 0.0746(3) 0.2207(3) 0.4933(9)
O2 O 0.1283(2) 0.2564(3) 0.4892(7)
C9 C 0.0529(4) 0.1734(4) 0.6301(12)
H6 H 0.0864 0.1796 0.7024
H7 H 0.0229 0.1755 0.7016
H8 H 0.0353 0.1342 0.5754
O3 O 0.2399(2) 0.3661(2) 0.4708(6)
C10 C 0.2896(3) 0.4108(3) 0.4312(8)
C11 C 0.3382(3) 0.4274(3) 0.5607(7)
C12 C 0.3250(3) 0.4076(4) 0.7291(9)
C13_2 C 0.3697(3) 0.4269(4) 0.8499(9)
N2_2 N 0.4263(3) 0.4646(3) 0.8145(7)
C14 C 0.4393(3) 0.4821(4) 0.6518(8)
C15 C 0.3976(3) 0.4649(4) 0.5234(8)
C16 C 0.3011(3) 0.4458(4) 0.2865(10)
C17 C 0.2587(3) 0.4460(3) 0.1734(9)
O4 O 0.2050(2) 0.4103(3) 0.1775(7)
C18 C 0.2804(4) 0.4933(4) 0.0366(12)
H9 H 0.2852 0.3802 0.7604
H10_2 H 0.3588 0.4137 0.9652
H11 H 0.4797 0.5084 0.6235
H12 H 0.4094 0.4795 0.4096
H13 H 0.3414 0.4747 0.2660
H16 H 0.2980 0.5325 0.0913
N3 N 0.1313(3) 0.3716(4) 0.5188(7)
N4 N 0.2021(3) 0.2950(4) 0.1478(7)
Cu1_2 Cu 0.5000 1.0000 1.0000
O1_2 O 0.4268(2) 0.9672(2) 0.8625(6)
C1_2 C 0.3771(3) 0.9225(3) 0.9021(8)
C2 C 0.3285(3) 0.9059(3) 0.7726(7)
C3 C 0.3417(3) 0.9257(4) 0.6042(9)
C4 C 0.2970(3) 0.9064(4) 0.4834(9)
N1 N 0.2404(3) 0.8687(3) 0.5188(7)
C5 C 0.2274(3) 0.8512(4) 0.6815(8)
C6 C 0.2691(3) 0.8684(4) 0.8099(8)
H1 H 0.3815 0.9531 0.5729
H2 H 0.3079 0.9196 0.3681
H3 H 0.1870 0.8249 0.7098
H4 H 0.2573 0.8538 0.9237
N4_2 N 0.5354(3) 0.9617(4) 0.8145(7)
H6_2 H 0.4871 0.2402 0.0357
H7_2 H 0.4912 0.1808 0.0349
C12_2 C 0.2591(4) 0.2507(5) 0.0624(9)
C13_3 C 0.2398(4) 0.2761(5) 0.1832(9)
H9_2 H 0.2865 0.2383 0.0937
H10_3 H 0.2530 0.2784 0.2985
Cu1_3 Cu 0.6666 0.8333 0.3334
O1_3 O 0.6994(2) 0.7929(3) 0.1959(6)
C1_3 C 0.7441(3) 0.7879(4) 0.2355(8)
C2_2 C 0.7607(3) 0.7559(4) 0.1060(7)
C5_2 C 0.8154(4) 0.7095(5) 0.0149(8)
C6_2 C 0.7982(4) 0.7340(5) 0.1433(8)
C7_2 C 0.7791(4) 0.8114(5) 0.3802(10)
C8_2 C 0.7793(3) 0.8540(4) 0.4933(9)
O2_2 O 0.7436(3) 0.8720(4) 0.4892(7)
C9_2 C 0.8266(4) 0.8796(6) 0.6301(12)
H3_2 H 0.8417 0.6954 0.0432
H4_2 H 0.8128 0.7368 0.2571
H5 H 0.8080 0.8000 0.4007
H6_3 H 0.8204 0.9069 0.7024
H7_3 H 0.8245 0.8475 0.7016
H8_2 H 0.8658 0.9012 0.5754
O3_2 O 0.6339(2) 0.8738(3) 0.4708(6)
C10_2 C 0.5892(3) 0.8788(4) 0.4312(8)
C11_2 C 0.5726(3) 0.9108(4) 0.5607(7)
C12_3 C 0.5924(4) 0.9174(5) 0.7291(9)
C13_4 C 0.5731(4) 0.9428(5) 0.8499(9)
C14_2 C 0.5179(4) 0.9572(5) 0.6518(8)
C15_2 C 0.5351(4) 0.9327(5) 0.5234(8)
C16_2 C 0.5542(4) 0.8553(5) 0.2865(10)
C17_2 C 0.5540(3) 0.8127(4) 0.1734(9)
O4_2 O 0.5897(3) 0.7947(4) 0.1775(7)
C18_2 C 0.5067(4) 0.7871(6) 0.0366(12)
H9_3 H 0.6198 0.9050 0.7604
H10_4 H 0.5863 0.9451 0.9652
H11_2 H 0.4916 0.9713 0.6235
H12_2 H 0.5205 0.9299 0.4096
H13_2 H 0.5253 0.8667 0.2660
H16_2 H 0.4675 0.7655 0.0913
N3_2 N 0.6284(4) 0.7596(5) 0.5188(7)
N4_3 N 0.7050(4) 0.9070(5) 0.1478(7)
Cu1_4 Cu -0.0000 0.4999 1.0000
O1_4 O 0.0328(2) 0.4595(3) 0.8625(6)
C1_4 C 0.0775(3) 0.4545(4) 0.9021(8)
C2_3 C 0.0941(3) 0.4225(4) 0.7726(7)
C3_2 C 0.0743(4) 0.4159(5) 0.6042(9)
C4_2 C 0.0936(4) 0.3905(5) 0.4834(9)
C5_3 C 0.1488(4) 0.3761(5) 0.6815(8)
C6_3 C 0.1316(4) 0.4006(5) 0.8099(8)
H1_2 H 0.0469 0.4283 0.5729
H2_2 H 0.0804 0.3882 0.3681
H3_3 H 0.1751 0.3620 0.7098
H4_3 H 0.1462 0.4034 0.9237
N4_4 N 0.0383(4) 0.5737(5) 0.8145(7)
C13_5 C 0.7239(5) 0.9636(3) 0.1832(9)
H10_5 H 0.7216 0.9745 0.2985
O1_5 O 0.2071(3) 0.9066(2) 0.1959(6)
C1_5 C 0.2121(4) 0.9563(3) 0.2355(8)
C7_3 C 0.1886(5) 0.9678(3) 0.3802(10)
C8_3 C 0.1460(4) 0.9254(3) 0.4933(9)
O2_3 O 0.1280(4) 0.8717(2) 0.4892(7)
C9_3 C 0.1204(6) 0.9471(4) 0.6301(12)
H6_4 H 0.0931 0.9136 0.7024
H7_4 H 0.1525 0.9771 0.7016
H8_3 H 0.0988 0.9647 0.5754
O3_3 O 0.1262(3) 0.7601(2) 0.4708(6)
C10_3 C 0.1212(4) 0.7104(3) 0.4312(8)
C11_3 C 0.0892(4) 0.6618(3) 0.5607(7)
C12_4 C 0.0826(5) 0.6750(3) 0.7291(9)
C13_6 C 0.0572(5) 0.6303(3) 0.8499(9)
C14_3 C 0.0428(5) 0.5607(3) 0.6518(8)
C15_3 C 0.0673(5) 0.6024(3) 0.5234(8)
C16_3 C 0.1447(5) 0.6989(3) 0.2865(10)
C17_3 C 0.1873(4) 0.7413(3) 0.1734(9)
O4_3 O 0.2053(4) 0.7950(2) 0.1775(7)
C18_3 C 0.2129(6) 0.7196(4) 0.0366(12)
H9_4 H 0.0950 0.7148 0.7604
H10_6 H 0.0549 0.6412 0.9652
H11_3 H 0.0287 0.5203 0.6235
H12_3 H 0.0701 0.5906 0.4096
H13_3 H 0.1333 0.6586 0.2660
H16_3 H 0.2345 0.7020 0.0913
O1_6 O 0.5405(3) 0.5732(2) 0.8625(6)
C1_6 C 0.5455(4) 0.6229(3) 0.9021(8)
C2_4 C 0.5775(4) 0.6715(3) 0.7726(7)
C3_3 C 0.5841(5) 0.6583(3) 0.6042(9)
C4_3 C 0.6095(5) 0.7030(3) 0.4834(9)
C5_4 C 0.6239(5) 0.7726(3) 0.6815(8)
C6_4 C 0.5994(5) 0.7309(3) 0.8099(8)
H1_3 H 0.5717 0.6185 0.5729
H2_3 H 0.6118 0.6921 0.3681
H3_4 H 0.6380 0.8130 0.7098
H4_4 H 0.5966 0.7427 0.9237
C16_4 C 0.4780(5) 0.3656(3) 0.9532(10)
C17_4 C 0.5206(4) 0.4080(3) 0.8401(9)
O4_4 O 0.5386(4) 0.4617(2) 0.8442(7)
C18_4 C 0.5462(6) 0.3863(4) 0.7033(12)
H13_4 H 0.4666 0.3253 0.9327
H14 H 0.5735 0.4198 0.6310
H15 H 0.5141 0.3563 0.6318
H16_4 H 0.5678 0.3687 0.7580
C11_4 C 0.0049(3) 0.7607(3) 0.8940(7)
C14_4 C 0.1060(3) 0.8154(4) 0.9851(8)
C15_4 C 0.0643(3) 0.7982(4) 0.8567(8)
H11_4 H 0.1464 0.8417 0.9568
H12_4 H 0.0761 0.8128 0.7429
H13_5 H 0.0081 0.8080 0.5993
H6_5 H 0.7531 0.5129 0.0357
H7_5 H 0.6896 0.5088 0.0349
C12_5 C 0.9917(3) 0.7409(4) 0.0624(9)
H9_5 H 0.9519 0.7135 0.0937
Cu1_5 Cu 0.8333 0.6667 0.6667
O1_7 O 0.7601(2) 0.6339(2) 0.5292(6)
C1_7 C 0.7104(3) 0.5892(3) 0.5688(8)
C2_5 C 0.6618(3) 0.5726(3) 0.4393(7)
C3_4 C 0.6750(3) 0.5924(4) 0.2709(9)
C4_4 C 0.6303(3) 0.5731(4) 0.1501(9)
N1_2 N 0.5737(3) 0.5354(3) 0.1855(7)
C5_5 C 0.5607(3) 0.5179(4) 0.3482(8)
C6_5 C 0.6024(3) 0.5351(4) 0.4766(8)
C7_4 C 0.6989(3) 0.5542(4) 0.7135(10)
C8_4 C 0.7413(3) 0.5540(3) 0.8266(9)
O2_4 O 0.7950(2) 0.5897(3) 0.8225(7)
C9_4 C 0.7196(4) 0.5067(4) 0.9634(12)
H1_4 H 0.7148 0.6198 0.2396
H2_4 H 0.6412 0.5863 0.0348
H3_5 H 0.5203 0.4916 0.3765
H4_5 H 0.5906 0.5205 0.5904
H5_2 H 0.6586 0.5253 0.7340
H8_4 H 0.7020 0.4675 0.9087
O3_4 O 0.9066(2) 0.6994(2) 0.8041(6)
C10_4 C 0.9563(3) 0.7441(3) 0.7645(8)
C16_5 C 0.9678(3) 0.7791(4) 0.6198(10)
C17_5 C 0.9254(3) 0.7793(3) 0.5067(9)
O4_5 O 0.8717(2) 0.7436(3) 0.5108(7)
C18_5 C 0.9471(4) 0.8266(4) 0.3699(12)
H14_2 H 0.9136 0.8204 0.2976
H15_2 H 0.9771 0.8245 0.2984
H16_5 H 0.9647 0.8658 0.4246
Cu3_2 Cu 0.4999 0.5000 -0.0000
N3_3 N 0.7979(3) 0.7050(4) 0.8522(7)
N4_5 N 0.8687(3) 0.6284(4) 0.4812(7)
C4_5 C 0.9636(3) 0.2398(4) 0.8168(9)
N1_3 N 0.9070(3) 0.2021(3) 0.8522(7)
H2_5 H 0.9745 0.2530 0.7015
Cu3_3 Cu 0.8333 0.1666 0.6666
Cu1_6 Cu 0.5000 0.0000 0.0000
O3_5 O 0.5732(2) 0.0328(2) 0.1375(6)
C10_5 C 0.6229(3) 0.0775(3) 0.0979(8)
C11_5 C 0.6715(3) 0.0941(3) 0.2274(7)
C12_6 C 0.6583(3) 0.0743(4) 0.3958(9)
C13_7 C 0.7030(3) 0.0936(4) 0.5166(9)
N2_3 N 0.7596(3) 0.1313(3) 0.4812(7)
C14_5 C 0.7726(3) 0.1488(4) 0.3185(8)
C15_5 C 0.7309(3) 0.1316(4) 0.1901(8)
H9_6 H 0.6185 0.0469 0.4271
H10_7 H 0.6921 0.0804 0.6319
H11_5 H 0.8130 0.1751 0.2902
H12_5 H 0.7427 0.1462 0.0763
N3_4 N 0.4646(3) 0.0383(4) 0.1855(7)
Cu1_7 Cu 0.3333 0.1666 0.6667
O1_8 O 0.3661(2) 0.1262(3) 0.5292(6)
C1_8 C 0.4108(3) 0.1212(4) 0.5688(8)
C2_6 C 0.4274(3) 0.0892(4) 0.4393(7)
C3_5 C 0.4076(4) 0.0826(5) 0.2709(9)
C4_6 C 0.4269(4) 0.0572(5) 0.1501(9)
C5_6 C 0.4821(4) 0.0428(5) 0.3482(8)
C6_6 C 0.4649(4) 0.0673(5) 0.4766(8)
C7_5 C 0.4458(4) 0.1447(5) 0.7135(10)
C8_5 C 0.4460(3) 0.1873(4) 0.8266(9)
O2_5 O 0.4103(3) 0.2053(4) 0.8225(7)
C9_5 C 0.4933(4) 0.2129(6) 0.9634(12)
H1_5 H 0.3802 0.0950 0.2396
H2_6 H 0.4137 0.0549 0.0348
H3_6 H 0.5084 0.0287 0.3765
H4_6 H 0.4795 0.0701 0.5904
H5_3 H 0.4747 0.1333 0.7340
H8_5 H 0.5325 0.2345 0.9087
O3_6 O 0.3006(2) 0.2071(3) 0.8041(6)
C10_6 C 0.2559(3) 0.2121(4) 0.7645(8)
C11_6 C 0.2393(3) 0.2441(4) 0.8940(7)
C14_6 C 0.1846(4) 0.2905(5) 0.9851(8)
C15_6 C 0.2018(4) 0.2660(5) 0.8567(8)
C16_6 C 0.2209(4) 0.1886(5) 0.6198(10)
C17_6 C 0.2207(3) 0.1460(4) 0.5067(9)
O4_6 O 0.2564(3) 0.1280(4) 0.5108(7)
C18_6 C 0.1734(4) 0.1204(6) 0.3699(12)
H11_6 H 0.1583 0.3046 0.9568
H12_6 H 0.1872 0.2632 0.7429
H13_6 H 0.1920 0.2000 0.5993
H14_3 H 0.1796 0.0931 0.2976
H15_3 H 0.1755 0.1525 0.2984
H16_6 H 0.1342 0.0988 0.4246
N3_5 N 0.2950(4) 0.0930(5) 0.8522(7)
N4_6 N 0.3716(4) 0.2404(5) 0.4812(7)
C3_6 C 0.7409(4) 0.7493(5) 0.9376(9)
C4_7 C 0.7602(4) 0.7239(5) 0.8168(9)
H1_6 H 0.7135 0.7617 0.9063
H2_7 H 0.7470 0.7216 0.7015
H14_4 H 0.5129 0.7598 0.9643
H15_4 H 0.5088 0.8192 0.9651
Cu1_8 Cu 1.0000 0.4999 0.0000
O3_7 O 0.9672(2) 0.5405(3) 0.1375(6)
C10_7 C 0.9225(3) 0.5455(4) 0.0979(8)
C11_7 C 0.9059(3) 0.5775(4) 0.2274(7)
C12_7 C 0.9257(4) 0.5841(5) 0.3958(9)
C13_8 C 0.9064(4) 0.6095(5) 0.5166(9)
C14_7 C 0.8512(4) 0.6239(5) 0.3185(8)
C15_7 C 0.8684(4) 0.5994(5) 0.1901(8)
H9_7 H 0.9531 0.5717 0.4271
H10_8 H 0.9196 0.6118 0.6319
H11_7 H 0.8249 0.6380 0.2902
H12_7 H 0.8538 0.5966 0.0763
N3_6 N 0.9617(4) 0.4263(5) 0.1855(7)
O1_9 O 0.8738(3) 0.2399(2) 0.5292(6)
C1_9 C 0.8788(4) 0.2896(3) 0.5688(8)
C2_7 C 0.9108(4) 0.3382(3) 0.4393(7)
C3_7 C 0.9174(5) 0.3250(3) 0.2709(9)
C4_8 C 0.9428(5) 0.3697(3) 0.1501(9)
C5_7 C 0.9572(5) 0.4393(3) 0.3482(8)
C6_7 C 0.9327(5) 0.3976(3) 0.4766(8)
C7_6 C 0.8553(5) 0.3011(3) 0.7135(10)
C8_6 C 0.8127(4) 0.2587(3) 0.8266(9)
O2_6 O 0.7947(4) 0.2050(2) 0.8225(7)
C9_6 C 0.7871(6) 0.2804(4) 0.9634(12)
H1_7 H 0.9050 0.2852 0.2396
H2_8 H 0.9451 0.3588 0.0348
H3_7 H 0.9713 0.4797 0.3765
H4_7 H 0.9299 0.4094 0.5904
H5_4 H 0.8667 0.3414 0.7340
H8_6 H 0.7655 0.2980 0.9087
O3_8 O 0.7929(3) 0.0934(2) 0.8041(6)
C10_8 C 0.7879(4) 0.0437(3) 0.7645(8)
C16_7 C 0.8114(5) 0.0322(3) 0.6198(10)
C17_7 C 0.8540(4) 0.0746(3) 0.5067(9)
O4_7 O 0.8720(4) 0.1283(2) 0.5108(7)
C18_7 C 0.8796(6) 0.0529(4) 0.3699(12)
H14_5 H 0.9069 0.0864 0.2976
H15_5 H 0.8475 0.0229 0.2984
H16_7 H 0.9012 0.0353 0.4246
C4_9 C 0.2761(5) 0.0364(3) 0.8168(9)
H2_9 H 0.2784 0.0255 0.7015
C7_7 C 0.5220(5) 0.6344(3) 0.0468(10)
C8_7 C 0.4794(4) 0.5920(3) 0.1599(9)
O2_7 O 0.4614(4) 0.5383(2) 0.1558(7)
C9_7 C 0.4538(6) 0.6137(4) 0.2967(12)
H5_5 H 0.5334 0.6747 0.0673
H6_6 H 0.4265 0.5802 0.3690
H7_6 H 0.4859 0.6437 0.3682
H8_7 H 0.4322 0.6313 0.2420
O3_9 O 0.4595(3) 0.4268(2) 0.1375(6)
C10_9 C 0.4545(4) 0.3771(3) 0.0979(8)
C11_8 C 0.4225(4) 0.3285(3) 0.2274(7)
C12_8 C 0.4159(5) 0.3417(3) 0.3958(9)
C13_9 C 0.3905(5) 0.2970(3) 0.5166(9)
C14_8 C 0.3761(5) 0.2274(3) 0.3185(8)
C15_8 C 0.4006(5) 0.2691(3) 0.1901(8)
H9_8 H 0.4283 0.3815 0.4271
H10_9 H 0.3882 0.3079 0.6319
H11_8 H 0.3620 0.1870 0.2902
H12_8 H 0.4034 0.2573 0.0763
C3_8 C 0.0083(3) 0.2591(4) 0.9376(9)
H1_8 H 0.0481 0.2865 0.9063
H14_6 H 0.2469 0.4871 0.9643
H15_6 H 0.3104 0.4912 0.9651
C2_8 C 0.9951(3) 0.2393(3) 0.1060(7)
C5_8 C 0.8940(3) 0.1846(4) 0.0149(8)
C6_8 C 0.9357(3) 0.2018(4) 0.1433(8)
H3_8 H 0.8536 0.1583 0.0432
H4_8 H 0.9239 0.1872 0.2571
H5_6 H 0.9919 0.1920 0.4007
Cu1_9 Cu 0.5000 0.0000 1.0000
C16_8 C 0.6344(3) 0.1125(4) 0.9532(10)
C17_8 C 0.5920(3) 0.1127(3) 0.8401(9)
O4_8 O 0.5383(2) 0.0770(3) 0.8442(7)
C18_8 C 0.6137(4) 0.1600(4) 0.7033(12)
H13_7 H 0.6747 0.1414 0.9327
H14_7 H 0.5802 0.1538 0.6310
H15_7 H 0.6437 0.1579 0.6318
H16_8 H 0.6313 0.1992 0.7580
Cu1_10 Cu 0.5000 1.0000 0.0000
C7_8 C 0.3656(3) 0.8875(4) 0.0468(10)
C8_8 C 0.4080(3) 0.8873(3) 0.1599(9)
O2_8 O 0.4617(2) 0.9230(3) 0.1558(7)
C9_8 C 0.3863(4) 0.8400(4) 0.2967(12)
H5_7 H 0.3253 0.8586 0.0673
H6_7 H 0.4198 0.8462 0.3690
H7_7 H 0.3563 0.8421 0.3682
H8_8 H 0.3687 0.8008 0.2420
Cu1_11 Cu -0.0000 0.4999 0.0000
C7_9 C 0.1125(4) 0.4780(5) 0.0468(10)
C8_9 C 0.1127(3) 0.5206(4) 0.1599(9)
O2_9 O 0.0770(3) 0.5386(4) 0.1558(7)
C9_9 C 0.1600(4) 0.5462(6) 0.2967(12)
H5_8 H 0.1414 0.4666 0.0673
H6_8 H 0.1538 0.5735 0.3690
H7_8 H 0.1579 0.5141 0.3682
H8_9 H 0.1992 0.5678 0.2420
Cu1_12 Cu 1.0000 0.4999 1.0000
C16_9 C 0.8875(4) 0.5220(5) 0.9532(10)
C17_9 C 0.8873(3) 0.4794(4) 0.8401(9)
O4_9 O 0.9230(3) 0.4614(4) 0.8442(7)
C18_9 C 0.8400(4) 0.4538(6) 0.7033(12)
H13_8 H 0.8586 0.5334 0.9327
H14_8 H 0.8462 0.4265 0.6310
H15_8 H 0.8421 0.4859 0.6318
H16_9 H 0.8008 0.4322 0.7580
H6_9 H 0.7598 0.2469 0.0357
H7_9 H 0.8192 0.3104 0.0349
C12_9 C 0.7493(5) 0.0083(3) 0.0624(9)
H9_9 H 0.7617 0.0481 0.0937
C11_9 C 0.7559(4) 0.9951(3) 0.8940(7)
C14_9 C 0.7095(5) 0.8940(3) 0.9851(8)
C15_9 C 0.7340(5) 0.9357(3) 0.8567(8)
H11_9 H 0.6954 0.8536 0.9568
H12_9 H 0.7368 0.9239 0.7429
H13_9 H 0.8000 0.9919 0.5993
C2_9 C 0.2441(4) 0.0049(3) 0.1060(7)
C5_9 C 0.2905(5) 0.1060(3) 0.0149(8)
C6_9 C 0.2660(5) 0.0643(3) 0.1433(8)
H3_9 H 0.3046 0.1464 0.0432
H4_9 H 0.2632 0.0761 0.2571
H5_9 H 0.2000 0.0081 0.4007
C3_9 C 0.2507(5) 0.9917(3) 0.9376(9)
H1_9 H 0.2383 0.9519 0.9063
H14_9 H 0.2402 0.7531 0.9643
H15_9 H 0.1808 0.6896 0.9651
loop_
_geom_bond_atom_site_label_1
_geom_bond_atom_site_label_2
_geom_bond_site_symmetry_1
_geom_bond_site_symmetry_2
N2 C13 1_555 1_555
H10 C13 1_555 1_555
Cu2 N2 1_555 1_555
Cu1 O1 1_555 1_555
O1 C1 1_555 1_555
C7 C1 1_555 1_555
C8 C7 1_555 1_555
O2 Cu1 1_555 1_555
C9 C8 1_555 1_555
H6 C9 1_555 1_555
H7 C9 1_555 1_555
H8 C9 1_555 1_555
O3 Cu1 1_555 1_555
C10 O3 1_555 1_555
C11 C10 1_555 1_555
C12 C11 1_555 1_555
C13_2 C12 1_555 1_555
N2_2 C13_2 1_555 1_555
C14 N2_2 1_555 1_555
C15 C11 1_555 1_555
C16 C10 1_555 1_555
C17 C16 1_555 1_555
O4 Cu1 1_555 1_555
C18 C17 1_555 1_555
H9 C12 1_555 1_555
H10_2 C13_2 1_555 1_555
H11 C14 1_555 1_555
H12 C15 1_555 1_555
H13 C16 1_555 1_555
H16 C18 1_555 1_555
Cu3 N2_2 1_555 1_555
N3 Cu1 1_555 1_555
N4 Cu1 1_555 1_555
C8 O2 1_555 1_555
C14 C15 1_555 1_555
C17 O4 1_555 1_555
Cu1_2 O1_2 1_555 1_555
O1_2 C1_2 1_555 1_555
C1_2 C2 1_555 1_555
C2 C3 1_555 1_555
C3 C4 1_555 1_555
C4 N1 1_555 1_555
N1 C5 1_555 1_555
C5 C6 1_555 1_555
C6 C2 1_555 1_555
H1 C3 1_555 1_555
H2 C4 1_555 1_555
H3 C5 1_555 1_555
H4 C6 1_555 1_555
Cu2 N1 1_555 1_555
N4_2 Cu1_2 1_555 1_555
C13_3 C12_2 1_555 1_555
N4 C13_3 1_555 1_555
H9_2 C12_2 1_555 1_555
H10_3 C13_3 1_555 1_555
Cu1_3 O1_3 1_555 1_555
O1_3 C1_3 1_555 1_555
C1_3 C2_2 1_555 1_555
C5_2 C6_2 1_555 1_555
C6_2 C2_2 1_555 1_555
C7_2 C1_3 1_555 1_555
C8_2 C7_2 1_555 1_555
O2_2 Cu1_3 1_555 1_555
C9_2 C8_2 1_555 1_555
H3_2 C5_2 1_555 1_555
H4_2 C6_2 1_555 1_555
H5 C7_2 1_555 1_555
H6_3 C9_2 1_555 1_555
H7_3 C9_2 1_555 1_555
H8_2 C9_2 1_555 1_555
O3_2 Cu1_3 1_555 1_555
C10_2 O3_2 1_555 1_555
C11_2 C10_2 1_555 1_555
C12_3 C11_2 1_555 1_555
C13_4 C12_3 1_555 1_555
N4_2 C13_4 1_555 1_555
C14_2 N4_2 1_555 1_555
C15_2 C11_2 1_555 1_555
C16_2 C10_2 1_555 1_555
C17_2 C16_2 1_555 1_555
O4_2 Cu1_3 1_555 1_555
C18_2 C17_2 1_555 1_555
H9_3 C12_3 1_555 1_555
H10_4 C13_4 1_555 1_555
H11_2 C14_2 1_555 1_555
H12_2 C15_2 1_555 1_555
H13_2 C16_2 1_555 1_555
H16_2 C18_2 1_555 1_555
N3_2 Cu1_3 1_555 1_555
N4_3 Cu1_3 1_555 1_555
C8_2 O2_2 1_555 1_555
C14_2 C15_2 1_555 1_555
C17_2 O4_2 1_555 1_555
Cu1_4 O1_4 1_555 1_555
O1_4 C1_4 1_555 1_555
C1_4 C2_3 1_555 1_555
C2_3 C3_2 1_555 1_555
C3_2 C4_2 1_555 1_555
C4_2 N3 1_555 1_555
N3 C5_3 1_555 1_555
C5_3 C6_3 1_555 1_555
C6_3 C2_3 1_555 1_555
H1_2 C3_2 1_555 1_555
H2_2 C4_2 1_555 1_555
H3_3 C5_3 1_555 1_555
H4_3 C6_3 1_555 1_555
N4_4 Cu1_4 1_555 1_555
N4_3 C13_5 1_555 1_555
H10_5 C13_5 1_555 1_555
Cu2 O1_5 1_555 1_555
O1_5 C1_5 1_555 1_555
C7_3 C1_5 1_555 1_555
C8_3 C7_3 1_555 1_555
O2_3 Cu2 1_555 1_555
C9_3 C8_3 1_555 1_555
H6_4 C9_3 1_555 1_555
H7_4 C9_3 1_555 1_555
H8_3 C9_3 1_555 1_555
O3_3 Cu2 1_555 1_555
C10_3 O3_3 1_555 1_555
C11_3 C10_3 1_555 1_555
C12_4 C11_3 1_555 1_555
C13_6 C12_4 1_555 1_555
N4_4 C13_6 1_555 1_555
C14_3 N4_4 1_555 1_555
C15_3 C11_3 1_555 1_555
C16_3 C10_3 1_555 1_555
C17_3 C16_3 1_555 1_555
O4_3 Cu2 1_555 1_555
C18_3 C17_3 1_555 1_555
H9_4 C12_4 1_555 1_555
H10_6 C13_6 1_555 1_555
H11_3 C14_3 1_555 1_555
H12_3 C15_3 1_555 1_555
H13_3 C16_3 1_555 1_555
H16_3 C18_3 1_555 1_555
C8_3 O2_3 1_555 1_555
C14_3 C15_3 1_555 1_555
C17_3 O4_3 1_555 1_555
Cu3 O1_6 1_555 1_555
O1_6 C1_6 1_555 1_555
C1_6 C2_4 1_555 1_555
C2_4 C3_3 1_555 1_555
C3_3 C4_3 1_555 1_555
C4_3 N3_2 1_555 1_555
N3_2 C5_4 1_555 1_555
C5_4 C6_4 1_555 1_555
C6_4 C2_4 1_555 1_555
H1_3 C3_3 1_555 1_555
H2_3 C4_3 1_555 1_555
H3_4 C5_4 1_555 1_555
H4_4 C6_4 1_555 1_555
C17_4 C16_4 1_555 1_555
O4_4 Cu3 1_555 1_555
C18_4 C17_4 1_555 1_555
H13_4 C16_4 1_555 1_555
H14 C18_4 1_555 1_555
H15 C18_4 1_555 1_555
H16_4 C18_4 1_555 1_555
C17_4 O4_4 1_555 1_555
C15_4 C11_4 1_555 1_555
H11_4 C14_4 1_555 1_555
H12_4 C15_4 1_555 1_555
C14_4 C15_4 1_555 1_555
H9_5 C12_5 1_555 1_555
Cu1_5 O1_7 1_555 1_555
O1_7 C1_7 1_555 1_555
C1_7 C2_5 1_555 1_555
C2_5 C3_4 1_555 1_555
C3_4 C4_4 1_555 1_555
C4_4 N1_2 1_555 1_555
N1_2 C5_5 1_555 1_555
C5_5 C6_5 1_555 1_555
C6_5 C2_5 1_555 1_555
C7_4 C1_7 1_555 1_555
C8_4 C7_4 1_555 1_555
O2_4 Cu1_5 1_555 1_555
C9_4 C8_4 1_555 1_555
H1_4 C3_4 1_555 1_555
H2_4 C4_4 1_555 1_555
H3_5 C5_5 1_555 1_555
H4_5 C6_5 1_555 1_555
H5_2 C7_4 1_555 1_555
H8_4 C9_4 1_555 1_555
O3_4 Cu1_5 1_555 1_555
C10_4 O3_4 1_555 1_555
C16_5 C10_4 1_555 1_555
C17_5 C16_5 1_555 1_555
O4_5 Cu1_5 1_555 1_555
C18_5 C17_5 1_555 1_555
H14_2 C18_5 1_555 1_555
H15_2 C18_5 1_555 1_555
H16_5 C18_5 1_555 1_555
Cu3_2 N1_2 1_555 1_555
N3_3 Cu1_5 1_555 1_555
N4_5 Cu1_5 1_555 1_555
C8_4 O2_4 1_555 1_555
C17_5 O4_5 1_555 1_555
C4_5 N1_3 1_555 1_555
H2_5 C4_5 1_555 1_555
Cu3_3 N1_3 1_555 1_555
O3_5 Cu1_6 1_555 1_555
C10_5 O3_5 1_555 1_555
C11_5 C10_5 1_555 1_555
C12_6 C11_5 1_555 1_555
C13_7 C12_6 1_555 1_555
N2_3 C13_7 1_555 1_555
C14_5 N2_3 1_555 1_555
C15_5 C11_5 1_555 1_555
H9_6 C12_6 1_555 1_555
H10_7 C13_7 1_555 1_555
H11_5 C14_5 1_555 1_555
H12_5 C15_5 1_555 1_555
Cu3_3 N2_3 1_555 1_555
N3_4 Cu1_6 1_555 1_555
C14_5 C15_5 1_555 1_555
Cu1_7 O1_8 1_555 1_555
O1_8 C1_8 1_555 1_555
C1_8 C2_6 1_555 1_555
C2_6 C3_5 1_555 1_555
C3_5 C4_6 1_555 1_555
C4_6 N3_4 1_555 1_555
N3_4 C5_6 1_555 1_555
C5_6 C6_6 1_555 1_555
C6_6 C2_6 1_555 1_555
C7_5 C1_8 1_555 1_555
C8_5 C7_5 1_555 1_555
O2_5 Cu1_7 1_555 1_555
C9_5 C8_5 1_555 1_555
H1_5 C3_5 1_555 1_555
H2_6 C4_6 1_555 1_555
H3_6 C5_6 1_555 1_555
H4_6 C6_6 1_555 1_555
H5_3 C7_5 1_555 1_555
H8_5 C9_5 1_555 1_555
O3_6 Cu1_7 1_555 1_555
C10_6 O3_6 1_555 1_555
C11_6 C10_6 1_555 1_555
C15_6 C11_6 1_555 1_555
C16_6 C10_6 1_555 1_555
C17_6 C16_6 1_555 1_555
O4_6 Cu1_7 1_555 1_555
C18_6 C17_6 1_555 1_555
H11_6 C14_6 1_555 1_555
H12_6 C15_6 1_555 1_555
H13_6 C16_6 1_555 1_555
H14_3 C18_6 1_555 1_555
H15_3 C18_6 1_555 1_555
H16_6 C18_6 1_555 1_555
N3_5 Cu1_7 1_555 1_555
N4_6 Cu1_7 1_555 1_555
C8_5 O2_5 1_555 1_555
C14_6 C15_6 1_555 1_555
C17_6 O4_6 1_555 1_555
C3_6 C4_7 1_555 1_555
C4_7 N3_3 1_555 1_555
H1_6 C3_6 1_555 1_555
H2_7 C4_7 1_555 1_555
O3_7 Cu1_8 1_555 1_555
C10_7 O3_7 1_555 1_555
C11_7 C10_7 1_555 1_555
C12_7 C11_7 1_555 1_555
C13_8 C12_7 1_555 1_555
N4_5 C13_8 1_555 1_555
C14_7 N4_5 1_555 1_555
C15_7 C11_7 1_555 1_555
H9_7 C12_7 1_555 1_555
H10_8 C13_8 1_555 1_555
H11_7 C14_7 1_555 1_555
H12_7 C15_7 1_555 1_555
N3_6 Cu1_8 1_555 1_555
C14_7 C15_7 1_555 1_555
Cu3_3 O1_9 1_555 1_555
O1_9 C1_9 1_555 1_555
C1_9 C2_7 1_555 1_555
C2_7 C3_7 1_555 1_555
C3_7 C4_8 1_555 1_555
C4_8 N3_6 1_555 1_555
N3_6 C5_7 1_555 1_555
C5_7 C6_7 1_555 1_555
C6_7 C2_7 1_555 1_555
C7_6 C1_9 1_555 1_555
C8_6 C7_6 1_555 1_555
O2_6 Cu3_3 1_555 1_555
C9_6 C8_6 1_555 1_555
H1_7 C3_7 1_555 1_555
H2_8 C4_8 1_555 1_555
H3_7 C5_7 1_555 1_555
H4_7 C6_7 1_555 1_555
H5_4 C7_6 1_555 1_555
H8_6 C9_6 1_555 1_555
O3_8 Cu3_3 1_555 1_555
C10_8 O3_8 1_555 1_555
C16_7 C10_8 1_555 1_555
C17_7 C16_7 1_555 1_555
O4_7 Cu3_3 1_555 1_555
C18_7 C17_7 1_555 1_555
H14_5 C18_7 1_555 1_555
H15_5 C18_7 1_555 1_555
H16_7 C18_7 1_555 1_555
C8_6 O2_6 1_555 1_555
C17_7 O4_7 1_555 1_555
C4_9 N3_5 1_555 1_555
H2_9 C4_9 1_555 1_555
C8_7 C7_7 1_555 1_555
O2_7 Cu3_2 1_555 1_555
C9_7 C8_7 1_555 1_555
H5_5 C7_7 1_555 1_555
H6_6 C9_7 1_555 1_555
H7_6 C9_7 1_555 1_555
H8_7 C9_7 1_555 1_555
O3_9 Cu3_2 1_555 1_555
C10_9 O3_9 1_555 1_555
C11_8 C10_9 1_555 1_555
C12_8 C11_8 1_555 1_555
C13_9 C12_8 1_555 1_555
N4_6 C13_9 1_555 1_555
C14_8 N4_6 1_555 1_555
C15_8 C11_8 1_555 1_555
H9_8 C12_8 1_555 1_555
H10_9 C13_9 1_555 1_555
H11_8 C14_8 1_555 1_555
H12_8 C15_8 1_555 1_555
C8_7 O2_7 1_555 1_555
C14_8 C15_8 1_555 1_555
H1_8 C3_8 1_555 1_555
C5_8 C6_8 1_555 1_555
C6_8 C2_8 1_555 1_555
H3_8 C5_8 1_555 1_555
H4_8 C6_8 1_555 1_555
C17_8 C16_8 1_555 1_555
O4_8 Cu1_9 1_555 1_555
C18_8 C17_8 1_555 1_555
H13_7 C16_8 1_555 1_555
H14_7 C18_8 1_555 1_555
H15_7 C18_8 1_555 1_555
H16_8 C18_8 1_555 1_555
C17_8 O4_8 1_555 1_555
C8_8 C7_8 1_555 1_555
O2_8 Cu1_10 1_555 1_555
C9_8 C8_8 1_555 1_555
H5_7 C7_8 1_555 1_555
H6_7 C9_8 1_555 1_555
H7_7 C9_8 1_555 1_555
H8_8 C9_8 1_555 1_555
C8_8 O2_8 1_555 1_555
C8_9 C7_9 1_555 1_555
O2_9 Cu1_11 1_555 1_555
C9_9 C8_9 1_555 1_555
H5_8 C7_9 1_555 1_555
H6_8 C9_9 1_555 1_555
H7_8 C9_9 1_555 1_555
H8_9 C9_9 1_555 1_555
C8_9 O2_9 1_555 1_555
C17_9 C16_9 1_555 1_555
O4_9 Cu1_12 1_555 1_555
C18_9 C17_9 1_555 1_555
H13_8 C16_9 1_555 1_555
H14_8 C18_9 1_555 1_555
H15_8 C18_9 1_555 1_555
H16_9 C18_9 1_555 1_555
C17_9 O4_9 1_555 1_555
H9_9 C12_9 1_555 1_555
C15_9 C11_9 1_555 1_555
H11_9 C14_9 1_555 1_555
H12_9 C15_9 1_555 1_555
C14_9 C15_9 1_555 1_555
C5_9 C6_9 1_555 1_555
C6_9 C2_9 1_555 1_555
H3_9 C5_9 1_555 1_555
H4_9 C6_9 1_555 1_555
H1_9 C3_9 1_555 1_555

#END
