
###############################################################################
#
# This file contains modified crystal structure data generated from the
# MOF subset of the Cambridge Structural Database (CSD) v543 
# hosted by the Cambridge Crystallographic Data Centre (CCDC).
#
# This work is licensed under the Creative Commons
# Attribution-NonCommercial-ShareAlike 4.0 International License.
# To view a copy of this license, visit
# http://creativecommons.org/licenses/by-nc-sa/4.0/
# or send a letter to
# Creative Commons, PO Box 1866, Mountain View, CA 94042, USA.
#
# CIF created using the CSD Python API on 29 September 2022
# The structure has been converted into the P1 space group
# The structure has a 3D framework
# The original CSD entry ECAHIB05 is in the rhombohedral crystal system
# The framework has been calculated to contain at least 10.0% void space
# The void calculation uses a probe of radius 1.32A, grid spacing 0.4
#
###############################################################################

data_ECAHIB05
_chemical_formula_moiety         '(C162 H144 Cu16 N18 O36)n'
_symmetry_cell_setting           triclinic
_symmetry_space_group_name_H-M   'P 1'
_symmetry_Int_Tables_number      1
_space_group_name_Hall           'P 1'
loop_
_symmetry_equiv_pos_site_id
_symmetry_equiv_pos_as_xyz
1 x,y,z
_cell_length_a                   25.7864(8)
_cell_length_b                   25.7864(8)
_cell_length_c                   7.7459(3)
_cell_angle_alpha                90
_cell_angle_beta                 90
_cell_angle_gamma                120
_cell_volume                     4460.5
loop_
_atom_site_label
_atom_site_type_symbol
_atom_site_fract_x
_atom_site_fract_y
_atom_site_fract_z
C13 C 0.0376(2) 0.7572(3) 0.1748(7)
N2 N 0.09406(19) 0.7972(2) 0.1446(5)
H10 H 0.0265 0.7417 0.2885
Cu2 Cu 0.1666 0.8333 0.3333
Cu3 Cu 0.4999 0.5000 1.0000
Cu1 Cu 0.1666 0.3334 0.3334
O1 O 0.09238(16) 0.30141(17) 0.1990(4)
C1 C 0.0414(2) 0.2586(2) 0.2463(6)
C7 C 0.0291(2) 0.2258(3) 0.3977(7)
C8 C 0.0726(2) 0.2230(3) 0.5033(6)
O2 O 0.12797(17) 0.25547(19) 0.4883(5)
C9 C 0.0508(3) 0.1767(3) 0.6428(9)
H6 H 0.0830 0.1694 0.6772
H7 H 0.0381 0.1906 0.7429
H8 H 0.0170 0.1394 0.6005
O3 O 0.24095(16) 0.36526(17) 0.4677(4)
C10 C 0.2919(2) 0.4081(2) 0.4204(6)
C11 C 0.34111(19) 0.4259(2) 0.5503(5)
C12 C 0.3275(2) 0.4038(3) 0.7173(7)
C13_2 C 0.3709(2) 0.4239(3) 0.8415(7)
N2_2 N 0.42739(19) 0.4639(2) 0.8113(5)
C14 C 0.4409(2) 0.4846(3) 0.6493(6)
C15 C 0.4001(2) 0.4664(2) 0.5177(6)
C16 C 0.3042(2) 0.4409(3) 0.2690(7)
C17 C 0.2607(2) 0.4437(3) 0.1634(6)
O4 O 0.20536(17) 0.41120(19) 0.1784(5)
C18 C 0.2825(3) 0.4900(3) 0.0239(9)
H9 H 0.2875 0.3745 0.7458
H10_2 H 0.3598 0.4084 0.9552
H11 H 0.4812 0.5137 0.6243
H12 H 0.4125 0.4818 0.4044
H13 H 0.3448 0.4632 0.2334
H16 H 0.3163 0.5273 0.0662
N3 N 0.1306(2) 0.36984(28) 0.5220(5)
N4 N 0.2028(2) 0.29682(28) 0.1446(5)
Cu1_2 Cu 0.5000 1.0000 1.0000
O1_2 O 0.42572(16) 0.96807(17) 0.8656(4)
C1_2 C 0.3748(2) 0.9252(2) 0.9129(6)
C2 C 0.32556(19) 0.9074(2) 0.7830(5)
C3 C 0.3392(2) 0.9295(3) 0.6160(7)
C4 C 0.2958(2) 0.9094(3) 0.4918(7)
N1 N 0.23928(19) 0.8694(2) 0.5220(5)
C5 C 0.2258(2) 0.8487(3) 0.6840(6)
C6 C 0.2666(2) 0.8669(2) 0.8156(6)
H1 H 0.3792 0.9588 0.5875
H2 H 0.3069 0.9249 0.3781
H3 H 0.1855 0.8196 0.7090
H4 H 0.2542 0.8515 0.9289
N4_2 N 0.5361(2) 0.96349(28) 0.8113(5)
H6_2 H 0.4973 0.2470 0.0105
H7_2 H 0.4761 0.1809 0.0762
C12_2 C 0.2629(3) 0.2570(4) 0.0506(7)
C13_3 C 0.2428(3) 0.2803(4) 0.1748(7)
H9_2 H 0.2922 0.2463 0.0791
H10_3 H 0.2583 0.2847 0.2885
Cu1_3 Cu 0.6666 0.8333 0.3334
O1_3 O 0.69859(17) 0.79098(23) 0.1990(4)
C1_3 C 0.7414(2) 0.7829(3) 0.2463(6)
C2_2 C 0.7592(2) 0.75146(28) 0.1164(5)
C5_2 C 0.8179(3) 0.7104(4) 0.0174(6)
C6_2 C 0.7997(2) 0.7330(3) 0.1490(6)
C7_2 C 0.7742(3) 0.8034(4) 0.3977(7)
C8_2 C 0.7770(3) 0.8497(4) 0.5033(6)
O2_2 O 0.74453(19) 0.87251(25) 0.4883(5)
C9_2 C 0.8233(3) 0.8742(4) 0.6428(9)
H3_2 H 0.8470 0.6992 0.0424
H4_2 H 0.8151 0.7360 0.2623
H5 H 0.7965 0.7851 0.4333
H6_3 H 0.8306 0.9137 0.6772
H7_3 H 0.8094 0.8476 0.7429
H8_2 H 0.8606 0.8777 0.6005
O3_2 O 0.63474(17) 0.87569(23) 0.4677(4)
C10_2 C 0.5919(2) 0.8838(3) 0.4204(6)
C11_2 C 0.5741(2) 0.91521(28) 0.5503(5)
C12_3 C 0.5962(3) 0.9237(4) 0.7173(7)
C13_4 C 0.5761(3) 0.9470(4) 0.8415(7)
C14_2 C 0.5154(3) 0.9563(4) 0.6493(6)
C15_2 C 0.5336(2) 0.9337(3) 0.5177(6)
C16_2 C 0.5591(3) 0.8633(4) 0.2690(7)
C17_2 C 0.5563(3) 0.8170(4) 0.1634(6)
O4_2 O 0.58880(19) 0.79416(25) 0.1784(5)
C18_2 C 0.5100(3) 0.7925(4) 0.0239(9)
H9_3 H 0.6255 0.9130 0.7458
H10_4 H 0.5916 0.9514 0.9552
H11_2 H 0.4863 0.9675 0.6243
H12_2 H 0.5182 0.9307 0.4044
H13_2 H 0.5368 0.8816 0.2334
H16_2 H 0.4727 0.7890 0.0662
N3_2 N 0.63016(28) 0.76072(34) 0.5220(5)
N4_3 N 0.70318(28) 0.90594(34) 0.1446(5)
Cu1_4 Cu -0.0000 0.4999 1.0000
O1_4 O 0.03193(17) 0.45764(23) 0.8656(4)
C1_4 C 0.0748(2) 0.4495(3) 0.9129(6)
C2_3 C 0.0926(2) 0.41812(28) 0.7830(5)
C3_2 C 0.0705(3) 0.4096(4) 0.6160(7)
C4_2 C 0.0906(3) 0.3863(4) 0.4918(7)
C5_3 C 0.1513(3) 0.3770(4) 0.6840(6)
C6_3 C 0.1331(2) 0.3996(3) 0.8156(6)
H1_2 H 0.0412 0.4203 0.5875
H2_2 H 0.0751 0.3819 0.3781
H3_3 H 0.1804 0.3658 0.7090
H4_3 H 0.1485 0.4026 0.9289
N4_4 N 0.03651(28) 0.57261(34) 0.8113(5)
C13_5 C 0.7197(4) 0.9624(2) 0.1748(7)
H10_5 H 0.7153 0.9735 0.2885
O1_5 O 0.20902(23) 0.90762(16) 0.1990(4)
C1_5 C 0.2171(3) 0.9586(2) 0.2463(6)
C7_3 C 0.1966(4) 0.9709(2) 0.3977(7)
C8_3 C 0.1503(4) 0.9274(2) 0.5033(6)
O2_3 O 0.12749(25) 0.87203(17) 0.4883(5)
C9_3 C 0.1258(4) 0.9492(3) 0.6428(9)
H6_4 H 0.0863 0.9170 0.6772
H7_4 H 0.1524 0.9619 0.7429
H8_3 H 0.1223 0.9830 0.6005
O3_3 O 0.12431(23) 0.75905(16) 0.4677(4)
C10_3 C 0.1162(3) 0.7081(2) 0.4204(6)
C11_3 C 0.08479(28) 0.65889(19) 0.5503(5)
C12_4 C 0.0763(4) 0.6725(2) 0.7173(7)
C13_6 C 0.0530(4) 0.6291(2) 0.8415(7)
C14_3 C 0.0437(4) 0.5591(2) 0.6493(6)
C15_3 C 0.0663(3) 0.5999(2) 0.5177(6)
C16_3 C 0.1367(4) 0.6958(2) 0.2690(7)
C17_3 C 0.1830(4) 0.7393(2) 0.1634(6)
O4_3 O 0.20584(25) 0.79464(17) 0.1784(5)
C18_3 C 0.2075(4) 0.7175(3) 0.0239(9)
H9_4 H 0.0870 0.7125 0.7458
H10_6 H 0.0486 0.6402 0.9552
H11_3 H 0.0325 0.5188 0.6243
H12_3 H 0.0693 0.5875 0.4044
H13_3 H 0.1184 0.6552 0.2334
H16_3 H 0.2110 0.6837 0.0662
O1_6 O 0.54236(23) 0.57428(16) 0.8656(4)
C1_6 C 0.5505(3) 0.6252(2) 0.9129(6)
C2_4 C 0.58188(28) 0.67444(19) 0.7830(5)
C3_3 C 0.5904(4) 0.6608(2) 0.6160(7)
C4_3 C 0.6137(4) 0.7042(2) 0.4918(7)
C5_4 C 0.6230(4) 0.7742(2) 0.6840(6)
C6_4 C 0.6004(3) 0.7334(2) 0.8156(6)
H1_3 H 0.5797 0.6208 0.5875
H2_3 H 0.6181 0.6931 0.3781
H3_4 H 0.6342 0.8145 0.7090
H4_4 H 0.5974 0.7458 0.9289
C16_4 C 0.4700(4) 0.3625(2) 0.9357(7)
C17_4 C 0.5163(4) 0.4060(2) 0.8301(6)
O4_4 O 0.53917(25) 0.46131(17) 0.8451(5)
C18_4 C 0.5408(4) 0.3842(3) 0.6906(9)
H13_4 H 0.4517 0.3219 0.9001
H14 H 0.5803 0.4164 0.6562
H15 H 0.5142 0.3715 0.5905
H16_4 H 0.5443 0.3504 0.7329
C11_4 C 0.00778(19) 0.7592(2) 0.8836(5)
C14_4 C 0.1076(2) 0.8179(3) 0.9826(6)
C15_4 C 0.0668(2) 0.7997(2) 0.8510(6)
H11_4 H 0.1479 0.8470 0.9576
H12_4 H 0.0792 0.8151 0.7377
H13_5 H 0.0115 0.7965 0.5667
H6_5 H 0.7497 0.5027 0.0105
H7_5 H 0.7048 0.5239 0.0762
C12_5 C 0.9942(2) 0.7371(3) 0.0506(7)
H9_5 H 0.9542 0.7078 0.0791
Cu1_5 Cu 0.8333 0.6667 0.6667
O1_7 O 0.75905(16) 0.63474(17) 0.5323(4)
C1_7 C 0.7081(2) 0.5919(2) 0.5796(6)
C2_5 C 0.65889(19) 0.5741(2) 0.4497(5)
C3_4 C 0.6725(2) 0.5962(3) 0.2827(7)
C4_4 C 0.6291(2) 0.5761(3) 0.1585(7)
N1_2 N 0.57261(19) 0.5361(2) 0.1887(5)
C5_5 C 0.5591(2) 0.5154(3) 0.3507(6)
C6_5 C 0.5999(2) 0.5336(2) 0.4823(6)
C7_4 C 0.6958(2) 0.5591(3) 0.7310(7)
C8_4 C 0.7393(2) 0.5563(3) 0.8366(6)
O2_4 O 0.79464(17) 0.58880(19) 0.8216(5)
C9_4 C 0.7175(3) 0.5100(3) 0.9761(9)
H1_4 H 0.7125 0.6255 0.2542
H2_4 H 0.6402 0.5916 0.0448
H3_5 H 0.5188 0.4863 0.3757
H4_5 H 0.5875 0.5182 0.5956
H5_2 H 0.6552 0.5368 0.7666
H8_4 H 0.6837 0.4727 0.9338
O3_4 O 0.90762(16) 0.69859(17) 0.8010(4)
C10_4 C 0.9586(2) 0.7414(2) 0.7537(6)
C16_5 C 0.9709(2) 0.7742(3) 0.6023(7)
C17_5 C 0.9274(2) 0.7770(3) 0.4967(6)
O4_5 O 0.87203(17) 0.74453(19) 0.5117(5)
C18_5 C 0.9492(3) 0.8233(3) 0.3572(9)
H14_2 H 0.9170 0.8306 0.3228
H15_2 H 0.9619 0.8094 0.2571
H16_5 H 0.9830 0.8606 0.3995
Cu3_2 Cu 0.4999 0.5000 -0.0000
N3_3 N 0.7972(2) 0.70318(28) 0.8554(5)
N4_5 N 0.8694(2) 0.63016(28) 0.4780(5)
C4_5 C 0.9624(2) 0.2428(3) 0.8252(7)
N1_3 N 0.90594(19) 0.2028(2) 0.8554(5)
H2_5 H 0.9735 0.2583 0.7115
Cu3_3 Cu 0.8333 0.1666 0.6666
Cu1_6 Cu 0.5000 0.0000 0.0000
O3_5 O 0.57428(16) 0.03193(17) 0.1344(4)
C10_5 C 0.6252(2) 0.0748(2) 0.0871(6)
C11_5 C 0.67444(19) 0.0926(2) 0.2170(5)
C12_6 C 0.6608(2) 0.0705(3) 0.3840(7)
C13_7 C 0.7042(2) 0.0906(3) 0.5082(7)
N2_3 N 0.76072(19) 0.1306(2) 0.4780(5)
C14_5 C 0.7742(2) 0.1513(3) 0.3160(6)
C15_5 C 0.7334(2) 0.1331(2) 0.1844(6)
H9_6 H 0.6208 0.0412 0.4125
H10_7 H 0.6931 0.0751 0.6219
H11_5 H 0.8145 0.1804 0.2910
H12_5 H 0.7458 0.1485 0.0711
N3_4 N 0.4639(2) 0.03651(28) 0.1887(5)
Cu1_7 Cu 0.3333 0.1666 0.6667
O1_8 O 0.36526(17) 0.12431(23) 0.5323(4)
C1_8 C 0.4081(2) 0.1162(3) 0.5796(6)
C2_6 C 0.4259(2) 0.08479(28) 0.4497(5)
C3_5 C 0.4038(3) 0.0763(4) 0.2827(7)
C4_6 C 0.4239(3) 0.0530(4) 0.1585(7)
C5_6 C 0.4846(3) 0.0437(4) 0.3507(6)
C6_6 C 0.4664(2) 0.0663(3) 0.4823(6)
C7_5 C 0.4409(3) 0.1367(4) 0.7310(7)
C8_5 C 0.4437(3) 0.1830(4) 0.8366(6)
O2_5 O 0.41120(19) 0.20584(25) 0.8216(5)
C9_5 C 0.4900(3) 0.2075(4) 0.9761(9)
H1_5 H 0.3745 0.0870 0.2542
H2_6 H 0.4084 0.0486 0.0448
H3_6 H 0.5137 0.0325 0.3757
H4_6 H 0.4818 0.0693 0.5956
H5_3 H 0.4632 0.1184 0.7666
H8_5 H 0.5273 0.2110 0.9338
O3_6 O 0.30141(17) 0.20902(23) 0.8010(4)
C10_6 C 0.2586(2) 0.2171(3) 0.7537(6)
C11_6 C 0.2408(2) 0.24854(28) 0.8836(5)
C14_6 C 0.1821(3) 0.2896(4) 0.9826(6)
C15_6 C 0.2003(2) 0.2670(3) 0.8510(6)
C16_6 C 0.2258(3) 0.1966(4) 0.6023(7)
C17_6 C 0.2230(3) 0.1503(4) 0.4967(6)
O4_6 O 0.25547(19) 0.12749(25) 0.5117(5)
C18_6 C 0.1767(3) 0.1258(4) 0.3572(9)
H11_6 H 0.1530 0.3008 0.9576
H12_6 H 0.1849 0.2640 0.7377
H13_6 H 0.2035 0.2149 0.5667
H14_3 H 0.1694 0.0863 0.3228
H15_3 H 0.1906 0.1524 0.2571
H16_6 H 0.1394 0.1223 0.3995
N3_5 N 0.29682(28) 0.09406(34) 0.8554(5)
N4_6 N 0.36984(28) 0.23928(34) 0.4780(5)
C3_6 C 0.7371(3) 0.7430(4) 0.9494(7)
C4_7 C 0.7572(3) 0.7197(4) 0.8252(7)
H1_6 H 0.7078 0.7537 0.9209
H2_7 H 0.7417 0.7153 0.7115
H14_4 H 0.5027 0.7530 0.9895
H15_4 H 0.5239 0.8191 0.9238
Cu1_8 Cu 1.0000 0.4999 0.0000
O3_7 O 0.96807(17) 0.54236(23) 0.1344(4)
C10_7 C 0.9252(2) 0.5505(3) 0.0871(6)
C11_7 C 0.9074(2) 0.58188(28) 0.2170(5)
C12_7 C 0.9295(3) 0.5904(4) 0.3840(7)
C13_8 C 0.9094(3) 0.6137(4) 0.5082(7)
C14_7 C 0.8487(3) 0.6230(4) 0.3160(6)
C15_7 C 0.8669(2) 0.6004(3) 0.1844(6)
H9_7 H 0.9588 0.5797 0.4125
H10_8 H 0.9249 0.6181 0.6219
H11_7 H 0.8196 0.6342 0.2910
H12_7 H 0.8515 0.5974 0.0711
N3_6 N 0.96349(28) 0.42739(34) 0.1887(5)
O1_9 O 0.87569(23) 0.24095(16) 0.5323(4)
C1_9 C 0.8838(3) 0.2919(2) 0.5796(6)
C2_7 C 0.91521(28) 0.34111(19) 0.4497(5)
C3_7 C 0.9237(4) 0.3275(2) 0.2827(7)
C4_8 C 0.9470(4) 0.3709(2) 0.1585(7)
C5_7 C 0.9563(4) 0.4409(2) 0.3507(6)
C6_7 C 0.9337(3) 0.4001(2) 0.4823(6)
C7_6 C 0.8633(4) 0.3042(2) 0.7310(7)
C8_6 C 0.8170(4) 0.2607(2) 0.8366(6)
O2_6 O 0.79416(25) 0.20536(17) 0.8216(5)
C9_6 C 0.7925(4) 0.2825(3) 0.9761(9)
H1_7 H 0.9130 0.2875 0.2542
H2_8 H 0.9514 0.3598 0.0448
H3_7 H 0.9675 0.4812 0.3757
H4_7 H 0.9307 0.4125 0.5956
H5_4 H 0.8816 0.3448 0.7666
H8_6 H 0.7890 0.3163 0.9338
O3_8 O 0.79098(23) 0.09238(16) 0.8010(4)
C10_8 C 0.7829(3) 0.0414(2) 0.7537(6)
C16_7 C 0.8034(4) 0.0291(2) 0.6023(7)
C17_7 C 0.8497(4) 0.0726(2) 0.4967(6)
O4_7 O 0.87251(25) 0.12797(17) 0.5117(5)
C18_7 C 0.8742(4) 0.0508(3) 0.3572(9)
H14_5 H 0.9137 0.0830 0.3228
H15_5 H 0.8476 0.0381 0.2571
H16_7 H 0.8777 0.0170 0.3995
C4_9 C 0.2803(4) 0.0376(2) 0.8252(7)
H2_9 H 0.2847 0.0265 0.7115
C7_7 C 0.5300(4) 0.6375(2) 0.0643(7)
C8_7 C 0.4837(4) 0.5940(2) 0.1699(6)
O2_7 O 0.46083(25) 0.53869(17) 0.1549(5)
C9_7 C 0.4592(4) 0.6158(3) 0.3094(9)
H5_5 H 0.5483 0.6781 0.0999
H6_6 H 0.4197 0.5836 0.3438
H7_6 H 0.4858 0.6285 0.4095
H8_7 H 0.4557 0.6496 0.2671
O3_9 O 0.45764(23) 0.42572(16) 0.1344(4)
C10_9 C 0.4495(3) 0.3748(2) 0.0871(6)
C11_8 C 0.41812(28) 0.32556(19) 0.2170(5)
C12_8 C 0.4096(4) 0.3392(2) 0.3840(7)
C13_9 C 0.3863(4) 0.2958(2) 0.5082(7)
C14_8 C 0.3770(4) 0.2258(2) 0.3160(6)
C15_8 C 0.3996(3) 0.2666(2) 0.1844(6)
H9_8 H 0.4203 0.3792 0.4125
H10_9 H 0.3819 0.3069 0.6219
H11_8 H 0.3658 0.1855 0.2910
H12_8 H 0.4026 0.2542 0.0711
C3_8 C 0.0058(2) 0.2629(3) 0.9494(7)
H1_8 H 0.0458 0.2922 0.9209
H14_6 H 0.2503 0.4973 0.9895
H15_6 H 0.2952 0.4761 0.9238
C2_8 C 0.99222(19) 0.2408(2) 0.1164(5)
C5_8 C 0.8924(2) 0.1821(3) 0.0174(6)
C6_8 C 0.9332(2) 0.2003(2) 0.1490(6)
H3_8 H 0.8521 0.1530 0.0424
H4_8 H 0.9208 0.1849 0.2623
H5_6 H 0.9885 0.2035 0.4333
Cu1_9 Cu 0.5000 0.0000 1.0000
C16_8 C 0.6375(2) 0.1076(3) 0.9357(7)
C17_8 C 0.5940(2) 0.1104(3) 0.8301(6)
O4_8 O 0.53869(17) 0.07787(19) 0.8451(5)
C18_8 C 0.6158(3) 0.1567(3) 0.6906(9)
H13_7 H 0.6781 0.1299 0.9001
H14_7 H 0.5836 0.1640 0.6562
H15_7 H 0.6285 0.1428 0.5905
H16_8 H 0.6496 0.1940 0.7329
Cu1_10 Cu 0.5000 1.0000 0.0000
C7_8 C 0.3625(2) 0.8924(3) 0.0643(7)
C8_8 C 0.4060(2) 0.8896(3) 0.1699(6)
O2_8 O 0.46131(17) 0.92213(19) 0.1549(5)
C9_8 C 0.3842(3) 0.8433(3) 0.3094(9)
H5_7 H 0.3219 0.8701 0.0999
H6_7 H 0.4164 0.8360 0.3438
H7_7 H 0.3715 0.8572 0.4095
H8_8 H 0.3504 0.8060 0.2671
Cu1_11 Cu -0.0000 0.4999 0.0000
C7_9 C 0.1076(3) 0.4700(4) 0.0643(7)
C8_9 C 0.1104(3) 0.5163(4) 0.1699(6)
O2_9 O 0.07787(19) 0.53917(25) 0.1549(5)
C9_9 C 0.1567(3) 0.5408(4) 0.3094(9)
H5_8 H 0.1299 0.4517 0.0999
H6_8 H 0.1640 0.5803 0.3438
H7_8 H 0.1428 0.5142 0.4095
H8_9 H 0.1940 0.5443 0.2671
Cu1_12 Cu 1.0000 0.4999 1.0000
C16_9 C 0.8924(3) 0.5300(4) 0.9357(7)
C17_9 C 0.8896(3) 0.4837(4) 0.8301(6)
O4_9 O 0.92213(19) 0.46083(25) 0.8451(5)
C18_9 C 0.8433(3) 0.4592(4) 0.6906(9)
H13_8 H 0.8701 0.5483 0.9001
H14_8 H 0.8360 0.4197 0.6562
H15_8 H 0.8572 0.4858 0.5905
H16_9 H 0.8060 0.4557 0.7329
H6_9 H 0.7530 0.2503 0.0105
H7_9 H 0.8191 0.2952 0.0762
C12_9 C 0.7430(4) 0.0058(2) 0.0506(7)
H9_9 H 0.7537 0.0458 0.0791
C11_9 C 0.75146(28) 0.99222(19) 0.8836(5)
C14_9 C 0.7104(4) 0.8924(2) 0.9826(6)
C15_9 C 0.7330(3) 0.9332(2) 0.8510(6)
H11_9 H 0.6992 0.8521 0.9576
H12_9 H 0.7360 0.9208 0.7377
H13_9 H 0.7851 0.9885 0.5667
C2_9 C 0.24854(28) 0.00778(19) 0.1164(5)
C5_9 C 0.2896(4) 0.1076(2) 0.0174(6)
C6_9 C 0.2670(3) 0.0668(2) 0.1490(6)
H3_9 H 0.3008 0.1479 0.0424
H4_9 H 0.2640 0.0792 0.2623
H5_9 H 0.2149 0.0115 0.4333
C3_9 C 0.2570(4) 0.9942(2) 0.9494(7)
H1_9 H 0.2463 0.9542 0.9209
H14_9 H 0.2470 0.7497 0.9895
H15_9 H 0.1809 0.7048 0.9238
loop_
_geom_bond_atom_site_label_1
_geom_bond_atom_site_label_2
_geom_bond_site_symmetry_1
_geom_bond_site_symmetry_2
N2 C13 1_555 1_555
H10 C13 1_555 1_555
Cu2 N2 1_555 1_555
Cu1 O1 1_555 1_555
O1 C1 1_555 1_555
C7 C1 1_555 1_555
C8 C7 1_555 1_555
O2 Cu1 1_555 1_555
C9 C8 1_555 1_555
H6 C9 1_555 1_555
H7 C9 1_555 1_555
H8 C9 1_555 1_555
O3 Cu1 1_555 1_555
C10 O3 1_555 1_555
C11 C10 1_555 1_555
C12 C11 1_555 1_555
C13_2 C12 1_555 1_555
N2_2 C13_2 1_555 1_555
C14 N2_2 1_555 1_555
C15 C11 1_555 1_555
C16 C10 1_555 1_555
C17 C16 1_555 1_555
O4 Cu1 1_555 1_555
C18 C17 1_555 1_555
H9 C12 1_555 1_555
H10_2 C13_2 1_555 1_555
H11 C14 1_555 1_555
H12 C15 1_555 1_555
H13 C16 1_555 1_555
H16 C18 1_555 1_555
Cu3 N2_2 1_555 1_555
N3 Cu1 1_555 1_555
N4 Cu1 1_555 1_555
C8 O2 1_555 1_555
C14 C15 1_555 1_555
C17 O4 1_555 1_555
Cu1_2 O1_2 1_555 1_555
O1_2 C1_2 1_555 1_555
C1_2 C2 1_555 1_555
C2 C3 1_555 1_555
C3 C4 1_555 1_555
C4 N1 1_555 1_555
N1 C5 1_555 1_555
C5 C6 1_555 1_555
C6 C2 1_555 1_555
H1 C3 1_555 1_555
H2 C4 1_555 1_555
H3 C5 1_555 1_555
H4 C6 1_555 1_555
Cu2 N1 1_555 1_555
N4_2 Cu1_2 1_555 1_555
C13_3 C12_2 1_555 1_555
N4 C13_3 1_555 1_555
H9_2 C12_2 1_555 1_555
H10_3 C13_3 1_555 1_555
Cu1_3 O1_3 1_555 1_555
O1_3 C1_3 1_555 1_555
C1_3 C2_2 1_555 1_555
C5_2 C6_2 1_555 1_555
C6_2 C2_2 1_555 1_555
C7_2 C1_3 1_555 1_555
C8_2 C7_2 1_555 1_555
O2_2 Cu1_3 1_555 1_555
C9_2 C8_2 1_555 1_555
H3_2 C5_2 1_555 1_555
H4_2 C6_2 1_555 1_555
H5 C7_2 1_555 1_555
H6_3 C9_2 1_555 1_555
H7_3 C9_2 1_555 1_555
H8_2 C9_2 1_555 1_555
O3_2 Cu1_3 1_555 1_555
C10_2 O3_2 1_555 1_555
C11_2 C10_2 1_555 1_555
C12_3 C11_2 1_555 1_555
C13_4 C12_3 1_555 1_555
N4_2 C13_4 1_555 1_555
C14_2 N4_2 1_555 1_555
C15_2 C11_2 1_555 1_555
C16_2 C10_2 1_555 1_555
C17_2 C16_2 1_555 1_555
O4_2 Cu1_3 1_555 1_555
C18_2 C17_2 1_555 1_555
H9_3 C12_3 1_555 1_555
H10_4 C13_4 1_555 1_555
H11_2 C14_2 1_555 1_555
H12_2 C15_2 1_555 1_555
H13_2 C16_2 1_555 1_555
H16_2 C18_2 1_555 1_555
N3_2 Cu1_3 1_555 1_555
N4_3 Cu1_3 1_555 1_555
C8_2 O2_2 1_555 1_555
C14_2 C15_2 1_555 1_555
C17_2 O4_2 1_555 1_555
Cu1_4 O1_4 1_555 1_555
O1_4 C1_4 1_555 1_555
C1_4 C2_3 1_555 1_555
C2_3 C3_2 1_555 1_555
C3_2 C4_2 1_555 1_555
C4_2 N3 1_555 1_555
N3 C5_3 1_555 1_555
C5_3 C6_3 1_555 1_555
C6_3 C2_3 1_555 1_555
H1_2 C3_2 1_555 1_555
H2_2 C4_2 1_555 1_555
H3_3 C5_3 1_555 1_555
H4_3 C6_3 1_555 1_555
N4_4 Cu1_4 1_555 1_555
N4_3 C13_5 1_555 1_555
H10_5 C13_5 1_555 1_555
Cu2 O1_5 1_555 1_555
O1_5 C1_5 1_555 1_555
C7_3 C1_5 1_555 1_555
C8_3 C7_3 1_555 1_555
O2_3 Cu2 1_555 1_555
C9_3 C8_3 1_555 1_555
H6_4 C9_3 1_555 1_555
H7_4 C9_3 1_555 1_555
H8_3 C9_3 1_555 1_555
O3_3 Cu2 1_555 1_555
C10_3 O3_3 1_555 1_555
C11_3 C10_3 1_555 1_555
C12_4 C11_3 1_555 1_555
C13_6 C12_4 1_555 1_555
N4_4 C13_6 1_555 1_555
C14_3 N4_4 1_555 1_555
C15_3 C11_3 1_555 1_555
C16_3 C10_3 1_555 1_555
C17_3 C16_3 1_555 1_555
O4_3 Cu2 1_555 1_555
C18_3 C17_3 1_555 1_555
H9_4 C12_4 1_555 1_555
H10_6 C13_6 1_555 1_555
H11_3 C14_3 1_555 1_555
H12_3 C15_3 1_555 1_555
H13_3 C16_3 1_555 1_555
H16_3 C18_3 1_555 1_555
C8_3 O2_3 1_555 1_555
C14_3 C15_3 1_555 1_555
C17_3 O4_3 1_555 1_555
Cu3 O1_6 1_555 1_555
O1_6 C1_6 1_555 1_555
C1_6 C2_4 1_555 1_555
C2_4 C3_3 1_555 1_555
C3_3 C4_3 1_555 1_555
C4_3 N3_2 1_555 1_555
N3_2 C5_4 1_555 1_555
C5_4 C6_4 1_555 1_555
C6_4 C2_4 1_555 1_555
H1_3 C3_3 1_555 1_555
H2_3 C4_3 1_555 1_555
H3_4 C5_4 1_555 1_555
H4_4 C6_4 1_555 1_555
C17_4 C16_4 1_555 1_555
O4_4 Cu3 1_555 1_555
C18_4 C17_4 1_555 1_555
H13_4 C16_4 1_555 1_555
H14 C18_4 1_555 1_555
H15 C18_4 1_555 1_555
H16_4 C18_4 1_555 1_555
C17_4 O4_4 1_555 1_555
C15_4 C11_4 1_555 1_555
H11_4 C14_4 1_555 1_555
H12_4 C15_4 1_555 1_555
C14_4 C15_4 1_555 1_555
H9_5 C12_5 1_555 1_555
Cu1_5 O1_7 1_555 1_555
O1_7 C1_7 1_555 1_555
C1_7 C2_5 1_555 1_555
C2_5 C3_4 1_555 1_555
C3_4 C4_4 1_555 1_555
C4_4 N1_2 1_555 1_555
N1_2 C5_5 1_555 1_555
C5_5 C6_5 1_555 1_555
C6_5 C2_5 1_555 1_555
C7_4 C1_7 1_555 1_555
C8_4 C7_4 1_555 1_555
O2_4 Cu1_5 1_555 1_555
C9_4 C8_4 1_555 1_555
H1_4 C3_4 1_555 1_555
H2_4 C4_4 1_555 1_555
H3_5 C5_5 1_555 1_555
H4_5 C6_5 1_555 1_555
H5_2 C7_4 1_555 1_555
H8_4 C9_4 1_555 1_555
O3_4 Cu1_5 1_555 1_555
C10_4 O3_4 1_555 1_555
C16_5 C10_4 1_555 1_555
C17_5 C16_5 1_555 1_555
O4_5 Cu1_5 1_555 1_555
C18_5 C17_5 1_555 1_555
H14_2 C18_5 1_555 1_555
H15_2 C18_5 1_555 1_555
H16_5 C18_5 1_555 1_555
Cu3_2 N1_2 1_555 1_555
N3_3 Cu1_5 1_555 1_555
N4_5 Cu1_5 1_555 1_555
C8_4 O2_4 1_555 1_555
C17_5 O4_5 1_555 1_555
C4_5 N1_3 1_555 1_555
H2_5 C4_5 1_555 1_555
Cu3_3 N1_3 1_555 1_555
O3_5 Cu1_6 1_555 1_555
C10_5 O3_5 1_555 1_555
C11_5 C10_5 1_555 1_555
C12_6 C11_5 1_555 1_555
C13_7 C12_6 1_555 1_555
N2_3 C13_7 1_555 1_555
C14_5 N2_3 1_555 1_555
C15_5 C11_5 1_555 1_555
H9_6 C12_6 1_555 1_555
H10_7 C13_7 1_555 1_555
H11_5 C14_5 1_555 1_555
H12_5 C15_5 1_555 1_555
Cu3_3 N2_3 1_555 1_555
N3_4 Cu1_6 1_555 1_555
C14_5 C15_5 1_555 1_555
Cu1_7 O1_8 1_555 1_555
O1_8 C1_8 1_555 1_555
C1_8 C2_6 1_555 1_555
C2_6 C3_5 1_555 1_555
C3_5 C4_6 1_555 1_555
C4_6 N3_4 1_555 1_555
N3_4 C5_6 1_555 1_555
C5_6 C6_6 1_555 1_555
C6_6 C2_6 1_555 1_555
C7_5 C1_8 1_555 1_555
C8_5 C7_5 1_555 1_555
O2_5 Cu1_7 1_555 1_555
C9_5 C8_5 1_555 1_555
H1_5 C3_5 1_555 1_555
H2_6 C4_6 1_555 1_555
H3_6 C5_6 1_555 1_555
H4_6 C6_6 1_555 1_555
H5_3 C7_5 1_555 1_555
H8_5 C9_5 1_555 1_555
O3_6 Cu1_7 1_555 1_555
C10_6 O3_6 1_555 1_555
C11_6 C10_6 1_555 1_555
C15_6 C11_6 1_555 1_555
C16_6 C10_6 1_555 1_555
C17_6 C16_6 1_555 1_555
O4_6 Cu1_7 1_555 1_555
C18_6 C17_6 1_555 1_555
H11_6 C14_6 1_555 1_555
H12_6 C15_6 1_555 1_555
H13_6 C16_6 1_555 1_555
H14_3 C18_6 1_555 1_555
H15_3 C18_6 1_555 1_555
H16_6 C18_6 1_555 1_555
N3_5 Cu1_7 1_555 1_555
N4_6 Cu1_7 1_555 1_555
C8_5 O2_5 1_555 1_555
C14_6 C15_6 1_555 1_555
C17_6 O4_6 1_555 1_555
C3_6 C4_7 1_555 1_555
C4_7 N3_3 1_555 1_555
H1_6 C3_6 1_555 1_555
H2_7 C4_7 1_555 1_555
O3_7 Cu1_8 1_555 1_555
C10_7 O3_7 1_555 1_555
C11_7 C10_7 1_555 1_555
C12_7 C11_7 1_555 1_555
C13_8 C12_7 1_555 1_555
N4_5 C13_8 1_555 1_555
C14_7 N4_5 1_555 1_555
C15_7 C11_7 1_555 1_555
H9_7 C12_7 1_555 1_555
H10_8 C13_8 1_555 1_555
H11_7 C14_7 1_555 1_555
H12_7 C15_7 1_555 1_555
N3_6 Cu1_8 1_555 1_555
C14_7 C15_7 1_555 1_555
Cu3_3 O1_9 1_555 1_555
O1_9 C1_9 1_555 1_555
C1_9 C2_7 1_555 1_555
C2_7 C3_7 1_555 1_555
C3_7 C4_8 1_555 1_555
C4_8 N3_6 1_555 1_555
N3_6 C5_7 1_555 1_555
C5_7 C6_7 1_555 1_555
C6_7 C2_7 1_555 1_555
C7_6 C1_9 1_555 1_555
C8_6 C7_6 1_555 1_555
O2_6 Cu3_3 1_555 1_555
C9_6 C8_6 1_555 1_555
H1_7 C3_7 1_555 1_555
H2_8 C4_8 1_555 1_555
H3_7 C5_7 1_555 1_555
H4_7 C6_7 1_555 1_555
H5_4 C7_6 1_555 1_555
H8_6 C9_6 1_555 1_555
O3_8 Cu3_3 1_555 1_555
C10_8 O3_8 1_555 1_555
C16_7 C10_8 1_555 1_555
C17_7 C16_7 1_555 1_555
O4_7 Cu3_3 1_555 1_555
C18_7 C17_7 1_555 1_555
H14_5 C18_7 1_555 1_555
H15_5 C18_7 1_555 1_555
H16_7 C18_7 1_555 1_555
C8_6 O2_6 1_555 1_555
C17_7 O4_7 1_555 1_555
C4_9 N3_5 1_555 1_555
H2_9 C4_9 1_555 1_555
C8_7 C7_7 1_555 1_555
O2_7 Cu3_2 1_555 1_555
C9_7 C8_7 1_555 1_555
H5_5 C7_7 1_555 1_555
H6_6 C9_7 1_555 1_555
H7_6 C9_7 1_555 1_555
H8_7 C9_7 1_555 1_555
O3_9 Cu3_2 1_555 1_555
C10_9 O3_9 1_555 1_555
C11_8 C10_9 1_555 1_555
C12_8 C11_8 1_555 1_555
C13_9 C12_8 1_555 1_555
N4_6 C13_9 1_555 1_555
C14_8 N4_6 1_555 1_555
C15_8 C11_8 1_555 1_555
H9_8 C12_8 1_555 1_555
H10_9 C13_9 1_555 1_555
H11_8 C14_8 1_555 1_555
H12_8 C15_8 1_555 1_555
C8_7 O2_7 1_555 1_555
C14_8 C15_8 1_555 1_555
H1_8 C3_8 1_555 1_555
C5_8 C6_8 1_555 1_555
C6_8 C2_8 1_555 1_555
H3_8 C5_8 1_555 1_555
H4_8 C6_8 1_555 1_555
C17_8 C16_8 1_555 1_555
O4_8 Cu1_9 1_555 1_555
C18_8 C17_8 1_555 1_555
H13_7 C16_8 1_555 1_555
H14_7 C18_8 1_555 1_555
H15_7 C18_8 1_555 1_555
H16_8 C18_8 1_555 1_555
C17_8 O4_8 1_555 1_555
C8_8 C7_8 1_555 1_555
O2_8 Cu1_10 1_555 1_555
C9_8 C8_8 1_555 1_555
H5_7 C7_8 1_555 1_555
H6_7 C9_8 1_555 1_555
H7_7 C9_8 1_555 1_555
H8_8 C9_8 1_555 1_555
C8_8 O2_8 1_555 1_555
C8_9 C7_9 1_555 1_555
O2_9 Cu1_11 1_555 1_555
C9_9 C8_9 1_555 1_555
H5_8 C7_9 1_555 1_555
H6_8 C9_9 1_555 1_555
H7_8 C9_9 1_555 1_555
H8_9 C9_9 1_555 1_555
C8_9 O2_9 1_555 1_555
C17_9 C16_9 1_555 1_555
O4_9 Cu1_12 1_555 1_555
C18_9 C17_9 1_555 1_555
H13_8 C16_9 1_555 1_555
H14_8 C18_9 1_555 1_555
H15_8 C18_9 1_555 1_555
H16_9 C18_9 1_555 1_555
C17_9 O4_9 1_555 1_555
H9_9 C12_9 1_555 1_555
C15_9 C11_9 1_555 1_555
H11_9 C14_9 1_555 1_555
H12_9 C15_9 1_555 1_555
C14_9 C15_9 1_555 1_555
C5_9 C6_9 1_555 1_555
C6_9 C2_9 1_555 1_555
H3_9 C5_9 1_555 1_555
H4_9 C6_9 1_555 1_555
H1_9 C3_9 1_555 1_555

#END
