
###############################################################################
#
# This file contains modified crystal structure data generated from the
# MOF subset of the Cambridge Structural Database (CSD) v543 
# hosted by the Cambridge Crystallographic Data Centre (CCDC).
#
# This work is licensed under the Creative Commons
# Attribution-NonCommercial-ShareAlike 4.0 International License.
# To view a copy of this license, visit
# http://creativecommons.org/licenses/by-nc-sa/4.0/
# or send a letter to
# Creative Commons, PO Box 1866, Mountain View, CA 94042, USA.
#
# CIF created using the CSD Python API on 29 September 2022
# The structure has been converted into the P1 space group
# The structure has a 3D framework
# The original CSD entry ECAHIB03 is in the rhombohedral crystal system
# The framework has been calculated to contain at least 10.0% void space
# The void calculation uses a probe of radius 1.32A, grid spacing 0.4
#
###############################################################################

data_ECAHIB03
_chemical_formula_moiety         '(C162 H144 Cu16 N18 O36)n'
_symmetry_cell_setting           triclinic
_symmetry_space_group_name_H-M   'P 1'
_symmetry_Int_Tables_number      1
_space_group_name_Hall           'P 1'
loop_
_symmetry_equiv_pos_site_id
_symmetry_equiv_pos_as_xyz
1 x,y,z
_cell_length_a                   26.1591(14)
_cell_length_b                   26.1591(14)
_cell_length_c                   7.7544(5)
_cell_angle_alpha                90
_cell_angle_beta                 90
_cell_angle_gamma                120
_cell_volume                     4595.41
loop_
_atom_site_label
_atom_site_type_symbol
_atom_site_fract_x
_atom_site_fract_y
_atom_site_fract_z
C13 C 0.0343(3) 0.7564(3) 0.1742(7)
N2 N 0.0906(2) 0.7943(2) 0.1416(6)
H10 H 0.0243 0.7427 0.2894
Cu2 Cu 0.1666 0.8333 0.3333
Cu3 Cu 0.4999 0.5000 1.0000
Cu1 Cu 0.1666 0.3334 0.3334
O1 O 0.09430(17) 0.30159(18) 0.1964(5)
C1 C 0.0441(2) 0.2599(2) 0.2440(6)
C7 C 0.0330(2) 0.2273(3) 0.3942(7)
C8 C 0.0763(2) 0.2255(3) 0.4990(7)
O2 O 0.13089(19) 0.2598(2) 0.4854(5)
C9 C 0.0560(3) 0.1794(3) 0.6372(10)
H6 H 0.0885 0.1734 0.6725
H7 H 0.0424 0.1924 0.7370
H8 H 0.0233 0.1422 0.5937
O3 O 0.23903(17) 0.36508(18) 0.4703(5)
C10 C 0.2892(2) 0.4068(2) 0.4227(6)
C11 C 0.3380(2) 0.4240(2) 0.5499(6)
C12 C 0.3248(2) 0.4035(3) 0.7177(7)
C13_2 C 0.3676(3) 0.4231(3) 0.8409(7)
N2_2 N 0.4239(2) 0.4610(2) 0.8083(6)
C14 C 0.4374(2) 0.4809(3) 0.6452(7)
C15 C 0.3959(2) 0.4631(3) 0.5150(6)
C16 C 0.3003(2) 0.4394(3) 0.2725(7)
C17 C 0.2570(2) 0.4412(3) 0.1677(7)
O4 O 0.20244(19) 0.4069(2) 0.1813(5)
C18 C 0.2773(3) 0.4873(3) 0.0295(10)
H9 H 0.2856 0.3769 0.7499
H10_2 H 0.3576 0.4094 0.9561
H11 H 0.4771 0.5074 0.6172
H12 H 0.4077 0.4766 0.4004
H13 H 0.3399 0.4641 0.2402
H16 H 0.3100 0.5245 0.0730
N3 N 0.1277(2) 0.3704(3) 0.5250(6)
N4 N 0.2057(2) 0.2962(3) 0.1416(6)
Cu1_2 Cu 0.5000 1.0000 1.0000
O1_2 O 0.42764(17) 0.96825(18) 0.8630(5)
C1_2 C 0.3775(2) 0.9265(2) 0.9106(6)
C2 C 0.3287(2) 0.9093(2) 0.7834(6)
C3 C 0.3419(2) 0.9298(3) 0.6156(7)
C4 C 0.2991(3) 0.9102(3) 0.4924(7)
N1 N 0.2428(2) 0.8723(2) 0.5250(6)
C5 C 0.2293(2) 0.8524(3) 0.6881(7)
C6 C 0.2708(2) 0.8702(3) 0.8183(6)
H1 H 0.3811 0.9564 0.5834
H2 H 0.3091 0.9239 0.3772
H3 H 0.1896 0.8259 0.7161
H4 H 0.2590 0.8567 0.9329
N4_2 N 0.5390(2) 0.9629(3) 0.8083(6)
H6_2 H 0.4933 0.2485 0.0058
H7_2 H 0.4743 0.1834 0.0703
C12_2 C 0.2632(3) 0.2546(4) 0.0510(7)
C13_3 C 0.2436(3) 0.2778(4) 0.1742(7)
H9_2 H 0.2898 0.2420 0.0832
H10_3 H 0.2573 0.2815 0.2894
Cu1_3 Cu 0.6666 0.8333 0.3334
O1_3 O 0.69841(18) 0.79272(25) 0.1964(5)
C1_3 C 0.7401(2) 0.7843(3) 0.2440(6)
C2_2 C 0.7573(2) 0.7527(3) 0.1168(6)
C5_2 C 0.8142(3) 0.7102(4) 0.0215(7)
C6_2 C 0.7964(3) 0.7339(4) 0.1517(6)
C7_2 C 0.7727(3) 0.8058(4) 0.3942(7)
C8_2 C 0.7745(3) 0.8509(4) 0.4990(7)
O2_2 O 0.7402(2) 0.87113(28) 0.4854(5)
C9_2 C 0.8206(3) 0.8767(4) 0.6372(10)
H3_2 H 0.8407 0.6970 0.0495
H4_2 H 0.8099 0.7356 0.2663
H5 H 0.7974 0.7909 0.4265
H6_3 H 0.8266 0.9152 0.6725
H7_3 H 0.8076 0.8501 0.7370
H8_2 H 0.8578 0.8812 0.5937
O3_2 O 0.63492(18) 0.87395(25) 0.4703(5)
C10_2 C 0.5932(2) 0.8824(3) 0.4227(6)
C11_2 C 0.5760(2) 0.9140(3) 0.5499(6)
C12_3 C 0.5965(3) 0.9213(4) 0.7177(7)
C13_4 C 0.5769(3) 0.9445(4) 0.8409(7)
C14_2 C 0.5191(3) 0.9565(4) 0.6452(7)
C15_2 C 0.5369(3) 0.9328(4) 0.5150(6)
C16_2 C 0.5606(3) 0.8609(4) 0.2725(7)
C17_2 C 0.5588(3) 0.8158(4) 0.1677(7)
O4_2 O 0.5931(2) 0.79554(28) 0.1813(5)
C18_2 C 0.5127(3) 0.7900(4) 0.0295(10)
H9_3 H 0.6231 0.9087 0.7499
H10_4 H 0.5906 0.9482 0.9561
H11_2 H 0.4926 0.9697 0.6172
H12_2 H 0.5234 0.9311 0.4004
H13_2 H 0.5359 0.8758 0.2402
H16_2 H 0.4755 0.7855 0.0730
N3_2 N 0.6296(3) 0.7572(4) 0.5250(6)
N4_3 N 0.7038(3) 0.9094(4) 0.1416(6)
Cu1_4 Cu -0.0000 0.4999 1.0000
O1_4 O 0.03175(18) 0.45938(25) 0.8630(5)
C1_4 C 0.0735(2) 0.4509(3) 0.9106(6)
C2_3 C 0.0907(2) 0.4193(3) 0.7834(6)
C3_2 C 0.0702(3) 0.4120(4) 0.6156(7)
C4_2 C 0.0898(3) 0.3888(4) 0.4924(7)
C5_3 C 0.1476(3) 0.3768(4) 0.6881(7)
C6_3 C 0.1298(3) 0.4005(4) 0.8183(6)
H1_2 H 0.0436 0.4246 0.5834
H2_2 H 0.0761 0.3851 0.3772
H3_3 H 0.1741 0.3636 0.7161
H4_3 H 0.1433 0.4022 0.9329
N4_4 N 0.0371(3) 0.5761(4) 0.8083(6)
C13_5 C 0.7222(4) 0.9657(3) 0.1742(7)
H10_5 H 0.7185 0.9757 0.2894
O1_5 O 0.20728(25) 0.90570(17) 0.1964(5)
C1_5 C 0.2157(3) 0.9559(2) 0.2440(6)
C7_3 C 0.1942(4) 0.9670(2) 0.3942(7)
C8_3 C 0.1491(4) 0.9237(2) 0.4990(7)
O2_3 O 0.12887(28) 0.86911(19) 0.4854(5)
C9_3 C 0.1233(4) 0.9440(3) 0.6372(10)
H6_4 H 0.0848 0.9115 0.6725
H7_4 H 0.1499 0.9576 0.7370
H8_3 H 0.1188 0.9767 0.5937
O3_3 O 0.12605(25) 0.76097(17) 0.4703(5)
C10_3 C 0.1176(3) 0.7108(2) 0.4227(6)
C11_3 C 0.0860(3) 0.6620(2) 0.5499(6)
C12_4 C 0.0787(4) 0.6752(2) 0.7177(7)
C13_6 C 0.0555(4) 0.6324(3) 0.8409(7)
C14_3 C 0.0435(4) 0.5626(2) 0.6452(7)
C15_3 C 0.0672(4) 0.6041(2) 0.5150(6)
C16_3 C 0.1391(4) 0.6997(2) 0.2725(7)
C17_3 C 0.1842(4) 0.7430(2) 0.1677(7)
O4_3 O 0.20446(28) 0.79756(19) 0.1813(5)
C18_3 C 0.2100(4) 0.7227(3) 0.0295(10)
H9_4 H 0.0913 0.7144 0.7499
H10_6 H 0.0518 0.6424 0.9561
H11_3 H 0.0303 0.5229 0.6172
H12_3 H 0.0689 0.5923 0.4004
H13_3 H 0.1242 0.6601 0.2402
H16_3 H 0.2145 0.6900 0.0730
O1_6 O 0.54062(25) 0.57236(17) 0.8630(5)
C1_6 C 0.5491(3) 0.6225(2) 0.9106(6)
C2_4 C 0.5807(3) 0.6713(2) 0.7834(6)
C3_3 C 0.5880(4) 0.6581(2) 0.6156(7)
C4_3 C 0.6112(4) 0.7009(3) 0.4924(7)
C5_4 C 0.6232(4) 0.7707(2) 0.6881(7)
C6_4 C 0.5995(4) 0.7292(2) 0.8183(6)
H1_3 H 0.5754 0.6189 0.5834
H2_3 H 0.6149 0.6909 0.3772
H3_4 H 0.6364 0.8104 0.7161
H4_4 H 0.5978 0.7410 0.9329
C16_4 C 0.4724(4) 0.3664(2) 0.9392(7)
C17_4 C 0.5175(4) 0.4097(2) 0.8344(7)
O4_4 O 0.53779(28) 0.46423(19) 0.8480(5)
C18_4 C 0.5433(4) 0.3894(3) 0.6962(10)
H13_4 H 0.4575 0.3268 0.9069
H14 H 0.5818 0.4219 0.6609
H15 H 0.5167 0.3758 0.5964
H16_4 H 0.5478 0.3567 0.7397
C11_4 C 0.0047(2) 0.7573(2) 0.8832(6)
C14_4 C 0.1041(2) 0.8142(3) 0.9785(7)
C15_4 C 0.0626(2) 0.7964(3) 0.8483(6)
H11_4 H 0.1438 0.8407 0.9505
H12_4 H 0.0744 0.8099 0.7337
H13_5 H 0.0066 0.7974 0.5735
H6_5 H 0.7552 0.5067 0.0058
H7_5 H 0.7091 0.5257 0.0703
C12_5 C 0.9915(2) 0.7368(3) 0.0510(7)
H9_5 H 0.9523 0.7102 0.0832
Cu1_5 Cu 0.8333 0.6667 0.6667
O1_7 O 0.76097(17) 0.63492(18) 0.5297(5)
C1_7 C 0.7108(2) 0.5932(2) 0.5773(6)
C2_5 C 0.6620(2) 0.5760(2) 0.4501(6)
C3_4 C 0.6752(2) 0.5965(3) 0.2823(7)
C4_4 C 0.6324(3) 0.5769(3) 0.1591(7)
N1_2 N 0.5761(2) 0.5390(2) 0.1917(6)
C5_5 C 0.5626(2) 0.5191(3) 0.3548(7)
C6_5 C 0.6041(2) 0.5369(3) 0.4850(6)
C7_4 C 0.6997(2) 0.5606(3) 0.7275(7)
C8_4 C 0.7430(2) 0.5588(3) 0.8323(7)
O2_4 O 0.79756(19) 0.5931(2) 0.8187(5)
C9_4 C 0.7227(3) 0.5127(3) 0.9705(10)
H1_4 H 0.7144 0.6231 0.2501
H2_4 H 0.6424 0.5906 0.0439
H3_5 H 0.5229 0.4926 0.3828
H4_5 H 0.5923 0.5234 0.5996
H5_2 H 0.6601 0.5359 0.7598
H8_4 H 0.6900 0.4755 0.9270
O3_4 O 0.90570(17) 0.69841(18) 0.8036(5)
C10_4 C 0.9559(2) 0.7401(2) 0.7560(6)
C16_5 C 0.9670(2) 0.7727(3) 0.6058(7)
C17_5 C 0.9237(2) 0.7745(3) 0.5010(7)
O4_5 O 0.86911(19) 0.7402(2) 0.5146(5)
C18_5 C 0.9440(3) 0.8206(3) 0.3628(10)
H14_2 H 0.9115 0.8266 0.3275
H15_2 H 0.9576 0.8076 0.2630
H16_5 H 0.9767 0.8578 0.4063
Cu3_2 Cu 0.4999 0.5000 -0.0000
N3_3 N 0.7943(2) 0.7038(3) 0.8584(6)
N4_5 N 0.8723(2) 0.6296(3) 0.4750(6)
C4_5 C 0.9657(3) 0.2436(3) 0.8258(7)
N1_3 N 0.9094(2) 0.2057(2) 0.8584(6)
H2_5 H 0.9757 0.2573 0.7106
Cu3_3 Cu 0.8333 0.1666 0.6666
Cu1_6 Cu 0.5000 0.0000 0.0000
O3_5 O 0.57236(17) 0.03175(18) 0.1370(5)
C10_5 C 0.6225(2) 0.0735(2) 0.0894(6)
C11_5 C 0.6713(2) 0.0907(2) 0.2166(6)
C12_6 C 0.6581(2) 0.0702(3) 0.3844(7)
C13_7 C 0.7009(3) 0.0898(3) 0.5076(7)
N2_3 N 0.7572(2) 0.1277(2) 0.4750(6)
C14_5 C 0.7707(2) 0.1476(3) 0.3119(7)
C15_5 C 0.7292(2) 0.1298(3) 0.1817(6)
H9_6 H 0.6189 0.0436 0.4166
H10_7 H 0.6909 0.0761 0.6228
H11_5 H 0.8104 0.1741 0.2839
H12_5 H 0.7410 0.1433 0.0671
N3_4 N 0.4610(2) 0.0371(3) 0.1917(6)
Cu1_7 Cu 0.3333 0.1666 0.6667
O1_8 O 0.36508(18) 0.12605(25) 0.5297(5)
C1_8 C 0.4068(2) 0.1176(3) 0.5773(6)
C2_6 C 0.4240(2) 0.0860(3) 0.4501(6)
C3_5 C 0.4035(3) 0.0787(4) 0.2823(7)
C4_6 C 0.4231(3) 0.0555(4) 0.1591(7)
C5_6 C 0.4809(3) 0.0435(4) 0.3548(7)
C6_6 C 0.4631(3) 0.0672(4) 0.4850(6)
C7_5 C 0.4394(3) 0.1391(4) 0.7275(7)
C8_5 C 0.4412(3) 0.1842(4) 0.8323(7)
O2_5 O 0.4069(2) 0.20446(28) 0.8187(5)
C9_5 C 0.4873(3) 0.2100(4) 0.9705(10)
H1_5 H 0.3769 0.0913 0.2501
H2_6 H 0.4094 0.0518 0.0439
H3_6 H 0.5074 0.0303 0.3828
H4_6 H 0.4766 0.0689 0.5996
H5_3 H 0.4641 0.1242 0.7598
H8_5 H 0.5245 0.2145 0.9270
O3_6 O 0.30159(18) 0.20728(25) 0.8036(5)
C10_6 C 0.2599(2) 0.2157(3) 0.7560(6)
C11_6 C 0.2427(2) 0.2473(3) 0.8832(6)
C14_6 C 0.1858(3) 0.2898(4) 0.9785(7)
C15_6 C 0.2036(3) 0.2661(4) 0.8483(6)
C16_6 C 0.2273(3) 0.1942(4) 0.6058(7)
C17_6 C 0.2255(3) 0.1491(4) 0.5010(7)
O4_6 O 0.2598(2) 0.12887(28) 0.5146(5)
C18_6 C 0.1794(3) 0.1233(4) 0.3628(10)
H11_6 H 0.1593 0.3030 0.9505
H12_6 H 0.1901 0.2644 0.7337
H13_6 H 0.2026 0.2091 0.5735
H14_3 H 0.1734 0.0848 0.3275
H15_3 H 0.1924 0.1499 0.2630
H16_6 H 0.1422 0.1188 0.4063
N3_5 N 0.2962(3) 0.0906(4) 0.8584(6)
N4_6 N 0.3704(3) 0.2428(4) 0.4750(6)
C3_6 C 0.7368(3) 0.7454(4) 0.9490(7)
C4_7 C 0.7564(3) 0.7222(4) 0.8258(7)
H1_6 H 0.7102 0.7580 0.9168
H2_7 H 0.7427 0.7185 0.7106
H14_4 H 0.5067 0.7515 0.9942
H15_4 H 0.5257 0.8166 0.9297
Cu1_8 Cu 1.0000 0.4999 0.0000
O3_7 O 0.96825(18) 0.54062(25) 0.1370(5)
C10_7 C 0.9265(2) 0.5491(3) 0.0894(6)
C11_7 C 0.9093(2) 0.5807(3) 0.2166(6)
C12_7 C 0.9298(3) 0.5880(4) 0.3844(7)
C13_8 C 0.9102(3) 0.6112(4) 0.5076(7)
C14_7 C 0.8524(3) 0.6232(4) 0.3119(7)
C15_7 C 0.8702(3) 0.5995(4) 0.1817(6)
H9_7 H 0.9564 0.5754 0.4166
H10_8 H 0.9239 0.6149 0.6228
H11_7 H 0.8259 0.6364 0.2839
H12_7 H 0.8567 0.5978 0.0671
N3_6 N 0.9629(3) 0.4239(4) 0.1917(6)
O1_9 O 0.87395(25) 0.23903(17) 0.5297(5)
C1_9 C 0.8824(3) 0.2892(2) 0.5773(6)
C2_7 C 0.9140(3) 0.3380(2) 0.4501(6)
C3_7 C 0.9213(4) 0.3248(2) 0.2823(7)
C4_8 C 0.9445(4) 0.3676(3) 0.1591(7)
C5_7 C 0.9565(4) 0.4374(2) 0.3548(7)
C6_7 C 0.9328(4) 0.3959(2) 0.4850(6)
C7_6 C 0.8609(4) 0.3003(2) 0.7275(7)
C8_6 C 0.8158(4) 0.2570(2) 0.8323(7)
O2_6 O 0.79554(28) 0.20244(19) 0.8187(5)
C9_6 C 0.7900(4) 0.2773(3) 0.9705(10)
H1_7 H 0.9087 0.2856 0.2501
H2_8 H 0.9482 0.3576 0.0439
H3_7 H 0.9697 0.4771 0.3828
H4_7 H 0.9311 0.4077 0.5996
H5_4 H 0.8758 0.3399 0.7598
H8_6 H 0.7855 0.3100 0.9270
O3_8 O 0.79272(25) 0.09430(17) 0.8036(5)
C10_8 C 0.7843(3) 0.0441(2) 0.7560(6)
C16_7 C 0.8058(4) 0.0330(2) 0.6058(7)
C17_7 C 0.8509(4) 0.0763(2) 0.5010(7)
O4_7 O 0.87113(28) 0.13089(19) 0.5146(5)
C18_7 C 0.8767(4) 0.0560(3) 0.3628(10)
H14_5 H 0.9152 0.0885 0.3275
H15_5 H 0.8501 0.0424 0.2630
H16_7 H 0.8812 0.0233 0.4063
C4_9 C 0.2778(4) 0.0343(3) 0.8258(7)
H2_9 H 0.2815 0.0243 0.7106
C7_7 C 0.5276(4) 0.6336(2) 0.0608(7)
C8_7 C 0.4825(4) 0.5903(2) 0.1656(7)
O2_7 O 0.46221(28) 0.53577(19) 0.1520(5)
C9_7 C 0.4567(4) 0.6106(3) 0.3038(10)
H5_5 H 0.5425 0.6732 0.0931
H6_6 H 0.4182 0.5781 0.3391
H7_6 H 0.4833 0.6242 0.4036
H8_7 H 0.4522 0.6433 0.2603
O3_9 O 0.45938(25) 0.42764(17) 0.1370(5)
C10_9 C 0.4509(3) 0.3775(2) 0.0894(6)
C11_8 C 0.4193(3) 0.3287(2) 0.2166(6)
C12_8 C 0.4120(4) 0.3419(2) 0.3844(7)
C13_9 C 0.3888(4) 0.2991(3) 0.5076(7)
C14_8 C 0.3768(4) 0.2293(2) 0.3119(7)
C15_8 C 0.4005(4) 0.2708(2) 0.1817(6)
H9_8 H 0.4246 0.3811 0.4166
H10_9 H 0.3851 0.3091 0.6228
H11_8 H 0.3636 0.1896 0.2839
H12_8 H 0.4022 0.2590 0.0671
C3_8 C 0.0085(2) 0.2632(3) 0.9490(7)
H1_8 H 0.0477 0.2898 0.9168
H14_6 H 0.2448 0.4933 0.9942
H15_6 H 0.2909 0.4743 0.9297
C2_8 C 0.9953(2) 0.2427(2) 0.1168(6)
C5_8 C 0.8959(2) 0.1858(3) 0.0215(7)
C6_8 C 0.9374(2) 0.2036(3) 0.1517(6)
H3_8 H 0.8562 0.1593 0.0495
H4_8 H 0.9256 0.1901 0.2663
H5_6 H 0.9934 0.2026 0.4265
Cu1_9 Cu 0.5000 0.0000 1.0000
C16_8 C 0.6336(2) 0.1061(3) 0.9392(7)
C17_8 C 0.5903(2) 0.1079(3) 0.8344(7)
O4_8 O 0.53577(19) 0.0736(2) 0.8480(5)
C18_8 C 0.6106(3) 0.1540(3) 0.6962(10)
H13_7 H 0.6732 0.1308 0.9069
H14_7 H 0.5781 0.1600 0.6609
H15_7 H 0.6242 0.1410 0.5964
H16_8 H 0.6433 0.1912 0.7397
Cu1_10 Cu 0.5000 1.0000 0.0000
C7_8 C 0.3664(2) 0.8939(3) 0.0608(7)
C8_8 C 0.4097(2) 0.8921(3) 0.1656(7)
O2_8 O 0.46423(19) 0.9264(2) 0.1520(5)
C9_8 C 0.3894(3) 0.8460(3) 0.3038(10)
H5_7 H 0.3268 0.8692 0.0931
H6_7 H 0.4219 0.8400 0.3391
H7_7 H 0.3758 0.8590 0.4036
H8_8 H 0.3567 0.8088 0.2603
Cu1_11 Cu -0.0000 0.4999 0.0000
C7_9 C 0.1061(3) 0.4724(4) 0.0608(7)
C8_9 C 0.1079(3) 0.5175(4) 0.1656(7)
O2_9 O 0.0736(2) 0.53779(28) 0.1520(5)
C9_9 C 0.1540(3) 0.5433(4) 0.3038(10)
H5_8 H 0.1308 0.4575 0.0931
H6_8 H 0.1600 0.5818 0.3391
H7_8 H 0.1410 0.5167 0.4036
H8_9 H 0.1912 0.5478 0.2603
Cu1_12 Cu 1.0000 0.4999 1.0000
C16_9 C 0.8939(3) 0.5276(4) 0.9392(7)
C17_9 C 0.8921(3) 0.4825(4) 0.8344(7)
O4_9 O 0.9264(2) 0.46221(28) 0.8480(5)
C18_9 C 0.8460(3) 0.4567(4) 0.6962(10)
H13_8 H 0.8692 0.5425 0.9069
H14_8 H 0.8400 0.4182 0.6609
H15_8 H 0.8590 0.4833 0.5964
H16_9 H 0.8088 0.4522 0.7397
H6_9 H 0.7515 0.2448 0.0058
H7_9 H 0.8166 0.2909 0.0703
C12_9 C 0.7454(4) 0.0085(2) 0.0510(7)
H9_9 H 0.7580 0.0477 0.0832
C11_9 C 0.7527(3) 0.9953(2) 0.8832(6)
C14_9 C 0.7102(4) 0.8959(2) 0.9785(7)
C15_9 C 0.7339(4) 0.9374(2) 0.8483(6)
H11_9 H 0.6970 0.8562 0.9505
H12_9 H 0.7356 0.9256 0.7337
H13_9 H 0.7909 0.9934 0.5735
C2_9 C 0.2473(3) 0.0047(2) 0.1168(6)
C5_9 C 0.2898(4) 0.1041(2) 0.0215(7)
C6_9 C 0.2661(4) 0.0626(2) 0.1517(6)
H3_9 H 0.3030 0.1438 0.0495
H4_9 H 0.2644 0.0744 0.2663
H5_9 H 0.2091 0.0066 0.4265
C3_9 C 0.2546(4) 0.9915(2) 0.9490(7)
H1_9 H 0.2420 0.9523 0.9168
H14_9 H 0.2485 0.7552 0.9942
H15_9 H 0.1834 0.7091 0.9297
loop_
_geom_bond_atom_site_label_1
_geom_bond_atom_site_label_2
_geom_bond_site_symmetry_1
_geom_bond_site_symmetry_2
N2 C13 1_555 1_555
H10 C13 1_555 1_555
Cu2 N2 1_555 1_555
Cu1 O1 1_555 1_555
O1 C1 1_555 1_555
C7 C1 1_555 1_555
C8 C7 1_555 1_555
O2 Cu1 1_555 1_555
C9 C8 1_555 1_555
H6 C9 1_555 1_555
H7 C9 1_555 1_555
H8 C9 1_555 1_555
O3 Cu1 1_555 1_555
C10 O3 1_555 1_555
C11 C10 1_555 1_555
C12 C11 1_555 1_555
C13_2 C12 1_555 1_555
N2_2 C13_2 1_555 1_555
C14 N2_2 1_555 1_555
C15 C11 1_555 1_555
C16 C10 1_555 1_555
C17 C16 1_555 1_555
O4 Cu1 1_555 1_555
C18 C17 1_555 1_555
H9 C12 1_555 1_555
H10_2 C13_2 1_555 1_555
H11 C14 1_555 1_555
H12 C15 1_555 1_555
H13 C16 1_555 1_555
H16 C18 1_555 1_555
Cu3 N2_2 1_555 1_555
N3 Cu1 1_555 1_555
N4 Cu1 1_555 1_555
C8 O2 1_555 1_555
C14 C15 1_555 1_555
C17 O4 1_555 1_555
Cu1_2 O1_2 1_555 1_555
O1_2 C1_2 1_555 1_555
C1_2 C2 1_555 1_555
C2 C3 1_555 1_555
C3 C4 1_555 1_555
C4 N1 1_555 1_555
N1 C5 1_555 1_555
C5 C6 1_555 1_555
C6 C2 1_555 1_555
H1 C3 1_555 1_555
H2 C4 1_555 1_555
H3 C5 1_555 1_555
H4 C6 1_555 1_555
Cu2 N1 1_555 1_555
N4_2 Cu1_2 1_555 1_555
C13_3 C12_2 1_555 1_555
N4 C13_3 1_555 1_555
H9_2 C12_2 1_555 1_555
H10_3 C13_3 1_555 1_555
Cu1_3 O1_3 1_555 1_555
O1_3 C1_3 1_555 1_555
C1_3 C2_2 1_555 1_555
C5_2 C6_2 1_555 1_555
C6_2 C2_2 1_555 1_555
C7_2 C1_3 1_555 1_555
C8_2 C7_2 1_555 1_555
O2_2 Cu1_3 1_555 1_555
C9_2 C8_2 1_555 1_555
H3_2 C5_2 1_555 1_555
H4_2 C6_2 1_555 1_555
H5 C7_2 1_555 1_555
H6_3 C9_2 1_555 1_555
H7_3 C9_2 1_555 1_555
H8_2 C9_2 1_555 1_555
O3_2 Cu1_3 1_555 1_555
C10_2 O3_2 1_555 1_555
C11_2 C10_2 1_555 1_555
C12_3 C11_2 1_555 1_555
C13_4 C12_3 1_555 1_555
N4_2 C13_4 1_555 1_555
C14_2 N4_2 1_555 1_555
C15_2 C11_2 1_555 1_555
C16_2 C10_2 1_555 1_555
C17_2 C16_2 1_555 1_555
O4_2 Cu1_3 1_555 1_555
C18_2 C17_2 1_555 1_555
H9_3 C12_3 1_555 1_555
H10_4 C13_4 1_555 1_555
H11_2 C14_2 1_555 1_555
H12_2 C15_2 1_555 1_555
H13_2 C16_2 1_555 1_555
H16_2 C18_2 1_555 1_555
N3_2 Cu1_3 1_555 1_555
N4_3 Cu1_3 1_555 1_555
C8_2 O2_2 1_555 1_555
C14_2 C15_2 1_555 1_555
C17_2 O4_2 1_555 1_555
Cu1_4 O1_4 1_555 1_555
O1_4 C1_4 1_555 1_555
C1_4 C2_3 1_555 1_555
C2_3 C3_2 1_555 1_555
C3_2 C4_2 1_555 1_555
C4_2 N3 1_555 1_555
N3 C5_3 1_555 1_555
C5_3 C6_3 1_555 1_555
C6_3 C2_3 1_555 1_555
H1_2 C3_2 1_555 1_555
H2_2 C4_2 1_555 1_555
H3_3 C5_3 1_555 1_555
H4_3 C6_3 1_555 1_555
N4_4 Cu1_4 1_555 1_555
N4_3 C13_5 1_555 1_555
H10_5 C13_5 1_555 1_555
Cu2 O1_5 1_555 1_555
O1_5 C1_5 1_555 1_555
C7_3 C1_5 1_555 1_555
C8_3 C7_3 1_555 1_555
O2_3 Cu2 1_555 1_555
C9_3 C8_3 1_555 1_555
H6_4 C9_3 1_555 1_555
H7_4 C9_3 1_555 1_555
H8_3 C9_3 1_555 1_555
O3_3 Cu2 1_555 1_555
C10_3 O3_3 1_555 1_555
C11_3 C10_3 1_555 1_555
C12_4 C11_3 1_555 1_555
C13_6 C12_4 1_555 1_555
N4_4 C13_6 1_555 1_555
C14_3 N4_4 1_555 1_555
C15_3 C11_3 1_555 1_555
C16_3 C10_3 1_555 1_555
C17_3 C16_3 1_555 1_555
O4_3 Cu2 1_555 1_555
C18_3 C17_3 1_555 1_555
H9_4 C12_4 1_555 1_555
H10_6 C13_6 1_555 1_555
H11_3 C14_3 1_555 1_555
H12_3 C15_3 1_555 1_555
H13_3 C16_3 1_555 1_555
H16_3 C18_3 1_555 1_555
C8_3 O2_3 1_555 1_555
C14_3 C15_3 1_555 1_555
C17_3 O4_3 1_555 1_555
Cu3 O1_6 1_555 1_555
O1_6 C1_6 1_555 1_555
C1_6 C2_4 1_555 1_555
C2_4 C3_3 1_555 1_555
C3_3 C4_3 1_555 1_555
C4_3 N3_2 1_555 1_555
N3_2 C5_4 1_555 1_555
C5_4 C6_4 1_555 1_555
C6_4 C2_4 1_555 1_555
H1_3 C3_3 1_555 1_555
H2_3 C4_3 1_555 1_555
H3_4 C5_4 1_555 1_555
H4_4 C6_4 1_555 1_555
C17_4 C16_4 1_555 1_555
O4_4 Cu3 1_555 1_555
C18_4 C17_4 1_555 1_555
H13_4 C16_4 1_555 1_555
H14 C18_4 1_555 1_555
H15 C18_4 1_555 1_555
H16_4 C18_4 1_555 1_555
C17_4 O4_4 1_555 1_555
C15_4 C11_4 1_555 1_555
H11_4 C14_4 1_555 1_555
H12_4 C15_4 1_555 1_555
C14_4 C15_4 1_555 1_555
H9_5 C12_5 1_555 1_555
Cu1_5 O1_7 1_555 1_555
O1_7 C1_7 1_555 1_555
C1_7 C2_5 1_555 1_555
C2_5 C3_4 1_555 1_555
C3_4 C4_4 1_555 1_555
C4_4 N1_2 1_555 1_555
N1_2 C5_5 1_555 1_555
C5_5 C6_5 1_555 1_555
C6_5 C2_5 1_555 1_555
C7_4 C1_7 1_555 1_555
C8_4 C7_4 1_555 1_555
O2_4 Cu1_5 1_555 1_555
C9_4 C8_4 1_555 1_555
H1_4 C3_4 1_555 1_555
H2_4 C4_4 1_555 1_555
H3_5 C5_5 1_555 1_555
H4_5 C6_5 1_555 1_555
H5_2 C7_4 1_555 1_555
H8_4 C9_4 1_555 1_555
O3_4 Cu1_5 1_555 1_555
C10_4 O3_4 1_555 1_555
C16_5 C10_4 1_555 1_555
C17_5 C16_5 1_555 1_555
O4_5 Cu1_5 1_555 1_555
C18_5 C17_5 1_555 1_555
H14_2 C18_5 1_555 1_555
H15_2 C18_5 1_555 1_555
H16_5 C18_5 1_555 1_555
Cu3_2 N1_2 1_555 1_555
N3_3 Cu1_5 1_555 1_555
N4_5 Cu1_5 1_555 1_555
C8_4 O2_4 1_555 1_555
C17_5 O4_5 1_555 1_555
C4_5 N1_3 1_555 1_555
H2_5 C4_5 1_555 1_555
Cu3_3 N1_3 1_555 1_555
O3_5 Cu1_6 1_555 1_555
C10_5 O3_5 1_555 1_555
C11_5 C10_5 1_555 1_555
C12_6 C11_5 1_555 1_555
C13_7 C12_6 1_555 1_555
N2_3 C13_7 1_555 1_555
C14_5 N2_3 1_555 1_555
C15_5 C11_5 1_555 1_555
H9_6 C12_6 1_555 1_555
H10_7 C13_7 1_555 1_555
H11_5 C14_5 1_555 1_555
H12_5 C15_5 1_555 1_555
Cu3_3 N2_3 1_555 1_555
N3_4 Cu1_6 1_555 1_555
C14_5 C15_5 1_555 1_555
Cu1_7 O1_8 1_555 1_555
O1_8 C1_8 1_555 1_555
C1_8 C2_6 1_555 1_555
C2_6 C3_5 1_555 1_555
C3_5 C4_6 1_555 1_555
C4_6 N3_4 1_555 1_555
N3_4 C5_6 1_555 1_555
C5_6 C6_6 1_555 1_555
C6_6 C2_6 1_555 1_555
C7_5 C1_8 1_555 1_555
C8_5 C7_5 1_555 1_555
O2_5 Cu1_7 1_555 1_555
C9_5 C8_5 1_555 1_555
H1_5 C3_5 1_555 1_555
H2_6 C4_6 1_555 1_555
H3_6 C5_6 1_555 1_555
H4_6 C6_6 1_555 1_555
H5_3 C7_5 1_555 1_555
H8_5 C9_5 1_555 1_555
O3_6 Cu1_7 1_555 1_555
C10_6 O3_6 1_555 1_555
C11_6 C10_6 1_555 1_555
C15_6 C11_6 1_555 1_555
C16_6 C10_6 1_555 1_555
C17_6 C16_6 1_555 1_555
O4_6 Cu1_7 1_555 1_555
C18_6 C17_6 1_555 1_555
H11_6 C14_6 1_555 1_555
H12_6 C15_6 1_555 1_555
H13_6 C16_6 1_555 1_555
H14_3 C18_6 1_555 1_555
H15_3 C18_6 1_555 1_555
H16_6 C18_6 1_555 1_555
N3_5 Cu1_7 1_555 1_555
N4_6 Cu1_7 1_555 1_555
C8_5 O2_5 1_555 1_555
C14_6 C15_6 1_555 1_555
C17_6 O4_6 1_555 1_555
C3_6 C4_7 1_555 1_555
C4_7 N3_3 1_555 1_555
H1_6 C3_6 1_555 1_555
H2_7 C4_7 1_555 1_555
O3_7 Cu1_8 1_555 1_555
C10_7 O3_7 1_555 1_555
C11_7 C10_7 1_555 1_555
C12_7 C11_7 1_555 1_555
C13_8 C12_7 1_555 1_555
N4_5 C13_8 1_555 1_555
C14_7 N4_5 1_555 1_555
C15_7 C11_7 1_555 1_555
H9_7 C12_7 1_555 1_555
H10_8 C13_8 1_555 1_555
H11_7 C14_7 1_555 1_555
H12_7 C15_7 1_555 1_555
N3_6 Cu1_8 1_555 1_555
C14_7 C15_7 1_555 1_555
Cu3_3 O1_9 1_555 1_555
O1_9 C1_9 1_555 1_555
C1_9 C2_7 1_555 1_555
C2_7 C3_7 1_555 1_555
C3_7 C4_8 1_555 1_555
C4_8 N3_6 1_555 1_555
N3_6 C5_7 1_555 1_555
C5_7 C6_7 1_555 1_555
C6_7 C2_7 1_555 1_555
C7_6 C1_9 1_555 1_555
C8_6 C7_6 1_555 1_555
O2_6 Cu3_3 1_555 1_555
C9_6 C8_6 1_555 1_555
H1_7 C3_7 1_555 1_555
H2_8 C4_8 1_555 1_555
H3_7 C5_7 1_555 1_555
H4_7 C6_7 1_555 1_555
H5_4 C7_6 1_555 1_555
H8_6 C9_6 1_555 1_555
O3_8 Cu3_3 1_555 1_555
C10_8 O3_8 1_555 1_555
C16_7 C10_8 1_555 1_555
C17_7 C16_7 1_555 1_555
O4_7 Cu3_3 1_555 1_555
C18_7 C17_7 1_555 1_555
H14_5 C18_7 1_555 1_555
H15_5 C18_7 1_555 1_555
H16_7 C18_7 1_555 1_555
C8_6 O2_6 1_555 1_555
C17_7 O4_7 1_555 1_555
C4_9 N3_5 1_555 1_555
H2_9 C4_9 1_555 1_555
C8_7 C7_7 1_555 1_555
O2_7 Cu3_2 1_555 1_555
C9_7 C8_7 1_555 1_555
H5_5 C7_7 1_555 1_555
H6_6 C9_7 1_555 1_555
H7_6 C9_7 1_555 1_555
H8_7 C9_7 1_555 1_555
O3_9 Cu3_2 1_555 1_555
C10_9 O3_9 1_555 1_555
C11_8 C10_9 1_555 1_555
C12_8 C11_8 1_555 1_555
C13_9 C12_8 1_555 1_555
N4_6 C13_9 1_555 1_555
C14_8 N4_6 1_555 1_555
C15_8 C11_8 1_555 1_555
H9_8 C12_8 1_555 1_555
H10_9 C13_9 1_555 1_555
H11_8 C14_8 1_555 1_555
H12_8 C15_8 1_555 1_555
C8_7 O2_7 1_555 1_555
C14_8 C15_8 1_555 1_555
H1_8 C3_8 1_555 1_555
C5_8 C6_8 1_555 1_555
C6_8 C2_8 1_555 1_555
H3_8 C5_8 1_555 1_555
H4_8 C6_8 1_555 1_555
C17_8 C16_8 1_555 1_555
O4_8 Cu1_9 1_555 1_555
C18_8 C17_8 1_555 1_555
H13_7 C16_8 1_555 1_555
H14_7 C18_8 1_555 1_555
H15_7 C18_8 1_555 1_555
H16_8 C18_8 1_555 1_555
C17_8 O4_8 1_555 1_555
C8_8 C7_8 1_555 1_555
O2_8 Cu1_10 1_555 1_555
C9_8 C8_8 1_555 1_555
H5_7 C7_8 1_555 1_555
H6_7 C9_8 1_555 1_555
H7_7 C9_8 1_555 1_555
H8_8 C9_8 1_555 1_555
C8_8 O2_8 1_555 1_555
C8_9 C7_9 1_555 1_555
O2_9 Cu1_11 1_555 1_555
C9_9 C8_9 1_555 1_555
H5_8 C7_9 1_555 1_555
H6_8 C9_9 1_555 1_555
H7_8 C9_9 1_555 1_555
H8_9 C9_9 1_555 1_555
C8_9 O2_9 1_555 1_555
C17_9 C16_9 1_555 1_555
O4_9 Cu1_12 1_555 1_555
C18_9 C17_9 1_555 1_555
H13_8 C16_9 1_555 1_555
H14_8 C18_9 1_555 1_555
H15_8 C18_9 1_555 1_555
H16_9 C18_9 1_555 1_555
C17_9 O4_9 1_555 1_555
H9_9 C12_9 1_555 1_555
C15_9 C11_9 1_555 1_555
H11_9 C14_9 1_555 1_555
H12_9 C15_9 1_555 1_555
C14_9 C15_9 1_555 1_555
C5_9 C6_9 1_555 1_555
C6_9 C2_9 1_555 1_555
H3_9 C5_9 1_555 1_555
H4_9 C6_9 1_555 1_555
H1_9 C3_9 1_555 1_555

#END
