
###############################################################################
#
# This file contains modified crystal structure data generated from the
# MOF subset of the Cambridge Structural Database (CSD) v543 
# hosted by the Cambridge Crystallographic Data Centre (CCDC).
#
# This work is licensed under the Creative Commons
# Attribution-NonCommercial-ShareAlike 4.0 International License.
# To view a copy of this license, visit
# http://creativecommons.org/licenses/by-nc-sa/4.0/
# or send a letter to
# Creative Commons, PO Box 1866, Mountain View, CA 94042, USA.
#
# CIF created using the CSD Python API on 29 September 2022
# The structure has been converted into the P1 space group
# The structure has a 3D framework
# The original CSD entry ECAHUN is in the trigonal crystal system
# The framework has been calculated to contain at least 10.0% void space
# The void calculation uses a probe of radius 1.32A, grid spacing 0.4
#
###############################################################################

data_ECAHUN
_chemical_formula_moiety         '(C180 H148 N12 O24 Zn6)n'
_symmetry_cell_setting           triclinic
_symmetry_space_group_name_H-M   'P 1'
_symmetry_Int_Tables_number      1
_space_group_name_Hall           'P 1'
loop_
_symmetry_equiv_pos_site_id
_symmetry_equiv_pos_as_xyz
1 x,y,z
_cell_length_a                   21.7437(16)
_cell_length_b                   21.7437(16)
_cell_length_c                   15.438(2)
_cell_angle_alpha                90
_cell_angle_beta                 90
_cell_angle_gamma                120
_cell_volume                     6321.04
loop_
_atom_site_label
_atom_site_type_symbol
_atom_site_fract_x
_atom_site_fract_y
_atom_site_fract_z
Zn1 Zn 0.499499(19) 0.002124(16) 0.75148(2)
O2 O 0.49535(9) 0.08009(10) 0.68374(10)
O3 O 0.57848(10) 0.00812(10) 0.66881(11)
N1 N 0.49515(12) 0.42089(11) 0.33470(14)
C1 C 0.48939(15) 0.38215(14) 0.48037(15)
H1 H 0.4886 0.3924 0.5401
C4 C 0.46298(14) 0.11258(17) 0.70580(17)
C5 C 0.46945(15) 0.16833(16) 0.64519(17)
C8 C 0.48654(16) 0.32213(16) 0.45820(17)
C11 C 0.42490(16) 0.10010(16) 0.78160(19)
H5 H 0.4088 0.1324 0.7947
C12 C 0.40697(17) 0.04448(19) 0.84235(19)
C13 C 0.49353(15) 0.43018(15) 0.41980(17)
H6 H 0.4953 0.4724 0.4396
C16 C 0.48174(16) 0.26836(16) 0.52021(18)
C20 C 0.45432(17) 0.26550(17) 0.60191(19)
H10 H 0.4397 0.2986 0.6171
C21 C 0.44791(17) 0.21590(16) 0.66131(18)
H11 H 0.4275 0.2148 0.7161
C22 C 0.4985(2) 0.3177(2) 0.3668(2)
H12 H 0.5054 0.2806 0.3453
C23 C 0.36487(19) 0.04459(18) 0.9203(2)
H13 H 0.3917 0.0491 0.9732
H14 H 0.3563 0.0847 0.9161
H15 H 0.3193 -0.0000 0.9221
C27 C 0.4988(2) 0.21820(19) 0.5025(2)
H19 H 0.5122 0.2148 0.4449
C28 C 0.4980(2) 0.1722(2) 0.5626(2)
H20 H 0.5169 0.1424 0.5485
H23 H 0.6933 0.0084 0.6002
C30 C 0.5000(2) 0.3664(2) 0.31308(19)
H24 H 0.5051 0.3602 0.2531
Zn2 Zn 0.497375(25) 0.499499(19) 0.24852(2)
N4 N 0.57770(12) 0.07971(17) 0.83943(13)
N2 N 0.49799(12) 0.57770(12) 0.16057(13)
C3 C 0.51588(15) 0.62049(14) 0.01463(17)
C6 C 0.50282(15) 0.67474(15) 0.03973(18)
C7 C 0.51342(15) 0.57502(15) 0.07771(17)
H3 H 0.5235 0.5389 0.0611
C18 C 0.48659(19) 0.67743(16) 0.12436(18)
H8 H 0.4756 0.7125 0.1431
H9 H 0.4381 0.7514 0.0283
C25 C 0.48611(18) 0.62921(17) 0.18283(19)
H17 H 0.4768 0.6334 0.2420
O1 O 0.07748(9) 0.57988(13) 0.81803(11)
O4 O 0.00261(10) 0.42518(14) 0.83609(11)
C2 C 0.10884(14) 0.64337(22) 0.79475(17)
H2 H 0.3846 0.9107 0.9561
C9 C 0.16662(15) 0.69442(23) 0.85616(17)
C10 C 0.09529(16) 0.67100(24) 0.72108(19)
H4 H 0.1280 0.7192 0.7074
C14 C 0.03741(17) 0.63396(24) 0.66489(19)
C15 C 0.27150(15) 0.78225(23) 0.97431(17)
C17 C 0.18561(17) 0.66731(26) 0.9226(2)
H7 H 0.1623 0.6171 0.9285
C19 C 0.23693(17) 0.70824(25) 0.9824(2)
H15_2 H 0.0000 0.3193 0.9221
C24 C 0.25341(18) 0.81019(25) 0.90613(18)
H16 H 0.2764 0.8602 0.8992
C26 C 0.20206(17) 0.76665(25) 0.84701(19)
H18 H 0.1913 0.7873 0.7994
C29 C 0.0307(2) 0.6758(3) 0.5889(2)
H21 H 0.0210 0.6481 0.5355
H22 H 0.0751 0.7210 0.5824
N3 N 0.07426(16) 0.49515(19) 0.66530(14)
C3_2 C 0.62049(14) 0.10461(21) 0.98537(17)
C6_2 C 0.67474(15) 0.17192(21) 0.96027(18)
C7_2 C 0.57502(15) 0.06160(21) 0.92229(17)
H3_2 H 0.5389 0.0154 0.9389
C18_2 C 0.67743(16) 0.19084(25) 0.87564(18)
H8_2 H 0.7125 0.2369 0.8569
H9_2 H 0.7514 0.3133 0.9717
C25_2 C 0.62921(17) 0.14310(25) 0.81717(19)
H17_2 H 0.6334 0.1566 0.7580
O1_2 O 0.57988(13) 0.50240(10) 0.18197(11)
O2_2 O 0.41526(13) 0.49535(9) 0.31626(10)
O3_2 O 0.57036(14) 0.57848(10) 0.33119(11)
O4_2 O 0.42518(14) 0.42257(10) 0.16391(11)
C1_2 C 0.10724(21) 0.48939(15) 0.51963(15)
H1_2 H 0.0962 0.4886 0.4599
C2_2 C 0.64337(22) 0.53453(17) 0.20525(17)
H2_2 H 0.9107 0.5261 0.0439
C4_2 C 0.35040(22) 0.46298(14) 0.29420(17)
C5_2 C 0.30112(22) 0.46945(15) 0.35481(17)
C8_2 C 0.16441(23) 0.48654(16) 0.54180(17)
C9_2 C 0.69442(23) 0.52780(17) 0.14384(17)
C10_2 C 0.67100(24) 0.57571(18) 0.27892(19)
H4_2 H 0.7192 0.5912 0.2926
C11_2 C 0.32480(23) 0.42490(16) 0.21840(19)
H5_2 H 0.2764 0.4088 0.2053
C12_2 C 0.36249(25) 0.40697(17) 0.15765(19)
C13_2 C 0.06335(21) 0.49353(15) 0.58020(17)
H6_2 H 0.0229 0.4953 0.5604
C14_2 C 0.63396(24) 0.59655(17) 0.33511(19)
C15_2 C 0.78225(23) 0.51075(17) 0.02569(17)
C16_2 C 0.21338(23) 0.48174(16) 0.47979(18)
C17_2 C 0.66731(26) 0.4817(2) 0.0774(2)
H7_2 H 0.6171 0.4548 0.0715
C19_2 C 0.70824(25) 0.47131(19) 0.0176(2)
C20_2 C 0.18882(24) 0.45432(17) 0.39809(19)
H10_2 H 0.1411 0.4397 0.3829
C21_2 C 0.23201(23) 0.44791(17) 0.33869(18)
H11_2 H 0.2127 0.4275 0.2839
C22_2 C 0.1808(3) 0.4985(2) 0.6332(2)
H12_2 H 0.2248 0.5054 0.6547
C23_2 C 0.32028(26) 0.36487(19) 0.0797(2)
H13_2 H 0.3426 0.3917 0.0268
H14_2 H 0.2716 0.3563 0.0839
H15_3 H 0.3193 0.3193 0.0779
C24_2 C 0.81019(25) 0.55678(18) 0.09387(18)
H16_2 H 0.8602 0.5838 0.1008
C26_2 C 0.76665(25) 0.56459(19) 0.15299(19)
H18_2 H 0.7873 0.5960 0.2006
C27_2 C 0.28060(28) 0.4988(2) 0.4975(2)
H19_2 H 0.2974 0.5122 0.5551
C28_2 C 0.3258(3) 0.4980(2) 0.4374(2)
H20_2 H 0.3745 0.5169 0.4515
C29_2 C 0.6758(3) 0.6451(2) 0.4111(2)
H21_2 H 0.6481 0.6271 0.4645
H22_2 H 0.7210 0.6459 0.4176
H23_2 H 0.6849 0.6933 0.3998
C30_2 C 0.1336(3) 0.5000(2) 0.68692(19)
H24_2 H 0.1449 0.5051 0.7469
O1_3 O 0.50240(10) 0.92252(9) 0.81803(11)
O4_3 O 0.42257(10) 0.99739(10) 0.83609(11)
C2_3 C 0.53453(17) 0.89116(14) 0.79475(17)
H2_3 H 0.5261 0.6154 0.9561
C9_3 C 0.52780(17) 0.83338(15) 0.85616(17)
C10_3 C 0.57571(18) 0.90471(16) 0.72108(19)
H4_3 H 0.5912 0.8720 0.7074
C14_3 C 0.59655(17) 0.96259(17) 0.66489(19)
C15_3 C 0.51075(17) 0.72850(15) 0.97431(17)
C17_3 C 0.4817(2) 0.81439(17) 0.9226(2)
H7_3 H 0.4548 0.8377 0.9285
C19_3 C 0.47131(19) 0.76307(17) 0.9824(2)
H15_4 H 0.3193 1.0000 0.9221
C24_3 C 0.55678(18) 0.74659(18) 0.90613(18)
H16_3 H 0.5838 0.7236 0.8992
C26_3 C 0.56459(19) 0.79794(17) 0.84701(19)
H18_3 H 0.5960 0.8087 0.7994
C29_3 C 0.6451(2) 0.9693(2) 0.5889(2)
H21_3 H 0.6271 0.9790 0.5355
H22_3 H 0.6459 0.9249 0.5824
N3_2 N 0.42089(11) 0.92574(16) 0.66530(14)
Zn2_2 Zn 0.002124(31) 0.502625(25) 0.24852(2)
N2_2 N 0.07971(17) 0.50201(12) 0.16057(13)
C3_3 C 0.10461(21) 0.48412(15) 0.01463(17)
C6_3 C 0.17192(21) 0.49718(15) 0.03973(18)
C7_3 C 0.06160(21) 0.48658(15) 0.07771(17)
H3_3 H 0.0154 0.4765 0.0611
C18_3 C 0.19084(25) 0.51341(19) 0.12436(18)
H8_3 H 0.2369 0.5244 0.1431
H9_3 H 0.3133 0.5619 0.0283
C25_3 C 0.14310(25) 0.51389(18) 0.18283(19)
H17_3 H 0.1566 0.5232 0.2420
O2_3 O 0.08009(10) 0.58474(13) 0.31626(10)
O3_3 O 0.00812(10) 0.42964(14) 0.33119(11)
C1_3 C 0.38215(14) 0.89276(21) 0.51963(15)
H1_3 H 0.3924 0.9038 0.4599
C4_3 C 0.11258(17) 0.64960(22) 0.29420(17)
C5_3 C 0.16833(16) 0.69888(22) 0.35481(17)
C8_3 C 0.32213(16) 0.83559(23) 0.54180(17)
C11_3 C 0.10010(16) 0.67520(23) 0.21840(19)
H5_3 H 0.1324 0.7236 0.2053
C12_3 C 0.04448(19) 0.63751(25) 0.15765(19)
C13_3 C 0.43018(15) 0.93665(21) 0.58020(17)
H6_3 H 0.4724 0.9771 0.5604
C16_3 C 0.26836(16) 0.78662(23) 0.47979(18)
C20_3 C 0.26550(17) 0.81118(24) 0.39809(19)
H10_3 H 0.2986 0.8589 0.3829
C21_3 C 0.21590(16) 0.76799(23) 0.33869(18)
H11_3 H 0.2148 0.7873 0.2839
C22_3 C 0.3177(2) 0.8192(3) 0.6332(2)
H12_3 H 0.2806 0.7752 0.6547
C23_3 C 0.04459(18) 0.67972(26) 0.0797(2)
H13_3 H 0.0491 0.6574 0.0268
H14_3 H 0.0847 0.7284 0.0839
H15_5 H -0.0000 0.6807 0.0779
C27_3 C 0.21820(19) 0.71940(28) 0.4975(2)
H19_3 H 0.2148 0.7026 0.5551
C28_3 C 0.1722(2) 0.6742(3) 0.4374(2)
H20_3 H 0.1424 0.6255 0.4515
H23_3 H 0.0084 0.3151 0.3998
C30_3 C 0.3664(2) 0.8664(3) 0.68692(19)
H24_3 H 0.3602 0.8551 0.7469
N2_3 N 0.42230(12) 0.92029(17) 0.16057(13)
C3_4 C 0.37951(14) 0.89539(21) 0.01463(17)
C6_4 C 0.32526(15) 0.82808(21) 0.03973(18)
C7_4 C 0.42498(15) 0.93840(21) 0.07771(17)
H3_4 H 0.4611 0.9846 0.0611
C18_4 C 0.32257(16) 0.80916(25) 0.12436(18)
H8_4 H 0.2875 0.7631 0.1431
H9_4 H 0.2486 0.6867 0.0283
C25_4 C 0.37079(17) 0.85690(25) 0.18283(19)
H17_4 H 0.3666 0.8434 0.2420
Zn3 Zn 0.500501(19) 0.997876(31) 0.24852(2)
Zn1_2 Zn 0.502625(25) 0.500501(19) 0.75148(2)
O1_4 O 0.42012(13) 0.49760(10) 0.81803(11)
O2_4 O 0.58474(13) 0.50465(9) 0.68374(10)
O3_4 O 0.42964(14) 0.42152(10) 0.66881(11)
O4_4 O 0.57482(14) 0.57743(10) 0.83609(11)
N1_2 N 0.92574(16) 0.50485(12) 0.33470(14)
C1_4 C 0.89276(21) 0.51061(15) 0.48037(15)
H1_4 H 0.9038 0.5114 0.5401
C2_4 C 0.35663(22) 0.46547(17) 0.79475(17)
H2_4 H 0.0893 0.4739 0.9561
C4_4 C 0.64960(22) 0.53702(14) 0.70580(17)
C5_4 C 0.69888(22) 0.53055(15) 0.64519(17)
C8_4 C 0.83559(23) 0.51346(16) 0.45820(17)
C9_4 C 0.30558(23) 0.47220(17) 0.85616(17)
C10_4 C 0.32900(24) 0.42429(18) 0.72108(19)
H4_4 H 0.2808 0.4088 0.7074
C11_4 C 0.67520(23) 0.57510(16) 0.78160(19)
H5_4 H 0.7236 0.5912 0.7947
C12_4 C 0.63751(25) 0.59303(17) 0.84235(19)
C13_4 C 0.93665(21) 0.50647(15) 0.41980(17)
H6_4 H 0.9771 0.5047 0.4396
C14_4 C 0.36604(24) 0.40345(17) 0.66489(19)
C15_4 C 0.21775(23) 0.48925(17) 0.97431(17)
C16_4 C 0.78662(23) 0.51826(16) 0.52021(18)
C17_4 C 0.33269(26) 0.5183(2) 0.9226(2)
H7_4 H 0.3829 0.5452 0.9285
C19_4 C 0.29176(25) 0.52869(19) 0.9824(2)
C20_4 C 0.81118(24) 0.54568(17) 0.60191(19)
H10_4 H 0.8589 0.5603 0.6171
C21_4 C 0.76799(23) 0.55209(17) 0.66131(18)
H11_4 H 0.7873 0.5725 0.7161
C22_4 C 0.8192(3) 0.5015(2) 0.3668(2)
H12_4 H 0.7752 0.4946 0.3453
C23_4 C 0.67972(26) 0.63513(19) 0.9203(2)
H13_4 H 0.6574 0.6083 0.9732
H14_4 H 0.7284 0.6437 0.9161
H15_6 H 0.6807 0.6807 0.9221
C24_4 C 0.18981(25) 0.44322(18) 0.90613(18)
H16_4 H 0.1398 0.4162 0.8992
C26_4 C 0.23335(25) 0.43541(19) 0.84701(19)
H18_4 H 0.2127 0.4040 0.7994
C27_4 C 0.71940(28) 0.5012(2) 0.5025(2)
H19_4 H 0.7026 0.4878 0.4449
C28_4 C 0.6742(3) 0.5020(2) 0.5626(2)
H20_4 H 0.6255 0.4831 0.5485
C29_4 C 0.3242(3) 0.3549(2) 0.5889(2)
H21_4 H 0.3519 0.3729 0.5355
H22_4 H 0.2790 0.3541 0.5824
H23_4 H 0.3151 0.3067 0.6002
C30_4 C 0.8664(3) 0.5000(2) 0.31308(19)
H24_4 H 0.8551 0.4949 0.2531
N3_3 N 0.50485(19) 0.57911(11) 0.66530(14)
N4_2 N 0.50201(21) 0.42230(12) 0.83943(13)
C3_5 C 0.48412(15) 0.37951(14) 0.98537(17)
C6_5 C 0.49718(15) 0.32526(15) 0.96027(18)
C7_5 C 0.48658(15) 0.42498(15) 0.92229(17)
H3_5 H 0.4765 0.4611 0.9389
C18_5 C 0.51341(19) 0.32257(16) 0.87564(18)
H8_5 H 0.5244 0.2875 0.8569
H9_5 H 0.5619 0.2486 0.9717
C25_5 C 0.51389(18) 0.37079(17) 0.81717(19)
H17_5 H 0.5232 0.3666 0.7580
O2_5 O 0.50465(9) 0.91991(10) 0.31626(10)
O3_5 O 0.42152(10) 0.99188(10) 0.33119(11)
C1_5 C 0.51061(15) 0.61785(14) 0.51963(15)
H1_5 H 0.5114 0.6076 0.4599
C4_5 C 0.53702(14) 0.88742(17) 0.29420(17)
C5_5 C 0.53055(15) 0.83167(16) 0.35481(17)
C8_5 C 0.51346(16) 0.67787(16) 0.54180(17)
C11_5 C 0.57510(16) 0.89990(16) 0.21840(19)
H5_5 H 0.5912 0.8676 0.2053
C12_5 C 0.59303(17) 0.95552(19) 0.15765(19)
C13_5 C 0.50647(15) 0.56982(15) 0.58020(17)
H6_5 H 0.5047 0.5276 0.5604
C16_5 C 0.51826(16) 0.73164(16) 0.47979(18)
C20_5 C 0.54568(17) 0.73450(17) 0.39809(19)
H10_5 H 0.5603 0.7014 0.3829
C21_5 C 0.55209(17) 0.78410(16) 0.33869(18)
H11_5 H 0.5725 0.7852 0.2839
C22_5 C 0.5015(2) 0.6823(2) 0.6332(2)
H12_5 H 0.4946 0.7194 0.6547
C23_5 C 0.63513(19) 0.95541(18) 0.0797(2)
H13_5 H 0.6083 0.9509 0.0268
H14_5 H 0.6437 0.9153 0.0839
H15_7 H 0.6807 1.0000 0.0779
C27_5 C 0.5012(2) 0.78180(19) 0.4975(2)
H19_5 H 0.4878 0.7852 0.5551
C28_5 C 0.5020(2) 0.8278(2) 0.4374(2)
H20_5 H 0.4831 0.8576 0.4515
H23_5 H 0.3067 0.9916 0.3998
C30_5 C 0.5000(2) 0.6336(2) 0.68692(19)
H24_5 H 0.4949 0.6398 0.7469
O1_5 O 0.92252(9) 0.42012(13) 0.18197(11)
O4_5 O 0.99739(10) 0.57482(14) 0.16391(11)
C2_5 C 0.89116(14) 0.35663(22) 0.20525(17)
H2_5 H 0.6154 0.0893 0.0439
C9_5 C 0.83338(15) 0.30558(23) 0.14384(17)
C10_5 C 0.90471(16) 0.32900(24) 0.27892(19)
H4_5 H 0.8720 0.2808 0.2926
C14_5 C 0.96259(17) 0.36604(24) 0.33511(19)
C15_5 C 0.72850(15) 0.21775(23) 0.02569(17)
C17_5 C 0.81439(17) 0.33269(26) 0.0774(2)
H7_5 H 0.8377 0.3829 0.0715
C19_5 C 0.76307(17) 0.29176(25) 0.0176(2)
H15_8 H 1.0000 0.6807 0.0779
C24_5 C 0.74659(18) 0.18981(25) 0.09387(18)
H16_5 H 0.7236 0.1398 0.1008
C26_5 C 0.79794(17) 0.23335(25) 0.15299(19)
H18_5 H 0.8087 0.2127 0.2006
C29_5 C 0.9693(2) 0.3242(3) 0.4111(2)
H21_5 H 0.9790 0.3519 0.4645
H22_5 H 0.9249 0.2790 0.4176
Zn1_3 Zn 0.997876(16) 0.497375(25) 0.75148(2)
O2_6 O 0.91991(10) 0.41526(13) 0.68374(10)
O3_6 O 0.99188(10) 0.57036(14) 0.66881(11)
N1_3 N 0.57911(11) 0.07426(16) 0.33470(14)
C1_6 C 0.61785(14) 0.10724(21) 0.48037(15)
H1_6 H 0.6076 0.0962 0.5401
C4_6 C 0.88742(17) 0.35040(22) 0.70580(17)
C5_6 C 0.83167(16) 0.30112(22) 0.64519(17)
C8_6 C 0.67787(16) 0.16441(23) 0.45820(17)
C11_6 C 0.89990(16) 0.32480(23) 0.78160(19)
H5_6 H 0.8676 0.2764 0.7947
C12_6 C 0.95552(19) 0.36249(25) 0.84235(19)
C13_6 C 0.56982(15) 0.06335(21) 0.41980(17)
H6_6 H 0.5276 0.0229 0.4396
C16_6 C 0.73164(16) 0.21338(23) 0.52021(18)
C20_6 C 0.73450(17) 0.18882(24) 0.60191(19)
H10_6 H 0.7014 0.1411 0.6171
C21_6 C 0.78410(16) 0.23201(23) 0.66131(18)
H11_6 H 0.7852 0.2127 0.7161
C22_6 C 0.6823(2) 0.1808(3) 0.3668(2)
H12_6 H 0.7194 0.2248 0.3453
C23_6 C 0.95541(18) 0.32028(26) 0.9203(2)
H13_6 H 0.9509 0.3426 0.9732
H14_6 H 0.9153 0.2716 0.9161
H15_9 H 1.0000 0.3193 0.9221
C27_6 C 0.78180(19) 0.28060(28) 0.5025(2)
H19_6 H 0.7852 0.2974 0.4449
C28_6 C 0.8278(2) 0.3258(3) 0.5626(2)
H20_6 H 0.8576 0.3745 0.5485
H23_6 H 0.9916 0.6849 0.6002
C30_6 C 0.6336(2) 0.1336(3) 0.31308(19)
H24_6 H 0.6398 0.1449 0.2531
N4_3 N 0.92029(17) 0.49799(21) 0.83943(13)
O1_6 O 0.49760(10) 0.07748(9) 0.18197(11)
O4_6 O 0.57743(10) 0.00261(10) 0.16391(11)
C2_6 C 0.46547(17) 0.10884(14) 0.20525(17)
H2_6 H 0.4739 0.3846 0.0439
C9_6 C 0.47220(17) 0.16662(15) 0.14384(17)
C10_6 C 0.42429(18) 0.09529(16) 0.27892(19)
H4_6 H 0.4088 0.1280 0.2926
C14_6 C 0.40345(17) 0.03741(17) 0.33511(19)
C15_6 C 0.48925(17) 0.27150(15) 0.02569(17)
C17_6 C 0.5183(2) 0.18561(17) 0.0774(2)
H7_6 H 0.5452 0.1623 0.0715
C19_6 C 0.52869(19) 0.23693(17) 0.0176(2)
H15_10 H 0.6807 0.0000 0.0779
C24_6 C 0.44322(18) 0.25341(18) 0.09387(18)
H16_6 H 0.4162 0.2764 0.1008
C26_6 C 0.43541(19) 0.20206(17) 0.15299(19)
H18_6 H 0.4040 0.1913 0.2006
C29_6 C 0.3549(2) 0.0307(2) 0.4111(2)
H21_6 H 0.3729 0.0210 0.4645
H22_6 H 0.3541 0.0751 0.4176
C3_6 C 0.89539(21) 0.51588(15) 0.98537(17)
C6_6 C 0.82808(21) 0.50282(15) 0.96027(18)
C7_6 C 0.93840(21) 0.51342(15) 0.92229(17)
H3_6 H 0.9846 0.5235 0.9389
C18_6 C 0.80916(25) 0.48659(19) 0.87564(18)
H8_6 H 0.7631 0.4756 0.8569
H9_6 H 0.6867 0.4381 0.9717
C25_6 C 0.85690(25) 0.48611(18) 0.81717(19)
H17_6 H 0.8434 0.4768 0.7580
loop_
_geom_bond_atom_site_label_1
_geom_bond_atom_site_label_2
_geom_bond_site_symmetry_1
_geom_bond_site_symmetry_2
O2 Zn1 1_555 1_555
O3 Zn1 1_555 1_555
N1 C13 1_555 1_555
C1 H1 1_555 1_555
C4 O2 1_555 1_555
C5 C4 1_555 1_555
C8 C1 1_555 1_555
C11 C4 1_555 1_555
H5 C11 1_555 1_555
C13 C1 1_555 1_555
H6 C13 1_555 1_555
C16 C8 1_555 1_555
C20 C16 1_555 1_555
H10 C20 1_555 1_555
C21 C5 1_555 1_555
H11 C21 1_555 1_555
C22 C8 1_555 1_555
H12 C22 1_555 1_555
C23 C12 1_555 1_555
H13 C23 1_555 1_555
H14 C23 1_555 1_555
H15 C23 1_555 1_555
C27 C16 1_555 1_555
H19 C27 1_555 1_555
C28 C5 1_555 1_555
H20 C28 1_555 1_555
C30 N1 1_555 1_555
H24 C30 1_555 1_555
Zn2 N1 1_555 1_555
N4 Zn1 1_555 1_555
C11 C12 1_555 1_555
C20 C21 1_555 1_555
C22 C30 1_555 1_555
C27 C28 1_555 1_555
N2 C7 1_555 1_555
C6 C3 1_555 1_555
C7 C3 1_555 1_555
H3 C7 1_555 1_555
C18 C6 1_555 1_555
H8 C18 1_555 1_555
C25 N2 1_555 1_555
H17 C25 1_555 1_555
Zn2 N2 1_555 1_555
C18 C25 1_555 1_555
O1 C2 1_555 1_555
C2 C9 1_555 1_555
C9 C17 1_555 1_555
C10 C2 1_555 1_555
H4 C10 1_555 1_555
C17 H7 1_555 1_555
C19 C15 1_555 1_555
C24 C15 1_555 1_555
H16 C24 1_555 1_555
C26 C9 1_555 1_555
H18 C26 1_555 1_555
C29 C14 1_555 1_555
H21 C29 1_555 1_555
H22 C29 1_555 1_555
C10 C14 1_555 1_555
C17 C19 1_555 1_555
C24 C26 1_555 1_555
N4 C7_2 1_555 1_555
C6_2 C3_2 1_555 1_555
C7_2 C3_2 1_555 1_555
H3_2 C7_2 1_555 1_555
C18_2 C6_2 1_555 1_555
H8_2 C18_2 1_555 1_555
C25_2 N4 1_555 1_555
H17_2 C25_2 1_555 1_555
C18_2 C25_2 1_555 1_555
Zn2 O1_2 1_555 1_555
O1_2 C2_2 1_555 1_555
O2_2 Zn2 1_555 1_555
O3_2 Zn2 1_555 1_555
O4_2 Zn2 1_555 1_555
N3 C13_2 1_555 1_555
C1_2 H1_2 1_555 1_555
C2_2 C9_2 1_555 1_555
C4_2 O2_2 1_555 1_555
C5_2 C4_2 1_555 1_555
C8_2 C1_2 1_555 1_555
C9_2 C17_2 1_555 1_555
C10_2 C2_2 1_555 1_555
H4_2 C10_2 1_555 1_555
C11_2 C4_2 1_555 1_555
H5_2 C11_2 1_555 1_555
C12_2 O4_2 1_555 1_555
C13_2 C1_2 1_555 1_555
H6_2 C13_2 1_555 1_555
C14_2 O3_2 1_555 1_555
C16_2 C8_2 1_555 1_555
C17_2 H7_2 1_555 1_555
C19_2 C15_2 1_555 1_555
C20_2 C16_2 1_555 1_555
H10_2 C20_2 1_555 1_555
C21_2 C5_2 1_555 1_555
H11_2 C21_2 1_555 1_555
C22_2 C8_2 1_555 1_555
H12_2 C22_2 1_555 1_555
C23_2 C12_2 1_555 1_555
H13_2 C23_2 1_555 1_555
H14_2 C23_2 1_555 1_555
H15_3 C23_2 1_555 1_555
C24_2 C15_2 1_555 1_555
H16_2 C24_2 1_555 1_555
C26_2 C9_2 1_555 1_555
H18_2 C26_2 1_555 1_555
C27_2 C16_2 1_555 1_555
H19_2 C27_2 1_555 1_555
C28_2 C5_2 1_555 1_555
H20_2 C28_2 1_555 1_555
C29_2 C14_2 1_555 1_555
H21_2 C29_2 1_555 1_555
H22_2 C29_2 1_555 1_555
H23_2 C29_2 1_555 1_555
C30_2 N3 1_555 1_555
H24_2 C30_2 1_555 1_555
C10_2 C14_2 1_555 1_555
C11_2 C12_2 1_555 1_555
C17_2 C19_2 1_555 1_555
C20_2 C21_2 1_555 1_555
C22_2 C30_2 1_555 1_555
C24_2 C26_2 1_555 1_555
C27_2 C28_2 1_555 1_555
O1_3 C2_3 1_555 1_555
C2_3 C9_3 1_555 1_555
C9_3 C17_3 1_555 1_555
C10_3 C2_3 1_555 1_555
H4_3 C10_3 1_555 1_555
C17_3 H7_3 1_555 1_555
C19_3 C15_3 1_555 1_555
C24_3 C15_3 1_555 1_555
H16_3 C24_3 1_555 1_555
C26_3 C9_3 1_555 1_555
H18_3 C26_3 1_555 1_555
C29_3 C14_3 1_555 1_555
H21_3 C29_3 1_555 1_555
H22_3 C29_3 1_555 1_555
C10_3 C14_3 1_555 1_555
C17_3 C19_3 1_555 1_555
C24_3 C26_3 1_555 1_555
N2_2 C7_3 1_555 1_555
C6_3 C3_3 1_555 1_555
C7_3 C3_3 1_555 1_555
H3_3 C7_3 1_555 1_555
C18_3 C6_3 1_555 1_555
H8_3 C18_3 1_555 1_555
C25_3 N2_2 1_555 1_555
H17_3 C25_3 1_555 1_555
Zn2_2 N2_2 1_555 1_555
C18_3 C25_3 1_555 1_555
O2_3 Zn2_2 1_555 1_555
O3_3 Zn2_2 1_555 1_555
N3_2 C13_3 1_555 1_555
C1_3 H1_3 1_555 1_555
C4_3 O2_3 1_555 1_555
C5_3 C4_3 1_555 1_555
C8_3 C1_3 1_555 1_555
C11_3 C4_3 1_555 1_555
H5_3 C11_3 1_555 1_555
C13_3 C1_3 1_555 1_555
H6_3 C13_3 1_555 1_555
C16_3 C8_3 1_555 1_555
C20_3 C16_3 1_555 1_555
H10_3 C20_3 1_555 1_555
C21_3 C5_3 1_555 1_555
H11_3 C21_3 1_555 1_555
C22_3 C8_3 1_555 1_555
H12_3 C22_3 1_555 1_555
C23_3 C12_3 1_555 1_555
H13_3 C23_3 1_555 1_555
H14_3 C23_3 1_555 1_555
H15_5 C23_3 1_555 1_555
C27_3 C16_3 1_555 1_555
H19_3 C27_3 1_555 1_555
C28_3 C5_3 1_555 1_555
H20_3 C28_3 1_555 1_555
C30_3 N3_2 1_555 1_555
H24_3 C30_3 1_555 1_555
C11_3 C12_3 1_555 1_555
C20_3 C21_3 1_555 1_555
C22_3 C30_3 1_555 1_555
C27_3 C28_3 1_555 1_555
N2_3 C7_4 1_555 1_555
C6_4 C3_4 1_555 1_555
C7_4 C3_4 1_555 1_555
H3_4 C7_4 1_555 1_555
C18_4 C6_4 1_555 1_555
H8_4 C18_4 1_555 1_555
C25_4 N2_3 1_555 1_555
H17_4 C25_4 1_555 1_555
Zn3 N2_3 1_555 1_555
C18_4 C25_4 1_555 1_555
Zn1_2 O1_4 1_555 1_555
O1_4 C2_4 1_555 1_555
O2_4 Zn1_2 1_555 1_555
O3_4 Zn1_2 1_555 1_555
O4_4 Zn1_2 1_555 1_555
N1_2 C13_4 1_555 1_555
C1_4 H1_4 1_555 1_555
C2_4 C9_4 1_555 1_555
C4_4 O2_4 1_555 1_555
C5_4 C4_4 1_555 1_555
C8_4 C1_4 1_555 1_555
C9_4 C17_4 1_555 1_555
C10_4 C2_4 1_555 1_555
H4_4 C10_4 1_555 1_555
C11_4 C4_4 1_555 1_555
H5_4 C11_4 1_555 1_555
C12_4 O4_4 1_555 1_555
C13_4 C1_4 1_555 1_555
H6_4 C13_4 1_555 1_555
C14_4 O3_4 1_555 1_555
C16_4 C8_4 1_555 1_555
C17_4 H7_4 1_555 1_555
C19_4 C15_4 1_555 1_555
C20_4 C16_4 1_555 1_555
H10_4 C20_4 1_555 1_555
C21_4 C5_4 1_555 1_555
H11_4 C21_4 1_555 1_555
C22_4 C8_4 1_555 1_555
H12_4 C22_4 1_555 1_555
C23_4 C12_4 1_555 1_555
H13_4 C23_4 1_555 1_555
H14_4 C23_4 1_555 1_555
H15_6 C23_4 1_555 1_555
C24_4 C15_4 1_555 1_555
H16_4 C24_4 1_555 1_555
C26_4 C9_4 1_555 1_555
H18_4 C26_4 1_555 1_555
C27_4 C16_4 1_555 1_555
H19_4 C27_4 1_555 1_555
C28_4 C5_4 1_555 1_555
H20_4 C28_4 1_555 1_555
C29_4 C14_4 1_555 1_555
H21_4 C29_4 1_555 1_555
H22_4 C29_4 1_555 1_555
H23_4 C29_4 1_555 1_555
C30_4 N1_2 1_555 1_555
H24_4 C30_4 1_555 1_555
N3_3 Zn1_2 1_555 1_555
N4_2 Zn1_2 1_555 1_555
C10_4 C14_4 1_555 1_555
C11_4 C12_4 1_555 1_555
C17_4 C19_4 1_555 1_555
C20_4 C21_4 1_555 1_555
C22_4 C30_4 1_555 1_555
C24_4 C26_4 1_555 1_555
C27_4 C28_4 1_555 1_555
N4_2 C7_5 1_555 1_555
C6_5 C3_5 1_555 1_555
C7_5 C3_5 1_555 1_555
H3_5 C7_5 1_555 1_555
C18_5 C6_5 1_555 1_555
H8_5 C18_5 1_555 1_555
C25_5 N4_2 1_555 1_555
H17_5 C25_5 1_555 1_555
C18_5 C25_5 1_555 1_555
O2_5 Zn3 1_555 1_555
O3_5 Zn3 1_555 1_555
N3_3 C13_5 1_555 1_555
C1_5 H1_5 1_555 1_555
C4_5 O2_5 1_555 1_555
C5_5 C4_5 1_555 1_555
C8_5 C1_5 1_555 1_555
C11_5 C4_5 1_555 1_555
H5_5 C11_5 1_555 1_555
C13_5 C1_5 1_555 1_555
H6_5 C13_5 1_555 1_555
C16_5 C8_5 1_555 1_555
C20_5 C16_5 1_555 1_555
H10_5 C20_5 1_555 1_555
C21_5 C5_5 1_555 1_555
H11_5 C21_5 1_555 1_555
C22_5 C8_5 1_555 1_555
H12_5 C22_5 1_555 1_555
C23_5 C12_5 1_555 1_555
H13_5 C23_5 1_555 1_555
H14_5 C23_5 1_555 1_555
H15_7 C23_5 1_555 1_555
C27_5 C16_5 1_555 1_555
H19_5 C27_5 1_555 1_555
C28_5 C5_5 1_555 1_555
H20_5 C28_5 1_555 1_555
C30_5 N3_3 1_555 1_555
H24_5 C30_5 1_555 1_555
C11_5 C12_5 1_555 1_555
C20_5 C21_5 1_555 1_555
C22_5 C30_5 1_555 1_555
C27_5 C28_5 1_555 1_555
O1_5 C2_5 1_555 1_555
C2_5 C9_5 1_555 1_555
C9_5 C17_5 1_555 1_555
C10_5 C2_5 1_555 1_555
H4_5 C10_5 1_555 1_555
C17_5 H7_5 1_555 1_555
C19_5 C15_5 1_555 1_555
C24_5 C15_5 1_555 1_555
H16_5 C24_5 1_555 1_555
C26_5 C9_5 1_555 1_555
H18_5 C26_5 1_555 1_555
C29_5 C14_5 1_555 1_555
H21_5 C29_5 1_555 1_555
H22_5 C29_5 1_555 1_555
C10_5 C14_5 1_555 1_555
C17_5 C19_5 1_555 1_555
C24_5 C26_5 1_555 1_555
O2_6 Zn1_3 1_555 1_555
O3_6 Zn1_3 1_555 1_555
N1_3 C13_6 1_555 1_555
C1_6 H1_6 1_555 1_555
C4_6 O2_6 1_555 1_555
C5_6 C4_6 1_555 1_555
C8_6 C1_6 1_555 1_555
C11_6 C4_6 1_555 1_555
H5_6 C11_6 1_555 1_555
C13_6 C1_6 1_555 1_555
H6_6 C13_6 1_555 1_555
C16_6 C8_6 1_555 1_555
C20_6 C16_6 1_555 1_555
H10_6 C20_6 1_555 1_555
C21_6 C5_6 1_555 1_555
H11_6 C21_6 1_555 1_555
C22_6 C8_6 1_555 1_555
H12_6 C22_6 1_555 1_555
C23_6 C12_6 1_555 1_555
H13_6 C23_6 1_555 1_555
H14_6 C23_6 1_555 1_555
H15_9 C23_6 1_555 1_555
C27_6 C16_6 1_555 1_555
H19_6 C27_6 1_555 1_555
C28_6 C5_6 1_555 1_555
H20_6 C28_6 1_555 1_555
C30_6 N1_3 1_555 1_555
H24_6 C30_6 1_555 1_555
N4_3 Zn1_3 1_555 1_555
C11_6 C12_6 1_555 1_555
C20_6 C21_6 1_555 1_555
C22_6 C30_6 1_555 1_555
C27_6 C28_6 1_555 1_555
O1_6 C2_6 1_555 1_555
C2_6 C9_6 1_555 1_555
C9_6 C17_6 1_555 1_555
C10_6 C2_6 1_555 1_555
H4_6 C10_6 1_555 1_555
C17_6 H7_6 1_555 1_555
C19_6 C15_6 1_555 1_555
C24_6 C15_6 1_555 1_555
H16_6 C24_6 1_555 1_555
C26_6 C9_6 1_555 1_555
H18_6 C26_6 1_555 1_555
C29_6 C14_6 1_555 1_555
H21_6 C29_6 1_555 1_555
H22_6 C29_6 1_555 1_555
C10_6 C14_6 1_555 1_555
C17_6 C19_6 1_555 1_555
C24_6 C26_6 1_555 1_555
N4_3 C7_6 1_555 1_555
C6_6 C3_6 1_555 1_555
C7_6 C3_6 1_555 1_555
H3_6 C7_6 1_555 1_555
C18_6 C6_6 1_555 1_555
H8_6 C18_6 1_555 1_555
C25_6 N4_3 1_555 1_555
H17_6 C25_6 1_555 1_555
C18_6 C25_6 1_555 1_555

#END
