
###############################################################################
#
# This file contains modified crystal structure data generated from the
# MOF subset of the Cambridge Structural Database (CSD) v543 
# hosted by the Cambridge Crystallographic Data Centre (CCDC).
#
# This work is licensed under the Creative Commons
# Attribution-NonCommercial-ShareAlike 4.0 International License.
# To view a copy of this license, visit
# http://creativecommons.org/licenses/by-nc-sa/4.0/
# or send a letter to
# Creative Commons, PO Box 1866, Mountain View, CA 94042, USA.
#
# CIF created using the CSD Python API on 29 September 2022
# The structure has been converted into the P1 space group
# The structure has a 3D framework
# The original CSD entry ECAHIB07 is in the rhombohedral crystal system
# The framework has been calculated to contain at least 10.0% void space
# The void calculation uses a probe of radius 1.32A, grid spacing 0.4
#
###############################################################################

data_ECAHIB07
_chemical_formula_moiety         '(C162 H144 Cu16 N18 O36)n'
_symmetry_cell_setting           triclinic
_symmetry_space_group_name_H-M   'P 1'
_symmetry_Int_Tables_number      1
_space_group_name_Hall           'P 1'
loop_
_symmetry_equiv_pos_site_id
_symmetry_equiv_pos_as_xyz
1 x,y,z
_cell_length_a                   25.4345(8)
_cell_length_b                   25.4345(8)
_cell_length_c                   7.7363(3)
_cell_angle_alpha                90
_cell_angle_beta                 90
_cell_angle_gamma                120
_cell_volume                     4334.21
loop_
_atom_site_label
_atom_site_type_symbol
_atom_site_fract_x
_atom_site_fract_y
_atom_site_fract_z
C13 C 0.03950(19) 0.7570(2) 0.1748(5)
N2 N 0.09654(16) 0.79961(16) 0.1474(4)
H10 H 0.0283 0.7402 0.2875
Cu2 Cu 0.1666 0.8333 0.3333
Cu3 Cu 0.4999 0.5000 1.0000
Cu1 Cu 0.1666 0.3334 0.3334
O1 O 0.09104(13) 0.30159(14) 0.2016(4)
C1 C 0.03914(17) 0.25827(18) 0.2489(5)
C7 C 0.0262(2) 0.2249(2) 0.3995(6)
C8 C 0.06923(19) 0.2214(2) 0.5075(5)
O2 O 0.12546(14) 0.25182(15) 0.4901(4)
C9 C 0.0454(3) 0.1744(3) 0.6486(7)
H6 H 0.0735 0.1592 0.6670
H7 H 0.0415 0.1924 0.7561
H8 H 0.0057 0.1408 0.6162
O3 O 0.24229(13) 0.36508(14) 0.4651(4)
C10 C 0.29419(17) 0.40840(18) 0.4178(5)
C11 C 0.34358(16) 0.42679(18) 0.5494(5)
C12 C 0.32890(19) 0.4027(2) 0.7150(5)
C13_2 C 0.37283(19) 0.4237(2) 0.8415(5)
N2_2 N 0.42987(16) 0.46628(16) 0.8141(4)
C14 C 0.44404(19) 0.4878(2) 0.6528(5)
C15 C 0.40339(18) 0.4694(2) 0.5190(5)
C16 C 0.3071(2) 0.4418(2) 0.2672(6)
C17 C 0.26410(19) 0.4453(2) 0.1592(5)
O4 O 0.20787(14) 0.41485(15) 0.1766(4)
C18 C 0.2879(3) 0.4923(3) 0.0181(7)
H9 H 0.2886 0.3718 0.7408
H10_2 H 0.3616 0.4069 0.9542
H11 H 0.4849 0.5179 0.6298
H12 H 0.4164 0.4857 0.4065
H13 H 0.3485 0.4643 0.2329
H16 H 0.3276 0.5259 0.0505
N3 N 0.13295(16) 0.36974(23) 0.5192(4)
N4 N 0.20039(16) 0.29692(23) 0.1474(4)
Cu1_2 Cu 0.5000 1.0000 1.0000
O1_2 O 0.42438(13) 0.96825(14) 0.8682(4)
C1_2 C 0.37248(17) 0.92493(18) 0.9155(5)
C2 C 0.32309(16) 0.90654(18) 0.7839(5)
C3 C 0.33777(19) 0.9306(2) 0.6183(5)
C4 C 0.29384(19) 0.9096(2) 0.4918(5)
N1 N 0.23680(16) 0.86705(16) 0.5192(4)
C5 C 0.22263(19) 0.8455(2) 0.6805(5)
C6 C 0.26328(18) 0.8639(2) 0.8143(5)
H1 H 0.3781 0.9615 0.5925
H2 H 0.3051 0.9264 0.3791
H3 H 0.1818 0.8154 0.7035
H4 H 0.2503 0.8476 0.9268
N4_2 N 0.53372(16) 0.96359(23) 0.8141(4)
H6_2 H 0.5075 0.2477 0.0003
H7_2 H 0.4743 0.1825 0.0894
C12_2 C 0.2640(2) 0.25953(28) 0.0483(5)
C13_3 C 0.2430(2) 0.28246(28) 0.1748(5)
H9_2 H 0.2949 0.2501 0.0741
H10_3 H 0.2598 0.2880 0.2875
Cu1_3 Cu 0.6666 0.8333 0.3334
O1_3 O 0.69841(14) 0.78946(19) 0.2016(4)
C1_3 C 0.74173(18) 0.78088(25) 0.2489(5)
C2_2 C 0.76012(18) 0.74988(24) 0.1173(5)
C5_2 C 0.8211(2) 0.71043(28) 0.0139(5)
C6_2 C 0.8027(2) 0.73268(27) 0.1477(5)
C7_2 C 0.7751(2) 0.8014(3) 0.3995(6)
C8_2 C 0.7786(2) 0.84787(28) 0.5075(5)
O2_2 O 0.74818(15) 0.87365(21) 0.4901(4)
C9_2 C 0.8256(3) 0.8711(4) 0.6486(7)
H3_2 H 0.8512 0.6997 0.0369
H4_2 H 0.8190 0.7360 0.2602
H5 H 0.7976 0.7825 0.4338
H6_3 H 0.8408 0.9144 0.6670
H7_3 H 0.8076 0.8492 0.7561
H8_2 H 0.8592 0.8650 0.6162
O3_2 O 0.63492(14) 0.87721(19) 0.4651(4)
C10_2 C 0.59160(18) 0.88579(25) 0.4178(5)
C11_2 C 0.57321(18) 0.91679(24) 0.5494(5)
C12_3 C 0.5973(2) 0.92620(28) 0.7150(5)
C13_4 C 0.5763(2) 0.94913(28) 0.8415(5)
C14_2 C 0.5122(2) 0.95624(28) 0.6528(5)
C15_2 C 0.5306(2) 0.93399(27) 0.5190(5)
C16_2 C 0.5582(2) 0.8653(3) 0.2672(6)
C17_2 C 0.5547(2) 0.81880(28) 0.1592(5)
O4_2 O 0.58515(15) 0.79302(21) 0.1766(4)
C18_2 C 0.5077(3) 0.7956(4) 0.0181(7)
H9_3 H 0.6282 0.9168 0.7408
H10_4 H 0.5931 0.9547 0.9542
H11_2 H 0.4821 0.9670 0.6298
H12_2 H 0.5143 0.9307 0.4065
H13_2 H 0.5357 0.8842 0.2329
H16_2 H 0.4741 0.8017 0.0505
N3_2 N 0.63026(23) 0.76320(28) 0.5192(4)
N4_3 N 0.70308(23) 0.90346(28) 0.1474(4)
Cu1_4 Cu -0.0000 0.4999 1.0000
O1_4 O 0.03175(14) 0.45612(19) 0.8682(4)
C1_4 C 0.07507(18) 0.44754(25) 0.9155(5)
C2_3 C 0.09346(18) 0.41654(24) 0.7839(5)
C3_2 C 0.0694(2) 0.40713(28) 0.6183(5)
C4_2 C 0.0904(2) 0.38420(28) 0.4918(5)
C5_3 C 0.1545(2) 0.37709(28) 0.6805(5)
C6_3 C 0.1361(2) 0.39934(27) 0.8143(5)
H1_2 H 0.0385 0.4165 0.5925
H2_2 H 0.0736 0.3786 0.3791
H3_3 H 0.1846 0.3663 0.7035
H4_3 H 0.1524 0.4026 0.9268
N4_4 N 0.03641(23) 0.57013(28) 0.8141(4)
C13_5 C 0.71754(28) 0.96050(19) 0.1748(5)
H10_5 H 0.7120 0.9717 0.2875
O1_5 O 0.21054(19) 0.90896(13) 0.2016(4)
C1_5 C 0.21912(25) 0.96086(17) 0.2489(5)
C7_3 C 0.1986(3) 0.9738(2) 0.3995(6)
C8_3 C 0.15213(28) 0.93077(19) 0.5075(5)
O2_3 O 0.12635(21) 0.87454(14) 0.4901(4)
C9_3 C 0.1289(4) 0.9546(3) 0.6486(7)
H6_4 H 0.0856 0.9265 0.6670
H7_4 H 0.1508 0.9585 0.7561
H8_3 H 0.1350 0.9943 0.6162
O3_3 O 0.12279(19) 0.75771(13) 0.4651(4)
C10_3 C 0.11421(25) 0.70581(17) 0.4178(5)
C11_3 C 0.08321(24) 0.65642(16) 0.5494(5)
C12_4 C 0.07380(28) 0.67110(19) 0.7150(5)
C13_6 C 0.05087(28) 0.62717(19) 0.8415(5)
C14_3 C 0.04376(28) 0.55596(19) 0.6528(5)
C15_3 C 0.06601(27) 0.59661(18) 0.5190(5)
C16_3 C 0.1347(3) 0.6929(2) 0.2672(6)
C17_3 C 0.18120(28) 0.73590(19) 0.1592(5)
O4_3 O 0.20698(21) 0.79213(14) 0.1766(4)
C18_3 C 0.2044(4) 0.7121(3) 0.0181(7)
H9_4 H 0.0832 0.7114 0.7408
H10_6 H 0.0453 0.6384 0.9542
H11_3 H 0.0330 0.5151 0.6298
H12_3 H 0.0693 0.5836 0.4065
H13_3 H 0.1158 0.6515 0.2329
H16_3 H 0.1983 0.6724 0.0505
O1_6 O 0.54388(19) 0.57562(13) 0.8682(4)
C1_6 C 0.55246(25) 0.62752(17) 0.9155(5)
C2_4 C 0.58346(24) 0.67691(16) 0.7839(5)
C3_3 C 0.59287(28) 0.66223(19) 0.6183(5)
C4_3 C 0.61580(28) 0.70616(19) 0.4918(5)
C5_4 C 0.62291(28) 0.77737(19) 0.6805(5)
C6_4 C 0.60066(27) 0.73672(18) 0.8143(5)
H1_3 H 0.5835 0.6219 0.5925
H2_3 H 0.6214 0.6949 0.3791
H3_4 H 0.6337 0.8182 0.7035
H4_4 H 0.5974 0.7497 0.9268
C16_4 C 0.4680(3) 0.3596(2) 0.9339(6)
C17_4 C 0.51453(28) 0.40257(19) 0.8259(5)
O4_4 O 0.54031(21) 0.45880(14) 0.8433(4)
C18_4 C 0.5377(4) 0.3788(3) 0.6848(7)
H13_4 H 0.4491 0.3182 0.8996
H14 H 0.5810 0.4069 0.6664
H15 H 0.5158 0.3749 0.5773
H16_4 H 0.5316 0.3391 0.7172
C11_4 C 0.01025(16) 0.76012(18) 0.8827(5)
C14_4 C 0.11071(19) 0.8211(2) 0.9861(5)
C15_4 C 0.07006(18) 0.8027(2) 0.8523(5)
H11_4 H 0.1516 0.8512 0.9631
H12_4 H 0.0831 0.8190 0.7398
H13_5 H 0.0152 0.7976 0.5662
H6_5 H 0.7402 0.4925 0.0003
H7_5 H 0.7082 0.5257 0.0894
C12_5 C 0.99557(19) 0.7360(2) 0.0483(5)
H9_5 H 0.9553 0.7051 0.0741
Cu1_5 Cu 0.8333 0.6667 0.6667
O1_7 O 0.75771(13) 0.63492(14) 0.5349(4)
C1_7 C 0.70581(17) 0.59160(18) 0.5822(5)
C2_5 C 0.65642(16) 0.57321(18) 0.4506(5)
C3_4 C 0.67110(19) 0.5973(2) 0.2850(5)
C4_4 C 0.62717(19) 0.5763(2) 0.1585(5)
N1_2 N 0.57013(16) 0.53372(16) 0.1859(4)
C5_5 C 0.55596(19) 0.5122(2) 0.3472(5)
C6_5 C 0.59661(18) 0.5306(2) 0.4810(5)
C7_4 C 0.6929(2) 0.5582(2) 0.7328(6)
C8_4 C 0.73590(19) 0.5547(2) 0.8408(5)
O2_4 O 0.79213(14) 0.58515(15) 0.8234(4)
C9_4 C 0.7121(3) 0.5077(3) 0.9819(7)
H1_4 H 0.7114 0.6282 0.2592
H2_4 H 0.6384 0.5931 0.0458
H3_5 H 0.5151 0.4821 0.3702
H4_5 H 0.5836 0.5143 0.5935
H5_2 H 0.6515 0.5357 0.7671
H8_4 H 0.6724 0.4741 0.9495
O3_4 O 0.90896(13) 0.69841(14) 0.7984(4)
C10_4 C 0.96086(17) 0.74173(18) 0.7511(5)
C16_5 C 0.9738(2) 0.7751(2) 0.6005(6)
C17_5 C 0.93077(19) 0.7786(2) 0.4925(5)
O4_5 O 0.87454(14) 0.74818(15) 0.5099(4)
C18_5 C 0.9546(3) 0.8256(3) 0.3514(7)
H14_2 H 0.9265 0.8408 0.3330
H15_2 H 0.9585 0.8076 0.2439
H16_5 H 0.9943 0.8592 0.3838
Cu3_2 Cu 0.4999 0.5000 -0.0000
N3_3 N 0.79961(16) 0.70308(23) 0.8526(4)
N4_5 N 0.86705(16) 0.63026(23) 0.4808(4)
C4_5 C 0.96050(19) 0.2430(2) 0.8252(5)
N1_3 N 0.90346(16) 0.20039(16) 0.8526(4)
H2_5 H 0.9717 0.2598 0.7125
Cu3_3 Cu 0.8333 0.1666 0.6666
Cu1_6 Cu 0.5000 0.0000 0.0000
O3_5 O 0.57562(13) 0.03175(14) 0.1318(4)
C10_5 C 0.62752(17) 0.07507(18) 0.0845(5)
C11_5 C 0.67691(16) 0.09346(18) 0.2161(5)
C12_6 C 0.66223(19) 0.0694(2) 0.3817(5)
C13_7 C 0.70616(19) 0.0904(2) 0.5082(5)
N2_3 N 0.76320(16) 0.13295(16) 0.4808(4)
C14_5 C 0.77737(19) 0.1545(2) 0.3195(5)
C15_5 C 0.73672(18) 0.1361(2) 0.1857(5)
H9_6 H 0.6219 0.0385 0.4075
H10_7 H 0.6949 0.0736 0.6209
H11_5 H 0.8182 0.1846 0.2965
H12_5 H 0.7497 0.1524 0.0732
N3_4 N 0.46628(16) 0.03641(23) 0.1859(4)
Cu1_7 Cu 0.3333 0.1666 0.6667
O1_8 O 0.36508(14) 0.12279(19) 0.5349(4)
C1_8 C 0.40840(18) 0.11421(25) 0.5822(5)
C2_6 C 0.42679(18) 0.08321(24) 0.4506(5)
C3_5 C 0.4027(2) 0.07380(28) 0.2850(5)
C4_6 C 0.4237(2) 0.05087(28) 0.1585(5)
C5_6 C 0.4878(2) 0.04376(28) 0.3472(5)
C6_6 C 0.4694(2) 0.06601(27) 0.4810(5)
C7_5 C 0.4418(2) 0.1347(3) 0.7328(6)
C8_5 C 0.4453(2) 0.18120(28) 0.8408(5)
O2_5 O 0.41485(15) 0.20698(21) 0.8234(4)
C9_5 C 0.4923(3) 0.2044(4) 0.9819(7)
H1_5 H 0.3718 0.0832 0.2592
H2_6 H 0.4069 0.0453 0.0458
H3_6 H 0.5179 0.0330 0.3702
H4_6 H 0.4857 0.0693 0.5935
H5_3 H 0.4643 0.1158 0.7671
H8_5 H 0.5259 0.1983 0.9495
O3_6 O 0.30159(14) 0.21054(19) 0.7984(4)
C10_6 C 0.25827(18) 0.21912(25) 0.7511(5)
C11_6 C 0.23988(18) 0.25012(24) 0.8827(5)
C14_6 C 0.1789(2) 0.28957(28) 0.9861(5)
C15_6 C 0.1973(2) 0.26732(27) 0.8523(5)
C16_6 C 0.2249(2) 0.1986(3) 0.6005(6)
C17_6 C 0.2214(2) 0.15213(28) 0.4925(5)
O4_6 O 0.25182(15) 0.12635(21) 0.5099(4)
C18_6 C 0.1744(3) 0.1289(4) 0.3514(7)
H11_6 H 0.1488 0.3003 0.9631
H12_6 H 0.1810 0.2640 0.7398
H13_6 H 0.2024 0.2175 0.5662
H14_3 H 0.1592 0.0856 0.3330
H15_3 H 0.1924 0.1508 0.2439
H16_6 H 0.1408 0.1350 0.3838
N3_5 N 0.29692(23) 0.09654(28) 0.8526(4)
N4_6 N 0.36974(23) 0.23680(28) 0.4808(4)
C3_6 C 0.7360(2) 0.74047(28) 0.9517(5)
C4_7 C 0.7570(2) 0.71754(28) 0.8252(5)
H1_6 H 0.7051 0.7499 0.9259
H2_7 H 0.7402 0.7120 0.7125
H14_4 H 0.4925 0.7523 0.9997
H15_4 H 0.5257 0.8175 0.9106
Cu1_8 Cu 1.0000 0.4999 0.0000
O3_7 O 0.96825(14) 0.54388(19) 0.1318(4)
C10_7 C 0.92493(18) 0.55246(25) 0.0845(5)
C11_7 C 0.90654(18) 0.58346(24) 0.2161(5)
C12_7 C 0.9306(2) 0.59287(28) 0.3817(5)
C13_8 C 0.9096(2) 0.61580(28) 0.5082(5)
C14_7 C 0.8455(2) 0.62291(28) 0.3195(5)
C15_7 C 0.8639(2) 0.60066(27) 0.1857(5)
H9_7 H 0.9615 0.5835 0.4075
H10_8 H 0.9264 0.6214 0.6209
H11_7 H 0.8154 0.6337 0.2965
H12_7 H 0.8476 0.5974 0.0732
N3_6 N 0.96359(23) 0.42987(28) 0.1859(4)
O1_9 O 0.87721(19) 0.24229(13) 0.5349(4)
C1_9 C 0.88579(25) 0.29419(17) 0.5822(5)
C2_7 C 0.91679(24) 0.34358(16) 0.4506(5)
C3_7 C 0.92620(28) 0.32890(19) 0.2850(5)
C4_8 C 0.94913(28) 0.37283(19) 0.1585(5)
C5_7 C 0.95624(28) 0.44404(19) 0.3472(5)
C6_7 C 0.93399(27) 0.40339(18) 0.4810(5)
C7_6 C 0.8653(3) 0.3071(2) 0.7328(6)
C8_6 C 0.81880(28) 0.26410(19) 0.8408(5)
O2_6 O 0.79302(21) 0.20787(14) 0.8234(4)
C9_6 C 0.7956(4) 0.2879(3) 0.9819(7)
H1_7 H 0.9168 0.2886 0.2592
H2_8 H 0.9547 0.3616 0.0458
H3_7 H 0.9670 0.4849 0.3702
H4_7 H 0.9307 0.4164 0.5935
H5_4 H 0.8842 0.3485 0.7671
H8_6 H 0.8017 0.3276 0.9495
O3_8 O 0.78946(19) 0.09104(13) 0.7984(4)
C10_8 C 0.78088(25) 0.03914(17) 0.7511(5)
C16_7 C 0.8014(3) 0.0262(2) 0.6005(6)
C17_7 C 0.84787(28) 0.06923(19) 0.4925(5)
O4_7 O 0.87365(21) 0.12546(14) 0.5099(4)
C18_7 C 0.8711(4) 0.0454(3) 0.3514(7)
H14_5 H 0.9144 0.0735 0.3330
H15_5 H 0.8492 0.0415 0.2439
H16_7 H 0.8650 0.0057 0.3838
C4_9 C 0.28246(28) 0.03950(19) 0.8252(5)
H2_9 H 0.2880 0.0283 0.7125
C7_7 C 0.5320(3) 0.6404(2) 0.0661(6)
C8_7 C 0.48547(28) 0.59743(19) 0.1741(5)
O2_7 O 0.45969(21) 0.54120(14) 0.1567(4)
C9_7 C 0.4623(4) 0.6212(3) 0.3152(7)
H5_5 H 0.5509 0.6818 0.1004
H6_6 H 0.4190 0.5931 0.3336
H7_6 H 0.4842 0.6251 0.4227
H8_7 H 0.4684 0.6609 0.2828
O3_9 O 0.45612(19) 0.42438(13) 0.1318(4)
C10_9 C 0.44754(25) 0.37248(17) 0.0845(5)
C11_8 C 0.41654(24) 0.32309(16) 0.2161(5)
C12_8 C 0.40713(28) 0.33777(19) 0.3817(5)
C13_9 C 0.38420(28) 0.29384(19) 0.5082(5)
C14_8 C 0.37709(28) 0.22263(19) 0.3195(5)
C15_8 C 0.39934(27) 0.26328(18) 0.1857(5)
H9_8 H 0.4165 0.3781 0.4075
H10_9 H 0.3786 0.3051 0.6209
H11_8 H 0.3663 0.1818 0.2965
H12_8 H 0.4026 0.2503 0.0732
C3_8 C 0.00443(19) 0.2640(2) 0.9517(5)
H1_8 H 0.0447 0.2949 0.9259
H14_6 H 0.2598 0.5075 0.9997
H15_6 H 0.2918 0.4743 0.9106
C2_8 C 0.98975(16) 0.23988(18) 0.1173(5)
C5_8 C 0.88929(19) 0.1789(2) 0.0139(5)
C6_8 C 0.92994(18) 0.1973(2) 0.1477(5)
H3_8 H 0.8484 0.1488 0.0369
H4_8 H 0.9169 0.1810 0.2602
H5_6 H 0.9848 0.2024 0.4338
Cu1_9 Cu 0.5000 0.0000 1.0000
C16_8 C 0.6404(2) 0.1085(2) 0.9339(6)
C17_8 C 0.59743(19) 0.1120(2) 0.8259(5)
O4_8 O 0.54120(14) 0.08152(15) 0.8433(4)
C18_8 C 0.6212(3) 0.1590(3) 0.6848(7)
H13_7 H 0.6818 0.1310 0.8996
H14_7 H 0.5931 0.1742 0.6664
H15_7 H 0.6251 0.1410 0.5773
H16_8 H 0.6609 0.1926 0.7172
Cu1_10 Cu 0.5000 1.0000 0.0000
C7_8 C 0.3596(2) 0.8915(2) 0.0661(6)
C8_8 C 0.40257(19) 0.8880(2) 0.1741(5)
O2_8 O 0.45880(14) 0.91848(15) 0.1567(4)
C9_8 C 0.3788(3) 0.8410(3) 0.3152(7)
H5_7 H 0.3182 0.8690 0.1004
H6_7 H 0.4069 0.8258 0.3336
H7_7 H 0.3749 0.8590 0.4227
H8_8 H 0.3391 0.8074 0.2828
Cu1_11 Cu -0.0000 0.4999 0.0000
C7_9 C 0.1085(2) 0.4680(3) 0.0661(6)
C8_9 C 0.1120(2) 0.51453(28) 0.1741(5)
O2_9 O 0.08152(15) 0.54031(21) 0.1567(4)
C9_9 C 0.1590(3) 0.5377(4) 0.3152(7)
H5_8 H 0.1310 0.4491 0.1004
H6_8 H 0.1742 0.5810 0.3336
H7_8 H 0.1410 0.5158 0.4227
H8_9 H 0.1926 0.5316 0.2828
Cu1_12 Cu 1.0000 0.4999 1.0000
C16_9 C 0.8915(2) 0.5320(3) 0.9339(6)
C17_9 C 0.8880(2) 0.48547(28) 0.8259(5)
O4_9 O 0.91848(15) 0.45969(21) 0.8433(4)
C18_9 C 0.8410(3) 0.4623(4) 0.6848(7)
H13_8 H 0.8690 0.5509 0.8996
H14_8 H 0.8258 0.4190 0.6664
H15_8 H 0.8590 0.4842 0.5773
H16_9 H 0.8074 0.4684 0.7172
H6_9 H 0.7523 0.2598 0.0003
H7_9 H 0.8175 0.2918 0.0894
C12_9 C 0.74047(28) 0.00443(19) 0.0483(5)
H9_9 H 0.7499 0.0447 0.0741
C11_9 C 0.74988(24) 0.98975(16) 0.8827(5)
C14_9 C 0.71043(28) 0.88929(19) 0.9861(5)
C15_9 C 0.73268(27) 0.92994(18) 0.8523(5)
H11_9 H 0.6997 0.8484 0.9631
H12_9 H 0.7360 0.9169 0.7398
H13_9 H 0.7825 0.9848 0.5662
C2_9 C 0.25012(24) 0.01025(16) 0.1173(5)
C5_9 C 0.28957(28) 0.11071(19) 0.0139(5)
C6_9 C 0.26732(27) 0.07006(18) 0.1477(5)
H3_9 H 0.3003 0.1516 0.0369
H4_9 H 0.2640 0.0831 0.2602
H5_9 H 0.2175 0.0152 0.4338
C3_9 C 0.25953(28) 0.99557(19) 0.9517(5)
H1_9 H 0.2501 0.9553 0.9259
H14_9 H 0.2477 0.7402 0.9997
H15_9 H 0.1825 0.7082 0.9106
loop_
_geom_bond_atom_site_label_1
_geom_bond_atom_site_label_2
_geom_bond_site_symmetry_1
_geom_bond_site_symmetry_2
N2 C13 1_555 1_555
H10 C13 1_555 1_555
Cu2 N2 1_555 1_555
Cu1 O1 1_555 1_555
O1 C1 1_555 1_555
C7 C1 1_555 1_555
C8 C7 1_555 1_555
O2 Cu1 1_555 1_555
C9 C8 1_555 1_555
H6 C9 1_555 1_555
H7 C9 1_555 1_555
H8 C9 1_555 1_555
O3 Cu1 1_555 1_555
C10 O3 1_555 1_555
C11 C10 1_555 1_555
C12 C11 1_555 1_555
C13_2 C12 1_555 1_555
N2_2 C13_2 1_555 1_555
C14 N2_2 1_555 1_555
C15 C11 1_555 1_555
C16 C10 1_555 1_555
C17 C16 1_555 1_555
O4 Cu1 1_555 1_555
C18 C17 1_555 1_555
H9 C12 1_555 1_555
H10_2 C13_2 1_555 1_555
H11 C14 1_555 1_555
H12 C15 1_555 1_555
H13 C16 1_555 1_555
H16 C18 1_555 1_555
Cu3 N2_2 1_555 1_555
N3 Cu1 1_555 1_555
N4 Cu1 1_555 1_555
C8 O2 1_555 1_555
C14 C15 1_555 1_555
C17 O4 1_555 1_555
Cu1_2 O1_2 1_555 1_555
O1_2 C1_2 1_555 1_555
C1_2 C2 1_555 1_555
C2 C3 1_555 1_555
C3 C4 1_555 1_555
C4 N1 1_555 1_555
N1 C5 1_555 1_555
C5 C6 1_555 1_555
C6 C2 1_555 1_555
H1 C3 1_555 1_555
H2 C4 1_555 1_555
H3 C5 1_555 1_555
H4 C6 1_555 1_555
Cu2 N1 1_555 1_555
N4_2 Cu1_2 1_555 1_555
C13_3 C12_2 1_555 1_555
N4 C13_3 1_555 1_555
H9_2 C12_2 1_555 1_555
H10_3 C13_3 1_555 1_555
Cu1_3 O1_3 1_555 1_555
O1_3 C1_3 1_555 1_555
C1_3 C2_2 1_555 1_555
C5_2 C6_2 1_555 1_555
C6_2 C2_2 1_555 1_555
C7_2 C1_3 1_555 1_555
C8_2 C7_2 1_555 1_555
O2_2 Cu1_3 1_555 1_555
C9_2 C8_2 1_555 1_555
H3_2 C5_2 1_555 1_555
H4_2 C6_2 1_555 1_555
H5 C7_2 1_555 1_555
H6_3 C9_2 1_555 1_555
H7_3 C9_2 1_555 1_555
H8_2 C9_2 1_555 1_555
O3_2 Cu1_3 1_555 1_555
C10_2 O3_2 1_555 1_555
C11_2 C10_2 1_555 1_555
C12_3 C11_2 1_555 1_555
C13_4 C12_3 1_555 1_555
N4_2 C13_4 1_555 1_555
C14_2 N4_2 1_555 1_555
C15_2 C11_2 1_555 1_555
C16_2 C10_2 1_555 1_555
C17_2 C16_2 1_555 1_555
O4_2 Cu1_3 1_555 1_555
C18_2 C17_2 1_555 1_555
H9_3 C12_3 1_555 1_555
H10_4 C13_4 1_555 1_555
H11_2 C14_2 1_555 1_555
H12_2 C15_2 1_555 1_555
H13_2 C16_2 1_555 1_555
H16_2 C18_2 1_555 1_555
N3_2 Cu1_3 1_555 1_555
N4_3 Cu1_3 1_555 1_555
C8_2 O2_2 1_555 1_555
C14_2 C15_2 1_555 1_555
C17_2 O4_2 1_555 1_555
Cu1_4 O1_4 1_555 1_555
O1_4 C1_4 1_555 1_555
C1_4 C2_3 1_555 1_555
C2_3 C3_2 1_555 1_555
C3_2 C4_2 1_555 1_555
C4_2 N3 1_555 1_555
N3 C5_3 1_555 1_555
C5_3 C6_3 1_555 1_555
C6_3 C2_3 1_555 1_555
H1_2 C3_2 1_555 1_555
H2_2 C4_2 1_555 1_555
H3_3 C5_3 1_555 1_555
H4_3 C6_3 1_555 1_555
N4_4 Cu1_4 1_555 1_555
N4_3 C13_5 1_555 1_555
H10_5 C13_5 1_555 1_555
Cu2 O1_5 1_555 1_555
O1_5 C1_5 1_555 1_555
C7_3 C1_5 1_555 1_555
C8_3 C7_3 1_555 1_555
O2_3 Cu2 1_555 1_555
C9_3 C8_3 1_555 1_555
H6_4 C9_3 1_555 1_555
H7_4 C9_3 1_555 1_555
H8_3 C9_3 1_555 1_555
O3_3 Cu2 1_555 1_555
C10_3 O3_3 1_555 1_555
C11_3 C10_3 1_555 1_555
C12_4 C11_3 1_555 1_555
C13_6 C12_4 1_555 1_555
N4_4 C13_6 1_555 1_555
C14_3 N4_4 1_555 1_555
C15_3 C11_3 1_555 1_555
C16_3 C10_3 1_555 1_555
C17_3 C16_3 1_555 1_555
O4_3 Cu2 1_555 1_555
C18_3 C17_3 1_555 1_555
H9_4 C12_4 1_555 1_555
H10_6 C13_6 1_555 1_555
H11_3 C14_3 1_555 1_555
H12_3 C15_3 1_555 1_555
H13_3 C16_3 1_555 1_555
H16_3 C18_3 1_555 1_555
C8_3 O2_3 1_555 1_555
C14_3 C15_3 1_555 1_555
C17_3 O4_3 1_555 1_555
Cu3 O1_6 1_555 1_555
O1_6 C1_6 1_555 1_555
C1_6 C2_4 1_555 1_555
C2_4 C3_3 1_555 1_555
C3_3 C4_3 1_555 1_555
C4_3 N3_2 1_555 1_555
N3_2 C5_4 1_555 1_555
C5_4 C6_4 1_555 1_555
C6_4 C2_4 1_555 1_555
H1_3 C3_3 1_555 1_555
H2_3 C4_3 1_555 1_555
H3_4 C5_4 1_555 1_555
H4_4 C6_4 1_555 1_555
C17_4 C16_4 1_555 1_555
O4_4 Cu3 1_555 1_555
C18_4 C17_4 1_555 1_555
H13_4 C16_4 1_555 1_555
H14 C18_4 1_555 1_555
H15 C18_4 1_555 1_555
H16_4 C18_4 1_555 1_555
C17_4 O4_4 1_555 1_555
C15_4 C11_4 1_555 1_555
H11_4 C14_4 1_555 1_555
H12_4 C15_4 1_555 1_555
C14_4 C15_4 1_555 1_555
H9_5 C12_5 1_555 1_555
Cu1_5 O1_7 1_555 1_555
O1_7 C1_7 1_555 1_555
C1_7 C2_5 1_555 1_555
C2_5 C3_4 1_555 1_555
C3_4 C4_4 1_555 1_555
C4_4 N1_2 1_555 1_555
N1_2 C5_5 1_555 1_555
C5_5 C6_5 1_555 1_555
C6_5 C2_5 1_555 1_555
C7_4 C1_7 1_555 1_555
C8_4 C7_4 1_555 1_555
O2_4 Cu1_5 1_555 1_555
C9_4 C8_4 1_555 1_555
H1_4 C3_4 1_555 1_555
H2_4 C4_4 1_555 1_555
H3_5 C5_5 1_555 1_555
H4_5 C6_5 1_555 1_555
H5_2 C7_4 1_555 1_555
H8_4 C9_4 1_555 1_555
O3_4 Cu1_5 1_555 1_555
C10_4 O3_4 1_555 1_555
C16_5 C10_4 1_555 1_555
C17_5 C16_5 1_555 1_555
O4_5 Cu1_5 1_555 1_555
C18_5 C17_5 1_555 1_555
H14_2 C18_5 1_555 1_555
H15_2 C18_5 1_555 1_555
H16_5 C18_5 1_555 1_555
Cu3_2 N1_2 1_555 1_555
N3_3 Cu1_5 1_555 1_555
N4_5 Cu1_5 1_555 1_555
C8_4 O2_4 1_555 1_555
C17_5 O4_5 1_555 1_555
C4_5 N1_3 1_555 1_555
H2_5 C4_5 1_555 1_555
Cu3_3 N1_3 1_555 1_555
O3_5 Cu1_6 1_555 1_555
C10_5 O3_5 1_555 1_555
C11_5 C10_5 1_555 1_555
C12_6 C11_5 1_555 1_555
C13_7 C12_6 1_555 1_555
N2_3 C13_7 1_555 1_555
C14_5 N2_3 1_555 1_555
C15_5 C11_5 1_555 1_555
H9_6 C12_6 1_555 1_555
H10_7 C13_7 1_555 1_555
H11_5 C14_5 1_555 1_555
H12_5 C15_5 1_555 1_555
Cu3_3 N2_3 1_555 1_555
N3_4 Cu1_6 1_555 1_555
C14_5 C15_5 1_555 1_555
Cu1_7 O1_8 1_555 1_555
O1_8 C1_8 1_555 1_555
C1_8 C2_6 1_555 1_555
C2_6 C3_5 1_555 1_555
C3_5 C4_6 1_555 1_555
C4_6 N3_4 1_555 1_555
N3_4 C5_6 1_555 1_555
C5_6 C6_6 1_555 1_555
C6_6 C2_6 1_555 1_555
C7_5 C1_8 1_555 1_555
C8_5 C7_5 1_555 1_555
O2_5 Cu1_7 1_555 1_555
C9_5 C8_5 1_555 1_555
H1_5 C3_5 1_555 1_555
H2_6 C4_6 1_555 1_555
H3_6 C5_6 1_555 1_555
H4_6 C6_6 1_555 1_555
H5_3 C7_5 1_555 1_555
H8_5 C9_5 1_555 1_555
O3_6 Cu1_7 1_555 1_555
C10_6 O3_6 1_555 1_555
C11_6 C10_6 1_555 1_555
C15_6 C11_6 1_555 1_555
C16_6 C10_6 1_555 1_555
C17_6 C16_6 1_555 1_555
O4_6 Cu1_7 1_555 1_555
C18_6 C17_6 1_555 1_555
H11_6 C14_6 1_555 1_555
H12_6 C15_6 1_555 1_555
H13_6 C16_6 1_555 1_555
H14_3 C18_6 1_555 1_555
H15_3 C18_6 1_555 1_555
H16_6 C18_6 1_555 1_555
N3_5 Cu1_7 1_555 1_555
N4_6 Cu1_7 1_555 1_555
C8_5 O2_5 1_555 1_555
C14_6 C15_6 1_555 1_555
C17_6 O4_6 1_555 1_555
C3_6 C4_7 1_555 1_555
C4_7 N3_3 1_555 1_555
H1_6 C3_6 1_555 1_555
H2_7 C4_7 1_555 1_555
O3_7 Cu1_8 1_555 1_555
C10_7 O3_7 1_555 1_555
C11_7 C10_7 1_555 1_555
C12_7 C11_7 1_555 1_555
C13_8 C12_7 1_555 1_555
N4_5 C13_8 1_555 1_555
C14_7 N4_5 1_555 1_555
C15_7 C11_7 1_555 1_555
H9_7 C12_7 1_555 1_555
H10_8 C13_8 1_555 1_555
H11_7 C14_7 1_555 1_555
H12_7 C15_7 1_555 1_555
N3_6 Cu1_8 1_555 1_555
C14_7 C15_7 1_555 1_555
Cu3_3 O1_9 1_555 1_555
O1_9 C1_9 1_555 1_555
C1_9 C2_7 1_555 1_555
C2_7 C3_7 1_555 1_555
C3_7 C4_8 1_555 1_555
C4_8 N3_6 1_555 1_555
N3_6 C5_7 1_555 1_555
C5_7 C6_7 1_555 1_555
C6_7 C2_7 1_555 1_555
C7_6 C1_9 1_555 1_555
C8_6 C7_6 1_555 1_555
O2_6 Cu3_3 1_555 1_555
C9_6 C8_6 1_555 1_555
H1_7 C3_7 1_555 1_555
H2_8 C4_8 1_555 1_555
H3_7 C5_7 1_555 1_555
H4_7 C6_7 1_555 1_555
H5_4 C7_6 1_555 1_555
H8_6 C9_6 1_555 1_555
O3_8 Cu3_3 1_555 1_555
C10_8 O3_8 1_555 1_555
C16_7 C10_8 1_555 1_555
C17_7 C16_7 1_555 1_555
O4_7 Cu3_3 1_555 1_555
C18_7 C17_7 1_555 1_555
H14_5 C18_7 1_555 1_555
H15_5 C18_7 1_555 1_555
H16_7 C18_7 1_555 1_555
C8_6 O2_6 1_555 1_555
C17_7 O4_7 1_555 1_555
C4_9 N3_5 1_555 1_555
H2_9 C4_9 1_555 1_555
C8_7 C7_7 1_555 1_555
O2_7 Cu3_2 1_555 1_555
C9_7 C8_7 1_555 1_555
H5_5 C7_7 1_555 1_555
H6_6 C9_7 1_555 1_555
H7_6 C9_7 1_555 1_555
H8_7 C9_7 1_555 1_555
O3_9 Cu3_2 1_555 1_555
C10_9 O3_9 1_555 1_555
C11_8 C10_9 1_555 1_555
C12_8 C11_8 1_555 1_555
C13_9 C12_8 1_555 1_555
N4_6 C13_9 1_555 1_555
C14_8 N4_6 1_555 1_555
C15_8 C11_8 1_555 1_555
H9_8 C12_8 1_555 1_555
H10_9 C13_9 1_555 1_555
H11_8 C14_8 1_555 1_555
H12_8 C15_8 1_555 1_555
C8_7 O2_7 1_555 1_555
C14_8 C15_8 1_555 1_555
H1_8 C3_8 1_555 1_555
C5_8 C6_8 1_555 1_555
C6_8 C2_8 1_555 1_555
H3_8 C5_8 1_555 1_555
H4_8 C6_8 1_555 1_555
C17_8 C16_8 1_555 1_555
O4_8 Cu1_9 1_555 1_555
C18_8 C17_8 1_555 1_555
H13_7 C16_8 1_555 1_555
H14_7 C18_8 1_555 1_555
H15_7 C18_8 1_555 1_555
H16_8 C18_8 1_555 1_555
C17_8 O4_8 1_555 1_555
C8_8 C7_8 1_555 1_555
O2_8 Cu1_10 1_555 1_555
C9_8 C8_8 1_555 1_555
H5_7 C7_8 1_555 1_555
H6_7 C9_8 1_555 1_555
H7_7 C9_8 1_555 1_555
H8_8 C9_8 1_555 1_555
C8_8 O2_8 1_555 1_555
C8_9 C7_9 1_555 1_555
O2_9 Cu1_11 1_555 1_555
C9_9 C8_9 1_555 1_555
H5_8 C7_9 1_555 1_555
H6_8 C9_9 1_555 1_555
H7_8 C9_9 1_555 1_555
H8_9 C9_9 1_555 1_555
C8_9 O2_9 1_555 1_555
C17_9 C16_9 1_555 1_555
O4_9 Cu1_12 1_555 1_555
C18_9 C17_9 1_555 1_555
H13_8 C16_9 1_555 1_555
H14_8 C18_9 1_555 1_555
H15_8 C18_9 1_555 1_555
H16_9 C18_9 1_555 1_555
C17_9 O4_9 1_555 1_555
H9_9 C12_9 1_555 1_555
C15_9 C11_9 1_555 1_555
H11_9 C14_9 1_555 1_555
H12_9 C15_9 1_555 1_555
C14_9 C15_9 1_555 1_555
C5_9 C6_9 1_555 1_555
C6_9 C2_9 1_555 1_555
H3_9 C5_9 1_555 1_555
H4_9 C6_9 1_555 1_555
H1_9 C3_9 1_555 1_555

#END
