
###############################################################################
#
# This file contains modified crystal structure data generated from the
# MOF subset of the Cambridge Structural Database (CSD) v543 
# hosted by the Cambridge Crystallographic Data Centre (CCDC).
#
# This work is licensed under the Creative Commons
# Attribution-NonCommercial-ShareAlike 4.0 International License.
# To view a copy of this license, visit
# http://creativecommons.org/licenses/by-nc-sa/4.0/
# or send a letter to
# Creative Commons, PO Box 1866, Mountain View, CA 94042, USA.
#
# CIF created using the CSD Python API on 29 September 2022
# The structure has been converted into the P1 space group
# The structure has a 3D framework
# The original CSD entry ECAHIB10 is in the rhombohedral crystal system
# The framework has been calculated to contain at least 10.0% void space
# The void calculation uses a probe of radius 1.32A, grid spacing 0.4
#
###############################################################################

data_ECAHIB10
_chemical_formula_moiety         '(C162 H144 Cu16 N18 O36)n'
_symmetry_cell_setting           triclinic
_symmetry_space_group_name_H-M   'P 1'
_symmetry_Int_Tables_number      1
_space_group_name_Hall           'P 1'
loop_
_symmetry_equiv_pos_site_id
_symmetry_equiv_pos_as_xyz
1 x,y,z
_cell_length_a                   26.4400(6)
_cell_length_b                   26.4400(6)
_cell_length_c                   7.8045(2)
_cell_angle_alpha                90
_cell_angle_beta                 90
_cell_angle_gamma                120
_cell_volume                     4724.97
loop_
_atom_site_label
_atom_site_type_symbol
_atom_site_fract_x
_atom_site_fract_y
_atom_site_fract_z
C13 C 0.0324(3) 0.7589(4) 0.1792(8)
N2 N 0.0883(3) 0.7943(3) 0.1426(7)
H10 H 0.0227 0.7453 0.2939
Cu2 Cu 0.1666 0.8333 0.3333
Cu3 Cu 0.4999 0.5000 1.0000
Cu1 Cu 0.1666 0.3334 0.3334
O1 O 0.0955(2) 0.3016(2) 0.1942(6)
C1 C 0.0468(2) 0.2572(3) 0.2346(7)
C7 C 0.0361(3) 0.2232(4) 0.3784(9)
C8 C 0.0787(3) 0.2251(3) 0.4914(9)
O2 O 0.1317(2) 0.2623(2) 0.4872(7)
C9 C 0.0594(4) 0.1793(4) 0.6299(12)
H6 H 0.0933 0.1844 0.6954
H7 H 0.0329 0.1846 0.7061
H8 H 0.0389 0.1400 0.5805
O3 O 0.2378(2) 0.3651(2) 0.4725(6)
C10 C 0.2865(2) 0.4095(3) 0.4321(7)
C11 C 0.3344(2) 0.4255(3) 0.5595(7)
C12 C 0.3218(3) 0.4058(4) 0.7259(8)
C13_2 C 0.3657(3) 0.4256(4) 0.8459(8)
N2_2 N 0.4216(3) 0.4610(3) 0.8093(7)
C14 C 0.4337(3) 0.4777(4) 0.6468(8)
C15 C 0.3925(3) 0.4623(3) 0.5203(8)
C16 C 0.2972(3) 0.4435(4) 0.2883(9)
C17 C 0.2546(3) 0.4416(3) 0.1753(9)
O4 O 0.2016(2) 0.4044(2) 0.1795(7)
C18 C 0.2739(4) 0.4874(4) 0.0368(12)
H9 H 0.2828 0.3792 0.7597
H10_2 H 0.3560 0.4120 0.9606
H11 H 0.4731 0.5037 0.6156
H12 H 0.4034 0.4756 0.4059
H13 H 0.3370 0.4691 0.2594
H16 H 0.2944 0.5267 0.0862
N3 N 0.1277(3) 0.3727(4) 0.5240(7)
N4 N 0.2057(3) 0.2939(4) 0.1426(7)
Cu1_2 Cu 0.5000 1.0000 1.0000
O1_2 O 0.4289(2) 0.9682(2) 0.8608(6)
C1_2 C 0.3802(2) 0.9238(3) 0.9012(7)
C2 C 0.3323(2) 0.9078(3) 0.7738(7)
C3 C 0.3449(3) 0.9275(4) 0.6074(8)
C4 C 0.3010(3) 0.9077(4) 0.4874(8)
N1 N 0.2451(3) 0.8723(3) 0.5240(7)
C5 C 0.2330(3) 0.8556(4) 0.6865(8)
C6 C 0.2742(3) 0.8710(3) 0.8130(8)
H1 H 0.3839 0.9541 0.5736
H2 H 0.3107 0.9213 0.3727
H3 H 0.1936 0.8296 0.7177
H4 H 0.2633 0.8577 0.9274
N4_2 N 0.5390(3) 0.9606(4) 0.8093(7)
H6_2 H 0.4823 0.2423 0.0287
H7_2 H 0.4821 0.1817 0.0394
C12_2 C 0.2609(4) 0.2493(5) 0.0592(8)
C13_3 C 0.2411(4) 0.2734(5) 0.1792(8)
H9_2 H 0.2875 0.2369 0.0930
H10_3 H 0.2547 0.2773 0.2939
Cu1_3 Cu 0.6666 0.8333 0.3334
O1_3 O 0.6984(2) 0.7940(3) 0.1942(6)
C1_3 C 0.7428(3) 0.7897(4) 0.2346(7)
C2_2 C 0.7588(3) 0.7578(4) 0.1072(7)
C5_2 C 0.8110(4) 0.7107(5) 0.0199(8)
C6_2 C 0.7956(3) 0.7365(4) 0.1464(8)
C7_2 C 0.7768(4) 0.8130(5) 0.3784(9)
C8_2 C 0.7749(3) 0.8537(4) 0.4914(9)
O2_2 O 0.7377(2) 0.8695(3) 0.4872(7)
C9_2 C 0.8207(4) 0.8802(6) 0.6299(12)
H3_2 H 0.8370 0.6973 0.0511
H4_2 H 0.8089 0.7389 0.2608
H5 H 0.8024 0.7988 0.4073
H6_3 H 0.8156 0.9090 0.6954
H7_3 H 0.8154 0.8484 0.7061
H8_2 H 0.8600 0.8990 0.5805
O3_2 O 0.6349(2) 0.8727(3) 0.4725(6)
C10_2 C 0.5905(3) 0.8770(4) 0.4321(7)
C11_2 C 0.5745(3) 0.9089(4) 0.5595(7)
C12_3 C 0.5942(4) 0.9160(5) 0.7259(8)
C13_4 C 0.5744(4) 0.9401(5) 0.8459(8)
C14_2 C 0.5223(4) 0.9560(5) 0.6468(8)
C15_2 C 0.5377(3) 0.9302(4) 0.5203(8)
C16_2 C 0.5565(4) 0.8537(5) 0.2883(9)
C17_2 C 0.5584(3) 0.8130(4) 0.1753(9)
O4_2 O 0.5956(2) 0.7972(3) 0.1795(7)
C18_2 C 0.5126(4) 0.7865(6) 0.0368(12)
H9_3 H 0.6208 0.9036 0.7597
H10_4 H 0.5880 0.9440 0.9606
H11_2 H 0.4963 0.9694 0.6156
H12_2 H 0.5244 0.9278 0.4059
H13_2 H 0.5309 0.8679 0.2594
H16_2 H 0.4733 0.7677 0.0862
N3_2 N 0.6273(4) 0.7549(5) 0.5240(7)
N4_3 N 0.7061(4) 0.9117(5) 0.1426(7)
Cu1_4 Cu -0.0000 0.4999 1.0000
O1_4 O 0.0318(2) 0.4606(3) 0.8608(6)
C1_4 C 0.0762(3) 0.4563(4) 0.9012(7)
C2_3 C 0.0922(3) 0.4244(4) 0.7738(7)
C3_2 C 0.0725(4) 0.4173(5) 0.6074(8)
C4_2 C 0.0923(4) 0.3932(5) 0.4874(8)
C5_3 C 0.1444(4) 0.3773(5) 0.6865(8)
C6_3 C 0.1290(3) 0.4031(4) 0.8130(8)
H1_2 H 0.0459 0.4297 0.5736
H2_2 H 0.0787 0.3893 0.3727
H3_3 H 0.1704 0.3639 0.7177
H4_3 H 0.1423 0.4055 0.9274
N4_4 N 0.0394(4) 0.5784(5) 0.8093(7)
C13_5 C 0.7266(5) 0.9676(3) 0.1792(8)
H10_5 H 0.7227 0.9773 0.2939
O1_5 O 0.2060(3) 0.9045(2) 0.1942(6)
C1_5 C 0.2103(4) 0.9532(2) 0.2346(7)
C7_3 C 0.1870(5) 0.9639(3) 0.3784(9)
C8_3 C 0.1463(4) 0.9213(3) 0.4914(9)
O2_3 O 0.1305(3) 0.8683(2) 0.4872(7)
C9_3 C 0.1198(6) 0.9406(4) 0.6299(12)
H6_4 H 0.0910 0.9067 0.6954
H7_4 H 0.1516 0.9671 0.7061
H8_3 H 0.1010 0.9611 0.5805
O3_3 O 0.1273(3) 0.7622(2) 0.4725(6)
C10_3 C 0.1230(4) 0.7135(2) 0.4321(7)
C11_3 C 0.0911(4) 0.6656(2) 0.5595(7)
C12_4 C 0.0840(5) 0.6782(3) 0.7259(8)
C13_6 C 0.0599(5) 0.6343(3) 0.8459(8)
C14_3 C 0.0440(5) 0.5663(3) 0.6468(8)
C15_3 C 0.0698(4) 0.6075(3) 0.5203(8)
C16_3 C 0.1463(5) 0.7028(3) 0.2883(9)
C17_3 C 0.1870(4) 0.7454(3) 0.1753(9)
O4_3 O 0.2028(3) 0.7984(2) 0.1795(7)
C18_3 C 0.2135(6) 0.7261(4) 0.0368(12)
H9_4 H 0.0964 0.7172 0.7597
H10_6 H 0.0560 0.6440 0.9606
H11_3 H 0.0306 0.5269 0.6156
H12_3 H 0.0722 0.5966 0.4059
H13_3 H 0.1321 0.6630 0.2594
H16_3 H 0.2323 0.7056 0.0862
O1_6 O 0.5394(3) 0.5711(2) 0.8608(6)
C1_6 C 0.5437(4) 0.6198(2) 0.9012(7)
C2_4 C 0.5756(4) 0.6677(2) 0.7738(7)
C3_3 C 0.5827(5) 0.6551(3) 0.6074(8)
C4_3 C 0.6068(5) 0.6990(3) 0.4874(8)
C5_4 C 0.6227(5) 0.7670(3) 0.6865(8)
C6_4 C 0.5969(4) 0.7258(3) 0.8130(8)
H1_3 H 0.5703 0.6161 0.5736
H2_3 H 0.6107 0.6893 0.3727
H3_4 H 0.6361 0.8064 0.7177
H4_4 H 0.5945 0.7367 0.9274
C16_4 C 0.4796(5) 0.3695(3) 0.9550(9)
C17_4 C 0.5203(4) 0.4121(3) 0.8420(9)
O4_4 O 0.5361(3) 0.4651(2) 0.8462(7)
C18_4 C 0.5468(6) 0.3928(4) 0.7035(12)
H13_4 H 0.4654 0.3297 0.9261
H14 H 0.5756 0.4267 0.6380
H15 H 0.5150 0.3663 0.6273
H16_4 H 0.5656 0.3723 0.7529
C11_4 C 0.0011(2) 0.7588(3) 0.8928(7)
C14_4 C 0.1004(3) 0.8110(4) 0.9801(8)
C15_4 C 0.0592(3) 0.7956(3) 0.8536(8)
H11_4 H 0.1398 0.8370 0.9489
H12_4 H 0.0701 0.8089 0.7392
H13_5 H 0.0037 0.8024 0.5927
H6_5 H 0.7600 0.5177 0.0287
H7_5 H 0.6996 0.5179 0.0394
C12_5 C 0.9885(3) 0.7391(4) 0.0592(8)
H9_5 H 0.9495 0.7125 0.0930
Cu1_5 Cu 0.8333 0.6667 0.6667
O1_7 O 0.7622(2) 0.6349(2) 0.5275(6)
C1_7 C 0.7135(2) 0.5905(3) 0.5679(7)
C2_5 C 0.6656(2) 0.5745(3) 0.4405(7)
C3_4 C 0.6782(3) 0.5942(4) 0.2741(8)
C4_4 C 0.6343(3) 0.5744(4) 0.1541(8)
N1_2 N 0.5784(3) 0.5390(3) 0.1907(7)
C5_5 C 0.5663(3) 0.5223(4) 0.3532(8)
C6_5 C 0.6075(3) 0.5377(3) 0.4797(8)
C7_4 C 0.7028(3) 0.5565(4) 0.7117(9)
C8_4 C 0.7454(3) 0.5584(3) 0.8247(9)
O2_4 O 0.7984(2) 0.5956(2) 0.8205(7)
C9_4 C 0.7261(4) 0.5126(4) 0.9632(12)
H1_4 H 0.7172 0.6208 0.2403
H2_4 H 0.6440 0.5880 0.0394
H3_5 H 0.5269 0.4963 0.3844
H4_5 H 0.5966 0.5244 0.5941
H5_2 H 0.6630 0.5309 0.7406
H8_4 H 0.7056 0.4733 0.9138
O3_4 O 0.9045(2) 0.6984(2) 0.8058(6)
C10_4 C 0.9532(2) 0.7428(3) 0.7654(7)
C16_5 C 0.9639(3) 0.7768(4) 0.6216(9)
C17_5 C 0.9213(3) 0.7749(3) 0.5086(9)
O4_5 O 0.8683(2) 0.7377(2) 0.5128(7)
C18_5 C 0.9406(4) 0.8207(4) 0.3701(12)
H14_2 H 0.9067 0.8156 0.3046
H15_2 H 0.9671 0.8154 0.2939
H16_5 H 0.9611 0.8600 0.4195
Cu3_2 Cu 0.4999 0.5000 -0.0000
N3_3 N 0.7943(3) 0.7061(4) 0.8574(7)
N4_5 N 0.8723(3) 0.6273(4) 0.4760(7)
C4_5 C 0.9676(3) 0.2411(4) 0.8208(8)
N1_3 N 0.9117(3) 0.2057(3) 0.8574(7)
H2_5 H 0.9773 0.2547 0.7061
Cu3_3 Cu 0.8333 0.1666 0.6666
Cu1_6 Cu 0.5000 0.0000 0.0000
O3_5 O 0.5711(2) 0.0318(2) 0.1392(6)
C10_5 C 0.6198(2) 0.0762(3) 0.0988(7)
C11_5 C 0.6677(2) 0.0922(3) 0.2262(7)
C12_6 C 0.6551(3) 0.0725(4) 0.3926(8)
C13_7 C 0.6990(3) 0.0923(4) 0.5126(8)
N2_3 N 0.7549(3) 0.1277(3) 0.4760(7)
C14_5 C 0.7670(3) 0.1444(4) 0.3135(8)
C15_5 C 0.7258(3) 0.1290(3) 0.1870(8)
H9_6 H 0.6161 0.0459 0.4264
H10_7 H 0.6893 0.0787 0.6273
H11_5 H 0.8064 0.1704 0.2823
H12_5 H 0.7367 0.1423 0.0726
N3_4 N 0.4610(3) 0.0394(4) 0.1907(7)
Cu1_7 Cu 0.3333 0.1666 0.6667
O1_8 O 0.3651(2) 0.1273(3) 0.5275(6)
C1_8 C 0.4095(3) 0.1230(4) 0.5679(7)
C2_6 C 0.4255(3) 0.0911(4) 0.4405(7)
C3_5 C 0.4058(4) 0.0840(5) 0.2741(8)
C4_6 C 0.4256(4) 0.0599(5) 0.1541(8)
C5_6 C 0.4777(4) 0.0440(5) 0.3532(8)
C6_6 C 0.4623(3) 0.0698(4) 0.4797(8)
C7_5 C 0.4435(4) 0.1463(5) 0.7117(9)
C8_5 C 0.4416(3) 0.1870(4) 0.8247(9)
O2_5 O 0.4044(2) 0.2028(3) 0.8205(7)
C9_5 C 0.4874(4) 0.2135(6) 0.9632(12)
H1_5 H 0.3792 0.0964 0.2403
H2_6 H 0.4120 0.0560 0.0394
H3_6 H 0.5037 0.0306 0.3844
H4_6 H 0.4756 0.0722 0.5941
H5_3 H 0.4691 0.1321 0.7406
H8_5 H 0.5267 0.2323 0.9138
O3_6 O 0.3016(2) 0.2060(3) 0.8058(6)
C10_6 C 0.2572(3) 0.2103(4) 0.7654(7)
C11_6 C 0.2412(3) 0.2422(4) 0.8928(7)
C14_6 C 0.1890(4) 0.2893(5) 0.9801(8)
C15_6 C 0.2044(3) 0.2635(4) 0.8536(8)
C16_6 C 0.2232(4) 0.1870(5) 0.6216(9)
C17_6 C 0.2251(3) 0.1463(4) 0.5086(9)
O4_6 O 0.2623(2) 0.1305(3) 0.5128(7)
C18_6 C 0.1793(4) 0.1198(6) 0.3701(12)
H11_6 H 0.1630 0.3027 0.9489
H12_6 H 0.1911 0.2611 0.7392
H13_6 H 0.1976 0.2012 0.5927
H14_3 H 0.1844 0.0910 0.3046
H15_3 H 0.1846 0.1516 0.2939
H16_6 H 0.1400 0.1010 0.4195
N3_5 N 0.2939(4) 0.0883(5) 0.8574(7)
N4_6 N 0.3727(4) 0.2451(5) 0.4760(7)
C3_6 C 0.7391(4) 0.7507(5) 0.9408(8)
C4_7 C 0.7589(4) 0.7266(5) 0.8208(8)
H1_6 H 0.7125 0.7631 0.9070
H2_7 H 0.7453 0.7227 0.7061
H14_4 H 0.5177 0.7577 0.9713
H15_4 H 0.5179 0.8183 0.9606
Cu1_8 Cu 1.0000 0.4999 0.0000
O3_7 O 0.9682(2) 0.5394(3) 0.1392(6)
C10_7 C 0.9238(3) 0.5437(4) 0.0988(7)
C11_7 C 0.9078(3) 0.5756(4) 0.2262(7)
C12_7 C 0.9275(4) 0.5827(5) 0.3926(8)
C13_8 C 0.9077(4) 0.6068(5) 0.5126(8)
C14_7 C 0.8556(4) 0.6227(5) 0.3135(8)
C15_7 C 0.8710(3) 0.5969(4) 0.1870(8)
H9_7 H 0.9541 0.5703 0.4264
H10_8 H 0.9213 0.6107 0.6273
H11_7 H 0.8296 0.6361 0.2823
H12_7 H 0.8577 0.5945 0.0726
N3_6 N 0.9606(4) 0.4216(5) 0.1907(7)
O1_9 O 0.8727(3) 0.2378(2) 0.5275(6)
C1_9 C 0.8770(4) 0.2865(2) 0.5679(7)
C2_7 C 0.9089(4) 0.3344(2) 0.4405(7)
C3_7 C 0.9160(5) 0.3218(3) 0.2741(8)
C4_8 C 0.9401(5) 0.3657(3) 0.1541(8)
C5_7 C 0.9560(5) 0.4337(3) 0.3532(8)
C6_7 C 0.9302(4) 0.3925(3) 0.4797(8)
C7_6 C 0.8537(5) 0.2972(3) 0.7117(9)
C8_6 C 0.8130(4) 0.2546(3) 0.8247(9)
O2_6 O 0.7972(3) 0.2016(2) 0.8205(7)
C9_6 C 0.7865(6) 0.2739(4) 0.9632(12)
H1_7 H 0.9036 0.2828 0.2403
H2_8 H 0.9440 0.3560 0.0394
H3_7 H 0.9694 0.4731 0.3844
H4_7 H 0.9278 0.4034 0.5941
H5_4 H 0.8679 0.3370 0.7406
H8_6 H 0.7677 0.2944 0.9138
O3_8 O 0.7940(3) 0.0955(2) 0.8058(6)
C10_8 C 0.7897(4) 0.0468(2) 0.7654(7)
C16_7 C 0.8130(5) 0.0361(3) 0.6216(9)
C17_7 C 0.8537(4) 0.0787(3) 0.5086(9)
O4_7 O 0.8695(3) 0.1317(2) 0.5128(7)
C18_7 C 0.8802(6) 0.0594(4) 0.3701(12)
H14_5 H 0.9090 0.0933 0.3046
H15_5 H 0.8484 0.0329 0.2939
H16_7 H 0.8990 0.0389 0.4195
C4_9 C 0.2734(5) 0.0324(3) 0.8208(8)
H2_9 H 0.2773 0.0227 0.7061
C7_7 C 0.5204(5) 0.6305(3) 0.0450(9)
C8_7 C 0.4797(4) 0.5879(3) 0.1580(9)
O2_7 O 0.4639(3) 0.5349(2) 0.1538(7)
C9_7 C 0.4532(6) 0.6072(4) 0.2965(12)
H5_5 H 0.5346 0.6703 0.0739
H6_6 H 0.4244 0.5733 0.3620
H7_6 H 0.4850 0.6337 0.3727
H8_7 H 0.4344 0.6277 0.2471
O3_9 O 0.4606(3) 0.4289(2) 0.1392(6)
C10_9 C 0.4563(4) 0.3802(2) 0.0988(7)
C11_8 C 0.4244(4) 0.3323(2) 0.2262(7)
C12_8 C 0.4173(5) 0.3449(3) 0.3926(8)
C13_9 C 0.3932(5) 0.3010(3) 0.5126(8)
C14_8 C 0.3773(5) 0.2330(3) 0.3135(8)
C15_8 C 0.4031(4) 0.2742(3) 0.1870(8)
H9_8 H 0.4297 0.3839 0.4264
H10_9 H 0.3893 0.3107 0.6273
H11_8 H 0.3639 0.1936 0.2823
H12_8 H 0.4055 0.2633 0.0726
C3_8 C 0.0115(3) 0.2609(4) 0.9408(8)
H1_8 H 0.0505 0.2875 0.9070
H14_6 H 0.2400 0.4823 0.9713
H15_6 H 0.3004 0.4821 0.9606
C2_8 C 0.9989(2) 0.2412(3) 0.1072(7)
C5_8 C 0.8996(3) 0.1890(4) 0.0199(8)
C6_8 C 0.9408(3) 0.2044(3) 0.1464(8)
H3_8 H 0.8602 0.1630 0.0511
H4_8 H 0.9299 0.1911 0.2608
H5_6 H 0.9963 0.1976 0.4073
Cu1_9 Cu 0.5000 0.0000 1.0000
C16_8 C 0.6305(3) 0.1102(4) 0.9550(9)
C17_8 C 0.5879(3) 0.1083(3) 0.8420(9)
O4_8 O 0.5349(2) 0.0711(2) 0.8462(7)
C18_8 C 0.6072(4) 0.1541(4) 0.7035(12)
H13_7 H 0.6703 0.1358 0.9261
H14_7 H 0.5733 0.1490 0.6380
H15_7 H 0.6337 0.1488 0.6273
H16_8 H 0.6277 0.1934 0.7529
Cu1_10 Cu 0.5000 1.0000 0.0000
C7_8 C 0.3695(3) 0.8898(4) 0.0450(9)
C8_8 C 0.4121(3) 0.8917(3) 0.1580(9)
O2_8 O 0.4651(2) 0.9289(2) 0.1538(7)
C9_8 C 0.3928(4) 0.8459(4) 0.2965(12)
H5_7 H 0.3297 0.8642 0.0739
H6_7 H 0.4267 0.8510 0.3620
H7_7 H 0.3663 0.8512 0.3727
H8_8 H 0.3723 0.8066 0.2471
Cu1_11 Cu -0.0000 0.4999 0.0000
C7_9 C 0.1102(4) 0.4796(5) 0.0450(9)
C8_9 C 0.1083(3) 0.5203(4) 0.1580(9)
O2_9 O 0.0711(2) 0.5361(3) 0.1538(7)
C9_9 C 0.1541(4) 0.5468(6) 0.2965(12)
H5_8 H 0.1358 0.4654 0.0739
H6_8 H 0.1490 0.5756 0.3620
H7_8 H 0.1488 0.5150 0.3727
H8_9 H 0.1934 0.5656 0.2471
Cu1_12 Cu 1.0000 0.4999 1.0000
C16_9 C 0.8898(4) 0.5204(5) 0.9550(9)
C17_9 C 0.8917(3) 0.4797(4) 0.8420(9)
O4_9 O 0.9289(2) 0.4639(3) 0.8462(7)
C18_9 C 0.8459(4) 0.4532(6) 0.7035(12)
H13_8 H 0.8642 0.5346 0.9261
H14_8 H 0.8510 0.4244 0.6380
H15_8 H 0.8512 0.4850 0.6273
H16_9 H 0.8066 0.4344 0.7529
H6_9 H 0.7577 0.2400 0.0287
H7_9 H 0.8183 0.3004 0.0394
C12_9 C 0.7507(5) 0.0115(3) 0.0592(8)
H9_9 H 0.7631 0.0505 0.0930
C11_9 C 0.7578(4) 0.9989(2) 0.8928(7)
C14_9 C 0.7107(5) 0.8996(3) 0.9801(8)
C15_9 C 0.7365(4) 0.9408(3) 0.8536(8)
H11_9 H 0.6973 0.8602 0.9489
H12_9 H 0.7389 0.9299 0.7392
H13_9 H 0.7988 0.9963 0.5927
C2_9 C 0.2422(4) 0.0011(2) 0.1072(7)
C5_9 C 0.2893(5) 0.1004(3) 0.0199(8)
C6_9 C 0.2635(4) 0.0592(3) 0.1464(8)
H3_9 H 0.3027 0.1398 0.0511
H4_9 H 0.2611 0.0701 0.2608
H5_9 H 0.2012 0.0037 0.4073
C3_9 C 0.2493(5) 0.9885(3) 0.9408(8)
H1_9 H 0.2369 0.9495 0.9070
H14_9 H 0.2423 0.7600 0.9713
H15_9 H 0.1817 0.6996 0.9606
loop_
_geom_bond_atom_site_label_1
_geom_bond_atom_site_label_2
_geom_bond_site_symmetry_1
_geom_bond_site_symmetry_2
N2 C13 1_555 1_555
H10 C13 1_555 1_555
Cu2 N2 1_555 1_555
Cu1 O1 1_555 1_555
O1 C1 1_555 1_555
C7 C1 1_555 1_555
C8 C7 1_555 1_555
O2 Cu1 1_555 1_555
C9 C8 1_555 1_555
H6 C9 1_555 1_555
H7 C9 1_555 1_555
H8 C9 1_555 1_555
O3 Cu1 1_555 1_555
C10 O3 1_555 1_555
C11 C10 1_555 1_555
C12 C11 1_555 1_555
C13_2 C12 1_555 1_555
N2_2 C13_2 1_555 1_555
C14 N2_2 1_555 1_555
C15 C11 1_555 1_555
C16 C10 1_555 1_555
C17 C16 1_555 1_555
O4 Cu1 1_555 1_555
C18 C17 1_555 1_555
H9 C12 1_555 1_555
H10_2 C13_2 1_555 1_555
H11 C14 1_555 1_555
H12 C15 1_555 1_555
H13 C16 1_555 1_555
H16 C18 1_555 1_555
Cu3 N2_2 1_555 1_555
N3 Cu1 1_555 1_555
N4 Cu1 1_555 1_555
C8 O2 1_555 1_555
C14 C15 1_555 1_555
C17 O4 1_555 1_555
Cu1_2 O1_2 1_555 1_555
O1_2 C1_2 1_555 1_555
C1_2 C2 1_555 1_555
C2 C3 1_555 1_555
C3 C4 1_555 1_555
C4 N1 1_555 1_555
N1 C5 1_555 1_555
C5 C6 1_555 1_555
C6 C2 1_555 1_555
H1 C3 1_555 1_555
H2 C4 1_555 1_555
H3 C5 1_555 1_555
H4 C6 1_555 1_555
Cu2 N1 1_555 1_555
N4_2 Cu1_2 1_555 1_555
C13_3 C12_2 1_555 1_555
N4 C13_3 1_555 1_555
H9_2 C12_2 1_555 1_555
H10_3 C13_3 1_555 1_555
Cu1_3 O1_3 1_555 1_555
O1_3 C1_3 1_555 1_555
C1_3 C2_2 1_555 1_555
C5_2 C6_2 1_555 1_555
C6_2 C2_2 1_555 1_555
C7_2 C1_3 1_555 1_555
C8_2 C7_2 1_555 1_555
O2_2 Cu1_3 1_555 1_555
C9_2 C8_2 1_555 1_555
H3_2 C5_2 1_555 1_555
H4_2 C6_2 1_555 1_555
H5 C7_2 1_555 1_555
H6_3 C9_2 1_555 1_555
H7_3 C9_2 1_555 1_555
H8_2 C9_2 1_555 1_555
O3_2 Cu1_3 1_555 1_555
C10_2 O3_2 1_555 1_555
C11_2 C10_2 1_555 1_555
C12_3 C11_2 1_555 1_555
C13_4 C12_3 1_555 1_555
N4_2 C13_4 1_555 1_555
C14_2 N4_2 1_555 1_555
C15_2 C11_2 1_555 1_555
C16_2 C10_2 1_555 1_555
C17_2 C16_2 1_555 1_555
O4_2 Cu1_3 1_555 1_555
C18_2 C17_2 1_555 1_555
H9_3 C12_3 1_555 1_555
H10_4 C13_4 1_555 1_555
H11_2 C14_2 1_555 1_555
H12_2 C15_2 1_555 1_555
H13_2 C16_2 1_555 1_555
H16_2 C18_2 1_555 1_555
N3_2 Cu1_3 1_555 1_555
N4_3 Cu1_3 1_555 1_555
C8_2 O2_2 1_555 1_555
C14_2 C15_2 1_555 1_555
C17_2 O4_2 1_555 1_555
Cu1_4 O1_4 1_555 1_555
O1_4 C1_4 1_555 1_555
C1_4 C2_3 1_555 1_555
C2_3 C3_2 1_555 1_555
C3_2 C4_2 1_555 1_555
C4_2 N3 1_555 1_555
N3 C5_3 1_555 1_555
C5_3 C6_3 1_555 1_555
C6_3 C2_3 1_555 1_555
H1_2 C3_2 1_555 1_555
H2_2 C4_2 1_555 1_555
H3_3 C5_3 1_555 1_555
H4_3 C6_3 1_555 1_555
N4_4 Cu1_4 1_555 1_555
N4_3 C13_5 1_555 1_555
H10_5 C13_5 1_555 1_555
Cu2 O1_5 1_555 1_555
O1_5 C1_5 1_555 1_555
C7_3 C1_5 1_555 1_555
C8_3 C7_3 1_555 1_555
O2_3 Cu2 1_555 1_555
C9_3 C8_3 1_555 1_555
H6_4 C9_3 1_555 1_555
H7_4 C9_3 1_555 1_555
H8_3 C9_3 1_555 1_555
O3_3 Cu2 1_555 1_555
C10_3 O3_3 1_555 1_555
C11_3 C10_3 1_555 1_555
C12_4 C11_3 1_555 1_555
C13_6 C12_4 1_555 1_555
N4_4 C13_6 1_555 1_555
C14_3 N4_4 1_555 1_555
C15_3 C11_3 1_555 1_555
C16_3 C10_3 1_555 1_555
C17_3 C16_3 1_555 1_555
O4_3 Cu2 1_555 1_555
C18_3 C17_3 1_555 1_555
H9_4 C12_4 1_555 1_555
H10_6 C13_6 1_555 1_555
H11_3 C14_3 1_555 1_555
H12_3 C15_3 1_555 1_555
H13_3 C16_3 1_555 1_555
H16_3 C18_3 1_555 1_555
C8_3 O2_3 1_555 1_555
C14_3 C15_3 1_555 1_555
C17_3 O4_3 1_555 1_555
Cu3 O1_6 1_555 1_555
O1_6 C1_6 1_555 1_555
C1_6 C2_4 1_555 1_555
C2_4 C3_3 1_555 1_555
C3_3 C4_3 1_555 1_555
C4_3 N3_2 1_555 1_555
N3_2 C5_4 1_555 1_555
C5_4 C6_4 1_555 1_555
C6_4 C2_4 1_555 1_555
H1_3 C3_3 1_555 1_555
H2_3 C4_3 1_555 1_555
H3_4 C5_4 1_555 1_555
H4_4 C6_4 1_555 1_555
C17_4 C16_4 1_555 1_555
O4_4 Cu3 1_555 1_555
C18_4 C17_4 1_555 1_555
H13_4 C16_4 1_555 1_555
H14 C18_4 1_555 1_555
H15 C18_4 1_555 1_555
H16_4 C18_4 1_555 1_555
C17_4 O4_4 1_555 1_555
C15_4 C11_4 1_555 1_555
H11_4 C14_4 1_555 1_555
H12_4 C15_4 1_555 1_555
C14_4 C15_4 1_555 1_555
H9_5 C12_5 1_555 1_555
Cu1_5 O1_7 1_555 1_555
O1_7 C1_7 1_555 1_555
C1_7 C2_5 1_555 1_555
C2_5 C3_4 1_555 1_555
C3_4 C4_4 1_555 1_555
C4_4 N1_2 1_555 1_555
N1_2 C5_5 1_555 1_555
C5_5 C6_5 1_555 1_555
C6_5 C2_5 1_555 1_555
C7_4 C1_7 1_555 1_555
C8_4 C7_4 1_555 1_555
O2_4 Cu1_5 1_555 1_555
C9_4 C8_4 1_555 1_555
H1_4 C3_4 1_555 1_555
H2_4 C4_4 1_555 1_555
H3_5 C5_5 1_555 1_555
H4_5 C6_5 1_555 1_555
H5_2 C7_4 1_555 1_555
H8_4 C9_4 1_555 1_555
O3_4 Cu1_5 1_555 1_555
C10_4 O3_4 1_555 1_555
C16_5 C10_4 1_555 1_555
C17_5 C16_5 1_555 1_555
O4_5 Cu1_5 1_555 1_555
C18_5 C17_5 1_555 1_555
H14_2 C18_5 1_555 1_555
H15_2 C18_5 1_555 1_555
H16_5 C18_5 1_555 1_555
Cu3_2 N1_2 1_555 1_555
N3_3 Cu1_5 1_555 1_555
N4_5 Cu1_5 1_555 1_555
C8_4 O2_4 1_555 1_555
C17_5 O4_5 1_555 1_555
C4_5 N1_3 1_555 1_555
H2_5 C4_5 1_555 1_555
Cu3_3 N1_3 1_555 1_555
O3_5 Cu1_6 1_555 1_555
C10_5 O3_5 1_555 1_555
C11_5 C10_5 1_555 1_555
C12_6 C11_5 1_555 1_555
C13_7 C12_6 1_555 1_555
N2_3 C13_7 1_555 1_555
C14_5 N2_3 1_555 1_555
C15_5 C11_5 1_555 1_555
H9_6 C12_6 1_555 1_555
H10_7 C13_7 1_555 1_555
H11_5 C14_5 1_555 1_555
H12_5 C15_5 1_555 1_555
Cu3_3 N2_3 1_555 1_555
N3_4 Cu1_6 1_555 1_555
C14_5 C15_5 1_555 1_555
Cu1_7 O1_8 1_555 1_555
O1_8 C1_8 1_555 1_555
C1_8 C2_6 1_555 1_555
C2_6 C3_5 1_555 1_555
C3_5 C4_6 1_555 1_555
C4_6 N3_4 1_555 1_555
N3_4 C5_6 1_555 1_555
C5_6 C6_6 1_555 1_555
C6_6 C2_6 1_555 1_555
C7_5 C1_8 1_555 1_555
C8_5 C7_5 1_555 1_555
O2_5 Cu1_7 1_555 1_555
C9_5 C8_5 1_555 1_555
H1_5 C3_5 1_555 1_555
H2_6 C4_6 1_555 1_555
H3_6 C5_6 1_555 1_555
H4_6 C6_6 1_555 1_555
H5_3 C7_5 1_555 1_555
H8_5 C9_5 1_555 1_555
O3_6 Cu1_7 1_555 1_555
C10_6 O3_6 1_555 1_555
C11_6 C10_6 1_555 1_555
C15_6 C11_6 1_555 1_555
C16_6 C10_6 1_555 1_555
C17_6 C16_6 1_555 1_555
O4_6 Cu1_7 1_555 1_555
C18_6 C17_6 1_555 1_555
H11_6 C14_6 1_555 1_555
H12_6 C15_6 1_555 1_555
H13_6 C16_6 1_555 1_555
H14_3 C18_6 1_555 1_555
H15_3 C18_6 1_555 1_555
H16_6 C18_6 1_555 1_555
N3_5 Cu1_7 1_555 1_555
N4_6 Cu1_7 1_555 1_555
C8_5 O2_5 1_555 1_555
C14_6 C15_6 1_555 1_555
C17_6 O4_6 1_555 1_555
C3_6 C4_7 1_555 1_555
C4_7 N3_3 1_555 1_555
H1_6 C3_6 1_555 1_555
H2_7 C4_7 1_555 1_555
O3_7 Cu1_8 1_555 1_555
C10_7 O3_7 1_555 1_555
C11_7 C10_7 1_555 1_555
C12_7 C11_7 1_555 1_555
C13_8 C12_7 1_555 1_555
N4_5 C13_8 1_555 1_555
C14_7 N4_5 1_555 1_555
C15_7 C11_7 1_555 1_555
H9_7 C12_7 1_555 1_555
H10_8 C13_8 1_555 1_555
H11_7 C14_7 1_555 1_555
H12_7 C15_7 1_555 1_555
N3_6 Cu1_8 1_555 1_555
C14_7 C15_7 1_555 1_555
Cu3_3 O1_9 1_555 1_555
O1_9 C1_9 1_555 1_555
C1_9 C2_7 1_555 1_555
C2_7 C3_7 1_555 1_555
C3_7 C4_8 1_555 1_555
C4_8 N3_6 1_555 1_555
N3_6 C5_7 1_555 1_555
C5_7 C6_7 1_555 1_555
C6_7 C2_7 1_555 1_555
C7_6 C1_9 1_555 1_555
C8_6 C7_6 1_555 1_555
O2_6 Cu3_3 1_555 1_555
C9_6 C8_6 1_555 1_555
H1_7 C3_7 1_555 1_555
H2_8 C4_8 1_555 1_555
H3_7 C5_7 1_555 1_555
H4_7 C6_7 1_555 1_555
H5_4 C7_6 1_555 1_555
H8_6 C9_6 1_555 1_555
O3_8 Cu3_3 1_555 1_555
C10_8 O3_8 1_555 1_555
C16_7 C10_8 1_555 1_555
C17_7 C16_7 1_555 1_555
O4_7 Cu3_3 1_555 1_555
C18_7 C17_7 1_555 1_555
H14_5 C18_7 1_555 1_555
H15_5 C18_7 1_555 1_555
H16_7 C18_7 1_555 1_555
C8_6 O2_6 1_555 1_555
C17_7 O4_7 1_555 1_555
C4_9 N3_5 1_555 1_555
H2_9 C4_9 1_555 1_555
C8_7 C7_7 1_555 1_555
O2_7 Cu3_2 1_555 1_555
C9_7 C8_7 1_555 1_555
H5_5 C7_7 1_555 1_555
H6_6 C9_7 1_555 1_555
H7_6 C9_7 1_555 1_555
H8_7 C9_7 1_555 1_555
O3_9 Cu3_2 1_555 1_555
C10_9 O3_9 1_555 1_555
C11_8 C10_9 1_555 1_555
C12_8 C11_8 1_555 1_555
C13_9 C12_8 1_555 1_555
N4_6 C13_9 1_555 1_555
C14_8 N4_6 1_555 1_555
C15_8 C11_8 1_555 1_555
H9_8 C12_8 1_555 1_555
H10_9 C13_9 1_555 1_555
H11_8 C14_8 1_555 1_555
H12_8 C15_8 1_555 1_555
C8_7 O2_7 1_555 1_555
C14_8 C15_8 1_555 1_555
H1_8 C3_8 1_555 1_555
C5_8 C6_8 1_555 1_555
C6_8 C2_8 1_555 1_555
H3_8 C5_8 1_555 1_555
H4_8 C6_8 1_555 1_555
C17_8 C16_8 1_555 1_555
O4_8 Cu1_9 1_555 1_555
C18_8 C17_8 1_555 1_555
H13_7 C16_8 1_555 1_555
H14_7 C18_8 1_555 1_555
H15_7 C18_8 1_555 1_555
H16_8 C18_8 1_555 1_555
C17_8 O4_8 1_555 1_555
C8_8 C7_8 1_555 1_555
O2_8 Cu1_10 1_555 1_555
C9_8 C8_8 1_555 1_555
H5_7 C7_8 1_555 1_555
H6_7 C9_8 1_555 1_555
H7_7 C9_8 1_555 1_555
H8_8 C9_8 1_555 1_555
C8_8 O2_8 1_555 1_555
C8_9 C7_9 1_555 1_555
O2_9 Cu1_11 1_555 1_555
C9_9 C8_9 1_555 1_555
H5_8 C7_9 1_555 1_555
H6_8 C9_9 1_555 1_555
H7_8 C9_9 1_555 1_555
H8_9 C9_9 1_555 1_555
C8_9 O2_9 1_555 1_555
C17_9 C16_9 1_555 1_555
O4_9 Cu1_12 1_555 1_555
C18_9 C17_9 1_555 1_555
H13_8 C16_9 1_555 1_555
H14_8 C18_9 1_555 1_555
H15_8 C18_9 1_555 1_555
H16_9 C18_9 1_555 1_555
C17_9 O4_9 1_555 1_555
H9_9 C12_9 1_555 1_555
C15_9 C11_9 1_555 1_555
H11_9 C14_9 1_555 1_555
H12_9 C15_9 1_555 1_555
C14_9 C15_9 1_555 1_555
C5_9 C6_9 1_555 1_555
C6_9 C2_9 1_555 1_555
H3_9 C5_9 1_555 1_555
H4_9 C6_9 1_555 1_555
H1_9 C3_9 1_555 1_555

#END
