
###############################################################################
#
# This file contains modified crystal structure data generated from the
# MOF subset of the Cambridge Structural Database (CSD) v543 
# hosted by the Cambridge Crystallographic Data Centre (CCDC).
#
# This work is licensed under the Creative Commons
# Attribution-NonCommercial-ShareAlike 4.0 International License.
# To view a copy of this license, visit
# http://creativecommons.org/licenses/by-nc-sa/4.0/
# or send a letter to
# Creative Commons, PO Box 1866, Mountain View, CA 94042, USA.
#
# CIF created using the CSD Python API on 29 September 2022
# The structure has been converted into the P1 space group
# The structure has a 3D framework
# The original CSD entry ECAHIB is in the rhombohedral crystal system
# The framework has been calculated to contain at least 10.0% void space
# The void calculation uses a probe of radius 1.32A, grid spacing 0.4
#
###############################################################################

data_ECAHIB
_chemical_formula_moiety         '(C162 H144 Cu16 N18 O36)n'
_symmetry_cell_setting           triclinic
_symmetry_space_group_name_H-M   'P 1'
_symmetry_Int_Tables_number      1
_space_group_name_Hall           'P 1'
loop_
_symmetry_equiv_pos_site_id
_symmetry_equiv_pos_as_xyz
1 x,y,z
_cell_length_a                   26.473(4)
_cell_length_b                   26.473(4)
_cell_length_c                   7.635(2)
_cell_angle_alpha                90
_cell_angle_beta                 90
_cell_angle_gamma                120
_cell_volume                     4633.89
loop_
_atom_site_label
_atom_site_type_symbol
_atom_site_fract_x
_atom_site_fract_y
_atom_site_fract_z
Cu1 Cu 0.0000 0.5000 0.0000
C12 C 0.11012(19) 0.52198(19) 0.1602(5)
C13 C 0.11270(18) 0.48280(19) 0.0416(5)
H11 H 0.1410 0.4726 0.0626
C18 C 0.1573(2) 0.5484(2) 0.2961(6)
H14 H 0.1422 0.5567 0.3998
H15 H 0.1705 0.5216 0.3240
H16 H 0.1893 0.5839 0.2515
O4 O 0.07261(12) 0.53702(11) 0.1600(3)
Cu1_2 Cu 0.0000 0.5000 1.0000
C10 C 0.14541(18) 0.37800(18) 0.6838(5)
H9 H 0.1700 0.3638 0.7154
C11 C 0.0934(2) 0.39228(19) 0.4788(5)
H10 H 0.0802 0.3883 0.3640
C14 C 0.07741(17) 0.45789(15) 0.8968(4)
C15 C 0.09386(16) 0.42564(15) 0.7699(4)
C16 C 0.12917(17) 0.40301(17) 0.8108(4)
H12 H 0.1419 0.4048 0.9253
C17 C 0.07521(19) 0.41854(19) 0.5976(5)
H13 H 0.0501 0.4317 0.5624
Cu2 Cu 0.1667 0.3333 0.3333
N2 N 0.12869(14) 0.37245(14) 0.5182(4)
N3 N 0.03912(14) 0.57709(20) 0.8151(4)
O3 O 0.03275(11) 0.46137(10) 0.8582(3)
C3 C 0.52198(19) 0.41186(27) 0.8398(5)
C4 C 0.48280(19) 0.37010(26) 0.9584(5)
H3 H 0.4726 0.3316 0.9374
C9 C 0.5484(2) 0.3911(3) 0.7039(6)
H6 H 0.5567 0.4145 0.6002
H7 H 0.5216 0.3511 0.6760
H8 H 0.5839 0.3946 0.7485
Cu1_3 Cu 0.5000 0.5000 1.0000
O2 O 0.53702(11) 0.46441(16) 0.8400(3)
C10_2 C 0.62200(18) 0.76741(25) 0.6838(5)
H9_2 H 0.6362 0.8062 0.7154
C11_2 C 0.60772(19) 0.70112(28) 0.4788(5)
H10_2 H 0.6117 0.6919 0.3640
C14_2 C 0.54211(15) 0.61952(23) 0.8968(4)
C15_2 C 0.57436(15) 0.66822(22) 0.7699(4)
C16_2 C 0.59699(17) 0.72616(24) 0.8108(4)
H12_2 H 0.5952 0.7371 0.9253
C17_2 C 0.58146(19) 0.65667(27) 0.5976(5)
H13_2 H 0.5683 0.6184 0.5624
Cu2_2 Cu 0.6667 0.8333 0.3333
N2_2 N 0.62755(14) 0.75624(20) 0.5182(4)
N3_2 N 0.42291(20) 0.46202(24) 0.8151(4)
O3_2 O 0.53863(10) 0.57138(15) 0.8582(3)
Cu1_4 Cu 0.5000 1.0000 1.0000
C10_3 C 0.23259(25) 0.85459(18) 0.6838(5)
H9_3 H 0.1938 0.8300 0.7154
C11_3 C 0.29888(28) 0.9066(2) 0.4788(5)
H10_3 H 0.3081 0.9198 0.3640
C14_3 C 0.38048(23) 0.92259(17) 0.8968(4)
C15_3 C 0.33178(22) 0.90614(16) 0.7699(4)
C16_3 C 0.27384(24) 0.87083(17) 0.8108(4)
H12_3 H 0.2629 0.8581 0.9253
C17_3 C 0.34333(27) 0.92479(19) 0.5976(5)
H13_3 H 0.3816 0.9499 0.5624
Cu2_3 Cu 0.1667 0.8333 0.3333
N2_3 N 0.24376(20) 0.87131(14) 0.5182(4)
N3_3 N 0.53798(24) 0.96088(14) 0.8151(4)
O3_3 O 0.42862(15) 0.96725(11) 0.8582(3)
C1 C 0.52126(18) 0.95533(18) 0.6495(5)
H1 H 0.4967 0.9695 0.6179
C2 C 0.5733(2) 0.94105(19) 0.8545(5)
H2 H 0.5865 0.9450 0.9693
C3_2 C 0.55655(19) 0.81135(19) 0.1731(5)
C4_2 C 0.55397(18) 0.85053(19) 0.2917(5)
H3_2 H 0.5257 0.8607 0.2707
C5 C 0.58926(17) 0.87544(15) 0.4365(4)
C6 C 0.57281(16) 0.90769(15) 0.5634(4)
C7 C 0.53750(17) 0.93032(17) 0.5225(4)
H4 H 0.5248 0.9285 0.4080
C8 C 0.59146(19) 0.91479(19) 0.7357(5)
H5 H 0.6166 0.9016 0.7709
C9_2 C 0.5094(2) 0.7849(2) 0.0372(6)
H7_2 H 0.4962 0.8117 0.0093
H8_2 H 0.4774 0.7494 0.0818
O1 O 0.63392(11) 0.87196(10) 0.4751(3)
O2_2 O 0.59406(12) 0.79631(11) 0.1733(3)
C10_4 C 0.81208(18) 0.71133(18) 0.0171(5)
H9_4 H 0.8367 0.6971 0.0487
C12_2 C 0.77679(19) 0.85531(19) 0.4935(5)
C13_2 C 0.77937(18) 0.81613(19) 0.3749(5)
H11_2 H 0.8077 0.8059 0.3959
C14_4 C 0.74408(17) 0.79122(15) 0.2301(4)
C15_4 C 0.76053(16) 0.75897(15) 0.1032(4)
C16_4 C 0.79584(17) 0.73634(17) 0.1441(4)
H12_4 H 0.8086 0.7381 0.2586
C18_2 C 0.8240(2) 0.8817(2) 0.6294(6)
H14_2 H 0.8089 0.8900 0.7331
H15_2 H 0.8372 0.8549 0.6573
H16_2 H 0.8560 0.9172 0.5848
N3_4 N 0.70578(14) 0.91043(20) 0.1485(4)
O3_4 O 0.69942(11) 0.79470(10) 0.1915(3)
O4_2 O 0.73928(12) 0.87035(11) 0.4933(3)
C1_2 C 0.04467(18) 0.56592(25) 0.6495(5)
H1_2 H 0.0305 0.5271 0.6179
C2_2 C 0.05895(19) 0.63221(28) 0.8545(5)
H2_2 H 0.0550 0.6414 0.9693
C3_3 C 0.18865(19) 0.74519(27) 0.1731(5)
C4_3 C 0.14947(19) 0.70343(26) 0.2917(5)
H3_3 H 0.1393 0.6649 0.2707
C5_2 C 0.12456(15) 0.71381(23) 0.4365(4)
C6_2 C 0.09231(15) 0.66511(22) 0.5634(4)
C7_2 C 0.06968(17) 0.60717(24) 0.5225(4)
H4_2 H 0.0715 0.5962 0.4080
C8_2 C 0.08521(19) 0.67666(27) 0.7357(5)
H5_2 H 0.0984 0.7149 0.7709
C9_3 C 0.2151(2) 0.7244(3) 0.0372(6)
H7_3 H 0.1883 0.6844 0.0093
H8_3 H 0.2506 0.7279 0.0818
O1_2 O 0.12804(10) 0.76195(15) 0.4751(3)
O2_3 O 0.20369(11) 0.79774(16) 0.1733(3)
C12_3 C 0.14469(19) 0.92147(27) 0.4935(5)
C13_3 C 0.18387(19) 0.96323(26) 0.3749(5)
C14_5 C 0.20878(15) 0.95285(23) 0.2301(4)
C18_3 C 0.1183(2) 0.9422(3) 0.6294(6)
H14_3 H 0.1100 0.9188 0.7331
H15_3 H 0.1451 0.9822 0.6573
H16_3 H 0.0828 0.9387 0.5848
N3_5 N 0.08957(20) 0.79536(24) 0.1485(4)
O3_5 O 0.20530(10) 0.90471(15) 0.1915(3)
O4_3 O 0.12965(11) 0.86892(16) 0.4933(3)
C1_3 C 0.43408(25) 0.47874(18) 0.6495(5)
H1_3 H 0.4729 0.5033 0.6179
C2_3 C 0.36779(28) 0.4267(2) 0.8545(5)
H2_3 H 0.3586 0.4135 0.9693
C3_4 C 0.25481(27) 0.44345(19) 0.1731(5)
C4_4 C 0.29657(26) 0.44603(18) 0.2917(5)
H3_4 H 0.3351 0.4743 0.2707
C5_3 C 0.28619(23) 0.41074(17) 0.4365(4)
C6_3 C 0.33489(22) 0.42719(16) 0.5634(4)
C7_3 C 0.39283(24) 0.46250(17) 0.5225(4)
H4_3 H 0.4038 0.4752 0.4080
C8_3 C 0.32334(27) 0.40854(19) 0.7357(5)
H5_3 H 0.2851 0.3834 0.7709
C9_4 C 0.2756(3) 0.4906(2) 0.0372(6)
H7_4 H 0.3156 0.5038 0.0093
H8_4 H 0.2721 0.5226 0.0818
O1_3 O 0.23805(15) 0.36608(11) 0.4751(3)
O2_4 O 0.20226(16) 0.40594(12) 0.1733(3)
C12_4 C 0.07853(27) 0.22321(19) 0.4935(5)
C13_4 C 0.03677(26) 0.22063(18) 0.3749(5)
C14_6 C 0.04715(23) 0.25592(17) 0.2301(4)
C18_4 C 0.0578(3) 0.1760(2) 0.6294(6)
H14_4 H 0.0812 0.1911 0.7331
H15_4 H 0.0178 0.1628 0.6573
H16_4 H 0.0613 0.1440 0.5848
N3_6 N 0.20464(24) 0.29422(14) 0.1485(4)
O3_6 O 0.09529(15) 0.30058(11) 0.1915(3)
O4_4 O 0.13108(16) 0.26072(12) 0.4933(3)
C2_4 C 0.2399(2) 0.27439(19) 0.1879(5)
H2_4 H 0.2531 0.2784 0.3027
C8_4 C 0.25812(19) 0.24813(19) 0.0691(5)
H5_4 H 0.2832 0.2350 0.1043
H14_5 H 0.4755 0.2234 0.0665
C2_5 C 0.72561(19) 0.96555(28) 0.1879(5)
H2_5 H 0.7216 0.9748 0.3027
C2_6 C 0.03445(28) 0.7601(2) 0.1879(5)
H2_6 H 0.0252 0.7469 0.3027
C1_4 C 0.85459(18) 0.62200(18) 0.3162(5)
H1_4 H 0.8300 0.6362 0.2846
C2_7 C 0.9066(2) 0.60772(19) 0.5212(5)
H2_7 H 0.9198 0.6117 0.6360
C5_4 C 0.92259(17) 0.54211(15) 0.1032(4)
C6_4 C 0.90614(16) 0.57436(15) 0.2301(4)
C7_4 C 0.87083(17) 0.59699(17) 0.1892(4)
H4_4 H 0.8581 0.5952 0.0747
C8_5 C 0.92479(19) 0.58146(19) 0.4024(5)
H5_5 H 0.9499 0.5683 0.4376
Cu1_5 Cu 1.0000 0.5000 0.0000
N1 N 0.87131(14) 0.62755(14) 0.4818(4)
O1_4 O 0.96725(11) 0.53863(10) 0.1418(3)
Cu3 Cu 0.8333 0.6667 0.6667
N4 N 0.96088(14) 0.42291(20) 0.1849(4)
C1_5 C 0.37800(18) 0.23259(25) 0.3162(5)
H1_5 H 0.3638 0.1938 0.2846
C2_8 C 0.39228(19) 0.29888(28) 0.5212(5)
H2_8 H 0.3883 0.3081 0.6360
C5_5 C 0.45789(15) 0.38048(23) 0.1032(4)
C6_5 C 0.42564(15) 0.33178(22) 0.2301(4)
C7_5 C 0.40301(17) 0.27384(24) 0.1892(4)
H4_5 H 0.4048 0.2629 0.0747
C8_6 C 0.41854(19) 0.34333(27) 0.4024(5)
H5_6 H 0.4317 0.3816 0.4376
Cu1_6 Cu 0.5000 0.5000 0.0000
N1_2 N 0.37245(14) 0.24376(20) 0.4818(4)
O1_5 O 0.46137(10) 0.42862(15) 0.1418(3)
C12_5 C 0.47802(19) 0.58814(27) 0.1602(5)
C13_5 C 0.51720(19) 0.62990(26) 0.0416(5)
H11_3 H 0.5274 0.6684 0.0626
C18_5 C 0.4516(2) 0.6089(3) 0.2961(6)
H14_6 H 0.4433 0.5855 0.3998
H15_5 H 0.4784 0.6489 0.3240
H16_5 H 0.4161 0.6054 0.2515
Cu3_2 Cu 0.3333 0.1667 0.6667
N4_2 N 0.57709(20) 0.53798(24) 0.1849(4)
O4_5 O 0.46298(11) 0.53559(16) 0.1600(3)
C1_6 C 0.76741(25) 0.14541(18) 0.3162(5)
H1_6 H 0.8062 0.1700 0.2846
C2_9 C 0.70112(28) 0.0934(2) 0.5212(5)
H2_9 H 0.6919 0.0802 0.6360
C5_6 C 0.61952(23) 0.07741(17) 0.1032(4)
C6_6 C 0.66822(22) 0.09386(16) 0.2301(4)
C7_6 C 0.72616(24) 0.12917(17) 0.1892(4)
H4_6 H 0.7371 0.1419 0.0747
C8_7 C 0.65667(27) 0.07521(19) 0.4024(5)
H5_7 H 0.6184 0.0501 0.4376
Cu1_7 Cu 0.5000 -0.0000 0.0000
N1_3 N 0.75624(20) 0.12869(14) 0.4818(4)
O1_6 O 0.57138(15) 0.03275(11) 0.1418(3)
Cu3_3 Cu 0.8333 0.1667 0.6667
N4_3 N 0.46202(24) 0.03912(14) 0.1849(4)
H6_2 H 0.5245 0.7766 0.9335
C11_4 C 0.7601(2) 0.72561(19) 0.8121(5)
H10_4 H 0.7469 0.7216 0.6973
C17_4 C 0.74188(19) 0.75187(19) 0.9309(5)
H13_4 H 0.7168 0.7650 0.8957
N2_4 N 0.79536(14) 0.70578(14) 0.8515(4)
C11_5 C 0.27439(19) 0.03445(28) 0.8121(5)
H10_5 H 0.2784 0.0252 0.6973
N2_5 N 0.29422(14) 0.08957(20) 0.8515(4)
C11_6 C 0.96555(28) 0.2399(2) 0.8121(5)
H10_6 H 0.9748 0.2531 0.6973
N2_6 N 0.91043(20) 0.20464(14) 0.8515(4)
C1_7 C 0.18792(18) 0.28867(18) 0.9829(5)
H1_7 H 0.1633 0.3029 0.9513
C3_5 C 0.22321(19) 0.14469(19) 0.5065(5)
C4_5 C 0.22063(18) 0.18387(19) 0.6251(5)
H3_5 H 0.1923 0.1941 0.6041
C5_7 C 0.25592(17) 0.20878(15) 0.7699(4)
C6_7 C 0.23947(16) 0.24103(15) 0.8968(4)
C7_7 C 0.20416(17) 0.26366(17) 0.8559(4)
H4_7 H 0.1914 0.2619 0.7414
C9_5 C 0.1760(2) 0.1183(2) 0.3706(6)
H6_3 H 0.1911 0.1100 0.2669
H7_5 H 0.1628 0.1451 0.3427
H8_5 H 0.1440 0.0828 0.4152
O1_7 O 0.30058(11) 0.20530(10) 0.8085(3)
O2_5 O 0.26072(12) 0.12965(11) 0.5067(3)
C10_5 C 0.47874(18) 0.04467(18) 0.3505(5)
H9_5 H 0.5033 0.0305 0.3821
C11_7 C 0.4267(2) 0.05895(19) 0.1455(5)
H10_7 H 0.4135 0.0550 0.0307
C12_6 C 0.44345(19) 0.18865(19) 0.8269(5)
C13_6 C 0.44603(18) 0.14947(19) 0.7083(5)
H11_4 H 0.4743 0.1393 0.7293
C14_7 C 0.41074(17) 0.12456(15) 0.5635(4)
C15_5 C 0.42719(16) 0.09231(15) 0.4366(4)
C16_5 C 0.46250(17) 0.06968(17) 0.4775(4)
H12_5 H 0.4752 0.0715 0.5920
C17_5 C 0.40854(19) 0.08521(19) 0.2643(5)
H13_5 H 0.3834 0.0984 0.2291
C18_6 C 0.4906(2) 0.2151(2) 0.9628(6)
H15_6 H 0.5038 0.1883 0.9907
H16_6 H 0.5226 0.2506 0.9182
O3_7 O 0.36608(11) 0.12804(10) 0.5249(3)
O4_6 O 0.40594(12) 0.20369(11) 0.8267(3)
C3_6 C 0.85531(19) 0.07853(27) 0.5065(5)
C4_6 C 0.81613(19) 0.03677(26) 0.6251(5)
C5_8 C 0.79122(15) 0.04715(23) 0.7699(4)
C9_6 C 0.8817(2) 0.0578(3) 0.3706(6)
H6_4 H 0.8900 0.0812 0.2669
H7_6 H 0.8549 0.0178 0.3427
H8_6 H 0.9172 0.0613 0.4152
O1_8 O 0.79470(10) 0.09529(15) 0.8085(3)
O2_6 O 0.87035(11) 0.13108(16) 0.5067(3)
C10_6 C 0.95533(18) 0.43408(25) 0.3505(5)
H9_6 H 0.9695 0.4729 0.3821
C11_8 C 0.94105(19) 0.36779(28) 0.1455(5)
H10_8 H 0.9450 0.3586 0.0307
C12_7 C 0.81135(19) 0.25481(27) 0.8269(5)
C13_7 C 0.85053(19) 0.29657(26) 0.7083(5)
H11_5 H 0.8607 0.3351 0.7293
C14_8 C 0.87544(15) 0.28619(23) 0.5635(4)
C15_6 C 0.90769(15) 0.33489(22) 0.4366(4)
C16_6 C 0.93032(17) 0.39283(24) 0.4775(4)
H12_6 H 0.9285 0.4038 0.5920
C17_6 C 0.91479(19) 0.32334(27) 0.2643(5)
H13_6 H 0.9016 0.2851 0.2291
C18_7 C 0.7849(2) 0.2756(3) 0.9628(6)
H15_7 H 0.8117 0.3156 0.9907
H16_7 H 0.7494 0.2721 0.9182
O3_8 O 0.87196(10) 0.23805(15) 0.5249(3)
O4_7 O 0.79631(11) 0.20226(16) 0.8267(3)
C3_7 C 0.92147(27) 0.77679(19) 0.5065(5)
C4_7 C 0.96323(26) 0.77937(18) 0.6251(5)
C5_9 C 0.95285(23) 0.74408(17) 0.7699(4)
C9_7 C 0.9422(3) 0.8240(2) 0.3706(6)
H6_5 H 0.9188 0.8089 0.2669
H7_7 H 0.9822 0.8372 0.3427
H8_7 H 0.9387 0.8560 0.4152
O1_9 O 0.90471(15) 0.69942(11) 0.8085(3)
O2_7 O 0.86892(16) 0.73928(12) 0.5067(3)
C10_7 C 0.56592(25) 0.52126(18) 0.3505(5)
H9_7 H 0.5271 0.4967 0.3821
C11_9 C 0.63221(28) 0.5733(2) 0.1455(5)
H10_9 H 0.6414 0.5865 0.0307
C12_8 C 0.74519(27) 0.55655(19) 0.8269(5)
C13_8 C 0.70343(26) 0.55397(18) 0.7083(5)
H11_6 H 0.6649 0.5257 0.7293
C14_9 C 0.71381(23) 0.58926(17) 0.5635(4)
C15_7 C 0.66511(22) 0.57281(16) 0.4366(4)
C16_7 C 0.60717(24) 0.53750(17) 0.4775(4)
H12_7 H 0.5962 0.5248 0.5920
C17_7 C 0.67666(27) 0.59146(19) 0.2643(5)
H13_7 H 0.7149 0.6166 0.2291
C18_8 C 0.7244(3) 0.5094(2) 0.9628(6)
H15_8 H 0.6844 0.4962 0.9907
H16_8 H 0.7279 0.4774 0.9182
O3_9 O 0.76195(15) 0.63392(11) 0.5249(3)
O4_8 O 0.79774(16) 0.59406(12) 0.8267(3)
C3_8 C 0.88988(19) 0.47802(19) 0.8398(5)
C4_8 C 0.88730(18) 0.51720(19) 0.9584(5)
H3_6 H 0.8590 0.5274 0.9374
C9_8 C 0.8427(2) 0.4516(2) 0.7039(6)
H6_6 H 0.8578 0.4433 0.6002
H7_8 H 0.8295 0.4784 0.6760
H8_8 H 0.8107 0.4161 0.7485
Cu1_8 Cu 1.0000 0.5000 1.0000
O2_8 O 0.92739(12) 0.46298(11) 0.8400(3)
C3_9 C 0.58814(27) 0.11012(19) 0.8398(5)
C4_9 C 0.62990(26) 0.11270(18) 0.9584(5)
H3_7 H 0.6684 0.1410 0.9374
C9_9 C 0.6089(3) 0.1573(2) 0.7039(6)
H6_7 H 0.5855 0.1422 0.6002
H7_9 H 0.6489 0.1705 0.6760
H8_9 H 0.6054 0.1893 0.7485
Cu1_9 Cu 0.5000 -0.0000 1.0000
O2_9 O 0.53559(16) 0.07261(12) 0.8400(3)
Cu1_10 Cu 0.5000 1.0000 0.0000
C12_9 C 0.41186(27) 0.88988(19) 0.1602(5)
C13_9 C 0.37010(26) 0.88730(18) 0.0416(5)
H11_7 H 0.3316 0.8590 0.0626
C18_9 C 0.3911(3) 0.8427(2) 0.2961(6)
H14_7 H 0.4145 0.8578 0.3998
H15_9 H 0.3511 0.8295 0.3240
H16_9 H 0.3946 0.8107 0.2515
O4_9 O 0.46441(16) 0.92739(12) 0.1600(3)
C10_8 C 0.28867(18) 0.10074(25) 0.0171(5)
H9_8 H 0.3029 0.1395 0.0487
H11_8 H 0.1941 0.0017 0.3959
C15_8 C 0.24103(15) 0.00155(22) 0.1032(4)
C16_8 C 0.26366(17) 0.05949(24) 0.1441(4)
H12_8 H 0.2619 0.0704 0.2586
H6_8 H 0.2234 0.7478 0.9335
C17_8 C 0.24813(19) 0.99000(27) 0.9309(5)
H13_8 H 0.2350 0.9517 0.8957
H6_9 H 0.2522 0.4755 0.9335
C17_9 C 0.01000(27) 0.25812(19) 0.9309(5)
H13_9 H 0.0483 0.2832 0.8957
C10_9 C 0.89926(25) 0.18792(18) 0.0171(5)
H9_9 H 0.8605 0.1633 0.0487
H11_9 H 0.9983 0.1923 0.3959
C15_9 C 0.99845(22) 0.23947(16) 0.1032(4)
C16_9 C 0.94051(24) 0.20416(17) 0.1441(4)
H12_9 H 0.9296 0.1914 0.2586
C8_8 C 0.75187(19) 0.01000(27) 0.0691(5)
H5_8 H 0.7650 0.0483 0.1043
H14_8 H 0.7766 0.2522 0.0665
C1_8 C 0.71133(18) 0.89926(25) 0.9829(5)
H1_8 H 0.6971 0.8605 0.9513
H3_8 H 0.8059 0.9983 0.6041
C6_8 C 0.75897(15) 0.99845(22) 0.8968(4)
C7_8 C 0.73634(17) 0.94051(24) 0.8559(4)
H4_8 H 0.7381 0.9296 0.7414
C1_9 C 0.10074(25) 0.81208(18) 0.9829(5)
H1_9 H 0.1395 0.8367 0.9513
H3_9 H 0.0017 0.8077 0.6041
C6_9 C 0.00155(22) 0.76053(16) 0.8968(4)
C7_9 C 0.05949(24) 0.79584(17) 0.8559(4)
H4_9 H 0.0704 0.8086 0.7414
C8_9 C 0.99000(27) 0.74188(19) 0.0691(5)
H5_9 H 0.9517 0.7168 0.1043
H14_9 H 0.7478 0.5245 0.0665
loop_
_geom_bond_atom_site_label_1
_geom_bond_atom_site_label_2
_geom_bond_site_symmetry_1
_geom_bond_site_symmetry_2
C12 C13 1_555 1_555
C13 H11 1_555 1_555
C18 C12 1_555 1_555
H14 C18 1_555 1_555
H15 C18 1_555 1_555
H16 C18 1_555 1_555
O4 Cu1 1_555 1_555
C12 O4 1_555 1_555
C10 H9 1_555 1_555
C11 H10 1_555 1_555
C15 C14 1_555 1_555
C16 C10 1_555 1_555
H12 C16 1_555 1_555
C17 C11 1_555 1_555
H13 C17 1_555 1_555
Cu2 N2 1_555 1_555
N2 C10 1_555 1_555
N3 Cu1_2 1_555 1_555
O3 Cu1_2 1_555 1_555
C11 N2 1_555 1_555
C14 O3 1_555 1_555
C15 C16 1_555 1_555
C15 C17 1_555 1_555
C3 C4 1_555 1_555
C4 H3 1_555 1_555
C9 C3 1_555 1_555
H6 C9 1_555 1_555
H7 C9 1_555 1_555
H8 C9 1_555 1_555
O2 C3 1_555 1_555
C10_2 H9_2 1_555 1_555
C11_2 H10_2 1_555 1_555
C15_2 C14_2 1_555 1_555
C16_2 C10_2 1_555 1_555
H12_2 C16_2 1_555 1_555
C17_2 C11_2 1_555 1_555
H13_2 C17_2 1_555 1_555
Cu2_2 N2_2 1_555 1_555
N2_2 C10_2 1_555 1_555
N3_2 Cu1_3 1_555 1_555
O3_2 Cu1_3 1_555 1_555
Cu1_3 O2 1_555 1_555
C11_2 N2_2 1_555 1_555
C14_2 O3_2 1_555 1_555
C15_2 C16_2 1_555 1_555
C15_2 C17_2 1_555 1_555
C10_3 H9_3 1_555 1_555
C11_3 H10_3 1_555 1_555
C15_3 C14_3 1_555 1_555
C16_3 C10_3 1_555 1_555
H12_3 C16_3 1_555 1_555
C17_3 C11_3 1_555 1_555
H13_3 C17_3 1_555 1_555
Cu2_3 N2_3 1_555 1_555
N2_3 C10_3 1_555 1_555
N3_3 Cu1_4 1_555 1_555
O3_3 Cu1_4 1_555 1_555
C11_3 N2_3 1_555 1_555
C14_3 O3_3 1_555 1_555
C15_3 C16_3 1_555 1_555
C15_3 C17_3 1_555 1_555
C1 H1 1_555 1_555
C2 H2 1_555 1_555
C3_2 C4_2 1_555 1_555
C4_2 H3_2 1_555 1_555
C5 C4_2 1_555 1_555
C6 C5 1_555 1_555
C7 C1 1_555 1_555
H4 C7 1_555 1_555
C8 C2 1_555 1_555
H5 C8 1_555 1_555
C9_2 C3_2 1_555 1_555
H7_2 C9_2 1_555 1_555
H8_2 C9_2 1_555 1_555
Cu2_2 O1 1_555 1_555
N3_3 C1 1_555 1_555
O1 C5 1_555 1_555
O2_2 C3_2 1_555 1_555
C10_4 H9_4 1_555 1_555
C12_2 C13_2 1_555 1_555
C13_2 H11_2 1_555 1_555
C14_4 C13_2 1_555 1_555
C15_4 C14_4 1_555 1_555
C16_4 C10_4 1_555 1_555
H12_4 C16_4 1_555 1_555
C18_2 C12_2 1_555 1_555
H14_2 C18_2 1_555 1_555
H15_2 C18_2 1_555 1_555
H16_2 C18_2 1_555 1_555
N3_4 Cu2_2 1_555 1_555
O3_4 Cu2_2 1_555 1_555
O4_2 Cu2_2 1_555 1_555
C2 N3_3 1_555 1_555
C6 C7 1_555 1_555
C6 C8 1_555 1_555
Cu2_2 O2_2 1_555 1_555
C12_2 O4_2 1_555 1_555
C14_4 O3_4 1_555 1_555
C15_4 C16_4 1_555 1_555
C1_2 H1_2 1_555 1_555
C2_2 H2_2 1_555 1_555
C3_3 C4_3 1_555 1_555
C4_3 H3_3 1_555 1_555
C5_2 C4_3 1_555 1_555
C6_2 C5_2 1_555 1_555
C7_2 C1_2 1_555 1_555
H4_2 C7_2 1_555 1_555
C8_2 C2_2 1_555 1_555
H5_2 C8_2 1_555 1_555
C9_3 C3_3 1_555 1_555
H7_3 C9_3 1_555 1_555
H8_3 C9_3 1_555 1_555
Cu2_3 O1_2 1_555 1_555
N3 C1_2 1_555 1_555
O1_2 C5_2 1_555 1_555
O2_3 C3_3 1_555 1_555
C12_3 C13_3 1_555 1_555
C14_5 C13_3 1_555 1_555
C18_3 C12_3 1_555 1_555
H14_3 C18_3 1_555 1_555
H15_3 C18_3 1_555 1_555
H16_3 C18_3 1_555 1_555
N3_5 Cu2_3 1_555 1_555
O3_5 Cu2_3 1_555 1_555
O4_3 Cu2_3 1_555 1_555
C2_2 N3 1_555 1_555
C6_2 C7_2 1_555 1_555
C6_2 C8_2 1_555 1_555
Cu2_3 O2_3 1_555 1_555
C12_3 O4_3 1_555 1_555
C14_5 O3_5 1_555 1_555
C1_3 H1_3 1_555 1_555
C2_3 H2_3 1_555 1_555
C3_4 C4_4 1_555 1_555
C4_4 H3_4 1_555 1_555
C5_3 C4_4 1_555 1_555
C6_3 C5_3 1_555 1_555
C7_3 C1_3 1_555 1_555
H4_3 C7_3 1_555 1_555
C8_3 C2_3 1_555 1_555
H5_3 C8_3 1_555 1_555
C9_4 C3_4 1_555 1_555
H7_4 C9_4 1_555 1_555
H8_4 C9_4 1_555 1_555
Cu2 O1_3 1_555 1_555
N3_2 C1_3 1_555 1_555
O1_3 C5_3 1_555 1_555
O2_4 C3_4 1_555 1_555
C12_4 C13_4 1_555 1_555
C14_6 C13_4 1_555 1_555
C18_4 C12_4 1_555 1_555
H14_4 C18_4 1_555 1_555
H15_4 C18_4 1_555 1_555
H16_4 C18_4 1_555 1_555
N3_6 Cu2 1_555 1_555
O3_6 Cu2 1_555 1_555
O4_4 Cu2 1_555 1_555
C2_3 N3_2 1_555 1_555
C6_3 C7_3 1_555 1_555
C6_3 C8_3 1_555 1_555
Cu2 O2_4 1_555 1_555
C12_4 O4_4 1_555 1_555
C14_6 O3_6 1_555 1_555
C2_4 H2_4 1_555 1_555
C8_4 C2_4 1_555 1_555
H5_4 C8_4 1_555 1_555
C2_4 N3_6 1_555 1_555
C2_5 H2_5 1_555 1_555
C2_5 N3_4 1_555 1_555
C2_6 H2_6 1_555 1_555
C2_6 N3_5 1_555 1_555
C1_4 H1_4 1_555 1_555
C2_7 H2_7 1_555 1_555
C6_4 C5_4 1_555 1_555
C7_4 C1_4 1_555 1_555
H4_4 C7_4 1_555 1_555
C8_5 C2_7 1_555 1_555
H5_5 C8_5 1_555 1_555
Cu1_5 O1_4 1_555 1_555
N1 C1_4 1_555 1_555
O1_4 C5_4 1_555 1_555
Cu3 N1 1_555 1_555
N4 Cu1_5 1_555 1_555
C2_7 N1 1_555 1_555
C6_4 C7_4 1_555 1_555
C6_4 C8_5 1_555 1_555
C1_5 H1_5 1_555 1_555
C2_8 H2_8 1_555 1_555
C6_5 C5_5 1_555 1_555
C7_5 C1_5 1_555 1_555
H4_5 C7_5 1_555 1_555
C8_6 C2_8 1_555 1_555
H5_6 C8_6 1_555 1_555
Cu1_6 O1_5 1_555 1_555
N1_2 C1_5 1_555 1_555
O1_5 C5_5 1_555 1_555
C12_5 C13_5 1_555 1_555
C13_5 H11_3 1_555 1_555
C18_5 C12_5 1_555 1_555
H14_6 C18_5 1_555 1_555
H15_5 C18_5 1_555 1_555
H16_5 C18_5 1_555 1_555
Cu3_2 N1_2 1_555 1_555
N4_2 Cu1_6 1_555 1_555
O4_5 Cu1_6 1_555 1_555
C2_8 N1_2 1_555 1_555
C6_5 C7_5 1_555 1_555
C6_5 C8_6 1_555 1_555
C12_5 O4_5 1_555 1_555
C1_6 H1_6 1_555 1_555
C2_9 H2_9 1_555 1_555
C6_6 C5_6 1_555 1_555
C7_6 C1_6 1_555 1_555
H4_6 C7_6 1_555 1_555
C8_7 C2_9 1_555 1_555
H5_7 C8_7 1_555 1_555
Cu1_7 O1_6 1_555 1_555
N1_3 C1_6 1_555 1_555
O1_6 C5_6 1_555 1_555
Cu3_3 N1_3 1_555 1_555
N4_3 Cu1_7 1_555 1_555
C2_9 N1_3 1_555 1_555
C6_6 C7_6 1_555 1_555
C6_6 C8_7 1_555 1_555
C11_4 H10_4 1_555 1_555
C17_4 C11_4 1_555 1_555
H13_4 C17_4 1_555 1_555
Cu3 N2_4 1_555 1_555
C11_4 N2_4 1_555 1_555
C11_5 H10_5 1_555 1_555
Cu3_2 N2_5 1_555 1_555
C11_5 N2_5 1_555 1_555
C11_6 H10_6 1_555 1_555
Cu3_3 N2_6 1_555 1_555
C11_6 N2_6 1_555 1_555
C1_7 H1_7 1_555 1_555
C3_5 C4_5 1_555 1_555
C4_5 H3_5 1_555 1_555
C5_7 C4_5 1_555 1_555
C6_7 C5_7 1_555 1_555
C7_7 C1_7 1_555 1_555
H4_7 C7_7 1_555 1_555
C9_5 C3_5 1_555 1_555
H6_3 C9_5 1_555 1_555
H7_5 C9_5 1_555 1_555
H8_5 C9_5 1_555 1_555
Cu3_2 O1_7 1_555 1_555
O1_7 C5_7 1_555 1_555
O2_5 C3_5 1_555 1_555
C10_5 H9_5 1_555 1_555
C11_7 H10_7 1_555 1_555
C12_6 C13_6 1_555 1_555
C13_6 H11_4 1_555 1_555
C14_7 C13_6 1_555 1_555
C15_5 C14_7 1_555 1_555
C16_5 C10_5 1_555 1_555
H12_5 C16_5 1_555 1_555
C17_5 C11_7 1_555 1_555
H13_5 C17_5 1_555 1_555
C18_6 C12_6 1_555 1_555
H15_6 C18_6 1_555 1_555
H16_6 C18_6 1_555 1_555
N4_3 C10_5 1_555 1_555
O3_7 Cu3_2 1_555 1_555
O4_6 Cu3_2 1_555 1_555
C6_7 C7_7 1_555 1_555
Cu3_2 O2_5 1_555 1_555
C11_7 N4_3 1_555 1_555
C12_6 O4_6 1_555 1_555
C14_7 O3_7 1_555 1_555
C15_5 C16_5 1_555 1_555
C15_5 C17_5 1_555 1_555
C3_6 C4_6 1_555 1_555
C5_8 C4_6 1_555 1_555
C9_6 C3_6 1_555 1_555
H6_4 C9_6 1_555 1_555
H7_6 C9_6 1_555 1_555
H8_6 C9_6 1_555 1_555
Cu3_3 O1_8 1_555 1_555
O1_8 C5_8 1_555 1_555
O2_6 C3_6 1_555 1_555
C10_6 H9_6 1_555 1_555
C11_8 H10_8 1_555 1_555
C12_7 C13_7 1_555 1_555
C13_7 H11_5 1_555 1_555
C14_8 C13_7 1_555 1_555
C15_6 C14_8 1_555 1_555
C16_6 C10_6 1_555 1_555
H12_6 C16_6 1_555 1_555
C17_6 C11_8 1_555 1_555
H13_6 C17_6 1_555 1_555
C18_7 C12_7 1_555 1_555
H15_7 C18_7 1_555 1_555
H16_7 C18_7 1_555 1_555
N4 C10_6 1_555 1_555
O3_8 Cu3_3 1_555 1_555
O4_7 Cu3_3 1_555 1_555
Cu3_3 O2_6 1_555 1_555
C11_8 N4 1_555 1_555
C12_7 O4_7 1_555 1_555
C14_8 O3_8 1_555 1_555
C15_6 C16_6 1_555 1_555
C15_6 C17_6 1_555 1_555
C3_7 C4_7 1_555 1_555
C5_9 C4_7 1_555 1_555
C9_7 C3_7 1_555 1_555
H6_5 C9_7 1_555 1_555
H7_7 C9_7 1_555 1_555
H8_7 C9_7 1_555 1_555
Cu3 O1_9 1_555 1_555
O1_9 C5_9 1_555 1_555
O2_7 C3_7 1_555 1_555
C10_7 H9_7 1_555 1_555
C11_9 H10_9 1_555 1_555
C12_8 C13_8 1_555 1_555
C13_8 H11_6 1_555 1_555
C14_9 C13_8 1_555 1_555
C15_7 C14_9 1_555 1_555
C16_7 C10_7 1_555 1_555
H12_7 C16_7 1_555 1_555
C17_7 C11_9 1_555 1_555
H13_7 C17_7 1_555 1_555
C18_8 C12_8 1_555 1_555
H15_8 C18_8 1_555 1_555
H16_8 C18_8 1_555 1_555
N4_2 C10_7 1_555 1_555
O3_9 Cu3 1_555 1_555
O4_8 Cu3 1_555 1_555
Cu3 O2_7 1_555 1_555
C11_9 N4_2 1_555 1_555
C12_8 O4_8 1_555 1_555
C14_9 O3_9 1_555 1_555
C15_7 C16_7 1_555 1_555
C15_7 C17_7 1_555 1_555
C3_8 C4_8 1_555 1_555
C4_8 H3_6 1_555 1_555
C9_8 C3_8 1_555 1_555
H6_6 C9_8 1_555 1_555
H7_8 C9_8 1_555 1_555
H8_8 C9_8 1_555 1_555
O2_8 C3_8 1_555 1_555
Cu1_8 O2_8 1_555 1_555
C3_9 C4_9 1_555 1_555
C4_9 H3_7 1_555 1_555
C9_9 C3_9 1_555 1_555
H6_7 C9_9 1_555 1_555
H7_9 C9_9 1_555 1_555
H8_9 C9_9 1_555 1_555
O2_9 C3_9 1_555 1_555
Cu1_9 O2_9 1_555 1_555
C12_9 C13_9 1_555 1_555
C13_9 H11_7 1_555 1_555
C18_9 C12_9 1_555 1_555
H14_7 C18_9 1_555 1_555
H15_9 C18_9 1_555 1_555
H16_9 C18_9 1_555 1_555
O4_9 Cu1_10 1_555 1_555
C12_9 O4_9 1_555 1_555
C10_8 H9_8 1_555 1_555
C16_8 C10_8 1_555 1_555
H12_8 C16_8 1_555 1_555
C15_8 C16_8 1_555 1_555
H13_8 C17_8 1_555 1_555
H13_9 C17_9 1_555 1_555
C10_9 H9_9 1_555 1_555
C16_9 C10_9 1_555 1_555
H12_9 C16_9 1_555 1_555
C15_9 C16_9 1_555 1_555
H5_8 C8_8 1_555 1_555
C1_8 H1_8 1_555 1_555
C7_8 C1_8 1_555 1_555
H4_8 C7_8 1_555 1_555
C6_8 C7_8 1_555 1_555
C1_9 H1_9 1_555 1_555
C7_9 C1_9 1_555 1_555
H4_9 C7_9 1_555 1_555
C6_9 C7_9 1_555 1_555
H5_9 C8_9 1_555 1_555

#END
