
###############################################################################
#
# This file contains modified crystal structure data generated from the
# MOF subset of the Cambridge Structural Database (CSD) v543 
# hosted by the Cambridge Crystallographic Data Centre (CCDC).
#
# This work is licensed under the Creative Commons
# Attribution-NonCommercial-ShareAlike 4.0 International License.
# To view a copy of this license, visit
# http://creativecommons.org/licenses/by-nc-sa/4.0/
# or send a letter to
# Creative Commons, PO Box 1866, Mountain View, CA 94042, USA.
#
# CIF created using the CSD Python API on 29 September 2022
# The structure has been converted into the P1 space group
# The structure has a 3D framework
# The original CSD entry ECAHIB11 is in the rhombohedral crystal system
# The framework has been calculated to contain at least 10.0% void space
# The void calculation uses a probe of radius 1.32A, grid spacing 0.4
#
###############################################################################

data_ECAHIB11
_chemical_formula_moiety         '(C162 H144 Cu16 N18 O36)n'
_symmetry_cell_setting           triclinic
_symmetry_space_group_name_H-M   'P 1'
_symmetry_Int_Tables_number      1
_space_group_name_Hall           'P 1'
loop_
_symmetry_equiv_pos_site_id
_symmetry_equiv_pos_as_xyz
1 x,y,z
_cell_length_a                   26.3304(7)
_cell_length_b                   26.3304(7)
_cell_length_c                   7.7955(2)
_cell_angle_alpha                90
_cell_angle_beta                 90
_cell_angle_gamma                120
_cell_volume                     4680.47
loop_
_atom_site_label
_atom_site_type_symbol
_atom_site_fract_x
_atom_site_fract_y
_atom_site_fract_z
C13 C 0.0330(3) 0.7593(4) 0.1813(9)
N2 N 0.0893(3) 0.7953(3) 0.1447(7)
H10 H 0.0226 0.7469 0.2967
Cu2 Cu 0.1666 0.8333 0.3333
Cu3 Cu 0.4999 0.5000 1.0000
Cu1 Cu 0.1666 0.3334 0.3334
O1 O 0.0947(2) 0.3011(2) 0.1937(6)
C1 C 0.0460(3) 0.2566(3) 0.2337(8)
C7 C 0.0352(3) 0.2222(4) 0.3774(10)
C8 C 0.0775(3) 0.2243(3) 0.4913(9)
O2 O 0.1311(2) 0.2609(3) 0.4870(7)
C9 C 0.0576(5) 0.1775(5) 0.6277(13)
H6 H 0.0913 0.1842 0.6978
H7 H 0.0280 0.1789 0.7006
H8 H 0.0405 0.1388 0.5730
O3 O 0.2386(2) 0.3656(2) 0.4730(6)
C10 C 0.2873(3) 0.4101(3) 0.4330(8)
C11 C 0.3356(3) 0.4262(3) 0.5599(8)
C12 C 0.3227(3) 0.4066(4) 0.7272(9)
C13_2 C 0.3663(3) 0.4260(4) 0.8480(9)
N2_2 N 0.4226(3) 0.4620(3) 0.8114(7)
C14 C 0.4351(3) 0.4796(4) 0.6487(8)
C15 C 0.3942(3) 0.4628(4) 0.5201(8)
C16 C 0.2981(3) 0.4445(4) 0.2893(10)
C17 C 0.2558(3) 0.4424(3) 0.1754(9)
O4 O 0.2022(2) 0.4058(3) 0.1797(7)
C18 C 0.2757(5) 0.4892(5) 0.0390(13)
H9 H 0.2835 0.3792 0.7591
H10_2 H 0.3559 0.4136 0.9634
H11 H 0.4751 0.5040 0.6177
H12 H 0.4055 0.4759 0.4056
H13 H 0.3380 0.4719 0.2648
H16 H 0.2928 0.5279 0.0937
N3 N 0.1287(3) 0.3727(4) 0.5219(7)
N4 N 0.2047(3) 0.2939(4) 0.1447(7)
Cu1_2 Cu 0.5000 1.0000 1.0000
O1_2 O 0.4281(2) 0.9677(2) 0.8603(6)
C1_2 C 0.3794(3) 0.9232(3) 0.9003(8)
C2 C 0.3311(3) 0.9071(3) 0.7734(8)
C3 C 0.3440(3) 0.9267(4) 0.6061(9)
C4 C 0.3004(3) 0.9073(4) 0.4853(9)
N1 N 0.2441(3) 0.8713(3) 0.5219(7)
C5 C 0.2316(3) 0.8537(4) 0.6846(8)
C6 C 0.2725(3) 0.8705(4) 0.8132(8)
H1 H 0.3832 0.9541 0.5742
H2 H 0.3108 0.9197 0.3699
H3 H 0.1916 0.8293 0.7156
H4 H 0.2612 0.8574 0.9277
N4_2 N 0.5380(3) 0.9606(4) 0.8114(7)
H6_2 H 0.4825 0.2405 0.0311
H7_2 H 0.4878 0.1825 0.0339
C12_2 C 0.2601(4) 0.2494(5) 0.0605(9)
C13_3 C 0.2407(4) 0.2736(5) 0.1813(9)
H9_2 H 0.2875 0.2376 0.0924
H10_3 H 0.2531 0.2756 0.2967
Cu1_3 Cu 0.6666 0.8333 0.3334
O1_3 O 0.6989(2) 0.7937(3) 0.1937(6)
C1_3 C 0.7434(3) 0.7895(4) 0.2337(8)
C2_2 C 0.7595(3) 0.7573(4) 0.1068(8)
C5_2 C 0.8129(4) 0.7112(5) 0.0180(8)
C6_2 C 0.7961(4) 0.7353(5) 0.1466(8)
C7_2 C 0.7778(4) 0.8131(5) 0.3774(10)
C8_2 C 0.7757(3) 0.8533(4) 0.4913(9)
O2_2 O 0.7391(3) 0.8703(4) 0.4870(7)
C9_2 C 0.8225(5) 0.8802(7) 0.6277(13)
H3_2 H 0.8373 0.6956 0.0490
H4_2 H 0.8092 0.7371 0.2611
H5 H 0.8052 0.8006 0.4019
H6_3 H 0.8158 0.9072 0.6978
H7_3 H 0.8211 0.8492 0.7006
H8_2 H 0.8612 0.9018 0.5730
O3_2 O 0.6344(2) 0.8730(3) 0.4730(6)
C10_2 C 0.5899(3) 0.8772(4) 0.4330(8)
C11_2 C 0.5738(3) 0.9094(4) 0.5599(8)
C12_3 C 0.5934(4) 0.9161(5) 0.7272(9)
C13_4 C 0.5740(4) 0.9403(5) 0.8480(9)
C14_2 C 0.5204(4) 0.9555(5) 0.6487(8)
C15_2 C 0.5372(4) 0.9314(5) 0.5201(8)
C16_2 C 0.5555(4) 0.8536(5) 0.2893(10)
C17_2 C 0.5576(3) 0.8134(4) 0.1754(9)
O4_2 O 0.5942(3) 0.7964(4) 0.1797(7)
C18_2 C 0.5108(5) 0.7865(7) 0.0390(13)
H9_3 H 0.6208 0.9043 0.7591
H10_4 H 0.5864 0.9423 0.9634
H11_2 H 0.4960 0.9711 0.6177
H12_2 H 0.5241 0.9296 0.4056
H13_2 H 0.5281 0.8661 0.2648
H16_2 H 0.4721 0.7649 0.0937
N3_2 N 0.6273(4) 0.7559(5) 0.5219(7)
N4_3 N 0.7061(4) 0.9107(5) 0.1447(7)
Cu1_4 Cu -0.0000 0.4999 1.0000
O1_4 O 0.0323(2) 0.4603(3) 0.8603(6)
C1_4 C 0.0768(3) 0.4561(4) 0.9003(8)
C2_3 C 0.0929(3) 0.4239(4) 0.7734(8)
C3_2 C 0.0733(4) 0.4172(5) 0.6061(9)
C4_2 C 0.0927(4) 0.3930(5) 0.4853(9)
C5_3 C 0.1463(4) 0.3778(5) 0.6846(8)
C6_3 C 0.1295(4) 0.4019(5) 0.8132(8)
H1_2 H 0.0459 0.4290 0.5742
H2_2 H 0.0803 0.3910 0.3699
H3_3 H 0.1707 0.3622 0.7156
H4_3 H 0.1426 0.4037 0.9277
N4_4 N 0.0394(4) 0.5774(5) 0.8114(7)
C13_5 C 0.7264(5) 0.9670(3) 0.1813(9)
H10_5 H 0.7244 0.9774 0.2967
O1_5 O 0.2063(3) 0.9053(2) 0.1937(6)
C1_5 C 0.2105(4) 0.9540(3) 0.2337(8)
C7_3 C 0.1869(5) 0.9648(3) 0.3774(10)
C8_3 C 0.1467(4) 0.9225(3) 0.4913(9)
O2_3 O 0.1297(4) 0.8689(2) 0.4870(7)
C9_3 C 0.1198(7) 0.9424(5) 0.6277(13)
H6_4 H 0.0928 0.9087 0.6978
H7_4 H 0.1508 0.9720 0.7006
H8_3 H 0.0982 0.9595 0.5730
O3_3 O 0.1270(3) 0.7614(2) 0.4730(6)
C10_3 C 0.1228(4) 0.7127(3) 0.4330(8)
C11_3 C 0.0906(4) 0.6644(3) 0.5599(8)
C12_4 C 0.0839(5) 0.6773(3) 0.7272(9)
C13_6 C 0.0597(5) 0.6337(3) 0.8480(9)
C14_3 C 0.0445(5) 0.5649(3) 0.6487(8)
C15_3 C 0.0686(5) 0.6058(3) 0.5201(8)
C16_3 C 0.1464(5) 0.7019(3) 0.2893(10)
C17_3 C 0.1866(4) 0.7442(3) 0.1754(9)
O4_3 O 0.2036(4) 0.7978(2) 0.1797(7)
C18_3 C 0.2135(7) 0.7243(5) 0.0390(13)
H9_4 H 0.0957 0.7165 0.7591
H10_6 H 0.0577 0.6441 0.9634
H11_3 H 0.0289 0.5249 0.6177
H12_3 H 0.0704 0.5945 0.4056
H13_3 H 0.1339 0.6620 0.2648
H16_3 H 0.2351 0.7072 0.0937
O1_6 O 0.5397(3) 0.5719(2) 0.8603(6)
C1_6 C 0.5439(4) 0.6206(3) 0.9003(8)
C2_4 C 0.5761(4) 0.6689(3) 0.7734(8)
C3_3 C 0.5828(5) 0.6560(3) 0.6061(9)
C4_3 C 0.6070(5) 0.6996(3) 0.4853(9)
C5_4 C 0.6222(5) 0.7684(3) 0.6846(8)
C6_4 C 0.5981(5) 0.7275(3) 0.8132(8)
H1_3 H 0.5710 0.6168 0.5742
H2_3 H 0.6090 0.6892 0.3699
H3_4 H 0.6378 0.8084 0.7156
H4_4 H 0.5963 0.7388 0.9277
C16_4 C 0.4797(5) 0.3686(3) 0.9560(10)
C17_4 C 0.5199(4) 0.4109(3) 0.8421(9)
O4_4 O 0.5369(4) 0.4645(2) 0.8464(7)
C18_4 C 0.5468(7) 0.3910(5) 0.7057(13)
H13_4 H 0.4672 0.3287 0.9315
H14 H 0.5738 0.4247 0.6356
H15 H 0.5158 0.3614 0.6328
H16_4 H 0.5684 0.3739 0.7604
C11_4 C 0.0023(3) 0.7595(3) 0.8932(8)
C14_4 C 0.1018(3) 0.8129(4) 0.9820(8)
C15_4 C 0.0609(3) 0.7961(4) 0.8534(8)
H11_4 H 0.1418 0.8373 0.9510
H12_4 H 0.0722 0.8092 0.7389
H13_5 H 0.0047 0.8052 0.5981
H6_5 H 0.7580 0.5175 0.0311
H7_5 H 0.6947 0.5122 0.0339
C12_5 C 0.9894(3) 0.7399(4) 0.0605(9)
H9_5 H 0.9502 0.7125 0.0924
Cu1_5 Cu 0.8333 0.6667 0.6667
O1_7 O 0.7614(2) 0.6344(2) 0.5270(6)
C1_7 C 0.7127(3) 0.5899(3) 0.5670(8)
C2_5 C 0.6644(3) 0.5738(3) 0.4401(8)
C3_4 C 0.6773(3) 0.5934(4) 0.2728(9)
C4_4 C 0.6337(3) 0.5740(4) 0.1520(9)
N1_2 N 0.5774(3) 0.5380(3) 0.1886(7)
C5_5 C 0.5649(3) 0.5204(4) 0.3513(8)
C6_5 C 0.6058(3) 0.5372(4) 0.4799(8)
C7_4 C 0.7019(3) 0.5555(4) 0.7107(10)
C8_4 C 0.7442(3) 0.5576(3) 0.8246(9)
O2_4 O 0.7978(2) 0.5942(3) 0.8203(7)
C9_4 C 0.7243(5) 0.5108(5) 0.9610(13)
H1_4 H 0.7165 0.6208 0.2409
H2_4 H 0.6441 0.5864 0.0366
H3_5 H 0.5249 0.4960 0.3823
H4_5 H 0.5945 0.5241 0.5944
H5_2 H 0.6620 0.5281 0.7352
H8_4 H 0.7072 0.4721 0.9063
O3_4 O 0.9053(2) 0.6989(2) 0.8063(6)
C10_4 C 0.9540(3) 0.7434(3) 0.7663(8)
C16_5 C 0.9648(3) 0.7778(4) 0.6226(10)
C17_5 C 0.9225(3) 0.7757(3) 0.5087(9)
O4_5 O 0.8689(2) 0.7391(3) 0.5130(7)
C18_5 C 0.9424(5) 0.8225(5) 0.3723(13)
H14_2 H 0.9087 0.8158 0.3022
H15_2 H 0.9720 0.8211 0.2994
H16_5 H 0.9595 0.8612 0.4270
Cu3_2 Cu 0.4999 0.5000 -0.0000
N3_3 N 0.7953(3) 0.7061(4) 0.8553(7)
N4_5 N 0.8713(3) 0.6273(4) 0.4781(7)
C4_5 C 0.9670(3) 0.2407(4) 0.8187(9)
N1_3 N 0.9107(3) 0.2047(3) 0.8553(7)
H2_5 H 0.9774 0.2531 0.7033
Cu3_3 Cu 0.8333 0.1666 0.6666
Cu1_6 Cu 0.5000 0.0000 0.0000
O3_5 O 0.5719(2) 0.0323(2) 0.1397(6)
C10_5 C 0.6206(3) 0.0768(3) 0.0997(8)
C11_5 C 0.6689(3) 0.0929(3) 0.2266(8)
C12_6 C 0.6560(3) 0.0733(4) 0.3939(9)
C13_7 C 0.6996(3) 0.0927(4) 0.5147(9)
N2_3 N 0.7559(3) 0.1287(3) 0.4781(7)
C14_5 C 0.7684(3) 0.1463(4) 0.3154(8)
C15_5 C 0.7275(3) 0.1295(4) 0.1868(8)
H9_6 H 0.6168 0.0459 0.4258
H10_7 H 0.6892 0.0803 0.6301
H11_5 H 0.8084 0.1707 0.2844
H12_5 H 0.7388 0.1426 0.0723
N3_4 N 0.4620(3) 0.0394(4) 0.1886(7)
Cu1_7 Cu 0.3333 0.1666 0.6667
O1_8 O 0.3656(2) 0.1270(3) 0.5270(6)
C1_8 C 0.4101(3) 0.1228(4) 0.5670(8)
C2_6 C 0.4262(3) 0.0906(4) 0.4401(8)
C3_5 C 0.4066(4) 0.0839(5) 0.2728(9)
C4_6 C 0.4260(4) 0.0597(5) 0.1520(9)
C5_6 C 0.4796(4) 0.0445(5) 0.3513(8)
C6_6 C 0.4628(4) 0.0686(5) 0.4799(8)
C7_5 C 0.4445(4) 0.1464(5) 0.7107(10)
C8_5 C 0.4424(3) 0.1866(4) 0.8246(9)
O2_5 O 0.4058(3) 0.2036(4) 0.8203(7)
C9_5 C 0.4892(5) 0.2135(7) 0.9610(13)
H1_5 H 0.3792 0.0957 0.2409
H2_6 H 0.4136 0.0577 0.0366
H3_6 H 0.5040 0.0289 0.3823
H4_6 H 0.4759 0.0704 0.5944
H5_3 H 0.4719 0.1339 0.7352
H8_5 H 0.5279 0.2351 0.9063
O3_6 O 0.3011(2) 0.2063(3) 0.8063(6)
C10_6 C 0.2566(3) 0.2105(4) 0.7663(8)
C11_6 C 0.2405(3) 0.2427(4) 0.8932(8)
C14_6 C 0.1871(4) 0.2888(5) 0.9820(8)
C15_6 C 0.2039(4) 0.2647(5) 0.8534(8)
C16_6 C 0.2222(4) 0.1869(5) 0.6226(10)
C17_6 C 0.2243(3) 0.1467(4) 0.5087(9)
O4_6 O 0.2609(3) 0.1297(4) 0.5130(7)
C18_6 C 0.1775(5) 0.1198(7) 0.3723(13)
H11_6 H 0.1627 0.3044 0.9510
H12_6 H 0.1908 0.2629 0.7389
H13_6 H 0.1948 0.1994 0.5981
H14_3 H 0.1842 0.0928 0.3022
H15_3 H 0.1789 0.1508 0.2994
H16_6 H 0.1388 0.0982 0.4270
N3_5 N 0.2939(4) 0.0893(5) 0.8553(7)
N4_6 N 0.3727(4) 0.2441(5) 0.4781(7)
C3_6 C 0.7399(4) 0.7506(5) 0.9395(9)
C4_7 C 0.7593(4) 0.7264(5) 0.8187(9)
H1_6 H 0.7125 0.7624 0.9076
H2_7 H 0.7469 0.7244 0.7033
H14_4 H 0.5175 0.7595 0.9689
H15_4 H 0.5122 0.8175 0.9661
Cu1_8 Cu 1.0000 0.4999 0.0000
O3_7 O 0.9677(2) 0.5397(3) 0.1397(6)
C10_7 C 0.9232(3) 0.5439(4) 0.0997(8)
C11_7 C 0.9071(3) 0.5761(4) 0.2266(8)
C12_7 C 0.9267(4) 0.5828(5) 0.3939(9)
C13_8 C 0.9073(4) 0.6070(5) 0.5147(9)
C14_7 C 0.8537(4) 0.6222(5) 0.3154(8)
C15_7 C 0.8705(4) 0.5981(5) 0.1868(8)
H9_7 H 0.9541 0.5710 0.4258
H10_8 H 0.9197 0.6090 0.6301
H11_7 H 0.8293 0.6378 0.2844
H12_7 H 0.8574 0.5963 0.0723
N3_6 N 0.9606(4) 0.4226(5) 0.1886(7)
O1_9 O 0.8730(3) 0.2386(2) 0.5270(6)
C1_9 C 0.8772(4) 0.2873(3) 0.5670(8)
C2_7 C 0.9094(4) 0.3356(3) 0.4401(8)
C3_7 C 0.9161(5) 0.3227(3) 0.2728(9)
C4_8 C 0.9403(5) 0.3663(3) 0.1520(9)
C5_7 C 0.9555(5) 0.4351(3) 0.3513(8)
C6_7 C 0.9314(5) 0.3942(3) 0.4799(8)
C7_6 C 0.8536(5) 0.2981(3) 0.7107(10)
C8_6 C 0.8134(4) 0.2558(3) 0.8246(9)
O2_6 O 0.7964(4) 0.2022(2) 0.8203(7)
C9_6 C 0.7865(7) 0.2757(5) 0.9610(13)
H1_7 H 0.9043 0.2835 0.2409
H2_8 H 0.9423 0.3559 0.0366
H3_7 H 0.9711 0.4751 0.3823
H4_7 H 0.9296 0.4055 0.5944
H5_4 H 0.8661 0.3380 0.7352
H8_6 H 0.7649 0.2928 0.9063
O3_8 O 0.7937(3) 0.0947(2) 0.8063(6)
C10_8 C 0.7895(4) 0.0460(3) 0.7663(8)
C16_7 C 0.8131(5) 0.0352(3) 0.6226(10)
C17_7 C 0.8533(4) 0.0775(3) 0.5087(9)
O4_7 O 0.8703(4) 0.1311(2) 0.5130(7)
C18_7 C 0.8802(7) 0.0576(5) 0.3723(13)
H14_5 H 0.9072 0.0913 0.3022
H15_5 H 0.8492 0.0280 0.2994
H16_7 H 0.9018 0.0405 0.4270
C4_9 C 0.2736(5) 0.0330(3) 0.8187(9)
H2_9 H 0.2756 0.0226 0.7033
C7_7 C 0.5203(5) 0.6314(3) 0.0440(10)
C8_7 C 0.4801(4) 0.5891(3) 0.1579(9)
O2_7 O 0.4631(4) 0.5355(2) 0.1536(7)
C9_7 C 0.4532(7) 0.6090(5) 0.2943(13)
H5_5 H 0.5328 0.6713 0.0685
H6_6 H 0.4262 0.5753 0.3644
H7_6 H 0.4842 0.6386 0.3672
H8_7 H 0.4316 0.6261 0.2396
O3_9 O 0.4603(3) 0.4281(2) 0.1397(6)
C10_9 C 0.4561(4) 0.3794(3) 0.0997(8)
C11_8 C 0.4239(4) 0.3311(3) 0.2266(8)
C12_8 C 0.4172(5) 0.3440(3) 0.3939(9)
C13_9 C 0.3930(5) 0.3004(3) 0.5147(9)
C14_8 C 0.3778(5) 0.2316(3) 0.3154(8)
C15_8 C 0.4019(5) 0.2725(3) 0.1868(8)
H9_8 H 0.4290 0.3832 0.4258
H10_9 H 0.3910 0.3108 0.6301
H11_8 H 0.3622 0.1916 0.2844
H12_8 H 0.4037 0.2612 0.0723
C3_8 C 0.0106(3) 0.2601(4) 0.9395(9)
H1_8 H 0.0498 0.2875 0.9076
H14_6 H 0.2420 0.4825 0.9689
H15_6 H 0.3053 0.4878 0.9661
C2_8 C 0.9977(3) 0.2405(3) 0.1068(8)
C5_8 C 0.8982(3) 0.1871(4) 0.0180(8)
C6_8 C 0.9391(3) 0.2039(4) 0.1466(8)
H3_8 H 0.8582 0.1627 0.0490
H4_8 H 0.9278 0.1908 0.2611
H5_6 H 0.9953 0.1948 0.4019
Cu1_9 Cu 0.5000 0.0000 1.0000
C16_8 C 0.6314(3) 0.1112(4) 0.9560(10)
C17_8 C 0.5891(3) 0.1091(3) 0.8421(9)
O4_8 O 0.5355(2) 0.0725(3) 0.8464(7)
C18_8 C 0.6090(5) 0.1559(5) 0.7057(13)
H13_7 H 0.6713 0.1386 0.9315
H14_7 H 0.5753 0.1492 0.6356
H15_7 H 0.6386 0.1545 0.6328
H16_8 H 0.6261 0.1946 0.7604
Cu1_10 Cu 0.5000 1.0000 0.0000
C7_8 C 0.3686(3) 0.8888(4) 0.0440(10)
C8_8 C 0.4109(3) 0.8909(3) 0.1579(9)
O2_8 O 0.4645(2) 0.9275(3) 0.1536(7)
C9_8 C 0.3910(5) 0.8441(5) 0.2943(13)
H5_7 H 0.3287 0.8614 0.0685
H6_7 H 0.4247 0.8508 0.3644
H7_7 H 0.3614 0.8455 0.3672
H8_8 H 0.3739 0.8054 0.2396
Cu1_11 Cu -0.0000 0.4999 0.0000
C7_9 C 0.1112(4) 0.4797(5) 0.0440(10)
C8_9 C 0.1091(3) 0.5199(4) 0.1579(9)
O2_9 O 0.0725(3) 0.5369(4) 0.1536(7)
C9_9 C 0.1559(5) 0.5468(7) 0.2943(13)
H5_8 H 0.1386 0.4672 0.0685
H6_8 H 0.1492 0.5738 0.3644
H7_8 H 0.1545 0.5158 0.3672
H8_9 H 0.1946 0.5684 0.2396
Cu1_12 Cu 1.0000 0.4999 1.0000
C16_9 C 0.8888(4) 0.5203(5) 0.9560(10)
C17_9 C 0.8909(3) 0.4801(4) 0.8421(9)
O4_9 O 0.9275(3) 0.4631(4) 0.8464(7)
C18_9 C 0.8441(5) 0.4532(7) 0.7057(13)
H13_8 H 0.8614 0.5328 0.9315
H14_8 H 0.8508 0.4262 0.6356
H15_8 H 0.8455 0.4842 0.6328
H16_9 H 0.8054 0.4316 0.7604
H6_9 H 0.7595 0.2420 0.0311
H7_9 H 0.8175 0.3053 0.0339
C12_9 C 0.7506(5) 0.0106(3) 0.0605(9)
H9_9 H 0.7624 0.0498 0.0924
C11_9 C 0.7573(4) 0.9977(3) 0.8932(8)
C14_9 C 0.7112(5) 0.8982(3) 0.9820(8)
C15_9 C 0.7353(5) 0.9391(3) 0.8534(8)
H11_9 H 0.6956 0.8582 0.9510
H12_9 H 0.7371 0.9278 0.7389
H13_9 H 0.8006 0.9953 0.5981
C2_9 C 0.2427(4) 0.0023(3) 0.1068(8)
C5_9 C 0.2888(5) 0.1018(3) 0.0180(8)
C6_9 C 0.2647(5) 0.0609(3) 0.1466(8)
H3_9 H 0.3044 0.1418 0.0490
H4_9 H 0.2629 0.0722 0.2611
H5_9 H 0.1994 0.0047 0.4019
C3_9 C 0.2494(5) 0.9894(3) 0.9395(9)
H1_9 H 0.2376 0.9502 0.9076
H14_9 H 0.2405 0.7580 0.9689
H15_9 H 0.1825 0.6947 0.9661
loop_
_geom_bond_atom_site_label_1
_geom_bond_atom_site_label_2
_geom_bond_site_symmetry_1
_geom_bond_site_symmetry_2
N2 C13 1_555 1_555
H10 C13 1_555 1_555
Cu2 N2 1_555 1_555
Cu1 O1 1_555 1_555
O1 C1 1_555 1_555
C7 C1 1_555 1_555
C8 C7 1_555 1_555
O2 Cu1 1_555 1_555
C9 C8 1_555 1_555
H6 C9 1_555 1_555
H7 C9 1_555 1_555
H8 C9 1_555 1_555
O3 Cu1 1_555 1_555
C10 O3 1_555 1_555
C11 C10 1_555 1_555
C12 C11 1_555 1_555
C13_2 C12 1_555 1_555
N2_2 C13_2 1_555 1_555
C14 N2_2 1_555 1_555
C15 C11 1_555 1_555
C16 C10 1_555 1_555
C17 C16 1_555 1_555
O4 Cu1 1_555 1_555
C18 C17 1_555 1_555
H9 C12 1_555 1_555
H10_2 C13_2 1_555 1_555
H11 C14 1_555 1_555
H12 C15 1_555 1_555
H13 C16 1_555 1_555
H16 C18 1_555 1_555
Cu3 N2_2 1_555 1_555
N3 Cu1 1_555 1_555
N4 Cu1 1_555 1_555
C8 O2 1_555 1_555
C14 C15 1_555 1_555
C17 O4 1_555 1_555
Cu1_2 O1_2 1_555 1_555
O1_2 C1_2 1_555 1_555
C1_2 C2 1_555 1_555
C2 C3 1_555 1_555
C3 C4 1_555 1_555
C4 N1 1_555 1_555
N1 C5 1_555 1_555
C5 C6 1_555 1_555
C6 C2 1_555 1_555
H1 C3 1_555 1_555
H2 C4 1_555 1_555
H3 C5 1_555 1_555
H4 C6 1_555 1_555
Cu2 N1 1_555 1_555
N4_2 Cu1_2 1_555 1_555
C13_3 C12_2 1_555 1_555
N4 C13_3 1_555 1_555
H9_2 C12_2 1_555 1_555
H10_3 C13_3 1_555 1_555
Cu1_3 O1_3 1_555 1_555
O1_3 C1_3 1_555 1_555
C1_3 C2_2 1_555 1_555
C5_2 C6_2 1_555 1_555
C6_2 C2_2 1_555 1_555
C7_2 C1_3 1_555 1_555
C8_2 C7_2 1_555 1_555
O2_2 Cu1_3 1_555 1_555
C9_2 C8_2 1_555 1_555
H3_2 C5_2 1_555 1_555
H4_2 C6_2 1_555 1_555
H5 C7_2 1_555 1_555
H6_3 C9_2 1_555 1_555
H7_3 C9_2 1_555 1_555
H8_2 C9_2 1_555 1_555
O3_2 Cu1_3 1_555 1_555
C10_2 O3_2 1_555 1_555
C11_2 C10_2 1_555 1_555
C12_3 C11_2 1_555 1_555
C13_4 C12_3 1_555 1_555
N4_2 C13_4 1_555 1_555
C14_2 N4_2 1_555 1_555
C15_2 C11_2 1_555 1_555
C16_2 C10_2 1_555 1_555
C17_2 C16_2 1_555 1_555
O4_2 Cu1_3 1_555 1_555
C18_2 C17_2 1_555 1_555
H9_3 C12_3 1_555 1_555
H10_4 C13_4 1_555 1_555
H11_2 C14_2 1_555 1_555
H12_2 C15_2 1_555 1_555
H13_2 C16_2 1_555 1_555
H16_2 C18_2 1_555 1_555
N3_2 Cu1_3 1_555 1_555
N4_3 Cu1_3 1_555 1_555
C8_2 O2_2 1_555 1_555
C14_2 C15_2 1_555 1_555
C17_2 O4_2 1_555 1_555
Cu1_4 O1_4 1_555 1_555
O1_4 C1_4 1_555 1_555
C1_4 C2_3 1_555 1_555
C2_3 C3_2 1_555 1_555
C3_2 C4_2 1_555 1_555
C4_2 N3 1_555 1_555
N3 C5_3 1_555 1_555
C5_3 C6_3 1_555 1_555
C6_3 C2_3 1_555 1_555
H1_2 C3_2 1_555 1_555
H2_2 C4_2 1_555 1_555
H3_3 C5_3 1_555 1_555
H4_3 C6_3 1_555 1_555
N4_4 Cu1_4 1_555 1_555
N4_3 C13_5 1_555 1_555
H10_5 C13_5 1_555 1_555
Cu2 O1_5 1_555 1_555
O1_5 C1_5 1_555 1_555
C7_3 C1_5 1_555 1_555
C8_3 C7_3 1_555 1_555
O2_3 Cu2 1_555 1_555
C9_3 C8_3 1_555 1_555
H6_4 C9_3 1_555 1_555
H7_4 C9_3 1_555 1_555
H8_3 C9_3 1_555 1_555
O3_3 Cu2 1_555 1_555
C10_3 O3_3 1_555 1_555
C11_3 C10_3 1_555 1_555
C12_4 C11_3 1_555 1_555
C13_6 C12_4 1_555 1_555
N4_4 C13_6 1_555 1_555
C14_3 N4_4 1_555 1_555
C15_3 C11_3 1_555 1_555
C16_3 C10_3 1_555 1_555
C17_3 C16_3 1_555 1_555
O4_3 Cu2 1_555 1_555
C18_3 C17_3 1_555 1_555
H9_4 C12_4 1_555 1_555
H10_6 C13_6 1_555 1_555
H11_3 C14_3 1_555 1_555
H12_3 C15_3 1_555 1_555
H13_3 C16_3 1_555 1_555
H16_3 C18_3 1_555 1_555
C8_3 O2_3 1_555 1_555
C14_3 C15_3 1_555 1_555
C17_3 O4_3 1_555 1_555
Cu3 O1_6 1_555 1_555
O1_6 C1_6 1_555 1_555
C1_6 C2_4 1_555 1_555
C2_4 C3_3 1_555 1_555
C3_3 C4_3 1_555 1_555
C4_3 N3_2 1_555 1_555
N3_2 C5_4 1_555 1_555
C5_4 C6_4 1_555 1_555
C6_4 C2_4 1_555 1_555
H1_3 C3_3 1_555 1_555
H2_3 C4_3 1_555 1_555
H3_4 C5_4 1_555 1_555
H4_4 C6_4 1_555 1_555
C17_4 C16_4 1_555 1_555
O4_4 Cu3 1_555 1_555
C18_4 C17_4 1_555 1_555
H13_4 C16_4 1_555 1_555
H14 C18_4 1_555 1_555
H15 C18_4 1_555 1_555
H16_4 C18_4 1_555 1_555
C17_4 O4_4 1_555 1_555
C15_4 C11_4 1_555 1_555
H11_4 C14_4 1_555 1_555
H12_4 C15_4 1_555 1_555
C14_4 C15_4 1_555 1_555
H9_5 C12_5 1_555 1_555
Cu1_5 O1_7 1_555 1_555
O1_7 C1_7 1_555 1_555
C1_7 C2_5 1_555 1_555
C2_5 C3_4 1_555 1_555
C3_4 C4_4 1_555 1_555
C4_4 N1_2 1_555 1_555
N1_2 C5_5 1_555 1_555
C5_5 C6_5 1_555 1_555
C6_5 C2_5 1_555 1_555
C7_4 C1_7 1_555 1_555
C8_4 C7_4 1_555 1_555
O2_4 Cu1_5 1_555 1_555
C9_4 C8_4 1_555 1_555
H1_4 C3_4 1_555 1_555
H2_4 C4_4 1_555 1_555
H3_5 C5_5 1_555 1_555
H4_5 C6_5 1_555 1_555
H5_2 C7_4 1_555 1_555
H8_4 C9_4 1_555 1_555
O3_4 Cu1_5 1_555 1_555
C10_4 O3_4 1_555 1_555
C16_5 C10_4 1_555 1_555
C17_5 C16_5 1_555 1_555
O4_5 Cu1_5 1_555 1_555
C18_5 C17_5 1_555 1_555
H14_2 C18_5 1_555 1_555
H15_2 C18_5 1_555 1_555
H16_5 C18_5 1_555 1_555
Cu3_2 N1_2 1_555 1_555
N3_3 Cu1_5 1_555 1_555
N4_5 Cu1_5 1_555 1_555
C8_4 O2_4 1_555 1_555
C17_5 O4_5 1_555 1_555
C4_5 N1_3 1_555 1_555
H2_5 C4_5 1_555 1_555
Cu3_3 N1_3 1_555 1_555
O3_5 Cu1_6 1_555 1_555
C10_5 O3_5 1_555 1_555
C11_5 C10_5 1_555 1_555
C12_6 C11_5 1_555 1_555
C13_7 C12_6 1_555 1_555
N2_3 C13_7 1_555 1_555
C14_5 N2_3 1_555 1_555
C15_5 C11_5 1_555 1_555
H9_6 C12_6 1_555 1_555
H10_7 C13_7 1_555 1_555
H11_5 C14_5 1_555 1_555
H12_5 C15_5 1_555 1_555
Cu3_3 N2_3 1_555 1_555
N3_4 Cu1_6 1_555 1_555
C14_5 C15_5 1_555 1_555
Cu1_7 O1_8 1_555 1_555
O1_8 C1_8 1_555 1_555
C1_8 C2_6 1_555 1_555
C2_6 C3_5 1_555 1_555
C3_5 C4_6 1_555 1_555
C4_6 N3_4 1_555 1_555
N3_4 C5_6 1_555 1_555
C5_6 C6_6 1_555 1_555
C6_6 C2_6 1_555 1_555
C7_5 C1_8 1_555 1_555
C8_5 C7_5 1_555 1_555
O2_5 Cu1_7 1_555 1_555
C9_5 C8_5 1_555 1_555
H1_5 C3_5 1_555 1_555
H2_6 C4_6 1_555 1_555
H3_6 C5_6 1_555 1_555
H4_6 C6_6 1_555 1_555
H5_3 C7_5 1_555 1_555
H8_5 C9_5 1_555 1_555
O3_6 Cu1_7 1_555 1_555
C10_6 O3_6 1_555 1_555
C11_6 C10_6 1_555 1_555
C15_6 C11_6 1_555 1_555
C16_6 C10_6 1_555 1_555
C17_6 C16_6 1_555 1_555
O4_6 Cu1_7 1_555 1_555
C18_6 C17_6 1_555 1_555
H11_6 C14_6 1_555 1_555
H12_6 C15_6 1_555 1_555
H13_6 C16_6 1_555 1_555
H14_3 C18_6 1_555 1_555
H15_3 C18_6 1_555 1_555
H16_6 C18_6 1_555 1_555
N3_5 Cu1_7 1_555 1_555
N4_6 Cu1_7 1_555 1_555
C8_5 O2_5 1_555 1_555
C14_6 C15_6 1_555 1_555
C17_6 O4_6 1_555 1_555
C3_6 C4_7 1_555 1_555
C4_7 N3_3 1_555 1_555
H1_6 C3_6 1_555 1_555
H2_7 C4_7 1_555 1_555
O3_7 Cu1_8 1_555 1_555
C10_7 O3_7 1_555 1_555
C11_7 C10_7 1_555 1_555
C12_7 C11_7 1_555 1_555
C13_8 C12_7 1_555 1_555
N4_5 C13_8 1_555 1_555
C14_7 N4_5 1_555 1_555
C15_7 C11_7 1_555 1_555
H9_7 C12_7 1_555 1_555
H10_8 C13_8 1_555 1_555
H11_7 C14_7 1_555 1_555
H12_7 C15_7 1_555 1_555
N3_6 Cu1_8 1_555 1_555
C14_7 C15_7 1_555 1_555
Cu3_3 O1_9 1_555 1_555
O1_9 C1_9 1_555 1_555
C1_9 C2_7 1_555 1_555
C2_7 C3_7 1_555 1_555
C3_7 C4_8 1_555 1_555
C4_8 N3_6 1_555 1_555
N3_6 C5_7 1_555 1_555
C5_7 C6_7 1_555 1_555
C6_7 C2_7 1_555 1_555
C7_6 C1_9 1_555 1_555
C8_6 C7_6 1_555 1_555
O2_6 Cu3_3 1_555 1_555
C9_6 C8_6 1_555 1_555
H1_7 C3_7 1_555 1_555
H2_8 C4_8 1_555 1_555
H3_7 C5_7 1_555 1_555
H4_7 C6_7 1_555 1_555
H5_4 C7_6 1_555 1_555
H8_6 C9_6 1_555 1_555
O3_8 Cu3_3 1_555 1_555
C10_8 O3_8 1_555 1_555
C16_7 C10_8 1_555 1_555
C17_7 C16_7 1_555 1_555
O4_7 Cu3_3 1_555 1_555
C18_7 C17_7 1_555 1_555
H14_5 C18_7 1_555 1_555
H15_5 C18_7 1_555 1_555
H16_7 C18_7 1_555 1_555
C8_6 O2_6 1_555 1_555
C17_7 O4_7 1_555 1_555
C4_9 N3_5 1_555 1_555
H2_9 C4_9 1_555 1_555
C8_7 C7_7 1_555 1_555
O2_7 Cu3_2 1_555 1_555
C9_7 C8_7 1_555 1_555
H5_5 C7_7 1_555 1_555
H6_6 C9_7 1_555 1_555
H7_6 C9_7 1_555 1_555
H8_7 C9_7 1_555 1_555
O3_9 Cu3_2 1_555 1_555
C10_9 O3_9 1_555 1_555
C11_8 C10_9 1_555 1_555
C12_8 C11_8 1_555 1_555
C13_9 C12_8 1_555 1_555
N4_6 C13_9 1_555 1_555
C14_8 N4_6 1_555 1_555
C15_8 C11_8 1_555 1_555
H9_8 C12_8 1_555 1_555
H10_9 C13_9 1_555 1_555
H11_8 C14_8 1_555 1_555
H12_8 C15_8 1_555 1_555
C8_7 O2_7 1_555 1_555
C14_8 C15_8 1_555 1_555
H1_8 C3_8 1_555 1_555
C5_8 C6_8 1_555 1_555
C6_8 C2_8 1_555 1_555
H3_8 C5_8 1_555 1_555
H4_8 C6_8 1_555 1_555
C17_8 C16_8 1_555 1_555
O4_8 Cu1_9 1_555 1_555
C18_8 C17_8 1_555 1_555
H13_7 C16_8 1_555 1_555
H14_7 C18_8 1_555 1_555
H15_7 C18_8 1_555 1_555
H16_8 C18_8 1_555 1_555
C17_8 O4_8 1_555 1_555
C8_8 C7_8 1_555 1_555
O2_8 Cu1_10 1_555 1_555
C9_8 C8_8 1_555 1_555
H5_7 C7_8 1_555 1_555
H6_7 C9_8 1_555 1_555
H7_7 C9_8 1_555 1_555
H8_8 C9_8 1_555 1_555
C8_8 O2_8 1_555 1_555
C8_9 C7_9 1_555 1_555
O2_9 Cu1_11 1_555 1_555
C9_9 C8_9 1_555 1_555
H5_8 C7_9 1_555 1_555
H6_8 C9_9 1_555 1_555
H7_8 C9_9 1_555 1_555
H8_9 C9_9 1_555 1_555
C8_9 O2_9 1_555 1_555
C17_9 C16_9 1_555 1_555
O4_9 Cu1_12 1_555 1_555
C18_9 C17_9 1_555 1_555
H13_8 C16_9 1_555 1_555
H14_8 C18_9 1_555 1_555
H15_8 C18_9 1_555 1_555
H16_9 C18_9 1_555 1_555
C17_9 O4_9 1_555 1_555
H9_9 C12_9 1_555 1_555
C15_9 C11_9 1_555 1_555
H11_9 C14_9 1_555 1_555
H12_9 C15_9 1_555 1_555
C14_9 C15_9 1_555 1_555
C5_9 C6_9 1_555 1_555
C6_9 C2_9 1_555 1_555
H3_9 C5_9 1_555 1_555
H4_9 C6_9 1_555 1_555
H1_9 C3_9 1_555 1_555

#END
