
###############################################################################
#
# This file contains modified crystal structure data generated from the
# MOF subset of the Cambridge Structural Database (CSD) v543 
# hosted by the Cambridge Crystallographic Data Centre (CCDC).
#
# This work is licensed under the Creative Commons
# Attribution-NonCommercial-ShareAlike 4.0 International License.
# To view a copy of this license, visit
# http://creativecommons.org/licenses/by-nc-sa/4.0/
# or send a letter to
# Creative Commons, PO Box 1866, Mountain View, CA 94042, USA.
#
# CIF created using the CSD Python API on 29 September 2022
# The structure has been converted into the P1 space group
# The structure has a 3D framework
# The original CSD entry ECAHIB16 is in the rhombohedral crystal system
# The framework has been calculated to contain at least 10.0% void space
# The void calculation uses a probe of radius 1.32A, grid spacing 0.4
#
###############################################################################

data_ECAHIB16
_chemical_formula_moiety         '(C162 H144 Cu16 N18 O36)n'
_symmetry_cell_setting           triclinic
_symmetry_space_group_name_H-M   'P 1'
_symmetry_Int_Tables_number      1
_space_group_name_Hall           'P 1'
loop_
_symmetry_equiv_pos_site_id
_symmetry_equiv_pos_as_xyz
1 x,y,z
_cell_length_a                   26.038(3)
_cell_length_b                   26.038(3)
_cell_length_c                   7.7843(10)
_cell_angle_alpha                90
_cell_angle_beta                 90
_cell_angle_gamma                120
_cell_volume                     4570.52
loop_
_atom_site_label
_atom_site_type_symbol
_atom_site_fract_x
_atom_site_fract_y
_atom_site_fract_z
C13 C 0.0362(5) 0.7602(7) 0.1815(12)
N2 N 0.0928(4) 0.7973(5) 0.1454(12)
H10 H 0.0260 0.7455 0.2955
Cu2 Cu 0.1666 0.8333 0.3333
Cu3 Cu 0.4999 0.5000 1.0000
Cu1 Cu 0.1666 0.3334 0.3334
O1 O 0.0933(4) 0.3016(4) 0.1950(11)
C1 C 0.0444(4) 0.2557(5) 0.2336(13)
C7 C 0.0333(4) 0.2213(6) 0.3780(14)
C8 C 0.0754(4) 0.2225(6) 0.4927(16)
O2 O 0.1300(4) 0.2581(5) 0.4876(11)
C9 C 0.0538(7) 0.1736(7) 0.624(2)
H6 H 0.0877 0.1727 0.6755
H7 H 0.0321 0.1815 0.7123
H8 H 0.0275 0.1352 0.5696
O3 O 0.2400(4) 0.3651(4) 0.4717(11)
C10 C 0.2889(4) 0.4110(5) 0.4331(13)
C11 C 0.3380(4) 0.4277(6) 0.5610(11)
C12 C 0.3251(4) 0.4065(7) 0.7276(13)
C13_2 C 0.3695(5) 0.4269(7) 0.8482(12)
N2_2 N 0.4261(4) 0.4640(5) 0.8121(12)
C14 C 0.4386(4) 0.4821(6) 0.6492(13)
C15 C 0.3972(4) 0.4656(7) 0.5231(12)
C16 C 0.3000(4) 0.4454(6) 0.2887(14)
C17 C 0.2579(4) 0.4442(6) 0.1740(16)
O4 O 0.2033(4) 0.4086(5) 0.1791(11)
C18 C 0.2795(7) 0.4931(7) 0.043(2)
H9 H 0.2855 0.3795 0.7618
H10_2 H 0.3593 0.4122 0.9622
H11 H 0.4793 0.5067 0.6207
H12 H 0.4094 0.4808 0.4103
H13 H 0.3407 0.4725 0.2670
H16 H 0.3058 0.5315 0.0971
N3 N 0.1307(5) 0.3712(6) 0.5212(12)
N4 N 0.2027(5) 0.2954(6) 0.1454(12)
Cu1_2 Cu 0.5000 1.0000 1.0000
O1_2 O 0.4267(4) 0.9682(4) 0.8616(11)
C1_2 C 0.3778(4) 0.9223(5) 0.9002(13)
C2 C 0.3287(4) 0.9056(6) 0.7723(11)
C3 C 0.3416(4) 0.9268(7) 0.6057(13)
C4 C 0.2972(5) 0.9064(7) 0.4851(12)
N1 N 0.2406(4) 0.8693(5) 0.5212(12)
C5 C 0.2281(4) 0.8512(6) 0.6841(13)
C6 C 0.2695(4) 0.8677(7) 0.8102(12)
H1 H 0.3812 0.9538 0.5715
H2 H 0.3074 0.9211 0.3711
H3 H 0.1874 0.8266 0.7126
H4 H 0.2573 0.8525 0.9230
N4_2 N 0.5360(5) 0.9621(6) 0.8121(12)
H6_2 H 0.4940 0.2484 0.0088
H7_2 H 0.4852 0.1840 0.0456
C12_2 C 0.2602(7) 0.2519(8) 0.0609(13)
C13_3 C 0.2398(7) 0.2759(9) 0.1815(12)
H9_2 H 0.2872 0.2393 0.0951
H10_3 H 0.2545 0.2804 0.2955
Cu1_3 Cu 0.6666 0.8333 0.3334
O1_3 O 0.6984(4) 0.7918(6) 0.1950(11)
C1_3 C 0.7443(5) 0.7888(6) 0.2336(13)
C2_2 C 0.7610(6) 0.7564(7) 0.1057(11)
C5_2 C 0.8154(6) 0.7102(7) 0.0175(13)
C6_2 C 0.7989(7) 0.7351(8) 0.1436(12)
C7_2 C 0.7787(6) 0.8121(7) 0.3780(14)
C8_2 C 0.7775(6) 0.8530(7) 0.4927(16)
O2_2 O 0.7419(5) 0.8720(6) 0.4876(11)
C9_2 C 0.8264(7) 0.8803(10) 0.624(2)
H3_2 H 0.8400 0.6941 0.0460
H4_2 H 0.8141 0.7381 0.2564
H5 H 0.8058 0.7985 0.3997
H6_3 H 0.8273 0.9151 0.6755
H7_3 H 0.8185 0.8507 0.7123
H8_2 H 0.8648 0.8924 0.5696
O3_2 O 0.6349(4) 0.8749(6) 0.4717(11)
C10_2 C 0.5890(5) 0.8779(6) 0.4331(13)
C11_2 C 0.5723(6) 0.9103(7) 0.5610(11)
C12_3 C 0.5935(7) 0.9186(8) 0.7276(13)
C13_4 C 0.5731(7) 0.9426(9) 0.8482(12)
C14_2 C 0.5179(6) 0.9565(7) 0.6492(13)
C15_2 C 0.5344(7) 0.9316(8) 0.5231(12)
C16_2 C 0.5546(6) 0.8546(7) 0.2887(14)
C17_2 C 0.5558(6) 0.8137(7) 0.1740(16)
O4_2 O 0.5914(5) 0.7947(6) 0.1791(11)
C18_2 C 0.5069(7) 0.7864(10) 0.043(2)
H9_3 H 0.6205 0.9060 0.7618
H10_4 H 0.5878 0.9471 0.9622
H11_2 H 0.4933 0.9726 0.6207
H12_2 H 0.5192 0.9286 0.4103
H13_2 H 0.5275 0.8682 0.2670
H16_2 H 0.4685 0.7743 0.0971
N3_2 N 0.6288(6) 0.7594(8) 0.5212(12)
N4_3 N 0.7046(6) 0.9072(8) 0.1454(12)
Cu1_4 Cu -0.0000 0.4999 1.0000
O1_4 O 0.0318(4) 0.4584(6) 0.8616(11)
C1_4 C 0.0777(5) 0.4554(6) 0.9002(13)
C2_3 C 0.0944(6) 0.4230(7) 0.7723(11)
C3_2 C 0.0732(7) 0.4147(8) 0.6057(13)
C4_2 C 0.0936(7) 0.3907(9) 0.4851(12)
C5_3 C 0.1488(6) 0.3768(7) 0.6841(13)
C6_3 C 0.1323(7) 0.4017(8) 0.8102(12)
H1_2 H 0.0462 0.4273 0.5715
H2_2 H 0.0789 0.3862 0.3711
H3_3 H 0.1734 0.3607 0.7126
H4_3 H 0.1475 0.4047 0.9230
N4_4 N 0.0379(6) 0.5739(8) 0.8121(12)
C13_5 C 0.7241(9) 0.9638(5) 0.1815(12)
H10_5 H 0.7196 0.9740 0.2955
O1_5 O 0.2082(6) 0.9067(4) 0.1950(11)
C1_5 C 0.2112(6) 0.9556(4) 0.2336(13)
C7_3 C 0.1879(7) 0.9667(4) 0.3780(14)
C8_3 C 0.1470(7) 0.9246(4) 0.4927(16)
O2_3 O 0.1280(6) 0.8700(4) 0.4876(11)
C9_3 C 0.1197(10) 0.9462(7) 0.624(2)
H6_4 H 0.0849 0.9123 0.6755
H7_4 H 0.1493 0.9679 0.7123
H8_3 H 0.1076 0.9725 0.5696
O3_3 O 0.1251(6) 0.7600(4) 0.4717(11)
C10_3 C 0.1221(6) 0.7111(4) 0.4331(13)
C11_3 C 0.0897(7) 0.6620(4) 0.5610(11)
C12_4 C 0.0814(8) 0.6749(4) 0.7276(13)
C13_6 C 0.0574(9) 0.6305(5) 0.8482(12)
C14_3 C 0.0435(7) 0.5614(4) 0.6492(13)
C15_3 C 0.0684(8) 0.6028(4) 0.5231(12)
C16_3 C 0.1454(7) 0.7000(4) 0.2887(14)
C17_3 C 0.1863(7) 0.7421(4) 0.1740(16)
O4_3 O 0.2053(6) 0.7967(4) 0.1791(11)
C18_3 C 0.2136(10) 0.7205(7) 0.043(2)
H9_4 H 0.0940 0.7145 0.7618
H10_6 H 0.0529 0.6407 0.9622
H11_3 H 0.0274 0.5207 0.6207
H12_3 H 0.0714 0.5906 0.4103
H13_3 H 0.1318 0.6593 0.2670
H16_3 H 0.2257 0.6942 0.0971
O1_6 O 0.5416(6) 0.5733(4) 0.8616(11)
C1_6 C 0.5446(6) 0.6222(4) 0.9002(13)
C2_4 C 0.5770(7) 0.6713(4) 0.7723(11)
C3_3 C 0.5853(8) 0.6584(4) 0.6057(13)
C4_3 C 0.6093(9) 0.7028(5) 0.4851(12)
C5_4 C 0.6232(7) 0.7719(4) 0.6841(13)
C6_4 C 0.5983(8) 0.7305(4) 0.8102(12)
H1_3 H 0.5727 0.6188 0.5715
H2_3 H 0.6138 0.6926 0.3711
H3_4 H 0.6393 0.8126 0.7126
H4_4 H 0.5953 0.7427 0.9230
C16_4 C 0.4787(7) 0.3667(4) 0.9554(14)
C17_4 C 0.5196(7) 0.4088(4) 0.8407(16)
O4_4 O 0.5386(6) 0.4634(4) 0.8458(11)
C18_4 C 0.5469(10) 0.3872(7) 0.710(2)
H13_4 H 0.4651 0.3260 0.9337
H14 H 0.5817 0.4211 0.6579
H15 H 0.5173 0.3655 0.6211
H16_4 H 0.5590 0.3609 0.7638
C11_4 C 0.0047(4) 0.7610(6) 0.8943(11)
C14_4 C 0.1053(4) 0.8154(6) 0.9825(13)
C15_4 C 0.0639(4) 0.7989(7) 0.8564(12)
H11_4 H 0.1460 0.8400 0.9540
H12_4 H 0.0761 0.8141 0.7436
H13_5 H 0.0074 0.8058 0.6003
H6_5 H 0.7544 0.5060 0.0088
H7_5 H 0.6988 0.5148 0.0456
C12_5 C 0.9918(4) 0.7398(7) 0.0609(13)
H9_5 H 0.9522 0.7128 0.0951
Cu1_5 Cu 0.8333 0.6667 0.6667
O1_7 O 0.7600(4) 0.6349(4) 0.5283(11)
C1_7 C 0.7111(4) 0.5890(5) 0.5669(13)
C2_5 C 0.6620(4) 0.5723(6) 0.4390(11)
C3_4 C 0.6749(4) 0.5935(7) 0.2724(13)
C4_4 C 0.6305(5) 0.5731(7) 0.1518(12)
N1_2 N 0.5739(4) 0.5360(5) 0.1879(12)
C5_5 C 0.5614(4) 0.5179(6) 0.3508(13)
C6_5 C 0.6028(4) 0.5344(7) 0.4769(12)
C7_4 C 0.7000(4) 0.5546(6) 0.7113(14)
C8_4 C 0.7421(4) 0.5558(6) 0.8260(16)
O2_4 O 0.7967(4) 0.5914(5) 0.8209(11)
C9_4 C 0.7205(7) 0.5069(7) 0.957(2)
H1_4 H 0.7145 0.6205 0.2382
H2_4 H 0.6407 0.5878 0.0378
H3_5 H 0.5207 0.4933 0.3793
H4_5 H 0.5906 0.5192 0.5897
H5_2 H 0.6593 0.5275 0.7330
H8_4 H 0.6942 0.4685 0.9029
O3_4 O 0.9067(4) 0.6984(4) 0.8050(11)
C10_4 C 0.9556(4) 0.7443(5) 0.7664(13)
C16_5 C 0.9667(4) 0.7787(6) 0.6220(14)
C17_5 C 0.9246(4) 0.7775(6) 0.5073(16)
O4_5 O 0.8700(4) 0.7419(5) 0.5124(11)
C18_5 C 0.9462(7) 0.8264(7) 0.376(2)
H14_2 H 0.9123 0.8273 0.3245
H15_2 H 0.9679 0.8185 0.2877
H16_5 H 0.9725 0.8648 0.4304
Cu3_2 Cu 0.4999 0.5000 -0.0000
N3_3 N 0.7973(5) 0.7046(6) 0.8546(12)
N4_5 N 0.8693(5) 0.6288(6) 0.4788(12)
C4_5 C 0.9638(5) 0.2398(7) 0.8185(12)
N1_3 N 0.9072(4) 0.2027(5) 0.8546(12)
H2_5 H 0.9740 0.2545 0.7045
Cu3_3 Cu 0.8333 0.1666 0.6666
Cu1_6 Cu 0.5000 0.0000 0.0000
O3_5 O 0.5733(4) 0.0318(4) 0.1384(11)
C10_5 C 0.6222(4) 0.0777(5) 0.0998(13)
C11_5 C 0.6713(4) 0.0944(6) 0.2277(11)
C12_6 C 0.6584(4) 0.0732(7) 0.3943(13)
C13_7 C 0.7028(5) 0.0936(7) 0.5149(12)
N2_3 N 0.7594(4) 0.1307(5) 0.4788(12)
C14_5 C 0.7719(4) 0.1488(6) 0.3159(13)
C15_5 C 0.7305(4) 0.1323(7) 0.1898(12)
H9_6 H 0.6188 0.0462 0.4285
H10_7 H 0.6926 0.0789 0.6289
H11_5 H 0.8126 0.1734 0.2874
H12_5 H 0.7427 0.1475 0.0770
N3_4 N 0.4640(5) 0.0379(6) 0.1879(12)
Cu1_7 Cu 0.3333 0.1666 0.6667
O1_8 O 0.3651(4) 0.1251(6) 0.5283(11)
C1_8 C 0.4110(5) 0.1221(6) 0.5669(13)
C2_6 C 0.4277(6) 0.0897(7) 0.4390(11)
C3_5 C 0.4065(7) 0.0814(8) 0.2724(13)
C4_6 C 0.4269(7) 0.0574(9) 0.1518(12)
C5_6 C 0.4821(6) 0.0435(7) 0.3508(13)
C6_6 C 0.4656(7) 0.0684(8) 0.4769(12)
C7_5 C 0.4454(6) 0.1454(7) 0.7113(14)
C8_5 C 0.4442(6) 0.1863(7) 0.8260(16)
O2_5 O 0.4086(5) 0.2053(6) 0.8209(11)
C9_5 C 0.4931(7) 0.2136(10) 0.957(2)
H1_5 H 0.3795 0.0940 0.2382
H2_6 H 0.4122 0.0529 0.0378
H3_6 H 0.5067 0.0274 0.3793
H4_6 H 0.4808 0.0714 0.5897
H5_3 H 0.4725 0.1318 0.7330
H8_5 H 0.5315 0.2257 0.9029
O3_6 O 0.3016(4) 0.2082(6) 0.8050(11)
C10_6 C 0.2557(5) 0.2112(6) 0.7664(13)
C11_6 C 0.2390(6) 0.2436(7) 0.8943(11)
C14_6 C 0.1846(6) 0.2898(7) 0.9825(13)
C15_6 C 0.2011(7) 0.2649(8) 0.8564(12)
C16_6 C 0.2213(6) 0.1879(7) 0.6220(14)
C17_6 C 0.2225(6) 0.1470(7) 0.5073(16)
O4_6 O 0.2581(5) 0.1280(6) 0.5124(11)
C18_6 C 0.1736(7) 0.1197(10) 0.376(2)
H11_6 H 0.1600 0.3059 0.9540
H12_6 H 0.1859 0.2619 0.7436
H13_6 H 0.1942 0.2015 0.6003
H14_3 H 0.1727 0.0849 0.3245
H15_3 H 0.1815 0.1493 0.2877
H16_6 H 0.1352 0.1076 0.4304
N3_5 N 0.2954(6) 0.0928(8) 0.8546(12)
N4_6 N 0.3712(6) 0.2406(8) 0.4788(12)
C3_6 C 0.7398(7) 0.7481(8) 0.9391(13)
C4_7 C 0.7602(7) 0.7241(9) 0.8185(12)
H1_6 H 0.7128 0.7607 0.9049
H2_7 H 0.7455 0.7196 0.7045
H14_4 H 0.5060 0.7516 0.9912
H15_4 H 0.5148 0.8160 0.9544
Cu1_8 Cu 1.0000 0.4999 0.0000
O3_7 O 0.9682(4) 0.5416(6) 0.1384(11)
C10_7 C 0.9223(5) 0.5446(6) 0.0998(13)
C11_7 C 0.9056(6) 0.5770(7) 0.2277(11)
C12_7 C 0.9268(7) 0.5853(8) 0.3943(13)
C13_8 C 0.9064(7) 0.6093(9) 0.5149(12)
C14_7 C 0.8512(6) 0.6232(7) 0.3159(13)
C15_7 C 0.8677(7) 0.5983(8) 0.1898(12)
H9_7 H 0.9538 0.5727 0.4285
H10_8 H 0.9211 0.6138 0.6289
H11_7 H 0.8266 0.6393 0.2874
H12_7 H 0.8525 0.5953 0.0770
N3_6 N 0.9621(6) 0.4261(8) 0.1879(12)
O1_9 O 0.8749(6) 0.2400(4) 0.5283(11)
C1_9 C 0.8779(6) 0.2889(4) 0.5669(13)
C2_7 C 0.9103(7) 0.3380(4) 0.4390(11)
C3_7 C 0.9186(8) 0.3251(4) 0.2724(13)
C4_8 C 0.9426(9) 0.3695(5) 0.1518(12)
C5_7 C 0.9565(7) 0.4386(4) 0.3508(13)
C6_7 C 0.9316(8) 0.3972(4) 0.4769(12)
C7_6 C 0.8546(7) 0.3000(4) 0.7113(14)
C8_6 C 0.8137(7) 0.2579(4) 0.8260(16)
O2_6 O 0.7947(6) 0.2033(4) 0.8209(11)
C9_6 C 0.7864(10) 0.2795(7) 0.957(2)
H1_7 H 0.9060 0.2855 0.2382
H2_8 H 0.9471 0.3593 0.0378
H3_7 H 0.9726 0.4793 0.3793
H4_7 H 0.9286 0.4094 0.5897
H5_4 H 0.8682 0.3407 0.7330
H8_6 H 0.7743 0.3058 0.9029
O3_8 O 0.7918(6) 0.0933(4) 0.8050(11)
C10_8 C 0.7888(6) 0.0444(4) 0.7664(13)
C16_7 C 0.8121(7) 0.0333(4) 0.6220(14)
C17_7 C 0.8530(7) 0.0754(4) 0.5073(16)
O4_7 O 0.8720(6) 0.1300(4) 0.5124(11)
C18_7 C 0.8803(10) 0.0538(7) 0.376(2)
H14_5 H 0.9151 0.0877 0.3245
H15_5 H 0.8507 0.0321 0.2877
H16_7 H 0.8924 0.0275 0.4304
C4_9 C 0.2759(9) 0.0362(5) 0.8185(12)
H2_9 H 0.2804 0.0260 0.7045
C7_7 C 0.5213(7) 0.6333(4) 0.0446(14)
C8_7 C 0.4804(7) 0.5912(4) 0.1593(16)
O2_7 O 0.4614(6) 0.5366(4) 0.1542(11)
C9_7 C 0.4531(10) 0.6128(7) 0.290(2)
H5_5 H 0.5349 0.6740 0.0663
H6_6 H 0.4183 0.5789 0.3421
H7_6 H 0.4827 0.6345 0.3789
H8_7 H 0.4410 0.6391 0.2362
O3_9 O 0.4584(6) 0.4267(4) 0.1384(11)
C10_9 C 0.4554(6) 0.3778(4) 0.0998(13)
C11_8 C 0.4230(7) 0.3287(4) 0.2277(11)
C12_8 C 0.4147(8) 0.3416(4) 0.3943(13)
C13_9 C 0.3907(9) 0.2972(5) 0.5149(12)
C14_8 C 0.3768(7) 0.2281(4) 0.3159(13)
C15_8 C 0.4017(8) 0.2695(4) 0.1898(12)
H9_8 H 0.4273 0.3812 0.4285
H10_9 H 0.3862 0.3074 0.6289
H11_8 H 0.3607 0.1874 0.2874
H12_8 H 0.4047 0.2573 0.0770
C3_8 C 0.0082(4) 0.2602(7) 0.9391(13)
H1_8 H 0.0478 0.2872 0.9049
H14_6 H 0.2456 0.4940 0.9912
H15_6 H 0.3012 0.4852 0.9544
C2_8 C 0.9953(4) 0.2390(6) 0.1057(11)
C5_8 C 0.8947(4) 0.1846(6) 0.0175(13)
C6_8 C 0.9361(4) 0.2011(7) 0.1436(12)
H3_8 H 0.8540 0.1600 0.0460
H4_8 H 0.9239 0.1859 0.2564
H5_6 H 0.9926 0.1942 0.3997
Cu1_9 Cu 0.5000 0.0000 1.0000
C16_8 C 0.6333(4) 0.1121(6) 0.9554(14)
C17_8 C 0.5912(4) 0.1109(6) 0.8407(16)
O4_8 O 0.5366(4) 0.0753(5) 0.8458(11)
C18_8 C 0.6128(7) 0.1598(7) 0.710(2)
H13_7 H 0.6740 0.1392 0.9337
H14_7 H 0.5789 0.1607 0.6579
H15_7 H 0.6345 0.1519 0.6211
H16_8 H 0.6391 0.1982 0.7638
Cu1_10 Cu 0.5000 1.0000 0.0000
C7_8 C 0.3667(4) 0.8879(6) 0.0446(14)
C8_8 C 0.4088(4) 0.8891(6) 0.1593(16)
O2_8 O 0.4634(4) 0.9247(5) 0.1542(11)
C9_8 C 0.3872(7) 0.8402(7) 0.290(2)
H5_7 H 0.3260 0.8608 0.0663
H6_7 H 0.4211 0.8393 0.3421
H7_7 H 0.3655 0.8481 0.3789
H8_8 H 0.3609 0.8018 0.2362
Cu1_11 Cu -0.0000 0.4999 0.0000
C7_9 C 0.1121(6) 0.4787(7) 0.0446(14)
C8_9 C 0.1109(6) 0.5196(7) 0.1593(16)
O2_9 O 0.0753(5) 0.5386(6) 0.1542(11)
C9_9 C 0.1598(7) 0.5469(10) 0.290(2)
H5_8 H 0.1392 0.4651 0.0663
H6_8 H 0.1607 0.5817 0.3421
H7_8 H 0.1519 0.5173 0.3789
H8_9 H 0.1982 0.5590 0.2362
Cu1_12 Cu 1.0000 0.4999 1.0000
C16_9 C 0.8879(6) 0.5213(7) 0.9554(14)
C17_9 C 0.8891(6) 0.4804(7) 0.8407(16)
O4_9 O 0.9247(5) 0.4614(6) 0.8458(11)
C18_9 C 0.8402(7) 0.4531(10) 0.710(2)
H13_8 H 0.8608 0.5349 0.9337
H14_8 H 0.8393 0.4183 0.6579
H15_8 H 0.8481 0.4827 0.6211
H16_9 H 0.8018 0.4410 0.7638
H6_9 H 0.7516 0.2456 0.0088
H7_9 H 0.8160 0.3012 0.0456
C12_9 C 0.7481(8) 0.0082(4) 0.0609(13)
H9_9 H 0.7607 0.0478 0.0951
C11_9 C 0.7564(7) 0.9953(4) 0.8943(11)
C14_9 C 0.7102(7) 0.8947(4) 0.9825(13)
C15_9 C 0.7351(8) 0.9361(4) 0.8564(12)
H11_9 H 0.6941 0.8540 0.9540
H12_9 H 0.7381 0.9239 0.7436
H13_9 H 0.7985 0.9926 0.6003
C2_9 C 0.2436(7) 0.0047(4) 0.1057(11)
C5_9 C 0.2898(7) 0.1053(4) 0.0175(13)
C6_9 C 0.2649(8) 0.0639(4) 0.1436(12)
H3_9 H 0.3059 0.1460 0.0460
H4_9 H 0.2619 0.0761 0.2564
H5_9 H 0.2015 0.0074 0.3997
C3_9 C 0.2519(8) 0.9918(4) 0.9391(13)
H1_9 H 0.2393 0.9522 0.9049
H14_9 H 0.2484 0.7544 0.9912
H15_9 H 0.1840 0.6988 0.9544
loop_
_geom_bond_atom_site_label_1
_geom_bond_atom_site_label_2
_geom_bond_site_symmetry_1
_geom_bond_site_symmetry_2
N2 C13 1_555 1_555
H10 C13 1_555 1_555
Cu2 N2 1_555 1_555
Cu1 O1 1_555 1_555
O1 C1 1_555 1_555
C7 C1 1_555 1_555
C8 C7 1_555 1_555
O2 Cu1 1_555 1_555
C9 C8 1_555 1_555
H6 C9 1_555 1_555
H7 C9 1_555 1_555
H8 C9 1_555 1_555
O3 Cu1 1_555 1_555
C10 O3 1_555 1_555
C11 C10 1_555 1_555
C12 C11 1_555 1_555
C13_2 C12 1_555 1_555
N2_2 C13_2 1_555 1_555
C14 N2_2 1_555 1_555
C15 C11 1_555 1_555
C16 C10 1_555 1_555
C17 C16 1_555 1_555
O4 Cu1 1_555 1_555
C18 C17 1_555 1_555
H9 C12 1_555 1_555
H10_2 C13_2 1_555 1_555
H11 C14 1_555 1_555
H12 C15 1_555 1_555
H13 C16 1_555 1_555
H16 C18 1_555 1_555
Cu3 N2_2 1_555 1_555
N3 Cu1 1_555 1_555
N4 Cu1 1_555 1_555
C8 O2 1_555 1_555
C14 C15 1_555 1_555
C17 O4 1_555 1_555
Cu1_2 O1_2 1_555 1_555
O1_2 C1_2 1_555 1_555
C1_2 C2 1_555 1_555
C2 C3 1_555 1_555
C3 C4 1_555 1_555
C4 N1 1_555 1_555
N1 C5 1_555 1_555
C5 C6 1_555 1_555
C6 C2 1_555 1_555
H1 C3 1_555 1_555
H2 C4 1_555 1_555
H3 C5 1_555 1_555
H4 C6 1_555 1_555
Cu2 N1 1_555 1_555
N4_2 Cu1_2 1_555 1_555
C13_3 C12_2 1_555 1_555
N4 C13_3 1_555 1_555
H9_2 C12_2 1_555 1_555
H10_3 C13_3 1_555 1_555
Cu1_3 O1_3 1_555 1_555
O1_3 C1_3 1_555 1_555
C1_3 C2_2 1_555 1_555
C5_2 C6_2 1_555 1_555
C6_2 C2_2 1_555 1_555
C7_2 C1_3 1_555 1_555
C8_2 C7_2 1_555 1_555
O2_2 Cu1_3 1_555 1_555
C9_2 C8_2 1_555 1_555
H3_2 C5_2 1_555 1_555
H4_2 C6_2 1_555 1_555
H5 C7_2 1_555 1_555
H6_3 C9_2 1_555 1_555
H7_3 C9_2 1_555 1_555
H8_2 C9_2 1_555 1_555
O3_2 Cu1_3 1_555 1_555
C10_2 O3_2 1_555 1_555
C11_2 C10_2 1_555 1_555
C12_3 C11_2 1_555 1_555
C13_4 C12_3 1_555 1_555
N4_2 C13_4 1_555 1_555
C14_2 N4_2 1_555 1_555
C15_2 C11_2 1_555 1_555
C16_2 C10_2 1_555 1_555
C17_2 C16_2 1_555 1_555
O4_2 Cu1_3 1_555 1_555
C18_2 C17_2 1_555 1_555
H9_3 C12_3 1_555 1_555
H10_4 C13_4 1_555 1_555
H11_2 C14_2 1_555 1_555
H12_2 C15_2 1_555 1_555
H13_2 C16_2 1_555 1_555
H16_2 C18_2 1_555 1_555
N3_2 Cu1_3 1_555 1_555
N4_3 Cu1_3 1_555 1_555
C8_2 O2_2 1_555 1_555
C14_2 C15_2 1_555 1_555
C17_2 O4_2 1_555 1_555
Cu1_4 O1_4 1_555 1_555
O1_4 C1_4 1_555 1_555
C1_4 C2_3 1_555 1_555
C2_3 C3_2 1_555 1_555
C3_2 C4_2 1_555 1_555
C4_2 N3 1_555 1_555
N3 C5_3 1_555 1_555
C5_3 C6_3 1_555 1_555
C6_3 C2_3 1_555 1_555
H1_2 C3_2 1_555 1_555
H2_2 C4_2 1_555 1_555
H3_3 C5_3 1_555 1_555
H4_3 C6_3 1_555 1_555
N4_4 Cu1_4 1_555 1_555
N4_3 C13_5 1_555 1_555
H10_5 C13_5 1_555 1_555
Cu2 O1_5 1_555 1_555
O1_5 C1_5 1_555 1_555
C7_3 C1_5 1_555 1_555
C8_3 C7_3 1_555 1_555
O2_3 Cu2 1_555 1_555
C9_3 C8_3 1_555 1_555
H6_4 C9_3 1_555 1_555
H7_4 C9_3 1_555 1_555
H8_3 C9_3 1_555 1_555
O3_3 Cu2 1_555 1_555
C10_3 O3_3 1_555 1_555
C11_3 C10_3 1_555 1_555
C12_4 C11_3 1_555 1_555
C13_6 C12_4 1_555 1_555
N4_4 C13_6 1_555 1_555
C14_3 N4_4 1_555 1_555
C15_3 C11_3 1_555 1_555
C16_3 C10_3 1_555 1_555
C17_3 C16_3 1_555 1_555
O4_3 Cu2 1_555 1_555
C18_3 C17_3 1_555 1_555
H9_4 C12_4 1_555 1_555
H10_6 C13_6 1_555 1_555
H11_3 C14_3 1_555 1_555
H12_3 C15_3 1_555 1_555
H13_3 C16_3 1_555 1_555
H16_3 C18_3 1_555 1_555
C8_3 O2_3 1_555 1_555
C14_3 C15_3 1_555 1_555
C17_3 O4_3 1_555 1_555
Cu3 O1_6 1_555 1_555
O1_6 C1_6 1_555 1_555
C1_6 C2_4 1_555 1_555
C2_4 C3_3 1_555 1_555
C3_3 C4_3 1_555 1_555
C4_3 N3_2 1_555 1_555
N3_2 C5_4 1_555 1_555
C5_4 C6_4 1_555 1_555
C6_4 C2_4 1_555 1_555
H1_3 C3_3 1_555 1_555
H2_3 C4_3 1_555 1_555
H3_4 C5_4 1_555 1_555
H4_4 C6_4 1_555 1_555
C17_4 C16_4 1_555 1_555
O4_4 Cu3 1_555 1_555
C18_4 C17_4 1_555 1_555
H13_4 C16_4 1_555 1_555
H14 C18_4 1_555 1_555
H15 C18_4 1_555 1_555
H16_4 C18_4 1_555 1_555
C17_4 O4_4 1_555 1_555
C15_4 C11_4 1_555 1_555
H11_4 C14_4 1_555 1_555
H12_4 C15_4 1_555 1_555
C14_4 C15_4 1_555 1_555
H9_5 C12_5 1_555 1_555
Cu1_5 O1_7 1_555 1_555
O1_7 C1_7 1_555 1_555
C1_7 C2_5 1_555 1_555
C2_5 C3_4 1_555 1_555
C3_4 C4_4 1_555 1_555
C4_4 N1_2 1_555 1_555
N1_2 C5_5 1_555 1_555
C5_5 C6_5 1_555 1_555
C6_5 C2_5 1_555 1_555
C7_4 C1_7 1_555 1_555
C8_4 C7_4 1_555 1_555
O2_4 Cu1_5 1_555 1_555
C9_4 C8_4 1_555 1_555
H1_4 C3_4 1_555 1_555
H2_4 C4_4 1_555 1_555
H3_5 C5_5 1_555 1_555
H4_5 C6_5 1_555 1_555
H5_2 C7_4 1_555 1_555
H8_4 C9_4 1_555 1_555
O3_4 Cu1_5 1_555 1_555
C10_4 O3_4 1_555 1_555
C16_5 C10_4 1_555 1_555
C17_5 C16_5 1_555 1_555
O4_5 Cu1_5 1_555 1_555
C18_5 C17_5 1_555 1_555
H14_2 C18_5 1_555 1_555
H15_2 C18_5 1_555 1_555
H16_5 C18_5 1_555 1_555
Cu3_2 N1_2 1_555 1_555
N3_3 Cu1_5 1_555 1_555
N4_5 Cu1_5 1_555 1_555
C8_4 O2_4 1_555 1_555
C17_5 O4_5 1_555 1_555
C4_5 N1_3 1_555 1_555
H2_5 C4_5 1_555 1_555
Cu3_3 N1_3 1_555 1_555
O3_5 Cu1_6 1_555 1_555
C10_5 O3_5 1_555 1_555
C11_5 C10_5 1_555 1_555
C12_6 C11_5 1_555 1_555
C13_7 C12_6 1_555 1_555
N2_3 C13_7 1_555 1_555
C14_5 N2_3 1_555 1_555
C15_5 C11_5 1_555 1_555
H9_6 C12_6 1_555 1_555
H10_7 C13_7 1_555 1_555
H11_5 C14_5 1_555 1_555
H12_5 C15_5 1_555 1_555
Cu3_3 N2_3 1_555 1_555
N3_4 Cu1_6 1_555 1_555
C14_5 C15_5 1_555 1_555
Cu1_7 O1_8 1_555 1_555
O1_8 C1_8 1_555 1_555
C1_8 C2_6 1_555 1_555
C2_6 C3_5 1_555 1_555
C3_5 C4_6 1_555 1_555
C4_6 N3_4 1_555 1_555
N3_4 C5_6 1_555 1_555
C5_6 C6_6 1_555 1_555
C6_6 C2_6 1_555 1_555
C7_5 C1_8 1_555 1_555
C8_5 C7_5 1_555 1_555
O2_5 Cu1_7 1_555 1_555
C9_5 C8_5 1_555 1_555
H1_5 C3_5 1_555 1_555
H2_6 C4_6 1_555 1_555
H3_6 C5_6 1_555 1_555
H4_6 C6_6 1_555 1_555
H5_3 C7_5 1_555 1_555
H8_5 C9_5 1_555 1_555
O3_6 Cu1_7 1_555 1_555
C10_6 O3_6 1_555 1_555
C11_6 C10_6 1_555 1_555
C15_6 C11_6 1_555 1_555
C16_6 C10_6 1_555 1_555
C17_6 C16_6 1_555 1_555
O4_6 Cu1_7 1_555 1_555
C18_6 C17_6 1_555 1_555
H11_6 C14_6 1_555 1_555
H12_6 C15_6 1_555 1_555
H13_6 C16_6 1_555 1_555
H14_3 C18_6 1_555 1_555
H15_3 C18_6 1_555 1_555
H16_6 C18_6 1_555 1_555
N3_5 Cu1_7 1_555 1_555
N4_6 Cu1_7 1_555 1_555
C8_5 O2_5 1_555 1_555
C14_6 C15_6 1_555 1_555
C17_6 O4_6 1_555 1_555
C3_6 C4_7 1_555 1_555
C4_7 N3_3 1_555 1_555
H1_6 C3_6 1_555 1_555
H2_7 C4_7 1_555 1_555
O3_7 Cu1_8 1_555 1_555
C10_7 O3_7 1_555 1_555
C11_7 C10_7 1_555 1_555
C12_7 C11_7 1_555 1_555
C13_8 C12_7 1_555 1_555
N4_5 C13_8 1_555 1_555
C14_7 N4_5 1_555 1_555
C15_7 C11_7 1_555 1_555
H9_7 C12_7 1_555 1_555
H10_8 C13_8 1_555 1_555
H11_7 C14_7 1_555 1_555
H12_7 C15_7 1_555 1_555
N3_6 Cu1_8 1_555 1_555
C14_7 C15_7 1_555 1_555
Cu3_3 O1_9 1_555 1_555
O1_9 C1_9 1_555 1_555
C1_9 C2_7 1_555 1_555
C2_7 C3_7 1_555 1_555
C3_7 C4_8 1_555 1_555
C4_8 N3_6 1_555 1_555
N3_6 C5_7 1_555 1_555
C5_7 C6_7 1_555 1_555
C6_7 C2_7 1_555 1_555
C7_6 C1_9 1_555 1_555
C8_6 C7_6 1_555 1_555
O2_6 Cu3_3 1_555 1_555
C9_6 C8_6 1_555 1_555
H1_7 C3_7 1_555 1_555
H2_8 C4_8 1_555 1_555
H3_7 C5_7 1_555 1_555
H4_7 C6_7 1_555 1_555
H5_4 C7_6 1_555 1_555
H8_6 C9_6 1_555 1_555
O3_8 Cu3_3 1_555 1_555
C10_8 O3_8 1_555 1_555
C16_7 C10_8 1_555 1_555
C17_7 C16_7 1_555 1_555
O4_7 Cu3_3 1_555 1_555
C18_7 C17_7 1_555 1_555
H14_5 C18_7 1_555 1_555
H15_5 C18_7 1_555 1_555
H16_7 C18_7 1_555 1_555
C8_6 O2_6 1_555 1_555
C17_7 O4_7 1_555 1_555
C4_9 N3_5 1_555 1_555
H2_9 C4_9 1_555 1_555
C8_7 C7_7 1_555 1_555
O2_7 Cu3_2 1_555 1_555
C9_7 C8_7 1_555 1_555
H5_5 C7_7 1_555 1_555
H6_6 C9_7 1_555 1_555
H7_6 C9_7 1_555 1_555
H8_7 C9_7 1_555 1_555
O3_9 Cu3_2 1_555 1_555
C10_9 O3_9 1_555 1_555
C11_8 C10_9 1_555 1_555
C12_8 C11_8 1_555 1_555
C13_9 C12_8 1_555 1_555
N4_6 C13_9 1_555 1_555
C14_8 N4_6 1_555 1_555
C15_8 C11_8 1_555 1_555
H9_8 C12_8 1_555 1_555
H10_9 C13_9 1_555 1_555
H11_8 C14_8 1_555 1_555
H12_8 C15_8 1_555 1_555
C8_7 O2_7 1_555 1_555
C14_8 C15_8 1_555 1_555
H1_8 C3_8 1_555 1_555
C5_8 C6_8 1_555 1_555
C6_8 C2_8 1_555 1_555
H3_8 C5_8 1_555 1_555
H4_8 C6_8 1_555 1_555
C17_8 C16_8 1_555 1_555
O4_8 Cu1_9 1_555 1_555
C18_8 C17_8 1_555 1_555
H13_7 C16_8 1_555 1_555
H14_7 C18_8 1_555 1_555
H15_7 C18_8 1_555 1_555
H16_8 C18_8 1_555 1_555
C17_8 O4_8 1_555 1_555
C8_8 C7_8 1_555 1_555
O2_8 Cu1_10 1_555 1_555
C9_8 C8_8 1_555 1_555
H5_7 C7_8 1_555 1_555
H6_7 C9_8 1_555 1_555
H7_7 C9_8 1_555 1_555
H8_8 C9_8 1_555 1_555
C8_8 O2_8 1_555 1_555
C8_9 C7_9 1_555 1_555
O2_9 Cu1_11 1_555 1_555
C9_9 C8_9 1_555 1_555
H5_8 C7_9 1_555 1_555
H6_8 C9_9 1_555 1_555
H7_8 C9_9 1_555 1_555
H8_9 C9_9 1_555 1_555
C8_9 O2_9 1_555 1_555
C17_9 C16_9 1_555 1_555
O4_9 Cu1_12 1_555 1_555
C18_9 C17_9 1_555 1_555
H13_8 C16_9 1_555 1_555
H14_8 C18_9 1_555 1_555
H15_8 C18_9 1_555 1_555
H16_9 C18_9 1_555 1_555
C17_9 O4_9 1_555 1_555
H9_9 C12_9 1_555 1_555
C15_9 C11_9 1_555 1_555
H11_9 C14_9 1_555 1_555
H12_9 C15_9 1_555 1_555
C14_9 C15_9 1_555 1_555
C5_9 C6_9 1_555 1_555
C6_9 C2_9 1_555 1_555
H3_9 C5_9 1_555 1_555
H4_9 C6_9 1_555 1_555
H1_9 C3_9 1_555 1_555

#END
