
###############################################################################
#
# This file contains modified crystal structure data generated from the
# MOF subset of the Cambridge Structural Database (CSD) v543 
# hosted by the Cambridge Crystallographic Data Centre (CCDC).
#
# This work is licensed under the Creative Commons
# Attribution-NonCommercial-ShareAlike 4.0 International License.
# To view a copy of this license, visit
# http://creativecommons.org/licenses/by-nc-sa/4.0/
# or send a letter to
# Creative Commons, PO Box 1866, Mountain View, CA 94042, USA.
#
# CIF created using the CSD Python API on 29 September 2022
# The structure has been converted into the P1 space group
# The structure has a 3D framework
# The original CSD entry ECAHIB08 is in the rhombohedral crystal system
# The framework has been calculated to contain at least 10.0% void space
# The void calculation uses a probe of radius 1.32A, grid spacing 0.4
#
###############################################################################

data_ECAHIB08
_chemical_formula_moiety         '(C162 H144 Cu16 N18 O36)n'
_symmetry_cell_setting           triclinic
_symmetry_space_group_name_H-M   'P 1'
_symmetry_Int_Tables_number      1
_space_group_name_Hall           'P 1'
loop_
_symmetry_equiv_pos_site_id
_symmetry_equiv_pos_as_xyz
1 x,y,z
_cell_length_a                   25.4451(17)
_cell_length_b                   25.4451(17)
_cell_length_c                   7.7312(5)
_cell_angle_alpha                90
_cell_angle_beta                 90
_cell_angle_gamma                120
_cell_volume                     4334.97
loop_
_atom_site_label
_atom_site_type_symbol
_atom_site_fract_x
_atom_site_fract_y
_atom_site_fract_z
C13 C 0.0396(2) 0.7571(3) 0.1756(7)
N2 N 0.0969(2) 0.7997(2) 0.1469(5)
H10 H 0.0284 0.7406 0.2887
Cu2 Cu 0.1666 0.8333 0.3333
Cu3 Cu 0.4999 0.5000 1.0000
Cu1 Cu 0.1666 0.3334 0.3334
O1 O 0.09055(16) 0.30108(18) 0.2020(5)
C1 C 0.03902(19) 0.2582(2) 0.2489(6)
C7 C 0.0260(2) 0.2247(3) 0.3999(7)
C8 C 0.0691(2) 0.2213(3) 0.5081(7)
O2 O 0.12550(19) 0.2521(2) 0.4896(5)
C9 C 0.0460(4) 0.1732(4) 0.6454(12)
H6 H 0.0802 0.1757 0.7103
H7 H 0.0196 0.1797 0.7243
H8 H 0.0228 0.1331 0.5919
O3 O 0.24278(16) 0.36559(18) 0.4647(5)
C10 C 0.29431(19) 0.4085(2) 0.4178(6)
C11 C 0.34348(19) 0.4264(2) 0.5500(5)
C12 C 0.3291(2) 0.4031(3) 0.7159(7)
C13_2 C 0.3729(2) 0.4238(3) 0.8423(7)
N2_2 N 0.4302(2) 0.4664(2) 0.8136(5)
C14 C 0.4444(2) 0.4872(3) 0.6520(6)
C15 C 0.4038(2) 0.4698(3) 0.5188(6)
C16 C 0.3073(2) 0.4420(3) 0.2668(7)
C17 C 0.2642(2) 0.4454(3) 0.1586(7)
O4 O 0.20783(19) 0.4146(2) 0.1771(5)
C18 C 0.2873(4) 0.4935(4) 0.0213(12)
H9 H 0.2887 0.3725 0.7423
H10_2 H 0.3617 0.4073 0.9554
H11 H 0.4856 0.5161 0.6280
H12 H 0.4165 0.4871 0.4071
H13 H 0.3486 0.4644 0.2324
H16 H 0.3105 0.5336 0.0748
N3 N 0.1331(2) 0.3695(3) 0.5197(5)
N4 N 0.2003(2) 0.2971(3) 0.1469(5)
Cu1_2 Cu 0.5000 1.0000 1.0000
O1_2 O 0.42389(16) 0.96774(18) 0.8686(5)
C1_2 C 0.37236(19) 0.9248(2) 0.9155(6)
C2 C 0.32319(19) 0.9069(2) 0.7833(5)
C3 C 0.3376(2) 0.9302(3) 0.6174(7)
C4 C 0.2938(2) 0.9095(3) 0.4910(7)
N1 N 0.2365(2) 0.8669(2) 0.5197(5)
C5 C 0.2223(2) 0.8461(3) 0.6813(6)
C6 C 0.2629(2) 0.8635(3) 0.8145(6)
H1 H 0.3780 0.9608 0.5910
H2 H 0.3050 0.9260 0.3779
H3 H 0.1811 0.8172 0.7053
H4 H 0.2502 0.8462 0.9262
N4_2 N 0.5336(2) 0.9638(3) 0.8136(5)
H6_2 H 0.4910 0.2379 0.0436
H7_2 H 0.4870 0.1733 0.0576
C12_2 C 0.2636(3) 0.2593(4) 0.0492(7)
C13_3 C 0.2429(3) 0.2824(4) 0.1756(7)
H9_2 H 0.2942 0.2495 0.0756
H10_3 H 0.2594 0.2877 0.2887
Cu1_3 Cu 0.6666 0.8333 0.3334
O1_3 O 0.69892(18) 0.78948(24) 0.2020(5)
C1_3 C 0.7418(2) 0.78086(28) 0.2489(6)
C2_2 C 0.7597(2) 0.74959(28) 0.1167(5)
C5_2 C 0.8205(3) 0.7095(4) 0.0147(6)
C6_2 C 0.8031(3) 0.7327(4) 0.1479(6)
C7_2 C 0.7753(3) 0.8014(4) 0.3999(7)
C8_2 C 0.7787(3) 0.8479(4) 0.5081(7)
O2_2 O 0.7479(2) 0.87344(28) 0.4896(5)
C9_2 C 0.8268(4) 0.8729(6) 0.6454(12)
H3_2 H 0.8494 0.6972 0.0387
H4_2 H 0.8204 0.7373 0.2596
H5 H 0.7977 0.7825 0.4343
H6_3 H 0.8243 0.9046 0.7103
H7_3 H 0.8203 0.8400 0.7243
H8_2 H 0.8669 0.8898 0.5919
O3_2 O 0.63441(18) 0.87719(24) 0.4647(5)
C10_2 C 0.5915(2) 0.88581(28) 0.4178(6)
C11_2 C 0.5736(2) 0.91708(28) 0.5500(5)
C12_3 C 0.5969(3) 0.9260(4) 0.7159(7)
C13_4 C 0.5762(3) 0.9491(4) 0.8423(7)
C14_2 C 0.5128(3) 0.9572(4) 0.6520(6)
C15_2 C 0.5302(3) 0.9340(4) 0.5188(6)
C16_2 C 0.5580(3) 0.8653(4) 0.2668(7)
C17_2 C 0.5546(3) 0.8188(4) 0.1586(7)
O4_2 O 0.5854(2) 0.79323(28) 0.1771(5)
C18_2 C 0.5065(4) 0.7938(6) 0.0213(12)
H9_3 H 0.6275 0.9162 0.7423
H10_4 H 0.5927 0.9544 0.9554
H11_2 H 0.4839 0.9695 0.6280
H12_2 H 0.5129 0.9294 0.4071
H13_2 H 0.5356 0.8842 0.2324
H16_2 H 0.4664 0.7769 0.0748
N3_2 N 0.6305(3) 0.7635(4) 0.5197(5)
N4_3 N 0.7029(3) 0.9031(4) 0.1469(5)
Cu1_4 Cu -0.0000 0.4999 1.0000
O1_4 O 0.03226(18) 0.45614(24) 0.8686(5)
C1_4 C 0.0752(2) 0.44752(28) 0.9155(6)
C2_3 C 0.0931(2) 0.41625(28) 0.7833(5)
C3_2 C 0.0698(3) 0.4073(4) 0.6174(7)
C4_2 C 0.0905(3) 0.3842(4) 0.4910(7)
C5_3 C 0.1539(3) 0.3761(4) 0.6813(6)
C6_3 C 0.1365(3) 0.3993(4) 0.8145(6)
H1_2 H 0.0392 0.4171 0.5910
H2_2 H 0.0740 0.3789 0.3779
H3_3 H 0.1828 0.3638 0.7053
H4_3 H 0.1538 0.4039 0.9262
N4_4 N 0.0362(3) 0.5698(4) 0.8136(5)
C13_5 C 0.7176(4) 0.9604(2) 0.1756(7)
H10_5 H 0.7123 0.9716 0.2887
O1_5 O 0.21052(24) 0.90945(16) 0.2020(5)
C1_5 C 0.21914(28) 0.96098(19) 0.2489(6)
C7_3 C 0.1986(4) 0.9740(2) 0.3999(7)
C8_3 C 0.1521(4) 0.9309(2) 0.5081(7)
O2_3 O 0.12656(28) 0.87450(19) 0.4896(5)
C9_3 C 0.1271(6) 0.9540(4) 0.6454(12)
H6_4 H 0.0954 0.9198 0.7103
H7_4 H 0.1600 0.9804 0.7243
H8_3 H 0.1102 0.9772 0.5919
O3_3 O 0.12281(24) 0.75722(16) 0.4647(5)
C10_3 C 0.11419(28) 0.70569(19) 0.4178(6)
C11_3 C 0.08292(28) 0.65652(19) 0.5500(5)
C12_4 C 0.0740(4) 0.6709(2) 0.7159(7)
C13_6 C 0.0509(4) 0.6271(2) 0.8423(7)
C14_3 C 0.0428(4) 0.5556(2) 0.6520(6)
C15_3 C 0.0660(4) 0.5962(2) 0.5188(6)
C16_3 C 0.1347(4) 0.6927(2) 0.2668(7)
C17_3 C 0.1812(4) 0.7358(2) 0.1586(7)
O4_3 O 0.20677(28) 0.79217(19) 0.1771(5)
C18_3 C 0.2062(6) 0.7127(4) 0.0213(12)
H9_4 H 0.0838 0.7113 0.7423
H10_6 H 0.0456 0.6383 0.9554
H11_3 H 0.0305 0.5144 0.6280
H12_3 H 0.0706 0.5835 0.4071
H13_3 H 0.1158 0.6514 0.2324
H16_3 H 0.2231 0.6895 0.0748
O1_6 O 0.54386(24) 0.57611(16) 0.8686(5)
C1_6 C 0.55248(28) 0.62764(19) 0.9155(6)
C2_4 C 0.58375(28) 0.67681(19) 0.7833(5)
C3_3 C 0.5927(4) 0.6624(2) 0.6174(7)
C4_3 C 0.6158(4) 0.7062(2) 0.4910(7)
C5_4 C 0.6239(4) 0.7777(2) 0.6813(6)
C6_4 C 0.6007(4) 0.7371(2) 0.8145(6)
H1_3 H 0.5829 0.6220 0.5910
H2_3 H 0.6211 0.6950 0.3779
H3_4 H 0.6362 0.8189 0.7053
H4_4 H 0.5961 0.7498 0.9262
C16_4 C 0.4680(4) 0.3594(2) 0.9335(7)
C17_4 C 0.5145(4) 0.4025(2) 0.8253(7)
O4_4 O 0.54010(28) 0.45884(19) 0.8438(5)
C18_4 C 0.5395(6) 0.3794(4) 0.6880(12)
H13_4 H 0.4491 0.3181 0.8991
H14 H 0.5712 0.4136 0.6231
H15 H 0.5066 0.3530 0.6091
H16_4 H 0.5564 0.3562 0.7415
C11_4 C 0.01015(19) 0.7597(2) 0.8833(5)
C14_4 C 0.1111(2) 0.8205(3) 0.9853(6)
C15_4 C 0.0705(2) 0.8031(3) 0.8521(6)
H11_4 H 0.1523 0.8494 0.9613
H12_4 H 0.0832 0.8204 0.7404
H13_5 H 0.0153 0.7977 0.5657
H6_5 H 0.7469 0.5090 0.0436
H7_5 H 0.6863 0.5130 0.0576
C12_5 C 0.9958(2) 0.7364(3) 0.0492(7)
H9_5 H 0.9554 0.7058 0.0756
Cu1_5 Cu 0.8333 0.6667 0.6667
O1_7 O 0.75722(16) 0.63441(18) 0.5353(5)
C1_7 C 0.70569(19) 0.5915(2) 0.5822(6)
C2_5 C 0.65652(19) 0.5736(2) 0.4500(5)
C3_4 C 0.6709(2) 0.5969(3) 0.2841(7)
C4_4 C 0.6271(2) 0.5762(3) 0.1577(7)
N1_2 N 0.5698(2) 0.5336(2) 0.1864(5)
C5_5 C 0.5556(2) 0.5128(3) 0.3480(6)
C6_5 C 0.5962(2) 0.5302(3) 0.4812(6)
C7_4 C 0.6927(2) 0.5580(3) 0.7332(7)
C8_4 C 0.7358(2) 0.5546(3) 0.8414(7)
O2_4 O 0.79217(19) 0.5854(2) 0.8229(5)
C9_4 C 0.7127(4) 0.5065(4) 0.9787(12)
H1_4 H 0.7113 0.6275 0.2577
H2_4 H 0.6383 0.5927 0.0446
H3_5 H 0.5144 0.4839 0.3720
H4_5 H 0.5835 0.5129 0.5929
H5_2 H 0.6514 0.5356 0.7676
H8_4 H 0.6895 0.4664 0.9252
O3_4 O 0.90945(16) 0.69892(18) 0.7980(5)
C10_4 C 0.96098(19) 0.7418(2) 0.7511(6)
C16_5 C 0.9740(2) 0.7753(3) 0.6001(7)
C17_5 C 0.9309(2) 0.7787(3) 0.4919(7)
O4_5 O 0.87450(19) 0.7479(2) 0.5104(5)
C18_5 C 0.9540(4) 0.8268(4) 0.3546(12)
H14_2 H 0.9198 0.8243 0.2897
H15_2 H 0.9804 0.8203 0.2757
H16_5 H 0.9772 0.8669 0.4081
Cu3_2 Cu 0.4999 0.5000 -0.0000
N3_3 N 0.7997(2) 0.7029(3) 0.8531(5)
N4_5 N 0.8669(2) 0.6305(3) 0.4803(5)
C4_5 C 0.9604(2) 0.2429(3) 0.8244(7)
N1_3 N 0.9031(2) 0.2003(2) 0.8531(5)
H2_5 H 0.9716 0.2594 0.7113
Cu3_3 Cu 0.8333 0.1666 0.6666
Cu1_6 Cu 0.5000 0.0000 0.0000
O3_5 O 0.57611(16) 0.03226(18) 0.1314(5)
C10_5 C 0.62764(19) 0.0752(2) 0.0845(6)
C11_5 C 0.67681(19) 0.0931(2) 0.2167(5)
C12_6 C 0.6624(2) 0.0698(3) 0.3826(7)
C13_7 C 0.7062(2) 0.0905(3) 0.5090(7)
N2_3 N 0.7635(2) 0.1331(2) 0.4803(5)
C14_5 C 0.7777(2) 0.1539(3) 0.3187(6)
C15_5 C 0.7371(2) 0.1365(3) 0.1855(6)
H9_6 H 0.6220 0.0392 0.4090
H10_7 H 0.6950 0.0740 0.6221
H11_5 H 0.8189 0.1828 0.2947
H12_5 H 0.7498 0.1538 0.0738
N3_4 N 0.4664(2) 0.0362(3) 0.1864(5)
Cu1_7 Cu 0.3333 0.1666 0.6667
O1_8 O 0.36559(18) 0.12281(24) 0.5353(5)
C1_8 C 0.4085(2) 0.11419(28) 0.5822(6)
C2_6 C 0.4264(2) 0.08292(28) 0.4500(5)
C3_5 C 0.4031(3) 0.0740(4) 0.2841(7)
C4_6 C 0.4238(3) 0.0509(4) 0.1577(7)
C5_6 C 0.4872(3) 0.0428(4) 0.3480(6)
C6_6 C 0.4698(3) 0.0660(4) 0.4812(6)
C7_5 C 0.4420(3) 0.1347(4) 0.7332(7)
C8_5 C 0.4454(3) 0.1812(4) 0.8414(7)
O2_5 O 0.4146(2) 0.20677(28) 0.8229(5)
C9_5 C 0.4935(4) 0.2062(6) 0.9787(12)
H1_5 H 0.3725 0.0838 0.2577
H2_6 H 0.4073 0.0456 0.0446
H3_6 H 0.5161 0.0305 0.3720
H4_6 H 0.4871 0.0706 0.5929
H5_3 H 0.4644 0.1158 0.7676
H8_5 H 0.5336 0.2231 0.9252
O3_6 O 0.30108(18) 0.21052(24) 0.7980(5)
C10_6 C 0.2582(2) 0.21914(28) 0.7511(6)
C11_6 C 0.2403(2) 0.25041(28) 0.8833(5)
C14_6 C 0.1795(3) 0.2905(4) 0.9853(6)
C15_6 C 0.1969(3) 0.2673(4) 0.8521(6)
C16_6 C 0.2247(3) 0.1986(4) 0.6001(7)
C17_6 C 0.2213(3) 0.1521(4) 0.4919(7)
O4_6 O 0.2521(2) 0.12656(28) 0.5104(5)
C18_6 C 0.1732(4) 0.1271(6) 0.3546(12)
H11_6 H 0.1506 0.3028 0.9613
H12_6 H 0.1796 0.2627 0.7404
H13_6 H 0.2023 0.2175 0.5657
H14_3 H 0.1757 0.0954 0.2897
H15_3 H 0.1797 0.1600 0.2757
H16_6 H 0.1331 0.1102 0.4081
N3_5 N 0.2971(3) 0.0969(4) 0.8531(5)
N4_6 N 0.3695(3) 0.2365(4) 0.4803(5)
C3_6 C 0.7364(3) 0.7407(4) 0.9508(7)
C4_7 C 0.7571(3) 0.7176(4) 0.8244(7)
H1_6 H 0.7058 0.7505 0.9244
H2_7 H 0.7406 0.7123 0.7113
H14_4 H 0.5090 0.7621 0.9564
H15_4 H 0.5130 0.8267 0.9424
Cu1_8 Cu 1.0000 0.4999 0.0000
O3_7 O 0.96774(18) 0.54386(24) 0.1314(5)
C10_7 C 0.9248(2) 0.55248(28) 0.0845(6)
C11_7 C 0.9069(2) 0.58375(28) 0.2167(5)
C12_7 C 0.9302(3) 0.5927(4) 0.3826(7)
C13_8 C 0.9095(3) 0.6158(4) 0.5090(7)
C14_7 C 0.8461(3) 0.6239(4) 0.3187(6)
C15_7 C 0.8635(3) 0.6007(4) 0.1855(6)
H9_7 H 0.9608 0.5829 0.4090
H10_8 H 0.9260 0.6211 0.6221
H11_7 H 0.8172 0.6362 0.2947
H12_7 H 0.8462 0.5961 0.0738
N3_6 N 0.9638(3) 0.4302(4) 0.1864(5)
O1_9 O 0.87719(24) 0.24278(16) 0.5353(5)
C1_9 C 0.88581(28) 0.29431(19) 0.5822(6)
C2_7 C 0.91708(28) 0.34348(19) 0.4500(5)
C3_7 C 0.9260(4) 0.3291(2) 0.2841(7)
C4_8 C 0.9491(4) 0.3729(2) 0.1577(7)
C5_7 C 0.9572(4) 0.4444(2) 0.3480(6)
C6_7 C 0.9340(4) 0.4038(2) 0.4812(6)
C7_6 C 0.8653(4) 0.3073(2) 0.7332(7)
C8_6 C 0.8188(4) 0.2642(2) 0.8414(7)
O2_6 O 0.79323(28) 0.20783(19) 0.8229(5)
C9_6 C 0.7938(6) 0.2873(4) 0.9787(12)
H1_7 H 0.9162 0.2887 0.2577
H2_8 H 0.9544 0.3617 0.0446
H3_7 H 0.9695 0.4856 0.3720
H4_7 H 0.9294 0.4165 0.5929
H5_4 H 0.8842 0.3486 0.7676
H8_6 H 0.7769 0.3105 0.9252
O3_8 O 0.78948(24) 0.09055(16) 0.7980(5)
C10_8 C 0.78086(28) 0.03902(19) 0.7511(6)
C16_7 C 0.8014(4) 0.0260(2) 0.6001(7)
C17_7 C 0.8479(4) 0.0691(2) 0.4919(7)
O4_7 O 0.87344(28) 0.12550(19) 0.5104(5)
C18_7 C 0.8729(6) 0.0460(4) 0.3546(12)
H14_5 H 0.9046 0.0802 0.2897
H15_5 H 0.8400 0.0196 0.2757
H16_7 H 0.8898 0.0228 0.4081
C4_9 C 0.2824(4) 0.0396(2) 0.8244(7)
H2_9 H 0.2877 0.0284 0.7113
C7_7 C 0.5320(4) 0.6406(2) 0.0665(7)
C8_7 C 0.4855(4) 0.5975(2) 0.1747(7)
O2_7 O 0.45990(28) 0.54116(19) 0.1562(5)
C9_7 C 0.4605(6) 0.6206(4) 0.3120(12)
H5_5 H 0.5509 0.6819 0.1009
H6_6 H 0.4288 0.5864 0.3769
H7_6 H 0.4934 0.6470 0.3909
H8_7 H 0.4436 0.6438 0.2585
O3_9 O 0.45614(24) 0.42389(16) 0.1314(5)
C10_9 C 0.44752(28) 0.37236(19) 0.0845(6)
C11_8 C 0.41625(28) 0.32319(19) 0.2167(5)
C12_8 C 0.4073(4) 0.3376(2) 0.3826(7)
C13_9 C 0.3842(4) 0.2938(2) 0.5090(7)
C14_8 C 0.3761(4) 0.2223(2) 0.3187(6)
C15_8 C 0.3993(4) 0.2629(2) 0.1855(6)
H9_8 H 0.4171 0.3780 0.4090
H10_9 H 0.3789 0.3050 0.6221
H11_8 H 0.3638 0.1811 0.2947
H12_8 H 0.4039 0.2502 0.0738
C3_8 C 0.0042(2) 0.2636(3) 0.9508(7)
H1_8 H 0.0446 0.2942 0.9244
H14_6 H 0.2531 0.4910 0.9564
H15_6 H 0.3137 0.4870 0.9424
C2_8 C 0.98985(19) 0.2403(2) 0.1167(5)
C5_8 C 0.8889(2) 0.1795(3) 0.0147(6)
C6_8 C 0.9295(2) 0.1969(3) 0.1479(6)
H3_8 H 0.8477 0.1506 0.0387
H4_8 H 0.9168 0.1796 0.2596
H5_6 H 0.9847 0.2023 0.4343
Cu1_9 Cu 0.5000 0.0000 1.0000
C16_8 C 0.6406(2) 0.1087(3) 0.9335(7)
C17_8 C 0.5975(2) 0.1121(3) 0.8253(7)
O4_8 O 0.54116(19) 0.0813(2) 0.8438(5)
C18_8 C 0.6206(4) 0.1602(4) 0.6880(12)
H13_7 H 0.6819 0.1311 0.8991
H14_7 H 0.5864 0.1577 0.6231
H15_7 H 0.6470 0.1537 0.6091
H16_8 H 0.6438 0.2003 0.7415
Cu1_10 Cu 0.5000 1.0000 0.0000
C7_8 C 0.3594(2) 0.8913(3) 0.0665(7)
C8_8 C 0.4025(2) 0.8879(3) 0.1747(7)
O2_8 O 0.45884(19) 0.9187(2) 0.1562(5)
C9_8 C 0.3794(4) 0.8398(4) 0.3120(12)
H5_7 H 0.3181 0.8689 0.1009
H6_7 H 0.4136 0.8423 0.3769
H7_7 H 0.3530 0.8463 0.3909
H8_8 H 0.3562 0.7997 0.2585
Cu1_11 Cu -0.0000 0.4999 0.0000
C7_9 C 0.1087(3) 0.4680(4) 0.0665(7)
C8_9 C 0.1121(3) 0.5145(4) 0.1747(7)
O2_9 O 0.0813(2) 0.54010(28) 0.1562(5)
C9_9 C 0.1602(4) 0.5395(6) 0.3120(12)
H5_8 H 0.1311 0.4491 0.1009
H6_8 H 0.1577 0.5712 0.3769
H7_8 H 0.1537 0.5066 0.3909
H8_9 H 0.2003 0.5564 0.2585
Cu1_12 Cu 1.0000 0.4999 1.0000
C16_9 C 0.8913(3) 0.5320(4) 0.9335(7)
C17_9 C 0.8879(3) 0.4855(4) 0.8253(7)
O4_9 O 0.9187(2) 0.45990(28) 0.8438(5)
C18_9 C 0.8398(4) 0.4605(6) 0.6880(12)
H13_8 H 0.8689 0.5509 0.8991
H14_8 H 0.8423 0.4288 0.6231
H15_8 H 0.8463 0.4934 0.6091
H16_9 H 0.7997 0.4436 0.7415
H6_9 H 0.7621 0.2531 0.0436
H7_9 H 0.8267 0.3137 0.0576
C12_9 C 0.7407(4) 0.0042(2) 0.0492(7)
H9_9 H 0.7505 0.0446 0.0756
C11_9 C 0.74959(28) 0.98985(19) 0.8833(5)
C14_9 C 0.7095(4) 0.8889(2) 0.9853(6)
C15_9 C 0.7327(4) 0.9295(2) 0.8521(6)
H11_9 H 0.6972 0.8477 0.9613
H12_9 H 0.7373 0.9168 0.7404
H13_9 H 0.7825 0.9847 0.5657
C2_9 C 0.25041(28) 0.01015(19) 0.1167(5)
C5_9 C 0.2905(4) 0.1111(2) 0.0147(6)
C6_9 C 0.2673(4) 0.0705(2) 0.1479(6)
H3_9 H 0.3028 0.1523 0.0387
H4_9 H 0.2627 0.0832 0.2596
H5_9 H 0.2175 0.0153 0.4343
C3_9 C 0.2593(4) 0.9958(2) 0.9508(7)
H1_9 H 0.2495 0.9554 0.9244
H14_9 H 0.2379 0.7469 0.9564
H15_9 H 0.1733 0.6863 0.9424
loop_
_geom_bond_atom_site_label_1
_geom_bond_atom_site_label_2
_geom_bond_site_symmetry_1
_geom_bond_site_symmetry_2
N2 C13 1_555 1_555
H10 C13 1_555 1_555
Cu2 N2 1_555 1_555
Cu1 O1 1_555 1_555
O1 C1 1_555 1_555
C7 C1 1_555 1_555
C8 C7 1_555 1_555
O2 Cu1 1_555 1_555
C9 C8 1_555 1_555
H6 C9 1_555 1_555
H7 C9 1_555 1_555
H8 C9 1_555 1_555
O3 Cu1 1_555 1_555
C10 O3 1_555 1_555
C11 C10 1_555 1_555
C12 C11 1_555 1_555
C13_2 C12 1_555 1_555
N2_2 C13_2 1_555 1_555
C14 N2_2 1_555 1_555
C15 C11 1_555 1_555
C16 C10 1_555 1_555
C17 C16 1_555 1_555
O4 Cu1 1_555 1_555
C18 C17 1_555 1_555
H9 C12 1_555 1_555
H10_2 C13_2 1_555 1_555
H11 C14 1_555 1_555
H12 C15 1_555 1_555
H13 C16 1_555 1_555
H16 C18 1_555 1_555
Cu3 N2_2 1_555 1_555
N3 Cu1 1_555 1_555
N4 Cu1 1_555 1_555
C8 O2 1_555 1_555
C14 C15 1_555 1_555
C17 O4 1_555 1_555
Cu1_2 O1_2 1_555 1_555
O1_2 C1_2 1_555 1_555
C1_2 C2 1_555 1_555
C2 C3 1_555 1_555
C3 C4 1_555 1_555
C4 N1 1_555 1_555
N1 C5 1_555 1_555
C5 C6 1_555 1_555
C6 C2 1_555 1_555
H1 C3 1_555 1_555
H2 C4 1_555 1_555
H3 C5 1_555 1_555
H4 C6 1_555 1_555
Cu2 N1 1_555 1_555
N4_2 Cu1_2 1_555 1_555
C13_3 C12_2 1_555 1_555
N4 C13_3 1_555 1_555
H9_2 C12_2 1_555 1_555
H10_3 C13_3 1_555 1_555
Cu1_3 O1_3 1_555 1_555
O1_3 C1_3 1_555 1_555
C1_3 C2_2 1_555 1_555
C5_2 C6_2 1_555 1_555
C6_2 C2_2 1_555 1_555
C7_2 C1_3 1_555 1_555
C8_2 C7_2 1_555 1_555
O2_2 Cu1_3 1_555 1_555
C9_2 C8_2 1_555 1_555
H3_2 C5_2 1_555 1_555
H4_2 C6_2 1_555 1_555
H5 C7_2 1_555 1_555
H6_3 C9_2 1_555 1_555
H7_3 C9_2 1_555 1_555
H8_2 C9_2 1_555 1_555
O3_2 Cu1_3 1_555 1_555
C10_2 O3_2 1_555 1_555
C11_2 C10_2 1_555 1_555
C12_3 C11_2 1_555 1_555
C13_4 C12_3 1_555 1_555
N4_2 C13_4 1_555 1_555
C14_2 N4_2 1_555 1_555
C15_2 C11_2 1_555 1_555
C16_2 C10_2 1_555 1_555
C17_2 C16_2 1_555 1_555
O4_2 Cu1_3 1_555 1_555
C18_2 C17_2 1_555 1_555
H9_3 C12_3 1_555 1_555
H10_4 C13_4 1_555 1_555
H11_2 C14_2 1_555 1_555
H12_2 C15_2 1_555 1_555
H13_2 C16_2 1_555 1_555
H16_2 C18_2 1_555 1_555
N3_2 Cu1_3 1_555 1_555
N4_3 Cu1_3 1_555 1_555
C8_2 O2_2 1_555 1_555
C14_2 C15_2 1_555 1_555
C17_2 O4_2 1_555 1_555
Cu1_4 O1_4 1_555 1_555
O1_4 C1_4 1_555 1_555
C1_4 C2_3 1_555 1_555
C2_3 C3_2 1_555 1_555
C3_2 C4_2 1_555 1_555
C4_2 N3 1_555 1_555
N3 C5_3 1_555 1_555
C5_3 C6_3 1_555 1_555
C6_3 C2_3 1_555 1_555
H1_2 C3_2 1_555 1_555
H2_2 C4_2 1_555 1_555
H3_3 C5_3 1_555 1_555
H4_3 C6_3 1_555 1_555
N4_4 Cu1_4 1_555 1_555
N4_3 C13_5 1_555 1_555
H10_5 C13_5 1_555 1_555
Cu2 O1_5 1_555 1_555
O1_5 C1_5 1_555 1_555
C7_3 C1_5 1_555 1_555
C8_3 C7_3 1_555 1_555
O2_3 Cu2 1_555 1_555
C9_3 C8_3 1_555 1_555
H6_4 C9_3 1_555 1_555
H7_4 C9_3 1_555 1_555
H8_3 C9_3 1_555 1_555
O3_3 Cu2 1_555 1_555
C10_3 O3_3 1_555 1_555
C11_3 C10_3 1_555 1_555
C12_4 C11_3 1_555 1_555
C13_6 C12_4 1_555 1_555
N4_4 C13_6 1_555 1_555
C14_3 N4_4 1_555 1_555
C15_3 C11_3 1_555 1_555
C16_3 C10_3 1_555 1_555
C17_3 C16_3 1_555 1_555
O4_3 Cu2 1_555 1_555
C18_3 C17_3 1_555 1_555
H9_4 C12_4 1_555 1_555
H10_6 C13_6 1_555 1_555
H11_3 C14_3 1_555 1_555
H12_3 C15_3 1_555 1_555
H13_3 C16_3 1_555 1_555
H16_3 C18_3 1_555 1_555
C8_3 O2_3 1_555 1_555
C14_3 C15_3 1_555 1_555
C17_3 O4_3 1_555 1_555
Cu3 O1_6 1_555 1_555
O1_6 C1_6 1_555 1_555
C1_6 C2_4 1_555 1_555
C2_4 C3_3 1_555 1_555
C3_3 C4_3 1_555 1_555
C4_3 N3_2 1_555 1_555
N3_2 C5_4 1_555 1_555
C5_4 C6_4 1_555 1_555
C6_4 C2_4 1_555 1_555
H1_3 C3_3 1_555 1_555
H2_3 C4_3 1_555 1_555
H3_4 C5_4 1_555 1_555
H4_4 C6_4 1_555 1_555
C17_4 C16_4 1_555 1_555
O4_4 Cu3 1_555 1_555
C18_4 C17_4 1_555 1_555
H13_4 C16_4 1_555 1_555
H14 C18_4 1_555 1_555
H15 C18_4 1_555 1_555
H16_4 C18_4 1_555 1_555
C17_4 O4_4 1_555 1_555
C15_4 C11_4 1_555 1_555
H11_4 C14_4 1_555 1_555
H12_4 C15_4 1_555 1_555
C14_4 C15_4 1_555 1_555
H9_5 C12_5 1_555 1_555
Cu1_5 O1_7 1_555 1_555
O1_7 C1_7 1_555 1_555
C1_7 C2_5 1_555 1_555
C2_5 C3_4 1_555 1_555
C3_4 C4_4 1_555 1_555
C4_4 N1_2 1_555 1_555
N1_2 C5_5 1_555 1_555
C5_5 C6_5 1_555 1_555
C6_5 C2_5 1_555 1_555
C7_4 C1_7 1_555 1_555
C8_4 C7_4 1_555 1_555
O2_4 Cu1_5 1_555 1_555
C9_4 C8_4 1_555 1_555
H1_4 C3_4 1_555 1_555
H2_4 C4_4 1_555 1_555
H3_5 C5_5 1_555 1_555
H4_5 C6_5 1_555 1_555
H5_2 C7_4 1_555 1_555
H8_4 C9_4 1_555 1_555
O3_4 Cu1_5 1_555 1_555
C10_4 O3_4 1_555 1_555
C16_5 C10_4 1_555 1_555
C17_5 C16_5 1_555 1_555
O4_5 Cu1_5 1_555 1_555
C18_5 C17_5 1_555 1_555
H14_2 C18_5 1_555 1_555
H15_2 C18_5 1_555 1_555
H16_5 C18_5 1_555 1_555
Cu3_2 N1_2 1_555 1_555
N3_3 Cu1_5 1_555 1_555
N4_5 Cu1_5 1_555 1_555
C8_4 O2_4 1_555 1_555
C17_5 O4_5 1_555 1_555
C4_5 N1_3 1_555 1_555
H2_5 C4_5 1_555 1_555
Cu3_3 N1_3 1_555 1_555
O3_5 Cu1_6 1_555 1_555
C10_5 O3_5 1_555 1_555
C11_5 C10_5 1_555 1_555
C12_6 C11_5 1_555 1_555
C13_7 C12_6 1_555 1_555
N2_3 C13_7 1_555 1_555
C14_5 N2_3 1_555 1_555
C15_5 C11_5 1_555 1_555
H9_6 C12_6 1_555 1_555
H10_7 C13_7 1_555 1_555
H11_5 C14_5 1_555 1_555
H12_5 C15_5 1_555 1_555
Cu3_3 N2_3 1_555 1_555
N3_4 Cu1_6 1_555 1_555
C14_5 C15_5 1_555 1_555
Cu1_7 O1_8 1_555 1_555
O1_8 C1_8 1_555 1_555
C1_8 C2_6 1_555 1_555
C2_6 C3_5 1_555 1_555
C3_5 C4_6 1_555 1_555
C4_6 N3_4 1_555 1_555
N3_4 C5_6 1_555 1_555
C5_6 C6_6 1_555 1_555
C6_6 C2_6 1_555 1_555
C7_5 C1_8 1_555 1_555
C8_5 C7_5 1_555 1_555
O2_5 Cu1_7 1_555 1_555
C9_5 C8_5 1_555 1_555
H1_5 C3_5 1_555 1_555
H2_6 C4_6 1_555 1_555
H3_6 C5_6 1_555 1_555
H4_6 C6_6 1_555 1_555
H5_3 C7_5 1_555 1_555
H8_5 C9_5 1_555 1_555
O3_6 Cu1_7 1_555 1_555
C10_6 O3_6 1_555 1_555
C11_6 C10_6 1_555 1_555
C15_6 C11_6 1_555 1_555
C16_6 C10_6 1_555 1_555
C17_6 C16_6 1_555 1_555
O4_6 Cu1_7 1_555 1_555
C18_6 C17_6 1_555 1_555
H11_6 C14_6 1_555 1_555
H12_6 C15_6 1_555 1_555
H13_6 C16_6 1_555 1_555
H14_3 C18_6 1_555 1_555
H15_3 C18_6 1_555 1_555
H16_6 C18_6 1_555 1_555
N3_5 Cu1_7 1_555 1_555
N4_6 Cu1_7 1_555 1_555
C8_5 O2_5 1_555 1_555
C14_6 C15_6 1_555 1_555
C17_6 O4_6 1_555 1_555
C3_6 C4_7 1_555 1_555
C4_7 N3_3 1_555 1_555
H1_6 C3_6 1_555 1_555
H2_7 C4_7 1_555 1_555
O3_7 Cu1_8 1_555 1_555
C10_7 O3_7 1_555 1_555
C11_7 C10_7 1_555 1_555
C12_7 C11_7 1_555 1_555
C13_8 C12_7 1_555 1_555
N4_5 C13_8 1_555 1_555
C14_7 N4_5 1_555 1_555
C15_7 C11_7 1_555 1_555
H9_7 C12_7 1_555 1_555
H10_8 C13_8 1_555 1_555
H11_7 C14_7 1_555 1_555
H12_7 C15_7 1_555 1_555
N3_6 Cu1_8 1_555 1_555
C14_7 C15_7 1_555 1_555
Cu3_3 O1_9 1_555 1_555
O1_9 C1_9 1_555 1_555
C1_9 C2_7 1_555 1_555
C2_7 C3_7 1_555 1_555
C3_7 C4_8 1_555 1_555
C4_8 N3_6 1_555 1_555
N3_6 C5_7 1_555 1_555
C5_7 C6_7 1_555 1_555
C6_7 C2_7 1_555 1_555
C7_6 C1_9 1_555 1_555
C8_6 C7_6 1_555 1_555
O2_6 Cu3_3 1_555 1_555
C9_6 C8_6 1_555 1_555
H1_7 C3_7 1_555 1_555
H2_8 C4_8 1_555 1_555
H3_7 C5_7 1_555 1_555
H4_7 C6_7 1_555 1_555
H5_4 C7_6 1_555 1_555
H8_6 C9_6 1_555 1_555
O3_8 Cu3_3 1_555 1_555
C10_8 O3_8 1_555 1_555
C16_7 C10_8 1_555 1_555
C17_7 C16_7 1_555 1_555
O4_7 Cu3_3 1_555 1_555
C18_7 C17_7 1_555 1_555
H14_5 C18_7 1_555 1_555
H15_5 C18_7 1_555 1_555
H16_7 C18_7 1_555 1_555
C8_6 O2_6 1_555 1_555
C17_7 O4_7 1_555 1_555
C4_9 N3_5 1_555 1_555
H2_9 C4_9 1_555 1_555
C8_7 C7_7 1_555 1_555
O2_7 Cu3_2 1_555 1_555
C9_7 C8_7 1_555 1_555
H5_5 C7_7 1_555 1_555
H6_6 C9_7 1_555 1_555
H7_6 C9_7 1_555 1_555
H8_7 C9_7 1_555 1_555
O3_9 Cu3_2 1_555 1_555
C10_9 O3_9 1_555 1_555
C11_8 C10_9 1_555 1_555
C12_8 C11_8 1_555 1_555
C13_9 C12_8 1_555 1_555
N4_6 C13_9 1_555 1_555
C14_8 N4_6 1_555 1_555
C15_8 C11_8 1_555 1_555
H9_8 C12_8 1_555 1_555
H10_9 C13_9 1_555 1_555
H11_8 C14_8 1_555 1_555
H12_8 C15_8 1_555 1_555
C8_7 O2_7 1_555 1_555
C14_8 C15_8 1_555 1_555
H1_8 C3_8 1_555 1_555
C5_8 C6_8 1_555 1_555
C6_8 C2_8 1_555 1_555
H3_8 C5_8 1_555 1_555
H4_8 C6_8 1_555 1_555
C17_8 C16_8 1_555 1_555
O4_8 Cu1_9 1_555 1_555
C18_8 C17_8 1_555 1_555
H13_7 C16_8 1_555 1_555
H14_7 C18_8 1_555 1_555
H15_7 C18_8 1_555 1_555
H16_8 C18_8 1_555 1_555
C17_8 O4_8 1_555 1_555
C8_8 C7_8 1_555 1_555
O2_8 Cu1_10 1_555 1_555
C9_8 C8_8 1_555 1_555
H5_7 C7_8 1_555 1_555
H6_7 C9_8 1_555 1_555
H7_7 C9_8 1_555 1_555
H8_8 C9_8 1_555 1_555
C8_8 O2_8 1_555 1_555
C8_9 C7_9 1_555 1_555
O2_9 Cu1_11 1_555 1_555
C9_9 C8_9 1_555 1_555
H5_8 C7_9 1_555 1_555
H6_8 C9_9 1_555 1_555
H7_8 C9_9 1_555 1_555
H8_9 C9_9 1_555 1_555
C8_9 O2_9 1_555 1_555
C17_9 C16_9 1_555 1_555
O4_9 Cu1_12 1_555 1_555
C18_9 C17_9 1_555 1_555
H13_8 C16_9 1_555 1_555
H14_8 C18_9 1_555 1_555
H15_8 C18_9 1_555 1_555
H16_9 C18_9 1_555 1_555
C17_9 O4_9 1_555 1_555
H9_9 C12_9 1_555 1_555
C15_9 C11_9 1_555 1_555
H11_9 C14_9 1_555 1_555
H12_9 C15_9 1_555 1_555
C14_9 C15_9 1_555 1_555
C5_9 C6_9 1_555 1_555
C6_9 C2_9 1_555 1_555
H3_9 C5_9 1_555 1_555
H4_9 C6_9 1_555 1_555
H1_9 C3_9 1_555 1_555

#END
