
###############################################################################
#
# This file contains modified crystal structure data generated from the
# MOF subset of the Cambridge Structural Database (CSD) v543 
# hosted by the Cambridge Crystallographic Data Centre (CCDC).
#
# This work is licensed under the Creative Commons
# Attribution-NonCommercial-ShareAlike 4.0 International License.
# To view a copy of this license, visit
# http://creativecommons.org/licenses/by-nc-sa/4.0/
# or send a letter to
# Creative Commons, PO Box 1866, Mountain View, CA 94042, USA.
#
# CIF created using the CSD Python API on 29 September 2022
# The structure has been converted into the P1 space group
# The structure has a 3D framework
# The original CSD entry ECAHIB04 is in the rhombohedral crystal system
# The framework has been calculated to contain at least 10.0% void space
# The void calculation uses a probe of radius 1.32A, grid spacing 0.4
#
###############################################################################

data_ECAHIB04
_chemical_formula_moiety         '(C162 H144 Cu16 N18 O36)n'
_symmetry_cell_setting           triclinic
_symmetry_space_group_name_H-M   'P 1'
_symmetry_Int_Tables_number      1
_space_group_name_Hall           'P 1'
loop_
_symmetry_equiv_pos_site_id
_symmetry_equiv_pos_as_xyz
1 x,y,z
_cell_length_a                   26.025(2)
_cell_length_b                   26.025(2)
_cell_length_c                   7.7498(7)
_cell_angle_alpha                90
_cell_angle_beta                 90
_cell_angle_gamma                120
_cell_volume                     4545.72
loop_
_atom_site_label
_atom_site_type_symbol
_atom_site_fract_x
_atom_site_fract_y
_atom_site_fract_z
C13 C 0.0361(3) 0.7573(4) 0.1764(9)
N2 N 0.0925(3) 0.7961(3) 0.1436(8)
H10 H 0.0255 0.7422 0.2904
Cu2 Cu 0.1666 0.8333 0.3333
Cu3 Cu 0.4999 0.5000 1.0000
Cu1 Cu 0.1666 0.3334 0.3334
O1 O 0.0932(2) 0.3012(3) 0.1975(7)
C1 C 0.0430(3) 0.2587(3) 0.2443(8)
C7 C 0.0316(3) 0.2268(4) 0.3969(9)
C8 C 0.0748(3) 0.2247(4) 0.5005(10)
O2 O 0.1296(3) 0.2580(3) 0.4856(8)
C9 C 0.0543(5) 0.1791(5) 0.6407(14)
H6 H 0.0888 0.1826 0.7024
H7 H 0.0290 0.1854 0.7214
H8 H 0.0317 0.1394 0.5898
O3 O 0.2401(2) 0.3655(3) 0.4692(7)
C10 C 0.2903(3) 0.4080(3) 0.4224(8)
C11 C 0.3392(3) 0.4254(3) 0.5520(7)
C12 C 0.3254(3) 0.4043(4) 0.7199(9)
C13_2 C 0.3694(3) 0.4240(4) 0.8431(9)
N2_2 N 0.4258(3) 0.4628(3) 0.8103(8)
C14 C 0.4387(3) 0.4819(4) 0.6473(8)
C15 C 0.3981(3) 0.4641(4) 0.5163(8)
C16 C 0.3017(3) 0.4399(4) 0.2698(9)
C17 C 0.2585(3) 0.4420(4) 0.1662(10)
O4 O 0.2037(3) 0.4087(3) 0.1811(8)
C18 C 0.2790(5) 0.4876(5) 0.0260(14)
H9 H 0.2856 0.3764 0.7499
H10_2 H 0.3588 0.4089 0.9571
H11 H 0.4789 0.5100 0.6207
H12 H 0.4104 0.4782 0.4021
H13 H 0.3418 0.4620 0.2327
H16 H 0.3016 0.5273 0.0769
N3 N 0.1295(3) 0.3703(4) 0.5230(8)
N4 N 0.2039(3) 0.2963(4) 0.1436(8)
Cu1_2 Cu 0.5000 1.0000 1.0000
O1_2 O 0.4266(2) 0.9678(3) 0.8641(7)
C1_2 C 0.3764(3) 0.9253(3) 0.9109(8)
C2 C 0.3275(3) 0.9079(3) 0.7813(7)
C3 C 0.3413(3) 0.9290(4) 0.6134(9)
C4 C 0.2973(3) 0.9093(4) 0.4902(9)
N1 N 0.2409(3) 0.8705(3) 0.5230(8)
C5 C 0.2280(3) 0.8514(4) 0.6860(8)
C6 C 0.2686(3) 0.8692(4) 0.8170(8)
H1 H 0.3811 0.9569 0.5834
H2 H 0.3079 0.9244 0.3762
H3 H 0.1878 0.8233 0.7126
H4 H 0.2563 0.8551 0.9312
N4_2 N 0.5372(3) 0.9630(4) 0.8103(8)
H6_2 H 0.4841 0.2396 0.0357
H7_2 H 0.4813 0.1770 0.0547
C12_2 C 0.2624(4) 0.2544(5) 0.0532(9)
C13_3 C 0.2427(4) 0.2787(5) 0.1764(9)
H9_2 H 0.2903 0.2425 0.0832
H10_3 H 0.2578 0.2832 0.2904
Cu1_3 Cu 0.6666 0.8333 0.3334
O1_3 O 0.6988(3) 0.7921(4) 0.1975(7)
C1_3 C 0.7413(3) 0.7844(4) 0.2443(8)
C2_2 C 0.7587(3) 0.7529(4) 0.1147(7)
C5_2 C 0.8152(4) 0.7099(5) 0.0194(8)
C6_2 C 0.7974(4) 0.7327(5) 0.1504(8)
C7_2 C 0.7732(4) 0.8049(5) 0.3969(9)
C8_2 C 0.7753(4) 0.8502(5) 0.5005(10)
O2_2 O 0.7420(3) 0.8717(4) 0.4856(8)
C9_2 C 0.8209(5) 0.8753(7) 0.6407(14)
H3_2 H 0.8433 0.6978 0.0460
H4_2 H 0.8115 0.7345 0.2646
H5 H 0.7953 0.7869 0.4340
H6_3 H 0.8174 0.9063 0.7024
H7_3 H 0.8146 0.8437 0.7214
H8_2 H 0.8606 0.8924 0.5898
O3_2 O 0.6345(3) 0.8746(4) 0.4692(7)
C10_2 C 0.5920(3) 0.8823(4) 0.4224(8)
C11_2 C 0.5746(3) 0.9138(4) 0.5520(7)
C12_3 C 0.5957(4) 0.9211(5) 0.7199(9)
C13_4 C 0.5760(4) 0.9454(5) 0.8431(9)
C14_2 C 0.5181(4) 0.9568(5) 0.6473(8)
C15_2 C 0.5359(4) 0.9340(5) 0.5163(8)
C16_2 C 0.5601(4) 0.8618(5) 0.2698(9)
C17_2 C 0.5580(4) 0.8165(5) 0.1662(10)
O4_2 O 0.5913(3) 0.7950(4) 0.1811(8)
C18_2 C 0.5124(5) 0.7914(7) 0.0260(14)
H9_3 H 0.6236 0.9092 0.7499
H10_4 H 0.5911 0.9499 0.9571
H11_2 H 0.4900 0.9689 0.6207
H12_2 H 0.5218 0.9322 0.4021
H13_2 H 0.5380 0.8798 0.2327
H16_2 H 0.4727 0.7743 0.0769
N3_2 N 0.6297(4) 0.7591(5) 0.5230(8)
N4_3 N 0.7037(4) 0.9075(5) 0.1436(8)
Cu1_4 Cu -0.0000 0.4999 1.0000
O1_4 O 0.0322(3) 0.4587(4) 0.8641(7)
C1_4 C 0.0747(3) 0.4510(4) 0.9109(8)
C2_3 C 0.0921(3) 0.4195(4) 0.7813(7)
C3_2 C 0.0710(4) 0.4122(5) 0.6134(9)
C4_2 C 0.0907(4) 0.3879(5) 0.4902(9)
C5_3 C 0.1486(4) 0.3765(5) 0.6860(8)
C6_3 C 0.1308(4) 0.3993(5) 0.8170(8)
H1_2 H 0.0431 0.4241 0.5834
H2_2 H 0.0756 0.3834 0.3762
H3_3 H 0.1767 0.3644 0.7126
H4_3 H 0.1449 0.4011 0.9312
N4_4 N 0.0370(4) 0.5742(5) 0.8103(8)
C13_5 C 0.7213(5) 0.9639(3) 0.1764(9)
H10_5 H 0.7168 0.9745 0.2904
O1_5 O 0.2079(4) 0.9068(2) 0.1975(7)
C1_5 C 0.2156(4) 0.9570(3) 0.2443(8)
C7_3 C 0.1951(5) 0.9684(3) 0.3969(9)
C8_3 C 0.1498(5) 0.9252(3) 0.5005(10)
O2_3 O 0.1283(4) 0.8704(3) 0.4856(8)
C9_3 C 0.1247(7) 0.9457(5) 0.6407(14)
H6_4 H 0.0937 0.9112 0.7024
H7_4 H 0.1563 0.9710 0.7214
H8_3 H 0.1076 0.9683 0.5898
O3_3 O 0.1254(4) 0.7599(2) 0.4692(7)
C10_3 C 0.1177(4) 0.7097(3) 0.4224(8)
C11_3 C 0.0862(4) 0.6608(3) 0.5520(7)
C12_4 C 0.0789(5) 0.6746(3) 0.7199(9)
C13_6 C 0.0546(5) 0.6306(3) 0.8431(9)
C14_3 C 0.0432(5) 0.5613(3) 0.6473(8)
C15_3 C 0.0660(5) 0.6019(3) 0.5163(8)
C16_3 C 0.1382(5) 0.6983(3) 0.2698(9)
C17_3 C 0.1835(5) 0.7415(3) 0.1662(10)
O4_3 O 0.2050(4) 0.7963(3) 0.1811(8)
C18_3 C 0.2086(7) 0.7210(5) 0.0260(14)
H9_4 H 0.0908 0.7144 0.7499
H10_6 H 0.0501 0.6412 0.9571
H11_3 H 0.0311 0.5211 0.6207
H12_3 H 0.0678 0.5896 0.4021
H13_3 H 0.1202 0.6582 0.2327
H16_3 H 0.2257 0.6984 0.0769
O1_6 O 0.5413(4) 0.5734(2) 0.8641(7)
C1_6 C 0.5490(4) 0.6236(3) 0.9109(8)
C2_4 C 0.5805(4) 0.6725(3) 0.7813(7)
C3_3 C 0.5878(5) 0.6587(3) 0.6134(9)
C4_3 C 0.6121(5) 0.7027(3) 0.4902(9)
C5_4 C 0.6235(5) 0.7720(3) 0.6860(8)
C6_4 C 0.6007(5) 0.7314(3) 0.8170(8)
H1_3 H 0.5759 0.6189 0.5834
H2_3 H 0.6166 0.6921 0.3762
H3_4 H 0.6356 0.8122 0.7126
H4_4 H 0.5989 0.7437 0.9312
C16_4 C 0.4715(5) 0.3650(3) 0.9365(9)
C17_4 C 0.5168(5) 0.4082(3) 0.8329(10)
O4_4 O 0.5383(4) 0.4630(3) 0.8478(8)
C18_4 C 0.5419(7) 0.3877(5) 0.6927(14)
H13_4 H 0.4535 0.3249 0.8994
H14 H 0.5729 0.4222 0.6310
H15 H 0.5103 0.3624 0.6120
H16_4 H 0.5590 0.3651 0.7436
C11_4 C 0.0059(3) 0.7587(3) 0.8853(7)
C14_4 C 0.1054(3) 0.8152(4) 0.9806(8)
C15_4 C 0.0648(3) 0.7974(4) 0.8496(8)
H11_4 H 0.1456 0.8433 0.9540
H12_4 H 0.0771 0.8115 0.7354
H13_5 H 0.0085 0.7953 0.5660
H6_5 H 0.7555 0.5159 0.0357
H7_5 H 0.6957 0.5187 0.0547
C12_5 C 0.9921(3) 0.7376(4) 0.0532(9)
H9_5 H 0.9523 0.7097 0.0832
Cu1_5 Cu 0.8333 0.6667 0.6667
O1_7 O 0.7599(2) 0.6345(3) 0.5308(7)
C1_7 C 0.7097(3) 0.5920(3) 0.5776(8)
C2_5 C 0.6608(3) 0.5746(3) 0.4480(7)
C3_4 C 0.6746(3) 0.5957(4) 0.2801(9)
C4_4 C 0.6306(3) 0.5760(4) 0.1569(9)
N1_2 N 0.5742(3) 0.5372(3) 0.1897(8)
C5_5 C 0.5613(3) 0.5181(4) 0.3527(8)
C6_5 C 0.6019(3) 0.5359(4) 0.4837(8)
C7_4 C 0.6983(3) 0.5601(4) 0.7302(9)
C8_4 C 0.7415(3) 0.5580(4) 0.8338(10)
O2_4 O 0.7963(3) 0.5913(3) 0.8189(8)
C9_4 C 0.7210(5) 0.5124(5) 0.9740(14)
H1_4 H 0.7144 0.6236 0.2501
H2_4 H 0.6412 0.5911 0.0429
H3_5 H 0.5211 0.4900 0.3793
H4_5 H 0.5896 0.5218 0.5979
H5_2 H 0.6582 0.5380 0.7673
H8_4 H 0.6984 0.4727 0.9231
O3_4 O 0.9068(2) 0.6988(3) 0.8025(7)
C10_4 C 0.9570(3) 0.7413(3) 0.7557(8)
C16_5 C 0.9684(3) 0.7732(4) 0.6031(9)
C17_5 C 0.9252(3) 0.7753(4) 0.4995(10)
O4_5 O 0.8704(3) 0.7420(3) 0.5144(8)
C18_5 C 0.9457(5) 0.8209(5) 0.3593(14)
H14_2 H 0.9112 0.8174 0.2976
H15_2 H 0.9710 0.8146 0.2786
H16_5 H 0.9683 0.8606 0.4102
Cu3_2 Cu 0.4999 0.5000 -0.0000
N3_3 N 0.7961(3) 0.7037(4) 0.8564(8)
N4_5 N 0.8705(3) 0.6297(4) 0.4770(8)
C4_5 C 0.9639(3) 0.2427(4) 0.8236(9)
N1_3 N 0.9075(3) 0.2039(3) 0.8564(8)
H2_5 H 0.9745 0.2578 0.7096
Cu3_3 Cu 0.8333 0.1666 0.6666
Cu1_6 Cu 0.5000 0.0000 0.0000
O3_5 O 0.5734(2) 0.0322(3) 0.1359(7)
C10_5 C 0.6236(3) 0.0747(3) 0.0891(8)
C11_5 C 0.6725(3) 0.0921(3) 0.2187(7)
C12_6 C 0.6587(3) 0.0710(4) 0.3866(9)
C13_7 C 0.7027(3) 0.0907(4) 0.5098(9)
N2_3 N 0.7591(3) 0.1295(3) 0.4770(8)
C14_5 C 0.7720(3) 0.1486(4) 0.3140(8)
C15_5 C 0.7314(3) 0.1308(4) 0.1830(8)
H9_6 H 0.6189 0.0431 0.4166
H10_7 H 0.6921 0.0756 0.6238
H11_5 H 0.8122 0.1767 0.2874
H12_5 H 0.7437 0.1449 0.0688
N3_4 N 0.4628(3) 0.0370(4) 0.1897(8)
Cu1_7 Cu 0.3333 0.1666 0.6667
O1_8 O 0.3655(3) 0.1254(4) 0.5308(7)
C1_8 C 0.4080(3) 0.1177(4) 0.5776(8)
C2_6 C 0.4254(3) 0.0862(4) 0.4480(7)
C3_5 C 0.4043(4) 0.0789(5) 0.2801(9)
C4_6 C 0.4240(4) 0.0546(5) 0.1569(9)
C5_6 C 0.4819(4) 0.0432(5) 0.3527(8)
C6_6 C 0.4641(4) 0.0660(5) 0.4837(8)
C7_5 C 0.4399(4) 0.1382(5) 0.7302(9)
C8_5 C 0.4420(4) 0.1835(5) 0.8338(10)
O2_5 O 0.4087(3) 0.2050(4) 0.8189(8)
C9_5 C 0.4876(5) 0.2086(7) 0.9740(14)
H1_5 H 0.3764 0.0908 0.2501
H2_6 H 0.4089 0.0501 0.0429
H3_6 H 0.5100 0.0311 0.3793
H4_6 H 0.4782 0.0678 0.5979
H5_3 H 0.4620 0.1202 0.7673
H8_5 H 0.5273 0.2257 0.9231
O3_6 O 0.3012(3) 0.2079(4) 0.8025(7)
C10_6 C 0.2587(3) 0.2156(4) 0.7557(8)
C11_6 C 0.2413(3) 0.2471(4) 0.8853(7)
C14_6 C 0.1848(4) 0.2901(5) 0.9806(8)
C15_6 C 0.2026(4) 0.2673(5) 0.8496(8)
C16_6 C 0.2268(4) 0.1951(5) 0.6031(9)
C17_6 C 0.2247(4) 0.1498(5) 0.4995(10)
O4_6 O 0.2580(3) 0.1283(4) 0.5144(8)
C18_6 C 0.1791(5) 0.1247(7) 0.3593(14)
H11_6 H 0.1567 0.3022 0.9540
H12_6 H 0.1885 0.2655 0.7354
H13_6 H 0.2047 0.2131 0.5660
H14_3 H 0.1826 0.0937 0.2976
H15_3 H 0.1854 0.1563 0.2786
H16_6 H 0.1394 0.1076 0.4102
N3_5 N 0.2963(4) 0.0925(5) 0.8564(8)
N4_6 N 0.3703(4) 0.2409(5) 0.4770(8)
C3_6 C 0.7376(4) 0.7456(5) 0.9468(9)
C4_7 C 0.7573(4) 0.7213(5) 0.8236(9)
H1_6 H 0.7097 0.7575 0.9168
H2_7 H 0.7422 0.7168 0.7096
H14_4 H 0.5159 0.7604 0.9643
H15_4 H 0.5187 0.8230 0.9453
Cu1_8 Cu 1.0000 0.4999 0.0000
O3_7 O 0.9678(3) 0.5413(4) 0.1359(7)
C10_7 C 0.9253(3) 0.5490(4) 0.0891(8)
C11_7 C 0.9079(3) 0.5805(4) 0.2187(7)
C12_7 C 0.9290(4) 0.5878(5) 0.3866(9)
C13_8 C 0.9093(4) 0.6121(5) 0.5098(9)
C14_7 C 0.8514(4) 0.6235(5) 0.3140(8)
C15_7 C 0.8692(4) 0.6007(5) 0.1830(8)
H9_7 H 0.9569 0.5759 0.4166
H10_8 H 0.9244 0.6166 0.6238
H11_7 H 0.8233 0.6356 0.2874
H12_7 H 0.8551 0.5989 0.0688
N3_6 N 0.9630(4) 0.4258(5) 0.1897(8)
O1_9 O 0.8746(4) 0.2401(2) 0.5308(7)
C1_9 C 0.8823(4) 0.2903(3) 0.5776(8)
C2_7 C 0.9138(4) 0.3392(3) 0.4480(7)
C3_7 C 0.9211(5) 0.3254(3) 0.2801(9)
C4_8 C 0.9454(5) 0.3694(3) 0.1569(9)
C5_7 C 0.9568(5) 0.4387(3) 0.3527(8)
C6_7 C 0.9340(5) 0.3981(3) 0.4837(8)
C7_6 C 0.8618(5) 0.3017(3) 0.7302(9)
C8_6 C 0.8165(5) 0.2585(3) 0.8338(10)
O2_6 O 0.7950(4) 0.2037(3) 0.8189(8)
C9_6 C 0.7914(7) 0.2790(5) 0.9740(14)
H1_7 H 0.9092 0.2856 0.2501
H2_8 H 0.9499 0.3588 0.0429
H3_7 H 0.9689 0.4789 0.3793
H4_7 H 0.9322 0.4104 0.5979
H5_4 H 0.8798 0.3418 0.7673
H8_6 H 0.7743 0.3016 0.9231
O3_8 O 0.7921(4) 0.0932(2) 0.8025(7)
C10_8 C 0.7844(4) 0.0430(3) 0.7557(8)
C16_7 C 0.8049(5) 0.0316(3) 0.6031(9)
C17_7 C 0.8502(5) 0.0748(3) 0.4995(10)
O4_7 O 0.8717(4) 0.1296(3) 0.5144(8)
C18_7 C 0.8753(7) 0.0543(5) 0.3593(14)
H14_5 H 0.9063 0.0888 0.2976
H15_5 H 0.8437 0.0290 0.2786
H16_7 H 0.8924 0.0317 0.4102
C4_9 C 0.2787(5) 0.0361(3) 0.8236(9)
H2_9 H 0.2832 0.0255 0.7096
C7_7 C 0.5285(5) 0.6350(3) 0.0635(9)
C8_7 C 0.4832(5) 0.5918(3) 0.1671(10)
O2_7 O 0.4617(4) 0.5370(3) 0.1522(8)
C9_7 C 0.4581(7) 0.6123(5) 0.3073(14)
H5_5 H 0.5465 0.6751 0.1006
H6_6 H 0.4271 0.5778 0.3690
H7_6 H 0.4897 0.6376 0.3880
H8_7 H 0.4410 0.6349 0.2564
O3_9 O 0.4587(4) 0.4266(2) 0.1359(7)
C10_9 C 0.4510(4) 0.3764(3) 0.0891(8)
C11_8 C 0.4195(4) 0.3275(3) 0.2187(7)
C12_8 C 0.4122(5) 0.3413(3) 0.3866(9)
C13_9 C 0.3879(5) 0.2973(3) 0.5098(9)
C14_8 C 0.3765(5) 0.2280(3) 0.3140(8)
C15_8 C 0.3993(5) 0.2686(3) 0.1830(8)
H9_8 H 0.4241 0.3811 0.4166
H10_9 H 0.3834 0.3079 0.6238
H11_8 H 0.3644 0.1878 0.2874
H12_8 H 0.4011 0.2563 0.0688
C3_8 C 0.0079(3) 0.2624(4) 0.9468(9)
H1_8 H 0.0477 0.2903 0.9168
H14_6 H 0.2445 0.4841 0.9643
H15_6 H 0.3043 0.4813 0.9453
C2_8 C 0.9941(3) 0.2413(3) 0.1147(7)
C5_8 C 0.8946(3) 0.1848(4) 0.0194(8)
C6_8 C 0.9352(3) 0.2026(4) 0.1504(8)
H3_8 H 0.8544 0.1567 0.0460
H4_8 H 0.9229 0.1885 0.2646
H5_6 H 0.9915 0.2047 0.4340
Cu1_9 Cu 0.5000 0.0000 1.0000
C16_8 C 0.6350(3) 0.1066(4) 0.9365(9)
C17_8 C 0.5918(3) 0.1087(4) 0.8329(10)
O4_8 O 0.5370(3) 0.0754(3) 0.8478(8)
C18_8 C 0.6123(5) 0.1543(5) 0.6927(14)
H13_7 H 0.6751 0.1287 0.8994
H14_7 H 0.5778 0.1508 0.6310
H15_7 H 0.6376 0.1480 0.6120
H16_8 H 0.6349 0.1940 0.7436
Cu1_10 Cu 0.5000 1.0000 0.0000
C7_8 C 0.3650(3) 0.8934(4) 0.0635(9)
C8_8 C 0.4082(3) 0.8913(4) 0.1671(10)
O2_8 O 0.4630(3) 0.9246(3) 0.1522(8)
C9_8 C 0.3877(5) 0.8457(5) 0.3073(14)
H5_7 H 0.3249 0.8713 0.1006
H6_7 H 0.4222 0.8492 0.3690
H7_7 H 0.3624 0.8520 0.3880
H8_8 H 0.3651 0.8060 0.2564
Cu1_11 Cu -0.0000 0.4999 0.0000
C7_9 C 0.1066(4) 0.4715(5) 0.0635(9)
C8_9 C 0.1087(4) 0.5168(5) 0.1671(10)
O2_9 O 0.0754(3) 0.5383(4) 0.1522(8)
C9_9 C 0.1543(5) 0.5419(7) 0.3073(14)
H5_8 H 0.1287 0.4535 0.1006
H6_8 H 0.1508 0.5729 0.3690
H7_8 H 0.1480 0.5103 0.3880
H8_9 H 0.1940 0.5590 0.2564
Cu1_12 Cu 1.0000 0.4999 1.0000
C16_9 C 0.8934(4) 0.5285(5) 0.9365(9)
C17_9 C 0.8913(4) 0.4832(5) 0.8329(10)
O4_9 O 0.9246(3) 0.4617(4) 0.8478(8)
C18_9 C 0.8457(5) 0.4581(7) 0.6927(14)
H13_8 H 0.8713 0.5465 0.8994
H14_8 H 0.8492 0.4271 0.6310
H15_8 H 0.8520 0.4897 0.6120
H16_9 H 0.8060 0.4410 0.7436
H6_9 H 0.7604 0.2445 0.0357
H7_9 H 0.8230 0.3043 0.0547
C12_9 C 0.7456(5) 0.0079(3) 0.0532(9)
H9_9 H 0.7575 0.0477 0.0832
C11_9 C 0.7529(4) 0.9941(3) 0.8853(7)
C14_9 C 0.7099(5) 0.8946(3) 0.9806(8)
C15_9 C 0.7327(5) 0.9352(3) 0.8496(8)
H11_9 H 0.6978 0.8544 0.9540
H12_9 H 0.7345 0.9229 0.7354
H13_9 H 0.7869 0.9915 0.5660
C2_9 C 0.2471(4) 0.0059(3) 0.1147(7)
C5_9 C 0.2901(5) 0.1054(3) 0.0194(8)
C6_9 C 0.2673(5) 0.0648(3) 0.1504(8)
H3_9 H 0.3022 0.1456 0.0460
H4_9 H 0.2655 0.0771 0.2646
H5_9 H 0.2131 0.0085 0.4340
C3_9 C 0.2544(5) 0.9921(3) 0.9468(9)
H1_9 H 0.2425 0.9523 0.9168
H14_9 H 0.2396 0.7555 0.9643
H15_9 H 0.1770 0.6957 0.9453
loop_
_geom_bond_atom_site_label_1
_geom_bond_atom_site_label_2
_geom_bond_site_symmetry_1
_geom_bond_site_symmetry_2
N2 C13 1_555 1_555
H10 C13 1_555 1_555
Cu2 N2 1_555 1_555
Cu1 O1 1_555 1_555
O1 C1 1_555 1_555
C7 C1 1_555 1_555
C8 C7 1_555 1_555
O2 Cu1 1_555 1_555
C9 C8 1_555 1_555
H6 C9 1_555 1_555
H7 C9 1_555 1_555
H8 C9 1_555 1_555
O3 Cu1 1_555 1_555
C10 O3 1_555 1_555
C11 C10 1_555 1_555
C12 C11 1_555 1_555
C13_2 C12 1_555 1_555
N2_2 C13_2 1_555 1_555
C14 N2_2 1_555 1_555
C15 C11 1_555 1_555
C16 C10 1_555 1_555
C17 C16 1_555 1_555
O4 Cu1 1_555 1_555
C18 C17 1_555 1_555
H9 C12 1_555 1_555
H10_2 C13_2 1_555 1_555
H11 C14 1_555 1_555
H12 C15 1_555 1_555
H13 C16 1_555 1_555
H16 C18 1_555 1_555
Cu3 N2_2 1_555 1_555
N3 Cu1 1_555 1_555
N4 Cu1 1_555 1_555
C8 O2 1_555 1_555
C14 C15 1_555 1_555
C17 O4 1_555 1_555
Cu1_2 O1_2 1_555 1_555
O1_2 C1_2 1_555 1_555
C1_2 C2 1_555 1_555
C2 C3 1_555 1_555
C3 C4 1_555 1_555
C4 N1 1_555 1_555
N1 C5 1_555 1_555
C5 C6 1_555 1_555
C6 C2 1_555 1_555
H1 C3 1_555 1_555
H2 C4 1_555 1_555
H3 C5 1_555 1_555
H4 C6 1_555 1_555
Cu2 N1 1_555 1_555
N4_2 Cu1_2 1_555 1_555
C13_3 C12_2 1_555 1_555
N4 C13_3 1_555 1_555
H9_2 C12_2 1_555 1_555
H10_3 C13_3 1_555 1_555
Cu1_3 O1_3 1_555 1_555
O1_3 C1_3 1_555 1_555
C1_3 C2_2 1_555 1_555
C5_2 C6_2 1_555 1_555
C6_2 C2_2 1_555 1_555
C7_2 C1_3 1_555 1_555
C8_2 C7_2 1_555 1_555
O2_2 Cu1_3 1_555 1_555
C9_2 C8_2 1_555 1_555
H3_2 C5_2 1_555 1_555
H4_2 C6_2 1_555 1_555
H5 C7_2 1_555 1_555
H6_3 C9_2 1_555 1_555
H7_3 C9_2 1_555 1_555
H8_2 C9_2 1_555 1_555
O3_2 Cu1_3 1_555 1_555
C10_2 O3_2 1_555 1_555
C11_2 C10_2 1_555 1_555
C12_3 C11_2 1_555 1_555
C13_4 C12_3 1_555 1_555
N4_2 C13_4 1_555 1_555
C14_2 N4_2 1_555 1_555
C15_2 C11_2 1_555 1_555
C16_2 C10_2 1_555 1_555
C17_2 C16_2 1_555 1_555
O4_2 Cu1_3 1_555 1_555
C18_2 C17_2 1_555 1_555
H9_3 C12_3 1_555 1_555
H10_4 C13_4 1_555 1_555
H11_2 C14_2 1_555 1_555
H12_2 C15_2 1_555 1_555
H13_2 C16_2 1_555 1_555
H16_2 C18_2 1_555 1_555
N3_2 Cu1_3 1_555 1_555
N4_3 Cu1_3 1_555 1_555
C8_2 O2_2 1_555 1_555
C14_2 C15_2 1_555 1_555
C17_2 O4_2 1_555 1_555
Cu1_4 O1_4 1_555 1_555
O1_4 C1_4 1_555 1_555
C1_4 C2_3 1_555 1_555
C2_3 C3_2 1_555 1_555
C3_2 C4_2 1_555 1_555
C4_2 N3 1_555 1_555
N3 C5_3 1_555 1_555
C5_3 C6_3 1_555 1_555
C6_3 C2_3 1_555 1_555
H1_2 C3_2 1_555 1_555
H2_2 C4_2 1_555 1_555
H3_3 C5_3 1_555 1_555
H4_3 C6_3 1_555 1_555
N4_4 Cu1_4 1_555 1_555
N4_3 C13_5 1_555 1_555
H10_5 C13_5 1_555 1_555
Cu2 O1_5 1_555 1_555
O1_5 C1_5 1_555 1_555
C7_3 C1_5 1_555 1_555
C8_3 C7_3 1_555 1_555
O2_3 Cu2 1_555 1_555
C9_3 C8_3 1_555 1_555
H6_4 C9_3 1_555 1_555
H7_4 C9_3 1_555 1_555
H8_3 C9_3 1_555 1_555
O3_3 Cu2 1_555 1_555
C10_3 O3_3 1_555 1_555
C11_3 C10_3 1_555 1_555
C12_4 C11_3 1_555 1_555
C13_6 C12_4 1_555 1_555
N4_4 C13_6 1_555 1_555
C14_3 N4_4 1_555 1_555
C15_3 C11_3 1_555 1_555
C16_3 C10_3 1_555 1_555
C17_3 C16_3 1_555 1_555
O4_3 Cu2 1_555 1_555
C18_3 C17_3 1_555 1_555
H9_4 C12_4 1_555 1_555
H10_6 C13_6 1_555 1_555
H11_3 C14_3 1_555 1_555
H12_3 C15_3 1_555 1_555
H13_3 C16_3 1_555 1_555
H16_3 C18_3 1_555 1_555
C8_3 O2_3 1_555 1_555
C14_3 C15_3 1_555 1_555
C17_3 O4_3 1_555 1_555
Cu3 O1_6 1_555 1_555
O1_6 C1_6 1_555 1_555
C1_6 C2_4 1_555 1_555
C2_4 C3_3 1_555 1_555
C3_3 C4_3 1_555 1_555
C4_3 N3_2 1_555 1_555
N3_2 C5_4 1_555 1_555
C5_4 C6_4 1_555 1_555
C6_4 C2_4 1_555 1_555
H1_3 C3_3 1_555 1_555
H2_3 C4_3 1_555 1_555
H3_4 C5_4 1_555 1_555
H4_4 C6_4 1_555 1_555
C17_4 C16_4 1_555 1_555
O4_4 Cu3 1_555 1_555
C18_4 C17_4 1_555 1_555
H13_4 C16_4 1_555 1_555
H14 C18_4 1_555 1_555
H15 C18_4 1_555 1_555
H16_4 C18_4 1_555 1_555
C17_4 O4_4 1_555 1_555
C15_4 C11_4 1_555 1_555
H11_4 C14_4 1_555 1_555
H12_4 C15_4 1_555 1_555
C14_4 C15_4 1_555 1_555
H9_5 C12_5 1_555 1_555
Cu1_5 O1_7 1_555 1_555
O1_7 C1_7 1_555 1_555
C1_7 C2_5 1_555 1_555
C2_5 C3_4 1_555 1_555
C3_4 C4_4 1_555 1_555
C4_4 N1_2 1_555 1_555
N1_2 C5_5 1_555 1_555
C5_5 C6_5 1_555 1_555
C6_5 C2_5 1_555 1_555
C7_4 C1_7 1_555 1_555
C8_4 C7_4 1_555 1_555
O2_4 Cu1_5 1_555 1_555
C9_4 C8_4 1_555 1_555
H1_4 C3_4 1_555 1_555
H2_4 C4_4 1_555 1_555
H3_5 C5_5 1_555 1_555
H4_5 C6_5 1_555 1_555
H5_2 C7_4 1_555 1_555
H8_4 C9_4 1_555 1_555
O3_4 Cu1_5 1_555 1_555
C10_4 O3_4 1_555 1_555
C16_5 C10_4 1_555 1_555
C17_5 C16_5 1_555 1_555
O4_5 Cu1_5 1_555 1_555
C18_5 C17_5 1_555 1_555
H14_2 C18_5 1_555 1_555
H15_2 C18_5 1_555 1_555
H16_5 C18_5 1_555 1_555
Cu3_2 N1_2 1_555 1_555
N3_3 Cu1_5 1_555 1_555
N4_5 Cu1_5 1_555 1_555
C8_4 O2_4 1_555 1_555
C17_5 O4_5 1_555 1_555
C4_5 N1_3 1_555 1_555
H2_5 C4_5 1_555 1_555
Cu3_3 N1_3 1_555 1_555
O3_5 Cu1_6 1_555 1_555
C10_5 O3_5 1_555 1_555
C11_5 C10_5 1_555 1_555
C12_6 C11_5 1_555 1_555
C13_7 C12_6 1_555 1_555
N2_3 C13_7 1_555 1_555
C14_5 N2_3 1_555 1_555
C15_5 C11_5 1_555 1_555
H9_6 C12_6 1_555 1_555
H10_7 C13_7 1_555 1_555
H11_5 C14_5 1_555 1_555
H12_5 C15_5 1_555 1_555
Cu3_3 N2_3 1_555 1_555
N3_4 Cu1_6 1_555 1_555
C14_5 C15_5 1_555 1_555
Cu1_7 O1_8 1_555 1_555
O1_8 C1_8 1_555 1_555
C1_8 C2_6 1_555 1_555
C2_6 C3_5 1_555 1_555
C3_5 C4_6 1_555 1_555
C4_6 N3_4 1_555 1_555
N3_4 C5_6 1_555 1_555
C5_6 C6_6 1_555 1_555
C6_6 C2_6 1_555 1_555
C7_5 C1_8 1_555 1_555
C8_5 C7_5 1_555 1_555
O2_5 Cu1_7 1_555 1_555
C9_5 C8_5 1_555 1_555
H1_5 C3_5 1_555 1_555
H2_6 C4_6 1_555 1_555
H3_6 C5_6 1_555 1_555
H4_6 C6_6 1_555 1_555
H5_3 C7_5 1_555 1_555
H8_5 C9_5 1_555 1_555
O3_6 Cu1_7 1_555 1_555
C10_6 O3_6 1_555 1_555
C11_6 C10_6 1_555 1_555
C15_6 C11_6 1_555 1_555
C16_6 C10_6 1_555 1_555
C17_6 C16_6 1_555 1_555
O4_6 Cu1_7 1_555 1_555
C18_6 C17_6 1_555 1_555
H11_6 C14_6 1_555 1_555
H12_6 C15_6 1_555 1_555
H13_6 C16_6 1_555 1_555
H14_3 C18_6 1_555 1_555
H15_3 C18_6 1_555 1_555
H16_6 C18_6 1_555 1_555
N3_5 Cu1_7 1_555 1_555
N4_6 Cu1_7 1_555 1_555
C8_5 O2_5 1_555 1_555
C14_6 C15_6 1_555 1_555
C17_6 O4_6 1_555 1_555
C3_6 C4_7 1_555 1_555
C4_7 N3_3 1_555 1_555
H1_6 C3_6 1_555 1_555
H2_7 C4_7 1_555 1_555
O3_7 Cu1_8 1_555 1_555
C10_7 O3_7 1_555 1_555
C11_7 C10_7 1_555 1_555
C12_7 C11_7 1_555 1_555
C13_8 C12_7 1_555 1_555
N4_5 C13_8 1_555 1_555
C14_7 N4_5 1_555 1_555
C15_7 C11_7 1_555 1_555
H9_7 C12_7 1_555 1_555
H10_8 C13_8 1_555 1_555
H11_7 C14_7 1_555 1_555
H12_7 C15_7 1_555 1_555
N3_6 Cu1_8 1_555 1_555
C14_7 C15_7 1_555 1_555
Cu3_3 O1_9 1_555 1_555
O1_9 C1_9 1_555 1_555
C1_9 C2_7 1_555 1_555
C2_7 C3_7 1_555 1_555
C3_7 C4_8 1_555 1_555
C4_8 N3_6 1_555 1_555
N3_6 C5_7 1_555 1_555
C5_7 C6_7 1_555 1_555
C6_7 C2_7 1_555 1_555
C7_6 C1_9 1_555 1_555
C8_6 C7_6 1_555 1_555
O2_6 Cu3_3 1_555 1_555
C9_6 C8_6 1_555 1_555
H1_7 C3_7 1_555 1_555
H2_8 C4_8 1_555 1_555
H3_7 C5_7 1_555 1_555
H4_7 C6_7 1_555 1_555
H5_4 C7_6 1_555 1_555
H8_6 C9_6 1_555 1_555
O3_8 Cu3_3 1_555 1_555
C10_8 O3_8 1_555 1_555
C16_7 C10_8 1_555 1_555
C17_7 C16_7 1_555 1_555
O4_7 Cu3_3 1_555 1_555
C18_7 C17_7 1_555 1_555
H14_5 C18_7 1_555 1_555
H15_5 C18_7 1_555 1_555
H16_7 C18_7 1_555 1_555
C8_6 O2_6 1_555 1_555
C17_7 O4_7 1_555 1_555
C4_9 N3_5 1_555 1_555
H2_9 C4_9 1_555 1_555
C8_7 C7_7 1_555 1_555
O2_7 Cu3_2 1_555 1_555
C9_7 C8_7 1_555 1_555
H5_5 C7_7 1_555 1_555
H6_6 C9_7 1_555 1_555
H7_6 C9_7 1_555 1_555
H8_7 C9_7 1_555 1_555
O3_9 Cu3_2 1_555 1_555
C10_9 O3_9 1_555 1_555
C11_8 C10_9 1_555 1_555
C12_8 C11_8 1_555 1_555
C13_9 C12_8 1_555 1_555
N4_6 C13_9 1_555 1_555
C14_8 N4_6 1_555 1_555
C15_8 C11_8 1_555 1_555
H9_8 C12_8 1_555 1_555
H10_9 C13_9 1_555 1_555
H11_8 C14_8 1_555 1_555
H12_8 C15_8 1_555 1_555
C8_7 O2_7 1_555 1_555
C14_8 C15_8 1_555 1_555
H1_8 C3_8 1_555 1_555
C5_8 C6_8 1_555 1_555
C6_8 C2_8 1_555 1_555
H3_8 C5_8 1_555 1_555
H4_8 C6_8 1_555 1_555
C17_8 C16_8 1_555 1_555
O4_8 Cu1_9 1_555 1_555
C18_8 C17_8 1_555 1_555
H13_7 C16_8 1_555 1_555
H14_7 C18_8 1_555 1_555
H15_7 C18_8 1_555 1_555
H16_8 C18_8 1_555 1_555
C17_8 O4_8 1_555 1_555
C8_8 C7_8 1_555 1_555
O2_8 Cu1_10 1_555 1_555
C9_8 C8_8 1_555 1_555
H5_7 C7_8 1_555 1_555
H6_7 C9_8 1_555 1_555
H7_7 C9_8 1_555 1_555
H8_8 C9_8 1_555 1_555
C8_8 O2_8 1_555 1_555
C8_9 C7_9 1_555 1_555
O2_9 Cu1_11 1_555 1_555
C9_9 C8_9 1_555 1_555
H5_8 C7_9 1_555 1_555
H6_8 C9_9 1_555 1_555
H7_8 C9_9 1_555 1_555
H8_9 C9_9 1_555 1_555
C8_9 O2_9 1_555 1_555
C17_9 C16_9 1_555 1_555
O4_9 Cu1_12 1_555 1_555
C18_9 C17_9 1_555 1_555
H13_8 C16_9 1_555 1_555
H14_8 C18_9 1_555 1_555
H15_8 C18_9 1_555 1_555
H16_9 C18_9 1_555 1_555
C17_9 O4_9 1_555 1_555
H9_9 C12_9 1_555 1_555
C15_9 C11_9 1_555 1_555
H11_9 C14_9 1_555 1_555
H12_9 C15_9 1_555 1_555
C14_9 C15_9 1_555 1_555
C5_9 C6_9 1_555 1_555
C6_9 C2_9 1_555 1_555
H3_9 C5_9 1_555 1_555
H4_9 C6_9 1_555 1_555
H1_9 C3_9 1_555 1_555

#END
