
###############################################################################
#
# This file contains modified crystal structure data generated from the
# MOF subset of the Cambridge Structural Database (CSD) v543 
# hosted by the Cambridge Crystallographic Data Centre (CCDC).
#
# This work is licensed under the Creative Commons
# Attribution-NonCommercial-ShareAlike 4.0 International License.
# To view a copy of this license, visit
# http://creativecommons.org/licenses/by-nc-sa/4.0/
# or send a letter to
# Creative Commons, PO Box 1866, Mountain View, CA 94042, USA.
#
# CIF created using the CSD Python API on 29 September 2022
# The structure has been converted into the P1 space group
# The structure has a 3D framework
# The original CSD entry ECAHEX is in the rhombohedral crystal system
# The framework has been calculated to contain at least 10.0% void space
# The void calculation uses a probe of radius 1.32A, grid spacing 0.4
#
###############################################################################

data_ECAHEX
_chemical_formula_moiety         '(C162 H144 Cu9 N18 O36)n'
_symmetry_cell_setting           triclinic
_symmetry_space_group_name_H-M   'P 1'
_symmetry_Int_Tables_number      1
_space_group_name_Hall           'P 1'
loop_
_symmetry_equiv_pos_site_id
_symmetry_equiv_pos_as_xyz
1 x,y,z
_cell_length_a                   26.718(5)
_cell_length_b                   26.718(5)
_cell_length_c                   7.7553(19)
_cell_angle_alpha                90
_cell_angle_beta                 90
_cell_angle_gamma                120
_cell_volume                     4794.43
loop_
_atom_site_label
_atom_site_type_symbol
_atom_site_fract_x
_atom_site_fract_y
_atom_site_fract_z
Cu6 Cu 0.5000 0.4999 0.0000
Cu7 Cu 0.0000 0.5000 -0.0000
C14 C 0.1519(3) 0.5474(2) 0.2946(6)
H13 H 0.1340 0.5382 0.4062
H18 H 0.1780 0.5327 0.2856
H23 H 0.1728 0.5885 0.2794
C19 C 0.10628(22) 0.52030(15) 0.1581(4)
C24 C 0.10896(23) 0.48077(16) 0.0456(4)
H28 H 0.1359 0.4694 0.0705
O15 O 0.06882(13) 0.53564(9) 0.1535(3)
Cu1 Cu 0.3333 0.1667 0.6667
C4 C 0.45712(13) 0.38208(13) 0.0995(4)
C5 C 0.42531(13) 0.33379(13) 0.2255(4)
C6 C 0.40287(14) 0.27631(14) 0.1842(4)
H5 H 0.4045 0.2653 0.0714
C7 C 0.41898(17) 0.34585(17) 0.3950(4)
H6 H 0.4321 0.3838 0.4291
C8 C 0.39340(17) 0.30174(18) 0.5130(4)
H7 H 0.3901 0.3111 0.6263
C9 C 0.37816(14) 0.23552(15) 0.3111(4)
H8 H 0.3637 0.1970 0.2802
N1 N 0.37332(12) 0.24677(12) 0.4747(3)
O1 O 0.46177(9) 0.43011(8) 0.1418(2)
Cu3 Cu 0.4999 -0.0000 -0.0000
C10 C 0.1814(3) 0.1193(2) 0.3721(6)
C12 C 0.4852(3) 0.2141(2) 0.9613(6)
H9 H 0.1993 0.1285 0.2605
H12 H 0.2625 0.4673 0.9271
H14 H 0.1553 0.1340 0.3811
H16 H 0.5113 0.1994 0.9523
H19 H 0.1605 0.0782 0.3873
H21 H 0.5061 0.2552 0.9461
C15 C 0.22705(22) 0.14637(15) 0.5086(4)
C17 C 0.43961(22) 0.18697(15) 0.8248(4)
C20 C 0.22437(23) 0.18590(16) 0.6211(4)
C22 C 0.44229(23) 0.14744(16) 0.7123(4)
H24 H 0.1974 0.1973 0.5962
H26 H 0.4692 0.1361 0.7372
C25 C 0.25829(18) 0.20955(13) 0.7662(4)
C27 C 0.40837(18) 0.12379(13) 0.5672(4)
C30 C 0.24181(18) 0.24136(13) 0.8922(4)
C32 C 0.42485(18) 0.09198(13) 0.4412(4)
C35 C 0.20677(20) 0.26380(14) 0.8509(4)
C37 C 0.45989(20) 0.06954(14) 0.4825(4)
H29 H 0.1941 0.2622 0.7381
H31 H 0.4725 0.0712 0.5953
C42 C 0.40646(24) 0.08565(17) 0.2717(4)
H36 H 0.3816 0.0988 0.2376
C46 C 0.27327(17) 0.03159(18) 0.8203(4)
C47 C 0.42499(25) 0.06007(17) 0.1537(4)
H40 H 0.2766 0.0222 0.7070
H41 H 0.4123 0.0568 0.0404
C50 C 0.19069(21) 0.28851(14) 0.9778(4)
C52 C 0.47597(21) 0.04483(14) 0.3556(4)
H44 H 0.1666 0.3030 0.9469
H46 H 0.5000 0.0304 0.3865
N3 N 0.29335(12) 0.08656(12) 0.8586(3)
N4 N 0.45988(17) 0.03999(12) 0.1920(3)
O3 O 0.30167(12) 0.20490(9) 0.8085(2)
O5 O 0.36499(12) 0.12844(9) 0.5249(2)
O10 O 0.56989(8) 0.03166(12) 0.1418(2)
O11 O 0.26451(13) 0.13103(9) 0.5132(3)
O13 O 0.40215(13) 0.20231(9) 0.8202(3)
Cu3_2 Cu 0.4999 1.0000 -0.0000
C41 C 0.24769(17) 0.98748(17) 0.9383(4)
H35 H 0.2346 0.9495 0.9042
O17 O 0.46682(9) 0.93118(13) 0.1535(3)
Cu7_2 Cu 1.0000 0.5000 -0.0000
C41_2 C 0.01252(17) 0.26020(24) 0.9383(4)
H35_2 H 0.0505 0.2850 0.9042
Cu1_2 Cu 0.8333 0.1666 0.6667
C4_2 C 0.61792(13) 0.07504(18) 0.0995(4)
C5_2 C 0.66621(13) 0.09152(18) 0.2255(4)
C6_2 C 0.72369(14) 0.12656(20) 0.1842(4)
H5_2 H 0.7347 0.1392 0.0714
C7_2 C 0.65415(17) 0.07313(24) 0.3950(4)
H6_2 H 0.6162 0.0483 0.4291
C8_2 C 0.69826(18) 0.09166(25) 0.5130(4)
H7_2 H 0.6889 0.0790 0.6263
C9_2 C 0.76448(15) 0.14264(21) 0.3111(4)
H8_2 H 0.8030 0.1667 0.2802
N1_2 N 0.75323(12) 0.12655(17) 0.4747(3)
C10_2 C 0.8807(2) 0.0622(4) 0.3721(6)
C12_2 C 0.7859(2) 0.2712(4) 0.9613(6)
H9_2 H 0.8715 0.0709 0.2605
H14_2 H 0.8660 0.0214 0.3811
H16_2 H 0.8006 0.3120 0.9523
H19_2 H 0.9218 0.0824 0.3873
H21_2 H 0.7448 0.2510 0.9461
C15_2 C 0.85363(15) 0.08069(27) 0.5086(4)
C17_2 C 0.81303(15) 0.25265(27) 0.8248(4)
C20_2 C 0.81410(16) 0.03848(28) 0.6211(4)
C22_2 C 0.85256(16) 0.29486(28) 0.7123(4)
H24_2 H 0.8027 0.0002 0.5962
H26_2 H 0.8639 0.3332 0.7372
C25_2 C 0.79045(13) 0.04875(22) 0.7662(4)
C27_2 C 0.87621(13) 0.28459(22) 0.5672(4)
C30_2 C 0.75864(13) 0.00046(22) 0.8922(4)
C32_2 C 0.90802(13) 0.33288(22) 0.4412(4)
C37_2 C 0.93046(14) 0.39036(24) 0.4825(4)
H31_2 H 0.9288 0.4014 0.5953
C42_2 C 0.91435(17) 0.32082(29) 0.2717(4)
H36_2 H 0.9012 0.2829 0.2376
C46_2 C 0.96841(18) 0.24167(25) 0.8203(4)
C47_2 C 0.93993(17) 0.36493(30) 0.1537(4)
H40_2 H 0.9778 0.2543 0.7070
H41_2 H 0.9432 0.3556 0.0404
C52_2 C 0.95517(14) 0.43115(25) 0.3556(4)
H46_2 H 0.9696 0.4697 0.3865
N3_2 N 0.91344(12) 0.20678(17) 0.8586(3)
N4_2 N 0.96001(12) 0.41990(21) 0.1920(3)
O3_2 O 0.79510(9) 0.09678(15) 0.8085(2)
O5_2 O 0.87156(9) 0.23656(15) 0.5249(2)
O10_2 O 0.96834(12) 0.53823(14) 0.1418(2)
O11_2 O 0.86897(9) 0.13349(16) 0.5132(3)
O13_2 O 0.79769(9) 0.19985(16) 0.8202(3)
C14_2 C 0.4526(2) 0.6045(4) 0.2946(6)
H13_2 H 0.4618 0.5958 0.4062
H18_2 H 0.4673 0.6453 0.2856
H23_2 H 0.4115 0.5843 0.2794
C19_2 C 0.47970(15) 0.58598(27) 0.1581(4)
C24_2 C 0.51923(16) 0.62819(28) 0.0456(4)
H28_2 H 0.5306 0.6665 0.0705
O15_2 O 0.46436(9) 0.53318(16) 0.1535(3)
H12_2 H 0.5327 0.7951 0.9271
C35_2 C 0.73620(14) 0.94298(24) 0.8509(4)
H29_2 H 0.7378 0.9320 0.7381
C50_2 C 0.71149(14) 0.90219(25) 0.9778(4)
H44_2 H 0.6970 0.8637 0.9469
C14_3 C 0.3955(4) 0.8481(3) 0.2946(6)
H13_3 H 0.4042 0.8660 0.4062
H18_3 H 0.3547 0.8220 0.2856
H23_3 H 0.4157 0.8272 0.2794
C19_3 C 0.41402(27) 0.89372(22) 0.1581(4)
C24_3 C 0.37181(28) 0.89104(23) 0.0456(4)
H28_3 H 0.3335 0.8641 0.0705
H12_3 H 0.2049 0.7375 0.9271
C35_3 C 0.05702(24) 0.79323(20) 0.8509(4)
H29_3 H 0.0680 0.8059 0.7381
C50_3 C 0.09781(25) 0.80931(21) 0.9778(4)
H44_3 H 0.1363 0.8334 0.9469
Cu1_3 Cu 0.8334 0.6667 0.6667
C4_3 C 0.92496(18) 0.54288(13) 0.0995(4)
C5_3 C 0.90848(18) 0.57469(13) 0.2255(4)
C6_3 C 0.87344(20) 0.59713(14) 0.1842(4)
H5_3 H 0.8608 0.5955 0.0714
C7_3 C 0.92687(24) 0.58102(17) 0.3950(4)
H6_3 H 0.9517 0.5679 0.4291
C8_3 C 0.90834(25) 0.60660(17) 0.5130(4)
H7_3 H 0.9210 0.6099 0.6263
C9_3 C 0.85736(21) 0.62184(14) 0.3111(4)
H8_3 H 0.8333 0.6363 0.2802
N1_3 N 0.87345(17) 0.62668(12) 0.4747(3)
C10_3 C 0.9378(4) 0.8186(3) 0.3721(6)
C12_3 C 0.7288(4) 0.5148(3) 0.9613(6)
H9_3 H 0.9291 0.8007 0.2605
H14_3 H 0.9786 0.8447 0.3811
H16_3 H 0.6880 0.4887 0.9523
H19_3 H 0.9176 0.8395 0.3873
H21_3 H 0.7490 0.4939 0.9461
C15_3 C 0.91931(27) 0.77295(22) 0.5086(4)
C17_3 C 0.74735(27) 0.56039(22) 0.8248(4)
C20_3 C 0.96152(28) 0.77563(23) 0.6211(4)
C22_3 C 0.70514(28) 0.55771(23) 0.7123(4)
H24_3 H 0.9998 0.8026 0.5962
H26_3 H 0.6668 0.5308 0.7372
C25_3 C 0.95125(22) 0.74171(18) 0.7662(4)
C27_3 C 0.71541(22) 0.59163(18) 0.5672(4)
C30_3 C 0.99954(22) 0.75819(18) 0.8922(4)
C32_3 C 0.66712(22) 0.57515(18) 0.4412(4)
C37_3 C 0.60964(24) 0.54011(20) 0.4825(4)
H31_3 H 0.5986 0.5275 0.5953
C41_3 C 0.73980(24) 0.75231(17) 0.9383(4)
C42_3 C 0.67918(29) 0.59354(24) 0.2717(4)
H35_3 H 0.7150 0.7654 0.9042
H36_3 H 0.7171 0.6184 0.2376
C46_3 C 0.75833(25) 0.72673(17) 0.8203(4)
C47_3 C 0.63507(30) 0.57501(25) 0.1537(4)
H40_3 H 0.7457 0.7234 0.7070
H41_3 H 0.6444 0.5877 0.0404
C52_3 C 0.56885(25) 0.52403(21) 0.3556(4)
H46_3 H 0.5303 0.5000 0.3865
N3_3 N 0.79322(17) 0.70665(12) 0.8586(3)
N4_3 N 0.58010(21) 0.54012(17) 0.1920(3)
O3_3 O 0.90322(15) 0.69833(12) 0.8085(2)
O5_3 O 0.76344(15) 0.63501(12) 0.5249(2)
O11_3 O 0.86651(16) 0.73549(13) 0.5132(3)
O13_3 O 0.80015(16) 0.59785(13) 0.8202(3)
Cu2 Cu 0.1667 0.3334 0.3334
Cu6_2 Cu 0.5000 0.4999 1.0000
Cu7_3 Cu 0.0000 0.5000 1.0000
C13 C 0.2712(2) 0.4852(3) 0.0387(6)
H11 H 0.4673 0.2049 0.0729
H17 H 0.3120 0.5113 0.0477
H22 H 0.2510 0.5061 0.0539
C18 C 0.25265(16) 0.43961(22) 0.1752(4)
C23 C 0.29486(17) 0.44229(23) 0.2877(4)
H27 H 0.3332 0.4692 0.2628
C28 C 0.28459(13) 0.40837(18) 0.4328(4)
C29 C 0.07504(18) 0.45712(13) 0.9005(4)
C33 C 0.33288(13) 0.42485(18) 0.5588(4)
C34 C 0.09152(18) 0.42531(13) 0.7745(4)
C36 C 0.26380(14) 0.05702(14) 0.1491(4)
C38 C 0.39036(14) 0.45989(20) 0.5175(4)
C39 C 0.12656(20) 0.40287(14) 0.8158(4)
H30 H 0.2622 0.0680 0.2619
H32 H 0.4014 0.4725 0.4047
H33 H 0.1392 0.4045 0.9286
C40 C 0.26020(24) 0.24769(17) 0.0617(4)
C43 C 0.32082(17) 0.40646(24) 0.7283(4)
C44 C 0.07313(24) 0.41898(17) 0.6050(4)
H34 H 0.2850 0.2346 0.0958
H37 H 0.2829 0.3816 0.7624
H38 H 0.0483 0.4321 0.5709
C45 C 0.24167(25) 0.27327(17) 0.1797(4)
C48 C 0.36493(18) 0.42499(25) 0.8463(4)
C49 C 0.09166(25) 0.39340(17) 0.4870(4)
H39 H 0.2543 0.2766 0.2930
H42 H 0.3556 0.4123 0.9596
H43 H 0.0790 0.3901 0.3737
C51 C 0.28851(14) 0.09781(15) 0.0222(4)
C53 C 0.43115(15) 0.47597(21) 0.6444(4)
C54 C 0.14264(21) 0.37816(14) 0.6889(4)
H45 H 0.3030 0.1363 0.0531
H47 H 0.4697 0.5000 0.6135
H48 H 0.1667 0.3637 0.7198
N2 N 0.20678(17) 0.29335(12) 0.1414(3)
N5 N 0.41990(12) 0.45988(17) 0.8080(3)
N6 N 0.12655(17) 0.37332(12) 0.5253(3)
O6 O 0.23656(8) 0.36499(12) 0.4751(2)
O7 O 0.03166(12) 0.46177(9) 0.8582(2)
O8 O 0.09678(8) 0.30167(12) 0.1915(2)
O14 O 0.19985(9) 0.40215(13) 0.1798(3)
O16 O 0.13349(9) 0.26451(13) 0.4868(3)
C1 C 0.5474(2) 0.3955(2) 0.7054(6)
H1 H 0.5382 0.4042 0.5938
H2 H 0.5327 0.3547 0.7144
H3 H 0.5885 0.4157 0.7206
C2 C 0.52030(15) 0.41402(16) 0.8419(4)
C3 C 0.48077(16) 0.37181(17) 0.9544(4)
H4 H 0.4694 0.3335 0.9295
O2 O 0.53564(9) 0.46682(9) 0.8465(3)
Cu3_3 Cu 0.4999 -0.0000 1.0000
O18 O 0.53318(9) 0.06882(13) 0.8465(3)
Cu5 Cu 0.1667 0.8334 0.3333
C11 C 0.1193(2) 0.9378(2) 0.6279(6)
H10 H 0.1285 0.9291 0.7395
H15 H 0.1340 0.9786 0.6189
H20 H 0.0782 0.9176 0.6127
C16 C 0.14637(15) 0.91931(16) 0.4914(4)
C21 C 0.18590(16) 0.96152(17) 0.3789(4)
H25 H 0.1973 0.9998 0.4038
C26 C 0.20955(13) 0.95125(13) 0.2338(4)
C31 C 0.24136(13) 0.99954(13) 0.1078(4)
O4 O 0.20490(9) 0.90322(8) 0.1915(2)
O12 O 0.13103(9) 0.86651(9) 0.4868(3)
Cu3_4 Cu 0.4999 1.0000 1.0000
N7 N 0.54012(17) 0.96001(12) 0.8080(3)
O9 O 0.43011(8) 0.96834(12) 0.8582(2)
Cu7_4 Cu 1.0000 0.5000 1.0000
C11_2 C 0.0622(2) 0.1814(3) 0.6279(6)
H10_2 H 0.0709 0.1993 0.7395
H15_2 H 0.0214 0.1553 0.6189
H20_2 H 0.0824 0.1605 0.6127
C16_2 C 0.08069(16) 0.22705(22) 0.4914(4)
C21_2 C 0.03848(17) 0.22437(23) 0.3789(4)
H25_2 H 0.0002 0.1974 0.4038
C26_2 C 0.04875(13) 0.25829(18) 0.2338(4)
C31_2 C 0.00046(13) 0.24181(18) 0.1078(4)
N7_2 N 0.03999(12) 0.58010(21) 0.8080(3)
H11_2 H 0.7951 0.2625 0.0729
C36_2 C 0.94298(14) 0.20677(20) 0.1491(4)
H30_2 H 0.9320 0.1941 0.2619
C40_2 C 0.75231(17) 0.01252(29) 0.0617(4)
H34_2 H 0.7654 0.0505 0.0958
C51_2 C 0.90219(15) 0.19069(21) 0.0222(4)
H45_2 H 0.8637 0.1666 0.0531
C1_2 C 0.6045(2) 0.1519(3) 0.7054(6)
H1_2 H 0.5958 0.1340 0.5938
H2_2 H 0.6453 0.1780 0.7144
H3_2 H 0.5843 0.1728 0.7206
C2_2 C 0.58598(16) 0.10628(22) 0.8419(4)
C3_2 C 0.62819(17) 0.10896(23) 0.9544(4)
H4_2 H 0.6665 0.1359 0.9295
O18_2 O 0.93118(13) 0.46436(16) 0.8465(3)
Cu2_2 Cu 0.6666 0.8334 0.3334
C13_2 C 0.5148(3) 0.7859(4) 0.0387(6)
H17_2 H 0.4887 0.8006 0.0477
H22_2 H 0.4939 0.7448 0.0539
C18_2 C 0.56039(22) 0.81303(27) 0.1752(4)
C23_2 C 0.55771(23) 0.85256(29) 0.2877(4)
H27_2 H 0.5308 0.8639 0.2628
C28_2 C 0.59163(18) 0.87621(22) 0.4328(4)
C29_2 C 0.54288(13) 0.61792(22) 0.9005(4)
C33_2 C 0.57515(18) 0.90802(22) 0.5588(4)
C34_2 C 0.57469(13) 0.66621(22) 0.7745(4)
C38_2 C 0.54011(20) 0.93046(24) 0.5175(4)
C39_2 C 0.59713(14) 0.72369(24) 0.8158(4)
H32_2 H 0.5275 0.9288 0.4047
H33_2 H 0.5955 0.7347 0.9286
C43_2 C 0.59354(24) 0.91435(29) 0.7283(4)
C44_2 C 0.58102(17) 0.65415(29) 0.6050(4)
H37_2 H 0.6184 0.9012 0.7624
H38_2 H 0.5679 0.6162 0.5709
C45_2 C 0.72673(17) 0.96841(30) 0.1797(4)
C48_2 C 0.57501(25) 0.93993(31) 0.8463(4)
C49_2 C 0.60660(17) 0.69826(30) 0.4870(4)
H39_2 H 0.7234 0.9778 0.2930
H42_2 H 0.5877 0.9432 0.9596
H43_2 H 0.6099 0.6889 0.3737
C53_2 C 0.52403(21) 0.95517(26) 0.6444(4)
C54_2 C 0.62184(14) 0.76448(25) 0.6889(4)
H47_2 H 0.5000 0.9696 0.6135
H48_2 H 0.6363 0.8030 0.7198
N2_2 N 0.70665(12) 0.91344(21) 0.1414(3)
N6_2 N 0.62668(12) 0.75323(21) 0.5253(3)
O6_2 O 0.63501(12) 0.87156(14) 0.4751(2)
O7_2 O 0.53823(9) 0.56989(15) 0.8582(2)
O8_2 O 0.69833(12) 0.79510(14) 0.1915(2)
O14_2 O 0.59785(13) 0.79769(16) 0.1798(3)
O16_2 O 0.73549(13) 0.86897(16) 0.4868(3)
C13_3 C 0.2141(4) 0.7288(2) 0.0387(6)
H17_3 H 0.1994 0.6880 0.0477
H22_3 H 0.2552 0.7490 0.0539
C18_3 C 0.18697(27) 0.74735(16) 0.1752(4)
C23_3 C 0.14744(29) 0.70514(17) 0.2877(4)
H27_3 H 0.1361 0.6668 0.2628
C28_3 C 0.12379(22) 0.71541(13) 0.4328(4)
C29_3 C 0.38208(22) 0.92496(18) 0.9005(4)
C33_3 C 0.09198(22) 0.66712(13) 0.5588(4)
C34_3 C 0.33379(22) 0.90848(18) 0.7745(4)
C38_3 C 0.06954(24) 0.60964(14) 0.5175(4)
C39_3 C 0.27631(24) 0.87344(20) 0.8158(4)
H32_3 H 0.0712 0.5986 0.4047
H33_3 H 0.2653 0.8608 0.9286
C43_3 C 0.08565(29) 0.67918(17) 0.7283(4)
C44_3 C 0.34585(29) 0.92687(24) 0.6050(4)
H37_3 H 0.0988 0.7171 0.7624
H38_3 H 0.3838 0.9517 0.5709
C45_3 C 0.03159(30) 0.75833(25) 0.1797(4)
C48_3 C 0.06007(31) 0.63507(18) 0.8463(4)
C49_3 C 0.30174(30) 0.90834(25) 0.4870(4)
H39_3 H 0.0222 0.7457 0.2930
H42_3 H 0.0568 0.6444 0.9596
H43_3 H 0.3111 0.9210 0.3737
C53_3 C 0.04483(26) 0.56885(15) 0.6444(4)
C54_3 C 0.23552(25) 0.85736(21) 0.6889(4)
H47_3 H 0.0304 0.5303 0.6135
H48_3 H 0.1970 0.8333 0.7198
N2_3 N 0.08656(21) 0.79322(17) 0.1414(3)
N6_3 N 0.24677(21) 0.87345(17) 0.5253(3)
O6_3 O 0.12844(14) 0.76344(8) 0.4751(2)
O14_3 O 0.20231(16) 0.80015(9) 0.1798(3)
C11_3 C 0.8186(3) 0.8807(2) 0.6279(6)
H10_3 H 0.8007 0.8715 0.7395
H11_3 H 0.7375 0.5327 0.0729
H15_3 H 0.8447 0.8660 0.6189
H20_3 H 0.8395 0.9218 0.6127
C16_3 C 0.77295(22) 0.85363(15) 0.4914(4)
C21_3 C 0.77563(23) 0.81410(16) 0.3789(4)
H25_3 H 0.8026 0.8027 0.4038
C26_3 C 0.74171(18) 0.79045(13) 0.2338(4)
C31_3 C 0.75819(18) 0.75864(13) 0.1078(4)
C36_3 C 0.79323(20) 0.73620(14) 0.1491(4)
H30_3 H 0.8059 0.7378 0.2619
C40_3 C 0.98748(29) 0.73980(24) 0.0617(4)
H34_3 H 0.9495 0.7150 0.0958
C51_3 C 0.80931(21) 0.71149(14) 0.0222(4)
H45_3 H 0.8334 0.6970 0.0531
C1_3 C 0.8481(3) 0.4526(2) 0.7054(6)
H1_3 H 0.8660 0.4618 0.5938
H2_3 H 0.8220 0.4673 0.7144
H3_3 H 0.8272 0.4115 0.7206
C2_3 C 0.89372(22) 0.47970(15) 0.8419(4)
C3_3 C 0.89104(23) 0.51923(16) 0.9544(4)
H4_3 H 0.8641 0.5306 0.9295
loop_
_geom_bond_atom_site_label_1
_geom_bond_atom_site_label_2
_geom_bond_site_symmetry_1
_geom_bond_site_symmetry_2
C14 H13 1_555 1_555
H18 C14 1_555 1_555
H23 C14 1_555 1_555
C19 C14 1_555 1_555
C24 C19 1_555 1_555
H28 C24 1_555 1_555
O15 Cu7 1_555 1_555
C19 O15 1_555 1_555
Cu1 N1 1_555 1_555
C5 C4 1_555 1_555
C6 C5 1_555 1_555
H5 C6 1_555 1_555
C7 C5 1_555 1_555
H6 C7 1_555 1_555
C8 C7 1_555 1_555
H7 C8 1_555 1_555
C9 C6 1_555 1_555
H8 C9 1_555 1_555
N1 C8 1_555 1_555
O1 C4 1_555 1_555
Cu3 N4 1_555 1_555
Cu6 O1 1_555 1_555
C10 H9 1_555 1_555
H14 C10 1_555 1_555
H16 C12 1_555 1_555
H19 C10 1_555 1_555
H21 C12 1_555 1_555
C15 C10 1_555 1_555
C17 C12 1_555 1_555
C20 C15 1_555 1_555
C22 C17 1_555 1_555
H24 C20 1_555 1_555
H26 C22 1_555 1_555
C25 C20 1_555 1_555
C27 C22 1_555 1_555
C30 C25 1_555 1_555
C32 C27 1_555 1_555
C35 C30 1_555 1_555
C37 C32 1_555 1_555
H29 C35 1_555 1_555
H31 C37 1_555 1_555
C42 C32 1_555 1_555
H36 C42 1_555 1_555
C47 C42 1_555 1_555
H40 C46 1_555 1_555
H41 C47 1_555 1_555
C50 C35 1_555 1_555
C52 C37 1_555 1_555
H44 C50 1_555 1_555
H46 C52 1_555 1_555
N3 Cu1 1_555 1_555
N4 C47 1_555 1_555
O3 Cu1 1_555 1_555
O5 Cu1 1_555 1_555
O10 Cu3 1_555 1_555
O11 Cu1 1_555 1_555
O13 Cu1 1_555 1_555
C9 N1 1_555 1_555
C15 O11 1_555 1_555
C17 O13 1_555 1_555
C25 O3 1_555 1_555
C27 O5 1_555 1_555
C46 N3 1_555 1_555
C52 N4 1_555 1_555
H35 C41 1_555 1_555
O17 Cu3_2 1_555 1_555
H35_2 C41_2 1_555 1_555
Cu1_2 N1_2 1_555 1_555
C5_2 C4_2 1_555 1_555
C6_2 C5_2 1_555 1_555
H5_2 C6_2 1_555 1_555
C7_2 C5_2 1_555 1_555
H6_2 C7_2 1_555 1_555
C8_2 C7_2 1_555 1_555
H7_2 C8_2 1_555 1_555
C9_2 C6_2 1_555 1_555
H8_2 C9_2 1_555 1_555
N1_2 C8_2 1_555 1_555
O10 C4_2 1_555 1_555
Cu7_2 N4_2 1_555 1_555
C10_2 H9_2 1_555 1_555
H14_2 C10_2 1_555 1_555
H16_2 C12_2 1_555 1_555
H19_2 C10_2 1_555 1_555
H21_2 C12_2 1_555 1_555
C15_2 C10_2 1_555 1_555
C17_2 C12_2 1_555 1_555
C20_2 C15_2 1_555 1_555
C22_2 C17_2 1_555 1_555
H24_2 C20_2 1_555 1_555
H26_2 C22_2 1_555 1_555
C25_2 C20_2 1_555 1_555
C27_2 C22_2 1_555 1_555
C30_2 C25_2 1_555 1_555
C32_2 C27_2 1_555 1_555
C37_2 C32_2 1_555 1_555
H31_2 C37_2 1_555 1_555
C42_2 C32_2 1_555 1_555
H36_2 C42_2 1_555 1_555
C47_2 C42_2 1_555 1_555
H40_2 C46_2 1_555 1_555
H41_2 C47_2 1_555 1_555
C52_2 C37_2 1_555 1_555
H46_2 C52_2 1_555 1_555
N3_2 Cu1_2 1_555 1_555
N4_2 C47_2 1_555 1_555
O3_2 Cu1_2 1_555 1_555
O5_2 Cu1_2 1_555 1_555
O10_2 Cu7_2 1_555 1_555
O11_2 Cu1_2 1_555 1_555
O13_2 Cu1_2 1_555 1_555
C9_2 N1_2 1_555 1_555
C15_2 O11_2 1_555 1_555
C17_2 O13_2 1_555 1_555
C25_2 O3_2 1_555 1_555
C27_2 O5_2 1_555 1_555
C46_2 N3_2 1_555 1_555
C52_2 N4_2 1_555 1_555
C14_2 H13_2 1_555 1_555
H18_2 C14_2 1_555 1_555
H23_2 C14_2 1_555 1_555
C19_2 C14_2 1_555 1_555
C24_2 C19_2 1_555 1_555
H28_2 C24_2 1_555 1_555
O15_2 Cu6 1_555 1_555
C19_2 O15_2 1_555 1_555
H29_2 C35_2 1_555 1_555
C50_2 C35_2 1_555 1_555
H44_2 C50_2 1_555 1_555
C14_3 H13_3 1_555 1_555
H18_3 C14_3 1_555 1_555
H23_3 C14_3 1_555 1_555
C19_3 C14_3 1_555 1_555
C24_3 C19_3 1_555 1_555
H28_3 C24_3 1_555 1_555
C19_3 O17 1_555 1_555
H29_3 C35_3 1_555 1_555
C50_3 C35_3 1_555 1_555
H44_3 C50_3 1_555 1_555
Cu1_3 N1_3 1_555 1_555
C5_3 C4_3 1_555 1_555
C6_3 C5_3 1_555 1_555
H5_3 C6_3 1_555 1_555
C7_3 C5_3 1_555 1_555
H6_3 C7_3 1_555 1_555
C8_3 C7_3 1_555 1_555
H7_3 C8_3 1_555 1_555
C9_3 C6_3 1_555 1_555
H8_3 C9_3 1_555 1_555
N1_3 C8_3 1_555 1_555
O10_2 C4_3 1_555 1_555
Cu6 N4_3 1_555 1_555
C10_3 H9_3 1_555 1_555
H14_3 C10_3 1_555 1_555
H16_3 C12_3 1_555 1_555
H19_3 C10_3 1_555 1_555
H21_3 C12_3 1_555 1_555
C15_3 C10_3 1_555 1_555
C17_3 C12_3 1_555 1_555
C20_3 C15_3 1_555 1_555
C22_3 C17_3 1_555 1_555
H24_3 C20_3 1_555 1_555
H26_3 C22_3 1_555 1_555
C25_3 C20_3 1_555 1_555
C27_3 C22_3 1_555 1_555
C30_3 C25_3 1_555 1_555
C32_3 C27_3 1_555 1_555
C37_3 C32_3 1_555 1_555
H31_3 C37_3 1_555 1_555
C42_3 C32_3 1_555 1_555
H35_3 C41_3 1_555 1_555
H36_3 C42_3 1_555 1_555
C46_3 C41_3 1_555 1_555
C47_3 C42_3 1_555 1_555
H40_3 C46_3 1_555 1_555
H41_3 C47_3 1_555 1_555
C52_3 C37_3 1_555 1_555
H46_3 C52_3 1_555 1_555
N3_3 Cu1_3 1_555 1_555
N4_3 C47_3 1_555 1_555
O3_3 Cu1_3 1_555 1_555
O5_3 Cu1_3 1_555 1_555
O11_3 Cu1_3 1_555 1_555
O13_3 Cu1_3 1_555 1_555
C9_3 N1_3 1_555 1_555
C15_3 O11_3 1_555 1_555
C17_3 O13_3 1_555 1_555
C25_3 O3_3 1_555 1_555
C27_3 O5_3 1_555 1_555
C46_3 N3_3 1_555 1_555
C52_3 N4_3 1_555 1_555
Cu2 N2 1_555 1_555
Cu6_2 N5 1_555 1_555
Cu7_3 O7 1_555 1_555
H17 C13 1_555 1_555
H22 C13 1_555 1_555
C18 C13 1_555 1_555
C23 C18 1_555 1_555
H27 C23 1_555 1_555
C28 C23 1_555 1_555
C33 C28 1_555 1_555
C34 C29 1_555 1_555
C38 C33 1_555 1_555
C39 C34 1_555 1_555
H30 C36 1_555 1_555
H32 C38 1_555 1_555
H33 C39 1_555 1_555
C43 C33 1_555 1_555
C44 C34 1_555 1_555
H34 C40 1_555 1_555
H37 C43 1_555 1_555
H38 C44 1_555 1_555
C45 C40 1_555 1_555
C48 C43 1_555 1_555
C49 C44 1_555 1_555
H39 C45 1_555 1_555
H42 C48 1_555 1_555
H43 C49 1_555 1_555
C51 C36 1_555 1_555
C53 C38 1_555 1_555
C54 C39 1_555 1_555
H45 C51 1_555 1_555
H47 C53 1_555 1_555
H48 C54 1_555 1_555
N2 C45 1_555 1_555
N5 C48 1_555 1_555
N6 Cu2 1_555 1_555
O6 Cu2 1_555 1_555
O7 C29 1_555 1_555
O8 Cu2 1_555 1_555
O14 Cu2 1_555 1_555
O16 Cu2 1_555 1_555
C18 O14 1_555 1_555
C28 O6 1_555 1_555
C49 N6 1_555 1_555
C53 N5 1_555 1_555
C54 N6 1_555 1_555
C1 H1 1_555 1_555
H2 C1 1_555 1_555
H3 C1 1_555 1_555
C2 C1 1_555 1_555
C3 C2 1_555 1_555
H4 C3 1_555 1_555
O2 C2 1_555 1_555
O18 Cu3_3 1_555 1_555
O2 Cu6_2 1_555 1_555
Cu5 O4 1_555 1_555
C11 H10 1_555 1_555
H15 C11 1_555 1_555
H20 C11 1_555 1_555
C16 C11 1_555 1_555
C21 C16 1_555 1_555
H25 C21 1_555 1_555
C26 C21 1_555 1_555
C31 C26 1_555 1_555
O4 C26 1_555 1_555
O12 Cu5 1_555 1_555
C16 O12 1_555 1_555
N7 Cu3_4 1_555 1_555
O9 Cu3_4 1_555 1_555
C11_2 H10_2 1_555 1_555
H15_2 C11_2 1_555 1_555
H20_2 C11_2 1_555 1_555
C16_2 C11_2 1_555 1_555
C21_2 C16_2 1_555 1_555
H25_2 C21_2 1_555 1_555
C26_2 C21_2 1_555 1_555
C31_2 C26_2 1_555 1_555
O8 C26_2 1_555 1_555
C16_2 O16 1_555 1_555
N7_2 Cu7_3 1_555 1_555
H30_2 C36_2 1_555 1_555
H34_2 C40_2 1_555 1_555
C51_2 C36_2 1_555 1_555
H45_2 C51_2 1_555 1_555
C1_2 H1_2 1_555 1_555
H2_2 C1_2 1_555 1_555
H3_2 C1_2 1_555 1_555
C2_2 C1_2 1_555 1_555
C3_2 C2_2 1_555 1_555
H4_2 C3_2 1_555 1_555
O18 C2_2 1_555 1_555
O18_2 Cu7_4 1_555 1_555
Cu2_2 N2_2 1_555 1_555
Cu6_2 O7_2 1_555 1_555
H17_2 C13_2 1_555 1_555
H22_2 C13_2 1_555 1_555
C18_2 C13_2 1_555 1_555
C23_2 C18_2 1_555 1_555
H27_2 C23_2 1_555 1_555
C28_2 C23_2 1_555 1_555
C33_2 C28_2 1_555 1_555
C34_2 C29_2 1_555 1_555
C38_2 C33_2 1_555 1_555
C39_2 C34_2 1_555 1_555
H32_2 C38_2 1_555 1_555
H33_2 C39_2 1_555 1_555
C43_2 C33_2 1_555 1_555
C44_2 C34_2 1_555 1_555
H37_2 C43_2 1_555 1_555
H38_2 C44_2 1_555 1_555
C48_2 C43_2 1_555 1_555
C49_2 C44_2 1_555 1_555
H39_2 C45_2 1_555 1_555
H42_2 C48_2 1_555 1_555
H43_2 C49_2 1_555 1_555
C53_2 C38_2 1_555 1_555
C54_2 C39_2 1_555 1_555
H47_2 C53_2 1_555 1_555
H48_2 C54_2 1_555 1_555
N2_2 C45_2 1_555 1_555
N7 C48_2 1_555 1_555
N6_2 Cu2_2 1_555 1_555
O6_2 Cu2_2 1_555 1_555
O7_2 C29_2 1_555 1_555
O8_2 Cu2_2 1_555 1_555
O14_2 Cu2_2 1_555 1_555
O16_2 Cu2_2 1_555 1_555
C18_2 O14_2 1_555 1_555
C28_2 O6_2 1_555 1_555
C49_2 N6_2 1_555 1_555
C53_2 N7 1_555 1_555
C54_2 N6_2 1_555 1_555
Cu5 N2_3 1_555 1_555
H17_3 C13_3 1_555 1_555
H22_3 C13_3 1_555 1_555
C18_3 C13_3 1_555 1_555
C23_3 C18_3 1_555 1_555
H27_3 C23_3 1_555 1_555
C28_3 C23_3 1_555 1_555
C33_3 C28_3 1_555 1_555
C34_3 C29_3 1_555 1_555
C38_3 C33_3 1_555 1_555
C39_3 C34_3 1_555 1_555
H32_3 C38_3 1_555 1_555
H33_3 C39_3 1_555 1_555
C43_3 C33_3 1_555 1_555
C44_3 C34_3 1_555 1_555
H37_3 C43_3 1_555 1_555
H38_3 C44_3 1_555 1_555
C48_3 C43_3 1_555 1_555
C49_3 C44_3 1_555 1_555
H39_3 C45_3 1_555 1_555
H42_3 C48_3 1_555 1_555
H43_3 C49_3 1_555 1_555
C53_3 C38_3 1_555 1_555
C54_3 C39_3 1_555 1_555
H47_3 C53_3 1_555 1_555
H48_3 C54_3 1_555 1_555
N2_3 C45_3 1_555 1_555
N7_2 C48_3 1_555 1_555
N6_3 Cu5 1_555 1_555
O6_3 Cu5 1_555 1_555
O9 C29_3 1_555 1_555
O14_3 Cu5 1_555 1_555
C18_3 O14_3 1_555 1_555
C28_3 O6_3 1_555 1_555
C49_3 N6_3 1_555 1_555
C53_3 N7_2 1_555 1_555
C54_3 N6_3 1_555 1_555
C11_3 H10_3 1_555 1_555
H15_3 C11_3 1_555 1_555
H20_3 C11_3 1_555 1_555
C16_3 C11_3 1_555 1_555
C21_3 C16_3 1_555 1_555
H25_3 C21_3 1_555 1_555
C26_3 C21_3 1_555 1_555
C31_3 C26_3 1_555 1_555
C36_3 C31_3 1_555 1_555
H30_3 C36_3 1_555 1_555
H34_3 C40_3 1_555 1_555
C51_3 C36_3 1_555 1_555
H45_3 C51_3 1_555 1_555
O8_2 C26_3 1_555 1_555
C16_3 O16_2 1_555 1_555
C1_3 H1_3 1_555 1_555
H2_3 C1_3 1_555 1_555
H3_3 C1_3 1_555 1_555
C2_3 C1_3 1_555 1_555
C3_3 C2_3 1_555 1_555
H4_3 C3_3 1_555 1_555
O18_2 C2_3 1_555 1_555

#END
