
###############################################################################
#
# This file contains modified crystal structure data generated from the
# MOF subset of the Cambridge Structural Database (CSD) v543 
# hosted by the Cambridge Crystallographic Data Centre (CCDC).
#
# This work is licensed under the Creative Commons
# Attribution-NonCommercial-ShareAlike 4.0 International License.
# To view a copy of this license, visit
# http://creativecommons.org/licenses/by-nc-sa/4.0/
# or send a letter to
# Creative Commons, PO Box 1866, Mountain View, CA 94042, USA.
#
# CIF created using the CSD Python API on 29 September 2022
# The structure has been converted into the P1 space group
# The structure has a 3D framework
# The original CSD entry ECAHIB09 is in the rhombohedral crystal system
# The framework has been calculated to contain at least 10.0% void space
# The void calculation uses a probe of radius 1.32A, grid spacing 0.4
#
###############################################################################

data_ECAHIB09
_chemical_formula_moiety         '(C162 H144 Cu16 N18 O36)n'
_symmetry_cell_setting           triclinic
_symmetry_space_group_name_H-M   'P 1'
_symmetry_Int_Tables_number      1
_space_group_name_Hall           'P 1'
loop_
_symmetry_equiv_pos_site_id
_symmetry_equiv_pos_as_xyz
1 x,y,z
_cell_length_a                   26.594(3)
_cell_length_b                   26.594(3)
_cell_length_c                   7.7475(9)
_cell_angle_alpha                90
_cell_angle_beta                 90
_cell_angle_gamma                120
_cell_volume                     4745.25
loop_
_atom_site_label
_atom_site_type_symbol
_atom_site_fract_x
_atom_site_fract_y
_atom_site_fract_z
C13 C 0.0324(2) 0.7585(2) 0.1828(6)
N2 N 0.08774(16) 0.79429(17) 0.1447(4)
H10 H 0.0226 0.7448 0.2980
Cu2 Cu 0.1666 0.8333 0.3333
Cu3 Cu 0.4999 0.5000 1.0000
Cu1 Cu 0.1666 0.3334 0.3334
O1 O 0.09606(12) 0.30150(13) 0.1926(3)
C1 C 0.04778(18) 0.25696(19) 0.2333(5)
C7 C 0.0375(2) 0.2225(2) 0.3754(6)
C8 C 0.0793(2) 0.2255(2) 0.4913(6)
O2 O 0.13207(13) 0.26267(14) 0.4888(4)
C9 C 0.0597(2) 0.1785(3) 0.6302(7)
H6 H 0.0842 0.1947 0.7323
H7 H 0.0193 0.1650 0.6612
H8 H 0.0631 0.1459 0.5875
O3 O 0.23727(12) 0.36517(13) 0.4741(3)
C10 C 0.28555(18) 0.40971(19) 0.4334(5)
C11 C 0.33402(18) 0.42584(18) 0.5612(5)
C12 C 0.3218(2) 0.4073(2) 0.7309(6)
C13_2 C 0.3657(2) 0.4252(2) 0.8495(6)
N2_2 N 0.42107(16) 0.46096(17) 0.8114(4)
C14 C 0.43299(19) 0.4772(2) 0.6475(5)
C15 C 0.39173(19) 0.4614(2) 0.5205(5)
C16 C 0.2958(2) 0.4442(2) 0.2913(6)
C17 C 0.2540(2) 0.4412(2) 0.1754(6)
O4 O 0.20126(13) 0.40400(14) 0.1779(4)
C18 C 0.2736(2) 0.4882(3) 0.0365(7)
H9 H 0.2828 0.3820 0.7651
H10_2 H 0.3559 0.4115 0.9647
H11 H 0.4725 0.5014 0.6160
H12 H 0.4030 0.4746 0.4054
H13 H 0.3351 0.4727 0.2690
H15 H 0.3140 0.5017 0.0055
H16 H 0.2702 0.5208 0.0792
N3 N 0.12763(17) 0.37322(23) 0.5219(4)
N4 N 0.20571(17) 0.29344(23) 0.1447(4)
Cu1_2 Cu 0.5000 1.0000 1.0000
O1_2 O 0.42940(12) 0.96816(13) 0.8592(3)
C1_2 C 0.38112(18) 0.92362(19) 0.8999(5)
C2 C 0.33265(18) 0.90749(18) 0.7721(5)
C3 C 0.3449(2) 0.9260(2) 0.6024(6)
C4 C 0.3010(2) 0.9081(2) 0.4838(6)
N1 N 0.24560(16) 0.87237(17) 0.5219(4)
C5 C 0.23368(19) 0.8561(2) 0.6858(5)
C6 C 0.27494(19) 0.8719(2) 0.8128(5)
H1 H 0.3839 0.9513 0.5682
H2 H 0.3108 0.9218 0.3686
H3 H 0.1942 0.8319 0.7173
H4 H 0.2637 0.8587 0.9279
N4_2 N 0.53904(17) 0.96011(23) 0.8114(4)
H6_2 H 0.4720 0.2229 0.0656
C12_2 C 0.2594(2) 0.2478(3) 0.0642(6)
C13_3 C 0.2415(2) 0.2738(3) 0.1828(6)
H9_2 H 0.2847 0.2341 0.0984
H10_3 H 0.2552 0.2777 0.2980
Cu1_3 Cu 0.6666 0.8333 0.3334
O1_3 O 0.69850(13) 0.79457(18) 0.1926(3)
C1_3 C 0.74304(19) 0.79083(26) 0.2333(5)
C2_2 C 0.75917(18) 0.75849(25) 0.1055(5)
C5_2 C 0.8105(2) 0.71088(28) 0.0192(5)
C6_2 C 0.7947(2) 0.73634(28) 0.1462(5)
C7_2 C 0.7775(2) 0.8151(3) 0.3754(6)
C8_2 C 0.7745(2) 0.8539(3) 0.4913(6)
O2_2 O 0.73733(14) 0.86941(19) 0.4888(4)
C9_2 C 0.8215(3) 0.8813(4) 0.6302(7)
H3_2 H 0.8347 0.6956 0.0507
H4_2 H 0.8079 0.7383 0.2613
H5 H 0.8060 0.8043 0.3977
H6_3 H 0.8053 0.8896 0.7323
H7_2 H 0.8350 0.8544 0.6612
H8_2 H 0.8541 0.9173 0.5875
O3_2 O 0.63483(13) 0.87210(18) 0.4741(3)
C10_2 C 0.59029(19) 0.87584(26) 0.4334(5)
C11_2 C 0.57416(18) 0.90818(25) 0.5612(5)
C12_3 C 0.5927(2) 0.9145(3) 0.7309(6)
C13_4 C 0.5748(2) 0.9405(3) 0.8495(6)
C14_2 C 0.5228(2) 0.95579(28) 0.6475(5)
C15_2 C 0.5386(2) 0.93033(28) 0.5205(5)
C16_2 C 0.5558(2) 0.8516(3) 0.2913(6)
C17_2 C 0.5588(2) 0.8128(3) 0.1754(6)
O4_2 O 0.59600(14) 0.79726(19) 0.1779(4)
C18_2 C 0.5118(3) 0.7854(4) 0.0365(7)
H9_3 H 0.6180 0.9008 0.7651
H10_4 H 0.5885 0.9444 0.9647
H11_2 H 0.4986 0.9711 0.6160
H12_2 H 0.5254 0.9284 0.4054
H13_2 H 0.5273 0.8624 0.2690
H15_2 H 0.4983 0.8123 0.0055
H16_2 H 0.4792 0.7494 0.0792
N3_2 N 0.62678(23) 0.75440(29) 0.5219(4)
N4_3 N 0.70656(23) 0.91226(29) 0.1447(4)
Cu1_4 Cu -0.0000 0.4999 1.0000
O1_4 O 0.03184(13) 0.46123(18) 0.8592(3)
C1_4 C 0.07638(19) 0.45749(26) 0.8999(5)
C2_3 C 0.09251(18) 0.42515(25) 0.7721(5)
C3_2 C 0.0740(2) 0.4188(3) 0.6024(6)
C4_2 C 0.0919(2) 0.3928(3) 0.4838(6)
C5_3 C 0.1439(2) 0.37754(28) 0.6858(5)
C6_3 C 0.1281(2) 0.40300(28) 0.8128(5)
H1_2 H 0.0487 0.4325 0.5682
H2_2 H 0.0782 0.3889 0.3686
H3_3 H 0.1681 0.3622 0.7173
H4_3 H 0.1413 0.4049 0.9279
N4_4 N 0.03989(23) 0.57893(29) 0.8114(4)
C13_5 C 0.7262(3) 0.9676(2) 0.1828(6)
H10_5 H 0.7223 0.9774 0.2980
O1_5 O 0.20543(18) 0.90394(12) 0.1926(3)
C1_5 C 0.20917(26) 0.95222(18) 0.2333(5)
C7_3 C 0.1849(3) 0.9625(2) 0.3754(6)
C8_3 C 0.1461(3) 0.9207(2) 0.4913(6)
O2_3 O 0.13059(19) 0.86793(13) 0.4888(4)
C9_3 C 0.1187(4) 0.9403(2) 0.6302(7)
H6_4 H 0.1104 0.9158 0.7323
H7_3 H 0.1456 0.9807 0.6612
H8_3 H 0.0827 0.9369 0.5875
O3_3 O 0.12790(18) 0.76273(12) 0.4741(3)
C10_3 C 0.12416(26) 0.71445(18) 0.4334(5)
C11_3 C 0.09182(25) 0.66598(18) 0.5612(5)
C12_4 C 0.0855(3) 0.6782(2) 0.7309(6)
C13_6 C 0.0595(3) 0.6343(2) 0.8495(6)
C14_3 C 0.04421(28) 0.56701(19) 0.6475(5)
C15_3 C 0.06967(28) 0.60827(19) 0.5205(5)
C16_3 C 0.1484(3) 0.7042(2) 0.2913(6)
C17_3 C 0.1872(3) 0.7460(2) 0.1754(6)
O4_3 O 0.20274(19) 0.79874(13) 0.1779(4)
C18_3 C 0.2146(4) 0.7264(2) 0.0365(7)
H9_4 H 0.0992 0.7172 0.7651
H10_6 H 0.0556 0.6441 0.9647
H11_3 H 0.0289 0.5275 0.6160
H12_3 H 0.0716 0.5970 0.4054
H13_3 H 0.1376 0.6649 0.2690
H15_3 H 0.1877 0.6860 0.0055
H16_3 H 0.2506 0.7298 0.0792
O1_6 O 0.53877(18) 0.57060(12) 0.8592(3)
C1_6 C 0.54251(26) 0.61888(18) 0.8999(5)
C2_4 C 0.57485(25) 0.66735(18) 0.7721(5)
C3_3 C 0.5812(3) 0.6551(2) 0.6024(6)
C4_3 C 0.6072(3) 0.6990(2) 0.4838(6)
C5_4 C 0.62246(28) 0.76632(19) 0.6858(5)
C6_4 C 0.59700(28) 0.72506(19) 0.8128(5)
H1_3 H 0.5675 0.6161 0.5682
H2_3 H 0.6111 0.6892 0.3686
H3_4 H 0.6378 0.8058 0.7173
H4_4 H 0.5951 0.7363 0.9279
C16_4 C 0.4817(3) 0.3709(2) 0.9580(6)
C17_4 C 0.5205(3) 0.4127(2) 0.8421(6)
O4_4 O 0.53607(19) 0.46541(13) 0.8446(4)
C18_4 C 0.5479(4) 0.3931(2) 0.7032(7)
H13_4 H 0.4709 0.3316 0.9357
H14 H 0.5562 0.4176 0.6011
H15_4 H 0.5210 0.3527 0.6722
H16_4 H 0.5839 0.3965 0.7459
C11_4 C 0.00069(18) 0.75917(18) 0.8945(5)
C14_4 C 0.09966(19) 0.8105(2) 0.9808(5)
C15_4 C 0.05840(19) 0.7947(2) 0.8538(5)
H11_4 H 0.1392 0.8347 0.9493
H12_4 H 0.0697 0.8079 0.7387
H13_5 H 0.0018 0.8060 0.6023
H6_5 H 0.7509 0.5280 0.0656
C12_5 C 0.9885(2) 0.7406(2) 0.0642(6)
H9_5 H 0.9495 0.7153 0.0984
Cu1_5 Cu 0.8333 0.6667 0.6667
O1_7 O 0.76273(12) 0.63483(13) 0.5259(3)
C1_7 C 0.71445(18) 0.59029(19) 0.5666(5)
C2_5 C 0.66598(18) 0.57416(18) 0.4388(5)
C3_4 C 0.6782(2) 0.5927(2) 0.2691(6)
C4_4 C 0.6343(2) 0.5748(2) 0.1505(6)
N1_2 N 0.57893(16) 0.53904(17) 0.1886(4)
C5_5 C 0.56701(19) 0.5228(2) 0.3525(5)
C6_5 C 0.60827(19) 0.5386(2) 0.4795(5)
C7_4 C 0.7042(2) 0.5558(2) 0.7087(6)
C8_4 C 0.7460(2) 0.5588(2) 0.8246(6)
O2_4 O 0.79874(13) 0.59600(14) 0.8221(4)
C9_4 C 0.7264(2) 0.5118(3) 0.9635(7)
H1_4 H 0.7172 0.6180 0.2349
H2_4 H 0.6441 0.5885 0.0353
H3_5 H 0.5275 0.4986 0.3840
H4_5 H 0.5970 0.5254 0.5946
H5_2 H 0.6649 0.5273 0.7310
H7_4 H 0.6860 0.4983 0.9945
H8_4 H 0.7298 0.4792 0.9208
O3_4 O 0.90394(12) 0.69850(13) 0.8074(3)
C10_4 C 0.95222(18) 0.74304(19) 0.7667(5)
C16_5 C 0.9625(2) 0.7775(2) 0.6246(6)
C17_5 C 0.9207(2) 0.7745(2) 0.5087(6)
O4_5 O 0.86793(13) 0.73733(14) 0.5112(4)
C18_5 C 0.9403(2) 0.8215(3) 0.3698(7)
H14_2 H 0.9158 0.8053 0.2677
H15_5 H 0.9807 0.8350 0.3388
H16_5 H 0.9369 0.8541 0.4125
Cu3_2 Cu 0.4999 0.5000 -0.0000
N3_3 N 0.79429(17) 0.70656(23) 0.8553(4)
N4_5 N 0.87237(17) 0.62678(23) 0.4781(4)
C4_5 C 0.9676(2) 0.2415(2) 0.8172(6)
N1_3 N 0.91226(16) 0.20571(17) 0.8553(4)
H2_5 H 0.9774 0.2552 0.7020
Cu3_3 Cu 0.8333 0.1666 0.6666
Cu1_6 Cu 0.5000 0.0000 0.0000
O3_5 O 0.57060(12) 0.03184(13) 0.1408(3)
C10_5 C 0.61888(18) 0.07638(19) 0.1001(5)
C11_5 C 0.66735(18) 0.09251(18) 0.2279(5)
C12_6 C 0.6551(2) 0.0740(2) 0.3976(6)
C13_7 C 0.6990(2) 0.0919(2) 0.5162(6)
N2_3 N 0.75440(16) 0.12763(17) 0.4781(4)
C14_5 C 0.76632(19) 0.1439(2) 0.3142(5)
C15_5 C 0.72506(19) 0.1281(2) 0.1872(5)
H9_6 H 0.6161 0.0487 0.4318
H10_7 H 0.6892 0.0782 0.6314
H11_5 H 0.8058 0.1681 0.2827
H12_5 H 0.7363 0.1413 0.0721
N3_4 N 0.46096(17) 0.03989(23) 0.1886(4)
Cu1_7 Cu 0.3333 0.1666 0.6667
O1_8 O 0.36517(13) 0.12790(18) 0.5259(3)
C1_8 C 0.40971(19) 0.12416(26) 0.5666(5)
C2_6 C 0.42584(18) 0.09182(25) 0.4388(5)
C3_5 C 0.4073(2) 0.0855(3) 0.2691(6)
C4_6 C 0.4252(2) 0.0595(3) 0.1505(6)
C5_6 C 0.4772(2) 0.04421(28) 0.3525(5)
C6_6 C 0.4614(2) 0.06967(28) 0.4795(5)
C7_5 C 0.4442(2) 0.1484(3) 0.7087(6)
C8_5 C 0.4412(2) 0.1872(3) 0.8246(6)
O2_5 O 0.40400(14) 0.20274(19) 0.8221(4)
C9_5 C 0.4882(3) 0.2146(4) 0.9635(7)
H1_5 H 0.3820 0.0992 0.2349
H2_6 H 0.4115 0.0556 0.0353
H3_6 H 0.5014 0.0289 0.3840
H4_6 H 0.4746 0.0716 0.5946
H5_3 H 0.4727 0.1376 0.7310
H7_5 H 0.5017 0.1877 0.9945
H8_5 H 0.5208 0.2506 0.9208
O3_6 O 0.30150(13) 0.20543(18) 0.8074(3)
C10_6 C 0.25696(19) 0.20917(26) 0.7667(5)
C11_6 C 0.24083(18) 0.24151(25) 0.8945(5)
C14_6 C 0.1895(2) 0.28912(28) 0.9808(5)
C15_6 C 0.2053(2) 0.26366(28) 0.8538(5)
C16_6 C 0.2225(2) 0.1849(3) 0.6246(6)
C17_6 C 0.2255(2) 0.1461(3) 0.5087(6)
O4_6 O 0.26267(14) 0.13059(19) 0.5112(4)
C18_6 C 0.1785(3) 0.1187(4) 0.3698(7)
H11_6 H 0.1653 0.3044 0.9493
H12_6 H 0.1921 0.2617 0.7387
H13_6 H 0.1940 0.1957 0.6023
H14_3 H 0.1947 0.1104 0.2677
H15_6 H 0.1650 0.1456 0.3388
H16_6 H 0.1459 0.0827 0.4125
N3_5 N 0.29344(23) 0.08774(29) 0.8553(4)
N4_6 N 0.37322(23) 0.24560(29) 0.4781(4)
C3_6 C 0.7406(2) 0.7522(3) 0.9358(6)
C4_7 C 0.7585(2) 0.7262(3) 0.8172(6)
H1_6 H 0.7153 0.7659 0.9016
H2_7 H 0.7448 0.7223 0.7020
H14_4 H 0.5280 0.7771 0.9344
Cu1_8 Cu 1.0000 0.4999 0.0000
O3_7 O 0.96816(13) 0.53877(18) 0.1408(3)
C10_7 C 0.92362(19) 0.54251(26) 0.1001(5)
C11_7 C 0.90749(18) 0.57485(25) 0.2279(5)
C12_7 C 0.9260(2) 0.5812(3) 0.3976(6)
C13_8 C 0.9081(2) 0.6072(3) 0.5162(6)
C14_7 C 0.8561(2) 0.62246(28) 0.3142(5)
C15_7 C 0.8719(2) 0.59700(28) 0.1872(5)
H9_7 H 0.9513 0.5675 0.4318
H10_8 H 0.9218 0.6111 0.6314
H11_7 H 0.8319 0.6378 0.2827
H12_7 H 0.8587 0.5951 0.0721
N3_6 N 0.96011(23) 0.42107(29) 0.1886(4)
O1_9 O 0.87210(18) 0.23727(12) 0.5259(3)
C1_9 C 0.87584(26) 0.28555(18) 0.5666(5)
C2_7 C 0.90818(25) 0.33402(18) 0.4388(5)
C3_7 C 0.9145(3) 0.3218(2) 0.2691(6)
C4_8 C 0.9405(3) 0.3657(2) 0.1505(6)
C5_7 C 0.95579(28) 0.43299(19) 0.3525(5)
C6_7 C 0.93033(28) 0.39173(19) 0.4795(5)
C7_6 C 0.8516(3) 0.2958(2) 0.7087(6)
C8_6 C 0.8128(3) 0.2540(2) 0.8246(6)
O2_6 O 0.79726(19) 0.20126(13) 0.8221(4)
C9_6 C 0.7854(4) 0.2736(2) 0.9635(7)
H1_7 H 0.9008 0.2828 0.2349
H2_8 H 0.9444 0.3559 0.0353
H3_7 H 0.9711 0.4725 0.3840
H4_7 H 0.9284 0.4030 0.5946
H5_4 H 0.8624 0.3351 0.7310
H7_6 H 0.8123 0.3140 0.9945
H8_6 H 0.7494 0.2702 0.9208
O3_8 O 0.79457(18) 0.09606(12) 0.8074(3)
C10_8 C 0.79083(26) 0.04778(18) 0.7667(5)
C16_7 C 0.8151(3) 0.0375(2) 0.6246(6)
C17_7 C 0.8539(3) 0.0793(2) 0.5087(6)
O4_7 O 0.86941(19) 0.13207(13) 0.5112(4)
C18_7 C 0.8813(4) 0.0597(2) 0.3698(7)
H14_5 H 0.8896 0.0842 0.2677
H15_7 H 0.8544 0.0193 0.3388
H16_7 H 0.9173 0.0631 0.4125
C4_9 C 0.2738(3) 0.0324(2) 0.8172(6)
H2_9 H 0.2777 0.0226 0.7020
C7_7 C 0.5183(3) 0.6291(2) 0.0420(6)
C8_7 C 0.4795(3) 0.5873(2) 0.1579(6)
O2_7 O 0.46393(19) 0.53459(13) 0.1554(4)
C9_7 C 0.4521(4) 0.6069(2) 0.2968(7)
H5_5 H 0.5291 0.6684 0.0643
H6_6 H 0.4438 0.5824 0.3989
H7_7 H 0.4790 0.6473 0.3278
H8_7 H 0.4161 0.6035 0.2541
O3_9 O 0.46123(18) 0.42940(12) 0.1408(3)
C10_9 C 0.45749(26) 0.38112(18) 0.1001(5)
C11_8 C 0.42515(25) 0.33265(18) 0.2279(5)
C12_8 C 0.4188(3) 0.3449(2) 0.3976(6)
C13_9 C 0.3928(3) 0.3010(2) 0.5162(6)
C14_8 C 0.37754(28) 0.23368(19) 0.3142(5)
C15_8 C 0.40300(28) 0.27494(19) 0.1872(5)
H9_8 H 0.4325 0.3839 0.4318
H10_9 H 0.3889 0.3108 0.6314
H11_8 H 0.3622 0.1942 0.2827
H12_8 H 0.4049 0.2637 0.0721
C3_8 C 0.0115(2) 0.2594(2) 0.9358(6)
H1_8 H 0.0505 0.2847 0.9016
H14_6 H 0.2491 0.4720 0.9344
C2_8 C 0.99931(18) 0.24083(18) 0.1055(5)
C5_8 C 0.90034(19) 0.1895(2) 0.0192(5)
C6_8 C 0.94160(19) 0.2053(2) 0.1462(5)
H3_8 H 0.8608 0.1653 0.0507
H4_8 H 0.9303 0.1921 0.2613
H5_6 H 0.9982 0.1940 0.3977
Cu1_9 Cu 0.5000 0.0000 1.0000
C16_8 C 0.6291(2) 0.1109(2) 0.9580(6)
C17_8 C 0.5873(2) 0.1079(2) 0.8421(6)
O4_8 O 0.53459(13) 0.07067(14) 0.8446(4)
C18_8 C 0.6069(2) 0.1549(3) 0.7032(7)
H13_7 H 0.6684 0.1394 0.9357
H14_7 H 0.5824 0.1387 0.6011
H15_8 H 0.6473 0.1684 0.6722
H16_8 H 0.6035 0.1875 0.7459
Cu1_10 Cu 0.5000 1.0000 0.0000
C7_8 C 0.3709(2) 0.8891(2) 0.0420(6)
C8_8 C 0.4127(2) 0.8921(2) 0.1579(6)
O2_8 O 0.46541(13) 0.92933(14) 0.1554(4)
C9_8 C 0.3931(2) 0.8451(3) 0.2968(7)
H5_7 H 0.3316 0.8606 0.0643
H6_7 H 0.4176 0.8613 0.3989
H7_8 H 0.3527 0.8316 0.3278
H8_8 H 0.3965 0.8125 0.2541
Cu1_11 Cu -0.0000 0.4999 0.0000
C7_9 C 0.1109(2) 0.4817(3) 0.0420(6)
C8_9 C 0.1079(2) 0.5205(3) 0.1579(6)
O2_9 O 0.07067(14) 0.53607(19) 0.1554(4)
C9_9 C 0.1549(3) 0.5479(4) 0.2968(7)
H5_8 H 0.1394 0.4709 0.0643
H6_8 H 0.1387 0.5562 0.3989
H7_9 H 0.1684 0.5210 0.3278
H8_9 H 0.1875 0.5839 0.2541
Cu1_12 Cu 1.0000 0.4999 1.0000
C16_9 C 0.8891(2) 0.5183(3) 0.9580(6)
C17_9 C 0.8921(2) 0.4795(3) 0.8421(6)
O4_9 O 0.92933(14) 0.46393(19) 0.8446(4)
C18_9 C 0.8451(3) 0.4521(4) 0.7032(7)
H13_8 H 0.8606 0.5291 0.9357
H14_8 H 0.8613 0.4438 0.6011
H15_9 H 0.8316 0.4790 0.6722
H16_9 H 0.8125 0.4161 0.7459
H6_9 H 0.7771 0.2491 0.0656
C12_9 C 0.7522(3) 0.0115(2) 0.0642(6)
H9_9 H 0.7659 0.0505 0.0984
C11_9 C 0.75849(25) 0.99931(18) 0.8945(5)
C14_9 C 0.71088(28) 0.90034(19) 0.9808(5)
C15_9 C 0.73634(28) 0.94160(19) 0.8538(5)
H11_9 H 0.6956 0.8608 0.9493
H12_9 H 0.7383 0.9303 0.7387
H13_9 H 0.8043 0.9982 0.6023
C2_9 C 0.24151(25) 0.00069(18) 0.1055(5)
C5_9 C 0.28912(28) 0.09966(19) 0.0192(5)
C6_9 C 0.26366(28) 0.05840(19) 0.1462(5)
H3_9 H 0.3044 0.1392 0.0507
H4_9 H 0.2617 0.0697 0.2613
H5_9 H 0.1957 0.0018 0.3977
C3_9 C 0.2478(3) 0.9885(2) 0.9358(6)
H1_9 H 0.2341 0.9495 0.9016
H14_9 H 0.2229 0.7509 0.9344
loop_
_geom_bond_atom_site_label_1
_geom_bond_atom_site_label_2
_geom_bond_site_symmetry_1
_geom_bond_site_symmetry_2
N2 C13 1_555 1_555
H10 C13 1_555 1_555
Cu2 N2 1_555 1_555
Cu1 O1 1_555 1_555
O1 C1 1_555 1_555
C7 C1 1_555 1_555
C8 C7 1_555 1_555
O2 Cu1 1_555 1_555
C9 C8 1_555 1_555
H6 C9 1_555 1_555
H7 C9 1_555 1_555
H8 C9 1_555 1_555
O3 Cu1 1_555 1_555
C10 O3 1_555 1_555
C11 C10 1_555 1_555
C12 C11 1_555 1_555
C13_2 C12 1_555 1_555
N2_2 C13_2 1_555 1_555
C14 N2_2 1_555 1_555
C15 C11 1_555 1_555
C16 C10 1_555 1_555
C17 C16 1_555 1_555
O4 Cu1 1_555 1_555
C18 C17 1_555 1_555
H9 C12 1_555 1_555
H10_2 C13_2 1_555 1_555
H11 C14 1_555 1_555
H12 C15 1_555 1_555
H13 C16 1_555 1_555
H15 C18 1_555 1_555
H16 C18 1_555 1_555
Cu3 N2_2 1_555 1_555
N3 Cu1 1_555 1_555
N4 Cu1 1_555 1_555
C8 O2 1_555 1_555
C14 C15 1_555 1_555
C17 O4 1_555 1_555
Cu1_2 O1_2 1_555 1_555
O1_2 C1_2 1_555 1_555
C1_2 C2 1_555 1_555
C2 C3 1_555 1_555
C3 C4 1_555 1_555
C4 N1 1_555 1_555
N1 C5 1_555 1_555
C5 C6 1_555 1_555
C6 C2 1_555 1_555
H1 C3 1_555 1_555
H2 C4 1_555 1_555
H3 C5 1_555 1_555
H4 C6 1_555 1_555
Cu2 N1 1_555 1_555
N4_2 Cu1_2 1_555 1_555
C13_3 C12_2 1_555 1_555
N4 C13_3 1_555 1_555
H9_2 C12_2 1_555 1_555
H10_3 C13_3 1_555 1_555
Cu1_3 O1_3 1_555 1_555
O1_3 C1_3 1_555 1_555
C1_3 C2_2 1_555 1_555
C5_2 C6_2 1_555 1_555
C6_2 C2_2 1_555 1_555
C7_2 C1_3 1_555 1_555
C8_2 C7_2 1_555 1_555
O2_2 Cu1_3 1_555 1_555
C9_2 C8_2 1_555 1_555
H3_2 C5_2 1_555 1_555
H4_2 C6_2 1_555 1_555
H5 C7_2 1_555 1_555
H6_3 C9_2 1_555 1_555
H7_2 C9_2 1_555 1_555
H8_2 C9_2 1_555 1_555
O3_2 Cu1_3 1_555 1_555
C10_2 O3_2 1_555 1_555
C11_2 C10_2 1_555 1_555
C12_3 C11_2 1_555 1_555
C13_4 C12_3 1_555 1_555
N4_2 C13_4 1_555 1_555
C14_2 N4_2 1_555 1_555
C15_2 C11_2 1_555 1_555
C16_2 C10_2 1_555 1_555
C17_2 C16_2 1_555 1_555
O4_2 Cu1_3 1_555 1_555
C18_2 C17_2 1_555 1_555
H9_3 C12_3 1_555 1_555
H10_4 C13_4 1_555 1_555
H11_2 C14_2 1_555 1_555
H12_2 C15_2 1_555 1_555
H13_2 C16_2 1_555 1_555
H15_2 C18_2 1_555 1_555
H16_2 C18_2 1_555 1_555
N3_2 Cu1_3 1_555 1_555
N4_3 Cu1_3 1_555 1_555
C8_2 O2_2 1_555 1_555
C14_2 C15_2 1_555 1_555
C17_2 O4_2 1_555 1_555
Cu1_4 O1_4 1_555 1_555
O1_4 C1_4 1_555 1_555
C1_4 C2_3 1_555 1_555
C2_3 C3_2 1_555 1_555
C3_2 C4_2 1_555 1_555
C4_2 N3 1_555 1_555
N3 C5_3 1_555 1_555
C5_3 C6_3 1_555 1_555
C6_3 C2_3 1_555 1_555
H1_2 C3_2 1_555 1_555
H2_2 C4_2 1_555 1_555
H3_3 C5_3 1_555 1_555
H4_3 C6_3 1_555 1_555
N4_4 Cu1_4 1_555 1_555
N4_3 C13_5 1_555 1_555
H10_5 C13_5 1_555 1_555
Cu2 O1_5 1_555 1_555
O1_5 C1_5 1_555 1_555
C7_3 C1_5 1_555 1_555
C8_3 C7_3 1_555 1_555
O2_3 Cu2 1_555 1_555
C9_3 C8_3 1_555 1_555
H6_4 C9_3 1_555 1_555
H7_3 C9_3 1_555 1_555
H8_3 C9_3 1_555 1_555
O3_3 Cu2 1_555 1_555
C10_3 O3_3 1_555 1_555
C11_3 C10_3 1_555 1_555
C12_4 C11_3 1_555 1_555
C13_6 C12_4 1_555 1_555
N4_4 C13_6 1_555 1_555
C14_3 N4_4 1_555 1_555
C15_3 C11_3 1_555 1_555
C16_3 C10_3 1_555 1_555
C17_3 C16_3 1_555 1_555
O4_3 Cu2 1_555 1_555
C18_3 C17_3 1_555 1_555
H9_4 C12_4 1_555 1_555
H10_6 C13_6 1_555 1_555
H11_3 C14_3 1_555 1_555
H12_3 C15_3 1_555 1_555
H13_3 C16_3 1_555 1_555
H15_3 C18_3 1_555 1_555
H16_3 C18_3 1_555 1_555
C8_3 O2_3 1_555 1_555
C14_3 C15_3 1_555 1_555
C17_3 O4_3 1_555 1_555
Cu3 O1_6 1_555 1_555
O1_6 C1_6 1_555 1_555
C1_6 C2_4 1_555 1_555
C2_4 C3_3 1_555 1_555
C3_3 C4_3 1_555 1_555
C4_3 N3_2 1_555 1_555
N3_2 C5_4 1_555 1_555
C5_4 C6_4 1_555 1_555
C6_4 C2_4 1_555 1_555
H1_3 C3_3 1_555 1_555
H2_3 C4_3 1_555 1_555
H3_4 C5_4 1_555 1_555
H4_4 C6_4 1_555 1_555
C17_4 C16_4 1_555 1_555
O4_4 Cu3 1_555 1_555
C18_4 C17_4 1_555 1_555
H13_4 C16_4 1_555 1_555
H14 C18_4 1_555 1_555
H15_4 C18_4 1_555 1_555
H16_4 C18_4 1_555 1_555
C17_4 O4_4 1_555 1_555
C15_4 C11_4 1_555 1_555
H11_4 C14_4 1_555 1_555
H12_4 C15_4 1_555 1_555
C14_4 C15_4 1_555 1_555
H9_5 C12_5 1_555 1_555
Cu1_5 O1_7 1_555 1_555
O1_7 C1_7 1_555 1_555
C1_7 C2_5 1_555 1_555
C2_5 C3_4 1_555 1_555
C3_4 C4_4 1_555 1_555
C4_4 N1_2 1_555 1_555
N1_2 C5_5 1_555 1_555
C5_5 C6_5 1_555 1_555
C6_5 C2_5 1_555 1_555
C7_4 C1_7 1_555 1_555
C8_4 C7_4 1_555 1_555
O2_4 Cu1_5 1_555 1_555
C9_4 C8_4 1_555 1_555
H1_4 C3_4 1_555 1_555
H2_4 C4_4 1_555 1_555
H3_5 C5_5 1_555 1_555
H4_5 C6_5 1_555 1_555
H5_2 C7_4 1_555 1_555
H7_4 C9_4 1_555 1_555
H8_4 C9_4 1_555 1_555
O3_4 Cu1_5 1_555 1_555
C10_4 O3_4 1_555 1_555
C16_5 C10_4 1_555 1_555
C17_5 C16_5 1_555 1_555
O4_5 Cu1_5 1_555 1_555
C18_5 C17_5 1_555 1_555
H14_2 C18_5 1_555 1_555
H15_5 C18_5 1_555 1_555
H16_5 C18_5 1_555 1_555
Cu3_2 N1_2 1_555 1_555
N3_3 Cu1_5 1_555 1_555
N4_5 Cu1_5 1_555 1_555
C8_4 O2_4 1_555 1_555
C17_5 O4_5 1_555 1_555
C4_5 N1_3 1_555 1_555
H2_5 C4_5 1_555 1_555
Cu3_3 N1_3 1_555 1_555
O3_5 Cu1_6 1_555 1_555
C10_5 O3_5 1_555 1_555
C11_5 C10_5 1_555 1_555
C12_6 C11_5 1_555 1_555
C13_7 C12_6 1_555 1_555
N2_3 C13_7 1_555 1_555
C14_5 N2_3 1_555 1_555
C15_5 C11_5 1_555 1_555
H9_6 C12_6 1_555 1_555
H10_7 C13_7 1_555 1_555
H11_5 C14_5 1_555 1_555
H12_5 C15_5 1_555 1_555
Cu3_3 N2_3 1_555 1_555
N3_4 Cu1_6 1_555 1_555
C14_5 C15_5 1_555 1_555
Cu1_7 O1_8 1_555 1_555
O1_8 C1_8 1_555 1_555
C1_8 C2_6 1_555 1_555
C2_6 C3_5 1_555 1_555
C3_5 C4_6 1_555 1_555
C4_6 N3_4 1_555 1_555
N3_4 C5_6 1_555 1_555
C5_6 C6_6 1_555 1_555
C6_6 C2_6 1_555 1_555
C7_5 C1_8 1_555 1_555
C8_5 C7_5 1_555 1_555
O2_5 Cu1_7 1_555 1_555
C9_5 C8_5 1_555 1_555
H1_5 C3_5 1_555 1_555
H2_6 C4_6 1_555 1_555
H3_6 C5_6 1_555 1_555
H4_6 C6_6 1_555 1_555
H5_3 C7_5 1_555 1_555
H7_5 C9_5 1_555 1_555
H8_5 C9_5 1_555 1_555
O3_6 Cu1_7 1_555 1_555
C10_6 O3_6 1_555 1_555
C11_6 C10_6 1_555 1_555
C15_6 C11_6 1_555 1_555
C16_6 C10_6 1_555 1_555
C17_6 C16_6 1_555 1_555
O4_6 Cu1_7 1_555 1_555
C18_6 C17_6 1_555 1_555
H11_6 C14_6 1_555 1_555
H12_6 C15_6 1_555 1_555
H13_6 C16_6 1_555 1_555
H14_3 C18_6 1_555 1_555
H15_6 C18_6 1_555 1_555
H16_6 C18_6 1_555 1_555
N3_5 Cu1_7 1_555 1_555
N4_6 Cu1_7 1_555 1_555
C8_5 O2_5 1_555 1_555
C14_6 C15_6 1_555 1_555
C17_6 O4_6 1_555 1_555
C3_6 C4_7 1_555 1_555
C4_7 N3_3 1_555 1_555
H1_6 C3_6 1_555 1_555
H2_7 C4_7 1_555 1_555
O3_7 Cu1_8 1_555 1_555
C10_7 O3_7 1_555 1_555
C11_7 C10_7 1_555 1_555
C12_7 C11_7 1_555 1_555
C13_8 C12_7 1_555 1_555
N4_5 C13_8 1_555 1_555
C14_7 N4_5 1_555 1_555
C15_7 C11_7 1_555 1_555
H9_7 C12_7 1_555 1_555
H10_8 C13_8 1_555 1_555
H11_7 C14_7 1_555 1_555
H12_7 C15_7 1_555 1_555
N3_6 Cu1_8 1_555 1_555
C14_7 C15_7 1_555 1_555
Cu3_3 O1_9 1_555 1_555
O1_9 C1_9 1_555 1_555
C1_9 C2_7 1_555 1_555
C2_7 C3_7 1_555 1_555
C3_7 C4_8 1_555 1_555
C4_8 N3_6 1_555 1_555
N3_6 C5_7 1_555 1_555
C5_7 C6_7 1_555 1_555
C6_7 C2_7 1_555 1_555
C7_6 C1_9 1_555 1_555
C8_6 C7_6 1_555 1_555
O2_6 Cu3_3 1_555 1_555
C9_6 C8_6 1_555 1_555
H1_7 C3_7 1_555 1_555
H2_8 C4_8 1_555 1_555
H3_7 C5_7 1_555 1_555
H4_7 C6_7 1_555 1_555
H5_4 C7_6 1_555 1_555
H7_6 C9_6 1_555 1_555
H8_6 C9_6 1_555 1_555
O3_8 Cu3_3 1_555 1_555
C10_8 O3_8 1_555 1_555
C16_7 C10_8 1_555 1_555
C17_7 C16_7 1_555 1_555
O4_7 Cu3_3 1_555 1_555
C18_7 C17_7 1_555 1_555
H14_5 C18_7 1_555 1_555
H15_7 C18_7 1_555 1_555
H16_7 C18_7 1_555 1_555
C8_6 O2_6 1_555 1_555
C17_7 O4_7 1_555 1_555
C4_9 N3_5 1_555 1_555
H2_9 C4_9 1_555 1_555
C8_7 C7_7 1_555 1_555
O2_7 Cu3_2 1_555 1_555
C9_7 C8_7 1_555 1_555
H5_5 C7_7 1_555 1_555
H6_6 C9_7 1_555 1_555
H7_7 C9_7 1_555 1_555
H8_7 C9_7 1_555 1_555
O3_9 Cu3_2 1_555 1_555
C10_9 O3_9 1_555 1_555
C11_8 C10_9 1_555 1_555
C12_8 C11_8 1_555 1_555
C13_9 C12_8 1_555 1_555
N4_6 C13_9 1_555 1_555
C14_8 N4_6 1_555 1_555
C15_8 C11_8 1_555 1_555
H9_8 C12_8 1_555 1_555
H10_9 C13_9 1_555 1_555
H11_8 C14_8 1_555 1_555
H12_8 C15_8 1_555 1_555
C8_7 O2_7 1_555 1_555
C14_8 C15_8 1_555 1_555
H1_8 C3_8 1_555 1_555
C5_8 C6_8 1_555 1_555
C6_8 C2_8 1_555 1_555
H3_8 C5_8 1_555 1_555
H4_8 C6_8 1_555 1_555
C17_8 C16_8 1_555 1_555
O4_8 Cu1_9 1_555 1_555
C18_8 C17_8 1_555 1_555
H13_7 C16_8 1_555 1_555
H14_7 C18_8 1_555 1_555
H15_8 C18_8 1_555 1_555
H16_8 C18_8 1_555 1_555
C17_8 O4_8 1_555 1_555
C8_8 C7_8 1_555 1_555
O2_8 Cu1_10 1_555 1_555
C9_8 C8_8 1_555 1_555
H5_7 C7_8 1_555 1_555
H6_7 C9_8 1_555 1_555
H7_8 C9_8 1_555 1_555
H8_8 C9_8 1_555 1_555
C8_8 O2_8 1_555 1_555
C8_9 C7_9 1_555 1_555
O2_9 Cu1_11 1_555 1_555
C9_9 C8_9 1_555 1_555
H5_8 C7_9 1_555 1_555
H6_8 C9_9 1_555 1_555
H7_9 C9_9 1_555 1_555
H8_9 C9_9 1_555 1_555
C8_9 O2_9 1_555 1_555
C17_9 C16_9 1_555 1_555
O4_9 Cu1_12 1_555 1_555
C18_9 C17_9 1_555 1_555
H13_8 C16_9 1_555 1_555
H14_8 C18_9 1_555 1_555
H15_9 C18_9 1_555 1_555
H16_9 C18_9 1_555 1_555
C17_9 O4_9 1_555 1_555
H9_9 C12_9 1_555 1_555
C15_9 C11_9 1_555 1_555
H11_9 C14_9 1_555 1_555
H12_9 C15_9 1_555 1_555
C14_9 C15_9 1_555 1_555
C5_9 C6_9 1_555 1_555
C6_9 C2_9 1_555 1_555
H3_9 C5_9 1_555 1_555
H4_9 C6_9 1_555 1_555
H1_9 C3_9 1_555 1_555

#END
