
###############################################################################
#
# This file contains modified crystal structure data generated from the
# MOF subset of the Cambridge Structural Database (CSD) v543 
# hosted by the Cambridge Crystallographic Data Centre (CCDC).
#
# This work is licensed under the Creative Commons
# Attribution-NonCommercial-ShareAlike 4.0 International License.
# To view a copy of this license, visit
# http://creativecommons.org/licenses/by-nc-sa/4.0/
# or send a letter to
# Creative Commons, PO Box 1866, Mountain View, CA 94042, USA.
#
# CIF created using the CSD Python API on 29 September 2022
# The structure has been converted into the P1 space group
# The structure has a 3D framework
# The original CSD entry ECAHIB06 is in the rhombohedral crystal system
# The framework has been calculated to contain at least 10.0% void space
# The void calculation uses a probe of radius 1.32A, grid spacing 0.4
#
###############################################################################

data_ECAHIB06
_chemical_formula_moiety         '(C162 H144 Cu16 N18 O36)n'
_symmetry_cell_setting           triclinic
_symmetry_space_group_name_H-M   'P 1'
_symmetry_Int_Tables_number      1
_space_group_name_Hall           'P 1'
loop_
_symmetry_equiv_pos_site_id
_symmetry_equiv_pos_as_xyz
1 x,y,z
_cell_length_a                   25.6002(12)
_cell_length_b                   25.6002(12)
_cell_length_c                   7.7386(4)
_cell_angle_alpha                90
_cell_angle_beta                 90
_cell_angle_gamma                120
_cell_volume                     4392.18
loop_
_atom_site_label
_atom_site_type_symbol
_atom_site_fract_x
_atom_site_fract_y
_atom_site_fract_z
C13 C 0.0387(3) 0.7569(4) 0.1749(9)
N2 N 0.0956(3) 0.7981(3) 0.1461(7)
H10 H 0.0276 0.7403 0.2877
Cu2 Cu 0.1666 0.8333 0.3333
Cu3 Cu 0.4999 0.5000 1.0000
Cu1 Cu 0.1666 0.3334 0.3334
O1 O 0.0915(2) 0.3009(2) 0.2009(6)
C1 C 0.0399(2) 0.2585(3) 0.2482(7)
C7 C 0.0277(3) 0.2259(4) 0.3997(9)
C8 C 0.0708(3) 0.2215(3) 0.5042(9)
O2 O 0.1269(2) 0.2537(3) 0.4886(7)
C9 C 0.0486(4) 0.1761(5) 0.6465(12)
H6 H 0.0828 0.1765 0.7051
H7 H 0.0263 0.1865 0.7291
H8 H 0.0218 0.1357 0.5997
O3 O 0.2418(2) 0.3658(2) 0.4658(6)
C10 C 0.2934(2) 0.4082(3) 0.4185(7)
C11 C 0.3423(2) 0.4262(3) 0.5497(7)
C12 C 0.3284(3) 0.4036(4) 0.7158(9)
C13_2 C 0.3720(3) 0.4236(4) 0.8416(9)
N2_2 N 0.4289(3) 0.4648(3) 0.8128(7)
C14 C 0.4425(3) 0.4860(3) 0.6506(8)
C15 C 0.4018(3) 0.4674(3) 0.5172(8)
C16 C 0.3056(3) 0.4408(4) 0.2670(9)
C17 C 0.2625(3) 0.4452(3) 0.1625(9)
O4 O 0.2064(2) 0.4130(3) 0.1781(7)
C18 C 0.2847(4) 0.4906(5) 0.0202(12)
H9 H 0.2885 0.3738 0.7457
H10_2 H 0.3609 0.4070 0.9544
H11 H 0.4831 0.5156 0.6261
H12 H 0.4144 0.4830 0.4040
H13 H 0.3464 0.4624 0.2304
H16 H 0.3115 0.5310 0.0670
N3 N 0.1315(3) 0.3692(4) 0.5205(7)
N4 N 0.2019(3) 0.2974(4) 0.1461(7)
Cu1_2 Cu 0.5000 1.0000 1.0000
O1_2 O 0.4249(2) 0.9675(2) 0.8675(6)
C1_2 C 0.3733(2) 0.9251(3) 0.9148(7)
C2 C 0.3244(2) 0.9071(3) 0.7836(7)
C3 C 0.3383(3) 0.9297(4) 0.6175(9)
C4 C 0.2947(3) 0.9097(4) 0.4917(9)
N1 N 0.2378(3) 0.8685(3) 0.5205(7)
C5 C 0.2242(3) 0.8473(3) 0.6827(8)
C6 C 0.2649(3) 0.8659(3) 0.8161(8)
H1 H 0.3782 0.9595 0.5876
H2 H 0.3058 0.9263 0.3789
H3 H 0.1836 0.8177 0.7072
H4 H 0.2523 0.8503 0.9293
N4_2 N 0.5352(3) 0.9641(4) 0.8128(7)
H6_2 H 0.4902 0.2397 0.0384
H7_2 H 0.4802 0.1732 0.0624
C12_2 C 0.2631(4) 0.2581(5) 0.0491(9)
C13_3 C 0.2431(4) 0.2817(5) 0.1749(9)
H9_2 H 0.2929 0.2480 0.0790
H10_3 H 0.2597 0.2872 0.2877
Cu1_3 Cu 0.6666 0.8333 0.3334
O1_3 O 0.6991(2) 0.7907(3) 0.2009(6)
C1_3 C 0.7415(3) 0.7815(4) 0.2482(7)
C2_2 C 0.7595(3) 0.7506(4) 0.1170(7)
C5_2 C 0.8193(3) 0.7102(4) 0.0161(8)
C6_2 C 0.8007(3) 0.7323(4) 0.1495(8)
C7_2 C 0.7741(4) 0.8019(5) 0.3997(9)
C8_2 C 0.7785(3) 0.8494(4) 0.5042(9)
O2_2 O 0.7463(3) 0.8733(4) 0.4886(7)
C9_2 C 0.8239(5) 0.8726(6) 0.6465(12)
H3_2 H 0.8489 0.6992 0.0406
H4_2 H 0.8163 0.7353 0.2627
H5 H 0.7957 0.7827 0.4363
H6_3 H 0.8235 0.9064 0.7051
H7_3 H 0.8135 0.8399 0.7291
H8_2 H 0.8643 0.8862 0.5997
O3_2 O 0.6342(2) 0.8760(3) 0.4658(6)
C10_2 C 0.5918(3) 0.8852(4) 0.4185(7)
C11_2 C 0.5738(3) 0.9161(4) 0.5497(7)
C12_3 C 0.5964(4) 0.9248(5) 0.7158(9)
C13_4 C 0.5764(4) 0.9484(5) 0.8416(9)
C14_2 C 0.5140(3) 0.9565(4) 0.6506(8)
C15_2 C 0.5326(3) 0.9344(4) 0.5172(8)
C16_2 C 0.5592(4) 0.8648(5) 0.2670(9)
C17_2 C 0.5548(3) 0.8173(4) 0.1625(9)
O4_2 O 0.5870(3) 0.7934(4) 0.1781(7)
C18_2 C 0.5094(5) 0.7941(6) 0.0202(12)
H9_3 H 0.6262 0.9147 0.7457
H10_4 H 0.5930 0.9539 0.9544
H11_2 H 0.4844 0.9675 0.6261
H12_2 H 0.5170 0.9314 0.4040
H13_2 H 0.5376 0.8840 0.2304
H16_2 H 0.4690 0.7805 0.0670
N3_2 N 0.6308(4) 0.7622(5) 0.5205(7)
N4_3 N 0.7026(4) 0.9044(5) 0.1461(7)
Cu1_4 Cu -0.0000 0.4999 1.0000
O1_4 O 0.0325(2) 0.4573(3) 0.8675(6)
C1_4 C 0.0749(3) 0.4481(4) 0.9148(7)
C2_3 C 0.0929(3) 0.4172(4) 0.7836(7)
C3_2 C 0.0703(4) 0.4085(5) 0.6175(9)
C4_2 C 0.0903(4) 0.3849(5) 0.4917(9)
C5_3 C 0.1527(3) 0.3768(4) 0.6827(8)
C6_3 C 0.1341(3) 0.3989(4) 0.8161(8)
H1_2 H 0.0405 0.4186 0.5876
H2_2 H 0.0737 0.3794 0.3789
H3_3 H 0.1823 0.3658 0.7072
H4_3 H 0.1497 0.4019 0.9293
N4_4 N 0.0359(4) 0.5711(5) 0.8128(7)
C13_5 C 0.7183(5) 0.9613(3) 0.1749(9)
H10_5 H 0.7128 0.9724 0.2877
O1_5 O 0.2093(3) 0.9085(2) 0.2009(6)
C1_5 C 0.2185(4) 0.9601(2) 0.2482(7)
C7_3 C 0.1981(5) 0.9723(3) 0.3997(9)
C8_3 C 0.1506(4) 0.9292(3) 0.5042(9)
O2_3 O 0.1267(4) 0.8731(2) 0.4886(7)
C9_3 C 0.1274(6) 0.9514(4) 0.6465(12)
H6_4 H 0.0936 0.9172 0.7051
H7_4 H 0.1601 0.9737 0.7291
H8_3 H 0.1138 0.9782 0.5997
O3_3 O 0.1240(3) 0.7582(2) 0.4658(6)
C10_3 C 0.1148(4) 0.7066(2) 0.4185(7)
C11_3 C 0.0839(4) 0.6577(2) 0.5497(7)
C12_4 C 0.0752(5) 0.6716(3) 0.7158(9)
C13_6 C 0.0516(5) 0.6280(3) 0.8416(9)
C14_3 C 0.0435(4) 0.5575(3) 0.6506(8)
C15_3 C 0.0656(4) 0.5982(3) 0.5172(8)
C16_3 C 0.1352(5) 0.6944(3) 0.2670(9)
C17_3 C 0.1827(4) 0.7375(3) 0.1625(9)
O4_3 O 0.2066(4) 0.7936(2) 0.1781(7)
C18_3 C 0.2059(6) 0.7153(4) 0.0202(12)
H9_4 H 0.0853 0.7115 0.7457
H10_6 H 0.0461 0.6391 0.9544
H11_3 H 0.0325 0.5169 0.6261
H12_3 H 0.0686 0.5856 0.4040
H13_3 H 0.1160 0.6536 0.2304
H16_3 H 0.2195 0.6885 0.0670
O1_6 O 0.5427(3) 0.5751(2) 0.8675(6)
C1_6 C 0.5519(4) 0.6267(2) 0.9148(7)
C2_4 C 0.5828(4) 0.6756(2) 0.7836(7)
C3_3 C 0.5915(5) 0.6617(3) 0.6175(9)
C4_3 C 0.6151(5) 0.7053(3) 0.4917(9)
C5_4 C 0.6232(4) 0.7758(3) 0.6827(8)
C6_4 C 0.6011(4) 0.7351(3) 0.8161(8)
H1_3 H 0.5814 0.6218 0.5876
H2_3 H 0.6206 0.6942 0.3789
H3_4 H 0.6342 0.8164 0.7072
H4_4 H 0.5981 0.7477 0.9293
C16_4 C 0.4685(5) 0.3611(3) 0.9337(9)
C17_4 C 0.5160(4) 0.4042(3) 0.8292(9)
O4_4 O 0.5399(4) 0.4603(2) 0.8448(7)
C18_4 C 0.5392(6) 0.3820(4) 0.6869(12)
H13_4 H 0.4493 0.3203 0.8971
H14 H 0.5730 0.4162 0.6283
H15 H 0.5065 0.3597 0.6043
H16_4 H 0.5528 0.3552 0.7337
C11_4 C 0.0090(2) 0.7595(3) 0.8830(7)
C14_4 C 0.1092(3) 0.8193(3) 0.9839(8)
C15_4 C 0.0685(3) 0.8007(3) 0.8505(8)
H11_4 H 0.1498 0.8489 0.9594
H12_4 H 0.0811 0.8163 0.7373
H13_5 H 0.0131 0.7957 0.5637
H6_5 H 0.7495 0.5098 0.0384
H7_5 H 0.6930 0.5198 0.0624
C12_5 C 0.9951(3) 0.7369(4) 0.0491(9)
H9_5 H 0.9552 0.7071 0.0790
Cu1_5 Cu 0.8333 0.6667 0.6667
O1_7 O 0.7582(2) 0.6342(2) 0.5342(6)
C1_7 C 0.7066(2) 0.5918(3) 0.5815(7)
C2_5 C 0.6577(2) 0.5738(3) 0.4503(7)
C3_4 C 0.6716(3) 0.5964(4) 0.2842(9)
C4_4 C 0.6280(3) 0.5764(4) 0.1584(9)
N1_2 N 0.5711(3) 0.5352(3) 0.1872(7)
C5_5 C 0.5575(3) 0.5140(3) 0.3494(8)
C6_5 C 0.5982(3) 0.5326(3) 0.4828(8)
C7_4 C 0.6944(3) 0.5592(4) 0.7330(9)
C8_4 C 0.7375(3) 0.5548(3) 0.8375(9)
O2_4 O 0.7936(2) 0.5870(3) 0.8219(7)
C9_4 C 0.7153(4) 0.5094(5) 0.9798(12)
H1_4 H 0.7115 0.6262 0.2543
H2_4 H 0.6391 0.5930 0.0456
H3_5 H 0.5169 0.4844 0.3739
H4_5 H 0.5856 0.5170 0.5960
H5_2 H 0.6536 0.5376 0.7696
H8_4 H 0.6885 0.4690 0.9330
O3_4 O 0.9085(2) 0.6991(2) 0.7991(6)
C10_4 C 0.9601(2) 0.7415(3) 0.7518(7)
C16_5 C 0.9723(3) 0.7741(4) 0.6003(9)
C17_5 C 0.9292(3) 0.7785(3) 0.4958(9)
O4_5 O 0.8731(2) 0.7463(3) 0.5114(7)
C18_5 C 0.9514(4) 0.8239(5) 0.3535(12)
H14_2 H 0.9172 0.8235 0.2949
H15_2 H 0.9737 0.8135 0.2709
H16_5 H 0.9782 0.8643 0.4003
Cu3_2 Cu 0.4999 0.5000 -0.0000
N3_3 N 0.7981(3) 0.7026(4) 0.8539(7)
N4_5 N 0.8685(3) 0.6308(4) 0.4795(7)
C4_5 C 0.9613(3) 0.2431(4) 0.8251(9)
N1_3 N 0.9044(3) 0.2019(3) 0.8539(7)
H2_5 H 0.9724 0.2597 0.7123
Cu3_3 Cu 0.8333 0.1666 0.6666
Cu1_6 Cu 0.5000 0.0000 0.0000
O3_5 O 0.5751(2) 0.0325(2) 0.1325(6)
C10_5 C 0.6267(2) 0.0749(3) 0.0852(7)
C11_5 C 0.6756(2) 0.0929(3) 0.2164(7)
C12_6 C 0.6617(3) 0.0703(4) 0.3825(9)
C13_7 C 0.7053(3) 0.0903(4) 0.5083(9)
N2_3 N 0.7622(3) 0.1315(3) 0.4795(7)
C14_5 C 0.7758(3) 0.1527(3) 0.3173(8)
C15_5 C 0.7351(3) 0.1341(3) 0.1839(8)
H9_6 H 0.6218 0.0405 0.4124
H10_7 H 0.6942 0.0737 0.6211
H11_5 H 0.8164 0.1823 0.2928
H12_5 H 0.7477 0.1497 0.0707
N3_4 N 0.4648(3) 0.0359(4) 0.1872(7)
Cu1_7 Cu 0.3333 0.1666 0.6667
O1_8 O 0.3658(2) 0.1240(3) 0.5342(6)
C1_8 C 0.4082(3) 0.1148(4) 0.5815(7)
C2_6 C 0.4262(3) 0.0839(4) 0.4503(7)
C3_5 C 0.4036(4) 0.0752(5) 0.2842(9)
C4_6 C 0.4236(4) 0.0516(5) 0.1584(9)
C5_6 C 0.4860(3) 0.0435(4) 0.3494(8)
C6_6 C 0.4674(3) 0.0656(4) 0.4828(8)
C7_5 C 0.4408(4) 0.1352(5) 0.7330(9)
C8_5 C 0.4452(3) 0.1827(4) 0.8375(9)
O2_5 O 0.4130(3) 0.2066(4) 0.8219(7)
C9_5 C 0.4906(5) 0.2059(6) 0.9798(12)
H1_5 H 0.3738 0.0853 0.2543
H2_6 H 0.4070 0.0461 0.0456
H3_6 H 0.5156 0.0325 0.3739
H4_6 H 0.4830 0.0686 0.5960
H5_3 H 0.4624 0.1160 0.7696
H8_5 H 0.5310 0.2195 0.9330
O3_6 O 0.3009(2) 0.2093(3) 0.7991(6)
C10_6 C 0.2585(3) 0.2185(4) 0.7518(7)
C11_6 C 0.2405(3) 0.2494(4) 0.8830(7)
C14_6 C 0.1807(3) 0.2898(4) 0.9839(8)
C15_6 C 0.1993(3) 0.2677(4) 0.8505(8)
C16_6 C 0.2259(4) 0.1981(5) 0.6003(9)
C17_6 C 0.2215(3) 0.1506(4) 0.4958(9)
O4_6 O 0.2537(3) 0.1267(4) 0.5114(7)
C18_6 C 0.1761(5) 0.1274(6) 0.3535(12)
H11_6 H 0.1511 0.3008 0.9594
H12_6 H 0.1837 0.2647 0.7373
H13_6 H 0.2043 0.2173 0.5637
H14_3 H 0.1765 0.0936 0.2949
H15_3 H 0.1865 0.1601 0.2709
H16_6 H 0.1357 0.1138 0.4003
N3_5 N 0.2974(4) 0.0956(5) 0.8539(7)
N4_6 N 0.3692(4) 0.2378(5) 0.4795(7)
C3_6 C 0.7369(4) 0.7419(5) 0.9509(9)
C4_7 C 0.7569(4) 0.7183(5) 0.8251(9)
H1_6 H 0.7071 0.7520 0.9210
H2_7 H 0.7403 0.7128 0.7123
H14_4 H 0.5098 0.7603 0.9616
H15_4 H 0.5198 0.8268 0.9376
Cu1_8 Cu 1.0000 0.4999 0.0000
O3_7 O 0.9675(2) 0.5427(3) 0.1325(6)
C10_7 C 0.9251(3) 0.5519(4) 0.0852(7)
C11_7 C 0.9071(3) 0.5828(4) 0.2164(7)
C12_7 C 0.9297(4) 0.5915(5) 0.3825(9)
C13_8 C 0.9097(4) 0.6151(5) 0.5083(9)
C14_7 C 0.8473(3) 0.6232(4) 0.3173(8)
C15_7 C 0.8659(3) 0.6011(4) 0.1839(8)
H9_7 H 0.9595 0.5814 0.4124
H10_8 H 0.9263 0.6206 0.6211
H11_7 H 0.8177 0.6342 0.2928
H12_7 H 0.8503 0.5981 0.0707
N3_6 N 0.9641(4) 0.4289(5) 0.1872(7)
O1_9 O 0.8760(3) 0.2418(2) 0.5342(6)
C1_9 C 0.8852(4) 0.2934(2) 0.5815(7)
C2_7 C 0.9161(4) 0.3423(2) 0.4503(7)
C3_7 C 0.9248(5) 0.3284(3) 0.2842(9)
C4_8 C 0.9484(5) 0.3720(3) 0.1584(9)
C5_7 C 0.9565(4) 0.4425(3) 0.3494(8)
C6_7 C 0.9344(4) 0.4018(3) 0.4828(8)
C7_6 C 0.8648(5) 0.3056(3) 0.7330(9)
C8_6 C 0.8173(4) 0.2625(3) 0.8375(9)
O2_6 O 0.7934(4) 0.2064(2) 0.8219(7)
C9_6 C 0.7941(6) 0.2847(4) 0.9798(12)
H1_7 H 0.9147 0.2885 0.2543
H2_8 H 0.9539 0.3609 0.0456
H3_7 H 0.9675 0.4831 0.3739
H4_7 H 0.9314 0.4144 0.5960
H5_4 H 0.8840 0.3464 0.7696
H8_6 H 0.7805 0.3115 0.9330
O3_8 O 0.7907(3) 0.0915(2) 0.7991(6)
C10_8 C 0.7815(4) 0.0399(2) 0.7518(7)
C16_7 C 0.8019(5) 0.0277(3) 0.6003(9)
C17_7 C 0.8494(4) 0.0708(3) 0.4958(9)
O4_7 O 0.8733(4) 0.1269(2) 0.5114(7)
C18_7 C 0.8726(6) 0.0486(4) 0.3535(12)
H14_5 H 0.9064 0.0828 0.2949
H15_5 H 0.8399 0.0263 0.2709
H16_7 H 0.8862 0.0218 0.4003
C4_9 C 0.2817(5) 0.0387(3) 0.8251(9)
H2_9 H 0.2872 0.0276 0.7123
C7_7 C 0.5315(5) 0.6389(3) 0.0663(9)
C8_7 C 0.4840(4) 0.5958(3) 0.1708(9)
O2_7 O 0.4601(4) 0.5397(2) 0.1552(7)
C9_7 C 0.4608(6) 0.6180(4) 0.3131(12)
H5_5 H 0.5507 0.6797 0.1029
H6_6 H 0.4270 0.5838 0.3717
H7_6 H 0.4935 0.6403 0.3957
H8_7 H 0.4472 0.6448 0.2663
O3_9 O 0.4573(3) 0.4249(2) 0.1325(6)
C10_9 C 0.4481(4) 0.3733(2) 0.0852(7)
C11_8 C 0.4172(4) 0.3244(2) 0.2164(7)
C12_8 C 0.4085(5) 0.3383(3) 0.3825(9)
C13_9 C 0.3849(5) 0.2947(3) 0.5083(9)
C14_8 C 0.3768(4) 0.2242(3) 0.3173(8)
C15_8 C 0.3989(4) 0.2649(3) 0.1839(8)
H9_8 H 0.4186 0.3782 0.4124
H10_9 H 0.3794 0.3058 0.6211
H11_8 H 0.3658 0.1836 0.2928
H12_8 H 0.4019 0.2523 0.0707
C3_8 C 0.0049(3) 0.2631(4) 0.9509(9)
H1_8 H 0.0448 0.2929 0.9210
H14_6 H 0.2505 0.4902 0.9616
H15_6 H 0.3070 0.4802 0.9376
C2_8 C 0.9910(2) 0.2405(3) 0.1170(7)
C5_8 C 0.8908(3) 0.1807(3) 0.0161(8)
C6_8 C 0.9315(3) 0.1993(3) 0.1495(8)
H3_8 H 0.8502 0.1511 0.0406
H4_8 H 0.9189 0.1837 0.2627
H5_6 H 0.9869 0.2043 0.4363
Cu1_9 Cu 0.5000 0.0000 1.0000
C16_8 C 0.6389(3) 0.1075(4) 0.9337(9)
C17_8 C 0.5958(3) 0.1119(3) 0.8292(9)
O4_8 O 0.5397(2) 0.0797(3) 0.8448(7)
C18_8 C 0.6180(4) 0.1573(5) 0.6869(12)
H13_7 H 0.6797 0.1291 0.8971
H14_7 H 0.5838 0.1569 0.6283
H15_7 H 0.6403 0.1469 0.6043
H16_8 H 0.6448 0.1977 0.7337
Cu1_10 Cu 0.5000 1.0000 0.0000
C7_8 C 0.3611(3) 0.8925(4) 0.0663(9)
C8_8 C 0.4042(3) 0.8881(3) 0.1708(9)
O2_8 O 0.4603(2) 0.9203(3) 0.1552(7)
C9_8 C 0.3820(4) 0.8427(5) 0.3131(12)
H5_7 H 0.3203 0.8709 0.1029
H6_7 H 0.4162 0.8431 0.3717
H7_7 H 0.3597 0.8531 0.3957
H8_8 H 0.3552 0.8023 0.2663
Cu1_11 Cu -0.0000 0.4999 0.0000
C7_9 C 0.1075(4) 0.4685(5) 0.0663(9)
C8_9 C 0.1119(3) 0.5160(4) 0.1708(9)
O2_9 O 0.0797(3) 0.5399(4) 0.1552(7)
C9_9 C 0.1573(5) 0.5392(6) 0.3131(12)
H5_8 H 0.1291 0.4493 0.1029
H6_8 H 0.1569 0.5730 0.3717
H7_8 H 0.1469 0.5065 0.3957
H8_9 H 0.1977 0.5528 0.2663
Cu1_12 Cu 1.0000 0.4999 1.0000
C16_9 C 0.8925(4) 0.5315(5) 0.9337(9)
C17_9 C 0.8881(3) 0.4840(4) 0.8292(9)
O4_9 O 0.9203(3) 0.4601(4) 0.8448(7)
C18_9 C 0.8427(5) 0.4608(6) 0.6869(12)
H13_8 H 0.8709 0.5507 0.8971
H14_8 H 0.8431 0.4270 0.6283
H15_8 H 0.8531 0.4935 0.6043
H16_9 H 0.8023 0.4472 0.7337
H6_9 H 0.7603 0.2505 0.0384
H7_9 H 0.8268 0.3070 0.0624
C12_9 C 0.7419(5) 0.0049(3) 0.0491(9)
H9_9 H 0.7520 0.0448 0.0790
C11_9 C 0.7506(4) 0.9910(2) 0.8830(7)
C14_9 C 0.7102(4) 0.8908(3) 0.9839(8)
C15_9 C 0.7323(4) 0.9315(3) 0.8505(8)
H11_9 H 0.6992 0.8502 0.9594
H12_9 H 0.7353 0.9189 0.7373
H13_9 H 0.7827 0.9869 0.5637
C2_9 C 0.2494(4) 0.0090(2) 0.1170(7)
C5_9 C 0.2898(4) 0.1092(3) 0.0161(8)
C6_9 C 0.2677(4) 0.0685(3) 0.1495(8)
H3_9 H 0.3008 0.1498 0.0406
H4_9 H 0.2647 0.0811 0.2627
H5_9 H 0.2173 0.0131 0.4363
C3_9 C 0.2581(5) 0.9951(3) 0.9509(9)
H1_9 H 0.2480 0.9552 0.9210
H14_9 H 0.2397 0.7495 0.9616
H15_9 H 0.1732 0.6930 0.9376
loop_
_geom_bond_atom_site_label_1
_geom_bond_atom_site_label_2
_geom_bond_site_symmetry_1
_geom_bond_site_symmetry_2
N2 C13 1_555 1_555
H10 C13 1_555 1_555
Cu2 N2 1_555 1_555
Cu1 O1 1_555 1_555
O1 C1 1_555 1_555
C7 C1 1_555 1_555
C8 C7 1_555 1_555
O2 Cu1 1_555 1_555
C9 C8 1_555 1_555
H6 C9 1_555 1_555
H7 C9 1_555 1_555
H8 C9 1_555 1_555
O3 Cu1 1_555 1_555
C10 O3 1_555 1_555
C11 C10 1_555 1_555
C12 C11 1_555 1_555
C13_2 C12 1_555 1_555
N2_2 C13_2 1_555 1_555
C14 N2_2 1_555 1_555
C15 C11 1_555 1_555
C16 C10 1_555 1_555
C17 C16 1_555 1_555
O4 Cu1 1_555 1_555
C18 C17 1_555 1_555
H9 C12 1_555 1_555
H10_2 C13_2 1_555 1_555
H11 C14 1_555 1_555
H12 C15 1_555 1_555
H13 C16 1_555 1_555
H16 C18 1_555 1_555
Cu3 N2_2 1_555 1_555
N3 Cu1 1_555 1_555
N4 Cu1 1_555 1_555
C8 O2 1_555 1_555
C14 C15 1_555 1_555
C17 O4 1_555 1_555
Cu1_2 O1_2 1_555 1_555
O1_2 C1_2 1_555 1_555
C1_2 C2 1_555 1_555
C2 C3 1_555 1_555
C3 C4 1_555 1_555
C4 N1 1_555 1_555
N1 C5 1_555 1_555
C5 C6 1_555 1_555
C6 C2 1_555 1_555
H1 C3 1_555 1_555
H2 C4 1_555 1_555
H3 C5 1_555 1_555
H4 C6 1_555 1_555
Cu2 N1 1_555 1_555
N4_2 Cu1_2 1_555 1_555
C13_3 C12_2 1_555 1_555
N4 C13_3 1_555 1_555
H9_2 C12_2 1_555 1_555
H10_3 C13_3 1_555 1_555
Cu1_3 O1_3 1_555 1_555
O1_3 C1_3 1_555 1_555
C1_3 C2_2 1_555 1_555
C5_2 C6_2 1_555 1_555
C6_2 C2_2 1_555 1_555
C7_2 C1_3 1_555 1_555
C8_2 C7_2 1_555 1_555
O2_2 Cu1_3 1_555 1_555
C9_2 C8_2 1_555 1_555
H3_2 C5_2 1_555 1_555
H4_2 C6_2 1_555 1_555
H5 C7_2 1_555 1_555
H6_3 C9_2 1_555 1_555
H7_3 C9_2 1_555 1_555
H8_2 C9_2 1_555 1_555
O3_2 Cu1_3 1_555 1_555
C10_2 O3_2 1_555 1_555
C11_2 C10_2 1_555 1_555
C12_3 C11_2 1_555 1_555
C13_4 C12_3 1_555 1_555
N4_2 C13_4 1_555 1_555
C14_2 N4_2 1_555 1_555
C15_2 C11_2 1_555 1_555
C16_2 C10_2 1_555 1_555
C17_2 C16_2 1_555 1_555
O4_2 Cu1_3 1_555 1_555
C18_2 C17_2 1_555 1_555
H9_3 C12_3 1_555 1_555
H10_4 C13_4 1_555 1_555
H11_2 C14_2 1_555 1_555
H12_2 C15_2 1_555 1_555
H13_2 C16_2 1_555 1_555
H16_2 C18_2 1_555 1_555
N3_2 Cu1_3 1_555 1_555
N4_3 Cu1_3 1_555 1_555
C8_2 O2_2 1_555 1_555
C14_2 C15_2 1_555 1_555
C17_2 O4_2 1_555 1_555
Cu1_4 O1_4 1_555 1_555
O1_4 C1_4 1_555 1_555
C1_4 C2_3 1_555 1_555
C2_3 C3_2 1_555 1_555
C3_2 C4_2 1_555 1_555
C4_2 N3 1_555 1_555
N3 C5_3 1_555 1_555
C5_3 C6_3 1_555 1_555
C6_3 C2_3 1_555 1_555
H1_2 C3_2 1_555 1_555
H2_2 C4_2 1_555 1_555
H3_3 C5_3 1_555 1_555
H4_3 C6_3 1_555 1_555
N4_4 Cu1_4 1_555 1_555
N4_3 C13_5 1_555 1_555
H10_5 C13_5 1_555 1_555
Cu2 O1_5 1_555 1_555
O1_5 C1_5 1_555 1_555
C7_3 C1_5 1_555 1_555
C8_3 C7_3 1_555 1_555
O2_3 Cu2 1_555 1_555
C9_3 C8_3 1_555 1_555
H6_4 C9_3 1_555 1_555
H7_4 C9_3 1_555 1_555
H8_3 C9_3 1_555 1_555
O3_3 Cu2 1_555 1_555
C10_3 O3_3 1_555 1_555
C11_3 C10_3 1_555 1_555
C12_4 C11_3 1_555 1_555
C13_6 C12_4 1_555 1_555
N4_4 C13_6 1_555 1_555
C14_3 N4_4 1_555 1_555
C15_3 C11_3 1_555 1_555
C16_3 C10_3 1_555 1_555
C17_3 C16_3 1_555 1_555
O4_3 Cu2 1_555 1_555
C18_3 C17_3 1_555 1_555
H9_4 C12_4 1_555 1_555
H10_6 C13_6 1_555 1_555
H11_3 C14_3 1_555 1_555
H12_3 C15_3 1_555 1_555
H13_3 C16_3 1_555 1_555
H16_3 C18_3 1_555 1_555
C8_3 O2_3 1_555 1_555
C14_3 C15_3 1_555 1_555
C17_3 O4_3 1_555 1_555
Cu3 O1_6 1_555 1_555
O1_6 C1_6 1_555 1_555
C1_6 C2_4 1_555 1_555
C2_4 C3_3 1_555 1_555
C3_3 C4_3 1_555 1_555
C4_3 N3_2 1_555 1_555
N3_2 C5_4 1_555 1_555
C5_4 C6_4 1_555 1_555
C6_4 C2_4 1_555 1_555
H1_3 C3_3 1_555 1_555
H2_3 C4_3 1_555 1_555
H3_4 C5_4 1_555 1_555
H4_4 C6_4 1_555 1_555
C17_4 C16_4 1_555 1_555
O4_4 Cu3 1_555 1_555
C18_4 C17_4 1_555 1_555
H13_4 C16_4 1_555 1_555
H14 C18_4 1_555 1_555
H15 C18_4 1_555 1_555
H16_4 C18_4 1_555 1_555
C17_4 O4_4 1_555 1_555
C15_4 C11_4 1_555 1_555
H11_4 C14_4 1_555 1_555
H12_4 C15_4 1_555 1_555
C14_4 C15_4 1_555 1_555
H9_5 C12_5 1_555 1_555
Cu1_5 O1_7 1_555 1_555
O1_7 C1_7 1_555 1_555
C1_7 C2_5 1_555 1_555
C2_5 C3_4 1_555 1_555
C3_4 C4_4 1_555 1_555
C4_4 N1_2 1_555 1_555
N1_2 C5_5 1_555 1_555
C5_5 C6_5 1_555 1_555
C6_5 C2_5 1_555 1_555
C7_4 C1_7 1_555 1_555
C8_4 C7_4 1_555 1_555
O2_4 Cu1_5 1_555 1_555
C9_4 C8_4 1_555 1_555
H1_4 C3_4 1_555 1_555
H2_4 C4_4 1_555 1_555
H3_5 C5_5 1_555 1_555
H4_5 C6_5 1_555 1_555
H5_2 C7_4 1_555 1_555
H8_4 C9_4 1_555 1_555
O3_4 Cu1_5 1_555 1_555
C10_4 O3_4 1_555 1_555
C16_5 C10_4 1_555 1_555
C17_5 C16_5 1_555 1_555
O4_5 Cu1_5 1_555 1_555
C18_5 C17_5 1_555 1_555
H14_2 C18_5 1_555 1_555
H15_2 C18_5 1_555 1_555
H16_5 C18_5 1_555 1_555
Cu3_2 N1_2 1_555 1_555
N3_3 Cu1_5 1_555 1_555
N4_5 Cu1_5 1_555 1_555
C8_4 O2_4 1_555 1_555
C17_5 O4_5 1_555 1_555
C4_5 N1_3 1_555 1_555
H2_5 C4_5 1_555 1_555
Cu3_3 N1_3 1_555 1_555
O3_5 Cu1_6 1_555 1_555
C10_5 O3_5 1_555 1_555
C11_5 C10_5 1_555 1_555
C12_6 C11_5 1_555 1_555
C13_7 C12_6 1_555 1_555
N2_3 C13_7 1_555 1_555
C14_5 N2_3 1_555 1_555
C15_5 C11_5 1_555 1_555
H9_6 C12_6 1_555 1_555
H10_7 C13_7 1_555 1_555
H11_5 C14_5 1_555 1_555
H12_5 C15_5 1_555 1_555
Cu3_3 N2_3 1_555 1_555
N3_4 Cu1_6 1_555 1_555
C14_5 C15_5 1_555 1_555
Cu1_7 O1_8 1_555 1_555
O1_8 C1_8 1_555 1_555
C1_8 C2_6 1_555 1_555
C2_6 C3_5 1_555 1_555
C3_5 C4_6 1_555 1_555
C4_6 N3_4 1_555 1_555
N3_4 C5_6 1_555 1_555
C5_6 C6_6 1_555 1_555
C6_6 C2_6 1_555 1_555
C7_5 C1_8 1_555 1_555
C8_5 C7_5 1_555 1_555
O2_5 Cu1_7 1_555 1_555
C9_5 C8_5 1_555 1_555
H1_5 C3_5 1_555 1_555
H2_6 C4_6 1_555 1_555
H3_6 C5_6 1_555 1_555
H4_6 C6_6 1_555 1_555
H5_3 C7_5 1_555 1_555
H8_5 C9_5 1_555 1_555
O3_6 Cu1_7 1_555 1_555
C10_6 O3_6 1_555 1_555
C11_6 C10_6 1_555 1_555
C15_6 C11_6 1_555 1_555
C16_6 C10_6 1_555 1_555
C17_6 C16_6 1_555 1_555
O4_6 Cu1_7 1_555 1_555
C18_6 C17_6 1_555 1_555
H11_6 C14_6 1_555 1_555
H12_6 C15_6 1_555 1_555
H13_6 C16_6 1_555 1_555
H14_3 C18_6 1_555 1_555
H15_3 C18_6 1_555 1_555
H16_6 C18_6 1_555 1_555
N3_5 Cu1_7 1_555 1_555
N4_6 Cu1_7 1_555 1_555
C8_5 O2_5 1_555 1_555
C14_6 C15_6 1_555 1_555
C17_6 O4_6 1_555 1_555
C3_6 C4_7 1_555 1_555
C4_7 N3_3 1_555 1_555
H1_6 C3_6 1_555 1_555
H2_7 C4_7 1_555 1_555
O3_7 Cu1_8 1_555 1_555
C10_7 O3_7 1_555 1_555
C11_7 C10_7 1_555 1_555
C12_7 C11_7 1_555 1_555
C13_8 C12_7 1_555 1_555
N4_5 C13_8 1_555 1_555
C14_7 N4_5 1_555 1_555
C15_7 C11_7 1_555 1_555
H9_7 C12_7 1_555 1_555
H10_8 C13_8 1_555 1_555
H11_7 C14_7 1_555 1_555
H12_7 C15_7 1_555 1_555
N3_6 Cu1_8 1_555 1_555
C14_7 C15_7 1_555 1_555
Cu3_3 O1_9 1_555 1_555
O1_9 C1_9 1_555 1_555
C1_9 C2_7 1_555 1_555
C2_7 C3_7 1_555 1_555
C3_7 C4_8 1_555 1_555
C4_8 N3_6 1_555 1_555
N3_6 C5_7 1_555 1_555
C5_7 C6_7 1_555 1_555
C6_7 C2_7 1_555 1_555
C7_6 C1_9 1_555 1_555
C8_6 C7_6 1_555 1_555
O2_6 Cu3_3 1_555 1_555
C9_6 C8_6 1_555 1_555
H1_7 C3_7 1_555 1_555
H2_8 C4_8 1_555 1_555
H3_7 C5_7 1_555 1_555
H4_7 C6_7 1_555 1_555
H5_4 C7_6 1_555 1_555
H8_6 C9_6 1_555 1_555
O3_8 Cu3_3 1_555 1_555
C10_8 O3_8 1_555 1_555
C16_7 C10_8 1_555 1_555
C17_7 C16_7 1_555 1_555
O4_7 Cu3_3 1_555 1_555
C18_7 C17_7 1_555 1_555
H14_5 C18_7 1_555 1_555
H15_5 C18_7 1_555 1_555
H16_7 C18_7 1_555 1_555
C8_6 O2_6 1_555 1_555
C17_7 O4_7 1_555 1_555
C4_9 N3_5 1_555 1_555
H2_9 C4_9 1_555 1_555
C8_7 C7_7 1_555 1_555
O2_7 Cu3_2 1_555 1_555
C9_7 C8_7 1_555 1_555
H5_5 C7_7 1_555 1_555
H6_6 C9_7 1_555 1_555
H7_6 C9_7 1_555 1_555
H8_7 C9_7 1_555 1_555
O3_9 Cu3_2 1_555 1_555
C10_9 O3_9 1_555 1_555
C11_8 C10_9 1_555 1_555
C12_8 C11_8 1_555 1_555
C13_9 C12_8 1_555 1_555
N4_6 C13_9 1_555 1_555
C14_8 N4_6 1_555 1_555
C15_8 C11_8 1_555 1_555
H9_8 C12_8 1_555 1_555
H10_9 C13_9 1_555 1_555
H11_8 C14_8 1_555 1_555
H12_8 C15_8 1_555 1_555
C8_7 O2_7 1_555 1_555
C14_8 C15_8 1_555 1_555
H1_8 C3_8 1_555 1_555
C5_8 C6_8 1_555 1_555
C6_8 C2_8 1_555 1_555
H3_8 C5_8 1_555 1_555
H4_8 C6_8 1_555 1_555
C17_8 C16_8 1_555 1_555
O4_8 Cu1_9 1_555 1_555
C18_8 C17_8 1_555 1_555
H13_7 C16_8 1_555 1_555
H14_7 C18_8 1_555 1_555
H15_7 C18_8 1_555 1_555
H16_8 C18_8 1_555 1_555
C17_8 O4_8 1_555 1_555
C8_8 C7_8 1_555 1_555
O2_8 Cu1_10 1_555 1_555
C9_8 C8_8 1_555 1_555
H5_7 C7_8 1_555 1_555
H6_7 C9_8 1_555 1_555
H7_7 C9_8 1_555 1_555
H8_8 C9_8 1_555 1_555
C8_8 O2_8 1_555 1_555
C8_9 C7_9 1_555 1_555
O2_9 Cu1_11 1_555 1_555
C9_9 C8_9 1_555 1_555
H5_8 C7_9 1_555 1_555
H6_8 C9_9 1_555 1_555
H7_8 C9_9 1_555 1_555
H8_9 C9_9 1_555 1_555
C8_9 O2_9 1_555 1_555
C17_9 C16_9 1_555 1_555
O4_9 Cu1_12 1_555 1_555
C18_9 C17_9 1_555 1_555
H13_8 C16_9 1_555 1_555
H14_8 C18_9 1_555 1_555
H15_8 C18_9 1_555 1_555
H16_9 C18_9 1_555 1_555
C17_9 O4_9 1_555 1_555
H9_9 C12_9 1_555 1_555
C15_9 C11_9 1_555 1_555
H11_9 C14_9 1_555 1_555
H12_9 C15_9 1_555 1_555
C14_9 C15_9 1_555 1_555
C5_9 C6_9 1_555 1_555
C6_9 C2_9 1_555 1_555
H3_9 C5_9 1_555 1_555
H4_9 C6_9 1_555 1_555
H1_9 C3_9 1_555 1_555

#END
