
###############################################################################
#
# This file contains modified crystal structure data generated from the
# MOF subset of the Cambridge Structural Database (CSD) v543 
# hosted by the Cambridge Crystallographic Data Centre (CCDC).
#
# This work is licensed under the Creative Commons
# Attribution-NonCommercial-ShareAlike 4.0 International License.
# To view a copy of this license, visit
# http://creativecommons.org/licenses/by-nc-sa/4.0/
# or send a letter to
# Creative Commons, PO Box 1866, Mountain View, CA 94042, USA.
#
# CIF created using the CSD Python API on 29 September 2022
# The structure has been converted into the P1 space group
# The structure has a 3D framework
# The original CSD entry ECEFIC is in the tetragonal crystal system
# The original CSD entry ECEFIC is in a Sohncke space group
# The framework has been calculated to contain at least 10.0% void space
# The void calculation uses a probe of radius 1.32A, grid spacing 0.4
# The framework is charged, counterions have been retained in the structure
# H atom positions have been added when not included in the experimental data
#
###############################################################################

data_ECEFIC
_chemical_formula_moiety         '(C160 H272 B8 Cu24 K8 N32 O392 W96 16-)n'
_symmetry_cell_setting           triclinic
_symmetry_space_group_name_H-M   'P 1'
_symmetry_Int_Tables_number      1
_space_group_name_Hall           'P 1'
loop_
_symmetry_equiv_pos_site_id
_symmetry_equiv_pos_as_xyz
1 x,y,z
_cell_length_a                   23.944(3)
_cell_length_b                   23.944(3)
_cell_length_c                   26.201(5)
_cell_angle_alpha                90
_cell_angle_beta                 90
_cell_angle_gamma                90
_cell_volume                     15021.4
loop_
_atom_site_label
_atom_site_type_symbol
_atom_site_fract_x
_atom_site_fract_y
_atom_site_fract_z
K1 K 0.49304(18) 0.05112(17) 0.40508(13)
K1_2 K 0.50696(18) 0.94888(17) 0.90508(13)
K1_3 K 0.44888(17) 0.99304(18) 0.15508(13)
K1_4 K 0.55112(17) 0.00696(18) 0.65508(13)
K1_5 K 0.00696(18) 0.55112(17) 0.34492(13)
K1_6 K 0.99304(18) 0.44888(17) 0.84492(13)
K1_7 K 0.05112(17) 0.49304(18) 0.59492(13)
K1_8 K 0.94888(17) 0.50696(18) 0.09492(13)
B1 B 0.7580(6) 0.2052(6) 0.5022(5)
W1 W 0.64525(2) 0.15166(2) 0.56934(2)
W2 W 0.61858(2) 0.23842(2) 0.47258(2)
W3 W 0.73368(3) 0.29161(2) 0.39540(2)
W4 W 0.84171(2) 0.30824(2) 0.55789(2)
W5 W 0.71343(2) 0.34235(2) 0.52557(2)
W6 W 0.73575(3) 0.25870(3) 0.62509(2)
W7 W 0.89210(2) 0.16652(2) 0.53245(2)
W8 W 0.78878(3) 0.11775(3) 0.60359(2)
W9 W 0.66474(2) 0.11128(2) 0.44987(2)
W10 W 0.80734(2) 0.07108(2) 0.48539(2)
W11 W 0.86416(2) 0.26162(2) 0.42660(2)
W12 W 0.78278(2) 0.16381(3) 0.37672(2)
O1 O 0.6979(3) 0.1848(3) 0.4987(3)
O2 O 0.7954(3) 0.1617(4) 0.5213(3)
O3 O 0.7618(3) 0.2573(3) 0.5363(3)
O4 O 0.7769(3) 0.2242(3) 0.4467(3)
O5 O 0.7292(4) 0.0712(3) 0.4753(3)
O6 O 0.7767(4) 0.1897(4) 0.6287(3)
O7 O 0.6657(4) 0.2619(4) 0.4174(3)
O8 O 0.7458(4) 0.2302(4) 0.3519(3)
O9 O 0.6752(4) 0.2146(4) 0.6049(3)
O10 O 0.8572(3) 0.3048(3) 0.4869(3)
O11 O 0.6110(3) 0.1676(4) 0.4392(3)
O12 O 0.8944(4) 0.2035(4) 0.4683(3)
O13 O 0.5949(4) 0.2021(4) 0.5341(3)
O14 O 0.8136(4) 0.1111(4) 0.4204(3)
O15 O 0.8830(3) 0.0962(3) 0.4999(3)
O16 O 0.8058(3) 0.2952(4) 0.6208(3)
O17 O 0.7978(3) 0.0572(4) 0.5568(3)
O18 O 0.7110(4) 0.1397(4) 0.3988(3)
O19 O 0.6326(4) 0.0993(4) 0.5163(3)
O20 O 0.8757(4) 0.2369(4) 0.5615(3)
O21 O 0.7336(4) 0.3365(4) 0.4568(3)
O22 O 0.7027(4) 0.3242(4) 0.5968(3)
O23 O 0.7873(4) 0.3648(4) 0.5432(3)
O24 O 0.8499(4) 0.2047(4) 0.3761(3)
O25 O 0.8125(4) 0.3083(4) 0.3917(3)
O26 O 0.7098(4) 0.1128(4) 0.5889(3)
O27 O 0.6494(4) 0.2971(4) 0.5114(3)
O28 O 0.9630(4) 0.1642(4) 0.5452(4)
O29 O 0.6326(4) 0.0594(3) 0.4169(3)
O31 O 0.7909(5) 0.0793(5) 0.6566(4)
O32 O 0.5982(4) 0.1272(4) 0.6133(4)
O33 O 0.6833(4) 0.4069(4) 0.5269(4)
O34 O 0.8224(4) 0.0049(4) 0.4649(4)
O35 O 0.7894(4) 0.1292(4) 0.3204(4)
O36 O 0.7189(4) 0.2703(4) 0.6877(4)
O37 O 0.8650(4) 0.1320(4) 0.5949(3)
O38 O 0.9253(4) 0.2863(4) 0.4027(3)
O39 O 0.5572(4) 0.2672(4) 0.4555(4)
O40 O 0.7126(4) 0.3400(4) 0.3520(3)
O41 O 0.3909(4) 0.0063(4) 0.4502(4)
O44 O 0.3893(4) 0.0092(4) 0.5343(4)
H1 H 0.2802 0.0206 0.3218
N2 N 0.2827(5) 0.0149(5) 0.4397(4)
C6 C 0.3659(6) 0.0085(5) 0.4928(6)
C7 C 0.3019(6) 0.0104(6) 0.4912(5)
C8 C 0.2840(9) 0.0627(8) 0.5210(7)
H13 H 0.2469 0.0579 0.5371
H14 H 0.3118 0.0729 0.5474
C9 C 0.2584(9) 0.0726(8) 0.4328(7)
H15 H 0.2171 0.0718 0.4339
H16 H 0.2705 0.0894 0.4000
C10 C 0.282(3) 0.1049(14) 0.4783(11)
H17 H 0.3203 0.1190 0.4706
H18 H 0.2512 0.1344 0.4895
H21 H 0.6855 0.0251 0.2998
H22 H 0.7693 0.0220 0.3213
H25 H 0.7275 0.0047 0.3963
O50 O 0.8955(4) 0.3477(4) 0.5780(3)
O52 O 0.5110(4) 0.0475(4) 0.3015(3)
Cu1 Cu 0.34164(7) 0.99436(7) 0.39080(6)
Cu2 Cu 0.50160(7) 0.96967(7) 0.28140(6)
Cu3 Cu 0.62601(7) 0.95284(7) 0.42219(6)
O30 O 0.3477(4) 0.8955(4) 0.4220(3)
O42 O 0.4043(4) 0.9799(4) 0.3442(4)
O43 O 0.4241(4) 0.9774(4) 0.2614(4)
O45 O 0.5475(4) 0.9890(4) 0.5515(3)
O46 O 0.5789(4) 0.9583(4) 0.2775(4)
O47 O 0.5779(4) 0.9595(4) 0.3616(3)
O48 O 0.5661(4) 0.9779(4) 0.4690(3)
N1 N 0.2947(5) 0.9855(5) 0.3290(4)
H2 H 0.2537 0.9895 0.4356
N3 N 0.6880(4) 0.9347(4) 0.3720(4)
H3 H 0.6991 0.8979 0.3768
N4 N 0.6746(4) 0.9550(4) 0.4849(4)
H4 H 0.6980 0.9858 0.4821
C1 C 0.3906(6) 0.9776(6) 0.2960(6)
C2 C 0.3329(6) 0.9703(6) 0.2839(5)
H5 H 0.3229 0.9934 0.2534
C3 C 0.3181(8) 0.9084(8) 0.2740(7)
H6 H 0.3385 0.8835 0.2977
H7 H 0.3269 0.8975 0.2385
C4 C 0.2512(7) 0.9062(7) 0.2845(6)
H8 H 0.2301 0.9198 0.2545
H9 H 0.2389 0.8678 0.2928
C5 C 0.2439(7) 0.9442(7) 0.3291(6)
H10 H 0.2431 0.9224 0.3612
H11 H 0.2084 0.9651 0.3261
H12 H 0.2860 0.9761 0.5076
C11 C 0.6031(6) 0.9542(5) 0.3201(5)
C12 C 0.6664(6) 0.9412(5) 0.3205(5)
H19 H 0.6729 0.9056 0.3014
C13 C 0.7034(7) 0.9880(7) 0.2962(6)
H20 H 0.7103 0.9805 0.2596
C14 C 0.7500(7) 0.9855(8) 0.3225(6)
H23 H 0.7750 0.9569 0.3077
C15 C 0.7364(6) 0.9708(6) 0.3762(5)
H24 H 0.7679 0.9510 0.3926
C16 C 0.5799(6) 0.9782(6) 0.5150(6)
C17 C 0.6381(6) 0.9638(6) 0.5296(5)
H26 H 0.6539 0.9944 0.5511
C18 C 0.6422(6) 0.9071(6) 0.5594(6)
H27 H 0.6337 0.9123 0.5961
H28 H 0.6165 0.8788 0.5450
C19 C 0.7026(8) 0.8904(8) 0.5516(7)
H29 H 0.7084 0.8502 0.5585
H30 H 0.7279 0.9126 0.5734
C20 C 0.7110(7) 0.9041(6) 0.4944(6)
H31 H 0.7507 0.9125 0.4871
H32 H 0.6990 0.8724 0.4728
O49 O 0.5904(5) 0.8638(4) 0.4389(4)
W13 W 0.30824(2) 0.84171(2) 0.44211(2)
Cu4 Cu 0.46967(7) 0.99840(7) 0.53140(6)
O51 O 0.4908(4) 0.8893(4) 0.2843(4)
H33 H 0.555185 0.858369 0.419507
H34 H 0.618087 0.835187 0.428295
O45_2 O 0.4525(4) 0.0110(4) 0.0515(3)
H12_2 H 0.7140 0.0239 0.0076
C16_2 C 0.4201(6) 0.0218(6) 0.0150(6)
C17_2 C 0.3619(6) 0.0362(6) 0.0296(5)
H26_2 H 0.3461 0.0056 0.0511
C18_2 C 0.3578(6) 0.0929(6) 0.0594(6)
H27_2 H 0.3663 0.0877 0.0961
H28_2 H 0.3835 0.1212 0.0450
C19_2 C 0.2974(8) 0.1096(8) 0.0516(7)
H29_2 H 0.2916 0.1498 0.0585
H30_2 H 0.2721 0.0874 0.0734
Cu4_2 Cu 0.53033(7) 0.00160(7) 0.03140(6)
Cu1_2 Cu 0.65836(7) 0.00564(7) 0.89080(6)
Cu2_2 Cu 0.49840(7) 0.03033(7) 0.78140(6)
Cu3_2 Cu 0.37399(7) 0.04716(7) 0.92219(6)
O30_2 O 0.6523(4) 0.1045(4) 0.9220(3)
O42_2 O 0.5957(4) 0.0201(4) 0.8442(4)
O43_2 O 0.5759(4) 0.0226(4) 0.7614(4)
O46_2 O 0.4211(4) 0.0417(4) 0.7775(4)
O47_2 O 0.4221(4) 0.0405(4) 0.8616(3)
O48_2 O 0.4339(4) 0.0221(4) 0.9690(3)
N1_2 N 0.7053(5) 0.0145(5) 0.8290(4)
H2_2 H 0.7463 0.0105 0.9356
N3_2 N 0.3120(4) 0.0653(4) 0.8720(4)
H3_2 H 0.3009 0.1021 0.8768
N4_2 N 0.3254(4) 0.0450(4) 0.9849(4)
H4_2 H 0.3020 0.0142 0.9821
C1_2 C 0.6094(6) 0.0224(6) 0.7960(6)
C2_2 C 0.6671(6) 0.0297(6) 0.7839(5)
H5_2 H 0.6771 0.0066 0.7534
C3_2 C 0.6819(8) 0.0916(8) 0.7740(7)
H6_2 H 0.6615 0.1165 0.7977
H7_2 H 0.6731 0.1025 0.7385
C4_2 C 0.7488(7) 0.0938(7) 0.7845(6)
H8_2 H 0.7699 0.0802 0.7545
H9_2 H 0.7611 0.1322 0.7928
C5_2 C 0.7561(7) 0.0558(7) 0.8291(6)
H10_2 H 0.7569 0.0776 0.8612
H11_2 H 0.7916 0.0349 0.8261
C11_2 C 0.3969(6) 0.0458(5) 0.8201(5)
C12_2 C 0.3336(6) 0.0588(5) 0.8205(5)
H19_2 H 0.3271 0.0944 0.8014
C13_2 C 0.2966(7) 0.0120(7) 0.7962(6)
H20_2 H 0.2897 0.0195 0.7596
C14_2 C 0.2500(7) 0.0145(8) 0.8225(6)
H23_2 H 0.2250 0.0431 0.8077
C15_2 C 0.2636(6) 0.0292(6) 0.8762(5)
H24_2 H 0.2321 0.0490 0.8926
C20_2 C 0.2890(7) 0.0959(6) 0.9944(6)
H31_2 H 0.2493 0.0875 0.9871
H32_2 H 0.3010 0.1276 0.9728
O49_2 O 0.4096(5) 0.1362(4) 0.9389(4)
W13_2 W 0.69176(2) 0.15829(2) 0.94211(2)
O51_2 O 0.5092(4) 0.1107(4) 0.7843(4)
H33_2 H 0.444815 0.141631 0.919507
H34_2 H 0.381913 0.164813 0.928295
B1_2 B 0.2420(6) 0.7948(6) 0.0022(5)
W1_2 W 0.35475(2) 0.84834(2) 0.06934(2)
W4_2 W 0.15829(2) 0.69176(2) 0.05789(2)
W5_2 W 0.28657(2) 0.65765(2) 0.02557(2)
W6_2 W 0.26425(3) 0.74130(3) 0.12509(2)
W7_2 W 0.10790(2) 0.83348(2) 0.03245(2)
W8_2 W 0.21122(3) 0.88225(3) 0.10359(2)
O2_2 O 0.2046(3) 0.8383(4) 0.0213(3)
O3_2 O 0.2382(3) 0.7427(3) 0.0363(3)
O6_2 O 0.2233(4) 0.8103(4) 0.1287(3)
O9_2 O 0.3248(4) 0.7854(4) 0.1049(3)
O13_2 O 0.4051(4) 0.7979(4) 0.0341(3)
O16_2 O 0.1942(3) 0.7048(4) 0.1208(3)
O17_2 O 0.2022(3) 0.9428(4) 0.0568(3)
O19_2 O 0.3674(4) 0.9007(4) 0.0163(3)
O20_2 O 0.1243(4) 0.7631(4) 0.0615(3)
O22_2 O 0.2973(4) 0.6758(4) 0.0968(3)
O23_2 O 0.2127(4) 0.6352(4) 0.0432(3)
O26_2 O 0.2902(4) 0.8872(4) 0.0889(3)
O27_2 O 0.3506(4) 0.7029(4) 0.0114(3)
O28_2 O 0.0370(4) 0.8358(4) 0.0452(4)
O31_2 O 0.2091(5) 0.9207(5) 0.1566(4)
O32_2 O 0.4018(4) 0.8728(4) 0.1133(4)
O33_2 O 0.3167(4) 0.5931(4) 0.0269(4)
O36_2 O 0.2811(4) 0.7297(4) 0.1877(4)
O37_2 O 0.1350(4) 0.8680(4) 0.0949(3)
O44_2 O 0.6107(4) 0.9908(4) 0.0343(4)
C8_2 C 0.7160(9) 0.9373(8) 0.0210(7)
H13_2 H 0.7531 0.9421 0.0371
H14_2 H 0.6882 0.9271 0.0474
O50_2 O 0.1045(4) 0.6523(4) 0.0780(3)
W2_2 W 0.38142(2) 0.76158(2) 0.97258(2)
W3_2 W 0.26632(3) 0.70839(2) 0.89540(2)
W9_2 W 0.33526(2) 0.88872(2) 0.94987(2)
W10_2 W 0.19266(2) 0.92892(2) 0.98539(2)
W11_2 W 0.13584(2) 0.73838(2) 0.92660(2)
W12_2 W 0.21722(2) 0.83619(3) 0.87672(2)
O1_2 O 0.3021(3) 0.8152(3) 0.9987(3)
O4_2 O 0.2231(3) 0.7758(3) 0.9467(3)
O5_2 O 0.2708(4) 0.9288(3) 0.9753(3)
O7_2 O 0.3343(4) 0.7381(4) 0.9174(3)
O8_2 O 0.2542(4) 0.7698(4) 0.8519(3)
O10_2 O 0.1428(3) 0.6952(3) 0.9869(3)
O11_2 O 0.3890(3) 0.8324(4) 0.9392(3)
O12_2 O 0.1056(4) 0.7965(4) 0.9683(3)
O14_2 O 0.1864(4) 0.8889(4) 0.9204(3)
O15_2 O 0.1170(3) 0.9038(3) 0.9999(3)
O18_2 O 0.2890(4) 0.8603(4) 0.8988(3)
O21_2 O 0.2664(4) 0.6635(4) 0.9568(3)
O24_2 O 0.1501(4) 0.7953(4) 0.8761(3)
O25_2 O 0.1875(4) 0.6917(4) 0.8917(3)
O29_2 O 0.3674(4) 0.9406(3) 0.9169(3)
O34_2 O 0.1776(4) 0.9951(4) 0.9649(4)
O35_2 O 0.2106(4) 0.8708(4) 0.8204(4)
O38_2 O 0.0747(4) 0.7137(4) 0.9027(3)
O39_2 O 0.4428(4) 0.7328(4) 0.9555(4)
O40_2 O 0.2874(4) 0.6600(4) 0.8520(3)
O41_2 O 0.6091(4) 0.9937(4) 0.9502(4)
H1_2 H 0.7198 0.9794 0.8218
N2_2 N 0.7173(5) 0.9851(5) 0.9397(4)
C6_2 C 0.6341(6) 0.9915(5) 0.9928(6)
C7_2 C 0.6981(6) 0.9896(6) 0.9912(5)
C9_2 C 0.7416(9) 0.9274(8) 0.9328(7)
H15_2 H 0.7829 0.9282 0.9339
H16_2 H 0.7295 0.9106 0.9000
C10_2 C 0.718(3) 0.8951(14) 0.9783(11)
H17_2 H 0.6797 0.8810 0.9706
H18_2 H 0.7488 0.8656 0.9895
H21_2 H 0.3145 0.9749 0.7998
H22_2 H 0.2307 0.9780 0.8213
H25_2 H 0.2725 0.9953 0.8963
O52_2 O 0.4890(4) 0.9525(4) 0.8015(3)
B1_3 B 0.2948(6) 0.2580(6) 0.2522(5)
W1_3 W 0.34834(2) 0.14525(2) 0.31934(2)
W2_3 W 0.26158(2) 0.11858(2) 0.22258(2)
W3_3 W 0.20839(2) 0.23368(3) 0.14540(2)
W4_3 W 0.19176(2) 0.34171(2) 0.30789(2)
W5_3 W 0.15765(2) 0.21343(2) 0.27557(2)
W6_3 W 0.24130(3) 0.23575(3) 0.37509(2)
W7_3 W 0.33348(2) 0.39210(2) 0.28245(2)
W8_3 W 0.38225(3) 0.28878(3) 0.35359(2)
W9_3 W 0.38872(2) 0.16474(2) 0.19987(2)
W10_3 W 0.42892(2) 0.30734(2) 0.23539(2)
W11_3 W 0.23838(2) 0.36416(2) 0.17660(2)
W12_3 W 0.33619(3) 0.28278(2) 0.12672(2)
Cu3_3 Cu 0.54716(7) 0.12601(7) 0.17219(6)
O1_3 O 0.3152(3) 0.1979(3) 0.2487(3)
O2_3 O 0.3383(4) 0.2954(3) 0.2713(3)
O3_3 O 0.2427(3) 0.2618(3) 0.2863(3)
O4_3 O 0.2758(3) 0.2769(3) 0.1967(3)
O5_3 O 0.4288(3) 0.2292(4) 0.2253(3)
O6_3 O 0.3103(4) 0.2767(4) 0.3787(3)
O7_3 O 0.2381(4) 0.1657(4) 0.1674(3)
O8_3 O 0.2698(4) 0.2458(4) 0.1019(3)
O9_3 O 0.2854(4) 0.1752(4) 0.3549(3)
O10_3 O 0.1952(3) 0.3572(3) 0.2369(3)
O11_3 O 0.3324(4) 0.1110(3) 0.1892(3)
O12_3 O 0.2965(4) 0.3944(4) 0.2183(3)
O13_3 O 0.2979(4) 0.0949(4) 0.2841(3)
O14_3 O 0.3889(4) 0.3136(4) 0.1704(3)
O15_3 O 0.4038(3) 0.3830(3) 0.2499(3)
O16_3 O 0.2048(4) 0.3058(3) 0.3708(3)
O17_3 O 0.4428(4) 0.2978(3) 0.3068(3)
O18_3 O 0.3603(4) 0.2110(4) 0.1488(3)
O19_3 O 0.4007(4) 0.1326(4) 0.2663(3)
O20_3 O 0.2631(4) 0.3757(4) 0.3115(3)
O21_3 O 0.1635(4) 0.2336(4) 0.2068(3)
O22_3 O 0.1758(4) 0.2027(4) 0.3468(3)
O23_3 O 0.1352(4) 0.2873(4) 0.2932(3)
O24_3 O 0.2953(4) 0.3499(4) 0.1261(3)
O25_3 O 0.1917(4) 0.3125(4) 0.1417(3)
O26_3 O 0.3872(4) 0.2098(4) 0.3389(3)
O27_3 O 0.2029(4) 0.1494(4) 0.2614(3)
O28_3 O 0.3358(4) 0.4630(4) 0.2952(4)
O29_3 O 0.4406(3) 0.1326(4) 0.1669(3)
O31_3 O 0.4207(5) 0.2909(5) 0.4066(4)
O32_3 O 0.3728(4) 0.0982(4) 0.3633(4)
O33_3 O 0.0931(4) 0.1833(4) 0.2769(4)
O34_3 O 0.4951(4) 0.3224(4) 0.2149(4)
O35_3 O 0.3708(4) 0.2894(4) 0.0704(4)
O36_3 O 0.2297(4) 0.2189(4) 0.4377(4)
O37_3 O 0.3680(4) 0.3650(4) 0.3449(3)
O38_3 O 0.2137(4) 0.4253(4) 0.1527(3)
O39_3 O 0.2328(4) 0.0572(4) 0.2055(4)
O40_3 O 0.1600(4) 0.2126(4) 0.1020(3)
O46_3 O 0.5417(4) 0.0789(4) 0.0275(4)
O47_3 O 0.5405(4) 0.0779(4) 0.1116(3)
O48_3 O 0.5221(4) 0.0661(4) 0.2190(3)
N3_3 N 0.5653(4) 0.1880(4) 0.1220(4)
H3_3 H 0.6021 0.1991 0.1268
N4_3 N 0.5450(4) 0.1746(4) 0.2349(4)
H4_3 H 0.5142 0.1980 0.2321
C11_3 C 0.5458(5) 0.1031(6) 0.0701(5)
C12_3 C 0.5588(5) 0.1664(6) 0.0705(5)
H19_3 H 0.5944 0.1729 0.0514
C13_3 C 0.5120(7) 0.2034(7) 0.0462(6)
H20_3 H 0.5195 0.2103 0.0096
H21_3 H 0.4749 0.1855 0.0498
C14_3 C 0.5145(8) 0.2500(7) 0.0725(6)
H22_3 H 0.4780 0.2693 0.0713
H23_3 H 0.5431 0.2750 0.0577
C15_3 C 0.5292(6) 0.2364(6) 0.1262(5)
H24_3 H 0.5490 0.2679 0.1426
H25_3 H 0.4953 0.2275 0.1463
C16_3 C 0.5218(6) 0.0799(6) 0.2650(6)
C17_3 C 0.5362(6) 0.1381(6) 0.2796(5)
H26_3 H 0.5056 0.1539 0.3011
C18_3 C 0.5929(6) 0.1422(6) 0.3094(6)
H27_3 H 0.5877 0.1337 0.3461
H28_3 H 0.6212 0.1165 0.2950
C19_3 C 0.6096(8) 0.2026(8) 0.3016(7)
H29_3 H 0.6498 0.2084 0.3085
H30_3 H 0.5874 0.2279 0.3234
C20_3 C 0.5959(6) 0.2110(7) 0.2444(6)
H31_3 H 0.5875 0.2507 0.2371
H32_3 H 0.6276 0.1990 0.2228
O49_3 O 0.6362(4) 0.0904(5) 0.1889(4)
O50_3 O 0.1523(4) 0.3955(4) 0.3280(3)
H33_3 H 0.641631 0.0551855 0.169507
H34_3 H 0.664813 0.118087 0.178295
Cu1_3 Cu 0.50564(7) 0.84164(7) 0.14080(6)
O30_3 O 0.6045(4) 0.8477(4) 0.1720(3)
O41_3 O 0.4937(4) 0.8909(4) 0.2002(4)
O42_3 O 0.5201(4) 0.9043(4) 0.0942(4)
O43_3 O 0.5226(4) 0.9241(4) 0.0114(4)
N1_3 N 0.5145(5) 0.7947(5) 0.0790(4)
H1_3 H 0.4794 0.7802 0.0718
N2_3 N 0.4851(5) 0.7827(5) 0.1897(4)
H2_3 H 0.5105 0.7537 0.1856
C1_3 C 0.5224(6) 0.8906(6) 0.0460(6)
C2_3 C 0.5297(6) 0.8329(6) 0.0339(5)
H5_3 H 0.5066 0.8229 0.0034
C3_3 C 0.5916(8) 0.8181(8) 0.0240(7)
H6_3 H 0.6165 0.8385 0.0477
C4_3 C 0.5938(7) 0.7512(7) 0.0345(6)
H8_3 H 0.5802 0.7301 0.0045
H9_3 H 0.6322 0.7389 0.0428
C5_3 C 0.5558(7) 0.7439(7) 0.0791(6)
H10_3 H 0.5776 0.7431 0.1112
H11_3 H 0.5349 0.7084 0.0761
C6_3 C 0.4915(5) 0.8659(6) 0.2428(6)
C7_3 C 0.4896(6) 0.8019(6) 0.2412(5)
H12_3 H 0.5239 0.7860 0.2576
C8_3 C 0.4373(8) 0.7840(9) 0.2710(7)
H13_3 H 0.4421 0.7469 0.2871
H14_3 H 0.4271 0.8118 0.2974
C9_3 C 0.4274(8) 0.7584(9) 0.1828(7)
H15_3 H 0.4282 0.7171 0.1839
H16_3 H 0.4106 0.7705 0.1500
C10_3 C 0.3951(14) 0.782(3) 0.2283(11)
H17_3 H 0.3810 0.8203 0.2206
H18_3 H 0.3656 0.7512 0.2395
W13_3 W 0.65829(2) 0.80824(2) 0.19211(2)
Cu1_4 Cu 0.49436(7) 0.15836(7) 0.64080(6)
O30_4 O 0.3955(4) 0.1523(4) 0.6720(3)
O41_4 O 0.5063(4) 0.1091(4) 0.7002(4)
O42_4 O 0.4799(4) 0.0957(4) 0.5942(4)
O43_4 O 0.4774(4) 0.0759(4) 0.5114(4)
N1_4 N 0.4855(5) 0.2053(5) 0.5790(4)
H1_4 H 0.5206 0.2198 0.5718
N2_4 N 0.5149(5) 0.2173(5) 0.6897(4)
H2_4 H 0.4895 0.2463 0.6856
C1_4 C 0.4776(6) 0.1094(6) 0.5460(6)
C2_4 C 0.4703(6) 0.1671(6) 0.5339(5)
H5_4 H 0.4934 0.1771 0.5034
C3_4 C 0.4084(8) 0.1819(8) 0.5240(7)
H6_4 H 0.3835 0.1615 0.5477
H7_3 H 0.3975 0.1731 0.4885
C4_4 C 0.4062(7) 0.2488(7) 0.5345(6)
H8_4 H 0.4198 0.2699 0.5045
H9_4 H 0.3678 0.2611 0.5428
C5_4 C 0.4442(7) 0.2561(7) 0.5791(6)
H10_4 H 0.4224 0.2569 0.6112
H11_4 H 0.4651 0.2916 0.5761
C6_4 C 0.5085(5) 0.1341(6) 0.7428(6)
C7_4 C 0.5104(6) 0.1981(6) 0.7412(5)
H12_4 H 0.4761 0.2140 0.7576
C8_4 C 0.5627(8) 0.2160(9) 0.7710(7)
H13_4 H 0.5579 0.2531 0.7871
H14_4 H 0.5729 0.1882 0.7974
C9_4 C 0.5726(8) 0.2416(9) 0.6828(7)
H15_4 H 0.5718 0.2829 0.6839
H16_4 H 0.5894 0.2295 0.6500
C10_4 C 0.6049(14) 0.218(3) 0.7283(11)
H17_4 H 0.6190 0.1797 0.7206
H18_4 H 0.6344 0.2488 0.7395
W13_4 W 0.34171(2) 0.19176(2) 0.69211(2)
B1_4 B 0.7052(6) 0.7420(6) 0.7522(5)
W1_4 W 0.65166(2) 0.85475(2) 0.81934(2)
W2_4 W 0.73842(2) 0.88142(2) 0.72258(2)
W3_4 W 0.79161(2) 0.76632(3) 0.64540(2)
W4_4 W 0.80824(2) 0.65829(2) 0.80789(2)
W5_4 W 0.84235(2) 0.78657(2) 0.77557(2)
W6_4 W 0.75870(3) 0.76425(3) 0.87509(2)
W7_4 W 0.66652(2) 0.60790(2) 0.78245(2)
W8_4 W 0.61775(3) 0.71122(3) 0.85359(2)
W9_4 W 0.61128(2) 0.83526(2) 0.69987(2)
W10_4 W 0.57108(2) 0.69266(2) 0.73539(2)
W11_4 W 0.76162(2) 0.63584(2) 0.67660(2)
W12_4 W 0.66381(3) 0.71722(2) 0.62672(2)
Cu3_4 Cu 0.45284(7) 0.87399(7) 0.67219(6)
O1_4 O 0.6848(3) 0.8021(3) 0.7487(3)
O2_4 O 0.6617(4) 0.7046(3) 0.7713(3)
O3_4 O 0.7573(3) 0.7382(3) 0.7863(3)
O4_4 O 0.7242(3) 0.7231(3) 0.6967(3)
O5_4 O 0.5712(3) 0.7708(4) 0.7253(3)
O6_4 O 0.6897(4) 0.7233(4) 0.8787(3)
O7_4 O 0.7619(4) 0.8343(4) 0.6674(3)
O8_4 O 0.7302(4) 0.7542(4) 0.6019(3)
O9_4 O 0.7146(4) 0.8248(4) 0.8549(3)
O10_4 O 0.8048(3) 0.6428(3) 0.7369(3)
O11_4 O 0.6676(4) 0.8890(3) 0.6892(3)
O12_4 O 0.7035(4) 0.6056(4) 0.7183(3)
O13_4 O 0.7021(4) 0.9051(4) 0.7841(3)
O14_4 O 0.6111(4) 0.6864(4) 0.6704(3)
O15_4 O 0.5962(3) 0.6170(3) 0.7499(3)
O16_4 O 0.7952(4) 0.6942(3) 0.8708(3)
O17_4 O 0.5572(4) 0.7022(3) 0.8068(3)
O18_4 O 0.6397(4) 0.7890(4) 0.6488(3)
O19_4 O 0.5993(4) 0.8674(4) 0.7663(3)
O20_4 O 0.7369(4) 0.6243(4) 0.8115(3)
O21_4 O 0.8365(4) 0.7664(4) 0.7068(3)
O22_4 O 0.8242(4) 0.7973(4) 0.8468(3)
O23_4 O 0.8648(4) 0.7127(4) 0.7932(3)
O24_4 O 0.7047(4) 0.6501(4) 0.6261(3)
O25_4 O 0.8083(4) 0.6875(4) 0.6417(3)
O26_4 O 0.6128(4) 0.7902(4) 0.8389(3)
O27_4 O 0.7971(4) 0.8506(4) 0.7614(3)
O28_4 O 0.6642(4) 0.5370(4) 0.7952(4)
O29_4 O 0.5594(3) 0.8674(4) 0.6669(3)
O31_4 O 0.5793(5) 0.7091(5) 0.9066(4)
O32_4 O 0.6272(4) 0.9018(4) 0.8633(4)
O33_4 O 0.9069(4) 0.8167(4) 0.7769(4)
O34_4 O 0.5049(4) 0.6776(4) 0.7149(4)
O35_4 O 0.6292(4) 0.7106(4) 0.5704(4)
O36_4 O 0.7703(4) 0.7811(4) 0.9377(4)
O37_4 O 0.6320(4) 0.6350(4) 0.8449(3)
O38_4 O 0.7863(4) 0.5747(4) 0.6527(3)
O39_4 O 0.7672(4) 0.9428(4) 0.7055(4)
O40_4 O 0.8400(4) 0.7874(4) 0.6020(3)
O46_4 O 0.4583(4) 0.9211(4) 0.5275(4)
O47_4 O 0.4595(4) 0.9221(4) 0.6116(3)
O48_4 O 0.4779(4) 0.9339(4) 0.7190(3)
N3_4 N 0.4347(4) 0.8120(4) 0.6220(4)
H3_4 H 0.3979 0.8009 0.6268
N4_4 N 0.4550(4) 0.8254(4) 0.7349(4)
H4_4 H 0.4858 0.8020 0.7321
C11_4 C 0.4542(5) 0.8969(6) 0.5701(5)
C12_4 C 0.4412(5) 0.8336(6) 0.5705(5)
H19_4 H 0.4056 0.8271 0.5514
C13_4 C 0.4880(7) 0.7966(7) 0.5462(6)
H20_4 H 0.4805 0.7897 0.5096
H21_4 H 0.5251 0.8145 0.5498
C14_4 C 0.4855(8) 0.7500(7) 0.5725(6)
H22_4 H 0.5220 0.7307 0.5713
H23_4 H 0.4569 0.7250 0.5577
C15_4 C 0.4708(6) 0.7636(6) 0.6262(5)
H24_4 H 0.4510 0.7321 0.6426
H25_4 H 0.5047 0.7725 0.6463
C16_4 C 0.4782(6) 0.9201(6) 0.7650(6)
C17_4 C 0.4638(6) 0.8619(6) 0.7796(5)
H26_4 H 0.4944 0.8461 0.8011
C18_4 C 0.4071(6) 0.8578(6) 0.8094(6)
H27_4 H 0.4123 0.8663 0.8461
H28_4 H 0.3788 0.8835 0.7950
C19_4 C 0.3904(8) 0.7974(8) 0.8016(7)
H29_4 H 0.3502 0.7916 0.8085
H30_4 H 0.4126 0.7721 0.8234
C20_4 C 0.4041(6) 0.7890(7) 0.7444(6)
H31_4 H 0.4125 0.7493 0.7371
H32_4 H 0.3724 0.8010 0.7228
O49_4 O 0.3638(4) 0.9096(5) 0.6889(4)
O50_4 O 0.8477(4) 0.6045(4) 0.8280(3)
H33_4 H 0.358369 0.944815 0.669507
H34_4 H 0.335187 0.881913 0.678295
Cu1_5 Cu 0.15836(7) 0.49436(7) 0.35920(6)
O41_5 O 0.1091(4) 0.5063(4) 0.2998(4)
O42_5 O 0.0957(4) 0.4799(4) 0.4058(4)
O43_5 O 0.0759(4) 0.4774(4) 0.4886(4)
O44_3 O 0.1107(4) 0.5092(4) 0.2157(4)
N1_5 N 0.2053(5) 0.4855(5) 0.4210(4)
H1_5 H 0.2198 0.5206 0.4282
N2_5 N 0.2173(5) 0.5149(5) 0.3103(4)
H2_5 H 0.2463 0.4895 0.3144
C1_5 C 0.1094(6) 0.4776(6) 0.4540(6)
C2_5 C 0.1671(6) 0.4703(6) 0.4661(5)
H5_5 H 0.1771 0.4934 0.4966
C3_5 C 0.1819(8) 0.4084(8) 0.4760(7)
H6_5 H 0.1615 0.3835 0.4523
H7_4 H 0.1731 0.3975 0.5115
C4_5 C 0.2488(7) 0.4062(7) 0.4655(6)
H8_5 H 0.2699 0.4198 0.4955
H9_5 H 0.2611 0.3678 0.4572
C5_5 C 0.2561(7) 0.4442(7) 0.4209(6)
H10_5 H 0.2569 0.4224 0.3888
H11_5 H 0.2916 0.4651 0.4239
C6_5 C 0.1341(6) 0.5085(5) 0.2572(6)
C7_5 C 0.1981(6) 0.5104(6) 0.2588(5)
H12_5 H 0.2140 0.4761 0.2424
C8_5 C 0.2160(9) 0.5627(8) 0.2290(7)
H13_5 H 0.2531 0.5579 0.2129
H14_5 H 0.1882 0.5729 0.2026
C9_5 C 0.2416(9) 0.5726(8) 0.3172(7)
H15_5 H 0.2829 0.5718 0.3161
H16_5 H 0.2295 0.5894 0.3500
C10_5 C 0.218(3) 0.6049(14) 0.2717(11)
H17_5 H 0.1797 0.6190 0.2794
H18_5 H 0.2488 0.6344 0.2605
Cu4_3 Cu 0.03033(7) 0.49840(7) 0.21860(6)
O51_3 O 0.0092(4) 0.3893(4) 0.4657(4)
B1_5 B 0.7420(6) 0.7052(6) 0.2478(5)
W1_5 W 0.85475(2) 0.65166(2) 0.18066(2)
W2_5 W 0.88142(2) 0.73842(2) 0.27742(2)
W3_5 W 0.76632(3) 0.79161(2) 0.35460(2)
W5_5 W 0.78657(2) 0.84235(2) 0.22443(2)
W6_5 W 0.76425(3) 0.75870(3) 0.12491(2)
W7_5 W 0.60790(2) 0.66652(2) 0.21755(2)
W8_5 W 0.71122(3) 0.61775(3) 0.14641(2)
W9_5 W 0.83526(2) 0.61128(2) 0.30013(2)
W10_5 W 0.69266(2) 0.57108(2) 0.26461(2)
W11_5 W 0.63584(2) 0.76162(2) 0.32340(2)
W12_5 W 0.71722(2) 0.66381(3) 0.37328(2)
Cu2_3 Cu 0.99840(7) 0.46967(7) 0.46860(6)
Cu3_5 Cu 0.87399(7) 0.45284(7) 0.32781(6)
O1_5 O 0.8021(3) 0.6848(3) 0.2513(3)
O2_5 O 0.7046(3) 0.6617(4) 0.2287(3)
O3_5 O 0.7382(3) 0.7573(3) 0.2137(3)
O4_5 O 0.7231(3) 0.7242(3) 0.3033(3)
O5_5 O 0.7708(4) 0.5712(3) 0.2747(3)
O6_5 O 0.7233(4) 0.6897(4) 0.1213(3)
O7_5 O 0.8343(4) 0.7619(4) 0.3326(3)
O8_5 O 0.7542(4) 0.7302(4) 0.3981(3)
O9_5 O 0.8248(4) 0.7146(4) 0.1451(3)
O10_5 O 0.6428(3) 0.8048(3) 0.2631(3)
O11_5 O 0.8890(3) 0.6676(4) 0.3108(3)
O12_5 O 0.6056(4) 0.7035(4) 0.2817(3)
O13_5 O 0.9051(4) 0.7021(4) 0.2159(3)
O14_5 O 0.6864(4) 0.6111(4) 0.3296(3)
O15_5 O 0.6170(3) 0.5962(3) 0.2501(3)
O16_5 O 0.6942(3) 0.7952(4) 0.1292(3)
O17_5 O 0.7022(3) 0.5572(4) 0.1932(3)
O18_5 O 0.7890(4) 0.6397(4) 0.3512(3)
O19_5 O 0.8674(4) 0.5993(4) 0.2337(3)
O20_5 O 0.6243(4) 0.7369(4) 0.1885(3)
O21_5 O 0.7664(4) 0.8365(4) 0.2932(3)
O22_5 O 0.7973(4) 0.8242(4) 0.1532(3)
O23_5 O 0.7127(4) 0.8648(4) 0.2068(3)
O24_5 O 0.6501(4) 0.7047(4) 0.3739(3)
O25_5 O 0.6875(4) 0.8083(4) 0.3583(3)
O26_5 O 0.7902(4) 0.6128(4) 0.1611(3)
O27_5 O 0.8506(4) 0.7971(4) 0.2386(3)
O28_5 O 0.5370(4) 0.6642(4) 0.2048(4)
O29_5 O 0.8674(4) 0.5594(3) 0.3331(3)
O31_5 O 0.7091(5) 0.5793(5) 0.0934(4)
O32_5 O 0.9018(4) 0.6272(4) 0.1367(4)
O33_5 O 0.8167(4) 0.9069(4) 0.2231(4)
O34_5 O 0.6776(4) 0.5049(4) 0.2851(4)
O35_5 O 0.7106(4) 0.6292(4) 0.4296(4)
O36_5 O 0.7811(4) 0.7703(4) 0.0623(4)
O37_5 O 0.6350(4) 0.6320(4) 0.1551(3)
O38_5 O 0.5747(4) 0.7863(4) 0.3473(3)
O39_5 O 0.9428(4) 0.7672(4) 0.2945(4)
O40_5 O 0.7874(4) 0.8400(4) 0.3980(3)
O45_3 O 0.9525(4) 0.4890(4) 0.1985(3)
O46_5 O 0.9211(4) 0.4583(4) 0.4725(4)
O47_5 O 0.9221(4) 0.4595(4) 0.3884(3)
O48_5 O 0.9339(4) 0.4779(4) 0.2810(3)
N3_5 N 0.8120(4) 0.4347(4) 0.3780(4)
H3_5 H 0.8009 0.3979 0.3732
N4_5 N 0.8254(4) 0.4550(4) 0.2651(4)
H4_5 H 0.8020 0.4858 0.2679
C11_5 C 0.8969(6) 0.4542(5) 0.4299(5)
C12_5 C 0.8336(6) 0.4412(5) 0.4295(5)
H19_5 H 0.8271 0.4056 0.4486
C13_5 C 0.7966(7) 0.4880(7) 0.4538(6)
H20_5 H 0.7897 0.4805 0.4904
H21_5 H 0.8145 0.5251 0.4502
C14_5 C 0.7500(7) 0.4855(8) 0.4275(6)
H22_5 H 0.7307 0.5220 0.4287
H23_5 H 0.7250 0.4569 0.4423
C15_5 C 0.7636(6) 0.4708(6) 0.3738(5)
H24_5 H 0.7321 0.4510 0.3574
H25_5 H 0.7725 0.5047 0.3537
C16_5 C 0.9201(6) 0.4782(6) 0.2350(6)
C17_5 C 0.8619(6) 0.4638(6) 0.2204(5)
H26_5 H 0.8461 0.4944 0.1989
C18_5 C 0.8578(6) 0.4071(6) 0.1906(6)
H27_5 H 0.8663 0.4123 0.1539
H28_5 H 0.8835 0.3788 0.2050
C19_5 C 0.7974(8) 0.3904(8) 0.1984(7)
H29_5 H 0.7916 0.3502 0.1915
H30_5 H 0.7721 0.4126 0.1766
C20_5 C 0.7890(7) 0.4041(6) 0.2556(6)
H31_5 H 0.7493 0.4125 0.2629
H32_5 H 0.8010 0.3724 0.2772
O49_5 O 0.9096(5) 0.3638(4) 0.3111(4)
O52_3 O 0.9890(4) 0.5475(4) 0.4485(3)
H33_5 H 0.944815 0.358369 0.330493
H34_5 H 0.881913 0.335187 0.321705
B1_6 B 0.2580(6) 0.2948(6) 0.7478(5)
W1_6 W 0.14525(2) 0.34834(2) 0.68066(2)
W2_6 W 0.11858(2) 0.26158(2) 0.77742(2)
W3_6 W 0.23368(3) 0.20839(2) 0.85460(2)
W5_6 W 0.21343(2) 0.15765(2) 0.72443(2)
W6_6 W 0.23575(3) 0.24130(3) 0.62491(2)
W7_6 W 0.39210(2) 0.33348(2) 0.71755(2)
W8_6 W 0.28878(3) 0.38225(3) 0.64641(2)
W9_6 W 0.16474(2) 0.38872(2) 0.80013(2)
W10_6 W 0.30734(2) 0.42892(2) 0.76461(2)
W11_6 W 0.36416(2) 0.23838(2) 0.82340(2)
W12_6 W 0.28278(2) 0.33619(3) 0.87328(2)
Cu2_4 Cu 0.00160(7) 0.53033(7) 0.96860(6)
Cu3_6 Cu 0.12601(7) 0.54716(7) 0.82781(6)
O1_6 O 0.1979(3) 0.3152(3) 0.7513(3)
O2_6 O 0.2954(3) 0.3383(4) 0.7287(3)
O3_6 O 0.2618(3) 0.2427(3) 0.7137(3)
O4_6 O 0.2769(3) 0.2758(3) 0.8033(3)
O5_6 O 0.2292(4) 0.4288(3) 0.7747(3)
O6_6 O 0.2767(4) 0.3103(4) 0.6213(3)
O7_6 O 0.1657(4) 0.2381(4) 0.8326(3)
O8_6 O 0.2458(4) 0.2698(4) 0.8981(3)
O9_6 O 0.1752(4) 0.2854(4) 0.6451(3)
O10_6 O 0.3572(3) 0.1952(3) 0.7631(3)
O11_6 O 0.1110(3) 0.3324(4) 0.8108(3)
O12_6 O 0.3944(4) 0.2965(4) 0.7817(3)
O13_6 O 0.0949(4) 0.2979(4) 0.7159(3)
O14_6 O 0.3136(4) 0.3889(4) 0.8296(3)
O15_6 O 0.3830(3) 0.4038(3) 0.7501(3)
O16_6 O 0.3058(3) 0.2048(4) 0.6292(3)
O17_6 O 0.2978(3) 0.4428(4) 0.6932(3)
O18_6 O 0.2110(4) 0.3603(4) 0.8512(3)
O19_6 O 0.1326(4) 0.4007(4) 0.7337(3)
O20_6 O 0.3757(4) 0.2631(4) 0.6885(3)
O21_6 O 0.2336(4) 0.1635(4) 0.7932(3)
O22_6 O 0.2027(4) 0.1758(4) 0.6532(3)
O23_6 O 0.2873(4) 0.1352(4) 0.7068(3)
O24_6 O 0.3499(4) 0.2953(4) 0.8739(3)
O25_6 O 0.3125(4) 0.1917(4) 0.8583(3)
O26_6 O 0.2098(4) 0.3872(4) 0.6611(3)
O27_6 O 0.1494(4) 0.2029(4) 0.7386(3)
O28_6 O 0.4630(4) 0.3358(4) 0.7048(4)
O29_6 O 0.1326(4) 0.4406(3) 0.8331(3)
O31_6 O 0.2909(5) 0.4207(5) 0.5934(4)
O32_6 O 0.0982(4) 0.3728(4) 0.6367(4)
O33_6 O 0.1833(4) 0.0931(4) 0.7231(4)
O34_6 O 0.3224(4) 0.4951(4) 0.7851(4)
O35_6 O 0.2894(4) 0.3708(4) 0.9296(4)
O36_6 O 0.2189(4) 0.2297(4) 0.5623(4)
O37_6 O 0.3650(4) 0.3680(4) 0.6551(3)
O38_6 O 0.4253(4) 0.2137(4) 0.8473(3)
O39_6 O 0.0572(4) 0.2328(4) 0.7945(4)
O40_6 O 0.2126(4) 0.1600(4) 0.8980(3)
O45_4 O 0.0475(4) 0.5110(4) 0.6985(3)
O46_6 O 0.0789(4) 0.5417(4) 0.9725(4)
O47_6 O 0.0779(4) 0.5405(4) 0.8884(3)
O48_6 O 0.0661(4) 0.5221(4) 0.7810(3)
N3_6 N 0.1880(4) 0.5653(4) 0.8780(4)
H3_6 H 0.1991 0.6021 0.8732
N4_6 N 0.1746(4) 0.5450(4) 0.7651(4)
H4_6 H 0.1980 0.5142 0.7679
C11_6 C 0.1031(6) 0.5458(5) 0.9299(5)
C12_6 C 0.1664(6) 0.5588(5) 0.9295(5)
H19_6 H 0.1729 0.5944 0.9486
C13_6 C 0.2034(7) 0.5120(7) 0.9538(6)
H20_6 H 0.2103 0.5195 0.9904
H21_6 H 0.1855 0.4749 0.9502
C14_6 C 0.2500(7) 0.5145(8) 0.9275(6)
H22_6 H 0.2693 0.4780 0.9287
H23_6 H 0.2750 0.5431 0.9423
C15_6 C 0.2364(6) 0.5292(6) 0.8738(5)
H24_6 H 0.2679 0.5490 0.8574
H25_6 H 0.2275 0.4953 0.8537
C16_6 C 0.0799(6) 0.5218(6) 0.7350(6)
C17_6 C 0.1381(6) 0.5362(6) 0.7204(5)
H26_6 H 0.1539 0.5056 0.6989
C18_6 C 0.1422(6) 0.5929(6) 0.6906(6)
H27_6 H 0.1337 0.5877 0.6539
H28_6 H 0.1165 0.6212 0.7050
C19_6 C 0.2026(8) 0.6096(8) 0.6984(7)
H29_6 H 0.2084 0.6498 0.6915
H30_6 H 0.2279 0.5874 0.6766
C20_6 C 0.2110(7) 0.5959(6) 0.7556(6)
H31_6 H 0.2507 0.5875 0.7629
H32_6 H 0.1990 0.6276 0.7772
O49_6 O 0.0904(5) 0.6362(4) 0.8111(4)
O52_4 O 0.0110(4) 0.4525(4) 0.9485(3)
H33_6 H 0.0551855 0.641631 0.830493
H34_6 H 0.118087 0.664813 0.821705
Cu1_6 Cu 0.84164(7) 0.50564(7) 0.85920(6)
O41_6 O 0.8909(4) 0.4937(4) 0.7998(4)
O42_6 O 0.9043(4) 0.5201(4) 0.9058(4)
O43_6 O 0.9241(4) 0.5226(4) 0.9886(4)
O44_4 O 0.8893(4) 0.4908(4) 0.7157(4)
N1_6 N 0.7947(5) 0.5145(5) 0.9210(4)
H1_6 H 0.7802 0.4794 0.9282
N2_6 N 0.7827(5) 0.4851(5) 0.8103(4)
H2_6 H 0.7537 0.5105 0.8144
C1_6 C 0.8906(6) 0.5224(6) 0.9540(6)
C2_6 C 0.8329(6) 0.5297(6) 0.9661(5)
H5_6 H 0.8229 0.5066 0.9966
C3_6 C 0.8181(8) 0.5916(8) 0.9760(7)
H6_6 H 0.8385 0.6165 0.9523
C4_6 C 0.7512(7) 0.5938(7) 0.9655(6)
H8_6 H 0.7301 0.5802 0.9955
H9_6 H 0.7389 0.6322 0.9572
C5_6 C 0.7439(7) 0.5558(7) 0.9209(6)
H10_6 H 0.7431 0.5776 0.8888
H11_6 H 0.7084 0.5349 0.9239
C6_6 C 0.8659(6) 0.4915(5) 0.7572(6)
C7_6 C 0.8019(6) 0.4896(6) 0.7588(5)
H12_6 H 0.7860 0.5239 0.7424
C8_6 C 0.7840(9) 0.4373(8) 0.7290(7)
H13_6 H 0.7469 0.4421 0.7129
H14_6 H 0.8118 0.4271 0.7026
C9_6 C 0.7584(9) 0.4274(8) 0.8172(7)
H15_6 H 0.7171 0.4282 0.8161
H16_6 H 0.7705 0.4106 0.8500
C10_6 C 0.782(3) 0.3951(14) 0.7717(11)
H17_6 H 0.8203 0.3810 0.7794
H18_6 H 0.7512 0.3656 0.7605
Cu4_4 Cu 0.96967(7) 0.50160(7) 0.71860(6)
O51_4 O 0.9908(4) 0.6107(4) 0.9657(4)
B1_7 B 0.2052(6) 0.7580(6) 0.4978(5)
W1_7 W 0.15166(2) 0.64525(2) 0.43066(2)
W2_7 W 0.23842(2) 0.61858(2) 0.52742(2)
W3_7 W 0.29161(2) 0.73368(3) 0.60460(2)
W5_7 W 0.34235(2) 0.71343(2) 0.47443(2)
W6_7 W 0.25870(3) 0.73575(3) 0.37491(2)
W7_7 W 0.16652(2) 0.89210(2) 0.46755(2)
W8_7 W 0.11775(3) 0.78878(3) 0.39641(2)
W9_7 W 0.11128(2) 0.66474(2) 0.55013(2)
W10_7 W 0.07108(2) 0.80734(2) 0.51461(2)
W11_7 W 0.26162(2) 0.86416(2) 0.57340(2)
W12_7 W 0.16381(3) 0.78278(2) 0.62328(2)
O1_7 O 0.1848(3) 0.6979(3) 0.5013(3)
O2_7 O 0.1617(4) 0.7954(3) 0.4787(3)
O3_7 O 0.2573(3) 0.7618(3) 0.4637(3)
O4_7 O 0.2242(3) 0.7769(3) 0.5533(3)
O5_7 O 0.0712(3) 0.7292(4) 0.5247(3)
O6_7 O 0.1897(4) 0.7767(4) 0.3713(3)
O7_7 O 0.2619(4) 0.6657(4) 0.5826(3)
O8_7 O 0.2302(4) 0.7458(4) 0.6481(3)
O9_7 O 0.2146(4) 0.6752(4) 0.3951(3)
O10_7 O 0.3048(3) 0.8572(3) 0.5131(3)
O11_7 O 0.1676(4) 0.6110(3) 0.5608(3)
O12_7 O 0.2035(4) 0.8944(4) 0.5317(3)
O13_7 O 0.2021(4) 0.5949(4) 0.4659(3)
O14_7 O 0.1111(4) 0.8136(4) 0.5796(3)
O15_7 O 0.0962(3) 0.8830(3) 0.5001(3)
O16_7 O 0.2952(4) 0.8058(3) 0.3792(3)
O17_7 O 0.0572(4) 0.7978(3) 0.4432(3)
O18_7 O 0.1397(4) 0.7110(4) 0.6012(3)
O19_7 O 0.0993(4) 0.6326(4) 0.4837(3)
O20_7 O 0.2369(4) 0.8757(4) 0.4385(3)
O21_7 O 0.3365(4) 0.7336(4) 0.5432(3)
O22_7 O 0.3242(4) 0.7027(4) 0.4032(3)
O23_7 O 0.3648(4) 0.7873(4) 0.4568(3)
O24_7 O 0.2047(4) 0.8499(4) 0.6239(3)
O25_7 O 0.3083(4) 0.8125(4) 0.6083(3)
O26_7 O 0.1128(4) 0.7098(4) 0.4111(3)
O27_7 O 0.2971(4) 0.6494(4) 0.4886(3)
O28_7 O 0.1642(4) 0.9630(4) 0.4548(4)
O29_7 O 0.0594(3) 0.6326(4) 0.5831(3)
O31_7 O 0.0793(5) 0.7909(5) 0.3434(4)
O32_7 O 0.1272(4) 0.5982(4) 0.3867(4)
O33_7 O 0.4069(4) 0.6833(4) 0.4731(4)
O34_7 O 0.0049(4) 0.8224(4) 0.5351(4)
O35_7 O 0.1292(4) 0.7894(4) 0.6796(4)
O36_7 O 0.2703(4) 0.7189(4) 0.3123(4)
O37_7 O 0.1320(4) 0.8650(4) 0.4051(3)
O38_7 O 0.2863(4) 0.9253(4) 0.5973(3)
O39_7 O 0.2672(4) 0.5572(4) 0.5445(4)
O40_7 O 0.3400(4) 0.7126(4) 0.6480(3)
O41_7 O 0.0063(4) 0.3909(4) 0.5498(4)
H1_7 H 0.0206 0.2802 0.6782
N2_7 N 0.0149(5) 0.2827(5) 0.5603(4)
C6_7 C 0.0085(5) 0.3659(6) 0.5072(6)
C7_7 C 0.0104(6) 0.3019(6) 0.5088(5)
C8_7 C 0.0627(8) 0.2840(9) 0.4790(7)
H13_7 H 0.0579 0.2469 0.4629
H14_7 H 0.0729 0.3118 0.4526
C9_7 C 0.0726(8) 0.2584(9) 0.5672(7)
H15_7 H 0.0718 0.2171 0.5661
H16_7 H 0.0894 0.2705 0.6000
C10_7 C 0.1049(14) 0.282(3) 0.5217(11)
H17_7 H 0.1190 0.3203 0.5294
H18_7 H 0.1344 0.2512 0.5105
H21_7 H 0.0251 0.6855 0.7002
H22_7 H 0.0220 0.7693 0.6787
H25_7 H 0.0047 0.7275 0.6037
Cu1_7 Cu 0.99436(7) 0.34164(7) 0.60920(6)
Cu3_7 Cu 0.95284(7) 0.62601(7) 0.57781(6)
O42_7 O 0.9799(4) 0.4043(4) 0.6558(4)
O43_7 O 0.9774(4) 0.4241(4) 0.7386(4)
O46_7 O 0.9583(4) 0.5789(4) 0.7225(4)
O47_7 O 0.9595(4) 0.5779(4) 0.6384(3)
O48_7 O 0.9779(4) 0.5661(4) 0.5310(3)
N1_7 N 0.9855(5) 0.2947(5) 0.6710(4)
H2_7 H 0.9895 0.2537 0.5644
N3_7 N 0.9347(4) 0.6880(4) 0.6280(4)
H3_7 H 0.8979 0.6991 0.6232
N4_7 N 0.9550(4) 0.6746(4) 0.5151(4)
H4_7 H 0.9858 0.6980 0.5179
C1_7 C 0.9776(6) 0.3906(6) 0.7040(6)
C2_7 C 0.9703(6) 0.3329(6) 0.7161(5)
H5_7 H 0.9934 0.3229 0.7466
C3_7 C 0.9084(8) 0.3181(8) 0.7260(7)
H6_7 H 0.8835 0.3385 0.7023
H7_5 H 0.8975 0.3269 0.7615
C4_7 C 0.9062(7) 0.2512(7) 0.7155(6)
H8_7 H 0.9198 0.2301 0.7455
H9_7 H 0.8678 0.2389 0.7072
C5_7 C 0.9442(7) 0.2439(7) 0.6709(6)
H10_7 H 0.9224 0.2431 0.6388
H11_7 H 0.9651 0.2084 0.6739
H12_7 H 0.9761 0.2860 0.4924
C11_7 C 0.9542(5) 0.6031(6) 0.6799(5)
C12_7 C 0.9412(5) 0.6664(6) 0.6795(5)
H19_7 H 0.9056 0.6729 0.6986
C13_7 C 0.9880(7) 0.7034(7) 0.7038(6)
H20_7 H 0.9805 0.7103 0.7404
C14_7 C 0.9855(8) 0.7500(7) 0.6775(6)
H23_7 H 0.9569 0.7750 0.6923
C15_7 C 0.9708(6) 0.7364(6) 0.6238(5)
H24_7 H 0.9510 0.7679 0.6074
C16_7 C 0.9782(6) 0.5799(6) 0.4850(6)
C17_7 C 0.9638(6) 0.6381(6) 0.4704(5)
H26_7 H 0.9944 0.6539 0.4489
C18_7 C 0.9071(6) 0.6422(6) 0.4406(6)
H27_7 H 0.9123 0.6337 0.4039
H28_7 H 0.8788 0.6165 0.4550
C19_7 C 0.8904(8) 0.7026(8) 0.4484(7)
H29_7 H 0.8502 0.7084 0.4415
H30_7 H 0.9126 0.7279 0.4266
C20_7 C 0.9041(6) 0.7110(7) 0.5056(6)
H31_7 H 0.9125 0.7507 0.5129
H32_7 H 0.8724 0.6990 0.5272
O49_7 O 0.8638(4) 0.5904(5) 0.5611(4)
H33_7 H 0.858369 0.555185 0.580493
H34_7 H 0.835187 0.618087 0.571705
Cu1_8 Cu 0.00564(7) 0.65836(7) 0.10920(6)
Cu3_8 Cu 0.04716(7) 0.37399(7) 0.07781(6)
O42_8 O 0.0201(4) 0.5957(4) 0.1558(4)
O43_8 O 0.0226(4) 0.5759(4) 0.2386(4)
O46_8 O 0.0417(4) 0.4211(4) 0.2225(4)
O47_8 O 0.0405(4) 0.4221(4) 0.1384(3)
O48_8 O 0.0221(4) 0.4339(4) 0.0310(3)
N1_8 N 0.0145(5) 0.7053(5) 0.1710(4)
H2_8 H 0.0105 0.7463 0.0644
N3_8 N 0.0653(4) 0.3120(4) 0.1280(4)
H3_8 H 0.1021 0.3009 0.1232
N4_8 N 0.0450(4) 0.3254(4) 0.0151(4)
H4_8 H 0.0142 0.3020 0.0179
C1_8 C 0.0224(6) 0.6094(6) 0.2040(6)
C2_8 C 0.0297(6) 0.6671(6) 0.2161(5)
H5_8 H 0.0066 0.6771 0.2466
C3_8 C 0.0916(8) 0.6819(8) 0.2260(7)
H6_8 H 0.1165 0.6615 0.2023
H7_6 H 0.1025 0.6731 0.2615
C4_8 C 0.0938(7) 0.7488(7) 0.2155(6)
H8_8 H 0.0802 0.7699 0.2455
H9_8 H 0.1322 0.7611 0.2072
C5_8 C 0.0558(7) 0.7561(7) 0.1709(6)
H10_8 H 0.0776 0.7569 0.1388
H11_8 H 0.0349 0.7916 0.1739
C11_8 C 0.0458(5) 0.3969(6) 0.1799(5)
C12_8 C 0.0588(5) 0.3336(6) 0.1795(5)
H19_8 H 0.0944 0.3271 0.1986
C13_8 C 0.0120(7) 0.2966(7) 0.2038(6)
H20_8 H 0.0195 0.2897 0.2404
C14_8 C 0.0145(8) 0.2500(7) 0.1775(6)
H23_8 H 0.0431 0.2250 0.1923
C15_8 C 0.0292(6) 0.2636(6) 0.1238(5)
H24_8 H 0.0490 0.2321 0.1074
C20_8 C 0.0959(6) 0.2890(7) 0.0056(6)
H31_8 H 0.0875 0.2493 0.0129
H32_8 H 0.1276 0.3010 0.0272
O49_8 O 0.1362(4) 0.4096(5) 0.0611(4)
H33_8 H 0.141631 0.444815 0.0804933
H34_8 H 0.164813 0.381913 0.0717051
H12_8 H 0.0239 0.7140 0.9924
C16_8 C 0.0218(6) 0.4201(6) 0.9850(6)
C17_8 C 0.0362(6) 0.3619(6) 0.9704(5)
H26_8 H 0.0056 0.3461 0.9489
C18_8 C 0.0929(6) 0.3578(6) 0.9406(6)
H27_8 H 0.0877 0.3663 0.9039
H28_8 H 0.1212 0.3835 0.9550
C19_8 C 0.1096(8) 0.2974(8) 0.9484(7)
H29_8 H 0.1498 0.2916 0.9415
H30_8 H 0.0874 0.2721 0.9266
W2_8 W 0.76158(2) 0.38142(2) 0.02742(2)
W3_8 W 0.70839(2) 0.26632(3) 0.10460(2)
W9_8 W 0.88872(2) 0.33526(2) 0.05013(2)
W10_8 W 0.92892(2) 0.19266(2) 0.01461(2)
W11_8 W 0.73838(2) 0.13584(2) 0.07340(2)
W12_8 W 0.83619(3) 0.21722(2) 0.12328(2)
O1_8 O 0.8152(3) 0.3021(3) 0.0013(3)
O4_8 O 0.7758(3) 0.2231(3) 0.0533(3)
O5_8 O 0.9288(3) 0.2708(4) 0.0247(3)
O7_8 O 0.7381(4) 0.3343(4) 0.0826(3)
O8_8 O 0.7698(4) 0.2542(4) 0.1481(3)
O10_8 O 0.6952(3) 0.1428(3) 0.0131(3)
O11_8 O 0.8324(4) 0.3890(3) 0.0608(3)
O12_8 O 0.7965(4) 0.1056(4) 0.0317(3)
O14_8 O 0.8889(4) 0.1864(4) 0.0796(3)
O15_8 O 0.9038(3) 0.1170(3) 0.0001(3)
O18_8 O 0.8603(4) 0.2890(4) 0.1012(3)
O21_8 O 0.6635(4) 0.2664(4) 0.0432(3)
O24_8 O 0.7953(4) 0.1501(4) 0.1239(3)
O25_8 O 0.6917(4) 0.1875(4) 0.1083(3)
O29_8 O 0.9406(3) 0.3674(4) 0.0831(3)
O34_8 O 0.9951(4) 0.1776(4) 0.0351(4)
O35_8 O 0.8708(4) 0.2106(4) 0.1796(4)
O38_8 O 0.7137(4) 0.0747(4) 0.0973(3)
O39_8 O 0.7328(4) 0.4428(4) 0.0445(4)
O40_8 O 0.6600(4) 0.2874(4) 0.1480(3)
O41_8 O 0.9937(4) 0.6091(4) 0.0498(4)
H1_8 H 0.9794 0.7198 0.1782
N2_8 N 0.9851(5) 0.7173(5) 0.0603(4)
C6_8 C 0.9915(5) 0.6341(6) 0.0072(6)
C7_8 C 0.9896(6) 0.6981(6) 0.0088(5)
C9_8 C 0.9274(8) 0.7416(9) 0.0672(7)
H15_8 H 0.9282 0.7829 0.0661
H16_8 H 0.9106 0.7295 0.1000
C10_8 C 0.8951(14) 0.718(3) 0.0217(11)
H17_8 H 0.8810 0.6797 0.0294
H18_8 H 0.8656 0.7488 0.0105
H21_8 H 0.9749 0.3145 0.2002
H22_8 H 0.9780 0.2307 0.1787
H25_8 H 0.9953 0.2725 0.1037
B1_8 B 0.7948(6) 0.2420(6) 0.9978(5)
W1_8 W 0.84834(2) 0.35475(2) 0.93066(2)
W5_8 W 0.65765(2) 0.28657(2) 0.97443(2)
W6_8 W 0.74130(3) 0.26425(3) 0.87491(2)
W7_8 W 0.83348(2) 0.10790(2) 0.96755(2)
W8_8 W 0.88225(3) 0.21122(3) 0.89641(2)
O2_8 O 0.8383(4) 0.2046(3) 0.9787(3)
O3_8 O 0.7427(3) 0.2382(3) 0.9637(3)
O6_8 O 0.8103(4) 0.2233(4) 0.8713(3)
O9_8 O 0.7854(4) 0.3248(4) 0.8951(3)
O13_8 O 0.7979(4) 0.4051(4) 0.9659(3)
O16_8 O 0.7048(4) 0.1942(3) 0.8792(3)
O17_8 O 0.9428(4) 0.2022(3) 0.9432(3)
O19_8 O 0.9007(4) 0.3674(4) 0.9837(3)
O20_8 O 0.7631(4) 0.1243(4) 0.9385(3)
O22_8 O 0.6758(4) 0.2973(4) 0.9032(3)
O23_8 O 0.6352(4) 0.2127(4) 0.9568(3)
O26_8 O 0.8872(4) 0.2902(4) 0.9111(3)
O27_8 O 0.7029(4) 0.3506(4) 0.9886(3)
O28_8 O 0.8358(4) 0.0370(4) 0.9548(4)
O31_8 O 0.9207(5) 0.2091(5) 0.8434(4)
O32_8 O 0.8728(4) 0.4018(4) 0.8867(4)
O33_8 O 0.5931(4) 0.3167(4) 0.9731(4)
O36_8 O 0.7297(4) 0.2811(4) 0.8123(4)
O37_8 O 0.8680(4) 0.1350(4) 0.9051(3)
C8_8 C 0.9373(8) 0.7160(9) 0.9790(7)
H13_8 H 0.9421 0.7531 0.9629
H14_8 H 0.9271 0.6882 0.9526
H7_7 H 0.6025 0.8269 0.9885
H7_8 H 0.8269 0.6025 0.0115
loop_
_geom_bond_atom_site_label_1
_geom_bond_atom_site_label_2
_geom_bond_site_symmetry_1
_geom_bond_site_symmetry_2
B1 O1 1_555 1_555
W1 O1 1_555 1_555
W2 O1 1_555 1_555
W3 O4 1_555 1_555
W4 O3 1_555 1_555
W5 O3 1_555 1_555
W6 O3 1_555 1_555
W7 O2 1_555 1_555
W8 O2 1_555 1_555
W9 O1 1_555 1_555
W10 O2 1_555 1_555
W11 O4 1_555 1_555
W12 O4 1_555 1_555
O2 B1 1_555 1_555
O3 B1 1_555 1_555
O4 B1 1_555 1_555
O5 W9 1_555 1_555
O6 W6 1_555 1_555
O7 W2 1_555 1_555
O8 W3 1_555 1_555
O9 W1 1_555 1_555
O10 W4 1_555 1_555
O11 W2 1_555 1_555
O12 W7 1_555 1_555
O13 W1 1_555 1_555
O14 W10 1_555 1_555
O15 W7 1_555 1_555
O16 W4 1_555 1_555
O17 W8 1_555 1_555
O18 W9 1_555 1_555
O19 W1 1_555 1_555
O20 W4 1_555 1_555
O21 W3 1_555 1_555
O22 W5 1_555 1_555
O23 W4 1_555 1_555
O24 W11 1_555 1_555
O25 W3 1_555 1_555
O26 W1 1_555 1_555
O27 W2 1_555 1_555
O28 W7 1_555 1_555
O29 W9 1_555 1_555
O31 W8 1_555 1_555
O32 W1 1_555 1_555
O33 W5 1_555 1_555
O34 W10 1_555 1_555
O35 W12 1_555 1_555
O36 W6 1_555 1_555
O37 W7 1_555 1_555
O38 W11 1_555 1_555
O39 W2 1_555 1_555
O40 W3 1_555 1_555
O44 C6 1_555 1_555
C6 O41 1_555 1_555
C7 N2 1_555 1_555
C8 C7 1_555 1_555
H13 C8 1_555 1_555
H14 C8 1_555 1_555
C9 N2 1_555 1_555
H15 C9 1_555 1_555
H16 C9 1_555 1_555
C10 C8 1_555 1_555
H17 C10 1_555 1_555
H18 C10 1_555 1_555
O50 W4 1_555 1_555
W2 O13 1_555 1_555
W3 O7 1_555 1_555
W5 O21 1_555 1_555
W5 O23 1_555 1_555
W5 O27 1_555 1_555
W6 O9 1_555 1_555
W6 O16 1_555 1_555
W6 O22 1_555 1_555
W7 O20 1_555 1_555
W8 O6 1_555 1_555
W8 O26 1_555 1_555
W8 O37 1_555 1_555
W9 O11 1_555 1_555
W9 O19 1_555 1_555
W10 O5 1_555 1_555
W10 O15 1_555 1_555
W10 O17 1_555 1_555
W11 O10 1_555 1_555
W11 O12 1_555 1_555
W11 O25 1_555 1_555
W12 O8 1_555 1_555
W12 O14 1_555 1_555
W12 O18 1_555 1_555
W12 O24 1_555 1_555
C6 C7 1_555 1_555
C9 C10 1_555 1_555
Cu1 O30 1_555 1_555
Cu2 O43 1_555 1_555
O30 W13 1_555 1_555
O42 Cu1 1_555 1_555
O43 C1 1_555 1_555
O45 C16 1_555 1_555
O46 Cu2 1_555 1_555
O47 Cu3 1_555 1_555
O48 Cu3 1_555 1_555
N1 Cu1 1_555 1_555
N3 Cu3 1_555 1_555
H3 N3 1_555 1_555
N4 Cu3 1_555 1_555
H4 N4 1_555 1_555
C1 O42 1_555 1_555
C2 N1 1_555 1_555
H5 C2 1_555 1_555
C3 C2 1_555 1_555
H6 C3 1_555 1_555
H7 C3 1_555 1_555
C4 C3 1_555 1_555
H8 C4 1_555 1_555
H9 C4 1_555 1_555
C5 N1 1_555 1_555
H10 C5 1_555 1_555
H11 C5 1_555 1_555
C11 O46 1_555 1_555
C12 N3 1_555 1_555
H19 C12 1_555 1_555
C13 C12 1_555 1_555
H20 C13 1_555 1_555
C14 C13 1_555 1_555
H23 C14 1_555 1_555
C15 N3 1_555 1_555
H24 C15 1_555 1_555
C16 O48 1_555 1_555
C17 N4 1_555 1_555
H26 C17 1_555 1_555
C18 C17 1_555 1_555
H27 C18 1_555 1_555
H28 C18 1_555 1_555
C19 C18 1_555 1_555
H29 C19 1_555 1_555
H30 C19 1_555 1_555
C20 N4 1_555 1_555
H31 C20 1_555 1_555
H32 C20 1_555 1_555
O49 Cu3 1_555 1_555
O51 Cu2 1_555 1_555
O45 Cu4 1_555 1_555
O47 C11 1_555 1_555
C1 C2 1_555 1_555
C4 C5 1_555 1_555
C11 C12 1_555 1_555
C14 C15 1_555 1_555
C16 C17 1_555 1_555
C19 C20 1_555 1_555
O49 H33 1_555 1_555
O49 H34 1_555 1_555
O45_2 C16_2 1_555 1_555
H26_2 C17_2 1_555 1_555
C18_2 C17_2 1_555 1_555
H27_2 C18_2 1_555 1_555
H28_2 C18_2 1_555 1_555
C19_2 C18_2 1_555 1_555
H29_2 C19_2 1_555 1_555
H30_2 C19_2 1_555 1_555
O45_2 Cu4_2 1_555 1_555
C16_2 C17_2 1_555 1_555
Cu1_2 O30_2 1_555 1_555
Cu2_2 O43_2 1_555 1_555
O30_2 W13_2 1_555 1_555
O42_2 Cu1_2 1_555 1_555
O43_2 C1_2 1_555 1_555
O46_2 Cu2_2 1_555 1_555
O47_2 Cu3_2 1_555 1_555
O48_2 Cu3_2 1_555 1_555
N1_2 Cu1_2 1_555 1_555
N3_2 Cu3_2 1_555 1_555
H3_2 N3_2 1_555 1_555
N4_2 Cu3_2 1_555 1_555
H4_2 N4_2 1_555 1_555
C1_2 O42_2 1_555 1_555
C2_2 N1_2 1_555 1_555
H5_2 C2_2 1_555 1_555
C3_2 C2_2 1_555 1_555
H6_2 C3_2 1_555 1_555
H7_2 C3_2 1_555 1_555
C4_2 C3_2 1_555 1_555
H8_2 C4_2 1_555 1_555
H9_2 C4_2 1_555 1_555
C5_2 N1_2 1_555 1_555
H10_2 C5_2 1_555 1_555
H11_2 C5_2 1_555 1_555
C11_2 O46_2 1_555 1_555
C12_2 N3_2 1_555 1_555
H19_2 C12_2 1_555 1_555
C13_2 C12_2 1_555 1_555
H20_2 C13_2 1_555 1_555
C14_2 C13_2 1_555 1_555
H23_2 C14_2 1_555 1_555
C15_2 N3_2 1_555 1_555
H24_2 C15_2 1_555 1_555
C20_2 N4_2 1_555 1_555
H31_2 C20_2 1_555 1_555
H32_2 C20_2 1_555 1_555
O49_2 Cu3_2 1_555 1_555
O51_2 Cu2_2 1_555 1_555
O47_2 C11_2 1_555 1_555
C1_2 C2_2 1_555 1_555
C4_2 C5_2 1_555 1_555
C11_2 C12_2 1_555 1_555
C14_2 C15_2 1_555 1_555
O49_2 H33_2 1_555 1_555
O49_2 H34_2 1_555 1_555
W4_2 O3_2 1_555 1_555
W5_2 O3_2 1_555 1_555
W6_2 O3_2 1_555 1_555
W7_2 O2_2 1_555 1_555
W8_2 O2_2 1_555 1_555
O2_2 B1_2 1_555 1_555
O3_2 B1_2 1_555 1_555
O6_2 W6_2 1_555 1_555
O9_2 W1_2 1_555 1_555
O13_2 W1_2 1_555 1_555
O16_2 W4_2 1_555 1_555
O17_2 W8_2 1_555 1_555
O19_2 W1_2 1_555 1_555
O20_2 W4_2 1_555 1_555
O22_2 W5_2 1_555 1_555
O23_2 W4_2 1_555 1_555
O26_2 W1_2 1_555 1_555
O28_2 W7_2 1_555 1_555
O31_2 W8_2 1_555 1_555
O32_2 W1_2 1_555 1_555
O33_2 W5_2 1_555 1_555
O36_2 W6_2 1_555 1_555
O37_2 W7_2 1_555 1_555
H13_2 C8_2 1_555 1_555
H14_2 C8_2 1_555 1_555
O50_2 W4_2 1_555 1_555
W5_2 O23_2 1_555 1_555
W5_2 O27_2 1_555 1_555
W6_2 O9_2 1_555 1_555
W6_2 O16_2 1_555 1_555
W6_2 O22_2 1_555 1_555
W7_2 O20_2 1_555 1_555
W8_2 O6_2 1_555 1_555
W8_2 O26_2 1_555 1_555
W8_2 O37_2 1_555 1_555
W2_2 O1_2 1_555 1_555
W3_2 O4_2 1_555 1_555
W9_2 O1_2 1_555 1_555
W11_2 O4_2 1_555 1_555
W12_2 O4_2 1_555 1_555
O5_2 W9_2 1_555 1_555
O7_2 W2_2 1_555 1_555
O8_2 W3_2 1_555 1_555
O11_2 W2_2 1_555 1_555
O14_2 W10_2 1_555 1_555
O18_2 W9_2 1_555 1_555
O21_2 W3_2 1_555 1_555
O24_2 W11_2 1_555 1_555
O25_2 W3_2 1_555 1_555
O29_2 W9_2 1_555 1_555
O34_2 W10_2 1_555 1_555
O35_2 W12_2 1_555 1_555
O38_2 W11_2 1_555 1_555
O39_2 W2_2 1_555 1_555
O40_2 W3_2 1_555 1_555
C6_2 O41_2 1_555 1_555
C7_2 N2_2 1_555 1_555
C9_2 N2_2 1_555 1_555
H15_2 C9_2 1_555 1_555
H16_2 C9_2 1_555 1_555
H17_2 C10_2 1_555 1_555
H18_2 C10_2 1_555 1_555
W3_2 O7_2 1_555 1_555
W9_2 O11_2 1_555 1_555
W10_2 O5_2 1_555 1_555
W10_2 O15_2 1_555 1_555
W11_2 O10_2 1_555 1_555
W11_2 O12_2 1_555 1_555
W11_2 O25_2 1_555 1_555
W12_2 O8_2 1_555 1_555
W12_2 O14_2 1_555 1_555
W12_2 O18_2 1_555 1_555
W12_2 O24_2 1_555 1_555
C6_2 C7_2 1_555 1_555
C9_2 C10_2 1_555 1_555
B1_3 O1_3 1_555 1_555
W1_3 O1_3 1_555 1_555
W2_3 O1_3 1_555 1_555
W3_3 O4_3 1_555 1_555
W4_3 O3_3 1_555 1_555
W5_3 O3_3 1_555 1_555
W6_3 O3_3 1_555 1_555
W7_3 O2_3 1_555 1_555
W8_3 O2_3 1_555 1_555
W9_3 O1_3 1_555 1_555
W10_3 O2_3 1_555 1_555
W11_3 O4_3 1_555 1_555
W12_3 O4_3 1_555 1_555
Cu3_3 O29_3 1_555 1_555
O2_3 B1_3 1_555 1_555
O3_3 B1_3 1_555 1_555
O4_3 B1_3 1_555 1_555
O5_3 W9_3 1_555 1_555
O6_3 W6_3 1_555 1_555
O7_3 W2_3 1_555 1_555
O8_3 W3_3 1_555 1_555
O9_3 W1_3 1_555 1_555
O10_3 W4_3 1_555 1_555
O11_3 W2_3 1_555 1_555
O12_3 W7_3 1_555 1_555
O13_3 W1_3 1_555 1_555
O14_3 W10_3 1_555 1_555
O15_3 W7_3 1_555 1_555
O16_3 W4_3 1_555 1_555
O17_3 W8_3 1_555 1_555
O18_3 W9_3 1_555 1_555
O19_3 W1_3 1_555 1_555
O20_3 W4_3 1_555 1_555
O21_3 W3_3 1_555 1_555
O22_3 W5_3 1_555 1_555
O23_3 W4_3 1_555 1_555
O24_3 W11_3 1_555 1_555
O25_3 W3_3 1_555 1_555
O26_3 W1_3 1_555 1_555
O27_3 W2_3 1_555 1_555
O28_3 W7_3 1_555 1_555
O29_3 W9_3 1_555 1_555
O31_3 W8_3 1_555 1_555
O32_3 W1_3 1_555 1_555
O33_3 W5_3 1_555 1_555
O34_3 W10_3 1_555 1_555
O35_3 W12_3 1_555 1_555
O36_3 W6_3 1_555 1_555
O37_3 W7_3 1_555 1_555
O38_3 W11_3 1_555 1_555
O39_3 W2_3 1_555 1_555
O40_3 W3_3 1_555 1_555
O52 C16_3 1_555 1_555
O46_3 Cu4_2 1_555 1_555
O47_3 Cu3_3 1_555 1_555
O48_3 Cu3_3 1_555 1_555
N3_3 Cu3_3 1_555 1_555
H3_3 N3_3 1_555 1_555
N4_3 Cu3_3 1_555 1_555
H4_3 N4_3 1_555 1_555
C11_3 O46_3 1_555 1_555
C12_3 N3_3 1_555 1_555
H19_3 C12_3 1_555 1_555
C13_3 C12_3 1_555 1_555
H20_3 C13_3 1_555 1_555
H21_3 C13_3 1_555 1_555
C14_3 C13_3 1_555 1_555
H22_3 C14_3 1_555 1_555
H23_3 C14_3 1_555 1_555
C15_3 N3_3 1_555 1_555
H24_3 C15_3 1_555 1_555
H25_3 C15_3 1_555 1_555
C16_3 O48_3 1_555 1_555
C17_3 N4_3 1_555 1_555
H26_3 C17_3 1_555 1_555
C18_3 C17_3 1_555 1_555
H27_3 C18_3 1_555 1_555
H28_3 C18_3 1_555 1_555
C19_3 C18_3 1_555 1_555
H29_3 C19_3 1_555 1_555
H30_3 C19_3 1_555 1_555
C20_3 N4_3 1_555 1_555
H31_3 C20_3 1_555 1_555
H32_3 C20_3 1_555 1_555
O49_3 Cu3_3 1_555 1_555
O50_3 W4_3 1_555 1_555
W2_3 O13_3 1_555 1_555
W3_3 O7_3 1_555 1_555
W5_3 O21_3 1_555 1_555
W5_3 O23_3 1_555 1_555
W5_3 O27_3 1_555 1_555
W6_3 O9_3 1_555 1_555
W6_3 O16_3 1_555 1_555
W6_3 O22_3 1_555 1_555
W7_3 O20_3 1_555 1_555
W8_3 O6_3 1_555 1_555
W8_3 O26_3 1_555 1_555
W8_3 O37_3 1_555 1_555
W9_3 O11_3 1_555 1_555
W9_3 O19_3 1_555 1_555
W10_3 O5_3 1_555 1_555
W10_3 O15_3 1_555 1_555
W10_3 O17_3 1_555 1_555
W11_3 O10_3 1_555 1_555
W11_3 O12_3 1_555 1_555
W11_3 O25_3 1_555 1_555
W12_3 O8_3 1_555 1_555
W12_3 O14_3 1_555 1_555
W12_3 O18_3 1_555 1_555
W12_3 O24_3 1_555 1_555
O47_3 C11_3 1_555 1_555
C11_3 C12_3 1_555 1_555
C14_3 C15_3 1_555 1_555
C16_3 C17_3 1_555 1_555
C19_3 C20_3 1_555 1_555
O49_3 H33_3 1_555 1_555
O49_3 H34_3 1_555 1_555
Cu1_3 O30_3 1_555 1_555
O30_3 W13_3 1_555 1_555
O41_3 Cu1_3 1_555 1_555
O42_3 Cu1_3 1_555 1_555
O43_3 C1_3 1_555 1_555
O51 C6_3 1_555 1_555
N1_3 Cu1_3 1_555 1_555
H1_3 N1_3 1_555 1_555
N2_3 Cu1_3 1_555 1_555
H2_3 N2_3 1_555 1_555
C1_3 O42_3 1_555 1_555
C2_3 N1_3 1_555 1_555
H5_3 C2_3 1_555 1_555
C3_3 C2_3 1_555 1_555
H6_3 C3_3 1_555 1_555
C4_3 C3_3 1_555 1_555
H8_3 C4_3 1_555 1_555
H9_3 C4_3 1_555 1_555
C5_3 N1_3 1_555 1_555
H10_3 C5_3 1_555 1_555
H11_3 C5_3 1_555 1_555
C6_3 O41_3 1_555 1_555
C7_3 N2_3 1_555 1_555
H12_3 C7_3 1_555 1_555
C8_3 C7_3 1_555 1_555
H13_3 C8_3 1_555 1_555
H14_3 C8_3 1_555 1_555
C9_3 N2_3 1_555 1_555
H15_3 C9_3 1_555 1_555
H16_3 C9_3 1_555 1_555
C10_3 C8_3 1_555 1_555
H17_3 C10_3 1_555 1_555
H18_3 C10_3 1_555 1_555
C1_3 C2_3 1_555 1_555
C4_3 C5_3 1_555 1_555
C6_3 C7_3 1_555 1_555
C9_3 C10_3 1_555 1_555
Cu1_4 O30_4 1_555 1_555
O30_4 W13_4 1_555 1_555
O41_4 Cu1_4 1_555 1_555
O42_4 Cu1_4 1_555 1_555
O43_4 C1_4 1_555 1_555
O51_2 C6_4 1_555 1_555
N1_4 Cu1_4 1_555 1_555
H1_4 N1_4 1_555 1_555
N2_4 Cu1_4 1_555 1_555
H2_4 N2_4 1_555 1_555
C1_4 O42_4 1_555 1_555
C2_4 N1_4 1_555 1_555
H5_4 C2_4 1_555 1_555
C3_4 C2_4 1_555 1_555
H6_4 C3_4 1_555 1_555
H7_3 C3_4 1_555 1_555
C4_4 C3_4 1_555 1_555
H8_4 C4_4 1_555 1_555
H9_4 C4_4 1_555 1_555
C5_4 N1_4 1_555 1_555
H10_4 C5_4 1_555 1_555
H11_4 C5_4 1_555 1_555
C6_4 O41_4 1_555 1_555
C7_4 N2_4 1_555 1_555
H12_4 C7_4 1_555 1_555
C8_4 C7_4 1_555 1_555
H13_4 C8_4 1_555 1_555
H14_4 C8_4 1_555 1_555
C9_4 N2_4 1_555 1_555
H15_4 C9_4 1_555 1_555
H16_4 C9_4 1_555 1_555
C10_4 C8_4 1_555 1_555
H17_4 C10_4 1_555 1_555
H18_4 C10_4 1_555 1_555
C1_4 C2_4 1_555 1_555
C4_4 C5_4 1_555 1_555
C6_4 C7_4 1_555 1_555
C9_4 C10_4 1_555 1_555
B1_4 O1_4 1_555 1_555
W1_4 O1_4 1_555 1_555
W2_4 O1_4 1_555 1_555
W3_4 O4_4 1_555 1_555
W4_4 O3_4 1_555 1_555
W5_4 O3_4 1_555 1_555
W6_4 O3_4 1_555 1_555
W7_4 O2_4 1_555 1_555
W8_4 O2_4 1_555 1_555
W9_4 O1_4 1_555 1_555
W10_4 O2_4 1_555 1_555
W11_4 O4_4 1_555 1_555
W12_4 O4_4 1_555 1_555
Cu3_4 O29_4 1_555 1_555
O2_4 B1_4 1_555 1_555
O3_4 B1_4 1_555 1_555
O4_4 B1_4 1_555 1_555
O5_4 W9_4 1_555 1_555
O6_4 W6_4 1_555 1_555
O7_4 W2_4 1_555 1_555
O8_4 W3_4 1_555 1_555
O9_4 W1_4 1_555 1_555
O10_4 W4_4 1_555 1_555
O11_4 W2_4 1_555 1_555
O12_4 W7_4 1_555 1_555
O13_4 W1_4 1_555 1_555
O14_4 W10_4 1_555 1_555
O15_4 W7_4 1_555 1_555
O16_4 W4_4 1_555 1_555
O17_4 W8_4 1_555 1_555
O18_4 W9_4 1_555 1_555
O19_4 W1_4 1_555 1_555
O20_4 W4_4 1_555 1_555
O21_4 W3_4 1_555 1_555
O22_4 W5_4 1_555 1_555
O23_4 W4_4 1_555 1_555
O24_4 W11_4 1_555 1_555
O25_4 W3_4 1_555 1_555
O26_4 W1_4 1_555 1_555
O27_4 W2_4 1_555 1_555
O28_4 W7_4 1_555 1_555
O29_4 W9_4 1_555 1_555
O31_4 W8_4 1_555 1_555
O32_4 W1_4 1_555 1_555
O33_4 W5_4 1_555 1_555
O34_4 W10_4 1_555 1_555
O35_4 W12_4 1_555 1_555
O36_4 W6_4 1_555 1_555
O37_4 W7_4 1_555 1_555
O38_4 W11_4 1_555 1_555
O39_4 W2_4 1_555 1_555
O40_4 W3_4 1_555 1_555
O52_2 C16_4 1_555 1_555
O46_4 Cu4 1_555 1_555
O47_4 Cu3_4 1_555 1_555
O48_4 Cu3_4 1_555 1_555
N3_4 Cu3_4 1_555 1_555
H3_4 N3_4 1_555 1_555
N4_4 Cu3_4 1_555 1_555
H4_4 N4_4 1_555 1_555
C11_4 O46_4 1_555 1_555
C12_4 N3_4 1_555 1_555
H19_4 C12_4 1_555 1_555
C13_4 C12_4 1_555 1_555
H20_4 C13_4 1_555 1_555
H21_4 C13_4 1_555 1_555
C14_4 C13_4 1_555 1_555
H22_4 C14_4 1_555 1_555
H23_4 C14_4 1_555 1_555
C15_4 N3_4 1_555 1_555
H24_4 C15_4 1_555 1_555
H25_4 C15_4 1_555 1_555
C16_4 O48_4 1_555 1_555
C17_4 N4_4 1_555 1_555
H26_4 C17_4 1_555 1_555
C18_4 C17_4 1_555 1_555
H27_4 C18_4 1_555 1_555
H28_4 C18_4 1_555 1_555
C19_4 C18_4 1_555 1_555
H29_4 C19_4 1_555 1_555
H30_4 C19_4 1_555 1_555
C20_4 N4_4 1_555 1_555
H31_4 C20_4 1_555 1_555
H32_4 C20_4 1_555 1_555
O49_4 Cu3_4 1_555 1_555
O50_4 W4_4 1_555 1_555
W2_4 O13_4 1_555 1_555
W3_4 O7_4 1_555 1_555
W5_4 O21_4 1_555 1_555
W5_4 O23_4 1_555 1_555
W5_4 O27_4 1_555 1_555
W6_4 O9_4 1_555 1_555
W6_4 O16_4 1_555 1_555
W6_4 O22_4 1_555 1_555
W7_4 O20_4 1_555 1_555
W8_4 O6_4 1_555 1_555
W8_4 O26_4 1_555 1_555
W8_4 O37_4 1_555 1_555
W9_4 O11_4 1_555 1_555
W9_4 O19_4 1_555 1_555
W10_4 O5_4 1_555 1_555
W10_4 O15_4 1_555 1_555
W10_4 O17_4 1_555 1_555
W11_4 O10_4 1_555 1_555
W11_4 O12_4 1_555 1_555
W11_4 O25_4 1_555 1_555
W12_4 O8_4 1_555 1_555
W12_4 O14_4 1_555 1_555
W12_4 O18_4 1_555 1_555
W12_4 O24_4 1_555 1_555
O47_4 C11_4 1_555 1_555
C11_4 C12_4 1_555 1_555
C14_4 C15_4 1_555 1_555
C16_4 C17_4 1_555 1_555
C19_4 C20_4 1_555 1_555
O49_4 H33_4 1_555 1_555
O49_4 H34_4 1_555 1_555
Cu1_5 O50_3 1_555 1_555
O41_5 Cu1_5 1_555 1_555
O42_5 Cu1_5 1_555 1_555
O43_5 C1_5 1_555 1_555
O44_3 C6_5 1_555 1_555
N1_5 Cu1_5 1_555 1_555
H1_5 N1_5 1_555 1_555
N2_5 Cu1_5 1_555 1_555
H2_5 N2_5 1_555 1_555
C1_5 O42_5 1_555 1_555
C2_5 N1_5 1_555 1_555
H5_5 C2_5 1_555 1_555
C3_5 C2_5 1_555 1_555
H6_5 C3_5 1_555 1_555
H7_4 C3_5 1_555 1_555
C4_5 C3_5 1_555 1_555
H8_5 C4_5 1_555 1_555
H9_5 C4_5 1_555 1_555
C5_5 N1_5 1_555 1_555
H10_5 C5_5 1_555 1_555
H11_5 C5_5 1_555 1_555
C6_5 O41_5 1_555 1_555
C7_5 N2_5 1_555 1_555
H12_5 C7_5 1_555 1_555
C8_5 C7_5 1_555 1_555
H13_5 C8_5 1_555 1_555
H14_5 C8_5 1_555 1_555
C9_5 N2_5 1_555 1_555
H15_5 C9_5 1_555 1_555
H16_5 C9_5 1_555 1_555
C10_5 C8_5 1_555 1_555
H17_5 C10_5 1_555 1_555
H18_5 C10_5 1_555 1_555
Cu4_3 O44_3 1_555 1_555
C1_5 C2_5 1_555 1_555
C4_5 C5_5 1_555 1_555
C6_5 C7_5 1_555 1_555
C9_5 C10_5 1_555 1_555
B1_5 O1_5 1_555 1_555
W1_5 O1_5 1_555 1_555
W2_5 O1_5 1_555 1_555
W3_5 O4_5 1_555 1_555
W13_3 O3_5 1_555 1_555
W5_5 O3_5 1_555 1_555
W6_5 O3_5 1_555 1_555
W7_5 O2_5 1_555 1_555
W8_5 O2_5 1_555 1_555
W9_5 O1_5 1_555 1_555
W10_5 O2_5 1_555 1_555
W11_5 O4_5 1_555 1_555
W12_5 O4_5 1_555 1_555
Cu3_5 O29_5 1_555 1_555
O2_5 B1_5 1_555 1_555
O3_5 B1_5 1_555 1_555
O4_5 B1_5 1_555 1_555
O5_5 W9_5 1_555 1_555
O6_5 W6_5 1_555 1_555
O7_5 W2_5 1_555 1_555
O8_5 W3_5 1_555 1_555
O9_5 W1_5 1_555 1_555
O10_5 W13_3 1_555 1_555
O11_5 W2_5 1_555 1_555
O12_5 W7_5 1_555 1_555
O13_5 W1_5 1_555 1_555
O14_5 W10_5 1_555 1_555
O15_5 W7_5 1_555 1_555
O16_5 W13_3 1_555 1_555
O17_5 W8_5 1_555 1_555
O18_5 W9_5 1_555 1_555
O19_5 W1_5 1_555 1_555
O20_5 W13_3 1_555 1_555
O21_5 W3_5 1_555 1_555
O22_5 W5_5 1_555 1_555
O23_5 W13_3 1_555 1_555
O24_5 W11_5 1_555 1_555
O25_5 W3_5 1_555 1_555
O26_5 W1_5 1_555 1_555
O27_5 W2_5 1_555 1_555
O28_5 W7_5 1_555 1_555
O29_5 W9_5 1_555 1_555
O31_5 W8_5 1_555 1_555
O32_5 W1_5 1_555 1_555
O33_5 W5_5 1_555 1_555
O34_5 W10_5 1_555 1_555
O35_5 W12_5 1_555 1_555
O36_5 W6_5 1_555 1_555
O37_5 W7_5 1_555 1_555
O38_5 W11_5 1_555 1_555
O39_5 W2_5 1_555 1_555
O40_5 W3_5 1_555 1_555
O45_3 C16_5 1_555 1_555
O46_5 Cu2_3 1_555 1_555
O47_5 Cu3_5 1_555 1_555
O48_5 Cu3_5 1_555 1_555
N3_5 Cu3_5 1_555 1_555
H3_5 N3_5 1_555 1_555
N4_5 Cu3_5 1_555 1_555
H4_5 N4_5 1_555 1_555
C11_5 O46_5 1_555 1_555
C12_5 N3_5 1_555 1_555
H19_5 C12_5 1_555 1_555
C13_5 C12_5 1_555 1_555
H20_5 C13_5 1_555 1_555
H21_5 C13_5 1_555 1_555
C14_5 C13_5 1_555 1_555
H22_5 C14_5 1_555 1_555
H23_5 C14_5 1_555 1_555
C15_5 N3_5 1_555 1_555
H24_5 C15_5 1_555 1_555
H25_5 C15_5 1_555 1_555
C16_5 O48_5 1_555 1_555
C17_5 N4_5 1_555 1_555
H26_5 C17_5 1_555 1_555
C18_5 C17_5 1_555 1_555
H27_5 C18_5 1_555 1_555
H28_5 C18_5 1_555 1_555
C19_5 C18_5 1_555 1_555
H29_5 C19_5 1_555 1_555
H30_5 C19_5 1_555 1_555
C20_5 N4_5 1_555 1_555
H31_5 C20_5 1_555 1_555
H32_5 C20_5 1_555 1_555
O49_5 Cu3_5 1_555 1_555
O52_3 Cu2_3 1_555 1_555
W2_5 O13_5 1_555 1_555
W3_5 O7_5 1_555 1_555
W5_5 O21_5 1_555 1_555
W5_5 O23_5 1_555 1_555
W5_5 O27_5 1_555 1_555
W6_5 O9_5 1_555 1_555
W6_5 O16_5 1_555 1_555
W6_5 O22_5 1_555 1_555
W7_5 O20_5 1_555 1_555
W8_5 O6_5 1_555 1_555
W8_5 O26_5 1_555 1_555
W8_5 O37_5 1_555 1_555
W9_5 O11_5 1_555 1_555
W9_5 O19_5 1_555 1_555
W10_5 O5_5 1_555 1_555
W10_5 O15_5 1_555 1_555
W10_5 O17_5 1_555 1_555
W11_5 O10_5 1_555 1_555
W11_5 O12_5 1_555 1_555
W11_5 O25_5 1_555 1_555
W12_5 O8_5 1_555 1_555
W12_5 O14_5 1_555 1_555
W12_5 O18_5 1_555 1_555
W12_5 O24_5 1_555 1_555
O47_5 C11_5 1_555 1_555
C11_5 C12_5 1_555 1_555
C14_5 C15_5 1_555 1_555
C16_5 C17_5 1_555 1_555
C19_5 C20_5 1_555 1_555
O49_5 H33_5 1_555 1_555
O49_5 H34_5 1_555 1_555
B1_6 O1_6 1_555 1_555
W1_6 O1_6 1_555 1_555
W2_6 O1_6 1_555 1_555
W3_6 O4_6 1_555 1_555
W13_4 O3_6 1_555 1_555
W5_6 O3_6 1_555 1_555
W6_6 O3_6 1_555 1_555
W7_6 O2_6 1_555 1_555
W8_6 O2_6 1_555 1_555
W9_6 O1_6 1_555 1_555
W10_6 O2_6 1_555 1_555
W11_6 O4_6 1_555 1_555
W12_6 O4_6 1_555 1_555
Cu3_6 O29_6 1_555 1_555
O2_6 B1_6 1_555 1_555
O3_6 B1_6 1_555 1_555
O4_6 B1_6 1_555 1_555
O5_6 W9_6 1_555 1_555
O6_6 W6_6 1_555 1_555
O7_6 W2_6 1_555 1_555
O8_6 W3_6 1_555 1_555
O9_6 W1_6 1_555 1_555
O10_6 W13_4 1_555 1_555
O11_6 W2_6 1_555 1_555
O12_6 W7_6 1_555 1_555
O13_6 W1_6 1_555 1_555
O14_6 W10_6 1_555 1_555
O15_6 W7_6 1_555 1_555
O16_6 W13_4 1_555 1_555
O17_6 W8_6 1_555 1_555
O18_6 W9_6 1_555 1_555
O19_6 W1_6 1_555 1_555
O20_6 W13_4 1_555 1_555
O21_6 W3_6 1_555 1_555
O22_6 W5_6 1_555 1_555
O23_6 W13_4 1_555 1_555
O24_6 W11_6 1_555 1_555
O25_6 W3_6 1_555 1_555
O26_6 W1_6 1_555 1_555
O27_6 W2_6 1_555 1_555
O28_6 W7_6 1_555 1_555
O29_6 W9_6 1_555 1_555
O31_6 W8_6 1_555 1_555
O32_6 W1_6 1_555 1_555
O33_6 W5_6 1_555 1_555
O34_6 W10_6 1_555 1_555
O35_6 W12_6 1_555 1_555
O36_6 W6_6 1_555 1_555
O37_6 W7_6 1_555 1_555
O38_6 W11_6 1_555 1_555
O39_6 W2_6 1_555 1_555
O40_6 W3_6 1_555 1_555
O45_4 C16_6 1_555 1_555
O46_6 Cu2_4 1_555 1_555
O47_6 Cu3_6 1_555 1_555
O48_6 Cu3_6 1_555 1_555
N3_6 Cu3_6 1_555 1_555
H3_6 N3_6 1_555 1_555
N4_6 Cu3_6 1_555 1_555
H4_6 N4_6 1_555 1_555
C11_6 O46_6 1_555 1_555
C12_6 N3_6 1_555 1_555
H19_6 C12_6 1_555 1_555
C13_6 C12_6 1_555 1_555
H20_6 C13_6 1_555 1_555
H21_6 C13_6 1_555 1_555
C14_6 C13_6 1_555 1_555
H22_6 C14_6 1_555 1_555
H23_6 C14_6 1_555 1_555
C15_6 N3_6 1_555 1_555
H24_6 C15_6 1_555 1_555
H25_6 C15_6 1_555 1_555
C16_6 O48_6 1_555 1_555
C17_6 N4_6 1_555 1_555
H26_6 C17_6 1_555 1_555
C18_6 C17_6 1_555 1_555
H27_6 C18_6 1_555 1_555
H28_6 C18_6 1_555 1_555
C19_6 C18_6 1_555 1_555
H29_6 C19_6 1_555 1_555
H30_6 C19_6 1_555 1_555
C20_6 N4_6 1_555 1_555
H31_6 C20_6 1_555 1_555
H32_6 C20_6 1_555 1_555
O49_6 Cu3_6 1_555 1_555
O52_4 Cu2_4 1_555 1_555
W2_6 O13_6 1_555 1_555
W3_6 O7_6 1_555 1_555
W5_6 O21_6 1_555 1_555
W5_6 O23_6 1_555 1_555
W5_6 O27_6 1_555 1_555
W6_6 O9_6 1_555 1_555
W6_6 O16_6 1_555 1_555
W6_6 O22_6 1_555 1_555
W7_6 O20_6 1_555 1_555
W8_6 O6_6 1_555 1_555
W8_6 O26_6 1_555 1_555
W8_6 O37_6 1_555 1_555
W9_6 O11_6 1_555 1_555
W9_6 O19_6 1_555 1_555
W10_6 O5_6 1_555 1_555
W10_6 O15_6 1_555 1_555
W10_6 O17_6 1_555 1_555
W11_6 O10_6 1_555 1_555
W11_6 O12_6 1_555 1_555
W11_6 O25_6 1_555 1_555
W12_6 O8_6 1_555 1_555
W12_6 O14_6 1_555 1_555
W12_6 O18_6 1_555 1_555
W12_6 O24_6 1_555 1_555
O47_6 C11_6 1_555 1_555
C11_6 C12_6 1_555 1_555
C14_6 C15_6 1_555 1_555
C16_6 C17_6 1_555 1_555
C19_6 C20_6 1_555 1_555
O49_6 H33_6 1_555 1_555
O49_6 H34_6 1_555 1_555
Cu1_6 O50_4 1_555 1_555
O41_6 Cu1_6 1_555 1_555
O42_6 Cu1_6 1_555 1_555
O43_6 C1_6 1_555 1_555
O44_4 C6_6 1_555 1_555
N1_6 Cu1_6 1_555 1_555
H1_6 N1_6 1_555 1_555
N2_6 Cu1_6 1_555 1_555
H2_6 N2_6 1_555 1_555
C1_6 O42_6 1_555 1_555
C2_6 N1_6 1_555 1_555
H5_6 C2_6 1_555 1_555
C3_6 C2_6 1_555 1_555
H6_6 C3_6 1_555 1_555
C4_6 C3_6 1_555 1_555
H8_6 C4_6 1_555 1_555
H9_6 C4_6 1_555 1_555
C5_6 N1_6 1_555 1_555
H10_6 C5_6 1_555 1_555
H11_6 C5_6 1_555 1_555
C6_6 O41_6 1_555 1_555
C7_6 N2_6 1_555 1_555
H12_6 C7_6 1_555 1_555
C8_6 C7_6 1_555 1_555
H13_6 C8_6 1_555 1_555
H14_6 C8_6 1_555 1_555
C9_6 N2_6 1_555 1_555
H15_6 C9_6 1_555 1_555
H16_6 C9_6 1_555 1_555
C10_6 C8_6 1_555 1_555
H17_6 C10_6 1_555 1_555
H18_6 C10_6 1_555 1_555
Cu4_4 O44_4 1_555 1_555
C1_6 C2_6 1_555 1_555
C4_6 C5_6 1_555 1_555
C6_6 C7_6 1_555 1_555
C9_6 C10_6 1_555 1_555
B1_7 O1_7 1_555 1_555
W1_7 O1_7 1_555 1_555
W2_7 O1_7 1_555 1_555
W3_7 O4_7 1_555 1_555
W13 O3_7 1_555 1_555
W5_7 O3_7 1_555 1_555
W6_7 O3_7 1_555 1_555
W7_7 O2_7 1_555 1_555
W8_7 O2_7 1_555 1_555
W9_7 O1_7 1_555 1_555
W10_7 O2_7 1_555 1_555
W11_7 O4_7 1_555 1_555
W12_7 O4_7 1_555 1_555
O2_7 B1_7 1_555 1_555
O3_7 B1_7 1_555 1_555
O4_7 B1_7 1_555 1_555
O5_7 W9_7 1_555 1_555
O6_7 W6_7 1_555 1_555
O7_7 W2_7 1_555 1_555
O8_7 W3_7 1_555 1_555
O9_7 W1_7 1_555 1_555
O10_7 W13 1_555 1_555
O11_7 W2_7 1_555 1_555
O12_7 W7_7 1_555 1_555
O13_7 W1_7 1_555 1_555
O14_7 W10_7 1_555 1_555
O15_7 W7_7 1_555 1_555
O16_7 W13 1_555 1_555
O17_7 W8_7 1_555 1_555
O18_7 W9_7 1_555 1_555
O19_7 W1_7 1_555 1_555
O20_7 W13 1_555 1_555
O21_7 W3_7 1_555 1_555
O22_7 W5_7 1_555 1_555
O23_7 W13 1_555 1_555
O24_7 W11_7 1_555 1_555
O25_7 W3_7 1_555 1_555
O26_7 W1_7 1_555 1_555
O27_7 W2_7 1_555 1_555
O28_7 W7_7 1_555 1_555
O29_7 W9_7 1_555 1_555
O31_7 W8_7 1_555 1_555
O32_7 W1_7 1_555 1_555
O33_7 W5_7 1_555 1_555
O34_7 W10_7 1_555 1_555
O35_7 W12_7 1_555 1_555
O36_7 W6_7 1_555 1_555
O37_7 W7_7 1_555 1_555
O38_7 W11_7 1_555 1_555
O39_7 W2_7 1_555 1_555
O40_7 W3_7 1_555 1_555
O51_3 C6_7 1_555 1_555
C6_7 O41_7 1_555 1_555
C7_7 N2_7 1_555 1_555
C8_7 C7_7 1_555 1_555
H13_7 C8_7 1_555 1_555
H14_7 C8_7 1_555 1_555
C9_7 N2_7 1_555 1_555
H15_7 C9_7 1_555 1_555
H16_7 C9_7 1_555 1_555
C10_7 C8_7 1_555 1_555
H17_7 C10_7 1_555 1_555
H18_7 C10_7 1_555 1_555
W2_7 O13_7 1_555 1_555
W3_7 O7_7 1_555 1_555
W5_7 O21_7 1_555 1_555
W5_7 O23_7 1_555 1_555
W5_7 O27_7 1_555 1_555
W6_7 O9_7 1_555 1_555
W6_7 O16_7 1_555 1_555
W6_7 O22_7 1_555 1_555
W7_7 O20_7 1_555 1_555
W8_7 O6_7 1_555 1_555
W8_7 O26_7 1_555 1_555
W8_7 O37_7 1_555 1_555
W9_7 O11_7 1_555 1_555
W9_7 O19_7 1_555 1_555
W10_7 O5_7 1_555 1_555
W10_7 O15_7 1_555 1_555
W10_7 O17_7 1_555 1_555
W11_7 O10_7 1_555 1_555
W11_7 O12_7 1_555 1_555
W11_7 O25_7 1_555 1_555
W12_7 O8_7 1_555 1_555
W12_7 O14_7 1_555 1_555
W12_7 O18_7 1_555 1_555
W12_7 O24_7 1_555 1_555
C6_7 C7_7 1_555 1_555
C9_7 C10_7 1_555 1_555
Cu1_7 O50 1_555 1_555
Cu4_4 O43_7 1_555 1_555
O42_7 Cu1_7 1_555 1_555
O43_7 C1_7 1_555 1_555
O52_3 C16_7 1_555 1_555
O46_7 Cu4_4 1_555 1_555
O47_7 Cu3_7 1_555 1_555
O48_7 Cu3_7 1_555 1_555
N1_7 Cu1_7 1_555 1_555
N3_7 Cu3_7 1_555 1_555
H3_7 N3_7 1_555 1_555
N4_7 Cu3_7 1_555 1_555
H4_7 N4_7 1_555 1_555
C1_7 O42_7 1_555 1_555
C2_7 N1_7 1_555 1_555
H5_7 C2_7 1_555 1_555
C3_7 C2_7 1_555 1_555
H6_7 C3_7 1_555 1_555
H7_5 C3_7 1_555 1_555
C4_7 C3_7 1_555 1_555
H8_7 C4_7 1_555 1_555
H9_7 C4_7 1_555 1_555
C5_7 N1_7 1_555 1_555
H10_7 C5_7 1_555 1_555
H11_7 C5_7 1_555 1_555
C11_7 O46_7 1_555 1_555
C12_7 N3_7 1_555 1_555
H19_7 C12_7 1_555 1_555
C13_7 C12_7 1_555 1_555
H20_7 C13_7 1_555 1_555
C14_7 C13_7 1_555 1_555
H23_7 C14_7 1_555 1_555
C15_7 N3_7 1_555 1_555
H24_7 C15_7 1_555 1_555
C16_7 O48_7 1_555 1_555
C17_7 N4_7 1_555 1_555
H26_7 C17_7 1_555 1_555
C18_7 C17_7 1_555 1_555
H27_7 C18_7 1_555 1_555
H28_7 C18_7 1_555 1_555
C19_7 C18_7 1_555 1_555
H29_7 C19_7 1_555 1_555
H30_7 C19_7 1_555 1_555
C20_7 N4_7 1_555 1_555
H31_7 C20_7 1_555 1_555
H32_7 C20_7 1_555 1_555
O49_7 Cu3_7 1_555 1_555
O47_7 C11_7 1_555 1_555
C1_7 C2_7 1_555 1_555
C4_7 C5_7 1_555 1_555
C11_7 C12_7 1_555 1_555
C14_7 C15_7 1_555 1_555
C16_7 C17_7 1_555 1_555
C19_7 C20_7 1_555 1_555
O49_7 H33_7 1_555 1_555
O49_7 H34_7 1_555 1_555
Cu1_8 O50_2 1_555 1_555
Cu4_3 O43_8 1_555 1_555
O42_8 Cu1_8 1_555 1_555
O43_8 C1_8 1_555 1_555
O46_8 Cu4_3 1_555 1_555
O47_8 Cu3_8 1_555 1_555
O48_8 Cu3_8 1_555 1_555
N1_8 Cu1_8 1_555 1_555
N3_8 Cu3_8 1_555 1_555
H3_8 N3_8 1_555 1_555
N4_8 Cu3_8 1_555 1_555
H4_8 N4_8 1_555 1_555
C1_8 O42_8 1_555 1_555
C2_8 N1_8 1_555 1_555
H5_8 C2_8 1_555 1_555
C3_8 C2_8 1_555 1_555
H6_8 C3_8 1_555 1_555
H7_6 C3_8 1_555 1_555
C4_8 C3_8 1_555 1_555
H8_8 C4_8 1_555 1_555
H9_8 C4_8 1_555 1_555
C5_8 N1_8 1_555 1_555
H10_8 C5_8 1_555 1_555
H11_8 C5_8 1_555 1_555
C11_8 O46_8 1_555 1_555
C12_8 N3_8 1_555 1_555
H19_8 C12_8 1_555 1_555
C13_8 C12_8 1_555 1_555
H20_8 C13_8 1_555 1_555
C14_8 C13_8 1_555 1_555
H23_8 C14_8 1_555 1_555
C15_8 N3_8 1_555 1_555
H24_8 C15_8 1_555 1_555
C20_8 N4_8 1_555 1_555
H31_8 C20_8 1_555 1_555
H32_8 C20_8 1_555 1_555
O49_8 Cu3_8 1_555 1_555
O47_8 C11_8 1_555 1_555
C1_8 C2_8 1_555 1_555
C4_8 C5_8 1_555 1_555
C11_8 C12_8 1_555 1_555
C14_8 C15_8 1_555 1_555
O49_8 H33_8 1_555 1_555
O49_8 H34_8 1_555 1_555
O52_4 C16_8 1_555 1_555
H26_8 C17_8 1_555 1_555
C18_8 C17_8 1_555 1_555
H27_8 C18_8 1_555 1_555
H28_8 C18_8 1_555 1_555
C19_8 C18_8 1_555 1_555
H29_8 C19_8 1_555 1_555
H30_8 C19_8 1_555 1_555
C16_8 C17_8 1_555 1_555
W2_8 O1_8 1_555 1_555
W3_8 O4_8 1_555 1_555
W9_8 O1_8 1_555 1_555
W11_8 O4_8 1_555 1_555
W12_8 O4_8 1_555 1_555
O5_8 W9_8 1_555 1_555
O7_8 W2_8 1_555 1_555
O8_8 W3_8 1_555 1_555
O11_8 W2_8 1_555 1_555
O14_8 W10_8 1_555 1_555
O18_8 W9_8 1_555 1_555
O21_8 W3_8 1_555 1_555
O24_8 W11_8 1_555 1_555
O25_8 W3_8 1_555 1_555
O29_8 W9_8 1_555 1_555
O34_8 W10_8 1_555 1_555
O35_8 W12_8 1_555 1_555
O38_8 W11_8 1_555 1_555
O39_8 W2_8 1_555 1_555
O40_8 W3_8 1_555 1_555
C6_8 O41_8 1_555 1_555
C7_8 N2_8 1_555 1_555
C9_8 N2_8 1_555 1_555
H15_8 C9_8 1_555 1_555
H16_8 C9_8 1_555 1_555
H17_8 C10_8 1_555 1_555
H18_8 C10_8 1_555 1_555
W3_8 O7_8 1_555 1_555
W9_8 O11_8 1_555 1_555
W10_8 O5_8 1_555 1_555
W10_8 O15_8 1_555 1_555
W11_8 O10_8 1_555 1_555
W11_8 O12_8 1_555 1_555
W11_8 O25_8 1_555 1_555
W12_8 O8_8 1_555 1_555
W12_8 O14_8 1_555 1_555
W12_8 O18_8 1_555 1_555
W12_8 O24_8 1_555 1_555
C6_8 C7_8 1_555 1_555
C9_8 C10_8 1_555 1_555
W13_2 O3_8 1_555 1_555
W5_8 O3_8 1_555 1_555
W6_8 O3_8 1_555 1_555
W7_8 O2_8 1_555 1_555
W8_8 O2_8 1_555 1_555
O2_8 B1_8 1_555 1_555
O3_8 B1_8 1_555 1_555
O6_8 W6_8 1_555 1_555
O9_8 W1_8 1_555 1_555
O13_8 W1_8 1_555 1_555
O16_8 W13_2 1_555 1_555
O17_8 W8_8 1_555 1_555
O19_8 W1_8 1_555 1_555
O20_8 W13_2 1_555 1_555
O22_8 W5_8 1_555 1_555
O23_8 W13_2 1_555 1_555
O26_8 W1_8 1_555 1_555
O28_8 W7_8 1_555 1_555
O31_8 W8_8 1_555 1_555
O32_8 W1_8 1_555 1_555
O33_8 W5_8 1_555 1_555
O36_8 W6_8 1_555 1_555
O37_8 W7_8 1_555 1_555
H13_8 C8_8 1_555 1_555
H14_8 C8_8 1_555 1_555
W5_8 O23_8 1_555 1_555
W5_8 O27_8 1_555 1_555
W6_8 O9_8 1_555 1_555
W6_8 O16_8 1_555 1_555
W6_8 O22_8 1_555 1_555
W7_8 O20_8 1_555 1_555
W8_8 O6_8 1_555 1_555
W8_8 O26_8 1_555 1_555
W8_8 O37_8 1_555 1_555

#END
