
###############################################################################
#
# This file contains modified crystal structure data generated from the
# MOF subset of the Cambridge Structural Database (CSD) v543 
# hosted by the Cambridge Crystallographic Data Centre (CCDC).
#
# This work is licensed under the Creative Commons
# Attribution-NonCommercial-ShareAlike 4.0 International License.
# To view a copy of this license, visit
# http://creativecommons.org/licenses/by-nc-sa/4.0/
# or send a letter to
# Creative Commons, PO Box 1866, Mountain View, CA 94042, USA.
#
# CIF created using the CSD Python API on 29 September 2022
# The structure has been converted into the P1 space group
# The structure has a 3D framework
# The original CSD entry ECEZAO01 is in the monoclinic crystal system
# The framework has been calculated to contain at least 10.0% void space
# The void calculation uses a probe of radius 1.32A, grid spacing 0.4
# H atom positions have been added when not included in the experimental data
# Generated hydrogen atom positions removed from atoms on special positions
#
###############################################################################

data_ECEZAO01
_chemical_formula_moiety         '(C32 H88 Ni13 O29)n'
_symmetry_cell_setting           triclinic
_symmetry_space_group_name_H-M   'P 1'
_symmetry_Int_Tables_number      1
_space_group_name_Hall           'P 1'
loop_
_symmetry_equiv_pos_site_id
_symmetry_equiv_pos_as_xyz
1 x,y,z
_cell_length_a                   20.0967(10)
_cell_length_b                   9.9992(5)
_cell_length_c                   6.3722(4)
_cell_angle_alpha                90
_cell_angle_beta                 97.086(3)
_cell_angle_gamma                90
_cell_volume                     1270.72
loop_
_atom_site_label
_atom_site_type_symbol
_atom_site_fract_x
_atom_site_fract_y
_atom_site_fract_z
Ni2 Ni 0.0000 0.0000 0.0000
O3 O 0.02899(13) -0.0000 0.3170(4)
Ni5 Ni 0.0000 0.15118(5) 0.5000
Ni7 Ni 0.5000 0.34882(5) 0.5000
Ni9 Ni 0.5000 0.5000 0.0000
O7 O 0.40489(10) 0.3347(2) 0.3451(3)
O12 O 0.42746(10) 0.3524(2) 0.0112(3)
C7 C 0.31787(19) 0.2863(8) 0.0703(6)
H8 H 0.3293 0.1910 0.0766
C9 C 0.20326(19) 0.2189(8) 0.1481(6)
H10 H 0.1710 0.2725 0.2122
H13 H 0.2007 0.1289 0.2033
C13 C 0.27161(18) 0.2724(6) 0.2238(5)
H17 H 0.2662 0.3595 0.2864
H20 H 0.2919 0.2141 0.3354
C16 C 0.38862(13) 0.3276(3) 0.1497(4)
Ni2_2 Ni 0.0000 -0.0000 1.0000
Ni9_2 Ni 0.5000 0.5000 1.0000
O6 O 0.09511(10) 0.1653(2) 0.6549(3)
O11 O 0.07254(10) 0.1476(2) 0.9888(3)
C6 C 0.18213(19) 0.2137(8) 0.9297(6)
H7 H 0.1707 0.3090 0.9234
C10 C 0.29674(19) 0.2811(8) 0.8519(6)
H11 H 0.3290 0.2275 0.7878
H14 H 0.2993 0.3711 0.7967
C12 C 0.22839(18) 0.2276(6) 0.7762(5)
H16 H 0.2338 0.1405 0.7136
H19 H 0.2081 0.2859 0.6646
C15 C 0.11138(13) 0.1724(3) 0.8503(4)
Ni2_3 Ni 0.0000 1.0000 0.0000
O3_2 O 0.02899(13) 1.0000 0.3170(4)
C2 C 0.20326(19) 0.7811(8) 0.1481(6)
H2 H 0.1710 0.7275 0.2122
H3 H 0.2007 0.8711 0.2033
Ni3 Ni 0.5000 0.65118(5) 0.5000
Ni4 Ni -0.0000 0.84882(5) 0.5000
O5 O 0.40489(10) 0.6653(2) 0.3451(3)
O9 O 0.59511(10) 0.6653(2) 0.6549(3)
O10 O 0.42746(10) 0.6476(2) 0.0112(3)
O17 O 0.52899(13) 0.5000 0.3170(4)
O18 O 0.47101(13) 0.5000 0.6830(4)
O20 O 0.46624(11) 0.8013(2) 0.6998(3)
O21 O 0.53376(11) 0.8013(2) 0.3002(3)
C5 C 0.31787(19) 0.7137(8) 0.0703(6)
H6 H 0.3293 0.8090 0.0766
C11 C 0.27161(18) 0.7276(6) 0.2238(5)
H15 H 0.2662 0.6405 0.2864
H18 H 0.2919 0.7859 0.3354
C14 C 0.38862(13) 0.6724(3) 0.1497(4)
Ni2_4 Ni 0.0000 1.0000 1.0000
O1 O 0.09511(10) 0.8347(2) 0.6549(3)
O2 O 0.07254(10) 0.8524(2) 0.9888(3)
O4 O 0.03376(11) 0.6987(2) 0.3002(3)
C1 C 0.18213(19) 0.7863(8) 0.9297(6)
H1 H 0.1707 0.6910 0.9234
C3 C 0.22839(18) 0.7724(6) 0.7762(5)
H4 H 0.2338 0.8595 0.7136
H5 H 0.2081 0.7141 0.6646
C4 C 0.11138(13) 0.8276(3) 0.8503(4)
C8 C 0.29674(19) 0.7189(8) 0.8519(6)
H9 H 0.3290 0.7725 0.7878
H12 H 0.2993 0.6289 0.7967
Ni2_5 Ni 1.0000 0.0000 0.0000
Ni5_2 Ni 1.0000 0.15118(5) 0.5000
O13 O 0.92746(10) 0.1476(2) 0.0112(3)
Ni2_6 Ni 1.0000 -0.0000 1.0000
O15 O 0.97101(13) 0.0000 0.6830(4)
Ni2_7 Ni 1.0000 1.0000 0.0000
Ni4_2 Ni 1.0000 0.84882(5) 0.5000
O14 O 0.92746(10) 0.8524(2) 0.0112(3)
Ni2_8 Ni 1.0000 1.0000 1.0000
O8 O 0.90489(10) 0.8347(2) 0.3451(3)
O15_2 O 0.97101(13) 1.0000 0.6830(4)
O19 O 0.96624(11) 0.6987(2) 0.6998(3)
H22 H 0.99681 0.674762 0.188359
O21_2 O 0.03376(11) 0.3013(2) 0.3002(3)
H24 H 0.00319011 0.325238 0.811641
C2_2 C 0.70326(19) 0.2811(8) 0.1481(6)
H2_2 H 0.6710 0.2275 0.2122
H3_2 H 0.7007 0.3711 0.2033
O5_2 O 0.90489(10) 0.1653(2) 0.3451(3)
O20_2 O 0.96624(11) 0.3013(2) 0.6998(3)
C5_2 C 0.81787(19) 0.2137(8) 0.0703(6)
C7_2 C 0.81787(19) 0.7863(8) 0.0703(6)
H6_2 H 0.8293 0.3090 0.0766
H8_2 H 0.8293 0.6910 0.0766
C9_2 C 0.70326(19) 0.7189(8) 0.1481(6)
H10_2 H 0.6710 0.7725 0.2122
H13_2 H 0.7007 0.6289 0.2033
C11_2 C 0.77161(18) 0.2276(6) 0.2238(5)
C13_2 C 0.77161(18) 0.7724(6) 0.2238(5)
H15_2 H 0.7662 0.1405 0.2864
H17_2 H 0.7662 0.8595 0.2864
H18_2 H 0.7919 0.2859 0.3354
H20_2 H 0.7919 0.7141 0.3354
C14_2 C 0.88862(13) 0.1724(3) 0.1497(4)
C16_2 C 0.88862(13) 0.8276(3) 0.1497(4)
O1_2 O 0.59511(10) 0.3347(2) 0.6549(3)
O2_2 O 0.57254(10) 0.3524(2) 0.9888(3)
O4_2 O 0.53376(11) 0.1987(2) 0.3002(3)
C1_2 C 0.68213(19) 0.2863(8) 0.9297(6)
H1_2 H 0.6707 0.1910 0.9234
C3_2 C 0.72839(18) 0.2724(6) 0.7762(5)
H4_2 H 0.7338 0.3595 0.7136
H5_2 H 0.7081 0.2141 0.6646
C4_2 C 0.61138(13) 0.3276(3) 0.8503(4)
O11_2 O 0.57254(10) 0.6476(2) 0.9888(3)
O19_2 O 0.46624(11) 0.1987(2) 0.6998(3)
C6_2 C 0.68213(19) 0.7137(8) 0.9297(6)
H7_2 H 0.6707 0.8090 0.9234
C8_2 C 0.79674(19) 0.2189(8) 0.8519(6)
C10_2 C 0.79674(19) 0.7811(8) 0.8519(6)
H9_2 H 0.8290 0.2725 0.7878
H11_2 H 0.8290 0.7275 0.7878
H12_2 H 0.7993 0.1289 0.7967
H14_2 H 0.7993 0.8711 0.7967
C12_2 C 0.72839(18) 0.7276(6) 0.7762(5)
H16_2 H 0.7338 0.6405 0.7136
H19_2 H 0.7081 0.7859 0.6646
C15_2 C 0.61138(13) 0.6724(3) 0.8503(4)
H22_2 H 0.00319011 0.674762 0.811641
H24_2 H 0.99681 0.325238 0.188359
loop_
_geom_bond_atom_site_label_1
_geom_bond_atom_site_label_2
_geom_bond_site_symmetry_1
_geom_bond_site_symmetry_2
O3 Ni2 1_555 1_555
Ni5 O3 1_555 1_555
Ni7 O7 1_555 1_555
Ni9 O12 1_555 1_555
O7 C16 1_555 1_555
O12 C16 1_555 1_555
C7 H8 1_555 1_555
H10 C9 1_555 1_555
H13 C9 1_555 1_555
C13 C7 1_555 1_555
H17 C13 1_555 1_555
H20 C13 1_555 1_555
C16 C7 1_555 1_555
C9 C13 1_555 1_555
Ni5 O6 1_555 1_555
O6 C15 1_555 1_555
O11 Ni2_2 1_555 1_555
C6 H7 1_555 1_555
H11 C10 1_555 1_555
H14 C10 1_555 1_555
C12 C6 1_555 1_555
H16 C12 1_555 1_555
H19 C12 1_555 1_555
C15 O11 1_555 1_555
C6 C15 1_555 1_555
C10 C12 1_555 1_555
O3_2 Ni2_3 1_555 1_555
H2 C2 1_555 1_555
H3 C2 1_555 1_555
Ni3 O5 1_555 1_555
Ni4 O3_2 1_555 1_555
Ni9 O10 1_555 1_555
O5 C14 1_555 1_555
O9 Ni3 1_555 1_555
O10 C14 1_555 1_555
O17 Ni3 1_555 1_555
O18 Ni3 1_555 1_555
O20 Ni3 1_555 1_555
O21 Ni3 1_555 1_555
C5 H6 1_555 1_555
C11 C2 1_555 1_555
H15 C11 1_555 1_555
H18 C11 1_555 1_555
C14 C5 1_555 1_555
Ni9 O17 1_555 1_555
C5 C11 1_555 1_555
Ni4 O1 1_555 1_555
Ni2_4 O2 1_555 1_555
O1 C4 1_555 1_555
O2 C4 1_555 1_555
O4 Ni4 1_555 1_555
C1 H1 1_555 1_555
C3 C1 1_555 1_555
H4 C3 1_555 1_555
H5 C3 1_555 1_555
C4 C1 1_555 1_555
C8 C3 1_555 1_555
H9 C8 1_555 1_555
H12 C8 1_555 1_555
O13 Ni2_5 1_555 1_555
Ni2_6 O15 1_555 1_555
Ni5_2 O15 1_555 1_555
O14 Ni2_7 1_555 1_555
O8 Ni4_2 1_555 1_555
O15_2 Ni4_2 1_555 1_555
O19 Ni4_2 1_555 1_555
Ni2_8 O15_2 1_555 1_555
O21_2 Ni5 1_555 1_555
H2_2 C2_2 1_555 1_555
H3_2 C2_2 1_555 1_555
Ni5_2 O5_2 1_555 1_555
Ni7 O17 1_555 1_555
O5_2 C14_2 1_555 1_555
O8 C16_2 1_555 1_555
O13 C14_2 1_555 1_555
O14 C16_2 1_555 1_555
O20_2 Ni5_2 1_555 1_555
C5_2 H6_2 1_555 1_555
C7_2 H8_2 1_555 1_555
H10_2 C9_2 1_555 1_555
H13_2 C9_2 1_555 1_555
C11_2 C2_2 1_555 1_555
C13_2 C7_2 1_555 1_555
H15_2 C11_2 1_555 1_555
H17_2 C13_2 1_555 1_555
H18_2 C11_2 1_555 1_555
H20_2 C13_2 1_555 1_555
C14_2 C5_2 1_555 1_555
C16_2 C7_2 1_555 1_555
C5_2 C11_2 1_555 1_555
C9_2 C13_2 1_555 1_555
Ni7 O1_2 1_555 1_555
Ni9_2 O2_2 1_555 1_555
O1_2 C4_2 1_555 1_555
O2_2 C4_2 1_555 1_555
O4_2 Ni7 1_555 1_555
C1_2 H1_2 1_555 1_555
C3_2 C1_2 1_555 1_555
H4_2 C3_2 1_555 1_555
H5_2 C3_2 1_555 1_555
C4_2 C1_2 1_555 1_555
O9 C15_2 1_555 1_555
O11_2 Ni9_2 1_555 1_555
O18 Ni7 1_555 1_555
O19_2 Ni7 1_555 1_555
C6_2 H7_2 1_555 1_555
C8_2 C3_2 1_555 1_555
H9_2 C8_2 1_555 1_555
H11_2 C10_2 1_555 1_555
H12_2 C8_2 1_555 1_555
H14_2 C10_2 1_555 1_555
C12_2 C6_2 1_555 1_555
H16_2 C12_2 1_555 1_555
H19_2 C12_2 1_555 1_555
C15_2 O11_2 1_555 1_555
Ni9_2 O18 1_555 1_555
C6_2 C15_2 1_555 1_555
C10_2 C12_2 1_555 1_555

#END
