
###############################################################################
#
# This file contains modified crystal structure data generated from the
# MOF subset of the Cambridge Structural Database (CSD) v543 
# hosted by the Cambridge Crystallographic Data Centre (CCDC).
#
# This work is licensed under the Creative Commons
# Attribution-NonCommercial-ShareAlike 4.0 International License.
# To view a copy of this license, visit
# http://creativecommons.org/licenses/by-nc-sa/4.0/
# or send a letter to
# Creative Commons, PO Box 1866, Mountain View, CA 94042, USA.
#
# CIF created using the CSD Python API on 29 September 2022
# The structure has been converted into the P1 space group
# The structure has a 3D framework
# The original CSD entry ECEZAO is in the monoclinic crystal system
# The framework has been calculated to contain at least 10.0% void space
# The void calculation uses a probe of radius 1.32A, grid spacing 0.4
# H atom positions have been added when not included in the experimental data
# Generated hydrogen atom positions removed from atoms on special positions
#
###############################################################################

data_ECEZAO
_chemical_formula_moiety         '(C32 H99 Ni14 O29)n'
_symmetry_cell_setting           triclinic
_symmetry_space_group_name_H-M   'P 1'
_symmetry_Int_Tables_number      1
_space_group_name_Hall           'P 1'
loop_
_symmetry_equiv_pos_site_id
_symmetry_equiv_pos_as_xyz
1 x,y,z
_cell_length_a                   20.112(3)
_cell_length_b                   10.056(1)
_cell_length_c                   6.3805(8)
_cell_angle_alpha                90
_cell_angle_beta                 97.108(4)
_cell_angle_gamma                90
_cell_volume                     1280.51
loop_
_atom_site_label
_atom_site_type_symbol
_atom_site_fract_x
_atom_site_fract_y
_atom_site_fract_z
Ni3 Ni -0.0000 0.34972(7) 0.0000
O9 O 0.0949(1) 0.3356(3) 0.1553(4)
H31 H 0.00271125 0.17586 0.311229
Ni3_2 Ni -0.0000 0.34972(7) 1.0000
Ni8 Ni -0.0000 0.5000 0.5000
O18 O 0.0288(2) 0.5000 0.8170(5)
O21 O 0.0341(1) 0.1998(3) 0.8008(4)
Ni5 Ni -0.0000 0.65028(7) 0.0000
Ni5_2 Ni -0.0000 0.65028(7) 1.0000
Ni3_3 Ni 1.0000 0.34972(7) 0.0000
Ni6 Ni 0.5000 0.15028(7) 0.0000
O17 O 0.9712(2) 0.5000 0.1830(5)
O20 O 0.9659(1) 0.1998(3) 0.1992(4)
Ni2 Ni 0.5000 -0.0000 0.5000
O1 O 0.5949(1) 0.1644(3) 0.1553(4)
O2 O 0.5728(1) 0.1463(3) 0.4884(4)
O3 O 0.4712(2) 0.0000 0.1830(5)
C1 C 0.6826(2) 0.2084(9) 0.4297(7)
C2 C 0.7039(2) 0.2153(9) 0.6500(7)
C3 C 0.7286(2) 0.2247(8) 0.2748(7)
C4 C 0.6114(2) 0.1713(4) 0.3501(6)
H1 H 0.6730 0.2970 0.4241
H2 H 0.6905 0.3111 0.5861
H3 H 0.6698 0.2348 0.7491
H4 H 0.7183 0.2108 0.1397
H5 H 0.7147 0.3117 0.3126
H6 H 0.4235 -0.0000 0.1573
Ni3_4 Ni 1.0000 0.34972(7) 1.0000
Ni6_2 Ni 0.5000 0.15028(7) 1.0000
Ni8_2 Ni 1.0000 0.5000 0.5000
O5 O 0.9051(1) 0.3356(3) 0.8447(4)
O10 O 0.9272(1) 0.3537(3) 0.5116(4)
O14 O 0.4272(1) 0.1463(3) 0.5116(4)
O15 O 0.5288(2) -0.0000 0.8170(5)
O19 O 0.4659(1) 0.3002(3) 0.1992(4)
C5 C 0.8174(2) 0.2916(9) 0.5703(7)
C8 C 0.7961(2) 0.2847(9) 0.3500(7)
C11 C 0.7714(2) 0.2753(8) 0.7252(7)
C14 C 0.8886(2) 0.3287(4) 0.6499(6)
H7 H 0.8270 0.2030 0.5759
H10 H 0.8095 0.1889 0.4139
H13 H 0.8302 0.2652 0.2509
H16 H 0.7817 0.2892 0.8603
H19 H 0.7853 0.1883 0.6874
H22 H 0.5765 -0.0000 0.8427
O4 O 0.5341(1) 0.3002(3) 0.8008(4)
O8 O 0.4051(1) 0.1644(3) 0.8447(4)
Ni5_3 Ni 1.0000 0.65028(7) 0.0000
Ni7 Ni 0.5000 0.84972(7) 0.0000
Ni2_2 Ni 0.5000 1.0000 0.5000
O3_2 O 0.4712(2) 1.0000 0.1830(5)
H6_2 H 0.4235 1.0000 0.1573
Ni5_4 Ni 1.0000 0.65028(7) 1.0000
Ni7_2 Ni 0.5000 0.84972(7) 1.0000
O6 O 0.5949(1) 0.8356(3) 0.1553(4)
O7 O 0.9051(1) 0.6644(3) 0.8447(4)
O11 O 0.5728(1) 0.8537(3) 0.4884(4)
O12 O 0.9272(1) 0.6463(3) 0.5116(4)
O13 O 0.4272(1) 0.8537(3) 0.5116(4)
O15_2 O 0.5288(2) 1.0000 0.8170(5)
C6 C 0.6826(2) 0.7916(9) 0.4297(7)
C7 C 0.8174(2) 0.7084(9) 0.5703(7)
C9 C 0.7039(2) 0.7847(9) 0.6500(7)
C10 C 0.7961(2) 0.7153(9) 0.3500(7)
C12 C 0.7286(2) 0.7753(8) 0.2748(7)
C13 C 0.7714(2) 0.7247(8) 0.7252(7)
C15 C 0.6114(2) 0.8287(4) 0.3501(6)
C16 C 0.8886(2) 0.6713(4) 0.6499(6)
H8 H 0.6730 0.7030 0.4241
H9 H 0.8270 0.7970 0.5759
H11 H 0.6905 0.6889 0.5861
H12 H 0.8095 0.8111 0.4139
H14 H 0.6698 0.7652 0.7491
H15 H 0.8302 0.7348 0.2509
H17 H 0.7183 0.7892 0.1397
H18 H 0.7817 0.7108 0.8603
H20 H 0.7147 0.6883 0.3126
H21 H 0.7853 0.8117 0.6874
H22_2 H 0.5765 1.0000 0.8427
H32 H 0.489523 0.0863567 0.141034
O20_2 O 0.4659(1) 0.6998(3) 0.1992(4)
O1_2 O 0.0949(1) 0.6644(3) 0.1553(4)
O2_2 O 0.0728(1) 0.6463(3) 0.4884(4)
C1_2 C 0.1826(2) 0.7084(9) 0.4297(7)
C2_2 C 0.2039(2) 0.7153(9) 0.6500(7)
C3_2 C 0.2286(2) 0.7247(8) 0.2748(7)
C4_2 C 0.1114(2) 0.6713(4) 0.3501(6)
H1_2 H 0.1730 0.7970 0.4241
H2_2 H 0.1905 0.8111 0.5861
H3_2 H 0.1698 0.7348 0.7491
H4_2 H 0.2183 0.7108 0.1397
H5_2 H 0.2147 0.8117 0.3126
O5_2 O 0.4051(1) 0.8356(3) 0.8447(4)
O11_2 O 0.0728(1) 0.3537(3) 0.4884(4)
O21_2 O 0.5341(1) 0.6998(3) 0.8008(4)
C5_2 C 0.3174(2) 0.7916(9) 0.5703(7)
C6_2 C 0.1826(2) 0.2916(9) 0.4297(7)
C7_2 C 0.3174(2) 0.2084(9) 0.5703(7)
C8_2 C 0.2961(2) 0.7847(9) 0.3500(7)
C9_2 C 0.2039(2) 0.2847(9) 0.6500(7)
C10_2 C 0.2961(2) 0.2153(9) 0.3500(7)
C11_2 C 0.2714(2) 0.7753(8) 0.7252(7)
C12_2 C 0.2286(2) 0.2753(8) 0.2748(7)
C13_2 C 0.2714(2) 0.2247(8) 0.7252(7)
C14_2 C 0.3886(2) 0.8287(4) 0.6499(6)
C15_2 C 0.1114(2) 0.3287(4) 0.3501(6)
C16_2 C 0.3886(2) 0.1713(4) 0.6499(6)
H7_2 H 0.3270 0.7030 0.5759
H8_2 H 0.1730 0.2030 0.4241
H9_2 H 0.3270 0.2970 0.5759
H10_2 H 0.3095 0.6889 0.4139
H11_2 H 0.1905 0.1889 0.5861
H12_2 H 0.3095 0.3111 0.4139
H13_2 H 0.3302 0.7652 0.2509
H14_2 H 0.1698 0.2652 0.7491
H15_2 H 0.3302 0.2348 0.2509
H16_2 H 0.2817 0.7892 0.8603
H17_2 H 0.2183 0.2892 0.1397
H18_2 H 0.2817 0.2108 0.8603
H19_2 H 0.2853 0.6883 0.6874
H20_2 H 0.2147 0.1883 0.3126
H21_2 H 0.2853 0.3117 0.6874
O4_2 O 0.0341(1) 0.8002(3) 0.8008(4)
O19_2 O 0.9659(1) 0.8002(3) 0.1992(4)
H27 H 0.997289 0.82414 0.688771
H31_2 H 0.997289 0.17586 0.688771
H27_2 H 0.00271125 0.82414 0.311229
H32_2 H 0.510477 0.0863567 0.858966
H32_3 H 0.510477 0.913643 0.858966
H32_4 H 0.489523 0.913643 0.141034
loop_
_geom_bond_atom_site_label_1
_geom_bond_atom_site_label_2
_geom_bond_site_symmetry_1
_geom_bond_site_symmetry_2
O9 Ni3 1_555 1_555
O18 Ni3_2 1_555 1_555
O21 Ni3_2 1_555 1_555
Ni8 O18 1_555 1_555
O17 Ni3_3 1_555 1_555
O20 Ni3_3 1_555 1_555
Ni6 O1 1_555 1_555
Ni2 O2 1_555 1_555
O1 C4 1_555 1_555
O2 C4 1_555 1_555
O3 Ni6 1_555 1_555
C1 C2 1_555 1_555
C2 H2 1_555 1_555
C3 C1 1_555 1_555
C4 C1 1_555 1_555
H1 C1 1_555 1_555
H3 C2 1_555 1_555
H4 C3 1_555 1_555
H5 C3 1_555 1_555
H6 O3 1_555 1_555
Ni3_4 O5 1_555 1_555
Ni6_2 O15 1_555 1_555
Ni8_2 O10 1_555 1_555
O5 C14 1_555 1_555
O10 C14 1_555 1_555
O14 Ni2 1_555 1_555
O15 Ni2 1_555 1_555
O19 Ni6 1_555 1_555
C5 C8 1_555 1_555
C8 C3 1_555 1_555
C11 C2 1_555 1_555
C14 C5 1_555 1_555
H7 C5 1_555 1_555
H10 C8 1_555 1_555
H13 C8 1_555 1_555
H16 C11 1_555 1_555
H19 C11 1_555 1_555
H22 O15 1_555 1_555
Ni2 O3 1_555 1_555
C5 C11 1_555 1_555
O4 Ni6_2 1_555 1_555
O8 Ni6_2 1_555 1_555
H6_2 O3_2 1_555 1_555
Ni7 O3_2 1_555 1_555
Ni5_4 O7 1_555 1_555
Ni7_2 O15_2 1_555 1_555
Ni8_2 O12 1_555 1_555
O6 Ni7 1_555 1_555
O7 C16 1_555 1_555
O11 Ni2_2 1_555 1_555
O12 C16 1_555 1_555
O13 Ni2_2 1_555 1_555
O15_2 Ni2_2 1_555 1_555
C6 C9 1_555 1_555
C7 C10 1_555 1_555
C9 C13 1_555 1_555
C10 C12 1_555 1_555
C12 C6 1_555 1_555
C13 C7 1_555 1_555
C15 O6 1_555 1_555
C16 C7 1_555 1_555
H8 C6 1_555 1_555
H9 C7 1_555 1_555
H11 C9 1_555 1_555
H12 C10 1_555 1_555
H14 C9 1_555 1_555
H15 C10 1_555 1_555
H17 C12 1_555 1_555
H18 C13 1_555 1_555
H20 C12 1_555 1_555
H21 C13 1_555 1_555
H22_2 O15_2 1_555 1_555
Ni2_2 O3_2 1_555 1_555
O11 C15 1_555 1_555
C6 C15 1_555 1_555
O3 H32 1_555 1_555
O20_2 Ni7 1_555 1_555
Ni5 O1_2 1_555 1_555
Ni8 O2_2 1_555 1_555
O1_2 C4_2 1_555 1_555
O2_2 C4_2 1_555 1_555
C1_2 C2_2 1_555 1_555
C2_2 H2_2 1_555 1_555
C3_2 C1_2 1_555 1_555
C4_2 C1_2 1_555 1_555
H1_2 C1_2 1_555 1_555
H3_2 C2_2 1_555 1_555
H4_2 C3_2 1_555 1_555
H5_2 C3_2 1_555 1_555
Ni7_2 O5_2 1_555 1_555
Ni5_2 O18 1_555 1_555
O5_2 C14_2 1_555 1_555
O8 C16_2 1_555 1_555
O13 C14_2 1_555 1_555
O11_2 Ni8 1_555 1_555
O14 C16_2 1_555 1_555
O21_2 Ni7_2 1_555 1_555
C5_2 C8_2 1_555 1_555
C6_2 C9_2 1_555 1_555
C7_2 C10_2 1_555 1_555
C8_2 C3_2 1_555 1_555
C9_2 C13_2 1_555 1_555
C10_2 C12_2 1_555 1_555
C11_2 C2_2 1_555 1_555
C12_2 C6_2 1_555 1_555
C13_2 C7_2 1_555 1_555
C14_2 C5_2 1_555 1_555
C15_2 O9 1_555 1_555
C16_2 C7_2 1_555 1_555
H7_2 C5_2 1_555 1_555
H8_2 C6_2 1_555 1_555
H9_2 C7_2 1_555 1_555
H10_2 C8_2 1_555 1_555
H11_2 C9_2 1_555 1_555
H12_2 C10_2 1_555 1_555
H13_2 C8_2 1_555 1_555
H14_2 C9_2 1_555 1_555
H15_2 C10_2 1_555 1_555
H16_2 C11_2 1_555 1_555
H17_2 C12_2 1_555 1_555
H18_2 C13_2 1_555 1_555
H19_2 C11_2 1_555 1_555
H20_2 C12_2 1_555 1_555
H21_2 C13_2 1_555 1_555
O11_2 C15_2 1_555 1_555
C5_2 C11_2 1_555 1_555
C6_2 C15_2 1_555 1_555
O4_2 Ni5_2 1_555 1_555
O17 Ni5_3 1_555 1_555
O19_2 Ni5_3 1_555 1_555
Ni8_2 O17 1_555 1_555
O15 H32_2 1_555 1_555
O15_2 H32_3 1_555 1_555
O3_2 H32_4 1_555 1_555

#END
