
###############################################################################
#
# This file contains modified crystal structure data generated from the
# MOF subset of the Cambridge Structural Database (CSD) v543 
# hosted by the Cambridge Crystallographic Data Centre (CCDC).
#
# This work is licensed under the Creative Commons
# Attribution-NonCommercial-ShareAlike 4.0 International License.
# To view a copy of this license, visit
# http://creativecommons.org/licenses/by-nc-sa/4.0/
# or send a letter to
# Creative Commons, PO Box 1866, Mountain View, CA 94042, USA.
#
# CIF created using the CSD Python API on 29 September 2022
# The structure has been converted into the P1 space group
# The structure has a 3D framework
# The original CSD entry ECINUC is in the hexagonal crystal system
# The original CSD entry ECINUC is in a Sohncke space group
# The framework has been calculated to contain at least 10.0% void space
# The void calculation uses a probe of radius 1.32A, grid spacing 0.4
# H atom positions have been added when not included in the experimental data
# Generated hydrogen atom positions removed from atoms on special positions
#
###############################################################################

data_ECINUC
_chemical_formula_moiety         '(C192 H120 O42 Yb6)n'
_symmetry_cell_setting           triclinic
_symmetry_space_group_name_H-M   'P 1'
_symmetry_Int_Tables_number      1
_space_group_name_Hall           'P 1'
loop_
_symmetry_equiv_pos_site_id
_symmetry_equiv_pos_as_xyz
1 x,y,z
_cell_length_a                   18.0081(15)
_cell_length_b                   18.0081(15)
_cell_length_c                   21.8141(13)
_cell_angle_alpha                90
_cell_angle_beta                 90
_cell_angle_gamma                120
_cell_volume                     6126.38
loop_
_atom_site_label
_atom_site_type_symbol
_atom_site_fract_x
_atom_site_fract_y
_atom_site_fract_z
Yb3 Yb 0.17564(3) 0.08782(2) 0.083334
O1 O 0.0411(3) 0.1053(3) 0.39924(15)
O2 O 0.1509(3) 0.1980(3) 0.34230(17)
O3 O 0.7570(4) 0.7793(3) 0.6191(2)
C1 C 0.2703(5) 0.2703(5) 0.666667
H1 H 0.218681 0.218682 0.666668
C2 C 0.1181(5) 0.1667(5) 0.3926(2)
C3 C 0.1712(4) 0.2022(4) 0.4490(2)
C4 C 0.1421(4) 0.1569(4) 0.5039(2)
H2 H 0.092914 0.103123 0.504374
C5 C 0.1868(4) 0.1926(4) 0.5580(2)
H3 H 0.166597 0.163365 0.594853
C6 C 0.3789(4) 0.3825(4) 0.6129(2)
H4 H 0.402661 0.408611 0.575642
C7 C 0.3076(5) 0.3111(5) 0.6157(3)
C8 C 0.6537(6) 0.6537(6) 0.666667
C9 C 0.7373(6) 0.7373(6) 0.666667
C10 C 0.2611(5) 0.2711(5) 0.5569(2)
C11 C 0.6071(5) 0.6222(5) 0.6150(3)
H5 H 0.626697 0.654324 0.579169
C12 C 0.2458(5) 0.2786(5) 0.4475(3)
H6 H 0.267734 0.305781 0.410228
C13 C 0.2888(5) 0.3159(5) 0.5010(3)
H7 H 0.336350 0.370881 0.500288
C14 C 0.4984(6) 0.4984(6) 0.666667
C15 C 0.5320(5) 0.5447(5) 0.6127(3)
H8 H 0.503942 0.523356 0.575582
C16 C 0.4176(5) 0.4176(5) 0.666667
O5 O 0.1053(3) 0.0411(3) 0.93409(15)
O6 O 0.1980(3) 0.1509(3) 0.99103(17)
O7 O 0.7793(3) 0.7570(4) 0.7142(2)
C17 C 0.1667(5) 0.1181(5) 0.9407(2)
C18 C 0.2022(4) 0.1712(4) 0.8843(2)
C19 C 0.1569(4) 0.1421(4) 0.8294(2)
H9 H 0.103123 0.092914 0.828959
C20 C 0.1926(4) 0.1868(4) 0.7753(2)
H10 H 0.163365 0.166597 0.738480
C21 C 0.3825(4) 0.3789(4) 0.7204(2)
H11 H 0.408611 0.402661 0.757691
C22 C 0.3111(5) 0.3076(5) 0.7176(3)
C23 C 0.2711(5) 0.2611(5) 0.7764(2)
C24 C 0.6222(5) 0.6071(5) 0.7183(3)
H12 H 0.654324 0.626697 0.754164
C25 C 0.2786(5) 0.2458(5) 0.8858(3)
H13 H 0.305781 0.267734 0.923105
C26 C 0.3159(5) 0.2888(5) 0.8323(3)
H14 H 0.370881 0.336350 0.833045
C27 C 0.5447(5) 0.5320(5) 0.7206(3)
H15 H 0.523356 0.503942 0.757751
Yb2 Yb 0.91218(2) 0.82436(3) 0.750000
Yb5 Yb 0.08782(2) 0.17564(3) 0.250000
Yb6 Yb 0.82436(3) 0.91218(2) 0.583334
Yb4 Yb 0.08782(2) 0.91218(2) 0.916667
Yb1 Yb 0.91218(2) 0.08782(2) 0.416667
O4 O 0.8275(5) 0.1725(5) 0.416667
O9 O 0.9529(4) 0.1509(3) 0.50897(17)
O10 O 0.8491(3) 0.0471(4) 0.32437(17)
O11 O 0.7793(3) 0.0223(5) 0.4524(2)
O12 O 0.9777(5) 0.2207(3) 0.3809(2)
O8 O 0.8947(3) 0.9589(3) 0.43409(15)
O8_2 O 0.0411(3) 0.9358(4) 0.76743(15)
C1_2 C 0.7297(5) 0.0000(7) 0.000000
H1_2 H 0.781318 -0.000001 0.000001
C8_2 C 0.3463(6) 0.0000(8) 0.000000
C9_2 C 0.2627(6) 0.0000(8) 0.000000
C14_2 C 0.5016(6) 0.0000(8) 0.000000
C16_2 C 0.5824(5) 0.0000(7) 0.000000
O5_2 O 0.9589(3) 0.0642(4) 0.26743(15)
O7_2 O 0.2430(4) 0.0223(5) 0.0476(2)
C17_2 C 0.8819(5) 0.0486(7) 0.2741(2)
C18_2 C 0.8288(4) 0.0310(6) 0.2177(2)
C19_2 C 0.8579(4) 0.0148(6) 0.1628(2)
H9_2 H 0.907086 0.010209 0.162293
C20_2 C 0.8132(4) 0.0058(6) 0.1087(2)
C21_2 C 0.6211(4) 0.0036(6) 0.0538(2)
H11_2 H 0.597339 0.005950 0.091025
C22_2 C 0.6924(5) 0.0035(7) 0.0510(3)
C23_2 C 0.7389(5) 0.0100(7) 0.1098(2)
C24_2 C 0.3929(5) 0.0151(7) 0.0517(3)
H12_2 H 0.373303 0.027627 0.087498
C25_2 C 0.7542(5) 0.0328(7) 0.2192(3)
H13_2 H 0.732266 0.038047 0.256439
C26_2 C 0.7112(5) 0.0271(7) 0.1657(3)
H14_2 H 0.663650 0.034531 0.166379
C27_2 C 0.4680(5) 0.0127(7) 0.0540(3)
H15_2 H 0.496058 0.019414 0.091085
O1_2 O 0.8947(3) 0.9358(4) 0.73257(15)
O2_2 O 0.8020(3) 0.9529(4) 0.67563(17)
O3_2 O 0.2207(3) 0.9777(5) 0.9524(2)
C1_3 C 0.7297(5) 1.0000(7) 1.000000
H1_3 H 0.781318 0.999999 1.000001
C2_2 C 0.8333(5) 0.9514(7) 0.7259(2)
C3_2 C 0.7978(4) 0.9690(6) 0.7823(2)
C4_2 C 0.8431(4) 0.9852(6) 0.8372(2)
H2_2 H 0.896877 0.989791 0.837707
C5_2 C 0.8074(4) 0.9942(6) 0.8913(2)
C6_2 C 0.6175(4) 0.9964(6) 0.9462(2)
H4_2 H 0.591389 0.994050 0.908975
C7_2 C 0.6889(5) 0.9965(7) 0.9490(3)
C8_3 C 0.3463(6) 1.0000(8) 1.000000
C9_3 C 0.2627(6) 1.0000(8) 1.000000
C10_2 C 0.7289(5) 0.9900(7) 0.8902(2)
C11_2 C 0.3778(5) 0.9849(7) 0.9483(3)
H5_2 H 0.345676 0.972373 0.912502
C12_2 C 0.7214(5) 0.9672(7) 0.7808(3)
H6_2 H 0.694219 0.961953 0.743561
O4_2 O 0.8275(5) 0.6550(7) 0.750000
C13_2 C 0.6841(5) 0.9729(7) 0.8343(3)
H7_2 H 0.629119 0.965469 0.833621
C14_3 C 0.5016(6) 1.0000(8) 1.000000
C15_2 C 0.4553(5) 0.9873(7) 0.9460(3)
H8_2 H 0.476644 0.980586 0.908915
C16_3 C 0.5824(5) 1.0000(7) 1.000000
O9_2 O 0.8491(3) 0.8020(5) 0.84230(17)
O10_2 O 0.9529(4) 0.8020(5) 0.65770(17)
O11_2 O 0.9777(5) 0.7570(6) 0.7858(2)
O4_3 O 0.3450(7) 0.1725(5) 0.083334
O8_3 O 0.0642(4) 0.1053(3) 0.10076(15)
O9_3 O 0.1980(5) 0.0471(4) 0.17563(17)
O11_3 O 0.2430(6) 0.2207(3) 0.1191(2)
O1_3 O 0.0642(4) 0.9589(3) 0.06591(15)
O2_3 O 0.0471(4) 0.8491(3) 0.00897(17)
O3_3 O 0.0223(5) 0.2430(4) 0.2858(2)
C1_4 C -0.0000(7) 0.7297(5) 0.333334
H1_4 H 0.000001 0.781319 0.333335
C2_3 C 0.0486(7) 0.8819(5) 0.0593(2)
C3_3 C 0.0310(6) 0.8288(4) 0.1157(2)
C4_3 C 0.0148(6) 0.8579(4) 0.1706(2)
H2_3 H 0.010209 0.907086 0.171041
C5_3 C 0.0058(6) 0.8132(4) 0.2247(2)
C6_3 C 0.0036(6) 0.6211(4) 0.2796(2)
H4_3 H 0.005950 0.597339 0.242309
C7_3 C 0.0035(7) 0.6924(5) 0.2824(3)
C8_4 C -0.0000(8) 0.3463(6) 0.333334
C9_4 C -0.0000(8) 0.2627(6) 0.333334
C10_3 C 0.0100(7) 0.7389(5) 0.2236(2)
C11_3 C 0.0151(7) 0.3929(5) 0.2817(3)
H5_3 H 0.027627 0.373303 0.245836
C12_3 C 0.0328(7) 0.7542(5) 0.1142(3)
H6_3 H 0.038047 0.732266 0.076895
C13_3 C 0.0271(7) 0.7112(5) 0.1677(3)
H7_3 H 0.034531 0.663650 0.166955
C14_4 C -0.0000(8) 0.5016(6) 0.333334
C15_3 C 0.0127(7) 0.4680(5) 0.2794(3)
H8_3 H 0.019414 0.496058 0.242249
C16_4 C -0.0000(7) 0.5824(5) 0.333334
H10_2 H 0.003232 0.836635 0.405147
C1_5 C 1.0000(7) 0.7297(5) 0.333334
H1_5 H 1.000001 0.781319 0.333335
H3_2 H 0.996768 0.833403 0.261520
C8_5 C 1.0000(8) 0.3463(6) 0.333334
C9_5 C 1.0000(8) 0.2627(6) 0.333334
C14_5 C 1.0000(8) 0.5016(6) 0.333334
C16_5 C 1.0000(7) 0.5824(5) 0.333334
O5_3 O 0.9358(4) 0.8947(3) 0.60076(15)
C17_3 C 0.9514(7) 0.8333(5) 0.6074(2)
C18_3 C 0.9690(6) 0.7978(4) 0.5510(2)
C19_3 C 0.9852(6) 0.8431(4) 0.4961(2)
H9_3 H 0.989791 0.896877 0.495626
C20_3 C 0.9942(6) 0.8074(4) 0.4420(2)
C21_3 C 0.9964(6) 0.6175(4) 0.3871(2)
H11_3 H 0.994050 0.591389 0.424358
C22_3 C 0.9965(7) 0.6889(5) 0.3843(3)
C23_3 C 0.9900(7) 0.7289(5) 0.4431(2)
C24_3 C 0.9849(7) 0.3778(5) 0.3850(3)
H12_3 H 0.972373 0.345676 0.420831
C25_3 C 0.9672(7) 0.7214(5) 0.5525(3)
H13_3 H 0.961953 0.694219 0.589772
C26_3 C 0.9729(7) 0.6841(5) 0.4990(3)
H14_3 H 0.965469 0.629119 0.499712
C27_3 C 0.9873(7) 0.4553(5) 0.3873(3)
H15_3 H 0.980586 0.476644 0.424418
O4_4 O 0.1725(5) 0.8275(5) 0.916667
O10_3 O 0.1509(3) 0.9529(4) 0.82437(17)
O12_2 O 0.0223(5) 0.7793(3) 0.8809(2)
C1_6 C 0.7297(5) 0.7297(5) 0.166667
H1_6 H 0.781319 0.781318 0.166668
C4_4 C 0.8579(4) 0.8431(4) 0.0039(2)
H2_4 H 0.907086 0.896877 0.004374
C5_4 C 0.8132(4) 0.8074(4) 0.0580(2)
H3_3 H 0.833403 0.836635 0.094853
C6_4 C 0.6211(4) 0.6175(4) 0.1129(2)
H4_4 H 0.597339 0.591389 0.075642
C7_4 C 0.6924(5) 0.6889(5) 0.1157(3)
C8_6 C 0.3463(6) 0.3463(6) 0.166667
C9_6 C 0.2627(6) 0.2627(6) 0.166667
C10_4 C 0.7389(5) 0.7289(5) 0.0569(2)
C11_4 C 0.3929(5) 0.3778(5) 0.1150(3)
H5_4 H 0.373303 0.345676 0.079169
C13_4 C 0.7112(5) 0.6841(5) 0.0010(3)
H7_4 H 0.663650 0.629119 0.000288
C14_6 C 0.5016(6) 0.5016(6) 0.166667
C15_4 C 0.4680(5) 0.4553(5) 0.1127(3)
H8_4 H 0.496058 0.476644 0.075582
C16_6 C 0.5824(5) 0.5824(5) 0.166667
O6_2 O 0.8020(3) 0.8491(3) 0.49103(17)
O7_3 O 0.2207(3) 0.2430(4) 0.2142(2)
C17_4 C 0.8333(5) 0.8819(5) 0.4407(2)
C18_4 C 0.7978(4) 0.8288(4) 0.3843(2)
C19_4 C 0.8431(4) 0.8579(4) 0.3294(2)
H9_4 H 0.896877 0.907086 0.328959
C20_4 C 0.8074(4) 0.8132(4) 0.2753(2)
H10_3 H 0.836635 0.833403 0.238480
C21_4 C 0.6175(4) 0.6211(4) 0.2204(2)
H11_4 H 0.591389 0.597339 0.257691
C22_4 C 0.6889(5) 0.6924(5) 0.2176(3)
C23_4 C 0.7289(5) 0.7389(5) 0.2764(2)
C24_4 C 0.3778(5) 0.3929(5) 0.2183(3)
H12_4 H 0.345676 0.373303 0.254164
C25_4 C 0.7214(5) 0.7542(5) 0.3858(3)
H13_4 H 0.694219 0.732266 0.423105
C26_4 C 0.6841(5) 0.7112(5) 0.3323(3)
H14_4 H 0.629119 0.663650 0.333045
C27_4 C 0.4553(5) 0.4680(5) 0.2206(3)
H15_4 H 0.476644 0.496058 0.257751
O1_4 O 0.9589(3) 0.8947(3) 0.89924(15)
C2_4 C 0.8819(5) 0.8333(5) 0.8926(2)
C3_4 C 0.8288(4) 0.7978(4) 0.9490(2)
C12_4 C 0.7542(5) 0.7214(5) 0.9475(3)
H6_4 H 0.732266 0.694219 0.910228
O1_5 O 0.1053(3) 0.0642(4) 0.23257(15)
C1_7 C 0.2703(5) -0.0000(7) 0.500000
H1_7 H 0.218682 0.000001 0.500001
C2_5 C 0.1667(5) 0.0486(7) 0.2259(2)
C3_5 C 0.2022(4) 0.0310(6) 0.2823(2)
C4_5 C 0.1569(4) 0.0148(6) 0.3372(2)
H2_5 H 0.103123 0.010209 0.337707
C5_5 C 0.1926(4) 0.0058(6) 0.3913(2)
C6_5 C 0.3825(4) 0.0036(6) 0.4462(2)
H4_5 H 0.408611 0.005950 0.408975
C7_5 C 0.3111(5) 0.0035(7) 0.4490(3)
C8_7 C 0.6537(6) -0.0000(8) 0.500000
C9_7 C 0.7373(6) -0.0000(8) 0.500000
C10_5 C 0.2711(5) 0.0100(7) 0.3902(2)
C11_5 C 0.6222(5) 0.0151(7) 0.4483(3)
H5_5 H 0.654324 0.027627 0.412502
C12_5 C 0.2786(5) 0.0328(7) 0.2808(3)
H6_5 H 0.305781 0.038047 0.243561
O4_5 O 0.1725(5) 0.3450(7) 0.250000
C13_5 C 0.3159(5) 0.0271(7) 0.3343(3)
H7_5 H 0.370881 0.034531 0.333621
C14_7 C 0.4984(6) -0.0000(8) 0.500000
C15_5 C 0.5447(5) 0.0127(7) 0.4460(3)
H8_5 H 0.523356 0.019414 0.408915
C16_7 C 0.4176(5) -0.0000(7) 0.500000
H10_4 H 0.166597 0.003232 0.571814
O10_4 O 0.0471(4) 0.1980(5) 0.15770(17)
C1_8 C 0.2703(5) 1.0000(7) 0.500000
H1_8 H 0.218682 1.000001 0.500001
H3_4 H 0.163365 0.996768 0.428186
C8_8 C 0.6537(6) 1.0000(8) 0.500000
C9_8 C 0.7373(6) 1.0000(8) 0.500000
C14_8 C 0.4984(6) 1.0000(8) 0.500000
C16_8 C 0.4176(5) 1.0000(7) 0.500000
O7_4 O 0.7570(4) 0.9777(5) 0.5476(2)
C17_5 C 0.1181(5) 0.9514(7) 0.7741(2)
C18_5 C 0.1712(4) 0.9690(6) 0.7177(2)
C19_5 C 0.1421(4) 0.9852(6) 0.6628(2)
H9_5 H 0.092914 0.989791 0.662293
C20_5 C 0.1868(4) 0.9942(6) 0.6087(2)
C21_5 C 0.3789(4) 0.9964(6) 0.5538(2)
H11_5 H 0.402661 0.994050 0.591025
C22_5 C 0.3076(5) 0.9965(7) 0.5510(3)
C23_5 C 0.2611(5) 0.9900(7) 0.6098(2)
C24_5 C 0.6071(5) 0.9849(7) 0.5517(3)
H12_5 H 0.626697 0.972373 0.587498
C25_5 C 0.2458(5) 0.9672(7) 0.7192(3)
H13_5 H 0.267734 0.961953 0.756439
C26_5 C 0.2888(5) 0.9729(7) 0.6657(3)
H14_5 H 0.336350 0.965469 0.666379
C27_5 C 0.5320(5) 0.9873(7) 0.5540(3)
H15_5 H 0.503942 0.980586 0.591085
C17_6 C 0.0486(7) 0.1667(5) 0.1074(2)
C18_6 C 0.0310(6) 0.2022(4) 0.0510(2)
C25_6 C 0.0328(7) 0.2786(5) 0.0525(3)
H13_6 H 0.038047 0.305781 0.089772
C1_9 C 0.0000(7) 0.2703(5) 0.833334
H1_9 H -0.000001 0.218681 0.833335
H3_5 H 0.003232 0.166597 0.761520
C8_9 C 0.0000(8) 0.6537(6) 0.833334
C9_9 C 0.0000(8) 0.7373(6) 0.833334
C14_9 C 0.0000(8) 0.4984(6) 0.833334
C16_9 C 0.0000(7) 0.4176(5) 0.833334
C19_6 C 0.0148(6) 0.1569(4) 0.9961(2)
H9_6 H 0.010209 0.103123 0.995626
C20_6 C 0.0058(6) 0.1926(4) 0.9420(2)
C21_6 C 0.0036(6) 0.3825(4) 0.8871(2)
H11_6 H 0.005950 0.408611 0.924358
C22_6 C 0.0035(7) 0.3111(5) 0.8843(3)
C23_6 C 0.0100(7) 0.2711(5) 0.9431(2)
C24_6 C 0.0151(7) 0.6222(5) 0.8850(3)
H12_6 H 0.027627 0.654324 0.920831
C26_6 C 0.0271(7) 0.3159(5) 0.9990(3)
H14_6 H 0.034531 0.370881 0.999712
C27_6 C 0.0127(7) 0.5447(5) 0.8873(3)
H15_6 H 0.019414 0.523356 0.924418
O1_6 O 0.9358(4) 0.0411(3) 0.56591(15)
C1_10 C 1.0000(7) 0.2703(5) 0.833334
H1_10 H 0.999999 0.218681 0.833335
C2_6 C 0.9514(7) 0.1181(5) 0.5593(2)
C3_6 C 0.9690(6) 0.1712(4) 0.6157(2)
C4_6 C 0.9852(6) 0.1421(4) 0.6706(2)
H2_6 H 0.989791 0.092914 0.671041
C5_6 C 0.9942(6) 0.1868(4) 0.7247(2)
C6_6 C 0.9964(6) 0.3789(4) 0.7796(2)
H4_6 H 0.994050 0.402661 0.742309
C7_6 C 0.9965(7) 0.3076(5) 0.7824(3)
C8_10 C 1.0000(8) 0.6537(6) 0.833334
C9_10 C 1.0000(8) 0.7373(6) 0.833334
C10_6 C 0.9900(7) 0.2611(5) 0.7236(2)
C11_6 C 0.9849(7) 0.6071(5) 0.7817(3)
H5_6 H 0.972373 0.626697 0.745836
C12_6 C 0.9672(7) 0.2458(5) 0.6142(3)
H6_6 H 0.961953 0.267734 0.576895
C13_6 C 0.9729(7) 0.2888(5) 0.6677(3)
H7_6 H 0.965469 0.336350 0.666955
C14_10 C 1.0000(8) 0.4984(6) 0.833334
C15_6 C 0.9873(7) 0.5320(5) 0.7794(3)
H8_6 H 0.980586 0.503942 0.742249
C16_10 C 1.0000(7) 0.4176(5) 0.833334
H10_5 H 0.996768 0.163365 0.905147
O4_6 O 0.6550(7) 0.8275(5) 0.583334
C1_11 C 0.7297(5) 0.0000(7) 1.000000
H1_11 H 0.781318 -0.000001 1.000001
H3_6 H 0.836635 0.003232 0.928186
C8_11 C 0.3463(6) 0.0000(8) 1.000000
C9_11 C 0.2627(6) 0.0000(8) 1.000000
C14_11 C 0.5016(6) 0.0000(8) 1.000000
C16_11 C 0.5824(5) 0.0000(7) 1.000000
C1_12 C 0.7297(5) 1.0000(7) 0.000000
H1_12 H 0.781318 0.999999 0.000001
C8_12 C 0.3463(6) 1.0000(8) 0.000000
C9_12 C 0.2627(6) 1.0000(8) 0.000000
C14_12 C 0.5016(6) 1.0000(8) 0.000000
C16_12 C 0.5824(5) 1.0000(7) 0.000000
H10_6 H 0.833403 0.996768 0.071814
loop_
_geom_bond_atom_site_label_1
_geom_bond_atom_site_label_2
_geom_bond_site_symmetry_1
_geom_bond_site_symmetry_2
O1 C2 1_555 1_555
O2 C2 1_555 1_555
O3 C9 1_555 1_555
C1 H1 1_555 1_555
C2 C3 1_555 1_555
C3 C4 1_555 1_555
C4 H2 1_555 1_555
C5 C4 1_555 1_555
H3 C5 1_555 1_555
C6 H4 1_555 1_555
C7 C1 1_555 1_555
C8 C9 1_555 1_555
C9 O7 1_555 1_555
C10 C5 1_555 1_555
C11 C8 1_555 1_555
H5 C11 1_555 1_555
C12 C3 1_555 1_555
H6 C12 1_555 1_555
C13 C10 1_555 1_555
H7 C13 1_555 1_555
C14 C15 1_555 1_555
C15 C11 1_555 1_555
H8 C15 1_555 1_555
C16 C6 1_555 1_555
O5 C17 1_555 1_555
O6 C17 1_555 1_555
O7 Yb2 1_555 1_555
C17 C18 1_555 1_555
C18 C19 1_555 1_555
C19 H9 1_555 1_555
C20 C19 1_555 1_555
H10 C20 1_555 1_555
C21 C16 1_555 1_555
H11 C21 1_555 1_555
C22 C1 1_555 1_555
C23 C20 1_555 1_555
C24 C8 1_555 1_555
H12 C24 1_555 1_555
C25 C18 1_555 1_555
H13 C25 1_555 1_555
C26 C23 1_555 1_555
H14 C26 1_555 1_555
C27 C14 1_555 1_555
H15 C27 1_555 1_555
Yb5 O2 1_555 1_555
Yb6 O3 1_555 1_555
C6 C7 1_555 1_555
C7 C10 1_555 1_555
C12 C13 1_555 1_555
C14 C16 1_555 1_555
C21 C22 1_555 1_555
C22 C23 1_555 1_555
C24 C27 1_555 1_555
C25 C26 1_555 1_555
O4 Yb1 1_555 1_555
O9 Yb1 1_555 1_555
O10 Yb1 1_555 1_555
O11 Yb1 1_555 1_555
O12 Yb1 1_555 1_555
C1_2 H1_2 1_555 1_555
C8_2 C9_2 1_555 1_555
C9_2 O7_2 1_555 1_555
O5_2 C17_2 1_555 1_555
O10 C17_2 1_555 1_555
O7_2 Yb3 1_555 1_555
C17_2 C18_2 1_555 1_555
C18_2 C19_2 1_555 1_555
C19_2 H9_2 1_555 1_555
C20_2 C19_2 1_555 1_555
C21_2 C16_2 1_555 1_555
H11_2 C21_2 1_555 1_555
C22_2 C1_2 1_555 1_555
C23_2 C20_2 1_555 1_555
C24_2 C8_2 1_555 1_555
H12_2 C24_2 1_555 1_555
C25_2 C18_2 1_555 1_555
H13_2 C25_2 1_555 1_555
C26_2 C23_2 1_555 1_555
H14_2 C26_2 1_555 1_555
C27_2 C14_2 1_555 1_555
H15_2 C27_2 1_555 1_555
C14_2 C16_2 1_555 1_555
C21_2 C22_2 1_555 1_555
C22_2 C23_2 1_555 1_555
C24_2 C27_2 1_555 1_555
C25_2 C26_2 1_555 1_555
Yb2 O1_2 1_555 1_555
O1_2 C2_2 1_555 1_555
O2_2 C2_2 1_555 1_555
O3_2 C9_3 1_555 1_555
C1_3 H1_3 1_555 1_555
C2_2 C3_2 1_555 1_555
C3_2 C4_2 1_555 1_555
C4_2 H2_2 1_555 1_555
C5_2 C4_2 1_555 1_555
C6_2 H4_2 1_555 1_555
C7_2 C1_3 1_555 1_555
C8_3 C9_3 1_555 1_555
C10_2 C5_2 1_555 1_555
C11_2 C8_3 1_555 1_555
H5_2 C11_2 1_555 1_555
C12_2 C3_2 1_555 1_555
H6_2 C12_2 1_555 1_555
O4_2 Yb2 1_555 1_555
C13_2 C10_2 1_555 1_555
H7_2 C13_2 1_555 1_555
C14_3 C15_2 1_555 1_555
C15_2 C11_2 1_555 1_555
H8_2 C15_2 1_555 1_555
C16_3 C6_2 1_555 1_555
Yb6 O2_2 1_555 1_555
Yb4 O3_2 1_555 1_555
O9_2 Yb2 1_555 1_555
O10_2 Yb2 1_555 1_555
O11_2 Yb2 1_555 1_555
C6_2 C7_2 1_555 1_555
C7_2 C10_2 1_555 1_555
C12_2 C13_2 1_555 1_555
C14_3 C16_3 1_555 1_555
O4_3 Yb3 1_555 1_555
O8_3 Yb3 1_555 1_555
O9_3 Yb3 1_555 1_555
O11_3 Yb3 1_555 1_555
O1_3 C2_3 1_555 1_555
O2_3 C2_3 1_555 1_555
O3_3 C9_4 1_555 1_555
C1_4 H1_4 1_555 1_555
C2_3 C3_3 1_555 1_555
C3_3 C4_3 1_555 1_555
C4_3 H2_3 1_555 1_555
C5_3 C4_3 1_555 1_555
C6_3 H4_3 1_555 1_555
C7_3 C1_4 1_555 1_555
C8_4 C9_4 1_555 1_555
C10_3 C5_3 1_555 1_555
C11_3 C8_4 1_555 1_555
H5_3 C11_3 1_555 1_555
C12_3 C3_3 1_555 1_555
H6_3 C12_3 1_555 1_555
C13_3 C10_3 1_555 1_555
H7_3 C13_3 1_555 1_555
C14_4 C15_3 1_555 1_555
C15_3 C11_3 1_555 1_555
H8_3 C15_3 1_555 1_555
C16_4 C6_3 1_555 1_555
Yb5 O3_3 1_555 1_555
C6_3 C7_3 1_555 1_555
C7_3 C10_3 1_555 1_555
C12_3 C13_3 1_555 1_555
C14_4 C16_4 1_555 1_555
C1_5 H1_5 1_555 1_555
C8_5 C9_5 1_555 1_555
C9_5 O12 1_555 1_555
O5_3 C17_3 1_555 1_555
O10_2 C17_3 1_555 1_555
C17_3 C18_3 1_555 1_555
C18_3 C19_3 1_555 1_555
C19_3 H9_3 1_555 1_555
C20_3 C19_3 1_555 1_555
C21_3 C16_5 1_555 1_555
H11_3 C21_3 1_555 1_555
C22_3 C1_5 1_555 1_555
C23_3 C20_3 1_555 1_555
C24_3 C8_5 1_555 1_555
H12_3 C24_3 1_555 1_555
C25_3 C18_3 1_555 1_555
H13_3 C25_3 1_555 1_555
C26_3 C23_3 1_555 1_555
H14_3 C26_3 1_555 1_555
C27_3 C14_5 1_555 1_555
H15_3 C27_3 1_555 1_555
Yb6 O5_3 1_555 1_555
C14_5 C16_5 1_555 1_555
C21_3 C22_3 1_555 1_555
C22_3 C23_3 1_555 1_555
C24_3 C27_3 1_555 1_555
C25_3 C26_3 1_555 1_555
O4_4 Yb4 1_555 1_555
O10_3 Yb4 1_555 1_555
O12_2 Yb4 1_555 1_555
O11_3 C9_6 1_555 1_555
C1_6 H1_6 1_555 1_555
C4_4 H2_4 1_555 1_555
C5_4 C4_4 1_555 1_555
H3_3 C5_4 1_555 1_555
C6_4 H4_4 1_555 1_555
C7_4 C1_6 1_555 1_555
C8_6 C9_6 1_555 1_555
C9_6 O7_3 1_555 1_555
C10_4 C5_4 1_555 1_555
C11_4 C8_6 1_555 1_555
H5_4 C11_4 1_555 1_555
C13_4 C10_4 1_555 1_555
H7_4 C13_4 1_555 1_555
C14_6 C15_4 1_555 1_555
C15_4 C11_4 1_555 1_555
H8_4 C15_4 1_555 1_555
C16_6 C6_4 1_555 1_555
O8 C17_4 1_555 1_555
O6_2 C17_4 1_555 1_555
O7_3 Yb5 1_555 1_555
C17_4 C18_4 1_555 1_555
C18_4 C19_4 1_555 1_555
C19_4 H9_4 1_555 1_555
C20_4 C19_4 1_555 1_555
H10_3 C20_4 1_555 1_555
C21_4 C16_6 1_555 1_555
H11_4 C21_4 1_555 1_555
C22_4 C1_6 1_555 1_555
C23_4 C20_4 1_555 1_555
C24_4 C8_6 1_555 1_555
H12_4 C24_4 1_555 1_555
C25_4 C18_4 1_555 1_555
H13_4 C25_4 1_555 1_555
C26_4 C23_4 1_555 1_555
H14_4 C26_4 1_555 1_555
C27_4 C14_6 1_555 1_555
H15_4 C27_4 1_555 1_555
Yb6 O6_2 1_555 1_555
C6_4 C7_4 1_555 1_555
C7_4 C10_4 1_555 1_555
C14_6 C16_6 1_555 1_555
C21_4 C22_4 1_555 1_555
C22_4 C23_4 1_555 1_555
C24_4 C27_4 1_555 1_555
C25_4 C26_4 1_555 1_555
O1_4 C2_4 1_555 1_555
O9_2 C2_4 1_555 1_555
C2_4 C3_4 1_555 1_555
C12_4 C3_4 1_555 1_555
H6_4 C12_4 1_555 1_555
Yb5 O1_5 1_555 1_555
O1_5 C2_5 1_555 1_555
O9_3 C2_5 1_555 1_555
O11 C9_7 1_555 1_555
C1_7 H1_7 1_555 1_555
C2_5 C3_5 1_555 1_555
C3_5 C4_5 1_555 1_555
C4_5 H2_5 1_555 1_555
C5_5 C4_5 1_555 1_555
C6_5 H4_5 1_555 1_555
C7_5 C1_7 1_555 1_555
C8_7 C9_7 1_555 1_555
C10_5 C5_5 1_555 1_555
C11_5 C8_7 1_555 1_555
H5_5 C11_5 1_555 1_555
C12_5 C3_5 1_555 1_555
H6_5 C12_5 1_555 1_555
O4_5 Yb5 1_555 1_555
C13_5 C10_5 1_555 1_555
H7_5 C13_5 1_555 1_555
C14_7 C15_5 1_555 1_555
C15_5 C11_5 1_555 1_555
H8_5 C15_5 1_555 1_555
C16_7 C6_5 1_555 1_555
O10_4 Yb5 1_555 1_555
C6_5 C7_5 1_555 1_555
C7_5 C10_5 1_555 1_555
C12_5 C13_5 1_555 1_555
C14_7 C16_7 1_555 1_555
C1_8 H1_8 1_555 1_555
C8_8 C9_8 1_555 1_555
C9_8 O7_4 1_555 1_555
O8_2 C17_5 1_555 1_555
O10_3 C17_5 1_555 1_555
O7_4 Yb6 1_555 1_555
C17_5 C18_5 1_555 1_555
C18_5 C19_5 1_555 1_555
C19_5 H9_5 1_555 1_555
C20_5 C19_5 1_555 1_555
C21_5 C16_8 1_555 1_555
H11_5 C21_5 1_555 1_555
C22_5 C1_8 1_555 1_555
C23_5 C20_5 1_555 1_555
C24_5 C8_8 1_555 1_555
H12_5 C24_5 1_555 1_555
C25_5 C18_5 1_555 1_555
H13_5 C25_5 1_555 1_555
C26_5 C23_5 1_555 1_555
H14_5 C26_5 1_555 1_555
C27_5 C14_8 1_555 1_555
H15_5 C27_5 1_555 1_555
C14_8 C16_8 1_555 1_555
C21_5 C22_5 1_555 1_555
C22_5 C23_5 1_555 1_555
C24_5 C27_5 1_555 1_555
C25_5 C26_5 1_555 1_555
O8_3 C17_6 1_555 1_555
O10_4 C17_6 1_555 1_555
C17_6 C18_6 1_555 1_555
C25_6 C18_6 1_555 1_555
H13_6 C25_6 1_555 1_555
C1_9 H1_9 1_555 1_555
C8_9 C9_9 1_555 1_555
C9_9 O12_2 1_555 1_555
C19_6 H9_6 1_555 1_555
C20_6 C19_6 1_555 1_555
C21_6 C16_9 1_555 1_555
H11_6 C21_6 1_555 1_555
C22_6 C1_9 1_555 1_555
C23_6 C20_6 1_555 1_555
C24_6 C8_9 1_555 1_555
H12_6 C24_6 1_555 1_555
C26_6 C23_6 1_555 1_555
H14_6 C26_6 1_555 1_555
C27_6 C14_9 1_555 1_555
H15_6 C27_6 1_555 1_555
C14_9 C16_9 1_555 1_555
C21_6 C22_6 1_555 1_555
C22_6 C23_6 1_555 1_555
C24_6 C27_6 1_555 1_555
O1_6 C2_6 1_555 1_555
O9 C2_6 1_555 1_555
O11_2 C9_10 1_555 1_555
C1_10 H1_10 1_555 1_555
C2_6 C3_6 1_555 1_555
C3_6 C4_6 1_555 1_555
C4_6 H2_6 1_555 1_555
C5_6 C4_6 1_555 1_555
C6_6 H4_6 1_555 1_555
C7_6 C1_10 1_555 1_555
C8_10 C9_10 1_555 1_555
C10_6 C5_6 1_555 1_555
C11_6 C8_10 1_555 1_555
H5_6 C11_6 1_555 1_555
C12_6 C3_6 1_555 1_555
H6_6 C12_6 1_555 1_555
C13_6 C10_6 1_555 1_555
H7_6 C13_6 1_555 1_555
C14_10 C15_6 1_555 1_555
C15_6 C11_6 1_555 1_555
H8_6 C15_6 1_555 1_555
C16_10 C6_6 1_555 1_555
C6_6 C7_6 1_555 1_555
C7_6 C10_6 1_555 1_555
C12_6 C13_6 1_555 1_555
C14_10 C16_10 1_555 1_555
O4_6 Yb6 1_555 1_555
C1_11 H1_11 1_555 1_555
C8_11 C9_11 1_555 1_555
C14_11 C16_11 1_555 1_555
C1_12 H1_12 1_555 1_555
C8_12 C9_12 1_555 1_555
C14_12 C16_12 1_555 1_555

#END
