
###############################################################################
#
# This file contains modified crystal structure data generated from the
# MOF subset of the Cambridge Structural Database (CSD) v543 
# hosted by the Cambridge Crystallographic Data Centre (CCDC).
#
# This work is licensed under the Creative Commons
# Attribution-NonCommercial-ShareAlike 4.0 International License.
# To view a copy of this license, visit
# http://creativecommons.org/licenses/by-nc-sa/4.0/
# or send a letter to
# Creative Commons, PO Box 1866, Mountain View, CA 94042, USA.
#
# CIF created using the CSD Python API on 29 September 2022
# The structure has been converted into the P1 space group
# The structure has a 3D framework
# The original CSD entry ECIQUG is in the monoclinic crystal system
# The framework has been calculated to contain at least 10.0% void space
# The void calculation uses a probe of radius 1.32A, grid spacing 0.4
#
###############################################################################

data_ECIQUG
_chemical_formula_moiety         '(C216 H152 Cd14 N16 O50)n'
_symmetry_cell_setting           triclinic
_symmetry_space_group_name_H-M   'P 1'
_symmetry_Int_Tables_number      1
_space_group_name_Hall           'P 1'
loop_
_symmetry_equiv_pos_site_id
_symmetry_equiv_pos_as_xyz
1 x,y,z
_cell_length_a                   13.053(5)
_cell_length_b                   25.651(11)
_cell_length_c                   20.055(8)
_cell_angle_alpha                90
_cell_angle_beta                 106.496(7)
_cell_angle_gamma                90
_cell_volume                     6438.48
loop_
_atom_site_label
_atom_site_type_symbol
_atom_site_fract_x
_atom_site_fract_y
_atom_site_fract_z
Cd1 Cd -0.000000 0.84820(4) 0.750000
O6 O -0.000000 0.9353(5) 0.750000
H2 H 0.017394 0.945949 0.716225
O14 O 0.1964(6) 0.8545(3) 0.8296(4)
O17 O 0.0168(6) 0.8617(3) 0.6400(4)
O21 O 0.1221(6) 0.7830(3) 0.7776(4)
Cd1_2 Cd 1.000000 0.84820(4) 0.750000
Cd2 Cd 0.33588(6) 0.38697(3) 0.57384(4)
O1 O 0.8036(6) 0.8545(3) 0.6704(4)
O3 O 0.8779(6) 0.7830(3) 0.7224(4)
N1 N 0.3918(7) 0.7091(3) 0.6159(5)
O5 O 0.3865(6) 0.4685(3) 0.5347(4)
C1 C 0.6925(7) 0.7807(4) 0.6657(5)
C2 C 0.1131(7) 0.7951(4) 0.6028(5)
C3 C 0.2989(7) 0.7813(4) 0.6541(5)
H1 H 0.362464 0.791669 0.685923
O6_2 O 1.000000 0.9353(5) 0.750000
C4 C 0.2982(8) 0.7380(4) 0.6128(5)
C5 C 0.0145(8) 0.8250(4) 0.5973(5)
C6 C 0.4945(7) 0.7338(4) 0.6331(5)
C7 C 0.4264(9) 0.5768(4) 0.5549(5)
H3 H 0.459290 0.560957 0.524631
C8 C 0.6017(8) 0.8064(4) 0.6276(5)
H4 H 0.607509 0.840356 0.612779
C9 C 0.7994(9) 0.8070(4) 0.6874(5)
C10 C 0.5042(8) 0.7831(4) 0.6113(6)
H5 H 0.444148 0.800995 0.585142
C11 C 0.3841(8) 0.6543(4) 0.6063(6)
C12 C 0.2087(8) 0.8088(4) 0.6491(5)
H6 H 0.211484 0.837634 0.677640
C13 C 0.6811(8) 0.7303(4) 0.6871(5)
H7 H 0.740788 0.712123 0.713003
C14 C 0.5822(8) 0.7069(4) 0.6704(5)
H8 H 0.575165 0.672878 0.684429
C15 C 0.4341(8) 0.6302(4) 0.5650(5)
H9 H 0.474681 0.649777 0.542743
C16 C 0.3599(8) 0.4903(4) 0.5784(5)
C17 C 0.2018(8) 0.7240(4) 0.5654(6)
H10 H 0.198918 0.695514 0.536150
O7 O 0.3473(6) 0.4642(3) 0.6283(4)
C18 C 0.1107(8) 0.7523(5) 0.5617(6)
H11 H 0.046272 0.742095 0.530756
C19 C 0.3714(10) 0.5477(4) 0.5887(6)
C20 C 0.1859(7) 0.3186(2) 0.4505(4)
H12 H 0.220757 0.290164 0.475728
C21 C 0.1131(8) 0.3111(3) 0.3856(5)
H13 H 0.099269 0.277674 0.367373
C22 C 0.0610(9) 0.3537(4) 0.3479(5)
C23 C 0.0817(10) 0.4037(3) 0.3751(6)
H14 H 0.046864 0.432106 0.349819
C24 C 0.1545(9) 0.4111(2) 0.4400(5)
H15 H 0.168351 0.444596 0.458174
N2 N 0.2066(6) 0.3686(3) 0.4777(3)
C25 C 0.3304(14) 0.6249(5) 0.6426(9)
H16 H 0.299733 0.640436 0.674178
C26 C 0.3230(12) 0.5722(5) 0.6314(8)
H17 H 0.283110 0.552483 0.653907
H20 H 0.982606 0.945949 0.783775
C33 C 0.0221(10) 0.3418(7) 0.2195(5)
H25 H 0.053115 0.307897 0.216005
H26 H 0.078674 0.367511 0.227083
Cd8 Cd 0.83588(6) 0.88697(3) 0.57384(4)
O15 O 0.3036(6) 0.3545(3) 0.6704(4)
O18 O 0.9832(6) 0.8617(3) 0.8600(4)
O19 O 0.5168(6) 0.3617(3) 0.6400(4)
O22 O 0.4314(6) 0.3164(3) 0.5489(4)
O11 O 0.0686(6) 0.8164(3) 0.9511(4)
Cd10 Cd 0.16412(6) 0.88697(3) 0.92616(4)
O4 O 0.9314(6) 0.8164(3) 0.5489(4)
C27 C 0.9779(10) 0.3418(7) 0.2805(5)
H18 H 0.946885 0.307897 0.283995
H19 H 0.921326 0.367511 0.272917
C28 C 0.8141(7) 0.3186(2) 0.0495(4)
H21 H 0.779243 0.290164 0.024272
C29 C 0.8869(8) 0.3111(3) 0.1144(5)
H22 H 0.900731 0.277674 0.132627
C30 C 0.9390(9) 0.3537(4) 0.1521(5)
C31 C 0.9183(10) 0.4037(3) 0.1249(6)
H23 H 0.953136 0.432106 0.150181
C32 C 0.8455(9) 0.4111(2) 0.0600(5)
H24 H 0.831649 0.444596 0.041826
N3 N 0.7934(6) 0.3686(3) 0.0223(3)
Cd3 Cd 0.66412(6) 0.38697(3) 0.92616(4)
N4 N 0.6082(7) 0.7091(3) 0.8841(5)
O12 O 0.6135(6) 0.4685(3) 0.9653(4)
C34 C 0.3075(7) 0.7807(4) 0.8343(5)
C35 C 0.8869(7) 0.7951(4) 0.8972(5)
C36 C 0.7011(7) 0.7813(4) 0.8459(5)
H27 H 0.637536 0.791669 0.814077
C37 C 0.7018(8) 0.7380(4) 0.8872(5)
C38 C 0.9855(8) 0.8250(4) 0.9027(5)
C39 C 0.5055(7) 0.7338(4) 0.8669(5)
C40 C 0.5736(9) 0.5768(4) 0.9451(5)
H28 H 0.540710 0.560957 0.975369
C41 C 0.3983(8) 0.8064(4) 0.8724(5)
H29 H 0.392491 0.840356 0.887221
C42 C 0.2006(9) 0.8070(4) 0.8126(5)
C43 C 0.4958(8) 0.7831(4) 0.8887(6)
H30 H 0.555852 0.800995 0.914858
C44 C 0.6159(8) 0.6543(4) 0.8937(6)
C45 C 0.7913(8) 0.8088(4) 0.8509(5)
H31 H 0.788516 0.837634 0.822360
C46 C 0.3189(8) 0.7303(4) 0.8129(5)
H32 H 0.259212 0.712123 0.786997
C47 C 0.4178(8) 0.7069(4) 0.8296(5)
H33 H 0.424835 0.672878 0.815571
C48 C 0.5659(8) 0.6302(4) 0.9350(5)
H34 H 0.525319 0.649777 0.957257
C49 C 0.6401(8) 0.4903(4) 0.9216(5)
C50 C 0.7982(8) 0.7240(4) 0.9346(6)
H35 H 0.801082 0.695514 0.963850
O13 O 0.6527(6) 0.4642(3) 0.8717(4)
C51 C 0.8893(8) 0.7523(5) 0.9383(6)
H36 H 0.953728 0.742095 0.969244
C52 C 0.6286(10) 0.5477(4) 0.9113(6)
C53 C 0.6696(14) 0.6249(5) 0.8574(9)
H37 H 0.700267 0.640436 0.825822
C54 C 0.6770(12) 0.5722(5) 0.8686(8)
H38 H 0.716890 0.552483 0.846093
O16 O 0.6964(6) 0.3545(3) 0.8296(4)
O20 O 0.4832(6) 0.3617(3) 0.8600(4)
O23 O 0.5686(6) 0.3164(3) 0.9511(4)
Cd1_3 Cd 0.500000 0.34820(4) 0.750000
O3_2 O 0.3779(6) 0.2830(3) 0.7224(4)
C1_2 C 0.1925(7) 0.2807(4) 0.6657(5)
O6_3 O 0.500000 0.4353(5) 0.750000
H2_2 H 0.517394 0.445949 0.716225
C8_2 C 0.1017(8) 0.3064(4) 0.6276(5)
H4_2 H 0.107509 0.340356 0.612779
C9_2 C 0.2994(9) 0.3070(4) 0.6874(5)
C10_2 C 0.0042(8) 0.2831(4) 0.6113(6)
C13_2 C 0.1811(8) 0.2303(4) 0.6871(5)
H7_2 H 0.240788 0.212123 0.713003
C14_2 C 0.0822(8) 0.2069(4) 0.6704(5)
H8_2 H 0.075165 0.172878 0.684429
H20_2 H 0.482606 0.445949 0.783775
O21_2 O 0.6221(6) 0.2830(3) 0.7776(4)
N1_2 N 0.8918(7) 0.2091(3) 0.6159(5)
C2_2 C 0.6131(7) 0.2951(4) 0.6028(5)
C3_2 C 0.7989(7) 0.2813(4) 0.6541(5)
H1_2 H 0.862464 0.291669 0.685923
C4_2 C 0.7982(8) 0.2380(4) 0.6128(5)
C5_2 C 0.5145(8) 0.3250(4) 0.5973(5)
C6_2 C 0.9945(7) 0.2338(4) 0.6331(5)
C7_2 C 0.9264(9) 0.0768(4) 0.5549(5)
H3_2 H 0.959290 0.060957 0.524631
H5_2 H 0.944148 0.300995 0.585142
C11_2 C 0.8841(8) 0.1543(4) 0.6063(6)
C12_2 C 0.7087(8) 0.3088(4) 0.6491(5)
H6_2 H 0.711484 0.337634 0.677640
C15_2 C 0.9341(8) 0.1302(4) 0.5650(5)
H9_2 H 0.974681 0.149777 0.542743
C17_2 C 0.7018(8) 0.2240(4) 0.5654(6)
H10_2 H 0.698918 0.195514 0.536150
C18_2 C 0.6107(8) 0.2523(5) 0.5617(6)
H11_2 H 0.546272 0.242095 0.530756
C19_2 C 0.8714(10) 0.0477(4) 0.5887(6)
C25_2 C 0.8304(14) 0.1249(5) 0.6426(9)
H16_2 H 0.799733 0.140436 0.674178
C26_2 C 0.8230(12) 0.0722(5) 0.6314(8)
H17_2 H 0.783110 0.052483 0.653907
N4_2 N 0.1082(7) 0.2091(3) 0.8841(5)
C35_2 C 0.3869(7) 0.2951(4) 0.8972(5)
C36_2 C 0.2011(7) 0.2813(4) 0.8459(5)
H27_2 H 0.137536 0.291669 0.814077
C37_2 C 0.2018(8) 0.2380(4) 0.8872(5)
C38_2 C 0.4855(8) 0.3250(4) 0.9027(5)
C39_2 C 0.0055(7) 0.2338(4) 0.8669(5)
C40_2 C 0.0736(9) 0.0768(4) 0.9451(5)
H28_2 H 0.040710 0.060957 0.975369
H30_2 H 0.055852 0.300995 0.914858
C44_2 C 0.1159(8) 0.1543(4) 0.8937(6)
C45_2 C 0.2913(8) 0.3088(4) 0.8509(5)
H31_2 H 0.288516 0.337634 0.822360
C48_2 C 0.0659(8) 0.1302(4) 0.9350(5)
H34_2 H 0.025319 0.149777 0.957257
C50_2 C 0.2982(8) 0.2240(4) 0.9346(6)
H35_2 H 0.301082 0.195514 0.963850
C51_2 C 0.3893(8) 0.2523(5) 0.9383(6)
H36_2 H 0.453728 0.242095 0.969244
C52_2 C 0.1286(10) 0.0477(4) 0.9113(6)
C53_2 C 0.1696(14) 0.1249(5) 0.8574(9)
H37_2 H 0.200267 0.140436 0.825822
C54_2 C 0.1770(12) 0.0722(5) 0.8686(8)
H38_2 H 0.216890 0.052483 0.846093
O5_2 O 0.8865(6) 0.9685(3) 0.5347(4)
C16_2 C 0.8599(8) 0.9903(4) 0.5784(5)
O7_2 O 0.8473(6) 0.9642(3) 0.6283(4)
C20_2 C 0.6859(7) 0.8186(2) 0.4505(4)
H12_2 H 0.720757 0.790164 0.475728
C21_2 C 0.6131(8) 0.8111(3) 0.3856(5)
H13_2 H 0.599269 0.777674 0.367373
C22_2 C 0.5610(9) 0.8537(4) 0.3479(5)
C23_2 C 0.5817(10) 0.9037(3) 0.3751(6)
H14_2 H 0.546864 0.932106 0.349819
C24_2 C 0.6545(9) 0.9111(2) 0.4400(5)
H15_2 H 0.668351 0.944596 0.458174
N2_2 N 0.7066(6) 0.8686(3) 0.4777(3)
C27_2 C 0.4779(10) 0.8418(7) 0.2805(5)
H18_2 H 0.446885 0.807897 0.283995
H19_2 H 0.421326 0.867511 0.272917
C28_2 C 0.3141(7) 0.8186(2) 0.0495(4)
H21_2 H 0.279243 0.790164 0.024272
C29_2 C 0.3869(8) 0.8111(3) 0.1144(5)
H22_2 H 0.400731 0.777674 0.132627
C30_2 C 0.4390(9) 0.8537(4) 0.1521(5)
C31_2 C 0.4183(10) 0.9037(3) 0.1249(6)
H23_2 H 0.453136 0.932106 0.150181
C32_2 C 0.3455(9) 0.9111(2) 0.0600(5)
H24_2 H 0.331649 0.944596 0.041826
N3_2 N 0.2934(6) 0.8686(3) 0.0223(3)
C33_2 C 0.5221(10) 0.8418(7) 0.2195(5)
H25_2 H 0.553115 0.807897 0.216005
H26_2 H 0.578674 0.867511 0.227083
O12_2 O 0.1135(6) 0.9685(3) 0.9653(4)
C49_2 C 0.1401(8) 0.9903(4) 0.9216(5)
O13_2 O 0.1527(6) 0.9642(3) 0.8717(4)
C34_2 C 0.8075(7) 0.2807(4) 0.8343(5)
C41_2 C 0.8983(8) 0.3064(4) 0.8724(5)
H29_2 H 0.892491 0.340356 0.887221
C42_2 C 0.7006(9) 0.3070(4) 0.8126(5)
C43_2 C 0.9958(8) 0.2831(4) 0.8887(6)
C46_2 C 0.8189(8) 0.2303(4) 0.8129(5)
H32_2 H 0.759212 0.212123 0.786997
C47_2 C 0.9178(8) 0.2069(4) 0.8296(5)
H33_2 H 0.924835 0.172878 0.815571
Cd4 Cd -0.000000 0.15180(4) 0.250000
Cd3_2 Cd 0.33588(6) 0.61303(3) 0.07384(4)
O8 O 0.8036(6) 0.1455(3) 0.1704(4)
O9 O 0.0168(6) 0.1383(3) 0.1400(4)
O10 O 0.8779(6) 0.2170(3) 0.2224(4)
N4_3 N 0.3918(7) 0.2909(3) 0.1159(5)
O12_3 O 0.3865(6) 0.5315(3) 0.0347(4)
C34_3 C 0.6925(7) 0.2193(4) 0.1657(5)
C35_3 C 0.1131(7) 0.2049(4) 0.1028(5)
C36_3 C 0.2989(7) 0.2187(4) 0.1541(5)
H27_3 H 0.362464 0.208331 0.185923
C37_3 C 0.2982(8) 0.2620(4) 0.1128(5)
C38_3 C 0.0145(8) 0.1750(4) 0.0973(5)
C39_3 C 0.4945(7) 0.2662(4) 0.1331(5)
C40_3 C 0.4264(9) 0.4232(4) 0.0549(5)
H28_3 H 0.459290 0.439043 0.024631
C41_3 C 0.6017(8) 0.1936(4) 0.1276(5)
H29_3 H 0.607509 0.159644 0.112779
C42_3 C 0.7994(9) 0.1930(4) 0.1874(5)
C43_3 C 0.5042(8) 0.2169(4) 0.1113(6)
H30_3 H 0.444148 0.199005 0.085142
C44_3 C 0.3841(8) 0.3457(4) 0.1063(6)
C45_3 C 0.2087(8) 0.1912(4) 0.1491(5)
H31_3 H 0.211484 0.162366 0.177640
C46_3 C 0.6811(8) 0.2697(4) 0.1871(5)
H32_3 H 0.740788 0.287877 0.213003
C47_3 C 0.5822(8) 0.2931(4) 0.1704(5)
H33_3 H 0.575165 0.327122 0.184429
C48_3 C 0.4341(8) 0.3698(4) 0.0650(5)
H34_3 H 0.474681 0.350223 0.042743
C49_3 C 0.3599(8) 0.5097(4) 0.0784(5)
C50_3 C 0.2018(8) 0.2760(4) 0.0654(6)
H35_3 H 0.198918 0.304486 0.036150
O13_3 O 0.3473(6) 0.5358(3) 0.1283(4)
C51_3 C 0.1107(8) 0.2477(5) 0.0617(6)
H36_3 H 0.046272 0.257905 0.030756
C52_3 C 0.3714(10) 0.4523(4) 0.0887(6)
C53_3 C 0.3304(14) 0.3751(5) 0.1426(9)
H37_3 H 0.299733 0.359564 0.174178
C54_3 C 0.3230(12) 0.4278(5) 0.1314(8)
H38_3 H 0.283110 0.447517 0.153907
Cd4_2 Cd 1.000000 0.15180(4) 0.250000
Cd9 Cd 0.83588(6) 0.11303(3) 0.07384(4)
O16_2 O 0.3036(6) 0.6455(3) 0.1704(4)
O20_2 O 0.5168(6) 0.6383(3) 0.1400(4)
O23_2 O 0.4314(6) 0.6836(3) 0.0489(4)
O4_2 O 0.0686(6) 0.1836(3) 0.4511(4)
C27_3 C 0.0221(10) 0.6582(7) 0.7195(5)
H18_3 H 0.053115 0.692103 0.716005
H19_3 H 0.078674 0.632489 0.727083
C28_3 C 0.1859(7) 0.6814(2) 0.9505(4)
H21_3 H 0.220757 0.709836 0.975728
C29_3 C 0.1131(8) 0.6889(3) 0.8856(5)
H22_3 H 0.099269 0.722326 0.867373
C30_3 C 0.0610(9) 0.6463(4) 0.8479(5)
C31_3 C 0.0817(10) 0.5963(3) 0.8751(6)
H23_3 H 0.046864 0.567894 0.849819
C32_3 C 0.1545(9) 0.5889(2) 0.9400(5)
H24_3 H 0.168351 0.555404 0.958174
N3_3 N 0.2066(6) 0.6314(3) 0.9777(3)
Cd7 Cd 0.16412(6) 0.11303(3) 0.42616(4)
O11_2 O 0.9314(6) 0.1836(3) 0.0489(4)
Cd2_2 Cd 0.66412(6) 0.61303(3) 0.42616(4)
O1_2 O 0.1964(6) 0.1455(3) 0.3296(4)
O2 O 0.9832(6) 0.1383(3) 0.3600(4)
O3_3 O 0.1221(6) 0.2170(3) 0.2776(4)
N1_3 N 0.6082(7) 0.2909(3) 0.3841(5)
O5_3 O 0.6135(6) 0.5315(3) 0.4653(4)
C1_3 C 0.3075(7) 0.2193(4) 0.3343(5)
C2_3 C 0.8869(7) 0.2049(4) 0.3972(5)
C3_3 C 0.7011(7) 0.2187(4) 0.3459(5)
H1_3 H 0.637536 0.208331 0.314077
O6_4 O 0.000000 0.0647(5) 0.250000
C4_3 C 0.7018(8) 0.2620(4) 0.3872(5)
C5_3 C 0.9855(8) 0.1750(4) 0.4027(5)
C6_3 C 0.5055(7) 0.2662(4) 0.3669(5)
C7_3 C 0.5736(9) 0.4232(4) 0.4451(5)
H3_3 H 0.540710 0.439043 0.475369
C8_3 C 0.3983(8) 0.1936(4) 0.3724(5)
H4_3 H 0.392491 0.159644 0.387221
C9_3 C 0.2006(9) 0.1930(4) 0.3126(5)
C10_3 C 0.4958(8) 0.2169(4) 0.3887(6)
H5_3 H 0.555852 0.199005 0.414858
C11_3 C 0.6159(8) 0.3457(4) 0.3937(6)
C12_3 C 0.7913(8) 0.1912(4) 0.3509(5)
H6_3 H 0.788516 0.162366 0.322360
C13_3 C 0.3189(8) 0.2697(4) 0.3129(5)
H7_3 H 0.259212 0.287877 0.286997
C14_3 C 0.4178(8) 0.2931(4) 0.3296(5)
H8_3 H 0.424835 0.327122 0.315571
C15_3 C 0.5659(8) 0.3698(4) 0.4350(5)
H9_3 H 0.525319 0.350223 0.457257
C16_3 C 0.6401(8) 0.5097(4) 0.4216(5)
C17_3 C 0.7982(8) 0.2760(4) 0.4346(6)
H10_3 H 0.801082 0.304486 0.463850
O7_3 O 0.6527(6) 0.5358(3) 0.3717(4)
C18_3 C 0.8893(8) 0.2477(5) 0.4383(6)
H11_3 H 0.953728 0.257905 0.469244
C19_3 C 0.6286(10) 0.4523(4) 0.4113(6)
C20_3 C 0.8141(7) 0.6814(2) 0.5495(4)
H12_3 H 0.779243 0.709836 0.524272
C21_3 C 0.8869(8) 0.6889(3) 0.6144(5)
H13_3 H 0.900731 0.722326 0.632627
C22_3 C 0.9390(9) 0.6463(4) 0.6521(5)
C23_3 C 0.9183(10) 0.5963(3) 0.6249(6)
H14_3 H 0.953136 0.567894 0.650181
C24_3 C 0.8455(9) 0.5889(2) 0.5600(5)
H15_3 H 0.831649 0.555404 0.541826
N2_3 N 0.7934(6) 0.6314(3) 0.5223(3)
C25_3 C 0.6696(14) 0.3751(5) 0.3574(9)
H16_3 H 0.700267 0.359564 0.325822
C26_3 C 0.6770(12) 0.4278(5) 0.3686(8)
H17_3 H 0.716890 0.447517 0.346093
H20_3 H 0.017394 0.054051 0.216225
C33_3 C 0.9779(10) 0.6582(7) 0.7805(5)
H25_3 H 0.946885 0.692103 0.783995
H26_3 H 0.921326 0.632489 0.772917
O15_2 O 0.6964(6) 0.6455(3) 0.3296(4)
O19_2 O 0.4832(6) 0.6383(3) 0.3600(4)
O22_2 O 0.5686(6) 0.6836(3) 0.4511(4)
O6_5 O 1.000000 0.0647(5) 0.250000
H2_3 H 0.982606 0.054051 0.283775
O10_2 O 0.3779(6) 0.7170(3) 0.2224(4)
C34_4 C 0.1925(7) 0.7193(4) 0.1657(5)
C41_4 C 0.1017(8) 0.6936(4) 0.1276(5)
H29_4 H 0.107509 0.659644 0.112779
C42_4 C 0.2994(9) 0.6930(4) 0.1874(5)
C43_4 C 0.0042(8) 0.7169(4) 0.1113(6)
C46_4 C 0.1811(8) 0.7697(4) 0.1871(5)
H32_4 H 0.240788 0.787877 0.213003
C47_4 C 0.0822(8) 0.7931(4) 0.1704(5)
H33_4 H 0.075165 0.827122 0.184429
Cd4_3 Cd 0.500000 0.65180(4) 0.250000
O12_4 O 0.8865(6) 0.0315(3) 0.0347(4)
C49_4 C 0.8599(8) 0.0097(4) 0.0784(5)
O13_4 O 0.8473(6) 0.0358(3) 0.1283(4)
O5_4 O 0.1135(6) 0.0315(3) 0.4653(4)
C16_4 C 0.1401(8) 0.0097(4) 0.4216(5)
O7_4 O 0.1527(6) 0.0358(3) 0.3717(4)
C20_4 C 0.3141(7) 0.1814(2) 0.5495(4)
H12_4 H 0.279243 0.209836 0.524272
C21_4 C 0.3869(8) 0.1889(3) 0.6144(5)
H13_4 H 0.400731 0.222326 0.632627
C22_4 C 0.4390(9) 0.1463(4) 0.6521(5)
C23_4 C 0.4183(10) 0.0963(3) 0.6249(6)
H14_4 H 0.453136 0.067894 0.650181
C24_4 C 0.3455(9) 0.0889(2) 0.5600(5)
H15_4 H 0.331649 0.055404 0.541826
N2_4 N 0.2934(6) 0.1314(3) 0.5223(3)
C27_4 C 0.5221(10) 0.1582(7) 0.7195(5)
H18_4 H 0.553115 0.192103 0.716005
H19_4 H 0.578674 0.132489 0.727083
C28_4 C 0.6859(7) 0.1814(2) 0.9505(4)
H21_4 H 0.720757 0.209836 0.975728
C29_4 C 0.6131(8) 0.1889(3) 0.8856(5)
H22_4 H 0.599269 0.222326 0.867373
C30_4 C 0.5610(9) 0.1463(4) 0.8479(5)
C31_4 C 0.5817(10) 0.0963(3) 0.8751(6)
H23_4 H 0.546864 0.067894 0.849819
C32_4 C 0.6545(9) 0.0889(2) 0.9400(5)
H24_4 H 0.668351 0.055404 0.958174
N3_4 N 0.7066(6) 0.1314(3) 0.9777(3)
C33_4 C 0.4779(10) 0.1582(7) 0.7805(5)
H25_4 H 0.446885 0.192103 0.783995
H26_4 H 0.421326 0.132489 0.772917
N4_4 N 0.8918(7) 0.7909(3) 0.1159(5)
C35_4 C 0.6131(7) 0.7049(4) 0.1028(5)
C36_4 C 0.7989(7) 0.7187(4) 0.1541(5)
H27_4 H 0.862464 0.708331 0.185923
C37_4 C 0.7982(8) 0.7620(4) 0.1128(5)
C38_4 C 0.5145(8) 0.6750(4) 0.0973(5)
C39_4 C 0.9945(7) 0.7662(4) 0.1331(5)
C40_4 C 0.9264(9) 0.9232(4) 0.0549(5)
H28_4 H 0.959290 0.939043 0.024631
H30_4 H 0.944148 0.699005 0.085142
C44_4 C 0.8841(8) 0.8457(4) 0.1063(6)
C45_4 C 0.7087(8) 0.6912(4) 0.1491(5)
H31_4 H 0.711484 0.662366 0.177640
C48_4 C 0.9341(8) 0.8698(4) 0.0650(5)
H34_4 H 0.974681 0.850223 0.042743
C50_4 C 0.7018(8) 0.7760(4) 0.0654(6)
H35_4 H 0.698918 0.804486 0.036150
C51_4 C 0.6107(8) 0.7477(5) 0.0617(6)
H36_4 H 0.546272 0.757905 0.030756
C52_4 C 0.8714(10) 0.9523(4) 0.0887(6)
C53_4 C 0.8304(14) 0.8751(5) 0.1426(9)
H37_4 H 0.799733 0.859564 0.174178
C54_4 C 0.8230(12) 0.9278(5) 0.1314(8)
H38_4 H 0.783110 0.947517 0.153907
N1_4 N 0.1082(7) 0.7909(3) 0.3841(5)
C2_4 C 0.3869(7) 0.7049(4) 0.3972(5)
C3_4 C 0.2011(7) 0.7187(4) 0.3459(5)
H1_4 H 0.137536 0.708331 0.314077
C4_4 C 0.2018(8) 0.7620(4) 0.3872(5)
C5_4 C 0.4855(8) 0.6750(4) 0.4027(5)
C6_4 C 0.0055(7) 0.7662(4) 0.3669(5)
C7_4 C 0.0736(9) 0.9232(4) 0.4451(5)
H3_4 H 0.040710 0.939043 0.475369
H5_4 H 0.055852 0.699005 0.414858
C11_4 C 0.1159(8) 0.8457(4) 0.3937(6)
C12_4 C 0.2913(8) 0.6912(4) 0.3509(5)
H6_4 H 0.288516 0.662366 0.322360
C15_4 C 0.0659(8) 0.8698(4) 0.4350(5)
H9_4 H 0.025319 0.850223 0.457257
C17_4 C 0.2982(8) 0.7760(4) 0.4346(6)
H10_4 H 0.301082 0.804486 0.463850
C18_4 C 0.3893(8) 0.7477(5) 0.4383(6)
H11_4 H 0.453728 0.757905 0.469244
C19_4 C 0.1286(10) 0.9523(4) 0.4113(6)
C25_4 C 0.1696(14) 0.8751(5) 0.3574(9)
H16_4 H 0.200267 0.859564 0.325822
C26_4 C 0.1770(12) 0.9278(5) 0.3686(8)
H17_4 H 0.216890 0.947517 0.346093
O3_4 O 0.6221(6) 0.7170(3) 0.2776(4)
C1_4 C 0.8075(7) 0.7193(4) 0.3343(5)
O6_6 O 0.500000 0.5647(5) 0.250000
H2_4 H 0.482606 0.554051 0.283775
C8_4 C 0.8983(8) 0.6936(4) 0.3724(5)
H4_4 H 0.892491 0.659644 0.387221
C9_4 C 0.7006(9) 0.6930(4) 0.3126(5)
C10_4 C 0.9958(8) 0.7169(4) 0.3887(6)
C13_4 C 0.8189(8) 0.7697(4) 0.3129(5)
H7_4 H 0.759212 0.787877 0.286997
C14_4 C 0.9178(8) 0.7931(4) 0.3296(5)
H8_4 H 0.924835 0.827122 0.315571
H20_4 H 0.517394 0.554051 0.216225
loop_
_geom_bond_atom_site_label_1
_geom_bond_atom_site_label_2
_geom_bond_site_symmetry_1
_geom_bond_site_symmetry_2
O6 Cd1 1_555 1_555
H2 O6 1_555 1_555
O14 Cd1 1_555 1_555
O17 Cd1 1_555 1_555
O21 Cd1 1_555 1_555
Cd1_2 O1 1_555 1_555
Cd2 O5 1_555 1_555
O1 C9 1_555 1_555
O17 C5 1_555 1_555
O3 Cd1_2 1_555 1_555
N1 C4 1_555 1_555
O5 C16 1_555 1_555
C1 C8 1_555 1_555
C2 C5 1_555 1_555
C3 H1 1_555 1_555
O6_2 Cd1_2 1_555 1_555
C4 C3 1_555 1_555
C6 N1 1_555 1_555
C7 H3 1_555 1_555
C8 H4 1_555 1_555
C9 O3 1_555 1_555
C10 C6 1_555 1_555
H5 C10 1_555 1_555
C11 N1 1_555 1_555
C12 C2 1_555 1_555
H6 C12 1_555 1_555
C13 C1 1_555 1_555
H7 C13 1_555 1_555
C14 C6 1_555 1_555
H8 C14 1_555 1_555
C15 C7 1_555 1_555
H9 C15 1_555 1_555
C16 O7 1_555 1_555
C17 C4 1_555 1_555
H10 C17 1_555 1_555
O7 Cd2 1_555 1_555
C18 C2 1_555 1_555
H11 C18 1_555 1_555
C19 C7 1_555 1_555
C20 H12 1_555 1_555
C21 C20 1_555 1_555
H13 C21 1_555 1_555
C22 C21 1_555 1_555
C23 C22 1_555 1_555
H14 C23 1_555 1_555
C24 C23 1_555 1_555
H15 C24 1_555 1_555
N2 Cd2 1_555 1_555
C25 C11 1_555 1_555
H16 C25 1_555 1_555
C26 C19 1_555 1_555
H17 C26 1_555 1_555
H20 O6_2 1_555 1_555
H25 C33 1_555 1_555
H26 C33 1_555 1_555
Cd8 O1 1_555 1_555
O15 Cd2 1_555 1_555
O18 Cd1_2 1_555 1_555
O19 Cd2 1_555 1_555
O22 Cd2 1_555 1_555
C1 C9 1_555 1_555
C3 C12 1_555 1_555
C8 C10 1_555 1_555
C11 C15 1_555 1_555
C13 C14 1_555 1_555
C16 C19 1_555 1_555
C17 C18 1_555 1_555
C20 N2 1_555 1_555
C24 N2 1_555 1_555
C25 C26 1_555 1_555
O11 Cd10 1_555 1_555
H18 C27 1_555 1_555
H19 C27 1_555 1_555
C28 H21 1_555 1_555
C29 C28 1_555 1_555
H22 C29 1_555 1_555
C30 C29 1_555 1_555
C31 C30 1_555 1_555
H23 C31 1_555 1_555
C32 C31 1_555 1_555
H24 C32 1_555 1_555
N3 C28 1_555 1_555
O4 Cd8 1_555 1_555
C32 N3 1_555 1_555
O14 C42 1_555 1_555
O18 C38 1_555 1_555
O21 C42 1_555 1_555
N4 C37 1_555 1_555
O12 Cd3 1_555 1_555
C34 C41 1_555 1_555
C35 C38 1_555 1_555
C36 H27 1_555 1_555
C37 C36 1_555 1_555
C39 N4 1_555 1_555
C40 H28 1_555 1_555
C41 H29 1_555 1_555
C42 C34 1_555 1_555
C43 C39 1_555 1_555
H30 C43 1_555 1_555
C44 N4 1_555 1_555
C45 C35 1_555 1_555
H31 C45 1_555 1_555
C46 C34 1_555 1_555
H32 C46 1_555 1_555
C47 C39 1_555 1_555
H33 C47 1_555 1_555
C48 C40 1_555 1_555
H34 C48 1_555 1_555
C49 O12 1_555 1_555
C50 C37 1_555 1_555
H35 C50 1_555 1_555
O13 Cd3 1_555 1_555
C51 C35 1_555 1_555
H36 C51 1_555 1_555
C52 C40 1_555 1_555
C53 C44 1_555 1_555
H37 C53 1_555 1_555
C54 C52 1_555 1_555
H38 C54 1_555 1_555
Cd10 O14 1_555 1_555
O16 Cd3 1_555 1_555
O20 Cd3 1_555 1_555
O23 Cd3 1_555 1_555
C36 C45 1_555 1_555
C41 C43 1_555 1_555
C44 C48 1_555 1_555
C46 C47 1_555 1_555
C49 O13 1_555 1_555
C49 C52 1_555 1_555
C50 C51 1_555 1_555
C53 C54 1_555 1_555
Cd1_3 O15 1_555 1_555
O15 C9_2 1_555 1_555
O3_2 Cd1_3 1_555 1_555
C1_2 C8_2 1_555 1_555
O6_3 Cd1_3 1_555 1_555
H2_2 O6_3 1_555 1_555
C8_2 H4_2 1_555 1_555
C9_2 O3_2 1_555 1_555
C13_2 C1_2 1_555 1_555
H7_2 C13_2 1_555 1_555
H8_2 C14_2 1_555 1_555
H20_2 O6_3 1_555 1_555
O16 Cd1_3 1_555 1_555
O19 Cd1_3 1_555 1_555
O20 Cd1_3 1_555 1_555
O21_2 Cd1_3 1_555 1_555
C1_2 C9_2 1_555 1_555
C8_2 C10_2 1_555 1_555
C13_2 C14_2 1_555 1_555
O19 C5_2 1_555 1_555
O22 C5_2 1_555 1_555
N1_2 C4_2 1_555 1_555
C2_2 C5_2 1_555 1_555
C3_2 H1_2 1_555 1_555
C4_2 C3_2 1_555 1_555
C6_2 N1_2 1_555 1_555
C7_2 H3_2 1_555 1_555
C11_2 N1_2 1_555 1_555
C12_2 C2_2 1_555 1_555
H6_2 C12_2 1_555 1_555
C15_2 C7_2 1_555 1_555
H9_2 C15_2 1_555 1_555
C17_2 C4_2 1_555 1_555
H10_2 C17_2 1_555 1_555
C18_2 C2_2 1_555 1_555
H11_2 C18_2 1_555 1_555
C19_2 C7_2 1_555 1_555
C25_2 C11_2 1_555 1_555
H16_2 C25_2 1_555 1_555
C26_2 C19_2 1_555 1_555
H17_2 C26_2 1_555 1_555
C3_2 C12_2 1_555 1_555
C11_2 C15_2 1_555 1_555
C17_2 C18_2 1_555 1_555
C25_2 C26_2 1_555 1_555
O20 C38_2 1_555 1_555
O23 C38_2 1_555 1_555
N4_2 C37_2 1_555 1_555
C35_2 C38_2 1_555 1_555
C36_2 H27_2 1_555 1_555
C37_2 C36_2 1_555 1_555
C39_2 N4_2 1_555 1_555
C40_2 H28_2 1_555 1_555
C44_2 N4_2 1_555 1_555
C45_2 C35_2 1_555 1_555
H31_2 C45_2 1_555 1_555
C48_2 C40_2 1_555 1_555
H34_2 C48_2 1_555 1_555
C50_2 C37_2 1_555 1_555
H35_2 C50_2 1_555 1_555
C51_2 C35_2 1_555 1_555
H36_2 C51_2 1_555 1_555
C52_2 C40_2 1_555 1_555
C53_2 C44_2 1_555 1_555
H37_2 C53_2 1_555 1_555
C54_2 C52_2 1_555 1_555
H38_2 C54_2 1_555 1_555
C36_2 C45_2 1_555 1_555
C44_2 C48_2 1_555 1_555
C50_2 C51_2 1_555 1_555
C53_2 C54_2 1_555 1_555
Cd8 O5_2 1_555 1_555
O5_2 C16_2 1_555 1_555
C16_2 O7_2 1_555 1_555
O7_2 Cd8 1_555 1_555
C20_2 H12_2 1_555 1_555
C21_2 C20_2 1_555 1_555
H13_2 C21_2 1_555 1_555
C22_2 C21_2 1_555 1_555
C23_2 C22_2 1_555 1_555
H14_2 C23_2 1_555 1_555
C24_2 C23_2 1_555 1_555
H15_2 C24_2 1_555 1_555
N2_2 Cd8 1_555 1_555
C27_2 C22_2 1_555 1_555
H18_2 C27_2 1_555 1_555
H19_2 C27_2 1_555 1_555
C28_2 H21_2 1_555 1_555
C29_2 C28_2 1_555 1_555
H22_2 C29_2 1_555 1_555
C30_2 C29_2 1_555 1_555
C31_2 C30_2 1_555 1_555
H23_2 C31_2 1_555 1_555
C32_2 C31_2 1_555 1_555
H24_2 C32_2 1_555 1_555
N3_2 C28_2 1_555 1_555
C33_2 C27_2 1_555 1_555
H25_2 C33_2 1_555 1_555
H26_2 C33_2 1_555 1_555
C20_2 N2_2 1_555 1_555
C24_2 N2_2 1_555 1_555
C30_2 C33_2 1_555 1_555
C32_2 N3_2 1_555 1_555
O12_2 Cd10 1_555 1_555
C49_2 O12_2 1_555 1_555
O13_2 Cd10 1_555 1_555
C49_2 O13_2 1_555 1_555
O16 C42_2 1_555 1_555
O21_2 C42_2 1_555 1_555
C34_2 C41_2 1_555 1_555
C41_2 H29_2 1_555 1_555
C42_2 C34_2 1_555 1_555
C46_2 C34_2 1_555 1_555
H32_2 C46_2 1_555 1_555
H33_2 C47_2 1_555 1_555
C41_2 C43_2 1_555 1_555
C46_2 C47_2 1_555 1_555
O8 C42_3 1_555 1_555
O9 C38_3 1_555 1_555
O10 C42_3 1_555 1_555
N4_3 C37_3 1_555 1_555
O12_3 Cd3_2 1_555 1_555
C34_3 C41_3 1_555 1_555
C35_3 C38_3 1_555 1_555
C36_3 H27_3 1_555 1_555
C37_3 C36_3 1_555 1_555
C39_3 N4_3 1_555 1_555
C40_3 H28_3 1_555 1_555
C41_3 H29_3 1_555 1_555
C42_3 C34_3 1_555 1_555
C43_3 C39_3 1_555 1_555
H30_3 C43_3 1_555 1_555
C44_3 N4_3 1_555 1_555
C45_3 C35_3 1_555 1_555
H31_3 C45_3 1_555 1_555
C46_3 C34_3 1_555 1_555
H32_3 C46_3 1_555 1_555
C47_3 C39_3 1_555 1_555
H33_3 C47_3 1_555 1_555
C48_3 C40_3 1_555 1_555
H34_3 C48_3 1_555 1_555
C49_3 O12_3 1_555 1_555
C50_3 C37_3 1_555 1_555
H35_3 C50_3 1_555 1_555
O13_3 Cd3_2 1_555 1_555
C51_3 C35_3 1_555 1_555
H36_3 C51_3 1_555 1_555
C52_3 C40_3 1_555 1_555
C53_3 C44_3 1_555 1_555
H37_3 C53_3 1_555 1_555
C54_3 C52_3 1_555 1_555
H38_3 C54_3 1_555 1_555
Cd4_2 O8 1_555 1_555
Cd4 O9 1_555 1_555
Cd9 O8 1_555 1_555
O16_2 Cd3_2 1_555 1_555
O20_2 Cd3_2 1_555 1_555
O23_2 Cd3_2 1_555 1_555
O10 Cd4_2 1_555 1_555
C36_3 C45_3 1_555 1_555
C41_3 C43_3 1_555 1_555
C44_3 C48_3 1_555 1_555
C46_3 C47_3 1_555 1_555
C49_3 O13_3 1_555 1_555
C49_3 C52_3 1_555 1_555
C50_3 C51_3 1_555 1_555
C53_3 C54_3 1_555 1_555
H18_3 C27_3 1_555 1_555
H19_3 C27_3 1_555 1_555
C28_3 H21_3 1_555 1_555
C29_3 C28_3 1_555 1_555
H22_3 C29_3 1_555 1_555
C30_3 C29_3 1_555 1_555
C31_3 C30_3 1_555 1_555
H23_3 C31_3 1_555 1_555
C32_3 C31_3 1_555 1_555
H24_3 C32_3 1_555 1_555
N3_3 C28_3 1_555 1_555
O4_2 Cd7 1_555 1_555
C32_3 N3_3 1_555 1_555
O11_2 Cd9 1_555 1_555
Cd4 O1_2 1_555 1_555
Cd2_2 O5_3 1_555 1_555
O1_2 C9_3 1_555 1_555
O2 C5_3 1_555 1_555
O3_3 Cd4 1_555 1_555
N1_3 C4_3 1_555 1_555
O5_3 C16_3 1_555 1_555
C1_3 C8_3 1_555 1_555
C2_3 C5_3 1_555 1_555
C3_3 H1_3 1_555 1_555
O6_4 Cd4 1_555 1_555
C4_3 C3_3 1_555 1_555
C6_3 N1_3 1_555 1_555
C7_3 H3_3 1_555 1_555
C8_3 H4_3 1_555 1_555
C9_3 O3_3 1_555 1_555
C10_3 C6_3 1_555 1_555
H5_3 C10_3 1_555 1_555
C11_3 N1_3 1_555 1_555
C12_3 C2_3 1_555 1_555
H6_3 C12_3 1_555 1_555
C13_3 C1_3 1_555 1_555
H7_3 C13_3 1_555 1_555
C14_3 C6_3 1_555 1_555
H8_3 C14_3 1_555 1_555
C15_3 C7_3 1_555 1_555
H9_3 C15_3 1_555 1_555
C16_3 O7_3 1_555 1_555
C17_3 C4_3 1_555 1_555
H10_3 C17_3 1_555 1_555
O7_3 Cd2_2 1_555 1_555
C18_3 C2_3 1_555 1_555
H11_3 C18_3 1_555 1_555
C19_3 C7_3 1_555 1_555
C20_3 H12_3 1_555 1_555
C21_3 C20_3 1_555 1_555
H13_3 C21_3 1_555 1_555
C22_3 C21_3 1_555 1_555
C23_3 C22_3 1_555 1_555
H14_3 C23_3 1_555 1_555
C24_3 C23_3 1_555 1_555
H15_3 C24_3 1_555 1_555
N2_3 Cd2_2 1_555 1_555
C25_3 C11_3 1_555 1_555
H16_3 C25_3 1_555 1_555
C26_3 C19_3 1_555 1_555
H17_3 C26_3 1_555 1_555
H20_3 O6_4 1_555 1_555
H25_3 C33_3 1_555 1_555
H26_3 C33_3 1_555 1_555
Cd4_2 O2 1_555 1_555
Cd7 O1_2 1_555 1_555
O15_2 Cd2_2 1_555 1_555
O19_2 Cd2_2 1_555 1_555
O22_2 Cd2_2 1_555 1_555
C1_3 C9_3 1_555 1_555
C3_3 C12_3 1_555 1_555
C8_3 C10_3 1_555 1_555
C11_3 C15_3 1_555 1_555
C13_3 C14_3 1_555 1_555
C16_3 C19_3 1_555 1_555
C17_3 C18_3 1_555 1_555
C20_3 N2_3 1_555 1_555
C24_3 N2_3 1_555 1_555
C25_3 C26_3 1_555 1_555
O6_5 Cd4_2 1_555 1_555
H2_3 O6_5 1_555 1_555
O16_2 C42_4 1_555 1_555
O10_2 C42_4 1_555 1_555
C34_4 C41_4 1_555 1_555
C41_4 H29_4 1_555 1_555
C42_4 C34_4 1_555 1_555
C46_4 C34_4 1_555 1_555
H32_4 C46_4 1_555 1_555
H33_4 C47_4 1_555 1_555
Cd4_3 O16_2 1_555 1_555
O10_2 Cd4_3 1_555 1_555
C41_4 C43_4 1_555 1_555
C46_4 C47_4 1_555 1_555
O12_4 Cd9 1_555 1_555
C49_4 O12_4 1_555 1_555
O13_4 Cd9 1_555 1_555
C49_4 O13_4 1_555 1_555
Cd7 O5_4 1_555 1_555
O5_4 C16_4 1_555 1_555
C16_4 O7_4 1_555 1_555
O7_4 Cd7 1_555 1_555
C20_4 H12_4 1_555 1_555
C21_4 C20_4 1_555 1_555
H13_4 C21_4 1_555 1_555
C22_4 C21_4 1_555 1_555
C23_4 C22_4 1_555 1_555
H14_4 C23_4 1_555 1_555
C24_4 C23_4 1_555 1_555
H15_4 C24_4 1_555 1_555
N2_4 Cd7 1_555 1_555
C27_4 C22_4 1_555 1_555
H18_4 C27_4 1_555 1_555
H19_4 C27_4 1_555 1_555
C28_4 H21_4 1_555 1_555
C29_4 C28_4 1_555 1_555
H22_4 C29_4 1_555 1_555
C30_4 C29_4 1_555 1_555
C31_4 C30_4 1_555 1_555
H23_4 C31_4 1_555 1_555
C32_4 C31_4 1_555 1_555
H24_4 C32_4 1_555 1_555
N3_4 C28_4 1_555 1_555
C33_4 C27_4 1_555 1_555
H25_4 C33_4 1_555 1_555
H26_4 C33_4 1_555 1_555
C20_4 N2_4 1_555 1_555
C24_4 N2_4 1_555 1_555
C30_4 C33_4 1_555 1_555
C32_4 N3_4 1_555 1_555
O20_2 C38_4 1_555 1_555
O23_2 C38_4 1_555 1_555
N4_4 C37_4 1_555 1_555
C35_4 C38_4 1_555 1_555
C36_4 H27_4 1_555 1_555
C37_4 C36_4 1_555 1_555
C39_4 N4_4 1_555 1_555
C40_4 H28_4 1_555 1_555
C44_4 N4_4 1_555 1_555
C45_4 C35_4 1_555 1_555
H31_4 C45_4 1_555 1_555
C48_4 C40_4 1_555 1_555
H34_4 C48_4 1_555 1_555
C50_4 C37_4 1_555 1_555
H35_4 C50_4 1_555 1_555
C51_4 C35_4 1_555 1_555
H36_4 C51_4 1_555 1_555
C52_4 C40_4 1_555 1_555
C53_4 C44_4 1_555 1_555
H37_4 C53_4 1_555 1_555
C54_4 C52_4 1_555 1_555
H38_4 C54_4 1_555 1_555
Cd4_3 O20_2 1_555 1_555
C36_4 C45_4 1_555 1_555
C44_4 C48_4 1_555 1_555
C50_4 C51_4 1_555 1_555
C53_4 C54_4 1_555 1_555
O19_2 C5_4 1_555 1_555
O22_2 C5_4 1_555 1_555
N1_4 C4_4 1_555 1_555
C2_4 C5_4 1_555 1_555
C3_4 H1_4 1_555 1_555
C4_4 C3_4 1_555 1_555
C6_4 N1_4 1_555 1_555
C7_4 H3_4 1_555 1_555
C11_4 N1_4 1_555 1_555
C12_4 C2_4 1_555 1_555
H6_4 C12_4 1_555 1_555
C15_4 C7_4 1_555 1_555
H9_4 C15_4 1_555 1_555
C17_4 C4_4 1_555 1_555
H10_4 C17_4 1_555 1_555
C18_4 C2_4 1_555 1_555
H11_4 C18_4 1_555 1_555
C19_4 C7_4 1_555 1_555
C25_4 C11_4 1_555 1_555
H16_4 C25_4 1_555 1_555
C26_4 C19_4 1_555 1_555
H17_4 C26_4 1_555 1_555
Cd4_3 O19_2 1_555 1_555
C3_4 C12_4 1_555 1_555
C11_4 C15_4 1_555 1_555
C17_4 C18_4 1_555 1_555
C25_4 C26_4 1_555 1_555
Cd4_3 O15_2 1_555 1_555
O15_2 C9_4 1_555 1_555
O3_4 Cd4_3 1_555 1_555
C1_4 C8_4 1_555 1_555
O6_6 Cd4_3 1_555 1_555
H2_4 O6_6 1_555 1_555
C8_4 H4_4 1_555 1_555
C9_4 O3_4 1_555 1_555
C13_4 C1_4 1_555 1_555
H7_4 C13_4 1_555 1_555
H8_4 C14_4 1_555 1_555
H20_4 O6_6 1_555 1_555
C1_4 C9_4 1_555 1_555
C8_4 C10_4 1_555 1_555
C13_4 C14_4 1_555 1_555

#END
