
###############################################################################
#
# This file contains modified crystal structure data generated from the
# MOF subset of the Cambridge Structural Database (CSD) v543 
# hosted by the Cambridge Crystallographic Data Centre (CCDC).
#
# This work is licensed under the Creative Commons
# Attribution-NonCommercial-ShareAlike 4.0 International License.
# To view a copy of this license, visit
# http://creativecommons.org/licenses/by-nc-sa/4.0/
# or send a letter to
# Creative Commons, PO Box 1866, Mountain View, CA 94042, USA.
#
# CIF created using the CSD Python API on 29 September 2022
# The structure has been converted into the P1 space group
# The structure has a 3D framework
# The original CSD entry ECIRAN is in the monoclinic crystal system
# The framework has been calculated to contain at least 10.0% void space
# The void calculation uses a probe of radius 1.32A, grid spacing 0.4
#
###############################################################################

data_ECIRAN
_chemical_formula_moiety         '(C224 H160 Cd14 N20 O50)n'
_symmetry_cell_setting           triclinic
_symmetry_space_group_name_H-M   'P 1'
_symmetry_Int_Tables_number      1
_space_group_name_Hall           'P 1'
loop_
_symmetry_equiv_pos_site_id
_symmetry_equiv_pos_as_xyz
1 x,y,z
_cell_length_a                   12.9311(12)
_cell_length_b                   26.074(2)
_cell_length_c                   20.6483(19)
_cell_angle_alpha                90
_cell_angle_beta                 101.550(3)
_cell_angle_gamma                90
_cell_volume                     6820.92
loop_
_atom_site_label
_atom_site_type_symbol
_atom_site_fract_x
_atom_site_fract_y
_atom_site_fract_z
O3 O 0.0448(3) 0.18229(16) 0.4441(2)
Cd5 Cd 0.000000 0.15547(2) 0.250000
Cd6 Cd 0.14101(3) 0.11237(2) 0.41236(2)
N4 N 0.7312(4) 0.13585(19) 0.0049(2)
Cd8 Cd 0.85899(3) 0.11237(2) 0.08764(2)
O1 O 0.9697(3) 0.14075(14) 0.3546(2)
O2 O 0.1898(3) 0.14752(14) 0.3221(2)
O4 O 0.1179(3) 0.22021(15) 0.2829(2)
O5 O -0.000000 0.0692(2) 0.250000
N1 N 0.2688(4) 0.13585(19) 0.4951(2)
O6 O 0.5838(4) 0.53412(16) 0.4461(3)
C1 C 0.2982(4) 0.22214(19) 0.3339(3)
N2 N 0.5951(3) 0.29388(16) 0.3841(3)
C2 C 0.3119(4) 0.2723(2) 0.3162(3)
H1 H 0.254339 0.290399 0.292942
N3 N 0.4157(4) 0.1402(2) 0.5693(3)
C3 C 0.3844(4) 0.1965(2) 0.3706(3)
H2 H 0.376911 0.162714 0.383417
C4 C 0.4948(4) 0.27028(19) 0.3684(3)
C5 C 0.9678(4) 0.1755(2) 0.3980(3)
C6 C 0.4810(4) 0.2206(2) 0.3885(3)
H3 H 0.537379 0.203177 0.414267
C7 C 0.8705(4) 0.2066(2) 0.3935(3)
C8 C 0.1952(4) 0.1955(2) 0.3130(3)
C9 C 0.4081(4) 0.2961(2) 0.3321(3)
H4 H 0.415446 0.329731 0.318650
C10 C 0.7806(4) 0.1959(2) 0.3462(3)
H5 H 0.781145 0.169099 0.316639
C11 C 0.6906(4) 0.2249(2) 0.3430(3)
H6 H 0.630855 0.217408 0.311067
C12 C 0.8687(4) 0.2473(2) 0.4363(3)
H7 H 0.929138 0.255496 0.467259
C13 C 0.5545(4) 0.4268(2) 0.4370(3)
H8 H 0.514929 0.444068 0.463067
C14 C 0.5467(4) 0.3742(2) 0.4307(3)
H9 H 0.502054 0.356304 0.452780
C15 C 0.6879(4) 0.26465(19) 0.3863(3)
C16 C 0.6044(4) 0.3478(2) 0.3918(3)
C17 C 0.7781(4) 0.2759(2) 0.4336(3)
H10 H 0.777274 0.302631 0.463318
C18 C 0.6283(6) 0.5110(2) 0.4100(4)
C19 C 0.3565(5) 0.1118(3) 0.5231(3)
H11 H 0.374279 0.078931 0.511775
C20 C 0.2731(5) 0.1820(3) 0.5256(3)
H12 H 0.222123 0.207599 0.516726
C21 C 0.6212(6) 0.4539(2) 0.4048(4)
O7 O 0.6813(5) 0.53417(18) 0.3755(3)
C22 C 0.5174(5) 0.1248(3) 0.6115(4)
H13 H 0.572237 0.148498 0.604968
H14 H 0.536663 0.090837 0.598673
C23 C 0.6724(6) 0.3742(2) 0.3600(5)
H15 H 0.710816 0.356815 0.333307
C24 C 0.3630(6) 0.1845(3) 0.5707(4)
H16 H 0.385369 0.212172 0.598273
C25 C 0.5099(6) 0.1244(3) 0.6837(4)
C26 C 0.6829(6) 0.4271(3) 0.3684(5)
H17 H 0.731810 0.444763 0.349420
C27 C 0.5075(10) 0.0799(3) 0.7167(4)
H18 H 0.515706 0.049017 0.695845
C28 C 0.5052(10) 0.1682(3) 0.7176(4)
H19 H 0.509209 0.199407 0.696437
H21 H 0.059(3) 0.0441(16) 0.2620(10)
N5 N 0.5843(4) 0.1402(2) 0.9307(3)
C29 C 0.6435(5) 0.1118(3) 0.9769(3)
H22 H 0.625721 0.078931 0.988225
C30 C 0.7269(5) 0.1820(3) 0.9744(3)
H23 H 0.777877 0.207599 0.983274
C31 C 0.4826(5) 0.1248(3) 0.8885(4)
H24 H 0.427763 0.148498 0.895032
H25 H 0.463337 0.090837 0.901327
C32 C 0.6370(6) 0.1845(3) 0.9293(4)
H26 H 0.614631 0.212172 0.901727
C33 C 0.4901(6) 0.1244(3) 0.8163(4)
C34 C 0.4925(10) 0.0799(3) 0.7833(4)
H27 H 0.484294 0.049017 0.804155
C35 C 0.4948(10) 0.1682(3) 0.7824(4)
H28 H 0.490791 0.199407 0.803563
Cd5_2 Cd 1.000000 0.15547(2) 0.250000
Cd9 Cd 0.64101(3) 0.61237(2) 0.41236(2)
O15 O 0.0303(3) 0.14075(14) 0.1454(2)
O18 O 0.0838(4) 0.03412(16) 0.4461(3)
O20 O 0.1813(5) 0.03417(18) 0.3755(3)
O5_2 O 1.000000 0.0692(2) 0.250000
H20 H 0.941(3) 0.0441(16) 0.2380(10)
O9 O 0.8102(3) 0.14752(14) 0.1779(2)
O11 O 0.8821(3) 0.22021(15) 0.2171(2)
O12 O 0.4162(4) 0.53412(16) 0.0539(3)
C36 C 0.7018(4) 0.22214(19) 0.1661(3)
N6 N 0.4049(3) 0.29388(16) 0.1159(3)
C37 C 0.6881(4) 0.2723(2) 0.1838(3)
H29 H 0.745661 0.290399 0.207058
C38 C 0.6156(4) 0.1965(2) 0.1294(3)
H30 H 0.623089 0.162714 0.116583
C39 C 0.5052(4) 0.27028(19) 0.1316(3)
C40 C 0.0322(4) 0.1755(2) 0.1020(3)
C41 C 0.5190(4) 0.2206(2) 0.1115(3)
H31 H 0.462621 0.203177 0.085733
C42 C 0.1295(4) 0.2066(2) 0.1065(3)
C43 C 0.8048(4) 0.1955(2) 0.1870(3)
C44 C 0.5919(4) 0.2961(2) 0.1679(3)
H32 H 0.584554 0.329731 0.181350
C45 C 0.2194(4) 0.1959(2) 0.1538(3)
H33 H 0.218855 0.169099 0.183361
C46 C 0.3094(4) 0.2249(2) 0.1570(3)
H34 H 0.369145 0.217408 0.188933
C47 C 0.1313(4) 0.2473(2) 0.0637(3)
H35 H 0.070862 0.255496 0.032741
C48 C 0.4455(4) 0.4268(2) 0.0630(3)
H36 H 0.485071 0.444068 0.036933
C49 C 0.4533(4) 0.3742(2) 0.0693(3)
H37 H 0.497946 0.356304 0.047220
C50 C 0.3121(4) 0.26465(19) 0.1137(3)
C51 C 0.3956(4) 0.3478(2) 0.1082(3)
C52 C 0.2219(4) 0.2759(2) 0.0664(3)
H38 H 0.222726 0.302631 0.036682
C53 C 0.3717(6) 0.5110(2) 0.0900(4)
C54 C 0.3788(6) 0.4539(2) 0.0952(4)
O13 O 0.3187(5) 0.53417(18) 0.1245(3)
C55 C 0.3276(6) 0.3742(2) 0.1400(5)
H39 H 0.289184 0.356815 0.166693
C56 C 0.3171(6) 0.4271(3) 0.1316(5)
H40 H 0.268190 0.444763 0.150580
Cd10 Cd 0.35899(3) 0.61237(2) 0.08764(2)
O17 O 0.9552(3) 0.18229(16) 0.0559(2)
O19 O 0.9162(4) 0.03412(16) 0.0539(3)
O21 O 0.8187(5) 0.03417(18) 0.1245(3)
C18_2 C 0.1283(6) 0.0110(2) 0.4100(4)
N4_2 N 0.2312(4) 0.63585(19) 0.0049(2)
O1_2 O 0.4697(3) 0.64075(14) 0.3546(2)
O3_2 O 0.5448(3) 0.68229(16) 0.4441(2)
N2_2 N 0.0951(3) 0.79388(16) 0.3841(3)
C5_2 C 0.4678(4) 0.6755(2) 0.3980(3)
H3_2 H 0.037379 0.703177 0.414267
C7_2 C 0.3705(4) 0.7066(2) 0.3935(3)
C10_2 C 0.2806(4) 0.6959(2) 0.3462(3)
H5_2 H 0.281145 0.669099 0.316639
C11_2 C 0.1906(4) 0.7249(2) 0.3430(3)
H6_2 H 0.130855 0.717408 0.311067
C12_2 C 0.3687(4) 0.7473(2) 0.4363(3)
H7_2 H 0.429138 0.755496 0.467259
C13_2 C 0.0545(4) 0.9268(2) 0.4370(3)
H8_2 H 0.014929 0.944068 0.463067
C14_2 C 0.0467(4) 0.8742(2) 0.4307(3)
H9_2 H 0.002054 0.856304 0.452780
C15_2 C 0.1879(4) 0.76465(19) 0.3863(3)
C16_2 C 0.1044(4) 0.8478(2) 0.3918(3)
C17_2 C 0.2781(4) 0.7759(2) 0.4336(3)
H10_2 H 0.277274 0.802631 0.463318
C21_2 C 0.1212(6) 0.9539(2) 0.4048(4)
C22_2 C 0.0174(5) 0.6248(3) 0.6115(4)
H13_2 H 0.072237 0.648498 0.604968
H14_2 H 0.036663 0.590837 0.598673
C23_2 C 0.1724(6) 0.8742(2) 0.3600(5)
H15_2 H 0.210816 0.856815 0.333307
C25_2 C 0.0099(6) 0.6244(3) 0.6837(4)
C26_2 C 0.1829(6) 0.9271(3) 0.3684(5)
H17_2 H 0.231810 0.944763 0.349420
C27_2 C 0.0075(10) 0.5799(3) 0.7167(4)
H18_2 H 0.015706 0.549017 0.695845
C28_2 C 0.0052(10) 0.6682(3) 0.7176(4)
H19_2 H 0.009209 0.699407 0.696437
N5_2 N 0.0843(4) 0.6402(2) 0.9307(3)
C29_2 C 0.1435(5) 0.6118(3) 0.9769(3)
H22_2 H 0.125721 0.578931 0.988225
C30_2 C 0.2269(5) 0.6820(3) 0.9744(3)
H23_2 H 0.277877 0.707599 0.983274
C32_2 C 0.1370(6) 0.6845(3) 0.9293(4)
H26_2 H 0.114631 0.712172 0.901727
Cd5_3 Cd 0.500000 0.65547(2) 0.250000
O2_2 O 0.6898(3) 0.64752(14) 0.3221(2)
O4_2 O 0.6179(3) 0.72021(15) 0.2829(2)
O5_3 O 0.500000 0.5692(2) 0.250000
N1_2 N 0.7688(4) 0.63585(19) 0.4951(2)
C1_2 C 0.7982(4) 0.72214(19) 0.3339(3)
C2_2 C 0.8119(4) 0.7723(2) 0.3162(3)
H1_2 H 0.754339 0.790399 0.292942
N3_2 N 0.9157(4) 0.6402(2) 0.5693(3)
C3_2 C 0.8844(4) 0.6965(2) 0.3706(3)
H2_2 H 0.876911 0.662714 0.383417
C4_2 C 0.9948(4) 0.77028(19) 0.3684(3)
C6_2 C 0.9810(4) 0.7206(2) 0.3885(3)
C8_2 C 0.6952(4) 0.6955(2) 0.3130(3)
C9_2 C 0.9081(4) 0.7961(2) 0.3321(3)
H4_2 H 0.915446 0.829731 0.318650
C19_2 C 0.8565(5) 0.6118(3) 0.5231(3)
H11_2 H 0.874279 0.578931 0.511775
C20_2 C 0.7731(5) 0.6820(3) 0.5256(3)
H12_2 H 0.722123 0.707599 0.516726
C24_2 C 0.8630(6) 0.6845(3) 0.5707(4)
H16_2 H 0.885369 0.712172 0.598273
H20_2 H 0.441(3) 0.5441(16) 0.2380(10)
H21_2 H 0.559(3) 0.5441(16) 0.2620(10)
C31_2 C 0.9826(5) 0.6248(3) 0.8885(4)
H24_2 H 0.927763 0.648498 0.895032
H25_2 H 0.963337 0.590837 0.901327
C33_2 C 0.9901(6) 0.6244(3) 0.8163(4)
C34_2 C 0.9925(10) 0.5799(3) 0.7833(4)
H27_2 H 0.984294 0.549017 0.804155
C35_2 C 0.9948(10) 0.6682(3) 0.7824(4)
H28_2 H 0.990791 0.699407 0.803563
O9_2 O 0.3102(3) 0.64752(14) 0.1779(2)
O11_2 O 0.3821(3) 0.72021(15) 0.2171(2)
C36_2 C 0.2018(4) 0.72214(19) 0.1661(3)
C37_2 C 0.1881(4) 0.7723(2) 0.1838(3)
H29_2 H 0.245661 0.790399 0.207058
C38_2 C 0.1156(4) 0.6965(2) 0.1294(3)
H30_2 H 0.123089 0.662714 0.116583
C39_2 C 0.0052(4) 0.77028(19) 0.1316(3)
C41_2 C 0.0190(4) 0.7206(2) 0.1115(3)
C43_2 C 0.3048(4) 0.6955(2) 0.1870(3)
C44_2 C 0.0919(4) 0.7961(2) 0.1679(3)
H32_2 H 0.084554 0.829731 0.181350
O15_2 O 0.5303(3) 0.64075(14) 0.1454(2)
O17_2 O 0.4552(3) 0.68229(16) 0.0559(2)
C53_2 C 0.8717(6) 0.0110(2) 0.0900(4)
N6_2 N 0.9049(3) 0.79388(16) 0.1159(3)
C40_2 C 0.5322(4) 0.6755(2) 0.1020(3)
H31_2 H 0.962621 0.703177 0.085733
C42_2 C 0.6295(4) 0.7066(2) 0.1065(3)
C45_2 C 0.7194(4) 0.6959(2) 0.1538(3)
H33_2 H 0.718855 0.669099 0.183361
C46_2 C 0.8094(4) 0.7249(2) 0.1570(3)
H34_2 H 0.869145 0.717408 0.188933
C47_2 C 0.6313(4) 0.7473(2) 0.0637(3)
H35_2 H 0.570862 0.755496 0.032741
C48_2 C 0.9455(4) 0.9268(2) 0.0630(3)
H36_2 H 0.985071 0.944068 0.036933
C49_2 C 0.9533(4) 0.8742(2) 0.0693(3)
H37_2 H 0.997946 0.856304 0.047220
C50_2 C 0.8121(4) 0.76465(19) 0.1137(3)
C51_2 C 0.8956(4) 0.8478(2) 0.1082(3)
C52_2 C 0.7219(4) 0.7759(2) 0.0664(3)
H38_2 H 0.722726 0.802631 0.036682
C54_2 C 0.8788(6) 0.9539(2) 0.0952(4)
C55_2 C 0.8276(6) 0.8742(2) 0.1400(5)
H39_2 H 0.789184 0.856815 0.166693
C56_2 C 0.8171(6) 0.9271(3) 0.1316(5)
H40_2 H 0.768190 0.944763 0.150580
O10 O 0.0448(3) 0.81771(16) 0.9441(2)
Cd4 Cd 0.000000 0.84453(2) 0.750000
Cd7 Cd 0.14101(3) 0.88763(2) 0.91236(2)
O5_4 O 0.000000 0.9308(2) 0.750000
H20_3 H 0.059(3) 0.9559(16) 0.7620(10)
O8 O 0.9697(3) 0.85925(14) 0.8546(2)
O9_3 O 0.1898(3) 0.85248(14) 0.8221(2)
O11_3 O 0.1179(3) 0.77979(15) 0.7829(2)
O12_2 O 0.5838(4) 0.46588(16) 0.9461(3)
C36_3 C 0.2982(4) 0.77786(19) 0.8339(3)
N6_3 N 0.5951(3) 0.70612(16) 0.8841(3)
C37_3 C 0.3119(4) 0.7277(2) 0.8162(3)
H29_3 H 0.254339 0.709601 0.792942
C38_3 C 0.3844(4) 0.8035(2) 0.8706(3)
H30_3 H 0.376911 0.837286 0.883417
C39_3 C 0.4948(4) 0.72972(19) 0.8684(3)
C40_3 C 0.9678(4) 0.8245(2) 0.8980(3)
C41_3 C 0.4810(4) 0.7794(2) 0.8885(3)
H31_3 H 0.537379 0.796823 0.914267
C42_3 C 0.8705(4) 0.7934(2) 0.8935(3)
C43_3 C 0.1952(4) 0.8045(2) 0.8130(3)
C44_3 C 0.4081(4) 0.7039(2) 0.8321(3)
H32_3 H 0.415446 0.670269 0.818650
C45_3 C 0.7806(4) 0.8041(2) 0.8462(3)
H33_3 H 0.781145 0.830901 0.816639
C46_3 C 0.6906(4) 0.7751(2) 0.8430(3)
H34_3 H 0.630855 0.782592 0.811067
C47_3 C 0.8687(4) 0.7527(2) 0.9363(3)
H35_3 H 0.929138 0.744504 0.967259
C48_3 C 0.5545(4) 0.5732(2) 0.9370(3)
H36_3 H 0.514929 0.555932 0.963067
C49_3 C 0.5467(4) 0.6258(2) 0.9307(3)
H37_3 H 0.502054 0.643696 0.952780
C50_3 C 0.6879(4) 0.73535(19) 0.8863(3)
C51_3 C 0.6044(4) 0.6522(2) 0.8918(3)
C52_3 C 0.7781(4) 0.7241(2) 0.9336(3)
H38_3 H 0.777274 0.697369 0.963318
C53_3 C 0.6283(6) 0.4890(2) 0.9100(4)
C54_3 C 0.6212(6) 0.5461(2) 0.9048(4)
O13_2 O 0.6813(5) 0.46583(18) 0.8755(3)
C55_3 C 0.6724(6) 0.6258(2) 0.8600(5)
H39_3 H 0.710816 0.643185 0.833307
C56_3 C 0.6829(6) 0.5729(3) 0.8684(5)
H40_3 H 0.731810 0.555237 0.849420
Cd4_2 Cd 1.000000 0.84453(2) 0.750000
Cd10_2 Cd 0.64101(3) 0.38763(2) 0.91236(2)
O14 O 0.0303(3) 0.85925(14) 0.6454(2)
N7 N 0.2688(4) 0.86415(19) 0.9951(2)
O19_2 O 0.0838(4) 0.96588(16) 0.9461(3)
O21_2 O 0.1813(5) 0.96583(18) 0.8755(3)
Cd2 Cd 0.85899(3) 0.88763(2) 0.58764(2)
O2_3 O 0.8102(3) 0.85248(14) 0.6779(2)
O4_3 O 0.8821(3) 0.77979(15) 0.7171(2)
O5_5 O 1.000000 0.9308(2) 0.750000
N1_3 N 0.7312(4) 0.86415(19) 0.5049(2)
O6_2 O 0.4162(4) 0.46588(16) 0.5539(3)
C1_3 C 0.7018(4) 0.77786(19) 0.6661(3)
N2_3 N 0.4049(3) 0.70612(16) 0.6159(3)
C2_3 C 0.6881(4) 0.7277(2) 0.6838(3)
H1_3 H 0.745661 0.709601 0.707058
N3_3 N 0.5843(4) 0.8598(2) 0.4307(3)
C3_3 C 0.6156(4) 0.8035(2) 0.6294(3)
H2_3 H 0.623089 0.837286 0.616583
C4_3 C 0.5052(4) 0.72972(19) 0.6316(3)
C5_3 C 0.0322(4) 0.8245(2) 0.6020(3)
C6_3 C 0.5190(4) 0.7794(2) 0.6115(3)
H3_3 H 0.462621 0.796823 0.585733
C7_3 C 0.1295(4) 0.7934(2) 0.6065(3)
C8_3 C 0.8048(4) 0.8045(2) 0.6870(3)
C9_3 C 0.5919(4) 0.7039(2) 0.6679(3)
H4_3 H 0.584554 0.670269 0.681350
C10_3 C 0.2194(4) 0.8041(2) 0.6538(3)
H5_3 H 0.218855 0.830901 0.683361
C11_3 C 0.3094(4) 0.7751(2) 0.6570(3)
H6_3 H 0.369145 0.782592 0.688933
C12_3 C 0.1313(4) 0.7527(2) 0.5637(3)
H7_3 H 0.070862 0.744504 0.532741
C13_3 C 0.4455(4) 0.5732(2) 0.5630(3)
H8_3 H 0.485071 0.555932 0.536933
C14_3 C 0.4533(4) 0.6258(2) 0.5693(3)
H9_3 H 0.497946 0.643696 0.547220
C15_3 C 0.3121(4) 0.73535(19) 0.6137(3)
C16_3 C 0.3956(4) 0.6522(2) 0.6082(3)
C17_3 C 0.2219(4) 0.7241(2) 0.5664(3)
H10_3 H 0.222726 0.697369 0.536682
C18_3 C 0.3717(6) 0.4890(2) 0.5900(4)
C19_3 C 0.6435(5) 0.8882(3) 0.4769(3)
H11_3 H 0.625721 0.921069 0.488225
C20_3 C 0.7269(5) 0.8180(3) 0.4744(3)
H12_3 H 0.777877 0.792401 0.483274
C21_3 C 0.3788(6) 0.5461(2) 0.5952(4)
O7_2 O 0.3187(5) 0.46583(18) 0.6245(3)
C22_3 C 0.4826(5) 0.8752(3) 0.3885(4)
H13_3 H 0.427763 0.851502 0.395032
H14_3 H 0.463337 0.909163 0.401327
C23_3 C 0.3276(6) 0.6258(2) 0.6400(5)
H15_3 H 0.289184 0.643185 0.666693
C24_3 C 0.6370(6) 0.8155(3) 0.4293(4)
H16_3 H 0.614631 0.787828 0.401727
C25_3 C 0.4901(6) 0.8756(3) 0.3163(4)
C26_3 C 0.3171(6) 0.5729(3) 0.6316(5)
H17_3 H 0.268190 0.555237 0.650580
C27_3 C 0.4925(10) 0.9201(3) 0.2833(4)
H18_3 H 0.484294 0.950983 0.304155
C28_3 C 0.4948(10) 0.8318(3) 0.2824(4)
H19_3 H 0.490791 0.800593 0.303563
H21_3 H 0.941(3) 0.9559(16) 0.7380(10)
N5_3 N 0.4157(4) 0.8598(2) 0.0693(3)
C29_3 C 0.3565(5) 0.8882(3) 0.0231(3)
H22_3 H 0.374279 0.921069 0.011775
C30_3 C 0.2731(5) 0.8180(3) 0.0256(3)
H23_3 H 0.222123 0.792401 0.016726
C31_3 C 0.5174(5) 0.8752(3) 0.1115(4)
H24_3 H 0.572237 0.851502 0.104968
H25_3 H 0.536663 0.909163 0.098673
C32_3 C 0.3630(6) 0.8155(3) 0.0707(4)
H26_3 H 0.385369 0.787828 0.098273
C33_3 C 0.5099(6) 0.8756(3) 0.1837(4)
C34_3 C 0.5075(10) 0.9201(3) 0.2167(4)
H27_3 H 0.515706 0.950983 0.195845
C35_3 C 0.5052(10) 0.8318(3) 0.2176(4)
H28_3 H 0.509209 0.800593 0.196437
Cd9_2 Cd 0.35899(3) 0.38763(2) 0.58764(2)
O16 O 0.9552(3) 0.81771(16) 0.5559(2)
O18_2 O 0.9162(4) 0.96588(16) 0.5539(3)
O20_2 O 0.8187(5) 0.96583(18) 0.6245(3)
O8_2 O 0.4697(3) 0.35925(14) 0.8546(2)
O10_2 O 0.5448(3) 0.31771(16) 0.9441(2)
N6_4 N 0.0951(3) 0.20612(16) 0.8841(3)
C40_4 C 0.4678(4) 0.3245(2) 0.8980(3)
H31_4 H 0.037379 0.296823 0.914267
C42_4 C 0.3705(4) 0.2934(2) 0.8935(3)
C45_4 C 0.2806(4) 0.3041(2) 0.8462(3)
H33_4 H 0.281145 0.330901 0.816639
C46_4 C 0.1906(4) 0.2751(2) 0.8430(3)
H34_4 H 0.130855 0.282592 0.811067
C47_4 C 0.3687(4) 0.2527(2) 0.9363(3)
H35_4 H 0.429138 0.244504 0.967259
C48_4 C 0.0545(4) 0.0732(2) 0.9370(3)
H36_4 H 0.014929 0.055932 0.963067
C49_4 C 0.0467(4) 0.1258(2) 0.9307(3)
H37_4 H 0.002054 0.143696 0.952780
C50_4 C 0.1879(4) 0.23535(19) 0.8863(3)
C51_4 C 0.1044(4) 0.1522(2) 0.8918(3)
C52_4 C 0.2781(4) 0.2241(2) 0.9336(3)
H38_4 H 0.277274 0.197369 0.963318
C54_4 C 0.1212(6) 0.0461(2) 0.9048(4)
C55_4 C 0.1724(6) 0.1258(2) 0.8600(5)
H39_4 H 0.210816 0.143185 0.833307
C56_4 C 0.1829(6) 0.0729(3) 0.8684(5)
H40_4 H 0.231810 0.055237 0.849420
Cd4_3 Cd 0.500000 0.34453(2) 0.750000
C53_4 C 0.1283(6) 0.9890(2) 0.9100(4)
O2_4 O 0.3102(3) 0.35248(14) 0.6779(2)
O4_4 O 0.3821(3) 0.27979(15) 0.7171(2)
O5_6 O 0.500000 0.4308(2) 0.750000
N1_4 N 0.2312(4) 0.36415(19) 0.5049(2)
C1_4 C 0.2018(4) 0.27786(19) 0.6661(3)
C2_4 C 0.1881(4) 0.2277(2) 0.6838(3)
H1_4 H 0.245661 0.209601 0.707058
N3_4 N 0.0843(4) 0.3598(2) 0.4307(3)
C3_4 C 0.1156(4) 0.3035(2) 0.6294(3)
H2_4 H 0.123089 0.337286 0.616583
C4_4 C 0.0052(4) 0.22972(19) 0.6316(3)
C6_4 C 0.0190(4) 0.2794(2) 0.6115(3)
C8_4 C 0.3048(4) 0.3045(2) 0.6870(3)
C9_4 C 0.0919(4) 0.2039(2) 0.6679(3)
H4_4 H 0.084554 0.170269 0.681350
C19_4 C 0.1435(5) 0.3882(3) 0.4769(3)
H11_4 H 0.125721 0.421069 0.488225
C20_4 C 0.2269(5) 0.3180(3) 0.4744(3)
H12_4 H 0.277877 0.292401 0.483274
C24_4 C 0.1370(6) 0.3155(3) 0.4293(4)
H16_4 H 0.114631 0.287828 0.401727
H20_4 H 0.559(3) 0.4559(16) 0.7620(10)
H21_4 H 0.441(3) 0.4559(16) 0.7380(10)
C31_4 C 0.0174(5) 0.3752(3) 0.1115(4)
H24_4 H 0.072237 0.351502 0.104968
H25_4 H 0.036663 0.409163 0.098673
C33_4 C 0.0099(6) 0.3756(3) 0.1837(4)
C34_4 C 0.0075(10) 0.4201(3) 0.2167(4)
H27_4 H 0.015706 0.450983 0.195845
C35_4 C 0.0052(10) 0.3318(3) 0.2176(4)
H28_4 H 0.009209 0.300593 0.196437
O9_4 O 0.6898(3) 0.35248(14) 0.8221(2)
O11_4 O 0.6179(3) 0.27979(15) 0.7829(2)
C36_4 C 0.7982(4) 0.27786(19) 0.8339(3)
C37_4 C 0.8119(4) 0.2277(2) 0.8162(3)
H29_4 H 0.754339 0.209601 0.792942
C38_4 C 0.8844(4) 0.3035(2) 0.8706(3)
H30_4 H 0.876911 0.337286 0.883417
C39_4 C 0.9948(4) 0.22972(19) 0.8684(3)
C41_4 C 0.9810(4) 0.2794(2) 0.8885(3)
C43_4 C 0.6952(4) 0.3045(2) 0.8130(3)
C44_4 C 0.9081(4) 0.2039(2) 0.8321(3)
H32_4 H 0.915446 0.170269 0.818650
O14_2 O 0.5303(3) 0.35925(14) 0.6454(2)
O16_2 O 0.4552(3) 0.31771(16) 0.5559(2)
N7_2 N 0.7688(4) 0.36415(19) 0.9951(2)
N2_4 N 0.9049(3) 0.20612(16) 0.6159(3)
C5_4 C 0.5322(4) 0.3245(2) 0.6020(3)
H3_4 H 0.962621 0.296823 0.585733
C7_4 C 0.6295(4) 0.2934(2) 0.6065(3)
C10_4 C 0.7194(4) 0.3041(2) 0.6538(3)
H5_4 H 0.718855 0.330901 0.683361
C11_4 C 0.8094(4) 0.2751(2) 0.6570(3)
H6_4 H 0.869145 0.282592 0.688933
C12_4 C 0.6313(4) 0.2527(2) 0.5637(3)
H7_4 H 0.570862 0.244504 0.532741
C13_4 C 0.9455(4) 0.0732(2) 0.5630(3)
H8_4 H 0.985071 0.055932 0.536933
C14_4 C 0.9533(4) 0.1258(2) 0.5693(3)
H9_4 H 0.997946 0.143696 0.547220
C15_4 C 0.8121(4) 0.23535(19) 0.6137(3)
C16_4 C 0.8956(4) 0.1522(2) 0.6082(3)
C17_4 C 0.7219(4) 0.2241(2) 0.5664(3)
H10_4 H 0.722726 0.197369 0.536682
C21_4 C 0.8788(6) 0.0461(2) 0.5952(4)
C22_4 C 0.9826(5) 0.3752(3) 0.3885(4)
H13_4 H 0.927763 0.351502 0.395032
H14_4 H 0.963337 0.409163 0.401327
C23_4 C 0.8276(6) 0.1258(2) 0.6400(5)
H15_4 H 0.789184 0.143185 0.666693
C25_4 C 0.9901(6) 0.3756(3) 0.3163(4)
C26_4 C 0.8171(6) 0.0729(3) 0.6316(5)
H17_4 H 0.768190 0.055237 0.650580
C27_4 C 0.9925(10) 0.4201(3) 0.2833(4)
H18_4 H 0.984294 0.450983 0.304155
C28_4 C 0.9948(10) 0.3318(3) 0.2824(4)
H19_4 H 0.990791 0.300593 0.303563
N5_4 N 0.9157(4) 0.3598(2) 0.0693(3)
C29_4 C 0.8565(5) 0.3882(3) 0.0231(3)
H22_4 H 0.874279 0.421069 0.011775
C30_4 C 0.7731(5) 0.3180(3) 0.0256(3)
H23_4 H 0.722123 0.292401 0.016726
C32_4 C 0.8630(6) 0.3155(3) 0.0707(4)
H26_4 H 0.885369 0.287828 0.098273
C18_4 C 0.8717(6) 0.9890(2) 0.5900(4)
loop_
_geom_bond_atom_site_label_1
_geom_bond_atom_site_label_2
_geom_bond_site_symmetry_1
_geom_bond_site_symmetry_2
O3 Cd6 1_555 1_555
Cd8 N4 1_555 1_555
Cd5 O2 1_555 1_555
Cd6 O2 1_555 1_555
O1 C5 1_555 1_555
O2 C8 1_555 1_555
O4 Cd5 1_555 1_555
O5 Cd5 1_555 1_555
N1 Cd6 1_555 1_555
O6 C18 1_555 1_555
C1 C2 1_555 1_555
N2 C4 1_555 1_555
C2 H1 1_555 1_555
N3 C19 1_555 1_555
C3 C1 1_555 1_555
H2 C3 1_555 1_555
C4 C6 1_555 1_555
C5 C7 1_555 1_555
C6 C3 1_555 1_555
H3 C6 1_555 1_555
C7 C10 1_555 1_555
C8 O4 1_555 1_555
C9 C2 1_555 1_555
H4 C9 1_555 1_555
C10 H5 1_555 1_555
C11 C10 1_555 1_555
H6 C11 1_555 1_555
C12 C7 1_555 1_555
H7 C12 1_555 1_555
C13 H8 1_555 1_555
C14 C13 1_555 1_555
H9 C14 1_555 1_555
C15 N2 1_555 1_555
C16 N2 1_555 1_555
C17 C12 1_555 1_555
H10 C17 1_555 1_555
C18 C21 1_555 1_555
C19 N1 1_555 1_555
H11 C19 1_555 1_555
C20 N1 1_555 1_555
H12 C20 1_555 1_555
C21 C13 1_555 1_555
O7 C18 1_555 1_555
C22 N3 1_555 1_555
H13 C22 1_555 1_555
H14 C22 1_555 1_555
C23 C16 1_555 1_555
H15 C23 1_555 1_555
C24 N3 1_555 1_555
H16 C24 1_555 1_555
C25 C22 1_555 1_555
C26 C21 1_555 1_555
H17 C26 1_555 1_555
C27 C25 1_555 1_555
H18 C27 1_555 1_555
C28 C25 1_555 1_555
H19 C28 1_555 1_555
H21 O5 1_555 1_555
N5 C29 1_555 1_555
C29 H22 1_555 1_555
H23 C30 1_555 1_555
C31 N5 1_555 1_555
H24 C31 1_555 1_555
H25 C31 1_555 1_555
C32 N5 1_555 1_555
H26 C32 1_555 1_555
C33 C31 1_555 1_555
C34 C27 1_555 1_555
H27 C34 1_555 1_555
C35 C28 1_555 1_555
H28 C35 1_555 1_555
Cd5_2 O1 1_555 1_555
Cd9 O6 1_555 1_555
O15 Cd5 1_555 1_555
O18 Cd6 1_555 1_555
O20 Cd6 1_555 1_555
C1 C8 1_555 1_555
C4 C9 1_555 1_555
C11 C15 1_555 1_555
C14 C16 1_555 1_555
C15 C17 1_555 1_555
C20 C24 1_555 1_555
O7 Cd9 1_555 1_555
C23 C26 1_555 1_555
C30 C32 1_555 1_555
C33 C34 1_555 1_555
C33 C35 1_555 1_555
O5_2 Cd5_2 1_555 1_555
H20 O5_2 1_555 1_555
Cd8 O9 1_555 1_555
O15 C40 1_555 1_555
O9 Cd5_2 1_555 1_555
O11 Cd5_2 1_555 1_555
O12 C53 1_555 1_555
C36 C37 1_555 1_555
N6 C39 1_555 1_555
C37 H29 1_555 1_555
C38 C36 1_555 1_555
H30 C38 1_555 1_555
C39 C41 1_555 1_555
C40 C42 1_555 1_555
C41 C38 1_555 1_555
H31 C41 1_555 1_555
C42 C45 1_555 1_555
C43 O9 1_555 1_555
C44 C37 1_555 1_555
H32 C44 1_555 1_555
C45 H33 1_555 1_555
C46 C45 1_555 1_555
H34 C46 1_555 1_555
C47 C42 1_555 1_555
H35 C47 1_555 1_555
C48 H36 1_555 1_555
C49 C48 1_555 1_555
H37 C49 1_555 1_555
C50 N6 1_555 1_555
C51 N6 1_555 1_555
C52 C47 1_555 1_555
H38 C52 1_555 1_555
C53 C54 1_555 1_555
C54 C48 1_555 1_555
O13 C53 1_555 1_555
C55 C51 1_555 1_555
H39 C55 1_555 1_555
C56 C54 1_555 1_555
H40 C56 1_555 1_555
Cd10 O12 1_555 1_555
O17 Cd8 1_555 1_555
O19 Cd8 1_555 1_555
O21 Cd8 1_555 1_555
O11 C43 1_555 1_555
C36 C43 1_555 1_555
C39 C44 1_555 1_555
C46 C50 1_555 1_555
C49 C51 1_555 1_555
C50 C52 1_555 1_555
O13 Cd10 1_555 1_555
C55 C56 1_555 1_555
O18 C18_2 1_555 1_555
O20 C18_2 1_555 1_555
Cd10 N4_2 1_555 1_555
O1_2 C5_2 1_555 1_555
O3_2 C5_2 1_555 1_555
C5_2 C7_2 1_555 1_555
C7_2 C10_2 1_555 1_555
C10_2 H5_2 1_555 1_555
C11_2 C10_2 1_555 1_555
H6_2 C11_2 1_555 1_555
C12_2 C7_2 1_555 1_555
H7_2 C12_2 1_555 1_555
C13_2 H8_2 1_555 1_555
C14_2 C13_2 1_555 1_555
H9_2 C14_2 1_555 1_555
C15_2 N2_2 1_555 1_555
C16_2 N2_2 1_555 1_555
C17_2 C12_2 1_555 1_555
H10_2 C17_2 1_555 1_555
C21_2 C13_2 1_555 1_555
H13_2 C22_2 1_555 1_555
H14_2 C22_2 1_555 1_555
C23_2 C16_2 1_555 1_555
H15_2 C23_2 1_555 1_555
C25_2 C22_2 1_555 1_555
C26_2 C21_2 1_555 1_555
H17_2 C26_2 1_555 1_555
C27_2 C25_2 1_555 1_555
H18_2 C27_2 1_555 1_555
C28_2 C25_2 1_555 1_555
H19_2 C28_2 1_555 1_555
N5_2 C29_2 1_555 1_555
C29_2 H22_2 1_555 1_555
H23_2 C30_2 1_555 1_555
C32_2 N5_2 1_555 1_555
H26_2 C32_2 1_555 1_555
Cd5_3 O1_2 1_555 1_555
Cd9 O1_2 1_555 1_555
O3_2 Cd9 1_555 1_555
C11_2 C15_2 1_555 1_555
C14_2 C16_2 1_555 1_555
C15_2 C17_2 1_555 1_555
C23_2 C26_2 1_555 1_555
C30_2 C32_2 1_555 1_555
Cd5_3 O2_2 1_555 1_555
Cd9 O2_2 1_555 1_555
O2_2 C8_2 1_555 1_555
O4_2 Cd5_3 1_555 1_555
O5_3 Cd5_3 1_555 1_555
N1_2 Cd9 1_555 1_555
C1_2 C2_2 1_555 1_555
C2_2 H1_2 1_555 1_555
N3_2 C19_2 1_555 1_555
C3_2 C1_2 1_555 1_555
H2_2 C3_2 1_555 1_555
C4_2 C6_2 1_555 1_555
C6_2 C3_2 1_555 1_555
C8_2 O4_2 1_555 1_555
C9_2 C2_2 1_555 1_555
H4_2 C9_2 1_555 1_555
C19_2 N1_2 1_555 1_555
H11_2 C19_2 1_555 1_555
C20_2 N1_2 1_555 1_555
H12_2 C20_2 1_555 1_555
C24_2 N3_2 1_555 1_555
H16_2 C24_2 1_555 1_555
H20_2 O5_3 1_555 1_555
H21_2 O5_3 1_555 1_555
H24_2 C31_2 1_555 1_555
H25_2 C31_2 1_555 1_555
C33_2 C31_2 1_555 1_555
H27_2 C34_2 1_555 1_555
H28_2 C35_2 1_555 1_555
Cd10 O9_2 1_555 1_555
O9_2 Cd5_3 1_555 1_555
O11_2 Cd5_3 1_555 1_555
C36_2 C37_2 1_555 1_555
C37_2 H29_2 1_555 1_555
C38_2 C36_2 1_555 1_555
H30_2 C38_2 1_555 1_555
C39_2 C41_2 1_555 1_555
C41_2 C38_2 1_555 1_555
C43_2 O9_2 1_555 1_555
C44_2 C37_2 1_555 1_555
H32_2 C44_2 1_555 1_555
O15_2 Cd5_3 1_555 1_555
O17_2 Cd10 1_555 1_555
C1_2 C8_2 1_555 1_555
C4_2 C9_2 1_555 1_555
C20_2 C24_2 1_555 1_555
C33_2 C34_2 1_555 1_555
C33_2 C35_2 1_555 1_555
Cd10 O15_2 1_555 1_555
O11_2 C43_2 1_555 1_555
C36_2 C43_2 1_555 1_555
C39_2 C44_2 1_555 1_555
O19 C53_2 1_555 1_555
O21 C53_2 1_555 1_555
O15_2 C40_2 1_555 1_555
O17_2 C40_2 1_555 1_555
C40_2 C42_2 1_555 1_555
C42_2 C45_2 1_555 1_555
C45_2 H33_2 1_555 1_555
C46_2 C45_2 1_555 1_555
H34_2 C46_2 1_555 1_555
C47_2 C42_2 1_555 1_555
H35_2 C47_2 1_555 1_555
C48_2 H36_2 1_555 1_555
C49_2 C48_2 1_555 1_555
H37_2 C49_2 1_555 1_555
C50_2 N6_2 1_555 1_555
C51_2 N6_2 1_555 1_555
C52_2 C47_2 1_555 1_555
H38_2 C52_2 1_555 1_555
C54_2 C48_2 1_555 1_555
C55_2 C51_2 1_555 1_555
H39_2 C55_2 1_555 1_555
C56_2 C54_2 1_555 1_555
H40_2 C56_2 1_555 1_555
C46_2 C50_2 1_555 1_555
C49_2 C51_2 1_555 1_555
C50_2 C52_2 1_555 1_555
C55_2 C56_2 1_555 1_555
O10 Cd7 1_555 1_555
O5_4 Cd4 1_555 1_555
H20_3 O5_4 1_555 1_555
Cd7 O9_3 1_555 1_555
O8 C40_3 1_555 1_555
O9_3 Cd4 1_555 1_555
O11_3 Cd4 1_555 1_555
O12_2 C53_3 1_555 1_555
C36_3 C37_3 1_555 1_555
N6_3 C39_3 1_555 1_555
C37_3 H29_3 1_555 1_555
C38_3 C36_3 1_555 1_555
H30_3 C38_3 1_555 1_555
C39_3 C41_3 1_555 1_555
C40_3 C42_3 1_555 1_555
C41_3 C38_3 1_555 1_555
H31_3 C41_3 1_555 1_555
C42_3 C45_3 1_555 1_555
C43_3 O9_3 1_555 1_555
C44_3 C37_3 1_555 1_555
H32_3 C44_3 1_555 1_555
C45_3 H33_3 1_555 1_555
C46_3 C45_3 1_555 1_555
H34_3 C46_3 1_555 1_555
C47_3 C42_3 1_555 1_555
H35_3 C47_3 1_555 1_555
C48_3 H36_3 1_555 1_555
C49_3 C48_3 1_555 1_555
H37_3 C49_3 1_555 1_555
C50_3 N6_3 1_555 1_555
C51_3 N6_3 1_555 1_555
C52_3 C47_3 1_555 1_555
H38_3 C52_3 1_555 1_555
C53_3 C54_3 1_555 1_555
C54_3 C48_3 1_555 1_555
O13_2 C53_3 1_555 1_555
C55_3 C51_3 1_555 1_555
H39_3 C55_3 1_555 1_555
C56_3 C54_3 1_555 1_555
H40_3 C56_3 1_555 1_555
Cd4_2 O8 1_555 1_555
Cd10_2 O12_2 1_555 1_555
O14 Cd4 1_555 1_555
N7 Cd7 1_555 1_555
O19_2 Cd7 1_555 1_555
O21_2 Cd7 1_555 1_555
O11_3 C43_3 1_555 1_555
C36_3 C43_3 1_555 1_555
C39_3 C44_3 1_555 1_555
C46_3 C50_3 1_555 1_555
C49_3 C51_3 1_555 1_555
C50_3 C52_3 1_555 1_555
O13_2 Cd10_2 1_555 1_555
C55_3 C56_3 1_555 1_555
Cd4_2 O2_3 1_555 1_555
Cd2 O2_3 1_555 1_555
O14 C5_3 1_555 1_555
O2_3 C8_3 1_555 1_555
O4_3 Cd4_2 1_555 1_555
O5_5 Cd4_2 1_555 1_555
N1_3 Cd2 1_555 1_555
O6_2 C18_3 1_555 1_555
C1_3 C2_3 1_555 1_555
N2_3 C4_3 1_555 1_555
C2_3 H1_3 1_555 1_555
N3_3 C19_3 1_555 1_555
C3_3 C1_3 1_555 1_555
H2_3 C3_3 1_555 1_555
C4_3 C6_3 1_555 1_555
C5_3 C7_3 1_555 1_555
C6_3 C3_3 1_555 1_555
H3_3 C6_3 1_555 1_555
C7_3 C10_3 1_555 1_555
C8_3 O4_3 1_555 1_555
C9_3 C2_3 1_555 1_555
H4_3 C9_3 1_555 1_555
C10_3 H5_3 1_555 1_555
C11_3 C10_3 1_555 1_555
H6_3 C11_3 1_555 1_555
C12_3 C7_3 1_555 1_555
H7_3 C12_3 1_555 1_555
C13_3 H8_3 1_555 1_555
C14_3 C13_3 1_555 1_555
H9_3 C14_3 1_555 1_555
C15_3 N2_3 1_555 1_555
C16_3 N2_3 1_555 1_555
C17_3 C12_3 1_555 1_555
H10_3 C17_3 1_555 1_555
C18_3 C21_3 1_555 1_555
C19_3 N1_3 1_555 1_555
H11_3 C19_3 1_555 1_555
C20_3 N1_3 1_555 1_555
H12_3 C20_3 1_555 1_555
C21_3 C13_3 1_555 1_555
O7_2 C18_3 1_555 1_555
C22_3 N3_3 1_555 1_555
H13_3 C22_3 1_555 1_555
H14_3 C22_3 1_555 1_555
C23_3 C16_3 1_555 1_555
H15_3 C23_3 1_555 1_555
C24_3 N3_3 1_555 1_555
H16_3 C24_3 1_555 1_555
C25_3 C22_3 1_555 1_555
C26_3 C21_3 1_555 1_555
H17_3 C26_3 1_555 1_555
C27_3 C25_3 1_555 1_555
H18_3 C27_3 1_555 1_555
C28_3 C25_3 1_555 1_555
H19_3 C28_3 1_555 1_555
H21_3 O5_5 1_555 1_555
N5_3 C29_3 1_555 1_555
C29_3 H22_3 1_555 1_555
H23_3 C30_3 1_555 1_555
C31_3 N5_3 1_555 1_555
H24_3 C31_3 1_555 1_555
H25_3 C31_3 1_555 1_555
C32_3 N5_3 1_555 1_555
H26_3 C32_3 1_555 1_555
C33_3 C31_3 1_555 1_555
C34_3 C27_3 1_555 1_555
H27_3 C34_3 1_555 1_555
C35_3 C28_3 1_555 1_555
H28_3 C35_3 1_555 1_555
Cd9_2 O6_2 1_555 1_555
O16 Cd2 1_555 1_555
O18_2 Cd2 1_555 1_555
O20_2 Cd2 1_555 1_555
C1_3 C8_3 1_555 1_555
C4_3 C9_3 1_555 1_555
C11_3 C15_3 1_555 1_555
C14_3 C16_3 1_555 1_555
C15_3 C17_3 1_555 1_555
C20_3 C24_3 1_555 1_555
O7_2 Cd9_2 1_555 1_555
C23_3 C26_3 1_555 1_555
C30_3 C32_3 1_555 1_555
C33_3 C34_3 1_555 1_555
C33_3 C35_3 1_555 1_555
O8_2 C40_4 1_555 1_555
O10_2 C40_4 1_555 1_555
C40_4 C42_4 1_555 1_555
C42_4 C45_4 1_555 1_555
C45_4 H33_4 1_555 1_555
C46_4 C45_4 1_555 1_555
H34_4 C46_4 1_555 1_555
C47_4 C42_4 1_555 1_555
H35_4 C47_4 1_555 1_555
C48_4 H36_4 1_555 1_555
C49_4 C48_4 1_555 1_555
H37_4 C49_4 1_555 1_555
C50_4 N6_4 1_555 1_555
C51_4 N6_4 1_555 1_555
C52_4 C47_4 1_555 1_555
H38_4 C52_4 1_555 1_555
C54_4 C48_4 1_555 1_555
C55_4 C51_4 1_555 1_555
H39_4 C55_4 1_555 1_555
C56_4 C54_4 1_555 1_555
H40_4 C56_4 1_555 1_555
Cd4_3 O8_2 1_555 1_555
Cd10_2 O8_2 1_555 1_555
O10_2 Cd10_2 1_555 1_555
C46_4 C50_4 1_555 1_555
C49_4 C51_4 1_555 1_555
C50_4 C52_4 1_555 1_555
C55_4 C56_4 1_555 1_555
O19_2 C53_4 1_555 1_555
O21_2 C53_4 1_555 1_555
Cd4_3 O2_4 1_555 1_555
Cd9_2 O2_4 1_555 1_555
O2_4 C8_4 1_555 1_555
O4_4 Cd4_3 1_555 1_555
O5_6 Cd4_3 1_555 1_555
N1_4 Cd9_2 1_555 1_555
C1_4 C2_4 1_555 1_555
C2_4 H1_4 1_555 1_555
N3_4 C19_4 1_555 1_555
C3_4 C1_4 1_555 1_555
H2_4 C3_4 1_555 1_555
C4_4 C6_4 1_555 1_555
C6_4 C3_4 1_555 1_555
C8_4 O4_4 1_555 1_555
C9_4 C2_4 1_555 1_555
H4_4 C9_4 1_555 1_555
C19_4 N1_4 1_555 1_555
H11_4 C19_4 1_555 1_555
C20_4 N1_4 1_555 1_555
H12_4 C20_4 1_555 1_555
C24_4 N3_4 1_555 1_555
H16_4 C24_4 1_555 1_555
H20_4 O5_6 1_555 1_555
H21_4 O5_6 1_555 1_555
H24_4 C31_4 1_555 1_555
H25_4 C31_4 1_555 1_555
C33_4 C31_4 1_555 1_555
H27_4 C34_4 1_555 1_555
H28_4 C35_4 1_555 1_555
Cd10_2 O9_4 1_555 1_555
O9_4 Cd4_3 1_555 1_555
O11_4 Cd4_3 1_555 1_555
C36_4 C37_4 1_555 1_555
C37_4 H29_4 1_555 1_555
C38_4 C36_4 1_555 1_555
H30_4 C38_4 1_555 1_555
C39_4 C41_4 1_555 1_555
C41_4 C38_4 1_555 1_555
C43_4 O9_4 1_555 1_555
C44_4 C37_4 1_555 1_555
H32_4 C44_4 1_555 1_555
O14_2 Cd4_3 1_555 1_555
O16_2 Cd9_2 1_555 1_555
N7_2 Cd10_2 1_555 1_555
Cd9_2 O14_2 1_555 1_555
C1_4 C8_4 1_555 1_555
C4_4 C9_4 1_555 1_555
C20_4 C24_4 1_555 1_555
C33_4 C34_4 1_555 1_555
C33_4 C35_4 1_555 1_555
O11_4 C43_4 1_555 1_555
C36_4 C43_4 1_555 1_555
C39_4 C44_4 1_555 1_555
O14_2 C5_4 1_555 1_555
O16_2 C5_4 1_555 1_555
C5_4 C7_4 1_555 1_555
C7_4 C10_4 1_555 1_555
C10_4 H5_4 1_555 1_555
C11_4 C10_4 1_555 1_555
H6_4 C11_4 1_555 1_555
C12_4 C7_4 1_555 1_555
H7_4 C12_4 1_555 1_555
C13_4 H8_4 1_555 1_555
C14_4 C13_4 1_555 1_555
H9_4 C14_4 1_555 1_555
C15_4 N2_4 1_555 1_555
C16_4 N2_4 1_555 1_555
C17_4 C12_4 1_555 1_555
H10_4 C17_4 1_555 1_555
C21_4 C13_4 1_555 1_555
H13_4 C22_4 1_555 1_555
H14_4 C22_4 1_555 1_555
C23_4 C16_4 1_555 1_555
H15_4 C23_4 1_555 1_555
C25_4 C22_4 1_555 1_555
C26_4 C21_4 1_555 1_555
H17_4 C26_4 1_555 1_555
C27_4 C25_4 1_555 1_555
H18_4 C27_4 1_555 1_555
C28_4 C25_4 1_555 1_555
H19_4 C28_4 1_555 1_555
N5_4 C29_4 1_555 1_555
C29_4 H22_4 1_555 1_555
H23_4 C30_4 1_555 1_555
C32_4 N5_4 1_555 1_555
H26_4 C32_4 1_555 1_555
C11_4 C15_4 1_555 1_555
C14_4 C16_4 1_555 1_555
C15_4 C17_4 1_555 1_555
C23_4 C26_4 1_555 1_555
C30_4 C32_4 1_555 1_555
O18_2 C18_4 1_555 1_555
O20_2 C18_4 1_555 1_555

#END
