
###############################################################################
#
# This file contains modified crystal structure data generated from the
# MOF subset of the Cambridge Structural Database (CSD) v543 
# hosted by the Cambridge Crystallographic Data Centre (CCDC).
#
# This work is licensed under the Creative Commons
# Attribution-NonCommercial-ShareAlike 4.0 International License.
# To view a copy of this license, visit
# http://creativecommons.org/licenses/by-nc-sa/4.0/
# or send a letter to
# Creative Commons, PO Box 1866, Mountain View, CA 94042, USA.
#
# CIF created using the CSD Python API on 29 September 2022
# The structure has been converted into the P1 space group
# The structure has a 3D framework
# The original CSD entry ECIRER is in the trigonal crystal system
# The original CSD entry ECIRER is in a Sohncke space group
# The framework has been calculated to contain at least 10.0% void space
# The void calculation uses a probe of radius 1.32A, grid spacing 0.4
# H atom positions have been added when not included in the experimental data
#
###############################################################################

data_ECIRER
_chemical_formula_moiety         '(C162 H114 Cd9 N12 O35)n'
_symmetry_cell_setting           triclinic
_symmetry_space_group_name_H-M   'P 1'
_symmetry_Int_Tables_number      1
_space_group_name_Hall           'P 1'
loop_
_symmetry_equiv_pos_site_id
_symmetry_equiv_pos_as_xyz
1 x,y,z
_cell_length_a                   14.3515(6)
_cell_length_b                   14.3515(6)
_cell_length_c                   25.8427(14)
_cell_angle_alpha                90
_cell_angle_beta                 90
_cell_angle_gamma                120
_cell_volume                     4609.6
loop_
_atom_site_label
_atom_site_type_symbol
_atom_site_fract_x
_atom_site_fract_y
_atom_site_fract_z
Cd5 Cd 0.01790(6) 0.83085(6) 0.44521(3)
Cd10 Cd 0.05980(8) 0.65703(8) 0.34298(5)
O6 O 0.0201(7) 0.9914(7) 0.4204(4)
O1 O 0.9470(7) 0.6754(6) 0.3958(4)
N1 N 0.5611(9) 0.1036(10) 0.8053(5)
C1 C 0.8394(10) 0.4926(9) 0.4249(6)
C2 C 0.8626(10) 0.0039(10) 0.4212(5)
C8 C 0.8013(11) 0.4522(9) 0.3761(6)
H2 H 0.814339 0.500598 0.349322
N3 N 0.6863(8) 0.1604(8) 0.3943(5)
C9 C 0.9024(11) 0.6091(10) 0.4349(6)
C15 C 0.7448(11) 0.3434(9) 0.3650(6)
H7 H 0.713247 0.317680 0.332867
O11 O 0.9135(10) 0.6491(8) 0.4794(4)
C18 C 0.5730(10) 0.1006(10) 0.3859(6)
C19 C 0.9110(10) 0.1029(10) 0.3971(6)
H9 H 0.982284 0.134619 0.386320
C20 C 0.5011(10) 0.1268(10) 0.4101(6)
H10 H 0.527337 0.190036 0.429101
C21 C 0.7376(10) 0.2749(9) 0.4043(5)
C23 C 0.7427(10) 0.1052(9) 0.4023(5)
C24 C 0.8285(11) 0.4208(10) 0.4633(6)
H12 H 0.855606 0.445816 0.496188
C25 C 0.2524(11) 0.0068(13) 0.5701(6)
H13 H 0.322485 0.064331 0.568790
C30 C 0.4421(10) 0.0509(13) 0.7133(6)
C32 C 0.3995(11) 0.0620(14) 0.7589(6)
H16 H 0.331379 0.054715 0.759637
C33 C 0.8517(11) 0.1553(10) 0.3889(6)
H17 H 0.885185 0.223923 0.374551
C34 C 0.5489(14) 0.0757(18) 0.7136(7)
H18 H 0.584071 0.078819 0.682814
C36 C 0.6032(12) 0.0962(14) 0.7615(7)
H19 H 0.671863 0.104854 0.762006
C37 C 0.3926(10) 0.0590(10) 0.4056(6)
H20 H 0.345654 0.074757 0.423232
C38 C 0.6982(9) 0.0083(9) 0.4266(6)
C39 C 0.7785(11) 0.3139(9) 0.4530(6)
H22 H 0.771609 0.266221 0.479077
H23 H 0.225670 0.009038 0.496366
H31 H 0.263916 0.050812 0.679526
C52 C 0.4590(13) 0.0838(16) 0.8032(6)
H33 H 0.426678 0.085196 0.834144
C53 C 0.5349(11) 0.0187(10) 0.3496(6)
H34 H 0.581155 0.007405 0.328790
C54 C 0.3831(11) 0.0246(14) 0.6619(6)
H35 H 0.418763 0.087480 0.639713
Cd8 Cd 0.63655(8) 0.12476(6) 0.88473(3)
O3 O 0.8705(7) 0.8500(8) 0.4467(5)
O4 O 0.7160(7) 0.3590(8) 0.2423(4)
N2 N 0.2134(8) 0.1812(8) 0.2680(5)
C3 C 0.6649(9) 0.4050(10) 0.2344(5)
C4 C 0.0525(11) 0.8361(12) 0.5684(6)
O7 O 0.7081(7) 0.4979(7) 0.2177(5)
C6 C 0.3221(10) 0.2344(10) 0.2581(6)
O9 O 0.1995(9) 0.8129(10) 0.3424(5)
O10 O 0.1778(9) 0.8972(11) 0.4068(6)
C10 C 0.1647(11) 0.0281(10) 0.2118(6)
H3 H 0.205160 0.074800 0.185386
N4 N 0.0937(9) 0.8876(10) 0.5239(5)
C12 C 0.1514(10) 0.0669(9) 0.2601(6)
C13 C 0.4952(10) 0.2431(11) 0.2649(5)
H5 H 0.534576 0.210245 0.274065
C14 C 0.7526(10) 0.9600(11) 0.4366(6)
H6 H 0.718964 0.894963 0.454375
C16 C 0.9231(10) 0.9455(10) 0.4307(5)
C22 C 0.0889(11) 0.0016(10) 0.2971(6)
H11 H 0.081071 0.029827 0.328174
C26 C 0.2120(11) 0.9611(13) 0.6132(6)
C27 C 0.5457(9) 0.3446(10) 0.2419(5)
C28 C 0.1061(11) 0.8673(13) 0.6144(6)
H14 H 0.075982 0.829956 0.644974
O12 O 0.0605(9) 0.5154(8) 0.3229(5)
C29 C 0.3731(10) 0.3377(10) 0.2359(6)
H15 H 0.333356 0.369237 0.225291
C31 C 0.3510(10) 0.9664(10) 0.3751(6)
C35 C 0.2361(10) 0.8888(11) 0.3749(6)
H21 H 0.626253 0.975244 0.436390
C40 C 0.1943(11) 0.9721(12) 0.5268(6)
C41 C 0.0197(12) 0.4436(11) 0.2886(7)
C42 C 0.4203(11) 0.9523(10) 0.3459(6)
H24 H 0.392483 0.896359 0.321972
C43 C 0.3848(10) 0.1917(10) 0.2739(6)
H25 H 0.352156 0.126088 0.291255
C44 C 0.0613(7) 0.3639(7) 0.2883(4)
C45 C 0.0168(6) 0.2776(7) 0.2541(4)
C46 C 0.0640(7) 0.2141(6) 0.2478(4)
H27 H 0.034238 0.156419 0.224947
C47 C 0.1557(7) 0.2369(6) 0.2758(4)
C48 C 0.2002(6) 0.3232(7) 0.3101(4)
H28 H 0.261558 0.338388 0.328805
C49 C 0.1530(7) 0.3866(6) 0.3163(4)
H29 H 0.182783 0.444353 0.339204
C50 C 0.4849(10) 0.3920(9) 0.2301(6)
H30 H 0.519529 0.462363 0.217933
C51 C 0.2705(11) 0.9922(14) 0.6648(6)
H32 H 0.235217 0.931406 0.688188
O13 O 0.1145(14) 0.6277(14) 0.4166(5)
H36 H 0.389596 0.967372 0.645411
Cd7 Cd 0.87524(6) 0.51179(6) 0.21806(3)
H37 H 0.120284 0.681639 0.442389
H38 H 0.0621419 0.554312 0.429051
C7 C 0.0466(10) 0.8472(9) 0.2442(5)
C11 C 0.0346(11) 0.8902(10) 0.2894(6)
C17 C 0.1137(11) 0.9153(10) 0.2057(6)
H8 H 0.125045 0.886489 0.175747
H1 H 0.983837 0.776061 0.568079
O8 O 0.9518(9) 0.4304(8) 0.2565(5)
H26 H 0.955461 0.262383 0.235345
O15 O 0.9577(7) 0.6660(6) 0.2746(4)
N5 N 0.8964(10) 0.4575(13) 0.1386(5)
O18 O 0.9706(9) 0.6931(7) 0.1918(4)
C5 C 0.9906(10) 0.7290(10) 0.2359(5)
H4 H 0.989813 0.844686 0.315251
C30_2 C 0.9491(13) 0.3912(16) 0.0466(6)
C32_2 C 0.9380(14) 0.3375(18) 0.0922(6)
H16_2 H 0.945285 0.276664 0.092970
C34_2 C 0.9243(18) 0.4732(23) 0.0469(7)
H18_2 H 0.921181 0.505252 0.016147
C36_2 C 0.9038(14) 0.5070(18) 0.0948(7)
H19_2 H 0.895146 0.567009 0.095339
H31_2 H 0.949188 0.213104 0.012859
C52_2 C 0.9162(16) 0.3752(21) 0.1365(6)
H33_2 H 0.914804 0.341482 0.167477
O8_2 O 0.4786(12) 0.0482(9) 0.9232(5)
H26_2 H 0.306922 0.044539 0.902012
O15_2 O 0.7083(9) 0.0423(7) 0.9413(4)
O17 O 0.6430(11) 0.2840(7) 0.9090(4)
O18_2 O 0.7225(11) 0.0294(9) 0.8585(4)
O20 O 0.7898(10) 0.2919(7) 0.8844(5)
C5_2 C 0.7384(14) 0.0094(10) 0.9026(5)
H4_2 H 0.854873 0.010187 0.981918
N2_2 N 0.9678(11) 0.7866(8) 0.9347(5)
C3_2 C 0.7401(13) 0.3351(9) 0.9011(5)
C6_2 C 0.9123(14) 0.6779(10) 0.9248(6)
C7_2 C 0.8006(13) 0.9534(10) 0.9109(5)
C10_2 C 0.8634(15) 0.8353(11) 0.8785(6)
H3_2 H 0.869640 0.794840 0.852053
C11_2 C 0.8556(15) 0.9654(11) 0.9561(6)
C12_2 C 0.9155(13) 0.8486(10) 0.9268(6)
C13_2 C 0.7479(15) 0.5048(10) 0.9316(5)
H5_2 H 0.675669 0.465424 0.940732
C17_2 C 0.8016(15) 0.8863(11) 0.8724(6)
H8_2 H 0.761444 0.874955 0.842414
C22_2 C 0.9127(15) 0.9111(11) 0.9638(6)
H11_2 H 0.948756 0.918929 0.994841
C27_2 C 0.7989(13) 0.4543(9) 0.9086(5)
C29_2 C 0.9646(14) 0.6269(10) 0.9026(6)
C43_2 C 0.8069(14) 0.6152(10) 0.9406(6)
H25_2 H 0.773932 0.647844 0.957922
C50_2 C 0.9071(13) 0.5151(10) 0.8968(6)
H30_2 H 0.942834 0.480471 0.884600
O2 O 0.3340(6) 0.2917(9) 0.6079(4)
O5 O 0.3069(7) 0.2775(11) 0.5251(4)
C5_3 C 0.2710(10) 0.2616(14) 0.5692(5)
C7_3 C 0.1528(9) 0.1994(13) 0.5775(5)
C11_3 C 0.1098(10) 0.1444(15) 0.6227(6)
H4_3 H 0.155314 0.145127 0.648584
C17_3 C 0.0847(10) 0.1984(15) 0.5390(6)
H8_3 H 0.113511 0.238556 0.509080
Cd6 Cd 0.48821(6) 0.36345(8) 0.55139(3)
Cd9 Cd 0.34297(8) 0.40277(11) 0.67631(5)
O3_2 O 0.1500(8) 0.0205(11) 0.7800(5)
O4_2 O 0.6410(8) 0.3570(11) 0.5756(4)
O6_2 O 0.0086(7) 0.0287(10) 0.7537(4)
N2_3 N 0.8188(8) 0.0322(11) 0.6013(5)
C3_3 C 0.5950(10) 0.2599(13) 0.5677(5)
O7_2 O 0.5021(7) 0.2102(10) 0.5510(5)
C6_3 C 0.7656(10) 0.0877(14) 0.5914(6)
C10_3 C 0.9719(10) 0.1366(15) 0.5451(6)
H3_3 H 0.925200 0.130360 0.518719
C12_3 C 0.9331(9) 0.0845(13) 0.5934(6)
C13_3 C 0.7569(11) 0.2521(15) 0.5982(5)
H5_3 H 0.789755 0.324331 0.607398
C22_3 C 0.9984(10) 0.0873(15) 0.6304(6)
H11_3 H 0.970173 0.051244 0.661507
C27_3 C 0.6554(10) 0.2011(13) 0.5752(5)
C29_3 C 0.6623(10) 0.0354(14) 0.5692(6)
C43_3 C 0.8083(10) 0.1931(14) 0.6072(6)
H25_3 H 0.873912 0.226068 0.624588
C50_3 C 0.6080(9) 0.0929(13) 0.5634(6)
H30_3 H 0.537637 0.057166 0.551266
Cd4 Cd 0.16915(6) 0.18705(8) 0.77854(3)
C4_2 C 0.1639(12) 0.2164(16) 0.9017(6)
H1_2 H 0.223939 0.207776 0.901412
O8_3 O 0.5696(8) 0.5214(12) 0.5898(5)
O9_2 O 0.1871(10) 0.3866(13) 0.6757(5)
O10_2 O 0.1028(11) 0.2806(14) 0.7401(6)
N4_2 N 0.1124(10) 0.2061(13) 0.8572(5)
C14_2 C 0.0400(11) 0.7926(15) 0.7699(6)
H6_2 H 0.105037 0.824001 0.787708
C16_2 C 0.0545(10) 0.9776(14) 0.7640(5)
C26_2 C 0.0389(13) 0.2509(17) 0.9465(6)
C28_2 C 0.1327(13) 0.2388(17) 0.9477(6)
H14_2 H 0.170044 0.246026 0.978307
O12_2 O 0.4846(8) 0.5451(12) 0.6562(5)
H15_2 H 0.630763 0.964119 0.558624
C31_2 C 0.0336(10) 0.3846(14) 0.7084(6)
C35_2 C 0.1112(11) 0.3473(15) 0.7082(6)
H21_2 H 0.024756 0.651009 0.769723
C40_2 C 0.0279(12) 0.2222(16) 0.8601(6)
C41_2 C 0.5564(11) 0.5761(16) 0.6219(7)
C42_2 C 0.0477(10) 0.4680(15) 0.6792(6)
H24_2 H 0.103641 0.496124 0.655305
C44_2 C 0.6361(7) 0.6974(10) 0.6216(4)
C45_2 C 0.7224(7) 0.7392(9) 0.5874(4)
H26_3 H 0.737617 0.693078 0.568678
C46_2 C 0.7859(6) 0.8499(9) 0.5811(4)
H27_2 H 0.843581 0.877819 0.558280
C47_2 C 0.7631(6) 0.9188(9) 0.6091(4)
C48_2 C 0.6768(7) 0.8770(9) 0.6434(4)
H28_2 H 0.661612 0.923170 0.662138
C49_2 C 0.6134(6) 0.7664(9) 0.6496(4)
H29_2 H 0.555647 0.738430 0.672537
C51_2 C 0.0078(14) 0.2783(18) 0.9981(6)
O13_2 O 0.3723(14) 0.4868(20) 0.7499(5)
H36_2 H 0.032628 0.422224 0.978744
O14 O 0.3246(6) 0.2716(9) 0.7291(4)
N5_2 N 0.5425(13) 0.4389(16) 0.4720(5)
O21 O 0.3509(8) 0.2644(13) 0.8127(4)
H37_2 H 0.318361 0.438645 0.775723
H38_2 H 0.445688 0.50783 0.762385
C1_2 C 0.5074(9) 0.3468(13) 0.7582(6)
C2_2 C 0.9961(10) 0.8587(14) 0.7545(5)
C8_2 C 0.5478(9) 0.3491(14) 0.7094(6)
H2_2 H 0.499402 0.313741 0.682655
N3_2 N 0.8396(8) 0.5259(11) 0.7276(5)
C9_2 C 0.3909(10) 0.2933(15) 0.7682(6)
C15_2 C 0.6566(9) 0.4014(14) 0.6983(6)
H7_2 H 0.682320 0.395567 0.666200
C18_2 C 0.8994(10) 0.4724(14) 0.7192(6)
C19_2 C 0.8971(10) 0.8081(14) 0.7304(6)
H9_2 H 0.865381 0.847665 0.719653
C20_2 C 0.8732(10) 0.3743(14) 0.7434(6)
H10_2 H 0.809964 0.337301 0.762434
C21_2 C 0.7251(9) 0.4627(13) 0.7376(5)
C23_2 C 0.8948(9) 0.6375(13) 0.7356(5)
C24_2 C 0.5792(10) 0.4077(15) 0.7966(6)
H12_2 H 0.554184 0.409790 0.829521
C25_2 C 0.9932(13) 0.2456(17) 0.9034(6)
H13_2 H 0.935669 0.258154 0.902123
C33_2 C 0.8447(10) 0.6964(15) 0.7222(6)
H17_2 H 0.776077 0.661262 0.707884
C37_2 C 0.9410(10) 0.3336(14) 0.7389(6)
H20_2 H 0.925243 0.270897 0.756565
C38_2 C 0.9917(9) 0.6899(13) 0.7599(6)
C39_2 C 0.6861(9) 0.4646(14) 0.7863(6)
H22_2 H 0.733779 0.505388 0.812410
H23_2 H 0.990962 0.216632 0.829699
C53_2 C 0.9813(10) 0.5162(15) 0.6829(6)
H34_2 H 0.992595 0.573750 0.662123
C54_2 C 0.9754(14) 0.3585(18) 0.9952(6)
H35_2 H 0.912520 0.331283 0.973046
H1_3 H 0.792224 0.016163 0.234746
O14_2 O 0.7284(9) 0.0530(7) 0.0625(4)
O16 O 0.9795(11) 0.1295(7) 0.1134(5)
O21_2 O 0.7356(13) 0.0865(10) 0.1461(4)
Cd1 Cd 0.81295(8) 0.98210(6) 0.11188(3)
Cd3 Cd 0.59723(11) 0.94020(8) 0.00965(5)
C1_3 C 0.6532(13) 0.1606(10) 0.0916(6)
C2_3 C 0.1413(14) 0.1374(10) 0.0879(5)
C4_3 C 0.7836(16) 0.9475(11) 0.2351(6)
C8_3 C 0.6509(14) 0.1987(11) 0.0428(6)
H2_3 H 0.686259 0.185661 0.015989
O9_3 O 0.6134(13) 0.8005(9) 0.0091(5)
N3_3 N 0.4741(11) 0.3137(8) 0.0610(5)
C9_3 C 0.7067(15) 0.0976(11) 0.1016(6)
O10_3 O 0.7194(14) 0.8222(9) 0.0735(6)
N4_3 N 0.7939(13) 0.9063(9) 0.1906(5)
C14_3 C 0.2074(15) 0.2474(10) 0.1033(6)
H6_3 H 0.175999 0.281036 0.121042
C15_3 C 0.5986(14) 0.2552(11) 0.0317(6)
C16_3 C 0.0224(14) 0.0769(10) 0.0974(5)
C18_3 C 0.5276(14) 0.4270(10) 0.0526(6)
C19_3 C 0.1919(14) 0.0890(10) 0.0638(6)
H9_3 H 0.152335 0.017716 0.052987
C20_3 C 0.6257(14) 0.4989(10) 0.0768(6)
H10_3 H 0.662699 0.472663 0.095768
C21_3 C 0.5373(13) 0.2624(10) 0.0710(5)
C23_3 C 0.3625(13) 0.2573(10) 0.0690(5)
C24_3 C 0.5923(15) 0.1715(11) 0.1300(6)
H12_3 H 0.590210 0.144394 0.162855
C25_3 C 0.7544(17) 0.7476(11) 0.2368(6)
H13_3 H 0.741846 0.677515 0.235457
C26_3 C 0.7491(17) 0.7880(11) 0.2799(6)
C28_3 C 0.7612(17) 0.8939(11) 0.2811(6)
H14_3 H 0.753974 0.924018 0.311641
C30_3 C 0.6088(16) 0.5579(10) 0.3800(6)
C31_3 C 0.6154(14) 0.6490(10) 0.0418(6)
C32_3 C 0.6625(18) 0.6005(11) 0.4256(6)
H16_3 H 0.723336 0.668621 0.426304
C33_3 C 0.3036(15) 0.1483(11) 0.0556(6)
H17_3 H 0.338738 0.114815 0.041218
C34_3 C 0.5268(23) 0.4511(14) 0.3803(7)
H18_3 H 0.494748 0.415929 0.349481
C35_3 C 0.6527(15) 0.7639(10) 0.0416(6)
C36_3 C 0.4930(18) 0.3968(12) 0.4282(7)
H19_3 H 0.432991 0.328137 0.428673
C37_3 C 0.6664(14) 0.6074(10) 0.0723(6)
H20_3 H 0.729103 0.654346 0.089899
C38_3 C 0.3101(13) 0.3018(9) 0.0933(6)
H21_3 H 0.348991 0.373747 0.103057
C39_3 C 0.5354(14) 0.2215(11) 0.1197(6)
H22_3 H 0.494612 0.228391 0.145744
C40_3 C 0.7778(16) 0.8057(11) 0.1935(6)
H23_3 H 0.783368 0.774330 0.163033
C42_3 C 0.5320(15) 0.5797(11) 0.0126(6)
H29_3 H 0.261570 0.817217 0.005871
C51_3 C 0.7217(18) 0.7295(11) 0.3315(6)
H31_3 H 0.786896 0.736084 0.346193
H32_2 H 0.696189 0.764783 0.354855
C52_3 C 0.6248(21) 0.5410(13) 0.4699(6)
H33_3 H 0.658518 0.573322 0.500811
C53_3 C 0.4838(15) 0.4651(11) 0.0163(6)
O13_3 O 0.5132(20) 0.8855(14) 0.0833(5)
C54_3 C 0.6415(18) 0.6169(11) 0.3286(6)
H35_3 H 0.668717 0.581237 0.306380
H36_3 H 0.577776 0.610404 0.312078
O19 O 0.9713(10) 0.9799(7) 0.0871(4)
H37_3 H 0.561355 0.879716 0.109056
H38_3 H 0.49217 0.937858 0.095718
H32_3 H 0.068594 0.303811 0.021521
H7_3 H 0.604433 0.286753 0.999534
O12_3 O 0.4549(12) 0.9395(9) 0.9896(5)
H15_3 H 0.035881 0.666644 0.891958
C41_3 C 0.4239(16) 0.9803(12) 0.9553(7)
H24_3 H 0.503876 0.607517 0.988639
C44_3 C 0.3026(10) 0.9387(7) 0.9550(4)
C45_3 C 0.2608(9) 0.9832(6) 0.9208(4)
C46_3 C 0.1501(9) 0.9360(7) 0.9145(4)
H27_3 H 0.122181 0.965762 0.891614
C47_3 C 0.0812(9) 0.8443(7) 0.9425(4)
C48_3 C 0.1230(9) 0.7998(6) 0.9768(4)
H28_3 H 0.076830 0.738442 0.995472
C49_3 C 0.2336(9) 0.8470(7) 0.9830(4)
H34_3 H 0.426250 0.418845 0.995457
loop_
_geom_bond_atom_site_label_1
_geom_bond_atom_site_label_2
_geom_bond_site_symmetry_1
_geom_bond_site_symmetry_2
O6 Cd5 1_555 1_555
O1 C9 1_555 1_555
N1 C36 1_555 1_555
C1 C8 1_555 1_555
C8 H2 1_555 1_555
N3 C18 1_555 1_555
C9 C1 1_555 1_555
C15 C8 1_555 1_555
H7 C15 1_555 1_555
O11 C9 1_555 1_555
C18 C20 1_555 1_555
C19 C2 1_555 1_555
H9 C19 1_555 1_555
C20 H10 1_555 1_555
C21 N3 1_555 1_555
C23 N3 1_555 1_555
C24 C1 1_555 1_555
H12 C24 1_555 1_555
C25 H13 1_555 1_555
C30 C32 1_555 1_555
C32 H16 1_555 1_555
C33 C19 1_555 1_555
H17 C33 1_555 1_555
C34 C30 1_555 1_555
H18 C34 1_555 1_555
C36 C34 1_555 1_555
H19 C36 1_555 1_555
C37 C20 1_555 1_555
H20 C37 1_555 1_555
C39 C21 1_555 1_555
H22 C39 1_555 1_555
C52 N1 1_555 1_555
H33 C52 1_555 1_555
C53 C18 1_555 1_555
H34 C53 1_555 1_555
C54 C30 1_555 1_555
H35 C54 1_555 1_555
Cd8 N1 1_555 1_555
C15 C21 1_555 1_555
C23 C33 1_555 1_555
C23 C38 1_555 1_555
C24 C39 1_555 1_555
C32 C52 1_555 1_555
Cd5 O10 1_555 1_555
Cd10 O9 1_555 1_555
O3 C16 1_555 1_555
O4 C3 1_555 1_555
N2 C6 1_555 1_555
C3 O7 1_555 1_555
O7 Cd7 1_555 1_555
C6 C29 1_555 1_555
O9 C35 1_555 1_555
O10 C35 1_555 1_555
C10 H3 1_555 1_555
N4 Cd5 1_555 1_555
C12 N2 1_555 1_555
C13 H5 1_555 1_555
C14 H6 1_555 1_555
H11 C22 1_555 1_555
C27 C3 1_555 1_555
C28 C4 1_555 1_555
H14 C28 1_555 1_555
O12 Cd10 1_555 1_555
C29 H15 1_555 1_555
C31 C35 1_555 1_555
C40 N4 1_555 1_555
C41 O12 1_555 1_555
C42 C31 1_555 1_555
H24 C42 1_555 1_555
C43 C6 1_555 1_555
H25 C43 1_555 1_555
C44 C41 1_555 1_555
C45 C44 1_555 1_555
C46 C45 1_555 1_555
H27 C46 1_555 1_555
C47 N2 1_555 1_555
C48 C47 1_555 1_555
H28 C48 1_555 1_555
C49 C44 1_555 1_555
H29 C49 1_555 1_555
C50 C27 1_555 1_555
H30 C50 1_555 1_555
C51 C26 1_555 1_555
H32 C51 1_555 1_555
O13 Cd10 1_555 1_555
Cd7 O4 1_555 1_555
C4 N4 1_555 1_555
C10 C12 1_555 1_555
C12 C22 1_555 1_555
C13 C27 1_555 1_555
C13 C43 1_555 1_555
C26 C28 1_555 1_555
C29 C50 1_555 1_555
C46 C47 1_555 1_555
C48 C49 1_555 1_555
O13 H37 1_555 1_555
O13 H38 1_555 1_555
C7 C11 1_555 1_555
C17 C7 1_555 1_555
H8 C17 1_555 1_555
Cd7 O8 1_555 1_555
O15 Cd7 1_555 1_555
N5 Cd7 1_555 1_555
O18 Cd7 1_555 1_555
O15 C5 1_555 1_555
O18 C5 1_555 1_555
N5 C36_2 1_555 1_555
C30_2 C32_2 1_555 1_555
C32_2 H16_2 1_555 1_555
C34_2 C30_2 1_555 1_555
H18_2 C34_2 1_555 1_555
C36_2 C34_2 1_555 1_555
H19_2 C36_2 1_555 1_555
C52_2 N5 1_555 1_555
H33_2 C52_2 1_555 1_555
C32_2 C52_2 1_555 1_555
Cd8 O8_2 1_555 1_555
O15_2 Cd8 1_555 1_555
O17 Cd8 1_555 1_555
O18_2 Cd8 1_555 1_555
O20 Cd8 1_555 1_555
O15_2 C5_2 1_555 1_555
O18_2 C5_2 1_555 1_555
O17 C3_2 1_555 1_555
N2_2 C6_2 1_555 1_555
C3_2 O20 1_555 1_555
C6_2 C29_2 1_555 1_555
C7_2 C11_2 1_555 1_555
C10_2 H3_2 1_555 1_555
C12_2 N2_2 1_555 1_555
C13_2 H5_2 1_555 1_555
C17_2 C7_2 1_555 1_555
H8_2 C17_2 1_555 1_555
C22_2 C11_2 1_555 1_555
H11_2 C22_2 1_555 1_555
C27_2 C3_2 1_555 1_555
C43_2 C6_2 1_555 1_555
H25_2 C43_2 1_555 1_555
C50_2 C27_2 1_555 1_555
H30_2 C50_2 1_555 1_555
C10_2 C12_2 1_555 1_555
C10_2 C17_2 1_555 1_555
C12_2 C22_2 1_555 1_555
C13_2 C27_2 1_555 1_555
C13_2 C43_2 1_555 1_555
C29_2 C50_2 1_555 1_555
O2 C5_3 1_555 1_555
O5 C5_3 1_555 1_555
C5_3 C7_3 1_555 1_555
C7_3 C11_3 1_555 1_555
C11_3 H4_3 1_555 1_555
C17_3 C7_3 1_555 1_555
H8_3 C17_3 1_555 1_555
Cd6 O2 1_555 1_555
Cd9 O2 1_555 1_555
O5 Cd6 1_555 1_555
O4_2 C3_3 1_555 1_555
N2_3 C6_3 1_555 1_555
C3_3 O7_2 1_555 1_555
O7_2 Cd6 1_555 1_555
C6_3 C29_3 1_555 1_555
C10_3 H3_3 1_555 1_555
C12_3 N2_3 1_555 1_555
C13_3 H5_3 1_555 1_555
H11_3 C22_3 1_555 1_555
C27_3 C3_3 1_555 1_555
C43_3 C6_3 1_555 1_555
H25_3 C43_3 1_555 1_555
C50_3 C27_3 1_555 1_555
H30_3 C50_3 1_555 1_555
Cd4 O3_2 1_555 1_555
Cd6 O4_2 1_555 1_555
O6_2 Cd4 1_555 1_555
C10_3 C12_3 1_555 1_555
C12_3 C22_3 1_555 1_555
C13_3 C27_3 1_555 1_555
C13_3 C43_3 1_555 1_555
C29_3 C50_3 1_555 1_555
Cd4 O10_2 1_555 1_555
Cd6 O8_3 1_555 1_555
Cd9 O9_2 1_555 1_555
C4_2 H1_2 1_555 1_555
O8_3 C41_2 1_555 1_555
O9_2 C35_2 1_555 1_555
O10_2 C35_2 1_555 1_555
N4_2 Cd4 1_555 1_555
C14_2 H6_2 1_555 1_555
C28_2 C4_2 1_555 1_555
H14_2 C28_2 1_555 1_555
O12_2 Cd9 1_555 1_555
C31_2 C35_2 1_555 1_555
C40_2 N4_2 1_555 1_555
C41_2 O12_2 1_555 1_555
C42_2 C31_2 1_555 1_555
H24_2 C42_2 1_555 1_555
C44_2 C41_2 1_555 1_555
C45_2 C44_2 1_555 1_555
H26_3 C45_2 1_555 1_555
C46_2 C45_2 1_555 1_555
H27_2 C46_2 1_555 1_555
C48_2 C47_2 1_555 1_555
H28_2 C48_2 1_555 1_555
C49_2 C44_2 1_555 1_555
H29_2 C49_2 1_555 1_555
C51_2 C26_2 1_555 1_555
O13_2 Cd9 1_555 1_555
O14 Cd4 1_555 1_555
N5_2 Cd6 1_555 1_555
O21 Cd4 1_555 1_555
Cd9 O14 1_555 1_555
C4_2 N4_2 1_555 1_555
C26_2 C28_2 1_555 1_555
C46_2 C47_2 1_555 1_555
C48_2 C49_2 1_555 1_555
O13_2 H37_2 1_555 1_555
O13_2 H38_2 1_555 1_555
O14 C9_2 1_555 1_555
C1_2 C8_2 1_555 1_555
C8_2 H2_2 1_555 1_555
N3_2 C18_2 1_555 1_555
C9_2 C1_2 1_555 1_555
C15_2 C8_2 1_555 1_555
H7_2 C15_2 1_555 1_555
O21 C9_2 1_555 1_555
C18_2 C20_2 1_555 1_555
C19_2 C2_2 1_555 1_555
H9_2 C19_2 1_555 1_555
C20_2 H10_2 1_555 1_555
C21_2 N3_2 1_555 1_555
C23_2 N3_2 1_555 1_555
C24_2 C1_2 1_555 1_555
H12_2 C24_2 1_555 1_555
C25_2 H13_2 1_555 1_555
C33_2 C19_2 1_555 1_555
H17_2 C33_2 1_555 1_555
C37_2 C20_2 1_555 1_555
H20_2 C37_2 1_555 1_555
C39_2 C21_2 1_555 1_555
H22_2 C39_2 1_555 1_555
C53_2 C18_2 1_555 1_555
H34_2 C53_2 1_555 1_555
H35_2 C54_2 1_555 1_555
C15_2 C21_2 1_555 1_555
C23_2 C33_2 1_555 1_555
C23_2 C38_2 1_555 1_555
C24_2 C39_2 1_555 1_555
Cd1 O10_3 1_555 1_555
Cd3 O9_3 1_555 1_555
O14_2 C9_3 1_555 1_555
N5_2 C36_3 1_555 1_555
C1_3 C8_3 1_555 1_555
C2_3 C14_3 1_555 1_555
C8_3 H2_3 1_555 1_555
O9_3 C35_3 1_555 1_555
N3_3 C18_3 1_555 1_555
C9_3 C1_3 1_555 1_555
O10_3 C35_3 1_555 1_555
N4_3 Cd1 1_555 1_555
C14_3 H6_3 1_555 1_555
C15_3 C8_3 1_555 1_555
C16_3 C2_3 1_555 1_555
O21_2 C9_3 1_555 1_555
C18_3 C20_3 1_555 1_555
C19_3 C2_3 1_555 1_555
H9_3 C19_3 1_555 1_555
C20_3 H10_3 1_555 1_555
C21_3 N3_3 1_555 1_555
C23_3 N3_3 1_555 1_555
C24_3 C1_3 1_555 1_555
H12_3 C24_3 1_555 1_555
C25_3 H13_3 1_555 1_555
C26_3 C25_3 1_555 1_555
C28_3 C4_3 1_555 1_555
H14_3 C28_3 1_555 1_555
C30_3 C32_3 1_555 1_555
C31_3 C35_3 1_555 1_555
C32_3 H16_3 1_555 1_555
C33_3 C19_3 1_555 1_555
H17_3 C33_3 1_555 1_555
C34_3 C30_3 1_555 1_555
H18_3 C34_3 1_555 1_555
C36_3 C34_3 1_555 1_555
H19_3 C36_3 1_555 1_555
C37_3 C20_3 1_555 1_555
H20_3 C37_3 1_555 1_555
C38_3 C14_3 1_555 1_555
H21_3 C38_3 1_555 1_555
C39_3 C21_3 1_555 1_555
H22_3 C39_3 1_555 1_555
C40_3 N4_3 1_555 1_555
H23_3 C40_3 1_555 1_555
C42_3 C31_3 1_555 1_555
C51_3 C26_3 1_555 1_555
H31_3 C51_3 1_555 1_555
H32_2 C51_3 1_555 1_555
C52_3 N5_2 1_555 1_555
H33_3 C52_3 1_555 1_555
C53_3 C18_3 1_555 1_555
O13_3 Cd3 1_555 1_555
C54_3 C30_3 1_555 1_555
H35_3 C54_3 1_555 1_555
H36_3 C54_3 1_555 1_555
O19 Cd1 1_555 1_555
C4_3 N4_3 1_555 1_555
C15_3 C21_3 1_555 1_555
C23_3 C33_3 1_555 1_555
C23_3 C38_3 1_555 1_555
C24_3 C39_3 1_555 1_555
C25_3 C40_3 1_555 1_555
C26_3 C28_3 1_555 1_555
C31_3 C37_3 1_555 1_555
C32_3 C52_3 1_555 1_555
C42_3 C53_3 1_555 1_555
C51_3 C54_3 1_555 1_555
O13_3 H37_3 1_555 1_555
O13_3 H38_3 1_555 1_555
C41_3 O12_3 1_555 1_555
C44_3 C41_3 1_555 1_555
C45_3 C44_3 1_555 1_555
C46_3 C45_3 1_555 1_555
H27_3 C46_3 1_555 1_555
C48_3 C47_3 1_555 1_555
H28_3 C48_3 1_555 1_555
C49_3 C44_3 1_555 1_555
C46_3 C47_3 1_555 1_555
C48_3 C49_3 1_555 1_555

#END
