
###############################################################################
#
# This file contains modified crystal structure data generated from the
# MOF subset of the Cambridge Structural Database (CSD) v543 
# hosted by the Cambridge Crystallographic Data Centre (CCDC).
#
# This work is licensed under the Creative Commons
# Attribution-NonCommercial-ShareAlike 4.0 International License.
# To view a copy of this license, visit
# http://creativecommons.org/licenses/by-nc-sa/4.0/
# or send a letter to
# Creative Commons, PO Box 1866, Mountain View, CA 94042, USA.
#
# CIF created using the CSD Python API on 29 September 2022
# The structure has been converted into the P1 space group
# The structure has a 3D framework
# The original CSD entry ECIWOC is in the monoclinic crystal system
# The framework has been calculated to contain at least 10.0% void space
# The void calculation uses a probe of radius 1.32A, grid spacing 0.4
#
###############################################################################

data_ECIWOC
_chemical_formula_moiety         '(C144 H100 N12 O28 Zn8)n'
_symmetry_cell_setting           triclinic
_symmetry_space_group_name_H-M   'P 1'
_symmetry_Int_Tables_number      1
_space_group_name_Hall           'P 1'
loop_
_symmetry_equiv_pos_site_id
_symmetry_equiv_pos_as_xyz
1 x,y,z
_cell_length_a                   22.0278(14)
_cell_length_b                   6.7802(4)
_cell_length_c                   24.3992(15)
_cell_angle_alpha                90.00
_cell_angle_beta                 105.0960(10)
_cell_angle_gamma                90.00
_cell_volume                     3518.34
loop_
_atom_site_label
_atom_site_type_symbol
_atom_site_fract_x
_atom_site_fract_y
_atom_site_fract_z
C5 C 0.3919(2) 0.0932(8) 0.4620(2)
H2 H 0.3670 0.1541 0.4838
H16 H 0.0113 0.1231 0.3958
N3 N 0.6507(2) 0.3892(6) 0.40998(18)
C29 C 0.5866(2) 0.1030(8) 0.4013(2)
C30 C 0.5372(2) 0.2075(8) 0.4142(2)
C31 C 0.6413(2) 0.1969(8) 0.4001(2)
H20 H 0.6741 0.1212 0.3919
C32 C 0.4802(2) 0.1071(8) 0.4206(2)
C33 C 0.4423(3) 0.1916(8) 0.4523(2)
H21 H 0.4519 0.3203 0.4675
C35 C 0.6048(3) 0.4920(8) 0.4222(3)
H23 H 0.6112 0.6287 0.4301
C36 C 0.5473(2) 0.4079(8) 0.4238(2)
H24 H 0.5151 0.4881 0.4316
Zn5 Zn 0.73508(3) 0.52504(9) 0.41829(3)
N2 N 0.8033(2) 0.3194(7) 0.42022(18)
C21 C 0.9029(2) 0.0564(8) 0.4212(2)
C22 C 0.8620(3) 0.0298(8) 0.4564(2)
C23 C 0.8911(3) 0.2209(9) 0.3855(2)
H14 H 0.9172 0.2474 0.3610
C24 C 0.8411(3) 0.3459(9) 0.3858(2)
H15 H 0.8335 0.4549 0.3605
C27 C 0.8145(3) 0.1623(8) 0.4546(2)
H17 H 0.7881 0.1414 0.4792
Zn1 Zn 0.76124(3) 0.52972(9) 0.56330(3)
O1 O 0.68927(17) 0.3734(6) 0.57129(17)
O2 O 0.83893(17) 0.3810(6) 0.58191(17)
O3 O 0.74425(18) 0.6585(6) 0.48963(15)
C1 C 0.8879(3) 0.4663(8) 0.5751(3)
C2 C 0.6234(2) 0.0963(8) 0.5599(2)
C3 C 0.6786(2) 0.2034(9) 0.5483(2)
C4 C 0.5870(2) 0.1809(8) 0.5921(2)
H1 H 0.5969 0.3091 0.6075
O5 O 0.71036(18) 0.1233(7) 0.51939(17)
C6 C 0.9431(2) 0.3323(8) 0.5781(2)
O7 O 0.8911(2) 0.6438(6) 0.5654(2)
C8 C 0.9413(3) 0.1355(9) 0.5920(3)
H3 H 0.9048 0.0849 0.6010
C9 C 0.9963(3) 0.4008(9) 0.5655(3)
H4 H 0.9994 0.5367 0.5571
N1 N 0.7575(2) 0.7399(6) 0.62292(18)
C13 C 0.7160(3) 0.7307(8) 0.6543(2)
H6 H 0.6912 0.6149 0.6526
C14 C 0.7078(3) 0.8812(8) 0.6887(2)
H7 H 0.6778 0.8687 0.7102
C18 C 0.7929(3) 0.9052(9) 0.6276(2)
H10 H 0.8234 0.9131 0.6065
C26 C 0.9909(3) 0.0106(9) 0.5933(3)
H19 H 0.4179 0.0342 0.6066
C34 C 0.5365(3) 0.0805(8) 0.6017(2)
H22 H 0.5124 0.1406 0.6243
H25 H 0.781(11) 0.54(4) 0.495(11)
O8 O 0.7528(2) 0.6991(6) 0.36038(17)
O6 O 0.6515(2) 0.7720(7) 0.3409(2)
C7 C 0.7054(3) 0.7992(9) 0.3346(3)
C10 C 0.7152(3) 0.9613(8) 0.2960(2)
C11 C 0.7741(3) 0.9935(8) 0.2871(2)
H5 H 0.8082 0.9085 0.3039
Zn1_2 Zn 0.23876(3) 0.47028(9) 0.43670(3)
Zn2 Zn 0.26492(3) 0.47496(9) 0.58171(3)
O1_2 O 0.31073(17) 0.6266(6) 0.42871(17)
O2_2 O 0.16107(17) 0.6190(6) 0.41809(17)
O3_2 O 0.25575(18) 0.3415(6) 0.51037(15)
C1_2 C 0.1121(3) 0.5337(8) 0.4249(3)
C2_2 C 0.3766(2) 0.9037(8) 0.4401(2)
C3_2 C 0.3214(2) 0.7966(9) 0.4517(2)
C4_2 C 0.4130(2) 0.8191(8) 0.4079(2)
H1_2 H 0.4031 0.6909 0.3925
O5_2 O 0.28964(18) 0.8767(7) 0.48061(17)
C6_2 C 0.0569(2) 0.6677(8) 0.4219(2)
O7_2 O 0.1089(2) 0.3562(6) 0.4346(2)
C8_2 C 0.0587(3) 0.8645(9) 0.4080(3)
H3_2 H 0.0952 0.9151 0.3990
C9_2 C 0.0037(3) 0.5992(9) 0.4345(3)
H4_2 H 0.0006 0.4633 0.4429
N1_2 N 0.2425(2) 0.2601(6) 0.37708(18)
C13_2 C 0.2840(3) 0.2693(8) 0.3457(2)
H6_2 H 0.3088 0.3851 0.3474
C14_2 C 0.2922(3) 0.1188(8) 0.3113(2)
H7_2 H 0.3222 0.1313 0.2898
C18_2 C 0.2071(3) 0.0948(9) 0.3724(2)
H10_2 H 0.1766 0.0869 0.3935
C26_2 C 0.0091(3) 0.9894(9) 0.4067(3)
H19_2 H 0.5821 0.9658 0.3934
C34_2 C 0.4635(3) 0.9195(8) 0.3983(2)
H22_2 H 0.4876 0.8594 0.3757
H25_2 H 0.219(11) 0.46(4) 0.505(11)
O8_2 O 0.2472(2) 0.3009(6) 0.63962(17)
N4 N 0.1967(2) 0.6806(7) 0.57978(18)
N5 N 0.3493(2) 0.6108(6) 0.59002(18)
O6_2 O 0.3485(2) 0.2280(7) 0.6591(2)
C7_2 C 0.2946(3) 0.2008(9) 0.6654(3)
C10_2 C 0.2848(3) 0.0387(8) 0.7040(2)
C11_2 C 0.2259(3) 0.0065(8) 0.7129(2)
H5_2 H 0.1918 0.0915 0.6961
C21_2 C 0.0971(2) 0.9436(8) 0.5788(2)
C22_2 C 0.1380(3) 0.9702(8) 0.5436(2)
C23_2 C 0.1089(3) 0.7791(9) 0.6145(2)
H14_2 H 0.0828 0.7526 0.6390
C24_2 C 0.1589(3) 0.6541(9) 0.6142(2)
H15_2 H 0.1665 0.5451 0.6395
C27_2 C 0.1855(3) 0.8377(8) 0.5454(2)
H17_2 H 0.2119 0.8586 0.5208
C5_2 C 0.6081(2) 0.9068(8) 0.5380(2)
H2_2 H 0.6330 0.8459 0.5162
H16_2 H 0.9887 0.8769 0.6042
C29_2 C 0.4134(2) 0.8970(8) 0.5987(2)
C30_2 C 0.4628(2) 0.7925(8) 0.5858(2)
C31_2 C 0.3587(2) 0.8031(8) 0.5999(2)
H20_2 H 0.3259 0.8788 0.6081
C32_2 C 0.5198(2) 0.8929(8) 0.5794(2)
C33_2 C 0.5577(3) 0.8084(8) 0.5477(2)
H21_2 H 0.5481 0.6797 0.5325
C35_2 C 0.3952(3) 0.5080(8) 0.5778(3)
H23_2 H 0.3888 0.3713 0.5699
C36_2 C 0.4527(2) 0.5921(8) 0.5762(2)
H24_2 H 0.4849 0.5119 0.5684
O4 O 0.2472(2) 0.1991(6) 0.13962(17)
O6_3 O 0.3485(2) 0.2720(7) 0.1591(2)
C7_3 C 0.2946(3) 0.2992(9) 0.1654(3)
C10_3 C 0.2848(3) 0.4613(8) 0.2040(2)
C11_3 C 0.2259(3) 0.4935(8) 0.2129(2)
H5_3 H 0.1918 0.4085 0.1961
C12 C 0.2570(3) 0.9478(8) 0.3075(2)
C15 C 0.2669(3) 0.7782(8) 0.2723(2)
C16 C 0.2170(3) 0.6488(8) 0.2461(2)
H8 H 0.1765 0.6703 0.2517
C17 C 0.3265(3) 0.7422(9) 0.2629(2)
H9 H 0.3608 0.8263 0.2794
C19 C 0.3347(3) 0.5852(9) 0.2300(2)
H11 H 0.3753 0.5603 0.2247
C20 C 0.2130(3) 0.9407(8) 0.3392(2)
H12 H 0.1872 0.8274 0.3376
Zn3 Zn 0.26492(3) 0.02504(9) 0.08171(3)
O3_3 O 0.25575(18) 0.1585(6) 0.01037(15)
H25_3 H 0.219(11) 0.04(4) 0.005(11)
H23_3 H 0.3888 0.1287 0.0699
H13 H 0.8673 0.9199 0.4813
C25 C 0.9558(2) 0.9212(8) 0.4214(2)
C28 C 0.9542(3) 0.7247(9) 0.4354(3)
H18 H 0.9186 0.6742 0.4459
Zn1_3 Zn 0.23876(3) 0.02972(9) 0.93670(3)
O7_3 O 0.1089(2) 0.1438(6) 0.9346(2)
H4_3 H 0.0006 0.0367 0.9429
N1_3 N 0.2425(2) 0.2399(6) 0.87708(18)
C12_2 C 0.2570(3) 0.5522(8) 0.8075(2)
C13_3 C 0.2840(3) 0.2307(8) 0.8457(2)
H6_3 H 0.3088 0.1149 0.8474
C14_3 C 0.2922(3) 0.3812(8) 0.8113(2)
H7_3 H 0.3222 0.3687 0.7898
C15_2 C 0.2669(3) 0.7218(8) 0.7723(2)
C16_2 C 0.2170(3) 0.8512(8) 0.7461(2)
H8_2 H 0.1765 0.8297 0.7517
C17_2 C 0.3265(3) 0.7578(9) 0.7629(2)
H9_2 H 0.3608 0.6737 0.7794
C18_3 C 0.2071(3) 0.4052(9) 0.8724(2)
H10_3 H 0.1766 0.4131 0.8935
C19_2 C 0.3347(3) 0.9148(9) 0.7300(2)
H11_2 H 0.3753 0.9397 0.7247
C20_2 C 0.2130(3) 0.5593(8) 0.8392(2)
H12_2 H 0.1872 0.6726 0.8376
N4_2 N 0.1967(2) 0.8194(7) 0.07978(18)
N5_2 N 0.3493(2) 0.8892(6) 0.09002(18)
C21_3 C 0.0971(2) 0.5564(8) 0.0788(2)
C22_3 C 0.1380(3) 0.5298(8) 0.0436(2)
H13_2 H 0.1327 0.4199 0.0187
C23_3 C 0.1089(3) 0.7209(9) 0.1145(2)
H14_3 H 0.0828 0.7474 0.1390
C24_3 C 0.1589(3) 0.8459(9) 0.1142(2)
H15_3 H 0.1665 0.9549 0.1395
C25_2 C 0.0442(2) 0.4212(8) 0.0786(2)
C27_3 C 0.1855(3) 0.6623(8) 0.0454(2)
H17_3 H 0.2119 0.6414 0.0208
C28_2 C 0.0458(3) 0.2247(9) 0.0646(3)
H18_2 H 0.0814 0.1742 0.0541
O1_3 O 0.68927(17) 0.1266(6) 0.07129(17)
O2_3 O 0.83893(17) 0.1190(6) 0.08191(17)
C1_3 C 0.8879(3) 0.0337(8) 0.0751(3)
C2_3 C 0.6234(2) 0.4037(8) 0.0599(2)
C3_3 C 0.6786(2) 0.2966(9) 0.0483(2)
C4_3 C 0.5870(2) 0.3191(8) 0.0921(2)
H1_3 H 0.5969 0.1909 0.1075
C5_3 C 0.6081(2) 0.5932(8) 0.0380(2)
H2_3 H 0.6330 0.6541 0.0162
O5_3 O 0.71036(18) 0.3767(7) 0.01939(17)
C6_3 C 0.9431(2) 0.1677(8) 0.0781(2)
C8_3 C 0.9413(3) 0.3645(9) 0.0920(3)
H3_3 H 0.9048 0.4151 0.1010
C9_3 C 0.9963(3) 0.0992(9) 0.0655(3)
C26_3 C 0.9909(3) 0.4894(9) 0.0933(3)
H16_3 H 0.9887 0.6231 0.1042
C29_3 C 0.4134(2) 0.6030(8) 0.0987(2)
H19_3 H 0.4179 0.4658 0.1066
C30_3 C 0.4628(2) 0.7075(8) 0.0858(2)
C31_3 C 0.3587(2) 0.6969(8) 0.0999(2)
H20_3 H 0.3259 0.6212 0.1081
C32_3 C 0.5198(2) 0.6071(8) 0.0794(2)
C33_3 C 0.5577(3) 0.6916(8) 0.0477(2)
H21_3 H 0.5481 0.8203 0.0325
C34_3 C 0.5365(3) 0.4195(8) 0.1017(2)
H22_3 H 0.5124 0.3594 0.1243
C35_3 C 0.3952(3) 0.9920(8) 0.0778(3)
C36_3 C 0.4527(2) 0.9079(8) 0.0762(2)
H24_3 H 0.4849 0.9881 0.0684
O1_4 O 0.31073(17) 0.8734(6) 0.92871(17)
O2_4 O 0.16107(17) 0.8810(6) 0.91809(17)
C1_4 C 0.1121(3) 0.9663(8) 0.9249(3)
C2_4 C 0.3766(2) 0.5963(8) 0.9401(2)
C3_4 C 0.3214(2) 0.7034(9) 0.9517(2)
C4_4 C 0.4130(2) 0.6809(8) 0.9079(2)
H1_4 H 0.4031 0.8091 0.8925
C5_4 C 0.3919(2) 0.4068(8) 0.9620(2)
H2_4 H 0.3670 0.3459 0.9838
O5_4 O 0.28964(18) 0.6233(7) 0.98061(17)
C6_4 C 0.0569(2) 0.8323(8) 0.9219(2)
C8_4 C 0.0587(3) 0.6355(9) 0.9080(3)
H3_4 H 0.0952 0.5849 0.8990
C9_4 C 0.0037(3) 0.9008(9) 0.9345(3)
C26_4 C 0.0091(3) 0.5106(9) 0.9067(3)
H16_4 H 0.0113 0.3769 0.8958
N3_2 N 0.6507(2) 0.1108(6) 0.90998(18)
C29_4 C 0.5866(2) 0.3970(8) 0.9013(2)
H19_4 H 0.5821 0.5342 0.8934
C30_4 C 0.5372(2) 0.2925(8) 0.9142(2)
C31_4 C 0.6413(2) 0.3031(8) 0.9001(2)
H20_4 H 0.6741 0.3788 0.8919
C32_4 C 0.4802(2) 0.3929(8) 0.9206(2)
C33_4 C 0.4423(3) 0.3084(8) 0.9523(2)
H21_4 H 0.4519 0.1797 0.9675
C34_4 C 0.4635(3) 0.5805(8) 0.8983(2)
H22_4 H 0.4876 0.6406 0.8757
C35_4 C 0.6048(3) 0.0080(8) 0.9222(3)
C36_4 C 0.5473(2) 0.0921(8) 0.9238(2)
H24_4 H 0.5151 0.0119 0.9316
N2_2 N 0.8033(2) 0.1806(7) 0.92022(18)
C21_4 C 0.9029(2) 0.4436(8) 0.9212(2)
C22_4 C 0.8620(3) 0.4702(8) 0.9564(2)
H13_3 H 0.8673 0.5801 0.9813
C23_4 C 0.8911(3) 0.2791(9) 0.8855(2)
H14_4 H 0.9172 0.2526 0.8610
C24_4 C 0.8411(3) 0.1541(9) 0.8858(2)
H15_4 H 0.8335 0.0451 0.8605
C25_3 C 0.9558(2) 0.5788(8) 0.9214(2)
C27_4 C 0.8145(3) 0.3377(8) 0.9546(2)
H17_4 H 0.7881 0.3586 0.9792
C28_3 C 0.9542(3) 0.7753(9) 0.9354(3)
H18_3 H 0.9186 0.8258 0.9459
H23_4 H 0.6112 0.8713 0.9301
Zn5_2 Zn 0.73508(3) 0.97496(9) 0.91829(3)
O4_2 O 0.7528(2) 0.8009(6) 0.86038(17)
O6_4 O 0.6515(2) 0.7280(7) 0.8409(2)
C7_4 C 0.7054(3) 0.7008(9) 0.8346(3)
C10_4 C 0.7152(3) 0.5387(8) 0.7960(2)
C11_4 C 0.7741(3) 0.5065(8) 0.7871(2)
H5_4 H 0.8082 0.5915 0.8039
C12_3 C 0.7430(3) 0.0522(8) 0.6925(2)
C15_3 C 0.7331(3) 0.2218(8) 0.7277(2)
C16_3 C 0.7830(3) 0.3512(8) 0.7539(2)
H8_3 H 0.8235 0.3297 0.7483
C17_3 C 0.6735(3) 0.2578(9) 0.7371(2)
H9_3 H 0.6392 0.1737 0.7206
C19_3 C 0.6653(3) 0.4148(9) 0.7700(2)
H11_3 H 0.6247 0.4397 0.7753
C20_3 C 0.7870(3) 0.0593(8) 0.6608(2)
H12_3 H 0.8128 0.1726 0.6624
O3_4 O 0.74425(18) 0.8415(6) 0.98963(15)
H25_4 H 0.781(11) 0.96(4) 0.995(11)
H13_4 H 0.1327 0.0801 0.5187
C25_4 C 0.0442(2) 0.0788(8) 0.5786(2)
C28_4 C 0.0458(3) 0.2753(9) 0.5646(3)
H18_4 H 0.0814 0.3258 0.5541
Zn1_4 Zn 0.76124(3) 0.97028(9) 0.06330(3)
O7_4 O 0.8911(2) 0.8562(6) 0.0654(2)
H4_4 H 0.9994 0.9633 0.0571
N1_4 N 0.7575(2) 0.7601(6) 0.12292(18)
C12_4 C 0.7430(3) 0.4478(8) 0.1925(2)
C13_4 C 0.7160(3) 0.7693(8) 0.1543(2)
H6_4 H 0.6912 0.8851 0.1526
C14_4 C 0.7078(3) 0.6188(8) 0.1887(2)
H7_4 H 0.6778 0.6313 0.2102
C15_4 C 0.7331(3) 0.2782(8) 0.2277(2)
C16_4 C 0.7830(3) 0.1488(8) 0.2539(2)
H8_4 H 0.8235 0.1703 0.2483
C17_4 C 0.6735(3) 0.2422(9) 0.2371(2)
H9_4 H 0.6392 0.3263 0.2206
C18_4 C 0.7929(3) 0.5948(9) 0.1276(2)
H10_4 H 0.8234 0.5869 0.1065
C19_4 C 0.6653(3) 0.0852(9) 0.2700(2)
H11_4 H 0.6247 0.0603 0.2753
C20_4 C 0.7870(3) 0.4407(8) 0.1608(2)
H12_4 H 0.8128 0.3274 0.1624
loop_
_geom_bond_atom_site_label_1
_geom_bond_atom_site_label_2
_geom_bond_site_symmetry_1
_geom_bond_site_symmetry_2
H2 C5 1_555 1_555
N3 C31 1_555 1_555
C30 C29 1_555 1_555
C31 C29 1_555 1_555
H20 C31 1_555 1_555
C32 C30 1_555 1_555
C33 C5 1_555 1_555
H21 C33 1_555 1_555
C35 N3 1_555 1_555
H23 C35 1_555 1_555
C36 C30 1_555 1_555
H24 C36 1_555 1_555
Zn5 N3 1_555 1_555
C32 C33 1_555 1_555
C35 C36 1_555 1_555
N2 C24 1_555 1_555
C21 C22 1_555 1_555
C23 C21 1_555 1_555
H14 C23 1_555 1_555
C24 C23 1_555 1_555
H15 C24 1_555 1_555
C27 N2 1_555 1_555
H17 C27 1_555 1_555
Zn5 N2 1_555 1_555
C22 C27 1_555 1_555
Zn1 O1 1_555 1_555
Zn5 O3 1_555 1_555
O1 C3 1_555 1_555
O2 Zn1 1_555 1_555
O3 Zn1 1_555 1_555
C1 O2 1_555 1_555
C2 C3 1_555 1_555
C3 O5 1_555 1_555
C4 C2 1_555 1_555
H1 C4 1_555 1_555
C6 C1 1_555 1_555
O7 C1 1_555 1_555
C8 C6 1_555 1_555
H3 C8 1_555 1_555
C9 C6 1_555 1_555
H4 C9 1_555 1_555
N1 Zn1 1_555 1_555
C13 N1 1_555 1_555
H6 C13 1_555 1_555
C14 C13 1_555 1_555
H7 C14 1_555 1_555
C18 N1 1_555 1_555
H10 C18 1_555 1_555
C26 C8 1_555 1_555
C34 C4 1_555 1_555
H22 C34 1_555 1_555
H25 O3 1_555 1_555
O8 Zn5 1_555 1_555
O8 C7 1_555 1_555
O6 C7 1_555 1_555
C7 C10 1_555 1_555
C10 C11 1_555 1_555
C11 H5 1_555 1_555
Zn1_2 O1_2 1_555 1_555
Zn2 O3_2 1_555 1_555
O1_2 C3_2 1_555 1_555
O2_2 Zn1_2 1_555 1_555
O3_2 Zn1_2 1_555 1_555
C1_2 O2_2 1_555 1_555
C2_2 C3_2 1_555 1_555
C3_2 O5_2 1_555 1_555
C4_2 C2_2 1_555 1_555
H1_2 C4_2 1_555 1_555
C6_2 C1_2 1_555 1_555
O7_2 C1_2 1_555 1_555
C8_2 C6_2 1_555 1_555
H3_2 C8_2 1_555 1_555
C9_2 C6_2 1_555 1_555
H4_2 C9_2 1_555 1_555
N1_2 Zn1_2 1_555 1_555
C13_2 N1_2 1_555 1_555
H6_2 C13_2 1_555 1_555
C14_2 C13_2 1_555 1_555
H7_2 C14_2 1_555 1_555
C18_2 N1_2 1_555 1_555
H10_2 C18_2 1_555 1_555
C26_2 C8_2 1_555 1_555
C34_2 C4_2 1_555 1_555
H22_2 C34_2 1_555 1_555
H25_2 O3_2 1_555 1_555
O8_2 Zn2 1_555 1_555
N4 Zn2 1_555 1_555
N5 Zn2 1_555 1_555
O8_2 C7_2 1_555 1_555
O6_2 C7_2 1_555 1_555
C7_2 C10_2 1_555 1_555
C10_2 C11_2 1_555 1_555
C11_2 H5_2 1_555 1_555
N4 C24_2 1_555 1_555
C21_2 C22_2 1_555 1_555
C23_2 C21_2 1_555 1_555
H14_2 C23_2 1_555 1_555
C24_2 C23_2 1_555 1_555
H15_2 C24_2 1_555 1_555
C27_2 N4 1_555 1_555
H17_2 C27_2 1_555 1_555
C22_2 C27_2 1_555 1_555
H2_2 C5_2 1_555 1_555
N5 C31_2 1_555 1_555
C30_2 C29_2 1_555 1_555
C31_2 C29_2 1_555 1_555
H20_2 C31_2 1_555 1_555
C32_2 C30_2 1_555 1_555
C33_2 C5_2 1_555 1_555
H21_2 C33_2 1_555 1_555
C35_2 N5 1_555 1_555
H23_2 C35_2 1_555 1_555
C36_2 C30_2 1_555 1_555
H24_2 C36_2 1_555 1_555
C32_2 C33_2 1_555 1_555
C35_2 C36_2 1_555 1_555
O4 C7_3 1_555 1_555
O6_3 C7_3 1_555 1_555
C7_3 C10_3 1_555 1_555
C10_3 C11_3 1_555 1_555
C11_3 H5_3 1_555 1_555
C15 C12 1_555 1_555
C16 C11_3 1_555 1_555
H8 C16 1_555 1_555
C17 C15 1_555 1_555
H9 C17 1_555 1_555
C19 C10_3 1_555 1_555
H11 C19 1_555 1_555
C20 C12 1_555 1_555
H12 C20 1_555 1_555
Zn3 O4 1_555 1_555
C15 C16 1_555 1_555
C17 C19 1_555 1_555
Zn3 O3_3 1_555 1_555
H25_3 O3_3 1_555 1_555
H18 C28 1_555 1_555
C25 C28 1_555 1_555
N1_3 Zn1_3 1_555 1_555
C12_2 C14_3 1_555 1_555
C13_3 N1_3 1_555 1_555
H6_3 C13_3 1_555 1_555
C14_3 C13_3 1_555 1_555
H7_3 C14_3 1_555 1_555
C15_2 C12_2 1_555 1_555
H8_2 C16_2 1_555 1_555
C17_2 C15_2 1_555 1_555
H9_2 C17_2 1_555 1_555
C18_3 N1_3 1_555 1_555
H10_3 C18_3 1_555 1_555
H11_2 C19_2 1_555 1_555
C20_2 C12_2 1_555 1_555
H12_2 C20_2 1_555 1_555
C15_2 C16_2 1_555 1_555
C17_2 C19_2 1_555 1_555
C18_3 C20_2 1_555 1_555
N4_2 C24_3 1_555 1_555
C21_3 C22_3 1_555 1_555
C22_3 H13_2 1_555 1_555
C23_3 C21_3 1_555 1_555
H14_3 C23_3 1_555 1_555
C24_3 C23_3 1_555 1_555
H15_3 C24_3 1_555 1_555
C25_2 C21_3 1_555 1_555
C27_3 N4_2 1_555 1_555
H17_3 C27_3 1_555 1_555
H18_2 C28_2 1_555 1_555
C22_3 C27_3 1_555 1_555
C25_2 C28_2 1_555 1_555
O1_3 C3_3 1_555 1_555
C1_3 O2_3 1_555 1_555
C2_3 C3_3 1_555 1_555
C3_3 O5_3 1_555 1_555
C4_3 C2_3 1_555 1_555
H1_3 C4_3 1_555 1_555
C5_3 C2_3 1_555 1_555
H2_3 C5_3 1_555 1_555
C6_3 C1_3 1_555 1_555
C8_3 C6_3 1_555 1_555
H3_3 C8_3 1_555 1_555
C9_3 C6_3 1_555 1_555
C26_3 C8_3 1_555 1_555
H16_3 C26_3 1_555 1_555
N5_2 C31_3 1_555 1_555
C29_3 H19_3 1_555 1_555
C30_3 C29_3 1_555 1_555
C31_3 C29_3 1_555 1_555
H20_3 C31_3 1_555 1_555
C32_3 C30_3 1_555 1_555
C33_3 C5_3 1_555 1_555
H21_3 C33_3 1_555 1_555
C34_3 C4_3 1_555 1_555
H22_3 C34_3 1_555 1_555
C35_3 N5_2 1_555 1_555
C36_3 C30_3 1_555 1_555
H24_3 C36_3 1_555 1_555
C32_3 C34_3 1_555 1_555
C32_3 C33_3 1_555 1_555
C35_3 C36_3 1_555 1_555
O1_4 C3_4 1_555 1_555
C1_4 O2_4 1_555 1_555
C2_4 C3_4 1_555 1_555
C3_4 O5_4 1_555 1_555
C4_4 C2_4 1_555 1_555
H1_4 C4_4 1_555 1_555
C5_4 C2_4 1_555 1_555
H2_4 C5_4 1_555 1_555
C6_4 C1_4 1_555 1_555
C8_4 C6_4 1_555 1_555
H3_4 C8_4 1_555 1_555
C9_4 C6_4 1_555 1_555
C26_4 C8_4 1_555 1_555
H16_4 C26_4 1_555 1_555
N3_2 C31_4 1_555 1_555
C29_4 H19_4 1_555 1_555
C30_4 C29_4 1_555 1_555
C31_4 C29_4 1_555 1_555
H20_4 C31_4 1_555 1_555
C32_4 C30_4 1_555 1_555
C33_4 C5_4 1_555 1_555
H21_4 C33_4 1_555 1_555
C34_4 C4_4 1_555 1_555
H22_4 C34_4 1_555 1_555
C35_4 N3_2 1_555 1_555
C36_4 C30_4 1_555 1_555
H24_4 C36_4 1_555 1_555
C32_4 C34_4 1_555 1_555
C32_4 C33_4 1_555 1_555
C35_4 C36_4 1_555 1_555
N2_2 C24_4 1_555 1_555
C21_4 C22_4 1_555 1_555
C22_4 H13_3 1_555 1_555
C23_4 C21_4 1_555 1_555
H14_4 C23_4 1_555 1_555
C24_4 C23_4 1_555 1_555
H15_4 C24_4 1_555 1_555
C25_3 C21_4 1_555 1_555
C27_4 N2_2 1_555 1_555
H17_4 C27_4 1_555 1_555
H18_3 C28_3 1_555 1_555
C22_4 C27_4 1_555 1_555
C25_3 C28_3 1_555 1_555
O4_2 C7_4 1_555 1_555
O6_4 C7_4 1_555 1_555
C7_4 C10_4 1_555 1_555
C10_4 C11_4 1_555 1_555
C11_4 H5_4 1_555 1_555
C15_3 C12_3 1_555 1_555
C16_3 C11_4 1_555 1_555
H8_3 C16_3 1_555 1_555
C17_3 C15_3 1_555 1_555
H9_3 C17_3 1_555 1_555
C19_3 C10_4 1_555 1_555
H11_3 C19_3 1_555 1_555
C20_3 C12_3 1_555 1_555
H12_3 C20_3 1_555 1_555
Zn5_2 O4_2 1_555 1_555
C15_3 C16_3 1_555 1_555
C17_3 C19_3 1_555 1_555
Zn5_2 O3_4 1_555 1_555
H25_4 O3_4 1_555 1_555
H18_4 C28_4 1_555 1_555
C25_4 C28_4 1_555 1_555
N1_4 Zn1_4 1_555 1_555
C12_4 C14_4 1_555 1_555
C13_4 N1_4 1_555 1_555
H6_4 C13_4 1_555 1_555
C14_4 C13_4 1_555 1_555
H7_4 C14_4 1_555 1_555
C15_4 C12_4 1_555 1_555
H8_4 C16_4 1_555 1_555
C17_4 C15_4 1_555 1_555
H9_4 C17_4 1_555 1_555
C18_4 N1_4 1_555 1_555
H10_4 C18_4 1_555 1_555
H11_4 C19_4 1_555 1_555
C20_4 C12_4 1_555 1_555
H12_4 C20_4 1_555 1_555
C15_4 C16_4 1_555 1_555
C17_4 C19_4 1_555 1_555
C18_4 C20_4 1_555 1_555

#END
