
###############################################################################
#
# This file contains modified crystal structure data generated from the
# MOF subset of the Cambridge Structural Database (CSD) v543 
# hosted by the Cambridge Crystallographic Data Centre (CCDC).
#
# This work is licensed under the Creative Commons
# Attribution-NonCommercial-ShareAlike 4.0 International License.
# To view a copy of this license, visit
# http://creativecommons.org/licenses/by-nc-sa/4.0/
# or send a letter to
# Creative Commons, PO Box 1866, Mountain View, CA 94042, USA.
#
# CIF created using the CSD Python API on 29 September 2022
# The structure has been converted into the P1 space group
# The structure has a 3D framework
# The original CSD entry ECODEG is in the orthorhombic crystal system
# The framework has been calculated to contain at least 10.0% void space
# The void calculation uses a probe of radius 1.32A, grid spacing 0.4
# H atom positions have been added when not included in the experimental data
#
###############################################################################

data_ECODEG
_chemical_formula_moiety         '(C96 H80 Cd8 N16 O40)n'
_symmetry_cell_setting           triclinic
_symmetry_space_group_name_H-M   'P 1'
_symmetry_Int_Tables_number      1
_space_group_name_Hall           'P 1'
loop_
_symmetry_equiv_pos_site_id
_symmetry_equiv_pos_as_xyz
1 x,y,z
_cell_length_a                   12.181(9)
_cell_length_b                   15.354(12)
_cell_length_c                   18.785(15)
_cell_angle_alpha                90
_cell_angle_beta                 90
_cell_angle_gamma                90
_cell_volume                     3513.3
loop_
_atom_site_label
_atom_site_type_symbol
_atom_site_fract_x
_atom_site_fract_y
_atom_site_fract_z
O4 O 0.6496(5) 0.3288(4) 0.1174(3)
O5 O 0.6880(5) 0.1886(4) 0.1167(3)
H6 H 0.6123 0.1268 0.0003
C9 C 0.5503(7) 0.2376(5) 0.0392(5)
C10 C 0.4656(7) 0.2962(6) 0.0273(5)
H7 H 0.4555 0.3433 0.0578
C12 C 0.6338(7) 0.2524(6) 0.0963(4)
Cd3 Cd 0.80698(5) 0.28414(4) 0.18403(3)
Cd1 Cd 0.30698(5) 0.21586(4) 0.81597(3)
N1 N 0.3866(5) 0.3459(4) 0.7781(3)
N2 N 0.4094(6) 0.2200(5) 0.9240(4)
O1 O 0.1911(5) 0.2021(3) 0.7190(3)
O2 O 0.5264(5) 0.6511(4) 0.7426(3)
O3 O 0.6542(5) 0.5683(4) 0.6947(3)
C1 C 0.4656(7) 0.3464(6) 0.7296(4)
H1 H 0.4823 0.2945 0.7064
C2 C 0.5246(7) 0.4203(5) 0.7118(5)
H2 H 0.5794 0.4179 0.6773
C3 C 0.5009(7) 0.4970(5) 0.7457(4)
C4 C 0.4168(7) 0.4987(6) 0.7948(4)
H3 H 0.3973 0.5503 0.8174
C5 C 0.3625(7) 0.4225(5) 0.8095(4)
H4 H 0.3061 0.4237 0.8428
C6 C 0.5646(7) 0.5782(5) 0.7272(4)
C7 C 0.4885(8) 0.1626(6) 0.9361(5)
H5 H 0.4967 0.1161 0.9049
C8 C 0.5588(8) 0.1691(6) 0.9931(5)
C11 C 0.3970(7) 0.2844(6) 0.9704(5)
H8 H 0.3391 0.3231 0.9640
Cd2 Cd 0.69302(5) 0.71586(4) 0.68403(3)
O6 O 0.4736(5) 0.1511(4) 0.7574(3)
O7 O 0.3458(5) 0.0683(4) 0.8053(3)
O8 O 0.1496(5) 0.1712(4) 0.8826(3)
O9 O 0.1880(5) 0.3114(4) 0.8833(3)
H9 H 0.235355 0.198861 0.674685
H10 H 0.146731 0.148193 0.72402
Cd1_2 Cd 0.19302(5) 0.78414(4) 0.31597(3)
N1_2 N 0.1134(5) 0.6541(4) 0.2781(3)
N2_2 N 0.0906(6) 0.7800(5) 0.4240(4)
O1_2 O 0.3089(5) 0.7979(3) 0.2190(3)
C1_2 C 0.0344(7) 0.6536(6) 0.2296(4)
H1_2 H 0.0177 0.7055 0.2064
C4_2 C 0.0832(7) 0.5013(6) 0.2948(4)
H3_2 H 0.1027 0.4497 0.3174
C5_2 C 0.1375(7) 0.5775(5) 0.3095(4)
H4_2 H 0.1939 0.5763 0.3428
C7_2 C 0.0115(8) 0.8374(6) 0.4361(5)
H5_2 H 0.0033 0.8839 0.4049
C10_2 C 0.0344(7) 0.7038(6) 0.5273(5)
H7_2 H 0.0445 0.6567 0.5578
C11_2 C 0.1030(7) 0.7156(6) 0.4704(5)
H8_2 H 0.1609 0.6769 0.4640
O6_2 O 0.0264(5) 0.8489(4) 0.2574(3)
O7_2 O 0.1542(5) 0.9317(4) 0.3053(3)
O8_2 O 0.3504(5) 0.8288(4) 0.3826(3)
O9_2 O 0.3120(5) 0.6886(4) 0.3833(3)
H9_2 H 0.264645 0.801139 0.174685
H10_2 H 0.353269 0.851807 0.22402
O2_2 O 0.9736(5) 0.3489(4) 0.2426(3)
O3_2 O 0.8458(5) 0.4317(4) 0.1947(3)
O4_2 O 0.8504(5) 0.6712(4) 0.6174(3)
O5_2 O 0.8120(5) 0.8114(4) 0.6167(3)
C2_2 C 0.9754(7) 0.5797(5) 0.2118(5)
H2_2 H 0.9206 0.5821 0.1773
C3_2 C 0.9991(7) 0.5030(5) 0.2457(4)
C6_2 C 0.9354(7) 0.4218(5) 0.2272(4)
C8_2 C 0.9412(8) 0.8309(6) 0.4931(5)
H6_2 H 0.8877 0.8732 0.5003
C9_2 C 0.9497(7) 0.7624(5) 0.5392(5)
C12_2 C 0.8662(7) 0.7476(6) 0.5963(4)
H3_3 H 0.6027 0.0503 0.6826
C6_3 C 0.4354(7) 0.0782(5) 0.7728(4)
N1_3 N 0.6134(5) 0.8459(4) 0.7219(3)
N2_3 N 0.5906(6) 0.7200(5) 0.5760(4)
O1_3 O 0.8089(5) 0.7021(3) 0.7810(3)
C1_3 C 0.5344(7) 0.8464(6) 0.7704(4)
H1_3 H 0.5177 0.7945 0.7936
C2_3 C 0.4754(7) 0.9203(5) 0.7882(5)
H2_3 H 0.4206 0.9179 0.8227
C3_3 C 0.4991(7) 0.9970(5) 0.7543(4)
C4_3 C 0.5832(7) 0.9987(6) 0.7052(4)
C5_3 C 0.6375(7) 0.9225(5) 0.6905(4)
H4_3 H 0.6939 0.9237 0.6572
C7_3 C 0.5115(8) 0.6626(6) 0.5639(5)
H5_3 H 0.5033 0.6161 0.5951
C8_3 C 0.4412(8) 0.6691(6) 0.5069(5)
H6_3 H 0.3877 0.6268 0.4997
C9_3 C 0.4497(7) 0.7376(5) 0.4608(5)
C10_3 C 0.5344(7) 0.7962(6) 0.4727(5)
H7_3 H 0.5445 0.8433 0.4422
C11_3 C 0.6030(7) 0.7844(6) 0.5296(5)
H8_3 H 0.6609 0.8231 0.5360
C12_3 C 0.3662(7) 0.7524(6) 0.4037(4)
H9_3 H 0.764645 0.698861 0.825315
H10_3 H 0.853269 0.648193 0.77598
H6_4 H 0.1123 0.3732 0.9997
C9_4 C 0.0503(7) 0.2624(5) 0.9608(5)
C12_4 C 0.1338(7) 0.2476(6) 0.9037(4)
C6_4 C 0.0646(7) 0.9218(5) 0.2728(4)
N1_4 N 0.8866(5) 0.1541(4) 0.2219(3)
N2_4 N 0.9094(6) 0.2800(5) 0.0760(4)
O1_4 O 0.6911(5) 0.2979(3) 0.2810(3)
C1_4 C 0.9656(7) 0.1536(6) 0.2704(4)
H1_4 H 0.9823 0.2055 0.2936
C4_4 C 0.9168(7) 0.0013(6) 0.2052(4)
C5_4 C 0.8625(7) 0.0775(5) 0.1905(4)
H4_4 H 0.8061 0.0763 0.1572
C7_4 C 0.9885(8) 0.3374(6) 0.0639(5)
H5_4 H 0.9967 0.3839 0.0951
C11_4 C 0.8970(7) 0.2156(6) 0.0296(5)
H8_4 H 0.8391 0.1769 0.0360
H9_4 H 0.735355 0.301139 0.325315
H10_4 H 0.646731 0.351807 0.27598
C2_4 C 0.0246(7) 0.0797(5) 0.2882(5)
H2_4 H 0.0794 0.0821 0.3227
C3_4 C 0.0009(7) 0.0030(5) 0.2543(4)
C8_4 C 0.0588(8) 0.3309(6) 0.0069(5)
C10_4 C 0.9656(7) 0.2038(6) 0.9727(5)
H7_4 H 0.9555 0.1567 0.9422
H3_4 H 0.8973 0.9497 0.1826
Cd1_3 Cd 0.69302(5) 0.78414(4) 0.18403(3)
N1_5 N 0.6134(5) 0.6541(4) 0.2219(3)
N2_5 N 0.5906(6) 0.7800(5) 0.0760(4)
O1_5 O 0.8089(5) 0.7979(3) 0.2810(3)
O2_3 O 0.4736(5) 0.3489(4) 0.2574(3)
O3_3 O 0.3458(5) 0.4317(4) 0.3053(3)
C1_5 C 0.5344(7) 0.6536(6) 0.2704(4)
H1_5 H 0.5177 0.7055 0.2936
C2_5 C 0.4754(7) 0.5797(5) 0.2882(5)
H2_5 H 0.4206 0.5821 0.3227
C3_5 C 0.4991(7) 0.5030(5) 0.2543(4)
C4_5 C 0.5832(7) 0.5013(6) 0.2052(4)
H3_5 H 0.6027 0.4497 0.1826
C5_5 C 0.6375(7) 0.5775(5) 0.1905(4)
H4_5 H 0.6939 0.5763 0.1572
C6_5 C 0.4354(7) 0.4218(5) 0.2728(4)
C7_5 C 0.5115(8) 0.8374(6) 0.0639(5)
H5_5 H 0.5033 0.8839 0.0951
C8_5 C 0.4412(8) 0.8309(6) 0.0069(5)
C11_5 C 0.6030(7) 0.7156(6) 0.0296(5)
H8_5 H 0.6609 0.6769 0.0360
Cd2_2 Cd 0.30698(5) 0.28414(4) 0.31597(3)
O6_3 O 0.5264(5) 0.8489(4) 0.2426(3)
O7_3 O 0.6542(5) 0.9317(4) 0.1947(3)
O8_3 O 0.8504(5) 0.8288(4) 0.1174(3)
O9_3 O 0.8120(5) 0.6886(4) 0.1167(3)
H9_5 H 0.764645 0.801139 0.325315
H10_5 H 0.853269 0.851807 0.27598
O4_3 O 0.3504(5) 0.6712(4) 0.8826(3)
O5_3 O 0.3120(5) 0.8114(4) 0.8833(3)
H6_5 H 0.3877 0.8732 0.9997
C9_5 C 0.4497(7) 0.7624(5) 0.9608(5)
C10_5 C 0.5344(7) 0.7038(6) 0.9727(5)
H7_5 H 0.5445 0.6567 0.9422
C12_5 C 0.3662(7) 0.7476(6) 0.9037(4)
Cd3_2 Cd 0.19302(5) 0.71586(4) 0.81597(3)
O2_4 O 0.0264(5) 0.6511(4) 0.7574(3)
O3_4 O 0.1542(5) 0.5683(4) 0.8053(3)
O4_4 O 0.1496(5) 0.3288(4) 0.3826(3)
O5_4 O 0.1880(5) 0.1886(4) 0.3833(3)
C2_6 C 0.0246(7) 0.4203(5) 0.7882(5)
H2_6 H 0.0794 0.4179 0.8227
C3_6 C 0.0009(7) 0.4970(5) 0.7543(4)
C6_6 C 0.0646(7) 0.5782(5) 0.7728(4)
C8_6 C 0.0588(8) 0.1691(6) 0.5069(5)
H6_6 H 0.1123 0.1268 0.4997
C9_6 C 0.0503(7) 0.2376(5) 0.4608(5)
C12_6 C 0.1338(7) 0.2524(6) 0.4037(4)
Cd1_4 Cd 0.80698(5) 0.21586(4) 0.68403(3)
N1_6 N 0.8866(5) 0.3459(4) 0.7219(3)
N2_6 N 0.9094(6) 0.2200(5) 0.5760(4)
O1_6 O 0.6911(5) 0.2021(3) 0.7810(3)
C1_6 C 0.9656(7) 0.3464(6) 0.7704(4)
H1_6 H 0.9823 0.2945 0.7936
C4_6 C 0.9168(7) 0.4987(6) 0.7052(4)
H3_6 H 0.8973 0.5503 0.6826
C5_6 C 0.8625(7) 0.4225(5) 0.6905(4)
H4_6 H 0.8061 0.4237 0.6572
C7_6 C 0.9885(8) 0.1626(6) 0.5639(5)
H5_6 H 0.9967 0.1161 0.5951
C10_6 C 0.9656(7) 0.2962(6) 0.4727(5)
H7_6 H 0.9555 0.3433 0.4422
C11_6 C 0.8970(7) 0.2844(6) 0.5296(5)
H8_6 H 0.8391 0.3231 0.5360
O6_4 O 0.9736(5) 0.1511(4) 0.7426(3)
O7_4 O 0.8458(5) 0.0683(4) 0.6947(3)
O8_4 O 0.6496(5) 0.1712(4) 0.6174(3)
O9_4 O 0.6880(5) 0.3114(4) 0.6167(3)
H9_6 H 0.735355 0.198861 0.825315
H10_6 H 0.646731 0.148193 0.77598
N1_7 N 0.3866(5) 0.1541(4) 0.2781(3)
N2_7 N 0.4094(6) 0.2800(5) 0.4240(4)
O1_7 O 0.1911(5) 0.2979(3) 0.2190(3)
C1_7 C 0.4656(7) 0.1536(6) 0.2296(4)
H1_7 H 0.4823 0.2055 0.2064
C2_7 C 0.5246(7) 0.0797(5) 0.2118(5)
H2_7 H 0.5794 0.0821 0.1773
C3_7 C 0.5009(7) 0.0030(5) 0.2457(4)
C4_7 C 0.4168(7) 0.0013(6) 0.2948(4)
C5_7 C 0.3625(7) 0.0775(5) 0.3095(4)
H4_7 H 0.3061 0.0763 0.3428
C7_7 C 0.4885(8) 0.3374(6) 0.4361(5)
H5_7 H 0.4967 0.3839 0.4049
C8_7 C 0.5588(8) 0.3309(6) 0.4931(5)
H6_7 H 0.6123 0.3732 0.5003
C9_7 C 0.5503(7) 0.2624(5) 0.5392(5)
C10_7 C 0.4656(7) 0.2038(6) 0.5273(5)
H7_7 H 0.4555 0.1567 0.5578
C11_7 C 0.3970(7) 0.2156(6) 0.4704(5)
H8_7 H 0.3391 0.1769 0.4640
C12_7 C 0.6338(7) 0.2476(6) 0.5963(4)
H9_7 H 0.235355 0.301139 0.174685
H10_7 H 0.146731 0.351807 0.22402
H3_7 H 0.3973 0.9497 0.3174
C6_7 C 0.5646(7) 0.9218(5) 0.2272(4)
N1_8 N 0.1134(5) 0.8459(4) 0.7781(3)
N2_8 N 0.0906(6) 0.7200(5) 0.9240(4)
O1_8 O 0.3089(5) 0.7021(3) 0.7190(3)
C1_8 C 0.0344(7) 0.8464(6) 0.7296(4)
H1_8 H 0.0177 0.7945 0.7064
C4_8 C 0.0832(7) 0.9987(6) 0.7948(4)
C5_8 C 0.1375(7) 0.9225(5) 0.8095(4)
H4_8 H 0.1939 0.9237 0.8428
C7_8 C 0.0115(8) 0.6626(6) 0.9361(5)
H5_8 H 0.0033 0.6161 0.9049
C11_8 C 0.1030(7) 0.7844(6) 0.9704(5)
H8_8 H 0.1609 0.8231 0.9640
H9_8 H 0.264645 0.698861 0.674685
H10_8 H 0.353269 0.648193 0.72402
C6_8 C 0.9354(7) 0.0782(5) 0.7272(4)
H6_8 H 0.8877 0.6268 0.0003
C9_8 C 0.9497(7) 0.7376(5) 0.0392(5)
C12_8 C 0.8662(7) 0.7524(6) 0.0963(4)
H3_8 H 0.1027 0.0503 0.8174
C10_8 C 0.0344(7) 0.7962(6) 0.0273(5)
H7_8 H 0.0445 0.8433 0.0578
C2_8 C 0.9754(7) 0.9203(5) 0.7118(5)
H2_8 H 0.9206 0.9179 0.6773
C3_8 C 0.9991(7) 0.9970(5) 0.7457(4)
C8_8 C 0.9412(8) 0.6691(6) 0.9931(5)
loop_
_geom_bond_atom_site_label_1
_geom_bond_atom_site_label_2
_geom_bond_site_symmetry_1
_geom_bond_site_symmetry_2
O4 C12 1_555 1_555
O5 C12 1_555 1_555
C10 C9 1_555 1_555
H7 C10 1_555 1_555
C12 C9 1_555 1_555
Cd3 O4 1_555 1_555
O5 Cd3 1_555 1_555
Cd1 N1 1_555 1_555
N1 C1 1_555 1_555
N2 Cd1 1_555 1_555
O1 Cd1 1_555 1_555
O2 C6 1_555 1_555
O3 C6 1_555 1_555
C1 H1 1_555 1_555
C2 C1 1_555 1_555
H2 C2 1_555 1_555
C3 C2 1_555 1_555
C4 C3 1_555 1_555
H3 C4 1_555 1_555
C5 N1 1_555 1_555
H4 C5 1_555 1_555
C6 C3 1_555 1_555
C7 N2 1_555 1_555
H5 C7 1_555 1_555
C8 C7 1_555 1_555
C11 N2 1_555 1_555
H8 C11 1_555 1_555
Cd2 O2 1_555 1_555
O6 Cd1 1_555 1_555
O7 Cd1 1_555 1_555
O8 Cd1 1_555 1_555
O9 Cd1 1_555 1_555
O3 Cd2 1_555 1_555
C4 C5 1_555 1_555
O1 H9 1_555 1_555
O1 H10 1_555 1_555
Cd1_2 N1_2 1_555 1_555
N1_2 C1_2 1_555 1_555
N2_2 Cd1_2 1_555 1_555
O1_2 Cd1_2 1_555 1_555
C1_2 H1_2 1_555 1_555
H3_2 C4_2 1_555 1_555
C5_2 N1_2 1_555 1_555
H4_2 C5_2 1_555 1_555
C7_2 N2_2 1_555 1_555
H5_2 C7_2 1_555 1_555
H7_2 C10_2 1_555 1_555
C11_2 N2_2 1_555 1_555
H8_2 C11_2 1_555 1_555
O6_2 Cd1_2 1_555 1_555
O7_2 Cd1_2 1_555 1_555
O8_2 Cd1_2 1_555 1_555
O9_2 Cd1_2 1_555 1_555
C4_2 C5_2 1_555 1_555
C10_2 C11_2 1_555 1_555
O1_2 H9_2 1_555 1_555
O1_2 H10_2 1_555 1_555
O2_2 C6_2 1_555 1_555
O3_2 C6_2 1_555 1_555
O4_2 C12_2 1_555 1_555
O5_2 C12_2 1_555 1_555
H2_2 C2_2 1_555 1_555
C3_2 C2_2 1_555 1_555
C6_2 C3_2 1_555 1_555
H6_2 C8_2 1_555 1_555
C9_2 C8_2 1_555 1_555
C12_2 C9_2 1_555 1_555
Cd3 O2_2 1_555 1_555
Cd2 O4_2 1_555 1_555
O3_2 Cd3 1_555 1_555
O5_2 Cd2 1_555 1_555
O6 C6_3 1_555 1_555
O7 C6_3 1_555 1_555
Cd2 N1_3 1_555 1_555
N1_3 C1_3 1_555 1_555
N2_3 Cd2 1_555 1_555
O1_3 Cd2 1_555 1_555
O8_2 C12_3 1_555 1_555
O9_2 C12_3 1_555 1_555
C1_3 H1_3 1_555 1_555
C2_3 C1_3 1_555 1_555
H2_3 C2_3 1_555 1_555
C3_3 C2_3 1_555 1_555
C4_3 C3_3 1_555 1_555
C5_3 N1_3 1_555 1_555
H4_3 C5_3 1_555 1_555
C7_3 N2_3 1_555 1_555
H5_3 C7_3 1_555 1_555
C8_3 C7_3 1_555 1_555
H6_3 C8_3 1_555 1_555
C9_3 C8_3 1_555 1_555
C10_3 C9_3 1_555 1_555
H7_3 C10_3 1_555 1_555
C11_3 N2_3 1_555 1_555
H8_3 C11_3 1_555 1_555
C12_3 C9_3 1_555 1_555
C4_3 C5_3 1_555 1_555
C10_3 C11_3 1_555 1_555
O1_3 H9_3 1_555 1_555
O1_3 H10_3 1_555 1_555
O8 C12_4 1_555 1_555
O9 C12_4 1_555 1_555
C12_4 C9_4 1_555 1_555
O6_2 C6_4 1_555 1_555
O7_2 C6_4 1_555 1_555
Cd3 N1_4 1_555 1_555
N1_4 C1_4 1_555 1_555
N2_4 Cd3 1_555 1_555
O1_4 Cd3 1_555 1_555
C1_4 H1_4 1_555 1_555
C5_4 N1_4 1_555 1_555
H4_4 C5_4 1_555 1_555
C7_4 N2_4 1_555 1_555
H5_4 C7_4 1_555 1_555
C11_4 N2_4 1_555 1_555
H8_4 C11_4 1_555 1_555
C4_4 C5_4 1_555 1_555
O1_4 H9_4 1_555 1_555
O1_4 H10_4 1_555 1_555
H2_4 C2_4 1_555 1_555
C3_4 C2_4 1_555 1_555
H7_4 C10_4 1_555 1_555
Cd1_3 N1_5 1_555 1_555
N1_5 C1_5 1_555 1_555
N2_5 Cd1_3 1_555 1_555
O1_5 Cd1_3 1_555 1_555
O2_3 C6_5 1_555 1_555
O3_3 C6_5 1_555 1_555
C1_5 H1_5 1_555 1_555
C2_5 C1_5 1_555 1_555
H2_5 C2_5 1_555 1_555
C3_5 C2_5 1_555 1_555
C4_5 C3_5 1_555 1_555
H3_5 C4_5 1_555 1_555
C5_5 N1_5 1_555 1_555
H4_5 C5_5 1_555 1_555
C6_5 C3_5 1_555 1_555
C7_5 N2_5 1_555 1_555
H5_5 C7_5 1_555 1_555
C8_5 C7_5 1_555 1_555
C11_5 N2_5 1_555 1_555
H8_5 C11_5 1_555 1_555
Cd2_2 O2_3 1_555 1_555
O6_3 Cd1_3 1_555 1_555
O7_3 Cd1_3 1_555 1_555
O8_3 Cd1_3 1_555 1_555
O9_3 Cd1_3 1_555 1_555
O3_3 Cd2_2 1_555 1_555
C4_5 C5_5 1_555 1_555
O1_5 H9_5 1_555 1_555
O1_5 H10_5 1_555 1_555
O4_3 C12_5 1_555 1_555
O5_3 C12_5 1_555 1_555
C10_5 C9_5 1_555 1_555
H7_5 C10_5 1_555 1_555
C12_5 C9_5 1_555 1_555
Cd3_2 O4_3 1_555 1_555
O5_3 Cd3_2 1_555 1_555
O2_4 C6_6 1_555 1_555
O3_4 C6_6 1_555 1_555
O4_4 C12_6 1_555 1_555
O5_4 C12_6 1_555 1_555
H2_6 C2_6 1_555 1_555
C3_6 C2_6 1_555 1_555
C6_6 C3_6 1_555 1_555
H6_6 C8_6 1_555 1_555
C9_6 C8_6 1_555 1_555
C12_6 C9_6 1_555 1_555
Cd3_2 O2_4 1_555 1_555
Cd2_2 O4_4 1_555 1_555
O3_4 Cd3_2 1_555 1_555
O5_4 Cd2_2 1_555 1_555
Cd1_4 N1_6 1_555 1_555
N1_6 C1_6 1_555 1_555
N2_6 Cd1_4 1_555 1_555
O1_6 Cd1_4 1_555 1_555
C1_6 H1_6 1_555 1_555
H3_6 C4_6 1_555 1_555
C5_6 N1_6 1_555 1_555
H4_6 C5_6 1_555 1_555
C7_6 N2_6 1_555 1_555
H5_6 C7_6 1_555 1_555
H7_6 C10_6 1_555 1_555
C11_6 N2_6 1_555 1_555
H8_6 C11_6 1_555 1_555
O6_4 Cd1_4 1_555 1_555
O7_4 Cd1_4 1_555 1_555
O8_4 Cd1_4 1_555 1_555
O9_4 Cd1_4 1_555 1_555
C4_6 C5_6 1_555 1_555
C10_6 C11_6 1_555 1_555
O1_6 H9_6 1_555 1_555
O1_6 H10_6 1_555 1_555
Cd2_2 N1_7 1_555 1_555
N1_7 C1_7 1_555 1_555
N2_7 Cd2_2 1_555 1_555
O1_7 Cd2_2 1_555 1_555
O8_4 C12_7 1_555 1_555
O9_4 C12_7 1_555 1_555
C1_7 H1_7 1_555 1_555
C2_7 C1_7 1_555 1_555
H2_7 C2_7 1_555 1_555
C3_7 C2_7 1_555 1_555
C4_7 C3_7 1_555 1_555
C5_7 N1_7 1_555 1_555
H4_7 C5_7 1_555 1_555
C7_7 N2_7 1_555 1_555
H5_7 C7_7 1_555 1_555
C8_7 C7_7 1_555 1_555
H6_7 C8_7 1_555 1_555
C9_7 C8_7 1_555 1_555
C10_7 C9_7 1_555 1_555
H7_7 C10_7 1_555 1_555
C11_7 N2_7 1_555 1_555
H8_7 C11_7 1_555 1_555
C12_7 C9_7 1_555 1_555
C4_7 C5_7 1_555 1_555
C10_7 C11_7 1_555 1_555
O1_7 H9_7 1_555 1_555
O1_7 H10_7 1_555 1_555
O6_3 C6_7 1_555 1_555
O7_3 C6_7 1_555 1_555
Cd3_2 N1_8 1_555 1_555
N1_8 C1_8 1_555 1_555
N2_8 Cd3_2 1_555 1_555
O1_8 Cd3_2 1_555 1_555
C1_8 H1_8 1_555 1_555
C5_8 N1_8 1_555 1_555
H4_8 C5_8 1_555 1_555
C7_8 N2_8 1_555 1_555
H5_8 C7_8 1_555 1_555
C11_8 N2_8 1_555 1_555
H8_8 C11_8 1_555 1_555
C4_8 C5_8 1_555 1_555
O1_8 H9_8 1_555 1_555
O1_8 H10_8 1_555 1_555
O6_4 C6_8 1_555 1_555
O7_4 C6_8 1_555 1_555
O8_3 C12_8 1_555 1_555
O9_3 C12_8 1_555 1_555
C12_8 C9_8 1_555 1_555
H7_8 C10_8 1_555 1_555
H2_8 C2_8 1_555 1_555
C3_8 C2_8 1_555 1_555

#END
