
###############################################################################
#
# This file contains modified crystal structure data generated from the
# MOF subset of the Cambridge Structural Database (CSD) v543 
# hosted by the Cambridge Crystallographic Data Centre (CCDC).
#
# This work is licensed under the Creative Commons
# Attribution-NonCommercial-ShareAlike 4.0 International License.
# To view a copy of this license, visit
# http://creativecommons.org/licenses/by-nc-sa/4.0/
# or send a letter to
# Creative Commons, PO Box 1866, Mountain View, CA 94042, USA.
#
# CIF created using the CSD Python API on 29 September 2022
# The structure has been converted into the P1 space group
# The structure has a 3D framework
# The original CSD entry ECODIK is in the monoclinic crystal system
# The framework has been calculated to contain at least 10.0% void space
# The void calculation uses a probe of radius 1.32A, grid spacing 0.4
#
###############################################################################

data_ECODIK
_chemical_formula_moiety         '(C56 H52 Cu8 N8 O21)n'
_symmetry_cell_setting           triclinic
_symmetry_space_group_name_H-M   'P 1'
_symmetry_Int_Tables_number      1
_space_group_name_Hall           'P 1'
loop_
_symmetry_equiv_pos_site_id
_symmetry_equiv_pos_as_xyz
1 x,y,z
_cell_length_a                   12.389(7)
_cell_length_b                   14.146(9)
_cell_length_c                   13.259(7)
_cell_angle_alpha                90
_cell_angle_beta                 112.676(10)
_cell_angle_gamma                90
_cell_volume                     2144.08
loop_
_atom_site_label
_atom_site_type_symbol
_atom_site_fract_x
_atom_site_fract_y
_atom_site_fract_z
Cu6 Cu 0.33534(3) 0.09262(2) 0.07841(3)
Cu2 Cu 0.47371(3) 0.06816(2) 0.90709(3)
N1 N 0.3447(2) 0.16046(15) 0.83864(19)
C1 C 0.3618(3) 0.2526(2) 0.8701(3)
H1 H 0.4333 0.2699 0.9237
C2 C 0.2792(3) 0.3204(2) 0.8266(3)
H2 H 0.2939 0.3825 0.8511
C3 C 0.1744(3) 0.2964(2) 0.7466(2)
C4 C 0.1554(3) 0.2025(2) 0.7145(3)
H3 H 0.0845 0.1836 0.6611
C5 C 0.2434(3) 0.1375(2) 0.7630(3)
H4 H 0.2301 0.0747 0.7411
C6 C 0.0801(2) 0.37056(19) 0.6948(2)
O2 O 0.10141(18) 0.45367(12) 0.71921(15)
Cu7 Cu 0.02629(3) 0.56816(2) 0.59291(3)
N4 N 0.1553(2) 0.66046(15) 0.66136(19)
O13 O 0.56923(17) 0.14028(13) 0.85174(16)
O14 O 0.39141(15) 0.00653(12) 0.99302(14)
O17 O 0.10859(15) 0.50653(12) 0.50698(14)
Cu11 Cu 0.52629(3) 0.93184(2) 0.09291(3)
O15 O 0.60859(15) 0.99347(12) 0.00698(14)
Cu5 Cu 0.66466(3) 0.90738(2) 0.92159(3)
C15 C 0.1382(3) 0.7526(2) 0.6299(3)
H14 H 0.0667 0.7699 0.5763
C16 C 0.2208(3) 0.8204(2) 0.6734(3)
H15 H 0.2061 0.8825 0.6489
C17 C 0.3256(3) 0.7964(2) 0.7534(2)
C18 C 0.3446(3) 0.7025(2) 0.7855(3)
H16 H 0.4155 0.6836 0.8389
C19 C 0.2566(3) 0.6375(2) 0.7370(3)
H17 H 0.2699 0.5747 0.7589
C20 C 0.4199(2) 0.87056(19) 0.8052(2)
O7 O 0.51664(17) 0.83841(13) 0.87684(16)
O9 O 0.39859(18) 0.95367(12) 0.78079(15)
O11 O 0.66580(19) 0.02242(13) 0.80975(17)
C28 C 0.8854(10) 0.9977(6) 0.0871(7)
H26 H 0.9351 0.9696 0.1561
O18 O 0.8312(2) 0.92616(19) 0.0199(2)
Cu1 Cu 0.83534(3) 0.40738(2) 0.57841(3)
O1 O 0.98336(17) 0.33841(13) 0.62316(16)
N2 N 0.7790(2) 0.31184(15) 0.65670(19)
C7 C 0.7074(3) 0.3363(2) 0.7046(3)
H5 H 0.6868 0.3997 0.7030
C8 C 0.6613(3) 0.2734(2) 0.7569(2)
H6 H 0.6129 0.2945 0.7911
C9 C 0.6882(3) 0.1792(2) 0.7577(2)
C10 C 0.7619(3) 0.1524(2) 0.7062(3)
H7 H 0.7823 0.0893 0.7048
C11 C 0.8042(3) 0.2202(2) 0.6574(3)
H8 H 0.8532 0.2013 0.6229
C12 C 0.6383(3) 0.1061(2) 0.8103(2)
O5 O 0.89141(15) 0.49347(12) 0.49302(14)
C13 C 0.6772(3) 0.5705(3) 0.3885(3)
H9 H 0.6242 0.6099 0.3321
H10 H 0.7339 0.5438 0.3638
H11 H 0.7163 0.6077 0.4528
C14 C 0.6146(10) 0.4977(6) 0.4129(7)
H12 H 0.5631 0.5272 0.4431
H13 H 0.5649 0.4696 0.3439
O6 O 0.6688(2) 0.42616(19) 0.4801(2)
Cu9 Cu 0.97371(3) 0.43184(2) 0.40709(3)
N5 N 0.7210(2) 0.81184(15) 0.84330(19)
C21 C 0.7926(3) 0.8363(2) 0.7954(3)
H18 H 0.8132 0.8997 0.7970
C22 C 0.8387(3) 0.7734(2) 0.7431(2)
H19 H 0.8871 0.7945 0.7089
C23 C 0.8118(3) 0.6792(2) 0.7423(2)
C24 C 0.7381(3) 0.6524(2) 0.7938(3)
H20 H 0.7177 0.5893 0.7952
C25 C 0.6958(3) 0.7202(2) 0.8426(3)
H21 H 0.6468 0.7013 0.8771
C26 C 0.8617(3) 0.6061(2) 0.6897(2)
O10 O 0.83420(19) 0.52242(13) 0.69025(17)
O12 O 0.93077(17) 0.64028(13) 0.64826(16)
Cu6_2 Cu 0.16466(3) 0.59262(2) 0.42159(3)
O1_2 O 0.01664(17) 0.66159(13) 0.37684(16)
N2_2 N 0.2210(2) 0.68816(15) 0.34330(19)
C7_2 C 0.2926(3) 0.6637(2) 0.2954(3)
H5_2 H 0.3132 0.6003 0.2970
C8_2 C 0.3387(3) 0.7266(2) 0.2431(2)
H6_2 H 0.3871 0.7055 0.2089
C9_2 C 0.3118(3) 0.8208(2) 0.2423(2)
C10_2 C 0.2381(3) 0.8476(2) 0.2938(3)
H7_2 H 0.2177 0.9107 0.2952
C11_2 C 0.1958(3) 0.7798(2) 0.3426(3)
H8_2 H 0.1468 0.7987 0.3771
C12_2 C 0.3617(3) 0.8939(2) 0.1897(2)
O3 O 0.33420(19) 0.97758(13) 0.19025(17)
O4 O 0.43077(17) 0.85972(13) 0.14826(16)
C13_2 C 0.3228(3) 0.4295(3) 0.6115(3)
H9_2 H 0.3758 0.3901 0.6679
H10_2 H 0.2661 0.4562 0.6362
H11_2 H 0.2837 0.3923 0.5472
C14_2 C 0.3854(10) 0.5023(6) 0.5871(7)
H12_2 H 0.4369 0.4728 0.5569
H13_2 H 0.4351 0.5304 0.6561
O6_2 O 0.3312(2) 0.57384(19) 0.5199(2)
O8 O 0.48336(17) 0.16159(13) 0.12316(16)
N5_2 N 0.2790(2) 0.18816(15) 0.15670(19)
C21_2 C 0.2074(3) 0.1637(2) 0.2046(3)
H18_2 H 0.1868 0.1003 0.2030
C22_2 C 0.1613(3) 0.2266(2) 0.2569(2)
H19_2 H 0.1129 0.2055 0.2911
C23_2 C 0.1882(3) 0.3208(2) 0.2577(2)
C24_2 C 0.2619(3) 0.3476(2) 0.2062(3)
H20_2 H 0.2823 0.4107 0.2048
C25_2 C 0.3042(3) 0.2798(2) 0.1574(3)
H21_2 H 0.3532 0.2987 0.1229
C26_2 C 0.1383(3) 0.3939(2) 0.3103(2)
O10_2 O 0.16580(19) 0.47758(13) 0.30975(17)
O12_2 O 0.06923(17) 0.35972(13) 0.35174(16)
C28_2 C 0.1146(10) 0.0023(6) 0.9129(7)
H26_2 H 0.0649 0.0304 0.8439
O18_2 O 0.1688(2) 0.07384(19) 0.9801(2)
N3 N 0.8447(2) 0.33954(15) 0.33864(19)
C15_2 C 0.8618(3) 0.2474(2) 0.3701(3)
H14_2 H 0.9333 0.2301 0.4237
C16_2 C 0.7792(3) 0.1796(2) 0.3266(3)
H15_2 H 0.7939 0.1175 0.3511
C17_2 C 0.6744(3) 0.2036(2) 0.2466(2)
C18_2 C 0.6554(3) 0.2975(2) 0.2145(3)
H16_2 H 0.5845 0.3164 0.1611
C19_2 C 0.7434(3) 0.3625(2) 0.2630(3)
H17_2 H 0.7301 0.4253 0.2411
C20_2 C 0.5801(2) 0.12944(19) 0.1948(2)
O9_2 O 0.60141(18) 0.04633(12) 0.21921(15)
N1_2 N 0.6553(2) 0.83954(15) 0.16136(19)
C1_2 C 0.6382(3) 0.7474(2) 0.1299(3)
H1_2 H 0.5667 0.7301 0.0763
C2_2 C 0.7208(3) 0.6796(2) 0.1734(3)
H2_2 H 0.7061 0.6175 0.1489
C3_2 C 0.8256(3) 0.7036(2) 0.2534(2)
C4_2 C 0.8446(3) 0.7975(2) 0.2855(3)
H3_2 H 0.9155 0.8164 0.3389
C5_2 C 0.7566(3) 0.8625(2) 0.2370(3)
H4_2 H 0.7699 0.9253 0.2589
C6_2 C 0.9199(2) 0.62944(19) 0.3052(2)
O2_2 O 0.89859(18) 0.54633(12) 0.28079(15)
C27 C 0.8228(3) 0.0705(3) 0.1115(3)
H22 H 0.8758 0.1099 0.1679
H23 H 0.7661 0.0438 0.1362
H24 H 0.7837 0.1077 0.0472
H25 H 0.9369 0.0272 0.0569
C27_2 C 0.1772(3) 0.9295(3) 0.8885(3)
H22_2 H 0.1242 0.8901 0.8321
H23_2 H 0.2339 0.9562 0.8638
H24_2 H 0.2163 0.8923 0.9528
H25_2 H 0.0631 0.9728 0.9431
loop_
_geom_bond_atom_site_label_1
_geom_bond_atom_site_label_2
_geom_bond_site_symmetry_1
_geom_bond_site_symmetry_2
Cu2 N1 1_555 1_555
N1 C1 1_555 1_555
C1 H1 1_555 1_555
C2 C1 1_555 1_555
H2 C2 1_555 1_555
C3 C2 1_555 1_555
C4 C3 1_555 1_555
H3 C4 1_555 1_555
C5 N1 1_555 1_555
H4 C5 1_555 1_555
C6 C3 1_555 1_555
O2 C6 1_555 1_555
Cu7 O2 1_555 1_555
N4 Cu7 1_555 1_555
O13 Cu2 1_555 1_555
O14 Cu2 1_555 1_555
O17 Cu7 1_555 1_555
C4 C5 1_555 1_555
Cu11 O15 1_555 1_555
Cu5 O7 1_555 1_555
N4 C15 1_555 1_555
C15 H14 1_555 1_555
C16 C15 1_555 1_555
H15 C16 1_555 1_555
C17 C16 1_555 1_555
C18 C17 1_555 1_555
H16 C18 1_555 1_555
C19 N4 1_555 1_555
H17 C19 1_555 1_555
C20 C17 1_555 1_555
O7 C20 1_555 1_555
C18 C19 1_555 1_555
C20 O9 1_555 1_555
H26 C28 1_555 1_555
C28 O18 1_555 1_555
Cu1 O1 1_555 1_555
N2 Cu1 1_555 1_555
C7 N2 1_555 1_555
H5 C7 1_555 1_555
C8 C7 1_555 1_555
H6 C8 1_555 1_555
C9 C8 1_555 1_555
C10 C9 1_555 1_555
H7 C10 1_555 1_555
C11 N2 1_555 1_555
H8 C11 1_555 1_555
C12 C9 1_555 1_555
O11 C12 1_555 1_555
O13 C12 1_555 1_555
O5 Cu1 1_555 1_555
C13 H9 1_555 1_555
H10 C13 1_555 1_555
H11 C13 1_555 1_555
C14 C13 1_555 1_555
H12 C14 1_555 1_555
H13 C14 1_555 1_555
O6 Cu1 1_555 1_555
Cu9 O5 1_555 1_555
N5 Cu5 1_555 1_555
C21 N5 1_555 1_555
H18 C21 1_555 1_555
C22 C21 1_555 1_555
H19 C22 1_555 1_555
C23 C22 1_555 1_555
C24 C23 1_555 1_555
H20 C24 1_555 1_555
C25 N5 1_555 1_555
H21 C25 1_555 1_555
C26 C23 1_555 1_555
O10 Cu1 1_555 1_555
C10 C11 1_555 1_555
C14 O6 1_555 1_555
C24 C25 1_555 1_555
C26 O10 1_555 1_555
C26 O12 1_555 1_555
Cu6_2 O17 1_555 1_555
Cu6_2 O1_2 1_555 1_555
N2_2 Cu6_2 1_555 1_555
C7_2 N2_2 1_555 1_555
H5_2 C7_2 1_555 1_555
C8_2 C7_2 1_555 1_555
H6_2 C8_2 1_555 1_555
C9_2 C8_2 1_555 1_555
C10_2 C9_2 1_555 1_555
H7_2 C10_2 1_555 1_555
C11_2 N2_2 1_555 1_555
H8_2 C11_2 1_555 1_555
C12_2 C9_2 1_555 1_555
O3 C12_2 1_555 1_555
O4 C12_2 1_555 1_555
C13_2 H9_2 1_555 1_555
H10_2 C13_2 1_555 1_555
H11_2 C13_2 1_555 1_555
C14_2 C13_2 1_555 1_555
H12_2 C14_2 1_555 1_555
H13_2 C14_2 1_555 1_555
O6_2 Cu6_2 1_555 1_555
Cu6 O8 1_555 1_555
Cu11 O4 1_555 1_555
N5_2 Cu6 1_555 1_555
C21_2 N5_2 1_555 1_555
H18_2 C21_2 1_555 1_555
C22_2 C21_2 1_555 1_555
H19_2 C22_2 1_555 1_555
C23_2 C22_2 1_555 1_555
C24_2 C23_2 1_555 1_555
H20_2 C24_2 1_555 1_555
C25_2 N5_2 1_555 1_555
H21_2 C25_2 1_555 1_555
C26_2 C23_2 1_555 1_555
O10_2 Cu6_2 1_555 1_555
C10_2 C11_2 1_555 1_555
C14_2 O6_2 1_555 1_555
C24_2 C25_2 1_555 1_555
C26_2 O10_2 1_555 1_555
C26_2 O12_2 1_555 1_555
H26_2 C28_2 1_555 1_555
C28_2 O18_2 1_555 1_555
Cu9 N3 1_555 1_555
N3 C15_2 1_555 1_555
C15_2 H14_2 1_555 1_555
C16_2 C15_2 1_555 1_555
H15_2 C16_2 1_555 1_555
C17_2 C16_2 1_555 1_555
C18_2 C17_2 1_555 1_555
H16_2 C18_2 1_555 1_555
C19_2 N3 1_555 1_555
H17_2 C19_2 1_555 1_555
C20_2 C17_2 1_555 1_555
O8 C20_2 1_555 1_555
C18_2 C19_2 1_555 1_555
C20_2 O9_2 1_555 1_555
Cu11 N1_2 1_555 1_555
N1_2 C1_2 1_555 1_555
C1_2 H1_2 1_555 1_555
C2_2 C1_2 1_555 1_555
H2_2 C2_2 1_555 1_555
C3_2 C2_2 1_555 1_555
C4_2 C3_2 1_555 1_555
H3_2 C4_2 1_555 1_555
C5_2 N1_2 1_555 1_555
H4_2 C5_2 1_555 1_555
C6_2 C3_2 1_555 1_555
O2_2 C6_2 1_555 1_555
Cu9 O2_2 1_555 1_555
C4_2 C5_2 1_555 1_555
C27 H22 1_555 1_555
H23 C27 1_555 1_555
H24 C27 1_555 1_555
C27_2 H22_2 1_555 1_555
H23_2 C27_2 1_555 1_555
H24_2 C27_2 1_555 1_555

#END
