
###############################################################################
#
# This file contains modified crystal structure data generated from the
# MOF subset of the Cambridge Structural Database (CSD) v543 
# hosted by the Cambridge Crystallographic Data Centre (CCDC).
#
# This work is licensed under the Creative Commons
# Attribution-NonCommercial-ShareAlike 4.0 International License.
# To view a copy of this license, visit
# http://creativecommons.org/licenses/by-nc-sa/4.0/
# or send a letter to
# Creative Commons, PO Box 1866, Mountain View, CA 94042, USA.
#
# CIF created using the CSD Python API on 29 September 2022
# The structure has been converted into the P1 space group
# The structure has a 3D framework
# The original CSD entry ECOKAJ is in the cubic crystal system
# The original CSD entry ECOKAJ is in a Sohncke space group
# The framework has been calculated to contain at least 10.0% void space
# The void calculation uses a probe of radius 1.32A, grid spacing 0.4
# H atom positions have been added when not included in the experimental data
# Generated hydrogen atom positions removed from atoms on special positions
#
###############################################################################

data_ECOKAJ
_chemical_formula_moiety         '(C216 H120 N56 O56 Zn10)n'
_symmetry_cell_setting           triclinic
_symmetry_space_group_name_H-M   'P 1'
_symmetry_Int_Tables_number      1
_space_group_name_Hall           'P 1'
loop_
_symmetry_equiv_pos_site_id
_symmetry_equiv_pos_as_xyz
1 x,y,z
_cell_length_a                   29.497(2)
_cell_length_b                   29.497(2)
_cell_length_c                   29.497(2)
_cell_angle_alpha                90
_cell_angle_beta                 90
_cell_angle_gamma                90
_cell_volume                     25664.5
loop_
_atom_site_label
_atom_site_type_symbol
_atom_site_fract_x
_atom_site_fract_y
_atom_site_fract_z
H28 H 0.0127345 0.504987 0.468159
H24 H 0.1805 0.1730 0.0141
C44 C 0.1277(3) 0.1035(3) 0.0231(3)
O8 O 0.10394(13) 0.06887(13) 0.01573(12)
O16 O 0.12618(19) 0.12913(16) 0.06235(13)
Zn6 Zn 0.1250 0.1250 0.1250
Zn10 Zn 0.055063(18) 0.055063(18) 0.055063(18)
C12 C 0.3868(4) 0.0123(3) 0.6628(2)
C13 C 0.4877(3) 0.3372(2) 0.8868(4)
C14 C 0.1628(2) 0.1132(4) 0.9877(3)
C17 C 0.4174(3) 0.0478(4) 0.6742(3)
C18 C 0.4522(4) 0.3258(3) 0.9174(3)
C19 C 0.1742(3) 0.0826(3) 0.9522(4)
H7 H 0.4449 0.0507 0.6590
H8 H 0.4493 0.3410 0.9449
H9 H 0.1590 0.0551 0.9493
C22 C 0.4057(4) 0.0781(3) 0.7085(4)
C23 C 0.4219(3) 0.2915(4) 0.9057(4)
C24 C 0.2085(4) 0.0943(4) 0.9219(3)
H12 H 0.4241 0.1028 0.7151
H13 H 0.3972 0.2849 0.9241
H14 H 0.2151 0.0759 0.8972
C27 C 0.3626(5) 0.0702(4) 0.7346(2)
C28 C 0.4298(4) 0.2654(2) 0.8626(5)
C29 C 0.2346(2) 0.1374(5) 0.9298(4)
C32 C 0.3349(3) 0.0363(4) 0.7219(4)
C33 C 0.4637(4) 0.2781(4) 0.8349(3)
C34 C 0.2219(4) 0.1651(3) 0.9637(4)
H17 H 0.3074 0.0320 0.7366
H18 H 0.4680 0.2634 0.8074
H19 H 0.2366 0.1926 0.9680
C37 C 0.3469(3) 0.0091(3) 0.6880(4)
C38 C 0.4909(3) 0.3120(4) 0.8469(3)
C39 C 0.1880(4) 0.1531(3) 0.9909(3)
H23 H 0.5141 0.3195 0.8270
C43 C 0.5231(3) 0.3723(3) 0.8965(3)
C47 C 0.3555(5) 0.1042(3) 0.7764(4)
C48 C 0.3958(3) 0.2236(4) 0.8555(5)
C49 C 0.2764(4) 0.1445(5) 0.8958(3)
C52 C 0.3751(3) 0.1649(5) 0.8161(3)
C53 C 0.3351(5) 0.1839(3) 0.8751(3)
C54 C 0.3161(3) 0.1249(3) 0.8351(5)
N6 N 0.3857(2) 0.1385(3) 0.7795(3)
N7 N 0.3615(3) 0.2205(3) 0.8857(2)
N8 N 0.2795(3) 0.1143(2) 0.8615(3)
N11 N 0.3204(3) 0.09461(17) 0.8002(4)
N12 N 0.40539(17) 0.1998(4) 0.8204(3)
N13 N 0.3002(4) 0.1796(3) 0.90539(17)
N14 N 0.34243(14) 0.15757(14) 0.84243(14)
O7 O 0.51573(12) 0.39606(13) 0.93113(13)
O15 O 0.56235(13) 0.37382(19) 0.87087(16)
Zn5 Zn 0.6250 0.3750 0.8750
Zn9 Zn 0.555063(18) 0.444937(18) 0.944937(18)
H26 H 0.468159 0.0127345 0.504987
C1 C 0.5123(3) 0.8372(2) 0.6132(4)
C2 C 0.5478(4) 0.8258(3) 0.5826(3)
H1 H 0.5507 0.8410 0.5551
C3 C 0.5781(3) 0.7915(4) 0.5943(4)
H2 H 0.6028 0.7849 0.5759
C4 C 0.5702(4) 0.7654(2) 0.6374(5)
C5 C 0.5363(4) 0.7781(4) 0.6651(3)
H3 H 0.5320 0.7634 0.6926
C6 C 0.5091(3) 0.8120(4) 0.6531(3)
H4 H 0.4859 0.8195 0.6730
C7 C 0.4769(3) 0.8723(3) 0.6035(3)
C8 C 0.6042(3) 0.7236(4) 0.6445(5)
C9 C 0.6649(5) 0.6839(3) 0.6249(3)
N1 N 0.6385(3) 0.7205(3) 0.6143(2)
N2 N 0.59461(17) 0.6998(4) 0.6796(3)
N3 N 0.65757(14) 0.65757(14) 0.65757(14)
O1 O 0.48427(12) 0.89606(13) 0.56887(13)
O2 O 0.43765(13) 0.87382(19) 0.62913(16)
O3 O 0.48549(10) 0.98549(10) 0.51451(10)
Zn1 Zn 0.3750 0.8750 0.6250
Zn2 Zn 0.444937(18) 0.944937(18) 0.555063(18)
C10 C 0.8372(2) 0.6132(4) 0.5123(3)
C11 C 0.6132(4) 0.5123(3) 0.8372(2)
C15 C 0.8258(3) 0.5826(3) 0.5478(4)
C16 C 0.5826(3) 0.5478(4) 0.8258(3)
H5 H 0.8410 0.5551 0.5507
H6 H 0.5551 0.5507 0.8410
C20 C 0.7915(4) 0.5943(4) 0.5781(3)
C21 C 0.5943(4) 0.5781(3) 0.7915(4)
H10 H 0.7849 0.5759 0.6028
H11 H 0.5759 0.6028 0.7849
C25 C 0.7654(2) 0.6374(5) 0.5702(4)
C26 C 0.6374(5) 0.5702(4) 0.7654(2)
C30 C 0.7781(4) 0.6651(3) 0.5363(4)
C31 C 0.6651(3) 0.5363(4) 0.7781(4)
H15 H 0.7634 0.6926 0.5320
H16 H 0.6926 0.5320 0.7634
C35 C 0.8120(4) 0.6531(3) 0.5091(3)
C36 C 0.6531(3) 0.5091(3) 0.8120(4)
H20 H 0.8195 0.6730 0.4859
H21 H 0.6730 0.4859 0.8195
H22 H 0.3270 0.9859 0.6805
C40 C 0.8723(3) 0.6035(3) 0.4769(3)
C41 C 0.6035(3) 0.4769(3) 0.8723(3)
C42 C 0.3965(3) 0.9769(3) 0.6277(3)
C45 C 0.7236(4) 0.6445(5) 0.6042(3)
C46 C 0.6445(5) 0.6042(3) 0.7236(4)
C50 C 0.6839(3) 0.6249(3) 0.6649(5)
C51 C 0.6249(3) 0.6649(5) 0.6839(3)
N4 N 0.7205(3) 0.6143(2) 0.6385(3)
N5 N 0.6143(2) 0.6385(3) 0.7205(3)
N9 N 0.6998(4) 0.6796(3) 0.59461(17)
N10 N 0.6796(3) 0.59461(17) 0.6998(4)
O4 O 0.89606(13) 0.56887(13) 0.48427(12)
O5 O 0.56887(13) 0.48427(12) 0.89606(13)
O6 O 0.43113(13) 0.98427(12) 0.60394(13)
O9 O 0.39606(13) 0.93113(13) 0.51573(12)
O10 O 0.98427(12) 0.60394(13) 0.43113(13)
O11 O 0.93113(13) 0.51573(12) 0.39606(13)
O12 O 0.87382(19) 0.62913(16) 0.43765(13)
O13 O 0.62913(16) 0.43765(13) 0.87382(19)
O14 O 0.37087(16) 0.93765(13) 0.62618(19)
O17 O 0.37382(19) 0.87087(16) 0.56235(13)
O18 O 0.37618(19) 0.81235(13) 0.62087(16)
O19 O 0.31235(13) 0.87913(16) 0.62382(19)
O20 O 0.37913(16) 0.87618(19) 0.68765(13)
O21 O 0.98549(10) 0.51451(10) 0.48549(10)
Zn3 Zn 0.8750 0.6250 0.3750
Zn7 Zn 0.944937(18) 0.555063(18) 0.444937(18)
H25 H 0.495013 0.968159 0.487266
H27 H 0.968159 0.487266 0.495013
H4_2 H 0.0141 0.1805 0.1730
C7_2 C 0.0231(3) 0.1277(3) 0.1035(3)
O1_2 O 0.01573(12) 0.10394(13) 0.06887(13)
O2_2 O 0.06235(13) 0.12618(19) 0.12913(16)
O3_2 O 0.01451(10) 0.01451(10) 0.01451(10)
H22_2 H 0.1730 0.0141 0.1805
C42_2 C 0.1035(3) 0.0231(3) 0.1277(3)
O6_2 O 0.06887(13) 0.01573(12) 0.10394(13)
O14_2 O 0.12913(16) 0.06235(13) 0.12618(19)
O18_2 O 0.12382(19) 0.18765(13) 0.12087(16)
O19_2 O 0.18765(13) 0.12087(16) 0.12382(19)
O20_2 O 0.12087(16) 0.12382(19) 0.18765(13)
H25_2 H 0.0049875 0.0318408 0.987266
C12_2 C 0.1132(4) 0.9877(3) 0.1628(2)
C13_2 C 0.0123(3) 0.6628(2) 0.3868(4)
C14_2 C 0.3372(2) 0.8868(4) 0.4877(3)
C17_2 C 0.0826(3) 0.9522(4) 0.1742(3)
C18_2 C 0.0478(4) 0.6742(3) 0.4174(3)
C19_2 C 0.3258(3) 0.9174(3) 0.4522(4)
H7_2 H 0.0551 0.9493 0.1590
H8_2 H 0.0507 0.6590 0.4449
H9_2 H 0.3410 0.9449 0.4493
C22_2 C 0.0943(4) 0.9219(3) 0.2085(4)
C23_2 C 0.0781(3) 0.7085(4) 0.4057(4)
C24_2 C 0.2915(4) 0.9057(4) 0.4219(3)
H12_2 H 0.0759 0.8972 0.2151
H13_2 H 0.1028 0.7151 0.4241
H14_2 H 0.2849 0.9241 0.3972
C27_2 C 0.1374(5) 0.9298(4) 0.2346(2)
C28_2 C 0.0702(4) 0.7346(2) 0.3626(5)
C29_2 C 0.2654(2) 0.8626(5) 0.4298(4)
C32_2 C 0.1651(3) 0.9637(4) 0.2219(4)
C33_2 C 0.0363(4) 0.7219(4) 0.3349(3)
C34_2 C 0.2781(4) 0.8349(3) 0.4637(4)
H17_2 H 0.1926 0.9680 0.2366
H18_2 H 0.0320 0.7366 0.3074
H19_2 H 0.2634 0.8074 0.4680
C37_2 C 0.1531(3) 0.9909(3) 0.1880(4)
C38_2 C 0.0091(3) 0.6880(4) 0.3469(3)
C39_2 C 0.3120(4) 0.8469(3) 0.4909(3)
H24_2 H 0.3195 0.8270 0.5141
C44_2 C 0.3723(3) 0.8965(3) 0.5231(3)
C47_2 C 0.1445(5) 0.8958(3) 0.2764(4)
C48_2 C 0.1042(3) 0.7764(4) 0.3555(5)
C49_2 C 0.2236(4) 0.8555(5) 0.3958(3)
C52_2 C 0.1249(3) 0.8351(5) 0.3161(3)
C53_2 C 0.1649(5) 0.8161(3) 0.3751(3)
C54_2 C 0.1839(3) 0.8751(3) 0.3351(5)
N6_2 N 0.1143(2) 0.8615(3) 0.2795(3)
N7_2 N 0.1385(3) 0.7795(3) 0.3857(2)
N8_2 N 0.2205(3) 0.8857(2) 0.3615(3)
N11_2 N 0.1796(3) 0.90539(17) 0.3002(4)
N12_2 N 0.09461(17) 0.8002(4) 0.3204(3)
N13_2 N 0.1998(4) 0.8204(3) 0.40539(17)
N14_2 N 0.15757(14) 0.84243(14) 0.34243(14)
H26_2 H 0.0318408 0.987266 0.0049875
C1_2 C 0.9877(3) 0.1628(2) 0.1132(4)
C2_2 C 0.9522(4) 0.1742(3) 0.0826(3)
H1_2 H 0.9493 0.1590 0.0551
C3_2 C 0.9219(3) 0.2085(4) 0.0943(4)
H2_2 H 0.8972 0.2151 0.0759
C4_2 C 0.9298(4) 0.2346(2) 0.1374(5)
C5_2 C 0.9637(4) 0.2219(4) 0.1651(3)
H3_2 H 0.9680 0.2366 0.1926
C6_2 C 0.9909(3) 0.1880(4) 0.1531(3)
C8_2 C 0.8958(3) 0.2764(4) 0.1445(5)
C9_2 C 0.8351(5) 0.3161(3) 0.1249(3)
N1_2 N 0.8615(3) 0.2795(3) 0.1143(2)
N2_2 N 0.90539(17) 0.3002(4) 0.1796(3)
N3_2 N 0.84243(14) 0.34243(14) 0.15757(14)
C10_2 C 0.6628(2) 0.3868(4) 0.0123(3)
C11_2 C 0.8868(4) 0.4877(3) 0.3372(2)
C15_2 C 0.6742(3) 0.4174(3) 0.0478(4)
C16_2 C 0.9174(3) 0.4522(4) 0.3258(3)
H5_2 H 0.6590 0.4449 0.0507
H6_2 H 0.9449 0.4493 0.3410
C20_2 C 0.7085(4) 0.4057(4) 0.0781(3)
C21_2 C 0.9057(4) 0.4219(3) 0.2915(4)
H10_2 H 0.7151 0.4241 0.1028
H11_2 H 0.9241 0.3972 0.2849
C25_2 C 0.7346(2) 0.3626(5) 0.0702(4)
C26_2 C 0.8626(5) 0.4298(4) 0.2654(2)
C30_2 C 0.7219(4) 0.3349(3) 0.0363(4)
C31_2 C 0.8349(3) 0.4637(4) 0.2781(4)
H15_2 H 0.7366 0.3074 0.0320
H16_2 H 0.8074 0.4680 0.2634
C35_2 C 0.6880(4) 0.3469(3) 0.0091(3)
C36_2 C 0.8469(3) 0.4909(3) 0.3120(4)
H21_2 H 0.8270 0.5141 0.3195
C41_2 C 0.8965(3) 0.5231(3) 0.3723(3)
C45_2 C 0.7764(4) 0.3555(5) 0.1042(3)
C46_2 C 0.8555(5) 0.3958(3) 0.2236(4)
C50_2 C 0.8161(3) 0.3751(3) 0.1649(5)
C51_2 C 0.8751(3) 0.3351(5) 0.1839(3)
N4_2 N 0.7795(3) 0.3857(2) 0.1385(3)
N5_2 N 0.8857(2) 0.3615(3) 0.2205(3)
N9_2 N 0.8002(4) 0.3204(3) 0.09461(17)
N10_2 N 0.8204(3) 0.40539(17) 0.1998(4)
O13_2 O 0.87087(16) 0.56235(13) 0.37382(19)
H20_2 H 0.6805 0.3270 0.9859
C40_2 C 0.6277(3) 0.3965(3) 0.9769(3)
O4_2 O 0.60394(13) 0.43113(13) 0.98427(12)
O12_2 O 0.62618(19) 0.37087(16) 0.93765(13)
O21_2 O 0.51451(10) 0.48549(10) 0.98549(10)
H27_2 H 0.531841 0.512734 0.995013
H28_2 H 0.487266 0.495013 0.968159
H23_2 H 0.9859 0.6805 0.3270
C43_2 C 0.9769(3) 0.6277(3) 0.3965(3)
O15_2 O 0.93765(13) 0.62618(19) 0.37087(16)
H25_3 H 0.504987 0.468159 0.0127345
O18_3 O 0.62382(19) 0.31235(13) 0.87913(16)
O19_3 O 0.68765(13) 0.37913(16) 0.87618(19)
O20_3 O 0.62087(16) 0.37618(19) 0.81235(13)
H28_3 H 0.987266 0.0049875 0.0318408
H28_4 H 0.512734 0.995013 0.531841
O18_4 O 0.87618(19) 0.68765(13) 0.37913(16)
O19_4 O 0.81235(13) 0.62087(16) 0.37618(19)
O20_4 O 0.87913(16) 0.62382(19) 0.31235(13)
H25_4 H 0.995013 0.531841 0.512734
C1_3 C 0.0872(2) 0.2623(3) 0.1368(4)
C2_3 C 0.0758(3) 0.2978(4) 0.1674(3)
H1_3 H 0.0910 0.3007 0.1949
C3_3 C 0.0415(4) 0.3281(3) 0.1557(4)
H2_3 H 0.0349 0.3528 0.1741
C4_3 C 0.0154(2) 0.3202(4) 0.1126(5)
C5_3 C 0.0281(4) 0.2863(4) 0.0849(3)
H3_3 H 0.0134 0.2820 0.0574
C6_3 C 0.0620(4) 0.2591(3) 0.0969(3)
H4_3 H 0.0695 0.2359 0.0770
C7_3 C 0.1223(3) 0.2269(3) 0.1465(3)
O1_3 O 0.14606(13) 0.23427(12) 0.18113(13)
O3_3 O 0.23549(10) 0.23549(10) 0.23549(10)
Zn2_2 Zn 0.194937(18) 0.194937(18) 0.194937(18)
C12_3 C 0.2623(3) 0.1368(4) 0.0872(2)
C17_3 C 0.2978(4) 0.1674(3) 0.0758(3)
H7_3 H 0.3007 0.1949 0.0910
C22_3 C 0.3281(3) 0.1557(4) 0.0415(4)
H12_3 H 0.3528 0.1741 0.0349
C27_3 C 0.3202(4) 0.1126(5) 0.0154(2)
C32_3 C 0.2863(4) 0.0849(3) 0.0281(4)
H17_3 H 0.2820 0.0574 0.0134
C37_3 C 0.2591(3) 0.0969(3) 0.0620(4)
H22_3 H 0.2359 0.0770 0.0695
C42_3 C 0.2269(3) 0.1465(3) 0.1223(3)
O6_3 O 0.23427(12) 0.18113(13) 0.14606(13)
O9_2 O 0.18113(13) 0.14606(13) 0.23427(12)
C13_3 C 0.5872(2) 0.2377(3) 0.8632(4)
C18_3 C 0.5758(3) 0.2022(4) 0.8326(3)
H8_3 H 0.5910 0.1993 0.8051
C23_3 C 0.5415(4) 0.1719(3) 0.8443(4)
H13_3 H 0.5349 0.1472 0.8259
C28_3 C 0.5154(2) 0.1798(4) 0.8874(5)
C33_3 C 0.5281(4) 0.2137(4) 0.9151(3)
H18_3 H 0.5134 0.2180 0.9426
C38_3 C 0.5620(4) 0.2409(3) 0.9031(3)
H23_3 H 0.5695 0.2641 0.9230
C43_3 C 0.6223(3) 0.2731(3) 0.8535(3)
C47_3 C 0.3542(3) 0.1055(5) 0.9736(4)
C48_3 C 0.4736(4) 0.1458(3) 0.8945(5)
C49_3 C 0.3945(5) 0.0264(4) 0.8542(3)
C52_3 C 0.4149(5) 0.1251(3) 0.9339(3)
C53_3 C 0.4339(3) 0.0851(5) 0.8749(3)
C54_3 C 0.3749(3) 0.0661(3) 0.9149(5)
N6_3 N 0.3885(3) 0.1357(2) 0.9705(3)
N7_3 N 0.4705(3) 0.1115(3) 0.8643(2)
N8_3 N 0.3643(2) 0.0295(3) 0.8885(3)
N11_3 N 0.34461(17) 0.0704(3) 0.9498(4)
N12_3 N 0.4498(4) 0.15539(17) 0.9296(3)
N13_3 N 0.4296(3) 0.0502(4) 0.84461(17)
N14_3 N 0.40757(14) 0.09243(14) 0.90757(14)
O7_2 O 0.64606(13) 0.26573(12) 0.81887(13)
Zn9_2 Zn 0.694937(18) 0.305063(18) 0.805063(18)
C14_3 C 0.3632(4) 0.9128(2) 0.7623(3)
C19_3 C 0.3326(3) 0.9242(3) 0.7978(4)
H9_3 H 0.3051 0.9090 0.8007
C24_3 C 0.3443(4) 0.9585(4) 0.8281(3)
H14_3 H 0.3259 0.9651 0.8528
C29_3 C 0.3874(5) 0.9846(2) 0.8202(4)
C34_3 C 0.4151(3) 0.9719(4) 0.7863(4)
H19_3 H 0.4426 0.9866 0.7820
C39_3 C 0.4031(3) 0.9380(4) 0.7591(3)
H24_3 H 0.4230 0.9305 0.7359
C44_3 C 0.3535(3) 0.8777(3) 0.7269(3)
O8_2 O 0.31887(13) 0.85394(13) 0.73427(12)
Zn10_2 Zn 0.305063(18) 0.805063(18) 0.694937(18)
C8_3 C 0.9736(4) 0.3542(3) 0.1055(5)
C9_3 C 0.9339(3) 0.4149(5) 0.1251(3)
N1_3 N 0.9705(3) 0.3885(3) 0.1357(2)
N2_3 N 0.9498(4) 0.34461(17) 0.0704(3)
N3_3 N 0.90757(14) 0.40757(14) 0.09243(14)
C10_3 C 0.8632(4) 0.5872(2) 0.2377(3)
C15_3 C 0.8326(3) 0.5758(3) 0.2022(4)
H5_3 H 0.8051 0.5910 0.1993
C20_3 C 0.8443(4) 0.5415(4) 0.1719(3)
H10_3 H 0.8259 0.5349 0.1472
C25_3 C 0.8874(5) 0.5154(2) 0.1798(4)
C30_3 C 0.9151(3) 0.5281(4) 0.2137(4)
H15_3 H 0.9426 0.5134 0.2180
C35_3 C 0.9031(3) 0.5620(4) 0.2409(3)
H20_3 H 0.9230 0.5695 0.2641
C40_3 C 0.8535(3) 0.6223(3) 0.2731(3)
C45_3 C 0.8945(5) 0.4736(4) 0.1458(3)
C46_3 C 0.8542(3) 0.3945(5) 0.0264(4)
C50_3 C 0.8749(3) 0.4339(3) 0.0851(5)
C51_3 C 0.9149(5) 0.3749(3) 0.0661(3)
N4_3 N 0.8643(2) 0.4705(3) 0.1115(3)
N5_3 N 0.8885(3) 0.3643(2) 0.0295(3)
N9_3 N 0.9296(3) 0.4498(4) 0.15539(17)
N10_3 N 0.84461(17) 0.4296(3) 0.0502(4)
O4_3 O 0.81887(13) 0.64606(13) 0.26573(12)
O10_2 O 0.85394(13) 0.73427(12) 0.31887(13)
O11_2 O 0.76573(12) 0.68113(13) 0.35394(13)
O21_3 O 0.76451(10) 0.73549(10) 0.26451(10)
Zn7_2 Zn 0.805063(18) 0.694937(18) 0.305063(18)
C11_3 C 0.7623(3) 0.3632(4) 0.9128(2)
C16_3 C 0.7978(4) 0.3326(3) 0.9242(3)
H6_3 H 0.8007 0.3051 0.9090
C21_3 C 0.8281(3) 0.3443(4) 0.9585(4)
H11_3 H 0.8528 0.3259 0.9651
C26_3 C 0.8202(4) 0.3874(5) 0.9846(2)
C31_3 C 0.7863(4) 0.4151(3) 0.9719(4)
H16_3 H 0.7820 0.4426 0.9866
C36_3 C 0.7591(3) 0.4031(3) 0.9380(4)
H21_3 H 0.7359 0.4230 0.9305
C41_3 C 0.7269(3) 0.3535(3) 0.8777(3)
O5_2 O 0.73427(12) 0.31887(13) 0.85394(13)
C14_4 C 0.1368(4) 0.0872(2) 0.2623(3)
C19_4 C 0.1674(3) 0.0758(3) 0.2978(4)
H9_4 H 0.1949 0.0910 0.3007
C24_4 C 0.1557(4) 0.0415(4) 0.3281(3)
H14_4 H 0.1741 0.0349 0.3528
C29_4 C 0.1126(5) 0.0154(2) 0.3202(4)
C34_4 C 0.0849(3) 0.0281(4) 0.2863(4)
H19_4 H 0.0574 0.0134 0.2820
C39_4 C 0.0969(3) 0.0620(4) 0.2591(3)
H24_4 H 0.0770 0.0695 0.2359
C44_4 C 0.1465(3) 0.1223(3) 0.2269(3)
C1_4 C 0.4128(2) 0.7377(3) 0.6368(4)
C2_4 C 0.4242(3) 0.7022(4) 0.6674(3)
H1_4 H 0.4090 0.6993 0.6949
C3_4 C 0.4585(4) 0.6719(3) 0.6557(4)
H2_4 H 0.4651 0.6472 0.6741
C4_4 C 0.4846(2) 0.6798(4) 0.6126(5)
C5_4 C 0.4719(4) 0.7137(4) 0.5849(3)
H3_4 H 0.4866 0.7180 0.5574
C6_4 C 0.4380(4) 0.7409(3) 0.5969(3)
H4_4 H 0.4305 0.7641 0.5770
C7_4 C 0.3777(3) 0.7731(3) 0.6465(3)
C8_4 C 0.5264(4) 0.6458(3) 0.6055(5)
C9_4 C 0.5661(3) 0.5851(5) 0.6251(3)
N1_4 N 0.5295(3) 0.6115(3) 0.6357(2)
N2_4 N 0.5502(4) 0.65539(17) 0.5704(3)
N3_4 N 0.59243(14) 0.59243(14) 0.59243(14)
O1_4 O 0.35394(13) 0.76573(12) 0.68113(13)
O3_4 O 0.26451(10) 0.76451(10) 0.73549(10)
C10_4 C 0.6368(4) 0.4128(2) 0.7377(3)
C11_4 C 0.7377(3) 0.6368(4) 0.4128(2)
C12_4 C 0.2377(3) 0.8632(4) 0.5872(2)
C15_4 C 0.6674(3) 0.4242(3) 0.7022(4)
C16_4 C 0.7022(4) 0.6674(3) 0.4242(3)
C17_4 C 0.2022(4) 0.8326(3) 0.5758(3)
H5_4 H 0.6949 0.4090 0.6993
H6_4 H 0.6993 0.6949 0.4090
H7_4 H 0.1993 0.8051 0.5910
C20_4 C 0.6557(4) 0.4585(4) 0.6719(3)
C21_4 C 0.6719(3) 0.6557(4) 0.4585(4)
C22_4 C 0.1719(3) 0.8443(4) 0.5415(4)
H10_4 H 0.6741 0.4651 0.6472
H11_4 H 0.6472 0.6741 0.4651
H12_4 H 0.1472 0.8259 0.5349
C25_4 C 0.6126(5) 0.4846(2) 0.6798(4)
C26_4 C 0.6798(4) 0.6126(5) 0.4846(2)
C27_4 C 0.1798(4) 0.8874(5) 0.5154(2)
C30_4 C 0.5849(3) 0.4719(4) 0.7137(4)
C31_4 C 0.7137(4) 0.5849(3) 0.4719(4)
C32_4 C 0.2137(4) 0.9151(3) 0.5281(4)
H15_4 H 0.5574 0.4866 0.7180
H16_4 H 0.7180 0.5574 0.4866
H17_4 H 0.2180 0.9426 0.5134
C35_4 C 0.5969(3) 0.4380(4) 0.7409(3)
C36_4 C 0.7409(3) 0.5969(3) 0.4380(4)
C37_4 C 0.2409(3) 0.9031(3) 0.5620(4)
H20_4 H 0.5770 0.4305 0.7641
H21_4 H 0.7641 0.5770 0.4305
H22_4 H 0.2641 0.9230 0.5695
C40_4 C 0.6465(3) 0.3777(3) 0.7731(3)
C41_4 C 0.7731(3) 0.6465(3) 0.3777(3)
C42_4 C 0.2731(3) 0.8535(3) 0.6223(3)
C45_4 C 0.6055(5) 0.5264(4) 0.6458(3)
C46_4 C 0.6458(3) 0.6055(5) 0.5264(4)
C47_4 C 0.1458(3) 0.8945(5) 0.4736(4)
C48_4 C 0.0264(4) 0.8542(3) 0.3945(5)
C49_4 C 0.1055(5) 0.9736(4) 0.3542(3)
C50_4 C 0.6251(3) 0.5661(3) 0.5851(5)
C51_4 C 0.5851(5) 0.6251(3) 0.5661(3)
C52_4 C 0.0851(5) 0.8749(3) 0.4339(3)
C53_4 C 0.0661(3) 0.9149(5) 0.3749(3)
C54_4 C 0.1251(3) 0.9339(3) 0.4149(5)
N4_4 N 0.6357(2) 0.5295(3) 0.6115(3)
N5_4 N 0.6115(3) 0.6357(2) 0.5295(3)
N6_4 N 0.1115(3) 0.8643(2) 0.4705(3)
N7_4 N 0.0295(3) 0.8885(3) 0.3643(2)
N8_4 N 0.1357(2) 0.9705(3) 0.3885(3)
N9_4 N 0.5704(3) 0.5502(4) 0.65539(17)
N10_4 N 0.65539(17) 0.5704(3) 0.5502(4)
N11_4 N 0.15539(17) 0.9296(3) 0.4498(4)
N12_4 N 0.0502(4) 0.84461(17) 0.4296(3)
N13_4 N 0.0704(3) 0.9498(4) 0.34461(17)
N14_4 N 0.09243(14) 0.90757(14) 0.40757(14)
O4_4 O 0.68113(13) 0.35394(13) 0.76573(12)
O6_4 O 0.26573(12) 0.81887(13) 0.64606(13)
O21_4 O 0.73549(10) 0.26451(10) 0.76451(10)
C13_4 C 0.9128(2) 0.7623(3) 0.3632(4)
C18_4 C 0.9242(3) 0.7978(4) 0.3326(3)
H8_4 H 0.9090 0.8007 0.3051
C23_4 C 0.9585(4) 0.8281(3) 0.3443(4)
H13_4 H 0.9651 0.8528 0.3259
C28_4 C 0.9846(2) 0.8202(4) 0.3874(5)
C33_4 C 0.9719(4) 0.7863(4) 0.4151(3)
H18_4 H 0.9866 0.7820 0.4426
C38_4 C 0.9380(4) 0.7591(3) 0.4031(3)
H23_4 H 0.9305 0.7359 0.4230
C43_4 C 0.8777(3) 0.7269(3) 0.3535(3)
loop_
_geom_bond_atom_site_label_1
_geom_bond_atom_site_label_2
_geom_bond_site_symmetry_1
_geom_bond_site_symmetry_2
O8 C44 1_555 1_555
O16 C44 1_555 1_555
Zn6 O16 1_555 1_555
Zn10 O8 1_555 1_555
C12 C17 1_555 1_555
C13 C18 1_555 1_555
C14 C19 1_555 1_555
C17 H7 1_555 1_555
C18 H8 1_555 1_555
C19 H9 1_555 1_555
C22 C17 1_555 1_555
C23 C18 1_555 1_555
C24 C19 1_555 1_555
H12 C22 1_555 1_555
H13 C23 1_555 1_555
H14 C24 1_555 1_555
C27 C22 1_555 1_555
C28 C23 1_555 1_555
C29 C24 1_555 1_555
C32 C27 1_555 1_555
C33 C28 1_555 1_555
C34 C29 1_555 1_555
H17 C32 1_555 1_555
H18 C33 1_555 1_555
H19 C34 1_555 1_555
C37 C12 1_555 1_555
C38 C13 1_555 1_555
C39 C14 1_555 1_555
H23 C38 1_555 1_555
C43 C13 1_555 1_555
C47 C27 1_555 1_555
C48 C28 1_555 1_555
C49 C29 1_555 1_555
C52 N6 1_555 1_555
C53 N7 1_555 1_555
C54 N8 1_555 1_555
N6 C47 1_555 1_555
N7 C48 1_555 1_555
N8 C49 1_555 1_555
N11 C47 1_555 1_555
N12 C48 1_555 1_555
N13 C49 1_555 1_555
N14 C52 1_555 1_555
O7 C43 1_555 1_555
O15 C43 1_555 1_555
Zn5 O15 1_555 1_555
Zn9 O7 1_555 1_555
C32 C37 1_555 1_555
C33 C38 1_555 1_555
C34 C39 1_555 1_555
C52 N12 1_555 1_555
C53 N13 1_555 1_555
C53 N14 1_555 1_555
C54 N11 1_555 1_555
C54 N14 1_555 1_555
C1 C2 1_555 1_555
C2 H1 1_555 1_555
C3 C2 1_555 1_555
H2 C3 1_555 1_555
C4 C3 1_555 1_555
C5 C4 1_555 1_555
H3 C5 1_555 1_555
C6 C1 1_555 1_555
H4 C6 1_555 1_555
C7 C1 1_555 1_555
C8 C4 1_555 1_555
C9 N1 1_555 1_555
N1 C8 1_555 1_555
N2 C8 1_555 1_555
N3 C9 1_555 1_555
O1 C7 1_555 1_555
O2 C7 1_555 1_555
O3 Zn2 1_555 1_555
Zn1 O2 1_555 1_555
Zn2 O1 1_555 1_555
C10 C15 1_555 1_555
C11 C16 1_555 1_555
C15 H5 1_555 1_555
C16 H6 1_555 1_555
C20 C15 1_555 1_555
C21 C16 1_555 1_555
H10 C20 1_555 1_555
H11 C21 1_555 1_555
C25 C20 1_555 1_555
C26 C21 1_555 1_555
C30 C25 1_555 1_555
C31 C26 1_555 1_555
H15 C30 1_555 1_555
H16 C31 1_555 1_555
C35 C10 1_555 1_555
C36 C11 1_555 1_555
H20 C35 1_555 1_555
H21 C36 1_555 1_555
C40 C10 1_555 1_555
C41 C11 1_555 1_555
C45 C25 1_555 1_555
C46 C26 1_555 1_555
C50 N3 1_555 1_555
C51 N2 1_555 1_555
N4 C45 1_555 1_555
N5 C46 1_555 1_555
N9 C9 1_555 1_555
N10 C46 1_555 1_555
O4 C40 1_555 1_555
O5 C41 1_555 1_555
O6 Zn2 1_555 1_555
O9 Zn2 1_555 1_555
O10 Zn7 1_555 1_555
O11 Zn7 1_555 1_555
O12 C40 1_555 1_555
O13 C41 1_555 1_555
O14 Zn1 1_555 1_555
O17 Zn1 1_555 1_555
O18 Zn1 1_555 1_555
O19 Zn1 1_555 1_555
O20 Zn1 1_555 1_555
O21 Zn7 1_555 1_555
Zn3 O12 1_555 1_555
Zn5 O13 1_555 1_555
Zn7 O4 1_555 1_555
Zn9 O5 1_555 1_555
C5 C6 1_555 1_555
N3 C51 1_555 1_555
C30 C35 1_555 1_555
C31 C36 1_555 1_555
C42 O6 1_555 1_555
C42 O14 1_555 1_555
C45 N9 1_555 1_555
C50 N4 1_555 1_555
C50 N10 1_555 1_555
C51 N5 1_555 1_555
O3 H25 1_555 1_555
O21 H27 1_555 1_555
O1_2 C7_2 1_555 1_555
O2_2 C7_2 1_555 1_555
O3_2 Zn10 1_555 1_555
Zn6 O2_2 1_555 1_555
Zn10 O1_2 1_555 1_555
O6_2 Zn10 1_555 1_555
O14_2 Zn6 1_555 1_555
O18_2 Zn6 1_555 1_555
O19_2 Zn6 1_555 1_555
O20_2 Zn6 1_555 1_555
C42_2 O6_2 1_555 1_555
C42_2 O14_2 1_555 1_555
C12_2 C17_2 1_555 1_555
C13_2 C18_2 1_555 1_555
C14_2 C19_2 1_555 1_555
C17_2 H7_2 1_555 1_555
C18_2 H8_2 1_555 1_555
C19_2 H9_2 1_555 1_555
C22_2 C17_2 1_555 1_555
C23_2 C18_2 1_555 1_555
C24_2 C19_2 1_555 1_555
H12_2 C22_2 1_555 1_555
H13_2 C23_2 1_555 1_555
H14_2 C24_2 1_555 1_555
C27_2 C22_2 1_555 1_555
C28_2 C23_2 1_555 1_555
C29_2 C24_2 1_555 1_555
C32_2 C27_2 1_555 1_555
C33_2 C28_2 1_555 1_555
C34_2 C29_2 1_555 1_555
H17_2 C32_2 1_555 1_555
H18_2 C33_2 1_555 1_555
H19_2 C34_2 1_555 1_555
C37_2 C12_2 1_555 1_555
C38_2 C13_2 1_555 1_555
C39_2 C14_2 1_555 1_555
H24_2 C39_2 1_555 1_555
C44_2 C14_2 1_555 1_555
C47_2 C27_2 1_555 1_555
C48_2 C28_2 1_555 1_555
C49_2 C29_2 1_555 1_555
C52_2 N6_2 1_555 1_555
C53_2 N7_2 1_555 1_555
C54_2 N8_2 1_555 1_555
N6_2 C47_2 1_555 1_555
N7_2 C48_2 1_555 1_555
N8_2 C49_2 1_555 1_555
N11_2 C47_2 1_555 1_555
N12_2 C48_2 1_555 1_555
N13_2 C49_2 1_555 1_555
N14_2 C52_2 1_555 1_555
O9 C44_2 1_555 1_555
O17 C44_2 1_555 1_555
C32_2 C37_2 1_555 1_555
C33_2 C38_2 1_555 1_555
C34_2 C39_2 1_555 1_555
C52_2 N12_2 1_555 1_555
C53_2 N13_2 1_555 1_555
C53_2 N14_2 1_555 1_555
C54_2 N11_2 1_555 1_555
C54_2 N14_2 1_555 1_555
C1_2 C2_2 1_555 1_555
C2_2 H1_2 1_555 1_555
C3_2 C2_2 1_555 1_555
H2_2 C3_2 1_555 1_555
C4_2 C3_2 1_555 1_555
C5_2 C4_2 1_555 1_555
H3_2 C5_2 1_555 1_555
C6_2 C1_2 1_555 1_555
C8_2 C4_2 1_555 1_555
C9_2 N1_2 1_555 1_555
N1_2 C8_2 1_555 1_555
N2_2 C8_2 1_555 1_555
N3_2 C9_2 1_555 1_555
C10_2 C15_2 1_555 1_555
C11_2 C16_2 1_555 1_555
C15_2 H5_2 1_555 1_555
C16_2 H6_2 1_555 1_555
C20_2 C15_2 1_555 1_555
C21_2 C16_2 1_555 1_555
H10_2 C20_2 1_555 1_555
H11_2 C21_2 1_555 1_555
C25_2 C20_2 1_555 1_555
C26_2 C21_2 1_555 1_555
C30_2 C25_2 1_555 1_555
C31_2 C26_2 1_555 1_555
H15_2 C30_2 1_555 1_555
H16_2 C31_2 1_555 1_555
C35_2 C10_2 1_555 1_555
C36_2 C11_2 1_555 1_555
H21_2 C36_2 1_555 1_555
C41_2 C11_2 1_555 1_555
C45_2 C25_2 1_555 1_555
C46_2 C26_2 1_555 1_555
C50_2 N3_2 1_555 1_555
C51_2 N2_2 1_555 1_555
N4_2 C45_2 1_555 1_555
N5_2 C46_2 1_555 1_555
N9_2 C9_2 1_555 1_555
N10_2 C46_2 1_555 1_555
O11 C41_2 1_555 1_555
O13_2 C41_2 1_555 1_555
Zn3 O13_2 1_555 1_555
C5_2 C6_2 1_555 1_555
N3_2 C51_2 1_555 1_555
C30_2 C35_2 1_555 1_555
C31_2 C36_2 1_555 1_555
C45_2 N9_2 1_555 1_555
C50_2 N4_2 1_555 1_555
C50_2 N10_2 1_555 1_555
C51_2 N5_2 1_555 1_555
O4_2 C40_2 1_555 1_555
O12_2 C40_2 1_555 1_555
O21_2 Zn9 1_555 1_555
Zn5 O12_2 1_555 1_555
Zn9 O4_2 1_555 1_555
O21_2 H27_2 1_555 1_555
O21_2 H28_2 1_555 1_555
O10 C43_2 1_555 1_555
O15_2 C43_2 1_555 1_555
Zn3 O15_2 1_555 1_555
O18_3 Zn5 1_555 1_555
O19_3 Zn5 1_555 1_555
O20_3 Zn5 1_555 1_555
O3 H28_4 1_555 1_555
O18_4 Zn3 1_555 1_555
O19_4 Zn3 1_555 1_555
O20_4 Zn3 1_555 1_555
O21 H25_4 1_555 1_555
C1_3 C2_3 1_555 1_555
C2_3 H1_3 1_555 1_555
C3_3 C2_3 1_555 1_555
H2_3 C3_3 1_555 1_555
C4_3 C3_3 1_555 1_555
C5_3 C4_3 1_555 1_555
H3_3 C5_3 1_555 1_555
C6_3 C1_3 1_555 1_555
H4_3 C6_3 1_555 1_555
C7_3 C1_3 1_555 1_555
O1_3 C7_3 1_555 1_555
O18_2 C7_3 1_555 1_555
O3_3 Zn2_2 1_555 1_555
Zn2_2 O1_3 1_555 1_555
C12_3 C17_3 1_555 1_555
C17_3 H7_3 1_555 1_555
C22_3 C17_3 1_555 1_555
H12_3 C22_3 1_555 1_555
C27_3 C22_3 1_555 1_555
C32_3 C27_3 1_555 1_555
H17_3 C32_3 1_555 1_555
C37_3 C12_3 1_555 1_555
H22_3 C37_3 1_555 1_555
C42_3 C12_3 1_555 1_555
O6_3 Zn2_2 1_555 1_555
O9_2 Zn2_2 1_555 1_555
C5_3 C6_3 1_555 1_555
C32_3 C37_3 1_555 1_555
C42_3 O6_3 1_555 1_555
C42_3 O19_2 1_555 1_555
C13_3 C18_3 1_555 1_555
C18_3 H8_3 1_555 1_555
C23_3 C18_3 1_555 1_555
H13_3 C23_3 1_555 1_555
C28_3 C23_3 1_555 1_555
C33_3 C28_3 1_555 1_555
H18_3 C33_3 1_555 1_555
C38_3 C13_3 1_555 1_555
H23_3 C38_3 1_555 1_555
C43_3 C13_3 1_555 1_555
C48_3 C28_3 1_555 1_555
C52_3 N6_3 1_555 1_555
C53_3 N7_3 1_555 1_555
C54_3 N8_3 1_555 1_555
N6_3 C47_3 1_555 1_555
N7_3 C48_3 1_555 1_555
N8_3 C49_3 1_555 1_555
N11_3 C47_3 1_555 1_555
N12_3 C48_3 1_555 1_555
N13_3 C49_3 1_555 1_555
N14_3 C52_3 1_555 1_555
O7_2 C43_3 1_555 1_555
O18_3 C43_3 1_555 1_555
Zn9_2 O7_2 1_555 1_555
C33_3 C38_3 1_555 1_555
C52_3 N12_3 1_555 1_555
C53_3 N13_3 1_555 1_555
C53_3 N14_3 1_555 1_555
C54_3 N11_3 1_555 1_555
C54_3 N14_3 1_555 1_555
C14_3 C19_3 1_555 1_555
C19_3 H9_3 1_555 1_555
C24_3 C19_3 1_555 1_555
H14_3 C24_3 1_555 1_555
C29_3 C24_3 1_555 1_555
C34_3 C29_3 1_555 1_555
H19_3 C34_3 1_555 1_555
C39_3 C14_3 1_555 1_555
H24_3 C39_3 1_555 1_555
C44_3 C14_3 1_555 1_555
O8_2 C44_3 1_555 1_555
O20 C44_3 1_555 1_555
Zn10_2 O8_2 1_555 1_555
C34_3 C39_3 1_555 1_555
C9_3 N1_3 1_555 1_555
N1_3 C8_3 1_555 1_555
N2_3 C8_3 1_555 1_555
N3_3 C9_3 1_555 1_555
C10_3 C15_3 1_555 1_555
C15_3 H5_3 1_555 1_555
C20_3 C15_3 1_555 1_555
H10_3 C20_3 1_555 1_555
C25_3 C20_3 1_555 1_555
C30_3 C25_3 1_555 1_555
H15_3 C30_3 1_555 1_555
C35_3 C10_3 1_555 1_555
H20_3 C35_3 1_555 1_555
C40_3 C10_3 1_555 1_555
C45_3 C25_3 1_555 1_555
C50_3 N3_3 1_555 1_555
C51_3 N2_3 1_555 1_555
N4_3 C45_3 1_555 1_555
N5_3 C46_3 1_555 1_555
N9_3 C9_3 1_555 1_555
N10_3 C46_3 1_555 1_555
O4_3 C40_3 1_555 1_555
O10_2 Zn7_2 1_555 1_555
O11_2 Zn7_2 1_555 1_555
O20_4 C40_3 1_555 1_555
O21_3 Zn7_2 1_555 1_555
Zn7_2 O4_3 1_555 1_555
N3_3 C51_3 1_555 1_555
C30_3 C35_3 1_555 1_555
C45_3 N9_3 1_555 1_555
C50_3 N4_3 1_555 1_555
C50_3 N10_3 1_555 1_555
C51_3 N5_3 1_555 1_555
C11_3 C16_3 1_555 1_555
C16_3 H6_3 1_555 1_555
C21_3 C16_3 1_555 1_555
H11_3 C21_3 1_555 1_555
C26_3 C21_3 1_555 1_555
C31_3 C26_3 1_555 1_555
H16_3 C31_3 1_555 1_555
C36_3 C11_3 1_555 1_555
H21_3 C36_3 1_555 1_555
C41_3 C11_3 1_555 1_555
O5_2 C41_3 1_555 1_555
O19_3 C41_3 1_555 1_555
Zn9_2 O5_2 1_555 1_555
C31_3 C36_3 1_555 1_555
C14_4 C19_4 1_555 1_555
C19_4 H9_4 1_555 1_555
C24_4 C19_4 1_555 1_555
H14_4 C24_4 1_555 1_555
C29_4 C24_4 1_555 1_555
C34_4 C29_4 1_555 1_555
H19_4 C34_4 1_555 1_555
C39_4 C14_4 1_555 1_555
H24_4 C39_4 1_555 1_555
C44_4 C14_4 1_555 1_555
O9_2 C44_4 1_555 1_555
O20_2 C44_4 1_555 1_555
C34_4 C39_4 1_555 1_555
C1_4 C2_4 1_555 1_555
C2_4 H1_4 1_555 1_555
C3_4 C2_4 1_555 1_555
H2_4 C3_4 1_555 1_555
C4_4 C3_4 1_555 1_555
C5_4 C4_4 1_555 1_555
H3_4 C5_4 1_555 1_555
C6_4 C1_4 1_555 1_555
H4_4 C6_4 1_555 1_555
C7_4 C1_4 1_555 1_555
C8_4 C4_4 1_555 1_555
C9_4 N1_4 1_555 1_555
N1_4 C8_4 1_555 1_555
N2_4 C8_4 1_555 1_555
N3_4 C9_4 1_555 1_555
O1_4 C7_4 1_555 1_555
O18 C7_4 1_555 1_555
O3_4 Zn10_2 1_555 1_555
Zn10_2 O1_4 1_555 1_555
C10_4 C15_4 1_555 1_555
C11_4 C16_4 1_555 1_555
C12_4 C17_4 1_555 1_555
C15_4 H5_4 1_555 1_555
C16_4 H6_4 1_555 1_555
C17_4 H7_4 1_555 1_555
C20_4 C15_4 1_555 1_555
C21_4 C16_4 1_555 1_555
C22_4 C17_4 1_555 1_555
H10_4 C20_4 1_555 1_555
H11_4 C21_4 1_555 1_555
H12_4 C22_4 1_555 1_555
C25_4 C20_4 1_555 1_555
C26_4 C21_4 1_555 1_555
C27_4 C22_4 1_555 1_555
C30_4 C25_4 1_555 1_555
C31_4 C26_4 1_555 1_555
C32_4 C27_4 1_555 1_555
H15_4 C30_4 1_555 1_555
H16_4 C31_4 1_555 1_555
H17_4 C32_4 1_555 1_555
C35_4 C10_4 1_555 1_555
C36_4 C11_4 1_555 1_555
C37_4 C12_4 1_555 1_555
H20_4 C35_4 1_555 1_555
H21_4 C36_4 1_555 1_555
H22_4 C37_4 1_555 1_555
C40_4 C10_4 1_555 1_555
C41_4 C11_4 1_555 1_555
C42_4 C12_4 1_555 1_555
C45_4 C25_4 1_555 1_555
C46_4 C26_4 1_555 1_555
C47_4 C27_4 1_555 1_555
C50_4 N3_4 1_555 1_555
C51_4 N2_4 1_555 1_555
C52_4 N6_4 1_555 1_555
C53_4 N7_4 1_555 1_555
C54_4 N8_4 1_555 1_555
N4_4 C45_4 1_555 1_555
N5_4 C46_4 1_555 1_555
N6_4 C47_4 1_555 1_555
N7_4 C48_4 1_555 1_555
N8_4 C49_4 1_555 1_555
N9_4 C9_4 1_555 1_555
N10_4 C46_4 1_555 1_555
N11_4 C47_4 1_555 1_555
N12_4 C48_4 1_555 1_555
N13_4 C49_4 1_555 1_555
N14_4 C52_4 1_555 1_555
O4_4 C40_4 1_555 1_555
O11_2 C41_4 1_555 1_555
O6_4 Zn10_2 1_555 1_555
O20_3 C40_4 1_555 1_555
O19_4 C41_4 1_555 1_555
O21_4 Zn9_2 1_555 1_555
Zn9_2 O4_4 1_555 1_555
C5_4 C6_4 1_555 1_555
N3_4 C51_4 1_555 1_555
C30_4 C35_4 1_555 1_555
C31_4 C36_4 1_555 1_555
C32_4 C37_4 1_555 1_555
C42_4 O6_4 1_555 1_555
C42_4 O19 1_555 1_555
C45_4 N9_4 1_555 1_555
C50_4 N4_4 1_555 1_555
C50_4 N10_4 1_555 1_555
C51_4 N5_4 1_555 1_555
C52_4 N12_4 1_555 1_555
C53_4 N13_4 1_555 1_555
C53_4 N14_4 1_555 1_555
C54_4 N11_4 1_555 1_555
C54_4 N14_4 1_555 1_555
C13_4 C18_4 1_555 1_555
C18_4 H8_4 1_555 1_555
C23_4 C18_4 1_555 1_555
H13_4 C23_4 1_555 1_555
C28_4 C23_4 1_555 1_555
C33_4 C28_4 1_555 1_555
H18_4 C33_4 1_555 1_555
C38_4 C13_4 1_555 1_555
H23_4 C38_4 1_555 1_555
C43_4 C13_4 1_555 1_555
O10_2 C43_4 1_555 1_555
O18_4 C43_4 1_555 1_555
C33_4 C38_4 1_555 1_555

#END
