
###############################################################################
#
# This file contains modified crystal structure data generated from the
# MOF subset of the Cambridge Structural Database (CSD) v543 
# hosted by the Cambridge Crystallographic Data Centre (CCDC).
#
# This work is licensed under the Creative Commons
# Attribution-NonCommercial-ShareAlike 4.0 International License.
# To view a copy of this license, visit
# http://creativecommons.org/licenses/by-nc-sa/4.0/
# or send a letter to
# Creative Commons, PO Box 1866, Mountain View, CA 94042, USA.
#
# CIF created using the CSD Python API on 29 September 2022
# The structure has been converted into the P1 space group
# The structure has a 3D framework
# The original CSD entry ECORIX is in the triclinic crystal system
# The framework has been calculated to contain at least 10.0% void space
# The void calculation uses a probe of radius 1.32A, grid spacing 0.4
# H atom positions have been added when not included in the experimental data
#
###############################################################################

data_ECORIX
_chemical_formula_moiety         '(C18 H26 Ni4 O16)n'
_symmetry_cell_setting           triclinic
_symmetry_space_group_name_H-M   'P 1'
_symmetry_Int_Tables_number      1
_space_group_name_Hall           'P 1'
loop_
_symmetry_equiv_pos_site_id
_symmetry_equiv_pos_as_xyz
1 x,y,z
_cell_length_a                   7.694(1)
_cell_length_b                   9.210(1)
_cell_length_c                   10.764(2)
_cell_angle_alpha                108.598(3)
_cell_angle_beta                 92.300(3)
_cell_angle_gamma                109.814(3)
_cell_volume                     670.661
loop_
_atom_site_label
_atom_site_type_symbol
_atom_site_fract_x
_atom_site_fract_y
_atom_site_fract_z
_atom_site_U_iso_or_equiv
_atom_site_thermal_displace_type
Ni8 Ni 0.14973(9) 0.13415(7) 0.12783(6) 0.0154 Uiso
O22 O 0.1092(5) 0.0517(4) 0.9237(3) 0.0217 Uiso
Ni6 Ni 0.5000 -0.0000 0.0000 0.0149 Uiso
Ni6_2 Ni 0.5000 -0.0000 1.0000 0.0149 Uiso
O5 O 0.0203(6) 0.2989(5) 0.1244(4) 0.0340 Uiso
H9 H 0.0623 0.3911 0.2064 0.0408 Uiso
H10 H 0.0543 0.3396 0.0537 0.0408 Uiso
O18 O 0.6395(5) 0.2353(4) 0.1252(3) 0.0231 Uiso
O20 O 0.3965(5) 0.3173(4) 0.1555(4) 0.0244 Uiso
O21 O 0.1473(5) 0.1891(4) 0.3238(3) 0.0270 Uiso
Ni6_3 Ni 0.5000 1.0000 0.0000 0.0149 Uiso
O1 O 0.3949(5) 0.0900(4) 0.8728(3) 0.0240 Uiso
O4 O 0.6035(5) 0.6827(4) 0.8445(4) 0.0244 Uiso
O6 O 0.3605(5) 0.7647(4) 0.8748(3) 0.0231 Uiso
O7 O 0.3633(7) 0.1003(6) 0.3743(4) 0.0560 Uiso
C1 C 0.2401(7) 0.1014(5) 0.8588(4) 0.0170 Uiso
C2 C 0.2009(7) 0.1891(6) 0.7681(4) 0.0180 Uiso
C3 C 0.2545(7) 0.1278(6) 0.6297(5) 0.0210 Uiso
C4 C 0.2192(7) 0.2275(6) 0.5495(4) 0.0190 Uiso
C5 C 0.3461(7) 0.4112(6) 0.6182(5) 0.0200 Uiso
C6 C 0.2969(7) 0.4786(6) 0.7571(5) 0.0180 Uiso
C7 C 0.3164(7) 0.3749(6) 0.8404(5) 0.0200 Uiso
C8 C 0.2472(8) 0.1655(6) 0.4054(5) 0.0220 Uiso
C9 C 0.4338(7) 0.6564(6) 0.8311(5) 0.0190 Uiso
H1 H 0.3829 0.1419 0.6390 0.0245 Uiso
H2 H 0.1799 0.0140 0.5854 0.0245 Uiso
H3 H 0.4737 0.4217 0.6267 0.0239 Uiso
H4 H 0.3272 0.4723 0.5659 0.0239 Uiso
H5 H 0.2738 0.4113 0.9221 0.0237 Uiso
H6 H 0.4445 0.3901 0.8576 0.0237 Uiso
O15 O 0.7150(5) 0.0291(4) 0.8802(3) 0.0207 Uiso
H17 H 0.8046 0.1388 0.9171 0.0244 Uiso
H18 H 0.6610 0.0090 0.7928 0.0244 Uiso
Ni5 Ni 0.85027(9) 0.86585(7) 0.87217(6) 0.0154 Uiso
Ni6_4 Ni 0.5000 1.0000 1.0000 0.0149 Uiso
H21 H 0.0742317 0.218178 0.549091 . .
H22 H 0.154112 0.475453 0.747434 . .
H23 H 0.0525335 0.16953 0.75644 . .
O3 O 0.2850(5) 0.9709(4) 0.1198(3) 0.0207 Uiso
H7 H 0.1954 0.8612 0.0829 0.0244 Uiso
H8 H 0.3390 0.9910 0.2072 0.0244 Uiso
O9 O 0.6051(5) 0.9100(4) 0.1272(3) 0.0240 Uiso
O10 O 0.8908(5) 0.9483(4) 0.0763(3) 0.0217 Uiso
O13 O 0.6367(7) 0.8997(6) 0.6257(4) 0.0560 Uiso
O14 O 0.8527(5) 0.8109(4) 0.6762(3) 0.0270 Uiso
C10 C 0.7599(7) 0.8986(5) 0.1412(4) 0.0170 Uiso
C11 C 0.7991(7) 0.8109(6) 0.2319(4) 0.0180 Uiso
C12 C 0.7455(7) 0.8722(6) 0.3703(5) 0.0210 Uiso
C13 C 0.7808(7) 0.7725(6) 0.4505(4) 0.0190 Uiso
C14 C 0.6539(7) 0.5888(6) 0.3818(5) 0.0200 Uiso
C15 C 0.7031(7) 0.5214(6) 0.2429(5) 0.0180 Uiso
C16 C 0.6836(7) 0.6251(6) 0.1596(5) 0.0200 Uiso
C17 C 0.7528(8) 0.8345(6) 0.5946(5) 0.0220 Uiso
C18 C 0.5662(7) 0.3436(6) 0.1689(5) 0.0190 Uiso
H11 H 0.6171 0.8581 0.3610 0.0245 Uiso
H12 H 0.8201 0.9860 0.4146 0.0245 Uiso
H13 H 0.5263 0.5783 0.3733 0.0239 Uiso
H14 H 0.6728 0.5277 0.4341 0.0239 Uiso
H15 H 0.7262 0.5887 0.0779 0.0237 Uiso
H16 H 0.5555 0.6099 0.1424 0.0237 Uiso
H24 H 0.925768 0.781822 0.450909 . .
H25 H 0.947466 0.83047 0.24356 . .
H26 H 0.845888 0.524547 0.252566 . .
O16 O 0.9797(6) 0.7011(5) 0.8756(4) 0.0340 Uiso
H19 H 0.9377 0.6089 0.7936 0.0408 Uiso
H20 H 0.9457 0.6604 0.9463 0.0408 Uiso
loop_
_geom_bond_atom_site_label_1
_geom_bond_atom_site_label_2
_geom_bond_site_symmetry_1
_geom_bond_site_symmetry_2
O5 Ni8 1_555 1_555
H9 O5 1_555 1_555
H10 O5 1_555 1_555
O18 Ni6 1_555 1_555
O20 Ni8 1_555 1_555
O21 Ni8 1_555 1_555
Ni6_2 O1 1_555 1_555
O1 C1 1_555 1_555
O22 C1 1_555 1_555
O4 C9 1_555 1_555
O6 C9 1_555 1_555
O7 C8 1_555 1_555
O21 C8 1_555 1_555
C1 C2 1_555 1_555
C2 C3 1_555 1_555
C3 C4 1_555 1_555
C4 C5 1_555 1_555
C5 C6 1_555 1_555
C6 C7 1_555 1_555
C7 C2 1_555 1_555
C8 C4 1_555 1_555
C9 C6 1_555 1_555
H1 C3 1_555 1_555
H2 C3 1_555 1_555
H3 C5 1_555 1_555
H4 C5 1_555 1_555
H5 C7 1_555 1_555
H6 C7 1_555 1_555
O15 Ni6_2 1_555 1_555
H17 O15 1_555 1_555
H18 O15 1_555 1_555
Ni5 O4 1_555 1_555
Ni6_4 O6 1_555 1_555
C4 H21 1_555 1_555
C6 H22 1_555 1_555
C2 H23 1_555 1_555
O3 Ni6_3 1_555 1_555
H7 O3 1_555 1_555
H8 O3 1_555 1_555
O9 Ni6_3 1_555 1_555
O10 C10 1_555 1_555
O20 C18 1_555 1_555
O18 C18 1_555 1_555
O13 C17 1_555 1_555
O14 C17 1_555 1_555
C10 O9 1_555 1_555
C11 C10 1_555 1_555
C12 C11 1_555 1_555
C13 C12 1_555 1_555
C14 C13 1_555 1_555
C15 C14 1_555 1_555
C16 C11 1_555 1_555
C17 C13 1_555 1_555
C18 C15 1_555 1_555
H11 C12 1_555 1_555
H12 C12 1_555 1_555
H13 C14 1_555 1_555
H14 C14 1_555 1_555
H15 C16 1_555 1_555
H16 C16 1_555 1_555
Ni5 O14 1_555 1_555
C15 C16 1_555 1_555
C13 H24 1_555 1_555
C11 H25 1_555 1_555
C15 H26 1_555 1_555
O16 Ni5 1_555 1_555
H19 O16 1_555 1_555
H20 O16 1_555 1_555

#END
