
###############################################################################
#
# This file contains modified crystal structure data generated from the
# MOF subset of the Cambridge Structural Database (CSD) v543 
# hosted by the Cambridge Crystallographic Data Centre (CCDC).
#
# This work is licensed under the Creative Commons
# Attribution-NonCommercial-ShareAlike 4.0 International License.
# To view a copy of this license, visit
# http://creativecommons.org/licenses/by-nc-sa/4.0/
# or send a letter to
# Creative Commons, PO Box 1866, Mountain View, CA 94042, USA.
#
# CIF created using the CSD Python API on 29 September 2022
# The structure has been converted into the P1 space group
# The structure has a 3D framework
# The original CSD entry ECOWOI is in the monoclinic crystal system
# The framework has been calculated to contain at least 10.0% void space
# The void calculation uses a probe of radius 1.32A, grid spacing 0.4
#
###############################################################################

data_ECOWOI
_chemical_formula_moiety         '(C96 H96 Cu11 N16 O16 S14)n'
_symmetry_cell_setting           triclinic
_symmetry_space_group_name_H-M   'P 1'
_symmetry_Int_Tables_number      1
_space_group_name_Hall           'P 1'
loop_
_symmetry_equiv_pos_site_id
_symmetry_equiv_pos_as_xyz
1 x,y,z
_cell_length_a                   18.698(2)
_cell_length_b                   14.3969(18)
_cell_length_c                   12.9711(16)
_cell_angle_alpha                90
_cell_angle_beta                 121.106(2)
_cell_angle_gamma                90
_cell_volume                     2989.67
loop_
_atom_site_label
_atom_site_type_symbol
_atom_site_fract_x
_atom_site_fract_y
_atom_site_fract_z
Cu1 Cu 0.0000 0.0000 0.0000
S1 S 0.0000 0.14667(8) 0.2500
O1 O 0.00797(14) 0.08864(18) 0.16480(19)
O2 O 0.0760(3) 0.2017(3) 0.3163(4)
S2 S 0.37658(5) 0.13400(7) 0.14214(9)
N1 N 0.12059(14) 0.03856(18) 0.0594(2)
N2 N 0.45637(14) 0.38360(17) 0.3924(2)
C1 C 0.15882(18) 0.1093(2) 0.1364(3)
H1 H 0.1314 0.1381 0.1705
C2 C 0.23708(19) 0.1412(2) 0.1670(3)
H2 H 0.2616 0.1904 0.2205
C3 C 0.27855(17) 0.0986(2) 0.1168(3)
C4 C 0.24032(19) 0.0235(2) 0.0379(3)
C7 C 0.40309(17) 0.2294(2) 0.2428(3)
C8 C 0.43987(19) 0.2166(2) 0.3666(3)
C9 C 0.46525(19) 0.2977(2) 0.4362(3)
H7 H 0.4901 0.2912 0.5191
C10 C 0.41922(19) 0.3935(2) 0.2731(3)
H8 H 0.4113 0.4529 0.2408
C11 C 0.3923(2) 0.3181(2) 0.1967(3)
H9 H 0.3669 0.3270 0.1141
C12 C 0.4522(3) 0.1242(3) 0.4252(4)
H10 H 0.4789 0.1322 0.5107
H11 H 0.4867 0.0862 0.4075
H12 H 0.3990 0.0946 0.3951
Cu2 Cu 0.5000 0.5000 0.5000
Cu3 Cu -0.0000 -0.0000 0.5000
Cu1_2 Cu 0.0000 -0.0000 1.0000
H6 H 0.2896 0.0181 0.9296
Cu1_3 Cu 0.0000 1.0000 0.0000
C5 C 0.1624(2) 0.9967(2) 0.0140(3)
H5 H 0.3333 0.9489 0.0382
N6 N 0.04363(14) 0.88360(17) 0.1076(2)
Cu3_2 Cu -0.0000 1.0000 0.5000
Cu1_4 Cu -0.0000 1.0000 1.0000
H3 H 0.1371 0.9463 0.9629
C6 C 0.2806(3) 0.9746(3) 0.9779(4)
H4 H 0.2447 0.9256 0.9276
Cu1_5 Cu 1.0000 0.0000 0.0000
S1_2 S 1.0000 0.14667(8) 0.2500
O3 O 0.99203(14) 0.08864(18) 0.33520(19)
O4 O 0.9240(3) 0.2017(3) 0.1837(4)
H15 H 0.8629 0.0537 0.0371
C18 C 0.7194(3) 0.0254(3) 0.0221(4)
H16 H 0.7553 0.0744 0.0724
Cu3_3 Cu 1.0000 -0.0000 0.5000
Cu1_6 Cu 1.0000 -0.0000 1.0000
C17 C 0.8376(2) 0.0033(2) 0.9860(3)
H17 H 0.6667 0.0511 0.9618
N5 N 0.95637(14) 0.11640(17) 0.8924(2)
Cu1_7 Cu 1.0000 1.0000 0.0000
H18 H 0.7104 0.9819 0.0704
Cu3_4 Cu 1.0000 1.0000 0.5000
Cu1_8 Cu 1.0000 1.0000 1.0000
S3 S 0.62342(5) 0.86600(7) 0.85786(9)
N3 N 0.87941(14) 0.96144(18) 0.9406(2)
N4 N 0.54363(14) 0.61640(17) 0.6076(2)
C13 C 0.84118(18) 0.8907(2) 0.8636(3)
H13 H 0.8686 0.8619 0.8295
C14 C 0.76292(19) 0.8588(2) 0.8330(3)
H14 H 0.7384 0.8096 0.7795
C15 C 0.72145(17) 0.9014(2) 0.8832(3)
C16 C 0.75968(19) 0.9765(2) 0.9621(3)
C19 C 0.59691(17) 0.7706(2) 0.7572(3)
C20 C 0.56013(19) 0.7834(2) 0.6334(3)
C21 C 0.53475(19) 0.7023(2) 0.5638(3)
H19 H 0.5099 0.7088 0.4809
C22 C 0.58078(19) 0.6065(2) 0.7269(3)
H20 H 0.5887 0.5471 0.7592
C23 C 0.6077(2) 0.6819(2) 0.8033(3)
H21 H 0.6331 0.6730 0.8859
C24 C 0.5478(3) 0.8758(3) 0.5748(4)
H22 H 0.5211 0.8678 0.4893
H23 H 0.5133 0.9138 0.5925
H24 H 0.6010 0.9054 0.6049
O5 O 0.99203(14) 0.91136(18) 0.83520(19)
Cu1_9 Cu 0.5000 0.5000 0.0000
S1_3 S 0.5000 0.64667(8) 0.2500
O1_2 O 0.50797(14) 0.58864(18) 0.16480(19)
O2_2 O 0.5760(3) 0.7017(3) 0.3163(4)
S2_2 S 0.87658(5) 0.63400(7) 0.14214(9)
N1_2 N 0.62059(14) 0.53856(18) 0.0594(2)
N2_2 N 0.95637(14) 0.88360(17) 0.3924(2)
C1_2 C 0.65882(18) 0.6093(2) 0.1364(3)
H1_2 H 0.6314 0.6381 0.1705
C2_2 C 0.73708(19) 0.6412(2) 0.1670(3)
H2_2 H 0.7616 0.6904 0.2205
C3_2 C 0.77855(17) 0.5986(2) 0.1168(3)
C4_2 C 0.74032(19) 0.5235(2) 0.0379(3)
C5_2 C 0.6624(2) 0.4967(2) 0.0140(3)
H5_2 H 0.8333 0.4489 0.0382
C7_2 C 0.90309(17) 0.7294(2) 0.2428(3)
C8_2 C 0.93987(19) 0.7166(2) 0.3666(3)
C9_2 C 0.96525(19) 0.7977(2) 0.4362(3)
H7_2 H 0.9901 0.7912 0.5191
C10_2 C 0.91922(19) 0.8935(2) 0.2731(3)
H8_2 H 0.9113 0.9529 0.2408
C11_2 C 0.8923(2) 0.8181(2) 0.1967(3)
H9_2 H 0.8669 0.8270 0.1141
C12_2 C 0.9522(3) 0.6242(3) 0.4252(4)
H10_2 H 0.9789 0.6322 0.5107
H11_2 H 0.9867 0.5862 0.4075
H12_2 H 0.8990 0.5946 0.3951
O3_2 O 0.49203(14) 0.58864(18) 0.33520(19)
O4_2 O 0.4240(3) 0.7017(3) 0.1837(4)
H15_2 H 0.3629 0.5537 0.0371
C18_2 C 0.2194(3) 0.5254(3) 0.0221(4)
H16_2 H 0.2553 0.5744 0.0724
H18_2 H 0.2104 0.4819 0.0704
N6_2 N 0.54363(14) 0.38360(17) 0.1076(2)
Cu1_10 Cu 0.5000 0.5000 1.0000
H3_2 H 0.6371 0.4463 0.9629
C6_2 C 0.7806(3) 0.4746(3) 0.9779(4)
H4_2 H 0.7447 0.4256 0.9276
H6_2 H 0.7896 0.5181 0.9296
S3_2 S 0.12342(5) 0.36600(7) 0.85786(9)
N3_2 N 0.37941(14) 0.46144(18) 0.9406(2)
N4_2 N 0.04363(14) 0.11640(17) 0.6076(2)
C13_2 C 0.34118(18) 0.3907(2) 0.8636(3)
H13_2 H 0.3686 0.3619 0.8295
C14_2 C 0.26292(19) 0.3588(2) 0.8330(3)
H14_2 H 0.2384 0.3096 0.7795
C15_2 C 0.22145(17) 0.4014(2) 0.8832(3)
C16_2 C 0.25968(19) 0.4765(2) 0.9621(3)
C17_2 C 0.3376(2) 0.5033(2) 0.9860(3)
H17_2 H 0.1667 0.5511 0.9618
C19_2 C 0.09691(17) 0.2706(2) 0.7572(3)
C20_2 C 0.06013(19) 0.2834(2) 0.6334(3)
C21_2 C 0.03475(19) 0.2023(2) 0.5638(3)
H19_2 H 0.0099 0.2088 0.4809
C22_2 C 0.08078(19) 0.1065(2) 0.7269(3)
H20_2 H 0.0887 0.0471 0.7592
C23_2 C 0.1077(2) 0.1819(2) 0.8033(3)
H21_2 H 0.1331 0.1730 0.8859
C24_2 C 0.0478(3) 0.3758(3) 0.5748(4)
H22_2 H 0.0211 0.3678 0.4893
H23_2 H 0.0133 0.4138 0.5925
H24_2 H 0.1010 0.4054 0.6049
O5_2 O 0.49203(14) 0.41136(18) 0.83520(19)
N5_2 N 0.45637(14) 0.61640(17) 0.8924(2)
C5_3 C 0.1624(2) 0.0033(2) 0.5140(3)
H3_3 H 0.1371 0.0537 0.4629
C6_3 C 0.2806(3) 0.0254(3) 0.4779(4)
H4_3 H 0.2447 0.0744 0.4276
H5_3 H 0.3333 0.0511 0.5382
H7_3 H 0.4901 0.7088 0.0191
H10_3 H 0.4789 0.8678 0.0107
S1_4 S -0.0000 0.85333(8) 0.7500
O1_3 O 0.00797(14) 0.91136(18) 0.66480(19)
O2_3 O 0.0760(3) 0.7983(3) 0.8163(4)
S2_3 S 0.37658(5) 0.86600(7) 0.64214(9)
N1_3 N 0.12059(14) 0.96144(18) 0.5594(2)
C1_3 C 0.15882(18) 0.8907(2) 0.6364(3)
H1_3 H 0.1314 0.8619 0.6705
C2_3 C 0.23708(19) 0.8588(2) 0.6670(3)
H2_3 H 0.2616 0.8096 0.7205
C3_3 C 0.27855(17) 0.9014(2) 0.6168(3)
C4_3 C 0.24032(19) 0.9765(2) 0.5379(3)
H6_3 H 0.2896 0.9819 0.4296
C7_3 C 0.40309(17) 0.7706(2) 0.7428(3)
C8_3 C 0.43987(19) 0.7834(2) 0.8666(3)
C9_3 C 0.46525(19) 0.7023(2) 0.9362(3)
C10_3 C 0.41922(19) 0.6065(2) 0.7731(3)
H8_3 H 0.4113 0.5471 0.7408
C11_3 C 0.3923(2) 0.6819(2) 0.6967(3)
H9_3 H 0.3669 0.6730 0.6141
C12_3 C 0.4522(3) 0.8758(3) 0.9252(4)
H11_3 H 0.4867 0.9138 0.9075
H12_3 H 0.3990 0.9054 0.8951
S3_3 S 0.62342(5) 0.13400(7) 0.35786(9)
N3_3 N 0.87941(14) 0.03856(18) 0.4406(2)
C13_3 C 0.84118(18) 0.1093(2) 0.3636(3)
H13_3 H 0.8686 0.1381 0.3295
C14_3 C 0.76292(19) 0.1412(2) 0.3330(3)
H14_3 H 0.7384 0.1904 0.2795
C15_3 C 0.72145(17) 0.0986(2) 0.3832(3)
C16_3 C 0.75968(19) 0.0235(2) 0.4621(3)
H18_3 H 0.7104 0.0181 0.5704
C19_3 C 0.59691(17) 0.2294(2) 0.2572(3)
C20_3 C 0.56013(19) 0.2166(2) 0.1334(3)
C21_3 C 0.53475(19) 0.2977(2) 0.0638(3)
C22_3 C 0.58078(19) 0.3935(2) 0.2269(3)
H20_3 H 0.5887 0.4529 0.2592
C23_3 C 0.6077(2) 0.3181(2) 0.3033(3)
H21_3 H 0.6331 0.3270 0.3859
C24_3 C 0.5478(3) 0.1242(3) 0.0748(4)
H23_3 H 0.5133 0.0862 0.0925
H24_3 H 0.6010 0.0946 0.1049
H19_3 H 0.5099 0.2912 0.9809
H22_3 H 0.5211 0.1322 0.9893
S1_5 S 1.0000 0.85333(8) 0.7500
O4_3 O 0.9240(3) 0.7983(3) 0.6837(4)
C17_3 C 0.8376(2) 0.9967(2) 0.4860(3)
H15_3 H 0.8629 0.9463 0.5371
C18_3 C 0.7194(3) 0.9746(3) 0.5221(4)
H16_3 H 0.7553 0.9256 0.5724
H17_3 H 0.6667 0.9489 0.4618
H7_4 H 0.9901 0.2088 0.0191
H10_4 H 0.9789 0.3678 0.0107
S1_6 S 0.5000 0.35333(8) 0.7500
O1_4 O 0.50797(14) 0.41136(18) 0.66480(19)
O2_4 O 0.5760(3) 0.2983(3) 0.8163(4)
S2_4 S 0.87658(5) 0.36600(7) 0.64214(9)
N1_4 N 0.62059(14) 0.46144(18) 0.5594(2)
C1_4 C 0.65882(18) 0.3907(2) 0.6364(3)
H1_4 H 0.6314 0.3619 0.6705
C2_4 C 0.73708(19) 0.3588(2) 0.6670(3)
H2_4 H 0.7616 0.3096 0.7205
C3_4 C 0.77855(17) 0.4014(2) 0.6168(3)
C4_4 C 0.74032(19) 0.4765(2) 0.5379(3)
C5_4 C 0.6624(2) 0.5033(2) 0.5140(3)
H3_4 H 0.6371 0.5537 0.4629
C6_4 C 0.7806(3) 0.5254(3) 0.4779(4)
H4_4 H 0.7447 0.5744 0.4276
H5_4 H 0.8333 0.5511 0.5382
H6_4 H 0.7896 0.4819 0.4296
C7_4 C 0.90309(17) 0.2706(2) 0.7428(3)
C8_4 C 0.93987(19) 0.2834(2) 0.8666(3)
C9_4 C 0.96525(19) 0.2023(2) 0.9362(3)
C10_4 C 0.91922(19) 0.1065(2) 0.7731(3)
H8_4 H 0.9113 0.0471 0.7408
C11_4 C 0.8923(2) 0.1819(2) 0.6967(3)
H9_4 H 0.8669 0.1730 0.6141
C12_4 C 0.9522(3) 0.3758(3) 0.9252(4)
H11_4 H 0.9867 0.4138 0.9075
H12_4 H 0.8990 0.4054 0.8951
O4_4 O 0.4240(3) 0.2983(3) 0.6837(4)
S3_4 S 0.12342(5) 0.63400(7) 0.35786(9)
N3_4 N 0.37941(14) 0.53856(18) 0.4406(2)
C13_4 C 0.34118(18) 0.6093(2) 0.3636(3)
H13_4 H 0.3686 0.6381 0.3295
C14_4 C 0.26292(19) 0.6412(2) 0.3330(3)
H14_4 H 0.2384 0.6904 0.2795
C15_4 C 0.22145(17) 0.5986(2) 0.3832(3)
C16_4 C 0.25968(19) 0.5235(2) 0.4621(3)
C17_4 C 0.3376(2) 0.4967(2) 0.4860(3)
H15_4 H 0.3629 0.4463 0.5371
C18_4 C 0.2194(3) 0.4746(3) 0.5221(4)
H16_4 H 0.2553 0.4256 0.5724
H17_4 H 0.1667 0.4489 0.4618
H18_4 H 0.2104 0.5181 0.5704
C19_4 C 0.09691(17) 0.7294(2) 0.2572(3)
C20_4 C 0.06013(19) 0.7166(2) 0.1334(3)
C21_4 C 0.03475(19) 0.7977(2) 0.0638(3)
C22_4 C 0.08078(19) 0.8935(2) 0.2269(3)
H20_4 H 0.0887 0.9529 0.2592
C23_4 C 0.1077(2) 0.8181(2) 0.3033(3)
H21_4 H 0.1331 0.8270 0.3859
C24_4 C 0.0478(3) 0.6242(3) 0.0748(4)
H23_4 H 0.0133 0.5862 0.0925
H24_4 H 0.1010 0.5946 0.1049
H19_4 H 0.0099 0.7912 0.9809
H22_4 H 0.0211 0.6322 0.9893
loop_
_geom_bond_atom_site_label_1
_geom_bond_atom_site_label_2
_geom_bond_site_symmetry_1
_geom_bond_site_symmetry_2
Cu1 O1 1_555 1_555
S1 O1 1_555 1_555
O2 S1 1_555 1_555
S2 C3 1_555 1_555
N1 Cu1 1_555 1_555
N2 C9 1_555 1_555
C1 N1 1_555 1_555
H1 C1 1_555 1_555
C2 C1 1_555 1_555
H2 C2 1_555 1_555
C3 C2 1_555 1_555
C4 C3 1_555 1_555
C7 S2 1_555 1_555
C8 C7 1_555 1_555
C9 C8 1_555 1_555
H7 C9 1_555 1_555
C10 N2 1_555 1_555
H8 C10 1_555 1_555
C11 C7 1_555 1_555
H9 C11 1_555 1_555
C12 C8 1_555 1_555
H10 C12 1_555 1_555
H11 C12 1_555 1_555
H12 C12 1_555 1_555
Cu2 N2 1_555 1_555
C10 C11 1_555 1_555
N6 Cu1_3 1_555 1_555
H4 C6 1_555 1_555
O3 S1_2 1_555 1_555
O4 S1_2 1_555 1_555
H16 C18 1_555 1_555
Cu3_3 O3 1_555 1_555
N5 Cu1_6 1_555 1_555
S3 C15 1_555 1_555
N3 Cu1_8 1_555 1_555
N4 C21 1_555 1_555
C13 N3 1_555 1_555
H13 C13 1_555 1_555
C14 C13 1_555 1_555
H14 C14 1_555 1_555
C15 C14 1_555 1_555
C16 C15 1_555 1_555
C19 S3 1_555 1_555
C20 C19 1_555 1_555
C21 C20 1_555 1_555
H19 C21 1_555 1_555
C22 N4 1_555 1_555
H20 C22 1_555 1_555
C23 C19 1_555 1_555
H21 C23 1_555 1_555
C24 C20 1_555 1_555
H22 C24 1_555 1_555
H23 C24 1_555 1_555
H24 C24 1_555 1_555
O5 Cu1_8 1_555 1_555
Cu2 N4 1_555 1_555
C22 C23 1_555 1_555
Cu1_9 O1_2 1_555 1_555
S1_3 O1_2 1_555 1_555
O2_2 S1_3 1_555 1_555
S2_2 C3_2 1_555 1_555
N1_2 Cu1_9 1_555 1_555
N2_2 C9_2 1_555 1_555
C1_2 N1_2 1_555 1_555
H1_2 C1_2 1_555 1_555
C2_2 C1_2 1_555 1_555
H2_2 C2_2 1_555 1_555
C3_2 C2_2 1_555 1_555
C4_2 C3_2 1_555 1_555
C5_2 N1_2 1_555 1_555
C7_2 S2_2 1_555 1_555
C8_2 C7_2 1_555 1_555
C9_2 C8_2 1_555 1_555
H7_2 C9_2 1_555 1_555
C10_2 N2_2 1_555 1_555
H8_2 C10_2 1_555 1_555
C11_2 C7_2 1_555 1_555
H9_2 C11_2 1_555 1_555
C12_2 C8_2 1_555 1_555
H10_2 C12_2 1_555 1_555
H11_2 C12_2 1_555 1_555
H12_2 C12_2 1_555 1_555
O3_2 S1_3 1_555 1_555
O4_2 S1_3 1_555 1_555
H16_2 C18_2 1_555 1_555
H18_2 C18_2 1_555 1_555
N6_2 Cu1_9 1_555 1_555
Cu3_4 N2_2 1_555 1_555
Cu2 O3_2 1_555 1_555
C4_2 C5_2 1_555 1_555
C10_2 C11_2 1_555 1_555
H4_2 C6_2 1_555 1_555
H6_2 C6_2 1_555 1_555
S3_2 C15_2 1_555 1_555
N3_2 Cu1_10 1_555 1_555
N4_2 C21_2 1_555 1_555
C13_2 N3_2 1_555 1_555
H13_2 C13_2 1_555 1_555
C14_2 C13_2 1_555 1_555
H14_2 C14_2 1_555 1_555
C15_2 C14_2 1_555 1_555
C16_2 C15_2 1_555 1_555
C17_2 N3_2 1_555 1_555
C19_2 S3_2 1_555 1_555
C20_2 C19_2 1_555 1_555
C21_2 C20_2 1_555 1_555
H19_2 C21_2 1_555 1_555
C22_2 N4_2 1_555 1_555
H20_2 C22_2 1_555 1_555
C23_2 C19_2 1_555 1_555
H21_2 C23_2 1_555 1_555
C24_2 C20_2 1_555 1_555
H22_2 C24_2 1_555 1_555
H23_2 C24_2 1_555 1_555
H24_2 C24_2 1_555 1_555
O5_2 Cu1_10 1_555 1_555
N5_2 Cu1_10 1_555 1_555
Cu3 N4_2 1_555 1_555
C16_2 C17_2 1_555 1_555
C22_2 C23_2 1_555 1_555
H3_3 C5_3 1_555 1_555
H4_3 C6_3 1_555 1_555
H5_3 C6_3 1_555 1_555
Cu3_2 O1_3 1_555 1_555
S1_4 O1_3 1_555 1_555
O2_3 S1_4 1_555 1_555
S2_3 C3_3 1_555 1_555
N1_3 Cu3_2 1_555 1_555
N5_2 C9_3 1_555 1_555
C1_3 N1_3 1_555 1_555
H1_3 C1_3 1_555 1_555
C2_3 C1_3 1_555 1_555
H2_3 C2_3 1_555 1_555
C3_3 C2_3 1_555 1_555
C4_3 C3_3 1_555 1_555
C7_3 S2_3 1_555 1_555
C8_3 C7_3 1_555 1_555
C9_3 C8_3 1_555 1_555
C10_3 N5_2 1_555 1_555
H8_3 C10_3 1_555 1_555
C11_3 C7_3 1_555 1_555
H9_3 C11_3 1_555 1_555
C12_3 C8_3 1_555 1_555
H11_3 C12_3 1_555 1_555
H12_3 C12_3 1_555 1_555
C10_3 C11_3 1_555 1_555
S3_3 C15_3 1_555 1_555
N3_3 Cu3_3 1_555 1_555
N6_2 C21_3 1_555 1_555
C13_3 N3_3 1_555 1_555
H13_3 C13_3 1_555 1_555
C14_3 C13_3 1_555 1_555
H14_3 C14_3 1_555 1_555
C15_3 C14_3 1_555 1_555
C16_3 C15_3 1_555 1_555
C19_3 S3_3 1_555 1_555
C20_3 C19_3 1_555 1_555
C21_3 C20_3 1_555 1_555
C22_3 N6_2 1_555 1_555
H20_3 C22_3 1_555 1_555
C23_3 C19_3 1_555 1_555
H21_3 C23_3 1_555 1_555
C24_3 C20_3 1_555 1_555
H23_3 C24_3 1_555 1_555
H24_3 C24_3 1_555 1_555
C22_3 C23_3 1_555 1_555
O5 S1_5 1_555 1_555
O4_3 S1_5 1_555 1_555
H15_3 C17_3 1_555 1_555
H16_3 C18_3 1_555 1_555
H17_3 C18_3 1_555 1_555
Cu2 O1_4 1_555 1_555
S1_6 O1_4 1_555 1_555
O2_4 S1_6 1_555 1_555
S2_4 C3_4 1_555 1_555
N1_4 Cu2 1_555 1_555
N5 C9_4 1_555 1_555
C1_4 N1_4 1_555 1_555
H1_4 C1_4 1_555 1_555
C2_4 C1_4 1_555 1_555
H2_4 C2_4 1_555 1_555
C3_4 C2_4 1_555 1_555
C4_4 C3_4 1_555 1_555
C5_4 N1_4 1_555 1_555
H3_4 C5_4 1_555 1_555
C6_4 C4_4 1_555 1_555
H4_4 C6_4 1_555 1_555
H5_4 C6_4 1_555 1_555
H6_4 C6_4 1_555 1_555
C7_4 S2_4 1_555 1_555
C8_4 C7_4 1_555 1_555
C9_4 C8_4 1_555 1_555
C10_4 N5 1_555 1_555
H8_4 C10_4 1_555 1_555
C11_4 C7_4 1_555 1_555
H9_4 C11_4 1_555 1_555
C12_4 C8_4 1_555 1_555
H11_4 C12_4 1_555 1_555
H12_4 C12_4 1_555 1_555
O5_2 S1_6 1_555 1_555
O4_4 S1_6 1_555 1_555
S3_4 C15_4 1_555 1_555
N3_4 Cu2 1_555 1_555
N6 C21_4 1_555 1_555
C13_4 N3_4 1_555 1_555
H13_4 C13_4 1_555 1_555
C14_4 C13_4 1_555 1_555
H14_4 C14_4 1_555 1_555
C15_4 C14_4 1_555 1_555
C16_4 C15_4 1_555 1_555
C17_4 N3_4 1_555 1_555
H15_4 C17_4 1_555 1_555
C18_4 C16_4 1_555 1_555
H16_4 C18_4 1_555 1_555
H17_4 C18_4 1_555 1_555
H18_4 C18_4 1_555 1_555
C19_4 S3_4 1_555 1_555
C20_4 C19_4 1_555 1_555
C21_4 C20_4 1_555 1_555
C22_4 N6 1_555 1_555
H20_4 C22_4 1_555 1_555
C23_4 C19_4 1_555 1_555
H21_4 C23_4 1_555 1_555
C24_4 C20_4 1_555 1_555
H23_4 C24_4 1_555 1_555
H24_4 C24_4 1_555 1_555
C4_4 C5_4 1_555 1_555
C10_4 C11_4 1_555 1_555
C16_4 C17_4 1_555 1_555
C22_4 C23_4 1_555 1_555

#END
