
###############################################################################
#
# This file contains modified crystal structure data generated from the
# MOF subset of the Cambridge Structural Database (CSD) v543 
# hosted by the Cambridge Crystallographic Data Centre (CCDC).
#
# This work is licensed under the Creative Commons
# Attribution-NonCommercial-ShareAlike 4.0 International License.
# To view a copy of this license, visit
# http://creativecommons.org/licenses/by-nc-sa/4.0/
# or send a letter to
# Creative Commons, PO Box 1866, Mountain View, CA 94042, USA.
#
# CIF created using the CSD Python API on 29 September 2022
# The structure has been converted into the P1 space group
# The structure has a 3D framework
# The original CSD entry ECUCIP is in the triclinic crystal system
# The framework has been calculated to contain at least 10.0% void space
# The void calculation uses a probe of radius 1.32A, grid spacing 0.4
# H atom positions have been added when not included in the experimental data
#
###############################################################################

data_ECUCIP
_chemical_formula_moiety         '(C24 H22 Eu2 O14)n'
_symmetry_cell_setting           triclinic
_symmetry_space_group_name_H-M   'P 1'
_symmetry_Int_Tables_number      1
_space_group_name_Hall           'P 1'
loop_
_symmetry_equiv_pos_site_id
_symmetry_equiv_pos_as_xyz
1 x,y,z
_cell_length_a                   7.727(2)
_cell_length_b                   9.705(3)
_cell_length_c                   10.580(3)
_cell_angle_alpha                106.61(3)
_cell_angle_beta                 105.28(3)
_cell_angle_gamma                100.69(3)
_cell_volume                     703.616
loop_
_atom_site_label
_atom_site_type_symbol
_atom_site_fract_x
_atom_site_fract_y
_atom_site_fract_z
Eu5 Eu 0.24655(2) 0.03189(2) 0.450704(19)
O5 O 0.0400(4) 0.8292(3) 0.2267(3)
O6 O 0.9329(3) 0.8606(3) 0.4023(3)
H2 H 0.5380 0.8019 0.0480
C5 C 0.6865(5) 0.6493(4) 0.0297(4)
C11 C 0.7425(6) 0.6633(5) 0.1818(4)
H8 H 0.6371 0.6770 0.2160
H9 H 0.7671 0.5690 0.1895
C12 C 0.9131(5) 0.7917(4) 0.2738(4)
Eu6 Eu 0.75345(2) 0.96811(2) 0.549296(19)
O1 O 0.4136(3) 0.3003(3) 0.5569(3)
O2 O 0.5975(4) 0.1572(3) 0.5854(3)
O3 O 0.3152(4) 0.9582(4) 0.6576(3)
O4 O 0.6053(3) 0.9333(3) 0.7120(3)
O7 O 0.0361(4) 0.1430(3) 0.3219(3)
C1 C 0.6902(5) 0.5413(4) 0.7941(4)
C2 C 0.5820(5) 0.6303(4) 0.7511(4)
H1 H 0.5487 0.6255 0.6565
C3 C 0.5222(5) 0.7259(4) 0.8446(4)
C4 C 0.5766(6) 0.7353(4) 0.9833(4)
C6 C 0.7409(5) 0.5513(4) 0.9332(4)
H3 H 0.8138 0.4904 0.9630
C7 C 0.7380(5) 0.4265(4) 0.6887(5)
H4 H 0.8454 0.3978 0.7382
H5 H 0.7757 0.4713 0.6235
C8 C 0.5744(5) 0.2880(4) 0.6061(4)
C9 C 0.3878(6) 0.8096(5) 0.7956(5)
H6 H 0.3680 0.8739 0.8788
H7 H 0.2661 0.7352 0.7355
C10 C 0.4424(5) 0.9070(4) 0.7153(4)
O10 O 0.3947(3) 0.0667(3) 0.2880(3)
O13 O 0.0671(3) 0.1394(3) 0.5977(3)
H10 H 0.101999 0.196395 0.273217
O8 O 0.4025(4) 0.8428(3) 0.4146(3)
O9 O 0.6848(4) 0.0418(4) 0.3424(3)
O11 O 0.9600(4) 0.1708(3) 0.7733(3)
O1_2 O 0.5864(3) 0.6997(3) 0.4431(3)
O7_2 O 0.9639(4) 0.8570(3) 0.6781(3)
C1_2 C 0.3098(5) 0.4587(4) 0.2059(4)
C2_2 C 0.4180(5) 0.3697(4) 0.2489(4)
H1_2 H 0.4513 0.3745 0.3435
C3_2 C 0.4778(5) 0.2741(4) 0.1554(4)
C4_2 C 0.4234(6) 0.2647(4) 0.0167(4)
C6_2 C 0.2591(5) 0.4487(4) 0.0668(4)
H3_2 H 0.1862 0.5096 0.0370
C7_2 C 0.2620(5) 0.5735(4) 0.3113(5)
H4_2 H 0.1546 0.6022 0.2618
H5_2 H 0.2243 0.5287 0.3765
C8_2 C 0.4256(5) 0.7120(4) 0.3939(4)
C9_2 C 0.6122(6) 0.1904(5) 0.2044(5)
H6_2 H 0.6320 0.1261 0.1212
H7_2 H 0.7339 0.2648 0.2645
C10_2 C 0.5576(5) 0.0930(4) 0.2847(4)
H10_2 H 0.898001 0.803605 0.726783
H2_2 H 0.4620 0.1981 0.9520
C5_2 C 0.3135(5) 0.3507(4) 0.9703(4)
C11_2 C 0.2575(6) 0.3367(5) 0.8182(4)
H8_2 H 0.3629 0.3230 0.7840
H9_2 H 0.2329 0.4310 0.8105
C12_2 C 0.0869(5) 0.2083(4) 0.7262(4)
H11 H 0.924209 0.062701 0.251873
H11_2 H 0.0757905 0.937299 0.748127
loop_
_geom_bond_atom_site_label_1
_geom_bond_atom_site_label_2
_geom_bond_site_symmetry_1
_geom_bond_site_symmetry_2
O6 C12 1_555 1_555
C11 C5 1_555 1_555
H8 C11 1_555 1_555
H9 C11 1_555 1_555
C12 C11 1_555 1_555
Eu6 O6 1_555 1_555
Eu5 O1 1_555 1_555
O1 C8 1_555 1_555
O2 Eu5 1_555 1_555
O3 C10 1_555 1_555
O4 C10 1_555 1_555
O7 Eu5 1_555 1_555
C1 C2 1_555 1_555
C2 H1 1_555 1_555
C3 C2 1_555 1_555
C4 C3 1_555 1_555
C6 C1 1_555 1_555
H3 C6 1_555 1_555
C7 C1 1_555 1_555
H4 C7 1_555 1_555
H5 C7 1_555 1_555
C8 O2 1_555 1_555
C9 C3 1_555 1_555
H6 C9 1_555 1_555
H7 C9 1_555 1_555
C10 C9 1_555 1_555
Eu6 O4 1_555 1_555
O10 Eu5 1_555 1_555
O13 Eu5 1_555 1_555
C7 C8 1_555 1_555
O7 H10 1_555 1_555
Eu6 O8 1_555 1_555
Eu6 O1_2 1_555 1_555
O1_2 C8_2 1_555 1_555
O9 C10_2 1_555 1_555
O10 C10_2 1_555 1_555
O7_2 Eu6 1_555 1_555
C1_2 C2_2 1_555 1_555
C2_2 H1_2 1_555 1_555
C3_2 C2_2 1_555 1_555
C4_2 C3_2 1_555 1_555
C6_2 C1_2 1_555 1_555
H3_2 C6_2 1_555 1_555
C7_2 C1_2 1_555 1_555
H4_2 C7_2 1_555 1_555
H5_2 C7_2 1_555 1_555
C8_2 O8 1_555 1_555
C9_2 C3_2 1_555 1_555
H6_2 C9_2 1_555 1_555
H7_2 C9_2 1_555 1_555
C10_2 C9_2 1_555 1_555
C7_2 C8_2 1_555 1_555
O7_2 H10_2 1_555 1_555
O13 C12_2 1_555 1_555
C11_2 C5_2 1_555 1_555
H8_2 C11_2 1_555 1_555
H9_2 C11_2 1_555 1_555
C12_2 C11_2 1_555 1_555

#END
