
###############################################################################
#
# This file contains modified crystal structure data generated from the
# MOF subset of the Cambridge Structural Database (CSD) v543 
# hosted by the Cambridge Crystallographic Data Centre (CCDC).
#
# This work is licensed under the Creative Commons
# Attribution-NonCommercial-ShareAlike 4.0 International License.
# To view a copy of this license, visit
# http://creativecommons.org/licenses/by-nc-sa/4.0/
# or send a letter to
# Creative Commons, PO Box 1866, Mountain View, CA 94042, USA.
#
# CIF created using the CSD Python API on 29 September 2022
# The structure has been converted into the P1 space group
# The structure has a 3D framework
# The original CSD entry ECUCOV is in the triclinic crystal system
# The framework has been calculated to contain at least 10.0% void space
# The void calculation uses a probe of radius 1.32A, grid spacing 0.4
# H atom positions have been added when not included in the experimental data
#
###############################################################################

data_ECUCOV
_chemical_formula_moiety         '(C24 H22 O14 Tb2)n'
_symmetry_cell_setting           triclinic
_symmetry_space_group_name_H-M   'P 1'
_symmetry_Int_Tables_number      1
_space_group_name_Hall           'P 1'
loop_
_symmetry_equiv_pos_site_id
_symmetry_equiv_pos_as_xyz
1 x,y,z
_cell_length_a                   7.673(3)
_cell_length_b                   9.661(3)
_cell_length_c                   10.533(4)
_cell_angle_alpha                106.54(3)
_cell_angle_beta                 105.28(3)
_cell_angle_gamma                100.62(3)
_cell_volume                     693.06
loop_
_atom_site_label
_atom_site_type_symbol
_atom_site_fract_x
_atom_site_fract_y
_atom_site_fract_z
Tb5 Tb 0.24673(2) 0.032355(19) 0.451129(18)
O6 O 0.0429(4) 0.8309(3) 0.2280(3)
O5 O 0.9348(4) 0.8613(3) 0.4037(3)
H2 H 0.5372 0.8018 0.0495
C5 C 0.6886(5) 0.6480(4) 0.0300(4)
C11 C 0.7447(6) 0.6621(5) 0.1822(4)
H8 H 0.7709 0.5678 0.1903
H9 H 0.6380 0.6749 0.2162
C12 C 0.9155(5) 0.7923(4) 0.2749(4)
Tb6 Tb 0.75327(2) 0.967645(19) 0.548871(18)
O1 O 0.4121(4) 0.2985(3) 0.5569(3)
O2 O 0.5990(4) 0.1570(3) 0.5836(3)
O3 O 0.6063(4) 0.9331(3) 0.7108(3)
O4 O 0.3158(4) 0.9605(3) 0.6570(3)
O7 O 0.0394(4) 0.1434(3) 0.3225(3)
C1 C 0.6909(5) 0.5411(4) 0.7940(4)
C2 C 0.5811(5) 0.6301(4) 0.7506(4)
H1 H 0.5470 0.6250 0.6555
C3 C 0.5214(5) 0.7261(4) 0.8449(4)
C4 C 0.5762(6) 0.7354(4) 0.9842(4)
C6 C 0.7423(5) 0.5510(4) 0.9337(4)
H3 H 0.8159 0.4898 0.9634
C7 C 0.7390(6) 0.4267(4) 0.6870(5)
H4 H 0.8481 0.3981 0.7358
H5 H 0.7751 0.4723 0.6213
C8 C 0.5739(5) 0.2870(4) 0.6046(4)
C9 C 0.3869(6) 0.8113(5) 0.7960(5)
H6 H 0.3674 0.8762 0.8796
H7 H 0.2641 0.7374 0.7357
C10 C 0.4437(5) 0.9092(4) 0.7155(4)
O9 O 0.3937(4) 0.0669(3) 0.2892(3)
O12 O 0.0652(4) 0.1387(3) 0.5963(3)
H10 H 0.106883 0.197215 0.274284
O8 O 0.4010(4) 0.8430(3) 0.4164(3)
O10 O 0.6842(4) 0.0395(3) 0.3430(3)
O13 O 0.9571(4) 0.1691(3) 0.7720(3)
O1_2 O 0.5879(4) 0.7015(3) 0.4431(3)
O7_2 O 0.9606(4) 0.8566(3) 0.6775(3)
C1_2 C 0.3091(5) 0.4589(4) 0.2060(4)
C2_2 C 0.4189(5) 0.3699(4) 0.2494(4)
H1_2 H 0.4530 0.3750 0.3445
C3_2 C 0.4786(5) 0.2739(4) 0.1551(4)
C4_2 C 0.4238(6) 0.2646(4) 0.0158(4)
C6_2 C 0.2577(5) 0.4490(4) 0.0663(4)
H3_2 H 0.1841 0.5102 0.0366
C7_2 C 0.2610(6) 0.5733(4) 0.3130(5)
H4_2 H 0.1519 0.6019 0.2642
H5_2 H 0.2249 0.5277 0.3787
C8_2 C 0.4261(5) 0.7130(4) 0.3954(4)
C9_2 C 0.6131(6) 0.1887(5) 0.2040(5)
H6_2 H 0.6326 0.1238 0.1204
H7_2 H 0.7359 0.2626 0.2643
C10_2 C 0.5563(5) 0.0908(4) 0.2845(4)
H10_2 H 0.893117 0.802785 0.725716
H2_2 H 0.4628 0.1982 0.9505
C5_2 C 0.3114(5) 0.3520(4) 0.9700(4)
C11_2 C 0.2553(6) 0.3379(5) 0.8178(4)
H8_2 H 0.2291 0.4322 0.8097
H9_2 H 0.3620 0.3251 0.7838
C12_2 C 0.0845(5) 0.2077(4) 0.7251(4)
H11 H 0.927179 0.0630729 0.25162
H11_2 H 0.0728212 0.936927 0.74838
loop_
_geom_bond_atom_site_label_1
_geom_bond_atom_site_label_2
_geom_bond_site_symmetry_1
_geom_bond_site_symmetry_2
O5 C12 1_555 1_555
C11 C5 1_555 1_555
H8 C11 1_555 1_555
H9 C11 1_555 1_555
C12 C11 1_555 1_555
Tb6 O5 1_555 1_555
Tb5 O1 1_555 1_555
O1 C8 1_555 1_555
O2 Tb5 1_555 1_555
O3 C10 1_555 1_555
O4 C10 1_555 1_555
O7 Tb5 1_555 1_555
C1 C2 1_555 1_555
C2 H1 1_555 1_555
C3 C2 1_555 1_555
C4 C3 1_555 1_555
C6 C1 1_555 1_555
H3 C6 1_555 1_555
C7 C1 1_555 1_555
H4 C7 1_555 1_555
H5 C7 1_555 1_555
C8 O2 1_555 1_555
C9 C3 1_555 1_555
H6 C9 1_555 1_555
H7 C9 1_555 1_555
C10 C9 1_555 1_555
Tb6 O3 1_555 1_555
O9 Tb5 1_555 1_555
O12 Tb5 1_555 1_555
C7 C8 1_555 1_555
O7 H10 1_555 1_555
Tb6 O8 1_555 1_555
Tb6 O1_2 1_555 1_555
O1_2 C8_2 1_555 1_555
O9 C10_2 1_555 1_555
O10 C10_2 1_555 1_555
O7_2 Tb6 1_555 1_555
C1_2 C2_2 1_555 1_555
C2_2 H1_2 1_555 1_555
C3_2 C2_2 1_555 1_555
C4_2 C3_2 1_555 1_555
C6_2 C1_2 1_555 1_555
H3_2 C6_2 1_555 1_555
C7_2 C1_2 1_555 1_555
H4_2 C7_2 1_555 1_555
H5_2 C7_2 1_555 1_555
C8_2 O8 1_555 1_555
C9_2 C3_2 1_555 1_555
H6_2 C9_2 1_555 1_555
H7_2 C9_2 1_555 1_555
C10_2 C9_2 1_555 1_555
C7_2 C8_2 1_555 1_555
O7_2 H10_2 1_555 1_555
O12 C12_2 1_555 1_555
C11_2 C5_2 1_555 1_555
H8_2 C11_2 1_555 1_555
H9_2 C11_2 1_555 1_555
C12_2 C11_2 1_555 1_555

#END
