
###############################################################################
#
# This file contains modified crystal structure data generated from the
# MOF subset of the Cambridge Structural Database (CSD) v543 
# hosted by the Cambridge Crystallographic Data Centre (CCDC).
#
# This work is licensed under the Creative Commons
# Attribution-NonCommercial-ShareAlike 4.0 International License.
# To view a copy of this license, visit
# http://creativecommons.org/licenses/by-nc-sa/4.0/
# or send a letter to
# Creative Commons, PO Box 1866, Mountain View, CA 94042, USA.
#
# CIF created using the CSD Python API on 29 September 2022
# The structure has been converted into the P1 space group
# The structure has a 3D framework
# The original CSD entry ECUDAI is in the triclinic crystal system
# The framework has been calculated to contain at least 10.0% void space
# The void calculation uses a probe of radius 1.32A, grid spacing 0.4
# H atom positions have been added when not included in the experimental data
#
###############################################################################

data_ECUDAI
_chemical_formula_moiety         '(C24 H26 Nd2 O16)n'
_symmetry_cell_setting           triclinic
_symmetry_space_group_name_H-M   'P 1'
_symmetry_Int_Tables_number      1
_space_group_name_Hall           'P 1'
loop_
_symmetry_equiv_pos_site_id
_symmetry_equiv_pos_as_xyz
1 x,y,z
_cell_length_a                   8.4735(7)
_cell_length_b                   10.8836(9)
_cell_length_c                   11.1301(2)
_cell_angle_alpha                64.333(19)
_cell_angle_beta                 80.33(3)
_cell_angle_gamma                73.76(2)
_cell_volume                     886.942
loop_
_atom_site_label
_atom_site_type_symbol
_atom_site_fract_x
_atom_site_fract_y
_atom_site_fract_z
O9 O 0.0032(5) 0.0485(5) 0.3670(4)
O5 O 0.2216(9) 0.2407(5) 0.3847(6)
O6 O 0.1889(10) 0.4591(7) 0.3570(9)
C6 C 0.0030(8) 0.6486(7) 0.0577(6)
H3 H 0.0952 0.6081 0.0144
C11 C 0.0159(10) 0.4085(7) 0.2432(8)
H8 H 0.0618 0.3759 0.1713
C12 C 0.1514(10) 0.3673(8) 0.3363(8)
Nd3 Nd 0.74826(3) 0.00318(3) 0.50269(3)
O7 O 0.7540(6) 0.2245(5) 0.5129(5)
O8 O 0.6157(7) 0.2127(5) 0.3045(5)
O12 O 0.4696(5) 0.0626(5) 0.5870(4)
H10 H 0.858929 0.25124 0.469756
H11 H 0.660017 0.299779 0.465428
H12 H 0.696737 0.23158 0.226872
H13 H 0.519392 0.193126 0.282012
O2 O 0.2380(6) 0.0592(6) 0.2481(4)
C1 C 0.0661(8) 0.2073(7) 0.0016(6)
C8 C 0.0829(7) 0.0756(6) 0.2525(6)
O10 O 0.2173(5) 0.0902(6) 0.6742(5)
C2 C 0.2021(8) 0.1488(7) 0.9372(6)
H1 H 0.2504 0.0512 0.9767
C3 C 0.2669(8) 0.2330(7) 0.8156(7)
C4 C 0.1963(8) 0.3757(7) 0.7588(7)
H2 H 0.2414 0.4330 0.6758
C5 C 0.0618(8) 0.4363(7) 0.8203(6)
C9 C 0.4103(8) 0.1686(8) 0.7444(7)
H6 H 0.4680 0.2422 0.6829
H7 H 0.4887 0.0963 0.8111
C10 C 0.3623(8) 0.1023(7) 0.6652(6)
H9 H 0.0714 0.6414 0.7061
C7 C 0.9902(9) 0.1169(8) 0.1316(7)
H4 H 0.9831 0.0307 0.1251
H5 H 0.8765 0.1681 0.1442
C7_2 C 0.0098(9) 0.8831(8) 0.8684(7)
H4_2 H 0.0169 0.9693 0.8749
H5_2 H 0.1235 0.8319 0.8558
Nd2 Nd 0.25174(3) 0.99682(3) 0.49731(3)
O3 O 0.7827(5) 0.9098(6) 0.3258(5)
O4 O 0.5304(5) 0.9374(5) 0.4130(4)
C2_2 C 0.7979(8) 0.8512(7) 0.0628(6)
H1_2 H 0.7496 0.9488 0.0233
C3_2 C 0.7331(8) 0.7670(7) 0.1844(7)
C4_2 C 0.8037(8) 0.6243(7) 0.2412(7)
H2_2 H 0.7586 0.5670 0.3242
C5_2 C 0.9382(8) 0.5637(7) 0.1797(6)
C9_2 C 0.5897(8) 0.8314(8) 0.2556(7)
H6_2 H 0.5320 0.7578 0.3171
H7_2 H 0.5113 0.9037 0.1889
C10_2 C 0.6377(8) 0.8977(7) 0.3348(6)
H9_2 H 0.9286 0.3586 0.2939
O1 O 0.9968(5) 0.9515(5) 0.6330(4)
O2_2 O 0.7620(6) 0.9408(6) 0.7519(4)
C1_2 C 0.9339(8) 0.7927(7) 0.9984(6)
C8_2 C 0.9171(7) 0.9244(6) 0.7475(6)
O13 O 0.7784(9) 0.7593(5) 0.6153(6)
O7_2 O 0.2460(6) 0.7755(5) 0.4871(5)
O8_2 O 0.3843(7) 0.7873(5) 0.6955(5)
H10_2 H 0.141071 0.74876 0.530244
H11_2 H 0.339983 0.700221 0.534572
H12_2 H 0.303263 0.76842 0.773128
H13_2 H 0.480608 0.806874 0.717988
O6_2 O 0.8111(10) 0.5409(7) 0.6430(9)
C6_2 C 0.9970(8) 0.3514(7) 0.9423(6)
H3_2 H 0.9048 0.3919 0.9856
C11_2 C 0.9841(10) 0.5915(7) 0.7568(8)
H8_2 H 0.9382 0.6241 0.8287
C12_2 C 0.8486(10) 0.6327(8) 0.6637(8)
loop_
_geom_bond_atom_site_label_1
_geom_bond_atom_site_label_2
_geom_bond_site_symmetry_1
_geom_bond_site_symmetry_2
O5 C12 1_555 1_555
O6 C12 1_555 1_555
H3 C6 1_555 1_555
H8 C11 1_555 1_555
C12 C11 1_555 1_555
O7 Nd3 1_555 1_555
O8 Nd3 1_555 1_555
O12 Nd3 1_555 1_555
O7 H10 1_555 1_555
O7 H11 1_555 1_555
O8 H12 1_555 1_555
O8 H13 1_555 1_555
O9 C8 1_555 1_555
C8 O2 1_555 1_555
O10 C10 1_555 1_555
O12 C10 1_555 1_555
C2 H1 1_555 1_555
C3 C2 1_555 1_555
C4 C3 1_555 1_555
H2 C4 1_555 1_555
C5 C4 1_555 1_555
C9 C3 1_555 1_555
H6 C9 1_555 1_555
H7 C9 1_555 1_555
C10 C9 1_555 1_555
H4 C7 1_555 1_555
H5 C7 1_555 1_555
H4_2 C7_2 1_555 1_555
H5_2 C7_2 1_555 1_555
O3 C10_2 1_555 1_555
O4 C10_2 1_555 1_555
C2_2 H1_2 1_555 1_555
C3_2 C2_2 1_555 1_555
C4_2 C3_2 1_555 1_555
H2_2 C4_2 1_555 1_555
C5_2 C4_2 1_555 1_555
C9_2 C3_2 1_555 1_555
H6_2 C9_2 1_555 1_555
H7_2 C9_2 1_555 1_555
C10_2 C9_2 1_555 1_555
Nd2 O4 1_555 1_555
O1 C8_2 1_555 1_555
C8_2 O2_2 1_555 1_555
O7_2 Nd2 1_555 1_555
O8_2 Nd2 1_555 1_555
O7_2 H10_2 1_555 1_555
O7_2 H11_2 1_555 1_555
O8_2 H12_2 1_555 1_555
O8_2 H13_2 1_555 1_555
O13 C12_2 1_555 1_555
O6_2 C12_2 1_555 1_555
H3_2 C6_2 1_555 1_555
H8_2 C11_2 1_555 1_555
C12_2 C11_2 1_555 1_555

#END
