
###############################################################################
#
# This file contains modified crystal structure data generated from the
# MOF subset of the Cambridge Structural Database (CSD) v543 
# hosted by the Cambridge Crystallographic Data Centre (CCDC).
#
# This work is licensed under the Creative Commons
# Attribution-NonCommercial-ShareAlike 4.0 International License.
# To view a copy of this license, visit
# http://creativecommons.org/licenses/by-nc-sa/4.0/
# or send a letter to
# Creative Commons, PO Box 1866, Mountain View, CA 94042, USA.
#
# CIF created using the CSD Python API on 29 September 2022
# The structure has been converted into the P1 space group
# The structure has a 3D framework
# The original CSD entry ECUDEM is in the triclinic crystal system
# The framework has been calculated to contain at least 10.0% void space
# The void calculation uses a probe of radius 1.32A, grid spacing 0.4
# H atom positions have been added when not included in the experimental data
#
###############################################################################

data_ECUDEM
_chemical_formula_moiety         '(C24 H26 O16 Sm2)n'
_symmetry_cell_setting           triclinic
_symmetry_space_group_name_H-M   'P 1'
_symmetry_Int_Tables_number      1
_space_group_name_Hall           'P 1'
loop_
_symmetry_equiv_pos_site_id
_symmetry_equiv_pos_as_xyz
1 x,y,z
_cell_length_a                   8.4310(11)
_cell_length_b                   10.841(2)
_cell_length_c                   11.11400(10)
_cell_angle_alpha                64.43(4)
_cell_angle_beta                 80.44(6)
_cell_angle_gamma                73.82(5)
_cell_volume                     878.807
loop_
_atom_site_label
_atom_site_type_symbol
_atom_site_fract_x
_atom_site_fract_y
_atom_site_fract_z
O1 O 0.4717(15) 0.0612(13) 0.0860(12)
O2 O 0.220(2) 0.0869(16) 0.1761(16)
O3 O 0.2927(13) 0.0095(11) 0.7723(11)
C1 C 0.269(2) 0.232(2) 0.3172(19)
C2 C 0.203(2) 0.1445(18) 0.4409(17)
H1 H 0.2492 0.0462 0.4812
C3 C 0.068(2) 0.209(2) 0.5008(19)
C5 C 0.066(2) 0.439(2) 0.3194(19)
C6 C 0.195(3) 0.375(2) 0.261(2)
H3 H 0.2373 0.4306 0.1759
C7 C 0.413(2) 0.165(2) 0.245(2)
H4 H 0.4725 0.2380 0.1842
H5 H 0.4911 0.0916 0.3120
C8 C 0.364(2) 0.1010(19) 0.1663(18)
C10 C 0.1125(16) 0.077(2) 0.747(2)
H9 H 0.0695 0.6456 0.2046
Sm2 Sm 0.74862(10) 0.00371(9) 0.00223(9)
O13 O 0.215(2) 0.2372(17) 0.8885(18)
O8 O 0.386(2) 0.7879(15) 0.1932(15)
Sm3 Sm 0.25138(10) 0.99629(9) 0.99777(9)
O12 O 0.0009(13) 0.9488(11) 0.1311(11)
H10 H 0.36634 0.810872 0.272587
H11 H 0.338275 0.706885 0.212287
H12 H 0.248365 0.701261 0.0787447
O7 O 0.2442(18) 0.7771(14) 0.9872(15)
O9 O 0.5283(15) 0.9388(13) 0.9140(12)
H13 H 0.140514 0.790353 0.94723
O4 O 0.9991(13) 0.0512(11) 0.8689(11)
O5 O 0.785(2) 0.7628(17) 0.1115(18)
O6 O 0.817(3) 0.542(2) 0.139(2)
C4 C 0.998(3) 0.353(2) 0.439(2)
H2 H 0.9024 0.3938 0.4797
C9 C 0.991(3) 0.121(3) 0.630(2)
H6 H 0.9771 0.0356 0.6244
H7 H 0.8811 0.1744 0.6480
C11 C 0.983(3) 0.594(2) 0.254(2)
H8 H 0.9328 0.6263 0.3250
C12 C 0.851(3) 0.633(2) 0.159(2)
O6_2 O 0.183(3) 0.458(2) 0.861(2)
C4_2 C 0.002(3) 0.647(2) 0.561(2)
H2_2 H 0.0976 0.6062 0.5203
C9_2 C 0.009(3) 0.879(3) 0.370(2)
H6_2 H 0.0229 0.9644 0.3756
H7_2 H 0.1189 0.8256 0.3520
C11_2 C 0.017(3) 0.406(2) 0.746(2)
H8_2 H 0.0672 0.3737 0.6750
C12_2 C 0.149(3) 0.367(2) 0.841(2)
O7_2 O 0.7558(18) 0.2229(14) 0.0128(15)
H13_2 H 0.859486 0.209647 0.0527696
O8_2 O 0.614(2) 0.2121(15) 0.8068(15)
H10_2 H 0.63366 0.189128 0.727413
H11_2 H 0.661725 0.293115 0.787713
H12_2 H 0.751635 0.298739 0.921255
O10 O 0.7073(13) 0.9905(11) 0.2277(11)
O2_2 O 0.780(2) 0.9131(16) 0.8239(16)
C1_2 C 0.731(2) 0.768(2) 0.6828(19)
C2_2 C 0.797(2) 0.8555(18) 0.5591(17)
H1_2 H 0.7508 0.9538 0.5188
C3_2 C 0.932(2) 0.791(2) 0.4992(19)
C5_2 C 0.934(2) 0.561(2) 0.6806(19)
C6_2 C 0.805(3) 0.625(2) 0.739(2)
H3_2 H 0.7627 0.5694 0.8241
C7_2 C 0.587(2) 0.835(2) 0.755(2)
H4_2 H 0.5275 0.7620 0.8158
H5_2 H 0.5089 0.9084 0.6880
C8_2 C 0.636(2) 0.8990(19) 0.8337(18)
C10_2 C 0.8875(16) 0.923(2) 0.253(2)
H9_2 H 0.9305 0.3544 0.7954
loop_
_geom_bond_atom_site_label_1
_geom_bond_atom_site_label_2
_geom_bond_site_symmetry_1
_geom_bond_site_symmetry_2
O1 C8 1_555 1_555
O3 C10 1_555 1_555
C1 C2 1_555 1_555
C2 H1 1_555 1_555
C3 C2 1_555 1_555
C6 C1 1_555 1_555
H3 C6 1_555 1_555
C7 C1 1_555 1_555
H4 C7 1_555 1_555
H5 C7 1_555 1_555
C8 O2 1_555 1_555
Sm2 O1 1_555 1_555
C5 C6 1_555 1_555
C7 C8 1_555 1_555
O8 H10 1_555 1_555
O8 H11 1_555 1_555
O7 Sm3 1_555 1_555
O9 Sm3 1_555 1_555
O7 H13 1_555 1_555
O5 C12 1_555 1_555
O6 C12 1_555 1_555
H2 C4 1_555 1_555
H6 C9 1_555 1_555
H7 C9 1_555 1_555
H8 C11 1_555 1_555
C12 C11 1_555 1_555
O13 C12_2 1_555 1_555
O6_2 C12_2 1_555 1_555
H2_2 C4_2 1_555 1_555
H6_2 C9_2 1_555 1_555
H7_2 C9_2 1_555 1_555
H8_2 C11_2 1_555 1_555
C12_2 C11_2 1_555 1_555
O7_2 Sm2 1_555 1_555
O7_2 H13_2 1_555 1_555
O8_2 H10_2 1_555 1_555
O8_2 H11_2 1_555 1_555
O9 C8_2 1_555 1_555
O10 C10_2 1_555 1_555
C1_2 C2_2 1_555 1_555
C2_2 H1_2 1_555 1_555
C3_2 C2_2 1_555 1_555
C6_2 C1_2 1_555 1_555
H3_2 C6_2 1_555 1_555
C7_2 C1_2 1_555 1_555
H4_2 C7_2 1_555 1_555
H5_2 C7_2 1_555 1_555
C8_2 O2_2 1_555 1_555
C5_2 C6_2 1_555 1_555
C7_2 C8_2 1_555 1_555

#END
