
###############################################################################
#
# This file contains modified crystal structure data generated from the
# MOF subset of the Cambridge Structural Database (CSD) v543 
# hosted by the Cambridge Crystallographic Data Centre (CCDC).
#
# This work is licensed under the Creative Commons
# Attribution-NonCommercial-ShareAlike 4.0 International License.
# To view a copy of this license, visit
# http://creativecommons.org/licenses/by-nc-sa/4.0/
# or send a letter to
# Creative Commons, PO Box 1866, Mountain View, CA 94042, USA.
#
# CIF created using the CSD Python API on 29 September 2022
# The structure has been converted into the P1 space group
# The structure has a 3D framework
# The original CSD entry ECUTON is in the monoclinic crystal system
# The framework has been calculated to contain at least 10.0% void space
# The void calculation uses a probe of radius 1.32A, grid spacing 0.4
#
###############################################################################

data_ECUTON
_chemical_formula_moiety         '(C64 H60 N28 O16 Zn4)n'
_symmetry_cell_setting           triclinic
_symmetry_space_group_name_H-M   'P 1'
_symmetry_Int_Tables_number      1
_space_group_name_Hall           'P 1'
loop_
_symmetry_equiv_pos_site_id
_symmetry_equiv_pos_as_xyz
1 x,y,z
_cell_length_a                   9.417(9)
_cell_length_b                   13.128(12)
_cell_length_c                   15.913(14)
_cell_angle_alpha                90
_cell_angle_beta                 90.00
_cell_angle_gamma                90
_cell_volume                     1967.27
loop_
_atom_site_label
_atom_site_type_symbol
_atom_site_fract_x
_atom_site_fract_y
_atom_site_fract_z
Zn3 Zn 0.26853(8) 0.83006(6) 0.30100(5)
O7 O 0.2229(5) 0.7409(4) 0.2060(3)
C17 C 0.4203(7) 0.6613(5) 0.0197(4)
H16 H 0.5043 0.6967 0.0293
C19 C 0.3118(7) 0.6633(5) 0.0816(4)
O10 O 0.4514(6) 0.7581(4) 0.1747(3)
C21 C 0.3331(8) 0.7243(5) 0.1595(4)
C22 C 0.1891(7) 0.6084(5) 0.0694(4)
H17 H 0.1176 0.6081 0.1098
O2 O 0.7771(5) 0.2591(4) 0.7940(3)
C1 C 0.5797(7) 0.3387(5) 0.9803(4)
H1 H 0.4957 0.3033 0.9707
C3 C 0.6882(7) 0.3367(5) 0.9184(4)
O3 O 0.5486(6) 0.2419(4) 0.8253(3)
C5 C 0.6669(8) 0.2757(5) 0.8405(4)
C6 C 0.8109(7) 0.3916(5) 0.9306(4)
H2 H 0.8824 0.3919 0.8902
H12 H 0.0060 0.1666 0.9073
C16 C 0.0260(13) 0.0303(7) 0.9676(6)
H15 H 0.1270 0.0398 0.9770
Zn6 Zn 0.73147(8) 0.16994(6) 0.69900(5)
H27 H 0.9940 0.8334 0.0927
C32 C 0.9740(13) 0.9697(7) 0.0324(6)
H30 H 0.8730 0.9602 0.0230
H7 H 0.4117 0.0846 0.9863
H8 H 0.5747 0.0835 0.9670
N11 N 0.6838(6) 0.0377(4) 0.7555(4)
C27 C 0.5591(9) 0.0162(6) 0.7912(5)
H21 H 0.4733 0.0469 0.7772
O1 O 0.1256(5) 0.8373(4) 0.3915(3)
N2 N 0.4289(6) 0.7809(4) 0.3714(3)
H1_2 H 0.0043 0.8033 0.5293
N3 N 0.5221(6) 0.6958(4) 0.4717(4)
N4 N 0.3162(6) 0.9623(4) 0.2445(4)
C2 C 0.0141(7) 0.8869(6) 0.3774(4)
N7 N 0.6233(7) 0.7012(5) 0.4110(5)
C10 C 0.4067(8) 0.7435(5) 0.4467(4)
H5 H 0.3231 0.7496 0.4774
C11 C 0.4409(9) 0.9838(6) 0.2088(5)
H6 H 0.5267 0.9531 0.2228
C14 C 0.5625(8) 0.7530(6) 0.3521(5)
H11 H 0.6066 0.7693 0.3016
C15 C 0.5389(9) 0.6335(6) 0.5451(5)
H12_2 H 0.4940 0.6666 0.5927
H13 H 0.6391 0.6260 0.5576
C16_2 C 0.4740(13) 0.5303(7) 0.5324(6)
H14 H 0.4843 0.4926 0.5844
H15_2 H 0.3730 0.5398 0.5230
O6 O 0.8744(5) 0.1627(4) 0.6085(3)
N9 N 0.5711(6) 0.2191(4) 0.6286(3)
N10 N 0.4779(6) 0.3042(4) 0.5283(4)
N15 N 0.3767(7) 0.2988(5) 0.5890(5)
C26 C 0.5933(8) 0.2565(5) 0.5533(4)
H20 H 0.6769 0.2504 0.5226
H22 H 0.5883 0.9154 0.0137
H23 H 0.4253 0.9165 0.0330
C30 C 0.4375(8) 0.2470(6) 0.6479(5)
H26 H 0.3934 0.2307 0.6984
C31 C 0.4611(9) 0.3665(6) 0.4549(5)
H27_2 H 0.5060 0.3334 0.4073
H28 H 0.3609 0.3740 0.4424
C32_2 C 0.5260(13) 0.4697(7) 0.4676(6)
H29 H 0.5157 0.5074 0.4156
H30_2 H 0.6270 0.4602 0.4770
H16_2 H 0.9957 0.1967 0.4707
C18 C 0.9859(7) 0.1131(6) 0.6226(4)
Zn5 Zn 0.76853(8) 0.66994(6) 0.80100(5)
O5 O 0.6256(5) 0.6627(4) 0.8915(3)
C18_2 C 0.5141(7) 0.6131(6) 0.8774(4)
C20 C 0.4040(7) 0.6083(5) 0.9463(4)
N13 N 0.0520(6) 0.4937(5) 0.9769(4)
C23 C 0.1749(7) 0.5539(5) 0.9956(4)
C24 C 0.2811(8) 0.5532(5) 0.9357(4)
H18 H 0.2692 0.5147 0.8872
O11 O 0.4925(6) 0.5727(5) 0.8096(4)
N3_2 N 0.9779(6) 0.1958(4) 0.0283(4)
N7_2 N 0.8767(7) 0.2012(5) 0.0890(5)
H6_2 H 0.9733 0.4531 0.2772
C12 C 0.9978(10) 0.5570(6) 0.4956(6)
H8_2 H 0.9253 0.5835 0.5330
C13 C 0.9678(10) 0.5939(6) 0.4087(5)
H9 H 0.8739 0.5716 0.3917
H10 H 0.9692 0.6678 0.4079
C14_2 C 0.9375(8) 0.2530(6) 0.1479(5)
H11_2 H 0.8934 0.2693 0.1984
N8 N 0.7238(9) 0.4743(6) 0.7042(5)
N11_2 N 0.8162(6) 0.5377(4) 0.7445(4)
N14 N 0.9254(7) 0.4457(4) 0.6513(4)
C25 C 0.7880(8) 0.4196(5) 0.6464(4)
H19 H 0.7469 0.3728 0.6098
C27_2 C 0.9409(9) 0.5162(6) 0.7088(5)
H22_2 H 0.9117 0.4154 0.4863
H29_2 H 0.9843 0.0074 0.0844
O8 O 0.7229(5) 0.7591(4) 0.7060(3)
N9_2 N 0.9289(6) 0.7191(4) 0.8714(3)
C26_2 C 0.9067(8) 0.7565(5) 0.9467(4)
H20_2 H 0.8231 0.7504 0.9774
C1_2 C 0.9203(7) 0.8387(5) 0.5197(4)
C3_2 C 0.8118(7) 0.8367(5) 0.5816(4)
C4 C 0.9040(7) 0.8917(5) 0.4463(4)
O3_2 O 0.9514(6) 0.7419(4) 0.6747(3)
C5_2 C 0.8331(8) 0.7757(5) 0.6595(4)
C6_2 C 0.6891(7) 0.8916(5) 0.5694(4)
H2_2 H 0.6176 0.8919 0.6098
C7 C 0.6749(7) 0.9461(5) 0.4956(4)
C8 C 0.7811(8) 0.9468(5) 0.4357(4)
H3 H 0.7692 0.9853 0.3872
O4 O 0.9925(6) 0.9273(5) 0.3096(4)
N13_2 N 0.4480(6) 0.9937(5) 0.5231(4)
Zn1 Zn 0.23147(8) 0.33006(6) 0.19900(5)
N1 N 0.2762(9) 0.5257(6) 0.2958(5)
O1_2 O 0.3744(5) 0.3373(4) 0.1085(3)
N2_2 N 0.0711(6) 0.2809(4) 0.1286(3)
N4_2 N 0.1838(6) 0.4623(4) 0.2555(4)
C2_2 C 0.4859(7) 0.3869(6) 0.1226(4)
C4_2 C 0.5960(7) 0.3917(5) 0.0537(4)
N5 N 0.9480(6) 0.5063(5) 0.0231(4)
N6 N 0.0746(7) 0.5543(4) 0.3487(4)
C7_2 C 0.8251(7) 0.4461(5) 0.0044(4)
C8_2 C 0.7189(8) 0.4468(5) 0.0643(4)
H3_2 H 0.7308 0.4853 0.1128
O4_2 O 0.5075(6) 0.4273(5) 0.1904(4)
C9 C 0.2120(8) 0.5804(5) 0.3536(4)
H4 H 0.2531 0.6272 0.3902
C10_2 C 0.0933(8) 0.2435(5) 0.0533(4)
H5_2 H 0.1769 0.2496 0.0226
C11_2 C 0.0591(9) 0.4838(6) 0.2912(5)
H7_2 H 0.0883 0.5846 0.5137
O9 O 0.2771(5) 0.2409(4) 0.2940(3)
H21_2 H 0.0267 0.5469 0.7228
C28 C 0.0022(10) 0.4430(6) 0.5044(6)
H23_2 H 0.0747 0.4165 0.4670
C29 C 0.0322(10) 0.4061(6) 0.5913(5)
H24 H 0.1261 0.4284 0.6083
H25 H 0.0308 0.3322 0.5921
H14_2 H 0.0157 0.9926 0.9156
N10_2 N 0.0221(6) 0.8042(4) 0.9717(4)
N15_2 N 0.1233(7) 0.7988(5) 0.9110(5)
C30_2 C 0.0625(8) 0.7470(6) 0.8521(5)
H26_2 H 0.1066 0.7307 0.8016
N5_2 N 0.5520(6) 0.0063(5) 0.4769(4)
C17_2 C 0.0797(7) 0.1613(5) 0.4803(4)
C19_2 C 0.1882(7) 0.1633(5) 0.4184(4)
C20_2 C 0.0960(7) 0.1083(5) 0.5537(4)
O10_2 O 0.0486(6) 0.2581(4) 0.3253(3)
C21_2 C 0.1669(8) 0.2243(5) 0.3405(4)
C22_2 C 0.3109(7) 0.1084(5) 0.4306(4)
H17_2 H 0.3824 0.1081 0.3902
C23_2 C 0.3251(7) 0.0539(5) 0.5044(4)
C24_2 C 0.2189(8) 0.0532(5) 0.5643(4)
H18_2 H 0.2308 0.0147 0.6128
O11_2 O 0.0075(6) 0.0727(5) 0.6904(4)
C31_2 C 0.0389(9) 0.8665(6) 0.0451(5)
H28_2 H 0.1391 0.8740 0.0576
C15_2 C 0.9611(9) 0.1335(6) 0.9549(5)
H13_2 H 0.8609 0.1260 0.9424
N1_2 N 0.2238(9) 0.0257(6) 0.2042(5)
N6_2 N 0.4254(7) 0.0543(4) 0.1513(4)
C9_2 C 0.2880(8) 0.0804(5) 0.1464(4)
H4_2 H 0.2469 0.1272 0.1098
C12_2 C 0.5022(10) 0.0570(6) 0.0044(6)
C13_2 C 0.5322(10) 0.0939(6) 0.0913(5)
H9_2 H 0.6261 0.0716 0.1083
H10_2 H 0.5308 0.1678 0.0921
N8_2 N 0.7762(9) 0.9743(6) 0.7958(5)
N14_2 N 0.5746(7) 0.9457(4) 0.8487(4)
C25_2 C 0.7120(8) 0.9196(5) 0.8536(4)
H19_2 H 0.7531 0.8728 0.8902
C28_2 C 0.4978(10) 0.9430(6) 0.9956(6)
C29_2 C 0.4678(10) 0.9061(6) 0.9087(5)
H24_2 H 0.3739 0.9284 0.8917
H25_2 H 0.4692 0.8322 0.9079
loop_
_geom_bond_atom_site_label_1
_geom_bond_atom_site_label_2
_geom_bond_site_symmetry_1
_geom_bond_site_symmetry_2
Zn3 O7 1_555 1_555
O7 C21 1_555 1_555
C17 H16 1_555 1_555
C19 C17 1_555 1_555
O10 C21 1_555 1_555
C21 C19 1_555 1_555
C22 C19 1_555 1_555
H17 C22 1_555 1_555
O2 C5 1_555 1_555
C1 H1 1_555 1_555
C3 C1 1_555 1_555
O3 C5 1_555 1_555
C5 C3 1_555 1_555
C6 C3 1_555 1_555
H2 C6 1_555 1_555
H15 C16 1_555 1_555
Zn6 O2 1_555 1_555
H30 C32 1_555 1_555
Zn6 N11 1_555 1_555
N11 C27 1_555 1_555
H21 C27 1_555 1_555
Zn3 O1 1_555 1_555
O1 C2 1_555 1_555
N2 Zn3 1_555 1_555
N3 N7 1_555 1_555
N4 Zn3 1_555 1_555
N7 C14 1_555 1_555
C10 N2 1_555 1_555
H5 C10 1_555 1_555
C11 N4 1_555 1_555
H6 C11 1_555 1_555
C14 N2 1_555 1_555
H11 C14 1_555 1_555
C15 N3 1_555 1_555
H12_2 C15 1_555 1_555
H13 C15 1_555 1_555
C16_2 C15 1_555 1_555
H14 C16_2 1_555 1_555
H15_2 C16_2 1_555 1_555
Zn6 O6 1_555 1_555
N9 Zn6 1_555 1_555
N10 N15 1_555 1_555
N15 C30 1_555 1_555
C26 N9 1_555 1_555
H20 C26 1_555 1_555
C30 N9 1_555 1_555
H26 C30 1_555 1_555
C31 N10 1_555 1_555
H27_2 C31 1_555 1_555
H28 C31 1_555 1_555
C32_2 C16_2 1_555 1_555
H29 C32_2 1_555 1_555
H30_2 C32_2 1_555 1_555
N3 C10 1_555 1_555
N10 C26 1_555 1_555
C31 C32_2 1_555 1_555
O6 C18 1_555 1_555
Zn5 O5 1_555 1_555
O5 C18_2 1_555 1_555
C18_2 C20 1_555 1_555
C23 N13 1_555 1_555
C24 C20 1_555 1_555
H18 C24 1_555 1_555
O11 C18_2 1_555 1_555
C23 C24 1_555 1_555
N3_2 N7_2 1_555 1_555
N7_2 C14_2 1_555 1_555
H8_2 C12 1_555 1_555
H9 C13 1_555 1_555
H10 C13 1_555 1_555
H11_2 C14_2 1_555 1_555
Zn5 N11_2 1_555 1_555
N8 N11_2 1_555 1_555
N11_2 C27_2 1_555 1_555
N14 C25 1_555 1_555
C25 N8 1_555 1_555
H19 C25 1_555 1_555
C27_2 N14 1_555 1_555
C12 C13 1_555 1_555
O8 Zn5 1_555 1_555
N9_2 Zn5 1_555 1_555
C26_2 N9_2 1_555 1_555
H20_2 C26_2 1_555 1_555
O8 C5_2 1_555 1_555
C3_2 C1_2 1_555 1_555
C4 C1_2 1_555 1_555
O3_2 C5_2 1_555 1_555
C5_2 C3_2 1_555 1_555
C6_2 C3_2 1_555 1_555
H2_2 C6_2 1_555 1_555
C7 C6_2 1_555 1_555
C8 C4 1_555 1_555
H3 C8 1_555 1_555
C7 C8 1_555 1_555
Zn1 O1_2 1_555 1_555
N1 N4_2 1_555 1_555
O1_2 C2_2 1_555 1_555
N2_2 Zn1 1_555 1_555
N4_2 Zn1 1_555 1_555
C2_2 C4_2 1_555 1_555
N5 C7_2 1_555 1_555
N6 C9 1_555 1_555
C8_2 C4_2 1_555 1_555
H3_2 C8_2 1_555 1_555
O4_2 C2_2 1_555 1_555
C9 N1 1_555 1_555
H4 C9 1_555 1_555
C10_2 N2_2 1_555 1_555
H5_2 C10_2 1_555 1_555
C11_2 N4_2 1_555 1_555
O9 Zn1 1_555 1_555
H23_2 C28 1_555 1_555
H24 C29 1_555 1_555
H25 C29 1_555 1_555
N6 C11_2 1_555 1_555
C7_2 C8_2 1_555 1_555
C28 C29 1_555 1_555
N10_2 N15_2 1_555 1_555
N15_2 C30_2 1_555 1_555
H26_2 C30_2 1_555 1_555
O9 C21_2 1_555 1_555
C19_2 C17_2 1_555 1_555
C20_2 C17_2 1_555 1_555
O10_2 C21_2 1_555 1_555
C21_2 C19_2 1_555 1_555
C22_2 C19_2 1_555 1_555
H17_2 C22_2 1_555 1_555
C24_2 C20_2 1_555 1_555
H18_2 C24_2 1_555 1_555
C22_2 C23_2 1_555 1_555
C23_2 C24_2 1_555 1_555
H28_2 C31_2 1_555 1_555
H13_2 C15_2 1_555 1_555
N6_2 C9_2 1_555 1_555
C9_2 N1_2 1_555 1_555
H4_2 C9_2 1_555 1_555
C13_2 N6_2 1_555 1_555
H9_2 C13_2 1_555 1_555
H10_2 C13_2 1_555 1_555
C12_2 C13_2 1_555 1_555
N14_2 C25_2 1_555 1_555
C25_2 N8_2 1_555 1_555
H19_2 C25_2 1_555 1_555
C29_2 N14_2 1_555 1_555
H24_2 C29_2 1_555 1_555
H25_2 C29_2 1_555 1_555
C28_2 C29_2 1_555 1_555

#END
