
###############################################################################
#
# This file contains modified crystal structure data generated from the
# MOF subset of the Cambridge Structural Database (CSD) v543 
# hosted by the Cambridge Crystallographic Data Centre (CCDC).
#
# This work is licensed under the Creative Commons
# Attribution-NonCommercial-ShareAlike 4.0 International License.
# To view a copy of this license, visit
# http://creativecommons.org/licenses/by-nc-sa/4.0/
# or send a letter to
# Creative Commons, PO Box 1866, Mountain View, CA 94042, USA.
#
# CIF created using the CSD Python API on 29 September 2022
# The structure has been converted into the P1 space group
# The structure has a 3D framework
# The original CSD entry EDABOC is in the triclinic crystal system
# The framework has been calculated to contain at least 10.0% void space
# The void calculation uses a probe of radius 1.32A, grid spacing 0.4
#
###############################################################################

data_EDABOC
_chemical_formula_moiety         '(C24 H24 N2 O12 Pr2)n'
_symmetry_cell_setting           triclinic
_symmetry_space_group_name_H-M   'P 1'
_symmetry_Int_Tables_number      1
_space_group_name_Hall           'P 1'
loop_
_symmetry_equiv_pos_site_id
_symmetry_equiv_pos_as_xyz
1 x,y,z
_cell_length_a                   7.7965(16)
_cell_length_b                   9.5743(19)
_cell_length_c                   11.464(2)
_cell_angle_alpha                91.93(3)
_cell_angle_beta                 105.87(3)
_cell_angle_gamma                103.38(3)
_cell_volume                     796.473
loop_
_atom_site_label
_atom_site_type_symbol
_atom_site_fract_x
_atom_site_fract_y
_atom_site_fract_z
_atom_site_U_iso_or_equiv
_atom_site_thermal_displace_type
C3 C 0.1338(11) 0.0797(8) 0.6673(7) 0.0294 Uani
H3 H 0.1072 0.1634 0.6929 0.0350 Uiso
C4 C 0.2484(9) 0.0851(7) 0.5940(6) 0.0189 Uani
C6 C 0.3379(9) 0.2257(7) 0.5571(6) 0.0190 Uani
O5 O 0.4733(6) 0.2295(5) 0.5169(5) 0.0233 Uani
O6 O 0.2711(7) 0.3313(5) 0.5708(5) 0.0254 Uani
Pr6 Pr 0.28634(4) 0.57990(3) 0.51780(3) 0.0104 Uani
Pr10 Pr 0.71366(4) 0.42010(3) 0.48220(3) 0.0104 Uani
C1 C 0.0991(11) 0.8267(7) 0.6622(7) 0.0302 Uani
H1 H 0.0502 0.7393 0.6880 0.0360 Uiso
C2 C 0.0590(13) 0.9483(8) 0.7021(8) 0.0388 Uani
C5 C 0.2778(9) 0.9547(7) 0.5552(6) 0.0187 Uani
H4 H 0.3522 0.9571 0.5038 0.0220 Uiso
O2 O 0.1350(6) 0.6724(5) 0.3135(4) 0.0237 Uani
N1 N 0.2050(7) 0.8272(6) 0.5880(5) 0.0206 Uani
C22 C 0.2713(10) 0.4110(9) 0.0466(6) 0.0276 Uani
H21 H 0.3076 0.5155 0.0609 0.0340 Uiso
H22 H 0.3765 0.3786 0.0377 0.0340 Uiso
C23 C 0.2191(9) 0.3499(9) 0.1560(6) 0.0261 Uani
H23 H 0.1744 0.2458 0.1395 0.0310 Uiso
H24 H 0.1200 0.3880 0.1688 0.0310 Uiso
C24 C 0.3805(9) 0.3868(7) 0.2705(6) 0.0180 Uani
O9 O 0.0407(6) 0.5027(5) 0.6232(4) 0.0163 Uani
O11 O 0.3681(7) 0.4520(5) 0.3648(4) 0.0224 Uani
O12 O 0.6319(7) 0.5480(5) 0.6352(4) 0.0224 Uani
O14 O 0.5246(6) 0.3512(6) 0.2695(4) 0.0253 Uani
O15 O 0.4754(6) 0.6488(6) 0.7305(4) 0.0253 Uani
O19 O 0.5267(6) 0.7705(5) 0.4831(5) 0.0233 Uani
H14 H 0.0179 0.0576 0.2479 0.0460 Uiso
C19 C 0.0137(8) 0.4197(6) 0.7063(6) 0.0146 Uani
C20 C 0.1657(9) 0.4428(8) 0.8244(6) 0.0224 Uani
H17 H 0.2678 0.4110 0.8092 0.0270 Uiso
H18 H 0.2085 0.5455 0.8502 0.0270 Uiso
C21 C 0.1143(9) 0.3656(8) 0.9287(6) 0.0240 Uani
H19 H 0.0046 0.3886 0.9398 0.0280 Uiso
H20 H 0.0871 0.2620 0.9087 0.0280 Uiso
H2 H 0.9821 0.9424 0.7521 0.0460 Uiso
C7 C 0.9863(8) 0.5803(6) 0.2937(6) 0.0146 Uani
C8 C 0.8343(9) 0.5572(8) 0.1756(6) 0.0224 Uani
H5 H 0.7322 0.5890 0.1908 0.0270 Uiso
H6 H 0.7915 0.4545 0.1498 0.0270 Uiso
C9 C 0.8857(9) 0.6344(8) 0.0713(6) 0.0240 Uani
H7 H 0.9954 0.6114 0.0602 0.0280 Uiso
H8 H 0.9129 0.7380 0.0913 0.0280 Uiso
O1 O 0.9593(6) 0.4973(5) 0.3768(4) 0.0163 Uani
C10 C 0.7287(10) 0.5890(9) 0.9534(6) 0.0276 Uani
H9 H 0.6924 0.4845 0.9391 0.0340 Uiso
H10 H 0.6235 0.6214 0.9623 0.0340 Uiso
C11 C 0.7809(9) 0.6501(9) 0.8440(6) 0.0261 Uani
H11 H 0.8256 0.7542 0.8605 0.0310 Uiso
H12 H 0.8800 0.6120 0.8312 0.0310 Uiso
C12 C 0.6195(9) 0.6132(7) 0.7295(6) 0.0180 Uani
C13 C 0.9009(11) 0.1733(7) 0.3378(7) 0.0302 Uani
H13 H 0.9498 0.2607 0.3120 0.0360 Uiso
C14 C 0.9410(13) 0.0517(8) 0.2979(8) 0.0388 Uani
C17 C 0.7222(9) 0.0453(7) 0.4448(6) 0.0187 Uani
H16 H 0.6478 0.0429 0.4962 0.0220 Uiso
O10 O 0.8650(6) 0.3276(5) 0.6865(4) 0.0237 Uani
O22 O 0.7289(7) 0.6687(5) 0.4292(5) 0.0254 Uani
N2 N 0.7950(7) 0.1728(6) 0.4120(5) 0.0206 Uani
C15 C 0.8662(11) 0.9203(8) 0.3327(7) 0.0294 Uani
H15 H 0.8928 0.8366 0.3071 0.0350 Uiso
C16 C 0.7516(9) 0.9149(7) 0.4060(6) 0.0189 Uani
C18 C 0.6621(9) 0.7743(7) 0.4429(6) 0.0190 Uani
loop_
_atom_site_aniso_label
_atom_site_aniso_U_11
_atom_site_aniso_U_22
_atom_site_aniso_U_33
_atom_site_aniso_U_23
_atom_site_aniso_U_13
_atom_site_aniso_U_12
C3 0.038 0.016 0.043 0.004 0.024 0.009
C4 0.019 0.014 0.025 0.005 0.008 0.004
C6 0.02 0.016 0.022 0.003 0.008 0.004
O5 0.021 0.015 0.037 0.006 0.014 0.0034
O6 0.032 0.012 0.039 0.007 0.018 0.0087
Pr6 0.0111 0.01006 0.0102 0.00217 0.00298 0.00311
Pr10 0.0111 0.01006 0.0102 0.00217 0.00298 0.00311
C1 0.047 0.014 0.038 0.007 0.027 0.006
C2 0.059 0.023 0.052 0.011 0.044 0.01
C5 0.019 0.017 0.025 0.006 0.012 0.007
O2 0.021 0.024 0.022 0.0094 0.0018 0.002
N1 0.022 0.014 0.028 0.006 0.009 0.006
C22 0.022 0.041 0.014 0.008 0.001 0.001
C23 0.019 0.044 0.015 0.004 0.005 0.007
C24 0.025 0.016 0.012 0.004 0.006 0.002
O9 0.018 0.019 0.013 0.0059 0.0044 0.0063
O11 0.03 0.026 0.013 0.0002 0.0051 0.012
O12 0.03 0.026 0.013 0.0002 0.0051 0.012
O14 0.02 0.041 0.016 -0.001 0.0022 0.014
O15 0.02 0.041 0.016 -0.001 0.0022 0.014
O19 0.021 0.015 0.037 0.006 0.014 0.0034
C19 0.018 0.015 0.014 0.004 0.007 0.007
C20 0.02 0.027 0.016 0.007 0 0.003
C21 0.022 0.034 0.013 0.006 0.003 0.003
C7 0.018 0.015 0.014 0.004 0.007 0.007
C8 0.02 0.027 0.016 0.007 0 0.003
C9 0.022 0.034 0.013 0.006 0.003 0.003
O1 0.018 0.019 0.013 0.0059 0.0044 0.0063
C10 0.022 0.041 0.014 0.008 0.001 0.001
C11 0.019 0.044 0.015 0.004 0.005 0.007
C12 0.025 0.016 0.012 0.004 0.006 0.002
C13 0.047 0.014 0.038 0.007 0.027 0.006
C14 0.059 0.023 0.052 0.011 0.044 0.01
C17 0.019 0.017 0.025 0.006 0.012 0.007
O10 0.021 0.024 0.022 0.0094 0.0018 0.002
O22 0.032 0.012 0.039 0.007 0.018 0.0087
N2 0.022 0.014 0.028 0.006 0.009 0.006
C15 0.038 0.016 0.043 0.004 0.024 0.009
C16 0.019 0.014 0.025 0.005 0.008 0.004
C18 0.02 0.016 0.022 0.003 0.008 0.004
loop_
_geom_bond_atom_site_label_1
_geom_bond_atom_site_label_2
_geom_bond_site_symmetry_1
_geom_bond_site_symmetry_2
H3 C3 1_555 1_555
C4 C3 1_555 1_555
C6 C4 1_555 1_555
O5 C6 1_555 1_555
O6 C6 1_555 1_555
Pr6 O6 1_555 1_555
Pr10 O5 1_555 1_555
C1 H1 1_555 1_555
C2 C1 1_555 1_555
H4 C5 1_555 1_555
O2 Pr6 1_555 1_555
N1 Pr6 1_555 1_555
Pr10 O11 1_555 1_555
H21 C22 1_555 1_555
H22 C22 1_555 1_555
C23 C22 1_555 1_555
H23 C23 1_555 1_555
H24 C23 1_555 1_555
C24 C23 1_555 1_555
O9 Pr6 1_555 1_555
O11 Pr6 1_555 1_555
O12 Pr6 1_555 1_555
O14 Pr10 1_555 1_555
O15 Pr6 1_555 1_555
O19 Pr6 1_555 1_555
C1 N1 1_555 1_555
C5 N1 1_555 1_555
Pr10 O12 1_555 1_555
C24 O11 1_555 1_555
C24 O14 1_555 1_555
C19 C20 1_555 1_555
C20 H17 1_555 1_555
H18 C20 1_555 1_555
C21 C20 1_555 1_555
H19 C21 1_555 1_555
H20 C21 1_555 1_555
C19 O9 1_555 1_555
C7 C8 1_555 1_555
C8 H5 1_555 1_555
H6 C8 1_555 1_555
C9 C8 1_555 1_555
H7 C9 1_555 1_555
H8 C9 1_555 1_555
O1 C7 1_555 1_555
Pr10 O1 1_555 1_555
H9 C10 1_555 1_555
H10 C10 1_555 1_555
C11 C10 1_555 1_555
H11 C11 1_555 1_555
H12 C11 1_555 1_555
C12 C11 1_555 1_555
O12 C12 1_555 1_555
O15 C12 1_555 1_555
C13 H13 1_555 1_555
C14 C13 1_555 1_555
H16 C17 1_555 1_555
O10 Pr10 1_555 1_555
O22 Pr10 1_555 1_555
N2 Pr10 1_555 1_555
C13 N2 1_555 1_555
C17 N2 1_555 1_555
H15 C15 1_555 1_555
C16 C15 1_555 1_555
C18 C16 1_555 1_555
O19 C18 1_555 1_555
O22 C18 1_555 1_555

#END
