
###############################################################################
#
# This file contains modified crystal structure data generated from the
# MOF subset of the Cambridge Structural Database (CSD) v543 
# hosted by the Cambridge Crystallographic Data Centre (CCDC).
#
# This work is licensed under the Creative Commons
# Attribution-NonCommercial-ShareAlike 4.0 International License.
# To view a copy of this license, visit
# http://creativecommons.org/licenses/by-nc-sa/4.0/
# or send a letter to
# Creative Commons, PO Box 1866, Mountain View, CA 94042, USA.
#
# CIF created using the CSD Python API on 29 September 2022
# The structure has been converted into the P1 space group
# The structure has a 3D framework
# The original CSD entry EDADAP is in the tetragonal crystal system
# The original CSD entry EDADAP is in a Sohncke space group
# The framework has been calculated to contain at least 10.0% void space
# The void calculation uses a probe of radius 1.32A, grid spacing 0.4
# The framework is charged, counterions have been retained in the structure
# H atom positions have been added when not included in the experimental data
#
###############################################################################

data_EDADAP
_chemical_formula_moiety         '(C160 H272 B8 Cu24 K8 N32 O392 W96 16-)n'
_symmetry_cell_setting           triclinic
_symmetry_space_group_name_H-M   'P 1'
_symmetry_Int_Tables_number      1
_space_group_name_Hall           'P 1'
loop_
_symmetry_equiv_pos_site_id
_symmetry_equiv_pos_as_xyz
1 x,y,z
_cell_length_a                   23.897(3)
_cell_length_b                   23.897(3)
_cell_length_c                   26.124(5)
_cell_angle_alpha                90
_cell_angle_beta                 90
_cell_angle_gamma                90
_cell_volume                     14918.5
loop_
_atom_site_label
_atom_site_type_symbol
_atom_site_fract_x
_atom_site_fract_y
_atom_site_fract_z
K1 K 0.5066(3) 0.0516(3) 0.1558(2)
K1_2 K 0.4934(3) 0.9484(3) 0.6558(2)
K1_3 K 0.4484(3) 0.0066(3) 0.4058(2)
K1_4 K 0.5516(3) 0.9934(3) 0.9058(2)
K1_5 K 0.9934(3) 0.5516(3) 0.0942(2)
K1_6 K 0.0066(3) 0.4484(3) 0.5942(2)
K1_7 K 0.0516(3) 0.5066(3) 0.8442(2)
K1_8 K 0.9484(3) 0.4934(3) 0.3442(2)
B1 B 0.7049(10) 0.2591(9) 0.0020(9)
W7 W 0.80731(4) 0.34357(4) 0.05768(3)
W8 W 0.84185(4) 0.21513(4) 0.02549(4)
W9 W 0.65098(4) 0.14669(4) 0.06992(3)
W10 W 0.75831(4) 0.23755(4) 0.12538(4)
W11 W 0.66513(4) 0.39381(4) 0.03221(4)
W12 W 0.61704(4) 0.29051(4) 0.10402(4)
O1 O 0.6850(5) 0.2001(5) 0.0000(5)
O2 O 0.7559(5) 0.2636(5) 0.0365(5)
O4 O 0.6599(5) 0.2974(5) 0.0210(5)
O6 O 0.7350(5) 0.3769(5) 0.0610(5)
O7 O 0.8647(5) 0.2890(6) 0.0431(5)
O12 O 0.5979(5) 0.1333(5) 0.0169(5)
O13 O 0.7949(5) 0.3086(5) 0.1210(5)
O16 O 0.7029(5) 0.0966(5) 0.0344(5)
O17 O 0.7144(6) 0.1762(5) 0.1047(5)
O18 O 0.6136(5) 0.2126(5) 0.0898(4)
O19 O 0.6887(6) 0.2782(5) 0.1285(5)
O22 O 0.8245(5) 0.2048(6) 0.0967(5)
O25 O 0.5562(5) 0.2992(5) 0.0575(5)
O26 O 0.7970(5) 0.1500(5) 0.0116(5)
O27 O 0.6314(5) 0.3672(5) 0.0953(5)
O31 O 0.7688(7) 0.2197(7) 0.1881(6)
O35 O 0.6281(7) 0.0988(5) 0.1145(5)
O37 O 0.9060(5) 0.1855(6) 0.0270(6)
O38 O 0.5774(7) 0.2910(7) 0.1570(6)
O40 O 0.6616(6) 0.4644(6) 0.0443(6)
O45 O 0.4894(6) 0.0474(5) 0.0522(5)
C16 C 0.4803(9) 0.0796(9) 0.0157(10)
C17 C 0.4641(9) 0.1406(9) 0.0313(9)
H26 H 0.4937 0.1568 0.0527
C18 C 0.4066(9) 0.1446(9) 0.0597(9)
H27 H 0.3802 0.1177 0.0459
H28 H 0.4112 0.1375 0.0960
C19 C 0.3872(11) 0.2014(10) 0.0510(9)
H29 H 0.4062 0.2281 0.0729
H30 H 0.3471 0.2047 0.0558
O50 O 0.8470(5) 0.3980(6) 0.0779(5)
W1 W 0.73779(4) 0.11972(4) 0.97303(4)
W2 W 0.61037(4) 0.16564(4) 0.95028(3)
W3 W 0.56976(4) 0.30845(4) 0.98570(4)
W4 W 0.76039(4) 0.36549(4) 0.92626(3)
W5 W 0.66243(4) 0.28387(4) 0.87674(3)
W6 W 0.79033(4) 0.23475(4) 0.89512(4)
O1_2 O 0.6850(5) 0.2001(5) 1.0000(5)
O3 O 0.7229(5) 0.2784(5) 0.9470(4)
O5 O 0.6662(6) 0.1105(5) 0.9402(5)
O8 O 0.8360(5) 0.2348(5) 0.9565(5)
O9 O 0.7299(5) 0.2459(5) 0.8507(4)
O10 O 0.7029(6) 0.3949(5) 0.9670(5)
O11 O 0.5957(5) 0.3841(5) 0.9998(5)
O14 O 0.6384(5) 0.2124(5) 0.8999(5)
O15 O 0.6094(5) 0.3145(6) 0.9212(5)
O20 O 0.8037(5) 0.3590(5) 0.9861(5)
O21 O 0.8066(6) 0.3142(5) 0.8901(5)
O23 O 0.7611(5) 0.1661(5) 0.9175(5)
O24 O 0.5714(5) 0.2303(5) 0.9742(5)
O29 O 0.6267(6) 0.2903(7) 0.8196(6)
O30 O 0.8396(6) 0.2141(6) 0.8523(5)
O32 O 0.7845(6) 0.4278(5) 0.9014(5)
O33 O 0.7024(5) 0.3523(5) 0.8764(5)
O34 O 0.5036(5) 0.3242(6) 0.9647(5)
O36 O 0.7652(6) 0.0584(6) 0.9557(6)
O39 O 0.5570(5) 0.1331(6) 0.9162(5)
Cu2 Cu 0.46949(11) 0.00130(11) 0.78190(10)
Cu3 Cu 0.45224(11) 0.12589(11) 0.92257(10)
O46 O 0.4587(6) 0.0793(6) 0.7765(5)
O47 O 0.4596(5) 0.0772(6) 0.8621(5)
O48 O 0.4776(6) 0.0649(6) 0.9693(5)
N3 N 0.4349(7) 0.1870(7) 0.8717(6)
H17 H 0.3985 0.1974 0.8756
C11 C 0.4542(9) 0.1032(8) 0.8199(9)
C12 C 0.4428(8) 0.1682(8) 0.8207(8)
H18 H 0.4079 0.1749 0.8020
C13 C 0.4872(9) 0.2030(9) 0.7966(8)
H19 H 0.5238 0.1858 0.8000
H20 H 0.4795 0.2099 0.7607
C14 C 0.4832(10) 0.2504(11) 0.8248(9)
H21 H 0.4542 0.2743 0.8107
H22 H 0.5184 0.2706 0.8236
C15 C 0.4705(10) 0.2374(10) 0.8746(9)
H23 H 0.4505 0.2679 0.8908
H24 H 0.5042 0.2298 0.8940
N4 N 0.4557(6) 0.1749(6) 0.9861(6)
H25 H 0.4768 0.1756 0.9594
C20 C 0.4040(9) 0.2089(9) 0.9939(8)
H31 H 0.3743 0.1958 0.9716
H32 H 0.4113 0.2480 0.9865
O49 O 0.3625(7) 0.0887(7) 0.9398(6)
O52 O 0.5474(5) 0.0106(6) 0.8022(5)
H33 H 0.35935 0.079962 0.976849
H34 H 0.33349 0.116552 0.930233
O44 O 0.5109(6) 0.8889(6) 0.0362(5)
H2 H 0.4785 0.7873 0.0053
C3 C 0.5606(4) 0.7812(4) 0.0254(4)
H3 H 0.5689 0.8076 0.0527
H4 H 0.5531 0.7446 0.0398
Cu4 Cu 0.49870(11) 0.96949(11) 0.03190(10)
O28 O 0.3980(6) 0.8470(5) 0.9221(5)
Cu1 Cu 0.49565(11) 0.84121(11) 0.89158(10)
O41 O 0.5067(6) 0.8913(6) 0.9502(5)
O42 O 0.4815(6) 0.9040(6) 0.8455(6)
O43 O 0.4776(5) 0.9242(6) 0.7618(5)
N1 N 0.5183(7) 0.7820(7) 0.9410(6)
H1 H 0.4921 0.7867 0.9188
C1 C 0.5113(9) 0.8649(9) 0.9910(10)
C2 C 0.5138(9) 0.8013(9) 0.9911(9)
C4 C 0.5724(4) 0.7520(4) 0.9281(4)
H5 H 0.5904 0.7657 0.8973
H6 H 0.5695 0.7115 0.9275
C5 C 0.6035(4) 0.7797(4) 0.9876(4)
H7 H 0.6339 0.7558 0.9989
H8 H 0.6182 0.8170 0.9819
N2 N 0.4897(4) 0.7922(4) 0.8303(4)
H9 H 0.5241 0.7778 0.8234
C6 C 0.4792(4) 0.8894(4) 0.7957(4)
C7 C 0.4728(4) 0.8294(4) 0.7867(4)
H10 H 0.4941 0.8189 0.7561
C8 C 0.4086(10) 0.8137(10) 0.7782(10)
H11 H 0.3850 0.8318 0.8035
H12 H 0.3961 0.8244 0.7443
C9 C 0.4080(9) 0.7502(10) 0.7849(9)
H13 H 0.3707 0.7364 0.7925
H14 H 0.4224 0.7312 0.7548
C10 C 0.4465(10) 0.7439(10) 0.8297(9)
H15 H 0.4658 0.7083 0.8276
H16 H 0.4250 0.7444 0.8612
W13 W 0.34357(4) 0.80731(4) 0.94232(3)
O51 O 0.3889(6) 0.9891(6) 0.7862(5)
O28_2 O 0.6020(6) 0.1530(5) 0.4221(5)
Cu1_2 Cu 0.50435(11) 0.15879(11) 0.39158(10)
O41_2 O 0.4933(6) 0.1087(6) 0.4502(5)
O42_2 O 0.5185(6) 0.0960(6) 0.3455(6)
O43_2 O 0.5224(5) 0.0758(6) 0.2618(5)
O44_2 O 0.4891(6) 0.1111(6) 0.5362(5)
N1_2 N 0.4817(7) 0.2180(7) 0.4410(6)
H1_2 H 0.5079 0.2133 0.4188
C1_2 C 0.4887(9) 0.1351(9) 0.4910(10)
C2_2 C 0.4862(9) 0.1987(9) 0.4911(9)
H2_2 H 0.5215 0.2127 0.5053
C3_2 C 0.4394(4) 0.2188(4) 0.5254(4)
H3_2 H 0.4311 0.1924 0.5527
H4_2 H 0.4469 0.2554 0.5398
C4_2 C 0.4276(4) 0.2480(4) 0.4281(4)
H5_2 H 0.4096 0.2343 0.3973
H6_2 H 0.4305 0.2885 0.4275
C5_2 C 0.3965(4) 0.2203(4) 0.4876(4)
H7_2 H 0.3661 0.2442 0.4989
H8_2 H 0.3818 0.1830 0.4819
N2_2 N 0.5103(4) 0.2078(4) 0.3303(4)
H9_2 H 0.4759 0.2222 0.3234
C6_2 C 0.5208(4) 0.1106(4) 0.2957(4)
C7_2 C 0.5272(4) 0.1706(4) 0.2867(4)
H10_2 H 0.5059 0.1811 0.2561
C8_2 C 0.5914(10) 0.1863(10) 0.2782(10)
H11_2 H 0.6150 0.1682 0.3035
H12_2 H 0.6039 0.1756 0.2443
C9_2 C 0.5920(9) 0.2498(10) 0.2849(9)
H13_2 H 0.6293 0.2636 0.2925
H14_2 H 0.5776 0.2688 0.2548
C10_2 C 0.5535(10) 0.2561(10) 0.3297(9)
H15_2 H 0.5342 0.2917 0.3276
H16_2 H 0.5750 0.2556 0.3612
W13_2 W 0.65643(4) 0.19269(4) 0.44232(3)
Cu4_2 Cu 0.50130(11) 0.03051(11) 0.53190(10)
O51_2 O 0.6111(6) 0.0109(6) 0.2862(5)
B1_2 B 0.2951(10) 0.7409(9) 0.5020(9)
W1_2 W 0.26221(4) 0.88028(4) 0.47303(4)
W2_2 W 0.38963(4) 0.83436(4) 0.45028(3)
W3_2 W 0.43024(4) 0.69155(4) 0.48570(4)
W4_2 W 0.23961(4) 0.63451(4) 0.42626(3)
W5_2 W 0.33757(4) 0.71613(4) 0.37674(3)
W6_2 W 0.20967(4) 0.76525(4) 0.39512(4)
W7_2 W 0.19269(4) 0.65643(4) 0.55768(3)
W8_2 W 0.15815(4) 0.78487(4) 0.52549(4)
W9_2 W 0.34902(4) 0.85331(4) 0.56992(3)
W10_2 W 0.24169(4) 0.76245(4) 0.62538(4)
W11_2 W 0.33487(4) 0.60619(4) 0.53221(4)
W12_2 W 0.38296(4) 0.70949(4) 0.60402(4)
O1_3 O 0.3150(5) 0.7999(5) 0.5000(5)
O2_2 O 0.2441(5) 0.7364(5) 0.5365(5)
O3_2 O 0.2771(5) 0.7216(5) 0.4470(4)
O4_2 O 0.3401(5) 0.7026(5) 0.5210(5)
O5_2 O 0.3338(6) 0.8895(5) 0.4402(5)
O6_2 O 0.2650(5) 0.6231(5) 0.5610(5)
O7_2 O 0.1353(5) 0.7110(6) 0.5431(5)
O8_2 O 0.1640(5) 0.7652(5) 0.4565(5)
O9_2 O 0.2701(5) 0.7541(5) 0.3507(4)
O10_2 O 0.2971(6) 0.6051(5) 0.4670(5)
O11_2 O 0.4043(5) 0.6159(5) 0.4998(5)
O12_2 O 0.4021(5) 0.8667(5) 0.5169(5)
O13_2 O 0.2051(5) 0.6914(5) 0.6210(5)
O14_2 O 0.3616(5) 0.7876(5) 0.3999(5)
O15_2 O 0.3906(5) 0.6855(6) 0.4212(5)
O16_2 O 0.2971(5) 0.9034(5) 0.5344(5)
O17_2 O 0.2856(6) 0.8238(5) 0.6047(5)
O18_2 O 0.3864(5) 0.7874(5) 0.5898(4)
O19_2 O 0.3113(6) 0.7218(5) 0.6285(5)
O20_2 O 0.1963(5) 0.6410(5) 0.4861(5)
O21_2 O 0.1934(6) 0.6858(5) 0.3901(5)
O22_2 O 0.1755(5) 0.7952(6) 0.5967(5)
O23_2 O 0.2389(5) 0.8339(5) 0.4175(5)
O24_2 O 0.4286(5) 0.7697(5) 0.4742(5)
O25_2 O 0.4438(5) 0.7008(5) 0.5575(5)
O26_2 O 0.2030(5) 0.8500(5) 0.5116(5)
O27_2 O 0.3686(5) 0.6328(5) 0.5953(5)
O29_2 O 0.3733(6) 0.7097(7) 0.3196(6)
O30_2 O 0.1604(6) 0.7859(6) 0.3523(5)
O31_2 O 0.2312(7) 0.7803(7) 0.6881(6)
O32_2 O 0.2155(6) 0.5722(5) 0.4014(5)
O33_2 O 0.2976(5) 0.6477(5) 0.3764(5)
O34_2 O 0.4964(5) 0.6758(6) 0.4647(5)
O35_2 O 0.3719(7) 0.9012(5) 0.6145(5)
O36_2 O 0.2348(6) 0.9416(6) 0.4557(6)
O37_2 O 0.0940(5) 0.8145(6) 0.5270(6)
O38_2 O 0.4226(7) 0.7090(7) 0.6570(6)
O39_2 O 0.4430(5) 0.8669(6) 0.4162(5)
O40_2 O 0.3384(6) 0.5356(6) 0.5443(6)
Cu2_2 Cu 0.53051(11) 0.99870(11) 0.28190(10)
Cu3_2 Cu 0.54776(11) 0.87411(11) 0.42257(10)
O45_2 O 0.5106(6) 0.9526(5) 0.5522(5)
O46_2 O 0.5413(6) 0.9207(6) 0.2765(5)
O47_2 O 0.5404(5) 0.9228(6) 0.3621(5)
O48_2 O 0.5224(6) 0.9351(6) 0.4693(5)
N3_2 N 0.5651(7) 0.8130(7) 0.3717(6)
H17_2 H 0.6015 0.8026 0.3756
C11_2 C 0.5458(9) 0.8968(8) 0.3199(9)
C12_2 C 0.5572(8) 0.8318(8) 0.3207(8)
H18_2 H 0.5921 0.8251 0.3020
C13_2 C 0.5128(9) 0.7970(9) 0.2966(8)
H19_2 H 0.4762 0.8142 0.3000
H20_2 H 0.5205 0.7901 0.2607
C14_2 C 0.5168(10) 0.7496(11) 0.3248(9)
H21_2 H 0.5458 0.7257 0.3107
H22_2 H 0.4816 0.7294 0.3236
C15_2 C 0.5295(10) 0.7626(10) 0.3746(9)
H23_2 H 0.5495 0.7321 0.3908
H24_2 H 0.4958 0.7702 0.3940
N4_2 N 0.5443(6) 0.8251(6) 0.4861(6)
H25_2 H 0.5232 0.8244 0.4594
C16_2 C 0.5197(9) 0.9204(9) 0.5157(10)
C17_2 C 0.5359(9) 0.8594(9) 0.5313(9)
H26_2 H 0.5063 0.8432 0.5527
C18_2 C 0.5934(9) 0.8554(9) 0.5597(9)
H27_2 H 0.6198 0.8823 0.5459
H28_2 H 0.5888 0.8625 0.5960
C19_2 C 0.6128(11) 0.7986(10) 0.5510(9)
H29_2 H 0.5938 0.7719 0.5729
H30_2 H 0.6529 0.7953 0.5558
C20_2 C 0.5960(9) 0.7911(9) 0.4939(8)
H31_2 H 0.6257 0.8042 0.4716
H32_2 H 0.5887 0.7520 0.4865
O49_2 O 0.6375(7) 0.9113(7) 0.4398(6)
O50_2 O 0.1530(5) 0.6020(6) 0.5779(5)
O52_2 O 0.4526(5) 0.9894(6) 0.3022(5)
H33_2 H 0.64065 0.920038 0.476849
H34_2 H 0.66651 0.883448 0.430233
B1_3 B 0.2409(9) 0.2049(10) 0.2520(9)
W1_3 W 0.38028(4) 0.23779(4) 0.22303(4)
W2_3 W 0.33436(4) 0.11037(4) 0.20028(3)
W3_3 W 0.19155(4) 0.06976(4) 0.23570(4)
W4_3 W 0.13451(4) 0.26039(4) 0.17626(3)
W5_3 W 0.21613(4) 0.16243(4) 0.12674(3)
W6_3 W 0.26525(4) 0.29033(4) 0.14512(4)
W7_3 W 0.15643(4) 0.30731(4) 0.30768(3)
W8_3 W 0.28487(4) 0.34185(4) 0.27549(4)
W9_3 W 0.35331(4) 0.15098(4) 0.31992(3)
W10_3 W 0.26245(4) 0.25831(4) 0.37538(4)
W11_3 W 0.10619(4) 0.16513(4) 0.28221(4)
W12_3 W 0.20949(4) 0.11704(4) 0.35402(4)
O1_4 O 0.2999(5) 0.1850(5) 0.2500(5)
O2_3 O 0.2364(5) 0.2559(5) 0.2865(5)
O3_3 O 0.2216(5) 0.2229(5) 0.1970(4)
O4_3 O 0.2026(5) 0.1599(5) 0.2710(5)
O5_3 O 0.3895(5) 0.1662(6) 0.1902(5)
O6_3 O 0.1231(5) 0.2350(5) 0.3110(5)
O7_3 O 0.2110(6) 0.3647(5) 0.2931(5)
O8_3 O 0.2652(5) 0.3360(5) 0.2065(5)
O9_3 O 0.2541(5) 0.2299(5) 0.1007(4)
O10_3 O 0.1051(5) 0.2029(6) 0.2170(5)
O11_3 O 0.1159(5) 0.0957(5) 0.2498(5)
O12_3 O 0.3667(5) 0.0979(5) 0.2669(5)
O13_3 O 0.1914(5) 0.2949(5) 0.3710(5)
O14_3 O 0.2876(5) 0.1384(5) 0.1499(5)
O15_3 O 0.1855(6) 0.1094(5) 0.1712(5)
O16_3 O 0.4034(5) 0.2029(5) 0.2844(5)
O17_3 O 0.3238(5) 0.2144(6) 0.3547(5)
O18_3 O 0.2874(5) 0.1136(5) 0.3398(4)
O19_3 O 0.2218(5) 0.1887(6) 0.3785(5)
O20_3 O 0.1410(5) 0.3037(5) 0.2361(5)
O21_3 O 0.1858(5) 0.3066(6) 0.1401(5)
O22_3 O 0.2952(6) 0.3245(5) 0.3467(5)
O23_3 O 0.3339(5) 0.2611(5) 0.1675(5)
O24_3 O 0.2697(5) 0.0714(5) 0.2242(5)
O25_3 O 0.2008(5) 0.0562(5) 0.3075(5)
O26_3 O 0.3500(5) 0.2970(5) 0.2616(5)
O27_3 O 0.1328(5) 0.1314(5) 0.3453(5)
O29_3 O 0.2097(7) 0.1267(6) 0.0696(6)
O30_3 O 0.2859(6) 0.3396(6) 0.1023(5)
O31_3 O 0.2803(7) 0.2688(7) 0.4381(6)
O32_3 O 0.0722(5) 0.2845(6) 0.1514(5)
O33_3 O 0.1477(5) 0.2024(5) 0.1264(5)
O34_3 O 0.1758(6) 0.0036(5) 0.2147(5)
O35_3 O 0.4012(5) 0.1281(7) 0.3645(5)
O36_3 O 0.4416(6) 0.2652(6) 0.2057(6)
O37_3 O 0.3145(6) 0.4060(5) 0.2770(6)
O38_3 O 0.2090(7) 0.0774(7) 0.4070(6)
O39_3 O 0.3669(6) 0.0570(5) 0.1662(5)
O40_3 O 0.0356(6) 0.1616(6) 0.2943(6)
O41_3 O 0.6087(6) 0.0067(6) 0.2002(5)
N1_3 N 0.7180(7) 0.0183(7) 0.1910(6)
C1_3 C 0.6351(9) 0.0113(9) 0.2410(10)
C2_3 C 0.6987(9) 0.0138(9) 0.2411(9)
C3_3 C 0.7188(4) 0.0606(4) 0.2754(4)
H3_3 H 0.6924 0.0689 0.3027
H4_3 H 0.7554 0.0531 0.2898
C4_3 C 0.7480(4) 0.0724(4) 0.1781(4)
H5_3 H 0.7343 0.0904 0.1473
H6_3 H 0.7885 0.0695 0.1775
C5_3 C 0.7203(4) 0.1035(4) 0.2376(4)
H7_3 H 0.7442 0.1339 0.2489
H8_3 H 0.6830 0.1182 0.2319
H9_3 H 0.7222 0.0241 0.0734
H19_3 H 0.3142 0.0238 0.0500
H22_3 H 0.2294 0.0184 0.0736
H24_3 H 0.2702 0.0042 0.1440
O50_3 O 0.1020(6) 0.3470(5) 0.3279(5)
O28_3 O 0.6530(5) 0.8980(6) 0.1721(5)
Cu1_3 Cu 0.65879(11) 0.99565(11) 0.14158(10)
Cu3_3 Cu 0.37411(11) 0.95224(11) 0.17257(10)
O42_3 O 0.5960(6) 0.9815(6) 0.0955(6)
O43_3 O 0.5758(6) 0.9776(5) 0.0118(5)
O46_3 O 0.4207(6) 0.9587(6) 0.0265(5)
O47_3 O 0.4228(6) 0.9596(5) 0.1121(5)
O48_3 O 0.4351(6) 0.9776(6) 0.2193(5)
H1_3 H 0.7133 0.9921 0.1688
H2_3 H 0.7127 0.9785 0.2553
N2_3 N 0.7078(4) 0.9897(4) 0.0803(4)
C6_3 C 0.6106(4) 0.9792(4) 0.0457(4)
C7_3 C 0.6706(4) 0.9728(4) 0.0367(4)
H10_3 H 0.6811 0.9941 0.0061
C8_3 C 0.6863(10) 0.9086(10) 0.0282(10)
H11_3 H 0.6682 0.8850 0.0535
C9_3 C 0.7498(10) 0.9080(9) 0.0349(9)
H13_3 H 0.7636 0.8707 0.0425
H14_3 H 0.7688 0.9224 0.0048
C10_3 C 0.7561(10) 0.9465(10) 0.0797(9)
H15_3 H 0.7917 0.9658 0.0776
H16_3 H 0.7556 0.9250 0.1112
N3_3 N 0.3130(7) 0.9349(7) 0.1217(6)
H17_3 H 0.3026 0.8985 0.1256
C11_3 C 0.3968(8) 0.9542(9) 0.0699(9)
C12_3 C 0.3318(8) 0.9428(8) 0.0707(8)
H18_3 H 0.3251 0.9079 0.0520
C13_3 C 0.2970(9) 0.9872(9) 0.0466(8)
H20_3 H 0.2901 0.9795 0.0107
C14_3 C 0.2496(11) 0.9832(10) 0.0748(9)
H21_3 H 0.2257 0.9542 0.0607
C15_3 C 0.2626(10) 0.9705(10) 0.1246(9)
H23_3 H 0.2321 0.9505 0.1408
N4_3 N 0.3251(6) 0.9557(6) 0.2361(6)
H25_3 H 0.3244 0.9768 0.2094
C16_3 C 0.4204(9) 0.9803(9) 0.2657(10)
C17_3 C 0.3594(9) 0.9641(9) 0.2813(9)
H26_3 H 0.3432 0.9937 0.3027
C18_3 C 0.3554(9) 0.9066(9) 0.3097(9)
H27_3 H 0.3823 0.8802 0.2959
H28_3 H 0.3625 0.9112 0.3460
C19_3 C 0.2986(10) 0.8872(11) 0.3010(9)
H29_3 H 0.2719 0.9062 0.3229
H30_3 H 0.2953 0.8471 0.3058
C20_3 C 0.2911(9) 0.9040(9) 0.2439(8)
H31_3 H 0.3042 0.8743 0.2216
H32_3 H 0.2520 0.9113 0.2365
O49_3 O 0.4113(7) 0.8625(7) 0.1898(6)
W13_3 W 0.69269(4) 0.84357(4) 0.19232(3)
H33_3 H 0.420038 0.85935 0.226849
H34_3 H 0.383448 0.83349 0.180233
O28_4 O 0.3470(5) 0.1020(6) 0.6721(5)
Cu1_4 Cu 0.34121(11) 0.00435(11) 0.64158(10)
Cu3_4 Cu 0.62589(11) 0.04776(11) 0.67257(10)
O42_4 O 0.4040(6) 0.0185(6) 0.5955(6)
O43_4 O 0.4242(6) 0.0224(5) 0.5118(5)
O46_4 O 0.5793(6) 0.0413(6) 0.5265(5)
O47_4 O 0.5772(6) 0.0404(5) 0.6121(5)
O48_4 O 0.5649(6) 0.0224(6) 0.7193(5)
H1_4 H 0.2867 0.0079 0.6688
H2_4 H 0.2873 0.0215 0.7553
N2_4 N 0.2922(4) 0.0103(4) 0.5803(4)
C6_4 C 0.3894(4) 0.0208(4) 0.5457(4)
C7_4 C 0.3294(4) 0.0272(4) 0.5367(4)
H10_4 H 0.3189 0.0059 0.5061
C8_4 C 0.3137(10) 0.0914(10) 0.5282(10)
H11_4 H 0.3318 0.1150 0.5535
H12_3 H 0.3244 0.1039 0.4943
C9_4 C 0.2502(10) 0.0920(9) 0.5349(9)
H13_4 H 0.2364 0.1293 0.5425
H14_4 H 0.2312 0.0776 0.5048
C10_4 C 0.2439(10) 0.0535(10) 0.5797(9)
H15_4 H 0.2083 0.0342 0.5776
H16_4 H 0.2444 0.0750 0.6112
N3_4 N 0.6870(7) 0.0651(7) 0.6217(6)
H17_4 H 0.6974 0.1015 0.6256
C11_4 C 0.6032(8) 0.0458(9) 0.5699(9)
C12_4 C 0.6682(8) 0.0572(8) 0.5707(8)
H18_4 H 0.6749 0.0921 0.5520
C13_4 C 0.7030(9) 0.0128(9) 0.5466(8)
H20_4 H 0.7099 0.0205 0.5107
C14_4 C 0.7504(11) 0.0168(10) 0.5748(9)
H21_4 H 0.7743 0.0458 0.5607
C15_4 C 0.7374(10) 0.0295(10) 0.6246(9)
H23_4 H 0.7679 0.0495 0.6408
N4_4 N 0.6749(6) 0.0443(6) 0.7361(6)
H25_4 H 0.6756 0.0232 0.7094
C16_4 C 0.5796(9) 0.0197(9) 0.7657(10)
C17_4 C 0.6406(9) 0.0359(9) 0.7813(9)
H26_4 H 0.6568 0.0063 0.8027
C18_4 C 0.6446(9) 0.0934(9) 0.8097(9)
H27_4 H 0.6177 0.1198 0.7959
H28_4 H 0.6375 0.0888 0.8460
C19_4 C 0.7014(10) 0.1128(11) 0.8010(9)
H29_4 H 0.7281 0.0938 0.8229
H30_4 H 0.7047 0.1529 0.8058
C20_4 C 0.7089(9) 0.0960(9) 0.7439(8)
H31_4 H 0.6958 0.1257 0.7216
H32_4 H 0.7480 0.0887 0.7365
O49_4 O 0.5887(7) 0.1375(7) 0.6898(6)
W13_4 W 0.30731(4) 0.15643(4) 0.69232(3)
H33_4 H 0.579962 0.14065 0.726849
H34_4 H 0.616552 0.16651 0.680233
B1_4 B 0.7591(9) 0.7951(10) 0.7520(9)
W1_4 W 0.61972(4) 0.76221(4) 0.72303(4)
W2_4 W 0.66564(4) 0.88963(4) 0.70028(3)
W3_4 W 0.80845(4) 0.93024(4) 0.73570(4)
W4_4 W 0.86549(4) 0.73961(4) 0.67626(3)
W5_4 W 0.78387(4) 0.83757(4) 0.62674(3)
W6_4 W 0.73475(4) 0.70967(4) 0.64512(4)
W7_4 W 0.84357(4) 0.69269(4) 0.80768(3)
W8_4 W 0.71513(4) 0.65815(4) 0.77549(4)
W9_4 W 0.64669(4) 0.84902(4) 0.81992(3)
W10_4 W 0.73755(4) 0.74169(4) 0.87538(4)
W11_4 W 0.89381(4) 0.83487(4) 0.78221(4)
W12_4 W 0.79051(4) 0.88296(4) 0.85402(4)
O1_5 O 0.7001(5) 0.8150(5) 0.7500(5)
O2_4 O 0.7636(5) 0.7441(5) 0.7865(5)
O3_4 O 0.7784(5) 0.7771(5) 0.6970(4)
O4_4 O 0.7974(5) 0.8401(5) 0.7710(5)
O5_4 O 0.6105(5) 0.8338(6) 0.6902(5)
O6_4 O 0.8769(5) 0.7650(5) 0.8110(5)
O7_4 O 0.7890(6) 0.6353(5) 0.7931(5)
O8_4 O 0.7348(5) 0.6640(5) 0.7065(5)
O9_4 O 0.7459(5) 0.7701(5) 0.6007(4)
O10_4 O 0.8949(5) 0.7971(6) 0.7170(5)
O11_4 O 0.8841(5) 0.9043(5) 0.7498(5)
O12_4 O 0.6333(5) 0.9021(5) 0.7669(5)
O13_4 O 0.8086(5) 0.7051(5) 0.8710(5)
O14_4 O 0.7124(5) 0.8616(5) 0.6499(5)
O15_4 O 0.8145(6) 0.8906(5) 0.6712(5)
O16_4 O 0.5966(5) 0.7971(5) 0.7844(5)
O17_4 O 0.6762(5) 0.7856(6) 0.8547(5)
O18_4 O 0.7126(5) 0.8864(5) 0.8398(4)
O19_4 O 0.7782(5) 0.8113(6) 0.8785(5)
O20_4 O 0.8590(5) 0.6963(5) 0.7361(5)
O21_4 O 0.8142(5) 0.6934(6) 0.6401(5)
O22_4 O 0.7048(6) 0.6755(5) 0.8467(5)
O23_4 O 0.6661(5) 0.7389(5) 0.6675(5)
O24_4 O 0.7303(5) 0.9286(5) 0.7242(5)
O25_4 O 0.7992(5) 0.9438(5) 0.8075(5)
O26_4 O 0.6500(5) 0.7030(5) 0.7616(5)
O27_4 O 0.8672(5) 0.8686(5) 0.8453(5)
O29_4 O 0.7903(7) 0.8733(6) 0.5696(6)
O30_4 O 0.7141(6) 0.6604(6) 0.6023(5)
O31_4 O 0.7197(7) 0.7312(7) 0.9381(6)
O32_4 O 0.9278(5) 0.7155(6) 0.6514(5)
O33_4 O 0.8523(5) 0.7976(5) 0.6264(5)
O34_4 O 0.8242(6) 0.9964(5) 0.7147(5)
O35_4 O 0.5988(5) 0.8719(7) 0.8645(5)
O36_4 O 0.5584(6) 0.7348(6) 0.7057(6)
O37_4 O 0.6855(6) 0.5940(5) 0.7770(6)
O38_4 O 0.7910(7) 0.9226(7) 0.9070(6)
O39_4 O 0.6331(6) 0.9430(5) 0.6662(5)
O40_4 O 0.9644(6) 0.8384(6) 0.7943(6)
O41_4 O 0.3913(6) 0.9933(6) 0.7002(5)
N1_4 N 0.2820(7) 0.9817(7) 0.6910(6)
C1_4 C 0.3649(9) 0.9887(9) 0.7410(10)
C2_4 C 0.3013(9) 0.9862(9) 0.7411(9)
C3_4 C 0.2812(4) 0.9394(4) 0.7754(4)
H3_4 H 0.3076 0.9311 0.8027
H4_4 H 0.2446 0.9469 0.7898
C4_4 C 0.2520(4) 0.9276(4) 0.6781(4)
H5_4 H 0.2657 0.9096 0.6473
H6_4 H 0.2115 0.9305 0.6775
C5_4 C 0.2797(4) 0.8965(4) 0.7376(4)
H7_4 H 0.2558 0.8661 0.7489
H8_4 H 0.3170 0.8818 0.7319
H9_4 H 0.2778 0.9759 0.5734
H19_4 H 0.6858 0.9762 0.5500
H22_4 H 0.7706 0.9816 0.5736
H24_4 H 0.7298 0.9958 0.6440
O50_4 O 0.8980(6) 0.6530(5) 0.8279(5)
Cu1_5 Cu 0.00435(11) 0.34121(11) 0.35842(10)
Cu2_3 Cu 0.03051(11) 0.50130(11) 0.46810(10)
Cu3_5 Cu 0.04776(11) 0.62589(11) 0.32743(10)
O42_5 O 0.0185(6) 0.4040(6) 0.4045(6)
O43_5 O 0.0224(5) 0.4242(6) 0.4882(5)
O45_3 O 0.0106(6) 0.5474(5) 0.1978(5)
O46_5 O 0.0413(6) 0.5793(6) 0.4735(5)
O47_5 O 0.0404(5) 0.5772(6) 0.3879(5)
O48_5 O 0.0224(6) 0.5649(6) 0.2807(5)
H1_5 H 0.0079 0.2867 0.3312
H2_5 H 0.0215 0.2873 0.2447
N2_5 N 0.0103(4) 0.2922(4) 0.4197(4)
C6_5 C 0.0208(4) 0.3894(4) 0.4543(4)
C7_5 C 0.0272(4) 0.3294(4) 0.4633(4)
H10_5 H 0.0059 0.3189 0.4939
C8_5 C 0.0914(10) 0.3137(10) 0.4718(10)
H11_5 H 0.1150 0.3318 0.4465
H12_4 H 0.1039 0.3244 0.5057
C9_5 C 0.0920(9) 0.2502(10) 0.4651(9)
H13_5 H 0.1293 0.2364 0.4575
H14_5 H 0.0776 0.2312 0.4952
C10_5 C 0.0535(10) 0.2439(10) 0.4203(9)
H15_5 H 0.0342 0.2083 0.4224
H16_5 H 0.0750 0.2444 0.3888
N3_5 N 0.0651(7) 0.6870(7) 0.3783(6)
H17_5 H 0.1015 0.6974 0.3744
C11_5 C 0.0458(9) 0.6032(8) 0.4301(9)
C12_5 C 0.0572(8) 0.6682(8) 0.4293(8)
H18_5 H 0.0921 0.6749 0.4480
C13_5 C 0.0128(9) 0.7030(9) 0.4534(8)
H20_5 H 0.0205 0.7099 0.4893
C14_5 C 0.0168(10) 0.7504(11) 0.4252(9)
H21_5 H 0.0458 0.7743 0.4393
C15_5 C 0.0295(10) 0.7374(10) 0.3754(9)
H23_5 H 0.0495 0.7679 0.3592
N4_5 N 0.0443(6) 0.6749(6) 0.2639(6)
H25_5 H 0.0232 0.6756 0.2906
C16_5 C 0.0197(9) 0.5796(9) 0.2343(10)
C17_5 C 0.0359(9) 0.6406(9) 0.2187(9)
H26_5 H 0.0063 0.6568 0.1973
C18_5 C 0.0934(9) 0.6446(9) 0.1903(9)
H27_5 H 0.1198 0.6177 0.2041
H28_5 H 0.0888 0.6375 0.1540
C19_5 C 0.1128(11) 0.7014(10) 0.1990(9)
H29_5 H 0.0938 0.7281 0.1771
H30_5 H 0.1529 0.7047 0.1942
C20_5 C 0.0960(9) 0.7089(9) 0.2561(8)
H31_5 H 0.1257 0.6958 0.2784
H32_5 H 0.0887 0.7480 0.2635
O49_5 O 0.1375(7) 0.5887(7) 0.3102(6)
Cu4_3 Cu 0.00130(11) 0.46949(11) 0.21810(10)
O51_3 O 0.1111(6) 0.4891(6) 0.4638(5)
H33_5 H 0.14065 0.579962 0.273151
H34_5 H 0.16651 0.616552 0.319767
B1_5 B 0.7951(10) 0.7591(9) 0.2480(9)
W1_5 W 0.76221(4) 0.61972(4) 0.27697(4)
W2_5 W 0.88963(4) 0.66564(4) 0.29972(3)
W3_5 W 0.93024(4) 0.80845(4) 0.26430(4)
W4_5 W 0.73961(4) 0.86549(4) 0.32374(3)
W5_5 W 0.83757(4) 0.78387(4) 0.37326(3)
W6_5 W 0.70967(4) 0.73475(4) 0.35488(4)
W8_5 W 0.65815(4) 0.71513(4) 0.22451(4)
W9_5 W 0.84902(4) 0.64669(4) 0.18008(3)
W10_5 W 0.74169(4) 0.73755(4) 0.12462(4)
W11_5 W 0.83487(4) 0.89381(4) 0.21779(4)
W12_5 W 0.88296(4) 0.79051(4) 0.14598(4)
O1_6 O 0.8150(5) 0.7001(5) 0.2500(5)
O2_5 O 0.7441(5) 0.7636(5) 0.2135(5)
O3_5 O 0.7771(5) 0.7784(5) 0.3030(4)
O4_5 O 0.8401(5) 0.7974(5) 0.2290(5)
O5_5 O 0.8338(6) 0.6105(5) 0.3098(5)
O6_5 O 0.7650(5) 0.8769(5) 0.1890(5)
O7_5 O 0.6353(5) 0.7890(6) 0.2069(5)
O8_5 O 0.6640(5) 0.7348(5) 0.2935(5)
O9_5 O 0.7701(5) 0.7459(5) 0.3993(4)
O10_5 O 0.7971(6) 0.8949(5) 0.2830(5)
O11_5 O 0.9043(5) 0.8841(5) 0.2502(5)
O12_5 O 0.9021(5) 0.6333(5) 0.2331(5)
O13_5 O 0.7051(5) 0.8086(5) 0.1290(5)
O14_5 O 0.8616(5) 0.7124(5) 0.3501(5)
O15_5 O 0.8906(5) 0.8145(6) 0.3288(5)
O16_5 O 0.7971(5) 0.5966(5) 0.2156(5)
O17_5 O 0.7856(6) 0.6762(5) 0.1453(5)
O18_5 O 0.8864(5) 0.7126(5) 0.1602(4)
O19_5 O 0.8113(6) 0.7782(5) 0.1215(5)
O20_5 O 0.6963(5) 0.8590(5) 0.2639(5)
O21_5 O 0.6934(6) 0.8142(5) 0.3599(5)
O22_5 O 0.6755(5) 0.7048(6) 0.1533(5)
O23_5 O 0.7389(5) 0.6661(5) 0.3325(5)
O24_5 O 0.9286(5) 0.7303(5) 0.2758(5)
O25_5 O 0.9438(5) 0.7992(5) 0.1925(5)
O26_5 O 0.7030(5) 0.6500(5) 0.2384(5)
O27_5 O 0.8686(5) 0.8672(5) 0.1547(5)
O29_5 O 0.8733(6) 0.7903(7) 0.4304(6)
O30_5 O 0.6604(6) 0.7141(6) 0.3977(5)
O31_5 O 0.7312(7) 0.7197(7) 0.0619(6)
O32_5 O 0.7155(6) 0.9278(5) 0.3486(5)
O33_5 O 0.7976(5) 0.8523(5) 0.3736(5)
O34_5 O 0.9964(5) 0.8242(6) 0.2853(5)
O35_5 O 0.8719(7) 0.5988(5) 0.1355(5)
O36_5 O 0.7348(6) 0.5584(6) 0.2943(6)
O37_5 O 0.5940(5) 0.6855(6) 0.2230(6)
O38_5 O 0.9226(7) 0.7910(7) 0.0930(6)
O39_5 O 0.9430(5) 0.6331(6) 0.3338(5)
O40_5 O 0.8384(6) 0.9644(6) 0.2057(6)
O41_5 O 0.9933(6) 0.3913(6) 0.2998(5)
O44_3 O 0.9891(6) 0.3889(6) 0.2138(5)
N1_5 N 0.9817(7) 0.2820(7) 0.3090(6)
C1_5 C 0.9887(9) 0.3649(9) 0.2590(10)
C2_5 C 0.9862(9) 0.3013(9) 0.2589(9)
C3_5 C 0.9394(4) 0.2812(4) 0.2246(4)
H3_5 H 0.9311 0.3076 0.1973
H4_5 H 0.9469 0.2446 0.2102
C4_5 C 0.9276(4) 0.2520(4) 0.3219(4)
H5_5 H 0.9096 0.2657 0.3527
H6_5 H 0.9305 0.2115 0.3225
C5_5 C 0.8965(4) 0.2797(4) 0.2624(4)
H7_5 H 0.8661 0.2558 0.2511
H8_5 H 0.8818 0.3170 0.2681
H9_5 H 0.9759 0.2778 0.4266
H19_5 H 0.9762 0.6858 0.4500
H22_5 H 0.9816 0.7706 0.4264
H24_5 H 0.9958 0.7298 0.3560
O52_3 O 0.9526(5) 0.5106(6) 0.4478(5)
B1_6 B 0.2049(10) 0.2409(9) 0.7480(9)
W1_6 W 0.23779(4) 0.38028(4) 0.77697(4)
W2_6 W 0.11037(4) 0.33436(4) 0.79972(3)
W3_6 W 0.06976(4) 0.19155(4) 0.76430(4)
W4_6 W 0.26039(4) 0.13451(4) 0.82374(3)
W5_6 W 0.16243(4) 0.21613(4) 0.87326(3)
W6_6 W 0.29033(4) 0.26525(4) 0.85488(4)
W8_6 W 0.34185(4) 0.28487(4) 0.72451(4)
W9_6 W 0.15098(4) 0.35331(4) 0.68008(3)
W10_6 W 0.25831(4) 0.26245(4) 0.62462(4)
W11_6 W 0.16513(4) 0.10619(4) 0.71779(4)
W12_6 W 0.11704(4) 0.20949(4) 0.64598(4)
O1_7 O 0.1850(5) 0.2999(5) 0.7500(5)
O2_6 O 0.2559(5) 0.2364(5) 0.7135(5)
O3_6 O 0.2229(5) 0.2216(5) 0.8030(4)
O4_6 O 0.1599(5) 0.2026(5) 0.7290(5)
O5_6 O 0.1662(6) 0.3895(5) 0.8098(5)
O6_6 O 0.2350(5) 0.1231(5) 0.6890(5)
O7_6 O 0.3647(5) 0.2110(6) 0.7069(5)
O8_6 O 0.3360(5) 0.2652(5) 0.7935(5)
O9_6 O 0.2299(5) 0.2541(5) 0.8993(4)
O10_6 O 0.2029(6) 0.1051(5) 0.7830(5)
O11_6 O 0.0957(5) 0.1159(5) 0.7502(5)
O12_6 O 0.0979(5) 0.3667(5) 0.7331(5)
O13_6 O 0.2949(5) 0.1914(5) 0.6290(5)
O14_6 O 0.1384(5) 0.2876(5) 0.8501(5)
O15_6 O 0.1094(5) 0.1855(6) 0.8288(5)
O16_6 O 0.2029(5) 0.4034(5) 0.7156(5)
O17_6 O 0.2144(6) 0.3238(5) 0.6453(5)
O18_6 O 0.1136(5) 0.2874(5) 0.6602(4)
O19_6 O 0.1887(6) 0.2218(5) 0.6215(5)
O20_6 O 0.3037(5) 0.1410(5) 0.7639(5)
O21_6 O 0.3066(6) 0.1858(5) 0.8599(5)
O22_6 O 0.3245(5) 0.2952(6) 0.6533(5)
O23_6 O 0.2611(5) 0.3339(5) 0.8325(5)
O24_6 O 0.0714(5) 0.2697(5) 0.7758(5)
O25_6 O 0.0562(5) 0.2008(5) 0.6925(5)
O26_6 O 0.2970(5) 0.3500(5) 0.7384(5)
O27_6 O 0.1314(5) 0.1328(5) 0.6547(5)
O29_6 O 0.1267(6) 0.2097(7) 0.9304(6)
O30_6 O 0.3396(6) 0.2859(6) 0.8977(5)
O31_6 O 0.2688(7) 0.2803(7) 0.5619(6)
O32_6 O 0.2845(6) 0.0722(5) 0.8486(5)
O33_6 O 0.2024(5) 0.1477(5) 0.8736(5)
O34_6 O 0.0036(5) 0.1758(6) 0.7853(5)
O35_6 O 0.1281(7) 0.4012(5) 0.6355(5)
O36_6 O 0.2652(6) 0.4416(6) 0.7943(6)
O37_6 O 0.4060(5) 0.3145(6) 0.7230(6)
O38_6 O 0.0774(7) 0.2090(7) 0.5930(6)
O39_6 O 0.0570(5) 0.3669(6) 0.8338(5)
O40_6 O 0.1616(6) 0.0356(6) 0.7057(6)
O41_6 O 0.0067(6) 0.6087(6) 0.7998(5)
O44_4 O 0.0109(6) 0.6111(6) 0.7138(5)
N1_6 N 0.0183(7) 0.7180(7) 0.8090(6)
C1_6 C 0.0113(9) 0.6351(9) 0.7590(10)
C2_6 C 0.0138(9) 0.6987(9) 0.7589(9)
C3_6 C 0.0606(4) 0.7188(4) 0.7246(4)
H3_6 H 0.0689 0.6924 0.6973
H4_6 H 0.0531 0.7554 0.7102
C4_6 C 0.0724(4) 0.7480(4) 0.8219(4)
H5_6 H 0.0904 0.7343 0.8527
H6_6 H 0.0695 0.7885 0.8225
C5_6 C 0.1035(4) 0.7203(4) 0.7624(4)
H7_6 H 0.1339 0.7442 0.7511
H8_6 H 0.1182 0.6830 0.7681
H9_6 H 0.0241 0.7222 0.9266
H19_6 H 0.0238 0.3142 0.9500
H22_6 H 0.0184 0.2294 0.9264
H24_6 H 0.0042 0.2702 0.8560
O52_4 O 0.0474(5) 0.4894(6) 0.9478(5)
Cu1_6 Cu 0.99565(11) 0.65879(11) 0.85842(10)
Cu2_4 Cu 0.96949(11) 0.49870(11) 0.96810(10)
Cu3_6 Cu 0.95224(11) 0.37411(11) 0.82743(10)
O42_6 O 0.9815(6) 0.5960(6) 0.9045(6)
O43_6 O 0.9776(5) 0.5758(6) 0.9882(5)
O45_4 O 0.9894(6) 0.4526(5) 0.6978(5)
O46_6 O 0.9587(6) 0.4207(6) 0.9735(5)
O47_6 O 0.9596(5) 0.4228(6) 0.8879(5)
O48_6 O 0.9776(6) 0.4351(6) 0.7807(5)
H1_6 H 0.9921 0.7133 0.8312
H2_6 H 0.9785 0.7127 0.7447
N2_6 N 0.9897(4) 0.7078(4) 0.9197(4)
C6_6 C 0.9792(4) 0.6106(4) 0.9543(4)
C7_6 C 0.9728(4) 0.6706(4) 0.9633(4)
H10_6 H 0.9941 0.6811 0.9939
C8_6 C 0.9086(10) 0.6863(10) 0.9718(10)
H11_6 H 0.8850 0.6682 0.9465
C9_6 C 0.9080(9) 0.7498(10) 0.9651(9)
H13_6 H 0.8707 0.7636 0.9575
H14_6 H 0.9224 0.7688 0.9952
C10_6 C 0.9465(10) 0.7561(10) 0.9203(9)
H15_6 H 0.9658 0.7917 0.9224
H16_6 H 0.9250 0.7556 0.8888
N3_6 N 0.9349(7) 0.3130(7) 0.8783(6)
H17_6 H 0.8985 0.3026 0.8744
C11_6 C 0.9542(9) 0.3968(8) 0.9301(9)
C12_6 C 0.9428(8) 0.3318(8) 0.9293(8)
H18_6 H 0.9079 0.3251 0.9480
C13_6 C 0.9872(9) 0.2970(9) 0.9534(8)
H20_6 H 0.9795 0.2901 0.9893
C14_6 C 0.9832(10) 0.2496(11) 0.9252(9)
H21_6 H 0.9542 0.2257 0.9393
C15_6 C 0.9705(10) 0.2626(10) 0.8754(9)
H23_6 H 0.9505 0.2321 0.8592
N4_6 N 0.9557(6) 0.3251(6) 0.7639(6)
H25_6 H 0.9768 0.3244 0.7906
C16_6 C 0.9803(9) 0.4204(9) 0.7343(10)
C17_6 C 0.9641(9) 0.3594(9) 0.7187(9)
H26_6 H 0.9937 0.3432 0.6973
C18_6 C 0.9066(9) 0.3554(9) 0.6903(9)
H27_6 H 0.8802 0.3823 0.7041
H28_6 H 0.9112 0.3625 0.6540
C19_6 C 0.8872(11) 0.2986(10) 0.6990(9)
H29_6 H 0.9062 0.2719 0.6771
H30_6 H 0.8471 0.2953 0.6942
C20_6 C 0.9040(9) 0.2911(9) 0.7561(8)
H31_6 H 0.8743 0.3042 0.7784
H32_6 H 0.9113 0.2520 0.7635
O49_6 O 0.8625(7) 0.4113(7) 0.8102(6)
Cu4_4 Cu 0.99870(11) 0.53051(11) 0.71810(10)
O51_4 O 0.8889(6) 0.5109(6) 0.9638(5)
H33_6 H 0.85935 0.420038 0.773151
H34_6 H 0.83349 0.383448 0.819767
W1_7 W 0.11972(4) 0.73779(4) 0.02697(4)
W2_7 W 0.16564(4) 0.61037(4) 0.04972(3)
W3_7 W 0.30845(4) 0.56976(4) 0.01430(4)
W4_7 W 0.36549(4) 0.76039(4) 0.07374(3)
W5_7 W 0.28387(4) 0.66243(4) 0.12326(3)
W6_7 W 0.23475(4) 0.79033(4) 0.10488(4)
O1_8 O 0.2001(5) 0.6850(5) 0.0000(5)
O3_7 O 0.2784(5) 0.7229(5) 0.0530(4)
O5_7 O 0.1105(5) 0.6662(6) 0.0598(5)
O8_7 O 0.2348(5) 0.8360(5) 0.0435(5)
O9_7 O 0.2459(5) 0.7299(5) 0.1493(4)
O10_7 O 0.3949(5) 0.7029(6) 0.0330(5)
O11_7 O 0.3841(5) 0.5957(5) 0.0002(5)
O14_7 O 0.2124(5) 0.6384(5) 0.1001(5)
O15_7 O 0.3145(6) 0.6094(5) 0.0788(5)
O20_7 O 0.3590(5) 0.8037(5) 0.0139(5)
O21_7 O 0.3142(5) 0.8066(6) 0.1099(5)
O23_7 O 0.1661(5) 0.7611(5) 0.0825(5)
O24_7 O 0.2303(5) 0.5714(5) 0.0258(5)
O29_7 O 0.2903(7) 0.6267(6) 0.1804(6)
O30_7 O 0.2141(6) 0.8396(6) 0.1477(5)
O32_7 O 0.4278(5) 0.7845(6) 0.0986(5)
O33_7 O 0.3523(5) 0.7024(5) 0.1236(5)
O34_7 O 0.3242(6) 0.5036(5) 0.0353(5)
O36_7 O 0.0584(6) 0.7652(6) 0.0443(6)
O39_7 O 0.1331(6) 0.5570(5) 0.0838(5)
Cu3_7 Cu 0.12589(11) 0.45224(11) 0.07743(10)
O46_7 O 0.0793(6) 0.4587(6) 0.2235(5)
O47_7 O 0.0772(6) 0.4596(5) 0.1379(5)
O48_7 O 0.0649(6) 0.4776(6) 0.0307(5)
N3_7 N 0.1870(7) 0.4349(7) 0.1283(6)
H17_7 H 0.1974 0.3985 0.1244
C11_7 C 0.1032(8) 0.4542(9) 0.1801(9)
C12_7 C 0.1682(8) 0.4428(8) 0.1793(8)
H18_7 H 0.1749 0.4079 0.1980
C13_7 C 0.2030(9) 0.4872(9) 0.2034(8)
H19_7 H 0.1858 0.5238 0.2000
H20_7 H 0.2099 0.4795 0.2393
C14_7 C 0.2504(11) 0.4832(10) 0.1752(9)
H21_7 H 0.2743 0.4542 0.1893
H22_7 H 0.2706 0.5184 0.1764
C15_7 C 0.2374(10) 0.4705(10) 0.1254(9)
H23_7 H 0.2679 0.4505 0.1092
H24_7 H 0.2298 0.5042 0.1060
N4_7 N 0.1749(6) 0.4557(6) 0.0139(6)
H25_7 H 0.1756 0.4768 0.0406
C20_7 C 0.2089(9) 0.4040(9) 0.0061(8)
H31_7 H 0.1958 0.3743 0.0284
H32_7 H 0.2480 0.4113 0.0135
O49_7 O 0.0887(7) 0.3625(7) 0.0602(6)
H33_7 H 0.079962 0.35935 0.0231508
H34_7 H 0.116552 0.33349 0.0697669
B1_7 B 0.2591(9) 0.7049(10) 0.9980(9)
W8_7 W 0.21513(4) 0.84185(4) 0.97451(4)
W9_7 W 0.14669(4) 0.65098(4) 0.93008(3)
W10_7 W 0.23755(4) 0.75831(4) 0.87462(4)
W11_7 W 0.39381(4) 0.66513(4) 0.96779(4)
W12_7 W 0.29051(4) 0.61704(4) 0.89598(4)
O1_9 O 0.2001(5) 0.6850(5) 1.0000(5)
O2_7 O 0.2636(5) 0.7559(5) 0.9635(5)
O4_7 O 0.2974(5) 0.6599(5) 0.9790(5)
O6_7 O 0.3769(5) 0.7350(5) 0.9390(5)
O7_7 O 0.2890(6) 0.8647(5) 0.9569(5)
O12_7 O 0.1333(5) 0.5979(5) 0.9831(5)
O13_7 O 0.3086(5) 0.7949(5) 0.8790(5)
O16_7 O 0.0966(5) 0.7029(5) 0.9656(5)
O17_7 O 0.1762(5) 0.7144(6) 0.8953(5)
O18_7 O 0.2126(5) 0.6136(5) 0.9102(4)
O19_7 O 0.2782(5) 0.6887(6) 0.8715(5)
O22_7 O 0.2048(6) 0.8245(5) 0.9033(5)
O25_7 O 0.2992(5) 0.5562(5) 0.9425(5)
O26_7 O 0.1500(5) 0.7970(5) 0.9884(5)
O27_7 O 0.3672(5) 0.6314(5) 0.9047(5)
O31_7 O 0.2197(7) 0.7688(7) 0.8119(6)
O35_7 O 0.0988(5) 0.6281(7) 0.8855(5)
O37_7 O 0.1855(6) 0.9060(5) 0.9730(6)
O38_7 O 0.2910(7) 0.5774(7) 0.8430(6)
O40_7 O 0.4644(6) 0.6616(6) 0.9557(6)
C16_7 C 0.0796(9) 0.4803(9) 0.9843(10)
C17_7 C 0.1406(9) 0.4641(9) 0.9687(9)
H26_7 H 0.1568 0.4937 0.9473
C18_7 C 0.1446(9) 0.4066(9) 0.9403(9)
H27_7 H 0.1177 0.3802 0.9541
H28_7 H 0.1375 0.4112 0.9040
C19_7 C 0.2014(10) 0.3872(11) 0.9490(9)
H29_7 H 0.2281 0.4062 0.9271
H30_7 H 0.2047 0.3471 0.9442
Cu1_7 Cu 0.84121(11) 0.49565(11) 0.10842(10)
O41_7 O 0.8913(6) 0.5067(6) 0.0498(5)
O42_7 O 0.9040(6) 0.4815(6) 0.1545(6)
O43_7 O 0.9242(6) 0.4776(5) 0.2382(5)
N1_7 N 0.7820(7) 0.5183(7) 0.0590(6)
H1_7 H 0.7867 0.4921 0.0812
C1_7 C 0.8649(9) 0.5113(9) 0.0090(10)
C2_7 C 0.8013(9) 0.5138(9) 0.0089(9)
C4_7 C 0.7520(4) 0.5724(4) 0.0719(4)
H5_7 H 0.7657 0.5904 0.1027
H6_7 H 0.7115 0.5695 0.0725
C5_7 C 0.7797(4) 0.6035(4) 0.0124(4)
H7_7 H 0.7558 0.6339 0.0011
H8_7 H 0.8170 0.6182 0.0181
N2_7 N 0.7922(4) 0.4897(4) 0.1697(4)
H9_7 H 0.7778 0.5241 0.1766
C6_7 C 0.8894(4) 0.4792(4) 0.2043(4)
C7_7 C 0.8294(4) 0.4728(4) 0.2133(4)
H10_7 H 0.8189 0.4941 0.2439
C8_7 C 0.8137(10) 0.4086(10) 0.2218(10)
H11_7 H 0.8318 0.3850 0.1965
H12_5 H 0.8244 0.3961 0.2557
C9_7 C 0.7502(10) 0.4080(9) 0.2151(9)
H13_7 H 0.7364 0.3707 0.2075
H14_7 H 0.7312 0.4224 0.2452
C10_7 C 0.7439(10) 0.4465(10) 0.1703(9)
H15_7 H 0.7083 0.4658 0.1724
H16_7 H 0.7444 0.4250 0.1388
H2_7 H 0.7873 0.4785 0.9947
C3_7 C 0.7812(4) 0.5606(4) 0.9746(4)
H3_7 H 0.8076 0.5689 0.9473
H4_7 H 0.7446 0.5531 0.9602
Cu1_8 Cu 0.15879(11) 0.50435(11) 0.60842(10)
O41_8 O 0.1087(6) 0.4933(6) 0.5498(5)
O42_8 O 0.0960(6) 0.5185(6) 0.6545(6)
O43_8 O 0.0758(6) 0.5224(5) 0.7382(5)
N1_8 N 0.2180(7) 0.4817(7) 0.5590(6)
H1_8 H 0.2133 0.5079 0.5812
C1_8 C 0.1351(9) 0.4887(9) 0.5090(10)
C2_8 C 0.1987(9) 0.4862(9) 0.5089(9)
H2_8 H 0.2127 0.5215 0.4947
C3_8 C 0.2188(4) 0.4394(4) 0.4746(4)
H3_8 H 0.1924 0.4311 0.4473
H4_8 H 0.2554 0.4469 0.4602
C4_8 C 0.2480(4) 0.4276(4) 0.5719(4)
H5_8 H 0.2343 0.4096 0.6027
H6_8 H 0.2885 0.4305 0.5725
C5_8 C 0.2203(4) 0.3965(4) 0.5124(4)
H7_8 H 0.2442 0.3661 0.5011
H8_8 H 0.1830 0.3818 0.5181
N2_8 N 0.2078(4) 0.5103(4) 0.6697(4)
H9_8 H 0.2222 0.4759 0.6766
C6_8 C 0.1106(4) 0.5208(4) 0.7043(4)
C7_8 C 0.1706(4) 0.5272(4) 0.7133(4)
H10_8 H 0.1811 0.5059 0.7439
C8_8 C 0.1863(10) 0.5914(10) 0.7218(10)
H11_8 H 0.1682 0.6150 0.6965
H12_6 H 0.1756 0.6039 0.7557
C9_8 C 0.2498(10) 0.5920(9) 0.7151(9)
H13_8 H 0.2636 0.6293 0.7075
H14_8 H 0.2688 0.5776 0.7452
C10_8 C 0.2561(10) 0.5535(10) 0.6703(9)
H15_8 H 0.2917 0.5342 0.6724
H16_8 H 0.2556 0.5750 0.6388
B1_8 B 0.7409(9) 0.2951(10) 0.4980(9)
W1_8 W 0.88028(4) 0.26221(4) 0.52697(4)
W2_8 W 0.83436(4) 0.38963(4) 0.54972(3)
W3_8 W 0.69155(4) 0.43024(4) 0.51430(4)
W4_8 W 0.63451(4) 0.23961(4) 0.57374(3)
W5_8 W 0.71613(4) 0.33757(4) 0.62326(3)
W6_8 W 0.76525(4) 0.20967(4) 0.60488(4)
W8_8 W 0.78487(4) 0.15815(4) 0.47451(4)
W9_8 W 0.85331(4) 0.34902(4) 0.43008(3)
W10_8 W 0.76245(4) 0.24169(4) 0.37462(4)
W11_8 W 0.60619(4) 0.33487(4) 0.46779(4)
W12_8 W 0.70949(4) 0.38296(4) 0.39598(4)
O1_10 O 0.7999(5) 0.3150(5) 0.5000(5)
O2_8 O 0.7364(5) 0.2441(5) 0.4635(5)
O3_8 O 0.7216(5) 0.2771(5) 0.5530(4)
O4_8 O 0.7026(5) 0.3401(5) 0.4790(5)
O5_8 O 0.8895(5) 0.3338(6) 0.5598(5)
O6_8 O 0.6231(5) 0.2650(5) 0.4390(5)
O7_8 O 0.7110(6) 0.1353(5) 0.4569(5)
O8_8 O 0.7652(5) 0.1640(5) 0.5435(5)
O9_8 O 0.7541(5) 0.2701(5) 0.6493(4)
O10_8 O 0.6051(5) 0.2971(6) 0.5330(5)
O11_8 O 0.6159(5) 0.4043(5) 0.5002(5)
O12_8 O 0.8667(5) 0.4021(5) 0.4831(5)
O13_8 O 0.6914(5) 0.2051(5) 0.3790(5)
O14_8 O 0.7876(5) 0.3616(5) 0.6001(5)
O15_8 O 0.6855(6) 0.3906(5) 0.5788(5)
O16_8 O 0.9034(5) 0.2971(5) 0.4656(5)
O17_8 O 0.8238(5) 0.2856(6) 0.3953(5)
O18_8 O 0.7874(5) 0.3864(5) 0.4102(4)
O19_8 O 0.7218(5) 0.3113(6) 0.3715(5)
O20_8 O 0.6410(5) 0.1963(5) 0.5139(5)
O21_8 O 0.6858(5) 0.1934(6) 0.6099(5)
O22_8 O 0.7952(6) 0.1755(5) 0.4033(5)
O23_8 O 0.8339(5) 0.2389(5) 0.5825(5)
O24_8 O 0.7697(5) 0.4286(5) 0.5258(5)
O25_8 O 0.7008(5) 0.4438(5) 0.4425(5)
O26_8 O 0.8500(5) 0.2030(5) 0.4884(5)
O27_8 O 0.6328(5) 0.3686(5) 0.4047(5)
O29_8 O 0.7097(7) 0.3733(6) 0.6804(6)
O30_8 O 0.7859(6) 0.1604(6) 0.6477(5)
O31_8 O 0.7803(7) 0.2312(7) 0.3119(6)
O32_8 O 0.5722(5) 0.2155(6) 0.5986(5)
O33_8 O 0.6477(5) 0.2976(5) 0.6236(5)
O34_8 O 0.6758(6) 0.4964(5) 0.5353(5)
O35_8 O 0.9012(5) 0.3719(7) 0.3855(5)
O36_8 O 0.9416(6) 0.2348(6) 0.5443(6)
O37_8 O 0.8145(6) 0.0940(5) 0.4730(6)
O38_8 O 0.7090(7) 0.4226(7) 0.3430(6)
O39_8 O 0.8669(6) 0.4430(5) 0.5838(5)
O40_8 O 0.5356(6) 0.3384(6) 0.4557(6)
Cu3_8 Cu 0.87411(11) 0.54776(11) 0.57743(10)
O46_8 O 0.9207(6) 0.5413(6) 0.7235(5)
O47_8 O 0.9228(6) 0.5404(5) 0.6379(5)
O48_8 O 0.9351(6) 0.5224(6) 0.5307(5)
N3_8 N 0.8130(7) 0.5651(7) 0.6283(6)
H17_8 H 0.8026 0.6015 0.6244
C11_8 C 0.8968(8) 0.5458(9) 0.6801(9)
C12_8 C 0.8318(8) 0.5572(8) 0.6793(8)
H18_8 H 0.8251 0.5921 0.6980
C13_8 C 0.7970(9) 0.5128(9) 0.7034(8)
H19_8 H 0.8142 0.4762 0.7000
H20_8 H 0.7901 0.5205 0.7393
C14_8 C 0.7496(11) 0.5168(10) 0.6752(9)
H21_8 H 0.7257 0.5458 0.6893
H22_8 H 0.7294 0.4816 0.6764
C15_8 C 0.7626(10) 0.5295(10) 0.6254(9)
H23_8 H 0.7321 0.5495 0.6092
H24_8 H 0.7702 0.4958 0.6060
N4_8 N 0.8251(6) 0.5443(6) 0.5139(6)
H25_8 H 0.8244 0.5232 0.5406
C16_8 C 0.9204(9) 0.5197(9) 0.4843(10)
C17_8 C 0.8594(9) 0.5359(9) 0.4687(9)
H26_8 H 0.8432 0.5063 0.4473
C18_8 C 0.8554(9) 0.5934(9) 0.4403(9)
H27_8 H 0.8823 0.6198 0.4541
H28_8 H 0.8625 0.5888 0.4040
C19_8 C 0.7986(10) 0.6128(11) 0.4490(9)
H29_8 H 0.7719 0.5938 0.4271
H30_8 H 0.7953 0.6529 0.4442
C20_8 C 0.7911(9) 0.5960(9) 0.5061(8)
H31_8 H 0.8042 0.6257 0.5284
H32_8 H 0.7520 0.5887 0.5135
O49_8 O 0.9113(7) 0.6375(7) 0.5602(6)
H33_8 H 0.920038 0.64065 0.523151
H34_8 H 0.883448 0.66651 0.569767
H12_7 H 0.6756 0.8961 0.9943
H12_8 H 0.8961 0.6756 0.0057
loop_
_geom_bond_atom_site_label_1
_geom_bond_atom_site_label_2
_geom_bond_site_symmetry_1
_geom_bond_site_symmetry_2
B1 O1 1_555 1_555
W7 O2 1_555 1_555
W8 O2 1_555 1_555
W9 O1 1_555 1_555
W10 O2 1_555 1_555
W11 O4 1_555 1_555
W12 O4 1_555 1_555
O2 B1 1_555 1_555
O4 B1 1_555 1_555
O6 W7 1_555 1_555
O7 W7 1_555 1_555
O13 W7 1_555 1_555
O17 W9 1_555 1_555
O18 W9 1_555 1_555
O19 W10 1_555 1_555
O22 W8 1_555 1_555
O27 W11 1_555 1_555
O31 W10 1_555 1_555
O35 W9 1_555 1_555
O37 W8 1_555 1_555
O38 W12 1_555 1_555
O40 W11 1_555 1_555
O45 C16 1_555 1_555
H26 C17 1_555 1_555
C18 C17 1_555 1_555
H27 C18 1_555 1_555
H28 C18 1_555 1_555
C19 C18 1_555 1_555
H29 C19 1_555 1_555
H30 C19 1_555 1_555
O50 W7 1_555 1_555
W8 O7 1_555 1_555
W8 O26 1_555 1_555
W9 O12 1_555 1_555
W9 O16 1_555 1_555
W10 O13 1_555 1_555
W10 O17 1_555 1_555
W10 O22 1_555 1_555
W11 O6 1_555 1_555
W12 O18 1_555 1_555
W12 O19 1_555 1_555
W12 O25 1_555 1_555
W12 O27 1_555 1_555
C16 C17 1_555 1_555
W1 O1_2 1_555 1_555
W2 O1_2 1_555 1_555
W4 O3 1_555 1_555
W5 O3 1_555 1_555
W6 O3 1_555 1_555
O5 W1 1_555 1_555
O8 W6 1_555 1_555
O9 W5 1_555 1_555
O10 W4 1_555 1_555
O11 W3 1_555 1_555
O14 W2 1_555 1_555
O15 W3 1_555 1_555
O20 W4 1_555 1_555
O21 W4 1_555 1_555
O23 W1 1_555 1_555
O24 W2 1_555 1_555
O29 W5 1_555 1_555
O30 W6 1_555 1_555
O32 W4 1_555 1_555
O33 W4 1_555 1_555
O34 W3 1_555 1_555
O36 W1 1_555 1_555
O39 W2 1_555 1_555
Cu3 O39 1_555 1_555
O46 Cu2 1_555 1_555
O47 Cu3 1_555 1_555
O48 Cu3 1_555 1_555
N3 Cu3 1_555 1_555
H17 N3 1_555 1_555
C11 O46 1_555 1_555
C12 N3 1_555 1_555
H18 C12 1_555 1_555
C13 C12 1_555 1_555
H19 C13 1_555 1_555
H20 C13 1_555 1_555
C14 C13 1_555 1_555
H21 C14 1_555 1_555
H22 C14 1_555 1_555
C15 N3 1_555 1_555
H23 C15 1_555 1_555
H24 C15 1_555 1_555
N4 Cu3 1_555 1_555
H25 N4 1_555 1_555
C20 N4 1_555 1_555
H31 C20 1_555 1_555
H32 C20 1_555 1_555
O49 Cu3 1_555 1_555
O52 Cu2 1_555 1_555
W2 O5 1_555 1_555
W3 O24 1_555 1_555
W5 O14 1_555 1_555
W5 O15 1_555 1_555
W5 O33 1_555 1_555
W6 O9 1_555 1_555
W6 O21 1_555 1_555
W6 O23 1_555 1_555
O47 C11 1_555 1_555
C11 C12 1_555 1_555
C14 C15 1_555 1_555
O49 H33 1_555 1_555
O49 H34 1_555 1_555
H3 C3 1_555 1_555
H4 C3 1_555 1_555
Cu4 O44 1_555 1_555
O28 Cu1 1_555 1_555
Cu1 O41 1_555 1_555
O41 C1 1_555 1_555
O42 Cu1 1_555 1_555
O43 C6 1_555 1_555
N1 Cu1 1_555 1_555
H1 N1 1_555 1_555
C1 C2 1_555 1_555
C2 N1 1_555 1_555
C4 N1 1_555 1_555
H5 C4 1_555 1_555
H6 C4 1_555 1_555
H7 C5 1_555 1_555
H8 C5 1_555 1_555
N2 Cu1 1_555 1_555
H9 N2 1_555 1_555
C6 O42 1_555 1_555
C7 N2 1_555 1_555
H10 C7 1_555 1_555
C8 C7 1_555 1_555
H11 C8 1_555 1_555
H12 C8 1_555 1_555
C9 C8 1_555 1_555
H13 C9 1_555 1_555
H14 C9 1_555 1_555
C10 N2 1_555 1_555
H15 C10 1_555 1_555
H16 C10 1_555 1_555
W13 O28 1_555 1_555
C4 C5 1_555 1_555
C6 C7 1_555 1_555
C9 C10 1_555 1_555
O28_2 Cu1_2 1_555 1_555
Cu1_2 O41_2 1_555 1_555
O41_2 C1_2 1_555 1_555
O42_2 Cu1_2 1_555 1_555
O43_2 C6_2 1_555 1_555
O44_2 C1_2 1_555 1_555
N1_2 Cu1_2 1_555 1_555
H1_2 N1_2 1_555 1_555
C1_2 C2_2 1_555 1_555
C2_2 N1_2 1_555 1_555
H2_2 C2_2 1_555 1_555
C3_2 C2_2 1_555 1_555
H3_2 C3_2 1_555 1_555
H4_2 C3_2 1_555 1_555
C4_2 N1_2 1_555 1_555
H5_2 C4_2 1_555 1_555
H6_2 C4_2 1_555 1_555
C5_2 C3_2 1_555 1_555
H7_2 C5_2 1_555 1_555
H8_2 C5_2 1_555 1_555
N2_2 Cu1_2 1_555 1_555
H9_2 N2_2 1_555 1_555
C6_2 O42_2 1_555 1_555
C7_2 N2_2 1_555 1_555
H10_2 C7_2 1_555 1_555
C8_2 C7_2 1_555 1_555
H11_2 C8_2 1_555 1_555
H12_2 C8_2 1_555 1_555
C9_2 C8_2 1_555 1_555
H13_2 C9_2 1_555 1_555
H14_2 C9_2 1_555 1_555
C10_2 N2_2 1_555 1_555
H15_2 C10_2 1_555 1_555
H16_2 C10_2 1_555 1_555
W13_2 O28_2 1_555 1_555
Cu4_2 O44_2 1_555 1_555
C4_2 C5_2 1_555 1_555
C6_2 C7_2 1_555 1_555
C9_2 C10_2 1_555 1_555
B1_2 O1_3 1_555 1_555
W1_2 O1_3 1_555 1_555
W2_2 O1_3 1_555 1_555
W3_2 O4_2 1_555 1_555
W4_2 O3_2 1_555 1_555
W5_2 O3_2 1_555 1_555
W6_2 O3_2 1_555 1_555
W7_2 O2_2 1_555 1_555
W8_2 O2_2 1_555 1_555
W9_2 O1_3 1_555 1_555
W10_2 O2_2 1_555 1_555
W11_2 O4_2 1_555 1_555
W12_2 O4_2 1_555 1_555
O2_2 B1_2 1_555 1_555
O3_2 B1_2 1_555 1_555
O4_2 B1_2 1_555 1_555
O5_2 W1_2 1_555 1_555
O6_2 W7_2 1_555 1_555
O7_2 W7_2 1_555 1_555
O8_2 W6_2 1_555 1_555
O9_2 W5_2 1_555 1_555
O10_2 W4_2 1_555 1_555
O11_2 W3_2 1_555 1_555
O12_2 W2_2 1_555 1_555
O13_2 W7_2 1_555 1_555
O14_2 W2_2 1_555 1_555
O15_2 W3_2 1_555 1_555
O16_2 W1_2 1_555 1_555
O17_2 W9_2 1_555 1_555
O18_2 W9_2 1_555 1_555
O19_2 W10_2 1_555 1_555
O20_2 W4_2 1_555 1_555
O21_2 W4_2 1_555 1_555
O22_2 W8_2 1_555 1_555
O23_2 W1_2 1_555 1_555
O24_2 W2_2 1_555 1_555
O25_2 W3_2 1_555 1_555
O26_2 W1_2 1_555 1_555
O27_2 W11_2 1_555 1_555
O29_2 W5_2 1_555 1_555
O30_2 W6_2 1_555 1_555
O31_2 W10_2 1_555 1_555
O32_2 W4_2 1_555 1_555
O33_2 W4_2 1_555 1_555
O34_2 W3_2 1_555 1_555
O35_2 W9_2 1_555 1_555
O36_2 W1_2 1_555 1_555
O37_2 W8_2 1_555 1_555
O38_2 W12_2 1_555 1_555
O39_2 W2_2 1_555 1_555
O40_2 W11_2 1_555 1_555
Cu3_2 O39_2 1_555 1_555
O45_2 C16_2 1_555 1_555
O46_2 Cu2_2 1_555 1_555
O47_2 Cu3_2 1_555 1_555
O48_2 Cu3_2 1_555 1_555
N3_2 Cu3_2 1_555 1_555
H17_2 N3_2 1_555 1_555
C11_2 O46_2 1_555 1_555
C12_2 N3_2 1_555 1_555
H18_2 C12_2 1_555 1_555
C13_2 C12_2 1_555 1_555
H19_2 C13_2 1_555 1_555
H20_2 C13_2 1_555 1_555
C14_2 C13_2 1_555 1_555
H21_2 C14_2 1_555 1_555
H22_2 C14_2 1_555 1_555
C15_2 N3_2 1_555 1_555
H23_2 C15_2 1_555 1_555
H24_2 C15_2 1_555 1_555
N4_2 Cu3_2 1_555 1_555
H25_2 N4_2 1_555 1_555
C16_2 O48_2 1_555 1_555
C17_2 N4_2 1_555 1_555
H26_2 C17_2 1_555 1_555
C18_2 C17_2 1_555 1_555
H27_2 C18_2 1_555 1_555
H28_2 C18_2 1_555 1_555
C19_2 C18_2 1_555 1_555
H29_2 C19_2 1_555 1_555
H30_2 C19_2 1_555 1_555
C20_2 N4_2 1_555 1_555
H31_2 C20_2 1_555 1_555
H32_2 C20_2 1_555 1_555
O49_2 Cu3_2 1_555 1_555
O50_2 W7_2 1_555 1_555
O52_2 Cu2_2 1_555 1_555
W2_2 O5_2 1_555 1_555
W3_2 O24_2 1_555 1_555
W5_2 O14_2 1_555 1_555
W5_2 O15_2 1_555 1_555
W5_2 O33_2 1_555 1_555
W6_2 O9_2 1_555 1_555
W6_2 O21_2 1_555 1_555
W6_2 O23_2 1_555 1_555
W7_2 O20_2 1_555 1_555
W8_2 O7_2 1_555 1_555
W8_2 O8_2 1_555 1_555
W8_2 O26_2 1_555 1_555
W9_2 O12_2 1_555 1_555
W9_2 O16_2 1_555 1_555
W10_2 O13_2 1_555 1_555
W10_2 O17_2 1_555 1_555
W10_2 O22_2 1_555 1_555
W11_2 O6_2 1_555 1_555
W11_2 O10_2 1_555 1_555
W11_2 O11_2 1_555 1_555
W12_2 O18_2 1_555 1_555
W12_2 O19_2 1_555 1_555
W12_2 O25_2 1_555 1_555
W12_2 O27_2 1_555 1_555
O47_2 C11_2 1_555 1_555
C11_2 C12_2 1_555 1_555
C14_2 C15_2 1_555 1_555
C16_2 C17_2 1_555 1_555
C19_2 C20_2 1_555 1_555
O49_2 H33_2 1_555 1_555
O49_2 H34_2 1_555 1_555
B1_3 O1_4 1_555 1_555
W1_3 O1_4 1_555 1_555
W2_3 O1_4 1_555 1_555
W3_3 O4_3 1_555 1_555
W4_3 O3_3 1_555 1_555
W5_3 O3_3 1_555 1_555
W6_3 O3_3 1_555 1_555
W7_3 O2_3 1_555 1_555
W8_3 O2_3 1_555 1_555
W9_3 O1_4 1_555 1_555
W10_3 O2_3 1_555 1_555
W11_3 O4_3 1_555 1_555
W12_3 O4_3 1_555 1_555
O2_3 B1_3 1_555 1_555
O3_3 B1_3 1_555 1_555
O4_3 B1_3 1_555 1_555
O5_3 W1_3 1_555 1_555
O6_3 W7_3 1_555 1_555
O7_3 W7_3 1_555 1_555
O8_3 W6_3 1_555 1_555
O9_3 W5_3 1_555 1_555
O10_3 W4_3 1_555 1_555
O11_3 W3_3 1_555 1_555
O12_3 W2_3 1_555 1_555
O13_3 W7_3 1_555 1_555
O14_3 W2_3 1_555 1_555
O15_3 W3_3 1_555 1_555
O16_3 W1_3 1_555 1_555
O17_3 W9_3 1_555 1_555
O18_3 W9_3 1_555 1_555
O19_3 W10_3 1_555 1_555
O20_3 W4_3 1_555 1_555
O21_3 W4_3 1_555 1_555
O22_3 W8_3 1_555 1_555
O23_3 W1_3 1_555 1_555
O24_3 W2_3 1_555 1_555
O25_3 W3_3 1_555 1_555
O26_3 W1_3 1_555 1_555
O27_3 W11_3 1_555 1_555
O29_3 W5_3 1_555 1_555
O30_3 W6_3 1_555 1_555
O31_3 W10_3 1_555 1_555
O32_3 W4_3 1_555 1_555
O33_3 W4_3 1_555 1_555
O34_3 W3_3 1_555 1_555
O35_3 W9_3 1_555 1_555
O36_3 W1_3 1_555 1_555
O37_3 W8_3 1_555 1_555
O38_3 W12_3 1_555 1_555
O39_3 W2_3 1_555 1_555
O40_3 W11_3 1_555 1_555
O41_3 C1_3 1_555 1_555
O51_2 C1_3 1_555 1_555
C1_3 C2_3 1_555 1_555
C2_3 N1_3 1_555 1_555
C3_3 C2_3 1_555 1_555
H3_3 C3_3 1_555 1_555
H4_3 C3_3 1_555 1_555
C4_3 N1_3 1_555 1_555
H5_3 C4_3 1_555 1_555
H6_3 C4_3 1_555 1_555
C5_3 C3_3 1_555 1_555
H7_3 C5_3 1_555 1_555
H8_3 C5_3 1_555 1_555
O50_3 W7_3 1_555 1_555
W2_3 O5_3 1_555 1_555
W3_3 O24_3 1_555 1_555
W5_3 O14_3 1_555 1_555
W5_3 O15_3 1_555 1_555
W5_3 O33_3 1_555 1_555
W6_3 O9_3 1_555 1_555
W6_3 O21_3 1_555 1_555
W6_3 O23_3 1_555 1_555
W7_3 O20_3 1_555 1_555
W8_3 O7_3 1_555 1_555
W8_3 O8_3 1_555 1_555
W8_3 O26_3 1_555 1_555
W9_3 O12_3 1_555 1_555
W9_3 O16_3 1_555 1_555
W10_3 O13_3 1_555 1_555
W10_3 O17_3 1_555 1_555
W10_3 O22_3 1_555 1_555
W11_3 O6_3 1_555 1_555
W11_3 O10_3 1_555 1_555
W11_3 O11_3 1_555 1_555
W12_3 O18_3 1_555 1_555
W12_3 O19_3 1_555 1_555
W12_3 O25_3 1_555 1_555
W12_3 O27_3 1_555 1_555
C4_3 C5_3 1_555 1_555
O28_3 Cu1_3 1_555 1_555
Cu4 O43_3 1_555 1_555
O42_3 Cu1_3 1_555 1_555
O43_3 C6_3 1_555 1_555
O52_2 C16_3 1_555 1_555
O46_3 Cu4 1_555 1_555
O47_3 Cu3_3 1_555 1_555
O48_3 Cu3_3 1_555 1_555
N2_3 Cu1_3 1_555 1_555
C6_3 O42_3 1_555 1_555
C7_3 N2_3 1_555 1_555
H10_3 C7_3 1_555 1_555
C8_3 C7_3 1_555 1_555
H11_3 C8_3 1_555 1_555
C9_3 C8_3 1_555 1_555
H13_3 C9_3 1_555 1_555
H14_3 C9_3 1_555 1_555
C10_3 N2_3 1_555 1_555
H15_3 C10_3 1_555 1_555
H16_3 C10_3 1_555 1_555
N3_3 Cu3_3 1_555 1_555
H17_3 N3_3 1_555 1_555
C11_3 O46_3 1_555 1_555
C12_3 N3_3 1_555 1_555
H18_3 C12_3 1_555 1_555
C13_3 C12_3 1_555 1_555
H20_3 C13_3 1_555 1_555
C14_3 C13_3 1_555 1_555
H21_3 C14_3 1_555 1_555
C15_3 N3_3 1_555 1_555
H23_3 C15_3 1_555 1_555
N4_3 Cu3_3 1_555 1_555
H25_3 N4_3 1_555 1_555
C16_3 O48_3 1_555 1_555
C17_3 N4_3 1_555 1_555
H26_3 C17_3 1_555 1_555
C18_3 C17_3 1_555 1_555
H27_3 C18_3 1_555 1_555
H28_3 C18_3 1_555 1_555
C19_3 C18_3 1_555 1_555
H29_3 C19_3 1_555 1_555
H30_3 C19_3 1_555 1_555
C20_3 N4_3 1_555 1_555
H31_3 C20_3 1_555 1_555
H32_3 C20_3 1_555 1_555
O49_3 Cu3_3 1_555 1_555
W13_3 O28_3 1_555 1_555
O47_3 C11_3 1_555 1_555
C6_3 C7_3 1_555 1_555
C9_3 C10_3 1_555 1_555
C11_3 C12_3 1_555 1_555
C14_3 C15_3 1_555 1_555
C16_3 C17_3 1_555 1_555
C19_3 C20_3 1_555 1_555
O49_3 H33_3 1_555 1_555
O49_3 H34_3 1_555 1_555
O28_4 Cu1_4 1_555 1_555
Cu4_2 O43_4 1_555 1_555
O42_4 Cu1_4 1_555 1_555
O43_4 C6_4 1_555 1_555
O52 C16_4 1_555 1_555
O46_4 Cu4_2 1_555 1_555
O47_4 Cu3_4 1_555 1_555
O48_4 Cu3_4 1_555 1_555
N2_4 Cu1_4 1_555 1_555
C6_4 O42_4 1_555 1_555
C7_4 N2_4 1_555 1_555
H10_4 C7_4 1_555 1_555
C8_4 C7_4 1_555 1_555
H11_4 C8_4 1_555 1_555
H12_3 C8_4 1_555 1_555
C9_4 C8_4 1_555 1_555
H13_4 C9_4 1_555 1_555
H14_4 C9_4 1_555 1_555
C10_4 N2_4 1_555 1_555
H15_4 C10_4 1_555 1_555
H16_4 C10_4 1_555 1_555
N3_4 Cu3_4 1_555 1_555
H17_4 N3_4 1_555 1_555
C11_4 O46_4 1_555 1_555
C12_4 N3_4 1_555 1_555
H18_4 C12_4 1_555 1_555
C13_4 C12_4 1_555 1_555
H20_4 C13_4 1_555 1_555
C14_4 C13_4 1_555 1_555
H21_4 C14_4 1_555 1_555
C15_4 N3_4 1_555 1_555
H23_4 C15_4 1_555 1_555
N4_4 Cu3_4 1_555 1_555
H25_4 N4_4 1_555 1_555
C16_4 O48_4 1_555 1_555
C17_4 N4_4 1_555 1_555
H26_4 C17_4 1_555 1_555
C18_4 C17_4 1_555 1_555
H27_4 C18_4 1_555 1_555
H28_4 C18_4 1_555 1_555
C19_4 C18_4 1_555 1_555
H29_4 C19_4 1_555 1_555
H30_4 C19_4 1_555 1_555
C20_4 N4_4 1_555 1_555
H31_4 C20_4 1_555 1_555
H32_4 C20_4 1_555 1_555
O49_4 Cu3_4 1_555 1_555
W13_4 O28_4 1_555 1_555
O47_4 C11_4 1_555 1_555
C6_4 C7_4 1_555 1_555
C9_4 C10_4 1_555 1_555
C11_4 C12_4 1_555 1_555
C14_4 C15_4 1_555 1_555
C16_4 C17_4 1_555 1_555
C19_4 C20_4 1_555 1_555
O49_4 H33_4 1_555 1_555
O49_4 H34_4 1_555 1_555
B1_4 O1_5 1_555 1_555
W1_4 O1_5 1_555 1_555
W2_4 O1_5 1_555 1_555
W3_4 O4_4 1_555 1_555
W4_4 O3_4 1_555 1_555
W5_4 O3_4 1_555 1_555
W6_4 O3_4 1_555 1_555
W7_4 O2_4 1_555 1_555
W8_4 O2_4 1_555 1_555
W9_4 O1_5 1_555 1_555
W10_4 O2_4 1_555 1_555
W11_4 O4_4 1_555 1_555
W12_4 O4_4 1_555 1_555
O2_4 B1_4 1_555 1_555
O3_4 B1_4 1_555 1_555
O4_4 B1_4 1_555 1_555
O5_4 W1_4 1_555 1_555
O6_4 W7_4 1_555 1_555
O7_4 W7_4 1_555 1_555
O8_4 W6_4 1_555 1_555
O9_4 W5_4 1_555 1_555
O10_4 W4_4 1_555 1_555
O11_4 W3_4 1_555 1_555
O12_4 W2_4 1_555 1_555
O13_4 W7_4 1_555 1_555
O14_4 W2_4 1_555 1_555
O15_4 W3_4 1_555 1_555
O16_4 W1_4 1_555 1_555
O17_4 W9_4 1_555 1_555
O18_4 W9_4 1_555 1_555
O19_4 W10_4 1_555 1_555
O20_4 W4_4 1_555 1_555
O21_4 W4_4 1_555 1_555
O22_4 W8_4 1_555 1_555
O23_4 W1_4 1_555 1_555
O24_4 W2_4 1_555 1_555
O25_4 W3_4 1_555 1_555
O26_4 W1_4 1_555 1_555
O27_4 W11_4 1_555 1_555
O29_4 W5_4 1_555 1_555
O30_4 W6_4 1_555 1_555
O31_4 W10_4 1_555 1_555
O32_4 W4_4 1_555 1_555
O33_4 W4_4 1_555 1_555
O34_4 W3_4 1_555 1_555
O35_4 W9_4 1_555 1_555
O36_4 W1_4 1_555 1_555
O37_4 W8_4 1_555 1_555
O38_4 W12_4 1_555 1_555
O39_4 W2_4 1_555 1_555
O40_4 W11_4 1_555 1_555
O41_4 C1_4 1_555 1_555
O51 C1_4 1_555 1_555
C1_4 C2_4 1_555 1_555
C2_4 N1_4 1_555 1_555
C3_4 C2_4 1_555 1_555
H3_4 C3_4 1_555 1_555
H4_4 C3_4 1_555 1_555
C4_4 N1_4 1_555 1_555
H5_4 C4_4 1_555 1_555
H6_4 C4_4 1_555 1_555
C5_4 C3_4 1_555 1_555
H7_4 C5_4 1_555 1_555
H8_4 C5_4 1_555 1_555
O50_4 W7_4 1_555 1_555
W2_4 O5_4 1_555 1_555
W3_4 O24_4 1_555 1_555
W5_4 O14_4 1_555 1_555
W5_4 O15_4 1_555 1_555
W5_4 O33_4 1_555 1_555
W6_4 O9_4 1_555 1_555
W6_4 O21_4 1_555 1_555
W6_4 O23_4 1_555 1_555
W7_4 O20_4 1_555 1_555
W8_4 O7_4 1_555 1_555
W8_4 O8_4 1_555 1_555
W8_4 O26_4 1_555 1_555
W9_4 O12_4 1_555 1_555
W9_4 O16_4 1_555 1_555
W10_4 O13_4 1_555 1_555
W10_4 O17_4 1_555 1_555
W10_4 O22_4 1_555 1_555
W11_4 O6_4 1_555 1_555
W11_4 O10_4 1_555 1_555
W11_4 O11_4 1_555 1_555
W12_4 O18_4 1_555 1_555
W12_4 O19_4 1_555 1_555
W12_4 O25_4 1_555 1_555
W12_4 O27_4 1_555 1_555
C4_4 C5_4 1_555 1_555
O50_3 Cu1_5 1_555 1_555
Cu2_3 O43_5 1_555 1_555
O42_5 Cu1_5 1_555 1_555
O43_5 C6_5 1_555 1_555
O45_3 C16_5 1_555 1_555
O46_5 Cu2_3 1_555 1_555
O47_5 Cu3_5 1_555 1_555
O48_5 Cu3_5 1_555 1_555
N2_5 Cu1_5 1_555 1_555
C6_5 O42_5 1_555 1_555
C7_5 N2_5 1_555 1_555
H10_5 C7_5 1_555 1_555
C8_5 C7_5 1_555 1_555
H11_5 C8_5 1_555 1_555
H12_4 C8_5 1_555 1_555
C9_5 C8_5 1_555 1_555
H13_5 C9_5 1_555 1_555
H14_5 C9_5 1_555 1_555
C10_5 N2_5 1_555 1_555
H15_5 C10_5 1_555 1_555
H16_5 C10_5 1_555 1_555
N3_5 Cu3_5 1_555 1_555
H17_5 N3_5 1_555 1_555
C11_5 O46_5 1_555 1_555
C12_5 N3_5 1_555 1_555
H18_5 C12_5 1_555 1_555
C13_5 C12_5 1_555 1_555
H20_5 C13_5 1_555 1_555
C14_5 C13_5 1_555 1_555
H21_5 C14_5 1_555 1_555
C15_5 N3_5 1_555 1_555
H23_5 C15_5 1_555 1_555
N4_5 Cu3_5 1_555 1_555
H25_5 N4_5 1_555 1_555
C16_5 O48_5 1_555 1_555
C17_5 N4_5 1_555 1_555
H26_5 C17_5 1_555 1_555
C18_5 C17_5 1_555 1_555
H27_5 C18_5 1_555 1_555
H28_5 C18_5 1_555 1_555
C19_5 C18_5 1_555 1_555
H29_5 C19_5 1_555 1_555
H30_5 C19_5 1_555 1_555
C20_5 N4_5 1_555 1_555
H31_5 C20_5 1_555 1_555
H32_5 C20_5 1_555 1_555
O49_5 Cu3_5 1_555 1_555
O51_3 Cu2_3 1_555 1_555
O45_3 Cu4_3 1_555 1_555
O47_5 C11_5 1_555 1_555
C6_5 C7_5 1_555 1_555
C9_5 C10_5 1_555 1_555
C11_5 C12_5 1_555 1_555
C14_5 C15_5 1_555 1_555
C16_5 C17_5 1_555 1_555
C19_5 C20_5 1_555 1_555
O49_5 H33_5 1_555 1_555
O49_5 H34_5 1_555 1_555
B1_5 O1_6 1_555 1_555
W1_5 O1_6 1_555 1_555
W2_5 O1_6 1_555 1_555
W3_5 O4_5 1_555 1_555
W4_5 O3_5 1_555 1_555
W5_5 O3_5 1_555 1_555
W6_5 O3_5 1_555 1_555
W13_3 O2_5 1_555 1_555
W8_5 O2_5 1_555 1_555
W9_5 O1_6 1_555 1_555
W10_5 O2_5 1_555 1_555
W11_5 O4_5 1_555 1_555
W12_5 O4_5 1_555 1_555
O2_5 B1_5 1_555 1_555
O3_5 B1_5 1_555 1_555
O4_5 B1_5 1_555 1_555
O5_5 W1_5 1_555 1_555
O6_5 W13_3 1_555 1_555
O7_5 W13_3 1_555 1_555
O8_5 W6_5 1_555 1_555
O9_5 W5_5 1_555 1_555
O10_5 W4_5 1_555 1_555
O11_5 W3_5 1_555 1_555
O12_5 W2_5 1_555 1_555
O13_5 W13_3 1_555 1_555
O14_5 W2_5 1_555 1_555
O15_5 W3_5 1_555 1_555
O16_5 W1_5 1_555 1_555
O17_5 W9_5 1_555 1_555
O18_5 W9_5 1_555 1_555
O19_5 W10_5 1_555 1_555
O20_5 W4_5 1_555 1_555
O21_5 W4_5 1_555 1_555
O22_5 W8_5 1_555 1_555
O23_5 W1_5 1_555 1_555
O24_5 W2_5 1_555 1_555
O25_5 W3_5 1_555 1_555
O26_5 W1_5 1_555 1_555
O27_5 W11_5 1_555 1_555
O29_5 W5_5 1_555 1_555
O30_5 W6_5 1_555 1_555
O31_5 W10_5 1_555 1_555
O32_5 W4_5 1_555 1_555
O33_5 W4_5 1_555 1_555
O34_5 W3_5 1_555 1_555
O35_5 W9_5 1_555 1_555
O36_5 W1_5 1_555 1_555
O37_5 W8_5 1_555 1_555
O38_5 W12_5 1_555 1_555
O39_5 W2_5 1_555 1_555
O40_5 W11_5 1_555 1_555
O41_5 C1_5 1_555 1_555
O44_3 C1_5 1_555 1_555
C1_5 C2_5 1_555 1_555
C2_5 N1_5 1_555 1_555
C3_5 C2_5 1_555 1_555
H3_5 C3_5 1_555 1_555
H4_5 C3_5 1_555 1_555
C4_5 N1_5 1_555 1_555
H5_5 C4_5 1_555 1_555
H6_5 C4_5 1_555 1_555
C5_5 C3_5 1_555 1_555
H7_5 C5_5 1_555 1_555
H8_5 C5_5 1_555 1_555
W2_5 O5_5 1_555 1_555
W3_5 O24_5 1_555 1_555
W5_5 O14_5 1_555 1_555
W5_5 O15_5 1_555 1_555
W5_5 O33_5 1_555 1_555
W6_5 O9_5 1_555 1_555
W6_5 O21_5 1_555 1_555
W6_5 O23_5 1_555 1_555
W13_3 O20_5 1_555 1_555
W8_5 O7_5 1_555 1_555
W8_5 O8_5 1_555 1_555
W8_5 O26_5 1_555 1_555
W9_5 O12_5 1_555 1_555
W9_5 O16_5 1_555 1_555
W10_5 O13_5 1_555 1_555
W10_5 O17_5 1_555 1_555
W10_5 O22_5 1_555 1_555
W11_5 O6_5 1_555 1_555
W11_5 O10_5 1_555 1_555
W11_5 O11_5 1_555 1_555
W12_5 O18_5 1_555 1_555
W12_5 O19_5 1_555 1_555
W12_5 O25_5 1_555 1_555
W12_5 O27_5 1_555 1_555
C4_5 C5_5 1_555 1_555
B1_6 O1_7 1_555 1_555
W1_6 O1_7 1_555 1_555
W2_6 O1_7 1_555 1_555
W3_6 O4_6 1_555 1_555
W4_6 O3_6 1_555 1_555
W5_6 O3_6 1_555 1_555
W6_6 O3_6 1_555 1_555
W13_4 O2_6 1_555 1_555
W8_6 O2_6 1_555 1_555
W9_6 O1_7 1_555 1_555
W10_6 O2_6 1_555 1_555
W11_6 O4_6 1_555 1_555
W12_6 O4_6 1_555 1_555
O2_6 B1_6 1_555 1_555
O3_6 B1_6 1_555 1_555
O4_6 B1_6 1_555 1_555
O5_6 W1_6 1_555 1_555
O6_6 W13_4 1_555 1_555
O7_6 W13_4 1_555 1_555
O8_6 W6_6 1_555 1_555
O9_6 W5_6 1_555 1_555
O10_6 W4_6 1_555 1_555
O11_6 W3_6 1_555 1_555
O12_6 W2_6 1_555 1_555
O13_6 W13_4 1_555 1_555
O14_6 W2_6 1_555 1_555
O15_6 W3_6 1_555 1_555
O16_6 W1_6 1_555 1_555
O17_6 W9_6 1_555 1_555
O18_6 W9_6 1_555 1_555
O19_6 W10_6 1_555 1_555
O20_6 W4_6 1_555 1_555
O21_6 W4_6 1_555 1_555
O22_6 W8_6 1_555 1_555
O23_6 W1_6 1_555 1_555
O24_6 W2_6 1_555 1_555
O25_6 W3_6 1_555 1_555
O26_6 W1_6 1_555 1_555
O27_6 W11_6 1_555 1_555
O29_6 W5_6 1_555 1_555
O30_6 W6_6 1_555 1_555
O31_6 W10_6 1_555 1_555
O32_6 W4_6 1_555 1_555
O33_6 W4_6 1_555 1_555
O34_6 W3_6 1_555 1_555
O35_6 W9_6 1_555 1_555
O36_6 W1_6 1_555 1_555
O37_6 W8_6 1_555 1_555
O38_6 W12_6 1_555 1_555
O39_6 W2_6 1_555 1_555
O40_6 W11_6 1_555 1_555
O41_6 C1_6 1_555 1_555
O44_4 C1_6 1_555 1_555
C1_6 C2_6 1_555 1_555
C2_6 N1_6 1_555 1_555
C3_6 C2_6 1_555 1_555
H3_6 C3_6 1_555 1_555
H4_6 C3_6 1_555 1_555
C4_6 N1_6 1_555 1_555
H5_6 C4_6 1_555 1_555
H6_6 C4_6 1_555 1_555
C5_6 C3_6 1_555 1_555
H7_6 C5_6 1_555 1_555
H8_6 C5_6 1_555 1_555
W2_6 O5_6 1_555 1_555
W3_6 O24_6 1_555 1_555
W5_6 O14_6 1_555 1_555
W5_6 O15_6 1_555 1_555
W5_6 O33_6 1_555 1_555
W6_6 O9_6 1_555 1_555
W6_6 O21_6 1_555 1_555
W6_6 O23_6 1_555 1_555
W13_4 O20_6 1_555 1_555
W8_6 O7_6 1_555 1_555
W8_6 O8_6 1_555 1_555
W8_6 O26_6 1_555 1_555
W9_6 O12_6 1_555 1_555
W9_6 O16_6 1_555 1_555
W10_6 O13_6 1_555 1_555
W10_6 O17_6 1_555 1_555
W10_6 O22_6 1_555 1_555
W11_6 O6_6 1_555 1_555
W11_6 O10_6 1_555 1_555
W11_6 O11_6 1_555 1_555
W12_6 O18_6 1_555 1_555
W12_6 O19_6 1_555 1_555
W12_6 O25_6 1_555 1_555
W12_6 O27_6 1_555 1_555
C4_6 C5_6 1_555 1_555
O50_4 Cu1_6 1_555 1_555
Cu2_4 O43_6 1_555 1_555
O42_6 Cu1_6 1_555 1_555
O43_6 C6_6 1_555 1_555
O45_4 C16_6 1_555 1_555
O46_6 Cu2_4 1_555 1_555
O47_6 Cu3_6 1_555 1_555
O48_6 Cu3_6 1_555 1_555
N2_6 Cu1_6 1_555 1_555
C6_6 O42_6 1_555 1_555
C7_6 N2_6 1_555 1_555
H10_6 C7_6 1_555 1_555
C8_6 C7_6 1_555 1_555
H11_6 C8_6 1_555 1_555
C9_6 C8_6 1_555 1_555
H13_6 C9_6 1_555 1_555
H14_6 C9_6 1_555 1_555
C10_6 N2_6 1_555 1_555
H15_6 C10_6 1_555 1_555
H16_6 C10_6 1_555 1_555
N3_6 Cu3_6 1_555 1_555
H17_6 N3_6 1_555 1_555
C11_6 O46_6 1_555 1_555
C12_6 N3_6 1_555 1_555
H18_6 C12_6 1_555 1_555
C13_6 C12_6 1_555 1_555
H20_6 C13_6 1_555 1_555
C14_6 C13_6 1_555 1_555
H21_6 C14_6 1_555 1_555
C15_6 N3_6 1_555 1_555
H23_6 C15_6 1_555 1_555
N4_6 Cu3_6 1_555 1_555
H25_6 N4_6 1_555 1_555
C16_6 O48_6 1_555 1_555
C17_6 N4_6 1_555 1_555
H26_6 C17_6 1_555 1_555
C18_6 C17_6 1_555 1_555
H27_6 C18_6 1_555 1_555
H28_6 C18_6 1_555 1_555
C19_6 C18_6 1_555 1_555
H29_6 C19_6 1_555 1_555
H30_6 C19_6 1_555 1_555
C20_6 N4_6 1_555 1_555
H31_6 C20_6 1_555 1_555
H32_6 C20_6 1_555 1_555
O49_6 Cu3_6 1_555 1_555
O51_4 Cu2_4 1_555 1_555
O45_4 Cu4_4 1_555 1_555
O47_6 C11_6 1_555 1_555
C6_6 C7_6 1_555 1_555
C9_6 C10_6 1_555 1_555
C11_6 C12_6 1_555 1_555
C14_6 C15_6 1_555 1_555
C16_6 C17_6 1_555 1_555
C19_6 C20_6 1_555 1_555
O49_6 H33_6 1_555 1_555
O49_6 H34_6 1_555 1_555
W1_7 O1_8 1_555 1_555
W2_7 O1_8 1_555 1_555
W4_7 O3_7 1_555 1_555
W5_7 O3_7 1_555 1_555
W6_7 O3_7 1_555 1_555
O5_7 W1_7 1_555 1_555
O8_7 W6_7 1_555 1_555
O9_7 W5_7 1_555 1_555
O10_7 W4_7 1_555 1_555
O11_7 W3_7 1_555 1_555
O14_7 W2_7 1_555 1_555
O15_7 W3_7 1_555 1_555
O20_7 W4_7 1_555 1_555
O21_7 W4_7 1_555 1_555
O23_7 W1_7 1_555 1_555
O24_7 W2_7 1_555 1_555
O29_7 W5_7 1_555 1_555
O30_7 W6_7 1_555 1_555
O32_7 W4_7 1_555 1_555
O33_7 W4_7 1_555 1_555
O34_7 W3_7 1_555 1_555
O36_7 W1_7 1_555 1_555
O39_7 W2_7 1_555 1_555
Cu3_7 O39_7 1_555 1_555
O46_7 Cu4_3 1_555 1_555
O47_7 Cu3_7 1_555 1_555
O48_7 Cu3_7 1_555 1_555
N3_7 Cu3_7 1_555 1_555
H17_7 N3_7 1_555 1_555
C11_7 O46_7 1_555 1_555
C12_7 N3_7 1_555 1_555
H18_7 C12_7 1_555 1_555
C13_7 C12_7 1_555 1_555
H19_7 C13_7 1_555 1_555
H20_7 C13_7 1_555 1_555
C14_7 C13_7 1_555 1_555
H21_7 C14_7 1_555 1_555
H22_7 C14_7 1_555 1_555
C15_7 N3_7 1_555 1_555
H23_7 C15_7 1_555 1_555
H24_7 C15_7 1_555 1_555
N4_7 Cu3_7 1_555 1_555
H25_7 N4_7 1_555 1_555
C20_7 N4_7 1_555 1_555
H31_7 C20_7 1_555 1_555
H32_7 C20_7 1_555 1_555
O49_7 Cu3_7 1_555 1_555
W2_7 O5_7 1_555 1_555
W3_7 O24_7 1_555 1_555
W5_7 O14_7 1_555 1_555
W5_7 O15_7 1_555 1_555
W5_7 O33_7 1_555 1_555
W6_7 O9_7 1_555 1_555
W6_7 O21_7 1_555 1_555
W6_7 O23_7 1_555 1_555
O47_7 C11_7 1_555 1_555
C11_7 C12_7 1_555 1_555
C14_7 C15_7 1_555 1_555
O49_7 H33_7 1_555 1_555
O49_7 H34_7 1_555 1_555
B1_7 O1_9 1_555 1_555
W13 O2_7 1_555 1_555
W8_7 O2_7 1_555 1_555
W9_7 O1_9 1_555 1_555
W10_7 O2_7 1_555 1_555
W11_7 O4_7 1_555 1_555
W12_7 O4_7 1_555 1_555
O2_7 B1_7 1_555 1_555
O4_7 B1_7 1_555 1_555
O6_7 W13 1_555 1_555
O7_7 W13 1_555 1_555
O13_7 W13 1_555 1_555
O17_7 W9_7 1_555 1_555
O18_7 W9_7 1_555 1_555
O19_7 W10_7 1_555 1_555
O22_7 W8_7 1_555 1_555
O27_7 W11_7 1_555 1_555
O31_7 W10_7 1_555 1_555
O35_7 W9_7 1_555 1_555
O37_7 W8_7 1_555 1_555
O38_7 W12_7 1_555 1_555
O40_7 W11_7 1_555 1_555
O52_4 C16_7 1_555 1_555
H26_7 C17_7 1_555 1_555
C18_7 C17_7 1_555 1_555
H27_7 C18_7 1_555 1_555
H28_7 C18_7 1_555 1_555
C19_7 C18_7 1_555 1_555
H29_7 C19_7 1_555 1_555
H30_7 C19_7 1_555 1_555
W8_7 O7_7 1_555 1_555
W8_7 O26_7 1_555 1_555
W9_7 O12_7 1_555 1_555
W9_7 O16_7 1_555 1_555
W10_7 O13_7 1_555 1_555
W10_7 O17_7 1_555 1_555
W10_7 O22_7 1_555 1_555
W11_7 O6_7 1_555 1_555
W12_7 O18_7 1_555 1_555
W12_7 O19_7 1_555 1_555
W12_7 O25_7 1_555 1_555
W12_7 O27_7 1_555 1_555
C16_7 C17_7 1_555 1_555
O50 Cu1_7 1_555 1_555
Cu1_7 O41_7 1_555 1_555
O41_7 C1_7 1_555 1_555
O42_7 Cu1_7 1_555 1_555
O43_7 C6_7 1_555 1_555
N1_7 Cu1_7 1_555 1_555
H1_7 N1_7 1_555 1_555
C1_7 C2_7 1_555 1_555
C2_7 N1_7 1_555 1_555
C4_7 N1_7 1_555 1_555
H5_7 C4_7 1_555 1_555
H6_7 C4_7 1_555 1_555
H7_7 C5_7 1_555 1_555
H8_7 C5_7 1_555 1_555
N2_7 Cu1_7 1_555 1_555
H9_7 N2_7 1_555 1_555
C6_7 O42_7 1_555 1_555
C7_7 N2_7 1_555 1_555
H10_7 C7_7 1_555 1_555
C8_7 C7_7 1_555 1_555
H11_7 C8_7 1_555 1_555
H12_5 C8_7 1_555 1_555
C9_7 C8_7 1_555 1_555
H13_7 C9_7 1_555 1_555
H14_7 C9_7 1_555 1_555
C10_7 N2_7 1_555 1_555
H15_7 C10_7 1_555 1_555
H16_7 C10_7 1_555 1_555
C4_7 C5_7 1_555 1_555
C6_7 C7_7 1_555 1_555
C9_7 C10_7 1_555 1_555
H3_7 C3_7 1_555 1_555
H4_7 C3_7 1_555 1_555
O50_2 Cu1_8 1_555 1_555
Cu1_8 O41_8 1_555 1_555
O41_8 C1_8 1_555 1_555
O42_8 Cu1_8 1_555 1_555
O43_8 C6_8 1_555 1_555
O51_3 C1_8 1_555 1_555
N1_8 Cu1_8 1_555 1_555
H1_8 N1_8 1_555 1_555
C1_8 C2_8 1_555 1_555
C2_8 N1_8 1_555 1_555
H2_8 C2_8 1_555 1_555
C3_8 C2_8 1_555 1_555
H3_8 C3_8 1_555 1_555
H4_8 C3_8 1_555 1_555
C4_8 N1_8 1_555 1_555
H5_8 C4_8 1_555 1_555
H6_8 C4_8 1_555 1_555
C5_8 C3_8 1_555 1_555
H7_8 C5_8 1_555 1_555
H8_8 C5_8 1_555 1_555
N2_8 Cu1_8 1_555 1_555
H9_8 N2_8 1_555 1_555
C6_8 O42_8 1_555 1_555
C7_8 N2_8 1_555 1_555
H10_8 C7_8 1_555 1_555
C8_8 C7_8 1_555 1_555
H11_8 C8_8 1_555 1_555
H12_6 C8_8 1_555 1_555
C9_8 C8_8 1_555 1_555
H13_8 C9_8 1_555 1_555
H14_8 C9_8 1_555 1_555
C10_8 N2_8 1_555 1_555
H15_8 C10_8 1_555 1_555
H16_8 C10_8 1_555 1_555
C4_8 C5_8 1_555 1_555
C6_8 C7_8 1_555 1_555
C9_8 C10_8 1_555 1_555
B1_8 O1_10 1_555 1_555
W1_8 O1_10 1_555 1_555
W2_8 O1_10 1_555 1_555
W3_8 O4_8 1_555 1_555
W4_8 O3_8 1_555 1_555
W5_8 O3_8 1_555 1_555
W6_8 O3_8 1_555 1_555
W13_2 O2_8 1_555 1_555
W8_8 O2_8 1_555 1_555
W9_8 O1_10 1_555 1_555
W10_8 O2_8 1_555 1_555
W11_8 O4_8 1_555 1_555
W12_8 O4_8 1_555 1_555
O2_8 B1_8 1_555 1_555
O3_8 B1_8 1_555 1_555
O4_8 B1_8 1_555 1_555
O5_8 W1_8 1_555 1_555
O6_8 W13_2 1_555 1_555
O7_8 W13_2 1_555 1_555
O8_8 W6_8 1_555 1_555
O9_8 W5_8 1_555 1_555
O10_8 W4_8 1_555 1_555
O11_8 W3_8 1_555 1_555
O12_8 W2_8 1_555 1_555
O13_8 W13_2 1_555 1_555
O14_8 W2_8 1_555 1_555
O15_8 W3_8 1_555 1_555
O16_8 W1_8 1_555 1_555
O17_8 W9_8 1_555 1_555
O18_8 W9_8 1_555 1_555
O19_8 W10_8 1_555 1_555
O20_8 W4_8 1_555 1_555
O21_8 W4_8 1_555 1_555
O22_8 W8_8 1_555 1_555
O23_8 W1_8 1_555 1_555
O24_8 W2_8 1_555 1_555
O25_8 W3_8 1_555 1_555
O26_8 W1_8 1_555 1_555
O27_8 W11_8 1_555 1_555
O29_8 W5_8 1_555 1_555
O30_8 W6_8 1_555 1_555
O31_8 W10_8 1_555 1_555
O32_8 W4_8 1_555 1_555
O33_8 W4_8 1_555 1_555
O34_8 W3_8 1_555 1_555
O35_8 W9_8 1_555 1_555
O36_8 W1_8 1_555 1_555
O37_8 W8_8 1_555 1_555
O38_8 W12_8 1_555 1_555
O39_8 W2_8 1_555 1_555
O40_8 W11_8 1_555 1_555
Cu3_8 O39_8 1_555 1_555
O52_3 C16_8 1_555 1_555
O46_8 Cu4_4 1_555 1_555
O47_8 Cu3_8 1_555 1_555
O48_8 Cu3_8 1_555 1_555
N3_8 Cu3_8 1_555 1_555
H17_8 N3_8 1_555 1_555
C11_8 O46_8 1_555 1_555
C12_8 N3_8 1_555 1_555
H18_8 C12_8 1_555 1_555
C13_8 C12_8 1_555 1_555
H19_8 C13_8 1_555 1_555
H20_8 C13_8 1_555 1_555
C14_8 C13_8 1_555 1_555
H21_8 C14_8 1_555 1_555
H22_8 C14_8 1_555 1_555
C15_8 N3_8 1_555 1_555
H23_8 C15_8 1_555 1_555
H24_8 C15_8 1_555 1_555
N4_8 Cu3_8 1_555 1_555
H25_8 N4_8 1_555 1_555
C16_8 O48_8 1_555 1_555
C17_8 N4_8 1_555 1_555
H26_8 C17_8 1_555 1_555
C18_8 C17_8 1_555 1_555
H27_8 C18_8 1_555 1_555
H28_8 C18_8 1_555 1_555
C19_8 C18_8 1_555 1_555
H29_8 C19_8 1_555 1_555
H30_8 C19_8 1_555 1_555
C20_8 N4_8 1_555 1_555
H31_8 C20_8 1_555 1_555
H32_8 C20_8 1_555 1_555
O49_8 Cu3_8 1_555 1_555
W2_8 O5_8 1_555 1_555
W3_8 O24_8 1_555 1_555
W5_8 O14_8 1_555 1_555
W5_8 O15_8 1_555 1_555
W5_8 O33_8 1_555 1_555
W6_8 O9_8 1_555 1_555
W6_8 O21_8 1_555 1_555
W6_8 O23_8 1_555 1_555
W13_2 O20_8 1_555 1_555
W8_8 O7_8 1_555 1_555
W8_8 O8_8 1_555 1_555
W8_8 O26_8 1_555 1_555
W9_8 O12_8 1_555 1_555
W9_8 O16_8 1_555 1_555
W10_8 O13_8 1_555 1_555
W10_8 O17_8 1_555 1_555
W10_8 O22_8 1_555 1_555
W11_8 O6_8 1_555 1_555
W11_8 O10_8 1_555 1_555
W11_8 O11_8 1_555 1_555
W12_8 O18_8 1_555 1_555
W12_8 O19_8 1_555 1_555
W12_8 O25_8 1_555 1_555
W12_8 O27_8 1_555 1_555
O47_8 C11_8 1_555 1_555
C11_8 C12_8 1_555 1_555
C14_8 C15_8 1_555 1_555
C16_8 C17_8 1_555 1_555
C19_8 C20_8 1_555 1_555
O49_8 H33_8 1_555 1_555
O49_8 H34_8 1_555 1_555

#END
