
###############################################################################
#
# This file contains modified crystal structure data generated from the
# MOF subset of the Cambridge Structural Database (CSD) v543 
# hosted by the Cambridge Crystallographic Data Centre (CCDC).
#
# This work is licensed under the Creative Commons
# Attribution-NonCommercial-ShareAlike 4.0 International License.
# To view a copy of this license, visit
# http://creativecommons.org/licenses/by-nc-sa/4.0/
# or send a letter to
# Creative Commons, PO Box 1866, Mountain View, CA 94042, USA.
#
# CIF created using the CSD Python API on 29 September 2022
# The structure has been converted into the P1 space group
# The structure has a 3D framework
# The original CSD entry EDAGAT is in the monoclinic crystal system
# The framework has been calculated to contain at least 10.0% void space
# The void calculation uses a probe of radius 1.32A, grid spacing 0.4
#
###############################################################################

data_EDAGAT
_chemical_formula_moiety         '(C24 H24 Co21 O46)n'
_symmetry_cell_setting           triclinic
_symmetry_space_group_name_H-M   'P 1'
_symmetry_Int_Tables_number      1
_space_group_name_Hall           'P 1'
loop_
_symmetry_equiv_pos_site_id
_symmetry_equiv_pos_as_xyz
1 x,y,z
_cell_length_a                   11.255(2)
_cell_length_b                   9.826(2)
_cell_length_c                   14.547(2)
_cell_angle_alpha                90
_cell_angle_beta                 91.346(14)
_cell_angle_gamma                90
_cell_volume                     1608.33
loop_
_atom_site_label
_atom_site_type_symbol
_atom_site_fract_x
_atom_site_fract_y
_atom_site_fract_z
Co3 Co 0.5000 -0.0000 0.0000
Co4 Co 0.0000 -0.0000 0.0000
O8 O 0.4781(3) 0.2084(3) 0.0043(2)
O11 O 0.6285(2) 0.0026(3) 0.21896(19)
C6 C 0.5158(4) 0.0085(5) 0.2118(3)
H6 H 0.4745 0.0269 0.2650
Co11 Co 0.74023(5) 0.10881(6) 0.31063(4)
O18 O 0.0219(3) 0.1076(4) 0.1228(2)
O29 O 0.6848(3) 0.0298(3) 0.02415(19)
Co1 Co 0.24401(5) 0.08038(6) 0.86731(4)
Co3_2 Co 0.5000 -0.0000 1.0000
Co4_2 Co 0.0000 -0.0000 1.0000
O1 O 0.1891(3) 0.2009(3) 0.75490(19)
O2 O 0.1837(3) 0.0615(3) 0.6330(2)
O7 O 0.3469(3) 0.2583(3) 0.89138(19)
C1 C 0.1690(4) 0.1729(5) 0.6711(3)
H1 H 0.1401 0.2433 0.6342
C4 C 0.4228(4) 0.2895(5) 0.9538(3)
H4 H 0.4384 0.3816 0.9625
Co10 Co 0.24023(5) 0.39119(6) 0.81063(4)
O21 O 0.1023(3) 0.1558(3) 0.93965(19)
O33 O 0.5436(3) 0.0081(4) 0.8600(2)
Co3_3 Co 0.5000 1.0000 0.0000
Co4_3 Co 0.0000 1.0000 0.0000
O10 O 0.1493(3) 0.8854(3) 0.0345(2)
O12 O 0.4564(3) 0.9919(4) 0.1400(2)
C5 C 0.2582(4) 0.8893(5) 0.0270(3)
H5 H 0.3027 0.8275 0.0618
Co7 Co 0.75599(5) 0.91962(6) 0.13269(4)
Co2 Co 0.25977(5) 0.89119(6) 0.68937(4)
Co3_4 Co 0.5000 1.0000 1.0000
Co4_4 Co 0.0000 1.0000 1.0000
O3 O 0.1497(2) 0.9173(3) 0.80502(19)
O5 O 0.3884(3) 0.8796(3) 0.5925(2)
O6 O 0.3977(3) 0.6558(3) 0.56035(19)
O9 O 0.3152(3) 0.9702(3) 0.97585(19)
C2 C 0.0460(4) 0.8701(5) 0.8147(3)
H2 H 0.0183 0.8116 0.7687
C3 C 0.4299(4) 0.7803(5) 0.5522(3)
H3 H 0.4908 0.7977 0.5117
Co6 Co 0.25599(5) 0.58038(6) 0.63269(4)
Co15 Co 0.5000 0.5000 0.5000
O14 O 0.3109(3) 0.7009(3) 0.74510(19)
O24 O 0.1531(3) 0.7583(3) 0.60862(19)
O27 O 0.5219(3) 0.7916(3) 0.9957(2)
O31 O 0.3715(2) 0.9974(3) 0.78104(19)
C12 C 0.4842(4) 0.9915(5) 0.7882(3)
H12 H 0.5255 0.9731 0.7350
Co4_5 Co 1.0000 -0.0000 0.0000
Co8 Co 0.74401(5) 0.41962(6) 0.36731(4)
O15 O 0.6891(3) 0.2991(3) 0.25490(19)
O17 O 0.8503(2) 0.0827(3) 0.19498(19)
O19 O 0.6116(3) 0.1204(3) 0.4075(2)
O20 O 0.6023(3) 0.3442(3) 0.43965(19)
O25 O 0.8469(3) 0.2417(3) 0.39138(19)
C8 C 0.9540(4) 0.1299(5) 0.1853(3)
H8 H 0.9817 0.1884 0.2313
C9 C 0.5701(4) 0.2197(5) 0.4478(3)
H9 H 0.5092 0.2023 0.4883
Co4_6 Co 1.0000 -0.0000 1.0000
O30 O 0.8507(3) 0.1146(3) 0.9655(2)
C11 C 0.7418(4) 0.1107(5) 0.9730(3)
H11 H 0.6973 0.1725 0.9382
Co4_7 Co 1.0000 1.0000 0.0000
Co12 Co 0.75977(5) 0.60881(6) 0.18937(4)
O13 O 0.8109(3) 0.7991(3) 0.24510(19)
O16 O 0.8163(3) 0.9385(3) 0.3670(2)
O22 O 0.8977(3) 0.8442(3) 0.06035(19)
O23 O 0.6531(3) 0.7417(3) 0.10862(19)
C7 C 0.8310(4) 0.8271(5) 0.3289(3)
H7 H 0.8599 0.7567 0.3658
C10 C 0.5772(4) 0.7105(5) 0.0462(3)
H10 H 0.5616 0.6184 0.0375
Co4_8 Co 1.0000 1.0000 1.0000
O4 O 0.9781(3) 0.8924(4) 0.8772(2)
Co13 Co 0.0000 0.5000 0.5000
O2_2 O 0.3163(3) 0.5615(3) 0.8670(2)
O3_2 O 0.3503(2) 0.4173(3) 0.69498(19)
O4_2 O 0.5219(3) 0.3924(4) 0.6228(2)
O5_2 O 0.1116(3) 0.3796(3) 0.9075(2)
O8_2 O 0.0219(3) 0.7084(3) 0.4957(2)
O9_2 O 0.1848(3) 0.4702(3) 0.52415(19)
O10_2 O 0.3507(3) 0.3854(3) 0.4655(2)
O12_2 O 0.0436(3) 0.4919(4) 0.3600(2)
C1_2 C 0.3310(4) 0.6729(5) 0.8289(3)
H1_2 H 0.3599 0.7433 0.8658
C2_2 C 0.4540(4) 0.3701(5) 0.6853(3)
H2_2 H 0.4817 0.3116 0.7313
C3_2 C 0.0701(4) 0.2803(5) 0.9478(3)
H3_2 H 0.0092 0.2977 0.9883
C4_2 C 0.0772(4) 0.7895(5) 0.5462(3)
H4_2 H 0.0616 0.8816 0.5375
C5_2 C 0.2418(4) 0.3893(5) 0.4730(3)
H5_2 H 0.1973 0.3275 0.4382
H6_2 H 0.0255 0.5269 0.2350
Co13_2 Co 1.0000 0.5000 0.5000
O16_2 O 0.6837(3) 0.4385(3) 0.1330(2)
O17_2 O 0.6497(2) 0.5827(3) 0.30502(19)
O18_2 O 0.4781(3) 0.6076(4) 0.3772(2)
O19_2 O 0.8884(3) 0.6204(3) 0.0925(2)
O26 O 0.9781(3) 0.2916(3) 0.5043(2)
O28 O 0.8152(3) 0.5298(3) 0.47585(19)
O30_2 O 0.6493(3) 0.6146(3) 0.5345(2)
O31_2 O 0.1285(2) 0.4974(3) 0.71896(19)
O32 O 0.8715(2) 0.5026(3) 0.28104(19)
C7_2 C 0.6690(4) 0.3271(5) 0.1711(3)
H7_2 H 0.6401 0.2567 0.1342
C8_2 C 0.5460(4) 0.6299(5) 0.3147(3)
H8_2 H 0.5183 0.6884 0.2687
C9_2 C 0.9299(4) 0.7197(5) 0.0522(3)
H9_2 H 0.9908 0.7023 0.0117
C10_2 C 0.9228(4) 0.2105(5) 0.4538(3)
H10_2 H 0.9384 0.1184 0.4625
C11_2 C 0.7582(4) 0.6107(5) 0.5270(3)
H11_2 H 0.8027 0.6725 0.5618
C12_2 C 0.0158(4) 0.4915(5) 0.7118(3)
C6_2 C 0.9842(4) 0.5085(5) 0.2882(3)
O33_2 O 0.9564(3) 0.5081(4) 0.6400(2)
H12_2 H 0.9745 0.4731 0.7650
loop_
_geom_bond_atom_site_label_1
_geom_bond_atom_site_label_2
_geom_bond_site_symmetry_1
_geom_bond_site_symmetry_2
Co3 O8 1_555 1_555
O11 C6 1_555 1_555
H6 C6 1_555 1_555
Co11 O11 1_555 1_555
O18 Co4 1_555 1_555
O29 Co3 1_555 1_555
Co1 O1 1_555 1_555
O1 C1 1_555 1_555
O2 C1 1_555 1_555
O7 Co1 1_555 1_555
C1 H1 1_555 1_555
C4 O7 1_555 1_555
H4 C4 1_555 1_555
Co10 O1 1_555 1_555
O21 Co1 1_555 1_555
O33 Co3_2 1_555 1_555
Co4_2 O21 1_555 1_555
O7 Co10 1_555 1_555
O10 Co4_3 1_555 1_555
O12 Co3_3 1_555 1_555
H5 C5 1_555 1_555
O10 C5 1_555 1_555
O5 Co2 1_555 1_555
O6 C3 1_555 1_555
C2 O3 1_555 1_555
H2 C2 1_555 1_555
C3 O5 1_555 1_555
H3 C3 1_555 1_555
Co6 O6 1_555 1_555
Co15 O6 1_555 1_555
O14 Co2 1_555 1_555
O24 Co2 1_555 1_555
O27 Co3_4 1_555 1_555
C12 O31 1_555 1_555
H12 C12 1_555 1_555
Co2 O3 1_555 1_555
Co2 O31 1_555 1_555
Co3_4 O9 1_555 1_555
Co6 O14 1_555 1_555
Co6 O24 1_555 1_555
Co8 O15 1_555 1_555
Co11 O15 1_555 1_555
Co15 O20 1_555 1_555
O19 Co11 1_555 1_555
O20 Co8 1_555 1_555
O25 Co8 1_555 1_555
C8 O17 1_555 1_555
H8 C8 1_555 1_555
C9 O19 1_555 1_555
H9 C9 1_555 1_555
Co11 O17 1_555 1_555
Co11 O25 1_555 1_555
O20 C9 1_555 1_555
O30 Co4_6 1_555 1_555
H11 C11 1_555 1_555
O30 C11 1_555 1_555
Co7 O13 1_555 1_555
Co12 O13 1_555 1_555
O13 C7 1_555 1_555
O22 Co4_7 1_555 1_555
O23 Co7 1_555 1_555
C7 O16 1_555 1_555
H7 C7 1_555 1_555
C10 O23 1_555 1_555
H10 C10 1_555 1_555
Co7 O22 1_555 1_555
Co12 O23 1_555 1_555
Co4_8 O4 1_555 1_555
Co10 O2_2 1_555 1_555
Co13 O8_2 1_555 1_555
Co15 O4_2 1_555 1_555
O14 C1_2 1_555 1_555
O2_2 C1_2 1_555 1_555
O3_2 Co6 1_555 1_555
O4_2 C2_2 1_555 1_555
O5_2 Co10 1_555 1_555
O21 C3_2 1_555 1_555
O8_2 C4_2 1_555 1_555
O9_2 Co6 1_555 1_555
O10_2 Co15 1_555 1_555
O12_2 Co13 1_555 1_555
C1_2 H1_2 1_555 1_555
C2_2 O3_2 1_555 1_555
H2_2 C2_2 1_555 1_555
C3_2 O5_2 1_555 1_555
H3_2 C3_2 1_555 1_555
C4_2 O24 1_555 1_555
H4_2 C4_2 1_555 1_555
C5_2 O9_2 1_555 1_555
H5_2 C5_2 1_555 1_555
Co13_2 O26 1_555 1_555
O15 C7_2 1_555 1_555
O16_2 Co12 1_555 1_555
O17_2 Co8 1_555 1_555
O18_2 Co15 1_555 1_555
O19_2 Co12 1_555 1_555
O26 C10_2 1_555 1_555
O28 Co8 1_555 1_555
O30_2 Co15 1_555 1_555
O31_2 Co6 1_555 1_555
O32 Co8 1_555 1_555
C7_2 O16_2 1_555 1_555
H7_2 C7_2 1_555 1_555
C8_2 O17_2 1_555 1_555
H8_2 C8_2 1_555 1_555
C9_2 O19_2 1_555 1_555
H9_2 C9_2 1_555 1_555
C10_2 O25 1_555 1_555
H10_2 C10_2 1_555 1_555
C11_2 O28 1_555 1_555
H11_2 C11_2 1_555 1_555
C12_2 O31_2 1_555 1_555
Co10 O3_2 1_555 1_555
Co10 O31_2 1_555 1_555
Co13 O9_2 1_555 1_555
O10_2 C5_2 1_555 1_555
Co12 O17_2 1_555 1_555
Co12 O32 1_555 1_555
Co13_2 O28 1_555 1_555
O18_2 C8_2 1_555 1_555
O22 C9_2 1_555 1_555
O30_2 C11_2 1_555 1_555
O32 C6_2 1_555 1_555
O33_2 Co13_2 1_555 1_555

#END
