
###############################################################################
#
# This file contains modified crystal structure data generated from the
# MOF subset of the Cambridge Structural Database (CSD) v543 
# hosted by the Cambridge Crystallographic Data Centre (CCDC).
#
# This work is licensed under the Creative Commons
# Attribution-NonCommercial-ShareAlike 4.0 International License.
# To view a copy of this license, visit
# http://creativecommons.org/licenses/by-nc-sa/4.0/
# or send a letter to
# Creative Commons, PO Box 1866, Mountain View, CA 94042, USA.
#
# CIF created using the CSD Python API on 29 September 2022
# The structure has been converted into the P1 space group
# The structure has a 3D framework
# The original CSD entry EDAGEX is in the monoclinic crystal system
# The framework has been calculated to contain at least 10.0% void space
# The void calculation uses a probe of radius 1.32A, grid spacing 0.4
#
###############################################################################

data_EDAGEX
_chemical_formula_moiety         '(C24 H24 Co16 O47)n'
_symmetry_cell_setting           triclinic
_symmetry_space_group_name_H-M   'P 1'
_symmetry_Int_Tables_number      1
_space_group_name_Hall           'P 1'
loop_
_symmetry_equiv_pos_site_id
_symmetry_equiv_pos_as_xyz
1 x,y,z
_cell_length_a                   11.323(3)
_cell_length_b                   9.935(3)
_cell_length_c                   14.708(4)
_cell_angle_alpha                90
_cell_angle_beta                 91.171(13)
_cell_angle_gamma                90
_cell_volume                     1654.22
loop_
_atom_site_label
_atom_site_type_symbol
_atom_site_fract_x
_atom_site_fract_y
_atom_site_fract_z
Co3 Co 0.0000 0.0000 0.5000
O33 O 0.1850(3) 0.0262(4) 0.5223(3)
Co3_2 Co 0.0000 1.0000 0.5000
O6 O 0.0404(4) 0.9894(5) 0.3633(3)
H3 H 0.0218 0.9430 0.2428
Co13 Co 0.0000 0.5000 0.0000
O21 O 0.0148(4) 0.7946(4) 0.5076(3)
Co13_2 Co -0.0000 0.5000 1.0000
Co1 Co 0.74435(6) 0.07396(7) 0.36637(5)
Co3_3 Co 1.0000 0.0000 0.5000
Co4 Co 0.5000 0.0000 0.5000
O1 O 0.6914(4) 0.0485(4) 0.1344(3)
O2 O 0.6943(3) 0.1906(4) 0.2519(3)
O3 O 0.8457(3) 0.2502(4) 0.3877(3)
O4 O 0.9852(4) 0.2054(4) 0.4924(3)
C1 C 0.6762(5) 0.1596(6) 0.1690(4)
H1 H 0.6487 0.2277 0.1307
C2 C 0.9265(5) 0.2824(6) 0.4430(4)
H2 H 0.9442 0.3736 0.4474
Co7 Co 0.24435(6) 0.42604(7) 0.86637(5)
Co8 Co 0.24017(6) 0.12025(7) 0.80586(5)
Co9 Co 0.74017(6) 0.37975(7) 0.30586(5)
O16 O 0.1943(3) 0.3094(4) 0.7519(3)
O19 O 0.3457(3) 0.2498(4) 0.8877(3)
O22 O 0.1294(3) 0.0162(4) 0.7151(3)
O24 O 0.9596(4) 0.0106(5) 0.6367(3)
O25 O 0.3500(3) 0.0884(4) 0.6931(3)
O26 O 0.5157(4) 0.1161(5) 0.6168(3)
O27 O 0.1082(4) 0.1333(4) 0.8977(3)
O28 O 0.1008(3) 0.3506(4) 0.9347(3)
O29 O 0.6008(3) 0.1494(4) 0.4347(3)
O31 O 0.3495(3) 0.1045(5) 0.4605(3)
C9 C 0.0187(5) 0.0297(7) 0.7060(4)
C10 C 0.4494(5) 0.1405(7) 0.6792(4)
H10 H 0.4752 0.2046 0.7212
C11 C 0.0668(5) 0.2302(6) 0.9391(4)
H11 H 0.0042 0.2123 0.9773
C12 C 0.2423(5) 0.0976(6) 0.4670(4)
H12 H 0.1977 0.1505 0.4269
Co2 Co 0.75983(6) 0.87975(7) 0.19414(5)
Co3_4 Co 1.0000 1.0000 0.5000
Co4_2 Co 0.5000 1.0000 0.5000
O5 O 0.8706(3) 0.9838(4) 0.2849(3)
O7 O 0.6500(3) 0.9116(4) 0.3069(3)
O8 O 0.4843(4) 0.8839(5) 0.3832(3)
O9 O 0.8918(4) 0.8667(4) 0.1023(3)
O10 O 0.8992(3) 0.6494(4) 0.0653(3)
O11 O 0.6505(3) 0.8955(5) 0.5395(3)
O12 O 0.8150(3) 0.9738(4) 0.4777(3)
C3 C 0.9813(5) 0.9703(7) 0.2940(4)
C4 C 0.5506(5) 0.8595(7) 0.3208(4)
H4 H 0.5248 0.7954 0.2788
C5 C 0.9332(5) 0.7698(6) 0.0609(4)
H5 H 0.9958 0.7877 0.0227
C6 C 0.7577(5) 0.9024(6) 0.5330(4)
H6 H 0.8023 0.8495 0.5731
Co5 Co 0.25565(6) 0.92604(7) 0.63363(5)
Co6 Co 0.75565(6) 0.57396(7) 0.13363(5)
Co10 Co 0.25983(6) 0.62025(7) 0.69414(5)
Co13_3 Co 1.0000 0.5000 0.0000
O13 O 0.3086(4) 0.9515(4) 0.8656(3)
O14 O 0.3057(3) 0.8094(4) 0.7481(3)
O15 O 0.8057(3) 0.6906(4) 0.2481(3)
O17 O 0.1543(3) 0.7498(4) 0.6123(3)
O18 O 0.6543(3) 0.7502(4) 0.1123(3)
O30 O 0.3992(3) 0.8506(4) 0.5653(3)
C7 C 0.3238(5) 0.8404(6) 0.8310(4)
H7 H 0.3513 0.7723 0.8693
C8 C 0.0735(5) 0.7176(6) 0.5570(4)
H8 H 0.0558 0.6264 0.5526
Co13_4 Co 1.0000 0.5000 1.0000
H9 H 0.9782 0.0570 0.7572
O8_2 O 0.0157(4) 0.3839(5) 0.1168(3)
Co11 Co 0.5000 0.5000 0.0000
O31_2 O 0.1505(3) 0.6045(5) 0.0395(3)
C12_2 C 0.2577(5) 0.5976(6) 0.0330(4)
H12_2 H 0.3023 0.6505 0.0731
Co11_2 Co 0.5000 0.5000 1.0000
O13_2 O 0.1914(4) 0.4515(4) 0.6344(3)
O20 O 0.4852(4) 0.2946(4) 0.9924(3)
O22_2 O 0.3706(3) 0.5162(4) 0.7849(3)
O23 O 0.5404(4) 0.5106(5) 0.8633(3)
O25_2 O 0.1500(3) 0.5884(4) 0.8069(3)
O27_2 O 0.3918(4) 0.6333(4) 0.6023(3)
O32 O 0.3150(3) 0.5262(4) 0.9777(3)
C7_2 C 0.1762(5) 0.3404(6) 0.6690(4)
H7_2 H 0.1487 0.2723 0.6307
C8_2 C 0.4265(5) 0.2176(6) 0.9430(4)
H8_2 H 0.4442 0.1264 0.9474
C9_2 C 0.4813(5) 0.5297(7) 0.7940(4)
H9_2 H 0.5218 0.5570 0.7428
C10_2 C 0.0506(5) 0.6405(7) 0.8208(4)
H10_2 H 0.0248 0.7046 0.7788
C11_2 C 0.4332(5) 0.7302(6) 0.5609(4)
H11_2 H 0.4958 0.7123 0.5227
O1_2 O 0.8086(4) 0.5485(4) 0.3656(3)
O4_2 O 0.5148(4) 0.7054(4) 0.0076(3)
O5_2 O 0.6294(3) 0.4838(4) 0.2151(3)
O6_2 O 0.4596(4) 0.4894(5) 0.1367(3)
O7_2 O 0.8500(3) 0.4116(4) 0.1931(3)
O9_2 O 0.6082(4) 0.3667(4) 0.3977(3)
O12_2 O 0.6850(3) 0.4738(4) 0.0223(3)
C1_2 C 0.8238(5) 0.6596(6) 0.3310(4)
H1_2 H 0.8513 0.7277 0.3693
C2_2 C 0.5735(5) 0.7824(6) 0.0570(4)
H2_2 H 0.5558 0.8736 0.0526
C3_2 C 0.5187(5) 0.4703(7) 0.2060(4)
H3_2 H 0.4782 0.4430 0.2572
C4_2 C 0.9494(5) 0.3595(7) 0.1792(4)
H4_2 H 0.9752 0.2954 0.2212
C5_2 C 0.5668(5) 0.2698(6) 0.4391(4)
H5_2 H 0.5042 0.2877 0.4773
O11_2 O 0.8495(3) 0.3955(5) 0.9605(3)
C6_2 C 0.7423(5) 0.4024(6) 0.9670(4)
H6_2 H 0.6977 0.3495 0.9269
O26_2 O 0.9843(4) 0.6161(5) 0.8832(3)
loop_
_geom_bond_atom_site_label_1
_geom_bond_atom_site_label_2
_geom_bond_site_symmetry_1
_geom_bond_site_symmetry_2
O33 Co3 1_555 1_555
O6 Co3_2 1_555 1_555
O21 Co3_2 1_555 1_555
Co1 O2 1_555 1_555
Co3_3 O4 1_555 1_555
O1 C1 1_555 1_555
O2 C1 1_555 1_555
O3 Co1 1_555 1_555
O4 C2 1_555 1_555
C1 H1 1_555 1_555
C2 O3 1_555 1_555
H2 C2 1_555 1_555
Co7 O16 1_555 1_555
Co9 O2 1_555 1_555
Co13_2 O28 1_555 1_555
O16 Co8 1_555 1_555
O19 Co7 1_555 1_555
O24 Co3_3 1_555 1_555
O26 Co4 1_555 1_555
O27 Co8 1_555 1_555
O28 Co7 1_555 1_555
O29 Co1 1_555 1_555
O31 Co4 1_555 1_555
C9 O22 1_555 1_555
C10 O25 1_555 1_555
H10 C10 1_555 1_555
C11 O27 1_555 1_555
H11 C11 1_555 1_555
C12 O31 1_555 1_555
H12 C12 1_555 1_555
Co4 O29 1_555 1_555
O3 Co9 1_555 1_555
Co8 O19 1_555 1_555
Co8 O22 1_555 1_555
Co8 O25 1_555 1_555
O26 C10 1_555 1_555
O28 C11 1_555 1_555
O33 C12 1_555 1_555
Co4_2 O8 1_555 1_555
O8 C4 1_555 1_555
O9 Co2 1_555 1_555
O10 C5 1_555 1_555
O11 Co4_2 1_555 1_555
C3 O5 1_555 1_555
C4 O7 1_555 1_555
H4 C4 1_555 1_555
C5 O9 1_555 1_555
H5 C5 1_555 1_555
C6 O11 1_555 1_555
H6 C6 1_555 1_555
Co5 O14 1_555 1_555
Co6 O10 1_555 1_555
Co10 O14 1_555 1_555
Co13_3 O10 1_555 1_555
O13 C7 1_555 1_555
O14 C7 1_555 1_555
O15 Co2 1_555 1_555
O17 Co5 1_555 1_555
O18 Co2 1_555 1_555
O21 C8 1_555 1_555
O30 Co4_2 1_555 1_555
C7 H7 1_555 1_555
C8 O17 1_555 1_555
H8 C8 1_555 1_555
Co2 O5 1_555 1_555
Co2 O7 1_555 1_555
Co3_4 O12 1_555 1_555
O12 C6 1_555 1_555
Co5 O30 1_555 1_555
Co6 O15 1_555 1_555
Co6 O18 1_555 1_555
Co10 O17 1_555 1_555
Co13 O8_2 1_555 1_555
O31_2 Co13 1_555 1_555
C12_2 O31_2 1_555 1_555
H12_2 C12_2 1_555 1_555
Co10 O13_2 1_555 1_555
Co11_2 O20 1_555 1_555
O13_2 C7_2 1_555 1_555
O16 C7_2 1_555 1_555
O20 C8_2 1_555 1_555
O22_2 Co7 1_555 1_555
O23 Co11_2 1_555 1_555
O25_2 Co7 1_555 1_555
O27_2 Co10 1_555 1_555
O32 Co7 1_555 1_555
C7_2 H7_2 1_555 1_555
C8_2 O19 1_555 1_555
H8_2 C8_2 1_555 1_555
C9_2 O22_2 1_555 1_555
H9_2 C9_2 1_555 1_555
C10_2 O25_2 1_555 1_555
H10_2 C10_2 1_555 1_555
C11_2 O27_2 1_555 1_555
H11_2 C11_2 1_555 1_555
Co10 O22_2 1_555 1_555
Co10 O25_2 1_555 1_555
Co11_2 O32 1_555 1_555
O23 C9_2 1_555 1_555
O30 C11_2 1_555 1_555
Co9 O1_2 1_555 1_555
Co11 O4_2 1_555 1_555
O1_2 C1_2 1_555 1_555
O15 C1_2 1_555 1_555
O4_2 C2_2 1_555 1_555
O5_2 Co6 1_555 1_555
O6_2 Co11 1_555 1_555
O7_2 Co6 1_555 1_555
O9_2 Co9 1_555 1_555
O29 C5_2 1_555 1_555
O12_2 Co6 1_555 1_555
C1_2 H1_2 1_555 1_555
C2_2 O18 1_555 1_555
H2_2 C2_2 1_555 1_555
C3_2 O5_2 1_555 1_555
H3_2 C3_2 1_555 1_555
C4_2 O7_2 1_555 1_555
H4_2 C4_2 1_555 1_555
C5_2 O9_2 1_555 1_555
H5_2 C5_2 1_555 1_555
Co9 O5_2 1_555 1_555
Co9 O7_2 1_555 1_555
Co11 O12_2 1_555 1_555
O6_2 C3_2 1_555 1_555
O11_2 Co13_4 1_555 1_555
C6_2 O11_2 1_555 1_555
H6_2 C6_2 1_555 1_555
O26_2 Co13_4 1_555 1_555

#END
