
###############################################################################
#
# This file contains modified crystal structure data generated from the
# MOF subset of the Cambridge Structural Database (CSD) v543 
# hosted by the Cambridge Crystallographic Data Centre (CCDC).
#
# This work is licensed under the Creative Commons
# Attribution-NonCommercial-ShareAlike 4.0 International License.
# To view a copy of this license, visit
# http://creativecommons.org/licenses/by-nc-sa/4.0/
# or send a letter to
# Creative Commons, PO Box 1866, Mountain View, CA 94042, USA.
#
# CIF created using the CSD Python API on 29 September 2022
# The structure has been converted into the P1 space group
# The structure has a 3D framework
# The original CSD entry EDATOT is in the monoclinic crystal system
# The framework has been calculated to contain at least 10.0% void space
# The void calculation uses a probe of radius 1.32A, grid spacing 0.4
# The framework is charged, counterions have been retained in the structure
#
###############################################################################

data_EDATOT
_chemical_formula_moiety         '(C48 Cr8 Mn8 O96 8-)n'
_symmetry_cell_setting           triclinic
_symmetry_space_group_name_H-M   'P 1'
_symmetry_Int_Tables_number      1
_space_group_name_Hall           'P 1'
loop_
_symmetry_equiv_pos_site_id
_symmetry_equiv_pos_as_xyz
1 x,y,z
_cell_length_a                   21.0100(3)
_cell_length_b                   15.9880(4)
_cell_length_c                   21.9630(6)
_cell_angle_alpha                90.00
_cell_angle_beta                 90.3390(7)
_cell_angle_gamma                90.00
_cell_volume                     7377.42
loop_
_atom_site_label
_atom_site_type_symbol
_atom_site_fract_x
_atom_site_fract_y
_atom_site_fract_z
Cr1 Cr 0.12666(14) 0.5067(2) 0.24789(13)
Mn2 Mn 0.25869(18) 0.7512(2) 0.12613(17)
O1 O 0.1932(6) 0.5181(11) 0.1876(7)
O2 O 0.1351(6) 0.6323(7) 0.2462(6)
O3 O 0.1855(7) 0.7283(12) 0.1921(7)
O4 O 0.2549(7) 0.6141(8) 0.1421(7)
O5 O 0.1302(6) 0.3843(11) 0.2492(7)
O6 O 0.1913(5) 0.4830(10) 0.3156(5)
O7 O 0.1678(6) 0.2755(11) 0.3034(5)
O8 O 0.2380(7) 0.3874(10) 0.3664(7)
O9 O 0.0558(7) 0.5153(8) 0.3049(6)
O10 O 0.0582(8) 0.5141(8) 0.1937(6)
O22 O 0.3209(6) 0.7408(7) 0.0456(7)
O24 O 0.1919(6) 0.7464(8) 0.0500(6)
C1 C 0.1735(10) 0.6549(17) 0.2116(11)
C2 C 0.2126(10) 0.5927(18) 0.1759(10)
C3 C 0.1602(11) 0.3520(13) 0.2860(11)
C4 C 0.1984(12) 0.4138(14) 0.3266(12)
C5 C 0.0010(12) 0.5140(13) 0.2791(11)
Mn3 Mn 0.24131(18) 0.2512(2) 0.37387(17)
O25 O 0.3322(6) 0.7755(11) 0.1966(5)
O26 O 0.2620(7) 0.8874(10) 0.1336(7)
O21 O 0.3143(6) 0.7447(7) 0.9439(7)
O23 O 0.1951(7) 0.7405(8) 0.9442(8)
C11 C 0.2877(11) 0.7421(10) 0.9951(10)
C12 C 0.2201(11) 0.7413(11) 0.9979(10)
Cr4 Cr 0.25273(14) 0.73808(19) 0.87722(14)
Cr2 Cr 0.75273(14) 0.76192(19) 0.37722(14)
Mn1 Mn 0.86883(16) 0.5154(2) 0.24468(16)
O11 O 0.9474(8) 0.5133(9) 0.3081(7)
O12 O 0.9491(7) 0.5270(9) 0.1816(7)
O13 O 0.7518(7) 0.6365(9) 0.3709(7)
O14 O 0.8161(6) 0.7521(9) 0.3108(6)
O15 O 0.7991(8) 0.5345(11) 0.3173(7)
O16 O 0.8574(7) 0.6555(9) 0.2472(7)
O17 O 0.7464(7) 0.3826(8) 0.1269(7)
O18 O 0.8163(6) 0.2794(11) 0.1838(6)
O19 O 0.7974(6) 0.4964(11) 0.1695(7)
O20 O 0.8617(8) 0.3764(12) 0.2393(8)
C6 C 0.9972(13) 0.5203(15) 0.2125(13)
C7 C 0.7864(11) 0.6011(19) 0.3320(12)
C8 C 0.8265(10) 0.6800(18) 0.2915(10)
C9 C 0.7903(13) 0.4173(19) 0.1623(11)
C10 C 0.8250(15) 0.3558(17) 0.1990(13)
Cr3 Cr 0.74727(14) 0.26192(19) 0.12278(14)
O27 O 0.7536(7) 0.8826(8) 0.3731(7)
O28 O 0.6837(6) 0.7794(11) 0.3162(6)
O29 O 0.8143(6) 0.7553(7) 0.4439(7)
O30 O 0.6951(7) 0.7595(8) 0.4442(8)
Cr1_2 Cr 0.37334(14) 0.0067(2) 0.25211(13)
Mn1_2 Mn 0.63117(16) 0.0154(2) 0.25532(16)
O1_2 O 0.3068(6) 0.0181(11) 0.3124(7)
O2_2 O 0.3649(6) 0.1323(7) 0.2538(6)
O3_2 O 0.3145(7) 0.2283(12) 0.3079(7)
O4_2 O 0.2451(7) 0.1141(8) 0.3579(7)
O9_2 O 0.4442(7) 0.0153(8) 0.1951(6)
O10_2 O 0.4418(8) 0.0141(8) 0.3063(6)
O11_2 O 0.5526(8) 0.0133(9) 0.1919(7)
O12_2 O 0.5509(7) 0.0270(9) 0.3184(7)
O13_2 O 0.7482(7) 0.1365(9) 0.1291(7)
O14_2 O 0.6839(6) 0.2521(9) 0.1892(6)
O15_2 O 0.7009(8) 0.0345(11) 0.1827(7)
O16_2 O 0.6426(7) 0.1555(9) 0.2528(7)
O21_2 O 0.1857(6) 0.2447(7) 0.5561(7)
O22_2 O 0.1791(6) 0.2408(7) 0.4544(7)
O23_2 O 0.3049(7) 0.2405(8) 0.5558(8)
O24_2 O 0.3081(6) 0.2464(8) 0.4500(6)
C1_2 C 0.3265(10) 0.1549(17) 0.2884(11)
C2_2 C 0.2874(10) 0.0927(18) 0.3241(10)
C5_2 C 0.4990(12) 0.0140(13) 0.2209(11)
C6_2 C 0.5028(13) 0.0203(15) 0.2875(13)
C7_2 C 0.7136(11) 0.1011(19) 0.1680(12)
C8_2 C 0.6735(10) 0.1800(18) 0.2085(10)
C11_2 C 0.2123(11) 0.2421(10) 0.5049(10)
C12_2 C 0.2799(11) 0.2413(11) 0.5021(10)
Cr4_2 Cr 0.24727(14) 0.23808(19) 0.62278(14)
O29_2 O 0.6857(6) 0.2553(7) 0.0561(7)
O30_2 O 0.8049(7) 0.2595(8) 0.0558(8)
O5_2 O 0.3698(6) 0.8843(11) 0.2508(7)
O6_2 O 0.3087(5) 0.9830(10) 0.1844(5)
O19_2 O 0.7026(6) 0.9964(11) 0.3305(7)
O20_2 O 0.6383(8) 0.8764(12) 0.2607(8)
C3_2 C 0.3398(11) 0.8520(13) 0.2140(11)
C4_2 C 0.3016(12) 0.9138(14) 0.1734(12)
C9_2 C 0.7097(13) 0.9173(19) 0.3377(11)
C10_2 C 0.6750(15) 0.8558(17) 0.3010(13)
Mn1_3 Mn 0.13117(16) 0.4846(2) 0.75532(16)
O11_3 O 0.0526(8) 0.4867(9) 0.6919(7)
O12_3 O 0.0509(7) 0.4730(9) 0.8184(7)
O13_3 O 0.2482(7) 0.3635(9) 0.6291(7)
O14_3 O 0.1839(6) 0.2479(9) 0.6892(6)
O15_3 O 0.2009(8) 0.4655(11) 0.6827(7)
O16_3 O 0.1426(7) 0.3445(9) 0.7528(7)
O17_2 O 0.2536(7) 0.6174(8) 0.8731(7)
O18_2 O 0.1837(6) 0.7206(11) 0.8162(6)
O19_3 O 0.2026(6) 0.5036(11) 0.8305(7)
O20_3 O 0.1383(8) 0.6236(12) 0.7607(8)
C6_3 C 0.0028(13) 0.4797(15) 0.7875(13)
C7_3 C 0.2136(11) 0.3989(19) 0.6680(12)
C8_3 C 0.1735(10) 0.3200(18) 0.7085(10)
C9_3 C 0.2097(13) 0.5827(19) 0.8377(11)
C10_3 C 0.1750(15) 0.6442(17) 0.8010(13)
O27_2 O 0.2464(7) 0.1174(8) 0.6269(7)
O28_2 O 0.3163(6) 0.2206(11) 0.6838(6)
C11_3 C 0.7123(11) 0.2579(10) 0.0049(10)
C12_3 C 0.7799(11) 0.2587(11) 0.0021(10)
Cr1_3 Cr 0.87334(14) 0.4933(2) 0.75211(13)
Mn2_2 Mn 0.74131(18) 0.2488(2) 0.87387(17)
O1_3 O 0.8068(6) 0.4819(11) 0.8124(7)
O2_3 O 0.8649(6) 0.3677(7) 0.7538(6)
O3_3 O 0.8145(7) 0.2717(12) 0.8079(7)
O4_3 O 0.7451(7) 0.3859(8) 0.8579(7)
O5_3 O 0.8698(6) 0.6157(11) 0.7508(7)
O6_3 O 0.8087(5) 0.5170(10) 0.6844(5)
O7_2 O 0.8322(6) 0.7245(11) 0.6966(5)
O8_2 O 0.7620(7) 0.6126(10) 0.6336(7)
O9_3 O 0.9442(7) 0.4847(8) 0.6951(6)
O10_3 O 0.9418(8) 0.4859(8) 0.8063(6)
O22_3 O 0.6791(6) 0.2592(7) 0.9544(7)
O24_3 O 0.8081(6) 0.2536(8) 0.9500(6)
C1_3 C 0.8265(10) 0.3451(17) 0.7884(11)
C2_3 C 0.7874(10) 0.4073(18) 0.8241(10)
C3_3 C 0.8398(11) 0.6480(13) 0.7140(11)
C4_3 C 0.8016(12) 0.5862(14) 0.6734(12)
C5_3 C 0.9990(12) 0.4860(13) 0.7209(11)
Mn3_2 Mn 0.75869(18) 0.7488(2) 0.62613(17)
O25_2 O 0.6678(6) 0.2245(11) 0.8034(5)
O26_2 O 0.7380(7) 0.1126(10) 0.8664(7)
O5_4 O 0.6302(6) 0.1157(11) 0.7492(7)
O6_4 O 0.6913(5) 0.0170(10) 0.8156(5)
O19_4 O 0.2974(6) 0.0036(11) 0.6695(7)
O20_4 O 0.3617(8) 0.1236(12) 0.7393(8)
C3_4 C 0.6602(11) 0.1480(13) 0.7860(11)
C4_4 C 0.6984(12) 0.0862(14) 0.8266(12)
C9_4 C 0.2903(13) 0.0827(19) 0.6623(11)
C10_4 C 0.3250(15) 0.1442(17) 0.6990(13)
Cr1_4 Cr 0.62666(14) 0.9933(2) 0.74789(13)
Mn1_4 Mn 0.36883(16) 0.9846(2) 0.74468(16)
O1_4 O 0.6932(6) 0.9819(11) 0.6876(7)
O2_4 O 0.6351(6) 0.8677(7) 0.7462(6)
O3_4 O 0.6855(7) 0.7717(12) 0.6921(7)
O4_4 O 0.7549(7) 0.8859(8) 0.6421(7)
O9_4 O 0.5558(7) 0.9847(8) 0.8049(6)
O10_4 O 0.5582(8) 0.9859(8) 0.6937(6)
O11_4 O 0.4474(8) 0.9867(9) 0.8081(7)
O12_4 O 0.4491(7) 0.9730(9) 0.6816(7)
O13_4 O 0.2518(7) 0.8635(9) 0.8709(7)
O14_4 O 0.3161(6) 0.7479(9) 0.8108(6)
O15_4 O 0.2991(8) 0.9655(11) 0.8173(7)
O16_4 O 0.3574(7) 0.8445(9) 0.7472(7)
O22_4 O 0.8209(6) 0.7592(7) 0.5456(7)
O24_4 O 0.6919(6) 0.7536(8) 0.5500(6)
C1_4 C 0.6735(10) 0.8451(17) 0.7116(11)
C2_4 C 0.7126(10) 0.9073(18) 0.6759(10)
C5_4 C 0.5010(12) 0.9860(13) 0.7791(11)
C6_4 C 0.4972(13) 0.9797(15) 0.7125(13)
C7_4 C 0.2864(11) 0.8989(19) 0.8320(12)
C8_4 C 0.3265(10) 0.8200(18) 0.7915(10)
C11_4 C 0.7877(11) 0.7579(10) 0.4951(10)
C12_4 C 0.7201(11) 0.7587(11) 0.4979(10)
loop_
_geom_bond_atom_site_label_1
_geom_bond_atom_site_label_2
_geom_bond_site_symmetry_1
_geom_bond_site_symmetry_2
Cr1 O1 1_555 1_555
Mn2 O3 1_555 1_555
O1 C2 1_555 1_555
O2 Cr1 1_555 1_555
O3 C1 1_555 1_555
O4 Mn2 1_555 1_555
O5 Cr1 1_555 1_555
O6 Cr1 1_555 1_555
O7 C3 1_555 1_555
O8 C4 1_555 1_555
O9 Cr1 1_555 1_555
O10 Cr1 1_555 1_555
O22 Mn2 1_555 1_555
O24 Mn2 1_555 1_555
C1 O2 1_555 1_555
C2 O4 1_555 1_555
C3 O5 1_555 1_555
C4 O6 1_555 1_555
C5 O9 1_555 1_555
Mn3 O7 1_555 1_555
O25 Mn2 1_555 1_555
O26 Mn2 1_555 1_555
O8 Mn3 1_555 1_555
C1 C2 1_555 1_555
C3 C4 1_555 1_555
O21 C11 1_555 1_555
O23 C12 1_555 1_555
Cr4 O21 1_555 1_555
O23 Cr4 1_555 1_555
C11 C12 1_555 1_555
Cr2 O13 1_555 1_555
Mn1 O11 1_555 1_555
O12 Mn1 1_555 1_555
O13 C7 1_555 1_555
O14 Cr2 1_555 1_555
O15 Mn1 1_555 1_555
O16 Mn1 1_555 1_555
O17 C9 1_555 1_555
O18 C10 1_555 1_555
O19 Mn1 1_555 1_555
O20 Mn1 1_555 1_555
C7 O15 1_555 1_555
C8 O14 1_555 1_555
C9 O19 1_555 1_555
C10 O20 1_555 1_555
Cr3 O17 1_555 1_555
O27 Cr2 1_555 1_555
O28 Cr2 1_555 1_555
O29 Cr2 1_555 1_555
O30 Cr2 1_555 1_555
O12 C6 1_555 1_555
O16 C8 1_555 1_555
O18 Cr3 1_555 1_555
C7 C8 1_555 1_555
C9 C10 1_555 1_555
Cr1_2 O1_2 1_555 1_555
Cr3 O13_2 1_555 1_555
Mn1_2 O11_2 1_555 1_555
Mn3 O3_2 1_555 1_555
O1_2 C2_2 1_555 1_555
O2_2 Cr1_2 1_555 1_555
O3_2 C1_2 1_555 1_555
O4_2 Mn3 1_555 1_555
O9_2 Cr1_2 1_555 1_555
O10_2 Cr1_2 1_555 1_555
O11_2 C5_2 1_555 1_555
O12_2 Mn1_2 1_555 1_555
O13_2 C7_2 1_555 1_555
O14_2 Cr3 1_555 1_555
O15_2 Mn1_2 1_555 1_555
O16_2 Mn1_2 1_555 1_555
O21_2 C11_2 1_555 1_555
O22_2 Mn3 1_555 1_555
O23_2 C12_2 1_555 1_555
O24_2 Mn3 1_555 1_555
C1_2 O2_2 1_555 1_555
C2_2 O4_2 1_555 1_555
C5_2 O9_2 1_555 1_555
C6_2 O10_2 1_555 1_555
C7_2 O15_2 1_555 1_555
C8_2 O14_2 1_555 1_555
C11_2 O22_2 1_555 1_555
C12_2 O24_2 1_555 1_555
Cr4_2 O21_2 1_555 1_555
O29_2 Cr3 1_555 1_555
O30_2 Cr3 1_555 1_555
O12_2 C6_2 1_555 1_555
O16_2 C8_2 1_555 1_555
O23_2 Cr4_2 1_555 1_555
C1_2 C2_2 1_555 1_555
C5_2 C6_2 1_555 1_555
C7_2 C8_2 1_555 1_555
C11_2 C12_2 1_555 1_555
O25 C3_2 1_555 1_555
O26 C4_2 1_555 1_555
O27 C9_2 1_555 1_555
O28 C10_2 1_555 1_555
C3_2 O5_2 1_555 1_555
C4_2 O6_2 1_555 1_555
C9_2 O19_2 1_555 1_555
C10_2 O20_2 1_555 1_555
C3_2 C4_2 1_555 1_555
C9_2 C10_2 1_555 1_555
Cr4_2 O13_3 1_555 1_555
Mn1_3 O11_3 1_555 1_555
O12_3 Mn1_3 1_555 1_555
O13_3 C7_3 1_555 1_555
O14_3 Cr4_2 1_555 1_555
O15_3 Mn1_3 1_555 1_555
O16_3 Mn1_3 1_555 1_555
O17_2 C9_3 1_555 1_555
O18_2 C10_3 1_555 1_555
O19_3 Mn1_3 1_555 1_555
O20_3 Mn1_3 1_555 1_555
C7_3 O15_3 1_555 1_555
C8_3 O14_3 1_555 1_555
C9_3 O19_3 1_555 1_555
C10_3 O20_3 1_555 1_555
Cr4 O17_2 1_555 1_555
O27_2 Cr4_2 1_555 1_555
O28_2 Cr4_2 1_555 1_555
O12_3 C6_3 1_555 1_555
O16_3 C8_3 1_555 1_555
O18_2 Cr4 1_555 1_555
C7_3 C8_3 1_555 1_555
C9_3 C10_3 1_555 1_555
O29_2 C11_3 1_555 1_555
O30_2 C12_3 1_555 1_555
C11_3 C12_3 1_555 1_555
Cr1_3 O1_3 1_555 1_555
Mn2_2 O3_3 1_555 1_555
O1_3 C2_3 1_555 1_555
O2_3 Cr1_3 1_555 1_555
O3_3 C1_3 1_555 1_555
O4_3 Mn2_2 1_555 1_555
O5_3 Cr1_3 1_555 1_555
O6_3 Cr1_3 1_555 1_555
O7_2 C3_3 1_555 1_555
O8_2 C4_3 1_555 1_555
O9_3 Cr1_3 1_555 1_555
O10_3 Cr1_3 1_555 1_555
O22_3 Mn2_2 1_555 1_555
O24_3 Mn2_2 1_555 1_555
C1_3 O2_3 1_555 1_555
C2_3 O4_3 1_555 1_555
C3_3 O5_3 1_555 1_555
C4_3 O6_3 1_555 1_555
C5_3 O9_3 1_555 1_555
Mn3_2 O7_2 1_555 1_555
O25_2 Mn2_2 1_555 1_555
O26_2 Mn2_2 1_555 1_555
O8_2 Mn3_2 1_555 1_555
C1_3 C2_3 1_555 1_555
C3_3 C4_3 1_555 1_555
O25_2 C3_4 1_555 1_555
O26_2 C4_4 1_555 1_555
O27_2 C9_4 1_555 1_555
O28_2 C10_4 1_555 1_555
C3_4 O5_4 1_555 1_555
C4_4 O6_4 1_555 1_555
C9_4 O19_4 1_555 1_555
C10_4 O20_4 1_555 1_555
C3_4 C4_4 1_555 1_555
C9_4 C10_4 1_555 1_555
Cr1_4 O1_4 1_555 1_555
Cr4 O13_4 1_555 1_555
Mn1_4 O11_4 1_555 1_555
Mn3_2 O3_4 1_555 1_555
O1_4 C2_4 1_555 1_555
O2_4 Cr1_4 1_555 1_555
O3_4 C1_4 1_555 1_555
O4_4 Mn3_2 1_555 1_555
O9_4 Cr1_4 1_555 1_555
O10_4 Cr1_4 1_555 1_555
O11_4 C5_4 1_555 1_555
O12_4 Mn1_4 1_555 1_555
O13_4 C7_4 1_555 1_555
O14_4 Cr4 1_555 1_555
O15_4 Mn1_4 1_555 1_555
O16_4 Mn1_4 1_555 1_555
O29 C11_4 1_555 1_555
O22_4 Mn3_2 1_555 1_555
O30 C12_4 1_555 1_555
O24_4 Mn3_2 1_555 1_555
C1_4 O2_4 1_555 1_555
C2_4 O4_4 1_555 1_555
C5_4 O9_4 1_555 1_555
C6_4 O10_4 1_555 1_555
C7_4 O15_4 1_555 1_555
C8_4 O14_4 1_555 1_555
C11_4 O22_4 1_555 1_555
C12_4 O24_4 1_555 1_555
O12_4 C6_4 1_555 1_555
O16_4 C8_4 1_555 1_555
C1_4 C2_4 1_555 1_555
C5_4 C6_4 1_555 1_555
C7_4 C8_4 1_555 1_555
C11_4 C12_4 1_555 1_555

#END
