
###############################################################################
#
# This file contains modified crystal structure data generated from the
# MOF subset of the Cambridge Structural Database (CSD) v543 
# hosted by the Cambridge Crystallographic Data Centre (CCDC).
#
# This work is licensed under the Creative Commons
# Attribution-NonCommercial-ShareAlike 4.0 International License.
# To view a copy of this license, visit
# http://creativecommons.org/licenses/by-nc-sa/4.0/
# or send a letter to
# Creative Commons, PO Box 1866, Mountain View, CA 94042, USA.
#
# CIF created using the CSD Python API on 29 September 2022
# The structure has been converted into the P1 space group
# The structure has a 3D framework
# The original CSD entry EDAVOV is in the rhombohedral crystal system
# The framework has been calculated to contain at least 10.0% void space
# The void calculation uses a probe of radius 1.32A, grid spacing 0.4
#
###############################################################################

data_EDAVOV
_chemical_formula_moiety         '(C162 H126 Cu18 N18 O50)n'
_symmetry_cell_setting           triclinic
_symmetry_space_group_name_H-M   'P 1'
_symmetry_Int_Tables_number      1
_space_group_name_Hall           'P 1'
loop_
_symmetry_equiv_pos_site_id
_symmetry_equiv_pos_as_xyz
1 x,y,z
_cell_length_a                   26.9909(14)
_cell_length_b                   26.9909(14)
_cell_length_c                   6.9875(4)
_cell_angle_alpha                90
_cell_angle_beta                 90
_cell_angle_gamma                120
_cell_volume                     4408.46
loop_
_atom_site_label
_atom_site_type_symbol
_atom_site_fract_x
_atom_site_fract_y
_atom_site_fract_z
H11 H 0.2478 0.4490 0.0243
Cu1 Cu 0.123736(11) 0.345771(12) 0.23897(4)
O1 O 0.09655(8) 0.39993(8) 0.2472(2)
O2 O 0.05387(9) 0.43736(9) 0.0812(3)
O3 O 0.15487(6) 0.29488(7) 0.2091(2)
C1 C 0.07341(10) 0.40489(10) 0.0961(3)
C8 C 0.15235(12) 0.21037(12) 0.0945(5)
H7 H 0.1686 0.2073 0.2080
C9 C 0.14007(9) 0.25493(9) 0.0730(3)
Cu2 Cu 0.209597(11) 0.320896(12) 0.42770(4)
Cu4 Cu 0.345771(12) 0.222035(16) 0.76103(4)
O4 O 0.23678(8) 0.26674(8) 0.4195(2)
O5 O 0.05016(13) 0.27946(9) 0.4145(3)
O6 O 0.27946(9) 0.22931(9) 0.5855(3)
O7 O 0.28318(13) 0.38720(9) 0.2521(3)
O8 O 0.17846(6) 0.37179(7) 0.4576(2)
N2 N 0.24053(8) 0.33549(8) 0.6833(3)
C10 C 0.25992(10) 0.26178(10) 0.5706(3)
C11 C 0.26370(11) 0.29882(11) 0.7392(3)
H8 H 0.3032 0.3222 0.7787
H9 H 0.2421 0.2749 0.8462
C12 C 0.24103(9) 0.37131(10) 0.8030(3)
H10 H 0.2555 0.3721 0.9244
C13 C 0.22086(9) 0.41077(9) 0.7649(4)
C14 C 0.23118(12) 0.45088(12) 0.9102(4)
C15 C 0.21714(14) 0.49270(14) 0.8865(5)
H12 H 0.2240 0.5189 0.9837
C16 C 0.19255(13) 0.49538(13) 0.7154(5)
H13 H 0.1837 0.5243 0.6974
C17 C 0.18098(12) 0.45630(12) 0.5722(5)
H14 H 0.1647 0.4594 0.4587
C18 C 0.19326(9) 0.41174(9) 0.5937(3)
Cu3 Cu 0.987562(12) 0.444632(16) 0.90564(4)
Cu4_2 Cu 0.777965(16) 0.123736(20) 0.76103(4)
O6_2 O 0.77069(9) 0.05016(13) 0.5855(3)
Cu1_2 Cu 0.654229(12) 0.777965(16) 0.23897(4)
O1_2 O 0.60007(8) 0.69662(11) 0.2472(2)
O2_2 O 0.56264(9) 0.61651(13) 0.0812(3)
O3_2 O 0.70512(7) 0.85999(9) 0.2091(2)
C1_2 C 0.59511(10) 0.66852(14) 0.0961(3)
C8_2 C 0.78963(12) 0.94198(17) 0.0945(5)
H7_2 H 0.7927 0.9613 0.2080
C9_2 C 0.74507(9) 0.88514(13) 0.0730(3)
Cu2_2 Cu 0.679104(12) 0.888702(16) 0.42770(4)
O4_2 O 0.73326(8) 0.97005(11) 0.4195(2)
O5_2 O 0.72054(9) 0.77069(16) 0.4145(3)
O7_2 O 0.61280(9) 0.89597(16) 0.2521(3)
O8_2 O 0.62821(7) 0.80668(9) 0.4576(2)
N2_2 N 0.66451(8) 0.90505(11) 0.6833(3)
C10_2 C 0.73822(10) 0.99815(14) 0.5706(3)
C11_2 C 0.70118(11) 0.96489(16) 0.7392(3)
H8_2 H 0.6778 0.9811 0.7787
H9_2 H 0.7251 0.9673 0.8462
C12_2 C 0.62869(10) 0.86973(13) 0.8030(3)
H10_2 H 0.6279 0.8835 0.9244
C13_2 C 0.58923(9) 0.81010(13) 0.7649(4)
C14_2 C 0.54912(12) 0.78031(17) 0.9102(4)
C15_2 C 0.50730(14) 0.72445(20) 0.8865(5)
H12_2 H 0.4811 0.7052 0.9837
C16_2 C 0.50462(13) 0.69718(18) 0.7154(5)
H13_2 H 0.4757 0.6595 0.6974
C17_2 C 0.54370(12) 0.72469(17) 0.5722(5)
H14_2 H 0.5406 0.7054 0.4587
C18_2 C 0.58826(9) 0.78153(13) 0.5937(3)
N1 N 0.66882(8) 0.76162(11) 0.9834(3)
C2 C 0.63215(11) 0.70178(16) 0.9275(3)
H1 H 0.6555 0.6856 0.8880
H2 H 0.6082 0.6994 0.8205
C3 C 0.70464(10) 0.79694(13) 0.8637(3)
H3 H 0.7054 0.7832 0.7423
C4 C 0.74410(9) 0.85657(13) 0.9018(4)
C5 C 0.78421(12) 0.88636(17) 0.7565(4)
H4 H 0.7823 0.8678 0.6424
C6 C 0.82603(14) 0.94222(20) 0.7802(5)
H5 H 0.8522 0.9615 0.6830
C7 C 0.82871(13) 0.96949(18) 0.9513(5)
Cu3_2 Cu 0.555368(16) 0.542931(20) 0.90564(4)
Cu3_3 Cu 0.457069(20) 0.012438(12) 0.90564(4)
Cu1_3 Cu 0.222035(16) 0.876264(11) 0.23897(4)
O1_3 O 0.30338(11) 0.90345(8) 0.2472(2)
O2_3 O 0.38349(13) 0.94613(9) 0.0812(3)
O3_3 O 0.14001(9) 0.84513(6) 0.2091(2)
C1_3 C 0.33148(14) 0.92659(10) 0.0961(3)
C8_3 C 0.05802(17) 0.84765(12) 0.0945(5)
H7_3 H 0.0387 0.8314 0.2080
C9_3 C 0.11486(13) 0.85993(9) 0.0730(3)
Cu2_3 Cu 0.111298(16) 0.790403(11) 0.42770(4)
O4_3 O 0.02995(11) 0.76322(8) 0.4195(2)
O5_3 O 0.22931(16) 0.94984(13) 0.4145(3)
O7_3 O 0.10403(16) 0.71682(13) 0.2521(3)
O8_3 O 0.19332(9) 0.82154(6) 0.4576(2)
N2_3 N 0.09495(11) 0.75947(8) 0.6833(3)
C10_3 C 0.00185(14) 0.74008(10) 0.5706(3)
C11_3 C 0.03511(16) 0.73630(11) 0.7392(3)
H8_3 H 0.0189 0.6968 0.7787
H9_3 H 0.0327 0.7579 0.8462
C12_3 C 0.13027(13) 0.75897(9) 0.8030(3)
H10_3 H 0.1165 0.7445 0.9244
C13_3 C 0.18990(13) 0.77914(9) 0.7649(4)
C14_3 C 0.21969(17) 0.76882(12) 0.9102(4)
C15_3 C 0.27555(20) 0.78286(14) 0.8865(5)
H12_3 H 0.2948 0.7760 0.9837
C16_3 C 0.30282(18) 0.80745(13) 0.7154(5)
H13_3 H 0.3405 0.8163 0.6974
C17_3 C 0.27531(17) 0.81902(12) 0.5722(5)
H14_3 H 0.2946 0.8353 0.4587
C18_3 C 0.21847(13) 0.80674(9) 0.5937(3)
Cu4_3 Cu 0.876264(20) 0.654229(12) 0.76103(4)
O6_3 O 0.94984(13) 0.72054(9) 0.5855(3)
Cu4_4 Cu 0.012438(12) 0.555368(16) 0.09436(4)
Cu1_4 Cu 0.790403(11) 0.679104(12) 0.57230(4)
O1_4 O 0.76322(8) 0.73326(8) 0.5805(2)
O3_4 O 0.82154(6) 0.62821(7) 0.5424(2)
N1_2 N 0.75947(8) 0.66451(8) 0.3167(3)
C1_4 C 0.74008(10) 0.73822(10) 0.4294(3)
C2_2 C 0.73630(11) 0.70118(11) 0.2608(3)
H1_2 H 0.6968 0.6778 0.2213
H2_2 H 0.7579 0.7251 0.1538
C3_2 C 0.75897(9) 0.62869(10) 0.1970(3)
H3_2 H 0.7445 0.6279 0.0756
C4_2 C 0.77914(9) 0.58923(9) 0.2351(4)
C5_2 C 0.76882(12) 0.54912(12) 0.0898(4)
C6_2 C 0.78286(14) 0.50730(14) 0.1135(5)
H5_2 H 0.7760 0.4811 0.0163
C7_2 C 0.80745(13) 0.50462(13) 0.2846(5)
H6 H 0.8163 0.4757 0.3026
C8_4 C 0.81902(12) 0.54370(12) 0.4278(5)
H7_4 H 0.8353 0.5406 0.5413
C9_4 C 0.80674(9) 0.58826(9) 0.4063(3)
O4_4 O 0.90345(8) 0.60007(8) 0.7528(2)
O5_4 O 0.71682(13) 0.61280(9) 0.7479(3)
O6_4 O 0.94613(9) 0.56264(9) 0.9188(3)
O8_4 O 0.84513(6) 0.70512(7) 0.7909(2)
C10_4 C 0.92659(10) 0.59511(10) 0.9039(3)
C17_4 C 0.84765(12) 0.78963(12) 0.9055(5)
H14_4 H 0.8314 0.7927 0.7920
C18_4 C 0.85993(9) 0.74507(9) 0.9270(3)
Cu4_5 Cu 0.444632(16) 0.457069(20) 0.09436(4)
N2_4 N 0.33118(8) 0.23838(11) 0.0166(3)
C11_4 C 0.36785(11) 0.29822(16) 0.0725(3)
H8_4 H 0.3445 0.3144 0.1120
H9_4 H 0.3918 0.3006 0.1795
C12_4 C 0.29536(10) 0.20306(13) 0.1363(3)
H10_4 H 0.2946 0.2168 0.2577
C13_4 C 0.25590(9) 0.14343(13) 0.0982(4)
C14_4 C 0.21579(12) 0.11364(17) 0.2435(4)
H11_2 H 0.2177 0.1322 0.3576
C15_4 C 0.17397(14) 0.05778(20) 0.2198(5)
H12_4 H 0.1478 0.0385 0.3170
C16_4 C 0.17129(13) 0.03051(18) 0.0487(5)
Cu1_5 Cu 0.320896(12) 0.111298(16) 0.57230(4)
O1_5 O 0.26674(8) 0.02995(11) 0.5805(2)
O3_5 O 0.37179(7) 0.19332(9) 0.5424(2)
N1_3 N 0.33549(8) 0.09495(11) 0.3167(3)
C1_5 C 0.26178(10) 0.00185(14) 0.4294(3)
C2_3 C 0.29882(11) 0.03511(16) 0.2608(3)
H1_3 H 0.3222 0.0189 0.2213
H2_3 H 0.2749 0.0327 0.1538
C3_3 C 0.37131(10) 0.13027(13) 0.1970(3)
H3_3 H 0.3721 0.1165 0.0756
C4_3 C 0.41077(9) 0.18990(13) 0.2351(4)
C5_3 C 0.45088(12) 0.21969(17) 0.0898(4)
C6_3 C 0.49270(14) 0.27555(20) 0.1135(5)
H5_3 H 0.5189 0.2948 0.0163
C7_3 C 0.49538(13) 0.30282(18) 0.2846(5)
H6_2 H 0.5243 0.3405 0.3026
C8_5 C 0.45630(12) 0.27531(17) 0.4278(5)
H7_5 H 0.4594 0.2946 0.5413
C9_5 C 0.41174(9) 0.21847(13) 0.4063(3)
O4_5 O 0.39993(8) 0.30338(11) 0.7528(2)
O5_5 O 0.38720(9) 0.10403(16) 0.7479(3)
O6_5 O 0.43736(9) 0.38349(13) 0.9188(3)
O8_5 O 0.29488(7) 0.14001(9) 0.7909(2)
C10_5 C 0.40489(10) 0.33148(14) 0.9039(3)
C17_5 C 0.21037(12) 0.05802(17) 0.9055(5)
H14_5 H 0.2073 0.0387 0.7920
C18_5 C 0.25493(9) 0.11486(13) 0.9270(3)
Cu1_6 Cu 0.888702(16) 0.209597(11) 0.57230(4)
O1_6 O 0.97005(11) 0.23678(8) 0.5805(2)
O3_6 O 0.80668(9) 0.17846(6) 0.5424(2)
N1_4 N 0.90505(11) 0.24053(8) 0.3167(3)
C1_6 C 0.99815(14) 0.25992(10) 0.4294(3)
C2_4 C 0.96489(16) 0.26370(11) 0.2608(3)
H1_4 H 0.9811 0.3032 0.2213
H2_4 H 0.9673 0.2421 0.1538
C3_4 C 0.86973(13) 0.24103(9) 0.1970(3)
H3_4 H 0.8835 0.2555 0.0756
C4_4 C 0.81010(13) 0.22086(9) 0.2351(4)
C5_4 C 0.78031(17) 0.23118(12) 0.0898(4)
C6_4 C 0.72445(20) 0.21714(14) 0.1135(5)
H5_4 H 0.7052 0.2240 0.0163
C7_4 C 0.69718(18) 0.19255(13) 0.2846(5)
H6_3 H 0.6595 0.1837 0.3026
C8_6 C 0.72469(17) 0.18098(12) 0.4278(5)
H7_6 H 0.7054 0.1647 0.5413
C9_6 C 0.78153(13) 0.19326(9) 0.4063(3)
O4_6 O 0.69662(11) 0.09655(8) 0.7528(2)
O5_6 O 0.89597(16) 0.28318(13) 0.7479(3)
O6_6 O 0.61651(13) 0.05387(9) 0.9188(3)
O8_6 O 0.85999(9) 0.15487(6) 0.7909(2)
C10_6 C 0.66852(14) 0.07341(10) 0.9039(3)
C17_6 C 0.94198(17) 0.15235(12) 0.9055(5)
H14_6 H 0.9613 0.1686 0.7920
C18_6 C 0.88514(13) 0.14007(9) 0.9270(3)
Cu4_6 Cu 0.542931(20) 0.987562(12) 0.09436(4)
O1_7 O 0.42988(8) 0.06660(8) 0.9139(2)
C1_7 C 0.40674(10) 0.07156(10) 0.7628(3)
C2_5 C 0.40296(11) 0.03452(11) 0.5942(3)
H1_5 H 0.3634 0.0112 0.5547
H2_5 H 0.4245 0.0585 0.4872
O4_7 O 0.57012(8) 0.93340(8) 0.0861(2)
C10_7 C 0.59326(10) 0.92844(10) 0.2372(3)
C11_5 C 0.59704(11) 0.96548(11) 0.4058(3)
H8_5 H 0.6366 0.9888 0.4453
H9_5 H 0.5755 0.9415 0.5128
O4_8 O 0.06660(8) 0.63671(11) 0.0861(2)
C10_8 C 0.07156(10) 0.66481(14) 0.2372(3)
C11_6 C 0.03452(11) 0.63155(16) 0.4058(3)
H8_6 H 0.0112 0.6477 0.4453
H9_6 H 0.0585 0.6339 0.5128
O1_8 O 0.93340(8) 0.36329(11) 0.9139(2)
C1_8 C 0.92844(10) 0.33519(14) 0.7628(3)
C2_6 C 0.96548(11) 0.36845(16) 0.5942(3)
H1_6 H 0.9888 0.3523 0.5547
H2_6 H 0.9415 0.3661 0.4872
O4_9 O 0.36329(11) 0.42988(8) 0.0861(2)
O8_7 O 0.52666(9) 0.48820(6) 0.1242(2)
N2_5 N 0.42829(11) 0.42613(8) 0.3499(3)
C10_9 C 0.33519(14) 0.40674(10) 0.2372(3)
C11_7 C 0.36845(16) 0.40296(11) 0.4058(3)
H8_7 H 0.3523 0.3634 0.4453
H9_7 H 0.3661 0.4245 0.5128
C12_5 C 0.46361(13) 0.42563(9) 0.4696(3)
H10_5 H 0.4499 0.4111 0.5910
C13_5 C 0.52324(13) 0.44580(9) 0.4315(4)
C14_5 C 0.55303(17) 0.43548(12) 0.5768(4)
H11_3 H 0.5345 0.4188 0.6909
C15_5 C 0.60889(20) 0.44952(14) 0.5531(5)
H12_5 H 0.6282 0.4426 0.6503
C16_5 C 0.63616(18) 0.47411(13) 0.3820(5)
H13_4 H 0.6739 0.4829 0.3640
C17_7 C 0.60865(17) 0.48568(12) 0.2388(5)
H14_7 H 0.6280 0.5019 0.1253
C18_7 C 0.55181(13) 0.47340(9) 0.2603(3)
O1_9 O 0.63671(11) 0.57012(8) 0.9139(2)
O3_7 O 0.47334(9) 0.51180(6) 0.8758(2)
N1_5 N 0.57171(11) 0.57387(8) 0.6501(3)
C1_9 C 0.66481(14) 0.59326(10) 0.7628(3)
C2_7 C 0.63155(16) 0.59704(11) 0.5942(3)
H1_7 H 0.6477 0.6366 0.5547
H2_7 H 0.6339 0.5755 0.4872
C3_5 C 0.53639(13) 0.57437(9) 0.5304(3)
H3_5 H 0.5501 0.5889 0.4090
C4_5 C 0.47676(13) 0.55420(9) 0.5685(4)
C5_5 C 0.44697(17) 0.56452(12) 0.4232(4)
H4_2 H 0.4655 0.5812 0.3091
C6_5 C 0.39111(20) 0.55048(14) 0.4469(5)
H5_5 H 0.3718 0.5574 0.3497
C7_5 C 0.36384(18) 0.52589(13) 0.6180(5)
H6_4 H 0.3261 0.5171 0.6360
C8_7 C 0.39135(17) 0.51432(12) 0.7612(5)
H7_7 H 0.3720 0.4981 0.8747
C9_7 C 0.44819(13) 0.52660(9) 0.7397(3)
N1_6 N 0.09280(8) 0.33118(8) 0.9834(3)
C2_8 C 0.06963(11) 0.36785(11) 0.9275(3)
H1_8 H 0.0301 0.3445 0.8880
H2_8 H 0.0912 0.3918 0.8205
C3_6 C 0.09230(9) 0.29536(10) 0.8637(3)
H3_6 H 0.0778 0.2946 0.7423
C4_6 C 0.11247(9) 0.25590(9) 0.9018(4)
C5_6 C 0.10215(12) 0.21579(12) 0.7565(4)
H4_3 H 0.0855 0.2177 0.6424
C6_6 C 0.11619(14) 0.17397(14) 0.7802(5)
H5_6 H 0.1093 0.1478 0.6830
C7_6 C 0.14078(13) 0.17129(13) 0.9513(5)
H6_5 H 0.1496 0.1424 0.9693
H6_6 H 0.8576 0.0072 0.9693
H11_4 H 0.5510 0.7989 0.0243
H11_5 H 0.2011 0.7522 0.0243
N1_7 N 0.23838(11) 0.90720(8) 0.9834(3)
C2_9 C 0.29822(16) 0.93037(11) 0.9275(3)
H1_9 H 0.3144 0.9699 0.8880
H2_9 H 0.3006 0.9088 0.8205
C3_7 C 0.20306(13) 0.90770(9) 0.8637(3)
H3_7 H 0.2168 0.9222 0.7423
C4_7 C 0.14343(13) 0.88753(9) 0.9018(4)
C5_7 C 0.11364(17) 0.89785(12) 0.7565(4)
H4_4 H 0.1322 0.9145 0.6424
C6_7 C 0.05778(20) 0.88381(14) 0.7802(5)
H5_7 H 0.0385 0.8907 0.6830
C7_7 C 0.03051(18) 0.85922(13) 0.9513(5)
H6_7 H 0.9928 0.8504 0.9693
N2_6 N 0.90720(8) 0.66882(8) 0.0166(3)
C11_8 C 0.93037(11) 0.63215(11) 0.0725(3)
H8_8 H 0.9699 0.6555 0.1120
H9_8 H 0.9088 0.6082 0.1795
C12_6 C 0.90770(9) 0.70464(10) 0.1363(3)
H10_6 H 0.9222 0.7054 0.2577
C13_6 C 0.88753(9) 0.74410(9) 0.0982(4)
C14_6 C 0.89785(12) 0.78421(12) 0.2435(4)
H11_6 H 0.9145 0.7823 0.3576
C15_6 C 0.88381(14) 0.82603(14) 0.2198(5)
H12_6 H 0.8907 0.8522 0.3170
C16_6 C 0.85922(13) 0.82871(13) 0.0487(5)
H13_5 H 0.8504 0.8576 0.0307
H4_5 H 0.7522 0.5510 0.9757
H4_6 H 0.4490 0.2011 0.9757
H13_6 H 0.1424 0.9928 0.0307
H13_7 H 0.0072 0.1496 0.0307
N2_7 N 0.76162(11) 0.09280(8) 0.0166(3)
C11_9 C 0.70178(16) 0.06963(11) 0.0725(3)
H8_9 H 0.6856 0.0301 0.1120
H9_9 H 0.6994 0.0912 0.1795
C12_7 C 0.79694(13) 0.09230(9) 0.1363(3)
H10_7 H 0.7832 0.0778 0.2577
C13_7 C 0.85657(13) 0.11247(9) 0.0982(4)
C14_7 C 0.88636(17) 0.10215(12) 0.2435(4)
H11_7 H 0.8678 0.0855 0.3576
C15_7 C 0.94222(20) 0.11619(14) 0.2198(5)
H12_7 H 0.9615 0.1093 0.3170
C16_7 C 0.96949(18) 0.14078(13) 0.0487(5)
H4_7 H 0.7989 0.2478 0.9757
O8_8 O 0.51180(6) 0.03845(7) 0.1242(2)
N2_8 N 0.57387(8) 0.00215(8) 0.3499(3)
C12_8 C 0.57437(9) 0.03797(10) 0.4696(3)
H10_8 H 0.5889 0.0387 0.5910
C13_8 C 0.55420(9) 0.07743(9) 0.4315(4)
C14_8 C 0.56452(12) 0.11754(12) 0.5768(4)
H11_8 H 0.5812 0.1156 0.6909
C15_8 C 0.55048(14) 0.15936(14) 0.5531(5)
H12_8 H 0.5574 0.1855 0.6503
C16_8 C 0.52589(13) 0.16204(13) 0.3820(5)
H13_8 H 0.5171 0.1909 0.3640
C17_8 C 0.51432(12) 0.12296(12) 0.2388(5)
H14_8 H 0.4981 0.1260 0.1253
C18_8 C 0.52660(9) 0.07840(9) 0.2603(3)
O3_8 O 0.48820(6) 0.96155(7) 0.8758(2)
N1_8 N 0.42613(8) 0.99785(8) 0.6501(3)
C3_8 C 0.42563(9) 0.96203(10) 0.5304(3)
H3_8 H 0.4111 0.9613 0.4090
C4_8 C 0.44580(9) 0.92257(9) 0.5685(4)
C5_8 C 0.43548(12) 0.88246(12) 0.4232(4)
H4_8 H 0.4188 0.8844 0.3091
C6_8 C 0.44952(14) 0.84064(14) 0.4469(5)
H5_8 H 0.4426 0.8145 0.3497
C7_8 C 0.47411(13) 0.83796(13) 0.6180(5)
H6_8 H 0.4829 0.8091 0.6360
C8_8 C 0.48568(12) 0.87704(12) 0.7612(5)
H7_8 H 0.5019 0.8740 0.8747
C9_8 C 0.47340(9) 0.92160(9) 0.7397(3)
O3_9 O 0.03845(7) 0.52666(9) 0.8758(2)
N1_9 N 0.00215(8) 0.42829(11) 0.6501(3)
C3_9 C 0.03797(10) 0.46361(13) 0.5304(3)
H3_9 H 0.0387 0.4499 0.4090
C4_9 C 0.07743(9) 0.52324(13) 0.5685(4)
C5_9 C 0.11754(12) 0.55303(17) 0.4232(4)
H4_9 H 0.1156 0.5345 0.3091
C6_9 C 0.15936(14) 0.60889(20) 0.4469(5)
H5_9 H 0.1855 0.6282 0.3497
C7_9 C 0.16204(13) 0.63616(18) 0.6180(5)
H6_9 H 0.1909 0.6739 0.6360
C8_9 C 0.12296(12) 0.60865(17) 0.7612(5)
H7_9 H 0.1260 0.6280 0.8747
C9_9 C 0.07840(9) 0.55181(13) 0.7397(3)
O8_9 O 0.96155(7) 0.47334(9) 0.1242(2)
N2_9 N 0.99785(8) 0.57171(11) 0.3499(3)
C12_9 C 0.96203(10) 0.53639(13) 0.4696(3)
H10_9 H 0.9613 0.5501 0.5910
C13_9 C 0.92257(9) 0.47676(13) 0.4315(4)
C14_9 C 0.88246(12) 0.44697(17) 0.5768(4)
H11_9 H 0.8844 0.4655 0.6909
C15_9 C 0.84064(14) 0.39111(20) 0.5531(5)
H12_9 H 0.8145 0.3718 0.6503
C16_9 C 0.83796(13) 0.36384(18) 0.3820(5)
H13_9 H 0.8091 0.3261 0.3640
C17_9 C 0.87704(12) 0.39135(17) 0.2388(5)
H14_9 H 0.8740 0.3720 0.1253
C18_9 C 0.92160(9) 0.44819(13) 0.2603(3)
loop_
_geom_bond_atom_site_label_1
_geom_bond_atom_site_label_2
_geom_bond_site_symmetry_1
_geom_bond_site_symmetry_2
Cu1 O1 1_555 1_555
O1 C1 1_555 1_555
O2 C1 1_555 1_555
O3 Cu1 1_555 1_555
H7 C8 1_555 1_555
C9 O3 1_555 1_555
Cu2 O3 1_555 1_555
Cu4 O6 1_555 1_555
O4 Cu2 1_555 1_555
O5 Cu1 1_555 1_555
O6 C10 1_555 1_555
O7 Cu2 1_555 1_555
O8 Cu1 1_555 1_555
N2 Cu2 1_555 1_555
C10 O4 1_555 1_555
C11 N2 1_555 1_555
H8 C11 1_555 1_555
H9 C11 1_555 1_555
C12 N2 1_555 1_555
H10 C12 1_555 1_555
C13 C12 1_555 1_555
C14 C13 1_555 1_555
C15 C14 1_555 1_555
H12 C15 1_555 1_555
C16 C15 1_555 1_555
H13 C16 1_555 1_555
C17 C16 1_555 1_555
H14 C17 1_555 1_555
C18 O8 1_555 1_555
C8 C9 1_555 1_555
Cu2 O8 1_555 1_555
C10 C11 1_555 1_555
C13 C18 1_555 1_555
C17 C18 1_555 1_555
Cu4_2 O6_2 1_555 1_555
Cu1_2 O1_2 1_555 1_555
O1_2 C1_2 1_555 1_555
O2_2 C1_2 1_555 1_555
O3_2 Cu1_2 1_555 1_555
H7_2 C8_2 1_555 1_555
C9_2 O3_2 1_555 1_555
Cu2_2 O3_2 1_555 1_555
O4_2 Cu2_2 1_555 1_555
O5_2 Cu1_2 1_555 1_555
O7_2 Cu2_2 1_555 1_555
O8_2 Cu1_2 1_555 1_555
N2_2 Cu2_2 1_555 1_555
C10_2 O4_2 1_555 1_555
C11_2 N2_2 1_555 1_555
H8_2 C11_2 1_555 1_555
H9_2 C11_2 1_555 1_555
C12_2 N2_2 1_555 1_555
H10_2 C12_2 1_555 1_555
C13_2 C12_2 1_555 1_555
C14_2 C13_2 1_555 1_555
C15_2 C14_2 1_555 1_555
H12_2 C15_2 1_555 1_555
C16_2 C15_2 1_555 1_555
H13_2 C16_2 1_555 1_555
C17_2 C16_2 1_555 1_555
H14_2 C17_2 1_555 1_555
C18_2 O8_2 1_555 1_555
C8_2 C9_2 1_555 1_555
Cu2_2 O8_2 1_555 1_555
C10_2 C11_2 1_555 1_555
C13_2 C18_2 1_555 1_555
C17_2 C18_2 1_555 1_555
C2 N1 1_555 1_555
H1 C2 1_555 1_555
H2 C2 1_555 1_555
C3 N1 1_555 1_555
H3 C3 1_555 1_555
C4 C3 1_555 1_555
C5 C4 1_555 1_555
H4 C5 1_555 1_555
C6 C5 1_555 1_555
H5 C6 1_555 1_555
C7 C6 1_555 1_555
Cu1_3 O1_3 1_555 1_555
O1_3 C1_3 1_555 1_555
O2_3 C1_3 1_555 1_555
O3_3 Cu1_3 1_555 1_555
H7_3 C8_3 1_555 1_555
C9_3 O3_3 1_555 1_555
Cu2_3 O3_3 1_555 1_555
O4_3 Cu2_3 1_555 1_555
O5_3 Cu1_3 1_555 1_555
O7_3 Cu2_3 1_555 1_555
O8_3 Cu1_3 1_555 1_555
N2_3 Cu2_3 1_555 1_555
C10_3 O4_3 1_555 1_555
C11_3 N2_3 1_555 1_555
H8_3 C11_3 1_555 1_555
H9_3 C11_3 1_555 1_555
C12_3 N2_3 1_555 1_555
H10_3 C12_3 1_555 1_555
C13_3 C12_3 1_555 1_555
C14_3 C13_3 1_555 1_555
C15_3 C14_3 1_555 1_555
H12_3 C15_3 1_555 1_555
C16_3 C15_3 1_555 1_555
H13_3 C16_3 1_555 1_555
C17_3 C16_3 1_555 1_555
H14_3 C17_3 1_555 1_555
C18_3 O8_3 1_555 1_555
C8_3 C9_3 1_555 1_555
Cu2_3 O8_3 1_555 1_555
C10_3 C11_3 1_555 1_555
C13_3 C18_3 1_555 1_555
C17_3 C18_3 1_555 1_555
Cu4_3 O6_3 1_555 1_555
Cu1_4 O1_4 1_555 1_555
O1_4 C1_4 1_555 1_555
O5_2 C1_4 1_555 1_555
O3_4 Cu1_4 1_555 1_555
N1_2 Cu1_4 1_555 1_555
C1_4 C2_2 1_555 1_555
C2_2 N1_2 1_555 1_555
H1_2 C2_2 1_555 1_555
H2_2 C2_2 1_555 1_555
C3_2 N1_2 1_555 1_555
H3_2 C3_2 1_555 1_555
C4_2 C3_2 1_555 1_555
C5_2 C4_2 1_555 1_555
C6_2 C5_2 1_555 1_555
H5_2 C6_2 1_555 1_555
C7_2 C6_2 1_555 1_555
H6 C7_2 1_555 1_555
C8_4 C7_2 1_555 1_555
H7_4 C8_4 1_555 1_555
C9_4 O3_4 1_555 1_555
Cu4_3 O3_4 1_555 1_555
O4_4 Cu4_3 1_555 1_555
O5_4 Cu1_4 1_555 1_555
O6_4 C10_4 1_555 1_555
O8_4 Cu1_4 1_555 1_555
C10_4 O4_4 1_555 1_555
H14_4 C17_4 1_555 1_555
C18_4 O8_4 1_555 1_555
C4_2 C9_4 1_555 1_555
C8_4 C9_4 1_555 1_555
Cu4_3 O8_4 1_555 1_555
C17_4 C18_4 1_555 1_555
C11_4 N2_4 1_555 1_555
H8_4 C11_4 1_555 1_555
H9_4 C11_4 1_555 1_555
C12_4 N2_4 1_555 1_555
H10_4 C12_4 1_555 1_555
C13_4 C12_4 1_555 1_555
C14_4 C13_4 1_555 1_555
H11_2 C14_4 1_555 1_555
C15_4 C14_4 1_555 1_555
H12_4 C15_4 1_555 1_555
C16_4 C15_4 1_555 1_555
Cu1_5 O1_5 1_555 1_555
O1_5 C1_5 1_555 1_555
O3_5 Cu1_5 1_555 1_555
N1_3 Cu1_5 1_555 1_555
C1_5 C2_3 1_555 1_555
C2_3 N1_3 1_555 1_555
H1_3 C2_3 1_555 1_555
H2_3 C2_3 1_555 1_555
C3_3 N1_3 1_555 1_555
H3_3 C3_3 1_555 1_555
C4_3 C3_3 1_555 1_555
C5_3 C4_3 1_555 1_555
C6_3 C5_3 1_555 1_555
H5_3 C6_3 1_555 1_555
C7_3 C6_3 1_555 1_555
H6_2 C7_3 1_555 1_555
C8_5 C7_3 1_555 1_555
H7_5 C8_5 1_555 1_555
C9_5 O3_5 1_555 1_555
Cu4 O3_5 1_555 1_555
O4_5 Cu4 1_555 1_555
O5_5 Cu1_5 1_555 1_555
O6_5 C10_5 1_555 1_555
O8_5 Cu1_5 1_555 1_555
C10_5 O4_5 1_555 1_555
H14_5 C17_5 1_555 1_555
C18_5 O8_5 1_555 1_555
C4_3 C9_5 1_555 1_555
C8_5 C9_5 1_555 1_555
Cu4 O8_5 1_555 1_555
C17_5 C18_5 1_555 1_555
Cu1_6 O1_6 1_555 1_555
O1_6 C1_6 1_555 1_555
O3_6 Cu1_6 1_555 1_555
N1_4 Cu1_6 1_555 1_555
C1_6 C2_4 1_555 1_555
C2_4 N1_4 1_555 1_555
H1_4 C2_4 1_555 1_555
H2_4 C2_4 1_555 1_555
C3_4 N1_4 1_555 1_555
H3_4 C3_4 1_555 1_555
C4_4 C3_4 1_555 1_555
C5_4 C4_4 1_555 1_555
C6_4 C5_4 1_555 1_555
H5_4 C6_4 1_555 1_555
C7_4 C6_4 1_555 1_555
H6_3 C7_4 1_555 1_555
C8_6 C7_4 1_555 1_555
H7_6 C8_6 1_555 1_555
C9_6 O3_6 1_555 1_555
Cu4_2 O3_6 1_555 1_555
O4_6 Cu4_2 1_555 1_555
O5_6 Cu1_6 1_555 1_555
O6_6 C10_6 1_555 1_555
O8_6 Cu1_6 1_555 1_555
C10_6 O4_6 1_555 1_555
H14_6 C17_6 1_555 1_555
C18_6 O8_6 1_555 1_555
C4_4 C9_6 1_555 1_555
C8_6 C9_6 1_555 1_555
Cu4_2 O8_6 1_555 1_555
C17_6 C18_6 1_555 1_555
Cu3_3 O1_7 1_555 1_555
O1_7 C1_7 1_555 1_555
O5_5 C1_7 1_555 1_555
C1_7 C2_5 1_555 1_555
H1_5 C2_5 1_555 1_555
H2_5 C2_5 1_555 1_555
O4_7 Cu4_6 1_555 1_555
O7_2 C10_7 1_555 1_555
C10_7 O4_7 1_555 1_555
H8_5 C11_5 1_555 1_555
H9_5 C11_5 1_555 1_555
C10_7 C11_5 1_555 1_555
O4_8 Cu4_4 1_555 1_555
O7_3 C10_8 1_555 1_555
C10_8 O4_8 1_555 1_555
H8_6 C11_6 1_555 1_555
H9_6 C11_6 1_555 1_555
C10_8 C11_6 1_555 1_555
Cu3 O1_8 1_555 1_555
O1_8 C1_8 1_555 1_555
O5_6 C1_8 1_555 1_555
C1_8 C2_6 1_555 1_555
H1_6 C2_6 1_555 1_555
H2_6 C2_6 1_555 1_555
O4_9 Cu4_5 1_555 1_555
O7 C10_9 1_555 1_555
N2_5 Cu4_5 1_555 1_555
C10_9 O4_9 1_555 1_555
C11_7 N2_5 1_555 1_555
H8_7 C11_7 1_555 1_555
H9_7 C11_7 1_555 1_555
C12_5 N2_5 1_555 1_555
H10_5 C12_5 1_555 1_555
C13_5 C12_5 1_555 1_555
C14_5 C13_5 1_555 1_555
H11_3 C14_5 1_555 1_555
C15_5 C14_5 1_555 1_555
H12_5 C15_5 1_555 1_555
C16_5 C15_5 1_555 1_555
H13_4 C16_5 1_555 1_555
C17_7 C16_5 1_555 1_555
H14_7 C17_7 1_555 1_555
C18_7 O8_7 1_555 1_555
Cu4_5 O8_7 1_555 1_555
C10_9 C11_7 1_555 1_555
C13_5 C18_7 1_555 1_555
C17_7 C18_7 1_555 1_555
Cu3_2 O1_9 1_555 1_555
O1_9 C1_9 1_555 1_555
O5_4 C1_9 1_555 1_555
O3_7 Cu3_2 1_555 1_555
N1_5 Cu3_2 1_555 1_555
C1_9 C2_7 1_555 1_555
C2_7 N1_5 1_555 1_555
H1_7 C2_7 1_555 1_555
H2_7 C2_7 1_555 1_555
C3_5 N1_5 1_555 1_555
H3_5 C3_5 1_555 1_555
C4_5 C3_5 1_555 1_555
C5_5 C4_5 1_555 1_555
H4_2 C5_5 1_555 1_555
C6_5 C5_5 1_555 1_555
H5_5 C6_5 1_555 1_555
C7_5 C6_5 1_555 1_555
H6_4 C7_5 1_555 1_555
C8_7 C7_5 1_555 1_555
H7_7 C8_7 1_555 1_555
C9_7 O3_7 1_555 1_555
C4_5 C9_7 1_555 1_555
C8_7 C9_7 1_555 1_555
C2_8 N1_6 1_555 1_555
H1_8 C2_8 1_555 1_555
H2_8 C2_8 1_555 1_555
C3_6 N1_6 1_555 1_555
H3_6 C3_6 1_555 1_555
C4_6 C3_6 1_555 1_555
C5_6 C4_6 1_555 1_555
H4_3 C5_6 1_555 1_555
C6_6 C5_6 1_555 1_555
H5_6 C6_6 1_555 1_555
C7_6 C6_6 1_555 1_555
H6_5 C7_6 1_555 1_555
C2_9 N1_7 1_555 1_555
H1_9 C2_9 1_555 1_555
H2_9 C2_9 1_555 1_555
C3_7 N1_7 1_555 1_555
H3_7 C3_7 1_555 1_555
C4_7 C3_7 1_555 1_555
C5_7 C4_7 1_555 1_555
H4_4 C5_7 1_555 1_555
C6_7 C5_7 1_555 1_555
H5_7 C6_7 1_555 1_555
C7_7 C6_7 1_555 1_555
C11_8 N2_6 1_555 1_555
H8_8 C11_8 1_555 1_555
H9_8 C11_8 1_555 1_555
C12_6 N2_6 1_555 1_555
H10_6 C12_6 1_555 1_555
C13_6 C12_6 1_555 1_555
C14_6 C13_6 1_555 1_555
H11_6 C14_6 1_555 1_555
C15_6 C14_6 1_555 1_555
H12_6 C15_6 1_555 1_555
C16_6 C15_6 1_555 1_555
H13_5 C16_6 1_555 1_555
C11_9 N2_7 1_555 1_555
H8_9 C11_9 1_555 1_555
H9_9 C11_9 1_555 1_555
C12_7 N2_7 1_555 1_555
H10_7 C12_7 1_555 1_555
C13_7 C12_7 1_555 1_555
C14_7 C13_7 1_555 1_555
H11_7 C14_7 1_555 1_555
C15_7 C14_7 1_555 1_555
H12_7 C15_7 1_555 1_555
C16_7 C15_7 1_555 1_555
C12_8 N2_8 1_555 1_555
H10_8 C12_8 1_555 1_555
C13_8 C12_8 1_555 1_555
C14_8 C13_8 1_555 1_555
H11_8 C14_8 1_555 1_555
C15_8 C14_8 1_555 1_555
H12_8 C15_8 1_555 1_555
C16_8 C15_8 1_555 1_555
H13_8 C16_8 1_555 1_555
C17_8 C16_8 1_555 1_555
H14_8 C17_8 1_555 1_555
C18_8 O8_8 1_555 1_555
C13_8 C18_8 1_555 1_555
C17_8 C18_8 1_555 1_555
C3_8 N1_8 1_555 1_555
H3_8 C3_8 1_555 1_555
C4_8 C3_8 1_555 1_555
C5_8 C4_8 1_555 1_555
H4_8 C5_8 1_555 1_555
C6_8 C5_8 1_555 1_555
H5_8 C6_8 1_555 1_555
C7_8 C6_8 1_555 1_555
H6_8 C7_8 1_555 1_555
C8_8 C7_8 1_555 1_555
H7_8 C8_8 1_555 1_555
C9_8 O3_8 1_555 1_555
C4_8 C9_8 1_555 1_555
C8_8 C9_8 1_555 1_555
C3_9 N1_9 1_555 1_555
H3_9 C3_9 1_555 1_555
C4_9 C3_9 1_555 1_555
C5_9 C4_9 1_555 1_555
H4_9 C5_9 1_555 1_555
C6_9 C5_9 1_555 1_555
H5_9 C6_9 1_555 1_555
C7_9 C6_9 1_555 1_555
H6_9 C7_9 1_555 1_555
C8_9 C7_9 1_555 1_555
H7_9 C8_9 1_555 1_555
C9_9 O3_9 1_555 1_555
C4_9 C9_9 1_555 1_555
C8_9 C9_9 1_555 1_555
C12_9 N2_9 1_555 1_555
H10_9 C12_9 1_555 1_555
C13_9 C12_9 1_555 1_555
C14_9 C13_9 1_555 1_555
H11_9 C14_9 1_555 1_555
C15_9 C14_9 1_555 1_555
H12_9 C15_9 1_555 1_555
C16_9 C15_9 1_555 1_555
H13_9 C16_9 1_555 1_555
C17_9 C16_9 1_555 1_555
H14_9 C17_9 1_555 1_555
C18_9 O8_9 1_555 1_555
C13_9 C18_9 1_555 1_555
C17_9 C18_9 1_555 1_555

#END
