
###############################################################################
#
# This file contains modified crystal structure data generated from the
# MOF subset of the Cambridge Structural Database (CSD) v543 
# hosted by the Cambridge Crystallographic Data Centre (CCDC).
#
# This work is licensed under the Creative Commons
# Attribution-NonCommercial-ShareAlike 4.0 International License.
# To view a copy of this license, visit
# http://creativecommons.org/licenses/by-nc-sa/4.0/
# or send a letter to
# Creative Commons, PO Box 1866, Mountain View, CA 94042, USA.
#
# CIF created using the CSD Python API on 29 September 2022
# The structure has been converted into the P1 space group
# The structure has a 3D framework
# The original CSD entry EDEPAG is in the triclinic crystal system
# The framework has been calculated to contain at least 10.0% void space
# The void calculation uses a probe of radius 1.32A, grid spacing 0.4
# H atom positions have been added when not included in the experimental data
# Generated hydrogen atom positions removed from atoms on special positions
#
###############################################################################

data_EDEPAG
_chemical_formula_moiety         '(C60 H60 Eu4 N4 O28)n'
_symmetry_cell_setting           triclinic
_symmetry_space_group_name_H-M   'P 1'
_symmetry_Int_Tables_number      1
_space_group_name_Hall           'P 1'
loop_
_symmetry_equiv_pos_site_id
_symmetry_equiv_pos_as_xyz
1 x,y,z
_cell_length_a                   11.0552(7)
_cell_length_b                   11.0713(6)
_cell_length_c                   17.6488(10)
_cell_angle_alpha                93.084(5)
_cell_angle_beta                 104.429(5)
_cell_angle_gamma                119.032(6)
_cell_volume                     1789.77
loop_
_atom_site_label
_atom_site_type_symbol
_atom_site_fract_x
_atom_site_fract_y
_atom_site_fract_z
_atom_site_U_iso_or_equiv
_atom_site_thermal_displace_type
Eu12 Eu 0.00114(4) 0.10577(4) 0.09493(3) 0.0154 Uani
H7 H 0.0935 0.0202 0.4164 0.0250 Uiso
O7 O 0.1210(8) 0.1727(8) 0.3176(4) 0.0290 Uani
Eu4 Eu 0.32056(4) 0.39764(4) 0.37876(3) 0.0156 Uani
C21 C 0.2630(10) 0.2298(10) 0.0050(6) 0.0221 Uani
C22 C 0.3850(10) 0.3714(10) 0.0021(6) 0.0213 Uani
C23 C 0.4729(10) 0.4740(10) 0.0730(6) 0.0208 Uani
H11 H 0.4543 0.4568 0.1223 0.0250 Uiso
O12 O 0.2214(7) 0.2226(7) 0.0656(4) 0.0235 Uani
C54 C 0.5874(10) 0.6009(10) 0.0689(6) 0.0227 Uani
H38 H 0.6489 0.6710 0.1164 0.0270 Uiso
O16 O 0.1443(7) 0.0118(7) 0.1748(4) 0.0271 Uani
O22 O 0.1098(7) 0.3404(7) 0.1534(4) 0.0237 Uani
O35 O 0.7909(7) 0.8731(7) 0.0540(4) 0.0232 Uani
H4 H 0.0192 0.3424 0.9581 0.0290 Uiso
C24 C 0.4126(10) 0.3991(10) 0.9311(6) 0.0227 Uani
H12 H 0.3511 0.3290 0.8836 0.0270 Uiso
C29 C 0.1474(16) 0.6099(16) 0.7759(9) 0.0742 Uani
H21 H 0.1278 0.5918 0.8265 0.1120 Uiso
H22 H 0.2435 0.6239 0.7798 0.1120 Uiso
H23 H 0.1457 0.6948 0.7645 0.1120 Uiso
C30 C 0.0384(19) 0.3688(18) 0.7141(11) 0.0804 Uani
H24 H 0.0449 0.3366 0.6633 0.1200 Uiso
H25 H 0.1222 0.3846 0.7581 0.1200 Uiso
N2 N 0.0382(12) 0.4918(13) 0.7128(7) 0.0610 Uani
O11 O 0.2091(7) 0.1269(7) 0.9460(4) 0.0232 Uani
C51 C 0.7370(10) 0.7702(10) 0.9950(6) 0.0221 Uani
C52 C 0.6150(10) 0.6286(10) 0.9979(6) 0.0213 Uani
C53 C 0.5271(10) 0.5260(10) 0.9270(6) 0.0208 Uani
H37 H 0.5457 0.5432 0.8777 0.0250 Uiso
O37 O 0.7786(7) 0.7774(7) 0.9344(4) 0.0235 Uani
Eu13 Eu 0.99886(4) 0.89423(4) 0.90507(3) 0.0154 Uani
C26 C 0.3927(13) 0.7694(14) 0.0007(8) 0.0433 Uani
H15 H 0.4939 0.8030 0.0319 0.0660 Uiso
H16 H 0.3450 0.7910 0.0347 0.0660 Uiso
C31 C 0.1171(10) 0.9201(10) 0.1186(6) 0.0221 Uani
C32 C 0.1512(10) 0.8075(10) 0.1360(6) 0.0229 Uani
C33 C 0.2671(11) 0.8324(10) 0.2013(6) 0.0262 Uani
H27 H 0.3320 0.9245 0.2336 0.0320 Uiso
C34 C 0.2873(11) 0.7207(10) 0.2191(6) 0.0256 Uani
H28 H 0.3658 0.7366 0.2638 0.0300 Uiso
C35 C 0.1915(10) 0.5847(10) 0.1709(6) 0.0222 Uani
C36 C 0.0760(10) 0.5609(10) 0.1065(6) 0.0230 Uani
H29 H 0.0094 0.4684 0.0750 0.0280 Uiso
C37 C 0.0575(11) 0.6730(10) 0.0877(6) 0.0244 Uani
C38 C 0.2046(11) 0.4629(10) 0.1968(6) 0.0219 Uani
O17 O 0.0557(7) 0.9170(7) 0.0466(4) 0.0220 Uani
O18 O 0.3056(7) 0.4880(7) 0.2582(4) 0.0245 Uani
C25 C 0.2920(12) 0.8740(13) 0.9090(7) 0.0395 Uani
H13 H 0.2934 0.9192 0.8647 0.0470 Uiso
H14 H 0.3408 0.6671 0.9810 0.0660 Uiso
C27 C 0.5050(13) 0.8712(15) 0.8936(8) 0.0522 Uani
H17 H 0.5097 0.9411 0.8608 0.0790 Uiso
H18 H 0.5999 0.9088 0.9345 0.0790 Uiso
H19 H 0.4803 0.7844 0.8595 0.0790 Uiso
N1 N 0.3902(10) 0.8391(11) 0.9333(6) 0.0424 Uani
O13 O 0.1959(8) 0.8507(8) 0.9414(4) 0.0304 Uani
O29 O 0.0783(7) 0.9303(7) 0.7928(4) 0.0237 Uani
C16 C 0.9925(11) 0.0746(10) 0.2781(6) 0.0233 Uani
O8 O 0.9217(7) 0.0697(7) 0.2072(4) 0.0237 Uani
C47 C 0.5034(11) 0.2660(10) 0.5106(6) 0.0249 Uani
C48 C 0.5009(11) 0.1279(10) 0.5044(6) 0.0242 Uani
C49 C 0.5919(11) 0.1080(10) 0.5665(6) 0.0262 Uani
H35 H 0.6541 0.1808 0.6128 0.0320 Uiso
C50 C 0.4078(11) 0.0162(10) 0.4390(6) 0.0242 Uani
H36 H 0.3424 0.0261 0.3970 0.0290 Uiso
O31 O 0.4051(8) 0.2682(7) 0.4553(4) 0.0252 Uani
O33 O 0.6044(8) 0.3659(7) 0.5658(4) 0.0269 Uani
Eu6 Eu 0.67944(4) 0.60236(4) 0.62124(3) 0.0156 Uani
C55 C 0.7080(12) 0.1260(13) 0.0910(7) 0.0395 Uani
H39 H 0.7066 0.0808 0.1353 0.0470 Uiso
H40 H 0.6592 0.3329 0.0190 0.0660 Uiso
C57 C 0.4950(13) 0.1288(15) 0.1064(8) 0.0522 Uani
H43 H 0.4903 0.0589 0.1392 0.0790 Uiso
H44 H 0.4001 0.0912 0.0655 0.0790 Uiso
H45 H 0.5197 0.2156 0.1405 0.0790 Uiso
N3 N 0.6098(10) 0.1609(11) 0.0667(6) 0.0424 Uani
O39 O 0.8041(8) 0.1493(8) 0.0586(4) 0.0304 Uani
C1 C 0.8829(10) 0.0799(10) 0.8814(6) 0.0221 Uani
C2 C 0.8488(10) 0.1925(10) 0.8640(6) 0.0229 Uani
C3 C 0.7329(11) 0.1676(10) 0.7987(6) 0.0262 Uani
H1 H 0.6680 0.0755 0.7664 0.0320 Uiso
C4 C 0.7127(11) 0.2793(10) 0.7809(6) 0.0256 Uani
H2 H 0.6342 0.2634 0.7362 0.0300 Uiso
C5 C 0.8085(10) 0.4153(10) 0.8291(6) 0.0222 Uani
C6 C 0.9240(10) 0.4391(10) 0.8935(6) 0.0230 Uani
H3 H 0.9906 0.5316 0.9250 0.0280 Uiso
C7 C 0.9425(11) 0.3270(10) 0.9123(6) 0.0244 Uani
C8 C 0.7954(11) 0.5371(10) 0.8032(6) 0.0219 Uani
C9 C 0.6988(10) 0.6258(10) 0.4392(6) 0.0210 Uani
C10 C 0.7731(10) 0.7391(10) 0.3932(6) 0.0213 Uani
C11 C 0.6975(11) 0.7442(10) 0.3193(6) 0.0224 Uani
H5 H 0.5974 0.6751 0.2946 0.0270 Uiso
C12 C 0.7698(10) 0.8512(10) 0.2819(6) 0.0249 Uani
H6 H 0.7184 0.8546 0.2309 0.0300 Uiso
C13 C 0.9171(10) 0.9550(10) 0.3174(6) 0.0225 Uani
C14 C 0.9932(10) 0.9509(10) 0.3922(6) 0.0209 Uani
C15 C 0.9218(10) 0.8449(10) 0.4313(6) 0.0226 Uani
H8 H 0.9721 0.8432 0.4831 0.0270 Uiso
C17 C 0.4966(11) 0.7340(10) 0.4894(6) 0.0249 Uani
C18 C 0.4991(11) 0.8721(10) 0.4956(6) 0.0242 Uani
C19 C 0.4081(11) 0.8920(10) 0.4335(6) 0.0262 Uani
H9 H 0.3459 0.8192 0.3872 0.0320 Uiso
C20 C 0.5922(11) 0.9838(10) 0.5610(6) 0.0242 Uani
H10 H 0.6576 0.9739 0.6030 0.0290 Uiso
C28 C 0.9244(15) 0.4983(16) 0.6662(9) 0.0557 Uani
H20 H 0.8474 0.4104 0.6329 0.0670 Uiso
H26 H 0.9481 0.2968 0.7221 0.1200 Uiso
O2 O 0.9443(7) 0.0830(7) 0.9534(4) 0.0220 Uani
O3 O 0.6944(7) 0.5120(7) 0.7418(4) 0.0245 Uani
O4 O 0.8902(7) 0.6596(7) 0.8466(4) 0.0237 Uani
O5 O 0.7717(7) 0.6356(7) 0.5097(4) 0.0235 Uani
O6 O 0.5705(7) 0.5291(7) 0.4017(4) 0.0227 Uani
O9 O 0.5949(8) 0.7318(7) 0.5447(4) 0.0252 Uani
O10 O 0.3956(8) 0.6341(7) 0.4342(4) 0.0269 Uani
O14 O 0.9040(9) 0.5870(9) 0.6594(5) 0.0430 Uani
O15 O 0.6242(8) 0.7289(7) 0.7176(4) 0.0308 Uani
C39 C 0.3012(10) 0.3742(10) 0.5608(6) 0.0210 Uani
C40 C 0.2269(10) 0.2609(10) 0.6068(6) 0.0213 Uani
C41 C 0.3025(11) 0.2558(10) 0.6807(6) 0.0224 Uani
H31 H 0.4026 0.3249 0.7054 0.0270 Uiso
C42 C 0.2302(10) 0.1488(10) 0.7181(6) 0.0249 Uani
H32 H 0.2816 0.1454 0.7691 0.0300 Uiso
C43 C 0.0829(10) 0.0450(10) 0.6826(6) 0.0225 Uani
C44 C 0.0068(10) 0.0491(10) 0.6078(6) 0.0209 Uani
C45 C 0.0782(10) 0.1551(10) 0.5687(6) 0.0226 Uani
H34 H 0.0279 0.1568 0.5169 0.0270 Uiso
C56 C 0.6073(13) 0.2306(14) 0.9993(8) 0.0433 Uani
H41 H 0.5061 0.1970 0.9681 0.0660 Uiso
H42 H 0.6550 0.2090 0.9653 0.0660 Uiso
C58 C 0.0756(15) 0.5017(16) 0.3338(9) 0.0557 Uani
H46 H 0.1526 0.5896 0.3671 0.0670 Uiso
H52 H 0.0519 0.7032 0.2779 0.1200 Uiso
O23 O 0.2283(7) 0.3644(7) 0.4903(4) 0.0235 Uani
O24 O 0.4295(7) 0.4709(7) 0.5983(4) 0.0227 Uani
O26 O 0.8790(8) 0.8273(8) 0.6824(4) 0.0290 Uani
O40 O 0.0960(9) 0.4130(9) 0.3406(5) 0.0430 Uani
O41 O 0.3758(8) 0.2711(7) 0.2824(4) 0.0308 Uani
H30 H 0.9808 0.6576 0.0419 0.0290 Uiso
O1 O 0.8557(7) 0.9882(7) 0.8252(4) 0.0271 Uani
C46 C 0.0075(11) 0.9254(10) 0.7219(6) 0.0233 Uani
C59 C 0.8526(16) 0.3901(16) 0.2241(9) 0.0742 Uani
H47 H 0.8722 0.4082 0.1735 0.1120 Uiso
H48 H 0.7565 0.3761 0.2202 0.1120 Uiso
H49 H 0.8543 0.3052 0.2355 0.1120 Uiso
C60 C 0.9616(19) 0.6312(18) 0.2859(11) 0.0804 Uani
H50 H 0.9551 0.6634 0.3367 0.1200 Uiso
H51 H 0.8778 0.6154 0.2419 0.1200 Uiso
N4 N 0.9618(12) 0.5082(13) 0.2872(7) 0.0610 Uani
H33 H 0.9065 0.9798 0.5836 0.0250 Uiso
loop_
_atom_site_aniso_label
_atom_site_aniso_U_11
_atom_site_aniso_U_22
_atom_site_aniso_U_33
_atom_site_aniso_U_23
_atom_site_aniso_U_13
_atom_site_aniso_U_12
Eu12 0.0155 0.0092 0.0221 0.006 0.0086 0.0052
O7 0.033 0.02 0.024 0.003 0.008 0.007
Eu4 0.0175 0.0102 0.019 0.00578 0.0077 0.0059
C21 0.018 0.015 0.031 0.003 0.012 0.005
C22 0.018 0.016 0.029 0.003 0.01 0.007
C23 0.017 0.016 0.028 0.005 0.01 0.006
O12 0.019 0.015 0.033 0.004 0.013 0.004
C54 0.017 0.018 0.028 0.004 0.01 0.004
O16 0.029 0.019 0.026 0.002 0.003 0.01
O22 0.032 0.015 0.027 0.006 0.016 0.011
O35 0.019 0.013 0.033 0.001 0.013 0.003
C24 0.017 0.018 0.028 0.004 0.01 0.004
C29 0.067 0.072 0.074 0.014 0.022 0.029
C30 0.076 0.073 0.083 0.01 0.019 0.035
N2 0.059 0.062 0.07 0.016 0.022 0.036
O11 0.019 0.013 0.033 0.001 0.013 0.003
C51 0.018 0.015 0.031 0.003 0.012 0.005
C52 0.018 0.016 0.029 0.003 0.01 0.007
C53 0.017 0.016 0.028 0.005 0.01 0.006
O37 0.019 0.015 0.033 0.004 0.013 0.004
Eu13 0.0155 0.0092 0.0221 0.006 0.0086 0.0052
C26 0.044 0.047 0.053 0.017 0.02 0.031
C31 0.025 0.016 0.024 0.0037 0.005 0.011
C32 0.026 0.015 0.025 0.003 0.003 0.011
C33 0.031 0.014 0.026 0.001 0.001 0.01
C34 0.03 0.016 0.024 0.002 0 0.011
C35 0.027 0.015 0.023 0.002 0.003 0.012
C36 0.027 0.016 0.022 0.002 0.004 0.01
C37 0.027 0.017 0.024 0.003 0.003 0.01
C38 0.032 0.016 0.024 0.006 0.015 0.014
O17 0.024 0.015 0.023 0.007 0.005 0.008
O18 0.033 0.017 0.025 0.007 0.013 0.012
C25 0.037 0.042 0.043 0.012 0.014 0.022
C27 0.043 0.058 0.051 0.014 0.022 0.019
N1 0.038 0.046 0.048 0.015 0.017 0.023
O13 0.03 0.036 0.04 0.009 0.017 0.025
O29 0.029 0.021 0.022 0.006 0.011 0.012
C16 0.029 0.017 0.023 0.003 0.011 0.01
O8 0.029 0.021 0.022 0.006 0.011 0.012
C47 0.034 0.017 0.025 0.007 0.009 0.014
C48 0.033 0.017 0.024 0.003 0.007 0.015
C49 0.035 0.017 0.022 0.002 0.003 0.013
C50 0.032 0.018 0.025 0.004 0.004 0.017
O31 0.035 0.017 0.026 0.009 0.011 0.014
O33 0.035 0.016 0.027 0.005 0.01 0.011
Eu6 0.0175 0.0102 0.019 0.00578 0.0077 0.0059
C55 0.037 0.042 0.043 0.012 0.014 0.022
C57 0.043 0.058 0.051 0.014 0.022 0.019
N3 0.038 0.046 0.048 0.015 0.017 0.023
O39 0.03 0.036 0.04 0.009 0.017 0.025
C1 0.025 0.016 0.024 0.0037 0.005 0.011
C2 0.026 0.015 0.025 0.003 0.003 0.011
C3 0.031 0.014 0.026 0.001 0.001 0.01
C4 0.03 0.016 0.024 0.002 0 0.011
C5 0.027 0.015 0.023 0.002 0.003 0.012
C6 0.027 0.016 0.022 0.002 0.004 0.01
C7 0.027 0.017 0.024 0.003 0.003 0.01
C8 0.032 0.016 0.024 0.006 0.015 0.014
C9 0.024 0.021 0.025 0.008 0.0141 0.0135
C10 0.024 0.02 0.023 0.006 0.0129 0.011
C11 0.023 0.021 0.021 0.008 0.01 0.008
C12 0.024 0.022 0.022 0.007 0.009 0.006
C13 0.024 0.02 0.021 0.005 0.01 0.008
C14 0.023 0.019 0.021 0.005 0.011 0.009
C15 0.025 0.02 0.023 0.006 0.011 0.01
C17 0.034 0.017 0.025 0.007 0.009 0.014
C18 0.033 0.017 0.024 0.003 0.007 0.015
C19 0.035 0.017 0.022 0.002 0.003 0.013
C20 0.032 0.018 0.025 0.004 0.004 0.017
C28 0.053 0.061 0.065 0.018 0.022 0.036
O2 0.024 0.015 0.023 0.007 0.005 0.008
O3 0.033 0.017 0.025 0.007 0.013 0.012
O4 0.032 0.015 0.027 0.006 0.016 0.011
O5 0.025 0.025 0.025 0.008 0.014 0.013
O6 0.023 0.02 0.028 0.011 0.016 0.009
O9 0.035 0.017 0.026 0.009 0.011 0.014
O10 0.035 0.016 0.027 0.005 0.01 0.011
O14 0.044 0.053 0.057 0.023 0.025 0.038
O15 0.042 0.021 0.038 0.01 0.011 0.023
C39 0.024 0.021 0.025 0.008 0.0141 0.0135
C40 0.024 0.02 0.023 0.006 0.0129 0.011
C41 0.023 0.021 0.021 0.008 0.01 0.008
C42 0.024 0.022 0.022 0.007 0.009 0.006
C43 0.024 0.02 0.021 0.005 0.01 0.008
C44 0.023 0.019 0.021 0.005 0.011 0.009
C45 0.025 0.02 0.023 0.006 0.011 0.01
C56 0.044 0.047 0.053 0.017 0.02 0.031
C58 0.053 0.061 0.065 0.018 0.022 0.036
O23 0.025 0.025 0.025 0.008 0.014 0.013
O24 0.023 0.02 0.028 0.011 0.016 0.009
O26 0.033 0.02 0.024 0.003 0.008 0.007
O40 0.044 0.053 0.057 0.023 0.025 0.038
O41 0.042 0.021 0.038 0.01 0.011 0.023
O1 0.029 0.019 0.026 0.002 0.003 0.01
C46 0.029 0.017 0.023 0.003 0.011 0.01
C59 0.067 0.072 0.074 0.014 0.022 0.029
C60 0.076 0.073 0.083 0.01 0.019 0.035
N4 0.059 0.062 0.07 0.016 0.022 0.036
loop_
_geom_bond_atom_site_label_1
_geom_bond_atom_site_label_2
_geom_bond_site_symmetry_1
_geom_bond_site_symmetry_2
Eu4 O7 1_555 1_555
C21 C22 1_555 1_555
C22 C23 1_555 1_555
C23 H11 1_555 1_555
O12 C21 1_555 1_555
C54 C23 1_555 1_555
H38 C54 1_555 1_555
O22 Eu12 1_555 1_555
O12 Eu12 1_555 1_555
O16 Eu12 1_555 1_555
H12 C24 1_555 1_555
C29 H21 1_555 1_555
H22 C29 1_555 1_555
H23 C29 1_555 1_555
C30 H24 1_555 1_555
H25 C30 1_555 1_555
C51 C52 1_555 1_555
C52 C53 1_555 1_555
C53 C24 1_555 1_555
H37 C53 1_555 1_555
O37 C51 1_555 1_555
Eu13 O37 1_555 1_555
C29 N2 1_555 1_555
C30 N2 1_555 1_555
H15 C26 1_555 1_555
H16 C26 1_555 1_555
C31 C32 1_555 1_555
C32 C33 1_555 1_555
C33 H27 1_555 1_555
C34 C33 1_555 1_555
H28 C34 1_555 1_555
C35 C34 1_555 1_555
C36 C35 1_555 1_555
H29 C36 1_555 1_555
C37 C32 1_555 1_555
C38 C35 1_555 1_555
O18 C38 1_555 1_555
O22 C38 1_555 1_555
Eu4 O18 1_555 1_555
C31 O17 1_555 1_555
C36 C37 1_555 1_555
C25 H13 1_555 1_555
C27 H17 1_555 1_555
H18 C27 1_555 1_555
H19 C27 1_555 1_555
N1 C25 1_555 1_555
O13 C25 1_555 1_555
C27 N1 1_555 1_555
O8 C16 1_555 1_555
C47 C48 1_555 1_555
C48 C49 1_555 1_555
H35 C49 1_555 1_555
H36 C50 1_555 1_555
O31 C47 1_555 1_555
O33 C47 1_555 1_555
Eu4 O31 1_555 1_555
Eu6 O33 1_555 1_555
C48 C50 1_555 1_555
C55 H39 1_555 1_555
C57 H43 1_555 1_555
H44 C57 1_555 1_555
H45 C57 1_555 1_555
N3 C55 1_555 1_555
O39 C55 1_555 1_555
C57 N3 1_555 1_555
C1 C2 1_555 1_555
C2 C3 1_555 1_555
C3 H1 1_555 1_555
C4 C3 1_555 1_555
H2 C4 1_555 1_555
C5 C4 1_555 1_555
C6 C5 1_555 1_555
H3 C6 1_555 1_555
C7 C2 1_555 1_555
C8 C5 1_555 1_555
C9 C10 1_555 1_555
C10 C11 1_555 1_555
C11 H5 1_555 1_555
C12 C11 1_555 1_555
H6 C12 1_555 1_555
C13 C12 1_555 1_555
C14 C13 1_555 1_555
C15 C10 1_555 1_555
H8 C15 1_555 1_555
C17 C18 1_555 1_555
C18 C19 1_555 1_555
C19 H9 1_555 1_555
C20 C18 1_555 1_555
H10 C20 1_555 1_555
C28 H20 1_555 1_555
O2 C1 1_555 1_555
O3 C8 1_555 1_555
O4 C8 1_555 1_555
O5 C9 1_555 1_555
O6 C9 1_555 1_555
O9 C17 1_555 1_555
O10 C17 1_555 1_555
O14 C28 1_555 1_555
O15 Eu6 1_555 1_555
Eu6 O3 1_555 1_555
C39 C40 1_555 1_555
C40 C41 1_555 1_555
C41 H31 1_555 1_555
C42 C41 1_555 1_555
H32 C42 1_555 1_555
C43 C42 1_555 1_555
C44 C43 1_555 1_555
C45 C40 1_555 1_555
H34 C45 1_555 1_555
H41 C56 1_555 1_555
H42 C56 1_555 1_555
C58 H46 1_555 1_555
O23 C39 1_555 1_555
O24 Eu6 1_555 1_555
O26 Eu6 1_555 1_555
O40 C58 1_555 1_555
O41 Eu4 1_555 1_555
Eu4 O6 1_555 1_555
Eu13 O4 1_555 1_555
C6 C7 1_555 1_555
C14 C15 1_555 1_555
O5 Eu6 1_555 1_555
O9 Eu6 1_555 1_555
O10 Eu4 1_555 1_555
O14 Eu6 1_555 1_555
C39 O24 1_555 1_555
C44 C45 1_555 1_555
O23 Eu4 1_555 1_555
O40 Eu4 1_555 1_555
Eu13 O1 1_555 1_555
O29 C46 1_555 1_555
C59 H47 1_555 1_555
H48 C59 1_555 1_555
H49 C59 1_555 1_555
C60 H50 1_555 1_555
H51 C60 1_555 1_555
C59 N4 1_555 1_555
C60 N4 1_555 1_555

#END
