
###############################################################################
#
# This file contains modified crystal structure data generated from the
# MOF subset of the Cambridge Structural Database (CSD) v543 
# hosted by the Cambridge Crystallographic Data Centre (CCDC).
#
# This work is licensed under the Creative Commons
# Attribution-NonCommercial-ShareAlike 4.0 International License.
# To view a copy of this license, visit
# http://creativecommons.org/licenses/by-nc-sa/4.0/
# or send a letter to
# Creative Commons, PO Box 1866, Mountain View, CA 94042, USA.
#
# CIF created using the CSD Python API on 29 September 2022
# The structure has been converted into the P1 space group
# The structure has a 3D framework
# The original CSD entry EDESUF is in the monoclinic crystal system
# The framework has been calculated to contain at least 10.0% void space
# The void calculation uses a probe of radius 1.32A, grid spacing 0.4
#
###############################################################################

data_EDESUF
_chemical_formula_moiety         '(C176 H124 Cl4 Mn4 N32 O8)n'
_symmetry_cell_setting           triclinic
_symmetry_space_group_name_H-M   'P 1'
_symmetry_Int_Tables_number      1
_space_group_name_Hall           'P 1'
loop_
_symmetry_equiv_pos_site_id
_symmetry_equiv_pos_as_xyz
1 x,y,z
_cell_length_a                   20.1721(4)
_cell_length_b                   12.3945(3)
_cell_length_c                   20.2063(4)
_cell_angle_alpha                90
_cell_angle_beta                 91.4530(10)
_cell_angle_gamma                90
_cell_volume                     5050.42
loop_
_atom_site_label
_atom_site_type_symbol
_atom_site_fract_x
_atom_site_fract_y
_atom_site_fract_z
N1 N 0.44487(14) 0.3008(3) 0.23922(14)
C1 C 0.01800(16) 0.2172(3) 0.21226(15)
C2 C 0.03857(16) 0.2041(3) 0.14115(15)
N6 N 0.33722(14) 0.3341(2) 0.23076(15)
C4 C 0.04194(16) 0.2806(3) 0.32741(15)
N7 N 0.00681(14) 0.3589(2) 0.63487(13)
C6 C 0.06104(16) 0.2553(3) 0.25883(15)
C11 C 0.03750(18) 0.3398(3) 0.57964(16)
H5 H 0.081990 0.320712 0.577660
C12 C 0.03924(18) 0.1039(3) 0.11196(17)
H6 H 0.029733 0.043347 0.137212
C13 C 0.13211(16) 0.2767(3) 0.24598(16)
C17 C 0.06745(17) 0.1814(3) 0.00878(16)
C18 C 0.05371(18) 0.0912(3) 0.04604(16)
H10 H 0.054207 0.022847 0.027008
C20 C 0.17313(17) 0.2024(3) 0.21569(17)
H12 H 0.155278 0.138255 0.199361
C21 C 0.06852(19) 0.2817(3) 0.03707(17)
H13 H 0.078882 0.341948 0.011968
C22 C 0.05404(18) 0.2928(3) 0.10350(16)
H14 H 0.054790 0.360925 0.122806
C23 C 0.24030(17) 0.2227(3) 0.20947(17)
H15 H 0.267108 0.172032 0.189232
C25 C 0.38499(17) 0.2602(3) 0.24341(17)
H17 H 0.376481 0.188536 0.253915
C26 C 0.26730(17) 0.3169(3) 0.23301(18)
C27 C 0.07748(18) 0.2332(3) 0.38011(16)
H18 H 0.112055 0.185935 0.371625
C29 C 0.43489(19) 0.4069(3) 0.22398(19)
H20 H 0.468532 0.457111 0.218268
C30 C 0.36962(19) 0.4290(3) 0.21834(19)
H21 H 0.350365 0.495259 0.208082
C33 C 0.16045(18) 0.3723(3) 0.26776(19)
H24 H 0.133913 0.423972 0.287367
C35 C 0.22766(18) 0.3929(3) 0.2611(2)
H26 H 0.245608 0.458082 0.275589
C37 C 0.01156(17) 0.3281(3) 0.45797(15)
C38 C 0.06151(18) 0.2562(3) 0.44501(16)
H28 H 0.084625 0.222904 0.479795
Mn3 Mn 0.54068(2) 0.20191(4) 0.23802(2)
Mn8 Mn 0.04068(2) 0.29809(4) 0.73802(2)
N5 N 0.07717(15) 0.1706(2) 0.93889(13)
C19 C 0.05856(18) 0.2428(3) 0.89250(16)
H11 H 0.038952 0.308669 0.902120
C31 C 0.10406(19) 0.0851(3) 0.90563(17)
H22 H 0.121451 0.022052 0.924014
N8 N 0.07093(15) 0.2106(2) 0.83204(13)
C36 C 0.10006(19) 0.1114(3) 0.84057(17)
H27 H 0.115007 0.068199 0.806410
N2 N 0.99664(14) 0.3513(2) 0.52575(13)
N3 N 0.74683(14) 0.1030(2) 0.24583(14)
C3 C 0.69397(17) 0.1625(3) 0.22648(18)
H1 H 0.696777 0.229381 0.205859
N4 N 0.63815(14) 0.1147(2) 0.24026(15)
C5 C 0.97671(17) 0.3762(3) 0.40712(15)
H2 H 0.942970 0.424810 0.415988
C7 C 0.92708(16) 0.1337(3) 0.27890(16)
H3 H 0.958229 0.114623 0.311548
C8 C 0.86115(17) 0.1065(3) 0.28669(16)
H4 H 0.848305 0.070432 0.324629
C9 C 0.81477(17) 0.1327(3) 0.23853(17)
C10 C 0.94755(16) 0.1891(3) 0.22307(15)
C14 C 0.89917(18) 0.2151(3) 0.17547(17)
H7 H 0.911643 0.251676 0.137581
C15 C 0.93557(19) 0.3813(3) 0.54965(17)
H8 H 0.897135 0.395728 0.524835
C16 C 0.99190(17) 0.3521(3) 0.34240(16)
H9 H 0.967825 0.384880 0.308069
C24 C 0.83383(18) 0.1887(3) 0.18245(18)
H16 H 0.802495 0.207961 0.150028
C28 C 0.6557(2) 0.0191(3) 0.2704(2)
C32 C 0.94298(19) 0.3852(3) 0.61562(17)
H23 H 0.909542 0.403171 0.644480
C34 C 0.7225(2) 0.0103(3) 0.2739(2)
Cl1 Cl 0.48357(5) 0.05083(8) 0.29673(4)
O1 O 0.58624(11) 0.33569(19) 0.18548(11)
O2 O 0.68179(13) 0.3613(2) 0.13504(13)
C39 C 0.51644(17) 0.4205(3) 0.07643(16)
H29 H 0.492651 0.381805 0.107311
C40 C 0.61981(19) 0.3700(3) 0.13996(17)
C41 C 0.58363(18) 0.4283(3) 0.08419(16)
C42 C 0.6200(2) 0.4896(3) 0.03732(17)
H30 H 0.665870 0.495225 0.042067
C43 C 0.48240(17) 0.4693(3) 0.02314(16)
C50 C 0.41205(19) 0.4601(3) 0.01417(18)
H34 H 0.387940 0.419452 0.043835
N20 N 0.50681(14) 0.1411(2) 0.13487(13)
N22 N 0.57093(15) 0.2894(2) 0.33204(13)
N10 N 0.49664(14) 0.1487(2) 0.02575(13)
C61 C 0.53750(18) 0.1602(3) 0.07964(16)
H39 H 0.581990 0.179288 0.077660
C65 C 0.43557(19) 0.1187(3) 0.04965(17)
H42 H 0.397135 0.104272 0.024835
C82 C 0.44298(19) 0.1148(3) 0.11562(17)
H57 H 0.409542 0.096829 0.144480
O3 O 0.08624(11) 0.16431(19) 0.68548(11)
O4 O 0.18179(13) 0.1387(2) 0.63504(13)
C45 C 0.01644(17) 0.0795(3) 0.57643(16)
C46 C 0.11981(19) 0.1300(3) 0.63996(17)
C47 C 0.08363(18) 0.0717(3) 0.58419(16)
C48 C 0.1200(2) 0.0104(3) 0.53732(17)
H33 H 0.165870 0.004775 0.542067
N9 N 0.94487(14) 0.1992(3) 0.73922(14)
C51 C 0.51800(16) 0.2828(3) 0.71226(15)
C52 C 0.53857(16) 0.2959(3) 0.64115(15)
N11 N 0.24683(14) 0.3970(2) 0.74583(14)
C53 C 0.19397(17) 0.3375(3) 0.72648(18)
H35 H 0.196777 0.270619 0.705859
N12 N 0.13815(14) 0.3853(2) 0.74026(15)
N13 N 0.57717(15) 0.3294(2) 0.43889(13)
N14 N 0.83722(14) 0.1659(2) 0.73076(15)
C54 C 0.54194(16) 0.2194(3) 0.82741(15)
C55 C 0.47671(17) 0.1238(3) 0.90712(15)
H36 H 0.442970 0.075190 0.915988
C56 C 0.56104(16) 0.2447(3) 0.75883(15)
C57 C 0.42708(16) 0.3663(3) 0.77890(16)
H37 H 0.458229 0.385377 0.811548
C58 C 0.36115(17) 0.3935(3) 0.78669(16)
H38 H 0.348305 0.429568 0.824629
C59 C 0.31477(17) 0.3673(3) 0.73853(17)
C60 C 0.44755(16) 0.3109(3) 0.72307(15)
C62 C 0.53924(18) 0.3961(3) 0.61196(17)
H40 H 0.529733 0.456653 0.637212
C63 C 0.63211(16) 0.2233(3) 0.74598(16)
C64 C 0.39917(18) 0.2849(3) 0.67547(17)
H41 H 0.411643 0.248324 0.637581
C66 C 0.49190(17) 0.1479(3) 0.84240(16)
H43 H 0.467825 0.115120 0.808069
C67 C 0.56745(17) 0.3186(3) 0.50878(16)
C68 C 0.55371(18) 0.4088(3) 0.54604(16)
H44 H 0.554207 0.477153 0.527008
C69 C 0.55856(18) 0.2572(3) 0.39250(16)
H45 H 0.538952 0.191331 0.402120
C70 C 0.67313(17) 0.2976(3) 0.71569(17)
H46 H 0.655278 0.361745 0.699361
C71 C 0.56852(19) 0.2183(3) 0.53707(17)
H47 H 0.578882 0.158052 0.511968
C72 C 0.55404(18) 0.2072(3) 0.60350(16)
H48 H 0.554790 0.139075 0.622806
C73 C 0.74030(17) 0.2773(3) 0.70947(17)
H49 H 0.767108 0.327968 0.689232
C74 C 0.33383(18) 0.3113(3) 0.68245(18)
H50 H 0.302495 0.292039 0.650028
C75 C 0.88499(17) 0.2398(3) 0.74341(17)
H51 H 0.876481 0.311464 0.753915
C76 C 0.76730(17) 0.1831(3) 0.73301(18)
C77 C 0.57748(18) 0.2668(3) 0.88011(16)
H52 H 0.612055 0.314065 0.871625
C78 C 0.1557(2) 0.4809(3) 0.7704(2)
H53 H 0.126097 0.531824 0.786049
C79 C 0.93489(19) 0.0931(3) 0.72398(19)
H54 H 0.968532 0.042889 0.718268
C80 C 0.86962(19) 0.0710(3) 0.71834(19)
H55 H 0.850365 0.004741 0.708082
C81 C 0.60406(19) 0.4149(3) 0.40563(17)
H56 H 0.621451 0.477948 0.424014
C83 C 0.66045(18) 0.1277(3) 0.76776(19)
H58 H 0.633913 0.076028 0.787367
C84 C 0.2225(2) 0.4897(3) 0.7739(2)
H59 H 0.247074 0.546829 0.791597
C85 C 0.72766(18) 0.1071(3) 0.7611(2)
H60 H 0.745608 0.041918 0.775589
C86 C 0.60006(19) 0.3886(3) 0.34057(17)
H61 H 0.615007 0.431801 0.306410
C87 C 0.51156(17) 0.1719(3) 0.95797(15)
C88 C 0.56151(18) 0.2438(3) 0.94501(16)
H62 H 0.584625 0.277096 0.979795
C44 C 0.91205(19) 0.0399(3) 0.51417(18)
H31 H 0.887940 0.080548 0.543835
H32 H 0.992651 0.118195 0.607311
C49 C 0.98240(17) 0.0307(3) 0.52314(16)
Cl2 Cl 0.98357(5) 0.44917(8) 0.79673(4)
H53_2 H 0.373903 0.031824 0.713951
H59_2 H 0.252926 0.046829 0.708403
C44_2 C 0.58795(19) 0.5399(3) 0.98583(18)
H31_2 H 0.612060 0.580548 0.956165
O3_2 O 0.41376(11) 0.66431(19) 0.81452(11)
O4_2 O 0.31821(13) 0.6387(2) 0.86496(13)
C45_2 C 0.48356(17) 0.5795(3) 0.92357(16)
H32_2 H 0.507349 0.618195 0.892689
C46_2 C 0.38019(19) 0.6300(3) 0.86004(17)
C47_2 C 0.41637(18) 0.5717(3) 0.91581(16)
C48_2 C 0.3800(2) 0.5104(3) 0.96268(17)
H33_2 H 0.334130 0.504775 0.957933
C49_2 C 0.51760(17) 0.5307(3) 0.97686(16)
Mn2 Mn 0.45932(2) 0.79809(4) 0.76198(2)
N10_2 N 0.00336(14) 0.6487(2) 0.47425(13)
N11_2 N 0.25317(14) 0.8970(2) 0.75417(14)
C53_2 C 0.30603(17) 0.8375(3) 0.77352(18)
H35_2 H 0.303223 0.770619 0.794141
N12_2 N 0.36185(14) 0.8853(2) 0.75974(15)
C55_2 C 0.02329(17) 0.6238(3) 0.59288(15)
H36_2 H 0.057030 0.575190 0.584012
C57_2 C 0.07292(16) 0.8663(3) 0.72110(16)
H37_2 H 0.041771 0.885377 0.688452
C58_2 C 0.13885(17) 0.8935(3) 0.71331(16)
H38_2 H 0.151695 0.929568 0.675371
C59_2 C 0.18523(17) 0.8673(3) 0.76147(17)
C60_2 C 0.05245(16) 0.8109(3) 0.77693(15)
C64_2 C 0.10083(18) 0.7849(3) 0.82453(17)
H41_2 H 0.088357 0.748324 0.862419
C65_2 C 0.06443(19) 0.6187(3) 0.45035(17)
H42_2 H 0.102865 0.604272 0.475165
C66_2 C 0.00810(17) 0.6479(3) 0.65760(16)
H43_2 H 0.032175 0.615120 0.691931
C74_2 C 0.16617(18) 0.8113(3) 0.81755(18)
H50_2 H 0.197505 0.792039 0.849972
C78_2 C 0.3443(2) 0.9809(3) 0.7296(2)
C82_2 C 0.05702(19) 0.6148(3) 0.38438(17)
H57_2 H 0.090458 0.596829 0.355520
C84_2 C 0.2775(2) 0.9897(3) 0.7261(2)
Cl2_2 Cl 0.51643(5) 0.94917(8) 0.70327(4)
N18 N 0.55513(14) 0.6992(3) 0.76078(14)
N19 N 0.49319(14) 0.8589(2) 0.86513(13)
N21 N 0.42907(15) 0.7106(2) 0.66796(13)
N13_2 N 0.92283(15) 0.8294(2) 0.06111(13)
C69_2 C 0.94144(18) 0.7572(3) 0.10750(16)
H45_2 H 0.961048 0.691331 0.097880
C81_2 C 0.89594(19) 0.9149(3) 0.09437(17)
H56_2 H 0.878549 0.977948 0.075986
N16 N 0.92907(15) 0.7894(2) 0.16796(13)
C86_2 C 0.89994(19) 0.8886(3) 0.15943(17)
H61_2 H 0.884993 0.931801 0.193590
Mn5 Mn 0.95932(2) 0.70191(4) 0.26198(2)
C51_2 C 0.98200(16) 0.7828(3) 0.78774(15)
C52_2 C 0.96143(16) 0.7959(3) 0.85885(15)
N14_2 N 0.66278(14) 0.6659(2) 0.76924(15)
C54_2 C 0.95806(16) 0.7194(3) 0.67259(15)
N15 N 0.99319(14) 0.6411(2) 0.36513(13)
C56_2 C 0.93896(16) 0.7447(3) 0.74117(15)
C61_2 C 0.96250(18) 0.6602(3) 0.42036(16)
H39_2 H 0.918010 0.679288 0.422340
C62_2 C 0.96076(18) 0.8961(3) 0.88804(17)
H40_2 H 0.970267 0.956653 0.862788
C63_2 C 0.86789(16) 0.7233(3) 0.75402(16)
C67_2 C 0.93255(17) 0.8186(3) 0.99122(16)
C68_2 C 0.94629(18) 0.9088(3) 0.95396(16)
H44_2 H 0.945793 0.977153 0.972992
C70_2 C 0.82687(17) 0.7976(3) 0.78431(17)
H46_2 H 0.844722 0.861745 0.800639
C71_2 C 0.93148(19) 0.7183(3) 0.96293(17)
H47_2 H 0.921118 0.658052 0.988032
C72_2 C 0.94596(18) 0.7072(3) 0.89650(16)
H48_2 H 0.945210 0.639075 0.877194
C73_2 C 0.75970(17) 0.7773(3) 0.79053(17)
H49_2 H 0.732892 0.827968 0.810768
C75_2 C 0.61501(17) 0.7398(3) 0.75659(17)
H51_2 H 0.623519 0.811464 0.746085
C76_2 C 0.73270(17) 0.6831(3) 0.76699(18)
C77_2 C 0.92252(18) 0.7668(3) 0.61989(16)
H52_2 H 0.887945 0.814065 0.628375
C79_2 C 0.56511(19) 0.5931(3) 0.77602(19)
H54_2 H 0.531468 0.542889 0.781732
C80_2 C 0.63038(19) 0.5710(3) 0.78166(19)
H55_2 H 0.649635 0.504741 0.791918
C83_2 C 0.83955(18) 0.6277(3) 0.73224(19)
H58_2 H 0.866087 0.576028 0.712633
C85_2 C 0.77234(18) 0.6071(3) 0.7389(2)
H60_2 H 0.754392 0.541918 0.724411
C87_2 C 0.98844(17) 0.6719(3) 0.54203(15)
C88_2 C 0.93849(18) 0.7438(3) 0.55499(16)
H62_2 H 0.915375 0.777096 0.520205
Cl1_2 Cl 0.01643(5) 0.55083(8) 0.20327(4)
H29_2 H 0.007349 0.881805 0.392689
C43_2 C 0.01760(17) 0.9693(3) 0.47686(16)
C50_2 C 0.08795(19) 0.9601(3) 0.48583(18)
H34_2 H 0.112060 0.919452 0.456165
N17 N 0.05513(14) 0.8008(3) 0.26078(14)
C1_2 C 0.48200(16) 0.7172(3) 0.28774(15)
C2_2 C 0.46143(16) 0.7041(3) 0.35885(15)
N3_2 N 0.75317(14) 0.6030(2) 0.25417(14)
C3_2 C 0.80603(17) 0.6625(3) 0.27352(18)
H1_2 H 0.803223 0.729381 0.294141
N4_2 N 0.86185(14) 0.6147(2) 0.25974(15)
N5_2 N 0.42283(15) 0.6706(2) 0.56111(13)
N6_2 N 0.16278(14) 0.8341(2) 0.26924(15)
C4_2 C 0.45806(16) 0.7806(3) 0.17259(15)
C5_2 C 0.52329(17) 0.8762(3) 0.09288(15)
H2_2 H 0.557030 0.924810 0.084012
C6_2 C 0.43896(16) 0.7553(3) 0.24117(15)
C7_2 C 0.57292(16) 0.6337(3) 0.22110(16)
H3_2 H 0.541771 0.614623 0.188452
C8_2 C 0.63885(17) 0.6065(3) 0.21331(16)
H4_2 H 0.651695 0.570432 0.175371
C9_2 C 0.68523(17) 0.6327(3) 0.26147(17)
C10_2 C 0.55245(16) 0.6891(3) 0.27693(15)
C12_2 C 0.46076(18) 0.6039(3) 0.38804(17)
H6_2 H 0.470267 0.543347 0.362788
C13_2 C 0.36789(16) 0.7767(3) 0.25402(16)
C14_2 C 0.60083(18) 0.7151(3) 0.32453(17)
H7_2 H 0.588357 0.751676 0.362419
C16_2 C 0.50810(17) 0.8521(3) 0.15760(16)
H9_2 H 0.532175 0.884880 0.191931
C17_2 C 0.43255(17) 0.6814(3) 0.49122(16)
C18_2 C 0.44629(18) 0.5912(3) 0.45396(16)
H10_2 H 0.445793 0.522847 0.472992
C19_2 C 0.44144(18) 0.7428(3) 0.60750(16)
H11_2 H 0.461048 0.808669 0.597880
C20_2 C 0.32687(17) 0.7024(3) 0.28431(17)
H12_2 H 0.344722 0.638255 0.300639
C21_2 C 0.43148(19) 0.7817(3) 0.46293(17)
H13_2 H 0.421118 0.841948 0.488032
C22_2 C 0.44596(18) 0.7928(3) 0.39650(16)
H14_2 H 0.445210 0.860925 0.377194
C23_2 C 0.25970(17) 0.7227(3) 0.29053(17)
H15_2 H 0.232892 0.672032 0.310768
C24_2 C 0.66617(18) 0.6887(3) 0.31755(18)
H16_2 H 0.697505 0.707961 0.349972
C25_2 C 0.11501(17) 0.7602(3) 0.25659(17)
H17_2 H 0.123519 0.688536 0.246085
C26_2 C 0.23270(17) 0.8169(3) 0.26699(18)
C27_2 C 0.42252(18) 0.7332(3) 0.11989(16)
H18_2 H 0.387945 0.685935 0.128375
C28_2 C 0.8443(2) 0.5191(3) 0.2296(2)
H19 H 0.873903 0.468176 0.213951
C29_2 C 0.06511(19) 0.9069(3) 0.27602(19)
H20_2 H 0.031468 0.957111 0.281732
C30_2 C 0.13038(19) 0.9290(3) 0.28166(19)
H21_2 H 0.149635 0.995259 0.291918
C31_2 C 0.39594(19) 0.5851(3) 0.59437(17)
H22_2 H 0.378549 0.522052 0.575986
C33_2 C 0.33955(18) 0.8723(3) 0.23224(19)
H24_2 H 0.366087 0.923972 0.212633
C34_2 C 0.7775(2) 0.5103(3) 0.2261(2)
H25 H 0.752926 0.453171 0.208403
C35_2 C 0.27234(18) 0.8929(3) 0.2389(2)
H26_2 H 0.254392 0.958082 0.224411
C36_2 C 0.39994(19) 0.6114(3) 0.65943(17)
H27_2 H 0.384993 0.568199 0.693590
C37_2 C 0.48844(17) 0.8281(3) 0.04203(15)
C38_2 C 0.43849(18) 0.7562(3) 0.05499(16)
H28_2 H 0.415375 0.722904 0.020205
O1_2 O 0.91376(11) 0.83569(19) 0.31452(11)
O2_2 O 0.81821(13) 0.8613(2) 0.36496(13)
C39_2 C 0.98356(17) 0.9205(3) 0.42357(16)
C40_2 C 0.88019(19) 0.8700(3) 0.36004(17)
C41_2 C 0.91637(18) 0.9283(3) 0.41581(16)
C42_2 C 0.8800(2) 0.9896(3) 0.46268(17)
H30_2 H 0.834130 0.995225 0.457933
N2_2 N 0.50336(14) 0.8513(2) 0.97425(13)
C11_2 C 0.46250(18) 0.8398(3) 0.92036(16)
H5_2 H 0.418010 0.820712 0.922340
C15_2 C 0.56443(19) 0.8813(3) 0.95035(17)
H8_2 H 0.602865 0.895728 0.975165
C32_2 C 0.55702(19) 0.8852(3) 0.88438(17)
H23_2 H 0.590458 0.903171 0.855520
H19_2 H 0.626097 0.968176 0.286049
H25_2 H 0.747074 0.953171 0.291597
loop_
_geom_bond_atom_site_label_1
_geom_bond_atom_site_label_2
_geom_bond_site_symmetry_1
_geom_bond_site_symmetry_2
N1 C25 1_555 1_555
C1 C2 1_555 1_555
C2 C12 1_555 1_555
N6 C25 1_555 1_555
C4 C6 1_555 1_555
N7 C11 1_555 1_555
C6 C1 1_555 1_555
C11 H5 1_555 1_555
C12 H6 1_555 1_555
C13 C6 1_555 1_555
C17 C18 1_555 1_555
C18 C12 1_555 1_555
H10 C18 1_555 1_555
C20 C13 1_555 1_555
H12 C20 1_555 1_555
C21 C17 1_555 1_555
H13 C21 1_555 1_555
C22 C2 1_555 1_555
H14 C22 1_555 1_555
C23 C20 1_555 1_555
H15 C23 1_555 1_555
C25 H17 1_555 1_555
C26 N6 1_555 1_555
C27 C4 1_555 1_555
H18 C27 1_555 1_555
C29 N1 1_555 1_555
H20 C29 1_555 1_555
C30 N6 1_555 1_555
H21 C30 1_555 1_555
C33 C13 1_555 1_555
H24 C33 1_555 1_555
C35 C26 1_555 1_555
H26 C35 1_555 1_555
C38 C27 1_555 1_555
H28 C38 1_555 1_555
Mn3 N1 1_555 1_555
Mn8 N7 1_555 1_555
C21 C22 1_555 1_555
C23 C26 1_555 1_555
C29 C30 1_555 1_555
C33 C35 1_555 1_555
C37 C38 1_555 1_555
C19 N5 1_555 1_555
H11 C19 1_555 1_555
C31 N5 1_555 1_555
H22 C31 1_555 1_555
N8 C19 1_555 1_555
C36 C31 1_555 1_555
H27 C36 1_555 1_555
Mn8 N8 1_555 1_555
N8 C36 1_555 1_555
Mn3 N4 1_555 1_555
N3 C3 1_555 1_555
C3 H1 1_555 1_555
N4 C3 1_555 1_555
C5 H2 1_555 1_555
C7 H3 1_555 1_555
C8 C7 1_555 1_555
H4 C8 1_555 1_555
C9 N3 1_555 1_555
C14 C10 1_555 1_555
H7 C14 1_555 1_555
C15 N2 1_555 1_555
H8 C15 1_555 1_555
H9 C16 1_555 1_555
C24 C9 1_555 1_555
H16 C24 1_555 1_555
C28 N4 1_555 1_555
H23 C32 1_555 1_555
C34 N3 1_555 1_555
Cl1 Mn3 1_555 1_555
O1 Mn3 1_555 1_555
O2 C40 1_555 1_555
C39 H29 1_555 1_555
C40 O1 1_555 1_555
C41 C39 1_555 1_555
C42 C41 1_555 1_555
H30 C42 1_555 1_555
C43 C39 1_555 1_555
C50 C43 1_555 1_555
H34 C50 1_555 1_555
N20 Mn3 1_555 1_555
N22 Mn3 1_555 1_555
C5 C16 1_555 1_555
C7 C10 1_555 1_555
C8 C9 1_555 1_555
C14 C24 1_555 1_555
C15 C32 1_555 1_555
C28 C34 1_555 1_555
C40 C41 1_555 1_555
N10 C61 1_555 1_555
N20 C61 1_555 1_555
C61 H39 1_555 1_555
C65 N10 1_555 1_555
H42 C65 1_555 1_555
C82 N20 1_555 1_555
H57 C82 1_555 1_555
C65 C82 1_555 1_555
O3 C46 1_555 1_555
O4 C46 1_555 1_555
C46 C47 1_555 1_555
C47 C45 1_555 1_555
C48 C47 1_555 1_555
H33 C48 1_555 1_555
Mn8 O3 1_555 1_555
N9 C75 1_555 1_555
C51 C52 1_555 1_555
C52 C62 1_555 1_555
N11 C53 1_555 1_555
C53 H35 1_555 1_555
N12 Mn8 1_555 1_555
N13 C67 1_555 1_555
N14 C75 1_555 1_555
C54 C56 1_555 1_555
C55 H36 1_555 1_555
C56 C51 1_555 1_555
C57 H37 1_555 1_555
C58 C57 1_555 1_555
H38 C58 1_555 1_555
C59 N11 1_555 1_555
C60 C51 1_555 1_555
C62 H40 1_555 1_555
C63 C56 1_555 1_555
C64 C60 1_555 1_555
H41 C64 1_555 1_555
C66 C54 1_555 1_555
H43 C66 1_555 1_555
C67 C68 1_555 1_555
C68 C62 1_555 1_555
H44 C68 1_555 1_555
C69 N13 1_555 1_555
H45 C69 1_555 1_555
C70 C63 1_555 1_555
H46 C70 1_555 1_555
C71 C67 1_555 1_555
H47 C71 1_555 1_555
C72 C52 1_555 1_555
H48 C72 1_555 1_555
C73 C70 1_555 1_555
H49 C73 1_555 1_555
C74 C59 1_555 1_555
H50 C74 1_555 1_555
C75 H51 1_555 1_555
C76 N14 1_555 1_555
C77 C54 1_555 1_555
H52 C77 1_555 1_555
C78 N12 1_555 1_555
H53 C78 1_555 1_555
C79 N9 1_555 1_555
H54 C79 1_555 1_555
C80 N14 1_555 1_555
H55 C80 1_555 1_555
C81 N13 1_555 1_555
H56 C81 1_555 1_555
C83 C63 1_555 1_555
H58 C83 1_555 1_555
C84 N11 1_555 1_555
H59 C84 1_555 1_555
C85 C76 1_555 1_555
H60 C85 1_555 1_555
N22 C69 1_555 1_555
C86 C81 1_555 1_555
H61 C86 1_555 1_555
C88 C77 1_555 1_555
H62 C88 1_555 1_555
C53 N12 1_555 1_555
C55 C66 1_555 1_555
C55 C87 1_555 1_555
C57 C60 1_555 1_555
C58 C59 1_555 1_555
C64 C74 1_555 1_555
C71 C72 1_555 1_555
C73 C76 1_555 1_555
C78 C84 1_555 1_555
C79 C80 1_555 1_555
C83 C85 1_555 1_555
N22 C86 1_555 1_555
C87 C88 1_555 1_555
H31 C44 1_555 1_555
C44 C49 1_555 1_555
H31_2 C44_2 1_555 1_555
O3_2 C46_2 1_555 1_555
O4_2 C46_2 1_555 1_555
C45_2 H32_2 1_555 1_555
C46_2 C47_2 1_555 1_555
C47_2 C45_2 1_555 1_555
C48_2 C47_2 1_555 1_555
H33_2 C48_2 1_555 1_555
Mn2 O3_2 1_555 1_555
N11_2 C53_2 1_555 1_555
C53_2 H35_2 1_555 1_555
N12_2 Mn2 1_555 1_555
C55_2 H36_2 1_555 1_555
C57_2 H37_2 1_555 1_555
C58_2 C57_2 1_555 1_555
H38_2 C58_2 1_555 1_555
C59_2 N11_2 1_555 1_555
C64_2 C60_2 1_555 1_555
H41_2 C64_2 1_555 1_555
C65_2 N10_2 1_555 1_555
H42_2 C65_2 1_555 1_555
H43_2 C66_2 1_555 1_555
C74_2 C59_2 1_555 1_555
H50_2 C74_2 1_555 1_555
C78_2 N12_2 1_555 1_555
H57_2 C82_2 1_555 1_555
C84_2 N11_2 1_555 1_555
Cl2_2 Mn2 1_555 1_555
N18 Mn2 1_555 1_555
N19 Mn2 1_555 1_555
N21 Mn2 1_555 1_555
C44_2 C49_2 1_555 1_555
C45_2 C49_2 1_555 1_555
C53_2 N12_2 1_555 1_555
C55_2 C66_2 1_555 1_555
C57_2 C60_2 1_555 1_555
C58_2 C59_2 1_555 1_555
C64_2 C74_2 1_555 1_555
C65_2 C82_2 1_555 1_555
C78_2 C84_2 1_555 1_555
C69_2 N13_2 1_555 1_555
H45_2 C69_2 1_555 1_555
C81_2 N13_2 1_555 1_555
H56_2 C81_2 1_555 1_555
N16 C69_2 1_555 1_555
C86_2 C81_2 1_555 1_555
H61_2 C86_2 1_555 1_555
Mn5 N16 1_555 1_555
N16 C86_2 1_555 1_555
N18 C75_2 1_555 1_555
C51_2 C52_2 1_555 1_555
C52_2 C62_2 1_555 1_555
N14_2 C75_2 1_555 1_555
C54_2 C56_2 1_555 1_555
N15 C61_2 1_555 1_555
C56_2 C51_2 1_555 1_555
C61_2 H39_2 1_555 1_555
C62_2 H40_2 1_555 1_555
C63_2 C56_2 1_555 1_555
C67_2 C68_2 1_555 1_555
C68_2 C62_2 1_555 1_555
H44_2 C68_2 1_555 1_555
C70_2 C63_2 1_555 1_555
H46_2 C70_2 1_555 1_555
C71_2 C67_2 1_555 1_555
H47_2 C71_2 1_555 1_555
C72_2 C52_2 1_555 1_555
H48_2 C72_2 1_555 1_555
C73_2 C70_2 1_555 1_555
H49_2 C73_2 1_555 1_555
C75_2 H51_2 1_555 1_555
C76_2 N14_2 1_555 1_555
C77_2 C54_2 1_555 1_555
H52_2 C77_2 1_555 1_555
C79_2 N18 1_555 1_555
H54_2 C79_2 1_555 1_555
C80_2 N14_2 1_555 1_555
H55_2 C80_2 1_555 1_555
C83_2 C63_2 1_555 1_555
H58_2 C83_2 1_555 1_555
C85_2 C76_2 1_555 1_555
H60_2 C85_2 1_555 1_555
C88_2 C77_2 1_555 1_555
H62_2 C88_2 1_555 1_555
Mn5 N15 1_555 1_555
C71_2 C72_2 1_555 1_555
C73_2 C76_2 1_555 1_555
C79_2 C80_2 1_555 1_555
C83_2 C85_2 1_555 1_555
C87_2 C88_2 1_555 1_555
C50_2 C43_2 1_555 1_555
H34_2 C50_2 1_555 1_555
Mn5 N4_2 1_555 1_555
N17 C25_2 1_555 1_555
C1_2 C2_2 1_555 1_555
C2_2 C12_2 1_555 1_555
N3_2 C3_2 1_555 1_555
C3_2 H1_2 1_555 1_555
N4_2 C3_2 1_555 1_555
N5_2 C17_2 1_555 1_555
N6_2 C25_2 1_555 1_555
C4_2 C6_2 1_555 1_555
C5_2 H2_2 1_555 1_555
C6_2 C1_2 1_555 1_555
C7_2 H3_2 1_555 1_555
C8_2 C7_2 1_555 1_555
H4_2 C8_2 1_555 1_555
C9_2 N3_2 1_555 1_555
C10_2 C1_2 1_555 1_555
C12_2 H6_2 1_555 1_555
C13_2 C6_2 1_555 1_555
C14_2 C10_2 1_555 1_555
H7_2 C14_2 1_555 1_555
C16_2 C4_2 1_555 1_555
H9_2 C16_2 1_555 1_555
C17_2 C18_2 1_555 1_555
C18_2 C12_2 1_555 1_555
H10_2 C18_2 1_555 1_555
C19_2 N5_2 1_555 1_555
H11_2 C19_2 1_555 1_555
C20_2 C13_2 1_555 1_555
H12_2 C20_2 1_555 1_555
C21_2 C17_2 1_555 1_555
H13_2 C21_2 1_555 1_555
C22_2 C2_2 1_555 1_555
H14_2 C22_2 1_555 1_555
C23_2 C20_2 1_555 1_555
H15_2 C23_2 1_555 1_555
C24_2 C9_2 1_555 1_555
H16_2 C24_2 1_555 1_555
C25_2 H17_2 1_555 1_555
C26_2 N6_2 1_555 1_555
C27_2 C4_2 1_555 1_555
H18_2 C27_2 1_555 1_555
C28_2 N4_2 1_555 1_555
H19 C28_2 1_555 1_555
C29_2 N17 1_555 1_555
H20_2 C29_2 1_555 1_555
C30_2 N6_2 1_555 1_555
H21_2 C30_2 1_555 1_555
C31_2 N5_2 1_555 1_555
H22_2 C31_2 1_555 1_555
C33_2 C13_2 1_555 1_555
H24_2 C33_2 1_555 1_555
C34_2 N3_2 1_555 1_555
H25 C34_2 1_555 1_555
C35_2 C26_2 1_555 1_555
H26_2 C35_2 1_555 1_555
N21 C19_2 1_555 1_555
C36_2 C31_2 1_555 1_555
H27_2 C36_2 1_555 1_555
C38_2 C27_2 1_555 1_555
H28_2 C38_2 1_555 1_555
O1_2 Mn5 1_555 1_555
O2_2 C40_2 1_555 1_555
C40_2 O1_2 1_555 1_555
C41_2 C39_2 1_555 1_555
C42_2 C41_2 1_555 1_555
H30_2 C42_2 1_555 1_555
C5_2 C16_2 1_555 1_555
C5_2 C37_2 1_555 1_555
C7_2 C10_2 1_555 1_555
C8_2 C9_2 1_555 1_555
C14_2 C24_2 1_555 1_555
C21_2 C22_2 1_555 1_555
C23_2 C26_2 1_555 1_555
C28_2 C34_2 1_555 1_555
C29_2 C30_2 1_555 1_555
C33_2 C35_2 1_555 1_555
N21 C36_2 1_555 1_555
C37_2 C38_2 1_555 1_555
C40_2 C41_2 1_555 1_555
N2_2 C11_2 1_555 1_555
N19 C11_2 1_555 1_555
C11_2 H5_2 1_555 1_555
C15_2 N2_2 1_555 1_555
H8_2 C15_2 1_555 1_555
C32_2 N19 1_555 1_555
H23_2 C32_2 1_555 1_555
C15_2 C32_2 1_555 1_555

#END
