
###############################################################################
#
# This file contains modified crystal structure data generated from the
# MOF subset of the Cambridge Structural Database (CSD) v543 
# hosted by the Cambridge Crystallographic Data Centre (CCDC).
#
# This work is licensed under the Creative Commons
# Attribution-NonCommercial-ShareAlike 4.0 International License.
# To view a copy of this license, visit
# http://creativecommons.org/licenses/by-nc-sa/4.0/
# or send a letter to
# Creative Commons, PO Box 1866, Mountain View, CA 94042, USA.
#
# CIF created using the CSD Python API on 29 September 2022
# The structure has been converted into the P1 space group
# The structure has a 3D framework
# The original CSD entry EDIKEH is in the triclinic crystal system
# The framework has been calculated to contain at least 10.0% void space
# The void calculation uses a probe of radius 1.32A, grid spacing 0.4
# The framework is charged, counterions have been retained in the structure
#
###############################################################################

data_EDIKEH
_chemical_formula_moiety         '(C8 H4 O18 Y2 3-)n'
_symmetry_cell_setting           triclinic
_symmetry_space_group_name_H-M   'P 1'
_symmetry_Int_Tables_number      1
_space_group_name_Hall           'P 1'
loop_
_symmetry_equiv_pos_site_id
_symmetry_equiv_pos_as_xyz
1 x,y,z
_cell_length_a                   8.2293(2)
_cell_length_b                   9.7386(3)
_cell_length_c                   9.7543(2)
_cell_angle_alpha                60.7410(10)
_cell_angle_beta                 72.3570(10)
_cell_angle_gamma                84.666(2)
_cell_volume                     648.483
loop_
_atom_site_label
_atom_site_type_symbol
_atom_site_fract_x
_atom_site_fract_y
_atom_site_fract_z
C7 C 0.0071(8) 0.0565(8) 0.5326(8)
O14 O 0.1183(6) 0.1716(5) 0.4386(5)
Y3 Y 0.3296(1) 0.1587(1) 0.2132(1)
O6 O 0.0869(6) 0.9720(5) 0.3289(5)
O4 O 0.5602(6) 0.0082(6) 0.1532(6)
O10 O 0.3098(6) 0.0932(6) 0.0119(6)
O18 O 0.1126(8) 0.3052(7) 0.0829(9)
H3 H 0.079(17) 0.281(15) 0.017(16)
H4 H 0.0589(94) 0.3251(84) 0.1282(83)
O21 O 0.5368(6) 0.1880(5) 0.3268(6)
O23 O 0.3298(6) 0.4223(5) 0.1811(5)
C5 C 0.4271(9) 0.0240(7) 0.9608(8)
O15 O 0.9131(6) 0.0280(5) 0.6711(5)
C8 C 0.5570(8) 0.0765(8) 0.4589(8)
O17 O 0.6596(6) 0.0783(6) 0.5298(6)
O19 O 0.5300(7) 0.3395(5) 0.9631(6)
O2 O 0.4700(7) 0.6605(5) 0.0369(6)
C2 C 0.5729(9) 0.9760(7) 0.0392(8)
C4 C 0.4419(9) 0.5240(8) 0.0635(8)
O24 O 0.3404(6) 0.9217(6) 0.4702(6)
Y1 Y 0.6704(1) 0.8413(1) 0.7868(1)
O1 O 0.6902(6) 0.9068(6) 0.9881(6)
O3 O 0.8817(6) 0.8284(5) 0.5614(5)
O5 O 0.4632(6) 0.8120(5) 0.6732(6)
O8 O 0.8874(8) 0.6948(7) 0.9171(9)
C1 C 0.4430(8) 0.9235(8) 0.5411(8)
C3 C 0.9929(8) 0.9435(8) 0.4674(8)
H1 H 0.921(17) 0.719(15) 0.983(16)
H2 H 0.9411(94) 0.6749(84) 0.8718(83)
O11 O 0.4398(6) 0.9918(6) 0.8468(6)
C6 C 0.5581(9) 0.4760(8) 0.9365(8)
O13 O 0.6702(6) 0.5777(5) 0.8189(5)
loop_
_geom_bond_atom_site_label_1
_geom_bond_atom_site_label_2
_geom_bond_site_symmetry_1
_geom_bond_site_symmetry_2
O14 C7 1_555 1_555
O14 Y3 1_555 1_555
O10 Y3 1_555 1_555
Y3 O4 1_555 1_555
O18 Y3 1_555 1_555
H3 O18 1_555 1_555
H4 O18 1_555 1_555
O21 Y3 1_555 1_555
O23 Y3 1_555 1_555
O21 C8 1_555 1_555
C8 O17 1_555 1_555
O23 C4 1_555 1_555
C4 O2 1_555 1_555
Y1 O1 1_555 1_555
O3 Y1 1_555 1_555
O5 Y1 1_555 1_555
O8 Y1 1_555 1_555
O24 C1 1_555 1_555
C1 O5 1_555 1_555
C3 O3 1_555 1_555
H1 O8 1_555 1_555
H2 O8 1_555 1_555
O11 Y1 1_555 1_555
O19 C6 1_555 1_555
O13 Y1 1_555 1_555
C6 O13 1_555 1_555

#END
