
###############################################################################
#
# This file contains modified crystal structure data generated from the
# MOF subset of the Cambridge Structural Database (CSD) v543 
# hosted by the Cambridge Crystallographic Data Centre (CCDC).
#
# This work is licensed under the Creative Commons
# Attribution-NonCommercial-ShareAlike 4.0 International License.
# To view a copy of this license, visit
# http://creativecommons.org/licenses/by-nc-sa/4.0/
# or send a letter to
# Creative Commons, PO Box 1866, Mountain View, CA 94042, USA.
#
# CIF created using the CSD Python API on 29 September 2022
# The structure has been converted into the P1 space group
# The structure has a 3D framework
# The original CSD entry EDOBAE is in the tetragonal crystal system
# The framework has been calculated to contain at least 10.0% void space
# The void calculation uses a probe of radius 1.32A, grid spacing 0.4
# The framework is charged, counterions have been retained in the structure
#
###############################################################################

data_EDOBAE
_chemical_formula_moiety         '(C208 H128 Cl16 Gd10 N48 O32 6-)n'
_symmetry_cell_setting           triclinic
_symmetry_space_group_name_H-M   'P 1'
_symmetry_Int_Tables_number      1
_space_group_name_Hall           'P 1'
loop_
_symmetry_equiv_pos_site_id
_symmetry_equiv_pos_as_xyz
1 x,y,z
_cell_length_a                   16.35577(15)
_cell_length_b                   16.35577(15)
_cell_length_c                   22.4533(3)
_cell_angle_alpha                90
_cell_angle_beta                 90
_cell_angle_gamma                90
_cell_volume                     6006.51
loop_
_atom_site_label
_atom_site_type_symbol
_atom_site_fract_x
_atom_site_fract_y
_atom_site_fract_z
H7 H 0.2922 0.0147 0.9877
C18 C 0.5237(5) 0.0134(4) 0.8712(3)
H12 H 0.5519 0.0380 0.7847
C21 C 0.4905(5) 0.0968(4) 0.8845(3)
O3 O 0.4793(3) 0.1433(3) 0.8417(2)
O4 O 0.4767(3) 0.1149(3) 0.9386(2)
Gd3 Gd 0.5000 0.2500 0.77705(2)
Gd5 Gd 0.5000 0.2500 0.97295(2)
Gd1 Gd 0.5000 0.7500 0.02705(2)
H6 H 0.3699 0.9234 0.0391
H14 H 0.6301 0.5766 0.0391
O5 O 0.3933(3) 0.7707(3) 0.0917(2)
O6 O 0.6067(3) 0.7293(3) 0.0917(2)
O7 O 0.4767(3) 0.6149(3) 0.0614(2)
O8 O 0.5233(3) 0.8851(3) 0.0614(2)
N1 N 0.4269(4) 0.6907(4) 0.9365(3)
C1 C 0.4385(5) 0.6212(4) 0.9013(3)
N2 N 0.3710(5) 0.7108(4) 0.8468(3)
H1 H 0.3460 0.7349 0.8180
C2 C 0.3856(5) 0.7420(5) 0.9012(3)
C3 C 0.4031(5) 0.6334(5) 0.8458(4)
C4 C 0.4063(7) 0.5742(5) 0.8001(4)
H2 H 0.3840 0.5838 0.7627
C5 C 0.4763(5) 0.4866(4) 0.8712(3)
C6 C 0.4736(5) 0.5462(4) 0.9153(3)
H3 H 0.4946 0.5361 0.9531
C7 C 0.4438(6) 0.5022(5) 0.8139(3)
H4 H 0.4481 0.4620 0.7847
C8 C 0.5095(5) 0.4032(4) 0.8845(3)
O1 O 0.5207(3) 0.3567(3) 0.8417(2)
O2 O 0.5233(3) 0.3851(3) 0.9386(2)
N3 N 0.3846(4) 0.8420(4) 0.9763(3)
C9 C 0.3579(6) 0.8227(5) 0.9217(4)
C10 C 0.3097(9) 0.8734(8) 0.8883(6)
H5 H 0.2896 0.8560 0.8517
C11 C 0.3568(6) 0.9118(5) 0.9997(4)
C12 C 0.3105(8) 0.9672(8) 0.9692(5)
C13 C 0.2909(9) 0.9512(9) 0.9092(7)
H8 H 0.2667 0.9904 0.8849
N4 N 0.5731(4) 0.8093(4) 0.9365(3)
C14 C 0.5615(5) 0.8788(4) 0.9013(3)
N5 N 0.6290(5) 0.7892(4) 0.8468(3)
H9 H 0.6540 0.7651 0.8180
C15 C 0.6144(5) 0.7580(5) 0.9012(3)
C16 C 0.5969(5) 0.8666(5) 0.8458(4)
C17 C 0.5937(7) 0.9258(5) 0.8001(4)
H10 H 0.6160 0.9162 0.7627
C19 C 0.5264(5) 0.9538(4) 0.9153(3)
H11 H 0.5054 0.9639 0.9531
C20 C 0.5562(6) 0.9978(5) 0.8139(3)
N6 N 0.6154(4) 0.6580(4) 0.9763(3)
C22 C 0.6421(6) 0.6773(5) 0.9217(4)
C23 C 0.6903(9) 0.6266(8) 0.8883(6)
H13 H 0.7104 0.6440 0.8517
C24 C 0.6432(6) 0.5882(5) 0.9997(4)
C25 C 0.6895(8) 0.5328(8) 0.9692(5)
H15 H 0.7078 0.4853 0.9877
C26 C 0.7091(9) 0.5488(9) 0.9092(7)
H16 H 0.7333 0.5096 0.8849
Gd1_2 Gd 0.0000 0.7500 0.27705(2)
N1_2 N 0.0593(4) 0.6769(4) 0.1865(3)
C1_2 C 0.1288(4) 0.6885(5) 0.1513(3)
N2_2 N 0.0392(4) 0.6210(5) 0.0968(3)
H1_2 H 0.0151 0.5960 0.0680
C2_2 C 0.0080(5) 0.6356(5) 0.1512(3)
C3_2 C 0.1166(5) 0.6531(5) 0.0958(4)
C4_2 C 0.1758(5) 0.6563(7) 0.0501(4)
H2_2 H 0.1662 0.6340 0.0127
C5_2 C 0.2634(4) 0.7263(5) 0.1212(3)
C6_2 C 0.2038(4) 0.7236(5) 0.1653(3)
H3_2 H 0.2139 0.7446 0.2031
C7_2 C 0.2478(5) 0.6938(6) 0.0639(3)
H4_2 H 0.2880 0.6981 0.0347
C8_2 C 0.3468(4) 0.7595(5) 0.1345(3)
O2_2 O 0.3649(3) 0.7733(3) 0.1886(2)
N6_2 N 0.0920(4) 0.8654(4) 0.2263(3)
C22_2 C 0.0727(5) 0.8921(6) 0.1717(4)
C23_2 C 0.1234(8) 0.9403(9) 0.1383(6)
H13_2 H 0.1060 0.9604 0.1017
C24_2 C 0.1618(5) 0.8932(6) 0.2497(4)
H14_2 H 0.1734 0.8801 0.2891
C25_2 C 0.2172(8) 0.9395(8) 0.2192(5)
H15_2 H 0.2647 0.9578 0.2377
C26_2 C 0.2012(9) 0.9591(9) 0.1592(7)
H16_2 H 0.2404 0.9833 0.1349
Gd4 Gd 0.5000 0.7500 0.22295(2)
O6_2 O 0.0207(3) 0.8567(3) 0.3417(2)
O7_2 O 0.1351(3) 0.7267(3) 0.3114(2)
Gd1_3 Gd 1.0000 0.7500 0.27705(2)
N3_2 N 0.9080(4) 0.6346(4) 0.2263(3)
C9_2 C 0.9273(5) 0.6079(6) 0.1717(4)
C10_2 C 0.8766(8) 0.5597(9) 0.1383(6)
H5_2 H 0.8940 0.5396 0.1017
C11_2 C 0.8382(5) 0.6068(6) 0.2497(4)
H6_2 H 0.8266 0.6199 0.2891
C12_2 C 0.7828(8) 0.5605(8) 0.2192(5)
H7_2 H 0.7353 0.5422 0.2377
C13_2 C 0.7988(9) 0.5409(9) 0.1592(7)
H8_2 H 0.7596 0.5167 0.1349
N4_2 N 0.9407(4) 0.8231(4) 0.1865(3)
C14_2 C 0.8712(4) 0.8115(5) 0.1513(3)
N5_2 N 0.9608(4) 0.8790(5) 0.0968(3)
H9_2 H 0.9849 0.9040 0.0680
C15_2 C 0.9920(5) 0.8644(5) 0.1512(3)
C16_2 C 0.8834(5) 0.8469(5) 0.0958(4)
C17_2 C 0.8242(5) 0.8437(7) 0.0501(4)
H10_2 H 0.8338 0.8660 0.0127
C18_2 C 0.7366(4) 0.7737(5) 0.1212(3)
C19_2 C 0.7962(4) 0.7764(5) 0.1653(3)
H11_2 H 0.7861 0.7554 0.2031
C20_2 C 0.7522(5) 0.8062(6) 0.0639(3)
H12_2 H 0.7120 0.8019 0.0347
C21_2 C 0.6532(4) 0.7405(5) 0.1345(3)
O4_2 O 0.6351(3) 0.7267(3) 0.1886(2)
O5_2 O 0.9793(3) 0.6433(3) 0.3417(2)
O8_2 O 0.8649(3) 0.7733(3) 0.3114(2)
Gd1_4 Gd -0.0000 0.2500 0.52705(2)
N4_3 N 0.0731(4) 0.3093(4) 0.4365(3)
C14_3 C 0.0615(5) 0.3788(4) 0.4013(3)
N5_3 N 0.1290(5) 0.2892(4) 0.3468(3)
H9_3 H 0.1540 0.2651 0.3180
C15_3 C 0.1144(5) 0.2580(5) 0.4012(3)
C16_3 C 0.0969(5) 0.3666(5) 0.3458(4)
C17_3 C 0.0937(7) 0.4258(5) 0.3001(4)
H10_3 H 0.1160 0.4162 0.2627
C18_3 C 0.0237(5) 0.5134(4) 0.3712(3)
C19_3 C 0.0264(5) 0.4538(4) 0.4153(3)
H11_3 H 0.0054 0.4639 0.4531
C20_3 C 0.0562(6) 0.4978(5) 0.3139(3)
H12_3 H 0.0519 0.5380 0.2847
N6_3 N 0.1154(4) 0.1580(4) 0.4763(3)
C22_3 C 0.1421(6) 0.1773(5) 0.4217(4)
C23_3 C 0.1903(9) 0.1266(8) 0.3883(6)
H13_3 H 0.2104 0.1440 0.3517
C24_3 C 0.1432(6) 0.0882(5) 0.4997(4)
H14_3 H 0.1301 0.0766 0.5391
C25_3 C 0.1895(8) 0.0328(8) 0.4692(5)
C26_3 C 0.2091(9) 0.0488(9) 0.4092(7)
H16_3 H 0.2333 0.0096 0.3849
Gd5_2 Gd 0.0000 0.7500 0.47295(2)
O6_3 O 0.1067(3) 0.2293(3) 0.5917(2)
O8_3 O 0.0233(3) 0.3851(3) 0.5614(2)
C8_3 C 0.0095(5) 0.9032(4) 0.3845(3)
O2_3 O 0.0233(3) 0.8851(3) 0.4386(2)
H15_3 H 0.2078 0.9853 0.4877
Gd1_5 Gd 1.0000 0.2500 0.52705(2)
N1_3 N 0.9269(4) 0.1907(4) 0.4365(3)
C1_3 C 0.9385(5) 0.1212(4) 0.4013(3)
N2_3 N 0.8710(5) 0.2108(4) 0.3468(3)
H1_3 H 0.8460 0.2349 0.3180
C2_3 C 0.8856(5) 0.2420(5) 0.4012(3)
C3_3 C 0.9031(5) 0.1334(5) 0.3458(4)
C4_3 C 0.9063(7) 0.0742(5) 0.3001(4)
H2_3 H 0.8840 0.0838 0.2627
C6_3 C 0.9736(5) 0.0462(4) 0.4153(3)
H3_3 H 0.9946 0.0361 0.4531
C7_3 C 0.9438(6) 0.0022(5) 0.3139(3)
N3_3 N 0.8846(4) 0.3420(4) 0.4763(3)
C9_3 C 0.8579(6) 0.3227(5) 0.4217(4)
C10_3 C 0.8097(9) 0.3734(8) 0.3883(6)
H5_3 H 0.7896 0.3560 0.3517
C11_3 C 0.8568(6) 0.4118(5) 0.4997(4)
H6_3 H 0.8699 0.4234 0.5391
C12_3 C 0.8105(8) 0.4672(8) 0.4692(5)
H7_3 H 0.7922 0.5147 0.4877
C13_3 C 0.7909(9) 0.4512(9) 0.4092(7)
H8_3 H 0.7667 0.4904 0.3849
C21_3 C 0.9905(5) 0.5968(4) 0.3845(3)
O4_3 O 0.9767(3) 0.6149(3) 0.4386(2)
Gd5_3 Gd 1.0000 0.7500 0.47295(2)
O5_3 O 0.8933(3) 0.2707(3) 0.5917(2)
O7_3 O 0.9767(3) 0.1149(3) 0.5614(2)
C5_3 C 0.9763(5) 0.9866(4) 0.3712(3)
H4_3 H 0.9481 0.9620 0.2847
Gd4_2 Gd 0.0000 0.2500 0.72295(2)
N1_4 N 0.5593(4) 0.1769(4) 0.6865(3)
C1_4 C 0.6288(4) 0.1885(5) 0.6513(3)
N2_4 N 0.5392(4) 0.1210(5) 0.5968(3)
H1_4 H 0.5151 0.0960 0.5680
C2_4 C 0.5080(5) 0.1356(5) 0.6512(3)
C3_4 C 0.6166(5) 0.1531(5) 0.5958(4)
C4_4 C 0.6758(5) 0.1563(7) 0.5501(4)
H2_4 H 0.6662 0.1340 0.5127
C5_4 C 0.7634(4) 0.2263(5) 0.6212(3)
C6_4 C 0.7038(4) 0.2236(5) 0.6653(3)
H3_4 H 0.7139 0.2446 0.7031
C7_4 C 0.7478(5) 0.1938(6) 0.5639(3)
H4_4 H 0.7880 0.1981 0.5347
C8_4 C 0.8468(4) 0.2595(5) 0.6345(3)
O2_4 O 0.8649(3) 0.2733(3) 0.6886(2)
N3_4 N 0.4080(4) 0.1346(4) 0.7263(3)
C9_4 C 0.4273(5) 0.1079(6) 0.6717(4)
C10_4 C 0.3766(8) 0.0597(9) 0.6383(6)
H5_4 H 0.3940 0.0396 0.6017
C11_4 C 0.3382(5) 0.1068(6) 0.7497(4)
H6_4 H 0.3266 0.1199 0.7891
C12_4 C 0.2828(8) 0.0605(8) 0.7192(5)
H7_4 H 0.2353 0.0422 0.7377
C13_4 C 0.2988(9) 0.0409(9) 0.6592(7)
H8_4 H 0.2596 0.0167 0.6349
N4_4 N 0.4407(4) 0.3231(4) 0.6865(3)
C14_4 C 0.3712(4) 0.3115(5) 0.6513(3)
N5_4 N 0.4608(4) 0.3790(5) 0.5968(3)
H9_4 H 0.4849 0.4040 0.5680
C15_4 C 0.4920(5) 0.3644(5) 0.6512(3)
C16_4 C 0.3834(5) 0.3469(5) 0.5958(4)
C17_4 C 0.3242(5) 0.3437(7) 0.5501(4)
H10_4 H 0.3338 0.3660 0.5127
C18_4 C 0.2366(4) 0.2737(5) 0.6212(3)
C19_4 C 0.2962(4) 0.2764(5) 0.6653(3)
H11_4 H 0.2861 0.2554 0.7031
C20_4 C 0.2522(5) 0.3062(6) 0.5639(3)
H12_4 H 0.2120 0.3019 0.5347
C21_4 C 0.1532(4) 0.2405(5) 0.6345(3)
O4_4 O 0.1351(3) 0.2267(3) 0.6886(2)
N6_4 N 0.5920(4) 0.3654(4) 0.7263(3)
C22_4 C 0.5727(5) 0.3921(6) 0.6717(4)
C23_4 C 0.6234(8) 0.4403(9) 0.6383(6)
H13_4 H 0.6060 0.4604 0.6017
C24_4 C 0.6618(5) 0.3932(6) 0.7497(4)
H14_4 H 0.6734 0.3801 0.7891
C25_4 C 0.7172(8) 0.4395(8) 0.7192(5)
H15_4 H 0.7647 0.4578 0.7377
C26_4 C 0.7012(9) 0.4591(9) 0.6592(7)
H16_4 H 0.7404 0.4833 0.6349
Gd4_3 Gd 1.0000 0.2500 0.72295(2)
O7_4 O 0.6351(3) 0.2267(3) 0.8114(2)
O8_4 O 0.3649(3) 0.2733(3) 0.8114(2)
N1_5 N 0.5731(4) 0.3093(4) 0.0635(3)
C1_5 C 0.5615(5) 0.3788(4) 0.0987(3)
N2_5 N 0.6290(5) 0.2892(4) 0.1532(3)
H1_5 H 0.6540 0.2651 0.1820
C2_5 C 0.6144(5) 0.2580(5) 0.0988(3)
C3_5 C 0.5969(5) 0.3666(5) 0.1542(4)
C4_5 C 0.5937(7) 0.4258(5) 0.1999(4)
H2_5 H 0.6160 0.4162 0.2373
C5_5 C 0.5237(5) 0.5134(4) 0.1288(3)
C6_5 C 0.5264(5) 0.4538(4) 0.0847(3)
H3_5 H 0.5054 0.4639 0.0469
C7_5 C 0.5562(6) 0.4978(5) 0.1861(3)
H4_5 H 0.5519 0.5380 0.2153
C8_5 C 0.4905(5) 0.5968(4) 0.1155(3)
O1_2 O 0.4793(3) 0.6433(3) 0.1583(2)
N3_5 N 0.6154(4) 0.1580(4) 0.0237(3)
C9_5 C 0.6421(6) 0.1773(5) 0.0783(4)
C10_5 C 0.6903(9) 0.1266(8) 0.1117(6)
H5_5 H 0.7104 0.1440 0.1483
C11_5 C 0.6432(6) 0.0882(5) 0.0003(4)
C12_5 C 0.6895(8) 0.0328(8) 0.0308(5)
C13_5 C 0.7091(9) 0.0488(9) 0.0908(7)
H8_5 H 0.7333 0.0096 0.1151
N4_5 N 0.4269(4) 0.1907(4) 0.0635(3)
C14_5 C 0.4385(5) 0.1212(4) 0.0987(3)
N5_5 N 0.3710(5) 0.2108(4) 0.1532(3)
H9_5 H 0.3460 0.2349 0.1820
C15_5 C 0.3856(5) 0.2420(5) 0.0988(3)
C16_5 C 0.4031(5) 0.1334(5) 0.1542(4)
C17_5 C 0.4063(7) 0.0742(5) 0.1999(4)
H10_5 H 0.3840 0.0838 0.2373
C19_5 C 0.4736(5) 0.0462(4) 0.0847(3)
H11_5 H 0.4946 0.0361 0.0469
C20_5 C 0.4438(6) 0.0022(5) 0.1861(3)
N6_5 N 0.3846(4) 0.3420(4) 0.0237(3)
C22_5 C 0.3579(6) 0.3227(5) 0.0783(4)
C23_5 C 0.3097(9) 0.3734(8) 0.1117(6)
H13_5 H 0.2896 0.3560 0.1483
C24_5 C 0.3568(6) 0.4118(5) 0.0003(4)
C25_5 C 0.3105(8) 0.4672(8) 0.0308(5)
H15_5 H 0.2922 0.5147 0.0123
C26_5 C 0.2909(9) 0.4512(9) 0.0908(7)
H16_5 H 0.2667 0.4904 0.1151
H6_5 H 0.6301 0.0766 0.9609
H14_5 H 0.3699 0.4234 0.9609
O5_4 O 0.6067(3) 0.2293(3) 0.9083(2)
O6_4 O 0.3933(3) 0.2707(3) 0.9083(2)
H7_5 H 0.7078 0.9853 0.0123
C18_5 C 0.4763(5) 0.9866(4) 0.1288(3)
H12_5 H 0.4481 0.9620 0.2153
C21_5 C 0.5095(5) 0.9032(4) 0.1155(3)
O3_2 O 0.5207(3) 0.8567(3) 0.1583(2)
N3_6 N 0.0920(4) 0.3654(4) 0.7737(3)
C9_6 C 0.0727(5) 0.3921(6) 0.8283(4)
C10_6 C 0.1234(8) 0.4403(9) 0.8617(6)
H5_6 H 0.1060 0.4604 0.8983
C11_6 C 0.1618(5) 0.3932(6) 0.7503(4)
H6_6 H 0.1734 0.3801 0.7109
C12_6 C 0.2172(8) 0.4395(8) 0.7808(5)
H7_6 H 0.2647 0.4578 0.7623
C13_6 C 0.2012(9) 0.4591(9) 0.8408(7)
H8_6 H 0.2404 0.4833 0.8651
N4_6 N 0.0593(4) 0.1769(4) 0.8135(3)
C14_6 C 0.1288(4) 0.1885(5) 0.8487(3)
N5_6 N 0.0392(4) 0.1210(5) 0.9032(3)
H9_6 H 0.0151 0.0960 0.9320
C15_6 C 0.0080(5) 0.1356(5) 0.8488(3)
C16_6 C 0.1166(5) 0.1531(5) 0.9042(4)
C17_6 C 0.1758(5) 0.1563(7) 0.9499(4)
H10_6 H 0.1662 0.1340 0.9873
C18_6 C 0.2634(4) 0.2263(5) 0.8788(3)
C19_6 C 0.2038(4) 0.2236(5) 0.8347(3)
H11_6 H 0.2139 0.2446 0.7969
C20_6 C 0.2478(5) 0.1938(6) 0.9361(3)
H12_6 H 0.2880 0.1981 0.9653
C21_6 C 0.3468(4) 0.2595(5) 0.8655(3)
O5_5 O 0.0207(3) 0.3567(3) 0.6583(2)
N1_6 N 0.9407(4) 0.3231(4) 0.8135(3)
C1_6 C 0.8712(4) 0.3115(5) 0.8487(3)
N2_6 N 0.9608(4) 0.3790(5) 0.9032(3)
H1_6 H 0.9849 0.4040 0.9320
C2_6 C 0.9920(5) 0.3644(5) 0.8488(3)
C3_6 C 0.8834(5) 0.3469(5) 0.9042(4)
C4_6 C 0.8242(5) 0.3437(7) 0.9499(4)
H2_6 H 0.8338 0.3660 0.9873
C5_6 C 0.7366(4) 0.2737(5) 0.8788(3)
C6_6 C 0.7962(4) 0.2764(5) 0.8347(3)
H3_6 H 0.7861 0.2554 0.7969
C7_6 C 0.7522(5) 0.3062(6) 0.9361(3)
H4_6 H 0.7120 0.3019 0.9653
C8_6 C 0.6532(4) 0.2405(5) 0.8655(3)
N6_6 N 0.9080(4) 0.1346(4) 0.7737(3)
C22_6 C 0.9273(5) 0.1079(6) 0.8283(4)
C23_6 C 0.8766(8) 0.0597(9) 0.8617(6)
H13_6 H 0.8940 0.0396 0.8983
C24_6 C 0.8382(5) 0.1068(6) 0.7503(4)
H14_6 H 0.8266 0.1199 0.7109
C25_6 C 0.7828(8) 0.0605(8) 0.7808(5)
H15_6 H 0.7353 0.0422 0.7623
C26_6 C 0.7988(9) 0.0409(9) 0.8408(7)
H16_6 H 0.7596 0.0167 0.8651
O6_5 O 0.9793(3) 0.1433(3) 0.6583(2)
C5_7 C 0.0237(5) 0.0134(4) 0.6288(3)
H4_7 H 0.0519 0.0380 0.7153
N1_7 N 0.0731(4) 0.8093(4) 0.5635(3)
C1_7 C 0.0615(5) 0.8788(4) 0.5987(3)
N2_7 N 0.1290(5) 0.7892(4) 0.6532(3)
H1_7 H 0.1540 0.7651 0.6820
C2_7 C 0.1144(5) 0.7580(5) 0.5988(3)
C3_7 C 0.0969(5) 0.8666(5) 0.6542(4)
C4_7 C 0.0937(7) 0.9258(5) 0.6999(4)
H2_7 H 0.1160 0.9162 0.7373
C6_7 C 0.0264(5) 0.9538(4) 0.5847(3)
H3_7 H 0.0054 0.9639 0.5469
C7_7 C 0.0562(6) 0.9978(5) 0.6861(3)
N3_7 N 0.1154(4) 0.6580(4) 0.5237(3)
C9_7 C 0.1421(6) 0.6773(5) 0.5783(4)
C10_7 C 0.1903(9) 0.6266(8) 0.6117(6)
H5_7 H 0.2104 0.6440 0.6483
C11_7 C 0.1432(6) 0.5882(5) 0.5003(4)
H6_7 H 0.1301 0.5766 0.4609
C12_7 C 0.1895(8) 0.5328(8) 0.5308(5)
H7_7 H 0.2078 0.4853 0.5123
C13_7 C 0.2091(9) 0.5488(9) 0.5908(7)
H8_7 H 0.2333 0.5096 0.6151
C21_7 C 0.0095(5) 0.4032(4) 0.6155(3)
O5_6 O 0.1067(3) 0.7293(3) 0.4083(2)
C8_7 C 0.9905(5) 0.0968(4) 0.6155(3)
H15_7 H 0.7922 0.0147 0.5123
N4_7 N 0.9269(4) 0.6907(4) 0.5635(3)
C14_7 C 0.9385(5) 0.6212(4) 0.5987(3)
N5_7 N 0.8710(5) 0.7108(4) 0.6532(3)
H9_7 H 0.8460 0.7349 0.6820
C15_7 C 0.8856(5) 0.7420(5) 0.5988(3)
C16_7 C 0.9031(5) 0.6334(5) 0.6542(4)
C17_7 C 0.9063(7) 0.5742(5) 0.6999(4)
H10_7 H 0.8840 0.5838 0.7373
C18_7 C 0.9763(5) 0.4866(4) 0.6288(3)
C19_7 C 0.9736(5) 0.5462(4) 0.5847(3)
H11_7 H 0.9946 0.5361 0.5469
C20_7 C 0.9438(6) 0.5022(5) 0.6861(3)
H12_7 H 0.9481 0.4620 0.7153
N6_7 N 0.8846(4) 0.8420(4) 0.5237(3)
C22_7 C 0.8579(6) 0.8227(5) 0.5783(4)
C23_7 C 0.8097(9) 0.8734(8) 0.6117(6)
H13_7 H 0.7896 0.8560 0.6483
C24_7 C 0.8568(6) 0.9118(5) 0.5003(4)
H14_7 H 0.8699 0.9234 0.4609
C25_7 C 0.8105(8) 0.9672(8) 0.5308(5)
C26_7 C 0.7909(9) 0.9512(9) 0.5908(7)
H16_7 H 0.7667 0.9904 0.6151
O6_6 O 0.8933(3) 0.7707(3) 0.4083(2)
N1_8 N 0.4407(4) 0.8231(4) 0.3135(3)
C1_8 C 0.3712(4) 0.8115(5) 0.3487(3)
N2_8 N 0.4608(4) 0.8790(5) 0.4032(3)
H1_8 H 0.4849 0.9040 0.4320
C2_8 C 0.4920(5) 0.8644(5) 0.3488(3)
C3_8 C 0.3834(5) 0.8469(5) 0.4042(4)
C4_8 C 0.3242(5) 0.8437(7) 0.4499(4)
H2_8 H 0.3338 0.8660 0.4873
C5_8 C 0.2366(4) 0.7737(5) 0.3788(3)
C6_8 C 0.2962(4) 0.7764(5) 0.3347(3)
H3_8 H 0.2861 0.7554 0.2969
C7_8 C 0.2522(5) 0.8062(6) 0.4361(3)
H4_8 H 0.2120 0.8019 0.4653
C8_8 C 0.1532(4) 0.7405(5) 0.3655(3)
N3_8 N 0.5920(4) 0.8654(4) 0.2737(3)
C9_8 C 0.5727(5) 0.8921(6) 0.3283(4)
C10_8 C 0.6234(8) 0.9403(9) 0.3617(6)
H5_8 H 0.6060 0.9604 0.3983
C11_8 C 0.6618(5) 0.8932(6) 0.2503(4)
H6_8 H 0.6734 0.8801 0.2109
C12_8 C 0.7172(8) 0.9395(8) 0.2808(5)
H7_8 H 0.7647 0.9578 0.2623
C13_8 C 0.7012(9) 0.9591(9) 0.3408(7)
H8_8 H 0.7404 0.9833 0.3651
N4_8 N 0.5593(4) 0.6769(4) 0.3135(3)
C14_8 C 0.6288(4) 0.6885(5) 0.3487(3)
N5_8 N 0.5392(4) 0.6210(5) 0.4032(3)
H9_8 H 0.5151 0.5960 0.4320
C15_8 C 0.5080(5) 0.6356(5) 0.3488(3)
C16_8 C 0.6166(5) 0.6531(5) 0.4042(4)
C17_8 C 0.6758(5) 0.6563(7) 0.4499(4)
H10_8 H 0.6662 0.6340 0.4873
C18_8 C 0.7634(4) 0.7263(5) 0.3788(3)
C19_8 C 0.7038(4) 0.7236(5) 0.3347(3)
H11_8 H 0.7139 0.7446 0.2969
C20_8 C 0.7478(5) 0.6938(6) 0.4361(3)
H12_8 H 0.7880 0.6981 0.4653
C21_8 C 0.8468(4) 0.7595(5) 0.3655(3)
N6_8 N 0.4080(4) 0.6346(4) 0.2737(3)
C22_8 C 0.4273(5) 0.6079(6) 0.3283(4)
C23_8 C 0.3766(8) 0.5597(9) 0.3617(6)
H13_8 H 0.3940 0.5396 0.3983
C24_8 C 0.3382(5) 0.6068(6) 0.2503(4)
H14_8 H 0.3266 0.6199 0.2109
C25_8 C 0.2828(8) 0.5605(8) 0.2808(5)
H15_8 H 0.2353 0.5422 0.2623
C26_8 C 0.2988(9) 0.5409(9) 0.3408(7)
H16_8 H 0.2596 0.5167 0.3651
Cl1 Cl 0.2267(5) 0.7285(6) 0.7609(3)
Cl1_2 Cl 0.0215(6) 0.4767(5) 0.0109(3)
Cl1_3 Cl 0.7733(5) 0.7715(6) 0.7609(3)
Cl1_4 Cl 0.9785(6) 0.0233(5) 0.0109(3)
Cl1_5 Cl 0.7267(5) 0.2285(6) 0.2609(3)
Cl1_6 Cl 0.5215(6) 0.9767(5) 0.5109(3)
Cl1_7 Cl 0.2733(5) 0.2715(6) 0.2609(3)
Cl1_8 Cl 0.4785(6) 0.5233(5) 0.5109(3)
Cl1_9 Cl 0.7733(5) 0.2715(6) 0.2391(3)
Cl1_10 Cl 0.9785(6) 0.5233(5) 0.9891(3)
Cl1_11 Cl 0.2267(5) 0.2285(6) 0.2391(3)
Cl1_12 Cl 0.0215(6) 0.9767(5) 0.9891(3)
Cl1_13 Cl 0.2733(5) 0.7715(6) 0.7391(3)
Cl1_14 Cl 0.4785(6) 0.0233(5) 0.4891(3)
Cl1_15 Cl 0.7267(5) 0.7285(6) 0.7391(3)
Cl1_16 Cl 0.5215(6) 0.4767(5) 0.4891(3)
loop_
_geom_bond_atom_site_label_1
_geom_bond_atom_site_label_2
_geom_bond_site_symmetry_1
_geom_bond_site_symmetry_2
C21 C18 1_555 1_555
O3 C21 1_555 1_555
O4 C21 1_555 1_555
Gd3 O3 1_555 1_555
Gd5 O4 1_555 1_555
O5 Gd1 1_555 1_555
O6 Gd1 1_555 1_555
O7 Gd1 1_555 1_555
O8 Gd1 1_555 1_555
N1 C1 1_555 1_555
C1 C3 1_555 1_555
N2 H1 1_555 1_555
C2 N1 1_555 1_555
C3 N2 1_555 1_555
C4 C3 1_555 1_555
H2 C4 1_555 1_555
C5 C6 1_555 1_555
C6 C1 1_555 1_555
H3 C6 1_555 1_555
C7 C4 1_555 1_555
H4 C7 1_555 1_555
C8 C5 1_555 1_555
O1 C8 1_555 1_555
O2 C8 1_555 1_555
C9 C2 1_555 1_555
C10 C9 1_555 1_555
H5 C10 1_555 1_555
C11 N3 1_555 1_555
C12 C11 1_555 1_555
C13 C10 1_555 1_555
H8 C13 1_555 1_555
C14 N4 1_555 1_555
N5 H9 1_555 1_555
C15 N4 1_555 1_555
C16 C14 1_555 1_555
C17 C16 1_555 1_555
H10 C17 1_555 1_555
C19 C14 1_555 1_555
H11 C19 1_555 1_555
C20 C17 1_555 1_555
C22 C15 1_555 1_555
C23 C22 1_555 1_555
H13 C23 1_555 1_555
C24 N6 1_555 1_555
C25 C24 1_555 1_555
H15 C25 1_555 1_555
C26 C23 1_555 1_555
H16 C26 1_555 1_555
Gd3 O1 1_555 1_555
Gd5 O2 1_555 1_555
N2 C2 1_555 1_555
C5 C7 1_555 1_555
N3 C9 1_555 1_555
C12 C13 1_555 1_555
N5 C15 1_555 1_555
N5 C16 1_555 1_555
N6 C22 1_555 1_555
C25 C26 1_555 1_555
Gd1_2 N1_2 1_555 1_555
N1_2 C1_2 1_555 1_555
C1_2 C3_2 1_555 1_555
N2_2 H1_2 1_555 1_555
C2_2 N1_2 1_555 1_555
C3_2 N2_2 1_555 1_555
C4_2 C3_2 1_555 1_555
H2_2 C4_2 1_555 1_555
C5_2 C6_2 1_555 1_555
C6_2 C1_2 1_555 1_555
H3_2 C6_2 1_555 1_555
C7_2 C4_2 1_555 1_555
H4_2 C7_2 1_555 1_555
C8_2 C5_2 1_555 1_555
O5 C8_2 1_555 1_555
O2_2 C8_2 1_555 1_555
N6_2 Gd1_2 1_555 1_555
C23_2 C22_2 1_555 1_555
H13_2 C23_2 1_555 1_555
C24_2 N6_2 1_555 1_555
H14_2 C24_2 1_555 1_555
C25_2 C24_2 1_555 1_555
H15_2 C25_2 1_555 1_555
C26_2 C23_2 1_555 1_555
H16_2 C26_2 1_555 1_555
Gd4 O2_2 1_555 1_555
O6_2 Gd1_2 1_555 1_555
O7_2 Gd1_2 1_555 1_555
N2_2 C2_2 1_555 1_555
C5_2 C7_2 1_555 1_555
N6_2 C22_2 1_555 1_555
C25_2 C26_2 1_555 1_555
N3_2 Gd1_3 1_555 1_555
C10_2 C9_2 1_555 1_555
H5_2 C10_2 1_555 1_555
C11_2 N3_2 1_555 1_555
H6_2 C11_2 1_555 1_555
C12_2 C11_2 1_555 1_555
H7_2 C12_2 1_555 1_555
C13_2 C10_2 1_555 1_555
H8_2 C13_2 1_555 1_555
N4_2 Gd1_3 1_555 1_555
C14_2 N4_2 1_555 1_555
N5_2 H9_2 1_555 1_555
C15_2 N4_2 1_555 1_555
C16_2 C14_2 1_555 1_555
C17_2 C16_2 1_555 1_555
H10_2 C17_2 1_555 1_555
C18_2 C19_2 1_555 1_555
C19_2 C14_2 1_555 1_555
H11_2 C19_2 1_555 1_555
C20_2 C17_2 1_555 1_555
H12_2 C20_2 1_555 1_555
C21_2 C18_2 1_555 1_555
O6 C21_2 1_555 1_555
O4_2 C21_2 1_555 1_555
Gd4 O4_2 1_555 1_555
O5_2 Gd1_3 1_555 1_555
O8_2 Gd1_3 1_555 1_555
N3_2 C9_2 1_555 1_555
C12_2 C13_2 1_555 1_555
N5_2 C15_2 1_555 1_555
N5_2 C16_2 1_555 1_555
C18_2 C20_2 1_555 1_555
N4_3 Gd1_4 1_555 1_555
C14_3 N4_3 1_555 1_555
N5_3 H9_3 1_555 1_555
C15_3 N4_3 1_555 1_555
C16_3 C14_3 1_555 1_555
C17_3 C16_3 1_555 1_555
H10_3 C17_3 1_555 1_555
C18_3 C19_3 1_555 1_555
C19_3 C14_3 1_555 1_555
H11_3 C19_3 1_555 1_555
C20_3 C17_3 1_555 1_555
H12_3 C20_3 1_555 1_555
N6_3 Gd1_4 1_555 1_555
C22_3 C15_3 1_555 1_555
C23_3 C22_3 1_555 1_555
H13_3 C23_3 1_555 1_555
C24_3 N6_3 1_555 1_555
H14_3 C24_3 1_555 1_555
C25_3 C24_3 1_555 1_555
C26_3 C23_3 1_555 1_555
H16_3 C26_3 1_555 1_555
O6_3 Gd1_4 1_555 1_555
O8_3 Gd1_4 1_555 1_555
N5_3 C15_3 1_555 1_555
N5_3 C16_3 1_555 1_555
C18_3 C20_3 1_555 1_555
N6_3 C22_3 1_555 1_555
C25_3 C26_3 1_555 1_555
O6_2 C8_3 1_555 1_555
O2_3 C8_3 1_555 1_555
Gd5_2 O2_3 1_555 1_555
Gd1_5 N1_3 1_555 1_555
N1_3 C1_3 1_555 1_555
C1_3 C3_3 1_555 1_555
N2_3 H1_3 1_555 1_555
C2_3 N1_3 1_555 1_555
C3_3 N2_3 1_555 1_555
C4_3 C3_3 1_555 1_555
H2_3 C4_3 1_555 1_555
C6_3 C1_3 1_555 1_555
H3_3 C6_3 1_555 1_555
C7_3 C4_3 1_555 1_555
N3_3 Gd1_5 1_555 1_555
C9_3 C2_3 1_555 1_555
C10_3 C9_3 1_555 1_555
H5_3 C10_3 1_555 1_555
C11_3 N3_3 1_555 1_555
H6_3 C11_3 1_555 1_555
C12_3 C11_3 1_555 1_555
H7_3 C12_3 1_555 1_555
C13_3 C10_3 1_555 1_555
H8_3 C13_3 1_555 1_555
O5_2 C21_3 1_555 1_555
O4_3 C21_3 1_555 1_555
Gd5_3 O4_3 1_555 1_555
O5_3 Gd1_5 1_555 1_555
O7_3 Gd1_5 1_555 1_555
N2_3 C2_3 1_555 1_555
N3_3 C9_3 1_555 1_555
C12_3 C13_3 1_555 1_555
Gd3 N1_4 1_555 1_555
N1_4 C1_4 1_555 1_555
C1_4 C3_4 1_555 1_555
N2_4 H1_4 1_555 1_555
C2_4 N1_4 1_555 1_555
C3_4 N2_4 1_555 1_555
C4_4 C3_4 1_555 1_555
H2_4 C4_4 1_555 1_555
C5_4 C6_4 1_555 1_555
C6_4 C1_4 1_555 1_555
H3_4 C6_4 1_555 1_555
C7_4 C4_4 1_555 1_555
H4_4 C7_4 1_555 1_555
C8_4 C5_4 1_555 1_555
O5_3 C8_4 1_555 1_555
O2_4 C8_4 1_555 1_555
N3_4 Gd3 1_555 1_555
C9_4 C2_4 1_555 1_555
C10_4 C9_4 1_555 1_555
H5_4 C10_4 1_555 1_555
C11_4 N3_4 1_555 1_555
H6_4 C11_4 1_555 1_555
C12_4 C11_4 1_555 1_555
H7_4 C12_4 1_555 1_555
C13_4 C10_4 1_555 1_555
H8_4 C13_4 1_555 1_555
N4_4 Gd3 1_555 1_555
C14_4 N4_4 1_555 1_555
N5_4 H9_4 1_555 1_555
C15_4 N4_4 1_555 1_555
C16_4 C14_4 1_555 1_555
C17_4 C16_4 1_555 1_555
H10_4 C17_4 1_555 1_555
C18_4 C19_4 1_555 1_555
C19_4 C14_4 1_555 1_555
H11_4 C19_4 1_555 1_555
C20_4 C17_4 1_555 1_555
H12_4 C20_4 1_555 1_555
C21_4 C18_4 1_555 1_555
O6_3 C21_4 1_555 1_555
O4_4 C21_4 1_555 1_555
N6_4 Gd3 1_555 1_555
C22_4 C15_4 1_555 1_555
C23_4 C22_4 1_555 1_555
H13_4 C23_4 1_555 1_555
C24_4 N6_4 1_555 1_555
H14_4 C24_4 1_555 1_555
C25_4 C24_4 1_555 1_555
H15_4 C25_4 1_555 1_555
C26_4 C23_4 1_555 1_555
H16_4 C26_4 1_555 1_555
Gd4_3 O2_4 1_555 1_555
Gd4_2 O4_4 1_555 1_555
O7_4 Gd3 1_555 1_555
O8_4 Gd3 1_555 1_555
N2_4 C2_4 1_555 1_555
C5_4 C7_4 1_555 1_555
N3_4 C9_4 1_555 1_555
C12_4 C13_4 1_555 1_555
N5_4 C15_4 1_555 1_555
N5_4 C16_4 1_555 1_555
C18_4 C20_4 1_555 1_555
N6_4 C22_4 1_555 1_555
C25_4 C26_4 1_555 1_555
N1_5 C1_5 1_555 1_555
C1_5 C3_5 1_555 1_555
N2_5 H1_5 1_555 1_555
C2_5 N1_5 1_555 1_555
C3_5 N2_5 1_555 1_555
C4_5 C3_5 1_555 1_555
H2_5 C4_5 1_555 1_555
C5_5 C6_5 1_555 1_555
C6_5 C1_5 1_555 1_555
H3_5 C6_5 1_555 1_555
C7_5 C4_5 1_555 1_555
H4_5 C7_5 1_555 1_555
C8_5 C5_5 1_555 1_555
O1_2 C8_5 1_555 1_555
O7 C8_5 1_555 1_555
C9_5 C2_5 1_555 1_555
C10_5 C9_5 1_555 1_555
H5_5 C10_5 1_555 1_555
C11_5 N3_5 1_555 1_555
C12_5 C11_5 1_555 1_555
C13_5 C10_5 1_555 1_555
H8_5 C13_5 1_555 1_555
C14_5 N4_5 1_555 1_555
N5_5 H9_5 1_555 1_555
C15_5 N4_5 1_555 1_555
C16_5 C14_5 1_555 1_555
C17_5 C16_5 1_555 1_555
H10_5 C17_5 1_555 1_555
C19_5 C14_5 1_555 1_555
H11_5 C19_5 1_555 1_555
C20_5 C17_5 1_555 1_555
C22_5 C15_5 1_555 1_555
C23_5 C22_5 1_555 1_555
H13_5 C23_5 1_555 1_555
C24_5 N6_5 1_555 1_555
C25_5 C24_5 1_555 1_555
H15_5 C25_5 1_555 1_555
C26_5 C23_5 1_555 1_555
H16_5 C26_5 1_555 1_555
Gd4 O1_2 1_555 1_555
N2_5 C2_5 1_555 1_555
C5_5 C7_5 1_555 1_555
N3_5 C9_5 1_555 1_555
C12_5 C13_5 1_555 1_555
N5_5 C15_5 1_555 1_555
N5_5 C16_5 1_555 1_555
N6_5 C22_5 1_555 1_555
C25_5 C26_5 1_555 1_555
O5_4 Gd5 1_555 1_555
O6_4 Gd5 1_555 1_555
C21_5 C18_5 1_555 1_555
O3_2 C21_5 1_555 1_555
O8 C21_5 1_555 1_555
Gd4 O3_2 1_555 1_555
N3_6 Gd4_2 1_555 1_555
C10_6 C9_6 1_555 1_555
H5_6 C10_6 1_555 1_555
C11_6 N3_6 1_555 1_555
H6_6 C11_6 1_555 1_555
C12_6 C11_6 1_555 1_555
H7_6 C12_6 1_555 1_555
C13_6 C10_6 1_555 1_555
H8_6 C13_6 1_555 1_555
N4_6 Gd4_2 1_555 1_555
C14_6 N4_6 1_555 1_555
N5_6 H9_6 1_555 1_555
C15_6 N4_6 1_555 1_555
C16_6 C14_6 1_555 1_555
C17_6 C16_6 1_555 1_555
H10_6 C17_6 1_555 1_555
C18_6 C19_6 1_555 1_555
C19_6 C14_6 1_555 1_555
H11_6 C19_6 1_555 1_555
C20_6 C17_6 1_555 1_555
H12_6 C20_6 1_555 1_555
C21_6 C18_6 1_555 1_555
O6_4 C21_6 1_555 1_555
O8_4 C21_6 1_555 1_555
O5_5 Gd4_2 1_555 1_555
N3_6 C9_6 1_555 1_555
C12_6 C13_6 1_555 1_555
N5_6 C15_6 1_555 1_555
N5_6 C16_6 1_555 1_555
C18_6 C20_6 1_555 1_555
Gd4_3 N1_6 1_555 1_555
N1_6 C1_6 1_555 1_555
C1_6 C3_6 1_555 1_555
N2_6 H1_6 1_555 1_555
C2_6 N1_6 1_555 1_555
C3_6 N2_6 1_555 1_555
C4_6 C3_6 1_555 1_555
H2_6 C4_6 1_555 1_555
C5_6 C6_6 1_555 1_555
C6_6 C1_6 1_555 1_555
H3_6 C6_6 1_555 1_555
C7_6 C4_6 1_555 1_555
H4_6 C7_6 1_555 1_555
C8_6 C5_6 1_555 1_555
O5_4 C8_6 1_555 1_555
O7_4 C8_6 1_555 1_555
N6_6 Gd4_3 1_555 1_555
C23_6 C22_6 1_555 1_555
H13_6 C23_6 1_555 1_555
C24_6 N6_6 1_555 1_555
H14_6 C24_6 1_555 1_555
C25_6 C24_6 1_555 1_555
H15_6 C25_6 1_555 1_555
C26_6 C23_6 1_555 1_555
H16_6 C26_6 1_555 1_555
O6_5 Gd4_3 1_555 1_555
N2_6 C2_6 1_555 1_555
C5_6 C7_6 1_555 1_555
N6_6 C22_6 1_555 1_555
C25_6 C26_6 1_555 1_555
Gd5_2 N1_7 1_555 1_555
N1_7 C1_7 1_555 1_555
C1_7 C3_7 1_555 1_555
N2_7 H1_7 1_555 1_555
C2_7 N1_7 1_555 1_555
C3_7 N2_7 1_555 1_555
C4_7 C3_7 1_555 1_555
H2_7 C4_7 1_555 1_555
C6_7 C1_7 1_555 1_555
H3_7 C6_7 1_555 1_555
C7_7 C4_7 1_555 1_555
N3_7 Gd5_2 1_555 1_555
C9_7 C2_7 1_555 1_555
C10_7 C9_7 1_555 1_555
H5_7 C10_7 1_555 1_555
C11_7 N3_7 1_555 1_555
H6_7 C11_7 1_555 1_555
C12_7 C11_7 1_555 1_555
H7_7 C12_7 1_555 1_555
C13_7 C10_7 1_555 1_555
H8_7 C13_7 1_555 1_555
O5_5 C21_7 1_555 1_555
O8_3 C21_7 1_555 1_555
O5_6 Gd5_2 1_555 1_555
N2_7 C2_7 1_555 1_555
N3_7 C9_7 1_555 1_555
C12_7 C13_7 1_555 1_555
O6_5 C8_7 1_555 1_555
O7_3 C8_7 1_555 1_555
N4_7 Gd5_3 1_555 1_555
C14_7 N4_7 1_555 1_555
N5_7 H9_7 1_555 1_555
C15_7 N4_7 1_555 1_555
C16_7 C14_7 1_555 1_555
C17_7 C16_7 1_555 1_555
H10_7 C17_7 1_555 1_555
C18_7 C19_7 1_555 1_555
C19_7 C14_7 1_555 1_555
H11_7 C19_7 1_555 1_555
C20_7 C17_7 1_555 1_555
H12_7 C20_7 1_555 1_555
N6_7 Gd5_3 1_555 1_555
C22_7 C15_7 1_555 1_555
C23_7 C22_7 1_555 1_555
H13_7 C23_7 1_555 1_555
C24_7 N6_7 1_555 1_555
H14_7 C24_7 1_555 1_555
C25_7 C24_7 1_555 1_555
C26_7 C23_7 1_555 1_555
H16_7 C26_7 1_555 1_555
O6_6 Gd5_3 1_555 1_555
N5_7 C15_7 1_555 1_555
N5_7 C16_7 1_555 1_555
C18_7 C20_7 1_555 1_555
N6_7 C22_7 1_555 1_555
C25_7 C26_7 1_555 1_555
Gd4 N1_8 1_555 1_555
N1_8 C1_8 1_555 1_555
C1_8 C3_8 1_555 1_555
N2_8 H1_8 1_555 1_555
C2_8 N1_8 1_555 1_555
C3_8 N2_8 1_555 1_555
C4_8 C3_8 1_555 1_555
H2_8 C4_8 1_555 1_555
C5_8 C6_8 1_555 1_555
C6_8 C1_8 1_555 1_555
H3_8 C6_8 1_555 1_555
C7_8 C4_8 1_555 1_555
H4_8 C7_8 1_555 1_555
C8_8 C5_8 1_555 1_555
O5_6 C8_8 1_555 1_555
O7_2 C8_8 1_555 1_555
N3_8 Gd4 1_555 1_555
C9_8 C2_8 1_555 1_555
C10_8 C9_8 1_555 1_555
H5_8 C10_8 1_555 1_555
C11_8 N3_8 1_555 1_555
H6_8 C11_8 1_555 1_555
C12_8 C11_8 1_555 1_555
H7_8 C12_8 1_555 1_555
C13_8 C10_8 1_555 1_555
H8_8 C13_8 1_555 1_555
N4_8 Gd4 1_555 1_555
C14_8 N4_8 1_555 1_555
N5_8 H9_8 1_555 1_555
C15_8 N4_8 1_555 1_555
C16_8 C14_8 1_555 1_555
C17_8 C16_8 1_555 1_555
H10_8 C17_8 1_555 1_555
C18_8 C19_8 1_555 1_555
C19_8 C14_8 1_555 1_555
H11_8 C19_8 1_555 1_555
C20_8 C17_8 1_555 1_555
H12_8 C20_8 1_555 1_555
C21_8 C18_8 1_555 1_555
O6_6 C21_8 1_555 1_555
O8_2 C21_8 1_555 1_555
N6_8 Gd4 1_555 1_555
C22_8 C15_8 1_555 1_555
C23_8 C22_8 1_555 1_555
H13_8 C23_8 1_555 1_555
C24_8 N6_8 1_555 1_555
H14_8 C24_8 1_555 1_555
C25_8 C24_8 1_555 1_555
H15_8 C25_8 1_555 1_555
C26_8 C23_8 1_555 1_555
H16_8 C26_8 1_555 1_555
N2_8 C2_8 1_555 1_555
C5_8 C7_8 1_555 1_555
N3_8 C9_8 1_555 1_555
C12_8 C13_8 1_555 1_555
N5_8 C15_8 1_555 1_555
N5_8 C16_8 1_555 1_555
C18_8 C20_8 1_555 1_555
N6_8 C22_8 1_555 1_555
C25_8 C26_8 1_555 1_555

#END
