
###############################################################################
#
# This file contains modified crystal structure data generated from the
# MOF subset of the Cambridge Structural Database (CSD) v543 
# hosted by the Cambridge Crystallographic Data Centre (CCDC).
#
# This work is licensed under the Creative Commons
# Attribution-NonCommercial-ShareAlike 4.0 International License.
# To view a copy of this license, visit
# http://creativecommons.org/licenses/by-nc-sa/4.0/
# or send a letter to
# Creative Commons, PO Box 1866, Mountain View, CA 94042, USA.
#
# CIF created using the CSD Python API on 29 September 2022
# The structure has been converted into the P1 space group
# The structure has a 3D framework
# The original CSD entry EDOKIS is in the triclinic crystal system
# The framework has been calculated to contain at least 10.0% void space
# The void calculation uses a probe of radius 1.32A, grid spacing 0.4
#
###############################################################################

data_EDOKIS
_chemical_formula_moiety         '(C28 H12 Ag2 N4 Nd2 O11)n'
_symmetry_cell_setting           triclinic
_symmetry_space_group_name_H-M   'P 1'
_symmetry_Int_Tables_number      1
_space_group_name_Hall           'P 1'
loop_
_symmetry_equiv_pos_site_id
_symmetry_equiv_pos_as_xyz
1 x,y,z
_cell_length_a                   7.350(3)
_cell_length_b                   10.453(4)
_cell_length_c                   11.652(4)
_cell_angle_alpha                100.265(5)
_cell_angle_beta                 101.038(4)
_cell_angle_gamma                96.057(5)
_cell_volume                     855.509
loop_
_atom_site_label
_atom_site_type_symbol
_atom_site_fract_x
_atom_site_fract_y
_atom_site_fract_z
O7 O 0.0304(9) 0.3675(6) 0.2566(6)
O8 O 0.0098(9) 0.5759(6) 0.2480(6)
Nd4 Nd 0.24274(6) 0.52743(5) 0.43165(4)
O1 O 0.0399(8) 0.3713(6) 0.5032(6)
O2 O 0.4270(8) 0.3551(6) 0.4832(6)
O3 O 0.4395(10) 0.2357(7) 0.6250(6)
O4 O 0.4040(9) 0.4710(7) 0.2715(6)
C2 C 0.2991(13) 0.0382(9) 0.3873(9)
H2 H 0.4274 0.0383 0.3949
C3 C 0.2334(12) 0.1490(9) 0.4424(8)
C4 C 0.0379(12) 0.1455(9) 0.4247(8)
C7 C 0.3751(12) 0.2557(9) 0.5260(8)
O6 O 0.6924(9) 0.4374(6) 0.3502(6)
C8 C 0.4443(12) 0.3577(9) 0.0453(8)
H4 H 0.3249 0.3535 0.0615
C10 C 0.5956(12) 0.4013(9) 0.1399(8)
C11 C 0.7748(12) 0.4073(9) 0.1163(8)
C12 C 0.5613(12) 0.4417(8) 0.2650(8)
C14 C 0.9479(12) 0.4536(9) 0.2138(8)
Nd3 Nd 0.75726(6) 0.47257(5) 0.56835(4)
Ag3 Ag 0.78980(12) 0.74893(9) 0.21199(8)
O10 O 0.5730(8) 0.6449(6) 0.5168(6)
O11 O 0.2149(8) 0.7645(6) 0.5068(6)
O12 O 0.3076(9) 0.5626(6) 0.6498(6)
N2 N 0.4591(11) 0.3207(8) 0.9314(7)
C9 C 0.6336(13) 0.3295(10) 0.9090(8)
C13 C 0.7899(14) 0.3706(9) 0.9996(9)
H5 H 0.9078 0.3736 0.9817
H6 H 0.6479 0.3077 0.8307
Ag2 Ag 0.21020(12) 0.25107(9) 0.78801(8)
C1 C 0.1773(14) 0.9295(9) 0.3221(9)
H1 H 0.2258 0.8567 0.2883
C5 C 0.9240(14) 0.0307(9) 0.3554(9)
H3 H 0.7948 0.0284 0.3434
C6 C 0.9460(12) 0.2558(9) 0.4738(8)
O5 O 0.7851(8) 0.2355(6) 0.4932(6)
O9 O 0.9601(8) 0.6287(6) 0.4968(6)
N1 N 0.9889(11) 0.9249(8) 0.3056(8)
N3 N 0.5409(11) 0.6793(8) 0.0686(7)
N1_2 N 0.0111(11) 0.0751(8) 0.6944(8)
C5_2 C 0.0760(14) 0.9693(9) 0.6446(9)
H3_2 H 0.2052 0.9716 0.6566
C6_2 C 0.0540(12) 0.7442(9) 0.5262(8)
C1_2 C 0.8227(14) 0.0705(9) 0.6779(9)
H1_2 H 0.7742 0.1433 0.7117
O15 O 0.9902(9) 0.4241(6) 0.7520(6)
C9_2 C 0.3664(13) 0.6705(10) 0.0910(8)
C13_2 C 0.2101(14) 0.6294(9) 0.0004(9)
H5_2 H 0.0922 0.6264 0.0183
H6_2 H 0.3521 0.6923 0.1693
O3_2 O 0.5605(10) 0.7643(7) 0.3750(6)
O4_2 O 0.5960(9) 0.5290(7) 0.7285(6)
C2_2 C 0.7009(13) 0.9618(9) 0.6127(9)
H2_2 H 0.5726 0.9617 0.6051
C3_2 C 0.7666(12) 0.8510(9) 0.5576(8)
C4_2 C 0.9621(12) 0.8545(9) 0.5753(8)
C7_2 C 0.6249(12) 0.7443(9) 0.4740(8)
C8_2 C 0.5557(12) 0.6423(9) 0.9547(8)
H4_2 H 0.6751 0.6465 0.9385
C10_2 C 0.4044(12) 0.5987(9) 0.8601(8)
C11_2 C 0.2252(12) 0.5927(9) 0.8837(8)
C12_2 C 0.4387(12) 0.5583(8) 0.7350(8)
C14_2 C 0.0521(12) 0.5464(9) 0.7862(8)
O13 O 0.9696(9) 0.6325(6) 0.7434(6)
loop_
_geom_bond_atom_site_label_1
_geom_bond_atom_site_label_2
_geom_bond_site_symmetry_1
_geom_bond_site_symmetry_2
Nd4 O7 1_555 1_555
O8 Nd4 1_555 1_555
Nd4 O1 1_555 1_555
O2 Nd4 1_555 1_555
O3 C7 1_555 1_555
O4 Nd4 1_555 1_555
H2 C2 1_555 1_555
C3 C2 1_555 1_555
C4 C3 1_555 1_555
C7 O2 1_555 1_555
O6 C12 1_555 1_555
C8 H4 1_555 1_555
C10 C8 1_555 1_555
C11 C10 1_555 1_555
C12 O4 1_555 1_555
C14 C11 1_555 1_555
Nd3 O2 1_555 1_555
O10 Nd4 1_555 1_555
O11 Nd4 1_555 1_555
O12 Nd4 1_555 1_555
C3 C7 1_555 1_555
O6 Nd3 1_555 1_555
C10 C12 1_555 1_555
Nd3 O10 1_555 1_555
C9 N2 1_555 1_555
C13 C9 1_555 1_555
H5 C13 1_555 1_555
H6 C9 1_555 1_555
Ag2 N2 1_555 1_555
C1 H1 1_555 1_555
H3 C5 1_555 1_555
O5 C6 1_555 1_555
O5 Nd3 1_555 1_555
Nd3 O9 1_555 1_555
Ag3 N1 1_555 1_555
N3 Ag3 1_555 1_555
Ag2 N1_2 1_555 1_555
H3_2 C5_2 1_555 1_555
O11 C6_2 1_555 1_555
C1_2 H1_2 1_555 1_555
C9_2 N3 1_555 1_555
C13_2 C9_2 1_555 1_555
H5_2 C13_2 1_555 1_555
H6_2 C9_2 1_555 1_555
O3_2 C7_2 1_555 1_555
O4_2 Nd3 1_555 1_555
H2_2 C2_2 1_555 1_555
C3_2 C2_2 1_555 1_555
C4_2 C3_2 1_555 1_555
C7_2 O10 1_555 1_555
O12 C12_2 1_555 1_555
C8_2 H4_2 1_555 1_555
C10_2 C8_2 1_555 1_555
C11_2 C10_2 1_555 1_555
C12_2 O4_2 1_555 1_555
C14_2 C11_2 1_555 1_555
O13 Nd3 1_555 1_555
O15 Nd3 1_555 1_555
C3_2 C7_2 1_555 1_555
C10_2 C12_2 1_555 1_555

#END
