
###############################################################################
#
# This file contains modified crystal structure data generated from the
# MOF subset of the Cambridge Structural Database (CSD) v543 
# hosted by the Cambridge Crystallographic Data Centre (CCDC).
#
# This work is licensed under the Creative Commons
# Attribution-NonCommercial-ShareAlike 4.0 International License.
# To view a copy of this license, visit
# http://creativecommons.org/licenses/by-nc-sa/4.0/
# or send a letter to
# Creative Commons, PO Box 1866, Mountain View, CA 94042, USA.
#
# CIF created using the CSD Python API on 29 September 2022
# The structure has been converted into the P1 space group
# The structure has a 3D framework
# The original CSD entry EDOREU01 is in the triclinic crystal system
# The framework has been calculated to contain at least 10.0% void space
# The void calculation uses a probe of radius 1.32A, grid spacing 0.4
#
###############################################################################

data_EDOREU01
_chemical_formula_moiety         '(C20 H16 Cu4 Mo2 N4 O12)n'
_symmetry_cell_setting           triclinic
_symmetry_space_group_name_H-M   'P 1'
_symmetry_Int_Tables_number      1
_space_group_name_Hall           'P 1'
loop_
_symmetry_equiv_pos_site_id
_symmetry_equiv_pos_as_xyz
1 x,y,z
_cell_length_a                   7.4273(7)
_cell_length_b                   9.2314(8)
_cell_length_c                   13.8806(12)
_cell_angle_alpha                71.411(2)
_cell_angle_beta                 88.528(2)
_cell_angle_gamma                73.650(2)
_cell_volume                     863.435
loop_
_atom_site_label
_atom_site_type_symbol
_atom_site_fract_x
_atom_site_fract_y
_atom_site_fract_z
Mo4 Mo 0.36679(9) 0.00237(7) 0.11011(5)
Cu4 Cu 0.10792(12) 0.07036(10) 0.89859(7)
Mo1 Mo 0.19761(9) 0.68776(7) 0.00315(5)
Cu2 Cu 0.69375(13) 0.66437(10) 0.07346(7)
O2 O 0.4017(7) 0.6313(6) 0.0823(4)
O5 O 0.1833(7) 0.9664(6) 0.0487(4)
N2 N 0.2465(9) 0.4579(7) 0.7773(5)
C1 C 0.3393(11) 0.4049(10) 0.7067(6)
H1 H 0.4404 0.3128 0.7275
C2 C 0.2919(12) 0.4816(10) 0.6022(6)
H2 H 0.3605 0.4394 0.5555
C3 C 0.1453(12) 0.6183(9) 0.5684(6)
C4 C 0.0512(13) 0.6775(10) 0.6440(6)
C5 C 0.1030(13) 0.5951(10) 0.7447(6)
H4 H 0.0371 0.6349 0.7932
C8 C 0.0949(10) 0.6891(9) 0.2866(6)
H7 H 0.1458 0.6349 0.2416
C9 C 0.1533(11) 0.6190(9) 0.3883(6)
H8 H 0.2392 0.5179 0.4105
C10 C 0.0859(11) 0.6968(9) 0.4584(6)
O13 O 0.5966(7) 0.8798(6) 0.0939(4)
O14 O 0.9938(7) 0.7243(6) 0.0744(4)
O15 O 0.8048(7) 0.4722(6) 0.0374(4)
N3 N 0.7535(9) 0.5421(7) 0.2227(5)
Cu6 Cu 0.30625(13) 0.33563(10) 0.92654(7)
O4 O 0.6500(7) 0.7898(6) 0.9268(4)
O7 O 0.1912(8) 0.8526(6) 0.8919(4)
O8 O 0.1952(7) 0.5278(6) 0.9626(4)
Mo3 Mo 0.63321(9) 0.99763(7) 0.88989(5)
H5 H 0.8088 0.0107 0.2932
O9 O 0.3500(7) 0.2102(6) 0.0732(4)
O12 O 0.8088(8) 0.1474(6) 0.1081(4)
O11 O 0.8167(7) 0.0336(6) 0.9513(4)
Cu1 Cu 0.89208(12) 0.92964(10) 0.10141(7)
O3 O 0.3377(7) 0.9428(6) 0.2388(4)
N1 N 0.9668(9) 0.8335(7) 0.2496(5)
H3 H 0.9540 0.7725 0.6251
C6 C 0.8972(12) 0.9110(10) 0.3167(6)
C7 C 0.9541(13) 0.8460(10) 0.4185(7)
H6 H 0.9033 0.9031 0.4620
O1 O 0.4034(7) 0.1202(6) 0.9061(4)
O3_2 O 0.6623(7) 0.0572(6) 0.7612(4)
O6 O 0.0062(7) 0.2757(6) 0.9256(4)
N1_2 N 0.0332(9) 0.1665(7) 0.7504(5)
H3_2 H 0.0460 0.2275 0.3749
C6_2 C 0.1028(12) 0.0890(10) 0.6833(6)
C7_2 C 0.0459(13) 0.1540(10) 0.5815(7)
H6_2 H 0.0967 0.0969 0.5380
H5_2 H 0.1912 0.9893 0.7068
Mo1_2 Mo 0.80239(9) 0.31224(7) 0.99685(5)
O2_2 O 0.5983(7) 0.3687(6) 0.9177(4)
C1_2 C 0.6607(11) 0.5951(10) 0.2933(6)
H1_2 H 0.5596 0.6872 0.2725
C2_2 C 0.7081(12) 0.5184(10) 0.3978(6)
H2_2 H 0.6395 0.5606 0.4445
C3_2 C 0.8547(12) 0.3817(9) 0.4316(6)
C4_2 C 0.9488(13) 0.3225(10) 0.3560(6)
C5_2 C 0.8970(13) 0.4049(10) 0.2553(6)
H4_2 H 0.9629 0.3651 0.2068
C8_2 C 0.9051(10) 0.3109(9) 0.7134(6)
H7_2 H 0.8542 0.3651 0.7584
C9_2 C 0.8467(11) 0.3810(9) 0.6117(6)
H8_2 H 0.7608 0.4821 0.5895
C10_2 C 0.9141(11) 0.3032(9) 0.5416(6)
loop_
_geom_bond_atom_site_label_1
_geom_bond_atom_site_label_2
_geom_bond_site_symmetry_1
_geom_bond_site_symmetry_2
Mo1 O2 1_555 1_555
Cu2 O2 1_555 1_555
N2 C1 1_555 1_555
C1 H1 1_555 1_555
C2 C1 1_555 1_555
H2 C2 1_555 1_555
C3 C2 1_555 1_555
C4 C3 1_555 1_555
C5 N2 1_555 1_555
H4 C5 1_555 1_555
H7 C8 1_555 1_555
C9 C8 1_555 1_555
H8 C9 1_555 1_555
C10 C3 1_555 1_555
O13 Cu2 1_555 1_555
O14 Cu2 1_555 1_555
O15 Cu2 1_555 1_555
N3 Cu2 1_555 1_555
Cu6 N2 1_555 1_555
C4 C5 1_555 1_555
C9 C10 1_555 1_555
Mo3 O4 1_555 1_555
Cu6 O8 1_555 1_555
O9 Mo4 1_555 1_555
Cu1 O13 1_555 1_555
N1 Cu1 1_555 1_555
C6 N1 1_555 1_555
C7 C6 1_555 1_555
H6 C7 1_555 1_555
Cu1 O14 1_555 1_555
Cu4 O1 1_555 1_555
O1 Cu6 1_555 1_555
N1_2 Cu4 1_555 1_555
C6_2 N1_2 1_555 1_555
C7_2 C6_2 1_555 1_555
H6_2 C7_2 1_555 1_555
Cu6 O6 1_555 1_555
Cu4 O6 1_555 1_555
Mo1_2 O2_2 1_555 1_555
Cu6 O2_2 1_555 1_555
N3 C1_2 1_555 1_555
C1_2 H1_2 1_555 1_555
C2_2 C1_2 1_555 1_555
H2_2 C2_2 1_555 1_555
C3_2 C2_2 1_555 1_555
C4_2 C3_2 1_555 1_555
C5_2 N3 1_555 1_555
H4_2 C5_2 1_555 1_555
H7_2 C8_2 1_555 1_555
C9_2 C8_2 1_555 1_555
H8_2 C9_2 1_555 1_555
C10_2 C3_2 1_555 1_555
C4_2 C5_2 1_555 1_555
C9_2 C10_2 1_555 1_555

#END
