
###############################################################################
#
# This file contains modified crystal structure data generated from the
# MOF subset of the Cambridge Structural Database (CSD) v543 
# hosted by the Cambridge Crystallographic Data Centre (CCDC).
#
# This work is licensed under the Creative Commons
# Attribution-NonCommercial-ShareAlike 4.0 International License.
# To view a copy of this license, visit
# http://creativecommons.org/licenses/by-nc-sa/4.0/
# or send a letter to
# Creative Commons, PO Box 1866, Mountain View, CA 94042, USA.
#
# CIF created using the CSD Python API on 29 September 2022
# The structure has been converted into the P1 space group
# The structure has a 3D framework
# The original CSD entry EDORUN is in the monoclinic crystal system
# The framework has been calculated to contain at least 10.0% void space
# The void calculation uses a probe of radius 1.32A, grid spacing 0.4
#
###############################################################################

data_EDORUN
_chemical_formula_moiety         '(C184 H104 Cu6 N8 O32)n'
_symmetry_cell_setting           triclinic
_symmetry_space_group_name_H-M   'P 1'
_symmetry_Int_Tables_number      1
_space_group_name_Hall           'P 1'
loop_
_symmetry_equiv_pos_site_id
_symmetry_equiv_pos_as_xyz
1 x,y,z
_cell_length_a                   13.3743(2)
_cell_length_b                   14.0514(3)
_cell_length_c                   30.2734(6)
_cell_angle_alpha                90
_cell_angle_beta                 93.7250(16)
_cell_angle_gamma                90
_cell_volume                     5677.19
loop_
_atom_site_label
_atom_site_type_symbol
_atom_site_fract_x
_atom_site_fract_y
_atom_site_fract_z
Cu2 Cu 0.25129(8) 0.07226(8) 0.21455(3)
O3 O 0.1655(5) 0.0752(5) 0.30652(19)
O4 O 0.1645(5) 0.1624(4) 0.24327(17)
O5 O 0.3665(4) 0.0553(4) 0.30243(18)
O6 O 0.3690(5) 0.1429(4) 0.24061(17)
O7 O 0.6609(5) 0.4695(4) 0.30352(19)
O8 O 0.6611(5) 0.3807(4) 0.24167(17)
N1 N 0.2223(5) 0.3748(5) 0.6476(2)
N2 N 0.7254(5) 0.0858(5) 0.6435(2)
C1 C 0.0212(6) 0.2844(6) 0.2791(2)
H1 H 0.0124 0.2762 0.2479
C4 C 0.0518(7) 0.3138(6) 0.3705(3)
C5 C 0.1011(7) 0.2377(6) 0.3500(2)
H3 H 0.1438 0.1959 0.3671
C6 C 0.0856(6) 0.2253(6) 0.3039(2)
C7 C 0.1429(5) 0.1482(6) 0.2831(2)
C9 C 0.0744(6) 0.3299(6) 0.4193(2)
C10 C 0.0561(6) 0.2587(7) 0.4494(3)
H4 H 0.0273 0.2004 0.4391
C11 C 0.0797(8) 0.2716(7) 0.4949(3)
H5 H 0.0669 0.2218 0.5150
C12 C 0.1210(7) 0.3558(6) 0.5108(3)
C13 C 0.1327(7) 0.4337(6) 0.4818(3)
C14 C 0.1107(7) 0.4208(6) 0.4347(3)
C15 C 0.1327(7) 0.4967(6) 0.4057(3)
H6 H 0.1253 0.4862 0.3747
C16 C 0.1646(10) 0.5857(7) 0.4211(3)
H7 H 0.1758 0.6364 0.4012
C17 C 0.1798(11) 0.5976(8) 0.4680(4)
H8 H 0.2042 0.6567 0.4795
C18 C 0.1599(9) 0.5257(8) 0.4966(3)
H9 H 0.1646 0.5383 0.5275
C19 C 0.1539(7) 0.3626(6) 0.5588(3)
C20 C 0.2508(7) 0.3894(8) 0.5710(3)
H10 H 0.2957 0.4035 0.5489
C21 C 0.2838(7) 0.3962(7) 0.6157(3)
H11 H 0.3505 0.4161 0.6235
C22 C 0.1288(7) 0.3509(7) 0.6356(3)
H12 H 0.0841 0.3402 0.6582
C23 C 0.0924(8) 0.3407(8) 0.5922(3)
H13 H 0.0260 0.3189 0.5854
C24 C 0.5228(6) 0.2563(6) 0.2807(2)
H14 H 0.5087 0.2648 0.2498
C25 C 0.5898(6) 0.3171(6) 0.3046(2)
C26 C 0.6055(6) 0.3057(6) 0.3500(2)
H15 H 0.6471 0.3500 0.3663
C27 C 0.5627(7) 0.2324(6) 0.3724(3)
C28 C 0.4964(6) 0.1717(6) 0.3482(3)
H16 H 0.4637 0.1217 0.3627
C29 C 0.4786(6) 0.1849(6) 0.3027(2)
C30 C 0.3980(6) 0.1221(6) 0.2796(2)
C31 C 0.6395(5) 0.3955(6) 0.2813(2)
C32 C 0.5878(7) 0.2138(7) 0.4199(3)
C33 C 0.6860(7) 0.1951(7) 0.4348(3)
H17 H 0.7382 0.1990 0.4151
C34 C 0.7079(7) 0.1704(7) 0.4793(3)
H18 H 0.7757 0.1596 0.4894
C35 C 0.6357(7) 0.1617(7) 0.5084(3)
C36 C 0.5342(7) 0.1800(6) 0.4943(3)
C37 C 0.5089(7) 0.2058(7) 0.4498(3)
C38 C 0.4088(7) 0.2300(8) 0.4374(3)
H19 H 0.3923 0.2512 0.4080
C39 C 0.3331(8) 0.2237(9) 0.4668(3)
H20 H 0.2659 0.2405 0.4581
C40 C 0.3603(8) 0.1917(9) 0.5098(3)
H21 H 0.3094 0.1854 0.5301
C41 C 0.4558(7) 0.1691(9) 0.5238(3)
H22 H 0.4704 0.1463 0.5530
C42 C 0.6663(7) 0.1359(6) 0.5551(3)
C43 C 0.6669(10) 0.2025(7) 0.5903(3)
H23 H 0.6463 0.2663 0.5848
C44 C 0.6980(7) 0.1736(7) 0.6328(3)
H24 H 0.6997 0.2199 0.6557
C45 C 0.7226(10) 0.0235(7) 0.6107(3)
C46 C 0.6914(11) 0.0412(7) 0.5666(3)
Cu4 Cu 0.74717(7) 0.46934(8) 0.21063(3)
Cu5 Cu 0.74717(7) 0.03066(8) 0.71063(3)
Cu7 Cu 0.74871(8) 0.57226(8) 0.28545(3)
Cu8 Cu 0.25129(8) 0.42774(8) 0.71455(3)
N3 N 0.2223(5) 0.1252(5) 0.1476(2)
Cu1 Cu 0.25283(7) 0.96934(8) 0.28937(3)
H25 H 0.7438 0.9605 0.6179
H26 H 0.6872 0.9915 0.5453
O9 O 0.1363(5) 0.9852(4) 0.20274(18)
O10 O 0.1361(5) 0.8966(4) 0.26383(18)
O11 O 0.3391(5) 0.9695(4) 0.19648(19)
O12 O 0.3389(5) 0.8807(4) 0.25833(17)
N4 N 0.2746(5) 0.9142(5) 0.3565(2)
O1 O 0.8637(5) 0.4852(4) 0.29726(18)
O2 O 0.8639(5) 0.3966(4) 0.23617(18)
C2 C 0.9691(6) 0.3559(6) 0.2997(3)
C3 C 0.9867(7) 0.3694(6) 0.3455(3)
H2 H 0.9520 0.4188 0.3594
C8 C 0.8928(6) 0.4165(6) 0.2753(2)
C2_2 C 0.0309(6) 0.8559(6) 0.2003(3)
C3_2 C 0.0133(7) 0.8694(6) 0.1545(3)
H2_2 H 0.0480 0.9188 0.1406
C8_2 C 0.1072(6) 0.9165(6) 0.2247(2)
C16_2 C 0.8354(10) 0.0857(7) 0.0789(3)
H7_2 H 0.8242 0.1364 0.0988
C17_2 C 0.8202(11) 0.0976(8) 0.0320(4)
H8_2 H 0.7958 0.1567 0.0205
C18_2 C 0.8401(9) 0.0257(8) 0.0034(3)
O3_2 O 0.8345(5) 0.5752(5) 0.19348(19)
O4_2 O 0.8355(5) 0.6624(4) 0.25673(17)
O5_2 O 0.6335(4) 0.5553(4) 0.19757(18)
O6_2 O 0.6310(5) 0.6429(4) 0.25939(17)
C1_2 C 0.9788(6) 0.7844(6) 0.2209(2)
H1_2 H 0.9876 0.7762 0.2521
C4_2 C 0.9482(7) 0.8138(6) 0.1295(3)
C5_2 C 0.8989(7) 0.7377(6) 0.1500(2)
H3_2 H 0.8562 0.6959 0.1329
C6_2 C 0.9144(6) 0.7253(6) 0.1961(2)
C7_2 C 0.8571(5) 0.6482(6) 0.2169(2)
C9_2 C 0.9256(6) 0.8299(6) 0.0807(2)
C10_2 C 0.9439(6) 0.7587(7) 0.0506(3)
H4_2 H 0.9727 0.7004 0.0609
C11_2 C 0.9203(8) 0.7716(7) 0.0051(3)
C13_2 C 0.8673(7) 0.9337(6) 0.0182(3)
C14_2 C 0.8893(7) 0.9208(6) 0.0653(3)
C15_2 C 0.8673(7) 0.9967(6) 0.0943(3)
H6_2 H 0.8747 0.9862 0.1253
C24_2 C 0.4772(6) 0.7563(6) 0.2193(2)
H14_2 H 0.4913 0.7648 0.2502
C25_2 C 0.4102(6) 0.8171(6) 0.1954(2)
C26_2 C 0.3945(6) 0.8057(6) 0.1500(2)
H15_2 H 0.3529 0.8500 0.1337
C27_2 C 0.4373(7) 0.7324(6) 0.1276(3)
C28_2 C 0.5036(6) 0.6717(6) 0.1518(3)
H16_2 H 0.5363 0.6217 0.1373
C29_2 C 0.5214(6) 0.6849(6) 0.1973(2)
C30_2 C 0.6020(6) 0.6221(6) 0.2204(2)
C31_2 C 0.3605(5) 0.8955(6) 0.2187(2)
C32_2 C 0.4122(7) 0.7138(7) 0.0801(3)
C33_2 C 0.3140(7) 0.6951(7) 0.0652(3)
H17_2 H 0.2618 0.6990 0.0849
C34_2 C 0.2921(7) 0.6704(7) 0.0207(3)
H18_2 H 0.2243 0.6596 0.0106
C36_2 C 0.4658(7) 0.6800(6) 0.0057(3)
C37_2 C 0.4911(7) 0.7058(7) 0.0502(3)
C38_2 C 0.5912(7) 0.7300(8) 0.0626(3)
H19_2 H 0.6077 0.7512 0.0920
C39_2 C 0.6669(8) 0.7237(9) 0.0332(3)
H20_2 H 0.7341 0.7405 0.0419
N3_2 N 0.7777(5) 0.6252(5) 0.3524(2)
N4_2 N 0.7254(5) 0.4142(5) 0.1435(2)
N1_2 N 0.7777(5) 0.8748(5) 0.8524(2)
N2_2 N 0.2746(5) 0.5858(5) 0.8565(2)
H5_2 H 0.9331 0.7218 0.9850
C12_2 C 0.8790(7) 0.8558(6) 0.9892(3)
C19_2 C 0.8461(7) 0.8626(6) 0.9412(3)
C20_2 C 0.7492(7) 0.8894(8) 0.9290(3)
H10_2 H 0.7043 0.9035 0.9511
C21_2 C 0.7162(7) 0.8962(7) 0.8843(3)
H11_2 H 0.6495 0.9161 0.8765
C22_2 C 0.8712(7) 0.8509(7) 0.8644(3)
H12_2 H 0.9159 0.8402 0.8418
C23_2 C 0.9076(8) 0.8407(8) 0.9078(3)
H13_2 H 0.9740 0.8189 0.9146
C35_2 C 0.3643(7) 0.6617(7) 0.9916(3)
C40_2 C 0.6397(8) 0.6917(9) 0.9902(3)
H21_2 H 0.6906 0.6854 0.9699
C41_2 C 0.5442(7) 0.6691(9) 0.9762(3)
H22_2 H 0.5296 0.6463 0.9470
C42_2 C 0.3337(7) 0.6359(6) 0.9449(3)
C43_2 C 0.3331(10) 0.7025(7) 0.9097(3)
H23_2 H 0.3537 0.7663 0.9152
C44_2 C 0.3020(7) 0.6736(7) 0.8672(3)
H24_2 H 0.3003 0.7199 0.8443
C45_2 C 0.2774(10) 0.5235(7) 0.8893(3)
H25_2 H 0.2562 0.4605 0.8821
C46_2 C 0.3086(11) 0.5412(7) 0.9334(3)
H26_2 H 0.3128 0.4915 0.9547
Cu5_2 Cu 0.25283(7) 0.53066(8) 0.78937(3)
Cu8_2 Cu 0.74871(8) 0.92774(8) 0.78545(3)
O1_2 O 0.1363(5) 0.5148(4) 0.70274(18)
O2_2 O 0.1361(5) 0.6034(4) 0.76383(18)
C2_3 C 0.0309(6) 0.6441(6) 0.7003(3)
C3_3 C 0.0133(7) 0.6306(6) 0.6545(3)
H2_3 H 0.0480 0.5812 0.6406
C8_3 C 0.1072(6) 0.5835(6) 0.7247(2)
H25_3 H 0.2562 0.0395 0.3821
H26_3 H 0.3128 0.0085 0.4547
O9_2 O 0.8637(5) 0.0148(4) 0.79726(18)
O10_2 O 0.8639(5) 0.1034(4) 0.73617(18)
O11_2 O 0.6609(5) 0.0305(4) 0.80352(19)
O12_2 O 0.6611(5) 0.1193(4) 0.74167(17)
O3_3 O 0.8345(5) 0.9248(5) 0.69348(19)
O4_3 O 0.8355(5) 0.8376(4) 0.75673(17)
O5_3 O 0.6335(4) 0.9447(4) 0.69757(18)
O6_3 O 0.6310(5) 0.8571(4) 0.75939(17)
O7_2 O 0.3391(5) 0.5305(4) 0.69648(19)
O8_2 O 0.3389(5) 0.6193(4) 0.75833(17)
C1_3 C 0.9788(6) 0.7156(6) 0.7209(2)
H1_3 H 0.9876 0.7238 0.7521
C4_3 C 0.9482(7) 0.6862(6) 0.6295(3)
C5_3 C 0.8989(7) 0.7623(6) 0.6500(2)
H3_3 H 0.8562 0.8041 0.6329
C6_3 C 0.9144(6) 0.7747(6) 0.6961(2)
C7_3 C 0.8571(5) 0.8518(6) 0.7169(2)
C9_3 C 0.9256(6) 0.6701(6) 0.5807(2)
C10_3 C 0.9439(6) 0.7413(7) 0.5506(3)
H4_3 H 0.9727 0.7996 0.5609
C11_3 C 0.9203(8) 0.7284(7) 0.5051(3)
H5_3 H 0.9331 0.7782 0.4850
C12_3 C 0.8790(7) 0.6442(6) 0.4892(3)
C13_3 C 0.8673(7) 0.5663(6) 0.5182(3)
C14_3 C 0.8893(7) 0.5792(6) 0.5653(3)
C15_3 C 0.8673(7) 0.5033(6) 0.5943(3)
H6_3 H 0.8747 0.5138 0.6253
C16_3 C 0.8354(10) 0.4143(7) 0.5789(3)
H7_3 H 0.8242 0.3636 0.5988
C17_3 C 0.8202(11) 0.4024(8) 0.5320(4)
H8_3 H 0.7958 0.3433 0.5205
C18_3 C 0.8401(9) 0.4743(8) 0.5034(3)
H9_2 H 0.8354 0.4617 0.4725
C19_3 C 0.8461(7) 0.6374(6) 0.4412(3)
C20_3 C 0.7492(7) 0.6106(8) 0.4290(3)
H10_3 H 0.7043 0.5965 0.4511
C21_3 C 0.7162(7) 0.6038(7) 0.3843(3)
H11_3 H 0.6495 0.5839 0.3765
C22_3 C 0.8712(7) 0.6491(7) 0.3644(3)
H12_3 H 0.9159 0.6598 0.3418
C23_3 C 0.9076(8) 0.6593(8) 0.4078(3)
H13_3 H 0.9740 0.6811 0.4146
C24_3 C 0.4772(6) 0.7437(6) 0.7193(2)
H14_3 H 0.4913 0.7352 0.7502
C25_3 C 0.4102(6) 0.6829(6) 0.6954(2)
C26_3 C 0.3945(6) 0.6943(6) 0.6500(2)
H15_3 H 0.3529 0.6500 0.6337
C27_3 C 0.4373(7) 0.7676(6) 0.6276(3)
C28_3 C 0.5036(6) 0.8283(6) 0.6518(3)
H16_3 H 0.5363 0.8783 0.6373
C29_3 C 0.5214(6) 0.8151(6) 0.6973(2)
C30_3 C 0.6020(6) 0.8779(6) 0.7204(2)
C31_3 C 0.3605(5) 0.6045(6) 0.7187(2)
C32_3 C 0.4122(7) 0.7862(7) 0.5801(3)
C33_3 C 0.3140(7) 0.8049(7) 0.5652(3)
H17_3 H 0.2618 0.8010 0.5849
C34_3 C 0.2921(7) 0.8296(7) 0.5207(3)
H18_3 H 0.2243 0.8404 0.5106
C35_3 C 0.3643(7) 0.8383(7) 0.4916(3)
C36_3 C 0.4658(7) 0.8200(6) 0.5057(3)
C37_3 C 0.4911(7) 0.7942(7) 0.5502(3)
C38_3 C 0.5912(7) 0.7700(8) 0.5626(3)
H19_3 H 0.6077 0.7488 0.5920
C39_3 C 0.6669(8) 0.7763(9) 0.5332(3)
H20_3 H 0.7341 0.7595 0.5419
C40_3 C 0.6397(8) 0.8083(9) 0.4902(3)
H21_3 H 0.6906 0.8146 0.4699
C41_3 C 0.5442(7) 0.8309(9) 0.4762(3)
H22_3 H 0.5296 0.8537 0.4470
C42_3 C 0.3337(7) 0.8641(6) 0.4449(3)
C43_3 C 0.3331(10) 0.7975(7) 0.4097(3)
H23_3 H 0.3537 0.7337 0.4152
C44_3 C 0.3020(7) 0.8264(7) 0.3672(3)
H24_3 H 0.3003 0.7801 0.3443
C45_3 C 0.2774(10) 0.9765(7) 0.3893(3)
C46_3 C 0.3086(11) 0.9588(7) 0.4334(3)
H5_4 H 0.0669 0.2782 0.0150
C12_4 C 0.1210(7) 0.1442(6) 0.0108(3)
C19_4 C 0.1539(7) 0.1374(6) 0.0588(3)
C20_4 C 0.2508(7) 0.1106(8) 0.0710(3)
H10_4 H 0.2957 0.0965 0.0489
C21_4 C 0.2838(7) 0.1038(7) 0.1157(3)
H11_4 H 0.3505 0.0839 0.1235
C22_4 C 0.1288(7) 0.1491(7) 0.1356(3)
H12_4 H 0.0841 0.1598 0.1582
C23_4 C 0.0924(8) 0.1593(8) 0.0922(3)
H13_4 H 0.0260 0.1811 0.0854
C35_4 C 0.6357(7) 0.3383(7) 0.0084(3)
C40_4 C 0.3603(8) 0.3083(9) 0.0098(3)
H21_4 H 0.3094 0.3146 0.0301
C41_4 C 0.4558(7) 0.3309(9) 0.0238(3)
H22_4 H 0.4704 0.3537 0.0530
C42_4 C 0.6663(7) 0.3641(6) 0.0551(3)
C43_4 C 0.6669(10) 0.2975(7) 0.0903(3)
H23_4 H 0.6463 0.2337 0.0848
C44_4 C 0.6980(7) 0.3264(7) 0.1328(3)
H24_4 H 0.6997 0.2801 0.1557
C45_4 C 0.7226(10) 0.4765(7) 0.1107(3)
H25_4 H 0.7438 0.5395 0.1179
C46_4 C 0.6914(11) 0.4588(7) 0.0666(3)
H26_4 H 0.6872 0.5085 0.0453
O3_4 O 0.1655(5) 0.4248(5) 0.80652(19)
O4_4 O 0.1645(5) 0.3376(4) 0.74327(17)
O5_4 O 0.3665(4) 0.4447(4) 0.80243(18)
O6_4 O 0.3690(5) 0.3571(4) 0.74061(17)
C1_4 C 0.0212(6) 0.2156(6) 0.7791(2)
H1_4 H 0.0124 0.2238 0.7479
C4_4 C 0.0518(7) 0.1862(6) 0.8705(3)
C5_4 C 0.1011(7) 0.2623(6) 0.8500(2)
H3_4 H 0.1438 0.3041 0.8671
C6_4 C 0.0856(6) 0.2747(6) 0.8039(2)
C7_4 C 0.1429(5) 0.3518(6) 0.7831(2)
C9_4 C 0.0744(6) 0.1701(6) 0.9193(2)
C10_4 C 0.0561(6) 0.2413(7) 0.9494(3)
H4_4 H 0.0273 0.2996 0.9391
C11_4 C 0.0797(8) 0.2284(7) 0.9949(3)
C13_4 C 0.1327(7) 0.0663(6) 0.9818(3)
C14_4 C 0.1107(7) 0.0792(6) 0.9347(3)
C15_4 C 0.1327(7) 0.0033(6) 0.9057(3)
H6_4 H 0.1253 0.0138 0.8747
C24_4 C 0.5228(6) 0.2437(6) 0.7807(2)
H14_4 H 0.5087 0.2352 0.7498
C25_4 C 0.5898(6) 0.1829(6) 0.8046(2)
C26_4 C 0.6055(6) 0.1943(6) 0.8500(2)
H15_4 H 0.6471 0.1500 0.8663
C27_4 C 0.5627(7) 0.2676(6) 0.8724(3)
C28_4 C 0.4964(6) 0.3283(6) 0.8482(3)
H16_4 H 0.4637 0.3783 0.8627
C29_4 C 0.4786(6) 0.3151(6) 0.8027(2)
C30_4 C 0.3980(6) 0.3779(6) 0.7796(2)
C31_4 C 0.6395(5) 0.1045(6) 0.7813(2)
C32_4 C 0.5878(7) 0.2862(7) 0.9199(3)
C33_4 C 0.6860(7) 0.3049(7) 0.9348(3)
H17_4 H 0.7382 0.3010 0.9151
C34_4 C 0.7079(7) 0.3296(7) 0.9793(3)
H18_4 H 0.7757 0.3404 0.9894
C36_4 C 0.5342(7) 0.3200(6) 0.9943(3)
C37_4 C 0.5089(7) 0.2942(7) 0.9498(3)
C38_4 C 0.4088(7) 0.2700(8) 0.9374(3)
H19_4 H 0.3923 0.2488 0.9080
C39_4 C 0.3331(8) 0.2763(9) 0.9668(3)
H20_4 H 0.2659 0.2595 0.9581
C16_4 C 0.1646(10) 0.9143(7) 0.9211(3)
H7_4 H 0.1758 0.8636 0.9012
C17_4 C 0.1798(11) 0.9024(8) 0.9680(4)
H8_4 H 0.2042 0.8433 0.9795
C18_4 C 0.1599(9) 0.9743(8) 0.9966(3)
C2_4 C 0.9691(6) 0.1441(6) 0.7997(3)
C3_4 C 0.9867(7) 0.1306(6) 0.8455(3)
H2_4 H 0.9520 0.0812 0.8594
C8_4 C 0.8928(6) 0.0835(6) 0.7753(2)
H9_3 H 0.8354 0.0383 0.9725
H9_4 H 0.1646 0.9617 0.0275
loop_
_geom_bond_atom_site_label_1
_geom_bond_atom_site_label_2
_geom_bond_site_symmetry_1
_geom_bond_site_symmetry_2
Cu2 O4 1_555 1_555
O3 C7 1_555 1_555
O4 C7 1_555 1_555
O6 Cu2 1_555 1_555
O7 C31 1_555 1_555
O8 C31 1_555 1_555
N1 C21 1_555 1_555
N2 C44 1_555 1_555
C1 H1 1_555 1_555
C5 C4 1_555 1_555
H3 C5 1_555 1_555
C6 C1 1_555 1_555
C7 C6 1_555 1_555
C9 C4 1_555 1_555
C10 C9 1_555 1_555
H4 C10 1_555 1_555
C11 C10 1_555 1_555
H5 C11 1_555 1_555
C12 C11 1_555 1_555
C13 C12 1_555 1_555
C14 C9 1_555 1_555
C15 C14 1_555 1_555
H6 C15 1_555 1_555
C16 C15 1_555 1_555
H7 C16 1_555 1_555
C17 C16 1_555 1_555
H8 C17 1_555 1_555
C18 C13 1_555 1_555
H9 C18 1_555 1_555
C19 C12 1_555 1_555
C20 C19 1_555 1_555
H10 C20 1_555 1_555
C21 C20 1_555 1_555
H11 C21 1_555 1_555
C22 N1 1_555 1_555
H12 C22 1_555 1_555
C23 C19 1_555 1_555
H13 C23 1_555 1_555
C24 H14 1_555 1_555
C25 C24 1_555 1_555
C26 C25 1_555 1_555
H15 C26 1_555 1_555
C27 C26 1_555 1_555
C28 C27 1_555 1_555
H16 C28 1_555 1_555
C29 C24 1_555 1_555
C30 O5 1_555 1_555
C31 C25 1_555 1_555
C32 C27 1_555 1_555
C33 C32 1_555 1_555
H17 C33 1_555 1_555
C34 C33 1_555 1_555
H18 C34 1_555 1_555
C35 C34 1_555 1_555
C36 C35 1_555 1_555
C37 C32 1_555 1_555
C38 C37 1_555 1_555
H19 C38 1_555 1_555
C39 C38 1_555 1_555
H20 C39 1_555 1_555
C40 C39 1_555 1_555
H21 C40 1_555 1_555
C41 C36 1_555 1_555
H22 C41 1_555 1_555
C42 C35 1_555 1_555
C43 C42 1_555 1_555
H23 C43 1_555 1_555
C44 C43 1_555 1_555
H24 C44 1_555 1_555
C45 N2 1_555 1_555
C46 C42 1_555 1_555
Cu4 O8 1_555 1_555
Cu5 N2 1_555 1_555
Cu7 O7 1_555 1_555
Cu8 N1 1_555 1_555
N3 Cu2 1_555 1_555
O6 C30 1_555 1_555
C5 C6 1_555 1_555
C13 C14 1_555 1_555
C17 C18 1_555 1_555
C22 C23 1_555 1_555
C28 C29 1_555 1_555
C29 C30 1_555 1_555
C36 C37 1_555 1_555
C40 C41 1_555 1_555
C45 C46 1_555 1_555
O10 Cu1 1_555 1_555
O12 Cu1 1_555 1_555
N4 Cu1 1_555 1_555
O1 C8 1_555 1_555
O2 C8 1_555 1_555
C3 C2 1_555 1_555
H2 C3 1_555 1_555
C8 C2 1_555 1_555
Cu4 O2 1_555 1_555
Cu7 O1 1_555 1_555
O9 C8_2 1_555 1_555
O10 C8_2 1_555 1_555
C3_2 C2_2 1_555 1_555
H2_2 C3_2 1_555 1_555
C8_2 C2_2 1_555 1_555
H7_2 C16_2 1_555 1_555
C17_2 C16_2 1_555 1_555
H8_2 C17_2 1_555 1_555
C17_2 C18_2 1_555 1_555
Cu4 O3_2 1_555 1_555
Cu7 O4_2 1_555 1_555
O3_2 C7_2 1_555 1_555
O4_2 C7_2 1_555 1_555
O5_2 Cu4 1_555 1_555
O6_2 Cu7 1_555 1_555
O11 C31_2 1_555 1_555
O12 C31_2 1_555 1_555
C1_2 H1_2 1_555 1_555
C5_2 C4_2 1_555 1_555
H3_2 C5_2 1_555 1_555
C6_2 C1_2 1_555 1_555
C7_2 C6_2 1_555 1_555
C9_2 C4_2 1_555 1_555
C10_2 C9_2 1_555 1_555
H4_2 C10_2 1_555 1_555
C11_2 C10_2 1_555 1_555
C14_2 C9_2 1_555 1_555
C15_2 C14_2 1_555 1_555
H6_2 C15_2 1_555 1_555
C24_2 H14_2 1_555 1_555
C25_2 C24_2 1_555 1_555
C26_2 C25_2 1_555 1_555
H15_2 C26_2 1_555 1_555
C27_2 C26_2 1_555 1_555
C28_2 C27_2 1_555 1_555
H16_2 C28_2 1_555 1_555
C29_2 C24_2 1_555 1_555
C30_2 O5_2 1_555 1_555
C31_2 C25_2 1_555 1_555
C32_2 C27_2 1_555 1_555
C33_2 C32_2 1_555 1_555
H17_2 C33_2 1_555 1_555
C34_2 C33_2 1_555 1_555
H18_2 C34_2 1_555 1_555
C37_2 C32_2 1_555 1_555
C38_2 C37_2 1_555 1_555
H19_2 C38_2 1_555 1_555
C39_2 C38_2 1_555 1_555
H20_2 C39_2 1_555 1_555
N3_2 Cu7 1_555 1_555
N4_2 Cu4 1_555 1_555
O6_2 C30_2 1_555 1_555
C5_2 C6_2 1_555 1_555
C13_2 C14_2 1_555 1_555
C28_2 C29_2 1_555 1_555
C29_2 C30_2 1_555 1_555
C36_2 C37_2 1_555 1_555
N1_2 C21_2 1_555 1_555
N2_2 C44_2 1_555 1_555
C19_2 C12_2 1_555 1_555
C20_2 C19_2 1_555 1_555
H10_2 C20_2 1_555 1_555
C21_2 C20_2 1_555 1_555
H11_2 C21_2 1_555 1_555
C22_2 N1_2 1_555 1_555
H12_2 C22_2 1_555 1_555
C23_2 C19_2 1_555 1_555
H13_2 C23_2 1_555 1_555
H21_2 C40_2 1_555 1_555
H22_2 C41_2 1_555 1_555
C42_2 C35_2 1_555 1_555
C43_2 C42_2 1_555 1_555
H23_2 C43_2 1_555 1_555
C44_2 C43_2 1_555 1_555
H24_2 C44_2 1_555 1_555
C45_2 N2_2 1_555 1_555
H25_2 C45_2 1_555 1_555
C46_2 C42_2 1_555 1_555
H26_2 C46_2 1_555 1_555
Cu5_2 N2_2 1_555 1_555
Cu8_2 N1_2 1_555 1_555
C22_2 C23_2 1_555 1_555
C40_2 C41_2 1_555 1_555
C45_2 C46_2 1_555 1_555
O1_2 C8_3 1_555 1_555
O2_2 C8_3 1_555 1_555
C3_3 C2_3 1_555 1_555
H2_3 C3_3 1_555 1_555
C8_3 C2_3 1_555 1_555
Cu5_2 O2_2 1_555 1_555
Cu8 O1_2 1_555 1_555
O10_2 Cu5 1_555 1_555
O12_2 Cu5 1_555 1_555
Cu8_2 O4_3 1_555 1_555
O3_3 C7_3 1_555 1_555
O4_3 C7_3 1_555 1_555
O6_3 Cu8_2 1_555 1_555
O7_2 C31_3 1_555 1_555
O8_2 C31_3 1_555 1_555
N3_2 C21_3 1_555 1_555
N4 C44_3 1_555 1_555
C1_3 H1_3 1_555 1_555
C5_3 C4_3 1_555 1_555
H3_3 C5_3 1_555 1_555
C6_3 C1_3 1_555 1_555
C7_3 C6_3 1_555 1_555
C9_3 C4_3 1_555 1_555
C10_3 C9_3 1_555 1_555
H4_3 C10_3 1_555 1_555
C11_3 C10_3 1_555 1_555
H5_3 C11_3 1_555 1_555
C12_3 C11_3 1_555 1_555
C13_3 C12_3 1_555 1_555
C14_3 C9_3 1_555 1_555
C15_3 C14_3 1_555 1_555
H6_3 C15_3 1_555 1_555
C16_3 C15_3 1_555 1_555
H7_3 C16_3 1_555 1_555
C17_3 C16_3 1_555 1_555
H8_3 C17_3 1_555 1_555
C18_3 C13_3 1_555 1_555
H9_2 C18_3 1_555 1_555
C19_3 C12_3 1_555 1_555
C20_3 C19_3 1_555 1_555
H10_3 C20_3 1_555 1_555
C21_3 C20_3 1_555 1_555
H11_3 C21_3 1_555 1_555
C22_3 N3_2 1_555 1_555
H12_3 C22_3 1_555 1_555
C23_3 C19_3 1_555 1_555
H13_3 C23_3 1_555 1_555
C24_3 H14_3 1_555 1_555
C25_3 C24_3 1_555 1_555
C26_3 C25_3 1_555 1_555
H15_3 C26_3 1_555 1_555
C27_3 C26_3 1_555 1_555
C28_3 C27_3 1_555 1_555
H16_3 C28_3 1_555 1_555
C29_3 C24_3 1_555 1_555
C30_3 O5_3 1_555 1_555
C31_3 C25_3 1_555 1_555
C32_3 C27_3 1_555 1_555
C33_3 C32_3 1_555 1_555
H17_3 C33_3 1_555 1_555
C34_3 C33_3 1_555 1_555
H18_3 C34_3 1_555 1_555
C35_3 C34_3 1_555 1_555
C36_3 C35_3 1_555 1_555
C37_3 C32_3 1_555 1_555
C38_3 C37_3 1_555 1_555
H19_3 C38_3 1_555 1_555
C39_3 C38_3 1_555 1_555
H20_3 C39_3 1_555 1_555
C40_3 C39_3 1_555 1_555
H21_3 C40_3 1_555 1_555
C41_3 C36_3 1_555 1_555
H22_3 C41_3 1_555 1_555
C42_3 C35_3 1_555 1_555
C43_3 C42_3 1_555 1_555
H23_3 C43_3 1_555 1_555
C44_3 C43_3 1_555 1_555
H24_3 C44_3 1_555 1_555
C45_3 N4 1_555 1_555
C46_3 C42_3 1_555 1_555
Cu5_2 O8_2 1_555 1_555
Cu8 O7_2 1_555 1_555
O6_3 C30_3 1_555 1_555
C5_3 C6_3 1_555 1_555
C13_3 C14_3 1_555 1_555
C17_3 C18_3 1_555 1_555
C22_3 C23_3 1_555 1_555
C28_3 C29_3 1_555 1_555
C29_3 C30_3 1_555 1_555
C36_3 C37_3 1_555 1_555
C40_3 C41_3 1_555 1_555
C45_3 C46_3 1_555 1_555
N3 C21_4 1_555 1_555
N4_2 C44_4 1_555 1_555
C19_4 C12_4 1_555 1_555
C20_4 C19_4 1_555 1_555
H10_4 C20_4 1_555 1_555
C21_4 C20_4 1_555 1_555
H11_4 C21_4 1_555 1_555
C22_4 N3 1_555 1_555
H12_4 C22_4 1_555 1_555
C23_4 C19_4 1_555 1_555
H13_4 C23_4 1_555 1_555
H21_4 C40_4 1_555 1_555
H22_4 C41_4 1_555 1_555
C42_4 C35_4 1_555 1_555
C43_4 C42_4 1_555 1_555
H23_4 C43_4 1_555 1_555
C44_4 C43_4 1_555 1_555
H24_4 C44_4 1_555 1_555
C45_4 N4_2 1_555 1_555
H25_4 C45_4 1_555 1_555
C46_4 C42_4 1_555 1_555
H26_4 C46_4 1_555 1_555
C22_4 C23_4 1_555 1_555
C40_4 C41_4 1_555 1_555
C45_4 C46_4 1_555 1_555
Cu5_2 O3_4 1_555 1_555
Cu8 O4_4 1_555 1_555
O3_4 C7_4 1_555 1_555
O4_4 C7_4 1_555 1_555
O5_4 Cu5_2 1_555 1_555
O6_4 Cu8 1_555 1_555
O11_2 C31_4 1_555 1_555
O12_2 C31_4 1_555 1_555
C1_4 H1_4 1_555 1_555
C5_4 C4_4 1_555 1_555
H3_4 C5_4 1_555 1_555
C6_4 C1_4 1_555 1_555
C7_4 C6_4 1_555 1_555
C9_4 C4_4 1_555 1_555
C10_4 C9_4 1_555 1_555
H4_4 C10_4 1_555 1_555
C11_4 C10_4 1_555 1_555
C14_4 C9_4 1_555 1_555
C15_4 C14_4 1_555 1_555
H6_4 C15_4 1_555 1_555
C24_4 H14_4 1_555 1_555
C25_4 C24_4 1_555 1_555
C26_4 C25_4 1_555 1_555
H15_4 C26_4 1_555 1_555
C27_4 C26_4 1_555 1_555
C28_4 C27_4 1_555 1_555
H16_4 C28_4 1_555 1_555
C29_4 C24_4 1_555 1_555
C30_4 O5_4 1_555 1_555
C31_4 C25_4 1_555 1_555
C32_4 C27_4 1_555 1_555
C33_4 C32_4 1_555 1_555
H17_4 C33_4 1_555 1_555
C34_4 C33_4 1_555 1_555
H18_4 C34_4 1_555 1_555
C37_4 C32_4 1_555 1_555
C38_4 C37_4 1_555 1_555
H19_4 C38_4 1_555 1_555
C39_4 C38_4 1_555 1_555
H20_4 C39_4 1_555 1_555
O6_4 C30_4 1_555 1_555
C5_4 C6_4 1_555 1_555
C13_4 C14_4 1_555 1_555
C28_4 C29_4 1_555 1_555
C29_4 C30_4 1_555 1_555
C36_4 C37_4 1_555 1_555
H7_4 C16_4 1_555 1_555
C17_4 C16_4 1_555 1_555
H8_4 C17_4 1_555 1_555
C17_4 C18_4 1_555 1_555
O9_2 C8_4 1_555 1_555
O10_2 C8_4 1_555 1_555
C3_4 C2_4 1_555 1_555
H2_4 C3_4 1_555 1_555
C8_4 C2_4 1_555 1_555

#END
