
###############################################################################
#
# This file contains modified crystal structure data generated from the
# MOF subset of the Cambridge Structural Database (CSD) v543 
# hosted by the Cambridge Crystallographic Data Centre (CCDC).
#
# This work is licensed under the Creative Commons
# Attribution-NonCommercial-ShareAlike 4.0 International License.
# To view a copy of this license, visit
# http://creativecommons.org/licenses/by-nc-sa/4.0/
# or send a letter to
# Creative Commons, PO Box 1866, Mountain View, CA 94042, USA.
#
# CIF created using the CSD Python API on 29 September 2022
# The structure has been converted into the P1 space group
# The structure has a 3D framework
# The original CSD entry EDOSOI is in the monoclinic crystal system
# The framework has been calculated to contain at least 10.0% void space
# The void calculation uses a probe of radius 1.32A, grid spacing 0.4
#
###############################################################################

data_EDOSOI
_chemical_formula_moiety         '(C276 H156 Cu10 N12 O46)n'
_symmetry_cell_setting           triclinic
_symmetry_space_group_name_H-M   'P 1'
_symmetry_Int_Tables_number      1
_space_group_name_Hall           'P 1'
loop_
_symmetry_equiv_pos_site_id
_symmetry_equiv_pos_as_xyz
1 x,y,z
_cell_length_a                   18.0764(4)
_cell_length_b                   18.7879(4)
_cell_length_c                   26.8845(6)
_cell_angle_alpha                90
_cell_angle_beta                 91.2055(19)
_cell_angle_gamma                90
_cell_volume                     9128.43
loop_
_atom_site_label
_atom_site_type_symbol
_atom_site_fract_x
_atom_site_fract_y
_atom_site_fract_z
N1 N 0.5773(3) 0.3107(3) 0.2034(2)
C1 C 0.5872(4) 0.3368(4) 0.1577(3)
H1 H 0.6342 0.3564 0.1505
C2 C 0.5333(4) 0.3370(4) 0.1203(3)
H2 H 0.5436 0.3560 0.0884
C3 C 0.4645(4) 0.3092(4) 0.1300(3)
C4 C 0.4536(4) 0.2844(5) 0.1772(3)
H3 H 0.4066 0.2661 0.1861
C5 C 0.5113(4) 0.2862(5) 0.2122(3)
H4 H 0.5022 0.2684 0.2445
C6 C 0.4070(4) 0.2986(4) 0.0888(2)
C7 C 0.4269(4) 0.2617(5) 0.0477(3)
H5 H 0.4774 0.2499 0.0431
C8 C 0.3731(4) 0.2407(5) 0.0116(3)
C9 C 0.3012(4) 0.2578(4) 0.0172(2)
C10 C 0.2782(4) 0.2996(4) 0.0591(3)
C11 C 0.3329(4) 0.3210(4) 0.0950(3)
C12 C 0.3112(4) 0.3662(5) 0.1345(3)
H7 H 0.3471 0.3811 0.1586
C13 C 0.2392(5) 0.3888(5) 0.1385(4)
H8 H 0.2260 0.4186 0.1654
C14 C 0.1850(5) 0.3681(5) 0.1030(4)
H9 H 0.1353 0.3839 0.1058
C15 C 0.2047(5) 0.3249(5) 0.0642(3)
H10 H 0.1682 0.3117 0.0400
H13 H 0.1830 0.1720 0.0295
O3 O 0.0832(3) 0.0825(3) 0.01940(17)
Cu7 Cu 0.67695(4) 0.27052(4) 0.24068(3)
Cu10 Cu 0.02819(4) 0.00066(5) 0.04598(3)
Cu2 Cu 0.17695(4) 0.22948(4) 0.74068(3)
H6 H 0.3876 0.2143 0.9832
C16 C 0.2446(4) 0.2297(5) 0.9804(3)
C17 C 0.2515(4) 0.2444(4) 0.9303(3)
H11 H 0.2913 0.2729 0.9190
C18 C 0.1974(3) 0.2159(3) 0.8954(2)
C19 C 0.1445(3) 0.1758(4) 0.9095(2)
H12 H 0.1095 0.1588 0.8854
C20 C 0.1370(4) 0.1563(4) 0.9599(2)
C21 C 0.1875(4) 0.1841(4) 0.9954(2)
C22 C 0.2106(4) 0.2336(4) 0.8418(2)
O1 O 0.1623(3) 0.2113(2) 0.81056(16)
O2 O 0.2692(3) 0.2643(4) 0.82975(18)
C23 C 0.0815(4) 0.1026(4) 0.9750(2)
O4 O 0.0387(3) 0.0792(3) 0.94230(16)
N2 N 0.9046(3) 0.0038(3) 0.88737(19)
C24 C 0.8830(4) 0.0680(4) 0.8709(3)
H14 H 0.9142 0.1077 0.8779
C25 C 0.8173(4) 0.0799(4) 0.8441(3)
H15 H 0.8045 0.1264 0.8330
C26 C 0.7712(4) 0.0231(4) 0.8340(3)
C29 C 0.6982(4) 0.0312(4) 0.8098(3)
C30 C 0.6435(4) 0.0656(4) 0.8339(3)
H18 H 0.6549 0.0908 0.8637
C31 C 0.5696(4) 0.0643(4) 0.8151(3)
H19 H 0.5321 0.0886 0.8327
C32 C 0.5516(4) 0.0292(3) 0.7727(3)
C39 C 0.4711(4) 0.0232(4) 0.7572(3)
C40 C 0.4287(4) 0.0838(4) 0.7539(3)
H24 H 0.4517 0.1290 0.7579
C41 C 0.3518(4) 0.0803(3) 0.7447(2)
C42 C 0.3170(4) 0.0150(3) 0.7383(2)
H25 H 0.2653 0.0122 0.7313
C45 C 0.3073(4) 0.1468(3) 0.7451(2)
O5 O 0.2383(2) 0.1425(2) 0.73764(18)
O6 O 0.3422(3) 0.2035(3) 0.7523(3)
C49 C 0.0155(4) 0.2038(4) 0.3762(2)
C50 C 0.0214(4) 0.2286(4) 0.3279(3)
H29 H 0.0634 0.2558 0.3190
C52 C 0.0712(4) 0.2267(4) 0.4154(2)
C53 C 0.0658(4) 0.2926(4) 0.4348(3)
H31 H 0.0266 0.3232 0.4245
C54 C 0.1188(4) 0.3160(5) 0.4708(3)
H32 H 0.1144 0.3624 0.4844
C55 C 0.1763(4) 0.2735(4) 0.4866(2)
C56 C 0.1825(4) 0.2041(4) 0.4670(3)
C57 C 0.1294(4) 0.1782(4) 0.4307(3)
C58 C 0.1374(5) 0.1094(5) 0.4107(3)
H33 H 0.1015 0.0913 0.3878
C59 C 0.1979(6) 0.0683(6) 0.4248(4)
H34 H 0.2052 0.0232 0.4097
C60 C 0.2479(6) 0.0926(6) 0.4605(4)
H35 H 0.2872 0.0624 0.4713
C61 C 0.2418(5) 0.1585(5) 0.4806(3)
H36 H 0.2781 0.1744 0.5042
C62 C 0.2298(3) 0.3001(4) 0.5251(2)
C63 C 0.2230(4) 0.2840(4) 0.5747(2)
H37 H 0.1829 0.2552 0.5851
C64 C 0.2748(4) 0.3097(3) 0.6100(2)
C65 C 0.3333(3) 0.3519(3) 0.5950(2)
H38 H 0.3688 0.3685 0.6188
C66 C 0.3397(3) 0.3697(4) 0.5447(2)
C67 C 0.2890(3) 0.3424(4) 0.5100(2)
H39 H 0.2947 0.3525 0.4756
C68 C 0.2657(4) 0.2936(3) 0.6639(2)
O9 O 0.3130(3) 0.3186(3) 0.69410(17)
O10 O 0.2110(2) 0.2567(3) 0.67449(16)
C69 C 0.4011(3) 0.4171(4) 0.5292(2)
O11 O 0.4004(3) 0.4369(3) 0.48559(17)
O12 O 0.4478(3) 0.4352(3) 0.56218(16)
Cu4 Cu 0.30316(4) 0.29747(4) 0.76478(3)
Cu9 Cu 0.52819(4) 0.49934(5) 0.54598(3)
Cu11 Cu 0.47181(4) 0.50066(5) 0.45402(3)
N4 N 0.0773(3) 0.1893(3) 0.7034(2)
O16 O 0.1390(3) 0.3285(2) 0.74970(19)
Cu1 Cu 0.19684(4) 0.79747(4) 0.73522(3)
C27 C 0.7954(4) 0.9567(4) 0.8495(3)
H16 H 0.7671 0.9156 0.8412
C28 C 0.8595(4) 0.9497(4) 0.8765(3)
H17 H 0.8728 0.9037 0.8883
C33 C 0.6078(4) 0.9957(4) 0.7438(3)
C34 C 0.6823(4) 0.9964(4) 0.7629(3)
C35 C 0.7372(4) 0.9640(4) 0.7344(3)
H20 H 0.7868 0.9630 0.7468
C36 C 0.7211(5) 0.9343(6) 0.6900(4)
H21 H 0.7595 0.9134 0.6713
C37 C 0.6485(5) 0.9338(5) 0.6707(4)
H22 H 0.6382 0.9122 0.6393
C38 C 0.5928(5) 0.9639(4) 0.6965(3)
H23 H 0.5438 0.9637 0.6830
C43 C 0.3609(4) 0.9529(3) 0.7425(2)
C44 C 0.4362(4) 0.9577(4) 0.7517(3)
H26 H 0.4647 0.9153 0.7542
C46 C 0.3226(3) 0.8823(3) 0.7403(2)
O7 O 0.3610(3) 0.8285(2) 0.75030(19)
O8 O 0.2549(3) 0.8826(2) 0.7293(2)
Cu6 Cu 0.32305(4) 0.72948(4) 0.75932(3)
Cu8 Cu 0.97181(4) 0.99934(5) 0.95402(3)
O13 O 0.2308(3) 0.7643(4) 0.67025(18)
O15 O 0.1578(3) 0.7035(3) 0.7477(3)
N6 N 0.0923(3) 0.8262(3) 0.69701(19)
O17 O 0.1870(3) 0.8186(3) 0.80590(17)
O19 O 0.0522(3) 0.9352(3) 0.93782(16)
N3 N 0.9077(3) 0.1738(3) 0.30299(19)
C47 C 0.9046(4) 0.1476(4) 0.3488(3)
H27 H 0.8632 0.1189 0.3567
C48 C 0.9567(4) 0.1592(5) 0.3854(3)
H28 H 0.9525 0.1368 0.4169
C51 C 0.9665(3) 0.2143(4) 0.2923(2)
H30 H 0.9706 0.2336 0.2598
Cu5 Cu 0.80316(4) 0.20253(4) 0.26478(3)
O18 O 0.9004(3) 0.0631(3) 0.98559(17)
O14 O 0.9168(3) 0.9175(3) 0.98060(17)
N3_2 N 0.5923(3) 0.6738(3) 0.19701(19)
C47_2 C 0.5954(4) 0.6476(4) 0.1512(3)
H27_2 H 0.6368 0.6189 0.1433
C48_2 C 0.5433(4) 0.6592(5) 0.1146(3)
H28_2 H 0.5475 0.6368 0.0831
C49_2 C 0.4845(4) 0.7038(4) 0.1238(2)
C50_2 C 0.4786(4) 0.7286(4) 0.1721(3)
H29_2 H 0.4366 0.7558 0.1810
C51_2 C 0.5335(3) 0.7143(4) 0.2077(2)
H30_2 H 0.5294 0.7336 0.2402
C52_2 C 0.4288(4) 0.7267(4) 0.0846(2)
C53_2 C 0.4342(4) 0.7926(4) 0.0652(3)
H31_2 H 0.4734 0.8232 0.0755
C54_2 C 0.3812(4) 0.8160(5) 0.0292(3)
H32_2 H 0.3856 0.8624 0.0156
C55_2 C 0.3237(4) 0.7735(4) 0.0134(2)
C56_2 C 0.3175(4) 0.7041(4) 0.0330(3)
C57_2 C 0.3706(4) 0.6782(4) 0.0693(3)
C58_2 C 0.3626(5) 0.6094(5) 0.0893(3)
H33_2 H 0.3985 0.5913 0.1122
C59_2 C 0.3021(6) 0.5683(6) 0.0752(4)
H34_2 H 0.2948 0.5232 0.0903
C60_2 C 0.2521(6) 0.5926(6) 0.0395(4)
H35_2 H 0.2128 0.5624 0.0287
C61_2 C 0.2582(5) 0.6585(5) 0.0194(3)
H39_2 H 0.2053 0.8525 0.0244
O11_2 O 0.0996(3) 0.9369(3) 0.01441(17)
Cu5_2 Cu 0.69684(4) 0.70253(4) 0.23522(3)
C3_2 C 0.0355(4) 0.8092(4) 0.3700(3)
C4_2 C 0.0464(4) 0.7844(5) 0.3228(3)
H3_2 H 0.0934 0.7661 0.3139
C6_2 C 0.0930(4) 0.7986(4) 0.4112(2)
C7_2 C 0.0731(4) 0.7617(5) 0.4523(3)
H5_2 H 0.0226 0.7499 0.4569
C8_2 C 0.1269(4) 0.7407(5) 0.4884(3)
H6_2 H 0.1124 0.7143 0.5168
C9_2 C 0.1988(4) 0.7578(4) 0.4828(2)
C10_2 C 0.2218(4) 0.7996(4) 0.4409(3)
C11_2 C 0.1671(4) 0.8210(4) 0.4050(3)
C12_2 C 0.1888(4) 0.8662(5) 0.3655(3)
H7_2 H 0.1529 0.8811 0.3414
C13_2 C 0.2608(5) 0.8888(5) 0.3615(4)
H8_2 H 0.2740 0.9186 0.3346
C14_2 C 0.3150(5) 0.8681(5) 0.3970(4)
H9_2 H 0.3647 0.8839 0.3942
C15_2 C 0.2953(5) 0.8249(5) 0.4358(3)
H10_2 H 0.3318 0.8117 0.4600
C16_2 C 0.2554(4) 0.7297(5) 0.5196(3)
C17_2 C 0.2485(4) 0.7444(4) 0.5697(3)
H11_2 H 0.2087 0.7729 0.5810
C18_2 C 0.3026(3) 0.7159(3) 0.6046(2)
C19_2 C 0.3555(3) 0.6758(4) 0.5905(2)
H12_2 H 0.3905 0.6588 0.6146
C20_2 C 0.3630(4) 0.6563(4) 0.5401(2)
C21_2 C 0.3125(4) 0.6841(4) 0.5046(2)
H13_2 H 0.3170 0.6720 0.4705
C22_2 C 0.2894(4) 0.7336(4) 0.6582(2)
O1_2 O 0.3377(3) 0.7113(2) 0.68944(16)
C23_2 C 0.4185(4) 0.6026(4) 0.5250(2)
O3_2 O 0.4168(3) 0.5825(3) 0.48060(17)
O4_2 O 0.4613(3) 0.5792(3) 0.55770(16)
C39_2 C 0.0289(4) 0.5232(4) 0.7428(3)
C40_2 C 0.0713(4) 0.5838(4) 0.7461(3)
H24_2 H 0.0483 0.6290 0.7421
C41_2 C 0.1482(4) 0.5803(3) 0.7553(2)
C42_2 C 0.1830(4) 0.5150(3) 0.7617(2)
H25_2 H 0.2347 0.5122 0.7687
C43_2 C 0.1391(4) 0.4529(3) 0.7575(2)
C44_2 C 0.0638(4) 0.4577(4) 0.7483(3)
H26_2 H 0.0353 0.4153 0.7458
C45_2 C 0.1927(4) 0.6468(3) 0.7549(2)
O5_2 O 0.2617(2) 0.6425(2) 0.76236(18)
C46_2 C 0.1774(3) 0.3823(3) 0.7597(2)
O8_2 O 0.2451(3) 0.3826(2) 0.7707(2)
H36_2 H 0.2219 0.6744 0.9958
C62_2 C 0.2702(3) 0.8001(4) 0.9749(2)
C63_2 C 0.2770(4) 0.7840(4) 0.9253(2)
H37_2 H 0.3171 0.7552 0.9149
C64_2 C 0.2252(4) 0.8097(3) 0.8900(2)
C65_2 C 0.1667(3) 0.8519(3) 0.9050(2)
H38_2 H 0.1312 0.8685 0.8812
C66_2 C 0.1603(3) 0.8697(4) 0.9553(2)
C67_2 C 0.2110(3) 0.8424(4) 0.9900(2)
C68_2 C 0.2343(4) 0.7936(3) 0.8361(2)
O10_2 O 0.2890(2) 0.7567(3) 0.82551(16)
C69_2 C 0.0989(3) 0.9171(4) 0.9708(2)
N4_2 N 0.4227(3) 0.6893(3) 0.7966(2)
O14_2 O 0.5832(3) 0.4175(3) 0.51940(17)
N5 N 0.5954(3) 0.5038(3) 0.61263(19)
N6_2 N 0.4077(3) 0.3262(3) 0.80299(19)
O18_2 O 0.5996(3) 0.5631(3) 0.51441(17)
N1_2 N 0.9227(3) 0.8107(3) 0.2966(2)
C1_2 C 0.9128(4) 0.8368(4) 0.3423(3)
H1_2 H 0.8658 0.8564 0.3495
C2_2 C 0.9667(4) 0.8370(4) 0.3797(3)
H2_2 H 0.9564 0.8560 0.4116
C5_2 C 0.9887(4) 0.7862(5) 0.2878(3)
H4_2 H 0.9978 0.7684 0.2555
C24_2 C 0.6170(4) 0.5680(4) 0.6291(3)
H14_2 H 0.5858 0.6077 0.6221
C25_2 C 0.6827(4) 0.5799(4) 0.6559(3)
H15_2 H 0.6955 0.6264 0.6670
C26_2 C 0.7288(4) 0.5231(4) 0.6660(3)
C27_2 C 0.7046(4) 0.4567(4) 0.6505(3)
H16_2 H 0.7329 0.4156 0.6588
C28_2 C 0.6405(4) 0.4497(4) 0.6235(3)
H17_2 H 0.6272 0.4037 0.6117
C29_2 C 0.8018(4) 0.5312(4) 0.6902(3)
C30_2 C 0.8565(4) 0.5656(4) 0.6661(3)
H18_2 H 0.8451 0.5908 0.6363
C31_2 C 0.9304(4) 0.5643(4) 0.6849(3)
H19_2 H 0.9679 0.5886 0.6673
C32_2 C 0.9484(4) 0.5292(3) 0.7273(3)
C33_2 C 0.8922(4) 0.4957(4) 0.7562(3)
C34_2 C 0.8177(4) 0.4964(4) 0.7371(3)
C35_2 C 0.7628(4) 0.4640(4) 0.7656(3)
H20_2 H 0.7132 0.4630 0.7532
C36_2 C 0.7789(5) 0.4343(6) 0.8100(4)
H21_2 H 0.7405 0.4134 0.8287
C37_2 C 0.8515(5) 0.4338(5) 0.8293(4)
H22_2 H 0.8618 0.4122 0.8607
C38_2 C 0.9072(5) 0.4639(4) 0.8035(3)
H23_2 H 0.9562 0.4637 0.8170
Cu7_2 Cu 0.82305(4) 0.77052(4) 0.25932(3)
C47_3 C 0.0954(4) 0.8524(4) 0.6512(3)
H27_3 H 0.1368 0.8811 0.6433
C48_3 C 0.0433(4) 0.8408(5) 0.6146(3)
H28_3 H 0.0475 0.8632 0.5831
C51_3 C 0.0335(3) 0.7857(4) 0.7077(2)
H30_3 H 0.0294 0.7664 0.7402
N5_2 N 0.0954(3) 0.9962(3) 0.11263(19)
C27_3 C 0.2046(4) 0.0433(4) 0.1505(3)
H16_3 H 0.2329 0.0844 0.1588
C28_3 C 0.1405(4) 0.0503(4) 0.1235(3)
H17_3 H 0.1272 0.0963 0.1117
C33_3 C 0.3922(4) 0.0043(4) 0.2562(3)
C34_3 C 0.3177(4) 0.0036(4) 0.2371(3)
C35_3 C 0.2628(4) 0.0360(4) 0.2656(3)
H20_3 H 0.2132 0.0370 0.2532
C36_3 C 0.2789(5) 0.0657(6) 0.3100(4)
H21_3 H 0.2405 0.0866 0.3287
C37_3 C 0.3515(5) 0.0662(5) 0.3293(4)
H22_3 H 0.3618 0.0878 0.3607
C38_3 C 0.4072(5) 0.0361(4) 0.3035(3)
H23_3 H 0.4562 0.0363 0.3170
C43_3 C 0.6391(4) 0.0471(3) 0.2575(2)
C44_3 C 0.5638(4) 0.0423(4) 0.2483(3)
H26_3 H 0.5353 0.0847 0.2458
C46_3 C 0.6774(3) 0.1177(3) 0.2597(2)
O7_2 O 0.6390(3) 0.1715(2) 0.24970(19)
O8_3 O 0.7451(3) 0.1174(2) 0.2707(2)
O13_2 O 0.7692(3) 0.2357(4) 0.32975(18)
O15_2 O 0.8422(3) 0.2965(3) 0.2523(3)
O17_2 O 0.8130(3) 0.1814(3) 0.19410(17)
O19_2 O 0.9478(3) 0.0648(3) 0.06218(16)
H6_3 H 0.6124 0.7857 0.0168
C16_3 C 0.7554(4) 0.7703(5) 0.0196(3)
C17_3 C 0.7485(4) 0.7556(4) 0.0697(3)
H11_3 H 0.7087 0.7271 0.0810
C18_3 C 0.8026(3) 0.7841(3) 0.1046(2)
C19_3 C 0.8555(3) 0.8242(4) 0.0905(2)
H12_3 H 0.8905 0.8412 0.1146
C20_3 C 0.8630(4) 0.8437(4) 0.0401(2)
C21_3 C 0.8125(4) 0.8159(4) 0.0046(2)
C22_3 C 0.7894(4) 0.7664(4) 0.1582(2)
O1_3 O 0.8377(3) 0.7887(2) 0.18944(16)
O2_2 O 0.7308(3) 0.7357(4) 0.17025(18)
C23_3 C 0.9185(4) 0.8974(4) 0.0250(2)
O4_3 O 0.9613(3) 0.9208(3) 0.05770(16)
C24_3 C 0.1170(4) 0.9320(4) 0.1291(3)
H14_3 H 0.0858 0.8923 0.1221
C25_3 C 0.1827(4) 0.9201(4) 0.1559(3)
H15_3 H 0.1955 0.8736 0.1670
C26_3 C 0.2288(4) 0.9769(4) 0.1660(3)
C29_3 C 0.3018(4) 0.9688(4) 0.1902(3)
C30_3 C 0.3565(4) 0.9344(4) 0.1661(3)
H18_3 H 0.3451 0.9092 0.1363
C31_3 C 0.4304(4) 0.9357(4) 0.1849(3)
H19_3 H 0.4679 0.9114 0.1673
C32_3 C 0.4484(4) 0.9708(3) 0.2273(3)
C39_3 C 0.5289(4) 0.9768(4) 0.2428(3)
C40_3 C 0.5713(4) 0.9162(4) 0.2461(3)
H24_3 H 0.5483 0.8710 0.2421
C41_3 C 0.6482(4) 0.9197(3) 0.2553(2)
C42_3 C 0.6830(4) 0.9850(3) 0.2617(2)
H25_3 H 0.7347 0.9878 0.2687
C45_3 C 0.6927(4) 0.8532(3) 0.2549(2)
O5_3 O 0.7617(2) 0.8575(2) 0.26236(18)
O6_2 O 0.6578(3) 0.7965(3) 0.2477(3)
C49_3 C 0.9845(4) 0.7962(4) 0.6238(2)
C50_3 C 0.9786(4) 0.7714(4) 0.6721(3)
H29_3 H 0.9366 0.7442 0.6810
C52_3 C 0.9288(4) 0.7733(4) 0.5846(2)
C53_3 C 0.9342(4) 0.7074(4) 0.5652(3)
H31_3 H 0.9734 0.6768 0.5755
C54_3 C 0.8812(4) 0.6840(5) 0.5292(3)
H32_3 H 0.8856 0.6376 0.5156
C55_3 C 0.8237(4) 0.7265(4) 0.5134(2)
C56_3 C 0.8175(4) 0.7959(4) 0.5330(3)
C57_3 C 0.8706(4) 0.8218(4) 0.5693(3)
C58_3 C 0.8626(5) 0.8906(5) 0.5893(3)
H33_3 H 0.8985 0.9087 0.6122
C59_3 C 0.8021(6) 0.9317(6) 0.5752(4)
H34_3 H 0.7948 0.9768 0.5903
C60_3 C 0.7521(6) 0.9074(6) 0.5395(4)
H35_3 H 0.7128 0.9376 0.5287
C61_3 C 0.7582(5) 0.8415(5) 0.5194(3)
H36_3 H 0.7219 0.8256 0.4958
C62_3 C 0.7702(3) 0.6999(4) 0.4749(2)
C63_3 C 0.7770(4) 0.7160(4) 0.4253(2)
H37_3 H 0.8171 0.7448 0.4149
C64_3 C 0.7252(4) 0.6903(3) 0.3900(2)
C65_3 C 0.6667(3) 0.6481(3) 0.4050(2)
H38_3 H 0.6312 0.6315 0.3812
C66_3 C 0.6603(3) 0.6303(4) 0.4553(2)
C67_3 C 0.7110(3) 0.6576(4) 0.4900(2)
H39_3 H 0.7053 0.6475 0.5244
C68_3 C 0.7343(4) 0.7064(3) 0.3361(2)
O9_2 O 0.6870(3) 0.6814(3) 0.30590(17)
O10_3 O 0.7890(2) 0.7433(3) 0.32551(16)
C69_3 C 0.5989(3) 0.5829(4) 0.4708(2)
O12_2 O 0.5522(3) 0.5648(3) 0.43782(16)
O16_2 O 0.8610(3) 0.6715(2) 0.25030(19)
C1_3 C 0.4128(4) 0.6632(4) 0.8423(3)
H1_3 H 0.3658 0.6436 0.8495
C2_3 C 0.4667(4) 0.6630(4) 0.8797(3)
H2_3 H 0.4564 0.6440 0.9116
C3_3 C 0.5355(4) 0.6908(4) 0.8700(3)
C4_3 C 0.5464(4) 0.7156(5) 0.8228(3)
H3_3 H 0.5934 0.7339 0.8139
C5_3 C 0.4887(4) 0.7138(5) 0.7878(3)
H4_3 H 0.4978 0.7316 0.7555
C6_3 C 0.5930(4) 0.7014(4) 0.9112(2)
C7_3 C 0.5731(4) 0.7383(5) 0.9523(3)
H5_3 H 0.5226 0.7501 0.9569
C8_3 C 0.6269(4) 0.7593(5) 0.9884(3)
C9_3 C 0.6988(4) 0.7422(4) 0.9828(2)
C10_3 C 0.7218(4) 0.7004(4) 0.9409(3)
C11_3 C 0.6671(4) 0.6790(4) 0.9050(3)
C12_3 C 0.6888(4) 0.6338(5) 0.8655(3)
H7_3 H 0.6529 0.6189 0.8414
C13_3 C 0.7608(5) 0.6112(5) 0.8615(4)
H8_3 H 0.7740 0.5814 0.8346
C14_3 C 0.8150(5) 0.6319(5) 0.8970(4)
H9_3 H 0.8647 0.6161 0.8942
C15_3 C 0.7953(5) 0.6751(5) 0.9358(3)
H10_3 H 0.8318 0.6883 0.9600
H13_3 H 0.8170 0.8280 0.9705
C1_4 C 0.0872(4) 0.1632(4) 0.6577(3)
H1_4 H 0.1342 0.1436 0.6505
C2_4 C 0.0333(4) 0.1630(4) 0.6203(3)
H2_4 H 0.0436 0.1440 0.5884
C5_4 C 0.0113(4) 0.2138(5) 0.7122(3)
H4_4 H 0.0022 0.2316 0.7445
N2_2 N 0.4046(3) 0.4962(3) 0.38737(19)
C24_4 C 0.3830(4) 0.4320(4) 0.3709(3)
H14_4 H 0.4142 0.3923 0.3779
C25_4 C 0.3173(4) 0.4201(4) 0.3441(3)
H15_4 H 0.3045 0.3736 0.3330
C26_4 C 0.2712(4) 0.4769(4) 0.3340(3)
C27_4 C 0.2954(4) 0.5433(4) 0.3495(3)
H16_4 H 0.2671 0.5844 0.3412
C28_4 C 0.3595(4) 0.5503(4) 0.3765(3)
H17_4 H 0.3728 0.5963 0.3883
C29_4 C 0.1982(4) 0.4688(4) 0.3098(3)
C30_4 C 0.1435(4) 0.4344(4) 0.3339(3)
H18_4 H 0.1549 0.4092 0.3637
C31_4 C 0.0696(4) 0.4357(4) 0.3151(3)
H19_4 H 0.0321 0.4114 0.3327
C32_4 C 0.0516(4) 0.4708(3) 0.2727(3)
C33_4 C 0.1078(4) 0.5043(4) 0.2438(3)
C34_4 C 0.1823(4) 0.5036(4) 0.2629(3)
C35_4 C 0.2372(4) 0.5360(4) 0.2344(3)
H20_4 H 0.2868 0.5370 0.2468
C36_4 C 0.2211(5) 0.5657(6) 0.1900(4)
H21_4 H 0.2595 0.5866 0.1713
C37_4 C 0.1485(5) 0.5662(5) 0.1707(4)
H22_4 H 0.1382 0.5878 0.1393
C38_4 C 0.0928(5) 0.5361(4) 0.1965(3)
H23_4 H 0.0438 0.5363 0.1830
C3_4 C 0.9645(4) 0.1908(4) 0.6300(3)
C4_4 C 0.9536(4) 0.2156(5) 0.6772(3)
H3_4 H 0.9066 0.2339 0.6861
C6_4 C 0.9070(4) 0.2014(4) 0.5888(2)
C7_4 C 0.9269(4) 0.2383(5) 0.5477(3)
H5_4 H 0.9774 0.2501 0.5431
C8_4 C 0.8731(4) 0.2593(5) 0.5116(3)
H6_4 H 0.8876 0.2857 0.4832
C9_4 C 0.8012(4) 0.2422(4) 0.5172(2)
C10_4 C 0.7782(4) 0.2004(4) 0.5591(3)
C11_4 C 0.8329(4) 0.1790(4) 0.5950(3)
C12_4 C 0.8112(4) 0.1338(5) 0.6345(3)
H7_4 H 0.8471 0.1189 0.6586
C13_4 C 0.7392(5) 0.1112(5) 0.6385(4)
H8_4 H 0.7260 0.0814 0.6654
C14_4 C 0.6850(5) 0.1319(5) 0.6030(4)
H9_4 H 0.6353 0.1161 0.6058
C15_4 C 0.7047(5) 0.1751(5) 0.5642(3)
H10_4 H 0.6682 0.1883 0.5400
C16_4 C 0.7446(4) 0.2703(5) 0.4804(3)
C17_4 C 0.7515(4) 0.2556(4) 0.4303(3)
H11_4 H 0.7913 0.2271 0.4190
C18_4 C 0.6974(3) 0.2841(3) 0.3954(2)
C19_4 C 0.6445(3) 0.3242(4) 0.4095(2)
H12_4 H 0.6095 0.3412 0.3854
C20_4 C 0.6370(4) 0.3437(4) 0.4599(2)
C21_4 C 0.6875(4) 0.3159(4) 0.4954(2)
H13_4 H 0.6830 0.3280 0.5295
C22_4 C 0.7106(4) 0.2664(4) 0.3418(2)
O1_4 O 0.6623(3) 0.2887(2) 0.31056(16)
C23_4 C 0.5815(4) 0.3974(4) 0.4750(2)
O4_4 O 0.5387(3) 0.4208(3) 0.44230(16)
C39_4 C 0.9711(4) 0.4768(4) 0.2572(3)
C40_4 C 0.9287(4) 0.4162(4) 0.2539(3)
H24_4 H 0.9517 0.3710 0.2579
C41_4 C 0.8518(4) 0.4197(3) 0.2447(2)
C42_4 C 0.8170(4) 0.4850(3) 0.2383(2)
H25_4 H 0.7653 0.4878 0.2313
C43_4 C 0.8609(4) 0.5471(3) 0.2425(2)
C44_4 C 0.9362(4) 0.5423(4) 0.2517(3)
H26_4 H 0.9647 0.5847 0.2542
C45_4 C 0.8073(4) 0.3532(3) 0.2451(2)
O5_4 O 0.7383(2) 0.3575(2) 0.23764(18)
C46_4 C 0.8226(3) 0.6177(3) 0.2403(2)
O8_4 O 0.7549(3) 0.6174(2) 0.2293(2)
H36_4 H 0.7781 0.3256 0.0042
C62_4 C 0.7298(3) 0.1999(4) 0.0251(2)
C63_4 C 0.7230(4) 0.2160(4) 0.0747(2)
H37_4 H 0.6829 0.2448 0.0851
C64_4 C 0.7748(4) 0.1903(3) 0.1100(2)
C65_4 C 0.8333(3) 0.1481(3) 0.0950(2)
H38_4 H 0.8688 0.1315 0.1188
C66_4 C 0.8397(3) 0.1303(4) 0.0447(2)
C67_4 C 0.7890(3) 0.1576(4) 0.0100(2)
C68_4 C 0.7657(4) 0.2064(3) 0.1639(2)
O10_4 O 0.7110(2) 0.2433(3) 0.17449(16)
C69_4 C 0.9011(3) 0.0829(4) 0.0292(2)
C47_4 C 0.4046(4) 0.3524(4) 0.8488(3)
H27_4 H 0.3632 0.3811 0.8567
C48_4 C 0.4567(4) 0.3408(5) 0.8854(3)
H28_4 H 0.4525 0.3632 0.9169
C49_4 C 0.5155(4) 0.2962(4) 0.8762(2)
C50_4 C 0.5214(4) 0.2714(4) 0.8279(3)
H29_4 H 0.5634 0.2442 0.8190
C51_4 C 0.4665(3) 0.2857(4) 0.7923(2)
H30_4 H 0.4706 0.2664 0.7598
C52_4 C 0.5712(4) 0.2733(4) 0.9154(2)
C53_4 C 0.5658(4) 0.2074(4) 0.9348(3)
H31_4 H 0.5266 0.1768 0.9245
C54_4 C 0.6188(4) 0.1840(5) 0.9708(3)
H32_4 H 0.6144 0.1376 0.9844
C55_4 C 0.6763(4) 0.2265(4) 0.9866(2)
C56_4 C 0.6825(4) 0.2959(4) 0.9670(3)
C57_4 C 0.6294(4) 0.3218(4) 0.9307(3)
C58_4 C 0.6374(5) 0.3906(5) 0.9107(3)
H33_4 H 0.6015 0.4087 0.8878
C59_4 C 0.6979(6) 0.4317(6) 0.9248(4)
H34_4 H 0.7052 0.4768 0.9097
C60_4 C 0.7479(6) 0.4074(6) 0.9605(4)
H35_4 H 0.7872 0.4376 0.9713
C61_4 C 0.7418(5) 0.3415(5) 0.9806(3)
H39_4 H 0.7947 0.1475 0.9756
loop_
_geom_bond_atom_site_label_1
_geom_bond_atom_site_label_2
_geom_bond_site_symmetry_1
_geom_bond_site_symmetry_2
N1 C1 1_555 1_555
C1 H1 1_555 1_555
C2 C1 1_555 1_555
H2 C2 1_555 1_555
C3 C2 1_555 1_555
C4 C3 1_555 1_555
H3 C4 1_555 1_555
C5 N1 1_555 1_555
H4 C5 1_555 1_555
C6 C3 1_555 1_555
C7 C6 1_555 1_555
H5 C7 1_555 1_555
C8 C7 1_555 1_555
C9 C8 1_555 1_555
C10 C9 1_555 1_555
C11 C6 1_555 1_555
C12 C11 1_555 1_555
H7 C12 1_555 1_555
C13 C12 1_555 1_555
H8 C13 1_555 1_555
C14 C13 1_555 1_555
H9 C14 1_555 1_555
C15 C10 1_555 1_555
H10 C15 1_555 1_555
Cu7 N1 1_555 1_555
Cu10 O3 1_555 1_555
C4 C5 1_555 1_555
C10 C11 1_555 1_555
C14 C15 1_555 1_555
Cu2 O1 1_555 1_555
C17 C16 1_555 1_555
H11 C17 1_555 1_555
C18 C17 1_555 1_555
C19 C18 1_555 1_555
H12 C19 1_555 1_555
C20 C19 1_555 1_555
C21 C16 1_555 1_555
C22 C18 1_555 1_555
O1 C22 1_555 1_555
O2 C22 1_555 1_555
C23 C20 1_555 1_555
O4 C23 1_555 1_555
N2 C24 1_555 1_555
C24 H14 1_555 1_555
C25 C24 1_555 1_555
H15 C25 1_555 1_555
C26 C25 1_555 1_555
C29 C26 1_555 1_555
C30 C29 1_555 1_555
H18 C30 1_555 1_555
C31 C30 1_555 1_555
H19 C31 1_555 1_555
C32 C31 1_555 1_555
C39 C32 1_555 1_555
C40 C39 1_555 1_555
H24 C40 1_555 1_555
C41 C40 1_555 1_555
C42 C41 1_555 1_555
H25 C42 1_555 1_555
C45 C41 1_555 1_555
O5 Cu2 1_555 1_555
O6 C45 1_555 1_555
C50 C49 1_555 1_555
H29 C50 1_555 1_555
C52 C49 1_555 1_555
C53 C52 1_555 1_555
H31 C53 1_555 1_555
C54 C53 1_555 1_555
H32 C54 1_555 1_555
C55 C54 1_555 1_555
C56 C55 1_555 1_555
C57 C52 1_555 1_555
C58 C57 1_555 1_555
H33 C58 1_555 1_555
C59 C58 1_555 1_555
H34 C59 1_555 1_555
C60 C59 1_555 1_555
H35 C60 1_555 1_555
C61 C56 1_555 1_555
H36 C61 1_555 1_555
C62 C55 1_555 1_555
C63 C62 1_555 1_555
H37 C63 1_555 1_555
C64 C63 1_555 1_555
C65 C64 1_555 1_555
H38 C65 1_555 1_555
C66 C65 1_555 1_555
C67 C62 1_555 1_555
H39 C67 1_555 1_555
C68 C64 1_555 1_555
O9 C68 1_555 1_555
O10 Cu2 1_555 1_555
C69 C66 1_555 1_555
O11 C69 1_555 1_555
O12 C69 1_555 1_555
Cu4 O2 1_555 1_555
Cu9 O12 1_555 1_555
Cu11 O11 1_555 1_555
N4 Cu2 1_555 1_555
O16 Cu2 1_555 1_555
C20 C21 1_555 1_555
C45 O5 1_555 1_555
O6 Cu4 1_555 1_555
C56 C57 1_555 1_555
C60 C61 1_555 1_555
C66 C67 1_555 1_555
C68 O10 1_555 1_555
O9 Cu4 1_555 1_555
Cu1 O8 1_555 1_555
H16 C27 1_555 1_555
H17 C28 1_555 1_555
C35 C34 1_555 1_555
H20 C35 1_555 1_555
C36 C35 1_555 1_555
H21 C36 1_555 1_555
C37 C36 1_555 1_555
H22 C37 1_555 1_555
C38 C33 1_555 1_555
H23 C38 1_555 1_555
H26 C44 1_555 1_555
C46 C43 1_555 1_555
O7 C46 1_555 1_555
O8 C46 1_555 1_555
Cu6 O7 1_555 1_555
O13 Cu1 1_555 1_555
O15 Cu1 1_555 1_555
N6 Cu1 1_555 1_555
O17 Cu1 1_555 1_555
C27 C28 1_555 1_555
C33 C34 1_555 1_555
C37 C38 1_555 1_555
C43 C44 1_555 1_555
N3 C47 1_555 1_555
C47 H27 1_555 1_555
C48 C47 1_555 1_555
H28 C48 1_555 1_555
C51 N3 1_555 1_555
H30 C51 1_555 1_555
Cu5 N3 1_555 1_555
O14 Cu8 1_555 1_555
N3_2 C47_2 1_555 1_555
C47_2 H27_2 1_555 1_555
C48_2 C47_2 1_555 1_555
H28_2 C48_2 1_555 1_555
C49_2 C48_2 1_555 1_555
C50_2 C49_2 1_555 1_555
H29_2 C50_2 1_555 1_555
C51_2 N3_2 1_555 1_555
H30_2 C51_2 1_555 1_555
C52_2 C49_2 1_555 1_555
C53_2 C52_2 1_555 1_555
H31_2 C53_2 1_555 1_555
C54_2 C53_2 1_555 1_555
H32_2 C54_2 1_555 1_555
C55_2 C54_2 1_555 1_555
C56_2 C55_2 1_555 1_555
C57_2 C52_2 1_555 1_555
C58_2 C57_2 1_555 1_555
H33_2 C58_2 1_555 1_555
C59_2 C58_2 1_555 1_555
H34_2 C59_2 1_555 1_555
C60_2 C59_2 1_555 1_555
H35_2 C60_2 1_555 1_555
C61_2 C56_2 1_555 1_555
Cu5_2 N3_2 1_555 1_555
C50_2 C51_2 1_555 1_555
C56_2 C57_2 1_555 1_555
C60_2 C61_2 1_555 1_555
Cu4 O8_2 1_555 1_555
Cu6 O1_2 1_555 1_555
Cu9 O4_2 1_555 1_555
C4_2 C3_2 1_555 1_555
H3_2 C4_2 1_555 1_555
C6_2 C3_2 1_555 1_555
C7_2 C6_2 1_555 1_555
H5_2 C7_2 1_555 1_555
C8_2 C7_2 1_555 1_555
H6_2 C8_2 1_555 1_555
C9_2 C8_2 1_555 1_555
C10_2 C9_2 1_555 1_555
C11_2 C6_2 1_555 1_555
C12_2 C11_2 1_555 1_555
H7_2 C12_2 1_555 1_555
C13_2 C12_2 1_555 1_555
H8_2 C13_2 1_555 1_555
C14_2 C13_2 1_555 1_555
H9_2 C14_2 1_555 1_555
C15_2 C10_2 1_555 1_555
H10_2 C15_2 1_555 1_555
C16_2 C9_2 1_555 1_555
C17_2 C16_2 1_555 1_555
H11_2 C17_2 1_555 1_555
C18_2 C17_2 1_555 1_555
C19_2 C18_2 1_555 1_555
H12_2 C19_2 1_555 1_555
C20_2 C19_2 1_555 1_555
C21_2 C16_2 1_555 1_555
H13_2 C21_2 1_555 1_555
C22_2 C18_2 1_555 1_555
O1_2 C22_2 1_555 1_555
O13 C22_2 1_555 1_555
C23_2 C20_2 1_555 1_555
O3_2 C23_2 1_555 1_555
O4_2 C23_2 1_555 1_555
C40_2 C39_2 1_555 1_555
H24_2 C40_2 1_555 1_555
C41_2 C40_2 1_555 1_555
C42_2 C41_2 1_555 1_555
H25_2 C42_2 1_555 1_555
C43_2 C42_2 1_555 1_555
C44_2 C39_2 1_555 1_555
H26_2 C44_2 1_555 1_555
C45_2 C41_2 1_555 1_555
O5_2 Cu6 1_555 1_555
O15 C45_2 1_555 1_555
C46_2 C43_2 1_555 1_555
O16 C46_2 1_555 1_555
O8_2 C46_2 1_555 1_555
C63_2 C62_2 1_555 1_555
H37_2 C63_2 1_555 1_555
C64_2 C63_2 1_555 1_555
C65_2 C64_2 1_555 1_555
H38_2 C65_2 1_555 1_555
C66_2 C65_2 1_555 1_555
C67_2 C62_2 1_555 1_555
C68_2 C64_2 1_555 1_555
O17 C68_2 1_555 1_555
O10_2 Cu6 1_555 1_555
C69_2 C66_2 1_555 1_555
O19 C69_2 1_555 1_555
Cu11 O3_2 1_555 1_555
N4_2 Cu6 1_555 1_555
O14_2 Cu9 1_555 1_555
N5 Cu9 1_555 1_555
N6_2 Cu4 1_555 1_555
O18_2 Cu9 1_555 1_555
C10_2 C11_2 1_555 1_555
C14_2 C15_2 1_555 1_555
C20_2 C21_2 1_555 1_555
C43_2 C44_2 1_555 1_555
C45_2 O5_2 1_555 1_555
C66_2 C67_2 1_555 1_555
C68_2 O10_2 1_555 1_555
N1_2 C1_2 1_555 1_555
C1_2 H1_2 1_555 1_555
C2_2 C1_2 1_555 1_555
H2_2 C2_2 1_555 1_555
C5_2 N1_2 1_555 1_555
H4_2 C5_2 1_555 1_555
N5 C24_2 1_555 1_555
C24_2 H14_2 1_555 1_555
C25_2 C24_2 1_555 1_555
H15_2 C25_2 1_555 1_555
C26_2 C25_2 1_555 1_555
C27_2 C26_2 1_555 1_555
H16_2 C27_2 1_555 1_555
C28_2 N5 1_555 1_555
H17_2 C28_2 1_555 1_555
C29_2 C26_2 1_555 1_555
C30_2 C29_2 1_555 1_555
H18_2 C30_2 1_555 1_555
C31_2 C30_2 1_555 1_555
H19_2 C31_2 1_555 1_555
C32_2 C31_2 1_555 1_555
C33_2 C32_2 1_555 1_555
C34_2 C29_2 1_555 1_555
C35_2 C34_2 1_555 1_555
H20_2 C35_2 1_555 1_555
C36_2 C35_2 1_555 1_555
H21_2 C36_2 1_555 1_555
C37_2 C36_2 1_555 1_555
H22_2 C37_2 1_555 1_555
C38_2 C33_2 1_555 1_555
H23_2 C38_2 1_555 1_555
Cu7_2 N1_2 1_555 1_555
C27_2 C28_2 1_555 1_555
C33_2 C34_2 1_555 1_555
C37_2 C38_2 1_555 1_555
N6 C47_3 1_555 1_555
C47_3 H27_3 1_555 1_555
C48_3 C47_3 1_555 1_555
H28_3 C48_3 1_555 1_555
C51_3 N6 1_555 1_555
H30_3 C51_3 1_555 1_555
Cu5 O8_3 1_555 1_555
H16_3 C27_3 1_555 1_555
H17_3 C28_3 1_555 1_555
C35_3 C34_3 1_555 1_555
H20_3 C35_3 1_555 1_555
C36_3 C35_3 1_555 1_555
H21_3 C36_3 1_555 1_555
C37_3 C36_3 1_555 1_555
H22_3 C37_3 1_555 1_555
C38_3 C33_3 1_555 1_555
H23_3 C38_3 1_555 1_555
H26_3 C44_3 1_555 1_555
C46_3 C43_3 1_555 1_555
O7_2 C46_3 1_555 1_555
O8_3 C46_3 1_555 1_555
Cu7 O7_2 1_555 1_555
O13_2 Cu5 1_555 1_555
O15_2 Cu5 1_555 1_555
O17_2 Cu5 1_555 1_555
C27_3 C28_3 1_555 1_555
C33_3 C34_3 1_555 1_555
C37_3 C38_3 1_555 1_555
C43_3 C44_3 1_555 1_555
Cu7_2 O1_3 1_555 1_555
C17_3 C16_3 1_555 1_555
H11_3 C17_3 1_555 1_555
C18_3 C17_3 1_555 1_555
C19_3 C18_3 1_555 1_555
H12_3 C19_3 1_555 1_555
C20_3 C19_3 1_555 1_555
C21_3 C16_3 1_555 1_555
C22_3 C18_3 1_555 1_555
O1_3 C22_3 1_555 1_555
O2_2 C22_3 1_555 1_555
C23_3 C20_3 1_555 1_555
O4_3 C23_3 1_555 1_555
N5_2 C24_3 1_555 1_555
C24_3 H14_3 1_555 1_555
C25_3 C24_3 1_555 1_555
H15_3 C25_3 1_555 1_555
C26_3 C25_3 1_555 1_555
C29_3 C26_3 1_555 1_555
C30_3 C29_3 1_555 1_555
H18_3 C30_3 1_555 1_555
C31_3 C30_3 1_555 1_555
H19_3 C31_3 1_555 1_555
C32_3 C31_3 1_555 1_555
C39_3 C32_3 1_555 1_555
C40_3 C39_3 1_555 1_555
H24_3 C40_3 1_555 1_555
C41_3 C40_3 1_555 1_555
C42_3 C41_3 1_555 1_555
H25_3 C42_3 1_555 1_555
C45_3 C41_3 1_555 1_555
O5_3 Cu7_2 1_555 1_555
O6_2 C45_3 1_555 1_555
C50_3 C49_3 1_555 1_555
H29_3 C50_3 1_555 1_555
C52_3 C49_3 1_555 1_555
C53_3 C52_3 1_555 1_555
H31_3 C53_3 1_555 1_555
C54_3 C53_3 1_555 1_555
H32_3 C54_3 1_555 1_555
C55_3 C54_3 1_555 1_555
C56_3 C55_3 1_555 1_555
C57_3 C52_3 1_555 1_555
C58_3 C57_3 1_555 1_555
H33_3 C58_3 1_555 1_555
C59_3 C58_3 1_555 1_555
H34_3 C59_3 1_555 1_555
C60_3 C59_3 1_555 1_555
H35_3 C60_3 1_555 1_555
C61_3 C56_3 1_555 1_555
H36_3 C61_3 1_555 1_555
C62_3 C55_3 1_555 1_555
C63_3 C62_3 1_555 1_555
H37_3 C63_3 1_555 1_555
C64_3 C63_3 1_555 1_555
C65_3 C64_3 1_555 1_555
H38_3 C65_3 1_555 1_555
C66_3 C65_3 1_555 1_555
C67_3 C62_3 1_555 1_555
H39_3 C67_3 1_555 1_555
C68_3 C64_3 1_555 1_555
O9_2 C68_3 1_555 1_555
O10_3 Cu7_2 1_555 1_555
C69_3 C66_3 1_555 1_555
O18_2 C69_3 1_555 1_555
O12_2 C69_3 1_555 1_555
Cu5_2 O2_2 1_555 1_555
Cu11 O12_2 1_555 1_555
O16_2 Cu7_2 1_555 1_555
C20_3 C21_3 1_555 1_555
C45_3 O5_3 1_555 1_555
O6_2 Cu5_2 1_555 1_555
C56_3 C57_3 1_555 1_555
C60_3 C61_3 1_555 1_555
C66_3 C67_3 1_555 1_555
C68_3 O10_3 1_555 1_555
O9_2 Cu5_2 1_555 1_555
N4_2 C1_3 1_555 1_555
C1_3 H1_3 1_555 1_555
C2_3 C1_3 1_555 1_555
H2_3 C2_3 1_555 1_555
C3_3 C2_3 1_555 1_555
C4_3 C3_3 1_555 1_555
H3_3 C4_3 1_555 1_555
C5_3 N4_2 1_555 1_555
H4_3 C5_3 1_555 1_555
C6_3 C3_3 1_555 1_555
C7_3 C6_3 1_555 1_555
H5_3 C7_3 1_555 1_555
C8_3 C7_3 1_555 1_555
C9_3 C8_3 1_555 1_555
C10_3 C9_3 1_555 1_555
C11_3 C6_3 1_555 1_555
C12_3 C11_3 1_555 1_555
H7_3 C12_3 1_555 1_555
C13_3 C12_3 1_555 1_555
H8_3 C13_3 1_555 1_555
C14_3 C13_3 1_555 1_555
H9_3 C14_3 1_555 1_555
C15_3 C10_3 1_555 1_555
H10_3 C15_3 1_555 1_555
C4_3 C5_3 1_555 1_555
C10_3 C11_3 1_555 1_555
C14_3 C15_3 1_555 1_555
N4 C1_4 1_555 1_555
C1_4 H1_4 1_555 1_555
C2_4 C1_4 1_555 1_555
H2_4 C2_4 1_555 1_555
C5_4 N4 1_555 1_555
H4_4 C5_4 1_555 1_555
N2_2 C24_4 1_555 1_555
C24_4 H14_4 1_555 1_555
C25_4 C24_4 1_555 1_555
H15_4 C25_4 1_555 1_555
C26_4 C25_4 1_555 1_555
C27_4 C26_4 1_555 1_555
H16_4 C27_4 1_555 1_555
C28_4 N2_2 1_555 1_555
H17_4 C28_4 1_555 1_555
C29_4 C26_4 1_555 1_555
C30_4 C29_4 1_555 1_555
H18_4 C30_4 1_555 1_555
C31_4 C30_4 1_555 1_555
H19_4 C31_4 1_555 1_555
C32_4 C31_4 1_555 1_555
C33_4 C32_4 1_555 1_555
C34_4 C29_4 1_555 1_555
C35_4 C34_4 1_555 1_555
H20_4 C35_4 1_555 1_555
C36_4 C35_4 1_555 1_555
H21_4 C36_4 1_555 1_555
C37_4 C36_4 1_555 1_555
H22_4 C37_4 1_555 1_555
C38_4 C33_4 1_555 1_555
H23_4 C38_4 1_555 1_555
Cu11 N2_2 1_555 1_555
C27_4 C28_4 1_555 1_555
C33_4 C34_4 1_555 1_555
C37_4 C38_4 1_555 1_555
Cu5_2 O8_4 1_555 1_555
Cu7 O1_4 1_555 1_555
Cu11 O4_4 1_555 1_555
C4_4 C3_4 1_555 1_555
H3_4 C4_4 1_555 1_555
C6_4 C3_4 1_555 1_555
C7_4 C6_4 1_555 1_555
H5_4 C7_4 1_555 1_555
C8_4 C7_4 1_555 1_555
H6_4 C8_4 1_555 1_555
C9_4 C8_4 1_555 1_555
C10_4 C9_4 1_555 1_555
C11_4 C6_4 1_555 1_555
C12_4 C11_4 1_555 1_555
H7_4 C12_4 1_555 1_555
C13_4 C12_4 1_555 1_555
H8_4 C13_4 1_555 1_555
C14_4 C13_4 1_555 1_555
H9_4 C14_4 1_555 1_555
C15_4 C10_4 1_555 1_555
H10_4 C15_4 1_555 1_555
C16_4 C9_4 1_555 1_555
C17_4 C16_4 1_555 1_555
H11_4 C17_4 1_555 1_555
C18_4 C17_4 1_555 1_555
C19_4 C18_4 1_555 1_555
H12_4 C19_4 1_555 1_555
C20_4 C19_4 1_555 1_555
C21_4 C16_4 1_555 1_555
H13_4 C21_4 1_555 1_555
C22_4 C18_4 1_555 1_555
O1_4 C22_4 1_555 1_555
O13_2 C22_4 1_555 1_555
C23_4 C20_4 1_555 1_555
O14_2 C23_4 1_555 1_555
O4_4 C23_4 1_555 1_555
C40_4 C39_4 1_555 1_555
H24_4 C40_4 1_555 1_555
C41_4 C40_4 1_555 1_555
C42_4 C41_4 1_555 1_555
H25_4 C42_4 1_555 1_555
C43_4 C42_4 1_555 1_555
C44_4 C39_4 1_555 1_555
H26_4 C44_4 1_555 1_555
C45_4 C41_4 1_555 1_555
O5_4 Cu7 1_555 1_555
O15_2 C45_4 1_555 1_555
C46_4 C43_4 1_555 1_555
O16_2 C46_4 1_555 1_555
O8_4 C46_4 1_555 1_555
C63_4 C62_4 1_555 1_555
H37_4 C63_4 1_555 1_555
C64_4 C63_4 1_555 1_555
C65_4 C64_4 1_555 1_555
H38_4 C65_4 1_555 1_555
C66_4 C65_4 1_555 1_555
C67_4 C62_4 1_555 1_555
C68_4 C64_4 1_555 1_555
O17_2 C68_4 1_555 1_555
O10_4 Cu7 1_555 1_555
C69_4 C66_4 1_555 1_555
O19_2 C69_4 1_555 1_555
C10_4 C11_4 1_555 1_555
C14_4 C15_4 1_555 1_555
C20_4 C21_4 1_555 1_555
C43_4 C44_4 1_555 1_555
C45_4 O5_4 1_555 1_555
C66_4 C67_4 1_555 1_555
C68_4 O10_4 1_555 1_555
N6_2 C47_4 1_555 1_555
C47_4 H27_4 1_555 1_555
C48_4 C47_4 1_555 1_555
H28_4 C48_4 1_555 1_555
C49_4 C48_4 1_555 1_555
C50_4 C49_4 1_555 1_555
H29_4 C50_4 1_555 1_555
C51_4 N6_2 1_555 1_555
H30_4 C51_4 1_555 1_555
C52_4 C49_4 1_555 1_555
C53_4 C52_4 1_555 1_555
H31_4 C53_4 1_555 1_555
C54_4 C53_4 1_555 1_555
H32_4 C54_4 1_555 1_555
C55_4 C54_4 1_555 1_555
C56_4 C55_4 1_555 1_555
C57_4 C52_4 1_555 1_555
C58_4 C57_4 1_555 1_555
H33_4 C58_4 1_555 1_555
C59_4 C58_4 1_555 1_555
H34_4 C59_4 1_555 1_555
C60_4 C59_4 1_555 1_555
H35_4 C60_4 1_555 1_555
C61_4 C56_4 1_555 1_555
C50_4 C51_4 1_555 1_555
C56_4 C57_4 1_555 1_555
C60_4 C61_4 1_555 1_555

#END
