
###############################################################################
#
# This file contains modified crystal structure data generated from the
# MOF subset of the Cambridge Structural Database (CSD) v543 
# hosted by the Cambridge Crystallographic Data Centre (CCDC).
#
# This work is licensed under the Creative Commons
# Attribution-NonCommercial-ShareAlike 4.0 International License.
# To view a copy of this license, visit
# http://creativecommons.org/licenses/by-nc-sa/4.0/
# or send a letter to
# Creative Commons, PO Box 1866, Mountain View, CA 94042, USA.
#
# CIF created using the CSD Python API on 29 September 2022
# The structure has been converted into the P1 space group
# The structure has a 3D framework
# The original CSD entry EDOVIE is in the trigonal crystal system
# The original CSD entry EDOVIE is in a Sohncke space group
# The framework has been calculated to contain at least 10.0% void space
# The void calculation uses a probe of radius 1.32A, grid spacing 0.4
# The framework is charged, counterions have been retained in the structure
# H atom positions have been added when not included in the experimental data
# Generated hydrogen atom positions removed from atoms on special positions
#
###############################################################################

data_EDOVIE
_chemical_formula_moiety         '(C108 H173 Dy17 N18 O83 Zn6 17+)n'
_symmetry_cell_setting           triclinic
_symmetry_space_group_name_H-M   'P 1'
_symmetry_Int_Tables_number      1
_space_group_name_Hall           'P 1'
loop_
_symmetry_equiv_pos_site_id
_symmetry_equiv_pos_as_xyz
1 x,y,z
_cell_length_a                   18.036(3)
_cell_length_b                   18.036(3)
_cell_length_c                   21.362(4)
_cell_angle_alpha                90
_cell_angle_beta                 90
_cell_angle_gamma                120
_cell_volume                     6018.01
loop_
_atom_site_label
_atom_site_type_symbol
_atom_site_fract_x
_atom_site_fract_y
_atom_site_fract_z
Dy1 Dy 0.06530(2) 0.39876(2) 0.089630(14)
Dy3 Dy 0.00000(3) 0.18676(3) 0.1667
O9 O 0.1190(3) 0.3261(3) 0.1481(2)
H12 H 0.1517 0.3043 0.1544
O10 O 0.0691(4) 0.5322(4) 0.0836(3)
O11 O 0.1322(5) 0.3584(5) 0.0054(3)
O12 O 0.0801(5) 0.1591(4) 0.0855(3)
Dy6 Dy 0.60124(2) 0.66654(3) 0.422963(14)
Dy9 Dy 0.16987(2) 0.39810(3) 0.246013(15)
Dy10 Dy 0.77177(2) 0.60190(3) 0.420653(15)
Zn3 Zn 0.64778(6) 0.64778(6) 0.0000
C19 C 0.5879(5) 0.6044(7) 0.1317(3)
C20 C 0.5889(5) 0.6003(7) 0.1974(3)
H13 H 0.5420 0.5921 0.2209
C21 C 0.6607(5) 0.6087(8) 0.2256(3)
C22 C 0.7304(6) 0.6247(8) 0.1900(3)
H14 H 0.7800 0.6310 0.2084
C23 C 0.7247(6) 0.6311(8) 0.1253(3)
H15 H 0.7722 0.6428 0.1011
C24 C 0.5113(5) 0.5943(7) 0.0968(3)
C25 C 0.4309(5) 0.5612(7) 0.1241(3)
H16 H 0.4232 0.5459 0.1662
C26 C 0.3640(5) 0.5513(7) 0.0891(4)
C27 C 0.3754(6) 0.5737(8) 0.0246(3)
C28 C 0.4568(6) 0.6053(8) 0.0012(3)
C29 C 0.6641(5) 0.6043(8) 0.2967(3)
C30 C 0.2747(6) 0.5093(8) 0.1208(4)
N4 N 0.6554(4) 0.6216(6) 0.0964(2)
N7 N 0.5241(4) 0.6152(6) 0.0342(2)
O15 O 0.7305(4) 0.6046(6) 0.3179(2)
O17 O 0.6085(4) 0.6009(6) 0.3281(2)
O18 O 0.0076(4) 0.3991(6) 0.3385(2)
O19 O 0.2135(4) 0.5040(6) 0.0878(3)
O21 O 0.2710(4) 0.4855(6) 0.1744(2)
O26 O 0.09720(18) 0.16255(26) 0.22208(12)
O27 O 0.02799(18) 0.27850(26) 0.25322(12)
H22 H 0.0236 0.2379 0.2784
O29 O 0.07366(18) 0.43186(26) 0.20018(12)
H24 H 0.1171 0.4880 0.2082
H37 H 0.179089 0.351204 0.0231792
C1 C 0.0165(5) 0.4121(5) 0.7984(3)
C2 C 0.0114(5) 0.4111(5) 0.8641(3)
H1 H 0.0501 0.4580 0.8876
C6 C 0.0830(5) 0.4887(5) 0.7635(3)
C7 C 0.1303(5) 0.5691(5) 0.7908(3)
H4 H 0.1227 0.5768 0.8329
C8 C 0.1873(5) 0.6360(5) 0.7558(4)
C9 C 0.1983(5) 0.6246(6) 0.6913(3)
H5 H 0.2371 0.6696 0.6663
C10 C 0.1485(5) 0.5432(6) 0.6679(3)
H6 H 0.1553 0.5344 0.6259
C12 C 0.2346(6) 0.7253(6) 0.7875(4)
N2 N 0.0911(4) 0.4759(4) 0.7009(2)
O3 O 0.2905(4) 0.7865(4) 0.7545(3)
O4 O 0.2145(4) 0.7290(4) 0.8411(2)
Dy5 Dy 0.33346(3) 0.93470(2) 0.756297(14)
Dy8 Dy 0.22823(2) 0.83013(2) 0.912680(15)
Dy11 Dy 0.18676(3) 0.00000(3) 0.8333
Zn2 Zn 0.00000(8) 0.35222(6) 0.6667
Zn3_2 Zn 0.64778(6) 0.64778(6) 1.0000
H17 H 0.3304 0.5675 0.9996
H18 H 0.4656 0.6209 0.9592
H36 H 0.15587 0.404051 0.973056
O16 O 0.2695(4) 0.8741(4) 0.0154(2)
Dy11_2 Dy 0.18676(3) 1.00000(3) 0.8333
C36 C 0.0418(6) 0.8318(5) 0.9157(3)
O24 O 0.0871(4) 0.7967(4) 0.9248(3)
O25 O 0.06535(19) 0.90280(18) 0.88875(12)
O28 O 0.25051(19) 0.97201(18) 0.91989(12)
H23 H 0.2143 0.9764 0.9451
O30 O 0.35820(19) 0.92634(18) 0.86685(12)
H25 H 0.3709 0.8829 0.8749
O32 O 0.2071(4) 0.8810(3) 0.8148(2)
H27 H 0.1526 0.8483 0.8211
O36 O 0.1454(5) 0.6952(5) 0.9687(3)
O37 O 0.3271(4) 0.7772(4) 0.9455(3)
H44 H 0.393227 0.980658 0.890072
H45 H 0.106518 0.700488 0.998976
H46 H 0.111058 0.648796 0.938351
H47 H 0.302446 0.738576 0.982146
H48 H 0.334398 0.745399 0.910336
Dy2 Dy 0.83013(2) 0.22823(2) 0.087320(15)
Dy3_2 Dy 1.00000(3) 0.18676(3) 0.1667
C18 C 0.8318(5) 0.0418(6) 0.0843(3)
O5 O 0.7967(4) 0.0871(4) 0.0752(3)
O6 O 0.90280(18) 0.06535(19) 0.11125(12)
O7 O 0.97201(18) 0.25051(19) 0.08011(12)
H10 H 0.9764 0.2143 0.0549
O8 O 0.92634(18) 0.35820(19) 0.13315(12)
H11 H 0.8829 0.3709 0.1251
O13 O 0.6952(5) 0.1454(5) 0.0313(3)
O14 O 0.7772(4) 0.3271(4) 0.0545(3)
Dy4 Dy 0.93470(2) 0.33346(3) 0.243703(14)
O20 O 0.7865(4) 0.2905(4) 0.2455(3)
O22 O 0.7290(4) 0.2145(4) 0.1589(2)
O31 O 0.8810(3) 0.2071(4) 0.1852(2)
H26 H 0.8483 0.1526 0.1789
O33 O 0.9309(4) 0.4631(6) 0.2497(3)
O34 O 0.8678(5) 0.2262(7) 0.3279(3)
O35 O 0.9199(5) 0.0790(6) 0.2478(3)
H30 H 0.700488 0.106518 0.00102432
H31 H 0.648796 0.111058 0.061649
H32 H 0.738576 0.302446 0.0178545
H33 H 0.745399 0.334398 0.0896641
C3 C 0.9480(6) 0.3393(5) 0.8923(3)
C4 C 0.8943(6) 0.2696(6) 0.8567(3)
H2 H 0.8510 0.2200 0.8751
C5 C 0.9064(6) 0.2753(6) 0.7920(3)
H3 H 0.8706 0.2278 0.7678
C11 C 0.9402(6) 0.3359(5) 0.9634(3)
N1 N 0.9662(4) 0.3446(4) 0.7631(2)
O1 O 0.8741(4) 0.2695(4) 0.9846(2)
O2 O 0.9924(4) 0.3915(4) 0.9948(2)
Zn2_2 Zn 1.00000(8) 0.35222(6) 0.6667
C13 C 0.7874(5) 0.8313(5) 0.0141(3)
C14 C 0.8306(6) 0.9144(5) 0.0364(3)
H7 H 0.8901 0.9450 0.0357
C15 C 0.7866(5) 0.9526(5) 0.0596(3)
C16 C 0.6983(5) 0.9057(5) 0.0591(4)
H8 H 0.6659 0.9301 0.0715
C17 C 0.6595(5) 0.8213(6) 0.0399(4)
H9 H 0.6002 0.7891 0.0430
N3 N 0.6999(4) 0.7824(4) 0.0174(3)
C31 C 0.8313(5) 0.7874(5) 0.9859(3)
C32 C 0.9144(5) 0.8306(6) 0.9636(3)
H19 H 0.9450 0.8901 0.9643
C33 C 0.9526(5) 0.7866(5) 0.9404(3)
C34 C 0.9057(5) 0.6983(5) 0.9409(4)
H20 H 0.9301 0.6659 0.9285
C35 C 0.8213(6) 0.6595(5) 0.9601(4)
H21 H 0.7891 0.6002 0.9570
N6 N 0.6216(6) 0.6554(4) 0.9036(2)
N9 N 0.6152(6) 0.5241(4) 0.9658(2)
N10 N 0.7824(4) 0.6999(4) 0.9826(3)
Zn1 Zn 0.35222(6) -0.00000(8) 0.3333
C31_2 C 0.2126(5) 0.0439(7) 0.3192(3)
C32_2 C 0.1694(6) 0.0838(8) 0.2969(3)
H19_2 H 0.1099 0.0549 0.2976
C33_2 C 0.2134(5) 0.1660(7) 0.2737(3)
C34_2 C 0.3017(5) 0.2074(7) 0.2742(4)
H20_2 H 0.3341 0.2642 0.2618
C35_2 C 0.3405(5) 0.1618(8) 0.2934(4)
H21_2 H 0.3998 0.1889 0.2903
C36_2 C 0.1682(5) 0.2100(8) 0.2490(3)
N5 N 0.3784(6) 0.0338(7) 0.4298(2)
N9_2 N 0.4759(4) 0.0911(7) 0.2991(2)
N10_2 N 0.3001(4) 0.0825(6) 0.3159(3)
O16_2 O 0.1259(4) 0.3954(6) 0.3487(2)
O24_2 O 0.2033(4) 0.2904(6) 0.2581(3)
O36_2 O 0.3048(5) 0.4502(7) 0.3020(3)
O37_2 O 0.2228(4) 0.5499(6) 0.2788(3)
H44_2 H 0.0193423 0.412569 0.223406
H45_2 H 0.299512 0.40603 0.332309
H46_2 H 0.351204 0.462262 0.271684
H47_2 H 0.261424 0.56387 0.315479
H48_2 H 0.254601 0.588998 0.243669
Zn1_2 Zn 0.35222(6) 1.00000(8) 0.3333
C13_2 C 0.1687(5) 0.9561(7) 0.3474(3)
C14_2 C 0.0856(5) 0.9162(8) 0.3697(3)
H7_2 H 0.0550 0.9451 0.3690
C15_2 C 0.0474(5) 0.8340(7) 0.3929(3)
C16_2 C 0.0943(5) 0.7926(7) 0.3924(4)
H8_2 H 0.0699 0.7358 0.4048
C17_2 C 0.1787(6) 0.8382(8) 0.3732(4)
H9_2 H 0.2109 0.8111 0.3763
N3_2 N 0.2176(4) 0.9175(6) 0.3507(3)
N6_2 N 0.3446(4) 0.9662(7) 0.2369(2)
N8 N 0.3848(6) 0.9089(7) 0.3676(2)
Dy10_2 Dy 0.39810(3) 0.16987(4) 0.753987(15)
C21_2 C 0.3913(8) 0.0520(9) 0.5590(3)
C22_2 C 0.3753(8) 0.1057(10) 0.5234(3)
H14_2 H 0.3690 0.1490 0.5418
C23_2 C 0.3689(8) 0.0936(10) 0.4587(3)
H15_2 H 0.3572 0.1294 0.4345
C29_2 C 0.3957(8) 0.0598(9) 0.6301(3)
O15_2 O 0.3954(6) 0.1259(7) 0.6513(2)
O17_2 O 0.3991(6) 0.0076(7) 0.6615(2)
Dy3_3 Dy 0.81324(3) 0.81324(4) 0.5000
C18_2 C 0.9582(6) 0.7900(8) 0.4176(3)
O5_2 O 0.9129(4) 0.7096(6) 0.4085(3)
O6_2 O 0.93465(19) 0.83745(26) 0.44458(12)
O7_2 O 0.74949(19) 0.72150(26) 0.41344(12)
H10_2 H 0.7857 0.7621 0.3882
O8_2 O 0.64180(19) 0.56814(26) 0.46648(12)
H11_2 H 0.6291 0.5120 0.4584
O9_2 O 0.6739(3) 0.7929(4) 0.4814(2)
H12_2 H 0.6957 0.8474 0.4877
O10_2 O 0.4678(4) 0.5369(6) 0.4169(3)
O11_2 O 0.6416(5) 0.7738(7) 0.3387(3)
O12_2 O 0.8409(4) 0.9210(6) 0.4188(3)
O13_2 O 0.8546(5) 0.5498(7) 0.3646(3)
O14_2 O 0.6729(4) 0.4501(6) 0.3878(3)
Dy4_2 Dy 0.66654(3) 0.60124(4) 0.577037(14)
Dy9_2 Dy 0.60190(3) 0.77177(4) 0.579347(15)
C19_2 C 0.3956(7) 0.9835(9) 0.4651(3)
C20_2 C 0.3997(7) 0.9886(9) 0.5308(3)
H13_2 H 0.4079 0.9499 0.5543
C24_2 C 0.4057(7) 0.9170(9) 0.4302(3)
C25_2 C 0.4388(7) 0.8697(9) 0.4575(3)
H16_2 H 0.4541 0.8773 0.4996
C26_2 C 0.4487(7) 0.8127(9) 0.4225(4)
C27_2 C 0.4263(8) 0.8017(10) 0.3580(3)
H17_2 H 0.4325 0.7629 0.3330
C28_2 C 0.3947(8) 0.8515(10) 0.3346(3)
H18_2 H 0.3791 0.8447 0.2926
C30_2 C 0.4907(8) 0.7654(10) 0.4542(4)
O18_2 O 0.6009(6) 0.6085(7) 0.6719(2)
O19_2 O 0.4960(6) 0.7095(7) 0.4212(3)
O20_2 O 0.7095(4) 0.4960(6) 0.5788(3)
O21_2 O 0.5145(6) 0.7855(7) 0.5078(2)
O22_2 O 0.7855(4) 0.5145(6) 0.4922(2)
O26_2 O 0.83745(26) 0.93465(32) 0.55542(12)
O27_2 O 0.72150(26) 0.74949(32) 0.58656(12)
H22_2 H 0.7621 0.7857 0.6118
O29_2 O 0.56814(26) 0.64180(32) 0.53352(12)
H24_2 H 0.5120 0.6291 0.5416
O31_2 O 0.7929(4) 0.6739(5) 0.5186(2)
H26_2 H 0.8474 0.6957 0.5123
O33_2 O 0.5369(6) 0.4678(7) 0.5831(3)
O34_2 O 0.7738(7) 0.6416(9) 0.6613(3)
O35_2 O 0.9210(6) 0.8409(8) 0.5812(3)
H30_2 H 0.893482 0.59397 0.334358
H31_2 H 0.888942 0.537738 0.394982
H32_2 H 0.697554 0.43613 0.351188
H33_2 H 0.665602 0.411002 0.422997
C13_3 C 0.0439(7) 0.2126(5) 0.6808(3)
C14_3 C 0.0838(8) 0.1694(6) 0.7031(3)
H7_3 H 0.0549 0.1099 0.7024
C15_3 C 0.1660(7) 0.2134(5) 0.7263(3)
C16_3 C 0.2074(7) 0.3017(5) 0.7258(4)
H8_3 H 0.2642 0.3341 0.7382
C17_3 C 0.1618(8) 0.3405(5) 0.7066(4)
H9_3 H 0.1889 0.3998 0.7097
C18_3 C 0.2100(8) 0.1682(5) 0.7510(3)
N3_3 N 0.0825(6) 0.3001(4) 0.6841(3)
O5_3 O 0.2904(6) 0.2033(4) 0.7419(3)
O6_3 O 0.16255(26) 0.09720(18) 0.77792(12)
O7_3 O 0.27850(26) 0.02799(18) 0.74678(12)
H10_3 H 0.2379 0.0236 0.7216
O8_3 O 0.43186(26) 0.07366(18) 0.79982(12)
H11_3 H 0.4880 0.1171 0.7918
O13_3 O 0.4502(7) 0.3048(5) 0.6980(3)
O14_3 O 0.5499(6) 0.2228(4) 0.7212(3)
Dy4_3 Dy 0.39876(4) 0.06530(2) 0.910370(14)
N6_3 N 0.0338(7) 0.3784(6) 0.5702(2)
O20_3 O 0.5040(6) 0.2135(4) 0.9122(3)
O22_3 O 0.4855(6) 0.2710(4) 0.8256(2)
O31_3 O 0.3261(5) 0.1190(3) 0.8519(2)
H26_3 H 0.3043 0.1517 0.8456
O33_3 O 0.5322(7) 0.0691(4) 0.9164(3)
O34_3 O 0.3584(9) 0.1322(5) 0.9946(3)
O35_3 O 0.1591(8) 0.0801(5) 0.9145(3)
H30_3 H 0.40603 0.299512 0.667691
H31_3 H 0.462262 0.351204 0.728316
H32_3 H 0.56387 0.261424 0.684521
H33_3 H 0.588998 0.254601 0.756331
H40 H 0.303231 0.128849 0.983879
O18_3 O 0.3915(7) 0.9924(4) 0.0052(2)
O10_3 O 0.4631(6) 0.9309(4) 0.7503(3)
O11_3 O 0.2262(7) 0.8678(5) 0.6721(3)
O12_3 O 0.0790(6) 0.9199(5) 0.7522(3)
C31_3 C 0.9561(7) 0.1687(5) 0.6526(3)
C32_3 C 0.9162(8) 0.0856(5) 0.6303(3)
H19_3 H 0.9451 0.0550 0.6310
C33_3 C 0.8340(7) 0.0474(5) 0.6071(3)
C34_3 C 0.7926(7) 0.0943(5) 0.6076(4)
H20_3 H 0.7358 0.0699 0.5952
C35_3 C 0.8382(8) 0.1787(6) 0.6268(4)
H21_3 H 0.8111 0.2109 0.6237
N9_3 N 0.9089(7) 0.3848(6) 0.6324(2)
N10_3 N 0.9175(6) 0.2176(4) 0.6493(3)
C36_3 C 0.7900(8) 0.9582(6) 0.5824(3)
O16_3 O 0.6046(6) 0.7305(4) 0.6821(2)
O24_3 O 0.7096(6) 0.9129(4) 0.5915(3)
O36_3 O 0.5498(7) 0.8546(5) 0.6354(3)
O37_3 O 0.4501(6) 0.6729(4) 0.6122(3)
H44_3 H 0.587431 0.606773 0.556739
H45_3 H 0.59397 0.893482 0.665642
H46_3 H 0.537738 0.888942 0.605018
H47_3 H 0.43613 0.697554 0.648812
H48_3 H 0.411002 0.665602 0.577003
C1_2 C 0.4121(5) 0.0165(5) 0.2016(3)
C2_2 C 0.4111(5) 0.0114(5) 0.1359(3)
H1_2 H 0.4580 0.0501 0.1124
C6_2 C 0.4887(5) 0.0830(5) 0.2365(3)
C7_2 C 0.5691(5) 0.1303(5) 0.2092(3)
H4_2 H 0.5768 0.1227 0.1671
C8_2 C 0.6360(5) 0.1873(5) 0.2442(4)
C9_2 C 0.6246(6) 0.1983(5) 0.3087(3)
H5_2 H 0.6696 0.2371 0.3337
C10_2 C 0.5432(6) 0.1485(5) 0.3321(3)
H6_2 H 0.5344 0.1553 0.3741
C12_2 C 0.7253(6) 0.2346(6) 0.2125(4)
H17_3 H 0.5675 0.3304 0.0004
H18_3 H 0.6209 0.4656 0.0408
H36_2 H 0.404051 0.15587 0.0269437
C19_3 C 0.6044(7) 0.5879(5) 0.8683(3)
C20_3 C 0.6003(7) 0.5889(5) 0.8026(3)
H13_3 H 0.5921 0.5420 0.7791
C21_3 C 0.6087(8) 0.6607(5) 0.7744(3)
C22_3 C 0.6247(8) 0.7304(6) 0.8100(3)
H14_3 H 0.6310 0.7800 0.7916
C23_3 C 0.6311(8) 0.7247(6) 0.8747(3)
H15_3 H 0.6428 0.7722 0.8989
C24_3 C 0.5943(7) 0.5113(5) 0.9032(3)
C25_3 C 0.5612(7) 0.4309(5) 0.8759(3)
H16_3 H 0.5459 0.4232 0.8338
C26_3 C 0.5513(7) 0.3640(5) 0.9109(4)
C27_3 C 0.5737(8) 0.3754(6) 0.9754(3)
C28_3 C 0.6053(8) 0.4568(6) 0.9988(3)
C29_3 C 0.6043(8) 0.6641(5) 0.7033(3)
C30_3 C 0.5093(8) 0.2747(6) 0.8792(4)
H37_2 H 0.351204 0.179089 0.976821
C3_2 C 0.3393(5) 0.9480(6) 0.1077(3)
C4_2 C 0.2696(6) 0.8943(6) 0.1433(3)
H2_2 H 0.2200 0.8510 0.1249
C5_2 C 0.2753(6) 0.9064(6) 0.2080(3)
H3_2 H 0.2278 0.8706 0.2322
C11_2 C 0.3359(5) 0.9402(6) 0.0366(3)
H44_4 H 0.980658 0.393227 0.109928
H44_5 H 0.412569 0.0193423 0.776594
C21_4 C 0.0520(9) 0.3913(8) 0.4410(3)
C22_4 C 0.1057(10) 0.3753(8) 0.4766(3)
H14_4 H 0.1490 0.3690 0.4582
C23_4 C 0.0936(10) 0.3689(8) 0.5413(3)
H15_4 H 0.1294 0.3572 0.5655
C29_4 C 0.0598(9) 0.3957(8) 0.3699(3)
C19_4 C 0.9835(9) 0.3956(7) 0.5349(3)
C20_4 C 0.9886(9) 0.3997(7) 0.4692(3)
H13_4 H 0.9499 0.4079 0.4457
C24_4 C 0.9170(9) 0.4057(7) 0.5698(3)
C25_4 C 0.8697(9) 0.4388(7) 0.5425(3)
H16_4 H 0.8773 0.4541 0.5004
C26_4 C 0.8127(9) 0.4487(7) 0.5775(4)
C27_4 C 0.8017(10) 0.4263(8) 0.6420(3)
H17_4 H 0.7629 0.4325 0.6670
C28_4 C 0.8515(10) 0.3947(8) 0.6654(3)
H18_4 H 0.8447 0.3791 0.7074
C30_4 C 0.7654(10) 0.4907(8) 0.5458(4)
H40_2 H 0.128849 0.303231 0.0161208
H44_6 H 0.606773 0.587431 0.443261
H41 H 0.352146 0.101513 0.0345805
H41_2 H 0.101513 0.352146 0.965419
loop_
_geom_bond_atom_site_label_1
_geom_bond_atom_site_label_2
_geom_bond_site_symmetry_1
_geom_bond_site_symmetry_2
O9 Dy1 1_555 1_555
H12 O9 1_555 1_555
O10 Dy1 1_555 1_555
O11 Dy1 1_555 1_555
O12 Dy3 1_555 1_555
Dy6 O17 1_555 1_555
Dy9 O9 1_555 1_555
Dy10 O15 1_555 1_555
Zn3 N4 1_555 1_555
C19 C20 1_555 1_555
C20 H13 1_555 1_555
C21 C20 1_555 1_555
C22 C21 1_555 1_555
H14 C22 1_555 1_555
C23 C22 1_555 1_555
H15 C23 1_555 1_555
C24 C19 1_555 1_555
C25 C24 1_555 1_555
H16 C25 1_555 1_555
C26 C25 1_555 1_555
C27 C26 1_555 1_555
C28 C27 1_555 1_555
C29 C21 1_555 1_555
C30 C26 1_555 1_555
N4 C19 1_555 1_555
N7 Zn3 1_555 1_555
O15 C29 1_555 1_555
O17 C29 1_555 1_555
O19 Dy1 1_555 1_555
O21 Dy9 1_555 1_555
O26 Dy3 1_555 1_555
O27 Dy3 1_555 1_555
H22 O27 1_555 1_555
O29 Dy1 1_555 1_555
H24 O29 1_555 1_555
Dy3 O9 1_555 1_555
Dy9 O27 1_555 1_555
Dy9 O29 1_555 1_555
C23 N4 1_555 1_555
C24 N7 1_555 1_555
C28 N7 1_555 1_555
C30 O19 1_555 1_555
C30 O21 1_555 1_555
O11 H37 1_555 1_555
C1 C2 1_555 1_555
C2 H1 1_555 1_555
C6 C1 1_555 1_555
C7 C6 1_555 1_555
H4 C7 1_555 1_555
C8 C7 1_555 1_555
C9 C8 1_555 1_555
H5 C9 1_555 1_555
C10 C9 1_555 1_555
H6 C10 1_555 1_555
C12 C8 1_555 1_555
N2 C6 1_555 1_555
O3 C12 1_555 1_555
O4 C12 1_555 1_555
Dy5 O3 1_555 1_555
Dy8 O4 1_555 1_555
C10 N2 1_555 1_555
N2 Zn2 1_555 1_555
Dy11_2 O25 1_555 1_555
O24 Dy8 1_555 1_555
O25 C36 1_555 1_555
O28 Dy8 1_555 1_555
H23 O28 1_555 1_555
O30 Dy8 1_555 1_555
H25 O30 1_555 1_555
O32 Dy8 1_555 1_555
H27 O32 1_555 1_555
O36 Dy8 1_555 1_555
O37 Dy8 1_555 1_555
Dy11_2 O28 1_555 1_555
Dy11_2 O32 1_555 1_555
C36 O24 1_555 1_555
O30 H44 1_555 1_555
O36 H45 1_555 1_555
O36 H46 1_555 1_555
O37 H47 1_555 1_555
O37 H48 1_555 1_555
Dy3_2 O6 1_555 1_555
O5 Dy2 1_555 1_555
O6 C18 1_555 1_555
H10 O7 1_555 1_555
H11 O8 1_555 1_555
O13 Dy2 1_555 1_555
O14 Dy2 1_555 1_555
Dy4 O8 1_555 1_555
O20 Dy4 1_555 1_555
O22 Dy2 1_555 1_555
O31 Dy2 1_555 1_555
H26 O31 1_555 1_555
O33 Dy4 1_555 1_555
O34 Dy4 1_555 1_555
O35 Dy3_2 1_555 1_555
Dy2 O7 1_555 1_555
Dy2 O8 1_555 1_555
Dy3_2 O7 1_555 1_555
Dy3_2 O31 1_555 1_555
C18 O5 1_555 1_555
Dy4 O31 1_555 1_555
O13 H30 1_555 1_555
O13 H31 1_555 1_555
O14 H32 1_555 1_555
O14 H33 1_555 1_555
C4 C3 1_555 1_555
H2 C4 1_555 1_555
C5 C4 1_555 1_555
H3 C5 1_555 1_555
C11 C3 1_555 1_555
O1 C11 1_555 1_555
O2 C11 1_555 1_555
Zn2_2 N1 1_555 1_555
C5 N1 1_555 1_555
Zn3 N3 1_555 1_555
C13 C14 1_555 1_555
C14 H7 1_555 1_555
C15 C14 1_555 1_555
C16 C15 1_555 1_555
H8 C16 1_555 1_555
C17 C16 1_555 1_555
H9 C17 1_555 1_555
N3 C13 1_555 1_555
C17 N3 1_555 1_555
C32 C31 1_555 1_555
H19 C32 1_555 1_555
C33 C32 1_555 1_555
C34 C33 1_555 1_555
H20 C34 1_555 1_555
C35 C34 1_555 1_555
H21 C35 1_555 1_555
N6 Zn3_2 1_555 1_555
N9 Zn3_2 1_555 1_555
N10 Zn3_2 1_555 1_555
C31 N10 1_555 1_555
C35 N10 1_555 1_555
Dy9 O16_2 1_555 1_555
C32_2 C31_2 1_555 1_555
H19_2 C32_2 1_555 1_555
C33_2 C32_2 1_555 1_555
C34_2 C33_2 1_555 1_555
H20_2 C34_2 1_555 1_555
C35_2 C34_2 1_555 1_555
H21_2 C35_2 1_555 1_555
C36_2 C33_2 1_555 1_555
N5 Zn1 1_555 1_555
N9_2 Zn1 1_555 1_555
N10_2 Zn1 1_555 1_555
O24_2 Dy9 1_555 1_555
O26 C36_2 1_555 1_555
O36_2 Dy9 1_555 1_555
O37_2 Dy9 1_555 1_555
C31_2 N10_2 1_555 1_555
C35_2 N10_2 1_555 1_555
C36_2 O24_2 1_555 1_555
O29 H44_2 1_555 1_555
O36_2 H45_2 1_555 1_555
O36_2 H46_2 1_555 1_555
O37_2 H47_2 1_555 1_555
O37_2 H48_2 1_555 1_555
Zn1_2 N3_2 1_555 1_555
C13_2 C14_2 1_555 1_555
C14_2 H7_2 1_555 1_555
C15_2 C14_2 1_555 1_555
C16_2 C15_2 1_555 1_555
H8_2 C16_2 1_555 1_555
C17_2 C16_2 1_555 1_555
H9_2 C17_2 1_555 1_555
N3_2 C13_2 1_555 1_555
N6_2 Zn1_2 1_555 1_555
N8 Zn1_2 1_555 1_555
C17_2 N3_2 1_555 1_555
Dy10_2 O15_2 1_555 1_555
C22_2 C21_2 1_555 1_555
H14_2 C22_2 1_555 1_555
C23_2 C22_2 1_555 1_555
H15_2 C23_2 1_555 1_555
C29_2 C21_2 1_555 1_555
O15_2 C29_2 1_555 1_555
O17_2 C29_2 1_555 1_555
C23_2 N5 1_555 1_555
Dy3_3 O6_2 1_555 1_555
O5_2 Dy10 1_555 1_555
O6_2 C18_2 1_555 1_555
O7_2 Dy6 1_555 1_555
H10_2 O7_2 1_555 1_555
O8_2 Dy6 1_555 1_555
H11_2 O8_2 1_555 1_555
O9_2 Dy6 1_555 1_555
H12_2 O9_2 1_555 1_555
O10_2 Dy6 1_555 1_555
O11_2 Dy6 1_555 1_555
O12_2 Dy3_3 1_555 1_555
O13_2 Dy10 1_555 1_555
O14_2 Dy10 1_555 1_555
Dy4_2 O8_2 1_555 1_555
Dy9_2 O9_2 1_555 1_555
C19_2 C20_2 1_555 1_555
C20_2 H13_2 1_555 1_555
C24_2 C19_2 1_555 1_555
C25_2 C24_2 1_555 1_555
H16_2 C25_2 1_555 1_555
C26_2 C25_2 1_555 1_555
C27_2 C26_2 1_555 1_555
H17_2 C27_2 1_555 1_555
C28_2 C27_2 1_555 1_555
H18_2 C28_2 1_555 1_555
C30_2 C26_2 1_555 1_555
O18_2 Dy4_2 1_555 1_555
O19_2 Dy6 1_555 1_555
O20_2 Dy4_2 1_555 1_555
O21_2 Dy9_2 1_555 1_555
O22_2 Dy10 1_555 1_555
O26_2 Dy3_3 1_555 1_555
O27_2 Dy3_3 1_555 1_555
H22_2 O27_2 1_555 1_555
O29_2 Dy6 1_555 1_555
H24_2 O29_2 1_555 1_555
O31_2 Dy10 1_555 1_555
H26_2 O31_2 1_555 1_555
O33_2 Dy4_2 1_555 1_555
O34_2 Dy4_2 1_555 1_555
O35_2 Dy3_3 1_555 1_555
Dy10 O7_2 1_555 1_555
Dy10 O8_2 1_555 1_555
Dy3_3 O7_2 1_555 1_555
Dy3_3 O9_2 1_555 1_555
Dy3_3 O31_2 1_555 1_555
C18_2 O5_2 1_555 1_555
Dy4_2 O27_2 1_555 1_555
Dy4_2 O29_2 1_555 1_555
Dy4_2 O31_2 1_555 1_555
Dy9_2 O27_2 1_555 1_555
Dy9_2 O29_2 1_555 1_555
C24_2 N8 1_555 1_555
C28_2 N8 1_555 1_555
C30_2 O19_2 1_555 1_555
C30_2 O21_2 1_555 1_555
O13_2 H30_2 1_555 1_555
O13_2 H31_2 1_555 1_555
O14_2 H32_2 1_555 1_555
O14_2 H33_2 1_555 1_555
Dy11 O6_3 1_555 1_555
Zn2 N3_3 1_555 1_555
C13_3 C14_3 1_555 1_555
C14_3 H7_3 1_555 1_555
C15_3 C14_3 1_555 1_555
C16_3 C15_3 1_555 1_555
H8_3 C16_3 1_555 1_555
C17_3 C16_3 1_555 1_555
H9_3 C17_3 1_555 1_555
C18_3 C15_3 1_555 1_555
N3_3 C13_3 1_555 1_555
O5_3 Dy10_2 1_555 1_555
O6_3 C18_3 1_555 1_555
H10_3 O7_3 1_555 1_555
H11_3 O8_3 1_555 1_555
O13_3 Dy10_2 1_555 1_555
O14_3 Dy10_2 1_555 1_555
Dy4_3 O8_3 1_555 1_555
N6_3 Zn2 1_555 1_555
O20_3 Dy4_3 1_555 1_555
O22_3 Dy10_2 1_555 1_555
O31_3 Dy10_2 1_555 1_555
H26_3 O31_3 1_555 1_555
O33_3 Dy4_3 1_555 1_555
O34_3 Dy4_3 1_555 1_555
O35_3 Dy11 1_555 1_555
Dy10_2 O7_3 1_555 1_555
Dy10_2 O8_3 1_555 1_555
Dy11 O7_3 1_555 1_555
Dy11 O31_3 1_555 1_555
C17_3 N3_3 1_555 1_555
C18_3 O5_3 1_555 1_555
Dy4_3 O31_3 1_555 1_555
O13_3 H30_3 1_555 1_555
O13_3 H31_3 1_555 1_555
O14_3 H32_3 1_555 1_555
O14_3 H33_3 1_555 1_555
O34_3 H40 1_555 1_555
O32 Dy5 1_555 1_555
O10_3 Dy5 1_555 1_555
O11_3 Dy5 1_555 1_555
O12_3 Dy11_2 1_555 1_555
O30 Dy5 1_555 1_555
C32_3 C31_3 1_555 1_555
H19_3 C32_3 1_555 1_555
C33_3 C32_3 1_555 1_555
C34_3 C33_3 1_555 1_555
H20_3 C34_3 1_555 1_555
C35_3 C34_3 1_555 1_555
H21_3 C35_3 1_555 1_555
N9_3 Zn2_2 1_555 1_555
N10_3 Zn2_2 1_555 1_555
C31_3 N10_3 1_555 1_555
C35_3 N10_3 1_555 1_555
Dy9_2 O16_3 1_555 1_555
O24_3 Dy9_2 1_555 1_555
O26_2 C36_3 1_555 1_555
O36_3 Dy9_2 1_555 1_555
O37_3 Dy9_2 1_555 1_555
C36_3 O24_3 1_555 1_555
O29_2 H44_3 1_555 1_555
O36_3 H45_3 1_555 1_555
O36_3 H46_3 1_555 1_555
O37_3 H47_3 1_555 1_555
O37_3 H48_3 1_555 1_555
C1_2 C2_2 1_555 1_555
C2_2 H1_2 1_555 1_555
C6_2 C1_2 1_555 1_555
C7_2 C6_2 1_555 1_555
H4_2 C7_2 1_555 1_555
C8_2 C7_2 1_555 1_555
C9_2 C8_2 1_555 1_555
H5_2 C9_2 1_555 1_555
C10_2 C9_2 1_555 1_555
H6_2 C10_2 1_555 1_555
C12_2 C8_2 1_555 1_555
N9_2 C6_2 1_555 1_555
O20 C12_2 1_555 1_555
O22 C12_2 1_555 1_555
C10_2 N9_2 1_555 1_555
C19_3 C20_3 1_555 1_555
C20_3 H13_3 1_555 1_555
C21_3 C20_3 1_555 1_555
C22_3 C21_3 1_555 1_555
H14_3 C22_3 1_555 1_555
C23_3 C22_3 1_555 1_555
H15_3 C23_3 1_555 1_555
C24_3 C19_3 1_555 1_555
C25_3 C24_3 1_555 1_555
H16_3 C25_3 1_555 1_555
C26_3 C25_3 1_555 1_555
C27_3 C26_3 1_555 1_555
C28_3 C27_3 1_555 1_555
C29_3 C21_3 1_555 1_555
C30_3 C26_3 1_555 1_555
N6 C19_3 1_555 1_555
O16_3 C29_3 1_555 1_555
O18_2 C29_3 1_555 1_555
C23_3 N6 1_555 1_555
C24_3 N9 1_555 1_555
C28_3 N9 1_555 1_555
C30_3 O20_3 1_555 1_555
C30_3 O22_3 1_555 1_555
O34_3 H37_2 1_555 1_555
C4_2 C3_2 1_555 1_555
H2_2 C4_2 1_555 1_555
C5_2 C4_2 1_555 1_555
H3_2 C5_2 1_555 1_555
C11_2 C3_2 1_555 1_555
O16 C11_2 1_555 1_555
O18_3 C11_2 1_555 1_555
C5_2 N6_2 1_555 1_555
O8 H44_4 1_555 1_555
O8_3 H44_5 1_555 1_555
C22_4 C21_4 1_555 1_555
H14_4 C22_4 1_555 1_555
C23_4 C22_4 1_555 1_555
H15_4 C23_4 1_555 1_555
C29_4 C21_4 1_555 1_555
O16_2 C29_4 1_555 1_555
O18 C29_4 1_555 1_555
C23_4 N6_3 1_555 1_555
C19_4 C20_4 1_555 1_555
C20_4 H13_4 1_555 1_555
C24_4 C19_4 1_555 1_555
C25_4 C24_4 1_555 1_555
H16_4 C25_4 1_555 1_555
C26_4 C25_4 1_555 1_555
C27_4 C26_4 1_555 1_555
H17_4 C27_4 1_555 1_555
C28_4 C27_4 1_555 1_555
H18_4 C28_4 1_555 1_555
C30_4 C26_4 1_555 1_555
C24_4 N9_3 1_555 1_555
C28_4 N9_3 1_555 1_555
C30_4 O20_2 1_555 1_555
C30_4 O22_2 1_555 1_555
O11 H40_2 1_555 1_555
O8_2 H44_6 1_555 1_555

#END
