
###############################################################################
#
# This file contains modified crystal structure data generated from the
# MOF subset of the Cambridge Structural Database (CSD) v543 
# hosted by the Cambridge Crystallographic Data Centre (CCDC).
#
# This work is licensed under the Creative Commons
# Attribution-NonCommercial-ShareAlike 4.0 International License.
# To view a copy of this license, visit
# http://creativecommons.org/licenses/by-nc-sa/4.0/
# or send a letter to
# Creative Commons, PO Box 1866, Mountain View, CA 94042, USA.
#
# CIF created using the CSD Python API on 29 September 2022
# The structure has been converted into the P1 space group
# The structure has a 3D framework
# The original CSD entry EDOVEA is in the trigonal crystal system
# The original CSD entry EDOVEA is in a Sohncke space group
# The framework has been calculated to contain at least 10.0% void space
# The void calculation uses a probe of radius 1.32A, grid spacing 0.4
# The framework is charged, counterions have been retained in the structure
# H atom positions have been added when not included in the experimental data
# Generated hydrogen atom positions removed from atoms on special positions
#
###############################################################################

data_EDOVEA
_chemical_formula_moiety         '(C108 H192 Gd17 N18 O84 Zn6 17+)n'
_symmetry_cell_setting           triclinic
_symmetry_space_group_name_H-M   'P 1'
_symmetry_Int_Tables_number      1
_space_group_name_Hall           'P 1'
loop_
_symmetry_equiv_pos_site_id
_symmetry_equiv_pos_as_xyz
1 x,y,z
_cell_length_a                   17.9869(3)
_cell_length_b                   17.9869(3)
_cell_length_c                   21.3482(4)
_cell_angle_alpha                90
_cell_angle_beta                 90
_cell_angle_gamma                120
_cell_volume                     5981.42
loop_
_atom_site_label
_atom_site_type_symbol
_atom_site_fract_x
_atom_site_fract_y
_atom_site_fract_z
Gd6 Gd 0.22891(3) 0.40166(4) 0.42111(2)
Gd8 Gd 0.18808(4) 0.18808(4) 0.5000
Zn3 Zn 0.64894(8) 0.0000 0.3333
C19 C 0.0416(10) 0.2106(7) 0.4164(5)
C26 C 0.6639(6) 0.0634(6) 0.0384(4)
C27 C 0.7278(6) 0.0944(7) 0.2082(4)
H16 H 0.7763 0.1290 0.2320
C28 C 0.7317(7) 0.1068(7) 0.1436(4)
H17 H 0.7808 0.1508 0.1249
C29 C 0.6620(6) 0.0533(6) 0.1081(4)
N5 N 0.6569(4) 0.0344(4) 0.2374(3)
O18 O 0.0662(7) 0.1634(5) 0.4431(4)
O20 O 0.0864(4) 0.2902(3) 0.4083(2)
O25 O 0.6055(4) 0.0087(4) 0.0067(3)
O27 O 0.7288(4) 0.1310(4) 0.0166(3)
Gd7 Gd 0.77109(3) 0.17275(3) 0.91222(2)
Gd1 Gd 0.17275(3) 0.77109(3) 0.08778(2)
Gd2 Gd -0.0000 0.81192(4) 0.1667
Gd3 Gd 0.06527(3) 0.66384(3) 0.24474(2)
O1 O 0.0801(2) 0.9217(2) 0.24662(16)
O2 O 0.1219(2) 0.7927(2) 0.18518(16)
H10 H 0.1554 0.8407 0.2102
O6 O 0.0746(3) 0.6404(3) 0.1335(2)
H12 H 0.0807 0.6008 0.1227
O7 O 0.0711(4) 0.5325(4) 0.2501(3)
O8 O 0.1326(5) 0.7723(5) 0.3280(3)
O11 O 0.2255(4) 0.6699(4) 0.0556(3)
O12 O 0.3128(4) 0.8599(4) 0.0347(3)
Zn3_2 Zn 0.64894(8) 1.0000 0.3333
C25 C 0.2750(6) 0.7579(6) 0.2170(5)
C30 C 0.5886(6) 0.9901(6) 0.1375(4)
H18 H 0.5404 0.9530 0.1142
C31 C 0.5885(5) 0.9834(5) 0.2019(4)
C32 C 0.5125(6) 0.9186(6) 0.2368(4)
C33 C 0.4293(6) 0.8661(6) 0.2102(5)
H19 H 0.4205 0.8705 0.1677
C34 C 0.3642(7) 0.8111(6) 0.2458(5)
C35 C 0.3779(7) 0.8023(6) 0.3088(4)
H20 H 0.3332 0.7633 0.3341
C36 C 0.4589(7) 0.8525(6) 0.3330(5)
H21 H 0.4684 0.8454 0.3749
N8 N 0.5246(5) 0.9109(5) 0.2992(3)
O17 O 0.0316(2) 0.7488(3) 0.07982(16)
H23 H 0.0299 0.7772 0.0451
O19 O 0.0972(5) 0.9338(7) 0.1097(4)
O21 O 0.2038(3) 0.9136(4) 0.0749(2)
O31 O 0.2713(5) 0.7778(4) 0.1601(3)
O33 O 0.2149(4) 0.7064(4) 0.2491(3)
C8 C 0.0634(6) 0.6639(6) 0.9616(4)
C9 C 0.0944(7) 0.7278(6) 0.7918(4)
H4 H 0.1290 0.7763 0.7680
C10 C 0.1068(7) 0.7317(7) 0.8564(4)
H5 H 0.1508 0.7808 0.8751
C11 C 0.0533(6) 0.6620(6) 0.8919(4)
N2 N 0.0344(4) 0.6569(4) 0.7626(3)
O9 O 0.0087(4) 0.6055(4) 0.9933(3)
O10 O 0.1310(4) 0.7288(4) 0.9834(3)
Gd11 Gd 0.59857(4) 0.93473(3) 0.91141(2)
Zn2 Zn 0.0000 0.64894(8) 0.6667
H34 H 0.313229 0.832516 0.994416
C20 C 0.9514(10) 0.1653(7) 0.3921(5)
C21 C 0.9134(8) 0.0831(6) 0.3695(4)
H13 H 0.9441 0.0541 0.3692
C22 C 0.8302(8) 0.0427(5) 0.3473(4)
C23 C 0.8185(8) 0.1611(6) 0.3736(4)
H14 H 0.7847 0.1866 0.3764
C24 C 0.9022(9) 0.2071(6) 0.3931(5)
H15 H 0.9258 0.2636 0.4065
N4 N 0.7835(7) 0.0821(5) 0.3510(3)
N10 N 0.6137(7) 0.0891(5) 0.3675(3)
Gd2_2 Gd 1.0000 0.81192(4) 0.1667
C1 C 0.8310(7) 0.7894(7) 0.2503(5)
C2 C 0.7861(7) 0.8347(7) 0.2746(5)
C3 C 0.8303(6) 0.9169(6) 0.2972(4)
H1 H 0.8900 0.9459 0.2975
C4 C 0.7875(6) 0.9573(5) 0.3194(4)
C5 C 0.6574(6) 0.8389(6) 0.2931(4)
H2 H 0.5981 0.8134 0.2903
C6 C 0.6951(7) 0.7929(6) 0.2736(5)
H3 H 0.6622 0.7364 0.2602
N1 N 0.7014(5) 0.9179(5) 0.3157(3)
O3 O 0.9684(2) 0.7172(2) 0.25351(16)
H11 H 0.9701 0.7473 0.2882
O4 O 0.9028(5) 0.8366(5) 0.2236(4)
O5 O 0.7962(3) 0.7098(3) 0.2584(2)
Gd4 Gd 0.82725(3) 0.59834(4) 0.24555(2)
Gd9 Gd 0.93473(3) 0.59857(4) 0.08859(2)
N7 N 0.6225(6) 0.9656(4) 0.4293(3)
O15 O 0.9199(2) 0.8416(3) 0.08671(16)
O16 O 0.8781(2) 0.6708(3) 0.14815(16)
H22 H 0.8446 0.6853 0.1231
O22 O 0.9254(3) 0.5658(4) 0.1998(2)
H24 H 0.9193 0.5201 0.2106
O23 O 0.9289(4) 0.4614(6) 0.0832(3)
O24 O 0.8674(5) 0.6397(7) 0.0053(3)
O26 O 0.9913(4) 0.5968(6) 0.3400(3)
O28 O 0.8690(4) 0.5978(6) 0.3499(3)
O29 O 0.7745(4) 0.4444(6) 0.2777(3)
O30 O 0.6872(4) 0.5471(6) 0.2986(3)
O32 O 0.7287(5) 0.5065(6) 0.1732(3)
O34 O 0.7851(4) 0.4915(6) 0.0842(3)
H36 H 0.804331 0.600159 0.00589147
C7 C 0.7579(6) 0.2750(6) 0.7830(5)
C12 C 0.9901(6) 0.5886(6) 0.8625(4)
H6 H 0.9530 0.5404 0.8858
C13 C 0.9834(5) 0.5885(5) 0.7981(4)
C14 C 0.9186(6) 0.5125(6) 0.7632(4)
C15 C 0.8661(6) 0.4293(6) 0.7898(5)
H7 H 0.8705 0.4205 0.8323
C16 C 0.8111(6) 0.3642(7) 0.7542(5)
C17 C 0.8023(6) 0.3779(7) 0.6912(4)
H8 H 0.7633 0.3332 0.6659
C18 C 0.8525(6) 0.4589(7) 0.6670(5)
H9 H 0.8454 0.4684 0.6251
N3 N 0.9109(5) 0.5246(5) 0.7008(3)
O13 O 0.7778(4) 0.2713(5) 0.8399(3)
O14 O 0.7064(4) 0.2149(4) 0.7509(3)
Gd10 Gd 0.66384(3) 0.06527(3) 0.75526(2)
Zn2_2 Zn 1.0000 0.64894(8) 0.6667
H35 H 0.89078 0.636096 0.964024
Gd3_2 Gd 0.33616(3) 0.40143(4) 0.57807(2)
C1_2 C 0.2106(7) 0.0416(10) 0.5836(5)
C7_2 C 0.7250(6) 0.4829(8) 0.1163(5)
C8_2 C 0.3361(6) 0.3995(8) 0.2949(4)
C9_2 C 0.2722(6) 0.3666(9) 0.1251(4)
H4_2 H 0.2237 0.3527 0.1013
C10_2 C 0.2683(7) 0.3751(10) 0.1897(4)
H5_2 H 0.2192 0.3700 0.2084
C11_2 C 0.3380(6) 0.3913(8) 0.2252(4)
C12_2 C 0.4114(6) 0.4015(8) 0.1958(4)
H6_2 H 0.4596 0.4126 0.2191
C13_2 C 0.4115(5) 0.3949(7) 0.1314(4)
C14_2 C 0.4875(6) 0.4061(8) 0.0965(4)
C15_2 C 0.5707(6) 0.4368(8) 0.1231(5)
H7_2 H 0.5795 0.4500 0.1656
C16_2 C 0.6358(7) 0.4469(9) 0.0875(5)
C17_2 C 0.6221(7) 0.4244(9) 0.0245(4)
C18_2 C 0.5411(7) 0.3936(9) 0.0003(5)
N2_2 N 0.3431(4) 0.3775(6) 0.0959(3)
N3_2 N 0.4754(5) 0.3863(7) 0.0341(3)
O1_2 O 0.0783(2) 0.1584(3) 0.57995(16)
O2_2 O 0.2073(2) 0.3292(3) 0.51851(16)
H10_2 H 0.1593 0.3147 0.5435
O3_2 O 0.2828(2) 0.2512(3) 0.58684(16)
H11_2 H 0.2527 0.2228 0.6215
O4_2 O 0.1634(5) 0.0662(7) 0.5569(4)
O5_2 O 0.2902(3) 0.0864(4) 0.5917(2)
O6_2 O 0.3596(3) 0.4342(4) 0.4668(2)
H12_2 H 0.3992 0.4799 0.4560
O7_2 O 0.4675(4) 0.5386(6) 0.5834(3)
O8_2 O 0.2277(5) 0.3603(7) 0.6613(3)
O9_2 O 0.3945(4) 0.4032(6) 0.3266(3)
O10_2 O 0.2712(4) 0.4022(6) 0.3167(3)
O11_2 O 0.3301(4) 0.5556(6) 0.3889(3)
O12_2 O 0.1401(4) 0.4529(6) 0.3680(3)
Gd4_2 Gd 0.40166(4) 0.22891(5) 0.57889(2)
Gd9_2 Gd 0.40143(4) 0.33616(5) 0.42193(2)
Zn2_3 Zn 0.35106(8) 0.35106(8) 0.0000
C25_2 C 0.2421(6) 0.5171(8) 0.5503(5)
C30_2 C 0.0099(6) 0.5985(8) 0.4708(4)
H18_2 H 0.0470 0.5874 0.4475
C31_2 C 0.0166(5) 0.6051(7) 0.5352(4)
C32_2 C 0.0814(6) 0.5939(8) 0.5701(4)
C33_2 C 0.1339(6) 0.5632(8) 0.5435(5)
H19_2 H 0.1295 0.5500 0.5010
C34_2 C 0.1889(6) 0.5531(9) 0.5791(5)
C35_2 C 0.1977(6) 0.5756(9) 0.6421(4)
H20_2 H 0.2367 0.5699 0.6674
C36_2 C 0.1475(6) 0.6064(9) 0.6663(5)
H21_2 H 0.1546 0.6230 0.7082
N8_2 N 0.0891(5) 0.6137(7) 0.6325(3)
O15_2 O 0.1584(3) 0.0783(4) 0.42005(16)
O16_2 O 0.3292(3) 0.2073(4) 0.48149(16)
H22_2 H 0.3147 0.1593 0.4565
O17_2 O 0.2512(3) 0.2828(4) 0.41316(16)
H23_2 H 0.2228 0.2527 0.3785
O22_2 O 0.4342(4) 0.3596(5) 0.5332(2)
H24_2 H 0.4799 0.3992 0.5440
O23_2 O 0.5386(6) 0.4675(7) 0.4166(3)
O24_2 O 0.3603(7) 0.2277(9) 0.3387(3)
O26_2 O 0.4032(6) 0.3945(7) 0.6734(3)
O28_2 O 0.4022(6) 0.2712(7) 0.6833(3)
O29_2 O 0.5556(6) 0.3301(7) 0.6111(3)
O30_2 O 0.4529(6) 0.1401(7) 0.6320(3)
O31_2 O 0.2222(4) 0.4935(6) 0.4934(3)
O32_2 O 0.4935(6) 0.2222(8) 0.5066(3)
O33_2 O 0.2936(4) 0.5085(6) 0.5824(3)
O34_2 O 0.5085(6) 0.2936(7) 0.4176(3)
H8_2 H 0.6668 0.4301 0.9992
H9_2 H 0.5316 0.3770 0.9584
Zn2_4 Zn 0.35106(8) 0.35106(8) 1.0000
C2_2 C 0.1653(7) 0.9514(10) 0.6079(5)
C3_2 C 0.0831(6) 0.9134(8) 0.6305(4)
H1_2 H 0.0541 0.9441 0.6308
C4_2 C 0.0427(5) 0.8302(8) 0.6527(4)
C5_2 C 0.1611(6) 0.8185(8) 0.6264(4)
H2_2 H 0.1866 0.7847 0.6236
C6_2 C 0.2071(6) 0.9022(9) 0.6069(5)
H3_2 H 0.2636 0.9258 0.5935
N1_2 N 0.0821(5) 0.7835(7) 0.6490(3)
Gd8_2 Gd 0.81192(4) 0.00000(6) 0.8333
C26_2 C 0.9366(6) 0.6005(8) 0.3717(4)
C27_2 C 0.9056(7) 0.6334(9) 0.5415(4)
H16_2 H 0.8710 0.6473 0.5653
C28_2 C 0.8932(7) 0.6249(10) 0.4769(4)
H17_2 H 0.8492 0.6300 0.4582
C29_2 C 0.9467(6) 0.6087(8) 0.4414(4)
N5_2 N 0.9656(4) 0.6225(6) 0.5707(3)
Gd6_2 Gd 0.59834(4) 0.82725(5) 0.75445(2)
Gd8_3 Gd 0.81192(4) 1.00000(6) 0.8333
C19_2 C 0.7894(7) 0.8310(12) 0.7497(5)
C20_2 C 0.8347(7) 0.7861(12) 0.7254(5)
C21_2 C 0.9169(6) 0.8303(10) 0.7028(4)
H13_2 H 0.9459 0.8900 0.7025
C22_2 C 0.9573(5) 0.7875(9) 0.6806(4)
C23_2 C 0.8389(6) 0.6574(10) 0.7069(4)
H14_2 H 0.8134 0.5981 0.7097
C24_2 C 0.7929(6) 0.6951(11) 0.7264(5)
H15_2 H 0.7364 0.6622 0.7398
N4_2 N 0.9179(5) 0.7014(9) 0.6843(3)
O18_2 O 0.8366(5) 0.9028(9) 0.7764(4)
O20_2 O 0.7098(3) 0.7962(5) 0.7416(2)
C20_3 C 0.2139(12) 0.0486(10) 0.0587(5)
C21_3 C 0.1697(10) 0.0866(8) 0.0361(4)
H13_3 H 0.1100 0.0559 0.0358
C22_3 C 0.2125(9) 0.1698(8) 0.0139(4)
C23_3 C 0.3426(10) 0.1815(8) 0.0402(4)
H14_3 H 0.4019 0.2153 0.0430
C24_3 C 0.3049(11) 0.0978(9) 0.0597(5)
H15_3 H 0.3378 0.0742 0.0731
N4_3 N 0.2986(9) 0.2165(7) 0.0176(3)
C2_3 C 0.0486(10) 0.2139(7) 0.9413(5)
C3_3 C 0.0866(8) 0.1697(6) 0.9639(4)
H1_3 H 0.0559 0.1100 0.9642
C4_3 C 0.1698(8) 0.2125(6) 0.9861(4)
C5_3 C 0.1815(8) 0.3426(6) 0.9598(4)
H2_3 H 0.2153 0.4019 0.9570
C6_3 C 0.0978(9) 0.3049(7) 0.9403(5)
H3_3 H 0.0742 0.3378 0.9269
N1_3 N 0.2165(7) 0.2986(5) 0.9824(3)
N6 N 0.3775(6) 0.3431(4) 0.9041(3)
N9 N 0.3863(7) 0.4754(5) 0.9659(3)
C19_3 C 0.1690(12) 0.9584(10) 0.0830(5)
C1_3 C 0.9584(10) 0.1690(7) 0.9170(5)
C7_3 C 0.5171(8) 0.2421(6) 0.4497(5)
C12_3 C 0.5985(8) 0.0099(6) 0.5292(4)
H6_3 H 0.5874 0.0470 0.5525
C13_3 C 0.6051(7) 0.0166(5) 0.4648(4)
C14_3 C 0.5939(8) 0.0814(6) 0.4299(4)
C15_3 C 0.5632(8) 0.1339(6) 0.4565(5)
H7_3 H 0.5500 0.1295 0.4990
C16_3 C 0.5531(9) 0.1889(6) 0.4209(5)
C17_3 C 0.5756(9) 0.1977(6) 0.3579(4)
H8_3 H 0.5699 0.2367 0.3326
C18_3 C 0.6064(9) 0.1475(6) 0.3337(5)
H9_3 H 0.6230 0.1546 0.2918
O3_3 O 0.7488(3) 0.0316(2) 0.92018(16)
H11_3 H 0.7772 0.0299 0.9549
O4_3 O 0.9338(7) 0.0972(5) 0.8903(4)
O5_3 O 0.9136(4) 0.2038(3) 0.9251(2)
O15_3 O 0.9217(4) 0.0801(2) 0.75338(16)
O16_3 O 0.7927(4) 0.1219(2) 0.81482(16)
H22_3 H 0.8407 0.1554 0.7898
O22_3 O 0.6404(5) 0.0746(3) 0.8665(2)
H24_3 H 0.6008 0.0807 0.8773
O23_3 O 0.5325(7) 0.0711(4) 0.7499(3)
O24_3 O 0.7723(9) 0.1326(5) 0.6720(3)
O29_3 O 0.6699(7) 0.2255(4) 0.9444(3)
O30_3 O 0.8599(7) 0.3128(4) 0.9653(3)
H20_3 H 0.4301 0.6668 0.0008
H21_3 H 0.3770 0.5316 0.0416
H30 H 0.619284 0.876151 0.035734
C8_3 C 0.6005(8) 0.9366(6) 0.6283(4)
C9_3 C 0.6334(9) 0.9056(7) 0.4585(4)
H4_3 H 0.6473 0.8710 0.4347
C10_3 C 0.6249(10) 0.8932(7) 0.5231(4)
H5_3 H 0.6300 0.8492 0.5418
C11_3 C 0.6087(8) 0.9467(6) 0.5586(4)
O1_3 O 0.8416(3) 0.9199(2) 0.91329(16)
O2_3 O 0.6708(3) 0.8781(2) 0.85185(16)
H10_3 H 0.6853 0.8446 0.8769
O6_3 O 0.5658(4) 0.9254(3) 0.8002(2)
H12_3 H 0.5201 0.9193 0.7894
O7_3 O 0.4614(6) 0.9289(4) 0.9168(3)
O8_3 O 0.6397(7) 0.8674(5) 0.9947(3)
O9_3 O 0.5968(6) 0.9913(4) 0.6600(3)
O10_3 O 0.5978(6) 0.8690(4) 0.6501(3)
O11_3 O 0.4444(6) 0.7745(4) 0.7223(3)
O12_3 O 0.5471(6) 0.6872(4) 0.7014(3)
C25_3 C 0.4829(8) 0.7250(6) 0.8837(5)
C26_3 C 0.3995(8) 0.3361(6) 0.7051(4)
C27_3 C 0.3666(9) 0.2722(6) 0.8749(4)
H16_3 H 0.3527 0.2237 0.8987
C28_3 C 0.3751(10) 0.2683(7) 0.8103(4)
H17_3 H 0.3700 0.2192 0.7916
C29_3 C 0.3913(8) 0.3380(6) 0.7748(4)
C30_3 C 0.4015(8) 0.4114(6) 0.8042(4)
H18_3 H 0.4126 0.4596 0.7809
C31_3 C 0.3949(7) 0.4115(5) 0.8686(4)
C32_3 C 0.4061(8) 0.4875(6) 0.9035(4)
C33_3 C 0.4368(8) 0.5707(6) 0.8769(5)
H19_3 H 0.4500 0.5795 0.8344
C34_3 C 0.4469(9) 0.6358(7) 0.9125(5)
C35_3 C 0.4244(9) 0.6221(7) 0.9755(4)
C36_3 C 0.3936(9) 0.5411(7) 0.9997(5)
O17_3 O 0.7172(4) 0.9684(2) 0.74649(16)
H23_3 H 0.7473 0.9701 0.7118
O31_3 O 0.5065(6) 0.7287(5) 0.8268(3)
O33_3 O 0.4915(6) 0.7851(4) 0.9158(3)
H29 H 0.703155 0.893959 0.995594
H29_2 H 0.893959 0.703155 0.00440583
H30_2 H 0.876151 0.619284 0.964266
H34_2 H 0.832516 0.313229 0.00558364
H35_2 H 0.636096 0.89078 0.0359765
H36_2 H 0.600159 0.804331 0.994109
loop_
_geom_bond_atom_site_label_1
_geom_bond_atom_site_label_2
_geom_bond_site_symmetry_1
_geom_bond_site_symmetry_2
Gd6 O20 1_555 1_555
Gd8 O18 1_555 1_555
Zn3 N5 1_555 1_555
C26 C29 1_555 1_555
C27 H16 1_555 1_555
C28 C27 1_555 1_555
H17 C28 1_555 1_555
C29 C28 1_555 1_555
N5 C27 1_555 1_555
O18 C19 1_555 1_555
O20 C19 1_555 1_555
O25 C26 1_555 1_555
O27 C26 1_555 1_555
Gd1 O2 1_555 1_555
Gd2 O1 1_555 1_555
Gd3 O2 1_555 1_555
O2 Gd2 1_555 1_555
H10 O2 1_555 1_555
O6 Gd1 1_555 1_555
H12 O6 1_555 1_555
O7 Gd3 1_555 1_555
O8 Gd3 1_555 1_555
O11 Gd1 1_555 1_555
O12 Gd1 1_555 1_555
C25 C34 1_555 1_555
H18 C30 1_555 1_555
C31 C30 1_555 1_555
C32 C31 1_555 1_555
C33 C32 1_555 1_555
H19 C33 1_555 1_555
C34 C33 1_555 1_555
C35 C34 1_555 1_555
H20 C35 1_555 1_555
C36 C35 1_555 1_555
H21 C36 1_555 1_555
N8 Zn3_2 1_555 1_555
O17 Gd1 1_555 1_555
H23 O17 1_555 1_555
O19 Gd2 1_555 1_555
O21 Gd1 1_555 1_555
O31 Gd1 1_555 1_555
O33 Gd3 1_555 1_555
Gd2 O17 1_555 1_555
Gd3 O6 1_555 1_555
C25 O31 1_555 1_555
C25 O33 1_555 1_555
C32 N8 1_555 1_555
C36 N8 1_555 1_555
C8 C11 1_555 1_555
C9 H4 1_555 1_555
C10 C9 1_555 1_555
H5 C10 1_555 1_555
C11 C10 1_555 1_555
N2 C9 1_555 1_555
O9 C8 1_555 1_555
Zn2 N2 1_555 1_555
C8 O10 1_555 1_555
C20 C21 1_555 1_555
C21 H13 1_555 1_555
C23 H14 1_555 1_555
C24 C20 1_555 1_555
H15 C24 1_555 1_555
N4 Zn3 1_555 1_555
N10 Zn3 1_555 1_555
C21 C22 1_555 1_555
C22 N4 1_555 1_555
C23 C24 1_555 1_555
C23 N4 1_555 1_555
Zn3_2 N1 1_555 1_555
C1 C2 1_555 1_555
C2 C3 1_555 1_555
C3 H1 1_555 1_555
C4 C3 1_555 1_555
C5 H2 1_555 1_555
C6 C2 1_555 1_555
H3 C6 1_555 1_555
N1 C4 1_555 1_555
O3 Gd2_2 1_555 1_555
H11 O3 1_555 1_555
O4 Gd2_2 1_555 1_555
O5 C1 1_555 1_555
Gd4 O3 1_555 1_555
N7 Zn3_2 1_555 1_555
O15 Gd2_2 1_555 1_555
O16 Gd2_2 1_555 1_555
H22 O16 1_555 1_555
H24 O22 1_555 1_555
O23 Gd9 1_555 1_555
O24 Gd9 1_555 1_555
O28 Gd4 1_555 1_555
O29 Gd4 1_555 1_555
O30 Gd4 1_555 1_555
O32 Gd4 1_555 1_555
O34 Gd9 1_555 1_555
C1 O4 1_555 1_555
C5 C6 1_555 1_555
C5 N1 1_555 1_555
O5 Gd4 1_555 1_555
Gd4 O16 1_555 1_555
Gd4 O22 1_555 1_555
Gd9 O16 1_555 1_555
Gd9 O22 1_555 1_555
O24 H36 1_555 1_555
C7 C16 1_555 1_555
H6 C12 1_555 1_555
C13 C12 1_555 1_555
C14 C13 1_555 1_555
C15 C14 1_555 1_555
H7 C15 1_555 1_555
C16 C15 1_555 1_555
C17 C16 1_555 1_555
H8 C17 1_555 1_555
C18 C17 1_555 1_555
H9 C18 1_555 1_555
N3 C14 1_555 1_555
O13 C7 1_555 1_555
O14 C7 1_555 1_555
Gd7 O13 1_555 1_555
Gd10 O14 1_555 1_555
C18 N3 1_555 1_555
N3 Zn2_2 1_555 1_555
Gd6 O2_2 1_555 1_555
Gd8 O1_2 1_555 1_555
Gd3_2 O2_2 1_555 1_555
C7_2 C16_2 1_555 1_555
C8_2 C11_2 1_555 1_555
C9_2 H4_2 1_555 1_555
C10_2 C9_2 1_555 1_555
H5_2 C10_2 1_555 1_555
C11_2 C10_2 1_555 1_555
C12_2 C11_2 1_555 1_555
H6_2 C12_2 1_555 1_555
C13_2 C12_2 1_555 1_555
C14_2 C13_2 1_555 1_555
C15_2 C14_2 1_555 1_555
H7_2 C15_2 1_555 1_555
C16_2 C15_2 1_555 1_555
C17_2 C16_2 1_555 1_555
C18_2 C17_2 1_555 1_555
N2_2 C9_2 1_555 1_555
N3_2 C14_2 1_555 1_555
O2_2 Gd8 1_555 1_555
H10_2 O2_2 1_555 1_555
O3_2 Gd8 1_555 1_555
H11_2 O3_2 1_555 1_555
O4_2 Gd8 1_555 1_555
O5_2 C1_2 1_555 1_555
O6_2 Gd6 1_555 1_555
H12_2 O6_2 1_555 1_555
O7_2 Gd3_2 1_555 1_555
O8_2 Gd3_2 1_555 1_555
O9_2 C8_2 1_555 1_555
O10_2 Gd6 1_555 1_555
O11_2 Gd6 1_555 1_555
O12_2 Gd6 1_555 1_555
O32 C7_2 1_555 1_555
O34 C7_2 1_555 1_555
Gd4_2 O3_2 1_555 1_555
Gd9_2 O6_2 1_555 1_555
Zn2_3 N2_2 1_555 1_555
C25_2 C34_2 1_555 1_555
H18_2 C30_2 1_555 1_555
C31_2 C30_2 1_555 1_555
C32_2 C31_2 1_555 1_555
C33_2 C32_2 1_555 1_555
H19_2 C33_2 1_555 1_555
C34_2 C33_2 1_555 1_555
C35_2 C34_2 1_555 1_555
H20_2 C35_2 1_555 1_555
C36_2 C35_2 1_555 1_555
H21_2 C36_2 1_555 1_555
N8_2 Zn2 1_555 1_555
O15_2 Gd8 1_555 1_555
O16_2 Gd8 1_555 1_555
H22_2 O16_2 1_555 1_555
O17_2 Gd6 1_555 1_555
H23_2 O17_2 1_555 1_555
O22_2 Gd3_2 1_555 1_555
H24_2 O22_2 1_555 1_555
O23_2 Gd9_2 1_555 1_555
O24_2 Gd9_2 1_555 1_555
O26_2 Gd3_2 1_555 1_555
O28_2 Gd4_2 1_555 1_555
O29_2 Gd4_2 1_555 1_555
O30_2 Gd4_2 1_555 1_555
O31_2 Gd6 1_555 1_555
O32_2 Gd4_2 1_555 1_555
O33_2 Gd3_2 1_555 1_555
O34_2 Gd9_2 1_555 1_555
Gd8 O17_2 1_555 1_555
Gd3_2 O3_2 1_555 1_555
Gd3_2 O6_2 1_555 1_555
C1_2 O4_2 1_555 1_555
C8_2 O10_2 1_555 1_555
C13_2 N2_2 1_555 1_555
C18_2 N3_2 1_555 1_555
N3_2 Zn2_3 1_555 1_555
O5_2 Gd4_2 1_555 1_555
O9_2 Gd9_2 1_555 1_555
Gd4_2 O16_2 1_555 1_555
Gd4_2 O22_2 1_555 1_555
Gd9_2 O16_2 1_555 1_555
Gd9_2 O17_2 1_555 1_555
Gd9_2 O22_2 1_555 1_555
C25_2 O31_2 1_555 1_555
C25_2 O33_2 1_555 1_555
C32_2 N8_2 1_555 1_555
C36_2 N8_2 1_555 1_555
Zn2 N1_2 1_555 1_555
C2_2 C3_2 1_555 1_555
C3_2 H1_2 1_555 1_555
C4_2 C3_2 1_555 1_555
C5_2 H2_2 1_555 1_555
C6_2 C2_2 1_555 1_555
H3_2 C6_2 1_555 1_555
N1_2 C4_2 1_555 1_555
C5_2 C6_2 1_555 1_555
C5_2 N1_2 1_555 1_555
Zn2_2 N5_2 1_555 1_555
C26_2 C29_2 1_555 1_555
C27_2 H16_2 1_555 1_555
C28_2 C27_2 1_555 1_555
H17_2 C28_2 1_555 1_555
C29_2 C28_2 1_555 1_555
N5_2 C27_2 1_555 1_555
O26 C26_2 1_555 1_555
O28 C26_2 1_555 1_555
Gd6_2 O20_2 1_555 1_555
Gd8_3 O18_2 1_555 1_555
C19_2 C20_2 1_555 1_555
C20_2 C21_2 1_555 1_555
C21_2 H13_2 1_555 1_555
C23_2 H14_2 1_555 1_555
C24_2 C20_2 1_555 1_555
H15_2 C24_2 1_555 1_555
N4_2 Zn2_2 1_555 1_555
O18_2 C19_2 1_555 1_555
O20_2 C19_2 1_555 1_555
C21_2 C22_2 1_555 1_555
C22_2 N4_2 1_555 1_555
C23_2 C24_2 1_555 1_555
C23_2 N4_2 1_555 1_555
C20_3 C21_3 1_555 1_555
C21_3 H13_3 1_555 1_555
C23_3 H14_3 1_555 1_555
C24_3 C20_3 1_555 1_555
H15_3 C24_3 1_555 1_555
N4_3 Zn2_3 1_555 1_555
C21_3 C22_3 1_555 1_555
C22_3 N4_3 1_555 1_555
C23_3 C24_3 1_555 1_555
C23_3 N4_3 1_555 1_555
Zn2_4 N1_3 1_555 1_555
C2_3 C3_3 1_555 1_555
C3_3 H1_3 1_555 1_555
C4_3 C3_3 1_555 1_555
C5_3 H2_3 1_555 1_555
C6_3 C2_3 1_555 1_555
H3_3 C6_3 1_555 1_555
N1_3 C4_3 1_555 1_555
N6 Zn2_4 1_555 1_555
N9 Zn2_4 1_555 1_555
C5_3 C6_3 1_555 1_555
C5_3 N1_3 1_555 1_555
O19 C19_3 1_555 1_555
O21 C19_3 1_555 1_555
C7_3 C16_3 1_555 1_555
H6_3 C12_3 1_555 1_555
C13_3 C12_3 1_555 1_555
C14_3 C13_3 1_555 1_555
C15_3 C14_3 1_555 1_555
H7_3 C15_3 1_555 1_555
C16_3 C15_3 1_555 1_555
C17_3 C16_3 1_555 1_555
H8_3 C17_3 1_555 1_555
C18_3 C17_3 1_555 1_555
H9_3 C18_3 1_555 1_555
N10 C14_3 1_555 1_555
O3_3 Gd8_2 1_555 1_555
H11_3 O3_3 1_555 1_555
O4_3 Gd8_2 1_555 1_555
O5_3 C1_3 1_555 1_555
O32_2 C7_3 1_555 1_555
O34_2 C7_3 1_555 1_555
Gd7 O3_3 1_555 1_555
O15_3 Gd8_2 1_555 1_555
O16_3 Gd8_2 1_555 1_555
H22_3 O16_3 1_555 1_555
H24_3 O22_3 1_555 1_555
O23_3 Gd10 1_555 1_555
O24_3 Gd10 1_555 1_555
O29_3 Gd7 1_555 1_555
O30_3 Gd7 1_555 1_555
C1_3 O4_3 1_555 1_555
C18_3 N10 1_555 1_555
O5_3 Gd7 1_555 1_555
Gd7 O16_3 1_555 1_555
Gd7 O22_3 1_555 1_555
Gd10 O16_3 1_555 1_555
Gd10 O22_3 1_555 1_555
Gd6_2 O2_3 1_555 1_555
Gd8_3 O1_3 1_555 1_555
Gd11 O2_3 1_555 1_555
C8_3 C11_3 1_555 1_555
C9_3 H4_3 1_555 1_555
C10_3 C9_3 1_555 1_555
H5_3 C10_3 1_555 1_555
C11_3 C10_3 1_555 1_555
N7 C9_3 1_555 1_555
O2_3 Gd8_3 1_555 1_555
H10_3 O2_3 1_555 1_555
O6_3 Gd6_2 1_555 1_555
H12_3 O6_3 1_555 1_555
O7_3 Gd11 1_555 1_555
O8_3 Gd11 1_555 1_555
O9_3 C8_3 1_555 1_555
O10_3 Gd6_2 1_555 1_555
O11_3 Gd6_2 1_555 1_555
O12_3 Gd6_2 1_555 1_555
C25_3 C34_3 1_555 1_555
C26_3 C29_3 1_555 1_555
C27_3 H16_3 1_555 1_555
C28_3 C27_3 1_555 1_555
H17_3 C28_3 1_555 1_555
C29_3 C28_3 1_555 1_555
C30_3 C29_3 1_555 1_555
H18_3 C30_3 1_555 1_555
C31_3 C30_3 1_555 1_555
C32_3 C31_3 1_555 1_555
C33_3 C32_3 1_555 1_555
H19_3 C33_3 1_555 1_555
C34_3 C33_3 1_555 1_555
C35_3 C34_3 1_555 1_555
C36_3 C35_3 1_555 1_555
N6 C27_3 1_555 1_555
O17_3 Gd6_2 1_555 1_555
H23_3 O17_3 1_555 1_555
O26_2 C26_3 1_555 1_555
O28_2 C26_3 1_555 1_555
O31_3 Gd6_2 1_555 1_555
O33_3 Gd11 1_555 1_555
Gd8_3 O17_3 1_555 1_555
Gd11 O6_3 1_555 1_555
C8_3 O10_3 1_555 1_555
C25_3 O31_3 1_555 1_555
C25_3 O33_3 1_555 1_555
C31_3 N6 1_555 1_555
C32_3 N9 1_555 1_555
C36_3 N9 1_555 1_555
O8_3 H29 1_555 1_555
O24 H29_2 1_555 1_555
O8_3 H36_2 1_555 1_555

#END
