
###############################################################################
#
# This file contains modified crystal structure data generated from the
# MOF subset of the Cambridge Structural Database (CSD) v543 
# hosted by the Cambridge Crystallographic Data Centre (CCDC).
#
# This work is licensed under the Creative Commons
# Attribution-NonCommercial-ShareAlike 4.0 International License.
# To view a copy of this license, visit
# http://creativecommons.org/licenses/by-nc-sa/4.0/
# or send a letter to
# Creative Commons, PO Box 1866, Mountain View, CA 94042, USA.
#
# CIF created using the CSD Python API on 29 September 2022
# The structure has been converted into the P1 space group
# The structure has a 3D framework
# The original CSD entry EDUVAA is in the orthorhombic crystal system
# The framework has been calculated to contain at least 10.0% void space
# The void calculation uses a probe of radius 1.32A, grid spacing 0.4
#
###############################################################################

data_EDUVAA
_chemical_formula_moiety         '(C188 H104 O58 Zn20)n'
_symmetry_cell_setting           triclinic
_symmetry_space_group_name_H-M   'P 1'
_symmetry_Int_Tables_number      1
_space_group_name_Hall           'P 1'
loop_
_symmetry_equiv_pos_site_id
_symmetry_equiv_pos_as_xyz
1 x,y,z
_cell_length_a                   17.1469(8)
_cell_length_b                   23.3222(10)
_cell_length_c                   25.2552(12)
_cell_angle_alpha                90
_cell_angle_beta                 90
_cell_angle_gamma                90
_cell_volume                     10099.6
loop_
_atom_site_label
_atom_site_type_symbol
_atom_site_fract_x
_atom_site_fract_y
_atom_site_fract_z
O2 O 0.6871(4) 0.2823(3) 0.3939(2)
O3 O 0.7838(4) 0.2365(3) 0.4372(2)
C1 C 0.7404(6) 0.2009(4) 0.3558(4)
C2 C 0.7966(7) 0.1601(5) 0.3548(4)
H1 H 0.8328 0.1577 0.3831
C3 C 0.8019(8) 0.1212(6) 0.3121(5)
H2 H 0.8442 0.0949 0.3113
C4 C 0.7491(8) 0.1200(5) 0.2724(4)
C5 C 0.6916(9) 0.1617(6) 0.2738(5)
H3 H 0.6514 0.1615 0.2479
C6 C 0.6923(7) 0.2030(5) 0.3119(5)
H4 H 0.6580 0.2348 0.3082
C7 C 0.7559(7) 0.0789(4) 0.2282(4)
C8 C 0.7136(9) 0.0848(5) 0.1858(4)
H5 H 0.6777 0.1157 0.1842
C9 C 0.7186(8) 0.0470(4) 0.1416(4)
H6 H 0.6908 0.0554 0.1100
C12 C 0.7958(9) 0.0291(6) 0.2322(4)
H8 H 0.8234 0.0217 0.2641
C13 C 0.7375(6) 0.2420(4) 0.3985(4)
Zn5 Zn 0.66429(4) 0.34821(3) 0.43722(3)
Zn6 Zn 0.79802(6) 0.28202(4) 0.5000
O10 O 0.6871(4) 0.2823(3) 0.6061(2)
O11 O 0.7838(4) 0.2365(3) 0.5628(2)
C29 C 0.7404(6) 0.2009(4) 0.6442(4)
C30 C 0.7966(7) 0.1601(5) 0.6452(4)
H17 H 0.8328 0.1577 0.6169
C31 C 0.8019(8) 0.1212(6) 0.6879(5)
H18 H 0.8442 0.0949 0.6887
C32 C 0.7491(8) 0.1200(5) 0.7276(4)
C33 C 0.6916(9) 0.1617(6) 0.7262(5)
H19 H 0.6514 0.1615 0.7521
C34 C 0.6923(7) 0.2030(5) 0.6881(5)
H20 H 0.6580 0.2348 0.6918
C35 C 0.7559(7) 0.0789(4) 0.7718(4)
C36 C 0.7136(9) 0.0848(5) 0.8142(4)
H21 H 0.6777 0.1157 0.8158
C37 C 0.7186(8) 0.0470(4) 0.8584(4)
H22 H 0.6908 0.0554 0.8900
C40 C 0.7958(9) 0.0291(6) 0.7678(4)
H24 H 0.8234 0.0217 0.7359
C41 C 0.7375(6) 0.2420(4) 0.6015(4)
Zn9 Zn 0.66429(4) 0.34821(3) 0.56278(3)
Zn1 Zn 0.70808(6) 0.91810(4) 0.0000
Zn2 Zn 0.70198(6) 0.78202(4) 0.0000
O1 O 0.7695(3) 0.8488(2) 0.0000
O4 O 0.7258(3) 0.96707(18) 0.06071(17)
O5 O 0.8079(4) 0.9133(3) 0.1069(2)
O7 O 0.5955(4) 0.9056(3) 0.0000
O8 O 0.5959(4) 0.8079(4) 0.0000
C10 C 0.7639(5) 0.9982(3) 0.1450(3)
C11 C 0.7987(8) 0.9879(5) 0.1921(4)
H7 H 0.8251 0.9527 0.1979
C14 C 0.7664(5) 0.9569(3) 0.1009(3)
C16 C 0.0655(7) 0.8466(7) 0.0000
C19 C 0.2252(6) 0.8522(6) 0.0000
C20 C 0.3118(6) 0.8571(5) 0.0000
C21 C 0.3529(9) 0.8087(7) 0.0000
H11 H 0.3261 0.7730 0.0000
C22 C 0.4369(9) 0.8089(6) 0.0000
H12 H 0.4645 0.7735 0.0000
C23 C 0.4762(6) 0.8580(5) 0.0000
C24 C 0.4323(7) 0.9064(5) 0.0000
H13 H 0.4582 0.9424 0.0000
C25 C 0.3517(6) 0.9060(5) 0.0000
H14 H 0.3242 0.9414 0.0000
C26 C 0.5615(7) 0.8565(5) 0.0000
C27 C 0.1828(13) 0.8244(9) 0.0408(12)
C28 C 0.1064(13) 0.8231(10) 0.0389(10)
H15 H 0.0790 0.8046 0.0668
H16 H 0.2096 0.8067 0.0695
Zn4 Zn 0.83571(4) 0.84821(3) 0.06278(3)
O15 O 0.7162(4) 0.7365(3) 0.0628(2)
O18 O 0.8129(4) 0.7823(3) 0.1061(2)
O19 O 0.9437(4) 0.8458(3) 0.0451(3)
Zn1_2 Zn 0.70808(6) 0.91810(4) 1.0000
Zn2_2 Zn 0.70198(6) 0.78202(4) 1.0000
Zn3 Zn 0.83571(4) 0.84821(3) 0.93722(3)
O1_2 O 0.7695(3) 0.8488(2) 1.0000
O7_2 O 0.5955(4) 0.9056(3) 1.0000
O8_2 O 0.5959(4) 0.8079(4) 1.0000
C16_2 C 0.0655(7) 0.8466(7) 1.0000
C17 C 0.1064(13) 0.8231(10) 0.9611(10)
H9 H 0.0790 0.8046 0.9332
C18 C 0.1828(13) 0.8244(9) 0.9592(12)
H10 H 0.2096 0.8067 0.9305
C19_2 C 0.2252(6) 0.8522(6) 1.0000
C20_2 C 0.3118(6) 0.8571(5) 1.0000
C21_2 C 0.3529(9) 0.8087(7) 1.0000
H11_2 H 0.3261 0.7730 1.0000
C22_2 C 0.4369(9) 0.8089(6) 1.0000
H12_2 H 0.4645 0.7735 1.0000
C23_2 C 0.4762(6) 0.8580(5) 1.0000
C24_2 C 0.4323(7) 0.9064(5) 1.0000
H13_2 H 0.4582 0.9424 1.0000
C25_2 C 0.3517(6) 0.9060(5) 1.0000
H14_2 H 0.3242 0.9414 1.0000
C26_2 C 0.5615(7) 0.8565(5) 1.0000
O12 O 0.7258(3) 0.96707(18) 0.93929(17)
O13 O 0.8079(4) 0.9133(3) 0.8931(2)
C38 C 0.7639(5) 0.9982(3) 0.8550(3)
C39 C 0.7987(8) 0.9879(5) 0.8079(4)
H23 H 0.8251 0.9527 0.8021
C42 C 0.7664(5) 0.9569(3) 0.8991(3)
O14 O 0.7162(4) 0.7365(3) 0.9372(2)
O16 O 0.8129(4) 0.7823(3) 0.8939(2)
O17 O 0.9437(4) 0.8458(3) 0.9549(3)
C15 C 0.9736(8) 0.8434(5) 0.0000
C15_2 C 0.9736(8) 0.8434(5) 1.0000
O6 O 0.5563(4) 0.3458(3) 0.4549(3)
C15_3 C 0.5264(8) 0.3434(5) 0.5000
C16_3 C 0.4345(7) 0.3466(7) 0.5000
C17_2 C 0.3936(13) 0.3231(10) 0.4611(10)
H9_2 H 0.4210 0.3046 0.4332
C18_2 C 0.3172(13) 0.3244(9) 0.4592(12)
H10_2 H 0.2904 0.3067 0.4305
C19_3 C 0.2748(6) 0.3522(6) 0.5000
C20_3 C 0.1882(6) 0.3571(5) 0.5000
C21_3 C 0.1471(9) 0.3087(7) 0.5000
H11_3 H 0.1739 0.2730 0.5000
C22_3 C 0.0631(9) 0.3089(6) 0.5000
H12_3 H 0.0355 0.2735 0.5000
C23_3 C 0.0238(6) 0.3580(5) 0.5000
C24_3 C 0.0677(7) 0.4064(5) 0.5000
H13_3 H 0.0418 0.4424 0.5000
C25_3 C 0.1483(6) 0.4060(5) 0.5000
H14_3 H 0.1758 0.4414 0.5000
O9 O 0.5563(4) 0.3458(3) 0.5451(3)
C27_2 C 0.3172(13) 0.3244(9) 0.5408(12)
C28_2 C 0.3936(13) 0.3231(10) 0.5389(10)
H15_2 H 0.4210 0.3046 0.5668
H16_2 H 0.2904 0.3067 0.5695
Zn1_3 Zn 0.79192(6) 0.41810(4) 0.5000
O1_3 O 0.7305(3) 0.3488(2) 0.5000
O4_2 O 0.7742(3) 0.46707(18) 0.56071(17)
O5_2 O 0.6921(4) 0.4133(3) 0.6069(2)
O7_3 O 0.9045(4) 0.4056(3) 0.5000
O8_3 O 0.9041(4) 0.3079(4) 0.5000
C1_2 C 0.7596(6) 0.7009(4) 0.8558(4)
C2_2 C 0.7034(7) 0.6601(5) 0.8548(4)
H1_2 H 0.6672 0.6577 0.8831
C3_2 C 0.6981(8) 0.6212(6) 0.8121(5)
H2_2 H 0.6558 0.5949 0.8113
C4_2 C 0.7509(8) 0.6200(5) 0.7724(4)
C5_2 C 0.8084(9) 0.6617(6) 0.7738(5)
H3_2 H 0.8486 0.6615 0.7479
C6_2 C 0.8077(7) 0.7030(5) 0.8119(5)
H4_2 H 0.8420 0.7348 0.8082
C7_2 C 0.7441(7) 0.5789(4) 0.7282(4)
C8_2 C 0.7864(9) 0.5848(5) 0.6858(4)
H5_2 H 0.8223 0.6157 0.6842
C9_2 C 0.7814(8) 0.5470(4) 0.6416(4)
H6_2 H 0.8092 0.5554 0.6100
C10_2 C 0.7361(5) 0.4982(3) 0.6450(3)
C11_2 C 0.7013(8) 0.4879(5) 0.6921(4)
H7_2 H 0.6749 0.4527 0.6979
C12_2 C 0.7042(9) 0.5291(6) 0.7322(4)
H8_2 H 0.6766 0.5217 0.7641
C13_2 C 0.7625(6) 0.7420(4) 0.8985(4)
C14_2 C 0.7336(5) 0.4569(3) 0.6009(3)
C26_3 C 0.9385(7) 0.3565(5) 0.5000
O12_2 O 0.7742(3) 0.46707(18) 0.43929(17)
O13_2 O 0.6921(4) 0.4133(3) 0.3931(2)
C29_2 C 0.7596(6) 0.7009(4) 0.1442(4)
C30_2 C 0.7034(7) 0.6601(5) 0.1452(4)
H17_2 H 0.6672 0.6577 0.1169
C31_2 C 0.6981(8) 0.6212(6) 0.1879(5)
H18_2 H 0.6558 0.5949 0.1887
C32_2 C 0.7509(8) 0.6200(5) 0.2276(4)
C33_2 C 0.8084(9) 0.6617(6) 0.2262(5)
H19_2 H 0.8486 0.6615 0.2521
C34_2 C 0.8077(7) 0.7030(5) 0.1881(5)
H20_2 H 0.8420 0.7348 0.1918
C35_2 C 0.7441(7) 0.5789(4) 0.2718(4)
C36_2 C 0.7864(9) 0.5848(5) 0.3142(4)
H21_2 H 0.8223 0.6157 0.3158
C37_2 C 0.7814(8) 0.5470(4) 0.3584(4)
H22_2 H 0.8092 0.5554 0.3900
C38_2 C 0.7361(5) 0.4982(3) 0.3550(3)
C39_2 C 0.7013(8) 0.4879(5) 0.3079(4)
H23_2 H 0.6749 0.4527 0.3021
C40_2 C 0.7042(9) 0.5291(6) 0.2678(4)
H24_2 H 0.6766 0.5217 0.2359
C41_2 C 0.7625(6) 0.7420(4) 0.1015(4)
C42_2 C 0.7336(5) 0.4569(3) 0.3991(3)
Zn6_2 Zn 0.29802(6) 0.21798(4) 0.0000
Zn1_4 Zn 0.20808(6) 0.58190(4) 0.5000
Zn2_3 Zn 0.20198(6) 0.71798(4) 0.5000
Zn3_2 Zn 0.33571(4) 0.65179(3) 0.43722(3)
O1_4 O 0.2695(3) 0.6512(2) 0.5000
O2_2 O 0.1871(4) 0.2177(3) 0.8939(2)
O3_2 O 0.2838(4) 0.2635(3) 0.9372(2)
O4_3 O 0.2258(3) 0.53293(18) 0.56071(17)
O5_3 O 0.3079(4) 0.5867(3) 0.6069(2)
O7_4 O 0.0955(4) 0.5944(3) 0.5000
O8_4 O 0.0959(4) 0.6921(4) 0.5000
C1_3 C 0.2404(6) 0.2991(4) 0.8558(4)
C2_3 C 0.2966(7) 0.3399(5) 0.8548(4)
H1_3 H 0.3328 0.3423 0.8831
C3_3 C 0.3019(8) 0.3788(6) 0.8121(5)
H2_3 H 0.3442 0.4051 0.8113
C4_3 C 0.2491(8) 0.3800(5) 0.7724(4)
C5_3 C 0.1916(9) 0.3383(6) 0.7738(5)
H3_3 H 0.1514 0.3385 0.7479
C6_3 C 0.1923(7) 0.2970(5) 0.8119(5)
H4_3 H 0.1580 0.2652 0.8082
C7_3 C 0.2559(7) 0.4211(4) 0.7282(4)
C8_3 C 0.2136(9) 0.4152(5) 0.6858(4)
H5_3 H 0.1777 0.3843 0.6842
C9_3 C 0.2186(8) 0.4530(4) 0.6416(4)
H6_3 H 0.1908 0.4446 0.6100
C10_3 C 0.2639(5) 0.5018(3) 0.6450(3)
C11_3 C 0.2987(8) 0.5121(5) 0.6921(4)
H7_3 H 0.3251 0.5473 0.6979
C12_3 C 0.2958(9) 0.4709(6) 0.7322(4)
H8_3 H 0.3234 0.4783 0.7641
C13_3 C 0.2375(6) 0.2580(4) 0.8985(4)
C14_3 C 0.2664(5) 0.5431(3) 0.6009(3)
C26_4 C 0.0615(7) 0.6435(5) 0.5000
O10_2 O 0.1871(4) 0.2177(3) 0.1061(2)
O11_2 O 0.2838(4) 0.2635(3) 0.0628(2)
O12_3 O 0.2258(3) 0.53293(18) 0.43929(17)
O13_3 O 0.3079(4) 0.5867(3) 0.3931(2)
C29_3 C 0.2404(6) 0.2991(4) 0.1442(4)
C30_3 C 0.2966(7) 0.3399(5) 0.1452(4)
H17_3 H 0.3328 0.3423 0.1169
C31_3 C 0.3019(8) 0.3788(6) 0.1879(5)
H18_3 H 0.3442 0.4051 0.1887
C32_3 C 0.2491(8) 0.3800(5) 0.2276(4)
C33_3 C 0.1916(9) 0.3383(6) 0.2262(5)
H19_3 H 0.1514 0.3385 0.2521
C34_3 C 0.1923(7) 0.2970(5) 0.1881(5)
H20_3 H 0.1580 0.2652 0.1918
C35_3 C 0.2559(7) 0.4211(4) 0.2718(4)
C36_3 C 0.2136(9) 0.4152(5) 0.3142(4)
H21_3 H 0.1777 0.3843 0.3158
C37_3 C 0.2186(8) 0.4530(4) 0.3584(4)
H22_3 H 0.1908 0.4446 0.3900
C38_3 C 0.2639(5) 0.5018(3) 0.3550(3)
C39_3 C 0.2987(8) 0.5121(5) 0.3079(4)
H23_3 H 0.3251 0.5473 0.3021
C40_3 C 0.2958(9) 0.4709(6) 0.2678(4)
H24_3 H 0.3234 0.4783 0.2359
C41_3 C 0.2375(6) 0.2580(4) 0.1015(4)
C42_3 C 0.2664(5) 0.5431(3) 0.3991(3)
Zn4_2 Zn 0.33571(4) 0.65179(3) 0.56278(3)
O14_2 O 0.2162(4) 0.7635(3) 0.4372(2)
O15_2 O 0.2162(4) 0.7635(3) 0.5628(2)
O16_2 O 0.3129(4) 0.7177(3) 0.3939(2)
O17_2 O 0.4437(4) 0.6542(3) 0.4549(3)
Zn5_2 Zn 0.16429(4) 0.15179(3) 0.93722(3)
Zn6_3 Zn 0.29802(6) 0.21798(4) 1.0000
Zn9_2 Zn 0.16429(4) 0.15179(3) 0.06278(3)
O18_2 O 0.3129(4) 0.7177(3) 0.6061(2)
O19_2 O 0.4437(4) 0.6542(3) 0.5451(3)
C15_4 C 0.4736(8) 0.6566(5) 0.5000
C16_4 C 0.5655(7) 0.6534(7) 0.5000
C17_3 C 0.6064(13) 0.6769(10) 0.4611(10)
H9_3 H 0.5790 0.6954 0.4332
C18_3 C 0.6828(13) 0.6756(9) 0.4592(12)
H10_3 H 0.7096 0.6933 0.4305
C19_4 C 0.7252(6) 0.6478(6) 0.5000
C20_4 C 0.8118(6) 0.6429(5) 0.5000
C21_4 C 0.8529(9) 0.6913(7) 0.5000
H11_4 H 0.8261 0.7270 0.5000
C22_4 C 0.9369(9) 0.6911(6) 0.5000
H12_4 H 0.9645 0.7265 0.5000
C23_4 C 0.9762(6) 0.6420(5) 0.5000
C24_4 C 0.9323(7) 0.5936(5) 0.5000
H13_4 H 0.9582 0.5576 0.5000
C25_4 C 0.8517(6) 0.5940(5) 0.5000
H14_4 H 0.8242 0.5586 0.5000
C27_3 C 0.6828(13) 0.6756(9) 0.5408(12)
C28_3 C 0.6064(13) 0.6769(10) 0.5389(10)
H15_3 H 0.5790 0.6954 0.5668
H16_3 H 0.7096 0.6933 0.5695
O6_2 O 0.0563(4) 0.1542(3) 0.0451(3)
C15_5 C 0.0264(8) 0.1566(5) 0.0000
C15_6 C 0.0264(8) 0.1566(5) 1.0000
O9_2 O 0.0563(4) 0.1542(3) 0.9549(3)
Zn1_5 Zn 0.29192(6) 0.08190(4) 0.0000
O1_5 O 0.2305(3) 0.1512(2) 0.0000
O7_5 O 0.4045(4) 0.0944(3) 0.0000
O8_5 O 0.4041(4) 0.1921(4) 0.0000
C16_5 C 0.9345(7) 0.1534(7) 0.0000
C17_4 C 0.8936(13) 0.1769(10) 0.0389(10)
H9_4 H 0.9210 0.1954 0.0668
C18_4 C 0.8172(13) 0.1756(9) 0.0408(12)
H10_4 H 0.7904 0.1933 0.0695
C19_5 C 0.7748(6) 0.1478(6) 0.0000
C20_5 C 0.6882(6) 0.1429(5) 0.0000
C21_5 C 0.6471(9) 0.1913(7) 0.0000
H11_5 H 0.6739 0.2270 0.0000
C22_5 C 0.5631(9) 0.1911(6) 0.0000
H12_5 H 0.5355 0.2265 0.0000
C23_5 C 0.5238(6) 0.1420(5) 0.0000
C24_5 C 0.5677(7) 0.0936(5) 0.0000
H13_5 H 0.5418 0.0576 0.0000
C25_5 C 0.6483(6) 0.0940(5) 0.0000
H14_5 H 0.6758 0.0586 0.0000
C26_5 C 0.4385(7) 0.1435(5) 0.0000
O12_4 O 0.2742(3) 0.03293(18) 0.06071(17)
O13_4 O 0.1921(4) 0.0867(3) 0.1069(2)
C38_4 C 0.2361(5) 0.0018(3) 0.1450(3)
C39_4 C 0.2013(8) 0.0121(5) 0.1921(4)
H23_4 H 0.1749 0.0473 0.1979
C42_4 C 0.2336(5) 0.0431(3) 0.1009(3)
Zn1_6 Zn 0.29192(6) 0.08190(4) 1.0000
O1_6 O 0.2305(3) 0.1512(2) 1.0000
O4_4 O 0.2742(3) 0.03293(18) 0.93929(17)
O5_4 O 0.1921(4) 0.0867(3) 0.8931(2)
O7_6 O 0.4045(4) 0.0944(3) 1.0000
O8_6 O 0.4041(4) 0.1921(4) 1.0000
C10_4 C 0.2361(5) 0.0018(3) 0.8550(3)
C11_4 C 0.2013(8) 0.0121(5) 0.8079(4)
H7_4 H 0.1749 0.0473 0.8021
C14_4 C 0.2336(5) 0.0431(3) 0.8991(3)
C16_6 C 0.9345(7) 0.1534(7) 1.0000
C19_6 C 0.7748(6) 0.1478(6) 1.0000
C20_6 C 0.6882(6) 0.1429(5) 1.0000
C21_6 C 0.6471(9) 0.1913(7) 1.0000
H11_6 H 0.6739 0.2270 1.0000
C22_6 C 0.5631(9) 0.1911(6) 1.0000
H12_6 H 0.5355 0.2265 1.0000
C23_6 C 0.5238(6) 0.1420(5) 1.0000
C24_6 C 0.5677(7) 0.0936(5) 1.0000
H13_6 H 0.5418 0.0576 1.0000
C25_6 C 0.6483(6) 0.0940(5) 1.0000
H14_6 H 0.6758 0.0586 1.0000
C26_6 C 0.4385(7) 0.1435(5) 1.0000
C27_4 C 0.8172(13) 0.1756(9) 0.9592(12)
C28_4 C 0.8936(13) 0.1769(10) 0.9611(10)
H15_4 H 0.9210 0.1954 0.9332
H16_4 H 0.7904 0.1933 0.9305
C29_4 C 0.2596(6) 0.7991(4) 0.3558(4)
C30_4 C 0.2034(7) 0.8399(5) 0.3548(4)
H17_4 H 0.1672 0.8423 0.3831
C31_4 C 0.1981(8) 0.8788(6) 0.3121(5)
H18_4 H 0.1558 0.9051 0.3113
C32_4 C 0.2509(8) 0.8800(5) 0.2724(4)
C33_4 C 0.3084(9) 0.8383(6) 0.2738(5)
H19_4 H 0.3486 0.8385 0.2479
C34_4 C 0.3077(7) 0.7970(5) 0.3119(5)
H20_4 H 0.3420 0.7652 0.3082
C35_4 C 0.2441(7) 0.9211(4) 0.2282(4)
C36_4 C 0.2864(9) 0.9152(5) 0.1858(4)
H21_4 H 0.3223 0.8843 0.1842
C37_4 C 0.2814(8) 0.9530(4) 0.1416(4)
H22_4 H 0.3092 0.9446 0.1100
C40_4 C 0.2042(9) 0.9709(6) 0.2322(4)
H24_4 H 0.1766 0.9783 0.2641
C41_4 C 0.2625(6) 0.7580(4) 0.3985(4)
C1_4 C 0.2596(6) 0.7991(4) 0.6442(4)
C2_4 C 0.2034(7) 0.8399(5) 0.6452(4)
H1_4 H 0.1672 0.8423 0.6169
C3_4 C 0.1981(8) 0.8788(6) 0.6879(5)
H2_4 H 0.1558 0.9051 0.6887
C4_4 C 0.2509(8) 0.8800(5) 0.7276(4)
C5_4 C 0.3084(9) 0.8383(6) 0.7262(5)
H3_4 H 0.3486 0.8385 0.7521
C6_4 C 0.3077(7) 0.7970(5) 0.6881(5)
H4_4 H 0.3420 0.7652 0.6918
C7_4 C 0.2441(7) 0.9211(4) 0.7718(4)
C8_4 C 0.2864(9) 0.9152(5) 0.8142(4)
H5_4 H 0.3223 0.8843 0.8158
C9_4 C 0.2814(8) 0.9530(4) 0.8584(4)
H6_4 H 0.3092 0.9446 0.8900
C12_4 C 0.2042(9) 0.9709(6) 0.7678(4)
H8_4 H 0.1766 0.9783 0.7359
C13_4 C 0.2625(6) 0.7580(4) 0.6015(4)
loop_
_geom_bond_atom_site_label_1
_geom_bond_atom_site_label_2
_geom_bond_site_symmetry_1
_geom_bond_site_symmetry_2
O2 C13 1_555 1_555
O3 C13 1_555 1_555
C1 C2 1_555 1_555
C2 H1 1_555 1_555
C3 C2 1_555 1_555
H2 C3 1_555 1_555
C4 C3 1_555 1_555
C5 C4 1_555 1_555
H3 C5 1_555 1_555
C6 C1 1_555 1_555
H4 C6 1_555 1_555
C7 C4 1_555 1_555
C8 C7 1_555 1_555
H5 C8 1_555 1_555
C9 C8 1_555 1_555
H6 C9 1_555 1_555
C12 C7 1_555 1_555
H8 C12 1_555 1_555
C13 C1 1_555 1_555
Zn5 O2 1_555 1_555
Zn6 O3 1_555 1_555
C5 C6 1_555 1_555
O10 C41 1_555 1_555
O11 C41 1_555 1_555
C29 C30 1_555 1_555
C30 H17 1_555 1_555
C31 C30 1_555 1_555
H18 C31 1_555 1_555
C32 C31 1_555 1_555
C33 C32 1_555 1_555
H19 C33 1_555 1_555
C34 C29 1_555 1_555
H20 C34 1_555 1_555
C35 C32 1_555 1_555
C36 C35 1_555 1_555
H21 C36 1_555 1_555
C37 C36 1_555 1_555
H22 C37 1_555 1_555
C40 C35 1_555 1_555
H24 C40 1_555 1_555
C41 C29 1_555 1_555
Zn9 O10 1_555 1_555
Zn6 O11 1_555 1_555
C33 C34 1_555 1_555
Zn1 O1 1_555 1_555
Zn2 O1 1_555 1_555
O1 Zn4 1_555 1_555
O4 Zn1 1_555 1_555
O5 C14 1_555 1_555
O7 Zn1 1_555 1_555
O8 Zn2 1_555 1_555
C11 C10 1_555 1_555
H7 C11 1_555 1_555
C14 O4 1_555 1_555
C20 C19 1_555 1_555
C21 C20 1_555 1_555
H11 C21 1_555 1_555
C22 C21 1_555 1_555
H12 C22 1_555 1_555
C23 C22 1_555 1_555
C24 C23 1_555 1_555
H13 C24 1_555 1_555
C25 C20 1_555 1_555
H14 C25 1_555 1_555
C26 O7 1_555 1_555
C27 C19 1_555 1_555
C28 C16 1_555 1_555
H15 C28 1_555 1_555
H16 C27 1_555 1_555
Zn4 O5 1_555 1_555
O15 Zn2 1_555 1_555
O18 Zn4 1_555 1_555
O19 Zn4 1_555 1_555
O8 C26 1_555 1_555
C10 C14 1_555 1_555
C23 C26 1_555 1_555
C24 C25 1_555 1_555
C27 C28 1_555 1_555
Zn1_2 O1_2 1_555 1_555
Zn2_2 O1_2 1_555 1_555
Zn3 O1_2 1_555 1_555
O7_2 Zn1_2 1_555 1_555
O8_2 Zn2_2 1_555 1_555
C16_2 C17 1_555 1_555
C17 H9 1_555 1_555
C18 C17 1_555 1_555
H10 C18 1_555 1_555
C19_2 C18 1_555 1_555
C20_2 C19_2 1_555 1_555
C21_2 C20_2 1_555 1_555
H11_2 C21_2 1_555 1_555
C22_2 C21_2 1_555 1_555
H12_2 C22_2 1_555 1_555
C23_2 C22_2 1_555 1_555
C24_2 C23_2 1_555 1_555
H13_2 C24_2 1_555 1_555
C25_2 C20_2 1_555 1_555
H14_2 C25_2 1_555 1_555
C26_2 O7_2 1_555 1_555
O12 Zn1_2 1_555 1_555
O13 Zn3 1_555 1_555
C39 C38 1_555 1_555
H23 C39 1_555 1_555
C42 O12 1_555 1_555
O14 Zn2_2 1_555 1_555
O16 Zn3 1_555 1_555
O17 Zn3 1_555 1_555
O8_2 C26_2 1_555 1_555
C23_2 C26_2 1_555 1_555
C24_2 C25_2 1_555 1_555
O13 C42 1_555 1_555
C38 C42 1_555 1_555
O19 C15 1_555 1_555
O17 C15_2 1_555 1_555
O6 C15_3 1_555 1_555
C15_3 C16_3 1_555 1_555
C16_3 C17_2 1_555 1_555
C17_2 H9_2 1_555 1_555
C18_2 C17_2 1_555 1_555
H10_2 C18_2 1_555 1_555
C19_3 C18_2 1_555 1_555
C20_3 C19_3 1_555 1_555
C21_3 C20_3 1_555 1_555
H11_3 C21_3 1_555 1_555
C22_3 C21_3 1_555 1_555
H12_3 C22_3 1_555 1_555
C23_3 C22_3 1_555 1_555
C24_3 C23_3 1_555 1_555
H13_3 C24_3 1_555 1_555
C25_3 C20_3 1_555 1_555
H14_3 C25_3 1_555 1_555
O9 C15_3 1_555 1_555
C27_2 C19_3 1_555 1_555
C28_2 C16_3 1_555 1_555
H15_2 C28_2 1_555 1_555
H16_2 C27_2 1_555 1_555
Zn5 O6 1_555 1_555
Zn9 O9 1_555 1_555
C24_3 C25_3 1_555 1_555
C27_2 C28_2 1_555 1_555
Zn1_3 O1_3 1_555 1_555
Zn6 O1_3 1_555 1_555
Zn5 O1_3 1_555 1_555
O1_3 Zn9 1_555 1_555
O16 C13_2 1_555 1_555
O14 C13_2 1_555 1_555
O4_2 Zn1_3 1_555 1_555
O5_2 C14_2 1_555 1_555
O7_3 Zn1_3 1_555 1_555
O8_3 Zn6 1_555 1_555
C1_2 C2_2 1_555 1_555
C2_2 H1_2 1_555 1_555
C3_2 C2_2 1_555 1_555
H2_2 C3_2 1_555 1_555
C4_2 C3_2 1_555 1_555
C5_2 C4_2 1_555 1_555
H3_2 C5_2 1_555 1_555
C6_2 C1_2 1_555 1_555
H4_2 C6_2 1_555 1_555
C7_2 C4_2 1_555 1_555
C8_2 C7_2 1_555 1_555
H5_2 C8_2 1_555 1_555
C9_2 C8_2 1_555 1_555
H6_2 C9_2 1_555 1_555
C10_2 C9_2 1_555 1_555
C11_2 C10_2 1_555 1_555
H7_2 C11_2 1_555 1_555
C12_2 C7_2 1_555 1_555
H8_2 C12_2 1_555 1_555
C13_2 C1_2 1_555 1_555
C14_2 O4_2 1_555 1_555
C26_3 O7_3 1_555 1_555
O18 C41_2 1_555 1_555
O15 C41_2 1_555 1_555
O12_2 Zn1_3 1_555 1_555
O13_2 Zn5 1_555 1_555
C29_2 C30_2 1_555 1_555
C30_2 H17_2 1_555 1_555
C31_2 C30_2 1_555 1_555
H18_2 C31_2 1_555 1_555
C32_2 C31_2 1_555 1_555
C33_2 C32_2 1_555 1_555
H19_2 C33_2 1_555 1_555
C34_2 C29_2 1_555 1_555
H20_2 C34_2 1_555 1_555
C35_2 C32_2 1_555 1_555
C36_2 C35_2 1_555 1_555
H21_2 C36_2 1_555 1_555
C37_2 C36_2 1_555 1_555
H22_2 C37_2 1_555 1_555
C38_2 C37_2 1_555 1_555
C39_2 C38_2 1_555 1_555
H23_2 C39_2 1_555 1_555
C40_2 C35_2 1_555 1_555
H24_2 C40_2 1_555 1_555
C41_2 C29_2 1_555 1_555
C42_2 O12_2 1_555 1_555
Zn9 O5_2 1_555 1_555
O8_3 C26_3 1_555 1_555
C5_2 C6_2 1_555 1_555
C10_2 C14_2 1_555 1_555
C11_2 C12_2 1_555 1_555
O13_2 C42_2 1_555 1_555
C33_2 C34_2 1_555 1_555
C38_2 C42_2 1_555 1_555
C39_2 C40_2 1_555 1_555
Zn1_4 O1_4 1_555 1_555
Zn2_3 O1_4 1_555 1_555
Zn3_2 O1_4 1_555 1_555
O1_4 Zn4_2 1_555 1_555
O2_2 C13_3 1_555 1_555
O3_2 C13_3 1_555 1_555
O4_3 Zn1_4 1_555 1_555
O5_3 C14_3 1_555 1_555
O7_4 Zn1_4 1_555 1_555
O8_4 Zn2_3 1_555 1_555
C1_3 C2_3 1_555 1_555
C2_3 H1_3 1_555 1_555
C3_3 C2_3 1_555 1_555
H2_3 C3_3 1_555 1_555
C4_3 C3_3 1_555 1_555
C5_3 C4_3 1_555 1_555
H3_3 C5_3 1_555 1_555
C6_3 C1_3 1_555 1_555
H4_3 C6_3 1_555 1_555
C7_3 C4_3 1_555 1_555
C8_3 C7_3 1_555 1_555
H5_3 C8_3 1_555 1_555
C9_3 C8_3 1_555 1_555
H6_3 C9_3 1_555 1_555
C10_3 C9_3 1_555 1_555
C11_3 C10_3 1_555 1_555
H7_3 C11_3 1_555 1_555
C12_3 C7_3 1_555 1_555
H8_3 C12_3 1_555 1_555
C13_3 C1_3 1_555 1_555
C14_3 O4_3 1_555 1_555
C26_4 O7_4 1_555 1_555
O10_2 C41_3 1_555 1_555
O11_2 C41_3 1_555 1_555
O12_3 Zn1_4 1_555 1_555
O13_3 Zn3_2 1_555 1_555
C29_3 C30_3 1_555 1_555
C30_3 H17_3 1_555 1_555
C31_3 C30_3 1_555 1_555
H18_3 C31_3 1_555 1_555
C32_3 C31_3 1_555 1_555
C33_3 C32_3 1_555 1_555
H19_3 C33_3 1_555 1_555
C34_3 C29_3 1_555 1_555
H20_3 C34_3 1_555 1_555
C35_3 C32_3 1_555 1_555
C36_3 C35_3 1_555 1_555
H21_3 C36_3 1_555 1_555
C37_3 C36_3 1_555 1_555
H22_3 C37_3 1_555 1_555
C38_3 C37_3 1_555 1_555
C39_3 C38_3 1_555 1_555
H23_3 C39_3 1_555 1_555
C40_3 C35_3 1_555 1_555
H24_3 C40_3 1_555 1_555
C41_3 C29_3 1_555 1_555
C42_3 O12_3 1_555 1_555
Zn4_2 O5_3 1_555 1_555
O14_2 Zn2_3 1_555 1_555
O15_2 Zn2_3 1_555 1_555
O16_2 Zn3_2 1_555 1_555
O17_2 Zn3_2 1_555 1_555
Zn5_2 O2_2 1_555 1_555
Zn6_3 O3_2 1_555 1_555
Zn9_2 O10_2 1_555 1_555
Zn6_2 O11_2 1_555 1_555
O18_2 Zn4_2 1_555 1_555
O19_2 Zn4_2 1_555 1_555
O8_4 C26_4 1_555 1_555
C5_3 C6_3 1_555 1_555
C10_3 C14_3 1_555 1_555
C11_3 C12_3 1_555 1_555
O13_3 C42_3 1_555 1_555
C33_3 C34_3 1_555 1_555
C38_3 C42_3 1_555 1_555
C39_3 C40_3 1_555 1_555
O17_2 C15_4 1_555 1_555
C15_4 C16_4 1_555 1_555
C16_4 C17_3 1_555 1_555
C17_3 H9_3 1_555 1_555
C18_3 C17_3 1_555 1_555
H10_3 C18_3 1_555 1_555
C19_4 C18_3 1_555 1_555
C20_4 C19_4 1_555 1_555
C21_4 C20_4 1_555 1_555
H11_4 C21_4 1_555 1_555
C22_4 C21_4 1_555 1_555
H12_4 C22_4 1_555 1_555
C23_4 C22_4 1_555 1_555
C24_4 C23_4 1_555 1_555
H13_4 C24_4 1_555 1_555
C25_4 C20_4 1_555 1_555
H14_4 C25_4 1_555 1_555
O19_2 C15_4 1_555 1_555
C27_3 C19_4 1_555 1_555
C28_3 C16_4 1_555 1_555
H15_3 C28_3 1_555 1_555
H16_3 C27_3 1_555 1_555
C24_4 C25_4 1_555 1_555
C27_3 C28_3 1_555 1_555
O6_2 C15_5 1_555 1_555
Zn9_2 O6_2 1_555 1_555
O9_2 C15_6 1_555 1_555
Zn5_2 O9_2 1_555 1_555
Zn1_5 O1_5 1_555 1_555
Zn6_2 O1_5 1_555 1_555
Zn9_2 O1_5 1_555 1_555
O7_5 Zn1_5 1_555 1_555
O8_5 Zn6_2 1_555 1_555
C16_5 C17_4 1_555 1_555
C17_4 H9_4 1_555 1_555
C18_4 C17_4 1_555 1_555
H10_4 C18_4 1_555 1_555
C19_5 C18_4 1_555 1_555
C20_5 C19_5 1_555 1_555
C21_5 C20_5 1_555 1_555
H11_5 C21_5 1_555 1_555
C22_5 C21_5 1_555 1_555
H12_5 C22_5 1_555 1_555
C23_5 C22_5 1_555 1_555
C24_5 C23_5 1_555 1_555
H13_5 C24_5 1_555 1_555
C25_5 C20_5 1_555 1_555
H14_5 C25_5 1_555 1_555
C26_5 O7_5 1_555 1_555
O12_4 Zn1_5 1_555 1_555
O13_4 Zn9_2 1_555 1_555
C39_4 C38_4 1_555 1_555
H23_4 C39_4 1_555 1_555
C42_4 O12_4 1_555 1_555
O8_5 C26_5 1_555 1_555
C23_5 C26_5 1_555 1_555
C24_5 C25_5 1_555 1_555
O13_4 C42_4 1_555 1_555
C38_4 C42_4 1_555 1_555
Zn1_6 O1_6 1_555 1_555
Zn6_3 O1_6 1_555 1_555
O1_6 Zn5_2 1_555 1_555
O4_4 Zn1_6 1_555 1_555
O5_4 C14_4 1_555 1_555
O7_6 Zn1_6 1_555 1_555
O8_6 Zn6_3 1_555 1_555
C11_4 C10_4 1_555 1_555
H7_4 C11_4 1_555 1_555
C14_4 O4_4 1_555 1_555
C20_6 C19_6 1_555 1_555
C21_6 C20_6 1_555 1_555
H11_6 C21_6 1_555 1_555
C22_6 C21_6 1_555 1_555
H12_6 C22_6 1_555 1_555
C23_6 C22_6 1_555 1_555
C24_6 C23_6 1_555 1_555
H13_6 C24_6 1_555 1_555
C25_6 C20_6 1_555 1_555
H14_6 C25_6 1_555 1_555
C26_6 O7_6 1_555 1_555
C27_4 C19_6 1_555 1_555
C28_4 C16_6 1_555 1_555
H15_4 C28_4 1_555 1_555
H16_4 C27_4 1_555 1_555
Zn5_2 O5_4 1_555 1_555
O8_6 C26_6 1_555 1_555
C10_4 C14_4 1_555 1_555
C23_6 C26_6 1_555 1_555
C24_6 C25_6 1_555 1_555
C27_4 C28_4 1_555 1_555
O16_2 C41_4 1_555 1_555
O14_2 C41_4 1_555 1_555
C29_4 C30_4 1_555 1_555
C30_4 H17_4 1_555 1_555
C31_4 C30_4 1_555 1_555
H18_4 C31_4 1_555 1_555
C32_4 C31_4 1_555 1_555
C33_4 C32_4 1_555 1_555
H19_4 C33_4 1_555 1_555
C34_4 C29_4 1_555 1_555
H20_4 C34_4 1_555 1_555
C35_4 C32_4 1_555 1_555
C36_4 C35_4 1_555 1_555
H21_4 C36_4 1_555 1_555
C37_4 C36_4 1_555 1_555
H22_4 C37_4 1_555 1_555
C40_4 C35_4 1_555 1_555
H24_4 C40_4 1_555 1_555
C41_4 C29_4 1_555 1_555
C33_4 C34_4 1_555 1_555
O18_2 C13_4 1_555 1_555
O15_2 C13_4 1_555 1_555
C1_4 C2_4 1_555 1_555
C2_4 H1_4 1_555 1_555
C3_4 C2_4 1_555 1_555
H2_4 C3_4 1_555 1_555
C4_4 C3_4 1_555 1_555
C5_4 C4_4 1_555 1_555
H3_4 C5_4 1_555 1_555
C6_4 C1_4 1_555 1_555
H4_4 C6_4 1_555 1_555
C7_4 C4_4 1_555 1_555
C8_4 C7_4 1_555 1_555
H5_4 C8_4 1_555 1_555
C9_4 C8_4 1_555 1_555
H6_4 C9_4 1_555 1_555
C12_4 C7_4 1_555 1_555
H8_4 C12_4 1_555 1_555
C13_4 C1_4 1_555 1_555
C5_4 C6_4 1_555 1_555

#END
