
###############################################################################
#
# This file contains modified crystal structure data generated from the
# MOF subset of the Cambridge Structural Database (CSD) v543 
# hosted by the Cambridge Crystallographic Data Centre (CCDC).
#
# This work is licensed under the Creative Commons
# Attribution-NonCommercial-ShareAlike 4.0 International License.
# To view a copy of this license, visit
# http://creativecommons.org/licenses/by-nc-sa/4.0/
# or send a letter to
# Creative Commons, PO Box 1866, Mountain View, CA 94042, USA.
#
# CIF created using the CSD Python API on 29 September 2022
# The structure has been converted into the P1 space group
# The structure has a 3D framework
# The original CSD entry EDUVOO is in the cubic crystal system
# The framework has been calculated to contain at least 10.0% void space
# The void calculation uses a probe of radius 1.32A, grid spacing 0.4
#
###############################################################################

data_EDUVOO
_chemical_formula_moiety         '(C432 H192 O104 Zn32)n'
_symmetry_cell_setting           triclinic
_symmetry_space_group_name_H-M   'P 1'
_symmetry_Int_Tables_number      1
_space_group_name_Hall           'P 1'
loop_
_symmetry_equiv_pos_site_id
_symmetry_equiv_pos_as_xyz
1 x,y,z
_cell_length_a                   34.381(13)
_cell_length_b                   34.381(13)
_cell_length_c                   34.381(13)
_cell_angle_alpha                90
_cell_angle_beta                 90
_cell_angle_gamma                90
_cell_volume                     40640.2
loop_
_atom_site_label
_atom_site_type_symbol
_atom_site_fract_x
_atom_site_fract_y
_atom_site_fract_z
Zn1 Zn 0.28275(7) 0.28275(7) 0.21725(7)
O1 O 0.2500 0.2500 0.2500
O2 O 0.2725(4) 0.2725(4) 0.1613(6)
C1 C 0.2500 0.2500 0.1048(10)
C2 C 0.2500 0.2500 0.1437(18)
C3 C 0.2255(5) 0.2255(5) 0.0835(6)
H1 H 0.2086 0.2086 0.0962
C4 C 0.2267(5) 0.2267(5) 0.0428(6)
C5 C 0.2500 0.2500 0.0192(8)
C6 C 0.2028(6) 0.2028(6) 0.0203(10)
H2 H 0.1859 0.1859 0.0331
O3 O 0.2275(4) 0.2275(4) 0.1613(6)
C7 C 0.2733(5) 0.2733(5) 0.0428(6)
C8 C 0.2745(5) 0.2745(5) 0.0835(6)
H3 H 0.2914 0.2914 0.0962
C9 C 0.2972(6) 0.2972(6) 0.0203(10)
H8 H 0.3141 0.3141 0.0331
O6 O 0.2725(4) 0.3387(6) 0.2275(4)
O7 O 0.2275(4) 0.3387(6) 0.2725(4)
O8 O 0.3387(6) 0.2725(4) 0.2275(4)
O9 O 0.3387(6) 0.2275(4) 0.2725(4)
Zn2 Zn 0.28275(7) 0.21725(7) 0.28275(7)
Zn3 Zn 0.21725(7) 0.28275(7) 0.28275(7)
Zn4 Zn 0.21725(7) 0.21725(7) 0.21725(7)
O10 O 0.2725(4) 0.1613(6) 0.2725(4)
C19 C 0.2500 0.1048(10) 0.2500
C20 C 0.2500 0.1437(18) 0.2500
C21 C 0.2255(5) 0.0835(6) 0.2255(5)
H9 H 0.2086 0.0962 0.2086
C22 C 0.2267(5) 0.0428(6) 0.2267(5)
C23 C 0.2500 0.0192(8) 0.2500
C24 C 0.2028(6) 0.0203(10) 0.2028(6)
H10 H 0.1859 0.0331 0.1859
O11 O 0.2275(4) 0.1613(6) 0.2275(4)
C25 C 0.2733(5) 0.0428(6) 0.2733(5)
C26 C 0.2745(5) 0.0835(6) 0.2745(5)
H11 H 0.2914 0.0962 0.2914
C27 C 0.2972(6) 0.0203(10) 0.2972(6)
H16 H 0.3141 0.0331 0.3141
O14 O 0.2725(4) 0.2275(4) 0.3387(6)
O15 O 0.2275(4) 0.2725(4) 0.3387(6)
O16 O 0.1613(6) 0.2725(4) 0.2725(4)
C37 C 0.1048(10) 0.2500 0.2500
C38 C 0.1437(18) 0.2500 0.2500
C39 C 0.0835(6) 0.2255(5) 0.2255(5)
H17 H 0.0962 0.2086 0.2086
C40 C 0.0428(6) 0.2267(5) 0.2267(5)
C41 C 0.0192(8) 0.2500 0.2500
C42 C 0.0203(10) 0.2028(6) 0.2028(6)
H18 H 0.0331 0.1859 0.1859
O17 O 0.1613(6) 0.2275(4) 0.2275(4)
C43 C 0.0428(6) 0.2733(5) 0.2733(5)
C44 C 0.0835(6) 0.2745(5) 0.2745(5)
H19 H 0.0962 0.2914 0.2914
C45 C 0.0203(10) 0.2972(6) 0.2972(6)
H24 H 0.0331 0.3141 0.3141
C10 C 0.2972(6) 0.2972(6) 0.9797(10)
C11 C 0.2733(5) 0.2733(5) 0.9572(6)
C12 C 0.2745(5) 0.2745(5) 0.9165(6)
C13 C 0.2500 0.2500 0.8952(10)
C14 C 0.2500 0.2500 0.8563(18)
O4 O 0.2275(4) 0.2275(4) 0.8387(6)
O5 O 0.2725(4) 0.2725(4) 0.8387(6)
C15 C 0.2255(5) 0.2255(5) 0.9165(6)
H4 H 0.2086 0.2086 0.9038
C16 C 0.2267(5) 0.2267(5) 0.9572(6)
C17 C 0.2500 0.2500 0.9808(8)
C18 C 0.2028(6) 0.2028(6) 0.9797(10)
H5 H 0.1859 0.1859 0.9669
H6 H 0.2914 0.2914 0.9038
H7 H 0.3141 0.3141 0.9669
Zn5 Zn 0.21725(7) 0.21725(7) 0.78275(7)
Zn6 Zn 0.28275(7) 0.28275(7) 0.78275(7)
C28 C 0.2972(6) 0.9797(10) 0.2972(6)
C29 C 0.2733(5) 0.9572(6) 0.2733(5)
C30 C 0.2745(5) 0.9165(6) 0.2745(5)
C31 C 0.2500 0.8952(10) 0.2500
C32 C 0.2500 0.8563(18) 0.2500
O12 O 0.2275(4) 0.8387(6) 0.2275(4)
O13 O 0.2725(4) 0.8387(6) 0.2725(4)
C33 C 0.2255(5) 0.9165(6) 0.2255(5)
H12 H 0.2086 0.9038 0.2086
C34 C 0.2267(5) 0.9572(6) 0.2267(5)
C35 C 0.2500 0.9808(8) 0.2500
C36 C 0.2028(6) 0.9797(10) 0.2028(6)
H13 H 0.1859 0.9669 0.1859
H14 H 0.2914 0.9038 0.2914
H15 H 0.3141 0.9669 0.3141
Zn7 Zn 0.21725(7) 0.78275(7) 0.21725(7)
Zn8 Zn 0.28275(7) 0.78275(7) 0.28275(7)
C46 C 0.9797(10) 0.2972(6) 0.2972(6)
C47 C 0.9572(6) 0.2733(5) 0.2733(5)
C48 C 0.9165(6) 0.2745(5) 0.2745(5)
C49 C 0.8952(10) 0.2500 0.2500
C50 C 0.8563(18) 0.2500 0.2500
O18 O 0.8387(6) 0.2275(4) 0.2275(4)
O19 O 0.8387(6) 0.2725(4) 0.2725(4)
C51 C 0.9165(6) 0.2255(5) 0.2255(5)
H20 H 0.9038 0.2086 0.2086
C52 C 0.9572(6) 0.2267(5) 0.2267(5)
C53 C 0.9808(8) 0.2500 0.2500
C54 C 0.9797(10) 0.2028(6) 0.2028(6)
H21 H 0.9669 0.1859 0.1859
H22 H 0.9038 0.2914 0.2914
H23 H 0.9669 0.3141 0.3141
Zn9 Zn 0.78275(7) 0.21725(7) 0.21725(7)
Zn10 Zn 0.78275(7) 0.28275(7) 0.28275(7)
O1_2 O 0.2500 0.2500 0.7500
O6_2 O 0.3387(6) 0.2725(4) 0.7725(4)
O7_2 O 0.3387(6) 0.2275(4) 0.7275(4)
O8_2 O 0.2725(4) 0.3387(6) 0.7725(4)
O9_2 O 0.2275(4) 0.3387(6) 0.7275(4)
Zn2_2 Zn 0.21725(7) 0.28275(7) 0.71725(7)
Zn3_2 Zn 0.28275(7) 0.21725(7) 0.71725(7)
O10_2 O 0.1613(6) 0.2725(4) 0.7275(4)
C19_2 C 0.1048(10) 0.2500 0.7500
C20_2 C 0.1437(18) 0.2500 0.7500
C21_2 C 0.0835(6) 0.2255(5) 0.7745(5)
H9_2 H 0.0962 0.2086 0.7914
C22_2 C 0.0428(6) 0.2267(5) 0.7733(5)
C23_2 C 0.0192(8) 0.2500 0.7500
C24_2 C 0.0203(10) 0.2028(6) 0.7972(6)
H10_2 H 0.0331 0.1859 0.8141
O11_2 O 0.1613(6) 0.2275(4) 0.7725(4)
C25_2 C 0.0428(6) 0.2733(5) 0.7267(5)
C26_2 C 0.0835(6) 0.2745(5) 0.7255(5)
H11_2 H 0.0962 0.2914 0.7086
C27_2 C 0.0203(10) 0.2972(6) 0.7028(6)
H16_2 H 0.0331 0.3141 0.6859
O14_2 O 0.2275(4) 0.2725(4) 0.6613(6)
O15_2 O 0.2725(4) 0.2275(4) 0.6613(6)
O16_2 O 0.2725(4) 0.1613(6) 0.7275(4)
C37_2 C 0.2500 0.1048(10) 0.7500
C38_2 C 0.2500 0.1437(18) 0.7500
C39_2 C 0.2255(5) 0.0835(6) 0.7745(5)
H17_2 H 0.2086 0.0962 0.7914
C40_2 C 0.2267(5) 0.0428(6) 0.7733(5)
C41_2 C 0.2500 0.0192(8) 0.7500
C42_2 C 0.2028(6) 0.0203(10) 0.7972(6)
H18_2 H 0.1859 0.0331 0.8141
O17_2 O 0.2275(4) 0.1613(6) 0.7725(4)
C43_2 C 0.2733(5) 0.0428(6) 0.7267(5)
C44_2 C 0.2745(5) 0.0835(6) 0.7255(5)
H19_2 H 0.2914 0.0962 0.7086
C45_2 C 0.2972(6) 0.0203(10) 0.7028(6)
H24_2 H 0.3141 0.0331 0.6859
C46_2 C 0.2972(6) 0.9797(10) 0.7028(6)
C47_2 C 0.2733(5) 0.9572(6) 0.7267(5)
C48_2 C 0.2745(5) 0.9165(6) 0.7255(5)
C49_2 C 0.2500 0.8952(10) 0.7500
C50_2 C 0.2500 0.8563(18) 0.7500
O18_2 O 0.2275(4) 0.8387(6) 0.7725(4)
O19_2 O 0.2725(4) 0.8387(6) 0.7275(4)
C51_2 C 0.2255(5) 0.9165(6) 0.7745(5)
H20_2 H 0.2086 0.9038 0.7914
C52_2 C 0.2267(5) 0.9572(6) 0.7733(5)
C53_2 C 0.2500 0.9808(8) 0.7500
C54_2 C 0.2028(6) 0.9797(10) 0.7972(6)
H21_2 H 0.1859 0.9669 0.8141
H22_2 H 0.2914 0.9038 0.7086
H23_2 H 0.3141 0.9669 0.6859
Zn9_2 Zn 0.21725(7) 0.78275(7) 0.78275(7)
Zn10_2 Zn 0.28275(7) 0.78275(7) 0.71725(7)
C28_2 C 0.9797(10) 0.2972(6) 0.7028(6)
C29_2 C 0.9572(6) 0.2733(5) 0.7267(5)
C30_2 C 0.9165(6) 0.2745(5) 0.7255(5)
C31_2 C 0.8952(10) 0.2500 0.7500
C32_2 C 0.8563(18) 0.2500 0.7500
O12_2 O 0.8387(6) 0.2275(4) 0.7725(4)
O13_2 O 0.8387(6) 0.2725(4) 0.7275(4)
C33_2 C 0.9165(6) 0.2255(5) 0.7745(5)
H12_2 H 0.9038 0.2086 0.7914
C34_2 C 0.9572(6) 0.2267(5) 0.7733(5)
C35_2 C 0.9808(8) 0.2500 0.7500
C36_2 C 0.9797(10) 0.2028(6) 0.7972(6)
H13_2 H 0.9669 0.1859 0.8141
H14_2 H 0.9038 0.2914 0.7086
H15_2 H 0.9669 0.3141 0.6859
Zn7_2 Zn 0.78275(7) 0.21725(7) 0.78275(7)
Zn8_2 Zn 0.78275(7) 0.28275(7) 0.71725(7)
Zn1_2 Zn 0.28275(7) 0.71725(7) 0.21725(7)
O1_3 O 0.2500 0.7500 0.2500
O2_2 O 0.2725(4) 0.7275(4) 0.1613(6)
C1_2 C 0.2500 0.7500 0.1048(10)
C2_2 C 0.2500 0.7500 0.1437(18)
C3_2 C 0.2255(5) 0.7745(5) 0.0835(6)
H1_2 H 0.2086 0.7914 0.0962
C4_2 C 0.2267(5) 0.7733(5) 0.0428(6)
C5_2 C 0.2500 0.7500 0.0192(8)
C6_2 C 0.2028(6) 0.7972(6) 0.0203(10)
H2_2 H 0.1859 0.8141 0.0331
O3_2 O 0.2275(4) 0.7725(4) 0.1613(6)
C7_2 C 0.2733(5) 0.7267(5) 0.0428(6)
C8_2 C 0.2745(5) 0.7255(5) 0.0835(6)
H3_2 H 0.2914 0.7086 0.0962
C9_2 C 0.2972(6) 0.7028(6) 0.0203(10)
H8_2 H 0.3141 0.6859 0.0331
O6_3 O 0.3387(6) 0.7275(4) 0.2275(4)
O7_3 O 0.3387(6) 0.7725(4) 0.2725(4)
O8_3 O 0.2725(4) 0.6613(6) 0.2275(4)
O9_3 O 0.2275(4) 0.6613(6) 0.2725(4)
Zn2_3 Zn 0.21725(7) 0.71725(7) 0.28275(7)
O10_3 O 0.1613(6) 0.7275(4) 0.2725(4)
C19_3 C 0.1048(10) 0.7500 0.2500
C20_3 C 0.1437(18) 0.7500 0.2500
C21_3 C 0.0835(6) 0.7745(5) 0.2255(5)
H9_3 H 0.0962 0.7914 0.2086
C22_3 C 0.0428(6) 0.7733(5) 0.2267(5)
C23_3 C 0.0192(8) 0.7500 0.2500
C24_3 C 0.0203(10) 0.7972(6) 0.2028(6)
H10_3 H 0.0331 0.8141 0.1859
O11_3 O 0.1613(6) 0.7725(4) 0.2275(4)
C25_3 C 0.0428(6) 0.7267(5) 0.2733(5)
C26_3 C 0.0835(6) 0.7255(5) 0.2745(5)
H11_3 H 0.0962 0.7086 0.2914
C27_3 C 0.0203(10) 0.7028(6) 0.2972(6)
H16_3 H 0.0331 0.6859 0.3141
O14_3 O 0.2275(4) 0.7275(4) 0.3387(6)
O15_3 O 0.2725(4) 0.7725(4) 0.3387(6)
C10_2 C 0.2972(6) 0.7028(6) 0.9797(10)
C11_2 C 0.2733(5) 0.7267(5) 0.9572(6)
C12_2 C 0.2745(5) 0.7255(5) 0.9165(6)
C13_2 C 0.2500 0.7500 0.8952(10)
C14_2 C 0.2500 0.7500 0.8563(18)
O4_2 O 0.2275(4) 0.7725(4) 0.8387(6)
O5_2 O 0.2725(4) 0.7275(4) 0.8387(6)
C15_2 C 0.2255(5) 0.7745(5) 0.9165(6)
H4_2 H 0.2086 0.7914 0.9038
C16_2 C 0.2267(5) 0.7733(5) 0.9572(6)
C17_2 C 0.2500 0.7500 0.9808(8)
C18_2 C 0.2028(6) 0.7972(6) 0.9797(10)
H5_2 H 0.1859 0.8141 0.9669
H6_2 H 0.2914 0.7086 0.9038
H7_2 H 0.3141 0.6859 0.9669
Zn6_2 Zn 0.28275(7) 0.71725(7) 0.78275(7)
C28_3 C 0.9797(10) 0.7028(6) 0.2972(6)
C29_3 C 0.9572(6) 0.7267(5) 0.2733(5)
C30_3 C 0.9165(6) 0.7255(5) 0.2745(5)
C31_3 C 0.8952(10) 0.7500 0.2500
C32_3 C 0.8563(18) 0.7500 0.2500
O12_3 O 0.8387(6) 0.7725(4) 0.2275(4)
O13_3 O 0.8387(6) 0.7275(4) 0.2725(4)
C33_3 C 0.9165(6) 0.7745(5) 0.2255(5)
H12_3 H 0.9038 0.7914 0.2086
C34_3 C 0.9572(6) 0.7733(5) 0.2267(5)
C35_3 C 0.9808(8) 0.7500 0.2500
C36_3 C 0.9797(10) 0.7972(6) 0.2028(6)
H13_3 H 0.9669 0.8141 0.1859
H14_3 H 0.9038 0.7086 0.2914
H15_3 H 0.9669 0.6859 0.3141
Zn7_3 Zn 0.78275(7) 0.78275(7) 0.21725(7)
Zn8_3 Zn 0.78275(7) 0.71725(7) 0.28275(7)
Zn1_3 Zn 0.71725(7) 0.28275(7) 0.21725(7)
O1_4 O 0.7500 0.2500 0.2500
O2_3 O 0.7275(4) 0.2725(4) 0.1613(6)
C1_3 C 0.7500 0.2500 0.1048(10)
C2_3 C 0.7500 0.2500 0.1437(18)
C3_3 C 0.7745(5) 0.2255(5) 0.0835(6)
H1_3 H 0.7914 0.2086 0.0962
C4_3 C 0.7733(5) 0.2267(5) 0.0428(6)
C5_3 C 0.7500 0.2500 0.0192(8)
C6_3 C 0.7972(6) 0.2028(6) 0.0203(10)
H2_3 H 0.8141 0.1859 0.0331
O3_3 O 0.7725(4) 0.2275(4) 0.1613(6)
C7_3 C 0.7267(5) 0.2733(5) 0.0428(6)
C8_3 C 0.7255(5) 0.2745(5) 0.0835(6)
H3_3 H 0.7086 0.2914 0.0962
C9_3 C 0.7028(6) 0.2972(6) 0.0203(10)
H8_3 H 0.6859 0.3141 0.0331
O6_4 O 0.6613(6) 0.2725(4) 0.2275(4)
O7_4 O 0.6613(6) 0.2275(4) 0.2725(4)
O8_4 O 0.7275(4) 0.3387(6) 0.2275(4)
O9_4 O 0.7725(4) 0.3387(6) 0.2725(4)
Zn3_3 Zn 0.71725(7) 0.21725(7) 0.28275(7)
O14_4 O 0.7725(4) 0.2725(4) 0.3387(6)
O15_4 O 0.7275(4) 0.2275(4) 0.3387(6)
O16_3 O 0.7275(4) 0.1613(6) 0.2725(4)
C37_3 C 0.7500 0.1048(10) 0.2500
C38_3 C 0.7500 0.1437(18) 0.2500
C39_3 C 0.7745(5) 0.0835(6) 0.2255(5)
H17_3 H 0.7914 0.0962 0.2086
C40_3 C 0.7733(5) 0.0428(6) 0.2267(5)
C41_3 C 0.7500 0.0192(8) 0.2500
C42_3 C 0.7972(6) 0.0203(10) 0.2028(6)
H18_3 H 0.8141 0.0331 0.1859
O17_3 O 0.7725(4) 0.1613(6) 0.2275(4)
C43_3 C 0.7267(5) 0.0428(6) 0.2733(5)
C44_3 C 0.7255(5) 0.0835(6) 0.2745(5)
H19_3 H 0.7086 0.0962 0.2914
C45_3 C 0.7028(6) 0.0203(10) 0.2972(6)
H24_3 H 0.6859 0.0331 0.3141
C10_3 C 0.7028(6) 0.2972(6) 0.9797(10)
C11_3 C 0.7267(5) 0.2733(5) 0.9572(6)
C12_3 C 0.7255(5) 0.2745(5) 0.9165(6)
C13_3 C 0.7500 0.2500 0.8952(10)
C14_3 C 0.7500 0.2500 0.8563(18)
O4_3 O 0.7725(4) 0.2275(4) 0.8387(6)
O5_3 O 0.7275(4) 0.2725(4) 0.8387(6)
C15_3 C 0.7745(5) 0.2255(5) 0.9165(6)
H4_3 H 0.7914 0.2086 0.9038
C16_3 C 0.7733(5) 0.2267(5) 0.9572(6)
C17_3 C 0.7500 0.2500 0.9808(8)
C18_3 C 0.7972(6) 0.2028(6) 0.9797(10)
H5_3 H 0.8141 0.1859 0.9669
H6_3 H 0.7086 0.2914 0.9038
H7_3 H 0.6859 0.3141 0.9669
Zn6_3 Zn 0.71725(7) 0.28275(7) 0.78275(7)
C46_3 C 0.7028(6) 0.9797(10) 0.2972(6)
C47_3 C 0.7267(5) 0.9572(6) 0.2733(5)
C48_3 C 0.7255(5) 0.9165(6) 0.2745(5)
C49_3 C 0.7500 0.8952(10) 0.2500
C50_3 C 0.7500 0.8563(18) 0.2500
O18_3 O 0.7725(4) 0.8387(6) 0.2275(4)
O19_3 O 0.7275(4) 0.8387(6) 0.2725(4)
C51_3 C 0.7745(5) 0.9165(6) 0.2255(5)
H20_3 H 0.7914 0.9038 0.2086
C52_3 C 0.7733(5) 0.9572(6) 0.2267(5)
C53_3 C 0.7500 0.9808(8) 0.2500
C54_3 C 0.7972(6) 0.9797(10) 0.2028(6)
H21_3 H 0.8141 0.9669 0.1859
H22_3 H 0.7086 0.9038 0.2914
H23_3 H 0.6859 0.9669 0.3141
Zn10_3 Zn 0.71725(7) 0.78275(7) 0.28275(7)
O1_5 O 0.2500 0.7500 0.7500
O2_4 O 0.2725(4) 0.7725(4) 0.6613(6)
C1_4 C 0.2500 0.7500 0.6048(10)
C2_4 C 0.2500 0.7500 0.6437(18)
C3_4 C 0.2255(5) 0.7255(5) 0.5835(6)
H1_4 H 0.2086 0.7086 0.5962
C4_4 C 0.2267(5) 0.7267(5) 0.5428(6)
C5_4 C 0.2500 0.7500 0.5192(8)
C6_4 C 0.2028(6) 0.7028(6) 0.5203(10)
H2_4 H 0.1859 0.6859 0.5331
O3_4 O 0.2275(4) 0.7275(4) 0.6613(6)
C7_4 C 0.2733(5) 0.7733(5) 0.5428(6)
C8_4 C 0.2745(5) 0.7745(5) 0.5835(6)
H3_4 H 0.2914 0.7914 0.5962
C9_4 C 0.2972(6) 0.7972(6) 0.5203(10)
C10_4 C 0.2972(6) 0.7972(6) 0.4797(10)
C11_4 C 0.2733(5) 0.7733(5) 0.4572(6)
C12_4 C 0.2745(5) 0.7745(5) 0.4165(6)
C13_4 C 0.2500 0.7500 0.3952(10)
C14_4 C 0.2500 0.7500 0.3563(18)
C15_4 C 0.2255(5) 0.7255(5) 0.4165(6)
H4_4 H 0.2086 0.7086 0.4038
C16_4 C 0.2267(5) 0.7267(5) 0.4572(6)
C17_4 C 0.2500 0.7500 0.4808(8)
C18_4 C 0.2028(6) 0.7028(6) 0.4797(10)
H5_4 H 0.1859 0.6859 0.4669
H6_4 H 0.2914 0.7914 0.4038
H7_4 H 0.3141 0.8141 0.4669
H8_4 H 0.3141 0.8141 0.5331
O8_5 O 0.3387(6) 0.7725(4) 0.7275(4)
O9_5 O 0.3387(6) 0.7275(4) 0.7725(4)
Zn4_2 Zn 0.21725(7) 0.71725(7) 0.71725(7)
O10_4 O 0.2725(4) 0.6613(6) 0.7725(4)
C19_4 C 0.2500 0.6048(10) 0.7500
C20_4 C 0.2500 0.6437(18) 0.7500
C21_4 C 0.2255(5) 0.5835(6) 0.7255(5)
H9_4 H 0.2086 0.5962 0.7086
C22_4 C 0.2267(5) 0.5428(6) 0.7267(5)
C23_4 C 0.2500 0.5192(8) 0.7500
C24_4 C 0.2028(6) 0.5203(10) 0.7028(6)
H10_4 H 0.1859 0.5331 0.6859
O11_4 O 0.2275(4) 0.6613(6) 0.7275(4)
C25_4 C 0.2733(5) 0.5428(6) 0.7733(5)
C26_4 C 0.2745(5) 0.5835(6) 0.7745(5)
H11_4 H 0.2914 0.5962 0.7914
C27_4 C 0.2972(6) 0.5203(10) 0.7972(6)
C28_4 C 0.2972(6) 0.4797(10) 0.7972(6)
C29_4 C 0.2733(5) 0.4572(6) 0.7733(5)
C30_4 C 0.2745(5) 0.4165(6) 0.7745(5)
C31_4 C 0.2500 0.3952(10) 0.7500
C32_4 C 0.2500 0.3563(18) 0.7500
C33_4 C 0.2255(5) 0.4165(6) 0.7255(5)
H12_4 H 0.2086 0.4038 0.7086
C34_4 C 0.2267(5) 0.4572(6) 0.7267(5)
C35_4 C 0.2500 0.4808(8) 0.7500
C36_4 C 0.2028(6) 0.4797(10) 0.7028(6)
H13_4 H 0.1859 0.4669 0.6859
H14_4 H 0.2914 0.4038 0.7914
H15_4 H 0.3141 0.4669 0.8141
H16_4 H 0.3141 0.5331 0.8141
O16_4 O 0.1613(6) 0.7725(4) 0.7725(4)
C37_4 C 0.1048(10) 0.7500 0.7500
C38_4 C 0.1437(18) 0.7500 0.7500
C39_4 C 0.0835(6) 0.7255(5) 0.7255(5)
H17_4 H 0.0962 0.7086 0.7086
C40_4 C 0.0428(6) 0.7267(5) 0.7267(5)
C41_4 C 0.0192(8) 0.7500 0.7500
C42_4 C 0.0203(10) 0.7028(6) 0.7028(6)
H18_4 H 0.0331 0.6859 0.6859
O17_4 O 0.1613(6) 0.7275(4) 0.7275(4)
C43_4 C 0.0428(6) 0.7733(5) 0.7733(5)
C44_4 C 0.0835(6) 0.7745(5) 0.7745(5)
H19_4 H 0.0962 0.7914 0.7914
C45_4 C 0.0203(10) 0.7972(6) 0.7972(6)
H24_4 H 0.0331 0.8141 0.8141
C46_4 C 0.9797(10) 0.7972(6) 0.7972(6)
C47_4 C 0.9572(6) 0.7733(5) 0.7733(5)
C48_4 C 0.9165(6) 0.7745(5) 0.7745(5)
C49_4 C 0.8952(10) 0.7500 0.7500
C50_4 C 0.8563(18) 0.7500 0.7500
O18_4 O 0.8387(6) 0.7275(4) 0.7275(4)
O19_4 O 0.8387(6) 0.7725(4) 0.7725(4)
C51_4 C 0.9165(6) 0.7255(5) 0.7255(5)
H20_4 H 0.9038 0.7086 0.7086
C52_4 C 0.9572(6) 0.7267(5) 0.7267(5)
C53_4 C 0.9808(8) 0.7500 0.7500
C54_4 C 0.9797(10) 0.7028(6) 0.7028(6)
H21_4 H 0.9669 0.6859 0.6859
H22_4 H 0.9038 0.7914 0.7914
H23_4 H 0.9669 0.8141 0.8141
Zn9_3 Zn 0.78275(7) 0.71725(7) 0.71725(7)
Zn10_4 Zn 0.78275(7) 0.78275(7) 0.78275(7)
C37_5 C 0.2500 0.6048(10) 0.2500
C38_5 C 0.2500 0.6437(18) 0.2500
C39_5 C 0.2255(5) 0.5835(6) 0.2745(5)
H17_5 H 0.2086 0.5962 0.2914
C40_5 C 0.2267(5) 0.5428(6) 0.2733(5)
C41_5 C 0.2500 0.5192(8) 0.2500
C42_5 C 0.2028(6) 0.5203(10) 0.2972(6)
H18_5 H 0.1859 0.5331 0.3141
C43_5 C 0.2733(5) 0.5428(6) 0.2267(5)
C44_5 C 0.2745(5) 0.5835(6) 0.2255(5)
H19_5 H 0.2914 0.5962 0.2086
C45_5 C 0.2972(6) 0.5203(10) 0.2028(6)
C46_5 C 0.2972(6) 0.4797(10) 0.2028(6)
C47_5 C 0.2733(5) 0.4572(6) 0.2267(5)
C48_5 C 0.2745(5) 0.4165(6) 0.2255(5)
C49_5 C 0.2500 0.3952(10) 0.2500
C50_5 C 0.2500 0.3563(18) 0.2500
C51_5 C 0.2255(5) 0.4165(6) 0.2745(5)
H20_5 H 0.2086 0.4038 0.2914
C52_5 C 0.2267(5) 0.4572(6) 0.2733(5)
C53_5 C 0.2500 0.4808(8) 0.2500
C54_5 C 0.2028(6) 0.4797(10) 0.2972(6)
H21_5 H 0.1859 0.4669 0.3141
H22_5 H 0.2914 0.4038 0.2086
H23_5 H 0.3141 0.4669 0.1859
H24_5 H 0.3141 0.5331 0.1859
C1_5 C 0.2500 0.2500 0.6048(10)
C2_5 C 0.2500 0.2500 0.6437(18)
C3_5 C 0.2255(5) 0.2745(5) 0.5835(6)
H1_5 H 0.2086 0.2914 0.5962
C4_5 C 0.2267(5) 0.2733(5) 0.5428(6)
C5_5 C 0.2500 0.2500 0.5192(8)
C6_5 C 0.2028(6) 0.2972(6) 0.5203(10)
H2_5 H 0.1859 0.3141 0.5331
C7_5 C 0.2733(5) 0.2267(5) 0.5428(6)
C8_5 C 0.2745(5) 0.2255(5) 0.5835(6)
H3_5 H 0.2914 0.2086 0.5962
C9_5 C 0.2972(6) 0.2028(6) 0.5203(10)
C10_5 C 0.2972(6) 0.2028(6) 0.4797(10)
C11_5 C 0.2733(5) 0.2267(5) 0.4572(6)
C12_5 C 0.2745(5) 0.2255(5) 0.4165(6)
C13_5 C 0.2500 0.2500 0.3952(10)
C14_5 C 0.2500 0.2500 0.3563(18)
C15_5 C 0.2255(5) 0.2745(5) 0.4165(6)
H4_5 H 0.2086 0.2914 0.4038
C16_5 C 0.2267(5) 0.2733(5) 0.4572(6)
C17_5 C 0.2500 0.2500 0.4808(8)
C18_5 C 0.2028(6) 0.2972(6) 0.4797(10)
H5_5 H 0.1859 0.3141 0.4669
H6_5 H 0.2914 0.2086 0.4038
H7_5 H 0.3141 0.1859 0.4669
H8_5 H 0.3141 0.1859 0.5331
Zn1_4 Zn 0.71725(7) 0.78275(7) 0.71725(7)
O1_6 O 0.7500 0.7500 0.7500
O2_5 O 0.7275(4) 0.7725(4) 0.6613(6)
C1_6 C 0.7500 0.7500 0.6048(10)
C2_6 C 0.7500 0.7500 0.6437(18)
C3_6 C 0.7745(5) 0.7255(5) 0.5835(6)
H1_6 H 0.7914 0.7086 0.5962
C4_6 C 0.7733(5) 0.7267(5) 0.5428(6)
C5_6 C 0.7500 0.7500 0.5192(8)
C6_6 C 0.7972(6) 0.7028(6) 0.5203(10)
H2_6 H 0.8141 0.6859 0.5331
O3_5 O 0.7725(4) 0.7275(4) 0.6613(6)
C7_6 C 0.7267(5) 0.7733(5) 0.5428(6)
C8_6 C 0.7255(5) 0.7745(5) 0.5835(6)
H3_6 H 0.7086 0.7914 0.5962
C9_6 C 0.7028(6) 0.7972(6) 0.5203(10)
C10_6 C 0.7028(6) 0.7972(6) 0.4797(10)
C11_6 C 0.7267(5) 0.7733(5) 0.4572(6)
C12_6 C 0.7255(5) 0.7745(5) 0.4165(6)
C13_6 C 0.7500 0.7500 0.3952(10)
C14_6 C 0.7500 0.7500 0.3563(18)
O4_4 O 0.7725(4) 0.7275(4) 0.3387(6)
O5_4 O 0.7275(4) 0.7725(4) 0.3387(6)
C15_6 C 0.7745(5) 0.7255(5) 0.4165(6)
H4_6 H 0.7914 0.7086 0.4038
C16_6 C 0.7733(5) 0.7267(5) 0.4572(6)
C17_6 C 0.7500 0.7500 0.4808(8)
C18_6 C 0.7972(6) 0.7028(6) 0.4797(10)
H5_6 H 0.8141 0.6859 0.4669
H6_6 H 0.7086 0.7914 0.4038
H7_6 H 0.6859 0.8141 0.4669
H8_6 H 0.6859 0.8141 0.5331
O6_5 O 0.6613(6) 0.7725(4) 0.7275(4)
O7_5 O 0.6613(6) 0.7275(4) 0.7725(4)
O8_6 O 0.7275(4) 0.8387(6) 0.7275(4)
O9_6 O 0.7725(4) 0.8387(6) 0.7725(4)
Zn3_4 Zn 0.71725(7) 0.71725(7) 0.78275(7)
O14_5 O 0.7725(4) 0.7725(4) 0.8387(6)
O15_5 O 0.7275(4) 0.7275(4) 0.8387(6)
O16_5 O 0.7275(4) 0.6613(6) 0.7725(4)
C37_6 C 0.7500 0.6048(10) 0.7500
C38_6 C 0.7500 0.6437(18) 0.7500
C39_6 C 0.7745(5) 0.5835(6) 0.7255(5)
H17_6 H 0.7914 0.5962 0.7086
C40_6 C 0.7733(5) 0.5428(6) 0.7267(5)
C41_6 C 0.7500 0.5192(8) 0.7500
C42_6 C 0.7972(6) 0.5203(10) 0.7028(6)
H18_6 H 0.8141 0.5331 0.6859
O17_5 O 0.7725(4) 0.6613(6) 0.7275(4)
C43_6 C 0.7267(5) 0.5428(6) 0.7733(5)
C44_6 C 0.7255(5) 0.5835(6) 0.7745(5)
H19_6 H 0.7086 0.5962 0.7914
C45_6 C 0.7028(6) 0.5203(10) 0.7972(6)
C46_6 C 0.7028(6) 0.4797(10) 0.7972(6)
C47_6 C 0.7267(5) 0.4572(6) 0.7733(5)
C48_6 C 0.7255(5) 0.4165(6) 0.7745(5)
C49_6 C 0.7500 0.3952(10) 0.7500
C50_6 C 0.7500 0.3563(18) 0.7500
O18_5 O 0.7725(4) 0.3387(6) 0.7275(4)
O19_5 O 0.7275(4) 0.3387(6) 0.7725(4)
C51_6 C 0.7745(5) 0.4165(6) 0.7255(5)
H20_6 H 0.7914 0.4038 0.7086
C52_6 C 0.7733(5) 0.4572(6) 0.7267(5)
C53_6 C 0.7500 0.4808(8) 0.7500
C54_6 C 0.7972(6) 0.4797(10) 0.7028(6)
H21_6 H 0.8141 0.4669 0.6859
H22_6 H 0.7086 0.4038 0.7914
H23_6 H 0.6859 0.4669 0.8141
H24_6 H 0.6859 0.5331 0.8141
O1_7 O 0.7500 0.2500 0.7500
O2_6 O 0.7725(4) 0.2725(4) 0.6613(6)
C1_7 C 0.7500 0.2500 0.6048(10)
C2_7 C 0.7500 0.2500 0.6437(18)
C3_7 C 0.7255(5) 0.2255(5) 0.5835(6)
H1_7 H 0.7086 0.2086 0.5962
C4_7 C 0.7267(5) 0.2267(5) 0.5428(6)
C5_7 C 0.7500 0.2500 0.5192(8)
C6_7 C 0.7028(6) 0.2028(6) 0.5203(10)
H2_7 H 0.6859 0.1859 0.5331
O3_6 O 0.7275(4) 0.2275(4) 0.6613(6)
C7_7 C 0.7733(5) 0.2733(5) 0.5428(6)
C8_7 C 0.7745(5) 0.2745(5) 0.5835(6)
H3_7 H 0.7914 0.2914 0.5962
C9_7 C 0.7972(6) 0.2972(6) 0.5203(10)
C10_7 C 0.7972(6) 0.2972(6) 0.4797(10)
C11_7 C 0.7733(5) 0.2733(5) 0.4572(6)
C12_7 C 0.7745(5) 0.2745(5) 0.4165(6)
C13_7 C 0.7500 0.2500 0.3952(10)
C14_7 C 0.7500 0.2500 0.3563(18)
C15_7 C 0.7255(5) 0.2255(5) 0.4165(6)
H4_7 H 0.7086 0.2086 0.4038
C16_7 C 0.7267(5) 0.2267(5) 0.4572(6)
C17_7 C 0.7500 0.2500 0.4808(8)
C18_7 C 0.7028(6) 0.2028(6) 0.4797(10)
H5_7 H 0.6859 0.1859 0.4669
H6_7 H 0.7914 0.2914 0.4038
H7_7 H 0.8141 0.3141 0.4669
H8_7 H 0.8141 0.3141 0.5331
Zn4_3 Zn 0.71725(7) 0.21725(7) 0.71725(7)
O10_5 O 0.7725(4) 0.1613(6) 0.7725(4)
C19_5 C 0.7500 0.1048(10) 0.7500
C20_5 C 0.7500 0.1437(18) 0.7500
C21_5 C 0.7255(5) 0.0835(6) 0.7255(5)
H9_5 H 0.7086 0.0962 0.7086
C22_5 C 0.7267(5) 0.0428(6) 0.7267(5)
C23_5 C 0.7500 0.0192(8) 0.7500
C24_5 C 0.7028(6) 0.0203(10) 0.7028(6)
H10_5 H 0.6859 0.0331 0.6859
O11_5 O 0.7275(4) 0.1613(6) 0.7275(4)
C25_5 C 0.7733(5) 0.0428(6) 0.7733(5)
C26_5 C 0.7745(5) 0.0835(6) 0.7745(5)
H11_5 H 0.7914 0.0962 0.7914
C27_5 C 0.7972(6) 0.0203(10) 0.7972(6)
H16_5 H 0.8141 0.0331 0.8141
O16_6 O 0.6613(6) 0.2725(4) 0.7725(4)
C37_7 C 0.6048(10) 0.2500 0.7500
C38_7 C 0.6437(18) 0.2500 0.7500
C39_7 C 0.5835(6) 0.2255(5) 0.7255(5)
H17_7 H 0.5962 0.2086 0.7086
C40_7 C 0.5428(6) 0.2267(5) 0.7267(5)
C41_7 C 0.5192(8) 0.2500 0.7500
C42_7 C 0.5203(10) 0.2028(6) 0.7028(6)
H18_7 H 0.5331 0.1859 0.6859
O17_6 O 0.6613(6) 0.2275(4) 0.7275(4)
C43_7 C 0.5428(6) 0.2733(5) 0.7733(5)
C44_7 C 0.5835(6) 0.2745(5) 0.7745(5)
H19_7 H 0.5962 0.2914 0.7914
C45_7 C 0.5203(10) 0.2972(6) 0.7972(6)
C46_7 C 0.4797(10) 0.2972(6) 0.7972(6)
C47_7 C 0.4572(6) 0.2733(5) 0.7733(5)
C48_7 C 0.4165(6) 0.2745(5) 0.7745(5)
C49_7 C 0.3952(10) 0.2500 0.7500
C50_7 C 0.3563(18) 0.2500 0.7500
C51_7 C 0.4165(6) 0.2255(5) 0.7255(5)
H20_7 H 0.4038 0.2086 0.7086
C52_7 C 0.4572(6) 0.2267(5) 0.7267(5)
C53_7 C 0.4808(8) 0.2500 0.7500
C54_7 C 0.4797(10) 0.2028(6) 0.7028(6)
H21_7 H 0.4669 0.1859 0.6859
H22_7 H 0.4038 0.2914 0.7914
H23_7 H 0.4669 0.3141 0.8141
H24_7 H 0.5331 0.3141 0.8141
C28_5 C 0.7972(6) 0.9797(10) 0.7972(6)
C29_5 C 0.7733(5) 0.9572(6) 0.7733(5)
C30_5 C 0.7745(5) 0.9165(6) 0.7745(5)
C31_5 C 0.7500 0.8952(10) 0.7500
C32_5 C 0.7500 0.8563(18) 0.7500
C33_5 C 0.7255(5) 0.9165(6) 0.7255(5)
H12_5 H 0.7086 0.9038 0.7086
C34_5 C 0.7267(5) 0.9572(6) 0.7267(5)
C35_5 C 0.7500 0.9808(8) 0.7500
C36_5 C 0.7028(6) 0.9797(10) 0.7028(6)
H13_5 H 0.6859 0.9669 0.6859
H14_5 H 0.7914 0.9038 0.7914
H15_5 H 0.8141 0.9669 0.8141
C19_6 C 0.6048(10) 0.2500 0.2500
C20_6 C 0.6437(18) 0.2500 0.2500
C21_6 C 0.5835(6) 0.2255(5) 0.2745(5)
H9_6 H 0.5962 0.2086 0.2914
C22_6 C 0.5428(6) 0.2267(5) 0.2733(5)
C23_6 C 0.5192(8) 0.2500 0.2500
C24_6 C 0.5203(10) 0.2028(6) 0.2972(6)
H10_6 H 0.5331 0.1859 0.3141
C25_6 C 0.5428(6) 0.2733(5) 0.2267(5)
C26_6 C 0.5835(6) 0.2745(5) 0.2255(5)
H11_6 H 0.5962 0.2914 0.2086
C27_6 C 0.5203(10) 0.2972(6) 0.2028(6)
C28_6 C 0.4797(10) 0.2972(6) 0.2028(6)
C29_6 C 0.4572(6) 0.2733(5) 0.2267(5)
C30_6 C 0.4165(6) 0.2745(5) 0.2255(5)
C31_6 C 0.3952(10) 0.2500 0.2500
C32_6 C 0.3563(18) 0.2500 0.2500
C33_6 C 0.4165(6) 0.2255(5) 0.2745(5)
H12_6 H 0.4038 0.2086 0.2914
C34_6 C 0.4572(6) 0.2267(5) 0.2733(5)
C35_6 C 0.4808(8) 0.2500 0.2500
C36_6 C 0.4797(10) 0.2028(6) 0.2972(6)
H13_6 H 0.4669 0.1859 0.3141
H14_6 H 0.4038 0.2914 0.2086
H15_6 H 0.4669 0.3141 0.1859
H16_6 H 0.5331 0.3141 0.1859
C19_7 C 0.6048(10) 0.7500 0.7500
C20_7 C 0.6437(18) 0.7500 0.7500
C21_7 C 0.5835(6) 0.7745(5) 0.7255(5)
H9_7 H 0.5962 0.7914 0.7086
C22_7 C 0.5428(6) 0.7733(5) 0.7267(5)
C23_7 C 0.5192(8) 0.7500 0.7500
C24_7 C 0.5203(10) 0.7972(6) 0.7028(6)
H10_7 H 0.5331 0.8141 0.6859
C25_7 C 0.5428(6) 0.7267(5) 0.7733(5)
C26_7 C 0.5835(6) 0.7255(5) 0.7745(5)
H11_7 H 0.5962 0.7086 0.7914
C27_7 C 0.5203(10) 0.7028(6) 0.7972(6)
C28_7 C 0.4797(10) 0.7028(6) 0.7972(6)
C29_7 C 0.4572(6) 0.7267(5) 0.7733(5)
C30_7 C 0.4165(6) 0.7255(5) 0.7745(5)
C31_7 C 0.3952(10) 0.7500 0.7500
C32_7 C 0.3563(18) 0.7500 0.7500
C33_7 C 0.4165(6) 0.7745(5) 0.7255(5)
H12_7 H 0.4038 0.7914 0.7086
C34_7 C 0.4572(6) 0.7733(5) 0.7267(5)
C35_7 C 0.4808(8) 0.7500 0.7500
C36_7 C 0.4797(10) 0.7972(6) 0.7028(6)
H13_7 H 0.4669 0.8141 0.6859
H14_7 H 0.4038 0.7086 0.7914
H15_7 H 0.4669 0.6859 0.8141
H16_7 H 0.5331 0.6859 0.8141
O1_8 O 0.7500 0.7500 0.2500
O2_7 O 0.7725(4) 0.7725(4) 0.1613(6)
C1_8 C 0.7500 0.7500 0.1048(10)
C2_8 C 0.7500 0.7500 0.1437(18)
C3_8 C 0.7255(5) 0.7255(5) 0.0835(6)
H1_8 H 0.7086 0.7086 0.0962
C4_8 C 0.7267(5) 0.7267(5) 0.0428(6)
C5_8 C 0.7500 0.7500 0.0192(8)
C6_8 C 0.7028(6) 0.7028(6) 0.0203(10)
H2_8 H 0.6859 0.6859 0.0331
O3_7 O 0.7275(4) 0.7275(4) 0.1613(6)
C7_8 C 0.7733(5) 0.7733(5) 0.0428(6)
C8_8 C 0.7745(5) 0.7745(5) 0.0835(6)
H3_8 H 0.7914 0.7914 0.0962
C9_8 C 0.7972(6) 0.7972(6) 0.0203(10)
H8_8 H 0.8141 0.8141 0.0331
Zn4_4 Zn 0.71725(7) 0.71725(7) 0.21725(7)
O10_6 O 0.7725(4) 0.6613(6) 0.2725(4)
C19_8 C 0.7500 0.6048(10) 0.2500
C20_8 C 0.7500 0.6437(18) 0.2500
C21_8 C 0.7255(5) 0.5835(6) 0.2255(5)
H9_8 H 0.7086 0.5962 0.2086
C22_8 C 0.7267(5) 0.5428(6) 0.2267(5)
C23_8 C 0.7500 0.5192(8) 0.2500
C24_8 C 0.7028(6) 0.5203(10) 0.2028(6)
H10_8 H 0.6859 0.5331 0.1859
O11_6 O 0.7275(4) 0.6613(6) 0.2275(4)
C25_8 C 0.7733(5) 0.5428(6) 0.2733(5)
C26_8 C 0.7745(5) 0.5835(6) 0.2745(5)
H11_8 H 0.7914 0.5962 0.2914
C27_8 C 0.7972(6) 0.5203(10) 0.2972(6)
C28_8 C 0.7972(6) 0.4797(10) 0.2972(6)
C29_8 C 0.7733(5) 0.4572(6) 0.2733(5)
C30_8 C 0.7745(5) 0.4165(6) 0.2745(5)
C31_8 C 0.7500 0.3952(10) 0.2500
C32_8 C 0.7500 0.3563(18) 0.2500
C33_8 C 0.7255(5) 0.4165(6) 0.2255(5)
H12_8 H 0.7086 0.4038 0.2086
C34_8 C 0.7267(5) 0.4572(6) 0.2267(5)
C35_8 C 0.7500 0.4808(8) 0.2500
C36_8 C 0.7028(6) 0.4797(10) 0.2028(6)
H13_8 H 0.6859 0.4669 0.1859
H14_8 H 0.7914 0.4038 0.2914
H15_8 H 0.8141 0.4669 0.3141
H16_8 H 0.8141 0.5331 0.3141
O16_7 O 0.6613(6) 0.7725(4) 0.2725(4)
C37_8 C 0.6048(10) 0.7500 0.2500
C38_8 C 0.6437(18) 0.7500 0.2500
C39_8 C 0.5835(6) 0.7255(5) 0.2255(5)
H17_8 H 0.5962 0.7086 0.2086
C40_8 C 0.5428(6) 0.7267(5) 0.2267(5)
C41_8 C 0.5192(8) 0.7500 0.2500
C42_8 C 0.5203(10) 0.7028(6) 0.2028(6)
H18_8 H 0.5331 0.6859 0.1859
O17_7 O 0.6613(6) 0.7275(4) 0.2275(4)
C43_8 C 0.5428(6) 0.7733(5) 0.2733(5)
C44_8 C 0.5835(6) 0.7745(5) 0.2745(5)
H19_8 H 0.5962 0.7914 0.2914
C45_8 C 0.5203(10) 0.7972(6) 0.2972(6)
C46_8 C 0.4797(10) 0.7972(6) 0.2972(6)
C47_8 C 0.4572(6) 0.7733(5) 0.2733(5)
C48_8 C 0.4165(6) 0.7745(5) 0.2745(5)
C49_8 C 0.3952(10) 0.7500 0.2500
C50_8 C 0.3563(18) 0.7500 0.2500
C51_8 C 0.4165(6) 0.7255(5) 0.2255(5)
H20_8 H 0.4038 0.7086 0.2086
C52_8 C 0.4572(6) 0.7267(5) 0.2267(5)
C53_8 C 0.4808(8) 0.7500 0.2500
C54_8 C 0.4797(10) 0.7028(6) 0.2028(6)
H21_8 H 0.4669 0.6859 0.1859
H22_8 H 0.4038 0.7914 0.2914
H23_8 H 0.4669 0.8141 0.3141
H24_8 H 0.5331 0.8141 0.3141
C10_8 C 0.7972(6) 0.7972(6) 0.9797(10)
C11_8 C 0.7733(5) 0.7733(5) 0.9572(6)
C12_8 C 0.7745(5) 0.7745(5) 0.9165(6)
C13_8 C 0.7500 0.7500 0.8952(10)
C14_8 C 0.7500 0.7500 0.8563(18)
C15_8 C 0.7255(5) 0.7255(5) 0.9165(6)
H4_8 H 0.7086 0.7086 0.9038
C16_8 C 0.7267(5) 0.7267(5) 0.9572(6)
C17_8 C 0.7500 0.7500 0.9808(8)
C18_8 C 0.7028(6) 0.7028(6) 0.9797(10)
H5_8 H 0.6859 0.6859 0.9669
H6_8 H 0.7914 0.7914 0.9038
H7_8 H 0.8141 0.8141 0.9669
loop_
_geom_bond_atom_site_label_1
_geom_bond_atom_site_label_2
_geom_bond_site_symmetry_1
_geom_bond_site_symmetry_2
Zn1 O1 1_555 1_555
O1 Zn2 1_555 1_555
O2 Zn1 1_555 1_555
C1 C2 1_555 1_555
C2 O2 1_555 1_555
C3 C1 1_555 1_555
H1 C3 1_555 1_555
C4 C3 1_555 1_555
C5 C4 1_555 1_555
C6 C4 1_555 1_555
H2 C6 1_555 1_555
O3 C2 1_555 1_555
C7 C5 1_555 1_555
C8 C1 1_555 1_555
H3 C8 1_555 1_555
C9 C7 1_555 1_555
H8 C9 1_555 1_555
O6 Zn1 1_555 1_555
O7 Zn3 1_555 1_555
O8 Zn1 1_555 1_555
O9 Zn2 1_555 1_555
Zn2 O10 1_555 1_555
Zn3 O1 1_555 1_555
Zn4 O1 1_555 1_555
O10 C20 1_555 1_555
C19 C20 1_555 1_555
C20 O11 1_555 1_555
C21 C19 1_555 1_555
H9 C21 1_555 1_555
C22 C21 1_555 1_555
C23 C22 1_555 1_555
C24 C22 1_555 1_555
H10 C24 1_555 1_555
O11 Zn4 1_555 1_555
C25 C23 1_555 1_555
C26 C19 1_555 1_555
H11 C26 1_555 1_555
C27 C25 1_555 1_555
H16 C27 1_555 1_555
O14 Zn2 1_555 1_555
O15 Zn3 1_555 1_555
O16 Zn3 1_555 1_555
C37 C38 1_555 1_555
C38 O16 1_555 1_555
C39 C37 1_555 1_555
H17 C39 1_555 1_555
C40 C39 1_555 1_555
C41 C40 1_555 1_555
C42 C40 1_555 1_555
H18 C42 1_555 1_555
O17 Zn4 1_555 1_555
C43 C41 1_555 1_555
C44 C37 1_555 1_555
H19 C44 1_555 1_555
C45 C43 1_555 1_555
H24 C45 1_555 1_555
O3 Zn4 1_555 1_555
C7 C8 1_555 1_555
C25 C26 1_555 1_555
C38 O17 1_555 1_555
C43 C44 1_555 1_555
C11 C10 1_555 1_555
C12 C11 1_555 1_555
C13 C12 1_555 1_555
C14 C13 1_555 1_555
O4 C14 1_555 1_555
O5 C14 1_555 1_555
C15 C13 1_555 1_555
H4 C15 1_555 1_555
C16 C15 1_555 1_555
H5 C18 1_555 1_555
H6 C12 1_555 1_555
H7 C10 1_555 1_555
Zn5 O4 1_555 1_555
Zn6 O5 1_555 1_555
C11 C17 1_555 1_555
C16 C17 1_555 1_555
C16 C18 1_555 1_555
C29 C28 1_555 1_555
C30 C29 1_555 1_555
C31 C30 1_555 1_555
C32 C31 1_555 1_555
O12 C32 1_555 1_555
O13 C32 1_555 1_555
C33 C31 1_555 1_555
H12 C33 1_555 1_555
C34 C33 1_555 1_555
H13 C36 1_555 1_555
H14 C30 1_555 1_555
H15 C28 1_555 1_555
Zn7 O12 1_555 1_555
Zn8 O13 1_555 1_555
C29 C35 1_555 1_555
C34 C36 1_555 1_555
C34 C35 1_555 1_555
C47 C46 1_555 1_555
C48 C47 1_555 1_555
C49 C48 1_555 1_555
C50 C49 1_555 1_555
O18 C50 1_555 1_555
O19 C50 1_555 1_555
C51 C49 1_555 1_555
H20 C51 1_555 1_555
C52 C51 1_555 1_555
H21 C54 1_555 1_555
H22 C48 1_555 1_555
H23 C46 1_555 1_555
Zn9 O18 1_555 1_555
Zn10 O19 1_555 1_555
C47 C53 1_555 1_555
C52 C54 1_555 1_555
C52 C53 1_555 1_555
Zn6 O1_2 1_555 1_555
O1_2 Zn2_2 1_555 1_555
O6_2 Zn6 1_555 1_555
O7_2 Zn3_2 1_555 1_555
O8_2 Zn6 1_555 1_555
O9_2 Zn2_2 1_555 1_555
Zn2_2 O10_2 1_555 1_555
Zn3_2 O1_2 1_555 1_555
Zn5 O1_2 1_555 1_555
O10_2 C20_2 1_555 1_555
C19_2 C20_2 1_555 1_555
C20_2 O11_2 1_555 1_555
C21_2 C19_2 1_555 1_555
H9_2 C21_2 1_555 1_555
C22_2 C21_2 1_555 1_555
C23_2 C22_2 1_555 1_555
C24_2 C22_2 1_555 1_555
H10_2 C24_2 1_555 1_555
O11_2 Zn5 1_555 1_555
C25_2 C23_2 1_555 1_555
C26_2 C19_2 1_555 1_555
H11_2 C26_2 1_555 1_555
C27_2 C25_2 1_555 1_555
H16_2 C27_2 1_555 1_555
O14_2 Zn2_2 1_555 1_555
O15_2 Zn3_2 1_555 1_555
O16_2 Zn3_2 1_555 1_555
C37_2 C38_2 1_555 1_555
C38_2 O16_2 1_555 1_555
C39_2 C37_2 1_555 1_555
H17_2 C39_2 1_555 1_555
C40_2 C39_2 1_555 1_555
C41_2 C40_2 1_555 1_555
C42_2 C40_2 1_555 1_555
H18_2 C42_2 1_555 1_555
O17_2 Zn5 1_555 1_555
C43_2 C41_2 1_555 1_555
C44_2 C37_2 1_555 1_555
H19_2 C44_2 1_555 1_555
C45_2 C43_2 1_555 1_555
H24_2 C45_2 1_555 1_555
C25_2 C26_2 1_555 1_555
C38_2 O17_2 1_555 1_555
C43_2 C44_2 1_555 1_555
C47_2 C46_2 1_555 1_555
C48_2 C47_2 1_555 1_555
C49_2 C48_2 1_555 1_555
C50_2 C49_2 1_555 1_555
O18_2 C50_2 1_555 1_555
O19_2 C50_2 1_555 1_555
C51_2 C49_2 1_555 1_555
H20_2 C51_2 1_555 1_555
C52_2 C51_2 1_555 1_555
H21_2 C54_2 1_555 1_555
H22_2 C48_2 1_555 1_555
H23_2 C46_2 1_555 1_555
Zn9_2 O18_2 1_555 1_555
Zn10_2 O19_2 1_555 1_555
C47_2 C53_2 1_555 1_555
C52_2 C54_2 1_555 1_555
C52_2 C53_2 1_555 1_555
C29_2 C28_2 1_555 1_555
C30_2 C29_2 1_555 1_555
C31_2 C30_2 1_555 1_555
C32_2 C31_2 1_555 1_555
O12_2 C32_2 1_555 1_555
O13_2 C32_2 1_555 1_555
C33_2 C31_2 1_555 1_555
H12_2 C33_2 1_555 1_555
C34_2 C33_2 1_555 1_555
H13_2 C36_2 1_555 1_555
H14_2 C30_2 1_555 1_555
H15_2 C28_2 1_555 1_555
Zn7_2 O12_2 1_555 1_555
Zn8_2 O13_2 1_555 1_555
C29_2 C35_2 1_555 1_555
C34_2 C36_2 1_555 1_555
C34_2 C35_2 1_555 1_555
Zn1_2 O1_3 1_555 1_555
O1_3 Zn2_3 1_555 1_555
O2_2 Zn1_2 1_555 1_555
C1_2 C2_2 1_555 1_555
C2_2 O2_2 1_555 1_555
C3_2 C1_2 1_555 1_555
H1_2 C3_2 1_555 1_555
C4_2 C3_2 1_555 1_555
C5_2 C4_2 1_555 1_555
C6_2 C4_2 1_555 1_555
H2_2 C6_2 1_555 1_555
O3_2 C2_2 1_555 1_555
C7_2 C5_2 1_555 1_555
C8_2 C1_2 1_555 1_555
H3_2 C8_2 1_555 1_555
C9_2 C7_2 1_555 1_555
H8_2 C9_2 1_555 1_555
O6_3 Zn1_2 1_555 1_555
O7_3 Zn8 1_555 1_555
O8_3 Zn1_2 1_555 1_555
O9_3 Zn2_3 1_555 1_555
Zn2_3 O10_3 1_555 1_555
Zn8 O1_3 1_555 1_555
Zn7 O1_3 1_555 1_555
O10_3 C20_3 1_555 1_555
C19_3 C20_3 1_555 1_555
C20_3 O11_3 1_555 1_555
C21_3 C19_3 1_555 1_555
H9_3 C21_3 1_555 1_555
C22_3 C21_3 1_555 1_555
C23_3 C22_3 1_555 1_555
C24_3 C22_3 1_555 1_555
H10_3 C24_3 1_555 1_555
O11_3 Zn7 1_555 1_555
C25_3 C23_3 1_555 1_555
C26_3 C19_3 1_555 1_555
H11_3 C26_3 1_555 1_555
C27_3 C25_3 1_555 1_555
H16_3 C27_3 1_555 1_555
O14_3 Zn2_3 1_555 1_555
O15_3 Zn8 1_555 1_555
O3_2 Zn7 1_555 1_555
C7_2 C8_2 1_555 1_555
C25_3 C26_3 1_555 1_555
C11_2 C10_2 1_555 1_555
C12_2 C11_2 1_555 1_555
C13_2 C12_2 1_555 1_555
C14_2 C13_2 1_555 1_555
O4_2 C14_2 1_555 1_555
O5_2 C14_2 1_555 1_555
C15_2 C13_2 1_555 1_555
H4_2 C15_2 1_555 1_555
C16_2 C15_2 1_555 1_555
H5_2 C18_2 1_555 1_555
H6_2 C12_2 1_555 1_555
H7_2 C10_2 1_555 1_555
Zn9_2 O4_2 1_555 1_555
Zn6_2 O5_2 1_555 1_555
C11_2 C17_2 1_555 1_555
C16_2 C17_2 1_555 1_555
C16_2 C18_2 1_555 1_555
C29_3 C28_3 1_555 1_555
C30_3 C29_3 1_555 1_555
C31_3 C30_3 1_555 1_555
C32_3 C31_3 1_555 1_555
O12_3 C32_3 1_555 1_555
O13_3 C32_3 1_555 1_555
C33_3 C31_3 1_555 1_555
H12_3 C33_3 1_555 1_555
C34_3 C33_3 1_555 1_555
H13_3 C36_3 1_555 1_555
H14_3 C30_3 1_555 1_555
H15_3 C28_3 1_555 1_555
Zn7_3 O12_3 1_555 1_555
Zn8_3 O13_3 1_555 1_555
C29_3 C35_3 1_555 1_555
C34_3 C36_3 1_555 1_555
C34_3 C35_3 1_555 1_555
Zn1_3 O1_4 1_555 1_555
O1_4 Zn10 1_555 1_555
O2_3 Zn1_3 1_555 1_555
C1_3 C2_3 1_555 1_555
C2_3 O2_3 1_555 1_555
C3_3 C1_3 1_555 1_555
H1_3 C3_3 1_555 1_555
C4_3 C3_3 1_555 1_555
C5_3 C4_3 1_555 1_555
C6_3 C4_3 1_555 1_555
H2_3 C6_3 1_555 1_555
O3_3 C2_3 1_555 1_555
C7_3 C5_3 1_555 1_555
C8_3 C1_3 1_555 1_555
H3_3 C8_3 1_555 1_555
C9_3 C7_3 1_555 1_555
H8_3 C9_3 1_555 1_555
O6_4 Zn1_3 1_555 1_555
O7_4 Zn3_3 1_555 1_555
O8_4 Zn1_3 1_555 1_555
O9_4 Zn10 1_555 1_555
Zn3_3 O1_4 1_555 1_555
Zn9 O1_4 1_555 1_555
O14_4 Zn10 1_555 1_555
O15_4 Zn3_3 1_555 1_555
O16_3 Zn3_3 1_555 1_555
C37_3 C38_3 1_555 1_555
C38_3 O16_3 1_555 1_555
C39_3 C37_3 1_555 1_555
H17_3 C39_3 1_555 1_555
C40_3 C39_3 1_555 1_555
C41_3 C40_3 1_555 1_555
C42_3 C40_3 1_555 1_555
H18_3 C42_3 1_555 1_555
O17_3 Zn9 1_555 1_555
C43_3 C41_3 1_555 1_555
C44_3 C37_3 1_555 1_555
H19_3 C44_3 1_555 1_555
C45_3 C43_3 1_555 1_555
H24_3 C45_3 1_555 1_555
O3_3 Zn9 1_555 1_555
C7_3 C8_3 1_555 1_555
C38_3 O17_3 1_555 1_555
C43_3 C44_3 1_555 1_555
C11_3 C10_3 1_555 1_555
C12_3 C11_3 1_555 1_555
C13_3 C12_3 1_555 1_555
C14_3 C13_3 1_555 1_555
O4_3 C14_3 1_555 1_555
O5_3 C14_3 1_555 1_555
C15_3 C13_3 1_555 1_555
H4_3 C15_3 1_555 1_555
C16_3 C15_3 1_555 1_555
H5_3 C18_3 1_555 1_555
H6_3 C12_3 1_555 1_555
H7_3 C10_3 1_555 1_555
Zn7_2 O4_3 1_555 1_555
Zn6_3 O5_3 1_555 1_555
C11_3 C17_3 1_555 1_555
C16_3 C17_3 1_555 1_555
C16_3 C18_3 1_555 1_555
C47_3 C46_3 1_555 1_555
C48_3 C47_3 1_555 1_555
C49_3 C48_3 1_555 1_555
C50_3 C49_3 1_555 1_555
O18_3 C50_3 1_555 1_555
O19_3 C50_3 1_555 1_555
C51_3 C49_3 1_555 1_555
H20_3 C51_3 1_555 1_555
C52_3 C51_3 1_555 1_555
H21_3 C54_3 1_555 1_555
H22_3 C48_3 1_555 1_555
H23_3 C46_3 1_555 1_555
Zn7_3 O18_3 1_555 1_555
Zn10_3 O19_3 1_555 1_555
C47_3 C53_3 1_555 1_555
C52_3 C54_3 1_555 1_555
C52_3 C53_3 1_555 1_555
Zn10_2 O1_5 1_555 1_555
O1_5 Zn6_2 1_555 1_555
O2_4 Zn10_2 1_555 1_555
C1_4 C2_4 1_555 1_555
C2_4 O2_4 1_555 1_555
C3_4 C1_4 1_555 1_555
H1_4 C3_4 1_555 1_555
C4_4 C3_4 1_555 1_555
C5_4 C4_4 1_555 1_555
C6_4 C4_4 1_555 1_555
H2_4 C6_4 1_555 1_555
O3_4 C2_4 1_555 1_555
C7_4 C5_4 1_555 1_555
C8_4 C1_4 1_555 1_555
H3_4 C8_4 1_555 1_555
C9_4 C7_4 1_555 1_555
C10_4 C9_4 1_555 1_555
C11_4 C10_4 1_555 1_555
C12_4 C11_4 1_555 1_555
C13_4 C12_4 1_555 1_555
C14_4 C13_4 1_555 1_555
O14_3 C14_4 1_555 1_555
O15_3 C14_4 1_555 1_555
C15_4 C13_4 1_555 1_555
H4_4 C15_4 1_555 1_555
C16_4 C15_4 1_555 1_555
C17_4 C5_4 1_555 1_555
C18_4 C6_4 1_555 1_555
H5_4 C18_4 1_555 1_555
H6_4 C12_4 1_555 1_555
H7_4 C10_4 1_555 1_555
H8_4 C9_4 1_555 1_555
O8_5 Zn10_2 1_555 1_555
O9_5 Zn6_2 1_555 1_555
Zn6_2 O10_4 1_555 1_555
Zn9_2 O1_5 1_555 1_555
Zn4_2 O1_5 1_555 1_555
O10_4 C20_4 1_555 1_555
C19_4 C20_4 1_555 1_555
C20_4 O11_4 1_555 1_555
C21_4 C19_4 1_555 1_555
H9_4 C21_4 1_555 1_555
C22_4 C21_4 1_555 1_555
C23_4 C22_4 1_555 1_555
C24_4 C22_4 1_555 1_555
H10_4 C24_4 1_555 1_555
O11_4 Zn4_2 1_555 1_555
C25_4 C23_4 1_555 1_555
C26_4 C19_4 1_555 1_555
H11_4 C26_4 1_555 1_555
C27_4 C25_4 1_555 1_555
C28_4 C27_4 1_555 1_555
C29_4 C28_4 1_555 1_555
C30_4 C29_4 1_555 1_555
C31_4 C30_4 1_555 1_555
C32_4 C31_4 1_555 1_555
O9_2 C32_4 1_555 1_555
O8_2 C32_4 1_555 1_555
C33_4 C31_4 1_555 1_555
H12_4 C33_4 1_555 1_555
C34_4 C33_4 1_555 1_555
C35_4 C23_4 1_555 1_555
C36_4 C24_4 1_555 1_555
H13_4 C36_4 1_555 1_555
H14_4 C30_4 1_555 1_555
H15_4 C28_4 1_555 1_555
H16_4 C27_4 1_555 1_555
O16_4 Zn9_2 1_555 1_555
C37_4 C38_4 1_555 1_555
C38_4 O16_4 1_555 1_555
C39_4 C37_4 1_555 1_555
H17_4 C39_4 1_555 1_555
C40_4 C39_4 1_555 1_555
C41_4 C40_4 1_555 1_555
C42_4 C40_4 1_555 1_555
H18_4 C42_4 1_555 1_555
O17_4 Zn4_2 1_555 1_555
C43_4 C41_4 1_555 1_555
C44_4 C37_4 1_555 1_555
H19_4 C44_4 1_555 1_555
C45_4 C43_4 1_555 1_555
H24_4 C45_4 1_555 1_555
O3_4 Zn4_2 1_555 1_555
C7_4 C8_4 1_555 1_555
C11_4 C17_4 1_555 1_555
C16_4 C17_4 1_555 1_555
C16_4 C18_4 1_555 1_555
C25_4 C26_4 1_555 1_555
C29_4 C35_4 1_555 1_555
C34_4 C36_4 1_555 1_555
C34_4 C35_4 1_555 1_555
C38_4 O17_4 1_555 1_555
C43_4 C44_4 1_555 1_555
C47_4 C46_4 1_555 1_555
C48_4 C47_4 1_555 1_555
C49_4 C48_4 1_555 1_555
C50_4 C49_4 1_555 1_555
O18_4 C50_4 1_555 1_555
O19_4 C50_4 1_555 1_555
C51_4 C49_4 1_555 1_555
H20_4 C51_4 1_555 1_555
C52_4 C51_4 1_555 1_555
H21_4 C54_4 1_555 1_555
H22_4 C48_4 1_555 1_555
H23_4 C46_4 1_555 1_555
Zn9_3 O18_4 1_555 1_555
Zn10_4 O19_4 1_555 1_555
C47_4 C53_4 1_555 1_555
C52_4 C54_4 1_555 1_555
C52_4 C53_4 1_555 1_555
C37_5 C38_5 1_555 1_555
C38_5 O8_3 1_555 1_555
C39_5 C37_5 1_555 1_555
H17_5 C39_5 1_555 1_555
C40_5 C39_5 1_555 1_555
C41_5 C40_5 1_555 1_555
C42_5 C40_5 1_555 1_555
H18_5 C42_5 1_555 1_555
C43_5 C41_5 1_555 1_555
C44_5 C37_5 1_555 1_555
H19_5 C44_5 1_555 1_555
C45_5 C43_5 1_555 1_555
C46_5 C45_5 1_555 1_555
C47_5 C46_5 1_555 1_555
C48_5 C47_5 1_555 1_555
C49_5 C48_5 1_555 1_555
C50_5 C49_5 1_555 1_555
O7 C50_5 1_555 1_555
O6 C50_5 1_555 1_555
C51_5 C49_5 1_555 1_555
H20_5 C51_5 1_555 1_555
C52_5 C51_5 1_555 1_555
C53_5 C41_5 1_555 1_555
C54_5 C42_5 1_555 1_555
H21_5 C54_5 1_555 1_555
H22_5 C48_5 1_555 1_555
H23_5 C46_5 1_555 1_555
H24_5 C45_5 1_555 1_555
C38_5 O9_3 1_555 1_555
C43_5 C44_5 1_555 1_555
C47_5 C53_5 1_555 1_555
C52_5 C54_5 1_555 1_555
C52_5 C53_5 1_555 1_555
C1_5 C2_5 1_555 1_555
C2_5 O15_2 1_555 1_555
C3_5 C1_5 1_555 1_555
H1_5 C3_5 1_555 1_555
C4_5 C3_5 1_555 1_555
C5_5 C4_5 1_555 1_555
C6_5 C4_5 1_555 1_555
H2_5 C6_5 1_555 1_555
O14_2 C2_5 1_555 1_555
C7_5 C5_5 1_555 1_555
C8_5 C1_5 1_555 1_555
H3_5 C8_5 1_555 1_555
C9_5 C7_5 1_555 1_555
C10_5 C9_5 1_555 1_555
C11_5 C10_5 1_555 1_555
C12_5 C11_5 1_555 1_555
C13_5 C12_5 1_555 1_555
C14_5 C13_5 1_555 1_555
O15 C14_5 1_555 1_555
O14 C14_5 1_555 1_555
C15_5 C13_5 1_555 1_555
H4_5 C15_5 1_555 1_555
C16_5 C15_5 1_555 1_555
C17_5 C5_5 1_555 1_555
C18_5 C6_5 1_555 1_555
H5_5 C18_5 1_555 1_555
H6_5 C12_5 1_555 1_555
H7_5 C10_5 1_555 1_555
H8_5 C9_5 1_555 1_555
C7_5 C8_5 1_555 1_555
C11_5 C17_5 1_555 1_555
C16_5 C17_5 1_555 1_555
C16_5 C18_5 1_555 1_555
Zn1_4 O1_6 1_555 1_555
O1_6 Zn10_4 1_555 1_555
O2_5 Zn1_4 1_555 1_555
C1_6 C2_6 1_555 1_555
C2_6 O2_5 1_555 1_555
C3_6 C1_6 1_555 1_555
H1_6 C3_6 1_555 1_555
C4_6 C3_6 1_555 1_555
C5_6 C4_6 1_555 1_555
C6_6 C4_6 1_555 1_555
H2_6 C6_6 1_555 1_555
O3_5 C2_6 1_555 1_555
C7_6 C5_6 1_555 1_555
C8_6 C1_6 1_555 1_555
H3_6 C8_6 1_555 1_555
C9_6 C7_6 1_555 1_555
C10_6 C9_6 1_555 1_555
C11_6 C10_6 1_555 1_555
C12_6 C11_6 1_555 1_555
C13_6 C12_6 1_555 1_555
C14_6 C13_6 1_555 1_555
O4_4 C14_6 1_555 1_555
O5_4 C14_6 1_555 1_555
C15_6 C13_6 1_555 1_555
H4_6 C15_6 1_555 1_555
C16_6 C15_6 1_555 1_555
C17_6 C5_6 1_555 1_555
C18_6 C6_6 1_555 1_555
H5_6 C18_6 1_555 1_555
H6_6 C12_6 1_555 1_555
H7_6 C10_6 1_555 1_555
H8_6 C9_6 1_555 1_555
O6_5 Zn1_4 1_555 1_555
O7_5 Zn3_4 1_555 1_555
O8_6 Zn1_4 1_555 1_555
O9_6 Zn10_4 1_555 1_555
Zn3_4 O1_6 1_555 1_555
Zn9_3 O1_6 1_555 1_555
Zn8_3 O4_4 1_555 1_555
Zn10_3 O5_4 1_555 1_555
O14_5 Zn10_4 1_555 1_555
O15_5 Zn3_4 1_555 1_555
O16_5 Zn3_4 1_555 1_555
C37_6 C38_6 1_555 1_555
C38_6 O16_5 1_555 1_555
C39_6 C37_6 1_555 1_555
H17_6 C39_6 1_555 1_555
C40_6 C39_6 1_555 1_555
C41_6 C40_6 1_555 1_555
C42_6 C40_6 1_555 1_555
H18_6 C42_6 1_555 1_555
O17_5 Zn9_3 1_555 1_555
C43_6 C41_6 1_555 1_555
C44_6 C37_6 1_555 1_555
H19_6 C44_6 1_555 1_555
C45_6 C43_6 1_555 1_555
C46_6 C45_6 1_555 1_555
C47_6 C46_6 1_555 1_555
C48_6 C47_6 1_555 1_555
C49_6 C48_6 1_555 1_555
C50_6 C49_6 1_555 1_555
O18_5 C50_6 1_555 1_555
O19_5 C50_6 1_555 1_555
C51_6 C49_6 1_555 1_555
H20_6 C51_6 1_555 1_555
C52_6 C51_6 1_555 1_555
C53_6 C41_6 1_555 1_555
C54_6 C42_6 1_555 1_555
H21_6 C54_6 1_555 1_555
H22_6 C48_6 1_555 1_555
H23_6 C46_6 1_555 1_555
H24_6 C45_6 1_555 1_555
Zn8_2 O18_5 1_555 1_555
Zn6_3 O19_5 1_555 1_555
O3_5 Zn9_3 1_555 1_555
C7_6 C8_6 1_555 1_555
C11_6 C17_6 1_555 1_555
C16_6 C17_6 1_555 1_555
C16_6 C18_6 1_555 1_555
C38_6 O17_5 1_555 1_555
C43_6 C44_6 1_555 1_555
C47_6 C53_6 1_555 1_555
C52_6 C54_6 1_555 1_555
C52_6 C53_6 1_555 1_555
Zn8_2 O1_7 1_555 1_555
O1_7 Zn7_2 1_555 1_555
O2_6 Zn8_2 1_555 1_555
C1_7 C2_7 1_555 1_555
C2_7 O2_6 1_555 1_555
C3_7 C1_7 1_555 1_555
H1_7 C3_7 1_555 1_555
C4_7 C3_7 1_555 1_555
C5_7 C4_7 1_555 1_555
C6_7 C4_7 1_555 1_555
H2_7 C6_7 1_555 1_555
O3_6 C2_7 1_555 1_555
C7_7 C5_7 1_555 1_555
C8_7 C1_7 1_555 1_555
H3_7 C8_7 1_555 1_555
C9_7 C7_7 1_555 1_555
C10_7 C9_7 1_555 1_555
C11_7 C10_7 1_555 1_555
C12_7 C11_7 1_555 1_555
C13_7 C12_7 1_555 1_555
C14_7 C13_7 1_555 1_555
O15_4 C14_7 1_555 1_555
O14_4 C14_7 1_555 1_555
C15_7 C13_7 1_555 1_555
H4_7 C15_7 1_555 1_555
C16_7 C15_7 1_555 1_555
C17_7 C5_7 1_555 1_555
C18_7 C6_7 1_555 1_555
H5_7 C18_7 1_555 1_555
H6_7 C12_7 1_555 1_555
H7_7 C10_7 1_555 1_555
H8_7 C9_7 1_555 1_555
Zn7_2 O10_5 1_555 1_555
Zn6_3 O1_7 1_555 1_555
Zn4_3 O1_7 1_555 1_555
O10_5 C20_5 1_555 1_555
C19_5 C20_5 1_555 1_555
C20_5 O11_5 1_555 1_555
C21_5 C19_5 1_555 1_555
H9_5 C21_5 1_555 1_555
C22_5 C21_5 1_555 1_555
C23_5 C22_5 1_555 1_555
C24_5 C22_5 1_555 1_555
H10_5 C24_5 1_555 1_555
O11_5 Zn4_3 1_555 1_555
C25_5 C23_5 1_555 1_555
C26_5 C19_5 1_555 1_555
H11_5 C26_5 1_555 1_555
C27_5 C25_5 1_555 1_555
H16_5 C27_5 1_555 1_555
O16_6 Zn6_3 1_555 1_555
C37_7 C38_7 1_555 1_555
C38_7 O16_6 1_555 1_555
C39_7 C37_7 1_555 1_555
H17_7 C39_7 1_555 1_555
C40_7 C39_7 1_555 1_555
C41_7 C40_7 1_555 1_555
C42_7 C40_7 1_555 1_555
H18_7 C42_7 1_555 1_555
O17_6 Zn4_3 1_555 1_555
C43_7 C41_7 1_555 1_555
C44_7 C37_7 1_555 1_555
H19_7 C44_7 1_555 1_555
C45_7 C43_7 1_555 1_555
C46_7 C45_7 1_555 1_555
C47_7 C46_7 1_555 1_555
C48_7 C47_7 1_555 1_555
C49_7 C48_7 1_555 1_555
C50_7 C49_7 1_555 1_555
O7_2 C50_7 1_555 1_555
O6_2 C50_7 1_555 1_555
C51_7 C49_7 1_555 1_555
H20_7 C51_7 1_555 1_555
C52_7 C51_7 1_555 1_555
C53_7 C41_7 1_555 1_555
C54_7 C42_7 1_555 1_555
H21_7 C54_7 1_555 1_555
H22_7 C48_7 1_555 1_555
H23_7 C46_7 1_555 1_555
H24_7 C45_7 1_555 1_555
O3_6 Zn4_3 1_555 1_555
C7_7 C8_7 1_555 1_555
C11_7 C17_7 1_555 1_555
C16_7 C17_7 1_555 1_555
C16_7 C18_7 1_555 1_555
C25_5 C26_5 1_555 1_555
C38_7 O17_6 1_555 1_555
C43_7 C44_7 1_555 1_555
C47_7 C53_7 1_555 1_555
C52_7 C54_7 1_555 1_555
C52_7 C53_7 1_555 1_555
C29_5 C28_5 1_555 1_555
C30_5 C29_5 1_555 1_555
C31_5 C30_5 1_555 1_555
C32_5 C31_5 1_555 1_555
O8_6 C32_5 1_555 1_555
O9_6 C32_5 1_555 1_555
C33_5 C31_5 1_555 1_555
H12_5 C33_5 1_555 1_555
C34_5 C33_5 1_555 1_555
H13_5 C36_5 1_555 1_555
H14_5 C30_5 1_555 1_555
H15_5 C28_5 1_555 1_555
C29_5 C35_5 1_555 1_555
C34_5 C36_5 1_555 1_555
C34_5 C35_5 1_555 1_555
O6_4 C20_6 1_555 1_555
C19_6 C20_6 1_555 1_555
C20_6 O7_4 1_555 1_555
C21_6 C19_6 1_555 1_555
H9_6 C21_6 1_555 1_555
C22_6 C21_6 1_555 1_555
C23_6 C22_6 1_555 1_555
C24_6 C22_6 1_555 1_555
H10_6 C24_6 1_555 1_555
C25_6 C23_6 1_555 1_555
C26_6 C19_6 1_555 1_555
H11_6 C26_6 1_555 1_555
C27_6 C25_6 1_555 1_555
C28_6 C27_6 1_555 1_555
C29_6 C28_6 1_555 1_555
C30_6 C29_6 1_555 1_555
C31_6 C30_6 1_555 1_555
C32_6 C31_6 1_555 1_555
O9 C32_6 1_555 1_555
O8 C32_6 1_555 1_555
C33_6 C31_6 1_555 1_555
H12_6 C33_6 1_555 1_555
C34_6 C33_6 1_555 1_555
C35_6 C23_6 1_555 1_555
C36_6 C24_6 1_555 1_555
H13_6 C36_6 1_555 1_555
H14_6 C30_6 1_555 1_555
H15_6 C28_6 1_555 1_555
H16_6 C27_6 1_555 1_555
C25_6 C26_6 1_555 1_555
C29_6 C35_6 1_555 1_555
C34_6 C36_6 1_555 1_555
C34_6 C35_6 1_555 1_555
O7_5 C20_7 1_555 1_555
C19_7 C20_7 1_555 1_555
C20_7 O6_5 1_555 1_555
C21_7 C19_7 1_555 1_555
H9_7 C21_7 1_555 1_555
C22_7 C21_7 1_555 1_555
C23_7 C22_7 1_555 1_555
C24_7 C22_7 1_555 1_555
H10_7 C24_7 1_555 1_555
C25_7 C23_7 1_555 1_555
C26_7 C19_7 1_555 1_555
H11_7 C26_7 1_555 1_555
C27_7 C25_7 1_555 1_555
C28_7 C27_7 1_555 1_555
C29_7 C28_7 1_555 1_555
C30_7 C29_7 1_555 1_555
C31_7 C30_7 1_555 1_555
C32_7 C31_7 1_555 1_555
O8_5 C32_7 1_555 1_555
O9_5 C32_7 1_555 1_555
C33_7 C31_7 1_555 1_555
H12_7 C33_7 1_555 1_555
C34_7 C33_7 1_555 1_555
C35_7 C23_7 1_555 1_555
C36_7 C24_7 1_555 1_555
H13_7 C36_7 1_555 1_555
H14_7 C30_7 1_555 1_555
H15_7 C28_7 1_555 1_555
H16_7 C27_7 1_555 1_555
C25_7 C26_7 1_555 1_555
C29_7 C35_7 1_555 1_555
C34_7 C36_7 1_555 1_555
C34_7 C35_7 1_555 1_555
Zn7_3 O1_8 1_555 1_555
O1_8 Zn8_3 1_555 1_555
O2_7 Zn7_3 1_555 1_555
C1_8 C2_8 1_555 1_555
C2_8 O2_7 1_555 1_555
C3_8 C1_8 1_555 1_555
H1_8 C3_8 1_555 1_555
C4_8 C3_8 1_555 1_555
C5_8 C4_8 1_555 1_555
C6_8 C4_8 1_555 1_555
H2_8 C6_8 1_555 1_555
O3_7 C2_8 1_555 1_555
C7_8 C5_8 1_555 1_555
C8_8 C1_8 1_555 1_555
H3_8 C8_8 1_555 1_555
C9_8 C7_8 1_555 1_555
H8_8 C9_8 1_555 1_555
Zn8_3 O10_6 1_555 1_555
Zn10_3 O1_8 1_555 1_555
Zn4_4 O1_8 1_555 1_555
O10_6 C20_8 1_555 1_555
C19_8 C20_8 1_555 1_555
C20_8 O11_6 1_555 1_555
C21_8 C19_8 1_555 1_555
H9_8 C21_8 1_555 1_555
C22_8 C21_8 1_555 1_555
C23_8 C22_8 1_555 1_555
C24_8 C22_8 1_555 1_555
H10_8 C24_8 1_555 1_555
O11_6 Zn4_4 1_555 1_555
C25_8 C23_8 1_555 1_555
C26_8 C19_8 1_555 1_555
H11_8 C26_8 1_555 1_555
C27_8 C25_8 1_555 1_555
C28_8 C27_8 1_555 1_555
C29_8 C28_8 1_555 1_555
C30_8 C29_8 1_555 1_555
C31_8 C30_8 1_555 1_555
C32_8 C31_8 1_555 1_555
O8_4 C32_8 1_555 1_555
O9_4 C32_8 1_555 1_555
C33_8 C31_8 1_555 1_555
H12_8 C33_8 1_555 1_555
C34_8 C33_8 1_555 1_555
C35_8 C23_8 1_555 1_555
C36_8 C24_8 1_555 1_555
H13_8 C36_8 1_555 1_555
H14_8 C30_8 1_555 1_555
H15_8 C28_8 1_555 1_555
H16_8 C27_8 1_555 1_555
O16_7 Zn10_3 1_555 1_555
C37_8 C38_8 1_555 1_555
C38_8 O16_7 1_555 1_555
C39_8 C37_8 1_555 1_555
H17_8 C39_8 1_555 1_555
C40_8 C39_8 1_555 1_555
C41_8 C40_8 1_555 1_555
C42_8 C40_8 1_555 1_555
H18_8 C42_8 1_555 1_555
O17_7 Zn4_4 1_555 1_555
C43_8 C41_8 1_555 1_555
C44_8 C37_8 1_555 1_555
H19_8 C44_8 1_555 1_555
C45_8 C43_8 1_555 1_555
C46_8 C45_8 1_555 1_555
C47_8 C46_8 1_555 1_555
C48_8 C47_8 1_555 1_555
C49_8 C48_8 1_555 1_555
C50_8 C49_8 1_555 1_555
O6_3 C50_8 1_555 1_555
O7_3 C50_8 1_555 1_555
C51_8 C49_8 1_555 1_555
H20_8 C51_8 1_555 1_555
C52_8 C51_8 1_555 1_555
C53_8 C41_8 1_555 1_555
C54_8 C42_8 1_555 1_555
H21_8 C54_8 1_555 1_555
H22_8 C48_8 1_555 1_555
H23_8 C46_8 1_555 1_555
H24_8 C45_8 1_555 1_555
O3_7 Zn4_4 1_555 1_555
C7_8 C8_8 1_555 1_555
C25_8 C26_8 1_555 1_555
C29_8 C35_8 1_555 1_555
C34_8 C36_8 1_555 1_555
C34_8 C35_8 1_555 1_555
C38_8 O17_7 1_555 1_555
C43_8 C44_8 1_555 1_555
C47_8 C53_8 1_555 1_555
C52_8 C54_8 1_555 1_555
C52_8 C53_8 1_555 1_555
C11_8 C10_8 1_555 1_555
C12_8 C11_8 1_555 1_555
C13_8 C12_8 1_555 1_555
C14_8 C13_8 1_555 1_555
O15_5 C14_8 1_555 1_555
O14_5 C14_8 1_555 1_555
C15_8 C13_8 1_555 1_555
H4_8 C15_8 1_555 1_555
C16_8 C15_8 1_555 1_555
H5_8 C18_8 1_555 1_555
H6_8 C12_8 1_555 1_555
H7_8 C10_8 1_555 1_555
C11_8 C17_8 1_555 1_555
C16_8 C17_8 1_555 1_555
C16_8 C18_8 1_555 1_555

#END
