
###############################################################################
#
# This file contains modified crystal structure data generated from the
# MOF subset of the Cambridge Structural Database (CSD) v543 
# hosted by the Cambridge Crystallographic Data Centre (CCDC).
#
# This work is licensed under the Creative Commons
# Attribution-NonCommercial-ShareAlike 4.0 International License.
# To view a copy of this license, visit
# http://creativecommons.org/licenses/by-nc-sa/4.0/
# or send a letter to
# Creative Commons, PO Box 1866, Mountain View, CA 94042, USA.
#
# CIF created using the CSD Python API on 29 September 2022
# The structure has been converted into the P1 space group
# The structure has a 3D framework
# The original CSD entry EFEGOM is in the triclinic crystal system
# The original CSD entry EFEGOM is in a Sohncke space group
# The framework has been calculated to contain at least 10.0% void space
# The void calculation uses a probe of radius 1.32A, grid spacing 0.4
# H atom positions have been added when not included in the experimental data
#
###############################################################################

data_EFEGOM
_chemical_formula_moiety         '(C64 H41 Fe7 O38)n'
_symmetry_cell_setting           triclinic
_symmetry_space_group_name_H-M   'P 1'
_symmetry_Int_Tables_number      1
_space_group_name_Hall           'P 1'
loop_
_symmetry_equiv_pos_site_id
_symmetry_equiv_pos_as_xyz
1 x,y,z
_cell_length_a                   19.2200
_cell_length_b                   11.3400
_cell_length_c                   13.7980
_cell_angle_alpha                90.0000
_cell_angle_beta                 110.8200
_cell_angle_gamma                90.0000
_cell_volume                     2810.97
loop_
_atom_site_label
_atom_site_type_symbol
_atom_site_fract_x
_atom_site_fract_y
_atom_site_fract_z
_atom_site_U_iso_or_equiv
_atom_site_thermal_displace_type
H44 H 0.03271 0.16085 0.64417 0.0000 Uiso
O55 O 0.06813 0.13459 0.49105 0.0000 Uiso
Fe19 Fe 0.00012 0.00071 0.75151 0.0000 Uiso
O58 O 0.01277 0.08340 0.63311 0.0000 Uiso
O51 O 0.08982 0.90911 0.58741 0.0000 Uiso
H48 H 0.0429297 0.90725 0.368668 . .
Fe5 Fe 0.99908 0.00319 0.50080 0.0000 Uiso
O44 O 0.90938 0.09787 0.41237 0.0000 Uiso
O1 O 0.40819 0.41371 0.16016 0.0000 Uiso
O2 O 0.40942 0.40452 0.49983 0.0000 Uiso
C1 C 0.30748 0.33070 0.02786 0.0000 Uiso
C2 C 0.27162 0.30673 0.09724 0.0000 Uiso
C3 C 0.20303 0.25213 0.06328 0.0000 Uiso
C4 C 0.38159 0.38754 0.06530 0.0000 Uiso
H1 H 0.29903 0.32920 0.17727 0.0000 Uiso
H2 H 0.17527 0.23102 0.11606 0.0000 Uiso
O4 O 0.92945 0.87312 0.51157 0.0000 Uiso
H10 H 0.01354 0.15887 0.12641 0.0000 Uiso
O9 O 0.59039 0.59734 0.33828 0.0000 Uiso
C17 C 0.69401 0.66890 0.47303 0.0000 Uiso
C18 C 0.72972 0.69534 0.40393 0.0000 Uiso
C19 C 0.79800 0.75057 0.43850 0.0000 Uiso
C20 C 0.62021 0.61141 0.43489 0.0000 Uiso
H11 H 0.70260 0.67275 0.32385 0.0000 Uiso
H12 H 0.82592 0.77310 0.38625 0.0000 Uiso
H13 H 0.46898 0.33704 0.35208 0.0000 Uiso
O11 O 0.07110 0.12601 0.33002 0.0000 Uiso
C21 C 0.16648 0.22528 0.45752 0.0000 Uiso
C22 C 0.20981 0.22631 0.39558 0.0000 Uiso
C23 C 0.27809 0.28153 0.42970 0.0000 Uiso
C24 C 0.09649 0.15755 0.42363 0.0000 Uiso
H14 H 0.18999 0.18075 0.32287 0.0000 Uiso
H15 H 0.31389 0.27897 0.38532 0.0000 Uiso
Fe1 Fe 0.00134 0.00081 0.00202 0.0000 Uiso
Fe4 Fe 0.49910 0.50448 0.24967 0.0000 Uiso
O17 O 0.49120 0.41494 0.36703 0.0000 Uiso
O18 O 0.00621 0.07540 0.12612 0.0000 Uiso
O20 O 0.40491 0.41383 0.66027 0.0000 Uiso
C33 C 0.30311 0.33671 0.52598 0.0000 Uiso
C34 C 0.25885 0.33873 0.58666 0.0000 Uiso
C35 C 0.19072 0.28285 0.55270 0.0000 Uiso
C36 C 0.37807 0.38951 0.56497 0.0000 Uiso
H20 H 0.27905 0.38243 0.66030 0.0000 Uiso
H21 H 0.15615 0.28128 0.59893 0.0000 Uiso
O21 O 0.92935 0.86996 0.67420 0.0000 Uiso
C37 C 0.83111 0.77997 0.54275 0.0000 Uiso
C38 C 0.79583 0.75229 0.61204 0.0000 Uiso
C39 C 0.72769 0.69656 0.57752 0.0000 Uiso
C40 C 0.90210 0.84545 0.57900 0.0000 Uiso
H23 H 0.82267 0.77590 0.69192 0.0000 Uiso
H24 H 0.69973 0.67422 0.62978 0.0000 Uiso
O27 O 0.59300 0.58139 0.50183 0.0000 Uiso
H41 H 0.50844 0.67239 0.12880 0.0000 Uiso
O42 O 0.57205 0.38003 0.23784 0.0000 Uiso
O43 O 0.43391 0.63928 0.26359 0.0000 Uiso
O47 O 0.50442 0.58852 0.12695 0.0000 Uiso
Fe17 Fe 0.50016 0.49132 0.49771 0.0000 Uiso
Fe21 Fe 0.50000 0.49841 0.74862 0.0000 Uiso
H46 H 0.97155 0.83217 0.35652 0.0000 Uiso
O61 O 0.99156 0.91179 0.36954 0.0000 Uiso
O12 O 0.06941 0.13256 0.99031 0.0000 Uiso
O28 O 0.07110 0.13076 0.82866 0.0000 Uiso
C53 C 0.16955 0.22150 0.95938 0.0000 Uiso
C54 C 0.20501 0.24693 0.88974 0.0000 Uiso
C55 C 0.27359 0.30148 0.92372 0.0000 Uiso
C56 C 0.09804 0.15717 0.92352 0.0000 Uiso
H33 H 0.17816 0.22232 0.81008 0.0000 Uiso
H34 H 0.30168 0.32168 0.87114 0.0000 Uiso
O37 O 0.41253 0.40493 0.99987 0.0000 Uiso
Fe9 Fe 0.49949 0.50766 0.99870 0.0000 Uiso
O7 O 0.09316 0.90998 0.09130 0.0000 Uiso
O8 O 0.08943 0.90289 0.25215 0.0000 Uiso
C13 C 0.19366 0.82719 0.22421 0.0000 Uiso
C14 C 0.22944 0.80134 0.15510 0.0000 Uiso
C15 C 0.29800 0.74748 0.18972 0.0000 Uiso
C16 C 0.11979 0.88446 0.18628 0.0000 Uiso
H8 H 0.20195 0.82311 0.07492 0.0000 Uiso
H9 H 0.32562 0.72468 0.13747 0.0000 Uiso
O13 O 0.43017 0.62684 0.42393 0.0000 Uiso
C25 C 0.33158 0.71916 0.29393 0.0000 Uiso
C26 C 0.29615 0.74552 0.36332 0.0000 Uiso
C27 C 0.22744 0.79945 0.32865 0.0000 Uiso
C28 C 0.40372 0.65699 0.33020 0.0000 Uiso
H16 H 0.32330 0.72225 0.44321 0.0000 Uiso
H17 H 0.19916 0.82052 0.38078 0.0000 Uiso
H22 H 0.52162 0.65799 0.63151 0.0000 Uiso
O36 O 0.50996 0.57597 0.62744 0.0000 Uiso
O50 O 0.56814 0.35983 0.57727 0.0000 Uiso
O52 O 0.08877 0.90409 0.74973 0.0000 Uiso
O45 O 0.91147 0.09869 0.25047 0.0000 Uiso
O23 O 0.56401 0.35897 0.73774 0.0000 Uiso
C41 C 0.66507 0.26922 0.70956 0.0000 Uiso
C42 C 0.70102 0.24329 0.64062 0.0000 Uiso
C43 C 0.77028 0.19116 0.67571 0.0000 Uiso
C44 C 0.59364 0.33373 0.67212 0.0000 Uiso
H25 H 0.67401 0.26675 0.56071 0.0000 Uiso
H26 H 0.79903 0.17151 0.62384 0.0000 Uiso
O32 O 0.90830 0.09123 0.91427 0.0000 Uiso
O33 O 0.90998 0.09439 0.75231 0.0000 Uiso
C61 C 0.80437 0.16440 0.78031 0.0000 Uiso
C62 C 0.76778 0.18790 0.84891 0.0000 Uiso
C63 C 0.69845 0.24016 0.81383 0.0000 Uiso
C64 C 0.87982 0.11229 0.81852 0.0000 Uiso
H37 H 0.79512 0.16617 0.92913 0.0000 Uiso
H38 H 0.67024 0.26153 0.86601 0.0000 Uiso
O53 O 0.59333 0.58680 0.83598 0.0000 Uiso
H45 H 0.47501 0.34144 0.86631 0.0000 Uiso
O56 O 0.43182 0.63371 0.75843 0.0000 Uiso
O57 O 0.49180 0.42119 0.87145 0.0000 Uiso
H47 H 0.456773 0.46903 0.893523 . .
O3 O 0.92883 0.87023 0.17238 0.0000 Uiso
C5 C 0.83162 0.77993 0.03976 0.0000 Uiso
C6 C 0.79539 0.75362 0.10828 0.0000 Uiso
C7 C 0.72631 0.70097 0.07269 0.0000 Uiso
C8 C 0.90336 0.84335 0.07752 0.0000 Uiso
H4 H 0.82216 0.77641 0.18838 0.0000 Uiso
H5 H 0.69741 0.68076 0.12427 0.0000 Uiso
O5 O 0.57883 0.39135 0.07908 0.0000 Uiso
C9 C 0.67767 0.30642 0.21210 0.0000 Uiso
C10 C 0.71350 0.28004 0.14313 0.0000 Uiso
C11 C 0.78068 0.22169 0.17744 0.0000 Uiso
C12 C 0.60450 0.36529 0.17380 0.0000 Uiso
H6 H 0.68714 0.30494 0.06348 0.0000 Uiso
H7 H 0.80873 0.19878 0.12545 0.0000 Uiso
C29 C 0.81283 0.19057 0.28136 0.0000 Uiso
C30 C 0.77776 0.21893 0.35071 0.0000 Uiso
C31 C 0.71039 0.27694 0.31639 0.0000 Uiso
C32 C 0.88357 0.12438 0.31756 0.0000 Uiso
H18 H 0.80430 0.19450 0.43045 0.0000 Uiso
H19 H 0.68233 0.29976 0.36843 0.0000 Uiso
Fe3 Fe 0.99987 0.99863 0.25134 0.0000 Uiso
O38 O 0.93347 0.86689 0.01222 0.0000 Uiso
O10 O 0.58541 0.60889 0.99348 0.0000 Uiso
C45 C 0.18902 0.81973 0.71709 0.0000 Uiso
C46 C 0.22441 0.79551 0.64722 0.0000 Uiso
C47 C 0.29310 0.74126 0.68087 0.0000 Uiso
C48 C 0.11690 0.88219 0.68197 0.0000 Uiso
H27 H 0.19730 0.82031 0.56771 0.0000 Uiso
H28 H 0.32125 0.72110 0.62838 0.0000 Uiso
C49 C 0.69293 0.67350 0.96809 0.0000 Uiso
C50 C 0.72969 0.69790 0.89987 0.0000 Uiso
C51 C 0.79864 0.75119 0.93534 0.0000 Uiso
C52 C 0.61832 0.61873 0.92963 0.0000 Uiso
H30 H 0.70284 0.67550 0.81970 0.0000 Uiso
H31 H 0.82715 0.77266 0.88356 0.0000 Uiso
O30 O 0.42675 0.63109 0.91844 0.0000 Uiso
C57 C 0.32685 0.71154 0.78487 0.0000 Uiso
C58 C 0.29087 0.73403 0.85437 0.0000 Uiso
C59 C 0.22227 0.78814 0.82073 0.0000 Uiso
C60 C 0.40055 0.65429 0.82288 0.0000 Uiso
H35 H 0.31787 0.70875 0.93376 0.0000 Uiso
H36 H 0.19386 0.80756 0.87307 0.0000 Uiso
H40 H 0.97502 0.83902 0.86427 0.0000 Uiso
O40 O 0.99217 0.91853 0.87180 0.0000 Uiso
loop_
_geom_bond_atom_site_label_1
_geom_bond_atom_site_label_2
_geom_bond_site_symmetry_1
_geom_bond_site_symmetry_2
H44 O58 1_555 1_555
Fe19 O58 1_555 1_555
O44 Fe5 1_555 1_555
O1 C4 1_555 1_555
O2 C36 1_555 1_555
C1 C2 1_555 1_555
C2 C3 1_555 1_555
C3 H2 1_555 1_555
C4 C1 1_555 1_555
H1 C2 1_555 1_555
O4 C40 1_555 1_555
H10 O18 1_555 1_555
O9 C20 1_555 1_555
C17 C18 1_555 1_555
C18 C19 1_555 1_555
C19 H12 1_555 1_555
C20 C17 1_555 1_555
H11 C18 1_555 1_555
H13 O17 1_555 1_555
O11 C24 1_555 1_555
C21 C22 1_555 1_555
C22 C23 1_555 1_555
C23 H15 1_555 1_555
C24 C21 1_555 1_555
H14 C22 1_555 1_555
Fe4 O1 1_555 1_555
O17 Fe4 1_555 1_555
O18 Fe1 1_555 1_555
O20 C36 1_555 1_555
C33 C23 1_555 1_555
C34 C33 1_555 1_555
C35 C21 1_555 1_555
C36 C33 1_555 1_555
H20 C34 1_555 1_555
H21 C35 1_555 1_555
O21 C40 1_555 1_555
C37 C19 1_555 1_555
C38 C37 1_555 1_555
C39 C17 1_555 1_555
C40 C37 1_555 1_555
H23 C38 1_555 1_555
H24 C39 1_555 1_555
O27 C20 1_555 1_555
O55 C24 1_555 1_555
H41 O47 1_555 1_555
O42 Fe4 1_555 1_555
O43 Fe4 1_555 1_555
O47 Fe4 1_555 1_555
Fe17 O2 1_555 1_555
Fe21 O20 1_555 1_555
H46 O61 1_555 1_555
O9 Fe4 1_555 1_555
O17 Fe17 1_555 1_555
C34 C35 1_555 1_555
C38 C39 1_555 1_555
O27 Fe17 1_555 1_555
O28 C56 1_555 1_555
C54 C53 1_555 1_555
C56 O12 1_555 1_555
H33 C54 1_555 1_555
H34 C55 1_555 1_555
Fe19 O28 1_555 1_555
Fe9 O37 1_555 1_555
C53 C56 1_555 1_555
C54 C55 1_555 1_555
O7 C16 1_555 1_555
O8 C16 1_555 1_555
C13 C14 1_555 1_555
C14 C15 1_555 1_555
C15 H9 1_555 1_555
C16 C13 1_555 1_555
H8 C14 1_555 1_555
O13 C28 1_555 1_555
O43 C28 1_555 1_555
C25 C15 1_555 1_555
C26 C25 1_555 1_555
C27 C13 1_555 1_555
C28 C25 1_555 1_555
H16 C26 1_555 1_555
H17 C27 1_555 1_555
H22 O36 1_555 1_555
Fe17 O13 1_555 1_555
O36 Fe17 1_555 1_555
O50 Fe17 1_555 1_555
Fe21 O36 1_555 1_555
C26 C27 1_555 1_555
O50 C44 1_555 1_555
O23 C44 1_555 1_555
C41 C42 1_555 1_555
C42 C43 1_555 1_555
C43 H26 1_555 1_555
C44 C41 1_555 1_555
H25 C42 1_555 1_555
O33 C64 1_555 1_555
C61 C43 1_555 1_555
C62 C61 1_555 1_555
C63 C41 1_555 1_555
C64 O32 1_555 1_555
H37 C62 1_555 1_555
H38 C63 1_555 1_555
Fe21 O23 1_555 1_555
O53 Fe21 1_555 1_555
H45 O57 1_555 1_555
O56 Fe21 1_555 1_555
O57 Fe21 1_555 1_555
C61 C64 1_555 1_555
C62 C63 1_555 1_555
O57 H47 1_555 1_555
O3 C8 1_555 1_555
C5 C6 1_555 1_555
C6 C7 1_555 1_555
C7 H5 1_555 1_555
C8 C5 1_555 1_555
H4 C6 1_555 1_555
O5 C12 1_555 1_555
O42 C12 1_555 1_555
C9 C10 1_555 1_555
C10 C11 1_555 1_555
C11 H7 1_555 1_555
C12 C9 1_555 1_555
H6 C10 1_555 1_555
O44 C32 1_555 1_555
O45 C32 1_555 1_555
C29 C11 1_555 1_555
C30 C29 1_555 1_555
C31 C9 1_555 1_555
C32 C29 1_555 1_555
H18 C30 1_555 1_555
H19 C31 1_555 1_555
Fe3 O3 1_555 1_555
O38 C8 1_555 1_555
O61 Fe3 1_555 1_555
C30 C31 1_555 1_555
O10 Fe9 1_555 1_555
O51 C48 1_555 1_555
O52 C48 1_555 1_555
C45 C46 1_555 1_555
C46 C47 1_555 1_555
C47 H28 1_555 1_555
C48 C45 1_555 1_555
H27 C46 1_555 1_555
O53 C52 1_555 1_555
C50 C49 1_555 1_555
C52 O10 1_555 1_555
H30 C50 1_555 1_555
H31 C51 1_555 1_555
O30 Fe9 1_555 1_555
O56 C60 1_555 1_555
C57 C47 1_555 1_555
C58 C57 1_555 1_555
C59 C45 1_555 1_555
C60 O30 1_555 1_555
H35 C58 1_555 1_555
H36 C59 1_555 1_555
O57 Fe9 1_555 1_555
H40 O40 1_555 1_555
C49 C52 1_555 1_555
C50 C51 1_555 1_555
C57 C60 1_555 1_555
C58 C59 1_555 1_555

#END
