
###############################################################################
#
# This file contains modified crystal structure data generated from the
# MOF subset of the Cambridge Structural Database (CSD) v543 
# hosted by the Cambridge Crystallographic Data Centre (CCDC).
#
# This work is licensed under the Creative Commons
# Attribution-NonCommercial-ShareAlike 4.0 International License.
# To view a copy of this license, visit
# http://creativecommons.org/licenses/by-nc-sa/4.0/
# or send a letter to
# Creative Commons, PO Box 1866, Mountain View, CA 94042, USA.
#
# CIF created using the CSD Python API on 29 September 2022
# The structure has been converted into the P1 space group
# The structure has a 3D framework
# The original CSD entry EFESEP is in the tetragonal crystal system
# The framework has been calculated to contain at least 10.0% void space
# The void calculation uses a probe of radius 1.32A, grid spacing 0.4
#
###############################################################################

data_EFESEP
_chemical_formula_moiety         '(C432 H400 N16 O131 Zn22)n'
_symmetry_cell_setting           triclinic
_symmetry_space_group_name_H-M   'P 1'
_symmetry_Int_Tables_number      1
_space_group_name_Hall           'P 1'
loop_
_symmetry_equiv_pos_site_id
_symmetry_equiv_pos_as_xyz
1 x,y,z
_cell_length_a                   25.107(4)
_cell_length_b                   25.107(4)
_cell_length_c                   23.531(5)
_cell_angle_alpha                90
_cell_angle_beta                 90
_cell_angle_gamma                90
_cell_volume                     14833
loop_
_atom_site_label
_atom_site_type_symbol
_atom_site_fract_x
_atom_site_fract_y
_atom_site_fract_z
C17 C 0.0518(2) 0.4065(2) 0.1689(2)
H20 H 0.0878 0.4059 0.1598
C18 C 0.0790(4) 0.4256(7) 0.2644(4)
H21 H 0.0625 0.4346 0.2999
H22 H 0.1033 0.4533 0.2536
H23 H 0.0981 0.3926 0.2685
O8 O 0.00483(18) 0.33464(15) 0.02884(19)
O9 O 0.01954(13) 0.39482(16) 0.13145(14)
N2 N 0.0382(3) 0.4197(4) 0.2209(2)
Zn1 Zn 0.03769(2) 0.40773(2) 0.04833(2)
O36 O 0.07244(14) 0.47697(13) 0.07921(15)
O39 O 0.03977(12) 0.54744(12) 0.03381(13)
O44 O 0.16723(14) 0.43650(17) 0.00913(14)
O46 O 0.11688(14) 0.37752(15) 0.05563(15)
C1 C 0.1373(2) 0.2086(2) 0.7863(2)
H1 H 0.292 0.0004 0.8688
O1 O 0.13279(15) 0.37601(16) 0.89894(15)
O2 O 0.04600(14) 0.35973(17) 0.88376(16)
C20 C 0.0950(2) 0.3488(2) 0.8791(2)
C21 C 0.1084(2) 0.2979(2) 0.8473(2)
C22 C 0.1594(2) 0.2786(2) 0.8512(3)
H27 H 0.1846 0.296 0.8733
C23 C 0.1731(2) 0.2312(2) 0.8209(3)
H28 H 0.2068 0.2162 0.8251
C24 C 0.0857(3) 0.2286(2) 0.7850(3)
H29 H 0.0597 0.2112 0.7637
C25 C 0.0727(3) 0.2738(3) 0.8149(2)
H30 H 0.0384 0.2877 0.8123
C26 C 0.1513(2) 0.1609(2) 0.7492(2)
C27 C 0.1739(2) 0.1167(2) 0.7751(2)
H31 H 0.1789 0.1171 0.8142
C28 C 0.1893(2) 0.0721(2) 0.7452(3)
C29 C 0.1803(2) 0.0720(2) 0.6857(2)
C30 C 0.1582(3) 0.1156(2) 0.6587(2)
H32 H 0.1523 0.1154 0.6197
C31 C 0.1445(3) 0.1614(2) 0.6925(2)
C32 C 0.1284(2) 0.20856(19) 0.6585(2)
C33 C 0.0869(3) 0.2074(2) 0.6199(2)
H33 H 0.0662 0.1767 0.6175
C34 C 0.0751(3) 0.2491(2) 0.5854(2)
H34 H 0.0471 0.2466 0.5597
C35 C 0.1057(2) 0.29624(19) 0.5887(2)
C36 C 0.1446(3) 0.2987(2) 0.6300(2)
H35 H 0.1639 0.3301 0.6347
C37 C 0.1554(3) 0.2558(2) 0.6642(2)
H36 H 0.1817 0.2588 0.692
C38 C 0.0957(3) 0.3414(2) 0.5480(2)
C39 C 0.2325(3) 0.0303(3) 0.8237(5)
H37 H 0.2466 0.0656 0.8313
H38 H 0.2032 0.0242 0.8499
C42 C 0.1965(4) 0.0308(2) 0.5956(3)
H43 H 0.2113 0.0642 0.5822
H44 H 0.1603 0.0274 0.5818
O10 O 0.04493(12) 0.43395(13) 0.96727(13)
O11 O 0.21266(19) 0.02886(18) 0.7675(2)
O15 O 0.19827(17) 0.02769(13) 0.65904(17)
O16 O 0.06350(17) 0.33277(14) 0.50913(14)
O17 O 0.12248(15) 0.38312(14) 0.55563(15)
Zn2 Zn 0.11908(2) 0.43994(2) 0.94480(2)
Zn3 Zn -0.00000 0.50000 0.96656(3)
O21 O 0.02303(13) 0.42756(14) 0.57921(15)
H98 H 0.0015 0.3505 0.6358
O40 O 0.13318(14) 0.50637(16) 0.90592(15)
O42 O 0.05035(15) 0.53779(17) 0.90640(15)
Zn7 Zn 0.09227(2) 0.46231(2) 0.54833(2)
Zn12 Zn 0.06006(2) 0.38092(2) 0.44480(2)
Zn16 Zn -0.00000 0.50000 0.46656(3)
C70 C 0.0430(14) 0.7624(7) 0.0264(10)
H67 H 0.0541 0.7972 0.0145
H68 H 0.0709 0.746 0.0482
H69 H 0.0115 0.7652 0.0493
C73 C 0.0145(6) 0.5829(11) 0.2365(5)
H74 H 0.0181 0.5726 0.2756
H75 H 0.0273 0.6186 0.2317
H76 H 0.035 0.5592 0.2131
C2 C 0.2720(7) 0.9930(5) 0.8344(9)
H2 H 0.2961 0.9881 0.8025
C3 C 0.2588(6) 0.8969(4) 0.8527(6)
H3 H 0.2667 0.8943 0.893
H4 H 0.292 0.8999 0.832
C4 C 0.2280(6) 0.8480(5) 0.8331(5)
H5 H 0.2418 0.816 0.851
H6 H 0.1905 0.8513 0.8425
C5 C 0.2073(3) 0.8443(2) 0.5977(3)
H7 H 0.1695 0.8437 0.589
H8 H 0.2233 0.812 0.5831
C6 C 0.02629(17) 0.57030(17) 0.57020(18)
C7 C 0.1491(2) 0.6737(2) 0.7917(3)
C8 C 0.0943(2) 0.6686(3) 0.8103(3)
H9 H 0.0695 0.6947 0.8009
C9 C 0.0792(3) 0.6252(3) 0.8419(3)
H10 H 0.0438 0.6214 0.8526
C10 C 0.1153(2) 0.5876(2) 0.8577(2)
C11 C 0.1674(2) 0.5920(3) 0.8409(2)
H11 H 0.1919 0.5659 0.8514
C12 C 0.1839(2) 0.6346(2) 0.8084(3)
H12 H 0.2194 0.637 0.7976
C13 C 0.0970(2) 0.5403(2) 0.8929(2)
O3 O 0.2266(4) 0.9410(3) 0.8422(4)
O5 O 0.04744(12) 0.53977(12) 0.53381(13)
C40 C 0.2329(3) 0.8923(2) 0.5710(4)
H39 H 0.2692 0.8962 0.5847
H40 H 0.2339 0.8883 0.53
C41 C 0.2301(3) 0.9843(2) 0.5766(3)
H41 H 0.2383 0.9876 0.5365
H42 H 0.2633 0.9837 0.5977
C43 C 0.1987(2) 0.8046(2) 0.6879(2)
C44 C 0.2100(3) 0.8040(2) 0.7456(3)
C45 C 0.1916(3) 0.7607(2) 0.7801(3)
H45 H 0.1976 0.7606 0.8191
C46 C 0.1643(2) 0.7186(2) 0.7542(2)
C47 C 0.1538(2) 0.7204(2) 0.6975(3)
C48 C 0.1706(2) 0.7629(2) 0.6663(2)
H46 H 0.1623 0.7634 0.6278
C49 C 0.1219(2) 0.6794(2) 0.6682(2)
C50 C 0.0657(3) 0.6820(3) 0.6665(4)
H47 H 0.0485 0.7087 0.6869
C51 C 0.0354(2) 0.6466(3) 0.6359(3)
C52 C 0.0600(2) 0.60640(17) 0.60513(19)
C53 C 0.1139(2) 0.60393(17) 0.6050(2)
H49 H 0.1307 0.578 0.5832
C54 C 0.1449(2) 0.6392(2) 0.6366(3)
H50 H 0.1817 0.6355 0.6364
O12 O 0.2354(2) 0.84566(15) 0.77085(17)
O13 O 0.21494(18) 0.84760(15) 0.6571(2)
O14 O 0.20197(16) 0.93808(16) 0.5863(2)
C68 C 0.0168(5) 0.6806(5) 0.9903(3)
H63 H 0.0249 0.6557 0.9624
C69 C 0.0614(12) 0.7537(15) 0.9273(12)
H64 H 0.0675 0.7912 0.9317
H65 H 0.0399 0.7476 0.8942
H66 H 0.095 0.7357 0.923
N3 N 0.0325(6) 0.7322(4) 0.9801(4)
C16 C 0.9570(14) 0.2376(7) 0.0264(10)
H17 H 0.9459 0.2028 0.0145
H18 H 0.9291 0.254 0.0482
H19 H 0.9885 0.2348 0.0493
C19 C 0.9855(6) 0.4171(11) 0.2365(5)
H24 H 0.9819 0.4274 0.2756
H25 H 0.9727 0.3814 0.2317
H26 H 0.965 0.4408 0.2131
O37 O 0.96023(12) 0.45256(12) 0.03381(13)
C14 C 0.9832(5) 0.3194(5) 0.9903(3)
H13 H 0.9751 0.3443 0.9624
C15 C 0.9386(12) 0.2463(15) 0.9273(12)
H14 H 0.9325 0.2088 0.9317
H15 H 0.9601 0.2524 0.8942
H16 H 0.905 0.2643 0.923
N1 N 0.9675(6) 0.2678(4) 0.9801(4)
Zn3_2 Zn 1.00000 0.50000 0.96656(3)
C56 C 0.7280(7) 0.0070(5) 0.8344(9)
H52 H 0.7039 0.0119 0.8025
C57 C 0.7412(6) 0.1031(4) 0.8527(6)
H53 H 0.7333 0.1057 0.893
H54 H 0.708 0.1001 0.832
C58 C 0.7720(6) 0.1520(5) 0.8331(5)
H55 H 0.7582 0.184 0.851
H56 H 0.8095 0.1487 0.8425
C59 C 0.7927(3) 0.1557(2) 0.5977(3)
H57 H 0.8305 0.1563 0.589
H58 H 0.7767 0.188 0.5831
C60 C 0.97371(17) 0.42970(17) 0.57020(18)
C61 C 0.8509(2) 0.3263(2) 0.7917(3)
C62 C 0.9057(2) 0.3314(3) 0.8103(3)
H59 H 0.9305 0.3053 0.8009
C63 C 0.9208(3) 0.3748(3) 0.8419(3)
H60 H 0.9562 0.3786 0.8526
C64 C 0.8847(2) 0.4124(2) 0.8577(2)
C65 C 0.8326(2) 0.4080(3) 0.8409(2)
H61 H 0.8081 0.4341 0.8514
C66 C 0.8161(2) 0.3654(2) 0.8084(3)
H62 H 0.7806 0.363 0.7976
C67 C 0.9030(2) 0.4597(2) 0.8929(2)
O20 O 0.7734(4) 0.0590(3) 0.8422(4)
O22 O 0.95256(12) 0.46023(12) 0.53381(13)
O23 O 0.86682(14) 0.49363(16) 0.90592(15)
O24 O 0.94965(15) 0.46221(17) 0.90640(15)
C94 C 0.7671(3) 0.1077(2) 0.5710(4)
H89 H 0.7308 0.1038 0.5847
H90 H 0.7661 0.1117 0.53
C95 C 0.7699(3) 0.0157(2) 0.5766(3)
H91 H 0.7617 0.0124 0.5365
H92 H 0.7367 0.0163 0.5977
C97 C 0.8013(2) 0.1954(2) 0.6879(2)
C98 C 0.7900(3) 0.1960(2) 0.7456(3)
C99 C 0.8084(3) 0.2393(2) 0.7801(3)
H95 H 0.8024 0.2394 0.8191
C100 C 0.8357(2) 0.2814(2) 0.7542(2)
C101 C 0.8462(2) 0.2796(2) 0.6975(3)
C102 C 0.8294(2) 0.2371(2) 0.6663(2)
H96 H 0.8377 0.2366 0.6278
C103 C 0.8781(2) 0.3206(2) 0.6682(2)
C104 C 0.9343(3) 0.3180(3) 0.6665(4)
H97 H 0.9515 0.2913 0.6869
C105 C 0.9646(2) 0.3534(3) 0.6359(3)
C106 C 0.9400(2) 0.39360(17) 0.60513(19)
C107 C 0.8861(2) 0.39607(17) 0.6050(2)
H99 H 0.8693 0.422 0.5832
C108 C 0.8551(2) 0.3608(2) 0.6366(3)
H100 H 0.8183 0.3645 0.6364
O29 O 0.7646(2) 0.15434(15) 0.77085(17)
O30 O 0.78506(18) 0.15240(15) 0.6571(2)
O31 O 0.79803(16) 0.06192(16) 0.5863(2)
O43 O 0.95507(12) 0.56605(13) 0.96727(13)
Zn9 Zn 0.90773(2) 0.53769(2) 0.54833(2)
Zn11 Zn 0.88092(2) 0.56006(2) 0.94480(2)
Zn16_2 Zn 1.00000 0.50000 0.46656(3)
C71 C 0.9482(2) 0.5935(2) 0.1689(2)
H70 H 0.9122 0.5941 0.1598
C72 C 0.9210(4) 0.5744(7) 0.2644(4)
H71 H 0.9375 0.5654 0.2999
H72 H 0.8967 0.5467 0.2536
H73 H 0.9019 0.6074 0.2685
O25 O 0.99517(18) 0.66536(15) 0.02884(19)
O26 O 0.98046(13) 0.60518(16) 0.13145(14)
N4 N 0.9618(3) 0.5803(4) 0.2209(2)
Zn4 Zn 0.96231(2) 0.59227(2) 0.04833(2)
O35 O 0.92756(14) 0.52303(13) 0.07921(15)
O45 O 0.83277(14) 0.56350(17) 0.00913(14)
O47 O 0.88312(14) 0.62248(15) 0.05563(15)
O4 O 0.97697(13) 0.57244(14) 0.57921(15)
H48 H 0.9985 0.6495 0.6358
C55 C 0.8627(2) 0.7914(2) 0.7863(2)
H51 H 0.708 0.9996 0.8688
O18 O 0.86721(15) 0.62399(16) 0.89894(15)
O19 O 0.95400(14) 0.64027(17) 0.88376(16)
C74 C 0.9050(2) 0.6512(2) 0.8791(2)
C75 C 0.8916(2) 0.7021(2) 0.8473(2)
C76 C 0.8406(2) 0.7214(2) 0.8512(3)
H77 H 0.8154 0.704 0.8733
C77 C 0.8269(2) 0.7688(2) 0.8209(3)
H78 H 0.7932 0.7838 0.8251
C78 C 0.9143(3) 0.7714(2) 0.7850(3)
H79 H 0.9403 0.7888 0.7637
C79 C 0.9273(3) 0.7262(3) 0.8149(2)
H80 H 0.9616 0.7123 0.8123
C80 C 0.8487(2) 0.8391(2) 0.7492(2)
C81 C 0.8261(2) 0.8833(2) 0.7751(2)
H81 H 0.8211 0.8829 0.8142
C82 C 0.8107(2) 0.9279(2) 0.7452(3)
C83 C 0.8197(2) 0.9280(2) 0.6857(2)
C84 C 0.8418(3) 0.8844(2) 0.6587(2)
H82 H 0.8477 0.8846 0.6197
C85 C 0.8555(3) 0.8386(2) 0.6925(2)
C86 C 0.8716(2) 0.79144(19) 0.6585(2)
C87 C 0.9131(3) 0.7926(2) 0.6199(2)
H83 H 0.9338 0.8233 0.6175
C88 C 0.9249(3) 0.7509(2) 0.5854(2)
H84 H 0.9529 0.7534 0.5597
C89 C 0.8943(2) 0.70376(19) 0.5887(2)
C90 C 0.8554(3) 0.7013(2) 0.6300(2)
H85 H 0.8361 0.6699 0.6347
C91 C 0.8446(3) 0.7442(2) 0.6642(2)
H86 H 0.8183 0.7412 0.692
C92 C 0.9043(3) 0.6586(2) 0.5480(2)
C93 C 0.7675(3) 0.9697(3) 0.8237(5)
H87 H 0.7534 0.9344 0.8313
H88 H 0.7968 0.9758 0.8499
C96 C 0.8035(4) 0.9692(2) 0.5956(3)
H93 H 0.7887 0.9358 0.5822
H94 H 0.8397 0.9726 0.5818
O28 O 0.78734(19) 0.97114(18) 0.7675(2)
O32 O 0.80173(17) 0.97231(13) 0.65904(17)
O33 O 0.93650(17) 0.66723(14) 0.50913(14)
O34 O 0.87752(15) 0.61688(14) 0.55563(15)
Zn13 Zn 0.93994(2) 0.61908(2) 0.44480(2)
O41 O 0.00637(16) 0.63318(14) 0.40592(15)
C1_2 C 0.2914(2) 0.3627(2) 0.2863(2)
C2_2 C 0.5070(5) 0.2280(7) 0.3344(9)
H1_2 H 0.4996 0.208 0.3688
H2_2 H 0.5119 0.2039 0.3025
C3_2 C 0.6031(4) 0.2412(6) 0.3527(6)
H3_2 H 0.6057 0.2333 0.393
H4_2 H 0.6001 0.208 0.332
C4_2 C 0.6520(5) 0.2720(6) 0.3331(5)
H5_2 H 0.684 0.2582 0.351
H6_2 H 0.6487 0.3095 0.3425
C5_2 C 0.6557(2) 0.2927(3) 0.0977(3)
H7_2 H 0.6563 0.3305 0.089
H8_2 H 0.688 0.2767 0.0831
C6_2 C 0.92970(17) 0.47371(17) 0.07020(18)
C7_2 C 0.8263(2) 0.3509(2) 0.2917(3)
C8_2 C 0.8314(3) 0.4057(2) 0.3103(3)
H9_2 H 0.8053 0.4305 0.3009
C9_2 C 0.8748(3) 0.4208(3) 0.3419(3)
H10_2 H 0.8786 0.4562 0.3526
C10_2 C 0.9124(2) 0.3847(2) 0.3577(2)
C11_2 C 0.9080(3) 0.3326(2) 0.3409(2)
H11_2 H 0.9341 0.3081 0.3514
C12_2 C 0.8654(2) 0.3161(2) 0.3084(3)
H12_2 H 0.863 0.2806 0.2976
C13_2 C 0.9597(2) 0.4030(2) 0.3929(2)
C14_2 C 0.1806(5) 0.5168(5) 0.4903(3)
H13_2 H 0.1557 0.5249 0.4624
C15_2 C 0.2537(15) 0.5614(12) 0.4273(12)
H14_2 H 0.2912 0.5675 0.4317
H15_2 H 0.2476 0.5399 0.3942
H16_2 H 0.2357 0.595 0.423
C16_2 C 0.2624(7) 0.5430(14) 0.5264(10)
H17_2 H 0.2972 0.5541 0.5145
H18_2 H 0.246 0.5709 0.5482
H19_2 H 0.2652 0.5115 0.5493
C17_2 C 0.0935(2) 0.4482(2) 0.6689(2)
H20_2 H 0.0941 0.4122 0.6598
C18_2 C 0.0744(7) 0.4210(4) 0.7644(4)
H21_2 H 0.0654 0.4375 0.7999
H22_2 H 0.0467 0.3967 0.7536
H23_2 H 0.1074 0.4019 0.7685
C19_2 C 0.0829(11) 0.5145(6) 0.7365(5)
H24_2 H 0.0726 0.5181 0.7756
H25_2 H 0.1186 0.5273 0.7317
H26_2 H 0.0592 0.535 0.7131
O1_2 O 0.12399(16) 0.36721(15) 0.39894(15)
O2_2 O 0.14027(17) 0.45400(14) 0.38376(16)
O3_2 O 0.5590(3) 0.2734(4) 0.3422(4)
O6 O 0.99363(16) 0.36682(14) 0.40592(15)
O7 O 0.96221(17) 0.44965(15) 0.40640(15)
O8_2 O 0.16536(15) 0.49517(18) 0.52884(19)
O9_2 O 0.10518(16) 0.48046(13) 0.63145(14)
N1_2 N 0.2322(4) 0.5325(6) 0.4801(4)
N2_2 N 0.0803(4) 0.4618(3) 0.7209(2)
C20_2 C 0.1512(2) 0.4050(2) 0.3791(2)
C21_2 C 0.2021(2) 0.3916(2) 0.3473(2)
C22_2 C 0.2214(2) 0.3406(2) 0.3512(3)
H27_2 H 0.204 0.3154 0.3733
C23_2 C 0.2688(2) 0.3269(2) 0.3209(3)
H28_2 H 0.2838 0.2932 0.3251
C24_2 C 0.2714(2) 0.4143(3) 0.2850(3)
H29_2 H 0.2888 0.4403 0.2637
C25_2 C 0.2262(3) 0.4273(3) 0.3149(2)
H30_2 H 0.2123 0.4616 0.3123
C26_2 C 0.3391(2) 0.3487(2) 0.2492(2)
C27_2 C 0.3833(2) 0.3261(2) 0.2751(2)
H31_2 H 0.3829 0.3211 0.3142
C28_2 C 0.4279(2) 0.3107(2) 0.2452(3)
C29_2 C 0.4280(2) 0.3197(2) 0.1857(2)
C30_2 C 0.3844(2) 0.3418(3) 0.1587(2)
H32_2 H 0.3846 0.3477 0.1197
C31_2 C 0.3386(2) 0.3555(3) 0.1925(2)
C32_2 C 0.29144(19) 0.3716(2) 0.1585(2)
C33_2 C 0.2926(2) 0.4131(3) 0.1199(2)
H33_2 H 0.3233 0.4338 0.1175
C34_2 C 0.2509(2) 0.4249(3) 0.0854(2)
H34_2 H 0.2534 0.4529 0.0597
C35_2 C 0.20376(19) 0.3943(2) 0.0887(2)
C36_2 C 0.2013(2) 0.3554(3) 0.1300(2)
H35_2 H 0.1699 0.3361 0.1347
C37_2 C 0.2442(2) 0.3446(3) 0.1642(2)
H36_2 H 0.2412 0.3183 0.192
C38_2 C 0.1586(2) 0.4043(3) 0.0480(2)
C39_2 C 0.4697(3) 0.2675(3) 0.3237(5)
H37_2 H 0.4344 0.2534 0.3313
H38_2 H 0.4758 0.2968 0.3499
C40_2 C 0.6077(2) 0.2671(3) 0.0710(4)
H39_2 H 0.6038 0.2308 0.0847
H40_2 H 0.6117 0.2661 0.03
C41_2 C 0.5157(2) 0.2699(3) 0.0766(3)
H41_2 H 0.5124 0.2617 0.0365
H42_2 H 0.5163 0.2367 0.0977
C42_2 C 0.4692(2) 0.3035(4) 0.0956(3)
H43_2 H 0.4358 0.2887 0.0822
H44_2 H 0.4726 0.3397 0.0818
C43_2 C 0.6954(2) 0.3013(2) 0.1879(2)
C44_2 C 0.6960(2) 0.2900(3) 0.2456(3)
C45_2 C 0.7393(2) 0.3084(3) 0.2801(3)
H45_2 H 0.7394 0.3024 0.3191
C46_2 C 0.7814(2) 0.3357(2) 0.2542(2)
C47_2 C 0.7796(2) 0.3462(2) 0.1975(3)
C48_2 C 0.7371(2) 0.3294(2) 0.1663(2)
H46_2 H 0.7366 0.3377 0.1278
C49_2 C 0.8206(2) 0.3781(2) 0.1682(2)
C50_2 C 0.8180(3) 0.4343(3) 0.1665(4)
H47_2 H 0.7913 0.4515 0.1869
C51_2 C 0.8534(3) 0.4646(2) 0.1359(3)
H48_2 H 0.8505 0.5015 0.1358
C52_2 C 0.89360(17) 0.4400(2) 0.10513(19)
C53_2 C 0.89607(17) 0.3861(2) 0.1050(2)
H49_2 H 0.922 0.3693 0.0832
C54_2 C 0.8608(2) 0.3551(2) 0.1366(3)
H50_2 H 0.8645 0.3183 0.1364
O10_2 O 0.06605(13) 0.45507(12) 0.46727(13)
O11_2 O 0.47114(18) 0.28734(19) 0.2675(2)
O12_2 O 0.65434(15) 0.2646(2) 0.27085(17)
O13_2 O 0.65240(15) 0.28506(18) 0.1571(2)
O14_2 O 0.56192(16) 0.29803(16) 0.0863(2)
O15_2 O 0.47231(13) 0.30173(17) 0.15904(17)
C55_2 C 0.7086(2) 0.6373(2) 0.2863(2)
C56_2 C 0.4930(5) 0.7720(7) 0.3344(9)
H51_2 H 0.5004 0.792 0.3688
H52_2 H 0.4881 0.7961 0.3025
C57_2 C 0.3969(4) 0.7588(6) 0.3527(6)
H53_2 H 0.3943 0.7667 0.393
H54_2 H 0.3999 0.792 0.332
C58_2 C 0.3480(5) 0.7280(6) 0.3331(5)
H55_2 H 0.316 0.7418 0.351
H56_2 H 0.3513 0.6905 0.3425
C59_2 C 0.3443(2) 0.7073(3) 0.0977(3)
H57_2 H 0.3437 0.6695 0.089
H58_2 H 0.312 0.7233 0.0831
C60_2 C 0.07030(17) 0.52629(17) 0.07020(18)
C61_2 C 0.1737(2) 0.6491(2) 0.2917(3)
C62_2 C 0.1686(3) 0.5943(2) 0.3103(3)
H59_2 H 0.1947 0.5695 0.3009
C63_2 C 0.1252(3) 0.5792(3) 0.3419(3)
H60_2 H 0.1214 0.5438 0.3526
C64_2 C 0.0876(2) 0.6153(2) 0.3577(2)
C65_2 C 0.0920(3) 0.6674(2) 0.3409(2)
H61_2 H 0.0659 0.6919 0.3514
C66_2 C 0.1346(2) 0.6839(2) 0.3084(3)
H62_2 H 0.137 0.7194 0.2976
C67_2 C 0.0403(2) 0.5970(2) 0.3929(2)
C68_2 C 0.8194(5) 0.4832(5) 0.4903(3)
H63_2 H 0.8443 0.4751 0.4624
C69_2 C 0.7463(15) 0.4386(12) 0.4273(12)
H64_2 H 0.7088 0.4325 0.4317
H65_2 H 0.7524 0.4601 0.3942
H66_2 H 0.7643 0.405 0.423
C70_2 C 0.7376(7) 0.4570(14) 0.5264(10)
H67_2 H 0.7028 0.4459 0.5145
H68_2 H 0.754 0.4291 0.5482
H69_2 H 0.7348 0.4885 0.5493
C71_2 C 0.9065(2) 0.5518(2) 0.6689(2)
H70_2 H 0.9059 0.5878 0.6598
C72_2 C 0.9256(7) 0.5790(4) 0.7644(4)
H71_2 H 0.9346 0.5625 0.7999
H72_2 H 0.9533 0.6033 0.7536
H73_2 H 0.8926 0.5981 0.7685
C73_2 C 0.9171(11) 0.4855(6) 0.7365(5)
H74_2 H 0.9274 0.4819 0.7756
H75_2 H 0.8814 0.4727 0.7317
H76_2 H 0.9408 0.465 0.7131
O18_2 O 0.87601(16) 0.63279(15) 0.39894(15)
O19_2 O 0.85973(17) 0.54600(14) 0.38376(16)
O20_2 O 0.4410(3) 0.7266(4) 0.3422(4)
O24_2 O 0.03779(17) 0.55035(15) 0.40640(15)
O25_2 O 0.83464(15) 0.50483(18) 0.52884(19)
O26_2 O 0.89482(16) 0.51954(13) 0.63145(14)
N3_2 N 0.7678(4) 0.4675(6) 0.4801(4)
N4_2 N 0.9197(4) 0.5382(3) 0.7209(2)
C74_2 C 0.8488(2) 0.5950(2) 0.3791(2)
C75_2 C 0.7979(2) 0.6084(2) 0.3473(2)
C76_2 C 0.7786(2) 0.6594(2) 0.3512(3)
H77_2 H 0.796 0.6846 0.3733
C77_2 C 0.7312(2) 0.6731(2) 0.3209(3)
H78_2 H 0.7162 0.7068 0.3251
C78_2 C 0.7286(2) 0.5857(3) 0.2850(3)
H79_2 H 0.7112 0.5597 0.2637
C79_2 C 0.7738(3) 0.5727(3) 0.3149(2)
H80_2 H 0.7877 0.5384 0.3123
C80_2 C 0.6609(2) 0.6513(2) 0.2492(2)
C81_2 C 0.6167(2) 0.6739(2) 0.2751(2)
H81_2 H 0.6171 0.6789 0.3142
C82_2 C 0.5721(2) 0.6893(2) 0.2452(3)
C83_2 C 0.5720(2) 0.6803(2) 0.1857(2)
C84_2 C 0.6156(2) 0.6582(3) 0.1587(2)
H82_2 H 0.6154 0.6523 0.1197
C85_2 C 0.6614(2) 0.6445(3) 0.1925(2)
C86_2 C 0.70856(19) 0.6284(2) 0.1585(2)
C87_2 C 0.7074(2) 0.5869(3) 0.1199(2)
H83_2 H 0.6767 0.5662 0.1175
C88_2 C 0.7491(2) 0.5751(3) 0.0854(2)
H84_2 H 0.7466 0.5471 0.0597
C89_2 C 0.79624(19) 0.6057(2) 0.0887(2)
C90_2 C 0.7987(2) 0.6446(3) 0.1300(2)
H85_2 H 0.8301 0.6639 0.1347
C91_2 C 0.7558(2) 0.6554(3) 0.1642(2)
H86_2 H 0.7588 0.6817 0.192
C92_2 C 0.8414(2) 0.5957(3) 0.0480(2)
C93_2 C 0.5303(3) 0.7325(3) 0.3237(5)
H87_2 H 0.5656 0.7466 0.3313
H88_2 H 0.5242 0.7032 0.3499
C94_2 C 0.3923(2) 0.7329(3) 0.0710(4)
H89_2 H 0.3962 0.7692 0.0847
H90_2 H 0.3883 0.7339 0.03
C95_2 C 0.4843(2) 0.7301(3) 0.0766(3)
H91_2 H 0.4876 0.7383 0.0365
H92_2 H 0.4837 0.7633 0.0977
C96_2 C 0.5308(2) 0.6965(4) 0.0956(3)
H93_2 H 0.5642 0.7113 0.0822
H94_2 H 0.5274 0.6603 0.0818
C97_2 C 0.3046(2) 0.6987(2) 0.1879(2)
C98_2 C 0.3040(2) 0.7100(3) 0.2456(3)
C99_2 C 0.2607(2) 0.6916(3) 0.2801(3)
H95_2 H 0.2606 0.6976 0.3191
C100_2 C 0.2186(2) 0.6643(2) 0.2542(2)
C101_2 C 0.2204(2) 0.6538(2) 0.1975(3)
C102_2 C 0.2629(2) 0.6706(2) 0.1663(2)
H96_2 H 0.2634 0.6623 0.1278
C103_2 C 0.1794(2) 0.6219(2) 0.1682(2)
C104_2 C 0.1820(3) 0.5657(3) 0.1665(4)
H97_2 H 0.2087 0.5485 0.1869
C105_2 C 0.1466(3) 0.5354(2) 0.1359(3)
H98_2 H 0.1495 0.4985 0.1358
C106_2 C 0.10640(17) 0.5600(2) 0.10513(19)
C107_2 C 0.10393(17) 0.6139(2) 0.1050(2)
H99_2 H 0.078 0.6307 0.0832
C108_2 C 0.1392(2) 0.6449(2) 0.1366(3)
H100_2 H 0.1355 0.6817 0.1364
O27 O 0.93395(13) 0.54493(12) 0.46727(13)
O28_2 O 0.52886(18) 0.71266(19) 0.2675(2)
O29_2 O 0.34566(15) 0.7354(2) 0.27085(17)
O30_2 O 0.34760(15) 0.71494(18) 0.1571(2)
O31_2 O 0.43808(16) 0.70197(16) 0.0863(2)
O32_2 O 0.52769(13) 0.69827(17) 0.15904(17)
Zn15 Zn 0.50000 -0.00000 0.03344(3)
O41_2 O 0.36682(14) 0.00637(16) 0.59408(15)
Zn6 Zn 0.59227(2) 0.03769(2) 0.95167(2)
Zn10 Zn 0.61908(2) 0.06006(2) 0.55520(2)
Zn14 Zn 0.50000 0.00000 0.53344(3)
Zn12_2 Zn 0.56006(2) 0.11908(2) 0.05520(2)
Zn13_2 Zn 0.43994(2) 0.88092(2) 0.05520(2)
Zn15_2 Zn 0.50000 1.00000 0.03344(3)
C1_3 C 0.6373(2) 0.2914(2) 0.7137(2)
C2_3 C 0.7720(7) 0.5070(5) 0.6656(9)
H1_3 H 0.792 0.4996 0.6312
H2_3 H 0.7961 0.5119 0.6975
C3_3 C 0.7588(6) 0.6031(4) 0.6473(6)
H3_3 H 0.7667 0.6057 0.607
H4_3 H 0.792 0.6001 0.668
C4_3 C 0.7280(6) 0.6520(5) 0.6669(5)
H5_3 H 0.7418 0.684 0.649
H6_3 H 0.6905 0.6487 0.6575
C5_3 C 0.7073(3) 0.6557(2) 0.9023(3)
H7_3 H 0.6695 0.6563 0.911
H8_3 H 0.7233 0.688 0.9169
C6_3 C 0.52629(17) 0.92970(17) 0.92980(18)
C7_3 C 0.6491(2) 0.8263(2) 0.7083(3)
C8_3 C 0.5943(2) 0.8314(3) 0.6897(3)
H9_3 H 0.5695 0.8053 0.6991
C9_3 C 0.5792(3) 0.8748(3) 0.6581(3)
H10_3 H 0.5438 0.8786 0.6474
C10_3 C 0.6153(2) 0.9124(2) 0.6423(2)
C11_3 C 0.6674(2) 0.9080(3) 0.6591(2)
H11_3 H 0.6919 0.9341 0.6486
C12_3 C 0.6839(2) 0.8654(2) 0.6916(3)
H12_3 H 0.7194 0.863 0.7024
C13_3 C 0.5970(2) 0.9597(2) 0.6071(2)
C14_3 C 0.4832(5) 0.1806(5) 0.5097(3)
H13_3 H 0.4751 0.1557 0.5376
C15_3 C 0.4386(12) 0.2537(15) 0.5727(12)
H14_3 H 0.4325 0.2912 0.5683
H15_3 H 0.4601 0.2476 0.6058
H16_3 H 0.405 0.2357 0.577
C16_3 C 0.4570(14) 0.2624(7) 0.4736(10)
H17_3 H 0.4459 0.2972 0.4855
H18_3 H 0.4291 0.246 0.4518
H19_3 H 0.4885 0.2652 0.4507
C17_3 C 0.5518(2) 0.0935(2) 0.3311(2)
H20_3 H 0.5878 0.0941 0.3402
C18_3 C 0.5790(4) 0.0744(7) 0.2356(4)
H21_3 H 0.5625 0.0654 0.2001
H22_3 H 0.6033 0.0467 0.2464
H23_3 H 0.5981 0.1074 0.2315
C19_3 C 0.4855(6) 0.0829(11) 0.2635(5)
H24_3 H 0.4819 0.0726 0.2244
H25_3 H 0.4727 0.1186 0.2683
H26_3 H 0.465 0.0592 0.2869
O1_3 O 0.63279(15) 0.12399(16) 0.60106(15)
O2_3 O 0.54600(14) 0.14027(17) 0.61624(16)
O3_3 O 0.7266(4) 0.5590(3) 0.6578(4)
O4_2 O 0.47697(13) 0.92756(14) 0.92079(15)
O5_2 O 0.54744(12) 0.96023(12) 0.96619(13)
O6_2 O 0.63318(14) 0.99363(16) 0.59408(15)
O7_2 O 0.55035(15) 0.96221(17) 0.59360(15)
O8_3 O 0.50483(18) 0.16536(15) 0.47116(19)
O9_3 O 0.51954(13) 0.10518(16) 0.36855(14)
N1_3 N 0.4675(6) 0.2322(4) 0.5199(4)
N2_3 N 0.5382(3) 0.0803(4) 0.2791(2)
C20_3 C 0.5950(2) 0.1512(2) 0.6209(2)
C21_3 C 0.6084(2) 0.2021(2) 0.6527(2)
C22_3 C 0.6594(2) 0.2214(2) 0.6488(3)
H27_3 H 0.6846 0.204 0.6267
C23_3 C 0.6731(2) 0.2688(2) 0.6791(3)
H28_3 H 0.7068 0.2838 0.6749
C24_3 C 0.5857(3) 0.2714(2) 0.7150(3)
H29_3 H 0.5597 0.2888 0.7363
C25_3 C 0.5727(3) 0.2262(3) 0.6851(2)
H30_3 H 0.5384 0.2123 0.6877
C26_3 C 0.6513(2) 0.3391(2) 0.7508(2)
C27_3 C 0.6739(2) 0.3833(2) 0.7249(2)
H31_3 H 0.6789 0.3829 0.6858
C28_3 C 0.6893(2) 0.4279(2) 0.7548(3)
C29_3 C 0.6803(2) 0.4280(2) 0.8143(2)
C30_3 C 0.6582(3) 0.3844(2) 0.8413(2)
H32_3 H 0.6523 0.3846 0.8803
C31_3 C 0.6445(3) 0.3386(2) 0.8075(2)
C32_3 C 0.6284(2) 0.29144(19) 0.8415(2)
C33_3 C 0.5869(3) 0.2926(2) 0.8801(2)
H33_3 H 0.5662 0.3233 0.8825
C34_3 C 0.5751(3) 0.2509(2) 0.9146(2)
H34_3 H 0.5471 0.2534 0.9403
C35_3 C 0.6057(2) 0.20376(19) 0.9113(2)
C36_3 C 0.6446(3) 0.2013(2) 0.8700(2)
H35_3 H 0.6639 0.1699 0.8653
C37_3 C 0.6554(3) 0.2442(2) 0.8358(2)
H36_3 H 0.6817 0.2412 0.808
C38_3 C 0.5957(3) 0.1586(2) 0.9520(2)
C39_3 C 0.7325(3) 0.4697(3) 0.6763(5)
H37_3 H 0.7466 0.4344 0.6687
H38_3 H 0.7032 0.4758 0.6501
C40_3 C 0.7329(3) 0.6077(2) 0.9290(4)
H39_3 H 0.7692 0.6038 0.9153
H40_3 H 0.7339 0.6117 0.97
C41_3 C 0.7301(3) 0.5157(2) 0.9234(3)
H41_3 H 0.7383 0.5124 0.9635
H42_3 H 0.7633 0.5163 0.9023
C42_3 C 0.6965(4) 0.4692(2) 0.9044(3)
H43_3 H 0.7113 0.4358 0.9178
H44_3 H 0.6603 0.4726 0.9182
C43_3 C 0.6987(2) 0.6954(2) 0.8121(2)
C44_3 C 0.7100(3) 0.6960(2) 0.7544(3)
C45_3 C 0.6916(3) 0.7393(2) 0.7199(3)
H45_3 H 0.6976 0.7394 0.6809
C46_3 C 0.6643(2) 0.7814(2) 0.7458(2)
C47_3 C 0.6538(2) 0.7796(2) 0.8025(3)
C48_3 C 0.6706(2) 0.7371(2) 0.8337(2)
H46_3 H 0.6623 0.7366 0.8722
C49_3 C 0.6219(2) 0.8206(2) 0.8318(2)
C50_3 C 0.5657(3) 0.8180(3) 0.8335(4)
H47_3 H 0.5485 0.7913 0.8131
C51_3 C 0.5354(2) 0.8534(3) 0.8641(3)
H48_3 H 0.4985 0.8505 0.8642
C52_3 C 0.5600(2) 0.89360(17) 0.89487(19)
C53_3 C 0.6139(2) 0.89607(17) 0.8950(2)
H49_3 H 0.6307 0.922 0.9168
C54_3 C 0.6449(2) 0.8608(2) 0.8634(3)
H50_3 H 0.6817 0.8645 0.8636
O10_3 O 0.54493(12) 0.06605(13) 0.53273(13)
O11_3 O 0.71266(19) 0.47114(18) 0.7325(2)
O12_3 O 0.7354(2) 0.65434(15) 0.72915(17)
O13_3 O 0.71494(18) 0.65240(15) 0.8429(2)
O14_3 O 0.70197(16) 0.56192(16) 0.9137(2)
O15_3 O 0.69827(17) 0.47231(13) 0.84096(17)
O16_2 O 0.56350(17) 0.16723(14) 0.99087(14)
O17_2 O 0.62248(15) 0.11688(14) 0.94437(15)
Zn1_2 Zn 0.53769(2) 0.09227(2) 0.45167(2)
C55_3 C 0.3627(2) 0.7086(2) 0.7137(2)
C56_3 C 0.2280(7) 0.4930(5) 0.6656(9)
H51_3 H 0.208 0.5004 0.6312
H52_3 H 0.2039 0.4881 0.6975
C57_3 C 0.2412(6) 0.3969(4) 0.6473(6)
H53_3 H 0.2333 0.3943 0.607
H54_3 H 0.208 0.3999 0.668
C58_3 C 0.2720(6) 0.3480(5) 0.6669(5)
H55_3 H 0.2582 0.316 0.649
H56_3 H 0.3095 0.3513 0.6575
C59_3 C 0.2927(3) 0.3443(2) 0.9023(3)
H57_3 H 0.3305 0.3437 0.911
H58_3 H 0.2767 0.312 0.9169
C60_3 C 0.47371(17) 0.07030(17) 0.92980(18)
C61_3 C 0.3509(2) 0.1737(2) 0.7083(3)
C62_3 C 0.4057(2) 0.1686(3) 0.6897(3)
H59_3 H 0.4305 0.1947 0.6991
C63_3 C 0.4208(3) 0.1252(3) 0.6581(3)
H60_3 H 0.4562 0.1214 0.6474
C64_3 C 0.3847(2) 0.0876(2) 0.6423(2)
C65_3 C 0.3326(2) 0.0920(3) 0.6591(2)
H61_3 H 0.3081 0.0659 0.6486
C66_3 C 0.3161(2) 0.1346(2) 0.6916(3)
H62_3 H 0.2806 0.137 0.7024
C67_3 C 0.4030(2) 0.0403(2) 0.6071(2)
C68_3 C 0.5168(5) 0.8194(5) 0.5097(3)
H63_3 H 0.5249 0.8443 0.5376
C69_3 C 0.5614(12) 0.7463(15) 0.5727(12)
H64_3 H 0.5675 0.7088 0.5683
H65_3 H 0.5399 0.7524 0.6058
H66_3 H 0.595 0.7643 0.577
C70_3 C 0.5430(14) 0.7376(7) 0.4736(10)
H67_3 H 0.5541 0.7028 0.4855
H68_3 H 0.5709 0.754 0.4518
H69_3 H 0.5115 0.7348 0.4507
C71_3 C 0.4482(2) 0.9065(2) 0.3311(2)
H70_3 H 0.4122 0.9059 0.3402
C72_3 C 0.4210(4) 0.9256(7) 0.2356(4)
H71_3 H 0.4375 0.9346 0.2001
H72_3 H 0.3967 0.9533 0.2464
H73_3 H 0.4019 0.8926 0.2315
C73_3 C 0.5145(6) 0.9171(11) 0.2635(5)
H74_3 H 0.5181 0.9274 0.2244
H75_3 H 0.5273 0.8814 0.2683
H76_3 H 0.535 0.9408 0.2869
O18_3 O 0.36721(15) 0.87601(16) 0.60106(15)
O19_3 O 0.45400(14) 0.85973(17) 0.61624(16)
O20_3 O 0.2734(4) 0.4410(3) 0.6578(4)
O21_2 O 0.52303(13) 0.07244(14) 0.92079(15)
O22_2 O 0.45256(12) 0.03977(12) 0.96619(13)
O24_3 O 0.44965(15) 0.03779(17) 0.59360(15)
O25_3 O 0.49517(18) 0.83464(15) 0.47116(19)
O26_3 O 0.48046(13) 0.89482(16) 0.36855(14)
N3_3 N 0.5325(6) 0.7678(4) 0.5199(4)
N4_3 N 0.4618(3) 0.9197(4) 0.2791(2)
C74_3 C 0.4050(2) 0.8488(2) 0.6209(2)
C75_3 C 0.3916(2) 0.7979(2) 0.6527(2)
C76_3 C 0.3406(2) 0.7786(2) 0.6488(3)
H77_3 H 0.3154 0.796 0.6267
C77_3 C 0.3269(2) 0.7312(2) 0.6791(3)
H78_3 H 0.2932 0.7162 0.6749
C78_3 C 0.4143(3) 0.7286(2) 0.7150(3)
H79_3 H 0.4403 0.7112 0.7363
C79_3 C 0.4273(3) 0.7738(3) 0.6851(2)
H80_3 H 0.4616 0.7877 0.6877
C80_3 C 0.3487(2) 0.6609(2) 0.7508(2)
C81_3 C 0.3261(2) 0.6167(2) 0.7249(2)
H81_3 H 0.3211 0.6171 0.6858
C82_3 C 0.3107(2) 0.5721(2) 0.7548(3)
C83_3 C 0.3197(2) 0.5720(2) 0.8143(2)
C84_3 C 0.3418(3) 0.6156(2) 0.8413(2)
H82_3 H 0.3477 0.6154 0.8803
C85_3 C 0.3555(3) 0.6614(2) 0.8075(2)
C86_3 C 0.3716(2) 0.70856(19) 0.8415(2)
C87_3 C 0.4131(3) 0.7074(2) 0.8801(2)
H83_3 H 0.4338 0.6767 0.8825
C88_3 C 0.4249(3) 0.7491(2) 0.9146(2)
H84_3 H 0.4529 0.7466 0.9403
C89_3 C 0.3943(2) 0.79624(19) 0.9113(2)
C90_3 C 0.3554(3) 0.7987(2) 0.8700(2)
H85_3 H 0.3361 0.8301 0.8653
C91_3 C 0.3446(3) 0.7558(2) 0.8358(2)
H86_3 H 0.3183 0.7588 0.808
C92_3 C 0.4043(3) 0.8414(2) 0.9520(2)
C93_3 C 0.2675(3) 0.5303(3) 0.6763(5)
H87_3 H 0.2534 0.5656 0.6687
H88_3 H 0.2968 0.5242 0.6501
C94_3 C 0.2671(3) 0.3923(2) 0.9290(4)
H89_3 H 0.2308 0.3962 0.9153
H90_3 H 0.2661 0.3883 0.97
C95_3 C 0.2699(3) 0.4843(2) 0.9234(3)
H91_3 H 0.2617 0.4876 0.9635
H92_3 H 0.2367 0.4837 0.9023
C96_3 C 0.3035(4) 0.5308(2) 0.9044(3)
H93_3 H 0.2887 0.5642 0.9178
H94_3 H 0.3397 0.5274 0.9182
C97_3 C 0.3013(2) 0.3046(2) 0.8121(2)
C98_3 C 0.2900(3) 0.3040(2) 0.7544(3)
C99_3 C 0.3084(3) 0.2607(2) 0.7199(3)
H95_3 H 0.3024 0.2606 0.6809
C100_3 C 0.3357(2) 0.2186(2) 0.7458(2)
C101_3 C 0.3462(2) 0.2204(2) 0.8025(3)
C102_3 C 0.3294(2) 0.2629(2) 0.8337(2)
H96_3 H 0.3377 0.2634 0.8722
C103_3 C 0.3781(2) 0.1794(2) 0.8318(2)
C104_3 C 0.4343(3) 0.1820(3) 0.8335(4)
H97_3 H 0.4515 0.2087 0.8131
C105_3 C 0.4646(2) 0.1466(3) 0.8641(3)
H98_3 H 0.5015 0.1495 0.8642
C106_3 C 0.4400(2) 0.10640(17) 0.89487(19)
C107_3 C 0.3861(2) 0.10393(17) 0.8950(2)
H99_3 H 0.3693 0.078 0.9168
C108_3 C 0.3551(2) 0.1392(2) 0.8634(3)
H100_3 H 0.3183 0.1355 0.8636
O27_2 O 0.45507(12) 0.93395(13) 0.53273(13)
O28_3 O 0.28734(19) 0.52886(18) 0.7325(2)
O29_3 O 0.2646(2) 0.34566(15) 0.72915(17)
O30_3 O 0.28506(18) 0.34760(15) 0.8429(2)
O31_3 O 0.29803(16) 0.43808(16) 0.9137(2)
O32_3 O 0.30173(17) 0.52769(13) 0.84096(17)
O33_2 O 0.43650(17) 0.83277(14) 0.99087(14)
O34_2 O 0.37752(15) 0.88312(14) 0.94437(15)
Zn4_2 Zn 0.46231(2) 0.90773(2) 0.45167(2)
Zn5 Zn 0.38092(2) 0.93994(2) 0.55520(2)
O35_2 O 0.42756(14) 0.97697(13) 0.42079(15)
O36_2 O 0.57244(14) 0.02303(13) 0.42079(15)
O37_2 O 0.46023(12) 0.04744(12) 0.46619(13)
O38 O 0.53977(12) 0.95256(12) 0.46619(13)
O44_2 O 0.66723(14) 0.06350(17) 0.49087(14)
O45_2 O 0.33277(14) 0.93650(17) 0.49087(14)
O46_2 O 0.61688(14) 0.12248(15) 0.44437(15)
O47_2 O 0.38312(14) 0.87752(15) 0.44437(15)
Zn8 Zn 0.40773(2) 0.96231(2) 0.95167(2)
Zn14_2 Zn 0.50000 1.00000 0.53344(3)
C2_4 C 0.0070(5) 0.2720(7) 0.1656(9)
H2_4 H 0.0119 0.2961 0.1975
C3_4 C 0.1031(4) 0.2588(6) 0.1473(6)
H3_4 H 0.1057 0.2667 0.107
H4_4 H 0.1001 0.292 0.168
C4_4 C 0.1520(5) 0.2280(6) 0.1669(5)
H5_4 H 0.184 0.2418 0.149
H6_4 H 0.1487 0.1905 0.1575
C5_4 C 0.1557(2) 0.2073(3) 0.4023(3)
H7_4 H 0.1563 0.1695 0.411
H8_4 H 0.188 0.2233 0.4169
C6_4 C 0.42970(17) 0.02629(17) 0.42980(18)
C7_4 C 0.3263(2) 0.1491(2) 0.2083(3)
C8_4 C 0.3314(3) 0.0943(2) 0.1897(3)
H9_4 H 0.3053 0.0695 0.1991
C9_4 C 0.3748(3) 0.0792(3) 0.1581(3)
H10_4 H 0.3786 0.0438 0.1474
C10_4 C 0.4124(2) 0.1153(2) 0.1423(2)
C11_4 C 0.4080(3) 0.1674(2) 0.1591(2)
H11_4 H 0.4341 0.1919 0.1486
C12_4 C 0.3654(2) 0.1839(2) 0.1916(3)
H12_4 H 0.363 0.2194 0.2024
C13_4 C 0.4597(2) 0.0970(2) 0.1071(2)
O3_4 O 0.0590(3) 0.2266(4) 0.1578(4)
O6_3 O 0.49363(16) 0.13318(14) 0.09408(15)
O7_3 O 0.46221(17) 0.05035(15) 0.09360(15)
C40_4 C 0.1077(2) 0.2329(3) 0.4290(4)
H39_4 H 0.1038 0.2692 0.4153
H40_4 H 0.1117 0.2339 0.47
C41_4 C 0.0157(2) 0.2301(3) 0.4234(3)
H41_4 H 0.0124 0.2383 0.4635
H42_4 H 0.0163 0.2633 0.4023
C43_4 C 0.1954(2) 0.1987(2) 0.3121(2)
C44_4 C 0.1960(2) 0.2100(3) 0.2544(3)
C45_4 C 0.2393(2) 0.1916(3) 0.2199(3)
H45_4 H 0.2394 0.1976 0.1809
C46_4 C 0.2814(2) 0.1643(2) 0.2458(2)
C47_4 C 0.2796(2) 0.1538(2) 0.3025(3)
C48_4 C 0.2371(2) 0.1706(2) 0.3337(2)
H46_4 H 0.2366 0.1623 0.3722
C49_4 C 0.3206(2) 0.1219(2) 0.3318(2)
C50_4 C 0.3180(3) 0.0657(3) 0.3335(4)
H47_4 H 0.2913 0.0485 0.3131
C51_4 C 0.3534(3) 0.0354(2) 0.3641(3)
C52_4 C 0.39360(17) 0.0600(2) 0.39487(19)
C53_4 C 0.39607(17) 0.1139(2) 0.3950(2)
H49_4 H 0.422 0.1307 0.4168
C54_4 C 0.3608(2) 0.1449(2) 0.3634(3)
H50_4 H 0.3645 0.1817 0.3636
O12_4 O 0.15434(15) 0.2354(2) 0.22915(17)
O13_4 O 0.15240(15) 0.21494(18) 0.3429(2)
O14_4 O 0.06192(16) 0.20197(16) 0.4137(2)
C68_4 C 0.3194(5) 0.0168(5) 0.0097(3)
H63_4 H 0.3443 0.0249 0.0376
C69_4 C 0.2463(15) 0.0614(12) 0.0727(12)
H64_4 H 0.2088 0.0675 0.0683
H65_4 H 0.2524 0.0399 0.1058
H66_4 H 0.2643 0.095 0.077
N3_4 N 0.2678(4) 0.0325(6) 0.0199(4)
C70_4 C 0.2376(7) 0.0430(14) 0.9736(10)
H67_4 H 0.2028 0.0541 0.9855
H68_4 H 0.254 0.0709 0.9518
H69_4 H 0.2348 0.0115 0.9507
C73_4 C 0.4171(11) 0.0145(6) 0.7635(5)
H74_4 H 0.4274 0.0181 0.7244
H75_4 H 0.3814 0.0273 0.7683
H76_4 H 0.4408 0.035 0.7869
H48_4 H 0.3505 0.9985 0.3642
C55_4 C 0.2086(2) 0.8627(2) 0.2137(2)
H51_4 H 0.0004 0.708 0.1312
O18_4 O 0.37601(16) 0.86721(15) 0.10106(15)
O19_4 O 0.35973(17) 0.95400(14) 0.11624(16)
C74_4 C 0.3488(2) 0.9050(2) 0.1209(2)
C75_4 C 0.2979(2) 0.8916(2) 0.1527(2)
C76_4 C 0.2786(2) 0.8406(2) 0.1488(3)
H77_4 H 0.296 0.8154 0.1267
C77_4 C 0.2312(2) 0.8269(2) 0.1791(3)
H78_4 H 0.2162 0.7932 0.1749
C78_4 C 0.2286(2) 0.9143(3) 0.2150(3)
H79_4 H 0.2112 0.9403 0.2363
C79_4 C 0.2738(3) 0.9273(3) 0.1851(2)
H80_4 H 0.2877 0.9616 0.1877
C80_4 C 0.1609(2) 0.8487(2) 0.2508(2)
C81_4 C 0.1167(2) 0.8261(2) 0.2249(2)
H81_4 H 0.1171 0.8211 0.1858
C82_4 C 0.0721(2) 0.8107(2) 0.2548(3)
C83_4 C 0.0720(2) 0.8197(2) 0.3143(2)
C84_4 C 0.1156(2) 0.8418(3) 0.3413(2)
H82_4 H 0.1154 0.8477 0.3803
C85_4 C 0.1614(2) 0.8555(3) 0.3075(2)
C86_4 C 0.20856(19) 0.8716(2) 0.3415(2)
C87_4 C 0.2074(2) 0.9131(3) 0.3801(2)
H83_4 H 0.1767 0.9338 0.3825
C88_4 C 0.2491(2) 0.9249(3) 0.4146(2)
H84_4 H 0.2466 0.9529 0.4403
C89_4 C 0.29624(19) 0.8943(2) 0.4113(2)
C90_4 C 0.2987(2) 0.8554(3) 0.3700(2)
H85_4 H 0.3301 0.8361 0.3653
C91_4 C 0.2558(2) 0.8446(3) 0.3358(2)
H86_4 H 0.2588 0.8183 0.308
C92_4 C 0.3414(2) 0.9043(3) 0.4520(2)
C93_4 C 0.0303(3) 0.7675(3) 0.1763(5)
H87_4 H 0.0656 0.7534 0.1687
H88_4 H 0.0242 0.7968 0.1501
C96_4 C 0.0308(2) 0.8035(4) 0.4044(3)
H93_4 H 0.0642 0.7887 0.4178
H94_4 H 0.0274 0.8397 0.4182
O27_3 O 0.43395(13) 0.95507(12) 0.03273(13)
O28_4 O 0.02886(18) 0.78734(19) 0.2325(2)
O32_4 O 0.02769(13) 0.80173(17) 0.34096(17)
O41_3 O 0.50637(16) 0.86682(14) 0.09408(15)
C71_4 C 0.4065(2) 0.9482(2) 0.8311(2)
H70_4 H 0.4059 0.9122 0.8402
C72_4 C 0.4256(7) 0.9210(4) 0.7356(4)
H71_4 H 0.4346 0.9375 0.7001
H72_4 H 0.4533 0.8967 0.7464
H73_4 H 0.3926 0.9019 0.7315
O25_4 O 0.33464(15) 0.99517(18) 0.97116(19)
O26_4 O 0.39482(16) 0.98046(13) 0.86855(14)
N4_4 N 0.4197(4) 0.9618(3) 0.7791(2)
C1_4 C 0.7914(2) 0.1373(2) 0.2137(2)
H1_4 H 0.9996 0.292 0.1312
O1_4 O 0.62399(16) 0.13279(15) 0.10106(15)
O2_4 O 0.64027(17) 0.04600(14) 0.11624(16)
C20_4 C 0.6512(2) 0.0950(2) 0.1209(2)
C21_4 C 0.7021(2) 0.1084(2) 0.1527(2)
C22_4 C 0.7214(2) 0.1594(2) 0.1488(3)
H27_4 H 0.704 0.1846 0.1267
C23_4 C 0.7688(2) 0.1731(2) 0.1791(3)
H28_4 H 0.7838 0.2068 0.1749
C24_4 C 0.7714(2) 0.0857(3) 0.2150(3)
H29_4 H 0.7888 0.0597 0.2363
C25_4 C 0.7262(3) 0.0727(3) 0.1851(2)
H30_4 H 0.7123 0.0384 0.1877
C26_4 C 0.8391(2) 0.1513(2) 0.2508(2)
C27_4 C 0.8833(2) 0.1739(2) 0.2249(2)
H31_4 H 0.8829 0.1789 0.1858
C28_4 C 0.9279(2) 0.1893(2) 0.2548(3)
C29_4 C 0.9280(2) 0.1803(2) 0.3143(2)
C30_4 C 0.8844(2) 0.1582(3) 0.3413(2)
H32_4 H 0.8846 0.1523 0.3803
C31_4 C 0.8386(2) 0.1445(3) 0.3075(2)
C32_4 C 0.79144(19) 0.1284(2) 0.3415(2)
C33_4 C 0.7926(2) 0.0869(3) 0.3801(2)
H33_4 H 0.8233 0.0662 0.3825
C34_4 C 0.7509(2) 0.0751(3) 0.4146(2)
H34_4 H 0.7534 0.0471 0.4403
C35_4 C 0.70376(19) 0.1057(2) 0.4113(2)
C36_4 C 0.7013(2) 0.1446(3) 0.3700(2)
H35_4 H 0.6699 0.1639 0.3653
C37_4 C 0.7442(2) 0.1554(3) 0.3358(2)
H36_4 H 0.7412 0.1817 0.308
C38_4 C 0.6586(2) 0.0957(3) 0.4520(2)
C39_4 C 0.9697(3) 0.2325(3) 0.1763(5)
H37_4 H 0.9344 0.2466 0.1687
H38_4 H 0.9758 0.2032 0.1501
C42_4 C 0.9692(2) 0.1965(4) 0.4044(3)
H43_4 H 0.9358 0.2113 0.4178
H44_4 H 0.9726 0.1603 0.4182
O10_4 O 0.56605(13) 0.04493(12) 0.03273(13)
O11_4 O 0.97114(18) 0.21266(19) 0.2325(2)
O15_4 O 0.97231(13) 0.19827(17) 0.34096(17)
H98_4 H 0.6495 0.0015 0.3642
C17_4 C 0.5935(2) 0.0518(2) 0.8311(2)
H20_4 H 0.5941 0.0878 0.8402
C18_4 C 0.5744(7) 0.0790(4) 0.7356(4)
H21_4 H 0.5654 0.0625 0.7001
H22_4 H 0.5467 0.1033 0.7464
H23_4 H 0.6074 0.0981 0.7315
O8_4 O 0.66536(15) 0.00483(18) 0.97116(19)
O9_4 O 0.60518(16) 0.01954(13) 0.86855(14)
N2_4 N 0.5803(4) 0.0382(3) 0.7791(2)
C14_4 C 0.6806(5) 0.9832(5) 0.0097(3)
H13_4 H 0.6557 0.9751 0.0376
C15_4 C 0.7537(15) 0.9386(12) 0.0727(12)
H14_4 H 0.7912 0.9325 0.0683
H15_4 H 0.7476 0.9601 0.1058
H16_4 H 0.7357 0.905 0.077
N1_4 N 0.7322(4) 0.9675(6) 0.0199(4)
C56_4 C 0.9930(5) 0.7280(7) 0.1656(9)
H52_4 H 0.9881 0.7039 0.1975
C57_4 C 0.8969(4) 0.7412(6) 0.1473(6)
H53_4 H 0.8943 0.7333 0.107
H54_4 H 0.8999 0.708 0.168
C58_4 C 0.8480(5) 0.7720(6) 0.1669(5)
H55_4 H 0.816 0.7582 0.149
H56_4 H 0.8513 0.8095 0.1575
C59_4 C 0.8443(2) 0.7927(3) 0.4023(3)
H57_4 H 0.8437 0.8305 0.411
H58_4 H 0.812 0.7767 0.4169
C60_4 C 0.57030(17) 0.97371(17) 0.42980(18)
C61_4 C 0.6737(2) 0.8509(2) 0.2083(3)
C62_4 C 0.6686(3) 0.9057(2) 0.1897(3)
H59_4 H 0.6947 0.9305 0.1991
C63_4 C 0.6252(3) 0.9208(3) 0.1581(3)
H60_4 H 0.6214 0.9562 0.1474
C64_4 C 0.5876(2) 0.8847(2) 0.1423(2)
C65_4 C 0.5920(3) 0.8326(2) 0.1591(2)
H61_4 H 0.5659 0.8081 0.1486
C66_4 C 0.6346(2) 0.8161(2) 0.1916(3)
H62_4 H 0.637 0.7806 0.2024
C67_4 C 0.5403(2) 0.9030(2) 0.1071(2)
O20_4 O 0.9410(3) 0.7734(4) 0.1578(4)
O24_4 O 0.53779(17) 0.94965(15) 0.09360(15)
C94_4 C 0.8923(2) 0.7671(3) 0.4290(4)
H89_4 H 0.8962 0.7308 0.4153
H90_4 H 0.8883 0.7661 0.47
C95_4 C 0.9843(2) 0.7699(3) 0.4234(3)
H91_4 H 0.9876 0.7617 0.4635
H92_4 H 0.9837 0.7367 0.4023
C97_4 C 0.8046(2) 0.8013(2) 0.3121(2)
C98_4 C 0.8040(2) 0.7900(3) 0.2544(3)
C99_4 C 0.7607(2) 0.8084(3) 0.2199(3)
H95_4 H 0.7606 0.8024 0.1809
C100_4 C 0.7186(2) 0.8357(2) 0.2458(2)
C101_4 C 0.7204(2) 0.8462(2) 0.3025(3)
C102_4 C 0.7629(2) 0.8294(2) 0.3337(2)
H96_4 H 0.7634 0.8377 0.3722
C103_4 C 0.6794(2) 0.8781(2) 0.3318(2)
C104_4 C 0.6820(3) 0.9343(3) 0.3335(4)
H97_4 H 0.7087 0.9515 0.3131
C105_4 C 0.6466(3) 0.9646(2) 0.3641(3)
C106_4 C 0.60640(17) 0.9400(2) 0.39487(19)
C107_4 C 0.60393(17) 0.8861(2) 0.3950(2)
H99_4 H 0.578 0.8693 0.4168
C108_4 C 0.6392(2) 0.8551(2) 0.3634(3)
H100_4 H 0.6355 0.8183 0.3636
O29_4 O 0.84566(15) 0.7646(2) 0.22915(17)
O30_4 O 0.84760(15) 0.78506(18) 0.3429(2)
O31_4 O 0.93808(16) 0.79803(16) 0.4137(2)
C16_4 C 0.7624(7) 0.9570(14) 0.9736(10)
H17_4 H 0.7972 0.9459 0.9855
H18_4 H 0.746 0.9291 0.9518
H19_4 H 0.7652 0.9885 0.9507
C19_4 C 0.5829(11) 0.9855(6) 0.7635(5)
H24_4 H 0.5726 0.9819 0.7244
H25_4 H 0.6186 0.9727 0.7683
H26_4 H 0.5592 0.965 0.7869
loop_
_geom_bond_atom_site_label_1
_geom_bond_atom_site_label_2
_geom_bond_site_symmetry_1
_geom_bond_site_symmetry_2
C17 H20 1_555 1_555
C18 H21 1_555 1_555
H22 C18 1_555 1_555
H23 C18 1_555 1_555
O9 C17 1_555 1_555
N2 C17 1_555 1_555
Zn1 O8 1_555 1_555
O36 Zn1 1_555 1_555
O46 Zn1 1_555 1_555
C18 N2 1_555 1_555
O9 Zn1 1_555 1_555
C1 C23 1_555 1_555
O1 C20 1_555 1_555
O2 C20 1_555 1_555
C20 C21 1_555 1_555
C21 C22 1_555 1_555
C22 H27 1_555 1_555
C23 C22 1_555 1_555
H28 C23 1_555 1_555
C24 C1 1_555 1_555
H29 C24 1_555 1_555
C25 C21 1_555 1_555
H30 C25 1_555 1_555
C26 C1 1_555 1_555
C27 C26 1_555 1_555
H31 C27 1_555 1_555
C28 C27 1_555 1_555
C29 C28 1_555 1_555
C30 C29 1_555 1_555
H32 C30 1_555 1_555
C31 C26 1_555 1_555
C32 C31 1_555 1_555
C33 C32 1_555 1_555
H33 C33 1_555 1_555
C34 C33 1_555 1_555
H34 C34 1_555 1_555
C35 C34 1_555 1_555
C36 C35 1_555 1_555
H35 C36 1_555 1_555
C37 C32 1_555 1_555
H36 C37 1_555 1_555
C38 C35 1_555 1_555
H37 C39 1_555 1_555
H38 C39 1_555 1_555
H43 C42 1_555 1_555
H44 C42 1_555 1_555
O11 C28 1_555 1_555
O15 C29 1_555 1_555
O16 C38 1_555 1_555
O17 C38 1_555 1_555
Zn2 O1 1_555 1_555
Zn3 O10 1_555 1_555
O21 Zn7 1_555 1_555
O40 Zn2 1_555 1_555
O42 Zn3 1_555 1_555
Zn7 O17 1_555 1_555
Zn12 O16 1_555 1_555
C24 C25 1_555 1_555
C30 C31 1_555 1_555
C36 C37 1_555 1_555
C39 O11 1_555 1_555
C42 O15 1_555 1_555
O10 Zn2 1_555 1_555
C70 H67 1_555 1_555
H68 C70 1_555 1_555
H69 C70 1_555 1_555
C73 H74 1_555 1_555
H75 C73 1_555 1_555
H76 C73 1_555 1_555
H2 C2 1_555 1_555
C3 H3 1_555 1_555
H4 C3 1_555 1_555
C4 C3 1_555 1_555
H5 C4 1_555 1_555
H6 C4 1_555 1_555
C5 H7 1_555 1_555
H8 C5 1_555 1_555
C7 C8 1_555 1_555
C8 H9 1_555 1_555
C9 C8 1_555 1_555
H10 C9 1_555 1_555
C10 C9 1_555 1_555
C11 C10 1_555 1_555
H11 C11 1_555 1_555
C12 C7 1_555 1_555
H12 C12 1_555 1_555
C13 C10 1_555 1_555
O3 C2 1_555 1_555
O5 C6 1_555 1_555
O40 C13 1_555 1_555
O42 C13 1_555 1_555
C40 C5 1_555 1_555
H39 C40 1_555 1_555
H40 C40 1_555 1_555
C41 H41 1_555 1_555
H42 C41 1_555 1_555
C43 C44 1_555 1_555
C44 C45 1_555 1_555
C45 H45 1_555 1_555
C46 C7 1_555 1_555
C47 C46 1_555 1_555
C48 C43 1_555 1_555
H46 C48 1_555 1_555
C49 C47 1_555 1_555
C50 C49 1_555 1_555
H47 C50 1_555 1_555
C51 C50 1_555 1_555
C52 C6 1_555 1_555
C53 C52 1_555 1_555
H49 C53 1_555 1_555
C54 C49 1_555 1_555
H50 C54 1_555 1_555
O12 C4 1_555 1_555
O13 C5 1_555 1_555
O14 C40 1_555 1_555
C68 H63 1_555 1_555
C69 H64 1_555 1_555
H65 C69 1_555 1_555
H66 C69 1_555 1_555
N3 C68 1_555 1_555
Zn7 O5 1_555 1_555
Zn16 O5 1_555 1_555
C3 O3 1_555 1_555
C11 C12 1_555 1_555
C41 O14 1_555 1_555
C43 O13 1_555 1_555
C44 O12 1_555 1_555
C45 C46 1_555 1_555
C47 C48 1_555 1_555
C51 C52 1_555 1_555
C53 C54 1_555 1_555
C69 N3 1_555 1_555
C16 H17 1_555 1_555
H18 C16 1_555 1_555
H19 C16 1_555 1_555
C19 H24 1_555 1_555
H25 C19 1_555 1_555
H26 C19 1_555 1_555
C14 H13 1_555 1_555
C15 H14 1_555 1_555
H15 C15 1_555 1_555
H16 C15 1_555 1_555
N1 C14 1_555 1_555
H52 C56 1_555 1_555
C57 H53 1_555 1_555
H54 C57 1_555 1_555
C58 C57 1_555 1_555
H55 C58 1_555 1_555
H56 C58 1_555 1_555
C59 H57 1_555 1_555
H58 C59 1_555 1_555
C61 C62 1_555 1_555
C62 H59 1_555 1_555
C63 C62 1_555 1_555
H60 C63 1_555 1_555
C64 C63 1_555 1_555
C65 C64 1_555 1_555
H61 C65 1_555 1_555
C66 C61 1_555 1_555
H62 C66 1_555 1_555
C67 C64 1_555 1_555
O20 C56 1_555 1_555
O22 C60 1_555 1_555
O23 C67 1_555 1_555
O24 Zn3_2 1_555 1_555
C94 C59 1_555 1_555
H89 C94 1_555 1_555
H90 C94 1_555 1_555
C95 H91 1_555 1_555
H92 C95 1_555 1_555
C97 C98 1_555 1_555
C98 C99 1_555 1_555
C99 H95 1_555 1_555
C100 C61 1_555 1_555
C101 C100 1_555 1_555
C102 C97 1_555 1_555
H96 C102 1_555 1_555
C103 C101 1_555 1_555
C104 C103 1_555 1_555
H97 C104 1_555 1_555
C105 C104 1_555 1_555
C106 C60 1_555 1_555
C107 C106 1_555 1_555
H99 C107 1_555 1_555
C108 C103 1_555 1_555
H100 C108 1_555 1_555
O29 C58 1_555 1_555
O30 C59 1_555 1_555
O31 C94 1_555 1_555
O43 Zn3_2 1_555 1_555
Zn9 O22 1_555 1_555
Zn11 O23 1_555 1_555
Zn16_2 O22 1_555 1_555
C15 N1 1_555 1_555
C57 O20 1_555 1_555
C65 C66 1_555 1_555
C67 O24 1_555 1_555
C95 O31 1_555 1_555
C97 O30 1_555 1_555
C98 O29 1_555 1_555
C99 C100 1_555 1_555
C101 C102 1_555 1_555
C105 C106 1_555 1_555
C107 C108 1_555 1_555
O43 Zn11 1_555 1_555
C71 H70 1_555 1_555
C72 H71 1_555 1_555
H72 C72 1_555 1_555
H73 C72 1_555 1_555
O26 C71 1_555 1_555
N4 C71 1_555 1_555
Zn4 O25 1_555 1_555
O35 Zn4 1_555 1_555
O47 Zn4 1_555 1_555
C72 N4 1_555 1_555
O26 Zn4 1_555 1_555
O4 Zn9 1_555 1_555
C55 C77 1_555 1_555
O18 C74 1_555 1_555
O19 C74 1_555 1_555
C74 C75 1_555 1_555
C75 C76 1_555 1_555
C76 H77 1_555 1_555
C77 C76 1_555 1_555
H78 C77 1_555 1_555
C78 C55 1_555 1_555
H79 C78 1_555 1_555
C79 C75 1_555 1_555
H80 C79 1_555 1_555
C80 C55 1_555 1_555
C81 C80 1_555 1_555
H81 C81 1_555 1_555
C82 C81 1_555 1_555
C83 C82 1_555 1_555
C84 C83 1_555 1_555
H82 C84 1_555 1_555
C85 C80 1_555 1_555
C86 C85 1_555 1_555
C87 C86 1_555 1_555
H83 C87 1_555 1_555
C88 C87 1_555 1_555
H84 C88 1_555 1_555
C89 C88 1_555 1_555
C90 C89 1_555 1_555
H85 C90 1_555 1_555
C91 C86 1_555 1_555
H86 C91 1_555 1_555
C92 C89 1_555 1_555
H87 C93 1_555 1_555
H88 C93 1_555 1_555
H93 C96 1_555 1_555
H94 C96 1_555 1_555
O28 C82 1_555 1_555
O32 C83 1_555 1_555
O33 C92 1_555 1_555
O34 C92 1_555 1_555
Zn11 O18 1_555 1_555
Zn9 O34 1_555 1_555
Zn13 O33 1_555 1_555
C78 C79 1_555 1_555
C84 C85 1_555 1_555
C90 C91 1_555 1_555
C93 O28 1_555 1_555
C96 O32 1_555 1_555
C1_2 C23_2 1_555 1_555
C2_2 H1_2 1_555 1_555
H2_2 C2_2 1_555 1_555
C3_2 H3_2 1_555 1_555
H4_2 C3_2 1_555 1_555
C4_2 C3_2 1_555 1_555
H5_2 C4_2 1_555 1_555
H6_2 C4_2 1_555 1_555
C5_2 H7_2 1_555 1_555
H8_2 C5_2 1_555 1_555
C6_2 O35 1_555 1_555
C7_2 C8_2 1_555 1_555
C8_2 H9_2 1_555 1_555
C9_2 C8_2 1_555 1_555
H10_2 C9_2 1_555 1_555
C10_2 C9_2 1_555 1_555
C11_2 C10_2 1_555 1_555
H11_2 C11_2 1_555 1_555
C12_2 C7_2 1_555 1_555
H12_2 C12_2 1_555 1_555
C13_2 C10_2 1_555 1_555
C14_2 H13_2 1_555 1_555
C15_2 H14_2 1_555 1_555
H15_2 C15_2 1_555 1_555
H16_2 C15_2 1_555 1_555
C16_2 H17_2 1_555 1_555
H18_2 C16_2 1_555 1_555
H19_2 C16_2 1_555 1_555
C17_2 H20_2 1_555 1_555
C18_2 H21_2 1_555 1_555
H22_2 C18_2 1_555 1_555
H23_2 C18_2 1_555 1_555
C19_2 H24_2 1_555 1_555
H25_2 C19_2 1_555 1_555
H26_2 C19_2 1_555 1_555
O1_2 C20_2 1_555 1_555
O2_2 C20_2 1_555 1_555
O3_2 C2_2 1_555 1_555
O37 C6_2 1_555 1_555
O6 C13_2 1_555 1_555
O7 C13_2 1_555 1_555
O8_2 C14_2 1_555 1_555
O9_2 C17_2 1_555 1_555
N1_2 C14_2 1_555 1_555
N2_2 C17_2 1_555 1_555
C20_2 C21_2 1_555 1_555
C21_2 C22_2 1_555 1_555
C22_2 H27_2 1_555 1_555
C23_2 C22_2 1_555 1_555
H28_2 C23_2 1_555 1_555
C24_2 C1_2 1_555 1_555
H29_2 C24_2 1_555 1_555
C25_2 C21_2 1_555 1_555
H30_2 C25_2 1_555 1_555
C26_2 C1_2 1_555 1_555
C27_2 C26_2 1_555 1_555
H31_2 C27_2 1_555 1_555
C28_2 C27_2 1_555 1_555
C29_2 C28_2 1_555 1_555
C30_2 C29_2 1_555 1_555
H32_2 C30_2 1_555 1_555
C31_2 C26_2 1_555 1_555
C32_2 C31_2 1_555 1_555
C33_2 C32_2 1_555 1_555
H33_2 C33_2 1_555 1_555
C34_2 C33_2 1_555 1_555
H34_2 C34_2 1_555 1_555
C35_2 C34_2 1_555 1_555
C36_2 C35_2 1_555 1_555
H35_2 C36_2 1_555 1_555
C37_2 C32_2 1_555 1_555
H36_2 C37_2 1_555 1_555
C38_2 C35_2 1_555 1_555
C39_2 C2_2 1_555 1_555
H37_2 C39_2 1_555 1_555
H38_2 C39_2 1_555 1_555
C40_2 C5_2 1_555 1_555
H39_2 C40_2 1_555 1_555
H40_2 C40_2 1_555 1_555
C41_2 H41_2 1_555 1_555
H42_2 C41_2 1_555 1_555
C42_2 C41_2 1_555 1_555
H43_2 C42_2 1_555 1_555
H44_2 C42_2 1_555 1_555
C43_2 C44_2 1_555 1_555
C44_2 C45_2 1_555 1_555
C45_2 H45_2 1_555 1_555
C46_2 C7_2 1_555 1_555
C47_2 C46_2 1_555 1_555
C48_2 C43_2 1_555 1_555
H46_2 C48_2 1_555 1_555
C49_2 C47_2 1_555 1_555
C50_2 C49_2 1_555 1_555
H47_2 C50_2 1_555 1_555
C51_2 C50_2 1_555 1_555
H48_2 C51_2 1_555 1_555
C52_2 C6_2 1_555 1_555
C53_2 C52_2 1_555 1_555
H49_2 C53_2 1_555 1_555
C54_2 C49_2 1_555 1_555
H50_2 C54_2 1_555 1_555
O10_2 Zn7 1_555 1_555
O11_2 C28_2 1_555 1_555
O12_2 C4_2 1_555 1_555
O13_2 C5_2 1_555 1_555
O14_2 C40_2 1_555 1_555
O15_2 C29_2 1_555 1_555
O44 C38_2 1_555 1_555
O46 C38_2 1_555 1_555
Zn7 O8_2 1_555 1_555
Zn12 O1_2 1_555 1_555
Zn16 O10_2 1_555 1_555
C55_2 C77_2 1_555 1_555
C56_2 H51_2 1_555 1_555
H52_2 C56_2 1_555 1_555
C57_2 H53_2 1_555 1_555
H54_2 C57_2 1_555 1_555
C58_2 C57_2 1_555 1_555
H55_2 C58_2 1_555 1_555
H56_2 C58_2 1_555 1_555
C59_2 H57_2 1_555 1_555
H58_2 C59_2 1_555 1_555
C60_2 O36 1_555 1_555
C61_2 C62_2 1_555 1_555
C62_2 H59_2 1_555 1_555
C63_2 C62_2 1_555 1_555
H60_2 C63_2 1_555 1_555
C64_2 C63_2 1_555 1_555
C65_2 C64_2 1_555 1_555
H61_2 C65_2 1_555 1_555
C66_2 C61_2 1_555 1_555
H62_2 C66_2 1_555 1_555
C67_2 C64_2 1_555 1_555
C68_2 H63_2 1_555 1_555
C69_2 H64_2 1_555 1_555
H65_2 C69_2 1_555 1_555
H66_2 C69_2 1_555 1_555
C70_2 H67_2 1_555 1_555
H68_2 C70_2 1_555 1_555
H69_2 C70_2 1_555 1_555
C71_2 H70_2 1_555 1_555
C72_2 H71_2 1_555 1_555
H72_2 C72_2 1_555 1_555
H73_2 C72_2 1_555 1_555
C73_2 H74_2 1_555 1_555
H75_2 C73_2 1_555 1_555
H76_2 C73_2 1_555 1_555
O18_2 C74_2 1_555 1_555
O19_2 C74_2 1_555 1_555
O20_2 C56_2 1_555 1_555
O39 C60_2 1_555 1_555
O41 C67_2 1_555 1_555
O24_2 Zn16 1_555 1_555
O25_2 C68_2 1_555 1_555
O26_2 C71_2 1_555 1_555
N3_2 C68_2 1_555 1_555
N4_2 C71_2 1_555 1_555
C74_2 C75_2 1_555 1_555
C75_2 C76_2 1_555 1_555
C76_2 H77_2 1_555 1_555
C77_2 C76_2 1_555 1_555
H78_2 C77_2 1_555 1_555
C78_2 C55_2 1_555 1_555
H79_2 C78_2 1_555 1_555
C79_2 C75_2 1_555 1_555
H80_2 C79_2 1_555 1_555
C80_2 C55_2 1_555 1_555
C81_2 C80_2 1_555 1_555
H81_2 C81_2 1_555 1_555
C82_2 C81_2 1_555 1_555
C83_2 C82_2 1_555 1_555
C84_2 C83_2 1_555 1_555
H82_2 C84_2 1_555 1_555
C85_2 C80_2 1_555 1_555
C86_2 C85_2 1_555 1_555
C87_2 C86_2 1_555 1_555
H83_2 C87_2 1_555 1_555
C88_2 C87_2 1_555 1_555
H84_2 C88_2 1_555 1_555
C89_2 C88_2 1_555 1_555
C90_2 C89_2 1_555 1_555
H85_2 C90_2 1_555 1_555
C91_2 C86_2 1_555 1_555
H86_2 C91_2 1_555 1_555
C92_2 C89_2 1_555 1_555
C93_2 C56_2 1_555 1_555
H87_2 C93_2 1_555 1_555
H88_2 C93_2 1_555 1_555
C94_2 C59_2 1_555 1_555
H89_2 C94_2 1_555 1_555
H90_2 C94_2 1_555 1_555
C95_2 H91_2 1_555 1_555
H92_2 C95_2 1_555 1_555
C96_2 C95_2 1_555 1_555
H93_2 C96_2 1_555 1_555
H94_2 C96_2 1_555 1_555
C97_2 C98_2 1_555 1_555
C98_2 C99_2 1_555 1_555
C99_2 H95_2 1_555 1_555
C100_2 C61_2 1_555 1_555
C101_2 C100_2 1_555 1_555
C102_2 C97_2 1_555 1_555
H96_2 C102_2 1_555 1_555
C103_2 C101_2 1_555 1_555
C104_2 C103_2 1_555 1_555
H97_2 C104_2 1_555 1_555
C105_2 C104_2 1_555 1_555
H98_2 C105_2 1_555 1_555
C106_2 C60_2 1_555 1_555
C107_2 C106_2 1_555 1_555
H99_2 C107_2 1_555 1_555
C108_2 C103_2 1_555 1_555
H100_2 C108_2 1_555 1_555
O27 Zn9 1_555 1_555
O28_2 C82_2 1_555 1_555
O29_2 C58_2 1_555 1_555
O30_2 C59_2 1_555 1_555
O31_2 C94_2 1_555 1_555
O32_2 C83_2 1_555 1_555
O45 C92_2 1_555 1_555
O47 C92_2 1_555 1_555
Zn9 O25_2 1_555 1_555
Zn13 O18_2 1_555 1_555
Zn16_2 O7 1_555 1_555
C3_2 O3_2 1_555 1_555
C11_2 C12_2 1_555 1_555
C15_2 N1_2 1_555 1_555
C16_2 N1_2 1_555 1_555
C18_2 N2_2 1_555 1_555
C19_2 N2_2 1_555 1_555
O9_2 Zn7 1_555 1_555
C24_2 C25_2 1_555 1_555
C30_2 C31_2 1_555 1_555
C36_2 C37_2 1_555 1_555
C39_2 O11_2 1_555 1_555
C41_2 O14_2 1_555 1_555
C42_2 O15_2 1_555 1_555
C43_2 O13_2 1_555 1_555
C44_2 O12_2 1_555 1_555
C45_2 C46_2 1_555 1_555
C47_2 C48_2 1_555 1_555
C51_2 C52_2 1_555 1_555
C53_2 C54_2 1_555 1_555
O10_2 Zn12 1_555 1_555
C57_2 O20_2 1_555 1_555
C65_2 C66_2 1_555 1_555
C67_2 O24_2 1_555 1_555
C69_2 N3_2 1_555 1_555
C70_2 N3_2 1_555 1_555
C72_2 N4_2 1_555 1_555
C73_2 N4_2 1_555 1_555
O26_2 Zn9 1_555 1_555
C78_2 C79_2 1_555 1_555
C84_2 C85_2 1_555 1_555
C90_2 C91_2 1_555 1_555
C93_2 O28_2 1_555 1_555
C95_2 O31_2 1_555 1_555
C96_2 O32_2 1_555 1_555
C97_2 O30_2 1_555 1_555
C98_2 O29_2 1_555 1_555
C99_2 C100_2 1_555 1_555
C101_2 C102_2 1_555 1_555
C105_2 C106_2 1_555 1_555
C107_2 C108_2 1_555 1_555
O27 Zn13 1_555 1_555
O27 Zn16_2 1_555 1_555
C1_3 C23_3 1_555 1_555
C2_3 H1_3 1_555 1_555
H2_3 C2_3 1_555 1_555
C3_3 H3_3 1_555 1_555
H4_3 C3_3 1_555 1_555
C4_3 C3_3 1_555 1_555
H5_3 C4_3 1_555 1_555
H6_3 C4_3 1_555 1_555
C5_3 H7_3 1_555 1_555
H8_3 C5_3 1_555 1_555
C6_3 O4_2 1_555 1_555
C7_3 C8_3 1_555 1_555
C8_3 H9_3 1_555 1_555
C9_3 C8_3 1_555 1_555
H10_3 C9_3 1_555 1_555
C10_3 C9_3 1_555 1_555
C11_3 C10_3 1_555 1_555
H11_3 C11_3 1_555 1_555
C12_3 C7_3 1_555 1_555
H12_3 C12_3 1_555 1_555
C13_3 C10_3 1_555 1_555
C14_3 H13_3 1_555 1_555
C15_3 H14_3 1_555 1_555
H15_3 C15_3 1_555 1_555
H16_3 C15_3 1_555 1_555
C16_3 H17_3 1_555 1_555
H18_3 C16_3 1_555 1_555
H19_3 C16_3 1_555 1_555
C17_3 H20_3 1_555 1_555
C18_3 H21_3 1_555 1_555
H22_3 C18_3 1_555 1_555
H23_3 C18_3 1_555 1_555
C19_3 H24_3 1_555 1_555
H25_3 C19_3 1_555 1_555
H26_3 C19_3 1_555 1_555
O1_3 C20_3 1_555 1_555
O2_3 C20_3 1_555 1_555
O3_3 C2_3 1_555 1_555
O4_2 Zn8 1_555 1_555
O5_2 C6_3 1_555 1_555
O6_2 C13_3 1_555 1_555
O7_2 C13_3 1_555 1_555
O8_3 C14_3 1_555 1_555
O9_3 C17_3 1_555 1_555
N1_3 C14_3 1_555 1_555
N2_3 C17_3 1_555 1_555
C20_3 C21_3 1_555 1_555
C21_3 C22_3 1_555 1_555
C22_3 H27_3 1_555 1_555
C23_3 C22_3 1_555 1_555
H28_3 C23_3 1_555 1_555
C24_3 C1_3 1_555 1_555
H29_3 C24_3 1_555 1_555
C25_3 C21_3 1_555 1_555
H30_3 C25_3 1_555 1_555
C26_3 C1_3 1_555 1_555
C27_3 C26_3 1_555 1_555
H31_3 C27_3 1_555 1_555
C28_3 C27_3 1_555 1_555
C29_3 C28_3 1_555 1_555
C30_3 C29_3 1_555 1_555
H32_3 C30_3 1_555 1_555
C31_3 C26_3 1_555 1_555
C32_3 C31_3 1_555 1_555
C33_3 C32_3 1_555 1_555
H33_3 C33_3 1_555 1_555
C34_3 C33_3 1_555 1_555
H34_3 C34_3 1_555 1_555
C35_3 C34_3 1_555 1_555
C36_3 C35_3 1_555 1_555
H35_3 C36_3 1_555 1_555
C37_3 C32_3 1_555 1_555
H36_3 C37_3 1_555 1_555
C38_3 C35_3 1_555 1_555
C39_3 C2_3 1_555 1_555
H37_3 C39_3 1_555 1_555
H38_3 C39_3 1_555 1_555
C40_3 C5_3 1_555 1_555
H39_3 C40_3 1_555 1_555
H40_3 C40_3 1_555 1_555
C41_3 H41_3 1_555 1_555
H42_3 C41_3 1_555 1_555
C42_3 C41_3 1_555 1_555
H43_3 C42_3 1_555 1_555
H44_3 C42_3 1_555 1_555
C43_3 C44_3 1_555 1_555
C44_3 C45_3 1_555 1_555
C45_3 H45_3 1_555 1_555
C46_3 C7_3 1_555 1_555
C47_3 C46_3 1_555 1_555
C48_3 C43_3 1_555 1_555
H46_3 C48_3 1_555 1_555
C49_3 C47_3 1_555 1_555
C50_3 C49_3 1_555 1_555
H47_3 C50_3 1_555 1_555
C51_3 C50_3 1_555 1_555
H48_3 C51_3 1_555 1_555
C52_3 C6_3 1_555 1_555
C53_3 C52_3 1_555 1_555
H49_3 C53_3 1_555 1_555
C54_3 C49_3 1_555 1_555
H50_3 C54_3 1_555 1_555
O10_3 Zn1_2 1_555 1_555
O11_3 C28_3 1_555 1_555
O12_3 C4_3 1_555 1_555
O13_3 C5_3 1_555 1_555
O14_3 C40_3 1_555 1_555
O15_3 C29_3 1_555 1_555
O16_2 C38_3 1_555 1_555
O17_2 C38_3 1_555 1_555
Zn1_2 O8_3 1_555 1_555
Zn10 O1_3 1_555 1_555
Zn14 O10_3 1_555 1_555
C55_3 C77_3 1_555 1_555
C56_3 H51_3 1_555 1_555
H52_3 C56_3 1_555 1_555
C57_3 H53_3 1_555 1_555
H54_3 C57_3 1_555 1_555
C58_3 C57_3 1_555 1_555
H55_3 C58_3 1_555 1_555
H56_3 C58_3 1_555 1_555
C59_3 H57_3 1_555 1_555
H58_3 C59_3 1_555 1_555
C60_3 O21_2 1_555 1_555
C61_3 C62_3 1_555 1_555
C62_3 H59_3 1_555 1_555
C63_3 C62_3 1_555 1_555
H60_3 C63_3 1_555 1_555
C64_3 C63_3 1_555 1_555
C65_3 C64_3 1_555 1_555
H61_3 C65_3 1_555 1_555
C66_3 C61_3 1_555 1_555
H62_3 C66_3 1_555 1_555
C67_3 C64_3 1_555 1_555
C68_3 H63_3 1_555 1_555
C69_3 H64_3 1_555 1_555
H65_3 C69_3 1_555 1_555
H66_3 C69_3 1_555 1_555
C70_3 H67_3 1_555 1_555
H68_3 C70_3 1_555 1_555
H69_3 C70_3 1_555 1_555
C71_3 H70_3 1_555 1_555
C72_3 H71_3 1_555 1_555
H72_3 C72_3 1_555 1_555
H73_3 C72_3 1_555 1_555
C73_3 H74_3 1_555 1_555
H75_3 C73_3 1_555 1_555
H76_3 C73_3 1_555 1_555
O18_3 C74_3 1_555 1_555
O19_3 C74_3 1_555 1_555
O20_3 C56_3 1_555 1_555
O21_2 Zn6 1_555 1_555
O22_2 C60_3 1_555 1_555
O41_2 C67_3 1_555 1_555
O24_3 Zn14 1_555 1_555
O25_3 C68_3 1_555 1_555
O26_3 C71_3 1_555 1_555
N3_3 C68_3 1_555 1_555
N4_3 C71_3 1_555 1_555
C74_3 C75_3 1_555 1_555
C75_3 C76_3 1_555 1_555
C76_3 H77_3 1_555 1_555
C77_3 C76_3 1_555 1_555
H78_3 C77_3 1_555 1_555
C78_3 C55_3 1_555 1_555
H79_3 C78_3 1_555 1_555
C79_3 C75_3 1_555 1_555
H80_3 C79_3 1_555 1_555
C80_3 C55_3 1_555 1_555
C81_3 C80_3 1_555 1_555
H81_3 C81_3 1_555 1_555
C82_3 C81_3 1_555 1_555
C83_3 C82_3 1_555 1_555
C84_3 C83_3 1_555 1_555
H82_3 C84_3 1_555 1_555
C85_3 C80_3 1_555 1_555
C86_3 C85_3 1_555 1_555
C87_3 C86_3 1_555 1_555
H83_3 C87_3 1_555 1_555
C88_3 C87_3 1_555 1_555
H84_3 C88_3 1_555 1_555
C89_3 C88_3 1_555 1_555
C90_3 C89_3 1_555 1_555
H85_3 C90_3 1_555 1_555
C91_3 C86_3 1_555 1_555
H86_3 C91_3 1_555 1_555
C92_3 C89_3 1_555 1_555
C93_3 C56_3 1_555 1_555
H87_3 C93_3 1_555 1_555
H88_3 C93_3 1_555 1_555
C94_3 C59_3 1_555 1_555
H89_3 C94_3 1_555 1_555
H90_3 C94_3 1_555 1_555
C95_3 H91_3 1_555 1_555
H92_3 C95_3 1_555 1_555
C96_3 C95_3 1_555 1_555
H93_3 C96_3 1_555 1_555
H94_3 C96_3 1_555 1_555
C97_3 C98_3 1_555 1_555
C98_3 C99_3 1_555 1_555
C99_3 H95_3 1_555 1_555
C100_3 C61_3 1_555 1_555
C101_3 C100_3 1_555 1_555
C102_3 C97_3 1_555 1_555
H96_3 C102_3 1_555 1_555
C103_3 C101_3 1_555 1_555
C104_3 C103_3 1_555 1_555
H97_3 C104_3 1_555 1_555
C105_3 C104_3 1_555 1_555
H98_3 C105_3 1_555 1_555
C106_3 C60_3 1_555 1_555
C107_3 C106_3 1_555 1_555
H99_3 C107_3 1_555 1_555
C108_3 C103_3 1_555 1_555
H100_3 C108_3 1_555 1_555
O27_2 Zn4_2 1_555 1_555
O28_3 C82_3 1_555 1_555
O29_3 C58_3 1_555 1_555
O30_3 C59_3 1_555 1_555
O31_3 C94_3 1_555 1_555
O32_3 C83_3 1_555 1_555
O33_2 C92_3 1_555 1_555
O34_2 C92_3 1_555 1_555
Zn4_2 O25_3 1_555 1_555
Zn5 O18_3 1_555 1_555
O35_2 Zn4_2 1_555 1_555
O36_2 Zn1_2 1_555 1_555
O37_2 Zn1_2 1_555 1_555
O38 Zn4_2 1_555 1_555
O44_2 Zn10 1_555 1_555
O45_2 Zn5 1_555 1_555
O46_2 Zn1_2 1_555 1_555
O47_2 Zn4_2 1_555 1_555
Zn6 O17_2 1_555 1_555
Zn8 O34_2 1_555 1_555
Zn14_2 O7_2 1_555 1_555
C3_3 O3_3 1_555 1_555
C11_3 C12_3 1_555 1_555
C15_3 N1_3 1_555 1_555
C16_3 N1_3 1_555 1_555
C18_3 N2_3 1_555 1_555
C19_3 N2_3 1_555 1_555
O9_3 Zn1_2 1_555 1_555
C24_3 C25_3 1_555 1_555
C30_3 C31_3 1_555 1_555
C36_3 C37_3 1_555 1_555
C39_3 O11_3 1_555 1_555
C41_3 O14_3 1_555 1_555
C42_3 O15_3 1_555 1_555
C43_3 O13_3 1_555 1_555
C44_3 O12_3 1_555 1_555
C45_3 C46_3 1_555 1_555
C47_3 C48_3 1_555 1_555
C51_3 C52_3 1_555 1_555
C53_3 C54_3 1_555 1_555
O10_3 Zn10 1_555 1_555
Zn14 O37_2 1_555 1_555
C57_3 O20_3 1_555 1_555
C65_3 C66_3 1_555 1_555
C67_3 O24_3 1_555 1_555
C69_3 N3_3 1_555 1_555
C70_3 N3_3 1_555 1_555
C72_3 N4_3 1_555 1_555
C73_3 N4_3 1_555 1_555
O26_3 Zn4_2 1_555 1_555
C78_3 C79_3 1_555 1_555
C84_3 C85_3 1_555 1_555
C90_3 C91_3 1_555 1_555
C93_3 O28_3 1_555 1_555
C95_3 O31_3 1_555 1_555
C96_3 O32_3 1_555 1_555
C97_3 O30_3 1_555 1_555
C98_3 O29_3 1_555 1_555
C99_3 C100_3 1_555 1_555
C101_3 C102_3 1_555 1_555
C105_3 C106_3 1_555 1_555
C107_3 C108_3 1_555 1_555
O27_2 Zn5 1_555 1_555
O27_2 Zn14_2 1_555 1_555
O38 Zn14_2 1_555 1_555
H2_4 C2_4 1_555 1_555
C3_4 H3_4 1_555 1_555
H4_4 C3_4 1_555 1_555
C4_4 C3_4 1_555 1_555
H5_4 C4_4 1_555 1_555
H6_4 C4_4 1_555 1_555
C5_4 H7_4 1_555 1_555
H8_4 C5_4 1_555 1_555
C7_4 C8_4 1_555 1_555
C8_4 H9_4 1_555 1_555
C9_4 C8_4 1_555 1_555
H10_4 C9_4 1_555 1_555
C10_4 C9_4 1_555 1_555
C11_4 C10_4 1_555 1_555
H11_4 C11_4 1_555 1_555
C12_4 C7_4 1_555 1_555
H12_4 C12_4 1_555 1_555
C13_4 C10_4 1_555 1_555
O3_4 C2_4 1_555 1_555
O37_2 C6_4 1_555 1_555
O6_3 C13_4 1_555 1_555
O7_3 C13_4 1_555 1_555
C40_4 C5_4 1_555 1_555
H39_4 C40_4 1_555 1_555
H40_4 C40_4 1_555 1_555
C41_4 H41_4 1_555 1_555
H42_4 C41_4 1_555 1_555
C43_4 C44_4 1_555 1_555
C44_4 C45_4 1_555 1_555
C45_4 H45_4 1_555 1_555
C46_4 C7_4 1_555 1_555
C47_4 C46_4 1_555 1_555
C48_4 C43_4 1_555 1_555
H46_4 C48_4 1_555 1_555
C49_4 C47_4 1_555 1_555
C50_4 C49_4 1_555 1_555
H47_4 C50_4 1_555 1_555
C51_4 C50_4 1_555 1_555
C52_4 C6_4 1_555 1_555
C53_4 C52_4 1_555 1_555
H49_4 C53_4 1_555 1_555
C54_4 C49_4 1_555 1_555
H50_4 C54_4 1_555 1_555
O12_4 C4_4 1_555 1_555
O13_4 C5_4 1_555 1_555
O14_4 C40_4 1_555 1_555
C68_4 H63_4 1_555 1_555
C69_4 H64_4 1_555 1_555
H65_4 C69_4 1_555 1_555
H66_4 C69_4 1_555 1_555
N3_4 C68_4 1_555 1_555
Zn12_2 O6_3 1_555 1_555
Zn15 O7_3 1_555 1_555
C3_4 O3_4 1_555 1_555
C11_4 C12_4 1_555 1_555
C41_4 O14_4 1_555 1_555
C43_4 O13_4 1_555 1_555
C44_4 O12_4 1_555 1_555
C45_4 C46_4 1_555 1_555
C47_4 C48_4 1_555 1_555
C51_4 C52_4 1_555 1_555
C53_4 C54_4 1_555 1_555
C69_4 N3_4 1_555 1_555
C70_4 H67_4 1_555 1_555
H68_4 C70_4 1_555 1_555
H69_4 C70_4 1_555 1_555
C73_4 H74_4 1_555 1_555
H75_4 C73_4 1_555 1_555
H76_4 C73_4 1_555 1_555
C55_4 C77_4 1_555 1_555
O18_4 C74_4 1_555 1_555
O19_4 C74_4 1_555 1_555
C74_4 C75_4 1_555 1_555
C75_4 C76_4 1_555 1_555
C76_4 H77_4 1_555 1_555
C77_4 C76_4 1_555 1_555
H78_4 C77_4 1_555 1_555
C78_4 C55_4 1_555 1_555
H79_4 C78_4 1_555 1_555
C79_4 C75_4 1_555 1_555
H80_4 C79_4 1_555 1_555
C80_4 C55_4 1_555 1_555
C81_4 C80_4 1_555 1_555
H81_4 C81_4 1_555 1_555
C82_4 C81_4 1_555 1_555
C83_4 C82_4 1_555 1_555
C84_4 C83_4 1_555 1_555
H82_4 C84_4 1_555 1_555
C85_4 C80_4 1_555 1_555
C86_4 C85_4 1_555 1_555
C87_4 C86_4 1_555 1_555
H83_4 C87_4 1_555 1_555
C88_4 C87_4 1_555 1_555
H84_4 C88_4 1_555 1_555
C89_4 C88_4 1_555 1_555
C90_4 C89_4 1_555 1_555
H85_4 C90_4 1_555 1_555
C91_4 C86_4 1_555 1_555
H86_4 C91_4 1_555 1_555
C92_4 C89_4 1_555 1_555
H87_4 C93_4 1_555 1_555
H88_4 C93_4 1_555 1_555
H93_4 C96_4 1_555 1_555
H94_4 C96_4 1_555 1_555
O28_4 C82_4 1_555 1_555
O32_4 C83_4 1_555 1_555
O45_2 C92_4 1_555 1_555
O47_2 C92_4 1_555 1_555
Zn13_2 O18_4 1_555 1_555
O41_3 Zn13_2 1_555 1_555
C78_4 C79_4 1_555 1_555
C84_4 C85_4 1_555 1_555
C90_4 C91_4 1_555 1_555
C93_4 O28_4 1_555 1_555
C96_4 O32_4 1_555 1_555
O27_3 Zn13_2 1_555 1_555
O27_3 Zn15_2 1_555 1_555
C71_4 H70_4 1_555 1_555
C72_4 H71_4 1_555 1_555
H72_4 C72_4 1_555 1_555
H73_4 C72_4 1_555 1_555
O26_4 C71_4 1_555 1_555
N4_4 C71_4 1_555 1_555
Zn8 O25_4 1_555 1_555
C72_4 N4_4 1_555 1_555
O26_4 Zn8 1_555 1_555
C1_4 C23_4 1_555 1_555
O1_4 C20_4 1_555 1_555
O2_4 C20_4 1_555 1_555
C20_4 C21_4 1_555 1_555
C21_4 C22_4 1_555 1_555
C22_4 H27_4 1_555 1_555
C23_4 C22_4 1_555 1_555
H28_4 C23_4 1_555 1_555
C24_4 C1_4 1_555 1_555
H29_4 C24_4 1_555 1_555
C25_4 C21_4 1_555 1_555
H30_4 C25_4 1_555 1_555
C26_4 C1_4 1_555 1_555
C27_4 C26_4 1_555 1_555
H31_4 C27_4 1_555 1_555
C28_4 C27_4 1_555 1_555
C29_4 C28_4 1_555 1_555
C30_4 C29_4 1_555 1_555
H32_4 C30_4 1_555 1_555
C31_4 C26_4 1_555 1_555
C32_4 C31_4 1_555 1_555
C33_4 C32_4 1_555 1_555
H33_4 C33_4 1_555 1_555
C34_4 C33_4 1_555 1_555
H34_4 C34_4 1_555 1_555
C35_4 C34_4 1_555 1_555
C36_4 C35_4 1_555 1_555
H35_4 C36_4 1_555 1_555
C37_4 C32_4 1_555 1_555
H36_4 C37_4 1_555 1_555
C38_4 C35_4 1_555 1_555
H37_4 C39_4 1_555 1_555
H38_4 C39_4 1_555 1_555
H43_4 C42_4 1_555 1_555
H44_4 C42_4 1_555 1_555
O11_4 C28_4 1_555 1_555
O15_4 C29_4 1_555 1_555
O44_2 C38_4 1_555 1_555
O46_2 C38_4 1_555 1_555
Zn12_2 O1_4 1_555 1_555
Zn15 O10_4 1_555 1_555
C24_4 C25_4 1_555 1_555
C30_4 C31_4 1_555 1_555
C36_4 C37_4 1_555 1_555
C39_4 O11_4 1_555 1_555
C42_4 O15_4 1_555 1_555
O10_4 Zn12_2 1_555 1_555
C17_4 H20_4 1_555 1_555
C18_4 H21_4 1_555 1_555
H22_4 C18_4 1_555 1_555
H23_4 C18_4 1_555 1_555
O9_4 C17_4 1_555 1_555
N2_4 C17_4 1_555 1_555
Zn6 O8_4 1_555 1_555
C18_4 N2_4 1_555 1_555
O9_4 Zn6 1_555 1_555
C14_4 H13_4 1_555 1_555
C15_4 H14_4 1_555 1_555
H15_4 C15_4 1_555 1_555
H16_4 C15_4 1_555 1_555
N1_4 C14_4 1_555 1_555
H52_4 C56_4 1_555 1_555
C57_4 H53_4 1_555 1_555
H54_4 C57_4 1_555 1_555
C58_4 C57_4 1_555 1_555
H55_4 C58_4 1_555 1_555
H56_4 C58_4 1_555 1_555
C59_4 H57_4 1_555 1_555
H58_4 C59_4 1_555 1_555
C61_4 C62_4 1_555 1_555
C62_4 H59_4 1_555 1_555
C63_4 C62_4 1_555 1_555
H60_4 C63_4 1_555 1_555
C64_4 C63_4 1_555 1_555
C65_4 C64_4 1_555 1_555
H61_4 C65_4 1_555 1_555
C66_4 C61_4 1_555 1_555
H62_4 C66_4 1_555 1_555
C67_4 C64_4 1_555 1_555
O20_4 C56_4 1_555 1_555
O38 C60_4 1_555 1_555
O41_3 C67_4 1_555 1_555
O24_4 Zn15_2 1_555 1_555
C94_4 C59_4 1_555 1_555
H89_4 C94_4 1_555 1_555
H90_4 C94_4 1_555 1_555
C95_4 H91_4 1_555 1_555
H92_4 C95_4 1_555 1_555
C97_4 C98_4 1_555 1_555
C98_4 C99_4 1_555 1_555
C99_4 H95_4 1_555 1_555
C100_4 C61_4 1_555 1_555
C101_4 C100_4 1_555 1_555
C102_4 C97_4 1_555 1_555
H96_4 C102_4 1_555 1_555
C103_4 C101_4 1_555 1_555
C104_4 C103_4 1_555 1_555
H97_4 C104_4 1_555 1_555
C105_4 C104_4 1_555 1_555
C106_4 C60_4 1_555 1_555
C107_4 C106_4 1_555 1_555
H99_4 C107_4 1_555 1_555
C108_4 C103_4 1_555 1_555
H100_4 C108_4 1_555 1_555
O29_4 C58_4 1_555 1_555
O30_4 C59_4 1_555 1_555
O31_4 C94_4 1_555 1_555
C15_4 N1_4 1_555 1_555
C57_4 O20_4 1_555 1_555
C65_4 C66_4 1_555 1_555
C67_4 O24_4 1_555 1_555
C95_4 O31_4 1_555 1_555
C97_4 O30_4 1_555 1_555
C98_4 O29_4 1_555 1_555
C99_4 C100_4 1_555 1_555
C101_4 C102_4 1_555 1_555
C105_4 C106_4 1_555 1_555
C107_4 C108_4 1_555 1_555
C16_4 H17_4 1_555 1_555
H18_4 C16_4 1_555 1_555
H19_4 C16_4 1_555 1_555
C19_4 H24_4 1_555 1_555
H25_4 C19_4 1_555 1_555
H26_4 C19_4 1_555 1_555

#END
