
###############################################################################
#
# This file contains modified crystal structure data generated from the
# MOF subset of the Cambridge Structural Database (CSD) v543 
# hosted by the Cambridge Crystallographic Data Centre (CCDC).
#
# This work is licensed under the Creative Commons
# Attribution-NonCommercial-ShareAlike 4.0 International License.
# To view a copy of this license, visit
# http://creativecommons.org/licenses/by-nc-sa/4.0/
# or send a letter to
# Creative Commons, PO Box 1866, Mountain View, CA 94042, USA.
#
# CIF created using the CSD Python API on 29 September 2022
# The structure has been converted into the P1 space group
# The structure has a 3D framework
# The original CSD entry EFESOZ is in the tetragonal crystal system
# The framework has been calculated to contain at least 10.0% void space
# The void calculation uses a probe of radius 1.32A, grid spacing 0.4
# H atom positions have been added when not included in the experimental data
#
###############################################################################

data_EFESOZ
_chemical_formula_moiety         '(C432 H432 Cl8 N24 O132 Zn24)n'
_symmetry_cell_setting           triclinic
_symmetry_space_group_name_H-M   'P 1'
_symmetry_Int_Tables_number      1
_space_group_name_Hall           'P 1'
loop_
_symmetry_equiv_pos_site_id
_symmetry_equiv_pos_as_xyz
1 x,y,z
_cell_length_a                   25.122(4)
_cell_length_b                   25.122(4)
_cell_length_c                   23.412(5)
_cell_angle_alpha                90
_cell_angle_beta                 90
_cell_angle_gamma                90
_cell_volume                     14775.7
loop_
_atom_site_label
_atom_site_type_symbol
_atom_site_fract_x
_atom_site_fract_y
_atom_site_fract_z
Zn11 Zn 0.5930(4) 0.0375(3) 0.4515(4)
Zn12 Zn 0.6193(3) 0.0582(4) 0.0545(3)
Zn17 Zn 0.5000 0.0000 0.0325(4)
Zn19 Zn 0.5000 0.0000 0.5325(4)
C1 C 0.598(4) 0.150(4) 0.120(3)
C2 C 0.610(3) 0.198(4) 0.154(3)
C3 C 0.578(4) 0.224(4) 0.185(4)
H1 H 0.544 0.2098 0.19
C4 C 0.7346 0.4658 0.1763
H2 H 0.7061 0.4668 0.1484
H3 H 0.7557 0.4339 0.1709
C5 C 0.7702 0.5188 0.1749
H4 H 0.7843 0.528 0.2122
H5 H 0.7988 0.5168 0.1472
C6 C 0.751(10) 0.601(6) 0.143(16)
H6 H 0.749 0.6041 0.1021
H7 H 0.7889 0.5992 0.1526
C7 C 0.732(17) 0.650(9) 0.166(11)
H8 H 0.6965 0.6551 0.1519
H9 H 0.7543 0.6781 0.151
C8 C 0.704(5) 0.655(3) 0.401(6)
H10 H 0.6662 0.6509 0.4101
H11 H 0.7156 0.6897 0.4148
C9 C 0.740(9) 0.607(3) 0.427(9)
H12 H 0.7739 0.6036 0.4077
H13 H 0.7452 0.6101 0.4677
C10 C 0.730(6) 0.514(4) 0.424(5)
H14 H 0.7358 0.5109 0.4647
H15 H 0.7648 0.5153 0.4051
C11 C 0.699(4) 0.471(3) 0.402(5)
H16 H 0.7117 0.4372 0.417
H17 H 0.6617 0.475 0.4139
C12 C 0.645(4) 0.824(3) 0.207(3)
C13 C 0.594(4) 0.830(4) 0.192(4)
H18 H 0.5682 0.8061 0.2052
C14 C 0.580(5) 0.874(5) 0.156(4)
H19 H 0.5454 0.8774 0.1432
C15 C 0.615(3) 0.910(4) 0.140(3)
C16 C 0.664(5) 0.907(4) 0.158(4)
H20 H 0.6868 0.9344 0.1493
C17 C 0.685(5) 0.862(4) 0.192(4)
H21 H 0.7204 0.8586 0.2019
C18 C 0.599(4) 0.959(5) 0.106(3)
C19 C 0.4994 0.1925 0.0117
H22 H 0.5189 0.1842 0.0443
C20 C 0.4401 0.2383 0.0691
H23 H 0.4176 0.269 0.0721
H24 H 0.4666 0.2394 0.0987
H25 H 0.4191 0.2067 0.0731
N1 N 0.4654 0.2382 0.0153
O1 O 0.634(2) 0.122(2) 0.100(2)
O2 O 0.548(2) 0.138(3) 0.118(2)
O3 O 0.716(3) 0.470(3) 0.231(3)
O4 O 0.729(5) 0.553(5) 0.158(6)
O5 O 0.731(3) 0.654(2) 0.226(3)
O6 O 0.712(3) 0.651(2) 0.342(3)
O7 O 0.702(3) 0.560(2) 0.412(3)
O8 O 0.703(3) 0.472(2) 0.341(3)
O9 O 0.563(2) 0.166(2) 0.490(2)
O10 O 0.621(2) 0.116(2) 0.444(2)
O11 O 0.5456(19) 0.9600(19) 0.465(2)
O12 O 0.477(2) 0.927(3) 0.422(2)
O13 O 0.633(2) 0.991(3) 0.092(2)
O14 O 0.549(2) 0.962(2) 0.0934(19)
C25 C 0.661(5) 0.220(4) 0.152(5)
H36 H 0.6882 0.2019 0.1319
C26 C 0.672(4) 0.268(4) 0.179(4)
H37 H 0.704 0.2842 0.1718
C27 C 0.640(4) 0.291(4) 0.213(4)
C28 C 0.591(8) 0.273(4) 0.214(5)
H38 H 0.5643 0.2914 0.2335
C29 C 0.656(4) 0.338(4) 0.248(3)
C30 C 0.678(4) 0.382(4) 0.224(4)
H39 H 0.6844 0.3817 0.1851
C31 C 0.692(4) 0.425(3) 0.252(5)
C32 C 0.685(5) 0.425(4) 0.313(4)
C33 C 0.661(4) 0.385(3) 0.341(4)
H40 H 0.6541 0.3877 0.3797
C34 C 0.645(4) 0.338(3) 0.309(4)
C35 C 0.633(4) 0.291(4) 0.342(3)
C36 C 0.592(6) 0.293(4) 0.381(4)
H41 H 0.5712 0.3229 0.3849
C37 C 0.583(4) 0.249(5) 0.413(3)
H42 H 0.556 0.251 0.4406
C38 C 0.607(4) 0.205(2) 0.410(3)
C39 C 0.645(4) 0.201(3) 0.371(3)
H43 H 0.6638 0.1696 0.3674
C40 C 0.658(4) 0.244(3) 0.335(3)
H44 H 0.6837 0.239 0.3067
C41 C 0.596(4) 0.157(4) 0.450(3)
C42 C 0.696(5) 0.691(4) 0.312(3)
C43 C 0.705(6) 0.693(3) 0.251(4)
C44 C 0.686(4) 0.733(5) 0.222(4)
H45 H 0.6875 0.7297 0.1828
C45 C 0.662(4) 0.781(3) 0.244(3)
C46 C 0.651(3) 0.778(4) 0.303(3)
C47 C 0.667(3) 0.735(3) 0.337(4)
H46 H 0.6588 0.7348 0.3753
C48 C 0.618(4) 0.820(3) 0.330(3)
C49 C 0.567(5) 0.817(4) 0.329(5)
H47 H 0.5506 0.7926 0.3058
C50 C 0.535(4) 0.852(5) 0.364(5)
H48 H 0.4987 0.8466 0.3664
C51 C 0.560(3) 0.894(3) 0.395(3)
C52 C 0.614(4) 0.897(3) 0.396(3)
H49 H 0.6328 0.9191 0.4205
C53 C 0.641(4) 0.861(4) 0.356(7)
H50 H 0.6765 0.8683 0.3469
C54 C 0.526(3) 0.929(3) 0.429(3)
O17 O 0.546(2) 0.065(2) 0.033(2)
O44 O 0.367(2) 0.009(3) 0.092(2)
O46 O 0.451(2) 0.038(2) 0.0934(19)
Zn8 Zn 0.4070(4) 0.9625(3) 0.4515(4)
Zn15 Zn 0.5582(4) 0.1193(3) 0.5545(3)
Zn17_2 Zn 0.5000 1.0000 0.0325(4)
Zn19_2 Zn 0.5000 1.0000 0.5325(4)
C21 C 0.4365 0.2582 0.9606
H26 H 0.4602 0.2555 0.9285
H27 H 0.4261 0.2947 0.9657
H28 H 0.4055 0.2368 0.9538
C22 C 0.551(4) 0.099(5) 0.831(3)
H29 H 0.5871 0.1033 0.84
C23 C 0.4854 0.0937 0.7602
H30 H 0.4803 0.0801 0.7223
H31 H 0.4788 0.1313 0.7605
H32 H 0.4612 0.0764 0.7859
C24 C 0.573(6) 0.070(9) 0.731(5)
H33 H 0.5519 0.0587 0.6991
H34 H 0.596 0.0409 0.7424
H35 H 0.5943 0.0999 0.7205
N2 N 0.539(4) 0.084(7) 0.778(4)
O15 O 0.5054 0.1643 0.9719
O16 O 0.517(2) 0.106(3) 0.868(2)
Zn1 Zn 0.5375(3) 0.0930(4) 0.9515(4)
O36 O 0.666(2) 0.063(2) 0.990(2)
O38 O 0.616(2) 0.121(2) 0.944(2)
O40 O 0.4600(19) 0.0456(19) 0.965(2)
O41 O 0.573(3) 0.023(2) 0.922(2)
C55 C 0.402(4) 0.850(4) 0.120(3)
C56 C 0.390(3) 0.802(4) 0.154(3)
C57 C 0.422(4) 0.776(4) 0.185(4)
H51 H 0.456 0.7902 0.19
C58 C 0.2654 0.5342 0.1763
H52 H 0.2939 0.5332 0.1484
H53 H 0.2443 0.5661 0.1709
C59 C 0.2298 0.4812 0.1749
H54 H 0.2157 0.472 0.2122
H55 H 0.2012 0.4832 0.1472
C60 C 0.249(10) 0.399(6) 0.143(16)
H56 H 0.251 0.3959 0.1021
H57 H 0.2111 0.4008 0.1526
C61 C 0.268(17) 0.350(9) 0.166(11)
H58 H 0.3035 0.3449 0.1519
H59 H 0.2457 0.3219 0.151
C62 C 0.296(5) 0.345(3) 0.401(6)
H60 H 0.3338 0.3491 0.4101
H61 H 0.2844 0.3103 0.4148
C63 C 0.260(9) 0.393(3) 0.427(9)
H62 H 0.2261 0.3964 0.4077
H63 H 0.2548 0.3899 0.4677
C64 C 0.270(6) 0.486(4) 0.424(5)
H64 H 0.2642 0.4891 0.4647
H65 H 0.2352 0.4847 0.4051
C65 C 0.301(4) 0.529(3) 0.402(5)
H66 H 0.2883 0.5628 0.417
H67 H 0.3383 0.525 0.4139
C66 C 0.355(4) 0.176(3) 0.207(3)
C67 C 0.406(4) 0.170(4) 0.192(4)
H68 H 0.4318 0.1939 0.2052
C68 C 0.420(5) 0.126(5) 0.156(4)
H69 H 0.4546 0.1226 0.1432
C69 C 0.385(3) 0.090(4) 0.140(3)
C70 C 0.336(5) 0.093(4) 0.158(4)
H70 H 0.3132 0.0656 0.1493
C71 C 0.315(5) 0.138(4) 0.192(4)
H71 H 0.2796 0.1414 0.2019
C72 C 0.401(4) 0.041(5) 0.106(3)
C73 C 0.5006 0.8075 0.0117
H72 H 0.4811 0.8158 0.0443
C74 C 0.5599 0.7617 0.0691
H73 H 0.5824 0.731 0.0721
H74 H 0.5334 0.7606 0.0987
H75 H 0.5809 0.7933 0.0731
N3 N 0.5346 0.7618 0.0153
O18 O 0.366(2) 0.878(2) 0.100(2)
O19 O 0.452(2) 0.862(3) 0.118(2)
O20 O 0.284(3) 0.530(3) 0.231(3)
O21 O 0.271(5) 0.447(5) 0.158(6)
O22 O 0.269(3) 0.346(2) 0.226(3)
O23 O 0.288(3) 0.349(2) 0.342(3)
O24 O 0.298(3) 0.440(2) 0.412(3)
O25 O 0.297(3) 0.528(2) 0.341(3)
O26 O 0.437(2) 0.834(2) 0.490(2)
O27 O 0.379(2) 0.884(2) 0.444(2)
O28 O 0.4544(19) 0.0400(19) 0.465(2)
O29 O 0.523(2) 0.073(3) 0.422(2)
C79 C 0.339(5) 0.780(4) 0.152(5)
H86 H 0.3118 0.7981 0.1319
C80 C 0.328(4) 0.732(4) 0.179(4)
H87 H 0.296 0.7158 0.1718
C81 C 0.360(4) 0.709(4) 0.213(4)
C82 C 0.409(8) 0.727(4) 0.214(5)
H88 H 0.4357 0.7086 0.2335
C83 C 0.344(4) 0.662(4) 0.248(3)
C84 C 0.322(4) 0.618(4) 0.224(4)
H89 H 0.3156 0.6183 0.1851
C85 C 0.308(4) 0.575(3) 0.252(5)
C86 C 0.315(5) 0.575(4) 0.313(4)
C87 C 0.339(4) 0.615(3) 0.341(4)
H90 H 0.3459 0.6123 0.3797
C88 C 0.355(4) 0.662(3) 0.309(4)
C89 C 0.367(4) 0.709(4) 0.342(3)
C90 C 0.408(6) 0.707(4) 0.381(4)
H91 H 0.4288 0.6771 0.3849
C91 C 0.417(4) 0.751(5) 0.413(3)
H92 H 0.444 0.749 0.4406
C92 C 0.393(4) 0.795(2) 0.410(3)
C93 C 0.355(4) 0.799(3) 0.371(3)
H93 H 0.3362 0.8304 0.3674
C94 C 0.342(4) 0.756(3) 0.335(3)
H94 H 0.3163 0.761 0.3067
C95 C 0.404(4) 0.843(4) 0.450(3)
C96 C 0.304(5) 0.309(4) 0.312(3)
C97 C 0.295(6) 0.307(3) 0.251(4)
C98 C 0.314(4) 0.267(5) 0.222(4)
H95 H 0.3125 0.2703 0.1828
C99 C 0.338(4) 0.219(3) 0.244(3)
C100 C 0.349(3) 0.222(4) 0.303(3)
C101 C 0.333(3) 0.265(3) 0.337(4)
H96 H 0.3412 0.2652 0.3753
C102 C 0.382(4) 0.180(3) 0.330(3)
C103 C 0.433(5) 0.183(4) 0.329(5)
H97 H 0.4494 0.2074 0.3058
C104 C 0.465(4) 0.148(5) 0.364(5)
H98 H 0.5013 0.1534 0.3664
C105 C 0.440(3) 0.106(3) 0.395(3)
C106 C 0.386(4) 0.103(3) 0.396(3)
H99 H 0.3672 0.0809 0.4205
C107 C 0.359(4) 0.139(4) 0.356(7)
H100 H 0.3235 0.1317 0.3469
C108 C 0.474(3) 0.071(3) 0.429(3)
O34 O 0.454(2) 0.935(2) 0.033(2)
Zn5 Zn 0.3807(3) 0.9418(4) 0.0545(3)
Zn14 Zn 0.4418(4) 0.8807(3) 0.5545(3)
C75 C 0.5635 0.7418 0.9606
H76 H 0.5398 0.7445 0.9285
H77 H 0.5739 0.7053 0.9657
H78 H 0.5945 0.7632 0.9538
C76 C 0.449(4) 0.901(5) 0.831(3)
H79 H 0.4129 0.8967 0.84
C77 C 0.5146 0.9063 0.7602
H80 H 0.5197 0.9199 0.7223
H81 H 0.5212 0.8687 0.7605
H82 H 0.5388 0.9236 0.7859
C78 C 0.427(6) 0.930(9) 0.731(5)
H83 H 0.4481 0.9413 0.6991
H84 H 0.404 0.9591 0.7424
H85 H 0.4057 0.9001 0.7205
N4 N 0.461(4) 0.916(7) 0.778(4)
O32 O 0.4946 0.8357 0.9719
O33 O 0.483(2) 0.894(3) 0.868(2)
Zn4 Zn 0.4625(3) 0.9070(4) 0.9515(4)
O35 O 0.334(2) 0.937(2) 0.990(2)
O37 O 0.384(2) 0.879(2) 0.944(2)
O39 O 0.5400(19) 0.9544(19) 0.965(2)
O42 O 0.427(3) 0.977(2) 0.922(2)
C59_2 C 0.0188 0.2702 0.6749
H54_2 H 0.028 0.2843 0.7122
H55_2 H 0.0168 0.2988 0.6472
C60_2 C 0.101(6) 0.251(10) 0.643(16)
H56_2 H 0.1041 0.249 0.6021
H57_2 H 0.0992 0.2889 0.6526
C61_2 C 0.150(9) 0.232(17) 0.666(11)
H58_2 H 0.1551 0.1965 0.6519
H59_2 H 0.1781 0.2543 0.651
C62_2 C 0.155(3) 0.204(5) 0.901(6)
H60_2 H 0.1509 0.1662 0.9101
H61_2 H 0.1897 0.2156 0.9148
C63_2 C 0.107(3) 0.240(9) 0.927(9)
H62_2 H 0.1036 0.2739 0.9077
H63_2 H 0.1101 0.2452 0.9677
C64_2 C 0.014(4) 0.230(6) 0.924(5)
H64_2 H 0.0109 0.2358 0.9647
H65_2 H 0.0153 0.2648 0.9051
C66_2 C 0.324(3) 0.145(4) 0.707(3)
C67_2 C 0.330(4) 0.094(4) 0.692(4)
H68_2 H 0.3061 0.0682 0.7052
C68_2 C 0.374(5) 0.080(5) 0.656(4)
H69_2 H 0.3774 0.0454 0.6432
C69_2 C 0.410(4) 0.115(3) 0.640(3)
C70_2 C 0.407(4) 0.164(5) 0.658(4)
H70_2 H 0.4344 0.1868 0.6493
C71_2 C 0.362(4) 0.185(5) 0.692(4)
H71_2 H 0.3586 0.2204 0.7019
C72_2 C 0.459(5) 0.099(4) 0.606(3)
O21_2 O 0.053(5) 0.229(5) 0.658(6)
O22_2 O 0.154(2) 0.231(3) 0.726(3)
O23_2 O 0.151(2) 0.212(3) 0.842(3)
O24_2 O 0.060(2) 0.202(3) 0.912(3)
O30 O 0.491(3) 0.133(2) 0.592(2)
O31 O 0.462(2) 0.049(2) 0.5934(19)
C96_2 C 0.191(4) 0.196(5) 0.812(3)
C97_2 C 0.193(3) 0.205(6) 0.751(4)
C98_2 C 0.233(5) 0.186(4) 0.722(4)
H95_2 H 0.2297 0.1875 0.6828
C99_2 C 0.281(3) 0.162(4) 0.744(3)
C100_2 C 0.278(4) 0.151(3) 0.803(3)
C101_2 C 0.235(3) 0.167(3) 0.837(4)
H96_2 H 0.2348 0.1588 0.8753
C102_2 C 0.320(3) 0.118(4) 0.830(3)
C103_2 C 0.317(4) 0.067(5) 0.829(5)
H97_2 H 0.2926 0.0506 0.8058
C104_2 C 0.352(5) 0.035(4) 0.864(5)
C105_2 C 0.394(3) 0.060(3) 0.895(3)
C106_2 C 0.397(3) 0.114(4) 0.896(3)
H99_2 H 0.4191 0.1328 0.9205
C107_2 C 0.361(4) 0.141(4) 0.856(7)
H100_2 H 0.3683 0.1765 0.8469
C108_2 C 0.429(3) 0.026(3) 0.929(3)
H98_2 H 0.3466 0.9987 0.8664
C19_2 C 0.3075 0.0006 0.5117
C20_2 C 0.2617 0.0599 0.5691
H23_2 H 0.231 0.0824 0.5721
H24_2 H 0.2606 0.0334 0.5987
H25_2 H 0.2933 0.0809 0.5731
C21_2 C 0.2418 0.0635 0.4606
H26_2 H 0.2445 0.0398 0.4285
H27_2 H 0.2053 0.0739 0.4657
H28_2 H 0.2632 0.0945 0.4538
C23_2 C 0.4063 0.0146 0.2602
H30_2 H 0.4199 0.0197 0.2223
H31_2 H 0.3687 0.0212 0.2605
H32_2 H 0.4236 0.0388 0.2859
N1_2 N 0.2618 0.0346 0.5153
C55_2 C 0.650(4) 0.098(4) 0.620(3)
C56_2 C 0.698(4) 0.110(3) 0.654(3)
C57_2 C 0.724(4) 0.078(4) 0.685(4)
H51_2 H 0.7098 0.044 0.69
C58_2 C 0.9658 0.2346 0.6763
H52_2 H 0.9668 0.2061 0.6484
H53_2 H 0.9339 0.2557 0.6709
C65_2 C 0.971(3) 0.199(4) 0.902(5)
H66_2 H 0.9372 0.2117 0.917
H67_2 H 0.975 0.1617 0.9139
H72_2 H 0.6842 0.0189 0.5443
C76_2 C 0.599(5) 0.051(4) 0.331(3)
H79_2 H 0.6033 0.0871 0.34
C78_2 C 0.570(9) 0.073(6) 0.231(5)
H83_2 H 0.5587 0.0519 0.1991
H84_2 H 0.5409 0.096 0.2424
H85_2 H 0.5999 0.0943 0.2205
N4_2 N 0.584(7) 0.039(4) 0.278(4)
O18_2 O 0.622(2) 0.134(2) 0.600(2)
O19_2 O 0.638(3) 0.048(2) 0.618(2)
O20_2 O 0.970(3) 0.216(3) 0.731(3)
O25_2 O 0.972(2) 0.203(3) 0.841(3)
O32_2 O 0.6643 0.0054 0.4719
O33_2 O 0.606(3) 0.017(2) 0.368(2)
C79_2 C 0.720(4) 0.161(5) 0.652(5)
H86_2 H 0.7019 0.1882 0.6319
C80_2 C 0.768(4) 0.172(4) 0.679(4)
H87_2 H 0.7842 0.204 0.6718
C81_2 C 0.791(4) 0.140(4) 0.713(4)
C82_2 C 0.773(4) 0.091(8) 0.714(5)
H88_2 H 0.7914 0.0643 0.7335
C83_2 C 0.838(4) 0.156(4) 0.748(3)
C84_2 C 0.882(4) 0.178(4) 0.724(4)
H89_2 H 0.8817 0.1844 0.6851
C85_2 C 0.925(3) 0.192(4) 0.752(5)
C86_2 C 0.925(4) 0.185(5) 0.813(4)
C87_2 C 0.885(3) 0.161(4) 0.841(4)
H90_2 H 0.8877 0.1541 0.8797
C88_2 C 0.838(3) 0.145(4) 0.809(4)
C89_2 C 0.791(4) 0.133(4) 0.842(3)
C90_2 C 0.793(4) 0.092(6) 0.881(4)
H91_2 H 0.8229 0.0712 0.8849
C91_2 C 0.749(5) 0.083(4) 0.913(3)
H92_2 H 0.751 0.056 0.9406
C92_2 C 0.705(2) 0.107(4) 0.910(3)
C93_2 C 0.701(3) 0.145(4) 0.871(3)
H93_2 H 0.6696 0.1638 0.8674
C94_2 C 0.744(3) 0.158(4) 0.835(3)
H94_2 H 0.739 0.1837 0.8067
C95_2 C 0.657(4) 0.096(4) 0.950(3)
O34_2 O 0.565(2) 0.046(2) 0.533(2)
C1_2 C 0.350(4) 0.902(4) 0.620(3)
C2_2 C 0.302(4) 0.890(3) 0.654(3)
C3_2 C 0.276(4) 0.922(4) 0.685(4)
H1_2 H 0.2902 0.956 0.69
C4_2 C 0.0342 0.7654 0.6763
H2_2 H 0.0332 0.7939 0.6484
H3_2 H 0.0661 0.7443 0.6709
C11_2 C 0.029(3) 0.801(4) 0.902(5)
H16_2 H 0.0628 0.7883 0.917
H17_2 H 0.025 0.8383 0.9139
H22_2 H 0.3158 0.9811 0.5443
C22_2 C 0.401(5) 0.949(4) 0.331(3)
H29_2 H 0.3967 0.9129 0.34
C24_2 C 0.430(9) 0.927(6) 0.231(5)
H33_2 H 0.4413 0.9481 0.1991
H34_2 H 0.4591 0.904 0.2424
H35_2 H 0.4001 0.9057 0.2205
N2_2 N 0.416(7) 0.961(4) 0.278(4)
O1_2 O 0.378(2) 0.866(2) 0.600(2)
O2_2 O 0.362(3) 0.952(2) 0.618(2)
O3_2 O 0.030(3) 0.784(3) 0.731(3)
O8_2 O 0.028(2) 0.797(3) 0.841(3)
O15_2 O 0.3357 0.9946 0.4719
O16_2 O 0.394(3) 0.983(2) 0.368(2)
C25_2 C 0.280(4) 0.839(5) 0.652(5)
H36_2 H 0.2981 0.8118 0.6319
C26_2 C 0.232(4) 0.828(4) 0.679(4)
H37_2 H 0.2158 0.796 0.6718
C27_2 C 0.209(4) 0.860(4) 0.713(4)
C28_2 C 0.227(4) 0.909(8) 0.714(5)
H38_2 H 0.2086 0.9357 0.7335
C29_2 C 0.162(4) 0.844(4) 0.748(3)
C30_2 C 0.118(4) 0.822(4) 0.724(4)
H39_2 H 0.1183 0.8156 0.6851
C31_2 C 0.075(3) 0.808(4) 0.752(5)
C32_2 C 0.075(4) 0.815(5) 0.813(4)
C33_2 C 0.115(3) 0.839(4) 0.841(4)
H40_2 H 0.1123 0.8459 0.8797
C34_2 C 0.162(3) 0.855(4) 0.809(4)
C35_2 C 0.209(4) 0.867(4) 0.842(3)
C36_2 C 0.207(4) 0.908(6) 0.881(4)
H41_2 H 0.1771 0.9288 0.8849
C37_2 C 0.251(5) 0.917(4) 0.913(3)
H42_2 H 0.249 0.944 0.9406
C38_2 C 0.295(2) 0.893(4) 0.910(3)
C39_2 C 0.299(3) 0.855(4) 0.871(3)
H43_2 H 0.3304 0.8362 0.8674
C40_2 C 0.256(3) 0.842(4) 0.835(3)
H44_2 H 0.261 0.8163 0.8067
C41_2 C 0.343(4) 0.904(4) 0.950(3)
O17_2 O 0.435(2) 0.954(2) 0.533(2)
C73_2 C 0.6925 0.9994 0.5117
C74_2 C 0.7383 0.9401 0.5691
H73_2 H 0.769 0.9176 0.5721
H74_2 H 0.7394 0.9666 0.5987
H75_2 H 0.7067 0.9191 0.5731
C75_2 C 0.7582 0.9365 0.4606
H76_2 H 0.7555 0.9602 0.4285
H77_2 H 0.7947 0.9261 0.4657
H78_2 H 0.7368 0.9055 0.4538
C77_2 C 0.5937 0.9854 0.2602
H80_2 H 0.5801 0.9803 0.2223
H81_2 H 0.6313 0.9788 0.2605
H82_2 H 0.5764 0.9612 0.2859
N3_2 N 0.7382 0.9654 0.5153
O43 O 0.509(3) 0.867(2) 0.592(2)
O45 O 0.538(2) 0.951(2) 0.5934(19)
H48_2 H 0.6534 0.0013 0.8664
C5_2 C 0.9812 0.7298 0.6749
H4_2 H 0.972 0.7157 0.7122
H5_2 H 0.9832 0.7012 0.6472
C6_2 C 0.899(6) 0.749(10) 0.643(16)
H6_2 H 0.8959 0.751 0.6021
H7_2 H 0.9008 0.7111 0.6526
C7_2 C 0.850(9) 0.768(17) 0.666(11)
H8_2 H 0.8449 0.8035 0.6519
H9_2 H 0.8219 0.7457 0.651
C8_2 C 0.845(3) 0.796(5) 0.901(6)
H10_2 H 0.8491 0.8338 0.9101
H11_2 H 0.8103 0.7844 0.9148
C9_2 C 0.893(3) 0.760(9) 0.927(9)
H12_2 H 0.8964 0.7261 0.9077
H13_2 H 0.8899 0.7548 0.9677
C10_2 C 0.986(4) 0.770(6) 0.924(5)
H14_2 H 0.9891 0.7642 0.9647
H15_2 H 0.9847 0.7352 0.9051
C12_2 C 0.676(3) 0.855(4) 0.707(3)
C13_2 C 0.670(4) 0.906(4) 0.692(4)
H18_2 H 0.6939 0.9318 0.7052
C14_2 C 0.626(5) 0.920(5) 0.656(4)
H19_2 H 0.6226 0.9546 0.6432
C15_2 C 0.590(4) 0.885(3) 0.640(3)
C16_2 C 0.593(4) 0.836(5) 0.658(4)
H20_2 H 0.5656 0.8132 0.6493
C17_2 C 0.638(4) 0.815(5) 0.692(4)
H21_2 H 0.6414 0.7796 0.7019
C18_2 C 0.541(5) 0.901(4) 0.606(3)
O4_2 O 0.947(5) 0.771(5) 0.658(6)
O5_2 O 0.846(2) 0.769(3) 0.726(3)
O6_2 O 0.849(2) 0.788(3) 0.842(3)
O7_2 O 0.940(2) 0.798(3) 0.912(3)
C42_2 C 0.809(4) 0.804(5) 0.812(3)
C43_2 C 0.807(3) 0.795(6) 0.751(4)
C44_2 C 0.767(5) 0.814(4) 0.722(4)
H45_2 H 0.7703 0.8125 0.6828
C45_2 C 0.719(3) 0.838(4) 0.744(3)
C46_2 C 0.722(4) 0.849(3) 0.803(3)
C47_2 C 0.765(3) 0.833(3) 0.837(4)
H46_2 H 0.7652 0.8412 0.8753
C48_2 C 0.680(3) 0.882(4) 0.830(3)
C49_2 C 0.683(4) 0.933(5) 0.829(5)
H47_2 H 0.7074 0.9494 0.8058
C50_2 C 0.648(5) 0.965(4) 0.864(5)
C51_2 C 0.606(3) 0.940(3) 0.895(3)
C52_2 C 0.603(3) 0.886(4) 0.896(3)
H49_2 H 0.5809 0.8672 0.9205
C53_2 C 0.639(4) 0.859(4) 0.856(7)
H50_2 H 0.6317 0.8235 0.8469
C54_2 C 0.571(3) 0.974(3) 0.929(3)
O29_2 O 0.023(2) 0.427(3) 0.078(2)
H98_3 H 0.0013 0.3466 0.1336
Zn9 Zn 0.0930(4) 0.4625(3) 0.0485(4)
Zn16 Zn 0.0000 0.5000 0.4675(4)
Zn18 Zn -0.0000 0.5000 0.9675(4)
C1_3 C 0.098(4) 0.350(4) 0.380(3)
C2_3 C 0.110(3) 0.302(4) 0.346(3)
C3_3 C 0.078(4) 0.276(4) 0.315(4)
H1_3 H 0.044 0.2902 0.31
C4_3 C 0.2346 0.0342 0.3237
H2_3 H 0.2061 0.0332 0.3516
H3_3 H 0.2557 0.0661 0.3291
C11_3 C 0.199(4) 0.029(3) 0.098(5)
H16_3 H 0.2117 0.0628 0.083
H17_3 H 0.1617 0.025 0.0861
H22_3 H 0.0189 0.3158 0.4557
C22_3 C 0.051(4) 0.401(5) 0.669(3)
H29_3 H 0.0871 0.3967 0.66
C24_3 C 0.073(6) 0.430(9) 0.769(5)
H33_3 H 0.0519 0.4413 0.8009
H34_3 H 0.096 0.4591 0.7576
H35_3 H 0.0943 0.4001 0.7795
N2_3 N 0.039(4) 0.416(7) 0.722(4)
O1_3 O 0.134(2) 0.378(2) 0.400(2)
O2_3 O 0.048(2) 0.362(3) 0.382(2)
O3_3 O 0.216(3) 0.030(3) 0.269(3)
O8_3 O 0.203(3) 0.028(2) 0.159(3)
O9_2 O 0.063(2) 0.334(2) 0.010(2)
O10_2 O 0.121(2) 0.384(2) 0.056(2)
O15_3 O 0.0054 0.3357 0.5281
O16_3 O 0.017(2) 0.394(3) 0.632(2)
C25_3 C 0.161(5) 0.280(4) 0.348(5)
H36_3 H 0.1882 0.2981 0.3681
C26_3 C 0.172(4) 0.232(4) 0.321(4)
H37_3 H 0.204 0.2158 0.3282
C27_3 C 0.140(4) 0.209(4) 0.287(4)
C28_3 C 0.091(8) 0.227(4) 0.286(5)
H38_3 H 0.0643 0.2086 0.2665
C29_3 C 0.156(4) 0.162(4) 0.252(3)
C30_3 C 0.178(4) 0.118(4) 0.276(4)
H39_3 H 0.1844 0.1183 0.3149
C31_3 C 0.192(4) 0.075(3) 0.248(5)
C32_3 C 0.185(5) 0.075(4) 0.187(4)
C33_3 C 0.161(4) 0.115(3) 0.159(4)
H40_3 H 0.1541 0.1123 0.1203
C34_3 C 0.145(4) 0.162(3) 0.191(4)
C35_3 C 0.133(4) 0.209(4) 0.158(3)
C36_3 C 0.092(6) 0.207(4) 0.119(4)
H41_3 H 0.0712 0.1771 0.1151
C37_3 C 0.083(4) 0.251(5) 0.087(3)
H42_3 H 0.056 0.249 0.0594
C38_3 C 0.107(4) 0.295(2) 0.090(3)
C39_3 C 0.145(4) 0.299(3) 0.129(3)
H43_3 H 0.1638 0.3304 0.1326
C40_3 C 0.158(4) 0.256(3) 0.165(3)
H44_3 H 0.1837 0.261 0.1933
C41_3 C 0.096(4) 0.343(4) 0.050(3)
O17_3 O 0.046(2) 0.435(2) 0.467(2)
Zn1_2 Zn 0.0375(3) 0.4070(4) 0.5485(4)
Zn2 Zn 0.1193(3) 0.4418(4) 0.4455(3)
C73_3 C 0.0006 0.6925 0.4883
C74_3 C 0.0599 0.7383 0.4309
H73_3 H 0.0824 0.769 0.4279
H74_3 H 0.0334 0.7394 0.4013
H75_3 H 0.0809 0.7067 0.4269
C75_3 C 0.0635 0.7582 0.5394
H76_3 H 0.0398 0.7555 0.5715
H77_3 H 0.0739 0.7947 0.5343
H78_3 H 0.0945 0.7368 0.5462
C77_3 C 0.0146 0.5937 0.7398
H80_3 H 0.0197 0.5801 0.7777
H81_3 H 0.0212 0.6313 0.7395
H82_3 H 0.0388 0.5764 0.7141
N3_3 N 0.0346 0.7382 0.4847
O36_2 O 0.166(2) 0.437(2) 0.510(2)
O38_2 O 0.116(2) 0.379(2) 0.556(2)
O39_2 O 0.0400(19) 0.5456(19) 0.535(2)
O41_2 O 0.073(3) 0.477(2) 0.578(2)
O43_2 O 0.133(2) 0.509(3) 0.408(2)
O45_2 O 0.049(2) 0.538(2) 0.4066(19)
Zn15_2 Zn 0.0582(4) 0.3807(3) 0.9455(3)
C5_3 C 0.2702 0.9812 0.3251
H4_3 H 0.2843 0.972 0.2878
H5_3 H 0.2988 0.9832 0.3528
C6_3 C 0.251(10) 0.899(6) 0.357(16)
H6_3 H 0.249 0.8959 0.3979
H7_3 H 0.2889 0.9008 0.3474
C7_3 C 0.232(17) 0.850(9) 0.334(11)
H8_3 H 0.1965 0.8449 0.3481
H9_3 H 0.2543 0.8219 0.349
C8_3 C 0.204(5) 0.845(3) 0.099(6)
H10_3 H 0.1662 0.8491 0.0899
H11_3 H 0.2156 0.8103 0.0852
C9_3 C 0.240(9) 0.893(3) 0.073(9)
H12_3 H 0.2739 0.8964 0.0923
H13_3 H 0.2452 0.8899 0.0323
C10_3 C 0.230(6) 0.986(4) 0.076(5)
H14_3 H 0.2358 0.9891 0.0353
H15_3 H 0.2648 0.9847 0.0949
C12_3 C 0.145(4) 0.676(3) 0.293(3)
C13_3 C 0.094(4) 0.670(4) 0.308(4)
H18_3 H 0.0682 0.6939 0.2948
C14_3 C 0.080(5) 0.626(5) 0.344(4)
H19_3 H 0.0454 0.6226 0.3568
C15_3 C 0.115(3) 0.590(4) 0.360(3)
C16_3 C 0.164(5) 0.593(4) 0.342(4)
H20_3 H 0.1868 0.5656 0.3507
C17_3 C 0.185(5) 0.638(4) 0.308(4)
H21_3 H 0.2204 0.6414 0.2981
C18_3 C 0.099(4) 0.541(5) 0.394(3)
O4_3 O 0.229(5) 0.947(5) 0.342(6)
O5_3 O 0.231(3) 0.846(2) 0.274(3)
O6_3 O 0.212(3) 0.849(2) 0.158(3)
O7_3 O 0.202(3) 0.940(2) 0.088(3)
O11_2 O 0.0456(19) 0.5400(19) 0.035(2)
C42_3 C 0.196(5) 0.809(4) 0.188(3)
C43_3 C 0.205(6) 0.807(3) 0.249(4)
C44_3 C 0.186(4) 0.767(5) 0.278(4)
H45_3 H 0.1875 0.7703 0.3172
C45_3 C 0.162(4) 0.719(3) 0.256(3)
C46_3 C 0.151(3) 0.722(4) 0.197(3)
C47_3 C 0.167(3) 0.765(3) 0.163(4)
H46_3 H 0.1588 0.7652 0.1247
C48_3 C 0.118(4) 0.680(3) 0.170(3)
C49_3 C 0.067(5) 0.683(4) 0.171(5)
H47_3 H 0.0506 0.7074 0.1942
C50_3 C 0.035(4) 0.648(5) 0.136(5)
C51_3 C 0.060(3) 0.606(3) 0.105(3)
C52_3 C 0.114(4) 0.603(3) 0.104(3)
H49_3 H 0.1328 0.5809 0.0795
C53_3 C 0.141(4) 0.639(4) 0.144(7)
H50_3 H 0.1765 0.6317 0.1531
C54_3 C 0.026(3) 0.571(3) 0.071(3)
C59_3 C 0.7298 0.0188 0.3251
H54_3 H 0.7157 0.028 0.2878
H55_3 H 0.7012 0.0168 0.3528
C60_3 C 0.749(10) 0.101(6) 0.357(16)
H56_3 H 0.751 0.1041 0.3979
H57_3 H 0.7111 0.0992 0.3474
C61_3 C 0.768(17) 0.150(9) 0.334(11)
H58_3 H 0.8035 0.1551 0.3481
H59_3 H 0.7457 0.1781 0.349
C62_3 C 0.796(5) 0.155(3) 0.099(6)
H60_3 H 0.8338 0.1509 0.0899
H61_3 H 0.7844 0.1897 0.0852
C63_3 C 0.760(9) 0.107(3) 0.073(9)
H62_3 H 0.7261 0.1036 0.0923
H63_3 H 0.7548 0.1101 0.0323
C64_3 C 0.770(6) 0.014(4) 0.076(5)
H64_3 H 0.7642 0.0109 0.0353
H65_3 H 0.7352 0.0153 0.0949
C66_3 C 0.855(4) 0.324(3) 0.293(3)
C67_3 C 0.906(4) 0.330(4) 0.308(4)
H68_3 H 0.9318 0.3061 0.2948
C68_3 C 0.920(5) 0.374(5) 0.344(4)
H69_3 H 0.9546 0.3774 0.3568
C69_3 C 0.885(3) 0.410(4) 0.360(3)
C70_3 C 0.836(5) 0.407(4) 0.342(4)
H70_3 H 0.8132 0.4344 0.3507
C71_3 C 0.815(5) 0.362(4) 0.308(4)
H71_3 H 0.7796 0.3586 0.2981
C72_3 C 0.901(4) 0.459(5) 0.394(3)
O21_3 O 0.771(5) 0.053(5) 0.342(6)
O22_3 O 0.769(3) 0.154(2) 0.274(3)
O23_3 O 0.788(3) 0.151(2) 0.158(3)
O24_3 O 0.798(3) 0.060(2) 0.088(3)
O28_2 O 0.9544(19) 0.4600(19) 0.035(2)
O30_2 O 0.867(2) 0.491(3) 0.408(2)
O31_2 O 0.951(2) 0.462(2) 0.4066(19)
C96_3 C 0.804(5) 0.191(4) 0.188(3)
C97_3 C 0.795(6) 0.193(3) 0.249(4)
C98_3 C 0.814(4) 0.233(5) 0.278(4)
H95_3 H 0.8125 0.2297 0.3172
C99_3 C 0.838(4) 0.281(3) 0.256(3)
C100_3 C 0.849(3) 0.278(4) 0.197(3)
C101_3 C 0.833(3) 0.235(3) 0.163(4)
H96_3 H 0.8412 0.2348 0.1247
C102_3 C 0.882(4) 0.320(3) 0.170(3)
C103_3 C 0.933(5) 0.317(4) 0.171(5)
H97_3 H 0.9494 0.2926 0.1942
C104_3 C 0.965(4) 0.352(5) 0.136(5)
C105_3 C 0.940(3) 0.394(3) 0.105(3)
C106_3 C 0.886(4) 0.397(3) 0.104(3)
H99_3 H 0.8672 0.4191 0.0795
C107_3 C 0.859(4) 0.361(4) 0.144(7)
H100_3 H 0.8235 0.3683 0.1531
C108_3 C 0.974(3) 0.429(3) 0.071(3)
Zn6 Zn 0.9070(4) 0.5375(3) 0.0485(4)
Zn13 Zn 0.8807(3) 0.5582(4) 0.4455(3)
Zn16_2 Zn 1.0000 0.5000 0.4675(4)
Zn18_2 Zn 1.0000 0.5000 0.9675(4)
C19_3 C 0.9994 0.3075 0.4883
C20_3 C 0.9401 0.2617 0.4309
H23_3 H 0.9176 0.231 0.4279
H24_3 H 0.9666 0.2606 0.4013
H25_3 H 0.9191 0.2933 0.4269
C21_3 C 0.9365 0.2418 0.5394
H26_3 H 0.9602 0.2445 0.5715
H27_3 H 0.9261 0.2053 0.5343
H28_3 H 0.9055 0.2632 0.5462
C23_3 C 0.9854 0.4063 0.7398
H30_3 H 0.9803 0.4199 0.7777
H31_3 H 0.9788 0.3687 0.7395
H32_3 H 0.9612 0.4236 0.7141
N1_3 N 0.9654 0.2618 0.4847
C55_3 C 0.902(4) 0.650(4) 0.380(3)
C56_3 C 0.890(3) 0.698(4) 0.346(3)
C57_3 C 0.922(4) 0.724(4) 0.315(4)
H51_3 H 0.956 0.7098 0.31
C58_3 C 0.7654 0.9658 0.3237
H52_3 H 0.7939 0.9668 0.3516
H53_3 H 0.7443 0.9339 0.3291
C65_3 C 0.801(4) 0.971(3) 0.098(5)
H66_3 H 0.7883 0.9372 0.083
H67_3 H 0.8383 0.975 0.0861
H72_3 H 0.9811 0.6842 0.4557
C76_3 C 0.949(4) 0.599(5) 0.669(3)
H79_3 H 0.9129 0.6033 0.66
C78_3 C 0.927(6) 0.570(9) 0.769(5)
H83_3 H 0.9481 0.5587 0.8009
H84_3 H 0.904 0.5409 0.7576
H85_3 H 0.9057 0.5999 0.7795
N4_3 N 0.961(4) 0.584(7) 0.722(4)
O18_3 O 0.866(2) 0.622(2) 0.400(2)
O19_3 O 0.952(2) 0.638(3) 0.382(2)
O20_3 O 0.784(3) 0.970(3) 0.269(3)
O25_3 O 0.797(3) 0.972(2) 0.159(3)
O26_2 O 0.937(2) 0.666(2) 0.010(2)
O27_2 O 0.879(2) 0.616(2) 0.056(2)
O32_3 O 0.9946 0.6643 0.5281
O33_3 O 0.983(2) 0.606(3) 0.632(2)
C79_3 C 0.839(5) 0.720(4) 0.348(5)
H86_3 H 0.8118 0.7019 0.3681
C80_3 C 0.828(4) 0.768(4) 0.321(4)
H87_3 H 0.796 0.7842 0.3282
C81_3 C 0.860(4) 0.791(4) 0.287(4)
C82_3 C 0.909(8) 0.773(4) 0.286(5)
H88_3 H 0.9357 0.7914 0.2665
C83_3 C 0.844(4) 0.838(4) 0.252(3)
C84_3 C 0.822(4) 0.882(4) 0.276(4)
H89_3 H 0.8156 0.8817 0.3149
C85_3 C 0.808(4) 0.925(3) 0.248(5)
C86_3 C 0.815(5) 0.925(4) 0.187(4)
C87_3 C 0.839(4) 0.885(3) 0.159(4)
H90_3 H 0.8459 0.8877 0.1203
C88_3 C 0.855(4) 0.838(3) 0.191(4)
C89_3 C 0.867(4) 0.791(4) 0.158(3)
C90_3 C 0.908(6) 0.793(4) 0.119(4)
H91_3 H 0.9288 0.8229 0.1151
C91_3 C 0.917(4) 0.749(5) 0.087(3)
H92_3 H 0.944 0.751 0.0594
C92_3 C 0.893(4) 0.705(2) 0.090(3)
C93_3 C 0.855(4) 0.701(3) 0.129(3)
H93_3 H 0.8362 0.6696 0.1326
C94_3 C 0.842(4) 0.744(3) 0.165(3)
H94_3 H 0.8163 0.739 0.1933
C95_3 C 0.904(4) 0.657(4) 0.050(3)
O34_3 O 0.954(2) 0.565(2) 0.467(2)
Zn4_2 Zn 0.9625(3) 0.5930(4) 0.5485(4)
O35_2 O 0.834(2) 0.563(2) 0.510(2)
O37_2 O 0.884(2) 0.621(2) 0.556(2)
O40_2 O 0.9600(19) 0.4544(19) 0.535(2)
O42_2 O 0.927(3) 0.523(2) 0.578(2)
Zn14_2 Zn 0.9418(4) 0.6193(3) 0.9455(3)
O12_2 O 0.977(2) 0.573(3) 0.078(2)
H48_3 H 0.9987 0.6534 0.1336
C75_4 C 0.2582 0.5635 0.0394
H76_4 H 0.2555 0.5398 0.0715
H77_4 H 0.2947 0.5739 0.0343
H78_4 H 0.2368 0.5945 0.0462
C76_4 C 0.099(5) 0.449(4) 0.169(3)
H79_4 H 0.1033 0.4129 0.16
C77_4 C 0.0937 0.5146 0.2398
H80_4 H 0.0801 0.5197 0.2777
H81_4 H 0.1313 0.5212 0.2395
H82_4 H 0.0764 0.5388 0.2141
C78_4 C 0.070(9) 0.427(6) 0.269(5)
H83_4 H 0.0587 0.4481 0.3009
H84_4 H 0.0409 0.404 0.2576
H85_4 H 0.0999 0.4057 0.2795
N4_4 N 0.084(7) 0.461(4) 0.222(4)
O32_4 O 0.1643 0.4946 0.0281
O33_4 O 0.106(3) 0.483(2) 0.132(2)
C55_4 C 0.150(4) 0.402(4) 0.880(3)
C56_4 C 0.198(4) 0.390(3) 0.846(3)
C57_4 C 0.224(4) 0.422(4) 0.815(4)
H51_4 H 0.2098 0.456 0.81
C58_4 C 0.4658 0.2654 0.8237
H52_4 H 0.4668 0.2939 0.8516
H53_4 H 0.4339 0.2443 0.8291
C59_4 C 0.5188 0.2298 0.8251
H54_4 H 0.528 0.2157 0.7878
H55_4 H 0.5168 0.2012 0.8528
C60_4 C 0.601(6) 0.249(10) 0.857(16)
H56_4 H 0.6041 0.251 0.8979
H57_4 H 0.5992 0.2111 0.8474
C61_4 C 0.650(9) 0.268(17) 0.834(11)
H58_4 H 0.6551 0.3035 0.8481
H59_4 H 0.6781 0.2457 0.849
C62_4 C 0.655(3) 0.296(5) 0.599(6)
H60_4 H 0.6509 0.3338 0.5899
H61_4 H 0.6897 0.2844 0.5852
C63_4 C 0.607(3) 0.260(9) 0.573(9)
H62_4 H 0.6036 0.2261 0.5923
H63_4 H 0.6101 0.2548 0.5323
C64_4 C 0.514(4) 0.270(6) 0.576(5)
H64_4 H 0.5109 0.2642 0.5353
H65_4 H 0.5153 0.2352 0.5949
C65_4 C 0.471(3) 0.301(4) 0.598(5)
H66_4 H 0.4372 0.2883 0.583
H67_4 H 0.475 0.3383 0.5861
C66_4 C 0.824(3) 0.355(4) 0.793(3)
C67_4 C 0.830(4) 0.406(4) 0.808(4)
H68_4 H 0.8061 0.4318 0.7948
C68_4 C 0.874(5) 0.420(5) 0.844(4)
H69_4 H 0.8774 0.4546 0.8568
C69_4 C 0.910(4) 0.385(3) 0.860(3)
C70_4 C 0.907(4) 0.336(5) 0.842(4)
H70_4 H 0.9344 0.3132 0.8507
C71_4 C 0.862(4) 0.315(5) 0.808(4)
H71_4 H 0.8586 0.2796 0.7981
C72_4 C 0.959(5) 0.401(4) 0.894(3)
C73_4 C 0.1925 0.5006 0.9883
H72_4 H 0.1842 0.4811 0.9557
C74_4 C 0.2383 0.5599 0.9309
H73_4 H 0.269 0.5824 0.9279
H74_4 H 0.2394 0.5334 0.9013
H75_4 H 0.2067 0.5809 0.9269
N3_4 N 0.2382 0.5346 0.9847
O18_4 O 0.122(2) 0.366(2) 0.900(2)
O19_4 O 0.138(3) 0.452(2) 0.882(2)
O20_4 O 0.470(3) 0.284(3) 0.769(3)
O21_4 O 0.553(5) 0.271(5) 0.842(6)
O22_4 O 0.654(2) 0.269(3) 0.774(3)
O23_4 O 0.651(2) 0.288(3) 0.658(3)
O24_4 O 0.560(2) 0.298(3) 0.588(3)
O25_4 O 0.472(2) 0.297(3) 0.659(3)
O30_3 O 0.991(3) 0.367(2) 0.908(2)
O31_3 O 0.962(2) 0.451(2) 0.9066(19)
C79_4 C 0.220(4) 0.339(5) 0.848(5)
H86_4 H 0.2019 0.3118 0.8681
C80_4 C 0.268(4) 0.328(4) 0.821(4)
H87_4 H 0.2842 0.296 0.8282
C81_4 C 0.291(4) 0.360(4) 0.787(4)
C82_4 C 0.273(4) 0.409(8) 0.786(5)
H88_4 H 0.2914 0.4357 0.7665
C83_4 C 0.338(4) 0.344(4) 0.752(3)
C84_4 C 0.382(4) 0.322(4) 0.776(4)
H89_4 H 0.3817 0.3156 0.8149
C85_4 C 0.425(3) 0.308(4) 0.748(5)
C86_4 C 0.425(4) 0.315(5) 0.687(4)
C87_4 C 0.385(3) 0.339(4) 0.659(4)
H90_4 H 0.3877 0.3459 0.6203
C88_4 C 0.338(3) 0.355(4) 0.691(4)
C89_4 C 0.291(4) 0.367(4) 0.658(3)
C90_4 C 0.293(4) 0.408(6) 0.619(4)
H91_4 H 0.3229 0.4288 0.6151
C91_4 C 0.249(5) 0.417(4) 0.587(3)
H92_4 H 0.251 0.444 0.5594
C92_4 C 0.205(2) 0.393(4) 0.590(3)
C93_4 C 0.201(3) 0.355(4) 0.629(3)
H93_4 H 0.1696 0.3362 0.6326
C94_4 C 0.244(3) 0.342(4) 0.665(3)
H94_4 H 0.239 0.3163 0.6933
C95_4 C 0.157(4) 0.404(4) 0.550(3)
C96_4 C 0.691(4) 0.304(5) 0.688(3)
C97_4 C 0.693(3) 0.295(6) 0.749(4)
C98_4 C 0.733(5) 0.314(4) 0.778(4)
H95_4 H 0.7297 0.3125 0.8172
C99_4 C 0.781(3) 0.338(4) 0.756(3)
C100_4 C 0.778(4) 0.349(3) 0.697(3)
C101_4 C 0.735(3) 0.333(3) 0.663(4)
H96_4 H 0.7348 0.3412 0.6247
C102_4 C 0.820(3) 0.382(4) 0.670(3)
C103_4 C 0.817(4) 0.433(5) 0.671(5)
H97_4 H 0.7926 0.4494 0.6942
C104_4 C 0.852(5) 0.465(4) 0.636(5)
H98_4 H 0.8466 0.5013 0.6336
C105_4 C 0.894(3) 0.440(3) 0.605(3)
C106_4 C 0.897(3) 0.386(4) 0.604(3)
H99_4 H 0.9191 0.3672 0.5795
C107_4 C 0.861(4) 0.359(4) 0.644(7)
H100_4 H 0.8683 0.3235 0.6531
C108_4 C 0.929(3) 0.474(3) 0.571(3)
O34_4 O 0.065(2) 0.454(2) 0.967(2)
O43_3 O 0.009(3) 0.633(2) 0.908(2)
O45_3 O 0.038(2) 0.549(2) 0.9066(19)
C21_4 C 0.7418 0.4365 0.0394
H26_4 H 0.7445 0.4602 0.0715
H27_4 H 0.7053 0.4261 0.0343
H28_4 H 0.7632 0.4055 0.0462
C22_4 C 0.901(5) 0.551(4) 0.169(3)
H29_4 H 0.8967 0.5871 0.16
C23_4 C 0.9063 0.4854 0.2398
H30_4 H 0.9199 0.4803 0.2777
H31_4 H 0.8687 0.4788 0.2395
H32_4 H 0.9236 0.4612 0.2141
C24_4 C 0.930(9) 0.573(6) 0.269(5)
H33_4 H 0.9413 0.5519 0.3009
H34_4 H 0.9591 0.596 0.2576
H35_4 H 0.9001 0.5943 0.2795
N2_4 N 0.916(7) 0.539(4) 0.222(4)
O15_4 O 0.8357 0.5054 0.0281
O16_4 O 0.894(3) 0.517(2) 0.132(2)
C1_4 C 0.850(4) 0.598(4) 0.880(3)
C2_4 C 0.802(4) 0.610(3) 0.846(3)
C3_4 C 0.776(4) 0.578(4) 0.815(4)
H1_4 H 0.7902 0.544 0.81
C4_4 C 0.5342 0.7346 0.8237
H2_4 H 0.5332 0.7061 0.8516
H3_4 H 0.5661 0.7557 0.8291
C5_4 C 0.4812 0.7702 0.8251
H4_4 H 0.472 0.7843 0.7878
H5_4 H 0.4832 0.7988 0.8528
C6_4 C 0.399(6) 0.751(10) 0.857(16)
H6_4 H 0.3959 0.749 0.8979
H7_4 H 0.4008 0.7889 0.8474
C7_4 C 0.350(9) 0.732(17) 0.834(11)
H8_4 H 0.3449 0.6965 0.8481
H9_4 H 0.3219 0.7543 0.849
C8_4 C 0.345(3) 0.704(5) 0.599(6)
H10_4 H 0.3491 0.6662 0.5899
H11_4 H 0.3103 0.7156 0.5852
C9_4 C 0.393(3) 0.740(9) 0.573(9)
H12_4 H 0.3964 0.7739 0.5923
H13_4 H 0.3899 0.7452 0.5323
C10_4 C 0.486(4) 0.730(6) 0.576(5)
H14_4 H 0.4891 0.7358 0.5353
H15_4 H 0.4847 0.7648 0.5949
C11_4 C 0.529(3) 0.699(4) 0.598(5)
H16_4 H 0.5628 0.7117 0.583
H17_4 H 0.525 0.6617 0.5861
C12_4 C 0.176(3) 0.645(4) 0.793(3)
C13_4 C 0.170(4) 0.594(4) 0.808(4)
H18_4 H 0.1939 0.5682 0.7948
C14_4 C 0.126(5) 0.580(5) 0.844(4)
H19_4 H 0.1226 0.5454 0.8568
C15_4 C 0.090(4) 0.615(3) 0.860(3)
C16_4 C 0.093(4) 0.664(5) 0.842(4)
H20_4 H 0.0656 0.6868 0.8507
C17_4 C 0.138(4) 0.685(5) 0.808(4)
H21_4 H 0.1414 0.7204 0.7981
C18_4 C 0.041(5) 0.599(4) 0.894(3)
C19_4 C 0.8075 0.4994 0.9883
H22_4 H 0.8158 0.5189 0.9557
C20_4 C 0.7617 0.4401 0.9309
H23_4 H 0.731 0.4176 0.9279
H24_4 H 0.7606 0.4666 0.9013
H25_4 H 0.7933 0.4191 0.9269
N1_4 N 0.7618 0.4654 0.9847
O1_4 O 0.878(2) 0.634(2) 0.900(2)
O2_4 O 0.862(3) 0.548(2) 0.882(2)
O3_4 O 0.530(3) 0.716(3) 0.769(3)
O4_4 O 0.447(5) 0.729(5) 0.842(6)
O5_4 O 0.346(2) 0.731(3) 0.774(3)
O6_4 O 0.349(2) 0.712(3) 0.658(3)
O7_4 O 0.440(2) 0.702(3) 0.588(3)
O8_4 O 0.528(2) 0.703(3) 0.659(3)
C25_4 C 0.780(4) 0.661(5) 0.848(5)
H36_4 H 0.7981 0.6882 0.8681
C26_4 C 0.732(4) 0.672(4) 0.821(4)
H37_4 H 0.7158 0.704 0.8282
C27_4 C 0.709(4) 0.640(4) 0.787(4)
C28_4 C 0.727(4) 0.591(8) 0.786(5)
H38_4 H 0.7086 0.5643 0.7665
C29_4 C 0.662(4) 0.656(4) 0.752(3)
C30_4 C 0.618(4) 0.678(4) 0.776(4)
H39_4 H 0.6183 0.6844 0.8149
C31_4 C 0.575(3) 0.692(4) 0.748(5)
C32_4 C 0.575(4) 0.685(5) 0.687(4)
C33_4 C 0.615(3) 0.661(4) 0.659(4)
H40_4 H 0.6123 0.6541 0.6203
C34_4 C 0.662(3) 0.645(4) 0.691(4)
C35_4 C 0.709(4) 0.633(4) 0.658(3)
C36_4 C 0.707(4) 0.592(6) 0.619(4)
H41_4 H 0.6771 0.5712 0.6151
C37_4 C 0.751(5) 0.583(4) 0.587(3)
H42_4 H 0.749 0.556 0.5594
C38_4 C 0.795(2) 0.607(4) 0.590(3)
C39_4 C 0.799(3) 0.645(4) 0.629(3)
H43_4 H 0.8304 0.6638 0.6326
C40_4 C 0.756(3) 0.658(4) 0.665(3)
H44_4 H 0.761 0.6837 0.6933
C41_4 C 0.843(4) 0.596(4) 0.550(3)
C42_4 C 0.309(4) 0.696(5) 0.688(3)
C43_4 C 0.307(3) 0.705(6) 0.749(4)
C44_4 C 0.267(5) 0.686(4) 0.778(4)
H45_4 H 0.2703 0.6875 0.8172
C45_4 C 0.219(3) 0.662(4) 0.756(3)
C46_4 C 0.222(4) 0.651(3) 0.697(3)
C47_4 C 0.265(3) 0.667(3) 0.663(4)
H46_4 H 0.2652 0.6588 0.6247
C48_4 C 0.180(3) 0.618(4) 0.670(3)
C49_4 C 0.183(4) 0.567(5) 0.671(5)
H47_4 H 0.2074 0.5506 0.6942
C50_4 C 0.148(5) 0.535(4) 0.636(5)
H48_4 H 0.1534 0.4987 0.6336
C51_4 C 0.106(3) 0.560(3) 0.605(3)
C52_4 C 0.103(3) 0.614(4) 0.604(3)
H49_4 H 0.0809 0.6328 0.5795
C53_4 C 0.139(4) 0.641(4) 0.644(7)
H50_4 H 0.1317 0.6765 0.6531
C54_4 C 0.071(3) 0.526(3) 0.571(3)
O17_4 O 0.935(2) 0.546(2) 0.967(2)
N5 N 0.7802 0.5615 0.276
H101 H 0.820603 0.5615 0.276
H102 H 0.766732 0.594489 0.255563
H103 H 0.766732 0.528511 0.255563
H104 H 0.766732 0.5615 0.316874
N5_2 N 0.2802 0.9385 0.224
H101_2 H 0.320603 0.9385 0.224
H102_2 H 0.266732 0.905511 0.244437
H103_2 H 0.266732 0.971489 0.244437
H104_2 H 0.266732 0.9385 0.183126
N5_3 N 0.2198 0.4385 0.276
H101_3 H 0.179397 0.4385 0.276
H102_3 H 0.233268 0.405511 0.255563
H103_3 H 0.233268 0.471489 0.255563
H104_3 H 0.233268 0.4385 0.316874
N5_4 N 0.7198 0.0615 0.224
H101_4 H 0.679397 0.0615 0.224
H102_4 H 0.733268 0.0944888 0.244437
H103_4 H 0.733268 0.0285112 0.244437
H104_4 H 0.733268 0.0615 0.183126
N5_5 N 0.9385 0.7198 0.776
H101_5 H 0.9385 0.679397 0.776
H102_5 H 0.905511 0.733268 0.755563
H103_5 H 0.971489 0.733268 0.755563
H104_5 H 0.9385 0.733268 0.816874
N5_6 N 0.4385 0.7802 0.724
H101_6 H 0.4385 0.820603 0.724
H102_6 H 0.405511 0.766732 0.744437
H103_6 H 0.471489 0.766732 0.744437
H104_6 H 0.4385 0.766732 0.683126
N5_7 N 0.5615 0.2198 0.724
H101_7 H 0.5615 0.179397 0.724
H102_7 H 0.594489 0.233268 0.744437
H103_7 H 0.528511 0.233268 0.744437
H104_7 H 0.5615 0.233268 0.683126
N5_8 N 0.0615 0.2802 0.776
H101_8 H 0.0615 0.320603 0.776
H102_8 H 0.0944888 0.266732 0.755563
H103_8 H 0.0285112 0.266732 0.755563
H104_8 H 0.0615 0.266732 0.816874
Cl1 Cl 0.720(11) 0.853(8) 0.012(5)
Cl1_2 Cl 0.220(11) 0.647(8) 0.488(5)
Cl1_3 Cl 0.280(11) 0.147(8) 0.012(5)
Cl1_4 Cl 0.780(11) 0.353(8) 0.488(5)
Cl1_5 Cl 0.647(8) 0.780(11) 0.512(5)
Cl1_6 Cl 0.147(8) 0.720(11) 0.988(5)
Cl1_7 Cl 0.853(8) 0.280(11) 0.988(5)
Cl1_8 Cl 0.353(8) 0.220(11) 0.512(5)
loop_
_geom_bond_atom_site_label_1
_geom_bond_atom_site_label_2
_geom_bond_site_symmetry_1
_geom_bond_site_symmetry_2
C1 C2 1_555 1_555
C2 C3 1_555 1_555
C3 H1 1_555 1_555
C4 H2 1_555 1_555
H3 C4 1_555 1_555
C5 C4 1_555 1_555
H4 C5 1_555 1_555
H5 C5 1_555 1_555
C6 H6 1_555 1_555
H7 C6 1_555 1_555
C7 C6 1_555 1_555
H8 C7 1_555 1_555
H9 C7 1_555 1_555
C8 H10 1_555 1_555
H11 C8 1_555 1_555
C9 C8 1_555 1_555
H12 C9 1_555 1_555
H13 C9 1_555 1_555
C10 H14 1_555 1_555
H15 C10 1_555 1_555
C11 C10 1_555 1_555
H16 C11 1_555 1_555
H17 C11 1_555 1_555
C12 C13 1_555 1_555
C13 H18 1_555 1_555
C14 C13 1_555 1_555
H19 C14 1_555 1_555
C15 C14 1_555 1_555
C16 C15 1_555 1_555
H20 C16 1_555 1_555
C17 C12 1_555 1_555
H21 C17 1_555 1_555
C18 C15 1_555 1_555
C19 H22 1_555 1_555
C20 H23 1_555 1_555
H24 C20 1_555 1_555
H25 C20 1_555 1_555
N1 C19 1_555 1_555
O1 C1 1_555 1_555
O2 C1 1_555 1_555
O3 C4 1_555 1_555
O4 C5 1_555 1_555
O5 C7 1_555 1_555
O6 C8 1_555 1_555
O7 C9 1_555 1_555
O8 C11 1_555 1_555
O9 C41 1_555 1_555
O10 C41 1_555 1_555
O11 C54 1_555 1_555
O12 C54 1_555 1_555
O13 C18 1_555 1_555
O14 C18 1_555 1_555
C25 C2 1_555 1_555
H36 C25 1_555 1_555
C26 C25 1_555 1_555
H37 C26 1_555 1_555
C27 C26 1_555 1_555
C28 C3 1_555 1_555
H38 C28 1_555 1_555
C29 C27 1_555 1_555
C30 C29 1_555 1_555
H39 C30 1_555 1_555
C31 O3 1_555 1_555
C32 O8 1_555 1_555
C33 C32 1_555 1_555
H40 C33 1_555 1_555
C34 C29 1_555 1_555
C35 C34 1_555 1_555
C36 C35 1_555 1_555
H41 C36 1_555 1_555
C37 C36 1_555 1_555
H42 C37 1_555 1_555
C38 C37 1_555 1_555
C39 C38 1_555 1_555
H43 C39 1_555 1_555
C40 C35 1_555 1_555
H44 C40 1_555 1_555
C41 C38 1_555 1_555
C42 O6 1_555 1_555
C43 O5 1_555 1_555
C44 C43 1_555 1_555
H45 C44 1_555 1_555
C45 C12 1_555 1_555
C46 C45 1_555 1_555
C47 C42 1_555 1_555
H46 C47 1_555 1_555
C48 C46 1_555 1_555
C49 C48 1_555 1_555
H47 C49 1_555 1_555
C50 C49 1_555 1_555
H48 C50 1_555 1_555
C51 C50 1_555 1_555
C52 C51 1_555 1_555
H49 C52 1_555 1_555
C53 C48 1_555 1_555
H50 C53 1_555 1_555
C54 C51 1_555 1_555
Zn12 O1 1_555 1_555
Zn17 O17 1_555 1_555
O46 Zn17 1_555 1_555
Zn8 O12 1_555 1_555
Zn11 O10 1_555 1_555
Zn15 O9 1_555 1_555
Zn17_2 O14 1_555 1_555
Zn19_2 O11 1_555 1_555
C6 O4 1_555 1_555
C10 O7 1_555 1_555
C16 C17 1_555 1_555
C20 N1 1_555 1_555
C27 C28 1_555 1_555
C30 C31 1_555 1_555
C31 C32 1_555 1_555
C33 C34 1_555 1_555
C39 C40 1_555 1_555
C42 C43 1_555 1_555
C44 C45 1_555 1_555
C46 C47 1_555 1_555
C52 C53 1_555 1_555
O17 Zn12 1_555 1_555
C21 H26 1_555 1_555
H27 C21 1_555 1_555
H28 C21 1_555 1_555
C22 H29 1_555 1_555
C23 H30 1_555 1_555
H31 C23 1_555 1_555
H32 C23 1_555 1_555
C24 H33 1_555 1_555
H34 C24 1_555 1_555
H35 C24 1_555 1_555
N2 C22 1_555 1_555
O16 C22 1_555 1_555
Zn1 O15 1_555 1_555
O38 Zn1 1_555 1_555
O40 Zn1 1_555 1_555
O41 Zn1 1_555 1_555
C23 N2 1_555 1_555
C24 N2 1_555 1_555
O16 Zn1 1_555 1_555
C55 C56 1_555 1_555
C56 C57 1_555 1_555
C57 H51 1_555 1_555
C58 H52 1_555 1_555
H53 C58 1_555 1_555
C59 C58 1_555 1_555
H54 C59 1_555 1_555
H55 C59 1_555 1_555
C60 H56 1_555 1_555
H57 C60 1_555 1_555
C61 C60 1_555 1_555
H58 C61 1_555 1_555
H59 C61 1_555 1_555
C62 H60 1_555 1_555
H61 C62 1_555 1_555
C63 C62 1_555 1_555
H62 C63 1_555 1_555
H63 C63 1_555 1_555
C64 H64 1_555 1_555
H65 C64 1_555 1_555
C65 C64 1_555 1_555
H66 C65 1_555 1_555
H67 C65 1_555 1_555
C66 C67 1_555 1_555
C67 H68 1_555 1_555
C68 C67 1_555 1_555
H69 C68 1_555 1_555
C69 C68 1_555 1_555
C70 C69 1_555 1_555
H70 C70 1_555 1_555
C71 C66 1_555 1_555
H71 C71 1_555 1_555
C72 C69 1_555 1_555
C73 H72 1_555 1_555
C74 H73 1_555 1_555
H74 C74 1_555 1_555
H75 C74 1_555 1_555
N3 C73 1_555 1_555
O18 C55 1_555 1_555
O19 C55 1_555 1_555
O20 C58 1_555 1_555
O21 C59 1_555 1_555
O22 C61 1_555 1_555
O23 C62 1_555 1_555
O24 C63 1_555 1_555
O25 C65 1_555 1_555
O26 C95 1_555 1_555
O27 C95 1_555 1_555
O28 C108 1_555 1_555
O29 C108 1_555 1_555
O44 C72 1_555 1_555
O46 C72 1_555 1_555
C79 C56 1_555 1_555
H86 C79 1_555 1_555
C80 C79 1_555 1_555
H87 C80 1_555 1_555
C81 C80 1_555 1_555
C82 C57 1_555 1_555
H88 C82 1_555 1_555
C83 C81 1_555 1_555
C84 C83 1_555 1_555
H89 C84 1_555 1_555
C85 O20 1_555 1_555
C86 O25 1_555 1_555
C87 C86 1_555 1_555
H90 C87 1_555 1_555
C88 C83 1_555 1_555
C89 C88 1_555 1_555
C90 C89 1_555 1_555
H91 C90 1_555 1_555
C91 C90 1_555 1_555
H92 C91 1_555 1_555
C92 C91 1_555 1_555
C93 C92 1_555 1_555
H93 C93 1_555 1_555
C94 C89 1_555 1_555
H94 C94 1_555 1_555
C95 C92 1_555 1_555
C96 O23 1_555 1_555
C97 O22 1_555 1_555
C98 C97 1_555 1_555
H95 C98 1_555 1_555
C99 C66 1_555 1_555
C100 C99 1_555 1_555
C101 C96 1_555 1_555
H96 C101 1_555 1_555
C102 C100 1_555 1_555
C103 C102 1_555 1_555
H97 C103 1_555 1_555
C104 C103 1_555 1_555
H98 C104 1_555 1_555
C105 C104 1_555 1_555
C106 C105 1_555 1_555
H99 C106 1_555 1_555
C107 C102 1_555 1_555
H100 C107 1_555 1_555
C108 C105 1_555 1_555
O34 Zn17_2 1_555 1_555
Zn5 O18 1_555 1_555
Zn8 O27 1_555 1_555
Zn11 O29 1_555 1_555
Zn14 O26 1_555 1_555
Zn19 O28 1_555 1_555
C60 O21 1_555 1_555
C64 O24 1_555 1_555
C70 C71 1_555 1_555
C74 N3 1_555 1_555
C81 C82 1_555 1_555
C84 C85 1_555 1_555
C85 C86 1_555 1_555
C87 C88 1_555 1_555
C93 C94 1_555 1_555
C96 C97 1_555 1_555
C98 C99 1_555 1_555
C100 C101 1_555 1_555
C106 C107 1_555 1_555
O34 Zn5 1_555 1_555
C75 H76 1_555 1_555
H77 C75 1_555 1_555
H78 C75 1_555 1_555
C76 H79 1_555 1_555
C77 H80 1_555 1_555
H81 C77 1_555 1_555
H82 C77 1_555 1_555
C78 H83 1_555 1_555
H84 C78 1_555 1_555
H85 C78 1_555 1_555
N4 C76 1_555 1_555
O33 C76 1_555 1_555
Zn4 O32 1_555 1_555
O37 Zn4 1_555 1_555
O42 Zn4 1_555 1_555
C77 N4 1_555 1_555
C78 N4 1_555 1_555
O33 Zn4 1_555 1_555
Zn4 O39 1_555 1_555
H54_2 C59_2 1_555 1_555
H55_2 C59_2 1_555 1_555
C60_2 H56_2 1_555 1_555
H57_2 C60_2 1_555 1_555
C61_2 C60_2 1_555 1_555
H58_2 C61_2 1_555 1_555
H59_2 C61_2 1_555 1_555
C62_2 H60_2 1_555 1_555
H61_2 C62_2 1_555 1_555
C63_2 C62_2 1_555 1_555
H62_2 C63_2 1_555 1_555
H63_2 C63_2 1_555 1_555
C64_2 H64_2 1_555 1_555
H65_2 C64_2 1_555 1_555
C66_2 C67_2 1_555 1_555
C67_2 H68_2 1_555 1_555
C68_2 C67_2 1_555 1_555
H69_2 C68_2 1_555 1_555
C69_2 C68_2 1_555 1_555
C70_2 C69_2 1_555 1_555
H70_2 C70_2 1_555 1_555
C71_2 C66_2 1_555 1_555
H71_2 C71_2 1_555 1_555
C72_2 C69_2 1_555 1_555
O21_2 C59_2 1_555 1_555
O22_2 C61_2 1_555 1_555
O23_2 C62_2 1_555 1_555
O24_2 C63_2 1_555 1_555
O40 C108_2 1_555 1_555
O30 C72_2 1_555 1_555
O31 C72_2 1_555 1_555
C96_2 O23_2 1_555 1_555
C97_2 O22_2 1_555 1_555
C98_2 C97_2 1_555 1_555
H95_2 C98_2 1_555 1_555
C99_2 C66_2 1_555 1_555
C100_2 C99_2 1_555 1_555
C101_2 C96_2 1_555 1_555
H96_2 C101_2 1_555 1_555
C102_2 C100_2 1_555 1_555
C103_2 C102_2 1_555 1_555
H97_2 C103_2 1_555 1_555
C104_2 C103_2 1_555 1_555
C105_2 C104_2 1_555 1_555
C106_2 C105_2 1_555 1_555
H99_2 C106_2 1_555 1_555
C107_2 C102_2 1_555 1_555
H100_2 C107_2 1_555 1_555
C108_2 C105_2 1_555 1_555
Zn15 O30 1_555 1_555
Zn19 O31 1_555 1_555
C60_2 O21_2 1_555 1_555
C64_2 O24_2 1_555 1_555
C70_2 C71_2 1_555 1_555
C96_2 C97_2 1_555 1_555
C98_2 C99_2 1_555 1_555
C100_2 C101_2 1_555 1_555
C106_2 C107_2 1_555 1_555
C20_2 H23_2 1_555 1_555
H24_2 C20_2 1_555 1_555
H25_2 C20_2 1_555 1_555
C21_2 H26_2 1_555 1_555
H27_2 C21_2 1_555 1_555
H28_2 C21_2 1_555 1_555
C23_2 H30_2 1_555 1_555
H31_2 C23_2 1_555 1_555
H32_2 C23_2 1_555 1_555
N1_2 C19_2 1_555 1_555
C55_2 C56_2 1_555 1_555
C56_2 C57_2 1_555 1_555
C57_2 H51_2 1_555 1_555
C58_2 H52_2 1_555 1_555
H53_2 C58_2 1_555 1_555
H66_2 C65_2 1_555 1_555
H67_2 C65_2 1_555 1_555
C76_2 H79_2 1_555 1_555
C78_2 H83_2 1_555 1_555
H84_2 C78_2 1_555 1_555
H85_2 C78_2 1_555 1_555
N4_2 C76_2 1_555 1_555
O18_2 C55_2 1_555 1_555
O19_2 C55_2 1_555 1_555
O20_2 C58_2 1_555 1_555
O25_2 C65_2 1_555 1_555
O36 C95_2 1_555 1_555
O38 C95_2 1_555 1_555
O33_2 C76_2 1_555 1_555
C79_2 C56_2 1_555 1_555
H86_2 C79_2 1_555 1_555
C80_2 C79_2 1_555 1_555
H87_2 C80_2 1_555 1_555
C81_2 C80_2 1_555 1_555
C82_2 C57_2 1_555 1_555
H88_2 C82_2 1_555 1_555
C83_2 C81_2 1_555 1_555
C84_2 C83_2 1_555 1_555
H89_2 C84_2 1_555 1_555
C85_2 O20_2 1_555 1_555
C86_2 O25_2 1_555 1_555
C87_2 C86_2 1_555 1_555
H90_2 C87_2 1_555 1_555
C88_2 C83_2 1_555 1_555
C89_2 C88_2 1_555 1_555
C90_2 C89_2 1_555 1_555
H91_2 C90_2 1_555 1_555
C91_2 C90_2 1_555 1_555
H92_2 C91_2 1_555 1_555
C92_2 C91_2 1_555 1_555
C93_2 C92_2 1_555 1_555
H93_2 C93_2 1_555 1_555
C94_2 C89_2 1_555 1_555
H94_2 C94_2 1_555 1_555
C95_2 C92_2 1_555 1_555
O34_2 Zn19 1_555 1_555
Zn11 O32_2 1_555 1_555
Zn15 O18_2 1_555 1_555
C20_2 N1_2 1_555 1_555
C21_2 N1_2 1_555 1_555
C78_2 N4_2 1_555 1_555
O33_2 Zn11 1_555 1_555
C81_2 C82_2 1_555 1_555
C84_2 C85_2 1_555 1_555
C85_2 C86_2 1_555 1_555
C87_2 C88_2 1_555 1_555
C93_2 C94_2 1_555 1_555
O34_2 Zn11 1_555 1_555
O34_2 Zn15 1_555 1_555
C1_2 C2_2 1_555 1_555
C2_2 C3_2 1_555 1_555
C3_2 H1_2 1_555 1_555
C4_2 H2_2 1_555 1_555
H3_2 C4_2 1_555 1_555
H16_2 C11_2 1_555 1_555
H17_2 C11_2 1_555 1_555
C22_2 H29_2 1_555 1_555
C24_2 H33_2 1_555 1_555
H34_2 C24_2 1_555 1_555
H35_2 C24_2 1_555 1_555
N2_2 C22_2 1_555 1_555
O1_2 C1_2 1_555 1_555
O2_2 C1_2 1_555 1_555
O3_2 C4_2 1_555 1_555
O8_2 C11_2 1_555 1_555
O35 C41_2 1_555 1_555
O37 C41_2 1_555 1_555
O16_2 C22_2 1_555 1_555
C25_2 C2_2 1_555 1_555
H36_2 C25_2 1_555 1_555
C26_2 C25_2 1_555 1_555
H37_2 C26_2 1_555 1_555
C27_2 C26_2 1_555 1_555
C28_2 C3_2 1_555 1_555
H38_2 C28_2 1_555 1_555
C29_2 C27_2 1_555 1_555
C30_2 C29_2 1_555 1_555
H39_2 C30_2 1_555 1_555
C31_2 O3_2 1_555 1_555
C32_2 O8_2 1_555 1_555
C33_2 C32_2 1_555 1_555
H40_2 C33_2 1_555 1_555
C34_2 C29_2 1_555 1_555
C35_2 C34_2 1_555 1_555
C36_2 C35_2 1_555 1_555
H41_2 C36_2 1_555 1_555
C37_2 C36_2 1_555 1_555
H42_2 C37_2 1_555 1_555
C38_2 C37_2 1_555 1_555
C39_2 C38_2 1_555 1_555
H43_2 C39_2 1_555 1_555
C40_2 C35_2 1_555 1_555
H44_2 C40_2 1_555 1_555
C41_2 C38_2 1_555 1_555
O17_2 Zn8 1_555 1_555
Zn8 O15_2 1_555 1_555
Zn14 O1_2 1_555 1_555
Zn19_2 O17_2 1_555 1_555
C74_2 H73_2 1_555 1_555
H74_2 C74_2 1_555 1_555
H75_2 C74_2 1_555 1_555
C75_2 H76_2 1_555 1_555
H77_2 C75_2 1_555 1_555
H78_2 C75_2 1_555 1_555
C77_2 H80_2 1_555 1_555
H81_2 C77_2 1_555 1_555
H82_2 C77_2 1_555 1_555
N3_2 C73_2 1_555 1_555
O43 Zn14 1_555 1_555
O45 Zn19_2 1_555 1_555
C24_2 N2_2 1_555 1_555
O16_2 Zn8 1_555 1_555
C27_2 C28_2 1_555 1_555
C30_2 C31_2 1_555 1_555
C31_2 C32_2 1_555 1_555
C33_2 C34_2 1_555 1_555
C39_2 C40_2 1_555 1_555
O17_2 Zn14 1_555 1_555
C74_2 N3_2 1_555 1_555
C75_2 N3_2 1_555 1_555
H4_2 C5_2 1_555 1_555
H5_2 C5_2 1_555 1_555
C6_2 H6_2 1_555 1_555
H7_2 C6_2 1_555 1_555
C7_2 C6_2 1_555 1_555
H8_2 C7_2 1_555 1_555
H9_2 C7_2 1_555 1_555
C8_2 H10_2 1_555 1_555
H11_2 C8_2 1_555 1_555
C9_2 C8_2 1_555 1_555
H12_2 C9_2 1_555 1_555
H13_2 C9_2 1_555 1_555
C10_2 H14_2 1_555 1_555
H15_2 C10_2 1_555 1_555
C12_2 C13_2 1_555 1_555
C13_2 H18_2 1_555 1_555
C14_2 C13_2 1_555 1_555
H19_2 C14_2 1_555 1_555
C15_2 C14_2 1_555 1_555
C16_2 C15_2 1_555 1_555
H20_2 C16_2 1_555 1_555
C17_2 C12_2 1_555 1_555
H21_2 C17_2 1_555 1_555
C18_2 C15_2 1_555 1_555
O4_2 C5_2 1_555 1_555
O5_2 C7_2 1_555 1_555
O6_2 C8_2 1_555 1_555
O7_2 C9_2 1_555 1_555
O39 C54_2 1_555 1_555
O43 C18_2 1_555 1_555
O45 C18_2 1_555 1_555
C42_2 O6_2 1_555 1_555
C43_2 O5_2 1_555 1_555
C44_2 C43_2 1_555 1_555
H45_2 C44_2 1_555 1_555
C45_2 C12_2 1_555 1_555
C46_2 C45_2 1_555 1_555
C47_2 C42_2 1_555 1_555
H46_2 C47_2 1_555 1_555
C48_2 C46_2 1_555 1_555
C49_2 C48_2 1_555 1_555
H47_2 C49_2 1_555 1_555
C50_2 C49_2 1_555 1_555
C51_2 C50_2 1_555 1_555
C52_2 C51_2 1_555 1_555
H49_2 C52_2 1_555 1_555
C53_2 C48_2 1_555 1_555
H50_2 C53_2 1_555 1_555
C54_2 C51_2 1_555 1_555
C6_2 O4_2 1_555 1_555
C10_2 O7_2 1_555 1_555
C16_2 C17_2 1_555 1_555
C42_2 C43_2 1_555 1_555
C44_2 C45_2 1_555 1_555
C46_2 C47_2 1_555 1_555
C52_2 C53_2 1_555 1_555
Zn9 O29_2 1_555 1_555
C1_3 C2_3 1_555 1_555
C2_3 C3_3 1_555 1_555
C3_3 H1_3 1_555 1_555
C4_3 H2_3 1_555 1_555
H3_3 C4_3 1_555 1_555
H16_3 C11_3 1_555 1_555
H17_3 C11_3 1_555 1_555
C22_3 H29_3 1_555 1_555
C24_3 H33_3 1_555 1_555
H34_3 C24_3 1_555 1_555
H35_3 C24_3 1_555 1_555
N2_3 C22_3 1_555 1_555
O1_3 C1_3 1_555 1_555
O2_3 C1_3 1_555 1_555
O3_3 C4_3 1_555 1_555
O8_3 C11_3 1_555 1_555
O9_2 C41_3 1_555 1_555
O10_2 C41_3 1_555 1_555
O16_3 C22_3 1_555 1_555
C25_3 C2_3 1_555 1_555
H36_3 C25_3 1_555 1_555
C26_3 C25_3 1_555 1_555
H37_3 C26_3 1_555 1_555
C27_3 C26_3 1_555 1_555
C28_3 C3_3 1_555 1_555
H38_3 C28_3 1_555 1_555
C29_3 C27_3 1_555 1_555
C30_3 C29_3 1_555 1_555
H39_3 C30_3 1_555 1_555
C31_3 O3_3 1_555 1_555
C32_3 O8_3 1_555 1_555
C33_3 C32_3 1_555 1_555
H40_3 C33_3 1_555 1_555
C34_3 C29_3 1_555 1_555
C35_3 C34_3 1_555 1_555
C36_3 C35_3 1_555 1_555
H41_3 C36_3 1_555 1_555
C37_3 C36_3 1_555 1_555
H42_3 C37_3 1_555 1_555
C38_3 C37_3 1_555 1_555
C39_3 C38_3 1_555 1_555
H43_3 C39_3 1_555 1_555
C40_3 C35_3 1_555 1_555
H44_3 C40_3 1_555 1_555
C41_3 C38_3 1_555 1_555
O17_3 Zn1_2 1_555 1_555
Zn1_2 O15_3 1_555 1_555
Zn2 O1_3 1_555 1_555
Zn16 O17_3 1_555 1_555
C74_3 H73_3 1_555 1_555
H74_3 C74_3 1_555 1_555
H75_3 C74_3 1_555 1_555
C75_3 H76_3 1_555 1_555
H77_3 C75_3 1_555 1_555
H78_3 C75_3 1_555 1_555
C77_3 H80_3 1_555 1_555
H81_3 C77_3 1_555 1_555
H82_3 C77_3 1_555 1_555
N3_3 C73_3 1_555 1_555
O36_2 Zn2 1_555 1_555
O38_2 Zn1_2 1_555 1_555
O39_2 Zn16 1_555 1_555
O41_2 Zn1_2 1_555 1_555
O43_2 Zn2 1_555 1_555
O45_2 Zn16 1_555 1_555
Zn9 O10_2 1_555 1_555
C24_3 N2_3 1_555 1_555
O16_3 Zn1_2 1_555 1_555
C27_3 C28_3 1_555 1_555
C30_3 C31_3 1_555 1_555
C31_3 C32_3 1_555 1_555
C33_3 C34_3 1_555 1_555
C39_3 C40_3 1_555 1_555
O17_3 Zn2 1_555 1_555
C74_3 N3_3 1_555 1_555
C75_3 N3_3 1_555 1_555
H4_3 C5_3 1_555 1_555
H5_3 C5_3 1_555 1_555
C6_3 H6_3 1_555 1_555
H7_3 C6_3 1_555 1_555
C7_3 C6_3 1_555 1_555
H8_3 C7_3 1_555 1_555
H9_3 C7_3 1_555 1_555
C8_3 H10_3 1_555 1_555
H11_3 C8_3 1_555 1_555
C9_3 C8_3 1_555 1_555
H12_3 C9_3 1_555 1_555
H13_3 C9_3 1_555 1_555
C10_3 H14_3 1_555 1_555
H15_3 C10_3 1_555 1_555
C12_3 C13_3 1_555 1_555
C13_3 H18_3 1_555 1_555
C14_3 C13_3 1_555 1_555
H19_3 C14_3 1_555 1_555
C15_3 C14_3 1_555 1_555
C16_3 C15_3 1_555 1_555
H20_3 C16_3 1_555 1_555
C17_3 C12_3 1_555 1_555
H21_3 C17_3 1_555 1_555
C18_3 C15_3 1_555 1_555
O4_3 C5_3 1_555 1_555
O5_3 C7_3 1_555 1_555
O6_3 C8_3 1_555 1_555
O7_3 C9_3 1_555 1_555
O11_2 C54_3 1_555 1_555
O43_2 C18_3 1_555 1_555
O45_2 C18_3 1_555 1_555
C42_3 O6_3 1_555 1_555
C43_3 O5_3 1_555 1_555
C44_3 C43_3 1_555 1_555
H45_3 C44_3 1_555 1_555
C45_3 C12_3 1_555 1_555
C46_3 C45_3 1_555 1_555
C47_3 C42_3 1_555 1_555
H46_3 C47_3 1_555 1_555
C48_3 C46_3 1_555 1_555
C49_3 C48_3 1_555 1_555
H47_3 C49_3 1_555 1_555
C50_3 C49_3 1_555 1_555
C51_3 C50_3 1_555 1_555
C52_3 C51_3 1_555 1_555
H49_3 C52_3 1_555 1_555
C53_3 C48_3 1_555 1_555
H50_3 C53_3 1_555 1_555
C54_3 C51_3 1_555 1_555
Zn9 O11_2 1_555 1_555
C6_3 O4_3 1_555 1_555
C10_3 O7_3 1_555 1_555
C16_3 C17_3 1_555 1_555
C42_3 C43_3 1_555 1_555
C44_3 C45_3 1_555 1_555
C46_3 C47_3 1_555 1_555
C52_3 C53_3 1_555 1_555
H54_3 C59_3 1_555 1_555
H55_3 C59_3 1_555 1_555
C60_3 H56_3 1_555 1_555
H57_3 C60_3 1_555 1_555
C61_3 C60_3 1_555 1_555
H58_3 C61_3 1_555 1_555
H59_3 C61_3 1_555 1_555
C62_3 H60_3 1_555 1_555
H61_3 C62_3 1_555 1_555
C63_3 C62_3 1_555 1_555
H62_3 C63_3 1_555 1_555
H63_3 C63_3 1_555 1_555
C64_3 H64_3 1_555 1_555
H65_3 C64_3 1_555 1_555
C66_3 C67_3 1_555 1_555
C67_3 H68_3 1_555 1_555
C68_3 C67_3 1_555 1_555
H69_3 C68_3 1_555 1_555
C69_3 C68_3 1_555 1_555
C70_3 C69_3 1_555 1_555
H70_3 C70_3 1_555 1_555
C71_3 C66_3 1_555 1_555
H71_3 C71_3 1_555 1_555
C72_3 C69_3 1_555 1_555
O21_3 C59_3 1_555 1_555
O22_3 C61_3 1_555 1_555
O23_3 C62_3 1_555 1_555
O24_3 C63_3 1_555 1_555
O28_2 C108_3 1_555 1_555
O30_2 C72_3 1_555 1_555
O31_2 C72_3 1_555 1_555
C96_3 O23_3 1_555 1_555
C97_3 O22_3 1_555 1_555
C98_3 C97_3 1_555 1_555
H95_3 C98_3 1_555 1_555
C99_3 C66_3 1_555 1_555
C100_3 C99_3 1_555 1_555
C101_3 C96_3 1_555 1_555
H96_3 C101_3 1_555 1_555
C102_3 C100_3 1_555 1_555
C103_3 C102_3 1_555 1_555
H97_3 C103_3 1_555 1_555
C104_3 C103_3 1_555 1_555
C105_3 C104_3 1_555 1_555
C106_3 C105_3 1_555 1_555
H99_3 C106_3 1_555 1_555
C107_3 C102_3 1_555 1_555
H100_3 C107_3 1_555 1_555
C108_3 C105_3 1_555 1_555
Zn6 O28_2 1_555 1_555
Zn13 O30_2 1_555 1_555
Zn16_2 O31_2 1_555 1_555
C60_3 O21_3 1_555 1_555
C64_3 O24_3 1_555 1_555
C70_3 C71_3 1_555 1_555
C96_3 C97_3 1_555 1_555
C98_3 C99_3 1_555 1_555
C100_3 C101_3 1_555 1_555
C106_3 C107_3 1_555 1_555
C20_3 H23_3 1_555 1_555
H24_3 C20_3 1_555 1_555
H25_3 C20_3 1_555 1_555
C21_3 H26_3 1_555 1_555
H27_3 C21_3 1_555 1_555
H28_3 C21_3 1_555 1_555
C23_3 H30_3 1_555 1_555
H31_3 C23_3 1_555 1_555
H32_3 C23_3 1_555 1_555
N1_3 C19_3 1_555 1_555
C55_3 C56_3 1_555 1_555
C56_3 C57_3 1_555 1_555
C57_3 H51_3 1_555 1_555
C58_3 H52_3 1_555 1_555
H53_3 C58_3 1_555 1_555
H66_3 C65_3 1_555 1_555
H67_3 C65_3 1_555 1_555
C76_3 H79_3 1_555 1_555
C78_3 H83_3 1_555 1_555
H84_3 C78_3 1_555 1_555
H85_3 C78_3 1_555 1_555
N4_3 C76_3 1_555 1_555
O18_3 C55_3 1_555 1_555
O19_3 C55_3 1_555 1_555
O20_3 C58_3 1_555 1_555
O25_3 C65_3 1_555 1_555
O26_2 C95_3 1_555 1_555
O27_2 C95_3 1_555 1_555
O33_3 C76_3 1_555 1_555
C79_3 C56_3 1_555 1_555
H86_3 C79_3 1_555 1_555
C80_3 C79_3 1_555 1_555
H87_3 C80_3 1_555 1_555
C81_3 C80_3 1_555 1_555
C82_3 C57_3 1_555 1_555
H88_3 C82_3 1_555 1_555
C83_3 C81_3 1_555 1_555
C84_3 C83_3 1_555 1_555
H89_3 C84_3 1_555 1_555
C85_3 O20_3 1_555 1_555
C86_3 O25_3 1_555 1_555
C87_3 C86_3 1_555 1_555
H90_3 C87_3 1_555 1_555
C88_3 C83_3 1_555 1_555
C89_3 C88_3 1_555 1_555
C90_3 C89_3 1_555 1_555
H91_3 C90_3 1_555 1_555
C91_3 C90_3 1_555 1_555
H92_3 C91_3 1_555 1_555
C92_3 C91_3 1_555 1_555
C93_3 C92_3 1_555 1_555
H93_3 C93_3 1_555 1_555
C94_3 C89_3 1_555 1_555
H94_3 C94_3 1_555 1_555
C95_3 C92_3 1_555 1_555
O34_3 Zn16_2 1_555 1_555
Zn4_2 O32_3 1_555 1_555
Zn13 O18_3 1_555 1_555
O35_2 Zn13 1_555 1_555
O37_2 Zn4_2 1_555 1_555
O42_2 Zn4_2 1_555 1_555
Zn6 O27_2 1_555 1_555
C20_3 N1_3 1_555 1_555
C21_3 N1_3 1_555 1_555
Zn16_2 O40_2 1_555 1_555
C78_3 N4_3 1_555 1_555
O33_3 Zn4_2 1_555 1_555
C81_3 C82_3 1_555 1_555
C84_3 C85_3 1_555 1_555
C85_3 C86_3 1_555 1_555
C87_3 C88_3 1_555 1_555
C93_3 C94_3 1_555 1_555
O34_3 Zn4_2 1_555 1_555
O34_3 Zn13 1_555 1_555
Zn6 O12_2 1_555 1_555
C75_4 H76_4 1_555 1_555
H77_4 C75_4 1_555 1_555
H78_4 C75_4 1_555 1_555
C76_4 H79_4 1_555 1_555
C77_4 H80_4 1_555 1_555
H81_4 C77_4 1_555 1_555
H82_4 C77_4 1_555 1_555
C78_4 H83_4 1_555 1_555
H84_4 C78_4 1_555 1_555
H85_4 C78_4 1_555 1_555
N4_4 C76_4 1_555 1_555
O33_4 C76_4 1_555 1_555
Zn9 O32_4 1_555 1_555
C77_4 N4_4 1_555 1_555
C78_4 N4_4 1_555 1_555
O33_4 Zn9 1_555 1_555
C55_4 C56_4 1_555 1_555
C56_4 C57_4 1_555 1_555
C57_4 H51_4 1_555 1_555
C58_4 H52_4 1_555 1_555
H53_4 C58_4 1_555 1_555
C59_4 C58_4 1_555 1_555
H54_4 C59_4 1_555 1_555
H55_4 C59_4 1_555 1_555
C60_4 H56_4 1_555 1_555
H57_4 C60_4 1_555 1_555
C61_4 C60_4 1_555 1_555
H58_4 C61_4 1_555 1_555
H59_4 C61_4 1_555 1_555
C62_4 H60_4 1_555 1_555
H61_4 C62_4 1_555 1_555
C63_4 C62_4 1_555 1_555
H62_4 C63_4 1_555 1_555
H63_4 C63_4 1_555 1_555
C64_4 H64_4 1_555 1_555
H65_4 C64_4 1_555 1_555
C65_4 C64_4 1_555 1_555
H66_4 C65_4 1_555 1_555
H67_4 C65_4 1_555 1_555
C66_4 C67_4 1_555 1_555
C67_4 H68_4 1_555 1_555
C68_4 C67_4 1_555 1_555
H69_4 C68_4 1_555 1_555
C69_4 C68_4 1_555 1_555
C70_4 C69_4 1_555 1_555
H70_4 C70_4 1_555 1_555
C71_4 C66_4 1_555 1_555
H71_4 C71_4 1_555 1_555
C72_4 C69_4 1_555 1_555
C73_4 H72_4 1_555 1_555
C74_4 H73_4 1_555 1_555
H74_4 C74_4 1_555 1_555
H75_4 C74_4 1_555 1_555
N3_4 C73_4 1_555 1_555
O18_4 C55_4 1_555 1_555
O19_4 C55_4 1_555 1_555
O20_4 C58_4 1_555 1_555
O21_4 C59_4 1_555 1_555
O22_4 C61_4 1_555 1_555
O23_4 C62_4 1_555 1_555
O24_4 C63_4 1_555 1_555
O25_4 C65_4 1_555 1_555
O36_2 C95_4 1_555 1_555
O38_2 C95_4 1_555 1_555
O40_2 C108_4 1_555 1_555
O42_2 C108_4 1_555 1_555
O30_3 C72_4 1_555 1_555
O31_3 C72_4 1_555 1_555
C79_4 C56_4 1_555 1_555
H86_4 C79_4 1_555 1_555
C80_4 C79_4 1_555 1_555
H87_4 C80_4 1_555 1_555
C81_4 C80_4 1_555 1_555
C82_4 C57_4 1_555 1_555
H88_4 C82_4 1_555 1_555
C83_4 C81_4 1_555 1_555
C84_4 C83_4 1_555 1_555
H89_4 C84_4 1_555 1_555
C85_4 O20_4 1_555 1_555
C86_4 O25_4 1_555 1_555
C87_4 C86_4 1_555 1_555
H90_4 C87_4 1_555 1_555
C88_4 C83_4 1_555 1_555
C89_4 C88_4 1_555 1_555
C90_4 C89_4 1_555 1_555
H91_4 C90_4 1_555 1_555
C91_4 C90_4 1_555 1_555
H92_4 C91_4 1_555 1_555
C92_4 C91_4 1_555 1_555
C93_4 C92_4 1_555 1_555
H93_4 C93_4 1_555 1_555
C94_4 C89_4 1_555 1_555
H94_4 C94_4 1_555 1_555
C95_4 C92_4 1_555 1_555
C96_4 O23_4 1_555 1_555
C97_4 O22_4 1_555 1_555
C98_4 C97_4 1_555 1_555
H95_4 C98_4 1_555 1_555
C99_4 C66_4 1_555 1_555
C100_4 C99_4 1_555 1_555
C101_4 C96_4 1_555 1_555
H96_4 C101_4 1_555 1_555
C102_4 C100_4 1_555 1_555
C103_4 C102_4 1_555 1_555
H97_4 C103_4 1_555 1_555
C104_4 C103_4 1_555 1_555
H98_4 C104_4 1_555 1_555
C105_4 C104_4 1_555 1_555
C106_4 C105_4 1_555 1_555
H99_4 C106_4 1_555 1_555
C107_4 C102_4 1_555 1_555
H100_4 C107_4 1_555 1_555
C108_4 C105_4 1_555 1_555
O34_4 Zn18 1_555 1_555
Zn15_2 O18_4 1_555 1_555
O45_3 Zn18 1_555 1_555
Zn18_2 O31_3 1_555 1_555
C60_4 O21_4 1_555 1_555
C64_4 O24_4 1_555 1_555
C70_4 C71_4 1_555 1_555
C74_4 N3_4 1_555 1_555
C81_4 C82_4 1_555 1_555
C84_4 C85_4 1_555 1_555
C85_4 C86_4 1_555 1_555
C87_4 C88_4 1_555 1_555
C93_4 C94_4 1_555 1_555
C96_4 C97_4 1_555 1_555
C98_4 C99_4 1_555 1_555
C100_4 C101_4 1_555 1_555
C106_4 C107_4 1_555 1_555
O34_4 Zn15_2 1_555 1_555
C21_4 H26_4 1_555 1_555
H27_4 C21_4 1_555 1_555
H28_4 C21_4 1_555 1_555
C22_4 H29_4 1_555 1_555
C23_4 H30_4 1_555 1_555
H31_4 C23_4 1_555 1_555
H32_4 C23_4 1_555 1_555
C24_4 H33_4 1_555 1_555
H34_4 C24_4 1_555 1_555
H35_4 C24_4 1_555 1_555
N2_4 C22_4 1_555 1_555
O16_4 C22_4 1_555 1_555
Zn6 O15_4 1_555 1_555
C23_4 N2_4 1_555 1_555
C24_4 N2_4 1_555 1_555
O16_4 Zn6 1_555 1_555
C1_4 C2_4 1_555 1_555
C2_4 C3_4 1_555 1_555
C3_4 H1_4 1_555 1_555
C4_4 H2_4 1_555 1_555
H3_4 C4_4 1_555 1_555
C5_4 C4_4 1_555 1_555
H4_4 C5_4 1_555 1_555
H5_4 C5_4 1_555 1_555
C6_4 H6_4 1_555 1_555
H7_4 C6_4 1_555 1_555
C7_4 C6_4 1_555 1_555
H8_4 C7_4 1_555 1_555
H9_4 C7_4 1_555 1_555
C8_4 H10_4 1_555 1_555
H11_4 C8_4 1_555 1_555
C9_4 C8_4 1_555 1_555
H12_4 C9_4 1_555 1_555
H13_4 C9_4 1_555 1_555
C10_4 H14_4 1_555 1_555
H15_4 C10_4 1_555 1_555
C11_4 C10_4 1_555 1_555
H16_4 C11_4 1_555 1_555
H17_4 C11_4 1_555 1_555
C12_4 C13_4 1_555 1_555
C13_4 H18_4 1_555 1_555
C14_4 C13_4 1_555 1_555
H19_4 C14_4 1_555 1_555
C15_4 C14_4 1_555 1_555
C16_4 C15_4 1_555 1_555
H20_4 C16_4 1_555 1_555
C17_4 C12_4 1_555 1_555
H21_4 C17_4 1_555 1_555
C18_4 C15_4 1_555 1_555
C19_4 H22_4 1_555 1_555
C20_4 H23_4 1_555 1_555
H24_4 C20_4 1_555 1_555
H25_4 C20_4 1_555 1_555
N1_4 C19_4 1_555 1_555
O1_4 C1_4 1_555 1_555
O2_4 C1_4 1_555 1_555
O3_4 C4_4 1_555 1_555
O4_4 C5_4 1_555 1_555
O5_4 C7_4 1_555 1_555
O6_4 C8_4 1_555 1_555
O7_4 C9_4 1_555 1_555
O8_4 C11_4 1_555 1_555
O35_2 C41_4 1_555 1_555
O37_2 C41_4 1_555 1_555
O39_2 C54_4 1_555 1_555
O41_2 C54_4 1_555 1_555
O43_3 C18_4 1_555 1_555
O45_3 C18_4 1_555 1_555
C25_4 C2_4 1_555 1_555
H36_4 C25_4 1_555 1_555
C26_4 C25_4 1_555 1_555
H37_4 C26_4 1_555 1_555
C27_4 C26_4 1_555 1_555
C28_4 C3_4 1_555 1_555
H38_4 C28_4 1_555 1_555
C29_4 C27_4 1_555 1_555
C30_4 C29_4 1_555 1_555
H39_4 C30_4 1_555 1_555
C31_4 O3_4 1_555 1_555
C32_4 O8_4 1_555 1_555
C33_4 C32_4 1_555 1_555
H40_4 C33_4 1_555 1_555
C34_4 C29_4 1_555 1_555
C35_4 C34_4 1_555 1_555
C36_4 C35_4 1_555 1_555
H41_4 C36_4 1_555 1_555
C37_4 C36_4 1_555 1_555
H42_4 C37_4 1_555 1_555
C38_4 C37_4 1_555 1_555
C39_4 C38_4 1_555 1_555
H43_4 C39_4 1_555 1_555
C40_4 C35_4 1_555 1_555
H44_4 C40_4 1_555 1_555
C41_4 C38_4 1_555 1_555
C42_4 O6_4 1_555 1_555
C43_4 O5_4 1_555 1_555
C44_4 C43_4 1_555 1_555
H45_4 C44_4 1_555 1_555
C45_4 C12_4 1_555 1_555
C46_4 C45_4 1_555 1_555
C47_4 C42_4 1_555 1_555
H46_4 C47_4 1_555 1_555
C48_4 C46_4 1_555 1_555
C49_4 C48_4 1_555 1_555
H47_4 C49_4 1_555 1_555
C50_4 C49_4 1_555 1_555
H48_4 C50_4 1_555 1_555
C51_4 C50_4 1_555 1_555
C52_4 C51_4 1_555 1_555
H49_4 C52_4 1_555 1_555
C53_4 C48_4 1_555 1_555
H50_4 C53_4 1_555 1_555
C54_4 C51_4 1_555 1_555
Zn14_2 O1_4 1_555 1_555
Zn18_2 O17_4 1_555 1_555
C6_4 O4_4 1_555 1_555
C10_4 O7_4 1_555 1_555
C16_4 C17_4 1_555 1_555
C20_4 N1_4 1_555 1_555
C27_4 C28_4 1_555 1_555
C30_4 C31_4 1_555 1_555
C31_4 C32_4 1_555 1_555
C33_4 C34_4 1_555 1_555
C39_4 C40_4 1_555 1_555
C42_4 C43_4 1_555 1_555
C44_4 C45_4 1_555 1_555
C46_4 C47_4 1_555 1_555
C52_4 C53_4 1_555 1_555
O17_4 Zn14_2 1_555 1_555
N5 H101 1_555 1_555
N5 H102 1_555 1_555
N5 H103 1_555 1_555
N5 H104 1_555 1_555
N5_2 H101_2 1_555 1_555
N5_2 H102_2 1_555 1_555
N5_2 H103_2 1_555 1_555
N5_2 H104_2 1_555 1_555
N5_3 H101_3 1_555 1_555
N5_3 H102_3 1_555 1_555
N5_3 H103_3 1_555 1_555
N5_3 H104_3 1_555 1_555
N5_4 H101_4 1_555 1_555
N5_4 H102_4 1_555 1_555
N5_4 H103_4 1_555 1_555
N5_4 H104_4 1_555 1_555
N5_5 H101_5 1_555 1_555
N5_5 H102_5 1_555 1_555
N5_5 H103_5 1_555 1_555
N5_5 H104_5 1_555 1_555
N5_6 H101_6 1_555 1_555
N5_6 H102_6 1_555 1_555
N5_6 H103_6 1_555 1_555
N5_6 H104_6 1_555 1_555
N5_7 H101_7 1_555 1_555
N5_7 H102_7 1_555 1_555
N5_7 H103_7 1_555 1_555
N5_7 H104_7 1_555 1_555
N5_8 H101_8 1_555 1_555
N5_8 H102_8 1_555 1_555
N5_8 H103_8 1_555 1_555
N5_8 H104_8 1_555 1_555

#END
