
###############################################################################
#
# This file contains modified crystal structure data generated from the
# MOF subset of the Cambridge Structural Database (CSD) v543 
# hosted by the Cambridge Crystallographic Data Centre (CCDC).
#
# This work is licensed under the Creative Commons
# Attribution-NonCommercial-ShareAlike 4.0 International License.
# To view a copy of this license, visit
# http://creativecommons.org/licenses/by-nc-sa/4.0/
# or send a letter to
# Creative Commons, PO Box 1866, Mountain View, CA 94042, USA.
#
# CIF created using the CSD Python API on 29 September 2022
# The structure has been converted into the P1 space group
# The structure has a 3D framework
# The original CSD entry EFOWUT01 is in the orthorhombic crystal system
# The framework has been calculated to contain at least 10.0% void space
# The void calculation uses a probe of radius 1.32A, grid spacing 0.4
#
###############################################################################

data_EFOWUT01
_chemical_formula_moiety         '(C160 H168 Br8 N32 O32 Zn9)n'
_symmetry_cell_setting           triclinic
_symmetry_space_group_name_H-M   'P 1'
_symmetry_Int_Tables_number      1
_space_group_name_Hall           'P 1'
loop_
_symmetry_equiv_pos_site_id
_symmetry_equiv_pos_as_xyz
1 x,y,z
_cell_length_a                   21.223(3)
_cell_length_b                   26.487(4)
_cell_length_c                   8.7459(12)
_cell_angle_alpha                90
_cell_angle_beta                 90
_cell_angle_gamma                90
_cell_volume                     4916.36
loop_
_atom_site_label
_atom_site_type_symbol
_atom_site_fract_x
_atom_site_fract_y
_atom_site_fract_z
C1 C 0.2980(11) 0.5768(14) 0.321(3)
H1 H 0.3154 0.5942 0.4077
H2 H 0.3177 0.5443 0.3114
H3 H 0.3052 0.5962 0.2303
N3 N 0.2051(7) 0.5523(5) 0.4597(15)
N4 N 0.1898(11) 0.5899(10) 0.261(3)
C8 C 0.2224(14) 0.6448(12) 0.038(3)
H13 H 0.2607 0.6527 0.0940
H14 H 0.1894 0.6675 0.0724
C9 C 0.203(2) 0.5902(12) 0.068(5)
H15 H 0.2368 0.5671 0.0408
H16 H 0.1655 0.5814 0.0117
C10 C 0.1349(12) 0.5821(10) 0.306(3)
H17 H 0.0969 0.5904 0.2596
C11 C 0.1448(8) 0.5592(7) 0.439(3)
H18 H 0.1134 0.5494 0.5071
C12 C 0.2319(10) 0.5703(10) 0.343(2)
Zn3 Zn 0.2500 0.5000 0.63710(17)
N5 N 0.6478(8) 0.7153(5) 0.5796(15)
N6 N 0.6803(8) 0.6805(7) 0.3596(18)
C30 C 0.5612(9) 0.6894(10) 0.387(2)
H28 H 0.5452 0.7224 0.3633
H29 H 0.5609 0.6690 0.2962
H30 H 0.5352 0.6740 0.4636
C31 C 0.6289(10) 0.6940(7) 0.447(2)
C32 C 0.7135(10) 0.7145(8) 0.574(2)
H31 H 0.7399 0.7283 0.6472
C33 C 0.7328(9) 0.6911(11) 0.448(2)
H32 H 0.7743 0.6832 0.4234
C34 C 0.6768(14) 0.6530(15) 0.212(3)
H33 H 0.6456 0.6692 0.1473
H34 H 0.6627 0.6188 0.2310
C35 C 0.7334(18) 0.651(2) 0.134(3)
H35 H 0.7567 0.6821 0.1521
H36 H 0.7584 0.6232 0.1717
Zn5 Zn 0.58341(8) 0.7500 0.7500
C1_2 C 0.2020(11) 0.4232(14) 0.321(3)
H1_2 H 0.1846 0.4058 0.4077
H2_2 H 0.1823 0.4557 0.3114
H3_2 H 0.1948 0.4038 0.2303
N3_2 N 0.2949(7) 0.4477(5) 0.4597(15)
N4_2 N 0.3102(11) 0.4101(10) 0.261(3)
C8_2 C 0.2776(14) 0.3552(12) 0.038(3)
H13_2 H 0.2393 0.3473 0.0940
H14_2 H 0.3106 0.3325 0.0724
C9_2 C 0.297(2) 0.4098(12) 0.068(5)
H15_2 H 0.2632 0.4329 0.0408
H16_2 H 0.3345 0.4186 0.0117
C10_2 C 0.3651(12) 0.4179(10) 0.306(3)
H17_2 H 0.4031 0.4096 0.2596
C11_2 C 0.3552(8) 0.4408(7) 0.439(3)
H18_2 H 0.3866 0.4506 0.5071
C12_2 C 0.2681(10) 0.4297(10) 0.343(2)
N5_2 N 0.8522(8) 0.2847(5) 0.5796(15)
N6_2 N 0.8197(8) 0.3195(7) 0.3596(18)
C30_2 C 0.9388(9) 0.3106(10) 0.387(2)
H28_2 H 0.9548 0.2776 0.3633
H29_2 H 0.9391 0.3310 0.2962
H30_2 H 0.9648 0.3260 0.4636
C31_2 C 0.8711(10) 0.3060(7) 0.447(2)
C32_2 C 0.7865(10) 0.2855(8) 0.574(2)
H31_2 H 0.7601 0.2717 0.6472
C33_2 C 0.7672(9) 0.3089(11) 0.448(2)
H32_2 H 0.7257 0.3168 0.4234
C34_2 C 0.8232(14) 0.3470(15) 0.212(3)
H33_2 H 0.8544 0.3308 0.1473
H34_2 H 0.8373 0.3812 0.2310
C35_2 C 0.7666(18) 0.349(2) 0.134(3)
H35_2 H 0.7433 0.3179 0.1521
H36_2 H 0.7416 0.3768 0.1717
Zn5_2 Zn 0.91659(8) 0.2500 0.7500
H18_3 H 0.3866 0.0494 0.9929
N5_3 N 0.8522(8) 0.2153(5) 0.9204(15)
C32_3 C 0.7865(10) 0.2145(8) 0.926(2)
H31_3 H 0.7601 0.2283 0.8528
Zn3_2 Zn 0.2500 -0.0000 0.86290(17)
Zn3_3 Zn 0.2500 1.0000 0.86290(17)
H18_4 H 0.1134 0.9506 0.9929
N5_4 N 0.6478(8) 0.7847(5) 0.9204(15)
C32_4 C 0.7135(10) 0.7855(8) 0.926(2)
H31_4 H 0.7399 0.7717 0.8528
O1 O 0.1686(7) 0.5039(7) 0.8276(17)
O2 O 0.1711(6) 0.4397(6) 0.6850(18)
C13 C 0.1499(8) 0.4623(7) 0.795(2)
C14 C 0.0973(8) 0.4393(7) 0.885(2)
C18 C 0.0174(8) 0.3773(7) 0.922(2)
C19 C 0.0672(8) 0.4007(7) 0.835(2)
H21 H 0.0779 0.3874 0.7397
O5 O 0.3314(7) 0.4961(7) 0.8276(17)
O6 O 0.3289(6) 0.5603(6) 0.6850(18)
O7 O 0.5005(6) 0.6885(5) 0.7325(15)
O8 O 0.5583(7) 0.6886(5) 0.9397(15)
C21 C 0.3501(8) 0.5377(7) 0.795(2)
C22 C 0.4027(8) 0.5607(7) 0.885(2)
C26 C 0.4826(8) 0.6227(7) 0.922(2)
C27 C 0.4328(8) 0.5993(7) 0.835(2)
H24 H 0.4221 0.6126 0.7397
C28 C 0.5141(8) 0.6697(7) 0.870(2)
O3 O 0.9995(6) 0.3115(5) 0.7325(15)
O4 O 0.9417(7) 0.3114(5) 0.9397(15)
C20 C 0.9859(8) 0.3303(7) 0.870(2)
O9 O 0.9995(6) 0.1885(5) 0.7675(15)
O10 O 0.9417(7) 0.1886(5) 0.5603(15)
O9_2 O 0.5005(6) 0.8115(5) 0.7675(15)
O10_2 O 0.5583(7) 0.8114(5) 0.5603(15)
O1_2 O 0.3314(7) 0.0039(7) 0.6724(17)
O6_2 O 0.1711(6) 0.0603(6) 0.8150(18)
Br2 Br 0.01268(12) 0.03471(11) 0.1961(3)
C21_2 C 0.1499(8) 0.0377(7) 0.705(2)
C22_2 C 0.0973(8) 0.0607(7) 0.615(2)
C23 C 0.0810(8) 0.0391(7) 0.477(2)
H22 H 0.1013 0.0100 0.4428
C24 C 0.0338(7) 0.0614(7) 0.389(2)
C25 C 0.0033(8) 0.1049(7) 0.4470(19)
C26_2 C 0.0174(8) 0.1227(7) 0.578(2)
C27_2 C 0.0672(8) 0.0993(7) 0.665(2)
H24_2 H 0.0779 0.1126 0.7603
O2_2 O 0.3289(6) 0.9397(6) 0.8150(18)
Br1 Br 0.48732(12) 0.96529(11) 0.1961(3)
C13_2 C 0.3501(8) 0.9623(7) 0.705(2)
C14_2 C 0.4027(8) 0.9393(7) 0.615(2)
C15 C 0.4190(8) 0.9609(7) 0.477(2)
H19 H 0.3987 0.9900 0.4428
C16 C 0.4662(7) 0.9386(7) 0.389(2)
C17 C 0.4967(8) 0.8951(7) 0.4470(19)
H20 H 0.5274 0.8792 0.3885
C18_2 C 0.4826(8) 0.8773(7) 0.578(2)
C19_2 C 0.4328(8) 0.9007(7) 0.665(2)
H21_2 H 0.4221 0.8874 0.7603
C20_2 C 0.5141(8) 0.8303(7) 0.630(2)
O5_2 O 0.1686(7) 0.9961(7) 0.6724(17)
H23 H 0.9726 0.1208 0.3885
C28_2 C 0.9859(8) 0.1697(7) 0.630(2)
Zn2 Zn 0.08341(8) 0.7500 0.2500
N1 N 0.1478(8) 0.7153(5) 0.4204(15)
N2 N 0.1803(8) 0.6805(7) 0.6404(18)
O3_2 O 0.0005(6) 0.6885(5) 0.2675(15)
O4_2 O 0.0583(7) 0.6886(5) 0.0603(15)
C2 C 0.0612(9) 0.6894(10) 0.613(2)
H4 H 0.0452 0.7224 0.6367
H5 H 0.0609 0.6690 0.7038
H6 H 0.0352 0.6740 0.5364
C3 C 0.1289(10) 0.6940(7) 0.553(2)
C4 C 0.2135(10) 0.7145(8) 0.426(2)
H7 H 0.2399 0.7283 0.3528
C5 C 0.2328(9) 0.6911(11) 0.552(2)
H8 H 0.2743 0.6832 0.5766
C6 C 0.1768(14) 0.6530(15) 0.788(3)
H9 H 0.1456 0.6692 0.8527
H10 H 0.1627 0.6188 0.7690
C7 C 0.2334(18) 0.651(2) 0.866(3)
H11 H 0.2567 0.6821 0.8479
H12 H 0.2584 0.6232 0.8283
C20_3 C 0.0141(8) 0.6697(7) 0.130(2)
N9 N 0.1478(8) 0.7847(5) 0.0796(15)
O9_3 O 0.0005(6) 0.8115(5) 0.2325(15)
O10_3 O 0.0583(7) 0.8114(5) 0.4397(15)
Zn1 Zn 0.7500 0.5000 0.36290(17)
O1_3 O 0.8314(7) 0.4961(7) 0.1724(17)
O2_3 O 0.8289(6) 0.5603(6) 0.3150(18)
C13_3 C 0.8501(8) 0.5377(7) 0.205(2)
C14_3 C 0.9027(8) 0.5607(7) 0.115(2)
C18_3 C 0.9826(8) 0.6227(7) 0.078(2)
C19_3 C 0.9328(8) 0.5993(7) 0.165(2)
H21_3 H 0.9221 0.6126 0.2603
O5_3 O 0.6686(7) 0.5039(7) 0.1724(17)
O6_3 O 0.6711(6) 0.4397(6) 0.3150(18)
O7_2 O 0.4995(6) 0.3115(5) 0.2675(15)
O8_2 O 0.4417(7) 0.3114(5) 0.0603(15)
C21_3 C 0.6499(8) 0.4623(7) 0.205(2)
C22_3 C 0.5973(8) 0.4393(7) 0.115(2)
C26_3 C 0.5174(8) 0.3773(7) 0.078(2)
C27_3 C 0.5672(8) 0.4007(7) 0.165(2)
H24_3 H 0.5779 0.3874 0.2603
C28_3 C 0.4859(8) 0.3303(7) 0.130(2)
C29 C 0.7980(11) 0.5768(14) 0.679(3)
H25 H 0.8154 0.5942 0.5923
H26 H 0.8177 0.5443 0.6886
H27 H 0.8052 0.5962 0.7697
N7 N 0.7051(7) 0.5523(5) 0.5403(15)
N8 N 0.6898(11) 0.5899(10) 0.739(3)
C36 C 0.7224(14) 0.6448(12) 0.962(3)
H37 H 0.7607 0.6527 0.9060
H38 H 0.6894 0.6675 0.9276
C37 C 0.703(2) 0.5902(12) 0.932(5)
H39 H 0.7368 0.5671 0.9592
H40 H 0.6655 0.5814 0.9883
C38 C 0.6349(12) 0.5821(10) 0.694(3)
H41 H 0.5969 0.5904 0.7404
C39 C 0.6448(8) 0.5592(7) 0.561(3)
H42 H 0.6134 0.5494 0.4929
C40 C 0.7319(10) 0.5703(10) 0.657(2)
Zn4 Zn 0.41659(8) 0.2500 0.2500
N10 N 0.7949(7) 0.4477(5) 0.5403(15)
N1_2 N 0.3522(8) 0.2847(5) 0.4204(15)
N2_2 N 0.3197(8) 0.3195(7) 0.6404(18)
C2_2 C 0.4388(9) 0.3106(10) 0.613(2)
H4_2 H 0.4548 0.2776 0.6367
H5_2 H 0.4391 0.3310 0.7038
H6_2 H 0.4648 0.3260 0.5364
C3_2 C 0.3711(10) 0.3060(7) 0.553(2)
C4_2 C 0.2865(10) 0.2855(8) 0.426(2)
H7_2 H 0.2601 0.2717 0.3528
C5_2 C 0.2672(9) 0.3089(11) 0.552(2)
H8_2 H 0.2257 0.3168 0.5766
C6_2 C 0.3232(14) 0.3470(15) 0.788(3)
H9_2 H 0.3544 0.3308 0.8527
H10_2 H 0.3373 0.3812 0.7690
C7_2 C 0.2666(18) 0.349(2) 0.866(3)
H11_2 H 0.2433 0.3179 0.8479
H12_2 H 0.2416 0.3768 0.8283
C29_2 C 0.7020(11) 0.4232(14) 0.679(3)
H25_2 H 0.6846 0.4058 0.5923
H26_2 H 0.6823 0.4557 0.6886
H27_2 H 0.6948 0.4038 0.7697
N8_2 N 0.8102(11) 0.4101(10) 0.739(3)
C36_2 C 0.7776(14) 0.3552(12) 0.962(3)
H37_2 H 0.7393 0.3473 0.9060
H38_2 H 0.8106 0.3325 0.9276
C37_2 C 0.797(2) 0.4098(12) 0.932(5)
H39_2 H 0.7632 0.4329 0.9592
H40_2 H 0.8345 0.4186 0.9883
C38_2 C 0.8651(12) 0.4179(10) 0.694(3)
H41_2 H 0.9031 0.4096 0.7404
C39_2 C 0.8552(8) 0.4408(7) 0.561(3)
H42_2 H 0.8866 0.4506 0.4929
C40_2 C 0.7681(10) 0.4297(10) 0.657(2)
N9_2 N 0.3522(8) 0.2153(5) 0.0796(15)
O9_4 O 0.4995(6) 0.1885(5) 0.2325(15)
O10_4 O 0.4417(7) 0.1886(5) 0.4397(15)
H23_2 H 0.0274 0.8792 0.6115
C28_4 C 0.0141(8) 0.8303(7) 0.370(2)
Zn1_2 Zn 0.7500 -0.0000 0.13710(17)
O2_4 O 0.6711(6) 0.0603(6) 0.1850(18)
Br1_2 Br 0.51268(12) 0.03471(11) 0.8039(3)
C4_3 C 0.2865(10) 0.2145(8) 0.074(2)
H7_3 H 0.2601 0.2283 0.1472
C13_4 C 0.6499(8) 0.0377(7) 0.295(2)
C14_4 C 0.5973(8) 0.0607(7) 0.385(2)
C15_2 C 0.5810(8) 0.0391(7) 0.523(2)
H19_2 H 0.6013 0.0100 0.5572
C16_2 C 0.5338(7) 0.0614(7) 0.611(2)
C17_2 C 0.5033(8) 0.1049(7) 0.5530(19)
H20_2 H 0.4726 0.1208 0.6115
C18_4 C 0.5174(8) 0.1227(7) 0.422(2)
C19_4 C 0.5672(8) 0.0993(7) 0.335(2)
H21_4 H 0.5779 0.1126 0.2397
C20_4 C 0.4859(8) 0.1697(7) 0.370(2)
O5_4 O 0.8314(7) 0.0039(7) 0.3276(17)
H42_3 H 0.8866 0.0494 0.0071
Zn1_3 Zn 0.7500 1.0000 0.13710(17)
O1_4 O 0.6686(7) 0.9961(7) 0.3276(17)
O6_4 O 0.8289(6) 0.9397(6) 0.1850(18)
Br2_2 Br 0.98732(12) 0.96529(11) 0.8039(3)
C21_4 C 0.8501(8) 0.9623(7) 0.295(2)
C22_4 C 0.9027(8) 0.9393(7) 0.385(2)
C23_2 C 0.9190(8) 0.9609(7) 0.523(2)
H22_2 H 0.8987 0.9900 0.5572
C24_2 C 0.9662(7) 0.9386(7) 0.611(2)
C25_2 C 0.9967(8) 0.8951(7) 0.5530(19)
C26_4 C 0.9826(8) 0.8773(7) 0.422(2)
C27_4 C 0.9328(8) 0.9007(7) 0.335(2)
H24_4 H 0.9221 0.8874 0.2397
C4_4 C 0.2135(10) 0.7855(8) 0.074(2)
H7_4 H 0.2399 0.7717 0.1472
H42_4 H 0.6134 0.9506 0.0071
H20_3 H 0.0274 0.6208 0.8885
Br1_3 Br 0.98732(12) 0.53471(11) 0.6961(3)
C15_3 C 0.9190(8) 0.5391(7) 0.977(2)
H19_3 H 0.8987 0.5100 0.9428
C16_3 C 0.9662(7) 0.5614(7) 0.889(2)
C17_3 C 0.9967(8) 0.6049(7) 0.9470(19)
Br2_3 Br 0.51268(12) 0.46529(11) 0.6961(3)
C23_3 C 0.5810(8) 0.4609(7) 0.977(2)
H22_3 H 0.6013 0.4900 0.9428
C24_3 C 0.5338(7) 0.4386(7) 0.889(2)
C25_3 C 0.5033(8) 0.3951(7) 0.9470(19)
H23_3 H 0.4726 0.3792 0.8885
C1_3 C 0.2020(11) 0.0768(14) 0.179(3)
H1_3 H 0.1846 0.0942 0.0923
H2_3 H 0.1823 0.0443 0.1886
H3_3 H 0.1948 0.0962 0.2697
N2_3 N 0.3197(8) 0.1805(7) 0.8596(18)
N3_3 N 0.2949(7) 0.0523(5) 0.0403(15)
N4_3 N 0.3102(11) 0.0899(10) 0.239(3)
C2_3 C 0.4388(9) 0.1894(10) 0.887(2)
H4_3 H 0.4548 0.2224 0.8633
H5_3 H 0.4391 0.1690 0.7962
H6_3 H 0.4648 0.1740 0.9636
C3_3 C 0.3711(10) 0.1940(7) 0.947(2)
C5_3 C 0.2672(9) 0.1911(11) 0.948(2)
H8_3 H 0.2257 0.1832 0.9234
C6_3 C 0.3232(14) 0.1530(15) 0.712(3)
H9_3 H 0.3544 0.1692 0.6473
H10_3 H 0.3373 0.1188 0.7310
C7_3 C 0.2666(18) 0.151(2) 0.634(3)
H11_3 H 0.2433 0.1821 0.6521
H12_3 H 0.2416 0.1232 0.6717
C8_3 C 0.2776(14) 0.1448(12) 0.462(3)
H13_3 H 0.2393 0.1527 0.4060
H14_3 H 0.3106 0.1675 0.4276
C9_3 C 0.297(2) 0.0902(12) 0.432(5)
H15_3 H 0.2632 0.0671 0.4592
H16_3 H 0.3345 0.0814 0.4883
C10_3 C 0.3651(12) 0.0821(10) 0.194(3)
H17_3 H 0.4031 0.0904 0.2404
C11_3 C 0.3552(8) 0.0592(7) 0.061(3)
C12_3 C 0.2681(10) 0.0703(10) 0.157(2)
C29_3 C 0.7020(11) 0.0768(14) 0.821(3)
H25_3 H 0.6846 0.0942 0.9077
H26_3 H 0.6823 0.0443 0.8114
H27_3 H 0.6948 0.0962 0.7303
N6_3 N 0.8197(8) 0.1805(7) 0.1404(18)
N7_2 N 0.7949(7) 0.0523(5) 0.9597(15)
N8_3 N 0.8102(11) 0.0899(10) 0.761(3)
C30_3 C 0.9388(9) 0.1894(10) 0.113(2)
H28_3 H 0.9548 0.2224 0.1367
H29_3 H 0.9391 0.1690 0.2038
H30_3 H 0.9648 0.1740 0.0364
C31_3 C 0.8711(10) 0.1940(7) 0.053(2)
C33_3 C 0.7672(9) 0.1911(11) 0.052(2)
H32_3 H 0.7257 0.1832 0.0766
C34_3 C 0.8232(14) 0.1530(15) 0.288(3)
H33_3 H 0.8544 0.1692 0.3527
H34_3 H 0.8373 0.1188 0.2690
C35_3 C 0.7666(18) 0.151(2) 0.366(3)
H35_3 H 0.7433 0.1821 0.3479
H36_3 H 0.7416 0.1232 0.3283
C36_3 C 0.7776(14) 0.1448(12) 0.538(3)
H37_3 H 0.7393 0.1527 0.5940
H38_3 H 0.8106 0.1675 0.5724
C37_3 C 0.797(2) 0.0902(12) 0.568(5)
H39_3 H 0.7632 0.0671 0.5408
H40_3 H 0.8345 0.0814 0.5117
C38_3 C 0.8651(12) 0.0821(10) 0.806(3)
H41_3 H 0.9031 0.0904 0.7596
C39_3 C 0.8552(8) 0.0592(7) 0.939(3)
C40_3 C 0.7681(10) 0.0703(10) 0.843(2)
N10_2 N 0.7051(7) 0.9477(5) 0.9597(15)
C1_4 C 0.2980(11) 0.9232(14) 0.179(3)
H1_4 H 0.3154 0.9058 0.0923
H2_4 H 0.3177 0.9557 0.1886
H3_4 H 0.3052 0.9038 0.2697
N2_4 N 0.1803(8) 0.8195(7) 0.8596(18)
N3_4 N 0.2051(7) 0.9477(5) 0.0403(15)
N4_4 N 0.1898(11) 0.9101(10) 0.239(3)
C2_4 C 0.0612(9) 0.8106(10) 0.887(2)
H4_4 H 0.0452 0.7776 0.8633
H5_4 H 0.0609 0.8310 0.7962
H6_4 H 0.0352 0.8260 0.9636
C3_4 C 0.1289(10) 0.8060(7) 0.947(2)
C5_4 C 0.2328(9) 0.8089(11) 0.948(2)
H8_4 H 0.2743 0.8168 0.9234
C6_4 C 0.1768(14) 0.8470(15) 0.712(3)
H9_4 H 0.1456 0.8308 0.6473
H10_4 H 0.1627 0.8812 0.7310
C7_4 C 0.2334(18) 0.849(2) 0.634(3)
H11_4 H 0.2567 0.8179 0.6521
H12_4 H 0.2584 0.8768 0.6717
C8_4 C 0.2224(14) 0.8552(12) 0.462(3)
H13_4 H 0.2607 0.8473 0.4060
H14_4 H 0.1894 0.8325 0.4276
C9_4 C 0.203(2) 0.9098(12) 0.432(5)
H15_4 H 0.2368 0.9329 0.4592
H16_4 H 0.1655 0.9186 0.4883
C10_4 C 0.1349(12) 0.9179(10) 0.194(3)
H17_4 H 0.0969 0.9096 0.2404
C11_4 C 0.1448(8) 0.9408(7) 0.061(3)
C12_4 C 0.2319(10) 0.9297(10) 0.157(2)
C29_4 C 0.7980(11) 0.9232(14) 0.821(3)
H25_4 H 0.8154 0.9058 0.9077
H26_4 H 0.8177 0.9557 0.8114
H27_4 H 0.8052 0.9038 0.7303
N6_4 N 0.6803(8) 0.8195(7) 0.1404(18)
N8_4 N 0.6898(11) 0.9101(10) 0.761(3)
C30_4 C 0.5612(9) 0.8106(10) 0.113(2)
H28_4 H 0.5452 0.7776 0.1367
H29_4 H 0.5609 0.8310 0.2038
H30_4 H 0.5352 0.8260 0.0364
C31_4 C 0.6289(10) 0.8060(7) 0.053(2)
C33_4 C 0.7328(9) 0.8089(11) 0.052(2)
H32_4 H 0.7743 0.8168 0.0766
C34_4 C 0.6768(14) 0.8470(15) 0.288(3)
H33_4 H 0.6456 0.8308 0.3527
H34_4 H 0.6627 0.8812 0.2690
C35_4 C 0.7334(18) 0.849(2) 0.366(3)
H35_4 H 0.7567 0.8179 0.3479
H36_4 H 0.7584 0.8768 0.3283
C36_4 C 0.7224(14) 0.8552(12) 0.538(3)
H37_4 H 0.7607 0.8473 0.5940
H38_4 H 0.6894 0.8325 0.5724
C37_4 C 0.703(2) 0.9098(12) 0.568(5)
H39_4 H 0.7368 0.9329 0.5408
H40_4 H 0.6655 0.9186 0.5117
C38_4 C 0.6349(12) 0.9179(10) 0.806(3)
H41_4 H 0.5969 0.9096 0.7596
C39_4 C 0.6448(8) 0.9408(7) 0.939(3)
C40_4 C 0.7319(10) 0.9297(10) 0.843(2)
Br1_4 Br 0.01268(12) 0.46529(11) 0.3039(3)
C15_4 C 0.0810(8) 0.4609(7) 0.023(2)
H19_4 H 0.1013 0.4900 0.0572
C16_4 C 0.0338(7) 0.4386(7) 0.111(2)
C17_4 C 0.0033(8) 0.3951(7) 0.0530(19)
Br2_4 Br 0.48732(12) 0.53471(11) 0.3039(3)
C23_4 C 0.4190(8) 0.5391(7) 0.023(2)
H22_4 H 0.3987 0.5100 0.0572
C24_4 C 0.4662(7) 0.5614(7) 0.111(2)
C25_4 C 0.4967(8) 0.6049(7) 0.0530(19)
H23_4 H 0.5274 0.6208 0.1115
H20_4 H 0.9726 0.3792 0.1115
loop_
_geom_bond_atom_site_label_1
_geom_bond_atom_site_label_2
_geom_bond_site_symmetry_1
_geom_bond_site_symmetry_2
C1 H1 1_555 1_555
H2 C1 1_555 1_555
H3 C1 1_555 1_555
N3 C11 1_555 1_555
N4 C9 1_555 1_555
H13 C8 1_555 1_555
H14 C8 1_555 1_555
C9 C8 1_555 1_555
H15 C9 1_555 1_555
H16 C9 1_555 1_555
C10 N4 1_555 1_555
H17 C10 1_555 1_555
C11 C10 1_555 1_555
H18 C11 1_555 1_555
C12 C1 1_555 1_555
Zn3 N3 1_555 1_555
N3 C12 1_555 1_555
N4 C12 1_555 1_555
N5 C31 1_555 1_555
N6 C31 1_555 1_555
C30 H28 1_555 1_555
H29 C30 1_555 1_555
H30 C30 1_555 1_555
C31 C30 1_555 1_555
C32 N5 1_555 1_555
H31 C32 1_555 1_555
C33 N6 1_555 1_555
H32 C33 1_555 1_555
C34 N6 1_555 1_555
H33 C34 1_555 1_555
H34 C34 1_555 1_555
C35 C34 1_555 1_555
H35 C35 1_555 1_555
H36 C35 1_555 1_555
Zn5 N5 1_555 1_555
C32 C33 1_555 1_555
C1_2 H1_2 1_555 1_555
H2_2 C1_2 1_555 1_555
H3_2 C1_2 1_555 1_555
N3_2 C11_2 1_555 1_555
N4_2 C9_2 1_555 1_555
H13_2 C8_2 1_555 1_555
H14_2 C8_2 1_555 1_555
C9_2 C8_2 1_555 1_555
H15_2 C9_2 1_555 1_555
H16_2 C9_2 1_555 1_555
C10_2 N4_2 1_555 1_555
H17_2 C10_2 1_555 1_555
C11_2 C10_2 1_555 1_555
H18_2 C11_2 1_555 1_555
C12_2 C1_2 1_555 1_555
N5_2 C31_2 1_555 1_555
N6_2 C31_2 1_555 1_555
C30_2 H28_2 1_555 1_555
H29_2 C30_2 1_555 1_555
H30_2 C30_2 1_555 1_555
C31_2 C30_2 1_555 1_555
C32_2 N5_2 1_555 1_555
H31_2 C32_2 1_555 1_555
C33_2 N6_2 1_555 1_555
H32_2 C33_2 1_555 1_555
C34_2 N6_2 1_555 1_555
H33_2 C34_2 1_555 1_555
H34_2 C34_2 1_555 1_555
C35_2 C34_2 1_555 1_555
H35_2 C35_2 1_555 1_555
H36_2 C35_2 1_555 1_555
Zn3 N3_2 1_555 1_555
Zn5_2 N5_2 1_555 1_555
N3_2 C12_2 1_555 1_555
N4_2 C12_2 1_555 1_555
C32_2 C33_2 1_555 1_555
C32_3 N5_3 1_555 1_555
H31_3 C32_3 1_555 1_555
Zn5_2 N5_3 1_555 1_555
C32_4 N5_4 1_555 1_555
H31_4 C32_4 1_555 1_555
Zn5 N5_4 1_555 1_555
Zn3 O1 1_555 1_555
O1 C13 1_555 1_555
O2 Zn3 1_555 1_555
C13 O2 1_555 1_555
C14 C13 1_555 1_555
C19 C14 1_555 1_555
H21 C19 1_555 1_555
O5 Zn3 1_555 1_555
O6 Zn3 1_555 1_555
O7 C28 1_555 1_555
O8 C28 1_555 1_555
C21 O5 1_555 1_555
C22 C21 1_555 1_555
C27 C22 1_555 1_555
H24 C27 1_555 1_555
C28 C26 1_555 1_555
Zn5 O7 1_555 1_555
C18 C19 1_555 1_555
O6 C21 1_555 1_555
O8 Zn5 1_555 1_555
C26 C27 1_555 1_555
O3 Zn5_2 1_555 1_555
O4 Zn5_2 1_555 1_555
C20 O3 1_555 1_555
O9 Zn5_2 1_555 1_555
O10 Zn5_2 1_555 1_555
O4 C20 1_555 1_555
O9_2 Zn5 1_555 1_555
O10_2 Zn5 1_555 1_555
Zn3_2 O1_2 1_555 1_555
O6_2 Zn3_2 1_555 1_555
Br2 C24 1_555 1_555
C22_2 C21_2 1_555 1_555
C23 C22_2 1_555 1_555
H22 C23 1_555 1_555
C24 C23 1_555 1_555
C25 C24 1_555 1_555
C26_2 C25 1_555 1_555
C27_2 C22_2 1_555 1_555
H24_2 C27_2 1_555 1_555
O6_2 C21_2 1_555 1_555
C26_2 C27_2 1_555 1_555
O2_2 Zn3_3 1_555 1_555
Br1 C16 1_555 1_555
C13_2 O2_2 1_555 1_555
C14_2 C13_2 1_555 1_555
C15 C14_2 1_555 1_555
H19 C15 1_555 1_555
C16 C15 1_555 1_555
C17 C16 1_555 1_555
H20 C17 1_555 1_555
C18_2 C17 1_555 1_555
C19_2 C14_2 1_555 1_555
H21_2 C19_2 1_555 1_555
C20_2 O9_2 1_555 1_555
O5_2 Zn3_3 1_555 1_555
O10_2 C20_2 1_555 1_555
C18_2 C19_2 1_555 1_555
C18_2 C20_2 1_555 1_555
O9 C28_2 1_555 1_555
O10 C28_2 1_555 1_555
Zn2 N1 1_555 1_555
N1 C3 1_555 1_555
N2 C3 1_555 1_555
O3_2 Zn2 1_555 1_555
O4_2 Zn2 1_555 1_555
C2 H4 1_555 1_555
H5 C2 1_555 1_555
H6 C2 1_555 1_555
C3 C2 1_555 1_555
C4 N1 1_555 1_555
H7 C4 1_555 1_555
C5 N2 1_555 1_555
H8 C5 1_555 1_555
C6 N2 1_555 1_555
H9 C6 1_555 1_555
H10 C6 1_555 1_555
C7 C6 1_555 1_555
H11 C7 1_555 1_555
H12 C7 1_555 1_555
C20_3 O3_2 1_555 1_555
N9 Zn2 1_555 1_555
O9_3 Zn2 1_555 1_555
O10_3 Zn2 1_555 1_555
O4_2 C20_3 1_555 1_555
C4 C5 1_555 1_555
Zn1 O1_3 1_555 1_555
O1_3 C13_3 1_555 1_555
O2_3 Zn1 1_555 1_555
C13_3 O2_3 1_555 1_555
C14_3 C13_3 1_555 1_555
C19_3 C14_3 1_555 1_555
H21_3 C19_3 1_555 1_555
O5_3 Zn1 1_555 1_555
O6_3 Zn1 1_555 1_555
O7_2 C28_3 1_555 1_555
O8_2 C28_3 1_555 1_555
C21_3 O5_3 1_555 1_555
C22_3 C21_3 1_555 1_555
C27_3 C22_3 1_555 1_555
H24_3 C27_3 1_555 1_555
C28_3 C26_3 1_555 1_555
C29 H25 1_555 1_555
H26 C29 1_555 1_555
H27 C29 1_555 1_555
N7 Zn1 1_555 1_555
N8 C37 1_555 1_555
H37 C36 1_555 1_555
H38 C36 1_555 1_555
C37 C36 1_555 1_555
H39 C37 1_555 1_555
H40 C37 1_555 1_555
C38 N8 1_555 1_555
H41 C38 1_555 1_555
C39 N7 1_555 1_555
H42 C39 1_555 1_555
C40 C29 1_555 1_555
Zn4 O7_2 1_555 1_555
N10 Zn1 1_555 1_555
C18_3 C19_3 1_555 1_555
O6_3 C21_3 1_555 1_555
O8_2 Zn4 1_555 1_555
C26_3 C27_3 1_555 1_555
N7 C40 1_555 1_555
N8 C40 1_555 1_555
C38 C39 1_555 1_555
Zn4 N1_2 1_555 1_555
N1_2 C3_2 1_555 1_555
N2_2 C3_2 1_555 1_555
C2_2 H4_2 1_555 1_555
H5_2 C2_2 1_555 1_555
H6_2 C2_2 1_555 1_555
C3_2 C2_2 1_555 1_555
C4_2 N1_2 1_555 1_555
H7_2 C4_2 1_555 1_555
C5_2 N2_2 1_555 1_555
H8_2 C5_2 1_555 1_555
C6_2 N2_2 1_555 1_555
H9_2 C6_2 1_555 1_555
H10_2 C6_2 1_555 1_555
C7_2 C6_2 1_555 1_555
H11_2 C7_2 1_555 1_555
H12_2 C7_2 1_555 1_555
C29_2 H25_2 1_555 1_555
H26_2 C29_2 1_555 1_555
H27_2 C29_2 1_555 1_555
N8_2 C37_2 1_555 1_555
H37_2 C36_2 1_555 1_555
H38_2 C36_2 1_555 1_555
C37_2 C36_2 1_555 1_555
H39_2 C37_2 1_555 1_555
H40_2 C37_2 1_555 1_555
C38_2 N8_2 1_555 1_555
H41_2 C38_2 1_555 1_555
C39_2 N10 1_555 1_555
H42_2 C39_2 1_555 1_555
C40_2 C29_2 1_555 1_555
N9_2 Zn4 1_555 1_555
O9_4 Zn4 1_555 1_555
O10_4 Zn4 1_555 1_555
C4_2 C5_2 1_555 1_555
N10 C40_2 1_555 1_555
N8_2 C40_2 1_555 1_555
C38_2 C39_2 1_555 1_555
O9_3 C28_4 1_555 1_555
O10_3 C28_4 1_555 1_555
O2_4 Zn1_2 1_555 1_555
Br1_2 C16_2 1_555 1_555
C4_3 N9_2 1_555 1_555
H7_3 C4_3 1_555 1_555
C13_4 O2_4 1_555 1_555
C14_4 C13_4 1_555 1_555
C15_2 C14_4 1_555 1_555
H19_2 C15_2 1_555 1_555
C16_2 C15_2 1_555 1_555
C17_2 C16_2 1_555 1_555
H20_2 C17_2 1_555 1_555
C18_4 C17_2 1_555 1_555
C19_4 C14_4 1_555 1_555
H21_4 C19_4 1_555 1_555
C20_4 O9_4 1_555 1_555
O5_4 Zn1_2 1_555 1_555
O10_4 C20_4 1_555 1_555
C18_4 C19_4 1_555 1_555
C18_4 C20_4 1_555 1_555
Zn1_3 O1_4 1_555 1_555
O6_4 Zn1_3 1_555 1_555
Br2_2 C24_2 1_555 1_555
C22_4 C21_4 1_555 1_555
C23_2 C22_4 1_555 1_555
H22_2 C23_2 1_555 1_555
C24_2 C23_2 1_555 1_555
C25_2 C24_2 1_555 1_555
C26_4 C25_2 1_555 1_555
C27_4 C22_4 1_555 1_555
H24_4 C27_4 1_555 1_555
O6_4 C21_4 1_555 1_555
C26_4 C27_4 1_555 1_555
C4_4 N9 1_555 1_555
H7_4 C4_4 1_555 1_555
Br1_3 C16_3 1_555 1_555
H19_3 C15_3 1_555 1_555
C16_3 C15_3 1_555 1_555
C17_3 C16_3 1_555 1_555
Br2_3 C24_3 1_555 1_555
H22_3 C23_3 1_555 1_555
C24_3 C23_3 1_555 1_555
C25_3 C24_3 1_555 1_555
H23_3 C25_3 1_555 1_555
C1_3 H1_3 1_555 1_555
H2_3 C1_3 1_555 1_555
H3_3 C1_3 1_555 1_555
N2_3 C3_3 1_555 1_555
N3_3 C11_3 1_555 1_555
N4_3 C9_3 1_555 1_555
C2_3 H4_3 1_555 1_555
H5_3 C2_3 1_555 1_555
H6_3 C2_3 1_555 1_555
C3_3 C2_3 1_555 1_555
C5_3 N2_3 1_555 1_555
H8_3 C5_3 1_555 1_555
C6_3 N2_3 1_555 1_555
H9_3 C6_3 1_555 1_555
H10_3 C6_3 1_555 1_555
C7_3 C6_3 1_555 1_555
H11_3 C7_3 1_555 1_555
H12_3 C7_3 1_555 1_555
C8_3 C7_3 1_555 1_555
H13_3 C8_3 1_555 1_555
H14_3 C8_3 1_555 1_555
C9_3 C8_3 1_555 1_555
H15_3 C9_3 1_555 1_555
H16_3 C9_3 1_555 1_555
C10_3 N4_3 1_555 1_555
H17_3 C10_3 1_555 1_555
C11_3 C10_3 1_555 1_555
C12_3 C1_3 1_555 1_555
C29_3 H25_3 1_555 1_555
H26_3 C29_3 1_555 1_555
H27_3 C29_3 1_555 1_555
N6_3 C31_3 1_555 1_555
N8_3 C37_3 1_555 1_555
C30_3 H28_3 1_555 1_555
H29_3 C30_3 1_555 1_555
H30_3 C30_3 1_555 1_555
C31_3 C30_3 1_555 1_555
C33_3 N6_3 1_555 1_555
H32_3 C33_3 1_555 1_555
C34_3 N6_3 1_555 1_555
H33_3 C34_3 1_555 1_555
H34_3 C34_3 1_555 1_555
C35_3 C34_3 1_555 1_555
H35_3 C35_3 1_555 1_555
H36_3 C35_3 1_555 1_555
C36_3 C35_3 1_555 1_555
H37_3 C36_3 1_555 1_555
H38_3 C36_3 1_555 1_555
C37_3 C36_3 1_555 1_555
H39_3 C37_3 1_555 1_555
H40_3 C37_3 1_555 1_555
C38_3 N8_3 1_555 1_555
H41_3 C38_3 1_555 1_555
C39_3 N7_2 1_555 1_555
C40_3 C29_3 1_555 1_555
N3_3 C12_3 1_555 1_555
N4_3 C12_3 1_555 1_555
N7_2 C40_3 1_555 1_555
N8_3 C40_3 1_555 1_555
C38_3 C39_3 1_555 1_555
C1_4 H1_4 1_555 1_555
H2_4 C1_4 1_555 1_555
H3_4 C1_4 1_555 1_555
N2_4 C3_4 1_555 1_555
N3_4 C11_4 1_555 1_555
N4_4 C9_4 1_555 1_555
C2_4 H4_4 1_555 1_555
H5_4 C2_4 1_555 1_555
H6_4 C2_4 1_555 1_555
C3_4 C2_4 1_555 1_555
C5_4 N2_4 1_555 1_555
H8_4 C5_4 1_555 1_555
C6_4 N2_4 1_555 1_555
H9_4 C6_4 1_555 1_555
H10_4 C6_4 1_555 1_555
C7_4 C6_4 1_555 1_555
H11_4 C7_4 1_555 1_555
H12_4 C7_4 1_555 1_555
C8_4 C7_4 1_555 1_555
H13_4 C8_4 1_555 1_555
H14_4 C8_4 1_555 1_555
C9_4 C8_4 1_555 1_555
H15_4 C9_4 1_555 1_555
H16_4 C9_4 1_555 1_555
C10_4 N4_4 1_555 1_555
H17_4 C10_4 1_555 1_555
C11_4 C10_4 1_555 1_555
C12_4 C1_4 1_555 1_555
N3_4 C12_4 1_555 1_555
N4_4 C12_4 1_555 1_555
C29_4 H25_4 1_555 1_555
H26_4 C29_4 1_555 1_555
H27_4 C29_4 1_555 1_555
N6_4 C31_4 1_555 1_555
N8_4 C37_4 1_555 1_555
C30_4 H28_4 1_555 1_555
H29_4 C30_4 1_555 1_555
H30_4 C30_4 1_555 1_555
C31_4 C30_4 1_555 1_555
C33_4 N6_4 1_555 1_555
H32_4 C33_4 1_555 1_555
C34_4 N6_4 1_555 1_555
H33_4 C34_4 1_555 1_555
H34_4 C34_4 1_555 1_555
C35_4 C34_4 1_555 1_555
H35_4 C35_4 1_555 1_555
H36_4 C35_4 1_555 1_555
C36_4 C35_4 1_555 1_555
H37_4 C36_4 1_555 1_555
H38_4 C36_4 1_555 1_555
C37_4 C36_4 1_555 1_555
H39_4 C37_4 1_555 1_555
H40_4 C37_4 1_555 1_555
C38_4 N8_4 1_555 1_555
H41_4 C38_4 1_555 1_555
C39_4 N10_2 1_555 1_555
C40_4 C29_4 1_555 1_555
N10_2 C40_4 1_555 1_555
N8_4 C40_4 1_555 1_555
C38_4 C39_4 1_555 1_555
Br1_4 C16_4 1_555 1_555
H19_4 C15_4 1_555 1_555
C16_4 C15_4 1_555 1_555
C17_4 C16_4 1_555 1_555
Br2_4 C24_4 1_555 1_555
H22_4 C23_4 1_555 1_555
C24_4 C23_4 1_555 1_555
C25_4 C24_4 1_555 1_555
H23_4 C25_4 1_555 1_555

#END
