
###############################################################################
#
# This file contains modified crystal structure data generated from the
# MOF subset of the Cambridge Structural Database (CSD) v543 
# hosted by the Cambridge Crystallographic Data Centre (CCDC).
#
# This work is licensed under the Creative Commons
# Attribution-NonCommercial-ShareAlike 4.0 International License.
# To view a copy of this license, visit
# http://creativecommons.org/licenses/by-nc-sa/4.0/
# or send a letter to
# Creative Commons, PO Box 1866, Mountain View, CA 94042, USA.
#
# CIF created using the CSD Python API on 29 September 2022
# The structure has been converted into the P1 space group
# The structure has a 3D framework
# The original CSD entry EFOXUV is in the monoclinic crystal system
# The framework has been calculated to contain at least 10.0% void space
# The void calculation uses a probe of radius 1.32A, grid spacing 0.4
# The framework is charged, counterions have been retained in the structure
#
###############################################################################

data_EFOXUV
_chemical_formula_moiety         '(C102 H82 Cl24 N8 O72 Tb8 4-)n'
_symmetry_cell_setting           triclinic
_symmetry_space_group_name_H-M   'P 1'
_symmetry_Int_Tables_number      1
_space_group_name_Hall           'P 1'
loop_
_symmetry_equiv_pos_site_id
_symmetry_equiv_pos_as_xyz
1 x,y,z
_cell_length_a                   10.703(3)
_cell_length_b                   16.170(5)
_cell_length_c                   22.076(6)
_cell_angle_alpha                90
_cell_angle_beta                 92.570(8)
_cell_angle_gamma                90
_cell_volume                     3816.8
loop_
_atom_site_label
_atom_site_type_symbol
_atom_site_fract_x
_atom_site_fract_y
_atom_site_fract_z
C10 C -0.000000 0.4639(12) 0.750000
H3 H 0.000002 0.521440 0.749997
N1 N 0.0932(10) 0.4286(11) 0.5961(8)
C12 C 0.191(2) 0.3644(16) 0.6046(11)
H5 H 0.151661 0.311801 0.610754
H6 H 0.243835 0.377871 0.639363
H7 H 0.239488 0.361941 0.569252
C13 C 0.167(5) 0.505(2) 0.597(2)
H8 H 0.185747 0.519887 0.556380
H9 H 0.242920 0.496856 0.620801
H10 H 0.119235 0.548697 0.614598
O12 O 0.0989(5) 0.4355(4) 0.7667(3)
Tb2 Tb 0.27735(3) 0.45461(2) 0.83077(2)
Cl5 Cl 0.05042(19) 0.75496(13) 0.85104(9)
Cl6 Cl 0.4354(2) 0.65616(13) 0.65228(10)
O13 O 0.1513(5) 0.8613(3) 0.7502(2)
O14 O 0.5056(5) 0.4583(3) 0.8245(2)
H11 H 0.539230 0.467513 0.859665
H12 H 0.526604 0.500014 0.803473
O15 O 0.3350(5) 0.5501(3) 0.7516(2)
O16 O 0.2832(5) 0.8101(3) 0.6605(2)
O17 O 0.1160(5) 0.4454(4) 0.9030(3)
O18 O 0.1655(5) 0.5891(3) 0.8279(2)
C17 C 0.2676(7) 0.7588(5) 0.7015(3)
C18 C 0.1836(7) 0.7849(5) 0.7520(3)
C19 C 0.1962(7) 0.6457(5) 0.7935(3)
C20 C 0.3245(7) 0.6806(5) 0.7043(4)
C21 C 0.2922(7) 0.6218(5) 0.7468(3)
C22 C 0.1497(7) 0.7279(5) 0.7941(3)
C23 C 0.0141(16) 0.4078(12) 0.8951(8)
H13 H 0.021596 0.354633 0.879674
Tb3 Tb 0.22265(3) 0.95461(2) 0.66923(2)
O19 O 0.3487(5) 0.3613(3) 0.7498(2)
O21 O 0.3529(5) 0.5526(3) 0.9068(2)
O22 O 0.2168(5) 0.3101(3) 0.8395(2)
O24 O 0.3835(5) 0.3929(3) 0.9216(2)
Tb1 Tb 0.72265(3) 0.45461(2) 0.66923(2)
Cl1 Cl 0.94958(19) 0.75496(13) 0.64896(9)
Cl2 Cl 0.56429(19) 0.69114(12) 0.51275(9)
Cl3 Cl 0.5646(2) 0.65616(13) 0.84772(10)
O1 O 0.8487(5) 0.8613(3) 0.7498(2)
O2 O 0.4944(5) 0.4583(3) 0.6755(2)
H1 H 0.460770 0.467513 0.640335
H2 H 0.473396 0.500014 0.696527
O3 O 0.6471(5) 0.5526(3) 0.5932(2)
O4 O 0.6650(5) 0.5501(3) 0.7484(2)
O5 O 0.7168(5) 0.8101(3) 0.8395(2)
O6 O 0.9011(5) 0.4355(4) 0.7333(3)
O7 O 0.3835(5) 0.6071(3) 0.4216(2)
O8 O 0.8840(5) 0.4454(4) 0.5970(3)
O9 O 0.8345(5) 0.5891(3) 0.6721(2)
C1 C 0.7324(7) 0.7588(5) 0.7985(3)
C2 C 0.5276(7) 0.5871(5) 0.5049(4)
C3 C 0.8164(7) 0.7849(5) 0.7480(3)
C4 C 0.8038(7) 0.6457(5) 0.7065(3)
C5 C 0.6755(7) 0.6806(5) 0.7957(4)
C6 C 0.7078(7) 0.6218(5) 0.7532(3)
C7 C 0.8503(7) 0.7279(5) 0.7059(3)
C8 C 0.4444(7) 0.5613(4) 0.4589(3)
C9 C 0.5799(7) 0.5317(5) 0.5478(4)
C10_2 C 1.000000 0.4639(12) 0.750000
H3_2 H 1.000002 0.521440 0.749997
C11 C 0.9859(16) 0.4078(12) 0.6049(8)
H4 H 0.978404 0.354633 0.620326
Cl4 Cl 0.43571(19) 0.30886(12) 0.48725(9)
O10 O 0.3529(5) 0.4474(3) 0.4068(2)
O11 O 0.6165(5) 0.3929(3) 0.5784(2)
C14 C 0.4724(7) 0.4129(5) 0.4951(4)
C15 C 0.5556(7) 0.4387(4) 0.5411(3)
C16 C 0.4201(7) 0.4683(5) 0.4522(4)
N2 N 0.9068(10) 0.4286(11) 0.9039(8)
C24 C 0.809(2) 0.3644(16) 0.8954(11)
H14 H 0.848339 0.311801 0.889246
H15 H 0.756165 0.377871 0.860637
H16 H 0.760512 0.361941 0.930748
C25 C 0.833(5) 0.505(2) 0.903(2)
H17 H 0.814253 0.519887 0.943620
H18 H 0.757080 0.496856 0.879199
H19 H 0.880765 0.548697 0.885402
Tb4 Tb 0.77735(3) 0.95461(2) 0.83077(2)
Tb5 Tb 0.27735(3) 0.54539(2) 0.33077(2)
O20 O 0.6513(5) 0.3613(3) 0.7502(2)
O23 O 0.7832(5) 0.3101(3) 0.6605(2)
O7_2 O 0.6165(5) 0.6071(3) 0.0784(2)
C8_2 C 0.5556(7) 0.5613(4) 0.0411(3)
Cl4_2 Cl 0.56429(19) 0.30886(12) 0.01275(9)
O10_2 O 0.6471(5) 0.4474(3) 0.0932(2)
C14_2 C 0.5276(7) 0.4129(5) 0.0049(4)
C16_2 C 0.5799(7) 0.4683(5) 0.0478(4)
Tb5_2 Tb 0.72265(3) 0.54539(2) 0.16923(2)
Cl2_2 Cl 0.43571(19) 0.69114(12) 0.98725(9)
C2_2 C 0.4724(7) 0.5871(5) 0.9951(4)
C9_2 C 0.4201(7) 0.5317(5) 0.9522(4)
C15_2 C 0.4444(7) 0.4387(4) 0.9589(3)
Cl1_2 Cl 0.44958(19) 0.25496(13) 0.64896(9)
Cl2_3 Cl 0.06429(19) 0.19114(12) 0.51275(9)
Cl3_2 Cl 0.0646(2) 0.15616(13) 0.84772(10)
O3_2 O 0.1471(5) 0.0526(3) 0.5932(2)
O4_2 O 0.1650(5) 0.0501(3) 0.7484(2)
O9_2 O 0.3345(5) 0.0891(3) 0.6721(2)
C1_2 C 0.2324(7) 0.2588(5) 0.7985(3)
C2_3 C 0.0276(7) 0.0871(5) 0.5049(4)
C3_2 C 0.3164(7) 0.2849(5) 0.7480(3)
C4_2 C 0.3038(7) 0.1457(5) 0.7065(3)
C5_2 C 0.1755(7) 0.1806(5) 0.7957(4)
C6_2 C 0.2078(7) 0.1218(5) 0.7532(3)
C7_2 C 0.3503(7) 0.2279(5) 0.7059(3)
C9_3 C 0.0799(7) 0.0317(5) 0.5478(4)
H3_3 H 0.500002 0.021440 0.749997
C13_2 C 0.667(5) 0.005(2) 0.597(2)
H8_2 H 0.685747 0.019887 0.556380
H10_2 H 0.619235 0.048697 0.614598
Cl5_2 Cl 0.55042(19) 0.25496(13) 0.85104(9)
Cl6_2 Cl 0.9354(2) 0.15616(13) 0.65228(10)
O15_2 O 0.8350(5) 0.0501(3) 0.7516(2)
O18_2 O 0.6655(5) 0.0891(3) 0.8279(2)
C17_2 C 0.7676(7) 0.2588(5) 0.7015(3)
C18_2 C 0.6836(7) 0.2849(5) 0.7520(3)
C19_2 C 0.6962(7) 0.1457(5) 0.7935(3)
C20_2 C 0.8245(7) 0.1806(5) 0.7043(4)
C21_2 C 0.7922(7) 0.1218(5) 0.7468(3)
C22_2 C 0.6497(7) 0.2279(5) 0.7941(3)
C25_2 C 0.333(5) 0.005(2) 0.903(2)
H17_2 H 0.314253 0.019887 0.943620
H19_2 H 0.380765 0.048697 0.885402
O21_2 O 0.8529(5) 0.0526(3) 0.9068(2)
O6_2 O 0.4011(5) 0.9355(4) 0.7333(3)
O8_2 O 0.3840(5) 0.9454(4) 0.5970(3)
C10_3 C 0.500000 0.9639(12) 0.750000
N1_2 N 0.5932(10) 0.9286(11) 0.5961(8)
C11_2 C 0.4859(16) 0.9078(12) 0.6049(8)
H4_2 H 0.478404 0.854633 0.620326
C12_2 C 0.691(2) 0.8644(16) 0.6046(11)
H5_2 H 0.651661 0.811801 0.610754
H6_2 H 0.743835 0.877871 0.639363
H7_2 H 0.739488 0.861941 0.569252
H9_2 H 0.742920 0.996856 0.620801
O11_2 O 0.1165(5) 0.8929(3) 0.5784(2)
C15_3 C 0.0556(7) 0.9387(4) 0.5411(3)
O12_2 O 0.5989(5) 0.9355(4) 0.7667(3)
O17_2 O 0.6160(5) 0.9454(4) 0.9030(3)
N2_2 N 0.4068(10) 0.9286(11) 0.9039(8)
C23_2 C 0.5141(16) 0.9078(12) 0.8951(8)
H13_2 H 0.521596 0.854633 0.879674
C24_2 C 0.309(2) 0.8644(16) 0.8954(11)
H14_2 H 0.348339 0.811801 0.889246
H15_2 H 0.256165 0.877871 0.860637
H16_2 H 0.260512 0.861941 0.930748
H18_2 H 0.257080 0.996856 0.879199
O24_2 O 0.8835(5) 0.8929(3) 0.9216(2)
H2_2 H 0.973396 0.000014 0.696527
O7_3 O 0.8835(5) 0.1071(3) 0.4216(2)
C8_3 C 0.9444(7) 0.0613(4) 0.4589(3)
Tb5_3 Tb 0.77735(3) 0.04539(2) 0.33077(2)
O2_2 O 0.9944(5) 0.9583(3) 0.6755(2)
H1_2 H 0.960770 0.967513 0.640335
H2_3 H 0.973396 1.000014 0.696527
Cl4_3 Cl 0.93571(19) 0.80886(12) 0.48725(9)
O10_3 O 0.8529(5) 0.9474(3) 0.4068(2)
C14_3 C 0.9724(7) 0.9129(5) 0.4951(4)
C16_3 C 0.9201(7) 0.9683(5) 0.4522(4)
O7_4 O 0.1165(5) 0.1071(3) 0.0784(2)
C8_4 C 0.0556(7) 0.0613(4) 0.0411(3)
Tb5_4 Tb 0.22265(3) 0.04539(2) 0.16923(2)
Cl4_4 Cl 0.06429(19) 0.80886(12) 0.01275(9)
O10_4 O 0.1471(5) 0.9474(3) 0.0932(2)
C14_4 C 0.0276(7) 0.9129(5) 0.0049(4)
C16_4 C 0.0799(7) 0.9683(5) 0.0478(4)
Cl2_4 Cl 0.93571(19) 0.19114(12) 0.98725(9)
C2_4 C 0.9724(7) 0.0871(5) 0.9951(4)
C9_4 C 0.9201(7) 0.0317(5) 0.9522(4)
C15_4 C 0.9444(7) 0.9387(4) 0.9589(3)
Cl1_3 Cl 0.05042(19) 0.24504(13) 0.35104(9)
Cl3_3 Cl 0.4354(2) 0.34384(13) 0.15228(10)
O1_2 O 0.1513(5) 0.1387(3) 0.2502(2)
O2_3 O 0.5056(5) 0.5417(3) 0.3245(2)
H1_3 H 0.539230 0.532487 0.359665
H2_4 H 0.526604 0.499986 0.303473
O4_3 O 0.3350(5) 0.4499(3) 0.2516(2)
O5_2 O 0.2832(5) 0.1899(3) 0.1605(2)
O6_3 O 0.0989(5) 0.5645(4) 0.2667(3)
O8_3 O 0.1160(5) 0.5546(4) 0.4030(3)
O9_3 O 0.1655(5) 0.4109(3) 0.3279(2)
C1_3 C 0.2676(7) 0.2412(5) 0.2015(3)
C3_3 C 0.1836(7) 0.2151(5) 0.2520(3)
C4_3 C 0.1962(7) 0.3543(5) 0.2935(3)
C5_3 C 0.3245(7) 0.3194(5) 0.2043(4)
C6_3 C 0.2922(7) 0.3782(5) 0.2468(3)
C7_3 C 0.1497(7) 0.2721(5) 0.2941(3)
C10_4 C -0.000000 0.5361(12) 0.250000
H3_4 H -0.000002 0.478560 0.250003
C11_3 C 0.0141(16) 0.5922(12) 0.3951(8)
H4_3 H 0.021596 0.645367 0.379674
N2_3 N 0.0932(10) 0.5714(11) 0.0961(8)
C24_3 C 0.191(2) 0.6356(16) 0.1046(11)
H14_3 H 0.151661 0.688199 0.110754
H15_3 H 0.243835 0.622129 0.139363
H16_3 H 0.239488 0.638059 0.069252
C25_3 C 0.167(5) 0.495(2) 0.097(2)
H17_3 H 0.185747 0.480113 0.056380
H18_3 H 0.242920 0.503144 0.120801
H19_3 H 0.119235 0.451303 0.114598
O20_2 O 0.3487(5) 0.6387(3) 0.2498(2)
O23_2 O 0.2168(5) 0.6899(3) 0.3395(2)
C10_5 C 1.000000 0.5361(12) 0.250000
H3_5 H 0.999998 0.478560 0.250003
N1_3 N 0.9068(10) 0.5714(11) 0.4039(8)
C12_3 C 0.809(2) 0.6356(16) 0.3954(11)
H5_3 H 0.848339 0.688199 0.389246
H6_3 H 0.756165 0.622129 0.360637
H7_3 H 0.760512 0.638059 0.430748
C13_3 C 0.833(5) 0.495(2) 0.403(2)
H8_3 H 0.814253 0.480113 0.443620
H9_3 H 0.757080 0.503144 0.379199
H10_3 H 0.880765 0.451303 0.385402
O12_3 O 0.9011(5) 0.5645(4) 0.2333(3)
Cl5_3 Cl 0.94958(19) 0.24504(13) 0.14896(9)
Cl6_3 Cl 0.5646(2) 0.34384(13) 0.34772(10)
O13_2 O 0.8487(5) 0.1387(3) 0.2498(2)
O14_2 O 0.4944(5) 0.5417(3) 0.1755(2)
H11_2 H 0.460770 0.532487 0.140335
H12_2 H 0.473396 0.499986 0.196527
O15_3 O 0.6650(5) 0.4499(3) 0.2484(2)
O16_2 O 0.7168(5) 0.1899(3) 0.3395(2)
O17_3 O 0.8840(5) 0.5546(4) 0.0970(3)
O18_3 O 0.8345(5) 0.4109(3) 0.1721(2)
C17_3 C 0.7324(7) 0.2412(5) 0.2985(3)
C18_3 C 0.8164(7) 0.2151(5) 0.2480(3)
C19_3 C 0.8038(7) 0.3543(5) 0.2065(3)
C20_3 C 0.6755(7) 0.3194(5) 0.2957(4)
C21_3 C 0.7078(7) 0.3782(5) 0.2532(3)
C22_3 C 0.8503(7) 0.2721(5) 0.2059(3)
C23_3 C 0.9859(16) 0.5922(12) 0.1049(8)
H13_3 H 0.978404 0.645367 0.120326
O19_2 O 0.6513(5) 0.6387(3) 0.2502(2)
O22_2 O 0.7832(5) 0.6899(3) 0.1605(2)
O2_4 O 0.0056(5) 0.0417(3) 0.3245(2)
H1_4 H 0.039230 0.032487 0.359665
H2_5 H 0.026604 -0.000014 0.303473
H2_6 H 0.026604 0.999986 0.303473
O6_4 O 0.5989(5) 0.0645(4) 0.2667(3)
O8_4 O 0.6160(5) 0.0546(4) 0.4030(3)
C10_6 C 0.500000 0.0361(12) 0.250000
N1_4 N 0.4068(10) 0.0714(11) 0.4039(8)
C11_4 C 0.5141(16) 0.0922(12) 0.3951(8)
H4_4 H 0.521596 0.145367 0.379674
C12_4 C 0.309(2) 0.1356(16) 0.3954(11)
H5_4 H 0.348339 0.188199 0.389246
H6_4 H 0.256165 0.122129 0.360637
H7_4 H 0.260512 0.138059 0.430748
H9_4 H 0.257080 0.003144 0.379199
O12_4 O 0.4011(5) 0.0645(4) 0.2333(3)
O17_4 O 0.3840(5) 0.0546(4) 0.0970(3)
N2_4 N 0.5932(10) 0.0714(11) 0.0961(8)
C23_4 C 0.4859(16) 0.0922(12) 0.1049(8)
H13_4 H 0.478404 0.145367 0.120326
C24_4 C 0.691(2) 0.1356(16) 0.1046(11)
H14_4 H 0.651661 0.188199 0.110754
H15_4 H 0.743835 0.122129 0.139363
H16_4 H 0.739488 0.138059 0.069252
H18_4 H 0.742920 0.003144 0.120801
Cl1_4 Cl 0.55042(19) 0.74504(13) 0.35104(9)
Cl3_4 Cl 0.9354(2) 0.84384(13) 0.15228(10)
O4_4 O 0.8350(5) 0.9499(3) 0.2516(2)
O9_4 O 0.6655(5) 0.9109(3) 0.3279(2)
C1_4 C 0.7676(7) 0.7412(5) 0.2015(3)
C3_4 C 0.6836(7) 0.7151(5) 0.2520(3)
C4_4 C 0.6962(7) 0.8543(5) 0.2935(3)
C5_4 C 0.8245(7) 0.8194(5) 0.2043(4)
C6_4 C 0.7922(7) 0.8782(5) 0.2468(3)
C7_4 C 0.6497(7) 0.7721(5) 0.2941(3)
H3_6 H 0.499998 0.978560 0.250003
C13_4 C 0.333(5) 0.995(2) 0.403(2)
H8_4 H 0.314253 0.980113 0.443620
H10_4 H 0.380765 0.951303 0.385402
Cl5_4 Cl 0.44958(19) 0.74504(13) 0.14896(9)
Cl6_4 Cl 0.0646(2) 0.84384(13) 0.34772(10)
O15_4 O 0.1650(5) 0.9499(3) 0.2484(2)
O18_4 O 0.3345(5) 0.9109(3) 0.1721(2)
C17_4 C 0.2324(7) 0.7412(5) 0.2985(3)
C18_4 C 0.3164(7) 0.7151(5) 0.2480(3)
C19_4 C 0.3038(7) 0.8543(5) 0.2065(3)
C20_4 C 0.1755(7) 0.8194(5) 0.2957(4)
C21_4 C 0.2078(7) 0.8782(5) 0.2532(3)
C22_4 C 0.3503(7) 0.7721(5) 0.2059(3)
C25_4 C 0.667(5) 0.995(2) 0.097(2)
H17_4 H 0.685747 0.980113 0.056380
H19_4 H 0.619235 0.951303 0.114598
H12_3 H 0.026604 0.000014 0.803473
O14_3 O 0.0056(5) 0.9583(3) 0.8245(2)
H11_3 H 0.039230 0.967513 0.859665
H12_4 H 0.026604 1.000014 0.803473
O14_4 O 0.9944(5) 0.0417(3) 0.1755(2)
H11_4 H 0.960770 0.032487 0.140335
H12_5 H 0.973396 -0.000014 0.196527
H12_6 H 0.973396 0.999986 0.196527
loop_
_geom_bond_atom_site_label_1
_geom_bond_atom_site_label_2
_geom_bond_site_symmetry_1
_geom_bond_site_symmetry_2
H3 C10 1_555 1_555
C12 N1 1_555 1_555
H5 C12 1_555 1_555
H6 C12 1_555 1_555
H7 C12 1_555 1_555
C13 N1 1_555 1_555
H8 C13 1_555 1_555
H9 C13 1_555 1_555
H10 C13 1_555 1_555
O12 C10 1_555 1_555
Tb2 O12 1_555 1_555
Cl5 C22 1_555 1_555
Cl6 C20 1_555 1_555
O13 C18 1_555 1_555
O14 Tb2 1_555 1_555
H11 O14 1_555 1_555
H12 O14 1_555 1_555
O15 Tb2 1_555 1_555
O16 C17 1_555 1_555
O17 Tb2 1_555 1_555
O18 Tb2 1_555 1_555
C17 C18 1_555 1_555
C18 C22 1_555 1_555
C19 O18 1_555 1_555
C20 C17 1_555 1_555
C21 O15 1_555 1_555
C22 C19 1_555 1_555
C23 O17 1_555 1_555
H13 C23 1_555 1_555
Tb3 O13 1_555 1_555
O19 Tb2 1_555 1_555
O21 Tb2 1_555 1_555
O22 Tb2 1_555 1_555
O24 Tb2 1_555 1_555
O16 Tb3 1_555 1_555
C19 C21 1_555 1_555
C20 C21 1_555 1_555
Tb1 O2 1_555 1_555
Cl1 C7 1_555 1_555
Cl2 C2 1_555 1_555
Cl3 C5 1_555 1_555
O1 C3 1_555 1_555
O2 H1 1_555 1_555
H2 O2 1_555 1_555
O3 Tb1 1_555 1_555
O4 Tb1 1_555 1_555
O5 C1 1_555 1_555
O6 Tb1 1_555 1_555
O7 C8 1_555 1_555
O8 Tb1 1_555 1_555
O9 Tb1 1_555 1_555
C1 C3 1_555 1_555
C2 C8 1_555 1_555
C3 C7 1_555 1_555
C4 O9 1_555 1_555
C5 C1 1_555 1_555
C6 O4 1_555 1_555
C7 C4 1_555 1_555
C8 C16 1_555 1_555
C9 O3 1_555 1_555
C10_2 O6 1_555 1_555
H3_2 C10_2 1_555 1_555
C11 O8 1_555 1_555
H4 C11 1_555 1_555
Cl4 C14 1_555 1_555
O10 C16 1_555 1_555
O11 Tb1 1_555 1_555
C14 C15 1_555 1_555
C15 C9 1_555 1_555
C16 C14 1_555 1_555
C24 N2 1_555 1_555
H14 C24 1_555 1_555
H15 C24 1_555 1_555
H16 C24 1_555 1_555
C25 N2 1_555 1_555
H17 C25 1_555 1_555
H18 C25 1_555 1_555
H19 C25 1_555 1_555
Tb4 O1 1_555 1_555
Tb5 O7 1_555 1_555
O20 Tb1 1_555 1_555
O23 Tb1 1_555 1_555
O5 Tb4 1_555 1_555
C2 C9 1_555 1_555
C4 C6 1_555 1_555
C5 C6 1_555 1_555
O10 Tb5 1_555 1_555
O11 C15 1_555 1_555
O7_2 C8_2 1_555 1_555
C8_2 C16_2 1_555 1_555
Cl4_2 C14_2 1_555 1_555
O10_2 C16_2 1_555 1_555
C16_2 C14_2 1_555 1_555
Tb5_2 O7_2 1_555 1_555
O10_2 Tb5_2 1_555 1_555
Cl2_2 C2_2 1_555 1_555
C9_2 O21 1_555 1_555
C15_2 C9_2 1_555 1_555
C2_2 C9_2 1_555 1_555
O24 C15_2 1_555 1_555
Cl1_2 C7_2 1_555 1_555
Cl2_3 C2_3 1_555 1_555
Cl3_2 C5_2 1_555 1_555
O19 C3_2 1_555 1_555
O22 C1_2 1_555 1_555
C1_2 C3_2 1_555 1_555
C3_2 C7_2 1_555 1_555
C4_2 O9_2 1_555 1_555
C5_2 C1_2 1_555 1_555
C6_2 O4_2 1_555 1_555
C7_2 C4_2 1_555 1_555
C9_3 O3_2 1_555 1_555
H8_2 C13_2 1_555 1_555
H10_2 C13_2 1_555 1_555
Cl5_2 C22_2 1_555 1_555
Cl6_2 C20_2 1_555 1_555
O20 C18_2 1_555 1_555
O23 C17_2 1_555 1_555
C17_2 C18_2 1_555 1_555
C18_2 C22_2 1_555 1_555
C19_2 O18_2 1_555 1_555
C20_2 C17_2 1_555 1_555
C21_2 O15_2 1_555 1_555
C22_2 C19_2 1_555 1_555
H17_2 C25_2 1_555 1_555
H19_2 C25_2 1_555 1_555
C2_3 C9_3 1_555 1_555
C4_2 C6_2 1_555 1_555
C5_2 C6_2 1_555 1_555
C19_2 C21_2 1_555 1_555
C20_2 C21_2 1_555 1_555
O6_2 Tb3 1_555 1_555
O8_2 Tb3 1_555 1_555
C10_3 O6_2 1_555 1_555
N1_2 C11_2 1_555 1_555
C11_2 O8_2 1_555 1_555
H4_2 C11_2 1_555 1_555
C12_2 N1_2 1_555 1_555
H5_2 C12_2 1_555 1_555
H6_2 C12_2 1_555 1_555
H7_2 C12_2 1_555 1_555
O11_2 Tb3 1_555 1_555
O12_2 C10_3 1_555 1_555
Tb4 O12_2 1_555 1_555
O17_2 Tb4 1_555 1_555
N2_2 C23_2 1_555 1_555
C23_2 O17_2 1_555 1_555
H13_2 C23_2 1_555 1_555
C24_2 N2_2 1_555 1_555
H14_2 C24_2 1_555 1_555
H15_2 C24_2 1_555 1_555
H16_2 C24_2 1_555 1_555
O24_2 Tb4 1_555 1_555
O11_2 C15_3 1_555 1_555
O7_3 C8_3 1_555 1_555
Tb5_3 O7_3 1_555 1_555
O2_2 H1_2 1_555 1_555
H2_3 O2_2 1_555 1_555
Cl4_3 C14_3 1_555 1_555
O10_3 C16_3 1_555 1_555
C16_3 C14_3 1_555 1_555
O7_4 C8_4 1_555 1_555
Tb5_4 O7_4 1_555 1_555
Cl4_4 C14_4 1_555 1_555
O10_4 C16_4 1_555 1_555
C16_4 C14_4 1_555 1_555
Cl2_4 C2_4 1_555 1_555
C9_4 O21_2 1_555 1_555
C2_4 C9_4 1_555 1_555
O24_2 C15_4 1_555 1_555
Tb5 O2_3 1_555 1_555
Cl1_3 C7_3 1_555 1_555
Cl3_3 C5_3 1_555 1_555
O1_2 C3_3 1_555 1_555
O2_3 H1_3 1_555 1_555
H2_4 O2_3 1_555 1_555
O4_3 Tb5 1_555 1_555
O5_2 C1_3 1_555 1_555
O6_3 Tb5 1_555 1_555
O8_3 Tb5 1_555 1_555
O9_3 Tb5 1_555 1_555
C1_3 C3_3 1_555 1_555
C3_3 C7_3 1_555 1_555
C4_3 O9_3 1_555 1_555
C5_3 C1_3 1_555 1_555
C6_3 O4_3 1_555 1_555
C7_3 C4_3 1_555 1_555
C10_4 O6_3 1_555 1_555
H3_4 C10_4 1_555 1_555
C11_3 O8_3 1_555 1_555
H4_3 C11_3 1_555 1_555
C24_3 N2_3 1_555 1_555
H14_3 C24_3 1_555 1_555
H15_3 C24_3 1_555 1_555
H16_3 C24_3 1_555 1_555
C25_3 N2_3 1_555 1_555
H17_3 C25_3 1_555 1_555
H18_3 C25_3 1_555 1_555
H19_3 C25_3 1_555 1_555
Tb5_4 O1_2 1_555 1_555
O20_2 Tb5 1_555 1_555
O23_2 Tb5 1_555 1_555
O5_2 Tb5_4 1_555 1_555
C4_3 C6_3 1_555 1_555
C5_3 C6_3 1_555 1_555
H3_5 C10_5 1_555 1_555
C12_3 N1_3 1_555 1_555
H5_3 C12_3 1_555 1_555
H6_3 C12_3 1_555 1_555
H7_3 C12_3 1_555 1_555
C13_3 N1_3 1_555 1_555
H8_3 C13_3 1_555 1_555
H9_3 C13_3 1_555 1_555
H10_3 C13_3 1_555 1_555
O12_3 C10_5 1_555 1_555
Tb5_2 O12_3 1_555 1_555
Cl5_3 C22_3 1_555 1_555
Cl6_3 C20_3 1_555 1_555
O13_2 C18_3 1_555 1_555
O14_2 Tb5_2 1_555 1_555
H11_2 O14_2 1_555 1_555
H12_2 O14_2 1_555 1_555
O15_3 Tb5_2 1_555 1_555
O16_2 C17_3 1_555 1_555
O17_3 Tb5_2 1_555 1_555
O18_3 Tb5_2 1_555 1_555
C17_3 C18_3 1_555 1_555
C18_3 C22_3 1_555 1_555
C19_3 O18_3 1_555 1_555
C20_3 C17_3 1_555 1_555
C21_3 O15_3 1_555 1_555
C22_3 C19_3 1_555 1_555
C23_3 O17_3 1_555 1_555
H13_3 C23_3 1_555 1_555
Tb5_3 O13_2 1_555 1_555
O19_2 Tb5_2 1_555 1_555
O22_2 Tb5_2 1_555 1_555
O16_2 Tb5_3 1_555 1_555
C19_3 C21_3 1_555 1_555
C20_3 C21_3 1_555 1_555
O2_4 H1_4 1_555 1_555
H2_5 O2_4 1_555 1_555
O6_4 Tb5_3 1_555 1_555
O8_4 Tb5_3 1_555 1_555
C10_6 O6_4 1_555 1_555
N1_4 C11_4 1_555 1_555
C11_4 O8_4 1_555 1_555
H4_4 C11_4 1_555 1_555
C12_4 N1_4 1_555 1_555
H5_4 C12_4 1_555 1_555
H6_4 C12_4 1_555 1_555
H7_4 C12_4 1_555 1_555
O12_4 C10_6 1_555 1_555
Tb5_4 O12_4 1_555 1_555
O17_4 Tb5_4 1_555 1_555
N2_4 C23_4 1_555 1_555
C23_4 O17_4 1_555 1_555
H13_4 C23_4 1_555 1_555
C24_4 N2_4 1_555 1_555
H14_4 C24_4 1_555 1_555
H15_4 C24_4 1_555 1_555
H16_4 C24_4 1_555 1_555
Cl1_4 C7_4 1_555 1_555
Cl3_4 C5_4 1_555 1_555
O19_2 C3_4 1_555 1_555
O22_2 C1_4 1_555 1_555
C1_4 C3_4 1_555 1_555
C3_4 C7_4 1_555 1_555
C4_4 O9_4 1_555 1_555
C5_4 C1_4 1_555 1_555
C6_4 O4_4 1_555 1_555
C7_4 C4_4 1_555 1_555
H8_4 C13_4 1_555 1_555
H10_4 C13_4 1_555 1_555
Cl5_4 C22_4 1_555 1_555
Cl6_4 C20_4 1_555 1_555
O20_2 C18_4 1_555 1_555
O23_2 C17_4 1_555 1_555
C17_4 C18_4 1_555 1_555
C18_4 C22_4 1_555 1_555
C19_4 O18_4 1_555 1_555
C20_4 C17_4 1_555 1_555
C21_4 O15_4 1_555 1_555
C22_4 C19_4 1_555 1_555
H17_4 C25_4 1_555 1_555
H19_4 C25_4 1_555 1_555
C4_4 C6_4 1_555 1_555
C5_4 C6_4 1_555 1_555
C19_4 C21_4 1_555 1_555
C20_4 C21_4 1_555 1_555
H11_3 O14_3 1_555 1_555
H12_4 O14_3 1_555 1_555
H11_4 O14_4 1_555 1_555
H12_5 O14_4 1_555 1_555

#END
