
###############################################################################
#
# This file contains modified crystal structure data generated from the
# MOF subset of the Cambridge Structural Database (CSD) v543 
# hosted by the Cambridge Crystallographic Data Centre (CCDC).
#
# This work is licensed under the Creative Commons
# Attribution-NonCommercial-ShareAlike 4.0 International License.
# To view a copy of this license, visit
# http://creativecommons.org/licenses/by-nc-sa/4.0/
# or send a letter to
# Creative Commons, PO Box 1866, Mountain View, CA 94042, USA.
#
# CIF created using the CSD Python API on 29 September 2022
# The structure has been converted into the P1 space group
# The structure has a 3D framework
# The original CSD entry EFUFAP is in the monoclinic crystal system
# The framework has been calculated to contain at least 10.0% void space
# The void calculation uses a probe of radius 1.32A, grid spacing 0.4
#
###############################################################################

data_EFUFAP
_chemical_formula_moiety         '(C240 H148 N24 O63 Zn16)n'
_symmetry_cell_setting           triclinic
_symmetry_space_group_name_H-M   'P 1'
_symmetry_Int_Tables_number      1
_space_group_name_Hall           'P 1'
loop_
_symmetry_equiv_pos_site_id
_symmetry_equiv_pos_as_xyz
1 x,y,z
_cell_length_a                   22.1033(4)
_cell_length_b                   22.4179(3)
_cell_length_c                   17.5597(3)
_cell_angle_alpha                90
_cell_angle_beta                 125.335(2)
_cell_angle_gamma                90
_cell_volume                     7098.14
loop_
_atom_site_label
_atom_site_type_symbol
_atom_site_fract_x
_atom_site_fract_y
_atom_site_fract_z
Zn7 Zn 0.02499(4) 0.28076(4) 0.08580(6)
C21 C 0.2176(5) 0.8544(4) 0.8118(9)
H12 H 0.2246 0.8147 0.8034
C22 C 0.1472(5) 0.8800(4) 0.7504(8)
H13 H 0.1094 0.8586 0.6995
C23 C 0.1351(5) 0.9374(4) 0.7670(8)
C24 C 0.1962(5) 0.9691(4) 0.8410(9)
C25 C 0.2636(5) 0.9410(4) 0.8949(7)
H15 H 0.3037 0.9624 0.9432
C26 C 0.0597(6) 0.9638(5) 0.7095(9)
H16 H 0.0471 0.9808 0.8090
C31 C 0.0105(6) 0.9522(5) 0.6159(9)
H20 H 0.0257 0.9294 0.5855
N3 N 0.2746(3) 0.8848(3) 0.8815(5)
Zn9 Zn 0.37135(5) 0.84130(4) 0.96575(7)
Zn1 Zn 0.52499(4) 0.21924(4) 0.58580(6)
Zn2 Zn 0.37135(5) 0.15870(4) 0.46575(7)
Zn3 Zn 0.49355(4) 0.14432(4) 0.42036(6)
Zn4 Zn 0.50876(4) 0.07054(4) 0.58525(5)
C13 C 0.3066(4) 0.2827(4) 0.0523(6)
C14 C 0.3532(4) 0.2487(4) 0.1311(7)
H9 H 0.4018 0.2415 0.1516
C15 C 0.3261(4) 0.2255(3) 0.1796(5)
C16 C 0.2531(4) 0.2355(3) 0.1467(5)
H10 H 0.2344 0.2188 0.1777
C17 C 0.2073(3) 0.2701(3) 0.0678(5)
C18 C 0.2346(4) 0.2936(4) 0.0214(6)
C19 C 0.1293(4) 0.2844(3) 0.0379(5)
C20 C 0.3754(4) 0.1908(3) 0.2678(5)
C28 C 0.9645(5) 0.0229(4) 0.7036(8)
C29 C 0.9154(6) 0.0087(5) 0.6096(9)
H18 H 0.8668 0.0225 0.5754
C32 C 0.9451(5) 0.0633(4) 0.7546(8)
C33 C 0.8400(4) 0.1025(4) 0.7548(8)
C34 C 0.8799(4) 0.1417(3) 0.8295(8)
H21 H 0.9310 0.1457 0.8613
C35 C 0.8408(4) 0.1750(3) 0.8555(6)
C36 C 0.7669(4) 0.1687(3) 0.8116(6)
H22 H 0.7422 0.1910 0.8303
C37 C 0.7285(4) 0.1287(3) 0.7388(6)
C38 C 0.7655(4) 0.0955(4) 0.7114(7)
H23 H 0.7394 0.0682 0.6628
C39 C 0.6451(4) 0.1218(4) 0.6896(6)
C40 C 0.8836(4) 0.2203(4) 0.9314(7)
C60 C 0.4434(4) 0.0224(3) 0.3988(5)
N2 N 0.3337(5) 0.3104(4) 0.0040(6)
N4 N 0.8745(4) 0.0700(4) 0.7198(8)
H36 H 0.8444 0.0520 0.6677
O1 O 0.4736(2) 0.14929(18) 0.5153(4)
O2 O 0.4034(6) 0.2348(5) 0.0106(8)
O3 O 0.1072(3) 0.2578(2) 0.0782(4)
O5 O 0.4428(2) 0.1864(2) 0.2980(4)
O6 O 0.3484(3) 0.1694(3) 0.3080(4)
O7 O 0.9936(5) 0.0887(5) 0.8263(9)
O8 O 0.6144(3) 0.0812(3) 0.6285(5)
O9 O 0.6120(3) 0.1582(4) 0.7070(5)
O10 O 0.9530(3) 0.2207(3) 0.9761(5)
O11 O 0.8463(3) 0.2551(2) 0.9467(5)
O15 O 0.4801(3) 0.0588(2) 0.3832(4)
O16 O 0.4360(3) 0.0267(3) 0.4626(4)
Zn10 Zn 0.87135(5) 0.34130(4) 0.96575(7)
N7 N 0.5094(5) 0.2573(3) 0.6766(6)
N8 N 0.2746(3) 0.1152(3) 0.3815(5)
O17 O 0.6072(3) 0.2422(2) 0.5782(4)
O18 O 0.5953(3) 0.1754(2) 0.4769(4)
O19 O 0.4530(3) 0.2793(3) 0.4761(5)
O20 O 0.3463(3) 0.2449(2) 0.4467(5)
O21 O 0.3710(3) 0.1436(3) 0.5812(5)
O22 O 0.4576(3) 0.0735(2) 0.6492(4)
C1 C 0.5174(6) 0.2295(5) 0.7460(7)
H1 H 0.5382 0.1915 0.7607
C2 C 0.4960(8) 0.2541(5) 0.7997(10)
H2 H 0.5044 0.2332 0.8508
C3 C 0.4619(9) 0.3102(5) 0.7771(12)
C4 C 0.4533(9) 0.3398(5) 0.7034(12)
H3 H 0.4337 0.3782 0.6880
C5 C 0.4739(7) 0.3120(5) 0.6532(10)
H4 H 0.4636 0.3308 0.5997
C6 C 0.4398(13) 0.3366(7) 0.8354(16)
C7 C 0.4202(8) 0.3020(6) 0.8836(11)
H5 H 0.4260 0.2608 0.8860
C8 C 0.3921(13) 0.3287(7) 0.9278(17)
C9 C 0.379(2) 0.3876(7) 0.919(3)
H6 H 0.3503 0.4042 0.9370
C10 C 0.409(3) 0.4238(8) 0.883(3)
H7 H 0.4115 0.4648 0.8930
C11 C 0.4333(17) 0.4001(7) 0.8347(19)
H8 H 0.4455 0.4241 0.8022
C12 C 0.3772(8) 0.2897(5) 0.9844(10)
H11 H 0.2043 0.3170 0.9686
H35 H 0.3185 0.3463 0.9854
O4 O 0.0953(3) 0.3246(2) 0.9769(4)
C30 C 0.9402(7) 0.9733(6) 0.5671(9)
H19 H 0.9077 0.9641 0.5040
C41 C 0.1156(8) 0.5381(6) 0.1911(15)
H24 H 0.1513 0.5117 0.1991
C42 C 0.1374(9) 0.5949(7) 0.2227(18)
H25 H 0.1866 0.6058 0.2507
C43 C 0.0879(5) 0.6363(4) 0.2139(9)
C44 C 0.0175(6) 0.6129(4) 0.1767(11)
C46 C 0.1104(6) 0.6971(5) 0.2429(9)
C47 C 0.1660(8) 0.7217(5) 0.2387(12)
H28 H 0.1884 0.6988 0.2174
C48 C 0.1884(10) 0.7803(6) 0.2660(13)
C49 C 0.1549(8) 0.8131(5) 0.2953(11)
H29 H 0.1707 0.8522 0.3139
C50 C 0.0971(7) 0.7918(5) 0.2995(9)
H30 H 0.0744 0.8164 0.3186
C51 C 0.0751(5) 0.7335(4) 0.2745(7)
H31 H 0.0378 0.7177 0.2780
C52 C 0.2455(10) 0.8019(6) 0.2522(15)
C53 C 0.3289(5) 0.8847(4) 0.2831(7)
C54 C 0.3437(5) 0.8727(4) 0.2185(7)
H32 H 0.3211 0.8402 0.1787
C55 C 0.3920(4) 0.9084(3) 0.2117(6)
C56 C 0.4236(4) 0.9565(3) 0.2694(5)
H33 H 0.4551 0.9812 0.2647
C57 C 0.4093(4) 0.9696(3) 0.3359(5)
C58 C 0.3619(5) 0.9331(4) 0.3412(7)
H34 H 0.3519 0.9412 0.3849
C59 C 0.4067(4) 0.8963(3) 0.1414(5)
N5 N 0.0469(4) 0.5177(3) 0.1495(7)
N6 N 0.2770(6) 0.8521(4) 0.2899(9)
H37 H 0.2651 0.8682 0.3240
O12 O 0.2531(14) 0.7771(7) 0.1956(19)
O13 O 0.3710(3) 0.8564(3) 0.0812(5)
O14 O 0.4576(3) 0.9265(2) 0.1492(4)
Zn12 Zn 0.50876(4) 0.92946(4) 0.08525(5)
Zn13 Zn 0.00876(4) 0.42946(4) 0.08525(5)
N9 N 0.5469(4) 0.9823(3) 0.6495(7)
Zn11 Zn 0.99355(4) 0.35568(4) 0.92036(6)
C21_2 C 0.2176(5) 0.1456(4) 0.3118(9)
H12_2 H 0.2246 0.1853 0.3034
C22_2 C 0.1472(5) 0.1200(4) 0.2504(8)
H13_2 H 0.1094 0.1414 0.1995
C23_2 C 0.1351(5) 0.0626(4) 0.2670(8)
C24_2 C 0.1962(5) 0.0309(4) 0.3410(9)
C25_2 C 0.2636(5) 0.0590(4) 0.3949(7)
H15_2 H 0.3037 0.0376 0.4432
C26_2 C 0.0597(6) 0.0362(5) 0.2095(9)
H16_2 H 0.0471 0.0192 0.3090
C31_2 C 0.0105(6) 0.0478(5) 0.1159(9)
H20_2 H 0.0257 0.0706 0.0855
H14 H 0.1908 0.9916 0.3532
C27 C 0.0379(5) 0.9980(4) 0.2551(8)
H17 H 0.0704 0.9635 0.2783
Zn7_2 Zn 0.02499(4) 0.71924(4) 0.58580(6)
C30_2 C 0.9402(7) 0.0267(6) 0.0671(9)
H19_2 H 0.9077 0.0359 0.0040
N9_2 N 0.5469(4) 0.0177(3) 0.1495(7)
C41_2 C 0.1156(8) 0.4619(6) 0.6911(15)
H24_2 H 0.1513 0.4883 0.6991
C42_2 C 0.1374(9) 0.4051(7) 0.7227(18)
H25_2 H 0.1866 0.3942 0.7507
C43_2 C 0.0879(5) 0.3637(4) 0.7139(9)
C44_2 C 0.0175(6) 0.3871(4) 0.6767(11)
C46_2 C 0.1104(6) 0.3029(5) 0.7429(9)
C47_2 C 0.1660(8) 0.2783(5) 0.7387(12)
H28_2 H 0.1884 0.3012 0.7174
C48_2 C 0.1884(10) 0.2197(6) 0.7660(13)
C49_2 C 0.1549(8) 0.1869(5) 0.7953(11)
H29_2 H 0.1707 0.1478 0.8139
C50_2 C 0.0971(7) 0.2082(5) 0.7995(9)
H30_2 H 0.0744 0.1836 0.8186
C51_2 C 0.0751(5) 0.2665(4) 0.7745(7)
H31_2 H 0.0378 0.2823 0.7780
C52_2 C 0.2455(10) 0.1981(6) 0.7522(15)
C53_2 C 0.3289(5) 0.1153(4) 0.7831(7)
C54_2 C 0.3437(5) 0.1273(4) 0.7185(7)
H32_2 H 0.3211 0.1598 0.6787
C55_2 C 0.3920(4) 0.0916(3) 0.7117(6)
C56_2 C 0.4236(4) 0.0435(3) 0.7694(5)
H33_2 H 0.4551 0.0188 0.7647
C57_2 C 0.4093(4) 0.0304(3) 0.8359(5)
C58_2 C 0.3619(5) 0.0669(4) 0.8412(7)
H34_2 H 0.3519 0.0588 0.8849
C59_2 C 0.4067(4) 0.1037(3) 0.6414(5)
N5_2 N 0.0469(4) 0.4823(3) 0.6495(7)
N6_2 N 0.2770(6) 0.1479(4) 0.7899(9)
H37_2 H 0.2651 0.1318 0.8240
O12_2 O 0.2531(14) 0.2229(7) 0.6956(19)
Zn13_2 Zn 0.00876(4) 0.57054(4) 0.58525(5)
Zn1_2 Zn 0.52499(4) 0.78076(4) 0.08580(6)
C28_2 C 0.9645(5) 0.9771(4) 0.2036(8)
C29_2 C 0.9154(6) 0.9913(5) 0.1096(9)
H18_2 H 0.8668 0.9775 0.0754
C32_2 C 0.9451(5) 0.9367(4) 0.2546(8)
C33_2 C 0.8400(4) 0.8975(4) 0.2548(8)
C34_2 C 0.8799(4) 0.8583(3) 0.3295(8)
H21_2 H 0.9310 0.8543 0.3613
C35_2 C 0.8408(4) 0.8250(3) 0.3555(6)
C36_2 C 0.7669(4) 0.8313(3) 0.3116(6)
H22_2 H 0.7422 0.8090 0.3303
C37_2 C 0.7285(4) 0.8713(3) 0.2388(6)
C38_2 C 0.7655(4) 0.9045(4) 0.2114(7)
H23_2 H 0.7394 0.9318 0.1628
C39_2 C 0.6451(4) 0.8782(4) 0.1896(6)
C40_2 C 0.8836(4) 0.7797(4) 0.4314(7)
N4_2 N 0.8745(4) 0.9300(4) 0.2198(8)
H36_2 H 0.8444 0.9480 0.1677
O1_2 O 0.4736(2) 0.85071(18) 0.0153(4)
O7_2 O 0.9936(5) 0.9113(5) 0.3263(9)
O8_2 O 0.6144(3) 0.9188(3) 0.1285(5)
O9_2 O 0.6120(3) 0.8418(4) 0.2070(5)
O10_2 O 0.9530(3) 0.7793(3) 0.4761(5)
O11_2 O 0.8463(3) 0.7449(2) 0.4467(5)
Zn10_2 Zn 0.87135(5) 0.65870(4) 0.46575(7)
N7_2 N 0.5094(5) 0.7427(3) 0.1766(6)
O17_2 O 0.6072(3) 0.7578(2) 0.0782(4)
Zn3_2 Zn 0.49355(4) 0.85568(4) 0.92036(6)
C1_2 C 0.5174(6) 0.7705(5) 0.2460(7)
H1_2 H 0.5382 0.8085 0.2607
C2_2 C 0.4960(8) 0.7459(5) 0.2997(10)
H2_2 H 0.5044 0.7668 0.3508
C3_2 C 0.4619(9) 0.6898(5) 0.2771(12)
C4_2 C 0.4533(9) 0.6602(5) 0.2034(12)
H3_2 H 0.4337 0.6218 0.1880
C5_2 C 0.4739(7) 0.6880(5) 0.1532(10)
H4_2 H 0.4636 0.6692 0.0997
C6_2 C 0.4398(13) 0.6634(7) 0.3354(16)
C7_2 C 0.4202(8) 0.6980(6) 0.3836(11)
H5_2 H 0.4260 0.7392 0.3860
C8_2 C 0.3921(13) 0.6713(7) 0.4278(17)
C9_2 C 0.379(2) 0.6124(7) 0.419(3)
H6_2 H 0.3503 0.5958 0.4370
C10_2 C 0.409(3) 0.5762(8) 0.383(3)
H7_2 H 0.4115 0.5352 0.3930
C11_2 C 0.4333(17) 0.5999(7) 0.3347(19)
H8_2 H 0.4455 0.5759 0.3022
C12_2 C 0.3772(8) 0.7103(5) 0.4844(10)
C13_2 C 0.3066(4) 0.7173(4) 0.5523(6)
C14_2 C 0.3532(4) 0.7513(4) 0.6311(7)
H9_2 H 0.4018 0.7585 0.6516
C15_2 C 0.3261(4) 0.7745(3) 0.6796(5)
C16_2 C 0.2531(4) 0.7645(3) 0.6467(5)
H10_2 H 0.2344 0.7812 0.6777
C17_2 C 0.2073(3) 0.7299(3) 0.5678(5)
C18_2 C 0.2346(4) 0.7064(4) 0.5214(6)
H11_2 H 0.2043 0.6830 0.4686
C19_2 C 0.1293(4) 0.7156(3) 0.5379(5)
C20_2 C 0.3754(4) 0.8092(3) 0.7678(5)
C60_2 C 0.4434(4) 0.9776(3) 0.8988(5)
N2_2 N 0.3337(5) 0.6896(4) 0.5040(6)
H35_2 H 0.3185 0.6537 0.4854
O2_2 O 0.4034(6) 0.7652(5) 0.5106(8)
O3_2 O 0.1072(3) 0.7422(2) 0.5782(4)
O4_2 O 0.0953(3) 0.6754(2) 0.4769(4)
O5_2 O 0.4428(2) 0.8136(2) 0.7980(4)
O6_2 O 0.3484(3) 0.8306(3) 0.8080(4)
O15_2 O 0.4801(3) 0.9412(2) 0.8832(4)
O16_2 O 0.4360(3) 0.9733(3) 0.9626(4)
O18_2 O 0.5953(3) 0.8246(2) 0.9769(4)
O19_2 O 0.4530(3) 0.7207(3) 0.9761(5)
O20_2 O 0.3463(3) 0.7551(2) 0.9467(5)
Zn11_2 Zn 0.99355(4) 0.64432(4) 0.42036(6)
C21_3 C 0.7176(5) 0.3544(4) 0.8118(9)
H12_3 H 0.7246 0.3147 0.8034
C22_3 C 0.6472(5) 0.3800(4) 0.7504(8)
H13_3 H 0.6094 0.3586 0.6995
C23_3 C 0.6351(5) 0.4374(4) 0.7670(8)
C24_3 C 0.6962(5) 0.4691(4) 0.8410(9)
H14_2 H 0.6908 0.5084 0.8532
C25_3 C 0.7636(5) 0.4410(4) 0.8949(7)
H15_3 H 0.8037 0.4624 0.9432
C26_3 C 0.5597(6) 0.4638(5) 0.7095(9)
C27_2 C 0.5379(5) 0.5020(4) 0.7551(8)
H16_3 H 0.5471 0.4808 0.8090
H17_2 H 0.5704 0.5365 0.7783
C28_3 C 0.4645(5) 0.5229(4) 0.7036(8)
C29_3 C 0.4154(6) 0.5087(5) 0.6096(9)
H18_3 H 0.3668 0.5225 0.5754
C30_3 C 0.4402(7) 0.4733(6) 0.5671(9)
H19_3 H 0.4077 0.4641 0.5040
C31_3 C 0.5105(6) 0.4522(5) 0.6159(9)
H20_3 H 0.5257 0.4294 0.5855
C32_3 C 0.4451(5) 0.5633(4) 0.7546(8)
C33_3 C 0.3400(4) 0.6025(4) 0.7548(8)
C34_3 C 0.3799(4) 0.6417(3) 0.8295(8)
H21_3 H 0.4310 0.6457 0.8613
C35_3 C 0.3408(4) 0.6750(3) 0.8555(6)
C36_3 C 0.2669(4) 0.6687(3) 0.8116(6)
H22_3 H 0.2422 0.6910 0.8303
C37_3 C 0.2285(4) 0.6287(3) 0.7388(6)
C38_3 C 0.2655(4) 0.5955(4) 0.7114(7)
H23_3 H 0.2394 0.5682 0.6628
C39_3 C 0.1451(4) 0.6218(4) 0.6896(6)
C40_3 C 0.3836(4) 0.7203(4) 0.9314(7)
N3_2 N 0.7746(3) 0.3848(3) 0.8815(5)
N4_3 N 0.3745(4) 0.5700(4) 0.7198(8)
H36_3 H 0.3444 0.5520 0.6677
O7_3 O 0.4936(5) 0.5887(5) 0.8263(9)
O8_3 O 0.1144(3) 0.5812(3) 0.6285(5)
O9_3 O 0.1120(3) 0.6582(4) 0.7070(5)
N7_3 N 0.0094(5) 0.7573(3) 0.6766(6)
C1_3 C 0.0174(6) 0.7295(5) 0.7460(7)
H1_3 H 0.0382 0.6915 0.7607
H2_3 H 0.0044 0.7332 0.8508
C13_3 C 0.8066(4) 0.7827(4) 0.0523(6)
C14_3 C 0.8532(4) 0.7487(4) 0.1311(7)
H9_3 H 0.9018 0.7415 0.1516
C15_3 C 0.8261(4) 0.7255(3) 0.1796(5)
C16_3 C 0.7531(4) 0.7355(3) 0.1467(5)
H10_3 H 0.7344 0.7188 0.1777
C17_3 C 0.7073(3) 0.7701(3) 0.0678(5)
C18_3 C 0.7346(4) 0.7936(4) 0.0214(6)
C19_3 C 0.6293(4) 0.7844(3) 0.0379(5)
C20_3 C 0.8754(4) 0.6908(3) 0.2678(5)
C41_3 C 0.6156(8) 0.0381(6) 0.1911(15)
H24_3 H 0.6513 0.0117 0.1991
C42_3 C 0.6374(9) 0.0949(7) 0.2227(18)
H25_3 H 0.6866 0.1058 0.2507
C43_3 C 0.5879(5) 0.1363(4) 0.2139(9)
C44_3 C 0.5175(6) 0.1129(4) 0.1767(11)
H26 H 0.4821 0.1372 0.1736
C45 C 0.4987(7) 0.0556(5) 0.1447(11)
H27 H 0.4505 0.0427 0.1186
C46_3 C 0.6104(6) 0.1971(5) 0.2429(9)
C47_3 C 0.6660(8) 0.2217(5) 0.2387(12)
H28_3 H 0.6884 0.1988 0.2174
C48_3 C 0.6884(10) 0.2803(6) 0.2660(13)
C49_3 C 0.6549(8) 0.3131(5) 0.2953(11)
H29_3 H 0.6707 0.3522 0.3139
C50_3 C 0.5971(7) 0.2918(5) 0.2995(9)
H30_3 H 0.5744 0.3164 0.3186
C51_3 C 0.5751(5) 0.2335(4) 0.2745(7)
H31_3 H 0.5378 0.2177 0.2780
C52_3 C 0.7455(10) 0.3019(6) 0.2522(15)
C53_3 C 0.8289(5) 0.3847(4) 0.2831(7)
C54_3 C 0.8437(5) 0.3727(4) 0.2185(7)
H32_3 H 0.8211 0.3402 0.1787
C55_3 C 0.8920(4) 0.4084(3) 0.2117(6)
C56_3 C 0.9236(4) 0.4565(3) 0.2694(5)
H33_3 H 0.9551 0.4812 0.2647
C57_3 C 0.9093(4) 0.4696(3) 0.3359(5)
C58_3 C 0.8619(5) 0.4331(4) 0.3412(7)
H34_3 H 0.8519 0.4412 0.3849
C59_3 C 0.9067(4) 0.3963(3) 0.1414(5)
C60_3 C 0.9434(4) 0.5224(3) 0.3988(5)
N2_3 N 0.8337(5) 0.8104(4) 0.0040(6)
N6_3 N 0.7770(6) 0.3521(4) 0.2899(9)
H37_3 H 0.7651 0.3682 0.3240
O1_3 O 0.9736(2) 0.64929(18) 0.5153(4)
O2_3 O 0.9034(6) 0.7348(5) 0.0106(8)
O5_3 O 0.9428(2) 0.6864(2) 0.2980(4)
O6_3 O 0.8484(3) 0.6694(3) 0.3080(4)
O12_3 O 0.7531(14) 0.2771(7) 0.1956(19)
O13_2 O 0.8710(3) 0.3564(3) 0.0812(5)
O14_2 O 0.9576(3) 0.4265(2) 0.1492(4)
O15_3 O 0.9801(3) 0.5588(2) 0.3832(4)
O16_3 O 0.9360(3) 0.5267(3) 0.4626(4)
N8_2 N 0.7746(3) 0.6152(3) 0.3815(5)
O21_2 O 0.8710(3) 0.6436(3) 0.5812(5)
O22_2 O 0.9576(3) 0.5735(2) 0.6492(4)
C2_3 C 0.9960(8) 0.7541(5) 0.7997(10)
C3_3 C 0.9619(9) 0.8102(5) 0.7771(12)
C4_3 C 0.9533(9) 0.8398(5) 0.7034(12)
H3_3 H 0.9337 0.8782 0.6880
C5_3 C 0.9739(7) 0.8120(5) 0.6532(10)
H4_3 H 0.9636 0.8308 0.5997
C6_3 C 0.9398(13) 0.8366(7) 0.8354(16)
C7_3 C 0.9202(8) 0.8020(6) 0.8836(11)
H5_3 H 0.9260 0.7608 0.8860
C8_3 C 0.8921(13) 0.8287(7) 0.9278(17)
C9_3 C 0.879(2) 0.8876(7) 0.919(3)
H6_3 H 0.8503 0.9042 0.9370
C10_3 C 0.909(3) 0.9238(8) 0.883(3)
H7_3 H 0.9115 0.9648 0.8930
C11_3 C 0.9333(17) 0.9001(7) 0.8347(19)
H8_3 H 0.9455 0.9241 0.8022
C12_3 C 0.8772(8) 0.7897(5) 0.9844(10)
H11_3 H 0.7043 0.8170 0.9686
H35_3 H 0.8185 0.8463 0.9854
C21_4 C 0.7176(5) 0.6456(4) 0.3118(9)
H12_4 H 0.7246 0.6853 0.3034
C22_4 C 0.6472(5) 0.6200(4) 0.2504(8)
H13_4 H 0.6094 0.6414 0.1995
C23_4 C 0.6351(5) 0.5626(4) 0.2670(8)
C24_4 C 0.6962(5) 0.5309(4) 0.3410(9)
H14_3 H 0.6908 0.4916 0.3532
C25_4 C 0.7636(5) 0.5590(4) 0.3949(7)
H15_4 H 0.8037 0.5376 0.4432
C26_4 C 0.5597(6) 0.5362(5) 0.2095(9)
C27_3 C 0.5379(5) 0.4980(4) 0.2551(8)
H16_4 H 0.5471 0.5192 0.3090
H17_3 H 0.5704 0.4635 0.2783
C28_4 C 0.4645(5) 0.4771(4) 0.2036(8)
C29_4 C 0.4154(6) 0.4913(5) 0.1096(9)
H18_4 H 0.3668 0.4775 0.0754
C30_4 C 0.4402(7) 0.5267(6) 0.0671(9)
H19_4 H 0.4077 0.5359 0.0040
C31_4 C 0.5105(6) 0.5478(5) 0.1159(9)
H20_4 H 0.5257 0.5706 0.0855
C32_4 C 0.4451(5) 0.4367(4) 0.2546(8)
C33_4 C 0.3400(4) 0.3975(4) 0.2548(8)
C34_4 C 0.3799(4) 0.3583(3) 0.3295(8)
H21_4 H 0.4310 0.3543 0.3613
C35_4 C 0.3408(4) 0.3250(3) 0.3555(6)
C36_4 C 0.2669(4) 0.3313(3) 0.3116(6)
H22_4 H 0.2422 0.3090 0.3303
C37_4 C 0.2285(4) 0.3713(3) 0.2388(6)
C38_4 C 0.2655(4) 0.4045(4) 0.2114(7)
H23_4 H 0.2394 0.4318 0.1628
C39_4 C 0.1451(4) 0.3782(4) 0.1896(6)
C40_4 C 0.3836(4) 0.2797(4) 0.4314(7)
N4_4 N 0.3745(4) 0.4300(4) 0.2198(8)
H36_4 H 0.3444 0.4480 0.1677
O7_4 O 0.4936(5) 0.4113(5) 0.3263(9)
O8_4 O 0.1144(3) 0.4188(3) 0.1285(5)
O9_4 O 0.1120(3) 0.3418(4) 0.2070(5)
N7_4 N 0.0094(5) 0.2427(3) 0.1766(6)
C1_4 C 0.0174(6) 0.2705(5) 0.2460(7)
H1_4 H 0.0382 0.3085 0.2607
H2_4 H 0.0044 0.2668 0.3508
O1_4 O 0.9736(2) 0.35071(18) 0.0153(4)
C2_4 C 0.9960(8) 0.2459(5) 0.2997(10)
C3_4 C 0.9619(9) 0.1898(5) 0.2771(12)
C4_4 C 0.9533(9) 0.1602(5) 0.2034(12)
H3_4 H 0.9337 0.1218 0.1880
C5_4 C 0.9739(7) 0.1880(5) 0.1532(10)
H4_4 H 0.9636 0.1692 0.0997
C6_4 C 0.9398(13) 0.1634(7) 0.3354(16)
C7_4 C 0.9202(8) 0.1980(6) 0.3836(11)
H5_4 H 0.9260 0.2392 0.3860
C8_4 C 0.8921(13) 0.1713(7) 0.4278(17)
C9_4 C 0.879(2) 0.1124(7) 0.419(3)
H6_4 H 0.8503 0.0958 0.4370
C10_4 C 0.909(3) 0.0762(8) 0.383(3)
H7_4 H 0.9115 0.0352 0.3930
C11_4 C 0.9333(17) 0.0999(7) 0.3347(19)
H8_4 H 0.9455 0.0759 0.3022
C12_4 C 0.8772(8) 0.2103(5) 0.4844(10)
C13_4 C 0.8066(4) 0.2173(4) 0.5523(6)
C14_4 C 0.8532(4) 0.2513(4) 0.6311(7)
H9_4 H 0.9018 0.2585 0.6516
C15_4 C 0.8261(4) 0.2745(3) 0.6796(5)
C16_4 C 0.7531(4) 0.2645(3) 0.6467(5)
H10_4 H 0.7344 0.2812 0.6777
C17_4 C 0.7073(3) 0.2299(3) 0.5678(5)
C18_4 C 0.7346(4) 0.2064(4) 0.5214(6)
H11_4 H 0.7043 0.1830 0.4686
C19_4 C 0.6293(4) 0.2156(3) 0.5379(5)
C20_4 C 0.8754(4) 0.3092(3) 0.7678(5)
C41_4 C 0.6156(8) 0.9619(6) 0.6911(15)
H24_4 H 0.6513 0.9883 0.6991
C42_4 C 0.6374(9) 0.9051(7) 0.7227(18)
H25_4 H 0.6866 0.8942 0.7507
C43_4 C 0.5879(5) 0.8637(4) 0.7139(9)
C44_4 C 0.5175(6) 0.8871(4) 0.6767(11)
H26_2 H 0.4821 0.8628 0.6736
C45_2 C 0.4987(7) 0.9444(5) 0.6447(11)
H27_2 H 0.4505 0.9573 0.6186
C46_4 C 0.6104(6) 0.8029(5) 0.7429(9)
C47_4 C 0.6660(8) 0.7783(5) 0.7387(12)
H28_4 H 0.6884 0.8012 0.7174
C48_4 C 0.6884(10) 0.7197(6) 0.7660(13)
C49_4 C 0.6549(8) 0.6869(5) 0.7953(11)
H29_4 H 0.6707 0.6478 0.8139
C50_4 C 0.5971(7) 0.7082(5) 0.7995(9)
H30_4 H 0.5744 0.6836 0.8186
C51_4 C 0.5751(5) 0.7665(4) 0.7745(7)
H31_4 H 0.5378 0.7823 0.7780
C52_4 C 0.7455(10) 0.6981(6) 0.7522(15)
C53_4 C 0.8289(5) 0.6153(4) 0.7831(7)
C54_4 C 0.8437(5) 0.6273(4) 0.7185(7)
H32_4 H 0.8211 0.6598 0.6787
C55_4 C 0.8920(4) 0.5916(3) 0.7117(6)
C56_4 C 0.9236(4) 0.5435(3) 0.7694(5)
H33_4 H 0.9551 0.5188 0.7647
C57_4 C 0.9093(4) 0.5304(3) 0.8359(5)
C58_4 C 0.8619(5) 0.5669(4) 0.8412(7)
H34_4 H 0.8519 0.5588 0.8849
C59_4 C 0.9067(4) 0.6037(3) 0.6414(5)
C60_4 C 0.9434(4) 0.4776(3) 0.8988(5)
N2_4 N 0.8337(5) 0.1896(4) 0.5040(6)
H35_4 H 0.8185 0.1537 0.4854
N6_4 N 0.7770(6) 0.6479(4) 0.7899(9)
H37_4 H 0.7651 0.6318 0.8240
O2_4 O 0.9034(6) 0.2652(5) 0.5106(8)
O5_4 O 0.9428(2) 0.3136(2) 0.7980(4)
O6_4 O 0.8484(3) 0.3306(3) 0.8080(4)
O12_4 O 0.7531(14) 0.7229(7) 0.6956(19)
O15_4 O 0.9801(3) 0.4412(2) 0.8832(4)
O16_4 O 0.9360(3) 0.4733(3) 0.9626(4)
H14_4 H 0.1908 0.0084 0.8532
C27_4 C 0.0379(5) 0.0020(4) 0.7551(8)
H17_4 H 0.0704 0.0365 0.7783
H26_3 H 0.9821 0.6372 0.1736
C45_3 C 0.9987(7) 0.5556(5) 0.1447(11)
H27_3 H 0.9505 0.5427 0.1186
H26_4 H 0.9821 0.3628 0.6736
C45_4 C 0.9987(7) 0.4444(5) 0.6447(11)
H27_4 H 0.9505 0.4573 0.6186
loop_
_geom_bond_atom_site_label_1
_geom_bond_atom_site_label_2
_geom_bond_site_symmetry_1
_geom_bond_site_symmetry_2
C21 H12 1_555 1_555
C22 C21 1_555 1_555
H13 C22 1_555 1_555
C23 C22 1_555 1_555
C24 C23 1_555 1_555
C25 C24 1_555 1_555
H15 C25 1_555 1_555
C26 C23 1_555 1_555
C31 C26 1_555 1_555
H20 C31 1_555 1_555
N3 C21 1_555 1_555
Zn9 N3 1_555 1_555
C25 N3 1_555 1_555
Zn1 O1 1_555 1_555
Zn2 O1 1_555 1_555
Zn3 O1 1_555 1_555
Zn4 O1 1_555 1_555
C13 C14 1_555 1_555
C14 H9 1_555 1_555
C15 C14 1_555 1_555
C16 C15 1_555 1_555
H10 C16 1_555 1_555
C17 C16 1_555 1_555
C18 C13 1_555 1_555
C19 C17 1_555 1_555
C20 C15 1_555 1_555
C29 C28 1_555 1_555
H18 C29 1_555 1_555
C32 C28 1_555 1_555
C33 C34 1_555 1_555
C34 H21 1_555 1_555
C35 C34 1_555 1_555
C36 C35 1_555 1_555
H22 C36 1_555 1_555
C37 C36 1_555 1_555
C38 C33 1_555 1_555
H23 C38 1_555 1_555
C39 C37 1_555 1_555
C40 C35 1_555 1_555
N4 C32 1_555 1_555
H36 N4 1_555 1_555
O3 C19 1_555 1_555
O5 Zn3 1_555 1_555
O6 Zn2 1_555 1_555
O7 C32 1_555 1_555
O8 Zn4 1_555 1_555
O9 Zn1 1_555 1_555
O10 C40 1_555 1_555
O11 C40 1_555 1_555
O15 Zn3 1_555 1_555
O16 Zn4 1_555 1_555
Zn7 O3 1_555 1_555
Zn10 O11 1_555 1_555
N7 Zn1 1_555 1_555
N8 Zn2 1_555 1_555
O17 Zn1 1_555 1_555
O18 Zn3 1_555 1_555
O19 Zn1 1_555 1_555
O20 Zn2 1_555 1_555
O21 Zn2 1_555 1_555
O22 Zn4 1_555 1_555
C13 N2 1_555 1_555
C17 C18 1_555 1_555
C20 O5 1_555 1_555
C20 O6 1_555 1_555
C33 N4 1_555 1_555
C37 C38 1_555 1_555
C39 O8 1_555 1_555
C39 O9 1_555 1_555
C60 O15 1_555 1_555
C60 O16 1_555 1_555
C1 H1 1_555 1_555
C2 C1 1_555 1_555
H2 C2 1_555 1_555
C3 C2 1_555 1_555
C4 C3 1_555 1_555
H3 C4 1_555 1_555
C5 C4 1_555 1_555
H4 C5 1_555 1_555
C6 C3 1_555 1_555
C7 C6 1_555 1_555
H5 C7 1_555 1_555
C8 C7 1_555 1_555
C9 C8 1_555 1_555
H6 C9 1_555 1_555
C10 C9 1_555 1_555
H7 C10 1_555 1_555
C11 C6 1_555 1_555
H8 C11 1_555 1_555
C12 C8 1_555 1_555
N7 C1 1_555 1_555
C5 N7 1_555 1_555
C10 C11 1_555 1_555
H19 C30 1_555 1_555
C41 H24 1_555 1_555
C42 C41 1_555 1_555
H25 C42 1_555 1_555
C43 C42 1_555 1_555
C44 C43 1_555 1_555
C46 C43 1_555 1_555
C47 C46 1_555 1_555
H28 C47 1_555 1_555
C48 C47 1_555 1_555
C49 C48 1_555 1_555
H29 C49 1_555 1_555
C50 C49 1_555 1_555
H30 C50 1_555 1_555
C51 C46 1_555 1_555
H31 C51 1_555 1_555
C52 C48 1_555 1_555
C53 C54 1_555 1_555
C54 H32 1_555 1_555
C55 C54 1_555 1_555
C56 C55 1_555 1_555
H33 C56 1_555 1_555
C57 C56 1_555 1_555
C58 C53 1_555 1_555
H34 C58 1_555 1_555
C59 C55 1_555 1_555
N5 C41 1_555 1_555
N6 C52 1_555 1_555
H37 N6 1_555 1_555
O12 C52 1_555 1_555
O13 C59 1_555 1_555
O14 C59 1_555 1_555
Zn12 O14 1_555 1_555
Zn13 N5 1_555 1_555
C50 C51 1_555 1_555
C53 N6 1_555 1_555
C57 C58 1_555 1_555
C21_2 H12_2 1_555 1_555
C22_2 C21_2 1_555 1_555
H13_2 C22_2 1_555 1_555
C23_2 C22_2 1_555 1_555
C24_2 C23_2 1_555 1_555
C25_2 C24_2 1_555 1_555
H15_2 C25_2 1_555 1_555
C26_2 C23_2 1_555 1_555
C31_2 C26_2 1_555 1_555
H20_2 C31_2 1_555 1_555
N8 C21_2 1_555 1_555
C25_2 N8 1_555 1_555
H17 C27 1_555 1_555
H19_2 C30_2 1_555 1_555
C41_2 H24_2 1_555 1_555
C42_2 C41_2 1_555 1_555
H25_2 C42_2 1_555 1_555
C43_2 C42_2 1_555 1_555
C44_2 C43_2 1_555 1_555
C46_2 C43_2 1_555 1_555
C47_2 C46_2 1_555 1_555
H28_2 C47_2 1_555 1_555
C48_2 C47_2 1_555 1_555
C49_2 C48_2 1_555 1_555
H29_2 C49_2 1_555 1_555
C50_2 C49_2 1_555 1_555
H30_2 C50_2 1_555 1_555
C51_2 C46_2 1_555 1_555
H31_2 C51_2 1_555 1_555
C52_2 C48_2 1_555 1_555
C53_2 C54_2 1_555 1_555
C54_2 H32_2 1_555 1_555
C55_2 C54_2 1_555 1_555
C56_2 C55_2 1_555 1_555
H33_2 C56_2 1_555 1_555
C57_2 C56_2 1_555 1_555
C58_2 C53_2 1_555 1_555
H34_2 C58_2 1_555 1_555
C59_2 C55_2 1_555 1_555
N5_2 C41_2 1_555 1_555
N6_2 C52_2 1_555 1_555
H37_2 N6_2 1_555 1_555
O12_2 C52_2 1_555 1_555
O21 C59_2 1_555 1_555
O22 C59_2 1_555 1_555
Zn13_2 N5_2 1_555 1_555
C50_2 C51_2 1_555 1_555
C53_2 N6_2 1_555 1_555
C57_2 C58_2 1_555 1_555
Zn1_2 O1_2 1_555 1_555
Zn12 O1_2 1_555 1_555
C29_2 C28_2 1_555 1_555
H18_2 C29_2 1_555 1_555
C32_2 C28_2 1_555 1_555
C33_2 C34_2 1_555 1_555
C34_2 H21_2 1_555 1_555
C35_2 C34_2 1_555 1_555
C36_2 C35_2 1_555 1_555
H22_2 C36_2 1_555 1_555
C37_2 C36_2 1_555 1_555
C38_2 C33_2 1_555 1_555
H23_2 C38_2 1_555 1_555
C39_2 C37_2 1_555 1_555
C40_2 C35_2 1_555 1_555
N4_2 C32_2 1_555 1_555
H36_2 N4_2 1_555 1_555
O7_2 C32_2 1_555 1_555
O8_2 Zn12 1_555 1_555
O9_2 Zn1_2 1_555 1_555
O10_2 C40_2 1_555 1_555
O11_2 C40_2 1_555 1_555
Zn10_2 O11_2 1_555 1_555
N7_2 Zn1_2 1_555 1_555
O17_2 Zn1_2 1_555 1_555
C33_2 N4_2 1_555 1_555
C37_2 C38_2 1_555 1_555
C39_2 O8_2 1_555 1_555
C39_2 O9_2 1_555 1_555
C1_2 H1_2 1_555 1_555
C2_2 C1_2 1_555 1_555
H2_2 C2_2 1_555 1_555
C3_2 C2_2 1_555 1_555
C4_2 C3_2 1_555 1_555
H3_2 C4_2 1_555 1_555
C5_2 C4_2 1_555 1_555
H4_2 C5_2 1_555 1_555
C6_2 C3_2 1_555 1_555
C7_2 C6_2 1_555 1_555
H5_2 C7_2 1_555 1_555
C8_2 C7_2 1_555 1_555
C9_2 C8_2 1_555 1_555
H6_2 C9_2 1_555 1_555
C10_2 C9_2 1_555 1_555
H7_2 C10_2 1_555 1_555
C11_2 C6_2 1_555 1_555
H8_2 C11_2 1_555 1_555
C12_2 C8_2 1_555 1_555
C13_2 C14_2 1_555 1_555
C14_2 H9_2 1_555 1_555
C15_2 C14_2 1_555 1_555
C16_2 C15_2 1_555 1_555
H10_2 C16_2 1_555 1_555
C17_2 C16_2 1_555 1_555
C18_2 C13_2 1_555 1_555
H11_2 C18_2 1_555 1_555
C19_2 C17_2 1_555 1_555
C20_2 C15_2 1_555 1_555
N7_2 C1_2 1_555 1_555
N2_2 C12_2 1_555 1_555
H35_2 N2_2 1_555 1_555
O2_2 C12_2 1_555 1_555
O3_2 C19_2 1_555 1_555
O4_2 C19_2 1_555 1_555
O5_2 Zn3_2 1_555 1_555
O6_2 Zn9 1_555 1_555
O15_2 Zn3_2 1_555 1_555
Zn7_2 O3_2 1_555 1_555
O18_2 Zn3_2 1_555 1_555
O20_2 Zn9 1_555 1_555
C5_2 N7_2 1_555 1_555
C10_2 C11_2 1_555 1_555
C13_2 N2_2 1_555 1_555
C17_2 C18_2 1_555 1_555
C20_2 O5_2 1_555 1_555
C20_2 O6_2 1_555 1_555
C60_2 O15_2 1_555 1_555
C60_2 O16_2 1_555 1_555
C21_3 H12_3 1_555 1_555
C22_3 C21_3 1_555 1_555
H13_3 C22_3 1_555 1_555
C23_3 C22_3 1_555 1_555
C24_3 C23_3 1_555 1_555
H14_2 C24_3 1_555 1_555
C25_3 C24_3 1_555 1_555
H15_3 C25_3 1_555 1_555
C26_3 C23_3 1_555 1_555
C27_2 C26_3 1_555 1_555
H16_3 C27_2 1_555 1_555
H17_2 C27_2 1_555 1_555
C28_3 C27_2 1_555 1_555
C29_3 C28_3 1_555 1_555
H18_3 C29_3 1_555 1_555
C30_3 C29_3 1_555 1_555
H19_3 C30_3 1_555 1_555
C31_3 C26_3 1_555 1_555
H20_3 C31_3 1_555 1_555
C32_3 C28_3 1_555 1_555
C33_3 C34_3 1_555 1_555
C34_3 H21_3 1_555 1_555
C35_3 C34_3 1_555 1_555
C36_3 C35_3 1_555 1_555
H22_3 C36_3 1_555 1_555
C37_3 C36_3 1_555 1_555
C38_3 C33_3 1_555 1_555
H23_3 C38_3 1_555 1_555
C39_3 C37_3 1_555 1_555
C40_3 C35_3 1_555 1_555
N3_2 C21_3 1_555 1_555
N4_3 C32_3 1_555 1_555
H36_3 N4_3 1_555 1_555
O7_3 C32_3 1_555 1_555
O8_3 Zn13_2 1_555 1_555
O9_3 Zn7_2 1_555 1_555
O19_2 C40_3 1_555 1_555
O20_2 C40_3 1_555 1_555
Zn10 N3_2 1_555 1_555
N7_3 Zn7_2 1_555 1_555
C25_3 N3_2 1_555 1_555
C30_3 C31_3 1_555 1_555
C33_3 N4_3 1_555 1_555
C37_3 C38_3 1_555 1_555
C39_3 O8_3 1_555 1_555
C39_3 O9_3 1_555 1_555
C1_3 H1_3 1_555 1_555
N7_3 C1_3 1_555 1_555
Zn10_2 O1_3 1_555 1_555
Zn11_2 O1_3 1_555 1_555
C13_3 C14_3 1_555 1_555
C14_3 H9_3 1_555 1_555
C15_3 C14_3 1_555 1_555
C16_3 C15_3 1_555 1_555
H10_3 C16_3 1_555 1_555
C17_3 C16_3 1_555 1_555
C18_3 C13_3 1_555 1_555
C19_3 C17_3 1_555 1_555
C20_3 C15_3 1_555 1_555
C41_3 H24_3 1_555 1_555
C42_3 C41_3 1_555 1_555
H25_3 C42_3 1_555 1_555
C43_3 C42_3 1_555 1_555
C44_3 C43_3 1_555 1_555
H26 C44_3 1_555 1_555
C45 C44_3 1_555 1_555
H27 C45 1_555 1_555
C46_3 C43_3 1_555 1_555
C47_3 C46_3 1_555 1_555
H28_3 C47_3 1_555 1_555
C48_3 C47_3 1_555 1_555
C49_3 C48_3 1_555 1_555
H29_3 C49_3 1_555 1_555
C50_3 C49_3 1_555 1_555
H30_3 C50_3 1_555 1_555
C51_3 C46_3 1_555 1_555
H31_3 C51_3 1_555 1_555
C52_3 C48_3 1_555 1_555
C53_3 C54_3 1_555 1_555
C54_3 H32_3 1_555 1_555
C55_3 C54_3 1_555 1_555
C56_3 C55_3 1_555 1_555
H33_3 C56_3 1_555 1_555
C57_3 C56_3 1_555 1_555
C58_3 C53_3 1_555 1_555
H34_3 C58_3 1_555 1_555
C59_3 C55_3 1_555 1_555
C60_3 C57_3 1_555 1_555
N9_2 C41_3 1_555 1_555
N6_3 C52_3 1_555 1_555
H37_3 N6_3 1_555 1_555
O17_2 C19_3 1_555 1_555
O5_3 Zn11_2 1_555 1_555
O6_3 Zn10_2 1_555 1_555
O12_3 C52_3 1_555 1_555
O13_2 C59_3 1_555 1_555
O14_2 C59_3 1_555 1_555
O15_3 Zn11_2 1_555 1_555
N8_2 Zn10_2 1_555 1_555
O21_2 Zn10_2 1_555 1_555
C13_3 N2_3 1_555 1_555
C17_3 C18_3 1_555 1_555
C20_3 O5_3 1_555 1_555
C20_3 O6_3 1_555 1_555
C45 N9_2 1_555 1_555
C50_3 C51_3 1_555 1_555
C53_3 N6_3 1_555 1_555
C57_3 C58_3 1_555 1_555
C60_3 O15_3 1_555 1_555
C60_3 O16_3 1_555 1_555
C3_3 C2_3 1_555 1_555
C4_3 C3_3 1_555 1_555
H3_3 C4_3 1_555 1_555
C5_3 C4_3 1_555 1_555
H4_3 C5_3 1_555 1_555
C6_3 C3_3 1_555 1_555
C7_3 C6_3 1_555 1_555
H5_3 C7_3 1_555 1_555
C8_3 C7_3 1_555 1_555
C9_3 C8_3 1_555 1_555
H6_3 C9_3 1_555 1_555
C10_3 C9_3 1_555 1_555
H7_3 C10_3 1_555 1_555
C11_3 C6_3 1_555 1_555
H8_3 C11_3 1_555 1_555
C12_3 C8_3 1_555 1_555
C10_3 C11_3 1_555 1_555
C21_4 H12_4 1_555 1_555
C22_4 C21_4 1_555 1_555
H13_4 C22_4 1_555 1_555
C23_4 C22_4 1_555 1_555
C24_4 C23_4 1_555 1_555
H14_3 C24_4 1_555 1_555
C25_4 C24_4 1_555 1_555
H15_4 C25_4 1_555 1_555
C26_4 C23_4 1_555 1_555
C27_3 C26_4 1_555 1_555
H16_4 C27_3 1_555 1_555
H17_3 C27_3 1_555 1_555
C28_4 C27_3 1_555 1_555
C29_4 C28_4 1_555 1_555
H18_4 C29_4 1_555 1_555
C30_4 C29_4 1_555 1_555
H19_4 C30_4 1_555 1_555
C31_4 C26_4 1_555 1_555
H20_4 C31_4 1_555 1_555
C32_4 C28_4 1_555 1_555
C33_4 C34_4 1_555 1_555
C34_4 H21_4 1_555 1_555
C35_4 C34_4 1_555 1_555
C36_4 C35_4 1_555 1_555
H22_4 C36_4 1_555 1_555
C37_4 C36_4 1_555 1_555
C38_4 C33_4 1_555 1_555
H23_4 C38_4 1_555 1_555
C39_4 C37_4 1_555 1_555
C40_4 C35_4 1_555 1_555
N8_2 C21_4 1_555 1_555
N4_4 C32_4 1_555 1_555
H36_4 N4_4 1_555 1_555
O7_4 C32_4 1_555 1_555
O8_4 Zn13 1_555 1_555
O9_4 Zn7 1_555 1_555
O19 C40_4 1_555 1_555
O20 C40_4 1_555 1_555
N7_4 Zn7 1_555 1_555
C25_4 N8_2 1_555 1_555
C30_4 C31_4 1_555 1_555
C33_4 N4_4 1_555 1_555
C37_4 C38_4 1_555 1_555
C39_4 O8_4 1_555 1_555
C39_4 O9_4 1_555 1_555
C1_4 H1_4 1_555 1_555
N7_4 C1_4 1_555 1_555
C3_4 C2_4 1_555 1_555
C4_4 C3_4 1_555 1_555
H3_4 C4_4 1_555 1_555
C5_4 C4_4 1_555 1_555
H4_4 C5_4 1_555 1_555
C6_4 C3_4 1_555 1_555
C7_4 C6_4 1_555 1_555
H5_4 C7_4 1_555 1_555
C8_4 C7_4 1_555 1_555
C9_4 C8_4 1_555 1_555
H6_4 C9_4 1_555 1_555
C10_4 C9_4 1_555 1_555
H7_4 C10_4 1_555 1_555
C11_4 C6_4 1_555 1_555
H8_4 C11_4 1_555 1_555
C12_4 C8_4 1_555 1_555
C13_4 C14_4 1_555 1_555
C14_4 H9_4 1_555 1_555
C15_4 C14_4 1_555 1_555
C16_4 C15_4 1_555 1_555
H10_4 C16_4 1_555 1_555
C17_4 C16_4 1_555 1_555
C18_4 C13_4 1_555 1_555
H11_4 C18_4 1_555 1_555
C19_4 C17_4 1_555 1_555
C20_4 C15_4 1_555 1_555
C41_4 H24_4 1_555 1_555
C42_4 C41_4 1_555 1_555
H25_4 C42_4 1_555 1_555
C43_4 C42_4 1_555 1_555
C44_4 C43_4 1_555 1_555
H26_2 C44_4 1_555 1_555
C45_2 C44_4 1_555 1_555
H27_2 C45_2 1_555 1_555
C46_4 C43_4 1_555 1_555
C47_4 C46_4 1_555 1_555
H28_4 C47_4 1_555 1_555
C48_4 C47_4 1_555 1_555
C49_4 C48_4 1_555 1_555
H29_4 C49_4 1_555 1_555
C50_4 C49_4 1_555 1_555
H30_4 C50_4 1_555 1_555
C51_4 C46_4 1_555 1_555
H31_4 C51_4 1_555 1_555
C52_4 C48_4 1_555 1_555
C53_4 C54_4 1_555 1_555
C54_4 H32_4 1_555 1_555
C55_4 C54_4 1_555 1_555
C56_4 C55_4 1_555 1_555
H33_4 C56_4 1_555 1_555
C57_4 C56_4 1_555 1_555
C58_4 C53_4 1_555 1_555
H34_4 C58_4 1_555 1_555
C59_4 C55_4 1_555 1_555
C60_4 C57_4 1_555 1_555
N2_4 C12_4 1_555 1_555
H35_4 N2_4 1_555 1_555
N9 C41_4 1_555 1_555
N6_4 C52_4 1_555 1_555
H37_4 N6_4 1_555 1_555
O2_4 C12_4 1_555 1_555
O17 C19_4 1_555 1_555
O18 C19_4 1_555 1_555
O5_4 Zn11 1_555 1_555
O6_4 Zn10 1_555 1_555
O12_4 C52_4 1_555 1_555
O21_2 C59_4 1_555 1_555
O22_2 C59_4 1_555 1_555
O15_4 Zn11 1_555 1_555
C10_4 C11_4 1_555 1_555
C13_4 N2_4 1_555 1_555
C17_4 C18_4 1_555 1_555
C20_4 O5_4 1_555 1_555
C20_4 O6_4 1_555 1_555
C45_2 N9 1_555 1_555
C50_4 C51_4 1_555 1_555
C53_4 N6_4 1_555 1_555
C57_4 C58_4 1_555 1_555
C60_4 O15_4 1_555 1_555
C60_4 O16_4 1_555 1_555
H17_4 C27_4 1_555 1_555
H27_3 C45_3 1_555 1_555
H27_4 C45_4 1_555 1_555

#END
