
###############################################################################
#
# This file contains modified crystal structure data generated from the
# MOF subset of the Cambridge Structural Database (CSD) v543 
# hosted by the Cambridge Crystallographic Data Centre (CCDC).
#
# This work is licensed under the Creative Commons
# Attribution-NonCommercial-ShareAlike 4.0 International License.
# To view a copy of this license, visit
# http://creativecommons.org/licenses/by-nc-sa/4.0/
# or send a letter to
# Creative Commons, PO Box 1866, Mountain View, CA 94042, USA.
#
# CIF created using the CSD Python API on 29 September 2022
# The structure has been converted into the P1 space group
# The structure has a 3D framework
# The original CSD entry EFUHEU is in the monoclinic crystal system
# The framework has been calculated to contain at least 10.0% void space
# The void calculation uses a probe of radius 1.32A, grid spacing 0.4
#
###############################################################################

data_EFUHEU
_chemical_formula_moiety         '(C144 H96 N23 O48 Zn12)n'
_symmetry_cell_setting           triclinic
_symmetry_space_group_name_H-M   'P 1'
_symmetry_Int_Tables_number      1
_space_group_name_Hall           'P 1'
loop_
_symmetry_equiv_pos_site_id
_symmetry_equiv_pos_as_xyz
1 x,y,z
_cell_length_a                   19.4733(6)
_cell_length_b                   18.8080(7)
_cell_length_c                   14.5788(4)
_cell_angle_alpha                90
_cell_angle_beta                 128.697(3)
_cell_angle_gamma                90
_cell_volume                     4167.32
loop_
_atom_site_label
_atom_site_type_symbol
_atom_site_fract_x
_atom_site_fract_y
_atom_site_fract_z
Zn1 Zn 0.02439(3) 0.13355(3) 0.35263(4)
O1 O 0.0323(3) 0.0824(3) 0.2444(4)
O2 O 0.1121(3) 0.2086(3) 0.4425(4)
N1 N 0.0051(3) 0.0810(3) 0.4559(4)
C2 C 0.1847(5) 0.1744(4) 0.5158(6)
C4 C 0.2650(5) 0.2211(3) 0.5983(6)
O4 O 0.1909(3) 0.1110(3) 0.5215(5)
C6 C 0.0387(4) 0.0184(3) 0.0787(6)
C7 C 0.2605(5) 0.2934(3) 0.5966(6)
C8 C 0.3467(4) 0.1891(3) 0.6777(5)
H2 H 0.0686 0.0612 0.1105
C11 C 0.3341(4) 0.3324(3) 0.6723(6)
H3 H 0.2066 0.3161 0.5435
C12 C 0.4172(4) 0.2311(3) 0.7506(5)
H4 H 0.3526 0.1399 0.6804
H7 H 0.3291 0.3816 0.6712
H8 H 0.4714 0.2095 0.8056
N4 N 0.4136(3) 0.3032(3) 0.7483(4)
Zn3 Zn 0.52439(3) 0.36645(3) 0.85263(4)
C10 C 0.0439(4) 0.0178(3) 0.5014(5)
C2_2 C 0.1847(5) 0.8256(4) 0.0158(6)
C4_2 C 0.2650(5) 0.7789(3) 0.0983(6)
O4_2 O 0.1909(3) 0.8890(3) 0.0215(5)
C7_2 C 0.2605(5) 0.7066(3) 0.0966(6)
C8_2 C 0.3467(4) 0.8109(3) 0.1777(5)
C11_2 C 0.3341(4) 0.6676(3) 0.1723(6)
H3_2 H 0.2066 0.6839 0.0435
C12_2 C 0.4172(4) 0.7689(3) 0.2506(5)
H4_2 H 0.3526 0.8601 0.1804
H7_2 H 0.3291 0.6184 0.1712
H8_2 H 0.4714 0.7905 0.3056
N4_2 N 0.4136(3) 0.6968(3) 0.2483(4)
Zn3_2 Zn 0.52439(3) 0.63355(3) 0.35263(4)
N2 N 0.9136(3) 0.8032(3) 0.7483(4)
C1 C 0.9816(4) 0.9703(4) 0.6920(6)
O3 O 0.9288(3) 0.9923(3) 0.7043(5)
O1_2 O 0.5323(3) 0.5824(3) 0.2444(4)
O2_2 O 0.6121(3) 0.7086(3) 0.4425(4)
N1_2 N 0.5051(3) 0.5810(3) 0.4559(4)
C1_2 C 0.4816(4) 0.5297(4) 0.1920(6)
C2_3 C 0.6847(5) 0.6744(4) 0.5158(6)
O3_2 O 0.4288(3) 0.5077(3) 0.2043(5)
C3 C 0.4891(4) 0.4916(4) 0.1101(6)
C4_3 C 0.7650(5) 0.7211(3) 0.5983(6)
O4_3 O 0.6909(3) 0.6110(3) 0.5215(5)
C5 C 0.4458(4) 0.4281(4) 0.0569(6)
C6_2 C 0.5387(4) 0.5184(3) 0.0787(6)
C7_3 C 0.7605(5) 0.7934(3) 0.5966(6)
C8_3 C 0.8467(4) 0.6891(3) 0.6777(5)
H1 H 0.4097 0.4084 0.0717
C10_2 C 0.5439(4) 0.4822(3) 0.0014(5)
H2_2 H 0.5686 0.5612 0.1105
C11_3 C 0.8341(4) 0.8324(3) 0.6723(6)
H3_3 H 0.7066 0.8161 0.5435
C12_3 C 0.9172(4) 0.7311(3) 0.7506(5)
H4_3 H 0.8526 0.6399 0.6804
H7_3 H 0.8291 0.8816 0.6712
H8_3 H 0.9714 0.7095 0.8056
C9 C 0.4558(4) 0.3939(3) 0.9821(6)
H5 H 0.4264 0.3511 0.9485
H6 H 0.5755 0.5023 0.9797
N3 N 0.5051(3) 0.4190(3) 0.9559(4)
O1_3 O 0.5323(3) 0.4176(3) 0.7444(4)
O2_3 O 0.6121(3) 0.2914(3) 0.9425(4)
C1_3 C 0.4816(4) 0.4703(4) 0.6920(6)
O3_3 O 0.4288(3) 0.4923(3) 0.7043(5)
C3_2 C 0.4891(4) 0.5084(4) 0.6101(6)
C5_2 C 0.4458(4) 0.5719(4) 0.5569(6)
C6_3 C 0.5387(4) 0.4816(3) 0.5787(6)
C9_2 C 0.4558(4) 0.6061(3) 0.4821(6)
H1_2 H 0.4097 0.5916 0.5717
C10_3 C 0.5439(4) 0.5178(3) 0.5014(5)
H2_3 H 0.5686 0.4388 0.6105
H5_2 H 0.4264 0.6489 0.4485
H6_2 H 0.5755 0.4977 0.4797
H6_3 H 0.0755 0.0023 0.9797
C10_4 C 0.0439(4) 0.9822(3) 0.0014(5)
N3_2 N 0.0051(3) 0.9190(3) 0.9559(4)
Zn2 Zn 0.02439(3) 0.86645(3) 0.85263(4)
O1_4 O 0.0323(3) 0.9176(3) 0.7444(4)
O2_4 O 0.1121(3) 0.7914(3) 0.9425(4)
C6_4 C 0.0387(4) 0.9816(3) 0.5787(6)
H2_4 H 0.0686 0.9388 0.6105
H6_4 H 0.0755 0.9977 0.4797
N2_2 N 0.9136(3) 0.1968(3) 0.2483(4)
C1_4 C 0.9816(4) 0.0297(4) 0.1920(6)
O3_4 O 0.9288(3) 0.0077(3) 0.2043(5)
C2_4 C 0.6847(5) 0.3256(4) 0.0158(6)
C4_4 C 0.7650(5) 0.2789(3) 0.0983(6)
O4_4 O 0.6909(3) 0.3890(3) 0.0215(5)
C7_4 C 0.7605(5) 0.2066(3) 0.0966(6)
C8_4 C 0.8467(4) 0.3109(3) 0.1777(5)
C11_4 C 0.8341(4) 0.1676(3) 0.1723(6)
H3_4 H 0.7066 0.1839 0.0435
C12_4 C 0.9172(4) 0.2689(3) 0.2506(5)
H4_4 H 0.8526 0.3601 0.1804
H7_4 H 0.8291 0.1184 0.1712
H8_4 H 0.9714 0.2905 0.3056
C3_3 C 0.9891(4) 0.9916(4) 0.1101(6)
C5_3 C 0.9458(4) 0.9281(4) 0.0569(6)
H1_3 H 0.9097 0.9084 0.0717
C9_3 C 0.9558(4) 0.8939(3) 0.9821(6)
H5_3 H 0.9264 0.8511 0.9485
C3_4 C 0.9891(4) 0.0084(4) 0.6101(6)
C5_4 C 0.9458(4) 0.0719(4) 0.5569(6)
C9_4 C 0.9558(4) 0.1061(3) 0.4821(6)
H1_4 H 0.9097 0.0916 0.5717
H5_4 H 0.9264 0.1489 0.4485
H15 H 0.8618 0.6543 0.0054
Zn6 Zn 0.76698(3) 0.63354(3) 0.10626(4)
Zn4 Zn 0.26698(3) 0.13354(3) 0.10626(4)
O5 O 0.6788(3) 0.2878(3) 0.5308(4)
N5 N 0.3792(3) 0.1934(3) 0.2165(4)
C13 C 0.5275(4) 0.2748(4) 0.3708(5)
C14 C 0.6079(4) 0.3193(4) 0.4528(6)
C15 C 0.3757(4) 0.2634(4) 0.2060(5)
H9 H 0.3224 0.2846 0.1463
O6 O 0.6036(3) 0.3840(3) 0.4393(5)
C16 C 0.4501(4) 0.3068(4) 0.2823(6)
H10 H 0.4466 0.3559 0.2726
C17 C 0.5300(4) 0.2019(4) 0.3805(5)
H11 H 0.5823 0.1790 0.4389
C18 C 0.4539(4) 0.1628(4) 0.3026(5)
H12 H 0.4556 0.1138 0.3114
O7 O 0.7566(3) 0.4260(2) 0.7048(4)
N6 N 0.7816(3) 0.4137(3) 0.4954(4)
C19 C 0.8080(4) 0.4787(3) 0.7592(5)
C20 C 0.8317(4) 0.6120(3) 0.9701(5)
C21 C 0.7382(4) 0.5263(3) 0.9408(5)
C22 C 0.7436(4) 0.4907(4) 0.8656(6)
H13 H 0.7119 0.4490 0.8306
C23 C 0.8412(4) 0.5794(3) 0.8948(5)
H14 H 0.8771 0.5992 0.8800
H16 H 0.7018 0.5078 0.9558
C24 C 0.7965(4) 0.5166(4) 0.8410(6)
O8 O 0.8655(3) 0.4971(3) 0.7546(4)
Zn5 Zn 0.76698(3) 0.36646(3) 0.60626(4)
N7 N 0.8792(3) 0.3066(3) 0.7165(4)
N8 N 0.7816(3) 0.5863(3) 0.9954(4)
O5_2 O 0.6788(3) 0.7122(3) 0.0308(4)
O7_2 O 0.7566(3) 0.5740(2) 0.2048(4)
C19_2 C 0.8080(4) 0.5213(3) 0.2592(5)
C20_2 C 0.8317(4) 0.3880(3) 0.4701(5)
C21_2 C 0.7382(4) 0.4737(3) 0.4408(5)
C22_2 C 0.7436(4) 0.5093(4) 0.3656(6)
H13_2 H 0.7119 0.5510 0.3306
C23_2 C 0.8412(4) 0.4206(3) 0.3948(5)
H14_2 H 0.8771 0.4008 0.3800
H15_2 H 0.8618 0.3457 0.5054
H16_2 H 0.7018 0.4922 0.4558
C24_2 C 0.7965(4) 0.4834(4) 0.3410(6)
O8_2 O 0.8655(3) 0.5029(3) 0.2546(4)
N7_2 N 0.8792(3) 0.6934(3) 0.2165(4)
Zn4_2 Zn 0.26698(3) 0.86646(3) 0.60626(4)
N5_2 N 0.3792(3) 0.8066(3) 0.7165(4)
C13_2 C 0.5275(4) 0.7252(4) 0.8708(5)
C14_2 C 0.6079(4) 0.6807(4) 0.9528(6)
C15_2 C 0.3757(4) 0.7366(4) 0.7060(5)
H9_2 H 0.3224 0.7154 0.6463
O6_2 O 0.6036(3) 0.6160(3) 0.9393(5)
C16_2 C 0.4501(4) 0.6932(4) 0.7823(6)
H10_2 H 0.4466 0.6441 0.7726
C17_2 C 0.5300(4) 0.7981(4) 0.8805(5)
H11_2 H 0.5823 0.8210 0.9389
C18_2 C 0.4539(4) 0.8372(4) 0.8026(5)
H12_2 H 0.4556 0.8862 0.8114
H15_3 H 0.3618 0.1543 0.0054
O5_3 O 0.1788(3) 0.7878(3) 0.5308(4)
C13_3 C 0.0275(4) 0.7748(4) 0.3708(5)
C14_3 C 0.1079(4) 0.8193(4) 0.4528(6)
O6_3 O 0.1036(3) 0.8840(3) 0.4393(5)
C17_3 C 0.0300(4) 0.7019(4) 0.3805(5)
H11_3 H 0.0823 0.6790 0.4389
O7_3 O 0.2566(3) 0.9260(2) 0.7048(4)
N6_2 N 0.2816(3) 0.9137(3) 0.4954(4)
C19_3 C 0.3080(4) 0.9787(3) 0.7592(5)
C22_3 C 0.2436(4) 0.9907(4) 0.8656(6)
H13_3 H 0.2119 0.9490 0.8306
O8_3 O 0.3655(3) 0.9971(3) 0.7546(4)
C15_3 C 0.8757(4) 0.7634(4) 0.2060(5)
H9_3 H 0.8224 0.7846 0.1463
C16_3 C 0.9501(4) 0.8068(4) 0.2823(6)
H10_3 H 0.9466 0.8559 0.2726
C18_3 C 0.9539(4) 0.6628(4) 0.3026(5)
H12_3 H 0.9556 0.6138 0.3114
O5_4 O 0.1788(3) 0.2122(3) 0.0308(4)
O7_4 O 0.2566(3) 0.0740(2) 0.2048(4)
C19_4 C 0.3080(4) 0.0213(3) 0.2592(5)
C22_4 C 0.2436(4) 0.0093(4) 0.3656(6)
H13_4 H 0.2119 0.0510 0.3306
O8_4 O 0.3655(3) 0.0029(3) 0.2546(4)
C20_3 C 0.3317(4) 0.8880(3) 0.4701(5)
C21_3 C 0.2382(4) 0.9737(3) 0.4408(5)
C23_3 C 0.3412(4) 0.9206(3) 0.3948(5)
H14_3 H 0.3771 0.9008 0.3800
H15_4 H 0.3618 0.8457 0.5054
H16_3 H 0.2018 0.9922 0.4558
C24_3 C 0.2965(4) 0.9834(4) 0.3410(6)
C15_4 C 0.8757(4) 0.2366(4) 0.7060(5)
H9_4 H 0.8224 0.2154 0.6463
C16_4 C 0.9501(4) 0.1932(4) 0.7823(6)
H10_4 H 0.9466 0.1441 0.7726
C18_4 C 0.9539(4) 0.3372(4) 0.8026(5)
H12_4 H 0.9556 0.3862 0.8114
C20_4 C 0.3317(4) 0.1120(3) 0.9701(5)
C21_4 C 0.2382(4) 0.0263(3) 0.9408(5)
C23_4 C 0.3412(4) 0.0794(3) 0.8948(5)
H14_4 H 0.3771 0.0992 0.8800
H16_4 H 0.2018 0.0078 0.9558
C24_4 C 0.2965(4) 0.0166(4) 0.8410(6)
N8_2 N 0.2816(3) 0.0863(3) 0.9954(4)
C13_4 C 0.0275(4) 0.2252(4) 0.8708(5)
C14_4 C 0.1079(4) 0.1807(4) 0.9528(6)
O6_4 O 0.1036(3) 0.1160(3) 0.9393(5)
C17_4 C 0.0300(4) 0.2981(4) 0.8805(5)
H11_4 H 0.0823 0.3210 0.9389
Zn7 Zn 0.13525(4) 0.36679(3) 0.23544(5)
N9 N 0.1459(3) 0.4278(3) 0.1288(4)
C28 C 0.2268(4) 0.4585(4) 0.0638(6)
H18 H 0.2770 0.4529 0.0701
C29 C 0.0822(5) 0.4699(4) 0.0482(6)
H19 H 0.0316 0.4732 0.0415
C30 C 0.2169(4) 0.4229(4) 0.1358(5)
H20 H 0.2624 0.3934 0.1931
O9 O 0.1192(4) 0.5942(3) 0.8455(4)
C25 C 0.1611(5) 0.5022(5) 0.9828(7)
C26 C 0.0874(5) 0.5097(4) 0.9729(6)
H17 H 0.0423 0.5402 0.9177
C27 C 0.1685(5) 0.5404(4) 0.8955(6)
O10 O 0.2204(4) 0.5196(3) 0.8816(5)
N10 N 0.2498(3) 0.6906(3) 0.8371(4)
O11 O 0.0504(3) 0.7122(3) 0.6437(4)
Zn8 Zn 0.13525(4) 0.63321(3) 0.73544(5)
N11 N 0.1459(3) 0.5722(3) 0.6288(4)
O9_2 O 0.1192(4) 0.4058(3) 0.3455(4)
C25_2 C 0.1611(5) 0.4978(5) 0.4828(7)
C26_2 C 0.0874(5) 0.4903(4) 0.4729(6)
H17_2 H 0.0423 0.4598 0.4177
C27_2 C 0.1685(5) 0.4596(4) 0.3955(6)
O10_2 O 0.2204(4) 0.4804(3) 0.3816(5)
C28_2 C 0.2268(4) 0.5415(4) 0.5638(6)
H18_2 H 0.2770 0.5471 0.5701
C29_2 C 0.0822(5) 0.5301(4) 0.5482(6)
H19_2 H 0.0316 0.5268 0.5415
C30_2 C 0.2169(4) 0.5771(4) 0.6358(5)
H20_2 H 0.2624 0.6066 0.6931
N10_2 N 0.2498(3) 0.3094(3) 0.3371(4)
O11_2 O 0.0504(3) 0.2878(3) 0.1437(4)
C31 C 0.8993(4) 0.2710(3) 0.9907(5)
C32 C 0.8208(4) 0.3017(3) 0.9056(5)
C33 C 0.9034(4) 0.1977(3) 0.9978(5)
C34 C 0.8264(4) 0.1587(4) 0.9206(5)
C35 C 0.7461(4) 0.2598(3) 0.8280(5)
H22 H 0.6929 0.2816 0.7691
H23 H 0.8283 0.1094 0.9271
H24 H 0.8166 0.3510 0.8988
N12 N 0.7498(3) 0.1906(3) 0.8371(4)
Zn9 Zn 0.63525(4) 0.13321(3) 0.73544(5)
O9_3 O 0.6192(4) 0.0942(3) 0.8455(4)
C25_3 C 0.6611(5) 0.0022(5) 0.9828(7)
C26_3 C 0.5874(5) 0.0097(4) 0.9729(6)
H17_3 H 0.5423 0.0402 0.9177
C27_3 C 0.6685(5) 0.0404(4) 0.8955(6)
O10_3 O 0.7204(4) 0.0196(3) 0.8816(5)
C31_2 C 0.3993(4) 0.2290(3) 0.4907(5)
C32_2 C 0.3208(4) 0.1983(3) 0.4056(5)
C33_2 C 0.4034(4) 0.3023(3) 0.4978(5)
H21 H 0.4566 0.3252 0.5531
C34_2 C 0.3264(4) 0.3413(4) 0.4206(5)
C35_2 C 0.2461(4) 0.2402(3) 0.3280(5)
H22_2 H 0.1929 0.2184 0.2691
H23_2 H 0.3283 0.3906 0.4271
O11_3 O 0.5504(3) 0.2122(3) 0.6437(4)
C36 C 0.4780(5) 0.1825(4) 0.5749(6)
O12 O 0.4676(3) 0.1187(2) 0.5730(4)
H24_2 H 0.3166 0.1490 0.3988
N11_2 N 0.6459(3) 0.0722(3) 0.6288(4)
C28_3 C 0.7268(4) 0.0415(4) 0.5638(6)
H18_3 H 0.7770 0.0471 0.5701
C29_3 C 0.5822(5) 0.0301(4) 0.5482(6)
H19_3 H 0.5316 0.0268 0.5415
C30_3 C 0.7169(4) 0.0771(4) 0.6358(5)
H20_3 H 0.7624 0.1066 0.6931
C31_3 C 0.3993(4) 0.7710(3) 0.9907(5)
C32_3 C 0.3208(4) 0.8017(3) 0.9056(5)
C33_3 C 0.4034(4) 0.6977(3) 0.9978(5)
C34_3 C 0.3264(4) 0.6587(4) 0.9206(5)
C35_3 C 0.2461(4) 0.7598(3) 0.8280(5)
H22_3 H 0.1929 0.7816 0.7691
H23_3 H 0.3283 0.6094 0.9271
H24_3 H 0.3166 0.8510 0.8988
C31_4 C 0.8993(4) 0.7290(3) 0.4907(5)
C32_4 C 0.8208(4) 0.6983(3) 0.4056(5)
C33_4 C 0.9034(4) 0.8023(3) 0.4978(5)
H21_2 H 0.9566 0.8252 0.5531
C34_4 C 0.8264(4) 0.8413(4) 0.4206(5)
C35_4 C 0.7461(4) 0.7402(3) 0.3280(5)
H22_4 H 0.6929 0.7184 0.2691
H23_4 H 0.8283 0.8906 0.4271
C36_2 C 0.9780(5) 0.6825(4) 0.5749(6)
O12_2 O 0.9676(3) 0.6187(2) 0.5730(4)
H24_4 H 0.8166 0.6490 0.3988
N12_2 N 0.7498(3) 0.8094(3) 0.3371(4)
Zn9_2 Zn 0.63525(4) 0.86679(3) 0.23544(5)
N9_2 N 0.6459(3) 0.9278(3) 0.1288(4)
C28_4 C 0.7268(4) 0.9585(4) 0.0638(6)
H18_4 H 0.7770 0.9529 0.0701
C29_4 C 0.5822(5) 0.9699(4) 0.0482(6)
H19_4 H 0.5316 0.9732 0.0415
C30_4 C 0.7169(4) 0.9229(4) 0.1358(5)
H20_4 H 0.7624 0.8934 0.1931
O9_4 O 0.6192(4) 0.9058(3) 0.3455(4)
C25_4 C 0.6611(5) 0.9978(5) 0.4828(7)
C26_4 C 0.5874(5) 0.9903(4) 0.4729(6)
H17_4 H 0.5423 0.9598 0.4177
C27_4 C 0.6685(5) 0.9596(4) 0.3955(6)
O10_4 O 0.7204(4) 0.9804(3) 0.3816(5)
H21_3 H 0.4566 0.6748 0.0531
O11_4 O 0.5504(3) 0.7878(3) 0.1437(4)
C36_3 C 0.4780(5) 0.8175(4) 0.0749(6)
O12_3 O 0.4676(3) 0.8813(2) 0.0730(4)
H21_4 H 0.9566 0.1748 0.0531
C36_4 C 0.9780(5) 0.3175(4) 0.0749(6)
O12_4 O 0.9676(3) 0.3813(2) 0.0730(4)
loop_
_geom_bond_atom_site_label_1
_geom_bond_atom_site_label_2
_geom_bond_site_symmetry_1
_geom_bond_site_symmetry_2
Zn1 O1 1_555 1_555
O2 Zn1 1_555 1_555
N1 Zn1 1_555 1_555
C2 O2 1_555 1_555
C4 C2 1_555 1_555
O4 C2 1_555 1_555
C7 C4 1_555 1_555
C8 C4 1_555 1_555
H2 C6 1_555 1_555
C11 C7 1_555 1_555
H3 C7 1_555 1_555
C12 C8 1_555 1_555
H4 C8 1_555 1_555
H7 C11 1_555 1_555
H8 C12 1_555 1_555
N4 C11 1_555 1_555
Zn3 N4 1_555 1_555
C12 N4 1_555 1_555
C10 N1 1_555 1_555
C4_2 C2_2 1_555 1_555
O4_2 C2_2 1_555 1_555
C7_2 C4_2 1_555 1_555
C8_2 C4_2 1_555 1_555
C11_2 C7_2 1_555 1_555
H3_2 C7_2 1_555 1_555
C12_2 C8_2 1_555 1_555
H4_2 C8_2 1_555 1_555
H7_2 C11_2 1_555 1_555
H8_2 C12_2 1_555 1_555
N4_2 C11_2 1_555 1_555
Zn3_2 N4_2 1_555 1_555
C12_2 N4_2 1_555 1_555
C1 O3 1_555 1_555
Zn3_2 O1_2 1_555 1_555
O1_2 C1_2 1_555 1_555
O2_2 Zn3_2 1_555 1_555
N1_2 Zn3_2 1_555 1_555
C1_2 O3_2 1_555 1_555
C2_3 O2_2 1_555 1_555
C3 C1_2 1_555 1_555
C4_3 C2_3 1_555 1_555
O4_3 C2_3 1_555 1_555
C5 C3 1_555 1_555
C6_2 C3 1_555 1_555
C7_3 C4_3 1_555 1_555
C8_3 C4_3 1_555 1_555
H1 C5 1_555 1_555
C10_2 C6_2 1_555 1_555
H2_2 C6_2 1_555 1_555
C11_3 C7_3 1_555 1_555
H3_3 C7_3 1_555 1_555
C12_3 C8_3 1_555 1_555
H4_3 C8_3 1_555 1_555
H7_3 C11_3 1_555 1_555
H8_3 C12_3 1_555 1_555
N2 C11_3 1_555 1_555
C12_3 N2 1_555 1_555
H5 C9 1_555 1_555
N3 C9 1_555 1_555
Zn3 N3 1_555 1_555
Zn3 O1_3 1_555 1_555
O1_3 C1_3 1_555 1_555
O2_3 Zn3 1_555 1_555
C1_3 O3_3 1_555 1_555
C3_2 C1_3 1_555 1_555
C5_2 C3_2 1_555 1_555
C6_3 C3_2 1_555 1_555
C9_2 C5_2 1_555 1_555
H1_2 C5_2 1_555 1_555
C10_3 C6_3 1_555 1_555
H2_3 C6_3 1_555 1_555
H5_2 C9_2 1_555 1_555
H6_2 C10_3 1_555 1_555
N1_2 C9_2 1_555 1_555
C10_3 N1_2 1_555 1_555
Zn2 N3_2 1_555 1_555
Zn2 O1_4 1_555 1_555
O2_4 Zn2 1_555 1_555
H2_4 C6_4 1_555 1_555
C1_4 O3_4 1_555 1_555
C4_4 C2_4 1_555 1_555
O4_4 C2_4 1_555 1_555
C7_4 C4_4 1_555 1_555
C8_4 C4_4 1_555 1_555
C11_4 C7_4 1_555 1_555
H3_4 C7_4 1_555 1_555
C12_4 C8_4 1_555 1_555
H4_4 C8_4 1_555 1_555
H7_4 C11_4 1_555 1_555
H8_4 C12_4 1_555 1_555
N2_2 C11_4 1_555 1_555
C12_4 N2_2 1_555 1_555
C5_3 C3_3 1_555 1_555
H1_3 C5_3 1_555 1_555
H5_3 C9_3 1_555 1_555
C5_4 C3_4 1_555 1_555
C9_4 C5_4 1_555 1_555
H1_4 C5_4 1_555 1_555
H5_4 C9_4 1_555 1_555
Zn4 N5 1_555 1_555
O5 C14 1_555 1_555
N5 C15 1_555 1_555
C13 C14 1_555 1_555
C14 O6 1_555 1_555
C15 H9 1_555 1_555
C16 C13 1_555 1_555
H10 C16 1_555 1_555
C17 C13 1_555 1_555
H11 C17 1_555 1_555
C18 N5 1_555 1_555
H12 C18 1_555 1_555
O7 C19 1_555 1_555
N6 Zn5 1_555 1_555
C19 C24 1_555 1_555
C20 C23 1_555 1_555
C21 C22 1_555 1_555
C22 H13 1_555 1_555
C23 H14 1_555 1_555
H16 C21 1_555 1_555
C24 C22 1_555 1_555
O8 C19 1_555 1_555
Zn5 O5 1_555 1_555
N7 Zn5 1_555 1_555
N8 C20 1_555 1_555
C15 C16 1_555 1_555
C17 C18 1_555 1_555
O7 Zn5 1_555 1_555
C21 N8 1_555 1_555
C23 C24 1_555 1_555
O7_2 C19_2 1_555 1_555
C19_2 C24_2 1_555 1_555
C20_2 C23_2 1_555 1_555
C21_2 C22_2 1_555 1_555
C22_2 H13_2 1_555 1_555
C23_2 H14_2 1_555 1_555
H15_2 C20_2 1_555 1_555
H16_2 C21_2 1_555 1_555
C24_2 C22_2 1_555 1_555
O8_2 C19_2 1_555 1_555
Zn6 O5_2 1_555 1_555
N7_2 Zn6 1_555 1_555
N6 C20_2 1_555 1_555
O7_2 Zn6 1_555 1_555
C21_2 N6 1_555 1_555
C23_2 C24_2 1_555 1_555
Zn4_2 N5_2 1_555 1_555
N5_2 C15_2 1_555 1_555
C13_2 C14_2 1_555 1_555
C14_2 O6_2 1_555 1_555
C15_2 H9_2 1_555 1_555
C16_2 C13_2 1_555 1_555
H10_2 C16_2 1_555 1_555
C17_2 C13_2 1_555 1_555
H11_2 C17_2 1_555 1_555
C18_2 N5_2 1_555 1_555
H12_2 C18_2 1_555 1_555
C15_2 C16_2 1_555 1_555
C17_2 C18_2 1_555 1_555
O5_3 C14_3 1_555 1_555
C13_3 C14_3 1_555 1_555
C14_3 O6_3 1_555 1_555
C17_3 C13_3 1_555 1_555
H11_3 C17_3 1_555 1_555
O7_3 C19_3 1_555 1_555
N6_2 Zn4_2 1_555 1_555
C22_3 H13_3 1_555 1_555
O8_3 C19_3 1_555 1_555
Zn4_2 O5_3 1_555 1_555
O7_3 Zn4_2 1_555 1_555
N7_2 C15_3 1_555 1_555
C15_3 H9_3 1_555 1_555
H10_3 C16_3 1_555 1_555
C18_3 N7_2 1_555 1_555
H12_3 C18_3 1_555 1_555
C15_3 C16_3 1_555 1_555
O7_4 C19_4 1_555 1_555
C22_4 H13_4 1_555 1_555
O8_4 C19_4 1_555 1_555
Zn4 O5_4 1_555 1_555
O7_4 Zn4 1_555 1_555
C20_3 C23_3 1_555 1_555
C23_3 H14_3 1_555 1_555
H15_4 C20_3 1_555 1_555
H16_3 C21_3 1_555 1_555
N6_2 C20_3 1_555 1_555
C21_3 N6_2 1_555 1_555
C23_3 C24_3 1_555 1_555
N7 C15_4 1_555 1_555
C15_4 H9_4 1_555 1_555
H10_4 C16_4 1_555 1_555
C18_4 N7 1_555 1_555
H12_4 C18_4 1_555 1_555
C15_4 C16_4 1_555 1_555
C20_4 C23_4 1_555 1_555
C23_4 H14_4 1_555 1_555
H16_4 C21_4 1_555 1_555
N8_2 C20_4 1_555 1_555
C21_4 N8_2 1_555 1_555
C23_4 C24_4 1_555 1_555
C13_4 C14_4 1_555 1_555
C14_4 O6_4 1_555 1_555
C17_4 C13_4 1_555 1_555
H11_4 C17_4 1_555 1_555
Zn7 N9 1_555 1_555
N9 C29 1_555 1_555
H18 C28 1_555 1_555
H19 C29 1_555 1_555
C30 N9 1_555 1_555
H20 C30 1_555 1_555
C28 C30 1_555 1_555
O9 C27 1_555 1_555
C25 C26 1_555 1_555
C26 H17 1_555 1_555
C27 C25 1_555 1_555
O10 C27 1_555 1_555
N10 Zn8 1_555 1_555
Zn8 O9 1_555 1_555
N11 Zn8 1_555 1_555
O11 Zn8 1_555 1_555
O9_2 C27_2 1_555 1_555
C25_2 C26_2 1_555 1_555
C26_2 H17_2 1_555 1_555
C27_2 C25_2 1_555 1_555
O10_2 C27_2 1_555 1_555
N11 C29_2 1_555 1_555
C28_2 C25_2 1_555 1_555
H18_2 C28_2 1_555 1_555
C29_2 C26_2 1_555 1_555
H19_2 C29_2 1_555 1_555
C30_2 N11 1_555 1_555
H20_2 C30_2 1_555 1_555
N10_2 Zn7 1_555 1_555
Zn7 O9_2 1_555 1_555
C28_2 C30_2 1_555 1_555
O11_2 Zn7 1_555 1_555
C31 C32 1_555 1_555
C32 C35 1_555 1_555
C33 C31 1_555 1_555
C34 C33 1_555 1_555
C35 H22 1_555 1_555
H23 C34 1_555 1_555
H24 C32 1_555 1_555
N12 C34 1_555 1_555
Zn9 N12 1_555 1_555
C35 N12 1_555 1_555
O9_3 C27_3 1_555 1_555
C25_3 C26_3 1_555 1_555
C26_3 H17_3 1_555 1_555
C27_3 C25_3 1_555 1_555
O10_3 C27_3 1_555 1_555
C31_2 C32_2 1_555 1_555
C32_2 C35_2 1_555 1_555
C33_2 C31_2 1_555 1_555
H21 C33_2 1_555 1_555
C34_2 C33_2 1_555 1_555
C35_2 H22_2 1_555 1_555
H23_2 C34_2 1_555 1_555
O11_3 C36 1_555 1_555
C36 C31_2 1_555 1_555
O12 C36 1_555 1_555
H24_2 C32_2 1_555 1_555
Zn9 O9_3 1_555 1_555
N11_2 Zn9 1_555 1_555
N10_2 C34_2 1_555 1_555
C35_2 N10_2 1_555 1_555
O11_3 Zn9 1_555 1_555
N11_2 C29_3 1_555 1_555
H18_3 C28_3 1_555 1_555
H19_3 C29_3 1_555 1_555
C30_3 N11_2 1_555 1_555
H20_3 C30_3 1_555 1_555
C28_3 C30_3 1_555 1_555
C31_3 C32_3 1_555 1_555
C32_3 C35_3 1_555 1_555
C33_3 C31_3 1_555 1_555
C34_3 C33_3 1_555 1_555
C35_3 H22_3 1_555 1_555
H23_3 C34_3 1_555 1_555
H24_3 C32_3 1_555 1_555
N10 C34_3 1_555 1_555
C35_3 N10 1_555 1_555
C31_4 C32_4 1_555 1_555
C32_4 C35_4 1_555 1_555
C33_4 C31_4 1_555 1_555
H21_2 C33_4 1_555 1_555
C34_4 C33_4 1_555 1_555
C35_4 H22_4 1_555 1_555
H23_4 C34_4 1_555 1_555
C36_2 C31_4 1_555 1_555
O12_2 C36_2 1_555 1_555
H24_4 C32_4 1_555 1_555
N12_2 C34_4 1_555 1_555
Zn9_2 N12_2 1_555 1_555
C35_4 N12_2 1_555 1_555
Zn9_2 N9_2 1_555 1_555
N9_2 C29_4 1_555 1_555
H18_4 C28_4 1_555 1_555
H19_4 C29_4 1_555 1_555
C30_4 N9_2 1_555 1_555
H20_4 C30_4 1_555 1_555
C28_4 C30_4 1_555 1_555
O9_4 C27_4 1_555 1_555
C25_4 C26_4 1_555 1_555
C26_4 H17_4 1_555 1_555
C27_4 C25_4 1_555 1_555
O10_4 C27_4 1_555 1_555
O11_4 C36_3 1_555 1_555
O12_3 C36_3 1_555 1_555
Zn9_2 O9_4 1_555 1_555
O11_4 Zn9_2 1_555 1_555
O12_4 C36_4 1_555 1_555

#END
