
###############################################################################
#
# This file contains modified crystal structure data generated from the
# MOF subset of the Cambridge Structural Database (CSD) v543 
# hosted by the Cambridge Crystallographic Data Centre (CCDC).
#
# This work is licensed under the Creative Commons
# Attribution-NonCommercial-ShareAlike 4.0 International License.
# To view a copy of this license, visit
# http://creativecommons.org/licenses/by-nc-sa/4.0/
# or send a letter to
# Creative Commons, PO Box 1866, Mountain View, CA 94042, USA.
#
# CIF created using the CSD Python API on 29 September 2022
# The structure has been converted into the P1 space group
# The structure has a 3D framework
# The original CSD entry EFUTEH is in the monoclinic crystal system
# The framework has been calculated to contain at least 10.0% void space
# The void calculation uses a probe of radius 1.32A, grid spacing 0.4
#
###############################################################################

data_EFUTEH
_chemical_formula_moiety         '(C192 H120 N24 O52 Zn16)n'
_symmetry_cell_setting           triclinic
_symmetry_space_group_name_H-M   'P 1'
_symmetry_Int_Tables_number      1
_space_group_name_Hall           'P 1'
loop_
_symmetry_equiv_pos_site_id
_symmetry_equiv_pos_as_xyz
1 x,y,z
_cell_length_a                   24.2264(8)
_cell_length_b                   19.3903(9)
_cell_length_c                   14.0603(6)
_cell_angle_alpha                90
_cell_angle_beta                 98.645(4)
_cell_angle_gamma                90
_cell_volume                     6529.89
loop_
_atom_site_label
_atom_site_type_symbol
_atom_site_fract_x
_atom_site_fract_y
_atom_site_fract_z
Zn1 Zn 0.12784(3) 0.11620(4) 0.14323(6)
Zn2 Zn 0.16341(3) 0.12300(4) 0.39282(6)
N2 N 0.1663(2) 0.2053(3) 0.1153(5)
N3 N 0.2926(2) 0.5324(3) 0.0917(4)
O1 O 0.1602(2) 0.0283(3) 0.1168(4)
O2 O 0.2394(2) 0.0641(3) 0.2007(5)
O7 O 0.11178(18) 0.1144(3) 0.2741(3)
H1 H 0.1085 0.1555 0.2919
C1 C 0.2108(3) 0.0188(4) 0.1557(5)
C15 C 0.2195(3) 0.2172(4) 0.1458(6)
H8 H 0.2413 0.1817 0.1757
C16 C 0.2439(3) 0.2795(5) 0.1353(7)
H9 H 0.2817 0.2845 0.1587
C17 C 0.2159(3) 0.3345(4) 0.0926(5)
C18 C 0.1597(4) 0.3232(5) 0.0593(8)
H10 H 0.1373 0.3586 0.0303
C19 C 0.1376(4) 0.2585(5) 0.0698(8)
H11 H 0.1005 0.2511 0.0439
C20 C 0.2419(3) 0.4031(4) 0.0860(5)
C21 C 0.2987(3) 0.4108(4) 0.0897(5)
H12 H 0.3211 0.3719 0.0906
C22 C 0.3220(3) 0.4730(5) 0.0920(5)
H13 H 0.3604 0.4758 0.0939
C23 C 0.2378(3) 0.5272(4) 0.0848(6)
H14 H 0.2167 0.5674 0.0810
C24 C 0.2105(3) 0.4645(4) 0.0828(6)
H15 H 0.1719 0.4628 0.0793
Zn5 Zn 0.33659(3) 0.62300(4) 0.10718(6)
N4 N 0.1176(2) 0.1163(3) 0.5038(4)
N5 N 0.2074(2) 0.0324(3) 0.4083(4)
O8 O 0.21694(19) 0.1991(3) 0.3852(4)
O9 O 0.1380(2) 0.2507(3) 0.3921(5)
O10 O 0.05116(19) 0.1171(3) 0.0763(4)
N1 N 0.1176(2) 0.8837(3) 0.0038(4)
O3 O 0.28306(19) 0.6991(3) 0.1148(4)
O4 O 0.3620(2) 0.7507(3) 0.1079(5)
C2 C 0.2342(3) 0.9483(4) 0.1495(5)
C3 C 0.2916(3) 0.9398(4) 0.1689(5)
H2 H 0.3138 0.9775 0.1902
C4 C 0.3165(3) 0.8782(4) 0.1577(6)
H3 H 0.3552 0.8749 0.1700
C5 C 0.2858(3) 0.8213(4) 0.1287(5)
C6 C 0.3118(3) 0.7526(4) 0.1154(6)
C7 C 0.2275(3) 0.8292(4) 0.1116(5)
H4 H 0.2054 0.7909 0.0928
C8 C 0.2020(3) 0.8913(4) 0.1214(5)
C9 C 0.1387(3) 0.8924(3) 0.0962(5)
C11 C 0.0253(3) 0.8874(4) 0.0467(5)
C13 C 0.0473(3) 0.8948(5) 0.1408(6)
H6 H 0.0243 0.8980 0.1878
C14 C 0.1056(3) 0.8975(5) 0.1658(6)
H7 H 0.1215 0.9027 0.2298
C10 C 0.0615(3) 0.8816(4) 0.9811(5)
H5 H 0.0464 0.8758 0.9167
Zn6 Zn 0.16341(3) 0.87700(4) 0.89282(6)
O5 O 0.94884(19) 0.8829(3) 0.9237(4)
Zn3 Zn 0.87216(3) 0.88380(4) 0.85677(6)
O5_2 O 0.05116(19) 0.8829(3) 0.5763(4)
O6 O 0.0689(2) 0.8805(4) 0.4269(5)
C12 C 0.0368(3) 0.8835(4) 0.4871(7)
Zn3_2 Zn 0.12784(3) 0.88380(4) 0.64323(6)
Zn1_2 Zn 0.87216(3) 0.11620(4) 0.35677(6)
Zn2_2 Zn 0.83659(3) 0.12300(4) 0.10718(6)
N2_2 N 0.8337(2) 0.2053(3) 0.3847(5)
N3_2 N 0.7074(2) 0.5324(3) 0.4083(4)
O1_2 O 0.8398(2) 0.0283(3) 0.3832(4)
O2_2 O 0.7606(2) 0.0641(3) 0.2993(5)
O7_2 O 0.88822(18) 0.1144(3) 0.2259(3)
H1_2 H 0.8915 0.1555 0.2081
C1_2 C 0.7892(3) 0.0188(4) 0.3443(5)
C15_2 C 0.7805(3) 0.2172(4) 0.3542(6)
H8_2 H 0.7587 0.1817 0.3243
C16_2 C 0.7561(3) 0.2795(5) 0.3647(7)
H9_2 H 0.7183 0.2845 0.3413
C17_2 C 0.7841(3) 0.3345(4) 0.4074(5)
C18_2 C 0.8403(4) 0.3232(5) 0.4407(8)
H10_2 H 0.8627 0.3586 0.4697
C19_2 C 0.8624(4) 0.2585(5) 0.4302(8)
H11_2 H 0.8995 0.2511 0.4561
C20_2 C 0.7581(3) 0.4031(4) 0.4140(5)
C21_2 C 0.7013(3) 0.4108(4) 0.4103(5)
H12_2 H 0.6789 0.3719 0.4094
C22_2 C 0.6780(3) 0.4730(5) 0.4080(5)
H13_2 H 0.6396 0.4758 0.4061
C23_2 C 0.7622(3) 0.5272(4) 0.4152(6)
H14_2 H 0.7833 0.5674 0.4190
C24_2 C 0.7895(3) 0.4645(4) 0.4172(6)
H15_2 H 0.8281 0.4628 0.4207
Zn5_2 Zn 0.66341(3) 0.62300(4) 0.39282(6)
N5_2 N 0.7926(2) 0.0324(3) 0.0917(4)
O8_2 O 0.78306(19) 0.1991(3) 0.1148(4)
O9_2 O 0.8620(2) 0.2507(3) 0.1079(5)
O10_2 O 0.94884(19) 0.1171(3) 0.4237(4)
N4_2 N 0.8824(2) 0.1163(3) 0.9962(4)
N1_2 N 0.8824(2) 0.8837(3) 0.4962(4)
O3_2 O 0.71694(19) 0.6991(3) 0.3852(4)
O4_2 O 0.6380(2) 0.7507(3) 0.3921(5)
C2_2 C 0.7658(3) 0.9483(4) 0.3505(5)
C3_2 C 0.7084(3) 0.9398(4) 0.3311(5)
H2_2 H 0.6862 0.9775 0.3098
C4_2 C 0.6835(3) 0.8782(4) 0.3423(6)
H3_2 H 0.6448 0.8749 0.3300
C5_2 C 0.7142(3) 0.8213(4) 0.3713(5)
C6_2 C 0.6882(3) 0.7526(4) 0.3846(6)
C7_2 C 0.7725(3) 0.8292(4) 0.3884(5)
H4_2 H 0.7946 0.7909 0.4072
C8_2 C 0.7980(3) 0.8913(4) 0.3786(5)
C9_2 C 0.8613(3) 0.8924(3) 0.4038(5)
C10_2 C 0.9385(3) 0.8816(4) 0.5189(5)
H5_2 H 0.9536 0.8758 0.5833
C11_2 C 0.9747(3) 0.8874(4) 0.4533(5)
C13_2 C 0.9527(3) 0.8948(5) 0.3592(6)
H6_2 H 0.9757 0.8980 0.3122
C14_2 C 0.8944(3) 0.8975(5) 0.3342(6)
H7_2 H 0.8785 0.9027 0.2702
Zn6_2 Zn 0.83659(3) 0.87700(4) 0.60718(6)
C23_3 C 0.7378(3) 0.0272(4) 0.0848(6)
H14_3 H 0.7167 0.0674 0.0810
Zn1_3 Zn 0.62784(3) 0.61620(4) 0.14323(6)
N1_3 N 0.6176(2) 0.3837(3) 0.0038(4)
N2_3 N 0.6663(2) 0.7053(3) 0.1153(5)
O1_3 O 0.6602(2) 0.5283(3) 0.1168(4)
O2_3 O 0.7394(2) 0.5641(3) 0.2007(5)
O6_2 O 0.4311(2) 0.3805(4) 0.0731(5)
O7_3 O 0.61178(18) 0.6144(3) 0.2741(3)
H1_3 H 0.6085 0.6555 0.2919
C1_3 C 0.7108(3) 0.5188(4) 0.1557(5)
C2_3 C 0.7342(3) 0.4483(4) 0.1495(5)
C3_3 C 0.7916(3) 0.4398(4) 0.1689(5)
H2_3 H 0.8138 0.4775 0.1902
C4_3 C 0.8165(3) 0.3782(4) 0.1577(6)
H3_3 H 0.8552 0.3749 0.1700
C5_3 C 0.7858(3) 0.3213(4) 0.1287(5)
C6_3 C 0.8118(3) 0.2526(4) 0.1154(6)
C7_3 C 0.7275(3) 0.3292(4) 0.1116(5)
H4_3 H 0.7054 0.2909 0.0928
C8_3 C 0.7020(3) 0.3913(4) 0.1214(5)
C9_3 C 0.6387(3) 0.3924(3) 0.0962(5)
C11_3 C 0.5253(3) 0.3874(4) 0.0467(5)
C12_2 C 0.4632(3) 0.3835(4) 0.0129(7)
C13_3 C 0.5473(3) 0.3948(5) 0.1408(6)
H6_3 H 0.5243 0.3980 0.1878
C14_3 C 0.6056(3) 0.3975(5) 0.1658(6)
H7_3 H 0.6215 0.4027 0.2298
C15_3 C 0.7195(3) 0.7172(4) 0.1458(6)
H8_3 H 0.7413 0.6817 0.1757
C16_3 C 0.7439(3) 0.7795(5) 0.1353(7)
H9_3 H 0.7817 0.7845 0.1587
C17_3 C 0.7159(3) 0.8345(4) 0.0926(5)
C18_3 C 0.6597(4) 0.8232(5) 0.0593(8)
H10_3 H 0.6373 0.8586 0.0303
C19_3 C 0.6376(4) 0.7585(5) 0.0698(8)
H11_3 H 0.6005 0.7511 0.0439
C20_3 C 0.7419(3) 0.9031(4) 0.0860(5)
C21_3 C 0.7987(3) 0.9108(4) 0.0897(5)
H12_3 H 0.8211 0.8719 0.0906
C22_3 C 0.8220(3) 0.9730(5) 0.0920(5)
H13_3 H 0.8604 0.9758 0.0939
C24_3 C 0.7105(3) 0.9645(4) 0.0828(6)
H15_3 H 0.6719 0.9628 0.0793
N4_3 N 0.6176(2) 0.6163(3) 0.5038(4)
O10_3 O 0.55116(19) 0.6171(3) 0.0763(4)
O5_3 O 0.44884(19) 0.3829(3) 0.9237(4)
C10_3 C 0.5615(3) 0.3816(4) 0.9811(5)
H5_3 H 0.5464 0.3758 0.9167
Zn3_3 Zn 0.37216(3) 0.38380(4) 0.85677(6)
Zn6_3 Zn 0.66341(3) 0.37700(4) 0.89282(6)
C23_4 C 0.2622(3) 0.0272(4) 0.4152(6)
H14_4 H 0.2833 0.0674 0.4190
Zn1_4 Zn 0.37216(3) 0.61620(4) 0.35677(6)
N1_4 N 0.3824(2) 0.3837(3) 0.4962(4)
N2_4 N 0.3337(2) 0.7053(3) 0.3847(5)
O1_4 O 0.3398(2) 0.5283(3) 0.3832(4)
O2_4 O 0.2606(2) 0.5641(3) 0.2993(5)
O5_4 O 0.55116(19) 0.3829(3) 0.5763(4)
O6_3 O 0.5689(2) 0.3805(4) 0.4269(5)
O7_4 O 0.38822(18) 0.6144(3) 0.2259(3)
H1_4 H 0.3915 0.6555 0.2081
C1_4 C 0.2892(3) 0.5188(4) 0.3443(5)
C2_4 C 0.2658(3) 0.4483(4) 0.3505(5)
C3_4 C 0.2084(3) 0.4398(4) 0.3311(5)
H2_4 H 0.1862 0.4775 0.3098
C4_4 C 0.1835(3) 0.3782(4) 0.3423(6)
H3_4 H 0.1448 0.3749 0.3300
C5_4 C 0.2142(3) 0.3213(4) 0.3713(5)
C6_4 C 0.1882(3) 0.2526(4) 0.3846(6)
C7_4 C 0.2725(3) 0.3292(4) 0.3884(5)
H4_4 H 0.2946 0.2909 0.4072
C8_4 C 0.2980(3) 0.3913(4) 0.3786(5)
C9_4 C 0.3613(3) 0.3924(3) 0.4038(5)
C10_4 C 0.4385(3) 0.3816(4) 0.5189(5)
H5_4 H 0.4536 0.3758 0.5833
C11_4 C 0.4747(3) 0.3874(4) 0.4533(5)
C12_3 C 0.5368(3) 0.3835(4) 0.4871(7)
C13_4 C 0.4527(3) 0.3948(5) 0.3592(6)
H6_4 H 0.4757 0.3980 0.3122
C14_4 C 0.3944(3) 0.3975(5) 0.3342(6)
H7_4 H 0.3785 0.4027 0.2702
C15_4 C 0.2805(3) 0.7172(4) 0.3542(6)
H8_4 H 0.2587 0.6817 0.3243
C16_4 C 0.2561(3) 0.7795(5) 0.3647(7)
H9_4 H 0.2183 0.7845 0.3413
C17_4 C 0.2841(3) 0.8345(4) 0.4074(5)
C18_4 C 0.3403(4) 0.8232(5) 0.4407(8)
H10_4 H 0.3627 0.8586 0.4697
C19_4 C 0.3624(4) 0.7585(5) 0.4302(8)
H11_4 H 0.3995 0.7511 0.4561
C20_4 C 0.2581(3) 0.9031(4) 0.4140(5)
C21_4 C 0.2013(3) 0.9108(4) 0.4103(5)
H12_4 H 0.1789 0.8719 0.4094
C22_4 C 0.1780(3) 0.9730(5) 0.4080(5)
H13_4 H 0.1396 0.9758 0.4061
C24_4 C 0.2895(3) 0.9645(4) 0.4172(6)
H15_4 H 0.3281 0.9628 0.4207
Zn3_4 Zn 0.62784(3) 0.38380(4) 0.64323(6)
Zn6_4 Zn 0.33659(3) 0.37700(4) 0.60718(6)
O10_4 O 0.44884(19) 0.6171(3) 0.4237(4)
N4_4 N 0.3824(2) 0.6163(3) 0.9962(4)
C10_5 C 0.9385(3) 0.1184(4) 0.0189(5)
H5_5 H 0.9536 0.1242 0.0833
O3_3 O 0.71694(19) 0.3009(3) 0.8852(4)
O4_3 O 0.6380(2) 0.2493(3) 0.8921(5)
C2_5 C 0.7658(3) 0.0517(4) 0.8505(5)
C3_5 C 0.7084(3) 0.0602(4) 0.8311(5)
H2_5 H 0.6862 0.0225 0.8098
C4_5 C 0.6835(3) 0.1218(4) 0.8423(6)
H3_5 H 0.6448 0.1251 0.8300
C5_5 C 0.7142(3) 0.1787(4) 0.8713(5)
C6_5 C 0.6882(3) 0.2474(4) 0.8846(6)
C7_5 C 0.7725(3) 0.1708(4) 0.8884(5)
H4_5 H 0.7946 0.2091 0.9072
C8_5 C 0.7980(3) 0.1087(4) 0.8786(5)
C9_5 C 0.8613(3) 0.1076(3) 0.9038(5)
C11_5 C 0.9747(3) 0.1126(4) 0.9533(5)
C13_5 C 0.9527(3) 0.1052(5) 0.8592(6)
H6_5 H 0.9757 0.1020 0.8122
C14_5 C 0.8944(3) 0.1025(5) 0.8342(6)
H7_5 H 0.8785 0.0973 0.7702
N2_5 N 0.8337(2) 0.7947(3) 0.8847(5)
N3_3 N 0.7074(2) 0.4676(3) 0.9083(4)
O1_5 O 0.8398(2) 0.9717(3) 0.8832(4)
O2_5 O 0.7606(2) 0.9359(3) 0.7993(5)
O7_5 O 0.88822(18) 0.8856(3) 0.7259(3)
H1_5 H 0.8915 0.8445 0.7081
C1_5 C 0.7892(3) 0.9812(4) 0.8443(5)
C15_5 C 0.7805(3) 0.7828(4) 0.8542(6)
H8_5 H 0.7587 0.8183 0.8243
C16_5 C 0.7561(3) 0.7205(5) 0.8647(7)
H9_5 H 0.7183 0.7155 0.8413
C17_5 C 0.7841(3) 0.6655(4) 0.9074(5)
C18_5 C 0.8403(4) 0.6768(5) 0.9407(8)
H10_5 H 0.8627 0.6414 0.9697
C19_5 C 0.8624(4) 0.7415(5) 0.9302(8)
H11_5 H 0.8995 0.7489 0.9561
C20_5 C 0.7581(3) 0.5969(4) 0.9140(5)
C21_5 C 0.7013(3) 0.5892(4) 0.9103(5)
H12_5 H 0.6789 0.6281 0.9094
C22_5 C 0.6780(3) 0.5270(5) 0.9080(5)
H13_5 H 0.6396 0.5242 0.9061
C23_5 C 0.7622(3) 0.4728(4) 0.9152(6)
H14_5 H 0.7833 0.4326 0.9190
C24_5 C 0.7895(3) 0.5355(4) 0.9172(6)
H15_5 H 0.8281 0.5372 0.9207
N5_3 N 0.7926(2) 0.9676(3) 0.5917(4)
O8_3 O 0.78306(19) 0.8009(3) 0.6148(4)
O9_3 O 0.8620(2) 0.7493(3) 0.6079(5)
O3_4 O 0.28306(19) 0.3009(3) 0.6148(4)
O4_4 O 0.3620(2) 0.2493(3) 0.6079(5)
C2_6 C 0.2342(3) 0.0517(4) 0.6495(5)
C3_6 C 0.2916(3) 0.0602(4) 0.6689(5)
H2_6 H 0.3138 0.0225 0.6902
C4_6 C 0.3165(3) 0.1218(4) 0.6577(6)
H3_6 H 0.3552 0.1251 0.6700
C5_6 C 0.2858(3) 0.1787(4) 0.6287(5)
C6_6 C 0.3118(3) 0.2474(4) 0.6154(6)
C7_6 C 0.2275(3) 0.1708(4) 0.6116(5)
H4_6 H 0.2054 0.2091 0.5928
C8_6 C 0.2020(3) 0.1087(4) 0.6214(5)
C9_6 C 0.1387(3) 0.1076(3) 0.5962(5)
C10_6 C 0.0615(3) 0.1184(4) 0.4811(5)
H5_6 H 0.0464 0.1242 0.4167
C11_6 C 0.0253(3) 0.1126(4) 0.5467(5)
C13_6 C 0.0473(3) 0.1052(5) 0.6408(6)
H6_6 H 0.0243 0.1020 0.6878
C14_6 C 0.1056(3) 0.1025(5) 0.6658(6)
H7_6 H 0.1215 0.0973 0.7298
N2_6 N 0.1663(2) 0.7947(3) 0.6153(5)
N3_4 N 0.2926(2) 0.4676(3) 0.5917(4)
O1_6 O 0.1602(2) 0.9717(3) 0.6168(4)
O2_6 O 0.2394(2) 0.9359(3) 0.7007(5)
O7_6 O 0.11178(18) 0.8856(3) 0.7741(3)
H1_6 H 0.1085 0.8445 0.7919
C1_6 C 0.2108(3) 0.9812(4) 0.6557(5)
C15_6 C 0.2195(3) 0.7828(4) 0.6458(6)
H8_6 H 0.2413 0.8183 0.6757
C16_6 C 0.2439(3) 0.7205(5) 0.6353(7)
H9_6 H 0.2817 0.7155 0.6587
C17_6 C 0.2159(3) 0.6655(4) 0.5926(5)
C18_6 C 0.1597(4) 0.6768(5) 0.5593(8)
H10_6 H 0.1373 0.6414 0.5303
C19_6 C 0.1376(4) 0.7415(5) 0.5698(8)
H11_6 H 0.1005 0.7489 0.5439
C20_6 C 0.2419(3) 0.5969(4) 0.5860(5)
C21_6 C 0.2987(3) 0.5892(4) 0.5897(5)
H12_6 H 0.3211 0.6281 0.5906
C22_6 C 0.3220(3) 0.5270(5) 0.5920(5)
H13_6 H 0.3604 0.5242 0.5939
C23_6 C 0.2378(3) 0.4728(4) 0.5848(6)
H14_6 H 0.2167 0.4326 0.5810
C24_6 C 0.2105(3) 0.5355(4) 0.5828(6)
H15_6 H 0.1719 0.5372 0.5793
N5_4 N 0.2074(2) 0.9676(3) 0.9083(4)
O8_4 O 0.21694(19) 0.8009(3) 0.8852(4)
O9_4 O 0.1380(2) 0.7493(3) 0.8921(5)
O6_4 O 0.9311(2) 0.1195(4) 0.5731(5)
C12_4 C 0.9632(3) 0.1165(4) 0.5129(7)
C10_7 C 0.4385(3) 0.6184(4) 0.0189(5)
H5_7 H 0.4536 0.6242 0.0833
N2_7 N 0.3337(2) 0.2947(3) 0.8847(5)
O1_7 O 0.3398(2) 0.4717(3) 0.8832(4)
O2_7 O 0.2606(2) 0.4359(3) 0.7993(5)
O6_5 O 0.5689(2) 0.6195(4) 0.9269(5)
O7_7 O 0.38822(18) 0.3856(3) 0.7259(3)
H1_7 H 0.3915 0.3445 0.7081
C1_7 C 0.2892(3) 0.4812(4) 0.8443(5)
C2_7 C 0.2658(3) 0.5517(4) 0.8505(5)
C3_7 C 0.2084(3) 0.5602(4) 0.8311(5)
H2_7 H 0.1862 0.5225 0.8098
C4_7 C 0.1835(3) 0.6218(4) 0.8423(6)
H3_7 H 0.1448 0.6251 0.8300
C5_7 C 0.2142(3) 0.6787(4) 0.8713(5)
C6_7 C 0.1882(3) 0.7474(4) 0.8846(6)
C7_7 C 0.2725(3) 0.6708(4) 0.8884(5)
H4_7 H 0.2946 0.7091 0.9072
C8_7 C 0.2980(3) 0.6087(4) 0.8786(5)
C9_7 C 0.3613(3) 0.6076(3) 0.9038(5)
C11_7 C 0.4747(3) 0.6126(4) 0.9533(5)
C12_5 C 0.5368(3) 0.6165(4) 0.9871(7)
C13_7 C 0.4527(3) 0.6052(5) 0.8592(6)
H6_7 H 0.4757 0.6020 0.8122
C14_7 C 0.3944(3) 0.6025(5) 0.8342(6)
H7_7 H 0.3785 0.5973 0.7702
C15_7 C 0.2805(3) 0.2828(4) 0.8542(6)
H8_7 H 0.2587 0.3183 0.8243
C16_7 C 0.2561(3) 0.2205(5) 0.8647(7)
H9_7 H 0.2183 0.2155 0.8413
C17_7 C 0.2841(3) 0.1655(4) 0.9074(5)
C18_7 C 0.3403(4) 0.1768(5) 0.9407(8)
H10_7 H 0.3627 0.1414 0.9697
C19_7 C 0.3624(4) 0.2415(5) 0.9302(8)
H11_7 H 0.3995 0.2489 0.9561
C20_7 C 0.2581(3) 0.0969(4) 0.9140(5)
C21_7 C 0.2013(3) 0.0892(4) 0.9103(5)
H12_7 H 0.1789 0.1281 0.9094
C22_7 C 0.1780(3) 0.0270(5) 0.9080(5)
H13_7 H 0.1396 0.0242 0.9061
C24_7 C 0.2895(3) 0.0355(4) 0.9172(6)
H15_7 H 0.3281 0.0372 0.9207
C23_7 C 0.2622(3) 0.9728(4) 0.9152(6)
H14_7 H 0.2833 0.9326 0.9190
N2_8 N 0.6663(2) 0.2947(3) 0.6153(5)
O1_8 O 0.6602(2) 0.4717(3) 0.6168(4)
O2_8 O 0.7394(2) 0.4359(3) 0.7007(5)
O6_6 O 0.4311(2) 0.6195(4) 0.5731(5)
O7_8 O 0.61178(18) 0.3856(3) 0.7741(3)
H1_8 H 0.6085 0.3445 0.7919
C1_8 C 0.7108(3) 0.4812(4) 0.6557(5)
C2_8 C 0.7342(3) 0.5517(4) 0.6495(5)
C3_8 C 0.7916(3) 0.5602(4) 0.6689(5)
H2_8 H 0.8138 0.5225 0.6902
C4_8 C 0.8165(3) 0.6218(4) 0.6577(6)
H3_8 H 0.8552 0.6251 0.6700
C5_8 C 0.7858(3) 0.6787(4) 0.6287(5)
C6_8 C 0.8118(3) 0.7474(4) 0.6154(6)
C7_8 C 0.7275(3) 0.6708(4) 0.6116(5)
H4_8 H 0.7054 0.7091 0.5928
C8_8 C 0.7020(3) 0.6087(4) 0.6214(5)
C9_8 C 0.6387(3) 0.6076(3) 0.5962(5)
C10_8 C 0.5615(3) 0.6184(4) 0.4811(5)
H5_8 H 0.5464 0.6242 0.4167
C11_8 C 0.5253(3) 0.6126(4) 0.5467(5)
C12_6 C 0.4632(3) 0.6165(4) 0.5129(7)
C13_8 C 0.5473(3) 0.6052(5) 0.6408(6)
H6_8 H 0.5243 0.6020 0.6878
C14_8 C 0.6056(3) 0.6025(5) 0.6658(6)
H7_8 H 0.6215 0.5973 0.7298
C15_8 C 0.7195(3) 0.2828(4) 0.6458(6)
H8_8 H 0.7413 0.3183 0.6757
C16_8 C 0.7439(3) 0.2205(5) 0.6353(7)
H9_8 H 0.7817 0.2155 0.6587
C17_8 C 0.7159(3) 0.1655(4) 0.5926(5)
C18_8 C 0.6597(4) 0.1768(5) 0.5593(8)
H10_8 H 0.6373 0.1414 0.5303
C19_8 C 0.6376(4) 0.2415(5) 0.5698(8)
H11_8 H 0.6005 0.2489 0.5439
C20_8 C 0.7419(3) 0.0969(4) 0.5860(5)
C21_8 C 0.7987(3) 0.0892(4) 0.5897(5)
H12_8 H 0.8211 0.1281 0.5906
C22_8 C 0.8220(3) 0.0270(5) 0.5920(5)
H13_8 H 0.8604 0.0242 0.5939
C24_8 C 0.7105(3) 0.0355(4) 0.5828(6)
H15_8 H 0.6719 0.0372 0.5793
C23_8 C 0.7378(3) 0.9728(4) 0.5848(6)
H14_8 H 0.7167 0.9326 0.5810
O6_7 O 0.9311(2) 0.8805(4) 0.0731(5)
C12_7 C 0.9632(3) 0.8835(4) 0.0129(7)
O6_8 O 0.0689(2) 0.1195(4) 0.9269(5)
C12_8 C 0.0368(3) 0.1165(4) 0.9871(7)
loop_
_geom_bond_atom_site_label_1
_geom_bond_atom_site_label_2
_geom_bond_site_symmetry_1
_geom_bond_site_symmetry_2
Zn1 N2 1_555 1_555
Zn2 O7 1_555 1_555
N2 C15 1_555 1_555
N3 C22 1_555 1_555
O1 Zn1 1_555 1_555
O2 C1 1_555 1_555
O7 Zn1 1_555 1_555
H1 O7 1_555 1_555
C1 O1 1_555 1_555
C15 H8 1_555 1_555
C16 C15 1_555 1_555
H9 C16 1_555 1_555
C17 C16 1_555 1_555
C18 C17 1_555 1_555
H10 C18 1_555 1_555
C19 N2 1_555 1_555
H11 C19 1_555 1_555
C20 C17 1_555 1_555
C21 C20 1_555 1_555
H12 C21 1_555 1_555
C22 C21 1_555 1_555
H13 C22 1_555 1_555
C23 N3 1_555 1_555
H14 C23 1_555 1_555
C24 C20 1_555 1_555
H15 C24 1_555 1_555
Zn5 N3 1_555 1_555
N4 Zn2 1_555 1_555
N5 Zn2 1_555 1_555
O8 Zn2 1_555 1_555
O9 Zn2 1_555 1_555
O10 Zn1 1_555 1_555
C18 C19 1_555 1_555
C23 C24 1_555 1_555
N1 C9 1_555 1_555
O3 C6 1_555 1_555
O4 C6 1_555 1_555
C3 C2 1_555 1_555
H2 C3 1_555 1_555
C4 C3 1_555 1_555
H3 C4 1_555 1_555
C5 C4 1_555 1_555
C6 C5 1_555 1_555
C7 C5 1_555 1_555
H4 C7 1_555 1_555
C8 C2 1_555 1_555
C9 C8 1_555 1_555
C13 C11 1_555 1_555
H6 C13 1_555 1_555
C14 C9 1_555 1_555
H7 C14 1_555 1_555
Zn5 O3 1_555 1_555
O4 Zn5 1_555 1_555
C7 C8 1_555 1_555
C13 C14 1_555 1_555
H5 C10 1_555 1_555
Zn3 O5 1_555 1_555
O5_2 C12 1_555 1_555
O6 C12 1_555 1_555
Zn3_2 O5_2 1_555 1_555
Zn1_2 N2_2 1_555 1_555
Zn2_2 O7_2 1_555 1_555
N2_2 C15_2 1_555 1_555
N3_2 C22_2 1_555 1_555
O1_2 Zn1_2 1_555 1_555
O2_2 C1_2 1_555 1_555
O7_2 Zn1_2 1_555 1_555
H1_2 O7_2 1_555 1_555
C1_2 O1_2 1_555 1_555
C15_2 H8_2 1_555 1_555
C16_2 C15_2 1_555 1_555
H9_2 C16_2 1_555 1_555
C17_2 C16_2 1_555 1_555
C18_2 C17_2 1_555 1_555
H10_2 C18_2 1_555 1_555
C19_2 N2_2 1_555 1_555
H11_2 C19_2 1_555 1_555
C20_2 C17_2 1_555 1_555
C21_2 C20_2 1_555 1_555
H12_2 C21_2 1_555 1_555
C22_2 C21_2 1_555 1_555
H13_2 C22_2 1_555 1_555
C23_2 N3_2 1_555 1_555
H14_2 C23_2 1_555 1_555
C24_2 C20_2 1_555 1_555
H15_2 C24_2 1_555 1_555
Zn5_2 N3_2 1_555 1_555
N5_2 Zn2_2 1_555 1_555
O8_2 Zn2_2 1_555 1_555
O9_2 Zn2_2 1_555 1_555
O10_2 Zn1_2 1_555 1_555
C18_2 C19_2 1_555 1_555
C23_2 C24_2 1_555 1_555
N1_2 C9_2 1_555 1_555
O3_2 C6_2 1_555 1_555
O4_2 C6_2 1_555 1_555
C3_2 C2_2 1_555 1_555
H2_2 C3_2 1_555 1_555
C4_2 C3_2 1_555 1_555
H3_2 C4_2 1_555 1_555
C5_2 C4_2 1_555 1_555
C6_2 C5_2 1_555 1_555
C7_2 C5_2 1_555 1_555
H4_2 C7_2 1_555 1_555
C8_2 C2_2 1_555 1_555
C9_2 C8_2 1_555 1_555
C10_2 N1_2 1_555 1_555
H5_2 C10_2 1_555 1_555
C11_2 C10_2 1_555 1_555
C13_2 C11_2 1_555 1_555
H6_2 C13_2 1_555 1_555
C14_2 C9_2 1_555 1_555
H7_2 C14_2 1_555 1_555
Zn5_2 O3_2 1_555 1_555
Zn6_2 N1_2 1_555 1_555
O4_2 Zn5_2 1_555 1_555
C7_2 C8_2 1_555 1_555
C13_2 C14_2 1_555 1_555
C23_3 N5_2 1_555 1_555
H14_3 C23_3 1_555 1_555
Zn1_3 N2_3 1_555 1_555
Zn5_2 O7_3 1_555 1_555
N1_3 C9_3 1_555 1_555
N2_3 C15_3 1_555 1_555
O1_3 Zn1_3 1_555 1_555
O2_3 C1_3 1_555 1_555
O8_2 C6_3 1_555 1_555
O9_2 C6_3 1_555 1_555
O6_2 C12_2 1_555 1_555
O7_3 Zn1_3 1_555 1_555
H1_3 O7_3 1_555 1_555
C1_3 O1_3 1_555 1_555
C2_3 C1_3 1_555 1_555
C3_3 C2_3 1_555 1_555
H2_3 C3_3 1_555 1_555
C4_3 C3_3 1_555 1_555
H3_3 C4_3 1_555 1_555
C5_3 C4_3 1_555 1_555
C6_3 C5_3 1_555 1_555
C7_3 C5_3 1_555 1_555
H4_3 C7_3 1_555 1_555
C8_3 C2_3 1_555 1_555
C9_3 C8_3 1_555 1_555
C12_2 C11_3 1_555 1_555
C13_3 C11_3 1_555 1_555
H6_3 C13_3 1_555 1_555
C14_3 C9_3 1_555 1_555
H7_3 C14_3 1_555 1_555
C15_3 H8_3 1_555 1_555
C16_3 C15_3 1_555 1_555
H9_3 C16_3 1_555 1_555
C17_3 C16_3 1_555 1_555
C18_3 C17_3 1_555 1_555
H10_3 C18_3 1_555 1_555
C19_3 N2_3 1_555 1_555
H11_3 C19_3 1_555 1_555
C20_3 C17_3 1_555 1_555
C21_3 C20_3 1_555 1_555
H12_3 C21_3 1_555 1_555
C22_3 C21_3 1_555 1_555
H13_3 C22_3 1_555 1_555
C24_3 C20_3 1_555 1_555
H15_3 C24_3 1_555 1_555
N4_3 Zn5_2 1_555 1_555
O10_3 Zn1_3 1_555 1_555
C7_3 C8_3 1_555 1_555
C13_3 C14_3 1_555 1_555
C18_3 C19_3 1_555 1_555
H5_3 C10_3 1_555 1_555
Zn3_3 O5_3 1_555 1_555
C23_4 N5 1_555 1_555
H14_4 C23_4 1_555 1_555
Zn1_4 N2_4 1_555 1_555
Zn5 O7_4 1_555 1_555
N1_4 C9_4 1_555 1_555
N2_4 C15_4 1_555 1_555
O1_4 Zn1_4 1_555 1_555
O2_4 C1_4 1_555 1_555
O8 C6_4 1_555 1_555
O9 C6_4 1_555 1_555
O5_4 C12_3 1_555 1_555
O6_3 C12_3 1_555 1_555
O7_4 Zn1_4 1_555 1_555
H1_4 O7_4 1_555 1_555
C1_4 O1_4 1_555 1_555
C2_4 C1_4 1_555 1_555
C3_4 C2_4 1_555 1_555
H2_4 C3_4 1_555 1_555
C4_4 C3_4 1_555 1_555
H3_4 C4_4 1_555 1_555
C5_4 C4_4 1_555 1_555
C6_4 C5_4 1_555 1_555
C7_4 C5_4 1_555 1_555
H4_4 C7_4 1_555 1_555
C8_4 C2_4 1_555 1_555
C9_4 C8_4 1_555 1_555
C10_4 N1_4 1_555 1_555
H5_4 C10_4 1_555 1_555
C11_4 C10_4 1_555 1_555
C12_3 C11_4 1_555 1_555
C13_4 C11_4 1_555 1_555
H6_4 C13_4 1_555 1_555
C14_4 C9_4 1_555 1_555
H7_4 C14_4 1_555 1_555
C15_4 H8_4 1_555 1_555
C16_4 C15_4 1_555 1_555
H9_4 C16_4 1_555 1_555
C17_4 C16_4 1_555 1_555
C18_4 C17_4 1_555 1_555
H10_4 C18_4 1_555 1_555
C19_4 N2_4 1_555 1_555
H11_4 C19_4 1_555 1_555
C20_4 C17_4 1_555 1_555
C21_4 C20_4 1_555 1_555
H12_4 C21_4 1_555 1_555
C22_4 C21_4 1_555 1_555
H13_4 C22_4 1_555 1_555
C24_4 C20_4 1_555 1_555
H15_4 C24_4 1_555 1_555
Zn3_4 O5_4 1_555 1_555
Zn6_4 N1_4 1_555 1_555
O10_4 Zn1_4 1_555 1_555
C7_4 C8_4 1_555 1_555
C13_4 C14_4 1_555 1_555
C18_4 C19_4 1_555 1_555
H5_5 C10_5 1_555 1_555
N4_2 C9_5 1_555 1_555
O3_3 C6_5 1_555 1_555
O4_3 C6_5 1_555 1_555
C3_5 C2_5 1_555 1_555
H2_5 C3_5 1_555 1_555
C4_5 C3_5 1_555 1_555
H3_5 C4_5 1_555 1_555
C5_5 C4_5 1_555 1_555
C6_5 C5_5 1_555 1_555
C7_5 C5_5 1_555 1_555
H4_5 C7_5 1_555 1_555
C8_5 C2_5 1_555 1_555
C9_5 C8_5 1_555 1_555
C13_5 C11_5 1_555 1_555
H6_5 C13_5 1_555 1_555
C14_5 C9_5 1_555 1_555
H7_5 C14_5 1_555 1_555
Zn6_3 O3_3 1_555 1_555
O4_3 Zn6_3 1_555 1_555
C7_5 C8_5 1_555 1_555
C13_5 C14_5 1_555 1_555
Zn3 N2_5 1_555 1_555
Zn6_2 O7_5 1_555 1_555
N2_5 C15_5 1_555 1_555
N3_3 C22_5 1_555 1_555
O1_5 Zn3 1_555 1_555
O2_5 C1_5 1_555 1_555
O7_5 Zn3 1_555 1_555
H1_5 O7_5 1_555 1_555
C1_5 O1_5 1_555 1_555
C15_5 H8_5 1_555 1_555
C16_5 C15_5 1_555 1_555
H9_5 C16_5 1_555 1_555
C17_5 C16_5 1_555 1_555
C18_5 C17_5 1_555 1_555
H10_5 C18_5 1_555 1_555
C19_5 N2_5 1_555 1_555
H11_5 C19_5 1_555 1_555
C20_5 C17_5 1_555 1_555
C21_5 C20_5 1_555 1_555
H12_5 C21_5 1_555 1_555
C22_5 C21_5 1_555 1_555
H13_5 C22_5 1_555 1_555
C23_5 N3_3 1_555 1_555
H14_5 C23_5 1_555 1_555
C24_5 C20_5 1_555 1_555
H15_5 C24_5 1_555 1_555
Zn6_3 N3_3 1_555 1_555
N5_3 Zn6_2 1_555 1_555
O8_3 Zn6_2 1_555 1_555
O9_3 Zn6_2 1_555 1_555
C18_5 C19_5 1_555 1_555
C23_5 C24_5 1_555 1_555
N4 C9_6 1_555 1_555
O3_4 C6_6 1_555 1_555
O4_4 C6_6 1_555 1_555
C3_6 C2_6 1_555 1_555
H2_6 C3_6 1_555 1_555
C4_6 C3_6 1_555 1_555
H3_6 C4_6 1_555 1_555
C5_6 C4_6 1_555 1_555
C6_6 C5_6 1_555 1_555
C7_6 C5_6 1_555 1_555
H4_6 C7_6 1_555 1_555
C8_6 C2_6 1_555 1_555
C9_6 C8_6 1_555 1_555
C10_6 N4 1_555 1_555
H5_6 C10_6 1_555 1_555
C11_6 C10_6 1_555 1_555
C13_6 C11_6 1_555 1_555
H6_6 C13_6 1_555 1_555
C14_6 C9_6 1_555 1_555
H7_6 C14_6 1_555 1_555
Zn6_4 O3_4 1_555 1_555
O4_4 Zn6_4 1_555 1_555
C7_6 C8_6 1_555 1_555
C13_6 C14_6 1_555 1_555
Zn3_2 N2_6 1_555 1_555
Zn6 O7_6 1_555 1_555
N2_6 C15_6 1_555 1_555
N3_4 C22_6 1_555 1_555
O1_6 Zn3_2 1_555 1_555
O2_6 C1_6 1_555 1_555
O7_6 Zn3_2 1_555 1_555
H1_6 O7_6 1_555 1_555
C1_6 O1_6 1_555 1_555
C15_6 H8_6 1_555 1_555
C16_6 C15_6 1_555 1_555
H9_6 C16_6 1_555 1_555
C17_6 C16_6 1_555 1_555
C18_6 C17_6 1_555 1_555
H10_6 C18_6 1_555 1_555
C19_6 N2_6 1_555 1_555
H11_6 C19_6 1_555 1_555
C20_6 C17_6 1_555 1_555
C21_6 C20_6 1_555 1_555
H12_6 C21_6 1_555 1_555
C22_6 C21_6 1_555 1_555
H13_6 C22_6 1_555 1_555
C23_6 N3_4 1_555 1_555
H14_6 C23_6 1_555 1_555
C24_6 C20_6 1_555 1_555
H15_6 C24_6 1_555 1_555
Zn6_4 N3_4 1_555 1_555
N5_4 Zn6 1_555 1_555
O8_4 Zn6 1_555 1_555
O9_4 Zn6 1_555 1_555
C18_6 C19_6 1_555 1_555
C23_6 C24_6 1_555 1_555
O10_2 C12_4 1_555 1_555
O6_4 C12_4 1_555 1_555
H5_7 C10_7 1_555 1_555
Zn3_3 N2_7 1_555 1_555
Zn6_4 O7_7 1_555 1_555
N4_4 C9_7 1_555 1_555
N2_7 C15_7 1_555 1_555
O1_7 Zn3_3 1_555 1_555
O2_7 C1_7 1_555 1_555
O8_4 C6_7 1_555 1_555
O9_4 C6_7 1_555 1_555
O6_5 C12_5 1_555 1_555
O7_7 Zn3_3 1_555 1_555
H1_7 O7_7 1_555 1_555
C1_7 O1_7 1_555 1_555
C2_7 C1_7 1_555 1_555
C3_7 C2_7 1_555 1_555
H2_7 C3_7 1_555 1_555
C4_7 C3_7 1_555 1_555
H3_7 C4_7 1_555 1_555
C5_7 C4_7 1_555 1_555
C6_7 C5_7 1_555 1_555
C7_7 C5_7 1_555 1_555
H4_7 C7_7 1_555 1_555
C8_7 C2_7 1_555 1_555
C9_7 C8_7 1_555 1_555
C12_5 C11_7 1_555 1_555
C13_7 C11_7 1_555 1_555
H6_7 C13_7 1_555 1_555
C14_7 C9_7 1_555 1_555
H7_7 C14_7 1_555 1_555
C15_7 H8_7 1_555 1_555
C16_7 C15_7 1_555 1_555
H9_7 C16_7 1_555 1_555
C17_7 C16_7 1_555 1_555
C18_7 C17_7 1_555 1_555
H10_7 C18_7 1_555 1_555
C19_7 N2_7 1_555 1_555
H11_7 C19_7 1_555 1_555
C20_7 C17_7 1_555 1_555
C21_7 C20_7 1_555 1_555
H12_7 C21_7 1_555 1_555
C22_7 C21_7 1_555 1_555
H13_7 C22_7 1_555 1_555
C24_7 C20_7 1_555 1_555
H15_7 C24_7 1_555 1_555
C7_7 C8_7 1_555 1_555
C13_7 C14_7 1_555 1_555
C18_7 C19_7 1_555 1_555
C23_7 N5_4 1_555 1_555
H14_7 C23_7 1_555 1_555
Zn3_4 N2_8 1_555 1_555
Zn6_3 O7_8 1_555 1_555
N4_3 C9_8 1_555 1_555
N2_8 C15_8 1_555 1_555
O1_8 Zn3_4 1_555 1_555
O2_8 C1_8 1_555 1_555
O8_3 C6_8 1_555 1_555
O9_3 C6_8 1_555 1_555
O10_4 C12_6 1_555 1_555
O6_6 C12_6 1_555 1_555
O7_8 Zn3_4 1_555 1_555
H1_8 O7_8 1_555 1_555
C1_8 O1_8 1_555 1_555
C2_8 C1_8 1_555 1_555
C3_8 C2_8 1_555 1_555
H2_8 C3_8 1_555 1_555
C4_8 C3_8 1_555 1_555
H3_8 C4_8 1_555 1_555
C5_8 C4_8 1_555 1_555
C6_8 C5_8 1_555 1_555
C7_8 C5_8 1_555 1_555
H4_8 C7_8 1_555 1_555
C8_8 C2_8 1_555 1_555
C9_8 C8_8 1_555 1_555
C10_8 N4_3 1_555 1_555
H5_8 C10_8 1_555 1_555
C11_8 C10_8 1_555 1_555
C12_6 C11_8 1_555 1_555
C13_8 C11_8 1_555 1_555
H6_8 C13_8 1_555 1_555
C14_8 C9_8 1_555 1_555
H7_8 C14_8 1_555 1_555
C15_8 H8_8 1_555 1_555
C16_8 C15_8 1_555 1_555
H9_8 C16_8 1_555 1_555
C17_8 C16_8 1_555 1_555
C18_8 C17_8 1_555 1_555
H10_8 C18_8 1_555 1_555
C19_8 N2_8 1_555 1_555
H11_8 C19_8 1_555 1_555
C20_8 C17_8 1_555 1_555
C21_8 C20_8 1_555 1_555
H12_8 C21_8 1_555 1_555
C22_8 C21_8 1_555 1_555
H13_8 C22_8 1_555 1_555
C24_8 C20_8 1_555 1_555
H15_8 C24_8 1_555 1_555
C7_8 C8_8 1_555 1_555
C13_8 C14_8 1_555 1_555
C18_8 C19_8 1_555 1_555
C23_8 N5_3 1_555 1_555
H14_8 C23_8 1_555 1_555
O6_7 C12_7 1_555 1_555
O6_8 C12_8 1_555 1_555

#END
