
###############################################################################
#
# This file contains modified crystal structure data generated from the
# MOF subset of the Cambridge Structural Database (CSD) v543 
# hosted by the Cambridge Crystallographic Data Centre (CCDC).
#
# This work is licensed under the Creative Commons
# Attribution-NonCommercial-ShareAlike 4.0 International License.
# To view a copy of this license, visit
# http://creativecommons.org/licenses/by-nc-sa/4.0/
# or send a letter to
# Creative Commons, PO Box 1866, Mountain View, CA 94042, USA.
#
# CIF created using the CSD Python API on 29 September 2022
# The structure has been converted into the P1 space group
# The structure has a 3D framework
# The original CSD entry EGAFOJ is in the triclinic crystal system
# The framework has been calculated to contain at least 10.0% void space
# The void calculation uses a probe of radius 1.32A, grid spacing 0.4
# H atom positions have been added when not included in the experimental data
# Generated hydrogen atom positions removed from atoms on special positions
#
###############################################################################

data_EGAFOJ
_chemical_formula_moiety         '(C18 H40 La2 O16 S6)n'
_symmetry_cell_setting           triclinic
_symmetry_space_group_name_H-M   'P 1'
_symmetry_Int_Tables_number      1
_space_group_name_Hall           'P 1'
loop_
_symmetry_equiv_pos_site_id
_symmetry_equiv_pos_as_xyz
1 x,y,z
_cell_length_a                   9.1258(3)
_cell_length_b                   11.1380(4)
_cell_length_c                   11.3262(4)
_cell_angle_alpha                77.317(3)
_cell_angle_beta                 68.681(4)
_cell_angle_gamma                79.250(3)
_cell_volume                     1039.05
loop_
_atom_site_label
_atom_site_type_symbol
_atom_site_fract_x
_atom_site_fract_y
_atom_site_fract_z
_atom_site_U_iso_or_equiv
_atom_site_thermal_displace_type
O1 O 0.0675(3) 0.5467(2) 0.3764(2) 0.0288 Uani
C2 C 0.2060(4) 0.6003(3) 0.1546(3) 0.0273 Uani
H3 H 0.2885 0.5334 0.1627 0.0330 Uiso
H4 H 0.2382 0.6755 0.1628 0.0330 Uiso
H5 H 0.4189 0.4070 0.0198 0.0410 Uiso
H7 H 0.1446 0.4138 0.0628 0.0400 Uiso
C7 C 0.0560(4) 0.5733(3) 0.2654(3) 0.0230 Uani
La4 La 0.234632(18) 0.519220(16) 0.518401(16) 0.0213 Uani
H29 H 0.0374186 0.27845 0.485486 . .
S1 S 0.19640(11) 0.61900(9) 0.99609(8) 0.0328 Uani
S2 S 0.41181(12) 0.23535(9) 0.93975(9) 0.0393 Uani
S3 S 0.34838(19) 0.05074(13) 0.37636(18) 0.0715 Uani
O2 O 0.4169(3) 0.4003(2) 0.3317(2) 0.0315 Uani
O4 O 0.2794(3) 0.6349(3) 0.6695(3) 0.0397 Uani
O5 O 0.2367(3) 0.2927(2) 0.4823(3) 0.0351 Uani
O6 O 0.0356(3) 0.7118(3) 0.5639(3) 0.0446 Uani
O7 O 0.6481(3) 0.3083(2) 0.6658(3) 0.0350 Uani
O8 O 0.4534(3) 0.3952(2) 0.5951(2) 0.0344 Uani
C1 C 0.4135(7) 0.0126(6) 0.5174(7) 0.0771 Uani
H1 H 0.3759 0.0811 0.5651 0.0930 Uiso
C3 C 0.3811(4) 0.3979(4) 0.9529(4) 0.0343 Uani
H6 H 0.4452 0.4427 0.8726 0.0410 Uiso
C4 C 0.2105(4) 0.4577(4) 0.9828(4) 0.0334 Uani
H8 H 0.1720 0.4520 0.9151 0.0400 Uiso
C5 C 0.3920(4) 0.2431(4) 0.7852(4) 0.0333 Uani
H9 H 0.4084 0.1596 0.7669 0.0400 Uiso
H10 H 0.2846 0.2775 0.7900 0.0400 Uiso
C6 C 0.4156(7) 0.1962(4) 0.3020(5) 0.0561 Uani
H11 H 0.5300 0.1857 0.2783 0.0670 Uiso
H12 H 0.3911 0.2209 0.2230 0.0670 Uiso
C8 C 0.3504(4) 0.3021(3) 0.3785(4) 0.0307 Uani
C9 C 0.5060(4) 0.3200(3) 0.6754(3) 0.0250 Uani
H14 H 0.6339 0.0597 0.4269 0.0930 Uiso
O12 O 0.0723(3) 0.4244(3) 0.7502(2) 0.0382 Uani
La7 La 0.765368(18) 0.480780(16) 0.481599(16) 0.0213 Uani
O22 O 0.3519(3) 0.6917(2) 0.3342(3) 0.0350 Uani
O24 O 0.5466(3) 0.6048(2) 0.4049(2) 0.0344 Uani
H2 H 0.3661 0.9403 0.5731 0.0930 Uiso
S4 S 0.65162(19) 0.94926(13) 0.62364(18) 0.0715 Uani
O9 O 0.5831(3) 0.5997(2) 0.6683(2) 0.0315 Uani
O10 O 0.7633(3) 0.7073(2) 0.5177(3) 0.0351 Uani
C10 C 0.5865(7) 0.9874(6) 0.4826(7) 0.0771 Uani
H13 H 0.6241 0.9189 0.4349 0.0930 Uiso
C11 C 0.5844(7) 0.8038(4) 0.6980(5) 0.0561 Uani
H15 H 0.4700 0.8143 0.7217 0.0670 Uiso
H16 H 0.6089 0.7791 0.7770 0.0670 Uiso
C12 C 0.6496(4) 0.6979(3) 0.6215(4) 0.0307 Uani
O3 O 0.9277(3) 0.5756(3) 0.2498(2) 0.0382 Uani
S5 S 0.80360(11) 0.38100(9) 0.00391(8) 0.0328 Uani
S6 S 0.58819(12) 0.76465(9) 0.06025(9) 0.0393 Uani
O13 O 0.7206(3) 0.3651(3) 0.3305(3) 0.0397 Uani
O14 O 0.9644(3) 0.2882(3) 0.4361(3) 0.0446 Uani
C14 C 0.6189(4) 0.6021(4) 0.0471(4) 0.0343 Uani
H20 H 0.5548 0.5573 0.1274 0.0410 Uiso
C15 C 0.7895(4) 0.5423(4) 0.0172(4) 0.0334 Uani
H22 H 0.8280 0.5480 0.0849 0.0400 Uiso
C16 C 0.6080(4) 0.7569(4) 0.2148(4) 0.0333 Uani
H23 H 0.5916 0.8404 0.2331 0.0400 Uiso
H24 H 0.7154 0.7225 0.2100 0.0400 Uiso
C18 C 0.4940(4) 0.6800(3) 0.3246(3) 0.0250 Uani
O18 O 0.9325(3) 0.4533(2) 0.6236(2) 0.0288 Uani
H30 H 0.906976 0.214022 0.462312 . .
C13 C 0.7940(4) 0.3997(3) 0.8454(3) 0.0273 Uani
H17 H 0.7115 0.4666 0.8373 0.0330 Uiso
H18 H 0.7618 0.3245 0.8372 0.0330 Uiso
H19 H 0.5811 0.5930 0.9802 0.0410 Uiso
H21 H 0.8554 0.5862 0.9372 0.0400 Uiso
C17 C 0.9440(4) 0.4267(3) 0.7346(3) 0.0230 Uani
H25 H 0.944464 0.70813 0.537184 . .
H26 H 0.997448 0.715188 0.657277 . .
H25_2 H 0.0555364 0.29187 0.462816 . .
H26_2 H 0.00255162 0.284812 0.342723 . .
H30_2 H 0.0930244 0.785978 0.537688 . .
H29_2 H 0.962581 0.72155 0.514514 . .
loop_
_atom_site_aniso_label
_atom_site_aniso_U_11
_atom_site_aniso_U_22
_atom_site_aniso_U_33
_atom_site_aniso_U_23
_atom_site_aniso_U_13
_atom_site_aniso_U_12
O1 0.0239 0.0458 0.0178 -0.0034 -0.0091 -0.0047
C2 0.0219 0.0389 0.0216 -0.0063 -0.0066 -0.0047
C7 0.0219 0.0265 0.0214 -0.0061 -0.0084 0.0004
La4 0.01629 0.03041 0.01831 -0.0075 -0.00712 0.00102
S1 0.0356 0.0405 0.0189 -0.0032 -0.0079 -0.0009
S2 0.0448 0.0387 0.0292 -0.0009 -0.0106 -0.0019
S3 0.0784 0.0455 0.1022 -0.0257 -0.0389 -0.002
O2 0.026 0.0373 0.0316 -0.0098 -0.0092 -0.0012
O4 0.0281 0.0561 0.0453 -0.0288 -0.018 0.0062
O5 0.027 0.0356 0.0414 -0.0096 -0.0096 -0.0004
O6 0.0331 0.0464 0.065 -0.0284 -0.0257 0.0113
O7 0.0231 0.0432 0.0371 0.0007 -0.0119 -0.005
O8 0.0297 0.0435 0.028 -0.0026 -0.0131 0.0032
C1 0.069 0.064 0.09 -0.008 -0.021 -0.005
C3 0.0292 0.046 0.0284 -0.0125 -0.0069 -0.0041
C4 0.0277 0.049 0.0273 -0.0116 -0.0095 -0.0072
C5 0.0298 0.0368 0.0343 -0.0055 -0.0105 -0.0073
C6 0.079 0.04 0.047 -0.02 -0.017 0.005
C8 0.0272 0.0349 0.0337 -0.0094 -0.018 0.0078
C9 0.0251 0.0276 0.0242 -0.0086 -0.0092 -0.0004
O12 0.0202 0.0719 0.0229 -0.0049 -0.0084 -0.0076
La7 0.01629 0.03041 0.01831 -0.0075 -0.00712 0.00102
O22 0.0231 0.0432 0.0371 0.0007 -0.0119 -0.005
O24 0.0297 0.0435 0.028 -0.0026 -0.0131 0.0032
S4 0.0784 0.0455 0.1022 -0.0257 -0.0389 -0.002
O9 0.026 0.0373 0.0316 -0.0098 -0.0092 -0.0012
O10 0.027 0.0356 0.0414 -0.0096 -0.0096 -0.0004
C10 0.069 0.064 0.09 -0.008 -0.021 -0.005
C11 0.079 0.04 0.047 -0.02 -0.017 0.005
C12 0.0272 0.0349 0.0337 -0.0094 -0.018 0.0078
O3 0.0202 0.0719 0.0229 -0.0049 -0.0084 -0.0076
S5 0.0356 0.0405 0.0189 -0.0032 -0.0079 -0.0009
S6 0.0448 0.0387 0.0292 -0.0009 -0.0106 -0.0019
O13 0.0281 0.0561 0.0453 -0.0288 -0.018 0.0062
O14 0.0331 0.0464 0.065 -0.0284 -0.0257 0.0113
C14 0.0292 0.046 0.0284 -0.0125 -0.0069 -0.0041
C15 0.0277 0.049 0.0273 -0.0116 -0.0095 -0.0072
C16 0.0298 0.0368 0.0343 -0.0055 -0.0105 -0.0073
C18 0.0251 0.0276 0.0242 -0.0086 -0.0092 -0.0004
O18 0.0239 0.0458 0.0178 -0.0034 -0.0091 -0.0047
C13 0.0219 0.0389 0.0216 -0.0063 -0.0066 -0.0047
C17 0.0219 0.0265 0.0214 -0.0061 -0.0084 0.0004
loop_
_geom_bond_atom_site_label_1
_geom_bond_atom_site_label_2
_geom_bond_site_symmetry_1
_geom_bond_site_symmetry_2
O1 C7 1_555 1_555
C2 H3 1_555 1_555
H4 C2 1_555 1_555
C7 C2 1_555 1_555
La4 O1 1_555 1_555
La4 O2 1_555 1_555
S2 C3 1_555 1_555
S3 C1 1_555 1_555
O2 C8 1_555 1_555
O4 La4 1_555 1_555
O5 La4 1_555 1_555
O6 La4 1_555 1_555
O7 C9 1_555 1_555
O8 La4 1_555 1_555
C1 H1 1_555 1_555
H6 C3 1_555 1_555
C4 S1 1_555 1_555
H8 C4 1_555 1_555
C5 S2 1_555 1_555
H9 C5 1_555 1_555
H10 C5 1_555 1_555
C6 S3 1_555 1_555
H11 C6 1_555 1_555
H12 C6 1_555 1_555
C8 O5 1_555 1_555
C9 O8 1_555 1_555
O12 La4 1_555 1_555
La7 O7 1_555 1_555
O22 La4 1_555 1_555
O24 La4 1_555 1_555
O8 La7 1_555 1_555
C3 C4 1_555 1_555
C5 C9 1_555 1_555
C6 C8 1_555 1_555
La7 O24 1_555 1_555
S4 C10 1_555 1_555
O9 C12 1_555 1_555
O10 C12 1_555 1_555
H13 C10 1_555 1_555
C11 S4 1_555 1_555
H15 C11 1_555 1_555
H16 C11 1_555 1_555
C12 C11 1_555 1_555
La7 O9 1_555 1_555
O10 La7 1_555 1_555
S6 C14 1_555 1_555
O13 La7 1_555 1_555
O14 La7 1_555 1_555
O22 C18 1_555 1_555
H20 C14 1_555 1_555
C15 S5 1_555 1_555
H22 C15 1_555 1_555
C16 S6 1_555 1_555
H23 C16 1_555 1_555
H24 C16 1_555 1_555
C18 O24 1_555 1_555
O18 La7 1_555 1_555
O3 La7 1_555 1_555
C14 C15 1_555 1_555
C16 C18 1_555 1_555
O14 H30 1_555 1_555
C13 H17 1_555 1_555
H18 C13 1_555 1_555
C17 O18 1_555 1_555
C13 C17 1_555 1_555
O6 H30_2 1_555 1_555

#END
