
###############################################################################
#
# This file contains modified crystal structure data generated from the
# MOF subset of the Cambridge Structural Database (CSD) v543 
# hosted by the Cambridge Crystallographic Data Centre (CCDC).
#
# This work is licensed under the Creative Commons
# Attribution-NonCommercial-ShareAlike 4.0 International License.
# To view a copy of this license, visit
# http://creativecommons.org/licenses/by-nc-sa/4.0/
# or send a letter to
# Creative Commons, PO Box 1866, Mountain View, CA 94042, USA.
#
# CIF created using the CSD Python API on 29 September 2022
# The structure has been converted into the P1 space group
# The structure has a 3D framework
# The original CSD entry EGAFUP is in the triclinic crystal system
# The framework has been calculated to contain at least 10.0% void space
# The void calculation uses a probe of radius 1.32A, grid spacing 0.4
# H atom positions have been added when not included in the experimental data
# Generated hydrogen atom positions removed from atoms on special positions
#
###############################################################################

data_EGAFUP
_chemical_formula_moiety         'C18 H40 Nd2 O16 S6'
_symmetry_cell_setting           triclinic
_symmetry_space_group_name_H-M   'P 1'
_symmetry_Int_Tables_number      1
_space_group_name_Hall           'P 1'
loop_
_symmetry_equiv_pos_site_id
_symmetry_equiv_pos_as_xyz
1 x,y,z
_cell_length_a                   9.1400(5)
_cell_length_b                   11.1538(3)
_cell_length_c                   11.2716(6)
_cell_angle_alpha                77.261(3)
_cell_angle_beta                 68.453(5)
_cell_angle_gamma                78.843(3)
_cell_volume                     1034.43
loop_
_atom_site_label
_atom_site_type_symbol
_atom_site_fract_x
_atom_site_fract_y
_atom_site_fract_z
_atom_site_U_iso_or_equiv
_atom_site_thermal_displace_type
O6 O 0.1443(3) 0.8170(3) 0.1578(3) 0.0344 Uani
C6 C 0.0009(4) 0.8230(3) 0.1718(4) 0.0254 Uani
S4 S 0.1514(2) 0.44608(13) 0.12460(19) 0.0692 Uani
O9 O 0.0851(3) 0.0964(2) 0.1655(3) 0.0312 Uani
O10 O 0.2665(3) 0.2042(2) 0.0155(3) 0.0345 Uani
C11 C 0.0834(7) 0.3008(4) 0.1972(5) 0.0549 Uani
H16 H 0.1055 0.2754 0.2776 0.0660 Uiso
C12 C 0.1512(5) 0.1946(4) 0.1195(4) 0.0300 Uani
H11 H 0.0308 0.6880 0.7807 0.0660 Uiso
C10 C 0.0873(7) 0.4864(6) 0.9821(7) 0.0741 Uani
H13 H 0.1245 0.4182 0.9336 0.0890 Uiso
H14 H 0.1354 0.5583 0.9266 0.0890 Uiso
Nd7 Nd 0.26937(2) 0.982090(18) 0.980649(19) 0.0232 Uani
Nd4 Nd 0.73063(2) 0.017910(18) 0.019351(19) 0.0232 Uani
S1 S 0.69499(13) 0.11981(10) 0.49523(10) 0.0336 Uani
O1 O 0.4287(3) 0.0720(3) 0.7528(3) 0.0378 Uani
O2 O 0.5361(4) 0.2073(3) 0.0631(3) 0.0438 Uani
C1 C 0.5575(4) 0.0729(3) 0.7665(4) 0.0239 Uani
O3 O 0.5703(3) 0.0464(3) 0.8781(2) 0.0298 Uani
O4 O 0.7803(3) 0.1323(3) 0.1640(3) 0.0392 Uani
C2 C 0.7062(4) 0.1012(4) 0.6534(4) 0.0271 Uani
H1 H 0.7902 0.0350 0.6604 0.0330 Uiso
H2 H 0.7371 0.1767 0.6615 0.0330 Uiso
S6 S 0.08355(14) 0.26390(10) 0.56258(11) 0.0397 Uani
O15 O 0.0584(4) 0.1040(3) 0.9060(3) 0.0394 Uani
C15 C 0.2886(5) 0.0412(4) 0.5184(4) 0.0334 Uani
H19 H 0.3539 0.0852 0.4378 0.0410 Uiso
H20 H 0.3271 0.0470 0.5862 0.0410 Uiso
C16 C 0.1172(5) 0.1015(4) 0.5494(4) 0.0326 Uani
H21 H 0.0792 0.0920 0.4825 0.0390 Uiso
H22 H 0.0537 0.0567 0.6303 0.0390 Uiso
C17 C 0.1056(5) 0.2578(4) 0.7166(4) 0.0341 Uani
H23 H 0.0840 0.3413 0.7359 0.0410 Uiso
H24 H 0.2149 0.2275 0.7093 0.0410 Uiso
O20 O 0.8557(3) 0.1830(3) 0.8422(3) 0.0344 Uani
O18 O 0.4297(3) 0.9536(3) 0.1219(2) 0.0298 Uani
H30 H 0.437815 0.726989 0.0141618 . .
S2 S 0.91645(14) 0.73610(10) 0.43742(11) 0.0397 Uani
O5 O 0.9416(4) 0.8960(3) 0.0940(3) 0.0394 Uani
C3 C 0.7114(5) 0.9588(4) 0.4816(4) 0.0334 Uani
H3 H 0.6461 0.9148 0.5622 0.0410 Uiso
H4 H 0.6729 0.9530 0.4138 0.0410 Uiso
C4 C 0.8828(5) 0.8985(4) 0.4506(4) 0.0326 Uani
H5 H 0.9208 0.9080 0.5175 0.0390 Uiso
H6 H 0.9463 0.9433 0.3697 0.0390 Uiso
C5 C 0.8944(5) 0.7422(4) 0.2834(4) 0.0341 Uani
H7 H 0.9160 0.6587 0.2641 0.0410 Uiso
H8 H 0.7851 0.7725 0.2907 0.0410 Uiso
C7 C 0.9127(7) 0.5136(6) 0.0179(7) 0.0741 Uani
H9 H 0.8755 0.5818 0.0664 0.0890 Uiso
H10 H 0.8646 0.4417 0.0734 0.0890 Uiso
H15 H 0.9692 0.3120 0.2193 0.0660 Uiso
S5 S 0.30501(13) 0.88019(10) 0.50477(10) 0.0336 Uani
O11 O 0.5713(3) 0.9280(3) 0.2472(3) 0.0378 Uani
O12 O 0.4639(4) 0.7927(3) 0.9369(3) 0.0438 Uani
C13 C 0.4425(4) 0.9271(3) 0.2335(4) 0.0239 Uani
O14 O 0.2197(3) 0.8677(3) 0.8360(3) 0.0392 Uani
C14 C 0.2938(4) 0.8988(4) 0.3466(4) 0.0271 Uani
H17 H 0.2098 0.9650 0.3396 0.0330 Uiso
H18 H 0.2629 0.8233 0.3385 0.0330 Uiso
S3 S 0.8486(2) 0.55392(13) 0.87540(19) 0.0692 Uani
O7 O 0.9149(3) 0.9036(2) 0.8345(3) 0.0312 Uani
O8 O 0.7335(3) 0.7958(2) 0.9845(3) 0.0345 Uani
C8 C 0.9166(7) 0.6992(4) 0.8028(5) 0.0549 Uani
H12 H 0.8945 0.7246 0.7224 0.0660 Uiso
C9 C 0.8488(5) 0.8054(4) 0.8805(4) 0.0300 Uani
C18 C 0.9991(4) 0.1770(3) 0.8282(4) 0.0254 Uani
H30_2 H 0.562185 0.273011 0.985838 . .
loop_
_atom_site_aniso_label
_atom_site_aniso_U_11
_atom_site_aniso_U_22
_atom_site_aniso_U_33
_atom_site_aniso_U_23
_atom_site_aniso_U_13
_atom_site_aniso_U_12
O6 0.0244 0.0435 0.034 -0.0043 -0.0092 -0.0048
C6 0.0265 0.0276 0.0239 -0.0129 -0.0092 0.0035
S4 0.078 0.0451 0.0963 -0.0243 -0.0387 -0.0019
O9 0.0252 0.0373 0.0307 -0.0082 -0.009 -0.001
O10 0.0267 0.0337 0.0397 -0.007 -0.0088 0.0002
C11 0.074 0.041 0.044 -0.019 -0.012 0.004
C12 0.027 0.035 0.032 -0.0105 -0.0178 0.0084
C10 0.067 0.065 0.083 -0.008 -0.023 -0.001
Nd7 0.01974 0.03175 0.01829 -0.008 -0.00732 0.00274
Nd4 0.01974 0.03175 0.01829 -0.008 -0.00732 0.00274
S1 0.0368 0.0411 0.0185 -0.0034 -0.0074 -0.0001
O1 0.0201 0.07 0.0233 -0.0078 -0.0068 -0.0066
O2 0.0309 0.0453 0.064 -0.0281 -0.0234 0.0118
C1 0.0229 0.0272 0.0207 -0.0069 -0.0066 0.0009
O3 0.0269 0.0438 0.0176 -0.0065 -0.0068 -0.0014
O4 0.0265 0.0548 0.0441 -0.029 -0.0146 0.0063
C2 0.024 0.036 0.0214 -0.0087 -0.0055 -0.0036
S6 0.0465 0.0379 0.0292 -0.0011 -0.0109 -0.0017
O15 0.0377 0.0466 0.0311 -0.0052 -0.0164 0.0095
C15 0.029 0.047 0.028 -0.0126 -0.0092 -0.0067
C16 0.029 0.044 0.027 -0.0118 -0.0077 -0.0061
C17 0.031 0.037 0.035 -0.0065 -0.0099 -0.0078
O20 0.0244 0.0435 0.034 -0.0043 -0.0092 -0.0048
O18 0.0269 0.0438 0.0176 -0.0065 -0.0068 -0.0014
S2 0.0465 0.0379 0.0292 -0.0011 -0.0109 -0.0017
O5 0.0377 0.0466 0.0311 -0.0052 -0.0164 0.0095
C3 0.029 0.047 0.028 -0.0126 -0.0092 -0.0067
C4 0.029 0.044 0.027 -0.0118 -0.0077 -0.0061
C5 0.031 0.037 0.035 -0.0065 -0.0099 -0.0078
C7 0.067 0.065 0.083 -0.008 -0.023 -0.001
S5 0.0368 0.0411 0.0185 -0.0034 -0.0074 -0.0001
O11 0.0201 0.07 0.0233 -0.0078 -0.0068 -0.0066
O12 0.0309 0.0453 0.064 -0.0281 -0.0234 0.0118
C13 0.0229 0.0272 0.0207 -0.0069 -0.0066 0.0009
O14 0.0265 0.0548 0.0441 -0.029 -0.0146 0.0063
C14 0.024 0.036 0.0214 -0.0087 -0.0055 -0.0036
S3 0.078 0.0451 0.0963 -0.0243 -0.0387 -0.0019
O7 0.0252 0.0373 0.0307 -0.0082 -0.009 -0.001
O8 0.0267 0.0337 0.0397 -0.007 -0.0088 0.0002
C8 0.074 0.041 0.044 -0.019 -0.012 0.004
C9 0.027 0.035 0.032 -0.0105 -0.0178 0.0084
C18 0.0265 0.0276 0.0239 -0.0129 -0.0092 0.0035
loop_
_geom_bond_atom_site_label_1
_geom_bond_atom_site_label_2
_geom_bond_site_symmetry_1
_geom_bond_site_symmetry_2
O6 C6 1_555 1_555
O9 C12 1_555 1_555
O10 C12 1_555 1_555
C11 S4 1_555 1_555
H16 C11 1_555 1_555
C12 C11 1_555 1_555
H13 C10 1_555 1_555
H14 C10 1_555 1_555
Nd4 O2 1_555 1_555
S1 C2 1_555 1_555
O1 C1 1_555 1_555
C1 O3 1_555 1_555
O4 Nd4 1_555 1_555
C2 C1 1_555 1_555
H1 C2 1_555 1_555
H2 C2 1_555 1_555
S6 C16 1_555 1_555
H19 C15 1_555 1_555
H20 C15 1_555 1_555
C16 C15 1_555 1_555
H21 C16 1_555 1_555
H22 C16 1_555 1_555
C17 S6 1_555 1_555
H23 C17 1_555 1_555
H24 C17 1_555 1_555
S2 C4 1_555 1_555
H3 C3 1_555 1_555
H4 C3 1_555 1_555
C4 C3 1_555 1_555
H5 C4 1_555 1_555
H6 C4 1_555 1_555
C5 S2 1_555 1_555
H7 C5 1_555 1_555
H8 C5 1_555 1_555
C7 H9 1_555 1_555
H10 C7 1_555 1_555
S5 C14 1_555 1_555
O12 Nd7 1_555 1_555
C13 O11 1_555 1_555
O14 Nd7 1_555 1_555
C14 C13 1_555 1_555
H17 C14 1_555 1_555
H18 C14 1_555 1_555
C13 O18 1_555 1_555
C8 S3 1_555 1_555
H12 C8 1_555 1_555
C9 O7 1_555 1_555
O8 C9 1_555 1_555
C8 C9 1_555 1_555
O20 C18 1_555 1_555

#END
