
###############################################################################
#
# This file contains modified crystal structure data generated from the
# MOF subset of the Cambridge Structural Database (CSD) v543 
# hosted by the Cambridge Crystallographic Data Centre (CCDC).
#
# This work is licensed under the Creative Commons
# Attribution-NonCommercial-ShareAlike 4.0 International License.
# To view a copy of this license, visit
# http://creativecommons.org/licenses/by-nc-sa/4.0/
# or send a letter to
# Creative Commons, PO Box 1866, Mountain View, CA 94042, USA.
#
# CIF created using the CSD Python API on 29 September 2022
# The structure has been converted into the P1 space group
# The structure has a 3D framework
# The original CSD entry EGAGEA is in the triclinic crystal system
# The framework has been calculated to contain at least 10.0% void space
# The void calculation uses a probe of radius 1.32A, grid spacing 0.4
#
###############################################################################

data_EGAGEA
_chemical_formula_moiety         '(C18 H32 Gd2 O16 S6)n'
_symmetry_cell_setting           triclinic
_symmetry_space_group_name_H-M   'P 1'
_symmetry_Int_Tables_number      1
_space_group_name_Hall           'P 1'
loop_
_symmetry_equiv_pos_site_id
_symmetry_equiv_pos_as_xyz
1 x,y,z
_cell_length_a                   9.1742(5)
_cell_length_b                   11.1153(5)
_cell_length_c                   11.1714(5)
_cell_angle_alpha                77.009(4)
_cell_angle_beta                 68.082(5)
_cell_angle_gamma                78.222(4)
_cell_volume                     1020.66
loop_
_atom_site_label
_atom_site_type_symbol
_atom_site_fract_x
_atom_site_fract_y
_atom_site_fract_z
_atom_site_U_iso_or_equiv
_atom_site_thermal_displace_type
H11 H 0.0293 0.1896 0.7812 0.0670 Uiso
H18 H 0.1366 0.0557 0.9242 0.0810 Uiso
O12 O 0.1365(3) 0.3275(3) 0.1484(3) 0.0343 Uani
Gd7 Gd 0.274599(19) 0.484020(15) 0.979721(16) 0.0239 Uani
S4 S 0.1522(2) 0.94430(13) 0.12389(19) 0.0671 Uani
O9 O 0.0877(3) 0.5949(2) 0.1623(3) 0.0308 Uani
O10 O 0.2706(3) 0.7015(3) 0.0158(3) 0.0346 Uani
C11 C 0.0849(8) 0.7987(4) 0.1969(6) 0.0552 Uani
H20 H 0.1060 0.7728 0.2784 0.0670 Uiso
C12 C 0.1542(5) 0.6926(4) 0.1181(4) 0.0296 Uani
C10 C 0.0872(7) 0.9847(6) 0.9818(7) 0.0675 Uani
H17 H 0.1227 0.9153 0.9339 0.0810 Uiso
Gd1 Gd 0.725401(19) 0.515980(15) 0.020279(16) 0.0239 Uani
C1 C 0.0060(4) 0.6728(3) 0.8333(4) 0.0259 Uani
C2 C 0.1035(5) 0.7575(4) 0.7188(4) 0.0343 Uani
H1 H 0.2146 0.7307 0.7076 0.0420 Uiso
H2 H 0.0775 0.8412 0.7395 0.0420 Uiso
C3 C 0.1144(5) 0.5995(4) 0.5532(4) 0.0330 Uani
H3 H 0.0527 0.5543 0.6356 0.0400 Uiso
H4 H 0.0767 0.5887 0.4865 0.0400 Uiso
S2 S 0.30642(13) 0.37908(10) 0.50674(10) 0.0355 Uani
S3 S 0.07667(14) 0.76291(10) 0.56563(11) 0.0397 Uani
C4 C 0.2867(5) 0.5413(4) 0.5206(4) 0.0355 Uani
H5 H 0.3251 0.5477 0.5886 0.0420 Uiso
H6 H 0.3506 0.5860 0.4387 0.0420 Uiso
O3 O 0.5677(3) 0.4319(3) 0.2445(3) 0.0382 Uani
C5 C 0.2932(5) 0.3974(4) 0.3474(4) 0.0285 Uani
H7 H 0.2654 0.3207 0.3393 0.0340 Uiso
H8 H 0.2068 0.4626 0.3418 0.0340 Uiso
C6 C 0.4389(4) 0.4283(3) 0.2327(4) 0.0238 Uani
C7 C 0.9128(7) 0.0153(6) 0.0182(7) 0.0675 Uani
H9 H 0.8773 0.0847 0.0661 0.0810 Uiso
O5 O 0.7800(4) 0.6273(3) 0.1588(3) 0.0399 Uani
O6 O 0.0751(4) 0.6052(3) 0.9074(3) 0.0427 Uani
O7 O 0.5394(4) 0.7014(3) 0.0615(4) 0.0436 Uani
O8 O 0.4250(3) 0.4532(3) 0.1214(3) 0.0314 Uani
H13 H 0.464(7) 0.712(5) 0.039(5) 0.0470 Uiso
H14 H 0.860(7) 0.620(5) 0.165(5) 0.0410 Uiso
H15 H 0.728(6) 0.683(5) 0.193(5) 0.0400 Uiso
H16 H 0.547(6) 0.748(5) 0.091(5) 0.0310 Uiso
O22 O 0.9249(4) 0.3948(3) 0.0926(3) 0.0427 Uani
S1 S 0.8478(2) 0.05570(13) 0.87611(19) 0.0671 Uani
O1 O 0.9123(3) 0.4051(2) 0.8377(3) 0.0308 Uani
O2 O 0.7294(3) 0.2985(3) 0.9842(3) 0.0346 Uani
C8 C 0.9151(8) 0.2013(4) 0.8031(6) 0.0552 Uani
H12 H 0.8940 0.2272 0.7216 0.0670 Uiso
C9 C 0.8458(5) 0.3074(4) 0.8819(4) 0.0296 Uani
C13 C 0.9940(4) 0.3272(3) 0.1667(4) 0.0259 Uani
C14 C 0.8965(5) 0.2425(4) 0.2812(4) 0.0343 Uani
H21 H 0.7854 0.2693 0.2924 0.0420 Uiso
H22 H 0.9225 0.1588 0.2605 0.0420 Uiso
C15 C 0.8856(5) 0.4005(4) 0.4468(4) 0.0330 Uani
H23 H 0.9473 0.4457 0.3644 0.0400 Uiso
H24 H 0.9233 0.4113 0.5135 0.0400 Uiso
S5 S 0.69358(13) 0.62092(10) 0.49326(10) 0.0355 Uani
S6 S 0.92333(14) 0.23709(10) 0.43437(11) 0.0397 Uani
C16 C 0.7133(5) 0.4587(4) 0.4794(4) 0.0355 Uani
H25 H 0.6749 0.4523 0.4114 0.0420 Uiso
H26 H 0.6494 0.4140 0.5613 0.0420 Uiso
O11 O 0.4323(3) 0.5681(3) 0.7555(3) 0.0382 Uani
C17 C 0.7068(5) 0.6026(4) 0.6526(4) 0.0285 Uani
H27 H 0.7346 0.6793 0.6607 0.0340 Uiso
H28 H 0.7932 0.5374 0.6582 0.0340 Uiso
C18 C 0.5611(4) 0.5717(3) 0.7673(4) 0.0238 Uani
O13 O 0.2200(4) 0.3727(3) 0.8412(3) 0.0399 Uani
O15 O 0.4606(4) 0.2986(3) 0.9385(4) 0.0436 Uani
O16 O 0.5750(3) 0.5468(3) 0.8786(3) 0.0314 Uani
H29 H 0.536(7) 0.288(5) 0.961(5) 0.0470 Uiso
H30 H 0.140(7) 0.380(5) 0.835(5) 0.0410 Uiso
H31 H 0.272(6) 0.317(5) 0.807(5) 0.0400 Uiso
H32 H 0.453(6) 0.252(5) 0.909(5) 0.0310 Uiso
O19 O 0.8635(3) 0.6725(3) 0.8516(3) 0.0343 Uani
H10 H 0.8634 0.9443 0.0758 0.0810 Uiso
H19 H 0.9707 0.8104 0.2188 0.0670 Uiso
loop_
_atom_site_aniso_label
_atom_site_aniso_U_11
_atom_site_aniso_U_22
_atom_site_aniso_U_33
_atom_site_aniso_U_23
_atom_site_aniso_U_13
_atom_site_aniso_U_12
O12 0.0276 0.0451 0.0323 -0.0032 -0.0124 -0.0086
Gd7 0.0221 0.0309 0.01973 -0.00657 -0.00913 0.00046
S4 0.0783 0.0437 0.094 -0.0236 -0.0414 -0.0033
O9 0.0281 0.0353 0.0282 -0.006 -0.0085 -0.0038
O10 0.0256 0.0348 0.0418 -0.0097 -0.0093 -0.001
C11 0.077 0.036 0.047 -0.016 -0.014 0.001
C12 0.027 0.033 0.031 -0.009 -0.0152 0.0052
C10 0.065 0.055 0.076 -0.009 -0.022 0
Gd1 0.0221 0.0309 0.01973 -0.00657 -0.00913 0.00046
C1 0.029 0.0246 0.027 -0.0083 -0.0128 0.0005
C2 0.036 0.036 0.034 -0.0044 -0.0114 -0.0142
C3 0.031 0.044 0.027 -0.0107 -0.0094 -0.0072
S2 0.0408 0.0407 0.0205 -0.0021 -0.009 -0.0015
S3 0.0482 0.0371 0.0312 -0.0015 -0.014 -0.0041
C4 0.03 0.049 0.032 -0.0137 -0.0104 -0.0076
O3 0.0244 0.066 0.0277 -0.0077 -0.0101 -0.0115
C5 0.0269 0.035 0.025 -0.0062 -0.008 -0.0072
C6 0.0232 0.0263 0.0226 -0.0056 -0.0098 0.0009
C7 0.065 0.055 0.076 -0.009 -0.022 0
O5 0.0271 0.055 0.048 -0.0284 -0.0178 0.0038
O6 0.0377 0.054 0.0345 -0.0039 -0.0196 0.0081
O7 0.0339 0.0429 0.068 -0.0285 -0.0286 0.0074
O8 0.0314 0.0426 0.0201 -0.0045 -0.0107 -0.002
O22 0.0377 0.054 0.0345 -0.0039 -0.0196 0.0081
S1 0.0783 0.0437 0.094 -0.0236 -0.0414 -0.0033
O1 0.0281 0.0353 0.0282 -0.006 -0.0085 -0.0038
O2 0.0256 0.0348 0.0418 -0.0097 -0.0093 -0.001
C8 0.077 0.036 0.047 -0.016 -0.014 0.001
C9 0.027 0.033 0.031 -0.009 -0.0152 0.0052
C13 0.029 0.0246 0.027 -0.0083 -0.0128 0.0005
C14 0.036 0.036 0.034 -0.0044 -0.0114 -0.0142
C15 0.031 0.044 0.027 -0.0107 -0.0094 -0.0072
S5 0.0408 0.0407 0.0205 -0.0021 -0.009 -0.0015
S6 0.0482 0.0371 0.0312 -0.0015 -0.014 -0.0041
C16 0.03 0.049 0.032 -0.0137 -0.0104 -0.0076
O11 0.0244 0.066 0.0277 -0.0077 -0.0101 -0.0115
C17 0.0269 0.035 0.025 -0.0062 -0.008 -0.0072
C18 0.0232 0.0263 0.0226 -0.0056 -0.0098 0.0009
O13 0.0271 0.055 0.048 -0.0284 -0.0178 0.0038
O15 0.0339 0.0429 0.068 -0.0285 -0.0286 0.0074
O16 0.0314 0.0426 0.0201 -0.0045 -0.0107 -0.002
O19 0.0276 0.0451 0.0323 -0.0032 -0.0124 -0.0086
loop_
_geom_bond_atom_site_label_1
_geom_bond_atom_site_label_2
_geom_bond_site_symmetry_1
_geom_bond_site_symmetry_2
O9 C12 1_555 1_555
O10 C12 1_555 1_555
C11 S4 1_555 1_555
H20 C11 1_555 1_555
C12 C11 1_555 1_555
H17 C10 1_555 1_555
C1 C2 1_555 1_555
C2 H1 1_555 1_555
H2 C2 1_555 1_555
C3 H3 1_555 1_555
H4 C3 1_555 1_555
S2 C4 1_555 1_555
S3 C2 1_555 1_555
C4 C3 1_555 1_555
H5 C4 1_555 1_555
H6 C4 1_555 1_555
O3 Gd1 1_555 1_555
C5 S2 1_555 1_555
H7 C5 1_555 1_555
H8 C5 1_555 1_555
C6 O3 1_555 1_555
C7 H9 1_555 1_555
O5 Gd1 1_555 1_555
O6 C1 1_555 1_555
O7 Gd1 1_555 1_555
O8 Gd1 1_555 1_555
H13 O7 1_555 1_555
H14 O5 1_555 1_555
H15 O5 1_555 1_555
H16 O7 1_555 1_555
Gd7 O6 1_555 1_555
O22 Gd1 1_555 1_555
C3 S3 1_555 1_555
C5 C6 1_555 1_555
C6 O8 1_555 1_555
O1 C9 1_555 1_555
C8 S1 1_555 1_555
H12 C8 1_555 1_555
C9 O2 1_555 1_555
C13 C14 1_555 1_555
C14 H21 1_555 1_555
H22 C14 1_555 1_555
C15 H23 1_555 1_555
H24 C15 1_555 1_555
S5 C16 1_555 1_555
S6 C14 1_555 1_555
C16 C15 1_555 1_555
H25 C16 1_555 1_555
H26 C16 1_555 1_555
O11 Gd7 1_555 1_555
C17 S5 1_555 1_555
H27 C17 1_555 1_555
H28 C17 1_555 1_555
C18 O11 1_555 1_555
O13 Gd7 1_555 1_555
O22 C13 1_555 1_555
O15 Gd7 1_555 1_555
H29 O15 1_555 1_555
H30 O13 1_555 1_555
H31 O13 1_555 1_555
H32 O15 1_555 1_555
C8 C9 1_555 1_555
Gd7 O16 1_555 1_555
C15 S6 1_555 1_555
C17 C18 1_555 1_555
C18 O16 1_555 1_555

#END
