
###############################################################################
#
# This file contains modified crystal structure data generated from the
# MOF subset of the Cambridge Structural Database (CSD) v543 
# hosted by the Cambridge Crystallographic Data Centre (CCDC).
#
# This work is licensed under the Creative Commons
# Attribution-NonCommercial-ShareAlike 4.0 International License.
# To view a copy of this license, visit
# http://creativecommons.org/licenses/by-nc-sa/4.0/
# or send a letter to
# Creative Commons, PO Box 1866, Mountain View, CA 94042, USA.
#
# CIF created using the CSD Python API on 29 September 2022
# The structure has been converted into the P1 space group
# The structure has a 3D framework
# The original CSD entry EGAGAW is in the triclinic crystal system
# The framework has been calculated to contain at least 10.0% void space
# The void calculation uses a probe of radius 1.32A, grid spacing 0.4
# H atom positions have been added when not included in the experimental data
# Generated hydrogen atom positions removed from atoms on special positions
#
###############################################################################

data_EGAGAW
_chemical_formula_moiety         '(C18 H40 Eu2 O14 S6)n'
_symmetry_cell_setting           triclinic
_symmetry_space_group_name_H-M   'P 1'
_symmetry_Int_Tables_number      1
_space_group_name_Hall           'P 1'
loop_
_symmetry_equiv_pos_site_id
_symmetry_equiv_pos_as_xyz
1 x,y,z
_cell_length_a                   9.1686(5)
_cell_length_b                   11.1145(7)
_cell_length_c                   11.1899(8)
_cell_angle_alpha                77.156(6)
_cell_angle_beta                 68.195(6)
_cell_angle_gamma                78.350(5)
_cell_volume                     1023.21
loop_
_atom_site_label
_atom_site_type_symbol
_atom_site_fract_x
_atom_site_fract_y
_atom_site_fract_z
_atom_site_U_iso_or_equiv
_atom_site_thermal_displace_type
H9 H 0.0300 0.1885 0.2813 0.0650 Uiso
H16 H 0.1350 0.0572 0.4258 0.0900 Uiso
O11 O 0.1381(5) 0.3256(4) 0.6511(4) 0.0354 Uani
Eu7 Eu 0.27359(4) 0.48365(3) 0.47988(3) 0.0247 Uani
S4 S 0.1515(3) 0.9445(2) 0.6246(3) 0.0720 Uani
O9 O 0.2708(5) 0.7014(4) 0.5148(4) 0.0337 Uani
O10 O 0.0869(5) 0.5945(4) 0.6633(4) 0.0318 Uani
C10 C 0.1545(7) 0.6924(6) 0.6180(6) 0.0310 Uani
C11 C 0.0841(10) 0.7999(6) 0.6973(8) 0.0538 Uani
H14 H 0.1049 0.7744 0.7788 0.0650 Uiso
C12 C 0.0865(9) 0.9856(9) 0.4823(9) 0.0754 Uani
H15 H 0.1232 0.9168 0.4335 0.0900 Uiso
S1 S 0.0778(2) 0.76299(16) 0.06503(17) 0.0409 Uani
C1 C 0.0055(7) 0.6736(5) 0.3319(6) 0.0266 Uani
S2 S 0.3059(2) 0.37920(15) 0.00618(16) 0.0362 Uani
O3 O 0.0721(5) 0.6050(4) 0.4057(5) 0.0429 Uani
C2 C 0.1034(7) 0.7583(6) 0.2172(6) 0.0351 Uani
H1 H 0.2144 0.7318 0.2065 0.0420 Uiso
H2 H 0.0772 0.8421 0.2376 0.0420 Uiso
C3 C 0.1148(7) 0.6006(6) 0.0514(6) 0.0326 Uani
H3 H 0.0520 0.5554 0.1330 0.0390 Uiso
C4 C 0.2861(7) 0.5404(6) 0.0198(7) 0.0361 Uani
H5 H 0.3243 0.5468 0.0879 0.0430 Uiso
Eu1 Eu 0.72641(4) 0.51635(3) 0.52012(3) 0.0247 Uani
O2 O 0.5379(5) 0.7043(4) 0.5619(5) 0.0398 Uani
O4 O 0.7818(5) 0.6299(4) 0.6593(4) 0.0367 Uani
S3 S 0.8485(3) 0.0555(2) 0.3754(3) 0.0720 Uani
O5 O 0.4259(5) 0.4532(4) 0.6215(4) 0.0315 Uani
H4 H 0.0774 0.5907 0.9841 0.0390 Uiso
O6 O 0.5679(5) 0.4315(4) 0.7449(4) 0.0393 Uani
H6 H 0.3508 0.5846 0.9383 0.0430 Uiso
O7 O 0.7292(5) 0.2986(4) 0.4852(4) 0.0337 Uani
C5 C 0.2939(7) 0.3980(6) 0.8471(6) 0.0309 Uani
H7 H 0.2649 0.3218 0.8389 0.0370 Uiso
H8 H 0.2081 0.4638 0.8414 0.0370 Uiso
O8 O 0.9131(5) 0.4055(4) 0.3367(4) 0.0318 Uani
C6 C 0.4389(7) 0.4279(5) 0.7327(6) 0.0247 Uani
C7 C 0.8455(7) 0.3076(6) 0.3820(6) 0.0310 Uani
C8 C 0.9159(10) 0.2001(6) 0.3027(8) 0.0538 Uani
H10 H 0.8951 0.2256 0.2212 0.0650 Uiso
C9 C 0.9135(9) 0.0144(9) 0.5177(9) 0.0754 Uani
H11 H 0.8768 0.0832 0.5665 0.0900 Uiso
O12 O 0.4621(5) 0.2957(4) 0.4381(5) 0.0398 Uani
O14 O 0.2182(5) 0.3701(4) 0.3407(4) 0.0367 Uani
O15 O 0.5741(5) 0.5468(4) 0.3785(4) 0.0315 Uani
H20 H 0.9226 0.4093 0.0159 0.0390 Uiso
O16 O 0.4321(5) 0.5685(4) 0.2551(4) 0.0393 Uani
H22 H 0.6492 0.4154 0.0617 0.0430 Uiso
C17 C 0.7061(7) 0.6020(6) 0.1529(6) 0.0309 Uani
H23 H 0.7351 0.6782 0.1611 0.0370 Uiso
H24 H 0.7919 0.5362 0.1586 0.0370 Uiso
C18 C 0.5611(7) 0.5721(5) 0.2673(6) 0.0247 Uani
O17 O 0.8619(5) 0.6744(4) 0.3489(4) 0.0354 Uani
O20 O 0.9279(5) 0.3950(4) 0.5943(5) 0.0429 Uani
S5 S 0.9222(2) 0.23701(16) 0.93497(17) 0.0409 Uani
C13 C 0.9945(7) 0.3264(5) 0.6681(6) 0.0266 Uani
S6 S 0.6941(2) 0.62080(15) 0.99382(16) 0.0362 Uani
C14 C 0.8966(7) 0.2417(6) 0.7828(6) 0.0351 Uani
H17 H 0.7856 0.2682 0.7935 0.0420 Uiso
H18 H 0.9228 0.1579 0.7624 0.0420 Uiso
C15 C 0.8852(7) 0.3994(6) 0.9486(6) 0.0326 Uani
H19 H 0.9480 0.4446 0.8670 0.0390 Uiso
C16 C 0.7139(7) 0.4596(6) 0.9802(7) 0.0361 Uani
H21 H 0.6757 0.4532 0.9121 0.0430 Uiso
H12 H 0.8650 0.9428 0.5742 0.0900 Uiso
H13 H 0.9700 0.8115 0.7187 0.0650 Uiso
loop_
_atom_site_aniso_label
_atom_site_aniso_U_11
_atom_site_aniso_U_22
_atom_site_aniso_U_33
_atom_site_aniso_U_23
_atom_site_aniso_U_13
_atom_site_aniso_U_12
O11 0.027 0.047 0.033 -0.006 -0.012 -0.004
Eu7 0.02057 0.03291 0.02016 -0.00746 -0.00813 0.00302
S4 0.082 0.0474 0.099 -0.0265 -0.0403 -0.0012
O9 0.022 0.035 0.04 -0.009 -0.007 0.0013
O10 0.026 0.035 0.033 -0.0059 -0.009 -0.0026
C10 0.032 0.034 0.032 -0.008 -0.022 0.009
C11 0.079 0.039 0.048 -0.021 -0.026 0.006
C12 0.065 0.07 0.084 -0.012 -0.022 0
S1 0.0489 0.0379 0.0312 -0.0017 -0.0126 -0.0019
C1 0.027 0.029 0.024 -0.015 -0.008 0.006
S2 0.0405 0.0399 0.0222 -0.0018 -0.0088 0.0005
O3 0.04 0.051 0.038 -0.007 -0.022 0.01
C2 0.03 0.032 0.044 -0.005 -0.012 -0.008
C3 0.027 0.042 0.029 -0.014 -0.006 -0.003
C4 0.027 0.048 0.036 -0.009 -0.012 -0.006
Eu1 0.02057 0.03291 0.02016 -0.00746 -0.00813 0.00302
O2 0.031 0.039 0.057 -0.022 -0.022 0.008
O4 0.024 0.055 0.037 -0.021 -0.012 0
S3 0.082 0.0474 0.099 -0.0265 -0.0403 -0.0012
O5 0.029 0.047 0.018 -0.0042 -0.0097 -0.002
O6 0.024 0.063 0.032 -0.006 -0.011 -0.007
O7 0.022 0.035 0.04 -0.009 -0.007 0.0013
C5 0.028 0.035 0.028 -0.009 -0.007 -0.001
O8 0.026 0.035 0.033 -0.0059 -0.009 -0.0026
C6 0.023 0.027 0.023 -0.011 -0.007 0.005
C7 0.032 0.034 0.032 -0.008 -0.022 0.009
C8 0.079 0.039 0.048 -0.021 -0.026 0.006
C9 0.065 0.07 0.084 -0.012 -0.022 0
O12 0.031 0.039 0.057 -0.022 -0.022 0.008
O14 0.024 0.055 0.037 -0.021 -0.012 0
O15 0.029 0.047 0.018 -0.0042 -0.0097 -0.002
O16 0.024 0.063 0.032 -0.006 -0.011 -0.007
C17 0.028 0.035 0.028 -0.009 -0.007 -0.001
C18 0.023 0.027 0.023 -0.011 -0.007 0.005
O17 0.027 0.047 0.033 -0.006 -0.012 -0.004
O20 0.04 0.051 0.038 -0.007 -0.022 0.01
S5 0.0489 0.0379 0.0312 -0.0017 -0.0126 -0.0019
C13 0.027 0.029 0.024 -0.015 -0.008 0.006
S6 0.0405 0.0399 0.0222 -0.0018 -0.0088 0.0005
C14 0.03 0.032 0.044 -0.005 -0.012 -0.008
C15 0.027 0.042 0.029 -0.014 -0.006 -0.003
C16 0.027 0.048 0.036 -0.009 -0.012 -0.006
loop_
_geom_bond_atom_site_label_1
_geom_bond_atom_site_label_2
_geom_bond_site_symmetry_1
_geom_bond_site_symmetry_2
Eu7 O11 1_555 1_555
S4 C11 1_555 1_555
O9 C10 1_555 1_555
O10 C10 1_555 1_555
C10 C11 1_555 1_555
H14 C11 1_555 1_555
H15 C12 1_555 1_555
Eu7 O9 1_555 1_555
S4 C12 1_555 1_555
O10 Eu7 1_555 1_555
S1 C2 1_555 1_555
C1 O3 1_555 1_555
S2 C4 1_555 1_555
O3 Eu7 1_555 1_555
C2 C1 1_555 1_555
H1 C2 1_555 1_555
H2 C2 1_555 1_555
C3 S1 1_555 1_555
H3 C3 1_555 1_555
C4 C3 1_555 1_555
H5 C4 1_555 1_555
Eu1 O2 1_555 1_555
O4 Eu1 1_555 1_555
S3 C8 1_555 1_555
O5 Eu1 1_555 1_555
O6 Eu1 1_555 1_555
O7 Eu1 1_555 1_555
H7 C5 1_555 1_555
H8 C5 1_555 1_555
O8 Eu1 1_555 1_555
C6 O5 1_555 1_555
C7 O7 1_555 1_555
C8 C7 1_555 1_555
H10 C8 1_555 1_555
C9 S3 1_555 1_555
H11 C9 1_555 1_555
Eu7 O5 1_555 1_555
O12 Eu7 1_555 1_555
O14 Eu7 1_555 1_555
O15 Eu1 1_555 1_555
O16 Eu7 1_555 1_555
H23 C17 1_555 1_555
H24 C17 1_555 1_555
C18 O15 1_555 1_555
O17 Eu1 1_555 1_555
O20 Eu1 1_555 1_555
O6 C6 1_555 1_555
C5 C6 1_555 1_555
O8 C7 1_555 1_555
Eu7 O15 1_555 1_555
O16 C18 1_555 1_555
C17 C18 1_555 1_555
S5 C14 1_555 1_555
C13 O20 1_555 1_555
S6 C16 1_555 1_555
C14 C13 1_555 1_555
H17 C14 1_555 1_555
H18 C14 1_555 1_555
C15 S5 1_555 1_555
H19 C15 1_555 1_555
C16 C15 1_555 1_555
H21 C16 1_555 1_555

#END
