
###############################################################################
#
# This file contains modified crystal structure data generated from the
# MOF subset of the Cambridge Structural Database (CSD) v543 
# hosted by the Cambridge Crystallographic Data Centre (CCDC).
#
# This work is licensed under the Creative Commons
# Attribution-NonCommercial-ShareAlike 4.0 International License.
# To view a copy of this license, visit
# http://creativecommons.org/licenses/by-nc-sa/4.0/
# or send a letter to
# Creative Commons, PO Box 1866, Mountain View, CA 94042, USA.
#
# CIF created using the CSD Python API on 29 September 2022
# The structure has been converted into the P1 space group
# The structure has a 3D framework
# The original CSD entry EGATIQ is in the orthorhombic crystal system
# The framework has been calculated to contain at least 10.0% void space
# The void calculation uses a probe of radius 1.32A, grid spacing 0.4
#
###############################################################################

data_EGATIQ
_chemical_formula_moiety         '(C236 H140 N4 Ni4 O52 Zn8)n'
_symmetry_cell_setting           triclinic
_symmetry_space_group_name_H-M   'P 1'
_symmetry_Int_Tables_number      1
_space_group_name_Hall           'P 1'
loop_
_symmetry_equiv_pos_site_id
_symmetry_equiv_pos_as_xyz
1 x,y,z
_cell_length_a                   17.0544(3)
_cell_length_b                   22.1816(4)
_cell_length_c                   24.8632(5)
_cell_angle_alpha                90
_cell_angle_beta                 90
_cell_angle_gamma                90
_cell_volume                     9405.6
loop_
_atom_site_label
_atom_site_type_symbol
_atom_site_fract_x
_atom_site_fract_y
_atom_site_fract_z
Zn5 Zn 0.51031(2) 0.66686(2) 0.113811(16)
O8 O 0.40765(14) 0.66753(13) 0.08037(11)
O11 O 0.44490(18) 0.57664(16) 0.05909(17)
C31 C 0.3952(2) 0.6167(2) 0.05960(16)
C32 C 0.31593(19) 0.60633(19) 0.03461(15)
C33 C 0.2973(2) 0.55310(19) 0.01010(18)
H19 H 0.3348 0.5228 0.0080
C36 C 0.1851(2) 0.64205(19) 0.01567(15)
H21 H 0.1476 0.6724 0.0178
C37 C 0.2589(2) 0.65137(19) 0.03720(16)
H22 H 0.2707 0.6880 0.0535
H25 H 0.0277 0.6228 0.0263
C15 C 0.0403(2) 0.0119(2) 0.81452(15)
C16 C 0.0313(2) 0.0509(2) 0.77205(16)
H9 H 0.0658 0.0489 0.7431
O9 O 0.09235(14) 0.33247(13) 0.58037(11)
O10 O 0.09235(14) 0.16753(13) 0.58037(11)
C34 C 0.2243(2) 0.54352(19) 0.98860(17)
H20 H 0.2131 0.5069 0.9721
C35 C 0.16649(19) 0.58803(17) 0.99106(14)
C38 C 0.08631(19) 0.57598(18) 0.96953(14)
C39 C 0.07578(19) 0.54101(18) 0.92408(14)
H23 H 0.1195 0.5269 0.9056
C40 C 0.00105(19) 0.52638(19) 0.90520(15)
C43 C 0.02089(19) 0.59849(18) 0.99616(15)
C45 C 0.0403(2) 0.4881(2) 0.81452(15)
H26 H 0.0808 0.5162 0.8138
C46 C 0.0313(2) 0.4491(2) 0.77205(16)
H27 H 0.0658 0.4511 0.7431
O2 O 0.40765(14) 0.83247(13) 0.08037(11)
O3 O 0.44490(18) 0.92336(16) 0.05909(17)
C1 C 0.3952(2) 0.8833(2) 0.05960(16)
C2 C 0.31593(19) 0.89367(19) 0.03461(15)
C3 C 0.2973(2) 0.94690(19) 0.01010(18)
H1 H 0.3348 0.9772 0.0080
C6 C 0.1851(2) 0.85795(19) 0.01567(15)
H3 H 0.1476 0.8276 0.0178
C7 C 0.2589(2) 0.84863(19) 0.03720(16)
H4 H 0.2707 0.8120 0.0535
H7 H 0.0277 0.8772 0.0263
Zn3 Zn 0.51031(2) 0.83314(2) 0.113811(16)
Ni3 Ni 0.62560(4) 0.7500 0.18680(2)
O14 O 0.60512(13) 0.65973(12) 0.07111(9)
O17 O 0.67996(14) 0.68468(13) 0.14092(9)
C51 C 0.87498(19) 0.60749(17) 0.00777(14)
C53 C 0.7392(2) 0.6372(2) 0.00882(14)
C54 C 0.74143(19) 0.64562(17) 0.06433(13)
C55 C 0.8114(2) 0.63463(18) 0.09101(14)
H32 H 0.8142 0.6405 0.1280
C56 C 0.87695(19) 0.61522(18) 0.06360(15)
H33 H 0.9229 0.6072 0.0824
C57 C 0.6708(2) 0.66514(16) 0.09406(13)
Zn1 Zn 0.98969(2) 0.33314(2) 0.613811(16)
Ni1 Ni 0.87440(4) 0.2500 0.68680(2)
O1 O 0.98111(16) 0.2500 0.64478(11)
O4 O 0.99305(15) 0.12119(13) 0.68133(10)
O5 O 0.92316(14) 0.18308(11) 0.73478(8)
N1 N 0.7776(2) 0.2500 0.73881(14)
C14 C 0.99028(18) 0.01342(18) 0.85829(14)
C17 C 0.9716(2) 0.09323(16) 0.77175(13)
C18 C 0.9217(2) 0.09562(18) 0.81560(13)
H10 H 0.8818 0.1242 0.8165
C19 C 0.9305(2) 0.05624(18) 0.85781(14)
H11 H 0.8958 0.0582 0.8866
C20 C 0.96165(19) 0.13626(16) 0.72555(13)
C28 C 0.7512(2) 0.3011(2) 0.75966(16)
H16 H 0.7670 0.3373 0.7441
C29 C 0.7015(2) 0.3033(2) 0.80317(18)
H17 H 0.6850 0.3401 0.8172
C30 C 0.6770(4) 0.2500 0.8252(3)
H18 H 0.6440 0.2500 0.8550
Zn2 Zn 0.98969(2) 0.16686(2) 0.613811(16)
O12 O 0.99305(15) 0.37881(13) 0.68133(10)
O13 O 0.92316(14) 0.31692(11) 0.73478(8)
O15 O 0.89488(13) 0.34027(12) 0.57111(9)
O16 O 0.89488(13) 0.15973(12) 0.57111(9)
O18 O 0.82004(14) 0.31532(13) 0.64092(9)
O19 O 0.82004(14) 0.18468(13) 0.64092(9)
C41 C 0.93599(19) 0.54918(18) 0.93291(14)
H24 H 0.8858 0.5401 0.9207
C42 C 0.94485(19) 0.58529(18) 0.97846(14)
C44 C 0.99028(18) 0.48658(18) 0.85829(14)
C47 C 0.9716(2) 0.40677(16) 0.77175(13)
C48 C 0.9217(2) 0.40438(18) 0.81560(13)
H28 H 0.8818 0.3758 0.8165
C49 C 0.9305(2) 0.44376(18) 0.85781(14)
H29 H 0.8958 0.4418 0.8866
C50 C 0.96165(19) 0.36374(16) 0.72555(13)
C52 C 0.8052(2) 0.6189(2) 0.98160(15)
H30 H 0.8028 0.6141 0.9445
H31 H 0.6929 0.6441 0.9901
C58 C 0.7512(2) 0.1989(2) 0.75966(16)
H34 H 0.7670 0.1627 0.7441
C59 C 0.7015(2) 0.1967(2) 0.80317(18)
H35 H 0.6850 0.1599 0.8172
O6 O 0.60512(13) 0.84027(12) 0.07111(9)
O7 O 0.67996(14) 0.81532(13) 0.14092(9)
C21 C 0.87498(19) 0.89251(17) 0.00777(14)
C23 C 0.7392(2) 0.8628(2) 0.00882(14)
C24 C 0.74143(19) 0.85438(17) 0.06433(13)
C25 C 0.8114(2) 0.86537(18) 0.09101(14)
H14 H 0.8142 0.8595 0.1280
C26 C 0.87695(19) 0.88478(18) 0.06360(15)
H15 H 0.9229 0.8928 0.0824
C27 C 0.6708(2) 0.83486(16) 0.09406(13)
O3_2 O 0.05510(18) 0.07664(16) 0.55909(17)
C1_2 C 0.1048(2) 0.1167(2) 0.55960(16)
C2_2 C 0.18407(19) 0.10633(19) 0.53461(15)
C3_2 C 0.2027(2) 0.05310(19) 0.51010(18)
H1_2 H 0.1652 0.0228 0.5080
C4 C 0.2757(2) 0.04352(19) 0.48860(17)
H2 H 0.2869 0.0069 0.4721
C5 C 0.33351(19) 0.08803(17) 0.49106(14)
C6_2 C 0.3149(2) 0.14205(19) 0.51567(15)
H3_2 H 0.3524 0.1724 0.5178
C7_2 C 0.2411(2) 0.15137(19) 0.53720(16)
H4_2 H 0.2293 0.1880 0.5535
C8 C 0.41369(19) 0.07598(18) 0.46953(14)
C9 C 0.42422(19) 0.04101(18) 0.42408(14)
H5 H 0.3805 0.0269 0.4056
C10 C 0.49895(19) 0.02638(19) 0.40520(15)
C11 C 0.56401(19) 0.04918(18) 0.43291(14)
H6 H 0.6142 0.0401 0.4207
C12 C 0.55515(19) 0.08529(18) 0.47846(14)
C13 C 0.47911(19) 0.09849(18) 0.49616(15)
H7_2 H 0.4723 0.1228 0.5263
H8 H 0.4192 0.0162 0.3138
C21_2 C 0.62502(19) 0.10749(17) 0.50777(14)
C22 C 0.6948(2) 0.1189(2) 0.48160(15)
H12 H 0.6972 0.1141 0.4445
C23_2 C 0.7608(2) 0.1372(2) 0.50882(14)
H13 H 0.8071 0.1441 0.4901
C24_2 C 0.75857(19) 0.14562(17) 0.56433(13)
C25_2 C 0.6886(2) 0.13463(18) 0.59101(14)
H14_2 H 0.6858 0.1405 0.6280
C26_2 C 0.62305(19) 0.11522(18) 0.56360(15)
H15_2 H 0.5771 0.1072 0.5824
C27_2 C 0.8292(2) 0.16514(16) 0.59406(13)
O1_2 O 0.51889(16) 0.7500 0.14478(11)
O4_2 O 0.50695(15) 0.87881(13) 0.18133(10)
O5_2 O 0.57684(14) 0.81692(11) 0.23478(8)
N1_2 N 0.7224(2) 0.7500 0.23881(14)
C14_2 C 0.50972(18) 0.98658(18) 0.35829(14)
C15_2 C 0.4597(2) 0.9881(2) 0.31452(15)
C16_2 C 0.4687(2) 0.9491(2) 0.27205(16)
H9_2 H 0.4342 0.9511 0.2431
C17_2 C 0.5284(2) 0.90677(16) 0.27175(13)
C18_2 C 0.5783(2) 0.90438(18) 0.31560(13)
H10_2 H 0.6182 0.8758 0.3165
C19_2 C 0.5695(2) 0.94376(18) 0.35781(14)
H11_2 H 0.6042 0.9418 0.3866
C20_2 C 0.53835(19) 0.86374(16) 0.22555(13)
C28_2 C 0.7488(2) 0.6989(2) 0.25966(16)
H16_2 H 0.7330 0.6627 0.2441
C29_2 C 0.7985(2) 0.6967(2) 0.30317(18)
H17_2 H 0.8150 0.6599 0.3172
C30_2 C 0.8230(4) 0.7500 0.3252(3)
H18_2 H 0.8560 0.7500 0.3550
O11_2 O 0.05510(18) 0.42336(16) 0.55909(17)
O12_2 O 0.50695(15) 0.62119(13) 0.18133(10)
O13_2 O 0.57684(14) 0.68308(11) 0.23478(8)
C31_2 C 0.1048(2) 0.3833(2) 0.55960(16)
C32_2 C 0.18407(19) 0.39367(19) 0.53461(15)
C33_2 C 0.2027(2) 0.44690(19) 0.51010(18)
H19_2 H 0.1652 0.4772 0.5080
C34_2 C 0.2757(2) 0.45648(19) 0.48860(17)
H20_2 H 0.2869 0.4931 0.4721
C35_2 C 0.33351(19) 0.41197(17) 0.49106(14)
C36_2 C 0.3149(2) 0.35795(19) 0.51567(15)
H21_2 H 0.3524 0.3276 0.5178
C37_2 C 0.2411(2) 0.34863(19) 0.53720(16)
H22_2 H 0.2293 0.3120 0.5535
C38_2 C 0.41369(19) 0.42402(18) 0.46953(14)
C39_2 C 0.42422(19) 0.45899(18) 0.42408(14)
H23_2 H 0.3805 0.4731 0.4056
C40_2 C 0.49895(19) 0.47362(19) 0.40520(15)
C41_2 C 0.56401(19) 0.45082(18) 0.43291(14)
H24_2 H 0.6142 0.4599 0.4207
C42_2 C 0.55515(19) 0.41471(18) 0.47846(14)
C43_2 C 0.47911(19) 0.40151(18) 0.49616(15)
H25_2 H 0.4723 0.3772 0.5263
C44_2 C 0.50972(18) 0.51342(18) 0.35829(14)
C45_2 C 0.4597(2) 0.5119(2) 0.31452(15)
H26_2 H 0.4192 0.4838 0.3138
C46_2 C 0.4687(2) 0.5509(2) 0.27205(16)
H27_2 H 0.4342 0.5489 0.2431
C47_2 C 0.5284(2) 0.59323(16) 0.27175(13)
C48_2 C 0.5783(2) 0.59562(18) 0.31560(13)
H28_2 H 0.6182 0.6242 0.3165
C49_2 C 0.5695(2) 0.55624(18) 0.35781(14)
H29_2 H 0.6042 0.5582 0.3866
C50_2 C 0.53835(19) 0.63626(16) 0.22555(13)
C51_2 C 0.62502(19) 0.39251(17) 0.50777(14)
C52_2 C 0.6948(2) 0.3811(2) 0.48160(15)
H30_2 H 0.6972 0.3859 0.4445
C53_2 C 0.7608(2) 0.3628(2) 0.50882(14)
H31_2 H 0.8071 0.3559 0.4901
C54_2 C 0.75857(19) 0.35438(17) 0.56433(13)
C55_2 C 0.6886(2) 0.36537(18) 0.59101(14)
H32_2 H 0.6858 0.3595 0.6280
C56_2 C 0.62305(19) 0.38478(18) 0.56360(15)
H33_2 H 0.5771 0.3928 0.5824
C57_2 C 0.8292(2) 0.33486(16) 0.59406(13)
C58_2 C 0.7488(2) 0.8011(2) 0.25966(16)
H34_2 H 0.7330 0.8373 0.2441
C59_2 C 0.7985(2) 0.8033(2) 0.30317(18)
H35_2 H 0.8150 0.8401 0.3172
C4_2 C 0.2243(2) 0.95648(19) 0.98860(17)
H2_2 H 0.2131 0.9931 0.9721
C5_2 C 0.16649(19) 0.91197(17) 0.99106(14)
C8_2 C 0.08631(19) 0.92402(18) 0.96953(14)
C9_2 C 0.07578(19) 0.95899(18) 0.92408(14)
H5_2 H 0.1195 0.9731 0.9056
C10_2 C 0.00105(19) 0.97362(19) 0.90520(15)
C13_2 C 0.02089(19) 0.90151(18) 0.99616(15)
H8_2 H 0.0808 0.9838 0.8138
C11_2 C 0.93599(19) 0.95082(18) 0.93291(14)
H6_2 H 0.8858 0.9599 0.9207
C12_2 C 0.94485(19) 0.91471(18) 0.97846(14)
C22_2 C 0.8052(2) 0.8811(2) 0.98160(15)
H12_2 H 0.8028 0.8859 0.9445
H13_2 H 0.6929 0.8559 0.9901
Zn3_2 Zn 0.01031(2) 0.66686(2) 0.386189(16)
Zn5_2 Zn 0.01031(2) 0.83314(2) 0.386189(16)
Zn1_2 Zn 0.48969(2) 0.16686(2) 0.886189(16)
Ni1_2 Ni 0.37440(4) 0.2500 0.81320(2)
O1_3 O 0.48111(16) 0.2500 0.85522(11)
O2_2 O 0.90765(14) 0.66753(13) 0.41963(11)
O3_3 O 0.94490(18) 0.57664(16) 0.44091(17)
O4_3 O 0.49305(15) 0.37881(13) 0.81867(10)
O5_3 O 0.42316(14) 0.31692(11) 0.76522(8)
O6_2 O 0.10512(13) 0.65973(12) 0.42889(9)
O7_2 O 0.17996(14) 0.68468(13) 0.35908(9)
N1_3 N 0.2776(2) 0.2500 0.76119(14)
C1_3 C 0.8952(2) 0.6167(2) 0.44040(16)
C2_3 C 0.81593(19) 0.60633(19) 0.46539(15)
C3_3 C 0.7973(2) 0.55310(19) 0.48990(18)
H1_3 H 0.8348 0.5228 0.4920
C4_3 C 0.7243(2) 0.54352(19) 0.51140(17)
H2_3 H 0.7131 0.5069 0.5279
C5_3 C 0.66649(19) 0.58803(17) 0.50894(14)
C6_3 C 0.6851(2) 0.64205(19) 0.48433(15)
H3_3 H 0.6476 0.6724 0.4822
C7_3 C 0.7589(2) 0.65137(19) 0.46280(16)
H4_3 H 0.7707 0.6880 0.4465
C8_3 C 0.58631(19) 0.57598(18) 0.53047(14)
C9_3 C 0.57578(19) 0.54101(18) 0.57592(14)
H5_3 H 0.6195 0.5269 0.5944
C10_3 C 0.50105(19) 0.52638(19) 0.59480(15)
C11_3 C 0.43599(19) 0.54918(18) 0.56709(14)
H6_3 H 0.3858 0.5401 0.5793
C12_3 C 0.44485(19) 0.58529(18) 0.52154(14)
C13_3 C 0.52089(19) 0.59849(18) 0.50384(15)
H7_3 H 0.5277 0.6228 0.4737
C14_3 C 0.49028(18) 0.48658(18) 0.64171(14)
C15_3 C 0.5403(2) 0.4881(2) 0.68548(15)
H8_3 H 0.5808 0.5162 0.6862
C16_3 C 0.5313(2) 0.4491(2) 0.72795(16)
H9_3 H 0.5658 0.4511 0.7569
C17_3 C 0.4716(2) 0.40677(16) 0.72825(13)
C18_3 C 0.4217(2) 0.40438(18) 0.68440(13)
H10_3 H 0.3818 0.3758 0.6835
C19_3 C 0.4305(2) 0.44376(18) 0.64219(14)
H11_3 H 0.3958 0.4418 0.6134
C20_3 C 0.46165(19) 0.36374(16) 0.77445(13)
C21_3 C 0.37498(19) 0.60749(17) 0.49223(14)
C22_3 C 0.3052(2) 0.6189(2) 0.51840(15)
H12_3 H 0.3028 0.6141 0.5555
C23_3 C 0.2392(2) 0.6372(2) 0.49118(14)
H13_3 H 0.1929 0.6441 0.5099
C24_3 C 0.24143(19) 0.64562(17) 0.43567(13)
C25_3 C 0.3114(2) 0.63463(18) 0.40899(14)
H14_3 H 0.3142 0.6405 0.3720
C26_3 C 0.37695(19) 0.61522(18) 0.43640(15)
H15_3 H 0.4229 0.6072 0.4176
C27_3 C 0.1708(2) 0.66514(16) 0.40594(13)
C28_3 C 0.2512(2) 0.1989(2) 0.74034(16)
H16_3 H 0.2670 0.1627 0.7559
C29_3 C 0.2015(2) 0.1967(2) 0.69683(18)
H17_3 H 0.1850 0.1599 0.6828
C30_3 C 0.1770(4) 0.2500 0.6748(3)
H18_3 H 0.1440 0.2500 0.6450
Zn2_2 Zn 0.48969(2) 0.33314(2) 0.886189(16)
Ni2 Ni 0.12560(4) 0.7500 0.31320(2)
O9_2 O 0.59235(14) 0.16753(13) 0.91963(11)
O10_2 O 0.59235(14) 0.33247(13) 0.91963(11)
O12_3 O 0.49305(15) 0.12119(13) 0.81867(10)
O13_3 O 0.42316(14) 0.18308(11) 0.76522(8)
O15_2 O 0.39488(13) 0.15973(12) 0.92889(9)
O16_2 O 0.39488(13) 0.34027(12) 0.92889(9)
O18_2 O 0.32004(14) 0.18468(13) 0.85908(9)
O19_2 O 0.32004(14) 0.31532(13) 0.85908(9)
C44_3 C 0.49028(18) 0.01342(18) 0.64171(14)
C45_3 C 0.5403(2) 0.0119(2) 0.68548(15)
C46_3 C 0.5313(2) 0.0509(2) 0.72795(16)
H27_3 H 0.5658 0.0489 0.7569
C47_3 C 0.4716(2) 0.09323(16) 0.72825(13)
C48_3 C 0.4217(2) 0.09562(18) 0.68440(13)
H28_3 H 0.3818 0.1242 0.6835
C49_3 C 0.4305(2) 0.05624(18) 0.64219(14)
H29_3 H 0.3958 0.0582 0.6134
C50_3 C 0.46165(19) 0.13626(16) 0.77445(13)
C58_3 C 0.2512(2) 0.3011(2) 0.74034(16)
H34_3 H 0.2670 0.3373 0.7559
C59_3 C 0.2015(2) 0.3033(2) 0.69683(18)
H35_3 H 0.1850 0.3401 0.6828
O8_2 O 0.90765(14) 0.83247(13) 0.41963(11)
O11_3 O 0.94490(18) 0.92336(16) 0.44091(17)
O14_2 O 0.10512(13) 0.84027(12) 0.42889(9)
O17_2 O 0.17996(14) 0.81532(13) 0.35908(9)
C31_3 C 0.8952(2) 0.8833(2) 0.44040(16)
C32_3 C 0.81593(19) 0.89367(19) 0.46539(15)
C33_3 C 0.7973(2) 0.94690(19) 0.48990(18)
H19_3 H 0.8348 0.9772 0.4920
C34_3 C 0.7243(2) 0.95648(19) 0.51140(17)
H20_3 H 0.7131 0.9931 0.5279
C35_3 C 0.66649(19) 0.91197(17) 0.50894(14)
C36_3 C 0.6851(2) 0.85795(19) 0.48433(15)
H21_3 H 0.6476 0.8276 0.4822
C37_3 C 0.7589(2) 0.84863(19) 0.46280(16)
H22_3 H 0.7707 0.8120 0.4465
C38_3 C 0.58631(19) 0.92402(18) 0.53047(14)
C39_3 C 0.57578(19) 0.95899(18) 0.57592(14)
H23_3 H 0.6195 0.9731 0.5944
C40_3 C 0.50105(19) 0.97362(19) 0.59480(15)
C41_3 C 0.43599(19) 0.95082(18) 0.56709(14)
H24_3 H 0.3858 0.9599 0.5793
C42_3 C 0.44485(19) 0.91471(18) 0.52154(14)
C43_3 C 0.52089(19) 0.90151(18) 0.50384(15)
H25_3 H 0.5277 0.8772 0.4737
H26_3 H 0.5808 0.9838 0.6862
C51_3 C 0.37498(19) 0.89251(17) 0.49223(14)
C52_3 C 0.3052(2) 0.8811(2) 0.51840(15)
H30_3 H 0.3028 0.8859 0.5555
C53_3 C 0.2392(2) 0.8628(2) 0.49118(14)
H31_3 H 0.1929 0.8559 0.5099
C54_3 C 0.24143(19) 0.85438(17) 0.43567(13)
C55_3 C 0.3114(2) 0.86537(18) 0.40899(14)
H32_3 H 0.3142 0.8595 0.3720
C56_3 C 0.37695(19) 0.88478(18) 0.43640(15)
H33_3 H 0.4229 0.8928 0.4176
C57_3 C 0.1708(2) 0.83486(16) 0.40594(13)
C51_4 C 0.12502(19) 0.10749(17) 0.99223(14)
C53_4 C 0.2608(2) 0.1372(2) 0.99118(14)
C54_4 C 0.25857(19) 0.14562(17) 0.93567(13)
C55_4 C 0.1886(2) 0.13463(18) 0.90899(14)
H32_4 H 0.1858 0.1405 0.8720
C56_4 C 0.12305(19) 0.11522(18) 0.93640(15)
H33_4 H 0.0771 0.1072 0.9176
C57_4 C 0.3292(2) 0.16514(16) 0.90594(13)
O1_4 O 0.01889(16) 0.7500 0.35522(11)
O4_4 O 0.00695(15) 0.62119(13) 0.31867(10)
O5_4 O 0.07684(14) 0.68308(11) 0.26522(8)
N1_4 N 0.2224(2) 0.7500 0.26119(14)
C11_4 C 0.06401(19) 0.45082(18) 0.06709(14)
H6_4 H 0.1142 0.4599 0.0793
C12_4 C 0.05515(19) 0.41471(18) 0.02154(14)
C14_4 C 0.00972(18) 0.51342(18) 0.14171(14)
C17_4 C 0.0284(2) 0.59323(16) 0.22825(13)
C18_4 C 0.0783(2) 0.59562(18) 0.18440(13)
H10_4 H 0.1182 0.6242 0.1835
C19_4 C 0.0695(2) 0.55624(18) 0.14219(14)
H11_4 H 0.1042 0.5582 0.1134
C20_4 C 0.03835(19) 0.63626(16) 0.27445(13)
C22_4 C 0.1948(2) 0.3811(2) 0.01840(15)
H12_4 H 0.1972 0.3859 0.0555
H13_4 H 0.3071 0.3559 0.0099
C28_4 C 0.2488(2) 0.8011(2) 0.24034(16)
H16_4 H 0.2330 0.8373 0.2559
C29_4 C 0.2985(2) 0.8033(2) 0.19683(18)
H17_4 H 0.3150 0.8401 0.1828
C30_4 C 0.3230(4) 0.7500 0.1748(3)
H18_4 H 0.3560 0.7500 0.1450
O12_4 O 0.00695(15) 0.87881(13) 0.31867(10)
O13_4 O 0.07684(14) 0.81692(11) 0.26522(8)
C44_4 C 0.00972(18) 0.98658(18) 0.14171(14)
C47_4 C 0.0284(2) 0.90677(16) 0.22825(13)
C48_4 C 0.0783(2) 0.90438(18) 0.18440(13)
H28_4 H 0.1182 0.8758 0.1835
C49_4 C 0.0695(2) 0.94376(18) 0.14219(14)
H29_4 H 0.1042 0.9418 0.1134
C50_4 C 0.03835(19) 0.86374(16) 0.27445(13)
C58_4 C 0.2488(2) 0.6989(2) 0.24034(16)
H34_4 H 0.2330 0.6627 0.2559
C59_4 C 0.2985(2) 0.6967(2) 0.19683(18)
H35_4 H 0.3150 0.6599 0.1828
C21_4 C 0.12502(19) 0.39251(17) 0.99223(14)
C23_4 C 0.2608(2) 0.3628(2) 0.99118(14)
C24_4 C 0.25857(19) 0.35438(17) 0.93567(13)
C25_4 C 0.1886(2) 0.36537(18) 0.90899(14)
H14_4 H 0.1858 0.3595 0.8720
C26_4 C 0.12305(19) 0.38478(18) 0.93640(15)
H15_4 H 0.0771 0.3928 0.9176
C27_4 C 0.3292(2) 0.33486(16) 0.90594(13)
O11_4 O 0.55510(18) 0.07664(16) 0.94091(17)
C31_4 C 0.6048(2) 0.1167(2) 0.94040(16)
C32_4 C 0.68407(19) 0.10633(19) 0.96539(15)
C33_4 C 0.7027(2) 0.05310(19) 0.98990(18)
H19_4 H 0.6652 0.0228 0.9920
C36_4 C 0.8149(2) 0.14205(19) 0.98433(15)
H21_4 H 0.8524 0.1724 0.9822
C37_4 C 0.7411(2) 0.15137(19) 0.96280(16)
H22_4 H 0.7293 0.1880 0.9465
H25_4 H 0.9723 0.1228 0.9737
C4_4 C 0.7757(2) 0.45648(19) 0.01140(17)
H2_4 H 0.7869 0.4931 0.0279
C5_4 C 0.83351(19) 0.41197(17) 0.00894(14)
C8_4 C 0.91369(19) 0.42402(18) 0.03047(14)
C9_4 C 0.92422(19) 0.45899(18) 0.07592(14)
H5_4 H 0.8805 0.4731 0.0944
C10_4 C 0.99895(19) 0.47362(19) 0.09480(15)
C13_4 C 0.97911(19) 0.40151(18) 0.00384(15)
C15_4 C 0.9597(2) 0.5119(2) 0.18548(15)
H8_4 H 0.9192 0.4838 0.1862
C16_4 C 0.9687(2) 0.5509(2) 0.22795(16)
H9_4 H 0.9342 0.5489 0.2569
C45_4 C 0.9597(2) 0.9881(2) 0.18548(15)
C46_4 C 0.9687(2) 0.9491(2) 0.22795(16)
H27_4 H 0.9342 0.9511 0.2569
O3_4 O 0.55510(18) 0.42336(16) 0.94091(17)
C1_4 C 0.6048(2) 0.3833(2) 0.94040(16)
C2_4 C 0.68407(19) 0.39367(19) 0.96539(15)
C3_4 C 0.7027(2) 0.44690(19) 0.98990(18)
H1_4 H 0.6652 0.4772 0.9920
C6_4 C 0.8149(2) 0.35795(19) 0.98433(15)
H3_4 H 0.8524 0.3276 0.9822
C7_4 C 0.7411(2) 0.34863(19) 0.96280(16)
H4_4 H 0.7293 0.3120 0.9465
H7_4 H 0.9723 0.3772 0.9737
C41_4 C 0.06401(19) 0.04918(18) 0.06709(14)
H24_4 H 0.1142 0.0401 0.0793
C42_4 C 0.05515(19) 0.08529(18) 0.02154(14)
C52_4 C 0.1948(2) 0.1189(2) 0.01840(15)
H30_4 H 0.1972 0.1141 0.0555
H31_4 H 0.3071 0.1441 0.0099
C34_4 C 0.7757(2) 0.04352(19) 0.01140(17)
H20_4 H 0.7869 0.0069 0.0279
C35_4 C 0.83351(19) 0.08803(17) 0.00894(14)
C38_4 C 0.91369(19) 0.07598(18) 0.03047(14)
C39_4 C 0.92422(19) 0.04101(18) 0.07592(14)
H23_4 H 0.8805 0.0269 0.0944
C40_4 C 0.99895(19) 0.02638(19) 0.09480(15)
C43_4 C 0.97911(19) 0.09849(18) 0.00384(15)
H26_4 H 0.9192 0.0162 0.1862
loop_
_geom_bond_atom_site_label_1
_geom_bond_atom_site_label_2
_geom_bond_site_symmetry_1
_geom_bond_site_symmetry_2
Zn5 O8 1_555 1_555
O8 C31 1_555 1_555
O11 C31 1_555 1_555
C31 C32 1_555 1_555
C32 C33 1_555 1_555
C33 H19 1_555 1_555
H21 C36 1_555 1_555
C37 C32 1_555 1_555
H22 C37 1_555 1_555
C36 C37 1_555 1_555
C16 C15 1_555 1_555
H9 C16 1_555 1_555
H20 C34 1_555 1_555
C35 C34 1_555 1_555
C38 C35 1_555 1_555
C39 C38 1_555 1_555
H23 C39 1_555 1_555
C40 C39 1_555 1_555
C43 C38 1_555 1_555
H26 C45 1_555 1_555
C46 C45 1_555 1_555
H27 C46 1_555 1_555
O2 C1 1_555 1_555
O3 C1 1_555 1_555
C1 C2 1_555 1_555
C2 C3 1_555 1_555
C3 H1 1_555 1_555
H3 C6 1_555 1_555
C7 C2 1_555 1_555
H4 C7 1_555 1_555
Zn3 O2 1_555 1_555
C6 C7 1_555 1_555
Zn5 O14 1_555 1_555
Ni3 O17 1_555 1_555
O14 C57 1_555 1_555
O17 C57 1_555 1_555
C54 C53 1_555 1_555
C55 C54 1_555 1_555
H32 C55 1_555 1_555
C56 C51 1_555 1_555
H33 C56 1_555 1_555
C57 C54 1_555 1_555
C55 C56 1_555 1_555
Zn1 O1 1_555 1_555
Ni1 O1 1_555 1_555
O1 Zn2 1_555 1_555
O4 C20 1_555 1_555
O5 Ni1 1_555 1_555
N1 Ni1 1_555 1_555
C18 C17 1_555 1_555
H10 C18 1_555 1_555
C19 C14 1_555 1_555
H11 C19 1_555 1_555
C20 O5 1_555 1_555
C28 N1 1_555 1_555
H16 C28 1_555 1_555
C29 C28 1_555 1_555
H17 C29 1_555 1_555
C30 C29 1_555 1_555
H18 C30 1_555 1_555
Zn2 O4 1_555 1_555
O12 Zn1 1_555 1_555
O13 Ni1 1_555 1_555
O15 Zn1 1_555 1_555
O16 Zn2 1_555 1_555
O18 Ni1 1_555 1_555
O19 Ni1 1_555 1_555
H24 C41 1_555 1_555
C42 C41 1_555 1_555
C48 C47 1_555 1_555
H28 C48 1_555 1_555
C49 C44 1_555 1_555
H29 C49 1_555 1_555
C50 O12 1_555 1_555
H30 C52 1_555 1_555
C58 N1 1_555 1_555
H34 C58 1_555 1_555
C59 C30 1_555 1_555
H35 C59 1_555 1_555
C17 C20 1_555 1_555
C18 C19 1_555 1_555
O13 C50 1_555 1_555
C47 C50 1_555 1_555
C48 C49 1_555 1_555
C58 C59 1_555 1_555
O6 C27 1_555 1_555
O7 C27 1_555 1_555
C24 C23 1_555 1_555
C25 C24 1_555 1_555
H14 C25 1_555 1_555
C26 C21 1_555 1_555
H15 C26 1_555 1_555
C27 C24 1_555 1_555
Zn3 O6 1_555 1_555
Ni3 O7 1_555 1_555
C25 C26 1_555 1_555
O10 C1_2 1_555 1_555
O3_2 C1_2 1_555 1_555
O16 C27_2 1_555 1_555
O19 C27_2 1_555 1_555
C1_2 C2_2 1_555 1_555
C2_2 C3_2 1_555 1_555
C3_2 H1_2 1_555 1_555
C4 C3_2 1_555 1_555
H2 C4 1_555 1_555
C5 C4 1_555 1_555
C6_2 C5 1_555 1_555
H3_2 C6_2 1_555 1_555
C7_2 C2_2 1_555 1_555
H4_2 C7_2 1_555 1_555
C8 C5 1_555 1_555
C9 C8 1_555 1_555
H5 C9 1_555 1_555
C10 C9 1_555 1_555
C11 C10 1_555 1_555
H6 C11 1_555 1_555
C12 C11 1_555 1_555
C13 C8 1_555 1_555
H7_2 C13 1_555 1_555
C21_2 C12 1_555 1_555
C22 C21_2 1_555 1_555
H12 C22 1_555 1_555
C23_2 C22 1_555 1_555
H13 C23_2 1_555 1_555
C24_2 C23_2 1_555 1_555
C25_2 C24_2 1_555 1_555
H14_2 C25_2 1_555 1_555
C26_2 C21_2 1_555 1_555
H15_2 C26_2 1_555 1_555
C27_2 C24_2 1_555 1_555
C6_2 C7_2 1_555 1_555
C12 C13 1_555 1_555
C25_2 C26_2 1_555 1_555
Zn5 O1_2 1_555 1_555
Ni3 O1_2 1_555 1_555
O1_2 Zn3 1_555 1_555
O4_2 C20_2 1_555 1_555
O5_2 Ni3 1_555 1_555
N1_2 Ni3 1_555 1_555
C15_2 C14_2 1_555 1_555
C16_2 C15_2 1_555 1_555
H9_2 C16_2 1_555 1_555
C17_2 C16_2 1_555 1_555
C18_2 C17_2 1_555 1_555
H10_2 C18_2 1_555 1_555
C19_2 C14_2 1_555 1_555
H11_2 C19_2 1_555 1_555
C20_2 O5_2 1_555 1_555
C28_2 N1_2 1_555 1_555
H16_2 C28_2 1_555 1_555
C29_2 C28_2 1_555 1_555
H17_2 C29_2 1_555 1_555
C30_2 C29_2 1_555 1_555
H18_2 C30_2 1_555 1_555
Zn3 O4_2 1_555 1_555
O9 C31_2 1_555 1_555
O11_2 C31_2 1_555 1_555
O12_2 Zn5 1_555 1_555
O13_2 Ni3 1_555 1_555
O15 C57_2 1_555 1_555
O18 C57_2 1_555 1_555
C31_2 C32_2 1_555 1_555
C32_2 C33_2 1_555 1_555
C33_2 H19_2 1_555 1_555
C34_2 C33_2 1_555 1_555
H20_2 C34_2 1_555 1_555
C35_2 C34_2 1_555 1_555
C36_2 C35_2 1_555 1_555
H21_2 C36_2 1_555 1_555
C37_2 C32_2 1_555 1_555
H22_2 C37_2 1_555 1_555
C38_2 C35_2 1_555 1_555
C39_2 C38_2 1_555 1_555
H23_2 C39_2 1_555 1_555
C40_2 C39_2 1_555 1_555
C41_2 C40_2 1_555 1_555
H24_2 C41_2 1_555 1_555
C42_2 C41_2 1_555 1_555
C43_2 C38_2 1_555 1_555
H25_2 C43_2 1_555 1_555
C44_2 C40_2 1_555 1_555
C45_2 C44_2 1_555 1_555
H26_2 C45_2 1_555 1_555
C46_2 C45_2 1_555 1_555
H27_2 C46_2 1_555 1_555
C47_2 C46_2 1_555 1_555
C48_2 C47_2 1_555 1_555
H28_2 C48_2 1_555 1_555
C49_2 C44_2 1_555 1_555
H29_2 C49_2 1_555 1_555
C50_2 O12_2 1_555 1_555
C51_2 C42_2 1_555 1_555
C52_2 C51_2 1_555 1_555
H30_2 C52_2 1_555 1_555
C53_2 C52_2 1_555 1_555
H31_2 C53_2 1_555 1_555
C54_2 C53_2 1_555 1_555
C55_2 C54_2 1_555 1_555
H32_2 C55_2 1_555 1_555
C56_2 C51_2 1_555 1_555
H33_2 C56_2 1_555 1_555
C57_2 C54_2 1_555 1_555
C58_2 N1_2 1_555 1_555
H34_2 C58_2 1_555 1_555
C59_2 C30_2 1_555 1_555
H35_2 C59_2 1_555 1_555
C17_2 C20_2 1_555 1_555
C18_2 C19_2 1_555 1_555
O13_2 C50_2 1_555 1_555
C36_2 C37_2 1_555 1_555
C42_2 C43_2 1_555 1_555
C47_2 C50_2 1_555 1_555
C48_2 C49_2 1_555 1_555
C55_2 C56_2 1_555 1_555
C58_2 C59_2 1_555 1_555
H2_2 C4_2 1_555 1_555
C5_2 C4_2 1_555 1_555
C8_2 C5_2 1_555 1_555
C9_2 C8_2 1_555 1_555
H5_2 C9_2 1_555 1_555
C10_2 C9_2 1_555 1_555
C13_2 C8_2 1_555 1_555
H6_2 C11_2 1_555 1_555
C12_2 C11_2 1_555 1_555
H12_2 C22_2 1_555 1_555
Zn1_2 O1_3 1_555 1_555
Ni1_2 O1_3 1_555 1_555
O1_3 Zn2_2 1_555 1_555
O2_2 C1_3 1_555 1_555
O3_3 C1_3 1_555 1_555
O4_3 C20_3 1_555 1_555
O5_3 Ni1_2 1_555 1_555
O6_2 C27_3 1_555 1_555
O7_2 C27_3 1_555 1_555
N1_3 Ni1_2 1_555 1_555
C1_3 C2_3 1_555 1_555
C2_3 C3_3 1_555 1_555
C3_3 H1_3 1_555 1_555
C4_3 C3_3 1_555 1_555
H2_3 C4_3 1_555 1_555
C5_3 C4_3 1_555 1_555
C6_3 C5_3 1_555 1_555
H3_3 C6_3 1_555 1_555
C7_3 C2_3 1_555 1_555
H4_3 C7_3 1_555 1_555
C8_3 C5_3 1_555 1_555
C9_3 C8_3 1_555 1_555
H5_3 C9_3 1_555 1_555
C10_3 C9_3 1_555 1_555
C11_3 C10_3 1_555 1_555
H6_3 C11_3 1_555 1_555
C12_3 C11_3 1_555 1_555
C13_3 C8_3 1_555 1_555
H7_3 C13_3 1_555 1_555
C14_3 C10_3 1_555 1_555
C15_3 C14_3 1_555 1_555
H8_3 C15_3 1_555 1_555
C16_3 C15_3 1_555 1_555
H9_3 C16_3 1_555 1_555
C17_3 C16_3 1_555 1_555
C18_3 C17_3 1_555 1_555
H10_3 C18_3 1_555 1_555
C19_3 C14_3 1_555 1_555
H11_3 C19_3 1_555 1_555
C20_3 O5_3 1_555 1_555
C21_3 C12_3 1_555 1_555
C22_3 C21_3 1_555 1_555
H12_3 C22_3 1_555 1_555
C23_3 C22_3 1_555 1_555
H13_3 C23_3 1_555 1_555
C24_3 C23_3 1_555 1_555
C25_3 C24_3 1_555 1_555
H14_3 C25_3 1_555 1_555
C26_3 C21_3 1_555 1_555
H15_3 C26_3 1_555 1_555
C27_3 C24_3 1_555 1_555
C28_3 N1_3 1_555 1_555
H16_3 C28_3 1_555 1_555
C29_3 C28_3 1_555 1_555
H17_3 C29_3 1_555 1_555
C30_3 C29_3 1_555 1_555
H18_3 C30_3 1_555 1_555
Zn2_2 O4_3 1_555 1_555
Zn3_2 O6_2 1_555 1_555
Ni2 O7_2 1_555 1_555
O9_2 Zn1_2 1_555 1_555
O10_2 Zn2_2 1_555 1_555
O12_3 Zn1_2 1_555 1_555
O13_3 Ni1_2 1_555 1_555
O15_2 Zn1_2 1_555 1_555
O16_2 Zn2_2 1_555 1_555
O18_2 Ni1_2 1_555 1_555
O19_2 Ni1_2 1_555 1_555
C45_3 C44_3 1_555 1_555
C46_3 C45_3 1_555 1_555
H27_3 C46_3 1_555 1_555
C47_3 C46_3 1_555 1_555
C48_3 C47_3 1_555 1_555
H28_3 C48_3 1_555 1_555
C49_3 C44_3 1_555 1_555
H29_3 C49_3 1_555 1_555
C50_3 O12_3 1_555 1_555
C58_3 N1_3 1_555 1_555
H34_3 C58_3 1_555 1_555
C59_3 C30_3 1_555 1_555
H35_3 C59_3 1_555 1_555
C6_3 C7_3 1_555 1_555
C12_3 C13_3 1_555 1_555
C17_3 C20_3 1_555 1_555
C18_3 C19_3 1_555 1_555
C25_3 C26_3 1_555 1_555
O13_3 C50_3 1_555 1_555
C47_3 C50_3 1_555 1_555
C48_3 C49_3 1_555 1_555
C58_3 C59_3 1_555 1_555
Zn5_2 O14_2 1_555 1_555
Ni2 O17_2 1_555 1_555
O8_2 C31_3 1_555 1_555
O11_3 C31_3 1_555 1_555
O14_2 C57_3 1_555 1_555
O17_2 C57_3 1_555 1_555
C31_3 C32_3 1_555 1_555
C32_3 C33_3 1_555 1_555
C33_3 H19_3 1_555 1_555
C34_3 C33_3 1_555 1_555
H20_3 C34_3 1_555 1_555
C35_3 C34_3 1_555 1_555
C36_3 C35_3 1_555 1_555
H21_3 C36_3 1_555 1_555
C37_3 C32_3 1_555 1_555
H22_3 C37_3 1_555 1_555
C38_3 C35_3 1_555 1_555
C39_3 C38_3 1_555 1_555
H23_3 C39_3 1_555 1_555
C40_3 C39_3 1_555 1_555
C41_3 C40_3 1_555 1_555
H24_3 C41_3 1_555 1_555
C42_3 C41_3 1_555 1_555
C43_3 C38_3 1_555 1_555
H25_3 C43_3 1_555 1_555
C51_3 C42_3 1_555 1_555
C52_3 C51_3 1_555 1_555
H30_3 C52_3 1_555 1_555
C53_3 C52_3 1_555 1_555
H31_3 C53_3 1_555 1_555
C54_3 C53_3 1_555 1_555
C55_3 C54_3 1_555 1_555
H32_3 C55_3 1_555 1_555
C56_3 C51_3 1_555 1_555
H33_3 C56_3 1_555 1_555
C57_3 C54_3 1_555 1_555
C36_3 C37_3 1_555 1_555
C42_3 C43_3 1_555 1_555
C55_3 C56_3 1_555 1_555
O15_2 C57_4 1_555 1_555
O18_2 C57_4 1_555 1_555
C54_4 C53_4 1_555 1_555
C55_4 C54_4 1_555 1_555
H32_4 C55_4 1_555 1_555
C56_4 C51_4 1_555 1_555
H33_4 C56_4 1_555 1_555
C57_4 C54_4 1_555 1_555
C55_4 C56_4 1_555 1_555
Zn5_2 O1_4 1_555 1_555
Ni2 O1_4 1_555 1_555
O1_4 Zn3_2 1_555 1_555
O4_4 C20_4 1_555 1_555
O5_4 Ni2 1_555 1_555
N1_4 Ni2 1_555 1_555
H6_4 C11_4 1_555 1_555
C12_4 C11_4 1_555 1_555
C18_4 C17_4 1_555 1_555
H10_4 C18_4 1_555 1_555
C19_4 C14_4 1_555 1_555
H11_4 C19_4 1_555 1_555
C20_4 O5_4 1_555 1_555
H12_4 C22_4 1_555 1_555
C28_4 N1_4 1_555 1_555
H16_4 C28_4 1_555 1_555
C29_4 C28_4 1_555 1_555
H17_4 C29_4 1_555 1_555
C30_4 C29_4 1_555 1_555
H18_4 C30_4 1_555 1_555
Zn3_2 O4_4 1_555 1_555
O12_4 Zn5_2 1_555 1_555
O13_4 Ni2 1_555 1_555
C48_4 C47_4 1_555 1_555
H28_4 C48_4 1_555 1_555
C49_4 C44_4 1_555 1_555
H29_4 C49_4 1_555 1_555
C50_4 O12_4 1_555 1_555
C58_4 N1_4 1_555 1_555
H34_4 C58_4 1_555 1_555
C59_4 C30_4 1_555 1_555
H35_4 C59_4 1_555 1_555
C17_4 C20_4 1_555 1_555
C18_4 C19_4 1_555 1_555
O13_4 C50_4 1_555 1_555
C47_4 C50_4 1_555 1_555
C48_4 C49_4 1_555 1_555
C58_4 C59_4 1_555 1_555
O16_2 C27_4 1_555 1_555
O19_2 C27_4 1_555 1_555
C24_4 C23_4 1_555 1_555
C25_4 C24_4 1_555 1_555
H14_4 C25_4 1_555 1_555
C26_4 C21_4 1_555 1_555
H15_4 C26_4 1_555 1_555
C27_4 C24_4 1_555 1_555
C25_4 C26_4 1_555 1_555
O9_2 C31_4 1_555 1_555
O11_4 C31_4 1_555 1_555
C31_4 C32_4 1_555 1_555
C32_4 C33_4 1_555 1_555
C33_4 H19_4 1_555 1_555
H21_4 C36_4 1_555 1_555
C37_4 C32_4 1_555 1_555
H22_4 C37_4 1_555 1_555
C36_4 C37_4 1_555 1_555
H2_4 C4_4 1_555 1_555
C5_4 C4_4 1_555 1_555
C8_4 C5_4 1_555 1_555
C9_4 C8_4 1_555 1_555
H5_4 C9_4 1_555 1_555
C10_4 C9_4 1_555 1_555
C13_4 C8_4 1_555 1_555
H8_4 C15_4 1_555 1_555
C16_4 C15_4 1_555 1_555
H9_4 C16_4 1_555 1_555
C46_4 C45_4 1_555 1_555
H27_4 C46_4 1_555 1_555
O10_2 C1_4 1_555 1_555
O3_4 C1_4 1_555 1_555
C1_4 C2_4 1_555 1_555
C2_4 C3_4 1_555 1_555
C3_4 H1_4 1_555 1_555
H3_4 C6_4 1_555 1_555
C7_4 C2_4 1_555 1_555
H4_4 C7_4 1_555 1_555
C6_4 C7_4 1_555 1_555
H24_4 C41_4 1_555 1_555
C42_4 C41_4 1_555 1_555
H30_4 C52_4 1_555 1_555
H20_4 C34_4 1_555 1_555
C35_4 C34_4 1_555 1_555
C38_4 C35_4 1_555 1_555
C39_4 C38_4 1_555 1_555
H23_4 C39_4 1_555 1_555
C40_4 C39_4 1_555 1_555
C43_4 C38_4 1_555 1_555

#END
