
###############################################################################
#
# This file contains modified crystal structure data generated from the
# MOF subset of the Cambridge Structural Database (CSD) v543 
# hosted by the Cambridge Crystallographic Data Centre (CCDC).
#
# This work is licensed under the Creative Commons
# Attribution-NonCommercial-ShareAlike 4.0 International License.
# To view a copy of this license, visit
# http://creativecommons.org/licenses/by-nc-sa/4.0/
# or send a letter to
# Creative Commons, PO Box 1866, Mountain View, CA 94042, USA.
#
# CIF created using the CSD Python API on 29 September 2022
# The structure has been converted into the P1 space group
# The structure has a 3D framework
# The original CSD entry EGATEM is in the orthorhombic crystal system
# The framework has been calculated to contain at least 10.0% void space
# The void calculation uses a probe of radius 1.32A, grid spacing 0.4
#
###############################################################################

data_EGATEM
_chemical_formula_moiety         '(C236 H140 Co4 N4 O52 Zn8)n'
_symmetry_cell_setting           triclinic
_symmetry_space_group_name_H-M   'P 1'
_symmetry_Int_Tables_number      1
_space_group_name_Hall           'P 1'
loop_
_symmetry_equiv_pos_site_id
_symmetry_equiv_pos_as_xyz
1 x,y,z
_cell_length_a                   16.9892(3)
_cell_length_b                   20.6271(4)
_cell_length_c                   25.8309(5)
_cell_angle_alpha                90
_cell_angle_beta                 90
_cell_angle_gamma                90
_cell_volume                     9052.13
loop_
_atom_site_label
_atom_site_type_symbol
_atom_site_fract_x
_atom_site_fract_y
_atom_site_fract_z
Zn1 Zn 0.51532(3) 0.16105(3) 0.11853(2)
Co1 Co 0.63153(5) 0.2500 0.18866(3)
O1 O 0.52221(19) 0.2500 0.14885(14)
O2 O 0.08761(16) 0.66187(16) 0.58640(12)
O3 O 0.04884(19) 0.56597(19) 0.56012(16)
O4 O 0.51171(17) 0.38993(16) 0.18267(11)
O5 O 0.58176(17) 0.32228(16) 0.23409(11)
O6 O 0.89131(15) 0.65637(15) 0.57551(11)
O7 O 0.81611(16) 0.67897(16) 0.64404(12)
N1 N 0.7289(2) 0.2500 0.24024(19)
C1 C 0.0995(2) 0.6091(3) 0.56240(19)
C2 C 0.1779(2) 0.6015(2) 0.53702(17)
C3 C 0.1962(2) 0.5479(2) 0.5084(2)
H1 H 0.1583 0.5159 0.5037
C4 C 0.2693(2) 0.5400(2) 0.48622(19)
H2 H 0.2801 0.5031 0.4669
C5 C 0.3277(2) 0.5877(2) 0.49265(18)
C6 C 0.3088(2) 0.6427(2) 0.52147(17)
H3 H 0.3461 0.6753 0.5258
C7 C 0.2355(2) 0.6495(2) 0.54367(18)
H4 H 0.2241 0.6862 0.5632
C8 C 0.4081(2) 0.5791(2) 0.47075(18)
C9 C 0.4197(2) 0.5464(2) 0.42430(17)
H5 H 0.3763 0.5321 0.4055
C10 C 0.4950(2) 0.5346(2) 0.4056(2)
C11 C 0.5591(2) 0.5572(2) 0.43380(17)
H6 H 0.6096 0.5494 0.4215
C12 C 0.5495(2) 0.5913(2) 0.48006(17)
C13 C 0.4734(2) 0.6004(2) 0.49863(19)
H7 H 0.4659 0.6211 0.5302
C14 C 0.5082(2) 0.4967(3) 0.35770(18)
C15 C 0.4583(3) 0.5008(3) 0.31436(17)
H8 H 0.4165 0.5300 0.3148
C16 C 0.4697(2) 0.4632(2) 0.27187(18)
H9 H 0.4366 0.4679 0.2435
C17 C 0.5304(2) 0.4178(2) 0.27020(17)
C18 C 0.5810(3) 0.4134(3) 0.31340(18)
H10 H 0.6223 0.3838 0.3130
C19 C 0.5703(2) 0.4520(3) 0.35566(18)
H11 H 0.6047 0.4486 0.3836
C20 C 0.5421(2) 0.3736(2) 0.22517(17)
C21 C 0.6188(2) 0.6119(2) 0.51003(17)
C22 C 0.6895(2) 0.6289(3) 0.48552(19)
H12 H 0.6916 0.6300 0.4496
C23 C 0.7558(2) 0.6439(2) 0.51363(18)
H13 H 0.8028 0.6525 0.4965
C24 C 0.7530(2) 0.6465(2) 0.56702(17)
C25 C 0.6836(2) 0.6316(2) 0.59188(17)
H14 H 0.6814 0.6331 0.6278
C26 C 0.6171(2) 0.6143(2) 0.56403(18)
H15 H 0.5708 0.6042 0.5815
C27 C 0.8244(2) 0.6617(2) 0.59800(18)
C28 C 0.7556(2) 0.3056(3) 0.26045(17)
H16 H 0.7405 0.3446 0.2452
C29 C 0.8047(2) 0.3075(3) 0.30294(19)
H17 H 0.8214 0.3468 0.3166
C30 C 0.8282(3) 0.2500 0.3246(3)
H18 H 0.8600 0.2500 0.3538
Zn2 Zn 0.51532(3) 0.33895(3) 0.11853(2)
Zn4 Zn 0.98468(3) 0.66105(3) 0.61853(2)
Co2 Co 0.86847(5) 0.7500 0.68866(3)
O9 O 0.41239(16) 0.16187(16) 0.08640(12)
O10 O 0.41239(16) 0.33813(16) 0.08640(12)
O12 O 0.51171(17) 0.11007(16) 0.18267(11)
O13 O 0.58176(17) 0.17772(16) 0.23409(11)
O15 O 0.60869(15) 0.15637(15) 0.07551(11)
O16 O 0.60869(15) 0.34363(15) 0.07551(11)
O18 O 0.68389(16) 0.17897(16) 0.14404(12)
O19 O 0.68389(16) 0.32103(16) 0.14404(12)
C44 C 0.5082(2) 0.0033(3) 0.35770(18)
C46 C 0.4697(2) 0.0368(2) 0.27187(18)
H27 H 0.4366 0.0321 0.2435
C47 C 0.5304(2) 0.0822(2) 0.27020(17)
C48 C 0.5810(3) 0.0866(3) 0.31340(18)
H28 H 0.6223 0.1162 0.3130
C49 C 0.5703(2) 0.0480(3) 0.35566(18)
H29 H 0.6047 0.0514 0.3836
C50 C 0.5421(2) 0.1264(2) 0.22517(17)
C58 C 0.7556(2) 0.1944(3) 0.26045(17)
H34 H 0.7405 0.1554 0.2452
C59 C 0.8047(2) 0.1925(3) 0.30294(19)
H35 H 0.8214 0.1532 0.3166
Zn6 Zn 0.98468(3) 0.83895(3) 0.61853(2)
O8 O 0.08761(16) 0.83813(16) 0.58640(12)
O11 O 0.04884(19) 0.93403(19) 0.56012(16)
O14 O 0.89131(15) 0.84363(15) 0.57551(11)
O17 O 0.81611(16) 0.82103(16) 0.64404(12)
C31 C 0.0995(2) 0.8909(3) 0.56240(19)
C32 C 0.1779(2) 0.8985(2) 0.53702(17)
C33 C 0.1962(2) 0.9521(2) 0.5084(2)
H19 H 0.1583 0.9841 0.5037
C34 C 0.2693(2) 0.9600(2) 0.48622(19)
H20 H 0.2801 0.9969 0.4669
C35 C 0.3277(2) 0.9123(2) 0.49265(18)
C36 C 0.3088(2) 0.8573(2) 0.52147(17)
H21 H 0.3461 0.8247 0.5258
C37 C 0.2355(2) 0.8505(2) 0.54367(18)
H22 H 0.2241 0.8138 0.5632
C38 C 0.4081(2) 0.9209(2) 0.47075(18)
C39 C 0.4197(2) 0.9536(2) 0.42430(17)
H23 H 0.3763 0.9679 0.4055
C40 C 0.4950(2) 0.9654(2) 0.4056(2)
C41 C 0.5591(2) 0.9428(2) 0.43380(17)
H24 H 0.6096 0.9506 0.4215
C42 C 0.5495(2) 0.9087(2) 0.48006(17)
C43 C 0.4734(2) 0.8996(2) 0.49863(19)
H25 H 0.4659 0.8789 0.5302
C45 C 0.4583(3) 0.9992(3) 0.31436(17)
H26 H 0.4165 0.9700 0.3148
C51 C 0.6188(2) 0.8881(2) 0.51003(17)
C52 C 0.6895(2) 0.8711(3) 0.48552(19)
H30 H 0.6916 0.8700 0.4496
C53 C 0.7558(2) 0.8561(2) 0.51363(18)
H31 H 0.8028 0.8475 0.4965
C54 C 0.7530(2) 0.8535(2) 0.56702(17)
C55 C 0.6836(2) 0.8684(2) 0.59188(17)
H32 H 0.6814 0.8669 0.6278
C56 C 0.6171(2) 0.8857(2) 0.56403(18)
H33 H 0.5708 0.8958 0.5815
C57 C 0.8244(2) 0.8383(2) 0.59800(18)
O11_2 O 0.45116(19) 0.06597(19) 0.06012(16)
C31_2 C 0.4005(2) 0.1091(3) 0.06240(19)
C32_2 C 0.3221(2) 0.1015(2) 0.03702(17)
C33_2 C 0.3038(2) 0.0479(2) 0.0084(2)
H19_2 H 0.3417 0.0159 0.0037
C36_2 C 0.1912(2) 0.1427(2) 0.02147(17)
H21_2 H 0.1539 0.1753 0.0258
C37_2 C 0.2645(2) 0.1495(2) 0.04367(18)
H22_2 H 0.2759 0.1862 0.0632
H25_2 H 0.0341 0.1211 0.0302
O3_2 O 0.45116(19) 0.43403(19) 0.06012(16)
C1_2 C 0.4005(2) 0.3909(3) 0.06240(19)
C2_2 C 0.3221(2) 0.3985(2) 0.03702(17)
C3_2 C 0.3038(2) 0.4521(2) 0.0084(2)
H1_2 H 0.3417 0.4841 0.0037
C6_2 C 0.1912(2) 0.3573(2) 0.02147(17)
H3_2 H 0.1539 0.3247 0.0258
C7_2 C 0.2645(2) 0.3505(2) 0.04367(18)
H4_2 H 0.2759 0.3138 0.0632
H7_2 H 0.0341 0.3789 0.0302
C4_2 C 0.2307(2) 0.4600(2) 0.98622(19)
H2_2 H 0.2199 0.4969 0.9669
C5_2 C 0.1723(2) 0.4123(2) 0.99265(18)
C8_2 C 0.0919(2) 0.4209(2) 0.97075(18)
C9_2 C 0.0803(2) 0.4536(2) 0.92430(17)
H5_2 H 0.1237 0.4679 0.9055
C10_2 C 0.0050(2) 0.4654(2) 0.9056(2)
C13_2 C 0.0266(2) 0.3996(2) 0.99863(19)
C15_2 C 0.0417(3) 0.4992(3) 0.81436(17)
H8_2 H 0.0835 0.4700 0.8148
C16_2 C 0.0303(2) 0.5368(2) 0.77187(18)
H9_2 H 0.0634 0.5321 0.7435
C46_2 C 0.0303(2) 0.9632(2) 0.77187(18)
H27_2 H 0.0634 0.9679 0.7435
C51_2 C 0.8812(2) 0.1119(2) 0.01003(17)
C53_2 C 0.7442(2) 0.1439(2) 0.01363(18)
C54_2 C 0.7470(2) 0.1465(2) 0.06702(17)
C55_2 C 0.8164(2) 0.1316(2) 0.09188(17)
H32_2 H 0.8186 0.1331 0.1278
C56_2 C 0.8829(2) 0.1143(2) 0.06403(18)
H33_2 H 0.9292 0.1042 0.0815
C57_2 C 0.6756(2) 0.1617(2) 0.09800(18)
C21_2 C 0.8812(2) 0.3881(2) 0.01003(17)
C23_2 C 0.7442(2) 0.3561(2) 0.01363(18)
C24_2 C 0.7470(2) 0.3535(2) 0.06702(17)
C25_2 C 0.8164(2) 0.3684(2) 0.09188(17)
H14_2 H 0.8186 0.3669 0.1278
C26_2 C 0.8829(2) 0.3857(2) 0.06403(18)
H15_2 H 0.9292 0.3958 0.0815
C27_2 C 0.6756(2) 0.3383(2) 0.09800(18)
O1_2 O 0.97779(19) 0.7500 0.64885(14)
O4_2 O 0.98829(17) 0.61007(16) 0.68267(11)
O5_2 O 0.91824(17) 0.67772(16) 0.73409(11)
N1_2 N 0.7711(2) 0.7500 0.74024(19)
C11_2 C 0.9409(2) 0.4428(2) 0.93380(17)
H6_2 H 0.8904 0.4506 0.9215
C12_2 C 0.9505(2) 0.4087(2) 0.98006(17)
C14_2 C 0.9918(2) 0.5033(3) 0.85770(18)
C17_2 C 0.9696(2) 0.5822(2) 0.77020(17)
C18_2 C 0.9190(3) 0.5866(3) 0.81340(18)
H10_2 H 0.8777 0.6162 0.8130
C19_2 C 0.9297(2) 0.5480(3) 0.85566(18)
H11_2 H 0.8953 0.5514 0.8836
C20_2 C 0.9579(2) 0.6264(2) 0.72517(17)
C22_2 C 0.8105(2) 0.3711(3) 0.98552(19)
H12_2 H 0.8084 0.3700 0.9496
H13_2 H 0.6972 0.3475 0.9965
C28_2 C 0.7444(2) 0.6944(3) 0.76045(17)
H16_2 H 0.7595 0.6554 0.7452
C29_2 C 0.6953(2) 0.6925(3) 0.80294(19)
H17_2 H 0.6786 0.6532 0.8166
C30_2 C 0.6718(3) 0.7500 0.8246(3)
H18_2 H 0.6400 0.7500 0.8538
O12_2 O 0.98829(17) 0.88993(16) 0.68267(11)
O13_2 O 0.91824(17) 0.82228(16) 0.73409(11)
C44_2 C 0.9918(2) 0.9967(3) 0.85770(18)
C47_2 C 0.9696(2) 0.9178(2) 0.77020(17)
C48_2 C 0.9190(3) 0.9134(3) 0.81340(18)
H28_2 H 0.8777 0.8838 0.8130
C49_2 C 0.9297(2) 0.9520(3) 0.85566(18)
H29_2 H 0.8953 0.9486 0.8836
C50_2 C 0.9579(2) 0.8736(2) 0.72517(17)
C58_2 C 0.7444(2) 0.8056(3) 0.76045(17)
H34_2 H 0.7595 0.8446 0.7452
C59_2 C 0.6953(2) 0.8075(3) 0.80294(19)
H35_2 H 0.6786 0.8468 0.8166
Zn1_2 Zn 0.01532(3) 0.33895(3) 0.38147(2)
Co1_2 Co 0.13153(5) 0.2500 0.31134(3)
O1_3 O 0.02221(19) 0.2500 0.35115(14)
O4_3 O 0.01171(17) 0.11007(16) 0.31733(11)
O5_3 O 0.08176(17) 0.17772(16) 0.26591(11)
N1_3 N 0.2289(2) 0.2500 0.25976(19)
C14_3 C 0.0082(2) 0.0033(3) 0.14230(18)
C17_3 C 0.0304(2) 0.0822(2) 0.22980(17)
C18_3 C 0.0810(3) 0.0866(3) 0.18660(18)
H10_3 H 0.1223 0.1162 0.1870
C19_3 C 0.0703(2) 0.0480(3) 0.14434(18)
H11_3 H 0.1047 0.0514 0.1164
C20_3 C 0.0421(2) 0.1264(2) 0.27483(17)
C28_3 C 0.2556(2) 0.1944(3) 0.23955(17)
H16_3 H 0.2405 0.1554 0.2548
C29_3 C 0.3047(2) 0.1925(3) 0.19706(19)
H17_3 H 0.3214 0.1532 0.1834
C30_3 C 0.3282(3) 0.2500 0.1754(3)
H18_3 H 0.3600 0.2500 0.1462
Zn2_2 Zn 0.01532(3) 0.16105(3) 0.38147(2)
O12_3 O 0.01171(17) 0.38993(16) 0.31733(11)
O13_3 O 0.08176(17) 0.32228(16) 0.26591(11)
O15_2 O 0.10869(15) 0.34363(15) 0.42449(11)
O16_2 O 0.10869(15) 0.15637(15) 0.42449(11)
O18_2 O 0.18389(16) 0.32103(16) 0.35596(12)
O19_2 O 0.18389(16) 0.17897(16) 0.35596(12)
C41_2 C 0.0591(2) 0.5572(2) 0.06620(17)
H24_2 H 0.1096 0.5494 0.0785
C42_2 C 0.0495(2) 0.5913(2) 0.01994(17)
C44_3 C 0.0082(2) 0.4967(3) 0.14230(18)
C47_3 C 0.0304(2) 0.4178(2) 0.22980(17)
C48_3 C 0.0810(3) 0.4134(3) 0.18660(18)
H28_3 H 0.1223 0.3838 0.1870
C49_3 C 0.0703(2) 0.4520(3) 0.14434(18)
H29_3 H 0.1047 0.4486 0.1164
C50_3 C 0.0421(2) 0.3736(2) 0.27483(17)
C52_2 C 0.1895(2) 0.6289(3) 0.01448(19)
H30_2 H 0.1916 0.6300 0.0504
H31_2 H 0.3028 0.6525 0.0035
C58_3 C 0.2556(2) 0.3056(3) 0.23955(17)
H34_3 H 0.2405 0.3446 0.2548
C59_3 C 0.3047(2) 0.3075(3) 0.19706(19)
H35_3 H 0.3214 0.3468 0.1834
Zn6_2 Zn 0.48468(3) 0.66105(3) 0.88147(2)
Co3 Co 0.36847(5) 0.7500 0.81134(3)
O14_2 O 0.39131(15) 0.65637(15) 0.92449(11)
O17_2 O 0.31611(16) 0.67897(16) 0.85596(12)
C51_3 C 0.1188(2) 0.6119(2) 0.98997(17)
C53_3 C 0.2558(2) 0.6439(2) 0.98637(18)
C54_3 C 0.2530(2) 0.6465(2) 0.93298(17)
C55_3 C 0.1836(2) 0.6316(2) 0.90812(17)
H32_3 H 0.1814 0.6331 0.8722
C56_3 C 0.1171(2) 0.6143(2) 0.93597(18)
H33_3 H 0.0708 0.6042 0.9185
C57_3 C 0.3244(2) 0.6617(2) 0.90200(18)
O6_2 O 0.39131(15) 0.84363(15) 0.92449(11)
O7_2 O 0.31611(16) 0.82103(16) 0.85596(12)
C21_3 C 0.1188(2) 0.8881(2) 0.98997(17)
C23_3 C 0.2558(2) 0.8561(2) 0.98637(18)
C24_3 C 0.2530(2) 0.8535(2) 0.93298(17)
C25_3 C 0.1836(2) 0.8684(2) 0.90812(17)
H14_3 H 0.1814 0.8669 0.8722
C26_3 C 0.1171(2) 0.8857(2) 0.93597(18)
H15_3 H 0.0708 0.8958 0.9185
C27_3 C 0.3244(2) 0.8383(2) 0.90200(18)
Zn4_2 Zn 0.48468(3) 0.83895(3) 0.88147(2)
C16_3 C 0.9697(2) 0.0368(2) 0.22813(18)
H9_3 H 0.9366 0.0321 0.2565
O9_2 O 0.91239(16) 0.33813(16) 0.41360(12)
O10_2 O 0.91239(16) 0.16187(16) 0.41360(12)
C34_2 C 0.7693(2) 0.5400(2) 0.01378(19)
H20_2 H 0.7801 0.5031 0.0331
C35_2 C 0.8277(2) 0.5877(2) 0.00735(18)
C38_2 C 0.9081(2) 0.5791(2) 0.02925(18)
C39_2 C 0.9197(2) 0.5464(2) 0.07570(17)
H23_2 H 0.8763 0.5321 0.0945
C40_2 C 0.9950(2) 0.5346(2) 0.0944(2)
C43_2 C 0.9734(2) 0.6004(2) 0.00137(19)
C45_2 C 0.9583(3) 0.5008(3) 0.18564(17)
H26_2 H 0.9165 0.5300 0.1852
C46_3 C 0.9697(2) 0.4632(2) 0.22813(18)
H27_3 H 0.9366 0.4679 0.2565
O8_2 O 0.58761(16) 0.66187(16) 0.91360(12)
O11_3 O 0.54884(19) 0.56597(19) 0.93988(16)
C31_3 C 0.5995(2) 0.6091(3) 0.93760(19)
C32_3 C 0.6779(2) 0.6015(2) 0.96298(17)
C33_3 C 0.6962(2) 0.5479(2) 0.9916(2)
H19_3 H 0.6583 0.5159 0.9963
C36_3 C 0.8088(2) 0.6427(2) 0.97853(17)
H21_3 H 0.8461 0.6753 0.9742
C37_3 C 0.7355(2) 0.6495(2) 0.95633(18)
H22_3 H 0.7241 0.6862 0.9368
H25_3 H 0.9659 0.6211 0.9698
O2_2 O 0.58761(16) 0.83813(16) 0.91360(12)
O3_3 O 0.54884(19) 0.93403(19) 0.93988(16)
C1_3 C 0.5995(2) 0.8909(3) 0.93760(19)
C2_3 C 0.6779(2) 0.8985(2) 0.96298(17)
C3_3 C 0.6962(2) 0.9521(2) 0.9916(2)
H1_3 H 0.6583 0.9841 0.9963
C6_3 C 0.8088(2) 0.8573(2) 0.97853(17)
H3_3 H 0.8461 0.8247 0.9742
C7_3 C 0.7355(2) 0.8505(2) 0.95633(18)
H4_3 H 0.7241 0.8138 0.9368
H7_3 H 0.9659 0.8789 0.9698
O3_4 O 0.95116(19) 0.06597(19) 0.43988(16)
C1_4 C 0.9005(2) 0.1091(3) 0.43760(19)
C2_4 C 0.8221(2) 0.1015(2) 0.46298(17)
C3_4 C 0.8038(2) 0.0479(2) 0.4916(2)
H1_4 H 0.8417 0.0159 0.4963
C4_3 C 0.7307(2) 0.0400(2) 0.51378(19)
H2_3 H 0.7199 0.0031 0.5331
C5_3 C 0.6723(2) 0.0877(2) 0.50735(18)
C6_4 C 0.6912(2) 0.1427(2) 0.47853(17)
H3_4 H 0.6539 0.1753 0.4742
C7_4 C 0.7645(2) 0.1495(2) 0.45633(18)
H4_4 H 0.7759 0.1862 0.4368
C8_3 C 0.5919(2) 0.0791(2) 0.52925(18)
C9_3 C 0.5803(2) 0.0464(2) 0.57570(17)
H5_3 H 0.6237 0.0321 0.5945
C10_3 C 0.5050(2) 0.0346(2) 0.5944(2)
C11_3 C 0.4409(2) 0.0572(2) 0.56620(17)
H6_3 H 0.3904 0.0494 0.5785
C12_3 C 0.4505(2) 0.0913(2) 0.51994(17)
C13_3 C 0.5266(2) 0.1004(2) 0.50137(19)
H7_4 H 0.5341 0.1211 0.4698
C15_3 C 0.5417(3) 0.0008(3) 0.68564(17)
H8_3 H 0.5835 0.0300 0.6852
C21_4 C 0.3812(2) 0.1119(2) 0.48997(17)
C22_3 C 0.3105(2) 0.1289(3) 0.51448(19)
H12_3 H 0.3084 0.1300 0.5504
C23_4 C 0.2442(2) 0.1439(2) 0.48637(18)
H13_3 H 0.1972 0.1525 0.5035
C24_4 C 0.2470(2) 0.1465(2) 0.43298(17)
C25_4 C 0.3164(2) 0.1316(2) 0.40812(17)
H14_4 H 0.3186 0.1331 0.3722
C26_4 C 0.3829(2) 0.1143(2) 0.43597(18)
H15_4 H 0.4292 0.1042 0.4185
C27_4 C 0.1756(2) 0.1617(2) 0.40200(18)
O1_4 O 0.47779(19) 0.7500 0.85115(14)
O4_4 O 0.48829(17) 0.88993(16) 0.81733(11)
O5_4 O 0.41824(17) 0.82228(16) 0.76591(11)
N1_4 N 0.2711(2) 0.7500 0.75976(19)
C14_4 C 0.4918(2) 0.9967(3) 0.64230(18)
C16_4 C 0.5303(2) 0.9632(2) 0.72813(18)
H9_4 H 0.5634 0.9679 0.7565
C17_4 C 0.4696(2) 0.9178(2) 0.72980(17)
C18_4 C 0.4190(3) 0.9134(3) 0.68660(18)
H10_4 H 0.3777 0.8838 0.6870
C19_4 C 0.4297(2) 0.9520(3) 0.64434(18)
H11_4 H 0.3953 0.9486 0.6164
C20_4 C 0.4579(2) 0.8736(2) 0.77483(17)
C28_4 C 0.2444(2) 0.8056(3) 0.73955(17)
H16_4 H 0.2595 0.8446 0.7548
C29_4 C 0.1953(2) 0.8075(3) 0.69706(19)
H17_4 H 0.1786 0.8468 0.6834
C30_4 C 0.1718(3) 0.7500 0.6754(3)
H18_4 H 0.1400 0.7500 0.6462
O11_4 O 0.95116(19) 0.43403(19) 0.43988(16)
O12_4 O 0.48829(17) 0.61007(16) 0.81733(11)
O13_4 O 0.41824(17) 0.67772(16) 0.76591(11)
C31_4 C 0.9005(2) 0.3909(3) 0.43760(19)
C32_4 C 0.8221(2) 0.3985(2) 0.46298(17)
C33_4 C 0.8038(2) 0.4521(2) 0.4916(2)
H19_4 H 0.8417 0.4841 0.4963
C34_3 C 0.7307(2) 0.4600(2) 0.51378(19)
H20_3 H 0.7199 0.4969 0.5331
C35_3 C 0.6723(2) 0.4123(2) 0.50735(18)
C36_4 C 0.6912(2) 0.3573(2) 0.47853(17)
H21_4 H 0.6539 0.3247 0.4742
C37_4 C 0.7645(2) 0.3505(2) 0.45633(18)
H22_4 H 0.7759 0.3138 0.4368
C38_3 C 0.5919(2) 0.4209(2) 0.52925(18)
C39_3 C 0.5803(2) 0.4536(2) 0.57570(17)
H23_3 H 0.6237 0.4679 0.5945
C40_3 C 0.5050(2) 0.4654(2) 0.5944(2)
C41_3 C 0.4409(2) 0.4428(2) 0.56620(17)
H24_3 H 0.3904 0.4506 0.5785
C42_3 C 0.4505(2) 0.4087(2) 0.51994(17)
C43_3 C 0.5266(2) 0.3996(2) 0.50137(19)
H25_4 H 0.5341 0.3789 0.4698
C44_4 C 0.4918(2) 0.5033(3) 0.64230(18)
C45_3 C 0.5417(3) 0.4992(3) 0.68564(17)
H26_3 H 0.5835 0.4700 0.6852
C46_4 C 0.5303(2) 0.5368(2) 0.72813(18)
H27_4 H 0.5634 0.5321 0.7565
C47_4 C 0.4696(2) 0.5822(2) 0.72980(17)
C48_4 C 0.4190(3) 0.5866(3) 0.68660(18)
H28_4 H 0.3777 0.6162 0.6870
C49_4 C 0.4297(2) 0.5480(3) 0.64434(18)
H29_4 H 0.3953 0.5514 0.6164
C50_4 C 0.4579(2) 0.6264(2) 0.77483(17)
C51_4 C 0.3812(2) 0.3881(2) 0.48997(17)
C52_3 C 0.3105(2) 0.3711(3) 0.51448(19)
H30_3 H 0.3084 0.3700 0.5504
C53_4 C 0.2442(2) 0.3561(2) 0.48637(18)
H31_3 H 0.1972 0.3475 0.5035
C54_4 C 0.2470(2) 0.3535(2) 0.43298(17)
C55_4 C 0.3164(2) 0.3684(2) 0.40812(17)
H32_4 H 0.3186 0.3669 0.3722
C56_4 C 0.3829(2) 0.3857(2) 0.43597(18)
H33_4 H 0.4292 0.3958 0.4185
C57_4 C 0.1756(2) 0.3383(2) 0.40200(18)
C58_4 C 0.2444(2) 0.6944(3) 0.73955(17)
H34_4 H 0.2595 0.6554 0.7548
C59_4 C 0.1953(2) 0.6925(3) 0.69706(19)
H35_4 H 0.1786 0.6532 0.6834
C11_4 C 0.0591(2) 0.9428(2) 0.06620(17)
H6_4 H 0.1096 0.9506 0.0785
C12_4 C 0.0495(2) 0.9087(2) 0.01994(17)
C22_4 C 0.1895(2) 0.8711(3) 0.01448(19)
H12_4 H 0.1916 0.8700 0.0504
H13_4 H 0.3028 0.8475 0.0035
C4_4 C 0.7693(2) 0.9600(2) 0.01378(19)
H2_4 H 0.7801 0.9969 0.0331
C5_4 C 0.8277(2) 0.9123(2) 0.00735(18)
C8_4 C 0.9081(2) 0.9209(2) 0.02925(18)
C9_4 C 0.9197(2) 0.9536(2) 0.07570(17)
H5_4 H 0.8763 0.9679 0.0945
C10_4 C 0.9950(2) 0.9654(2) 0.0944(2)
C13_4 C 0.9734(2) 0.8996(2) 0.00137(19)
C15_4 C 0.9583(3) 0.9992(3) 0.18564(17)
H8_4 H 0.9165 0.9700 0.1852
C34_4 C 0.2307(2) 0.0400(2) 0.98622(19)
H20_4 H 0.2199 0.0031 0.9669
C35_4 C 0.1723(2) 0.0877(2) 0.99265(18)
C38_4 C 0.0919(2) 0.0791(2) 0.97075(18)
C39_4 C 0.0803(2) 0.0464(2) 0.92430(17)
H23_4 H 0.1237 0.0321 0.9055
C40_4 C 0.0050(2) 0.0346(2) 0.9056(2)
C43_4 C 0.0266(2) 0.1004(2) 0.99863(19)
C45_4 C 0.0417(3) 0.0008(3) 0.81436(17)
H26_4 H 0.0835 0.0300 0.8148
C41_4 C 0.9409(2) 0.0572(2) 0.93380(17)
H24_4 H 0.8904 0.0494 0.9215
C42_4 C 0.9505(2) 0.0913(2) 0.98006(17)
C52_4 C 0.8105(2) 0.1289(3) 0.98552(19)
H30_4 H 0.8084 0.1300 0.9496
H31_4 H 0.6972 0.1525 0.9965
loop_
_geom_bond_atom_site_label_1
_geom_bond_atom_site_label_2
_geom_bond_site_symmetry_1
_geom_bond_site_symmetry_2
Zn1 O1 1_555 1_555
Co1 O1 1_555 1_555
O1 Zn2 1_555 1_555
O2 C1 1_555 1_555
O3 C1 1_555 1_555
O4 C20 1_555 1_555
O5 Co1 1_555 1_555
O6 C27 1_555 1_555
O7 C27 1_555 1_555
N1 Co1 1_555 1_555
C1 C2 1_555 1_555
C2 C3 1_555 1_555
C3 H1 1_555 1_555
C4 C3 1_555 1_555
H2 C4 1_555 1_555
C5 C4 1_555 1_555
C6 C5 1_555 1_555
H3 C6 1_555 1_555
C7 C2 1_555 1_555
H4 C7 1_555 1_555
C8 C5 1_555 1_555
C9 C8 1_555 1_555
H5 C9 1_555 1_555
C10 C9 1_555 1_555
C11 C10 1_555 1_555
H6 C11 1_555 1_555
C12 C11 1_555 1_555
C13 C8 1_555 1_555
H7 C13 1_555 1_555
C14 C10 1_555 1_555
C15 C14 1_555 1_555
H8 C15 1_555 1_555
C16 C15 1_555 1_555
H9 C16 1_555 1_555
C17 C16 1_555 1_555
C18 C17 1_555 1_555
H10 C18 1_555 1_555
C19 C14 1_555 1_555
H11 C19 1_555 1_555
C20 O5 1_555 1_555
C21 C12 1_555 1_555
C22 C21 1_555 1_555
H12 C22 1_555 1_555
C23 C22 1_555 1_555
H13 C23 1_555 1_555
C24 C23 1_555 1_555
C25 C24 1_555 1_555
H14 C25 1_555 1_555
C26 C21 1_555 1_555
H15 C26 1_555 1_555
C27 C24 1_555 1_555
C28 N1 1_555 1_555
H16 C28 1_555 1_555
C29 C28 1_555 1_555
H17 C29 1_555 1_555
C30 C29 1_555 1_555
H18 C30 1_555 1_555
Zn2 O4 1_555 1_555
Zn4 O6 1_555 1_555
Co2 O7 1_555 1_555
O9 Zn1 1_555 1_555
O10 Zn2 1_555 1_555
O12 Zn1 1_555 1_555
O13 Co1 1_555 1_555
O15 Zn1 1_555 1_555
O16 Zn2 1_555 1_555
O18 Co1 1_555 1_555
O19 Co1 1_555 1_555
H27 C46 1_555 1_555
C47 C46 1_555 1_555
C48 C47 1_555 1_555
H28 C48 1_555 1_555
C49 C44 1_555 1_555
H29 C49 1_555 1_555
C50 O12 1_555 1_555
C58 N1 1_555 1_555
H34 C58 1_555 1_555
C59 C30 1_555 1_555
H35 C59 1_555 1_555
C6 C7 1_555 1_555
C12 C13 1_555 1_555
C17 C20 1_555 1_555
C18 C19 1_555 1_555
C25 C26 1_555 1_555
O13 C50 1_555 1_555
C47 C50 1_555 1_555
C48 C49 1_555 1_555
C58 C59 1_555 1_555
Zn6 O14 1_555 1_555
Co2 O17 1_555 1_555
O8 C31 1_555 1_555
O11 C31 1_555 1_555
O14 C57 1_555 1_555
O17 C57 1_555 1_555
C31 C32 1_555 1_555
C32 C33 1_555 1_555
C33 H19 1_555 1_555
C34 C33 1_555 1_555
H20 C34 1_555 1_555
C35 C34 1_555 1_555
C36 C35 1_555 1_555
H21 C36 1_555 1_555
C37 C32 1_555 1_555
H22 C37 1_555 1_555
C38 C35 1_555 1_555
C39 C38 1_555 1_555
H23 C39 1_555 1_555
C40 C39 1_555 1_555
C41 C40 1_555 1_555
H24 C41 1_555 1_555
C42 C41 1_555 1_555
C43 C38 1_555 1_555
H25 C43 1_555 1_555
H26 C45 1_555 1_555
C51 C42 1_555 1_555
C52 C51 1_555 1_555
H30 C52 1_555 1_555
C53 C52 1_555 1_555
H31 C53 1_555 1_555
C54 C53 1_555 1_555
C55 C54 1_555 1_555
H32 C55 1_555 1_555
C56 C51 1_555 1_555
H33 C56 1_555 1_555
C57 C54 1_555 1_555
C36 C37 1_555 1_555
C42 C43 1_555 1_555
C55 C56 1_555 1_555
O9 C31_2 1_555 1_555
O11_2 C31_2 1_555 1_555
C31_2 C32_2 1_555 1_555
C32_2 C33_2 1_555 1_555
C33_2 H19_2 1_555 1_555
H21_2 C36_2 1_555 1_555
C37_2 C32_2 1_555 1_555
H22_2 C37_2 1_555 1_555
C36_2 C37_2 1_555 1_555
O10 C1_2 1_555 1_555
O3_2 C1_2 1_555 1_555
C1_2 C2_2 1_555 1_555
C2_2 C3_2 1_555 1_555
C3_2 H1_2 1_555 1_555
H3_2 C6_2 1_555 1_555
C7_2 C2_2 1_555 1_555
H4_2 C7_2 1_555 1_555
C6_2 C7_2 1_555 1_555
H2_2 C4_2 1_555 1_555
C5_2 C4_2 1_555 1_555
C8_2 C5_2 1_555 1_555
C9_2 C8_2 1_555 1_555
H5_2 C9_2 1_555 1_555
C10_2 C9_2 1_555 1_555
C13_2 C8_2 1_555 1_555
H8_2 C15_2 1_555 1_555
C16_2 C15_2 1_555 1_555
H9_2 C16_2 1_555 1_555
H27_2 C46_2 1_555 1_555
O15 C57_2 1_555 1_555
O18 C57_2 1_555 1_555
C54_2 C53_2 1_555 1_555
C55_2 C54_2 1_555 1_555
H32_2 C55_2 1_555 1_555
C56_2 C51_2 1_555 1_555
H33_2 C56_2 1_555 1_555
C57_2 C54_2 1_555 1_555
C55_2 C56_2 1_555 1_555
O16 C27_2 1_555 1_555
O19 C27_2 1_555 1_555
C24_2 C23_2 1_555 1_555
C25_2 C24_2 1_555 1_555
H14_2 C25_2 1_555 1_555
C26_2 C21_2 1_555 1_555
H15_2 C26_2 1_555 1_555
C27_2 C24_2 1_555 1_555
C25_2 C26_2 1_555 1_555
Zn6 O1_2 1_555 1_555
Co2 O1_2 1_555 1_555
O1_2 Zn4 1_555 1_555
O4_2 C20_2 1_555 1_555
O5_2 Co2 1_555 1_555
N1_2 Co2 1_555 1_555
H6_2 C11_2 1_555 1_555
C12_2 C11_2 1_555 1_555
C18_2 C17_2 1_555 1_555
H10_2 C18_2 1_555 1_555
C19_2 C14_2 1_555 1_555
H11_2 C19_2 1_555 1_555
C20_2 O5_2 1_555 1_555
H12_2 C22_2 1_555 1_555
C28_2 N1_2 1_555 1_555
H16_2 C28_2 1_555 1_555
C29_2 C28_2 1_555 1_555
H17_2 C29_2 1_555 1_555
C30_2 C29_2 1_555 1_555
H18_2 C30_2 1_555 1_555
Zn4 O4_2 1_555 1_555
O12_2 Zn6 1_555 1_555
O13_2 Co2 1_555 1_555
C48_2 C47_2 1_555 1_555
H28_2 C48_2 1_555 1_555
C49_2 C44_2 1_555 1_555
H29_2 C49_2 1_555 1_555
C50_2 O12_2 1_555 1_555
C58_2 N1_2 1_555 1_555
H34_2 C58_2 1_555 1_555
C59_2 C30_2 1_555 1_555
H35_2 C59_2 1_555 1_555
C17_2 C20_2 1_555 1_555
C18_2 C19_2 1_555 1_555
O13_2 C50_2 1_555 1_555
C47_2 C50_2 1_555 1_555
C48_2 C49_2 1_555 1_555
C58_2 C59_2 1_555 1_555
Zn1_2 O1_3 1_555 1_555
Co1_2 O1_3 1_555 1_555
O1_3 Zn2_2 1_555 1_555
O4_3 C20_3 1_555 1_555
O5_3 Co1_2 1_555 1_555
N1_3 Co1_2 1_555 1_555
C18_3 C17_3 1_555 1_555
H10_3 C18_3 1_555 1_555
C19_3 C14_3 1_555 1_555
H11_3 C19_3 1_555 1_555
C20_3 O5_3 1_555 1_555
C28_3 N1_3 1_555 1_555
H16_3 C28_3 1_555 1_555
C29_3 C28_3 1_555 1_555
H17_3 C29_3 1_555 1_555
C30_3 C29_3 1_555 1_555
H18_3 C30_3 1_555 1_555
Zn2_2 O4_3 1_555 1_555
O12_3 Zn1_2 1_555 1_555
O13_3 Co1_2 1_555 1_555
O15_2 Zn1_2 1_555 1_555
O16_2 Zn2_2 1_555 1_555
O18_2 Co1_2 1_555 1_555
O19_2 Co1_2 1_555 1_555
H24_2 C41_2 1_555 1_555
C42_2 C41_2 1_555 1_555
C48_3 C47_3 1_555 1_555
H28_3 C48_3 1_555 1_555
C49_3 C44_3 1_555 1_555
H29_3 C49_3 1_555 1_555
C50_3 O12_3 1_555 1_555
H30_2 C52_2 1_555 1_555
C58_3 N1_3 1_555 1_555
H34_3 C58_3 1_555 1_555
C59_3 C30_3 1_555 1_555
H35_3 C59_3 1_555 1_555
C17_3 C20_3 1_555 1_555
C18_3 C19_3 1_555 1_555
O13_3 C50_3 1_555 1_555
C47_3 C50_3 1_555 1_555
C48_3 C49_3 1_555 1_555
C58_3 C59_3 1_555 1_555
Zn6_2 O14_2 1_555 1_555
Co3 O17_2 1_555 1_555
O14_2 C57_3 1_555 1_555
O17_2 C57_3 1_555 1_555
C54_3 C53_3 1_555 1_555
C55_3 C54_3 1_555 1_555
H32_3 C55_3 1_555 1_555
C56_3 C51_3 1_555 1_555
H33_3 C56_3 1_555 1_555
C57_3 C54_3 1_555 1_555
C55_3 C56_3 1_555 1_555
O6_2 C27_3 1_555 1_555
O7_2 C27_3 1_555 1_555
C24_3 C23_3 1_555 1_555
C25_3 C24_3 1_555 1_555
H14_3 C25_3 1_555 1_555
C26_3 C21_3 1_555 1_555
H15_3 C26_3 1_555 1_555
C27_3 C24_3 1_555 1_555
Zn4_2 O6_2 1_555 1_555
Co3 O7_2 1_555 1_555
C25_3 C26_3 1_555 1_555
H9_3 C16_3 1_555 1_555
H20_2 C34_2 1_555 1_555
C35_2 C34_2 1_555 1_555
C38_2 C35_2 1_555 1_555
C39_2 C38_2 1_555 1_555
H23_2 C39_2 1_555 1_555
C40_2 C39_2 1_555 1_555
C43_2 C38_2 1_555 1_555
H26_2 C45_2 1_555 1_555
C46_3 C45_2 1_555 1_555
H27_3 C46_3 1_555 1_555
Zn6_2 O8_2 1_555 1_555
O8_2 C31_3 1_555 1_555
O11_3 C31_3 1_555 1_555
C31_3 C32_3 1_555 1_555
C32_3 C33_3 1_555 1_555
C33_3 H19_3 1_555 1_555
H21_3 C36_3 1_555 1_555
C37_3 C32_3 1_555 1_555
H22_3 C37_3 1_555 1_555
C36_3 C37_3 1_555 1_555
O2_2 C1_3 1_555 1_555
O3_3 C1_3 1_555 1_555
C1_3 C2_3 1_555 1_555
C2_3 C3_3 1_555 1_555
C3_3 H1_3 1_555 1_555
H3_3 C6_3 1_555 1_555
C7_3 C2_3 1_555 1_555
H4_3 C7_3 1_555 1_555
Zn4_2 O2_2 1_555 1_555
C6_3 C7_3 1_555 1_555
O10_2 C1_4 1_555 1_555
O3_4 C1_4 1_555 1_555
O16_2 C27_4 1_555 1_555
O19_2 C27_4 1_555 1_555
C1_4 C2_4 1_555 1_555
C2_4 C3_4 1_555 1_555
C3_4 H1_4 1_555 1_555
C4_3 C3_4 1_555 1_555
H2_3 C4_3 1_555 1_555
C5_3 C4_3 1_555 1_555
C6_4 C5_3 1_555 1_555
H3_4 C6_4 1_555 1_555
C7_4 C2_4 1_555 1_555
H4_4 C7_4 1_555 1_555
C8_3 C5_3 1_555 1_555
C9_3 C8_3 1_555 1_555
H5_3 C9_3 1_555 1_555
C10_3 C9_3 1_555 1_555
C11_3 C10_3 1_555 1_555
H6_3 C11_3 1_555 1_555
C12_3 C11_3 1_555 1_555
C13_3 C8_3 1_555 1_555
H7_4 C13_3 1_555 1_555
H8_3 C15_3 1_555 1_555
C21_4 C12_3 1_555 1_555
C22_3 C21_4 1_555 1_555
H12_3 C22_3 1_555 1_555
C23_4 C22_3 1_555 1_555
H13_3 C23_4 1_555 1_555
C24_4 C23_4 1_555 1_555
C25_4 C24_4 1_555 1_555
H14_4 C25_4 1_555 1_555
C26_4 C21_4 1_555 1_555
H15_4 C26_4 1_555 1_555
C27_4 C24_4 1_555 1_555
C6_4 C7_4 1_555 1_555
C12_3 C13_3 1_555 1_555
C25_4 C26_4 1_555 1_555
Zn6_2 O1_4 1_555 1_555
Co3 O1_4 1_555 1_555
O1_4 Zn4_2 1_555 1_555
O4_4 C20_4 1_555 1_555
O5_4 Co3 1_555 1_555
N1_4 Co3 1_555 1_555
H9_4 C16_4 1_555 1_555
C17_4 C16_4 1_555 1_555
C18_4 C17_4 1_555 1_555
H10_4 C18_4 1_555 1_555
C19_4 C14_4 1_555 1_555
H11_4 C19_4 1_555 1_555
C20_4 O5_4 1_555 1_555
C28_4 N1_4 1_555 1_555
H16_4 C28_4 1_555 1_555
C29_4 C28_4 1_555 1_555
H17_4 C29_4 1_555 1_555
C30_4 C29_4 1_555 1_555
H18_4 C30_4 1_555 1_555
Zn4_2 O4_4 1_555 1_555
O9_2 C31_4 1_555 1_555
O11_4 C31_4 1_555 1_555
O12_4 Zn6_2 1_555 1_555
O13_4 Co3 1_555 1_555
O15_2 C57_4 1_555 1_555
O18_2 C57_4 1_555 1_555
C31_4 C32_4 1_555 1_555
C32_4 C33_4 1_555 1_555
C33_4 H19_4 1_555 1_555
C34_3 C33_4 1_555 1_555
H20_3 C34_3 1_555 1_555
C35_3 C34_3 1_555 1_555
C36_4 C35_3 1_555 1_555
H21_4 C36_4 1_555 1_555
C37_4 C32_4 1_555 1_555
H22_4 C37_4 1_555 1_555
C38_3 C35_3 1_555 1_555
C39_3 C38_3 1_555 1_555
H23_3 C39_3 1_555 1_555
C40_3 C39_3 1_555 1_555
C41_3 C40_3 1_555 1_555
H24_3 C41_3 1_555 1_555
C42_3 C41_3 1_555 1_555
C43_3 C38_3 1_555 1_555
H25_4 C43_3 1_555 1_555
C44_4 C40_3 1_555 1_555
C45_3 C44_4 1_555 1_555
H26_3 C45_3 1_555 1_555
C46_4 C45_3 1_555 1_555
H27_4 C46_4 1_555 1_555
C47_4 C46_4 1_555 1_555
C48_4 C47_4 1_555 1_555
H28_4 C48_4 1_555 1_555
C49_4 C44_4 1_555 1_555
H29_4 C49_4 1_555 1_555
C50_4 O12_4 1_555 1_555
C51_4 C42_3 1_555 1_555
C52_3 C51_4 1_555 1_555
H30_3 C52_3 1_555 1_555
C53_4 C52_3 1_555 1_555
H31_3 C53_4 1_555 1_555
C54_4 C53_4 1_555 1_555
C55_4 C54_4 1_555 1_555
H32_4 C55_4 1_555 1_555
C56_4 C51_4 1_555 1_555
H33_4 C56_4 1_555 1_555
C57_4 C54_4 1_555 1_555
C58_4 N1_4 1_555 1_555
H34_4 C58_4 1_555 1_555
C59_4 C30_4 1_555 1_555
H35_4 C59_4 1_555 1_555
C17_4 C20_4 1_555 1_555
C18_4 C19_4 1_555 1_555
O13_4 C50_4 1_555 1_555
C36_4 C37_4 1_555 1_555
C42_3 C43_3 1_555 1_555
C47_4 C50_4 1_555 1_555
C48_4 C49_4 1_555 1_555
C55_4 C56_4 1_555 1_555
C58_4 C59_4 1_555 1_555
H6_4 C11_4 1_555 1_555
C12_4 C11_4 1_555 1_555
H12_4 C22_4 1_555 1_555
H2_4 C4_4 1_555 1_555
C5_4 C4_4 1_555 1_555
C8_4 C5_4 1_555 1_555
C9_4 C8_4 1_555 1_555
H5_4 C9_4 1_555 1_555
C10_4 C9_4 1_555 1_555
C13_4 C8_4 1_555 1_555
H8_4 C15_4 1_555 1_555
H20_4 C34_4 1_555 1_555
C35_4 C34_4 1_555 1_555
C38_4 C35_4 1_555 1_555
C39_4 C38_4 1_555 1_555
H23_4 C39_4 1_555 1_555
C40_4 C39_4 1_555 1_555
C43_4 C38_4 1_555 1_555
H26_4 C45_4 1_555 1_555
H24_4 C41_4 1_555 1_555
C42_4 C41_4 1_555 1_555
H30_4 C52_4 1_555 1_555

#END
