
###############################################################################
#
# This file contains modified crystal structure data generated from the
# MOF subset of the Cambridge Structural Database (CSD) v543 
# hosted by the Cambridge Crystallographic Data Centre (CCDC).
#
# This work is licensed under the Creative Commons
# Attribution-NonCommercial-ShareAlike 4.0 International License.
# To view a copy of this license, visit
# http://creativecommons.org/licenses/by-nc-sa/4.0/
# or send a letter to
# Creative Commons, PO Box 1866, Mountain View, CA 94042, USA.
#
# CIF created using the CSD Python API on 29 September 2022
# The structure has been converted into the P1 space group
# The structure has a 3D framework
# The original CSD entry EGATOW is in the tetragonal crystal system
# The framework has been calculated to contain at least 10.0% void space
# The void calculation uses a probe of radius 1.32A, grid spacing 0.4
#
###############################################################################

data_EGATOW
_chemical_formula_moiety         '(C120 H120 Co8 N8 O76 S8 Zn8)n'
_symmetry_cell_setting           triclinic
_symmetry_space_group_name_H-M   'P 1'
_symmetry_Int_Tables_number      1
_space_group_name_Hall           'P 1'
loop_
_symmetry_equiv_pos_site_id
_symmetry_equiv_pos_as_xyz
1 x,y,z
_cell_length_a                   18.7107(3)
_cell_length_b                   18.7107(3)
_cell_length_c                   11.7603(2)
_cell_angle_alpha                90
_cell_angle_beta                 90
_cell_angle_gamma                90
_cell_volume                     4117.17
loop_
_atom_site_label
_atom_site_type_symbol
_atom_site_fract_x
_atom_site_fract_y
_atom_site_fract_z
C14 C 0.0650(7) 0.2831(8) 0.1349(15)
H10 H 0.0752 0.2509 0.0712
H11 H 0.0892 0.2657 0.2033
H12 H 0.0822 0.3312 0.1167
Zn1 Zn 0.71429(7) 0.21838(7) 0.35614(17)
Co1 Co 0.84611(8) 0.17832(8) 0.18206(19)
S1 S 0.96935(18) 0.28592(19) 0.1597(3)
O1 O 0.8129(4) 0.2851(4) 0.1732(9)
O2 O 0.7080(4) 0.3048(5) 0.2596(8)
O6 O 0.6979(4) 0.6546(4) 0.0287(7)
O7 O 0.7626(5) 0.6456(4) 0.2402(7)
O8 O 0.8004(7) 0.5646(5) 0.3612(10)
O9 O 0.8879(4) 0.0746(4) 0.1925(9)
O10 O 0.9438(4) 0.2126(4) 0.1223(8)
C1 C 0.7591(5) 0.3217(5) 0.1899(11)
C2 C 0.7542(5) 0.3953(5) 0.1406(9)
C3 C 0.7380(6) 0.4113(6) 0.0285(10)
C5 C 0.7518(6) 0.5376(6) 0.0610(10)
C6 C 0.7668(5) 0.5245(5) 0.1771(12)
C7 C 0.7681(6) 0.4530(6) 0.2129(11)
H2 H 0.7790 0.4433 0.2902
C9 C 0.7482(6) 0.6106(6) 0.0075(10)
C10 C 0.7792(7) 0.5801(7) 0.2667(12)
C11 C 0.8936(6) 0.0385(7) 0.2810(12)
H3 H 0.8823 0.0616 0.3506
C15 C 0.9470(9) 0.3464(8) 0.0511(13)
H14 H 0.9378 0.3936 0.0842
H15 H 0.9040 0.3296 0.0116
Zn4 Zn 0.78571(7) 0.71838(7) 0.35614(17)
Co3 Co 0.65389(8) 0.67832(8) 0.18206(19)
O11 O 0.7910(4) 0.2226(5) 0.4688(8)
O12 O 0.8774(4) 0.1947(5) 0.3469(9)
O13 O 0.6205(5) 0.2075(5) 0.4270(7)
O14 O 0.8021(4) 0.1546(4) 0.0287(7)
O15 O 0.7374(5) 0.1456(4) 0.2402(7)
O3 O 0.7226(5) 0.2910(4) 0.9688(8)
O4 O 0.6947(5) 0.3774(4) 0.8469(9)
O5 O 0.7925(5) 0.6205(5) 0.9270(7)
C4 C 0.7379(6) 0.4820(6) 0.9881(11)
H1 H 0.7283 0.4913 0.9102
C8 C 0.7179(5) 0.3552(6) 0.9423(9)
H13 H 0.9866 0.3498 0.9970
Zn2 Zn 0.71838(7) 0.21429(7) 0.85614(17)
Zn3 Zn 0.78162(7) 0.71429(7) 0.85614(17)
Co2 Co 0.67832(8) 0.34611(8) 0.68206(19)
Co1_2 Co 0.82168(8) 0.84611(8) 0.68206(19)
S1_2 S 0.71408(19) 0.96935(18) 0.6597(3)
O1_2 O 0.7149(4) 0.8129(4) 0.6732(9)
O2_2 O 0.6952(5) 0.7080(4) 0.7596(8)
O3_2 O 0.7090(4) 0.7226(5) 0.4688(8)
O4_2 O 0.6226(4) 0.6947(5) 0.3469(9)
O5_2 O 0.3795(5) 0.7925(5) 0.4270(7)
O6_2 O 0.3454(4) 0.6979(4) 0.5287(7)
O7_2 O 0.3544(4) 0.7626(5) 0.7402(7)
O8_2 O 0.4354(5) 0.8004(7) 0.8612(10)
O9_2 O 0.9254(4) 0.8879(4) 0.6925(9)
O10_2 O 0.7874(4) 0.9438(4) 0.6223(8)
C1_2 C 0.6783(5) 0.7591(5) 0.6899(11)
C2_2 C 0.6047(5) 0.7542(5) 0.6406(9)
C3_2 C 0.5887(6) 0.7380(6) 0.5285(10)
C4_2 C 0.5180(6) 0.7379(6) 0.4881(11)
H1_2 H 0.5087 0.7283 0.4102
C5_2 C 0.4624(6) 0.7518(6) 0.5610(10)
C6_2 C 0.4755(5) 0.7668(5) 0.6771(12)
C7_2 C 0.5470(6) 0.7681(6) 0.7129(11)
H2_2 H 0.5567 0.7790 0.7902
C8_2 C 0.6448(6) 0.7179(5) 0.4423(9)
C9_2 C 0.3894(6) 0.7482(6) 0.5075(10)
C10_2 C 0.4199(7) 0.7792(7) 0.7667(12)
C11_2 C 0.9615(7) 0.8936(6) 0.7810(12)
H3_2 H 0.9384 0.8823 0.8506
C15_2 C 0.6536(8) 0.9470(9) 0.5511(13)
H13_2 H 0.6502 0.9866 0.4970
H14_2 H 0.6064 0.9378 0.5842
H15_2 H 0.6704 0.9040 0.5116
Zn3_2 Zn 0.28571(7) 0.78162(7) 0.35614(17)
Zn4_2 Zn 0.28162(7) 0.78571(7) 0.85614(17)
Co3_2 Co 0.32168(8) 0.65389(8) 0.68206(19)
O11_2 O 0.7774(5) 0.7910(4) 0.9688(8)
O12_2 O 0.8053(5) 0.8774(4) 0.8469(9)
O14_2 O 0.8454(4) 0.8021(4) 0.5287(7)
O15_2 O 0.8544(4) 0.7374(5) 0.7402(7)
Co1_3 Co 0.15389(8) 0.82168(8) 0.18206(19)
S1_3 S 0.03065(18) 0.71408(19) 0.1597(3)
O1_3 O 0.1871(4) 0.7149(4) 0.1732(9)
O2_3 O 0.2920(4) 0.6952(5) 0.2596(8)
O6_3 O 0.3021(4) 0.3454(4) 0.0287(7)
O7_3 O 0.2374(5) 0.3544(4) 0.2402(7)
O8_3 O 0.1996(7) 0.4354(5) 0.3612(10)
O9_3 O 0.1121(4) 0.9254(4) 0.1925(9)
O10_3 O 0.0562(4) 0.7874(4) 0.1223(8)
C1_3 C 0.2409(5) 0.6783(5) 0.1899(11)
C2_3 C 0.2458(5) 0.6047(5) 0.1406(9)
C3_3 C 0.2620(6) 0.5887(6) 0.0285(10)
C5_3 C 0.2482(6) 0.4624(6) 0.0610(10)
C6_3 C 0.2332(5) 0.4755(5) 0.1771(12)
C7_3 C 0.2319(6) 0.5470(6) 0.2129(11)
H2_3 H 0.2210 0.5567 0.2902
C9_3 C 0.2518(6) 0.3894(6) 0.0075(10)
C10_3 C 0.2208(7) 0.4199(7) 0.2667(12)
C11_3 C 0.1064(6) 0.9615(7) 0.2810(12)
H3_3 H 0.1177 0.9384 0.3506
C15_3 C 0.0530(9) 0.6536(8) 0.0511(13)
H14_3 H 0.0622 0.6064 0.0842
H15_3 H 0.0960 0.6704 0.0116
Zn4_3 Zn 0.21429(7) 0.28162(7) 0.35614(17)
Co3_3 Co 0.34611(8) 0.32168(8) 0.18206(19)
O11_3 O 0.2090(4) 0.7774(5) 0.4688(8)
O12_3 O 0.1226(4) 0.8053(5) 0.3469(9)
O14_3 O 0.1979(4) 0.8454(4) 0.0287(7)
O15_3 O 0.2626(5) 0.8544(4) 0.2402(7)
O3_3 O 0.2774(5) 0.7090(4) 0.9688(8)
O4_3 O 0.3053(5) 0.6226(4) 0.8469(9)
O5_3 O 0.2075(5) 0.3795(5) 0.9270(7)
C4_3 C 0.2621(6) 0.5180(6) 0.9881(11)
H1_3 H 0.2717 0.5087 0.9102
C8_3 C 0.2821(5) 0.6448(6) 0.9423(9)
H13_3 H 0.0134 0.6502 0.9970
Zn3_3 Zn 0.21838(7) 0.28571(7) 0.85614(17)
Co1_4 Co 0.17832(8) 0.15389(8) 0.68206(19)
S1_4 S 0.28592(19) 0.03065(18) 0.6597(3)
O1_4 O 0.2851(4) 0.1871(4) 0.6732(9)
O2_4 O 0.3048(5) 0.2920(4) 0.7596(8)
O3_4 O 0.2910(4) 0.2774(5) 0.4688(8)
O4_4 O 0.3774(4) 0.3053(5) 0.3469(9)
O6_4 O 0.6546(4) 0.3021(4) 0.5287(7)
O7_4 O 0.6456(4) 0.2374(5) 0.7402(7)
O8_4 O 0.5646(5) 0.1996(7) 0.8612(10)
O9_4 O 0.0746(4) 0.1121(4) 0.6925(9)
O10_4 O 0.2126(4) 0.0562(4) 0.6223(8)
C1_4 C 0.3217(5) 0.2409(5) 0.6899(11)
C2_4 C 0.3953(5) 0.2458(5) 0.6406(9)
C3_4 C 0.4113(6) 0.2620(6) 0.5285(10)
C4_4 C 0.4820(6) 0.2621(6) 0.4881(11)
H1_4 H 0.4913 0.2717 0.4102
C5_4 C 0.5376(6) 0.2482(6) 0.5610(10)
C6_4 C 0.5245(5) 0.2332(5) 0.6771(12)
C7_4 C 0.4530(6) 0.2319(6) 0.7129(11)
H2_4 H 0.4433 0.2210 0.7902
C8_4 C 0.3552(6) 0.2821(5) 0.4423(9)
C9_4 C 0.6106(6) 0.2518(6) 0.5075(10)
C10_4 C 0.5801(7) 0.2208(7) 0.7667(12)
C11_4 C 0.0385(7) 0.1064(6) 0.7810(12)
H3_4 H 0.0616 0.1177 0.8506
C15_4 C 0.3464(8) 0.0530(9) 0.5511(13)
H13_4 H 0.3498 0.0134 0.4970
H14_4 H 0.3936 0.0622 0.5842
H15_4 H 0.3296 0.0960 0.5116
O11_4 O 0.2226(5) 0.2090(4) 0.9688(8)
O12_4 O 0.1947(5) 0.1226(4) 0.8469(9)
O14_4 O 0.1546(4) 0.1979(4) 0.5287(7)
O15_4 O 0.1456(4) 0.2626(5) 0.7402(7)
O8_5 O 0.6996(7) 0.0646(5) 0.3612(10)
C5_5 C 0.7482(6) 0.0376(6) 0.0610(10)
C6_5 C 0.7332(5) 0.0245(5) 0.1771(12)
C9_5 C 0.7518(6) 0.1106(6) 0.0075(10)
C10_5 C 0.7208(7) 0.0801(7) 0.2667(12)
O5_4 O 0.7075(5) 0.1205(5) 0.9270(7)
S1_5 S 0.53065(18) 0.78592(19) 0.1597(3)
O1_5 O 0.6871(4) 0.7851(4) 0.1732(9)
O2_5 O 0.7920(4) 0.8048(5) 0.2596(8)
O9_5 O 0.6121(4) 0.5746(4) 0.1925(9)
O10_5 O 0.5562(4) 0.7126(4) 0.1223(8)
N1 N 0.5863(6) 0.4718(6) 0.2870(11)
C1_5 C 0.7409(5) 0.8217(5) 0.1899(11)
C2_5 C 0.7458(5) 0.8953(5) 0.1406(9)
C3_5 C 0.7620(6) 0.9113(6) 0.0285(10)
C7_5 C 0.7319(6) 0.9530(6) 0.2129(11)
H2_5 H 0.7210 0.9433 0.2902
C11_5 C 0.6064(6) 0.5385(7) 0.2810(12)
H3_5 H 0.6177 0.5616 0.3506
C12 C 0.5712(8) 0.4319(7) 0.1811(17)
H4 H 0.5544 0.4651 0.1225
H5 H 0.6149 0.4083 0.1549
H6 H 0.5343 0.3959 0.1958
C13 C 0.5853(8) 0.4331(10) 0.3925(15)
H7 H 0.5949 0.3824 0.3778
H8 H 0.6221 0.4523 0.4434
H9 H 0.5383 0.4381 0.4283
C14_2 C 0.4350(7) 0.7831(8) 0.1349(15)
H10_2 H 0.4248 0.7509 0.0712
H11_2 H 0.4108 0.7657 0.2033
H12_2 H 0.4178 0.8312 0.1167
C15_5 C 0.5530(9) 0.8464(8) 0.0511(13)
H14_5 H 0.5622 0.8936 0.0842
H15_5 H 0.5960 0.8296 0.0116
O13_2 O 0.8795(5) 0.7075(5) 0.4270(7)
C4_5 C 0.7621(6) 0.9820(6) 0.9881(11)
H1_5 H 0.7717 0.9913 0.9102
C8_5 C 0.7821(5) 0.8552(6) 0.9423(9)
H13_5 H 0.5134 0.8498 0.9970
O5_5 O 0.1205(5) 0.2925(5) 0.4270(7)
O8_6 O 0.0646(5) 0.3004(7) 0.8612(10)
C5_6 C 0.0376(6) 0.2518(6) 0.5610(10)
C6_6 C 0.0245(5) 0.2668(5) 0.6771(12)
C9_6 C 0.1106(6) 0.2482(6) 0.5075(10)
C10_6 C 0.0801(7) 0.2792(7) 0.7667(12)
S1_6 S 0.78592(19) 0.46935(18) 0.6597(3)
O1_6 O 0.7851(4) 0.3129(4) 0.6732(9)
O2_6 O 0.8048(5) 0.2080(4) 0.7596(8)
O9_6 O 0.5746(4) 0.3879(4) 0.6925(9)
O10_6 O 0.7126(4) 0.4438(4) 0.6223(8)
N1_2 N 0.4718(6) 0.4137(6) 0.7870(11)
C1_6 C 0.8217(5) 0.2591(5) 0.6899(11)
C2_6 C 0.8953(5) 0.2542(5) 0.6406(9)
C3_6 C 0.9113(6) 0.2380(6) 0.5285(10)
C4_6 C 0.9820(6) 0.2379(6) 0.4881(11)
H1_6 H 0.9913 0.2283 0.4102
C7_6 C 0.9530(6) 0.2681(6) 0.7129(11)
H2_6 H 0.9433 0.2790 0.7902
C8_6 C 0.8552(6) 0.2179(5) 0.4423(9)
C11_6 C 0.5385(7) 0.3936(6) 0.7810(12)
H3_6 H 0.5616 0.3823 0.8506
C12_2 C 0.4319(7) 0.4288(8) 0.6811(17)
H4_2 H 0.4651 0.4456 0.6225
H5_2 H 0.4083 0.3851 0.6549
H6_2 H 0.3959 0.4657 0.6958
C13_2 C 0.4331(10) 0.4147(8) 0.8925(15)
H7_2 H 0.3824 0.4051 0.8778
H8_2 H 0.4523 0.3779 0.9434
H9_2 H 0.4381 0.4617 0.9283
C14_3 C 0.7831(8) 0.5650(7) 0.6349(15)
H10_3 H 0.7509 0.5752 0.5712
H11_3 H 0.7657 0.5892 0.7033
H12_3 H 0.8312 0.5822 0.6167
C15_6 C 0.8464(8) 0.4470(9) 0.5511(13)
H13_6 H 0.8498 0.4866 0.4970
H14_6 H 0.8936 0.4378 0.5842
H15_6 H 0.8296 0.4040 0.5116
S1_7 S 0.46935(18) 0.21408(19) 0.1597(3)
O1_7 O 0.3129(4) 0.2149(4) 0.1732(9)
O2_7 O 0.2080(4) 0.1952(5) 0.2596(8)
O9_7 O 0.3879(4) 0.4254(4) 0.1925(9)
O10_7 O 0.4438(4) 0.2874(4) 0.1223(8)
N1_3 N 0.4137(6) 0.5282(6) 0.2870(11)
C1_7 C 0.2591(5) 0.1783(5) 0.1899(11)
C2_7 C 0.2542(5) 0.1047(5) 0.1406(9)
C3_7 C 0.2380(6) 0.0887(6) 0.0285(10)
C7_7 C 0.2681(6) 0.0470(6) 0.2129(11)
H2_7 H 0.2790 0.0567 0.2902
C11_7 C 0.3936(6) 0.4615(7) 0.2810(12)
H3_7 H 0.3823 0.4384 0.3506
C12_3 C 0.4288(8) 0.5681(7) 0.1811(17)
H4_3 H 0.4456 0.5349 0.1225
H5_3 H 0.3851 0.5917 0.1549
H6_3 H 0.4657 0.6041 0.1958
C13_3 C 0.4147(8) 0.5669(10) 0.3925(15)
H7_3 H 0.4051 0.6176 0.3778
H8_3 H 0.3779 0.5477 0.4434
H9_3 H 0.4617 0.5619 0.4283
C14_4 C 0.5650(7) 0.2169(8) 0.1349(15)
H10_4 H 0.5752 0.2491 0.0712
H11_4 H 0.5892 0.2343 0.2033
H12_4 H 0.5822 0.1688 0.1167
C15_7 C 0.4470(9) 0.1536(8) 0.0511(13)
H14_7 H 0.4378 0.1064 0.0842
H15_7 H 0.4040 0.1704 0.0116
C4_7 C 0.2379(6) 0.0180(6) 0.9881(11)
H1_7 H 0.2283 0.0087 0.9102
C8_7 C 0.2179(5) 0.1448(6) 0.9423(9)
H13_7 H 0.4866 0.1502 0.9970
O8_7 O 0.3004(7) 0.9354(5) 0.3612(10)
C5_7 C 0.2518(6) 0.9624(6) 0.0610(10)
C6_7 C 0.2668(5) 0.9755(5) 0.1771(12)
C9_7 C 0.2482(6) 0.8894(6) 0.0075(10)
C10_7 C 0.2792(7) 0.9199(7) 0.2667(12)
O5_6 O 0.2925(5) 0.8795(5) 0.9270(7)
S1_8 S 0.21408(19) 0.53065(18) 0.6597(3)
O1_8 O 0.2149(4) 0.6871(4) 0.6732(9)
O2_8 O 0.1952(5) 0.7920(4) 0.7596(8)
O9_8 O 0.4254(4) 0.6121(4) 0.6925(9)
O10_8 O 0.2874(4) 0.5562(4) 0.6223(8)
N1_4 N 0.5282(6) 0.5863(6) 0.7870(11)
C1_8 C 0.1783(5) 0.7409(5) 0.6899(11)
C2_8 C 0.1047(5) 0.7458(5) 0.6406(9)
C3_8 C 0.0887(6) 0.7620(6) 0.5285(10)
C4_8 C 0.0180(6) 0.7621(6) 0.4881(11)
H1_8 H 0.0087 0.7717 0.4102
C7_8 C 0.0470(6) 0.7319(6) 0.7129(11)
H2_8 H 0.0567 0.7210 0.7902
C8_8 C 0.1448(6) 0.7821(5) 0.4423(9)
C11_8 C 0.4615(7) 0.6064(6) 0.7810(12)
H3_8 H 0.4384 0.6177 0.8506
C12_4 C 0.5681(7) 0.5712(8) 0.6811(17)
H4_4 H 0.5349 0.5544 0.6225
H5_4 H 0.5917 0.6149 0.6549
H6_4 H 0.6041 0.5343 0.6958
C13_4 C 0.5669(10) 0.5853(8) 0.8925(15)
H7_4 H 0.6176 0.5949 0.8778
H8_4 H 0.5477 0.6221 0.9434
H9_4 H 0.5619 0.5383 0.9283
C14_5 C 0.2169(8) 0.4350(7) 0.6349(15)
H10_5 H 0.2491 0.4248 0.5712
H11_5 H 0.2343 0.4108 0.7033
H12_5 H 0.1688 0.4178 0.6167
C15_8 C 0.1536(8) 0.5530(9) 0.5511(13)
H13_8 H 0.1502 0.5134 0.4970
H14_8 H 0.1064 0.5622 0.5842
H15_8 H 0.1704 0.5960 0.5116
O8_8 O 0.9354(5) 0.6996(7) 0.8612(10)
C5_8 C 0.9624(6) 0.7482(6) 0.5610(10)
C6_8 C 0.9755(5) 0.7332(5) 0.6771(12)
C9_8 C 0.8894(6) 0.7518(6) 0.5075(10)
C10_8 C 0.9199(7) 0.7208(7) 0.7667(12)
N1_5 N 0.9137(6) 0.9718(6) 0.2870(11)
C12_5 C 0.9288(8) 0.9319(7) 0.1811(17)
H4_5 H 0.9456 0.9651 0.1225
H5_5 H 0.8851 0.9083 0.1549
H6_5 H 0.9657 0.8959 0.1958
C13_5 C 0.9147(8) 0.9331(10) 0.3925(15)
H7_5 H 0.9051 0.8824 0.3778
H8_5 H 0.8779 0.9523 0.4434
H9_5 H 0.9617 0.9381 0.4283
N1_6 N 0.0282(6) 0.9137(6) 0.7870(11)
C12_6 C 0.0681(7) 0.9288(8) 0.6811(17)
H4_6 H 0.0349 0.9456 0.6225
H5_6 H 0.0917 0.8851 0.6549
H6_6 H 0.1041 0.9657 0.6958
C13_6 C 0.0669(10) 0.9147(8) 0.8925(15)
H7_6 H 0.1176 0.9051 0.8778
H8_6 H 0.0477 0.8779 0.9434
H9_6 H 0.0619 0.9617 0.9283
C14_6 C 0.7169(8) 0.0650(7) 0.6349(15)
H10_6 H 0.7491 0.0752 0.5712
H11_6 H 0.7343 0.0892 0.7033
H12_6 H 0.6688 0.0822 0.6167
N1_7 N 0.0863(6) 0.0282(6) 0.2870(11)
C12_7 C 0.0712(8) 0.0681(7) 0.1811(17)
H4_7 H 0.0544 0.0349 0.1225
H5_7 H 0.1149 0.0917 0.1549
H6_7 H 0.0343 0.1041 0.1958
C13_7 C 0.0853(8) 0.0669(10) 0.3925(15)
H7_7 H 0.0949 0.1176 0.3778
H8_7 H 0.1221 0.0477 0.4434
H9_7 H 0.0383 0.0619 0.4283
C14_7 C 0.9350(7) 0.7169(8) 0.1349(15)
H10_7 H 0.9248 0.7491 0.0712
H11_7 H 0.9108 0.7343 0.2033
H12_7 H 0.9178 0.6688 0.1167
C14_8 C 0.2831(8) 0.9350(7) 0.6349(15)
H10_8 H 0.2509 0.9248 0.5712
H11_8 H 0.2657 0.9108 0.7033
H12_8 H 0.3312 0.9178 0.6167
N1_8 N 0.9718(6) 0.0863(6) 0.7870(11)
C12_8 C 0.9319(7) 0.0712(8) 0.6811(17)
H4_8 H 0.9651 0.0544 0.6225
H5_8 H 0.9083 0.1149 0.6549
H6_8 H 0.8959 0.0343 0.6958
C13_8 C 0.9331(10) 0.0853(8) 0.8925(15)
H7_8 H 0.8824 0.0949 0.8778
H8_8 H 0.9523 0.1221 0.9434
H9_8 H 0.9381 0.0383 0.9283
loop_
_geom_bond_atom_site_label_1
_geom_bond_atom_site_label_2
_geom_bond_site_symmetry_1
_geom_bond_site_symmetry_2
H10 C14 1_555 1_555
H11 C14 1_555 1_555
H12 C14 1_555 1_555
Zn1 O2 1_555 1_555
Co1 O1 1_555 1_555
S1 O10 1_555 1_555
O1 C1 1_555 1_555
O2 C1 1_555 1_555
O6 C9 1_555 1_555
O7 C10 1_555 1_555
O8 C10 1_555 1_555
O9 Co1 1_555 1_555
O10 Co1 1_555 1_555
C1 C2 1_555 1_555
C2 C3 1_555 1_555
C6 C5 1_555 1_555
C7 C2 1_555 1_555
H2 C7 1_555 1_555
C9 C5 1_555 1_555
C10 C6 1_555 1_555
C11 O9 1_555 1_555
H3 C11 1_555 1_555
C15 S1 1_555 1_555
H14 C15 1_555 1_555
H15 C15 1_555 1_555
Zn4 O7 1_555 1_555
Co3 O6 1_555 1_555
O11 Zn1 1_555 1_555
O12 Co1 1_555 1_555
O13 Zn1 1_555 1_555
O14 Co1 1_555 1_555
O15 Zn1 1_555 1_555
Co1 O15 1_555 1_555
O7 Co3 1_555 1_555
C6 C7 1_555 1_555
O3 C8 1_555 1_555
O4 C8 1_555 1_555
C4 H1 1_555 1_555
Zn2 O3 1_555 1_555
Zn3 O5 1_555 1_555
Co2 O4 1_555 1_555
Zn3 O2_2 1_555 1_555
Co1_2 O1_2 1_555 1_555
S1_2 O10_2 1_555 1_555
O1_2 C1_2 1_555 1_555
O2_2 C1_2 1_555 1_555
O3_2 C8_2 1_555 1_555
O4_2 C8_2 1_555 1_555
O5_2 C9_2 1_555 1_555
O6_2 C9_2 1_555 1_555
O7_2 C10_2 1_555 1_555
O8_2 C10_2 1_555 1_555
O9_2 Co1_2 1_555 1_555
O10_2 Co1_2 1_555 1_555
C1_2 C2_2 1_555 1_555
C2_2 C3_2 1_555 1_555
C3_2 C4_2 1_555 1_555
C4_2 H1_2 1_555 1_555
C5_2 C4_2 1_555 1_555
C6_2 C5_2 1_555 1_555
C7_2 C2_2 1_555 1_555
H2_2 C7_2 1_555 1_555
C8_2 C3_2 1_555 1_555
C9_2 C5_2 1_555 1_555
C10_2 C6_2 1_555 1_555
C11_2 O9_2 1_555 1_555
H3_2 C11_2 1_555 1_555
C15_2 S1_2 1_555 1_555
H13_2 C15_2 1_555 1_555
H14_2 C15_2 1_555 1_555
H15_2 C15_2 1_555 1_555
Zn4 O3_2 1_555 1_555
Zn3_2 O5_2 1_555 1_555
Zn4_2 O7_2 1_555 1_555
Co3 O4_2 1_555 1_555
Co3_2 O6_2 1_555 1_555
O11_2 Zn3 1_555 1_555
O12_2 Co1_2 1_555 1_555
O14_2 Co1_2 1_555 1_555
O15_2 Zn3 1_555 1_555
Co1_2 O15_2 1_555 1_555
O7_2 Co3_2 1_555 1_555
C6_2 C7_2 1_555 1_555
Zn3_2 O2_3 1_555 1_555
Co1_3 O1_3 1_555 1_555
S1_3 O10_3 1_555 1_555
O1_3 C1_3 1_555 1_555
O2_3 C1_3 1_555 1_555
O6_3 C9_3 1_555 1_555
O7_3 C10_3 1_555 1_555
O8_3 C10_3 1_555 1_555
O9_3 Co1_3 1_555 1_555
O10_3 Co1_3 1_555 1_555
C1_3 C2_3 1_555 1_555
C2_3 C3_3 1_555 1_555
C6_3 C5_3 1_555 1_555
C7_3 C2_3 1_555 1_555
H2_3 C7_3 1_555 1_555
C9_3 C5_3 1_555 1_555
C10_3 C6_3 1_555 1_555
C11_3 O9_3 1_555 1_555
H3_3 C11_3 1_555 1_555
C15_3 S1_3 1_555 1_555
H14_3 C15_3 1_555 1_555
H15_3 C15_3 1_555 1_555
Zn4_3 O7_3 1_555 1_555
Co3_3 O6_3 1_555 1_555
O11_3 Zn3_2 1_555 1_555
O12_3 Co1_3 1_555 1_555
O14_3 Co1_3 1_555 1_555
O15_3 Zn3_2 1_555 1_555
Co1_3 O15_3 1_555 1_555
O7_3 Co3_3 1_555 1_555
C6_3 C7_3 1_555 1_555
O3_3 C8_3 1_555 1_555
O4_3 C8_3 1_555 1_555
C4_3 H1_3 1_555 1_555
Zn4_2 O3_3 1_555 1_555
Zn3_3 O5_3 1_555 1_555
Co3_2 O4_3 1_555 1_555
Zn3_3 O2_4 1_555 1_555
Co1_4 O1_4 1_555 1_555
S1_4 O10_4 1_555 1_555
O1_4 C1_4 1_555 1_555
O2_4 C1_4 1_555 1_555
O3_4 C8_4 1_555 1_555
O4_4 C8_4 1_555 1_555
O13 C9_4 1_555 1_555
O6_4 C9_4 1_555 1_555
O7_4 C10_4 1_555 1_555
O8_4 C10_4 1_555 1_555
O9_4 Co1_4 1_555 1_555
O10_4 Co1_4 1_555 1_555
C1_4 C2_4 1_555 1_555
C2_4 C3_4 1_555 1_555
C3_4 C4_4 1_555 1_555
C4_4 H1_4 1_555 1_555
C5_4 C4_4 1_555 1_555
C6_4 C5_4 1_555 1_555
C7_4 C2_4 1_555 1_555
H2_4 C7_4 1_555 1_555
C8_4 C3_4 1_555 1_555
C9_4 C5_4 1_555 1_555
C10_4 C6_4 1_555 1_555
C11_4 O9_4 1_555 1_555
H3_4 C11_4 1_555 1_555
C15_4 S1_4 1_555 1_555
H13_4 C15_4 1_555 1_555
H14_4 C15_4 1_555 1_555
H15_4 C15_4 1_555 1_555
Zn4_3 O3_4 1_555 1_555
Zn2 O7_4 1_555 1_555
Co3_3 O4_4 1_555 1_555
Co2 O6_4 1_555 1_555
O11_4 Zn3_3 1_555 1_555
O12_4 Co1_4 1_555 1_555
O14_4 Co1_4 1_555 1_555
O15_4 Zn3_3 1_555 1_555
Co1_4 O15_4 1_555 1_555
O7_4 Co2 1_555 1_555
C6_4 C7_4 1_555 1_555
O14 C9_5 1_555 1_555
O15 C10_5 1_555 1_555
O8_5 C10_5 1_555 1_555
C6_5 C5_5 1_555 1_555
C9_5 C5_5 1_555 1_555
C10_5 C6_5 1_555 1_555
Zn2 O5_4 1_555 1_555
Zn4 O2_5 1_555 1_555
Co3 O1_5 1_555 1_555
S1_5 O10_5 1_555 1_555
O1_5 C1_5 1_555 1_555
O2_5 C1_5 1_555 1_555
O9_5 Co3 1_555 1_555
O10_5 Co3 1_555 1_555
N1 C11_5 1_555 1_555
C1_5 C2_5 1_555 1_555
C2_5 C3_5 1_555 1_555
C7_5 C2_5 1_555 1_555
H2_5 C7_5 1_555 1_555
C11_5 O9_5 1_555 1_555
H3_5 C11_5 1_555 1_555
C12 N1 1_555 1_555
H4 C12 1_555 1_555
H5 C12 1_555 1_555
H6 C12 1_555 1_555
C13 N1 1_555 1_555
H7 C13 1_555 1_555
H8 C13 1_555 1_555
H9 C13 1_555 1_555
C14_2 S1_5 1_555 1_555
H10_2 C14_2 1_555 1_555
H11_2 C14_2 1_555 1_555
H12_2 C14_2 1_555 1_555
C15_5 S1_5 1_555 1_555
H14_5 C15_5 1_555 1_555
H15_5 C15_5 1_555 1_555
O13_2 Zn4 1_555 1_555
O11_2 C8_5 1_555 1_555
O12_2 C8_5 1_555 1_555
C4_5 H1_5 1_555 1_555
O5_5 C9_6 1_555 1_555
O14_4 C9_6 1_555 1_555
O15_4 C10_6 1_555 1_555
O8_6 C10_6 1_555 1_555
C6_6 C5_6 1_555 1_555
C9_6 C5_6 1_555 1_555
C10_6 C6_6 1_555 1_555
Zn4_3 O5_5 1_555 1_555
Zn2 O2_6 1_555 1_555
Co2 O1_6 1_555 1_555
S1_6 O10_6 1_555 1_555
O1_6 C1_6 1_555 1_555
O2_6 C1_6 1_555 1_555
O11 C8_6 1_555 1_555
O12 C8_6 1_555 1_555
O9_6 Co2 1_555 1_555
O10_6 Co2 1_555 1_555
N1_2 C11_6 1_555 1_555
C1_6 C2_6 1_555 1_555
C2_6 C3_6 1_555 1_555
C3_6 C4_6 1_555 1_555
C4_6 H1_6 1_555 1_555
C7_6 C2_6 1_555 1_555
H2_6 C7_6 1_555 1_555
C8_6 C3_6 1_555 1_555
C11_6 O9_6 1_555 1_555
H3_6 C11_6 1_555 1_555
C12_2 N1_2 1_555 1_555
H4_2 C12_2 1_555 1_555
H5_2 C12_2 1_555 1_555
H6_2 C12_2 1_555 1_555
C13_2 N1_2 1_555 1_555
H7_2 C13_2 1_555 1_555
H8_2 C13_2 1_555 1_555
H9_2 C13_2 1_555 1_555
C14_3 S1_6 1_555 1_555
H10_3 C14_3 1_555 1_555
H11_3 C14_3 1_555 1_555
H12_3 C14_3 1_555 1_555
C15_6 S1_6 1_555 1_555
H13_6 C15_6 1_555 1_555
H14_6 C15_6 1_555 1_555
H15_6 C15_6 1_555 1_555
Zn4_3 O2_7 1_555 1_555
Co3_3 O1_7 1_555 1_555
S1_7 O10_7 1_555 1_555
O1_7 C1_7 1_555 1_555
O2_7 C1_7 1_555 1_555
O9_7 Co3_3 1_555 1_555
O10_7 Co3_3 1_555 1_555
N1_3 C11_7 1_555 1_555
C1_7 C2_7 1_555 1_555
C2_7 C3_7 1_555 1_555
C7_7 C2_7 1_555 1_555
H2_7 C7_7 1_555 1_555
C11_7 O9_7 1_555 1_555
H3_7 C11_7 1_555 1_555
C12_3 N1_3 1_555 1_555
H4_3 C12_3 1_555 1_555
H5_3 C12_3 1_555 1_555
H6_3 C12_3 1_555 1_555
C13_3 N1_3 1_555 1_555
H7_3 C13_3 1_555 1_555
H8_3 C13_3 1_555 1_555
H9_3 C13_3 1_555 1_555
C14_4 S1_7 1_555 1_555
H10_4 C14_4 1_555 1_555
H11_4 C14_4 1_555 1_555
H12_4 C14_4 1_555 1_555
C15_7 S1_7 1_555 1_555
H14_7 C15_7 1_555 1_555
H15_7 C15_7 1_555 1_555
O11_4 C8_7 1_555 1_555
O12_4 C8_7 1_555 1_555
C4_7 H1_7 1_555 1_555
O14_3 C9_7 1_555 1_555
O15_3 C10_7 1_555 1_555
O8_7 C10_7 1_555 1_555
C6_7 C5_7 1_555 1_555
C9_7 C5_7 1_555 1_555
C10_7 C6_7 1_555 1_555
Zn4_2 O5_6 1_555 1_555
Zn4_2 O2_8 1_555 1_555
Co3_2 O1_8 1_555 1_555
S1_8 O10_8 1_555 1_555
O1_8 C1_8 1_555 1_555
O2_8 C1_8 1_555 1_555
O11_3 C8_8 1_555 1_555
O12_3 C8_8 1_555 1_555
O9_8 Co3_2 1_555 1_555
O10_8 Co3_2 1_555 1_555
N1_4 C11_8 1_555 1_555
C1_8 C2_8 1_555 1_555
C2_8 C3_8 1_555 1_555
C3_8 C4_8 1_555 1_555
C4_8 H1_8 1_555 1_555
C7_8 C2_8 1_555 1_555
H2_8 C7_8 1_555 1_555
C8_8 C3_8 1_555 1_555
C11_8 O9_8 1_555 1_555
H3_8 C11_8 1_555 1_555
C12_4 N1_4 1_555 1_555
H4_4 C12_4 1_555 1_555
H5_4 C12_4 1_555 1_555
H6_4 C12_4 1_555 1_555
C13_4 N1_4 1_555 1_555
H7_4 C13_4 1_555 1_555
H8_4 C13_4 1_555 1_555
H9_4 C13_4 1_555 1_555
C14_5 S1_8 1_555 1_555
H10_5 C14_5 1_555 1_555
H11_5 C14_5 1_555 1_555
H12_5 C14_5 1_555 1_555
C15_8 S1_8 1_555 1_555
H13_8 C15_8 1_555 1_555
H14_8 C15_8 1_555 1_555
H15_8 C15_8 1_555 1_555
O13_2 C9_8 1_555 1_555
O14_2 C9_8 1_555 1_555
O15_2 C10_8 1_555 1_555
O8_8 C10_8 1_555 1_555
C6_8 C5_8 1_555 1_555
C9_8 C5_8 1_555 1_555
C10_8 C6_8 1_555 1_555
C12_5 N1_5 1_555 1_555
H4_5 C12_5 1_555 1_555
H5_5 C12_5 1_555 1_555
H6_5 C12_5 1_555 1_555
C13_5 N1_5 1_555 1_555
H7_5 C13_5 1_555 1_555
H8_5 C13_5 1_555 1_555
H9_5 C13_5 1_555 1_555
C12_6 N1_6 1_555 1_555
H4_6 C12_6 1_555 1_555
H5_6 C12_6 1_555 1_555
H6_6 C12_6 1_555 1_555
C13_6 N1_6 1_555 1_555
H7_6 C13_6 1_555 1_555
H8_6 C13_6 1_555 1_555
H9_6 C13_6 1_555 1_555
H10_6 C14_6 1_555 1_555
H11_6 C14_6 1_555 1_555
H12_6 C14_6 1_555 1_555
C12_7 N1_7 1_555 1_555
H4_7 C12_7 1_555 1_555
H5_7 C12_7 1_555 1_555
H6_7 C12_7 1_555 1_555
C13_7 N1_7 1_555 1_555
H7_7 C13_7 1_555 1_555
H8_7 C13_7 1_555 1_555
H9_7 C13_7 1_555 1_555
H10_7 C14_7 1_555 1_555
H11_7 C14_7 1_555 1_555
H12_7 C14_7 1_555 1_555
H10_8 C14_8 1_555 1_555
H11_8 C14_8 1_555 1_555
H12_8 C14_8 1_555 1_555
C12_8 N1_8 1_555 1_555
H4_8 C12_8 1_555 1_555
H5_8 C12_8 1_555 1_555
H6_8 C12_8 1_555 1_555
C13_8 N1_8 1_555 1_555
H7_8 C13_8 1_555 1_555
H8_8 C13_8 1_555 1_555
H9_8 C13_8 1_555 1_555

#END
