
###############################################################################
#
# This file contains modified crystal structure data generated from the
# MOF subset of the Cambridge Structural Database (CSD) v543 
# hosted by the Cambridge Crystallographic Data Centre (CCDC).
#
# This work is licensed under the Creative Commons
# Attribution-NonCommercial-ShareAlike 4.0 International License.
# To view a copy of this license, visit
# http://creativecommons.org/licenses/by-nc-sa/4.0/
# or send a letter to
# Creative Commons, PO Box 1866, Mountain View, CA 94042, USA.
#
# CIF created using the CSD Python API on 29 September 2022
# The structure has been converted into the P1 space group
# The structure has a 3D framework
# The original CSD entry EGAWUH is in the monoclinic crystal system
# The framework has been calculated to contain at least 10.0% void space
# The void calculation uses a probe of radius 1.32A, grid spacing 0.4
#
###############################################################################

data_EGAWUH
_chemical_formula_moiety         '(C256 H360 Cd22 Mn40 N16 O192)n'
_symmetry_cell_setting           triclinic
_symmetry_space_group_name_H-M   'P 1'
_symmetry_Int_Tables_number      1
_space_group_name_Hall           'P 1'
loop_
_symmetry_equiv_pos_site_id
_symmetry_equiv_pos_as_xyz
1 x,y,z
_cell_length_a                   34.300(3)
_cell_length_b                   21.9136(18)
_cell_length_c                   18.8437(16)
_cell_angle_alpha                90
_cell_angle_beta                 98.617(4)
_cell_angle_gamma                90
_cell_volume                     14003.7
loop_
_atom_site_label
_atom_site_type_symbol
_atom_site_fract_x
_atom_site_fract_y
_atom_site_fract_z
N5 N 0.0478(4) 0.0393(6) 0.7922(7)
Cd3 Cd 0.0000 0.96853(7) 0.7500
O48 O 0.0213(6) 0.9664(9) 0.6315(10)
H89 H 0.0422 0.9907 0.6224
H90 H 0.0084 0.9413 0.5956
Cd1 Cd 0.84034(3) 0.27981(5) 0.42191(5)
Cd2 Cd 0.79219(4) 0.73268(5) 0.43980(6)
Mn1 Mn 0.73134(5) 0.29402(7) 0.29893(8)
Mn2 Mn 0.81795(5) 0.34203(8) 0.74881(9)
Mn3 Mn 0.81707(6) 0.30008(9) 0.58166(10)
Mn4 Mn 0.73530(6) 0.34697(9) 0.64079(10)
Mn5 Mn 0.73611(6) 0.30838(9) 0.47915(10)
O1 O 0.8005(3) 0.3396(3) 0.4888(4)
O2 O 0.8777(4) 0.3672(6) 0.7349(5)
H1 H 0.8864 0.4071 0.7434
H2 H 0.8946 0.3380 0.7204
O3 O 0.7272(2) 0.3789(4) 0.5346(4)
O4 O 0.8225(3) 0.1873(4) 0.3660(5)
O5 O 0.7995(2) 0.3688(4) 0.6339(4)
O6 O 0.8775(3) 0.3355(5) 0.5925(5)
O7 O 0.8942(3) 0.3256(5) 0.4861(6)
O8 O 0.8268(2) 0.2575(4) 0.6729(4)
O9 O 0.8281(2) 0.2284(4) 0.5275(4)
O10 O 0.7820(2) 0.1537(4) 0.6105(4)
O11 O 0.8353(3) 0.7022(4) 0.3469(6)
O12 O 0.7542(3) 0.2668(4) 0.5657(5)
O13 O 0.8579(3) 0.7522(5) 0.4424(7)
O14 O 0.7339(3) 0.4263(5) 0.7024(5)
O15 O 0.7896(4) 0.4197(5) 0.7815(6)
O16 O 0.7919(3) 0.3168(4) 0.3246(5)
O17 O 0.8535(4) 0.3491(7) 0.3353(7)
O18 O 0.7391(3) 0.2029(4) 0.2691(4)
O19 O 0.7975(3) 0.8561(5) 0.2761(5)
O20 O 0.7769(4) 0.8131(6) 0.3652(6)
O21 O 0.8853(4) 0.2027(7) 0.3911(8)
O22 O 0.7364(4) 0.6901(6) 0.3667(6)
N1 N 0.8025(3) 0.6348(5) 0.4825(6)
N2 N 0.9522(4) 0.0393(6) 0.7078(7)
C1 C 0.7959(4) 0.5112(6) 0.5178(7)
C2 C 0.7419(4) 0.4363(6) 0.5205(7)
H3 H 0.7315 0.4658 0.5511
H4 H 0.7318 0.4469 0.4712
C3 C 0.8070(4) 0.4275(5) 0.6092(7)
H5 H 0.8353 0.4324 0.6123
H6 H 0.7980 0.4572 0.6413
C4 C 0.8045(4) 0.4038(6) 0.4789(7)
H7 H 0.7918 0.4143 0.4310
H8 H 0.8324 0.4132 0.4817
C5 C 0.7878(4) 0.4431(6) 0.5313(7)
C6 C 0.9000(7) 0.3453(14) 0.5503(15)
C7 C 0.8178(5) 0.5931(7) 0.4497(8)
H9 H 0.8314 0.6042 0.4126
C8 C 0.8153(5) 0.5288(7) 0.4666(8)
H10 H 0.8275 0.5001 0.4411
C9 C 0.8592(5) 0.1880(7) 0.5539(8)
H11 H 0.8841 0.2095 0.5561
H12 H 0.8594 0.1544 0.5205
C10 C 0.8177(3) 0.1228(6) 0.6233(7)
H13 H 0.8182 0.0932 0.5852
H14 H 0.8185 0.1002 0.6678
C11 C 0.8575(4) 0.2149(6) 0.6862(7)
H15 H 0.8569 0.1966 0.7329
H16 H 0.8824 0.2363 0.6883
C12 C 0.8560(4) 0.1622(6) 0.6287(7)
C13 C 0.8907(4) 0.1203(6) 0.6569(8)
C14 C 0.9245(6) 0.0535(8) 0.7468(8)
H17 H 0.9268 0.0385 0.7934
C15 C 0.8911(5) 0.0911(8) 0.7202(9)
H18 H 0.8702 0.0952 0.7461
C16 C 0.9505(5) 0.0691(9) 0.6472(12)
H19 H 0.9706 0.0627 0.6200
C17 C 0.9208(4) 0.1096(7) 0.6205(9)
H20 H 0.9218 0.1295 0.5772
C18 C 0.8647(9) 0.7276(10) 0.3880(10)
C19 C 0.9038(7) 0.7295(11) 0.3694(14)
H21 H 0.9213 0.7492 0.4071
H22 H 0.9035 0.7518 0.3255
H23 H 0.9129 0.6886 0.3633
C20 C 0.9366(7) 0.3756(13) 0.5802(14)
H24 H 0.9353 0.3875 0.6289
H25 H 0.9403 0.4111 0.5522
H26 H 0.9583 0.3481 0.5794
C21 C 0.7860(5) 0.6148(7) 0.5373(8)
H27 H 0.7768 0.6442 0.5662
C22 C 0.7574(6) 0.4399(7) 0.7626(8)
C23 C 0.7813(5) 0.5559(7) 0.5554(8)
H28 H 0.7680 0.5463 0.5936
C24 C 0.8179(6) 0.3464(9) 0.2999(10)
C25 C 0.7423(6) 0.4905(10) 0.8078(11)
H29 H 0.7612 0.4975 0.8501
H30 H 0.7176 0.4783 0.8216
H31 H 0.7387 0.5274 0.7801
C26 C 0.8073(8) 0.3798(11) 0.2300(10)
H32 H 0.8142 0.4221 0.2366
H33 H 0.7794 0.3763 0.2140
H34 H 0.8214 0.3624 0.1946
C27 C 0.8185(8) 0.9008(11) 0.3914(11)
H35 H 0.8345 0.9263 0.3660
H36 H 0.8346 0.8826 0.4319
H37 H 0.7983 0.9251 0.4079
C28 C 0.7997(5) 0.8516(7) 0.3423(9)
C29 C 0.7112(6) 0.7058(10) 0.3939(14)
C30 C 0.8577(6) 0.1728(8) 0.3635(10)
C31 C 0.8661(7) 0.1108(11) 0.3357(12)
H38 H 0.8821 0.1149 0.2983
H39 H 0.8417 0.0912 0.3169
H40 H 0.8798 0.0867 0.3741
C32 C 0.6674(5) 0.6988(12) 0.3759(13)
H43 H 0.6611 0.6792 0.3301
H44 H 0.6552 0.7383 0.3741
H45 H 0.6579 0.6744 0.4120
O24 O 0.7255(6) 0.7311(8) 0.4562(11)
Cd4 Cd 0.65966(3) 0.22019(5) 0.57809(5)
Mn6 Mn 0.76866(5) 0.20598(7) 0.70107(8)
Mn7 Mn 0.68205(5) 0.15797(8) 0.25119(9)
Mn8 Mn 0.68293(6) 0.19992(9) 0.41834(10)
Mn9 Mn 0.76470(6) 0.15303(9) 0.35921(10)
Mn10 Mn 0.76389(6) 0.19162(9) 0.52085(10)
O25 O 0.6995(3) 0.1604(3) 0.5112(4)
O26 O 0.6223(4) 0.1328(6) 0.2651(5)
H46 H 0.6136 0.0929 0.2566
H47 H 0.6054 0.1620 0.2796
O27 O 0.7728(2) 0.1211(4) 0.4654(4)
O28 O 0.6775(3) 0.3127(4) 0.6340(5)
O29 O 0.7005(2) 0.1312(4) 0.3661(4)
O30 O 0.6225(3) 0.1645(5) 0.4075(5)
O31 O 0.6058(3) 0.1744(5) 0.5139(6)
O32 O 0.6732(2) 0.2425(4) 0.3271(4)
O33 O 0.6719(2) 0.2716(4) 0.4725(4)
O34 O 0.7180(2) 0.3463(4) 0.3895(4)
O36 O 0.7458(3) 0.2332(4) 0.4343(5)
O38 O 0.7661(3) 0.0737(5) 0.2976(5)
O39 O 0.7104(4) 0.0803(5) 0.2185(6)
O40 O 0.7081(3) 0.1832(4) 0.6754(5)
O41 O 0.6465(4) 0.1509(7) 0.6647(7)
O42 O 0.7609(3) 0.2971(4) 0.7309(4)
O45 O 0.6147(4) 0.2973(7) 0.6089(8)
N4 N 0.5478(4) 0.4607(6) 0.2922(7)
C34 C 0.7581(4) 0.0637(6) 0.4795(7)
H48 H 0.7685 0.0342 0.4489
H49 H 0.7682 0.0531 0.5288
C35 C 0.6930(4) 0.0725(5) 0.3908(7)
H50 H 0.6647 0.0676 0.3877
H51 H 0.7020 0.0428 0.3587
C36 C 0.6955(4) 0.0962(6) 0.5211(7)
H52 H 0.7082 0.0857 0.5690
H53 H 0.6676 0.0868 0.5183
C37 C 0.7122(4) 0.0569(6) 0.4687(7)
C38 C 0.6000(7) 0.1547(14) 0.4497(15)
C41 C 0.6408(5) 0.3120(7) 0.4461(8)
H56 H 0.6159 0.2905 0.4439
H57 H 0.6406 0.3456 0.4795
C42 C 0.6823(3) 0.3772(6) 0.3767(7)
H58 H 0.6818 0.4068 0.4148
H59 H 0.6815 0.3998 0.3322
C43 C 0.6425(4) 0.2851(6) 0.3138(7)
H60 H 0.6431 0.3034 0.2671
H61 H 0.6176 0.2637 0.3117
C44 C 0.6440(4) 0.3378(6) 0.3713(7)
C45 C 0.6093(4) 0.3797(6) 0.3431(8)
C46 C 0.5755(6) 0.4465(8) 0.2532(8)
H62 H 0.5732 0.4615 0.2066
C47 C 0.6089(5) 0.4089(8) 0.2798(9)
H63 H 0.6298 0.4048 0.2539
C48 C 0.5495(5) 0.4309(9) 0.3528(12)
H64 H 0.5294 0.4373 0.3800
C49 C 0.5792(4) 0.3904(7) 0.3795(9)
H65 H 0.5782 0.3705 0.4228
C52 C 0.5634(7) 0.1244(13) 0.4198(14)
H69 H 0.5647 0.1125 0.3711
H70 H 0.5597 0.0889 0.4478
H71 H 0.5417 0.1519 0.4206
C54 C 0.7426(6) 0.0601(7) 0.2374(8)
C56 C 0.6821(6) 0.1536(9) 0.7001(10)
C57 C 0.7577(6) 0.0095(10) 0.1922(11)
H74 H 0.7388 0.0025 0.1499
H75 H 0.7824 0.0217 0.1784
C58 C 0.6927(8) 0.1202(11) 0.7700(10)
H77 H 0.6858 0.0779 0.7634
H78 H 0.7206 0.1237 0.7860
H79 H 0.6786 0.1376 0.8054
C62 C 0.6423(6) 0.3272(8) 0.6365(10)
C63 C 0.6339(7) 0.3892(11) 0.6643(12)
H83 H 0.6179 0.3851 0.7017
H84 H 0.6583 0.4088 0.6831
H85 H 0.6202 0.4133 0.6259
Cd7 Cd 0.70781(4) 0.76732(5) 0.56020(6)
Cd8 Cd 0.5000 0.53147(7) 0.2500
Mn11 Mn 0.76866(5) 0.79402(7) 0.20107(8)
Mn14 Mn 0.81795(5) 0.65797(8) 0.24881(9)
O49 O 0.6647(3) 0.2022(4) 0.1531(6)
O50 O 0.8353(3) 0.2978(4) 0.8469(6)
O51 O 0.7025(3) 0.3561(5) 0.2239(5)
O52 O 0.7975(3) 0.1439(5) 0.7761(5)
O54 O 0.7745(6) 0.7689(8) 0.5438(11)
Cd3_2 Cd 1.0000 0.96853(7) 0.7500
O23 O 0.9787(6) 0.9664(9) 0.8685(10)
H41 H 0.9578 0.9907 0.8776
H42 H 0.9916 0.9413 0.9044
O35 O 0.6647(3) 0.7978(4) 0.6531(6)
O37 O 0.6421(3) 0.7478(5) 0.5576(7)
O43 O 0.7025(3) 0.6439(5) 0.7239(5)
O44 O 0.7231(4) 0.6869(6) 0.6348(6)
O46 O 0.7636(4) 0.8099(6) 0.6333(6)
N3 N 0.6975(3) 0.8652(5) 0.5175(6)
C33 C 0.7041(4) 0.9888(6) 0.4822(7)
C39 C 0.6822(5) 0.9069(7) 0.5503(8)
H54 H 0.6686 0.8958 0.5874
C40 C 0.6847(5) 0.9712(7) 0.5334(8)
H55 H 0.6725 0.9999 0.5589
C50 C 0.6353(9) 0.7724(10) 0.6120(10)
C51 C 0.5962(7) 0.7705(11) 0.6306(14)
H66 H 0.5787 0.7508 0.5929
H67 H 0.5965 0.7482 0.6745
H68 H 0.5871 0.8114 0.6367
C53 C 0.7140(5) 0.8852(7) 0.4627(8)
H72 H 0.7232 0.8558 0.4338
C55 C 0.7187(5) 0.9441(7) 0.4446(8)
H73 H 0.7320 0.9537 0.4064
H76 H 0.7613 0.9726 0.2199
C59 C 0.6815(8) 0.5992(11) 0.6086(11)
H80 H 0.6655 0.5737 0.6340
H81 H 0.6654 0.6174 0.5681
H82 H 0.7017 0.5749 0.5921
C60 C 0.7003(5) 0.6484(7) 0.6577(9)
C61 C 0.7888(6) 0.7942(10) 0.6061(14)
C64 C 0.8326(5) 0.8012(12) 0.6241(13)
H86 H 0.8389 0.8208 0.6699
H87 H 0.8448 0.7617 0.6259
H88 H 0.8421 0.8256 0.5880
Mn12 Mn 0.73134(5) 0.70598(7) 0.79893(8)
Mn13 Mn 0.68205(5) 0.84203(8) 0.75119(9)
Cd1_2 Cd 0.15966(3) 0.27981(5) 0.07809(5)
Cd2_2 Cd 0.20781(4) 0.73268(5) 0.06020(6)
Mn1_2 Mn 0.26866(5) 0.29402(7) 0.20107(8)
Mn5_2 Mn 0.26389(6) 0.30838(9) 0.02085(10)
O1_2 O 0.1995(3) 0.3396(3) 0.0112(4)
O4_2 O 0.1775(3) 0.1873(4) 0.1340(5)
O7_2 O 0.1058(3) 0.3256(5) 0.0139(6)
O11_2 O 0.1647(3) 0.7022(4) 0.1531(6)
O13_2 O 0.1421(3) 0.7522(5) 0.0576(7)
O16_2 O 0.2081(3) 0.3168(4) 0.1754(5)
O17_2 O 0.1465(4) 0.3491(7) 0.1647(7)
O18_2 O 0.2609(3) 0.2029(4) 0.2309(4)
O19_2 O 0.2025(3) 0.8561(5) 0.2239(5)
O20_2 O 0.2231(4) 0.8131(6) 0.1348(6)
O21_2 O 0.1147(4) 0.2027(7) 0.1089(8)
O22_2 O 0.2636(4) 0.6901(6) 0.1333(6)
N1_2 N 0.1975(3) 0.6348(5) 0.0175(6)
H4_2 H 0.2682 0.4469 0.0288
C4_2 C 0.1955(4) 0.4038(6) 0.0211(7)
H7_2 H 0.2082 0.4143 0.0690
H8_2 H 0.1676 0.4132 0.0183
C7_2 C 0.1822(5) 0.5931(7) 0.0503(8)
H9_2 H 0.1686 0.6042 0.0874
C8_2 C 0.1847(5) 0.5288(7) 0.0334(8)
H10_2 H 0.1725 0.5001 0.0589
C18_2 C 0.1353(9) 0.7276(10) 0.1120(10)
C19_2 C 0.0962(7) 0.7295(11) 0.1306(14)
H21_2 H 0.0787 0.7492 0.0929
H22_2 H 0.0965 0.7518 0.1745
H23_2 H 0.0871 0.6886 0.1367
C24_2 C 0.1821(6) 0.3464(9) 0.2001(10)
C26_2 C 0.1927(8) 0.3798(11) 0.2700(10)
H32_2 H 0.1858 0.4221 0.2634
H33_2 H 0.2206 0.3763 0.2860
H34_2 H 0.1786 0.3624 0.3054
C27_2 C 0.1815(8) 0.9008(11) 0.1086(11)
H35_2 H 0.1655 0.9263 0.1340
H36_2 H 0.1654 0.8826 0.0681
H37_2 H 0.2017 0.9251 0.0921
C28_2 C 0.2003(5) 0.8516(7) 0.1577(9)
C29_2 C 0.2888(6) 0.7058(10) 0.1061(14)
C30_2 C 0.1423(6) 0.1728(8) 0.1365(10)
C31_2 C 0.1339(7) 0.1108(11) 0.1643(12)
H38_2 H 0.1179 0.1149 0.2017
H39_2 H 0.1583 0.0912 0.1831
H40_2 H 0.1202 0.0867 0.1259
C32_2 C 0.3326(5) 0.6988(12) 0.1241(13)
H43_2 H 0.3389 0.6792 0.1699
H44_2 H 0.3448 0.7383 0.1259
H45_2 H 0.3421 0.6744 0.0880
O24_2 O 0.2745(6) 0.7311(8) 0.0438(11)
Mn7_2 Mn 0.31795(5) 0.15797(8) 0.24881(9)
Mn8_2 Mn 0.31707(6) 0.19992(9) 0.08166(10)
Mn9_2 Mn 0.23530(6) 0.15303(9) 0.14079(10)
O26_2 O 0.3777(4) 0.1328(6) 0.2349(5)
H46_2 H 0.3864 0.0929 0.2434
H47_2 H 0.3946 0.1620 0.2204
O27_2 O 0.2272(2) 0.1211(4) 0.0346(4)
O29_2 O 0.2995(2) 0.1312(4) 0.1339(4)
O30_2 O 0.3775(3) 0.1645(5) 0.0925(5)
O32_2 O 0.3268(2) 0.2425(4) 0.1729(4)
O33_2 O 0.3281(2) 0.2716(4) 0.0275(4)
O34_2 O 0.2820(2) 0.3463(4) 0.1105(4)
O36_2 O 0.2542(3) 0.2332(4) 0.0657(5)
O38_2 O 0.2339(3) 0.0737(5) 0.2024(5)
O39_2 O 0.2896(4) 0.0803(5) 0.2815(6)
N4_2 N 0.4522(4) 0.4607(6) 0.2078(7)
C34_2 C 0.2419(4) 0.0637(6) 0.0205(7)
H48_2 H 0.2315 0.0342 0.0511
C35_2 C 0.3070(4) 0.0725(5) 0.1092(7)
H50_2 H 0.3353 0.0676 0.1123
H51_2 H 0.2980 0.0428 0.1413
C37_2 C 0.2878(4) 0.0569(6) 0.0313(7)
C38_2 C 0.4000(7) 0.1547(14) 0.0503(15)
C41_2 C 0.3592(5) 0.3120(7) 0.0539(8)
H56_2 H 0.3841 0.2905 0.0561
H57_2 H 0.3594 0.3456 0.0205
C42_2 C 0.3177(3) 0.3772(6) 0.1233(7)
H58_2 H 0.3182 0.4068 0.0852
H59_2 H 0.3185 0.3998 0.1678
C43_2 C 0.3575(4) 0.2851(6) 0.1862(7)
H60_2 H 0.3569 0.3034 0.2329
H61_2 H 0.3824 0.2637 0.1883
C44_2 C 0.3560(4) 0.3378(6) 0.1287(7)
C45_2 C 0.3907(4) 0.3797(6) 0.1569(8)
C46_2 C 0.4245(6) 0.4465(8) 0.2468(8)
H62_2 H 0.4268 0.4615 0.2934
C47_2 C 0.3911(5) 0.4089(8) 0.2202(9)
H63_2 H 0.3702 0.4048 0.2461
C48_2 C 0.4505(5) 0.4309(9) 0.1472(12)
H64_2 H 0.4706 0.4373 0.1200
C49_2 C 0.4208(4) 0.3904(7) 0.1205(9)
H65_2 H 0.4218 0.3705 0.0772
C52_2 C 0.4366(7) 0.1244(13) 0.0802(14)
H69_2 H 0.4353 0.1125 0.1289
H70_2 H 0.4403 0.0889 0.0522
H71_2 H 0.4583 0.1519 0.0794
C54_2 C 0.2574(6) 0.0601(7) 0.2626(8)
C57_2 C 0.2423(6) 0.0095(10) 0.3078(11)
H74_2 H 0.2612 0.0025 0.3501
H75_2 H 0.2176 0.0217 0.3216
Mn11_2 Mn 0.23134(5) 0.79402(7) 0.29893(8)
Mn14_2 Mn 0.18205(5) 0.65797(8) 0.25119(9)
O49_2 O 0.3353(3) 0.2022(4) 0.3469(6)
O51_2 O 0.2975(3) 0.3561(5) 0.2761(5)
Mn2_2 Mn 0.18205(5) 0.34203(8) 0.75119(9)
Mn3_2 Mn 0.18293(6) 0.30008(9) 0.91834(10)
Mn4_2 Mn 0.26470(6) 0.34697(9) 0.85921(10)
O2_2 O 0.1223(4) 0.3672(6) 0.7651(5)
H1_2 H 0.1136 0.4071 0.7566
H2_2 H 0.1054 0.3380 0.7796
O3_2 O 0.2728(2) 0.3789(4) 0.9654(4)
O5_2 O 0.2005(2) 0.3688(4) 0.8661(4)
O6_2 O 0.1225(3) 0.3355(5) 0.9075(5)
O8_2 O 0.1732(2) 0.2575(4) 0.8271(4)
O9_2 O 0.1719(2) 0.2284(4) 0.9725(4)
O10_2 O 0.2180(2) 0.1537(4) 0.8895(4)
O12_2 O 0.2458(3) 0.2668(4) 0.9343(5)
O14_2 O 0.2661(3) 0.4263(5) 0.7976(5)
O15_2 O 0.2104(4) 0.4197(5) 0.7185(6)
C1_2 C 0.2041(4) 0.5112(6) 0.9822(7)
C2_2 C 0.2581(4) 0.4363(6) 0.9795(7)
H3_2 H 0.2685 0.4658 0.9489
C3_2 C 0.1930(4) 0.4275(5) 0.8908(7)
H5_2 H 0.1647 0.4324 0.8877
H6_2 H 0.2020 0.4572 0.8587
C5_2 C 0.2122(4) 0.4431(6) 0.9687(7)
C6_2 C 0.1000(7) 0.3453(14) 0.9497(15)
C9_2 C 0.1408(5) 0.1880(7) 0.9461(8)
H11_2 H 0.1159 0.2095 0.9439
H12_2 H 0.1406 0.1544 0.9795
C10_2 C 0.1823(3) 0.1228(6) 0.8767(7)
H13_2 H 0.1818 0.0932 0.9148
H14_2 H 0.1815 0.1002 0.8322
C11_2 C 0.1425(4) 0.2149(6) 0.8138(7)
H15_2 H 0.1431 0.1966 0.7671
H16_2 H 0.1176 0.2363 0.8117
C12_2 C 0.1440(4) 0.1622(6) 0.8713(7)
C13_2 C 0.1093(4) 0.1203(6) 0.8431(8)
C14_2 C 0.0755(6) 0.0535(8) 0.7532(8)
H17_2 H 0.0732 0.0385 0.7066
C15_2 C 0.1089(5) 0.0911(8) 0.7798(9)
H18_2 H 0.1298 0.0952 0.7539
C16_2 C 0.0495(5) 0.0691(9) 0.8528(12)
H19_2 H 0.0294 0.0627 0.8800
C17_2 C 0.0792(4) 0.1096(7) 0.8795(9)
H20_2 H 0.0782 0.1295 0.9228
C20_2 C 0.0634(7) 0.3756(13) 0.9198(14)
H24_2 H 0.0647 0.3875 0.8711
H25_2 H 0.0597 0.4111 0.9478
H26_2 H 0.0417 0.3481 0.9206
C21_2 C 0.2140(5) 0.6148(7) 0.9627(8)
H27_2 H 0.2232 0.6442 0.9338
C22_2 C 0.2426(6) 0.4399(7) 0.7374(8)
C23_2 C 0.2187(5) 0.5559(7) 0.9446(8)
H28_2 H 0.2320 0.5463 0.9064
C25_2 C 0.2577(6) 0.4905(10) 0.6922(11)
H29_2 H 0.2388 0.4975 0.6499
H30_2 H 0.2824 0.4783 0.6784
H31_2 H 0.2613 0.5274 0.7199
Cd4_2 Cd 0.34034(3) 0.22019(5) 0.92191(5)
Mn6_2 Mn 0.23134(5) 0.20598(7) 0.79893(8)
Mn10_2 Mn 0.23611(6) 0.19162(9) 0.97915(10)
O25_2 O 0.3005(3) 0.1604(3) 0.9888(4)
O28_2 O 0.3225(3) 0.3127(4) 0.8660(5)
O31_2 O 0.3942(3) 0.1744(5) 0.9861(6)
O40_2 O 0.2919(3) 0.1832(4) 0.8246(5)
O41_2 O 0.3535(4) 0.1509(7) 0.8353(7)
O42_2 O 0.2391(3) 0.2971(4) 0.7691(4)
O45_2 O 0.3853(4) 0.2973(7) 0.8911(8)
H49_2 H 0.2318 0.0531 0.9712
C36_2 C 0.3045(4) 0.0962(6) 0.9789(7)
H52_2 H 0.2918 0.0857 0.9310
H53_2 H 0.3324 0.0868 0.9817
C56_2 C 0.3179(6) 0.1536(9) 0.7999(10)
C58_2 C 0.3073(8) 0.1202(11) 0.7300(10)
H77_2 H 0.3142 0.0779 0.7366
H78_2 H 0.2794 0.1237 0.7140
H79_2 H 0.3214 0.1376 0.6946
C62_2 C 0.3577(6) 0.3272(8) 0.8635(10)
C63_2 C 0.3661(7) 0.3892(11) 0.8357(12)
H83_2 H 0.3821 0.3851 0.7983
H84_2 H 0.3417 0.4088 0.8169
H85_2 H 0.3798 0.4133 0.8741
Cd7_2 Cd 0.29219(4) 0.76732(5) 0.93980(6)
O50_2 O 0.1647(3) 0.2978(4) 0.6531(6)
O52_2 O 0.2025(3) 0.1439(5) 0.7239(5)
O54_2 O 0.2255(6) 0.7689(8) 0.9562(11)
C33_2 C 0.2959(4) 0.9888(6) 0.0178(7)
C53_2 C 0.2860(5) 0.8852(7) 0.0373(8)
H72_2 H 0.2768 0.8558 0.0662
C55_2 C 0.2813(5) 0.9441(7) 0.0554(8)
H73_2 H 0.2680 0.9537 0.0936
H76_2 H 0.2387 0.9726 0.2801
O35_2 O 0.3353(3) 0.7978(4) 0.8469(6)
O37_2 O 0.3579(3) 0.7478(5) 0.9424(7)
O43_2 O 0.2975(3) 0.6439(5) 0.7761(5)
O44_2 O 0.2769(4) 0.6869(6) 0.8652(6)
O46_2 O 0.2364(4) 0.8099(6) 0.8667(6)
N3_2 N 0.3025(3) 0.8652(5) 0.9825(6)
C39_2 C 0.3178(5) 0.9069(7) 0.9497(8)
H54_2 H 0.3314 0.8958 0.9126
C40_2 C 0.3153(5) 0.9712(7) 0.9666(8)
H55_2 H 0.3275 0.9999 0.9411
C50_2 C 0.3647(9) 0.7724(10) 0.8880(10)
C51_2 C 0.4038(7) 0.7705(11) 0.8694(14)
H66_2 H 0.4213 0.7508 0.9071
H67_2 H 0.4035 0.7482 0.8255
H68_2 H 0.4129 0.8114 0.8633
C59_2 C 0.3185(8) 0.5992(11) 0.8914(11)
H80_2 H 0.3345 0.5737 0.8660
H81_2 H 0.3346 0.6174 0.9319
H82_2 H 0.2983 0.5749 0.9079
C60_2 C 0.2997(5) 0.6484(7) 0.8423(9)
C61_2 C 0.2112(6) 0.7942(10) 0.8939(14)
C64_2 C 0.1674(5) 0.8012(12) 0.8759(13)
H86_2 H 0.1611 0.8208 0.8301
H87_2 H 0.1552 0.7617 0.8741
H88_2 H 0.1579 0.8256 0.9120
Mn12_2 Mn 0.26866(5) 0.70598(7) 0.70107(8)
Mn13_2 Mn 0.31795(5) 0.84203(8) 0.74881(9)
Cd2_3 Cd 0.29219(4) 0.23268(5) 0.43980(6)
O13_3 O 0.3579(3) 0.2522(5) 0.4424(7)
O20_3 O 0.2769(4) 0.3131(6) 0.3652(6)
O22_3 O 0.2364(4) 0.1901(6) 0.3667(6)
N1_3 N 0.3025(3) 0.1348(5) 0.4825(6)
C1_3 C 0.2959(4) 0.0112(6) 0.5178(7)
C7_3 C 0.3178(5) 0.0931(7) 0.4497(8)
H9_3 H 0.3314 0.1042 0.4126
C8_3 C 0.3153(5) 0.0288(7) 0.4666(8)
H10_3 H 0.3275 0.0001 0.4411
C18_3 C 0.3647(9) 0.2276(10) 0.3880(10)
C19_3 C 0.4038(7) 0.2295(11) 0.3694(14)
H21_3 H 0.4213 0.2492 0.4071
H22_3 H 0.4035 0.2518 0.3255
H23_3 H 0.4129 0.1886 0.3633
C21_3 C 0.2860(5) 0.1148(7) 0.5373(8)
H27_3 H 0.2768 0.1442 0.5662
C23_3 C 0.2813(5) 0.0559(7) 0.5554(8)
H28_3 H 0.2680 0.0463 0.5936
H31_3 H 0.2387 0.0274 0.7801
C27_3 C 0.3185(8) 0.4008(11) 0.3914(11)
H35_3 H 0.3345 0.4263 0.3660
H36_3 H 0.3346 0.3826 0.4319
H37_3 H 0.2983 0.4251 0.4079
C28_3 C 0.2997(5) 0.3516(7) 0.3423(9)
C29_3 C 0.2112(6) 0.2058(10) 0.3939(14)
C32_3 C 0.1674(5) 0.1988(12) 0.3759(13)
H43_3 H 0.1611 0.1792 0.3301
H44_3 H 0.1552 0.2383 0.3741
H45_3 H 0.1579 0.1744 0.4120
O24_3 O 0.2255(6) 0.2311(8) 0.4562(11)
Cd7_3 Cd 0.20781(4) 0.26732(5) 0.56020(6)
Cd8_2 Cd -0.0000 0.03147(7) 0.2500
O54_3 O 0.2745(6) 0.2689(8) 0.5438(11)
Cd1_3 Cd 0.34034(3) 0.77981(5) 0.42191(5)
Cd3_3 Cd 0.5000 0.46853(7) 0.7500
Mn3_3 Mn 0.31707(6) 0.80008(9) 0.58166(10)
Mn4_3 Mn 0.23530(6) 0.84697(9) 0.64079(10)
Mn5_3 Mn 0.23611(6) 0.80838(9) 0.47915(10)
O1_3 O 0.3005(3) 0.8396(3) 0.4888(4)
O2_3 O 0.3777(4) 0.8672(6) 0.7349(5)
H1_3 H 0.3864 0.9071 0.7434
H2_3 H 0.3946 0.8380 0.7204
O3_3 O 0.2272(2) 0.8789(4) 0.5346(4)
O4_3 O 0.3225(3) 0.6873(4) 0.3660(5)
O5_3 O 0.2995(2) 0.8688(4) 0.6339(4)
O6_3 O 0.3775(3) 0.8355(5) 0.5925(5)
O7_3 O 0.3942(3) 0.8256(5) 0.4861(6)
O8_3 O 0.3268(2) 0.7575(4) 0.6729(4)
O9_3 O 0.3281(2) 0.7284(4) 0.5275(4)
O10_3 O 0.2820(2) 0.6537(4) 0.6105(4)
O12_3 O 0.2542(3) 0.7668(4) 0.5657(5)
O14_3 O 0.2339(3) 0.9263(5) 0.7024(5)
O15_3 O 0.2896(4) 0.9197(5) 0.7815(6)
O16_3 O 0.2919(3) 0.8168(4) 0.3246(5)
O17_3 O 0.3535(4) 0.8491(7) 0.3353(7)
O18_3 O 0.2391(3) 0.7029(4) 0.2691(4)
O21_3 O 0.3853(4) 0.7027(7) 0.3911(8)
N2_2 N 0.4522(4) 0.5393(6) 0.7078(7)
C2_3 C 0.2419(4) 0.9363(6) 0.5205(7)
H3_3 H 0.2315 0.9658 0.5511
H4_3 H 0.2318 0.9469 0.4712
C3_3 C 0.3070(4) 0.9275(5) 0.6092(7)
H5_3 H 0.3353 0.9324 0.6123
H6_3 H 0.2980 0.9572 0.6413
C4_3 C 0.3045(4) 0.9038(6) 0.4789(7)
H7_3 H 0.2918 0.9143 0.4310
H8_3 H 0.3324 0.9132 0.4817
C5_3 C 0.2878(4) 0.9431(6) 0.5313(7)
C6_3 C 0.4000(7) 0.8453(14) 0.5503(15)
C9_3 C 0.3592(5) 0.6880(7) 0.5539(8)
H11_3 H 0.3841 0.7095 0.5561
H12_3 H 0.3594 0.6544 0.5205
C10_3 C 0.3177(3) 0.6228(6) 0.6233(7)
H13_3 H 0.3182 0.5932 0.5852
H14_3 H 0.3185 0.6002 0.6678
C11_3 C 0.3575(4) 0.7149(6) 0.6862(7)
H15_3 H 0.3569 0.6966 0.7329
H16_3 H 0.3824 0.7363 0.6883
C12_3 C 0.3560(4) 0.6622(6) 0.6287(7)
C13_3 C 0.3907(4) 0.6203(6) 0.6569(8)
C14_3 C 0.4245(6) 0.5535(8) 0.7468(8)
H17_3 H 0.4268 0.5385 0.7934
C15_3 C 0.3911(5) 0.5911(8) 0.7202(9)
H18_3 H 0.3702 0.5952 0.7461
C16_3 C 0.4505(5) 0.5691(9) 0.6472(12)
H19_3 H 0.4706 0.5627 0.6200
C17_3 C 0.4208(4) 0.6096(7) 0.6205(9)
H20_3 H 0.4218 0.6295 0.5772
C20_3 C 0.4366(7) 0.8756(13) 0.5802(14)
H24_3 H 0.4353 0.8875 0.6289
H25_3 H 0.4403 0.9111 0.5522
H26_3 H 0.4583 0.8481 0.5794
C22_3 C 0.2574(6) 0.9399(7) 0.7626(8)
C24_3 C 0.3179(6) 0.8464(9) 0.2999(10)
C25_3 C 0.2423(6) 0.9905(10) 0.8078(11)
H29_3 H 0.2612 0.9975 0.8501
H30_3 H 0.2176 0.9783 0.8216
C26_3 C 0.3073(8) 0.8798(11) 0.2300(10)
H32_3 H 0.3142 0.9221 0.2366
H33_3 H 0.2794 0.8763 0.2140
H34_3 H 0.3214 0.8624 0.1946
C30_3 C 0.3577(6) 0.6728(8) 0.3635(10)
C31_3 C 0.3661(7) 0.6108(11) 0.3357(12)
H38_3 H 0.3821 0.6149 0.2983
H39_3 H 0.3417 0.5912 0.3169
H40_3 H 0.3798 0.5867 0.3741
O23_2 O 0.4787(6) 0.4664(9) 0.8685(10)
H41_2 H 0.4578 0.4907 0.8776
H42_2 H 0.4916 0.4413 0.9044
Cd4_3 Cd 0.15966(3) 0.72019(5) 0.57809(5)
Mn8_3 Mn 0.18293(6) 0.69992(9) 0.41834(10)
Mn9_3 Mn 0.26470(6) 0.65303(9) 0.35921(10)
Mn10_3 Mn 0.26389(6) 0.69162(9) 0.52085(10)
O25_3 O 0.1995(3) 0.6604(3) 0.5112(4)
O26_3 O 0.1223(4) 0.6328(6) 0.2651(5)
H46_3 H 0.1136 0.5929 0.2566
H47_3 H 0.1054 0.6620 0.2796
O27_3 O 0.2728(2) 0.6211(4) 0.4654(4)
O28_3 O 0.1775(3) 0.8127(4) 0.6340(5)
O29_3 O 0.2005(2) 0.6312(4) 0.3661(4)
O30_3 O 0.1225(3) 0.6645(5) 0.4075(5)
O31_3 O 0.1058(3) 0.6744(5) 0.5139(6)
O32_3 O 0.1732(2) 0.7425(4) 0.3271(4)
O33_3 O 0.1719(2) 0.7716(4) 0.4725(4)
O34_3 O 0.2180(2) 0.8463(4) 0.3895(4)
O36_3 O 0.2458(3) 0.7332(4) 0.4343(5)
O37_3 O 0.1421(3) 0.2478(5) 0.5576(7)
O38_3 O 0.2661(3) 0.5737(5) 0.2976(5)
O39_3 O 0.2104(4) 0.5803(5) 0.2185(6)
O40_3 O 0.2081(3) 0.6832(4) 0.6754(5)
O41_3 O 0.1465(4) 0.6509(7) 0.6647(7)
O42_3 O 0.2609(3) 0.7971(4) 0.7309(4)
O44_3 O 0.2231(4) 0.1869(6) 0.6348(6)
O45_3 O 0.1147(4) 0.7973(7) 0.6089(8)
O46_3 O 0.2636(4) 0.3099(6) 0.6333(6)
N3_3 N 0.1975(3) 0.3652(5) 0.5175(6)
N4_3 N 0.0478(4) 0.9607(6) 0.2922(7)
C33_3 C 0.2041(4) 0.4888(6) 0.4822(7)
C34_3 C 0.2581(4) 0.5637(6) 0.4795(7)
H48_3 H 0.2685 0.5342 0.4489
H49_3 H 0.2682 0.5531 0.5288
C35_3 C 0.1930(4) 0.5725(5) 0.3908(7)
H50_3 H 0.1647 0.5676 0.3877
H51_3 H 0.2020 0.5428 0.3587
C36_3 C 0.1955(4) 0.5962(6) 0.5211(7)
H52_3 H 0.2082 0.5857 0.5690
H53_3 H 0.1676 0.5868 0.5183
C37_3 C 0.2122(4) 0.5569(6) 0.4687(7)
C38_3 C 0.1000(7) 0.6547(14) 0.4497(15)
C39_3 C 0.1822(5) 0.4069(7) 0.5503(8)
H54_3 H 0.1686 0.3958 0.5874
C40_3 C 0.1847(5) 0.4712(7) 0.5334(8)
H55_3 H 0.1725 0.4999 0.5589
C41_3 C 0.1408(5) 0.8120(7) 0.4461(8)
H56_3 H 0.1159 0.7905 0.4439
H57_3 H 0.1406 0.8456 0.4795
C42_3 C 0.1823(3) 0.8772(6) 0.3767(7)
H58_3 H 0.1818 0.9068 0.4148
H59_3 H 0.1815 0.8998 0.3322
C43_3 C 0.1425(4) 0.7851(6) 0.3138(7)
H60_3 H 0.1431 0.8034 0.2671
H61_3 H 0.1176 0.7637 0.3117
C44_3 C 0.1440(4) 0.8378(6) 0.3713(7)
C45_3 C 0.1093(4) 0.8797(6) 0.3431(8)
C46_3 C 0.0755(6) 0.9465(8) 0.2532(8)
H62_3 H 0.0732 0.9615 0.2066
C47_3 C 0.1089(5) 0.9089(8) 0.2798(9)
H63_3 H 0.1298 0.9048 0.2539
C48_3 C 0.0495(5) 0.9309(9) 0.3528(12)
H64_3 H 0.0294 0.9373 0.3800
C49_3 C 0.0792(4) 0.8904(7) 0.3795(9)
H65_3 H 0.0782 0.8705 0.4228
C50_3 C 0.1353(9) 0.2724(10) 0.6120(10)
C51_3 C 0.0962(7) 0.2705(11) 0.6306(14)
H66_3 H 0.0787 0.2508 0.5929
H67_3 H 0.0965 0.2482 0.6745
H68_3 H 0.0871 0.3114 0.6367
C52_3 C 0.0634(7) 0.6244(13) 0.4198(14)
H69_3 H 0.0647 0.6125 0.3711
H70_3 H 0.0597 0.5889 0.4478
H71_3 H 0.0417 0.6519 0.4206
C53_3 C 0.2140(5) 0.3852(7) 0.4627(8)
H72_3 H 0.2232 0.3558 0.4338
C54_3 C 0.2426(6) 0.5601(7) 0.2374(8)
C55_3 C 0.2187(5) 0.4441(7) 0.4446(8)
H73_3 H 0.2320 0.4537 0.4064
C56_3 C 0.1821(6) 0.6536(9) 0.7001(10)
C57_3 C 0.2577(6) 0.5095(10) 0.1922(11)
H74_3 H 0.2388 0.5025 0.1499
H75_3 H 0.2824 0.5217 0.1784
H76_3 H 0.2613 0.4726 0.2199
C58_3 C 0.1927(8) 0.6202(11) 0.7700(10)
H77_3 H 0.1858 0.5779 0.7634
H78_3 H 0.2206 0.6237 0.7860
H79_3 H 0.1786 0.6376 0.8054
C59_3 C 0.1815(8) 0.0992(11) 0.6086(11)
H80_3 H 0.1655 0.0737 0.6340
H81_3 H 0.1654 0.1174 0.5681
H82_3 H 0.2017 0.0749 0.5921
C60_3 C 0.2003(5) 0.1484(7) 0.6577(9)
C61_3 C 0.2888(6) 0.2942(10) 0.6061(14)
C62_3 C 0.1423(6) 0.8272(8) 0.6365(10)
C63_3 C 0.1339(7) 0.8892(11) 0.6643(12)
H83_3 H 0.1179 0.8851 0.7017
H84_3 H 0.1583 0.9088 0.6831
H85_3 H 0.1202 0.9133 0.6259
C64_3 C 0.3326(5) 0.3012(12) 0.6241(13)
H86_3 H 0.3389 0.3208 0.6699
H87_3 H 0.3448 0.2617 0.6259
H88_3 H 0.3421 0.3256 0.5880
O48_2 O 0.5213(6) 0.4664(9) 0.6315(10)
H89_2 H 0.5422 0.4907 0.6224
H90_2 H 0.5084 0.4413 0.5956
N5_2 N 0.5478(4) 0.5393(6) 0.7922(7)
Cd8_3 Cd 1.0000 0.03147(7) 0.2500
Cd2_4 Cd 0.70781(4) 0.23268(5) 0.06020(6)
O13_4 O 0.6421(3) 0.2522(5) 0.0576(7)
O20_4 O 0.7231(4) 0.3131(6) 0.1348(6)
O22_4 O 0.7636(4) 0.1901(6) 0.1333(6)
N1_4 N 0.6975(3) 0.1348(5) 0.0175(6)
C7_4 C 0.6822(5) 0.0931(7) 0.0503(8)
H9_4 H 0.6686 0.1042 0.0874
C8_4 C 0.6847(5) 0.0288(7) 0.0334(8)
H10_4 H 0.6725 0.0001 0.0589
C18_4 C 0.6353(9) 0.2276(10) 0.1120(10)
C19_4 C 0.5962(7) 0.2295(11) 0.1306(14)
H21_4 H 0.5787 0.2492 0.0929
H22_4 H 0.5965 0.2518 0.1745
H23_4 H 0.5871 0.1886 0.1367
C27_4 C 0.6815(8) 0.4008(11) 0.1086(11)
H35_4 H 0.6655 0.4263 0.1340
H36_4 H 0.6654 0.3826 0.0681
H37_4 H 0.7017 0.4251 0.0921
C28_4 C 0.7003(5) 0.3516(7) 0.1577(9)
C29_4 C 0.7888(6) 0.2058(10) 0.1061(14)
C32_4 C 0.8326(5) 0.1988(12) 0.1241(13)
H43_4 H 0.8389 0.1792 0.1699
H44_4 H 0.8448 0.2383 0.1259
H45_4 H 0.8421 0.1744 0.0880
O24_4 O 0.7745(6) 0.2311(8) 0.0438(11)
C1_4 C 0.7041(4) 0.0112(6) 0.9822(7)
C21_4 C 0.7140(5) 0.1148(7) 0.9627(8)
H27_4 H 0.7232 0.1442 0.9338
C23_4 C 0.7187(5) 0.0559(7) 0.9446(8)
H28_4 H 0.7320 0.0463 0.9064
H31_4 H 0.7613 0.0274 0.7199
Cd7_4 Cd 0.79219(4) 0.26732(5) 0.93980(6)
O54_4 O 0.7255(6) 0.2689(8) 0.9562(11)
Cd1_4 Cd 0.65966(3) 0.77981(5) 0.07809(5)
Mn5_4 Mn 0.76389(6) 0.80838(9) 0.02085(10)
O1_4 O 0.6995(3) 0.8396(3) 0.0112(4)
O4_4 O 0.6775(3) 0.6873(4) 0.1340(5)
O7_4 O 0.6058(3) 0.8256(5) 0.0139(6)
O16_4 O 0.7081(3) 0.8168(4) 0.1754(5)
O17_4 O 0.6465(4) 0.8491(7) 0.1647(7)
O18_4 O 0.7609(3) 0.7029(4) 0.2309(4)
O21_4 O 0.6147(4) 0.7027(7) 0.1089(8)
H4_4 H 0.7682 0.9469 0.0288
C4_4 C 0.6955(4) 0.9038(6) 0.0211(7)
H7_4 H 0.7082 0.9143 0.0690
H8_4 H 0.6676 0.9132 0.0183
C24_4 C 0.6821(6) 0.8464(9) 0.2001(10)
C26_4 C 0.6927(8) 0.8798(11) 0.2700(10)
H32_4 H 0.6858 0.9221 0.2634
H33_4 H 0.7206 0.8763 0.2860
H34_4 H 0.6786 0.8624 0.3054
C30_4 C 0.6423(6) 0.6728(8) 0.1365(10)
C31_4 C 0.6339(7) 0.6108(11) 0.1643(12)
H38_4 H 0.6179 0.6149 0.2017
H39_4 H 0.6583 0.5912 0.1831
H40_4 H 0.6202 0.5867 0.1259
Mn8_4 Mn 0.81707(6) 0.69992(9) 0.08166(10)
Mn9_4 Mn 0.73530(6) 0.65303(9) 0.14079(10)
O26_4 O 0.8777(4) 0.6328(6) 0.2349(5)
H46_4 H 0.8864 0.5929 0.2434
H47_4 H 0.8946 0.6620 0.2204
O27_4 O 0.7272(2) 0.6211(4) 0.0346(4)
O29_4 O 0.7995(2) 0.6312(4) 0.1339(4)
O30_4 O 0.8775(3) 0.6645(5) 0.0925(5)
O32_4 O 0.8268(2) 0.7425(4) 0.1729(4)
O33_4 O 0.8281(2) 0.7716(4) 0.0275(4)
O34_4 O 0.7820(2) 0.8463(4) 0.1105(4)
O36_4 O 0.7542(3) 0.7332(4) 0.0657(5)
O38_4 O 0.7339(3) 0.5737(5) 0.2024(5)
O39_4 O 0.7896(4) 0.5803(5) 0.2815(6)
N4_4 N 0.9522(4) 0.9607(6) 0.2078(7)
C33_4 C 0.7959(4) 0.4888(6) 0.0178(7)
C34_4 C 0.7419(4) 0.5637(6) 0.0205(7)
H48_4 H 0.7315 0.5342 0.0511
C35_4 C 0.8070(4) 0.5725(5) 0.1092(7)
H50_4 H 0.8353 0.5676 0.1123
H51_4 H 0.7980 0.5428 0.1413
C37_4 C 0.7878(4) 0.5569(6) 0.0313(7)
C38_4 C 0.9000(7) 0.6547(14) 0.0503(15)
C41_4 C 0.8592(5) 0.8120(7) 0.0539(8)
H56_4 H 0.8841 0.7905 0.0561
H57_4 H 0.8594 0.8456 0.0205
C42_4 C 0.8177(3) 0.8772(6) 0.1233(7)
H58_4 H 0.8182 0.9068 0.0852
H59_4 H 0.8185 0.8998 0.1678
C43_4 C 0.8575(4) 0.7851(6) 0.1862(7)
H60_4 H 0.8569 0.8034 0.2329
H61_4 H 0.8824 0.7637 0.1883
C44_4 C 0.8560(4) 0.8378(6) 0.1287(7)
C45_4 C 0.8907(4) 0.8797(6) 0.1569(8)
C46_4 C 0.9245(6) 0.9465(8) 0.2468(8)
H62_4 H 0.9268 0.9615 0.2934
C47_4 C 0.8911(5) 0.9089(8) 0.2202(9)
H63_4 H 0.8702 0.9048 0.2461
C48_4 C 0.9505(5) 0.9309(9) 0.1472(12)
H64_4 H 0.9706 0.9373 0.1200
C49_4 C 0.9208(4) 0.8904(7) 0.1205(9)
H65_4 H 0.9218 0.8705 0.0772
C52_4 C 0.9366(7) 0.6244(13) 0.0802(14)
H69_4 H 0.9353 0.6125 0.1289
H70_4 H 0.9403 0.5889 0.0522
H71_4 H 0.9583 0.6519 0.0794
C53_4 C 0.7860(5) 0.3852(7) 0.0373(8)
H72_4 H 0.7768 0.3558 0.0662
C54_4 C 0.7574(6) 0.5601(7) 0.2626(8)
C55_4 C 0.7813(5) 0.4441(7) 0.0554(8)
H73_4 H 0.7680 0.4537 0.0936
C57_4 C 0.7423(6) 0.5095(10) 0.3078(11)
H74_4 H 0.7612 0.5025 0.3501
H75_4 H 0.7176 0.5217 0.3216
H76_4 H 0.7387 0.4726 0.2801
Mn3_4 Mn 0.68293(6) 0.80008(9) 0.91834(10)
Mn4_4 Mn 0.76470(6) 0.84697(9) 0.85921(10)
O2_4 O 0.6223(4) 0.8672(6) 0.7651(5)
H1_4 H 0.6136 0.9071 0.7566
H2_4 H 0.6054 0.8380 0.7796
O3_4 O 0.7728(2) 0.8789(4) 0.9654(4)
O5_4 O 0.7005(2) 0.8688(4) 0.8661(4)
O6_4 O 0.6225(3) 0.8355(5) 0.9075(5)
O8_4 O 0.6732(2) 0.7575(4) 0.8271(4)
O9_4 O 0.6719(2) 0.7284(4) 0.9725(4)
O10_4 O 0.7180(2) 0.6537(4) 0.8895(4)
O12_4 O 0.7458(3) 0.7668(4) 0.9343(5)
O14_4 O 0.7661(3) 0.9263(5) 0.7976(5)
O15_4 O 0.7104(4) 0.9197(5) 0.7185(6)
C2_4 C 0.7581(4) 0.9363(6) 0.9795(7)
H3_4 H 0.7685 0.9658 0.9489
C3_4 C 0.6930(4) 0.9275(5) 0.8908(7)
H5_4 H 0.6647 0.9324 0.8877
H6_4 H 0.7020 0.9572 0.8587
C5_4 C 0.7122(4) 0.9431(6) 0.9687(7)
C6_4 C 0.6000(7) 0.8453(14) 0.9497(15)
C9_4 C 0.6408(5) 0.6880(7) 0.9461(8)
H11_4 H 0.6159 0.7095 0.9439
H12_4 H 0.6406 0.6544 0.9795
C10_4 C 0.6823(3) 0.6228(6) 0.8767(7)
H13_4 H 0.6818 0.5932 0.9148
H14_4 H 0.6815 0.6002 0.8322
C11_4 C 0.6425(4) 0.7149(6) 0.8138(7)
H15_4 H 0.6431 0.6966 0.7671
H16_4 H 0.6176 0.7363 0.8117
C12_4 C 0.6440(4) 0.6622(6) 0.8713(7)
C13_4 C 0.6093(4) 0.6203(6) 0.8431(8)
C14_4 C 0.5755(6) 0.5535(8) 0.7532(8)
H17_4 H 0.5732 0.5385 0.7066
C15_4 C 0.6089(5) 0.5911(8) 0.7798(9)
H18_4 H 0.6298 0.5952 0.7539
C16_4 C 0.5495(5) 0.5691(9) 0.8528(12)
H19_4 H 0.5294 0.5627 0.8800
C17_4 C 0.5792(4) 0.6096(7) 0.8795(9)
H20_4 H 0.5782 0.6295 0.9228
C20_4 C 0.5634(7) 0.8756(13) 0.9198(14)
H24_4 H 0.5647 0.8875 0.8711
H25_4 H 0.5597 0.9111 0.9478
H26_4 H 0.5417 0.8481 0.9206
C22_4 C 0.7426(6) 0.9399(7) 0.7374(8)
C25_4 C 0.7577(6) 0.9905(10) 0.6922(11)
H29_4 H 0.7388 0.9975 0.6499
H30_4 H 0.7824 0.9783 0.6784
Cd4_4 Cd 0.84034(3) 0.72019(5) 0.92191(5)
Mn10_4 Mn 0.73611(6) 0.69162(9) 0.97915(10)
O25_4 O 0.8005(3) 0.6604(3) 0.9888(4)
O28_4 O 0.8225(3) 0.8127(4) 0.8660(5)
O31_4 O 0.8942(3) 0.6744(5) 0.9861(6)
O37_4 O 0.8579(3) 0.2478(5) 0.9424(7)
O40_4 O 0.7919(3) 0.6832(4) 0.8246(5)
O41_4 O 0.8535(4) 0.6509(7) 0.8353(7)
O42_4 O 0.7391(3) 0.7971(4) 0.7691(4)
O44_4 O 0.7769(4) 0.1869(6) 0.8652(6)
O45_4 O 0.8853(4) 0.7973(7) 0.8911(8)
O46_4 O 0.7364(4) 0.3099(6) 0.8667(6)
N3_4 N 0.8025(3) 0.3652(5) 0.9825(6)
H49_4 H 0.7318 0.5531 0.9712
C36_4 C 0.8045(4) 0.5962(6) 0.9789(7)
H52_4 H 0.7918 0.5857 0.9310
H53_4 H 0.8324 0.5868 0.9817
C39_4 C 0.8178(5) 0.4069(7) 0.9497(8)
H54_4 H 0.8314 0.3958 0.9126
C40_4 C 0.8153(5) 0.4712(7) 0.9666(8)
H55_4 H 0.8275 0.4999 0.9411
C50_4 C 0.8647(9) 0.2724(10) 0.8880(10)
C51_4 C 0.9038(7) 0.2705(11) 0.8694(14)
H66_4 H 0.9213 0.2508 0.9071
H67_4 H 0.9035 0.2482 0.8255
H68_4 H 0.9129 0.3114 0.8633
C56_4 C 0.8179(6) 0.6536(9) 0.7999(10)
C58_4 C 0.8073(8) 0.6202(11) 0.7300(10)
H77_4 H 0.8142 0.5779 0.7366
H78_4 H 0.7794 0.6237 0.7140
H79_4 H 0.8214 0.6376 0.6946
C59_4 C 0.8185(8) 0.0992(11) 0.8914(11)
H80_4 H 0.8345 0.0737 0.8660
H81_4 H 0.8346 0.1174 0.9319
H82_4 H 0.7983 0.0749 0.9079
C60_4 C 0.7997(5) 0.1484(7) 0.8423(9)
C61_4 C 0.7112(6) 0.2942(10) 0.8939(14)
C62_4 C 0.8577(6) 0.8272(8) 0.8635(10)
C63_4 C 0.8661(7) 0.8892(11) 0.8357(12)
H83_4 H 0.8821 0.8851 0.7983
H84_4 H 0.8417 0.9088 0.8169
H85_4 H 0.8798 0.9133 0.8741
C64_4 C 0.6674(5) 0.3012(12) 0.8759(13)
H86_4 H 0.6611 0.3208 0.8301
H87_4 H 0.6552 0.2617 0.8741
H88_4 H 0.6579 0.3256 0.9120
O23_3 O 0.0213(6) 0.0336(9) 0.1315(10)
H41_3 H 0.0422 0.0093 0.1224
H42_3 H 0.0084 0.0587 0.0956
O48_3 O 0.9787(6) 0.0336(9) 0.3685(10)
H89_3 H 0.9578 0.0093 0.3776
H90_3 H 0.9916 0.0587 0.4044
O23_4 O 0.5213(6) 0.5336(9) 0.1315(10)
H41_4 H 0.5422 0.5093 0.1224
H42_4 H 0.5084 0.5587 0.0956
O48_4 O 0.4787(6) 0.5336(9) 0.3685(10)
H89_4 H 0.4578 0.5093 0.3776
H90_4 H 0.4916 0.5587 0.4044
loop_
_geom_bond_atom_site_label_1
_geom_bond_atom_site_label_2
_geom_bond_site_symmetry_1
_geom_bond_site_symmetry_2
O48 Cd3 1_555 1_555
H89 O48 1_555 1_555
H90 O48 1_555 1_555
Cd1 O1 1_555 1_555
Cd2 O11 1_555 1_555
Mn1 O16 1_555 1_555
Mn2 O2 1_555 1_555
Mn3 O1 1_555 1_555
Mn4 O3 1_555 1_555
Mn5 O1 1_555 1_555
O1 C4 1_555 1_555
O2 H1 1_555 1_555
H2 O2 1_555 1_555
O3 Mn5 1_555 1_555
O4 Cd1 1_555 1_555
O5 Mn2 1_555 1_555
O6 Mn3 1_555 1_555
O7 Cd1 1_555 1_555
O8 Mn2 1_555 1_555
O9 Cd1 1_555 1_555
O10 C10 1_555 1_555
O11 C18 1_555 1_555
O12 Mn3 1_555 1_555
O13 Cd2 1_555 1_555
O14 Mn4 1_555 1_555
O15 Mn2 1_555 1_555
O16 Cd1 1_555 1_555
O17 Cd1 1_555 1_555
O18 Mn1 1_555 1_555
O19 C28 1_555 1_555
O20 Cd2 1_555 1_555
O21 Cd1 1_555 1_555
O22 Cd2 1_555 1_555
N1 Cd2 1_555 1_555
N2 C14 1_555 1_555
C1 C5 1_555 1_555
C2 O3 1_555 1_555
H3 C2 1_555 1_555
H4 C2 1_555 1_555
C3 O5 1_555 1_555
H5 C3 1_555 1_555
H6 C3 1_555 1_555
C4 H7 1_555 1_555
H8 C4 1_555 1_555
C5 C2 1_555 1_555
C6 O6 1_555 1_555
C7 N1 1_555 1_555
H9 C7 1_555 1_555
C8 C1 1_555 1_555
H10 C8 1_555 1_555
C9 O9 1_555 1_555
H11 C9 1_555 1_555
H12 C9 1_555 1_555
C10 H13 1_555 1_555
H14 C10 1_555 1_555
C11 O8 1_555 1_555
H15 C11 1_555 1_555
H16 C11 1_555 1_555
C12 C9 1_555 1_555
C13 C12 1_555 1_555
C14 H17 1_555 1_555
C15 C13 1_555 1_555
H18 C15 1_555 1_555
C16 N2 1_555 1_555
H19 C16 1_555 1_555
C17 C13 1_555 1_555
H20 C17 1_555 1_555
C18 O13 1_555 1_555
C19 C18 1_555 1_555
H21 C19 1_555 1_555
H22 C19 1_555 1_555
H23 C19 1_555 1_555
C20 C6 1_555 1_555
H24 C20 1_555 1_555
H25 C20 1_555 1_555
H26 C20 1_555 1_555
C21 N1 1_555 1_555
H27 C21 1_555 1_555
C22 O14 1_555 1_555
C23 C1 1_555 1_555
H28 C23 1_555 1_555
C24 O16 1_555 1_555
C25 C22 1_555 1_555
H29 C25 1_555 1_555
H30 C25 1_555 1_555
H31 C25 1_555 1_555
C26 C24 1_555 1_555
H32 C26 1_555 1_555
H33 C26 1_555 1_555
H34 C26 1_555 1_555
C27 H35 1_555 1_555
H36 C27 1_555 1_555
H37 C27 1_555 1_555
C28 O20 1_555 1_555
C29 O22 1_555 1_555
C30 O4 1_555 1_555
C31 C30 1_555 1_555
H38 C31 1_555 1_555
H39 C31 1_555 1_555
H40 C31 1_555 1_555
C32 C29 1_555 1_555
H43 C32 1_555 1_555
H44 C32 1_555 1_555
H45 C32 1_555 1_555
O24 Cd2 1_555 1_555
Cd4 O25 1_555 1_555
Mn6 O8 1_555 1_555
Mn7 O18 1_555 1_555
Mn8 O25 1_555 1_555
Mn9 O4 1_555 1_555
Mn10 O9 1_555 1_555
O25 Mn10 1_555 1_555
O26 Mn7 1_555 1_555
H46 O26 1_555 1_555
H47 O26 1_555 1_555
O27 Mn9 1_555 1_555
O28 Mn4 1_555 1_555
O29 Mn7 1_555 1_555
O30 Mn8 1_555 1_555
O31 Cd4 1_555 1_555
O32 Mn1 1_555 1_555
O33 Mn5 1_555 1_555
O34 Mn1 1_555 1_555
O36 Mn5 1_555 1_555
O38 Mn9 1_555 1_555
O39 Mn7 1_555 1_555
O40 Cd4 1_555 1_555
O41 Cd4 1_555 1_555
O42 Mn2 1_555 1_555
O45 Cd4 1_555 1_555
N4 C46 1_555 1_555
C34 O27 1_555 1_555
H48 C34 1_555 1_555
H49 C34 1_555 1_555
C35 O29 1_555 1_555
H50 C35 1_555 1_555
H51 C35 1_555 1_555
C36 O25 1_555 1_555
H52 C36 1_555 1_555
H53 C36 1_555 1_555
C37 C34 1_555 1_555
C38 O30 1_555 1_555
C41 O33 1_555 1_555
H56 C41 1_555 1_555
H57 C41 1_555 1_555
C42 O34 1_555 1_555
H58 C42 1_555 1_555
H59 C42 1_555 1_555
C43 O32 1_555 1_555
H60 C43 1_555 1_555
H61 C43 1_555 1_555
C44 C41 1_555 1_555
C45 C44 1_555 1_555
C46 H62 1_555 1_555
C47 C45 1_555 1_555
H63 C47 1_555 1_555
C48 N4 1_555 1_555
H64 C48 1_555 1_555
C49 C45 1_555 1_555
H65 C49 1_555 1_555
C52 C38 1_555 1_555
H69 C52 1_555 1_555
H70 C52 1_555 1_555
H71 C52 1_555 1_555
C54 O38 1_555 1_555
C56 O40 1_555 1_555
C57 C54 1_555 1_555
H74 C57 1_555 1_555
H75 C57 1_555 1_555
C58 C56 1_555 1_555
H77 C58 1_555 1_555
H78 C58 1_555 1_555
H79 C58 1_555 1_555
C62 O28 1_555 1_555
C63 C62 1_555 1_555
H83 C63 1_555 1_555
H84 C63 1_555 1_555
H85 C63 1_555 1_555
Cd7 O24 1_555 1_555
Cd8 N4 1_555 1_555
Mn11 O19 1_555 1_555
Mn14 O11 1_555 1_555
O49 Mn7 1_555 1_555
O50 Mn2 1_555 1_555
O51 Mn1 1_555 1_555
O52 Mn6 1_555 1_555
O54 Cd2 1_555 1_555
Mn3 O5 1_555 1_555
Mn3 O8 1_555 1_555
Mn3 O9 1_555 1_555
Mn4 O5 1_555 1_555
Mn4 O12 1_555 1_555
Mn4 O42 1_555 1_555
Mn5 O12 1_555 1_555
Mn5 O34 1_555 1_555
O7 C6 1_555 1_555
O10 Mn6 1_555 1_555
O10 Mn10 1_555 1_555
O12 Mn10 1_555 1_555
O15 C22 1_555 1_555
O17 C24 1_555 1_555
O18 Mn9 1_555 1_555
O21 C30 1_555 1_555
C3 C5 1_555 1_555
C4 C5 1_555 1_555
C7 C8 1_555 1_555
C10 C12 1_555 1_555
C11 C12 1_555 1_555
C14 C15 1_555 1_555
C16 C17 1_555 1_555
C21 C23 1_555 1_555
C27 C28 1_555 1_555
C29 O24 1_555 1_555
Cd4 O28 1_555 1_555
Cd4 O33 1_555 1_555
Mn6 O40 1_555 1_555
Mn6 O42 1_555 1_555
Mn7 O32 1_555 1_555
Mn8 O29 1_555 1_555
Mn8 O32 1_555 1_555
Mn8 O33 1_555 1_555
Mn8 O36 1_555 1_555
Mn9 O29 1_555 1_555
Mn9 O36 1_555 1_555
Mn10 O27 1_555 1_555
Mn10 O36 1_555 1_555
O31 C38 1_555 1_555
O39 C54 1_555 1_555
O41 C56 1_555 1_555
O45 C62 1_555 1_555
C35 C37 1_555 1_555
C36 C37 1_555 1_555
C42 C44 1_555 1_555
C43 C44 1_555 1_555
C46 C47 1_555 1_555
C48 C49 1_555 1_555
Cd7 O54 1_555 1_555
O23 Cd3_2 1_555 1_555
H41 O23 1_555 1_555
H42 O23 1_555 1_555
Cd7 O35 1_555 1_555
O35 C50 1_555 1_555
O37 Cd7 1_555 1_555
O43 C60 1_555 1_555
O44 Cd7 1_555 1_555
O46 Cd7 1_555 1_555
N3 Cd7 1_555 1_555
C39 N3 1_555 1_555
H54 C39 1_555 1_555
C40 C33 1_555 1_555
H55 C40 1_555 1_555
C50 O37 1_555 1_555
C51 C50 1_555 1_555
H66 C51 1_555 1_555
H67 C51 1_555 1_555
H68 C51 1_555 1_555
C53 N3 1_555 1_555
H72 C53 1_555 1_555
C55 C33 1_555 1_555
H73 C55 1_555 1_555
C59 H80 1_555 1_555
H81 C59 1_555 1_555
H82 C59 1_555 1_555
C60 O44 1_555 1_555
C61 O46 1_555 1_555
C64 C61 1_555 1_555
H86 C64 1_555 1_555
H87 C64 1_555 1_555
H88 C64 1_555 1_555
Mn12 O43 1_555 1_555
Mn13 O35 1_555 1_555
C39 C40 1_555 1_555
C53 C55 1_555 1_555
C59 C60 1_555 1_555
C61 O54 1_555 1_555
Cd1_2 O1_2 1_555 1_555
Cd2_2 O11_2 1_555 1_555
Mn1_2 O16_2 1_555 1_555
Mn5_2 O1_2 1_555 1_555
O1_2 C4_2 1_555 1_555
O4_2 Cd1_2 1_555 1_555
O7_2 Cd1_2 1_555 1_555
O11_2 C18_2 1_555 1_555
O13_2 Cd2_2 1_555 1_555
O16_2 Cd1_2 1_555 1_555
O17_2 Cd1_2 1_555 1_555
O18_2 Mn1_2 1_555 1_555
O19_2 C28_2 1_555 1_555
O20_2 Cd2_2 1_555 1_555
O21_2 Cd1_2 1_555 1_555
O22_2 Cd2_2 1_555 1_555
N1_2 Cd2_2 1_555 1_555
C4_2 H7_2 1_555 1_555
H8_2 C4_2 1_555 1_555
C7_2 N1_2 1_555 1_555
H9_2 C7_2 1_555 1_555
H10_2 C8_2 1_555 1_555
C18_2 O13_2 1_555 1_555
C19_2 C18_2 1_555 1_555
H21_2 C19_2 1_555 1_555
H22_2 C19_2 1_555 1_555
H23_2 C19_2 1_555 1_555
C24_2 O16_2 1_555 1_555
C26_2 C24_2 1_555 1_555
H32_2 C26_2 1_555 1_555
H33_2 C26_2 1_555 1_555
H34_2 C26_2 1_555 1_555
C27_2 H35_2 1_555 1_555
H36_2 C27_2 1_555 1_555
H37_2 C27_2 1_555 1_555
C28_2 O20_2 1_555 1_555
C29_2 O22_2 1_555 1_555
C30_2 O4_2 1_555 1_555
C31_2 C30_2 1_555 1_555
H38_2 C31_2 1_555 1_555
H39_2 C31_2 1_555 1_555
H40_2 C31_2 1_555 1_555
C32_2 C29_2 1_555 1_555
H43_2 C32_2 1_555 1_555
H44_2 C32_2 1_555 1_555
H45_2 C32_2 1_555 1_555
O24_2 Cd2_2 1_555 1_555
Mn7_2 O18_2 1_555 1_555
Mn9_2 O4_2 1_555 1_555
O26_2 Mn7_2 1_555 1_555
H46_2 O26_2 1_555 1_555
H47_2 O26_2 1_555 1_555
O27_2 Mn9_2 1_555 1_555
O29_2 Mn7_2 1_555 1_555
O30_2 Mn8_2 1_555 1_555
O32_2 Mn1_2 1_555 1_555
O33_2 Mn5_2 1_555 1_555
O34_2 Mn1_2 1_555 1_555
O36_2 Mn5_2 1_555 1_555
O38_2 Mn9_2 1_555 1_555
O39_2 Mn7_2 1_555 1_555
N4_2 C46_2 1_555 1_555
C34_2 O27_2 1_555 1_555
H48_2 C34_2 1_555 1_555
C35_2 O29_2 1_555 1_555
H50_2 C35_2 1_555 1_555
H51_2 C35_2 1_555 1_555
C37_2 C34_2 1_555 1_555
C38_2 O30_2 1_555 1_555
C41_2 O33_2 1_555 1_555
H56_2 C41_2 1_555 1_555
H57_2 C41_2 1_555 1_555
C42_2 O34_2 1_555 1_555
H58_2 C42_2 1_555 1_555
H59_2 C42_2 1_555 1_555
C43_2 O32_2 1_555 1_555
H60_2 C43_2 1_555 1_555
H61_2 C43_2 1_555 1_555
C44_2 C41_2 1_555 1_555
C45_2 C44_2 1_555 1_555
C46_2 H62_2 1_555 1_555
C47_2 C45_2 1_555 1_555
H63_2 C47_2 1_555 1_555
C48_2 N4_2 1_555 1_555
H64_2 C48_2 1_555 1_555
C49_2 C45_2 1_555 1_555
H65_2 C49_2 1_555 1_555
C52_2 C38_2 1_555 1_555
H69_2 C52_2 1_555 1_555
H70_2 C52_2 1_555 1_555
H71_2 C52_2 1_555 1_555
C54_2 O38_2 1_555 1_555
C57_2 C54_2 1_555 1_555
H74_2 C57_2 1_555 1_555
H75_2 C57_2 1_555 1_555
Cd8 N4_2 1_555 1_555
Mn11_2 O19_2 1_555 1_555
Mn14_2 O11_2 1_555 1_555
O49_2 Mn7_2 1_555 1_555
O51_2 Mn1_2 1_555 1_555
Mn5_2 O34_2 1_555 1_555
O17_2 C24_2 1_555 1_555
O18_2 Mn9_2 1_555 1_555
O21_2 C30_2 1_555 1_555
C7_2 C8_2 1_555 1_555
C27_2 C28_2 1_555 1_555
C29_2 O24_2 1_555 1_555
Mn7_2 O32_2 1_555 1_555
Mn8_2 O29_2 1_555 1_555
Mn8_2 O32_2 1_555 1_555
Mn8_2 O33_2 1_555 1_555
Mn8_2 O36_2 1_555 1_555
Mn9_2 O29_2 1_555 1_555
Mn9_2 O36_2 1_555 1_555
O39_2 C54_2 1_555 1_555
C35_2 C37_2 1_555 1_555
C42_2 C44_2 1_555 1_555
C43_2 C44_2 1_555 1_555
C46_2 C47_2 1_555 1_555
C48_2 C49_2 1_555 1_555
Mn2_2 O2_2 1_555 1_555
Mn4_2 O3_2 1_555 1_555
O2_2 H1_2 1_555 1_555
H2_2 O2_2 1_555 1_555
O5_2 Mn2_2 1_555 1_555
O6_2 Mn3_2 1_555 1_555
O8_2 Mn2_2 1_555 1_555
O10_2 C10_2 1_555 1_555
O12_2 Mn3_2 1_555 1_555
O14_2 Mn4_2 1_555 1_555
O15_2 Mn2_2 1_555 1_555
N5 C14_2 1_555 1_555
C1_2 C5_2 1_555 1_555
C2_2 O3_2 1_555 1_555
H3_2 C2_2 1_555 1_555
C3_2 O5_2 1_555 1_555
H5_2 C3_2 1_555 1_555
H6_2 C3_2 1_555 1_555
C5_2 C2_2 1_555 1_555
C6_2 O6_2 1_555 1_555
C9_2 O9_2 1_555 1_555
H11_2 C9_2 1_555 1_555
H12_2 C9_2 1_555 1_555
C10_2 H13_2 1_555 1_555
H14_2 C10_2 1_555 1_555
C11_2 O8_2 1_555 1_555
H15_2 C11_2 1_555 1_555
H16_2 C11_2 1_555 1_555
C12_2 C9_2 1_555 1_555
C13_2 C12_2 1_555 1_555
C14_2 H17_2 1_555 1_555
C15_2 C13_2 1_555 1_555
H18_2 C15_2 1_555 1_555
C16_2 N5 1_555 1_555
H19_2 C16_2 1_555 1_555
C17_2 C13_2 1_555 1_555
H20_2 C17_2 1_555 1_555
C20_2 C6_2 1_555 1_555
H24_2 C20_2 1_555 1_555
H25_2 C20_2 1_555 1_555
H26_2 C20_2 1_555 1_555
H27_2 C21_2 1_555 1_555
C22_2 O14_2 1_555 1_555
C23_2 C1_2 1_555 1_555
H28_2 C23_2 1_555 1_555
C25_2 C22_2 1_555 1_555
H29_2 C25_2 1_555 1_555
H30_2 C25_2 1_555 1_555
H31_2 C25_2 1_555 1_555
Cd4_2 O25_2 1_555 1_555
Mn6_2 O8_2 1_555 1_555
Mn10_2 O9_2 1_555 1_555
O25_2 Mn10_2 1_555 1_555
O28_2 Mn4_2 1_555 1_555
O31_2 Cd4_2 1_555 1_555
O40_2 Cd4_2 1_555 1_555
O41_2 Cd4_2 1_555 1_555
O42_2 Mn2_2 1_555 1_555
O45_2 Cd4_2 1_555 1_555
C36_2 O25_2 1_555 1_555
H52_2 C36_2 1_555 1_555
H53_2 C36_2 1_555 1_555
C56_2 O40_2 1_555 1_555
C58_2 C56_2 1_555 1_555
H77_2 C58_2 1_555 1_555
H78_2 C58_2 1_555 1_555
H79_2 C58_2 1_555 1_555
C62_2 O28_2 1_555 1_555
C63_2 C62_2 1_555 1_555
H83_2 C63_2 1_555 1_555
H84_2 C63_2 1_555 1_555
H85_2 C63_2 1_555 1_555
O50_2 Mn2_2 1_555 1_555
O52_2 Mn6_2 1_555 1_555
Mn3_2 O5_2 1_555 1_555
Mn3_2 O8_2 1_555 1_555
Mn3_2 O9_2 1_555 1_555
Mn4_2 O5_2 1_555 1_555
Mn4_2 O12_2 1_555 1_555
Mn4_2 O42_2 1_555 1_555
O10_2 Mn6_2 1_555 1_555
O10_2 Mn10_2 1_555 1_555
O12_2 Mn10_2 1_555 1_555
O15_2 C22_2 1_555 1_555
C3_2 C5_2 1_555 1_555
C10_2 C12_2 1_555 1_555
C11_2 C12_2 1_555 1_555
C14_2 C15_2 1_555 1_555
C16_2 C17_2 1_555 1_555
C21_2 C23_2 1_555 1_555
Cd4_2 O28_2 1_555 1_555
Mn6_2 O40_2 1_555 1_555
Mn6_2 O42_2 1_555 1_555
O41_2 C56_2 1_555 1_555
O45_2 C62_2 1_555 1_555
Cd7_2 O54_2 1_555 1_555
H72_2 C53_2 1_555 1_555
C55_2 C33_2 1_555 1_555
H73_2 C55_2 1_555 1_555
C53_2 C55_2 1_555 1_555
Cd7_2 O35_2 1_555 1_555
O35_2 C50_2 1_555 1_555
O37_2 Cd7_2 1_555 1_555
O43_2 C60_2 1_555 1_555
O44_2 Cd7_2 1_555 1_555
O46_2 Cd7_2 1_555 1_555
N3_2 Cd7_2 1_555 1_555
C39_2 N3_2 1_555 1_555
H54_2 C39_2 1_555 1_555
H55_2 C40_2 1_555 1_555
C50_2 O37_2 1_555 1_555
C51_2 C50_2 1_555 1_555
H66_2 C51_2 1_555 1_555
H67_2 C51_2 1_555 1_555
H68_2 C51_2 1_555 1_555
C59_2 H80_2 1_555 1_555
H81_2 C59_2 1_555 1_555
H82_2 C59_2 1_555 1_555
C60_2 O44_2 1_555 1_555
C61_2 O46_2 1_555 1_555
C64_2 C61_2 1_555 1_555
H86_2 C64_2 1_555 1_555
H87_2 C64_2 1_555 1_555
H88_2 C64_2 1_555 1_555
Mn12_2 O43_2 1_555 1_555
Mn13_2 O35_2 1_555 1_555
C39_2 C40_2 1_555 1_555
C59_2 C60_2 1_555 1_555
C61_2 O54_2 1_555 1_555
Cd2_3 O49_2 1_555 1_555
O49_2 C18_3 1_555 1_555
O13_3 Cd2_3 1_555 1_555
O51_2 C28_3 1_555 1_555
O20_3 Cd2_3 1_555 1_555
O22_3 Cd2_3 1_555 1_555
N1_3 Cd2_3 1_555 1_555
C7_3 N1_3 1_555 1_555
H9_3 C7_3 1_555 1_555
C8_3 C1_3 1_555 1_555
H10_3 C8_3 1_555 1_555
C18_3 O13_3 1_555 1_555
C19_3 C18_3 1_555 1_555
H21_3 C19_3 1_555 1_555
H22_3 C19_3 1_555 1_555
H23_3 C19_3 1_555 1_555
C21_3 N1_3 1_555 1_555
H27_3 C21_3 1_555 1_555
C23_3 C1_3 1_555 1_555
H28_3 C23_3 1_555 1_555
C27_3 H35_3 1_555 1_555
H36_3 C27_3 1_555 1_555
H37_3 C27_3 1_555 1_555
C28_3 O20_3 1_555 1_555
C29_3 O22_3 1_555 1_555
C32_3 C29_3 1_555 1_555
H43_3 C32_3 1_555 1_555
H44_3 C32_3 1_555 1_555
H45_3 C32_3 1_555 1_555
O24_3 Cd2_3 1_555 1_555
Cd7_3 O24_3 1_555 1_555
O54_3 Cd2_3 1_555 1_555
C7_3 C8_3 1_555 1_555
C21_3 C23_3 1_555 1_555
C27_3 C28_3 1_555 1_555
C29_3 O24_3 1_555 1_555
Cd7_3 O54_3 1_555 1_555
Cd1_3 O1_3 1_555 1_555
Cd3_3 N2_2 1_555 1_555
Mn11_2 O16_3 1_555 1_555
Mn13_2 O2_3 1_555 1_555
Mn3_3 O1_3 1_555 1_555
Mn4_3 O3_3 1_555 1_555
Mn5_3 O1_3 1_555 1_555
O1_3 C4_3 1_555 1_555
O2_3 H1_3 1_555 1_555
H2_3 O2_3 1_555 1_555
O3_3 Mn5_3 1_555 1_555
O4_3 Cd1_3 1_555 1_555
O5_3 Mn13_2 1_555 1_555
O6_3 Mn3_3 1_555 1_555
O7_3 Cd1_3 1_555 1_555
O8_3 Mn13_2 1_555 1_555
O9_3 Cd1_3 1_555 1_555
O10_3 C10_3 1_555 1_555
O12_3 Mn3_3 1_555 1_555
O14_3 Mn4_3 1_555 1_555
O15_3 Mn13_2 1_555 1_555
O16_3 Cd1_3 1_555 1_555
O17_3 Cd1_3 1_555 1_555
O18_3 Mn11_2 1_555 1_555
O21_3 Cd1_3 1_555 1_555
N2_2 C14_3 1_555 1_555
C2_3 O3_3 1_555 1_555
H3_3 C2_3 1_555 1_555
H4_3 C2_3 1_555 1_555
C3_3 O5_3 1_555 1_555
H5_3 C3_3 1_555 1_555
H6_3 C3_3 1_555 1_555
C4_3 H7_3 1_555 1_555
H8_3 C4_3 1_555 1_555
C5_3 C2_3 1_555 1_555
C6_3 O6_3 1_555 1_555
C9_3 O9_3 1_555 1_555
H11_3 C9_3 1_555 1_555
H12_3 C9_3 1_555 1_555
C10_3 H13_3 1_555 1_555
H14_3 C10_3 1_555 1_555
C11_3 O8_3 1_555 1_555
H15_3 C11_3 1_555 1_555
H16_3 C11_3 1_555 1_555
C12_3 C9_3 1_555 1_555
C13_3 C12_3 1_555 1_555
C14_3 H17_3 1_555 1_555
C15_3 C13_3 1_555 1_555
H18_3 C15_3 1_555 1_555
C16_3 N2_2 1_555 1_555
H19_3 C16_3 1_555 1_555
C17_3 C13_3 1_555 1_555
H20_3 C17_3 1_555 1_555
C20_3 C6_3 1_555 1_555
H24_3 C20_3 1_555 1_555
H25_3 C20_3 1_555 1_555
H26_3 C20_3 1_555 1_555
C22_3 O14_3 1_555 1_555
C24_3 O16_3 1_555 1_555
C25_3 C22_3 1_555 1_555
H29_3 C25_3 1_555 1_555
H30_3 C25_3 1_555 1_555
C26_3 C24_3 1_555 1_555
H32_3 C26_3 1_555 1_555
H33_3 C26_3 1_555 1_555
H34_3 C26_3 1_555 1_555
C30_3 O4_3 1_555 1_555
C31_3 C30_3 1_555 1_555
H38_3 C31_3 1_555 1_555
H39_3 C31_3 1_555 1_555
H40_3 C31_3 1_555 1_555
O23_2 Cd3_3 1_555 1_555
H41_2 O23_2 1_555 1_555
H42_2 O23_2 1_555 1_555
Cd4_3 O25_3 1_555 1_555
Cd7_3 O50_2 1_555 1_555
Mn12_2 O8_3 1_555 1_555
Mn14_2 O18_3 1_555 1_555
Mn8_3 O25_3 1_555 1_555
Mn9_3 O4_3 1_555 1_555
Mn10_3 O9_3 1_555 1_555
O25_3 Mn10_3 1_555 1_555
O26_3 Mn14_2 1_555 1_555
H46_3 O26_3 1_555 1_555
H47_3 O26_3 1_555 1_555
O27_3 Mn9_3 1_555 1_555
O28_3 Mn4_3 1_555 1_555
O29_3 Mn14_2 1_555 1_555
O30_3 Mn8_3 1_555 1_555
O31_3 Cd4_3 1_555 1_555
O32_3 Mn11_2 1_555 1_555
O33_3 Mn5_3 1_555 1_555
O34_3 Mn11_2 1_555 1_555
O50_2 C50_3 1_555 1_555
O36_3 Mn5_3 1_555 1_555
O37_3 Cd7_3 1_555 1_555
O38_3 Mn9_3 1_555 1_555
O39_3 Mn14_2 1_555 1_555
O40_3 Cd4_3 1_555 1_555
O41_3 Cd4_3 1_555 1_555
O42_3 Mn13_2 1_555 1_555
O52_2 C60_3 1_555 1_555
O44_3 Cd7_3 1_555 1_555
O45_3 Cd4_3 1_555 1_555
O46_3 Cd7_3 1_555 1_555
N3_3 Cd7_3 1_555 1_555
N4_3 C46_3 1_555 1_555
C33_3 C37_3 1_555 1_555
C34_3 O27_3 1_555 1_555
H48_3 C34_3 1_555 1_555
H49_3 C34_3 1_555 1_555
C35_3 O29_3 1_555 1_555
H50_3 C35_3 1_555 1_555
H51_3 C35_3 1_555 1_555
C36_3 O25_3 1_555 1_555
H52_3 C36_3 1_555 1_555
H53_3 C36_3 1_555 1_555
C37_3 C34_3 1_555 1_555
C38_3 O30_3 1_555 1_555
C39_3 N3_3 1_555 1_555
H54_3 C39_3 1_555 1_555
C40_3 C33_3 1_555 1_555
H55_3 C40_3 1_555 1_555
C41_3 O33_3 1_555 1_555
H56_3 C41_3 1_555 1_555
H57_3 C41_3 1_555 1_555
C42_3 O34_3 1_555 1_555
H58_3 C42_3 1_555 1_555
H59_3 C42_3 1_555 1_555
C43_3 O32_3 1_555 1_555
H60_3 C43_3 1_555 1_555
H61_3 C43_3 1_555 1_555
C44_3 C41_3 1_555 1_555
C45_3 C44_3 1_555 1_555
C46_3 H62_3 1_555 1_555
C47_3 C45_3 1_555 1_555
H63_3 C47_3 1_555 1_555
C48_3 N4_3 1_555 1_555
H64_3 C48_3 1_555 1_555
C49_3 C45_3 1_555 1_555
H65_3 C49_3 1_555 1_555
C50_3 O37_3 1_555 1_555
C51_3 C50_3 1_555 1_555
H66_3 C51_3 1_555 1_555
H67_3 C51_3 1_555 1_555
H68_3 C51_3 1_555 1_555
C52_3 C38_3 1_555 1_555
H69_3 C52_3 1_555 1_555
H70_3 C52_3 1_555 1_555
H71_3 C52_3 1_555 1_555
C53_3 N3_3 1_555 1_555
H72_3 C53_3 1_555 1_555
C54_3 O38_3 1_555 1_555
C55_3 C33_3 1_555 1_555
H73_3 C55_3 1_555 1_555
C56_3 O40_3 1_555 1_555
C57_3 C54_3 1_555 1_555
H74_3 C57_3 1_555 1_555
H75_3 C57_3 1_555 1_555
H76_3 C57_3 1_555 1_555
C58_3 C56_3 1_555 1_555
H77_3 C58_3 1_555 1_555
H78_3 C58_3 1_555 1_555
H79_3 C58_3 1_555 1_555
C59_3 H80_3 1_555 1_555
H81_3 C59_3 1_555 1_555
H82_3 C59_3 1_555 1_555
C60_3 O44_3 1_555 1_555
C61_3 O46_3 1_555 1_555
C62_3 O28_3 1_555 1_555
C63_3 C62_3 1_555 1_555
H83_3 C63_3 1_555 1_555
H84_3 C63_3 1_555 1_555
H85_3 C63_3 1_555 1_555
C64_3 C61_3 1_555 1_555
H86_3 C64_3 1_555 1_555
H87_3 C64_3 1_555 1_555
H88_3 C64_3 1_555 1_555
O48_2 Cd3_3 1_555 1_555
H89_2 O48_2 1_555 1_555
H90_2 O48_2 1_555 1_555
N5_2 Cd3_3 1_555 1_555
Mn3_3 O5_3 1_555 1_555
Mn3_3 O8_3 1_555 1_555
Mn3_3 O9_3 1_555 1_555
Mn4_3 O5_3 1_555 1_555
Mn4_3 O12_3 1_555 1_555
Mn4_3 O42_3 1_555 1_555
Mn5_3 O12_3 1_555 1_555
Mn5_3 O34_3 1_555 1_555
O7_3 C6_3 1_555 1_555
O10_3 Mn12_2 1_555 1_555
O10_3 Mn10_3 1_555 1_555
O12_3 Mn10_3 1_555 1_555
O15_3 C22_3 1_555 1_555
O17_3 C24_3 1_555 1_555
O18_3 Mn9_3 1_555 1_555
O21_3 C30_3 1_555 1_555
C3_3 C5_3 1_555 1_555
C4_3 C5_3 1_555 1_555
C10_3 C12_3 1_555 1_555
C11_3 C12_3 1_555 1_555
C14_3 C15_3 1_555 1_555
C16_3 C17_3 1_555 1_555
Cd4_3 O28_3 1_555 1_555
Cd4_3 O33_3 1_555 1_555
Mn12_2 O40_3 1_555 1_555
Mn12_2 O42_3 1_555 1_555
Mn14_2 O32_3 1_555 1_555
Mn8_3 O29_3 1_555 1_555
Mn8_3 O32_3 1_555 1_555
Mn8_3 O33_3 1_555 1_555
Mn8_3 O36_3 1_555 1_555
Mn9_3 O29_3 1_555 1_555
Mn9_3 O36_3 1_555 1_555
Mn10_3 O27_3 1_555 1_555
Mn10_3 O36_3 1_555 1_555
O31_3 C38_3 1_555 1_555
O39_3 C54_3 1_555 1_555
O41_3 C56_3 1_555 1_555
O45_3 C62_3 1_555 1_555
C35_3 C37_3 1_555 1_555
C36_3 C37_3 1_555 1_555
C39_3 C40_3 1_555 1_555
C42_3 C44_3 1_555 1_555
C43_3 C44_3 1_555 1_555
C46_3 C47_3 1_555 1_555
C48_3 C49_3 1_555 1_555
C53_3 C55_3 1_555 1_555
C59_3 C60_3 1_555 1_555
C61_3 O54_3 1_555 1_555
Cd2_4 O49 1_555 1_555
O49 C18_4 1_555 1_555
O13_4 Cd2_4 1_555 1_555
O51 C28_4 1_555 1_555
O20_4 Cd2_4 1_555 1_555
O22_4 Cd2_4 1_555 1_555
N1_4 Cd2_4 1_555 1_555
C7_4 N1_4 1_555 1_555
H9_4 C7_4 1_555 1_555
H10_4 C8_4 1_555 1_555
C18_4 O13_4 1_555 1_555
C19_4 C18_4 1_555 1_555
H21_4 C19_4 1_555 1_555
H22_4 C19_4 1_555 1_555
H23_4 C19_4 1_555 1_555
C27_4 H35_4 1_555 1_555
H36_4 C27_4 1_555 1_555
H37_4 C27_4 1_555 1_555
C28_4 O20_4 1_555 1_555
C29_4 O22_4 1_555 1_555
C32_4 C29_4 1_555 1_555
H43_4 C32_4 1_555 1_555
H44_4 C32_4 1_555 1_555
H45_4 C32_4 1_555 1_555
O24_4 Cd2_4 1_555 1_555
C7_4 C8_4 1_555 1_555
C27_4 C28_4 1_555 1_555
C29_4 O24_4 1_555 1_555
H27_4 C21_4 1_555 1_555
C23_4 C1_4 1_555 1_555
H28_4 C23_4 1_555 1_555
C21_4 C23_4 1_555 1_555
Cd7_4 O54_4 1_555 1_555
Cd1_4 O1_4 1_555 1_555
Mn11 O16_4 1_555 1_555
Mn5_4 O1_4 1_555 1_555
O1_4 C4_4 1_555 1_555
O4_4 Cd1_4 1_555 1_555
O7_4 Cd1_4 1_555 1_555
O16_4 Cd1_4 1_555 1_555
O17_4 Cd1_4 1_555 1_555
O18_4 Mn11 1_555 1_555
O21_4 Cd1_4 1_555 1_555
C4_4 H7_4 1_555 1_555
H8_4 C4_4 1_555 1_555
C24_4 O16_4 1_555 1_555
C26_4 C24_4 1_555 1_555
H32_4 C26_4 1_555 1_555
H33_4 C26_4 1_555 1_555
H34_4 C26_4 1_555 1_555
C30_4 O4_4 1_555 1_555
C31_4 C30_4 1_555 1_555
H38_4 C31_4 1_555 1_555
H39_4 C31_4 1_555 1_555
H40_4 C31_4 1_555 1_555
Mn14 O18_4 1_555 1_555
Mn9_4 O4_4 1_555 1_555
O26_4 Mn14 1_555 1_555
H46_4 O26_4 1_555 1_555
H47_4 O26_4 1_555 1_555
O27_4 Mn9_4 1_555 1_555
O29_4 Mn14 1_555 1_555
O30_4 Mn8_4 1_555 1_555
O32_4 Mn11 1_555 1_555
O33_4 Mn5_4 1_555 1_555
O34_4 Mn11 1_555 1_555
O36_4 Mn5_4 1_555 1_555
O38_4 Mn9_4 1_555 1_555
O39_4 Mn14 1_555 1_555
N4_4 C46_4 1_555 1_555
C33_4 C37_4 1_555 1_555
C34_4 O27_4 1_555 1_555
H48_4 C34_4 1_555 1_555
C35_4 O29_4 1_555 1_555
H50_4 C35_4 1_555 1_555
H51_4 C35_4 1_555 1_555
C37_4 C34_4 1_555 1_555
C38_4 O30_4 1_555 1_555
C41_4 O33_4 1_555 1_555
H56_4 C41_4 1_555 1_555
H57_4 C41_4 1_555 1_555
C42_4 O34_4 1_555 1_555
H58_4 C42_4 1_555 1_555
H59_4 C42_4 1_555 1_555
C43_4 O32_4 1_555 1_555
H60_4 C43_4 1_555 1_555
H61_4 C43_4 1_555 1_555
C44_4 C41_4 1_555 1_555
C45_4 C44_4 1_555 1_555
C46_4 H62_4 1_555 1_555
C47_4 C45_4 1_555 1_555
H63_4 C47_4 1_555 1_555
C48_4 N4_4 1_555 1_555
H64_4 C48_4 1_555 1_555
C49_4 C45_4 1_555 1_555
H65_4 C49_4 1_555 1_555
C52_4 C38_4 1_555 1_555
H69_4 C52_4 1_555 1_555
H70_4 C52_4 1_555 1_555
H71_4 C52_4 1_555 1_555
H72_4 C53_4 1_555 1_555
C54_4 O38_4 1_555 1_555
C55_4 C33_4 1_555 1_555
H73_4 C55_4 1_555 1_555
C57_4 C54_4 1_555 1_555
H74_4 C57_4 1_555 1_555
H75_4 C57_4 1_555 1_555
H76_4 C57_4 1_555 1_555
Mn5_4 O34_4 1_555 1_555
O17_4 C24_4 1_555 1_555
O18_4 Mn9_4 1_555 1_555
O21_4 C30_4 1_555 1_555
Mn14 O32_4 1_555 1_555
Mn8_4 O29_4 1_555 1_555
Mn8_4 O32_4 1_555 1_555
Mn8_4 O33_4 1_555 1_555
Mn8_4 O36_4 1_555 1_555
Mn9_4 O29_4 1_555 1_555
Mn9_4 O36_4 1_555 1_555
O39_4 C54_4 1_555 1_555
C35_4 C37_4 1_555 1_555
C42_4 C44_4 1_555 1_555
C43_4 C44_4 1_555 1_555
C46_4 C47_4 1_555 1_555
C48_4 C49_4 1_555 1_555
C53_4 C55_4 1_555 1_555
Mn13 O2_4 1_555 1_555
Mn4_4 O3_4 1_555 1_555
O2_4 H1_4 1_555 1_555
H2_4 O2_4 1_555 1_555
O5_4 Mn13 1_555 1_555
O6_4 Mn3_4 1_555 1_555
O8_4 Mn13 1_555 1_555
O10_4 C10_4 1_555 1_555
O12_4 Mn3_4 1_555 1_555
O14_4 Mn4_4 1_555 1_555
O15_4 Mn13 1_555 1_555
N5_2 C14_4 1_555 1_555
C2_4 O3_4 1_555 1_555
H3_4 C2_4 1_555 1_555
C3_4 O5_4 1_555 1_555
H5_4 C3_4 1_555 1_555
H6_4 C3_4 1_555 1_555
C5_4 C2_4 1_555 1_555
C6_4 O6_4 1_555 1_555
C9_4 O9_4 1_555 1_555
H11_4 C9_4 1_555 1_555
H12_4 C9_4 1_555 1_555
C10_4 H13_4 1_555 1_555
H14_4 C10_4 1_555 1_555
C11_4 O8_4 1_555 1_555
H15_4 C11_4 1_555 1_555
H16_4 C11_4 1_555 1_555
C12_4 C9_4 1_555 1_555
C13_4 C12_4 1_555 1_555
C14_4 H17_4 1_555 1_555
C15_4 C13_4 1_555 1_555
H18_4 C15_4 1_555 1_555
C16_4 N5_2 1_555 1_555
H19_4 C16_4 1_555 1_555
C17_4 C13_4 1_555 1_555
H20_4 C17_4 1_555 1_555
C20_4 C6_4 1_555 1_555
H24_4 C20_4 1_555 1_555
H25_4 C20_4 1_555 1_555
H26_4 C20_4 1_555 1_555
C22_4 O14_4 1_555 1_555
C25_4 C22_4 1_555 1_555
H29_4 C25_4 1_555 1_555
H30_4 C25_4 1_555 1_555
Cd4_4 O25_4 1_555 1_555
Cd7_4 O50 1_555 1_555
Mn12 O8_4 1_555 1_555
Mn10_4 O9_4 1_555 1_555
O25_4 Mn10_4 1_555 1_555
O28_4 Mn4_4 1_555 1_555
O31_4 Cd4_4 1_555 1_555
O50 C50_4 1_555 1_555
O37_4 Cd7_4 1_555 1_555
O40_4 Cd4_4 1_555 1_555
O41_4 Cd4_4 1_555 1_555
O42_4 Mn13 1_555 1_555
O52 C60_4 1_555 1_555
O44_4 Cd7_4 1_555 1_555
O45_4 Cd4_4 1_555 1_555
O46_4 Cd7_4 1_555 1_555
N3_4 Cd7_4 1_555 1_555
C36_4 O25_4 1_555 1_555
H52_4 C36_4 1_555 1_555
H53_4 C36_4 1_555 1_555
C39_4 N3_4 1_555 1_555
H54_4 C39_4 1_555 1_555
H55_4 C40_4 1_555 1_555
C50_4 O37_4 1_555 1_555
C51_4 C50_4 1_555 1_555
H66_4 C51_4 1_555 1_555
H67_4 C51_4 1_555 1_555
H68_4 C51_4 1_555 1_555
C56_4 O40_4 1_555 1_555
C58_4 C56_4 1_555 1_555
H77_4 C58_4 1_555 1_555
H78_4 C58_4 1_555 1_555
H79_4 C58_4 1_555 1_555
C59_4 H80_4 1_555 1_555
H81_4 C59_4 1_555 1_555
H82_4 C59_4 1_555 1_555
C60_4 O44_4 1_555 1_555
C61_4 O46_4 1_555 1_555
C62_4 O28_4 1_555 1_555
C63_4 C62_4 1_555 1_555
H83_4 C63_4 1_555 1_555
H84_4 C63_4 1_555 1_555
H85_4 C63_4 1_555 1_555
C64_4 C61_4 1_555 1_555
H86_4 C64_4 1_555 1_555
H87_4 C64_4 1_555 1_555
H88_4 C64_4 1_555 1_555
Mn3_4 O5_4 1_555 1_555
Mn3_4 O8_4 1_555 1_555
Mn3_4 O9_4 1_555 1_555
Mn4_4 O5_4 1_555 1_555
Mn4_4 O12_4 1_555 1_555
Mn4_4 O42_4 1_555 1_555
O10_4 Mn12 1_555 1_555
O10_4 Mn10_4 1_555 1_555
O12_4 Mn10_4 1_555 1_555
O15_4 C22_4 1_555 1_555
C3_4 C5_4 1_555 1_555
C10_4 C12_4 1_555 1_555
C11_4 C12_4 1_555 1_555
C14_4 C15_4 1_555 1_555
C16_4 C17_4 1_555 1_555
Cd4_4 O28_4 1_555 1_555
Mn12 O40_4 1_555 1_555
Mn12 O42_4 1_555 1_555
O41_4 C56_4 1_555 1_555
O45_4 C62_4 1_555 1_555
C39_4 C40_4 1_555 1_555
C59_4 C60_4 1_555 1_555
C61_4 O54_4 1_555 1_555
O23_3 Cd8_2 1_555 1_555
H41_3 O23_3 1_555 1_555
H42_3 O23_3 1_555 1_555
O48_3 Cd8_3 1_555 1_555
H89_3 O48_3 1_555 1_555
H90_3 O48_3 1_555 1_555
O23_4 Cd8 1_555 1_555
H41_4 O23_4 1_555 1_555
H42_4 O23_4 1_555 1_555
O48_4 Cd8 1_555 1_555
H89_4 O48_4 1_555 1_555
H90_4 O48_4 1_555 1_555

#END
