
###############################################################################
#
# This file contains modified crystal structure data generated from the
# MOF subset of the Cambridge Structural Database (CSD) v543 
# hosted by the Cambridge Crystallographic Data Centre (CCDC).
#
# This work is licensed under the Creative Commons
# Attribution-NonCommercial-ShareAlike 4.0 International License.
# To view a copy of this license, visit
# http://creativecommons.org/licenses/by-nc-sa/4.0/
# or send a letter to
# Creative Commons, PO Box 1866, Mountain View, CA 94042, USA.
#
# CIF created using the CSD Python API on 29 September 2022
# The structure has been converted into the P1 space group
# The structure has a 3D framework
# The original CSD entry EGAXAO is in the orthorhombic crystal system
# The framework has been calculated to contain at least 10.0% void space
# The void calculation uses a probe of radius 1.32A, grid spacing 0.4
# The framework is charged, counterions have been retained in the structure
# H atom positions have been added when not included in the experimental data
#
###############################################################################

data_EGAXAO
_chemical_formula_moiety         '(C432 H600 Cd40 Cu54 N32 O272 12+)n'
_symmetry_cell_setting           triclinic
_symmetry_space_group_name_H-M   'P 1'
_symmetry_Int_Tables_number      1
_space_group_name_Hall           'P 1'
loop_
_symmetry_equiv_pos_site_id
_symmetry_equiv_pos_as_xyz
1 x,y,z
_cell_length_a                   25.7917(10)
_cell_length_b                   33.4209(15)
_cell_length_c                   25.792
_cell_angle_alpha                90
_cell_angle_beta                 90
_cell_angle_gamma                90
_cell_volume                     22232.2
loop_
_atom_site_label
_atom_site_type_symbol
_atom_site_fract_x
_atom_site_fract_y
_atom_site_fract_z
H83 H 0.0476 0.1450 0.0070
C93 C 0.0349(8) 0.3592(7) 0.1739(10)
H109 H 0.0305 0.3797 0.1995
H110 H 0.0469 0.3710 0.1421
H111 H 0.0599 0.3400 0.1859
Cu15 Cu 0.0000 0.27203(8) 0.2500
N5 N 0.0623(3) 0.1766(3) 0.9439(3)
C70 C 0.0411(4) 0.2043(3) 0.9131(4)
H82 H 0.0592 0.2121 0.8836
C71 C 0.0348(4) 0.1654(3) 0.9862(4)
Cd11 Cd 0.14523(2) 0.15438(2) 0.92659(3)
Cu8 Cu 0.70301(5) 0.25692(4) 0.04289(5)
Cu10 Cu 0.76853(5) 0.32198(4) 0.10429(5)
Cu11 Cu 0.82147(5) 0.23895(4) 0.07382(5)
Cu12 Cu 0.85576(5) 0.31867(4) 0.01666(5)
Cd6 Cd 0.88832(2) 0.30401(2) 0.14252(2)
Cd7 Cd 0.64523(2) 0.34562(2) 0.07341(3)
Cd9 Cd 0.75106(3) 0.16796(2) 0.00728(3)
Cd10 Cd 0.65488(4) 0.10448(3) 0.06534(4)
N7 N 0.6890(3) 0.1881(2) 0.3144(2)
N8 N 0.8293(3) 0.5357(2) 0.0629(4)
C58 C 0.9273(5) 0.2556(4) 0.0360(5)
H72 H 0.9408 0.2365 0.0609
H73 H 0.9536 0.2758 0.0304
C61 C 0.7843(4) 0.2573(3) 0.1762(4)
H76 H 0.7809 0.2774 0.2031
H77 H 0.8074 0.2366 0.1889
C62 C 0.7147(3) 0.2209(2) 0.2190(2)
C63 C 0.7302(4) 0.2387(3) 0.1650(4)
H79 H 0.8854 0.1822 0.0156
C66 C 0.8057(5) 0.4080(4) 0.0490(5)
C67 C 0.8143(4) 0.4537(2) 0.0559(4)
H80 H 0.9729 0.1757 0.0299
C74 C 0.7353(4) 0.2055(3) 0.1257(4)
H86 H 0.7608 0.1865 0.1381
H87 H 0.7024 0.1917 0.1231
C75 C 0.6909(4) 0.2709(3) 0.1502(4)
H88 H 0.6571 0.2585 0.1469
H89 H 0.6889 0.2902 0.1782
C76 C 0.7482(4) 0.3997(4) 0.0638(5)
H90 H 0.7428 0.4070 0.0998
H91 H 0.7258 0.4164 0.0427
C78 C 0.6185(5) 0.1964(4) 0.0492(5)
C79 C 0.8428(5) 0.3856(4) 0.0840(5)
H94 H 0.8779 0.3924 0.0741
H95 H 0.8376 0.3948 0.1193
C80 C 0.8972(4) 0.2072(3) 0.1531(4)
C81 C 0.5614(6) 0.1807(5) 0.0465(7)
H96 H 0.5379 0.2027 0.0507
H97 H 0.5557 0.1615 0.0736
H98 H 0.5555 0.1683 0.0135
C82 C 0.9275(7) 0.1734(5) 0.1800(7)
H99 H 0.9514 0.1847 0.2044
H100 H 0.9462 0.1582 0.1544
H101 H 0.9037 0.1561 0.1978
C83 C 0.9808(7) 0.3373(6) 0.1641(8)
C88 C 0.6308(6) 0.3778(4) 0.1699(6)
C89 C 0.6340(8) 0.4007(6) 0.2178(8)
H106 H 0.6071 0.3922 0.2410
H107 H 0.6297 0.4287 0.2102
H108 H 0.6672 0.3965 0.2336
C94 C 0.8023(5) 0.3553(4) 0.2095(5)
C95 C 0.7931(9) 0.3806(7) 0.2560(9)
H112 H 0.7582 0.3906 0.2553
H113 H 0.8170 0.4027 0.2560
H114 H 0.7982 0.3649 0.2867
C96 C 0.7895(7) 0.1077(5) 0.0730(6)
C97 C 0.8064(10) 0.0734(7) 0.1065(10)
H115 H 0.7812 0.0690 0.1333
H116 H 0.8393 0.0794 0.1219
H117 H 0.8095 0.0497 0.0857
C100 C 0.6841(4) 0.2421(2) 0.2535(3)
H124 H 0.6717 0.2673 0.2446
C101 C 0.6717(4) 0.2258(2) 0.3013(3)
H125 H 0.6517 0.2404 0.3246
C102 C 0.7210(3) 0.1673(2) 0.2806(3)
H126 H 0.7341 0.1424 0.2900
C103 C 0.7333(3) 0.1835(2) 0.2328(3)
H127 H 0.7542 0.1692 0.2099
C105 C 0.7924(4) 0.5203(2) 0.0291(4)
H131 H 0.7728 0.5375 0.0087
C106 C 0.8581(3) 0.5101(2) 0.0933(3)
H132 H 0.8826 0.5204 0.1163
C107 C 0.7849(3) 0.4794(3) 0.0258(4)
H133 H 0.7601 0.4692 0.0033
C108 C 0.8509(3) 0.4691(2) 0.0899(3)
H134 H 0.8706 0.4519 0.1103
O35 O 0.6774(2) 0.3035(2) 0.0035(2)
O36 O 0.9305(3) 0.3485(3) 0.0013(4)
O37 O 0.7498(2) 0.2184(2) 0.0767(3)
O39 O 0.7023(3) 0.2916(2) 0.1035(3)
O40 O 0.6062(7) 0.0992(6) 0.1509(8)
O42 O 0.6288(3) 0.3939(2) 0.0091(3)
O43 O 0.8820(2) 0.2741(2) 0.0572(3)
O44 O 0.8377(3) 0.3437(2) 0.0833(3)
O45 O 0.8060(2) 0.2748(2) 0.1316(2)
O47 O 0.8244(2) 0.2148(2) 0.0044(3)
O49 O 0.7338(3) 0.3591(2) 0.0570(3)
O50 O 0.8643(3) 0.1969(2) 0.1196(3)
O51 O 0.9116(3) 0.2413(2) 0.1661(3)
O53 O 0.9616(3) 0.3427(3) 0.1202(4)
O55 O 0.6542(3) 0.1697(3) 0.0442(4)
O56 O 0.9595(3) 0.3182(3) 0.1988(3)
O58 O 0.6173(4) 0.3419(3) 0.1647(4)
O59 O 0.6492(3) 0.3977(3) 0.1315(4)
O63 O 0.7443(5) 0.1216(4) 0.0790(5)
O64 O 0.8134(4) 0.1221(3) 0.0361(5)
O65 O 0.6264(3) 0.2320(2) 0.0522(3)
O67 O 0.8486(3) 0.3412(3) 0.2050(3)
O68 O 0.7664(3) 0.3541(3) 0.1765(3)
Cu15_2 Cu 1.0000 0.27203(8) 0.2500
Cd14 Cd 0.67457(3) 0.16007(2) 0.39332(3)
Cd15 Cd 0.84512(4) 0.60448(3) 0.06534(4)
N9 N 0.5623(3) 0.3234(3) 0.0561(3)
N13 N 0.6707(3) 0.0357(2) 0.0629(4)
H135 H 0.57023 0.109174 0.146269
H136 H 0.605262 0.0708119 0.162225
H138 H 0.613665 0.418169 0.0253566
Cu1 Cu 0.29699(5) 0.25692(4) 0.45711(5)
Cu2 Cu 0.20922(5) 0.25287(4) 0.54326(5)
Cu3 Cu 0.23147(5) 0.32198(4) 0.39571(5)
Cu4 Cu 0.17853(5) 0.23895(4) 0.42618(5)
Cu5 Cu 0.14424(5) 0.31867(4) 0.48334(5)
Cu6 Cu 0.26089(5) 0.33583(4) 0.51348(5)
Cu7 Cu 0.5000 0.22797(8) 0.7500
Cd1 Cd 0.11168(2) 0.30401(2) 0.35748(2)
Cd2 Cd 0.35477(2) 0.34562(2) 0.42659(3)
Cd3 Cd 0.17457(3) 0.33993(2) 0.60668(3)
Cd4 Cd 0.24894(3) 0.16796(2) 0.49272(3)
Cd5 Cd 0.34512(4) 0.10448(3) 0.43466(4)
N2 N 0.4485(3) 0.2417(3) 0.6995(3)
N3 N 0.3110(3) 0.1881(2) 0.1856(2)
N4 N 0.1707(3) 0.5357(2) 0.4371(4)
C1 C 0.3176(5) 0.2287(4) 0.5604(5)
H1 H 0.3482 0.2165 0.5454
H2 H 0.3065 0.2121 0.5892
C2 C 0.3323(4) 0.2709(4) 0.5815(4)
C3 C 0.3569(4) 0.2948(3) 0.5380(4)
H3 H 0.3698 0.3198 0.5521
H4 H 0.3863 0.2800 0.5246
C4 C 0.0727(5) 0.2556(4) 0.4640(5)
H5 H 0.0592 0.2365 0.4391
H6 H 0.0464 0.2758 0.4696
C5 C 0.0836(4) 0.2335(3) 0.5164(4)
C6 C 0.0998(4) 0.2637(3) 0.5583(4)
H7 H 0.0716 0.2825 0.5635
H8 H 0.1049 0.2494 0.5906
C7 C 0.2157(4) 0.2573(3) 0.3238(4)
H9 H 0.2191 0.2774 0.2969
H10 H 0.1926 0.2366 0.3111
C8 C 0.2853(3) 0.2209(2) 0.2810(2)
C9 C 0.2698(4) 0.2387(3) 0.3350(4)
C10 C 0.1262(4) 0.2014(3) 0.5101(4)
H11 H 0.1295 0.1873 0.5428
H12 H 0.1146 0.1822 0.4844
C11 C 0.0340(4) 0.2121(3) 0.5316(4)
C12 C 0.1943(5) 0.4080(4) 0.4510(5)
C13 C 0.1857(4) 0.4537(2) 0.4441(4)
C14 C 0.0109(4) 0.1832(3) 0.5008(4)
H13 H 0.0271 0.1757 0.4701
C15 C 0.0069(4) 0.2223(3) 0.5769(4)
H14 H 0.0207 0.2407 0.6001
C18 C 0.2870(4) 0.2908(4) 0.6073(4)
H17 H 0.2744 0.2738 0.6350
H18 H 0.2986 0.3157 0.6228
C19 C 0.3737(4) 0.2613(4) 0.6234(4)
C20 C 0.2647(4) 0.2055(3) 0.3743(4)
H19 H 0.2392 0.1865 0.3619
H20 H 0.2976 0.1917 0.3769
C21 C 0.3091(4) 0.2709(3) 0.3498(4)
H21 H 0.3429 0.2585 0.3531
H22 H 0.3111 0.2902 0.3218
C22 C 0.2518(4) 0.3997(4) 0.4362(5)
H23 H 0.2572 0.4070 0.4002
H24 H 0.2742 0.4164 0.4573
C23 C 0.1817(5) 0.3985(3) 0.5070(5)
H25 H 0.2033 0.4149 0.5292
H26 H 0.1459 0.4057 0.5137
C24 C 0.3815(5) 0.1964(4) 0.4508(5)
C25 C 0.1572(5) 0.3856(4) 0.4160(5)
H27 H 0.1221 0.3924 0.4259
H28 H 0.1624 0.3948 0.3807
C26 C 0.1028(4) 0.2072(3) 0.3469(4)
C27 C 0.4386(6) 0.1807(5) 0.4535(7)
H29 H 0.4621 0.2027 0.4493
H30 H 0.4443 0.1615 0.4264
H31 H 0.4445 0.1683 0.4865
C28 C 0.0725(7) 0.1734(5) 0.3200(7)
H32 H 0.0486 0.1847 0.2956
H33 H 0.0538 0.1582 0.3456
H34 H 0.0963 0.1561 0.3022
C29 C 0.0192(7) 0.3373(6) 0.3359(8)
C30 C 0.3600(4) 0.2449(4) 0.6698(4)
H35 H 0.3253 0.2397 0.6765
C31 C 0.4256(4) 0.2659(4) 0.6158(4)
H36 H 0.4377 0.2758 0.5844
C32 C 0.4602(4) 0.2559(5) 0.6540(5)
H37 H 0.4952 0.2597 0.6469
C33 C 0.3970(4) 0.2360(4) 0.7077(4)
H38 H 0.3861 0.2258 0.7394
C34 C 0.3692(6) 0.3778(4) 0.3301(6)
C35 C 0.3660(8) 0.4007(6) 0.2822(8)
H39 H 0.3929 0.3922 0.2590
H40 H 0.3703 0.4287 0.2898
H41 H 0.3328 0.3965 0.2664
C36 C 0.2054(5) 0.1791(5) 0.6118(6)
C37 C 0.2814(6) 0.4004(4) 0.6006(6)
C38 C 0.3498(8) 0.1108(7) 0.5445(8)
C40 C 0.1977(5) 0.3553(4) 0.2905(5)
C41 C 0.2069(9) 0.3806(7) 0.2440(9)
H45 H 0.2418 0.3906 0.2447
H46 H 0.1830 0.4027 0.2440
H47 H 0.2018 0.3649 0.2133
C42 C 0.2105(7) 0.1077(5) 0.4270(6)
C43 C 0.1936(10) 0.0734(7) 0.3935(10)
H48 H 0.2188 0.0690 0.3667
H49 H 0.1607 0.0794 0.3781
H50 H 0.1905 0.0497 0.4143
C44 C 0.3436(10) 0.1147(8) 0.5984(10)
H51 H 0.3769 0.1137 0.6149
H52 H 0.3223 0.0932 0.6110
H53 H 0.3272 0.1398 0.6060
C45 C 0.1782(9) 0.1553(7) 0.6526(10)
H54 H 0.1651 0.1731 0.6788
H55 H 0.2020 0.1367 0.6680
H56 H 0.1499 0.1409 0.6372
C46 C 0.3159(4) 0.2421(2) 0.2465(3)
H57 H 0.3283 0.2673 0.2554
C47 C 0.3283(4) 0.2258(2) 0.1987(3)
H58 H 0.3483 0.2404 0.1754
C48 C 0.2790(3) 0.1673(2) 0.2194(3)
H59 H 0.2659 0.1424 0.2100
C49 C 0.2667(3) 0.1835(2) 0.2672(3)
H60 H 0.2458 0.1692 0.2901
C50 C 0.3147(8) 0.4344(6) 0.6191(10)
H61 H 0.3002 0.4454 0.6503
H62 H 0.3162 0.4547 0.5929
H63 H 0.3491 0.4247 0.6261
C51 C 0.2076(4) 0.5203(2) 0.4709(4)
H64 H 0.2272 0.5375 0.4913
C52 C 0.1419(3) 0.5101(2) 0.4067(3)
H65 H 0.1174 0.5204 0.3837
C53 C 0.2151(3) 0.4794(3) 0.4742(4)
H66 H 0.2399 0.4692 0.4967
C54 C 0.1491(3) 0.4691(2) 0.4101(3)
H67 H 0.1294 0.4519 0.3897
O1 O 0.3226(2) 0.3035(2) 0.4965(2)
O2 O 0.0695(3) 0.3485(3) 0.4987(4)
O3 O 0.2502(2) 0.2184(2) 0.4233(3)
O4 O 0.0869(7) 0.3546(6) 0.6155(8)
O5 O 0.2977(3) 0.2916(2) 0.3965(3)
O6 O 0.3938(7) 0.0992(6) 0.3491(8)
O7 O 0.2770(3) 0.2297(2) 0.5219(3)
O8 O 0.3712(3) 0.3939(2) 0.4909(3)
O9 O 0.1180(2) 0.2741(2) 0.4428(3)
O10 O 0.1623(3) 0.3437(2) 0.4167(3)
O11 O 0.1940(2) 0.2748(2) 0.3684(2)
O12 O 0.1893(3) 0.3565(2) 0.5207(3)
O13 O 0.1756(2) 0.2148(2) 0.4956(3)
O14 O 0.1465(2) 0.2862(2) 0.5469(2)
O15 O 0.2662(3) 0.3591(2) 0.4430(3)
O16 O 0.1357(3) 0.1969(2) 0.3804(3)
O17 O 0.0884(3) 0.2413(2) 0.3339(3)
O18 O 0.2451(2) 0.2992(2) 0.5724(2)
O19 O 0.0384(3) 0.3427(3) 0.3798(4)
O20 O 0.2993(3) 0.3836(2) 0.5567(3)
O21 O 0.3458(3) 0.1697(3) 0.4558(4)
O22 O 0.0405(3) 0.3182(3) 0.3012(3)
O23 O 0.3043(4) 0.1118(3) 0.5182(4)
O24 O 0.3827(4) 0.3419(3) 0.3353(4)
O25 O 0.3508(3) 0.3977(3) 0.3685(4)
O26 O 0.3892(4) 0.1001(4) 0.5186(5)
O27 O 0.2015(3) 0.2143(3) 0.6099(3)
O28 O 0.2238(4) 0.1550(3) 0.5753(4)
O29 O 0.2557(5) 0.1216(4) 0.4210(5)
O30 O 0.1866(4) 0.1221(3) 0.4639(5)
O31 O 0.3736(3) 0.2320(2) 0.4478(3)
O32 O 0.2402(4) 0.3876(3) 0.6259(4)
O33 O 0.1514(3) 0.3412(3) 0.2950(3)
O34 O 0.2336(3) 0.3541(3) 0.3235(3)
Cu9 Cu 0.79078(5) 0.25287(4) 0.95674(5)
Cu13 Cu 0.73911(5) 0.33583(4) 0.98652(5)
Cd8 Cd 0.82543(3) 0.33993(2) 0.89332(3)
N6 N 0.5515(3) 0.2417(3) 0.8005(3)
C55 C 0.6824(5) 0.2287(4) 0.9396(5)
H68 H 0.6518 0.2165 0.9546
H69 H 0.6935 0.2121 0.9108
C56 C 0.6677(4) 0.2709(4) 0.9185(4)
C57 C 0.6431(4) 0.2948(3) 0.9620(4)
H70 H 0.6302 0.3198 0.9479
H71 H 0.6137 0.2800 0.9754
C59 C 0.9164(4) 0.2335(3) 0.9836(4)
C60 C 0.9002(4) 0.2637(3) 0.9417(4)
H74 H 0.9284 0.2825 0.9365
H75 H 0.8951 0.2494 0.9094
C64 C 0.8738(4) 0.2014(3) 0.9899(4)
H78 H 0.8705 0.1873 0.9572
C65 C 0.9660(4) 0.2121(3) 0.9684(4)
C68 C 0.9891(4) 0.1832(3) 0.9992(4)
C69 C 0.9931(4) 0.2223(3) 0.9231(4)
H81 H 0.9793 0.2407 0.8999
C72 C 0.7130(4) 0.2908(4) 0.8927(4)
H84 H 0.7256 0.2738 0.8650
H85 H 0.7014 0.3157 0.8772
C73 C 0.6263(4) 0.2613(4) 0.8766(4)
C77 C 0.8183(5) 0.3985(3) 0.9930(5)
H92 H 0.7967 0.4149 0.9708
H93 H 0.8541 0.4057 0.9863
C84 C 0.6400(4) 0.2449(4) 0.8302(4)
H102 H 0.6747 0.2397 0.8235
C85 C 0.5744(4) 0.2659(4) 0.8842(4)
H103 H 0.5623 0.2758 0.9156
C86 C 0.5398(4) 0.2559(5) 0.8460(5)
H104 H 0.5048 0.2597 0.8531
C87 C 0.6030(4) 0.2360(4) 0.7923(4)
H105 H 0.6139 0.2258 0.7606
C90 C 0.7946(5) 0.1791(5) 0.8882(6)
C91 C 0.7186(6) 0.4004(4) 0.8994(6)
C92 C 0.6502(8) 0.1108(7) 0.9555(8)
C98 C 0.6564(10) 0.1147(8) 0.9016(10)
H118 H 0.6231 0.1137 0.8851
H119 H 0.6777 0.0932 0.8890
H120 H 0.6728 0.1398 0.8940
C99 C 0.8218(9) 0.1553(7) 0.8474(10)
H121 H 0.8349 0.1731 0.8212
H122 H 0.7980 0.1367 0.8320
H123 H 0.8501 0.1409 0.8628
C104 C 0.6853(8) 0.4344(6) 0.8809(10)
H128 H 0.6998 0.4454 0.8497
H129 H 0.6838 0.4547 0.9071
H130 H 0.6509 0.4247 0.8739
O38 O 0.9131(7) 0.3546(6) 0.8845(8)
O41 O 0.7230(3) 0.2297(2) 0.9781(3)
O46 O 0.8107(3) 0.3565(2) 0.9793(3)
O48 O 0.8535(2) 0.2862(2) 0.9531(2)
O52 O 0.7549(2) 0.2992(2) 0.9276(2)
O54 O 0.7007(3) 0.3836(2) 0.9433(3)
O57 O 0.6957(4) 0.1118(3) 0.9818(4)
O60 O 0.6108(4) 0.1001(4) 0.9814(5)
O61 O 0.7985(3) 0.2143(3) 0.8901(3)
O62 O 0.7762(4) 0.1550(3) 0.9247(4)
O66 O 0.7598(4) 0.3876(3) 0.8741(4)
Cd13 Cd 0.32543(3) 0.16007(2) 0.10668(3)
Cd16 Cd 0.15488(4) 0.60448(3) 0.43466(4)
N10 N 0.4377(3) 0.3234(3) 0.4439(3)
N11 N 0.1890(3) 0.3119(2) 0.6856(2)
N12 N 0.8110(3) 0.3119(2) 0.8144(2)
N14 N 0.3293(3) 0.0357(2) 0.4371(4)
O69 O 0.4595(3) 0.1818(3) 0.8012(3)
O70 O 0.5405(3) 0.1818(3) 0.6988(3)
H137 H 0.604042 0.382866 0.983315
H139 H 0.933427 0.338055 0.909187
H140 H 0.924351 0.348629 0.848503
H141 H 0.953677 0.329953 0.982129
H142 H 0.924492 0.372901 0.980171
H143 H 0.0665726 0.338055 0.590813
H144 H 0.0756487 0.348629 0.651497
H145 H 0.42977 0.109174 0.353731
H146 H 0.394738 0.0708119 0.337775
H147 H 0.0463232 0.329953 0.517871
H148 H 0.075508 0.372901 0.519829
H149 H 0.395958 0.382866 0.516685
H150 H 0.386335 0.418169 0.474643
N1 N 0.9377(3) 0.1766(3) 0.5561(3)
C16 C 0.9589(4) 0.2043(3) 0.5869(4)
H15 H 0.9408 0.2121 0.6164
C17 C 0.9652(4) 0.1654(3) 0.5138(4)
H16 H 0.9524 0.1450 0.4930
C39 C 0.9651(8) 0.3592(7) 0.3261(10)
H42 H 0.9695 0.3797 0.3005
H43 H 0.9531 0.3710 0.3579
H44 H 0.9401 0.3400 0.3141
Cd12 Cd 0.85477(2) 0.15438(2) 0.57341(3)
Cu2_2 Cu 0.29078(5) 0.24713(4) 0.04326(5)
Cu6_2 Cu 0.23911(5) 0.16417(4) 0.01348(5)
N2_2 N 0.0515(3) 0.2583(3) 0.1995(3)
C1_2 C 0.1824(5) 0.2713(4) 0.0604(5)
H1_2 H 0.1518 0.2835 0.0454
H2_2 H 0.1935 0.2879 0.0892
C2_2 C 0.1677(4) 0.2291(4) 0.0815(4)
C3_2 C 0.1431(4) 0.2052(3) 0.0380(4)
H3_2 H 0.1302 0.1802 0.0521
H4_2 H 0.1137 0.2200 0.0246
C5_2 C 0.4164(4) 0.2665(3) 0.0164(4)
C6_2 C 0.4002(4) 0.2363(3) 0.0583(4)
H7_2 H 0.4284 0.2175 0.0635
H8_2 H 0.3951 0.2506 0.0906
C10_2 C 0.3738(4) 0.2986(3) 0.0101(4)
H11_2 H 0.3705 0.3127 0.0428
C11_2 C 0.4660(4) 0.2879(3) 0.0316(4)
C14_2 C 0.4891(4) 0.3168(3) 0.0008(4)
C15_2 C 0.4931(4) 0.2777(3) 0.0769(4)
H14_2 H 0.4793 0.2593 0.1001
C16_2 C 0.5411(4) 0.2957(3) 0.0869(4)
H15_2 H 0.5592 0.2879 0.1164
C17_2 C 0.5348(4) 0.3346(3) 0.0138(4)
C18_2 C 0.2130(4) 0.2092(4) 0.1073(4)
H17_2 H 0.2256 0.2262 0.1350
H18_2 H 0.2014 0.1843 0.1228
C19_2 C 0.1263(4) 0.2387(4) 0.1234(4)
C23_2 C 0.3183(5) 0.1015(3) 0.0070(5)
H25_2 H 0.2967 0.0851 0.0292
H26_2 H 0.3541 0.0943 0.0137
C30_2 C 0.1400(4) 0.2551(4) 0.1698(4)
H35_2 H 0.1747 0.2603 0.1765
C31_2 C 0.0744(4) 0.2341(4) 0.1158(4)
H36_2 H 0.0623 0.2242 0.0844
C32_2 C 0.0398(4) 0.2441(5) 0.1540(5)
H37_2 H 0.0048 0.2403 0.1469
C33_2 C 0.1030(4) 0.2640(4) 0.2077(4)
H38_2 H 0.1139 0.2742 0.2394
C36_2 C 0.2946(5) 0.3209(5) 0.1118(6)
C37_2 C 0.2186(6) 0.0996(4) 0.1006(6)
C38_2 C 0.1502(8) 0.3892(7) 0.0445(8)
C44_2 C 0.1564(10) 0.3853(8) 0.0984(10)
H51_2 H 0.1231 0.3863 0.1149
H52_2 H 0.1777 0.4068 0.1110
H53_2 H 0.1728 0.3602 0.1060
C45_2 C 0.3218(9) 0.3447(7) 0.1526(10)
H54_2 H 0.3349 0.3269 0.1788
H55_2 H 0.2980 0.3633 0.1680
H56_2 H 0.3501 0.3591 0.1372
C50_2 C 0.1853(8) 0.0656(6) 0.1191(10)
H61_2 H 0.1998 0.0546 0.1503
H62_2 H 0.1838 0.0453 0.0929
H63_2 H 0.1509 0.0753 0.1261
O4_2 O 0.4131(7) 0.1454(6) 0.1155(8)
O7_2 O 0.2230(3) 0.2703(2) 0.0219(3)
O12_2 O 0.3107(3) 0.1435(2) 0.0207(3)
O14_2 O 0.3535(2) 0.2138(2) 0.0469(2)
O18_2 O 0.2549(2) 0.2008(2) 0.0724(2)
O20_2 O 0.2007(3) 0.1164(2) 0.0567(3)
O23_2 O 0.1957(4) 0.3882(3) 0.0182(4)
O26_2 O 0.1108(4) 0.3999(4) 0.0186(5)
O27_2 O 0.2985(3) 0.2857(3) 0.1099(3)
O28_2 O 0.2762(4) 0.3450(3) 0.0753(4)
O32_2 O 0.2598(4) 0.1124(3) 0.1259(4)
H143_2 H 0.433427 0.161945 0.0908126
H144_2 H 0.424351 0.151371 0.151497
H147_2 H 0.453677 0.170047 0.0178708
H148_2 H 0.424492 0.127099 0.0198289
H149_2 H 0.104042 0.117134 0.0166855
Cu1_2 Cu 0.20301(5) 0.24308(4) 0.95711(5)
Cu3_2 Cu 0.26853(5) 0.17802(4) 0.89571(5)
Cu4_2 Cu 0.32147(5) 0.26105(4) 0.92618(5)
Cu5_2 Cu 0.35576(5) 0.18133(4) 0.98334(5)
Cd1_2 Cd 0.38832(2) 0.19599(2) 0.85748(2)
Cd4_2 Cd 0.25106(3) 0.33204(2) 0.99272(3)
Cd5_2 Cd 0.15488(4) 0.39552(3) 0.93466(4)
C4_2 C 0.4273(5) 0.2444(4) 0.9640(5)
H5_2 H 0.4408 0.2635 0.9391
H6_2 H 0.4536 0.2242 0.9696
C7_2 C 0.2843(4) 0.2427(3) 0.8238(4)
H9_2 H 0.2809 0.2226 0.7969
H10_2 H 0.3074 0.2634 0.8111
C8_2 C 0.2147(3) 0.2791(2) 0.7810(2)
C9_2 C 0.2302(4) 0.2613(3) 0.8350(4)
H12_2 H 0.3854 0.3178 0.9844
C12_2 C 0.3057(5) 0.0920(4) 0.9510(5)
C13_2 C 0.3143(4) 0.0463(2) 0.9441(4)
H13_2 H 0.4729 0.3243 0.9701
H16_2 H 0.5476 0.3550 0.9930
C20_2 C 0.2353(4) 0.2945(3) 0.8743(4)
H19_2 H 0.2608 0.3135 0.8619
H20_2 H 0.2024 0.3083 0.8769
C21_2 C 0.1909(4) 0.2291(3) 0.8498(4)
H21_2 H 0.1571 0.2415 0.8531
H22_2 H 0.1889 0.2098 0.8218
C22_2 C 0.2482(4) 0.1003(4) 0.9362(5)
H23_2 H 0.2428 0.0930 0.9002
H24_2 H 0.2258 0.0836 0.9573
C24_2 C 0.1185(5) 0.3036(4) 0.9508(5)
C25_2 C 0.3428(5) 0.1144(4) 0.9160(5)
H27_2 H 0.3779 0.1076 0.9259
H28_2 H 0.3376 0.1052 0.8807
C26_2 C 0.3972(4) 0.2928(3) 0.8469(4)
C27_2 C 0.0614(6) 0.3193(5) 0.9535(7)
H29_2 H 0.0379 0.2973 0.9493
H30_2 H 0.0557 0.3385 0.9264
H31_2 H 0.0555 0.3317 0.9865
C28_2 C 0.4275(7) 0.3266(5) 0.8200(7)
H32_2 H 0.4514 0.3153 0.7956
H33_2 H 0.4462 0.3418 0.8456
H34_2 H 0.4037 0.3439 0.8022
C29_2 C 0.4808(7) 0.1627(6) 0.8359(8)
C34_2 C 0.1308(6) 0.1222(4) 0.8301(6)
C35_2 C 0.1340(8) 0.0993(6) 0.7822(8)
H39_2 H 0.1071 0.1078 0.7590
H40_2 H 0.1297 0.0713 0.7898
H41_2 H 0.1672 0.1035 0.7664
C39_2 C 0.5349(8) 0.1408(7) 0.8261(10)
H42_2 H 0.5305 0.1203 0.8005
H43_2 H 0.5469 0.1290 0.8579
H44_2 H 0.5599 0.1600 0.8141
C40_2 C 0.3023(5) 0.1447(4) 0.7905(5)
C41_2 C 0.2931(9) 0.1194(7) 0.7440(9)
H45_2 H 0.2582 0.1094 0.7447
H46_2 H 0.3170 0.0973 0.7440
H47_2 H 0.2982 0.1351 0.7133
C42_2 C 0.2895(7) 0.3923(5) 0.9270(6)
C43_2 C 0.3064(10) 0.4266(7) 0.8935(10)
H48_2 H 0.2812 0.4310 0.8667
H49_2 H 0.3393 0.4206 0.8781
H50_2 H 0.3095 0.4503 0.9143
C46_2 C 0.1841(4) 0.2579(2) 0.7465(3)
H57_2 H 0.1717 0.2327 0.7554
C47_2 C 0.1717(4) 0.2742(2) 0.6987(3)
H58_2 H 0.1517 0.2596 0.6754
C48_2 C 0.2210(3) 0.3327(2) 0.7194(3)
H59_2 H 0.2341 0.3576 0.7100
C49_2 C 0.2333(3) 0.3165(2) 0.7672(3)
H60_2 H 0.2542 0.3308 0.7901
C53_2 C 0.2849(3) 0.0206(3) 0.9742(4)
H66_2 H 0.2601 0.0308 0.9967
C54_2 C 0.3509(3) 0.0309(2) 0.9101(3)
H67_2 H 0.3706 0.0481 0.8897
O1_2 O 0.1774(2) 0.1965(2) 0.9965(2)
O2_2 O 0.4305(3) 0.1515(3) 0.9987(4)
O3_2 O 0.2498(2) 0.2816(2) 0.9233(3)
O5_2 O 0.2023(3) 0.2084(2) 0.8965(3)
O6_2 O 0.1062(7) 0.4008(6) 0.8491(8)
O8_2 O 0.1288(3) 0.1061(2) 0.9909(3)
O9_2 O 0.3820(2) 0.2259(2) 0.9428(3)
O10_2 O 0.3377(3) 0.1563(2) 0.9167(3)
O11_2 O 0.3060(2) 0.2252(2) 0.8684(2)
O13_2 O 0.3244(2) 0.2852(2) 0.9956(3)
O15_2 O 0.2338(3) 0.1409(2) 0.9430(3)
O16_2 O 0.3643(3) 0.3031(2) 0.8804(3)
O17_2 O 0.4116(3) 0.2587(2) 0.8339(3)
O19_2 O 0.4616(3) 0.1573(3) 0.8798(4)
O21_2 O 0.1542(3) 0.3303(3) 0.9558(4)
O24_2 O 0.1173(4) 0.1581(3) 0.8353(4)
O25_2 O 0.1492(3) 0.1023(3) 0.8685(4)
O29_2 O 0.2443(5) 0.3784(4) 0.9210(5)
O30_2 O 0.3134(4) 0.3779(3) 0.9639(5)
O31_2 O 0.1264(3) 0.2680(2) 0.9478(3)
O33_2 O 0.3486(3) 0.1588(3) 0.7950(3)
O34_2 O 0.2664(3) 0.1459(3) 0.8235(3)
N14_2 N 0.1707(3) 0.4643(2) 0.9371(4)
H145_2 H 0.0702301 0.390826 0.853731
H146_2 H 0.105262 0.429188 0.837775
H150_2 H 0.113665 0.0818312 0.974643
N4_2 N 0.3293(3) 0.9643(2) 0.9371(4)
C51_2 C 0.2924(4) 0.9797(2) 0.9709(4)
H64_2 H 0.2728 0.9625 0.9913
C52_2 C 0.3581(3) 0.9899(2) 0.9067(3)
H65_2 H 0.3826 0.9796 0.8837
Cd16_2 Cd 0.34512(4) 0.89552(3) 0.93466(4)
Cu8_2 Cu 0.79699(5) 0.24308(4) 0.54289(5)
Cu9_2 Cu 0.70922(5) 0.24713(4) 0.45674(5)
Cu10_2 Cu 0.73147(5) 0.17802(4) 0.60429(5)
Cu11_2 Cu 0.67853(5) 0.26105(4) 0.57382(5)
Cu12_2 Cu 0.64424(5) 0.18133(4) 0.51666(5)
Cu13_2 Cu 0.76089(5) 0.16417(4) 0.48652(5)
Cd6_2 Cd 0.61168(2) 0.19599(2) 0.64252(2)
Cd9_2 Cd 0.74894(3) 0.33204(2) 0.50728(3)
Cd10_2 Cd 0.84512(4) 0.39552(3) 0.56534(4)
N6_2 N 0.9485(3) 0.2583(3) 0.3005(3)
C55_2 C 0.8176(5) 0.2713(4) 0.4396(5)
H68_2 H 0.8482 0.2835 0.4546
H69_2 H 0.8065 0.2879 0.4108
C56_2 C 0.8323(4) 0.2291(4) 0.4185(4)
C57_2 C 0.8569(4) 0.2052(3) 0.4620(4)
H70_2 H 0.8698 0.1802 0.4479
H71_2 H 0.8863 0.2200 0.4754
C58_2 C 0.5727(5) 0.2444(4) 0.5360(5)
H72_2 H 0.5592 0.2635 0.5609
H73_2 H 0.5464 0.2242 0.5304
C59_2 C 0.5836(4) 0.2665(3) 0.4836(4)
C60_2 C 0.5998(4) 0.2363(3) 0.4417(4)
H74_2 H 0.5716 0.2175 0.4365
H75_2 H 0.6049 0.2506 0.4094
C61_2 C 0.7157(4) 0.2427(3) 0.6762(4)
H76_2 H 0.7191 0.2226 0.7031
H77_2 H 0.6926 0.2634 0.6889
C62_2 C 0.7853(3) 0.2791(2) 0.7190(2)
C63_2 C 0.7698(4) 0.2613(3) 0.6650(4)
C64_2 C 0.6262(4) 0.2986(3) 0.4899(4)
H78_2 H 0.6295 0.3127 0.4572
H79_2 H 0.6146 0.3178 0.5156
C65_2 C 0.5340(4) 0.2879(3) 0.4684(4)
C66_2 C 0.6943(5) 0.0920(4) 0.5490(5)
C67_2 C 0.6857(4) 0.0463(2) 0.5559(4)
C68_2 C 0.5109(4) 0.3168(3) 0.4992(4)
H80_2 H 0.5271 0.3243 0.5299
C69_2 C 0.5069(4) 0.2777(3) 0.4231(4)
H81_2 H 0.5207 0.2593 0.3999
C70_2 C 0.4589(4) 0.2957(3) 0.4131(4)
H82_2 H 0.4408 0.2879 0.3836
C71_2 C 0.4652(4) 0.3346(3) 0.4862(4)
H83_2 H 0.4524 0.3550 0.5070
C72_2 C 0.7870(4) 0.2092(4) 0.3927(4)
H84_2 H 0.7744 0.2262 0.3650
H85_2 H 0.7986 0.1843 0.3772
C73_2 C 0.8737(4) 0.2387(4) 0.3766(4)
C74_2 C 0.7647(4) 0.2945(3) 0.6257(4)
H86_2 H 0.7392 0.3135 0.6381
H87_2 H 0.7976 0.3083 0.6231
C75_2 C 0.8091(4) 0.2291(3) 0.6502(4)
H88_2 H 0.8429 0.2415 0.6469
H89_2 H 0.8111 0.2098 0.6782
C76_2 C 0.7518(4) 0.1003(4) 0.5638(5)
H90_2 H 0.7572 0.0930 0.5998
H91_2 H 0.7742 0.0836 0.5427
C77_2 C 0.6817(5) 0.1015(3) 0.4930(5)
H92_2 H 0.7033 0.0851 0.4708
H93_2 H 0.6459 0.0943 0.4863
C78_2 C 0.8815(5) 0.3036(4) 0.5492(5)
C79_2 C 0.6572(5) 0.1144(4) 0.5840(5)
H94_2 H 0.6221 0.1076 0.5741
H95_2 H 0.6624 0.1052 0.6193
C80_2 C 0.6028(4) 0.2928(3) 0.6531(4)
C81_2 C 0.9386(6) 0.3193(5) 0.5465(7)
H96_2 H 0.9621 0.2973 0.5507
H97_2 H 0.9443 0.3385 0.5736
H98_2 H 0.9445 0.3317 0.5135
C82_2 C 0.5725(7) 0.3266(5) 0.6800(7)
H99_2 H 0.5486 0.3153 0.7044
H100_2 H 0.5538 0.3418 0.6544
H101_2 H 0.5963 0.3439 0.6978
C83_2 C 0.5192(7) 0.1627(6) 0.6641(8)
C84_2 C 0.8600(4) 0.2551(4) 0.3302(4)
H102_2 H 0.8253 0.2603 0.3235
C85_2 C 0.9256(4) 0.2341(4) 0.3842(4)
H103_2 H 0.9377 0.2242 0.4156
C86_2 C 0.9602(4) 0.2441(5) 0.3460(5)
H104_2 H 0.9952 0.2403 0.3531
C87_2 C 0.8970(4) 0.2640(4) 0.2923(4)
H105_2 H 0.8861 0.2742 0.2606
C88_2 C 0.8692(6) 0.1222(4) 0.6699(6)
C89_2 C 0.8660(8) 0.0993(6) 0.7178(8)
H106_2 H 0.8929 0.1078 0.7410
H107_2 H 0.8703 0.0713 0.7102
H108_2 H 0.8328 0.1035 0.7336
C90_2 C 0.7054(5) 0.3209(5) 0.3882(6)
C91_2 C 0.7814(6) 0.0996(4) 0.3994(6)
C92_2 C 0.8498(8) 0.3892(7) 0.4555(8)
C93_2 C 0.4651(8) 0.1408(7) 0.6739(10)
H109_2 H 0.4695 0.1203 0.6995
H110_2 H 0.4531 0.1290 0.6421
H111_2 H 0.4401 0.1600 0.6859
C94_2 C 0.6977(5) 0.1447(4) 0.7095(5)
C95_2 C 0.7069(9) 0.1194(7) 0.7560(9)
H112_2 H 0.7418 0.1094 0.7553
H113_2 H 0.6830 0.0973 0.7560
H114_2 H 0.7018 0.1351 0.7867
C96_2 C 0.7105(7) 0.3923(5) 0.5730(6)
C97_2 C 0.6936(10) 0.4266(7) 0.6065(10)
H115_2 H 0.7188 0.4310 0.6333
H116_2 H 0.6607 0.4206 0.6219
H117_2 H 0.6905 0.4503 0.5857
C98_2 C 0.8436(10) 0.3853(8) 0.4016(10)
H118_2 H 0.8769 0.3863 0.3851
H119_2 H 0.8223 0.4068 0.3890
H120_2 H 0.8272 0.3602 0.3940
C99_2 C 0.6782(9) 0.3447(7) 0.3474(10)
H121_2 H 0.6651 0.3269 0.3212
H122_2 H 0.7020 0.3633 0.3320
H123_2 H 0.6499 0.3591 0.3628
C100_2 C 0.8159(4) 0.2579(2) 0.7535(3)
H124_2 H 0.8283 0.2327 0.7446
C101_2 C 0.8283(4) 0.2742(2) 0.8013(3)
H125_2 H 0.8483 0.2596 0.8246
C102_2 C 0.7790(3) 0.3327(2) 0.7806(3)
H126_2 H 0.7659 0.3576 0.7900
C103_2 C 0.7667(3) 0.3165(2) 0.7328(3)
H127_2 H 0.7458 0.3308 0.7099
C104_2 C 0.8147(8) 0.0656(6) 0.3809(10)
H128_2 H 0.8002 0.0546 0.3497
H129_2 H 0.8162 0.0453 0.4071
H130_2 H 0.8491 0.0753 0.3739
C107_2 C 0.7151(3) 0.0206(3) 0.5258(4)
H133_2 H 0.7399 0.0308 0.5033
C108_2 C 0.6491(3) 0.0309(2) 0.5899(3)
H134_2 H 0.6294 0.0481 0.6103
O35_2 O 0.8226(2) 0.1965(2) 0.5035(2)
O36_2 O 0.5695(3) 0.1515(3) 0.5013(4)
O37_2 O 0.7502(2) 0.2816(2) 0.5767(3)
O38_2 O 0.5869(7) 0.1454(6) 0.3845(8)
O39_2 O 0.7977(3) 0.2084(2) 0.6035(3)
O40_2 O 0.8938(7) 0.4008(6) 0.6509(8)
O41_2 O 0.7770(3) 0.2703(2) 0.4781(3)
O42_2 O 0.8712(3) 0.1061(2) 0.5091(3)
O43_2 O 0.6180(2) 0.2259(2) 0.5572(3)
O44_2 O 0.6623(3) 0.1563(2) 0.5833(3)
O45_2 O 0.6940(2) 0.2252(2) 0.6316(2)
O46_2 O 0.6893(3) 0.1435(2) 0.4793(3)
O47_2 O 0.6756(2) 0.2852(2) 0.5044(3)
O48_2 O 0.6465(2) 0.2138(2) 0.4531(2)
O49_2 O 0.7662(3) 0.1409(2) 0.5570(3)
O50_2 O 0.6357(3) 0.3031(2) 0.6196(3)
O51_2 O 0.5884(3) 0.2587(2) 0.6661(3)
O52_2 O 0.7451(2) 0.2008(2) 0.4276(2)
O53_2 O 0.5384(3) 0.1573(3) 0.6202(4)
O54_2 O 0.7993(3) 0.1164(2) 0.4433(3)
O55_2 O 0.8458(3) 0.3303(3) 0.5442(4)
O57_2 O 0.8043(4) 0.3882(3) 0.4818(4)
O58_2 O 0.8827(4) 0.1581(3) 0.6647(4)
O59_2 O 0.8508(3) 0.1023(3) 0.6315(4)
O60_2 O 0.8892(4) 0.3999(4) 0.4814(5)
O61_2 O 0.7015(3) 0.2857(3) 0.3901(3)
O62_2 O 0.7238(4) 0.3450(3) 0.4247(4)
O63_2 O 0.7557(5) 0.3784(4) 0.5790(5)
O64_2 O 0.6866(4) 0.3779(3) 0.5361(5)
O65_2 O 0.8736(3) 0.2680(2) 0.5522(3)
O66_2 O 0.7402(4) 0.1124(3) 0.3741(4)
O67_2 O 0.6514(3) 0.1588(3) 0.7050(3)
O68_2 O 0.7336(3) 0.1459(3) 0.6765(3)
N13_2 N 0.8293(3) 0.4643(2) 0.5629(4)
H135_2 H 0.92977 0.390826 0.646269
H136_2 H 0.894738 0.429188 0.662225
H137_2 H 0.895958 0.117134 0.483315
H138_2 H 0.886335 0.0818312 0.525357
H139_2 H 0.566573 0.161945 0.409187
H140_2 H 0.575649 0.151371 0.348503
H141_2 H 0.546323 0.170047 0.482129
H142_2 H 0.575508 0.127099 0.480171
N8_2 N 0.6707(3) 0.9643(2) 0.5629(4)
C105_2 C 0.7076(4) 0.9797(2) 0.5291(4)
H131_2 H 0.7272 0.9625 0.5087
C106_2 C 0.6419(3) 0.9899(2) 0.5933(3)
H132_2 H 0.6174 0.9796 0.6163
Cd15_2 Cd 0.65488(4) 0.89552(3) 0.56534(4)
N1_2 N 0.0623(3) 0.8234(3) 0.4439(3)
C16_3 C 0.0411(4) 0.7957(3) 0.4131(4)
H15_3 H 0.0592 0.7879 0.3836
C17_3 C 0.0348(4) 0.8346(3) 0.4862(4)
H16_3 H 0.0476 0.8550 0.5070
C39_3 C 0.0349(8) 0.6408(7) 0.6739(10)
H42_3 H 0.0305 0.6203 0.6995
H43_3 H 0.0469 0.6290 0.6421
H44_3 H 0.0599 0.6600 0.6859
Cu14 Cu 0.0000 0.72797(8) 0.7500
Cd12_2 Cd 0.14523(2) 0.84562(2) 0.42659(3)
Cu1_3 Cu 0.70301(5) 0.74308(4) 0.54289(5)
Cu2_3 Cu 0.79078(5) 0.74713(4) 0.45674(5)
Cu3_3 Cu 0.76853(5) 0.67802(4) 0.60429(5)
Cu4_3 Cu 0.82147(5) 0.76105(4) 0.57382(5)
Cu5_3 Cu 0.85576(5) 0.68133(4) 0.51666(5)
Cu6_3 Cu 0.73911(5) 0.66417(4) 0.48652(5)
Cu7_2 Cu 0.5000 0.77203(8) 0.2500
Cd1_3 Cd 0.88832(2) 0.69599(2) 0.64252(2)
Cd2_2 Cd 0.64523(2) 0.65438(2) 0.57341(3)
Cd3_2 Cd 0.82543(3) 0.66007(2) 0.39332(3)
Cd4_3 Cd 0.75106(3) 0.83204(2) 0.50728(3)
N2_3 N 0.5515(3) 0.7583(3) 0.3005(3)
N3_2 N 0.6890(3) 0.8119(2) 0.8144(2)
C1_3 C 0.6824(5) 0.7713(4) 0.4396(5)
H1_3 H 0.6518 0.7835 0.4546
H2_3 H 0.6935 0.7879 0.4108
C2_3 C 0.6677(4) 0.7291(4) 0.4185(4)
C3_3 C 0.6431(4) 0.7052(3) 0.4620(4)
H3_3 H 0.6302 0.6802 0.4479
H4_3 H 0.6137 0.7200 0.4754
C4_3 C 0.9273(5) 0.7444(4) 0.5360(5)
H5_3 H 0.9408 0.7635 0.5609
H6_3 H 0.9536 0.7242 0.5304
C5_3 C 0.9164(4) 0.7665(3) 0.4836(4)
C6_3 C 0.9002(4) 0.7363(3) 0.4417(4)
H7_3 H 0.9284 0.7175 0.4365
H8_3 H 0.8951 0.7506 0.4094
C7_3 C 0.7843(4) 0.7427(3) 0.6762(4)
H9_3 H 0.7809 0.7226 0.7031
H10_3 H 0.8074 0.7634 0.6889
C8_3 C 0.7147(3) 0.7791(2) 0.7190(2)
C9_3 C 0.7302(4) 0.7613(3) 0.6650(4)
C10_3 C 0.8738(4) 0.7986(3) 0.4899(4)
H11_3 H 0.8705 0.8127 0.4572
H12_3 H 0.8854 0.8178 0.5156
C11_3 C 0.9660(4) 0.7879(3) 0.4684(4)
C12_3 C 0.8057(5) 0.5920(4) 0.5490(5)
C13_3 C 0.8143(4) 0.5463(2) 0.5559(4)
C14_3 C 0.9891(4) 0.8168(3) 0.4992(4)
H13_3 H 0.9729 0.8243 0.5299
C15_3 C 0.9931(4) 0.7777(3) 0.4231(4)
H14_3 H 0.9793 0.7593 0.3999
C18_3 C 0.7130(4) 0.7092(4) 0.3927(4)
H17_3 H 0.7256 0.7262 0.3650
H18_3 H 0.7014 0.6843 0.3772
C19_3 C 0.6263(4) 0.7387(4) 0.3766(4)
C20_3 C 0.7353(4) 0.7945(3) 0.6257(4)
H19_3 H 0.7608 0.8135 0.6381
H20_3 H 0.7024 0.8083 0.6231
C21_3 C 0.6909(4) 0.7291(3) 0.6502(4)
H21_3 H 0.6571 0.7415 0.6469
H22_3 H 0.6889 0.7098 0.6782
C22_3 C 0.7482(4) 0.6003(4) 0.5638(5)
H23_3 H 0.7428 0.5930 0.5998
H24_3 H 0.7258 0.5836 0.5427
C23_3 C 0.8183(5) 0.6015(3) 0.4930(5)
H25_3 H 0.7967 0.5851 0.4708
H26_3 H 0.8541 0.5943 0.4863
C24_3 C 0.6185(5) 0.8036(4) 0.5492(5)
C25_3 C 0.8428(5) 0.6144(4) 0.5840(5)
H27_3 H 0.8779 0.6076 0.5741
H28_3 H 0.8376 0.6052 0.6193
C26_3 C 0.8972(4) 0.7928(3) 0.6531(4)
C27_3 C 0.5614(6) 0.8193(5) 0.5465(7)
H29_3 H 0.5379 0.7973 0.5507
H30_3 H 0.5557 0.8385 0.5736
H31_3 H 0.5555 0.8317 0.5135
C28_3 C 0.9275(7) 0.8266(5) 0.6800(7)
H32_3 H 0.9514 0.8153 0.7044
H33_3 H 0.9462 0.8418 0.6544
H34_3 H 0.9037 0.8439 0.6978
C29_3 C 0.9808(7) 0.6627(6) 0.6641(8)
C30_3 C 0.6400(4) 0.7551(4) 0.3302(4)
H35_3 H 0.6747 0.7603 0.3235
C31_3 C 0.5744(4) 0.7341(4) 0.3842(4)
H36_3 H 0.5623 0.7242 0.4156
C32_3 C 0.5398(4) 0.7441(5) 0.3460(5)
H37_3 H 0.5048 0.7403 0.3531
C33_3 C 0.6030(4) 0.7640(4) 0.2923(4)
H38_3 H 0.6139 0.7742 0.2606
C34_3 C 0.6308(6) 0.6222(4) 0.6699(6)
C35_3 C 0.6340(8) 0.5993(6) 0.7178(8)
H39_3 H 0.6071 0.6078 0.7410
H40_3 H 0.6297 0.5713 0.7102
H41_3 H 0.6672 0.6035 0.7336
C36_3 C 0.7946(5) 0.8209(5) 0.3882(6)
C37_3 C 0.7186(6) 0.5996(4) 0.3994(6)
C38_3 C 0.6502(8) 0.8892(7) 0.4555(8)
C40_3 C 0.8023(5) 0.6447(4) 0.7095(5)
C41_3 C 0.7931(9) 0.6194(7) 0.7560(9)
H45_3 H 0.7582 0.6094 0.7553
H46_3 H 0.8170 0.5973 0.7560
H47_3 H 0.7982 0.6351 0.7867
C42_3 C 0.7895(7) 0.8923(5) 0.5730(6)
C43_3 C 0.8064(10) 0.9266(7) 0.6065(10)
H48_3 H 0.7812 0.9310 0.6333
H49_3 H 0.8393 0.9206 0.6219
H50_3 H 0.8095 0.9503 0.5857
C44_3 C 0.6564(10) 0.8853(8) 0.4016(10)
H51_3 H 0.6231 0.8863 0.3851
H52_3 H 0.6777 0.9068 0.3890
H53_3 H 0.6728 0.8602 0.3940
C45_3 C 0.8218(9) 0.8447(7) 0.3474(10)
H54_3 H 0.8349 0.8269 0.3212
H55_3 H 0.7980 0.8633 0.3320
H56_3 H 0.8501 0.8591 0.3628
C46_3 C 0.6841(4) 0.7579(2) 0.7535(3)
H57_3 H 0.6717 0.7327 0.7446
C47_3 C 0.6717(4) 0.7742(2) 0.8013(3)
H58_3 H 0.6517 0.7596 0.8246
C48_3 C 0.7210(3) 0.8327(2) 0.7806(3)
H59_3 H 0.7341 0.8576 0.7900
C49_3 C 0.7333(3) 0.8165(2) 0.7328(3)
H60_3 H 0.7542 0.8308 0.7099
C50_3 C 0.6853(8) 0.5656(6) 0.3809(10)
H61_3 H 0.6998 0.5546 0.3497
H62_3 H 0.6838 0.5453 0.4071
H63_3 H 0.6509 0.5753 0.3739
C51_3 C 0.7924(4) 0.4797(2) 0.5291(4)
H64_3 H 0.7728 0.4625 0.5087
C52_3 C 0.8581(3) 0.4899(2) 0.5933(3)
H65_3 H 0.8826 0.4796 0.6163
C53_3 C 0.7849(3) 0.5206(3) 0.5258(4)
H66_3 H 0.7601 0.5308 0.5033
C54_3 C 0.8509(3) 0.5309(2) 0.5899(3)
H67_3 H 0.8706 0.5481 0.6103
O1_3 O 0.6774(2) 0.6965(2) 0.5035(2)
O2_3 O 0.9305(3) 0.6515(3) 0.5013(4)
O3_3 O 0.7498(2) 0.7816(2) 0.5767(3)
O4_3 O 0.9131(7) 0.6454(6) 0.3845(8)
O5_3 O 0.7023(3) 0.7084(2) 0.6035(3)
O6_3 O 0.6062(7) 0.9008(6) 0.6509(8)
O7_3 O 0.7230(3) 0.7703(2) 0.4781(3)
O8_3 O 0.6288(3) 0.6061(2) 0.5091(3)
O9_3 O 0.8820(2) 0.7259(2) 0.5572(3)
O10_3 O 0.8377(3) 0.6563(2) 0.5833(3)
O11_3 O 0.8060(2) 0.7252(2) 0.6316(2)
O12_3 O 0.8107(3) 0.6435(2) 0.4793(3)
O13_3 O 0.8244(2) 0.7852(2) 0.5044(3)
O14_3 O 0.8535(2) 0.7138(2) 0.4531(2)
O15_3 O 0.7338(3) 0.6409(2) 0.5570(3)
O16_3 O 0.8643(3) 0.8031(2) 0.6196(3)
O17_3 O 0.9116(3) 0.7587(2) 0.6661(3)
O18_3 O 0.7549(2) 0.7008(2) 0.4276(2)
O19_3 O 0.9616(3) 0.6573(3) 0.6202(4)
O20_3 O 0.7007(3) 0.6164(2) 0.4433(3)
O21_3 O 0.6542(3) 0.8303(3) 0.5442(4)
O22_2 O 0.9595(3) 0.6818(3) 0.6988(3)
O23_3 O 0.6957(4) 0.8882(3) 0.4818(4)
O24_3 O 0.6173(4) 0.6581(3) 0.6647(4)
O25_3 O 0.6492(3) 0.6023(3) 0.6315(4)
O26_3 O 0.6108(4) 0.8999(4) 0.4814(5)
O27_3 O 0.7985(3) 0.7857(3) 0.3901(3)
O28_3 O 0.7762(4) 0.8450(3) 0.4247(4)
O29_3 O 0.7443(5) 0.8784(4) 0.5790(5)
O30_3 O 0.8134(4) 0.8779(3) 0.5361(5)
O31_3 O 0.6264(3) 0.7680(2) 0.5522(3)
O32_3 O 0.7598(4) 0.6124(3) 0.3741(4)
O33_3 O 0.8486(3) 0.6588(3) 0.7050(3)
O34_3 O 0.7664(3) 0.6459(3) 0.6765(3)
Cu9_3 Cu 0.20922(5) 0.74713(4) 0.04326(5)
Cu13_3 Cu 0.26089(5) 0.66417(4) 0.01348(5)
Cd8_2 Cd 0.17457(3) 0.66007(2) 0.10668(3)
N6_3 N 0.4485(3) 0.7583(3) 0.1995(3)
C55_3 C 0.3176(5) 0.7713(4) 0.0604(5)
H68_3 H 0.3482 0.7835 0.0454
H69_3 H 0.3065 0.7879 0.0892
C56_3 C 0.3323(4) 0.7291(4) 0.0815(4)
C57_3 C 0.3569(4) 0.7052(3) 0.0380(4)
H70_3 H 0.3698 0.6802 0.0521
H71_3 H 0.3863 0.7200 0.0246
C59_3 C 0.0836(4) 0.7665(3) 0.0164(4)
C60_3 C 0.0998(4) 0.7363(3) 0.0583(4)
H74_3 H 0.0716 0.7175 0.0635
H75_3 H 0.1049 0.7506 0.0906
C64_3 C 0.1262(4) 0.7986(3) 0.0101(4)
H78_3 H 0.1295 0.8127 0.0428
C65_3 C 0.0340(4) 0.7879(3) 0.0316(4)
C68_3 C 0.0109(4) 0.8168(3) 0.0008(4)
C69_3 C 0.0069(4) 0.7777(3) 0.0769(4)
H81_3 H 0.0207 0.7593 0.1001
C72_3 C 0.2870(4) 0.7092(4) 0.1073(4)
H84_3 H 0.2744 0.7262 0.1350
H85_3 H 0.2986 0.6843 0.1228
C73_3 C 0.3737(4) 0.7387(4) 0.1234(4)
C77_3 C 0.1817(5) 0.6015(3) 0.0070(5)
H92_3 H 0.2033 0.5851 0.0292
H93_3 H 0.1459 0.5943 0.0137
C84_3 C 0.3600(4) 0.7551(4) 0.1698(4)
H102_3 H 0.3253 0.7603 0.1765
C85_3 C 0.4256(4) 0.7341(4) 0.1158(4)
H103_3 H 0.4377 0.7242 0.0844
C86_3 C 0.4602(4) 0.7441(5) 0.1540(5)
H104_3 H 0.4952 0.7403 0.1469
C87_3 C 0.3970(4) 0.7640(4) 0.2077(4)
H105_3 H 0.3861 0.7742 0.2394
C90_3 C 0.2054(5) 0.8209(5) 0.1118(6)
C91_3 C 0.2814(6) 0.5996(4) 0.1006(6)
C92_3 C 0.3498(8) 0.8892(7) 0.0445(8)
C98_3 C 0.3436(10) 0.8853(8) 0.0984(10)
H118_3 H 0.3769 0.8863 0.1149
H119_3 H 0.3223 0.9068 0.1110
H120_3 H 0.3272 0.8602 0.1060
C99_3 C 0.1782(9) 0.8447(7) 0.1526(10)
H121_3 H 0.1651 0.8269 0.1788
H122_3 H 0.2020 0.8633 0.1680
H123_3 H 0.1499 0.8591 0.1372
C104_3 C 0.3147(8) 0.5656(6) 0.1191(10)
H128_3 H 0.3002 0.5546 0.1503
H129_3 H 0.3162 0.5453 0.0929
H130_3 H 0.3491 0.5753 0.1261
O38_3 O 0.0869(7) 0.6454(6) 0.1155(8)
O41_3 O 0.2770(3) 0.7703(2) 0.0219(3)
O46_3 O 0.1893(3) 0.6435(2) 0.0207(3)
O48_3 O 0.1465(2) 0.7138(2) 0.0469(2)
O52_3 O 0.2451(2) 0.7008(2) 0.0724(2)
O54_3 O 0.2993(3) 0.6164(2) 0.0567(3)
O57_3 O 0.3043(4) 0.8882(3) 0.0182(4)
O60_3 O 0.3892(4) 0.8999(4) 0.0186(5)
O61_3 O 0.2015(3) 0.7857(3) 0.1099(3)
O62_3 O 0.2238(4) 0.8450(3) 0.0753(4)
O66_3 O 0.2402(4) 0.6124(3) 0.1259(4)
Cu14_2 Cu 1.0000 0.72797(8) 0.7500
Cd13_2 Cd 0.67457(3) 0.83993(2) 0.89332(3)
N10_2 N 0.5623(3) 0.6766(3) 0.5561(3)
N11_2 N 0.8110(3) 0.6881(2) 0.3144(2)
N12_2 N 0.1890(3) 0.6881(2) 0.1856(2)
O69_2 O 0.5405(3) 0.8182(3) 0.1988(3)
O70_2 O 0.4595(3) 0.8182(3) 0.3012(3)
H137_3 H 0.395958 0.617134 0.0166855
H139_3 H 0.0665726 0.661945 0.0908126
H140_3 H 0.0756487 0.651371 0.151497
H141_3 H 0.0463232 0.670047 0.0178708
H142_3 H 0.075508 0.627099 0.0198289
H143_3 H 0.933427 0.661945 0.409187
H144_3 H 0.924351 0.651371 0.348503
H145_3 H 0.57023 0.890826 0.646269
H146_3 H 0.605262 0.929188 0.662225
H147_3 H 0.953677 0.670047 0.482129
H148_3 H 0.924492 0.627099 0.480171
H149_3 H 0.604042 0.617134 0.483315
H150_3 H 0.613665 0.581831 0.525357
Cu8_3 Cu 0.29699(5) 0.74308(4) 0.95711(5)
Cu10_3 Cu 0.23147(5) 0.67802(4) 0.89571(5)
Cu11_3 Cu 0.17853(5) 0.76105(4) 0.92618(5)
Cu12_3 Cu 0.14424(5) 0.68133(4) 0.98334(5)
Cd6_3 Cd 0.11168(2) 0.69599(2) 0.85748(2)
Cd7_2 Cd 0.35477(2) 0.65438(2) 0.92659(3)
Cd9_3 Cd 0.24894(3) 0.83204(2) 0.99272(3)
N7_2 N 0.3110(3) 0.8119(2) 0.6856(2)
C58_3 C 0.0727(5) 0.7444(4) 0.9640(5)
H72_3 H 0.0592 0.7635 0.9391
H73_3 H 0.0464 0.7242 0.9696
C61_3 C 0.2157(4) 0.7427(3) 0.8238(4)
H76_3 H 0.2191 0.7226 0.7969
H77_3 H 0.1926 0.7634 0.8111
C62_3 C 0.2853(3) 0.7791(2) 0.7810(2)
C63_3 C 0.2698(4) 0.7613(3) 0.8350(4)
H79_3 H 0.1146 0.8178 0.9844
C66_3 C 0.1943(5) 0.5920(4) 0.9510(5)
C67_3 C 0.1857(4) 0.5463(2) 0.9441(4)
H80_3 H 0.0271 0.8243 0.9701
C74_3 C 0.2647(4) 0.7945(3) 0.8743(4)
H86_3 H 0.2392 0.8135 0.8619
H87_3 H 0.2976 0.8083 0.8769
C75_3 C 0.3091(4) 0.7291(3) 0.8498(4)
H88_3 H 0.3429 0.7415 0.8531
H89_3 H 0.3111 0.7098 0.8218
C76_3 C 0.2518(4) 0.6003(4) 0.9362(5)
H90_3 H 0.2572 0.5930 0.9002
H91_3 H 0.2742 0.5836 0.9573
C78_3 C 0.3815(5) 0.8036(4) 0.9508(5)
C79_3 C 0.1572(5) 0.6144(4) 0.9160(5)
H94_3 H 0.1221 0.6076 0.9259
H95_3 H 0.1624 0.6052 0.8807
C80_3 C 0.1028(4) 0.7928(3) 0.8469(4)
C81_3 C 0.4386(6) 0.8193(5) 0.9535(7)
H96_3 H 0.4621 0.7973 0.9493
H97_3 H 0.4443 0.8385 0.9264
H98_3 H 0.4445 0.8317 0.9865
C82_3 C 0.0725(7) 0.8266(5) 0.8200(7)
H99_3 H 0.0486 0.8153 0.7956
H100_3 H 0.0538 0.8418 0.8456
H101_3 H 0.0963 0.8439 0.8022
C83_3 C 0.0192(7) 0.6627(6) 0.8359(8)
C88_3 C 0.3692(6) 0.6222(4) 0.8301(6)
C89_3 C 0.3660(8) 0.5993(6) 0.7822(8)
H106_3 H 0.3929 0.6078 0.7590
H107_3 H 0.3703 0.5713 0.7898
H108_3 H 0.3328 0.6035 0.7664
C94_3 C 0.1977(5) 0.6447(4) 0.7905(5)
C95_3 C 0.2069(9) 0.6194(7) 0.7440(9)
H112_3 H 0.2418 0.6094 0.7447
H113_3 H 0.1830 0.5973 0.7440
H114_3 H 0.2018 0.6351 0.7133
C96_3 C 0.2105(7) 0.8923(5) 0.9270(6)
C97_3 C 0.1936(10) 0.9266(7) 0.8935(10)
H115_3 H 0.2188 0.9310 0.8667
H116_3 H 0.1607 0.9206 0.8781
H117_3 H 0.1905 0.9503 0.9143
C100_3 C 0.3159(4) 0.7579(2) 0.7465(3)
H124_3 H 0.3283 0.7327 0.7554
C101_3 C 0.3283(4) 0.7742(2) 0.6987(3)
H125_3 H 0.3483 0.7596 0.6754
C102_3 C 0.2790(3) 0.8327(2) 0.7194(3)
H126_3 H 0.2659 0.8576 0.7100
C103_3 C 0.2667(3) 0.8165(2) 0.7672(3)
H127_3 H 0.2458 0.8308 0.7901
C105_3 C 0.2076(4) 0.4797(2) 0.9709(4)
H131_3 H 0.2272 0.4625 0.9913
C106_3 C 0.1419(3) 0.4899(2) 0.9067(3)
H132_3 H 0.1174 0.4796 0.8837
C107_3 C 0.2151(3) 0.5206(3) 0.9742(4)
H133_3 H 0.2399 0.5308 0.9967
C108_3 C 0.1491(3) 0.5309(2) 0.9101(3)
H134_3 H 0.1294 0.5481 0.8897
O35_3 O 0.3226(2) 0.6965(2) 0.9965(2)
O36_3 O 0.0695(3) 0.6515(3) 0.9987(4)
O37_3 O 0.2502(2) 0.7816(2) 0.9233(3)
O39_3 O 0.2977(3) 0.7084(2) 0.8965(3)
O40_3 O 0.3938(7) 0.9008(6) 0.8491(8)
O42_3 O 0.3712(3) 0.6061(2) 0.9909(3)
O43_3 O 0.1180(2) 0.7259(2) 0.9428(3)
O44_3 O 0.1623(3) 0.6563(2) 0.9167(3)
O45_3 O 0.1940(2) 0.7252(2) 0.8684(2)
O47_3 O 0.1756(2) 0.7852(2) 0.9956(3)
O49_3 O 0.2662(3) 0.6409(2) 0.9430(3)
O50_3 O 0.1357(3) 0.8031(2) 0.8804(3)
O51_3 O 0.0884(3) 0.7587(2) 0.8339(3)
O53_3 O 0.0384(3) 0.6573(3) 0.8798(4)
O55_3 O 0.3458(3) 0.8303(3) 0.9558(4)
O56_2 O 0.0405(3) 0.6818(3) 0.8012(3)
O58_3 O 0.3827(4) 0.6581(3) 0.8353(4)
O59_3 O 0.3508(3) 0.6023(3) 0.8685(4)
O63_3 O 0.2557(5) 0.8784(4) 0.9210(5)
O64_3 O 0.1866(4) 0.8779(3) 0.9639(5)
O65_3 O 0.3736(3) 0.7680(2) 0.9478(3)
O67_3 O 0.1514(3) 0.6588(3) 0.7950(3)
O68_3 O 0.2336(3) 0.6459(3) 0.8235(3)
Cd14_2 Cd 0.32543(3) 0.83993(2) 0.60668(3)
N9_2 N 0.4377(3) 0.6766(3) 0.9439(3)
H135_3 H 0.42977 0.890826 0.853731
H136_3 H 0.394738 0.929188 0.837775
H138_3 H 0.386335 0.581831 0.974643
N5_2 N 0.9377(3) 0.8234(3) 0.0561(3)
C70_3 C 0.9589(4) 0.7957(3) 0.0869(4)
H82_3 H 0.9408 0.7879 0.1164
C71_3 C 0.9652(4) 0.8346(3) 0.0138(4)
Cd11_2 Cd 0.85477(2) 0.84562(2) 0.07341(3)
H83_3 H 0.9524 0.8550 0.9930
C93_3 C 0.9651(8) 0.6408(7) 0.8261(10)
H109_3 H 0.9695 0.6203 0.8005
H110_3 H 0.9531 0.6290 0.8579
H111_3 H 0.9401 0.6600 0.8141
C105_4 C 0.2924(4) 0.0203(2) 0.4709(4)
H131_4 H 0.2728 0.0375 0.4913
C106_4 C 0.3581(3) 0.0101(2) 0.4067(3)
H132_4 H 0.3826 0.0204 0.3837
Cu8_4 Cu 0.20301(5) 0.75692(4) 0.45711(5)
Cu9_4 Cu 0.29078(5) 0.75287(4) 0.54326(5)
Cu10_4 Cu 0.26853(5) 0.82198(4) 0.39571(5)
Cu11_4 Cu 0.32147(5) 0.73895(4) 0.42618(5)
Cu12_4 Cu 0.35576(5) 0.81867(4) 0.48334(5)
Cu13_4 Cu 0.23911(5) 0.83583(4) 0.51348(5)
Cd6_4 Cd 0.38832(2) 0.80401(2) 0.35748(2)
Cd9_4 Cd 0.25106(3) 0.66796(2) 0.49272(3)
N6_4 N 0.0515(3) 0.7417(3) 0.6995(3)
C55_4 C 0.1824(5) 0.7287(4) 0.5604(5)
H68_4 H 0.1518 0.7165 0.5454
H69_4 H 0.1935 0.7121 0.5892
C56_4 C 0.1677(4) 0.7709(4) 0.5815(4)
C57_4 C 0.1431(4) 0.7948(3) 0.5380(4)
H70_4 H 0.1302 0.8198 0.5521
H71_4 H 0.1137 0.7800 0.5246
C58_4 C 0.4273(5) 0.7556(4) 0.4640(5)
H72_4 H 0.4408 0.7365 0.4391
H73_4 H 0.4536 0.7758 0.4696
C59_4 C 0.4164(4) 0.7335(3) 0.5164(4)
C60_4 C 0.4002(4) 0.7637(3) 0.5583(4)
H74_4 H 0.4284 0.7825 0.5635
H75_4 H 0.3951 0.7494 0.5906
C61_4 C 0.2843(4) 0.7573(3) 0.3238(4)
H76_4 H 0.2809 0.7774 0.2969
H77_4 H 0.3074 0.7366 0.3111
C62_4 C 0.2147(3) 0.7209(2) 0.2810(2)
C63_4 C 0.2302(4) 0.7387(3) 0.3350(4)
C64_4 C 0.3738(4) 0.7014(3) 0.5101(4)
H78_4 H 0.3705 0.6873 0.5428
H79_4 H 0.3854 0.6822 0.4844
C65_4 C 0.4660(4) 0.7121(3) 0.5316(4)
C66_4 C 0.3057(5) 0.9080(4) 0.4510(5)
C67_4 C 0.3143(4) 0.9537(2) 0.4441(4)
C68_4 C 0.4891(4) 0.6832(3) 0.5008(4)
H80_4 H 0.4729 0.6757 0.4701
C69_4 C 0.4931(4) 0.7223(3) 0.5769(4)
H81_4 H 0.4793 0.7407 0.6001
C70_4 C 0.5411(4) 0.7043(3) 0.5869(4)
H82_4 H 0.5592 0.7121 0.6164
C71_4 C 0.5348(4) 0.6654(3) 0.5138(4)
H83_4 H 0.5476 0.6450 0.4930
C72_4 C 0.2130(4) 0.7908(4) 0.6073(4)
H84_4 H 0.2256 0.7738 0.6350
H85_4 H 0.2014 0.8157 0.6228
C73_4 C 0.1263(4) 0.7613(4) 0.6234(4)
C74_4 C 0.2353(4) 0.7055(3) 0.3743(4)
H86_4 H 0.2608 0.6865 0.3619
H87_4 H 0.2024 0.6917 0.3769
C75_4 C 0.1909(4) 0.7709(3) 0.3498(4)
H88_4 H 0.1571 0.7585 0.3531
H89_4 H 0.1889 0.7902 0.3218
C76_4 C 0.2482(4) 0.8997(4) 0.4362(5)
H90_4 H 0.2428 0.9070 0.4002
H91_4 H 0.2258 0.9164 0.4573
C77_4 C 0.3183(5) 0.8985(3) 0.5070(5)
H92_4 H 0.2967 0.9149 0.5292
H93_4 H 0.3541 0.9057 0.5137
C78_4 C 0.1185(5) 0.6964(4) 0.4508(5)
C79_4 C 0.3428(5) 0.8856(4) 0.4160(5)
H94_4 H 0.3779 0.8924 0.4259
H95_4 H 0.3376 0.8948 0.3807
C80_4 C 0.3972(4) 0.7072(3) 0.3469(4)
C81_4 C 0.0614(6) 0.6807(5) 0.4535(7)
H96_4 H 0.0379 0.7027 0.4493
H97_4 H 0.0557 0.6615 0.4264
H98_4 H 0.0555 0.6683 0.4865
C82_4 C 0.4275(7) 0.6734(5) 0.3200(7)
H99_4 H 0.4514 0.6847 0.2956
H100_4 H 0.4462 0.6582 0.3456
H101_4 H 0.4037 0.6561 0.3022
C83_4 C 0.4808(7) 0.8373(6) 0.3359(8)
C84_4 C 0.1400(4) 0.7449(4) 0.6698(4)
H102_4 H 0.1747 0.7397 0.6765
C85_4 C 0.0744(4) 0.7659(4) 0.6158(4)
H103_4 H 0.0623 0.7758 0.5844
C86_4 C 0.0398(4) 0.7559(5) 0.6540(5)
H104_4 H 0.0048 0.7597 0.6469
C87_4 C 0.1030(4) 0.7360(4) 0.7077(4)
H105_4 H 0.1139 0.7258 0.7394
C88_4 C 0.1308(6) 0.8778(4) 0.3301(6)
C89_4 C 0.1340(8) 0.9007(6) 0.2822(8)
H106_4 H 0.1071 0.8922 0.2590
H107_4 H 0.1297 0.9287 0.2898
H108_4 H 0.1672 0.8965 0.2664
C90_4 C 0.2946(5) 0.6791(5) 0.6118(6)
C91_4 C 0.2186(6) 0.9004(4) 0.6006(6)
C92_4 C 0.1502(8) 0.6108(7) 0.5445(8)
C93_4 C 0.5349(8) 0.8592(7) 0.3261(10)
H109_4 H 0.5305 0.8797 0.3005
H110_4 H 0.5469 0.8710 0.3579
H111_4 H 0.5599 0.8400 0.3141
C94_4 C 0.3023(5) 0.8553(4) 0.2905(5)
C95_4 C 0.2931(9) 0.8806(7) 0.2440(9)
H112_4 H 0.2582 0.8906 0.2447
H113_4 H 0.3170 0.9027 0.2440
H114_4 H 0.2982 0.8649 0.2133
C96_4 C 0.2895(7) 0.6077(5) 0.4270(6)
C97_4 C 0.3064(10) 0.5734(7) 0.3935(10)
H115_4 H 0.2812 0.5690 0.3667
H116_4 H 0.3393 0.5794 0.3781
H117_4 H 0.3095 0.5497 0.4143
C98_4 C 0.1564(10) 0.6147(8) 0.5984(10)
H118_4 H 0.1231 0.6137 0.6149
H119_4 H 0.1777 0.5932 0.6110
H120_4 H 0.1728 0.6398 0.6060
C99_4 C 0.3218(9) 0.6553(7) 0.6526(10)
H121_4 H 0.3349 0.6731 0.6788
H122_4 H 0.2980 0.6367 0.6680
H123_4 H 0.3501 0.6409 0.6372
C100_4 C 0.1841(4) 0.7421(2) 0.2465(3)
H124_4 H 0.1717 0.7673 0.2554
C101_4 C 0.1717(4) 0.7258(2) 0.1987(3)
H125_4 H 0.1517 0.7404 0.1754
C102_4 C 0.2210(3) 0.6673(2) 0.2194(3)
H126_4 H 0.2341 0.6424 0.2100
C103_4 C 0.2333(3) 0.6835(2) 0.2672(3)
H127_4 H 0.2542 0.6692 0.2901
C104_4 C 0.1853(8) 0.9344(6) 0.6191(10)
H128_4 H 0.1998 0.9454 0.6503
H129_4 H 0.1838 0.9547 0.5929
H130_4 H 0.1509 0.9247 0.6261
C107_4 C 0.2849(3) 0.9794(3) 0.4742(4)
H133_4 H 0.2601 0.9692 0.4967
C108_4 C 0.3509(3) 0.9691(2) 0.4101(3)
H134_4 H 0.3706 0.9519 0.3897
O35_4 O 0.1774(2) 0.8035(2) 0.4965(2)
O36_4 O 0.4305(3) 0.8485(3) 0.4987(4)
O37_4 O 0.2498(2) 0.7184(2) 0.4233(3)
O38_4 O 0.4131(7) 0.8546(6) 0.6155(8)
O39_4 O 0.2023(3) 0.7916(2) 0.3965(3)
O40_4 O 0.1062(7) 0.5992(6) 0.3491(8)
O41_4 O 0.2230(3) 0.7297(2) 0.5219(3)
O42_4 O 0.1288(3) 0.8939(2) 0.4909(3)
O43_4 O 0.3820(2) 0.7741(2) 0.4428(3)
O44_4 O 0.3377(3) 0.8437(2) 0.4167(3)
O45_4 O 0.3060(2) 0.7748(2) 0.3684(2)
O46_4 O 0.3107(3) 0.8565(2) 0.5207(3)
O47_4 O 0.3244(2) 0.7148(2) 0.4956(3)
O48_4 O 0.3535(2) 0.7862(2) 0.5469(2)
O49_4 O 0.2338(3) 0.8591(2) 0.4430(3)
O50_4 O 0.3643(3) 0.6969(2) 0.3804(3)
O51_4 O 0.4116(3) 0.7413(2) 0.3339(3)
O52_4 O 0.2549(2) 0.7992(2) 0.5724(2)
O53_4 O 0.4616(3) 0.8427(3) 0.3798(4)
O54_4 O 0.2007(3) 0.8836(2) 0.5567(3)
O55_4 O 0.1542(3) 0.6697(3) 0.4558(4)
O57_4 O 0.1957(4) 0.6118(3) 0.5182(4)
O58_4 O 0.1173(4) 0.8419(3) 0.3353(4)
O59_4 O 0.1492(3) 0.8977(3) 0.3685(4)
O60_4 O 0.1108(4) 0.6001(4) 0.5186(5)
O61_4 O 0.2985(3) 0.7143(3) 0.6099(3)
O62_4 O 0.2762(4) 0.6550(3) 0.5753(4)
O63_4 O 0.2443(5) 0.6216(4) 0.4210(5)
O64_4 O 0.3134(4) 0.6221(3) 0.4639(5)
O65_4 O 0.1264(3) 0.7320(2) 0.4478(3)
O66_4 O 0.2598(4) 0.8876(3) 0.6259(4)
O67_4 O 0.3486(3) 0.8412(3) 0.2950(3)
O68_4 O 0.2664(3) 0.8541(3) 0.3235(3)
H135_4 H 0.0702301 0.609174 0.353731
H136_4 H 0.105262 0.570812 0.337775
H137_4 H 0.104042 0.882866 0.516685
H138_4 H 0.113665 0.918169 0.474643
H139_4 H 0.433427 0.838055 0.590813
H140_4 H 0.424351 0.848629 0.651497
H141_4 H 0.453677 0.829953 0.517871
H142_4 H 0.424492 0.872901 0.519829
C51_4 C 0.7076(4) 0.0203(2) 0.0291(4)
H64_4 H 0.7272 0.0375 0.0087
C52_4 C 0.6419(3) 0.0101(2) 0.0933(3)
H65_4 H 0.6174 0.0204 0.1163
Cu1_4 Cu 0.79699(5) 0.75692(4) 0.04289(5)
Cu3_4 Cu 0.73147(5) 0.82198(4) 0.10429(5)
Cu4_4 Cu 0.67853(5) 0.73895(4) 0.07382(5)
Cu5_4 Cu 0.64424(5) 0.81867(4) 0.01666(5)
Cd1_4 Cd 0.61168(2) 0.80401(2) 0.14252(2)
Cd4_4 Cd 0.74894(3) 0.66796(2) 0.00728(3)
C4_4 C 0.5727(5) 0.7556(4) 0.0360(5)
H5_4 H 0.5592 0.7365 0.0609
H6_4 H 0.5464 0.7758 0.0304
C7_4 C 0.7157(4) 0.7573(3) 0.1762(4)
H9_4 H 0.7191 0.7774 0.2031
H10_4 H 0.6926 0.7366 0.1889
C8_4 C 0.7853(3) 0.7209(2) 0.2190(2)
C9_4 C 0.7698(4) 0.7387(3) 0.1650(4)
H12_4 H 0.6146 0.6822 0.0156
C12_4 C 0.6943(5) 0.9080(4) 0.0490(5)
C13_4 C 0.6857(4) 0.9537(2) 0.0559(4)
H13_4 H 0.5271 0.6757 0.0299
H16_4 H 0.4524 0.6450 0.0070
C20_4 C 0.7647(4) 0.7055(3) 0.1257(4)
H19_4 H 0.7392 0.6865 0.1381
H20_4 H 0.7976 0.6917 0.1231
C21_4 C 0.8091(4) 0.7709(3) 0.1502(4)
H21_4 H 0.8429 0.7585 0.1469
H22_4 H 0.8111 0.7902 0.1782
C22_4 C 0.7518(4) 0.8997(4) 0.0638(5)
H23_4 H 0.7572 0.9070 0.0998
H24_4 H 0.7742 0.9164 0.0427
C24_4 C 0.8815(5) 0.6964(4) 0.0492(5)
C25_4 C 0.6572(5) 0.8856(4) 0.0840(5)
H27_4 H 0.6221 0.8924 0.0741
H28_4 H 0.6624 0.8948 0.1193
C26_4 C 0.6028(4) 0.7072(3) 0.1531(4)
C27_4 C 0.9386(6) 0.6807(5) 0.0465(7)
H29_4 H 0.9621 0.7027 0.0507
H30_4 H 0.9443 0.6615 0.0736
H31_4 H 0.9445 0.6683 0.0135
C28_4 C 0.5725(7) 0.6734(5) 0.1800(7)
H32_4 H 0.5486 0.6847 0.2044
H33_4 H 0.5538 0.6582 0.1544
H34_4 H 0.5963 0.6561 0.1978
C29_4 C 0.5192(7) 0.8373(6) 0.1641(8)
C34_4 C 0.8692(6) 0.8778(4) 0.1699(6)
C35_4 C 0.8660(8) 0.9007(6) 0.2178(8)
H39_4 H 0.8929 0.8922 0.2410
H40_4 H 0.8703 0.9287 0.2102
H41_4 H 0.8328 0.8965 0.2336
C39_4 C 0.4651(8) 0.8592(7) 0.1739(10)
H42_4 H 0.4695 0.8797 0.1995
H43_4 H 0.4531 0.8710 0.1421
H44_4 H 0.4401 0.8400 0.1859
C40_4 C 0.6977(5) 0.8553(4) 0.2095(5)
C41_4 C 0.7069(9) 0.8806(7) 0.2560(9)
H45_4 H 0.7418 0.8906 0.2553
H46_4 H 0.6830 0.9027 0.2560
H47_4 H 0.7018 0.8649 0.2867
C42_4 C 0.7105(7) 0.6077(5) 0.0730(6)
C43_4 C 0.6936(10) 0.5734(7) 0.1065(10)
H48_4 H 0.7188 0.5690 0.1333
H49_4 H 0.6607 0.5794 0.1219
H50_4 H 0.6905 0.5497 0.0857
C46_4 C 0.8159(4) 0.7421(2) 0.2535(3)
H57_4 H 0.8283 0.7673 0.2446
C47_4 C 0.8283(4) 0.7258(2) 0.3013(3)
H58_4 H 0.8483 0.7404 0.3246
C48_4 C 0.7790(3) 0.6673(2) 0.2806(3)
H59_4 H 0.7659 0.6424 0.2900
C49_4 C 0.7667(3) 0.6835(2) 0.2328(3)
H60_4 H 0.7458 0.6692 0.2099
C53_4 C 0.7151(3) 0.9794(3) 0.0258(4)
H66_4 H 0.7399 0.9692 0.0033
C54_4 C 0.6491(3) 0.9691(2) 0.0899(3)
H67_4 H 0.6294 0.9519 0.1103
O1_4 O 0.8226(2) 0.8035(2) 0.0035(2)
O2_4 O 0.5695(3) 0.8485(3) 0.0013(4)
O3_4 O 0.7502(2) 0.7184(2) 0.0767(3)
O5_4 O 0.7977(3) 0.7916(2) 0.1035(3)
O6_4 O 0.8938(7) 0.5992(6) 0.1509(8)
O8_4 O 0.8712(3) 0.8939(2) 0.0091(3)
O9_4 O 0.6180(2) 0.7741(2) 0.0572(3)
O10_4 O 0.6623(3) 0.8437(2) 0.0833(3)
O11_4 O 0.6940(2) 0.7748(2) 0.1316(2)
O13_4 O 0.6756(2) 0.7148(2) 0.0044(3)
O15_4 O 0.7662(3) 0.8591(2) 0.0570(3)
O16_4 O 0.6357(3) 0.6969(2) 0.1196(3)
O17_4 O 0.5884(3) 0.7413(2) 0.1661(3)
O19_4 O 0.5384(3) 0.8427(3) 0.1202(4)
O21_4 O 0.8458(3) 0.6697(3) 0.0442(4)
O24_4 O 0.8827(4) 0.8419(3) 0.1647(4)
O25_4 O 0.8508(3) 0.8977(3) 0.1315(4)
O29_4 O 0.7557(5) 0.6216(4) 0.0790(5)
O30_4 O 0.6866(4) 0.6221(3) 0.0361(5)
O31_4 O 0.8736(3) 0.7320(2) 0.0522(3)
O33_4 O 0.6514(3) 0.8412(3) 0.2050(3)
O34_4 O 0.7336(3) 0.8541(3) 0.1765(3)
H145_4 H 0.92977 0.609174 0.146269
H146_4 H 0.894738 0.570812 0.162225
H150_4 H 0.886335 0.918169 0.0253566
Cu2_4 Cu 0.70922(5) 0.75287(4) 0.95674(5)
Cu6_4 Cu 0.76089(5) 0.83583(4) 0.98652(5)
N2_4 N 0.9485(3) 0.7417(3) 0.8005(3)
C1_4 C 0.8176(5) 0.7287(4) 0.9396(5)
H1_4 H 0.8482 0.7165 0.9546
H2_4 H 0.8065 0.7121 0.9108
C2_4 C 0.8323(4) 0.7709(4) 0.9185(4)
C3_4 C 0.8569(4) 0.7948(3) 0.9620(4)
H3_4 H 0.8698 0.8198 0.9479
H4_4 H 0.8863 0.7800 0.9754
C5_4 C 0.5836(4) 0.7335(3) 0.9836(4)
C6_4 C 0.5998(4) 0.7637(3) 0.9417(4)
H7_4 H 0.5716 0.7825 0.9365
H8_4 H 0.6049 0.7494 0.9094
C10_4 C 0.6262(4) 0.7014(3) 0.9899(4)
H11_4 H 0.6295 0.6873 0.9572
C11_4 C 0.5340(4) 0.7121(3) 0.9684(4)
C14_4 C 0.5109(4) 0.6832(3) 0.9992(4)
C15_4 C 0.5069(4) 0.7223(3) 0.9231(4)
H14_4 H 0.5207 0.7407 0.8999
C16_4 C 0.4589(4) 0.7043(3) 0.9131(4)
H15_4 H 0.4408 0.7121 0.8836
C17_4 C 0.4652(4) 0.6654(3) 0.9862(4)
C18_4 C 0.7870(4) 0.7908(4) 0.8927(4)
H17_4 H 0.7744 0.7738 0.8650
H18_4 H 0.7986 0.8157 0.8772
C19_4 C 0.8737(4) 0.7613(4) 0.8766(4)
C23_4 C 0.6817(5) 0.8985(3) 0.9930(5)
H25_4 H 0.7033 0.9149 0.9708
H26_4 H 0.6459 0.9057 0.9863
C30_4 C 0.8600(4) 0.7449(4) 0.8302(4)
H35_4 H 0.8253 0.7397 0.8235
C31_4 C 0.9256(4) 0.7659(4) 0.8842(4)
H36_4 H 0.9377 0.7758 0.9156
C32_4 C 0.9602(4) 0.7559(5) 0.8460(5)
H37_4 H 0.9952 0.7597 0.8531
C33_4 C 0.8970(4) 0.7360(4) 0.7923(4)
H38_4 H 0.8861 0.7258 0.7606
C36_4 C 0.7054(5) 0.6791(5) 0.8882(6)
C37_4 C 0.7814(6) 0.9004(4) 0.8994(6)
C38_4 C 0.8498(8) 0.6108(7) 0.9555(8)
C44_4 C 0.8436(10) 0.6147(8) 0.9016(10)
H51_4 H 0.8769 0.6137 0.8851
H52_4 H 0.8223 0.5932 0.8890
H53_4 H 0.8272 0.6398 0.8940
C45_4 C 0.6782(9) 0.6553(7) 0.8474(10)
H54_4 H 0.6651 0.6731 0.8212
H55_4 H 0.7020 0.6367 0.8320
H56_4 H 0.6499 0.6409 0.8628
C50_4 C 0.8147(8) 0.9344(6) 0.8809(10)
H61_4 H 0.8002 0.9454 0.8497
H62_4 H 0.8162 0.9547 0.9071
H63_4 H 0.8491 0.9247 0.8739
O4_4 O 0.5869(7) 0.8546(6) 0.8845(8)
O7_4 O 0.7770(3) 0.7297(2) 0.9781(3)
O12_4 O 0.6893(3) 0.8565(2) 0.9793(3)
O14_4 O 0.6465(2) 0.7862(2) 0.9531(2)
O18_4 O 0.7451(2) 0.7992(2) 0.9276(2)
O20_4 O 0.7993(3) 0.8836(2) 0.9433(3)
O23_4 O 0.8043(4) 0.6118(3) 0.9818(4)
O26_4 O 0.8892(4) 0.6001(4) 0.9814(5)
O27_4 O 0.7015(3) 0.7143(3) 0.8901(3)
O28_4 O 0.7238(4) 0.6550(3) 0.9247(4)
O32_4 O 0.7402(4) 0.8876(3) 0.8741(4)
H143_4 H 0.566573 0.838055 0.909187
H144_4 H 0.575649 0.848629 0.848503
H147_4 H 0.546323 0.829953 0.982129
H148_4 H 0.575508 0.872901 0.980171
H149_4 H 0.895958 0.882866 0.983315
loop_
_geom_bond_atom_site_label_1
_geom_bond_atom_site_label_2
_geom_bond_site_symmetry_1
_geom_bond_site_symmetry_2
C93 H109 1_555 1_555
H110 C93 1_555 1_555
H111 C93 1_555 1_555
N5 C70 1_555 1_555
H82 C70 1_555 1_555
C71 N5 1_555 1_555
Cd11 N5 1_555 1_555
Cu8 O35 1_555 1_555
Cu10 O39 1_555 1_555
Cu11 O37 1_555 1_555
Cu12 O36 1_555 1_555
Cd6 O43 1_555 1_555
Cd7 O35 1_555 1_555
Cd9 O37 1_555 1_555
Cd10 O40 1_555 1_555
N7 C101 1_555 1_555
N8 C105 1_555 1_555
C58 H72 1_555 1_555
H73 C58 1_555 1_555
C61 H76 1_555 1_555
H77 C61 1_555 1_555
C62 C63 1_555 1_555
C63 C61 1_555 1_555
C66 C67 1_555 1_555
C67 C107 1_555 1_555
C74 C63 1_555 1_555
H86 C74 1_555 1_555
H87 C74 1_555 1_555
C75 C63 1_555 1_555
H88 C75 1_555 1_555
H89 C75 1_555 1_555
C76 C66 1_555 1_555
H90 C76 1_555 1_555
H91 C76 1_555 1_555
C78 C81 1_555 1_555
C79 C66 1_555 1_555
H94 C79 1_555 1_555
H95 C79 1_555 1_555
C80 C82 1_555 1_555
C81 H96 1_555 1_555
H97 C81 1_555 1_555
H98 C81 1_555 1_555
C82 H99 1_555 1_555
H100 C82 1_555 1_555
H101 C82 1_555 1_555
C88 C89 1_555 1_555
C89 H106 1_555 1_555
H107 C89 1_555 1_555
H108 C89 1_555 1_555
C94 C95 1_555 1_555
C95 H112 1_555 1_555
H113 C95 1_555 1_555
H114 C95 1_555 1_555
C96 C97 1_555 1_555
C97 H115 1_555 1_555
H116 C97 1_555 1_555
H117 C97 1_555 1_555
C100 C62 1_555 1_555
H124 C100 1_555 1_555
C101 C100 1_555 1_555
H125 C101 1_555 1_555
C102 N7 1_555 1_555
H126 C102 1_555 1_555
C103 C62 1_555 1_555
H127 C103 1_555 1_555
C105 H131 1_555 1_555
C106 N8 1_555 1_555
H132 C106 1_555 1_555
C107 C105 1_555 1_555
H133 C107 1_555 1_555
C108 C67 1_555 1_555
H134 C108 1_555 1_555
O37 Cu8 1_555 1_555
O39 Cu8 1_555 1_555
O42 Cd7 1_555 1_555
O43 Cu11 1_555 1_555
O44 Cu10 1_555 1_555
O45 Cu10 1_555 1_555
O49 Cu10 1_555 1_555
O50 Cu11 1_555 1_555
O51 Cd6 1_555 1_555
O53 Cd6 1_555 1_555
O55 Cd9 1_555 1_555
O56 Cd6 1_555 1_555
O58 Cd7 1_555 1_555
O59 Cd7 1_555 1_555
O63 Cd9 1_555 1_555
O64 Cd9 1_555 1_555
O65 Cu8 1_555 1_555
O67 Cd6 1_555 1_555
O68 Cu10 1_555 1_555
Cu15_2 O56 1_555 1_555
Cd14 N7 1_555 1_555
Cd15 N8 1_555 1_555
N9 Cd7 1_555 1_555
N13 Cd10 1_555 1_555
Cu11 O45 1_555 1_555
Cu11 O47 1_555 1_555
Cu12 O43 1_555 1_555
Cu12 O44 1_555 1_555
Cd6 O44 1_555 1_555
Cd6 O45 1_555 1_555
Cd7 O39 1_555 1_555
Cd7 O49 1_555 1_555
Cd9 O47 1_555 1_555
Cd10 O55 1_555 1_555
Cd10 O63 1_555 1_555
C58 O43 1_555 1_555
C61 O45 1_555 1_555
C74 O37 1_555 1_555
C75 O39 1_555 1_555
C76 O49 1_555 1_555
C78 O55 1_555 1_555
C78 O65 1_555 1_555
C79 O44 1_555 1_555
C80 O50 1_555 1_555
C80 O51 1_555 1_555
C83 O53 1_555 1_555
C83 O56 1_555 1_555
C88 O58 1_555 1_555
C88 O59 1_555 1_555
C94 O67 1_555 1_555
C94 O68 1_555 1_555
C96 O63 1_555 1_555
C96 O64 1_555 1_555
C102 C103 1_555 1_555
C106 C108 1_555 1_555
O40 H135 1_555 1_555
O40 H136 1_555 1_555
O42 H138 1_555 1_555
Cu1 O1 1_555 1_555
Cu2 O7 1_555 1_555
Cu3 O5 1_555 1_555
Cu4 O3 1_555 1_555
Cu5 O2 1_555 1_555
Cu6 O1 1_555 1_555
Cu7 N2 1_555 1_555
Cd1 O9 1_555 1_555
Cd2 O1 1_555 1_555
Cd3 O4 1_555 1_555
Cd4 O3 1_555 1_555
Cd5 O6 1_555 1_555
N2 C32 1_555 1_555
N3 C47 1_555 1_555
N4 C51 1_555 1_555
C1 H1 1_555 1_555
H2 C1 1_555 1_555
C2 C1 1_555 1_555
C3 C2 1_555 1_555
H3 C3 1_555 1_555
H4 C3 1_555 1_555
C4 H5 1_555 1_555
H6 C4 1_555 1_555
C5 C4 1_555 1_555
C6 C5 1_555 1_555
H7 C6 1_555 1_555
H8 C6 1_555 1_555
C7 H9 1_555 1_555
H10 C7 1_555 1_555
C8 C9 1_555 1_555
C9 C7 1_555 1_555
C10 C5 1_555 1_555
H11 C10 1_555 1_555
H12 C10 1_555 1_555
C11 C5 1_555 1_555
C12 C13 1_555 1_555
C13 C53 1_555 1_555
C14 C11 1_555 1_555
H13 C14 1_555 1_555
C15 C11 1_555 1_555
H14 C15 1_555 1_555
C18 C2 1_555 1_555
H17 C18 1_555 1_555
H18 C18 1_555 1_555
C19 C2 1_555 1_555
C20 C9 1_555 1_555
H19 C20 1_555 1_555
H20 C20 1_555 1_555
C21 C9 1_555 1_555
H21 C21 1_555 1_555
H22 C21 1_555 1_555
C22 C12 1_555 1_555
H23 C22 1_555 1_555
H24 C22 1_555 1_555
C23 C12 1_555 1_555
H25 C23 1_555 1_555
H26 C23 1_555 1_555
C24 C27 1_555 1_555
C25 C12 1_555 1_555
H27 C25 1_555 1_555
H28 C25 1_555 1_555
C26 C28 1_555 1_555
C27 H29 1_555 1_555
H30 C27 1_555 1_555
H31 C27 1_555 1_555
C28 H32 1_555 1_555
H33 C28 1_555 1_555
H34 C28 1_555 1_555
C30 C19 1_555 1_555
H35 C30 1_555 1_555
C31 C19 1_555 1_555
H36 C31 1_555 1_555
C32 C31 1_555 1_555
H37 C32 1_555 1_555
C33 N2 1_555 1_555
H38 C33 1_555 1_555
C34 C35 1_555 1_555
C35 H39 1_555 1_555
H40 C35 1_555 1_555
H41 C35 1_555 1_555
C36 C45 1_555 1_555
C37 C50 1_555 1_555
C38 C44 1_555 1_555
C40 C41 1_555 1_555
C41 H45 1_555 1_555
H46 C41 1_555 1_555
H47 C41 1_555 1_555
C42 C43 1_555 1_555
C43 H48 1_555 1_555
H49 C43 1_555 1_555
H50 C43 1_555 1_555
C44 H51 1_555 1_555
H52 C44 1_555 1_555
H53 C44 1_555 1_555
C45 H54 1_555 1_555
H55 C45 1_555 1_555
H56 C45 1_555 1_555
C46 C8 1_555 1_555
H57 C46 1_555 1_555
C47 C46 1_555 1_555
H58 C47 1_555 1_555
C48 N3 1_555 1_555
H59 C48 1_555 1_555
C49 C8 1_555 1_555
H60 C49 1_555 1_555
C50 H61 1_555 1_555
H62 C50 1_555 1_555
H63 C50 1_555 1_555
C51 H64 1_555 1_555
C52 N4 1_555 1_555
H65 C52 1_555 1_555
C53 C51 1_555 1_555
H66 C53 1_555 1_555
C54 C13 1_555 1_555
H67 C54 1_555 1_555
O1 C3 1_555 1_555
O3 Cu1 1_555 1_555
O5 Cu1 1_555 1_555
O7 Cu1 1_555 1_555
O8 Cd2 1_555 1_555
O9 Cu4 1_555 1_555
O10 Cu3 1_555 1_555
O11 Cu3 1_555 1_555
O12 Cu5 1_555 1_555
O13 Cu2 1_555 1_555
O14 Cu2 1_555 1_555
O15 Cu3 1_555 1_555
O16 Cu4 1_555 1_555
O17 Cd1 1_555 1_555
O18 Cu2 1_555 1_555
O19 Cd1 1_555 1_555
O20 Cu6 1_555 1_555
O21 Cd4 1_555 1_555
O22 Cd1 1_555 1_555
O23 Cd4 1_555 1_555
O24 Cd2 1_555 1_555
O25 Cd2 1_555 1_555
O26 Cd5 1_555 1_555
O27 Cu2 1_555 1_555
O28 Cd4 1_555 1_555
O29 Cd4 1_555 1_555
O30 Cd4 1_555 1_555
O31 Cu1 1_555 1_555
O32 Cd3 1_555 1_555
O33 Cd1 1_555 1_555
O34 Cu3 1_555 1_555
Cu9 O41 1_555 1_555
Cd8 O38 1_555 1_555
N6 Cu7 1_555 1_555
C55 H68 1_555 1_555
H69 C55 1_555 1_555
C56 C55 1_555 1_555
C57 C56 1_555 1_555
H70 C57 1_555 1_555
H71 C57 1_555 1_555
C60 C59 1_555 1_555
H74 C60 1_555 1_555
H75 C60 1_555 1_555
C64 C59 1_555 1_555
H78 C64 1_555 1_555
C65 C59 1_555 1_555
C68 C65 1_555 1_555
C69 C65 1_555 1_555
H81 C69 1_555 1_555
C72 C56 1_555 1_555
H84 C72 1_555 1_555
H85 C72 1_555 1_555
C73 C56 1_555 1_555
H92 C77 1_555 1_555
H93 C77 1_555 1_555
C84 C73 1_555 1_555
H102 C84 1_555 1_555
C85 C73 1_555 1_555
H103 C85 1_555 1_555
C86 N6 1_555 1_555
H104 C86 1_555 1_555
C87 N6 1_555 1_555
H105 C87 1_555 1_555
C90 C99 1_555 1_555
C91 C104 1_555 1_555
C92 C98 1_555 1_555
C98 H118 1_555 1_555
H119 C98 1_555 1_555
H120 C98 1_555 1_555
C99 H121 1_555 1_555
H122 C99 1_555 1_555
H123 C99 1_555 1_555
C104 H128 1_555 1_555
H129 C104 1_555 1_555
H130 C104 1_555 1_555
O48 Cu9 1_555 1_555
O52 Cu9 1_555 1_555
O54 Cu13 1_555 1_555
O61 Cu9 1_555 1_555
O66 Cd8 1_555 1_555
Cu15 O22 1_555 1_555
Cd13 N3 1_555 1_555
Cd16 N4 1_555 1_555
N10 Cd2 1_555 1_555
N11 Cd3 1_555 1_555
N12 Cd8 1_555 1_555
N14 Cd5 1_555 1_555
O69 Cu7 1_555 1_555
O70 Cu7 1_555 1_555
Cu4 O11 1_555 1_555
Cu4 O13 1_555 1_555
Cu5 O9 1_555 1_555
Cu5 O10 1_555 1_555
Cu5 O14 1_555 1_555
Cu6 O12 1_555 1_555
Cu6 O15 1_555 1_555
Cu6 O18 1_555 1_555
Cd1 O10 1_555 1_555
Cd1 O11 1_555 1_555
Cd2 O5 1_555 1_555
Cd2 O15 1_555 1_555
Cd3 O12 1_555 1_555
Cd3 O14 1_555 1_555
Cd3 O18 1_555 1_555
Cd4 O7 1_555 1_555
Cd4 O13 1_555 1_555
Cd5 O21 1_555 1_555
Cd5 O23 1_555 1_555
Cd5 O29 1_555 1_555
C1 O7 1_555 1_555
C4 O9 1_555 1_555
C6 O14 1_555 1_555
C7 O11 1_555 1_555
C10 O13 1_555 1_555
C18 O18 1_555 1_555
C20 O3 1_555 1_555
C21 O5 1_555 1_555
C22 O15 1_555 1_555
C23 O12 1_555 1_555
C24 O21 1_555 1_555
C24 O31 1_555 1_555
C25 O10 1_555 1_555
C26 O16 1_555 1_555
C26 O17 1_555 1_555
C29 O19 1_555 1_555
C29 O22 1_555 1_555
C30 C33 1_555 1_555
C34 O24 1_555 1_555
C34 O25 1_555 1_555
C36 O27 1_555 1_555
C36 O28 1_555 1_555
C37 O20 1_555 1_555
C37 O32 1_555 1_555
C38 O23 1_555 1_555
C38 O26 1_555 1_555
C40 O33 1_555 1_555
C40 O34 1_555 1_555
C42 O29 1_555 1_555
C42 O30 1_555 1_555
C48 C49 1_555 1_555
C52 C54 1_555 1_555
Cu13 O46 1_555 1_555
Cu13 O52 1_555 1_555
Cd8 O46 1_555 1_555
Cd8 O48 1_555 1_555
Cd8 O52 1_555 1_555
C55 O41 1_555 1_555
C60 O48 1_555 1_555
C72 O52 1_555 1_555
C77 O46 1_555 1_555
C84 C87 1_555 1_555
C85 C86 1_555 1_555
C90 O61 1_555 1_555
C90 O62 1_555 1_555
C91 O54 1_555 1_555
C91 O66 1_555 1_555
C92 O57 1_555 1_555
C92 O60 1_555 1_555
O38 H139 1_555 1_555
O38 H140 1_555 1_555
O4 H143 1_555 1_555
O4 H144 1_555 1_555
O6 H145 1_555 1_555
O6 H146 1_555 1_555
O2 H147 1_555 1_555
O2 H148 1_555 1_555
O8 H149 1_555 1_555
O8 H150 1_555 1_555
N1 C16 1_555 1_555
H15 C16 1_555 1_555
C17 N1 1_555 1_555
H16 C17 1_555 1_555
C39 H42 1_555 1_555
H43 C39 1_555 1_555
H44 C39 1_555 1_555
Cd12 N1 1_555 1_555
Cu2_2 O7_2 1_555 1_555
Cu15 N2_2 1_555 1_555
Cd13 O4_2 1_555 1_555
N9 C16_2 1_555 1_555
N2_2 C32_2 1_555 1_555
C1_2 H1_2 1_555 1_555
H2_2 C1_2 1_555 1_555
C2_2 C1_2 1_555 1_555
C3_2 C2_2 1_555 1_555
H3_2 C3_2 1_555 1_555
H4_2 C3_2 1_555 1_555
C6_2 C5_2 1_555 1_555
H7_2 C6_2 1_555 1_555
H8_2 C6_2 1_555 1_555
C10_2 C5_2 1_555 1_555
H11_2 C10_2 1_555 1_555
C11_2 C5_2 1_555 1_555
C14_2 C11_2 1_555 1_555
C15_2 C11_2 1_555 1_555
H14_2 C15_2 1_555 1_555
C16_2 C15_2 1_555 1_555
H15_2 C16_2 1_555 1_555
C17_2 N9 1_555 1_555
C18_2 C2_2 1_555 1_555
H17_2 C18_2 1_555 1_555
H18_2 C18_2 1_555 1_555
C19_2 C2_2 1_555 1_555
H25_2 C23_2 1_555 1_555
H26_2 C23_2 1_555 1_555
C30_2 C19_2 1_555 1_555
H35_2 C30_2 1_555 1_555
C31_2 C19_2 1_555 1_555
H36_2 C31_2 1_555 1_555
C32_2 C31_2 1_555 1_555
H37_2 C32_2 1_555 1_555
C33_2 N2_2 1_555 1_555
H38_2 C33_2 1_555 1_555
C36_2 C45_2 1_555 1_555
C37_2 C50_2 1_555 1_555
C38_2 C44_2 1_555 1_555
C44_2 H51_2 1_555 1_555
H52_2 C44_2 1_555 1_555
H53_2 C44_2 1_555 1_555
C45_2 H54_2 1_555 1_555
H55_2 C45_2 1_555 1_555
H56_2 C45_2 1_555 1_555
C50_2 H61_2 1_555 1_555
H62_2 C50_2 1_555 1_555
H63_2 C50_2 1_555 1_555
O14_2 Cu2_2 1_555 1_555
O18_2 Cu2_2 1_555 1_555
O20_2 Cu6_2 1_555 1_555
O27_2 Cu2_2 1_555 1_555
O32_2 Cd13 1_555 1_555
Cu6_2 O12_2 1_555 1_555
Cu6_2 O18_2 1_555 1_555
Cd13 O12_2 1_555 1_555
Cd13 O14_2 1_555 1_555
Cd13 O18_2 1_555 1_555
C1_2 O7_2 1_555 1_555
C6_2 O14_2 1_555 1_555
C14_2 C17_2 1_555 1_555
C18_2 O18_2 1_555 1_555
C23_2 O12_2 1_555 1_555
C30_2 C33_2 1_555 1_555
C36_2 O27_2 1_555 1_555
C36_2 O28_2 1_555 1_555
C37_2 O20_2 1_555 1_555
C37_2 O32_2 1_555 1_555
C38_2 O23_2 1_555 1_555
C38_2 O26_2 1_555 1_555
O4_2 H143_2 1_555 1_555
O4_2 H144_2 1_555 1_555
Cu1_2 O1_2 1_555 1_555
Cu3_2 O5_2 1_555 1_555
Cu4_2 O3_2 1_555 1_555
Cu5_2 O2_2 1_555 1_555
Cd1_2 O9_2 1_555 1_555
Cd11 O1_2 1_555 1_555
Cd4_2 O3_2 1_555 1_555
Cd5_2 O6_2 1_555 1_555
N11 C47_2 1_555 1_555
C4_2 H5_2 1_555 1_555
H6_2 C4_2 1_555 1_555
C7_2 H9_2 1_555 1_555
H10_2 C7_2 1_555 1_555
C8_2 C9_2 1_555 1_555
C9_2 C7_2 1_555 1_555
C12_2 C13_2 1_555 1_555
C13_2 C53_2 1_555 1_555
C20_2 C9_2 1_555 1_555
H19_2 C20_2 1_555 1_555
H20_2 C20_2 1_555 1_555
C21_2 C9_2 1_555 1_555
H21_2 C21_2 1_555 1_555
H22_2 C21_2 1_555 1_555
C22_2 C12_2 1_555 1_555
H23_2 C22_2 1_555 1_555
H24_2 C22_2 1_555 1_555
C24_2 C27_2 1_555 1_555
C25_2 C12_2 1_555 1_555
H27_2 C25_2 1_555 1_555
H28_2 C25_2 1_555 1_555
C26_2 C28_2 1_555 1_555
C27_2 H29_2 1_555 1_555
H30_2 C27_2 1_555 1_555
H31_2 C27_2 1_555 1_555
C28_2 H32_2 1_555 1_555
H33_2 C28_2 1_555 1_555
H34_2 C28_2 1_555 1_555
C29_2 C39_2 1_555 1_555
C34_2 C35_2 1_555 1_555
C35_2 H39_2 1_555 1_555
H40_2 C35_2 1_555 1_555
H41_2 C35_2 1_555 1_555
C39_2 H42_2 1_555 1_555
H43_2 C39_2 1_555 1_555
H44_2 C39_2 1_555 1_555
C40_2 C41_2 1_555 1_555
C41_2 H45_2 1_555 1_555
H46_2 C41_2 1_555 1_555
H47_2 C41_2 1_555 1_555
C42_2 C43_2 1_555 1_555
C43_2 H48_2 1_555 1_555
H49_2 C43_2 1_555 1_555
H50_2 C43_2 1_555 1_555
C46_2 C8_2 1_555 1_555
H57_2 C46_2 1_555 1_555
C47_2 C46_2 1_555 1_555
H58_2 C47_2 1_555 1_555
C48_2 N11 1_555 1_555
H59_2 C48_2 1_555 1_555
C49_2 C8_2 1_555 1_555
H60_2 C49_2 1_555 1_555
H66_2 C53_2 1_555 1_555
C54_2 C13_2 1_555 1_555
H67_2 C54_2 1_555 1_555
O3_2 Cu1_2 1_555 1_555
O5_2 Cu1_2 1_555 1_555
O8_2 Cd11 1_555 1_555
O9_2 Cu4_2 1_555 1_555
O10_2 Cu3_2 1_555 1_555
O11_2 Cu3_2 1_555 1_555
O15_2 Cu3_2 1_555 1_555
O16_2 Cu4_2 1_555 1_555
O17_2 Cd1_2 1_555 1_555
O19_2 Cd1_2 1_555 1_555
O21_2 Cd4_2 1_555 1_555
O69 Cd1_2 1_555 1_555
O24_2 Cd11 1_555 1_555
O25_2 Cd11 1_555 1_555
O29_2 Cd4_2 1_555 1_555
O30_2 Cd4_2 1_555 1_555
O31_2 Cu1_2 1_555 1_555
O33_2 Cd1_2 1_555 1_555
O34_2 Cu3_2 1_555 1_555
N14_2 Cd5_2 1_555 1_555
Cu4_2 O11_2 1_555 1_555
Cu4_2 O13_2 1_555 1_555
Cu5_2 O9_2 1_555 1_555
Cu5_2 O10_2 1_555 1_555
Cd1_2 O10_2 1_555 1_555
Cd1_2 O11_2 1_555 1_555
Cd11 O5_2 1_555 1_555
Cd11 O15_2 1_555 1_555
Cd4_2 O13_2 1_555 1_555
Cd5_2 O21_2 1_555 1_555
Cd5_2 O29_2 1_555 1_555
C4_2 O9_2 1_555 1_555
C7_2 O11_2 1_555 1_555
C20_2 O3_2 1_555 1_555
C21_2 O5_2 1_555 1_555
C22_2 O15_2 1_555 1_555
C24_2 O21_2 1_555 1_555
C24_2 O31_2 1_555 1_555
C25_2 O10_2 1_555 1_555
C26_2 O16_2 1_555 1_555
C26_2 O17_2 1_555 1_555
C29_2 O19_2 1_555 1_555
C29_2 O69 1_555 1_555
C34_2 O24_2 1_555 1_555
C34_2 O25_2 1_555 1_555
C40_2 O33_2 1_555 1_555
C40_2 O34_2 1_555 1_555
C42_2 O29_2 1_555 1_555
C42_2 O30_2 1_555 1_555
C48_2 C49_2 1_555 1_555
O6_2 H145_2 1_555 1_555
O6_2 H146_2 1_555 1_555
O8_2 H150_2 1_555 1_555
N4_2 C51_2 1_555 1_555
C51_2 H64_2 1_555 1_555
C52_2 N4_2 1_555 1_555
H65_2 C52_2 1_555 1_555
Cd16_2 N4_2 1_555 1_555
Cu8_2 O35_2 1_555 1_555
Cu9_2 O41_2 1_555 1_555
Cu10_2 O39_2 1_555 1_555
Cu11_2 O37_2 1_555 1_555
Cu12_2 O36_2 1_555 1_555
Cu13_2 O35_2 1_555 1_555
Cd6_2 O43_2 1_555 1_555
Cd12 O35_2 1_555 1_555
Cd14 O38_2 1_555 1_555
Cd9_2 O37_2 1_555 1_555
Cd10_2 O40_2 1_555 1_555
N10 C70_2 1_555 1_555
N6_2 Cu15_2 1_555 1_555
N12 C101_2 1_555 1_555
C55_2 H68_2 1_555 1_555
H69_2 C55_2 1_555 1_555
C56_2 C55_2 1_555 1_555
C57_2 C56_2 1_555 1_555
H70_2 C57_2 1_555 1_555
H71_2 C57_2 1_555 1_555
C58_2 H72_2 1_555 1_555
H73_2 C58_2 1_555 1_555
C59_2 C58_2 1_555 1_555
C60_2 C59_2 1_555 1_555
H74_2 C60_2 1_555 1_555
H75_2 C60_2 1_555 1_555
C61_2 H76_2 1_555 1_555
H77_2 C61_2 1_555 1_555
C62_2 C63_2 1_555 1_555
C63_2 C61_2 1_555 1_555
C64_2 C59_2 1_555 1_555
H78_2 C64_2 1_555 1_555
H79_2 C64_2 1_555 1_555
C65_2 C59_2 1_555 1_555
C66_2 C67_2 1_555 1_555
C67_2 C107_2 1_555 1_555
C68_2 C65_2 1_555 1_555
H80_2 C68_2 1_555 1_555
C69_2 C65_2 1_555 1_555
H81_2 C69_2 1_555 1_555
C70_2 C69_2 1_555 1_555
H82_2 C70_2 1_555 1_555
C71_2 N10 1_555 1_555
H83_2 C71_2 1_555 1_555
C72_2 C56_2 1_555 1_555
H84_2 C72_2 1_555 1_555
H85_2 C72_2 1_555 1_555
C73_2 C56_2 1_555 1_555
C74_2 C63_2 1_555 1_555
H86_2 C74_2 1_555 1_555
H87_2 C74_2 1_555 1_555
C75_2 C63_2 1_555 1_555
H88_2 C75_2 1_555 1_555
H89_2 C75_2 1_555 1_555
C76_2 C66_2 1_555 1_555
H90_2 C76_2 1_555 1_555
H91_2 C76_2 1_555 1_555
C77_2 C66_2 1_555 1_555
H92_2 C77_2 1_555 1_555
H93_2 C77_2 1_555 1_555
C78_2 C81_2 1_555 1_555
C79_2 C66_2 1_555 1_555
H94_2 C79_2 1_555 1_555
H95_2 C79_2 1_555 1_555
C80_2 C82_2 1_555 1_555
C81_2 H96_2 1_555 1_555
H97_2 C81_2 1_555 1_555
H98_2 C81_2 1_555 1_555
C82_2 H99_2 1_555 1_555
H100_2 C82_2 1_555 1_555
H101_2 C82_2 1_555 1_555
C83_2 C93_2 1_555 1_555
C84_2 C73_2 1_555 1_555
H102_2 C84_2 1_555 1_555
C85_2 C73_2 1_555 1_555
H103_2 C85_2 1_555 1_555
C86_2 N6_2 1_555 1_555
H104_2 C86_2 1_555 1_555
C87_2 N6_2 1_555 1_555
H105_2 C87_2 1_555 1_555
C88_2 C89_2 1_555 1_555
C89_2 H106_2 1_555 1_555
H107_2 C89_2 1_555 1_555
H108_2 C89_2 1_555 1_555
C90_2 C99_2 1_555 1_555
C91_2 C104_2 1_555 1_555
C92_2 C98_2 1_555 1_555
C93_2 H109_2 1_555 1_555
H110_2 C93_2 1_555 1_555
H111_2 C93_2 1_555 1_555
C94_2 C95_2 1_555 1_555
C95_2 H112_2 1_555 1_555
H113_2 C95_2 1_555 1_555
H114_2 C95_2 1_555 1_555
C96_2 C97_2 1_555 1_555
C97_2 H115_2 1_555 1_555
H116_2 C97_2 1_555 1_555
H117_2 C97_2 1_555 1_555
C98_2 H118_2 1_555 1_555
H119_2 C98_2 1_555 1_555
H120_2 C98_2 1_555 1_555
C99_2 H121_2 1_555 1_555
H122_2 C99_2 1_555 1_555
H123_2 C99_2 1_555 1_555
C100_2 C62_2 1_555 1_555
H124_2 C100_2 1_555 1_555
C101_2 C100_2 1_555 1_555
H125_2 C101_2 1_555 1_555
C102_2 N12 1_555 1_555
H126_2 C102_2 1_555 1_555
C103_2 C62_2 1_555 1_555
H127_2 C103_2 1_555 1_555
C104_2 H128_2 1_555 1_555
H129_2 C104_2 1_555 1_555
H130_2 C104_2 1_555 1_555
H133_2 C107_2 1_555 1_555
C108_2 C67_2 1_555 1_555
H134_2 C108_2 1_555 1_555
O35_2 C57_2 1_555 1_555
O37_2 Cu8_2 1_555 1_555
O39_2 Cu8_2 1_555 1_555
O41_2 Cu8_2 1_555 1_555
O42_2 Cd12 1_555 1_555
O43_2 Cu11_2 1_555 1_555
O44_2 Cu10_2 1_555 1_555
O45_2 Cu10_2 1_555 1_555
O46_2 Cu12_2 1_555 1_555
O47_2 Cu9_2 1_555 1_555
O48_2 Cu9_2 1_555 1_555
O49_2 Cu10_2 1_555 1_555
O50_2 Cu11_2 1_555 1_555
O51_2 Cd6_2 1_555 1_555
O52_2 Cu9_2 1_555 1_555
O53_2 Cd6_2 1_555 1_555
O54_2 Cu13_2 1_555 1_555
O55_2 Cd9_2 1_555 1_555
O70 Cd6_2 1_555 1_555
O57_2 Cd9_2 1_555 1_555
O58_2 Cd12 1_555 1_555
O59_2 Cd12 1_555 1_555
O60_2 Cd10_2 1_555 1_555
O61_2 Cu9_2 1_555 1_555
O62_2 Cd9_2 1_555 1_555
O63_2 Cd9_2 1_555 1_555
O64_2 Cd9_2 1_555 1_555
O65_2 Cu8_2 1_555 1_555
O66_2 Cd14 1_555 1_555
O67_2 Cd6_2 1_555 1_555
O68_2 Cu10_2 1_555 1_555
N13_2 Cd10_2 1_555 1_555
Cu11_2 O45_2 1_555 1_555
Cu11_2 O47_2 1_555 1_555
Cu12_2 O43_2 1_555 1_555
Cu12_2 O44_2 1_555 1_555
Cu12_2 O48_2 1_555 1_555
Cu13_2 O46_2 1_555 1_555
Cu13_2 O49_2 1_555 1_555
Cu13_2 O52_2 1_555 1_555
Cd6_2 O44_2 1_555 1_555
Cd6_2 O45_2 1_555 1_555
Cd12 O39_2 1_555 1_555
Cd12 O49_2 1_555 1_555
Cd14 O46_2 1_555 1_555
Cd14 O48_2 1_555 1_555
Cd14 O52_2 1_555 1_555
Cd9_2 O41_2 1_555 1_555
Cd9_2 O47_2 1_555 1_555
Cd10_2 O55_2 1_555 1_555
Cd10_2 O57_2 1_555 1_555
Cd10_2 O63_2 1_555 1_555
C55_2 O41_2 1_555 1_555
C58_2 O43_2 1_555 1_555
C60_2 O48_2 1_555 1_555
C61_2 O45_2 1_555 1_555
C64_2 O47_2 1_555 1_555
C68_2 C71_2 1_555 1_555
C72_2 O52_2 1_555 1_555
C74_2 O37_2 1_555 1_555
C75_2 O39_2 1_555 1_555
C76_2 O49_2 1_555 1_555
C77_2 O46_2 1_555 1_555
C78_2 O55_2 1_555 1_555
C78_2 O65_2 1_555 1_555
C79_2 O44_2 1_555 1_555
C80_2 O50_2 1_555 1_555
C80_2 O51_2 1_555 1_555
C83_2 O53_2 1_555 1_555
C83_2 O70 1_555 1_555
C84_2 C87_2 1_555 1_555
C85_2 C86_2 1_555 1_555
C88_2 O58_2 1_555 1_555
C88_2 O59_2 1_555 1_555
C90_2 O61_2 1_555 1_555
C90_2 O62_2 1_555 1_555
C91_2 O54_2 1_555 1_555
C91_2 O66_2 1_555 1_555
C92_2 O57_2 1_555 1_555
C92_2 O60_2 1_555 1_555
C94_2 O67_2 1_555 1_555
C94_2 O68_2 1_555 1_555
C96_2 O63_2 1_555 1_555
C96_2 O64_2 1_555 1_555
C102_2 C103_2 1_555 1_555
O40_2 H135_2 1_555 1_555
O40_2 H136_2 1_555 1_555
O42_2 H137_2 1_555 1_555
O42_2 H138_2 1_555 1_555
O38_2 H139_2 1_555 1_555
O38_2 H140_2 1_555 1_555
O36_2 H141_2 1_555 1_555
O36_2 H142_2 1_555 1_555
N8_2 C105_2 1_555 1_555
C105_2 H131_2 1_555 1_555
C106_2 N8_2 1_555 1_555
H132_2 C106_2 1_555 1_555
Cd15_2 N8_2 1_555 1_555
N1_2 C16_3 1_555 1_555
H15_3 C16_3 1_555 1_555
C17_3 N1_2 1_555 1_555
H16_3 C17_3 1_555 1_555
C39_3 H42_3 1_555 1_555
H43_3 C39_3 1_555 1_555
H44_3 C39_3 1_555 1_555
Cd12_2 N1_2 1_555 1_555
Cu1_3 O1_3 1_555 1_555
Cu2_3 O7_3 1_555 1_555
Cu3_3 O5_3 1_555 1_555
Cu4_3 O3_3 1_555 1_555
Cu5_3 O2_3 1_555 1_555
Cu6_3 O1_3 1_555 1_555
Cu7_2 N2_3 1_555 1_555
Cd1_3 O9_3 1_555 1_555
Cd2_2 O1_3 1_555 1_555
Cd3_2 O4_3 1_555 1_555
Cd4_3 O3_3 1_555 1_555
Cd15_2 O6_3 1_555 1_555
N2_3 C32_3 1_555 1_555
N3_2 C47_3 1_555 1_555
N13_2 C51_3 1_555 1_555
C1_3 H1_3 1_555 1_555
H2_3 C1_3 1_555 1_555
C2_3 C1_3 1_555 1_555
C3_3 C2_3 1_555 1_555
H3_3 C3_3 1_555 1_555
H4_3 C3_3 1_555 1_555
C4_3 H5_3 1_555 1_555
H6_3 C4_3 1_555 1_555
C5_3 C4_3 1_555 1_555
C6_3 C5_3 1_555 1_555
H7_3 C6_3 1_555 1_555
H8_3 C6_3 1_555 1_555
C7_3 H9_3 1_555 1_555
H10_3 C7_3 1_555 1_555
C8_3 C9_3 1_555 1_555
C9_3 C7_3 1_555 1_555
C10_3 C5_3 1_555 1_555
H11_3 C10_3 1_555 1_555
H12_3 C10_3 1_555 1_555
C11_3 C5_3 1_555 1_555
C12_3 C13_3 1_555 1_555
C13_3 C53_3 1_555 1_555
C14_3 C11_3 1_555 1_555
H13_3 C14_3 1_555 1_555
C15_3 C11_3 1_555 1_555
H14_3 C15_3 1_555 1_555
C18_3 C2_3 1_555 1_555
H17_3 C18_3 1_555 1_555
H18_3 C18_3 1_555 1_555
C19_3 C2_3 1_555 1_555
C20_3 C9_3 1_555 1_555
H19_3 C20_3 1_555 1_555
H20_3 C20_3 1_555 1_555
C21_3 C9_3 1_555 1_555
H21_3 C21_3 1_555 1_555
H22_3 C21_3 1_555 1_555
C22_3 C12_3 1_555 1_555
H23_3 C22_3 1_555 1_555
H24_3 C22_3 1_555 1_555
C23_3 C12_3 1_555 1_555
H25_3 C23_3 1_555 1_555
H26_3 C23_3 1_555 1_555
C24_3 C27_3 1_555 1_555
C25_3 C12_3 1_555 1_555
H27_3 C25_3 1_555 1_555
H28_3 C25_3 1_555 1_555
C26_3 C28_3 1_555 1_555
C27_3 H29_3 1_555 1_555
H30_3 C27_3 1_555 1_555
H31_3 C27_3 1_555 1_555
C28_3 H32_3 1_555 1_555
H33_3 C28_3 1_555 1_555
H34_3 C28_3 1_555 1_555
C30_3 C19_3 1_555 1_555
H35_3 C30_3 1_555 1_555
C31_3 C19_3 1_555 1_555
H36_3 C31_3 1_555 1_555
C32_3 C31_3 1_555 1_555
H37_3 C32_3 1_555 1_555
C33_3 N2_3 1_555 1_555
H38_3 C33_3 1_555 1_555
C34_3 C35_3 1_555 1_555
C35_3 H39_3 1_555 1_555
H40_3 C35_3 1_555 1_555
H41_3 C35_3 1_555 1_555
C36_3 C45_3 1_555 1_555
C37_3 C50_3 1_555 1_555
C38_3 C44_3 1_555 1_555
C40_3 C41_3 1_555 1_555
C41_3 H45_3 1_555 1_555
H46_3 C41_3 1_555 1_555
H47_3 C41_3 1_555 1_555
C42_3 C43_3 1_555 1_555
C43_3 H48_3 1_555 1_555
H49_3 C43_3 1_555 1_555
H50_3 C43_3 1_555 1_555
C44_3 H51_3 1_555 1_555
H52_3 C44_3 1_555 1_555
H53_3 C44_3 1_555 1_555
C45_3 H54_3 1_555 1_555
H55_3 C45_3 1_555 1_555
H56_3 C45_3 1_555 1_555
C46_3 C8_3 1_555 1_555
H57_3 C46_3 1_555 1_555
C47_3 C46_3 1_555 1_555
H58_3 C47_3 1_555 1_555
C48_3 N3_2 1_555 1_555
H59_3 C48_3 1_555 1_555
C49_3 C8_3 1_555 1_555
H60_3 C49_3 1_555 1_555
C50_3 H61_3 1_555 1_555
H62_3 C50_3 1_555 1_555
H63_3 C50_3 1_555 1_555
C51_3 H64_3 1_555 1_555
C52_3 N13_2 1_555 1_555
H65_3 C52_3 1_555 1_555
C53_3 C51_3 1_555 1_555
H66_3 C53_3 1_555 1_555
C54_3 C13_3 1_555 1_555
H67_3 C54_3 1_555 1_555
O1_3 C3_3 1_555 1_555
O3_3 Cu1_3 1_555 1_555
O5_3 Cu1_3 1_555 1_555
O7_3 Cu1_3 1_555 1_555
O8_3 Cd2_2 1_555 1_555
O9_3 Cu4_3 1_555 1_555
O10_3 Cu3_3 1_555 1_555
O11_3 Cu3_3 1_555 1_555
O12_3 Cu5_3 1_555 1_555
O13_3 Cu2_3 1_555 1_555
O14_3 Cu2_3 1_555 1_555
O15_3 Cu3_3 1_555 1_555
O16_3 Cu4_3 1_555 1_555
O17_3 Cd1_3 1_555 1_555
O18_3 Cu2_3 1_555 1_555
O19_3 Cd1_3 1_555 1_555
O20_3 Cu6_3 1_555 1_555
O21_3 Cd4_3 1_555 1_555
O22_2 Cd1_3 1_555 1_555
O23_3 Cd4_3 1_555 1_555
O24_3 Cd2_2 1_555 1_555
O25_3 Cd2_2 1_555 1_555
O26_3 Cd15_2 1_555 1_555
O27_3 Cu2_3 1_555 1_555
O28_3 Cd4_3 1_555 1_555
O29_3 Cd4_3 1_555 1_555
O30_3 Cd4_3 1_555 1_555
O31_3 Cu1_3 1_555 1_555
O32_3 Cd3_2 1_555 1_555
O33_3 Cd1_3 1_555 1_555
O34_3 Cu3_3 1_555 1_555
Cu9_3 O41_3 1_555 1_555
Cd8_2 O38_3 1_555 1_555
N6_3 Cu7_2 1_555 1_555
C55_3 H68_3 1_555 1_555
H69_3 C55_3 1_555 1_555
C56_3 C55_3 1_555 1_555
C57_3 C56_3 1_555 1_555
H70_3 C57_3 1_555 1_555
H71_3 C57_3 1_555 1_555
C60_3 C59_3 1_555 1_555
H74_3 C60_3 1_555 1_555
H75_3 C60_3 1_555 1_555
C64_3 C59_3 1_555 1_555
H78_3 C64_3 1_555 1_555
C65_3 C59_3 1_555 1_555
C68_3 C65_3 1_555 1_555
C69_3 C65_3 1_555 1_555
H81_3 C69_3 1_555 1_555
C72_3 C56_3 1_555 1_555
H84_3 C72_3 1_555 1_555
H85_3 C72_3 1_555 1_555
C73_3 C56_3 1_555 1_555
H92_3 C77_3 1_555 1_555
H93_3 C77_3 1_555 1_555
C84_3 C73_3 1_555 1_555
H102_3 C84_3 1_555 1_555
C85_3 C73_3 1_555 1_555
H103_3 C85_3 1_555 1_555
C86_3 N6_3 1_555 1_555
H104_3 C86_3 1_555 1_555
C87_3 N6_3 1_555 1_555
H105_3 C87_3 1_555 1_555
C90_3 C99_3 1_555 1_555
C91_3 C104_3 1_555 1_555
C92_3 C98_3 1_555 1_555
C98_3 H118_3 1_555 1_555
H119_3 C98_3 1_555 1_555
H120_3 C98_3 1_555 1_555
C99_3 H121_3 1_555 1_555
H122_3 C99_3 1_555 1_555
H123_3 C99_3 1_555 1_555
C104_3 H128_3 1_555 1_555
H129_3 C104_3 1_555 1_555
H130_3 C104_3 1_555 1_555
O48_3 Cu9_3 1_555 1_555
O52_3 Cu9_3 1_555 1_555
O54_3 Cu13_3 1_555 1_555
O61_3 Cu9_3 1_555 1_555
O66_3 Cd8_2 1_555 1_555
Cu14_2 O22_2 1_555 1_555
Cd13_2 N3_2 1_555 1_555
N10_2 Cd2_2 1_555 1_555
N11_2 Cd3_2 1_555 1_555
N12_2 Cd8_2 1_555 1_555
O69_2 Cu7_2 1_555 1_555
O70_2 Cu7_2 1_555 1_555
Cu4_3 O11_3 1_555 1_555
Cu4_3 O13_3 1_555 1_555
Cu5_3 O9_3 1_555 1_555
Cu5_3 O10_3 1_555 1_555
Cu5_3 O14_3 1_555 1_555
Cu6_3 O12_3 1_555 1_555
Cu6_3 O15_3 1_555 1_555
Cu6_3 O18_3 1_555 1_555
Cd1_3 O10_3 1_555 1_555
Cd1_3 O11_3 1_555 1_555
Cd2_2 O5_3 1_555 1_555
Cd2_2 O15_3 1_555 1_555
Cd3_2 O12_3 1_555 1_555
Cd3_2 O14_3 1_555 1_555
Cd3_2 O18_3 1_555 1_555
Cd4_3 O7_3 1_555 1_555
Cd4_3 O13_3 1_555 1_555
Cd15_2 O21_3 1_555 1_555
Cd15_2 O23_3 1_555 1_555
Cd15_2 O29_3 1_555 1_555
C1_3 O7_3 1_555 1_555
C4_3 O9_3 1_555 1_555
C6_3 O14_3 1_555 1_555
C7_3 O11_3 1_555 1_555
C10_3 O13_3 1_555 1_555
C18_3 O18_3 1_555 1_555
C20_3 O3_3 1_555 1_555
C21_3 O5_3 1_555 1_555
C22_3 O15_3 1_555 1_555
C23_3 O12_3 1_555 1_555
C24_3 O21_3 1_555 1_555
C24_3 O31_3 1_555 1_555
C25_3 O10_3 1_555 1_555
C26_3 O16_3 1_555 1_555
C26_3 O17_3 1_555 1_555
C29_3 O19_3 1_555 1_555
C29_3 O22_2 1_555 1_555
C30_3 C33_3 1_555 1_555
C34_3 O24_3 1_555 1_555
C34_3 O25_3 1_555 1_555
C36_3 O27_3 1_555 1_555
C36_3 O28_3 1_555 1_555
C37_3 O20_3 1_555 1_555
C37_3 O32_3 1_555 1_555
C38_3 O23_3 1_555 1_555
C38_3 O26_3 1_555 1_555
C40_3 O33_3 1_555 1_555
C40_3 O34_3 1_555 1_555
C42_3 O29_3 1_555 1_555
C42_3 O30_3 1_555 1_555
C48_3 C49_3 1_555 1_555
C52_3 C54_3 1_555 1_555
Cu13_3 O46_3 1_555 1_555
Cu13_3 O52_3 1_555 1_555
Cd8_2 O46_3 1_555 1_555
Cd8_2 O48_3 1_555 1_555
Cd8_2 O52_3 1_555 1_555
C55_3 O41_3 1_555 1_555
C60_3 O48_3 1_555 1_555
C72_3 O52_3 1_555 1_555
C77_3 O46_3 1_555 1_555
C84_3 C87_3 1_555 1_555
C85_3 C86_3 1_555 1_555
C90_3 O61_3 1_555 1_555
C90_3 O62_3 1_555 1_555
C91_3 O54_3 1_555 1_555
C91_3 O66_3 1_555 1_555
C92_3 O57_3 1_555 1_555
C92_3 O60_3 1_555 1_555
O38_3 H139_3 1_555 1_555
O38_3 H140_3 1_555 1_555
O4_3 H143_3 1_555 1_555
O4_3 H144_3 1_555 1_555
O6_3 H145_3 1_555 1_555
O6_3 H146_3 1_555 1_555
O2_3 H147_3 1_555 1_555
O2_3 H148_3 1_555 1_555
O8_3 H149_3 1_555 1_555
O8_3 H150_3 1_555 1_555
Cu8_3 O35_3 1_555 1_555
Cu10_3 O39_3 1_555 1_555
Cu11_3 O37_3 1_555 1_555
Cu12_3 O36_3 1_555 1_555
Cd6_3 O43_3 1_555 1_555
Cd7_2 O35_3 1_555 1_555
Cd9_3 O37_3 1_555 1_555
Cd16_2 O40_3 1_555 1_555
N7_2 C101_3 1_555 1_555
N14_2 C105_3 1_555 1_555
C58_3 H72_3 1_555 1_555
H73_3 C58_3 1_555 1_555
C61_3 H76_3 1_555 1_555
H77_3 C61_3 1_555 1_555
C62_3 C63_3 1_555 1_555
C63_3 C61_3 1_555 1_555
C66_3 C67_3 1_555 1_555
C67_3 C107_3 1_555 1_555
C74_3 C63_3 1_555 1_555
H86_3 C74_3 1_555 1_555
H87_3 C74_3 1_555 1_555
C75_3 C63_3 1_555 1_555
H88_3 C75_3 1_555 1_555
H89_3 C75_3 1_555 1_555
C76_3 C66_3 1_555 1_555
H90_3 C76_3 1_555 1_555
H91_3 C76_3 1_555 1_555
C78_3 C81_3 1_555 1_555
C79_3 C66_3 1_555 1_555
H94_3 C79_3 1_555 1_555
H95_3 C79_3 1_555 1_555
C80_3 C82_3 1_555 1_555
C81_3 H96_3 1_555 1_555
H97_3 C81_3 1_555 1_555
H98_3 C81_3 1_555 1_555
C82_3 H99_3 1_555 1_555
H100_3 C82_3 1_555 1_555
H101_3 C82_3 1_555 1_555
C88_3 C89_3 1_555 1_555
C89_3 H106_3 1_555 1_555
H107_3 C89_3 1_555 1_555
H108_3 C89_3 1_555 1_555
C94_3 C95_3 1_555 1_555
C95_3 H112_3 1_555 1_555
H113_3 C95_3 1_555 1_555
H114_3 C95_3 1_555 1_555
C96_3 C97_3 1_555 1_555
C97_3 H115_3 1_555 1_555
H116_3 C97_3 1_555 1_555
H117_3 C97_3 1_555 1_555
C100_3 C62_3 1_555 1_555
H124_3 C100_3 1_555 1_555
C101_3 C100_3 1_555 1_555
H125_3 C101_3 1_555 1_555
C102_3 N7_2 1_555 1_555
H126_3 C102_3 1_555 1_555
C103_3 C62_3 1_555 1_555
H127_3 C103_3 1_555 1_555
C105_3 H131_3 1_555 1_555
C106_3 N14_2 1_555 1_555
H132_3 C106_3 1_555 1_555
C107_3 C105_3 1_555 1_555
H133_3 C107_3 1_555 1_555
C108_3 C67_3 1_555 1_555
H134_3 C108_3 1_555 1_555
O37_3 Cu8_3 1_555 1_555
O39_3 Cu8_3 1_555 1_555
O42_3 Cd7_2 1_555 1_555
O43_3 Cu11_3 1_555 1_555
O44_3 Cu10_3 1_555 1_555
O45_3 Cu10_3 1_555 1_555
O49_3 Cu10_3 1_555 1_555
O50_3 Cu11_3 1_555 1_555
O51_3 Cd6_3 1_555 1_555
O53_3 Cd6_3 1_555 1_555
O55_3 Cd9_3 1_555 1_555
O56_2 Cd6_3 1_555 1_555
O58_3 Cd7_2 1_555 1_555
O59_3 Cd7_2 1_555 1_555
O63_3 Cd9_3 1_555 1_555
O64_3 Cd9_3 1_555 1_555
O65_3 Cu8_3 1_555 1_555
O67_3 Cd6_3 1_555 1_555
O68_3 Cu10_3 1_555 1_555
Cu14 O56_2 1_555 1_555
Cd14_2 N7_2 1_555 1_555
N9_2 Cd7_2 1_555 1_555
Cu11_3 O45_3 1_555 1_555
Cu11_3 O47_3 1_555 1_555
Cu12_3 O43_3 1_555 1_555
Cu12_3 O44_3 1_555 1_555
Cd6_3 O44_3 1_555 1_555
Cd6_3 O45_3 1_555 1_555
Cd7_2 O39_3 1_555 1_555
Cd7_2 O49_3 1_555 1_555
Cd9_3 O47_3 1_555 1_555
Cd16_2 O55_3 1_555 1_555
Cd16_2 O63_3 1_555 1_555
C58_3 O43_3 1_555 1_555
C61_3 O45_3 1_555 1_555
C74_3 O37_3 1_555 1_555
C75_3 O39_3 1_555 1_555
C76_3 O49_3 1_555 1_555
C78_3 O55_3 1_555 1_555
C78_3 O65_3 1_555 1_555
C79_3 O44_3 1_555 1_555
C80_3 O50_3 1_555 1_555
C80_3 O51_3 1_555 1_555
C83_3 O53_3 1_555 1_555
C83_3 O56_2 1_555 1_555
C88_3 O58_3 1_555 1_555
C88_3 O59_3 1_555 1_555
C94_3 O67_3 1_555 1_555
C94_3 O68_3 1_555 1_555
C96_3 O63_3 1_555 1_555
C96_3 O64_3 1_555 1_555
C102_3 C103_3 1_555 1_555
C106_3 C108_3 1_555 1_555
O40_3 H135_3 1_555 1_555
O40_3 H136_3 1_555 1_555
O42_3 H138_3 1_555 1_555
N5_2 C70_3 1_555 1_555
H82_3 C70_3 1_555 1_555
C71_3 N5_2 1_555 1_555
Cd11_2 N5_2 1_555 1_555
C93_3 H109_3 1_555 1_555
H110_3 C93_3 1_555 1_555
H111_3 C93_3 1_555 1_555
N14 C105_4 1_555 1_555
C105_4 H131_4 1_555 1_555
C106_4 N14 1_555 1_555
H132_4 C106_4 1_555 1_555
Cu8_4 O35_4 1_555 1_555
Cu9_4 O41_4 1_555 1_555
Cu10_4 O39_4 1_555 1_555
Cu11_4 O37_4 1_555 1_555
Cu12_4 O36_4 1_555 1_555
Cu13_4 O35_4 1_555 1_555
Cd6_4 O43_4 1_555 1_555
Cd12_2 O35_4 1_555 1_555
Cd14_2 O38_4 1_555 1_555
Cd9_4 O37_4 1_555 1_555
Cd16 O40_4 1_555 1_555
N10_2 C70_4 1_555 1_555
N6_4 Cu14 1_555 1_555
N12_2 C101_4 1_555 1_555
C55_4 H68_4 1_555 1_555
H69_4 C55_4 1_555 1_555
C56_4 C55_4 1_555 1_555
C57_4 C56_4 1_555 1_555
H70_4 C57_4 1_555 1_555
H71_4 C57_4 1_555 1_555
C58_4 H72_4 1_555 1_555
H73_4 C58_4 1_555 1_555
C59_4 C58_4 1_555 1_555
C60_4 C59_4 1_555 1_555
H74_4 C60_4 1_555 1_555
H75_4 C60_4 1_555 1_555
C61_4 H76_4 1_555 1_555
H77_4 C61_4 1_555 1_555
C62_4 C63_4 1_555 1_555
C63_4 C61_4 1_555 1_555
C64_4 C59_4 1_555 1_555
H78_4 C64_4 1_555 1_555
H79_4 C64_4 1_555 1_555
C65_4 C59_4 1_555 1_555
C66_4 C67_4 1_555 1_555
C67_4 C107_4 1_555 1_555
C68_4 C65_4 1_555 1_555
H80_4 C68_4 1_555 1_555
C69_4 C65_4 1_555 1_555
H81_4 C69_4 1_555 1_555
C70_4 C69_4 1_555 1_555
H82_4 C70_4 1_555 1_555
C71_4 N10_2 1_555 1_555
H83_4 C71_4 1_555 1_555
C72_4 C56_4 1_555 1_555
H84_4 C72_4 1_555 1_555
H85_4 C72_4 1_555 1_555
C73_4 C56_4 1_555 1_555
C74_4 C63_4 1_555 1_555
H86_4 C74_4 1_555 1_555
H87_4 C74_4 1_555 1_555
C75_4 C63_4 1_555 1_555
H88_4 C75_4 1_555 1_555
H89_4 C75_4 1_555 1_555
C76_4 C66_4 1_555 1_555
H90_4 C76_4 1_555 1_555
H91_4 C76_4 1_555 1_555
C77_4 C66_4 1_555 1_555
H92_4 C77_4 1_555 1_555
H93_4 C77_4 1_555 1_555
C78_4 C81_4 1_555 1_555
C79_4 C66_4 1_555 1_555
H94_4 C79_4 1_555 1_555
H95_4 C79_4 1_555 1_555
C80_4 C82_4 1_555 1_555
C81_4 H96_4 1_555 1_555
H97_4 C81_4 1_555 1_555
H98_4 C81_4 1_555 1_555
C82_4 H99_4 1_555 1_555
H100_4 C82_4 1_555 1_555
H101_4 C82_4 1_555 1_555
C83_4 C93_4 1_555 1_555
C84_4 C73_4 1_555 1_555
H102_4 C84_4 1_555 1_555
C85_4 C73_4 1_555 1_555
H103_4 C85_4 1_555 1_555
C86_4 N6_4 1_555 1_555
H104_4 C86_4 1_555 1_555
C87_4 N6_4 1_555 1_555
H105_4 C87_4 1_555 1_555
C88_4 C89_4 1_555 1_555
C89_4 H106_4 1_555 1_555
H107_4 C89_4 1_555 1_555
H108_4 C89_4 1_555 1_555
C90_4 C99_4 1_555 1_555
C91_4 C104_4 1_555 1_555
C92_4 C98_4 1_555 1_555
C93_4 H109_4 1_555 1_555
H110_4 C93_4 1_555 1_555
H111_4 C93_4 1_555 1_555
C94_4 C95_4 1_555 1_555
C95_4 H112_4 1_555 1_555
H113_4 C95_4 1_555 1_555
H114_4 C95_4 1_555 1_555
C96_4 C97_4 1_555 1_555
C97_4 H115_4 1_555 1_555
H116_4 C97_4 1_555 1_555
H117_4 C97_4 1_555 1_555
C98_4 H118_4 1_555 1_555
H119_4 C98_4 1_555 1_555
H120_4 C98_4 1_555 1_555
C99_4 H121_4 1_555 1_555
H122_4 C99_4 1_555 1_555
H123_4 C99_4 1_555 1_555
C100_4 C62_4 1_555 1_555
H124_4 C100_4 1_555 1_555
C101_4 C100_4 1_555 1_555
H125_4 C101_4 1_555 1_555
C102_4 N12_2 1_555 1_555
H126_4 C102_4 1_555 1_555
C103_4 C62_4 1_555 1_555
H127_4 C103_4 1_555 1_555
C104_4 H128_4 1_555 1_555
H129_4 C104_4 1_555 1_555
H130_4 C104_4 1_555 1_555
H133_4 C107_4 1_555 1_555
C108_4 C67_4 1_555 1_555
H134_4 C108_4 1_555 1_555
O35_4 C57_4 1_555 1_555
O37_4 Cu8_4 1_555 1_555
O39_4 Cu8_4 1_555 1_555
O41_4 Cu8_4 1_555 1_555
O42_4 Cd12_2 1_555 1_555
O43_4 Cu11_4 1_555 1_555
O44_4 Cu10_4 1_555 1_555
O45_4 Cu10_4 1_555 1_555
O46_4 Cu12_4 1_555 1_555
O47_4 Cu9_4 1_555 1_555
O48_4 Cu9_4 1_555 1_555
O49_4 Cu10_4 1_555 1_555
O50_4 Cu11_4 1_555 1_555
O51_4 Cd6_4 1_555 1_555
O52_4 Cu9_4 1_555 1_555
O53_4 Cd6_4 1_555 1_555
O54_4 Cu13_4 1_555 1_555
O55_4 Cd9_4 1_555 1_555
O70_2 Cd6_4 1_555 1_555
O57_4 Cd9_4 1_555 1_555
O58_4 Cd12_2 1_555 1_555
O59_4 Cd12_2 1_555 1_555
O60_4 Cd16 1_555 1_555
O61_4 Cu9_4 1_555 1_555
O62_4 Cd9_4 1_555 1_555
O63_4 Cd9_4 1_555 1_555
O64_4 Cd9_4 1_555 1_555
O65_4 Cu8_4 1_555 1_555
O66_4 Cd14_2 1_555 1_555
O67_4 Cd6_4 1_555 1_555
O68_4 Cu10_4 1_555 1_555
Cu11_4 O45_4 1_555 1_555
Cu11_4 O47_4 1_555 1_555
Cu12_4 O43_4 1_555 1_555
Cu12_4 O44_4 1_555 1_555
Cu12_4 O48_4 1_555 1_555
Cu13_4 O46_4 1_555 1_555
Cu13_4 O49_4 1_555 1_555
Cu13_4 O52_4 1_555 1_555
Cd6_4 O44_4 1_555 1_555
Cd6_4 O45_4 1_555 1_555
Cd12_2 O39_4 1_555 1_555
Cd12_2 O49_4 1_555 1_555
Cd14_2 O46_4 1_555 1_555
Cd14_2 O48_4 1_555 1_555
Cd14_2 O52_4 1_555 1_555
Cd9_4 O41_4 1_555 1_555
Cd9_4 O47_4 1_555 1_555
Cd16 O55_4 1_555 1_555
Cd16 O57_4 1_555 1_555
Cd16 O63_4 1_555 1_555
C55_4 O41_4 1_555 1_555
C58_4 O43_4 1_555 1_555
C60_4 O48_4 1_555 1_555
C61_4 O45_4 1_555 1_555
C64_4 O47_4 1_555 1_555
C68_4 C71_4 1_555 1_555
C72_4 O52_4 1_555 1_555
C74_4 O37_4 1_555 1_555
C75_4 O39_4 1_555 1_555
C76_4 O49_4 1_555 1_555
C77_4 O46_4 1_555 1_555
C78_4 O55_4 1_555 1_555
C78_4 O65_4 1_555 1_555
C79_4 O44_4 1_555 1_555
C80_4 O50_4 1_555 1_555
C80_4 O51_4 1_555 1_555
C83_4 O53_4 1_555 1_555
C83_4 O70_2 1_555 1_555
C84_4 C87_4 1_555 1_555
C85_4 C86_4 1_555 1_555
C88_4 O58_4 1_555 1_555
C88_4 O59_4 1_555 1_555
C90_4 O61_4 1_555 1_555
C90_4 O62_4 1_555 1_555
C91_4 O54_4 1_555 1_555
C91_4 O66_4 1_555 1_555
C92_4 O57_4 1_555 1_555
C92_4 O60_4 1_555 1_555
C94_4 O67_4 1_555 1_555
C94_4 O68_4 1_555 1_555
C96_4 O63_4 1_555 1_555
C96_4 O64_4 1_555 1_555
C102_4 C103_4 1_555 1_555
O40_4 H135_4 1_555 1_555
O40_4 H136_4 1_555 1_555
O42_4 H137_4 1_555 1_555
O42_4 H138_4 1_555 1_555
O38_4 H139_4 1_555 1_555
O38_4 H140_4 1_555 1_555
O36_4 H141_4 1_555 1_555
O36_4 H142_4 1_555 1_555
N13 C51_4 1_555 1_555
C51_4 H64_4 1_555 1_555
C52_4 N13 1_555 1_555
H65_4 C52_4 1_555 1_555
Cu1_4 O1_4 1_555 1_555
Cu3_4 O5_4 1_555 1_555
Cu4_4 O3_4 1_555 1_555
Cu5_4 O2_4 1_555 1_555
Cd1_4 O9_4 1_555 1_555
Cd11_2 O1_4 1_555 1_555
Cd4_4 O3_4 1_555 1_555
Cd15 O6_4 1_555 1_555
N11_2 C47_4 1_555 1_555
C4_4 H5_4 1_555 1_555
H6_4 C4_4 1_555 1_555
C7_4 H9_4 1_555 1_555
H10_4 C7_4 1_555 1_555
C8_4 C9_4 1_555 1_555
C9_4 C7_4 1_555 1_555
C12_4 C13_4 1_555 1_555
C13_4 C53_4 1_555 1_555
C20_4 C9_4 1_555 1_555
H19_4 C20_4 1_555 1_555
H20_4 C20_4 1_555 1_555
C21_4 C9_4 1_555 1_555
H21_4 C21_4 1_555 1_555
H22_4 C21_4 1_555 1_555
C22_4 C12_4 1_555 1_555
H23_4 C22_4 1_555 1_555
H24_4 C22_4 1_555 1_555
C24_4 C27_4 1_555 1_555
C25_4 C12_4 1_555 1_555
H27_4 C25_4 1_555 1_555
H28_4 C25_4 1_555 1_555
C26_4 C28_4 1_555 1_555
C27_4 H29_4 1_555 1_555
H30_4 C27_4 1_555 1_555
H31_4 C27_4 1_555 1_555
C28_4 H32_4 1_555 1_555
H33_4 C28_4 1_555 1_555
H34_4 C28_4 1_555 1_555
C29_4 C39_4 1_555 1_555
C34_4 C35_4 1_555 1_555
C35_4 H39_4 1_555 1_555
H40_4 C35_4 1_555 1_555
H41_4 C35_4 1_555 1_555
C39_4 H42_4 1_555 1_555
H43_4 C39_4 1_555 1_555
H44_4 C39_4 1_555 1_555
C40_4 C41_4 1_555 1_555
C41_4 H45_4 1_555 1_555
H46_4 C41_4 1_555 1_555
H47_4 C41_4 1_555 1_555
C42_4 C43_4 1_555 1_555
C43_4 H48_4 1_555 1_555
H49_4 C43_4 1_555 1_555
H50_4 C43_4 1_555 1_555
C46_4 C8_4 1_555 1_555
H57_4 C46_4 1_555 1_555
C47_4 C46_4 1_555 1_555
H58_4 C47_4 1_555 1_555
C48_4 N11_2 1_555 1_555
H59_4 C48_4 1_555 1_555
C49_4 C8_4 1_555 1_555
H60_4 C49_4 1_555 1_555
H66_4 C53_4 1_555 1_555
C54_4 C13_4 1_555 1_555
H67_4 C54_4 1_555 1_555
O3_4 Cu1_4 1_555 1_555
O5_4 Cu1_4 1_555 1_555
O8_4 Cd11_2 1_555 1_555
O9_4 Cu4_4 1_555 1_555
O10_4 Cu3_4 1_555 1_555
O11_4 Cu3_4 1_555 1_555
O15_4 Cu3_4 1_555 1_555
O16_4 Cu4_4 1_555 1_555
O17_4 Cd1_4 1_555 1_555
O19_4 Cd1_4 1_555 1_555
O21_4 Cd4_4 1_555 1_555
O69_2 Cd1_4 1_555 1_555
O24_4 Cd11_2 1_555 1_555
O25_4 Cd11_2 1_555 1_555
O29_4 Cd4_4 1_555 1_555
O30_4 Cd4_4 1_555 1_555
O31_4 Cu1_4 1_555 1_555
O33_4 Cd1_4 1_555 1_555
O34_4 Cu3_4 1_555 1_555
Cu4_4 O11_4 1_555 1_555
Cu4_4 O13_4 1_555 1_555
Cu5_4 O9_4 1_555 1_555
Cu5_4 O10_4 1_555 1_555
Cd1_4 O10_4 1_555 1_555
Cd1_4 O11_4 1_555 1_555
Cd11_2 O5_4 1_555 1_555
Cd11_2 O15_4 1_555 1_555
Cd4_4 O13_4 1_555 1_555
Cd15 O21_4 1_555 1_555
Cd15 O29_4 1_555 1_555
C4_4 O9_4 1_555 1_555
C7_4 O11_4 1_555 1_555
C20_4 O3_4 1_555 1_555
C21_4 O5_4 1_555 1_555
C22_4 O15_4 1_555 1_555
C24_4 O21_4 1_555 1_555
C24_4 O31_4 1_555 1_555
C25_4 O10_4 1_555 1_555
C26_4 O16_4 1_555 1_555
C26_4 O17_4 1_555 1_555
C29_4 O19_4 1_555 1_555
C29_4 O69_2 1_555 1_555
C34_4 O24_4 1_555 1_555
C34_4 O25_4 1_555 1_555
C40_4 O33_4 1_555 1_555
C40_4 O34_4 1_555 1_555
C42_4 O29_4 1_555 1_555
C42_4 O30_4 1_555 1_555
C48_4 C49_4 1_555 1_555
O6_4 H145_4 1_555 1_555
O6_4 H146_4 1_555 1_555
O8_4 H150_4 1_555 1_555
Cu2_4 O7_4 1_555 1_555
Cu14_2 N2_4 1_555 1_555
Cd13_2 O4_4 1_555 1_555
N9_2 C16_4 1_555 1_555
N2_4 C32_4 1_555 1_555
C1_4 H1_4 1_555 1_555
H2_4 C1_4 1_555 1_555
C2_4 C1_4 1_555 1_555
C3_4 C2_4 1_555 1_555
H3_4 C3_4 1_555 1_555
H4_4 C3_4 1_555 1_555
C6_4 C5_4 1_555 1_555
H7_4 C6_4 1_555 1_555
H8_4 C6_4 1_555 1_555
C10_4 C5_4 1_555 1_555
H11_4 C10_4 1_555 1_555
C11_4 C5_4 1_555 1_555
C14_4 C11_4 1_555 1_555
C15_4 C11_4 1_555 1_555
H14_4 C15_4 1_555 1_555
C16_4 C15_4 1_555 1_555
H15_4 C16_4 1_555 1_555
C17_4 N9_2 1_555 1_555
C18_4 C2_4 1_555 1_555
H17_4 C18_4 1_555 1_555
H18_4 C18_4 1_555 1_555
C19_4 C2_4 1_555 1_555
H25_4 C23_4 1_555 1_555
H26_4 C23_4 1_555 1_555
C30_4 C19_4 1_555 1_555
H35_4 C30_4 1_555 1_555
C31_4 C19_4 1_555 1_555
H36_4 C31_4 1_555 1_555
C32_4 C31_4 1_555 1_555
H37_4 C32_4 1_555 1_555
C33_4 N2_4 1_555 1_555
H38_4 C33_4 1_555 1_555
C36_4 C45_4 1_555 1_555
C37_4 C50_4 1_555 1_555
C38_4 C44_4 1_555 1_555
C44_4 H51_4 1_555 1_555
H52_4 C44_4 1_555 1_555
H53_4 C44_4 1_555 1_555
C45_4 H54_4 1_555 1_555
H55_4 C45_4 1_555 1_555
H56_4 C45_4 1_555 1_555
C50_4 H61_4 1_555 1_555
H62_4 C50_4 1_555 1_555
H63_4 C50_4 1_555 1_555
O14_4 Cu2_4 1_555 1_555
O18_4 Cu2_4 1_555 1_555
O20_4 Cu6_4 1_555 1_555
O27_4 Cu2_4 1_555 1_555
O32_4 Cd13_2 1_555 1_555
Cu6_4 O12_4 1_555 1_555
Cu6_4 O18_4 1_555 1_555
Cd13_2 O12_4 1_555 1_555
Cd13_2 O14_4 1_555 1_555
Cd13_2 O18_4 1_555 1_555
C1_4 O7_4 1_555 1_555
C6_4 O14_4 1_555 1_555
C14_4 C17_4 1_555 1_555
C18_4 O18_4 1_555 1_555
C23_4 O12_4 1_555 1_555
C30_4 C33_4 1_555 1_555
C36_4 O27_4 1_555 1_555
C36_4 O28_4 1_555 1_555
C37_4 O20_4 1_555 1_555
C37_4 O32_4 1_555 1_555
C38_4 O23_4 1_555 1_555
C38_4 O26_4 1_555 1_555
O4_4 H143_4 1_555 1_555
O4_4 H144_4 1_555 1_555

#END
