
###############################################################################
#
# This file contains modified crystal structure data generated from the
# MOF subset of the Cambridge Structural Database (CSD) v543 
# hosted by the Cambridge Crystallographic Data Centre (CCDC).
#
# This work is licensed under the Creative Commons
# Attribution-NonCommercial-ShareAlike 4.0 International License.
# To view a copy of this license, visit
# http://creativecommons.org/licenses/by-nc-sa/4.0/
# or send a letter to
# Creative Commons, PO Box 1866, Mountain View, CA 94042, USA.
#
# CIF created using the CSD Python API on 29 September 2022
# The structure has been converted into the P1 space group
# The structure has a 3D framework
# The original CSD entry EGELUY is in the orthorhombic crystal system
# The framework has been calculated to contain at least 10.0% void space
# The void calculation uses a probe of radius 1.32A, grid spacing 0.4
# H atom positions have been added when not included in the experimental data
#
###############################################################################

data_EGELUY
_chemical_formula_moiety         '(C32 H16 Al8 O20)n'
_symmetry_cell_setting           triclinic
_symmetry_space_group_name_H-M   'P 1'
_symmetry_Int_Tables_number      1
_space_group_name_Hall           'P 1'
loop_
_symmetry_equiv_pos_site_id
_symmetry_equiv_pos_as_xyz
1 x,y,z
_cell_length_a                   16.243(4)
_cell_length_b                   6.6352(10)
_cell_length_c                   13.4943(28)
_cell_angle_alpha                90
_cell_angle_beta                 90
_cell_angle_gamma                90
_cell_volume                     1454.36
loop_
_atom_site_label
_atom_site_type_symbol
_atom_site_fract_x
_atom_site_fract_y
_atom_site_fract_z
Al1 Al 0.00000 0.00000 0.00000
Al4 Al -0.00000 0.50000 0.00000
Al1_2 Al -0.00000 0.00000 1.00000
C1 C 0.1809(1) 0.25000 0.7996(4)
C2 C 0.21548(7) 0.07119 0.7704(2)
C3 C 0.28452(7) 0.07119 0.7120(2)
C4 C 0.3190(1) 0.25000 0.6829(1)
C5 C 0.1053(1) 0.25000 0.8634(1)
O2 O 0.0726(3) 0.08033 0.8911(2)
C6 C 0.3946(3) 0.25000 0.6190(2)
O3 O 0.4273(3) 0.08033 0.5913(4)
Al2 Al 0.50000 0.00000 0.50000
Al3 Al 0.50000 0.50000 0.50000
Al4_2 Al -0.00000 0.50000 1.00000
C7 C 0.21548(7) 0.42881 0.7704(2)
C8 C 0.28452(7) 0.42881 0.7120(2)
O5 O 0.0726(3) 0.41967 0.8911(2)
O7 O 0.4273(3) 0.41967 0.5913(4)
H3 H 0.311941 0.570921 0.688752
H4 H 0.188086 0.570975 0.793613
Al1_3 Al -0.00000 1.00000 0.00000
O8 O 0.0727(3) 0.91967 0.0913(4)
Al1_4 Al -0.00000 1.00000 1.00000
Al2_2 Al 0.50000 1.00000 0.50000
O4 O 0.00271 0.75000 0.94038
H1 H 0.188086 0.929025 0.793613
H2 H 0.311941 0.929079 0.688752
Al1_5 Al 1.00000 0.00000 0.00000
O1 O 0.99729 0.25000 0.05962
Al4_3 Al 1.00000 0.50000 0.00000
Al1_6 Al 1.00000 0.00000 1.00000
Al4_4 Al 1.00000 0.50000 1.00000
O9 O 0.9273(3) 0.08033 0.9087(4)
Al1_7 Al 1.00000 1.00000 0.00000
O6 O 0.9274(3) 0.91967 0.1089(2)
Al1_8 Al 1.00000 1.00000 1.00000
O1_2 O 0.49729 0.25000 0.44038
C1_2 C 0.6809(1) 0.25000 0.7004(4)
C2_2 C 0.71548(7) 0.42881 0.7296(2)
C3_2 C 0.78452(7) 0.42881 0.7880(2)
C4_2 C 0.8190(1) 0.25000 0.8171(1)
C5_2 C 0.6053(1) 0.25000 0.6366(1)
O2_2 O 0.5726(3) 0.41967 0.6089(2)
C6_2 C 0.8946(3) 0.25000 0.8810(2)
O3_2 O 0.9273(3) 0.41967 0.9087(4)
O4_2 O 0.50271 0.75000 0.55962
C7_2 C 0.71548(7) 0.07119 0.7296(2)
C8_2 C 0.78452(7) 0.07119 0.7880(2)
O5_2 O 0.5726(3) 0.08033 0.6089(2)
O6_2 O 0.4274(3) 0.58033 0.3911(2)
O8_2 O 0.5727(3) 0.58033 0.4087(4)
H1_2 H 0.688086 0.570975 0.706387
H2_2 H 0.811941 0.570921 0.811248
H3_2 H 0.811941 0.929079 0.811248
H4_2 H 0.688086 0.929025 0.706387
O9_2 O 0.0727(3) 0.58033 0.0913(4)
H3_3 H 0.688059 0.0709206 0.311248
H4_3 H 0.811914 0.0709752 0.206387
C1_3 C 0.8191(1) 0.75000 0.2004(4)
C2_3 C 0.78452(7) 0.57119 0.2296(2)
C3_3 C 0.71548(7) 0.57119 0.2880(2)
C4_3 C 0.6810(1) 0.75000 0.3171(1)
C5_3 C 0.8947(1) 0.75000 0.1366(1)
O2_3 O 0.9274(3) 0.58033 0.1089(2)
C6_3 C 0.6054(3) 0.75000 0.3810(2)
C7_3 C 0.78452(7) 0.92881 0.2296(2)
C8_3 C 0.71548(7) 0.92881 0.2880(2)
O7_2 O 0.5727(3) 0.91967 0.4087(4)
H1_3 H 0.811914 0.429025 0.206387
H2_3 H 0.688059 0.429079 0.311248
H1_4 H 0.311914 0.0709752 0.293613
H2_4 H 0.188059 0.0709206 0.188752
C1_4 C 0.3191(1) 0.75000 0.2996(4)
C2_4 C 0.28452(7) 0.92881 0.2704(2)
C3_4 C 0.21548(7) 0.92881 0.2120(2)
C4_4 C 0.1810(1) 0.75000 0.1829(1)
C5_4 C 0.3947(1) 0.75000 0.3634(1)
O2_4 O 0.4274(3) 0.91967 0.3911(2)
C6_4 C 0.1054(3) 0.75000 0.1190(2)
C7_4 C 0.28452(7) 0.57119 0.2704(2)
C8_4 C 0.21548(7) 0.57119 0.2120(2)
H3_4 H 0.188059 0.429079 0.188752
H4_4 H 0.311914 0.429025 0.293613
loop_
_geom_bond_atom_site_label_1
_geom_bond_atom_site_label_2
_geom_bond_site_symmetry_1
_geom_bond_site_symmetry_2
C1 C2 1_555 1_555
C2 C3 1_555 1_555
C3 C4 1_555 1_555
C4 C6 1_555 1_555
C5 C1 1_555 1_555
O2 Al1_2 1_555 1_555
C6 O3 1_555 1_555
O3 Al2 1_555 1_555
Al3 O7 1_555 1_555
Al4_2 O5 1_555 1_555
C7 C1 1_555 1_555
C8 C4 1_555 1_555
O5 C5 1_555 1_555
O7 C6 1_555 1_555
C5 O2 1_555 1_555
C7 C8 1_555 1_555
C8 H3 1_555 1_555
C7 H4 1_555 1_555
O8 Al1_3 1_555 1_555
O4 Al1_4 1_555 1_555
Al1_5 O1 1_555 1_555
O1 Al4_3 1_555 1_555
O9 Al1_6 1_555 1_555
O6 Al1_7 1_555 1_555
Al3 O1_2 1_555 1_555
O1_2 Al2 1_555 1_555
C1_2 C2_2 1_555 1_555
C2_2 C3_2 1_555 1_555
C3_2 C4_2 1_555 1_555
C4_2 C6_2 1_555 1_555
C5_2 C1_2 1_555 1_555
O2_2 Al3 1_555 1_555
C6_2 O3_2 1_555 1_555
O3_2 Al4_4 1_555 1_555
Al2 O5_2 1_555 1_555
O4_2 Al3 1_555 1_555
C7_2 C1_2 1_555 1_555
C8_2 C4_2 1_555 1_555
O5_2 C5_2 1_555 1_555
O6_2 Al3 1_555 1_555
O9 C6_2 1_555 1_555
O8_2 Al3 1_555 1_555
C5_2 O2_2 1_555 1_555
C7_2 C8_2 1_555 1_555
C2_2 H1_2 1_555 1_555
C3_2 H2_2 1_555 1_555
O9_2 Al4 1_555 1_555
Al4_2 O4 1_555 1_555
C1_3 C2_3 1_555 1_555
C2_3 C3_3 1_555 1_555
C3_3 C4_3 1_555 1_555
C4_3 C6_3 1_555 1_555
C5_3 C1_3 1_555 1_555
O2_3 Al4_3 1_555 1_555
C6_3 O8_2 1_555 1_555
Al2_2 O7_2 1_555 1_555
C7_3 C1_3 1_555 1_555
C8_3 C4_3 1_555 1_555
O6 C5_3 1_555 1_555
O7_2 C6_3 1_555 1_555
C5_3 O2_3 1_555 1_555
C7_3 C8_3 1_555 1_555
C2_3 H1_3 1_555 1_555
C3_3 H2_3 1_555 1_555
Al2_2 O4_2 1_555 1_555
C1_4 C2_4 1_555 1_555
C2_4 C3_4 1_555 1_555
C3_4 C4_4 1_555 1_555
C4_4 C6_4 1_555 1_555
C5_4 C1_4 1_555 1_555
O2_4 Al2_2 1_555 1_555
C6_4 O8 1_555 1_555
C7_4 C1_4 1_555 1_555
C8_4 C4_4 1_555 1_555
O6_2 C5_4 1_555 1_555
O9_2 C6_4 1_555 1_555
C5_4 O2_4 1_555 1_555
C7_4 C8_4 1_555 1_555
C8_4 H3_4 1_555 1_555
C7_4 H4_4 1_555 1_555

#END
