####################################################################### 
# 
# This file contains crystal structure data downloaded from the 
# Cambridge Structural Database (CSD) hosted by the Cambridge 
# Crystallographic Data Centre (CCDC).
# 
# Full information about CCDC data access policies and citation 
# guidelines are available at http://www.ccdc.cam.ac.uk/access/V1 
# 
# Audit and citation data items may have been added by the CCDC. 
# Please retain this information to preserve the provenance of 
# this file and to allow appropriate attribution of the data. 
# 
#######################################################################

data_PX4_phase_2
_audit_block_doi                 10.5517/ccrxqfs
_database_code_depnum_ccdc_archive 'CCDC 712796'
loop_
_citation_id
_citation_doi
_citation_year
1 10.1021/ja802761z 2008
_audit_update_record             
;
2008-12-09 deposited with the CCDC.	2024-07-10 downloaded from the CCDC.
;

_pd_block_id                     2008-02-18T20:27|PX4_phase2|ceak||

# Phase information from GSAS

_pd_phase_name                   mil53as
_cell_length_a                   16.243(4)
_cell_length_b                   6.6352(10)
_cell_length_c                   13.4943(28)
_cell_angle_alpha                90.0
_cell_angle_beta                 90.0
_cell_angle_gamma                90.0
_cell_volume                     1454.3(4)
_symmetry_cell_setting           orthorhombic
_symmetry_space_group_name_H-M   'P n m a'
loop_
_symmetry_equiv_pos_site_id
_symmetry_equiv_pos_as_xyz
1 +x,+y,+z
2 -x+1/2,+y+1/2,+z+1/2
3 +x,-y+1/2,+z
4 -x+1/2,-y,+z+1/2
-1 -x,-y,-z
-2 +x+1/2,-y+1/2,-z+1/2
-3 -x,+y+1/2,-z
-4 +x+1/2,+y,-z+1/2

# ATOMIC COORDINATES AND DISPLACEMENT PARAMETERS


loop_
_atom_site_type_symbol
_atom_site_label
_atom_site_fract_x
_atom_site_fract_y
_atom_site_fract_z
_atom_site_occupancy
_atom_site_thermal_displace_type
_atom_site_U_iso_or_equiv
_atom_site_symmetry_multiplicity
Al Al 0.0 0.0 0.0 1.0 Uiso 0.044(6) 4
O O(1) 0.00271 -0.25 -0.05962 1.0 Uiso 0.046(11) 4
C O(2) 0.1809(1) 0.25 0.7996(4) 1.0 Uiso 0.028(4) 4
C O(3) 0.21548(7) 0.42881 0.7704(2) 1.0 Uiso 0.028(4) 8
C C(1) 0.28452(7) 0.42881 0.7120(2) 1.0 Uiso 0.028(4) 8
C C(2) 0.3190(1) 0.25 0.6829(1) 1.0 Uiso 0.028(4) 4
C C(3) 0.1053(1) 0.25 0.8634(1) 1.0 Uiso 0.028(4) 4
C C(4) 0.0726(3) 0.41967 0.8911(2) 1.0 Uiso 0.028(4) 8
C C(5) 0.3946(3) 0.25 0.6190(2) 1.0 Uiso 0.028(4) 4
C C(6) 0.4273(3) 0.41967 0.5913(4) 1.0 Uiso 0.028(4) 8

#END

