
###############################################################################
#
# This file contains modified crystal structure data generated from the
# MOF subset of the Cambridge Structural Database (CSD) v543 
# hosted by the Cambridge Crystallographic Data Centre (CCDC).
#
# This work is licensed under the Creative Commons
# Attribution-NonCommercial-ShareAlike 4.0 International License.
# To view a copy of this license, visit
# http://creativecommons.org/licenses/by-nc-sa/4.0/
# or send a letter to
# Creative Commons, PO Box 1866, Mountain View, CA 94042, USA.
#
# CIF created using the CSD Python API on 29 September 2022
# The structure has been converted into the P1 space group
# The structure has a 3D framework
# The original CSD entry EGOKOB is in the monoclinic crystal system
# The original CSD entry EGOKOB is in a Sohncke space group
# The framework has been calculated to contain at least 10.0% void space
# The void calculation uses a probe of radius 1.32A, grid spacing 0.4
#
###############################################################################

data_EGOKOB
_chemical_formula_moiety         '(C56 H56 Mn4 N8 O20)n'
_symmetry_cell_setting           triclinic
_symmetry_space_group_name_H-M   'P 1'
_symmetry_Int_Tables_number      1
_space_group_name_Hall           'P 1'
loop_
_symmetry_equiv_pos_site_id
_symmetry_equiv_pos_as_xyz
1 x,y,z
_cell_length_a                   8.8061(3)
_cell_length_b                   17.9304(7)
_cell_length_c                   11.6984(4)
_cell_angle_alpha                90
_cell_angle_beta                 100.884(2)
_cell_angle_gamma                90
_cell_volume                     1813.91
loop_
_atom_site_label
_atom_site_type_symbol
_atom_site_fract_x
_atom_site_fract_y
_atom_site_fract_z
Mn2 Mn 0.46284(9) 0.06907(4) 0.12187(7)
O1 O 0.2205(4) 0.0480(3) 0.0952(3)
O2 O 0.7087(4) 0.0908(3) 0.1670(3)
H1 H 0.7246 0.1376 0.1710
H2 H 0.7918 0.0757 0.1478
O7 O 0.1420(14) 0.2026(7) 0.1362(10)
H5 H 0.2326 0.1976 0.1301
C1 C 0.0852(6) 0.0714(5) 0.0950(5)
C2 C 0.0500(7) 0.1522(4) 0.0617(5)
O14 O 0.4390(5) 0.1901(3) 0.1150(4)
N6 N 0.4616(5) 0.0688(4) 0.3177(4)
O6 O 0.0733(6) 0.2917(3) 0.8889(4)
C3 C 0.0487(7) 0.1637(4) 0.9339(5)
H8 H 0.1537 0.1607 0.9199
C19 C 0.5556(7) 0.1140(4) 0.8809(5)
H21 H 0.6230 0.1448 0.9304
C20 C 0.5613(7) 0.1144(4) 0.7627(5)
H22 H 0.6325 0.1445 0.7353
C21 C 0.4595(6) 0.0692(4) 0.6845(5)
C22 C 0.3543(7) 0.0284(4) 0.7350(5)
C23 C 0.3604(8) 0.0298(5) 0.8512(5)
C24 C 0.5504(8) 0.1147(5) 0.3897(5)
H25 H 0.6152 0.1471 0.3592
C25 C 0.5518(7) 0.1168(5) 0.5077(5)
H26 H 0.6152 0.1508 0.5542
C26 C 0.4607(6) 0.0694(5) 0.5572(4)
C27 C 0.3724(8) 0.0207(4) 0.4834(5)
C28 C 0.3753(8) 0.0223(5) 0.3657(6)
N3 N 0.4574(5) 0.0712(4) 0.9265(4)
Mn3 Mn 0.04675(9) 0.41095(4) 0.88384(7)
O4 O 0.1984(4) 0.8866(3) 0.1595(3)
H3 H 0.2126 0.8399 0.1550
H4 H 0.2767 0.9076 0.1408
O13 O 0.4731(5) 0.9476(3) 0.1120(3)
O3 O 0.9751(4) 0.0322(3) 0.1151(3)
H6 H 0.9436 0.1608 0.0722
Mn1 Mn 0.95325(9) 0.91095(4) 0.11616(7)
O9 O 0.7092(4) 0.9354(3) 0.0772(3)
C5 C 0.5802(6) 0.9082(4) 0.0826(4)
C6 C 0.5457(7) 0.8276(4) 0.0481(5)
H9 H 0.4517 0.8115 0.0727
H10 H 0.6299 0.7958 0.0851
O12 O 0.9267(6) 0.7917(3) 0.1111(4)
N5 N 0.9410(5) 0.9122(4) 0.3104(4)
O10 O 0.3240(5) 0.7380(3) 0.8355(5)
O11 O 0.5610(5) 0.6901(3) 0.8850(4)
C7 C 0.4656(7) 0.7441(4) 0.8748(5)
C8 C 0.5260(8) 0.8219(4) 0.9127(5)
H11 H 0.4536 0.8594 0.8759
H12 H 0.6245 0.8303 0.8893
C9 C 0.8667(7) 0.9599(4) 0.8501(5)
H13 H 0.8048 0.9926 0.8829
C10 C 0.8623(7) 0.9642(4) 0.7303(5)
C11 C 0.9482(6) 0.9113(5) 0.6801(5)
C14 C 0.8234(7) 0.9419(4) 0.3558(5)
H17 H 0.7403 0.9629 0.3052
C15 C 0.8215(7) 0.9424(4) 0.4717(5)
H18 H 0.7374 0.9631 0.4979
C16 C 0.9444(6) 0.9123(5) 0.5525(5)
N1 N 0.9551(5) 0.9114(4) 0.9206(4)
Mn6 Mn 0.53716(9) 0.56907(4) 0.87813(7)
O5 O 0.1661(5) 0.7443(3) 0.1313(4)
O10_2 O 0.6760(5) 0.2380(3) 0.1645(5)
H7 H 0.0111 0.6243 0.1104
C4 C 0.0206(8) 0.7392(4) 0.1076(5)
C7_2 C 0.5344(7) 0.2441(4) 0.1252(5)
C8_2 C 0.4740(8) 0.3219(4) 0.0873(5)
H11_2 H 0.5464 0.3594 0.1241
H12_2 H 0.3755 0.3303 0.1107
C9_2 C 0.1333(7) 0.4599(4) 0.1499(5)
H13_2 H 0.1952 0.4926 0.1171
C10_2 C 0.1377(7) 0.4642(4) 0.2697(5)
H14 H 0.1954 0.5007 0.3148
C11_2 C 0.0518(6) 0.4113(5) 0.3199(5)
C14_2 C 0.1766(7) 0.4419(4) 0.6442(5)
H17_2 H 0.2597 0.4629 0.6948
C15_2 C 0.1785(7) 0.4424(4) 0.5283(5)
H18_2 H 0.2626 0.4631 0.5021
C16_2 C 0.0556(6) 0.4123(5) 0.4475(5)
N1_2 N 0.0449(5) 0.4114(4) 0.0794(4)
N2 N 0.0590(5) 0.4122(4) 0.6896(4)
O3_2 O 0.0249(4) 0.5322(3) 0.8849(3)
O8 O 0.5269(5) 0.4476(3) 0.8880(3)
O9_2 O 0.2908(4) 0.4354(3) 0.9228(3)
H6_2 H 0.0564 0.6608 0.9278
C5_2 C 0.4198(6) 0.4082(4) 0.9174(4)
C6_2 C 0.4543(7) 0.3276(4) 0.9519(5)
H9_2 H 0.5483 0.3115 0.9273
H10_2 H 0.3701 0.2958 0.9149
C3_2 C 0.9513(7) 0.6637(4) 0.0661(5)
H8_2 H 0.8463 0.6607 0.0801
C12 C 0.9605(7) 0.3621(4) 0.2469(5)
H15 H 0.8999 0.3275 0.2770
C13 C 0.9595(7) 0.3644(4) 0.1299(5)
H16 H 0.8954 0.3311 0.0824
C17 C 0.9370(7) 0.3794(4) 0.4948(5)
H19 H 0.8541 0.3564 0.4468
C18 C 0.9454(7) 0.3818(5) 0.6140(5)
H20 H 0.8645 0.3603 0.6433
C19_2 C 0.4444(7) 0.6140(4) 0.1191(5)
H21_2 H 0.3770 0.6448 0.0696
C20_2 C 0.4387(7) 0.6144(4) 0.2373(5)
H22_2 H 0.3675 0.6445 0.2647
C21_2 C 0.5405(6) 0.5692(4) 0.3155(5)
C22_2 C 0.6457(7) 0.5284(4) 0.2650(5)
H23 H 0.7209 0.4999 0.3121
C23_2 C 0.6396(8) 0.5298(5) 0.1488(5)
H24 H 0.7085 0.4994 0.1191
C24_2 C 0.4496(8) 0.6147(5) 0.6103(5)
H25_2 H 0.3848 0.6471 0.6408
C25_2 C 0.4482(7) 0.6168(5) 0.4923(5)
H26_2 H 0.3848 0.6508 0.4458
C26_2 C 0.5393(6) 0.5694(5) 0.4428(4)
C27_2 C 0.6276(8) 0.5207(4) 0.5166(5)
H27 H 0.6899 0.4864 0.4877
C28_2 C 0.6247(8) 0.5223(5) 0.6343(6)
H28 H 0.6869 0.4888 0.6825
N3_2 N 0.5426(5) 0.5712(4) 0.0735(4)
N4 N 0.5384(5) 0.5688(4) 0.6823(4)
O1_2 O 0.7795(4) 0.5480(3) 0.9048(3)
O2_2 O 0.2913(4) 0.5908(3) 0.8330(3)
H1_2 H 0.2754 0.6376 0.8290
H2_2 H 0.2082 0.5757 0.8522
O4_2 O 0.8016(4) 0.3866(3) 0.8405(3)
H3_2 H 0.7874 0.3399 0.8450
H4_2 H 0.7233 0.4076 0.8592
O7_2 O 0.8580(14) 0.7026(7) 0.8638(10)
H5_2 H 0.7674 0.6976 0.8699
C1_2 C 0.9148(6) 0.5714(5) 0.9050(5)
C2_2 C 0.9500(7) 0.6522(4) 0.9383(5)
C12_2 C 0.0395(7) 0.8621(4) 0.7531(5)
H15_2 H 0.1001 0.8275 0.7230
C13_2 C 0.0405(7) 0.8644(4) 0.8701(5)
H16_2 H 0.1046 0.8311 0.9176
C17_2 C 0.0630(7) 0.8794(4) 0.5052(5)
H19_2 H 0.1459 0.8564 0.5532
C18_2 C 0.0546(7) 0.8818(5) 0.3860(5)
H20_2 H 0.1355 0.8603 0.3567
H23_2 H 0.2791 0.9999 0.6879
H24_2 H 0.2915 0.9994 0.8809
H27_2 H 0.3101 0.9864 0.5123
H28_2 H 0.3131 0.9888 0.3175
O5_2 O 0.8339(5) 0.2443(3) 0.8687(4)
H7_2 H 0.9889 0.1243 0.8896
C4_2 C 0.9794(8) 0.2392(4) 0.8924(5)
H14_2 H 0.8046 0.0007 0.6852
loop_
_geom_bond_atom_site_label_1
_geom_bond_atom_site_label_2
_geom_bond_site_symmetry_1
_geom_bond_site_symmetry_2
Mn2 O1 1_555 1_555
O1 C1 1_555 1_555
O2 Mn2 1_555 1_555
H1 O2 1_555 1_555
H2 O2 1_555 1_555
O7 H5 1_555 1_555
C1 C2 1_555 1_555
C2 O7 1_555 1_555
O14 Mn2 1_555 1_555
N6 Mn2 1_555 1_555
H8 C3 1_555 1_555
C19 H21 1_555 1_555
C20 C19 1_555 1_555
H22 C20 1_555 1_555
C21 C20 1_555 1_555
C22 C21 1_555 1_555
C23 C22 1_555 1_555
C24 H25 1_555 1_555
C25 C24 1_555 1_555
H26 C25 1_555 1_555
C26 C21 1_555 1_555
C27 C26 1_555 1_555
C28 C27 1_555 1_555
N6 C24 1_555 1_555
Mn3 O6 1_555 1_555
C19 N3 1_555 1_555
C23 N3 1_555 1_555
C25 C26 1_555 1_555
C28 N6 1_555 1_555
H3 O4 1_555 1_555
H4 O4 1_555 1_555
O13 C5 1_555 1_555
O9 Mn1 1_555 1_555
C5 O9 1_555 1_555
C6 C5 1_555 1_555
H9 C6 1_555 1_555
H10 C6 1_555 1_555
O12 Mn1 1_555 1_555
N5 Mn1 1_555 1_555
O10 C7 1_555 1_555
O11 C7 1_555 1_555
C7 C8 1_555 1_555
H11 C8 1_555 1_555
H12 C8 1_555 1_555
C9 H13 1_555 1_555
C10 C9 1_555 1_555
C11 C10 1_555 1_555
C14 H17 1_555 1_555
C15 C14 1_555 1_555
H18 C15 1_555 1_555
C16 C11 1_555 1_555
N5 C14 1_555 1_555
Mn6 O11 1_555 1_555
C9 N1 1_555 1_555
C15 C16 1_555 1_555
O5 C4 1_555 1_555
O10_2 C7_2 1_555 1_555
O14 C7_2 1_555 1_555
C7_2 C8_2 1_555 1_555
H11_2 C8_2 1_555 1_555
H12_2 C8_2 1_555 1_555
C9_2 H13_2 1_555 1_555
C10_2 C9_2 1_555 1_555
H14 C10_2 1_555 1_555
C11_2 C10_2 1_555 1_555
C14_2 H17_2 1_555 1_555
C15_2 C14_2 1_555 1_555
H18_2 C15_2 1_555 1_555
C16_2 C11_2 1_555 1_555
N2 C14_2 1_555 1_555
Mn3 N2 1_555 1_555
C9_2 N1_2 1_555 1_555
C15_2 C16_2 1_555 1_555
Mn3 O3_2 1_555 1_555
O8 C5_2 1_555 1_555
O9_2 Mn3 1_555 1_555
C5_2 O9_2 1_555 1_555
C6_2 C5_2 1_555 1_555
H9_2 C6_2 1_555 1_555
H10_2 C6_2 1_555 1_555
Mn6 O8 1_555 1_555
H8_2 C3_2 1_555 1_555
H15 C12 1_555 1_555
C13 C12 1_555 1_555
H16 C13 1_555 1_555
H19 C17 1_555 1_555
C18 C17 1_555 1_555
H20 C18 1_555 1_555
C19_2 H21_2 1_555 1_555
C20_2 C19_2 1_555 1_555
H22_2 C20_2 1_555 1_555
C21_2 C20_2 1_555 1_555
C22_2 C21_2 1_555 1_555
H23 C22_2 1_555 1_555
C23_2 C22_2 1_555 1_555
H24 C23_2 1_555 1_555
C24_2 H25_2 1_555 1_555
C25_2 C24_2 1_555 1_555
H26_2 C25_2 1_555 1_555
C26_2 C21_2 1_555 1_555
C27_2 C26_2 1_555 1_555
H27 C27_2 1_555 1_555
C28_2 C27_2 1_555 1_555
H28 C28_2 1_555 1_555
N4 C24_2 1_555 1_555
Mn6 N4 1_555 1_555
C19_2 N3_2 1_555 1_555
C23_2 N3_2 1_555 1_555
C25_2 C26_2 1_555 1_555
C28_2 N4 1_555 1_555
Mn6 O1_2 1_555 1_555
O1_2 C1_2 1_555 1_555
O2_2 Mn6 1_555 1_555
H1_2 O2_2 1_555 1_555
H2_2 O2_2 1_555 1_555
H3_2 O4_2 1_555 1_555
H4_2 O4_2 1_555 1_555
O7_2 H5_2 1_555 1_555
C1_2 C2_2 1_555 1_555
C2_2 O7_2 1_555 1_555
H15_2 C12_2 1_555 1_555
C13_2 C12_2 1_555 1_555
H16_2 C13_2 1_555 1_555
H19_2 C17_2 1_555 1_555
C18_2 C17_2 1_555 1_555
H20_2 C18_2 1_555 1_555
O5_2 C4_2 1_555 1_555

#END
