
###############################################################################
#
# This file contains modified crystal structure data generated from the
# MOF subset of the Cambridge Structural Database (CSD) v543 
# hosted by the Cambridge Crystallographic Data Centre (CCDC).
#
# This work is licensed under the Creative Commons
# Attribution-NonCommercial-ShareAlike 4.0 International License.
# To view a copy of this license, visit
# http://creativecommons.org/licenses/by-nc-sa/4.0/
# or send a letter to
# Creative Commons, PO Box 1866, Mountain View, CA 94042, USA.
#
# CIF created using the CSD Python API on 29 September 2022
# The structure has been converted into the P1 space group
# The structure has a 3D framework
# The original CSD entry EGONUM is in the monoclinic crystal system
# The framework has been calculated to contain at least 10.0% void space
# The void calculation uses a probe of radius 1.32A, grid spacing 0.4
# H atom positions have been added when not included in the experimental data
#
###############################################################################

data_EGONUM
_chemical_formula_moiety         '(C176 H144 Co6 N16 O36)n'
_symmetry_cell_setting           triclinic
_symmetry_space_group_name_H-M   'P 1'
_symmetry_Int_Tables_number      1
_space_group_name_Hall           'P 1'
loop_
_symmetry_equiv_pos_site_id
_symmetry_equiv_pos_as_xyz
1 x,y,z
_cell_length_a                   23.7632(11)
_cell_length_b                   9.8043(5)
_cell_length_c                   20.3897(10)
_cell_angle_alpha                90
_cell_angle_beta                 102.360(2)
_cell_angle_gamma                90
_cell_volume                     4640.32
loop_
_atom_site_label
_atom_site_type_symbol
_atom_site_fract_x
_atom_site_fract_y
_atom_site_fract_z
C40 C 0.33322(16) 0.1132(4) 0.0171(2)
C43 C 0.37946(15) 0.2014(4) 0.0207(2)
H22 H 0.332456 0.0425992 0.0581324
H23 H 0.414362 0.198193 0.0650635
C35 C 0.23723(15) 0.0220(4) 0.9570(2)
C38 C 0.28872(14) 0.1147(3) 0.9623(2)
C41 C 0.29225(16) 0.2067(4) 0.9127(2)
C44 C 0.33936(16) 0.2910(4) 0.9198(2)
N5 N 0.38288(12) 0.2894(2) 0.97234(15)
Co7 Co 0.45248(2) 0.41783(4) 0.98047(2)
H29 H 0.340892 0.363414 0.879721
H30 H 0.2045 0.0749964 0.977379
H36 H 0.257883 0.212931 0.867894
Co1 Co 0.04752(2) 0.08217(4) 0.01953(2)
N1 N 0.11712(12) 0.2106(2) 0.02766(15)
O4 O 0.01033(10) 0.1558(2) 0.09209(12)
C2 C 0.16064(16) 0.2090(4) 0.0802(2)
C5 C 0.20775(16) 0.2933(4) 0.0873(2)
C9 C 0.21128(14) 0.3853(3) 0.0377(2)
C12 C 0.26277(15) 0.4780(4) 0.0430(2)
N2 N 0.24875(11) 0.6055(3) 0.00662(16)
C15 C 0.21625(16) 0.6938(3) 0.0412(2)
C31 C 0.19939(14) 0.8229(3) 0.0021(2)
H1 H 0.159108 0.136586 0.120279
H9 H 0.327121 0.702064 0.0469116
H11 H 0.175078 0.887997 0.0293018
H15 H 0.2955 0.425004 0.0226208
H16 H 0.279725 0.50125 0.095758
H17 H 0.24246 0.719487 0.0902787
H18 H 0.177469 0.640889 0.047528
H33 H 0.242117 0.287069 0.132106
C3 C 0.12054(15) 0.2986(4) 0.9793(2)
C6 C 0.16678(16) 0.3868(4) 0.9829(2)
C14 C 0.30061(14) 0.6771(3) 0.9979(2)
C30 C 0.28375(16) 0.8062(3) 0.9588(2)
N4 N 0.25125(11) 0.8945(3) 0.99338(16)
O14 O 0.01033(10) 0.8442(2) 0.59209(12)
Co6 Co 0.04752(2) 0.91783(4) 0.51953(2)
H4 H 0.0856378 0.301807 0.934936
H8 H 0.324922 0.612003 0.970698
H12 H 0.172879 0.797936 0.953088
H26 H 0.167544 0.457401 0.941868
H31 H 0.220275 0.99875 0.904242
H34 H 0.25754 0.780513 0.909721
H35 H 0.322531 0.859111 0.952472
Co5 Co 0.95248(2) 0.08217(4) 0.48047(2)
O12 O 0.98967(10) 0.1558(2) 0.40791(12)
Co2 Co 0.95248(2) 0.91783(4) 0.98047(2)
N3 N 0.88288(12) 0.7894(2) 0.97234(15)
O9 O 0.98967(10) 0.8442(2) 0.90791(12)
N3_2 N 0.11712(12) 0.7894(2) 0.52766(15)
C35_2 C 0.76277(15) 0.0220(4) 0.5430(2)
C38_2 C 0.71128(14) 0.1147(3) 0.5377(2)
C40_2 C 0.66678(16) 0.1132(4) 0.4829(2)
C41_2 C 0.70775(16) 0.2067(4) 0.5873(2)
C43_2 C 0.62054(15) 0.2014(4) 0.4793(2)
C44_2 C 0.66064(16) 0.2910(4) 0.5802(2)
N5_2 N 0.61712(12) 0.2894(2) 0.52766(15)
Co7_2 Co 0.54752(2) 0.41783(4) 0.51953(2)
H22_2 H 0.667544 0.0425992 0.441868
H23_2 H 0.585638 0.198193 0.434936
H29_2 H 0.659108 0.363414 0.620279
H30_2 H 0.7955 0.0749964 0.522621
H36_2 H 0.742117 0.212931 0.632106
N1_2 N 0.88288(12) 0.2106(2) 0.47234(15)
C2_2 C 0.83936(16) 0.2090(4) 0.4198(2)
C3_2 C 0.87946(15) 0.2986(4) 0.5207(2)
C5_2 C 0.79225(16) 0.2933(4) 0.4127(2)
C6_2 C 0.83322(16) 0.3868(4) 0.5171(2)
C9_2 C 0.78872(14) 0.3853(3) 0.4623(2)
C12_2 C 0.73723(15) 0.4780(4) 0.4570(2)
N2_2 N 0.75125(11) 0.6055(3) 0.49338(16)
C14_2 C 0.69939(14) 0.6771(3) 0.5021(2)
C15_2 C 0.78375(16) 0.6938(3) 0.4588(2)
C30_2 C 0.71625(16) 0.8062(3) 0.5412(2)
C31_2 C 0.80061(14) 0.8229(3) 0.4979(2)
N4_2 N 0.74875(11) 0.8945(3) 0.50662(16)
H1_2 H 0.840892 0.136586 0.379721
H4_2 H 0.914362 0.301807 0.565064
H8_2 H 0.675078 0.612003 0.529302
H9_2 H 0.672879 0.702064 0.453088
H11_2 H 0.824922 0.887997 0.470698
H12_2 H 0.827121 0.797936 0.546912
H15_2 H 0.7045 0.425004 0.477379
H16_2 H 0.720275 0.50125 0.404242
H17_2 H 0.75754 0.719487 0.409721
H18_2 H 0.822531 0.640889 0.452472
H26_2 H 0.832456 0.457401 0.558132
H31_2 H 0.779725 0.99875 0.595758
H33_2 H 0.757883 0.287069 0.367894
H34_2 H 0.74246 0.780513 0.590279
H35_2 H 0.677469 0.859111 0.547528
N2_3 N 0.74875(11) 0.1055(3) 0.00662(16)
C15_3 C 0.71625(16) 0.1938(3) 0.0412(2)
C31_3 C 0.69939(14) 0.3229(3) 0.0021(2)
C40_3 C 0.83322(16) 0.6132(4) 0.0171(2)
C43_3 C 0.87946(15) 0.7014(4) 0.0207(2)
H9_3 H 0.827121 0.202064 0.0469116
H11_3 H 0.675078 0.387997 0.0293018
H16_3 H 0.779725 0.00124952 0.095758
H17_3 H 0.74246 0.219487 0.0902787
H18_3 H 0.677469 0.140889 0.047528
H22_3 H 0.832456 0.542599 0.0581324
H23_3 H 0.914362 0.698193 0.0650635
C14_3 C 0.80061(14) 0.1771(3) 0.9979(2)
C28 C 0.41080(17) 0.0360(4) 0.8520(2)
C29 C 0.36231(18) 0.0147(4) 0.8034(2)
O10 O 0.33609(11) 0.1225(3) 0.76367(16)
C30_3 C 0.78375(16) 0.3062(3) 0.9588(2)
C32 C 0.37056(16) 0.1874(4) 0.7253(2)
N4_3 N 0.75125(11) 0.3945(3) 0.99338(16)
C33 C 0.36106(17) 0.3231(4) 0.7132(2)
C34 C 0.41006(19) 0.1182(4) 0.6986(2)
C35_3 C 0.73723(15) 0.5220(4) 0.9570(2)
C36 C 0.39151(16) 0.3898(4) 0.67280(19)
C37 C 0.44100(17) 0.1860(4) 0.6593(2)
C38_3 C 0.78872(14) 0.6147(3) 0.9623(2)
C39 C 0.43202(14) 0.3225(3) 0.64526(18)
C41_3 C 0.79225(16) 0.7067(4) 0.9127(2)
C42 C 0.46235(15) 0.3911(3) 0.59762(18)
C44_3 C 0.83936(16) 0.7910(4) 0.9198(2)
O13 O 0.43697(10) 0.4897(2) 0.56455(12)
O14_2 O 0.51033(10) 0.3442(2) 0.59209(12)
Co5_2 Co 0.45248(2) 0.58217(4) 0.48047(2)
H7 H 0.429458 0.137652 0.860157
H8_3 H 0.824922 0.112003 0.970698
H12_3 H 0.672879 0.297936 0.953088
H13 H 0.416994 0.00964907 0.708441
H14 H 0.38358 0.497818 0.662261
H19 H 0.473191 0.131005 0.638865
H29_3 H 0.840892 0.863414 0.879721
H30_3 H 0.7045 0.574996 0.977379
H31_3 H 0.720275 0.49875 0.904242
H32 H 0.329773 0.377811 0.735257
H34_3 H 0.75754 0.280513 0.909721
H35_3 H 0.822531 0.359111 0.952472
H36_3 H 0.757883 0.712931 0.867894
Co1_2 Co 0.54752(2) 0.58217(4) 0.01953(2)
O1 O 0.58556(10) 0.4273(2) 0.07782(12)
N1_3 N 0.61712(12) 0.7106(2) 0.02766(15)
O4_2 O 0.51033(10) 0.6558(2) 0.09209(12)
C1 C 0.55812(16) 0.3160(3) 0.07706(18)
C2_3 C 0.66064(16) 0.7090(4) 0.0802(2)
C4 C 0.58772(15) 0.2018(3) 0.11923(18)
C5_3 C 0.70775(16) 0.7933(4) 0.0873(2)
C7 C 0.63731(17) 0.2206(4) 0.1669(2)
C8 C 0.56412(15) 0.0717(4) 0.10947(19)
C9_3 C 0.71128(14) 0.8853(3) 0.0377(2)
C10 C 0.66246(17) 0.1128(4) 0.2063(2)
C12_3 C 0.76277(15) 0.9780(4) 0.0430(2)
O6 O 0.50828(10) 0.2948(2) 0.04448(13)
O8 O 0.43697(10) 0.5103(2) 0.06455(12)
H1_3 H 0.659108 0.636586 0.120279
H2 H 0.701507 0.128588 0.244658
H5 H 0.657094 0.321228 0.173835
H15_3 H 0.7955 0.925004 0.0226208
H24 H 0.525325 0.0550029 0.0708532
H33_3 H 0.742117 0.787069 0.132106
O2 O 0.49172(10) 0.7052(2) 0.95552(13)
O3 O 0.56303(10) 0.4897(2) 0.93545(12)
C3_3 C 0.62054(15) 0.7986(4) 0.9793(2)
C6_3 C 0.66678(16) 0.8868(4) 0.9829(2)
O7 O 0.41444(10) 0.5727(2) 0.92218(12)
O9_2 O 0.48967(10) 0.3442(2) 0.90791(12)
C23 C 0.44188(16) 0.6840(3) 0.92294(18)
C24 C 0.41228(15) 0.7982(3) 0.88077(18)
C25 C 0.36269(17) 0.7794(4) 0.8331(2)
C26 C 0.43588(15) 0.9283(4) 0.89053(19)
C27 C 0.33754(17) 0.8872(4) 0.7937(2)
H4_3 H 0.585638 0.801807 0.934936
H20 H 0.342906 0.678772 0.826165
H21 H 0.474675 0.944997 0.929147
H26_3 H 0.667544 0.957401 0.941868
H28 H 0.298493 0.871412 0.755342
C11 C 0.58920(17) 0.9640(4) 0.1480(2)
C13 C 0.63769(18) 0.9853(4) 0.1966(2)
O5 O 0.66391(11) 0.8775(3) 0.23633(16)
C16 C 0.62944(16) 0.8126(4) 0.2747(2)
C17 C 0.63894(17) 0.6769(4) 0.2868(2)
C18 C 0.58994(19) 0.8818(4) 0.3014(2)
C19 C 0.60849(16) 0.6102(4) 0.32720(19)
C20 C 0.55900(17) 0.8140(4) 0.3407(2)
C21 C 0.56798(14) 0.6775(3) 0.35474(18)
C22 C 0.53765(15) 0.6089(3) 0.40238(18)
O11 O 0.56303(10) 0.5103(2) 0.43545(12)
O12_2 O 0.48967(10) 0.6558(2) 0.40791(12)
H3 H 0.570542 0.862348 0.139843
H6 H 0.670227 0.622189 0.264743
H10 H 0.526809 0.868995 0.361135
H25 H 0.61642 0.502182 0.337739
H27 H 0.583006 0.990351 0.291559
N2_4 N 0.25125(11) 0.1055(3) 0.49338(16)
C14_4 C 0.19939(14) 0.1771(3) 0.5021(2)
C15_4 C 0.28375(16) 0.1938(3) 0.4588(2)
C28_2 C 0.58920(17) 0.0360(4) 0.6480(2)
C29_2 C 0.63769(18) 0.0147(4) 0.6966(2)
O10_2 O 0.66391(11) 0.1225(3) 0.73633(16)
C30_4 C 0.21625(16) 0.3062(3) 0.5412(2)
C31_4 C 0.30061(14) 0.3229(3) 0.4979(2)
C32_2 C 0.62944(16) 0.1874(4) 0.7747(2)
N4_4 N 0.24875(11) 0.3945(3) 0.50662(16)
C33_2 C 0.63894(17) 0.3231(4) 0.7868(2)
C34_2 C 0.58994(19) 0.1182(4) 0.8014(2)
C35_4 C 0.26277(15) 0.5220(4) 0.5430(2)
C36_2 C 0.60849(16) 0.3898(4) 0.82720(19)
C37_2 C 0.55900(17) 0.1860(4) 0.8407(2)
C38_4 C 0.21128(14) 0.6147(3) 0.5377(2)
C39_2 C 0.56798(14) 0.3225(3) 0.85474(18)
C40_4 C 0.16678(16) 0.6132(4) 0.4829(2)
C41_4 C 0.20775(16) 0.7067(4) 0.5873(2)
C42_2 C 0.53765(15) 0.3911(3) 0.90238(18)
C43_4 C 0.12054(15) 0.7014(4) 0.4793(2)
C44_4 C 0.16064(16) 0.7910(4) 0.5802(2)
H7_2 H 0.570542 0.137652 0.639843
H8_4 H 0.175078 0.112003 0.529302
H9_4 H 0.172879 0.202064 0.453088
H11_4 H 0.324922 0.387997 0.470698
H12_4 H 0.327121 0.297936 0.546912
H13_2 H 0.583006 0.00964907 0.791559
H14_2 H 0.61642 0.497818 0.837739
H16_4 H 0.220275 0.00124952 0.404242
H17_4 H 0.25754 0.219487 0.409721
H18_4 H 0.322531 0.140889 0.452472
H19_2 H 0.526809 0.131005 0.861135
H22_4 H 0.167544 0.542599 0.441868
H23_4 H 0.0856378 0.698193 0.434936
H29_4 H 0.159108 0.863414 0.620279
H30_4 H 0.2955 0.574996 0.522621
H31_4 H 0.279725 0.49875 0.595758
H32_2 H 0.670227 0.377811 0.764743
H34_4 H 0.24246 0.280513 0.590279
H35_4 H 0.177469 0.359111 0.547528
H36_4 H 0.242117 0.712931 0.632106
O1_2 O 0.41444(10) 0.4273(2) 0.42218(12)
N1_4 N 0.38288(12) 0.7106(2) 0.47234(15)
O2_2 O 0.50828(10) 0.7052(2) 0.54448(13)
C1_2 C 0.44188(16) 0.3160(3) 0.42294(18)
C2_4 C 0.33936(16) 0.7090(4) 0.4198(2)
C3_4 C 0.37946(15) 0.7986(4) 0.5207(2)
C4_2 C 0.41228(15) 0.2018(3) 0.38077(18)
C5_4 C 0.29225(16) 0.7933(4) 0.4127(2)
C6_4 C 0.33322(16) 0.8868(4) 0.5171(2)
C7_2 C 0.36269(17) 0.2206(4) 0.3331(2)
C8_2 C 0.43588(15) 0.0717(4) 0.39053(19)
C9_4 C 0.28872(14) 0.8853(3) 0.4623(2)
C10_2 C 0.33754(17) 0.1128(4) 0.2937(2)
C12_4 C 0.23723(15) 0.9780(4) 0.4570(2)
O6_2 O 0.49172(10) 0.2948(2) 0.45552(13)
O7_2 O 0.58556(10) 0.5727(2) 0.57782(12)
C23_2 C 0.55812(16) 0.6840(3) 0.57706(18)
C24_2 C 0.58772(15) 0.7982(3) 0.61923(18)
C25_2 C 0.63731(17) 0.7794(4) 0.6669(2)
C26_2 C 0.56412(15) 0.9283(4) 0.60947(19)
C27_2 C 0.66246(17) 0.8872(4) 0.7063(2)
H1_4 H 0.340892 0.636586 0.379721
H2_2 H 0.298493 0.128588 0.255342
H4_4 H 0.414362 0.801807 0.565064
H5_2 H 0.342906 0.321228 0.326165
H15_4 H 0.2045 0.925004 0.477379
H20_2 H 0.657094 0.678772 0.673835
H21_2 H 0.525325 0.944997 0.570853
H24_2 H 0.474675 0.0550029 0.429147
H26_4 H 0.332456 0.957401 0.558132
H28_2 H 0.701507 0.871412 0.744658
H33_4 H 0.257883 0.787069 0.367894
C11_2 C 0.41080(17) 0.9640(4) 0.3520(2)
C13_2 C 0.36231(18) 0.9853(4) 0.3034(2)
O5_2 O 0.33609(11) 0.8775(3) 0.26367(16)
C16_2 C 0.37056(16) 0.8126(4) 0.2253(2)
C17_2 C 0.36106(17) 0.6769(4) 0.2132(2)
C18_2 C 0.41006(19) 0.8818(4) 0.1986(2)
C19_2 C 0.39151(16) 0.6102(4) 0.17280(19)
C20_2 C 0.44100(17) 0.8140(4) 0.1593(2)
C21_2 C 0.43202(14) 0.6775(3) 0.14526(18)
C22_2 C 0.46235(15) 0.6089(3) 0.09762(18)
H3_2 H 0.429458 0.862348 0.360157
H6_2 H 0.329773 0.622189 0.235257
H10_2 H 0.473191 0.868995 0.138865
H25_2 H 0.38358 0.502182 0.162261
H27_2 H 0.416994 0.990351 0.208441
O1_3 O 0.08556(10) 0.9273(2) 0.07782(12)
C1_3 C 0.05812(16) 0.8160(3) 0.07706(18)
C4_3 C 0.08772(15) 0.7018(3) 0.11923(18)
C7_3 C 0.13731(17) 0.7206(4) 0.1669(2)
C8_3 C 0.06412(15) 0.5717(4) 0.10947(19)
C10_3 C 0.16246(17) 0.6128(4) 0.2063(2)
C11_3 C 0.08920(17) 0.4640(4) 0.1480(2)
C13_3 C 0.13769(18) 0.4853(4) 0.1966(2)
O5_3 O 0.16391(11) 0.3775(3) 0.23633(16)
C16_3 C 0.12944(16) 0.3126(4) 0.2747(2)
C17_3 C 0.13894(17) 0.1769(4) 0.2868(2)
C18_3 C 0.08994(19) 0.3818(4) 0.3014(2)
C19_3 C 0.10849(16) 0.1102(4) 0.32720(19)
C20_3 C 0.05900(17) 0.3140(4) 0.3407(2)
C21_3 C 0.06798(14) 0.1775(3) 0.35474(18)
C22_3 C 0.03765(15) 0.1089(3) 0.40238(18)
O6_3 O 0.00828(10) 0.7948(2) 0.04448(13)
O11_2 O 0.06303(10) 0.0103(2) 0.43545(12)
H2_3 H 0.201507 0.628588 0.244658
H3_3 H 0.0705424 0.362348 0.139843
H5_3 H 0.157094 0.821228 0.173835
H6_3 H 0.170227 0.122189 0.264743
H10_3 H 0.0268095 0.368995 0.361135
H24_3 H 0.0253246 0.555003 0.0708532
H25_3 H 0.11642 0.00218175 0.337739
H27_3 H 0.0830063 0.490351 0.291559
O3_2 O 0.06303(10) 0.9897(2) 0.93545(12)
O2_3 O 0.00828(10) 0.2052(2) 0.54448(13)
O7_3 O 0.08556(10) 0.0727(2) 0.57782(12)
C23_3 C 0.05812(16) 0.1840(3) 0.57706(18)
C24_3 C 0.08772(15) 0.2982(3) 0.61923(18)
C25_3 C 0.13731(17) 0.2794(4) 0.6669(2)
C26_3 C 0.06412(15) 0.4283(4) 0.60947(19)
C27_3 C 0.16246(17) 0.3872(4) 0.7063(2)
C28_3 C 0.08920(17) 0.5360(4) 0.6480(2)
C29_3 C 0.13769(18) 0.5147(4) 0.6966(2)
O10_3 O 0.16391(11) 0.6225(3) 0.73633(16)
C32_3 C 0.12944(16) 0.6874(4) 0.7747(2)
C33_3 C 0.13894(17) 0.8231(4) 0.7868(2)
C34_3 C 0.08994(19) 0.6182(4) 0.8014(2)
C36_3 C 0.10849(16) 0.8898(4) 0.82720(19)
C37_3 C 0.05900(17) 0.6860(4) 0.8407(2)
C39_3 C 0.06798(14) 0.8225(3) 0.85474(18)
C42_3 C 0.03765(15) 0.8911(3) 0.90238(18)
H7_3 H 0.0705424 0.637652 0.639843
H13_3 H 0.0830063 0.509649 0.791559
H14_3 H 0.11642 0.997818 0.837739
H19_3 H 0.0268095 0.631005 0.861135
H20_3 H 0.157094 0.178772 0.673835
H21_3 H 0.0253246 0.444997 0.570853
H28_3 H 0.201507 0.371412 0.744658
H32_3 H 0.170227 0.877811 0.764743
O8_2 O 0.93697(10) 0.0103(2) 0.06455(12)
O2_4 O 0.99172(10) 0.2052(2) 0.95552(13)
O7_4 O 0.91444(10) 0.0727(2) 0.92218(12)
C23_4 C 0.94188(16) 0.1840(3) 0.92294(18)
C24_4 C 0.91228(15) 0.2982(3) 0.88077(18)
C25_4 C 0.86269(17) 0.2794(4) 0.8331(2)
C26_4 C 0.93588(15) 0.4283(4) 0.89053(19)
C27_4 C 0.83754(17) 0.3872(4) 0.7937(2)
C28_4 C 0.91080(17) 0.5360(4) 0.8520(2)
C29_4 C 0.86231(18) 0.5147(4) 0.8034(2)
O10_4 O 0.83609(11) 0.6225(3) 0.76367(16)
C32_4 C 0.87056(16) 0.6874(4) 0.7253(2)
C33_4 C 0.86106(17) 0.8231(4) 0.7132(2)
C34_4 C 0.91006(19) 0.6182(4) 0.6986(2)
C36_4 C 0.89151(16) 0.8898(4) 0.67280(19)
C37_4 C 0.94100(17) 0.6860(4) 0.6593(2)
C39_4 C 0.93202(14) 0.8225(3) 0.64526(18)
C42_4 C 0.96235(15) 0.8911(3) 0.59762(18)
O13_2 O 0.93697(10) 0.9897(2) 0.56455(12)
H7_4 H 0.929458 0.637652 0.860157
H13_4 H 0.916994 0.509649 0.708441
H14_4 H 0.88358 0.997818 0.662261
H19_4 H 0.973191 0.631005 0.638865
H20_4 H 0.842906 0.178772 0.826165
H21_4 H 0.974675 0.444997 0.929147
H28_4 H 0.798493 0.371412 0.755342
H32_4 H 0.829773 0.877811 0.735257
O1_4 O 0.91444(10) 0.9273(2) 0.42218(12)
C1_4 C 0.94188(16) 0.8160(3) 0.42294(18)
C4_4 C 0.91228(15) 0.7018(3) 0.38077(18)
C7_4 C 0.86269(17) 0.7206(4) 0.3331(2)
C8_4 C 0.93588(15) 0.5717(4) 0.39053(19)
C10_4 C 0.83754(17) 0.6128(4) 0.2937(2)
C11_4 C 0.91080(17) 0.4640(4) 0.3520(2)
C13_4 C 0.86231(18) 0.4853(4) 0.3034(2)
O5_4 O 0.83609(11) 0.3775(3) 0.26367(16)
C16_4 C 0.87056(16) 0.3126(4) 0.2253(2)
C17_4 C 0.86106(17) 0.1769(4) 0.2132(2)
C18_4 C 0.91006(19) 0.3818(4) 0.1986(2)
C19_4 C 0.89151(16) 0.1102(4) 0.17280(19)
C20_4 C 0.94100(17) 0.3140(4) 0.1593(2)
C21_4 C 0.93202(14) 0.1775(3) 0.14526(18)
C22_4 C 0.96235(15) 0.1089(3) 0.09762(18)
O6_4 O 0.99172(10) 0.7948(2) 0.45552(13)
H2_4 H 0.798493 0.628588 0.255342
H3_4 H 0.929458 0.362348 0.360157
H5_4 H 0.842906 0.821228 0.326165
H6_4 H 0.829773 0.122189 0.235257
H10_4 H 0.973191 0.368995 0.138865
H24_4 H 0.974675 0.555003 0.429147
H25_4 H 0.88358 0.00218175 0.162261
H27_4 H 0.916994 0.490351 0.208441
loop_
_geom_bond_atom_site_label_1
_geom_bond_atom_site_label_2
_geom_bond_site_symmetry_1
_geom_bond_site_symmetry_2
C43 C40 1_555 1_555
C40 H22 1_555 1_555
C43 H23 1_555 1_555
C38 C35 1_555 1_555
C41 C38 1_555 1_555
C44 C41 1_555 1_555
Co7 N5 1_555 1_555
C44 N5 1_555 1_555
C44 H29 1_555 1_555
C35 H30 1_555 1_555
C41 H36 1_555 1_555
N1 Co1 1_555 1_555
O4 Co1 1_555 1_555
C2 N1 1_555 1_555
C5 C2 1_555 1_555
C9 C5 1_555 1_555
C12 C9 1_555 1_555
N2 C12 1_555 1_555
C15 N2 1_555 1_555
C31 C15 1_555 1_555
C2 H1 1_555 1_555
C31 H11 1_555 1_555
C12 H15 1_555 1_555
C12 H16 1_555 1_555
C15 H17 1_555 1_555
C15 H18 1_555 1_555
C5 H33 1_555 1_555
C6 C3 1_555 1_555
C30 C14 1_555 1_555
N4 C30 1_555 1_555
Co6 O14 1_555 1_555
C3 H4 1_555 1_555
C14 H8 1_555 1_555
C6 H26 1_555 1_555
C30 H34 1_555 1_555
C30 H35 1_555 1_555
Co5 O12 1_555 1_555
N3 Co2 1_555 1_555
O9 Co2 1_555 1_555
N3_2 Co6 1_555 1_555
C38_2 C35_2 1_555 1_555
C40_2 C38_2 1_555 1_555
C41_2 C38_2 1_555 1_555
C43_2 C40_2 1_555 1_555
C44_2 C41_2 1_555 1_555
N5_2 C43_2 1_555 1_555
Co7_2 N5_2 1_555 1_555
C44_2 N5_2 1_555 1_555
C40_2 H22_2 1_555 1_555
C43_2 H23_2 1_555 1_555
C44_2 H29_2 1_555 1_555
C35_2 H30_2 1_555 1_555
C41_2 H36_2 1_555 1_555
N1_2 Co5 1_555 1_555
C2_2 N1_2 1_555 1_555
C3_2 N1_2 1_555 1_555
C5_2 C2_2 1_555 1_555
C6_2 C3_2 1_555 1_555
C9_2 C5_2 1_555 1_555
C12_2 C9_2 1_555 1_555
N2_2 C12_2 1_555 1_555
C14_2 N2_2 1_555 1_555
C15_2 N2_2 1_555 1_555
C30_2 C14_2 1_555 1_555
C31_2 C15_2 1_555 1_555
N4_2 C30_2 1_555 1_555
C6_2 C9_2 1_555 1_555
C31_2 N4_2 1_555 1_555
C2_2 H1_2 1_555 1_555
C3_2 H4_2 1_555 1_555
C14_2 H8_2 1_555 1_555
C14_2 H9_2 1_555 1_555
C31_2 H11_2 1_555 1_555
C31_2 H12_2 1_555 1_555
C12_2 H15_2 1_555 1_555
C12_2 H16_2 1_555 1_555
C15_2 H17_2 1_555 1_555
C15_2 H18_2 1_555 1_555
C6_2 H26_2 1_555 1_555
C5_2 H33_2 1_555 1_555
C30_2 H34_2 1_555 1_555
C30_2 H35_2 1_555 1_555
C15_3 N2_3 1_555 1_555
C31_3 C15_3 1_555 1_555
C43_3 C40_3 1_555 1_555
C31_3 H11_3 1_555 1_555
C15_3 H17_3 1_555 1_555
C15_3 H18_3 1_555 1_555
C40_3 H22_3 1_555 1_555
C43_3 H23_3 1_555 1_555
O10 C29 1_555 1_555
C30_3 C14_3 1_555 1_555
C32 O10 1_555 1_555
N4_3 C30_3 1_555 1_555
C33 C32 1_555 1_555
C34 C32 1_555 1_555
C35_3 N4_3 1_555 1_555
C36 C33 1_555 1_555
C37 C34 1_555 1_555
C38_3 C35_3 1_555 1_555
C39 C36 1_555 1_555
C41_3 C38_3 1_555 1_555
C42 C39 1_555 1_555
C44_3 C41_3 1_555 1_555
O13 C42 1_555 1_555
O14_2 C42 1_555 1_555
Co5_2 O13 1_555 1_555
Co7_2 O14_2 1_555 1_555
C28 C29 1_555 1_555
C37 C39 1_555 1_555
C44_3 N3 1_555 1_555
Co5_2 Co7_2 1_555 1_555
C28 H7 1_555 1_555
C14_3 H8_3 1_555 1_555
C34 H13 1_555 1_555
C36 H14 1_555 1_555
C37 H19 1_555 1_555
C44_3 H29_3 1_555 1_555
C35_3 H30_3 1_555 1_555
C35_3 H31_3 1_555 1_555
C33 H32 1_555 1_555
C30_3 H34_3 1_555 1_555
C30_3 H35_3 1_555 1_555
C41_3 H36_3 1_555 1_555
Co1_2 O1 1_555 1_555
O1 C1 1_555 1_555
N1_3 Co1_2 1_555 1_555
O4_2 Co1_2 1_555 1_555
C1 C4 1_555 1_555
C2_3 N1_3 1_555 1_555
C4 C7 1_555 1_555
C5_3 C2_3 1_555 1_555
C7 C10 1_555 1_555
C8 C4 1_555 1_555
C9_3 C5_3 1_555 1_555
C12_3 C9_3 1_555 1_555
O6 C1 1_555 1_555
C2_3 H1_3 1_555 1_555
C10 H2 1_555 1_555
C7 H5 1_555 1_555
C12_3 H15_3 1_555 1_555
C8 H24 1_555 1_555
C5_3 H33_3 1_555 1_555
C6_3 C3_3 1_555 1_555
O7 Co7 1_555 1_555
O9_2 Co7 1_555 1_555
C23 O2 1_555 1_555
C24 C23 1_555 1_555
C25 C24 1_555 1_555
C26 C24 1_555 1_555
C27 C25 1_555 1_555
O7 C23 1_555 1_555
C3_3 H4_3 1_555 1_555
C25 H20 1_555 1_555
C26 H21 1_555 1_555
C6_3 H26_3 1_555 1_555
C27 H28 1_555 1_555
C13 C11 1_555 1_555
O5 C13 1_555 1_555
C16 O5 1_555 1_555
C17 C16 1_555 1_555
C18 C16 1_555 1_555
C19 C17 1_555 1_555
C20 C18 1_555 1_555
C21 C19 1_555 1_555
C22 C21 1_555 1_555
O11 C22 1_555 1_555
O12_2 C22 1_555 1_555
Co7_2 O11 1_555 1_555
Co5_2 O12_2 1_555 1_555
C20 C21 1_555 1_555
C11 H3 1_555 1_555
C17 H6 1_555 1_555
C20 H10 1_555 1_555
C19 H25 1_555 1_555
C18 H27 1_555 1_555
C14_4 N2_4 1_555 1_555
C15_4 N2_4 1_555 1_555
O10_2 C29_2 1_555 1_555
C30_4 C14_4 1_555 1_555
C31_4 C15_4 1_555 1_555
C32_2 O10_2 1_555 1_555
N4_4 C30_4 1_555 1_555
C33_2 C32_2 1_555 1_555
C34_2 C32_2 1_555 1_555
C35_4 N4_4 1_555 1_555
C36_2 C33_2 1_555 1_555
C37_2 C34_2 1_555 1_555
C38_4 C35_4 1_555 1_555
C39_2 C36_2 1_555 1_555
C40_4 C38_4 1_555 1_555
C41_4 C38_4 1_555 1_555
C42_2 C39_2 1_555 1_555
C43_4 C40_4 1_555 1_555
C44_4 C41_4 1_555 1_555
O3 C42_2 1_555 1_555
O9_2 C42_2 1_555 1_555
N3_2 C43_4 1_555 1_555
C28_2 C29_2 1_555 1_555
C31_4 N4_4 1_555 1_555
C37_2 C39_2 1_555 1_555
C44_4 N3_2 1_555 1_555
C28_2 H7_2 1_555 1_555
C14_4 H8_4 1_555 1_555
C14_4 H9_4 1_555 1_555
C31_4 H11_4 1_555 1_555
C31_4 H12_4 1_555 1_555
C34_2 H13_2 1_555 1_555
C36_2 H14_2 1_555 1_555
C15_4 H17_4 1_555 1_555
C15_4 H18_4 1_555 1_555
C37_2 H19_2 1_555 1_555
C40_4 H22_4 1_555 1_555
C43_4 H23_4 1_555 1_555
C44_4 H29_4 1_555 1_555
C35_4 H30_4 1_555 1_555
C35_4 H31_4 1_555 1_555
C33_2 H32_2 1_555 1_555
C30_4 H34_4 1_555 1_555
C30_4 H35_4 1_555 1_555
C41_4 H36_4 1_555 1_555
Co5_2 O1_2 1_555 1_555
O1_2 C1_2 1_555 1_555
N1_4 Co5_2 1_555 1_555
O2_2 Co5_2 1_555 1_555
C1_2 C4_2 1_555 1_555
C2_4 N1_4 1_555 1_555
C3_4 N1_4 1_555 1_555
C4_2 C7_2 1_555 1_555
C5_4 C2_4 1_555 1_555
C6_4 C3_4 1_555 1_555
C7_2 C10_2 1_555 1_555
C8_2 C4_2 1_555 1_555
C9_4 C5_4 1_555 1_555
C12_4 C9_4 1_555 1_555
O6_2 C1_2 1_555 1_555
O7_2 Co7_2 1_555 1_555
C23_2 O2_2 1_555 1_555
C24_2 C23_2 1_555 1_555
C25_2 C24_2 1_555 1_555
C26_2 C24_2 1_555 1_555
C27_2 C25_2 1_555 1_555
C6_4 C9_4 1_555 1_555
Co7_2 O6_2 1_555 1_555
O7_2 C23_2 1_555 1_555
C2_4 H1_4 1_555 1_555
C10_2 H2_2 1_555 1_555
C3_4 H4_4 1_555 1_555
C7_2 H5_2 1_555 1_555
C12_4 H15_4 1_555 1_555
C25_2 H20_2 1_555 1_555
C26_2 H21_2 1_555 1_555
C8_2 H24_2 1_555 1_555
C6_4 H26_4 1_555 1_555
C27_2 H28_2 1_555 1_555
C5_4 H33_4 1_555 1_555
C13_2 C11_2 1_555 1_555
O5_2 C13_2 1_555 1_555
C16_2 O5_2 1_555 1_555
C17_2 C16_2 1_555 1_555
C18_2 C16_2 1_555 1_555
C19_2 C17_2 1_555 1_555
C20_2 C18_2 1_555 1_555
C21_2 C19_2 1_555 1_555
C22_2 C21_2 1_555 1_555
O8 C22_2 1_555 1_555
O4_2 C22_2 1_555 1_555
C20_2 C21_2 1_555 1_555
C11_2 H3_2 1_555 1_555
C17_2 H6_2 1_555 1_555
C20_2 H10_2 1_555 1_555
C19_2 H25_2 1_555 1_555
C18_2 H27_2 1_555 1_555
O1_3 C1_3 1_555 1_555
C1_3 C4_3 1_555 1_555
C4_3 C7_3 1_555 1_555
C7_3 C10_3 1_555 1_555
C8_3 C4_3 1_555 1_555
C10_3 C13_3 1_555 1_555
C11_3 C8_3 1_555 1_555
C13_3 C11_3 1_555 1_555
O5_3 C13_3 1_555 1_555
C16_3 O5_3 1_555 1_555
C17_3 C16_3 1_555 1_555
C18_3 C16_3 1_555 1_555
C19_3 C17_3 1_555 1_555
C20_3 C18_3 1_555 1_555
C21_3 C19_3 1_555 1_555
C22_3 C21_3 1_555 1_555
O6_3 C1_3 1_555 1_555
O11_2 C22_3 1_555 1_555
C20_3 C21_3 1_555 1_555
C10_3 H2_3 1_555 1_555
C11_3 H3_3 1_555 1_555
C7_3 H5_3 1_555 1_555
C17_3 H6_3 1_555 1_555
C20_3 H10_3 1_555 1_555
C8_3 H24_3 1_555 1_555
C19_3 H25_3 1_555 1_555
C18_3 H27_3 1_555 1_555
C23_3 O2_3 1_555 1_555
C24_3 C23_3 1_555 1_555
C25_3 C24_3 1_555 1_555
C26_3 C24_3 1_555 1_555
C27_3 C25_3 1_555 1_555
C28_3 C26_3 1_555 1_555
C29_3 C27_3 1_555 1_555
O10_3 C29_3 1_555 1_555
C32_3 O10_3 1_555 1_555
C33_3 C32_3 1_555 1_555
C34_3 C32_3 1_555 1_555
C36_3 C33_3 1_555 1_555
C37_3 C34_3 1_555 1_555
C39_3 C36_3 1_555 1_555
C42_3 C39_3 1_555 1_555
O3_2 C42_3 1_555 1_555
O7_3 C23_3 1_555 1_555
C28_3 C29_3 1_555 1_555
C37_3 C39_3 1_555 1_555
C28_3 H7_3 1_555 1_555
C34_3 H13_3 1_555 1_555
C36_3 H14_3 1_555 1_555
C37_3 H19_3 1_555 1_555
C25_3 H20_3 1_555 1_555
C26_3 H21_3 1_555 1_555
C27_3 H28_3 1_555 1_555
C33_3 H32_3 1_555 1_555
C23_4 O2_4 1_555 1_555
C24_4 C23_4 1_555 1_555
C25_4 C24_4 1_555 1_555
C26_4 C24_4 1_555 1_555
C27_4 C25_4 1_555 1_555
C28_4 C26_4 1_555 1_555
C29_4 C27_4 1_555 1_555
O10_4 C29_4 1_555 1_555
C32_4 O10_4 1_555 1_555
C33_4 C32_4 1_555 1_555
C34_4 C32_4 1_555 1_555
C36_4 C33_4 1_555 1_555
C37_4 C34_4 1_555 1_555
C39_4 C36_4 1_555 1_555
C42_4 C39_4 1_555 1_555
O13_2 C42_4 1_555 1_555
O7_4 C23_4 1_555 1_555
C28_4 C29_4 1_555 1_555
C37_4 C39_4 1_555 1_555
C28_4 H7_4 1_555 1_555
C34_4 H13_4 1_555 1_555
C36_4 H14_4 1_555 1_555
C37_4 H19_4 1_555 1_555
C25_4 H20_4 1_555 1_555
C26_4 H21_4 1_555 1_555
C27_4 H28_4 1_555 1_555
C33_4 H32_4 1_555 1_555
O1_4 C1_4 1_555 1_555
C1_4 C4_4 1_555 1_555
C4_4 C7_4 1_555 1_555
C7_4 C10_4 1_555 1_555
C8_4 C4_4 1_555 1_555
C10_4 C13_4 1_555 1_555
C11_4 C8_4 1_555 1_555
C13_4 C11_4 1_555 1_555
O5_4 C13_4 1_555 1_555
C16_4 O5_4 1_555 1_555
C17_4 C16_4 1_555 1_555
C18_4 C16_4 1_555 1_555
C19_4 C17_4 1_555 1_555
C20_4 C18_4 1_555 1_555
C21_4 C19_4 1_555 1_555
C22_4 C21_4 1_555 1_555
O6_4 C1_4 1_555 1_555
O8_2 C22_4 1_555 1_555
C20_4 C21_4 1_555 1_555
C10_4 H2_4 1_555 1_555
C11_4 H3_4 1_555 1_555
C7_4 H5_4 1_555 1_555
C17_4 H6_4 1_555 1_555
C20_4 H10_4 1_555 1_555
C8_4 H24_4 1_555 1_555
C19_4 H25_4 1_555 1_555
C18_4 H27_4 1_555 1_555

#END
