
###############################################################################
#
# This file contains modified crystal structure data generated from the
# MOF subset of the Cambridge Structural Database (CSD) v543 
# hosted by the Cambridge Crystallographic Data Centre (CCDC).
#
# This work is licensed under the Creative Commons
# Attribution-NonCommercial-ShareAlike 4.0 International License.
# To view a copy of this license, visit
# http://creativecommons.org/licenses/by-nc-sa/4.0/
# or send a letter to
# Creative Commons, PO Box 1866, Mountain View, CA 94042, USA.
#
# CIF created using the CSD Python API on 29 September 2022
# The structure has been converted into the P1 space group
# The structure has a 3D framework
# The original CSD entry EGONOG is in the monoclinic crystal system
# The framework has been calculated to contain at least 10.0% void space
# The void calculation uses a probe of radius 1.32A, grid spacing 0.4
#
###############################################################################

data_EGONOG
_chemical_formula_moiety         '(C176 H144 Co7 N16 O36)n'
_symmetry_cell_setting           triclinic
_symmetry_space_group_name_H-M   'P 1'
_symmetry_Int_Tables_number      1
_space_group_name_Hall           'P 1'
loop_
_symmetry_equiv_pos_site_id
_symmetry_equiv_pos_as_xyz
1 x,y,z
_cell_length_a                   23.7504(14)
_cell_length_b                   9.7971(6)
_cell_length_c                   20.3230(12)
_cell_angle_alpha                90
_cell_angle_beta                 104.156(2)
_cell_angle_gamma                90
_cell_volume                     4585.26
loop_
_atom_site_label
_atom_site_type_symbol
_atom_site_fract_x
_atom_site_fract_y
_atom_site_fract_z
N1 N 0.24902(15) 0.1054(3) 0.0076(2)
H5 H 0.326432 0.198385 0.039054
C13 C 0.2185(2) 0.1948(4) 0.0433(3)
H9 H 0.243561 0.217348 0.087297
H10 H 0.184570 0.148228 0.050777
C24 C 0.3341(2) 0.6123(5) 0.0158(3)
H19 H 0.334713 0.551763 0.051224
C25 C 0.20006(19) 0.3234(4) 0.0041(3)
H20 H 0.179886 0.382128 0.029230
C28 C 0.3803(2) 0.7005(4) 0.0188(2)
H25 H 0.411392 0.696968 0.056818
C7 C 0.29994(19) 0.1766(4) 0.9959(3)
H4 H 0.320114 0.117872 0.970770
N3 N 0.25098(15) 0.3946(3) 0.9924(2)
N4 N 0.38245(15) 0.7895(3) 0.97049(18)
C23 C 0.28753(19) 0.6145(4) 0.9608(3)
H21 H 0.173568 0.301615 0.960946
C26 C 0.3369(2) 0.7919(5) 0.9173(3)
H22 H 0.337135 0.854059 0.882793
C27 C 0.2815(2) 0.3052(4) 0.9567(3)
H23 H 0.256439 0.282652 0.912703
H24 H 0.315430 0.351772 0.949223
C29 C 0.2358(2) 0.5220(5) 0.9558(3)
H26 H 0.218555 0.501981 0.908402
H27 H 0.206947 0.569265 0.973824
C30 C 0.2895(2) 0.7076(5) 0.9105(3)
H28 H 0.258832 0.713404 0.872136
O10 O 0.01247(13) 0.3457(3) 0.59494(15)
Co6 Co 0.04821(2) 0.41851(5) 0.52156(3)
Co7 Co 0.45179(2) 0.91851(5) 0.97844(3)
Co1 Co 0.04821(2) 0.58149(5) 0.02156(3)
O1 O 0.08817(13) 0.4266(3) 0.08017(16)
N2 N 0.11755(15) 0.7105(3) 0.02951(18)
C1 C 0.08940(19) 0.1983(4) 0.1199(2)
C2 C 0.0601(2) 0.3161(4) 0.0778(2)
C3 C 0.1403(2) 0.2152(5) 0.1694(3)
H1 H 0.157851 0.300631 0.175993
C4 C 0.0651(2) 0.0698(4) 0.1090(2)
H2 H 0.031537 0.056798 0.074721
C5 C 0.21247(19) 0.8855(4) 0.0392(3)
C11 C 0.1631(2) 0.7081(5) 0.0827(3)
H7 H 0.162865 0.645941 0.117207
C12 C 0.1656(2) 0.1059(5) 0.2094(3)
H8 H 0.199753 0.117541 0.242953
C16 C 0.2642(2) 0.9780(5) 0.0442(3)
H13 H 0.281445 0.998019 0.091598
H14 H 0.293053 0.930735 0.026176
C18 C 0.2105(2) 0.7924(5) 0.0895(3)
H16 H 0.241168 0.786596 0.127864
O3 O 0.00960(14) 0.2946(3) 0.04297(16)
O13 O 0.01247(13) 0.6543(3) 0.09494(15)
O2 O 0.16479(14) 0.8706(4) 0.23920(19)
C8 C 0.1392(2) 0.9803(5) 0.1985(3)
C9 C 0.1294(2) 0.8069(5) 0.2760(2)
C10 C 0.0900(2) 0.9601(5) 0.1483(3)
H6 H 0.073432 0.873736 0.140622
C14 C 0.1366(2) 0.6703(5) 0.2865(3)
H11 H 0.162072 0.621764 0.267096
C17 C 0.0907(2) 0.8788(5) 0.3030(3)
H15 H 0.086175 0.972285 0.295763
C19 C 0.06632(18) 0.6745(4) 0.3541(2)
C20 C 0.0589(2) 0.8110(5) 0.3409(3)
H17 H 0.031666 0.858926 0.357793
C21 C 0.1054(2) 0.6046(5) 0.3265(2)
H18 H 0.111005 0.511655 0.334895
C22 C 0.03563(19) 0.6067(4) 0.4014(2)
O4 O 0.06166(13) 0.5088(3) 0.43578(15)
O7 O 0.83521(14) 0.1294(4) 0.76080(19)
C35 C 0.8608(2) 0.0197(5) 0.8015(3)
C36 C 0.8706(2) 0.1931(5) 0.7240(2)
C37 C 0.9100(2) 0.0399(5) 0.8517(3)
H31 H 0.926568 0.126264 0.859378
C39 C 0.8634(2) 0.3297(5) 0.7135(3)
H33 H 0.837928 0.378236 0.732904
C40 C 0.9093(2) 0.1212(5) 0.6970(3)
H34 H 0.913825 0.027715 0.704237
C41 C 0.93368(18) 0.3255(4) 0.6459(2)
C42 C 0.9411(2) 0.1890(5) 0.6591(3)
H35 H 0.968334 0.141074 0.642207
C43 C 0.8946(2) 0.3954(5) 0.6735(2)
H36 H 0.888995 0.488345 0.665105
C44 C 0.96437(19) 0.3933(4) 0.5986(2)
O9 O 0.93834(13) 0.4912(3) 0.56422(15)
Co4 Co 0.95179(2) 0.58149(5) 0.47844(3)
Co2 Co 0.95179(2) 0.41851(5) 0.97844(3)
O6 O 0.91183(13) 0.5734(3) 0.91983(16)
C31 C 0.91060(19) 0.8017(4) 0.8801(2)
C32 C 0.9399(2) 0.6839(4) 0.9222(2)
C33 C 0.8597(2) 0.7848(5) 0.8306(3)
H29 H 0.842149 0.699369 0.824007
C34 C 0.9349(2) 0.9302(4) 0.8910(2)
H30 H 0.968463 0.943202 0.925279
C38 C 0.8344(2) 0.8941(5) 0.7906(3)
H32 H 0.800247 0.882459 0.757047
O8 O 0.99040(14) 0.7054(3) 0.95703(16)
N5 N 0.88245(15) 0.2895(3) 0.97049(18)
O14 O 0.98753(13) 0.3457(3) 0.90506(15)
O5 O 0.98753(13) 0.6543(3) 0.40506(15)
O6_2 O 0.08817(13) 0.5734(3) 0.58017(16)
C31_2 C 0.08940(19) 0.8017(4) 0.6199(2)
C32_2 C 0.0601(2) 0.6839(4) 0.5778(2)
C33_2 C 0.1403(2) 0.7848(5) 0.6694(3)
H29_2 H 0.157851 0.699369 0.675993
C34_2 C 0.0651(2) 0.9302(4) 0.6090(2)
H30_2 H 0.031537 0.943202 0.574721
C38_2 C 0.1656(2) 0.8941(5) 0.7094(3)
H32_2 H 0.199753 0.882459 0.742953
O8_2 O 0.00960(14) 0.7054(3) 0.54297(16)
N5_2 N 0.11755(15) 0.2895(3) 0.52951(18)
N1_2 N 0.75098(15) 0.1054(3) 0.4924(2)
C7_2 C 0.70006(19) 0.1766(4) 0.5041(3)
H4_2 H 0.679886 0.117872 0.529230
H5_2 H 0.673568 0.198385 0.460946
C13_2 C 0.7815(2) 0.1948(4) 0.4567(3)
H9_2 H 0.756439 0.217348 0.412703
H10_2 H 0.815430 0.148228 0.449223
N3_2 N 0.74902(15) 0.3946(3) 0.5076(2)
N4_2 N 0.61755(15) 0.7895(3) 0.52951(18)
C23_2 C 0.71247(19) 0.6145(4) 0.5392(3)
C24_2 C 0.6659(2) 0.6123(5) 0.4842(3)
H19_2 H 0.665287 0.551763 0.448776
C25_2 C 0.79994(19) 0.3234(4) 0.4959(3)
H20_2 H 0.820114 0.382128 0.470770
H21_2 H 0.826432 0.301615 0.539054
C26_2 C 0.6631(2) 0.7919(5) 0.5827(3)
H22_2 H 0.662865 0.854059 0.617207
C27_2 C 0.7185(2) 0.3052(4) 0.5433(3)
H23_2 H 0.743561 0.282652 0.587297
H24_2 H 0.684570 0.351772 0.550777
C28_2 C 0.6197(2) 0.7005(4) 0.4812(2)
H25_2 H 0.588608 0.696968 0.443182
C29_2 C 0.7642(2) 0.5220(5) 0.5442(3)
H26_2 H 0.781445 0.501981 0.591598
H27_2 H 0.793053 0.569265 0.526176
C30_2 C 0.7105(2) 0.7076(5) 0.5895(3)
H28_2 H 0.741168 0.713404 0.627864
Co7_2 Co 0.54821(2) 0.91851(5) 0.52156(3)
O1_2 O 0.91183(13) 0.4266(3) 0.41983(16)
N2_2 N 0.88245(15) 0.7105(3) 0.47049(18)
C1_2 C 0.91060(19) 0.1983(4) 0.3801(2)
C2_2 C 0.9399(2) 0.3161(4) 0.4222(2)
C3_2 C 0.8597(2) 0.2152(5) 0.3306(3)
H1_2 H 0.842149 0.300631 0.324007
C4_2 C 0.9349(2) 0.0698(4) 0.3910(2)
H2_2 H 0.968463 0.056798 0.425279
C5_2 C 0.78753(19) 0.8855(4) 0.4608(3)
C6 C 0.8341(2) 0.8877(5) 0.5158(3)
H3 H 0.834713 0.948237 0.551224
C11_2 C 0.8369(2) 0.7081(5) 0.4173(3)
H7_2 H 0.837135 0.645941 0.382793
C12_2 C 0.8344(2) 0.1059(5) 0.2906(3)
H8_2 H 0.800247 0.117541 0.257047
C15 C 0.8803(2) 0.7995(4) 0.5188(2)
H12 H 0.911392 0.803032 0.556818
C16_2 C 0.7358(2) 0.9780(5) 0.4558(3)
H13_2 H 0.718555 0.998019 0.408402
H14_2 H 0.706947 0.930735 0.473824
C18_2 C 0.7895(2) 0.7924(5) 0.4105(3)
H16_2 H 0.758832 0.786596 0.372136
O3_2 O 0.99040(14) 0.2946(3) 0.45703(16)
C23_3 C 0.78753(19) 0.1145(4) 0.9608(3)
C26_3 C 0.8369(2) 0.2919(5) 0.9173(3)
H22_3 H 0.837135 0.354059 0.882793
C29_3 C 0.7358(2) 0.0220(5) 0.9558(3)
H26_3 H 0.718555 0.001981 0.908402
H27_3 H 0.706947 0.069265 0.973824
C30_3 C 0.7895(2) 0.2076(5) 0.9105(3)
H28_3 H 0.758832 0.213404 0.872136
Co4_2 Co 0.45179(2) 0.08149(5) 0.47844(3)
Co1_2 Co 0.54821(2) 0.08149(5) 0.02156(3)
N1_3 N 0.74902(15) 0.6054(3) 0.0076(2)
N2_3 N 0.61755(15) 0.2105(3) 0.02951(18)
C5_3 C 0.71247(19) 0.3855(4) 0.0392(3)
H5_3 H 0.826432 0.698385 0.039054
C11_3 C 0.6631(2) 0.2081(5) 0.0827(3)
H7_3 H 0.662865 0.145941 0.117207
C13_3 C 0.7185(2) 0.6948(4) 0.0433(3)
H9_3 H 0.743561 0.717348 0.087297
H10_3 H 0.684570 0.648228 0.050777
C16_3 C 0.7642(2) 0.4780(5) 0.0442(3)
H13_3 H 0.781445 0.498019 0.091598
H14_3 H 0.793053 0.430735 0.026176
C18_3 C 0.7105(2) 0.2924(5) 0.0895(3)
H16_3 H 0.741168 0.286596 0.127864
C25_3 C 0.70006(19) 0.8234(4) 0.0041(3)
H20_3 H 0.679886 0.882128 0.029230
O11 O 0.43834(13) 0.0088(3) 0.06422(15)
O13_2 O 0.51247(13) 0.1543(3) 0.09494(15)
C6_2 C 0.6659(2) 0.3877(5) 0.9842(3)
H3_2 H 0.665287 0.448237 0.948776
C7_3 C 0.79994(19) 0.6766(4) 0.9959(3)
H4_3 H 0.820114 0.617872 0.970770
C15_2 C 0.6197(2) 0.2995(4) 0.9812(2)
H12_2 H 0.588608 0.303032 0.943182
N3_3 N 0.75098(15) 0.8946(3) 0.9924(2)
H21_3 H 0.673568 0.801615 0.960946
C27_3 C 0.7815(2) 0.8052(4) 0.9567(3)
H23_3 H 0.756439 0.782652 0.912703
H24_3 H 0.815430 0.851772 0.949223
O6_3 O 0.41183(13) 0.0734(3) 0.91983(16)
O7_2 O 0.33521(14) 0.6294(4) 0.76080(19)
C31_3 C 0.41060(19) 0.3017(4) 0.8801(2)
C32_3 C 0.4399(2) 0.1839(4) 0.9222(2)
C33_3 C 0.3597(2) 0.2848(5) 0.8306(3)
H29_3 H 0.342149 0.199369 0.824007
C34_3 C 0.4349(2) 0.4302(4) 0.8910(2)
H30_3 H 0.468463 0.443202 0.925279
C35_2 C 0.3608(2) 0.5197(5) 0.8015(3)
C36_2 C 0.3706(2) 0.6931(5) 0.7240(2)
C37_2 C 0.4100(2) 0.5399(5) 0.8517(3)
H31_2 H 0.426568 0.626264 0.859378
C38_3 C 0.3344(2) 0.3941(5) 0.7906(3)
H32_3 H 0.300247 0.382459 0.757047
C39_2 C 0.3634(2) 0.8297(5) 0.7135(3)
H33_2 H 0.337928 0.878236 0.732904
C40_2 C 0.4093(2) 0.6212(5) 0.6970(3)
H34_2 H 0.413825 0.527715 0.704237
O8_3 O 0.49040(14) 0.2054(3) 0.95703(16)
C41_2 C 0.43368(18) 0.8255(4) 0.6459(2)
C42_2 C 0.4411(2) 0.6890(5) 0.6591(3)
H35_2 H 0.468334 0.641074 0.642207
C43_2 C 0.3946(2) 0.8954(5) 0.6735(2)
H36_2 H 0.388995 0.988345 0.665105
C44_2 C 0.46437(19) 0.8933(4) 0.5986(2)
O9_2 O 0.43834(13) 0.9912(3) 0.56422(15)
O10_2 O 0.51247(13) 0.8457(3) 0.59494(15)
O1_3 O 0.58817(13) 0.9266(3) 0.08017(16)
O2_2 O 0.66479(14) 0.3706(4) 0.23920(19)
C1_3 C 0.58940(19) 0.6983(4) 0.1199(2)
C2_3 C 0.5601(2) 0.8161(4) 0.0778(2)
C3_3 C 0.6403(2) 0.7152(5) 0.1694(3)
H1_3 H 0.657851 0.800631 0.175993
C4_3 C 0.5651(2) 0.5698(4) 0.1090(2)
H2_3 H 0.531537 0.556798 0.074721
C8_2 C 0.6392(2) 0.4803(5) 0.1985(3)
C9_2 C 0.6294(2) 0.3069(5) 0.2760(2)
C10_2 C 0.5900(2) 0.4601(5) 0.1483(3)
H6_2 H 0.573432 0.373736 0.140622
C12_3 C 0.6656(2) 0.6059(5) 0.2094(3)
H8_3 H 0.699753 0.617541 0.242953
C14_2 C 0.6366(2) 0.1703(5) 0.2865(3)
H11_2 H 0.662072 0.121764 0.267096
C17_2 C 0.5907(2) 0.3788(5) 0.3030(3)
H15_2 H 0.586175 0.472285 0.295763
O3_3 O 0.50960(14) 0.7946(3) 0.04297(16)
C19_2 C 0.56632(18) 0.1745(4) 0.3541(2)
C20_2 C 0.5589(2) 0.3110(5) 0.3409(3)
H17_2 H 0.531666 0.358926 0.357793
C21_2 C 0.6054(2) 0.1046(5) 0.3265(2)
H18_2 H 0.611005 0.011655 0.334895
C22_2 C 0.53563(19) 0.1067(4) 0.4014(2)
O4_2 O 0.56166(13) 0.0088(3) 0.43578(15)
O5_2 O 0.48753(13) 0.1543(3) 0.40506(15)
O12 O 0.56166(13) 0.9912(3) 0.93578(15)
O14_2 O 0.48753(13) 0.8457(3) 0.90506(15)
C23_4 C 0.21247(19) 0.1145(4) 0.5392(3)
C24_3 C 0.1659(2) 0.1123(5) 0.4842(3)
H19_3 H 0.165287 0.051763 0.448776
C26_4 C 0.1631(2) 0.2919(5) 0.5827(3)
H22_4 H 0.162865 0.354059 0.617207
C28_3 C 0.1197(2) 0.2005(4) 0.4812(2)
H25_3 H 0.088608 0.196968 0.443182
C29_4 C 0.2642(2) 0.0220(5) 0.5442(3)
H26_4 H 0.281445 0.001981 0.591598
H27_4 H 0.293053 0.069265 0.526176
C30_4 C 0.2105(2) 0.2076(5) 0.5895(3)
H28_4 H 0.241168 0.213404 0.627864
N1_4 N 0.25098(15) 0.6054(3) 0.4924(2)
N2_4 N 0.38245(15) 0.2105(3) 0.47049(18)
C5_4 C 0.28753(19) 0.3855(4) 0.4608(3)
C6_3 C 0.3341(2) 0.3877(5) 0.5158(3)
H3_3 H 0.334713 0.448237 0.551224
C7_4 C 0.20006(19) 0.6766(4) 0.5041(3)
H4_4 H 0.179886 0.617872 0.529230
H5_4 H 0.173568 0.698385 0.460946
C11_4 C 0.3369(2) 0.2081(5) 0.4173(3)
H7_4 H 0.337135 0.145941 0.382793
C13_4 C 0.2815(2) 0.6948(4) 0.4567(3)
H9_4 H 0.256439 0.717348 0.412703
H10_4 H 0.315430 0.648228 0.449223
C15_3 C 0.3803(2) 0.2995(4) 0.5188(2)
H12_3 H 0.411392 0.303032 0.556818
C16_4 C 0.2358(2) 0.4780(5) 0.4558(3)
H13_4 H 0.218555 0.498019 0.408402
H14_4 H 0.206947 0.430735 0.473824
C18_4 C 0.2895(2) 0.2924(5) 0.4105(3)
H16_4 H 0.258832 0.286596 0.372136
N3_4 N 0.24902(15) 0.8946(3) 0.5076(2)
C25_4 C 0.29994(19) 0.8234(4) 0.4959(3)
H20_4 H 0.320114 0.882128 0.470770
H21_4 H 0.326432 0.801615 0.539054
C27_4 C 0.2185(2) 0.8052(4) 0.5433(3)
H23_4 H 0.243561 0.782652 0.587297
H24_4 H 0.184570 0.851772 0.550777
O6_4 O 0.58817(13) 0.0734(3) 0.58017(16)
O7_3 O 0.66479(14) 0.6294(4) 0.73920(19)
C31_4 C 0.58940(19) 0.3017(4) 0.6199(2)
C32_4 C 0.5601(2) 0.1839(4) 0.5778(2)
C33_4 C 0.6403(2) 0.2848(5) 0.6694(3)
H29_4 H 0.657851 0.199369 0.675993
C34_4 C 0.5651(2) 0.4302(4) 0.6090(2)
H30_4 H 0.531537 0.443202 0.574721
C35_3 C 0.6392(2) 0.5197(5) 0.6985(3)
C36_3 C 0.6294(2) 0.6931(5) 0.7760(2)
C37_3 C 0.5900(2) 0.5399(5) 0.6483(3)
H31_3 H 0.573432 0.626264 0.640622
C38_4 C 0.6656(2) 0.3941(5) 0.7094(3)
H32_4 H 0.699753 0.382459 0.742953
C39_3 C 0.6366(2) 0.8297(5) 0.7865(3)
H33_3 H 0.662072 0.878236 0.767096
C40_3 C 0.5907(2) 0.6212(5) 0.8030(3)
H34_3 H 0.586175 0.527715 0.795763
O8_4 O 0.50960(14) 0.2054(3) 0.54297(16)
C41_3 C 0.56632(18) 0.8255(4) 0.8541(2)
C42_3 C 0.5589(2) 0.6890(5) 0.8409(3)
H35_3 H 0.531666 0.641074 0.857793
C43_3 C 0.6054(2) 0.8954(5) 0.8265(2)
H36_3 H 0.611005 0.988345 0.834895
C44_3 C 0.53563(19) 0.8933(4) 0.9014(2)
O1_4 O 0.41183(13) 0.9266(3) 0.41983(16)
O2_3 O 0.33521(14) 0.3706(4) 0.26080(19)
C1_4 C 0.41060(19) 0.6983(4) 0.3801(2)
C2_4 C 0.4399(2) 0.8161(4) 0.4222(2)
C3_4 C 0.3597(2) 0.7152(5) 0.3306(3)
H1_4 H 0.342149 0.800631 0.324007
C4_4 C 0.4349(2) 0.5698(4) 0.3910(2)
H2_4 H 0.468463 0.556798 0.425279
C8_3 C 0.3608(2) 0.4803(5) 0.3015(3)
C9_3 C 0.3706(2) 0.3069(5) 0.2240(2)
C10_3 C 0.4100(2) 0.4601(5) 0.3517(3)
H6_3 H 0.426568 0.373736 0.359378
C12_4 C 0.3344(2) 0.6059(5) 0.2906(3)
H8_4 H 0.300247 0.617541 0.257047
C14_3 C 0.3634(2) 0.1703(5) 0.2135(3)
H11_3 H 0.337928 0.121764 0.232904
C17_3 C 0.4093(2) 0.3788(5) 0.1970(3)
H15_3 H 0.413825 0.472285 0.204237
O3_4 O 0.49040(14) 0.7946(3) 0.45703(16)
C19_3 C 0.43368(18) 0.1745(4) 0.1459(2)
C20_3 C 0.4411(2) 0.3110(5) 0.1591(3)
H17_3 H 0.468334 0.358926 0.142207
C21_3 C 0.3946(2) 0.1046(5) 0.1735(2)
H18_3 H 0.388995 0.011655 0.165105
C22_3 C 0.46437(19) 0.1067(4) 0.0986(2)
C6_4 C 0.1659(2) 0.8877(5) 0.9842(3)
H3_4 H 0.165287 0.948237 0.948776
C15_4 C 0.1197(2) 0.7995(4) 0.9812(2)
H12_4 H 0.088608 0.803032 0.943182
O12_2 O 0.06166(13) 0.4912(3) 0.93578(15)
O7_4 O 0.16479(14) 0.1294(4) 0.73920(19)
C35_4 C 0.1392(2) 0.0197(5) 0.6985(3)
C36_4 C 0.1294(2) 0.1931(5) 0.7760(2)
C37_4 C 0.0900(2) 0.0399(5) 0.6483(3)
H31_4 H 0.073432 0.126264 0.640622
C39_4 C 0.1366(2) 0.3297(5) 0.7865(3)
H33_4 H 0.162072 0.378236 0.767096
C40_4 C 0.0907(2) 0.1212(5) 0.8030(3)
H34_4 H 0.086175 0.027715 0.795763
C41_4 C 0.06632(18) 0.3255(4) 0.8541(2)
C42_4 C 0.0589(2) 0.1890(5) 0.8409(3)
H35_4 H 0.031666 0.141074 0.857793
C43_4 C 0.1054(2) 0.3954(5) 0.8265(2)
H36_4 H 0.111005 0.488345 0.834895
C44_4 C 0.03563(19) 0.3933(4) 0.9014(2)
O11_2 O 0.93834(13) 0.5088(3) 0.06422(15)
O2_4 O 0.83521(14) 0.8706(4) 0.26080(19)
C8_4 C 0.8608(2) 0.9803(5) 0.3015(3)
C9_4 C 0.8706(2) 0.8069(5) 0.2240(2)
C10_4 C 0.9100(2) 0.9601(5) 0.3517(3)
H6_4 H 0.926568 0.873736 0.359378
C14_4 C 0.8634(2) 0.6703(5) 0.2135(3)
H11_4 H 0.837928 0.621764 0.232904
C17_4 C 0.9093(2) 0.8788(5) 0.1970(3)
H15_4 H 0.913825 0.972285 0.204237
C19_4 C 0.93368(18) 0.6745(4) 0.1459(2)
C20_4 C 0.9411(2) 0.8110(5) 0.1591(3)
H17_4 H 0.968334 0.858926 0.142207
C21_4 C 0.8946(2) 0.6046(5) 0.1735(2)
H18_4 H 0.888995 0.511655 0.165105
C22_4 C 0.96437(19) 0.6067(4) 0.0986(2)
C24_4 C 0.8341(2) 0.1123(5) 0.0158(3)
H19_4 H 0.834713 0.051763 0.051224
C28_4 C 0.8803(2) 0.2005(4) 0.0188(2)
H25_4 H 0.911392 0.196968 0.056818
loop_
_geom_bond_atom_site_label_1
_geom_bond_atom_site_label_2
_geom_bond_site_symmetry_1
_geom_bond_site_symmetry_2
C13 N1 1_555 1_555
H9 C13 1_555 1_555
H10 C13 1_555 1_555
C24 H19 1_555 1_555
C25 C13 1_555 1_555
H20 C25 1_555 1_555
H25 C28 1_555 1_555
C24 C28 1_555 1_555
C7 H4 1_555 1_555
N4 C26 1_555 1_555
C26 H22 1_555 1_555
C27 C7 1_555 1_555
H23 C27 1_555 1_555
H24 C27 1_555 1_555
C29 N3 1_555 1_555
H26 C29 1_555 1_555
H27 C29 1_555 1_555
C30 C23 1_555 1_555
H28 C30 1_555 1_555
Co6 O10 1_555 1_555
Co7 N4 1_555 1_555
N3 C27 1_555 1_555
C23 C29 1_555 1_555
C26 C30 1_555 1_555
Co1 O1 1_555 1_555
O1 C2 1_555 1_555
N2 Co1 1_555 1_555
C1 C2 1_555 1_555
C2 O3 1_555 1_555
C3 C1 1_555 1_555
H1 C3 1_555 1_555
C4 C1 1_555 1_555
H2 C4 1_555 1_555
C11 N2 1_555 1_555
H7 C11 1_555 1_555
C12 C3 1_555 1_555
H8 C12 1_555 1_555
H13 C16 1_555 1_555
H14 C16 1_555 1_555
C18 C5 1_555 1_555
H16 C18 1_555 1_555
O13 Co1 1_555 1_555
C5 C16 1_555 1_555
C11 C18 1_555 1_555
O2 C8 1_555 1_555
C8 C10 1_555 1_555
C9 O2 1_555 1_555
H6 C10 1_555 1_555
C14 C9 1_555 1_555
H11 C14 1_555 1_555
C17 C9 1_555 1_555
H15 C17 1_555 1_555
C19 C20 1_555 1_555
C20 C17 1_555 1_555
H17 C20 1_555 1_555
C21 C14 1_555 1_555
H18 C21 1_555 1_555
C22 C19 1_555 1_555
O4 C22 1_555 1_555
Co6 O4 1_555 1_555
C19 C21 1_555 1_555
O7 C35 1_555 1_555
C35 C37 1_555 1_555
C36 O7 1_555 1_555
H31 C37 1_555 1_555
C39 C36 1_555 1_555
H33 C39 1_555 1_555
C40 C36 1_555 1_555
H34 C40 1_555 1_555
C41 C42 1_555 1_555
C42 C40 1_555 1_555
H35 C42 1_555 1_555
C43 C39 1_555 1_555
H36 C43 1_555 1_555
C44 C41 1_555 1_555
O9 C44 1_555 1_555
Co4 O9 1_555 1_555
C41 C43 1_555 1_555
O6 Co2 1_555 1_555
C31 C32 1_555 1_555
C32 O6 1_555 1_555
C33 C31 1_555 1_555
H29 C33 1_555 1_555
C34 C31 1_555 1_555
H30 C34 1_555 1_555
C38 C33 1_555 1_555
H32 C38 1_555 1_555
N5 Co2 1_555 1_555
O14 Co2 1_555 1_555
C32 O8 1_555 1_555
Co4 O5 1_555 1_555
O6_2 Co6 1_555 1_555
C31_2 C32_2 1_555 1_555
C32_2 O6_2 1_555 1_555
C33_2 C31_2 1_555 1_555
H29_2 C33_2 1_555 1_555
C34_2 C31_2 1_555 1_555
H30_2 C34_2 1_555 1_555
C38_2 C33_2 1_555 1_555
H32_2 C38_2 1_555 1_555
N5_2 Co6 1_555 1_555
C32_2 O8_2 1_555 1_555
N1_2 C7_2 1_555 1_555
C7_2 H4_2 1_555 1_555
H5_2 C7_2 1_555 1_555
C13_2 N1_2 1_555 1_555
H9_2 C13_2 1_555 1_555
H10_2 C13_2 1_555 1_555
N3_2 C25_2 1_555 1_555
N4_2 C26_2 1_555 1_555
C23_2 C24_2 1_555 1_555
C24_2 H19_2 1_555 1_555
C25_2 C13_2 1_555 1_555
H20_2 C25_2 1_555 1_555
H21_2 C25_2 1_555 1_555
C26_2 H22_2 1_555 1_555
C27_2 C7_2 1_555 1_555
H23_2 C27_2 1_555 1_555
H24_2 C27_2 1_555 1_555
C28_2 N4_2 1_555 1_555
H25_2 C28_2 1_555 1_555
C29_2 N3_2 1_555 1_555
H26_2 C29_2 1_555 1_555
H27_2 C29_2 1_555 1_555
C30_2 C23_2 1_555 1_555
H28_2 C30_2 1_555 1_555
Co7_2 N4_2 1_555 1_555
N3_2 C27_2 1_555 1_555
C23_2 C29_2 1_555 1_555
C24_2 C28_2 1_555 1_555
C26_2 C30_2 1_555 1_555
Co4 O1_2 1_555 1_555
O1_2 C2_2 1_555 1_555
N2_2 Co4 1_555 1_555
C1_2 C2_2 1_555 1_555
C2_2 O3_2 1_555 1_555
C3_2 C1_2 1_555 1_555
H1_2 C3_2 1_555 1_555
C4_2 C1_2 1_555 1_555
H2_2 C4_2 1_555 1_555
C5_2 C6 1_555 1_555
C6 H3 1_555 1_555
C11_2 N2_2 1_555 1_555
H7_2 C11_2 1_555 1_555
C12_2 C3_2 1_555 1_555
H8_2 C12_2 1_555 1_555
C15 N2_2 1_555 1_555
H12 C15 1_555 1_555
H13_2 C16_2 1_555 1_555
H14_2 C16_2 1_555 1_555
C18_2 C5_2 1_555 1_555
H16_2 C18_2 1_555 1_555
C5_2 C16_2 1_555 1_555
C6 C15 1_555 1_555
C11_2 C18_2 1_555 1_555
N5 C26_3 1_555 1_555
C26_3 H22_3 1_555 1_555
H26_3 C29_3 1_555 1_555
H27_3 C29_3 1_555 1_555
C30_3 C23_3 1_555 1_555
H28_3 C30_3 1_555 1_555
C23_3 C29_3 1_555 1_555
C26_3 C30_3 1_555 1_555
N2_3 Co1_2 1_555 1_555
C11_3 N2_3 1_555 1_555
H7_3 C11_3 1_555 1_555
C13_3 N1_3 1_555 1_555
H9_3 C13_3 1_555 1_555
H10_3 C13_3 1_555 1_555
C16_3 N1_3 1_555 1_555
H13_3 C16_3 1_555 1_555
H14_3 C16_3 1_555 1_555
C18_3 C5_3 1_555 1_555
H16_3 C18_3 1_555 1_555
C25_3 C13_3 1_555 1_555
H20_3 C25_3 1_555 1_555
O13_2 Co1_2 1_555 1_555
C5_3 C16_3 1_555 1_555
C11_3 C18_3 1_555 1_555
C6_2 H3_2 1_555 1_555
C7_3 H4_3 1_555 1_555
H12_2 C15_2 1_555 1_555
C27_3 C7_3 1_555 1_555
H23_3 C27_3 1_555 1_555
H24_3 C27_3 1_555 1_555
O7_2 C35_2 1_555 1_555
C31_3 C32_3 1_555 1_555
C32_3 O6_3 1_555 1_555
C33_3 C31_3 1_555 1_555
H29_3 C33_3 1_555 1_555
C34_3 C31_3 1_555 1_555
H30_3 C34_3 1_555 1_555
C35_2 C37_2 1_555 1_555
C36_2 O7_2 1_555 1_555
C37_2 C34_3 1_555 1_555
H31_2 C37_2 1_555 1_555
C38_3 C33_3 1_555 1_555
H32_3 C38_3 1_555 1_555
C39_2 C36_2 1_555 1_555
H33_2 C39_2 1_555 1_555
C40_2 C36_2 1_555 1_555
H34_2 C40_2 1_555 1_555
C41_2 C42_2 1_555 1_555
C42_2 C40_2 1_555 1_555
H35_2 C42_2 1_555 1_555
C43_2 C39_2 1_555 1_555
H36_2 C43_2 1_555 1_555
C44_2 C41_2 1_555 1_555
O9_2 C44_2 1_555 1_555
O10_2 C44_2 1_555 1_555
Co7_2 O10_2 1_555 1_555
C6_2 C15_2 1_555 1_555
N3_3 C27_3 1_555 1_555
C32_3 O8_3 1_555 1_555
C35_2 C38_3 1_555 1_555
C41_2 C43_2 1_555 1_555
O1_3 C2_3 1_555 1_555
O2_2 C8_2 1_555 1_555
C1_3 C2_3 1_555 1_555
C2_3 O3_3 1_555 1_555
C3_3 C1_3 1_555 1_555
H1_3 C3_3 1_555 1_555
C4_3 C1_3 1_555 1_555
H2_3 C4_3 1_555 1_555
C8_2 C10_2 1_555 1_555
C9_2 O2_2 1_555 1_555
C10_2 C4_3 1_555 1_555
H6_2 C10_2 1_555 1_555
C12_3 C3_3 1_555 1_555
H8_3 C12_3 1_555 1_555
C14_2 C9_2 1_555 1_555
H11_2 C14_2 1_555 1_555
C17_2 C9_2 1_555 1_555
H15_2 C17_2 1_555 1_555
C19_2 C20_2 1_555 1_555
C20_2 C17_2 1_555 1_555
H17_2 C20_2 1_555 1_555
C21_2 C14_2 1_555 1_555
H18_2 C21_2 1_555 1_555
C22_2 C19_2 1_555 1_555
O4_2 C22_2 1_555 1_555
O5_2 C22_2 1_555 1_555
Co4_2 O5_2 1_555 1_555
C8_2 C12_3 1_555 1_555
C19_2 C21_2 1_555 1_555
O14_2 Co7 1_555 1_555
N5_2 C26_4 1_555 1_555
C23_4 C24_3 1_555 1_555
C24_3 H19_3 1_555 1_555
C26_4 H22_4 1_555 1_555
C28_3 N5_2 1_555 1_555
H25_3 C28_3 1_555 1_555
H26_4 C29_4 1_555 1_555
H27_4 C29_4 1_555 1_555
C30_4 C23_4 1_555 1_555
H28_4 C30_4 1_555 1_555
C23_4 C29_4 1_555 1_555
C24_3 C28_3 1_555 1_555
C26_4 C30_4 1_555 1_555
N1_4 C7_4 1_555 1_555
N2_4 Co4_2 1_555 1_555
C5_4 C6_3 1_555 1_555
C6_3 H3_3 1_555 1_555
C7_4 H4_4 1_555 1_555
H5_4 C7_4 1_555 1_555
C11_4 N2_4 1_555 1_555
H7_4 C11_4 1_555 1_555
C13_4 N1_4 1_555 1_555
H9_4 C13_4 1_555 1_555
H10_4 C13_4 1_555 1_555
C15_3 N2_4 1_555 1_555
H12_3 C15_3 1_555 1_555
C16_4 N1_4 1_555 1_555
H13_4 C16_4 1_555 1_555
H14_4 C16_4 1_555 1_555
C18_4 C5_4 1_555 1_555
H16_4 C18_4 1_555 1_555
N3_4 C25_4 1_555 1_555
C25_4 C13_4 1_555 1_555
H20_4 C25_4 1_555 1_555
H21_4 C25_4 1_555 1_555
C27_4 C7_4 1_555 1_555
H23_4 C27_4 1_555 1_555
H24_4 C27_4 1_555 1_555
O7_3 C35_3 1_555 1_555
C31_4 C32_4 1_555 1_555
C32_4 O6_4 1_555 1_555
C33_4 C31_4 1_555 1_555
H29_4 C33_4 1_555 1_555
C34_4 C31_4 1_555 1_555
H30_4 C34_4 1_555 1_555
C35_3 C37_3 1_555 1_555
C36_3 O7_3 1_555 1_555
C37_3 C34_4 1_555 1_555
H31_3 C37_3 1_555 1_555
C38_4 C33_4 1_555 1_555
H32_4 C38_4 1_555 1_555
C39_3 C36_3 1_555 1_555
H33_3 C39_3 1_555 1_555
C40_3 C36_3 1_555 1_555
H34_3 C40_3 1_555 1_555
O8_4 Co4_2 1_555 1_555
C41_3 C42_3 1_555 1_555
C42_3 C40_3 1_555 1_555
H35_3 C42_3 1_555 1_555
C43_3 C39_3 1_555 1_555
H36_3 C43_3 1_555 1_555
C44_3 C41_3 1_555 1_555
O12 C44_3 1_555 1_555
O14_2 C44_3 1_555 1_555
C5_4 C16_4 1_555 1_555
C6_3 C15_3 1_555 1_555
C11_4 C18_4 1_555 1_555
N3_4 C27_4 1_555 1_555
C32_4 O8_4 1_555 1_555
C35_3 C38_4 1_555 1_555
C41_3 C43_3 1_555 1_555
O1_4 C2_4 1_555 1_555
O2_3 C8_3 1_555 1_555
C1_4 C2_4 1_555 1_555
C2_4 O3_4 1_555 1_555
C3_4 C1_4 1_555 1_555
H1_4 C3_4 1_555 1_555
C4_4 C1_4 1_555 1_555
H2_4 C4_4 1_555 1_555
C8_3 C10_3 1_555 1_555
C9_3 O2_3 1_555 1_555
C10_3 C4_4 1_555 1_555
H6_3 C10_3 1_555 1_555
C12_4 C3_4 1_555 1_555
H8_4 C12_4 1_555 1_555
C14_3 C9_3 1_555 1_555
H11_3 C14_3 1_555 1_555
C17_3 C9_3 1_555 1_555
H15_3 C17_3 1_555 1_555
O3_4 Co7_2 1_555 1_555
C19_3 C20_3 1_555 1_555
C20_3 C17_3 1_555 1_555
H17_3 C20_3 1_555 1_555
C21_3 C14_3 1_555 1_555
H18_3 C21_3 1_555 1_555
C22_3 C19_3 1_555 1_555
O11 C22_3 1_555 1_555
O13_2 C22_3 1_555 1_555
C8_3 C12_4 1_555 1_555
C19_3 C21_3 1_555 1_555
C6_4 H3_4 1_555 1_555
H12_4 C15_4 1_555 1_555
C6_4 C15_4 1_555 1_555
O7_4 C35_4 1_555 1_555
C35_4 C37_4 1_555 1_555
C36_4 O7_4 1_555 1_555
H31_4 C37_4 1_555 1_555
C39_4 C36_4 1_555 1_555
H33_4 C39_4 1_555 1_555
C40_4 C36_4 1_555 1_555
H34_4 C40_4 1_555 1_555
C41_4 C42_4 1_555 1_555
C42_4 C40_4 1_555 1_555
H35_4 C42_4 1_555 1_555
C43_4 C39_4 1_555 1_555
H36_4 C43_4 1_555 1_555
C44_4 C41_4 1_555 1_555
O12_2 C44_4 1_555 1_555
C41_4 C43_4 1_555 1_555
O2_4 C8_4 1_555 1_555
C8_4 C10_4 1_555 1_555
C9_4 O2_4 1_555 1_555
H6_4 C10_4 1_555 1_555
C14_4 C9_4 1_555 1_555
H11_4 C14_4 1_555 1_555
C17_4 C9_4 1_555 1_555
H15_4 C17_4 1_555 1_555
C19_4 C20_4 1_555 1_555
C20_4 C17_4 1_555 1_555
H17_4 C20_4 1_555 1_555
C21_4 C14_4 1_555 1_555
H18_4 C21_4 1_555 1_555
C22_4 C19_4 1_555 1_555
O11_2 C22_4 1_555 1_555
C19_4 C21_4 1_555 1_555
C24_4 H19_4 1_555 1_555
H25_4 C28_4 1_555 1_555
C24_4 C28_4 1_555 1_555

#END
