
###############################################################################
#
# This file contains modified crystal structure data generated from the
# MOF subset of the Cambridge Structural Database (CSD) v543 
# hosted by the Cambridge Crystallographic Data Centre (CCDC).
#
# This work is licensed under the Creative Commons
# Attribution-NonCommercial-ShareAlike 4.0 International License.
# To view a copy of this license, visit
# http://creativecommons.org/licenses/by-nc-sa/4.0/
# or send a letter to
# Creative Commons, PO Box 1866, Mountain View, CA 94042, USA.
#
# CIF created using the CSD Python API on 29 September 2022
# The structure has been converted into the P1 space group
# The structure has a 3D framework
# The original CSD entry EGOZAB is in the rhombohedral crystal system
# The framework has been calculated to contain at least 10.0% void space
# The void calculation uses a probe of radius 1.32A, grid spacing 0.4
# The framework is charged, counterions have been retained in the structure
#
###############################################################################

data_EGOZAB
_chemical_formula_moiety         '(C108 H72 Cu9 I30 N18 O36 3+)n'
_symmetry_cell_setting           triclinic
_symmetry_space_group_name_H-M   'P 1'
_symmetry_Int_Tables_number      1
_space_group_name_Hall           'P 1'
loop_
_symmetry_equiv_pos_site_id
_symmetry_equiv_pos_as_xyz
1 x,y,z
_cell_length_a                   20.9335(8)
_cell_length_b                   20.9335(8)
_cell_length_c                   20.9335(8)
_cell_angle_alpha                115.808(1)
_cell_angle_beta                 115.808(1)
_cell_angle_gamma                115.808(1)
_cell_volume                     4734.37
loop_
_atom_site_label
_atom_site_type_symbol
_atom_site_fract_x
_atom_site_fract_y
_atom_site_fract_z
C28 C 0.0540(5) 0.2764(5) 0.0160(5)
H20 H 0.1020 0.2943 0.0756
Cu6 Cu 0.24776(5) 0.40462(5) 0.07625(5)
Cu8 Cu 0.07625(5) 0.24776(5) 0.40462(5)
C27 C 0.0262(5) 0.2954(5) 0.9107(4)
N8 N 0.0938(3) 0.3183(3) 0.9927(3)
H19 H 0.0532 0.3245 0.8937
C25 C 0.7699(4) 0.1512(4) 0.0830(5)
C26 C 0.7917(5) 0.0434(5) 0.0543(5)
H17 H 0.7829 0.2075 0.1282
C33 C 0.8153(4) 0.1286(4) 0.1239(4)
H18 H 0.8213 0.0260 0.0799
C35 C 0.8908(4) 0.1953(4) 0.2430(4)
O13 O 0.9415(3) 0.1798(3) 0.2756(3)
O14 O 0.8953(3) 0.2596(3) 0.2983(3)
Cu9 Cu 0.98729(5) 0.34879(5) 0.45225(5)
Cu11 Cu 0.65121(5) 0.54775(5) 0.01271(5)
Cu2 Cu 0.54775(5) 0.01271(5) 0.65121(5)
O3 O 0.7244(3) 0.0585(3) 0.8202(3)
O4 O 0.7017(3) 0.1047(3) 0.7404(3)
N2 N 0.6817(3) 0.0073(3) 0.9062(3)
C7 C 0.7046(5) 0.0893(4) 0.9738(5)
H5 H 0.6755 0.1063 0.9468
C8 C 0.9170(5) 0.2301(4) 0.8488(4)
H6 H 0.8718 0.2171 0.7925
C9 C 0.8761(4) 0.1847(4) 0.8714(4)
C10 C 0.9457(5) 0.2083(5) 0.9566(5)
H7 H 0.9201 0.1787 0.9740
C12 C 0.7570(4) 0.1092(4) 0.8047(4)
N7 N 0.5859(3) 0.1448(4) 0.7371(4)
C21 C 0.6924(4) 0.2505(4) 0.8323(4)
C22 C 0.5045(5) 0.1298(5) 0.7018(5)
H13 H 0.7509 0.2628 0.8589
C29 C 0.7178(4) 0.3414(4) 0.8917(4)
C30 C 0.5239(4) 0.2160(5) 0.7578(5)
H14 H 0.4303 0.0568 0.6356
H21 H 0.7923 0.4142 0.9568
C34 C 0.6320(4) 0.3233(4) 0.8538(4)
H22 H 0.4641 0.2016 0.7307
C36 C 0.6561(4) 0.4198(4) 0.9157(4)
O15 O 0.7403(3) 0.5107(3) 0.9659(3)
O16 O 0.5891(3) 0.4033(3) 0.9138(3)
Cu10 Cu 0.75224(5) 0.59538(5) 0.92375(5)
Cu1 Cu 0.59538(5) 0.92375(5) 0.75224(5)
O1 O 0.4936(3) 0.8814(3) 0.5373(3)
O2 O 0.5272(3) 0.8279(3) 0.6061(3)
O5 O 0.5107(3) 0.9659(3) 0.7403(3)
O6 O 0.4033(3) 0.9138(3) 0.5891(3)
N1 N 0.4757(3) 0.7810(3) 0.6881(3)
N3 N 0.1448(4) 0.7371(4) 0.5859(3)
C1 C 0.4176(4) 0.7735(4) 0.7018(4)
H1 H 0.4428 0.8385 0.7522
C2 C 0.3209(4) 0.6731(4) 0.6446(4)
H2 H 0.2797 0.6697 0.6536
C3 C 0.2867(4) 0.5779(4) 0.5735(4)
C4 C 0.3502(4) 0.5871(4) 0.5640(5)
H3 H 0.3306 0.5248 0.5193
C5 C 0.4433(4) 0.6890(4) 0.6207(4)
H4 H 0.4852 0.6942 0.6121
C6 C 0.4879(4) 0.8166(4) 0.5316(4)
C11 C 0.7236(5) 0.9840(5) 0.9460(5)
H8 H 0.7057 0.9244 0.8980
C13 C 0.2505(4) 0.8323(4) 0.6924(4)
H9 H 0.2628 0.8589 0.7509
C14 C 0.3414(4) 0.8917(4) 0.7178(4)
H10 H 0.4142 0.9568 0.7923
C15 C 0.3233(4) 0.8538(4) 0.6320(4)
C16 C 0.2160(5) 0.7578(5) 0.5239(4)
H11 H 0.2016 0.7307 0.4641
C17 C 0.1298(5) 0.7018(5) 0.5045(5)
H12 H 0.0568 0.6356 0.4303
C18 C 0.4198(4) 0.9157(4) 0.6561(4)
Cu3 Cu 0.01271(5) 0.65121(5) 0.54775(5)
C19 C 0.1834(4) 0.4684(4) 0.5121(4)
O7 O 0.1186(3) 0.4627(3) 0.5064(3)
O10 O 0.1721(3) 0.3939(3) 0.4728(3)
O11 O 0.0341(3) 0.2597(3) 0.4893(3)
O12 O 0.0862(3) 0.4109(3) 0.5967(3)
N5 N 0.2190(3) 0.3119(3) 0.5243(3)
C20 C 0.4265(4) 0.7133(4) 0.4221(4)
C23 C 0.3554(4) 0.6791(4) 0.3269(4)
C24 C 0.4360(5) 0.6498(4) 0.4129(4)
C31 C 0.2982(4) 0.5824(4) 0.2265(4)
H15 H 0.3464 0.7203 0.3303
H16 H 0.4807 0.6694 0.4752
C32 C 0.3793(4) 0.5567(4) 0.3110(4)
N9 N 0.3119(3) 0.5243(3) 0.2190(3)
H23 H 0.2478 0.5572 0.1615
H24 H 0.3879 0.5148 0.3058
N4 N 0.8552(4) 0.2629(4) 0.4141(3)
N6 N 0.9927(3) 0.0938(3) 0.3183(3)
C28_2 C 0.0160(5) 0.0540(5) 0.2764(5)
H20_2 H 0.0756 0.1020 0.2943
Cu8_2 Cu 0.40462(5) 0.07625(5) 0.24776(5)
C25_2 C 0.0830(5) 0.7699(4) 0.1512(4)
C26_2 C 0.0543(5) 0.7917(5) 0.0434(5)
H17_2 H 0.1282 0.7829 0.2075
C33_2 C 0.1239(4) 0.8153(4) 0.1286(4)
H18_2 H 0.0799 0.8213 0.0260
C35_2 C 0.2430(4) 0.8908(4) 0.1953(4)
O13_2 O 0.2756(3) 0.9415(3) 0.1798(3)
O14_2 O 0.2983(3) 0.8953(3) 0.2596(3)
Cu9_2 Cu 0.45225(5) 0.98729(5) 0.34879(5)
C27_2 C 0.9107(4) 0.0262(5) 0.2954(5)
H19_2 H 0.8937 0.0532 0.3245
O3_2 O 0.8202(3) 0.7244(3) 0.0585(3)
O4_2 O 0.7404(3) 0.7017(3) 0.1047(3)
N2_2 N 0.9062(3) 0.6817(3) 0.0073(3)
C7_2 C 0.9738(5) 0.7046(5) 0.0893(4)
H5_2 H 0.9468 0.6755 0.1063
C8_2 C 0.8488(4) 0.9170(5) 0.2301(4)
H6_2 H 0.7925 0.8718 0.2171
C9_2 C 0.8714(4) 0.8761(4) 0.1847(4)
C10_2 C 0.9566(5) 0.9457(5) 0.2083(5)
H7_2 H 0.9740 0.9201 0.1787
C12_2 C 0.8047(4) 0.7570(4) 0.1092(4)
N7_2 N 0.7371(4) 0.5859(3) 0.1448(4)
C21_2 C 0.8323(4) 0.6924(4) 0.2505(4)
C22_2 C 0.7018(5) 0.5045(5) 0.1298(5)
H13_2 H 0.8589 0.7509 0.2628
C29_2 C 0.8917(4) 0.7178(4) 0.3414(4)
C30_2 C 0.7578(5) 0.5239(4) 0.2160(5)
H14_2 H 0.6356 0.4303 0.0568
H21_2 H 0.9568 0.7923 0.4142
C34_2 C 0.8538(4) 0.6320(4) 0.3233(4)
H22_2 H 0.7307 0.4641 0.2016
C36_2 C 0.9157(4) 0.6561(4) 0.4198(4)
O15_2 O 0.9659(3) 0.7403(3) 0.5107(3)
O16_2 O 0.9138(3) 0.5891(3) 0.4033(3)
Cu10_2 Cu 0.92375(5) 0.75224(5) 0.59538(5)
O1_2 O 0.5373(3) 0.4936(3) 0.8814(3)
O2_2 O 0.6061(3) 0.5272(3) 0.8279(3)
N1_2 N 0.6881(3) 0.4757(3) 0.7810(3)
C1_2 C 0.7018(4) 0.4176(4) 0.7735(4)
H1_2 H 0.7522 0.4428 0.8385
C2_2 C 0.6446(4) 0.3209(4) 0.6731(4)
H2_2 H 0.6536 0.2797 0.6697
C3_2 C 0.5735(4) 0.2867(4) 0.5779(4)
C4_2 C 0.5640(5) 0.3502(4) 0.5871(4)
H3_2 H 0.5193 0.3306 0.5248
C5_2 C 0.6207(4) 0.4433(4) 0.6890(4)
H4_2 H 0.6121 0.4852 0.6942
C6_2 C 0.5316(4) 0.4879(4) 0.8166(4)
C11_2 C 0.9460(5) 0.7236(5) 0.9840(5)
H8_2 H 0.8980 0.7057 0.9244
C19_2 C 0.5121(4) 0.1834(4) 0.4684(4)
O7_2 O 0.5064(3) 0.1186(3) 0.4627(3)
O10_2 O 0.4728(3) 0.1721(3) 0.3939(3)
O11_2 O 0.4893(3) 0.0341(3) 0.2597(3)
O12_2 O 0.5967(3) 0.0862(3) 0.4109(3)
N5_2 N 0.5243(3) 0.2190(3) 0.3119(3)
C20_2 C 0.4221(4) 0.4265(4) 0.7133(4)
C23_2 C 0.3269(4) 0.3554(4) 0.6791(4)
C24_2 C 0.4129(4) 0.4360(5) 0.6498(4)
C31_2 C 0.2265(4) 0.2982(4) 0.5824(4)
H15_2 H 0.3303 0.3464 0.7203
H16_2 H 0.4752 0.4807 0.6694
C32_2 C 0.3110(4) 0.3793(4) 0.5567(4)
H23_2 H 0.1615 0.2478 0.5572
H24_2 H 0.3058 0.3879 0.5148
N4_2 N 0.4141(3) 0.8552(4) 0.2629(4)
N6_2 N 0.3183(3) 0.9927(3) 0.0938(3)
C28_3 C 0.2764(5) 0.0160(5) 0.0540(5)
H20_3 H 0.2943 0.0756 0.1020
C25_3 C 0.1512(4) 0.0830(5) 0.7699(4)
C26_3 C 0.0434(5) 0.0543(5) 0.7917(5)
H17_3 H 0.2075 0.1282 0.7829
C33_3 C 0.1286(4) 0.1239(4) 0.8153(4)
H18_3 H 0.0260 0.0799 0.8213
C35_3 C 0.1953(4) 0.2430(4) 0.8908(4)
O13_3 O 0.1798(3) 0.2756(3) 0.9415(3)
O14_3 O 0.2596(3) 0.2983(3) 0.8953(3)
Cu9_3 Cu 0.34879(5) 0.45225(5) 0.98729(5)
C27_3 C 0.2954(5) 0.9107(4) 0.0262(5)
H19_3 H 0.3245 0.8937 0.0532
O3_3 O 0.0585(3) 0.8202(3) 0.7244(3)
O4_3 O 0.1047(3) 0.7404(3) 0.7017(3)
N2_3 N 0.0073(3) 0.9062(3) 0.6817(3)
C7_3 C 0.0893(4) 0.9738(5) 0.7046(5)
H5_3 H 0.1063 0.9468 0.6755
C8_3 C 0.2301(4) 0.8488(4) 0.9170(5)
H6_3 H 0.2171 0.7925 0.8718
C9_3 C 0.1847(4) 0.8714(4) 0.8761(4)
C10_3 C 0.2083(5) 0.9566(5) 0.9457(5)
H7_3 H 0.1787 0.9740 0.9201
C12_3 C 0.1092(4) 0.8047(4) 0.7570(4)
O1_3 O 0.8814(3) 0.5373(3) 0.4936(3)
O2_3 O 0.8279(3) 0.6061(3) 0.5272(3)
N1_3 N 0.7810(3) 0.6881(3) 0.4757(3)
C1_3 C 0.7735(4) 0.7018(4) 0.4176(4)
H1_3 H 0.8385 0.7522 0.4428
C2_3 C 0.6731(4) 0.6446(4) 0.3209(4)
H2_3 H 0.6697 0.6536 0.2797
C3_3 C 0.5779(4) 0.5735(4) 0.2867(4)
C4_3 C 0.5871(4) 0.5640(5) 0.3502(4)
H3_3 H 0.5248 0.5193 0.3306
C5_3 C 0.6890(4) 0.6207(4) 0.4433(4)
H4_3 H 0.6942 0.6121 0.4852
C6_3 C 0.8166(4) 0.5316(4) 0.4879(4)
C11_3 C 0.9840(5) 0.9460(5) 0.7236(5)
H8_3 H 0.9244 0.8980 0.7057
C19_3 C 0.4684(4) 0.5121(4) 0.1834(4)
O7_3 O 0.4627(3) 0.5064(3) 0.1186(3)
O10_3 O 0.3939(3) 0.4728(3) 0.1721(3)
O11_3 O 0.2597(3) 0.4893(3) 0.0341(3)
O12_3 O 0.4109(3) 0.5967(3) 0.0862(3)
C20_3 C 0.7133(4) 0.4221(4) 0.4265(4)
C23_3 C 0.6791(4) 0.3269(4) 0.3554(4)
C24_3 C 0.6498(4) 0.4129(4) 0.4360(5)
C31_3 C 0.5824(4) 0.2265(4) 0.2982(4)
H15_3 H 0.7203 0.3303 0.3464
H16_3 H 0.6694 0.4752 0.4807
C32_3 C 0.5567(4) 0.3110(4) 0.3793(4)
H23_3 H 0.5572 0.1615 0.2478
H24_3 H 0.5148 0.3058 0.3879
N4_3 N 0.2629(4) 0.4141(3) 0.8552(4)
C13_2 C 0.7495(4) 0.1677(4) 0.3076(4)
H9_2 H 0.7372 0.1411 0.2491
C14_2 C 0.6586(4) 0.1083(4) 0.2822(4)
H10_2 H 0.5858 0.0432 0.2077
C15_2 C 0.6767(4) 0.1462(4) 0.3680(4)
C16_2 C 0.7840(5) 0.2422(5) 0.4761(4)
H11_2 H 0.7984 0.2693 0.5359
C17_2 C 0.8702(5) 0.2982(5) 0.4955(5)
H12_2 H 0.9432 0.3644 0.5697
C18_2 C 0.5802(4) 0.0843(4) 0.3439(4)
C21_3 C 0.3076(4) 0.7495(4) 0.1677(4)
C22_3 C 0.4955(5) 0.8702(5) 0.2982(5)
H13_3 H 0.2491 0.7372 0.1411
C29_3 C 0.2822(4) 0.6586(4) 0.1083(4)
C30_3 C 0.4761(4) 0.7840(5) 0.2422(5)
H14_3 H 0.5697 0.9432 0.3644
H21_3 H 0.2077 0.5858 0.0432
C34_3 C 0.3680(4) 0.6767(4) 0.1462(4)
H22_3 H 0.5359 0.7984 0.2693
C36_3 C 0.3439(4) 0.5802(4) 0.0843(4)
C21_4 C 0.1677(4) 0.3076(4) 0.7495(4)
C22_4 C 0.2982(5) 0.4955(5) 0.8702(5)
H13_4 H 0.1411 0.2491 0.7372
C29_4 C 0.1083(4) 0.2822(4) 0.6586(4)
C30_4 C 0.2422(5) 0.4761(4) 0.7840(5)
H14_4 H 0.3644 0.5697 0.9432
H21_4 H 0.0432 0.2077 0.5858
C34_4 C 0.1462(4) 0.3680(4) 0.6767(4)
H22_4 H 0.2693 0.5359 0.7984
C36_4 C 0.0843(4) 0.3439(4) 0.5802(4)
I1 I 0.99339(4) 0.34355(4) 0.74065(4)
I2 I 0.86745(4) 0.12594(4) 0.61518(4)
I3 I 0.72521(4) 0.87791(4) 0.47704(4)
I4 I 0.75496(4) 0.89818(4) 0.64662(4)
I5 I 0.78819(7) 0.90855(6) 0.79679(6)
I1_2 I 0.74065(4) 0.99339(4) 0.34355(4)
I2_2 I 0.61518(4) 0.86745(4) 0.12594(4)
I3_2 I 0.47704(4) 0.72521(4) 0.87791(4)
I4_2 I 0.64662(4) 0.75496(4) 0.89818(4)
I5_2 I 0.79679(6) 0.78819(7) 0.90855(6)
I1_3 I 0.34355(4) 0.74065(4) 0.99339(4)
I2_3 I 0.12594(4) 0.61518(4) 0.86745(4)
I3_3 I 0.87791(4) 0.47704(4) 0.72521(4)
I4_3 I 0.89818(4) 0.64662(4) 0.75496(4)
I5_3 I 0.90855(6) 0.79679(6) 0.78819(7)
I3_4 I 0.27479(4) 0.12209(4) 0.52296(4)
I4_4 I 0.24504(4) 0.10182(4) 0.35338(4)
I5_4 I 0.21181(7) 0.09145(6) 0.20321(6)
I1_4 I 0.00661(4) 0.65645(4) 0.25935(4)
I2_4 I 0.13255(4) 0.87406(4) 0.38482(4)
I3_5 I 0.52296(4) 0.27479(4) 0.12209(4)
I4_5 I 0.35338(4) 0.24504(4) 0.10182(4)
I5_5 I 0.20321(6) 0.21181(7) 0.09145(6)
I1_5 I 0.25935(4) 0.00661(4) 0.65645(4)
I2_5 I 0.38482(4) 0.13255(4) 0.87406(4)
I3_6 I 0.12209(4) 0.52296(4) 0.27479(4)
I4_6 I 0.10182(4) 0.35338(4) 0.24504(4)
I5_6 I 0.09145(6) 0.20321(6) 0.21181(7)
I1_6 I 0.65645(4) 0.25935(4) 0.00661(4)
I2_6 I 0.87406(4) 0.38482(4) 0.13255(4)
loop_
_geom_bond_atom_site_label_1
_geom_bond_atom_site_label_2
_geom_bond_site_symmetry_1
_geom_bond_site_symmetry_2
H20 C28 1_555 1_555
N8 C27 1_555 1_555
H19 C27 1_555 1_555
H17 C25 1_555 1_555
C33 C25 1_555 1_555
H18 C26 1_555 1_555
C35 C33 1_555 1_555
O13 C35 1_555 1_555
O14 C35 1_555 1_555
Cu9 O14 1_555 1_555
C26 C33 1_555 1_555
O4 Cu2 1_555 1_555
C7 N2 1_555 1_555
H5 C7 1_555 1_555
C8 H6 1_555 1_555
C9 C8 1_555 1_555
C10 C9 1_555 1_555
H7 C10 1_555 1_555
C12 O3 1_555 1_555
N7 Cu2 1_555 1_555
C21 N7 1_555 1_555
C22 N7 1_555 1_555
H13 C21 1_555 1_555
C29 C21 1_555 1_555
C30 C22 1_555 1_555
H14 C22 1_555 1_555
H21 C29 1_555 1_555
C34 C29 1_555 1_555
H22 C30 1_555 1_555
C36 C34 1_555 1_555
O15 C36 1_555 1_555
O16 C36 1_555 1_555
Cu10 O15 1_555 1_555
O4 C12 1_555 1_555
C9 C12 1_555 1_555
C30 C34 1_555 1_555
Cu1 O2 1_555 1_555
O1 C6 1_555 1_555
O2 C6 1_555 1_555
O5 Cu1 1_555 1_555
N1 Cu1 1_555 1_555
N3 C13 1_555 1_555
C1 N1 1_555 1_555
H1 C1 1_555 1_555
C2 C1 1_555 1_555
H2 C2 1_555 1_555
C3 C2 1_555 1_555
C4 C3 1_555 1_555
H3 C4 1_555 1_555
C5 N1 1_555 1_555
H4 C5 1_555 1_555
C6 C20 1_555 1_555
H8 C11 1_555 1_555
C13 H9 1_555 1_555
C14 C13 1_555 1_555
H10 C14 1_555 1_555
C15 C14 1_555 1_555
C16 C15 1_555 1_555
H11 C16 1_555 1_555
C17 N3 1_555 1_555
H12 C17 1_555 1_555
C18 O5 1_555 1_555
Cu3 N3 1_555 1_555
C19 C3 1_555 1_555
O7 C19 1_555 1_555
Cu8 O10 1_555 1_555
O10 C19 1_555 1_555
O11 Cu8 1_555 1_555
N5 Cu8 1_555 1_555
C20 C23 1_555 1_555
C23 C31 1_555 1_555
C24 C20 1_555 1_555
C31 N9 1_555 1_555
H15 C23 1_555 1_555
H16 C24 1_555 1_555
C32 C24 1_555 1_555
N9 C32 1_555 1_555
H23 C31 1_555 1_555
H24 C32 1_555 1_555
Cu6 N9 1_555 1_555
O6 C18 1_555 1_555
C4 C5 1_555 1_555
C15 C18 1_555 1_555
C16 C17 1_555 1_555
N4 Cu9 1_555 1_555
H20_2 C28_2 1_555 1_555
H17_2 C25_2 1_555 1_555
C33_2 C25_2 1_555 1_555
H18_2 C26_2 1_555 1_555
C35_2 C33_2 1_555 1_555
O13_2 C35_2 1_555 1_555
O14_2 C35_2 1_555 1_555
Cu9_2 O14_2 1_555 1_555
C26_2 C33_2 1_555 1_555
N6 C27_2 1_555 1_555
H19_2 C27_2 1_555 1_555
O4_2 Cu11 1_555 1_555
C7_2 N2_2 1_555 1_555
H5_2 C7_2 1_555 1_555
C8_2 H6_2 1_555 1_555
C9_2 C8_2 1_555 1_555
C10_2 C9_2 1_555 1_555
H7_2 C10_2 1_555 1_555
C12_2 O3_2 1_555 1_555
N7_2 Cu11 1_555 1_555
C21_2 N7_2 1_555 1_555
C22_2 N7_2 1_555 1_555
H13_2 C21_2 1_555 1_555
C29_2 C21_2 1_555 1_555
C30_2 C22_2 1_555 1_555
H14_2 C22_2 1_555 1_555
H21_2 C29_2 1_555 1_555
C34_2 C29_2 1_555 1_555
H22_2 C30_2 1_555 1_555
C36_2 C34_2 1_555 1_555
O15_2 C36_2 1_555 1_555
O16_2 C36_2 1_555 1_555
Cu10_2 O15_2 1_555 1_555
O4_2 C12_2 1_555 1_555
C9_2 C12_2 1_555 1_555
C30_2 C34_2 1_555 1_555
Cu10 O2_2 1_555 1_555
O1_2 C6_2 1_555 1_555
O2_2 C6_2 1_555 1_555
N1_2 Cu10 1_555 1_555
C1_2 N1_2 1_555 1_555
H1_2 C1_2 1_555 1_555
C2_2 C1_2 1_555 1_555
H2_2 C2_2 1_555 1_555
C3_2 C2_2 1_555 1_555
C4_2 C3_2 1_555 1_555
H3_2 C4_2 1_555 1_555
C5_2 N1_2 1_555 1_555
H4_2 C5_2 1_555 1_555
C6_2 C20_2 1_555 1_555
H8_2 C11_2 1_555 1_555
C19_2 C3_2 1_555 1_555
O7_2 C19_2 1_555 1_555
Cu8_2 O10_2 1_555 1_555
O10_2 C19_2 1_555 1_555
O11_2 Cu8_2 1_555 1_555
N5_2 Cu8_2 1_555 1_555
C20_2 C23_2 1_555 1_555
C23_2 C31_2 1_555 1_555
C24_2 C20_2 1_555 1_555
C31_2 N5 1_555 1_555
H15_2 C23_2 1_555 1_555
H16_2 C24_2 1_555 1_555
C32_2 C24_2 1_555 1_555
N5 C32_2 1_555 1_555
H23_2 C31_2 1_555 1_555
H24_2 C32_2 1_555 1_555
C4_2 C5_2 1_555 1_555
N4_2 Cu9_2 1_555 1_555
H20_3 C28_3 1_555 1_555
H17_3 C25_3 1_555 1_555
C33_3 C25_3 1_555 1_555
H18_3 C26_3 1_555 1_555
C35_3 C33_3 1_555 1_555
O13_3 C35_3 1_555 1_555
O14_3 C35_3 1_555 1_555
Cu9_3 O14_3 1_555 1_555
C26_3 C33_3 1_555 1_555
N6_2 C27_3 1_555 1_555
H19_3 C27_3 1_555 1_555
O4_3 Cu3 1_555 1_555
C7_3 N2_3 1_555 1_555
H5_3 C7_3 1_555 1_555
C8_3 H6_3 1_555 1_555
C9_3 C8_3 1_555 1_555
C10_3 C9_3 1_555 1_555
H7_3 C10_3 1_555 1_555
C12_3 O3_3 1_555 1_555
O4_3 C12_3 1_555 1_555
C9_3 C12_3 1_555 1_555
Cu10_2 O2_3 1_555 1_555
O1_3 C6_3 1_555 1_555
O2_3 C6_3 1_555 1_555
N1_3 Cu10_2 1_555 1_555
C1_3 N1_3 1_555 1_555
H1_3 C1_3 1_555 1_555
C2_3 C1_3 1_555 1_555
H2_3 C2_3 1_555 1_555
C3_3 C2_3 1_555 1_555
C4_3 C3_3 1_555 1_555
H3_3 C4_3 1_555 1_555
C5_3 N1_3 1_555 1_555
H4_3 C5_3 1_555 1_555
C6_3 C20_3 1_555 1_555
H8_3 C11_3 1_555 1_555
C19_3 C3_3 1_555 1_555
O7_3 C19_3 1_555 1_555
Cu6 O10_3 1_555 1_555
O10_3 C19_3 1_555 1_555
O11_3 Cu6 1_555 1_555
C20_3 C23_3 1_555 1_555
C23_3 C31_3 1_555 1_555
C24_3 C20_3 1_555 1_555
C31_3 N5_2 1_555 1_555
H15_3 C23_3 1_555 1_555
H16_3 C24_3 1_555 1_555
C32_3 C24_3 1_555 1_555
N5_2 C32_3 1_555 1_555
H23_3 C31_3 1_555 1_555
H24_3 C32_3 1_555 1_555
C4_3 C5_3 1_555 1_555
N4_3 Cu9_3 1_555 1_555
N4 C13_2 1_555 1_555
C13_2 H9_2 1_555 1_555
C14_2 C13_2 1_555 1_555
H10_2 C14_2 1_555 1_555
C15_2 C14_2 1_555 1_555
C16_2 C15_2 1_555 1_555
H11_2 C16_2 1_555 1_555
C17_2 N4 1_555 1_555
H12_2 C17_2 1_555 1_555
C18_2 O11_2 1_555 1_555
O12_2 C18_2 1_555 1_555
C15_2 C18_2 1_555 1_555
C16_2 C17_2 1_555 1_555
C21_3 N4_2 1_555 1_555
C22_3 N4_2 1_555 1_555
H13_3 C21_3 1_555 1_555
C29_3 C21_3 1_555 1_555
C30_3 C22_3 1_555 1_555
H14_3 C22_3 1_555 1_555
H21_3 C29_3 1_555 1_555
C34_3 C29_3 1_555 1_555
H22_3 C30_3 1_555 1_555
C36_3 C34_3 1_555 1_555
O11_3 C36_3 1_555 1_555
O12_3 C36_3 1_555 1_555
C30_3 C34_3 1_555 1_555
C21_4 N4_3 1_555 1_555
C22_4 N4_3 1_555 1_555
H13_4 C21_4 1_555 1_555
C29_4 C21_4 1_555 1_555
C30_4 C22_4 1_555 1_555
H14_4 C22_4 1_555 1_555
H21_4 C29_4 1_555 1_555
C34_4 C29_4 1_555 1_555
H22_4 C30_4 1_555 1_555
C36_4 C34_4 1_555 1_555
O11 C36_4 1_555 1_555
O12 C36_4 1_555 1_555
C30_4 C34_4 1_555 1_555
I1 I2 1_555 1_555
I3 I4 1_555 1_555
I4 I5 1_555 1_555
I1_2 I2_2 1_555 1_555
I3_2 I4_2 1_555 1_555
I4_2 I5_2 1_555 1_555
I1_3 I2_3 1_555 1_555
I3_3 I4_3 1_555 1_555
I4_3 I5_3 1_555 1_555
I3_4 I4_4 1_555 1_555
I4_4 I5_4 1_555 1_555
I1_4 I2_4 1_555 1_555
I3_5 I4_5 1_555 1_555
I4_5 I5_5 1_555 1_555
I1_5 I2_5 1_555 1_555
I3_6 I4_6 1_555 1_555
I4_6 I5_6 1_555 1_555
I1_6 I2_6 1_555 1_555

#END
