
###############################################################################
#
# This file contains modified crystal structure data generated from the
# MOF subset of the Cambridge Structural Database (CSD) v543 
# hosted by the Cambridge Crystallographic Data Centre (CCDC).
#
# This work is licensed under the Creative Commons
# Attribution-NonCommercial-ShareAlike 4.0 International License.
# To view a copy of this license, visit
# http://creativecommons.org/licenses/by-nc-sa/4.0/
# or send a letter to
# Creative Commons, PO Box 1866, Mountain View, CA 94042, USA.
#
# CIF created using the CSD Python API on 29 September 2022
# The structure has been converted into the P1 space group
# The structure has a 3D framework
# The original CSD entry EHABUN is in the hexagonal crystal system
# The framework has been calculated to contain at least 10.0% void space
# The void calculation uses a probe of radius 1.32A, grid spacing 0.4
# The framework is charged, counterions have been retained in the structure
#
###############################################################################

data_EHABUN
_chemical_formula_moiety         '(C54 H30 Co6 K3 N21 O27 2-)n'
_symmetry_cell_setting           triclinic
_symmetry_space_group_name_H-M   'P 1'
_symmetry_Int_Tables_number      1
_space_group_name_Hall           'P 1'
loop_
_symmetry_equiv_pos_site_id
_symmetry_equiv_pos_as_xyz
1 x,y,z
_cell_length_a                   19.670(5)
_cell_length_b                   19.670(5)
_cell_length_c                   10.205(5)
_cell_angle_alpha                90
_cell_angle_beta                 90
_cell_angle_gamma                120
_cell_volume                     3419.42
loop_
_atom_site_label
_atom_site_type_symbol
_atom_site_fract_x
_atom_site_fract_y
_atom_site_fract_z
K5 K 0.666667 0.333333 0.0128(5)
C3 C 0.5867(5) 0.0067(4) 0.6406(10)
H2 H 0.605522 0.034412 0.562675
C4 C 0.6077(6) 0.0462(8) 0.750000
C5 C 0.6557(7) 0.1328(10) 0.750000
N1 N 0.6831(5) 0.2516(7) 0.750000
N2 N 0.7475(5) 0.2528(7) 0.750000
N3 N 0.7328(6) 0.1775(8) 0.750000
N4 N 0.6226(5) 0.1770(5) 0.750000
C8 C 0.5867(5) 0.0067(4) 0.8594(10)
H5 H 0.605522 0.034412 0.937325
Co8 Co 0.50964(9) 0.15191(8) 0.750000
Co10 Co 0.84809(8) 0.35773(12) 0.750000
K7 K 0.666667 0.333333 0.4872(5)
C9 C 0.5106(5) 0.8810(5) 0.0024(13)
O4 O 0.5458(3) 0.9182(4) 0.1011(9)
C18 C 0.1190(5) 0.6296(7) 0.0024(13)
O9 O 0.0818(4) 0.6276(5) 0.1011(9)
C27 C 0.3704(7) 0.4894(5) 0.0024(13)
O14 O 0.3724(5) 0.4542(3) 0.1011(9)
Co4 Co 0.49036(9) 0.84809(8) 0.250000
Co5 Co 0.15191(8) 0.64227(12) 0.250000
Co6 Co 0.35773(12) 0.50964(9) 0.250000
C1 C 0.5357(4) 0.9221(5) 0.6325(12)
C2 C 0.5112(8) 0.8810(7) 0.750000
H1 H 0.478891 0.826713 0.750001
C6 C 0.5106(5) 0.8810(5) 0.4976(13)
K1 K 0.333333 0.666667 0.5128(5)
O1 O 0.5458(3) 0.9182(4) 0.3989(9)
O2 O 0.4568(4) 0.8104(3) 0.5024(9)
O3 O 0.2476(15) 0.5650(16) 0.750000
H3 H 0.192854 0.551226 0.750001
H4 H 0.250370 0.517101 0.749998
C7 C 0.5357(4) 0.9221(5) 0.8675(12)
O5 O 0.4568(4) 0.8104(3) 0.9976(9)
C10 C 0.0779(5) 0.6136(6) 0.6325(12)
C11 C 0.1190(7) 0.6302(11) 0.750000
H6 H 0.173287 0.652178 0.750001
C15 C 0.1190(5) 0.6296(7) 0.4976(13)
O6 O 0.0818(4) 0.6276(5) 0.3989(9)
O7 O 0.1896(3) 0.6464(5) 0.5024(9)
O8 O 0.4350(16) 0.6826(22) 0.750000
H8 H 0.448774 0.641628 0.750001
H9 H 0.482899 0.733269 0.749998
C16 C 0.0779(5) 0.6136(6) 0.8675(12)
O10 O 0.1896(3) 0.6464(5) 0.9976(9)
C19 C 0.3864(6) 0.4643(4) 0.6325(12)
C20 C 0.3698(11) 0.4888(8) 0.750000
H11 H 0.347822 0.521109 0.750001
C21 C 0.4200(6) 0.4133(5) 0.6406(10)
H12 H 0.428890 0.394478 0.562675
C22 C 0.4385(10) 0.3923(6) 0.750000
C23 C 0.4771(12) 0.3443(7) 0.750000
C24 C 0.3704(7) 0.4894(5) 0.4976(13)
N9 N 0.5685(9) 0.3169(5) 0.750000
N10 N 0.5053(9) 0.2525(5) 0.750000
N11 N 0.4447(10) 0.2672(6) 0.750000
N12 N 0.5544(7) 0.3774(5) 0.750000
O11 O 0.3724(5) 0.4542(3) 0.3989(9)
O12 O 0.3536(5) 0.5432(4) 0.5024(9)
O13 O 0.3174(22) 0.7524(15) 0.750000
H13 H 0.358372 0.807146 0.750001
H14 H 0.266731 0.749630 0.749998
C25 C 0.3864(6) 0.4643(4) 0.8675(12)
C26 C 0.4200(6) 0.4133(5) 0.8594(10)
H15 H 0.428890 0.394478 0.937325
O15 O 0.3536(5) 0.5432(4) 0.9976(9)
Co12 Co 0.64227(12) 0.49036(9) 0.750000
K8 K 0.333333 0.666667 0.9872(5)
N14 N 0.7484(7) 0.4315(9) 0.750000
N15 N 0.3169(5) 0.7484(7) 0.250000
N16 N 0.2516(7) 0.5685(9) 0.250000
N17 N 0.4315(9) 0.6831(5) 0.250000
N18 N 0.2525(5) 0.7472(7) 0.250000
N19 N 0.2528(7) 0.5053(9) 0.250000
N20 N 0.4947(9) 0.7475(5) 0.250000
N21 N 0.3774(5) 0.8230(5) 0.250000
N22 N 0.1770(5) 0.5544(7) 0.250000
N23 N 0.4456(7) 0.6226(5) 0.250000
O19 O 0.5432(4) 0.1896(3) 0.4976(9)
O20 O 0.8104(3) 0.3536(5) 0.4976(9)
O21 O 0.6464(5) 0.4568(4) 0.4976(9)
O22 O 0.7524(15) 0.4350(16) 0.250000
O23 O 0.5650(16) 0.3174(22) 0.250000
O24 O 0.6826(22) 0.2476(15) 0.250000
C12 C 0.9933(4) 0.5800(6) 0.6406(10)
H7 H 0.965588 0.571110 0.562675
C13 C 0.9538(8) 0.5615(10) 0.750000
C14 C 0.8672(10) 0.5229(12) 0.750000
N6 N 0.7472(7) 0.4947(9) 0.750000
N7 N 0.8225(8) 0.5553(10) 0.750000
N8 N 0.8230(5) 0.4456(7) 0.750000
C17 C 0.9933(4) 0.5800(6) 0.8594(10)
H10 H 0.965588 0.571110 0.937325
C12_2 C 0.0067(4) 0.4200(6) 0.1406(10)
H7_2 H 0.034412 0.428890 0.062675
C13_2 C 0.0462(8) 0.4385(10) 0.250000
C14_2 C 0.1328(10) 0.4771(12) 0.250000
N7_2 N 0.1775(8) 0.4447(10) 0.250000
C17_2 C 0.0067(4) 0.4200(6) 0.3594(10)
H10_2 H 0.034412 0.428890 0.437325
C1_2 C 0.4643(4) 0.0779(5) 0.1325(12)
C2_2 C 0.4888(8) 0.1190(7) 0.250000
H1_2 H 0.521109 0.173287 0.250001
O2_2 O 0.5432(4) 0.1896(3) 0.0024(9)
H3_2 H 0.807146 0.448774 0.250001
H4_2 H 0.749630 0.482899 0.249998
C7_2 C 0.4643(4) 0.0779(5) 0.3675(12)
C9_2 C 0.4894(5) 0.1190(5) 0.5024(13)
O4_2 O 0.4542(3) 0.0818(4) 0.6011(9)
C10_2 C 0.9221(5) 0.3864(6) 0.1325(12)
C11_2 C 0.8810(7) 0.3698(11) 0.250000
H6_2 H 0.826713 0.347822 0.250001
O7_2 O 0.8104(3) 0.3536(5) 0.0024(9)
H8_2 H 0.551226 0.358372 0.250001
H9_2 H 0.517101 0.266731 0.249998
C16_2 C 0.9221(5) 0.3864(6) 0.3675(12)
C18_2 C 0.8810(5) 0.3704(7) 0.5024(13)
O9_2 O 0.9182(4) 0.3724(5) 0.6011(9)
C19_2 C 0.6136(6) 0.5357(4) 0.1325(12)
C20_2 C 0.6302(11) 0.5112(8) 0.250000
H11_2 H 0.652178 0.478891 0.250001
C21_2 C 0.5800(6) 0.5867(5) 0.1406(10)
H12_2 H 0.571110 0.605522 0.062675
C22_2 C 0.5615(10) 0.6077(6) 0.250000
C23_2 C 0.5229(12) 0.6557(7) 0.250000
N11_2 N 0.5553(10) 0.7328(6) 0.250000
O12_2 O 0.6464(5) 0.4568(4) 0.0024(9)
H13_2 H 0.641628 0.192854 0.250001
H14_2 H 0.733269 0.250370 0.249998
C25_2 C 0.6136(6) 0.5357(4) 0.3675(12)
C26_2 C 0.5800(6) 0.5867(5) 0.3594(10)
H15_2 H 0.571110 0.605522 0.437325
C27_2 C 0.6296(7) 0.5106(5) 0.5024(13)
O14_2 O 0.6276(5) 0.5458(3) 0.6011(9)
C6_2 C 0.4894(5) 0.1190(5) 0.9976(13)
O1_2 O 0.4542(3) 0.0818(4) 0.8989(9)
C15_2 C 0.8810(5) 0.3704(7) 0.9976(13)
O6_2 O 0.9182(4) 0.3724(5) 0.8989(9)
C24_2 C 0.6296(7) 0.5106(5) 0.9976(13)
O11_2 O 0.6276(5) 0.5458(3) 0.8989(9)
C3_2 C 0.4133(5) 0.9933(4) 0.1406(10)
H2_2 H 0.394478 0.965588 0.062675
C4_2 C 0.3923(6) 0.9538(8) 0.250000
C5_2 C 0.3443(7) 0.8672(10) 0.250000
N3_2 N 0.2672(6) 0.8225(8) 0.250000
C8_2 C 0.4133(5) 0.9933(4) 0.3594(10)
H5_2 H 0.394478 0.965588 0.437325
loop_
_geom_bond_atom_site_label_1
_geom_bond_atom_site_label_2
_geom_bond_site_symmetry_1
_geom_bond_site_symmetry_2
H2 C3 1_555 1_555
C4 C3 1_555 1_555
C5 C4 1_555 1_555
N1 N2 1_555 1_555
N2 N3 1_555 1_555
N3 C5 1_555 1_555
N4 C5 1_555 1_555
C8 C4 1_555 1_555
H5 C8 1_555 1_555
Co8 N4 1_555 1_555
Co10 N2 1_555 1_555
K7 N1 1_555 1_555
N1 N4 1_555 1_555
O4 C9 1_555 1_555
O9 C18 1_555 1_555
O14 C27 1_555 1_555
Co4 O4 1_555 1_555
Co5 O9 1_555 1_555
Co6 O14 1_555 1_555
C1 C2 1_555 1_555
C2 H1 1_555 1_555
C6 C1 1_555 1_555
Co4 O1 1_555 1_555
K1 O2 1_555 1_555
O1 C6 1_555 1_555
O2 C6 1_555 1_555
O3 K1 1_555 1_555
H3 O3 1_555 1_555
H4 O3 1_555 1_555
C7 C2 1_555 1_555
C10 C11 1_555 1_555
C11 H6 1_555 1_555
C15 C10 1_555 1_555
Co5 O6 1_555 1_555
O6 C15 1_555 1_555
O7 K1 1_555 1_555
O8 K1 1_555 1_555
H8 O8 1_555 1_555
H9 O8 1_555 1_555
C16 C11 1_555 1_555
C19 C20 1_555 1_555
C20 H11 1_555 1_555
C21 C19 1_555 1_555
H12 C21 1_555 1_555
C22 C21 1_555 1_555
C23 C22 1_555 1_555
C24 C19 1_555 1_555
Co6 O11 1_555 1_555
N9 N10 1_555 1_555
N10 N11 1_555 1_555
N11 C23 1_555 1_555
N12 C23 1_555 1_555
O11 C24 1_555 1_555
O12 K1 1_555 1_555
O13 K1 1_555 1_555
H13 O13 1_555 1_555
H14 O13 1_555 1_555
C25 C20 1_555 1_555
C26 C22 1_555 1_555
H15 C26 1_555 1_555
K7 N9 1_555 1_555
Co8 N10 1_555 1_555
Co12 N12 1_555 1_555
K8 O3 1_555 1_555
N14 K7 1_555 1_555
N15 K1 1_555 1_555
N16 K1 1_555 1_555
N17 K1 1_555 1_555
N18 Co5 1_555 1_555
N19 Co6 1_555 1_555
N20 Co4 1_555 1_555
N21 Co4 1_555 1_555
N22 Co5 1_555 1_555
N23 Co6 1_555 1_555
O19 K7 1_555 1_555
O20 K7 1_555 1_555
O21 K7 1_555 1_555
O22 K7 1_555 1_555
O23 K7 1_555 1_555
O24 K7 1_555 1_555
O5 K8 1_555 1_555
C15 O7 1_555 1_555
O8 K8 1_555 1_555
O10 K8 1_555 1_555
C24 O12 1_555 1_555
N9 N12 1_555 1_555
O13 K8 1_555 1_555
C25 C26 1_555 1_555
O15 K8 1_555 1_555
N15 N18 1_555 1_555
N15 N21 1_555 1_555
N16 N19 1_555 1_555
N16 N22 1_555 1_555
N17 N20 1_555 1_555
N17 N23 1_555 1_555
H7 C12 1_555 1_555
C13 C12 1_555 1_555
C14 C13 1_555 1_555
N14 N6 1_555 1_555
N6 N7 1_555 1_555
N7 C14 1_555 1_555
N8 C14 1_555 1_555
C17 C13 1_555 1_555
H10 C17 1_555 1_555
Co10 N8 1_555 1_555
Co12 N6 1_555 1_555
N14 N8 1_555 1_555
H7_2 C12_2 1_555 1_555
C13_2 C12_2 1_555 1_555
C14_2 C13_2 1_555 1_555
N19 N7_2 1_555 1_555
N7_2 C14_2 1_555 1_555
N22 C14_2 1_555 1_555
C17_2 C13_2 1_555 1_555
H10_2 C17_2 1_555 1_555
C1_2 C2_2 1_555 1_555
C2_2 H1_2 1_555 1_555
K5 O2_2 1_555 1_555
O22 K5 1_555 1_555
H3_2 O22 1_555 1_555
H4_2 O22 1_555 1_555
C7_2 C2_2 1_555 1_555
C9_2 C7_2 1_555 1_555
O4_2 C9_2 1_555 1_555
O19 C9_2 1_555 1_555
C10_2 C11_2 1_555 1_555
C11_2 H6_2 1_555 1_555
O7_2 K5 1_555 1_555
O23 K5 1_555 1_555
H8_2 O23 1_555 1_555
H9_2 O23 1_555 1_555
C16_2 C11_2 1_555 1_555
C18_2 C16_2 1_555 1_555
O9_2 C18_2 1_555 1_555
O20 C18_2 1_555 1_555
C19_2 C20_2 1_555 1_555
C20_2 H11_2 1_555 1_555
C21_2 C19_2 1_555 1_555
H12_2 C21_2 1_555 1_555
C22_2 C21_2 1_555 1_555
C23_2 C22_2 1_555 1_555
N20 N11_2 1_555 1_555
N11_2 C23_2 1_555 1_555
N23 C23_2 1_555 1_555
O12_2 K5 1_555 1_555
O24 K5 1_555 1_555
H13_2 O24 1_555 1_555
H14_2 O24 1_555 1_555
C25_2 C20_2 1_555 1_555
C26_2 C22_2 1_555 1_555
H15_2 C26_2 1_555 1_555
C27_2 C25_2 1_555 1_555
O14_2 C27_2 1_555 1_555
O21 C27_2 1_555 1_555
Co8 O4_2 1_555 1_555
Co10 O9_2 1_555 1_555
Co12 O14_2 1_555 1_555
C25_2 C26_2 1_555 1_555
Co8 O1_2 1_555 1_555
O1_2 C6_2 1_555 1_555
Co10 O6_2 1_555 1_555
O6_2 C15_2 1_555 1_555
Co12 O11_2 1_555 1_555
O11_2 C24_2 1_555 1_555
H2_2 C3_2 1_555 1_555
C4_2 C3_2 1_555 1_555
C5_2 C4_2 1_555 1_555
N18 N3_2 1_555 1_555
N3_2 C5_2 1_555 1_555
N21 C5_2 1_555 1_555
C8_2 C4_2 1_555 1_555
H5_2 C8_2 1_555 1_555

#END
