
###############################################################################
#
# This file contains modified crystal structure data generated from the
# MOF subset of the Cambridge Structural Database (CSD) v543 
# hosted by the Cambridge Crystallographic Data Centre (CCDC).
#
# This work is licensed under the Creative Commons
# Attribution-NonCommercial-ShareAlike 4.0 International License.
# To view a copy of this license, visit
# http://creativecommons.org/licenses/by-nc-sa/4.0/
# or send a letter to
# Creative Commons, PO Box 1866, Mountain View, CA 94042, USA.
#
# CIF created using the CSD Python API on 29 September 2022
# The structure has been converted into the P1 space group
# The structure has a 3D framework
# The original CSD entry EHAFOL is in the triclinic crystal system
# The framework has been calculated to contain at least 10.0% void space
# The void calculation uses a probe of radius 1.32A, grid spacing 0.4
# The framework is charged, counterions have been retained in the structure
#
###############################################################################

data_EHAFOL
_chemical_formula_moiety         '(C308 H168 N44 O54 Zn18 12-)n'
_symmetry_cell_setting           triclinic
_symmetry_space_group_name_H-M   'P 1'
_symmetry_Int_Tables_number      1
_space_group_name_Hall           'P 1'
loop_
_symmetry_equiv_pos_site_id
_symmetry_equiv_pos_as_xyz
1 x,y,z
_cell_length_a                   25.4598(13)
_cell_length_b                   26.2974(14)
_cell_length_c                   31.8554(17)
_cell_angle_alpha                90.284(3)
_cell_angle_beta                 92.982(3)
_cell_angle_gamma                98.728(3)
_cell_volume                     21050.7
loop_
_atom_site_label
_atom_site_type_symbol
_atom_site_fract_x
_atom_site_fract_y
_atom_site_fract_z
O31 O 0.09235(12) 0.00415(14) 0.01484(13)
O33 O 0.02559(14) 0.07351(12) 0.04348(13)
Zn4 Zn 0.02198(2) 0.99485(2) 0.04408(2)
O1 O 0.00569(13) 0.92088(11) 0.02231(12)
N23 N 0.04345(14) 0.97828(14) 0.10345(14)
N3 N 0.01916(12) 0.61368(12) 0.95027(12)
N9 N 0.01202(13) 0.50400(13) 0.93718(11)
C2 C 0.14854(17) 0.57589(17) 0.91620(17)
C3 C 0.01361(15) 0.66342(15) 0.95509(15)
C10 C 0.06557(16) 0.51736(16) 0.93315(15)
C16 C 0.00177(16) 0.45169(16) 0.93502(16)
C29 C 0.07054(16) 0.61299(16) 0.93836(16)
C34 C 0.09092(17) 0.47256(16) 0.93121(16)
H13 H 0.1272 0.4716 0.9304
C35 C 0.09601(17) 0.66590(16) 0.93444(16)
H14 H 0.1304 0.6762 0.9261
C36 C 0.25176(19) 0.59246(18) 0.88869(19)
C47 C 0.06232(15) 0.69722(16) 0.94467(16)
H21 H 0.0683 0.7330 0.9451
C52 C 0.09221(15) 0.56855(16) 0.93084(16)
C53 C 0.05104(17) 0.43126(16) 0.93084(16)
H23 H 0.0548 0.3968 0.9284
C76 C 0.16021(18) 0.55501(18) 0.87898(19)
H35 H 0.1333 0.5349 0.8628
C81 C 0.24133(17) 0.61308(18) 0.92676(17)
H39 H 0.2687 0.6327 0.9429
C82 C 0.19080(17) 0.60477(17) 0.94095(17)
H40 H 0.1842 0.6181 0.9669
C84 C 0.21060(19) 0.5631(2) 0.86519(19)
H42 H 0.2174 0.5487 0.8397
C109 C 0.30727(19) 0.60442(19) 0.8733(2)
O26 O 0.34512(13) 0.62228(13) 0.89788(12)
O27 O 0.31091(13) 0.59592(13) 0.83367(14)
Zn14 Zn 0.38529(2) 0.62114(2) 0.82060(2)
O18 O 0.00311(19) 0.8847(2) 0.29123(16)
H3 H 0.0107 0.8977 0.8607
Zn18 Zn 0.06256(3) 0.92415(3) 0.26271(2)
Zn13 Zn 0.97802(2) 0.00515(2) 0.95592(2)
Zn6 Zn 0.50610(2) 0.48094(2) 0.04341(2)
O3 O 0.58455(12) 0.49031(14) 0.02932(13)
O12 O 0.49370(16) 0.41431(13) 0.01083(13)
C44 C 0.69382(15) 0.49606(17) 0.02096(16)
H18 H 0.6793 0.4780 0.0437
H24 H 0.8024 0.6298 0.0040
H25 H 0.8716 0.7037 0.0007
H34 H 0.1915 0.0315 0.0161
C79 C 0.9827(2) 0.76172(17) 0.01349(18)
H37 H 0.9867 0.7419 0.0372
C91 C 0.74867(18) 0.50322(18) 0.01763(18)
H47 H 0.7706 0.4908 0.0381
C101 C 0.9882(2) 0.8155(2) 0.0166(2)
H54 H 0.9974 0.8312 0.0427
H64 H 0.4689 0.3192 0.0118
O29 O 0.51551(15) 0.55908(13) 0.05421(12)
O30 O 0.94212(13) 0.99122(15) 0.05092(12)
O32 O 0.42686(13) 0.48193(15) 0.03671(12)
N24 N 0.51510(13) 0.45487(14) 0.10202(13)
Zn1 Zn 0.89506(2) 0.13181(2) 0.82260(2)
Zn3 Zn 0.95762(2) 0.55271(2) 0.94627(2)
Zn7 Zn 0.43374(3) 0.07052(3) 0.87563(4)
Zn9 Zn 0.93744(3) 0.07585(3) 0.73729(2)
O2 O 0.48449(15) 0.44092(13) 0.94579(12)
O4 O 0.05788(13) 0.00878(15) 0.94908(12)
O7 O 0.92472(13) 0.20288(12) 0.83784(12)
O9 O 0.57314(13) 0.51807(15) 0.96329(12)
O10 O 0.90290(12) 0.12868(13) 0.76076(10)
O11 O 0.97441(14) 0.92649(12) 0.95652(13)
O13 O 0.90253(13) 0.17399(12) 0.90158(12)
O14 O 0.81898(13) 0.11447(14) 0.83062(12)
O19 O 0.8954(3) 0.0241(2) 0.7028(2)
O20 O 0.79558(18) 0.1432(3) 0.7693(2)
O21 O 0.8619(3) 0.0849(3) 0.6664(3)
N1 N 0.90901(12) 0.59960(13) 0.97132(13)
N2 N 0.38799(14) 0.11433(13) 0.90828(14)
N4 N 0.49508(13) 0.13055(14) 0.87968(14)
N5 N 0.37687(14) 0.00765(13) 0.88060(13)
N6 N 0.93167(14) 0.07608(13) 0.84724(14)
N7 N 0.48393(14) 0.02394(13) 0.85417(13)
N8 N 0.90107(12) 0.48897(12) 0.95633(12)
N10 N 0.95655(14) 0.02172(14) 0.89655(14)
N15 N 0.9539(2) 0.02835(16) 0.78585(16)
C4 C 0.25359(17) 0.03983(18) 0.92983(19)
C5 C 0.97098(15) 0.73897(16) 0.97382(17)
C6 C 0.32674(16) 0.00685(17) 0.89636(17)
C7 C 0.85672(16) 0.58515(17) 0.98020(16)
C8 C 0.33638(17) 0.09860(17) 0.91883(17)
C9 C 0.40002(17) 0.16442(16) 0.91761(16)
C11 C 0.90374(15) 0.44057(15) 0.94516(15)
C12 C 0.49380(17) 0.17942(17) 0.89415(18)
C13 C 0.94678(18) 0.36668(16) 0.92274(17)
O25 O 0.4024(2) 0.0924(2) 0.80929(17)
H5 H 0.3756 0.1072 0.8032
H6 H 0.4150 0.0872 0.7857
C14 C 0.92089(15) 0.65101(15) 0.97833(16)
C15 C 0.35514(19) 0.18295(17) 0.93430(19)
H7 H 0.3534 0.2164 0.9431
C17 C 0.77020(17) 0.52956(16) 0.98287(18)
C18 C 0.98055(15) 0.84576(15) 0.98257(16)
C21 C 0.53630(17) 0.03819(17) 0.84475(18)
C22 C 0.62115(17) 0.09645(17) 0.83627(18)
C23 C 0.45612(17) 0.25054(18) 0.92815(18)
C24 C 0.81789(18) 0.44122(16) 0.95604(18)
H9 H 0.7815 0.4322 0.9589
C27 C 0.54419(18) 0.21069(18) 0.89057(19)
H11 H 0.5530 0.2452 0.8982
C30 C 0.84922(15) 0.49173(16) 0.96429(16)
C31 C 0.47451(17) 0.35172(17) 0.95652(17)
C33 C 0.30811(17) 0.04880(17) 0.91394(16)
C38 C 0.09518(19) 0.01063(16) 0.97552(19)
C39 C 0.54491(18) 0.13022(17) 0.86686(18)
C40 C 0.85128(17) 0.41020(16) 0.94354(17)
H15 H 0.8425 0.3758 0.9354
C41 C 0.31537(19) 0.14159(17) 0.93479(19)
H16 H 0.2812 0.1416 0.9438
C42 C 0.82875(16) 0.53578(15) 0.97612(16)
C45 C 0.93708(17) 0.06498(18) 0.88764(17)
H19 H 0.9278 0.0862 0.9086
C48 C 0.95122(16) 0.42132(16) 0.93591(15)
C50 C 0.66032(15) 0.51477(17) 0.99172(16)
C51 C 0.57662(18) 0.18112(18) 0.8741(2)
H22 H 0.6122 0.1910 0.8684
C54 C 0.44956(18) 0.19546(17) 0.91198(18)
C55 C 0.93041(17) 0.26409(16) 0.89348(16)
C56 C 0.96855(16) 0.68172(16) 0.96941(17)
C57 C 0.15059(17) 0.02034(17) 0.96102(19)
C58 C 0.9504(2) 0.0357(2) 0.82742(19)
C59 C 0.72771(18) 0.11413(19) 0.8150(2)
C60 C 0.91901(18) 0.20948(17) 0.87788(17)
C61 C 0.83646(17) 0.62946(17) 0.99490(18)
C62 C 0.87430(18) 0.66993(17) 0.99348(19)
C63 C 0.56457(18) 0.08753(18) 0.85001(19)
C66 C 0.9691(2) 0.82210(18) 0.94452(19)
H27 H 0.9642 0.8417 0.9208
C67 C 0.92237(19) 0.32681(18) 0.94698(18)
H28 H 0.9111 0.3345 0.9733
C68 C 0.48592(16) 0.40739(16) 0.9736(2)
C69 C 0.91440(19) 0.27670(16) 0.93340(17)
H29 H 0.8984 0.2509 0.9505
C71 C 0.9637(2) 0.35251(18) 0.88416(18)
H30 H 0.9812 0.3781 0.8676
C72 C 0.20814(19) 0.0278(2) 0.90209(19)
H31 H 0.2118 0.0258 0.8733
C73 C 0.9558(2) 0.30264(17) 0.86924(18)
H32 H 0.9675 0.2950 0.8431
C74 C 0.73591(17) 0.5487(2) 0.95320(18)
H33 H 0.7496 0.5664 0.9300
C75 C 0.19532(18) 0.0309(2) 0.98723(19)
C77 C 0.98866(17) 0.90246(19) 0.98855(18)
C78 C 0.68216(18) 0.5411(2) 0.9584(2)
H36 H 0.6599 0.5544 0.9386
C80 C 0.1578(2) 0.0188(2) 0.9183(2)
H38 H 0.1280 0.0117 0.8998
C83 C 0.4717(2) 0.34218(19) 0.9136(2)
H41 H 0.4758 0.3689 0.8945
C86 C 0.9658(2) 0.00290(18) 0.85738(17)
C87 C 0.7141(2) 0.0929(3) 0.8520(2)
H44 H 0.7404 0.0845 0.8710
C89 C 0.9647(3) 0.76865(19) 0.94045(19)
H45 H 0.9572 0.7534 0.9140
C90 C 0.6880(2) 0.1288(4) 0.7884(3)
H46 H 0.6956 0.1453 0.7632
C92 C 0.6008(2) 0.50719(17) 0.99401(19)
C93 C 0.24612(19) 0.0407(2) 0.9726(2)
H48 H 0.2754 0.0478 0.9915
C95 C 0.4582(3) 0.2615(2) 0.9691(2)
H49 H 0.4534 0.2350 0.9885
C100 C 0.4620(2) 0.2893(2) 0.8997(2)
H53 H 0.4598 0.2815 0.8711
C102 C 0.6356(2) 0.1175(4) 0.8016(3)
H55 H 0.6087 0.1261 0.7834
C112 C 0.7850(2) 0.1254(2) 0.8027(2)
C118 C 0.4675(3) 0.3123(2) 0.9830(2)
C124 C 0.6615(2) 0.0834(3) 0.8618(2)
H67 H 0.6531 0.0673 0.8870
C129 C 0.8091(4) 0.0086(4) 0.6092(4)
H70 H 0.8026 0.0421 0.6053
C137 C 0.8668(4) 0.0378(4) 0.6758(3)
O28 O 0.93485(13) 0.56493(13) 0.88098(12)
H83 H 0.9142 0.5853 0.8712
H84 H 0.9446 0.5505 0.8592
Zn16 Zn 0.49390(2) 0.51906(2) 0.95659(2)
O35 O 0.99689(19) 0.1153(2) 0.70877(16)
Zn2 Zn 0.71246(6) 0.78518(5) 0.48409(4)
Zn8 Zn 0.44101(3) 0.57470(3) 0.73671(2)
O5 O 0.40642(14) 0.69530(13) 0.82847(11)
O6 O 0.38612(13) 0.60913(11) 0.75919(10)
O15 O 0.59874(19) 0.48402(18) 0.29299(15)
O16 O 0.3698(3) 0.71218(15) 0.76598(18)
O17 O 0.4955(2) 0.6167(2) 0.70697(17)
O22 O 0.4278(3) 0.6416(3) 0.66924(19)
O23 O 0.9754(3) 0.9579(3) 0.2948(2)
O24 O 0.5216(2) 0.5065(3) 0.3023(2)
N11 N 0.43877(13) 0.58043(13) 0.84704(14)
N12 N 0.48490(13) 0.54513(14) 0.89798(13)
N13 N 0.48701(16) 0.55680(18) 0.78702(14)
N14 N 0.5610(2) 0.5132(3) 0.80797(19)
N16 N 0.5814(2) 0.4934(2) 0.87646(17)
H1 H 0.6070 0.4781 0.8689
H2 H 0.5747 0.4949 0.9026
C1 C 0.9858(4) 0.9593(3) 0.8435(3)
N17 N 0.9995(4) 0.9247(3) 0.8700(2)
H4 H 0.9973 0.9291 0.8966
C19 C 0.32966(19) 0.92584(18) 0.8754(2)
H8 H 0.3217 0.8906 0.8701
C20 C 0.37847(19) 0.95861(18) 0.86632(19)
C25 C 0.4160(2) 0.88630(17) 0.83651(19)
C26 C 0.29807(19) 0.95523(18) 0.8928(2)
H10 H 0.2637 0.9444 0.9010
C28 C 0.47785(19) 0.55791(17) 0.82904(17)
C32 C 0.44522(15) 0.57179(16) 0.88711(15)
H12 H 0.4239 0.5833 0.9068
C37 C 0.47146(18) 0.97260(17) 0.84386(18)
C43 C 0.55623(19) 0.99470(19) 0.82657(19)
H17 H 0.5901 0.9946 0.8170
C46 C 0.51712(19) 0.95516(18) 0.82618(19)
H20 H 0.5187 0.9221 0.8163
C49 C 0.4012(2) 0.78185(19) 0.8136(2)
C64 C 0.42248(18) 0.94172(17) 0.84969(17)
C65 C 0.6028(4) 0.6458(3) 0.4696(2)
H26 H 0.5874 0.6163 0.4547
C70 C 0.50626(19) 0.5372(2) 0.85978(17)
N18 N 0.7775(2) 0.8424(2) 0.48445(18)
C85 C 0.7297(3) 0.7204(3) 0.3628(2)
H43 H 0.7169 0.6988 0.3402
N19 N 0.6569(2) 0.7223(2) 0.48732(18)
C88 C 0.7259(3) 0.8431(3) 0.5674(2)
C94 C 0.5523(2) 0.5146(2) 0.8479(2)
C96 C 0.3871(3) 0.8691(2) 0.8006(2)
H50 H 0.3727 0.8925 0.7834
C97 C 0.4304(3) 0.8002(2) 0.8477(2)
H51 H 0.4459 0.7774 0.8649
C98 C 0.6493(4) 0.5617(3) 0.3497(3)
H52 H 0.6688 0.5355 0.3439
C99 C 0.5987(4) 0.5596(3) 0.3347(3)
N20 N 0.6996(2) 0.8034(2) 0.54502(17)
C103 C 0.8470(4) 0.9466(3) 0.6508(3)
H56 H 0.8665 0.9374 0.6743
C104 C 0.3913(2) 0.7262(2) 0.8021(2)
C105 C 0.5309(3) 0.5332(3) 0.7808(2)
H57 H 0.5402 0.5315 0.7530
C106 C 0.6432(4) 0.6401(3) 0.3868(2)
C107 C 0.6429(3) 0.6837(3) 0.4563(2)
C108 C 0.8109(3) 0.8522(3) 0.4538(2)
C110 C 0.7088(3) 0.7192(3) 0.4045(3)
C111 C 0.6606(3) 0.8053(4) 0.6090(3)
H58 H 0.6393 0.7959 0.6314
C113 C 0.4966(5) 0.6952(4) 0.6114(4)
H59 H 0.4609 0.6986 0.6073
C114 C 0.8222(5) 0.9099(4) 0.6191(4)
H60 H 0.8273 0.8758 0.6222
C115 C 0.5911(3) 0.6596(3) 0.5073(3)
H61 H 0.5652 0.6416 0.5234
C116 C 0.4384(3) 0.8518(2) 0.8584(2)
H62 H 0.4605 0.8628 0.8820
C117 C 0.8510(3) 0.8978(3) 0.4686(3)
H63 H 0.8793 0.9131 0.4534
C119 C 0.5866(4) 0.7128(3) 0.5881(3)
C120 C 0.5138(3) 0.6697(3) 0.6454(3)
C121 C 0.7879(5) 0.9694(4) 0.5803(3)
H65 H 0.7697 0.9790 0.5563
C122 C 0.5708(4) 0.5120(3) 0.3070(2)
C123 C 0.9726(4) 0.9859(3) 0.7776(3)
H66 H 0.9741 0.9787 0.7491
C125 C 0.8390(3) 0.9965(3) 0.6430(3)
C126 C 0.7003(4) 0.8488(3) 0.6064(3)
H68 H 0.7085 0.8757 0.6259
C127 C 0.8086(3) 0.8299(3) 0.4144(2)
C128 C 0.3788(3) 0.8175(2) 0.7891(2)
H69 H 0.3581 0.8067 0.7649
C130 C 0.9713(4) 0.9120(3) 0.3012(3)
C131 C 0.8887(4) 0.8196(4) 0.3735(3)
H71 H 0.8890 0.7871 0.3847
C132 C 0.5336(4) 0.7161(4) 0.5828(3)
H72 H 0.5217 0.7328 0.5593
C133 C 0.7696(4) 0.7575(4) 0.3634(3)
H73 H 0.7928 0.7651 0.3419
C134 C 0.7915(4) 0.9218(4) 0.5842(3)
N21 N 0.7338(2) 0.7609(2) 0.42657(19)
C135 C 0.8503(4) 0.8989(5) 0.3673(3)
H74 H 0.8235 0.9178 0.3734
N22 N 0.9895(4) 0.9517(3) 0.8026(2)
C136 C 0.8494(4) 0.8482(4) 0.3843(3)
C138 C 0.6030(4) 0.6876(4) 0.6222(4)
H75 H 0.6389 0.6848 0.6259
C139 C 0.4786(3) 0.6393(3) 0.6794(3)
C140 C 0.5886(4) 0.6349(4) 0.3728(4)
H76 H 0.5682 0.6593 0.3813
C141 C 0.7926(3) 0.8763(3) 0.5174(2)
C142 C 0.6661(3) 0.6823(3) 0.4173(2)
C143 C 0.7720(3) 0.7850(3) 0.4029(2)
C144 C 0.6249(3) 0.7074(3) 0.5198(2)
C145 C 0.6718(4) 0.6043(3) 0.3740(3)
H77 H 0.7079 0.6082 0.3818
C146 C 0.9271(3) 0.8392(3) 0.3464(3)
H78 H 0.9531 0.8199 0.3392
C147 C 0.6602(3) 0.7781(3) 0.5682(2)
C148 C 0.8403(3) 0.9120(3) 0.5048(3)
H79 H 0.8587 0.9396 0.5205
C149 C 0.6254(3) 0.7329(3) 0.5570(2)
C150 C 0.7682(3) 0.8811(3) 0.5548(2)
C151 C 0.8896(4) 0.9196(4) 0.3425(3)
H80 H 0.8917 0.9538 0.3345
C152 C 0.5652(3) 0.5947(4) 0.3470(3)
H81 H 0.5294 0.5908 0.3382
C153 C 0.9266(3) 0.8909(3) 0.3290(3)
C154 C 0.5676(3) 0.6651(4) 0.6527(3)
H82 H 0.5797 0.6483 0.6761
Zn17 Zn 0.55899(3) 0.42530(3) 0.26329(2)
O34 O 0.40126(19) 0.51598(18) 0.70701(15)
Zn2_2 Zn 0.28754(6) 0.21482(5) 0.51591(4)
Zn5 Zn 0.61471(2) 0.37886(2) 0.17940(2)
O5_2 O 0.59358(14) 0.30470(13) 0.17153(11)
O6_2 O 0.61388(13) 0.39087(11) 0.24081(10)
O16_2 O 0.6302(3) 0.28782(15) 0.23402(18)
O17_2 O 0.5045(2) 0.3833(2) 0.29303(17)
O22_2 O 0.5722(3) 0.3584(3) 0.33076(19)
O23_2 O 0.0246(3) 0.0421(3) 0.7052(2)
O24_2 O 0.4784(2) 0.4935(3) 0.6977(2)
N11_2 N 0.56123(13) 0.41957(13) 0.15296(14)
N13_2 N 0.51299(16) 0.44320(18) 0.21298(14)
N14_2 N 0.4390(2) 0.4868(3) 0.19203(19)
N16_2 N 0.4186(2) 0.5066(2) 0.12354(17)
H1_2 H 0.3930 0.5219 0.1311
H2_2 H 0.4253 0.5051 0.0974
C1_2 C 0.0142(4) 0.0407(3) 0.1565(3)
N17_2 N 0.0005(4) 0.0753(3) 0.1300(2)
H4_2 H 0.0027 0.0709 0.1034
C19_2 C 0.67034(19) 0.07416(18) 0.1246(2)
H8_2 H 0.6783 0.1094 0.1299
C20_2 C 0.62153(19) 0.04139(18) 0.13368(19)
C25_2 C 0.5840(2) 0.11370(17) 0.16349(19)
C26_2 C 0.70193(19) 0.04477(18) 0.1072(2)
H10_2 H 0.7363 0.0556 0.0990
C28_2 C 0.52215(19) 0.44209(17) 0.17096(17)
C32_2 C 0.55478(15) 0.42821(16) 0.11289(15)
H12_2 H 0.5761 0.4167 0.0932
C37_2 C 0.52854(18) 0.02740(17) 0.15614(18)
C43_2 C 0.44377(19) 0.00530(19) 0.17343(19)
H17_2 H 0.4099 0.0054 0.1830
C46_2 C 0.48288(19) 0.04484(18) 0.17382(19)
H20_2 H 0.4813 0.0779 0.1837
C49_2 C 0.5988(2) 0.21815(19) 0.1864(2)
C64_2 C 0.57752(18) 0.05828(17) 0.15031(17)
C65_2 C 0.3972(4) 0.3542(3) 0.5304(2)
H26_2 H 0.4126 0.3837 0.5453
C70_2 C 0.49374(19) 0.4628(2) 0.14022(17)
N18_2 N 0.2225(2) 0.1576(2) 0.51555(18)
C85_2 C 0.2703(3) 0.2796(3) 0.6372(2)
H43_2 H 0.2831 0.3012 0.6598
N19_2 N 0.3431(2) 0.2777(2) 0.51268(18)
C88_2 C 0.2741(3) 0.1569(3) 0.4326(2)
C94_2 C 0.4477(2) 0.4854(2) 0.1521(2)
C96_2 C 0.6129(3) 0.1309(2) 0.1994(2)
H50_2 H 0.6273 0.1075 0.2166
C97_2 C 0.5696(3) 0.1998(2) 0.1523(2)
H51_2 H 0.5541 0.2226 0.1351
C98_2 C 0.3507(4) 0.4383(3) 0.6503(3)
H52_2 H 0.3312 0.4645 0.6561
C99_2 C 0.4013(4) 0.4404(3) 0.6653(3)
N20_2 N 0.3004(2) 0.1966(2) 0.45498(17)
C103_2 C 0.1530(4) 0.0534(3) 0.3492(3)
H56_2 H 0.1335 0.0626 0.3257
C104_2 C 0.6087(2) 0.2738(2) 0.1979(2)
C105_2 C 0.4691(3) 0.4668(3) 0.2192(2)
H57_2 H 0.4598 0.4685 0.2470
C106_2 C 0.3568(4) 0.3599(3) 0.6132(2)
C107_2 C 0.3571(3) 0.3163(3) 0.5437(2)
C108_2 C 0.1891(3) 0.1478(3) 0.5462(2)
C110_2 C 0.2912(3) 0.2808(3) 0.5955(3)
C111_2 C 0.3394(3) 0.1947(4) 0.3910(3)
H58_2 H 0.3607 0.2041 0.3686
C113_2 C 0.5034(5) 0.3048(4) 0.3886(4)
H59_2 H 0.5391 0.3014 0.3927
C114_2 C 0.1778(5) 0.0901(4) 0.3809(4)
H60_2 H 0.1727 0.1242 0.3778
C115_2 C 0.4089(3) 0.3404(3) 0.4927(3)
H61_2 H 0.4348 0.3584 0.4766
C116_2 C 0.5616(3) 0.1482(2) 0.1416(2)
H62_2 H 0.5395 0.1372 0.1180
C117_2 C 0.1490(3) 0.1022(3) 0.5314(3)
H63_2 H 0.1207 0.0869 0.5466
C119_2 C 0.4134(4) 0.2872(3) 0.4119(3)
C120_2 C 0.4862(3) 0.3303(3) 0.3546(3)
C121_2 C 0.2121(5) 0.0306(4) 0.4197(3)
H65_2 H 0.2303 0.0210 0.4437
C122_2 C 0.4292(4) 0.4880(3) 0.6930(2)
C123_2 C 0.0274(4) 0.0141(3) 0.2224(3)
H66_2 H 0.0259 0.0213 0.2509
C125_2 C 0.1610(3) 0.0035(3) 0.3570(3)
C126_2 C 0.2997(4) 0.1512(3) 0.3936(3)
H68_2 H 0.2915 0.1243 0.3741
C127_2 C 0.1914(3) 0.1701(3) 0.5856(2)
C128_2 C 0.6212(3) 0.1825(2) 0.2109(2)
H69_2 H 0.6419 0.1933 0.2351
C130_2 C 0.0287(4) 0.0880(3) 0.6988(3)
C131_2 C 0.1113(4) 0.1804(4) 0.6265(3)
H71_2 H 0.1110 0.2129 0.6153
C132_2 C 0.4664(4) 0.2839(4) 0.4172(3)
H72_2 H 0.4783 0.2672 0.4407
C133_2 C 0.2304(4) 0.2425(4) 0.6366(3)
H73_2 H 0.2072 0.2349 0.6581
C134_2 C 0.2085(4) 0.0782(4) 0.4158(3)
N21_2 N 0.2662(2) 0.2391(2) 0.57343(19)
C135_2 C 0.1497(4) 0.1011(5) 0.6327(3)
H74_2 H 0.1765 0.0822 0.6266
N22_2 N 0.0105(4) 0.0483(3) 0.1974(2)
C136_2 C 0.1506(4) 0.1518(4) 0.6157(3)
C138_2 C 0.3970(4) 0.3124(4) 0.3778(4)
H75_2 H 0.3611 0.3152 0.3741
C139_2 C 0.5214(3) 0.3607(3) 0.3206(3)
C140_2 C 0.4114(4) 0.3651(4) 0.6272(4)
H76_2 H 0.4318 0.3407 0.6187
C141_2 C 0.2074(3) 0.1237(3) 0.4826(2)
C142_2 C 0.3339(3) 0.3177(3) 0.5827(2)
C143_2 C 0.2280(3) 0.2150(3) 0.5971(2)
C144_2 C 0.3751(3) 0.2926(3) 0.4802(2)
C145_2 C 0.3282(4) 0.3957(3) 0.6260(3)
H77_2 H 0.2921 0.3918 0.6182
C146_2 C 0.0729(3) 0.1608(3) 0.6536(3)
H78_2 H 0.0469 0.1801 0.6608
C147_2 C 0.3398(3) 0.2219(3) 0.4318(2)
C148_2 C 0.1597(3) 0.0880(3) 0.4952(3)
H79_2 H 0.1413 0.0604 0.4795
C149_2 C 0.3746(3) 0.2671(3) 0.4430(2)
C150_2 C 0.2318(3) 0.1189(3) 0.4452(2)
C151_2 C 0.1104(4) 0.0804(4) 0.6575(3)
H80_2 H 0.1083 0.0462 0.6655
C152_2 C 0.4348(3) 0.4053(4) 0.6530(3)
H81_2 H 0.4706 0.4092 0.6618
C153_2 C 0.0734(3) 0.1091(3) 0.6710(3)
C154_2 C 0.4324(3) 0.3349(4) 0.3473(3)
H82_2 H 0.4203 0.3517 0.3239
O36 O 0.68909(13) 0.40408(13) 0.16633(14)
Zn1_2 Zn 0.10494(2) 0.86819(2) 0.17740(2)
Zn3_2 Zn 0.04238(2) 0.44729(2) 0.05373(2)
Zn7_2 Zn 0.56626(3) 0.92948(3) 0.12437(4)
O7_2 O 0.07528(13) 0.79712(12) 0.16216(12)
O10_2 O 0.09710(12) 0.87132(13) 0.23924(10)
O13_2 O 0.09747(13) 0.82601(12) 0.09842(12)
O14_2 O 0.18102(13) 0.88553(14) 0.16938(12)
O19_2 O 0.1046(3) 0.9759(2) 0.2972(2)
O20_2 O 0.20442(18) 0.8568(3) 0.2307(2)
O21_2 O 0.1381(3) 0.9151(3) 0.3336(3)
N1_2 N 0.09099(12) 0.40040(13) 0.02868(13)
N2_2 N 0.61201(14) 0.88567(13) 0.09172(14)
N4_2 N 0.50492(13) 0.86945(14) 0.12032(14)
N5_2 N 0.62313(14) 0.99235(13) 0.11940(13)
N6_2 N 0.06833(14) 0.92392(13) 0.15276(14)
N7_2 N 0.51607(14) 0.97606(13) 0.14583(13)
N8_2 N 0.09893(12) 0.51103(12) 0.04367(12)
N15_2 N 0.0461(2) 0.97165(16) 0.21415(16)
C4_2 C 0.74641(17) 0.96017(18) 0.07017(19)
C5_2 C 0.02902(15) 0.26103(16) 0.02618(17)
C6_2 C 0.67326(16) 0.99315(17) 0.10364(17)
C7_2 C 0.14328(16) 0.41485(17) 0.01980(16)
C8_2 C 0.66362(17) 0.90140(17) 0.08117(17)
C9_2 C 0.59998(17) 0.83558(16) 0.08239(16)
C11_2 C 0.09626(15) 0.55943(15) 0.05484(15)
C12_2 C 0.50620(17) 0.82058(17) 0.10585(18)
C13_2 C 0.05322(18) 0.63332(16) 0.07726(17)
O25_2 O 0.5976(2) 0.9076(2) 0.19071(17)
H5_2 H 0.6244 0.8928 0.1968
H6_2 H 0.5850 0.9128 0.2143
C14_2 C 0.07911(15) 0.34899(15) 0.02167(16)
C15_2 C 0.64486(19) 0.81705(17) 0.06570(19)
H7_2 H 0.6466 0.7836 0.0569
C17_2 C 0.22980(17) 0.47044(16) 0.01713(18)
C18_2 C 0.01945(15) 0.15424(15) 0.01743(16)
C21_2 C 0.46370(17) 0.96181(17) 0.15525(18)
C22_2 C 0.37885(17) 0.90355(17) 0.16373(18)
C23_2 C 0.54388(17) 0.74946(18) 0.07185(18)
C24_2 C 0.18211(18) 0.55878(16) 0.04396(18)
H9_2 H 0.2185 0.5678 0.0411
C27_2 C 0.45581(18) 0.78931(18) 0.10943(19)
H11_2 H 0.4470 0.7548 0.1018
C30_2 C 0.15078(15) 0.50827(16) 0.03571(16)
C31_2 C 0.52549(17) 0.64828(17) 0.04348(17)
C33_2 C 0.69189(17) 0.95120(17) 0.08606(16)
C38_2 C 0.90482(19) 0.98937(16) 0.02448(19)
C39_2 C 0.45509(18) 0.86978(17) 0.13314(18)
C40_2 C 0.14872(17) 0.58980(16) 0.05646(17)
H15_2 H 0.1575 0.6242 0.0646
C41_2 C 0.68463(19) 0.85841(17) 0.06521(19)
H16_2 H 0.7188 0.8584 0.0562
C42_2 C 0.17125(16) 0.46422(15) 0.02388(16)
C45_2 C 0.06292(17) 0.93502(18) 0.11236(17)
H19_2 H 0.0722 0.9138 0.0914
C48_2 C 0.04878(16) 0.57868(16) 0.06409(15)
C50_2 C 0.33968(15) 0.48523(17) 0.00828(16)
C51_2 C 0.42338(18) 0.81888(18) 0.1259(2)
H22_2 H 0.3878 0.8090 0.1316
C54_2 C 0.55044(18) 0.80454(17) 0.08802(18)
C55_2 C 0.06959(17) 0.73591(16) 0.10652(16)
C56_2 C 0.03145(16) 0.31828(16) 0.03059(17)
C57_2 C 0.84941(17) 0.97966(17) 0.03898(19)
C58_2 C 0.0496(2) 0.9643(2) 0.17258(19)
C59_2 C 0.27229(18) 0.88587(19) 0.1850(2)
C60_2 C 0.08099(18) 0.79052(17) 0.12212(17)
C61_2 C 0.16354(17) 0.37054(17) 0.00510(18)
C62_2 C 0.12570(18) 0.33007(17) 0.00652(19)
C63_2 C 0.43543(18) 0.91247(18) 0.14999(19)
C66_2 C 0.0309(2) 0.17790(18) 0.05548(19)
H27_2 H 0.0358 0.1583 0.0792
C67_2 C 0.07763(19) 0.67319(18) 0.05302(18)
H28_2 H 0.0889 0.6655 0.0267
C68_2 C 0.51408(16) 0.59261(16) 0.0264(2)
C69_2 C 0.08560(19) 0.72330(16) 0.06660(17)
H29_2 H 0.1016 0.7491 0.0495
C71_2 C 0.0363(2) 0.64749(18) 0.11584(18)
H30_2 H 0.0188 0.6219 0.1324
C72_2 C 0.79186(19) 0.9722(2) 0.09791(19)
H31_2 H 0.7882 0.9742 0.1267
C73_2 C 0.0442(2) 0.69736(17) 0.13076(18)
H32_2 H 0.0325 0.7050 0.1569
C74_2 C 0.26409(17) 0.4513(2) 0.04680(18)
H33_2 H 0.2504 0.4336 0.0700
C75_2 C 0.80468(18) 0.9691(2) 0.01277(19)
C77_2 C 0.01134(17) 0.09754(19) 0.01145(18)
C78_2 C 0.31784(18) 0.4589(2) 0.0416(2)
H36_2 H 0.3401 0.4456 0.0614
C80_2 C 0.8422(2) 0.9812(2) 0.0817(2)
H38_2 H 0.8720 0.9883 0.1002
C83_2 C 0.5283(2) 0.65782(19) 0.0864(2)
H41_2 H 0.5242 0.6311 0.1055
C86_2 C 0.0342(2) 0.99710(18) 0.14262(17)
C87_2 C 0.2859(2) 0.9071(3) 0.1480(2)
H44_2 H 0.2596 0.9155 0.1290
C89_2 C 0.0353(3) 0.23135(19) 0.05955(19)
H45_2 H 0.0428 0.2466 0.0860
C90_2 C 0.3120(2) 0.8712(4) 0.2116(3)
H46_2 H 0.3044 0.8547 0.2368
C92_2 C 0.3992(2) 0.49281(17) 0.00599(19)
C93_2 C 0.75388(19) 0.9593(2) 0.0274(2)
H48_2 H 0.7246 0.9522 0.0085
C95_2 C 0.5418(3) 0.7385(2) 0.0309(2)
H49_2 H 0.5466 0.7650 0.0115
C100_2 C 0.5380(2) 0.7107(2) 0.1003(2)
H53_2 H 0.5402 0.7185 0.1289
C102_2 C 0.3644(2) 0.8825(4) 0.1984(3)
H55_2 H 0.3913 0.8739 0.2166
C112_2 C 0.2150(2) 0.8746(2) 0.1973(2)
C118_2 C 0.5325(3) 0.6877(2) 0.0170(2)
C124_2 C 0.3385(2) 0.9166(3) 0.1382(2)
H67_2 H 0.3469 0.9327 0.1130
C129_2 C 0.1909(4) 0.9914(4) 0.3908(4)
H70_2 H 0.1974 0.9579 0.3947
C137_2 C 0.1332(4) 0.9622(4) 0.3242(3)
O28_2 O 0.06515(13) 0.43507(13) 0.11902(12)
H83_2 H 0.0858 0.4147 0.1288
H84_2 H 0.0554 0.4495 0.1408
O3_2 O 0.41545(12) 0.50969(14) 0.97068(13)
O8 O 0.90765(12) 0.99585(14) 0.98516(13)
O12_2 O 0.50630(16) 0.58569(13) 0.98917(13)
C44_2 C 0.30618(15) 0.50394(17) 0.97904(16)
H18_2 H 0.3207 0.5220 0.9563
H24_2 H 0.1976 0.3702 0.9960
H25_2 H 0.1284 0.2963 0.9993
H34_2 H 0.8085 0.9685 0.9839
C79_2 C 0.0173(2) 0.23828(17) 0.98651(18)
H37_2 H 0.0133 0.2581 0.9628
C91_2 C 0.25133(18) 0.49678(18) 0.98237(18)
H47_2 H 0.2294 0.5092 0.9619
C101_2 C 0.0118(2) 0.1845(2) 0.9834(2)
H54_2 H 0.0026 0.1688 0.9573
H64_2 H 0.5311 0.6808 0.9882
H3_2 H 0.9893 0.1023 0.1393
N3_2 N 0.98084(12) 0.38632(12) 0.04973(12)
N9_2 N 0.98798(13) 0.49600(13) 0.06282(11)
C2_2 C 0.85146(17) 0.42411(17) 0.08380(17)
C3_2 C 0.98639(15) 0.33658(15) 0.04491(15)
C10_2 C 0.93443(16) 0.48264(16) 0.06685(15)
C16_2 C 0.99823(16) 0.54831(16) 0.06498(16)
C29_2 C 0.92946(16) 0.38701(16) 0.06164(16)
C34_2 C 0.90908(17) 0.52744(16) 0.06879(16)
H13_2 H 0.8728 0.5284 0.0696
C35_2 C 0.90399(17) 0.33410(16) 0.06556(16)
H14_2 H 0.8696 0.3238 0.0739
C36_2 C 0.74824(19) 0.40754(18) 0.11131(19)
C47_2 C 0.93768(15) 0.30278(16) 0.05533(16)
H21_2 H 0.9317 0.2670 0.0549
C52_2 C 0.90779(15) 0.43145(16) 0.06916(16)
C53_2 C 0.94896(17) 0.56874(16) 0.06916(16)
H23_2 H 0.9452 0.6032 0.0716
C76_2 C 0.83979(18) 0.44499(18) 0.12102(19)
H35_2 H 0.8667 0.4651 0.1372
C81_2 C 0.75867(17) 0.38692(18) 0.07324(17)
H39_2 H 0.7313 0.3673 0.0571
C82_2 C 0.80920(17) 0.39523(17) 0.05905(17)
H40_2 H 0.8158 0.3819 0.0331
C84_2 C 0.78940(19) 0.4369(2) 0.13481(19)
H42_2 H 0.7826 0.4513 0.1603
C109_2 C 0.69273(19) 0.39558(19) 0.1267(2)
O26_2 O 0.65488(13) 0.37772(13) 0.10212(12)
O1_2 O 0.99431(13) 0.07912(11) 0.97769(12)
loop_
_geom_bond_atom_site_label_1
_geom_bond_atom_site_label_2
_geom_bond_site_symmetry_1
_geom_bond_site_symmetry_2
Zn4 O1 1_555 1_555
N23 Zn4 1_555 1_555
C2 C52 1_555 1_555
C3 N3 1_555 1_555
C10 N9 1_555 1_555
C16 N9 1_555 1_555
C29 N3 1_555 1_555
C34 C10 1_555 1_555
H13 C34 1_555 1_555
C35 C29 1_555 1_555
H14 C35 1_555 1_555
C36 C81 1_555 1_555
C47 C3 1_555 1_555
H21 C47 1_555 1_555
C52 C10 1_555 1_555
C53 C16 1_555 1_555
H23 C53 1_555 1_555
C76 C2 1_555 1_555
H35 C76 1_555 1_555
C81 H39 1_555 1_555
C82 C2 1_555 1_555
H40 C82 1_555 1_555
C84 C36 1_555 1_555
H42 C84 1_555 1_555
C109 C36 1_555 1_555
O26 C109 1_555 1_555
O27 C109 1_555 1_555
Zn14 O27 1_555 1_555
C29 C52 1_555 1_555
C34 C53 1_555 1_555
C35 C47 1_555 1_555
C76 C84 1_555 1_555
C81 C82 1_555 1_555
Zn18 O18 1_555 1_555
Zn6 O3 1_555 1_555
O12 Zn6 1_555 1_555
C44 H18 1_555 1_555
H37 C79 1_555 1_555
H47 C91 1_555 1_555
H54 C101 1_555 1_555
O29 Zn6 1_555 1_555
O32 Zn6 1_555 1_555
N24 Zn6 1_555 1_555
C44 C91 1_555 1_555
C79 C101 1_555 1_555
Zn1 O7 1_555 1_555
Zn3 N1 1_555 1_555
Zn7 N2 1_555 1_555
Zn9 O10 1_555 1_555
O2 C68 1_555 1_555
O4 C38 1_555 1_555
O7 C60 1_555 1_555
O9 C92 1_555 1_555
O10 Zn1 1_555 1_555
O11 C77 1_555 1_555
O13 C60 1_555 1_555
O14 Zn1 1_555 1_555
O19 Zn9 1_555 1_555
O20 C112 1_555 1_555
O21 C137 1_555 1_555
N1 C7 1_555 1_555
N2 C8 1_555 1_555
N4 Zn7 1_555 1_555
N5 Zn7 1_555 1_555
N6 Zn1 1_555 1_555
N7 Zn7 1_555 1_555
N8 Zn3 1_555 1_555
N10 C45 1_555 1_555
N15 Zn9 1_555 1_555
C4 C33 1_555 1_555
C5 C56 1_555 1_555
C6 N5 1_555 1_555
C7 C42 1_555 1_555
C8 C33 1_555 1_555
C9 N2 1_555 1_555
C11 N8 1_555 1_555
C12 N4 1_555 1_555
C13 C48 1_555 1_555
O25 Zn7 1_555 1_555
H5 O25 1_555 1_555
H6 O25 1_555 1_555
C14 N1 1_555 1_555
C15 C9 1_555 1_555
H7 C15 1_555 1_555
C17 C42 1_555 1_555
C18 C66 1_555 1_555
C21 N7 1_555 1_555
C22 C63 1_555 1_555
C23 C54 1_555 1_555
C24 H9 1_555 1_555
C27 C12 1_555 1_555
H11 C27 1_555 1_555
C30 N8 1_555 1_555
C31 C68 1_555 1_555
C33 C6 1_555 1_555
C38 C57 1_555 1_555
C39 N4 1_555 1_555
C40 C11 1_555 1_555
H15 C40 1_555 1_555
C41 C8 1_555 1_555
H16 C41 1_555 1_555
C42 C30 1_555 1_555
C45 N6 1_555 1_555
H19 C45 1_555 1_555
C48 C11 1_555 1_555
C51 C27 1_555 1_555
H22 C51 1_555 1_555
C54 C9 1_555 1_555
C55 C60 1_555 1_555
C57 C75 1_555 1_555
C58 N6 1_555 1_555
C59 C87 1_555 1_555
C61 C7 1_555 1_555
C62 C14 1_555 1_555
C63 C21 1_555 1_555
C66 H27 1_555 1_555
C67 C13 1_555 1_555
H28 C67 1_555 1_555
C69 C55 1_555 1_555
H29 C69 1_555 1_555
C71 C13 1_555 1_555
H30 C71 1_555 1_555
C72 C4 1_555 1_555
H31 C72 1_555 1_555
C73 C55 1_555 1_555
H32 C73 1_555 1_555
C74 C17 1_555 1_555
H33 C74 1_555 1_555
C77 C18 1_555 1_555
C78 C50 1_555 1_555
H36 C78 1_555 1_555
C80 C57 1_555 1_555
H38 C80 1_555 1_555
C83 C31 1_555 1_555
H41 C83 1_555 1_555
C86 N10 1_555 1_555
C87 H44 1_555 1_555
C89 C5 1_555 1_555
H45 C89 1_555 1_555
C90 C59 1_555 1_555
H46 C90 1_555 1_555
C92 C50 1_555 1_555
C93 C4 1_555 1_555
H48 C93 1_555 1_555
C95 C23 1_555 1_555
H49 C95 1_555 1_555
C100 C23 1_555 1_555
H53 C100 1_555 1_555
C102 C22 1_555 1_555
H55 C102 1_555 1_555
C112 O14 1_555 1_555
C118 C31 1_555 1_555
C124 C22 1_555 1_555
H67 C124 1_555 1_555
H70 C129 1_555 1_555
C137 O19 1_555 1_555
O28 Zn3 1_555 1_555
H83 O28 1_555 1_555
H84 O28 1_555 1_555
Zn13 N10 1_555 1_555
Zn16 O2 1_555 1_555
O35 Zn9 1_555 1_555
O9 Zn16 1_555 1_555
N15 C58 1_555 1_555
C12 C54 1_555 1_555
C14 C56 1_555 1_555
C15 C41 1_555 1_555
C24 C30 1_555 1_555
C24 C40 1_555 1_555
C39 C51 1_555 1_555
C39 C63 1_555 1_555
C58 C86 1_555 1_555
C59 C112 1_555 1_555
C61 C62 1_555 1_555
C66 C89 1_555 1_555
C67 C69 1_555 1_555
C71 C73 1_555 1_555
C72 C80 1_555 1_555
C74 C78 1_555 1_555
C75 C93 1_555 1_555
C83 C100 1_555 1_555
C87 C124 1_555 1_555
C90 C102 1_555 1_555
C95 C118 1_555 1_555
Zn2 N18 1_555 1_555
Zn14 O5 1_555 1_555
Zn8 O6 1_555 1_555
O5 C104 1_555 1_555
O6 Zn14 1_555 1_555
O15 C122 1_555 1_555
O16 C104 1_555 1_555
O17 Zn8 1_555 1_555
O22 C139 1_555 1_555
O23 C130 1_555 1_555
O24 C122 1_555 1_555
N11 Zn14 1_555 1_555
N12 C32 1_555 1_555
N13 Zn8 1_555 1_555
N14 C94 1_555 1_555
N16 H1 1_555 1_555
H2 N16 1_555 1_555
C1 N17 1_555 1_555
H4 N17 1_555 1_555
C19 H8 1_555 1_555
C25 C64 1_555 1_555
H10 C26 1_555 1_555
C28 N11 1_555 1_555
C32 N11 1_555 1_555
H12 C32 1_555 1_555
H17 C43 1_555 1_555
C46 C37 1_555 1_555
H20 C46 1_555 1_555
C49 C97 1_555 1_555
C64 C20 1_555 1_555
C65 H26 1_555 1_555
C70 N12 1_555 1_555
N18 C108 1_555 1_555
C85 H43 1_555 1_555
N19 Zn2 1_555 1_555
C88 N20 1_555 1_555
C94 N16 1_555 1_555
C96 C25 1_555 1_555
H50 C96 1_555 1_555
C97 H51 1_555 1_555
C98 H52 1_555 1_555
C99 C98 1_555 1_555
N20 Zn2 1_555 1_555
C103 H56 1_555 1_555
C104 C49 1_555 1_555
C105 N13 1_555 1_555
H57 C105 1_555 1_555
C106 C140 1_555 1_555
C107 C65 1_555 1_555
C108 C117 1_555 1_555
C110 C85 1_555 1_555
C111 H58 1_555 1_555
C113 H59 1_555 1_555
C114 C103 1_555 1_555
H60 C114 1_555 1_555
C115 C65 1_555 1_555
H61 C115 1_555 1_555
C116 C25 1_555 1_555
H62 C116 1_555 1_555
C117 H63 1_555 1_555
C119 C132 1_555 1_555
C120 C113 1_555 1_555
C121 H65 1_555 1_555
C122 C99 1_555 1_555
H66 C123 1_555 1_555
C125 C103 1_555 1_555
C126 C88 1_555 1_555
H68 C126 1_555 1_555
C127 C108 1_555 1_555
C128 C49 1_555 1_555
H69 C128 1_555 1_555
C130 C153 1_555 1_555
C131 H71 1_555 1_555
C132 C113 1_555 1_555
H72 C132 1_555 1_555
C133 C85 1_555 1_555
H73 C133 1_555 1_555
C134 C114 1_555 1_555
N21 Zn2 1_555 1_555
C135 H74 1_555 1_555
N22 C1 1_555 1_555
C136 C127 1_555 1_555
C138 C119 1_555 1_555
H75 C138 1_555 1_555
C139 O17 1_555 1_555
C140 H76 1_555 1_555
C141 N18 1_555 1_555
C142 C106 1_555 1_555
C143 C127 1_555 1_555
C144 N19 1_555 1_555
C145 C98 1_555 1_555
H77 C145 1_555 1_555
C146 C131 1_555 1_555
H78 C146 1_555 1_555
C147 N20 1_555 1_555
C148 C117 1_555 1_555
H79 C148 1_555 1_555
C149 C119 1_555 1_555
C150 C88 1_555 1_555
C151 C135 1_555 1_555
H80 C151 1_555 1_555
C152 C99 1_555 1_555
H81 C152 1_555 1_555
C153 C146 1_555 1_555
C154 C120 1_555 1_555
H82 C154 1_555 1_555
Zn16 N12 1_555 1_555
Zn17 O15 1_555 1_555
O34 Zn8 1_555 1_555
N13 C28 1_555 1_555
N14 C105 1_555 1_555
C19 C20 1_555 1_555
C19 C26 1_555 1_555
C28 C70 1_555 1_555
C37 C64 1_555 1_555
C43 C46 1_555 1_555
C70 C94 1_555 1_555
N19 C107 1_555 1_555
C96 C128 1_555 1_555
C97 C116 1_555 1_555
C106 C145 1_555 1_555
C107 C142 1_555 1_555
C110 N21 1_555 1_555
C110 C142 1_555 1_555
C111 C126 1_555 1_555
C111 C147 1_555 1_555
C115 C144 1_555 1_555
C120 C139 1_555 1_555
C121 C134 1_555 1_555
C123 N22 1_555 1_555
C131 C136 1_555 1_555
C133 C143 1_555 1_555
C134 C150 1_555 1_555
N21 C143 1_555 1_555
C135 C136 1_555 1_555
C138 C154 1_555 1_555
C140 C152 1_555 1_555
C141 C148 1_555 1_555
C141 C150 1_555 1_555
C144 C149 1_555 1_555
C147 C149 1_555 1_555
C151 C153 1_555 1_555
Zn2_2 N18_2 1_555 1_555
Zn5 O5_2 1_555 1_555
Zn17 O6_2 1_555 1_555
O5_2 C104_2 1_555 1_555
O6_2 Zn5 1_555 1_555
O34 C122_2 1_555 1_555
O16_2 C104_2 1_555 1_555
O17_2 Zn17 1_555 1_555
O22_2 C139_2 1_555 1_555
O23_2 C130_2 1_555 1_555
O24_2 C122_2 1_555 1_555
N11_2 Zn5 1_555 1_555
N24 C32_2 1_555 1_555
N13_2 Zn17 1_555 1_555
N14_2 C94_2 1_555 1_555
N16_2 H1_2 1_555 1_555
H2_2 N16_2 1_555 1_555
C1_2 N17_2 1_555 1_555
H4_2 N17_2 1_555 1_555
C19_2 H8_2 1_555 1_555
C25_2 C64_2 1_555 1_555
H10_2 C26_2 1_555 1_555
C28_2 N11_2 1_555 1_555
C32_2 N11_2 1_555 1_555
H12_2 C32_2 1_555 1_555
H17_2 C43_2 1_555 1_555
C46_2 C37_2 1_555 1_555
H20_2 C46_2 1_555 1_555
C49_2 C97_2 1_555 1_555
C64_2 C20_2 1_555 1_555
C65_2 H26_2 1_555 1_555
C70_2 N24 1_555 1_555
N18_2 C108_2 1_555 1_555
C85_2 H43_2 1_555 1_555
N19_2 Zn2_2 1_555 1_555
C88_2 N20_2 1_555 1_555
C94_2 N16_2 1_555 1_555
C96_2 C25_2 1_555 1_555
H50_2 C96_2 1_555 1_555
C97_2 H51_2 1_555 1_555
C98_2 H52_2 1_555 1_555
C99_2 C98_2 1_555 1_555
N20_2 Zn2_2 1_555 1_555
C103_2 H56_2 1_555 1_555
C104_2 C49_2 1_555 1_555
C105_2 N13_2 1_555 1_555
H57_2 C105_2 1_555 1_555
C106_2 C140_2 1_555 1_555
C107_2 C65_2 1_555 1_555
C108_2 C117_2 1_555 1_555
C110_2 C85_2 1_555 1_555
C111_2 H58_2 1_555 1_555
C113_2 H59_2 1_555 1_555
C114_2 C103_2 1_555 1_555
H60_2 C114_2 1_555 1_555
C115_2 C65_2 1_555 1_555
H61_2 C115_2 1_555 1_555
C116_2 C25_2 1_555 1_555
H62_2 C116_2 1_555 1_555
C117_2 H63_2 1_555 1_555
C119_2 C132_2 1_555 1_555
C120_2 C113_2 1_555 1_555
C121_2 H65_2 1_555 1_555
C122_2 C99_2 1_555 1_555
H66_2 C123_2 1_555 1_555
C125_2 C103_2 1_555 1_555
C126_2 C88_2 1_555 1_555
H68_2 C126_2 1_555 1_555
C127_2 C108_2 1_555 1_555
C128_2 C49_2 1_555 1_555
H69_2 C128_2 1_555 1_555
C130_2 C153_2 1_555 1_555
C131_2 H71_2 1_555 1_555
C132_2 C113_2 1_555 1_555
H72_2 C132_2 1_555 1_555
C133_2 C85_2 1_555 1_555
H73_2 C133_2 1_555 1_555
C134_2 C114_2 1_555 1_555
N21_2 Zn2_2 1_555 1_555
C135_2 H74_2 1_555 1_555
N22_2 C1_2 1_555 1_555
C136_2 C127_2 1_555 1_555
C138_2 C119_2 1_555 1_555
H75_2 C138_2 1_555 1_555
C139_2 O17_2 1_555 1_555
C140_2 H76_2 1_555 1_555
C141_2 N18_2 1_555 1_555
C142_2 C106_2 1_555 1_555
C143_2 C127_2 1_555 1_555
C144_2 N19_2 1_555 1_555
C145_2 C98_2 1_555 1_555
H77_2 C145_2 1_555 1_555
C146_2 C131_2 1_555 1_555
H78_2 C146_2 1_555 1_555
C147_2 N20_2 1_555 1_555
C148_2 C117_2 1_555 1_555
H79_2 C148_2 1_555 1_555
C149_2 C119_2 1_555 1_555
C150_2 C88_2 1_555 1_555
C151_2 C135_2 1_555 1_555
H80_2 C151_2 1_555 1_555
C152_2 C99_2 1_555 1_555
H81_2 C152_2 1_555 1_555
C153_2 C146_2 1_555 1_555
C154_2 C120_2 1_555 1_555
H82_2 C154_2 1_555 1_555
O36 Zn5 1_555 1_555
N13_2 C28_2 1_555 1_555
N14_2 C105_2 1_555 1_555
C19_2 C20_2 1_555 1_555
C19_2 C26_2 1_555 1_555
C28_2 C70_2 1_555 1_555
C37_2 C64_2 1_555 1_555
C43_2 C46_2 1_555 1_555
C70_2 C94_2 1_555 1_555
N19_2 C107_2 1_555 1_555
C96_2 C128_2 1_555 1_555
C97_2 C116_2 1_555 1_555
C106_2 C145_2 1_555 1_555
C107_2 C142_2 1_555 1_555
C110_2 N21_2 1_555 1_555
C110_2 C142_2 1_555 1_555
C111_2 C126_2 1_555 1_555
C111_2 C147_2 1_555 1_555
C115_2 C144_2 1_555 1_555
C120_2 C139_2 1_555 1_555
C121_2 C134_2 1_555 1_555
C123_2 N22_2 1_555 1_555
C131_2 C136_2 1_555 1_555
C133_2 C143_2 1_555 1_555
C134_2 C150_2 1_555 1_555
N21_2 C143_2 1_555 1_555
C135_2 C136_2 1_555 1_555
C138_2 C154_2 1_555 1_555
C140_2 C152_2 1_555 1_555
C141_2 C148_2 1_555 1_555
C141_2 C150_2 1_555 1_555
C144_2 C149_2 1_555 1_555
C147_2 C149_2 1_555 1_555
C151_2 C153_2 1_555 1_555
Zn1_2 O7_2 1_555 1_555
Zn3_2 N1_2 1_555 1_555
Zn7_2 N2_2 1_555 1_555
Zn18 O10_2 1_555 1_555
O29 C68_2 1_555 1_555
O30 C38_2 1_555 1_555
O7_2 C60_2 1_555 1_555
O32 C92_2 1_555 1_555
O10_2 Zn1_2 1_555 1_555
O33 C77_2 1_555 1_555
O13_2 C60_2 1_555 1_555
O14_2 Zn1_2 1_555 1_555
O19_2 Zn18 1_555 1_555
O20_2 C112_2 1_555 1_555
O21_2 C137_2 1_555 1_555
N1_2 C7_2 1_555 1_555
N2_2 C8_2 1_555 1_555
N4_2 Zn7_2 1_555 1_555
N5_2 Zn7_2 1_555 1_555
N6_2 Zn1_2 1_555 1_555
N7_2 Zn7_2 1_555 1_555
N8_2 Zn3_2 1_555 1_555
N23 C45_2 1_555 1_555
N15_2 Zn18 1_555 1_555
C4_2 C33_2 1_555 1_555
C5_2 C56_2 1_555 1_555
C6_2 N5_2 1_555 1_555
C7_2 C42_2 1_555 1_555
C8_2 C33_2 1_555 1_555
C9_2 N2_2 1_555 1_555
C11_2 N8_2 1_555 1_555
C12_2 N4_2 1_555 1_555
C13_2 C48_2 1_555 1_555
O25_2 Zn7_2 1_555 1_555
H5_2 O25_2 1_555 1_555
H6_2 O25_2 1_555 1_555
C14_2 N1_2 1_555 1_555
C15_2 C9_2 1_555 1_555
H7_2 C15_2 1_555 1_555
C17_2 C42_2 1_555 1_555
C18_2 C66_2 1_555 1_555
C21_2 N7_2 1_555 1_555
C22_2 C63_2 1_555 1_555
C23_2 C54_2 1_555 1_555
C24_2 H9_2 1_555 1_555
C27_2 C12_2 1_555 1_555
H11_2 C27_2 1_555 1_555
C30_2 N8_2 1_555 1_555
C31_2 C68_2 1_555 1_555
C33_2 C6_2 1_555 1_555
C38_2 C57_2 1_555 1_555
C39_2 N4_2 1_555 1_555
C40_2 C11_2 1_555 1_555
H15_2 C40_2 1_555 1_555
C41_2 C8_2 1_555 1_555
H16_2 C41_2 1_555 1_555
C42_2 C30_2 1_555 1_555
C45_2 N6_2 1_555 1_555
H19_2 C45_2 1_555 1_555
C48_2 C11_2 1_555 1_555
C51_2 C27_2 1_555 1_555
H22_2 C51_2 1_555 1_555
C54_2 C9_2 1_555 1_555
C55_2 C60_2 1_555 1_555
C57_2 C75_2 1_555 1_555
C58_2 N6_2 1_555 1_555
C59_2 C87_2 1_555 1_555
C61_2 C7_2 1_555 1_555
C62_2 C14_2 1_555 1_555
C63_2 C21_2 1_555 1_555
C66_2 H27_2 1_555 1_555
C67_2 C13_2 1_555 1_555
H28_2 C67_2 1_555 1_555
C69_2 C55_2 1_555 1_555
H29_2 C69_2 1_555 1_555
C71_2 C13_2 1_555 1_555
H30_2 C71_2 1_555 1_555
C72_2 C4_2 1_555 1_555
H31_2 C72_2 1_555 1_555
C73_2 C55_2 1_555 1_555
H32_2 C73_2 1_555 1_555
C74_2 C17_2 1_555 1_555
H33_2 C74_2 1_555 1_555
C77_2 C18_2 1_555 1_555
C78_2 C50_2 1_555 1_555
H36_2 C78_2 1_555 1_555
C80_2 C57_2 1_555 1_555
H38_2 C80_2 1_555 1_555
C83_2 C31_2 1_555 1_555
H41_2 C83_2 1_555 1_555
C86_2 N23 1_555 1_555
C87_2 H44_2 1_555 1_555
C89_2 C5_2 1_555 1_555
H45_2 C89_2 1_555 1_555
C90_2 C59_2 1_555 1_555
H46_2 C90_2 1_555 1_555
C92_2 C50_2 1_555 1_555
C93_2 C4_2 1_555 1_555
H48_2 C93_2 1_555 1_555
C95_2 C23_2 1_555 1_555
H49_2 C95_2 1_555 1_555
C100_2 C23_2 1_555 1_555
H53_2 C100_2 1_555 1_555
C102_2 C22_2 1_555 1_555
H55_2 C102_2 1_555 1_555
C112_2 O14_2 1_555 1_555
C118_2 C31_2 1_555 1_555
C124_2 C22_2 1_555 1_555
H67_2 C124_2 1_555 1_555
H70_2 C129_2 1_555 1_555
C137_2 O19_2 1_555 1_555
O28_2 Zn3_2 1_555 1_555
H83_2 O28_2 1_555 1_555
H84_2 O28_2 1_555 1_555
N15_2 C58_2 1_555 1_555
C12_2 C54_2 1_555 1_555
C14_2 C56_2 1_555 1_555
C15_2 C41_2 1_555 1_555
C24_2 C30_2 1_555 1_555
C24_2 C40_2 1_555 1_555
C39_2 C51_2 1_555 1_555
C39_2 C63_2 1_555 1_555
C58_2 C86_2 1_555 1_555
C59_2 C112_2 1_555 1_555
C61_2 C62_2 1_555 1_555
C66_2 C89_2 1_555 1_555
C67_2 C69_2 1_555 1_555
C71_2 C73_2 1_555 1_555
C72_2 C80_2 1_555 1_555
C74_2 C78_2 1_555 1_555
C75_2 C93_2 1_555 1_555
C83_2 C100_2 1_555 1_555
C87_2 C124_2 1_555 1_555
C90_2 C102_2 1_555 1_555
C95_2 C118_2 1_555 1_555
Zn16 O3_2 1_555 1_555
O12_2 Zn16 1_555 1_555
C44_2 H18_2 1_555 1_555
H37_2 C79_2 1_555 1_555
H47_2 C91_2 1_555 1_555
H54_2 C101_2 1_555 1_555
C44_2 C91_2 1_555 1_555
C79_2 C101_2 1_555 1_555
C2_2 C52_2 1_555 1_555
C3_2 N3_2 1_555 1_555
C10_2 N9_2 1_555 1_555
C16_2 N9_2 1_555 1_555
C29_2 N3_2 1_555 1_555
C34_2 C10_2 1_555 1_555
H13_2 C34_2 1_555 1_555
C35_2 C29_2 1_555 1_555
H14_2 C35_2 1_555 1_555
C36_2 C81_2 1_555 1_555
C47_2 C3_2 1_555 1_555
H21_2 C47_2 1_555 1_555
C52_2 C10_2 1_555 1_555
C53_2 C16_2 1_555 1_555
H23_2 C53_2 1_555 1_555
C76_2 C2_2 1_555 1_555
H35_2 C76_2 1_555 1_555
C81_2 H39_2 1_555 1_555
C82_2 C2_2 1_555 1_555
H40_2 C82_2 1_555 1_555
C84_2 C36_2 1_555 1_555
H42_2 C84_2 1_555 1_555
C109_2 C36_2 1_555 1_555
O26_2 C109_2 1_555 1_555
O36 C109_2 1_555 1_555
C29_2 C52_2 1_555 1_555
C34_2 C53_2 1_555 1_555
C35_2 C47_2 1_555 1_555
C76_2 C84_2 1_555 1_555
C81_2 C82_2 1_555 1_555
Zn13 O1_2 1_555 1_555

#END
