
###############################################################################
#
# This file contains modified crystal structure data generated from the
# MOF subset of the Cambridge Structural Database (CSD) v543 
# hosted by the Cambridge Crystallographic Data Centre (CCDC).
#
# This work is licensed under the Creative Commons
# Attribution-NonCommercial-ShareAlike 4.0 International License.
# To view a copy of this license, visit
# http://creativecommons.org/licenses/by-nc-sa/4.0/
# or send a letter to
# Creative Commons, PO Box 1866, Mountain View, CA 94042, USA.
#
# CIF created using the CSD Python API on 29 September 2022
# The structure has been converted into the P1 space group
# The structure has a 3D framework
# The original CSD entry EHAFUR is in the triclinic crystal system
# The framework has been calculated to contain at least 10.0% void space
# The void calculation uses a probe of radius 1.32A, grid spacing 0.4
# The framework is charged, counterions have been retained in the structure
#
###############################################################################

data_EHAFUR
_chemical_formula_moiety         '(C168 H120 N48 O34 Zn20 2-)n'
_symmetry_cell_setting           triclinic
_symmetry_space_group_name_H-M   'P 1'
_symmetry_Int_Tables_number      1
_space_group_name_Hall           'P 1'
loop_
_symmetry_equiv_pos_site_id
_symmetry_equiv_pos_as_xyz
1 x,y,z
_cell_length_a                   19.0940(16)
_cell_length_b                   24.290(2)
_cell_length_c                   24.738(2)
_cell_angle_alpha                61.042(5)
_cell_angle_beta                 73.947(6)
_cell_angle_gamma                82.746(6)
_cell_volume                     9647.02
loop_
_atom_site_label
_atom_site_type_symbol
_atom_site_fract_x
_atom_site_fract_y
_atom_site_fract_z
Zn7 Zn 0.07559(5) 0.00878(4) 0.30482(6)
O5 O 0.4410(3) 0.3518(2) 0.0676(3)
N16 N 0.0753(3) 0.1034(2) 0.2476(3)
C3 C 0.2658(4) 0.1720(3) 0.1599(4)
C6 C 0.1355(4) 0.1422(3) 0.2108(4)
C7 C 0.0177(4) 0.1418(3) 0.2421(5)
C8 C 0.3737(4) 0.2665(3) 0.0847(3)
N21 N 0.1855(3) 0.0079(2) 0.2663(3)
C10 C 0.3043(4) 0.0390(3) 0.2173(4)
H11 H 0.3456 0.0659 0.1919
C23 C 0.2076(3) 0.1214(3) 0.2012(4)
C28 C 0.2285(4) 0.0596(3) 0.2263(4)
C30 C 0.3592(4) 0.2266(3) 0.0650(4)
H21 H 0.3859 0.2317 0.0242
C39 C 0.0386(4) 0.2055(3) 0.2012(5)
H25 H 0.0074 0.2409 0.1904
C46 C 0.4297(4) 0.3180(3) 0.0452(4)
C47 C 0.3075(4) 0.1793(3) 0.1012(4)
H29 H 0.3005 0.1517 0.0861
C50 C 0.2786(4) 0.2126(4) 0.1815(4)
H31 H 0.2506 0.2078 0.2219
O17 O 0.0901(4) 0.0156(4) 0.3917(4)
H35 H 0.1027 0.0502 0.3921
C57 C 0.3306(4) 0.2591(4) 0.1456(4)
H37 H 0.3382 0.2865 0.1609
C60 C 0.1115(4) 0.2059(3) 0.1808(5)
H39 H 0.1416 0.2419 0.1517
O1 O 0.4613(2) 0.32243(18) 0.9914(2)
Zn15 Zn 0.53819(4) 0.39101(4) 0.91618(4)
Zn6 Zn 0.0000 -0.0000 1.0000
O7 O 0.3936(3) 0.3165(2) 0.7307(3)
O8 O 0.3370(3) 0.3393(3) 0.6529(3)
C9 C 0.2250(4) 0.0284(4) 0.8974(4)
H10 H 0.2661 0.0543 0.8685
N24 N 0.0032(3) 0.0953(3) 0.9544(4)
C33 C 0.2911(4) 0.2554(3) 0.7577(5)
C40 C 0.1895(4) 0.1616(4) 0.8455(6)
C41 C 0.2934(5) 0.2211(4) 0.8181(5)
H26 H 0.3316 0.2291 0.8312
C48 C 0.0620(4) 0.1330(3) 0.9140(6)
C52 C 0.1520(4) 0.0497(4) 0.9167(5)
C58 C 0.1317(4) 0.1118(3) 0.8929(5)
C59 C 0.2436(5) 0.1747(4) 0.8627(5)
H38 H 0.2472 0.1518 0.9057
C68 C 0.2361(5) 0.2435(4) 0.7346(6)
H46 H 0.2345 0.2645 0.6910
C73 C 0.3446(5) 0.3073(4) 0.7104(6)
C76 C 0.0410(5) 0.1972(4) 0.9009(8)
H53 H 0.0735 0.2320 0.8806
C78 C 0.1827(5) 0.1956(5) 0.7856(7)
H55 H 0.1412 0.1883 0.7756
Zn19 Zn 0.47516(5) 0.38473(4) 0.68807(5)
C2 C 0.8461(3) 0.9755(3) 0.3770(4)
H6 H 0.8048 0.9485 0.4023
C5 C 0.8843(5) 0.8428(4) 0.4408(5)
O14 O 0.7014(4) 0.6688(3) 0.5397(4)
O16 O 0.7202(4) 0.6704(3) 0.6236(4)
C37 C 0.9207(4) 0.9560(3) 0.3671(4)
C45 C 0.7840(5) 0.7471(4) 0.5221(6)
C53 C 0.9420(4) 0.8945(3) 0.3946(4)
C61 C 0.7333(5) 0.6896(5) 0.5707(9)
C69 C 0.8501(7) 0.8172(5) 0.4175(6)
H47 H 0.8589 0.8341 0.3726
C77 C 0.8170(7) 0.7736(6) 0.5411(7)
H54 H 0.8081 0.7572 0.5859
C80 C 0.8033(6) 0.7678(5) 0.4565(6)
H57 H 0.7839 0.7474 0.4392
C82 C 0.8643(7) 0.8237(5) 0.5037(6)
H59 H 0.8823 0.8442 0.5217
Zn21 Zn 0.66614(5) 0.58870(4) 0.64650(5)
Zn6_2 Zn 1.0000 -0.0000 1.0000
C83 C 0.9464(4) 0.1342(4) 0.9616(6)
C84 C 0.9711(5) 0.1993(4) 0.9212(8)
H60 H 0.9418 0.2359 0.9116
O19 O 0.6208(3) 0.3254(2) 0.9414(2)
O22 O 0.6716(3) 0.3517(3) 0.9974(3)
C87 C 0.8174(5) 0.1690(4) 0.9909(6)
C91 C 0.7183(4) 0.2643(3) 0.9798(4)
C94 C 0.8751(4) 0.1154(4) 0.9940(5)
C98 C 0.7164(4) 0.2276(4) 0.9556(5)
H65 H 0.6792 0.2347 0.9342
C100 C 0.7660(5) 0.1775(4) 0.9587(5)
H67 H 0.7634 0.1520 0.9399
C101 C 0.6640(5) 0.3189(4) 0.9710(5)
Zn8 Zn 0.50517(4) 0.48871(3) 0.75296(4)
Zn11 Zn 0.34115(5) 0.58162(4) 0.76667(5)
N27 N 0.5076(3) 0.3893(2) 0.8012(3)
N28 N 0.5037(3) 0.5904(2) 0.7032(2)
N29 N 0.4381(3) 0.4909(2) 0.8394(3)
N30 N 0.5717(3) 0.4899(2) 0.6652(2)
N31 N 0.5572(3) 0.4562(2) 0.6409(3)
N32 N 0.4534(3) 0.4588(2) 0.8963(3)
N33 N 0.6031(3) 0.4928(2) 0.7797(3)
O24 O 0.5570(2) 0.4245(2) 0.9786(2)
H73 H 0.5324 0.4589 0.9728
N34 N 0.5615(3) 0.6278(2) 0.6666(2)
N35 N 0.4071(3) 0.4867(3) 0.7251(3)
O26 O 0.4554(2) 0.4100(2) 0.5968(2)
H75 H 0.4664 0.4499 0.5702
H76 H 0.4858 0.3898 0.5790
N36 N 0.6255(3) 0.5305(3) 0.6218(3)
N38 N 0.5185(3) 0.3542(2) 0.8598(3)
N39 N 0.6164(3) 0.4576(2) 0.8384(3)
N40 N 0.6621(3) 0.5293(3) 0.7413(3)
N41 N 0.3960(3) 0.4504(2) 0.7008(3)
N43 N 0.0361(3) 0.9926(2) 0.6718(3)
C109 C 0.5143(4) 0.2940(3) 0.8684(6)
H77 H 0.5227 0.2571 0.9048
N44 N 0.4448(3) 0.6259(2) 0.7074(3)
N45 N 0.3815(3) 0.5279(2) 0.8437(3)
O28 O 0.2846(4) 0.6600(3) 0.7226(4)
N46 N 0.4962(3) 0.3522(3) 0.7813(3)
C112 C 0.4612(5) 0.6837(4) 0.6753(4)
H79 H 0.4294 0.7181 0.6713
O29 O 0.7756(3) 0.5518(3) 0.6244(3)
H80 H 0.8050 0.5613 0.5869
H81 H 0.7996 0.5243 0.6515
N48 N 0.3451(3) 0.5219(2) 0.7292(3)
C120 C 0.1146(4) 0.8282(4) 0.7349(5)
O30 O 0.2992(3) 0.6598(3) 0.8081(4)
C121 C 0.1550(4) 0.9605(4) 0.6561(4)
H83 H 0.1970 0.9347 0.6589
O31 O 0.2290(3) 0.5400(3) 0.8262(3)
H84 H 0.1876 0.5604 0.8321
H85 H 0.2163 0.4993 0.8491
C123 C 0.5357(5) 0.6867(3) 0.6470(4)
H86 H 0.5635 0.7241 0.6184
C124 C 0.2182(4) 0.7340(4) 0.7515(6)
C126 C 0.6488(4) 0.5212(4) 0.5704(4)
H88 H 0.6858 0.5434 0.5328
C127 C 0.0813(4) 0.9396(3) 0.6858(4)
C130 C 0.0580(4) 0.8787(3) 0.7241(4)
C132 C 0.4976(5) 0.2936(4) 0.8217(4)
H89 H 0.4884 0.2582 0.8179
C137 C 0.2740(5) 0.6810(4) 0.7589(6)
C142 C 0.6075(5) 0.4732(4) 0.5848(4)
H94 H 0.6128 0.4535 0.5588
C144 C 0.3015(5) 0.5062(4) 0.7056(5)
H96 H 0.2551 0.5242 0.7008
C145 C 0.4035(5) 0.4763(4) 0.9352(4)
H97 H 0.3989 0.4600 0.9796
C149 C 0.6841(4) 0.4722(4) 0.8324(5)
H99 H 0.7087 0.4530 0.8656
C151 C 0.3621(4) 0.5194(3) 0.9020(4)
H101 H 0.3240 0.5410 0.9179
C153 C 0.3298(5) 0.4632(4) 0.6898(5)
H102 H 0.3073 0.4440 0.6732
C158 C 0.7122(4) 0.5168(4) 0.7745(4)
H108 H 0.7587 0.5362 0.7592
H109 H 0.9869 0.0181 0.8696
C160 C 0.1907(6) 0.7544(5) 0.7907(7)
H112 H 0.2076 0.7355 0.8285
C163 C 0.1416(6) 0.8089(5) 0.6909(6)
H115 H 0.1240 0.8267 0.6536
C165 C 0.1937(7) 0.7644(5) 0.6992(7)
H117 H 0.2139 0.7542 0.6655
C167 C 0.1391(5) 0.8008(5) 0.7859(7)
H119 H 0.1220 0.8123 0.8190
O40 O 0.5519(3) 0.31699(19) 0.6790(3)
N37 N 0.9264(3) 0.0867(2) 0.6490(3)
C118 C 0.7357(4) 0.1571(3) 0.6661(4)
C119 C 0.6341(4) 0.2528(3) 0.6457(4)
C122 C 0.8664(4) 0.1263(4) 0.6450(5)
C125 C 0.6940(4) 0.0233(3) 0.7495(4)
H87 H 0.6521 0.0493 0.7459
C128 C 0.9855(4) 0.1254(3) 0.6134(5)
O33 O 0.5686(3) 0.3363(3) 0.5813(3)
C131 C 0.5811(4) 0.3050(4) 0.6329(4)
C134 C 0.9636(5) 0.1897(3) 0.5849(5)
H90 H 0.9943 0.2254 0.5559
C136 C 0.7938(4) 0.1060(3) 0.6785(4)
C138 C 0.6544(4) 0.2208(4) 0.7025(4)
H92 H 0.6332 0.2327 0.7349
C139 C 0.7705(4) 0.0436(3) 0.7197(4)
C140 C 0.7033(4) 0.1733(3) 0.7145(4)
H93 H 0.7151 0.1516 0.7546
H103 H 0.9153 0.0153 0.5675
C154 C 0.8910(4) 0.1895(3) 0.6072(5)
H105 H 0.8612 0.2257 0.5991
C161 C 0.6727(6) 0.2382(4) 0.5982(4)
H113 H 0.6664 0.2621 0.5561
C162 C 0.7186(4) 0.1903(4) 0.6122(5)
H114 H 0.7410 0.1793 0.5793
O3 O 0.4481(3) 0.68301(19) 0.3210(3)
N11 N 0.0736(3) 0.9133(2) 0.3510(3)
C11 C 0.2643(4) 0.8429(3) 0.3339(4)
C12 C 0.3659(4) 0.7472(3) 0.3543(4)
C15 C 0.1336(4) 0.8737(4) 0.3550(5)
C18 C 0.3060(4) 0.9767(3) 0.2505(4)
H16 H 0.3479 0.9507 0.2541
C22 C 0.0145(4) 0.8746(3) 0.3866(5)
O15 O 0.4314(3) 0.6637(3) 0.4187(3)
C26 C 0.4189(4) 0.6950(4) 0.3671(4)
C29 C 0.0364(5) 0.8103(3) 0.4151(5)
H20 H 0.0057 0.7746 0.4441
C31 C 0.2062(4) 0.8940(3) 0.3215(4)
C34 C 0.3456(4) 0.7792(4) 0.2975(4)
H22 H 0.3668 0.7673 0.2651
C35 C 0.2295(4) 0.9564(3) 0.2803(4)
C36 C 0.2967(4) 0.8267(3) 0.2855(4)
H23 H 0.2849 0.8484 0.2454
H34 H 0.0847 0.9847 0.4325
C56 C 0.1090(4) 0.8105(3) 0.3928(5)
H36 H 0.1388 0.7743 0.4009
C71 C 0.3273(6) 0.7618(4) 0.4018(4)
H49 H 0.3336 0.7379 0.4439
C74 C 0.2814(4) 0.8097(4) 0.3878(5)
H51 H 0.2590 0.8207 0.4207
Zn17 Zn 0.52484(5) 0.61527(4) 0.31193(5)
Zn1 Zn 0.49483(4) 0.51129(3) 0.24704(4)
Zn2 Zn 0.46181(4) 0.60899(4) 0.08382(4)
Zn4 Zn 0.65885(5) 0.41838(4) 0.23333(5)
Zn5 Zn 0.33386(5) 0.41130(4) 0.35350(5)
Zn6_3 Zn 0.0000 1.0000 -0.0000
N1 N 0.4924(3) 0.6107(2) 0.1988(3)
N2 N 0.4963(3) 0.4096(2) 0.2968(2)
N3 N 0.5619(3) 0.5091(2) 0.1606(3)
N4 N 0.4283(3) 0.5101(2) 0.3348(2)
N5 N 0.4428(3) 0.5438(2) 0.3591(3)
N6 N 0.5466(3) 0.5412(2) 0.1037(3)
N7 N 0.3969(3) 0.5072(2) 0.2203(3)
O2 O 0.4430(2) 0.5755(2) 0.0214(2)
H1 H 0.4676 0.5411 0.0272
N8 N 0.4385(3) 0.3722(2) 0.3334(2)
N9 N 0.5929(3) 0.5133(3) 0.2749(3)
O4 O 0.5446(2) 0.5900(2) 0.4032(2)
H3 H 0.5336 0.5501 0.4298
H4 H 0.5142 0.6102 0.4210
O6 O 0.3792(3) 0.6746(2) 0.0586(2)
N10 N 0.3745(3) 0.4695(3) 0.3782(3)
N12 N 0.4815(3) 0.6458(2) 0.1402(3)
N13 N 0.3836(3) 0.5424(2) 0.1616(3)
N14 N 0.3379(3) 0.4707(3) 0.2587(3)
N15 N 0.6040(3) 0.5496(2) 0.2992(3)
N17 N 0.9639(3) 0.0074(2) 0.3282(3)
C1 C 0.4857(4) 0.7060(3) 0.1316(6)
H5 H 0.4773 0.7429 0.0952
N18 N 0.5552(3) 0.3741(2) 0.2926(3)
N19 N 0.6185(3) 0.4721(2) 0.1563(3)
O9 O 0.3284(3) 0.6483(3) 0.0026(3)
O10 O 0.7154(4) 0.3400(3) 0.2774(4)
N20 N 0.5038(3) 0.6478(3) 0.2187(3)
C4 C 0.5388(5) 0.3163(4) 0.3247(4)
H7 H 0.5706 0.2819 0.3287
O11 O 0.2244(3) 0.4482(3) 0.3756(3)
H8 H 0.1950 0.4387 0.4131
H9 H 0.2004 0.4757 0.3485
N22 N 0.6549(3) 0.4781(2) 0.2708(3)
C13 C 0.8854(4) 0.1718(4) 0.2651(5)
O12 O 0.7008(3) 0.3402(3) 0.1919(4)
C14 C 0.8450(4) 0.0395(4) 0.3439(4)
H12 H 0.8030 0.0653 0.3411
O13 O 0.7710(3) 0.4600(3) 0.1738(3)
H13 H 0.8124 0.4396 0.1679
H14 H 0.7837 0.5007 0.1509
C16 C 0.4643(5) 0.3133(3) 0.3530(4)
H15 H 0.4365 0.2759 0.3816
C17 C 0.7818(4) 0.2660(4) 0.2485(6)
C19 C 0.3512(4) 0.4788(4) 0.4296(4)
H17 H 0.3142 0.4566 0.4672
C21 C 0.9187(4) 0.0604(3) 0.3142(4)
C24 C 0.9420(4) 0.1213(3) 0.2759(4)
C25 C 0.1826(5) 0.8310(4) 0.0091(6)
C27 C 0.5024(5) 0.7064(4) 0.1783(4)
H19 H 0.5116 0.7418 0.1821
C32 C 0.7260(5) 0.3190(4) 0.2411(6)
C38 C 0.3925(5) 0.5268(4) 0.4152(4)
H24 H 0.3872 0.5465 0.4412
C42 C 0.2817(4) 0.7357(3) 0.0202(4)
C43 C 0.6985(5) 0.4938(4) 0.2944(5)
H27 H 0.7449 0.4758 0.2992
C44 C 0.5965(5) 0.5237(4) 0.0648(4)
H28 H 0.6011 0.5400 0.0204
C49 C 0.3159(4) 0.5278(4) 0.1676(5)
H30 H 0.2913 0.5470 0.1344
C51 C 0.6379(4) 0.4806(3) 0.0980(4)
H32 H 0.6760 0.4590 0.0821
C54 C 0.6702(5) 0.5368(4) 0.3102(5)
H33 H 0.6927 0.5560 0.3268
C55 C 0.1249(4) 0.8846(4) 0.0060(5)
C62 C 0.2878(4) 0.4832(4) 0.2255(4)
H40 H 0.2413 0.4638 0.2408
C64 C 0.2836(4) 0.7724(4) 0.0444(5)
H41 H 0.3208 0.7653 0.0658
C66 C 0.2340(5) 0.8225(4) 0.0413(5)
H43 H 0.2366 0.8480 0.0601
H44 H 0.0131 0.9819 0.1304
C67 C 0.3360(5) 0.6811(4) 0.0290(5)
C70 C 0.8093(6) 0.2456(5) 0.2093(7)
H48 H 0.7924 0.2645 0.1715
C75 C 0.8584(6) 0.1911(5) 0.3091(6)
H52 H 0.8760 0.1733 0.3464
C79 C 0.8063(7) 0.2356(5) 0.3008(7)
H56 H 0.7861 0.2458 0.3345
C81 C 0.8609(5) 0.1992(5) 0.2141(7)
H58 H 0.8780 0.1877 0.1810
C107 C 0.0536(4) 0.8658(4) 0.0384(6)
C108 C 0.0289(5) 0.8007(4) 0.0788(8)
H72 H 0.0582 0.7641 0.0884
O38 O 0.5387(2) 0.67757(18) 0.0086(2)
O42 O 0.6064(3) 0.6835(2) 0.2693(3)
O44 O 0.2986(4) 0.3312(3) 0.4603(4)
O46 O 0.2798(4) 0.3296(3) 0.3764(4)
C110 C 0.1539(3) 0.0245(3) 0.6230(4)
H78 H 0.1952 0.0515 0.5977
C113 C 0.1157(5) 0.1572(4) 0.5592(5)
C141 C 0.0793(4) 0.0440(3) 0.6329(4)
C146 C 0.2160(5) 0.2529(4) 0.4779(6)
C152 C 0.0580(4) 0.1055(3) 0.6054(4)
C157 C 0.2667(5) 0.3104(5) 0.4293(9)
C159 C 0.1499(7) 0.1828(5) 0.5825(6)
H111 H 0.1411 0.1659 0.6274
C164 C 0.1830(7) 0.2264(6) 0.4589(7)
H116 H 0.1919 0.2428 0.4141
C166 C 0.1967(6) 0.2322(5) 0.5435(6)
H118 H 0.2161 0.2526 0.5608
C168 C 0.1357(7) 0.1763(5) 0.4963(6)
H120 H 0.1177 0.1558 0.4783
Zn6_4 Zn 1.0000 1.0000 -0.0000
O21 O 0.6630(3) 0.6607(3) 0.3471(3)
C85 C 0.7750(4) 0.9716(4) 0.1026(4)
H61 H 0.7339 0.9457 0.1315
N26 N 0.9968(3) 0.9047(3) 0.0456(4)
C88 C 0.7089(4) 0.7446(3) 0.2423(5)
C89 C 0.8105(4) 0.8384(4) 0.1545(6)
C90 C 0.7066(5) 0.7789(4) 0.1819(5)
H63 H 0.6684 0.7709 0.1688
C92 C 0.9380(4) 0.8670(3) 0.0860(6)
C93 C 0.8480(4) 0.9503(4) 0.0833(5)
C95 C 0.8683(4) 0.8882(3) 0.1071(5)
C96 C 0.7564(5) 0.8253(4) 0.1373(5)
H64 H 0.7528 0.8482 0.0943
C102 C 0.7639(5) 0.7565(4) 0.2654(6)
H68 H 0.7655 0.7355 0.3090
C104 C 0.6554(5) 0.6927(4) 0.2896(6)
C105 C 0.9590(5) 0.8028(4) 0.0991(8)
H70 H 0.9265 0.7680 0.1194
C106 C 0.8173(5) 0.8044(5) 0.2144(7)
H71 H 0.8588 0.8117 0.2244
Zn6_5 Zn 0.0000 -0.0000 -0.0000
O18 O 0.0357(8) 0.0020(8) 0.0844(6)
H45 H 0.0767 0.0255 0.0793
Zn6_6 Zn 0.0000 1.0000 1.0000
H2 H 0.4615 0.6023 0.9816
C20 C 0.2233(4) 0.9655(4) 0.9280(4)
H18 H 0.2626 0.9385 0.9239
N23 N 0.1079(3) 0.9980(3) 0.9590(4)
C63 C 0.1500(4) 0.9459(4) 0.9689(5)
C65 C 0.1759(6) 0.7942(5) 0.9790(6)
H42 H 0.1401 0.8016 0.9561
C72 C 0.2267(5) 0.7477(4) 0.9872(5)
H50 H 0.2251 0.7211 0.9693
Zn6_7 Zn 1.0000 -0.0000 -0.0000
C86 C 0.7767(4) 0.0345(4) 0.0720(4)
H62 H 0.7374 0.0615 0.0761
N25 N 0.8921(3) 0.0020(3) 0.0410(4)
C97 C 0.8500(4) 0.0541(4) 0.0311(5)
C99 C 0.8241(6) 0.2058(5) 0.0210(6)
H66 H 0.8599 0.1984 0.0439
C103 C 0.7733(5) 0.2523(4) 0.0128(5)
H69 H 0.7749 0.2789 0.0307
H74 H 0.5385 0.3977 0.0184
Zn6_8 Zn 1.0000 1.0000 1.0000
O36 O 0.9643(8) 0.9980(8) 0.9156(6)
H110 H 0.9233 0.9745 0.9207
Zn13 Zn 0.92441(5) 0.99122(4) 0.69518(6)
O27 O 0.5590(3) 0.6482(2) 0.9324(3)
N42 N 0.9247(3) 0.8966(2) 0.7524(3)
C111 C 0.7342(4) 0.8280(3) 0.8401(4)
C114 C 0.8645(4) 0.8578(3) 0.7892(4)
C115 C 0.9823(4) 0.8582(3) 0.7579(5)
C116 C 0.6263(4) 0.7335(3) 0.9153(3)
N47 N 0.8145(3) 0.9921(2) 0.7337(3)
C117 C 0.6957(4) 0.9610(3) 0.7827(4)
H82 H 0.6544 0.9341 0.8081
C129 C 0.7924(3) 0.8786(3) 0.7988(4)
C133 C 0.7715(4) 0.9404(3) 0.7737(4)
C135 C 0.6408(4) 0.7734(3) 0.9350(4)
H91 H 0.6141 0.7683 0.9758
C143 C 0.9614(4) 0.7945(3) 0.7988(5)
H95 H 0.9926 0.7591 0.8096
C147 C 0.5703(4) 0.6820(3) 0.9548(4)
C148 C 0.6925(4) 0.8207(3) 0.8988(4)
H98 H 0.6995 0.8483 0.9139
C150 C 0.7214(4) 0.7874(4) 0.8185(4)
H100 H 0.7494 0.7922 0.7781
O35 O 0.9099(4) 0.9844(4) 0.6083(4)
H104 H 0.8973 0.9498 0.6079
C155 C 0.6694(4) 0.7409(4) 0.8544(4)
H106 H 0.6618 0.7135 0.8391
C156 C 0.8885(4) 0.7941(3) 0.8192(5)
H107 H 0.8584 0.7581 0.8483
loop_
_geom_bond_atom_site_label_1
_geom_bond_atom_site_label_2
_geom_bond_site_symmetry_1
_geom_bond_site_symmetry_2
O5 C46 1_555 1_555
N16 Zn7 1_555 1_555
C3 C23 1_555 1_555
C6 N16 1_555 1_555
C7 N16 1_555 1_555
C8 C30 1_555 1_555
N21 Zn7 1_555 1_555
C10 H11 1_555 1_555
C23 C6 1_555 1_555
C28 N21 1_555 1_555
C30 H21 1_555 1_555
C39 C7 1_555 1_555
H25 C39 1_555 1_555
C46 C8 1_555 1_555
C47 C3 1_555 1_555
H29 C47 1_555 1_555
C50 C3 1_555 1_555
H31 C50 1_555 1_555
O17 Zn7 1_555 1_555
H35 O17 1_555 1_555
C57 C8 1_555 1_555
H37 C57 1_555 1_555
C60 C6 1_555 1_555
H39 C60 1_555 1_555
C10 C28 1_555 1_555
C23 C28 1_555 1_555
C30 C47 1_555 1_555
C39 C60 1_555 1_555
C50 C57 1_555 1_555
Zn15 O1 1_555 1_555
O7 C73 1_555 1_555
O8 C73 1_555 1_555
C9 H10 1_555 1_555
N24 Zn6 1_555 1_555
C33 C41 1_555 1_555
C40 C58 1_555 1_555
C41 H26 1_555 1_555
C48 N24 1_555 1_555
C52 C9 1_555 1_555
C58 C48 1_555 1_555
C59 C40 1_555 1_555
H38 C59 1_555 1_555
C68 C33 1_555 1_555
H46 C68 1_555 1_555
C73 C33 1_555 1_555
C76 C48 1_555 1_555
H53 C76 1_555 1_555
C78 C40 1_555 1_555
H55 C78 1_555 1_555
Zn19 O7 1_555 1_555
C41 C59 1_555 1_555
C52 C58 1_555 1_555
C68 C78 1_555 1_555
C2 H6 1_555 1_555
C5 C53 1_555 1_555
O14 C61 1_555 1_555
O16 C61 1_555 1_555
C45 C61 1_555 1_555
C69 C5 1_555 1_555
H47 C69 1_555 1_555
C77 C45 1_555 1_555
H54 C77 1_555 1_555
C80 C45 1_555 1_555
H57 C80 1_555 1_555
C82 C5 1_555 1_555
H59 C82 1_555 1_555
Zn21 O14 1_555 1_555
C2 C37 1_555 1_555
O16 Zn21 1_555 1_555
C37 C53 1_555 1_555
C69 C80 1_555 1_555
C77 C82 1_555 1_555
H60 C84 1_555 1_555
O19 C101 1_555 1_555
O22 C101 1_555 1_555
C87 C94 1_555 1_555
C91 C98 1_555 1_555
C94 C83 1_555 1_555
C98 H65 1_555 1_555
C100 C87 1_555 1_555
H67 C100 1_555 1_555
C101 C91 1_555 1_555
Zn8 N27 1_555 1_555
Zn15 O19 1_555 1_555
Zn19 N31 1_555 1_555
Zn11 N44 1_555 1_555
Zn21 N34 1_555 1_555
N27 N38 1_555 1_555
N28 Zn8 1_555 1_555
N29 Zn8 1_555 1_555
N30 Zn8 1_555 1_555
N31 N30 1_555 1_555
N32 Zn15 1_555 1_555
N33 Zn8 1_555 1_555
O24 Zn15 1_555 1_555
H73 O24 1_555 1_555
N34 N28 1_555 1_555
N35 Zn8 1_555 1_555
O26 Zn19 1_555 1_555
H75 O26 1_555 1_555
H76 O26 1_555 1_555
N36 Zn21 1_555 1_555
N38 Zn15 1_555 1_555
N39 Zn15 1_555 1_555
N40 Zn21 1_555 1_555
N41 Zn19 1_555 1_555
C109 N38 1_555 1_555
H77 C109 1_555 1_555
N44 N28 1_555 1_555
N45 Zn11 1_555 1_555
O28 Zn11 1_555 1_555
N46 Zn19 1_555 1_555
C112 N44 1_555 1_555
H79 C112 1_555 1_555
O29 Zn21 1_555 1_555
H80 O29 1_555 1_555
H81 O29 1_555 1_555
N48 Zn11 1_555 1_555
C120 C130 1_555 1_555
O30 Zn11 1_555 1_555
H83 C121 1_555 1_555
O31 Zn11 1_555 1_555
H84 O31 1_555 1_555
H85 O31 1_555 1_555
C123 N34 1_555 1_555
H86 C123 1_555 1_555
C124 C137 1_555 1_555
C126 N36 1_555 1_555
H88 C126 1_555 1_555
C127 N43 1_555 1_555
C132 C109 1_555 1_555
H89 C132 1_555 1_555
C137 O28 1_555 1_555
C142 N31 1_555 1_555
H94 C142 1_555 1_555
C144 N48 1_555 1_555
H96 C144 1_555 1_555
C145 N32 1_555 1_555
H97 C145 1_555 1_555
C149 N39 1_555 1_555
H99 C149 1_555 1_555
C151 N45 1_555 1_555
H101 C151 1_555 1_555
C153 N41 1_555 1_555
H102 C153 1_555 1_555
C158 N40 1_555 1_555
H108 C158 1_555 1_555
C160 C124 1_555 1_555
H112 C160 1_555 1_555
C163 C120 1_555 1_555
H115 C163 1_555 1_555
C165 C124 1_555 1_555
H117 C165 1_555 1_555
C167 C120 1_555 1_555
H119 C167 1_555 1_555
O40 Zn19 1_555 1_555
C83 C84 1_555 1_555
C98 C100 1_555 1_555
N27 N46 1_555 1_555
N29 N32 1_555 1_555
N29 N45 1_555 1_555
N30 N36 1_555 1_555
N33 N39 1_555 1_555
N33 N40 1_555 1_555
N35 N41 1_555 1_555
N35 N48 1_555 1_555
N46 C132 1_555 1_555
C112 C123 1_555 1_555
O30 C137 1_555 1_555
C121 C127 1_555 1_555
C126 C142 1_555 1_555
C127 C130 1_555 1_555
C144 C153 1_555 1_555
C145 C151 1_555 1_555
C149 C158 1_555 1_555
C160 C167 1_555 1_555
C163 C165 1_555 1_555
O40 C131 1_555 1_555
N37 C122 1_555 1_555
C118 C136 1_555 1_555
C119 C131 1_555 1_555
C122 C136 1_555 1_555
H87 C125 1_555 1_555
C128 N37 1_555 1_555
O33 C131 1_555 1_555
C134 C128 1_555 1_555
H90 C134 1_555 1_555
C136 C139 1_555 1_555
C138 C119 1_555 1_555
H92 C138 1_555 1_555
C140 C118 1_555 1_555
H93 C140 1_555 1_555
C154 C122 1_555 1_555
H105 C154 1_555 1_555
C161 C119 1_555 1_555
H113 C161 1_555 1_555
C162 C118 1_555 1_555
H114 C162 1_555 1_555
C125 C139 1_555 1_555
C134 C154 1_555 1_555
C138 C140 1_555 1_555
C161 C162 1_555 1_555
O3 C26 1_555 1_555
N11 C15 1_555 1_555
C11 C31 1_555 1_555
C12 C26 1_555 1_555
C15 C31 1_555 1_555
H16 C18 1_555 1_555
C22 N11 1_555 1_555
O15 C26 1_555 1_555
C29 C22 1_555 1_555
H20 C29 1_555 1_555
C31 C35 1_555 1_555
C34 C12 1_555 1_555
H22 C34 1_555 1_555
C36 C11 1_555 1_555
H23 C36 1_555 1_555
C56 C15 1_555 1_555
H36 C56 1_555 1_555
C71 C12 1_555 1_555
H49 C71 1_555 1_555
C74 C11 1_555 1_555
H51 C74 1_555 1_555
Zn17 O3 1_555 1_555
C18 C35 1_555 1_555
C29 C56 1_555 1_555
C34 C36 1_555 1_555
C71 C74 1_555 1_555
Zn1 N1 1_555 1_555
Zn2 N6 1_555 1_555
Zn17 N5 1_555 1_555
Zn4 N18 1_555 1_555
Zn5 N8 1_555 1_555
N1 N12 1_555 1_555
N2 Zn1 1_555 1_555
N3 Zn1 1_555 1_555
N4 Zn1 1_555 1_555
N5 N4 1_555 1_555
N6 N3 1_555 1_555
N7 Zn1 1_555 1_555
O2 Zn2 1_555 1_555
H1 O2 1_555 1_555
N8 N2 1_555 1_555
N9 Zn1 1_555 1_555
O4 Zn17 1_555 1_555
H3 O4 1_555 1_555
H4 O4 1_555 1_555
O6 Zn2 1_555 1_555
N10 Zn5 1_555 1_555
N12 Zn2 1_555 1_555
N13 Zn2 1_555 1_555
N14 Zn5 1_555 1_555
N15 Zn17 1_555 1_555
C1 N12 1_555 1_555
H5 C1 1_555 1_555
N18 N2 1_555 1_555
N19 Zn4 1_555 1_555
O9 C67 1_555 1_555
O10 Zn4 1_555 1_555
N20 Zn17 1_555 1_555
C4 N18 1_555 1_555
H7 C4 1_555 1_555
O11 Zn5 1_555 1_555
H8 O11 1_555 1_555
H9 O11 1_555 1_555
N22 Zn4 1_555 1_555
C13 C24 1_555 1_555
O12 Zn4 1_555 1_555
H12 C14 1_555 1_555
O13 Zn4 1_555 1_555
H13 O13 1_555 1_555
H14 O13 1_555 1_555
C16 N8 1_555 1_555
H15 C16 1_555 1_555
C17 C32 1_555 1_555
C19 N10 1_555 1_555
H17 C19 1_555 1_555
C21 N17 1_555 1_555
C25 C55 1_555 1_555
C27 C1 1_555 1_555
H19 C27 1_555 1_555
C32 O10 1_555 1_555
C38 N5 1_555 1_555
H24 C38 1_555 1_555
C42 C64 1_555 1_555
C43 N22 1_555 1_555
H27 C43 1_555 1_555
C44 N6 1_555 1_555
H28 C44 1_555 1_555
C49 N13 1_555 1_555
H30 C49 1_555 1_555
C51 N19 1_555 1_555
H32 C51 1_555 1_555
C54 N15 1_555 1_555
H33 C54 1_555 1_555
C62 N14 1_555 1_555
H40 C62 1_555 1_555
C64 H41 1_555 1_555
C66 C25 1_555 1_555
H43 C66 1_555 1_555
C67 O6 1_555 1_555
C70 C17 1_555 1_555
H48 C70 1_555 1_555
C75 C13 1_555 1_555
H52 C75 1_555 1_555
C79 C17 1_555 1_555
H56 C79 1_555 1_555
C81 C13 1_555 1_555
H58 C81 1_555 1_555
C107 C55 1_555 1_555
H72 C108 1_555 1_555
O38 Zn2 1_555 1_555
O42 Zn17 1_555 1_555
O44 Zn5 1_555 1_555
O46 Zn5 1_555 1_555
N1 N20 1_555 1_555
N3 N19 1_555 1_555
N4 N10 1_555 1_555
N7 N13 1_555 1_555
N7 N14 1_555 1_555
N9 N15 1_555 1_555
N9 N22 1_555 1_555
N20 C27 1_555 1_555
C4 C16 1_555 1_555
O12 C32 1_555 1_555
C14 C21 1_555 1_555
C19 C38 1_555 1_555
C21 C24 1_555 1_555
C42 C67 1_555 1_555
C43 C54 1_555 1_555
C44 C51 1_555 1_555
C49 C62 1_555 1_555
C64 C66 1_555 1_555
C70 C81 1_555 1_555
C75 C79 1_555 1_555
C107 C108 1_555 1_555
C110 H78 1_555 1_555
C113 C152 1_555 1_555
O44 C157 1_555 1_555
O46 C157 1_555 1_555
C146 C157 1_555 1_555
C159 C113 1_555 1_555
H111 C159 1_555 1_555
C164 C146 1_555 1_555
H116 C164 1_555 1_555
C166 C146 1_555 1_555
H118 C166 1_555 1_555
C168 C113 1_555 1_555
H120 C168 1_555 1_555
C110 C141 1_555 1_555
C141 C152 1_555 1_555
C159 C166 1_555 1_555
C164 C168 1_555 1_555
O42 C104 1_555 1_555
O21 C104 1_555 1_555
C85 H61 1_555 1_555
N26 Zn6_4 1_555 1_555
C88 C90 1_555 1_555
C89 C95 1_555 1_555
C90 H63 1_555 1_555
C92 N26 1_555 1_555
C93 C85 1_555 1_555
C95 C92 1_555 1_555
C96 C89 1_555 1_555
H64 C96 1_555 1_555
C102 C88 1_555 1_555
H68 C102 1_555 1_555
C104 C88 1_555 1_555
C105 C92 1_555 1_555
H70 C105 1_555 1_555
C106 C89 1_555 1_555
H71 C106 1_555 1_555
C90 C96 1_555 1_555
C93 C95 1_555 1_555
C102 C106 1_555 1_555
O18 Zn6_5 1_555 1_555
H45 O18 1_555 1_555
Zn6_6 N23 1_555 1_555
H18 C20 1_555 1_555
C63 C20 1_555 1_555
H42 C65 1_555 1_555
H50 C72 1_555 1_555
N23 C63 1_555 1_555
C65 C72 1_555 1_555
H62 C86 1_555 1_555
N25 Zn6_7 1_555 1_555
C97 C86 1_555 1_555
H66 C99 1_555 1_555
H69 C103 1_555 1_555
N25 C97 1_555 1_555
C99 C103 1_555 1_555
O36 Zn6_8 1_555 1_555
H110 O36 1_555 1_555
O27 C147 1_555 1_555
N42 Zn13 1_555 1_555
C111 C129 1_555 1_555
C114 N42 1_555 1_555
C115 N42 1_555 1_555
C116 C135 1_555 1_555
N47 Zn13 1_555 1_555
C117 H82 1_555 1_555
C129 C114 1_555 1_555
C133 N47 1_555 1_555
C135 H91 1_555 1_555
C143 C115 1_555 1_555
H95 C143 1_555 1_555
C147 C116 1_555 1_555
C148 C111 1_555 1_555
H98 C148 1_555 1_555
C150 C111 1_555 1_555
H100 C150 1_555 1_555
O35 Zn13 1_555 1_555
H104 O35 1_555 1_555
C155 C116 1_555 1_555
H106 C155 1_555 1_555
C156 C114 1_555 1_555
H107 C156 1_555 1_555
C117 C133 1_555 1_555
C129 C133 1_555 1_555
C135 C148 1_555 1_555
C143 C156 1_555 1_555
C150 C155 1_555 1_555

#END
