
###############################################################################
#
# This file contains modified crystal structure data generated from the
# MOF subset of the Cambridge Structural Database (CSD) v543 
# hosted by the Cambridge Crystallographic Data Centre (CCDC).
#
# This work is licensed under the Creative Commons
# Attribution-NonCommercial-ShareAlike 4.0 International License.
# To view a copy of this license, visit
# http://creativecommons.org/licenses/by-nc-sa/4.0/
# or send a letter to
# Creative Commons, PO Box 1866, Mountain View, CA 94042, USA.
#
# CIF created using the CSD Python API on 29 September 2022
# The structure has been converted into the P1 space group
# The structure has a 3D framework
# The original CSD entry EHAFEA is in the triclinic crystal system
# The framework has been calculated to contain at least 10.0% void space
# The void calculation uses a probe of radius 1.32A, grid spacing 0.4
#
###############################################################################

data_EHAFEA
_chemical_formula_moiety         '(C30 H26 O36 U4 Yb2)n'
_symmetry_cell_setting           triclinic
_symmetry_space_group_name_H-M   'P 1'
_symmetry_Int_Tables_number      1
_space_group_name_Hall           'P 1'
loop_
_symmetry_equiv_pos_site_id
_symmetry_equiv_pos_as_xyz
1 x,y,z
_cell_length_a                   10.509(2)
_cell_length_b                   11.480(3)
_cell_length_c                   13.426(3)
_cell_angle_alpha                69.137(3)
_cell_angle_beta                 78.671(4)
_cell_angle_gamma                63.564(3)
_cell_volume                     1353.9
loop_
_atom_site_label
_atom_site_type_symbol
_atom_site_fract_x
_atom_site_fract_y
_atom_site_fract_z
O11 O 0.3284(12) 0.1951(11) 0.0512(10)
U7 U 0.37767(6) 0.28600(6) 0.16397(5)
U2 U 0.0000 0.5000 0.5000
C2 C 0.1096(17) 0.3130(16) 0.9100(15)
H1 H 0.0944 0.3591 0.9588
C3 C 0.2457(18) 0.2149(17) 0.8958(14)
C4 C 0.2656(17) 0.1427(16) 0.8233(14)
C5 C 0.1467(18) 0.1650(17) 0.7732(15)
H2 H 0.1574 0.1121 0.7308
C6 C 0.0123(17) 0.2668(16) 0.7872(13)
C11 C 0.360(2) 0.1946(17) 0.9566(15)
C12 C 0.4075(19) 0.0420(17) 0.7950(14)
O3 O 0.0678(15) 0.4967(14) 0.6121(11)
O9 O 0.5046(13) 0.0792(13) 0.7553(11)
O10 O 0.4827(13) 0.1799(14) 0.9154(10)
Yb3 Yb 0.59779(8) 0.23117(7) 0.75074(6)
O41 O 0.1146(12) 0.6375(12) 0.3738(9)
O50 O 0.2653(15) 0.3659(14) 0.4666(13)
O51 O 0.1366(15) 0.2517(14) 0.5186(12)
O8 O 0.4153(12) 0.9219(13) 0.8170(11)
U5 U 0.62233(6) 0.71400(6) 0.83603(5)
C7 C 0.6287(19) 0.0019(17) 0.4480(15)
H3 H 0.7145 0.0017 0.4133
C17 C 0.3835(18) 0.1238(17) 0.4951(14)
C18 C 0.5138(17) 0.1232(17) 0.4444(13)
C19 C 0.5345(18) 0.2508(16) 0.3799(13)
C20 C 0.2562(18) 0.2525(18) 0.4939(14)
O21 O 0.5016(14) 0.3056(13) 0.2810(10)
O22 O 0.5905(16) 0.2974(13) 0.4208(11)
Yb2 Yb 0.40221(8) 0.76883(7) 0.24926(6)
C21 C 0.0030(18) 0.6574(17) 0.1477(14)
C27 C 0.1376(17) 0.5375(16) 0.1426(14)
C30 C 0.1078(18) 0.7071(16) 0.2754(14)
O25 O 0.4705(14) 0.3631(13) 0.0568(10)
O26 O 0.2796(15) 0.2133(14) 0.2679(11)
O27 O 0.1477(15) 0.4656(14) 0.0860(13)
O28 O 0.2386(14) 0.5029(13) 0.2006(11)
O29 O 0.1879(12) 0.7658(13) 0.2274(9)
O35 O 0.2905(16) 0.8461(14) 0.3891(11)
H17 H 0.2773 0.7876 0.4517
H18 H 0.2591 0.9352 0.3825
O36 O 0.3943(14) 0.5793(13) 0.3933(11)
H19 H 0.4185 0.4991 0.3821
H20 H 0.3669 0.5873 0.4593
O37 O 0.6293(18) 0.6265(17) 0.3135(18)
H21 H 0.6433 0.5497 0.3687
H22 H 0.7029 0.6489 0.2832
O38 O 0.4738(19) 0.5923(17) 0.1748(14)
H23 H 0.4782 0.5096 0.2165
H24 H 0.4972 0.6068 0.1046
O39 O 0.2393(14) 0.9847(13) 0.1621(12)
O43 O 0.5847(12) 0.0781(13) 0.1830(11)
O45 O 0.4954(13) 0.9208(13) 0.2447(11)
O47 O 0.5173(13) 0.8201(14) 0.0846(10)
U2_2 U 1.0000 0.5000 0.5000
C1 C 0.9970(18) 0.3426(17) 0.8523(14)
C8 C 0.6165(18) 0.8762(17) 0.5049(14)
C9 C 0.4862(17) 0.8768(17) 0.5556(13)
C10 C 0.8624(17) 0.4625(16) 0.8574(14)
C13 C 0.8922(18) 0.2929(16) 0.7246(14)
C14 C 0.4655(18) 0.7492(16) 0.6201(13)
C15 C 0.7438(18) 0.7475(18) 0.5061(14)
O1 O 0.5295(14) 0.6369(13) 0.9432(10)
O2 O 0.7204(15) 0.7867(14) 0.7321(11)
O4 O 0.8523(15) 0.5344(14) 0.9140(13)
O5 O 0.7614(14) 0.4971(13) 0.7994(11)
O6 O 0.8121(12) 0.2342(13) 0.7726(9)
O7 O 0.8854(12) 0.3625(12) 0.6262(9)
O12 O 0.4984(14) 0.6944(13) 0.7190(10)
O13 O 0.4095(16) 0.7026(13) 0.5792(11)
O14 O 0.7347(15) 0.6341(14) 0.5334(13)
O15 O 0.8634(15) 0.7483(14) 0.4814(12)
O16 O 0.7095(16) 0.1539(14) 0.6109(11)
H4 H 0.7227 0.2124 0.5483
H5 H 0.7409 0.0648 0.6175
O17 O 0.6057(14) 0.4207(13) 0.6067(11)
H6 H 0.5815 0.5009 0.6179
H7 H 0.6331 0.4127 0.5407
O18 O 0.3707(18) 0.3735(17) 0.6865(18)
H8 H 0.3567 0.4503 0.6313
H9 H 0.2971 0.3511 0.7168
O19 O 0.5262(19) 0.4077(17) 0.8252(14)
H10 H 0.5218 0.4904 0.7835
H11 H 0.5028 0.3932 0.8954
O20 O 0.7607(14) 0.0153(13) 0.8379(12)
C16 C 0.3713(19) 0.9981(17) 0.5520(15)
H14 H 0.2855 0.9983 0.5867
O40 O 0.9322(15) 0.5033(14) 0.3879(11)
O49 O 0.6716(12) 0.8049(11) 0.9488(10)
C22 C 0.8904(17) 0.6870(16) 0.0900(15)
H15 H 0.9056 0.6409 0.0412
C23 C 0.7543(18) 0.7851(17) 0.1042(14)
C24 C 0.7344(17) 0.8573(16) 0.1767(14)
C25 C 0.8533(18) 0.8350(17) 0.2268(15)
H16 H 0.8426 0.8879 0.2692
C26 C 0.9877(17) 0.7332(16) 0.2128(13)
C28 C 0.640(2) 0.8054(17) 0.0434(15)
C29 C 0.5925(19) 0.9580(17) 0.2050(14)
H25 H 0.1466 0.0118 0.1831
H26 H 0.2689 0.0413 0.1073
H12 H 0.8534 0.9882 0.8169
H13 H 0.7311 0.9587 0.8927
loop_
_geom_bond_atom_site_label_1
_geom_bond_atom_site_label_2
_geom_bond_site_symmetry_1
_geom_bond_site_symmetry_2
U7 O11 1_555 1_555
U2 O3 1_555 1_555
C2 H1 1_555 1_555
C3 C2 1_555 1_555
C4 C3 1_555 1_555
C5 C4 1_555 1_555
H2 C5 1_555 1_555
C11 C3 1_555 1_555
C12 C4 1_555 1_555
O9 C12 1_555 1_555
O10 C11 1_555 1_555
Yb3 O9 1_555 1_555
O41 U2 1_555 1_555
O50 U2 1_555 1_555
O51 U2 1_555 1_555
C5 C6 1_555 1_555
O10 Yb3 1_555 1_555
U5 O8 1_555 1_555
C7 H3 1_555 1_555
C18 C7 1_555 1_555
C19 C18 1_555 1_555
C20 C17 1_555 1_555
O21 C19 1_555 1_555
O22 C19 1_555 1_555
O50 C20 1_555 1_555
O51 C20 1_555 1_555
U7 O21 1_555 1_555
Yb2 O29 1_555 1_555
C27 C21 1_555 1_555
O25 U7 1_555 1_555
O26 U7 1_555 1_555
O27 U7 1_555 1_555
O28 U7 1_555 1_555
O29 C30 1_555 1_555
O41 C30 1_555 1_555
O35 Yb2 1_555 1_555
H17 O35 1_555 1_555
H18 O35 1_555 1_555
O36 Yb2 1_555 1_555
H19 O36 1_555 1_555
H20 O36 1_555 1_555
O37 Yb2 1_555 1_555
H21 O37 1_555 1_555
H22 O37 1_555 1_555
O38 Yb2 1_555 1_555
H23 O38 1_555 1_555
H24 O38 1_555 1_555
O39 Yb2 1_555 1_555
O43 U7 1_555 1_555
O45 Yb2 1_555 1_555
O47 Yb2 1_555 1_555
C17 C18 1_555 1_555
C27 O27 1_555 1_555
C27 O28 1_555 1_555
U5 O1 1_555 1_555
Yb3 O6 1_555 1_555
C9 C8 1_555 1_555
C10 C1 1_555 1_555
C14 C9 1_555 1_555
C15 C8 1_555 1_555
O2 U5 1_555 1_555
O4 U5 1_555 1_555
O5 U5 1_555 1_555
O6 C13 1_555 1_555
O7 U2_2 1_555 1_555
O12 U5 1_555 1_555
O13 C14 1_555 1_555
O14 U2_2 1_555 1_555
O15 U2_2 1_555 1_555
O16 Yb3 1_555 1_555
H4 O16 1_555 1_555
H5 O16 1_555 1_555
O17 Yb3 1_555 1_555
H6 O17 1_555 1_555
H7 O17 1_555 1_555
O18 Yb3 1_555 1_555
H8 O18 1_555 1_555
H9 O18 1_555 1_555
O19 Yb3 1_555 1_555
H10 O19 1_555 1_555
H11 O19 1_555 1_555
O20 Yb3 1_555 1_555
C16 C9 1_555 1_555
H14 C16 1_555 1_555
O40 U2_2 1_555 1_555
O49 U5 1_555 1_555
C10 O4 1_555 1_555
C10 O5 1_555 1_555
C13 O7 1_555 1_555
C14 O12 1_555 1_555
C15 O14 1_555 1_555
C15 O15 1_555 1_555
C22 H15 1_555 1_555
C23 C22 1_555 1_555
C24 C23 1_555 1_555
C25 C24 1_555 1_555
H16 C25 1_555 1_555
C28 C23 1_555 1_555
C29 C24 1_555 1_555
O45 C29 1_555 1_555
O47 C28 1_555 1_555
C25 C26 1_555 1_555

#END
