
###############################################################################
#
# This file contains modified crystal structure data generated from the
# MOF subset of the Cambridge Structural Database (CSD) v543 
# hosted by the Cambridge Crystallographic Data Centre (CCDC).
#
# This work is licensed under the Creative Commons
# Attribution-NonCommercial-ShareAlike 4.0 International License.
# To view a copy of this license, visit
# http://creativecommons.org/licenses/by-nc-sa/4.0/
# or send a letter to
# Creative Commons, PO Box 1866, Mountain View, CA 94042, USA.
#
# CIF created using the CSD Python API on 29 September 2022
# The structure has been converted into the P1 space group
# The structure has a 3D framework
# The original CSD entry EHAFOK is in the triclinic crystal system
# The framework has been calculated to contain at least 10.0% void space
# The void calculation uses a probe of radius 1.32A, grid spacing 0.4
#
###############################################################################

data_EHAFOK
_chemical_formula_moiety         '(C30 H30 O38 Pr2 U4)n'
_symmetry_cell_setting           triclinic
_symmetry_space_group_name_H-M   'P 1'
_symmetry_Int_Tables_number      1
_space_group_name_Hall           'P 1'
loop_
_symmetry_equiv_pos_site_id
_symmetry_equiv_pos_as_xyz
1 x,y,z
_cell_length_a                   10.8860(5)
_cell_length_b                   11.4737(4)
_cell_length_c                   13.4734(5)
_cell_angle_alpha                69.544(3)
_cell_angle_beta                 80.149(3)
_cell_angle_gamma                62.652(4)
_cell_volume                     1400.4
loop_
_atom_site_label
_atom_site_type_symbol
_atom_site_fract_x
_atom_site_fract_y
_atom_site_fract_z
O11 O 0.3124(5) 0.2133(5) 0.0545(4)
U7 U 0.36829(3) 0.29747(3) 0.16664(2)
U2 U -0.0000 0.5000 0.5000
O3 O 0.0655(6) 0.5004(5) 0.6108(4)
O9 O 0.5151(6) 0.0606(5) 0.7748(5)
O10 O 0.4756(6) 0.1750(6) 0.9315(5)
C1 C 0.0093(8) 0.3370(7) 0.8449(6)
C2 C 0.1166(8) 0.3116(7) 0.9041(6)
H13 H 0.0979 0.3616 0.9507
C3 C 0.2511(8) 0.2139(7) 0.8961(6)
C4 C 0.2774(8) 0.1355(7) 0.8271(6)
C5 C 0.1674(8) 0.1555(7) 0.7744(6)
H14 H 0.1834 0.0991 0.7336
C6 C 0.0323(7) 0.2578(7) 0.7800(5)
C11 C 0.3561(8) 0.1983(7) 0.9632(6)
C12 C 0.4184(8) 0.0292(7) 0.8082(6)
Pr3 Pr 0.61975(4) 0.21572(4) 0.77469(3)
O43 O 0.1001(5) 0.6443(5) 0.3774(4)
O52 O 0.2609(6) 0.3683(5) 0.4650(5)
O53 O 0.1417(6) 0.2488(5) 0.5228(5)
O8 O 0.4270(5) 0.9089(5) 0.8274(4)
U5 U 0.63171(3) 0.70253(3) 0.83336(2)
C7 C 0.6205(8) 0.0020(7) 0.4515(6)
H15 H 0.7025 0.0032 0.4187
O22 O 0.4920(5) 0.3090(5) 0.2872(4)
O23 O 0.5716(7) 0.3038(6) 0.4303(5)
C17 C 0.3831(8) 0.1245(7) 0.4959(6)
C18 C 0.5064(8) 0.1261(7) 0.4462(6)
C19 C 0.5223(8) 0.2557(7) 0.3856(6)
C20 C 0.2559(8) 0.2549(7) 0.4937(6)
Pr2 Pr 0.38025(4) 0.78428(4) 0.22531(3)
O26 O 0.4496(6) 0.3816(5) 0.0622(4)
O27 O 0.2855(6) 0.2141(6) 0.2708(4)
O28 O 0.1419(6) 0.4705(6) 0.0944(5)
O29 O 0.2257(5) 0.5158(5) 0.2052(5)
O30 O 0.1472(5) 0.7925(5) 0.2389(4)
O37 O 0.2838(8) 0.8243(10) 0.0461(6)
H19 H 0.3392 0.7790 0.0010
H20 H 0.1951 0.8836 0.0292
O38 O 0.5039(8) 0.5670(6) 0.1725(5)
H21 H 0.4817 0.5651 0.1119
H22 H 0.5702 0.4914 0.2141
O39 O 0.6110(7) 0.6378(7) 0.3252(6)
H23 H 0.6855 0.5817 0.2963
H24 H 0.6169 0.6432 0.3891
O40 O 0.3737(6) 0.5867(5) 0.3808(5)
H25 H 0.3390 0.5323 0.3737
H26 H 0.4062 0.5703 0.4437
O41 O 0.2940(7) 0.8625(6) 0.3837(5)
H27 H 0.2051 0.9226 0.3877
H28 H 0.3517 0.8310 0.4372
C27 C 0.1282(8) 0.5454(7) 0.1504(6)
C30 C 0.0814(7) 0.7235(7) 0.2828(6)
O45 O 0.5730(5) 0.0911(5) 0.1726(4)
O47 O 0.4849(6) 0.9394(5) 0.2252(5)
O49 O 0.5244(6) 0.8250(6) 0.0685(5)
U2_2 U 1.0000 0.5000 0.5000
O1 O 0.5504(6) 0.6184(5) 0.9378(4)
O2 O 0.7145(6) 0.7859(6) 0.7292(4)
O4 O 0.8581(6) 0.5295(6) 0.9056(5)
O5 O 0.7743(5) 0.4842(5) 0.7948(5)
O6 O 0.8528(5) 0.2075(5) 0.7611(4)
O7 O 0.8999(5) 0.3557(5) 0.6226(4)
O12 O 0.5080(5) 0.6910(5) 0.7128(4)
O13 O 0.4284(7) 0.6962(6) 0.5697(5)
O14 O 0.7391(6) 0.6317(5) 0.5350(5)
O15 O 0.8583(6) 0.7512(5) 0.4772(5)
O17 O 0.7162(8) 0.1757(10) 0.9539(6)
H3 H 0.6608 0.2210 0.9990
H4 H 0.8049 0.1164 0.9708
O18 O 0.4961(8) 0.4330(6) 0.8275(5)
H5 H 0.5183 0.4349 0.8881
H6 H 0.4298 0.5086 0.7859
O19 O 0.3890(7) 0.3622(7) 0.6748(6)
H7 H 0.3145 0.4183 0.7037
H8 H 0.3831 0.3568 0.6109
O20 O 0.6263(6) 0.4133(5) 0.6192(5)
H9 H 0.6610 0.4677 0.6263
H10 H 0.5938 0.4297 0.5563
O21 O 0.7060(7) 0.1375(6) 0.6163(5)
H11 H 0.7949 0.0774 0.6123
H12 H 0.6483 0.1690 0.5628
C8 C 0.6169(8) 0.8755(7) 0.5041(6)
C9 C 0.4936(8) 0.8739(7) 0.5538(6)
C10 C 0.8718(8) 0.4546(7) 0.8496(6)
C13 C 0.9186(7) 0.2765(7) 0.7172(6)
C14 C 0.4777(8) 0.7443(7) 0.6144(6)
C15 C 0.7441(8) 0.7451(7) 0.5063(6)
C16 C 0.3795(8) 0.9980(7) 0.5485(6)
H16 H 0.2975 0.9968 0.5813
O42 O 0.9345(6) 0.4996(5) 0.3892(4)
O51 O 0.6876(5) 0.7867(5) 0.9455(4)
C21 C 0.9907(8) 0.6630(7) 0.1551(6)
C22 C 0.8834(8) 0.6884(7) 0.0959(6)
H29 H 0.9021 0.6384 0.0493
C23 C 0.7489(8) 0.7861(7) 0.1039(6)
C24 C 0.7226(8) 0.8645(7) 0.1729(6)
C25 C 0.8326(8) 0.8445(7) 0.2256(6)
H30 H 0.8166 0.9009 0.2664
C26 C 0.9677(7) 0.7422(7) 0.2200(5)
C28 C 0.6439(8) 0.8017(7) 0.0368(6)
C29 C 0.5816(8) 0.9708(7) 0.1918(6)
O36 O 0.2040(7) 0.0265(6) 0.1647(6)
H17 H 0.1595 0.0587 0.1035
H18 H 0.1842 0.0824 0.2041
O16 O 0.7960(7) 0.9735(6) 0.8353(6)
H1 H 0.8405 0.9413 0.8965
H2 H 0.8158 0.9176 0.7959
loop_
_geom_bond_atom_site_label_1
_geom_bond_atom_site_label_2
_geom_bond_site_symmetry_1
_geom_bond_site_symmetry_2
U7 O11 1_555 1_555
U2 O3 1_555 1_555
O9 C12 1_555 1_555
O10 C11 1_555 1_555
C1 C2 1_555 1_555
C2 H13 1_555 1_555
C3 C2 1_555 1_555
C4 C3 1_555 1_555
C5 C4 1_555 1_555
H14 C5 1_555 1_555
C6 C1 1_555 1_555
C11 C3 1_555 1_555
C12 C4 1_555 1_555
Pr3 O9 1_555 1_555
O43 U2 1_555 1_555
O52 U2 1_555 1_555
O53 U2 1_555 1_555
O10 Pr3 1_555 1_555
C5 C6 1_555 1_555
U5 O8 1_555 1_555
C7 H15 1_555 1_555
O22 C19 1_555 1_555
O23 C19 1_555 1_555
O52 C20 1_555 1_555
O53 C20 1_555 1_555
C18 C7 1_555 1_555
C19 C18 1_555 1_555
C20 C17 1_555 1_555
U7 O22 1_555 1_555
Pr2 O30 1_555 1_555
O26 U7 1_555 1_555
O27 U7 1_555 1_555
O28 U7 1_555 1_555
O29 U7 1_555 1_555
O30 C30 1_555 1_555
O43 C30 1_555 1_555
O37 Pr2 1_555 1_555
H19 O37 1_555 1_555
H20 O37 1_555 1_555
O38 Pr2 1_555 1_555
H21 O38 1_555 1_555
H22 O38 1_555 1_555
O39 Pr2 1_555 1_555
H23 O39 1_555 1_555
H24 O39 1_555 1_555
O40 Pr2 1_555 1_555
H25 O40 1_555 1_555
H26 O40 1_555 1_555
O41 Pr2 1_555 1_555
H27 O41 1_555 1_555
H28 O41 1_555 1_555
C27 O28 1_555 1_555
O45 U7 1_555 1_555
O47 Pr2 1_555 1_555
O49 Pr2 1_555 1_555
C17 C18 1_555 1_555
O29 C27 1_555 1_555
U5 O1 1_555 1_555
Pr3 O6 1_555 1_555
O2 U5 1_555 1_555
O4 U5 1_555 1_555
O5 U5 1_555 1_555
O6 C13 1_555 1_555
O7 U2_2 1_555 1_555
O12 U5 1_555 1_555
O13 C14 1_555 1_555
O14 U2_2 1_555 1_555
O15 U2_2 1_555 1_555
O17 Pr3 1_555 1_555
H3 O17 1_555 1_555
H4 O17 1_555 1_555
O18 Pr3 1_555 1_555
H5 O18 1_555 1_555
H6 O18 1_555 1_555
O19 Pr3 1_555 1_555
H7 O19 1_555 1_555
H8 O19 1_555 1_555
O20 Pr3 1_555 1_555
H9 O20 1_555 1_555
H10 O20 1_555 1_555
O21 Pr3 1_555 1_555
H11 O21 1_555 1_555
H12 O21 1_555 1_555
C9 C8 1_555 1_555
C10 O4 1_555 1_555
C13 O7 1_555 1_555
C14 O12 1_555 1_555
C15 O14 1_555 1_555
C16 C9 1_555 1_555
H16 C16 1_555 1_555
O42 U2_2 1_555 1_555
O51 U5 1_555 1_555
O5 C10 1_555 1_555
O15 C15 1_555 1_555
C8 C15 1_555 1_555
C9 C14 1_555 1_555
O47 C29 1_555 1_555
O49 C28 1_555 1_555
C21 C22 1_555 1_555
C22 H29 1_555 1_555
C23 C22 1_555 1_555
C24 C23 1_555 1_555
C25 C24 1_555 1_555
H30 C25 1_555 1_555
C26 C21 1_555 1_555
C28 C23 1_555 1_555
C29 C24 1_555 1_555
C25 C26 1_555 1_555
H17 O36 1_555 1_555
H18 O36 1_555 1_555
H1 O16 1_555 1_555
H2 O16 1_555 1_555

#END
