
###############################################################################
#
# This file contains modified crystal structure data generated from the
# MOF subset of the Cambridge Structural Database (CSD) v543 
# hosted by the Cambridge Crystallographic Data Centre (CCDC).
#
# This work is licensed under the Creative Commons
# Attribution-NonCommercial-ShareAlike 4.0 International License.
# To view a copy of this license, visit
# http://creativecommons.org/licenses/by-nc-sa/4.0/
# or send a letter to
# Creative Commons, PO Box 1866, Mountain View, CA 94042, USA.
#
# CIF created using the CSD Python API on 29 September 2022
# The structure has been converted into the P1 space group
# The structure has a 3D framework
# The original CSD entry EHAGUR is in the triclinic crystal system
# The framework has been calculated to contain at least 10.0% void space
# The void calculation uses a probe of radius 1.32A, grid spacing 0.4
#
###############################################################################

data_EHAGUR
_chemical_formula_moiety         '(C30 H26 Dy2 O36 U4)n'
_symmetry_cell_setting           triclinic
_symmetry_space_group_name_H-M   'P 1'
_symmetry_Int_Tables_number      1
_space_group_name_Hall           'P 1'
loop_
_symmetry_equiv_pos_site_id
_symmetry_equiv_pos_as_xyz
1 x,y,z
_cell_length_a                   10.5363(6)
_cell_length_b                   11.4698(6)
_cell_length_c                   13.4114(7)
_cell_angle_alpha                69.0280(10)
_cell_angle_beta                 78.4060(10)
_cell_angle_gamma                63.4140(10)
_cell_volume                     1351.75
loop_
_atom_site_label
_atom_site_type_symbol
_atom_site_fract_x
_atom_site_fract_y
_atom_site_fract_z
O11 O 0.3263(7) 0.1965(7) 0.0524(5)
U7 U 0.37618(3) 0.28755(3) 0.16304(3)
U2 U 0.0000 0.5000 0.5000
C2 C 0.1110(9) 0.3120(9) 0.9105(8)
H1 H 0.0958 0.3577 0.9597
C3 C 0.2479(9) 0.2151(10) 0.8947(7)
C4 C 0.2666(9) 0.1419(10) 0.8237(7)
C5 C 0.1457(9) 0.1648(10) 0.7751(8)
H2 H 0.1557 0.1096 0.7349
C6 C 0.0155(9) 0.2656(9) 0.7861(7)
C11 C 0.3623(9) 0.1927(9) 0.9579(7)
C12 C 0.4083(9) 0.0410(10) 0.7948(7)
O3 O 0.0684(8) 0.4998(8) 0.6096(6)
O9 O 0.5021(7) 0.0771(8) 0.7519(6)
O10 O 0.4836(7) 0.1748(8) 0.9167(5)
Dy3 Dy 0.60033(4) 0.22942(5) 0.74930(4)
O41 O 0.1123(6) 0.6377(7) 0.3717(5)
O50 O 0.2670(8) 0.3664(8) 0.4664(7)
O51 O 0.1339(8) 0.2495(8) 0.5209(6)
O8 O 0.4170(7) 0.9201(7) 0.8200(6)
U5 U 0.62382(3) 0.71245(3) 0.83696(3)
C16 C 0.3740(10) 0.0013(11) 0.5485(8)
H14 H 0.2874 0.0020 0.5817
C17 C 0.3814(10) 0.1243(10) 0.4940(8)
C18 C 0.5121(9) 0.1241(10) 0.4429(7)
C19 C 0.5320(9) 0.2526(10) 0.3779(7)
C20 C 0.2569(10) 0.2545(10) 0.4916(8)
O21 O 0.4980(7) 0.3049(7) 0.2816(5)
O22 O 0.5893(9) 0.2985(8) 0.4184(6)
Dy2 Dy 0.39967(4) 0.77058(5) 0.25070(4)
C21 C 0.0036(10) 0.6585(10) 0.1462(7)
C27 C 0.1379(10) 0.5370(11) 0.1393(8)
C30 C 0.1036(9) 0.7087(9) 0.2750(7)
O25 O 0.4686(7) 0.3658(8) 0.0548(6)
O26 O 0.2809(7) 0.2113(8) 0.2694(6)
O27 O 0.1496(7) 0.4647(8) 0.0852(7)
O28 O 0.2381(7) 0.5050(8) 0.1969(6)
O29 O 0.1850(7) 0.7662(7) 0.2280(5)
O35 O 0.2819(8) 0.8477(8) 0.3965(6)
H17 H 0.3284 0.8189 0.4560
H18 H 0.1898 0.9067 0.3931
O36 O 0.3916(7) 0.5790(8) 0.3951(6)
H19 H 0.4716 0.5142 0.4279
H20 H 0.3084 0.5713 0.4171
O37 O 0.6321(9) 0.6238(10) 0.3178(8)
H21 H 0.6835 0.5468 0.2993
H22 H 0.6681 0.6451 0.3608
O38 O 0.4766(10) 0.5898(10) 0.1741(7)
H23 H 0.5630 0.5203 0.1875
H24 H 0.4192 0.5911 0.1318
O39 O 0.2331(8) 0.9896(8) 0.1642(7)
O43 O 0.5830(7) 0.0799(7) 0.1800(6)
O45 O 0.4979(7) 0.9229(8) 0.2481(6)
O47 O 0.5164(7) 0.8252(8) 0.0833(5)
U2_2 U 1.0000 0.5000 0.5000
C1 C 0.9964(10) 0.3415(10) 0.8538(7)
C7 C 0.6260(10) 0.9987(11) 0.4515(8)
H3 H 0.7126 0.9980 0.4183
C8 C 0.6186(10) 0.8757(10) 0.5060(8)
C9 C 0.4879(9) 0.8759(10) 0.5571(7)
C10 C 0.8621(10) 0.4630(11) 0.8607(8)
C13 C 0.8964(9) 0.2913(9) 0.7250(7)
C14 C 0.4680(9) 0.7474(10) 0.6221(7)
C15 C 0.7431(10) 0.7455(10) 0.5084(8)
O1 O 0.5314(7) 0.6342(8) 0.9452(6)
O2 O 0.7191(7) 0.7887(8) 0.7306(6)
O4 O 0.8504(7) 0.5353(8) 0.9148(7)
O5 O 0.7619(7) 0.4950(8) 0.8031(6)
O6 O 0.8150(7) 0.2338(7) 0.7720(5)
O7 O 0.8877(6) 0.3623(7) 0.6283(5)
O12 O 0.5020(7) 0.6951(7) 0.7184(5)
O13 O 0.4107(9) 0.7015(8) 0.5816(6)
O14 O 0.7330(8) 0.6336(8) 0.5336(7)
O15 O 0.8661(8) 0.7505(8) 0.4791(6)
O16 O 0.7181(8) 0.1523(8) 0.6035(6)
H4 H 0.6716 0.1811 0.5440
H5 H 0.8102 0.0933 0.6069
O17 O 0.6084(7) 0.4210(8) 0.6049(6)
H6 H 0.5284 0.4858 0.5721
H7 H 0.6916 0.4287 0.5829
O18 O 0.3679(9) 0.3762(10) 0.6822(8)
H8 H 0.3165 0.4532 0.7007
H9 H 0.3319 0.3549 0.6392
O19 O 0.5234(10) 0.4102(10) 0.8259(7)
H10 H 0.4370 0.4797 0.8125
H11 H 0.5808 0.4089 0.8682
O20 O 0.7669(8) 0.0104(8) 0.8358(7)
O40 O 0.9316(8) 0.5002(8) 0.3904(6)
O49 O 0.6737(7) 0.8035(7) 0.9476(5)
C22 C 0.8890(9) 0.6880(9) 0.0895(8)
H15 H 0.9042 0.6423 0.0403
C23 C 0.7521(9) 0.7849(10) 0.1053(7)
C24 C 0.7334(9) 0.8581(10) 0.1763(7)
C25 C 0.8543(9) 0.8352(10) 0.2249(8)
H16 H 0.8443 0.8904 0.2651
C26 C 0.9845(9) 0.7344(9) 0.2139(7)
C28 C 0.6377(9) 0.8073(9) 0.0421(7)
C29 C 0.5917(9) 0.9590(10) 0.2052(7)
H25 H 0.2572 0.0613 0.1411
H26 H 0.1454 0.0019 0.1545
H12 H 0.7428 0.9387 0.8589
H13 H 0.8546 0.9981 0.8455
loop_
_geom_bond_atom_site_label_1
_geom_bond_atom_site_label_2
_geom_bond_site_symmetry_1
_geom_bond_site_symmetry_2
U7 O11 1_555 1_555
U2 O3 1_555 1_555
C2 H1 1_555 1_555
C3 C2 1_555 1_555
C4 C3 1_555 1_555
C5 C4 1_555 1_555
H2 C5 1_555 1_555
C11 C3 1_555 1_555
C12 C4 1_555 1_555
O9 C12 1_555 1_555
O10 C11 1_555 1_555
Dy3 O9 1_555 1_555
O41 U2 1_555 1_555
O50 U2 1_555 1_555
O51 U2 1_555 1_555
C5 C6 1_555 1_555
O10 Dy3 1_555 1_555
U5 O8 1_555 1_555
H14 C16 1_555 1_555
C17 C16 1_555 1_555
C19 C18 1_555 1_555
C20 C17 1_555 1_555
O21 C19 1_555 1_555
O22 C19 1_555 1_555
O50 C20 1_555 1_555
O51 C20 1_555 1_555
U7 O21 1_555 1_555
Dy2 O29 1_555 1_555
C27 C21 1_555 1_555
O25 U7 1_555 1_555
O26 U7 1_555 1_555
O27 U7 1_555 1_555
O28 U7 1_555 1_555
O29 C30 1_555 1_555
O41 C30 1_555 1_555
O35 Dy2 1_555 1_555
H17 O35 1_555 1_555
H18 O35 1_555 1_555
O36 Dy2 1_555 1_555
H19 O36 1_555 1_555
H20 O36 1_555 1_555
O37 Dy2 1_555 1_555
H21 O37 1_555 1_555
H22 O37 1_555 1_555
O38 Dy2 1_555 1_555
H23 O38 1_555 1_555
H24 O38 1_555 1_555
O39 Dy2 1_555 1_555
O43 U7 1_555 1_555
O45 Dy2 1_555 1_555
O47 Dy2 1_555 1_555
C17 C18 1_555 1_555
C27 O27 1_555 1_555
C27 O28 1_555 1_555
U5 O1 1_555 1_555
Dy3 O6 1_555 1_555
C7 H3 1_555 1_555
C8 C7 1_555 1_555
C9 C8 1_555 1_555
C10 C1 1_555 1_555
C14 C9 1_555 1_555
C15 C8 1_555 1_555
O2 U5 1_555 1_555
O4 U5 1_555 1_555
O5 U5 1_555 1_555
O6 C13 1_555 1_555
O7 U2_2 1_555 1_555
O12 U5 1_555 1_555
O13 C14 1_555 1_555
O14 U2_2 1_555 1_555
O15 U2_2 1_555 1_555
O16 Dy3 1_555 1_555
H4 O16 1_555 1_555
H5 O16 1_555 1_555
O17 Dy3 1_555 1_555
H6 O17 1_555 1_555
H7 O17 1_555 1_555
O18 Dy3 1_555 1_555
H8 O18 1_555 1_555
H9 O18 1_555 1_555
O19 Dy3 1_555 1_555
H10 O19 1_555 1_555
H11 O19 1_555 1_555
O20 Dy3 1_555 1_555
O40 U2_2 1_555 1_555
O49 U5 1_555 1_555
C10 O4 1_555 1_555
C10 O5 1_555 1_555
C13 O7 1_555 1_555
C14 O12 1_555 1_555
C15 O14 1_555 1_555
C15 O15 1_555 1_555
C22 H15 1_555 1_555
C23 C22 1_555 1_555
C24 C23 1_555 1_555
C25 C24 1_555 1_555
H16 C25 1_555 1_555
C28 C23 1_555 1_555
C29 C24 1_555 1_555
O45 C29 1_555 1_555
O47 C28 1_555 1_555
C25 C26 1_555 1_555

#END
