
###############################################################################
#
# This file contains modified crystal structure data generated from the
# MOF subset of the Cambridge Structural Database (CSD) v543 
# hosted by the Cambridge Crystallographic Data Centre (CCDC).
#
# This work is licensed under the Creative Commons
# Attribution-NonCommercial-ShareAlike 4.0 International License.
# To view a copy of this license, visit
# http://creativecommons.org/licenses/by-nc-sa/4.0/
# or send a letter to
# Creative Commons, PO Box 1866, Mountain View, CA 94042, USA.
#
# CIF created using the CSD Python API on 29 September 2022
# The structure has been converted into the P1 space group
# The structure has a 3D framework
# The original CSD entry EHAGEA is in the rhombohedral crystal system
# The framework has been calculated to contain at least 10.0% void space
# The void calculation uses a probe of radius 1.32A, grid spacing 0.4
# The framework is charged, counterions have been retained in the structure
#
###############################################################################

data_EHAGEA
_chemical_formula_moiety         '(C18 H18 Al6 Na5 O33 12-)n'
_symmetry_cell_setting           triclinic
_symmetry_space_group_name_H-M   'P 1'
_symmetry_Int_Tables_number      1
_space_group_name_Hall           'P 1'
loop_
_symmetry_equiv_pos_site_id
_symmetry_equiv_pos_as_xyz
1 x,y,z
_cell_length_a                   8.2510(10)
_cell_length_b                   8.2510(10)
_cell_length_c                   22.949(3)
_cell_angle_alpha                90
_cell_angle_beta                 90
_cell_angle_gamma                120
_cell_volume                     1353.03
loop_
_atom_site_label
_atom_site_type_symbol
_atom_site_fract_x
_atom_site_fract_y
_atom_site_fract_z
Na1 Na 0.0000 0.0000 0.0000
O8 O 0.2358(4) 0.2373(3) 0.06147(9)
Na1_2 Na 0.0000 0.0000 1.0000
O12 O 0.2373(3) 0.0015(3) 0.93853(9)
Na1_3 Na 0.0000 1.0000 0.0000
O10 O 0.0015(3) 0.7642(4) 0.06147(9)
Na1_4 Na 0.0000 1.0000 1.0000
Na1_5 Na 1.0000 0.0000 0.0000
Na6 Na 0.6667 0.3333 0.3333
H6 H 0.5722 0.0022 0.2343
O17 O 0.4309(4) 0.0960(3) 0.27186(9)
Na1_6 Na 1.0000 0.0000 1.0000
O13 O 0.9985(3) 0.2358(4) 0.93853(9)
Al1 Al 0.3333 0.6666 0.1667
Na1_7 Na 1.0000 1.0000 0.0000
O1 O 0.5169(2) 0.8611(2) 0.11946(7)
C1 C 0.6541(3) 0.8701(3) 0.09229(10)
H1 H 0.2366 0.9055 0.0990
O2 O 0.7627(3) 0.9985(3) 0.06147(9)
O3 O 0.1389(2) 0.6558(3) 0.11946(7)
O4 O 0.3442(3) 0.4831(2) 0.11946(7)
O5 O 0.5278(2) 0.6775(3) 0.21387(7)
O6 O 0.3225(3) 0.8502(2) 0.21387(7)
O7 O 0.1498(2) 0.4722(2) 0.21387(7)
C2 C 0.1299(3) 0.7840(4) 0.09229(10)
C3 C 0.2160(4) 0.3459(3) 0.09229(10)
C4 C 0.0126(3) 0.4632(3) 0.24104(10)
C5 C 0.5368(3) 0.5493(4) 0.24104(10)
C6 C 0.4507(4) 0.9874(3) 0.24104(10)
H2 H 0.6689 0.7634 0.0990
H3 H 0.0945 0.3311 0.0990
H5 H 0.4301 0.4278 0.2343
O16 O 0.6652(3) 0.5691(4) 0.27186(9)
Na1_8 Na 1.0000 1.0000 1.0000
O11 O 0.7642(4) 0.7627(3) 0.93853(9)
H4 H 0.9978 0.5699 0.2343
O15 O 0.9040(3) 0.3348(3) 0.27186(9)
Al1_2 Al -0.0000 -0.0001 0.5000
O1_2 O 0.1836(2) 0.1944(2) 0.45279(7)
C1_2 C 0.3208(3) 0.2034(3) 0.42562(10)
O2_2 O 0.4294(3) 0.3318(3) 0.39480(9)
Na6_2 Na 0.3333 0.6667 0.6667
O5_2 O 0.1944(2) 0.0109(3) 0.54721(7)
C6_2 C 0.1173(4) 0.3208(3) 0.57438(10)
H2_2 H 0.3356 0.0967 0.4323
H6_2 H 0.2388 0.3356 0.5677
O8_2 O 0.9025(4) 0.5706(3) 0.39480(9)
O10_2 O 0.6682(3) 0.0975(4) 0.39480(9)
O17_2 O 0.0975(4) 0.4294(3) 0.60520(9)
Al1_3 Al -0.0000 0.9999 0.5000
O4_2 O 0.0109(3) 0.8164(2) 0.45279(7)
C5_2 C 0.2034(3) 0.8827(4) 0.57438(10)
H5_2 H 0.0967 0.7612 0.5677
O16_2 O 0.3318(3) 0.9025(4) 0.60520(9)
Al1_4 Al 1.0000 -0.0001 0.5000
H1_2 H 0.9033 0.2388 0.4323
O6_2 O 0.9891(3) 0.1836(2) 0.54721(7)
C2_2 C 0.7966(3) 0.1173(4) 0.42562(10)
Al1_5 Al 1.0000 0.9999 0.5000
O3_2 O 0.8056(2) 0.9891(3) 0.45279(7)
O7_2 O 0.8164(2) 0.8056(2) 0.54721(7)
C3_2 C 0.8827(4) 0.6792(3) 0.42562(10)
C4_2 C 0.6792(3) 0.7966(3) 0.57438(10)
H3_2 H 0.7612 0.6644 0.4323
H4_2 H 0.6644 0.9033 0.5677
O15_2 O 0.5706(3) 0.6682(3) 0.60520(9)
O2_3 O 0.0960(3) 0.6652(3) 0.72814(9)
H2_3 H 0.0022 0.4301 0.7657
O8_3 O 0.5691(4) 0.9040(3) 0.72814(9)
O10_3 O 0.3348(3) 0.4309(4) 0.72814(9)
Al1_6 Al 0.6666 0.3333 0.8334
O1_3 O 0.8502(2) 0.5278(2) 0.78613(7)
C1_3 C 0.9874(3) 0.5368(3) 0.75896(10)
H1_3 H 0.5699 0.5722 0.7657
O3_3 O 0.4722(2) 0.3225(3) 0.78613(7)
O4_3 O 0.6775(3) 0.1498(2) 0.78613(7)
O5_3 O 0.8611(2) 0.3442(3) 0.88054(7)
O6_3 O 0.6558(3) 0.5169(2) 0.88054(7)
O7_3 O 0.4831(2) 0.1389(2) 0.88054(7)
C2_3 C 0.4632(3) 0.4507(4) 0.75896(10)
C3_3 C 0.5493(4) 0.0126(3) 0.75896(10)
C4_3 C 0.3459(3) 0.1299(3) 0.90771(10)
C5_3 C 0.8701(3) 0.2160(4) 0.90771(10)
C6_3 C 0.7840(4) 0.6541(3) 0.90771(10)
H4_3 H 0.3311 0.2366 0.9010
H5_3 H 0.7634 0.0945 0.9010
H6_3 H 0.9055 0.6689 0.9010
H3_3 H 0.4278 0.9978 0.7657
loop_
_geom_bond_atom_site_label_1
_geom_bond_atom_site_label_2
_geom_bond_site_symmetry_1
_geom_bond_site_symmetry_2
O8 Na1 1_555 1_555
O12 Na1_2 1_555 1_555
O10 Na1_3 1_555 1_555
Na6 O17 1_555 1_555
O13 Na1_6 1_555 1_555
Al1 O1 1_555 1_555
Na1_7 O2 1_555 1_555
O1 C1 1_555 1_555
C1 O2 1_555 1_555
H1 C2 1_555 1_555
Na6 O16 1_555 1_555
O3 Al1 1_555 1_555
O4 Al1 1_555 1_555
O5 Al1 1_555 1_555
O6 Al1 1_555 1_555
O7 Al1 1_555 1_555
C2 O3 1_555 1_555
C3 O4 1_555 1_555
C4 O7 1_555 1_555
C5 O5 1_555 1_555
C6 O6 1_555 1_555
H2 C1 1_555 1_555
H3 C3 1_555 1_555
H5 C5 1_555 1_555
O10 C2 1_555 1_555
O8 C3 1_555 1_555
O16 C5 1_555 1_555
O11 Na1_8 1_555 1_555
Na6 O15 1_555 1_555
Al1_2 O1_2 1_555 1_555
Na6 O2_2 1_555 1_555
O1_2 C1_2 1_555 1_555
C1_2 O2_2 1_555 1_555
Na6_2 O17_2 1_555 1_555
O5_2 Al1_2 1_555 1_555
H2_2 C1_2 1_555 1_555
H6_2 C6_2 1_555 1_555
O8_2 Na6 1_555 1_555
O10_2 Na6 1_555 1_555
O17_2 C6_2 1_555 1_555
Na6_2 O16_2 1_555 1_555
O4_2 Al1_3 1_555 1_555
H5_2 C5_2 1_555 1_555
O16_2 C5_2 1_555 1_555
H1_2 C2_2 1_555 1_555
O6_2 Al1_4 1_555 1_555
O10_2 C2_2 1_555 1_555
Na6_2 O15_2 1_555 1_555
O3_2 Al1_5 1_555 1_555
O7_2 Al1_5 1_555 1_555
C4_2 O7_2 1_555 1_555
H3_2 C3_2 1_555 1_555
H4_2 C4_2 1_555 1_555
O8_2 C3_2 1_555 1_555
O15_2 C4_2 1_555 1_555
Na6_2 O2_3 1_555 1_555
O8_3 Na6_2 1_555 1_555
O10_3 Na6_2 1_555 1_555
Al1_6 O1_3 1_555 1_555
O1_3 C1_3 1_555 1_555
H1_3 C2_3 1_555 1_555
O3_3 Al1_6 1_555 1_555
O4_3 Al1_6 1_555 1_555
O5_3 Al1_6 1_555 1_555
O6_3 Al1_6 1_555 1_555
O7_3 Al1_6 1_555 1_555
C2_3 O3_3 1_555 1_555
C3_3 O4_3 1_555 1_555
C4_3 O7_3 1_555 1_555
C5_3 O5_3 1_555 1_555
C6_3 O6_3 1_555 1_555
H4_3 C4_3 1_555 1_555
H5_3 C5_3 1_555 1_555
H6_3 C6_3 1_555 1_555
O10_3 C2_3 1_555 1_555
O12 C4_3 1_555 1_555
O13 C5_3 1_555 1_555
O11 C6_3 1_555 1_555

#END
