
###############################################################################
#
# This file contains modified crystal structure data generated from the
# MOF subset of the Cambridge Structural Database (CSD) v543 
# hosted by the Cambridge Crystallographic Data Centre (CCDC).
#
# This work is licensed under the Creative Commons
# Attribution-NonCommercial-ShareAlike 4.0 International License.
# To view a copy of this license, visit
# http://creativecommons.org/licenses/by-nc-sa/4.0/
# or send a letter to
# Creative Commons, PO Box 1866, Mountain View, CA 94042, USA.
#
# CIF created using the CSD Python API on 29 September 2022
# The structure has been converted into the P1 space group
# The structure has a 3D framework
# The original CSD entry EHEFAB is in the hexagonal crystal system
# The original CSD entry EHEFAB is in a Sohncke space group
# The framework has been calculated to contain at least 10.0% void space
# The void calculation uses a probe of radius 1.32A, grid spacing 0.4
#
###############################################################################

data_EHEFAB
_chemical_formula_moiety         '(C192 H120 Ni18 O60 S20)n'
_symmetry_cell_setting           triclinic
_symmetry_space_group_name_H-M   'P 1'
_symmetry_Int_Tables_number      1
_space_group_name_Hall           'P 1'
loop_
_symmetry_equiv_pos_site_id
_symmetry_equiv_pos_as_xyz
1 x,y,z
_cell_length_a                   19.0942(6)
_cell_length_b                   19.0942(6)
_cell_length_c                   21.3587(8)
_cell_angle_alpha                90
_cell_angle_beta                 90
_cell_angle_gamma                120
_cell_volume                     6743.86
loop_
_atom_site_label
_atom_site_type_symbol
_atom_site_fract_x
_atom_site_fract_y
_atom_site_fract_z
Ni1 Ni 0.08128(13) 0.04064(6) 0.083333
S1 S 0.17117(15) 0.16398(16) 0.07847(16)
O3 O 0.3082(5) 0.5998(5) 0.0089(5)
O4 O 0.3742(4) 0.5960(5) 0.0943(5)
H5 H 0.027043 0.291635 0.123167
C8 C 0.0349(7) 0.1703(6) 0.0672(5)
C9 C 0.1190(6) 0.2151(6) 0.0711(5)
C10 C 0.1656(6) 0.3034(6) 0.0663(5)
C11 C 0.2344(8) 0.3463(7) 0.1079(7)
H7 H 0.244955 0.318235 0.139907
C12 C 0.2846(9) 0.4293(7) 0.1003(6)
H8 H 0.331707 0.457948 0.125270
C13 C 0.2652(6) 0.4697(6) 0.0558(5)
C14 C 0.2019(6) 0.4309(6) 0.0163(6)
C15 C 0.1515(7) 0.3458(6) 0.0197(6)
C16 C 0.3196(7) 0.5626(6) 0.0526(5)
Ni8 Ni 0.42900(10) 0.71450(7) 0.083334
S5 S 0.17117(15) 0.00719(22) 0.08820(16)
H9 H 0.191146 0.460830 0.986118
H10 H 0.108706 0.318057 0.990622
Ni7 Ni 0.35949(7) 0.64052(16) 0.916666
Ni2 Ni 0.71897(14) 0.35949(7) 0.083333
S2 S 0.98745(16) 0.06964(17) 0.07507(16)
O1 O 0.8081(5) 0.3336(5) 0.0632(4)
O5 O 0.6228(7) 0.3781(8) 0.1074(6)
H1 H 0.610783 0.366652 0.145813
H2 H 0.637433 0.427512 0.101183
C1 C 0.8077(7) 0.2823(7) 0.0298(6)
C2 C 0.8709(6) 0.2572(6) 0.0395(5)
C3 C 0.8659(8) 0.1959(8) 0.0042(6)
C4 C 0.9191(7) 0.1672(7) 0.0126(6)
C5 C 0.9799(6) 0.2034(6) 0.0589(5)
C6 C 0.9847(6) 0.2655(5) 0.0934(5)
C7 C 0.9301(6) 0.2911(7) 0.0862(5)
H6 H 0.932183 0.331971 0.112816
O10 O 0.6228(7) 0.2447(11) 0.0593(6)
H19 H 0.610783 0.244131 0.020854
H20 H 0.637433 0.209921 0.065484
O11 O 0.8081(5) 0.4745(7) 0.1035(4)
O12 O 0.7084(7) 0.3082(5) 0.1756(5)
Ni3 Ni 0.71450(7) 0.28550(7) 0.916667
O2 O 0.7636(7) 0.2521(7) 0.9812(6)
H3 H 0.825156 0.172122 0.972984
H4 H 0.914794 0.124004 0.987684
S4 S 0.93036(17) 0.01255(16) 0.75826(16)
O6 O 0.6664(5) 0.1919(5) 0.7701(4)
O7 O 0.7479(7) 0.2364(7) 0.8521(6)
C17 C 0.7177(7) 0.1923(7) 0.8035(6)
C18 C 0.7428(6) 0.1291(6) 0.7938(5)
C19 C 0.8041(8) 0.1341(8) 0.8291(6)
H11 H 0.827878 0.174844 0.860349
C20 C 0.8328(7) 0.0809(7) 0.8207(6)
H12 H 0.875996 0.085206 0.845649
C21 C 0.7966(6) 0.0201(6) 0.7744(5)
C22 C 0.7345(5) 0.0153(6) 0.7399(5)
C23 C 0.7089(7) 0.0699(6) 0.7471(5)
H14 H 0.668029 0.067817 0.720517
Ni5 Ni 0.64052(16) 0.28103(14) 0.750000
O13 O 0.7084(7) 0.4002(5) 0.9911(5)
O14 O 0.5960(5) 0.2218(6) 0.9276(5)
O15 O 0.7782(6) 0.4040(5) 0.9057(5)
S6 S 0.98745(16) 0.91781(23) 0.09160(16)
S3 S 0.83602(16) 0.82883(15) 0.75486(16)
O8 O 0.4002(5) 0.6918(5) 0.8244(5)
O9 O 0.4040(5) 0.6258(4) 0.7390(5)
H13 H 0.708365 0.972957 0.710166
C24 C 0.8297(6) 0.9651(7) 0.7661(5)
C25 C 0.7849(6) 0.8810(6) 0.7622(5)
C26 C 0.6966(6) 0.8344(6) 0.7670(5)
C27 C 0.6537(7) 0.7656(8) 0.7254(7)
H15 H 0.681765 0.755045 0.693426
C28 C 0.5707(7) 0.7154(9) 0.7330(6)
H16 H 0.542052 0.668293 0.708063
C29 C 0.5303(6) 0.7348(6) 0.7775(5)
C30 C 0.5691(6) 0.7981(6) 0.8170(6)
H17 H 0.539170 0.808854 0.847215
C31 C 0.6542(6) 0.8485(7) 0.8136(6)
H18 H 0.681943 0.891294 0.842711
C32 C 0.4374(6) 0.6804(7) 0.7807(5)
Ni4 Ni 0.95936(14) 0.91872(13) 0.750000
Ni9 Ni 0.28550(7) 0.57100(10) 0.750000
Ni1_2 Ni 0.04064(14) 0.08128(13) 0.250000
S1_2 S 0.00719(22) 0.17117(15) 0.24514(16)
S5_2 S 0.16398(27) 0.17117(15) 0.25486(16)
S6_2 S 0.06964(28) 0.98745(16) 0.25826(16)
S3_2 S 0.00719(22) 0.83602(16) 0.92153(16)
Ni4_2 Ni 0.04064(19) 0.95936(14) 0.916666
O4_2 O 0.7782(6) 0.3742(4) 0.2610(5)
H5_2 H 0.735408 0.027043 0.289834
C8_2 C 0.8646(9) 0.0349(7) 0.2339(5)
C9_2 C 0.9039(8) 0.1190(6) 0.2378(5)
C10_2 C 0.8622(8) 0.1656(6) 0.2330(5)
C11_2 C 0.8881(11) 0.2344(8) 0.2746(7)
H7_2 H 0.926720 0.244955 0.306574
C12_2 C 0.8553(11) 0.2846(9) 0.2670(6)
H8_2 H 0.873759 0.331707 0.291937
C13_2 C 0.7955(8) 0.2652(6) 0.2225(5)
C14_2 C 0.7710(8) 0.2019(6) 0.1830(6)
H9_2 H 0.730316 0.191146 0.152785
C15_2 C 0.8057(9) 0.1515(7) 0.1864(6)
H10_2 H 0.790649 0.108706 0.157289
C16_2 C 0.7570(9) 0.3196(7) 0.2193(5)
Ni8_2 Ni 0.71450(12) 0.42900(10) 0.250000
Ni2_2 Ni 0.35948(16) 0.71897(14) 0.250000
S2_2 S 0.91781(23) 0.98745(16) 0.24174(16)
O1_2 O 0.4745(7) 0.8081(5) 0.2299(4)
O2_2 O 0.5115(10) 0.7636(7) 0.1479(6)
O5_2 O 0.2447(11) 0.6228(7) 0.2741(6)
H1_2 H 0.244131 0.610783 0.312480
H2_2 H 0.209921 0.637433 0.267850
C1_2 C 0.5254(10) 0.8077(7) 0.1965(6)
C2_2 C 0.6137(8) 0.8709(6) 0.2062(5)
C3_2 C 0.6700(11) 0.8659(8) 0.1709(6)
H3_2 H 0.653034 0.825156 0.139651
C4_2 C 0.7519(10) 0.9191(7) 0.1793(6)
H4_2 H 0.790790 0.914794 0.154351
C5_2 C 0.7765(8) 0.9799(6) 0.2256(5)
C6_2 C 0.7192(8) 0.9847(6) 0.2601(5)
C7_2 C 0.6390(9) 0.9301(6) 0.2529(5)
H6_2 H 0.600212 0.932183 0.279483
O7_2 O 0.5115(10) 0.7479(7) 0.0188(6)
H11_2 H 0.653034 0.827878 0.027016
H12_2 H 0.790790 0.875996 0.012316
H17_2 H 0.730316 0.539170 0.013882
H18_2 H 0.790649 0.681943 0.009378
O10_2 O 0.3781(13) 0.6228(7) 0.2259(6)
H19_2 H 0.366652 0.610783 0.187520
H20_2 H 0.427512 0.637433 0.232150
O11_2 O 0.3336(9) 0.8081(5) 0.2701(4)
O12_2 O 0.4002(9) 0.7084(7) 0.3422(5)
O13_2 O 0.3082(9) 0.7084(7) 0.1578(5)
O15_2 O 0.3742(8) 0.7782(6) 0.0724(5)
S4_2 S 0.91781(23) 0.93036(17) 0.92493(16)
O6_2 O 0.4745(7) 0.6664(5) 0.9368(4)
C17_2 C 0.5254(10) 0.7177(7) 0.9702(6)
C18_2 C 0.6137(8) 0.7428(6) 0.9605(5)
C19_2 C 0.6700(11) 0.8041(8) 0.9958(6)
C20_2 C 0.7519(10) 0.8328(7) 0.9874(6)
C21_2 C 0.7765(8) 0.7966(6) 0.9411(5)
C22_2 C 0.7192(8) 0.7345(5) 0.9066(5)
H13_2 H 0.735408 0.708365 0.876833
C23_2 C 0.6390(9) 0.7089(7) 0.9138(5)
H14_2 H 0.600212 0.668029 0.887184
C24_2 C 0.8646(9) 0.8297(6) 0.9328(5)
C25_2 C 0.9039(8) 0.7849(6) 0.9289(5)
C26_2 C 0.8622(8) 0.6966(6) 0.9337(5)
C27_2 C 0.8881(11) 0.6537(7) 0.8921(7)
H15_2 H 0.926720 0.681765 0.860093
C28_2 C 0.8553(11) 0.5707(7) 0.8997(6)
H16_2 H 0.873759 0.542052 0.874730
C29_2 C 0.7955(8) 0.5303(6) 0.9442(5)
C30_2 C 0.7710(8) 0.5691(6) 0.9837(6)
C31_2 C 0.8057(9) 0.6542(6) 0.9803(6)
C32_2 C 0.7570(9) 0.4374(6) 0.9474(5)
S6_3 S 0.08219(23) 0.06964(28) 0.42493(16)
H13_3 H 0.027043 0.735408 0.043500
C24_3 C 0.0349(7) 0.8646(9) 0.0995(5)
C25_3 C 0.1190(6) 0.9039(8) 0.0956(5)
C26_3 C 0.1656(6) 0.8622(8) 0.1004(5)
C27_3 C 0.2344(8) 0.8881(11) 0.0588(7)
H15_3 H 0.244955 0.926720 0.026760
C28_3 C 0.2846(9) 0.8553(11) 0.0664(6)
H16_3 H 0.331707 0.873759 0.041397
C29_3 C 0.2652(6) 0.7955(8) 0.1109(5)
C30_3 C 0.2019(6) 0.7710(8) 0.1504(6)
H17_3 H 0.191146 0.730316 0.180549
C31_3 C 0.1515(7) 0.8057(9) 0.1470(6)
H18_3 H 0.108706 0.790649 0.176045
C32_3 C 0.3196(7) 0.7570(9) 0.1141(5)
Ni1_3 Ni 0.95936(6) 0.04064(14) 0.416666
S1_3 S 0.83602(16) 0.00719(22) 0.41180(16)
S5_3 S 0.99281(22) 0.16398(27) 0.42153(16)
Ni2_3 Ni 0.64051(7) 0.35948(16) 0.416666
S2_3 S 0.93036(17) 0.91781(23) 0.40840(16)
O1_3 O 0.6664(5) 0.4745(7) 0.3965(4)
O2_3 O 0.7479(7) 0.5115(10) 0.3145(6)
O4_3 O 0.4040(5) 0.7782(6) 0.4276(5)
O5_3 O 0.6219(8) 0.2447(11) 0.4407(6)
H1_3 H 0.633348 0.244131 0.479146
H2_3 H 0.572488 0.209921 0.434516
C1_3 C 0.7177(7) 0.5254(10) 0.3631(6)
C2_3 C 0.7428(6) 0.6137(8) 0.3728(5)
C3_3 C 0.8041(8) 0.6700(11) 0.3375(6)
H3_3 H 0.827878 0.653034 0.306317
C4_3 C 0.8328(7) 0.7519(10) 0.3459(6)
H4_3 H 0.875996 0.790790 0.321017
C5_3 C 0.7966(6) 0.7765(8) 0.3922(5)
C6_3 C 0.7345(5) 0.7192(8) 0.4267(5)
H5_3 H 0.708365 0.735408 0.456500
C7_3 C 0.7089(7) 0.6390(9) 0.4195(5)
H6_3 H 0.668029 0.600212 0.446149
C8_3 C 0.8297(6) 0.8646(9) 0.4005(5)
C9_3 C 0.7849(6) 0.9039(8) 0.4044(5)
C10_3 C 0.6966(6) 0.8622(8) 0.3996(5)
C11_3 C 0.6537(7) 0.8881(11) 0.4412(7)
H7_3 H 0.681765 0.926720 0.473240
C12_3 C 0.5707(7) 0.8553(11) 0.4336(6)
H8_3 H 0.542052 0.873759 0.458603
C13_3 C 0.5303(6) 0.7955(8) 0.3891(5)
C14_3 C 0.5691(6) 0.7710(8) 0.3496(6)
H9_3 H 0.539170 0.730316 0.319451
C15_3 C 0.6542(6) 0.8057(9) 0.3530(6)
H10_3 H 0.681943 0.790649 0.323955
C16_3 C 0.4374(6) 0.7570(9) 0.3859(5)
O7_3 O 0.7636(7) 0.5115(10) 0.1855(6)
C17_3 C 0.8077(7) 0.5254(10) 0.1369(6)
C18_3 C 0.8709(6) 0.6137(8) 0.1272(5)
C19_3 C 0.8659(8) 0.6700(11) 0.1625(6)
H11_3 H 0.825156 0.653034 0.193683
C20_3 C 0.9191(7) 0.7519(10) 0.1541(6)
H12_3 H 0.914794 0.790790 0.178983
C21_3 C 0.9799(6) 0.7765(8) 0.1078(5)
C22_3 C 0.9847(6) 0.7192(8) 0.0733(5)
C23_3 C 0.9301(6) 0.6390(9) 0.0805(5)
H14_3 H 0.932183 0.600212 0.053851
O10_3 O 0.7553(11) 0.3781(13) 0.3926(6)
H19_3 H 0.755869 0.366652 0.354187
H20_3 H 0.790079 0.427512 0.398817
Ni8_3 Ni 0.28550(7) 0.71450(12) 0.416667
O11_3 O 0.5255(7) 0.3336(9) 0.4368(4)
O12_3 O 0.6918(5) 0.4002(9) 0.5089(5)
O13_3 O 0.5998(5) 0.3082(9) 0.3244(5)
O15_3 O 0.5960(5) 0.3742(8) 0.2390(5)
H13_4 H 0.291635 0.027043 0.210166
C24_4 C 0.1703(6) 0.0349(7) 0.2661(5)
C25_4 C 0.2151(6) 0.1190(6) 0.2622(5)
C26_4 C 0.3034(6) 0.1656(6) 0.2670(5)
C27_4 C 0.3463(7) 0.2344(8) 0.2254(7)
H15_4 H 0.318235 0.244955 0.193426
C28_4 C 0.4293(7) 0.2846(9) 0.2330(6)
H16_4 H 0.457948 0.331707 0.208063
C29_4 C 0.4697(6) 0.2652(6) 0.2775(5)
C30_4 C 0.4309(6) 0.2019(6) 0.3170(6)
H17_4 H 0.460830 0.191146 0.347215
C31_4 C 0.3458(6) 0.1515(7) 0.3136(6)
H18_4 H 0.318057 0.108706 0.342711
C32_4 C 0.5626(6) 0.3196(7) 0.2807(5)
S6_4 S 0.01255(16) 0.08219(23) 0.59160(16)
Ni2_4 Ni 0.28103(14) 0.64051(7) 0.583333
S2_4 S 0.01255(16) 0.93036(17) 0.57507(16)
O1_4 O 0.1919(5) 0.6664(5) 0.5632(4)
O2_4 O 0.2364(7) 0.7479(7) 0.4812(6)
O5_4 O 0.3772(7) 0.6219(8) 0.6074(6)
H1_4 H 0.389217 0.633348 0.645813
H2_4 H 0.362567 0.572488 0.601183
C1_4 C 0.1923(7) 0.7177(7) 0.5298(6)
C2_4 C 0.1291(6) 0.7428(6) 0.5395(5)
C3_4 C 0.1341(8) 0.8041(8) 0.5042(6)
H3_4 H 0.174844 0.827878 0.472984
C4_4 C 0.0809(7) 0.8328(7) 0.5126(6)
H4_4 H 0.085206 0.875996 0.487684
C5_4 C 0.0201(6) 0.7966(6) 0.5589(5)
C6_4 C 0.0153(6) 0.7345(5) 0.5934(5)
C7_4 C 0.0699(6) 0.7089(7) 0.5862(5)
H6_4 H 0.067817 0.668029 0.612816
O7_4 O 0.2521(7) 0.7636(7) 0.3521(6)
C17_4 C 0.2823(7) 0.8077(7) 0.3035(6)
C18_4 C 0.2572(6) 0.8709(6) 0.2938(5)
C19_4 C 0.1959(8) 0.8659(8) 0.3291(6)
H11_4 H 0.172122 0.825156 0.360349
C20_4 C 0.1672(7) 0.9191(7) 0.3207(6)
H12_4 H 0.124004 0.914794 0.345649
C21_4 C 0.2034(6) 0.9799(6) 0.2744(5)
C22_4 C 0.2655(5) 0.9847(6) 0.2399(5)
C23_4 C 0.2911(7) 0.9301(6) 0.2471(5)
H14_4 H 0.331971 0.932183 0.220517
O10_4 O 0.3772(7) 0.7553(11) 0.5593(6)
H19_4 H 0.389217 0.755869 0.520854
H20_4 H 0.362567 0.790079 0.565484
O11_4 O 0.1919(5) 0.5255(7) 0.6035(4)
O12_4 O 0.2916(7) 0.6918(5) 0.6756(5)
O13_4 O 0.2916(7) 0.5998(5) 0.4911(5)
O15_4 O 0.2218(6) 0.5960(5) 0.4057(5)
Ni1_4 Ni 0.91872(13) 0.95936(6) 0.583333
S1_4 S 0.82883(15) 0.83602(16) 0.57847(16)
O4_4 O 0.6258(4) 0.4040(5) 0.5943(5)
H5_4 H 0.972957 0.708365 0.623167
C8_4 C 0.9651(7) 0.8297(6) 0.5672(5)
C9_4 C 0.8810(6) 0.7849(6) 0.5711(5)
C10_4 C 0.8344(6) 0.6966(6) 0.5663(5)
C11_4 C 0.7656(8) 0.6537(7) 0.6079(7)
H7_4 H 0.755045 0.681765 0.639907
C12_4 C 0.7154(9) 0.5707(7) 0.6003(6)
H8_4 H 0.668293 0.542052 0.625270
C13_4 C 0.7348(6) 0.5303(6) 0.5558(5)
C14_4 C 0.7981(6) 0.5691(6) 0.5163(6)
H9_4 H 0.808854 0.539170 0.486118
C15_4 C 0.8485(7) 0.6542(6) 0.5197(6)
H10_4 H 0.891294 0.681943 0.490622
C16_4 C 0.6804(7) 0.4374(6) 0.5526(5)
Ni8_4 Ni 0.57100(10) 0.28550(7) 0.583334
S5_4 S 0.82883(15) 0.99281(22) 0.58820(16)
S2_5 S 0.08219(23) 0.01255(16) 0.74174(16)
O1_5 O 0.5255(7) 0.1919(5) 0.7299(4)
O2_5 O 0.4885(10) 0.2364(7) 0.6479(6)
O5_5 O 0.7553(11) 0.3772(7) 0.7741(6)
H1_5 H 0.755869 0.389217 0.812480
H2_5 H 0.790079 0.362567 0.767850
C1_5 C 0.4746(10) 0.1923(7) 0.6965(6)
C2_5 C 0.3863(8) 0.1291(6) 0.7062(5)
C3_5 C 0.3300(11) 0.1341(8) 0.6709(6)
H3_5 H 0.346966 0.174844 0.639651
C4_5 C 0.2481(10) 0.0809(7) 0.6793(6)
H4_5 H 0.209210 0.085206 0.654351
C5_5 C 0.2235(8) 0.0201(6) 0.7256(5)
C6_5 C 0.2808(8) 0.0153(6) 0.7601(5)
C7_5 C 0.3610(9) 0.0699(6) 0.7529(5)
H6_5 H 0.399788 0.067817 0.779483
O7_5 O 0.4885(10) 0.2521(7) 0.5188(6)
C17_5 C 0.4746(10) 0.2823(7) 0.4702(6)
C18_5 C 0.3863(8) 0.2572(6) 0.4605(5)
C19_5 C 0.3300(11) 0.1959(8) 0.4958(6)
H11_5 H 0.346966 0.172122 0.527016
C20_5 C 0.2481(10) 0.1672(7) 0.4874(6)
H12_5 H 0.209210 0.124004 0.512316
C21_5 C 0.2235(8) 0.2034(6) 0.4411(5)
C22_5 C 0.2808(8) 0.2655(5) 0.4066(5)
H13_5 H 0.264592 0.291635 0.376833
C23_5 C 0.3610(9) 0.2911(7) 0.4138(5)
H14_5 H 0.399788 0.331971 0.387184
C24_5 C 0.1354(9) 0.1703(6) 0.4328(5)
C25_5 C 0.0961(8) 0.2151(6) 0.4289(5)
C26_5 C 0.1378(8) 0.3034(6) 0.4337(5)
C27_5 C 0.1119(11) 0.3463(7) 0.3921(7)
H15_5 H 0.073280 0.318235 0.360093
C28_5 C 0.1447(11) 0.4293(7) 0.3997(6)
H16_5 H 0.126241 0.457948 0.374730
C29_5 C 0.2045(8) 0.4697(6) 0.4442(5)
C30_5 C 0.2290(8) 0.4309(6) 0.4837(6)
H17_5 H 0.269684 0.460830 0.513882
C31_5 C 0.1943(9) 0.3458(6) 0.4803(6)
H18_5 H 0.209351 0.318057 0.509378
C32_5 C 0.2430(9) 0.5626(6) 0.4474(5)
O10_5 O 0.6219(13) 0.3772(7) 0.7259(6)
H19_5 H 0.633348 0.389217 0.687520
H20_5 H 0.572488 0.362567 0.732150
O12_5 O 0.5998(9) 0.2916(7) 0.8422(5)
O13_5 O 0.6918(9) 0.2916(7) 0.6578(5)
O15_5 O 0.6258(8) 0.2218(6) 0.5724(5)
O4_5 O 0.2218(6) 0.6258(4) 0.7610(5)
H5_5 H 0.264592 0.972957 0.789834
C8_5 C 0.1354(9) 0.9651(7) 0.7339(5)
C9_5 C 0.0961(8) 0.8810(6) 0.7378(5)
C10_5 C 0.1378(8) 0.8344(6) 0.7330(5)
C11_5 C 0.1119(11) 0.7656(8) 0.7746(7)
H7_5 H 0.073280 0.755045 0.806574
C12_5 C 0.1447(11) 0.7154(9) 0.7670(6)
H8_5 H 0.126241 0.668293 0.791937
C13_5 C 0.2045(8) 0.7348(6) 0.7225(5)
C14_5 C 0.2290(8) 0.7981(6) 0.6830(6)
H9_5 H 0.269684 0.808854 0.652785
C15_5 C 0.1943(9) 0.8485(7) 0.6864(6)
H10_5 H 0.209351 0.891294 0.657289
C16_5 C 0.2430(9) 0.6804(7) 0.7193(5)
S1_5 S 0.99281(22) 0.82883(15) 0.74514(16)
S2_6 S 0.06964(17) 0.08219(23) 0.90840(16)
O1_6 O 0.3336(5) 0.5255(7) 0.8965(4)
O2_6 O 0.2521(7) 0.4885(10) 0.8145(6)
O5_6 O 0.3781(8) 0.7553(11) 0.9407(6)
H1_6 H 0.366652 0.755869 0.979146
H2_6 H 0.427512 0.790079 0.934516
C1_6 C 0.2823(7) 0.4746(10) 0.8631(6)
C2_6 C 0.2572(6) 0.3863(8) 0.8728(5)
C3_6 C 0.1959(8) 0.3300(11) 0.8375(6)
H3_6 H 0.172122 0.346966 0.806317
C4_6 C 0.1672(7) 0.2481(10) 0.8459(6)
H4_6 H 0.124004 0.209210 0.821017
C5_6 C 0.2034(6) 0.2235(8) 0.8922(5)
C6_6 C 0.2655(5) 0.2808(8) 0.9267(5)
H5_6 H 0.291635 0.264592 0.956500
C7_6 C 0.2911(7) 0.3610(9) 0.9195(5)
H6_6 H 0.331971 0.399788 0.946149
C8_6 C 0.1703(6) 0.1354(9) 0.9005(5)
C9_6 C 0.2151(6) 0.0961(8) 0.9044(5)
C10_6 C 0.3034(6) 0.1378(8) 0.8996(5)
C11_6 C 0.3463(7) 0.1119(11) 0.9412(7)
H7_6 H 0.318235 0.073280 0.973240
C12_6 C 0.4293(7) 0.1447(11) 0.9336(6)
H8_6 H 0.457948 0.126241 0.958603
C13_6 C 0.4697(6) 0.2045(8) 0.8891(5)
C14_6 C 0.4309(6) 0.2290(8) 0.8496(6)
H9_6 H 0.460830 0.269684 0.819451
C15_6 C 0.3458(6) 0.1943(9) 0.8530(6)
H10_6 H 0.318057 0.209351 0.823955
C16_6 C 0.5626(6) 0.2430(9) 0.8859(5)
O7_6 O 0.2364(7) 0.4885(10) 0.6855(6)
C17_6 C 0.1923(7) 0.4746(10) 0.6369(6)
C18_6 C 0.1291(6) 0.3863(8) 0.6272(5)
C19_6 C 0.1341(8) 0.3300(11) 0.6625(6)
H11_6 H 0.174844 0.346966 0.693683
C20_6 C 0.0809(7) 0.2481(10) 0.6541(6)
H12_6 H 0.085206 0.209210 0.678983
C21_6 C 0.0201(6) 0.2235(8) 0.6078(5)
C22_6 C 0.0153(6) 0.2808(8) 0.5733(5)
C23_6 C 0.0699(6) 0.3610(9) 0.5805(5)
H14_6 H 0.067817 0.399788 0.553851
O10_6 O 0.2447(11) 0.6219(13) 0.8926(6)
H19_6 H 0.244131 0.633348 0.854187
H20_6 H 0.209921 0.572488 0.898817
S1_6 S 0.16398(16) 0.99281(22) 0.91180(16)
H13_6 H 0.972957 0.264592 0.543500
C24_6 C 0.9651(7) 0.1354(9) 0.5995(5)
C25_6 C 0.8810(6) 0.0961(8) 0.5956(5)
C26_6 C 0.8344(6) 0.1378(8) 0.6004(5)
C27_6 C 0.7656(8) 0.1119(11) 0.5588(7)
H15_6 H 0.755045 0.073280 0.526760
C28_6 C 0.7154(9) 0.1447(11) 0.5664(6)
H16_6 H 0.668293 0.126241 0.541397
C29_6 C 0.7348(6) 0.2045(8) 0.6109(5)
C30_6 C 0.7981(6) 0.2290(8) 0.6504(6)
H17_6 H 0.808854 0.269684 0.680549
C31_6 C 0.8485(7) 0.1943(9) 0.6470(6)
H18_6 H 0.891294 0.209351 0.676045
C32_6 C 0.6804(7) 0.2430(9) 0.6141(5)
loop_
_geom_bond_atom_site_label_1
_geom_bond_atom_site_label_2
_geom_bond_site_symmetry_1
_geom_bond_site_symmetry_2
Ni1 S1 1_555 1_555
S1 C9 1_555 1_555
O3 C16 1_555 1_555
O4 C16 1_555 1_555
C9 C8 1_555 1_555
C10 C9 1_555 1_555
C11 C10 1_555 1_555
H7 C11 1_555 1_555
C12 C11 1_555 1_555
H8 C12 1_555 1_555
C13 C12 1_555 1_555
C14 C13 1_555 1_555
C15 C10 1_555 1_555
C16 C13 1_555 1_555
Ni8 O4 1_555 1_555
S5 Ni1 1_555 1_555
C14 C15 1_555 1_555
Ni2 O1 1_555 1_555
O1 C1 1_555 1_555
O5 Ni2 1_555 1_555
H1 O5 1_555 1_555
H2 O5 1_555 1_555
C1 C2 1_555 1_555
C2 C3 1_555 1_555
C4 C3 1_555 1_555
C5 C4 1_555 1_555
C6 C5 1_555 1_555
C7 C2 1_555 1_555
H6 C7 1_555 1_555
O10 Ni2 1_555 1_555
H19 O10 1_555 1_555
H20 O10 1_555 1_555
O11 Ni2 1_555 1_555
O12 Ni2 1_555 1_555
C6 C7 1_555 1_555
Ni3 O2 1_555 1_555
O6 C17 1_555 1_555
O7 Ni3 1_555 1_555
C17 O7 1_555 1_555
C18 C17 1_555 1_555
C19 C18 1_555 1_555
H11 C19 1_555 1_555
C20 C19 1_555 1_555
H12 C20 1_555 1_555
C21 C20 1_555 1_555
C22 C21 1_555 1_555
C23 C18 1_555 1_555
H14 C23 1_555 1_555
Ni5 O6 1_555 1_555
O14 Ni3 1_555 1_555
O15 Ni3 1_555 1_555
C22 C23 1_555 1_555
S3 C25 1_555 1_555
O8 C32 1_555 1_555
O9 C32 1_555 1_555
C25 C24 1_555 1_555
C26 C25 1_555 1_555
C27 C26 1_555 1_555
H15 C27 1_555 1_555
C28 C27 1_555 1_555
H16 C28 1_555 1_555
C29 C28 1_555 1_555
C30 C29 1_555 1_555
H17 C30 1_555 1_555
C31 C26 1_555 1_555
H18 C31 1_555 1_555
C32 C29 1_555 1_555
Ni4 S3 1_555 1_555
Ni7 O8 1_555 1_555
Ni9 O9 1_555 1_555
C30 C31 1_555 1_555
Ni1_2 S1_2 1_555 1_555
S5_2 Ni1_2 1_555 1_555
Ni4_2 S3_2 1_555 1_555
O12 C16_2 1_555 1_555
O4_2 C16_2 1_555 1_555
C9_2 C8_2 1_555 1_555
C10_2 C9_2 1_555 1_555
C11_2 C10_2 1_555 1_555
H7_2 C11_2 1_555 1_555
C12_2 C11_2 1_555 1_555
H8_2 C12_2 1_555 1_555
C13_2 C12_2 1_555 1_555
C14_2 C13_2 1_555 1_555
H9_2 C14_2 1_555 1_555
C15_2 C10_2 1_555 1_555
H10_2 C15_2 1_555 1_555
C16_2 C13_2 1_555 1_555
Ni8_2 O4_2 1_555 1_555
C14_2 C15_2 1_555 1_555
Ni2_2 O1_2 1_555 1_555
Ni8 O2_2 1_555 1_555
O1_2 C1_2 1_555 1_555
O2_2 C1_2 1_555 1_555
O5_2 Ni2_2 1_555 1_555
H1_2 O5_2 1_555 1_555
H2_2 O5_2 1_555 1_555
C1_2 C2_2 1_555 1_555
C2_2 C3_2 1_555 1_555
C3_2 H3_2 1_555 1_555
C4_2 C3_2 1_555 1_555
H4_2 C4_2 1_555 1_555
C5_2 C4_2 1_555 1_555
C6_2 C5_2 1_555 1_555
C7_2 C2_2 1_555 1_555
H6_2 C7_2 1_555 1_555
O7_2 Ni8 1_555 1_555
O10_2 Ni2_2 1_555 1_555
H19_2 O10_2 1_555 1_555
H20_2 O10_2 1_555 1_555
O11_2 Ni2_2 1_555 1_555
O12_2 Ni2_2 1_555 1_555
O13_2 Ni2_2 1_555 1_555
O15_2 Ni8 1_555 1_555
C6_2 C7_2 1_555 1_555
S4_2 C24_2 1_555 1_555
O6_2 C17_2 1_555 1_555
O13 C32_2 1_555 1_555
O15 C32_2 1_555 1_555
C18_2 C17_2 1_555 1_555
C19_2 C18_2 1_555 1_555
C20_2 C19_2 1_555 1_555
C21_2 C20_2 1_555 1_555
C22_2 C21_2 1_555 1_555
H13_2 C22_2 1_555 1_555
C23_2 C18_2 1_555 1_555
H14_2 C23_2 1_555 1_555
C24_2 C21_2 1_555 1_555
C25_2 C24_2 1_555 1_555
C26_2 C25_2 1_555 1_555
C27_2 C26_2 1_555 1_555
H15_2 C27_2 1_555 1_555
C28_2 C27_2 1_555 1_555
H16_2 C28_2 1_555 1_555
C29_2 C28_2 1_555 1_555
C30_2 C29_2 1_555 1_555
C31_2 C26_2 1_555 1_555
C32_2 C29_2 1_555 1_555
Ni7 O6_2 1_555 1_555
C22_2 C23_2 1_555 1_555
C30_2 C31_2 1_555 1_555
O13_2 C32_3 1_555 1_555
O15_2 C32_3 1_555 1_555
C25_3 C24_3 1_555 1_555
C26_3 C25_3 1_555 1_555
C27_3 C26_3 1_555 1_555
H15_3 C27_3 1_555 1_555
C28_3 C27_3 1_555 1_555
H16_3 C28_3 1_555 1_555
C29_3 C28_3 1_555 1_555
C30_3 C29_3 1_555 1_555
H17_3 C30_3 1_555 1_555
C31_3 C26_3 1_555 1_555
H18_3 C31_3 1_555 1_555
C32_3 C29_3 1_555 1_555
C30_3 C31_3 1_555 1_555
Ni1_3 S1_3 1_555 1_555
S5_3 Ni1_3 1_555 1_555
Ni2_3 O1_3 1_555 1_555
Ni8_2 O2_3 1_555 1_555
O1_3 C1_3 1_555 1_555
O2_3 C1_3 1_555 1_555
O12_2 C16_3 1_555 1_555
O4_3 C16_3 1_555 1_555
O5_3 Ni2_3 1_555 1_555
H1_3 O5_3 1_555 1_555
H2_3 O5_3 1_555 1_555
C1_3 C2_3 1_555 1_555
C2_3 C3_3 1_555 1_555
C3_3 H3_3 1_555 1_555
C4_3 C3_3 1_555 1_555
H4_3 C4_3 1_555 1_555
C5_3 C4_3 1_555 1_555
C6_3 C5_3 1_555 1_555
H5_3 C6_3 1_555 1_555
C7_3 C2_3 1_555 1_555
H6_3 C7_3 1_555 1_555
C8_3 S2_3 1_555 1_555
C9_3 C8_3 1_555 1_555
C10_3 C9_3 1_555 1_555
C11_3 C10_3 1_555 1_555
H7_3 C11_3 1_555 1_555
C12_3 C11_3 1_555 1_555
H8_3 C12_3 1_555 1_555
C13_3 C12_3 1_555 1_555
C14_3 C13_3 1_555 1_555
H9_3 C14_3 1_555 1_555
C15_3 C10_3 1_555 1_555
H10_3 C15_3 1_555 1_555
C16_3 C13_3 1_555 1_555
O11 C17_3 1_555 1_555
O7_3 Ni8_2 1_555 1_555
C17_3 O7_3 1_555 1_555
C18_3 C17_3 1_555 1_555
C19_3 C18_3 1_555 1_555
H11_3 C19_3 1_555 1_555
C20_3 C19_3 1_555 1_555
H12_3 C20_3 1_555 1_555
C21_3 C20_3 1_555 1_555
C22_3 C21_3 1_555 1_555
C23_3 C18_3 1_555 1_555
H14_3 C23_3 1_555 1_555
O10_3 Ni2_3 1_555 1_555
H19_3 O10_3 1_555 1_555
H20_3 O10_3 1_555 1_555
Ni8_3 O4_3 1_555 1_555
O11_3 Ni2_3 1_555 1_555
O12_3 Ni2_3 1_555 1_555
O13_3 Ni2_3 1_555 1_555
O15_3 Ni8_2 1_555 1_555
C5_3 C8_3 1_555 1_555
C6_3 C7_3 1_555 1_555
C14_3 C15_3 1_555 1_555
C22_3 C23_3 1_555 1_555
S5_2 C25_4 1_555 1_555
O13_3 C32_4 1_555 1_555
O15_3 C32_4 1_555 1_555
C25_4 C24_4 1_555 1_555
C26_4 C25_4 1_555 1_555
C27_4 C26_4 1_555 1_555
H15_4 C27_4 1_555 1_555
C28_4 C27_4 1_555 1_555
H16_4 C28_4 1_555 1_555
C29_4 C28_4 1_555 1_555
C30_4 C29_4 1_555 1_555
H17_4 C30_4 1_555 1_555
C31_4 C26_4 1_555 1_555
H18_4 C31_4 1_555 1_555
C32_4 C29_4 1_555 1_555
C30_4 C31_4 1_555 1_555
Ni2_4 O1_4 1_555 1_555
Ni8_3 O2_4 1_555 1_555
O1_4 C1_4 1_555 1_555
O2_4 C1_4 1_555 1_555
O5_4 Ni2_4 1_555 1_555
H1_4 O5_4 1_555 1_555
H2_4 O5_4 1_555 1_555
C1_4 C2_4 1_555 1_555
C2_4 C3_4 1_555 1_555
C3_4 H3_4 1_555 1_555
C4_4 C3_4 1_555 1_555
H4_4 C4_4 1_555 1_555
C5_4 C4_4 1_555 1_555
C6_4 C5_4 1_555 1_555
C7_4 C2_4 1_555 1_555
H6_4 C7_4 1_555 1_555
O11_2 C17_4 1_555 1_555
O7_4 Ni8_3 1_555 1_555
C17_4 O7_4 1_555 1_555
C18_4 C17_4 1_555 1_555
C19_4 C18_4 1_555 1_555
H11_4 C19_4 1_555 1_555
C20_4 C19_4 1_555 1_555
H12_4 C20_4 1_555 1_555
C21_4 C20_4 1_555 1_555
C22_4 C21_4 1_555 1_555
C23_4 C18_4 1_555 1_555
H14_4 C23_4 1_555 1_555
O10_4 Ni2_4 1_555 1_555
H19_4 O10_4 1_555 1_555
H20_4 O10_4 1_555 1_555
O11_4 Ni2_4 1_555 1_555
O12_4 Ni2_4 1_555 1_555
O13_4 Ni2_4 1_555 1_555
O15_4 Ni8_3 1_555 1_555
C6_4 C7_4 1_555 1_555
C22_4 C23_4 1_555 1_555
Ni1_4 S1_4 1_555 1_555
S1_4 C9_4 1_555 1_555
O12_3 C16_4 1_555 1_555
O4_4 C16_4 1_555 1_555
C9_4 C8_4 1_555 1_555
C10_4 C9_4 1_555 1_555
C11_4 C10_4 1_555 1_555
H7_4 C11_4 1_555 1_555
C12_4 C11_4 1_555 1_555
H8_4 C12_4 1_555 1_555
C13_4 C12_4 1_555 1_555
C14_4 C13_4 1_555 1_555
H9_4 C14_4 1_555 1_555
C15_4 C10_4 1_555 1_555
H10_4 C15_4 1_555 1_555
C16_4 C13_4 1_555 1_555
Ni8_4 O4_4 1_555 1_555
S5_4 Ni1_4 1_555 1_555
C14_4 C15_4 1_555 1_555
Ni5 O1_5 1_555 1_555
Ni8_4 O2_5 1_555 1_555
O1_5 C1_5 1_555 1_555
O2_5 C1_5 1_555 1_555
O5_5 Ni5 1_555 1_555
H1_5 O5_5 1_555 1_555
H2_5 O5_5 1_555 1_555
C1_5 C2_5 1_555 1_555
C2_5 C3_5 1_555 1_555
C3_5 H3_5 1_555 1_555
C4_5 C3_5 1_555 1_555
H4_5 C4_5 1_555 1_555
C5_5 C4_5 1_555 1_555
C6_5 C5_5 1_555 1_555
C7_5 C2_5 1_555 1_555
H6_5 C7_5 1_555 1_555
S6_3 C24_5 1_555 1_555
O11_3 C17_5 1_555 1_555
O7_5 Ni8_4 1_555 1_555
O13_4 C32_5 1_555 1_555
O15_4 C32_5 1_555 1_555
C17_5 O7_5 1_555 1_555
C18_5 C17_5 1_555 1_555
C19_5 C18_5 1_555 1_555
H11_5 C19_5 1_555 1_555
C20_5 C19_5 1_555 1_555
H12_5 C20_5 1_555 1_555
C21_5 C20_5 1_555 1_555
C22_5 C21_5 1_555 1_555
H13_5 C22_5 1_555 1_555
C23_5 C18_5 1_555 1_555
H14_5 C23_5 1_555 1_555
C24_5 C21_5 1_555 1_555
C25_5 C24_5 1_555 1_555
C26_5 C25_5 1_555 1_555
C27_5 C26_5 1_555 1_555
H15_5 C27_5 1_555 1_555
C28_5 C27_5 1_555 1_555
H16_5 C28_5 1_555 1_555
C29_5 C28_5 1_555 1_555
C30_5 C29_5 1_555 1_555
H17_5 C30_5 1_555 1_555
C31_5 C26_5 1_555 1_555
H18_5 C31_5 1_555 1_555
C32_5 C29_5 1_555 1_555
O10_5 Ni5 1_555 1_555
H19_5 O10_5 1_555 1_555
H20_5 O10_5 1_555 1_555
O12_5 Ni5 1_555 1_555
O13_5 Ni5 1_555 1_555
O15_5 Ni8_4 1_555 1_555
C6_5 C7_5 1_555 1_555
C22_5 C23_5 1_555 1_555
C30_5 C31_5 1_555 1_555
O12_4 C16_5 1_555 1_555
O4_5 C16_5 1_555 1_555
C9_5 C8_5 1_555 1_555
C10_5 C9_5 1_555 1_555
C11_5 C10_5 1_555 1_555
H7_5 C11_5 1_555 1_555
C12_5 C11_5 1_555 1_555
H8_5 C12_5 1_555 1_555
C13_5 C12_5 1_555 1_555
C14_5 C13_5 1_555 1_555
H9_5 C14_5 1_555 1_555
C15_5 C10_5 1_555 1_555
H10_5 C15_5 1_555 1_555
C16_5 C13_5 1_555 1_555
Ni9 O4_5 1_555 1_555
C14_5 C15_5 1_555 1_555
Ni4 S1_5 1_555 1_555
Ni7 O1_6 1_555 1_555
Ni9 O2_6 1_555 1_555
O1_6 C1_6 1_555 1_555
O2_6 C1_6 1_555 1_555
O12_5 C16_6 1_555 1_555
O14 C16_6 1_555 1_555
O5_6 Ni7 1_555 1_555
H1_6 O5_6 1_555 1_555
H2_6 O5_6 1_555 1_555
C1_6 C2_6 1_555 1_555
C2_6 C3_6 1_555 1_555
C3_6 H3_6 1_555 1_555
C4_6 C3_6 1_555 1_555
H4_6 C4_6 1_555 1_555
C5_6 C4_6 1_555 1_555
C6_6 C5_6 1_555 1_555
H5_6 C6_6 1_555 1_555
C7_6 C2_6 1_555 1_555
H6_6 C7_6 1_555 1_555
C8_6 S2_6 1_555 1_555
C9_6 C8_6 1_555 1_555
C10_6 C9_6 1_555 1_555
C11_6 C10_6 1_555 1_555
H7_6 C11_6 1_555 1_555
C12_6 C11_6 1_555 1_555
H8_6 C12_6 1_555 1_555
C13_6 C12_6 1_555 1_555
C14_6 C13_6 1_555 1_555
H9_6 C14_6 1_555 1_555
C15_6 C10_6 1_555 1_555
H10_6 C15_6 1_555 1_555
C16_6 C13_6 1_555 1_555
O11_4 C17_6 1_555 1_555
O7_6 Ni9 1_555 1_555
C17_6 O7_6 1_555 1_555
C18_6 C17_6 1_555 1_555
C19_6 C18_6 1_555 1_555
H11_6 C19_6 1_555 1_555
C20_6 C19_6 1_555 1_555
H12_6 C20_6 1_555 1_555
C21_6 C20_6 1_555 1_555
C22_6 C21_6 1_555 1_555
C23_6 C18_6 1_555 1_555
H14_6 C23_6 1_555 1_555
O10_6 Ni7 1_555 1_555
H19_6 O10_6 1_555 1_555
H20_6 O10_6 1_555 1_555
C5_6 C8_6 1_555 1_555
C6_6 C7_6 1_555 1_555
C14_6 C15_6 1_555 1_555
C22_6 C23_6 1_555 1_555
Ni4_2 S1_6 1_555 1_555
O13_5 C32_6 1_555 1_555
O15_5 C32_6 1_555 1_555
C25_6 C24_6 1_555 1_555
C26_6 C25_6 1_555 1_555
C27_6 C26_6 1_555 1_555
H15_6 C27_6 1_555 1_555
C28_6 C27_6 1_555 1_555
H16_6 C28_6 1_555 1_555
C29_6 C28_6 1_555 1_555
C30_6 C29_6 1_555 1_555
H17_6 C30_6 1_555 1_555
C31_6 C26_6 1_555 1_555
H18_6 C31_6 1_555 1_555
C32_6 C29_6 1_555 1_555
C30_6 C31_6 1_555 1_555

#END
