
###############################################################################
#
# This file contains modified crystal structure data generated from the
# MOF subset of the Cambridge Structural Database (CSD) v543 
# hosted by the Cambridge Crystallographic Data Centre (CCDC).
#
# This work is licensed under the Creative Commons
# Attribution-NonCommercial-ShareAlike 4.0 International License.
# To view a copy of this license, visit
# http://creativecommons.org/licenses/by-nc-sa/4.0/
# or send a letter to
# Creative Commons, PO Box 1866, Mountain View, CA 94042, USA.
#
# CIF created using the CSD Python API on 29 September 2022
# The structure has been converted into the P1 space group
# The structure has a 3D framework
# The original CSD entry EHEKUY is in the triclinic crystal system
# The framework has been calculated to contain at least 10.0% void space
# The void calculation uses a probe of radius 1.32A, grid spacing 0.4
#
###############################################################################

data_EHEKUY
_chemical_formula_moiety         '(C152 H112 N16 O30 Ru7 S4)n'
_symmetry_cell_setting           triclinic
_symmetry_space_group_name_H-M   'P 1'
_symmetry_Int_Tables_number      1
_space_group_name_Hall           'P 1'
loop_
_symmetry_equiv_pos_site_id
_symmetry_equiv_pos_as_xyz
1 x,y,z
_cell_length_a                   15.2978(13)
_cell_length_b                   15.5927(13)
_cell_length_c                   22.148(2)
_cell_angle_alpha                88.841(4)
_cell_angle_beta                 86.538(4)
_cell_angle_gamma                62.085(2)
_cell_volume                     4659.62
loop_
_atom_site_label
_atom_site_type_symbol
_atom_site_fract_x
_atom_site_fract_y
_atom_site_fract_z
_atom_site_U_iso_or_equiv
_atom_site_thermal_displace_type
O4 O 0.04029(18) 0.10650(17) 0.04667(11) 0.0208 Uani
C15 C 0.0010(3) 0.2959(3) 0.1889(2) 0.0397 Uani
C16 C 0.0063(3) 0.2425(2) 0.13851(17) 0.0298 Uani
H13 H 0.0246 0.3425 0.1858 0.0470 Uiso
H14 H 0.0335 0.2524 0.1008 0.0360 Uiso
Ru5 Ru 0.06184(2) 0.01376(2) 0.978156(12) 0.0170 Uani
N10 N 0.1871(2) 0.0342(2) 0.93841(13) 0.0203 Uani
O1 O 0.03828(17) 0.87626(18) 0.06970(11) 0.0204 Uani
O2 O 0.16029(17) 0.90255(17) 0.02751(11) 0.0203 Uani
O13 O 0.03264(17) 0.09413(17) 0.42914(10) 0.0184 Uani
O16 O 0.07429(17) 0.00896(16) 0.58589(10) 0.0174 Uani
C1 C 0.1288(2) 0.8580(2) 0.06430(16) 0.0214 Uani
C2 C 0.1990(2) 0.7817(2) 0.10328(16) 0.0241 Uani
C3 C 0.3003(2) 0.7546(2) 0.09688(17) 0.0286 Uani
C4 C 0.3673(3) 0.6830(3) 0.13310(19) 0.0346 Uani
C5 C 0.4762(3) 0.6522(3) 0.1255(2) 0.0503 Uani
C6 C 0.3308(3) 0.6404(3) 0.1768(2) 0.0409 Uani
C7 C 0.2312(3) 0.6678(3) 0.1837(2) 0.0423 Uani
C8 C 0.1650(3) 0.7377(3) 0.1466(2) 0.0340 Uani
C24 C 0.0487(2) 0.4944(2) 0.22184(16) 0.0196 Uani
C25 C 0.0882(2) 0.5080(2) 0.16611(17) 0.0251 Uani
C26 C 0.1891(2) 0.4649(3) 0.15302(19) 0.0324 Uani
C27 C 0.2325(3) 0.4759(3) 0.0924(2) 0.0476 Uani
C28 C 0.2516(2) 0.4088(3) 0.1978(2) 0.0330 Uani
C29 C 0.2135(3) 0.3945(3) 0.2534(2) 0.0353 Uani
C30 C 0.1120(2) 0.4366(2) 0.26550(17) 0.0256 Uani
C61 C 0.1249(2) 0.0339(2) 0.42871(15) 0.0168 Uani
C62 C 0.1946(2) 0.0514(2) 0.38775(16) 0.0217 Uani
C64 C 0.3626(2) 0.0074(2) 0.35097(18) 0.0287 Uani
C66 C 0.3251(3) 0.0868(3) 0.3137(2) 0.0382 Uani
C67 C 0.2237(3) 0.1486(3) 0.3121(2) 0.0388 Uani
C68 C 0.1582(2) 0.1313(2) 0.34977(18) 0.0284 Uani
C69 C 0.0134(2) 0.0991(2) 0.59050(15) 0.0175 Uani
C70 C 0.0155(2) 0.1545(2) 0.64317(15) 0.0181 Uani
C71 C 0.0659(2) 0.1048(2) 0.69308(16) 0.0198 Uani
C72 C 0.0688(2) 0.1551(2) 0.74376(17) 0.0241 Uani
C73 C 0.1232(3) 0.1027(3) 0.79801(18) 0.0333 Uani
C74 C 0.0208(3) 0.2560(2) 0.74255(17) 0.0287 Uani
H1 H 0.3238 0.7861 0.0678 0.0340 Uiso
H2 H 0.5050 0.6322 0.1636 0.0580 Uiso
H3 H 0.5069 0.6013 0.0972 0.0580 Uiso
H4 H 0.4851 0.7065 0.1119 0.0580 Uiso
H5 H 0.3748 0.5916 0.2025 0.0490 Uiso
H6 H 0.2084 0.6376 0.2136 0.0520 Uiso
H7 H 0.0967 0.7555 0.1511 0.0420 Uiso
H15 H 0.0441 0.5473 0.1367 0.0320 Uiso
H16 H 0.1878 0.4833 0.0620 0.0560 Uiso
H17 H 0.2431 0.5309 0.0926 0.0560 Uiso
H18 H 0.2938 0.4193 0.0832 0.0560 Uiso
H19 H 0.3216 0.3796 0.1905 0.0400 Uiso
H20 H 0.2564 0.3571 0.2835 0.0420 Uiso
H21 H 0.0857 0.4257 0.3031 0.0300 Uiso
H47 H 0.3706 0.0993 0.2885 0.0450 Uiso
H48 H 0.2000 0.2029 0.2858 0.0470 Uiso
H49 H 0.0889 0.1741 0.3498 0.0350 Uiso
H50 H 0.0984 0.0356 0.6926 0.0250 Uiso
H51 H 0.1776 0.0427 0.7858 0.0400 Uiso
H52 H 0.1470 0.1415 0.8173 0.0400 Uiso
H53 H 0.0797 0.0920 0.8257 0.0400 Uiso
H54 H 0.0224 0.2922 0.7761 0.0340 Uiso
O19 O 0.07799(17) 0.92401(17) 0.90964(11) 0.0196 Uani
C85 C 0.0226(2) 0.8833(2) 0.90977(16) 0.0210 Uani
C86 C 0.0292(2) 0.8243(2) 0.85680(16) 0.0226 Uani
C87 C 0.0694(2) 0.8377(2) 0.80174(17) 0.0232 Uani
C88 C 0.0756(2) 0.7839(2) 0.75103(17) 0.0271 Uani
C89 C 0.1223(3) 0.7953(3) 0.69208(18) 0.0378 Uani
C90 C 0.0395(3) 0.7173(2) 0.75637(18) 0.0317 Uani
H64 H 0.0934 0.8841 0.7989 0.0290 Uiso
H65 H 0.1123 0.8598 0.6885 0.0460 Uiso
H66 H 0.0939 0.7802 0.6596 0.0460 Uiso
H67 H 0.1919 0.7517 0.6907 0.0460 Uiso
H68 H 0.0424 0.6804 0.7217 0.0380 Uiso
O14 O 0.15952(16) 0.95931(16) 0.46320(10) 0.0170 Uani
C63 C 0.2957(2) 0.9892(2) 0.38768(16) 0.0236 Uani
C65 C 0.4720(3) 0.9411(3) 0.3527(2) 0.0393 Uani
H43 H 0.3200 0.9338 0.4128 0.0290 Uiso
H44 H 0.4833 0.8768 0.3630 0.0480 Uiso
H45 H 0.5041 0.9393 0.3146 0.0480 Uiso
H46 H 0.4991 0.9632 0.3827 0.0480 Uiso
Ru11 Ru 0.064392(19) 0.931384(19) 0.517330(12) 0.0139 Uani
O33 O 0.05099(17) 0.85585(16) 0.44851(10) 0.0179 Uani
C151 C 0.0296(3) 0.6946(2) 0.30787(19) 0.0339 Uani
C152 C 0.0327(3) 0.7450(2) 0.35716(17) 0.0284 Uani
H111 H 0.0626 0.6253 0.3079 0.0410 Uiso
H112 H 0.0676 0.7111 0.3914 0.0340 Uiso
S1 S 0.49283(8) 0.22216(7) 0.01775(5) 0.0316 Uani
O3 O 0.92201(17) 0.07599(17) 0.09036(11) 0.0196 Uani
N2 N 0.5748(2) 0.1175(2) 0.03908(15) 0.0283 Uani
C9 C 0.9774(2) 0.1167(2) 0.09023(16) 0.0210 Uani
C10 C 0.9708(2) 0.1757(2) 0.14320(16) 0.0226 Uani
C11 C 0.9306(2) 0.1623(2) 0.19826(17) 0.0232 Uani
C12 C 0.9244(2) 0.2161(2) 0.24897(17) 0.0271 Uani
C13 C 0.8777(3) 0.2047(3) 0.30792(18) 0.0378 Uani
C14 C 0.9605(3) 0.2827(2) 0.24363(18) 0.0317 Uani
C21 C 0.5445(2) 0.0524(2) 0.02043(16) 0.0213 Uani
C35 C 0.6864(3) 0.0863(2) 0.3695(2) 0.0336 Uani
H8 H 0.9066 0.1159 0.2011 0.0290 Uiso
H9 H 0.8877 0.1402 0.3115 0.0460 Uiso
H10 H 0.9061 0.2198 0.3404 0.0460 Uiso
H11 H 0.8081 0.2483 0.3093 0.0460 Uiso
H12 H 0.9576 0.3196 0.2783 0.0380 Uiso
H23 H 0.7194 0.0793 0.3304 0.0410 Uiso
H24 H 0.6176 0.1265 0.3666 0.0410 Uiso
H25 H 0.7117 0.1144 0.3965 0.0410 Uiso
H26 H 0.6978 0.0183 0.4815 0.0400 Uiso
H97 H 0.2889 0.6160 0.0004 0.0430 Uiso
N3 N 0.4174(2) 0.1966(2) 0.98457(15) 0.0278 Uani
C22 C 0.4536(2) 0.0990(2) 0.98887(16) 0.0217 Uani
Ru7 Ru 0.26521(2) 0.33041(2) 0.784051(12) 0.0163 Uani
Ru8 Ru 0.24170(2) 0.43371(2) 0.704928(12) 0.0180 Uani
O17 O 0.96172(17) 0.12374(18) 0.93030(11) 0.0204 Uani
O18 O 0.83971(17) 0.09745(17) 0.97249(11) 0.0203 Uani
O21 O 0.11576(17) 0.39292(16) 0.80021(10) 0.0178 Uani
O22 O 0.09331(17) 0.49182(17) 0.72158(11) 0.0196 Uani
O23 O 0.26331(17) 0.23223(17) 0.72610(11) 0.0187 Uani
O24 O 0.23895(18) 0.33470(17) 0.64885(10) 0.0206 Uani
O25 O 0.41425(17) 0.27124(17) 0.76571(11) 0.0212 Uani
O26 O 0.38937(18) 0.37346(18) 0.68829(11) 0.0225 Uani
O27 O 0.27102(17) 0.42801(17) 0.83990(11) 0.0202 Uani
O28 O 0.25068(18) 0.52824(17) 0.76219(11) 0.0207 Uani
N13 N 0.2813(2) 0.2332(2) 0.86177(13) 0.0212 Uani
N15 N 0.2204(2) 0.5351(2) 0.62805(14) 0.0227 Uani
C77 C 0.8712(2) 0.1420(2) 0.93570(16) 0.0214 Uani
C78 C 0.8010(2) 0.2183(2) 0.89672(16) 0.0241 Uani
C79 C 0.6997(2) 0.2454(2) 0.90312(17) 0.0286 Uani
C80 C 0.6327(3) 0.3170(3) 0.86690(19) 0.0346 Uani
C81 C 0.5238(3) 0.3478(3) 0.8745(2) 0.0503 Uani
C82 C 0.6692(3) 0.3596(3) 0.8232(2) 0.0409 Uani
C83 C 0.7688(3) 0.3322(3) 0.8163(2) 0.0423 Uani
C84 C 0.8350(3) 0.2623(3) 0.8534(2) 0.0340 Uani
C93 C 0.2474(2) 0.0589(2) 0.93595(15) 0.0190 Uani
C94 C 0.3179(2) 0.0925(2) 0.93372(16) 0.0201 Uani
C95 C 0.2977(2) 0.1715(2) 0.89494(16) 0.0210 Uani
C96 C 0.4071(2) 0.0466(2) 0.96685(16) 0.0184 Uani
C99 C 0.0601(2) 0.4610(2) 0.76619(16) 0.0186 Uani
C107 C 0.2541(2) 0.2521(2) 0.66987(16) 0.0199 Uani
C108 C 0.2651(2) 0.1769(2) 0.62678(17) 0.0241 Uani
C109 C 0.2803(2) 0.0857(2) 0.64781(16) 0.0230 Uani
C110 C 0.2948(2) 0.0122(2) 0.60799(18) 0.0265 Uani
C112 C 0.2933(3) 0.0313(3) 0.54650(19) 0.0338 Uani
C113 C 0.2775(3) 0.1211(3) 0.52492(19) 0.0386 Uani
C114 C 0.2637(3) 0.1940(2) 0.56491(18) 0.0309 Uani
C115 C 0.4464(2) 0.3043(2) 0.72141(16) 0.0230 Uani
C116 C 0.5550(2) 0.2619(2) 0.70763(18) 0.0275 Uani
C117 C 0.6207(2) 0.1863(2) 0.74134(18) 0.0287 Uani
C118 C 0.7226(2) 0.1470(3) 0.7292(2) 0.0377 Uani
C119 C 0.7940(3) 0.0660(3) 0.7656(2) 0.0477 Uani
C120 C 0.7570(3) 0.1836(3) 0.6809(2) 0.0451 Uani
C121 C 0.6911(3) 0.2588(3) 0.6463(2) 0.0483 Uani
C122 C 0.5902(3) 0.2983(3) 0.6592(2) 0.0362 Uani
C123 C 0.2650(2) 0.5070(2) 0.81773(16) 0.0201 Uani
C124 C 0.2763(2) 0.5746(2) 0.85866(16) 0.0209 Uani
C125 C 0.2869(2) 0.6526(2) 0.83397(17) 0.0243 Uani
C126 C 0.2989(2) 0.7167(2) 0.87110(18) 0.0274 Uani
C127 C 0.3132(3) 0.7991(3) 0.8450(2) 0.0340 Uani
C128 C 0.2987(3) 0.7024(3) 0.93325(19) 0.0315 Uani
C129 C 0.2887(3) 0.6248(3) 0.95775(19) 0.0361 Uani
C130 C 0.2784(2) 0.5600(2) 0.92062(17) 0.0272 Uani
H57 H 0.6762 0.2139 0.9322 0.0340 Uiso
H58 H 0.4950 0.3678 0.8364 0.0580 Uiso
H59 H 0.4931 0.3987 0.9028 0.0580 Uiso
H60 H 0.5149 0.2935 0.8881 0.0580 Uiso
H61 H 0.6252 0.4084 0.7975 0.0490 Uiso
H62 H 0.7916 0.3624 0.7864 0.0520 Uiso
H63 H 0.9033 0.2445 0.8489 0.0420 Uiso
H78 H 0.2805 0.0745 0.6901 0.0280 Uiso
H83 H 0.2778 0.1322 0.4823 0.0480 Uiso
H84 H 0.2539 0.2558 0.5501 0.0370 Uiso
H85 H 0.5962 0.1609 0.7737 0.0350 Uiso
H86 H 0.7668 0.0709 0.8062 0.0570 Uiso
H87 H 0.8542 0.0696 0.7661 0.0570 Uiso
H88 H 0.8067 0.0055 0.7487 0.0570 Uiso
H89 H 0.8265 0.1567 0.6716 0.0560 Uiso
H90 H 0.7154 0.2833 0.6132 0.0590 Uiso
H91 H 0.5448 0.3500 0.6354 0.0450 Uiso
H92 H 0.2857 0.6620 0.7915 0.0290 Uiso
H93 H 0.2815 0.8187 0.8081 0.0410 Uiso
H94 H 0.3828 0.7780 0.8373 0.0410 Uiso
H95 H 0.2870 0.8517 0.8728 0.0410 Uiso
H96 H 0.3061 0.7459 0.9592 0.0390 Uiso
H98 H 0.2726 0.5060 0.9374 0.0340 Uiso
Ru1 Ru 0.93816(2) 0.98624(2) 0.021844(12) 0.0170 Uani
Ru2 Ru 0.73479(2) 0.66959(2) 0.215949(12) 0.0163 Uani
Ru3 Ru 0.75830(2) 0.56629(2) 0.295072(12) 0.0180 Uani
Ru4 Ru 0.935608(19) 0.068616(19) 0.482670(12) 0.0139 Uani
S2 S 0.51783(7) 0.71123(7) 0.47889(5) 0.0270 Uani
O5 O 0.88424(17) 0.60708(16) 0.19979(10) 0.0178 Uani
O6 O 0.90669(17) 0.50818(17) 0.27842(11) 0.0196 Uani
O7 O 0.73669(17) 0.76777(17) 0.27390(11) 0.0187 Uani
O8 O 0.76105(18) 0.66530(17) 0.35115(10) 0.0206 Uani
O9 O 0.58575(17) 0.72876(17) 0.23429(11) 0.0212 Uani
O10 O 0.61063(18) 0.62654(18) 0.31171(11) 0.0225 Uani
O11 O 0.72898(17) 0.57199(17) 0.16010(11) 0.0202 Uani
O12 O 0.74932(18) 0.47176(17) 0.23781(11) 0.0207 Uani
O15 O 0.94901(17) 0.14415(16) 0.55149(10) 0.0179 Uani
N1 N 0.8129(2) 0.9658(2) 0.06159(13) 0.0203 Uani
N4 N 0.7187(2) 0.7668(2) 0.13823(13) 0.0212 Uani
N5 N 0.7796(2) 0.4649(2) 0.37195(14) 0.0227 Uani
N6 N 0.5980(2) 0.6017(2) 0.46189(14) 0.0250 Uani
N7 N 0.4264(2) 0.6975(2) 0.50768(14) 0.0256 Uani
N8 N 0.8100(2) 0.2052(2) 0.45352(13) 0.0192 Uani
C17 C 0.7526(2) 0.9411(2) 0.06405(15) 0.0190 Uani
C18 C 0.6821(2) 0.9075(2) 0.06628(16) 0.0201 Uani
C19 C 0.7023(2) 0.8285(2) 0.10506(16) 0.0210 Uani
C20 C 0.5929(2) 0.9534(2) 0.03315(16) 0.0184 Uani
C23 C 0.9399(2) 0.5390(2) 0.23381(16) 0.0186 Uani
C31 C 0.7459(2) 0.7479(2) 0.33013(16) 0.0199 Uani
C32 C 0.7349(2) 0.8231(2) 0.37322(17) 0.0241 Uani
C33 C 0.7197(2) 0.9143(2) 0.35219(16) 0.0230 Uani
C34 C 0.7052(2) 0.9878(2) 0.39201(18) 0.0265 Uani
C36 C 0.7067(3) 0.9687(3) 0.45350(19) 0.0338 Uani
C37 C 0.7225(3) 0.8789(3) 0.47508(19) 0.0386 Uani
C38 C 0.7363(3) 0.8060(2) 0.43509(18) 0.0309 Uani
C39 C 0.5536(2) 0.6957(2) 0.27859(16) 0.0230 Uani
C40 C 0.4450(2) 0.7381(2) 0.29237(18) 0.0275 Uani
C41 C 0.3793(2) 0.8137(2) 0.25866(18) 0.0287 Uani
C42 C 0.2774(2) 0.8530(3) 0.2708(2) 0.0377 Uani
C43 C 0.2060(3) 0.9340(3) 0.2344(2) 0.0477 Uani
C44 C 0.2430(3) 0.8164(3) 0.3191(2) 0.0451 Uani
C45 C 0.3089(3) 0.7412(3) 0.3537(2) 0.0483 Uani
C46 C 0.4098(3) 0.7017(3) 0.3408(2) 0.0362 Uani
C47 C 0.7350(2) 0.4930(2) 0.18227(16) 0.0201 Uani
C48 C 0.7237(2) 0.4254(2) 0.14134(16) 0.0209 Uani
C49 C 0.7131(2) 0.3474(2) 0.16603(17) 0.0243 Uani
C50 C 0.7011(2) 0.2833(2) 0.12890(18) 0.0274 Uani
C51 C 0.6868(3) 0.2009(3) 0.1550(2) 0.0340 Uani
C52 C 0.7013(3) 0.2976(3) 0.06675(19) 0.0315 Uani
C53 C 0.7113(3) 0.3752(3) 0.04225(19) 0.0361 Uani
C54 C 0.7216(2) 0.4400(2) 0.07938(17) 0.0272 Uani
C55 C 0.7438(2) 0.4309(2) 0.40498(16) 0.0214 Uani
C56 C 0.7012(2) 0.3877(2) 0.44409(16) 0.0213 Uani
C57 C 0.7588(2) 0.2874(2) 0.45038(15) 0.0187 Uani
C58 C 0.6029(2) 0.4427(2) 0.47248(16) 0.0202 Uani
C59 C 0.5554(2) 0.5448(2) 0.47809(16) 0.0211 Uani
C60 C 0.4553(2) 0.6005(2) 0.50496(16) 0.0202 Uani
C75 C 0.9704(3) 0.3054(2) 0.69213(19) 0.0339 Uani
C76 C 0.9673(3) 0.2550(2) 0.64284(17) 0.0284 Uani
H22 H 0.7195 0.9255 0.3099 0.0280 Uiso
H27 H 0.7222 0.8678 0.5177 0.0480 Uiso
H28 H 0.7461 0.7442 0.4499 0.0370 Uiso
H29 H 0.4038 0.8391 0.2263 0.0350 Uiso
H30 H 0.2332 0.9291 0.1938 0.0570 Uiso
H31 H 0.1458 0.9304 0.2339 0.0570 Uiso
H32 H 0.1933 0.9945 0.2513 0.0570 Uiso
H33 H 0.1735 0.8433 0.3284 0.0560 Uiso
H34 H 0.2846 0.7167 0.3868 0.0590 Uiso
H35 H 0.4552 0.6500 0.3646 0.0450 Uiso
H36 H 0.7143 0.3380 0.2085 0.0290 Uiso
H37 H 0.7185 0.1813 0.1919 0.0410 Uiso
H38 H 0.6172 0.2220 0.1627 0.0410 Uiso
H39 H 0.7130 0.1483 0.1272 0.0410 Uiso
H40 H 0.6939 0.2541 0.0408 0.0390 Uiso
H42 H 0.7274 0.4940 0.0626 0.0340 Uiso
H55 H 0.9374 0.3747 0.6921 0.0410 Uiso
H56 H 0.9324 0.2889 0.6086 0.0340 Uiso
S4 S 0.48217(7) 0.28877(7) 0.52111(5) 0.0270 Uani
O31 O 0.84048(16) 0.04069(16) 0.53680(10) 0.0170 Uani
N12 N 0.5826(2) 0.8034(2) 0.01543(15) 0.0278 Uani
N16 N 0.4020(2) 0.3983(2) 0.53811(14) 0.0250 Uani
N17 N 0.5736(2) 0.3025(2) 0.49232(14) 0.0256 Uani
N18 N 0.1900(2) 0.7948(2) 0.54648(13) 0.0192 Uani
C98 C 0.5464(2) 0.9010(2) 0.01113(16) 0.0217 Uani
C131 C 0.2562(2) 0.5691(2) 0.59502(16) 0.0214 Uani
C132 C 0.2988(2) 0.6123(2) 0.55591(16) 0.0213 Uani
C133 C 0.2412(2) 0.7126(2) 0.54962(15) 0.0187 Uani
C134 C 0.3971(2) 0.5573(2) 0.52752(16) 0.0202 Uani
C135 C 0.4446(2) 0.4552(2) 0.52191(16) 0.0211 Uani
C136 C 0.5447(2) 0.3995(2) 0.49504(16) 0.0202 Uani
C139 C 0.7043(2) 0.0108(2) 0.61232(16) 0.0236 Uani
C141 C 0.5280(3) 0.0589(3) 0.6473(2) 0.0393 Uani
H99 H 0.6800 0.0662 0.5872 0.0290 Uiso
H100 H 0.5167 0.1232 0.6370 0.0480 Uiso
H101 H 0.4959 0.0607 0.6854 0.0480 Uiso
H102 H 0.5009 0.0368 0.6173 0.0480 Uiso
H41 H 0.7111 0.3840 0.9996 0.0430 Uiso
S3 S 0.50717(8) 0.77784(7) 0.98225(5) 0.0316 Uani
O20 O 0.95971(18) 0.89350(17) 0.95333(11) 0.0208 Uani
N11 N 0.4252(2) 0.8825(2) 0.96092(15) 0.0283 Uani
C91 C 0.9990(3) 0.7041(3) 0.8111(2) 0.0397 Uani
C92 C 0.9937(3) 0.7575(2) 0.86149(17) 0.0298 Uani
C97 C 0.4555(2) 0.9476(2) 0.97957(16) 0.0213 Uani
C111 C 0.3136(3) 0.9137(2) 0.6305(2) 0.0336 Uani
H69 H 0.9754 0.6575 0.8142 0.0470 Uiso
H70 H 0.9665 0.7476 0.8992 0.0360 Uiso
H79 H 0.2806 0.9207 0.6696 0.0410 Uiso
H80 H 0.3824 0.8735 0.6334 0.0410 Uiso
H81 H 0.2883 0.8856 0.6035 0.0410 Uiso
H82 H 0.3022 0.9817 0.5185 0.0400 Uiso
O29 O 0.96736(17) 0.90587(17) 0.57086(10) 0.0184 Uani
O35 O 0.92571(17) 0.99104(16) 0.41411(10) 0.0174 Uani
C137 C 0.8751(2) 0.9661(2) 0.57129(15) 0.0168 Uani
C138 C 0.8054(2) 0.9486(2) 0.61225(16) 0.0217 Uani
C140 C 0.6374(2) 0.9926(2) 0.64903(18) 0.0287 Uani
C142 C 0.6749(3) 0.9132(3) 0.6863(2) 0.0382 Uani
C143 C 0.7763(3) 0.8514(3) 0.6879(2) 0.0388 Uani
C144 C 0.8418(2) 0.8687(2) 0.65023(18) 0.0284 Uani
C145 C 0.9866(2) 0.9009(2) 0.40950(15) 0.0175 Uani
C146 C 0.9845(2) 0.8455(2) 0.35683(15) 0.0181 Uani
C147 C 0.9341(2) 0.8952(2) 0.30692(16) 0.0198 Uani
C148 C 0.9312(2) 0.8449(2) 0.25624(17) 0.0241 Uani
C149 C 0.8768(3) 0.8973(3) 0.20199(18) 0.0333 Uani
C150 C 0.9792(3) 0.7440(2) 0.25745(17) 0.0287 Uani
H103 H 0.6294 0.9007 0.7115 0.0450 Uiso
H104 H 0.8000 0.7971 0.7142 0.0470 Uiso
H105 H 0.9111 0.8259 0.6502 0.0350 Uiso
H106 H 0.9016 0.9644 0.3074 0.0250 Uiso
H107 H 0.8224 0.9573 0.2142 0.0400 Uiso
H108 H 0.8530 0.8585 0.1827 0.0400 Uiso
H109 H 0.9203 0.9080 0.1743 0.0400 Uiso
H110 H 0.9776 0.7078 0.2239 0.0340 Uiso
C100 C 0.9513(2) 0.5056(2) 0.77816(16) 0.0196 Uani
C101 C 0.9118(2) 0.4920(2) 0.83389(17) 0.0251 Uani
C102 C 0.8109(2) 0.5351(3) 0.84698(19) 0.0324 Uani
C103 C 0.7675(3) 0.5241(3) 0.9076(2) 0.0476 Uani
C104 C 0.7484(2) 0.5912(3) 0.8022(2) 0.0330 Uani
C105 C 0.7865(3) 0.6055(3) 0.7466(2) 0.0353 Uani
C106 C 0.8880(2) 0.5634(2) 0.73450(17) 0.0256 Uani
H71 H 0.9559 0.4527 0.8633 0.0320 Uiso
H72 H 0.8122 0.5167 0.9380 0.0560 Uiso
H73 H 0.7569 0.4691 0.9074 0.0560 Uiso
H74 H 0.7062 0.5807 0.9168 0.0560 Uiso
H75 H 0.6784 0.6204 0.8095 0.0400 Uiso
H76 H 0.7436 0.6429 0.7165 0.0420 Uiso
H77 H 0.9143 0.5743 0.6969 0.0300 Uiso
loop_
_atom_site_aniso_label
_atom_site_aniso_U_11
_atom_site_aniso_U_22
_atom_site_aniso_U_33
_atom_site_aniso_U_23
_atom_site_aniso_U_13
_atom_site_aniso_U_12
O4 0.0244 0.0235 0.0191 -0.005 0.0009 -0.0151
C15 0.061 0.036 0.036 -0.0045 -0.003 -0.034
C16 0.042 0.03 0.0214 -0.0054 0.0031 -0.0204
Ru5 0.016 0.02115 0.01651 -0.00354 0.0009 -0.01095
N10 0.0188 0.0226 0.021 0.0017 -0.0011 -0.0111
O1 0.0201 0.0255 0.0191 0.0019 -0.0011 -0.0137
O2 0.0182 0.0238 0.0217 0.0003 -0.0011 -0.0122
O13 0.0164 0.018 0.0195 0.0005 0.0015 -0.0073
O16 0.0172 0.0164 0.017 -0.0021 -0.0007 -0.0066
C1 0.0236 0.026 0.0182 -0.0088 -0.0004 -0.0144
C2 0.024 0.024 0.0215 -0.006 -0.0021 -0.0085
C3 0.028 0.035 0.0197 -0.0058 -0.0018 -0.012
C4 0.027 0.038 0.029 -0.0046 -0.0061 -0.0063
C5 0.032 0.059 0.041 0.002 -0.008 -0.005
C6 0.041 0.032 0.044 0.0064 -0.016 -0.011
C7 0.045 0.035 0.05 0.013 -0.009 -0.021
C8 0.03 0.029 0.04 0.0069 -0.0045 -0.0112
C24 0.0202 0.014 0.0266 -0.0041 -0.0025 -0.0094
C25 0.0258 0.027 0.0239 0.0024 -0.0048 -0.0133
C26 0.023 0.037 0.035 -0.0035 -0.0024 -0.0119
C27 0.024 0.068 0.042 0.01 0.0013 -0.015
C28 0.0195 0.033 0.041 -0.0018 -0.0029 -0.0076
C29 0.027 0.039 0.037 0.0086 -0.0144 -0.0118
C30 0.0252 0.023 0.027 -0.002 -0.0031 -0.0098
C61 0.0184 0.0167 0.0156 -0.0058 0.0003 -0.0085
C62 0.0198 0.027 0.0204 -0.0055 0.0047 -0.0132
C64 0.0232 0.035 0.029 -0.0096 0.0093 -0.0153
C66 0.038 0.039 0.04 0.001 0.0152 -0.022
C67 0.04 0.033 0.038 0.0089 0.0068 -0.014
C68 0.024 0.026 0.031 0.0018 0.0048 -0.009
C69 0.0147 0.0188 0.0196 0.0012 0.0031 -0.0089
C70 0.0194 0.0195 0.0176 -0.0036 0.0036 -0.0113
C71 0.019 0.021 0.021 -0.0017 -0.0009 -0.0107
C72 0.0212 0.033 0.0221 -0.0018 0.0008 -0.0161
C73 0.034 0.042 0.024 -0.0031 -0.0062 -0.0172
C74 0.039 0.032 0.024 -0.0072 0.0015 -0.024
O19 0.0212 0.0211 0.0184 -0.0064 0.0023 -0.0117
C85 0.0221 0.0182 0.0228 0.0009 -0.0033 -0.0093
C86 0.025 0.0209 0.0204 -0.0028 -0.0022 -0.0093
C87 0.0233 0.018 0.0263 -0.0003 -0.003 -0.0077
C88 0.033 0.022 0.019 -0.0005 -0.0056 -0.0064
C89 0.048 0.041 0.021 -0.005 -0.0003 -0.018
C90 0.046 0.023 0.024 -0.0068 -0.0045 -0.0138
O14 0.015 0.0132 0.0191 0.0002 0.0022 -0.004
C63 0.0259 0.027 0.0207 -0.0019 0.0008 -0.0149
C65 0.029 0.05 0.043 -0.011 0.0107 -0.023
Ru11 0.01271 0.01287 0.01466 -0.00056 -0.00019 -0.00485
O33 0.019 0.0129 0.0193 -0.0013 -0.0015 -0.0052
C151 0.05 0.025 0.031 -0.003 -0.0031 -0.021
C152 0.04 0.023 0.025 0.0019 -0.0063 -0.0166
S1 0.0301 0.0245 0.0434 0.0028 -0.0107 -0.0146
O3 0.0212 0.0211 0.0184 -0.0064 0.0023 -0.0117
N2 0.026 0.0317 0.0291 -0.0012 -0.0038 -0.0148
C9 0.0221 0.0182 0.0228 0.0009 -0.0033 -0.0093
C10 0.025 0.0209 0.0204 -0.0028 -0.0022 -0.0093
C11 0.0233 0.018 0.0263 -0.0003 -0.003 -0.0077
C12 0.033 0.022 0.019 -0.0005 -0.0056 -0.0064
C13 0.048 0.041 0.021 -0.005 -0.0003 -0.018
C14 0.046 0.023 0.024 -0.0068 -0.0045 -0.0138
C21 0.0215 0.0211 0.0258 -0.0002 -0.0015 -0.0138
C35 0.033 0.024 0.044 -0.005 -0.0072 -0.0128
N3 0.0284 0.023 0.0326 0.0033 -0.0066 -0.012
C22 0.0229 0.0206 0.0239 0.0045 -0.0024 -0.0121
Ru7 0.01756 0.0158 0.01623 0.00045 -0.00175 -0.00825
Ru8 0.02084 0.01846 0.01679 0.00101 -0.00103 -0.01105
O17 0.0201 0.0255 0.0191 0.0019 -0.0011 -0.0137
O18 0.0182 0.0238 0.0217 0.0003 -0.0011 -0.0122
O21 0.0184 0.0169 0.0201 0.0024 -0.0021 -0.0098
O22 0.0225 0.0193 0.0199 0.0031 -0.0027 -0.0121
O23 0.0198 0.0167 0.0193 0.0003 -0.003 -0.008
O24 0.0259 0.0209 0.0164 0.0013 -0.0039 -0.0119
O25 0.0192 0.0209 0.0236 -0.0005 -0.0006 -0.0095
O26 0.0223 0.0248 0.022 0.0018 0.0022 -0.0128
O27 0.0223 0.0195 0.0195 -0.0012 -0.0034 -0.01
O28 0.0244 0.0181 0.022 0.0006 -0.0025 -0.0117
N13 0.0217 0.0243 0.0203 0.0048 -0.0041 -0.0128
N15 0.0246 0.0216 0.0206 0.0038 0.0035 -0.0104
C77 0.0236 0.026 0.0182 -0.0088 -0.0004 -0.0144
C78 0.024 0.024 0.0215 -0.006 -0.0021 -0.0085
C79 0.028 0.035 0.0197 -0.0058 -0.0018 -0.012
C80 0.027 0.038 0.029 -0.0046 -0.0061 -0.0063
C81 0.032 0.059 0.041 0.002 -0.008 -0.005
C82 0.041 0.032 0.044 0.0064 -0.016 -0.011
C83 0.045 0.035 0.05 0.013 -0.009 -0.021
C84 0.03 0.029 0.04 0.0069 -0.0045 -0.0112
C93 0.0204 0.0199 0.0127 0.0027 -0.0026 -0.0061
C94 0.0201 0.0218 0.0203 0.0019 -0.0016 -0.0115
C95 0.0149 0.028 0.0211 0.0001 -0.0015 -0.0107
C96 0.0179 0.0192 0.0197 0.0026 -0.0002 -0.0101
C99 0.0222 0.0179 0.0202 -0.0026 -0.0015 -0.0131
C107 0.015 0.0222 0.0221 0.0015 -0.0012 -0.0083
C108 0.0197 0.023 0.029 -0.0046 0.0004 -0.0094
C109 0.0186 0.028 0.0227 -0.0007 -0.002 -0.011
C110 0.0187 0.024 0.036 -0.0064 -0.0036 -0.0088
C112 0.039 0.032 0.031 -0.0131 -0.0036 -0.0164
C113 0.052 0.042 0.025 -0.0043 -0.006 -0.024
C114 0.041 0.024 0.026 -0.0016 -0.0042 -0.0135
C115 0.024 0.026 0.0231 -0.0081 0.0022 -0.0152
C116 0.0217 0.036 0.027 -0.0111 0.001 -0.0152
C117 0.026 0.029 0.032 -0.0118 0.0035 -0.0137
C118 0.02 0.035 0.051 -0.017 -0.0034 -0.0062
C119 0.03 0.044 0.065 -0.017 0.003 -0.014
C120 0.023 0.058 0.056 -0.021 0.01 -0.021
C121 0.034 0.066 0.05 -0.007 0.012 -0.029
C122 0.032 0.043 0.038 -0.0032 0.006 -0.022
C123 0.014 0.0211 0.0246 -0.0019 -0.0003 -0.0078
C124 0.0183 0.0183 0.026 -0.0047 -0.0004 -0.0084
C125 0.019 0.023 0.029 -0.004 0 -0.0082
C126 0.0221 0.022 0.037 -0.0064 0.0003 -0.0094
C127 0.035 0.031 0.042 -0.0103 0.0055 -0.0208
C128 0.032 0.034 0.034 -0.0101 -0.0008 -0.0197
C129 0.044 0.041 0.027 -0.0081 0.0006 -0.023
C130 0.032 0.028 0.026 -0.0049 0.0011 -0.0178
Ru1 0.016 0.02115 0.01651 -0.00354 0.0009 -0.01095
Ru2 0.01756 0.0158 0.01623 0.00045 -0.00175 -0.00825
Ru3 0.02084 0.01846 0.01679 0.00101 -0.00103 -0.01105
Ru4 0.01271 0.01287 0.01466 -0.00056 -0.00019 -0.00485
S2 0.025 0.0171 0.0367 -0.0006 0.0064 -0.0088
O5 0.0184 0.0169 0.0201 0.0024 -0.0021 -0.0098
O6 0.0225 0.0193 0.0199 0.0031 -0.0027 -0.0121
O7 0.0198 0.0167 0.0193 0.0003 -0.003 -0.008
O8 0.0259 0.0209 0.0164 0.0013 -0.0039 -0.0119
O9 0.0192 0.0209 0.0236 -0.0005 -0.0006 -0.0095
O10 0.0223 0.0248 0.022 0.0018 0.0022 -0.0128
O11 0.0223 0.0195 0.0195 -0.0012 -0.0034 -0.01
O12 0.0244 0.0181 0.022 0.0006 -0.0025 -0.0117
O15 0.019 0.0129 0.0193 -0.0013 -0.0015 -0.0052
N1 0.0188 0.0226 0.021 0.0017 -0.0011 -0.0111
N4 0.0217 0.0243 0.0203 0.0048 -0.0041 -0.0128
N5 0.0246 0.0216 0.0206 0.0038 0.0035 -0.0104
N6 0.0267 0.0183 0.0288 0.0003 0.0026 -0.0101
N7 0.0257 0.0167 0.0301 -0.0005 0.0015 -0.0067
N8 0.0159 0.0176 0.0202 0.0027 0.0012 -0.005
C17 0.0204 0.0199 0.0127 0.0027 -0.0026 -0.0061
C18 0.0201 0.0218 0.0203 0.0019 -0.0016 -0.0115
C19 0.0149 0.028 0.0211 0.0001 -0.0015 -0.0107
C20 0.0179 0.0192 0.0197 0.0026 -0.0002 -0.0101
C23 0.0222 0.0179 0.0202 -0.0026 -0.0015 -0.0131
C31 0.015 0.0222 0.0221 0.0015 -0.0012 -0.0083
C32 0.0197 0.023 0.029 -0.0046 0.0004 -0.0094
C33 0.0186 0.028 0.0227 -0.0007 -0.002 -0.011
C34 0.0187 0.024 0.036 -0.0064 -0.0036 -0.0088
C36 0.039 0.032 0.031 -0.0131 -0.0036 -0.0164
C37 0.052 0.042 0.025 -0.0043 -0.006 -0.024
C38 0.041 0.024 0.026 -0.0016 -0.0042 -0.0135
C39 0.024 0.026 0.0231 -0.0081 0.0022 -0.0152
C40 0.0217 0.036 0.027 -0.0111 0.001 -0.0152
C41 0.026 0.029 0.032 -0.0118 0.0035 -0.0137
C42 0.02 0.035 0.051 -0.017 -0.0034 -0.0062
C43 0.03 0.044 0.065 -0.017 0.003 -0.014
C44 0.023 0.058 0.056 -0.021 0.01 -0.021
C45 0.034 0.066 0.05 -0.007 0.012 -0.029
C46 0.032 0.043 0.038 -0.0032 0.006 -0.022
C47 0.014 0.0211 0.0246 -0.0019 -0.0003 -0.0078
C48 0.0183 0.0183 0.026 -0.0047 -0.0004 -0.0084
C49 0.019 0.023 0.029 -0.004 0 -0.0082
C50 0.0221 0.022 0.037 -0.0064 0.0003 -0.0094
C51 0.035 0.031 0.042 -0.0103 0.0055 -0.0208
C52 0.032 0.034 0.034 -0.0101 -0.0008 -0.0197
C53 0.044 0.041 0.027 -0.0081 0.0006 -0.023
C54 0.032 0.028 0.026 -0.0049 0.0011 -0.0178
C55 0.0194 0.0171 0.0201 -0.0012 -0.002 -0.0021
C56 0.0202 0.0187 0.0241 0.0022 0.0021 -0.0089
C57 0.0168 0.024 0.0166 -0.0009 0.0017 -0.0109
C58 0.0209 0.0186 0.0177 0.0028 -0.0017 -0.0065
C59 0.0209 0.018 0.0205 0.0015 0.0019 -0.0062
C60 0.0245 0.0148 0.0188 0.0018 0.0004 -0.0073
C75 0.05 0.025 0.031 -0.003 -0.0031 -0.021
C76 0.04 0.023 0.025 0.0019 -0.0063 -0.0166
S4 0.025 0.0171 0.0367 -0.0006 0.0064 -0.0088
O31 0.015 0.0132 0.0191 0.0002 0.0022 -0.004
N12 0.0284 0.023 0.0326 0.0033 -0.0066 -0.012
N16 0.0267 0.0183 0.0288 0.0003 0.0026 -0.0101
N17 0.0257 0.0167 0.0301 -0.0005 0.0015 -0.0067
N18 0.0159 0.0176 0.0202 0.0027 0.0012 -0.005
C98 0.0229 0.0206 0.0239 0.0045 -0.0024 -0.0121
C131 0.0194 0.0171 0.0201 -0.0012 -0.002 -0.0021
C132 0.0202 0.0187 0.0241 0.0022 0.0021 -0.0089
C133 0.0168 0.024 0.0166 -0.0009 0.0017 -0.0109
C134 0.0209 0.0186 0.0177 0.0028 -0.0017 -0.0065
C135 0.0209 0.018 0.0205 0.0015 0.0019 -0.0062
C136 0.0245 0.0148 0.0188 0.0018 0.0004 -0.0073
C139 0.0259 0.027 0.0207 -0.0019 0.0008 -0.0149
C141 0.029 0.05 0.043 -0.011 0.0107 -0.023
S3 0.0301 0.0245 0.0434 0.0028 -0.0107 -0.0146
O20 0.0244 0.0235 0.0191 -0.005 0.0009 -0.0151
N11 0.026 0.0317 0.0291 -0.0012 -0.0038 -0.0148
C91 0.061 0.036 0.036 -0.0045 -0.003 -0.034
C92 0.042 0.03 0.0214 -0.0054 0.0031 -0.0204
C97 0.0215 0.0211 0.0258 -0.0002 -0.0015 -0.0138
C111 0.033 0.024 0.044 -0.005 -0.0072 -0.0128
O29 0.0164 0.018 0.0195 0.0005 0.0015 -0.0073
O35 0.0172 0.0164 0.017 -0.0021 -0.0007 -0.0066
C137 0.0184 0.0167 0.0156 -0.0058 0.0003 -0.0085
C138 0.0198 0.027 0.0204 -0.0055 0.0047 -0.0132
C140 0.0232 0.035 0.029 -0.0096 0.0093 -0.0153
C142 0.038 0.039 0.04 0.001 0.0152 -0.022
C143 0.04 0.033 0.038 0.0089 0.0068 -0.014
C144 0.024 0.026 0.031 0.0018 0.0048 -0.009
C145 0.0147 0.0188 0.0196 0.0012 0.0031 -0.0089
C146 0.0194 0.0195 0.0176 -0.0036 0.0036 -0.0113
C147 0.019 0.021 0.021 -0.0017 -0.0009 -0.0107
C148 0.0212 0.033 0.0221 -0.0018 0.0008 -0.0161
C149 0.034 0.042 0.024 -0.0031 -0.0062 -0.0172
C150 0.039 0.032 0.024 -0.0072 0.0015 -0.024
C100 0.0202 0.014 0.0266 -0.0041 -0.0025 -0.0094
C101 0.0258 0.027 0.0239 0.0024 -0.0048 -0.0133
C102 0.023 0.037 0.035 -0.0035 -0.0024 -0.0119
C103 0.024 0.068 0.042 0.01 0.0013 -0.015
C104 0.0195 0.033 0.041 -0.0018 -0.0029 -0.0076
C105 0.027 0.039 0.037 0.0086 -0.0144 -0.0118
C106 0.0252 0.023 0.027 -0.002 -0.0031 -0.0098
loop_
_geom_bond_atom_site_label_1
_geom_bond_atom_site_label_2
_geom_bond_site_symmetry_1
_geom_bond_site_symmetry_2
H13 C15 1_555 1_555
H14 C16 1_555 1_555
C15 C16 1_555 1_555
N10 Ru5 1_555 1_555
O1 C1 1_555 1_555
O2 C1 1_555 1_555
O13 C61 1_555 1_555
O16 C69 1_555 1_555
C1 C2 1_555 1_555
C2 C3 1_555 1_555
C3 C4 1_555 1_555
C4 C5 1_555 1_555
C5 H2 1_555 1_555
C6 C4 1_555 1_555
C7 C6 1_555 1_555
C8 C2 1_555 1_555
C25 C24 1_555 1_555
C26 C25 1_555 1_555
C27 C26 1_555 1_555
C28 C26 1_555 1_555
C29 C28 1_555 1_555
C30 C24 1_555 1_555
C61 C62 1_555 1_555
C66 C64 1_555 1_555
C67 C66 1_555 1_555
C68 C62 1_555 1_555
C70 C69 1_555 1_555
C71 C70 1_555 1_555
C72 C71 1_555 1_555
C73 C72 1_555 1_555
C74 C72 1_555 1_555
H1 C3 1_555 1_555
H3 C5 1_555 1_555
H4 C5 1_555 1_555
H5 C6 1_555 1_555
H6 C7 1_555 1_555
H7 C8 1_555 1_555
H15 C25 1_555 1_555
H16 C27 1_555 1_555
H17 C27 1_555 1_555
H18 C27 1_555 1_555
H19 C28 1_555 1_555
H20 C29 1_555 1_555
H21 C30 1_555 1_555
H47 C66 1_555 1_555
H48 C67 1_555 1_555
H49 C68 1_555 1_555
H50 C71 1_555 1_555
H51 C73 1_555 1_555
H52 C73 1_555 1_555
H53 C73 1_555 1_555
H54 C74 1_555 1_555
C7 C8 1_555 1_555
C29 C30 1_555 1_555
C67 C68 1_555 1_555
C85 O19 1_555 1_555
C86 C85 1_555 1_555
C87 C86 1_555 1_555
C88 C87 1_555 1_555
C89 C88 1_555 1_555
C90 C88 1_555 1_555
H64 C87 1_555 1_555
H65 C89 1_555 1_555
H66 C89 1_555 1_555
H67 C89 1_555 1_555
H68 C90 1_555 1_555
C65 H44 1_555 1_555
H43 C63 1_555 1_555
H45 C65 1_555 1_555
H46 C65 1_555 1_555
O33 Ru11 1_555 1_555
H111 C151 1_555 1_555
H112 C152 1_555 1_555
O14 Ru11 1_555 1_555
C151 C152 1_555 1_555
S1 N2 1_555 1_555
N2 C21 1_555 1_555
C9 O3 1_555 1_555
C10 C9 1_555 1_555
C11 C10 1_555 1_555
C12 C11 1_555 1_555
C13 C12 1_555 1_555
C14 C12 1_555 1_555
H8 C11 1_555 1_555
H9 C13 1_555 1_555
H10 C13 1_555 1_555
H11 C13 1_555 1_555
H12 C14 1_555 1_555
H23 C35 1_555 1_555
H24 C35 1_555 1_555
H25 C35 1_555 1_555
C22 N3 1_555 1_555
Ru7 Ru8 1_555 1_555
Ru8 O22 1_555 1_555
O21 Ru7 1_555 1_555
O22 C99 1_555 1_555
O23 Ru7 1_555 1_555
O24 Ru8 1_555 1_555
O25 Ru7 1_555 1_555
O26 Ru8 1_555 1_555
O27 Ru7 1_555 1_555
O28 Ru8 1_555 1_555
N10 C93 1_555 1_555
N13 Ru7 1_555 1_555
N15 Ru8 1_555 1_555
C77 O17 1_555 1_555
C78 C77 1_555 1_555
C79 C78 1_555 1_555
C80 C79 1_555 1_555
C81 C80 1_555 1_555
C82 C80 1_555 1_555
C83 C82 1_555 1_555
C84 C78 1_555 1_555
C93 C94 1_555 1_555
C94 C95 1_555 1_555
C95 N13 1_555 1_555
C96 C22 1_555 1_555
C99 O21 1_555 1_555
C107 O23 1_555 1_555
C108 C107 1_555 1_555
C109 C108 1_555 1_555
C110 C109 1_555 1_555
C112 C110 1_555 1_555
C113 C112 1_555 1_555
C114 C108 1_555 1_555
C115 O25 1_555 1_555
C116 C115 1_555 1_555
C117 C116 1_555 1_555
C118 C117 1_555 1_555
C119 C118 1_555 1_555
C120 C118 1_555 1_555
C121 C120 1_555 1_555
C122 C116 1_555 1_555
C123 O27 1_555 1_555
C124 C123 1_555 1_555
C125 C124 1_555 1_555
C126 C125 1_555 1_555
C127 C126 1_555 1_555
C128 C126 1_555 1_555
C129 C128 1_555 1_555
C130 C124 1_555 1_555
H57 C79 1_555 1_555
H58 C81 1_555 1_555
H59 C81 1_555 1_555
H60 C81 1_555 1_555
H61 C82 1_555 1_555
H62 C83 1_555 1_555
H63 C84 1_555 1_555
H78 C109 1_555 1_555
H83 C113 1_555 1_555
H84 C114 1_555 1_555
H85 C117 1_555 1_555
H86 C119 1_555 1_555
H87 C119 1_555 1_555
H88 C119 1_555 1_555
H89 C120 1_555 1_555
H90 C121 1_555 1_555
H91 C122 1_555 1_555
H92 C125 1_555 1_555
H93 C127 1_555 1_555
H94 C127 1_555 1_555
H95 C127 1_555 1_555
H96 C128 1_555 1_555
H98 C130 1_555 1_555
O18 C77 1_555 1_555
O24 C107 1_555 1_555
O26 C115 1_555 1_555
O28 C123 1_555 1_555
C83 C84 1_555 1_555
C94 C96 1_555 1_555
C113 C114 1_555 1_555
C121 C122 1_555 1_555
C129 C130 1_555 1_555
Ru2 Ru3 1_555 1_555
Ru3 O6 1_555 1_555
S2 N6 1_555 1_555
O5 Ru2 1_555 1_555
O6 C23 1_555 1_555
O7 Ru2 1_555 1_555
O8 Ru3 1_555 1_555
O9 Ru2 1_555 1_555
O10 Ru3 1_555 1_555
O11 Ru2 1_555 1_555
O12 Ru3 1_555 1_555
O15 Ru4 1_555 1_555
N1 Ru1 1_555 1_555
N4 Ru2 1_555 1_555
N5 Ru3 1_555 1_555
N6 C59 1_555 1_555
N7 S2 1_555 1_555
N8 Ru4 1_555 1_555
C17 N1 1_555 1_555
C18 C17 1_555 1_555
C19 N4 1_555 1_555
C20 C18 1_555 1_555
C23 O5 1_555 1_555
C31 O7 1_555 1_555
C32 C31 1_555 1_555
C33 C32 1_555 1_555
C34 C33 1_555 1_555
C36 C34 1_555 1_555
C37 C36 1_555 1_555
C38 C32 1_555 1_555
C39 O9 1_555 1_555
C40 C39 1_555 1_555
C41 C40 1_555 1_555
C42 C41 1_555 1_555
C43 C42 1_555 1_555
C44 C42 1_555 1_555
C45 C44 1_555 1_555
C46 C40 1_555 1_555
C47 O11 1_555 1_555
C48 C47 1_555 1_555
C49 C48 1_555 1_555
C50 C49 1_555 1_555
C51 C50 1_555 1_555
C52 C50 1_555 1_555
C53 C52 1_555 1_555
C54 C48 1_555 1_555
C55 N5 1_555 1_555
C56 C55 1_555 1_555
C57 N8 1_555 1_555
C58 C56 1_555 1_555
C59 C58 1_555 1_555
C60 N7 1_555 1_555
H22 C33 1_555 1_555
H27 C37 1_555 1_555
H28 C38 1_555 1_555
H29 C41 1_555 1_555
H30 C43 1_555 1_555
H31 C43 1_555 1_555
H32 C43 1_555 1_555
H33 C44 1_555 1_555
H34 C45 1_555 1_555
H35 C46 1_555 1_555
H36 C49 1_555 1_555
H37 C51 1_555 1_555
H38 C51 1_555 1_555
H39 C51 1_555 1_555
H40 C52 1_555 1_555
H42 C54 1_555 1_555
H55 C75 1_555 1_555
H56 C76 1_555 1_555
S4 N16 1_555 1_555
O31 Ru4 1_555 1_555
N15 C131 1_555 1_555
N16 C135 1_555 1_555
N17 S4 1_555 1_555
N18 Ru11 1_555 1_555
C98 C20 1_555 1_555
C131 C132 1_555 1_555
C132 C133 1_555 1_555
C133 N18 1_555 1_555
C134 C60 1_555 1_555
C135 C134 1_555 1_555
C136 C58 1_555 1_555
H99 C139 1_555 1_555
H100 C141 1_555 1_555
H101 C141 1_555 1_555
H102 C141 1_555 1_555
O8 C31 1_555 1_555
O10 C39 1_555 1_555
O12 C47 1_555 1_555
C18 C19 1_555 1_555
C37 C38 1_555 1_555
C45 C46 1_555 1_555
C53 C54 1_555 1_555
C56 C57 1_555 1_555
C59 C60 1_555 1_555
C75 C76 1_555 1_555
N12 C98 1_555 1_555
N17 C136 1_555 1_555
C132 C134 1_555 1_555
C135 C136 1_555 1_555
S3 N11 1_555 1_555
N11 C97 1_555 1_555
H69 C91 1_555 1_555
H70 C92 1_555 1_555
H79 C111 1_555 1_555
H80 C111 1_555 1_555
H81 C111 1_555 1_555
C91 C92 1_555 1_555
C137 O29 1_555 1_555
C138 C137 1_555 1_555
C142 C140 1_555 1_555
C143 C142 1_555 1_555
C144 C138 1_555 1_555
C146 C145 1_555 1_555
C147 C146 1_555 1_555
C148 C147 1_555 1_555
C149 C148 1_555 1_555
C150 C148 1_555 1_555
H103 C142 1_555 1_555
H104 C143 1_555 1_555
H105 C144 1_555 1_555
H106 C147 1_555 1_555
H107 C149 1_555 1_555
H108 C149 1_555 1_555
H109 C149 1_555 1_555
H110 C150 1_555 1_555
O35 C145 1_555 1_555
C143 C144 1_555 1_555
C101 C100 1_555 1_555
C102 C101 1_555 1_555
C103 C102 1_555 1_555
C104 C102 1_555 1_555
C105 C104 1_555 1_555
C106 C100 1_555 1_555
H71 C101 1_555 1_555
H72 C103 1_555 1_555
H73 C103 1_555 1_555
H74 C103 1_555 1_555
H75 C104 1_555 1_555
H76 C105 1_555 1_555
H77 C106 1_555 1_555
C105 C106 1_555 1_555

#END
