
###############################################################################
#
# This file contains modified crystal structure data generated from the
# MOF subset of the Cambridge Structural Database (CSD) v543 
# hosted by the Cambridge Crystallographic Data Centre (CCDC).
#
# This work is licensed under the Creative Commons
# Attribution-NonCommercial-ShareAlike 4.0 International License.
# To view a copy of this license, visit
# http://creativecommons.org/licenses/by-nc-sa/4.0/
# or send a letter to
# Creative Commons, PO Box 1866, Mountain View, CA 94042, USA.
#
# CIF created using the CSD Python API on 29 September 2022
# The structure has been converted into the P1 space group
# The structure has a 3D framework
# The original CSD entry EHELUB is in the monoclinic crystal system
# The framework has been calculated to contain at least 10.0% void space
# The void calculation uses a probe of radius 1.32A, grid spacing 0.4
#
###############################################################################

data_EHELUB
_chemical_formula_moiety         '(C180 H116 Co8 N48 O30)n'
_symmetry_cell_setting           triclinic
_symmetry_space_group_name_H-M   'P 1'
_symmetry_Int_Tables_number      1
_space_group_name_Hall           'P 1'
loop_
_symmetry_equiv_pos_site_id
_symmetry_equiv_pos_as_xyz
1 x,y,z
_cell_length_a                   17.6225(4)
_cell_length_b                   13.8371(3)
_cell_length_c                   20.9929(4)
_cell_angle_alpha                90
_cell_angle_beta                 92.6410(10)
_cell_angle_gamma                90
_cell_volume                     5113.56
loop_
_atom_site_label
_atom_site_type_symbol
_atom_site_fract_x
_atom_site_fract_y
_atom_site_fract_z
C38 C 0.37711(15) 0.17837(19) 0.06452(12)
C39 C 0.29661(15) 0.06842(19) 0.14902(12)
H25 H 0.2692 0.0314 0.1769
C40 C 0.34900(14) 0.02368(18) 0.11099(12)
C41 C 0.38853(15) 0.07873(18) 0.06804(12)
H26 H 0.4226 0.0491 0.0417
C42 C 0.28484(15) 0.16734(19) 0.14576(12)
C43 C 0.23067(15) 0.2124(2) 0.19026(12)
C44 C 0.32612(16) 0.2228(2) 0.10408(13)
H27 H 0.3197 0.2895 0.1027
O5 O 0.17687(11) 0.16063(14) 0.20895(9)
O6 O 0.24118(12) 0.29633(15) 0.21028(10)
C45 C 0.41988(17) 0.23899(19) 0.01813(13)
O8 O 0.40509(17) 0.32699(16) 0.01605(13)
Co3 Co 0.15157(2) 0.25957(2) 0.28150(2)
O7 O 0.46680(12) 0.19674(14) 0.98524(9)
Co5 Co 0.52694(2) 0.24992(2) 0.90911(2)
Co1 Co 0.34843(2) 0.75957(2) 0.21850(2)
Co2 Co 0.47306(2) 0.75008(2) 0.09089(2)
O1 O 0.33242(11) 0.87941(13) 0.16617(9)
N1 N 0.39261(15) 0.67964(17) 0.02736(11)
O2 O 0.40880(11) 0.87741(13) 0.08387(9)
C1 C 0.2260(2) 0.7239(2) 0.10901(16)
H1 H 0.2299 0.7906 0.1046
N2 N 0.26440(14) 0.68102(17) 0.15825(11)
N6 N 0.13134(15) 0.42148(18) 0.02608(12)
C2 C 0.17568(17) 0.5743(2) 0.06980(14)
C3 C 0.21425(18) 0.5289(2) 0.12065(14)
H2 H 0.2112 0.4623 0.1259
C8 C 0.36485(14) 0.91788(18) 0.12026(11)
C11 C 0.37718(18) 0.5862(2) 0.03361(14)
H5 H 0.3970 0.5542 0.0696
C13 C 0.13200(17) 0.5180(2) 0.02055(14)
C17 C 0.25739(18) 0.5849(2) 0.16340(14)
H7 H 0.2828 0.5541 0.1975
C18 C 0.18114(19) 0.6735(2) 0.06461(16)
H8 H 0.1549 0.7061 0.0317
C21 C 0.1298(2) 0.2200(3) 0.03202(19)
H11 H 0.1588 0.2539 0.0627
C27 C 0.1269(3) 0.1198(3) 0.0334(2)
H15 H 0.1551 0.0881 0.0656
O3 O 0.42679(9) 0.69525(11) 0.17030(7)
O4 O 0.54462(14) 0.62543(18) 0.09546(11)
H28 H 0.574(3) 0.631(4) 0.056(2)
H29 H 0.537(4) 0.580(4) 0.097(3)
N13 N 0.42835(13) 0.83614(17) 0.28368(11)
N14 N 0.55255(14) 0.82426(18) 0.15325(11)
O9 O 0.32313(11) 0.66063(14) 0.29105(9)
O10 O 0.25882(12) 0.79633(15) 0.28972(10)
O11 O 0.53320(12) 0.80326(14) 0.01476(9)
N3 N 0.22307(16) 0.5781(2) 0.83966(12)
N4 N 0.05475(15) 0.41739(19) 0.93050(12)
N5 N 0.09618(15) 0.56781(19) 0.97359(12)
N7 N 0.25500(16) 0.4311(2) 0.89244(13)
N8 N 0.18121(16) 0.4286(2) 0.79556(13)
C4 C 0.30268(18) 0.5814(2) 0.93626(14)
C5 C 0.33335(17) 0.5340(2) 0.98962(14)
H3 H 0.3246 0.4685 0.9957
C6 C 0.3614(2) 0.7254(2) 0.97653(17)
H4 H 0.3704 0.7913 0.9721
C7 C 0.05834(16) 0.5139(2) 0.92995(13)
C9 C 0.25813(18) 0.5275(2) 0.88696(15)
C10 C 0.21719(18) 0.3855(2) 0.84498(15)
C12 C 0.09165(17) 0.3751(2) 0.97973(14)
C14 C 0.01581(16) 0.5660(2) 0.87802(13)
C15 C 0.18458(18) 0.5252(2) 0.79591(15)
C16 C 0.3164(2) 0.6794(3) 0.93032(17)
H6 H 0.2956 0.7138 0.8957
C20 C 0.01391(19) 0.6662(2) 0.87610(15)
H10 H 0.0419 0.7025 0.9062
C22 C 0.21484(19) 0.2782(3) 0.84756(17)
C23 C 0.2539(2) 0.2284(3) 0.8961(2)
H12 H 0.2823 0.2612 0.9276
C24 C 0.0461(3) 0.2136(3) 0.9413(2)
H13 H 0.0168 0.2431 0.9088
N9 N 0.0870(2) 0.0672(2) 0.9923(2)
C25 C 0.08892(19) 0.2682(2) 0.98436(16)
N10 N 0.2108(2) 0.0781(3) 0.8523(2)
C26 C 0.1749(2) 0.2259(3) 0.8015(2)
H14 H 0.1486 0.2567 0.7679
C28 C 0.0476(3) 0.1141(3) 0.9472(3)
H16 H 0.0190 0.0779 0.9175
C29 C 0.2497(3) 0.1286(3) 0.8964(2)
H17 H 0.2755 0.0953 0.9292
C30 C 0.1750(3) 0.1260(3) 0.8064(3)
H18 H 0.1479 0.0909 0.7751
C33 C 0.14116(18) 0.5776(2) 0.74501(15)
C34 C 0.13337(19) 0.6771(2) 0.74790(15)
H21 H 0.1580 0.7124 0.7804
C35 C 0.10534(19) 0.5287(2) 0.69439(16)
H22 H 0.1101 0.4620 0.6908
C36 C 0.06253(18) 0.5802(2) 0.64943(15)
H23 H 0.0397 0.5471 0.6151
C37 C 0.08813(19) 0.7229(2) 0.70151(15)
H24 H 0.0822 0.7896 0.7040
N12 N 0.05255(14) 0.67574(18) 0.65325(11)
C19 C 0.97412(19) 0.5164(2) 0.83097(15)
H9 H 0.9746 0.4492 0.8301
C31 C 0.96950(19) 0.7115(2) 0.82854(15)
H19 H 0.9683 0.7787 0.8279
N11 N 0.92835(13) 0.66386(17) 0.78368(11)
C32 C 0.93174(18) 0.5675(2) 0.78523(14)
H20 H 0.9042 0.5330 0.7540
Co4 Co 0.84843(2) 0.74043(2) 0.71850(2)
Co6 Co 0.97306(2) 0.74992(2) 0.59089(2)
Co2_2 Co 0.02694(2) 0.25008(2) 0.40911(2)
O1_2 O 0.16758(11) 0.37941(13) 0.33383(9)
N1_2 N 0.10739(15) 0.17964(17) 0.47264(11)
O2_2 O 0.09120(11) 0.37741(13) 0.41613(9)
C1_2 C 0.2740(2) 0.2239(2) 0.39099(16)
H1_2 H 0.2701 0.2906 0.3954
N2_2 N 0.23560(14) 0.18102(17) 0.34175(11)
N3_2 N 0.27693(16) 0.0781(2) 0.66034(12)
N5_2 N 0.40382(15) 0.06781(19) 0.52641(12)
C2_2 C 0.32432(17) 0.0743(2) 0.43020(14)
C3_2 C 0.28575(18) 0.0289(2) 0.37935(14)
C4_2 C 0.19732(18) 0.0814(2) 0.56374(14)
C5_2 C 0.16665(17) 0.0340(2) 0.51038(14)
C6_2 C 0.1386(2) 0.2254(2) 0.52347(17)
H4_2 H 0.1296 0.2913 0.5279
C7_2 C 0.44166(16) 0.0139(2) 0.57005(13)
C8_2 C 0.13515(14) 0.41788(18) 0.37974(11)
C9_2 C 0.24187(18) 0.0275(2) 0.61304(15)
C11_2 C 0.12282(18) 0.0862(2) 0.46639(14)
H5_2 H 0.1030 0.0542 0.4304
C13_2 C 0.36800(17) 0.0180(2) 0.47945(14)
C14_2 C 0.48419(16) 0.0660(2) 0.62198(13)
C15_2 C 0.31542(18) 0.0252(2) 0.70409(15)
C16_2 C 0.1836(2) 0.1794(3) 0.56968(17)
H6_2 H 0.2044 0.2138 0.6043
C17_2 C 0.24261(18) 0.0849(2) 0.33660(14)
H7_2 H 0.2172 0.0541 0.3025
C18_2 C 0.31886(19) 0.1735(2) 0.43539(16)
H8_2 H 0.3451 0.2061 0.4683
C19_2 C 0.52588(19) 0.0164(2) 0.66903(15)
C20_2 C 0.48609(19) 0.1662(2) 0.62390(15)
H10_2 H 0.4581 0.2025 0.5938
C31_2 C 0.53050(19) 0.2115(2) 0.67146(15)
H19_2 H 0.5317 0.2787 0.6721
N11_2 N 0.57165(13) 0.16386(17) 0.71632(11)
C32_2 C 0.56826(18) 0.0675(2) 0.71477(14)
H20_2 H 0.5958 0.0330 0.7460
C33_2 C 0.35884(18) 0.0776(2) 0.75499(15)
C34_2 C 0.36663(19) 0.1771(2) 0.75210(15)
H21_2 H 0.3420 0.2124 0.7196
C35_2 C 0.39466(19) 0.0287(2) 0.80561(16)
C36_2 C 0.43747(18) 0.0802(2) 0.85057(15)
H23_2 H 0.4603 0.0471 0.8849
C37_2 C 0.41187(19) 0.2229(2) 0.79849(15)
H24_2 H 0.4178 0.2896 0.7960
N12_2 N 0.44745(14) 0.17574(18) 0.84675(11)
O3_2 O 0.07321(9) 0.19525(11) 0.32970(7)
C38_2 C 0.12289(15) 0.67837(19) 0.43548(12)
C39_2 C 0.20339(15) 0.56842(19) 0.35098(12)
H25_2 H 0.2308 0.5314 0.3231
C40_2 C 0.15100(14) 0.52368(18) 0.38901(12)
C41_2 C 0.11147(15) 0.57873(18) 0.43196(12)
H26_2 H 0.0774 0.5491 0.4583
C42_2 C 0.21516(15) 0.66734(19) 0.35424(12)
C43_2 C 0.26933(15) 0.7124(2) 0.30974(12)
C44_2 C 0.17388(16) 0.7228(2) 0.39592(13)
H27_2 H 0.1803 0.7895 0.3973
C45_2 C 0.08012(17) 0.73899(19) 0.48187(13)
O7_2 O 0.03320(12) 0.69674(14) 0.51476(9)
O8_2 O 0.09491(17) 0.82699(16) 0.48395(13)
Co4_2 Co 0.65157(2) 0.24043(2) 0.78150(2)
N13_2 N 0.07165(13) 0.33614(17) 0.21632(11)
O4_2 O 0.95538(14) 0.12543(18) 0.40454(11)
H28_2 H 0.926(3) 0.131(4) 0.444(2)
H29_2 H 0.963(4) 0.080(4) 0.403(3)
N14_2 N 0.94745(14) 0.32426(18) 0.34675(11)
O11_2 O 0.96680(12) 0.30326(14) 0.48524(9)
C19_3 C 0.02588(19) 0.4836(2) 0.16903(15)
H9_2 H 0.0254 0.5508 0.1699
C31_3 C 0.03050(19) 0.2885(2) 0.17146(15)
H19_3 H 0.0317 0.2213 0.1721
C32_3 C 0.06826(18) 0.4325(2) 0.21477(14)
H20_3 H 0.0958 0.4670 0.2460
N3_3 N 0.77693(16) 0.4219(2) 0.16034(12)
N4_2 N 0.94525(15) 0.58261(19) 0.06950(12)
N5_3 N 0.90382(15) 0.43219(19) 0.02641(12)
N7_2 N 0.74500(16) 0.5689(2) 0.10756(13)
N8_2 N 0.81879(16) 0.5714(2) 0.20444(13)
C4_3 C 0.69732(18) 0.4186(2) 0.06374(14)
C5_3 C 0.66665(17) 0.4660(2) 0.01038(14)
H3_2 H 0.6754 0.5315 0.0043
C6_3 C 0.6386(2) 0.2746(2) 0.02347(17)
H4_3 H 0.6296 0.2087 0.0279
C7_3 C 0.94166(16) 0.4861(2) 0.07005(13)
C9_3 C 0.74187(18) 0.4725(2) 0.11304(15)
C10_2 C 0.78281(18) 0.6145(2) 0.15502(15)
C12_2 C 0.90835(17) 0.6249(2) 0.02027(14)
C14_3 C 0.98419(16) 0.4340(2) 0.12198(13)
C15_3 C 0.81542(18) 0.4748(2) 0.20409(15)
C16_3 C 0.6836(2) 0.3206(3) 0.06968(17)
H6_3 H 0.7044 0.2862 0.1043
C20_3 C 0.98609(19) 0.3338(2) 0.12390(15)
H10_3 H 0.9581 0.2975 0.0938
C22_2 C 0.78516(19) 0.7218(3) 0.15244(17)
C23_2 C 0.7461(2) 0.7716(3) 0.1039(2)
H12_2 H 0.7177 0.7388 0.0724
C24_2 C 0.9539(3) 0.7864(3) 0.0587(2)
H13_2 H 0.9832 0.7569 0.0912
N9_2 N 0.9130(2) 0.9328(2) 0.0077(2)
C25_2 C 0.91108(19) 0.7318(2) 0.01564(16)
N10_2 N 0.7892(2) 0.9219(3) 0.1477(2)
C26_2 C 0.8251(2) 0.7741(3) 0.1985(2)
H14_2 H 0.8514 0.7433 0.2321
C28_2 C 0.9524(3) 0.8859(3) 0.0528(3)
H16_2 H 0.9810 0.9221 0.0825
C29_2 C 0.7503(3) 0.8714(3) 0.1036(2)
H17_2 H 0.7245 0.9047 0.0708
C30_2 C 0.8250(3) 0.8740(3) 0.1936(3)
H18_2 H 0.8521 0.9091 0.2249
C33_3 C 0.85884(18) 0.4224(2) 0.25499(15)
C34_3 C 0.86663(19) 0.3229(2) 0.25210(15)
H21_3 H 0.8420 0.2876 0.2196
C35_3 C 0.89466(19) 0.4713(2) 0.30561(16)
H22_2 H 0.8899 0.5380 0.3092
C36_3 C 0.93747(18) 0.4198(2) 0.35057(15)
H23_3 H 0.9603 0.4529 0.3849
C37_3 C 0.91187(19) 0.2771(2) 0.29849(15)
H24_3 H 0.9178 0.2104 0.2960
O1_3 O 0.66758(11) 0.12059(13) 0.83383(9)
N1_3 N 0.60739(15) 0.32036(17) 0.97264(11)
O2_3 O 0.59120(11) 0.12259(13) 0.91613(9)
C1_3 C 0.7740(2) 0.2761(2) 0.89099(16)
H1_3 H 0.7701 0.2094 0.8954
N2_3 N 0.73560(14) 0.31898(17) 0.84175(11)
N6_2 N 0.86866(15) 0.57852(18) 0.97392(12)
C2_3 C 0.82432(17) 0.4257(2) 0.93020(14)
C3_3 C 0.78575(18) 0.4711(2) 0.87935(14)
H2_2 H 0.7888 0.5377 0.8741
C8_3 C 0.63515(14) 0.08212(18) 0.87974(11)
C11_3 C 0.62282(18) 0.4138(2) 0.96639(14)
H5_3 H 0.6030 0.4458 0.9304
C13_3 C 0.86800(17) 0.4820(2) 0.97945(14)
C17_3 C 0.74261(18) 0.4151(2) 0.83660(14)
H7_3 H 0.7172 0.4459 0.8025
C18_3 C 0.81886(19) 0.3265(2) 0.93539(16)
H8_3 H 0.8451 0.2939 0.9683
C21_2 C 0.8702(2) 0.7800(3) 0.96798(19)
H11_2 H 0.8412 0.7461 0.9373
C27_2 C 0.8731(3) 0.8802(3) 0.9666(2)
H15_2 H 0.8449 0.9119 0.9344
O3_3 O 0.57321(9) 0.30475(11) 0.82970(7)
O4_3 O 0.45538(14) 0.37457(18) 0.90454(11)
H28_3 H 0.426(3) 0.369(4) 0.944(2)
H29_3 H 0.463(4) 0.420(4) 0.903(3)
O9_2 O 0.67687(11) 0.33937(14) 0.70895(9)
O10_2 O 0.74118(12) 0.20367(15) 0.71028(10)
C38_3 C 0.62289(15) 0.82163(19) 0.93548(12)
C39_3 C 0.70339(15) 0.93158(19) 0.85098(12)
H25_3 H 0.7308 0.9686 0.8231
C40_3 C 0.65100(14) 0.97632(18) 0.88901(12)
C41_3 C 0.61147(15) 0.92127(18) 0.93196(12)
H26_3 H 0.5774 0.9509 0.9583
C42_3 C 0.71516(15) 0.83266(19) 0.85424(12)
C43_3 C 0.76933(15) 0.7876(2) 0.80974(12)
C44_3 C 0.67388(16) 0.7772(2) 0.89592(13)
H27_3 H 0.6803 0.7105 0.8973
O5_2 O 0.82313(11) 0.83937(14) 0.79105(9)
O6_2 O 0.75882(12) 0.70367(15) 0.78972(10)
C45_3 C 0.58012(17) 0.76101(19) 0.98187(13)
O8_3 O 0.59491(17) 0.67301(16) 0.98395(13)
O4_4 O 0.04462(14) 0.87457(18) 0.59546(11)
H28_4 H 0.074(3) 0.869(4) 0.556(2)
H29_4 H 0.037(4) 0.920(4) 0.597(3)
O1_4 O 0.83242(11) 0.62059(13) 0.66617(9)
N1_4 N 0.89261(15) 0.82036(17) 0.52736(11)
O2_4 O 0.90880(11) 0.62259(13) 0.58387(9)
C1_4 C 0.7260(2) 0.7761(2) 0.60901(16)
H1_4 H 0.7299 0.7094 0.6046
N2_4 N 0.76440(14) 0.81898(17) 0.65825(11)
N3_4 N 0.72307(16) 0.9219(2) 0.33966(12)
N5_4 N 0.59618(15) 0.93219(19) 0.47359(12)
C2_4 C 0.67568(17) 0.9257(2) 0.56980(14)
C3_4 C 0.71425(18) 0.9711(2) 0.62065(14)
C4_4 C 0.80268(18) 0.9186(2) 0.43626(14)
C5_4 C 0.83335(17) 0.9660(2) 0.48962(14)
C6_4 C 0.8614(2) 0.7746(2) 0.47653(17)
H4_4 H 0.8704 0.7087 0.4721
C7_4 C 0.55834(16) 0.9861(2) 0.42995(13)
C8_4 C 0.86485(14) 0.58212(18) 0.62026(11)
C9_4 C 0.75813(18) 0.9725(2) 0.38696(15)
C11_4 C 0.87718(18) 0.9138(2) 0.53361(14)
H5_4 H 0.8970 0.9458 0.5696
C13_4 C 0.63200(17) 0.9820(2) 0.52055(14)
C14_4 C 0.51581(16) 0.9340(2) 0.37802(13)
C15_4 C 0.68458(18) 0.9748(2) 0.29591(15)
C16_4 C 0.8164(2) 0.8206(3) 0.43032(17)
H6_4 H 0.7956 0.7862 0.3957
C17_4 C 0.75739(18) 0.9151(2) 0.66340(14)
H7_4 H 0.7828 0.9459 0.6975
C18_4 C 0.68114(19) 0.8265(2) 0.56461(16)
H8_4 H 0.6549 0.7939 0.5317
C19_4 C 0.47412(19) 0.9836(2) 0.33097(15)
C20_4 C 0.51391(19) 0.8338(2) 0.37610(15)
H10_4 H 0.5419 0.7975 0.4062
C31_4 C 0.46950(19) 0.7885(2) 0.32854(15)
H19_4 H 0.4683 0.7213 0.3279
C32_4 C 0.43174(18) 0.9325(2) 0.28523(14)
H20_4 H 0.4042 0.9670 0.2540
C33_4 C 0.64116(18) 0.9224(2) 0.24501(15)
C34_4 C 0.63337(19) 0.8229(2) 0.24790(15)
H21_4 H 0.6580 0.7876 0.2804
C35_4 C 0.60534(19) 0.9713(2) 0.19439(16)
C36_4 C 0.56253(18) 0.9198(2) 0.14943(15)
H23_4 H 0.5397 0.9529 0.1151
C37_4 C 0.58813(19) 0.7771(2) 0.20151(15)
H24_4 H 0.5822 0.7104 0.2040
O3_4 O 0.92679(9) 0.80475(11) 0.67030(7)
C38_4 C 0.87711(15) 0.32163(19) 0.56452(12)
C39_4 C 0.79661(15) 0.43158(19) 0.64902(12)
H25_4 H 0.7692 0.4686 0.6769
C40_4 C 0.84900(14) 0.47632(18) 0.61099(12)
C41_4 C 0.88853(15) 0.42127(18) 0.56804(12)
H26_4 H 0.9226 0.4509 0.5417
C42_4 C 0.78484(15) 0.33266(19) 0.64576(12)
C43_4 C 0.73067(15) 0.2876(2) 0.69026(12)
C44_4 C 0.82612(16) 0.2772(2) 0.60408(13)
H27_4 H 0.8197 0.2105 0.6027
C45_4 C 0.91988(17) 0.26101(19) 0.51813(13)
O8_4 O 0.90509(17) 0.17301(16) 0.51605(13)
N4_3 N 0.44525(15) 0.91739(19) 0.56950(12)
N6_3 N 0.36866(15) 0.92148(18) 0.47392(12)
N7_3 N 0.24500(16) 0.9311(2) 0.60756(13)
N8_3 N 0.31879(16) 0.9286(2) 0.70444(13)
H2_3 H 0.2888 0.9623 0.3741
H3_3 H 0.1754 0.9685 0.5043
C10_3 C 0.28281(18) 0.8855(2) 0.65502(15)
C12_3 C 0.40835(17) 0.8751(2) 0.52027(14)
H9_3 H 0.5254 0.9492 0.6699
C21_3 C 0.3702(2) 0.7200(3) 0.46798(19)
H11_3 H 0.3412 0.7539 0.4373
C22_3 C 0.28516(19) 0.7782(3) 0.65244(17)
C23_3 C 0.2461(2) 0.7284(3) 0.6039(2)
H12_3 H 0.2177 0.7612 0.5724
C24_3 C 0.4539(3) 0.7136(3) 0.5587(2)
H13_3 H 0.4832 0.7431 0.5912
N9_3 N 0.4130(2) 0.5672(2) 0.5077(2)
C25_3 C 0.41108(19) 0.7682(2) 0.51564(16)
N10_3 N 0.2892(2) 0.5781(3) 0.6477(2)
C26_3 C 0.3251(2) 0.7259(3) 0.6985(2)
H14_3 H 0.3514 0.7567 0.7321
C27_3 C 0.3731(3) 0.6198(3) 0.4666(2)
H15_3 H 0.3449 0.5881 0.4344
C28_3 C 0.4524(3) 0.6141(3) 0.5528(3)
H16_3 H 0.4810 0.5779 0.5825
C29_3 C 0.2503(3) 0.6286(3) 0.6036(2)
H17_3 H 0.2245 0.5953 0.5708
C30_3 C 0.3250(3) 0.6260(3) 0.6936(3)
H18_3 H 0.3521 0.5909 0.7249
H22_3 H 0.3899 0.9620 0.8092
N4_4 N 0.55475(15) 0.08261(19) 0.43050(12)
N6_4 N 0.63134(15) 0.07852(18) 0.52608(12)
N7_4 N 0.75500(16) 0.0689(2) 0.39244(13)
N8_4 N 0.68121(16) 0.0714(2) 0.29556(13)
H2_4 H 0.7112 0.0377 0.6259
H3_4 H 0.8246 0.0315 0.4957
C10_4 C 0.71719(18) 0.1145(2) 0.34498(15)
C12_4 C 0.59165(17) 0.1249(2) 0.47973(14)
H9_4 H 0.4746 0.0508 0.3301
C21_4 C 0.6298(2) 0.2800(3) 0.53202(19)
H11_4 H 0.6588 0.2461 0.5627
C22_4 C 0.71484(19) 0.2218(3) 0.34756(17)
C23_4 C 0.7539(2) 0.2716(3) 0.3961(2)
H12_4 H 0.7823 0.2388 0.4276
C24_4 C 0.5461(3) 0.2864(3) 0.4413(2)
H13_4 H 0.5168 0.2569 0.4088
N9_4 N 0.5870(2) 0.4328(2) 0.4923(2)
C25_4 C 0.58892(19) 0.2318(2) 0.48436(16)
N10_4 N 0.7108(2) 0.4219(3) 0.3523(2)
C26_4 C 0.6749(2) 0.2741(3) 0.3015(2)
H14_4 H 0.6486 0.2433 0.2679
C27_4 C 0.6269(3) 0.3802(3) 0.5334(2)
H15_4 H 0.6551 0.4119 0.5656
C28_4 C 0.5476(3) 0.3859(3) 0.4472(3)
H16_4 H 0.5190 0.4221 0.4175
C29_4 C 0.7497(3) 0.3714(3) 0.3964(2)
H17_4 H 0.7755 0.4047 0.4292
C30_4 C 0.6750(3) 0.3740(3) 0.3064(3)
H18_4 H 0.6479 0.4091 0.2751
H22_4 H 0.6101 0.0380 0.1908
loop_
_geom_bond_atom_site_label_1
_geom_bond_atom_site_label_2
_geom_bond_site_symmetry_1
_geom_bond_site_symmetry_2
C38 C41 1_555 1_555
C39 H25 1_555 1_555
C41 C40 1_555 1_555
H26 C41 1_555 1_555
C42 C39 1_555 1_555
C43 C42 1_555 1_555
C44 C38 1_555 1_555
H27 C44 1_555 1_555
O5 C43 1_555 1_555
O6 C43 1_555 1_555
C45 C38 1_555 1_555
O8 C45 1_555 1_555
Co3 O5 1_555 1_555
C39 C40 1_555 1_555
C42 C44 1_555 1_555
O6 Co3 1_555 1_555
Co5 O7 1_555 1_555
Co1 O1 1_555 1_555
Co2 N1 1_555 1_555
O1 C8 1_555 1_555
O2 Co2 1_555 1_555
C1 H1 1_555 1_555
N2 Co1 1_555 1_555
C2 C3 1_555 1_555
C3 H2 1_555 1_555
C8 O2 1_555 1_555
C11 N1 1_555 1_555
H5 C11 1_555 1_555
C17 N2 1_555 1_555
H7 C17 1_555 1_555
C18 C1 1_555 1_555
H8 C18 1_555 1_555
C21 H11 1_555 1_555
C27 C21 1_555 1_555
H15 C27 1_555 1_555
O3 Co1 1_555 1_555
O4 Co2 1_555 1_555
H28 O4 1_555 1_555
H29 O4 1_555 1_555
N13 Co1 1_555 1_555
N14 Co2 1_555 1_555
O9 Co1 1_555 1_555
O10 Co1 1_555 1_555
O11 Co2 1_555 1_555
Co2 O3 1_555 1_555
C1 N2 1_555 1_555
N6 C13 1_555 1_555
C2 C13 1_555 1_555
C2 C18 1_555 1_555
C3 C17 1_555 1_555
N3 C9 1_555 1_555
N4 C7 1_555 1_555
N5 C7 1_555 1_555
N7 C9 1_555 1_555
N8 C10 1_555 1_555
C4 C5 1_555 1_555
C5 H3 1_555 1_555
C6 H4 1_555 1_555
C7 C14 1_555 1_555
C9 C4 1_555 1_555
C10 N7 1_555 1_555
C12 N4 1_555 1_555
C15 N3 1_555 1_555
C16 C4 1_555 1_555
H6 C16 1_555 1_555
C20 C14 1_555 1_555
H10 C20 1_555 1_555
C22 C10 1_555 1_555
C23 C22 1_555 1_555
H12 C23 1_555 1_555
C24 H13 1_555 1_555
C25 C12 1_555 1_555
N10 C29 1_555 1_555
C26 C22 1_555 1_555
H14 C26 1_555 1_555
C28 C24 1_555 1_555
H16 C28 1_555 1_555
C29 C23 1_555 1_555
H17 C29 1_555 1_555
C30 N10 1_555 1_555
H18 C30 1_555 1_555
C33 C15 1_555 1_555
C34 C33 1_555 1_555
H21 C34 1_555 1_555
C35 C33 1_555 1_555
H22 C35 1_555 1_555
C36 C35 1_555 1_555
H23 C36 1_555 1_555
C37 C34 1_555 1_555
H24 C37 1_555 1_555
N12 C36 1_555 1_555
N8 C15 1_555 1_555
C6 C16 1_555 1_555
C24 C25 1_555 1_555
N9 C28 1_555 1_555
C26 C30 1_555 1_555
C37 N12 1_555 1_555
C19 H9 1_555 1_555
H19 C31 1_555 1_555
N11 C31 1_555 1_555
C32 C19 1_555 1_555
H20 C32 1_555 1_555
Co4 N11 1_555 1_555
N11 C32 1_555 1_555
Co3 O1_2 1_555 1_555
Co2_2 N1_2 1_555 1_555
O1_2 C8_2 1_555 1_555
N1_2 C6_2 1_555 1_555
O2_2 Co2_2 1_555 1_555
C1_2 H1_2 1_555 1_555
N2_2 Co3 1_555 1_555
N3_2 C9_2 1_555 1_555
N5_2 C7_2 1_555 1_555
C2_2 C3_2 1_555 1_555
C4_2 C5_2 1_555 1_555
C6_2 H4_2 1_555 1_555
C7_2 C14_2 1_555 1_555
C8_2 O2_2 1_555 1_555
C9_2 C4_2 1_555 1_555
C11_2 N1_2 1_555 1_555
H5_2 C11_2 1_555 1_555
C13_2 N5_2 1_555 1_555
C14_2 C19_2 1_555 1_555
C15_2 N3_2 1_555 1_555
C16_2 C4_2 1_555 1_555
H6_2 C16_2 1_555 1_555
C17_2 N2_2 1_555 1_555
H7_2 C17_2 1_555 1_555
C18_2 C1_2 1_555 1_555
H8_2 C18_2 1_555 1_555
C20_2 C14_2 1_555 1_555
H10_2 C20_2 1_555 1_555
C31_2 C20_2 1_555 1_555
H19_2 C31_2 1_555 1_555
N11_2 C31_2 1_555 1_555
C32_2 C19_2 1_555 1_555
H20_2 C32_2 1_555 1_555
C33_2 C15_2 1_555 1_555
C34_2 C33_2 1_555 1_555
H21_2 C34_2 1_555 1_555
C35_2 C33_2 1_555 1_555
C36_2 C35_2 1_555 1_555
H23_2 C36_2 1_555 1_555
C37_2 C34_2 1_555 1_555
H24_2 C37_2 1_555 1_555
N12_2 C36_2 1_555 1_555
O3_2 Co3 1_555 1_555
C38_2 C41_2 1_555 1_555
C39_2 H25_2 1_555 1_555
C40_2 C8_2 1_555 1_555
C41_2 C40_2 1_555 1_555
H26_2 C41_2 1_555 1_555
C42_2 C39_2 1_555 1_555
C43_2 C42_2 1_555 1_555
C44_2 C38_2 1_555 1_555
H27_2 C44_2 1_555 1_555
O9 C43_2 1_555 1_555
O10 C43_2 1_555 1_555
C45_2 C38_2 1_555 1_555
O7_2 C45_2 1_555 1_555
O8_2 C45_2 1_555 1_555
Co4_2 N11_2 1_555 1_555
Co5 N12_2 1_555 1_555
N13_2 Co3 1_555 1_555
Co2_2 O3_2 1_555 1_555
C1_2 N2_2 1_555 1_555
C2_2 C13_2 1_555 1_555
C2_2 C18_2 1_555 1_555
C3_2 C17_2 1_555 1_555
C5_2 C11_2 1_555 1_555
C6_2 C16_2 1_555 1_555
N11_2 C32_2 1_555 1_555
C37_2 N12_2 1_555 1_555
C39_2 C40_2 1_555 1_555
C42_2 C44_2 1_555 1_555
H28_2 O4_2 1_555 1_555
H29_2 O4_2 1_555 1_555
C19_3 H9_2 1_555 1_555
H19_3 C31_3 1_555 1_555
N13_2 C31_3 1_555 1_555
C32_3 C19_3 1_555 1_555
H20_3 C32_3 1_555 1_555
N13_2 C32_3 1_555 1_555
N3_3 C9_3 1_555 1_555
N4_2 C7_3 1_555 1_555
N5_3 C7_3 1_555 1_555
N7_2 C9_3 1_555 1_555
N8_2 C10_2 1_555 1_555
C4_3 C5_3 1_555 1_555
C5_3 H3_2 1_555 1_555
C6_3 H4_3 1_555 1_555
C7_3 C14_3 1_555 1_555
C9_3 C4_3 1_555 1_555
C10_2 N7_2 1_555 1_555
C12_2 N4_2 1_555 1_555
C15_3 N3_3 1_555 1_555
C16_3 C4_3 1_555 1_555
H6_3 C16_3 1_555 1_555
C20_3 C14_3 1_555 1_555
H10_3 C20_3 1_555 1_555
C22_2 C10_2 1_555 1_555
C23_2 C22_2 1_555 1_555
H12_2 C23_2 1_555 1_555
C24_2 H13_2 1_555 1_555
C25_2 C12_2 1_555 1_555
N10_2 C29_2 1_555 1_555
C26_2 C22_2 1_555 1_555
H14_2 C26_2 1_555 1_555
C28_2 C24_2 1_555 1_555
H16_2 C28_2 1_555 1_555
C29_2 C23_2 1_555 1_555
H17_2 C29_2 1_555 1_555
C30_2 N10_2 1_555 1_555
H18_2 C30_2 1_555 1_555
C33_3 C15_3 1_555 1_555
C34_3 C33_3 1_555 1_555
H21_3 C34_3 1_555 1_555
C35_3 C33_3 1_555 1_555
H22_2 C35_3 1_555 1_555
C36_3 C35_3 1_555 1_555
H23_3 C36_3 1_555 1_555
C37_3 C34_3 1_555 1_555
H24_3 C37_3 1_555 1_555
N14_2 C36_3 1_555 1_555
N8_2 C15_3 1_555 1_555
C6_3 C16_3 1_555 1_555
C24_2 C25_2 1_555 1_555
N9_2 C28_2 1_555 1_555
C26_2 C30_2 1_555 1_555
C37_3 N14_2 1_555 1_555
Co4_2 O1_3 1_555 1_555
Co5 N1_3 1_555 1_555
O1_3 C8_3 1_555 1_555
O2_3 Co5 1_555 1_555
C1_3 H1_3 1_555 1_555
N2_3 Co4_2 1_555 1_555
C2_3 C3_3 1_555 1_555
C3_3 H2_2 1_555 1_555
C8_3 O2_3 1_555 1_555
C11_3 N1_3 1_555 1_555
H5_3 C11_3 1_555 1_555
C17_3 N2_3 1_555 1_555
H7_3 C17_3 1_555 1_555
C18_3 C1_3 1_555 1_555
H8_3 C18_3 1_555 1_555
C21_2 H11_2 1_555 1_555
C27_2 C21_2 1_555 1_555
H15_2 C27_2 1_555 1_555
O3_3 Co4_2 1_555 1_555
O4_3 Co5 1_555 1_555
H28_3 O4_3 1_555 1_555
H29_3 O4_3 1_555 1_555
O9_2 Co4_2 1_555 1_555
O10_2 Co4_2 1_555 1_555
Co5 O3_3 1_555 1_555
C1_3 N2_3 1_555 1_555
N6_2 C13_3 1_555 1_555
C2_3 C13_3 1_555 1_555
C2_3 C18_3 1_555 1_555
C3_3 C17_3 1_555 1_555
C38_3 C41_3 1_555 1_555
C39_3 H25_3 1_555 1_555
C41_3 C40_3 1_555 1_555
H26_3 C41_3 1_555 1_555
C42_3 C39_3 1_555 1_555
C43_3 C42_3 1_555 1_555
C44_3 C38_3 1_555 1_555
H27_3 C44_3 1_555 1_555
O5_2 C43_3 1_555 1_555
O6_2 C43_3 1_555 1_555
C45_3 C38_3 1_555 1_555
O8_3 C45_3 1_555 1_555
Co4 O5_2 1_555 1_555
C39_3 C40_3 1_555 1_555
C42_3 C44_3 1_555 1_555
O6_2 Co4 1_555 1_555
H28_4 O4_4 1_555 1_555
H29_4 O4_4 1_555 1_555
Co4 O1_4 1_555 1_555
Co6 N1_4 1_555 1_555
O1_4 C8_4 1_555 1_555
N1_4 C6_4 1_555 1_555
O2_4 Co6 1_555 1_555
C1_4 H1_4 1_555 1_555
N2_4 Co4 1_555 1_555
N3_4 C9_4 1_555 1_555
N5_4 C7_4 1_555 1_555
C2_4 C3_4 1_555 1_555
C4_4 C5_4 1_555 1_555
C6_4 H4_4 1_555 1_555
C7_4 C14_4 1_555 1_555
C8_4 O2_4 1_555 1_555
C9_4 C4_4 1_555 1_555
C11_4 N1_4 1_555 1_555
H5_4 C11_4 1_555 1_555
C13_4 N5_4 1_555 1_555
C14_4 C19_4 1_555 1_555
C15_4 N3_4 1_555 1_555
C16_4 C4_4 1_555 1_555
H6_4 C16_4 1_555 1_555
C17_4 N2_4 1_555 1_555
H7_4 C17_4 1_555 1_555
C18_4 C1_4 1_555 1_555
H8_4 C18_4 1_555 1_555
C20_4 C14_4 1_555 1_555
H10_4 C20_4 1_555 1_555
C31_4 C20_4 1_555 1_555
H19_4 C31_4 1_555 1_555
N13 C31_4 1_555 1_555
C32_4 C19_4 1_555 1_555
H20_4 C32_4 1_555 1_555
C33_4 C15_4 1_555 1_555
C34_4 C33_4 1_555 1_555
H21_4 C34_4 1_555 1_555
C35_4 C33_4 1_555 1_555
C36_4 C35_4 1_555 1_555
H23_4 C36_4 1_555 1_555
C37_4 C34_4 1_555 1_555
H24_4 C37_4 1_555 1_555
N14 C36_4 1_555 1_555
O3_4 Co4 1_555 1_555
C38_4 C41_4 1_555 1_555
C39_4 H25_4 1_555 1_555
C40_4 C8_4 1_555 1_555
C41_4 C40_4 1_555 1_555
H26_4 C41_4 1_555 1_555
C42_4 C39_4 1_555 1_555
C43_4 C42_4 1_555 1_555
C44_4 C38_4 1_555 1_555
H27_4 C44_4 1_555 1_555
O9_2 C43_4 1_555 1_555
O10_2 C43_4 1_555 1_555
C45_4 C38_4 1_555 1_555
O11_2 C45_4 1_555 1_555
O8_4 C45_4 1_555 1_555
Co6 O3_4 1_555 1_555
C1_4 N2_4 1_555 1_555
C2_4 C13_4 1_555 1_555
C2_4 C18_4 1_555 1_555
C3_4 C17_4 1_555 1_555
C5_4 C11_4 1_555 1_555
C6_4 C16_4 1_555 1_555
N13 C32_4 1_555 1_555
C37_4 N14 1_555 1_555
C39_4 C40_4 1_555 1_555
C42_4 C44_4 1_555 1_555
N6_3 C12_3 1_555 1_555
N8_3 C10_3 1_555 1_555
C10_3 N7_3 1_555 1_555
C12_3 N4_3 1_555 1_555
C21_3 H11_3 1_555 1_555
C22_3 C10_3 1_555 1_555
C23_3 C22_3 1_555 1_555
H12_3 C23_3 1_555 1_555
C24_3 H13_3 1_555 1_555
N9_3 C27_3 1_555 1_555
C25_3 C12_3 1_555 1_555
N10_3 C29_3 1_555 1_555
C26_3 C22_3 1_555 1_555
H14_3 C26_3 1_555 1_555
C27_3 C21_3 1_555 1_555
H15_3 C27_3 1_555 1_555
C28_3 C24_3 1_555 1_555
H16_3 C28_3 1_555 1_555
C29_3 C23_3 1_555 1_555
H17_3 C29_3 1_555 1_555
C30_3 N10_3 1_555 1_555
H18_3 C30_3 1_555 1_555
C21_3 C25_3 1_555 1_555
C24_3 C25_3 1_555 1_555
N9_3 C28_3 1_555 1_555
C26_3 C30_3 1_555 1_555
N6_4 C12_4 1_555 1_555
N8_4 C10_4 1_555 1_555
C10_4 N7_4 1_555 1_555
C12_4 N4_4 1_555 1_555
C21_4 H11_4 1_555 1_555
C22_4 C10_4 1_555 1_555
C23_4 C22_4 1_555 1_555
H12_4 C23_4 1_555 1_555
C24_4 H13_4 1_555 1_555
N9_4 C27_4 1_555 1_555
C25_4 C12_4 1_555 1_555
N10_4 C29_4 1_555 1_555
C26_4 C22_4 1_555 1_555
H14_4 C26_4 1_555 1_555
C27_4 C21_4 1_555 1_555
H15_4 C27_4 1_555 1_555
C28_4 C24_4 1_555 1_555
H16_4 C28_4 1_555 1_555
C29_4 C23_4 1_555 1_555
H17_4 C29_4 1_555 1_555
C30_4 N10_4 1_555 1_555
H18_4 C30_4 1_555 1_555
C21_4 C25_4 1_555 1_555
C24_4 C25_4 1_555 1_555
N9_4 C28_4 1_555 1_555
C26_4 C30_4 1_555 1_555

#END
