
###############################################################################
#
# This file contains modified crystal structure data generated from the
# MOF subset of the Cambridge Structural Database (CSD) v543 
# hosted by the Cambridge Crystallographic Data Centre (CCDC).
#
# This work is licensed under the Creative Commons
# Attribution-NonCommercial-ShareAlike 4.0 International License.
# To view a copy of this license, visit
# http://creativecommons.org/licenses/by-nc-sa/4.0/
# or send a letter to
# Creative Commons, PO Box 1866, Mountain View, CA 94042, USA.
#
# CIF created using the CSD Python API on 29 September 2022
# The structure has been converted into the P1 space group
# The structure has a 3D framework
# The original CSD entry EHEMAI is in the monoclinic crystal system
# The framework has been calculated to contain at least 10.0% void space
# The void calculation uses a probe of radius 1.32A, grid spacing 0.4
#
###############################################################################

data_EHEMAI
_chemical_formula_moiety         '(C180 H116 N48 Ni8 O30)n'
_symmetry_cell_setting           triclinic
_symmetry_space_group_name_H-M   'P 1'
_symmetry_Int_Tables_number      1
_space_group_name_Hall           'P 1'
loop_
_symmetry_equiv_pos_site_id
_symmetry_equiv_pos_as_xyz
1 x,y,z
_cell_length_a                   17.5508(6)
_cell_length_b                   13.8259(4)
_cell_length_c                   20.8220(6)
_cell_angle_alpha                90
_cell_angle_beta                 92.7240(10)
_cell_angle_gamma                90
_cell_volume                     5046.87
loop_
_atom_site_label
_atom_site_type_symbol
_atom_site_fract_x
_atom_site_fract_y
_atom_site_fract_z
C38 C 0.3778(2) 0.1765(3) 0.06462(17)
C39 C 0.2965(2) 0.0655(3) 0.14835(17)
H25 H 0.2685 0.0281 0.1760
C40 C 0.3493(2) 0.0213(2) 0.11013(16)
C41 C 0.3896(2) 0.0771(3) 0.06781(16)
H26 H 0.4244 0.0480 0.0416
C42 C 0.2851(2) 0.1645(3) 0.14572(17)
C43 C 0.2305(2) 0.2091(3) 0.19053(17)
C44 C 0.3267(2) 0.2202(3) 0.10421(18)
H27 H 0.3203 0.2870 0.1030
O5 O 0.17519(15) 0.15760(19) 0.20856(12)
O6 O 0.24207(17) 0.2921(2) 0.21273(14)
C45 C 0.4212(2) 0.2382(3) 0.01836(19)
O8 O 0.4067(2) 0.3262(2) 0.01691(19)
Ni3 Ni 0.15384(3) 0.25869(3) 0.28089(2)
O7 O 0.46828(16) 0.19586(19) 0.98512(13)
Ni5 Ni 0.52696(3) 0.25075(3) 0.90881(2)
Ni1 Ni 0.34616(3) 0.75869(3) 0.21911(2)
Ni2 Ni 0.47304(3) 0.74925(3) 0.09119(2)
O1 O 0.33269(16) 0.87675(18) 0.16535(12)
N1 N 0.3947(2) 0.6799(2) 0.02830(15)
O2 O 0.40978(15) 0.87530(17) 0.08265(12)
C1 C 0.2249(3) 0.7252(3) 0.1113(2)
H1 H 0.2275 0.7922 0.1081
N2 N 0.26513(19) 0.6821(2) 0.15943(15)
N6 N 0.1316(2) 0.4234(3) 0.02530(17)
C2 C 0.1762(2) 0.5763(3) 0.07008(19)
C3 C 0.2163(2) 0.5302(3) 0.1203(2)
H2 H 0.2140 0.4634 0.1249
C8 C 0.3654(2) 0.9152(2) 0.11938(16)
C11 C 0.3788(2) 0.5864(3) 0.0346(2)
H5 H 0.3983 0.5543 0.0711
C13 C 0.1322(2) 0.5193(3) 0.02008(19)
C17 C 0.2596(3) 0.5856(3) 0.1630(2)
H7 H 0.2865 0.5542 0.1964
C18 C 0.1796(3) 0.6757(3) 0.0661(2)
H8 H 0.1521 0.7088 0.0338
C21 C 0.1300(4) 0.2210(4) 0.0310(3)
H11 H 0.1603 0.2545 0.0614
C27 C 0.1260(4) 0.1212(4) 0.0322(3)
H15 H 0.1541 0.0891 0.0647
O3 O 0.42562(13) 0.69594(15) 0.17021(10)
O4 O 0.54391(19) 0.6276(2) 0.09546(15)
H28 H 0.570(3) 0.633(5) 0.0613(19)
H29 H 0.531(4) 0.578(5) 0.103(3)
N13 N 0.42473(19) 0.8329(2) 0.28299(15)
N14 N 0.55083(19) 0.8214(2) 0.15242(16)
O9 O 0.32481(15) 0.65760(19) 0.29144(12)
O10 O 0.25793(17) 0.7921(2) 0.28727(14)
O11 O 0.53172(16) 0.80414(19) 0.01488(13)
N3 N 0.2240(2) 0.5795(3) 0.83907(17)
N4 N 0.0539(2) 0.4195(3) 0.92936(17)
N5 N 0.0956(2) 0.5701(3) 0.97281(16)
N7 N 0.2562(2) 0.4315(3) 0.89173(18)
N8 N 0.1813(2) 0.4305(3) 0.79417(18)
C4 C 0.3046(3) 0.5818(3) 0.9362(2)
C5 C 0.3350(2) 0.5347(3) 0.9900(2)
H3 H 0.3261 0.4691 0.9960
C6 C 0.3633(3) 0.7259(3) 0.9771(2)
H4 H 0.3724 0.7918 0.9727
C7 C 0.0577(2) 0.5165(3) 0.92911(19)
C9 C 0.2594(3) 0.5283(3) 0.8864(2)
C10 C 0.2179(2) 0.3865(3) 0.8438(2)
C12 C 0.0913(2) 0.3769(3) 0.9787(2)
C14 C 0.0140(2) 0.5688(3) 0.87700(19)
C15 C 0.1853(2) 0.5268(3) 0.7952(2)
C16 C 0.3184(3) 0.6803(3) 0.9306(2)
H6 H 0.2974 0.7149 0.8957
C20 C 0.0128(3) 0.6690(3) 0.8750(2)
H10 H 0.0419 0.7049 0.9049
C22 C 0.2149(3) 0.2794(4) 0.8464(2)
C23 C 0.2534(3) 0.2290(4) 0.8947(3)
H12 H 0.2827 0.2613 0.9263
C24 C 0.0447(4) 0.2160(4) 0.9397(3)
H13 H 0.0153 0.2455 0.9069
N9 N 0.0860(3) 0.0690(3) 0.9913(3)
C25 C 0.0875(3) 0.2702(3) 0.9832(2)
N10 N 0.2083(3) 0.0794(4) 0.8507(3)
C26 C 0.1738(4) 0.2275(4) 0.8002(3)
H14 H 0.1469 0.2589 0.7668
C28 C 0.0465(5) 0.1164(4) 0.9459(4)
H16 H 0.0178 0.0802 0.9158
C29 C 0.2476(4) 0.1285(4) 0.8952(4)
H17 H 0.2726 0.0945 0.9285
C30 C 0.1731(4) 0.1275(4) 0.8045(4)
H18 H 0.1460 0.0929 0.7727
C33 C 0.1411(2) 0.5798(3) 0.7441(2)
C34 C 0.1326(3) 0.6790(3) 0.7475(2)
H21 H 0.1575 0.7139 0.7804
C35 C 0.1058(3) 0.5317(3) 0.6924(2)
H22 H 0.1117 0.4652 0.6880
C36 C 0.0620(3) 0.5831(3) 0.6477(2)
H23 H 0.0393 0.5502 0.6129
C37 C 0.0871(3) 0.7257(3) 0.7016(2)
H24 H 0.0811 0.7923 0.7046
N12 N 0.05083(19) 0.6786(2) 0.65242(16)
C19 C 0.9716(3) 0.5186(3) 0.8302(2)
H9 H 0.9723 0.4514 0.8293
C31 C 0.9672(3) 0.7152(3) 0.8276(2)
H19 H 0.9662 0.7825 0.8269
N11 N 0.92473(19) 0.6671(2) 0.78299(15)
C32 C 0.9278(3) 0.5704(3) 0.7846(2)
H20 H 0.8991 0.5360 0.7536
Ni4 Ni 0.84616(3) 0.74131(3) 0.71911(2)
Ni6 Ni 0.97304(3) 0.75075(3) 0.59119(2)
Ni2_2 Ni 0.02696(3) 0.24925(3) 0.40881(2)
O1_2 O 0.16731(16) 0.37675(18) 0.33465(12)
N1_2 N 0.1053(2) 0.1799(2) 0.47170(15)
O2_2 O 0.09022(15) 0.37530(17) 0.41735(12)
C1_2 C 0.2751(3) 0.2252(3) 0.3887(2)
H1_2 H 0.2725 0.2922 0.3919
N2_2 N 0.23487(19) 0.1821(2) 0.34057(15)
N3_2 N 0.2760(2) 0.0795(3) 0.66093(17)
N5_2 N 0.4044(2) 0.0701(3) 0.52719(16)
C2_2 C 0.3238(2) 0.0763(3) 0.42992(19)
C3_2 C 0.2837(2) 0.0302(3) 0.3797(2)
C4_2 C 0.1954(3) 0.0818(3) 0.5638(2)
C5_2 C 0.1650(2) 0.0347(3) 0.5100(2)
C6_2 C 0.1367(3) 0.2259(3) 0.5229(2)
H4_2 H 0.1276 0.2918 0.5273
C7_2 C 0.4423(2) 0.0165(3) 0.57089(19)
C8_2 C 0.1346(2) 0.4152(2) 0.38062(16)
C9_2 C 0.2406(3) 0.0283(3) 0.6136(2)
C11_2 C 0.1212(2) 0.0864(3) 0.4654(2)
H5_2 H 0.1017 0.0543 0.4289
C13_2 C 0.3678(2) 0.0193(3) 0.47992(19)
C14_2 C 0.4860(2) 0.0688(3) 0.62300(19)
C15_2 C 0.3147(2) 0.0268(3) 0.7048(2)
C16_2 C 0.1816(3) 0.1803(3) 0.5694(2)
H6_2 H 0.2026 0.2149 0.6043
C17_2 C 0.2404(3) 0.0856(3) 0.3370(2)
H7_2 H 0.2135 0.0542 0.3036
C18_2 C 0.3204(3) 0.1757(3) 0.4339(2)
H8_2 H 0.3479 0.2088 0.4662
C19_2 C 0.5284(3) 0.0186(3) 0.6698(2)
C20_2 C 0.4872(3) 0.1690(3) 0.6250(2)
H10_2 H 0.4581 0.2049 0.5951
C31_2 C 0.5328(3) 0.2152(3) 0.6724(2)
H19_2 H 0.5338 0.2825 0.6731
N11_2 N 0.57527(19) 0.1671(2) 0.71701(15)
C32_2 C 0.5722(3) 0.0704(3) 0.7154(2)
H20_2 H 0.6009 0.0360 0.7464
C33_2 C 0.3589(2) 0.0798(3) 0.7559(2)
C34_2 C 0.3674(3) 0.1790(3) 0.7525(2)
H21_2 H 0.3425 0.2139 0.7196
C35_2 C 0.3942(3) 0.0317(3) 0.8076(2)
C36_2 C 0.4380(3) 0.0831(3) 0.8523(2)
H23_2 H 0.4607 0.0502 0.8871
C37_2 C 0.4129(3) 0.2257(3) 0.7984(2)
H24_2 H 0.4189 0.2923 0.7954
N12_2 N 0.44917(19) 0.1786(2) 0.84758(16)
O3_2 O 0.07438(13) 0.19594(15) 0.32979(10)
C38_2 C 0.1222(2) 0.6765(3) 0.43538(17)
C39_2 C 0.2035(2) 0.5655(3) 0.35165(17)
H25_2 H 0.2315 0.5281 0.3240
C40_2 C 0.1507(2) 0.5213(2) 0.38987(16)
C41_2 C 0.1104(2) 0.5771(3) 0.43219(16)
H26_2 H 0.0756 0.5480 0.4584
C42_2 C 0.2149(2) 0.6645(3) 0.35428(17)
C43_2 C 0.2695(2) 0.7091(3) 0.30947(17)
C44_2 C 0.1733(2) 0.7202(3) 0.39579(18)
H27_2 H 0.1797 0.7870 0.3970
C45_2 C 0.0788(2) 0.7382(3) 0.48164(19)
O7_2 O 0.03172(16) 0.69586(19) 0.51488(13)
O8_2 O 0.0933(2) 0.8262(2) 0.48309(19)
Ni4_2 Ni 0.65384(3) 0.24131(3) 0.78089(2)
N13_2 N 0.07527(19) 0.3329(2) 0.21701(15)
O4_2 O 0.95609(19) 0.1276(2) 0.40454(15)
H28_2 H 0.930(3) 0.133(5) 0.4387(19)
H29_2 H 0.969(4) 0.078(5) 0.397(3)
N14_2 N 0.94917(19) 0.3214(2) 0.34758(16)
O11_2 O 0.96828(16) 0.30414(19) 0.48512(13)
C19_3 C 0.0284(3) 0.4814(3) 0.1698(2)
H9_2 H 0.0277 0.5486 0.1707
C31_3 C 0.0328(3) 0.2848(3) 0.1724(2)
H19_3 H 0.0338 0.2175 0.1731
C32_3 C 0.0722(3) 0.4296(3) 0.2154(2)
H20_3 H 0.1009 0.4640 0.2464
N3_3 N 0.7760(2) 0.4205(3) 0.16093(17)
N4_2 N 0.9461(2) 0.5805(3) 0.07064(17)
N5_3 N 0.9044(2) 0.4299(3) 0.02719(16)
N7_2 N 0.7438(2) 0.5685(3) 0.10827(18)
N8_2 N 0.8187(2) 0.5695(3) 0.20583(18)
C4_3 C 0.6954(3) 0.4182(3) 0.0638(2)
C5_3 C 0.6650(2) 0.4653(3) 0.0100(2)
H3_2 H 0.6739 0.5309 0.0040
C6_3 C 0.6367(3) 0.2741(3) 0.0229(2)
H4_3 H 0.6276 0.2082 0.0273
C7_3 C 0.9423(2) 0.4835(3) 0.07089(19)
C9_3 C 0.7406(3) 0.4717(3) 0.1136(2)
C10_2 C 0.7821(2) 0.6135(3) 0.1562(2)
C12_2 C 0.9087(2) 0.6231(3) 0.0213(2)
C14_3 C 0.9860(2) 0.4312(3) 0.12300(19)
C15_3 C 0.8147(2) 0.4732(3) 0.2048(2)
C16_3 C 0.6816(3) 0.3197(3) 0.0694(2)
H6_3 H 0.7026 0.2851 0.1043
C20_3 C 0.9872(3) 0.3310(3) 0.1250(2)
H10_3 H 0.9581 0.2951 0.0951
C22_2 C 0.7851(3) 0.7206(4) 0.1536(2)
C23_2 C 0.7466(3) 0.7710(4) 0.1053(3)
H12_2 H 0.7173 0.7387 0.0737
C24_2 C 0.9553(4) 0.7840(4) 0.0603(3)
H13_2 H 0.9847 0.7545 0.0931
N9_2 N 0.9140(3) 0.9310(3) 0.0087(3)
C25_2 C 0.9125(3) 0.7298(3) 0.0168(2)
N10_2 N 0.7917(3) 0.9206(4) 0.1493(3)
C26_2 C 0.8262(4) 0.7725(4) 0.1998(3)
H14_2 H 0.8531 0.7411 0.2332
C28_2 C 0.9535(5) 0.8836(4) 0.0541(4)
H16_2 H 0.9822 0.9198 0.0842
C29_2 C 0.7524(4) 0.8715(4) 0.1048(4)
H17_2 H 0.7274 0.9055 0.0715
C30_2 C 0.8269(4) 0.8725(4) 0.1955(4)
H18_2 H 0.8540 0.9071 0.2273
C33_3 C 0.8589(2) 0.4202(3) 0.2559(2)
C34_3 C 0.8674(3) 0.3210(3) 0.2525(2)
H21_3 H 0.8425 0.2861 0.2196
C35_3 C 0.8942(3) 0.4683(3) 0.3076(2)
H22_2 H 0.8883 0.5348 0.3120
C36_3 C 0.9380(3) 0.4169(3) 0.3523(2)
H23_3 H 0.9607 0.4498 0.3871
C37_3 C 0.9129(3) 0.2743(3) 0.2984(2)
H24_3 H 0.9189 0.2077 0.2954
O1_3 O 0.66731(16) 0.12325(18) 0.83465(12)
N1_3 N 0.6053(2) 0.3201(2) 0.97170(15)
O2_3 O 0.59022(15) 0.12470(17) 0.91735(12)
C1_3 C 0.7751(3) 0.2748(3) 0.8887(2)
H1_3 H 0.7725 0.2078 0.8919
N2_3 N 0.73487(19) 0.3179(2) 0.84057(15)
N6_2 N 0.8684(2) 0.5766(3) 0.97470(17)
C2_3 C 0.8238(2) 0.4237(3) 0.92992(19)
C3_3 C 0.7837(2) 0.4698(3) 0.8797(2)
H2_2 H 0.7860 0.5366 0.8751
C8_3 C 0.6346(2) 0.0848(2) 0.88062(16)
C11_3 C 0.6212(2) 0.4136(3) 0.9654(2)
H5_3 H 0.6017 0.4457 0.9289
C13_3 C 0.8678(2) 0.4807(3) 0.97992(19)
C17_3 C 0.7404(3) 0.4144(3) 0.8370(2)
H7_3 H 0.7135 0.4458 0.8036
C18_3 C 0.8204(3) 0.3243(3) 0.9339(2)
H8_3 H 0.8479 0.2912 0.9662
C21_2 C 0.8700(4) 0.7790(4) 0.9690(3)
H11_2 H 0.8397 0.7455 0.9386
C27_2 C 0.8740(4) 0.8788(4) 0.9678(3)
H15_2 H 0.8459 0.9109 0.9353
O3_3 O 0.57438(13) 0.30406(15) 0.82979(10)
O4_3 O 0.45609(19) 0.3724(2) 0.90454(15)
H28_3 H 0.430(3) 0.367(5) 0.9387(19)
H29_3 H 0.469(4) 0.422(5) 0.897(3)
O9_2 O 0.67519(15) 0.34240(19) 0.70856(12)
O10_2 O 0.74207(17) 0.2079(2) 0.71273(14)
C38_3 C 0.6222(2) 0.8235(3) 0.93538(17)
C39_3 C 0.7035(2) 0.9345(3) 0.85165(17)
H25_3 H 0.7315 0.9719 0.8240
C40_3 C 0.6507(2) 0.9787(2) 0.88987(16)
C41_3 C 0.6104(2) 0.9229(3) 0.93219(16)
H26_3 H 0.5756 0.9520 0.9584
C42_3 C 0.7149(2) 0.8355(3) 0.85428(17)
C43_3 C 0.7695(2) 0.7909(3) 0.80947(17)
C44_3 C 0.6733(2) 0.7798(3) 0.89579(18)
H27_3 H 0.6797 0.7130 0.8970
O5_2 O 0.82481(15) 0.84240(19) 0.79144(12)
O6_2 O 0.75793(17) 0.7079(2) 0.78727(14)
C45_3 C 0.5788(2) 0.7618(3) 0.98164(19)
O8_3 O 0.5933(2) 0.6738(2) 0.98309(19)
O4_4 O 0.04391(19) 0.8724(2) 0.59546(15)
H28_4 H 0.070(3) 0.867(5) 0.5613(19)
H29_4 H 0.031(4) 0.922(5) 0.603(3)
O1_4 O 0.83269(16) 0.62325(18) 0.66535(12)
N1_4 N 0.8947(2) 0.8201(2) 0.52830(15)
O2_4 O 0.90978(15) 0.62470(17) 0.58265(12)
C1_4 C 0.7249(3) 0.7748(3) 0.6113(2)
H1_4 H 0.7275 0.7078 0.6081
N2_4 N 0.76513(19) 0.8179(2) 0.65943(15)
N3_4 N 0.7240(2) 0.9205(3) 0.33907(17)
N5_4 N 0.5956(2) 0.9299(3) 0.47281(16)
C2_4 C 0.6762(2) 0.9237(3) 0.57008(19)
C3_4 C 0.7163(2) 0.9698(3) 0.6203(2)
C4_4 C 0.8046(3) 0.9182(3) 0.4362(2)
C5_4 C 0.8350(2) 0.9653(3) 0.4900(2)
C6_4 C 0.8633(3) 0.7741(3) 0.4771(2)
H4_4 H 0.8724 0.7082 0.4727
C7_4 C 0.5577(2) 0.9835(3) 0.42911(19)
C8_4 C 0.8654(2) 0.5848(2) 0.61938(16)
C9_4 C 0.7594(3) 0.9717(3) 0.3864(2)
C11_4 C 0.8788(2) 0.9136(3) 0.5346(2)
H5_4 H 0.8983 0.9457 0.5711
C13_4 C 0.6322(2) 0.9807(3) 0.52008(19)
C14_4 C 0.5140(2) 0.9312(3) 0.37700(19)
C15_4 C 0.6853(2) 0.9732(3) 0.2952(2)
C16_4 C 0.8184(3) 0.8197(3) 0.4306(2)
H6_4 H 0.7974 0.7851 0.3957
C17_4 C 0.7596(3) 0.9144(3) 0.6630(2)
H7_4 H 0.7865 0.9458 0.6964
C18_4 C 0.6796(3) 0.8243(3) 0.5661(2)
H8_4 H 0.6521 0.7912 0.5338
C19_4 C 0.4716(3) 0.9814(3) 0.3302(2)
C20_4 C 0.5128(3) 0.8310(3) 0.3750(2)
H10_4 H 0.5419 0.7951 0.4049
C31_4 C 0.4672(3) 0.7848(3) 0.3276(2)
H19_4 H 0.4662 0.7175 0.3269
C32_4 C 0.4278(3) 0.9296(3) 0.2846(2)
H20_4 H 0.3991 0.9640 0.2536
C33_4 C 0.6411(2) 0.9202(3) 0.2441(2)
C34_4 C 0.6326(3) 0.8210(3) 0.2475(2)
H21_4 H 0.6575 0.7861 0.2804
C35_4 C 0.6058(3) 0.9683(3) 0.1924(2)
C36_4 C 0.5620(3) 0.9169(3) 0.1477(2)
H23_4 H 0.5393 0.9498 0.1129
C37_4 C 0.5871(3) 0.7743(3) 0.2016(2)
H24_4 H 0.5811 0.7077 0.2046
O3_4 O 0.92562(13) 0.80406(15) 0.67021(10)
C38_4 C 0.8778(2) 0.3235(3) 0.56462(17)
C39_4 C 0.7965(2) 0.4345(3) 0.64835(17)
H25_4 H 0.7685 0.4719 0.6760
C40_4 C 0.8493(2) 0.4787(2) 0.61013(16)
C41_4 C 0.8896(2) 0.4229(3) 0.56781(16)
H26_4 H 0.9244 0.4520 0.5416
C42_4 C 0.7851(2) 0.3355(3) 0.64572(17)
C43_4 C 0.7305(2) 0.2909(3) 0.69053(17)
C44_4 C 0.8267(2) 0.2798(3) 0.60421(18)
H27_4 H 0.8203 0.2130 0.6030
C45_4 C 0.9212(2) 0.2618(3) 0.51836(19)
O8_4 O 0.9067(2) 0.1738(2) 0.51691(19)
N4_3 N 0.4461(2) 0.9195(3) 0.57064(17)
N6_3 N 0.3684(2) 0.9234(3) 0.47470(17)
N7_3 N 0.2438(2) 0.9315(3) 0.60827(18)
N8_3 N 0.3187(2) 0.9305(3) 0.70583(18)
H2_3 H 0.2860 0.9634 0.3751
H3_3 H 0.1739 0.9691 0.5040
C10_3 C 0.2821(2) 0.8865(3) 0.6562(2)
C12_3 C 0.4087(2) 0.8769(3) 0.5213(2)
H9_3 H 0.5277 0.9514 0.6707
C21_3 C 0.3700(4) 0.7210(4) 0.4690(3)
H11_3 H 0.3397 0.7545 0.4386
C22_3 C 0.2851(3) 0.7794(4) 0.6536(2)
C23_3 C 0.2466(3) 0.7290(4) 0.6053(3)
H12_3 H 0.2173 0.7613 0.5737
C24_3 C 0.4553(4) 0.7160(4) 0.5603(3)
H13_3 H 0.4847 0.7455 0.5931
N9_3 N 0.4140(3) 0.5690(3) 0.5087(3)
C25_3 C 0.4125(3) 0.7702(3) 0.5168(2)
N10_3 N 0.2917(3) 0.5794(4) 0.6493(3)
C26_3 C 0.3262(4) 0.7275(4) 0.6998(3)
H14_3 H 0.3531 0.7589 0.7332
C27_3 C 0.3740(4) 0.6212(4) 0.4678(3)
H15_3 H 0.3459 0.5891 0.4353
C28_3 C 0.4535(5) 0.6164(4) 0.5541(4)
H16_3 H 0.4822 0.5802 0.5842
C29_3 C 0.2524(4) 0.6285(4) 0.6048(4)
H17_3 H 0.2274 0.5945 0.5715
C30_3 C 0.3269(4) 0.6275(4) 0.6955(4)
H18_3 H 0.3540 0.5929 0.7273
H22_3 H 0.3883 0.9652 0.8120
N4_4 N 0.5539(2) 0.0805(3) 0.42936(17)
N6_4 N 0.6316(2) 0.0766(3) 0.52530(17)
N7_4 N 0.7562(2) 0.0685(3) 0.39173(18)
N8_4 N 0.6813(2) 0.0695(3) 0.29417(18)
H2_4 H 0.7140 0.0366 0.6249
H3_4 H 0.8261 0.0309 0.4960
C10_4 C 0.7179(2) 0.1135(3) 0.3438(2)
C12_4 C 0.5913(2) 0.1231(3) 0.4787(2)
H9_4 H 0.4723 0.0486 0.3293
C21_4 C 0.6300(4) 0.2790(4) 0.5310(3)
H11_4 H 0.6603 0.2455 0.5614
C22_4 C 0.7149(3) 0.2206(4) 0.3464(2)
C23_4 C 0.7534(3) 0.2710(4) 0.3947(3)
H12_4 H 0.7827 0.2387 0.4263
C24_4 C 0.5447(4) 0.2840(4) 0.4397(3)
H13_4 H 0.5153 0.2545 0.4069
N9_4 N 0.5860(3) 0.4310(3) 0.4913(3)
C25_4 C 0.5875(3) 0.2298(3) 0.4832(2)
N10_4 N 0.7083(3) 0.4206(4) 0.3507(3)
C26_4 C 0.6738(4) 0.2725(4) 0.3002(3)
H14_4 H 0.6469 0.2411 0.2668
C27_4 C 0.6260(4) 0.3788(4) 0.5322(3)
H15_4 H 0.6541 0.4109 0.5647
C28_4 C 0.5465(5) 0.3836(4) 0.4459(4)
H16_4 H 0.5178 0.4198 0.4158
C29_4 C 0.7476(4) 0.3715(4) 0.3952(4)
H17_4 H 0.7726 0.4055 0.4285
C30_4 C 0.6731(4) 0.3725(4) 0.3045(4)
H18_4 H 0.6460 0.4071 0.2727
H22_4 H 0.6117 0.0348 0.1880
loop_
_geom_bond_atom_site_label_1
_geom_bond_atom_site_label_2
_geom_bond_site_symmetry_1
_geom_bond_site_symmetry_2
C38 C41 1_555 1_555
C39 H25 1_555 1_555
C41 C40 1_555 1_555
H26 C41 1_555 1_555
C42 C39 1_555 1_555
C43 C42 1_555 1_555
C44 C38 1_555 1_555
H27 C44 1_555 1_555
O5 C43 1_555 1_555
O6 C43 1_555 1_555
C45 C38 1_555 1_555
O8 C45 1_555 1_555
Ni3 O5 1_555 1_555
C39 C40 1_555 1_555
C42 C44 1_555 1_555
O6 Ni3 1_555 1_555
Ni5 O7 1_555 1_555
Ni1 O1 1_555 1_555
Ni2 N1 1_555 1_555
O1 C8 1_555 1_555
O2 Ni2 1_555 1_555
C1 H1 1_555 1_555
N2 Ni1 1_555 1_555
C2 C3 1_555 1_555
C3 H2 1_555 1_555
C8 O2 1_555 1_555
C11 N1 1_555 1_555
H5 C11 1_555 1_555
C17 N2 1_555 1_555
H7 C17 1_555 1_555
C18 C1 1_555 1_555
H8 C18 1_555 1_555
C21 H11 1_555 1_555
C27 C21 1_555 1_555
H15 C27 1_555 1_555
O3 Ni1 1_555 1_555
O4 Ni2 1_555 1_555
H28 O4 1_555 1_555
H29 O4 1_555 1_555
N13 Ni1 1_555 1_555
N14 Ni2 1_555 1_555
O9 Ni1 1_555 1_555
O10 Ni1 1_555 1_555
O11 Ni2 1_555 1_555
Ni2 O3 1_555 1_555
C1 N2 1_555 1_555
N6 C13 1_555 1_555
C2 C13 1_555 1_555
C2 C18 1_555 1_555
C3 C17 1_555 1_555
N3 C9 1_555 1_555
N4 C7 1_555 1_555
N5 C7 1_555 1_555
N7 C9 1_555 1_555
N8 C10 1_555 1_555
C4 C5 1_555 1_555
C5 H3 1_555 1_555
C6 H4 1_555 1_555
C7 C14 1_555 1_555
C9 C4 1_555 1_555
C10 N7 1_555 1_555
C12 N4 1_555 1_555
C15 N3 1_555 1_555
C16 C4 1_555 1_555
H6 C16 1_555 1_555
C20 C14 1_555 1_555
H10 C20 1_555 1_555
C22 C10 1_555 1_555
C23 C22 1_555 1_555
H12 C23 1_555 1_555
C24 H13 1_555 1_555
C25 C12 1_555 1_555
N10 C29 1_555 1_555
C26 C22 1_555 1_555
H14 C26 1_555 1_555
C28 C24 1_555 1_555
H16 C28 1_555 1_555
C29 C23 1_555 1_555
H17 C29 1_555 1_555
C30 N10 1_555 1_555
H18 C30 1_555 1_555
C33 C15 1_555 1_555
C34 C33 1_555 1_555
H21 C34 1_555 1_555
C35 C33 1_555 1_555
H22 C35 1_555 1_555
C36 C35 1_555 1_555
H23 C36 1_555 1_555
C37 C34 1_555 1_555
H24 C37 1_555 1_555
N12 C36 1_555 1_555
N8 C15 1_555 1_555
C6 C16 1_555 1_555
C24 C25 1_555 1_555
N9 C28 1_555 1_555
C26 C30 1_555 1_555
C37 N12 1_555 1_555
C19 H9 1_555 1_555
H19 C31 1_555 1_555
N11 C31 1_555 1_555
C32 C19 1_555 1_555
H20 C32 1_555 1_555
Ni4 N11 1_555 1_555
N11 C32 1_555 1_555
Ni3 O1_2 1_555 1_555
Ni2_2 N1_2 1_555 1_555
O1_2 C8_2 1_555 1_555
N1_2 C6_2 1_555 1_555
O2_2 Ni2_2 1_555 1_555
C1_2 H1_2 1_555 1_555
N2_2 Ni3 1_555 1_555
N3_2 C9_2 1_555 1_555
N5_2 C7_2 1_555 1_555
C2_2 C3_2 1_555 1_555
C4_2 C5_2 1_555 1_555
C6_2 H4_2 1_555 1_555
C7_2 C14_2 1_555 1_555
C8_2 O2_2 1_555 1_555
C9_2 C4_2 1_555 1_555
C11_2 N1_2 1_555 1_555
H5_2 C11_2 1_555 1_555
C13_2 N5_2 1_555 1_555
C14_2 C19_2 1_555 1_555
C15_2 N3_2 1_555 1_555
C16_2 C4_2 1_555 1_555
H6_2 C16_2 1_555 1_555
C17_2 N2_2 1_555 1_555
H7_2 C17_2 1_555 1_555
C18_2 C1_2 1_555 1_555
H8_2 C18_2 1_555 1_555
C20_2 C14_2 1_555 1_555
H10_2 C20_2 1_555 1_555
C31_2 C20_2 1_555 1_555
H19_2 C31_2 1_555 1_555
N11_2 C31_2 1_555 1_555
C32_2 C19_2 1_555 1_555
H20_2 C32_2 1_555 1_555
C33_2 C15_2 1_555 1_555
C34_2 C33_2 1_555 1_555
H21_2 C34_2 1_555 1_555
C35_2 C33_2 1_555 1_555
C36_2 C35_2 1_555 1_555
H23_2 C36_2 1_555 1_555
C37_2 C34_2 1_555 1_555
H24_2 C37_2 1_555 1_555
N12_2 C36_2 1_555 1_555
O3_2 Ni3 1_555 1_555
C38_2 C41_2 1_555 1_555
C39_2 H25_2 1_555 1_555
C40_2 C8_2 1_555 1_555
C41_2 C40_2 1_555 1_555
H26_2 C41_2 1_555 1_555
C42_2 C39_2 1_555 1_555
C43_2 C42_2 1_555 1_555
C44_2 C38_2 1_555 1_555
H27_2 C44_2 1_555 1_555
O9 C43_2 1_555 1_555
O10 C43_2 1_555 1_555
C45_2 C38_2 1_555 1_555
O7_2 C45_2 1_555 1_555
O8_2 C45_2 1_555 1_555
Ni4_2 N11_2 1_555 1_555
Ni5 N12_2 1_555 1_555
N13_2 Ni3 1_555 1_555
Ni2_2 O3_2 1_555 1_555
C1_2 N2_2 1_555 1_555
C2_2 C13_2 1_555 1_555
C2_2 C18_2 1_555 1_555
C3_2 C17_2 1_555 1_555
C5_2 C11_2 1_555 1_555
C6_2 C16_2 1_555 1_555
N11_2 C32_2 1_555 1_555
C37_2 N12_2 1_555 1_555
C39_2 C40_2 1_555 1_555
C42_2 C44_2 1_555 1_555
H28_2 O4_2 1_555 1_555
H29_2 O4_2 1_555 1_555
C19_3 H9_2 1_555 1_555
H19_3 C31_3 1_555 1_555
N13_2 C31_3 1_555 1_555
C32_3 C19_3 1_555 1_555
H20_3 C32_3 1_555 1_555
N13_2 C32_3 1_555 1_555
N3_3 C9_3 1_555 1_555
N4_2 C7_3 1_555 1_555
N5_3 C7_3 1_555 1_555
N7_2 C9_3 1_555 1_555
N8_2 C10_2 1_555 1_555
C4_3 C5_3 1_555 1_555
C5_3 H3_2 1_555 1_555
C6_3 H4_3 1_555 1_555
C7_3 C14_3 1_555 1_555
C9_3 C4_3 1_555 1_555
C10_2 N7_2 1_555 1_555
C12_2 N4_2 1_555 1_555
C15_3 N3_3 1_555 1_555
C16_3 C4_3 1_555 1_555
H6_3 C16_3 1_555 1_555
C20_3 C14_3 1_555 1_555
H10_3 C20_3 1_555 1_555
C22_2 C10_2 1_555 1_555
C23_2 C22_2 1_555 1_555
H12_2 C23_2 1_555 1_555
C24_2 H13_2 1_555 1_555
C25_2 C12_2 1_555 1_555
N10_2 C29_2 1_555 1_555
C26_2 C22_2 1_555 1_555
H14_2 C26_2 1_555 1_555
C28_2 C24_2 1_555 1_555
H16_2 C28_2 1_555 1_555
C29_2 C23_2 1_555 1_555
H17_2 C29_2 1_555 1_555
C30_2 N10_2 1_555 1_555
H18_2 C30_2 1_555 1_555
C33_3 C15_3 1_555 1_555
C34_3 C33_3 1_555 1_555
H21_3 C34_3 1_555 1_555
C35_3 C33_3 1_555 1_555
H22_2 C35_3 1_555 1_555
C36_3 C35_3 1_555 1_555
H23_3 C36_3 1_555 1_555
C37_3 C34_3 1_555 1_555
H24_3 C37_3 1_555 1_555
N14_2 C36_3 1_555 1_555
N8_2 C15_3 1_555 1_555
C6_3 C16_3 1_555 1_555
C24_2 C25_2 1_555 1_555
N9_2 C28_2 1_555 1_555
C26_2 C30_2 1_555 1_555
C37_3 N14_2 1_555 1_555
Ni4_2 O1_3 1_555 1_555
Ni5 N1_3 1_555 1_555
O1_3 C8_3 1_555 1_555
O2_3 Ni5 1_555 1_555
C1_3 H1_3 1_555 1_555
N2_3 Ni4_2 1_555 1_555
C2_3 C3_3 1_555 1_555
C3_3 H2_2 1_555 1_555
C8_3 O2_3 1_555 1_555
C11_3 N1_3 1_555 1_555
H5_3 C11_3 1_555 1_555
C17_3 N2_3 1_555 1_555
H7_3 C17_3 1_555 1_555
C18_3 C1_3 1_555 1_555
H8_3 C18_3 1_555 1_555
C21_2 H11_2 1_555 1_555
C27_2 C21_2 1_555 1_555
H15_2 C27_2 1_555 1_555
O3_3 Ni4_2 1_555 1_555
O4_3 Ni5 1_555 1_555
H28_3 O4_3 1_555 1_555
H29_3 O4_3 1_555 1_555
O9_2 Ni4_2 1_555 1_555
O10_2 Ni4_2 1_555 1_555
Ni5 O3_3 1_555 1_555
C1_3 N2_3 1_555 1_555
N6_2 C13_3 1_555 1_555
C2_3 C13_3 1_555 1_555
C2_3 C18_3 1_555 1_555
C3_3 C17_3 1_555 1_555
C38_3 C41_3 1_555 1_555
C39_3 H25_3 1_555 1_555
C41_3 C40_3 1_555 1_555
H26_3 C41_3 1_555 1_555
C42_3 C39_3 1_555 1_555
C43_3 C42_3 1_555 1_555
C44_3 C38_3 1_555 1_555
H27_3 C44_3 1_555 1_555
O5_2 C43_3 1_555 1_555
O6_2 C43_3 1_555 1_555
C45_3 C38_3 1_555 1_555
O8_3 C45_3 1_555 1_555
Ni4 O5_2 1_555 1_555
C39_3 C40_3 1_555 1_555
C42_3 C44_3 1_555 1_555
O6_2 Ni4 1_555 1_555
H28_4 O4_4 1_555 1_555
H29_4 O4_4 1_555 1_555
Ni4 O1_4 1_555 1_555
Ni6 N1_4 1_555 1_555
O1_4 C8_4 1_555 1_555
N1_4 C6_4 1_555 1_555
O2_4 Ni6 1_555 1_555
C1_4 H1_4 1_555 1_555
N2_4 Ni4 1_555 1_555
N3_4 C9_4 1_555 1_555
N5_4 C7_4 1_555 1_555
C2_4 C3_4 1_555 1_555
C4_4 C5_4 1_555 1_555
C6_4 H4_4 1_555 1_555
C7_4 C14_4 1_555 1_555
C8_4 O2_4 1_555 1_555
C9_4 C4_4 1_555 1_555
C11_4 N1_4 1_555 1_555
H5_4 C11_4 1_555 1_555
C13_4 N5_4 1_555 1_555
C14_4 C19_4 1_555 1_555
C15_4 N3_4 1_555 1_555
C16_4 C4_4 1_555 1_555
H6_4 C16_4 1_555 1_555
C17_4 N2_4 1_555 1_555
H7_4 C17_4 1_555 1_555
C18_4 C1_4 1_555 1_555
H8_4 C18_4 1_555 1_555
C20_4 C14_4 1_555 1_555
H10_4 C20_4 1_555 1_555
C31_4 C20_4 1_555 1_555
H19_4 C31_4 1_555 1_555
N13 C31_4 1_555 1_555
C32_4 C19_4 1_555 1_555
H20_4 C32_4 1_555 1_555
C33_4 C15_4 1_555 1_555
C34_4 C33_4 1_555 1_555
H21_4 C34_4 1_555 1_555
C35_4 C33_4 1_555 1_555
C36_4 C35_4 1_555 1_555
H23_4 C36_4 1_555 1_555
C37_4 C34_4 1_555 1_555
H24_4 C37_4 1_555 1_555
N14 C36_4 1_555 1_555
O3_4 Ni4 1_555 1_555
C38_4 C41_4 1_555 1_555
C39_4 H25_4 1_555 1_555
C40_4 C8_4 1_555 1_555
C41_4 C40_4 1_555 1_555
H26_4 C41_4 1_555 1_555
C42_4 C39_4 1_555 1_555
C43_4 C42_4 1_555 1_555
C44_4 C38_4 1_555 1_555
H27_4 C44_4 1_555 1_555
O9_2 C43_4 1_555 1_555
O10_2 C43_4 1_555 1_555
C45_4 C38_4 1_555 1_555
O11_2 C45_4 1_555 1_555
O8_4 C45_4 1_555 1_555
Ni6 O3_4 1_555 1_555
C1_4 N2_4 1_555 1_555
C2_4 C13_4 1_555 1_555
C2_4 C18_4 1_555 1_555
C3_4 C17_4 1_555 1_555
C5_4 C11_4 1_555 1_555
C6_4 C16_4 1_555 1_555
N13 C32_4 1_555 1_555
C37_4 N14 1_555 1_555
C39_4 C40_4 1_555 1_555
C42_4 C44_4 1_555 1_555
N6_3 C12_3 1_555 1_555
N8_3 C10_3 1_555 1_555
C10_3 N7_3 1_555 1_555
C12_3 N4_3 1_555 1_555
C21_3 H11_3 1_555 1_555
C22_3 C10_3 1_555 1_555
C23_3 C22_3 1_555 1_555
H12_3 C23_3 1_555 1_555
C24_3 H13_3 1_555 1_555
N9_3 C27_3 1_555 1_555
C25_3 C12_3 1_555 1_555
N10_3 C29_3 1_555 1_555
C26_3 C22_3 1_555 1_555
H14_3 C26_3 1_555 1_555
C27_3 C21_3 1_555 1_555
H15_3 C27_3 1_555 1_555
C28_3 C24_3 1_555 1_555
H16_3 C28_3 1_555 1_555
C29_3 C23_3 1_555 1_555
H17_3 C29_3 1_555 1_555
C30_3 N10_3 1_555 1_555
H18_3 C30_3 1_555 1_555
C21_3 C25_3 1_555 1_555
C24_3 C25_3 1_555 1_555
N9_3 C28_3 1_555 1_555
C26_3 C30_3 1_555 1_555
N6_4 C12_4 1_555 1_555
N8_4 C10_4 1_555 1_555
C10_4 N7_4 1_555 1_555
C12_4 N4_4 1_555 1_555
C21_4 H11_4 1_555 1_555
C22_4 C10_4 1_555 1_555
C23_4 C22_4 1_555 1_555
H12_4 C23_4 1_555 1_555
C24_4 H13_4 1_555 1_555
N9_4 C27_4 1_555 1_555
C25_4 C12_4 1_555 1_555
N10_4 C29_4 1_555 1_555
C26_4 C22_4 1_555 1_555
H14_4 C26_4 1_555 1_555
C27_4 C21_4 1_555 1_555
H15_4 C27_4 1_555 1_555
C28_4 C24_4 1_555 1_555
H16_4 C28_4 1_555 1_555
C29_4 C23_4 1_555 1_555
H17_4 C29_4 1_555 1_555
C30_4 N10_4 1_555 1_555
H18_4 C30_4 1_555 1_555
C21_4 C25_4 1_555 1_555
C24_4 C25_4 1_555 1_555
N9_4 C28_4 1_555 1_555
C26_4 C30_4 1_555 1_555

#END
