
###############################################################################
#
# This file contains modified crystal structure data generated from the
# MOF subset of the Cambridge Structural Database (CSD) v543 
# hosted by the Cambridge Crystallographic Data Centre (CCDC).
#
# This work is licensed under the Creative Commons
# Attribution-NonCommercial-ShareAlike 4.0 International License.
# To view a copy of this license, visit
# http://creativecommons.org/licenses/by-nc-sa/4.0/
# or send a letter to
# Creative Commons, PO Box 1866, Mountain View, CA 94042, USA.
#
# CIF created using the CSD Python API on 29 September 2022
# The structure has been converted into the P1 space group
# The structure has a 3D framework
# The original CSD entry EHESOB is in the triclinic crystal system
# The framework has been calculated to contain at least 10.0% void space
# The void calculation uses a probe of radius 1.32A, grid spacing 0.4
#
###############################################################################

data_EHESOB
_chemical_formula_moiety         '(C28 H12 Ag2 Eu2 N4 O15)n'
_symmetry_cell_setting           triclinic
_symmetry_space_group_name_H-M   'P 1'
_symmetry_Int_Tables_number      1
_space_group_name_Hall           'P 1'
loop_
_symmetry_equiv_pos_site_id
_symmetry_equiv_pos_as_xyz
1 x,y,z
_cell_length_a                   7.253(3)
_cell_length_b                   10.436(4)
_cell_length_c                   11.639(4)
_cell_angle_alpha                100.616(5)
_cell_angle_beta                 101.063(4)
_cell_angle_gamma                95.708(4)
_cell_volume                     841.473
loop_
_atom_site_label
_atom_site_type_symbol
_atom_site_fract_x
_atom_site_fract_y
_atom_site_fract_z
O1 O 0.0991(13) 0.0276(11) 0.2266(9)
N1 N 0.0405(17) 0.1764(12) 0.5662(10)
C1 C 0.0587(19) 0.1407(14) 0.4548(13)
H1 H 0.1801 0.1444 0.4395
Ag2 Ag 0.29120(19) 0.24823(14) 0.71218(13)
Eu2 Eu 0.25683(8) 0.97466(6) 0.06642(6)
O2 O 0.8070(13) 0.0654(9) 0.1468(9)
O4 O 0.4679(13) 0.1330(10) 0.2353(10)
C2 C 0.9026(17) 0.0973(13) 0.3581(11)
C3 C 0.7220(19) 0.0919(13) 0.3802(12)
C4 C 0.706(2) 0.1274(14) 0.4978(13)
H2 H 0.5867 0.1218 0.5165
C5 C 0.865(2) 0.1710(15) 0.5870(13)
H3 H 0.8506 0.1978 0.6651
C6 C 0.9396(19) 0.0595(13) 0.2326(12)
C7 C 0.5471(18) 0.0465(14) 0.2820(13)
O14 O 0.0683(12) 0.1425(9) 0.0129(8)
Eu3 Eu 0.74317(8) 0.02534(6) 0.93358(6)
O12 O 0.4618(12) 0.1269(9) 0.9958(9)
O3 O 0.4852(13) 0.9245(10) 0.2477(9)
O5 O 0.5382(12) 0.8731(9) 0.0042(9)
O8 O 0.9373(16) 0.7380(11) 0.1271(11)
C14 C 0.8759(18) 0.7580(12) 0.0272(12)
Ag3 Ag 0.70880(19) 0.75177(14) 0.28782(13)
O6 O 0.2813(13) 0.7387(9) 0.9955(10)
O7 O 0.9317(12) 0.8575(9) 0.9871(8)
N2 N 0.4912(17) 0.4259(12) 0.8095(12)
C8 C 0.421(2) 0.5313(15) 0.8584(15)
H4 H 0.2899 0.5285 0.8468
C9 C 0.5367(18) 0.6454(13) 0.9262(14)
C10 C 0.7326(18) 0.6503(13) 0.9442(13)
C11 C 0.801(2) 0.5393(13) 0.8906(15)
H5 H 0.9317 0.5393 0.9000
C12 C 0.681(2) 0.4309(14) 0.8247(15)
H6 H 0.7309 0.3587 0.7894
C13 C 0.4464(19) 0.7580(12) 0.9779(13)
O10 O 0.1930(13) 0.9346(9) 0.8532(9)
O11 O 0.5148(13) 0.0755(10) 0.7523(9)
O6_2 O 0.7187(13) 0.2613(9) 0.0045(10)
N2_2 N 0.5088(17) 0.5741(12) 0.1905(12)
C8_2 C 0.579(2) 0.4687(15) 0.1416(15)
H4_2 H 0.7101 0.4715 0.1532
C9_2 C 0.4633(18) 0.3546(13) 0.0738(14)
C10_2 C 0.2674(18) 0.3497(13) 0.0558(13)
C11_2 C 0.199(2) 0.4607(13) 0.1094(15)
H5_2 H 0.0683 0.4607 0.1000
C12_2 C 0.319(2) 0.5691(14) 0.1753(15)
H6_2 H 0.2691 0.6413 0.2106
C13_2 C 0.5536(19) 0.2420(12) 0.0221(13)
N3 N 0.9595(17) 0.8236(12) 0.4338(10)
O8_2 O 0.0627(16) 0.2620(11) 0.8729(11)
C14_2 C 0.1241(18) 0.2420(12) 0.9728(12)
O4_2 O 0.5321(13) 0.8670(10) 0.7647(10)
C2_2 C 0.0974(17) 0.9027(13) 0.6419(11)
C3_2 C 0.2780(19) 0.9081(13) 0.6198(12)
C4_2 C 0.294(2) 0.8726(14) 0.5022(13)
H2_2 H 0.4133 0.8782 0.4835
C5_2 C 0.135(2) 0.8290(15) 0.4130(13)
H3_2 H 0.1494 0.8022 0.3349
C6_2 C 0.0604(19) 0.9405(13) 0.7674(12)
C7_2 C 0.4529(18) 0.9535(14) 0.7180(13)
O9 O 0.9009(13) 0.9724(11) 0.7734(9)
C1_2 C 0.9413(19) 0.8593(14) 0.5452(13)
H1_2 H 0.8199 0.8556 0.5605
loop_
_geom_bond_atom_site_label_1
_geom_bond_atom_site_label_2
_geom_bond_site_symmetry_1
_geom_bond_site_symmetry_2
N1 C1 1_555 1_555
C1 H1 1_555 1_555
Ag2 N1 1_555 1_555
O2 C6 1_555 1_555
C3 C2 1_555 1_555
C4 C3 1_555 1_555
H2 C4 1_555 1_555
H3 C5 1_555 1_555
C6 C2 1_555 1_555
C7 O4 1_555 1_555
C3 C7 1_555 1_555
C4 C5 1_555 1_555
Eu3 O12 1_555 1_555
Eu2 O3 1_555 1_555
O5 Eu2 1_555 1_555
O8 C14 1_555 1_555
Ag3 O3 1_555 1_555
Ag2 N2 1_555 1_555
N2 C8 1_555 1_555
C8 H4 1_555 1_555
C9 C8 1_555 1_555
C10 C9 1_555 1_555
C11 C10 1_555 1_555
H5 C11 1_555 1_555
C12 N2 1_555 1_555
H6 C12 1_555 1_555
O11 Ag2 1_555 1_555
O6 C13 1_555 1_555
C9 C13 1_555 1_555
C11 C12 1_555 1_555
Ag3 N2_2 1_555 1_555
N2_2 C8_2 1_555 1_555
C8_2 H4_2 1_555 1_555
C9_2 C8_2 1_555 1_555
C10_2 C9_2 1_555 1_555
C11_2 C10_2 1_555 1_555
H5_2 C11_2 1_555 1_555
C12_2 N2_2 1_555 1_555
H6_2 C12_2 1_555 1_555
N3 Ag3 1_555 1_555
O6_2 C13_2 1_555 1_555
C9_2 C13_2 1_555 1_555
C11_2 C12_2 1_555 1_555
Eu3 O11 1_555 1_555
O8_2 C14_2 1_555 1_555
O10 C6_2 1_555 1_555
C3_2 C2_2 1_555 1_555
C4_2 C3_2 1_555 1_555
H2_2 C4_2 1_555 1_555
H3_2 C5_2 1_555 1_555
C6_2 C2_2 1_555 1_555
C7_2 O4_2 1_555 1_555
C3_2 C7_2 1_555 1_555
C4_2 C5_2 1_555 1_555
N3 C1_2 1_555 1_555
C1_2 H1_2 1_555 1_555

#END
