
###############################################################################
#
# This file contains modified crystal structure data generated from the
# MOF subset of the Cambridge Structural Database (CSD) v543 
# hosted by the Cambridge Crystallographic Data Centre (CCDC).
#
# This work is licensed under the Creative Commons
# Attribution-NonCommercial-ShareAlike 4.0 International License.
# To view a copy of this license, visit
# http://creativecommons.org/licenses/by-nc-sa/4.0/
# or send a letter to
# Creative Commons, PO Box 1866, Mountain View, CA 94042, USA.
#
# CIF created using the CSD Python API on 29 September 2022
# The structure has been converted into the P1 space group
# The structure has a 3D framework
# The original CSD entry EHEZIB is in the orthorhombic crystal system
# The original CSD entry EHEZIB is in a Sohncke space group
# The framework has been calculated to contain at least 10.0% void space
# The void calculation uses a probe of radius 1.32A, grid spacing 0.4
#
###############################################################################

data_EHEZIB
_chemical_formula_moiety         '(C232 H216 Eu8 O53)n'
_symmetry_cell_setting           triclinic
_symmetry_space_group_name_H-M   'P 1'
_symmetry_Int_Tables_number      1
_space_group_name_Hall           'P 1'
loop_
_symmetry_equiv_pos_site_id
_symmetry_equiv_pos_as_xyz
1 x,y,z
_cell_length_a                   14.3759(8)
_cell_length_b                   17.3163(9)
_cell_length_c                   22.8716(12)
_cell_angle_alpha                90
_cell_angle_beta                 90
_cell_angle_gamma                90
_cell_volume                     5693.6
loop_
_atom_site_label
_atom_site_type_symbol
_atom_site_fract_x
_atom_site_fract_y
_atom_site_fract_z
C1 C 0.1740(5) 0.6569(4) 0.1550(3)
H1 H 0.1822 0.6455 0.1953
C2 C 0.2221(4) 0.7184(3) 0.1303(3)
C3 C 0.1137(5) 0.6115(4) 0.1214(3)
H2 H 0.0801 0.5699 0.1385
C4 C 0.1045(4) 0.6290(3) 0.0623(3)
C5 C 0.2108(6) 0.7352(5) 0.0717(3)
H3 H 0.2420 0.7783 0.0551
C6 C 0.1549(5) 0.6899(4) 0.0375(3)
C11 C 0.0513(4) 0.5918(3) 0.0159(3)
O2 O 0.3125(4) 0.8314(3) 0.1524(2)
O4 O 0.3025(4) 0.7429(3) 0.2197(3)
C28 C 0.2822(5) 0.7669(4) 0.1694(3)
H19 H 0.0072 0.7918 0.0231
Eu3 Eu 0.380968(14) 0.860548(13) 0.247900(18)
C7 C 0.0326(5) 0.5992(4) 0.9115(3)
H4 H 0.0447 0.6247 0.8755
C8 C 0.0709(5) 0.6270(4) 0.9632(3)
C10 C 0.1369(5) 0.6951(4) 0.9719(3)
C21 C 0.0913(7) 0.7715(5) 0.9541(4)
H10 H 0.1344 0.8140 0.9641
H11 H 0.0838 0.7715 0.9110
C33 C 0.0005(7) 0.7886(6) 0.9805(6)
C34 C 0.2808(7) 0.6098(6) 0.9439(5)
H21 H 0.3367 0.6103 0.9194
H22 H 0.2409 0.5665 0.9324
H23 H 0.2987 0.6040 0.9850
C36 C 0.2283(6) 0.6848(5) 0.9361(3)
H25 H 0.2128 0.6903 0.8941
H26 H 0.2708 0.7277 0.9463
O12 O 0.0577(3) 0.3755(3) 0.7789(2)
H32 H 0.0542 0.3318 0.7926
H54 H 0.1065 0.3847 0.7535
O17 O 0.0145(4) 0.4335(3) 0.6745(2)
O20 O 0.0222(3) 0.6928(2) 0.77367(19)
H9 H 0.7719 0.0029 0.4432
C29 C 0.6550(4) 0.0025(4) 0.3935(3)
H13 H 0.6667 0.0508 0.3752
O7 O 0.5145(4) 0.0665(3) 0.3255(2)
Eu6 Eu 0.400809(14) 0.079601(12) 0.24954(2)
Eu1 Eu 0.880968(14) 0.639452(13) 0.752100(18)
Eu2 Eu 0.900809(14) 0.420399(12) 0.75046(2)
C9 C 0.9768(4) 0.5345(3) 0.9129(3)
C13 C 0.7427(4) 0.8669(3) 0.5107(3)
C14 C 0.6950(4) 0.9063(3) 0.4631(3)
C15 C 0.9437(4) 0.4995(3) 0.8583(3)
C16 C 0.8521(5) 0.8368(4) 0.5862(3)
H6 H 0.9071 0.8484 0.6074
C17 C 0.8239(5) 0.8863(4) 0.5403(3)
H7 H 0.8590 0.9308 0.5301
C18 C 0.6920(5) 0.8005(4) 0.5237(3)
C19 C 0.9566(4) 0.4999(4) 0.9658(3)
H8 H 0.9177 0.4555 0.9663
C20 C 0.7164(5) 0.9754(4) 0.4345(3)
O1 O 0.9524(3) 0.5358(3) 0.80953(19)
C22 C 0.6175(5) 0.8632(4) 0.4469(3)
O3 O 0.9107(3) 0.4326(3) 0.8565(2)
C23 C 0.5766(4) 0.9613(3) 0.3781(3)
C24 C 0.8006(4) 0.7713(4) 0.6010(3)
C25 C 0.6090(5) 0.7912(4) 0.4823(3)
C26 C 0.8307(5) 0.7210(4) 0.6500(3)
C27 C 0.5578(5) 0.8896(4) 0.4046(3)
H12 H 0.5050 0.8602 0.3934
O5 O 0.9093(3) 0.7332(2) 0.67381(19)
O6 O 0.7807(4) 0.6662(3) 0.6676(2)
C30 C 0.5102(4) 0.9961(4) 0.3361(3)
C31 C 0.6213(6) 0.7200(4) 0.4445(4)
H14 H 0.5689 0.7174 0.4164
H15 H 0.6176 0.6737 0.4697
C32 C 0.5160(5) 0.7862(5) 0.5150(4)
H16 H 0.4653 0.7820 0.4859
H17 H 0.5156 0.7382 0.5386
H18 H 0.9773 0.8379 0.9654
H20 H 0.9565 0.7474 0.9706
O8 O 0.4471(4) 0.9548(3) 0.3118(2)
O9 O 0.1152(2) 0.7899(2) 0.7506(3)
C35 C 0.7202(6) 0.7524(4) 0.5697(3)
H24 H 0.6853 0.7076 0.5794
C37 C 0.7124(7) 0.7172(6) 0.4103(5)
H27 H 0.7145 0.6698 0.3869
H28 H 0.7649 0.7179 0.4376
H29 H 0.7162 0.7622 0.3843
O10 O 0.7778(2) 0.53052(19) 0.7543(3)
C38 C 0.2698(3) 0.6962(3) 0.7448(4)
H30 H 0.2766 0.7485 0.7331
C39 C 0.5885(3) 0.5744(3) 0.7511(4)
H31 H 0.6328 0.6121 0.7396
C40 C 0.4942(3) 0.5915(3) 0.7509(4)
C41 C 0.3458(3) 0.6477(3) 0.7483(4)
O13 O 0.7402(3) 0.4122(2) 0.7819(2)
C42 C 0.1017(3) 0.7198(3) 0.7606(3)
C43 C 0.1826(3) 0.6663(3) 0.7591(3)
C44 C 0.6168(3) 0.5014(3) 0.7682(3)
C45 C 0.7167(4) 0.4796(3) 0.7687(3)
C46 C 0.4472(4) 0.6680(3) 0.7358(3)
O14 O 0.8088(4) 0.4096(3) 0.6610(2)
C47 C 0.3360(4) 0.5712(3) 0.7649(3)
C48 C 0.1727(4) 0.5886(3) 0.7744(3)
H33 H 0.1126 0.5683 0.7825
C49 C 0.4290(4) 0.5360(3) 0.7676(3)
C50 C 0.4574(4) 0.4624(3) 0.7868(3)
H34 H 0.4134 0.4256 0.8003
C51 C 0.2494(4) 0.5414(3) 0.7777(3)
H35 H 0.2429 0.4888 0.7887
C52 C 0.4821(4) 0.7342(4) 0.7763(4)
H36 H 0.5491 0.7429 0.7688
H37 H 0.4487 0.7823 0.7660
C53 C 0.5512(4) 0.4454(4) 0.7853(3)
H38 H 0.5717 0.3952 0.7960
C54 C 0.4619(5) 0.6897(4) 0.6704(3)
H39 H 0.4272 0.7379 0.6622
H40 H 0.5287 0.7005 0.6641
C55 C 0.4687(6) 0.7184(5) 0.8403(4)
H41 H 0.4919 0.7623 0.8630
H42 H 0.5031 0.6717 0.8512
H43 H 0.4024 0.7109 0.8484
C56 C 0.4310(7) 0.6283(5) 0.6268(4)
H44 H 0.4431 0.6465 0.5869
H45 H 0.3644 0.6184 0.6316
H46 H 0.4658 0.5805 0.6338
C57 C 0.4953(7) 0.8546(7) 0.5554(5)
H47 H 0.4347 0.8470 0.5741
H48 H 0.4943 0.9024 0.5325
H49 H 0.5437 0.8581 0.5855
C58 C 0.7240(6) 0.3707(6) 0.6508(4)
H50 H 0.7051 0.3782 0.6100
H51 H 0.6759 0.3914 0.6768
H52 H 0.7321 0.3154 0.6585
H53 H 0.8215 0.4501 0.6394
Eu7 Eu 0.099191(14) 0.920399(12) 0.74954(2)
O15 O 0.8125(4) 0.6686(3) 0.8476(2)
O16 O 0.8025(4) 0.7571(3) 0.7803(3)
O18 O 0.9471(4) 0.5452(3) 0.6882(2)
O19 O 0.8848(2) 0.2899(2) 0.7494(3)
O9_2 O 0.3848(2) 0.2101(2) 0.2506(3)
C38_2 C 0.2302(3) 0.3038(3) 0.2448(4)
H30_2 H 0.2234 0.2515 0.2331
O11 O 0.4778(3) 0.3072(2) 0.27367(19)
C40_2 C 0.0058(3) 0.4085(3) 0.2509(4)
C41_2 C 0.1542(3) 0.3523(3) 0.2483(4)
C42_2 C 0.3983(3) 0.2802(3) 0.2606(3)
C43_2 C 0.3174(3) 0.3337(3) 0.2591(3)
C46_2 C 0.0528(4) 0.3320(3) 0.2358(3)
C47_2 C 0.1640(4) 0.4288(3) 0.2649(3)
C48_2 C 0.3273(4) 0.4114(3) 0.2744(3)
H33_2 H 0.3874 0.4317 0.2825
C49_2 C 0.0710(4) 0.4640(3) 0.2676(3)
C50_2 C 0.0426(4) 0.5376(3) 0.2868(3)
H34_2 H 0.0866 0.5744 0.3003
C51_2 C 0.2506(4) 0.4586(3) 0.2777(3)
H35_2 H 0.2571 0.5112 0.2887
C52_2 C 0.0179(4) 0.2658(4) 0.2763(4)
H37_2 H 0.0513 0.2177 0.2660
C54_2 C 0.0381(5) 0.3103(4) 0.1704(3)
H39_2 H 0.0728 0.2621 0.1622
C55_2 C 0.0313(6) 0.2816(5) 0.3403(4)
H41_2 H 0.0081 0.2377 0.3630
H43_2 H 0.0976 0.2891 0.3484
C56_2 C 0.0690(7) 0.3717(5) 0.1268(4)
H44_2 H 0.0569 0.3535 0.0869
H45_2 H 0.1356 0.3816 0.1316
H46_2 H 0.0342 0.4195 0.1338
C57_2 C 0.0047(7) 0.1454(7) 0.0554(5)
H47_2 H 0.0653 0.1530 0.0741
H48_2 H 0.0057 0.0976 0.0325
Eu5 Eu 0.619032(14) 0.360548(13) 0.252100(18)
H16_2 H 0.0347 0.2180 0.9859
O8_2 O 0.0529(4) 0.0452(3) 0.8118(2)
Eu4 Eu 0.119032(14) 0.139452(13) 0.747900(18)
Eu2_2 Eu 0.599191(14) 0.579601(12) 0.25046(2)
C1_2 C 0.3260(5) 0.3431(4) 0.6550(3)
H1_2 H 0.3178 0.3545 0.6953
C2_2 C 0.2779(4) 0.2816(3) 0.6303(3)
C3_2 C 0.3863(5) 0.3885(4) 0.6214(3)
H2_2 H 0.4199 0.4301 0.6385
C4_2 C 0.3955(4) 0.3710(3) 0.5623(3)
C5_2 C 0.2892(6) 0.2648(5) 0.5717(3)
H3_2 H 0.2580 0.2217 0.5551
C6_2 C 0.3451(5) 0.3101(4) 0.5375(3)
C7_2 C 0.4674(5) 0.4008(4) 0.4115(3)
H4_2 H 0.4553 0.3753 0.3755
C8_2 C 0.4291(5) 0.3730(4) 0.4632(3)
C9_2 C 0.5232(4) 0.4655(3) 0.4129(3)
C10_2 C 0.3631(5) 0.3049(4) 0.4719(3)
C11_2 C 0.4487(4) 0.4082(3) 0.5159(3)
C12 C 0.5082(4) 0.4718(4) 0.5180(3)
H5 H 0.5242 0.4951 0.5543
C13_2 C 0.7573(4) 0.1331(3) 0.0107(3)
C15_2 C 0.5563(4) 0.5005(3) 0.3583(3)
C16_2 C 0.6479(5) 0.1632(4) 0.0862(3)
H6_2 H 0.5929 0.1516 0.1074
C17_2 C 0.6761(5) 0.1137(4) 0.0403(3)
H7_2 H 0.6410 0.0692 0.0301
C18_2 C 0.8080(5) 0.1995(4) 0.0237(3)
C19_2 C 0.5434(4) 0.5001(4) 0.4658(3)
H8_2 H 0.5823 0.5445 0.4663
C21_2 C 0.4087(7) 0.2285(5) 0.4541(4)
H10_2 H 0.3656 0.1860 0.4641
H11_2 H 0.4162 0.2285 0.4110
O1_2 O 0.5476(3) 0.4642(3) 0.30953(19)
O2_2 O 0.1875(4) 0.1686(3) 0.6524(2)
O3_2 O 0.5893(3) 0.5674(3) 0.3565(2)
O4_2 O 0.1975(4) 0.2571(3) 0.7197(3)
C24_2 C 0.6994(4) 0.2287(4) 0.1010(3)
C26_2 C 0.6693(5) 0.2790(4) 0.1500(3)
C28_2 C 0.2178(5) 0.2331(4) 0.6694(3)
O5_2 O 0.5907(3) 0.2668(2) 0.17381(19)
O6_2 O 0.7193(4) 0.3338(3) 0.1676(2)
C32_2 C 0.9840(5) 0.2138(5) 0.0150(4)
H17_2 H 0.9844 0.2618 0.0386
C33_2 C 0.4995(7) 0.2114(6) 0.4805(6)
H18_2 H 0.5227 0.1621 0.4654
H19_2 H 0.4928 0.2082 0.5231
H20_2 H 0.5435 0.2526 0.4706
C34_2 C 0.2192(7) 0.3902(6) 0.4439(5)
H21_2 H 0.1633 0.3897 0.4194
H22_2 H 0.2591 0.4335 0.4324
H23_2 H 0.2013 0.3960 0.4850
C35_2 C 0.7798(6) 0.2476(4) 0.0697(3)
H24_2 H 0.8147 0.2924 0.0794
C36_2 C 0.2717(6) 0.3152(5) 0.4361(3)
H25_2 H 0.2872 0.3097 0.3941
H26_2 H 0.2292 0.2723 0.4463
O10_2 O 0.7222(2) 0.46948(19) 0.2543(3)
C39_2 C 0.9115(3) 0.4256(3) 0.2511(4)
H31_2 H 0.8672 0.3879 0.2396
O12_2 O 0.4423(3) 0.6245(3) 0.2789(2)
H32_2 H 0.4458 0.6682 0.2926
O13_2 O 0.7598(3) 0.5878(2) 0.2819(2)
C44_2 C 0.8832(3) 0.4986(3) 0.2682(3)
C45_2 C 0.7833(4) 0.5204(3) 0.2687(3)
O14_2 O 0.6912(4) 0.5904(3) 0.1610(2)
H36_2 H 0.9509 0.2571 0.2688
C53_2 C 0.9488(4) 0.5546(4) 0.2853(3)
H38_2 H 0.9283 0.6048 0.2960
H40_2 H 0.9713 0.2995 0.1641
H42_2 H 0.9969 0.3283 0.3512
H49_2 H 0.9563 0.1419 0.0855
C58_2 C 0.7760(6) 0.6293(6) 0.1508(4)
H50_2 H 0.7949 0.6218 0.1100
H51_2 H 0.8241 0.6086 0.1768
H52_2 H 0.7679 0.6846 0.1585
H53_2 H 0.6785 0.5499 0.1394
H54_2 H 0.3935 0.6153 0.2535
O15_2 O 0.6875(4) 0.3314(3) 0.3476(2)
O16_2 O 0.6975(4) 0.2429(3) 0.2803(3)
O17_2 O 0.4855(4) 0.5665(3) 0.1745(2)
O18_2 O 0.5529(4) 0.4548(3) 0.1882(2)
O19_2 O 0.6152(2) 0.7101(2) 0.2494(3)
C15_3 C 0.4437(4) 0.0005(3) 0.1417(3)
C19_3 C 0.4566(4) 0.0001(4) 0.0342(3)
H8_3 H 0.4177 0.0445 0.0337
O3_3 O 0.4107(3) 0.0674(3) 0.1435(2)
O12_3 O 0.5577(3) 0.1245(3) 0.2211(2)
H32_3 H 0.5542 0.1682 0.2074
O13_3 O 0.2402(3) 0.0878(2) 0.2181(2)
C45_3 C 0.2167(4) 0.0204(3) 0.2313(3)
O14_3 O 0.3088(4) 0.0904(3) 0.3390(2)
C53_3 C 0.0512(4) 0.0546(4) 0.2147(3)
H38_3 H 0.0717 0.1048 0.2040
C58_3 C 0.2240(6) 0.1293(6) 0.3492(4)
H50_3 H 0.2051 0.1218 0.3900
H51_3 H 0.1759 0.1086 0.3232
H52_3 H 0.2321 0.1846 0.3415
H53_3 H 0.3215 0.0499 0.3606
H54_3 H 0.6065 0.1153 0.2465
C7_3 C 0.5326(5) 0.9008(4) 0.0885(3)
H4_3 H 0.5447 0.8753 0.1245
C8_3 C 0.5709(5) 0.8730(4) 0.0368(3)
C9_3 C 0.4768(4) 0.9655(3) 0.0871(3)
C10_3 C 0.6369(5) 0.8049(4) 0.0281(3)
C13_3 C 0.2427(4) 0.6331(3) 0.4893(3)
C14_2 C 0.1950(4) 0.5937(3) 0.5369(3)
C16_3 C 0.3521(5) 0.6632(4) 0.4138(3)
H6_3 H 0.4071 0.6516 0.3926
C17_3 C 0.3239(5) 0.6137(4) 0.4597(3)
H7_3 H 0.3590 0.5692 0.4699
C18_3 C 0.1920(5) 0.6995(4) 0.4763(3)
C20_2 C 0.2164(5) 0.5246(4) 0.5655(3)
H9_2 H 0.2719 0.4971 0.5568
C21_3 C 0.5913(7) 0.7285(5) 0.0459(4)
H10_3 H 0.6344 0.6860 0.0359
H11_3 H 0.5838 0.7285 0.0890
O1_3 O 0.4524(3) 0.9642(3) 0.19047(19)
C22_2 C 0.1175(5) 0.6368(4) 0.5531(3)
C23_2 C 0.0766(4) 0.5387(3) 0.6219(3)
C24_3 C 0.3006(4) 0.7287(4) 0.3990(3)
C25_2 C 0.1090(5) 0.7088(4) 0.5177(3)
C26_3 C 0.3307(5) 0.7790(4) 0.3500(3)
C27_2 C 0.0578(5) 0.6104(4) 0.5954(3)
H12_2 H 0.0050 0.6398 0.6066
C29_2 C 0.1550(4) 0.4975(4) 0.6065(3)
H13_2 H 0.1667 0.4492 0.6248
O5_3 O 0.4093(3) 0.7668(2) 0.32619(19)
O6_3 O 0.2807(4) 0.8338(3) 0.3324(2)
C30_2 C 0.0102(4) 0.5039(4) 0.6639(3)
C31_2 C 0.1213(6) 0.7800(4) 0.5555(4)
H14_2 H 0.0689 0.7826 0.5836
H15_2 H 0.1176 0.8263 0.5303
C32_3 C 0.0160(5) 0.7138(5) 0.4850(4)
H17_3 H 0.0156 0.7618 0.4614
C33_3 C 0.5005(7) 0.7114(6) 0.0195(6)
H18_3 H 0.4773 0.6621 0.0346
H20_3 H 0.4565 0.7526 0.0294
C34_3 C 0.7808(7) 0.8902(6) 0.0561(5)
H21_3 H 0.8367 0.8897 0.0806
H22_3 H 0.7409 0.9335 0.0676
H23_3 H 0.7987 0.8960 0.0150
C35_3 C 0.2202(6) 0.7476(4) 0.4303(3)
H24_3 H 0.1853 0.7924 0.4206
C36_3 C 0.7283(6) 0.8152(5) 0.0639(3)
H25_3 H 0.7128 0.8097 0.1059
H26_3 H 0.7708 0.7723 0.0537
C37_2 C 0.2124(7) 0.7828(6) 0.5897(5)
H27_2 H 0.2145 0.8302 0.6131
H28_2 H 0.2649 0.7821 0.5624
H29_2 H 0.2162 0.7378 0.6157
O10_3 O 0.2778(2) 0.96948(19) 0.2457(3)
C39_3 C 0.0885(3) 0.9256(3) 0.2489(4)
H31_3 H 0.1328 0.8879 0.2604
C44_3 C 0.1168(3) 0.9986(3) 0.2318(3)
H36_3 H 0.0491 0.7571 0.2312
H40_3 H 0.0287 0.7995 0.3359
H42_3 H 0.0031 0.8283 0.1488
H49_3 H 0.0437 0.6419 0.4145
O20_2 O 0.5222(3) 0.8072(2) 0.22633(19)
C1_3 C 0.6740(5) 0.8431(4) 0.8450(3)
H1_3 H 0.6822 0.8545 0.8047
C2_3 C 0.7221(4) 0.7816(3) 0.8697(3)
C3_3 C 0.6137(5) 0.8885(4) 0.8786(3)
H2_3 H 0.5801 0.9301 0.8615
C4_3 C 0.6045(4) 0.8710(3) 0.9377(3)
C5_3 C 0.7108(6) 0.7648(5) 0.9283(3)
H3_3 H 0.7420 0.7217 0.9449
C6_3 C 0.6549(5) 0.8101(4) 0.9625(3)
C11_3 C 0.5513(4) 0.9082(3) 0.9841(3)
C12_2 C 0.4918(4) 0.9718(4) 0.9820(3)
H5_2 H 0.4758 0.9951 0.9457
C28_3 C 0.7822(5) 0.7331(4) 0.8306(3)
H19_3 H 0.5072 0.7082 0.9769
H16_3 H 0.9653 0.7180 0.5141
C38_3 C 0.7698(3) 0.8038(3) 0.2552(4)
H30_3 H 0.7766 0.7515 0.2669
C40_3 C 0.9942(3) 0.9085(3) 0.2491(4)
C41_3 C 0.8458(3) 0.8523(3) 0.2517(4)
C42_3 C 0.6017(3) 0.7802(3) 0.2394(3)
C43_3 C 0.6826(3) 0.8337(3) 0.2409(3)
C46_3 C 0.9472(4) 0.8320(3) 0.2642(3)
C47_3 C 0.8360(4) 0.9288(3) 0.2351(3)
C48_3 C 0.6727(4) 0.9114(3) 0.2256(3)
H33_3 H 0.6126 0.9317 0.2175
C49_3 C 0.9290(4) 0.9640(3) 0.2324(3)
C51_3 C 0.7494(4) 0.9586(3) 0.2223(3)
C52_3 C 0.9821(4) 0.7658(4) 0.2237(4)
H37_3 H 0.9487 0.7177 0.2340
C54_3 C 0.9619(5) 0.8103(4) 0.3296(3)
H39_3 H 0.9272 0.7621 0.3378
C55_3 C 0.9687(6) 0.7816(5) 0.1597(4)
H41_3 H 0.9919 0.7377 0.1370
H43_3 H 0.9024 0.7891 0.1516
C56_3 C 0.9310(7) 0.8717(5) 0.3732(4)
H44_3 H 0.9431 0.8535 0.4131
H45_3 H 0.8644 0.8816 0.3684
H46_3 H 0.9658 0.9195 0.3662
C57_3 C 0.9953(7) 0.6454(7) 0.4446(5)
H47_3 H 0.9347 0.6530 0.4259
H48_3 H 0.9943 0.5976 0.4675
C14_3 C 0.3050(4) 0.4063(3) 0.0369(3)
C20_3 C 0.2836(5) 0.4754(4) 0.0655(3)
H9_3 H 0.2281 0.5029 0.0568
C22_3 C 0.3825(5) 0.3632(4) 0.0531(3)
C23_3 C 0.4234(4) 0.4613(3) 0.1219(3)
C25_3 C 0.3910(5) 0.2912(4) 0.0177(3)
C27_3 C 0.4422(5) 0.3896(4) 0.0954(3)
H12_3 H 0.4950 0.3602 0.1066
C29_3 C 0.3450(4) 0.5025(4) 0.1065(3)
H13_3 H 0.3333 0.5508 0.1248
C30_3 C 0.4898(4) 0.4961(4) 0.1639(3)
C31_3 C 0.3787(6) 0.2200(4) 0.0555(4)
H14_3 H 0.4311 0.2174 0.0836
H15_3 H 0.3824 0.1737 0.0303
H16_4 H 0.5347 0.2820 0.0141
C37_3 C 0.2876(7) 0.2172(6) 0.0897(5)
H27_3 H 0.2855 0.1698 0.1131
H28_3 H 0.2351 0.2179 0.0624
H29_3 H 0.2838 0.2622 0.1157
C9_4 C 0.0232(4) 0.0345(3) 0.5871(3)
C12_3 C 0.0082(4) 0.0282(4) 0.4820(3)
H5_3 H 0.0242 0.0049 0.4457
C13_4 C 0.2573(4) 0.3669(3) 0.9893(3)
C16_4 C 0.1479(5) 0.3368(4) 0.9138(3)
H6_4 H 0.0929 0.3484 0.8926
C17_4 C 0.1761(5) 0.3863(4) 0.9597(3)
H7_4 H 0.1410 0.4308 0.9699
C18_4 C 0.3080(5) 0.3005(4) 0.9763(3)
O1_4 O 0.0476(3) 0.0358(3) 0.69047(19)
C24_4 C 0.1994(4) 0.2713(4) 0.8990(3)
C26_4 C 0.1693(5) 0.2210(4) 0.8500(3)
O5_4 O 0.0907(3) 0.2332(2) 0.82619(19)
O6_4 O 0.2193(4) 0.1662(3) 0.8324(2)
C32_4 C 0.4840(5) 0.2862(5) 0.9850(4)
H17_4 H 0.4844 0.2382 0.9614
H18_4 H 0.0227 0.3379 0.5346
H20_4 H 0.0435 0.2474 0.5294
C35_4 C 0.2798(6) 0.2524(4) 0.9303(3)
H24_4 H 0.3147 0.2076 0.9206
O10_4 O 0.2222(2) 0.03052(19) 0.7457(3)
C38_4 C 0.7302(3) 0.1962(3) 0.7552(4)
H30_4 H 0.7234 0.2485 0.7669
O11_2 O 0.9778(3) 0.1928(2) 0.72633(19)
C39_4 C 0.4115(3) 0.0744(3) 0.7489(4)
H31_4 H 0.3672 0.1121 0.7604
C40_4 C 0.5058(3) 0.0915(3) 0.7491(4)
C41_4 C 0.6542(3) 0.1477(3) 0.7517(4)
C42_4 C 0.8983(3) 0.2198(3) 0.7394(3)
C43_4 C 0.8174(3) 0.1663(3) 0.7409(3)
C44_4 C 0.3832(3) 0.0014(3) 0.7318(3)
C46_4 C 0.5528(4) 0.1680(3) 0.7642(3)
C47_4 C 0.6640(4) 0.0712(3) 0.7351(3)
C48_4 C 0.8273(4) 0.0886(3) 0.7256(3)
H33_4 H 0.8874 0.0683 0.7175
C49_4 C 0.5710(4) 0.0360(3) 0.7324(3)
C51_4 C 0.7506(4) 0.0414(3) 0.7223(3)
C52_4 C 0.5179(4) 0.2342(4) 0.7237(4)
H36_4 H 0.4509 0.2429 0.7312
H37_4 H 0.5513 0.2823 0.7340
C54_4 C 0.5381(5) 0.1897(4) 0.8296(3)
H39_4 H 0.5728 0.2379 0.8378
H40_4 H 0.4713 0.2005 0.8359
C55_4 C 0.5313(6) 0.2184(5) 0.6597(4)
H41_4 H 0.5081 0.2623 0.6370
H42_4 H 0.4969 0.1717 0.6488
H43_4 H 0.5976 0.2109 0.6516
C56_4 C 0.5690(7) 0.1283(5) 0.8732(4)
H44_4 H 0.5569 0.1465 0.9131
H45_4 H 0.6356 0.1184 0.8684
H46_4 H 0.5342 0.0805 0.8662
C57_4 C 0.5047(7) 0.3546(7) 0.9446(5)
H47_4 H 0.5653 0.3470 0.9259
H48_4 H 0.5057 0.4024 0.9675
H49_4 H 0.4563 0.3581 0.9145
C15_4 C 0.0563(4) 0.9995(3) 0.6417(3)
C19_4 C 0.0434(4) 0.9999(4) 0.5342(3)
H8_4 H 0.0823 0.9555 0.5337
O3_4 O 0.0893(3) 0.9326(3) 0.6435(2)
O13_4 O 0.2598(3) 0.9122(2) 0.7181(2)
C45_4 C 0.2833(4) 0.9796(3) 0.7313(3)
O14_4 O 0.1912(4) 0.9096(3) 0.8390(2)
C50_3 C 0.5426(4) 0.9624(3) 0.7132(3)
H34_3 H 0.5866 0.9256 0.6997
H35_3 H 0.7571 0.9888 0.7113
C53_4 C 0.4488(4) 0.9454(4) 0.7147(3)
H38_4 H 0.4283 0.8952 0.7040
C58_4 C 0.2760(6) 0.8707(6) 0.8492(4)
H50_4 H 0.2949 0.8782 0.8900
H51_4 H 0.3241 0.8914 0.8232
H52_4 H 0.2679 0.8154 0.8415
H53_4 H 0.1785 0.9501 0.8606
C1_4 C 0.8260(5) 0.1569(4) 0.3450(3)
H1_4 H 0.8178 0.1455 0.3047
C2_4 C 0.7779(4) 0.2184(3) 0.3697(3)
C3_4 C 0.8863(5) 0.1115(4) 0.3786(3)
H2_4 H 0.9199 0.0699 0.3615
C4_4 C 0.8955(4) 0.1290(3) 0.4377(3)
C5_4 C 0.7892(6) 0.2352(5) 0.4283(3)
H3_4 H 0.7580 0.2783 0.4449
C6_4 C 0.8451(5) 0.1899(4) 0.4625(3)
C7_4 C 0.9674(5) 0.0992(4) 0.5885(3)
H4_4 H 0.9553 0.1247 0.6245
C8_4 C 0.9291(5) 0.1270(4) 0.5368(3)
C10_4 C 0.8631(5) 0.1951(4) 0.5281(3)
C11_4 C 0.9487(4) 0.0918(3) 0.4841(3)
C21_4 C 0.9087(7) 0.2715(5) 0.5459(4)
H10_4 H 0.8656 0.3140 0.5359
H11_4 H 0.9162 0.2715 0.5890
C28_4 C 0.7178(5) 0.2669(4) 0.3306(3)
C33_4 C 0.9995(7) 0.2886(6) 0.5195(6)
H19_4 H 0.9928 0.2918 0.4769
C34_4 C 0.7192(7) 0.1098(6) 0.5561(5)
H21_4 H 0.6633 0.1103 0.5806
H22_4 H 0.7591 0.0665 0.5676
H23_4 H 0.7013 0.1040 0.5150
C36_4 C 0.7717(6) 0.1848(5) 0.5639(3)
H25_4 H 0.7872 0.1903 0.6059
H26_4 H 0.7292 0.2277 0.5537
C12_4 C 0.9918(4) 0.5282(4) 0.0180(3)
H5_4 H 0.9758 0.5049 0.0543
C14_4 C 0.8050(4) 0.0937(3) 0.9631(3)
C20_4 C 0.7836(5) 0.0246(4) 0.9345(3)
C22_4 C 0.8825(5) 0.1368(4) 0.9469(3)
C23_4 C 0.9234(4) 0.0387(3) 0.8781(3)
C25_4 C 0.8910(5) 0.2088(4) 0.9823(3)
C27_4 C 0.9422(5) 0.1104(4) 0.9046(3)
H12_4 H 0.9950 0.1398 0.8934
C30_4 C 0.9898(4) 0.0039(4) 0.8361(3)
C31_4 C 0.8787(6) 0.2800(4) 0.9445(4)
H14_4 H 0.9311 0.2826 0.9164
H15_4 H 0.8824 0.3263 0.9697
C37_4 C 0.7876(7) 0.2828(6) 0.9103(5)
H27_4 H 0.7855 0.3302 0.8869
H28_4 H 0.7351 0.2821 0.9376
H29_4 H 0.7838 0.2378 0.8843
H9_4 H 0.7281 0.9971 0.9432
C29_4 C 0.8450(4) 0.9975(4) 0.8935(3)
H13_4 H 0.8333 0.9492 0.8752
O7_2 O 0.9855(4) 0.9335(3) 0.8255(2)
O12_4 O 0.9423(3) 0.8755(3) 0.7211(2)
H32_4 H 0.9458 0.8318 0.7074
H54_4 H 0.8935 0.8847 0.7465
C50_4 C 0.9574(4) 0.0376(3) 0.2132(3)
H34_4 H 0.9134 0.0744 0.1997
H35_4 H 0.7429 0.0112 0.2113
loop_
_geom_bond_atom_site_label_1
_geom_bond_atom_site_label_2
_geom_bond_site_symmetry_1
_geom_bond_site_symmetry_2
C1 H1 1_555 1_555
C2 C1 1_555 1_555
C3 C1 1_555 1_555
H2 C3 1_555 1_555
C4 C3 1_555 1_555
C5 C2 1_555 1_555
H3 C5 1_555 1_555
C6 C4 1_555 1_555
C11 C4 1_555 1_555
O2 C28 1_555 1_555
O4 C28 1_555 1_555
C28 C2 1_555 1_555
Eu3 O2 1_555 1_555
C5 C6 1_555 1_555
O4 Eu3 1_555 1_555
C7 H4 1_555 1_555
C8 C7 1_555 1_555
C21 C10 1_555 1_555
H10 C21 1_555 1_555
H11 C21 1_555 1_555
C33 C21 1_555 1_555
C34 H21 1_555 1_555
H22 C34 1_555 1_555
H23 C34 1_555 1_555
C36 C10 1_555 1_555
H25 C36 1_555 1_555
H26 C36 1_555 1_555
H32 O12 1_555 1_555
H54 O12 1_555 1_555
C8 C10 1_555 1_555
C34 C36 1_555 1_555
H13 C29 1_555 1_555
Eu6 O7 1_555 1_555
Eu1 O1 1_555 1_555
Eu2 O1 1_555 1_555
C13 C14 1_555 1_555
C14 C20 1_555 1_555
C15 C9 1_555 1_555
C16 H6 1_555 1_555
C17 C13 1_555 1_555
H7 C17 1_555 1_555
C18 C13 1_555 1_555
C19 C9 1_555 1_555
H8 C19 1_555 1_555
O1 C15 1_555 1_555
C22 C14 1_555 1_555
O3 Eu2 1_555 1_555
C23 C27 1_555 1_555
C24 C16 1_555 1_555
C25 C18 1_555 1_555
C26 C24 1_555 1_555
C27 C22 1_555 1_555
H12 C27 1_555 1_555
O5 Eu1 1_555 1_555
O6 Eu1 1_555 1_555
C30 C23 1_555 1_555
C31 C25 1_555 1_555
H14 C31 1_555 1_555
H15 C31 1_555 1_555
C32 C25 1_555 1_555
H16 C32 1_555 1_555
H17 C32 1_555 1_555
O8 C30 1_555 1_555
O9 C42 1_555 1_555
C35 C18 1_555 1_555
H24 C35 1_555 1_555
C37 C31 1_555 1_555
H27 C37 1_555 1_555
H28 C37 1_555 1_555
H29 C37 1_555 1_555
O10 Eu1 1_555 1_555
C38 H30 1_555 1_555
O20 C42 1_555 1_555
C39 H31 1_555 1_555
C40 C39 1_555 1_555
C41 C38 1_555 1_555
O13 Eu2 1_555 1_555
C42 C43 1_555 1_555
C43 C38 1_555 1_555
C44 C39 1_555 1_555
C45 O10 1_555 1_555
C46 C40 1_555 1_555
O14 Eu2 1_555 1_555
C47 C41 1_555 1_555
C48 C43 1_555 1_555
H33 C48 1_555 1_555
C49 C40 1_555 1_555
C50 C49 1_555 1_555
H34 C50 1_555 1_555
C51 C47 1_555 1_555
H35 C51 1_555 1_555
C52 C46 1_555 1_555
H36 C52 1_555 1_555
H37 C52 1_555 1_555
C53 C44 1_555 1_555
H38 C53 1_555 1_555
C54 C46 1_555 1_555
H39 C54 1_555 1_555
H40 C54 1_555 1_555
C55 C52 1_555 1_555
H41 C55 1_555 1_555
H42 C55 1_555 1_555
H43 C55 1_555 1_555
C56 C54 1_555 1_555
H44 C56 1_555 1_555
H45 C56 1_555 1_555
H46 C56 1_555 1_555
C57 C32 1_555 1_555
H47 C57 1_555 1_555
H48 C57 1_555 1_555
H49 C57 1_555 1_555
C58 O14 1_555 1_555
H50 C58 1_555 1_555
H51 C58 1_555 1_555
H52 C58 1_555 1_555
H53 O14 1_555 1_555
Eu3 O8 1_555 1_555
Eu7 O9 1_555 1_555
O15 Eu1 1_555 1_555
O16 Eu1 1_555 1_555
O18 Eu1 1_555 1_555
O19 Eu2 1_555 1_555
Eu2 O10 1_555 1_555
Eu2 O18 1_555 1_555
C15 O3 1_555 1_555
C16 C17 1_555 1_555
C22 C25 1_555 1_555
C24 C35 1_555 1_555
C26 O5 1_555 1_555
C26 O6 1_555 1_555
C41 C46 1_555 1_555
O13 C45 1_555 1_555
C44 C45 1_555 1_555
C47 C49 1_555 1_555
C48 C51 1_555 1_555
C50 C53 1_555 1_555
O9_2 C42_2 1_555 1_555
C38_2 H30_2 1_555 1_555
O11 C42_2 1_555 1_555
C41_2 C38_2 1_555 1_555
C42_2 C43_2 1_555 1_555
C43_2 C38_2 1_555 1_555
C46_2 C40_2 1_555 1_555
C47_2 C41_2 1_555 1_555
C48_2 C43_2 1_555 1_555
H33_2 C48_2 1_555 1_555
C49_2 C40_2 1_555 1_555
C50_2 C49_2 1_555 1_555
H34_2 C50_2 1_555 1_555
C51_2 C47_2 1_555 1_555
H35_2 C51_2 1_555 1_555
C52_2 C46_2 1_555 1_555
H37_2 C52_2 1_555 1_555
C54_2 C46_2 1_555 1_555
H39_2 C54_2 1_555 1_555
C55_2 C52_2 1_555 1_555
H41_2 C55_2 1_555 1_555
H43_2 C55_2 1_555 1_555
C56_2 C54_2 1_555 1_555
H44_2 C56_2 1_555 1_555
H45_2 C56_2 1_555 1_555
H46_2 C56_2 1_555 1_555
H47_2 C57_2 1_555 1_555
H48_2 C57_2 1_555 1_555
Eu5 O11 1_555 1_555
Eu6 O9_2 1_555 1_555
C41_2 C46_2 1_555 1_555
C47_2 C49_2 1_555 1_555
C48_2 C51_2 1_555 1_555
Eu4 O8_2 1_555 1_555
Eu5 O1_2 1_555 1_555
Eu2_2 O1_2 1_555 1_555
C1_2 H1_2 1_555 1_555
C2_2 C1_2 1_555 1_555
C3_2 C1_2 1_555 1_555
H2_2 C3_2 1_555 1_555
C4_2 C3_2 1_555 1_555
C5_2 C2_2 1_555 1_555
H3_2 C5_2 1_555 1_555
C6_2 C4_2 1_555 1_555
C7_2 H4_2 1_555 1_555
C8_2 C7_2 1_555 1_555
C9_2 C7_2 1_555 1_555
C10_2 C6_2 1_555 1_555
C11_2 C4_2 1_555 1_555
C12 C11_2 1_555 1_555
H5 C12 1_555 1_555
C15_2 C9_2 1_555 1_555
C16_2 H6_2 1_555 1_555
C17_2 C13_2 1_555 1_555
H7_2 C17_2 1_555 1_555
C18_2 C13_2 1_555 1_555
C19_2 C9_2 1_555 1_555
H8_2 C19_2 1_555 1_555
C21_2 C10_2 1_555 1_555
H10_2 C21_2 1_555 1_555
H11_2 C21_2 1_555 1_555
O1_2 C15_2 1_555 1_555
O2_2 C28_2 1_555 1_555
O3_2 Eu2_2 1_555 1_555
O4_2 C28_2 1_555 1_555
C24_2 C16_2 1_555 1_555
C26_2 C24_2 1_555 1_555
C28_2 C2_2 1_555 1_555
O5_2 Eu5 1_555 1_555
O6_2 Eu5 1_555 1_555
H17_2 C32_2 1_555 1_555
C33_2 C21_2 1_555 1_555
H18_2 C33_2 1_555 1_555
H19_2 C33_2 1_555 1_555
H20_2 C33_2 1_555 1_555
C34_2 H21_2 1_555 1_555
H22_2 C34_2 1_555 1_555
H23_2 C34_2 1_555 1_555
C35_2 C18_2 1_555 1_555
H24_2 C35_2 1_555 1_555
C36_2 C10_2 1_555 1_555
H25_2 C36_2 1_555 1_555
H26_2 C36_2 1_555 1_555
O10_2 Eu5 1_555 1_555
C39_2 H31_2 1_555 1_555
O12_2 Eu2_2 1_555 1_555
H32_2 O12_2 1_555 1_555
O13_2 Eu2_2 1_555 1_555
C44_2 C39_2 1_555 1_555
C45_2 O10_2 1_555 1_555
O14_2 Eu2_2 1_555 1_555
C53_2 C44_2 1_555 1_555
H38_2 C53_2 1_555 1_555
C58_2 O14_2 1_555 1_555
H50_2 C58_2 1_555 1_555
H51_2 C58_2 1_555 1_555
H52_2 C58_2 1_555 1_555
H53_2 O14_2 1_555 1_555
H54_2 O12_2 1_555 1_555
Eu4 O2_2 1_555 1_555
O15_2 Eu5 1_555 1_555
O16_2 Eu5 1_555 1_555
O17_2 Eu2_2 1_555 1_555
O18_2 Eu5 1_555 1_555
O19_2 Eu2_2 1_555 1_555
Eu2_2 O10_2 1_555 1_555
Eu2_2 O18_2 1_555 1_555
C5_2 C6_2 1_555 1_555
C8_2 C10_2 1_555 1_555
C8_2 C11_2 1_555 1_555
C12 C19_2 1_555 1_555
C15_2 O3_2 1_555 1_555
C16_2 C17_2 1_555 1_555
O4_2 Eu4 1_555 1_555
C24_2 C35_2 1_555 1_555
C26_2 O5_2 1_555 1_555
C26_2 O6_2 1_555 1_555
C34_2 C36_2 1_555 1_555
O13_2 C45_2 1_555 1_555
C44_2 C45_2 1_555 1_555
H8_3 C19_3 1_555 1_555
O3_3 Eu6 1_555 1_555
O12_3 Eu6 1_555 1_555
H32_3 O12_3 1_555 1_555
O13_3 Eu6 1_555 1_555
O14_3 Eu6 1_555 1_555
H38_3 C53_3 1_555 1_555
C58_3 O14_3 1_555 1_555
H50_3 C58_3 1_555 1_555
H51_3 C58_3 1_555 1_555
H52_3 C58_3 1_555 1_555
H53_3 O14_3 1_555 1_555
H54_3 O12_3 1_555 1_555
C15_3 O3_3 1_555 1_555
O13_3 C45_3 1_555 1_555
Eu3 O1_3 1_555 1_555
C7_3 H4_3 1_555 1_555
C8_3 C7_3 1_555 1_555
C9_3 C7_3 1_555 1_555
C13_3 C14_2 1_555 1_555
C14_2 C20_2 1_555 1_555
C16_3 H6_3 1_555 1_555
C17_3 C13_3 1_555 1_555
H7_3 C17_3 1_555 1_555
C18_3 C13_3 1_555 1_555
C20_2 H9_2 1_555 1_555
C21_3 C10_3 1_555 1_555
H10_3 C21_3 1_555 1_555
H11_3 C21_3 1_555 1_555
C22_2 C14_2 1_555 1_555
C23_2 C27_2 1_555 1_555
C24_3 C16_3 1_555 1_555
C25_2 C18_3 1_555 1_555
C26_3 C24_3 1_555 1_555
C27_2 C22_2 1_555 1_555
H12_2 C27_2 1_555 1_555
C29_2 C20_2 1_555 1_555
H13_2 C29_2 1_555 1_555
O5_3 Eu3 1_555 1_555
O6_3 Eu3 1_555 1_555
O17 C30_2 1_555 1_555
C30_2 C23_2 1_555 1_555
C31_2 C25_2 1_555 1_555
H14_2 C31_2 1_555 1_555
H15_2 C31_2 1_555 1_555
C32_3 C25_2 1_555 1_555
H17_3 C32_3 1_555 1_555
C33_3 C21_3 1_555 1_555
H18_3 C33_3 1_555 1_555
H20_3 C33_3 1_555 1_555
C34_3 H21_3 1_555 1_555
H22_3 C34_3 1_555 1_555
H23_3 C34_3 1_555 1_555
C35_3 C18_3 1_555 1_555
H24_3 C35_3 1_555 1_555
C36_3 C10_3 1_555 1_555
H25_3 C36_3 1_555 1_555
H26_3 C36_3 1_555 1_555
C37_2 C31_2 1_555 1_555
H27_2 C37_2 1_555 1_555
H28_2 C37_2 1_555 1_555
H29_2 C37_2 1_555 1_555
O10_3 Eu3 1_555 1_555
C39_3 H31_3 1_555 1_555
C44_3 C39_3 1_555 1_555
O20_2 Eu3 1_555 1_555
C8_3 C10_3 1_555 1_555
C16_3 C17_3 1_555 1_555
C22_2 C25_2 1_555 1_555
C23_2 C29_2 1_555 1_555
C24_3 C35_3 1_555 1_555
C26_3 O5_3 1_555 1_555
C26_3 O6_3 1_555 1_555
C34_3 C36_3 1_555 1_555
C1_3 H1_3 1_555 1_555
C2_3 C1_3 1_555 1_555
C3_3 C1_3 1_555 1_555
H2_3 C3_3 1_555 1_555
C4_3 C3_3 1_555 1_555
C5_3 C2_3 1_555 1_555
H3_3 C5_3 1_555 1_555
C6_3 C4_3 1_555 1_555
C11_3 C4_3 1_555 1_555
C12_2 C11_3 1_555 1_555
H5_2 C12_2 1_555 1_555
O15 C28_3 1_555 1_555
O16 C28_3 1_555 1_555
C28_3 C2_3 1_555 1_555
C5_3 C6_3 1_555 1_555
O19_2 C42_3 1_555 1_555
C38_3 H30_3 1_555 1_555
O20_2 C42_3 1_555 1_555
C41_3 C38_3 1_555 1_555
C42_3 C43_3 1_555 1_555
C43_3 C38_3 1_555 1_555
C46_3 C40_3 1_555 1_555
C47_3 C41_3 1_555 1_555
C48_3 C43_3 1_555 1_555
H33_3 C48_3 1_555 1_555
C49_3 C40_3 1_555 1_555
C51_3 C47_3 1_555 1_555
C52_3 C46_3 1_555 1_555
H37_3 C52_3 1_555 1_555
C54_3 C46_3 1_555 1_555
H39_3 C54_3 1_555 1_555
C55_3 C52_3 1_555 1_555
H41_3 C55_3 1_555 1_555
H43_3 C55_3 1_555 1_555
C56_3 C54_3 1_555 1_555
H44_3 C56_3 1_555 1_555
H45_3 C56_3 1_555 1_555
H46_3 C56_3 1_555 1_555
H47_3 C57_3 1_555 1_555
H48_3 C57_3 1_555 1_555
C41_3 C46_3 1_555 1_555
C47_3 C49_3 1_555 1_555
C48_3 C51_3 1_555 1_555
C14_3 C20_3 1_555 1_555
C20_3 H9_3 1_555 1_555
C22_3 C14_3 1_555 1_555
C23_3 C27_3 1_555 1_555
C27_3 C22_3 1_555 1_555
H12_3 C27_3 1_555 1_555
C29_3 C20_3 1_555 1_555
H13_3 C29_3 1_555 1_555
O17_2 C30_3 1_555 1_555
C30_3 C23_3 1_555 1_555
C31_3 C25_3 1_555 1_555
H14_3 C31_3 1_555 1_555
H15_3 C31_3 1_555 1_555
O18_2 C30_3 1_555 1_555
C37_3 C31_3 1_555 1_555
H27_3 C37_3 1_555 1_555
H28_3 C37_3 1_555 1_555
H29_3 C37_3 1_555 1_555
C22_3 C25_3 1_555 1_555
C23_3 C29_3 1_555 1_555
Eu4 O1_4 1_555 1_555
H5_3 C12_3 1_555 1_555
C16_4 H6_4 1_555 1_555
C17_4 C13_4 1_555 1_555
H7_4 C17_4 1_555 1_555
C18_4 C13_4 1_555 1_555
C24_4 C16_4 1_555 1_555
C26_4 C24_4 1_555 1_555
O5_4 Eu4 1_555 1_555
O6_4 Eu4 1_555 1_555
H17_4 C32_4 1_555 1_555
O19 C42_4 1_555 1_555
C35_4 C18_4 1_555 1_555
H24_4 C35_4 1_555 1_555
O10_4 Eu4 1_555 1_555
C38_4 H30_4 1_555 1_555
O11_2 C42_4 1_555 1_555
C39_4 H31_4 1_555 1_555
C40_4 C39_4 1_555 1_555
C41_4 C38_4 1_555 1_555
C42_4 C43_4 1_555 1_555
C43_4 C38_4 1_555 1_555
C44_4 C39_4 1_555 1_555
C46_4 C40_4 1_555 1_555
C47_4 C41_4 1_555 1_555
C48_4 C43_4 1_555 1_555
H33_4 C48_4 1_555 1_555
C49_4 C40_4 1_555 1_555
C51_4 C47_4 1_555 1_555
C52_4 C46_4 1_555 1_555
H36_4 C52_4 1_555 1_555
H37_4 C52_4 1_555 1_555
C54_4 C46_4 1_555 1_555
H39_4 C54_4 1_555 1_555
H40_4 C54_4 1_555 1_555
C55_4 C52_4 1_555 1_555
H41_4 C55_4 1_555 1_555
H42_4 C55_4 1_555 1_555
H43_4 C55_4 1_555 1_555
C56_4 C54_4 1_555 1_555
H44_4 C56_4 1_555 1_555
H45_4 C56_4 1_555 1_555
H46_4 C56_4 1_555 1_555
C57_4 C32_4 1_555 1_555
H47_4 C57_4 1_555 1_555
H48_4 C57_4 1_555 1_555
H49_4 C57_4 1_555 1_555
C16_4 C17_4 1_555 1_555
C24_4 C35_4 1_555 1_555
C26_4 O5_4 1_555 1_555
C26_4 O6_4 1_555 1_555
C41_4 C46_4 1_555 1_555
C47_4 C49_4 1_555 1_555
C48_4 C51_4 1_555 1_555
H8_4 C19_4 1_555 1_555
O3_4 Eu7 1_555 1_555
O13_4 Eu7 1_555 1_555
O14_4 Eu7 1_555 1_555
H34_3 C50_3 1_555 1_555
H38_4 C53_4 1_555 1_555
C58_4 O14_4 1_555 1_555
H50_4 C58_4 1_555 1_555
H51_4 C58_4 1_555 1_555
H52_4 C58_4 1_555 1_555
H53_4 O14_4 1_555 1_555
C15_4 O3_4 1_555 1_555
O13_4 C45_4 1_555 1_555
C50_3 C53_4 1_555 1_555
C1_4 H1_4 1_555 1_555
C2_4 C1_4 1_555 1_555
C3_4 C1_4 1_555 1_555
H2_4 C3_4 1_555 1_555
C4_4 C3_4 1_555 1_555
C5_4 C2_4 1_555 1_555
H3_4 C5_4 1_555 1_555
C6_4 C4_4 1_555 1_555
C7_4 H4_4 1_555 1_555
C8_4 C7_4 1_555 1_555
C10_4 C6_4 1_555 1_555
C11_4 C4_4 1_555 1_555
C21_4 C10_4 1_555 1_555
H10_4 C21_4 1_555 1_555
H11_4 C21_4 1_555 1_555
O15_2 C28_4 1_555 1_555
O16_2 C28_4 1_555 1_555
C28_4 C2_4 1_555 1_555
C33_4 C21_4 1_555 1_555
H19_4 C33_4 1_555 1_555
C34_4 H21_4 1_555 1_555
H22_4 C34_4 1_555 1_555
H23_4 C34_4 1_555 1_555
C36_4 C10_4 1_555 1_555
H25_4 C36_4 1_555 1_555
H26_4 C36_4 1_555 1_555
C5_4 C6_4 1_555 1_555
C8_4 C10_4 1_555 1_555
C8_4 C11_4 1_555 1_555
C34_4 C36_4 1_555 1_555
H5_4 C12_4 1_555 1_555
C14_4 C20_4 1_555 1_555
C22_4 C14_4 1_555 1_555
C23_4 C27_4 1_555 1_555
C27_4 C22_4 1_555 1_555
H12_4 C27_4 1_555 1_555
C30_4 C23_4 1_555 1_555
C31_4 C25_4 1_555 1_555
H14_4 C31_4 1_555 1_555
H15_4 C31_4 1_555 1_555
C37_4 C31_4 1_555 1_555
H27_4 C37_4 1_555 1_555
H28_4 C37_4 1_555 1_555
H29_4 C37_4 1_555 1_555
C22_4 C25_4 1_555 1_555
H13_4 C29_4 1_555 1_555
H32_4 O12_4 1_555 1_555
H54_4 O12_4 1_555 1_555
H34_4 C50_4 1_555 1_555

#END
