
###############################################################################
#
# This file contains modified crystal structure data generated from the
# MOF subset of the Cambridge Structural Database (CSD) v543 
# hosted by the Cambridge Crystallographic Data Centre (CCDC).
#
# This work is licensed under the Creative Commons
# Attribution-NonCommercial-ShareAlike 4.0 International License.
# To view a copy of this license, visit
# http://creativecommons.org/licenses/by-nc-sa/4.0/
# or send a letter to
# Creative Commons, PO Box 1866, Mountain View, CA 94042, USA.
#
# CIF created using the CSD Python API on 29 September 2022
# The structure has been converted into the P1 space group
# The structure has a 3D framework
# The original CSD entry EHEZEX is in the monoclinic crystal system
# The framework has been calculated to contain at least 10.0% void space
# The void calculation uses a probe of radius 1.32A, grid spacing 0.4
#
###############################################################################

data_EHEZEX
_chemical_formula_moiety         '(C168 H120 Co22 N96 O42)n'
_symmetry_cell_setting           triclinic
_symmetry_space_group_name_H-M   'P 1'
_symmetry_Int_Tables_number      1
_space_group_name_Hall           'P 1'
loop_
_symmetry_equiv_pos_site_id
_symmetry_equiv_pos_as_xyz
1 x,y,z
_cell_length_a                   24.510(2)
_cell_length_b                   13.6628(13)
_cell_length_c                   19.2256(19)
_cell_angle_alpha                90
_cell_angle_beta                 117.171(2)
_cell_angle_gamma                90
_cell_volume                     5727.71
loop_
_atom_site_label
_atom_site_type_symbol
_atom_site_fract_x
_atom_site_fract_y
_atom_site_fract_z
Co3 Co 0.14744(2) 0.19410(4) 0.23814(3)
N7 N 0.13297(15) 0.0855(2) 0.29163(19)
N8 N 0.06805(15) 0.1566(2) 0.15634(19)
C10 C 0.04615(18) 0.0762(3) 0.1729(2)
C12 C 0.0299(2) 0.1795(3) 0.0792(3)
H9 H 0.0341 0.2329 0.0520
C13 C 0.08030(17) 0.0374(3) 0.2503(2)
C15 C 0.16041(19) 0.0394(3) 0.3624(2)
H11 H 0.1977 0.0561 0.4044
Co6 Co 0.40853(2) 0.10094(4) 0.38338(3)
Co7 Co 0.09147(2) 0.60094(4) 0.11662(3)
N13 N 0.32867(14) 0.1731(2) 0.36799(19)
N15 N 0.27439(17) 0.0775(3) 0.1922(2)
H16 H 0.3130 0.0725 0.2066
N16 N 0.22930(14) 0.2126(2) 0.32015(18)
N18 N 0.18860(16) 0.1132(2) 0.19398(19)
N21 N 0.00368(18) 0.0465(3) 0.3904(2)
N24 N 0.15390(15) 0.3052(2) 0.18154(19)
N26 N 0.11154(15) 0.2887(3) 0.27844(19)
N28 N 0.13621(14) 0.4645(2) 0.15261(19)
N30 N 0.08197(18) 0.4398(3) 0.2805(2)
H18 H 0.0752 0.5012 0.2706
C25 C 0.27283(17) 0.1664(3) 0.3081(2)
C26 C 0.3200(2) 0.2292(3) 0.4214(3)
H19 H 0.3508 0.2481 0.4700
C27 C 0.2598(2) 0.2528(3) 0.3926(2)
H20 H 0.2425 0.2900 0.4180
C28 C 0.24923(18) 0.1172(3) 0.2339(2)
C29 C 0.2280(2) 0.0458(4) 0.1223(3)
H21 H 0.2324 0.0146 0.0821
C30 C 0.1748(2) 0.0689(4) 0.1237(3)
H22 H 0.1356 0.0569 0.0838
C32 C 0.0142(2) 0.1111(4) 0.4497(3)
H23 H 0.0459 0.1081 0.5004
C37 C 0.10707(18) 0.3784(3) 0.2488(2)
C38 C 0.0873(2) 0.2938(4) 0.3307(3)
H27 H 0.0842 0.2419 0.3600
C39 C 0.0690(3) 0.3866(4) 0.3320(3)
H28 H 0.0510 0.4102 0.3621
C40 C 0.13098(17) 0.3895(3) 0.1932(2)
C41 C 0.1766(2) 0.3283(3) 0.1307(3)
H29 H 0.1957 0.2856 0.1110
C42 C 0.1661(2) 0.4246(3) 0.1142(3)
H30 H 0.1776 0.4590 0.0812
Co2 Co -0.0000 0.86275(5) 0.2500
O1 O 0.00766(12) 0.5274(2) 0.09254(15)
O3 O 0.09806(12) 0.63564(19) 0.22641(14)
O4 O 0.04202(13) 0.7350(2) 0.09062(14)
O5 O 0.06568(14) 0.7468(2) 0.28301(15)
O6 O 0.00255(13) 0.83995(19) 0.14450(15)
N1 N 0.17133(14) 0.6731(2) 0.13201(19)
N2 N 0.22561(17) 0.5775(3) 0.3078(2)
H1 H 0.1870 0.5725 0.2934
N3 N 0.27070(14) 0.7126(2) 0.17985(18)
N4 N 0.31140(16) 0.6132(2) 0.30602(19)
N5 N 0.07150(14) 0.9637(2) 0.28911(19)
C2 C 0.06919(17) 0.7125(3) 0.2257(2)
C3 C 0.03499(17) 0.7671(3) 0.1459(2)
C4 C 0.22717(17) 0.6664(3) 0.1919(2)
C5 C 0.1800(2) 0.7292(3) 0.0786(3)
H4 H 0.1492 0.7481 0.0300
C6 C 0.2402(2) 0.7528(3) 0.1074(2)
H5 H 0.2575 0.7900 0.0820
C7 C 0.25077(18) 0.6172(3) 0.2661(2)
C8 C 0.2720(2) 0.5458(4) 0.3777(3)
H6 H 0.2676 0.5146 0.4179
C9 C 0.3252(2) 0.5689(4) 0.3763(3)
H7 H 0.3644 0.5569 0.4162
C14 C 0.12299(19) 0.9646(3) 0.3601(2)
H10 H 0.1311 0.9206 0.4005
Co9 Co 0.35256(2) 0.69410(4) 0.26186(3)
H17 H 0.0254 0.9957 0.3934
O9 O 0.06031(13) 0.5673(2) 0.99958(15)
C22 C 0.01504(17) 0.5112(3) 0.9727(2)
N6 N 0.99632(18) 0.0465(3) 0.1096(2)
C11 C 0.9858(2) 0.1111(4) 0.0503(3)
Co8 Co 0.85256(2) 0.19410(4) 0.26186(3)
N17 N 0.77070(14) 0.2126(2) 0.17985(18)
N19 N 0.81140(16) 0.1132(2) 0.30602(19)
N22 N 0.86703(15) 0.0855(2) 0.20837(19)
N23 N 0.93195(15) 0.1566(2) 0.34366(19)
N25 N 0.84610(15) 0.3052(2) 0.31846(19)
N27 N 0.88846(15) 0.2887(3) 0.22156(19)
C31 C 0.95385(18) 0.0762(3) 0.3271(2)
C33 C 0.9701(2) 0.1795(3) 0.4208(3)
H24 H 0.9659 0.2329 0.4480
C34 C 0.91970(17) 0.0374(3) 0.2497(2)
C36 C 0.83959(19) 0.0394(3) 0.1376(2)
H26 H 0.8023 0.0561 0.0956
Co2_2 Co 1.0000 0.86275(5) 0.2500
O2 O 0.93969(13) 0.4327(2) 0.00042(15)
H2 H 0.9746 0.9957 0.1066
C1 C 0.98496(17) 0.4888(3) 0.0273(2)
Co4 Co 0.90853(2) 0.60094(4) 0.38338(3)
O8 O 0.99234(12) 0.5274(2) 0.40746(15)
O10 O 0.93969(13) 0.5673(2) 0.50042(15)
O11 O 0.90194(12) 0.63564(19) 0.27359(14)
O12 O 0.95798(13) 0.7350(2) 0.40938(14)
O13 O 0.93432(14) 0.7468(2) 0.21699(15)
O14 O 0.99745(13) 0.83995(19) 0.35550(15)
N14 N 0.82867(14) 0.6731(2) 0.36799(19)
N20 N 0.92850(14) 0.9637(2) 0.21089(19)
N29 N 0.86379(14) 0.4645(2) 0.34739(19)
C23 C 0.93081(17) 0.7125(3) 0.2743(2)
C24 C 0.96501(17) 0.7671(3) 0.3541(2)
C35 C 0.87701(19) 0.9646(3) 0.1399(2)
H25 H 0.8689 0.9206 0.0995
Co5 Co 0.90853(2) 0.39906(4) 0.88338(3)
O7 O 0.99234(12) 0.4726(2) 0.90746(15)
O2_2 O 0.06031(13) 0.4327(2) 0.49958(15)
C1_2 C 0.01504(17) 0.4888(3) 0.4727(2)
Co5_2 Co 0.09147(2) 0.39906(4) 0.61662(3)
O7_2 O 0.00766(12) 0.4726(2) 0.59254(15)
Co6_2 Co 0.59147(2) 0.10094(4) 0.11662(3)
N13_2 N 0.67133(14) 0.1731(2) 0.13201(19)
N15_2 N 0.72561(17) 0.0775(3) 0.3078(2)
H16_2 H 0.6870 0.0725 0.2934
N30_2 N 0.91803(18) 0.4398(3) 0.2195(2)
H18_2 H 0.9248 0.5012 0.2294
C25_2 C 0.72717(17) 0.1664(3) 0.1919(2)
C26_2 C 0.6800(2) 0.2292(3) 0.0786(3)
H19_2 H 0.6492 0.2481 0.0300
C27_2 C 0.7402(2) 0.2528(3) 0.1074(2)
H20_2 H 0.7575 0.2900 0.0820
C28_2 C 0.75077(18) 0.1172(3) 0.2661(2)
C29_2 C 0.7720(2) 0.0458(4) 0.3777(3)
H21_2 H 0.7676 0.0146 0.4179
C30_2 C 0.8252(2) 0.0689(4) 0.3763(3)
H22_2 H 0.8644 0.0569 0.4162
C37_2 C 0.89293(18) 0.3784(3) 0.2512(2)
C38_2 C 0.9127(2) 0.2938(4) 0.1693(3)
H27_2 H 0.9158 0.2419 0.1400
C39_2 C 0.9310(3) 0.3866(4) 0.1680(3)
H28_2 H 0.9490 0.4102 0.1379
C40_2 C 0.86902(17) 0.3895(3) 0.3068(2)
C41_2 C 0.8234(2) 0.3283(3) 0.3693(3)
H29_2 H 0.8043 0.2856 0.3890
C42_2 C 0.8339(2) 0.4246(3) 0.3858(3)
H30_2 H 0.8224 0.4590 0.4188
N2_2 N 0.77439(17) 0.5775(3) 0.1922(2)
H1_2 H 0.8130 0.5725 0.2066
N3_2 N 0.72930(14) 0.7126(2) 0.32015(18)
N4_2 N 0.68860(16) 0.6132(2) 0.19398(19)
C4_2 C 0.77283(17) 0.6664(3) 0.3081(2)
C5_2 C 0.8200(2) 0.7292(3) 0.4214(3)
H4_2 H 0.8508 0.7481 0.4700
C6_2 C 0.7598(2) 0.7528(3) 0.3926(2)
H5_2 H 0.7425 0.7900 0.4180
C7_2 C 0.74923(18) 0.6172(3) 0.2339(2)
C8_2 C 0.7280(2) 0.5458(4) 0.1223(3)
H6_2 H 0.7324 0.5146 0.0821
C9_2 C 0.6748(2) 0.5689(4) 0.1237(3)
H7_2 H 0.6356 0.5569 0.0838
Co9_2 Co 0.64744(2) 0.69410(4) 0.23814(3)
C22_2 C 0.98496(17) 0.5112(3) 0.5273(2)
H18_3 H 0.5752 0.0012 0.2706
Co2_3 Co 0.5000 0.36275(5) 0.2500
O1_2 O 0.50766(12) 0.0274(2) 0.09254(15)
O3_2 O 0.59806(12) 0.13564(19) 0.22641(14)
O4_2 O 0.54202(13) 0.2350(2) 0.09062(14)
O5_2 O 0.56568(14) 0.2468(2) 0.28301(15)
O6_2 O 0.50255(13) 0.33995(19) 0.14450(15)
N5_2 N 0.57150(14) 0.4637(2) 0.28911(19)
N6_2 N 0.49632(18) 0.5465(3) 0.1096(2)
H2_2 H 0.4746 0.4957 0.1066
N7_2 N 0.63297(15) 0.5855(2) 0.29163(19)
N8_2 N 0.56805(15) 0.6566(2) 0.15634(19)
C2_2 C 0.56919(17) 0.2125(3) 0.2257(2)
C3_2 C 0.53499(17) 0.2671(3) 0.1459(2)
C10_2 C 0.54615(18) 0.5762(3) 0.1729(2)
C11_2 C 0.4858(2) 0.6111(4) 0.0503(3)
C12_2 C 0.5299(2) 0.6795(3) 0.0792(3)
H9_2 H 0.5341 0.7329 0.0520
C13_2 C 0.58030(17) 0.5374(3) 0.2503(2)
C14_2 C 0.62299(19) 0.4646(3) 0.3601(2)
H10_2 H 0.6311 0.4206 0.4005
C15_2 C 0.66041(19) 0.5394(3) 0.3624(2)
H11_2 H 0.6977 0.5561 0.4044
O8_2 O 0.49234(12) 0.0274(2) 0.40746(15)
O10_2 O 0.43969(13) 0.0673(2) 0.50042(15)
O11_2 O 0.40194(12) 0.13564(19) 0.27359(14)
O12_2 O 0.45798(13) 0.2350(2) 0.40938(14)
O13_2 O 0.43432(14) 0.2468(2) 0.21699(15)
O14_2 O 0.49745(13) 0.33995(19) 0.35550(15)
N20_2 N 0.42850(14) 0.4637(2) 0.21089(19)
N21_2 N 0.50368(18) 0.5465(3) 0.3904(2)
H17_2 H 0.5254 0.4957 0.3934
N22_2 N 0.36703(15) 0.5855(2) 0.20837(19)
N23_2 N 0.43195(15) 0.6566(2) 0.34366(19)
N24_2 N 0.65390(15) 0.8052(2) 0.18154(19)
N25_2 N 0.34610(15) 0.8052(2) 0.31846(19)
N26_2 N 0.61154(15) 0.7887(3) 0.27844(19)
N27_2 N 0.38846(15) 0.7887(3) 0.22156(19)
N28_2 N 0.63621(14) 0.9645(2) 0.15261(19)
N30_3 N 0.58197(18) 0.9398(3) 0.2805(2)
C23_2 C 0.43081(17) 0.2125(3) 0.2743(2)
C24_2 C 0.46501(17) 0.2671(3) 0.3541(2)
C31_2 C 0.45385(18) 0.5762(3) 0.3271(2)
C32_2 C 0.5142(2) 0.6111(4) 0.4497(3)
H23_2 H 0.5459 0.6081 0.5004
C33_2 C 0.4701(2) 0.6795(3) 0.4208(3)
H24_2 H 0.4659 0.7329 0.4480
C34_2 C 0.41970(17) 0.5374(3) 0.2497(2)
C35_2 C 0.37701(19) 0.4646(3) 0.1399(2)
H25_2 H 0.3689 0.4206 0.0995
C36_2 C 0.33959(19) 0.5394(3) 0.1376(2)
H26_2 H 0.3023 0.5561 0.0956
C37_3 C 0.60707(18) 0.8784(3) 0.2488(2)
C38_3 C 0.5873(2) 0.7938(4) 0.3307(3)
H27_3 H 0.5842 0.7419 0.3600
C39_3 C 0.5690(3) 0.8866(4) 0.3320(3)
H28_3 H 0.5510 0.9102 0.3621
C40_3 C 0.63098(17) 0.8895(3) 0.1932(2)
C41_3 C 0.6766(2) 0.8283(3) 0.1307(3)
H29_3 H 0.6957 0.7856 0.1110
C42_3 C 0.6661(2) 0.9246(3) 0.1142(3)
H30_3 H 0.6776 0.9590 0.0812
H8 H 0.4541 0.6081 0.9996
O9_2 O 0.56031(13) 0.0673(2) 0.99958(15)
C22_3 C 0.51504(17) 0.0112(3) 0.9727(2)
O2_3 O 0.43969(13) 0.9327(2) 0.00042(15)
C1_3 C 0.48496(17) 0.9888(3) 0.0273(2)
N29_2 N 0.36379(14) 0.9645(2) 0.34739(19)
Co5_3 Co 0.40853(2) 0.89906(4) 0.88338(3)
O7_3 O 0.49234(12) 0.9726(2) 0.90746(15)
H18_4 H 0.4248 0.0012 0.2294
N30_4 N 0.41803(18) 0.9398(3) 0.2195(2)
C22_4 C 0.48496(17) 0.0112(3) 0.5273(2)
C37_4 C 0.39293(18) 0.8784(3) 0.2512(2)
C38_4 C 0.4127(2) 0.7938(4) 0.1693(3)
H27_4 H 0.4158 0.7419 0.1400
C39_4 C 0.4310(3) 0.8866(4) 0.1680(3)
H28_4 H 0.4490 0.9102 0.1379
C40_4 C 0.36902(17) 0.8895(3) 0.3068(2)
C41_4 C 0.3234(2) 0.8283(3) 0.3693(3)
H29_4 H 0.3043 0.7856 0.3890
C42_4 C 0.3339(2) 0.9246(3) 0.3858(3)
H30_4 H 0.3224 0.9590 0.4188
O2_4 O 0.56031(13) 0.9327(2) 0.49958(15)
C1_4 C 0.51504(17) 0.9888(3) 0.4727(2)
Co5_4 Co 0.59147(2) 0.89906(4) 0.61662(3)
O7_4 O 0.50766(12) 0.9726(2) 0.59254(15)
Co2_4 Co 0.0000 0.13725(5) 0.7500
H2_3 H 0.0254 0.0043 0.8934
O11_3 O 0.09806(12) 0.36436(19) 0.72641(14)
O12_3 O 0.04202(13) 0.2650(2) 0.59062(14)
O13_3 O 0.06568(14) 0.2532(2) 0.78301(15)
O14_3 O 0.00255(13) 0.16005(19) 0.64450(15)
N14_2 N 0.17133(14) 0.3269(2) 0.63201(19)
N20_3 N 0.07150(14) 0.0363(2) 0.78911(19)
N29_3 N 0.13621(14) 0.5355(2) 0.65261(19)
C23_3 C 0.06919(17) 0.2875(3) 0.7257(2)
C24_3 C 0.03499(17) 0.2329(3) 0.6459(2)
C35_3 C 0.12299(19) 0.0354(3) 0.8601(2)
H25_3 H 0.1311 0.0794 0.9005
N6_3 N 0.00368(18) 0.9535(3) 0.8904(2)
C11_3 C 0.0142(2) 0.8889(4) 0.9497(3)
Co8_2 Co 0.14744(2) 0.80590(4) 0.73814(3)
N17_2 N 0.22930(14) 0.7874(2) 0.82015(18)
N19_2 N 0.18860(16) 0.8868(2) 0.69398(19)
N22_3 N 0.13297(15) 0.9145(2) 0.79163(19)
N23_3 N 0.06805(15) 0.8434(2) 0.65634(19)
N25_3 N 0.15390(15) 0.6948(2) 0.68154(19)
N27_3 N 0.11154(15) 0.7113(3) 0.77844(19)
C31_3 C 0.04615(18) 0.9238(3) 0.6729(2)
C33_3 C 0.0299(2) 0.8205(3) 0.5792(3)
H24_3 H 0.0341 0.7671 0.5520
C34_3 C 0.08030(17) 0.9626(3) 0.7503(2)
C36_3 C 0.16041(19) 0.9606(3) 0.8624(2)
H26_3 H 0.1977 0.9439 0.9044
Co2_5 Co 1.0000 0.13725(5) 0.7500
O3_3 O 0.90194(12) 0.36436(19) 0.77359(14)
O4_3 O 0.95798(13) 0.2650(2) 0.90938(14)
O5_3 O 0.93432(14) 0.2532(2) 0.71699(15)
O6_3 O 0.99745(13) 0.16005(19) 0.85550(15)
N1_2 N 0.82867(14) 0.3269(2) 0.86799(19)
N2_3 N 0.77439(17) 0.4225(3) 0.6922(2)
H1_3 H 0.8130 0.4275 0.7066
N3_3 N 0.72930(14) 0.2874(2) 0.82015(18)
N4_3 N 0.68860(16) 0.3868(2) 0.69398(19)
N5_3 N 0.92850(14) 0.0363(2) 0.71089(19)
N9 N 0.84610(15) 0.6948(2) 0.81846(19)
N10 N 0.88846(15) 0.7113(3) 0.72156(19)
N11 N 0.86379(14) 0.5355(2) 0.84739(19)
N12 N 0.91803(18) 0.5602(3) 0.7195(2)
H3 H 0.9248 0.4988 0.7294
C2_3 C 0.93081(17) 0.2875(3) 0.7743(2)
C3_3 C 0.96501(17) 0.2329(3) 0.8541(2)
C4_3 C 0.77283(17) 0.3336(3) 0.8081(2)
C5_3 C 0.8200(2) 0.2708(3) 0.9214(3)
H4_3 H 0.8508 0.2519 0.9700
C6_3 C 0.7598(2) 0.2472(3) 0.8926(2)
H5_3 H 0.7425 0.2100 0.9180
C7_3 C 0.74923(18) 0.3828(3) 0.7339(2)
C8_3 C 0.7280(2) 0.4542(4) 0.6223(3)
H6_3 H 0.7324 0.4854 0.5821
C9_3 C 0.6748(2) 0.4311(4) 0.6237(3)
H7_3 H 0.6356 0.4431 0.5838
C14_3 C 0.87701(19) 0.0354(3) 0.6399(2)
H10_3 H 0.8689 0.0794 0.5995
C16 C 0.89293(18) 0.6216(3) 0.7512(2)
C17 C 0.9127(2) 0.7062(4) 0.6693(3)
H12 H 0.9158 0.7581 0.6400
C18 C 0.9310(3) 0.6134(4) 0.6680(3)
H13 H 0.9490 0.5898 0.6379
C19 C 0.86902(17) 0.6105(3) 0.8068(2)
C20 C 0.8234(2) 0.6717(3) 0.8693(3)
H14 H 0.8043 0.7144 0.8890
C21 C 0.8339(2) 0.5754(3) 0.8858(3)
H15 H 0.8224 0.5410 0.9188
Co9_3 Co 0.64744(2) 0.30590(4) 0.73814(3)
Co10 Co 0.85256(2) 0.80590(4) 0.76186(3)
H17_3 H 0.9746 0.0043 0.6066
N7_3 N 0.86703(15) 0.9145(2) 0.70837(19)
N8_3 N 0.93195(15) 0.8434(2) 0.84366(19)
C10_3 C 0.95385(18) 0.9238(3) 0.8271(2)
C12_3 C 0.9701(2) 0.8205(3) 0.9208(3)
H9_3 H 0.9659 0.7671 0.9480
C13_3 C 0.91970(17) 0.9626(3) 0.7497(2)
C15_3 C 0.83959(19) 0.9606(3) 0.6376(2)
H11_3 H 0.8023 0.9439 0.5956
N13_3 N 0.67133(14) 0.8269(2) 0.63201(19)
N15_3 N 0.72561(17) 0.9225(3) 0.8078(2)
H16_3 H 0.6870 0.9275 0.7934
N16_2 N 0.77070(14) 0.7874(2) 0.67985(18)
N18_2 N 0.81140(16) 0.8868(2) 0.80602(19)
N21_3 N 0.99632(18) 0.9535(3) 0.6096(2)
C25_3 C 0.72717(17) 0.8336(3) 0.6919(2)
C26_3 C 0.6800(2) 0.7708(3) 0.5786(3)
H19_3 H 0.6492 0.7519 0.5300
C27_3 C 0.7402(2) 0.7472(3) 0.6074(2)
H20_3 H 0.7575 0.7100 0.5820
C28_3 C 0.75077(18) 0.8828(3) 0.7661(2)
C29_3 C 0.7720(2) 0.9542(4) 0.8777(3)
H21_3 H 0.7676 0.9854 0.9179
C30_3 C 0.8252(2) 0.9311(4) 0.8763(3)
H22_3 H 0.8644 0.9431 0.9162
C32_3 C 0.9858(2) 0.8889(4) 0.5503(3)
H23_3 H 0.9541 0.8919 0.4996
N2_4 N 0.22561(17) 0.4225(3) 0.8078(2)
H1_4 H 0.1870 0.4275 0.7934
N3_4 N 0.27070(14) 0.2874(2) 0.67985(18)
N4_4 N 0.31140(16) 0.3868(2) 0.80602(19)
N12_2 N 0.08197(18) 0.5602(3) 0.7805(2)
H3_2 H 0.0752 0.4988 0.7706
C4_4 C 0.22717(17) 0.3336(3) 0.6919(2)
C5_4 C 0.1800(2) 0.2708(3) 0.5786(3)
H4_4 H 0.1492 0.2519 0.5300
C6_4 C 0.2402(2) 0.2472(3) 0.6074(2)
H5_4 H 0.2575 0.2100 0.5820
C7_4 C 0.25077(18) 0.3828(3) 0.7661(2)
C8_4 C 0.2720(2) 0.4542(4) 0.8777(3)
H6_4 H 0.2676 0.4854 0.9179
C9_4 C 0.3252(2) 0.4311(4) 0.8763(3)
H7_4 H 0.3644 0.4431 0.9162
C16_2 C 0.10707(18) 0.6216(3) 0.7488(2)
C17_2 C 0.0873(2) 0.7062(4) 0.8307(3)
H12_2 H 0.0842 0.7581 0.8600
C18_2 C 0.0690(3) 0.6134(4) 0.8320(3)
H13_2 H 0.0510 0.5898 0.8621
C19_2 C 0.13098(17) 0.6105(3) 0.6932(2)
C20_2 C 0.1766(2) 0.6717(3) 0.6307(3)
H14_2 H 0.1957 0.7144 0.6110
C21_2 C 0.1661(2) 0.5754(3) 0.6142(3)
H15_2 H 0.1776 0.5410 0.5812
Co9_4 Co 0.35256(2) 0.30590(4) 0.76186(3)
N13_4 N 0.32867(14) 0.8269(2) 0.86799(19)
N15_4 N 0.27439(17) 0.9225(3) 0.6922(2)
H16_4 H 0.3130 0.9275 0.7066
C25_4 C 0.27283(17) 0.8336(3) 0.8081(2)
C26_4 C 0.3200(2) 0.7708(3) 0.9214(3)
H19_4 H 0.3508 0.7519 0.9700
C27_4 C 0.2598(2) 0.7472(3) 0.8926(2)
H20_4 H 0.2425 0.7100 0.9180
C28_4 C 0.24923(18) 0.8828(3) 0.7339(2)
C29_4 C 0.2280(2) 0.9542(4) 0.6223(3)
H21_4 H 0.2324 0.9854 0.5821
C30_4 C 0.1748(2) 0.9311(4) 0.6237(3)
H22_4 H 0.1356 0.9431 0.5838
N9_2 N 0.34610(15) 0.1948(2) 0.81846(19)
N10_2 N 0.38846(15) 0.2113(3) 0.72156(19)
N11_2 N 0.36379(14) 0.0355(2) 0.84739(19)
N12_3 N 0.41803(18) 0.0602(3) 0.7195(2)
C16_3 C 0.39293(18) 0.1216(3) 0.7512(2)
C17_3 C 0.4127(2) 0.2062(4) 0.6693(3)
H12_3 H 0.4158 0.2581 0.6400
C18_3 C 0.4310(3) 0.1134(4) 0.6680(3)
H13_3 H 0.4490 0.0898 0.6379
C19_3 C 0.36902(17) 0.1105(3) 0.8068(2)
C20_3 C 0.3234(2) 0.1717(3) 0.8693(3)
H14_3 H 0.3043 0.2144 0.8890
C21_3 C 0.3339(2) 0.0754(3) 0.8858(3)
H15_3 H 0.3224 0.0410 0.9188
N29_4 N 0.63621(14) 0.0355(2) 0.65261(19)
H8_2 H 0.5459 0.3919 0.0004
Co2_6 Co 0.5000 0.63725(5) 0.7500
O3_4 O 0.40194(12) 0.86436(19) 0.77359(14)
O4_4 O 0.45798(13) 0.7650(2) 0.90938(14)
O5_4 O 0.43432(14) 0.7532(2) 0.71699(15)
O6_4 O 0.49745(13) 0.66005(19) 0.85550(15)
N5_4 N 0.42850(14) 0.5363(2) 0.71089(19)
N6_4 N 0.50368(18) 0.4535(3) 0.8904(2)
H2_4 H 0.5254 0.5043 0.8934
N7_4 N 0.36703(15) 0.4145(2) 0.70837(19)
N8_4 N 0.43195(15) 0.3434(2) 0.84366(19)
H3_3 H 0.4248 0.9988 0.7294
C2_4 C 0.43081(17) 0.7875(3) 0.7743(2)
C3_4 C 0.46501(17) 0.7329(3) 0.8541(2)
C10_4 C 0.45385(18) 0.4238(3) 0.8271(2)
C11_4 C 0.5142(2) 0.3889(4) 0.9497(3)
C12_4 C 0.4701(2) 0.3205(3) 0.9208(3)
H9_4 H 0.4659 0.2671 0.9480
C13_4 C 0.41970(17) 0.4626(3) 0.7497(2)
C14_4 C 0.37701(19) 0.5354(3) 0.6399(2)
H10_4 H 0.3689 0.5794 0.5995
C15_4 C 0.33959(19) 0.4606(3) 0.6376(2)
H11_4 H 0.3023 0.4439 0.5956
O11_4 O 0.59806(12) 0.86436(19) 0.72641(14)
O12_4 O 0.54202(13) 0.7650(2) 0.59062(14)
O13_4 O 0.56568(14) 0.7532(2) 0.78301(15)
O14_4 O 0.50255(13) 0.66005(19) 0.64450(15)
N20_4 N 0.57150(14) 0.5363(2) 0.78911(19)
N21_4 N 0.49632(18) 0.4535(3) 0.6096(2)
H17_4 H 0.4746 0.5043 0.6066
N22_4 N 0.63297(15) 0.4145(2) 0.79163(19)
N23_4 N 0.56805(15) 0.3434(2) 0.65634(19)
N25_4 N 0.65390(15) 0.1948(2) 0.68154(19)
N27_4 N 0.61154(15) 0.2113(3) 0.77844(19)
C23_4 C 0.56919(17) 0.7875(3) 0.7257(2)
C24_4 C 0.53499(17) 0.7329(3) 0.6459(2)
C31_4 C 0.54615(18) 0.4238(3) 0.6729(2)
C32_4 C 0.4858(2) 0.3889(4) 0.5503(3)
H23_4 H 0.4541 0.3919 0.4996
C33_4 C 0.5299(2) 0.3205(3) 0.5792(3)
H24_4 H 0.5341 0.2671 0.5520
C34_4 C 0.58030(17) 0.4626(3) 0.7503(2)
C35_4 C 0.62299(19) 0.5354(3) 0.8601(2)
H25_4 H 0.6311 0.5794 0.9005
C36_4 C 0.66041(19) 0.4606(3) 0.8624(2)
H26_4 H 0.6977 0.4439 0.9044
N12_4 N 0.58197(18) 0.0602(3) 0.7805(2)
C16_4 C 0.60707(18) 0.1216(3) 0.7488(2)
C17_4 C 0.5873(2) 0.2062(4) 0.8307(3)
H12_4 H 0.5842 0.2581 0.8600
C18_4 C 0.5690(3) 0.1134(4) 0.8320(3)
H13_4 H 0.5510 0.0898 0.8621
C19_4 C 0.63098(17) 0.1105(3) 0.6932(2)
C20_4 C 0.6766(2) 0.1717(3) 0.6307(3)
H14_4 H 0.6957 0.2144 0.6110
C21_4 C 0.6661(2) 0.0754(3) 0.6142(3)
H15_4 H 0.6776 0.0410 0.5812
H3_4 H 0.5752 0.9988 0.7706
H8_3 H 0.9541 0.1081 0.9996
H8_4 H 0.0459 0.8919 0.0004
loop_
_geom_bond_atom_site_label_1
_geom_bond_atom_site_label_2
_geom_bond_site_symmetry_1
_geom_bond_site_symmetry_2
Co3 N7 1_555 1_555
N7 C13 1_555 1_555
N8 Co3 1_555 1_555
C12 N8 1_555 1_555
H9 C12 1_555 1_555
C15 N7 1_555 1_555
H11 C15 1_555 1_555
Co6 N13 1_555 1_555
Co7 N28 1_555 1_555
N13 C25 1_555 1_555
N15 H16 1_555 1_555
N16 Co3 1_555 1_555
N18 Co3 1_555 1_555
N24 Co3 1_555 1_555
N26 Co3 1_555 1_555
N28 C40 1_555 1_555
N30 H18 1_555 1_555
C25 N16 1_555 1_555
C26 N13 1_555 1_555
H19 C26 1_555 1_555
C27 N16 1_555 1_555
H20 C27 1_555 1_555
C28 N15 1_555 1_555
C29 N15 1_555 1_555
H21 C29 1_555 1_555
C30 N18 1_555 1_555
H22 C30 1_555 1_555
C32 N21 1_555 1_555
H23 C32 1_555 1_555
C37 N26 1_555 1_555
C38 N26 1_555 1_555
H27 C38 1_555 1_555
C39 N30 1_555 1_555
H28 C39 1_555 1_555
C40 N24 1_555 1_555
C41 N24 1_555 1_555
H29 C41 1_555 1_555
C42 N28 1_555 1_555
H30 C42 1_555 1_555
N8 C10 1_555 1_555
C10 C13 1_555 1_555
N18 C28 1_555 1_555
N30 C37 1_555 1_555
C25 C28 1_555 1_555
C26 C27 1_555 1_555
C29 C30 1_555 1_555
C37 C40 1_555 1_555
C38 C39 1_555 1_555
C41 C42 1_555 1_555
Co7 O1 1_555 1_555
Co2 O5 1_555 1_555
O3 Co7 1_555 1_555
O4 Co7 1_555 1_555
O5 C2 1_555 1_555
O6 Co2 1_555 1_555
N1 Co7 1_555 1_555
N2 H1 1_555 1_555
N3 C4 1_555 1_555
N4 C7 1_555 1_555
N5 Co2 1_555 1_555
C2 O3 1_555 1_555
C3 O4 1_555 1_555
C4 N1 1_555 1_555
C5 N1 1_555 1_555
H4 C5 1_555 1_555
C6 N3 1_555 1_555
H5 C6 1_555 1_555
C7 N2 1_555 1_555
C8 N2 1_555 1_555
H6 C8 1_555 1_555
C9 N4 1_555 1_555
H7 C9 1_555 1_555
C14 N5 1_555 1_555
H10 C14 1_555 1_555
Co9 N3 1_555 1_555
O6 C3 1_555 1_555
N4 Co9 1_555 1_555
C2 C3 1_555 1_555
C4 C7 1_555 1_555
C5 C6 1_555 1_555
C8 C9 1_555 1_555
O9 C22 1_555 1_555
C11 N6 1_555 1_555
Co8 N17 1_555 1_555
N19 Co8 1_555 1_555
N22 Co8 1_555 1_555
N23 Co8 1_555 1_555
N25 Co8 1_555 1_555
N27 Co8 1_555 1_555
C33 N23 1_555 1_555
H24 C33 1_555 1_555
C36 N22 1_555 1_555
H26 C36 1_555 1_555
N22 C34 1_555 1_555
N23 C31 1_555 1_555
C31 C34 1_555 1_555
O2 C1 1_555 1_555
Co4 O8 1_555 1_555
O10 Co4 1_555 1_555
O11 Co4 1_555 1_555
O12 Co4 1_555 1_555
O13 Co2_2 1_555 1_555
O14 Co2_2 1_555 1_555
N14 Co4 1_555 1_555
N20 Co2_2 1_555 1_555
N29 Co4 1_555 1_555
C23 O11 1_555 1_555
C24 O12 1_555 1_555
C35 N20 1_555 1_555
H25 C35 1_555 1_555
O13 C23 1_555 1_555
O14 C24 1_555 1_555
C23 C24 1_555 1_555
O7 Co5 1_555 1_555
O2_2 C1_2 1_555 1_555
Co5_2 O2_2 1_555 1_555
O7_2 Co5_2 1_555 1_555
Co6_2 N13_2 1_555 1_555
N13_2 C25_2 1_555 1_555
N15_2 H16_2 1_555 1_555
N29 C40_2 1_555 1_555
N30_2 H18_2 1_555 1_555
C25_2 N17 1_555 1_555
C26_2 N13_2 1_555 1_555
H19_2 C26_2 1_555 1_555
C27_2 N17 1_555 1_555
H20_2 C27_2 1_555 1_555
C28_2 N15_2 1_555 1_555
C29_2 N15_2 1_555 1_555
H21_2 C29_2 1_555 1_555
C30_2 N19 1_555 1_555
H22_2 C30_2 1_555 1_555
C37_2 N27 1_555 1_555
C38_2 N27 1_555 1_555
H27_2 C38_2 1_555 1_555
C39_2 N30_2 1_555 1_555
H28_2 C39_2 1_555 1_555
C40_2 N25 1_555 1_555
C41_2 N25 1_555 1_555
H29_2 C41_2 1_555 1_555
C42_2 N29 1_555 1_555
H30_2 C42_2 1_555 1_555
N19 C28_2 1_555 1_555
N30_2 C37_2 1_555 1_555
C25_2 C28_2 1_555 1_555
C26_2 C27_2 1_555 1_555
C29_2 C30_2 1_555 1_555
C37_2 C40_2 1_555 1_555
C38_2 C39_2 1_555 1_555
C41_2 C42_2 1_555 1_555
N2_2 H1_2 1_555 1_555
N3_2 C4_2 1_555 1_555
N4_2 C7_2 1_555 1_555
C4_2 N14 1_555 1_555
C5_2 N14 1_555 1_555
H4_2 C5_2 1_555 1_555
C6_2 N3_2 1_555 1_555
H5_2 C6_2 1_555 1_555
C7_2 N2_2 1_555 1_555
C8_2 N2_2 1_555 1_555
H6_2 C8_2 1_555 1_555
C9_2 N4_2 1_555 1_555
H7_2 C9_2 1_555 1_555
Co9_2 N3_2 1_555 1_555
N4_2 Co9_2 1_555 1_555
C4_2 C7_2 1_555 1_555
C5_2 C6_2 1_555 1_555
C8_2 C9_2 1_555 1_555
O10 C22_2 1_555 1_555
Co6_2 O1_2 1_555 1_555
Co2_3 O5_2 1_555 1_555
Co9_2 N7_2 1_555 1_555
O3_2 Co6_2 1_555 1_555
O4_2 Co6_2 1_555 1_555
O5_2 C2_2 1_555 1_555
O6_2 Co2_3 1_555 1_555
N5_2 Co2_3 1_555 1_555
N6_2 H2_2 1_555 1_555
N7_2 C13_2 1_555 1_555
N8_2 Co9_2 1_555 1_555
C2_2 O3_2 1_555 1_555
C3_2 O4_2 1_555 1_555
C10_2 N6_2 1_555 1_555
C11_2 N6_2 1_555 1_555
C12_2 N8_2 1_555 1_555
H9_2 C12_2 1_555 1_555
C13_2 N5_2 1_555 1_555
C14_2 N5_2 1_555 1_555
H10_2 C14_2 1_555 1_555
C15_2 N7_2 1_555 1_555
H11_2 C15_2 1_555 1_555
Co6 O8_2 1_555 1_555
O10_2 Co6 1_555 1_555
O11_2 Co6 1_555 1_555
O12_2 Co6 1_555 1_555
O13_2 Co2_3 1_555 1_555
O14_2 Co2_3 1_555 1_555
N20_2 Co2_3 1_555 1_555
N21_2 H17_2 1_555 1_555
N22_2 Co9 1_555 1_555
N23_2 Co9 1_555 1_555
N24_2 Co9_2 1_555 1_555
N25_2 Co9 1_555 1_555
N26_2 Co9_2 1_555 1_555
N27_2 Co9 1_555 1_555
N28_2 C40_3 1_555 1_555
C23_2 O11_2 1_555 1_555
C24_2 O12_2 1_555 1_555
C31_2 N21_2 1_555 1_555
C32_2 N21_2 1_555 1_555
H23_2 C32_2 1_555 1_555
C33_2 N23_2 1_555 1_555
H24_2 C33_2 1_555 1_555
C34_2 N20_2 1_555 1_555
C35_2 N20_2 1_555 1_555
H25_2 C35_2 1_555 1_555
C36_2 N22_2 1_555 1_555
H26_2 C36_2 1_555 1_555
C37_3 N26_2 1_555 1_555
C38_3 N26_2 1_555 1_555
H27_3 C38_3 1_555 1_555
C39_3 N30_3 1_555 1_555
H28_3 C39_3 1_555 1_555
C40_3 N24_2 1_555 1_555
C41_3 N24_2 1_555 1_555
H29_3 C41_3 1_555 1_555
C42_3 N28_2 1_555 1_555
H30_3 C42_3 1_555 1_555
O6_2 C3_2 1_555 1_555
N8_2 C10_2 1_555 1_555
C2_2 C3_2 1_555 1_555
C10_2 C13_2 1_555 1_555
C11_2 C12_2 1_555 1_555
C14_2 C15_2 1_555 1_555
O13_2 C23_2 1_555 1_555
O14_2 C24_2 1_555 1_555
N22_2 C34_2 1_555 1_555
N23_2 C31_2 1_555 1_555
N30_3 C37_3 1_555 1_555
C23_2 C24_2 1_555 1_555
C31_2 C34_2 1_555 1_555
C32_2 C33_2 1_555 1_555
C35_2 C36_2 1_555 1_555
C37_3 C40_3 1_555 1_555
C38_3 C39_3 1_555 1_555
C41_3 C42_3 1_555 1_555
O9_2 C22_3 1_555 1_555
O2_3 C1_3 1_555 1_555
O7_3 Co5_3 1_555 1_555
N29_2 C40_4 1_555 1_555
C37_4 N27_2 1_555 1_555
C38_4 N27_2 1_555 1_555
H27_4 C38_4 1_555 1_555
C39_4 N30_4 1_555 1_555
H28_4 C39_4 1_555 1_555
C40_4 N25_2 1_555 1_555
C41_4 N25_2 1_555 1_555
H29_4 C41_4 1_555 1_555
C42_4 N29_2 1_555 1_555
H30_4 C42_4 1_555 1_555
O10_2 C22_4 1_555 1_555
N30_4 C37_4 1_555 1_555
C37_4 C40_4 1_555 1_555
C38_4 C39_4 1_555 1_555
C41_4 C42_4 1_555 1_555
O2_4 C1_4 1_555 1_555
Co5_4 O2_4 1_555 1_555
O7_4 Co5_4 1_555 1_555
O11_3 Co5_2 1_555 1_555
O12_3 Co5_2 1_555 1_555
O13_3 Co2_4 1_555 1_555
O14_3 Co2_4 1_555 1_555
N14_2 Co5_2 1_555 1_555
N20_3 Co2_4 1_555 1_555
N29_3 Co5_2 1_555 1_555
C23_3 O11_3 1_555 1_555
C24_3 O12_3 1_555 1_555
C35_3 N20_3 1_555 1_555
H25_3 C35_3 1_555 1_555
O13_3 C23_3 1_555 1_555
O14_3 C24_3 1_555 1_555
C23_3 C24_3 1_555 1_555
C11_3 N6_3 1_555 1_555
Co8_2 N17_2 1_555 1_555
N19_2 Co8_2 1_555 1_555
N22_3 Co8_2 1_555 1_555
N23_3 Co8_2 1_555 1_555
N25_3 Co8_2 1_555 1_555
N27_3 Co8_2 1_555 1_555
C33_3 N23_3 1_555 1_555
H24_3 C33_3 1_555 1_555
C36_3 N22_3 1_555 1_555
H26_3 C36_3 1_555 1_555
N22_3 C34_3 1_555 1_555
N23_3 C31_3 1_555 1_555
C31_3 C34_3 1_555 1_555
Co2_5 O5_3 1_555 1_555
O3_3 Co5 1_555 1_555
O4_3 Co5 1_555 1_555
O5_3 C2_3 1_555 1_555
O6_3 Co2_5 1_555 1_555
N1_2 Co5 1_555 1_555
N2_3 H1_3 1_555 1_555
N3_3 C4_3 1_555 1_555
N4_3 C7_3 1_555 1_555
N5_3 Co2_5 1_555 1_555
N9 C19 1_555 1_555
N10 C16 1_555 1_555
N11 Co5 1_555 1_555
N12 H3 1_555 1_555
C2_3 O3_3 1_555 1_555
C3_3 O4_3 1_555 1_555
C4_3 N1_2 1_555 1_555
C5_3 N1_2 1_555 1_555
H4_3 C5_3 1_555 1_555
C6_3 N3_3 1_555 1_555
H5_3 C6_3 1_555 1_555
C7_3 N2_3 1_555 1_555
C8_3 N2_3 1_555 1_555
H6_3 C8_3 1_555 1_555
C9_3 N4_3 1_555 1_555
H7_3 C9_3 1_555 1_555
C14_3 N5_3 1_555 1_555
H10_3 C14_3 1_555 1_555
C16 N12 1_555 1_555
C17 N10 1_555 1_555
H12 C17 1_555 1_555
C18 N12 1_555 1_555
H13 C18 1_555 1_555
C19 N11 1_555 1_555
C20 N9 1_555 1_555
H14 C20 1_555 1_555
C21 N11 1_555 1_555
H15 C21 1_555 1_555
Co9_3 N3_3 1_555 1_555
Co10 N9 1_555 1_555
O6_3 C3_3 1_555 1_555
N4_3 Co9_3 1_555 1_555
N10 Co10 1_555 1_555
C2_3 C3_3 1_555 1_555
C4_3 C7_3 1_555 1_555
C5_3 C6_3 1_555 1_555
C8_3 C9_3 1_555 1_555
C16 C19 1_555 1_555
C17 C18 1_555 1_555
C20 C21 1_555 1_555
Co10 N7_3 1_555 1_555
N7_3 C13_3 1_555 1_555
N8_3 Co10 1_555 1_555
C12_3 N8_3 1_555 1_555
H9_3 C12_3 1_555 1_555
C15_3 N7_3 1_555 1_555
H11_3 C15_3 1_555 1_555
Co5_4 N13_3 1_555 1_555
N13_3 C25_3 1_555 1_555
N15_3 H16_3 1_555 1_555
N16_2 Co10 1_555 1_555
N18_2 Co10 1_555 1_555
C25_3 N16_2 1_555 1_555
C26_3 N13_3 1_555 1_555
H19_3 C26_3 1_555 1_555
C27_3 N16_2 1_555 1_555
H20_3 C27_3 1_555 1_555
C28_3 N15_3 1_555 1_555
C29_3 N15_3 1_555 1_555
H21_3 C29_3 1_555 1_555
C30_3 N18_2 1_555 1_555
H22_3 C30_3 1_555 1_555
C32_3 N21_3 1_555 1_555
H23_3 C32_3 1_555 1_555
N8_3 C10_3 1_555 1_555
C10_3 C13_3 1_555 1_555
N18_2 C28_3 1_555 1_555
C25_3 C28_3 1_555 1_555
C26_3 C27_3 1_555 1_555
C29_3 C30_3 1_555 1_555
N2_4 H1_4 1_555 1_555
N3_4 C4_4 1_555 1_555
N4_4 C7_4 1_555 1_555
N25_3 C19_2 1_555 1_555
N27_3 C16_2 1_555 1_555
N12_2 H3_2 1_555 1_555
C4_4 N14_2 1_555 1_555
C5_4 N14_2 1_555 1_555
H4_4 C5_4 1_555 1_555
C6_4 N3_4 1_555 1_555
H5_4 C6_4 1_555 1_555
C7_4 N2_4 1_555 1_555
C8_4 N2_4 1_555 1_555
H6_4 C8_4 1_555 1_555
C9_4 N4_4 1_555 1_555
H7_4 C9_4 1_555 1_555
C16_2 N12_2 1_555 1_555
C17_2 N27_3 1_555 1_555
H12_2 C17_2 1_555 1_555
C18_2 N12_2 1_555 1_555
H13_2 C18_2 1_555 1_555
C19_2 N29_3 1_555 1_555
C20_2 N25_3 1_555 1_555
H14_2 C20_2 1_555 1_555
C21_2 N29_3 1_555 1_555
H15_2 C21_2 1_555 1_555
Co9_4 N3_4 1_555 1_555
N4_4 Co9_4 1_555 1_555
C4_4 C7_4 1_555 1_555
C5_4 C6_4 1_555 1_555
C8_4 C9_4 1_555 1_555
C16_2 C19_2 1_555 1_555
C17_2 C18_2 1_555 1_555
C20_2 C21_2 1_555 1_555
Co5_3 N13_4 1_555 1_555
N13_4 C25_4 1_555 1_555
N15_4 H16_4 1_555 1_555
C25_4 N17_2 1_555 1_555
C26_4 N13_4 1_555 1_555
H19_4 C26_4 1_555 1_555
C27_4 N17_2 1_555 1_555
H20_4 C27_4 1_555 1_555
C28_4 N15_4 1_555 1_555
C29_4 N15_4 1_555 1_555
H21_4 C29_4 1_555 1_555
C30_4 N19_2 1_555 1_555
H22_4 C30_4 1_555 1_555
N19_2 C28_4 1_555 1_555
C25_4 C28_4 1_555 1_555
C26_4 C27_4 1_555 1_555
C29_4 C30_4 1_555 1_555
N9_2 C19_3 1_555 1_555
N10_2 C16_3 1_555 1_555
C16_3 N12_3 1_555 1_555
C17_3 N10_2 1_555 1_555
H12_3 C17_3 1_555 1_555
C18_3 N12_3 1_555 1_555
H13_3 C18_3 1_555 1_555
C19_3 N11_2 1_555 1_555
C20_3 N9_2 1_555 1_555
H14_3 C20_3 1_555 1_555
C21_3 N11_2 1_555 1_555
H15_3 C21_3 1_555 1_555
Co9_4 N9_2 1_555 1_555
N10_2 Co9_4 1_555 1_555
C16_3 C19_3 1_555 1_555
C17_3 C18_3 1_555 1_555
C20_3 C21_3 1_555 1_555
Co2_6 O5_4 1_555 1_555
Co9_4 N7_4 1_555 1_555
O3_4 Co5_3 1_555 1_555
O4_4 Co5_3 1_555 1_555
O5_4 C2_4 1_555 1_555
O6_4 Co2_6 1_555 1_555
N5_4 Co2_6 1_555 1_555
N6_4 H2_4 1_555 1_555
N7_4 C13_4 1_555 1_555
N8_4 Co9_4 1_555 1_555
C2_4 O3_4 1_555 1_555
C3_4 O4_4 1_555 1_555
C10_4 N6_4 1_555 1_555
C11_4 N6_4 1_555 1_555
C12_4 N8_4 1_555 1_555
H9_4 C12_4 1_555 1_555
C13_4 N5_4 1_555 1_555
C14_4 N5_4 1_555 1_555
H10_4 C14_4 1_555 1_555
C15_4 N7_4 1_555 1_555
H11_4 C15_4 1_555 1_555
O11_4 Co5_4 1_555 1_555
O12_4 Co5_4 1_555 1_555
O13_4 Co2_6 1_555 1_555
O14_4 Co2_6 1_555 1_555
N20_4 Co2_6 1_555 1_555
N21_4 H17_4 1_555 1_555
N22_4 Co9_3 1_555 1_555
N23_4 Co9_3 1_555 1_555
N25_4 Co9_3 1_555 1_555
N27_4 Co9_3 1_555 1_555
C23_4 O11_4 1_555 1_555
C24_4 O12_4 1_555 1_555
C31_4 N21_4 1_555 1_555
C32_4 N21_4 1_555 1_555
H23_4 C32_4 1_555 1_555
C33_4 N23_4 1_555 1_555
H24_4 C33_4 1_555 1_555
C34_4 N20_4 1_555 1_555
C35_4 N20_4 1_555 1_555
H25_4 C35_4 1_555 1_555
C36_4 N22_4 1_555 1_555
H26_4 C36_4 1_555 1_555
O6_4 C3_4 1_555 1_555
N8_4 C10_4 1_555 1_555
C2_4 C3_4 1_555 1_555
C10_4 C13_4 1_555 1_555
C11_4 C12_4 1_555 1_555
C14_4 C15_4 1_555 1_555
O13_4 C23_4 1_555 1_555
O14_4 C24_4 1_555 1_555
N22_4 C34_4 1_555 1_555
N23_4 C31_4 1_555 1_555
C23_4 C24_4 1_555 1_555
C31_4 C34_4 1_555 1_555
C32_4 C33_4 1_555 1_555
C35_4 C36_4 1_555 1_555
N25_4 C19_4 1_555 1_555
N27_4 C16_4 1_555 1_555
C16_4 N12_4 1_555 1_555
C17_4 N27_4 1_555 1_555
H12_4 C17_4 1_555 1_555
C18_4 N12_4 1_555 1_555
H13_4 C18_4 1_555 1_555
C19_4 N29_4 1_555 1_555
C20_4 N25_4 1_555 1_555
H14_4 C20_4 1_555 1_555
C21_4 N29_4 1_555 1_555
H15_4 C21_4 1_555 1_555
C16_4 C19_4 1_555 1_555
C17_4 C18_4 1_555 1_555
C20_4 C21_4 1_555 1_555

#END
