
###############################################################################
#
# This file contains modified crystal structure data generated from the
# MOF subset of the Cambridge Structural Database (CSD) v543 
# hosted by the Cambridge Crystallographic Data Centre (CCDC).
#
# This work is licensed under the Creative Commons
# Attribution-NonCommercial-ShareAlike 4.0 International License.
# To view a copy of this license, visit
# http://creativecommons.org/licenses/by-nc-sa/4.0/
# or send a letter to
# Creative Commons, PO Box 1866, Mountain View, CA 94042, USA.
#
# CIF created using the CSD Python API on 29 September 2022
# The structure has been converted into the P1 space group
# The structure has a 3D framework
# The original CSD entry EHIJAH is in the rhombohedral crystal system
# The framework has been calculated to contain at least 10.0% void space
# The void calculation uses a probe of radius 1.32A, grid spacing 0.4
#
###############################################################################

data_EHIJAH
_chemical_formula_moiety         '(C720 H432 N36 O158 Zn51)n'
_symmetry_cell_setting           triclinic
_symmetry_space_group_name_H-M   'P 1'
_symmetry_Int_Tables_number      1
_space_group_name_Hall           'P 1'
loop_
_symmetry_equiv_pos_site_id
_symmetry_equiv_pos_as_xyz
1 x,y,z
_cell_length_a                   25.682(4)
_cell_length_b                   25.682(4)
_cell_length_c                   114.90(2)
_cell_angle_alpha                90
_cell_angle_beta                 90
_cell_angle_gamma                120
_cell_volume                     65630.9
loop_
_atom_site_label
_atom_site_type_symbol
_atom_site_fract_x
_atom_site_fract_y
_atom_site_fract_z
H8 H 0.2987 0.0159 0.3883
H12 H 0.3326 0.0342 0.4072
O1 O -0.0000 -0.0000 0.336640(16)
O3 O 0.12291(9) 0.01556(10) 0.344315(14)
Zn1 Zn 0.0000 -0.0000 0.353516(3)
C21 C 0.55776(12) 0.21942(16) 0.478591(18)
C24 C 0.00500(11) 0.11391(16) 0.354742(18)
C26 C 0.51698(11) 0.16274(16) 0.472922(17)
C29 C 0.02090(11) 0.17059(16) 0.360411(17)
C31 C 0.52334(12) 0.15308(17) 0.461091(17)
C34 C 0.03692(12) 0.18025(17) 0.372242(17)
H13 H 0.5528 0.1841 0.4566
H16 H 0.0353 0.1492 0.3767
C36 C 0.48661(12) 0.09825(17) 0.455967(17)
C39 C 0.05502(12) 0.23508(17) 0.377366(17)
H18 H 0.4912 0.0931 0.4481
H21 H 0.0647 0.2402 0.3852
C41 C 0.47245(13) 0.11471(19) 0.479077(19)
C44 C 0.02440(14) 0.21862(19) 0.354256(19)
H23 H 0.4672 0.1197 0.4869
H26 H 0.0141 0.2136 0.3464
C46 C 0.44363(12) 0.05135(17) 0.462250(17)
C49 C 0.05894(12) 0.28198(17) 0.371083(17)
C54 C 0.16906(14) 0.39356(18) 0.36355(2)
C55 C 0.06023(18) 0.50239(14) 0.46978(2)
H31 H 0.1762 0.3615 0.3642
H32 H 0.0282 0.5095 0.4691
C59 C 0.12087(13) 0.39191(17) 0.369113(18)
C60 C 0.05858(17) 0.45420(13) 0.464220(18)
C64 C 0.11216(15) 0.43958(20) 0.36821(3)
C65 C 0.10625(20) 0.44549(15) 0.46512(3)
H36 H 0.0807 0.4392 0.3723
H37 H 0.1059 0.4140 0.4610
C69 C 0.14871(14) 0.48851(18) 0.36135(3)
C70 C 0.15518(18) 0.48204(14) 0.47198(3)
H41 H 0.1407 0.5198 0.3606
H42 H 0.1865 0.4740 0.4727
C74 C 0.20690(14) 0.44392(19) 0.35702(2)
C75 C 0.11059(19) 0.54023(14) 0.47631(2)
H46 H 0.2402 0.4458 0.3535
H47 H 0.1125 0.5735 0.4798
C79 C 0.19625(14) 0.49095(18) 0.355733(19)
C80 C 0.15762(18) 0.52958(14) 0.477600(19)
C84 C 0.07012(13) 0.34863(18) 0.387685(18)
C85 C 0.01530(18) 0.40345(13) 0.445648(18)
C86 C 0.36783(13) 0.01991(18) 0.440739(18)
C89 C 0.01458(12) 0.31342(18) 0.392594(18)
H48 H 0.3680 0.0505 0.4450
C91 C 0.43636(13) 0.06067(19) 0.47404(2)
C94 C 0.04235(14) 0.27266(19) 0.35929(2)
H53 H 0.4066 0.0295 0.4784
H56 H 0.0437 0.3038 0.3549
C99 C 0.11469(13) 0.39319(20) 0.39429(2)
C100 C 0.05986(20) 0.44802(13) 0.43904(2)
H61 H 0.1530 0.4167 0.3912
H62 H 0.0834 0.4863 0.4421
C104 C 0.10264(12) 0.40312(19) 0.40558(2)
C105 C 0.06979(19) 0.43597(12) 0.42775(2)
H66 H 0.1330 0.4341 0.4099
H67 H 0.1008 0.4663 0.4234
C109 C 0.04720(10) 0.36852(15) 0.410600(17)
C110 C 0.03519(15) 0.38053(10) 0.422733(17)
C111 C 0.34710(13) 0.01014(18) 0.429369(18)
C114 C 0.00362(12) 0.32319(18) 0.403964(18)
H68 H 0.3341 0.0349 0.4261
C119 C 0.23845(18) 0.54390(22) 0.34872(2)
C120 C 0.21057(22) 0.57178(18) 0.48461(2)
N5 N 0.08077(11) 0.34047(16) 0.375857(15)
N6 N 0.00714(16) 0.41410(11) 0.457476(15)
O8 O 0.60160(7) 0.25915(10) 0.473067(13)
O11 O 0.00911(7) 0.07418(10) 0.360266(13)
O16 O 0.54376(9) 0.22598(13) 0.489018(14)
O28 O 0.21960(12) 0.58003(17) 0.34581(2)
O29 O 0.24670(17) 0.55293(12) 0.48752(2)
O31 O 0.11373(12) 0.08664(17) 0.32086(2)
O37 O 0.28671(11) 0.54776(14) 0.345396(17)
O38 O 0.21443(14) 0.62004(11) 0.487937(17)
O41 O 0.04662(11) 0.11891(14) 0.321271(17)
Zn5 Zn 0.6667 0.3333 0.479817(3)
Zn7 Zn 0.078922(12) 0.018423(17) 0.331015(2)
Zn13 Zn 0.018423(17) 0.078922(12) 0.168985(2)
Zn14 Zn 0.587745(12) 0.272834(12) 0.502318(2)
Zn19 Zn 0.254411(12) 0.648244(17) 0.335652(2)
Zn20 Zn 0.351756(17) 0.606168(12) 0.335652(2)
Zn22 Zn 0.314910(17) 0.587745(12) 0.497682(2)
Zn24 Zn 0.272834(12) 0.685090(17) 0.497682(2)
C1 C 0.10891(12) 0.99500(11) 0.354742(18)
C2 C 0.14969(11) 0.97910(11) 0.360411(17)
C3 C 0.14333(12) 0.96308(12) 0.372242(17)
H1 H 0.1139 0.9647 0.3767
C4 C 0.18006(12) 0.94498(12) 0.377366(17)
H2 H 0.1755 0.9353 0.3852
C5 C 0.19422(13) 0.97560(14) 0.354256(19)
H3 H 0.1995 0.9859 0.3464
C6 C 0.22304(12) 0.94106(12) 0.371083(17)
C7 C 0.22450(12) 0.83094(14) 0.36355(2)
H4 H 0.1853 0.8238 0.3642
C8 C 0.27104(11) 0.87913(13) 0.369113(18)
C9 C 0.32742(13) 0.88784(15) 0.36821(3)
H5 H 0.3585 0.9193 0.3723
C10 C 0.33980(12) 0.85129(14) 0.36135(3)
H6 H 0.3791 0.8593 0.3606
C11 C 0.23702(13) 0.79310(14) 0.35702(2)
H7 H 0.2056 0.7598 0.3535
C12 C 0.29470(11) 0.80375(14) 0.355733(19)
C13 C 0.27851(12) 0.92988(13) 0.387685(18)
C14 C 0.29884(13) 0.98542(12) 0.392594(18)
C15 C 0.23031(13) 0.95765(14) 0.35929(2)
H9 H 0.2601 0.9563 0.3549
C16 C 0.27850(15) 0.88531(13) 0.39429(2)
H10 H 0.2637 0.8470 0.3912
C17 C 0.30048(15) 0.89736(12) 0.40558(2)
H11 H 0.3011 0.8670 0.4099
C18 C 0.32132(11) 0.95280(10) 0.410600(17)
C19 C 0.31957(13) 0.99638(12) 0.403964(18)
C20 C 0.30545(13) 0.76155(18) 0.34872(2)
N1 N 0.25970(11) 0.91923(11) 0.375857(15)
O1_2 O -0.0000 1.0000 0.336640(16)
O2 O 0.06507(7) 0.99089(7) 0.360266(13)
O4 O 0.36043(12) 0.78040(12) 0.34581(2)
O5 O 0.26105(9) 0.71329(11) 0.345396(17)
Zn1_2 Zn -0.0000 1.0000 0.353516(3)
C51 C 0.44217(12) 0.93977(18) 0.46978(2)
H28 H 0.4814 0.9718 0.4691
C56 C 0.39563(11) 0.94142(17) 0.464220(18)
C61 C 0.33925(13) 0.89375(20) 0.46512(3)
H33 H 0.3082 0.8941 0.4610
C66 C 0.32687(12) 0.84482(18) 0.47198(3)
H38 H 0.2876 0.8135 0.4727
C71 C 0.42965(13) 0.88941(19) 0.47631(2)
H43 H 0.4611 0.8875 0.4798
C76 C 0.37197(11) 0.84238(18) 0.477600(19)
C81 C 0.38816(12) 0.98470(18) 0.445648(18)
C96 C 0.38817(15) 0.94014(20) 0.43904(2)
H58 H 0.4030 0.9166 0.4421
C101 C 0.36619(15) 0.93021(19) 0.42775(2)
H63 H 0.3656 0.8992 0.4234
C106 C 0.34535(11) 0.96481(15) 0.422733(17)
C116 C 0.36122(13) 0.78943(22) 0.48461(2)
N2 N 0.40697(11) 0.99286(16) 0.457476(15)
O7 O 0.3333 0.6667 0.330027(16)
O22 O 0.44068(13) 0.78958(9) 0.322352(14)
O24 O 0.21042(9) 0.65111(10) 0.322352(14)
O25 O 0.30624(12) 0.75330(17) 0.48752(2)
O34 O 0.40562(9) 0.78557(14) 0.487937(17)
O40 O 0.45224(14) 0.73895(9) 0.345396(17)
O42 O 0.07228(9) 0.95338(11) 0.321271(17)
Zn9 Zn 0.393832(12) 0.745589(12) 0.335652(2)
Zn21 Zn 0.412255(12) 0.727166(12) 0.497682(2)
O1_3 O 1.0000 -0.0000 0.336640(16)
Zn1_3 Zn 1.0000 -0.0000 0.353516(3)
C23 C 0.67167(11) 0.22442(12) 0.188075(18)
C25 C 0.78058(16) 0.33833(11) 0.478591(18)
C28 C 0.68757(11) 0.18364(11) 0.193744(17)
C30 C 0.83726(16) 0.35423(11) 0.472922(17)
C33 C 0.70359(12) 0.19000(12) 0.205575(17)
C35 C 0.84692(17) 0.37025(12) 0.461091(17)
H15 H 0.7020 0.2194 0.2100
H17 H 0.8159 0.3686 0.4566
C38 C 0.72169(12) 0.15327(12) 0.210699(17)
C40 C 0.90175(17) 0.38835(12) 0.455967(17)
H20 H 0.7314 0.1578 0.2185
H22 H 0.9069 0.3980 0.4481
C43 C 0.69107(14) 0.13911(13) 0.187589(19)
C45 C 0.88529(19) 0.35773(14) 0.479077(19)
H25 H 0.6808 0.1338 0.1797
H27 H 0.8803 0.3474 0.4869
C48 C 0.72561(12) 0.11029(12) 0.204416(17)
C50 C 0.94865(17) 0.39227(12) 0.462250(17)
C53 C 0.83573(14) 0.10883(12) 0.19688(2)
H30 H 0.8429 0.1480 0.1975
C58 C 0.78754(13) 0.06229(11) 0.202446(18)
C63 C 0.77883(15) 0.00591(13) 0.20154(3)
H34 H 0.7725 0.0252 0.2944
C67 C 0.82184(18) 0.00647(12) 0.30532(3)
H39 H 0.8531 0.0458 0.3061
C73 C 0.87357(14) 0.09631(13) 0.19035(2)
H45 H 0.9069 0.1277 0.1868
C78 C 0.86292(14) 0.03863(11) 0.189066(19)
C83 C 0.73679(13) 0.05482(12) 0.221018(18)
C88 C 0.68125(12) 0.03449(13) 0.225927(18)
C90 C 0.98009(18) 0.34791(12) 0.440739(18)
H50 H 0.6508 0.0346 0.2216
H51 H 0.9841 0.2828 0.3883
H52 H 0.9495 0.3174 0.4450
C93 C 0.70902(14) 0.10302(13) 0.19262(2)
C95 C 0.93933(19) 0.37568(14) 0.47404(2)
H55 H 0.7104 0.0732 0.1882
H57 H 0.9705 0.3770 0.4784
C98 C 0.78136(13) 0.05483(15) 0.22762(2)
H60 H 0.8197 0.0696 0.2245
C103 C 0.76931(12) 0.03285(15) 0.23891(2)
H65 H 0.7997 0.0322 0.2432
C108 C 0.71387(10) 0.01201(11) 0.243933(17)
C113 C 0.67029(12) 0.01376(13) 0.237297(18)
C115 C 0.98986(18) 0.33695(12) 0.429369(18)
H70 H 0.6325 0.0007 0.2405
H71 H 0.9658 0.2984 0.4072
H72 H 0.9651 0.2991 0.4261
C118 C 0.90512(18) 0.02788(13) 0.18205(2)
N4 N 0.74744(11) 0.07363(11) 0.209190(15)
O10 O 0.67578(7) 0.26826(7) 0.193599(13)
O12 O 0.74085(10) 0.34244(7) 0.473067(13)
O18 O 0.65111(10) 0.21042(9) 0.177648(14)
O19 O 0.98444(10) 0.10735(13) 0.344315(14)
O20 O 0.77402(13) 0.31777(10) 0.489018(14)
O26 O 0.91336(17) 0.02710(12) 0.32086(2)
O36 O 0.95338(11) 0.07228(9) 0.178729(17)
Zn6 Zn 0.6667 0.3333 0.186849(3)
Zn8 Zn 0.981577(17) 0.060499(12) 0.331015(2)
Zn15 Zn 0.727166(12) 0.314910(17) 0.502318(2)
Zn16 Zn 0.648244(17) 0.254411(12) 0.164348(2)
O1_4 O 1.0000 1.0000 0.336640(16)
Zn1_4 Zn 1.0000 1.0000 0.353516(3)
Zn2 Zn 0.939501(12) 0.921078(12) 0.331015(2)
C22 C 0.44724(16) 0.77558(12) 0.311925(18)
C27 C 0.50392(16) 0.81636(11) 0.306256(17)
C32 C 0.51358(17) 0.81000(12) 0.294425(17)
H14 H 0.4825 0.7806 0.2900
C37 C 0.56841(17) 0.84673(12) 0.289301(17)
H19 H 0.5735 0.8422 0.2815
C42 C 0.55195(19) 0.86089(13) 0.312411(19)
H24 H 0.5469 0.8662 0.3203
C47 C 0.61531(17) 0.88971(12) 0.295584(17)
C52 C 0.72689(18) 0.89117(12) 0.30312(2)
H29 H 0.6948 0.8520 0.3025
C57 C 0.72524(17) 0.93771(11) 0.297554(18)
C62 C 0.77291(20) 0.99409(13) 0.29846(3)
H35 H 0.7474 0.9748 0.2056
C68 C 0.81538(14) 0.99353(12) 0.19468(3)
H40 H 0.8074 0.9542 0.1939
C72 C 0.77725(19) 0.90369(13) 0.30965(2)
H44 H 0.7791 0.8723 0.3132
C77 C 0.82428(18) 0.96137(11) 0.310934(19)
C82 C 0.68196(18) 0.94518(12) 0.278982(18)
C87 C 0.64675(18) 0.96551(13) 0.274073(18)
H49 H 0.6161 0.9654 0.2784
C92 C 0.60599(19) 0.89698(13) 0.30738(2)
H54 H 0.6371 0.9268 0.3118
C97 C 0.72652(20) 0.94517(15) 0.27238(2)
H59 H 0.7500 0.9304 0.2755
C102 C 0.73645(19) 0.96715(15) 0.26109(2)
H64 H 0.7674 0.9678 0.2568
C107 C 0.70185(15) 0.98799(11) 0.256067(17)
C112 C 0.65652(18) 0.98624(13) 0.262703(18)
H69 H 0.6317 0.9993 0.2595
C117 C 0.87723(22) 0.97212(13) 0.31795(2)
N3 N 0.67380(16) 0.92637(11) 0.290810(15)
O9 O 0.40751(10) 0.73174(7) 0.306401(13)
O13 O 0.26826(7) 0.67578(7) 0.306401(13)
O14 O 0.32422(7) 0.59249(10) 0.306401(13)
O15 O 0.92582(10) 0.93493(7) 0.360266(13)
O21 O 0.34889(10) 0.55932(13) 0.322352(14)
O23 O 0.89265(13) 0.87709(9) 0.344315(14)
O27 O 0.88627(12) 0.97290(12) 0.17914(2)
O32 O 0.41997(17) 0.63957(12) 0.34581(2)
O33 O 0.97290(12) 0.88627(12) 0.32086(2)
O35 O 0.88109(14) 0.92772(9) 0.321271(17)
Zn3 Zn 0.3333 0.6667 0.313151(3)
Zn12 Zn 0.921078(12) 0.939501(12) 0.168985(2)
C22_2 C 0.22442(12) 0.67167(20) 0.311925(18)
C27_2 C 0.18364(11) 0.68757(19) 0.306256(17)
C32_2 C 0.19000(12) 0.70359(21) 0.294425(17)
H14_2 H 0.2194 0.7020 0.2900
C37_2 C 0.15327(12) 0.72169(21) 0.289301(17)
H19_2 H 0.1578 0.7314 0.2815
C42_2 C 0.13911(13) 0.69107(23) 0.312411(19)
H24_2 H 0.1338 0.6808 0.3203
C47_2 C 0.11029(12) 0.72561(21) 0.295584(17)
C52_2 C 0.10883(12) 0.83573(22) 0.30312(2)
H29_2 H 0.1480 0.8429 0.3025
C57_2 C 0.06229(11) 0.78754(20) 0.297554(18)
C62_2 C 0.00591(13) 0.77883(24) 0.29846(3)
H35_2 H 0.0252 0.7725 0.2056
C68_2 C 0.00647(12) 0.82184(18) 0.19468(3)
H40_2 H 0.0458 0.8531 0.1939
C72_2 C 0.09631(13) 0.87357(23) 0.30965(2)
H44_2 H 0.1277 0.9069 0.3132
C77_2 C 0.03863(11) 0.86292(21) 0.310934(19)
C82_2 C 0.05482(12) 0.73679(22) 0.278982(18)
C87_2 C 0.03449(13) 0.68125(22) 0.274073(18)
H49_2 H 0.0346 0.6508 0.2784
C92_2 C 0.10302(13) 0.70902(23) 0.30738(2)
H54_2 H 0.0732 0.7104 0.3118
C97_2 C 0.05483(15) 0.78136(25) 0.27238(2)
H59_2 H 0.0696 0.8197 0.2755
C102_2 C 0.03285(15) 0.76931(24) 0.26109(2)
H64_2 H 0.0322 0.7997 0.2568
C107_2 C 0.01201(11) 0.71387(19) 0.256067(17)
C112_2 C 0.01376(13) 0.67029(22) 0.262703(18)
H69_2 H 0.0007 0.6325 0.2595
C117_2 C 0.02788(13) 0.90512(26) 0.31795(2)
N3_2 N 0.07363(11) 0.74744(19) 0.290810(15)
O27_2 O 0.02710(12) 0.91336(17) 0.17914(2)
Zn12_2 Zn 0.060499(12) 0.981577(17) 0.168985(2)
C23_2 C 0.77558(12) 0.44724(16) 0.188075(18)
C24_2 C 0.88609(16) 0.89109(19) 0.354742(18)
C25_2 C 0.66167(11) 0.44224(19) 0.478591(18)
C28_2 C 0.81636(11) 0.50392(16) 0.193744(17)
C29_2 C 0.82941(16) 0.85031(19) 0.360411(17)
C30_2 C 0.64577(11) 0.48302(19) 0.472922(17)
C33_2 C 0.81000(12) 0.51358(17) 0.205575(17)
C34_2 C 0.81975(17) 0.85667(21) 0.372242(17)
C35_2 C 0.62975(12) 0.47666(21) 0.461091(17)
H15_2 H 0.7806 0.4825 0.2100
H16_2 H 0.8508 0.8861 0.3767
H17_2 H 0.6314 0.4472 0.4566
C38_2 C 0.84673(12) 0.56841(17) 0.210699(17)
C39_2 C 0.76492(17) 0.81994(21) 0.377366(17)
C40_2 C 0.61165(12) 0.51339(21) 0.455967(17)
H20_2 H 0.8422 0.5735 0.2185
H21_2 H 0.7598 0.8245 0.3852
H22_2 H 0.6020 0.5088 0.4481
C43_2 C 0.86089(13) 0.55195(19) 0.187589(19)
C44_2 C 0.78138(19) 0.80578(24) 0.354256(19)
C45_2 C 0.64227(14) 0.52755(24) 0.479077(19)
H25_2 H 0.8662 0.5469 0.1797
H26_2 H 0.7864 0.8005 0.3464
H27_2 H 0.6526 0.5328 0.4869
C48_2 C 0.88971(12) 0.61531(17) 0.204416(17)
C49_2 C 0.71802(17) 0.77696(21) 0.371083(17)
C50_2 C 0.60773(12) 0.55637(21) 0.462250(17)
C53_2 C 0.89117(12) 0.72689(18) 0.19688(2)
C54_2 C 0.60644(18) 0.77550(23) 0.36355(2)
C55_2 C 0.49761(14) 0.55783(23) 0.46978(2)
H30_2 H 0.8520 0.6948 0.1975
H31_2 H 0.6385 0.8147 0.3642
H32_2 H 0.4905 0.5186 0.4691
C58_2 C 0.93771(11) 0.72524(17) 0.202446(18)
C59_2 C 0.60809(17) 0.72896(21) 0.369113(18)
C60_2 C 0.54580(13) 0.60437(21) 0.464220(18)
C63_2 C 0.99409(13) 0.77291(20) 0.20154(3)
C64_2 C 0.56042(20) 0.67258(25) 0.36821(3)
C65_2 C 0.55451(15) 0.66075(25) 0.46512(3)
H34_2 H 0.9748 0.7474 0.2944
H36_2 H 0.5608 0.6415 0.3723
H37_2 H 0.5860 0.6918 0.4610
C67_2 C 0.99353(12) 0.81538(22) 0.30532(3)
C69_2 C 0.51149(18) 0.66020(23) 0.36135(3)
C70_2 C 0.51796(14) 0.67313(23) 0.47198(3)
H39_2 H 0.9542 0.8074 0.3061
H41_2 H 0.4802 0.6209 0.3606
H42_2 H 0.5260 0.7124 0.4727
C73_2 C 0.90369(13) 0.77725(19) 0.19035(2)
C74_2 C 0.55608(19) 0.76298(24) 0.35702(2)
C75_2 C 0.45977(14) 0.57035(24) 0.47631(2)
H45_2 H 0.8723 0.7791 0.1868
H46_2 H 0.5542 0.7944 0.3535
H47_2 H 0.4265 0.5389 0.4798
C78_2 C 0.96137(11) 0.82428(18) 0.189066(19)
C79_2 C 0.50905(18) 0.70530(23) 0.355733(19)
C80_2 C 0.47042(14) 0.62803(23) 0.477600(19)
C83_2 C 0.94518(12) 0.68196(18) 0.221018(18)
C84_2 C 0.65137(18) 0.72149(22) 0.387685(18)
C85_2 C 0.59655(13) 0.61184(22) 0.445648(18)
C88_2 C 0.96551(13) 0.64675(18) 0.225927(18)
C89_2 C 0.68658(18) 0.70116(22) 0.392594(18)
C90_2 C 0.65209(12) 0.63217(22) 0.440739(18)
H50_2 H 0.9654 0.6161 0.2216
H51_2 H 0.7172 0.7013 0.3883
H52_2 H 0.6826 0.6320 0.4450
C93_2 C 0.89698(13) 0.60599(19) 0.19262(2)
C94_2 C 0.72734(19) 0.76969(24) 0.35929(2)
C95_2 C 0.62432(14) 0.56364(24) 0.47404(2)
H55_2 H 0.9268 0.6371 0.1882
H56_2 H 0.6962 0.7399 0.3549
H57_2 H 0.6230 0.5934 0.4784
C98_2 C 0.94517(15) 0.72652(20) 0.22762(2)
C99_2 C 0.60681(20) 0.72150(24) 0.39429(2)
C100_2 C 0.55198(13) 0.61183(24) 0.43904(2)
H60_2 H 0.9304 0.7500 0.2245
H61_2 H 0.5833 0.7363 0.3912
H62_2 H 0.5137 0.5970 0.4421
C103_2 C 0.96715(15) 0.73645(19) 0.23891(2)
C104_2 C 0.59688(19) 0.69952(22) 0.40558(2)
C105_2 C 0.56403(12) 0.63381(22) 0.42775(2)
H65_2 H 0.9678 0.7674 0.2432
H66_2 H 0.5659 0.6989 0.4099
H67_2 H 0.5337 0.6344 0.4234
C108_2 C 0.98799(11) 0.70185(15) 0.243933(17)
C109_2 C 0.63148(15) 0.67868(18) 0.410600(17)
C110_2 C 0.61947(10) 0.65465(18) 0.422733(17)
C113_2 C 0.98624(13) 0.65652(18) 0.237297(18)
C114_2 C 0.67681(18) 0.68043(22) 0.403964(18)
C115_2 C 0.66305(12) 0.65290(22) 0.429369(18)
H70_2 H 0.9993 0.6317 0.2405
H71_2 H 0.7016 0.6674 0.4072
H72_2 H 0.7009 0.6659 0.4261
C118_2 C 0.97212(13) 0.87723(22) 0.18205(2)
C119_2 C 0.45610(22) 0.69455(28) 0.34872(2)
C120_2 C 0.42822(18) 0.63878(28) 0.48461(2)
N4_2 N 0.92637(11) 0.67380(16) 0.209190(15)
N5_2 N 0.65953(16) 0.74030(19) 0.375857(15)
N6_2 N 0.58590(11) 0.59303(19) 0.457476(15)
O10_2 O 0.73174(7) 0.40751(10) 0.193599(13)
O12_2 O 0.65756(7) 0.39840(12) 0.473067(13)
O18_2 O 0.78958(9) 0.44068(13) 0.177648(14)
O20_2 O 0.68223(10) 0.45624(16) 0.489018(14)
O29_2 O 0.44707(12) 0.69376(21) 0.48752(2)
O36_2 O 0.92772(9) 0.88109(14) 0.178729(17)
O38_2 O 0.37996(11) 0.59438(18) 0.487937(17)
Zn15_2 Zn 0.685090(17) 0.412255(21) 0.502318(2)
Zn16_2 Zn 0.745589(12) 0.393832(21) 0.164348(2)
C22_3 C 0.32833(20) 0.55276(16) 0.311925(18)
C23_3 C 0.55276(16) 0.32833(11) 0.188075(18)
C27_3 C 0.31243(19) 0.49608(16) 0.306256(17)
C28_3 C 0.49608(16) 0.31243(11) 0.193744(17)
C32_3 C 0.29641(21) 0.48642(17) 0.294425(17)
C33_3 C 0.48642(17) 0.29641(12) 0.205575(17)
H14_3 H 0.2980 0.5175 0.2900
H15_3 H 0.5175 0.2980 0.2100
C37_3 C 0.27831(21) 0.43159(17) 0.289301(17)
C38_3 C 0.43159(17) 0.27831(12) 0.210699(17)
H19_3 H 0.2686 0.4265 0.2815
H20_3 H 0.4265 0.2686 0.2185
C42_3 C 0.30893(23) 0.44805(19) 0.312411(19)
C43_3 C 0.44805(19) 0.30893(14) 0.187589(19)
H24_3 H 0.3192 0.4531 0.3203
H25_3 H 0.4531 0.3192 0.1797
C47_3 C 0.27439(21) 0.38469(17) 0.295584(17)
C48_3 C 0.38469(17) 0.27439(12) 0.204416(17)
C52_3 C 0.16427(22) 0.27311(18) 0.30312(2)
C53_3 C 0.27311(18) 0.16427(14) 0.19688(2)
H29_3 H 0.1571 0.3052 0.3025
H30_3 H 0.3052 0.1571 0.1975
C57_3 C 0.21246(20) 0.27476(17) 0.297554(18)
C58_3 C 0.27476(17) 0.21246(13) 0.202446(18)
C62_3 C 0.22117(24) 0.22709(20) 0.29846(3)
C63_3 C 0.22709(20) 0.22117(15) 0.20154(3)
H34_3 H 0.2526 0.2275 0.2944
H35_3 H 0.2275 0.2526 0.2056
C67_3 C 0.18462(22) 0.17816(18) 0.30532(3)
C68_3 C 0.17816(18) 0.18462(14) 0.19468(3)
H39_3 H 0.1926 0.1469 0.3061
H40_3 H 0.1469 0.1926 0.1939
C72_3 C 0.12643(23) 0.22275(19) 0.30965(2)
C73_3 C 0.22275(19) 0.12643(14) 0.19035(2)
H44_3 H 0.0931 0.2209 0.3132
H45_3 H 0.2209 0.0931 0.1868
C77_3 C 0.13708(21) 0.17572(18) 0.310934(19)
C78_3 C 0.17572(18) 0.13708(14) 0.189066(19)
C82_3 C 0.26321(22) 0.31804(18) 0.278982(18)
C83_3 C 0.31804(18) 0.26321(13) 0.221018(18)
C87_3 C 0.31875(22) 0.35325(18) 0.274073(18)
C88_3 C 0.35325(18) 0.31875(12) 0.225927(18)
H49_3 H 0.3492 0.3839 0.2784
H50_3 H 0.3839 0.3492 0.2216
C92_3 C 0.29098(23) 0.39401(19) 0.30738(2)
C93_3 C 0.39401(19) 0.29098(14) 0.19262(2)
H54_3 H 0.2896 0.3629 0.3118
H55_3 H 0.3629 0.2896 0.1882
C97_3 C 0.21864(25) 0.27348(20) 0.27238(2)
C98_3 C 0.27348(20) 0.21864(13) 0.22762(2)
H59_3 H 0.1803 0.2500 0.2755
H60_3 H 0.2500 0.1803 0.2245
C102_3 C 0.23069(24) 0.26355(19) 0.26109(2)
C103_3 C 0.26355(19) 0.23069(12) 0.23891(2)
H64_3 H 0.2003 0.2326 0.2568
H65_3 H 0.2326 0.2003 0.2432
C107_3 C 0.28613(19) 0.29815(15) 0.256067(17)
C108_3 C 0.29815(15) 0.28613(10) 0.243933(17)
C112_3 C 0.32971(22) 0.34348(18) 0.262703(18)
C113_3 C 0.34348(18) 0.32971(12) 0.237297(18)
H69_3 H 0.3675 0.3683 0.2595
H70_3 H 0.3683 0.3675 0.2405
C117_3 C 0.09488(26) 0.12277(22) 0.31795(2)
C118_3 C 0.12277(22) 0.09488(18) 0.18205(2)
N3_3 N 0.25256(19) 0.32620(16) 0.290810(15)
N4_3 N 0.32620(16) 0.25256(11) 0.209190(15)
O10_3 O 0.59249(10) 0.32422(7) 0.193599(13)
O18_3 O 0.55932(13) 0.34889(10) 0.177648(14)
O27_3 O 0.08664(17) 0.11373(12) 0.17914(2)
O36_3 O 0.11891(14) 0.04662(11) 0.178729(17)
Zn16_3 Zn 0.606168(21) 0.351756(17) 0.164348(2)
H8_2 H 0.0159 0.2987 0.1117
H12_2 H 0.0342 0.3326 0.0928
O1_5 O -0.0000 0.0000 0.163360(16)
O3_2 O 0.01556(10) 0.12291(9) 0.155685(14)
Zn1_5 Zn -0.0000 -0.0000 0.146484(3)
C21_2 C 0.21942(16) 0.55776(12) 0.021409(18)
C24_3 C 0.11391(16) 0.00500(11) 0.145258(18)
C26_2 C 0.16274(16) 0.51698(11) 0.027078(17)
C29_3 C 0.17059(16) 0.02090(11) 0.139589(17)
C31_2 C 0.15308(17) 0.52334(12) 0.038909(17)
C34_3 C 0.18025(17) 0.03692(12) 0.127758(17)
H13_2 H 0.1841 0.5528 0.0434
H16_3 H 0.1492 0.0353 0.1233
C36_2 C 0.09825(17) 0.48661(12) 0.044033(17)
C39_3 C 0.23508(17) 0.05502(12) 0.122634(17)
H18_2 H 0.0931 0.4912 0.0519
H21_3 H 0.2402 0.0647 0.1148
C41_2 C 0.11471(19) 0.47245(13) 0.020923(19)
C44_3 C 0.21862(19) 0.02440(14) 0.145744(19)
H23_2 H 0.1197 0.4672 0.0131
H26_3 H 0.2136 0.0141 0.1536
C46_2 C 0.05135(17) 0.44363(12) 0.037750(17)
C49_3 C 0.28198(17) 0.05894(12) 0.128917(17)
C54_3 C 0.39356(18) 0.16906(14) 0.13645(2)
C55_3 C 0.50239(14) 0.06023(18) 0.03022(2)
H31_3 H 0.3615 0.1762 0.1358
H32_3 H 0.5095 0.0282 0.0309
C59_3 C 0.39191(17) 0.12087(13) 0.130887(18)
C60_3 C 0.45420(13) 0.05858(17) 0.035780(18)
C64_3 C 0.43958(20) 0.11216(15) 0.13179(3)
C65_3 C 0.44549(15) 0.10625(20) 0.03488(3)
H36_3 H 0.4392 0.0807 0.1277
H37_3 H 0.4140 0.1059 0.0390
C69_3 C 0.48851(18) 0.14871(14) 0.13865(3)
C70_3 C 0.48204(14) 0.15518(18) 0.02802(3)
H41_3 H 0.5198 0.1407 0.1394
H42_3 H 0.4740 0.1865 0.0273
C74_3 C 0.44392(19) 0.20690(14) 0.14298(2)
C75_3 C 0.54023(14) 0.11059(19) 0.02369(2)
H46_3 H 0.4458 0.2402 0.1465
H47_3 H 0.5735 0.1125 0.0202
C79_3 C 0.49095(18) 0.19625(14) 0.144267(19)
C80_3 C 0.52958(14) 0.15762(18) 0.022400(19)
C84_3 C 0.34863(18) 0.07012(13) 0.112315(18)
C85_3 C 0.40345(13) 0.01530(18) 0.054352(18)
C86_2 C 0.01991(18) 0.36783(13) 0.059261(18)
C89_3 C 0.31342(18) 0.01458(12) 0.107406(18)
H48_2 H 0.0505 0.3680 0.0550
C91_2 C 0.06067(19) 0.43636(13) 0.02596(2)
C94_3 C 0.27266(19) 0.04235(14) 0.14071(2)
H53_2 H 0.0295 0.4066 0.0216
H56_3 H 0.3038 0.0437 0.1451
C99_3 C 0.39319(20) 0.11469(13) 0.10571(2)
C100_3 C 0.44802(13) 0.05986(20) 0.06096(2)
H61_3 H 0.4167 0.1530 0.1088
H62_3 H 0.4863 0.0834 0.0579
C104_3 C 0.40312(19) 0.10264(12) 0.09442(2)
C105_3 C 0.43597(12) 0.06979(19) 0.07225(2)
H66_3 H 0.4341 0.1330 0.0901
H67_3 H 0.4663 0.1008 0.0766
C109_3 C 0.36852(15) 0.04720(10) 0.089400(17)
C110_3 C 0.38053(10) 0.03519(15) 0.077267(17)
C111_2 C 0.01014(18) 0.34710(13) 0.070631(18)
C114_3 C 0.32319(18) 0.00362(12) 0.096036(18)
H68_2 H 0.0349 0.3341 0.0739
C119_3 C 0.54390(22) 0.23845(18) 0.15128(2)
C120_3 C 0.57178(18) 0.21057(22) 0.01539(2)
N5_3 N 0.34047(16) 0.08077(11) 0.124143(15)
N6_3 N 0.41410(11) 0.00714(16) 0.042524(15)
O8_2 O 0.25915(10) 0.60160(7) 0.026933(13)
O11_2 O 0.07418(10) 0.00911(7) 0.139734(13)
O16_2 O 0.22598(13) 0.54376(9) 0.010982(14)
O28_2 O 0.58003(17) 0.21960(12) 0.15419(2)
O29_3 O 0.55293(12) 0.24670(17) 0.01248(2)
O37_2 O 0.54776(14) 0.28671(11) 0.154604(17)
O38_3 O 0.62004(11) 0.21443(14) 0.012063(17)
Zn5_2 Zn 0.3333 0.6667 0.020183(3)
Zn22_2 Zn 0.587745(12) 0.314910(17) 0.002318(2)
Zn24_2 Zn 0.685090(17) 0.272834(12) 0.002318(2)
Zn14_2 Zn 0.272834(12) 0.587745(12) 0.997682(2)
O1_6 O 0.0000 1.0000 0.163360(16)
Zn1_6 Zn 0.0000 1.0000 0.146484(3)
C25_3 C 0.33833(11) 0.78058(16) 0.021409(18)
C30_3 C 0.35423(11) 0.83726(16) 0.027078(17)
C35_3 C 0.37025(12) 0.84692(17) 0.038909(17)
H17_3 H 0.3686 0.8159 0.0434
C40_3 C 0.38835(12) 0.90175(17) 0.044033(17)
H22_3 H 0.3980 0.9069 0.0519
C45_3 C 0.35773(14) 0.88529(19) 0.020923(19)
H27_3 H 0.3474 0.8803 0.0131
C50_3 C 0.39227(12) 0.94865(17) 0.037750(17)
C90_3 C 0.34791(12) 0.98009(18) 0.059261(18)
H51_3 H 0.2828 0.9841 0.1117
H52_3 H 0.3174 0.9495 0.0550
C95_3 C 0.37568(14) 0.93933(19) 0.02596(2)
H57_3 H 0.3770 0.9705 0.0216
C115_3 C 0.33695(12) 0.98986(18) 0.070631(18)
H71_3 H 0.2984 0.9658 0.0928
H72_3 H 0.2991 0.9651 0.0739
O12_3 O 0.34244(7) 0.74085(10) 0.026933(13)
O19_2 O 0.10735(13) 0.98444(10) 0.155685(14)
O20_3 O 0.31777(10) 0.77402(13) 0.010982(14)
Zn15_3 Zn 0.314910(17) 0.727166(12) 0.997682(2)
C1_2 C 0.99500(11) 0.10891(12) 0.145258(18)
C2_2 C 0.97910(11) 0.14969(11) 0.139589(17)
C3_2 C 0.96308(12) 0.14333(12) 0.127758(17)
H1_2 H 0.9647 0.1139 0.1233
C4_2 C 0.94498(12) 0.18006(12) 0.122634(17)
H2_2 H 0.9353 0.1755 0.1148
C5_2 C 0.97560(14) 0.19422(13) 0.145744(19)
H3_2 H 0.9859 0.1995 0.1536
C6_2 C 0.94106(12) 0.22304(12) 0.128917(17)
C7_2 C 0.83094(14) 0.22450(12) 0.13645(2)
H4_2 H 0.8238 0.1853 0.1358
C8_2 C 0.87913(13) 0.27104(11) 0.130887(18)
C9_2 C 0.88784(15) 0.32742(13) 0.13179(3)
H5_2 H 0.9193 0.3585 0.1277
C10_2 C 0.85129(14) 0.33980(12) 0.13865(3)
H6_2 H 0.8593 0.3791 0.1394
C11_2 C 0.79310(14) 0.23702(13) 0.14298(2)
H7_2 H 0.7598 0.2056 0.1465
C12_2 C 0.80375(14) 0.29470(11) 0.144267(19)
C13_2 C 0.92988(13) 0.27851(12) 0.112315(18)
C14_2 C 0.98542(12) 0.29884(13) 0.107406(18)
C15_2 C 0.95765(14) 0.23031(13) 0.14071(2)
H9_2 H 0.9563 0.2601 0.1451
C16_2 C 0.88531(13) 0.27850(15) 0.10571(2)
H10_2 H 0.8470 0.2637 0.1088
C17_2 C 0.89736(12) 0.30048(15) 0.09442(2)
H11_2 H 0.8670 0.3011 0.0901
C18_2 C 0.95280(10) 0.32132(11) 0.089400(17)
C19_2 C 0.99638(12) 0.31957(13) 0.096036(18)
C20_2 C 0.76155(18) 0.30545(13) 0.15128(2)
N1_2 N 0.91923(11) 0.25970(11) 0.124143(15)
O1_7 O 1.0000 0.0000 0.163360(16)
O2_2 O 0.99089(7) 0.06507(7) 0.139734(13)
O4_2 O 0.78040(12) 0.36043(12) 0.15419(2)
O5_2 O 0.71329(11) 0.26105(9) 0.154604(17)
Zn1_7 Zn 1.0000 -0.0000 0.146484(3)
C51_2 C 0.93977(18) 0.44217(12) 0.03022(2)
H28_2 H 0.9718 0.4814 0.0309
C56_2 C 0.94142(17) 0.39563(11) 0.035780(18)
C61_2 C 0.89375(20) 0.33925(13) 0.03488(3)
H33_2 H 0.8941 0.3082 0.0390
C66_2 C 0.84482(18) 0.32687(12) 0.02802(3)
H38_2 H 0.8135 0.2876 0.0273
C71_2 C 0.88941(19) 0.42965(13) 0.02369(2)
H43_2 H 0.8875 0.4611 0.0202
C76_2 C 0.84238(18) 0.37197(11) 0.022400(19)
C81_2 C 0.98470(18) 0.38816(12) 0.054352(18)
C96_2 C 0.94014(20) 0.38817(15) 0.06096(2)
H58_2 H 0.9166 0.4030 0.0579
C101_2 C 0.93021(19) 0.36619(15) 0.07225(2)
H63_2 H 0.8992 0.3656 0.0766
C106_2 C 0.96481(15) 0.34535(11) 0.077267(17)
C116_2 C 0.78943(22) 0.36122(13) 0.01539(2)
N2_2 N 0.99286(16) 0.40697(11) 0.042524(15)
O7_2 O 0.6667 0.3333 0.169973(16)
O25_2 O 0.75330(17) 0.30624(12) 0.01248(2)
O34_2 O 0.78557(14) 0.40562(9) 0.012063(17)
O40_2 O 0.73895(9) 0.45224(14) 0.154604(17)
Zn21_2 Zn 0.727166(12) 0.412255(12) 0.002318(2)
O1_8 O 1.0000 1.0000 0.163360(16)
Zn1_8 Zn 1.0000 1.0000 0.146484(3)
O15_2 O 0.93493(7) 0.92582(10) 0.139734(13)
O23_2 O 0.87709(9) 0.89265(13) 0.155685(14)
O32_2 O 0.63957(12) 0.41997(17) 0.15419(2)
C24_4 C 0.89109(19) 0.88609(16) 0.145258(18)
C25_4 C 0.44224(19) 0.66167(11) 0.021409(18)
C29_4 C 0.85031(19) 0.82941(16) 0.139589(17)
C30_4 C 0.48302(19) 0.64577(11) 0.027078(17)
C34_4 C 0.85667(21) 0.81975(17) 0.127758(17)
C35_4 C 0.47666(21) 0.62975(12) 0.038909(17)
H16_4 H 0.8861 0.8508 0.1233
H17_4 H 0.4472 0.6314 0.0434
C39_4 C 0.81994(21) 0.76492(17) 0.122634(17)
C40_4 C 0.51339(21) 0.61165(12) 0.044033(17)
H21_4 H 0.8245 0.7598 0.1148
H22_4 H 0.5088 0.6020 0.0519
C44_4 C 0.80578(24) 0.78138(19) 0.145744(19)
C45_4 C 0.52755(24) 0.64227(14) 0.020923(19)
H26_4 H 0.8005 0.7864 0.1536
H27_4 H 0.5328 0.6526 0.0131
C49_4 C 0.77696(21) 0.71802(17) 0.128917(17)
C50_4 C 0.55637(21) 0.60773(12) 0.037750(17)
C54_4 C 0.77550(23) 0.60644(18) 0.13645(2)
C55_4 C 0.55783(23) 0.49761(14) 0.03022(2)
H31_4 H 0.8147 0.6385 0.1358
H32_4 H 0.5186 0.4905 0.0309
C59_4 C 0.72896(21) 0.60809(17) 0.130887(18)
C60_4 C 0.60437(21) 0.54580(13) 0.035780(18)
C64_4 C 0.67258(25) 0.56042(20) 0.13179(3)
C65_4 C 0.66075(25) 0.55451(15) 0.03488(3)
H36_4 H 0.6415 0.5608 0.1277
H37_4 H 0.6918 0.5860 0.0390
C69_4 C 0.66020(23) 0.51149(18) 0.13865(3)
C70_4 C 0.67313(23) 0.51796(14) 0.02802(3)
H41_4 H 0.6209 0.4802 0.1394
H42_4 H 0.7124 0.5260 0.0273
C74_4 C 0.76298(24) 0.55608(19) 0.14298(2)
C75_4 C 0.57035(24) 0.45977(14) 0.02369(2)
H46_4 H 0.7944 0.5542 0.1465
H47_4 H 0.5389 0.4265 0.0202
C79_4 C 0.70530(23) 0.50905(18) 0.144267(19)
C80_4 C 0.62803(23) 0.47042(14) 0.022400(19)
C84_4 C 0.72149(22) 0.65137(18) 0.112315(18)
C85_4 C 0.61184(22) 0.59655(13) 0.054352(18)
C89_4 C 0.70116(22) 0.68658(18) 0.107406(18)
C90_4 C 0.63217(22) 0.65209(12) 0.059261(18)
H51_4 H 0.7013 0.7172 0.1117
H52_4 H 0.6320 0.6826 0.0550
C94_4 C 0.76969(24) 0.72734(19) 0.14071(2)
C95_4 C 0.56364(24) 0.62432(14) 0.02596(2)
H56_4 H 0.7399 0.6962 0.1451
H57_4 H 0.5934 0.6230 0.0216
C99_4 C 0.72150(24) 0.60681(20) 0.10571(2)
C100_4 C 0.61183(24) 0.55198(13) 0.06096(2)
H61_4 H 0.7363 0.5833 0.1088
H62_4 H 0.5970 0.5137 0.0579
C104_4 C 0.69952(22) 0.59688(19) 0.09442(2)
C105_4 C 0.63381(22) 0.56403(12) 0.07225(2)
H66_4 H 0.6989 0.5659 0.0901
H67_4 H 0.6344 0.5337 0.0766
C109_4 C 0.67868(18) 0.63148(15) 0.089400(17)
C110_4 C 0.65465(18) 0.61947(10) 0.077267(17)
C114_4 C 0.68043(22) 0.67681(18) 0.096036(18)
C115_4 C 0.65290(22) 0.66305(12) 0.070631(18)
H71_4 H 0.6674 0.7016 0.0928
H72_4 H 0.6659 0.7009 0.0739
C119_4 C 0.69455(28) 0.45610(22) 0.15128(2)
C120_4 C 0.63878(28) 0.42822(18) 0.01539(2)
N5_4 N 0.74030(19) 0.65953(16) 0.124143(15)
N6_4 N 0.59303(19) 0.58590(11) 0.042524(15)
O12_4 O 0.39840(12) 0.65756(7) 0.026933(13)
O20_4 O 0.45624(16) 0.68223(10) 0.010982(14)
O29_4 O 0.69376(21) 0.44707(12) 0.01248(2)
O38_4 O 0.59438(18) 0.37996(11) 0.012063(17)
Zn15_4 Zn 0.412255(21) 0.685090(17) 0.997682(2)
H5_3 H 0.0252 0.2526 0.7056
C10_3 C 0.00647(12) 0.18462(14) 0.69468(3)
H6_3 H 0.0458 0.1926 0.6939
O4_3 O 0.02710(12) 0.11373(12) 0.67914(2)
C21_3 C 0.22442(12) 0.55276(16) 0.811925(18)
C26_3 C 0.18364(11) 0.49608(16) 0.806256(17)
C31_3 C 0.19000(12) 0.48642(17) 0.794425(17)
H13_3 H 0.2194 0.5175 0.7900
C36_3 C 0.15327(12) 0.43159(17) 0.789301(17)
H18_3 H 0.1578 0.4265 0.7815
C41_3 C 0.13911(13) 0.44805(19) 0.812411(19)
H23_3 H 0.1338 0.4531 0.8203
C46_3 C 0.11029(12) 0.38469(17) 0.795584(17)
C51_3 C 0.10883(12) 0.27311(18) 0.80312(2)
H28_3 H 0.1480 0.3052 0.8025
C56_3 C 0.06229(11) 0.27476(17) 0.797554(18)
C61_3 C 0.00591(13) 0.22709(20) 0.79846(3)
C71_3 C 0.09631(13) 0.22275(19) 0.80965(2)
H43_3 H 0.1277 0.2209 0.8132
C76_3 C 0.03863(11) 0.17572(18) 0.810934(19)
C81_3 C 0.05482(12) 0.31804(18) 0.778982(18)
C86_3 C 0.03449(13) 0.35325(18) 0.774073(18)
H48_3 H 0.0346 0.3839 0.7784
C91_3 C 0.10302(13) 0.39401(19) 0.80738(2)
H53_3 H 0.0732 0.3629 0.8118
C96_3 C 0.05483(15) 0.27348(20) 0.77238(2)
H58_3 H 0.0696 0.2500 0.7755
C101_3 C 0.03285(15) 0.26355(19) 0.76109(2)
H63_3 H 0.0322 0.2326 0.7568
C106_3 C 0.01201(11) 0.29815(15) 0.756067(17)
C111_3 C 0.01376(13) 0.34348(18) 0.762703(18)
H68_3 H 0.0007 0.3683 0.7595
C116_3 C 0.02788(13) 0.12277(22) 0.81795(2)
N2_3 N 0.07363(11) 0.32620(16) 0.790810(15)
O7_3 O 0.0000 0.0000 0.663360(16)
O8_3 O 0.26826(7) 0.59249(10) 0.806401(13)
O16_3 O 0.21042(9) 0.55932(13) 0.822352(14)
O22_2 O 0.10735(13) 0.12291(9) 0.655685(14)
O34_3 O 0.07228(9) 0.11891(14) 0.821271(17)
O40_3 O 0.11891(14) 0.07228(9) 0.678729(17)
Zn5_3 Zn 0.3333 0.6667 0.813151(3)
Zn9_2 Zn 0.060499(12) 0.078922(12) 0.668985(2)
Zn14_3 Zn 0.254411(12) 0.606168(12) 0.835652(2)
Zn20_2 Zn 0.018423(17) 0.939501(12) 0.668985(2)
Zn21_3 Zn 0.078922(12) 0.060499(12) 0.831015(2)
O7_4 O 0.0000 1.0000 0.663360(16)
Zn24_3 Zn 0.939501(12) 0.018423(17) 0.831015(2)
C1_3 C 0.77558(12) 0.32833(11) 0.688075(18)
C2_3 C 0.81636(11) 0.31243(11) 0.693744(17)
C3_3 C 0.81000(12) 0.29641(12) 0.705575(17)
H1_3 H 0.7806 0.2980 0.7100
C4_3 C 0.84673(12) 0.27831(12) 0.710699(17)
H2_3 H 0.8422 0.2686 0.7185
C5_3 C 0.86089(13) 0.30893(14) 0.687589(19)
H3_3 H 0.8662 0.3192 0.6797
C6_3 C 0.88971(12) 0.27439(12) 0.704416(17)
C7_3 C 0.89117(12) 0.16427(14) 0.69688(2)
H4_3 H 0.8520 0.1571 0.6975
C8_3 C 0.93771(11) 0.21246(13) 0.702446(18)
C9_3 C 0.99409(13) 0.22117(15) 0.70154(3)
C11_3 C 0.90369(13) 0.12643(14) 0.69035(2)
H7_3 H 0.8723 0.0931 0.6868
C12_3 C 0.96137(11) 0.13708(14) 0.689066(19)
C13_3 C 0.94518(12) 0.26321(13) 0.721018(18)
C14_3 C 0.96551(13) 0.31875(12) 0.725927(18)
H8_3 H 0.9654 0.3492 0.7216
C15_3 C 0.89698(13) 0.29098(14) 0.69262(2)
H9_3 H 0.9268 0.2896 0.6882
C16_3 C 0.94517(15) 0.21864(13) 0.72762(2)
H10_3 H 0.9304 0.1803 0.7245
C17_3 C 0.96715(15) 0.23069(12) 0.73891(2)
H11_3 H 0.9678 0.2003 0.7432
C18_3 C 0.98799(11) 0.28613(10) 0.743933(17)
C19_3 C 0.98624(13) 0.32971(12) 0.737297(18)
H12_3 H 0.9993 0.3675 0.7405
C20_3 C 0.97212(13) 0.09488(18) 0.68205(2)
N1_3 N 0.92637(11) 0.25256(11) 0.709190(15)
O1_9 O 0.6667 0.3333 0.669973(16)
O2_3 O 0.73174(7) 0.32422(7) 0.693599(13)
O3_3 O 0.78958(9) 0.34889(10) 0.677648(14)
O5_3 O 0.92772(9) 0.04662(11) 0.678729(17)
Zn1_9 Zn 0.6667 0.3333 0.686849(3)
Zn2_2 Zn 0.606168(12) 0.254411(12) 0.664348(2)
C22_4 C 0.11391(16) 0.10891(12) 0.645258(18)
C23_4 C 0.33833(11) 0.55776(12) 0.521409(18)
C24_5 C 0.67167(11) 0.44724(16) 0.688075(18)
C25_5 C 0.44724(16) 0.67167(11) 0.811925(18)
C27_4 C 0.17059(16) 0.14969(11) 0.639589(17)
C28_4 C 0.35423(11) 0.51698(11) 0.527078(17)
C29_5 C 0.68757(11) 0.50392(16) 0.693744(17)
C30_5 C 0.50392(16) 0.68757(11) 0.806256(17)
C32_4 C 0.18025(17) 0.14333(12) 0.627758(17)
C33_4 C 0.37025(12) 0.52334(12) 0.538909(17)
C34_5 C 0.70359(12) 0.51358(17) 0.705575(17)
C35_5 C 0.51358(17) 0.70359(12) 0.794425(17)
H14_4 H 0.1492 0.1139 0.6233
H15_4 H 0.3686 0.5528 0.5434
H16_5 H 0.7020 0.4825 0.7100
H17_5 H 0.4825 0.7020 0.7900
C37_4 C 0.23508(17) 0.18006(12) 0.622634(17)
C38_4 C 0.38835(12) 0.48661(12) 0.544033(17)
C39_5 C 0.72169(12) 0.56841(17) 0.710699(17)
C40_5 C 0.56841(17) 0.72169(12) 0.789301(17)
H19_4 H 0.2402 0.1755 0.6148
H20_4 H 0.3980 0.4912 0.5519
H21_5 H 0.7314 0.5735 0.7185
H22_5 H 0.5735 0.7314 0.7815
C42_4 C 0.21862(19) 0.19422(13) 0.645744(19)
C43_4 C 0.35773(14) 0.47245(13) 0.520923(19)
C44_5 C 0.69107(14) 0.55195(19) 0.687589(19)
C45_5 C 0.55195(19) 0.69107(14) 0.812411(19)
H24_4 H 0.2136 0.1995 0.6536
H25_4 H 0.3474 0.4672 0.5131
H26_5 H 0.6808 0.5469 0.6797
H27_5 H 0.5469 0.6808 0.8203
C47_4 C 0.28198(17) 0.22304(12) 0.628917(17)
C48_4 C 0.39227(12) 0.44363(12) 0.537750(17)
C49_5 C 0.72561(12) 0.61531(17) 0.704416(17)
C50_5 C 0.61531(17) 0.72561(12) 0.795584(17)
C52_4 C 0.39356(18) 0.22450(12) 0.63645(2)
C53_4 C 0.50239(14) 0.44217(12) 0.53022(2)
C54_5 C 0.83573(14) 0.72689(18) 0.69688(2)
C55_5 C 0.72689(18) 0.83573(14) 0.80312(2)
H29_4 H 0.3615 0.1853 0.6358
H30_4 H 0.5095 0.4814 0.5309
H31_5 H 0.8429 0.6948 0.6975
H32_5 H 0.6948 0.8429 0.8025
C57_4 C 0.39191(17) 0.27104(11) 0.630887(18)
C58_4 C 0.45420(13) 0.39563(11) 0.535780(18)
C59_5 C 0.78754(13) 0.72524(17) 0.702446(18)
C60_5 C 0.72524(17) 0.78754(13) 0.797554(18)
C62_4 C 0.43958(20) 0.32742(13) 0.63179(3)
C63_4 C 0.44549(15) 0.33925(13) 0.53488(3)
C64_5 C 0.77883(15) 0.77291(20) 0.70154(3)
C65_5 C 0.77291(20) 0.77883(15) 0.79846(3)
H33_3 H 0.9748 0.2275 0.7944
H34_4 H 0.4392 0.3585 0.6277
H35_4 H 0.4140 0.3082 0.5390
H36_5 H 0.7474 0.7725 0.7056
H37_5 H 0.7725 0.7474 0.7944
C66_3 C 0.99353(12) 0.17816(18) 0.80532(3)
C67_4 C 0.48851(18) 0.33980(12) 0.63865(3)
C68_4 C 0.48204(14) 0.32687(12) 0.52802(3)
C69_5 C 0.81538(14) 0.82184(18) 0.69468(3)
C70_5 C 0.82184(18) 0.81538(14) 0.80532(3)
H38_3 H 0.9542 0.1469 0.8061
H39_4 H 0.5198 0.3791 0.6394
H40_4 H 0.4740 0.2876 0.5273
H41_5 H 0.8074 0.8531 0.6939
H42_5 H 0.8531 0.8074 0.8061
C72_4 C 0.44392(19) 0.23702(13) 0.64298(2)
C73_4 C 0.54023(14) 0.42965(13) 0.52369(2)
C74_5 C 0.87357(14) 0.77725(19) 0.69035(2)
C75_5 C 0.77725(19) 0.87357(14) 0.80965(2)
H44_4 H 0.4458 0.2056 0.6465
H45_4 H 0.5735 0.4611 0.5202
H46_5 H 0.9069 0.7791 0.6868
H47_5 H 0.7791 0.9069 0.8132
C77_4 C 0.49095(18) 0.29470(11) 0.644267(19)
C78_4 C 0.52958(14) 0.37197(11) 0.522400(19)
C79_5 C 0.86292(14) 0.82428(18) 0.689066(19)
C80_5 C 0.82428(18) 0.86292(14) 0.810934(19)
C82_4 C 0.34863(18) 0.27851(12) 0.612315(18)
C83_4 C 0.40345(13) 0.38816(12) 0.554352(18)
C84_5 C 0.73679(13) 0.68196(18) 0.721018(18)
C85_5 C 0.68196(18) 0.73679(13) 0.778982(18)
C87_4 C 0.31342(18) 0.29884(13) 0.607406(18)
C88_4 C 0.34791(12) 0.36783(13) 0.559261(18)
C89_5 C 0.68125(12) 0.64675(18) 0.725927(18)
C90_5 C 0.64675(18) 0.68125(12) 0.774073(18)
H49_4 H 0.2828 0.2987 0.6117
H50_4 H 0.3174 0.3680 0.5550
H51_5 H 0.6508 0.6161 0.7216
H52_5 H 0.6161 0.6508 0.7784
C92_4 C 0.27266(19) 0.23031(13) 0.64071(2)
C93_4 C 0.37568(14) 0.43636(13) 0.52596(2)
C94_5 C 0.70902(14) 0.60599(19) 0.69262(2)
C95_5 C 0.60599(19) 0.70902(14) 0.80738(2)
H54_4 H 0.3038 0.2601 0.6451
H55_4 H 0.3770 0.4066 0.5216
H56_5 H 0.7104 0.6371 0.6882
H57_5 H 0.6371 0.7104 0.8118
C97_4 C 0.39319(20) 0.27850(15) 0.60571(2)
C98_4 C 0.44802(13) 0.38817(15) 0.56096(2)
C99_5 C 0.78136(13) 0.72652(20) 0.72762(2)
C100_5 C 0.72652(20) 0.78136(13) 0.77238(2)
H59_4 H 0.4167 0.2637 0.6088
H60_4 H 0.4863 0.4030 0.5579
H61_5 H 0.8197 0.7500 0.7245
H62_5 H 0.7500 0.8197 0.7755
C102_4 C 0.40312(19) 0.30048(15) 0.59442(2)
C103_4 C 0.43597(12) 0.36619(15) 0.57225(2)
C104_5 C 0.76931(12) 0.73645(19) 0.73891(2)
C105_5 C 0.73645(19) 0.76931(12) 0.76109(2)
H64_4 H 0.4341 0.3011 0.5901
H65_4 H 0.4663 0.3656 0.5766
H66_5 H 0.7997 0.7674 0.7432
H67_5 H 0.7674 0.7997 0.7568
C107_4 C 0.36852(15) 0.32132(11) 0.589400(17)
C108_4 C 0.38053(10) 0.34535(11) 0.577267(17)
C109_5 C 0.71387(10) 0.70185(15) 0.743933(17)
C110_5 C 0.70185(15) 0.71387(10) 0.756067(17)
C112_4 C 0.32319(18) 0.31957(13) 0.596036(18)
C113_4 C 0.33695(12) 0.34710(13) 0.570631(18)
C114_5 C 0.67029(12) 0.65652(18) 0.737297(18)
C115_5 C 0.65652(18) 0.67029(12) 0.762703(18)
H69_4 H 0.2984 0.3326 0.5928
H70_4 H 0.2991 0.3341 0.5739
H71_5 H 0.6325 0.6317 0.7405
H72_5 H 0.6317 0.6325 0.7595
C117_4 C 0.54390(22) 0.30545(13) 0.65128(2)
C118_4 C 0.57178(18) 0.36122(13) 0.51539(2)
C119_5 C 0.90512(18) 0.87723(22) 0.68205(2)
C120_5 C 0.87723(22) 0.90512(18) 0.81795(2)
N3_4 N 0.34047(16) 0.25970(11) 0.624143(15)
N4_4 N 0.41410(11) 0.40697(11) 0.542524(15)
N5_5 N 0.74744(11) 0.67380(16) 0.709190(15)
N6_5 N 0.67380(16) 0.74744(11) 0.790810(15)
O7_5 O 1.0000 0.0000 0.663360(16)
O9_2 O 0.07418(10) 0.06507(7) 0.639734(13)
O10_4 O 0.34244(7) 0.60160(7) 0.526933(13)
O11_3 O 0.67578(7) 0.40751(10) 0.693599(13)
O12_5 O 0.40751(10) 0.67578(7) 0.806401(13)
O15_3 O 0.59249(10) 0.26826(7) 0.693599(13)
O18_4 O 0.31777(10) 0.54376(9) 0.510982(14)
O19_3 O 0.65111(10) 0.44068(13) 0.677648(14)
O20_5 O 0.44068(13) 0.65111(10) 0.822352(14)
O23_3 O 0.55932(13) 0.21042(9) 0.677648(14)
O25_3 O 0.97290(12) 0.08664(17) 0.82086(2)
O26_2 O 0.58003(17) 0.36043(12) 0.65419(2)
O27_4 O 0.55293(12) 0.30624(12) 0.51248(2)
O28_3 O 0.88627(12) 0.91336(17) 0.67914(2)
O29_5 O 0.91336(17) 0.88627(12) 0.82086(2)
O31_2 O 0.78040(12) 0.41997(17) 0.65419(2)
O33_2 O 0.63957(12) 0.21960(12) 0.65419(2)
O35_2 O 0.54776(14) 0.26105(9) 0.654604(17)
O36_4 O 0.62004(11) 0.40562(9) 0.512063(17)
O37_3 O 0.95338(11) 0.88109(14) 0.678729(17)
O38_5 O 0.88109(14) 0.95338(11) 0.821271(17)
O41_2 O 0.71329(11) 0.45224(14) 0.654604(17)
O42_2 O 0.73895(9) 0.28671(11) 0.654604(17)
Zn3_2 Zn 0.0000 0.0000 0.646484(3)
Zn6_2 Zn 0.3333 0.6667 0.520183(3)
Zn7_2 Zn 0.745589(12) 0.351756(17) 0.664348(2)
Zn8_2 Zn 0.648244(17) 0.393832(12) 0.664348(2)
Zn15_5 Zn 0.393832(12) 0.648244(17) 0.835652(2)
Zn19_2 Zn 0.921078(12) 0.981577(17) 0.668985(2)
Zn22_3 Zn 0.981577(17) 0.921078(12) 0.831015(2)
O7_6 O 1.0000 1.0000 0.663360(16)
O21_2 O 0.01556(10) 0.89265(13) 0.655685(14)
O24_2 O 0.87709(9) 0.98444(10) 0.655685(14)
O32_3 O 0.08664(17) 0.97290(12) 0.67914(2)
Zn3_3 Zn 0.0000 1.0000 0.646484(3)
O13_2 O 0.93493(7) 0.00911(7) 0.639734(13)
Zn3_4 Zn 1.0000 0.0000 0.646484(3)
O14_2 O 0.99089(7) 0.92582(10) 0.639734(13)
Zn3_5 Zn 1.0000 1.0000 0.646484(3)
C22_5 C 0.89109(12) 0.00500(20) 0.645258(18)
C24_6 C 0.55276(16) 0.22442(19) 0.688075(18)
C27_5 C 0.85031(11) 0.02090(19) 0.639589(17)
C29_6 C 0.49608(16) 0.18364(19) 0.693744(17)
C32_5 C 0.85667(12) 0.03692(21) 0.627758(17)
C34_6 C 0.48642(17) 0.19000(21) 0.705575(17)
H14_5 H 0.8861 0.0353 0.6233
H16_6 H 0.5175 0.2194 0.7100
C37_5 C 0.81994(12) 0.05502(21) 0.622634(17)
C39_6 C 0.43159(17) 0.15327(21) 0.710699(17)
H19_5 H 0.8245 0.0647 0.6148
H21_6 H 0.4265 0.1578 0.7185
C42_5 C 0.80578(13) 0.02440(23) 0.645744(19)
C44_6 C 0.44805(19) 0.13911(24) 0.687589(19)
H24_5 H 0.8005 0.0141 0.6536
H26_6 H 0.4531 0.1338 0.6797
C47_5 C 0.77696(12) 0.05894(21) 0.628917(17)
C49_6 C 0.38469(17) 0.11029(21) 0.704416(17)
C52_5 C 0.77550(12) 0.16906(22) 0.63645(2)
C53_5 C 0.55783(12) 0.06023(18) 0.53022(2)
C54_6 C 0.27311(18) 0.10883(23) 0.69688(2)
H29_5 H 0.8147 0.1762 0.6358
H30_5 H 0.5186 0.0282 0.5309
H31_6 H 0.3052 0.1480 0.6975
C57_5 C 0.72896(11) 0.12087(20) 0.630887(18)
C58_5 C 0.60437(11) 0.05858(17) 0.535780(18)
C59_6 C 0.27476(17) 0.06229(21) 0.702446(18)
C62_5 C 0.67258(13) 0.11216(24) 0.63179(3)
C63_5 C 0.66075(13) 0.10625(20) 0.53488(3)
C64_6 C 0.22709(20) 0.00591(25) 0.70154(3)
H34_5 H 0.6415 0.0807 0.6277
H35_5 H 0.6918 0.1059 0.5390
H37_6 H 0.2526 0.0252 0.7944
C67_5 C 0.66020(12) 0.14871(22) 0.63865(3)
C68_5 C 0.67313(12) 0.15518(18) 0.52802(3)
C70_6 C 0.18462(14) 0.00647(23) 0.80532(3)
H39_5 H 0.6209 0.1407 0.6394
H40_5 H 0.7124 0.1865 0.5273
H42_6 H 0.1926 0.0458 0.8061
C72_5 C 0.76298(13) 0.20690(23) 0.64298(2)
C73_5 C 0.57035(13) 0.11059(19) 0.52369(2)
C74_6 C 0.22275(19) 0.09631(24) 0.69035(2)
H44_5 H 0.7944 0.2402 0.6465
H45_5 H 0.5389 0.1125 0.5202
H46_6 H 0.2209 0.1277 0.6868
C77_5 C 0.70530(11) 0.19625(21) 0.644267(19)
C78_5 C 0.62803(11) 0.15762(18) 0.522400(19)
C79_6 C 0.17572(18) 0.03863(23) 0.689066(19)
C82_5 C 0.72149(12) 0.07012(22) 0.612315(18)
C83_5 C 0.61184(12) 0.01530(18) 0.554352(18)
C84_6 C 0.31804(18) 0.05482(22) 0.721018(18)
C87_5 C 0.70116(13) 0.01458(22) 0.607406(18)
C89_6 C 0.35325(18) 0.03449(22) 0.725927(18)
H51_6 H 0.3839 0.0346 0.7216
C92_5 C 0.76969(13) 0.04235(23) 0.64071(2)
C94_6 C 0.39401(19) 0.10302(24) 0.69262(2)
H54_5 H 0.7399 0.0437 0.6451
H56_6 H 0.3629 0.0732 0.6882
C97_5 C 0.72150(15) 0.11469(25) 0.60571(2)
C98_5 C 0.61183(15) 0.05986(20) 0.56096(2)
C99_6 C 0.27348(20) 0.05483(24) 0.72762(2)
H59_5 H 0.7363 0.1530 0.6088
H60_5 H 0.5970 0.0834 0.5579
H61_6 H 0.2500 0.0696 0.7245
C102_5 C 0.69952(15) 0.10264(24) 0.59442(2)
C103_5 C 0.63381(15) 0.06979(19) 0.57225(2)
C104_6 C 0.26355(19) 0.03285(22) 0.73891(2)
H64_5 H 0.6989 0.1330 0.5901
H65_5 H 0.6344 0.1008 0.5766
H66_6 H 0.2326 0.0322 0.7432
C107_5 C 0.67868(11) 0.04720(19) 0.589400(17)
C108_5 C 0.65465(11) 0.03519(15) 0.577267(17)
C109_6 C 0.29815(15) 0.01201(18) 0.743933(17)
C112_5 C 0.68043(13) 0.00362(22) 0.596036(18)
C114_6 C 0.34348(18) 0.01376(22) 0.737297(18)
H71_6 H 0.3683 0.0007 0.7405
C117_5 C 0.69455(13) 0.23845(26) 0.65128(2)
C118_5 C 0.63878(13) 0.21057(22) 0.51539(2)
C119_6 C 0.12277(22) 0.02788(28) 0.68205(2)
N3_5 N 0.74030(11) 0.08077(19) 0.624143(15)
N4_5 N 0.59303(11) 0.00714(16) 0.542524(15)
N5_6 N 0.32620(16) 0.07363(19) 0.709190(15)
O27_5 O 0.69376(12) 0.24670(17) 0.51248(2)
O29_6 O 0.11373(12) 0.02710(21) 0.82086(2)
O36_5 O 0.59438(9) 0.21443(14) 0.512063(17)
C23_5 C 0.44224(12) 0.78058(16) 0.521409(18)
C25_6 C 0.32833(11) 0.77558(19) 0.811925(18)
C28_5 C 0.48302(11) 0.83726(16) 0.527078(17)
C30_6 C 0.31243(11) 0.81636(19) 0.806256(17)
C33_5 C 0.47666(12) 0.84692(17) 0.538909(17)
C35_6 C 0.29641(12) 0.81000(21) 0.794425(17)
H15_5 H 0.4472 0.8159 0.5434
H17_6 H 0.2980 0.7806 0.7900
C38_5 C 0.51339(12) 0.90175(17) 0.544033(17)
C40_6 C 0.27831(12) 0.84673(21) 0.789301(17)
H20_5 H 0.5088 0.9069 0.5519
H22_6 H 0.2686 0.8422 0.7815
C43_5 C 0.52755(13) 0.88529(19) 0.520923(19)
C45_6 C 0.30893(14) 0.86089(24) 0.812411(19)
H25_5 H 0.5328 0.8803 0.5131
H27_6 H 0.3192 0.8662 0.8203
C48_5 C 0.55637(12) 0.94865(17) 0.537750(17)
C50_6 C 0.27439(12) 0.88971(21) 0.795584(17)
C55_6 C 0.16427(14) 0.89117(23) 0.80312(2)
H32_6 H 0.1571 0.8520 0.8025
C60_6 C 0.21246(13) 0.93771(21) 0.797554(18)
C65_6 C 0.22117(15) 0.99409(25) 0.79846(3)
H36_6 H 0.2275 0.9748 0.7056
C69_6 C 0.17816(18) 0.99353(23) 0.69468(3)
H41_6 H 0.1469 0.9542 0.6939
C75_6 C 0.12643(14) 0.90369(24) 0.80965(2)
H47_6 H 0.0931 0.8723 0.8132
C80_6 C 0.13708(14) 0.96137(23) 0.810934(19)
C85_6 C 0.26321(13) 0.94518(22) 0.778982(18)
C88_5 C 0.63217(13) 0.98009(18) 0.559261(18)
C90_6 C 0.31875(12) 0.96551(22) 0.774073(18)
H49_5 H 0.7013 0.9841 0.6117
H50_5 H 0.6320 0.9495 0.5550
H52_6 H 0.3492 0.9654 0.7784
C93_5 C 0.56364(13) 0.93933(19) 0.52596(2)
C95_6 C 0.29098(14) 0.89698(24) 0.80738(2)
H55_5 H 0.5934 0.9705 0.5216
H57_6 H 0.2896 0.9268 0.8118
C100_6 C 0.21864(13) 0.94517(24) 0.77238(2)
H62_6 H 0.1803 0.9304 0.7755
C105_6 C 0.23069(12) 0.96715(22) 0.76109(2)
H67_6 H 0.2003 0.9678 0.7568
C110_6 C 0.28613(10) 0.98799(18) 0.756067(17)
C113_5 C 0.65290(13) 0.98986(18) 0.570631(18)
C115_6 C 0.32971(12) 0.98624(22) 0.762703(18)
H69_5 H 0.6674 0.9658 0.5928
H70_5 H 0.6659 0.9651 0.5739
H72_6 H 0.3675 0.9993 0.7595
C120_6 C 0.09488(18) 0.97212(28) 0.81795(2)
N6_6 N 0.25256(11) 0.92637(19) 0.790810(15)
O10_5 O 0.39840(7) 0.74085(10) 0.526933(13)
O12_6 O 0.32422(7) 0.73174(12) 0.806401(13)
O18_5 O 0.45624(9) 0.77402(13) 0.510982(14)
O20_6 O 0.34889(10) 0.78958(16) 0.822352(14)
O38_6 O 0.04662(11) 0.92772(18) 0.821271(17)
Zn15_6 Zn 0.351756(17) 0.745589(21) 0.835652(2)
C23_6 C 0.21942(16) 0.66167(11) 0.521409(18)
C28_6 C 0.16274(16) 0.64577(11) 0.527078(17)
C33_6 C 0.15308(17) 0.62975(12) 0.538909(17)
H15_6 H 0.1841 0.6314 0.5434
C38_6 C 0.09825(17) 0.61165(12) 0.544033(17)
H20_6 H 0.0931 0.6020 0.5519
C43_6 C 0.11471(19) 0.64227(14) 0.520923(19)
H25_6 H 0.1197 0.6526 0.5131
C48_6 C 0.05135(17) 0.60773(12) 0.537750(17)
C88_6 C 0.01991(18) 0.65209(12) 0.559261(18)
H49_6 H 0.0159 0.7172 0.6117
H50_6 H 0.0505 0.6826 0.5550
C93_6 C 0.06067(19) 0.62432(14) 0.52596(2)
H55_6 H 0.0295 0.6230 0.5216
C113_6 C 0.01014(18) 0.66305(12) 0.570631(18)
H69_6 H 0.0342 0.7016 0.5928
H70_6 H 0.0349 0.7009 0.5739
O10_6 O 0.25915(10) 0.65756(7) 0.526933(13)
O18_6 O 0.22598(13) 0.68223(10) 0.510982(14)
C22_6 C 0.99500(20) 0.88609(16) 0.645258(18)
C27_6 C 0.97910(19) 0.82941(16) 0.639589(17)
C32_6 C 0.96308(21) 0.81975(17) 0.627758(17)
H14_6 H 0.9647 0.8508 0.6233
C37_6 C 0.94498(21) 0.76492(17) 0.622634(17)
H19_6 H 0.9353 0.7598 0.6148
C42_6 C 0.97560(23) 0.78138(19) 0.645744(19)
H24_6 H 0.9859 0.7864 0.6536
C47_6 C 0.94106(21) 0.71802(17) 0.628917(17)
C52_6 C 0.83094(22) 0.60644(18) 0.63645(2)
C53_6 C 0.93977(18) 0.49761(14) 0.53022(2)
H29_6 H 0.8238 0.6385 0.6358
H30_6 H 0.9718 0.4905 0.5309
C57_6 C 0.87913(20) 0.60809(17) 0.630887(18)
C58_6 C 0.94142(17) 0.54580(13) 0.535780(18)
C62_6 C 0.88784(24) 0.56042(20) 0.63179(3)
C63_6 C 0.89375(20) 0.55451(15) 0.53488(3)
H34_6 H 0.9193 0.5608 0.6277
H35_6 H 0.8941 0.5860 0.5390
C67_6 C 0.85129(22) 0.51149(18) 0.63865(3)
C68_6 C 0.84482(18) 0.51796(14) 0.52802(3)
H39_6 H 0.8593 0.4802 0.6394
H40_6 H 0.8135 0.5260 0.5273
C72_6 C 0.79310(23) 0.55608(19) 0.64298(2)
C73_6 C 0.88941(19) 0.45977(14) 0.52369(2)
H44_6 H 0.7598 0.5542 0.6465
H45_6 H 0.8875 0.4265 0.5202
C77_6 C 0.80375(21) 0.50905(18) 0.644267(19)
C78_6 C 0.84238(18) 0.47042(14) 0.522400(19)
C82_6 C 0.92988(22) 0.65137(18) 0.612315(18)
C83_6 C 0.98470(18) 0.59655(13) 0.554352(18)
C87_6 C 0.98542(22) 0.68658(18) 0.607406(18)
C92_6 C 0.95765(23) 0.72734(19) 0.64071(2)
H54_6 H 0.9563 0.6962 0.6451
C97_6 C 0.88531(25) 0.60681(20) 0.60571(2)
C98_6 C 0.94014(20) 0.55198(13) 0.56096(2)
H59_6 H 0.8470 0.5833 0.6088
H60_6 H 0.9166 0.5137 0.5579
C102_6 C 0.89736(24) 0.59688(19) 0.59442(2)
C103_6 C 0.93021(19) 0.56403(12) 0.57225(2)
H64_6 H 0.8670 0.5659 0.5901
H65_6 H 0.8992 0.5337 0.5766
C107_6 C 0.95280(19) 0.63148(15) 0.589400(17)
C108_6 C 0.96481(15) 0.61947(10) 0.577267(17)
C112_6 C 0.99638(22) 0.67681(18) 0.596036(18)
C117_6 C 0.76155(26) 0.45610(22) 0.65128(2)
C118_6 C 0.78943(22) 0.42822(18) 0.51539(2)
N3_6 N 0.91923(19) 0.65953(16) 0.624143(15)
N4_6 N 0.99286(16) 0.58590(11) 0.542524(15)
O27_6 O 0.75330(17) 0.44707(12) 0.51248(2)
O36_6 O 0.78557(14) 0.37996(11) 0.512063(17)
O1_10 O 0.6667 0.3333 0.496693(16)
O7_7 O 0.3333 0.6667 0.503307(16)
Zn6_3 Zn 0.0000 -0.0000 0.853516(3)
O1_11 O 0.3333 0.6667 0.003307(16)
C23_7 C 0.00500(11) 0.89109(12) 0.854742(18)
C28_7 C 0.02090(11) 0.85031(11) 0.860411(17)
C33_7 C 0.03692(12) 0.85667(12) 0.872242(17)
H15_7 H 0.0353 0.8861 0.8767
C38_7 C 0.05502(12) 0.81994(12) 0.877366(17)
H20_7 H 0.0647 0.8245 0.8852
C43_7 C 0.02440(14) 0.80578(13) 0.854256(19)
H25_7 H 0.0141 0.8005 0.8464
C48_7 C 0.05894(12) 0.77696(12) 0.871083(17)
C52_7 C 0.06023(18) 0.55783(12) 0.96978(2)
C53_7 C 0.16906(14) 0.77550(12) 0.86355(2)
H29_7 H 0.0282 0.5186 0.9691
H30_7 H 0.1762 0.8147 0.8642
C57_7 C 0.05858(17) 0.60437(11) 0.964220(18)
C58_7 C 0.12087(13) 0.72896(11) 0.869113(18)
C62_7 C 0.10625(20) 0.66075(13) 0.96512(3)
C63_7 C 0.11216(15) 0.67258(13) 0.86821(3)
H34_7 H 0.1059 0.6918 0.9610
H35_7 H 0.0807 0.6415 0.8723
C67_7 C 0.15518(18) 0.67313(12) 0.97198(3)
C68_7 C 0.14871(14) 0.66020(12) 0.86135(3)
H39_7 H 0.1865 0.7124 0.9727
H40_7 H 0.1407 0.6209 0.8606
C72_7 C 0.11059(19) 0.57035(13) 0.97631(2)
C73_7 C 0.20690(14) 0.76298(13) 0.85702(2)
H44_7 H 0.1125 0.5389 0.9798
H45_7 H 0.2402 0.7944 0.8535
C77_7 C 0.15762(18) 0.62803(11) 0.977600(19)
C78_7 C 0.19625(14) 0.70530(11) 0.855733(19)
C82_7 C 0.01530(18) 0.61184(12) 0.945648(18)
C83_7 C 0.07012(13) 0.72149(12) 0.887685(18)
C88_7 C 0.01458(12) 0.70116(13) 0.892594(18)
C93_7 C 0.04235(14) 0.76969(13) 0.85929(2)
H55_7 H 0.0437 0.7399 0.8549
C97_7 C 0.05986(20) 0.61183(15) 0.93904(2)
C98_7 C 0.11469(13) 0.72150(15) 0.89429(2)
H59_7 H 0.0834 0.5970 0.9421
H60_7 H 0.1530 0.7363 0.8912
C102_7 C 0.06979(19) 0.63381(15) 0.92775(2)
C103_7 C 0.10264(12) 0.69952(15) 0.90558(2)
H64_7 H 0.1008 0.6344 0.9234
H65_7 H 0.1330 0.6989 0.9099
C107_7 C 0.03519(15) 0.65465(11) 0.922733(17)
C108_7 C 0.04720(10) 0.67868(11) 0.910600(17)
C113_7 C 0.00362(12) 0.68043(13) 0.903964(18)
C117_7 C 0.21057(22) 0.63878(13) 0.98461(2)
C118_7 C 0.23845(18) 0.69455(13) 0.84872(2)
N3_7 N 0.00714(16) 0.59303(11) 0.957476(15)
N4_7 N 0.08077(11) 0.74030(11) 0.875857(15)
O7_8 O 0.6667 0.3333 0.996693(16)
O10_7 O 0.00911(7) 0.93493(7) 0.860266(13)
O22_3 O 0.77402(13) 0.45624(9) 0.989018(14)
O24_3 O 0.54376(9) 0.31777(10) 0.989018(14)
O26_3 O 0.24670(17) 0.69376(12) 0.98752(2)
O27_7 O 0.21960(12) 0.63957(12) 0.84581(2)
O31_3 O 0.44707(12) 0.75330(17) 0.98752(2)
O33_3 O 0.30624(12) 0.55293(12) 0.98752(2)
O35_3 O 0.21443(14) 0.59438(9) 0.987937(17)
O36_7 O 0.28671(11) 0.73895(9) 0.845396(17)
O41_3 O 0.37996(11) 0.78557(14) 0.987937(17)
O42_3 O 0.40562(9) 0.62004(11) 0.987937(17)
Zn6_4 Zn 0.0000 1.0000 0.853516(3)
Zn6_5 Zn 1.0000 -0.0000 0.853516(3)
C22_7 C 0.78058(16) 0.44224(12) 0.978591(18)
C27_7 C 0.83726(16) 0.48302(11) 0.972922(17)
C32_7 C 0.84692(17) 0.47666(12) 0.961091(17)
H14_7 H 0.8159 0.4472 0.9566
C37_7 C 0.90175(17) 0.51339(12) 0.955967(17)
H19_7 H 0.9069 0.5088 0.9481
C42_7 C 0.88529(19) 0.52755(13) 0.979077(19)
H24_7 H 0.8803 0.5328 0.9869
C47_7 C 0.94865(17) 0.55637(12) 0.962250(17)
C87_7 C 0.98009(18) 0.63217(13) 0.940739(18)
H49_7 H 0.9495 0.6320 0.9450
H50_7 H 0.9841 0.7013 0.8883
C92_7 C 0.93933(19) 0.56364(13) 0.97404(2)
H54_7 H 0.9705 0.5934 0.9784
C112_7 C 0.98986(18) 0.65290(13) 0.929369(18)
H69_7 H 0.9651 0.6659 0.9261
H70_7 H 0.9658 0.6674 0.9072
O9_3 O 0.74085(10) 0.39840(7) 0.973067(13)
O13_3 O 0.60160(7) 0.34244(7) 0.973067(13)
O14_3 O 0.65756(7) 0.25915(10) 0.973067(13)
O18_7 O 0.98444(10) 0.87709(9) 0.844315(14)
O21_3 O 0.68223(10) 0.22598(13) 0.989018(14)
Zn3_6 Zn 0.6667 0.3333 0.979817(3)
Zn6_6 Zn 1.0000 1.0000 0.853516(3)
C22_8 C 0.55776(12) 0.33833(20) 0.978591(18)
C23_8 C 0.10891(12) 0.11391(16) 0.854742(18)
C27_8 C 0.51698(11) 0.35423(19) 0.972922(17)
C28_8 C 0.14969(11) 0.17059(16) 0.860411(17)
C32_8 C 0.52334(12) 0.37025(21) 0.961091(17)
C33_8 C 0.14333(12) 0.18025(17) 0.872242(17)
H14_8 H 0.5528 0.3686 0.9566
H15_8 H 0.1139 0.1492 0.8767
C37_8 C 0.48661(12) 0.38835(21) 0.955967(17)
C38_8 C 0.18006(12) 0.23508(17) 0.877366(17)
H19_8 H 0.4912 0.3980 0.9481
H20_8 H 0.1755 0.2402 0.8852
C42_8 C 0.47245(13) 0.35773(23) 0.979077(19)
C43_8 C 0.19422(13) 0.21862(19) 0.854256(19)
H24_8 H 0.4672 0.3474 0.9869
H25_8 H 0.1995 0.2136 0.8464
C47_8 C 0.44363(12) 0.39227(21) 0.962250(17)
C48_8 C 0.22304(12) 0.28198(17) 0.871083(17)
C52_8 C 0.44217(12) 0.50239(22) 0.96978(2)
C53_8 C 0.22450(12) 0.39356(18) 0.86355(2)
H29_8 H 0.4814 0.5095 0.9691
H30_8 H 0.1853 0.3615 0.8642
C57_8 C 0.39563(11) 0.45420(20) 0.964220(18)
C58_8 C 0.27104(11) 0.39191(17) 0.869113(18)
C62_8 C 0.33925(13) 0.44549(24) 0.96512(3)
C63_8 C 0.32742(13) 0.43958(20) 0.86821(3)
H34_8 H 0.3082 0.4140 0.9610
H35_8 H 0.3585 0.4392 0.8723
C67_8 C 0.32687(12) 0.48204(22) 0.97198(3)
C68_8 C 0.33980(12) 0.48851(18) 0.86135(3)
H39_8 H 0.2876 0.4740 0.9727
H40_8 H 0.3791 0.5198 0.8606
C72_8 C 0.42965(13) 0.54023(23) 0.97631(2)
C73_8 C 0.23702(13) 0.44392(19) 0.85702(2)
H44_8 H 0.4611 0.5735 0.9798
H45_8 H 0.2056 0.4458 0.8535
C77_8 C 0.37197(11) 0.52958(21) 0.977600(19)
C78_8 C 0.29470(11) 0.49095(18) 0.855733(19)
C82_8 C 0.38816(12) 0.40345(22) 0.945648(18)
C83_8 C 0.27851(12) 0.34863(18) 0.887685(18)
C87_8 C 0.36783(13) 0.34791(22) 0.940739(18)
C88_8 C 0.29884(13) 0.31342(18) 0.892594(18)
H49_8 H 0.3680 0.3174 0.9450
H50_8 H 0.2987 0.2828 0.8883
C92_8 C 0.43636(13) 0.37568(23) 0.97404(2)
C93_8 C 0.23031(13) 0.27266(19) 0.85929(2)
H54_8 H 0.4066 0.3770 0.9784
H55_8 H 0.2601 0.3038 0.8549
C97_8 C 0.38817(15) 0.44802(25) 0.93904(2)
C98_8 C 0.27850(15) 0.39319(20) 0.89429(2)
H59_8 H 0.4030 0.4863 0.9421
H60_8 H 0.2637 0.4167 0.8912
C102_8 C 0.36619(15) 0.43597(24) 0.92775(2)
C103_8 C 0.30048(15) 0.40312(19) 0.90558(2)
H64_8 H 0.3656 0.4663 0.9234
H65_8 H 0.3011 0.4341 0.9099
C107_8 C 0.34535(11) 0.38053(19) 0.922733(17)
C108_8 C 0.32132(11) 0.36852(15) 0.910600(17)
C112_8 C 0.34710(13) 0.33695(22) 0.929369(18)
C113_8 C 0.31957(13) 0.32319(18) 0.903964(18)
H69_8 H 0.3341 0.2991 0.9261
H70_8 H 0.3326 0.2984 0.9072
C117_8 C 0.36122(13) 0.57178(26) 0.98461(2)
C118_8 C 0.30545(13) 0.54390(22) 0.84872(2)
N3_8 N 0.40697(11) 0.41410(19) 0.957476(15)
N4_8 N 0.25970(11) 0.34047(16) 0.875857(15)
O10_8 O 0.06507(7) 0.07418(10) 0.860266(13)
O18_8 O 0.12291(9) 0.10735(13) 0.844315(14)
O27_8 O 0.36043(12) 0.58003(17) 0.84581(2)
O36_8 O 0.26105(9) 0.54776(14) 0.845396(17)
C22_9 C 0.66167(20) 0.21942(16) 0.978591(18)
C27_9 C 0.64577(19) 0.16274(16) 0.972922(17)
C32_9 C 0.62975(21) 0.15308(17) 0.961091(17)
H14_9 H 0.6314 0.1841 0.9566
C37_9 C 0.61165(21) 0.09825(17) 0.955967(17)
H19_9 H 0.6020 0.0931 0.9481
C42_9 C 0.64227(23) 0.11471(19) 0.979077(19)
H24_9 H 0.6526 0.1197 0.9869
C47_9 C 0.60773(21) 0.05135(17) 0.962250(17)
C87_9 C 0.65209(22) 0.01991(18) 0.940739(18)
H49_9 H 0.6826 0.0505 0.9450
H50_9 H 0.7172 0.0159 0.8883
C92_9 C 0.62432(23) 0.06067(19) 0.97404(2)
H54_9 H 0.6230 0.0295 0.9784
C112_9 C 0.66305(22) 0.01014(18) 0.929369(18)
H69_9 H 0.7009 0.0349 0.9261
H70_9 H 0.7016 0.0342 0.9072
O18_9 O 0.89265(13) 0.01556(10) 0.844315(14)
C23_9 C 0.88609(16) 0.99500(11) 0.854742(18)
C28_9 C 0.82941(16) 0.97910(11) 0.860411(17)
C33_9 C 0.81975(17) 0.96308(12) 0.872242(17)
H15_9 H 0.8508 0.9647 0.8767
C38_9 C 0.76492(17) 0.94498(12) 0.877366(17)
H20_9 H 0.7598 0.9353 0.8852
C43_9 C 0.78138(19) 0.97560(14) 0.854256(19)
H25_9 H 0.7864 0.9859 0.8464
C48_9 C 0.71802(17) 0.94106(12) 0.871083(17)
C52_9 C 0.49761(22) 0.93977(18) 0.96978(2)
C53_9 C 0.60644(18) 0.83094(14) 0.86355(2)
H29_9 H 0.4905 0.9718 0.9691
H30_9 H 0.6385 0.8238 0.8642
C57_9 C 0.54580(20) 0.94142(17) 0.964220(18)
C58_9 C 0.60809(17) 0.87913(13) 0.869113(18)
C62_9 C 0.55451(24) 0.89375(20) 0.96512(3)
C63_9 C 0.56042(20) 0.88784(15) 0.86821(3)
H34_9 H 0.5860 0.8941 0.9610
H35_9 H 0.5608 0.9193 0.8723
C67_9 C 0.51796(22) 0.84482(18) 0.97198(3)
C68_9 C 0.51149(18) 0.85129(14) 0.86135(3)
H39_9 H 0.5260 0.8135 0.9727
H40_9 H 0.4802 0.8593 0.8606
C72_9 C 0.45977(23) 0.88941(19) 0.97631(2)
C73_9 C 0.55608(19) 0.79310(14) 0.85702(2)
H44_9 H 0.4265 0.8875 0.9798
H45_9 H 0.5542 0.7598 0.8535
C77_9 C 0.47042(21) 0.84238(18) 0.977600(19)
C78_9 C 0.50905(18) 0.80375(14) 0.855733(19)
C82_9 C 0.59655(22) 0.98470(18) 0.945648(18)
C83_9 C 0.65137(18) 0.92988(13) 0.887685(18)
C88_9 C 0.68658(18) 0.98542(12) 0.892594(18)
C93_9 C 0.72734(19) 0.95765(14) 0.85929(2)
H55_9 H 0.6962 0.9563 0.8549
C97_9 C 0.55198(25) 0.94014(20) 0.93904(2)
C98_9 C 0.60681(20) 0.88531(13) 0.89429(2)
H59_9 H 0.5137 0.9166 0.9421
H60_9 H 0.5833 0.8470 0.8912
C102_9 C 0.56403(24) 0.93021(19) 0.92775(2)
C103_9 C 0.59688(19) 0.89736(12) 0.90558(2)
H64_9 H 0.5337 0.8992 0.9234
H65_9 H 0.5659 0.8670 0.9099
C107_9 C 0.61947(19) 0.96481(15) 0.922733(17)
C108_9 C 0.63148(15) 0.95280(10) 0.910600(17)
C113_9 C 0.67681(18) 0.99638(12) 0.903964(18)
C117_9 C 0.42822(26) 0.78943(22) 0.98461(2)
C118_9 C 0.45610(22) 0.76155(18) 0.84872(2)
N3_9 N 0.58590(19) 0.99286(16) 0.957476(15)
N4_9 N 0.65953(16) 0.91923(11) 0.875857(15)
O10_9 O 0.92582(10) 0.99089(7) 0.860266(13)
O27_9 O 0.41997(17) 0.78040(12) 0.84581(2)
O36_9 O 0.45224(14) 0.71329(11) 0.845396(17)
O7_9 O 0.0000 -0.0000 0.836640(16)
O1_12 O 0.3333 0.6667 0.830027(16)
O7_10 O 0.0000 1.0000 0.836640(16)
O7_11 O 1.0000 -0.0000 0.836640(16)
O7_12 O 1.0000 1.0000 0.836640(16)
loop_
_geom_bond_atom_site_label_1
_geom_bond_atom_site_label_2
_geom_bond_site_symmetry_1
_geom_bond_site_symmetry_2
O1 Zn1 1_555 1_555
C21 C26 1_555 1_555
C24 C29 1_555 1_555
C26 C31 1_555 1_555
C29 C34 1_555 1_555
C31 H13 1_555 1_555
C34 H16 1_555 1_555
C36 C31 1_555 1_555
C39 C34 1_555 1_555
H18 C36 1_555 1_555
H21 C39 1_555 1_555
C41 C26 1_555 1_555
C44 C29 1_555 1_555
H23 C41 1_555 1_555
H26 C44 1_555 1_555
C46 C36 1_555 1_555
C49 C39 1_555 1_555
C54 H31 1_555 1_555
C55 H32 1_555 1_555
C59 C54 1_555 1_555
C60 C55 1_555 1_555
C64 C59 1_555 1_555
C65 C60 1_555 1_555
H36 C64 1_555 1_555
H37 C65 1_555 1_555
C69 C64 1_555 1_555
C70 C65 1_555 1_555
H41 C69 1_555 1_555
H42 C70 1_555 1_555
C74 C54 1_555 1_555
C75 C55 1_555 1_555
H46 C74 1_555 1_555
H47 C75 1_555 1_555
C79 C69 1_555 1_555
C80 C70 1_555 1_555
C84 C89 1_555 1_555
C86 H48 1_555 1_555
C91 C41 1_555 1_555
C94 C44 1_555 1_555
H53 C91 1_555 1_555
H56 C94 1_555 1_555
C99 C84 1_555 1_555
C100 C85 1_555 1_555
H61 C99 1_555 1_555
H62 C100 1_555 1_555
C104 C99 1_555 1_555
C105 C100 1_555 1_555
H66 C104 1_555 1_555
H67 C105 1_555 1_555
C109 C104 1_555 1_555
C110 C105 1_555 1_555
C111 C86 1_555 1_555
C114 C89 1_555 1_555
H68 C111 1_555 1_555
C119 C79 1_555 1_555
C120 C80 1_555 1_555
N5 C49 1_555 1_555
O8 C21 1_555 1_555
O11 Zn1 1_555 1_555
O16 C21 1_555 1_555
O28 C119 1_555 1_555
O29 C120 1_555 1_555
O31 Zn7 1_555 1_555
O37 C119 1_555 1_555
O38 C120 1_555 1_555
Zn5 O8 1_555 1_555
Zn7 O1 1_555 1_555
Zn14 O16 1_555 1_555
Zn19 O28 1_555 1_555
Zn20 O37 1_555 1_555
Zn22 O29 1_555 1_555
Zn24 O38 1_555 1_555
O3 Zn7 1_555 1_555
C24 O11 1_555 1_555
C46 C91 1_555 1_555
C49 C94 1_555 1_555
C59 N5 1_555 1_555
C60 N6 1_555 1_555
C74 C79 1_555 1_555
C75 C80 1_555 1_555
C84 N5 1_555 1_555
C85 N6 1_555 1_555
C109 C110 1_555 1_555
C109 C114 1_555 1_555
C1 C2 1_555 1_555
C2 C3 1_555 1_555
C3 H1 1_555 1_555
C4 C3 1_555 1_555
H2 C4 1_555 1_555
C5 C2 1_555 1_555
H3 C5 1_555 1_555
C6 C4 1_555 1_555
C7 H4 1_555 1_555
C8 C7 1_555 1_555
C9 C8 1_555 1_555
H5 C9 1_555 1_555
C10 C9 1_555 1_555
H6 C10 1_555 1_555
C11 C7 1_555 1_555
H7 C11 1_555 1_555
C12 C10 1_555 1_555
C13 C14 1_555 1_555
C15 C5 1_555 1_555
H9 C15 1_555 1_555
C16 C13 1_555 1_555
H10 C16 1_555 1_555
C17 C16 1_555 1_555
H11 C17 1_555 1_555
C18 C17 1_555 1_555
C19 C14 1_555 1_555
C20 C12 1_555 1_555
N1 C6 1_555 1_555
O1_2 Zn1_2 1_555 1_555
O2 C1 1_555 1_555
O4 C20 1_555 1_555
O5 C20 1_555 1_555
Zn1_2 O2 1_555 1_555
C51 H28 1_555 1_555
C56 C51 1_555 1_555
C61 C56 1_555 1_555
H33 C61 1_555 1_555
C66 C61 1_555 1_555
H38 C66 1_555 1_555
C71 C51 1_555 1_555
H43 C71 1_555 1_555
C76 C66 1_555 1_555
C96 C81 1_555 1_555
H58 C96 1_555 1_555
C101 C96 1_555 1_555
H63 C101 1_555 1_555
C106 C18 1_555 1_555
C116 C76 1_555 1_555
O7 Zn9 1_555 1_555
O22 Zn9 1_555 1_555
O24 Zn19 1_555 1_555
O25 C116 1_555 1_555
O34 C116 1_555 1_555
O40 Zn9 1_555 1_555
Zn9 O4 1_555 1_555
Zn19 O5 1_555 1_555
Zn21 O34 1_555 1_555
Zn24 O25 1_555 1_555
C6 C15 1_555 1_555
C8 N1 1_555 1_555
C11 C12 1_555 1_555
C13 N1 1_555 1_555
C18 C19 1_555 1_555
C56 N2 1_555 1_555
C71 C76 1_555 1_555
C81 N2 1_555 1_555
C101 C106 1_555 1_555
O7 Zn19 1_555 1_555
O1_3 Zn1_3 1_555 1_555
C23 C28 1_555 1_555
C25 C30 1_555 1_555
C28 C33 1_555 1_555
C30 C35 1_555 1_555
C33 H15 1_555 1_555
C35 H17 1_555 1_555
C38 C33 1_555 1_555
C40 C35 1_555 1_555
H20 C38 1_555 1_555
H22 C40 1_555 1_555
C43 C28 1_555 1_555
C45 C30 1_555 1_555
H25 C43 1_555 1_555
H27 C45 1_555 1_555
C48 C38 1_555 1_555
C50 C40 1_555 1_555
C53 H30 1_555 1_555
C58 C53 1_555 1_555
C63 C58 1_555 1_555
H39 C67 1_555 1_555
C73 C53 1_555 1_555
H45 C73 1_555 1_555
C83 C88 1_555 1_555
C88 H50 1_555 1_555
C90 H52 1_555 1_555
C93 C43 1_555 1_555
C95 C45 1_555 1_555
H55 C93 1_555 1_555
H57 C95 1_555 1_555
C98 C83 1_555 1_555
H60 C98 1_555 1_555
C103 C98 1_555 1_555
H65 C103 1_555 1_555
C108 C103 1_555 1_555
C113 C88 1_555 1_555
C115 C90 1_555 1_555
H70 C113 1_555 1_555
H72 C115 1_555 1_555
C118 C78 1_555 1_555
N4 C48 1_555 1_555
O10 C23 1_555 1_555
O12 C25 1_555 1_555
O18 C23 1_555 1_555
O20 C25 1_555 1_555
O36 C118 1_555 1_555
Zn5 O12 1_555 1_555
Zn6 O10 1_555 1_555
Zn8 O1_3 1_555 1_555
Zn15 O20 1_555 1_555
Zn16 O18 1_555 1_555
C48 C93 1_555 1_555
C50 C95 1_555 1_555
C58 N4 1_555 1_555
C73 C78 1_555 1_555
C83 N4 1_555 1_555
C108 C113 1_555 1_555
O19 Zn8 1_555 1_555
O26 Zn8 1_555 1_555
O1_4 Zn1_4 1_555 1_555
Zn2 O1_4 1_555 1_555
C22 C27 1_555 1_555
C27 C32 1_555 1_555
C32 H14 1_555 1_555
C37 C32 1_555 1_555
H19 C37 1_555 1_555
C42 C27 1_555 1_555
H24 C42 1_555 1_555
C47 C37 1_555 1_555
C52 H29 1_555 1_555
C57 C52 1_555 1_555
C62 C57 1_555 1_555
H40 C68 1_555 1_555
C72 C52 1_555 1_555
H44 C72 1_555 1_555
C82 C87 1_555 1_555
C87 H49 1_555 1_555
C92 C42 1_555 1_555
H54 C92 1_555 1_555
C97 C82 1_555 1_555
H59 C97 1_555 1_555
C102 C97 1_555 1_555
H64 C102 1_555 1_555
C107 C102 1_555 1_555
C112 C87 1_555 1_555
H69 C112 1_555 1_555
C117 C77 1_555 1_555
N3 C47 1_555 1_555
O7 Zn3 1_555 1_555
O9 C22 1_555 1_555
O13 Zn3 1_555 1_555
O14 Zn3 1_555 1_555
O15 Zn1_4 1_555 1_555
O22 C22 1_555 1_555
O21 Zn20 1_555 1_555
O23 Zn2 1_555 1_555
O32 Zn20 1_555 1_555
O33 Zn2 1_555 1_555
O35 Zn2 1_555 1_555
Zn3 O9 1_555 1_555
Zn20 O7 1_555 1_555
Zn12 O27 1_555 1_555
C47 C92 1_555 1_555
C57 N3 1_555 1_555
C72 C77 1_555 1_555
C82 N3 1_555 1_555
C107 C112 1_555 1_555
C117 O35 1_555 1_555
C22_2 C27_2 1_555 1_555
C27_2 C32_2 1_555 1_555
C32_2 H14_2 1_555 1_555
C37_2 C32_2 1_555 1_555
H19_2 C37_2 1_555 1_555
C42_2 C27_2 1_555 1_555
H24_2 C42_2 1_555 1_555
C47_2 C37_2 1_555 1_555
C52_2 H29_2 1_555 1_555
C57_2 C52_2 1_555 1_555
C62_2 C57_2 1_555 1_555
H40_2 C68_2 1_555 1_555
C72_2 C52_2 1_555 1_555
H44_2 C72_2 1_555 1_555
C82_2 C87_2 1_555 1_555
C87_2 H49_2 1_555 1_555
C92_2 C42_2 1_555 1_555
H54_2 C92_2 1_555 1_555
C97_2 C82_2 1_555 1_555
H59_2 C97_2 1_555 1_555
C102_2 C97_2 1_555 1_555
H64_2 C102_2 1_555 1_555
C107_2 C102_2 1_555 1_555
C112_2 C87_2 1_555 1_555
H69_2 C112_2 1_555 1_555
C117_2 C77_2 1_555 1_555
N3_2 C47_2 1_555 1_555
O13 C22_2 1_555 1_555
O24 C22_2 1_555 1_555
Zn12_2 O27_2 1_555 1_555
C47_2 C92_2 1_555 1_555
C57_2 N3_2 1_555 1_555
C72_2 C77_2 1_555 1_555
C82_2 N3_2 1_555 1_555
C107_2 C112_2 1_555 1_555
C117_2 O42 1_555 1_555
C23_2 C28_2 1_555 1_555
C24_2 C29_2 1_555 1_555
C25_2 C30_2 1_555 1_555
C28_2 C33_2 1_555 1_555
C29_2 C34_2 1_555 1_555
C30_2 C35_2 1_555 1_555
C33_2 H15_2 1_555 1_555
C34_2 H16_2 1_555 1_555
C35_2 H17_2 1_555 1_555
C38_2 C33_2 1_555 1_555
C39_2 C34_2 1_555 1_555
C40_2 C35_2 1_555 1_555
H20_2 C38_2 1_555 1_555
H21_2 C39_2 1_555 1_555
H22_2 C40_2 1_555 1_555
C43_2 C28_2 1_555 1_555
C44_2 C29_2 1_555 1_555
C45_2 C30_2 1_555 1_555
H25_2 C43_2 1_555 1_555
H26_2 C44_2 1_555 1_555
H27_2 C45_2 1_555 1_555
C48_2 C38_2 1_555 1_555
C49_2 C39_2 1_555 1_555
C50_2 C40_2 1_555 1_555
C53_2 H30_2 1_555 1_555
C54_2 H31_2 1_555 1_555
C55_2 H32_2 1_555 1_555
C58_2 C53_2 1_555 1_555
C59_2 C54_2 1_555 1_555
C60_2 C55_2 1_555 1_555
C63_2 C58_2 1_555 1_555
C64_2 C59_2 1_555 1_555
C65_2 C60_2 1_555 1_555
H36_2 C64_2 1_555 1_555
H37_2 C65_2 1_555 1_555
C69_2 C64_2 1_555 1_555
C70_2 C65_2 1_555 1_555
H39_2 C67_2 1_555 1_555
H41_2 C69_2 1_555 1_555
H42_2 C70_2 1_555 1_555
C73_2 C53_2 1_555 1_555
C74_2 C54_2 1_555 1_555
C75_2 C55_2 1_555 1_555
H45_2 C73_2 1_555 1_555
H46_2 C74_2 1_555 1_555
H47_2 C75_2 1_555 1_555
C79_2 C69_2 1_555 1_555
C80_2 C70_2 1_555 1_555
C83_2 C88_2 1_555 1_555
C84_2 C89_2 1_555 1_555
C85_2 C90_2 1_555 1_555
C88_2 H50_2 1_555 1_555
C89_2 H51_2 1_555 1_555
C90_2 H52_2 1_555 1_555
C93_2 C43_2 1_555 1_555
C94_2 C44_2 1_555 1_555
C95_2 C45_2 1_555 1_555
H55_2 C93_2 1_555 1_555
H56_2 C94_2 1_555 1_555
H57_2 C95_2 1_555 1_555
C98_2 C83_2 1_555 1_555
C99_2 C84_2 1_555 1_555
C100_2 C85_2 1_555 1_555
H60_2 C98_2 1_555 1_555
H61_2 C99_2 1_555 1_555
H62_2 C100_2 1_555 1_555
C103_2 C98_2 1_555 1_555
C104_2 C99_2 1_555 1_555
C105_2 C100_2 1_555 1_555
H65_2 C103_2 1_555 1_555
H66_2 C104_2 1_555 1_555
H67_2 C105_2 1_555 1_555
C108_2 C103_2 1_555 1_555
C109_2 C104_2 1_555 1_555
C110_2 C105_2 1_555 1_555
C113_2 C88_2 1_555 1_555
C114_2 C89_2 1_555 1_555
C115_2 C90_2 1_555 1_555
H70_2 C113_2 1_555 1_555
H71_2 C114_2 1_555 1_555
H72_2 C115_2 1_555 1_555
C118_2 C78_2 1_555 1_555
C119_2 C79_2 1_555 1_555
C120_2 C80_2 1_555 1_555
N4_2 C48_2 1_555 1_555
N5_2 C49_2 1_555 1_555
N6_2 C50_2 1_555 1_555
O10_2 C23_2 1_555 1_555
O12_2 C25_2 1_555 1_555
O18_2 C23_2 1_555 1_555
O23 C24_2 1_555 1_555
O20_2 C25_2 1_555 1_555
O32 C119_2 1_555 1_555
O29_2 C120_2 1_555 1_555
O36_2 C118_2 1_555 1_555
O40 C119_2 1_555 1_555
O38_2 C120_2 1_555 1_555
Zn5 O12_2 1_555 1_555
Zn6 O10_2 1_555 1_555
Zn12 O36_2 1_555 1_555
Zn15_2 O20_2 1_555 1_555
Zn16_2 O18_2 1_555 1_555
Zn21 O29_2 1_555 1_555
Zn22 O38_2 1_555 1_555
C24_2 O15 1_555 1_555
C48_2 C93_2 1_555 1_555
C49_2 C94_2 1_555 1_555
C50_2 C95_2 1_555 1_555
C58_2 N4_2 1_555 1_555
C59_2 N5_2 1_555 1_555
C60_2 N6_2 1_555 1_555
C73_2 C78_2 1_555 1_555
C74_2 C79_2 1_555 1_555
C75_2 C80_2 1_555 1_555
C83_2 N4_2 1_555 1_555
C84_2 N5_2 1_555 1_555
C85_2 N6_2 1_555 1_555
C108_2 C113_2 1_555 1_555
C109_2 C110_2 1_555 1_555
C109_2 C114_2 1_555 1_555
C110_2 C115_2 1_555 1_555
C22_3 C27_3 1_555 1_555
C23_3 C28_3 1_555 1_555
C27_3 C32_3 1_555 1_555
C28_3 C33_3 1_555 1_555
C32_3 H14_3 1_555 1_555
C33_3 H15_3 1_555 1_555
C37_3 C32_3 1_555 1_555
C38_3 C33_3 1_555 1_555
H19_3 C37_3 1_555 1_555
H20_3 C38_3 1_555 1_555
C42_3 C27_3 1_555 1_555
C43_3 C28_3 1_555 1_555
H24_3 C42_3 1_555 1_555
H25_3 C43_3 1_555 1_555
C47_3 C37_3 1_555 1_555
C48_3 C38_3 1_555 1_555
C52_3 H29_3 1_555 1_555
C53_3 H30_3 1_555 1_555
C57_3 C52_3 1_555 1_555
C58_3 C53_3 1_555 1_555
C62_3 C57_3 1_555 1_555
C63_3 C58_3 1_555 1_555
H34_3 C62_3 1_555 1_555
H35_3 C63_3 1_555 1_555
C67_3 C62_3 1_555 1_555
C68_3 C63_3 1_555 1_555
H39_3 C67_3 1_555 1_555
H40_3 C68_3 1_555 1_555
C72_3 C52_3 1_555 1_555
C73_3 C53_3 1_555 1_555
H44_3 C72_3 1_555 1_555
H45_3 C73_3 1_555 1_555
C77_3 C67_3 1_555 1_555
C78_3 C68_3 1_555 1_555
C82_3 C87_3 1_555 1_555
C83_3 C88_3 1_555 1_555
C87_3 H49_3 1_555 1_555
C88_3 H50_3 1_555 1_555
C92_3 C42_3 1_555 1_555
C93_3 C43_3 1_555 1_555
H54_3 C92_3 1_555 1_555
H55_3 C93_3 1_555 1_555
C97_3 C82_3 1_555 1_555
C98_3 C83_3 1_555 1_555
H59_3 C97_3 1_555 1_555
H60_3 C98_3 1_555 1_555
C102_3 C97_3 1_555 1_555
C103_3 C98_3 1_555 1_555
H64_3 C102_3 1_555 1_555
H65_3 C103_3 1_555 1_555
C107_3 C102_3 1_555 1_555
C108_3 C103_3 1_555 1_555
C112_3 C87_3 1_555 1_555
C113_3 C88_3 1_555 1_555
H69_3 C112_3 1_555 1_555
H70_3 C113_3 1_555 1_555
C117_3 C77_3 1_555 1_555
C118_3 C78_3 1_555 1_555
N3_3 C47_3 1_555 1_555
N4_3 C48_3 1_555 1_555
O14 C22_3 1_555 1_555
O10_3 C23_3 1_555 1_555
O21 C22_3 1_555 1_555
O18_3 C23_3 1_555 1_555
O31 C117_3 1_555 1_555
O27_3 C118_3 1_555 1_555
O36_3 C118_3 1_555 1_555
Zn6 O10_3 1_555 1_555
Zn13 O27_3 1_555 1_555
Zn16_3 O18_3 1_555 1_555
C47_3 C92_3 1_555 1_555
C48_3 C93_3 1_555 1_555
C57_3 N3_3 1_555 1_555
C58_3 N4_3 1_555 1_555
C72_3 C77_3 1_555 1_555
C73_3 C78_3 1_555 1_555
C82_3 N3_3 1_555 1_555
C83_3 N4_3 1_555 1_555
C107_3 C108_3 1_555 1_555
C107_3 C112_3 1_555 1_555
C108_3 C113_3 1_555 1_555
C117_3 O41 1_555 1_555
O1_5 Zn1_5 1_555 1_555
C21_2 C26_2 1_555 1_555
C24_3 C29_3 1_555 1_555
C26_2 C31_2 1_555 1_555
C29_3 C34_3 1_555 1_555
C31_2 H13_2 1_555 1_555
C34_3 H16_3 1_555 1_555
C36_2 C31_2 1_555 1_555
C39_3 C34_3 1_555 1_555
H18_2 C36_2 1_555 1_555
H21_3 C39_3 1_555 1_555
C41_2 C26_2 1_555 1_555
C44_3 C29_3 1_555 1_555
H23_2 C41_2 1_555 1_555
H26_3 C44_3 1_555 1_555
C46_2 C36_2 1_555 1_555
C49_3 C39_3 1_555 1_555
C54_3 H31_3 1_555 1_555
C55_3 H32_3 1_555 1_555
C59_3 C54_3 1_555 1_555
C60_3 C55_3 1_555 1_555
C64_3 C59_3 1_555 1_555
C65_3 C60_3 1_555 1_555
H36_3 C64_3 1_555 1_555
H37_3 C65_3 1_555 1_555
C69_3 C64_3 1_555 1_555
C70_3 C65_3 1_555 1_555
H41_3 C69_3 1_555 1_555
H42_3 C70_3 1_555 1_555
C74_3 C54_3 1_555 1_555
C75_3 C55_3 1_555 1_555
H46_3 C74_3 1_555 1_555
H47_3 C75_3 1_555 1_555
C79_3 C69_3 1_555 1_555
C80_3 C70_3 1_555 1_555
C84_3 C89_3 1_555 1_555
C86_2 H48_2 1_555 1_555
C91_2 C41_2 1_555 1_555
C94_3 C44_3 1_555 1_555
H53_2 C91_2 1_555 1_555
H56_3 C94_3 1_555 1_555
C99_3 C84_3 1_555 1_555
C100_3 C85_3 1_555 1_555
H61_3 C99_3 1_555 1_555
H62_3 C100_3 1_555 1_555
C104_3 C99_3 1_555 1_555
C105_3 C100_3 1_555 1_555
H66_3 C104_3 1_555 1_555
H67_3 C105_3 1_555 1_555
C109_3 C104_3 1_555 1_555
C110_3 C105_3 1_555 1_555
C111_2 C86_2 1_555 1_555
C114_3 C89_3 1_555 1_555
H68_2 C111_2 1_555 1_555
C119_3 C79_3 1_555 1_555
C120_3 C80_3 1_555 1_555
N5_3 C49_3 1_555 1_555
O8_2 C21_2 1_555 1_555
O11_2 Zn1_5 1_555 1_555
O16_2 C21_2 1_555 1_555
O28_2 C119_3 1_555 1_555
O29_3 C120_3 1_555 1_555
O37_2 C119_3 1_555 1_555
O38_3 C120_3 1_555 1_555
Zn5_2 O8_2 1_555 1_555
Zn13 O1_5 1_555 1_555
Zn16 O28_2 1_555 1_555
Zn16_3 O37_2 1_555 1_555
Zn22_2 O29_3 1_555 1_555
Zn24_2 O38_3 1_555 1_555
O3_2 Zn13 1_555 1_555
C24_3 O11_2 1_555 1_555
C46_2 C91_2 1_555 1_555
C49_3 C94_3 1_555 1_555
C59_3 N5_3 1_555 1_555
C60_3 N6_3 1_555 1_555
C74_3 C79_3 1_555 1_555
C75_3 C80_3 1_555 1_555
C84_3 N5_3 1_555 1_555
C85_3 N6_3 1_555 1_555
C109_3 C110_3 1_555 1_555
C109_3 C114_3 1_555 1_555
O1_6 Zn1_6 1_555 1_555
C25_3 C30_3 1_555 1_555
C30_3 C35_3 1_555 1_555
C35_3 H17_3 1_555 1_555
C40_3 C35_3 1_555 1_555
H22_3 C40_3 1_555 1_555
C45_3 C30_3 1_555 1_555
H27_3 C45_3 1_555 1_555
C50_3 C40_3 1_555 1_555
C90_3 H52_3 1_555 1_555
C95_3 C45_3 1_555 1_555
H57_3 C95_3 1_555 1_555
C115_3 C90_3 1_555 1_555
H72_3 C115_3 1_555 1_555
O12_3 C25_3 1_555 1_555
O20_3 C25_3 1_555 1_555
Zn5_2 O12_3 1_555 1_555
Zn12_2 O1_6 1_555 1_555
C50_3 C95_3 1_555 1_555
O19_2 Zn12_2 1_555 1_555
C1_2 C2_2 1_555 1_555
C2_2 C3_2 1_555 1_555
C3_2 H1_2 1_555 1_555
C4_2 C3_2 1_555 1_555
H2_2 C4_2 1_555 1_555
C5_2 C2_2 1_555 1_555
H3_2 C5_2 1_555 1_555
C6_2 C4_2 1_555 1_555
C7_2 H4_2 1_555 1_555
C8_2 C7_2 1_555 1_555
C9_2 C8_2 1_555 1_555
H5_2 C9_2 1_555 1_555
C10_2 C9_2 1_555 1_555
H6_2 C10_2 1_555 1_555
C11_2 C7_2 1_555 1_555
H7_2 C11_2 1_555 1_555
C12_2 C10_2 1_555 1_555
C13_2 C14_2 1_555 1_555
C15_2 C5_2 1_555 1_555
H9_2 C15_2 1_555 1_555
C16_2 C13_2 1_555 1_555
H10_2 C16_2 1_555 1_555
C17_2 C16_2 1_555 1_555
H11_2 C17_2 1_555 1_555
C18_2 C17_2 1_555 1_555
C19_2 C14_2 1_555 1_555
C20_2 C12_2 1_555 1_555
N1_2 C6_2 1_555 1_555
O1_7 Zn1_7 1_555 1_555
O2_2 C1_2 1_555 1_555
O4_2 C20_2 1_555 1_555
O5_2 C20_2 1_555 1_555
Zn1_7 O2_2 1_555 1_555
C51_2 H28_2 1_555 1_555
C56_2 C51_2 1_555 1_555
C61_2 C56_2 1_555 1_555
H33_2 C61_2 1_555 1_555
C66_2 C61_2 1_555 1_555
H38_2 C66_2 1_555 1_555
C71_2 C51_2 1_555 1_555
H43_2 C71_2 1_555 1_555
C76_2 C66_2 1_555 1_555
C96_2 C81_2 1_555 1_555
H58_2 C96_2 1_555 1_555
C101_2 C96_2 1_555 1_555
H63_2 C101_2 1_555 1_555
C106_2 C18_2 1_555 1_555
C116_2 C76_2 1_555 1_555
O7_2 Zn16_2 1_555 1_555
O25_2 C116_2 1_555 1_555
O34_2 C116_2 1_555 1_555
O40_2 Zn16_2 1_555 1_555
Zn16_2 O4_2 1_555 1_555
Zn16 O5_2 1_555 1_555
Zn21_2 O34_2 1_555 1_555
Zn24_2 O25_2 1_555 1_555
C6_2 C15_2 1_555 1_555
C8_2 N1_2 1_555 1_555
C11_2 C12_2 1_555 1_555
C13_2 N1_2 1_555 1_555
C18_2 C19_2 1_555 1_555
C56_2 N2_2 1_555 1_555
C71_2 C76_2 1_555 1_555
C81_2 N2_2 1_555 1_555
C101_2 C106_2 1_555 1_555
O7_2 Zn16 1_555 1_555
O1_8 Zn1_8 1_555 1_555
Zn12 O1_8 1_555 1_555
O7_2 Zn6 1_555 1_555
O15_2 Zn1_8 1_555 1_555
O23_2 Zn12 1_555 1_555
O32_2 Zn16_3 1_555 1_555
Zn16_3 O7_2 1_555 1_555
C24_4 C29_4 1_555 1_555
C25_4 C30_4 1_555 1_555
C29_4 C34_4 1_555 1_555
C30_4 C35_4 1_555 1_555
C34_4 H16_4 1_555 1_555
C35_4 H17_4 1_555 1_555
C39_4 C34_4 1_555 1_555
C40_4 C35_4 1_555 1_555
H21_4 C39_4 1_555 1_555
H22_4 C40_4 1_555 1_555
C44_4 C29_4 1_555 1_555
C45_4 C30_4 1_555 1_555
H26_4 C44_4 1_555 1_555
H27_4 C45_4 1_555 1_555
C49_4 C39_4 1_555 1_555
C50_4 C40_4 1_555 1_555
C54_4 H31_4 1_555 1_555
C55_4 H32_4 1_555 1_555
C59_4 C54_4 1_555 1_555
C60_4 C55_4 1_555 1_555
C64_4 C59_4 1_555 1_555
C65_4 C60_4 1_555 1_555
H36_4 C64_4 1_555 1_555
H37_4 C65_4 1_555 1_555
C69_4 C64_4 1_555 1_555
C70_4 C65_4 1_555 1_555
H41_4 C69_4 1_555 1_555
H42_4 C70_4 1_555 1_555
C74_4 C54_4 1_555 1_555
C75_4 C55_4 1_555 1_555
H46_4 C74_4 1_555 1_555
H47_4 C75_4 1_555 1_555
C79_4 C69_4 1_555 1_555
C80_4 C70_4 1_555 1_555
C84_4 C89_4 1_555 1_555
C85_4 C90_4 1_555 1_555
C89_4 H51_4 1_555 1_555
C90_4 H52_4 1_555 1_555
C94_4 C44_4 1_555 1_555
C95_4 C45_4 1_555 1_555
H56_4 C94_4 1_555 1_555
H57_4 C95_4 1_555 1_555
C99_4 C84_4 1_555 1_555
C100_4 C85_4 1_555 1_555
H61_4 C99_4 1_555 1_555
H62_4 C100_4 1_555 1_555
C104_4 C99_4 1_555 1_555
C105_4 C100_4 1_555 1_555
H66_4 C104_4 1_555 1_555
H67_4 C105_4 1_555 1_555
C109_4 C104_4 1_555 1_555
C110_4 C105_4 1_555 1_555
C114_4 C89_4 1_555 1_555
C115_4 C90_4 1_555 1_555
H71_4 C114_4 1_555 1_555
H72_4 C115_4 1_555 1_555
C119_4 C79_4 1_555 1_555
C120_4 C80_4 1_555 1_555
N5_4 C49_4 1_555 1_555
N6_4 C50_4 1_555 1_555
O12_4 C25_4 1_555 1_555
O23_2 C24_4 1_555 1_555
O20_4 C25_4 1_555 1_555
O32_2 C119_4 1_555 1_555
O29_4 C120_4 1_555 1_555
O40_2 C119_4 1_555 1_555
O38_4 C120_4 1_555 1_555
Zn5_2 O12_4 1_555 1_555
Zn21_2 O29_4 1_555 1_555
Zn22_2 O38_4 1_555 1_555
C24_4 O15_2 1_555 1_555
C49_4 C94_4 1_555 1_555
C50_4 C95_4 1_555 1_555
C59_4 N5_4 1_555 1_555
C60_4 N6_4 1_555 1_555
C74_4 C79_4 1_555 1_555
C75_4 C80_4 1_555 1_555
C84_4 N5_4 1_555 1_555
C85_4 N6_4 1_555 1_555
C109_4 C110_4 1_555 1_555
C109_4 C114_4 1_555 1_555
C110_4 C115_4 1_555 1_555
H6_3 C10_3 1_555 1_555
C21_3 C26_3 1_555 1_555
C26_3 C31_3 1_555 1_555
C31_3 H13_3 1_555 1_555
C36_3 C31_3 1_555 1_555
H18_3 C36_3 1_555 1_555
C41_3 C26_3 1_555 1_555
H23_3 C41_3 1_555 1_555
C46_3 C36_3 1_555 1_555
C51_3 H28_3 1_555 1_555
C56_3 C51_3 1_555 1_555
C61_3 C56_3 1_555 1_555
C71_3 C51_3 1_555 1_555
H43_3 C71_3 1_555 1_555
C81_3 C86_3 1_555 1_555
C86_3 H48_3 1_555 1_555
C91_3 C41_3 1_555 1_555
H53_3 C91_3 1_555 1_555
C96_3 C81_3 1_555 1_555
H58_3 C96_3 1_555 1_555
C101_3 C96_3 1_555 1_555
H63_3 C101_3 1_555 1_555
C111_3 C86_3 1_555 1_555
H68_3 C111_3 1_555 1_555
C116_3 C76_3 1_555 1_555
N2_3 C46_3 1_555 1_555
O7_3 Zn9_2 1_555 1_555
O8_3 C21_3 1_555 1_555
O16_3 C21_3 1_555 1_555
O22_2 Zn9_2 1_555 1_555
O34_3 C116_3 1_555 1_555
O40_3 Zn9_2 1_555 1_555
Zn5_3 O8_3 1_555 1_555
Zn9_2 O4_3 1_555 1_555
Zn14_3 O16_3 1_555 1_555
Zn21_3 O34_3 1_555 1_555
C46_3 C91_3 1_555 1_555
C56_3 N2_3 1_555 1_555
C71_3 C76_3 1_555 1_555
C81_3 N2_3 1_555 1_555
C101_3 C106_3 1_555 1_555
C106_3 C111_3 1_555 1_555
C1_3 C2_3 1_555 1_555
C2_3 C3_3 1_555 1_555
C3_3 H1_3 1_555 1_555
C4_3 C3_3 1_555 1_555
H2_3 C4_3 1_555 1_555
C5_3 C2_3 1_555 1_555
H3_3 C5_3 1_555 1_555
C6_3 C4_3 1_555 1_555
C7_3 H4_3 1_555 1_555
C8_3 C7_3 1_555 1_555
C9_3 C8_3 1_555 1_555
C11_3 C7_3 1_555 1_555
H7_3 C11_3 1_555 1_555
C13_3 C14_3 1_555 1_555
C14_3 H8_3 1_555 1_555
C15_3 C5_3 1_555 1_555
H9_3 C15_3 1_555 1_555
C16_3 C13_3 1_555 1_555
H10_3 C16_3 1_555 1_555
C17_3 C16_3 1_555 1_555
H11_3 C17_3 1_555 1_555
C18_3 C17_3 1_555 1_555
C19_3 C14_3 1_555 1_555
H12_3 C19_3 1_555 1_555
C20_3 C12_3 1_555 1_555
N1_3 C6_3 1_555 1_555
O1_9 Zn1_9 1_555 1_555
O2_3 C1_3 1_555 1_555
O3_3 C1_3 1_555 1_555
O5_3 C20_3 1_555 1_555
Zn1_9 O2_3 1_555 1_555
Zn2_2 O1_9 1_555 1_555
C22_4 C27_4 1_555 1_555
C23_4 C28_4 1_555 1_555
C24_5 C29_5 1_555 1_555
C25_5 C30_5 1_555 1_555
C27_4 C32_4 1_555 1_555
C28_4 C33_4 1_555 1_555
C29_5 C34_5 1_555 1_555
C30_5 C35_5 1_555 1_555
C32_4 H14_4 1_555 1_555
C33_4 H15_4 1_555 1_555
C34_5 H16_5 1_555 1_555
C35_5 H17_5 1_555 1_555
C37_4 C32_4 1_555 1_555
C38_4 C33_4 1_555 1_555
C39_5 C34_5 1_555 1_555
C40_5 C35_5 1_555 1_555
H19_4 C37_4 1_555 1_555
H20_4 C38_4 1_555 1_555
H21_5 C39_5 1_555 1_555
H22_5 C40_5 1_555 1_555
C42_4 C27_4 1_555 1_555
C43_4 C28_4 1_555 1_555
C44_5 C29_5 1_555 1_555
C45_5 C30_5 1_555 1_555
H24_4 C42_4 1_555 1_555
H25_4 C43_4 1_555 1_555
H26_5 C44_5 1_555 1_555
H27_5 C45_5 1_555 1_555
C47_4 C37_4 1_555 1_555
C48_4 C38_4 1_555 1_555
C49_5 C39_5 1_555 1_555
C50_5 C40_5 1_555 1_555
C52_4 H29_4 1_555 1_555
C53_4 H30_4 1_555 1_555
C54_5 H31_5 1_555 1_555
C55_5 H32_5 1_555 1_555
C57_4 C52_4 1_555 1_555
C58_4 C53_4 1_555 1_555
C59_5 C54_5 1_555 1_555
C60_5 C55_5 1_555 1_555
C62_4 C57_4 1_555 1_555
C63_4 C58_4 1_555 1_555
C64_5 C59_5 1_555 1_555
C65_5 C60_5 1_555 1_555
H34_4 C62_4 1_555 1_555
H35_4 C63_4 1_555 1_555
H36_5 C64_5 1_555 1_555
H37_5 C65_5 1_555 1_555
C67_4 C62_4 1_555 1_555
C68_4 C63_4 1_555 1_555
C69_5 C64_5 1_555 1_555
C70_5 C65_5 1_555 1_555
H38_3 C66_3 1_555 1_555
H39_4 C67_4 1_555 1_555
H40_4 C68_4 1_555 1_555
H41_5 C69_5 1_555 1_555
H42_5 C70_5 1_555 1_555
C72_4 C52_4 1_555 1_555
C73_4 C53_4 1_555 1_555
C74_5 C54_5 1_555 1_555
C75_5 C55_5 1_555 1_555
H44_4 C72_4 1_555 1_555
H45_4 C73_4 1_555 1_555
H46_5 C74_5 1_555 1_555
H47_5 C75_5 1_555 1_555
C77_4 C67_4 1_555 1_555
C78_4 C68_4 1_555 1_555
C79_5 C69_5 1_555 1_555
C80_5 C70_5 1_555 1_555
C82_4 C87_4 1_555 1_555
C83_4 C88_4 1_555 1_555
C84_5 C89_5 1_555 1_555
C85_5 C90_5 1_555 1_555
C87_4 H49_4 1_555 1_555
C88_4 H50_4 1_555 1_555
C89_5 H51_5 1_555 1_555
C90_5 H52_5 1_555 1_555
C92_4 C42_4 1_555 1_555
C93_4 C43_4 1_555 1_555
C94_5 C44_5 1_555 1_555
C95_5 C45_5 1_555 1_555
H54_4 C92_4 1_555 1_555
H55_4 C93_4 1_555 1_555
H56_5 C94_5 1_555 1_555
H57_5 C95_5 1_555 1_555
C97_4 C82_4 1_555 1_555
C98_4 C83_4 1_555 1_555
C99_5 C84_5 1_555 1_555
C100_5 C85_5 1_555 1_555
H59_4 C97_4 1_555 1_555
H60_4 C98_4 1_555 1_555
H61_5 C99_5 1_555 1_555
H62_5 C100_5 1_555 1_555
C102_4 C97_4 1_555 1_555
C103_4 C98_4 1_555 1_555
C104_5 C99_5 1_555 1_555
C105_5 C100_5 1_555 1_555
H64_4 C102_4 1_555 1_555
H65_4 C103_4 1_555 1_555
H66_5 C104_5 1_555 1_555
H67_5 C105_5 1_555 1_555
C107_4 C102_4 1_555 1_555
C108_4 C103_4 1_555 1_555
C109_5 C104_5 1_555 1_555
C110_5 C105_5 1_555 1_555
C112_4 C87_4 1_555 1_555
C113_4 C88_4 1_555 1_555
C114_5 C89_5 1_555 1_555
C115_5 C90_5 1_555 1_555
H69_4 C112_4 1_555 1_555
H70_4 C113_4 1_555 1_555
H71_5 C114_5 1_555 1_555
H72_5 C115_5 1_555 1_555
C117_4 C77_4 1_555 1_555
C118_4 C78_4 1_555 1_555
C119_5 C79_5 1_555 1_555
C120_5 C80_5 1_555 1_555
N3_4 C47_4 1_555 1_555
N4_4 C48_4 1_555 1_555
N5_5 C49_5 1_555 1_555
N6_5 C50_5 1_555 1_555
O7_3 Zn3_2 1_555 1_555
O9_2 C22_4 1_555 1_555
O10_4 C23_4 1_555 1_555
O11_3 Zn1_9 1_555 1_555
O12_5 C25_5 1_555 1_555
O15_3 Zn1_9 1_555 1_555
O22_2 C22_4 1_555 1_555
O18_4 C23_4 1_555 1_555
O19_3 C24_5 1_555 1_555
O20_5 C25_5 1_555 1_555
O23_3 Zn2_2 1_555 1_555
O26_2 C117_4 1_555 1_555
O27_4 C118_4 1_555 1_555
O28_3 C119_5 1_555 1_555
O29_5 C120_5 1_555 1_555
O31_2 Zn7_2 1_555 1_555
O33_2 Zn2_2 1_555 1_555
O35_2 Zn2_2 1_555 1_555
O36_4 C118_4 1_555 1_555
O37_3 C119_5 1_555 1_555
O38_5 C120_5 1_555 1_555
O41_2 Zn8_2 1_555 1_555
O42_2 Zn7_2 1_555 1_555
Zn3_2 O9_2 1_555 1_555
Zn5_3 O12_5 1_555 1_555
Zn6_2 O10_4 1_555 1_555
Zn7_2 O1_9 1_555 1_555
Zn8_2 O1_9 1_555 1_555
Zn14 O27_4 1_555 1_555
Zn15_2 O36_4 1_555 1_555
Zn15_5 O20_5 1_555 1_555
Zn22 O18_4 1_555 1_555
Zn19_2 O28_3 1_555 1_555
Zn22_3 O29_5 1_555 1_555
Zn24_3 O25_3 1_555 1_555
C6_3 C15_3 1_555 1_555
C8_3 N1_3 1_555 1_555
C11_3 C12_3 1_555 1_555
C13_3 N1_3 1_555 1_555
C18_3 C19_3 1_555 1_555
O3_3 Zn7_2 1_555 1_555
C24_5 O11_3 1_555 1_555
C47_4 C92_4 1_555 1_555
C48_4 C93_4 1_555 1_555
C49_5 C94_5 1_555 1_555
C50_5 C95_5 1_555 1_555
C57_4 N3_4 1_555 1_555
C58_4 N4_4 1_555 1_555
C59_5 N5_5 1_555 1_555
C60_5 N6_5 1_555 1_555
C72_4 C77_4 1_555 1_555
C73_4 C78_4 1_555 1_555
C74_5 C79_5 1_555 1_555
C75_5 C80_5 1_555 1_555
C82_4 N3_4 1_555 1_555
C83_4 N4_4 1_555 1_555
C84_5 N5_5 1_555 1_555
C85_5 N6_5 1_555 1_555
C107_4 C108_4 1_555 1_555
C107_4 C112_4 1_555 1_555
C108_4 C113_4 1_555 1_555
C109_5 C110_5 1_555 1_555
C109_5 C114_5 1_555 1_555
C110_5 C115_5 1_555 1_555
C117_4 O35_2 1_555 1_555
O19_3 Zn8_2 1_555 1_555
O26_2 Zn8_2 1_555 1_555
O7_4 Zn3_3 1_555 1_555
O21_2 Zn20_2 1_555 1_555
O24_2 Zn19_2 1_555 1_555
O32_3 Zn20_2 1_555 1_555
Zn20_2 O7_4 1_555 1_555
O7_6 Zn19_2 1_555 1_555
O7_5 Zn3_4 1_555 1_555
O13_2 Zn3_4 1_555 1_555
O7_6 Zn3_5 1_555 1_555
O14_2 Zn3_5 1_555 1_555
C22_5 C27_5 1_555 1_555
C24_6 C29_6 1_555 1_555
C27_5 C32_5 1_555 1_555
C29_6 C34_6 1_555 1_555
C32_5 H14_5 1_555 1_555
C34_6 H16_6 1_555 1_555
C37_5 C32_5 1_555 1_555
C39_6 C34_6 1_555 1_555
H19_5 C37_5 1_555 1_555
H21_6 C39_6 1_555 1_555
C42_5 C27_5 1_555 1_555
C44_6 C29_6 1_555 1_555
H24_5 C42_5 1_555 1_555
H26_6 C44_6 1_555 1_555
C47_5 C37_5 1_555 1_555
C49_6 C39_6 1_555 1_555
C52_5 H29_5 1_555 1_555
C53_5 H30_5 1_555 1_555
C54_6 H31_6 1_555 1_555
C57_5 C52_5 1_555 1_555
C58_5 C53_5 1_555 1_555
C59_6 C54_6 1_555 1_555
C62_5 C57_5 1_555 1_555
C63_5 C58_5 1_555 1_555
C64_6 C59_6 1_555 1_555
H34_5 C62_5 1_555 1_555
H35_5 C63_5 1_555 1_555
C67_5 C62_5 1_555 1_555
C68_5 C63_5 1_555 1_555
H39_5 C67_5 1_555 1_555
H40_5 C68_5 1_555 1_555
H42_6 C70_6 1_555 1_555
C72_5 C52_5 1_555 1_555
C73_5 C53_5 1_555 1_555
C74_6 C54_6 1_555 1_555
H44_5 C72_5 1_555 1_555
H45_5 C73_5 1_555 1_555
H46_6 C74_6 1_555 1_555
C77_5 C67_5 1_555 1_555
C78_5 C68_5 1_555 1_555
C82_5 C87_5 1_555 1_555
C84_6 C89_6 1_555 1_555
C89_6 H51_6 1_555 1_555
C92_5 C42_5 1_555 1_555
C94_6 C44_6 1_555 1_555
H54_5 C92_5 1_555 1_555
H56_6 C94_6 1_555 1_555
C97_5 C82_5 1_555 1_555
C98_5 C83_5 1_555 1_555
C99_6 C84_6 1_555 1_555
H59_5 C97_5 1_555 1_555
H60_5 C98_5 1_555 1_555
H61_6 C99_6 1_555 1_555
C102_5 C97_5 1_555 1_555
C103_5 C98_5 1_555 1_555
C104_6 C99_6 1_555 1_555
H64_5 C102_5 1_555 1_555
H65_5 C103_5 1_555 1_555
H66_6 C104_6 1_555 1_555
C107_5 C102_5 1_555 1_555
C108_5 C103_5 1_555 1_555
C109_6 C104_6 1_555 1_555
C112_5 C87_5 1_555 1_555
C114_6 C89_6 1_555 1_555
H71_6 C114_6 1_555 1_555
C117_5 C77_5 1_555 1_555
C118_5 C78_5 1_555 1_555
C119_6 C79_6 1_555 1_555
N3_5 C47_5 1_555 1_555
N5_6 C49_6 1_555 1_555
O13_2 C22_5 1_555 1_555
O23_3 C24_6 1_555 1_555
O33_2 C117_5 1_555 1_555
O27_5 C118_5 1_555 1_555
O36_5 C118_5 1_555 1_555
O40_3 C119_6 1_555 1_555
Zn15 O27_5 1_555 1_555
Zn14 O36_5 1_555 1_555
Zn21_3 O29_6 1_555 1_555
C24_6 O15_3 1_555 1_555
C47_5 C92_5 1_555 1_555
C49_6 C94_6 1_555 1_555
C57_5 N3_5 1_555 1_555
C58_5 N4_5 1_555 1_555
C59_6 N5_6 1_555 1_555
C72_5 C77_5 1_555 1_555
C73_5 C78_5 1_555 1_555
C74_6 C79_6 1_555 1_555
C82_5 N3_5 1_555 1_555
C83_5 N4_5 1_555 1_555
C84_6 N5_6 1_555 1_555
C107_5 C108_5 1_555 1_555
C107_5 C112_5 1_555 1_555
C109_6 C114_6 1_555 1_555
C117_5 O42_2 1_555 1_555
C23_5 C28_5 1_555 1_555
C25_6 C30_6 1_555 1_555
C28_5 C33_5 1_555 1_555
C30_6 C35_6 1_555 1_555
C33_5 H15_5 1_555 1_555
C35_6 H17_6 1_555 1_555
C38_5 C33_5 1_555 1_555
C40_6 C35_6 1_555 1_555
H20_5 C38_5 1_555 1_555
H22_6 C40_6 1_555 1_555
C43_5 C28_5 1_555 1_555
C45_6 C30_6 1_555 1_555
H25_5 C43_5 1_555 1_555
H27_6 C45_6 1_555 1_555
C48_5 C38_5 1_555 1_555
C50_6 C40_6 1_555 1_555
C55_6 H32_6 1_555 1_555
C60_6 C55_6 1_555 1_555
C65_6 C60_6 1_555 1_555
H41_6 C69_6 1_555 1_555
C75_6 C55_6 1_555 1_555
H47_6 C75_6 1_555 1_555
C85_6 C90_6 1_555 1_555
C88_5 H50_5 1_555 1_555
C90_6 H52_6 1_555 1_555
C93_5 C43_5 1_555 1_555
C95_6 C45_6 1_555 1_555
H55_5 C93_5 1_555 1_555
H57_6 C95_6 1_555 1_555
C100_6 C85_6 1_555 1_555
H62_6 C100_6 1_555 1_555
C105_6 C100_6 1_555 1_555
H67_6 C105_6 1_555 1_555
C110_6 C105_6 1_555 1_555
C113_5 C88_5 1_555 1_555
C115_6 C90_6 1_555 1_555
H70_5 C113_5 1_555 1_555
H72_6 C115_6 1_555 1_555
C120_6 C80_6 1_555 1_555
N6_6 C50_6 1_555 1_555
O10_5 C23_5 1_555 1_555
O12_6 C25_6 1_555 1_555
O18_5 C23_5 1_555 1_555
O20_6 C25_6 1_555 1_555
O38_6 C120_6 1_555 1_555
Zn5_3 O12_6 1_555 1_555
Zn6_2 O10_5 1_555 1_555
Zn15_6 O20_6 1_555 1_555
Zn21 O18_5 1_555 1_555
C48_5 C93_5 1_555 1_555
C50_6 C95_6 1_555 1_555
C60_6 N6_6 1_555 1_555
C75_6 C80_6 1_555 1_555
C85_6 N6_6 1_555 1_555
C110_6 C115_6 1_555 1_555
C23_6 C28_6 1_555 1_555
C28_6 C33_6 1_555 1_555
C33_6 H15_6 1_555 1_555
C38_6 C33_6 1_555 1_555
H20_6 C38_6 1_555 1_555
C43_6 C28_6 1_555 1_555
H25_6 C43_6 1_555 1_555
C48_6 C38_6 1_555 1_555
C88_6 H50_6 1_555 1_555
C93_6 C43_6 1_555 1_555
H55_6 C93_6 1_555 1_555
C113_6 C88_6 1_555 1_555
H70_6 C113_6 1_555 1_555
O10_6 C23_6 1_555 1_555
O18_6 C23_6 1_555 1_555
Zn6_2 O10_6 1_555 1_555
Zn24 O18_6 1_555 1_555
C48_6 C93_6 1_555 1_555
C22_6 C27_6 1_555 1_555
C27_6 C32_6 1_555 1_555
C32_6 H14_6 1_555 1_555
C37_6 C32_6 1_555 1_555
H19_6 C37_6 1_555 1_555
C42_6 C27_6 1_555 1_555
H24_6 C42_6 1_555 1_555
C47_6 C37_6 1_555 1_555
C52_6 H29_6 1_555 1_555
C53_6 H30_6 1_555 1_555
C57_6 C52_6 1_555 1_555
C58_6 C53_6 1_555 1_555
C62_6 C57_6 1_555 1_555
C63_6 C58_6 1_555 1_555
H34_6 C62_6 1_555 1_555
H35_6 C63_6 1_555 1_555
C67_6 C62_6 1_555 1_555
C68_6 C63_6 1_555 1_555
H39_6 C67_6 1_555 1_555
H40_6 C68_6 1_555 1_555
C72_6 C52_6 1_555 1_555
C73_6 C53_6 1_555 1_555
H44_6 C72_6 1_555 1_555
H45_6 C73_6 1_555 1_555
C77_6 C67_6 1_555 1_555
C78_6 C68_6 1_555 1_555
C82_6 C87_6 1_555 1_555
C92_6 C42_6 1_555 1_555
H54_6 C92_6 1_555 1_555
C97_6 C82_6 1_555 1_555
C98_6 C83_6 1_555 1_555
H59_6 C97_6 1_555 1_555
H60_6 C98_6 1_555 1_555
C102_6 C97_6 1_555 1_555
C103_6 C98_6 1_555 1_555
H64_6 C102_6 1_555 1_555
H65_6 C103_6 1_555 1_555
C107_6 C102_6 1_555 1_555
C108_6 C103_6 1_555 1_555
C112_6 C87_6 1_555 1_555
C117_6 C77_6 1_555 1_555
C118_6 C78_6 1_555 1_555
N3_6 C47_6 1_555 1_555
O14_2 C22_6 1_555 1_555
O31_2 C117_6 1_555 1_555
O27_6 C118_6 1_555 1_555
O36_6 C118_6 1_555 1_555
Zn15_2 O27_6 1_555 1_555
Zn15 O36_6 1_555 1_555
C47_6 C92_6 1_555 1_555
C57_6 N3_6 1_555 1_555
C58_6 N4_6 1_555 1_555
C72_6 C77_6 1_555 1_555
C73_6 C78_6 1_555 1_555
C82_6 N3_6 1_555 1_555
C83_6 N4_6 1_555 1_555
C107_6 C108_6 1_555 1_555
C107_6 C112_6 1_555 1_555
C117_6 O41_2 1_555 1_555
O1_10 Zn5 1_555 1_555
Zn14 O1_10 1_555 1_555
O7_7 Zn21 1_555 1_555
Zn15_2 O1_10 1_555 1_555
Zn15 O1_10 1_555 1_555
O7_7 Zn22 1_555 1_555
O7_7 Zn6_2 1_555 1_555
Zn24 O7_7 1_555 1_555
O1_11 Zn5_2 1_555 1_555
C23_7 C28_7 1_555 1_555
C28_7 C33_7 1_555 1_555
C33_7 H15_7 1_555 1_555
C38_7 C33_7 1_555 1_555
H20_7 C38_7 1_555 1_555
C43_7 C28_7 1_555 1_555
H25_7 C43_7 1_555 1_555
C48_7 C38_7 1_555 1_555
C52_7 H29_7 1_555 1_555
C53_7 H30_7 1_555 1_555
C57_7 C52_7 1_555 1_555
C58_7 C53_7 1_555 1_555
C62_7 C57_7 1_555 1_555
C63_7 C58_7 1_555 1_555
H34_7 C62_7 1_555 1_555
H35_7 C63_7 1_555 1_555
C67_7 C62_7 1_555 1_555
C68_7 C63_7 1_555 1_555
H39_7 C67_7 1_555 1_555
H40_7 C68_7 1_555 1_555
C72_7 C52_7 1_555 1_555
C73_7 C53_7 1_555 1_555
H44_7 C72_7 1_555 1_555
H45_7 C73_7 1_555 1_555
C77_7 C67_7 1_555 1_555
C78_7 C68_7 1_555 1_555
C83_7 C88_7 1_555 1_555
C93_7 C43_7 1_555 1_555
H55_7 C93_7 1_555 1_555
C97_7 C82_7 1_555 1_555
C98_7 C83_7 1_555 1_555
H59_7 C97_7 1_555 1_555
H60_7 C98_7 1_555 1_555
C102_7 C97_7 1_555 1_555
C103_7 C98_7 1_555 1_555
H64_7 C102_7 1_555 1_555
H65_7 C103_7 1_555 1_555
C107_7 C102_7 1_555 1_555
C108_7 C103_7 1_555 1_555
C113_7 C88_7 1_555 1_555
C117_7 C77_7 1_555 1_555
C118_7 C78_7 1_555 1_555
N4_7 C48_7 1_555 1_555
O10_7 C23_7 1_555 1_555
O26_3 C117_7 1_555 1_555
O27_7 C118_7 1_555 1_555
O31_3 Zn15_4 1_555 1_555
O33_3 Zn14_2 1_555 1_555
O35_3 Zn14_2 1_555 1_555
O36_7 C118_7 1_555 1_555
O41_3 Zn15_3 1_555 1_555
O42_3 Zn15_4 1_555 1_555
Zn6_4 O10_7 1_555 1_555
Zn14_3 O27_7 1_555 1_555
Zn15_6 O36_7 1_555 1_555
C48_7 C93_7 1_555 1_555
C57_7 N3_7 1_555 1_555
C58_7 N4_7 1_555 1_555
C72_7 C77_7 1_555 1_555
C73_7 C78_7 1_555 1_555
C82_7 N3_7 1_555 1_555
C83_7 N4_7 1_555 1_555
C107_7 C108_7 1_555 1_555
C108_7 C113_7 1_555 1_555
C117_7 O35_3 1_555 1_555
O26_3 Zn15_3 1_555 1_555
C22_7 C27_7 1_555 1_555
C27_7 C32_7 1_555 1_555
C32_7 H14_7 1_555 1_555
C37_7 C32_7 1_555 1_555
H19_7 C37_7 1_555 1_555
C42_7 C27_7 1_555 1_555
H24_7 C42_7 1_555 1_555
C47_7 C37_7 1_555 1_555
C87_7 H49_7 1_555 1_555
C92_7 C42_7 1_555 1_555
H54_7 C92_7 1_555 1_555
C112_7 C87_7 1_555 1_555
H69_7 C112_7 1_555 1_555
O7_8 Zn3_6 1_555 1_555
O9_3 C22_7 1_555 1_555
O13_3 Zn3_6 1_555 1_555
O14_3 Zn3_6 1_555 1_555
O22_3 C22_7 1_555 1_555
Zn3_6 O9_3 1_555 1_555
Zn22_3 O18_7 1_555 1_555
C47_7 C92_7 1_555 1_555
C22_8 C27_8 1_555 1_555
C23_8 C28_8 1_555 1_555
C27_8 C32_8 1_555 1_555
C28_8 C33_8 1_555 1_555
C32_8 H14_8 1_555 1_555
C33_8 H15_8 1_555 1_555
C37_8 C32_8 1_555 1_555
C38_8 C33_8 1_555 1_555
H19_8 C37_8 1_555 1_555
H20_8 C38_8 1_555 1_555
C42_8 C27_8 1_555 1_555
C43_8 C28_8 1_555 1_555
H24_8 C42_8 1_555 1_555
H25_8 C43_8 1_555 1_555
C47_8 C37_8 1_555 1_555
C48_8 C38_8 1_555 1_555
C52_8 H29_8 1_555 1_555
C53_8 H30_8 1_555 1_555
C57_8 C52_8 1_555 1_555
C58_8 C53_8 1_555 1_555
C62_8 C57_8 1_555 1_555
C63_8 C58_8 1_555 1_555
H34_8 C62_8 1_555 1_555
H35_8 C63_8 1_555 1_555
C67_8 C62_8 1_555 1_555
C68_8 C63_8 1_555 1_555
H39_8 C67_8 1_555 1_555
H40_8 C68_8 1_555 1_555
C72_8 C52_8 1_555 1_555
C73_8 C53_8 1_555 1_555
H44_8 C72_8 1_555 1_555
H45_8 C73_8 1_555 1_555
C77_8 C67_8 1_555 1_555
C78_8 C68_8 1_555 1_555
C82_8 C87_8 1_555 1_555
C83_8 C88_8 1_555 1_555
C87_8 H49_8 1_555 1_555
C88_8 H50_8 1_555 1_555
C92_8 C42_8 1_555 1_555
C93_8 C43_8 1_555 1_555
H54_8 C92_8 1_555 1_555
H55_8 C93_8 1_555 1_555
C97_8 C82_8 1_555 1_555
C98_8 C83_8 1_555 1_555
H59_8 C97_8 1_555 1_555
H60_8 C98_8 1_555 1_555
C102_8 C97_8 1_555 1_555
C103_8 C98_8 1_555 1_555
H64_8 C102_8 1_555 1_555
H65_8 C103_8 1_555 1_555
C107_8 C102_8 1_555 1_555
C108_8 C103_8 1_555 1_555
C112_8 C87_8 1_555 1_555
C113_8 C88_8 1_555 1_555
H69_8 C112_8 1_555 1_555
H70_8 C113_8 1_555 1_555
C117_8 C77_8 1_555 1_555
C118_8 C78_8 1_555 1_555
N3_8 C47_8 1_555 1_555
N4_8 C48_8 1_555 1_555
O13_3 C22_8 1_555 1_555
O10_8 C23_8 1_555 1_555
O24_3 C22_8 1_555 1_555
O18_8 C23_8 1_555 1_555
O33_3 C117_8 1_555 1_555
O27_8 C118_8 1_555 1_555
O36_8 C118_8 1_555 1_555
Zn6_3 O10_8 1_555 1_555
Zn15_5 O27_8 1_555 1_555
Zn14_3 O36_8 1_555 1_555
Zn21_3 O18_8 1_555 1_555
C47_8 C92_8 1_555 1_555
C48_8 C93_8 1_555 1_555
C57_8 N3_8 1_555 1_555
C58_8 N4_8 1_555 1_555
C72_8 C77_8 1_555 1_555
C73_8 C78_8 1_555 1_555
C82_8 N3_8 1_555 1_555
C83_8 N4_8 1_555 1_555
C107_8 C108_8 1_555 1_555
C107_8 C112_8 1_555 1_555
C108_8 C113_8 1_555 1_555
C117_8 O42_3 1_555 1_555
C22_9 C27_9 1_555 1_555
C27_9 C32_9 1_555 1_555
C32_9 H14_9 1_555 1_555
C37_9 C32_9 1_555 1_555
H19_9 C37_9 1_555 1_555
C42_9 C27_9 1_555 1_555
H24_9 C42_9 1_555 1_555
C47_9 C37_9 1_555 1_555
C87_9 H49_9 1_555 1_555
C92_9 C42_9 1_555 1_555
H54_9 C92_9 1_555 1_555
C112_9 C87_9 1_555 1_555
H69_9 C112_9 1_555 1_555
O14_3 C22_9 1_555 1_555
O21_3 C22_9 1_555 1_555
Zn24_3 O18_9 1_555 1_555
C47_9 C92_9 1_555 1_555
C23_9 C28_9 1_555 1_555
C28_9 C33_9 1_555 1_555
C33_9 H15_9 1_555 1_555
C38_9 C33_9 1_555 1_555
H20_9 C38_9 1_555 1_555
C43_9 C28_9 1_555 1_555
H25_9 C43_9 1_555 1_555
C48_9 C38_9 1_555 1_555
C52_9 H29_9 1_555 1_555
C53_9 H30_9 1_555 1_555
C57_9 C52_9 1_555 1_555
C58_9 C53_9 1_555 1_555
C62_9 C57_9 1_555 1_555
C63_9 C58_9 1_555 1_555
H34_9 C62_9 1_555 1_555
H35_9 C63_9 1_555 1_555
C67_9 C62_9 1_555 1_555
C68_9 C63_9 1_555 1_555
H39_9 C67_9 1_555 1_555
H40_9 C68_9 1_555 1_555
C72_9 C52_9 1_555 1_555
C73_9 C53_9 1_555 1_555
H44_9 C72_9 1_555 1_555
H45_9 C73_9 1_555 1_555
C77_9 C67_9 1_555 1_555
C78_9 C68_9 1_555 1_555
C83_9 C88_9 1_555 1_555
C93_9 C43_9 1_555 1_555
H55_9 C93_9 1_555 1_555
C97_9 C82_9 1_555 1_555
C98_9 C83_9 1_555 1_555
H59_9 C97_9 1_555 1_555
H60_9 C98_9 1_555 1_555
C102_9 C97_9 1_555 1_555
C103_9 C98_9 1_555 1_555
H64_9 C102_9 1_555 1_555
H65_9 C103_9 1_555 1_555
C107_9 C102_9 1_555 1_555
C108_9 C103_9 1_555 1_555
C113_9 C88_9 1_555 1_555
C117_9 C77_9 1_555 1_555
C118_9 C78_9 1_555 1_555
N4_9 C48_9 1_555 1_555
O10_9 C23_9 1_555 1_555
O31_3 C117_9 1_555 1_555
O27_9 C118_9 1_555 1_555
O36_9 C118_9 1_555 1_555
Zn6_6 O10_9 1_555 1_555
Zn15_6 O27_9 1_555 1_555
Zn15_5 O36_9 1_555 1_555
C48_9 C93_9 1_555 1_555
C57_9 N3_9 1_555 1_555
C58_9 N4_9 1_555 1_555
C72_9 C77_9 1_555 1_555
C73_9 C78_9 1_555 1_555
C82_9 N3_9 1_555 1_555
C83_9 N4_9 1_555 1_555
C107_9 C108_9 1_555 1_555
C108_9 C113_9 1_555 1_555
C117_9 O41_3 1_555 1_555
O7_9 Zn21_3 1_555 1_555
O1_12 Zn5_3 1_555 1_555
Zn14_3 O1_12 1_555 1_555
O7_9 Zn6_3 1_555 1_555
Zn15_6 O1_12 1_555 1_555
Zn15_5 O1_12 1_555 1_555
O7_10 Zn6_4 1_555 1_555
O7_11 Zn6_5 1_555 1_555
Zn24_3 O7_11 1_555 1_555
O7_12 Zn22_3 1_555 1_555
O7_12 Zn6_6 1_555 1_555

#END
