
###############################################################################
#
# This file contains modified crystal structure data generated from the
# MOF subset of the Cambridge Structural Database (CSD) v543 
# hosted by the Cambridge Crystallographic Data Centre (CCDC).
#
# This work is licensed under the Creative Commons
# Attribution-NonCommercial-ShareAlike 4.0 International License.
# To view a copy of this license, visit
# http://creativecommons.org/licenses/by-nc-sa/4.0/
# or send a letter to
# Creative Commons, PO Box 1866, Mountain View, CA 94042, USA.
#
# CIF created using the CSD Python API on 29 September 2022
# The structure has been converted into the P1 space group
# The structure has a 3D framework
# The original CSD entry EHIWIE is in the cubic crystal system
# The framework has been calculated to contain at least 10.0% void space
# The void calculation uses a probe of radius 1.32A, grid spacing 0.4
# The framework is charged, counterions have been retained in the structure
#
###############################################################################

data_EHIWIE
_chemical_formula_moiety         '(C384 H192 In24 N16 O172 18-)n'
_symmetry_cell_setting           triclinic
_symmetry_space_group_name_H-M   'P 1'
_symmetry_Int_Tables_number      1
_space_group_name_Hall           'P 1'
loop_
_symmetry_equiv_pos_site_id
_symmetry_equiv_pos_as_xyz
1 x,y,z
_cell_length_a                   30.3504(9)
_cell_length_b                   30.3504(9)
_cell_length_c                   30.3504(9)
_cell_angle_alpha                90
_cell_angle_beta                 90
_cell_angle_gamma                90
_cell_volume                     27957.2
loop_
_atom_site_label
_atom_site_type_symbol
_atom_site_fract_x
_atom_site_fract_y
_atom_site_fract_z
O11 O 0.2133(4) 0.0049(4) 0.5955(5)
In5 In 0.15215(4) 0.03676(4) 0.60388(4)
O29 O 0.3770(4) 0.0248(4) 0.0774(4)
O34 O 0.3097(5) 0.0178(5) 0.1565(5)
In1 In 0.39612(4) 0.65215(4) 0.46324(4)
C1 C 0.4824(7) 0.6428(7) 0.4167(7)
C2 C 0.4570(7) 0.6017(7) 0.4015(7)
C3 C 0.3721(10) 0.7183(9) 0.5186(9)
C4 C 0.3656(8) 0.7578(7) 0.5489(7)
C5 C 0.3281(7) 0.7683(7) 0.5686(7)
H1 H 0.302529 0.752770 0.561997
C6 C 0.3271(7) 0.7998(8) 0.5968(7)
H2 H 0.300623 0.805020 0.611323
C7 C 0.3621(7) 0.8263(6) 0.6070(6)
C8 C 0.4028(7) 0.8144(7) 0.5904(6)
H3 H 0.428331 0.829245 0.598578
C9 C 0.4042(6) 0.7780(6) 0.5599(6)
H4 H 0.430827 0.768488 0.547996
C10 C 0.3585(10) 0.6861(9) 0.3888(8)
C11 C 0.3316(8) 0.7017(6) 0.3493(7)
C12 C 0.3536(7) 0.7168(7) 0.3123(8)
H5 H 0.384205 0.717225 0.311465
C13 C 0.3295(7) 0.7310(6) 0.2770(7)
H6 H 0.343701 0.742291 0.252308
C14 C 0.2833(7) 0.7285(6) 0.2778(6)
C15 C 0.2631(7) 0.7129(6) 0.3149(8)
H7 H 0.232513 0.711893 0.315852
C16 C 0.2875(8) 0.6983(6) 0.3523(7)
H8 H 0.273686 0.687105 0.377280
N1 N 0.3610(5) 0.8610(5) 0.6390(5)
N2 N 0.2582(4) 0.7418(4) 0.2418(4)
O1 O 0.4668(3) 0.6662(4) 0.4483(4)
O2 O 0.5183(4) 0.6510(3) 0.3993(4)
O3 O 0.4212(4) 0.5970(3) 0.4213(3)
O4 O 0.4752(4) 0.5774(4) 0.3770(4)
O5 O 0.4045(5) 0.7133(4) 0.4951(4)
O6 O 0.3435(5) 0.6903(5) 0.5178(5)
O7 O 0.4001(6) 0.6912(6) 0.3906(6)
O8 O 0.3400(5) 0.6677(5) 0.4186(5)
C17 C 0.4814(9) 0.8721(10) 0.7817(9)
C18 C 0.4511(7) 0.8656(8) 0.7422(7)
C19 C 0.4314(7) 0.8281(7) 0.7317(7)
H9 H 0.438003 0.802529 0.747230
C20 C 0.4032(7) 0.8271(7) 0.7002(8)
H10 H 0.388677 0.800623 0.694980
C21 C 0.3930(6) 0.8621(7) 0.6737(6)
C22 C 0.4096(6) 0.9028(7) 0.6856(7)
H11 H 0.401422 0.928331 0.670755
C23 C 0.4401(6) 0.9042(6) 0.7220(6)
H12 H 0.452004 0.930827 0.731512
O9 O 0.5049(4) 0.9045(5) 0.7867(4)
O10 O 0.4822(5) 0.8435(5) 0.8097(5)
C24 C 0.2183(9) 0.9814(9) 0.6279(10)
C25 C 0.2578(7) 0.9511(7) 0.6344(8)
C26 C 0.2683(7) 0.9314(7) 0.6719(7)
H13 H 0.252770 0.938003 0.697471
C27 C 0.2998(8) 0.9032(7) 0.6729(7)
H14 H 0.305020 0.888677 0.699377
C28 C 0.3263(6) 0.8930(6) 0.6379(7)
C29 C 0.3144(7) 0.9096(6) 0.5972(7)
H15 H 0.329245 0.901422 0.571669
C30 C 0.2780(6) 0.9401(6) 0.5958(6)
H16 H 0.268488 0.952004 0.569173
O12 O 0.1903(5) 0.9822(5) 0.6565(5)
C31 C 0.1112(8) 0.6415(10) 0.1861(9)
C32 C 0.1507(7) 0.6684(8) 0.2017(6)
C33 C 0.1877(8) 0.6464(7) 0.2168(7)
H17 H 0.188535 0.615795 0.217225
C34 C 0.2230(7) 0.6705(7) 0.2310(6)
H18 H 0.247692 0.656299 0.242291
C35 C 0.2222(6) 0.7167(7) 0.2285(6)
C36 C 0.1851(8) 0.7369(7) 0.2129(6)
H19 H 0.184148 0.767487 0.211893
C37 C 0.1477(7) 0.7125(8) 0.1983(6)
H20 H 0.122720 0.726314 0.187105
O13 O 0.1094(6) 0.5999(6) 0.1912(6)
O14 O 0.0814(5) 0.6600(5) 0.1677(5)
C38 C 0.3139(9) 0.8888(8) 0.1415(10)
C39 C 0.2983(6) 0.8493(7) 0.1684(8)
C40 C 0.2832(7) 0.8123(8) 0.1464(7)
H21 H 0.282775 0.811465 0.115795
C41 C 0.2690(6) 0.7770(7) 0.1705(7)
H22 H 0.257709 0.752308 0.156299
C42 C 0.2715(6) 0.7778(6) 0.2167(7)
C43 C 0.2871(6) 0.8149(8) 0.2369(7)
H23 H 0.288107 0.815852 0.267487
C44 C 0.3017(6) 0.8523(7) 0.2125(8)
H24 H 0.312895 0.877280 0.226314
O15 O 0.3088(6) 0.8906(6) 0.0999(6)
O16 O 0.3323(5) 0.9186(5) 0.1600(5)
In2 In 0.03676(4) 0.60388(4) 0.15215(4)
C45 C 0.0833(7) 0.5176(7) 0.1428(7)
C46 C 0.0985(7) 0.5430(7) 0.1017(7)
O17 O 0.0517(4) 0.5332(3) 0.1662(4)
O18 O 0.1007(4) 0.4817(4) 0.1510(3)
O19 O 0.0787(3) 0.5788(4) 0.0970(3)
O20 O 0.1230(4) 0.5248(4) 0.0774(4)
In3 In 0.34785(4) 0.96324(4) 0.10388(4)
C47 C 0.3572(7) 0.9167(7) 0.0176(7)
C48 C 0.3983(7) 0.9015(7) 0.0430(7)
O21 O 0.3338(4) 0.9483(4) 0.0332(3)
O23 O 0.4030(3) 0.9213(3) 0.0788(4)
O24 O 0.4226(4) 0.8770(4) 0.0248(4)
In4 In 0.53676(4) 0.89612(4) 0.84785(4)
In7 In 0.53676(4) 0.60388(4) 0.34785(4)
In8 In 0.15215(4) 0.46324(4) 0.10388(4)
O25 O 0.0183(4) 0.6510(3) 0.1007(4)
O26 O 0.3993(4) 0.9817(4) 0.1510(3)
O27 O 0.3490(3) 0.6007(4) 0.4817(4)
O30 O 0.4226(4) 0.6230(4) 0.5248(4)
O31 O 0.0049(4) 0.5955(5) 0.2133(4)
O32 O 0.2867(4) 0.9951(4) 0.0955(5)
O22 O 0.3490(3) 0.8993(4) 0.9817(4)
In6 In 0.39612(4) 0.84785(4) 0.96324(4)
O28 O 0.9752(4) 0.5774(4) 0.1230(4)
O33 O 0.9822(5) 0.6565(5) 0.1903(5)
C3_2 C 0.1279(10) 0.2817(9) 0.0186(9)
C4_2 C 0.1344(8) 0.2422(7) 0.0489(7)
C5_2 C 0.1719(7) 0.2317(7) 0.0686(7)
H1_2 H 0.197471 0.247230 0.061997
C6_2 C 0.1729(7) 0.2002(8) 0.0968(7)
H2_2 H 0.199377 0.194980 0.111323
C7_2 C 0.1379(7) 0.1737(6) 0.1070(6)
C8_2 C 0.0972(7) 0.1856(7) 0.0904(6)
H3_2 H 0.071669 0.170755 0.098578
C9_2 C 0.0958(6) 0.2220(6) 0.0599(6)
H4_2 H 0.069173 0.231512 0.047996
N1_2 N 0.1390(5) 0.1390(5) 0.1390(5)
O6_2 O 0.1565(5) 0.3097(5) 0.0178(5)
C17_2 C 0.0186(9) 0.1279(10) 0.2817(9)
C18_2 C 0.0489(7) 0.1344(8) 0.2422(7)
C19_2 C 0.0686(7) 0.1719(7) 0.2317(7)
H9_2 H 0.061997 0.197471 0.247230
C20_2 C 0.0968(7) 0.1729(7) 0.2002(8)
H10_2 H 0.111323 0.199377 0.194980
C21_2 C 0.1070(6) 0.1379(7) 0.1737(6)
C22_2 C 0.0904(6) 0.0972(7) 0.1856(7)
H11_2 H 0.098578 0.071669 0.170755
C23_2 C 0.0599(6) 0.0958(6) 0.2220(6)
H12_2 H 0.047996 0.069173 0.231512
O10_2 O 0.0178(5) 0.1565(5) 0.3097(5)
C24_2 C 0.2817(9) 0.0186(9) 0.1279(10)
C25_2 C 0.2422(7) 0.0489(7) 0.1344(8)
C26_2 C 0.2317(7) 0.0686(7) 0.1719(7)
H13_2 H 0.247230 0.061997 0.197471
C27_2 C 0.2002(8) 0.0968(7) 0.1729(7)
H14_2 H 0.194980 0.111323 0.199377
C28_2 C 0.1737(6) 0.1070(6) 0.1379(7)
C29_2 C 0.1856(7) 0.0904(6) 0.0972(7)
H15_2 H 0.170755 0.098578 0.071669
C30_2 C 0.2220(6) 0.0599(6) 0.0958(6)
H16_2 H 0.231512 0.047996 0.069173
O30_2 O 0.0774(4) 0.3770(4) 0.0248(4)
In1_2 In 0.10388(4) 0.34785(4) 0.96324(4)
C1_2 C 0.0176(7) 0.3572(7) 0.9167(7)
C2_2 C 0.0430(7) 0.3983(7) 0.9015(7)
C10_2 C 0.1415(10) 0.3139(9) 0.8888(8)
C11_2 C 0.1684(8) 0.2983(6) 0.8493(7)
C12_2 C 0.1464(7) 0.2832(7) 0.8123(8)
H5_2 H 0.115795 0.282775 0.811465
C13_2 C 0.1705(7) 0.2690(6) 0.7770(7)
H6_2 H 0.156299 0.257709 0.752308
C14_2 C 0.2167(7) 0.2715(6) 0.7778(6)
C15_2 C 0.2369(7) 0.2871(6) 0.8149(8)
H7_2 H 0.267487 0.288107 0.815852
C16_2 C 0.2125(8) 0.3017(6) 0.8523(7)
H8_2 H 0.226314 0.312895 0.877280
N2_2 N 0.2418(4) 0.2582(4) 0.7418(4)
O1_2 O 0.0332(3) 0.3338(4) 0.9483(4)
O3_2 O 0.0788(4) 0.4030(3) 0.9213(3)
O4_2 O 0.0248(4) 0.4226(4) 0.8770(4)
O5_2 O 0.0955(5) 0.2867(4) 0.9951(4)
O7_2 O 0.0999(6) 0.3088(6) 0.8906(6)
O8_2 O 0.1600(5) 0.3323(5) 0.9186(5)
C31_2 C 0.3888(8) 0.3585(10) 0.6861(9)
C32_2 C 0.3493(7) 0.3316(8) 0.7017(6)
C33_2 C 0.3123(8) 0.3536(7) 0.7168(7)
H17_2 H 0.311465 0.384205 0.717225
C34_2 C 0.2770(7) 0.3295(7) 0.7310(6)
H18_2 H 0.252308 0.343701 0.742291
C35_2 C 0.2778(6) 0.2833(7) 0.7285(6)
C36_2 C 0.3149(8) 0.2631(7) 0.7129(6)
H19_2 H 0.315852 0.232513 0.711893
C37_2 C 0.3523(7) 0.2875(8) 0.6983(6)
H20_2 H 0.377280 0.273686 0.687105
O13_2 O 0.3906(6) 0.4001(6) 0.6912(6)
O14_2 O 0.4186(5) 0.3400(5) 0.6677(5)
C38_2 C 0.1861(9) 0.1112(8) 0.6415(10)
C39_2 C 0.2017(6) 0.1507(7) 0.6684(8)
C40_2 C 0.2168(7) 0.1877(8) 0.6464(7)
H21_2 H 0.217225 0.188535 0.615795
C41_2 C 0.2310(6) 0.2230(7) 0.6705(7)
H22_2 H 0.242291 0.247692 0.656299
C42_2 C 0.2285(6) 0.2222(6) 0.7167(7)
C43_2 C 0.2129(6) 0.1851(8) 0.7369(7)
H23_2 H 0.211893 0.184148 0.767487
C44_2 C 0.1983(6) 0.1477(7) 0.7125(8)
H24_2 H 0.187105 0.122720 0.726314
O15_2 O 0.1912(6) 0.1094(6) 0.5999(6)
O16_2 O 0.1677(5) 0.0814(5) 0.6600(5)
In2_2 In 0.46324(4) 0.39612(4) 0.65215(4)
C45_2 C 0.4167(7) 0.4824(7) 0.6428(7)
C46_2 C 0.4015(7) 0.4570(7) 0.6017(7)
O17_2 O 0.4483(4) 0.4668(3) 0.6662(4)
O18_2 O 0.3993(4) 0.5183(4) 0.6510(3)
O19_2 O 0.4213(3) 0.4212(4) 0.5970(3)
O20_2 O 0.3770(4) 0.4752(4) 0.5774(4)
C47_2 C 0.1428(7) 0.0833(7) 0.5176(7)
C48_2 C 0.1017(7) 0.0985(7) 0.5430(7)
O21_2 O 0.1662(4) 0.0517(4) 0.5332(3)
O22_2 O 0.1510(3) 0.1007(4) 0.4817(4)
O23_2 O 0.0970(3) 0.0787(3) 0.5788(4)
O24_2 O 0.0774(4) 0.1230(4) 0.5248(4)
In6_2 In 0.10388(4) 0.15215(4) 0.46324(4)
In8_2 In 0.34785(4) 0.53676(4) 0.60388(4)
O25_2 O 0.4817(4) 0.3490(3) 0.6007(4)
O26_2 O 0.1007(4) 0.0183(4) 0.6510(3)
O27_2 O 0.1510(3) 0.3993(4) 0.9817(4)
O28_2 O 0.5248(4) 0.4226(4) 0.6230(4)
O31_2 O 0.4951(4) 0.4045(5) 0.7133(4)
O33_2 O 0.5178(5) 0.3435(5) 0.6903(5)
O29_2 O 0.1230(4) 0.9752(4) 0.5774(4)
O9_2 O 0.9951(4) 0.0955(5) 0.2867(4)
In4_2 In 0.96324(4) 0.10388(4) 0.34785(4)
O2_2 O 0.9817(4) 0.3490(3) 0.8993(4)
In7_2 In 0.96324(4) 0.39612(4) 0.84785(4)
O28_3 O 0.0248(4) 0.0774(4) 0.3770(4)
In1_3 In 0.60388(4) 0.15215(4) 0.03676(4)
C1_3 C 0.5176(7) 0.1428(7) 0.0833(7)
C2_3 C 0.5430(7) 0.1017(7) 0.0985(7)
C10_3 C 0.6415(10) 0.1861(9) 0.1112(8)
C11_3 C 0.6684(8) 0.2017(6) 0.1507(7)
C12_3 C 0.6464(7) 0.2168(7) 0.1877(8)
H5_3 H 0.615795 0.217225 0.188535
C13_3 C 0.6705(7) 0.2310(6) 0.2230(7)
H6_3 H 0.656299 0.242291 0.247692
C14_3 C 0.7167(7) 0.2285(6) 0.2222(6)
C15_3 C 0.7369(7) 0.2129(6) 0.1851(8)
H7_3 H 0.767487 0.211893 0.184148
C16_3 C 0.7125(8) 0.1983(6) 0.1477(7)
H8_3 H 0.726314 0.187105 0.122720
N2_3 N 0.7418(4) 0.2418(4) 0.2582(4)
O1_3 O 0.5332(3) 0.1662(4) 0.0517(4)
O2_3 O 0.4817(4) 0.1510(3) 0.1007(4)
O3_3 O 0.5788(4) 0.0970(3) 0.0787(3)
O4_3 O 0.5248(4) 0.0774(4) 0.1230(4)
O5_3 O 0.5955(5) 0.2133(4) 0.0049(4)
O7_3 O 0.5999(6) 0.1912(6) 0.1094(6)
O8_3 O 0.6600(5) 0.1677(5) 0.0814(5)
C31_3 C 0.8888(8) 0.1415(10) 0.3139(9)
C32_3 C 0.8493(7) 0.1684(8) 0.2983(6)
C33_3 C 0.8123(8) 0.1464(7) 0.2832(7)
H17_3 H 0.811465 0.115795 0.282775
C34_3 C 0.7770(7) 0.1705(7) 0.2690(6)
H18_3 H 0.752308 0.156299 0.257709
C35_3 C 0.7778(6) 0.2167(7) 0.2715(6)
C36_3 C 0.8149(8) 0.2369(7) 0.2871(6)
H19_3 H 0.815852 0.267487 0.288107
C37_3 C 0.8523(7) 0.2125(8) 0.3017(6)
H20_3 H 0.877280 0.226314 0.312895
O13_3 O 0.8906(6) 0.0999(6) 0.3088(6)
O14_3 O 0.9186(5) 0.1600(5) 0.3323(5)
C38_3 C 0.6861(9) 0.3888(8) 0.3585(10)
C39_3 C 0.7017(6) 0.3493(7) 0.3316(8)
C40_3 C 0.7168(7) 0.3123(8) 0.3536(7)
H21_3 H 0.717225 0.311465 0.384205
C41_3 C 0.7310(6) 0.2770(7) 0.3295(7)
H22_3 H 0.742291 0.252308 0.343701
C42_3 C 0.7285(6) 0.2778(6) 0.2833(7)
C43_3 C 0.7129(6) 0.3149(8) 0.2631(7)
H23_3 H 0.711893 0.315852 0.232513
C44_3 C 0.6983(6) 0.3523(7) 0.2875(8)
H24_3 H 0.687105 0.377280 0.273686
O15_3 O 0.6912(6) 0.3906(6) 0.4001(6)
O16_3 O 0.6677(5) 0.4186(5) 0.3400(5)
C45_3 C 0.9167(7) 0.0176(7) 0.3572(7)
C46_3 C 0.9015(7) 0.0430(7) 0.3983(7)
O17_3 O 0.9483(4) 0.0332(3) 0.3338(4)
O19_3 O 0.9213(3) 0.0788(4) 0.4030(3)
O20_3 O 0.8770(4) 0.0248(4) 0.4226(4)
In3_2 In 0.65215(4) 0.46324(4) 0.39612(4)
C47_3 C 0.6428(7) 0.4167(7) 0.4824(7)
C48_3 C 0.6017(7) 0.4015(7) 0.4570(7)
O21_3 O 0.6662(4) 0.4483(4) 0.4668(3)
O22_3 O 0.6510(3) 0.3993(4) 0.5183(4)
O23_3 O 0.5970(3) 0.4213(3) 0.4212(4)
O24_3 O 0.5774(4) 0.3770(4) 0.4752(4)
In6_3 In 0.60388(4) 0.34785(4) 0.53676(4)
In7_3 In 0.46324(4) 0.10388(4) 0.15215(4)
O25_3 O 0.9817(4) 0.1510(3) 0.3993(4)
O26_3 O 0.6007(4) 0.4817(4) 0.3490(3)
O27_3 O 0.6510(3) 0.1007(4) 0.0183(4)
O29_3 O 0.6230(4) 0.5248(4) 0.4226(4)
O32_2 O 0.7133(4) 0.4951(4) 0.4045(5)
O34_2 O 0.6903(5) 0.5178(5) 0.3435(5)
C3_3 C 0.6279(10) 0.2183(9) 0.9814(9)
C4_3 C 0.6344(8) 0.2578(7) 0.9511(7)
C5_3 C 0.6719(7) 0.2683(7) 0.9314(7)
H1_3 H 0.697471 0.252770 0.938003
C6_3 C 0.6729(7) 0.2998(8) 0.9032(7)
H2_3 H 0.699377 0.305020 0.888677
C7_3 C 0.6379(7) 0.3263(6) 0.8930(6)
C8_3 C 0.5972(7) 0.3144(7) 0.9096(6)
H3_3 H 0.571669 0.329245 0.901422
C9_3 C 0.5958(6) 0.2780(6) 0.9401(6)
H4_3 H 0.569173 0.268488 0.952004
N1_3 N 0.6390(5) 0.3610(5) 0.8610(5)
O6_3 O 0.6565(5) 0.1903(5) 0.9822(5)
C17_3 C 0.5186(9) 0.3721(10) 0.7183(9)
C18_3 C 0.5489(7) 0.3656(8) 0.7578(7)
C19_3 C 0.5686(7) 0.3281(7) 0.7683(7)
H9_3 H 0.561997 0.302529 0.752770
C20_3 C 0.5968(7) 0.3271(7) 0.7998(8)
H10_3 H 0.611323 0.300623 0.805020
C21_3 C 0.6070(6) 0.3621(7) 0.8263(6)
C22_3 C 0.5904(6) 0.4028(7) 0.8144(7)
H11_3 H 0.598578 0.428331 0.829245
C23_3 C 0.5599(6) 0.4042(6) 0.7780(6)
H12_3 H 0.547996 0.430827 0.768488
C24_3 C 0.7817(9) 0.4814(9) 0.8721(10)
C25_3 C 0.7422(7) 0.4511(7) 0.8656(8)
C26_3 C 0.7317(7) 0.4314(7) 0.8281(7)
H13_3 H 0.747230 0.438003 0.802529
C27_3 C 0.7002(8) 0.4032(7) 0.8271(7)
H14_3 H 0.694980 0.388677 0.800623
C28_3 C 0.6737(6) 0.3930(6) 0.8621(7)
C29_3 C 0.6856(7) 0.4096(6) 0.9028(7)
H15_3 H 0.670755 0.401422 0.928331
C30_3 C 0.7220(6) 0.4401(6) 0.9042(6)
H16_3 H 0.731512 0.452004 0.930827
O11_2 O 0.7867(4) 0.5049(4) 0.9045(5)
O12_2 O 0.8097(5) 0.4822(5) 0.8435(5)
In5_2 In 0.84785(4) 0.53676(4) 0.89612(4)
O30_3 O 0.5774(4) 0.1230(4) 0.9752(4)
O18_3 O 0.8993(4) 0.9817(4) 0.3490(3)
In8_3 In 0.84785(4) 0.96324(4) 0.39612(4)
O2_4 O 0.0183(4) 0.8490(3) 0.6007(4)
In7_4 In 0.03676(4) 0.89612(4) 0.65215(4)
O18_4 O 0.6007(4) 0.0183(4) 0.8490(3)
In8_4 In 0.65215(4) 0.03676(4) 0.89612(4)
O22_4 O 0.8490(3) 0.6007(4) 0.0183(4)
In6_4 In 0.89612(4) 0.65215(4) 0.03676(4)
In1_4 In 0.89612(4) 0.84785(4) 0.53676(4)
C1_4 C 0.9824(7) 0.8572(7) 0.5833(7)
C2_4 C 0.9570(7) 0.8983(7) 0.5985(7)
C3_4 C 0.8721(10) 0.7817(9) 0.4814(9)
C4_4 C 0.8656(8) 0.7422(7) 0.4511(7)
C5_4 C 0.8281(7) 0.7317(7) 0.4314(7)
H1_4 H 0.802529 0.747230 0.438003
C6_4 C 0.8271(7) 0.7002(8) 0.4032(7)
H2_4 H 0.800623 0.694980 0.388677
C7_4 C 0.8621(7) 0.6737(6) 0.3930(6)
C8_4 C 0.9028(7) 0.6856(7) 0.4096(6)
H3_4 H 0.928331 0.670755 0.401422
C9_4 C 0.9042(6) 0.7220(6) 0.4401(6)
H4_4 H 0.930827 0.731512 0.452004
C10_4 C 0.8585(10) 0.8139(9) 0.6112(8)
C11_4 C 0.8316(8) 0.7983(6) 0.6507(7)
C12_4 C 0.8536(7) 0.7832(7) 0.6877(8)
H5_4 H 0.884205 0.782775 0.688535
C13_4 C 0.8295(7) 0.7690(6) 0.7230(7)
H6_4 H 0.843701 0.757709 0.747692
C14_4 C 0.7833(7) 0.7715(6) 0.7222(6)
C15_4 C 0.7631(7) 0.7871(6) 0.6851(8)
H7_4 H 0.732513 0.788107 0.684148
C16_4 C 0.7875(8) 0.8017(6) 0.6477(7)
H8_4 H 0.773686 0.812895 0.622720
N1_4 N 0.8610(5) 0.6390(5) 0.3610(5)
N2_4 N 0.7582(4) 0.7582(4) 0.7582(4)
O1_4 O 0.9668(3) 0.8338(4) 0.5517(4)
O3_4 O 0.9212(4) 0.9030(3) 0.5787(3)
O4_4 O 0.9752(4) 0.9226(4) 0.6230(4)
O5_4 O 0.9045(5) 0.7867(4) 0.5049(4)
O6_4 O 0.8435(5) 0.8097(5) 0.4822(5)
O7_4 O 0.9001(6) 0.8088(6) 0.6094(6)
O8_4 O 0.8400(5) 0.8323(5) 0.5814(5)
C17_4 C 0.9814(9) 0.6279(10) 0.2183(9)
C18_4 C 0.9511(7) 0.6344(8) 0.2578(7)
C19_4 C 0.9314(7) 0.6719(7) 0.2683(7)
H9_4 H 0.938003 0.697471 0.252770
C20_4 C 0.9032(7) 0.6729(7) 0.2998(8)
H10_4 H 0.888677 0.699377 0.305020
C21_4 C 0.8930(6) 0.6379(7) 0.3263(6)
C22_4 C 0.9096(6) 0.5972(7) 0.3144(7)
H11_4 H 0.901422 0.571669 0.329245
C23_4 C 0.9401(6) 0.5958(6) 0.2780(6)
H12_4 H 0.952004 0.569173 0.268488
C24_4 C 0.7183(9) 0.5186(9) 0.3721(10)
C25_4 C 0.7578(7) 0.5489(7) 0.3656(8)
C26_4 C 0.7683(7) 0.5686(7) 0.3281(7)
H13_4 H 0.752770 0.561997 0.302529
C27_4 C 0.7998(8) 0.5968(7) 0.3271(7)
H14_4 H 0.805020 0.611323 0.300623
C28_4 C 0.8263(6) 0.6070(6) 0.3621(7)
C29_4 C 0.8144(7) 0.5904(6) 0.4028(7)
H15_4 H 0.829245 0.598578 0.428331
C30_4 C 0.7780(6) 0.5599(6) 0.4042(6)
H16_4 H 0.768488 0.547996 0.430827
C31_4 C 0.6112(8) 0.8585(10) 0.8139(9)
C32_4 C 0.6507(7) 0.8316(8) 0.7983(6)
C33_4 C 0.6877(8) 0.8536(7) 0.7832(7)
H17_4 H 0.688535 0.884205 0.782775
C34_4 C 0.7230(7) 0.8295(7) 0.7690(6)
H18_4 H 0.747692 0.843701 0.757709
C35_4 C 0.7222(6) 0.7833(7) 0.7715(6)
C36_4 C 0.6851(8) 0.7631(7) 0.7871(6)
H19_4 H 0.684148 0.732513 0.788107
C37_4 C 0.6477(7) 0.7875(8) 0.8017(6)
H20_4 H 0.622720 0.773686 0.812895
O13_4 O 0.6094(6) 0.9001(6) 0.8088(6)
O14_4 O 0.5814(5) 0.8400(5) 0.8323(5)
C38_4 C 0.8139(9) 0.6112(8) 0.8585(10)
C39_4 C 0.7983(6) 0.6507(7) 0.8316(8)
C40_4 C 0.7832(7) 0.6877(8) 0.8536(7)
H21_4 H 0.782775 0.688535 0.884205
C41_4 C 0.7690(6) 0.7230(7) 0.8295(7)
H22_4 H 0.757709 0.747692 0.843701
C42_4 C 0.7715(6) 0.7222(6) 0.7833(7)
C43_4 C 0.7871(6) 0.6851(8) 0.7631(7)
H23_4 H 0.788107 0.684148 0.732513
C44_4 C 0.8017(6) 0.6477(7) 0.7875(8)
H24_4 H 0.812895 0.622720 0.773686
O15_4 O 0.8088(6) 0.6094(6) 0.9001(6)
O16_4 O 0.8323(5) 0.5814(5) 0.8400(5)
C45_4 C 0.5833(7) 0.9824(7) 0.8572(7)
C46_4 C 0.5985(7) 0.9570(7) 0.8983(7)
O17_4 O 0.5517(4) 0.9668(3) 0.8338(4)
O19_4 O 0.5787(3) 0.9212(4) 0.9030(3)
O20_4 O 0.6230(4) 0.9752(4) 0.9226(4)
C47_4 C 0.8572(7) 0.5833(7) 0.9824(7)
C48_4 C 0.8983(7) 0.5985(7) 0.9570(7)
O21_4 O 0.8338(4) 0.5517(4) 0.9668(3)
O23_4 O 0.9030(3) 0.5787(3) 0.9212(4)
O24_4 O 0.9226(4) 0.6230(4) 0.9752(4)
O25_4 O 0.5183(4) 0.8490(3) 0.8993(4)
O26_4 O 0.8993(4) 0.5183(4) 0.8490(3)
O27_4 O 0.8490(3) 0.8993(4) 0.5183(4)
O28_4 O 0.4752(4) 0.9226(4) 0.8770(4)
O29_4 O 0.8770(4) 0.4752(4) 0.9226(4)
O30_4 O 0.9226(4) 0.8770(4) 0.4752(4)
O33_3 O 0.0178(5) 0.3435(5) 0.8097(5)
C1_5 C 0.5176(7) 0.3572(7) 0.5833(7)
C2_5 C 0.5430(7) 0.3983(7) 0.5985(7)
C3_5 C 0.6279(10) 0.2817(9) 0.4814(9)
C4_5 C 0.6344(8) 0.2422(7) 0.4511(7)
C5_5 C 0.6719(7) 0.2317(7) 0.4314(7)
H1_5 H 0.697471 0.247230 0.438003
C6_5 C 0.6729(7) 0.2002(8) 0.4032(7)
H2_5 H 0.699377 0.194980 0.388677
C7_5 C 0.6379(7) 0.1737(6) 0.3930(6)
C8_5 C 0.5972(7) 0.1856(7) 0.4096(6)
H3_5 H 0.571669 0.170755 0.401422
C9_5 C 0.5958(6) 0.2220(6) 0.4401(6)
H4_5 H 0.569173 0.231512 0.452004
C10_5 C 0.6415(10) 0.3139(9) 0.6112(8)
C11_5 C 0.6684(8) 0.2983(6) 0.6507(7)
C12_5 C 0.6464(7) 0.2832(7) 0.6877(8)
H5_5 H 0.615795 0.282775 0.688535
C13_5 C 0.6705(7) 0.2690(6) 0.7230(7)
H6_5 H 0.656299 0.257709 0.747692
C14_5 C 0.7167(7) 0.2715(6) 0.7222(6)
C15_5 C 0.7369(7) 0.2871(6) 0.6851(8)
H7_5 H 0.767487 0.288107 0.684148
C16_5 C 0.7125(8) 0.3017(6) 0.6477(7)
H8_5 H 0.726314 0.312895 0.622720
N1_5 N 0.6390(5) 0.1390(5) 0.3610(5)
N2_5 N 0.7418(4) 0.2582(4) 0.7582(4)
O1_5 O 0.5332(3) 0.3338(4) 0.5517(4)
O3_5 O 0.5788(4) 0.4030(3) 0.5787(3)
O5_5 O 0.5955(5) 0.2867(4) 0.5049(4)
O6_5 O 0.6565(5) 0.3097(5) 0.4822(5)
O7_5 O 0.5999(6) 0.3088(6) 0.6094(6)
O8_5 O 0.6600(5) 0.3323(5) 0.5814(5)
C17_5 C 0.5186(9) 0.1279(10) 0.2183(9)
C18_5 C 0.5489(7) 0.1344(8) 0.2578(7)
C19_5 C 0.5686(7) 0.1719(7) 0.2683(7)
H9_5 H 0.561997 0.197471 0.252770
C20_5 C 0.5968(7) 0.1729(7) 0.2998(8)
H10_5 H 0.611323 0.199377 0.305020
C21_5 C 0.6070(6) 0.1379(7) 0.3263(6)
C22_5 C 0.5904(6) 0.0972(7) 0.3144(7)
H11_5 H 0.598578 0.071669 0.329245
C23_5 C 0.5599(6) 0.0958(6) 0.2780(6)
H12_5 H 0.547996 0.069173 0.268488
O9_3 O 0.4951(4) 0.0955(5) 0.2133(4)
O10_3 O 0.5178(5) 0.1565(5) 0.1903(5)
C24_5 C 0.7817(9) 0.0186(9) 0.3721(10)
C25_5 C 0.7422(7) 0.0489(7) 0.3656(8)
C26_5 C 0.7317(7) 0.0686(7) 0.3281(7)
H13_5 H 0.747230 0.061997 0.302529
C27_5 C 0.7002(8) 0.0968(7) 0.3271(7)
H14_5 H 0.694980 0.111323 0.300623
C28_5 C 0.6737(6) 0.1070(6) 0.3621(7)
C29_5 C 0.6856(7) 0.0904(6) 0.4028(7)
H15_5 H 0.670755 0.098578 0.428331
C30_5 C 0.7220(6) 0.0599(6) 0.4042(6)
H16_5 H 0.731512 0.047996 0.430827
O12_3 O 0.8097(5) 0.0178(5) 0.3435(5)
C31_5 C 0.8888(8) 0.3585(10) 0.8139(9)
C32_5 C 0.8493(7) 0.3316(8) 0.7983(6)
C33_5 C 0.8123(8) 0.3536(7) 0.7832(7)
H17_5 H 0.811465 0.384205 0.782775
C34_5 C 0.7770(7) 0.3295(7) 0.7690(6)
H18_5 H 0.752308 0.343701 0.757709
C35_5 C 0.7778(6) 0.2833(7) 0.7715(6)
C36_5 C 0.8149(8) 0.2631(7) 0.7871(6)
H19_5 H 0.815852 0.232513 0.788107
C37_5 C 0.8523(7) 0.2875(8) 0.8017(6)
H20_5 H 0.877280 0.273686 0.812895
O13_5 O 0.8906(6) 0.4001(6) 0.8088(6)
O14_5 O 0.9186(5) 0.3400(5) 0.8323(5)
C38_5 C 0.6861(9) 0.1112(8) 0.8585(10)
C39_5 C 0.7017(6) 0.1507(7) 0.8316(8)
C40_5 C 0.7168(7) 0.1877(8) 0.8536(7)
H21_5 H 0.717225 0.188535 0.884205
C41_5 C 0.7310(6) 0.2230(7) 0.8295(7)
H22_5 H 0.742291 0.247692 0.843701
C42_5 C 0.7285(6) 0.2222(6) 0.7833(7)
C43_5 C 0.7129(6) 0.1851(8) 0.7631(7)
H23_5 H 0.711893 0.184148 0.732513
C44_5 C 0.6983(6) 0.1477(7) 0.7875(8)
H24_5 H 0.687105 0.122720 0.773686
O15_5 O 0.6912(6) 0.1094(6) 0.9001(6)
O16_5 O 0.6677(5) 0.0814(5) 0.8400(5)
C45_5 C 0.9167(7) 0.4824(7) 0.8572(7)
C46_5 C 0.9015(7) 0.4570(7) 0.8983(7)
O17_5 O 0.9483(4) 0.4668(3) 0.8338(4)
O19_5 O 0.9213(3) 0.4212(4) 0.9030(3)
C47_5 C 0.6428(7) 0.0833(7) 0.9824(7)
C48_5 C 0.6017(7) 0.0985(7) 0.9570(7)
O21_5 O 0.6662(4) 0.0517(4) 0.9668(3)
O23_5 O 0.5970(3) 0.0787(3) 0.9212(4)
O31_3 O 0.9951(4) 0.4045(5) 0.7867(4)
O32_3 O 0.7133(4) 0.0049(4) 0.9045(5)
O11_3 O 0.7867(4) 0.9951(4) 0.4045(5)
O34_3 O 0.6903(5) 0.9822(5) 0.8435(5)
O9_4 O 0.0049(4) 0.9045(5) 0.7133(4)
C1_6 C 0.9824(7) 0.6428(7) 0.0833(7)
C2_6 C 0.9570(7) 0.6017(7) 0.0985(7)
C10_6 C 0.8585(10) 0.6861(9) 0.1112(8)
C11_6 C 0.8316(8) 0.7017(6) 0.1507(7)
C12_6 C 0.8536(7) 0.7168(7) 0.1877(8)
H5_6 H 0.884205 0.717225 0.188535
C13_6 C 0.8295(7) 0.7310(6) 0.2230(7)
H6_6 H 0.843701 0.742291 0.247692
C14_6 C 0.7833(7) 0.7285(6) 0.2222(6)
C15_6 C 0.7631(7) 0.7129(6) 0.1851(8)
H7_6 H 0.732513 0.711893 0.184148
C16_6 C 0.7875(8) 0.6983(6) 0.1477(7)
H8_6 H 0.773686 0.687105 0.122720
N2_6 N 0.7582(4) 0.7418(4) 0.2582(4)
O1_6 O 0.9668(3) 0.6662(4) 0.0517(4)
O3_6 O 0.9212(4) 0.5970(3) 0.0787(3)
O5_6 O 0.9045(5) 0.7133(4) 0.0049(4)
O7_6 O 0.9001(6) 0.6912(6) 0.1094(6)
O8_6 O 0.8400(5) 0.6677(5) 0.0814(5)
C31_6 C 0.6112(8) 0.6415(10) 0.3139(9)
C32_6 C 0.6507(7) 0.6684(8) 0.2983(6)
C33_6 C 0.6877(8) 0.6464(7) 0.2832(7)
H17_6 H 0.688535 0.615795 0.282775
C34_6 C 0.7230(7) 0.6705(7) 0.2690(6)
H18_6 H 0.747692 0.656299 0.257709
C35_6 C 0.7222(6) 0.7167(7) 0.2715(6)
C36_6 C 0.6851(8) 0.7369(7) 0.2871(6)
H19_6 H 0.684148 0.767487 0.288107
C37_6 C 0.6477(7) 0.7125(8) 0.3017(6)
H20_6 H 0.622720 0.726314 0.312895
O13_6 O 0.6094(6) 0.5999(6) 0.3088(6)
O14_6 O 0.5814(5) 0.6600(5) 0.3323(5)
C38_6 C 0.8139(9) 0.8888(8) 0.3585(10)
C39_6 C 0.7983(6) 0.8493(7) 0.3316(8)
C40_6 C 0.7832(7) 0.8123(8) 0.3536(7)
H21_6 H 0.782775 0.811465 0.384205
C41_6 C 0.7690(6) 0.7770(7) 0.3295(7)
H22_6 H 0.757709 0.752308 0.343701
C42_6 C 0.7715(6) 0.7778(6) 0.2833(7)
C43_6 C 0.7871(6) 0.8149(8) 0.2631(7)
H23_6 H 0.788107 0.815852 0.232513
C44_6 C 0.8017(6) 0.8523(7) 0.2875(8)
H24_6 H 0.812895 0.877280 0.273686
O15_6 O 0.8088(6) 0.8906(6) 0.4001(6)
O16_6 O 0.8323(5) 0.9186(5) 0.3400(5)
C45_6 C 0.5833(7) 0.5176(7) 0.3572(7)
C46_6 C 0.5985(7) 0.5430(7) 0.3983(7)
O17_6 O 0.5517(4) 0.5332(3) 0.3338(4)
O19_6 O 0.5787(3) 0.5788(4) 0.4030(3)
C47_6 C 0.8572(7) 0.9167(7) 0.4824(7)
C48_6 C 0.8983(7) 0.9015(7) 0.4570(7)
O21_6 O 0.8338(4) 0.9483(4) 0.4668(3)
O23_6 O 0.9030(3) 0.9213(3) 0.4212(4)
O31_4 O 0.5049(4) 0.5955(5) 0.2867(4)
O33_4 O 0.4822(5) 0.6565(5) 0.3097(5)
C3_6 C 0.8721(10) 0.7183(9) 0.9814(9)
C4_6 C 0.8656(8) 0.7578(7) 0.9511(7)
C5_6 C 0.8281(7) 0.7683(7) 0.9314(7)
H1_6 H 0.802529 0.752770 0.938003
C6_6 C 0.8271(7) 0.7998(8) 0.9032(7)
H2_6 H 0.800623 0.805020 0.888677
C7_6 C 0.8621(7) 0.8263(6) 0.8930(6)
C8_6 C 0.9028(7) 0.8144(7) 0.9096(6)
H3_6 H 0.928331 0.829245 0.901422
C9_6 C 0.9042(6) 0.7780(6) 0.9401(6)
H4_6 H 0.930827 0.768488 0.952004
N1_6 N 0.8610(5) 0.8610(5) 0.8610(5)
O6_6 O 0.8435(5) 0.6903(5) 0.9822(5)
C17_6 C 0.9814(9) 0.8721(10) 0.7183(9)
C18_6 C 0.9511(7) 0.8656(8) 0.7578(7)
C19_6 C 0.9314(7) 0.8281(7) 0.7683(7)
H9_6 H 0.938003 0.802529 0.752770
C20_6 C 0.9032(7) 0.8271(7) 0.7998(8)
H10_6 H 0.888677 0.800623 0.805020
C21_6 C 0.8930(6) 0.8621(7) 0.8263(6)
C22_6 C 0.9096(6) 0.9028(7) 0.8144(7)
H11_6 H 0.901422 0.928331 0.829245
C23_6 C 0.9401(6) 0.9042(6) 0.7780(6)
H12_6 H 0.952004 0.930827 0.768488
O10_4 O 0.9822(5) 0.8435(5) 0.6903(5)
C24_6 C 0.7183(9) 0.9814(9) 0.8721(10)
C25_6 C 0.7578(7) 0.9511(7) 0.8656(8)
C26_6 C 0.7683(7) 0.9314(7) 0.8281(7)
H13_6 H 0.752770 0.938003 0.802529
C27_6 C 0.7998(8) 0.9032(7) 0.8271(7)
H14_6 H 0.805020 0.888677 0.800623
C28_6 C 0.8263(6) 0.8930(6) 0.8621(7)
C29_6 C 0.8144(7) 0.9096(6) 0.9028(7)
H15_6 H 0.829245 0.901422 0.928331
C30_6 C 0.7780(6) 0.9401(6) 0.9042(6)
H16_6 H 0.768488 0.952004 0.930827
C3_7 C 0.3721(10) 0.7817(9) 0.0186(9)
C4_7 C 0.3656(8) 0.7422(7) 0.0489(7)
C5_7 C 0.3281(7) 0.7317(7) 0.0686(7)
H1_7 H 0.302529 0.747230 0.061997
C6_7 C 0.3271(7) 0.7002(8) 0.0968(7)
H2_7 H 0.300623 0.694980 0.111323
C7_7 C 0.3621(7) 0.6737(6) 0.1070(6)
C8_7 C 0.4028(7) 0.6856(7) 0.0904(6)
H3_7 H 0.428331 0.670755 0.098578
C9_7 C 0.4042(6) 0.7220(6) 0.0599(6)
H4_7 H 0.430827 0.731512 0.047996
N1_7 N 0.3610(5) 0.6390(5) 0.1390(5)
O6_7 O 0.3435(5) 0.8097(5) 0.0178(5)
C17_7 C 0.4814(9) 0.6279(10) 0.2817(9)
C18_7 C 0.4511(7) 0.6344(8) 0.2422(7)
C19_7 C 0.4314(7) 0.6719(7) 0.2317(7)
H9_7 H 0.438003 0.697471 0.247230
C20_7 C 0.4032(7) 0.6729(7) 0.2002(8)
H10_7 H 0.388677 0.699377 0.194980
C21_7 C 0.3930(6) 0.6379(7) 0.1737(6)
C22_7 C 0.4096(6) 0.5972(7) 0.1856(7)
H11_7 H 0.401422 0.571669 0.170755
C23_7 C 0.4401(6) 0.5958(6) 0.2220(6)
H12_7 H 0.452004 0.569173 0.231512
C24_7 C 0.2183(9) 0.5186(9) 0.1279(10)
C25_7 C 0.2578(7) 0.5489(7) 0.1344(8)
C26_7 C 0.2683(7) 0.5686(7) 0.1719(7)
H13_7 H 0.252770 0.561997 0.197471
C27_7 C 0.2998(8) 0.5968(7) 0.1729(7)
H14_7 H 0.305020 0.611323 0.199377
C28_7 C 0.3263(6) 0.6070(6) 0.1379(7)
C29_7 C 0.3144(7) 0.5904(6) 0.0972(7)
H15_7 H 0.329245 0.598578 0.071669
C30_7 C 0.2780(6) 0.5599(6) 0.0958(6)
H16_7 H 0.268488 0.547996 0.069173
O11_4 O 0.2133(4) 0.4951(4) 0.0955(5)
O12_4 O 0.1903(5) 0.5178(5) 0.1565(5)
C1_7 C 0.4824(7) 0.8572(7) 0.9167(7)
C2_7 C 0.4570(7) 0.8983(7) 0.9015(7)
C10_7 C 0.3585(10) 0.8139(9) 0.8888(8)
C11_7 C 0.3316(8) 0.7983(6) 0.8493(7)
C12_7 C 0.3536(7) 0.7832(7) 0.8123(8)
H5_7 H 0.384205 0.782775 0.811465
C13_7 C 0.3295(7) 0.7690(6) 0.7770(7)
H6_7 H 0.343701 0.757709 0.752308
C14_7 C 0.2833(7) 0.7715(6) 0.7778(6)
C15_7 C 0.2631(7) 0.7871(6) 0.8149(8)
H7_7 H 0.232513 0.788107 0.815852
C16_7 C 0.2875(8) 0.8017(6) 0.8523(7)
H8_7 H 0.273686 0.812895 0.877280
N2_7 N 0.2582(4) 0.7582(4) 0.7418(4)
O1_7 O 0.4668(3) 0.8338(4) 0.9483(4)
O3_7 O 0.4212(4) 0.9030(3) 0.9213(3)
O5_7 O 0.4045(5) 0.7867(4) 0.9951(4)
O7_7 O 0.4001(6) 0.8088(6) 0.8906(6)
O8_7 O 0.3400(5) 0.8323(5) 0.9186(5)
C31_7 C 0.1112(8) 0.8585(10) 0.6861(9)
C32_7 C 0.1507(7) 0.8316(8) 0.7017(6)
C33_7 C 0.1877(8) 0.8536(7) 0.7168(7)
H17_7 H 0.188535 0.884205 0.717225
C34_7 C 0.2230(7) 0.8295(7) 0.7310(6)
H18_7 H 0.247692 0.843701 0.742291
C35_7 C 0.2222(6) 0.7833(7) 0.7285(6)
C36_7 C 0.1851(8) 0.7631(7) 0.7129(6)
H19_7 H 0.184148 0.732513 0.711893
C37_7 C 0.1477(7) 0.7875(8) 0.6983(6)
H20_7 H 0.122720 0.773686 0.687105
O13_7 O 0.1094(6) 0.9001(6) 0.6912(6)
O14_7 O 0.0814(5) 0.8400(5) 0.6677(5)
C38_7 C 0.3139(9) 0.6112(8) 0.6415(10)
C39_7 C 0.2983(6) 0.6507(7) 0.6684(8)
C40_7 C 0.2832(7) 0.6877(8) 0.6464(7)
H21_7 H 0.282775 0.688535 0.615795
C41_7 C 0.2690(6) 0.7230(7) 0.6705(7)
H22_7 H 0.257709 0.747692 0.656299
C42_7 C 0.2715(6) 0.7222(6) 0.7167(7)
C43_7 C 0.2871(6) 0.6851(8) 0.7369(7)
H23_7 H 0.288107 0.684148 0.767487
C44_7 C 0.3017(6) 0.6477(7) 0.7125(8)
H24_7 H 0.312895 0.622720 0.726314
O15_7 O 0.3088(6) 0.6094(6) 0.5999(6)
O16_7 O 0.3323(5) 0.5814(5) 0.6600(5)
C45_7 C 0.0833(7) 0.9824(7) 0.6428(7)
C46_7 C 0.0985(7) 0.9570(7) 0.6017(7)
O17_7 O 0.0517(4) 0.9668(3) 0.6662(4)
O19_7 O 0.0787(3) 0.9212(4) 0.5970(3)
C47_7 C 0.3572(7) 0.5833(7) 0.5176(7)
C48_7 C 0.3983(7) 0.5985(7) 0.5430(7)
O21_7 O 0.3338(4) 0.5517(4) 0.5332(3)
O23_7 O 0.4030(3) 0.5787(3) 0.5788(4)
O32_4 O 0.2867(4) 0.5049(4) 0.5955(5)
O34_4 O 0.3097(5) 0.4822(5) 0.6565(5)
C1_8 C 0.0176(7) 0.1428(7) 0.4167(7)
C2_8 C 0.0430(7) 0.1017(7) 0.4015(7)
C3_8 C 0.1279(10) 0.2183(9) 0.5186(9)
C4_8 C 0.1344(8) 0.2578(7) 0.5489(7)
C5_8 C 0.1719(7) 0.2683(7) 0.5686(7)
H1_8 H 0.197471 0.252770 0.561997
C6_8 C 0.1729(7) 0.2998(8) 0.5968(7)
H2_8 H 0.199377 0.305020 0.611323
C7_8 C 0.1379(7) 0.3263(6) 0.6070(6)
C8_8 C 0.0972(7) 0.3144(7) 0.5904(6)
H3_8 H 0.071669 0.329245 0.598578
C9_8 C 0.0958(6) 0.2780(6) 0.5599(6)
H4_8 H 0.069173 0.268488 0.547996
C10_8 C 0.1415(10) 0.1861(9) 0.3888(8)
C11_8 C 0.1684(8) 0.2017(6) 0.3493(7)
C12_8 C 0.1464(7) 0.2168(7) 0.3123(8)
H5_8 H 0.115795 0.217225 0.311465
C13_8 C 0.1705(7) 0.2310(6) 0.2770(7)
H6_8 H 0.156299 0.242291 0.252308
C14_8 C 0.2167(7) 0.2285(6) 0.2778(6)
C15_8 C 0.2369(7) 0.2129(6) 0.3149(8)
H7_8 H 0.267487 0.211893 0.315852
C16_8 C 0.2125(8) 0.1983(6) 0.3523(7)
H8_8 H 0.226314 0.187105 0.377280
N1_8 N 0.1390(5) 0.3610(5) 0.6390(5)
N2_8 N 0.2418(4) 0.2418(4) 0.2418(4)
O1_8 O 0.0332(3) 0.1662(4) 0.4483(4)
O3_8 O 0.0788(4) 0.0970(3) 0.4213(3)
O5_8 O 0.0955(5) 0.2133(4) 0.4951(4)
O6_8 O 0.1565(5) 0.1903(5) 0.5178(5)
O7_8 O 0.0999(6) 0.1912(6) 0.3906(6)
O8_8 O 0.1600(5) 0.1677(5) 0.4186(5)
C17_8 C 0.0186(9) 0.3721(10) 0.7817(9)
C18_8 C 0.0489(7) 0.3656(8) 0.7422(7)
C19_8 C 0.0686(7) 0.3281(7) 0.7317(7)
H9_8 H 0.061997 0.302529 0.747230
C20_8 C 0.0968(7) 0.3271(7) 0.7002(8)
H10_8 H 0.111323 0.300623 0.694980
C21_8 C 0.1070(6) 0.3621(7) 0.6737(6)
C22_8 C 0.0904(6) 0.4028(7) 0.6856(7)
H11_8 H 0.098578 0.428331 0.670755
C23_8 C 0.0599(6) 0.4042(6) 0.7220(6)
H12_8 H 0.047996 0.430827 0.731512
C24_8 C 0.2817(9) 0.4814(9) 0.6279(10)
C25_8 C 0.2422(7) 0.4511(7) 0.6344(8)
C26_8 C 0.2317(7) 0.4314(7) 0.6719(7)
H13_8 H 0.247230 0.438003 0.697471
C27_8 C 0.2002(8) 0.4032(7) 0.6729(7)
H14_8 H 0.194980 0.388677 0.699377
C28_8 C 0.1737(6) 0.3930(6) 0.6379(7)
C29_8 C 0.1856(7) 0.4096(6) 0.5972(7)
H15_8 H 0.170755 0.401422 0.571669
C30_8 C 0.2220(6) 0.4401(6) 0.5958(6)
H16_8 H 0.231512 0.452004 0.569173
C31_8 C 0.3888(8) 0.1415(10) 0.1861(9)
C32_8 C 0.3493(7) 0.1684(8) 0.2017(6)
C33_8 C 0.3123(8) 0.1464(7) 0.2168(7)
H17_8 H 0.311465 0.115795 0.217225
C34_8 C 0.2770(7) 0.1705(7) 0.2310(6)
H18_8 H 0.252308 0.156299 0.242291
C35_8 C 0.2778(6) 0.2167(7) 0.2285(6)
C36_8 C 0.3149(8) 0.2369(7) 0.2129(6)
H19_8 H 0.315852 0.267487 0.211893
C37_8 C 0.3523(7) 0.2125(8) 0.1983(6)
H20_8 H 0.377280 0.226314 0.187105
O13_8 O 0.3906(6) 0.0999(6) 0.1912(6)
O14_8 O 0.4186(5) 0.1600(5) 0.1677(5)
C38_8 C 0.1861(9) 0.3888(8) 0.1415(10)
C39_8 C 0.2017(6) 0.3493(7) 0.1684(8)
C40_8 C 0.2168(7) 0.3123(8) 0.1464(7)
H21_8 H 0.217225 0.311465 0.115795
C41_8 C 0.2310(6) 0.2770(7) 0.1705(7)
H22_8 H 0.242291 0.252308 0.156299
C42_8 C 0.2285(6) 0.2778(6) 0.2167(7)
C43_8 C 0.2129(6) 0.3149(8) 0.2369(7)
H23_8 H 0.211893 0.315852 0.267487
C44_8 C 0.1983(6) 0.3523(7) 0.2125(8)
H24_8 H 0.187105 0.377280 0.226314
O15_8 O 0.1912(6) 0.3906(6) 0.0999(6)
O16_8 O 0.1677(5) 0.4186(5) 0.1600(5)
C45_8 C 0.4167(7) 0.0176(7) 0.1428(7)
C46_8 C 0.4015(7) 0.0430(7) 0.1017(7)
O17_8 O 0.4483(4) 0.0332(3) 0.1662(4)
O19_8 O 0.4213(3) 0.0788(4) 0.0970(3)
C47_8 C 0.1428(7) 0.4167(7) 0.0176(7)
C48_8 C 0.1017(7) 0.4015(7) 0.0430(7)
O21_8 O 0.1662(4) 0.4483(4) 0.0332(3)
O23_8 O 0.0970(3) 0.4213(3) 0.0788(4)
loop_
_geom_bond_atom_site_label_1
_geom_bond_atom_site_label_2
_geom_bond_site_symmetry_1
_geom_bond_site_symmetry_2
In5 O11 1_555 1_555
In1 O1 1_555 1_555
C1 C2 1_555 1_555
C2 O3 1_555 1_555
C3 C4 1_555 1_555
C4 C5 1_555 1_555
C5 H1 1_555 1_555
C6 C5 1_555 1_555
H2 C6 1_555 1_555
C7 C6 1_555 1_555
C8 C7 1_555 1_555
H3 C8 1_555 1_555
C9 C4 1_555 1_555
H4 C9 1_555 1_555
C10 C11 1_555 1_555
C11 C12 1_555 1_555
C12 H5 1_555 1_555
C13 C12 1_555 1_555
H6 C13 1_555 1_555
C14 C13 1_555 1_555
C15 C14 1_555 1_555
H7 C15 1_555 1_555
C16 C11 1_555 1_555
H8 C16 1_555 1_555
N1 C7 1_555 1_555
N2 C14 1_555 1_555
O1 C1 1_555 1_555
O2 C1 1_555 1_555
O3 In1 1_555 1_555
O4 C2 1_555 1_555
O5 In1 1_555 1_555
O6 In1 1_555 1_555
O7 In1 1_555 1_555
O8 In1 1_555 1_555
C17 C18 1_555 1_555
C18 C19 1_555 1_555
C19 H9 1_555 1_555
C20 C19 1_555 1_555
H10 C20 1_555 1_555
C21 N1 1_555 1_555
C22 C21 1_555 1_555
H11 C22 1_555 1_555
C23 C18 1_555 1_555
H12 C23 1_555 1_555
O9 C17 1_555 1_555
O10 C17 1_555 1_555
C24 C25 1_555 1_555
C25 C26 1_555 1_555
C26 H13 1_555 1_555
C27 C26 1_555 1_555
H14 C27 1_555 1_555
C28 N1 1_555 1_555
C29 C28 1_555 1_555
H15 C29 1_555 1_555
C30 C25 1_555 1_555
H16 C30 1_555 1_555
O12 C24 1_555 1_555
C31 C32 1_555 1_555
C32 C33 1_555 1_555
C33 H17 1_555 1_555
C34 C33 1_555 1_555
H18 C34 1_555 1_555
C35 N2 1_555 1_555
C36 C35 1_555 1_555
H19 C36 1_555 1_555
C37 C32 1_555 1_555
H20 C37 1_555 1_555
O13 C31 1_555 1_555
O14 C31 1_555 1_555
C38 C39 1_555 1_555
C39 C40 1_555 1_555
C40 H21 1_555 1_555
C41 C40 1_555 1_555
H22 C41 1_555 1_555
C42 N2 1_555 1_555
C43 C42 1_555 1_555
H23 C43 1_555 1_555
C44 C39 1_555 1_555
H24 C44 1_555 1_555
O15 C38 1_555 1_555
O16 C38 1_555 1_555
In2 O13 1_555 1_555
C45 C46 1_555 1_555
C46 O19 1_555 1_555
O17 In2 1_555 1_555
O18 C45 1_555 1_555
O19 In2 1_555 1_555
O20 C46 1_555 1_555
In3 O15 1_555 1_555
C47 C48 1_555 1_555
C48 O23 1_555 1_555
O21 In3 1_555 1_555
O23 In3 1_555 1_555
O24 C48 1_555 1_555
In4 O9 1_555 1_555
In7 O2 1_555 1_555
In8 O18 1_555 1_555
O25 In2 1_555 1_555
O26 In3 1_555 1_555
O27 In1 1_555 1_555
O30 In1 1_555 1_555
O31 In2 1_555 1_555
O32 In3 1_555 1_555
C3 O5 1_555 1_555
C3 O6 1_555 1_555
C8 C9 1_555 1_555
C10 O7 1_555 1_555
C10 O8 1_555 1_555
C15 C16 1_555 1_555
O4 In7 1_555 1_555
C20 C21 1_555 1_555
C22 C23 1_555 1_555
O10 In4 1_555 1_555
C27 C28 1_555 1_555
C29 C30 1_555 1_555
C34 C35 1_555 1_555
C36 C37 1_555 1_555
O14 In2 1_555 1_555
C41 C42 1_555 1_555
C43 C44 1_555 1_555
O16 In3 1_555 1_555
C45 O17 1_555 1_555
O20 In8 1_555 1_555
C47 O21 1_555 1_555
In6 O22 1_555 1_555
C3_2 C4_2 1_555 1_555
C4_2 C5_2 1_555 1_555
C5_2 H1_2 1_555 1_555
C6_2 C5_2 1_555 1_555
H2_2 C6_2 1_555 1_555
C7_2 C6_2 1_555 1_555
C8_2 C7_2 1_555 1_555
H3_2 C8_2 1_555 1_555
C9_2 C4_2 1_555 1_555
H4_2 C9_2 1_555 1_555
N1_2 C7_2 1_555 1_555
C17_2 C18_2 1_555 1_555
C18_2 C19_2 1_555 1_555
C19_2 H9_2 1_555 1_555
C20_2 C19_2 1_555 1_555
H10_2 C20_2 1_555 1_555
C21_2 N1_2 1_555 1_555
C22_2 C21_2 1_555 1_555
H11_2 C22_2 1_555 1_555
C23_2 C18_2 1_555 1_555
H12_2 C23_2 1_555 1_555
O10_2 C17_2 1_555 1_555
C24_2 C25_2 1_555 1_555
C25_2 C26_2 1_555 1_555
C26_2 H13_2 1_555 1_555
C27_2 C26_2 1_555 1_555
H14_2 C27_2 1_555 1_555
C28_2 N1_2 1_555 1_555
C29_2 C28_2 1_555 1_555
H15_2 C29_2 1_555 1_555
C30_2 C25_2 1_555 1_555
H16_2 C30_2 1_555 1_555
O34 C24_2 1_555 1_555
C3_2 O6_2 1_555 1_555
C8_2 C9_2 1_555 1_555
C20_2 C21_2 1_555 1_555
C22_2 C23_2 1_555 1_555
C27_2 C28_2 1_555 1_555
C29_2 C30_2 1_555 1_555
In1_2 O1_2 1_555 1_555
C1_2 C2_2 1_555 1_555
C2_2 O3_2 1_555 1_555
C10_2 C11_2 1_555 1_555
C11_2 C12_2 1_555 1_555
C12_2 H5_2 1_555 1_555
C13_2 C12_2 1_555 1_555
H6_2 C13_2 1_555 1_555
C14_2 C13_2 1_555 1_555
C15_2 C14_2 1_555 1_555
H7_2 C15_2 1_555 1_555
C16_2 C11_2 1_555 1_555
H8_2 C16_2 1_555 1_555
N2_2 C14_2 1_555 1_555
O1_2 C1_2 1_555 1_555
O3_2 In1_2 1_555 1_555
O4_2 C2_2 1_555 1_555
O5_2 In1_2 1_555 1_555
O7_2 In1_2 1_555 1_555
O8_2 In1_2 1_555 1_555
C31_2 C32_2 1_555 1_555
C32_2 C33_2 1_555 1_555
C33_2 H17_2 1_555 1_555
C34_2 C33_2 1_555 1_555
H18_2 C34_2 1_555 1_555
C35_2 N2_2 1_555 1_555
C36_2 C35_2 1_555 1_555
H19_2 C36_2 1_555 1_555
C37_2 C32_2 1_555 1_555
H20_2 C37_2 1_555 1_555
O13_2 C31_2 1_555 1_555
O14_2 C31_2 1_555 1_555
C38_2 C39_2 1_555 1_555
C39_2 C40_2 1_555 1_555
C40_2 H21_2 1_555 1_555
C41_2 C40_2 1_555 1_555
H22_2 C41_2 1_555 1_555
C42_2 N2_2 1_555 1_555
C43_2 C42_2 1_555 1_555
H23_2 C43_2 1_555 1_555
C44_2 C39_2 1_555 1_555
H24_2 C44_2 1_555 1_555
O15_2 C38_2 1_555 1_555
O16_2 C38_2 1_555 1_555
In2_2 O13_2 1_555 1_555
C45_2 C46_2 1_555 1_555
C46_2 O19_2 1_555 1_555
O17_2 In2_2 1_555 1_555
O18_2 C45_2 1_555 1_555
O19_2 In2_2 1_555 1_555
O20_2 C46_2 1_555 1_555
In5 O15_2 1_555 1_555
C47_2 C48_2 1_555 1_555
C48_2 O23_2 1_555 1_555
O21_2 In5 1_555 1_555
O22_2 C47_2 1_555 1_555
O23_2 In5 1_555 1_555
O24_2 C48_2 1_555 1_555
In6_2 O22_2 1_555 1_555
In8_2 O18_2 1_555 1_555
O25_2 In2_2 1_555 1_555
O26_2 In5 1_555 1_555
O27_2 In1_2 1_555 1_555
O28_2 In2_2 1_555 1_555
O31_2 In2_2 1_555 1_555
O33_2 In2_2 1_555 1_555
C10_2 O7_2 1_555 1_555
C10_2 O8_2 1_555 1_555
C15_2 C16_2 1_555 1_555
C34_2 C35_2 1_555 1_555
C36_2 C37_2 1_555 1_555
O14_2 In2_2 1_555 1_555
C41_2 C42_2 1_555 1_555
C43_2 C44_2 1_555 1_555
O16_2 In5 1_555 1_555
C45_2 O17_2 1_555 1_555
O20_2 In8_2 1_555 1_555
C47_2 O21_2 1_555 1_555
O24_2 In6_2 1_555 1_555
In4_2 O9_2 1_555 1_555
In7_2 O2_2 1_555 1_555
In1_3 O1_3 1_555 1_555
C1_3 C2_3 1_555 1_555
C2_3 O3_3 1_555 1_555
C10_3 C11_3 1_555 1_555
C11_3 C12_3 1_555 1_555
C12_3 H5_3 1_555 1_555
C13_3 C12_3 1_555 1_555
H6_3 C13_3 1_555 1_555
C14_3 C13_3 1_555 1_555
C15_3 C14_3 1_555 1_555
H7_3 C15_3 1_555 1_555
C16_3 C11_3 1_555 1_555
H8_3 C16_3 1_555 1_555
N2_3 C14_3 1_555 1_555
O1_3 C1_3 1_555 1_555
O2_3 C1_3 1_555 1_555
O3_3 In1_3 1_555 1_555
O4_3 C2_3 1_555 1_555
O5_3 In1_3 1_555 1_555
O7_3 In1_3 1_555 1_555
O8_3 In1_3 1_555 1_555
C31_3 C32_3 1_555 1_555
C32_3 C33_3 1_555 1_555
C33_3 H17_3 1_555 1_555
C34_3 C33_3 1_555 1_555
H18_3 C34_3 1_555 1_555
C35_3 N2_3 1_555 1_555
C36_3 C35_3 1_555 1_555
H19_3 C36_3 1_555 1_555
C37_3 C32_3 1_555 1_555
H20_3 C37_3 1_555 1_555
O13_3 C31_3 1_555 1_555
O14_3 C31_3 1_555 1_555
C38_3 C39_3 1_555 1_555
C39_3 C40_3 1_555 1_555
C40_3 H21_3 1_555 1_555
C41_3 C40_3 1_555 1_555
H22_3 C41_3 1_555 1_555
C42_3 N2_3 1_555 1_555
C43_3 C42_3 1_555 1_555
H23_3 C43_3 1_555 1_555
C44_3 C39_3 1_555 1_555
H24_3 C44_3 1_555 1_555
O15_3 C38_3 1_555 1_555
O16_3 C38_3 1_555 1_555
In4_2 O13_3 1_555 1_555
C45_3 C46_3 1_555 1_555
C46_3 O19_3 1_555 1_555
O17_3 In4_2 1_555 1_555
O19_3 In4_2 1_555 1_555
O20_3 C46_3 1_555 1_555
In3_2 O15_3 1_555 1_555
C47_3 C48_3 1_555 1_555
C48_3 O23_3 1_555 1_555
O21_3 In3_2 1_555 1_555
O22_3 C47_3 1_555 1_555
O23_3 In3_2 1_555 1_555
O24_3 C48_3 1_555 1_555
In6_3 O22_3 1_555 1_555
In7_3 O2_3 1_555 1_555
O25_3 In4_2 1_555 1_555
O26_3 In3_2 1_555 1_555
O27_3 In1_3 1_555 1_555
O29_3 In3_2 1_555 1_555
O32_2 In3_2 1_555 1_555
O34_2 In3_2 1_555 1_555
C10_3 O7_3 1_555 1_555
C10_3 O8_3 1_555 1_555
C15_3 C16_3 1_555 1_555
O4_3 In7_3 1_555 1_555
C34_3 C35_3 1_555 1_555
C36_3 C37_3 1_555 1_555
O14_3 In4_2 1_555 1_555
C41_3 C42_3 1_555 1_555
C43_3 C44_3 1_555 1_555
O16_3 In3_2 1_555 1_555
C45_3 O17_3 1_555 1_555
C47_3 O21_3 1_555 1_555
O24_3 In6_3 1_555 1_555
C3_3 C4_3 1_555 1_555
C4_3 C5_3 1_555 1_555
C5_3 H1_3 1_555 1_555
C6_3 C5_3 1_555 1_555
H2_3 C6_3 1_555 1_555
C7_3 C6_3 1_555 1_555
C8_3 C7_3 1_555 1_555
H3_3 C8_3 1_555 1_555
C9_3 C4_3 1_555 1_555
H4_3 C9_3 1_555 1_555
N1_3 C7_3 1_555 1_555
C17_3 C18_3 1_555 1_555
C18_3 C19_3 1_555 1_555
C19_3 H9_3 1_555 1_555
C20_3 C19_3 1_555 1_555
H10_3 C20_3 1_555 1_555
C21_3 N1_3 1_555 1_555
C22_3 C21_3 1_555 1_555
H11_3 C22_3 1_555 1_555
C23_3 C18_3 1_555 1_555
H12_3 C23_3 1_555 1_555
O31_2 C17_3 1_555 1_555
O33_2 C17_3 1_555 1_555
C24_3 C25_3 1_555 1_555
C25_3 C26_3 1_555 1_555
C26_3 H13_3 1_555 1_555
C27_3 C26_3 1_555 1_555
H14_3 C27_3 1_555 1_555
C28_3 N1_3 1_555 1_555
C29_3 C28_3 1_555 1_555
H15_3 C29_3 1_555 1_555
C30_3 C25_3 1_555 1_555
H16_3 C30_3 1_555 1_555
O11_2 C24_3 1_555 1_555
O12_2 C24_3 1_555 1_555
In5_2 O11_2 1_555 1_555
C3_3 O6_3 1_555 1_555
C8_3 C9_3 1_555 1_555
C20_3 C21_3 1_555 1_555
C22_3 C23_3 1_555 1_555
C27_3 C28_3 1_555 1_555
C29_3 C30_3 1_555 1_555
O12_2 In5_2 1_555 1_555
In8_3 O18_3 1_555 1_555
In7_4 O2_4 1_555 1_555
In8_4 O18_4 1_555 1_555
In6_4 O22_4 1_555 1_555
In1_4 O1_4 1_555 1_555
C1_4 C2_4 1_555 1_555
C2_4 O3_4 1_555 1_555
C3_4 C4_4 1_555 1_555
C4_4 C5_4 1_555 1_555
C5_4 H1_4 1_555 1_555
C6_4 C5_4 1_555 1_555
H2_4 C6_4 1_555 1_555
C7_4 C6_4 1_555 1_555
C8_4 C7_4 1_555 1_555
H3_4 C8_4 1_555 1_555
C9_4 C4_4 1_555 1_555
H4_4 C9_4 1_555 1_555
C10_4 C11_4 1_555 1_555
C11_4 C12_4 1_555 1_555
C12_4 H5_4 1_555 1_555
C13_4 C12_4 1_555 1_555
H6_4 C13_4 1_555 1_555
C14_4 C13_4 1_555 1_555
C15_4 C14_4 1_555 1_555
H7_4 C15_4 1_555 1_555
C16_4 C11_4 1_555 1_555
H8_4 C16_4 1_555 1_555
N1_4 C7_4 1_555 1_555
N2_4 C14_4 1_555 1_555
O1_4 C1_4 1_555 1_555
O3_4 In1_4 1_555 1_555
O4_4 C2_4 1_555 1_555
O5_4 In1_4 1_555 1_555
O6_4 In1_4 1_555 1_555
O7_4 In1_4 1_555 1_555
O8_4 In1_4 1_555 1_555
C17_4 C18_4 1_555 1_555
C18_4 C19_4 1_555 1_555
C19_4 H9_4 1_555 1_555
C20_4 C19_4 1_555 1_555
H10_4 C20_4 1_555 1_555
C21_4 N1_4 1_555 1_555
C22_4 C21_4 1_555 1_555
H11_4 C22_4 1_555 1_555
C23_4 C18_4 1_555 1_555
H12_4 C23_4 1_555 1_555
O33 C17_4 1_555 1_555
C24_4 C25_4 1_555 1_555
C25_4 C26_4 1_555 1_555
C26_4 H13_4 1_555 1_555
C27_4 C26_4 1_555 1_555
H14_4 C27_4 1_555 1_555
C28_4 N1_4 1_555 1_555
C29_4 C28_4 1_555 1_555
H15_4 C29_4 1_555 1_555
C30_4 C25_4 1_555 1_555
H16_4 C30_4 1_555 1_555
O32_2 C24_4 1_555 1_555
O34_2 C24_4 1_555 1_555
C31_4 C32_4 1_555 1_555
C32_4 C33_4 1_555 1_555
C33_4 H17_4 1_555 1_555
C34_4 C33_4 1_555 1_555
H18_4 C34_4 1_555 1_555
C35_4 N2_4 1_555 1_555
C36_4 C35_4 1_555 1_555
H19_4 C36_4 1_555 1_555
C37_4 C32_4 1_555 1_555
H20_4 C37_4 1_555 1_555
O13_4 C31_4 1_555 1_555
O14_4 C31_4 1_555 1_555
C38_4 C39_4 1_555 1_555
C39_4 C40_4 1_555 1_555
C40_4 H21_4 1_555 1_555
C41_4 C40_4 1_555 1_555
H22_4 C41_4 1_555 1_555
C42_4 N2_4 1_555 1_555
C43_4 C42_4 1_555 1_555
H23_4 C43_4 1_555 1_555
C44_4 C39_4 1_555 1_555
H24_4 C44_4 1_555 1_555
O15_4 C38_4 1_555 1_555
O16_4 C38_4 1_555 1_555
In4 O13_4 1_555 1_555
C45_4 C46_4 1_555 1_555
C46_4 O19_4 1_555 1_555
O17_4 In4 1_555 1_555
O19_4 In4 1_555 1_555
O20_4 C46_4 1_555 1_555
In5_2 O15_4 1_555 1_555
C47_4 C48_4 1_555 1_555
C48_4 O23_4 1_555 1_555
O21_4 In5_2 1_555 1_555
O23_4 In5_2 1_555 1_555
O24_4 C48_4 1_555 1_555
O25_4 In4 1_555 1_555
O26_4 In5_2 1_555 1_555
O27_4 In1_4 1_555 1_555
O28_4 In4 1_555 1_555
O29_4 In5_2 1_555 1_555
O30_4 In1_4 1_555 1_555
C3_4 O5_4 1_555 1_555
C3_4 O6_4 1_555 1_555
C8_4 C9_4 1_555 1_555
C10_4 O7_4 1_555 1_555
C10_4 O8_4 1_555 1_555
C15_4 C16_4 1_555 1_555
C20_4 C21_4 1_555 1_555
C22_4 C23_4 1_555 1_555
C27_4 C28_4 1_555 1_555
C29_4 C30_4 1_555 1_555
C34_4 C35_4 1_555 1_555
C36_4 C37_4 1_555 1_555
O14_4 In4 1_555 1_555
C41_4 C42_4 1_555 1_555
C43_4 C44_4 1_555 1_555
O16_4 In5_2 1_555 1_555
C45_4 O17_4 1_555 1_555
C47_4 O21_4 1_555 1_555
In6_3 O1_5 1_555 1_555
C1_5 C2_5 1_555 1_555
C2_5 O3_5 1_555 1_555
C3_5 C4_5 1_555 1_555
C4_5 C5_5 1_555 1_555
C5_5 H1_5 1_555 1_555
C6_5 C5_5 1_555 1_555
H2_5 C6_5 1_555 1_555
C7_5 C6_5 1_555 1_555
C8_5 C7_5 1_555 1_555
H3_5 C8_5 1_555 1_555
C9_5 C4_5 1_555 1_555
H4_5 C9_5 1_555 1_555
C10_5 C11_5 1_555 1_555
C11_5 C12_5 1_555 1_555
C12_5 H5_5 1_555 1_555
C13_5 C12_5 1_555 1_555
H6_5 C13_5 1_555 1_555
C14_5 C13_5 1_555 1_555
C15_5 C14_5 1_555 1_555
H7_5 C15_5 1_555 1_555
C16_5 C11_5 1_555 1_555
H8_5 C16_5 1_555 1_555
N1_5 C7_5 1_555 1_555
N2_5 C14_5 1_555 1_555
O1_5 C1_5 1_555 1_555
O25_2 C1_5 1_555 1_555
O3_5 In6_3 1_555 1_555
O28_2 C2_5 1_555 1_555
O5_5 In6_3 1_555 1_555
O6_5 In6_3 1_555 1_555
O7_5 In6_3 1_555 1_555
O8_5 In6_3 1_555 1_555
C17_5 C18_5 1_555 1_555
C18_5 C19_5 1_555 1_555
C19_5 H9_5 1_555 1_555
C20_5 C19_5 1_555 1_555
H10_5 C20_5 1_555 1_555
C21_5 N1_5 1_555 1_555
C22_5 C21_5 1_555 1_555
H11_5 C22_5 1_555 1_555
C23_5 C18_5 1_555 1_555
H12_5 C23_5 1_555 1_555
O9_3 C17_5 1_555 1_555
O10_3 C17_5 1_555 1_555
C24_5 C25_5 1_555 1_555
C25_5 C26_5 1_555 1_555
C26_5 H13_5 1_555 1_555
C27_5 C26_5 1_555 1_555
H14_5 C27_5 1_555 1_555
C28_5 N1_5 1_555 1_555
C29_5 C28_5 1_555 1_555
H15_5 C29_5 1_555 1_555
C30_5 C25_5 1_555 1_555
H16_5 C30_5 1_555 1_555
O12_3 C24_5 1_555 1_555
C31_5 C32_5 1_555 1_555
C32_5 C33_5 1_555 1_555
C33_5 H17_5 1_555 1_555
C34_5 C33_5 1_555 1_555
H18_5 C34_5 1_555 1_555
C35_5 N2_5 1_555 1_555
C36_5 C35_5 1_555 1_555
H19_5 C36_5 1_555 1_555
C37_5 C32_5 1_555 1_555
H20_5 C37_5 1_555 1_555
O13_5 C31_5 1_555 1_555
O14_5 C31_5 1_555 1_555
C38_5 C39_5 1_555 1_555
C39_5 C40_5 1_555 1_555
C40_5 H21_5 1_555 1_555
C41_5 C40_5 1_555 1_555
H22_5 C41_5 1_555 1_555
C42_5 N2_5 1_555 1_555
C43_5 C42_5 1_555 1_555
H23_5 C43_5 1_555 1_555
C44_5 C39_5 1_555 1_555
H24_5 C44_5 1_555 1_555
O15_5 C38_5 1_555 1_555
O16_5 C38_5 1_555 1_555
In7_2 O13_5 1_555 1_555
C45_5 C46_5 1_555 1_555
C46_5 O19_5 1_555 1_555
O17_5 In7_2 1_555 1_555
O26_4 C45_5 1_555 1_555
O19_5 In7_2 1_555 1_555
O29_4 C46_5 1_555 1_555
In8_4 O15_5 1_555 1_555
C47_5 C48_5 1_555 1_555
C48_5 O23_5 1_555 1_555
O21_5 In8_4 1_555 1_555
O23_5 In8_4 1_555 1_555
O30_3 C48_5 1_555 1_555
In7_3 O9_3 1_555 1_555
O31_3 In7_2 1_555 1_555
O32_3 In8_4 1_555 1_555
C3_5 O5_5 1_555 1_555
C3_5 O6_5 1_555 1_555
C8_5 C9_5 1_555 1_555
C10_5 O7_5 1_555 1_555
C10_5 O8_5 1_555 1_555
C15_5 C16_5 1_555 1_555
C20_5 C21_5 1_555 1_555
C22_5 C23_5 1_555 1_555
O10_3 In7_3 1_555 1_555
C27_5 C28_5 1_555 1_555
C29_5 C30_5 1_555 1_555
C34_5 C35_5 1_555 1_555
C36_5 C37_5 1_555 1_555
O14_5 In7_2 1_555 1_555
C41_5 C42_5 1_555 1_555
C43_5 C44_5 1_555 1_555
O16_5 In8_4 1_555 1_555
C45_5 O17_5 1_555 1_555
C47_5 O21_5 1_555 1_555
In8_3 O11_3 1_555 1_555
In7_4 O9_4 1_555 1_555
In6_4 O1_6 1_555 1_555
C1_6 C2_6 1_555 1_555
C2_6 O3_6 1_555 1_555
C10_6 C11_6 1_555 1_555
C11_6 C12_6 1_555 1_555
C12_6 H5_6 1_555 1_555
C13_6 C12_6 1_555 1_555
H6_6 C13_6 1_555 1_555
C14_6 C13_6 1_555 1_555
C15_6 C14_6 1_555 1_555
H7_6 C15_6 1_555 1_555
C16_6 C11_6 1_555 1_555
H8_6 C16_6 1_555 1_555
N2_6 C14_6 1_555 1_555
O1_6 C1_6 1_555 1_555
O3_6 In6_4 1_555 1_555
O28 C2_6 1_555 1_555
O5_6 In6_4 1_555 1_555
O7_6 In6_4 1_555 1_555
O8_6 In6_4 1_555 1_555
C31_6 C32_6 1_555 1_555
C32_6 C33_6 1_555 1_555
C33_6 H17_6 1_555 1_555
C34_6 C33_6 1_555 1_555
H18_6 C34_6 1_555 1_555
C35_6 N2_6 1_555 1_555
C36_6 C35_6 1_555 1_555
H19_6 C36_6 1_555 1_555
C37_6 C32_6 1_555 1_555
H20_6 C37_6 1_555 1_555
O13_6 C31_6 1_555 1_555
O14_6 C31_6 1_555 1_555
C38_6 C39_6 1_555 1_555
C39_6 C40_6 1_555 1_555
C40_6 H21_6 1_555 1_555
C41_6 C40_6 1_555 1_555
H22_6 C41_6 1_555 1_555
C42_6 N2_6 1_555 1_555
C43_6 C42_6 1_555 1_555
H23_6 C43_6 1_555 1_555
C44_6 C39_6 1_555 1_555
H24_6 C44_6 1_555 1_555
O15_6 C38_6 1_555 1_555
O16_6 C38_6 1_555 1_555
In7 O13_6 1_555 1_555
C45_6 C46_6 1_555 1_555
C46_6 O19_6 1_555 1_555
O17_6 In7 1_555 1_555
O26_3 C45_6 1_555 1_555
O19_6 In7 1_555 1_555
O29_3 C46_6 1_555 1_555
In8_3 O15_6 1_555 1_555
C47_6 C48_6 1_555 1_555
C48_6 O23_6 1_555 1_555
O21_6 In8_3 1_555 1_555
O27_4 C47_6 1_555 1_555
O23_6 In8_3 1_555 1_555
O30_4 C48_6 1_555 1_555
O31_4 In7 1_555 1_555
O33_4 In7 1_555 1_555
C10_6 O7_6 1_555 1_555
C10_6 O8_6 1_555 1_555
C15_6 C16_6 1_555 1_555
C34_6 C35_6 1_555 1_555
C36_6 C37_6 1_555 1_555
O14_6 In7 1_555 1_555
C41_6 C42_6 1_555 1_555
C43_6 C44_6 1_555 1_555
O16_6 In8_3 1_555 1_555
C45_6 O17_6 1_555 1_555
C47_6 O21_6 1_555 1_555
C3_6 C4_6 1_555 1_555
C4_6 C5_6 1_555 1_555
C5_6 H1_6 1_555 1_555
C6_6 C5_6 1_555 1_555
H2_6 C6_6 1_555 1_555
C7_6 C6_6 1_555 1_555
C8_6 C7_6 1_555 1_555
H3_6 C8_6 1_555 1_555
C9_6 C4_6 1_555 1_555
H4_6 C9_6 1_555 1_555
N1_6 C7_6 1_555 1_555
C17_6 C18_6 1_555 1_555
C18_6 C19_6 1_555 1_555
C19_6 H9_6 1_555 1_555
C20_6 C19_6 1_555 1_555
H10_6 C20_6 1_555 1_555
C21_6 N1_6 1_555 1_555
C22_6 C21_6 1_555 1_555
H11_6 C22_6 1_555 1_555
C23_6 C18_6 1_555 1_555
H12_6 C23_6 1_555 1_555
O10_4 C17_6 1_555 1_555
C24_6 C25_6 1_555 1_555
C25_6 C26_6 1_555 1_555
C26_6 H13_6 1_555 1_555
C27_6 C26_6 1_555 1_555
H14_6 C27_6 1_555 1_555
C28_6 N1_6 1_555 1_555
C29_6 C28_6 1_555 1_555
H15_6 C29_6 1_555 1_555
C30_6 C25_6 1_555 1_555
H16_6 C30_6 1_555 1_555
O34_3 C24_6 1_555 1_555
C3_6 O6_6 1_555 1_555
C8_6 C9_6 1_555 1_555
C20_6 C21_6 1_555 1_555
C22_6 C23_6 1_555 1_555
C27_6 C28_6 1_555 1_555
C29_6 C30_6 1_555 1_555
C3_7 C4_7 1_555 1_555
C4_7 C5_7 1_555 1_555
C5_7 H1_7 1_555 1_555
C6_7 C5_7 1_555 1_555
H2_7 C6_7 1_555 1_555
C7_7 C6_7 1_555 1_555
C8_7 C7_7 1_555 1_555
H3_7 C8_7 1_555 1_555
C9_7 C4_7 1_555 1_555
H4_7 C9_7 1_555 1_555
N1_7 C7_7 1_555 1_555
C17_7 C18_7 1_555 1_555
C18_7 C19_7 1_555 1_555
C19_7 H9_7 1_555 1_555
C20_7 C19_7 1_555 1_555
H10_7 C20_7 1_555 1_555
C21_7 N1_7 1_555 1_555
C22_7 C21_7 1_555 1_555
H11_7 C22_7 1_555 1_555
C23_7 C18_7 1_555 1_555
H12_7 C23_7 1_555 1_555
O31_4 C17_7 1_555 1_555
O33_4 C17_7 1_555 1_555
C24_7 C25_7 1_555 1_555
C25_7 C26_7 1_555 1_555
C26_7 H13_7 1_555 1_555
C27_7 C26_7 1_555 1_555
H14_7 C27_7 1_555 1_555
C28_7 N1_7 1_555 1_555
C29_7 C28_7 1_555 1_555
H15_7 C29_7 1_555 1_555
C30_7 C25_7 1_555 1_555
H16_7 C30_7 1_555 1_555
O11_4 C24_7 1_555 1_555
O12_4 C24_7 1_555 1_555
In8 O11_4 1_555 1_555
C3_7 O6_7 1_555 1_555
C8_7 C9_7 1_555 1_555
C20_7 C21_7 1_555 1_555
C22_7 C23_7 1_555 1_555
C27_7 C28_7 1_555 1_555
C29_7 C30_7 1_555 1_555
O12_4 In8 1_555 1_555
In6 O1_7 1_555 1_555
C1_7 C2_7 1_555 1_555
C2_7 O3_7 1_555 1_555
C10_7 C11_7 1_555 1_555
C11_7 C12_7 1_555 1_555
C12_7 H5_7 1_555 1_555
C13_7 C12_7 1_555 1_555
H6_7 C13_7 1_555 1_555
C14_7 C13_7 1_555 1_555
C15_7 C14_7 1_555 1_555
H7_7 C15_7 1_555 1_555
C16_7 C11_7 1_555 1_555
H8_7 C16_7 1_555 1_555
N2_7 C14_7 1_555 1_555
O1_7 C1_7 1_555 1_555
O25_4 C1_7 1_555 1_555
O3_7 In6 1_555 1_555
O28_4 C2_7 1_555 1_555
O5_7 In6 1_555 1_555
O7_7 In6 1_555 1_555
O8_7 In6 1_555 1_555
C31_7 C32_7 1_555 1_555
C32_7 C33_7 1_555 1_555
C33_7 H17_7 1_555 1_555
C34_7 C33_7 1_555 1_555
H18_7 C34_7 1_555 1_555
C35_7 N2_7 1_555 1_555
C36_7 C35_7 1_555 1_555
H19_7 C36_7 1_555 1_555
C37_7 C32_7 1_555 1_555
H20_7 C37_7 1_555 1_555
O13_7 C31_7 1_555 1_555
O14_7 C31_7 1_555 1_555
C38_7 C39_7 1_555 1_555
C39_7 C40_7 1_555 1_555
C40_7 H21_7 1_555 1_555
C41_7 C40_7 1_555 1_555
H22_7 C41_7 1_555 1_555
C42_7 N2_7 1_555 1_555
C43_7 C42_7 1_555 1_555
H23_7 C43_7 1_555 1_555
C44_7 C39_7 1_555 1_555
H24_7 C44_7 1_555 1_555
O15_7 C38_7 1_555 1_555
O16_7 C38_7 1_555 1_555
In7_4 O13_7 1_555 1_555
C45_7 C46_7 1_555 1_555
C46_7 O19_7 1_555 1_555
O17_7 In7_4 1_555 1_555
O19_7 In7_4 1_555 1_555
O29_2 C46_7 1_555 1_555
In8_2 O15_7 1_555 1_555
C47_7 C48_7 1_555 1_555
C48_7 O23_7 1_555 1_555
O21_7 In8_2 1_555 1_555
O27 C47_7 1_555 1_555
O23_7 In8_2 1_555 1_555
O30 C48_7 1_555 1_555
O32_4 In8_2 1_555 1_555
O34_4 In8_2 1_555 1_555
C10_7 O7_7 1_555 1_555
C10_7 O8_7 1_555 1_555
C15_7 C16_7 1_555 1_555
C34_7 C35_7 1_555 1_555
C36_7 C37_7 1_555 1_555
O14_7 In7_4 1_555 1_555
C41_7 C42_7 1_555 1_555
C43_7 C44_7 1_555 1_555
O16_7 In8_2 1_555 1_555
C45_7 O17_7 1_555 1_555
C47_7 O21_7 1_555 1_555
In6_2 O1_8 1_555 1_555
C1_8 C2_8 1_555 1_555
C2_8 O3_8 1_555 1_555
C3_8 C4_8 1_555 1_555
C4_8 C5_8 1_555 1_555
C5_8 H1_8 1_555 1_555
C6_8 C5_8 1_555 1_555
H2_8 C6_8 1_555 1_555
C7_8 C6_8 1_555 1_555
C8_8 C7_8 1_555 1_555
H3_8 C8_8 1_555 1_555
C9_8 C4_8 1_555 1_555
H4_8 C9_8 1_555 1_555
C10_8 C11_8 1_555 1_555
C11_8 C12_8 1_555 1_555
C12_8 H5_8 1_555 1_555
C13_8 C12_8 1_555 1_555
H6_8 C13_8 1_555 1_555
C14_8 C13_8 1_555 1_555
C15_8 C14_8 1_555 1_555
H7_8 C15_8 1_555 1_555
C16_8 C11_8 1_555 1_555
H8_8 C16_8 1_555 1_555
N1_8 C7_8 1_555 1_555
N2_8 C14_8 1_555 1_555
O1_8 C1_8 1_555 1_555
O3_8 In6_2 1_555 1_555
O28_3 C2_8 1_555 1_555
O5_8 In6_2 1_555 1_555
O6_8 In6_2 1_555 1_555
O7_8 In6_2 1_555 1_555
O8_8 In6_2 1_555 1_555
C17_8 C18_8 1_555 1_555
C18_8 C19_8 1_555 1_555
C19_8 H9_8 1_555 1_555
C20_8 C19_8 1_555 1_555
H10_8 C20_8 1_555 1_555
C21_8 N1_8 1_555 1_555
C22_8 C21_8 1_555 1_555
H11_8 C22_8 1_555 1_555
C23_8 C18_8 1_555 1_555
H12_8 C23_8 1_555 1_555
O33_3 C17_8 1_555 1_555
C24_8 C25_8 1_555 1_555
C25_8 C26_8 1_555 1_555
C26_8 H13_8 1_555 1_555
C27_8 C26_8 1_555 1_555
H14_8 C27_8 1_555 1_555
C28_8 N1_8 1_555 1_555
C29_8 C28_8 1_555 1_555
H15_8 C29_8 1_555 1_555
C30_8 C25_8 1_555 1_555
H16_8 C30_8 1_555 1_555
O32_4 C24_8 1_555 1_555
O34_4 C24_8 1_555 1_555
C31_8 C32_8 1_555 1_555
C32_8 C33_8 1_555 1_555
C33_8 H17_8 1_555 1_555
C34_8 C33_8 1_555 1_555
H18_8 C34_8 1_555 1_555
C35_8 N2_8 1_555 1_555
C36_8 C35_8 1_555 1_555
H19_8 C36_8 1_555 1_555
C37_8 C32_8 1_555 1_555
H20_8 C37_8 1_555 1_555
O13_8 C31_8 1_555 1_555
O14_8 C31_8 1_555 1_555
C38_8 C39_8 1_555 1_555
C39_8 C40_8 1_555 1_555
C40_8 H21_8 1_555 1_555
C41_8 C40_8 1_555 1_555
H22_8 C41_8 1_555 1_555
C42_8 N2_8 1_555 1_555
C43_8 C42_8 1_555 1_555
H23_8 C43_8 1_555 1_555
C44_8 C39_8 1_555 1_555
H24_8 C44_8 1_555 1_555
O15_8 C38_8 1_555 1_555
O16_8 C38_8 1_555 1_555
In7_3 O13_8 1_555 1_555
C45_8 C46_8 1_555 1_555
C46_8 O19_8 1_555 1_555
O17_8 In7_3 1_555 1_555
O19_8 In7_3 1_555 1_555
O29 C46_8 1_555 1_555
In8 O15_8 1_555 1_555
C47_8 C48_8 1_555 1_555
C48_8 O23_8 1_555 1_555
O21_8 In8 1_555 1_555
O23_8 In8 1_555 1_555
O30_2 C48_8 1_555 1_555
C3_8 O5_8 1_555 1_555
C3_8 O6_8 1_555 1_555
C8_8 C9_8 1_555 1_555
C10_8 O7_8 1_555 1_555
C10_8 O8_8 1_555 1_555
C15_8 C16_8 1_555 1_555
C20_8 C21_8 1_555 1_555
C22_8 C23_8 1_555 1_555
C27_8 C28_8 1_555 1_555
C29_8 C30_8 1_555 1_555
C34_8 C35_8 1_555 1_555
C36_8 C37_8 1_555 1_555
O14_8 In7_3 1_555 1_555
C41_8 C42_8 1_555 1_555
C43_8 C44_8 1_555 1_555
O16_8 In8 1_555 1_555
C45_8 O17_8 1_555 1_555
C47_8 O21_8 1_555 1_555

#END
