
###############################################################################
#
# This file contains modified crystal structure data generated from the
# MOF subset of the Cambridge Structural Database (CSD) v543 
# hosted by the Cambridge Crystallographic Data Centre (CCDC).
#
# This work is licensed under the Creative Commons
# Attribution-NonCommercial-ShareAlike 4.0 International License.
# To view a copy of this license, visit
# http://creativecommons.org/licenses/by-nc-sa/4.0/
# or send a letter to
# Creative Commons, PO Box 1866, Mountain View, CA 94042, USA.
#
# CIF created using the CSD Python API on 29 September 2022
# The structure has been converted into the P1 space group
# The structure has a 3D framework
# The original CSD entry EHIWOK is in the cubic crystal system
# The framework has been calculated to contain at least 10.0% void space
# The void calculation uses a probe of radius 1.32A, grid spacing 0.4
# The framework is charged, counterions have been retained in the structure
#
###############################################################################

data_EHIWOK
_chemical_formula_moiety         '(C672 H384 In24 N16 O184 20-)n'
_symmetry_cell_setting           triclinic
_symmetry_space_group_name_H-M   'P 1'
_symmetry_Int_Tables_number      1
_space_group_name_Hall           'P 1'
loop_
_symmetry_equiv_pos_site_id
_symmetry_equiv_pos_as_xyz
1 x,y,z
_cell_length_a                   41.212(3)
_cell_length_b                   41.212(3)
_cell_length_c                   41.212(3)
_cell_angle_alpha                90
_cell_angle_beta                 90
_cell_angle_gamma                90
_cell_volume                     69995.7
loop_
_atom_site_label
_atom_site_type_symbol
_atom_site_fract_x
_atom_site_fract_y
_atom_site_fract_z
O11 O 0.0063(4) 0.4282(4) 0.3417(4)
C83 C 0.0133(7) 0.8949(6) 0.0591(6)
C84 C 0.0271(7) 0.9259(6) 0.0722(6)
O22 O 0.0245(3) 0.8785(3) 0.0382(3)
O23 O 0.0159(3) 0.9430(3) 0.0922(3)
O24 O 0.0578(3) 0.9274(2) 0.0611(3)
In5 In 0.03064(3) 0.42303(3) 0.38830(3)
In7 In 0.07697(3) 0.88830(3) 0.03064(3)
O28 O 0.0066(4) 0.8854(4) 0.1379(4)
In1 In 0.61170(3) 0.53064(3) 0.07697(3)
C1 C 0.6633(8) 0.4918(7) 0.0964(7)
C2 C 0.8254(3) 0.3737(3) 0.1400(5)
C3 C 0.8182(4) 0.3823(4) 0.1081(4)
H1 H 0.831555 0.375351 0.091302
C4 C 0.7912(4) 0.4013(4) 0.1015(3)
H2 H 0.786415 0.407111 0.080231
C5 C 0.7713(3) 0.4117(3) 0.1267(5)
C6 C 0.7785(4) 0.4031(4) 0.1585(4)
H3 H 0.765143 0.410031 0.175341
C7 C 0.8055(4) 0.3841(4) 0.1651(3)
H4 H 0.810284 0.378271 0.186412
C8 C 0.6496(4) 0.6138(3) 0.1238(4)
C9 C 0.6715(4) 0.6340(4) 0.1080(3)
H5 H 0.677587 0.629586 0.086704
C10 C 0.6842(3) 0.6609(4) 0.1239(4)
H6 H 0.698832 0.674394 0.113348
C11 C 0.6751(4) 0.6675(3) 0.1557(4)
C12 C 0.6532(4) 0.6473(4) 0.1715(3)
H7 H 0.647058 0.651703 0.192792
C13 C 0.6404(3) 0.6204(4) 0.1556(4)
H8 H 0.625814 0.606894 0.166149
C14 C 0.7439(3) 0.4325(3) 0.1175(5)
C15 C 0.7428(3) 0.4509(4) 0.0892(4)
H9 H 0.760034 0.450363 0.074731
C16 C 0.7158(5) 0.4701(3) 0.0827(3)
H10 H 0.715064 0.482405 0.063775
C17 C 0.6900(3) 0.4709(3) 0.1044(5)
C18 C 0.6912(3) 0.4526(4) 0.1326(4)
H11 H 0.673883 0.453121 0.147162
C19 C 0.7181(5) 0.4334(3) 0.1392(3)
H12 H 0.718852 0.421080 0.158119
C20 C 0.6377(7) 0.5865(7) 0.1073(7)
C21 C 0.7137(3) 0.7472(3) 0.2081(4)
C22 C 0.7031(4) 0.7202(4) 0.2253(3)
H13 H 0.704348 0.719937 0.247791
C23 C 0.6907(3) 0.6935(3) 0.2088(4)
H14 H 0.683586 0.675449 0.220248
C24 C 0.6888(3) 0.6939(3) 0.1751(4)
C25 C 0.6994(4) 0.7209(4) 0.1579(3)
H15 H 0.698217 0.721165 0.135378
C26 C 0.7119(3) 0.7476(3) 0.1744(4)
H16 H 0.718979 0.765654 0.162921
C27 C 0.5591(6) 0.4867(7) 0.1051(6)
C28 C 0.5722(6) 0.4729(7) 0.0741(6)
N1 N 0.8529(4) 0.3529(4) 0.1471(4)
N2 N 0.7237(4) 0.7763(4) 0.2237(4)
O1 O 0.6583(4) 0.5063(4) 0.0718(4)
O2 O 0.6379(4) 0.4934(4) 0.1146(4)
O3 O 0.6182(4) 0.5665(3) 0.1151(4)
O4 O 0.6425(4) 0.5793(3) 0.0782(4)
O5 O 0.5706(3) 0.5158(3) 0.1091(2)
O6 O 0.5382(3) 0.4755(3) 0.1215(3)
O7 O 0.5922(3) 0.4841(3) 0.0570(3)
O8 O 0.5611(3) 0.4422(3) 0.0726(2)
C29 C 0.9036(7) 0.1633(8) 0.0082(7)
C30 C 0.8600(5) 0.3254(3) 0.1263(3)
C31 C 0.8919(4) 0.3182(4) 0.1177(4)
H17 H 0.908698 0.331555 0.124649
C32 C 0.8985(3) 0.2912(4) 0.0987(4)
H18 H 0.919769 0.286415 0.092889
C33 C 0.8733(5) 0.2713(3) 0.0883(3)
C34 C 0.8415(4) 0.2785(4) 0.0969(4)
H19 H 0.824659 0.265143 0.089969
C35 C 0.8349(3) 0.3055(4) 0.1159(4)
H20 H 0.813588 0.310284 0.121729
C36 C 0.8825(5) 0.2439(3) 0.0675(3)
C37 C 0.9108(4) 0.2428(3) 0.0491(4)
H21 H 0.925269 0.260034 0.049637
C38 C 0.9173(3) 0.2158(5) 0.0299(3)
H22 H 0.936225 0.215064 0.017595
C39 C 0.8956(5) 0.1900(3) 0.0291(3)
C40 C 0.8674(4) 0.1912(3) 0.0474(4)
H23 H 0.852838 0.173883 0.046879
C41 C 0.8608(3) 0.2181(5) 0.0666(3)
H24 H 0.841881 0.218852 0.078920
O10 O 0.8854(4) 0.1379(4) 0.0066(4)
C42 C 0.9918(7) 0.4036(7) 0.3367(8)
C43 C 0.8737(3) 0.3600(5) 0.1746(3)
C44 C 0.8823(4) 0.3919(4) 0.1818(4)
H25 H 0.875351 0.408698 0.168445
C45 C 0.9013(4) 0.3985(3) 0.2088(4)
H26 H 0.907111 0.419769 0.213585
C46 C 0.9117(3) 0.3733(5) 0.2287(3)
C47 C 0.9031(4) 0.3415(4) 0.2215(4)
H27 H 0.910031 0.324659 0.234857
C48 C 0.8841(4) 0.3349(3) 0.1945(4)
H28 H 0.878271 0.313588 0.189716
C49 C 0.9325(3) 0.3825(5) 0.2561(3)
C50 C 0.9509(4) 0.4108(4) 0.2572(3)
H29 H 0.950363 0.425269 0.239966
C51 C 0.9701(3) 0.4173(3) 0.2842(5)
H30 H 0.982405 0.436225 0.284936
C52 C 0.9709(3) 0.3956(5) 0.3100(3)
C53 C 0.9526(4) 0.3674(4) 0.3088(3)
H31 H 0.953121 0.352838 0.326117
C54 C 0.9334(3) 0.3608(3) 0.2819(5)
H32 H 0.921080 0.341881 0.281148
O12 O 0.9934(4) 0.3854(4) 0.3621(4)
C55 C 0.6238(4) 0.8504(4) 0.3862(3)
C56 C 0.6080(3) 0.8285(4) 0.3660(4)
H33 H 0.586704 0.822413 0.370414
C57 C 0.6239(4) 0.8158(3) 0.3391(4)
H34 H 0.613348 0.801168 0.325606
C58 C 0.6557(4) 0.8249(4) 0.3325(3)
C59 C 0.6715(3) 0.8468(4) 0.3527(4)
H35 H 0.692792 0.852942 0.348297
C60 C 0.6556(4) 0.8596(3) 0.3796(4)
H36 H 0.666149 0.874186 0.393106
C61 C 0.6073(7) 0.8623(7) 0.4135(7)
C62 C 0.7081(4) 0.7863(3) 0.2528(3)
C63 C 0.7253(3) 0.7969(4) 0.2798(4)
H37 H 0.747791 0.795652 0.280063
C64 C 0.7088(4) 0.8093(3) 0.3065(3)
H38 H 0.720248 0.816414 0.324551
C65 C 0.6751(4) 0.8112(3) 0.3061(3)
C66 C 0.6579(3) 0.8006(4) 0.2791(4)
H39 H 0.635378 0.801783 0.278835
C67 C 0.6744(4) 0.7881(3) 0.2524(3)
H40 H 0.662921 0.781021 0.234346
O13 O 0.6151(4) 0.8818(4) 0.4335(3)
O14 O 0.5782(4) 0.8575(4) 0.4207(3)
C68 C 0.8862(3) 0.8762(4) 0.1496(4)
C69 C 0.8660(4) 0.8920(3) 0.1715(4)
H41 H 0.870414 0.913296 0.177587
C70 C 0.8391(4) 0.8761(4) 0.1842(3)
H42 H 0.825606 0.886652 0.198832
C71 C 0.8325(3) 0.8443(4) 0.1751(4)
C72 C 0.8527(4) 0.8285(3) 0.1532(4)
H43 H 0.848297 0.807208 0.147058
C73 C 0.8796(4) 0.8444(4) 0.1404(3)
H44 H 0.893106 0.833851 0.125814
C74 C 0.9135(7) 0.8927(7) 0.1377(7)
C75 C 0.7528(3) 0.7919(4) 0.2137(3)
C76 C 0.7798(4) 0.7747(3) 0.2031(4)
H45 H 0.780063 0.752209 0.204348
C77 C 0.8065(3) 0.7912(4) 0.1907(3)
H46 H 0.824551 0.779752 0.183586
C78 C 0.8061(3) 0.8249(4) 0.1888(3)
C79 C 0.7791(4) 0.8421(3) 0.1994(4)
H47 H 0.778835 0.864622 0.198217
C80 C 0.7524(3) 0.8256(4) 0.2119(3)
H48 H 0.734346 0.837079 0.218979
O15 O 0.9335(3) 0.8849(4) 0.1182(4)
O16 O 0.9207(3) 0.9218(4) 0.1425(4)
In2 In 0.57697(3) 0.88830(3) 0.46936(3)
C81 C 0.6051(6) 0.9409(6) 0.5133(7)
C82 C 0.5741(6) 0.9278(6) 0.5271(7)
O17 O 0.6091(2) 0.9294(3) 0.4842(3)
O18 O 0.6215(3) 0.9618(3) 0.5245(3)
O19 O 0.5570(3) 0.9078(3) 0.5159(3)
O20 O 0.5726(2) 0.9389(3) 0.5578(3)
In3 In 0.96936(3) 0.92303(3) 0.11170(3)
O21 O 0.9842(3) 0.8909(2) 0.0706(3)
In6 In 0.61170(3) 0.96936(3) 0.57697(3)
In8 In 0.53064(3) 0.42303(3) 0.11170(3)
O25 O 0.5718(4) 0.8417(4) 0.4937(4)
O26 O 0.9937(4) 0.9282(4) 0.1583(4)
O27 O 0.6146(4) 0.8621(4) 0.5066(4)
O29 O 0.9618(3) 0.9755(3) 0.1215(3)
O30 O 0.6215(3) 0.5382(3) 0.0245(3)
O31 O 0.5245(3) 0.8785(3) 0.4618(3)
O32 O 0.9389(3) 0.9422(3) 0.0726(2)
O33 O 0.5726(2) 0.5611(3) 0.0578(3)
O34 O 0.5578(3) 0.9274(2) 0.4389(3)
O9 O 0.9282(4) 0.1583(4) 0.9937(4)
In4 In 0.92303(3) 0.11170(3) 0.96936(3)
C81_2 C 0.8949(6) 0.0591(6) 0.0133(7)
C82_2 C 0.9259(6) 0.0722(6) 0.0271(7)
O18_2 O 0.8785(3) 0.0382(3) 0.0245(3)
O19_2 O 0.9430(3) 0.0922(3) 0.0159(3)
O20_2 O 0.9274(2) 0.0611(3) 0.0578(3)
In6_2 In 0.88830(3) 0.03064(3) 0.07697(3)
In1_2 In 0.88830(3) 0.46936(3) 0.57697(3)
C1_2 C 0.8367(8) 0.5082(7) 0.5964(7)
C2_2 C 0.6746(3) 0.6263(3) 0.6400(5)
C3_2 C 0.6818(4) 0.6177(4) 0.6081(4)
H1_2 H 0.668445 0.624649 0.591302
C4_2 C 0.7088(4) 0.5987(4) 0.6015(3)
H2_2 H 0.713585 0.592889 0.580231
C5_2 C 0.7287(3) 0.5883(3) 0.6267(5)
C6_2 C 0.7215(4) 0.5969(4) 0.6585(4)
H3_2 H 0.734857 0.589969 0.675341
C7_2 C 0.6945(4) 0.6159(4) 0.6651(3)
H4_2 H 0.689716 0.621729 0.686412
C8_2 C 0.8504(4) 0.3862(3) 0.6238(4)
C9_2 C 0.8285(4) 0.3660(4) 0.6080(3)
H5_2 H 0.822413 0.370414 0.586704
C10_2 C 0.8158(3) 0.3391(4) 0.6239(4)
H6_2 H 0.801168 0.325606 0.613348
C11_2 C 0.8249(4) 0.3325(3) 0.6557(4)
C12_2 C 0.8468(4) 0.3527(4) 0.6715(3)
H7_2 H 0.852942 0.348297 0.692792
C13_2 C 0.8596(3) 0.3796(4) 0.6556(4)
H8_2 H 0.874186 0.393106 0.666149
C14_2 C 0.7561(3) 0.5675(3) 0.6175(5)
C15_2 C 0.7572(3) 0.5491(4) 0.5892(4)
H9_2 H 0.739966 0.549637 0.574731
C16_2 C 0.7842(5) 0.5299(3) 0.5827(3)
H10_2 H 0.784936 0.517595 0.563775
C17_2 C 0.8100(3) 0.5291(3) 0.6044(5)
C18_2 C 0.8088(3) 0.5474(4) 0.6326(4)
H11_2 H 0.826117 0.546879 0.647162
C19_2 C 0.7819(5) 0.5666(3) 0.6392(3)
H12_2 H 0.781148 0.578920 0.658119
C20_2 C 0.8623(7) 0.4135(7) 0.6073(7)
C21_2 C 0.7863(3) 0.2528(3) 0.7081(4)
C22_2 C 0.7969(4) 0.2798(4) 0.7253(3)
H13_2 H 0.795652 0.280063 0.747791
C23_2 C 0.8093(3) 0.3065(3) 0.7088(4)
H14_2 H 0.816414 0.324551 0.720248
C24_2 C 0.8112(3) 0.3061(3) 0.6751(4)
C25_2 C 0.8006(4) 0.2791(4) 0.6579(3)
H15_2 H 0.801783 0.278835 0.635378
C26_2 C 0.7881(3) 0.2524(3) 0.6744(4)
H16_2 H 0.781021 0.234346 0.662921
C27_2 C 0.9409(6) 0.5133(7) 0.6051(6)
C28_2 C 0.9278(6) 0.5271(7) 0.5741(6)
N1_2 N 0.6471(4) 0.6471(4) 0.6471(4)
N2_2 N 0.7763(4) 0.2237(4) 0.7237(4)
O1_2 O 0.8417(4) 0.4937(4) 0.5718(4)
O2_2 O 0.8621(4) 0.5066(4) 0.6146(4)
O3_2 O 0.8818(4) 0.4335(3) 0.6151(4)
O4_2 O 0.8575(4) 0.4207(3) 0.5782(4)
O5_2 O 0.9294(3) 0.4842(3) 0.6091(2)
O6_2 O 0.9618(3) 0.5245(3) 0.6215(3)
O7_2 O 0.9078(3) 0.5159(3) 0.5570(3)
O8_2 O 0.9389(3) 0.5578(3) 0.5726(2)
C29_2 C 0.5964(7) 0.8367(8) 0.5082(7)
C30_2 C 0.6400(5) 0.6746(3) 0.6263(3)
C31_2 C 0.6081(4) 0.6818(4) 0.6177(4)
H17_2 H 0.591302 0.668445 0.624649
C32_2 C 0.6015(3) 0.7088(4) 0.5987(4)
H18_2 H 0.580231 0.713585 0.592889
C33_2 C 0.6267(5) 0.7287(3) 0.5883(3)
C34_2 C 0.6585(4) 0.7215(4) 0.5969(4)
H19_2 H 0.675341 0.734857 0.589969
C35_2 C 0.6651(3) 0.6945(4) 0.6159(4)
H20_2 H 0.686412 0.689716 0.621729
C36_2 C 0.6175(5) 0.7561(3) 0.5675(3)
C37_2 C 0.5892(4) 0.7572(3) 0.5491(4)
H21_2 H 0.574731 0.739966 0.549637
C38_2 C 0.5827(3) 0.7842(5) 0.5299(3)
H22_2 H 0.563775 0.784936 0.517595
C39_2 C 0.6044(5) 0.8100(3) 0.5291(3)
C40_2 C 0.6326(4) 0.8088(3) 0.5474(4)
H23_2 H 0.647162 0.826117 0.546879
C41_2 C 0.6392(3) 0.7819(5) 0.5666(3)
H24_2 H 0.658119 0.781148 0.578920
C42_2 C 0.5082(7) 0.5964(7) 0.8367(8)
C43_2 C 0.6263(3) 0.6400(5) 0.6746(3)
C44_2 C 0.6177(4) 0.6081(4) 0.6818(4)
H25_2 H 0.624649 0.591302 0.668445
C45_2 C 0.5987(4) 0.6015(3) 0.7088(4)
H26_2 H 0.592889 0.580231 0.713585
C46_2 C 0.5883(3) 0.6267(5) 0.7287(3)
C47_2 C 0.5969(4) 0.6585(4) 0.7215(4)
H27_2 H 0.589969 0.675341 0.734857
C48_2 C 0.6159(4) 0.6651(3) 0.6945(4)
H28_2 H 0.621729 0.686412 0.689716
C49_2 C 0.5675(3) 0.6175(5) 0.7561(3)
C50_2 C 0.5491(4) 0.5892(4) 0.7572(3)
H29_2 H 0.549637 0.574731 0.739966
C51_2 C 0.5299(3) 0.5827(3) 0.7842(5)
H30_2 H 0.517595 0.563775 0.784936
C52_2 C 0.5291(3) 0.6044(5) 0.8100(3)
C53_2 C 0.5474(4) 0.6326(4) 0.8088(3)
H31_2 H 0.546879 0.647162 0.826117
C54_2 C 0.5666(3) 0.6392(3) 0.7819(5)
H32_2 H 0.578920 0.658119 0.781148
O11_2 O 0.4937(4) 0.5718(4) 0.8417(4)
O12_2 O 0.5066(4) 0.6146(4) 0.8621(4)
C55_2 C 0.8762(4) 0.1496(4) 0.8862(3)
C56_2 C 0.8920(3) 0.1715(4) 0.8660(4)
H33_2 H 0.913296 0.177587 0.870414
C57_2 C 0.8761(4) 0.1842(3) 0.8391(4)
H34_2 H 0.886652 0.198832 0.825606
C58_2 C 0.8443(4) 0.1751(4) 0.8325(3)
C59_2 C 0.8285(3) 0.1532(4) 0.8527(4)
H35_2 H 0.807208 0.147058 0.848297
C60_2 C 0.8444(4) 0.1404(3) 0.8796(4)
H36_2 H 0.833851 0.125814 0.893106
C61_2 C 0.8927(7) 0.1377(7) 0.9135(7)
C62_2 C 0.7919(4) 0.2137(3) 0.7528(3)
C63_2 C 0.7747(3) 0.2031(4) 0.7798(4)
H37_2 H 0.752209 0.204348 0.780063
C64_2 C 0.7912(4) 0.1907(3) 0.8065(3)
H38_2 H 0.779752 0.183586 0.824551
C65_2 C 0.8249(4) 0.1888(3) 0.8061(3)
C66_2 C 0.8421(3) 0.1994(4) 0.7791(4)
H39_2 H 0.864622 0.198217 0.778835
C67_2 C 0.8256(4) 0.2119(3) 0.7524(3)
H40_2 H 0.837079 0.218979 0.734346
O13_2 O 0.8849(4) 0.1182(4) 0.9335(3)
O14_2 O 0.9218(4) 0.1425(4) 0.9207(3)
C68_2 C 0.6138(3) 0.1238(4) 0.6496(4)
C69_2 C 0.6340(4) 0.1080(3) 0.6715(4)
H41_2 H 0.629586 0.086704 0.677587
C70_2 C 0.6609(4) 0.1239(4) 0.6842(3)
H42_2 H 0.674394 0.113348 0.698832
C71_2 C 0.6675(3) 0.1557(4) 0.6751(4)
C72_2 C 0.6473(4) 0.1715(3) 0.6532(4)
H43_2 H 0.651703 0.192792 0.647058
C73_2 C 0.6204(4) 0.1556(4) 0.6404(3)
H44_2 H 0.606894 0.166149 0.625814
C74_2 C 0.5865(7) 0.1073(7) 0.6377(7)
C75_2 C 0.7472(3) 0.2081(4) 0.7137(3)
C76_2 C 0.7202(4) 0.2253(3) 0.7031(4)
H45_2 H 0.719937 0.247791 0.704348
C77_2 C 0.6935(3) 0.2088(4) 0.6907(3)
H46_2 H 0.675449 0.220248 0.683586
C78_2 C 0.6939(3) 0.1751(4) 0.6888(3)
C79_2 C 0.7209(4) 0.1579(3) 0.6994(4)
H47_2 H 0.721165 0.135378 0.698217
C80_2 C 0.7476(3) 0.1744(4) 0.7119(3)
H48_2 H 0.765654 0.162921 0.718979
O15_2 O 0.5665(3) 0.1151(4) 0.6182(4)
O16_2 O 0.5793(3) 0.0782(4) 0.6425(4)
O17_2 O 0.8909(2) 0.0706(3) 0.9842(3)
In3_2 In 0.53064(3) 0.07697(3) 0.61170(3)
C83_2 C 0.4867(7) 0.1051(6) 0.5591(6)
C84_2 C 0.4729(7) 0.0741(6) 0.5722(6)
O21_2 O 0.5158(3) 0.1091(2) 0.5706(3)
O22_2 O 0.4755(3) 0.1215(3) 0.5382(3)
O23_2 O 0.4841(3) 0.0570(3) 0.5922(3)
O24_2 O 0.4422(3) 0.0726(2) 0.5611(3)
In5_2 In 0.46936(3) 0.57697(3) 0.88830(3)
In7_2 In 0.42303(3) 0.11170(3) 0.53064(3)
In8_2 In 0.96936(3) 0.57697(3) 0.61170(3)
O26_2 O 0.5063(4) 0.0718(4) 0.6583(4)
O28_2 O 0.4934(4) 0.1146(4) 0.6379(4)
O29_2 O 0.5382(3) 0.0245(3) 0.6215(3)
O30_2 O 0.8785(3) 0.4618(3) 0.5245(3)
O31_2 O 0.9755(3) 0.1215(3) 0.9618(3)
O32_2 O 0.5611(3) 0.0578(3) 0.5726(2)
O33_2 O 0.9274(2) 0.4389(3) 0.5578(3)
O34_2 O 0.9422(3) 0.0726(2) 0.9389(3)
In1_3 In 0.38830(3) 0.03064(3) 0.42303(3)
C8_3 C 0.3504(4) 0.1138(3) 0.3762(4)
C9_3 C 0.3285(4) 0.1340(4) 0.3920(3)
H5_3 H 0.322413 0.129586 0.413296
C10_3 C 0.3158(3) 0.1609(4) 0.3761(4)
H6_3 H 0.301168 0.174394 0.386652
C11_3 C 0.3249(4) 0.1675(3) 0.3443(4)
C12_3 C 0.3468(4) 0.1473(4) 0.3285(3)
H7_3 H 0.352942 0.151703 0.307208
C13_3 C 0.3596(3) 0.1204(4) 0.3444(4)
H8_3 H 0.374186 0.106894 0.333851
C20_3 C 0.3623(7) 0.0865(7) 0.3927(7)
C21_3 C 0.2863(3) 0.2472(3) 0.2919(4)
C22_3 C 0.2969(4) 0.2202(4) 0.2747(3)
H13_3 H 0.295652 0.219937 0.252209
C23_3 C 0.3093(3) 0.1935(3) 0.2912(4)
H14_3 H 0.316414 0.175449 0.279752
C24_3 C 0.3112(3) 0.1939(3) 0.3249(4)
C25_3 C 0.3006(4) 0.2209(4) 0.3421(3)
H15_3 H 0.301783 0.221165 0.364622
C26_3 C 0.2881(3) 0.2476(3) 0.3256(4)
H16_3 H 0.281021 0.265654 0.337079
N2_3 N 0.2763(4) 0.2763(4) 0.2763(4)
O1_3 O 0.3417(4) 0.0063(4) 0.4282(4)
O3_3 O 0.3818(4) 0.0665(3) 0.3849(4)
O4_3 O 0.3575(4) 0.0793(3) 0.4218(4)
O5_3 O 0.4294(3) 0.0158(3) 0.3909(2)
C55_3 C 0.3762(4) 0.3504(4) 0.1138(3)
C56_3 C 0.3920(3) 0.3285(4) 0.1340(4)
H33_3 H 0.413296 0.322413 0.129586
C57_3 C 0.3761(4) 0.3158(3) 0.1609(4)
H34_3 H 0.386652 0.301168 0.174394
C58_3 C 0.3443(4) 0.3249(4) 0.1675(3)
C59_3 C 0.3285(3) 0.3468(4) 0.1473(4)
H35_3 H 0.307208 0.352942 0.151703
C60_3 C 0.3444(4) 0.3596(3) 0.1204(4)
H36_3 H 0.333851 0.374186 0.106894
C61_3 C 0.3927(7) 0.3623(7) 0.0865(7)
C62_3 C 0.2919(4) 0.2863(3) 0.2472(3)
C63_3 C 0.2747(3) 0.2969(4) 0.2202(4)
H37_3 H 0.252209 0.295652 0.219937
C64_3 C 0.2912(4) 0.3093(3) 0.1935(3)
H38_3 H 0.279752 0.316414 0.175449
C65_3 C 0.3249(4) 0.3112(3) 0.1939(3)
C66_3 C 0.3421(3) 0.3006(4) 0.2209(4)
H39_3 H 0.364622 0.301783 0.221165
C67_3 C 0.3256(4) 0.2881(3) 0.2476(3)
H40_3 H 0.337079 0.281021 0.265654
O13_3 O 0.3849(4) 0.3818(4) 0.0665(3)
O14_3 O 0.4218(4) 0.3575(4) 0.0793(3)
C68_3 C 0.1138(3) 0.3762(4) 0.3504(4)
C69_3 C 0.1340(4) 0.3920(3) 0.3285(4)
H41_3 H 0.129586 0.413296 0.322413
C70_3 C 0.1609(4) 0.3761(4) 0.3158(3)
H42_3 H 0.174394 0.386652 0.301168
C71_3 C 0.1675(3) 0.3443(4) 0.3249(4)
C72_3 C 0.1473(4) 0.3285(3) 0.3468(4)
H43_3 H 0.151703 0.307208 0.352942
C73_3 C 0.1204(4) 0.3444(4) 0.3596(3)
H44_3 H 0.106894 0.333851 0.374186
C74_3 C 0.0865(7) 0.3927(7) 0.3623(7)
C75_3 C 0.2472(3) 0.2919(4) 0.2863(3)
C76_3 C 0.2202(4) 0.2747(3) 0.2969(4)
H45_3 H 0.219937 0.252209 0.295652
C77_3 C 0.1935(3) 0.2912(4) 0.3093(3)
H46_3 H 0.175449 0.279752 0.316414
C78_3 C 0.1939(3) 0.3249(4) 0.3112(3)
C79_3 C 0.2209(4) 0.3421(3) 0.3006(4)
H47_3 H 0.221165 0.364622 0.301783
C80_3 C 0.2476(3) 0.3256(4) 0.2881(3)
H48_3 H 0.265654 0.337079 0.281021
O15_3 O 0.0665(3) 0.3849(4) 0.3818(4)
O16_3 O 0.0793(3) 0.4218(4) 0.3575(4)
In2_2 In 0.42303(3) 0.38830(3) 0.03064(3)
O17_3 O 0.3909(2) 0.4294(3) 0.0158(3)
O21_3 O 0.0158(3) 0.3909(2) 0.4294(3)
O25_2 O 0.4282(4) 0.3417(4) 0.0063(4)
O29_3 O 0.0382(3) 0.4755(3) 0.3785(3)
O30_3 O 0.3785(3) 0.0382(3) 0.4755(3)
O31_3 O 0.4755(3) 0.3785(3) 0.0382(3)
O32_3 O 0.0611(3) 0.4422(3) 0.4274(2)
O33_3 O 0.4274(2) 0.0611(3) 0.4422(3)
O34_3 O 0.4422(3) 0.4274(2) 0.0611(3)
C81_3 C 0.3949(6) 0.4409(6) 0.9867(7)
C82_3 C 0.4259(6) 0.4278(6) 0.9729(7)
O18_3 O 0.3785(3) 0.4618(3) 0.9755(3)
O19_3 O 0.4430(3) 0.4078(3) 0.9841(3)
O20_3 O 0.4274(2) 0.4389(3) 0.9422(3)
In6_3 In 0.38830(3) 0.46936(3) 0.92303(3)
O27_2 O 0.3854(4) 0.3621(4) 0.9934(4)
C1_3 C 0.3367(8) 0.9918(7) 0.4036(7)
C2_3 C 0.1746(3) 0.8737(3) 0.3600(5)
C3_3 C 0.1818(4) 0.8823(4) 0.3919(4)
H1_3 H 0.168445 0.875351 0.408698
C4_3 C 0.2088(4) 0.9013(4) 0.3985(3)
H2_3 H 0.213585 0.907111 0.419769
C5_3 C 0.2287(3) 0.9117(3) 0.3733(5)
C6_3 C 0.2215(4) 0.9031(4) 0.3415(4)
H3_3 H 0.234857 0.910031 0.324659
C7_3 C 0.1945(4) 0.8841(4) 0.3349(3)
H4_3 H 0.189716 0.878271 0.313588
C14_3 C 0.2561(3) 0.9325(3) 0.3825(5)
C15_3 C 0.2572(3) 0.9509(4) 0.4108(4)
H9_3 H 0.239966 0.950363 0.425269
C16_3 C 0.2842(5) 0.9701(3) 0.4173(3)
H10_3 H 0.284936 0.982405 0.436225
C17_3 C 0.3100(3) 0.9709(3) 0.3956(5)
C18_3 C 0.3088(3) 0.9526(4) 0.3674(4)
H11_3 H 0.326117 0.953121 0.352838
C19_3 C 0.2819(5) 0.9334(3) 0.3608(3)
H12_3 H 0.281148 0.921080 0.341881
C27_3 C 0.4409(6) 0.9867(7) 0.3949(6)
C28_3 C 0.4278(6) 0.9729(7) 0.4259(6)
N1_3 N 0.1471(4) 0.8529(4) 0.3529(4)
O2_3 O 0.3621(4) 0.9934(4) 0.3854(4)
O6_3 O 0.4618(3) 0.9755(3) 0.3785(3)
O7_3 O 0.4078(3) 0.9841(3) 0.4430(3)
O8_3 O 0.4389(3) 0.9422(3) 0.4274(2)
C29_3 C 0.0964(7) 0.6633(8) 0.4918(7)
C30_3 C 0.1400(5) 0.8254(3) 0.3737(3)
C31_3 C 0.1081(4) 0.8182(4) 0.3823(4)
H17_3 H 0.091302 0.831555 0.375351
C32_3 C 0.1015(3) 0.7912(4) 0.4013(4)
H18_3 H 0.080231 0.786415 0.407111
C33_3 C 0.1267(5) 0.7713(3) 0.4117(3)
C34_3 C 0.1585(4) 0.7785(4) 0.4031(4)
H19_3 H 0.175341 0.765143 0.410031
C35_3 C 0.1651(3) 0.8055(4) 0.3841(4)
H20_3 H 0.186412 0.810284 0.378271
C36_3 C 0.1175(5) 0.7439(3) 0.4325(3)
C37_3 C 0.0892(4) 0.7428(3) 0.4509(4)
H21_3 H 0.074731 0.760034 0.450363
C38_3 C 0.0827(3) 0.7158(5) 0.4701(3)
H22_3 H 0.063775 0.715064 0.482405
C39_3 C 0.1044(5) 0.6900(3) 0.4709(3)
C40_3 C 0.1326(4) 0.6912(3) 0.4526(4)
H23_3 H 0.147162 0.673883 0.453121
C41_3 C 0.1392(3) 0.7181(5) 0.4334(3)
H24_3 H 0.158119 0.718852 0.421080
O9_2 O 0.0718(4) 0.6583(4) 0.5063(4)
O10_2 O 0.1146(4) 0.6379(4) 0.4934(4)
C42_3 C 0.0082(7) 0.9036(7) 0.1633(8)
C43_3 C 0.1263(3) 0.8600(5) 0.3254(3)
C44_3 C 0.1177(4) 0.8919(4) 0.3182(4)
H25_3 H 0.124649 0.908698 0.331555
C45_3 C 0.0987(4) 0.8985(3) 0.2912(4)
H26_3 H 0.092889 0.919769 0.286415
C46_3 C 0.0883(3) 0.8733(5) 0.2713(3)
C47_3 C 0.0969(4) 0.8415(4) 0.2785(4)
H27_3 H 0.089969 0.824659 0.265143
C48_3 C 0.1159(4) 0.8349(3) 0.3055(4)
H28_3 H 0.121729 0.813588 0.310284
C49_3 C 0.0675(3) 0.8825(5) 0.2439(3)
C50_3 C 0.0491(4) 0.9108(4) 0.2428(3)
H29_3 H 0.049637 0.925269 0.260034
C51_3 C 0.0299(3) 0.9173(3) 0.2158(5)
H30_3 H 0.017595 0.936225 0.215064
C52_3 C 0.0291(3) 0.8956(5) 0.1900(3)
C53_3 C 0.0474(4) 0.8674(4) 0.1912(3)
H31_3 H 0.046879 0.852838 0.173883
C54_3 C 0.0666(3) 0.8608(3) 0.2181(5)
H32_3 H 0.078920 0.841881 0.218852
In4_2 In 0.07697(3) 0.61170(3) 0.53064(3)
In8_3 In 0.46936(3) 0.92303(3) 0.38830(3)
C83_3 C 0.9867(7) 0.3949(6) 0.4409(6)
C84_3 C 0.9729(7) 0.4259(6) 0.4278(6)
O22_3 O 0.9755(3) 0.3785(3) 0.4618(3)
O23_3 O 0.9841(3) 0.4430(3) 0.4078(3)
O24_3 O 0.9422(3) 0.4274(2) 0.4389(3)
In7_3 In 0.92303(3) 0.38830(3) 0.46936(3)
C1_4 C 0.1633(8) 0.0082(7) 0.9036(7)
C2_4 C 0.3254(3) 0.1263(3) 0.8600(5)
C3_4 C 0.3182(4) 0.1177(4) 0.8919(4)
H1_4 H 0.331555 0.124649 0.908698
C4_4 C 0.2912(4) 0.0987(4) 0.8985(3)
H2_4 H 0.286415 0.092889 0.919769
C5_4 C 0.2713(3) 0.0883(3) 0.8733(5)
C6_4 C 0.2785(4) 0.0969(4) 0.8415(4)
H3_4 H 0.265143 0.089969 0.824659
C7_4 C 0.3055(4) 0.1159(4) 0.8349(3)
H4_4 H 0.310284 0.121729 0.813588
C14_4 C 0.2439(3) 0.0675(3) 0.8825(5)
C15_4 C 0.2428(3) 0.0491(4) 0.9108(4)
H9_4 H 0.260034 0.049637 0.925269
C16_4 C 0.2158(5) 0.0299(3) 0.9173(3)
H10_4 H 0.215064 0.017595 0.936225
C17_4 C 0.1900(3) 0.0291(3) 0.8956(5)
C18_4 C 0.1912(3) 0.0474(4) 0.8674(4)
H11_4 H 0.173883 0.046879 0.852838
C19_4 C 0.2181(5) 0.0666(3) 0.8608(3)
H12_4 H 0.218852 0.078920 0.841881
C27_4 C 0.0591(6) 0.0133(7) 0.8949(6)
C28_4 C 0.0722(6) 0.0271(7) 0.9259(6)
N1_4 N 0.3529(4) 0.1471(4) 0.8529(4)
O2_4 O 0.1379(4) 0.0066(4) 0.8854(4)
O6_4 O 0.0382(3) 0.0245(3) 0.8785(3)
O7_4 O 0.0922(3) 0.0159(3) 0.9430(3)
O8_4 O 0.0611(3) 0.0578(3) 0.9274(2)
C29_4 C 0.4036(7) 0.3367(8) 0.9918(7)
C30_4 C 0.3600(5) 0.1746(3) 0.8737(3)
C31_4 C 0.3919(4) 0.1818(4) 0.8823(4)
H17_4 H 0.408698 0.168445 0.875351
C32_4 C 0.3985(3) 0.2088(4) 0.9013(4)
H18_4 H 0.419769 0.213585 0.907111
C33_4 C 0.3733(5) 0.2287(3) 0.9117(3)
C34_4 C 0.3415(4) 0.2215(4) 0.9031(4)
H19_4 H 0.324659 0.234857 0.910031
C35_4 C 0.3349(3) 0.1945(4) 0.8841(4)
H20_4 H 0.313588 0.189716 0.878271
C36_4 C 0.3825(5) 0.2561(3) 0.9325(3)
C37_4 C 0.4108(4) 0.2572(3) 0.9509(4)
H21_4 H 0.425269 0.239966 0.950363
C38_4 C 0.4173(3) 0.2842(5) 0.9701(3)
H22_4 H 0.436225 0.284936 0.982405
C39_4 C 0.3956(5) 0.3100(3) 0.9709(3)
C40_4 C 0.3674(4) 0.3088(3) 0.9526(4)
H23_4 H 0.352838 0.326117 0.953121
C41_4 C 0.3608(3) 0.2819(5) 0.9334(3)
H24_4 H 0.341881 0.281148 0.921080
C42_4 C 0.4918(7) 0.0964(7) 0.6633(8)
C43_4 C 0.3737(3) 0.1400(5) 0.8254(3)
C44_4 C 0.3823(4) 0.1081(4) 0.8182(4)
H25_4 H 0.375351 0.091302 0.831555
C45_4 C 0.4013(4) 0.1015(3) 0.7912(4)
H26_4 H 0.407111 0.080231 0.786415
C46_4 C 0.4117(3) 0.1267(5) 0.7713(3)
C47_4 C 0.4031(4) 0.1585(4) 0.7785(4)
H27_4 H 0.410031 0.175341 0.765143
C48_4 C 0.3841(4) 0.1651(3) 0.8055(4)
H28_4 H 0.378271 0.186412 0.810284
C49_4 C 0.4325(3) 0.1175(5) 0.7439(3)
C50_4 C 0.4509(4) 0.0892(4) 0.7428(3)
H29_4 H 0.450363 0.074731 0.760034
C51_4 C 0.4701(3) 0.0827(3) 0.7158(5)
H30_4 H 0.482405 0.063775 0.715064
C52_4 C 0.4709(3) 0.1044(5) 0.6900(3)
C53_4 C 0.4526(4) 0.1326(4) 0.6912(3)
H31_4 H 0.453121 0.147162 0.673883
C54_4 C 0.4334(3) 0.1392(3) 0.7181(5)
H32_4 H 0.421080 0.158119 0.718852
In8_4 In 0.03064(3) 0.07697(3) 0.88830(3)
In1_4 In 0.11170(3) 0.96936(3) 0.92303(3)
C8_4 C 0.1496(4) 0.8862(3) 0.8762(4)
C9_4 C 0.1715(4) 0.8660(4) 0.8920(3)
H5_4 H 0.177587 0.870414 0.913296
C10_4 C 0.1842(3) 0.8391(4) 0.8761(4)
H6_4 H 0.198832 0.825606 0.886652
C11_4 C 0.1751(4) 0.8325(3) 0.8443(4)
C12_4 C 0.1532(4) 0.8527(4) 0.8285(3)
H7_4 H 0.147058 0.848297 0.807208
C13_4 C 0.1404(3) 0.8796(4) 0.8444(4)
H8_4 H 0.125814 0.893106 0.833851
C20_4 C 0.1377(7) 0.9135(7) 0.8927(7)
C21_4 C 0.2137(3) 0.7528(3) 0.7919(4)
C22_4 C 0.2031(4) 0.7798(4) 0.7747(3)
H13_4 H 0.204348 0.780063 0.752209
C23_4 C 0.1907(3) 0.8065(3) 0.7912(4)
H14_4 H 0.183586 0.824551 0.779752
C24_4 C 0.1888(3) 0.8061(3) 0.8249(4)
C25_4 C 0.1994(4) 0.7791(4) 0.8421(3)
H15_4 H 0.198217 0.778835 0.864622
C26_4 C 0.2119(3) 0.7524(3) 0.8256(4)
H16_4 H 0.218979 0.734346 0.837079
N2_4 N 0.2237(4) 0.7237(4) 0.7763(4)
O1_4 O 0.1583(4) 0.9937(4) 0.9282(4)
O3_4 O 0.1182(4) 0.9335(3) 0.8849(4)
O4_4 O 0.1425(4) 0.9207(3) 0.9218(4)
O5_4 O 0.0706(3) 0.9842(3) 0.8909(2)
C55_4 C 0.1238(4) 0.6496(4) 0.6138(3)
C56_4 C 0.1080(3) 0.6715(4) 0.6340(4)
H33_4 H 0.086704 0.677587 0.629586
C57_4 C 0.1239(4) 0.6842(3) 0.6609(4)
H34_4 H 0.113348 0.698832 0.674394
C58_4 C 0.1557(4) 0.6751(4) 0.6675(3)
C59_4 C 0.1715(3) 0.6532(4) 0.6473(4)
H35_4 H 0.192792 0.647058 0.651703
C60_4 C 0.1556(4) 0.6404(3) 0.6204(4)
H36_4 H 0.166149 0.625814 0.606894
C61_4 C 0.1073(7) 0.6377(7) 0.5865(7)
C62_4 C 0.2081(4) 0.7137(3) 0.7472(3)
C63_4 C 0.2253(3) 0.7031(4) 0.7202(4)
H37_4 H 0.247791 0.704348 0.719937
C64_4 C 0.2088(4) 0.6907(3) 0.6935(3)
H38_4 H 0.220248 0.683586 0.675449
C65_4 C 0.1751(4) 0.6888(3) 0.6939(3)
C66_4 C 0.1579(3) 0.6994(4) 0.7209(4)
H39_4 H 0.135378 0.698217 0.721165
C67_4 C 0.1744(4) 0.7119(3) 0.7476(3)
H40_4 H 0.162921 0.718979 0.765654
O13_4 O 0.1151(4) 0.6182(4) 0.5665(3)
O14_4 O 0.0782(4) 0.6425(4) 0.5793(3)
C68_4 C 0.3862(3) 0.6238(4) 0.8504(4)
C69_4 C 0.3660(4) 0.6080(3) 0.8285(4)
H41_4 H 0.370414 0.586704 0.822413
C70_4 C 0.3391(4) 0.6239(4) 0.8158(3)
H42_4 H 0.325606 0.613348 0.801168
C71_4 C 0.3325(3) 0.6557(4) 0.8249(4)
C72_4 C 0.3527(4) 0.6715(3) 0.8468(4)
H43_4 H 0.348297 0.692792 0.852942
C73_4 C 0.3796(4) 0.6556(4) 0.8596(3)
H44_4 H 0.393106 0.666149 0.874186
C74_4 C 0.4135(7) 0.6073(7) 0.8623(7)
C75_4 C 0.2528(3) 0.7081(4) 0.7863(3)
C76_4 C 0.2798(4) 0.7253(3) 0.7969(4)
H45_4 H 0.280063 0.747791 0.795652
C77_4 C 0.3065(3) 0.7088(4) 0.8093(3)
H46_4 H 0.324551 0.720248 0.816414
C78_4 C 0.3061(3) 0.6751(4) 0.8112(3)
C79_4 C 0.2791(4) 0.6579(3) 0.8006(4)
H47_4 H 0.278835 0.635378 0.801783
C80_4 C 0.2524(3) 0.6744(4) 0.7881(3)
H48_4 H 0.234346 0.662921 0.781021
O15_4 O 0.4335(3) 0.6151(4) 0.8818(4)
O16_4 O 0.4207(3) 0.5782(4) 0.8575(4)
C81_4 C 0.1051(6) 0.5591(6) 0.4867(7)
C82_4 C 0.0741(6) 0.5722(6) 0.4729(7)
O17_4 O 0.1091(2) 0.5706(3) 0.5158(3)
O18_4 O 0.1215(3) 0.5382(3) 0.4755(3)
O19_4 O 0.0570(3) 0.5922(3) 0.4841(3)
O20_4 O 0.0726(2) 0.5611(3) 0.4422(3)
C83_4 C 0.5133(7) 0.6051(6) 0.9409(6)
C84_4 C 0.5271(7) 0.5741(6) 0.9278(6)
O21_4 O 0.4842(3) 0.6091(2) 0.9294(3)
O22_4 O 0.5245(3) 0.6215(3) 0.9618(3)
O23_4 O 0.5159(3) 0.5570(3) 0.9078(3)
O24_4 O 0.5578(3) 0.5726(2) 0.9389(3)
In6_4 In 0.11170(3) 0.53064(3) 0.42303(3)
In7_4 In 0.57697(3) 0.61170(3) 0.96936(3)
O29_4 O 0.4618(3) 0.5245(3) 0.8785(3)
O30_4 O 0.1215(3) 0.9618(3) 0.9755(3)
O31_4 O 0.0245(3) 0.6215(3) 0.5382(3)
O32_4 O 0.4389(3) 0.5578(3) 0.9274(2)
O33_4 O 0.0726(2) 0.9389(3) 0.9422(3)
O34_4 O 0.0578(3) 0.5726(2) 0.5611(3)
O9_3 O 0.0718(4) 0.8417(4) 0.0063(4)
C1_5 C 0.3367(8) 0.5082(7) 0.9036(7)
C2_5 C 0.1746(3) 0.6263(3) 0.8600(5)
C3_5 C 0.1818(4) 0.6177(4) 0.8919(4)
H1_5 H 0.168445 0.624649 0.908698
C4_5 C 0.2088(4) 0.5987(4) 0.8985(3)
H2_5 H 0.213585 0.592889 0.919769
C5_5 C 0.2287(3) 0.5883(3) 0.8733(5)
C6_5 C 0.2215(4) 0.5969(4) 0.8415(4)
H3_5 H 0.234857 0.589969 0.824659
C7_5 C 0.1945(4) 0.6159(4) 0.8349(3)
H4_5 H 0.189716 0.621729 0.813588
C8_5 C 0.3504(4) 0.3862(3) 0.8762(4)
C9_5 C 0.3285(4) 0.3660(4) 0.8920(3)
H5_5 H 0.322413 0.370414 0.913296
C10_5 C 0.3158(3) 0.3391(4) 0.8761(4)
H6_5 H 0.301168 0.325606 0.886652
C11_5 C 0.3249(4) 0.3325(3) 0.8443(4)
C12_5 C 0.3468(4) 0.3527(4) 0.8285(3)
H7_5 H 0.352942 0.348297 0.807208
C13_5 C 0.3596(3) 0.3796(4) 0.8444(4)
H8_5 H 0.374186 0.393106 0.833851
C14_5 C 0.2561(3) 0.5675(3) 0.8825(5)
C15_5 C 0.2572(3) 0.5491(4) 0.9108(4)
H9_5 H 0.239966 0.549637 0.925269
C16_5 C 0.2842(5) 0.5299(3) 0.9173(3)
H10_5 H 0.284936 0.517595 0.936225
C17_5 C 0.3100(3) 0.5291(3) 0.8956(5)
C18_5 C 0.3088(3) 0.5474(4) 0.8674(4)
H11_5 H 0.326117 0.546879 0.852838
C19_5 C 0.2819(5) 0.5666(3) 0.8608(3)
H12_5 H 0.281148 0.578920 0.841881
C20_5 C 0.3623(7) 0.4135(7) 0.8927(7)
C21_5 C 0.2863(3) 0.2528(3) 0.7919(4)
C22_5 C 0.2969(4) 0.2798(4) 0.7747(3)
H13_5 H 0.295652 0.280063 0.752209
C23_5 C 0.3093(3) 0.3065(3) 0.7912(4)
H14_5 H 0.316414 0.324551 0.779752
C24_5 C 0.3112(3) 0.3061(3) 0.8249(4)
C25_5 C 0.3006(4) 0.2791(4) 0.8421(3)
H15_5 H 0.301783 0.278835 0.864622
C26_5 C 0.2881(3) 0.2524(3) 0.8256(4)
H16_5 H 0.281021 0.234346 0.837079
C27_5 C 0.4409(6) 0.5133(7) 0.8949(6)
C28_5 C 0.4278(6) 0.5271(7) 0.9259(6)
N1_5 N 0.1471(4) 0.6471(4) 0.8529(4)
N2_5 N 0.2763(4) 0.2237(4) 0.7763(4)
O1_5 O 0.3417(4) 0.4937(4) 0.9282(4)
O2_5 O 0.3621(4) 0.5066(4) 0.8854(4)
O3_5 O 0.3818(4) 0.4335(3) 0.8849(4)
O4_5 O 0.3575(4) 0.4207(3) 0.9218(4)
O5_5 O 0.4294(3) 0.4842(3) 0.8909(2)
O7_5 O 0.4078(3) 0.5159(3) 0.9430(3)
C29_5 C 0.0964(7) 0.8367(8) 0.9918(7)
C30_5 C 0.1400(5) 0.6746(3) 0.8737(3)
C31_5 C 0.1081(4) 0.6818(4) 0.8823(4)
H17_5 H 0.091302 0.668445 0.875351
C32_5 C 0.1015(3) 0.7088(4) 0.9013(4)
H18_5 H 0.080231 0.713585 0.907111
C33_5 C 0.1267(5) 0.7287(3) 0.9117(3)
C34_5 C 0.1585(4) 0.7215(4) 0.9031(4)
H19_5 H 0.175341 0.734857 0.910031
C35_5 C 0.1651(3) 0.6945(4) 0.8841(4)
H20_5 H 0.186412 0.689716 0.878271
C36_5 C 0.1175(5) 0.7561(3) 0.9325(3)
C37_5 C 0.0892(4) 0.7572(3) 0.9509(4)
H21_5 H 0.074731 0.739966 0.950363
C38_5 C 0.0827(3) 0.7842(5) 0.9701(3)
H22_5 H 0.063775 0.784936 0.982405
C39_5 C 0.1044(5) 0.8100(3) 0.9709(3)
C40_5 C 0.1326(4) 0.8088(3) 0.9526(4)
H23_5 H 0.147162 0.826117 0.953121
C41_5 C 0.1392(3) 0.7819(5) 0.9334(3)
H24_5 H 0.158119 0.781148 0.921080
O10_3 O 0.1146(4) 0.8621(4) 0.9934(4)
C42_5 C 0.0082(7) 0.5964(7) 0.6633(8)
C43_5 C 0.1263(3) 0.6400(5) 0.8254(3)
C44_5 C 0.1177(4) 0.6081(4) 0.8182(4)
H25_5 H 0.124649 0.591302 0.831555
C45_5 C 0.0987(4) 0.6015(3) 0.7912(4)
H26_5 H 0.092889 0.580231 0.786415
C46_5 C 0.0883(3) 0.6267(5) 0.7713(3)
C47_5 C 0.0969(4) 0.6585(4) 0.7785(4)
H27_5 H 0.089969 0.675341 0.765143
C48_5 C 0.1159(4) 0.6651(3) 0.8055(4)
H28_5 H 0.121729 0.686412 0.810284
C49_5 C 0.0675(3) 0.6175(5) 0.7439(3)
C50_5 C 0.0491(4) 0.5892(4) 0.7428(3)
H29_5 H 0.049637 0.574731 0.760034
C51_5 C 0.0299(3) 0.5827(3) 0.7158(5)
H30_5 H 0.017595 0.563775 0.715064
C52_5 C 0.0291(3) 0.6044(5) 0.6900(3)
C53_5 C 0.0474(4) 0.6326(4) 0.6912(3)
H31_5 H 0.046879 0.647162 0.673883
C54_5 C 0.0666(3) 0.6392(3) 0.7181(5)
H32_5 H 0.078920 0.658119 0.718852
O12_3 O 0.0066(4) 0.6146(4) 0.6379(4)
C55_5 C 0.3762(4) 0.1496(4) 0.6138(3)
C56_5 C 0.3920(3) 0.1715(4) 0.6340(4)
H33_5 H 0.413296 0.177587 0.629586
C57_5 C 0.3761(4) 0.1842(3) 0.6609(4)
H34_5 H 0.386652 0.198832 0.674394
C58_5 C 0.3443(4) 0.1751(4) 0.6675(3)
C59_5 C 0.3285(3) 0.1532(4) 0.6473(4)
H35_5 H 0.307208 0.147058 0.651703
C60_5 C 0.3444(4) 0.1404(3) 0.6204(4)
H36_5 H 0.333851 0.125814 0.606894
C61_5 C 0.3927(7) 0.1377(7) 0.5865(7)
C62_5 C 0.2919(4) 0.2137(3) 0.7472(3)
C63_5 C 0.2747(3) 0.2031(4) 0.7202(4)
H37_5 H 0.252209 0.204348 0.719937
C64_5 C 0.2912(4) 0.1907(3) 0.6935(3)
H38_5 H 0.279752 0.183586 0.675449
C65_5 C 0.3249(4) 0.1888(3) 0.6939(3)
C66_5 C 0.3421(3) 0.1994(4) 0.7209(4)
H39_5 H 0.364622 0.198217 0.721165
C67_5 C 0.3256(4) 0.2119(3) 0.7476(3)
H40_5 H 0.337079 0.218979 0.765654
O13_5 O 0.3849(4) 0.1182(4) 0.5665(3)
O14_5 O 0.4218(4) 0.1425(4) 0.5793(3)
C68_5 C 0.1138(3) 0.1238(4) 0.8504(4)
C69_5 C 0.1340(4) 0.1080(3) 0.8285(4)
H41_5 H 0.129586 0.086704 0.822413
C70_5 C 0.1609(4) 0.1239(4) 0.8158(3)
H42_5 H 0.174394 0.113348 0.801168
C71_5 C 0.1675(3) 0.1557(4) 0.8249(4)
C72_5 C 0.1473(4) 0.1715(3) 0.8468(4)
H43_5 H 0.151703 0.192792 0.852942
C73_5 C 0.1204(4) 0.1556(4) 0.8596(3)
H44_5 H 0.106894 0.166149 0.874186
C74_5 C 0.0865(7) 0.1073(7) 0.8623(7)
C75_5 C 0.2472(3) 0.2081(4) 0.7863(3)
C76_5 C 0.2202(4) 0.2253(3) 0.7969(4)
H45_5 H 0.219937 0.247791 0.795652
C77_5 C 0.1935(3) 0.2088(4) 0.8093(3)
H46_5 H 0.175449 0.220248 0.816414
C78_5 C 0.1939(3) 0.1751(4) 0.8112(3)
C79_5 C 0.2209(4) 0.1579(3) 0.8006(4)
H47_5 H 0.221165 0.135378 0.801783
C80_5 C 0.2476(3) 0.1744(4) 0.7881(3)
H48_5 H 0.265654 0.162921 0.781021
O15_5 O 0.0665(3) 0.1151(4) 0.8818(4)
O16_5 O 0.0793(3) 0.0782(4) 0.8575(4)
C81_5 C 0.3949(6) 0.0591(6) 0.4867(7)
C82_5 C 0.4259(6) 0.0722(6) 0.4729(7)
O17_5 O 0.3909(2) 0.0706(3) 0.5158(3)
O19_5 O 0.4430(3) 0.0922(3) 0.4841(3)
O21_5 O 0.0158(3) 0.1091(2) 0.9294(3)
O25_3 O 0.4282(4) 0.1583(4) 0.5063(4)
O26_3 O 0.0063(4) 0.0718(4) 0.8417(4)
O27_3 O 0.3854(4) 0.1379(4) 0.4934(4)
O11_3 O 0.9937(4) 0.5718(4) 0.6583(4)
C83_5 C 0.9867(7) 0.1051(6) 0.9409(6)
C84_5 C 0.9729(7) 0.0741(6) 0.9278(6)
O23_5 O 0.9841(3) 0.0570(3) 0.9078(3)
O28_3 O 0.9934(4) 0.1146(4) 0.8621(4)
C1_6 C 0.1633(8) 0.4918(7) 0.4036(7)
C2_6 C 0.3254(3) 0.3737(3) 0.3600(5)
C3_6 C 0.3182(4) 0.3823(4) 0.3919(4)
H1_6 H 0.331555 0.375351 0.408698
C4_6 C 0.2912(4) 0.4013(4) 0.3985(3)
H2_6 H 0.286415 0.407111 0.419769
C5_6 C 0.2713(3) 0.4117(3) 0.3733(5)
C6_6 C 0.2785(4) 0.4031(4) 0.3415(4)
H3_6 H 0.265143 0.410031 0.324659
C7_6 C 0.3055(4) 0.3841(4) 0.3349(3)
H4_6 H 0.310284 0.378271 0.313588
C8_6 C 0.1496(4) 0.6138(3) 0.3762(4)
C9_6 C 0.1715(4) 0.6340(4) 0.3920(3)
H5_6 H 0.177587 0.629586 0.413296
C10_6 C 0.1842(3) 0.6609(4) 0.3761(4)
H6_6 H 0.198832 0.674394 0.386652
C11_6 C 0.1751(4) 0.6675(3) 0.3443(4)
C12_6 C 0.1532(4) 0.6473(4) 0.3285(3)
H7_6 H 0.147058 0.651703 0.307208
C13_6 C 0.1404(3) 0.6204(4) 0.3444(4)
H8_6 H 0.125814 0.606894 0.333851
C14_6 C 0.2439(3) 0.4325(3) 0.3825(5)
C15_6 C 0.2428(3) 0.4509(4) 0.4108(4)
H9_6 H 0.260034 0.450363 0.425269
C16_6 C 0.2158(5) 0.4701(3) 0.4173(3)
H10_6 H 0.215064 0.482405 0.436225
C17_6 C 0.1900(3) 0.4709(3) 0.3956(5)
C18_6 C 0.1912(3) 0.4526(4) 0.3674(4)
H11_6 H 0.173883 0.453121 0.352838
C19_6 C 0.2181(5) 0.4334(3) 0.3608(3)
H12_6 H 0.218852 0.421080 0.341881
C20_6 C 0.1377(7) 0.5865(7) 0.3927(7)
C21_6 C 0.2137(3) 0.7472(3) 0.2919(4)
C22_6 C 0.2031(4) 0.7202(4) 0.2747(3)
H13_6 H 0.204348 0.719937 0.252209
C23_6 C 0.1907(3) 0.6935(3) 0.2912(4)
H14_6 H 0.183586 0.675449 0.279752
C24_6 C 0.1888(3) 0.6939(3) 0.3249(4)
C25_6 C 0.1994(4) 0.7209(4) 0.3421(3)
H15_6 H 0.198217 0.721165 0.364622
C26_6 C 0.2119(3) 0.7476(3) 0.3256(4)
H16_6 H 0.218979 0.765654 0.337079
C27_6 C 0.0591(6) 0.4867(7) 0.3949(6)
C28_6 C 0.0722(6) 0.4729(7) 0.4259(6)
N1_6 N 0.3529(4) 0.3529(4) 0.3529(4)
N2_6 N 0.2237(4) 0.7763(4) 0.2763(4)
O1_6 O 0.1583(4) 0.5063(4) 0.4282(4)
O2_6 O 0.1379(4) 0.4934(4) 0.3854(4)
O3_6 O 0.1182(4) 0.5665(3) 0.3849(4)
O4_6 O 0.1425(4) 0.5793(3) 0.4218(4)
O5_6 O 0.0706(3) 0.5158(3) 0.3909(2)
O7_6 O 0.0922(3) 0.4841(3) 0.4430(3)
C29_6 C 0.4036(7) 0.1633(8) 0.4918(7)
C30_6 C 0.3600(5) 0.3254(3) 0.3737(3)
C31_6 C 0.3919(4) 0.3182(4) 0.3823(4)
H17_6 H 0.408698 0.331555 0.375351
C32_6 C 0.3985(3) 0.2912(4) 0.4013(4)
H18_6 H 0.419769 0.286415 0.407111
C33_6 C 0.3733(5) 0.2713(3) 0.4117(3)
C34_6 C 0.3415(4) 0.2785(4) 0.4031(4)
H19_6 H 0.324659 0.265143 0.410031
C35_6 C 0.3349(3) 0.3055(4) 0.3841(4)
H20_6 H 0.313588 0.310284 0.378271
C36_6 C 0.3825(5) 0.2439(3) 0.4325(3)
C37_6 C 0.4108(4) 0.2428(3) 0.4509(4)
H21_6 H 0.425269 0.260034 0.450363
C38_6 C 0.4173(3) 0.2158(5) 0.4701(3)
H22_6 H 0.436225 0.215064 0.482405
C39_6 C 0.3956(5) 0.1900(3) 0.4709(3)
C40_6 C 0.3674(4) 0.1912(3) 0.4526(4)
H23_6 H 0.352838 0.173883 0.453121
C41_6 C 0.3608(3) 0.2181(5) 0.4334(3)
H24_6 H 0.341881 0.218852 0.421080
C42_6 C 0.4918(7) 0.4036(7) 0.1633(8)
C43_6 C 0.3737(3) 0.3600(5) 0.3254(3)
C44_6 C 0.3823(4) 0.3919(4) 0.3182(4)
H25_6 H 0.375351 0.408698 0.331555
C45_6 C 0.4013(4) 0.3985(3) 0.2912(4)
H26_6 H 0.407111 0.419769 0.286415
C46_6 C 0.4117(3) 0.3733(5) 0.2713(3)
C47_6 C 0.4031(4) 0.3415(4) 0.2785(4)
H27_6 H 0.410031 0.324659 0.265143
C48_6 C 0.3841(4) 0.3349(3) 0.3055(4)
H28_6 H 0.378271 0.313588 0.310284
C49_6 C 0.4325(3) 0.3825(5) 0.2439(3)
C50_6 C 0.4509(4) 0.4108(4) 0.2428(3)
H29_6 H 0.450363 0.425269 0.260034
C51_6 C 0.4701(3) 0.4173(3) 0.2158(5)
H30_6 H 0.482405 0.436225 0.215064
C52_6 C 0.4709(3) 0.3956(5) 0.1900(3)
C53_6 C 0.4526(4) 0.3674(4) 0.1912(3)
H31_6 H 0.453121 0.352838 0.173883
C54_6 C 0.4334(3) 0.3608(3) 0.2181(5)
H32_6 H 0.421080 0.341881 0.218852
O11_4 O 0.5063(4) 0.4282(4) 0.1583(4)
O12_4 O 0.4934(4) 0.3854(4) 0.1379(4)
C55_6 C 0.1238(4) 0.8504(4) 0.1138(3)
C56_6 C 0.1080(3) 0.8285(4) 0.1340(4)
H33_6 H 0.086704 0.822413 0.129586
C57_6 C 0.1239(4) 0.8158(3) 0.1609(4)
H34_6 H 0.113348 0.801168 0.174394
C58_6 C 0.1557(4) 0.8249(4) 0.1675(3)
C59_6 C 0.1715(3) 0.8468(4) 0.1473(4)
H35_6 H 0.192792 0.852942 0.151703
C60_6 C 0.1556(4) 0.8596(3) 0.1204(4)
H36_6 H 0.166149 0.874186 0.106894
C61_6 C 0.1073(7) 0.8623(7) 0.0865(7)
C62_6 C 0.2081(4) 0.7863(3) 0.2472(3)
C63_6 C 0.2253(3) 0.7969(4) 0.2202(4)
H37_6 H 0.247791 0.795652 0.219937
C64_6 C 0.2088(4) 0.8093(3) 0.1935(3)
H38_6 H 0.220248 0.816414 0.175449
C65_6 C 0.1751(4) 0.8112(3) 0.1939(3)
C66_6 C 0.1579(3) 0.8006(4) 0.2209(4)
H39_6 H 0.135378 0.801783 0.221165
C67_6 C 0.1744(4) 0.7881(3) 0.2476(3)
H40_6 H 0.162921 0.781021 0.265654
O13_6 O 0.1151(4) 0.8818(4) 0.0665(3)
O14_6 O 0.0782(4) 0.8575(4) 0.0793(3)
C68_6 C 0.3862(3) 0.8762(4) 0.3504(4)
C69_6 C 0.3660(4) 0.8920(3) 0.3285(4)
H41_6 H 0.370414 0.913296 0.322413
C70_6 C 0.3391(4) 0.8761(4) 0.3158(3)
H42_6 H 0.325606 0.886652 0.301168
C71_6 C 0.3325(3) 0.8443(4) 0.3249(4)
C72_6 C 0.3527(4) 0.8285(3) 0.3468(4)
H43_6 H 0.348297 0.807208 0.352942
C73_6 C 0.3796(4) 0.8444(4) 0.3596(3)
H44_6 H 0.393106 0.833851 0.374186
C74_6 C 0.4135(7) 0.8927(7) 0.3623(7)
C75_6 C 0.2528(3) 0.7919(4) 0.2863(3)
C76_6 C 0.2798(4) 0.7747(3) 0.2969(4)
H45_6 H 0.280063 0.752209 0.295652
C77_6 C 0.3065(3) 0.7912(4) 0.3093(3)
H46_6 H 0.324551 0.779752 0.316414
C78_6 C 0.3061(3) 0.8249(4) 0.3112(3)
C79_6 C 0.2791(4) 0.8421(3) 0.3006(4)
H47_6 H 0.278835 0.864622 0.301783
C80_6 C 0.2524(3) 0.8256(4) 0.2881(3)
H48_6 H 0.234346 0.837079 0.281021
O15_6 O 0.4335(3) 0.8849(4) 0.3818(4)
O16_6 O 0.4207(3) 0.9218(4) 0.3575(4)
O17_6 O 0.1091(2) 0.9294(3) 0.0158(3)
C83_6 C 0.5133(7) 0.8949(6) 0.4409(6)
C84_6 C 0.5271(7) 0.9259(6) 0.4278(6)
O21_6 O 0.4842(3) 0.8909(2) 0.4294(3)
O23_6 O 0.5159(3) 0.9430(3) 0.4078(3)
O26_4 O 0.4937(4) 0.9282(4) 0.3417(4)
O28_4 O 0.5066(4) 0.8854(4) 0.3621(4)
C81_6 C 0.1051(6) 0.9409(6) 0.9867(7)
C82_6 C 0.0741(6) 0.9278(6) 0.9729(7)
O19_6 O 0.0570(3) 0.9078(3) 0.9841(3)
C83_7 C 0.0133(7) 0.6051(6) 0.5591(6)
C84_7 C 0.0271(7) 0.5741(6) 0.5722(6)
O23_7 O 0.0159(3) 0.5570(3) 0.5922(3)
C1_7 C 0.6633(8) 0.0082(7) 0.5964(7)
C2_7 C 0.8254(3) 0.1263(3) 0.6400(5)
C3_7 C 0.8182(4) 0.1177(4) 0.6081(4)
H1_7 H 0.831555 0.124649 0.591302
C4_7 C 0.7912(4) 0.0987(4) 0.6015(3)
H2_7 H 0.786415 0.092889 0.580231
C5_7 C 0.7713(3) 0.0883(3) 0.6267(5)
C6_7 C 0.7785(4) 0.0969(4) 0.6585(4)
H3_7 H 0.765143 0.089969 0.675341
C7_7 C 0.8055(4) 0.1159(4) 0.6651(3)
H4_7 H 0.810284 0.121729 0.686412
C14_7 C 0.7439(3) 0.0675(3) 0.6175(5)
C15_7 C 0.7428(3) 0.0491(4) 0.5892(4)
H9_7 H 0.760034 0.049637 0.574731
C16_7 C 0.7158(5) 0.0299(3) 0.5827(3)
H10_7 H 0.715064 0.017595 0.563775
C17_7 C 0.6900(3) 0.0291(3) 0.6044(5)
C18_7 C 0.6912(3) 0.0474(4) 0.6326(4)
H11_7 H 0.673883 0.046879 0.647162
C19_7 C 0.7181(5) 0.0666(3) 0.6392(3)
H12_7 H 0.718852 0.078920 0.658119
C27_7 C 0.5591(6) 0.0133(7) 0.6051(6)
C28_7 C 0.5722(6) 0.0271(7) 0.5741(6)
N1_7 N 0.8529(4) 0.1471(4) 0.6471(4)
O2_7 O 0.6379(4) 0.0066(4) 0.6146(4)
O7_7 O 0.5922(3) 0.0159(3) 0.5570(3)
C29_7 C 0.9036(7) 0.3367(8) 0.5082(7)
C30_7 C 0.8600(5) 0.1746(3) 0.6263(3)
C31_7 C 0.8919(4) 0.1818(4) 0.6177(4)
H17_7 H 0.908698 0.168445 0.624649
C32_7 C 0.8985(3) 0.2088(4) 0.5987(4)
H18_7 H 0.919769 0.213585 0.592889
C33_7 C 0.8733(5) 0.2287(3) 0.5883(3)
C34_7 C 0.8415(4) 0.2215(4) 0.5969(4)
H19_7 H 0.824659 0.234857 0.589969
C35_7 C 0.8349(3) 0.1945(4) 0.6159(4)
H20_7 H 0.813588 0.189716 0.621729
C36_7 C 0.8825(5) 0.2561(3) 0.5675(3)
C37_7 C 0.9108(4) 0.2572(3) 0.5491(4)
H21_7 H 0.925269 0.239966 0.549637
C38_7 C 0.9173(3) 0.2842(5) 0.5299(3)
H22_7 H 0.936225 0.284936 0.517595
C39_7 C 0.8956(5) 0.3100(3) 0.5291(3)
C40_7 C 0.8674(4) 0.3088(3) 0.5474(4)
H23_7 H 0.852838 0.326117 0.546879
C41_7 C 0.8608(3) 0.2819(5) 0.5666(3)
H24_7 H 0.841881 0.281148 0.578920
O9_4 O 0.9282(4) 0.3417(4) 0.4937(4)
O10_4 O 0.8854(4) 0.3621(4) 0.5066(4)
C42_7 C 0.9918(7) 0.0964(7) 0.8367(8)
C43_7 C 0.8737(3) 0.1400(5) 0.6746(3)
C44_7 C 0.8823(4) 0.1081(4) 0.6818(4)
H25_7 H 0.875351 0.091302 0.668445
C45_7 C 0.9013(4) 0.1015(3) 0.7088(4)
H26_7 H 0.907111 0.080231 0.713585
C46_7 C 0.9117(3) 0.1267(5) 0.7287(3)
C47_7 C 0.9031(4) 0.1585(4) 0.7215(4)
H27_7 H 0.910031 0.175341 0.734857
C48_7 C 0.8841(4) 0.1651(3) 0.6945(4)
H28_7 H 0.878271 0.186412 0.689716
C49_7 C 0.9325(3) 0.1175(5) 0.7561(3)
C50_7 C 0.9509(4) 0.0892(4) 0.7572(3)
H29_7 H 0.950363 0.074731 0.739966
C51_7 C 0.9701(3) 0.0827(3) 0.7842(5)
H30_7 H 0.982405 0.063775 0.784936
C52_7 C 0.9709(3) 0.1044(5) 0.8100(3)
C53_7 C 0.9526(4) 0.1326(4) 0.8088(3)
H31_7 H 0.953121 0.147162 0.826117
C54_7 C 0.9334(3) 0.1392(3) 0.7819(5)
H32_7 H 0.921080 0.158119 0.781148
C81_7 C 0.6051(6) 0.5591(6) 0.0133(7)
C82_7 C 0.5741(6) 0.5722(6) 0.0271(7)
O19_7 O 0.5570(3) 0.5922(3) 0.0159(3)
O27_4 O 0.6146(4) 0.6379(4) 0.0066(4)
C8_7 C 0.6496(4) 0.8862(3) 0.6238(4)
C9_7 C 0.6715(4) 0.8660(4) 0.6080(3)
H5_7 H 0.677587 0.870414 0.586704
C10_7 C 0.6842(3) 0.8391(4) 0.6239(4)
H6_7 H 0.698832 0.825606 0.613348
C11_7 C 0.6751(4) 0.8325(3) 0.6557(4)
C12_7 C 0.6532(4) 0.8527(4) 0.6715(3)
H7_7 H 0.647058 0.848297 0.692792
C13_7 C 0.6404(3) 0.8796(4) 0.6556(4)
H8_7 H 0.625814 0.893106 0.666149
C20_7 C 0.6377(7) 0.9135(7) 0.6073(7)
C21_7 C 0.7137(3) 0.7528(3) 0.7081(4)
C22_7 C 0.7031(4) 0.7798(4) 0.7253(3)
H13_7 H 0.704348 0.780063 0.747791
C23_7 C 0.6907(3) 0.8065(3) 0.7088(4)
H14_7 H 0.683586 0.824551 0.720248
C24_7 C 0.6888(3) 0.8061(3) 0.6751(4)
C25_7 C 0.6994(4) 0.7791(4) 0.6579(3)
H15_7 H 0.698217 0.778835 0.635378
C26_7 C 0.7119(3) 0.7524(3) 0.6744(4)
H16_7 H 0.718979 0.734346 0.662921
N2_7 N 0.7237(4) 0.7237(4) 0.7237(4)
O1_7 O 0.6583(4) 0.9937(4) 0.5718(4)
O3_7 O 0.6182(4) 0.9335(3) 0.6151(4)
O4_7 O 0.6425(4) 0.9207(3) 0.5782(4)
O5_7 O 0.5706(3) 0.9842(3) 0.6091(2)
C55_7 C 0.6238(4) 0.6496(4) 0.8862(3)
C56_7 C 0.6080(3) 0.6715(4) 0.8660(4)
H33_7 H 0.586704 0.677587 0.870414
C57_7 C 0.6239(4) 0.6842(3) 0.8391(4)
H34_7 H 0.613348 0.698832 0.825606
C58_7 C 0.6557(4) 0.6751(4) 0.8325(3)
C59_7 C 0.6715(3) 0.6532(4) 0.8527(4)
H35_7 H 0.692792 0.647058 0.848297
C60_7 C 0.6556(4) 0.6404(3) 0.8796(4)
H36_7 H 0.666149 0.625814 0.893106
C61_7 C 0.6073(7) 0.6377(7) 0.9135(7)
C62_7 C 0.7081(4) 0.7137(3) 0.7528(3)
C63_7 C 0.7253(3) 0.7031(4) 0.7798(4)
H37_7 H 0.747791 0.704348 0.780063
C64_7 C 0.7088(4) 0.6907(3) 0.8065(3)
H38_7 H 0.720248 0.683586 0.824551
C65_7 C 0.6751(4) 0.6888(3) 0.8061(3)
C66_7 C 0.6579(3) 0.6994(4) 0.7791(4)
H39_7 H 0.635378 0.698217 0.778835
C67_7 C 0.6744(4) 0.7119(3) 0.7524(3)
H40_7 H 0.662921 0.718979 0.734346
O13_7 O 0.6151(4) 0.6182(4) 0.9335(3)
O14_7 O 0.5782(4) 0.6425(4) 0.9207(3)
C68_7 C 0.8862(3) 0.6238(4) 0.6496(4)
C69_7 C 0.8660(4) 0.6080(3) 0.6715(4)
H41_7 H 0.870414 0.586704 0.677587
C70_7 C 0.8391(4) 0.6239(4) 0.6842(3)
H42_7 H 0.825606 0.613348 0.698832
C71_7 C 0.8325(3) 0.6557(4) 0.6751(4)
C72_7 C 0.8527(4) 0.6715(3) 0.6532(4)
H43_7 H 0.848297 0.692792 0.647058
C73_7 C 0.8796(4) 0.6556(4) 0.6404(3)
H44_7 H 0.893106 0.666149 0.625814
C74_7 C 0.9135(7) 0.6073(7) 0.6377(7)
C75_7 C 0.7528(3) 0.7081(4) 0.7137(3)
C76_7 C 0.7798(4) 0.7253(3) 0.7031(4)
H45_7 H 0.780063 0.747791 0.704348
C77_7 C 0.8065(3) 0.7088(4) 0.6907(3)
H46_7 H 0.824551 0.720248 0.683586
C78_7 C 0.8061(3) 0.6751(4) 0.6888(3)
C79_7 C 0.7791(4) 0.6579(3) 0.6994(4)
H47_7 H 0.778835 0.635378 0.698217
C80_7 C 0.7524(3) 0.6744(4) 0.7119(3)
H48_7 H 0.734346 0.662921 0.718979
O15_7 O 0.9335(3) 0.6151(4) 0.6182(4)
O16_7 O 0.9207(3) 0.5782(4) 0.6425(4)
O17_7 O 0.6091(2) 0.5706(3) 0.9842(3)
O21_7 O 0.9842(3) 0.6091(2) 0.5706(3)
O25_4 O 0.5718(4) 0.6583(4) 0.9937(4)
C8_8 C 0.8504(4) 0.1138(3) 0.1238(4)
C9_8 C 0.8285(4) 0.1340(4) 0.1080(3)
H5_8 H 0.822413 0.129586 0.086704
C10_8 C 0.8158(3) 0.1609(4) 0.1239(4)
H6_8 H 0.801168 0.174394 0.113348
C11_8 C 0.8249(4) 0.1675(3) 0.1557(4)
C12_8 C 0.8468(4) 0.1473(4) 0.1715(3)
H7_8 H 0.852942 0.151703 0.192792
C13_8 C 0.8596(3) 0.1204(4) 0.1556(4)
H8_8 H 0.874186 0.106894 0.166149
C20_8 C 0.8623(7) 0.0865(7) 0.1073(7)
C21_8 C 0.7863(3) 0.2472(3) 0.2081(4)
C22_8 C 0.7969(4) 0.2202(4) 0.2253(3)
H13_8 H 0.795652 0.219937 0.247791
C23_8 C 0.8093(3) 0.1935(3) 0.2088(4)
H14_8 H 0.816414 0.175449 0.220248
C24_8 C 0.8112(3) 0.1939(3) 0.1751(4)
C25_8 C 0.8006(4) 0.2209(4) 0.1579(3)
H15_8 H 0.801783 0.221165 0.135378
C26_8 C 0.7881(3) 0.2476(3) 0.1744(4)
H16_8 H 0.781021 0.265654 0.162921
N2_8 N 0.7763(4) 0.2763(4) 0.2237(4)
O1_8 O 0.8417(4) 0.0063(4) 0.0718(4)
O3_8 O 0.8818(4) 0.0665(3) 0.1151(4)
O4_8 O 0.8575(4) 0.0793(3) 0.0782(4)
O5_8 O 0.9294(3) 0.0158(3) 0.1091(2)
C55_8 C 0.8762(4) 0.3504(4) 0.3862(3)
C56_8 C 0.8920(3) 0.3285(4) 0.3660(4)
H33_8 H 0.913296 0.322413 0.370414
C57_8 C 0.8761(4) 0.3158(3) 0.3391(4)
H34_8 H 0.886652 0.301168 0.325606
C58_8 C 0.8443(4) 0.3249(4) 0.3325(3)
C59_8 C 0.8285(3) 0.3468(4) 0.3527(4)
H35_8 H 0.807208 0.352942 0.348297
C60_8 C 0.8444(4) 0.3596(3) 0.3796(4)
H36_8 H 0.833851 0.374186 0.393106
C61_8 C 0.8927(7) 0.3623(7) 0.4135(7)
C62_8 C 0.7919(4) 0.2863(3) 0.2528(3)
C63_8 C 0.7747(3) 0.2969(4) 0.2798(4)
H37_8 H 0.752209 0.295652 0.280063
C64_8 C 0.7912(4) 0.3093(3) 0.3065(3)
H38_8 H 0.779752 0.316414 0.324551
C65_8 C 0.8249(4) 0.3112(3) 0.3061(3)
C66_8 C 0.8421(3) 0.3006(4) 0.2791(4)
H39_8 H 0.864622 0.301783 0.278835
C67_8 C 0.8256(4) 0.2881(3) 0.2524(3)
H40_8 H 0.837079 0.281021 0.234346
O13_8 O 0.8849(4) 0.3818(4) 0.4335(3)
O14_8 O 0.9218(4) 0.3575(4) 0.4207(3)
C68_8 C 0.6138(3) 0.3762(4) 0.1496(4)
C69_8 C 0.6340(4) 0.3920(3) 0.1715(4)
H41_8 H 0.629586 0.413296 0.177587
C70_8 C 0.6609(4) 0.3761(4) 0.1842(3)
H42_8 H 0.674394 0.386652 0.198832
C71_8 C 0.6675(3) 0.3443(4) 0.1751(4)
C72_8 C 0.6473(4) 0.3285(3) 0.1532(4)
H43_8 H 0.651703 0.307208 0.147058
C73_8 C 0.6204(4) 0.3444(4) 0.1404(3)
H44_8 H 0.606894 0.333851 0.125814
C74_8 C 0.5865(7) 0.3927(7) 0.1377(7)
C75_8 C 0.7472(3) 0.2919(4) 0.2137(3)
C76_8 C 0.7202(4) 0.2747(3) 0.2031(4)
H45_8 H 0.719937 0.252209 0.204348
C77_8 C 0.6935(3) 0.2912(4) 0.1907(3)
H46_8 H 0.675449 0.279752 0.183586
C78_8 C 0.6939(3) 0.3249(4) 0.1888(3)
C79_8 C 0.7209(4) 0.3421(3) 0.1994(4)
H47_8 H 0.721165 0.364622 0.198217
C80_8 C 0.7476(3) 0.3256(4) 0.2119(3)
H48_8 H 0.765654 0.337079 0.218979
O15_8 O 0.5665(3) 0.3849(4) 0.1182(4)
O16_8 O 0.5793(3) 0.4218(4) 0.1425(4)
C81_8 C 0.8949(6) 0.4409(6) 0.5133(7)
C82_8 C 0.9259(6) 0.4278(6) 0.5271(7)
O17_8 O 0.8909(2) 0.4294(3) 0.4842(3)
O19_8 O 0.9430(3) 0.4078(3) 0.5159(3)
C83_8 C 0.4867(7) 0.3949(6) 0.0591(6)
C84_8 C 0.4729(7) 0.4259(6) 0.0722(6)
O21_8 O 0.5158(3) 0.3909(2) 0.0706(3)
O23_8 O 0.4841(3) 0.4430(3) 0.0922(3)
C1_8 C 0.8367(8) 0.9918(7) 0.0964(7)
C2_8 C 0.6746(3) 0.8737(3) 0.1400(5)
C3_8 C 0.6818(4) 0.8823(4) 0.1081(4)
H1_8 H 0.668445 0.875351 0.091302
C4_8 C 0.7088(4) 0.9013(4) 0.1015(3)
H2_8 H 0.713585 0.907111 0.080231
C5_8 C 0.7287(3) 0.9117(3) 0.1267(5)
C6_8 C 0.7215(4) 0.9031(4) 0.1585(4)
H3_8 H 0.734857 0.910031 0.175341
C7_8 C 0.6945(4) 0.8841(4) 0.1651(3)
H4_8 H 0.689716 0.878271 0.186412
C14_8 C 0.7561(3) 0.9325(3) 0.1175(5)
C15_8 C 0.7572(3) 0.9509(4) 0.0892(4)
H9_8 H 0.739966 0.950363 0.074731
C16_8 C 0.7842(5) 0.9701(3) 0.0827(3)
H10_8 H 0.784936 0.982405 0.063775
C17_8 C 0.8100(3) 0.9709(3) 0.1044(5)
C18_8 C 0.8088(3) 0.9526(4) 0.1326(4)
H11_8 H 0.826117 0.953121 0.147162
C19_8 C 0.7819(5) 0.9334(3) 0.1392(3)
H12_8 H 0.781148 0.921080 0.158119
C27_8 C 0.9409(6) 0.9867(7) 0.1051(6)
C28_8 C 0.9278(6) 0.9729(7) 0.0741(6)
N1_8 N 0.6471(4) 0.8529(4) 0.1471(4)
O2_8 O 0.8621(4) 0.9934(4) 0.1146(4)
O7_8 O 0.9078(3) 0.9841(3) 0.0570(3)
C29_8 C 0.5964(7) 0.6633(8) 0.0082(7)
C30_8 C 0.6400(5) 0.8254(3) 0.1263(3)
C31_8 C 0.6081(4) 0.8182(4) 0.1177(4)
H17_8 H 0.591302 0.831555 0.124649
C32_8 C 0.6015(3) 0.7912(4) 0.0987(4)
H18_8 H 0.580231 0.786415 0.092889
C33_8 C 0.6267(5) 0.7713(3) 0.0883(3)
C34_8 C 0.6585(4) 0.7785(4) 0.0969(4)
H19_8 H 0.675341 0.765143 0.089969
C35_8 C 0.6651(3) 0.8055(4) 0.1159(4)
H20_8 H 0.686412 0.810284 0.121729
C36_8 C 0.6175(5) 0.7439(3) 0.0675(3)
C37_8 C 0.5892(4) 0.7428(3) 0.0491(4)
H21_8 H 0.574731 0.760034 0.049637
C38_8 C 0.5827(3) 0.7158(5) 0.0299(3)
H22_8 H 0.563775 0.715064 0.017595
C39_8 C 0.6044(5) 0.6900(3) 0.0291(3)
C40_8 C 0.6326(4) 0.6912(3) 0.0474(4)
H23_8 H 0.647162 0.673883 0.046879
C41_8 C 0.6392(3) 0.7181(5) 0.0666(3)
H24_8 H 0.658119 0.718852 0.078920
C42_8 C 0.5082(7) 0.9036(7) 0.3367(8)
C43_8 C 0.6263(3) 0.8600(5) 0.1746(3)
C44_8 C 0.6177(4) 0.8919(4) 0.1818(4)
H25_8 H 0.624649 0.908698 0.168445
C45_8 C 0.5987(4) 0.8985(3) 0.2088(4)
H26_8 H 0.592889 0.919769 0.213585
C46_8 C 0.5883(3) 0.8733(5) 0.2287(3)
C47_8 C 0.5969(4) 0.8415(4) 0.2215(4)
H27_8 H 0.589969 0.824659 0.234857
C48_8 C 0.6159(4) 0.8349(3) 0.1945(4)
H28_8 H 0.621729 0.813588 0.189716
C49_8 C 0.5675(3) 0.8825(5) 0.2561(3)
C50_8 C 0.5491(4) 0.9108(4) 0.2572(3)
H29_8 H 0.549637 0.925269 0.239966
C51_8 C 0.5299(3) 0.9173(3) 0.2842(5)
H30_8 H 0.517595 0.936225 0.284936
C52_8 C 0.5291(3) 0.8956(5) 0.3100(3)
C53_8 C 0.5474(4) 0.8674(4) 0.3088(3)
H31_8 H 0.546879 0.852838 0.326117
C54_8 C 0.5666(3) 0.8608(3) 0.2819(5)
H32_8 H 0.578920 0.841881 0.281148
loop_
_geom_bond_atom_site_label_1
_geom_bond_atom_site_label_2
_geom_bond_site_symmetry_1
_geom_bond_site_symmetry_2
C83 C84 1_555 1_555
C84 O23 1_555 1_555
O22 C83 1_555 1_555
O24 C84 1_555 1_555
In5 O11 1_555 1_555
In7 O22 1_555 1_555
O24 In7 1_555 1_555
In1 O1 1_555 1_555
C1 C17 1_555 1_555
C2 C3 1_555 1_555
C3 H1 1_555 1_555
C4 C3 1_555 1_555
H2 C4 1_555 1_555
C5 C4 1_555 1_555
C6 C5 1_555 1_555
H3 C6 1_555 1_555
C7 C2 1_555 1_555
H4 C7 1_555 1_555
C8 C9 1_555 1_555
C9 H5 1_555 1_555
C10 C9 1_555 1_555
H6 C10 1_555 1_555
C11 C10 1_555 1_555
C12 C11 1_555 1_555
H7 C12 1_555 1_555
C13 C8 1_555 1_555
H8 C13 1_555 1_555
C14 C5 1_555 1_555
C15 C14 1_555 1_555
H9 C15 1_555 1_555
C16 C15 1_555 1_555
H10 C16 1_555 1_555
C17 C16 1_555 1_555
C18 C17 1_555 1_555
H11 C18 1_555 1_555
C19 C14 1_555 1_555
H12 C19 1_555 1_555
C20 C8 1_555 1_555
C21 C22 1_555 1_555
C22 H13 1_555 1_555
C23 C22 1_555 1_555
H14 C23 1_555 1_555
C24 C11 1_555 1_555
C25 C24 1_555 1_555
H15 C25 1_555 1_555
C26 C21 1_555 1_555
H16 C26 1_555 1_555
C27 C28 1_555 1_555
C28 O7 1_555 1_555
N1 C2 1_555 1_555
N2 C21 1_555 1_555
O1 C1 1_555 1_555
O2 In1 1_555 1_555
O3 In1 1_555 1_555
O4 In1 1_555 1_555
O5 In1 1_555 1_555
O6 C27 1_555 1_555
O7 In1 1_555 1_555
O8 C28 1_555 1_555
C29 C39 1_555 1_555
C30 N1 1_555 1_555
C31 C30 1_555 1_555
H17 C31 1_555 1_555
C32 C31 1_555 1_555
H18 C32 1_555 1_555
C33 C32 1_555 1_555
C34 C33 1_555 1_555
H19 C34 1_555 1_555
C35 C30 1_555 1_555
H20 C35 1_555 1_555
C36 C33 1_555 1_555
C37 C36 1_555 1_555
H21 C37 1_555 1_555
C38 C37 1_555 1_555
H22 C38 1_555 1_555
C39 C38 1_555 1_555
C40 C39 1_555 1_555
H23 C40 1_555 1_555
C41 C36 1_555 1_555
H24 C41 1_555 1_555
O10 C29 1_555 1_555
C42 C52 1_555 1_555
C43 N1 1_555 1_555
C44 C43 1_555 1_555
H25 C44 1_555 1_555
C45 C44 1_555 1_555
H26 C45 1_555 1_555
C46 C45 1_555 1_555
C47 C46 1_555 1_555
H27 C47 1_555 1_555
C48 C43 1_555 1_555
H28 C48 1_555 1_555
C49 C46 1_555 1_555
C50 C49 1_555 1_555
H29 C50 1_555 1_555
C51 C50 1_555 1_555
H30 C51 1_555 1_555
C52 C51 1_555 1_555
C53 C52 1_555 1_555
H31 C53 1_555 1_555
C54 C49 1_555 1_555
H32 C54 1_555 1_555
O12 C42 1_555 1_555
C55 C56 1_555 1_555
C56 H33 1_555 1_555
C57 C56 1_555 1_555
H34 C57 1_555 1_555
C58 C57 1_555 1_555
C59 C58 1_555 1_555
H35 C59 1_555 1_555
C60 C55 1_555 1_555
H36 C60 1_555 1_555
C61 C55 1_555 1_555
C62 N2 1_555 1_555
C63 C62 1_555 1_555
H37 C63 1_555 1_555
C64 C63 1_555 1_555
H38 C64 1_555 1_555
C65 C58 1_555 1_555
C66 C65 1_555 1_555
H39 C66 1_555 1_555
C67 C62 1_555 1_555
H40 C67 1_555 1_555
O13 C61 1_555 1_555
O14 C61 1_555 1_555
C68 C69 1_555 1_555
C69 H41 1_555 1_555
C70 C69 1_555 1_555
H42 C70 1_555 1_555
C71 C70 1_555 1_555
C72 C71 1_555 1_555
H43 C72 1_555 1_555
C73 C68 1_555 1_555
H44 C73 1_555 1_555
C74 C68 1_555 1_555
C75 N2 1_555 1_555
C76 C75 1_555 1_555
H45 C76 1_555 1_555
C77 C76 1_555 1_555
H46 C77 1_555 1_555
C78 C71 1_555 1_555
C79 C78 1_555 1_555
H47 C79 1_555 1_555
C80 C75 1_555 1_555
H48 C80 1_555 1_555
O15 C74 1_555 1_555
O16 C74 1_555 1_555
In2 O13 1_555 1_555
C81 C82 1_555 1_555
C82 O19 1_555 1_555
O17 In2 1_555 1_555
O18 C81 1_555 1_555
O19 In2 1_555 1_555
O20 C82 1_555 1_555
In3 O15 1_555 1_555
O21 In3 1_555 1_555
In6 O18 1_555 1_555
In8 O6 1_555 1_555
O25 In2 1_555 1_555
O26 In3 1_555 1_555
O27 In2 1_555 1_555
O29 In3 1_555 1_555
O30 In1 1_555 1_555
O31 In2 1_555 1_555
O32 In3 1_555 1_555
O33 In1 1_555 1_555
O34 In2 1_555 1_555
C1 O2 1_555 1_555
C6 C7 1_555 1_555
C12 C13 1_555 1_555
C18 C19 1_555 1_555
C20 O3 1_555 1_555
C20 O4 1_555 1_555
C23 C24 1_555 1_555
C25 C26 1_555 1_555
C27 O5 1_555 1_555
O8 In8 1_555 1_555
C34 C35 1_555 1_555
C40 C41 1_555 1_555
C47 C48 1_555 1_555
C53 C54 1_555 1_555
C59 C60 1_555 1_555
C64 C65 1_555 1_555
C66 C67 1_555 1_555
O14 In2 1_555 1_555
C72 C73 1_555 1_555
C77 C78 1_555 1_555
C79 C80 1_555 1_555
O16 In3 1_555 1_555
C81 O17 1_555 1_555
O20 In6 1_555 1_555
In4 O9 1_555 1_555
C81_2 C82_2 1_555 1_555
C82_2 O19_2 1_555 1_555
O18_2 C81_2 1_555 1_555
O20_2 C82_2 1_555 1_555
In6_2 O18_2 1_555 1_555
O20_2 In6_2 1_555 1_555
In1_2 O1_2 1_555 1_555
C1_2 C17_2 1_555 1_555
C2_2 C3_2 1_555 1_555
C3_2 H1_2 1_555 1_555
C4_2 C3_2 1_555 1_555
H2_2 C4_2 1_555 1_555
C5_2 C4_2 1_555 1_555
C6_2 C5_2 1_555 1_555
H3_2 C6_2 1_555 1_555
C7_2 C2_2 1_555 1_555
H4_2 C7_2 1_555 1_555
C8_2 C9_2 1_555 1_555
C9_2 H5_2 1_555 1_555
C10_2 C9_2 1_555 1_555
H6_2 C10_2 1_555 1_555
C11_2 C10_2 1_555 1_555
C12_2 C11_2 1_555 1_555
H7_2 C12_2 1_555 1_555
C13_2 C8_2 1_555 1_555
H8_2 C13_2 1_555 1_555
C14_2 C5_2 1_555 1_555
C15_2 C14_2 1_555 1_555
H9_2 C15_2 1_555 1_555
C16_2 C15_2 1_555 1_555
H10_2 C16_2 1_555 1_555
C17_2 C16_2 1_555 1_555
C18_2 C17_2 1_555 1_555
H11_2 C18_2 1_555 1_555
C19_2 C14_2 1_555 1_555
H12_2 C19_2 1_555 1_555
C20_2 C8_2 1_555 1_555
C21_2 C22_2 1_555 1_555
C22_2 H13_2 1_555 1_555
C23_2 C22_2 1_555 1_555
H14_2 C23_2 1_555 1_555
C24_2 C11_2 1_555 1_555
C25_2 C24_2 1_555 1_555
H15_2 C25_2 1_555 1_555
C26_2 C21_2 1_555 1_555
H16_2 C26_2 1_555 1_555
C27_2 C28_2 1_555 1_555
C28_2 O7_2 1_555 1_555
N1_2 C2_2 1_555 1_555
N2_2 C21_2 1_555 1_555
O1_2 C1_2 1_555 1_555
O2_2 In1_2 1_555 1_555
O3_2 In1_2 1_555 1_555
O4_2 In1_2 1_555 1_555
O5_2 In1_2 1_555 1_555
O6_2 C27_2 1_555 1_555
O7_2 In1_2 1_555 1_555
O8_2 C28_2 1_555 1_555
C29_2 C39_2 1_555 1_555
C30_2 N1_2 1_555 1_555
C31_2 C30_2 1_555 1_555
H17_2 C31_2 1_555 1_555
C32_2 C31_2 1_555 1_555
H18_2 C32_2 1_555 1_555
C33_2 C32_2 1_555 1_555
C34_2 C33_2 1_555 1_555
H19_2 C34_2 1_555 1_555
C35_2 C30_2 1_555 1_555
H20_2 C35_2 1_555 1_555
C36_2 C33_2 1_555 1_555
C37_2 C36_2 1_555 1_555
H21_2 C37_2 1_555 1_555
C38_2 C37_2 1_555 1_555
H22_2 C38_2 1_555 1_555
C39_2 C38_2 1_555 1_555
C40_2 C39_2 1_555 1_555
H23_2 C40_2 1_555 1_555
C41_2 C36_2 1_555 1_555
H24_2 C41_2 1_555 1_555
O25 C29_2 1_555 1_555
O27 C29_2 1_555 1_555
C42_2 C52_2 1_555 1_555
C43_2 N1_2 1_555 1_555
C44_2 C43_2 1_555 1_555
H25_2 C44_2 1_555 1_555
C45_2 C44_2 1_555 1_555
H26_2 C45_2 1_555 1_555
C46_2 C45_2 1_555 1_555
C47_2 C46_2 1_555 1_555
H27_2 C47_2 1_555 1_555
C48_2 C43_2 1_555 1_555
H28_2 C48_2 1_555 1_555
C49_2 C46_2 1_555 1_555
C50_2 C49_2 1_555 1_555
H29_2 C50_2 1_555 1_555
C51_2 C50_2 1_555 1_555
H30_2 C51_2 1_555 1_555
C52_2 C51_2 1_555 1_555
C53_2 C52_2 1_555 1_555
H31_2 C53_2 1_555 1_555
C54_2 C49_2 1_555 1_555
H32_2 C54_2 1_555 1_555
O11_2 C42_2 1_555 1_555
O12_2 C42_2 1_555 1_555
C55_2 C56_2 1_555 1_555
C56_2 H33_2 1_555 1_555
C57_2 C56_2 1_555 1_555
H34_2 C57_2 1_555 1_555
C58_2 C57_2 1_555 1_555
C59_2 C58_2 1_555 1_555
H35_2 C59_2 1_555 1_555
C60_2 C55_2 1_555 1_555
H36_2 C60_2 1_555 1_555
C61_2 C55_2 1_555 1_555
C62_2 N2_2 1_555 1_555
C63_2 C62_2 1_555 1_555
H37_2 C63_2 1_555 1_555
C64_2 C63_2 1_555 1_555
H38_2 C64_2 1_555 1_555
C65_2 C58_2 1_555 1_555
C66_2 C65_2 1_555 1_555
H39_2 C66_2 1_555 1_555
C67_2 C62_2 1_555 1_555
H40_2 C67_2 1_555 1_555
O13_2 C61_2 1_555 1_555
O14_2 C61_2 1_555 1_555
C68_2 C69_2 1_555 1_555
C69_2 H41_2 1_555 1_555
C70_2 C69_2 1_555 1_555
H42_2 C70_2 1_555 1_555
C71_2 C70_2 1_555 1_555
C72_2 C71_2 1_555 1_555
H43_2 C72_2 1_555 1_555
C73_2 C68_2 1_555 1_555
H44_2 C73_2 1_555 1_555
C74_2 C68_2 1_555 1_555
C75_2 N2_2 1_555 1_555
C76_2 C75_2 1_555 1_555
H45_2 C76_2 1_555 1_555
C77_2 C76_2 1_555 1_555
H46_2 C77_2 1_555 1_555
C78_2 C71_2 1_555 1_555
C79_2 C78_2 1_555 1_555
H47_2 C79_2 1_555 1_555
C80_2 C75_2 1_555 1_555
H48_2 C80_2 1_555 1_555
O15_2 C74_2 1_555 1_555
O16_2 C74_2 1_555 1_555
In4 O13_2 1_555 1_555
O17_2 In4 1_555 1_555
In3_2 O15_2 1_555 1_555
C83_2 C84_2 1_555 1_555
C84_2 O23_2 1_555 1_555
O21_2 In3_2 1_555 1_555
O22_2 C83_2 1_555 1_555
O23_2 In3_2 1_555 1_555
O24_2 C84_2 1_555 1_555
In5_2 O11_2 1_555 1_555
In7_2 O22_2 1_555 1_555
In8_2 O6_2 1_555 1_555
O26_2 In3_2 1_555 1_555
O28_2 In3_2 1_555 1_555
O29_2 In3_2 1_555 1_555
O30_2 In1_2 1_555 1_555
O31_2 In4 1_555 1_555
O32_2 In3_2 1_555 1_555
O33_2 In1_2 1_555 1_555
O34_2 In4 1_555 1_555
C1_2 O2_2 1_555 1_555
C6_2 C7_2 1_555 1_555
C12_2 C13_2 1_555 1_555
C18_2 C19_2 1_555 1_555
C20_2 O3_2 1_555 1_555
C20_2 O4_2 1_555 1_555
C23_2 C24_2 1_555 1_555
C25_2 C26_2 1_555 1_555
C27_2 O5_2 1_555 1_555
O8_2 In8_2 1_555 1_555
C34_2 C35_2 1_555 1_555
C40_2 C41_2 1_555 1_555
C47_2 C48_2 1_555 1_555
C53_2 C54_2 1_555 1_555
O12_2 In5_2 1_555 1_555
C59_2 C60_2 1_555 1_555
C64_2 C65_2 1_555 1_555
C66_2 C67_2 1_555 1_555
O14_2 In4 1_555 1_555
C72_2 C73_2 1_555 1_555
C77_2 C78_2 1_555 1_555
C79_2 C80_2 1_555 1_555
O16_2 In3_2 1_555 1_555
C83_2 O21_2 1_555 1_555
O24_2 In7_2 1_555 1_555
In1_3 O1_3 1_555 1_555
C8_3 C9_3 1_555 1_555
C9_3 H5_3 1_555 1_555
C10_3 C9_3 1_555 1_555
H6_3 C10_3 1_555 1_555
C11_3 C10_3 1_555 1_555
C12_3 C11_3 1_555 1_555
H7_3 C12_3 1_555 1_555
C13_3 C8_3 1_555 1_555
H8_3 C13_3 1_555 1_555
C20_3 C8_3 1_555 1_555
C21_3 C22_3 1_555 1_555
C22_3 H13_3 1_555 1_555
C23_3 C22_3 1_555 1_555
H14_3 C23_3 1_555 1_555
C24_3 C11_3 1_555 1_555
C25_3 C24_3 1_555 1_555
H15_3 C25_3 1_555 1_555
C26_3 C21_3 1_555 1_555
H16_3 C26_3 1_555 1_555
N2_3 C21_3 1_555 1_555
O3_3 In1_3 1_555 1_555
O4_3 In1_3 1_555 1_555
O5_3 In1_3 1_555 1_555
C55_3 C56_3 1_555 1_555
C56_3 H33_3 1_555 1_555
C57_3 C56_3 1_555 1_555
H34_3 C57_3 1_555 1_555
C58_3 C57_3 1_555 1_555
C59_3 C58_3 1_555 1_555
H35_3 C59_3 1_555 1_555
C60_3 C55_3 1_555 1_555
H36_3 C60_3 1_555 1_555
C61_3 C55_3 1_555 1_555
C62_3 N2_3 1_555 1_555
C63_3 C62_3 1_555 1_555
H37_3 C63_3 1_555 1_555
C64_3 C63_3 1_555 1_555
H38_3 C64_3 1_555 1_555
C65_3 C58_3 1_555 1_555
C66_3 C65_3 1_555 1_555
H39_3 C66_3 1_555 1_555
C67_3 C62_3 1_555 1_555
H40_3 C67_3 1_555 1_555
O13_3 C61_3 1_555 1_555
O14_3 C61_3 1_555 1_555
C68_3 C69_3 1_555 1_555
C69_3 H41_3 1_555 1_555
C70_3 C69_3 1_555 1_555
H42_3 C70_3 1_555 1_555
C71_3 C70_3 1_555 1_555
C72_3 C71_3 1_555 1_555
H43_3 C72_3 1_555 1_555
C73_3 C68_3 1_555 1_555
H44_3 C73_3 1_555 1_555
C74_3 C68_3 1_555 1_555
C75_3 N2_3 1_555 1_555
C76_3 C75_3 1_555 1_555
H45_3 C76_3 1_555 1_555
C77_3 C76_3 1_555 1_555
H46_3 C77_3 1_555 1_555
C78_3 C71_3 1_555 1_555
C79_3 C78_3 1_555 1_555
H47_3 C79_3 1_555 1_555
C80_3 C75_3 1_555 1_555
H48_3 C80_3 1_555 1_555
O15_3 C74_3 1_555 1_555
O16_3 C74_3 1_555 1_555
In2_2 O13_3 1_555 1_555
O17_3 In2_2 1_555 1_555
In5 O15_3 1_555 1_555
O21_3 In5 1_555 1_555
O25_2 In2_2 1_555 1_555
O29_3 In5 1_555 1_555
O30_3 In1_3 1_555 1_555
O31_3 In2_2 1_555 1_555
O32_3 In5 1_555 1_555
O33_3 In1_3 1_555 1_555
O34_3 In2_2 1_555 1_555
C12_3 C13_3 1_555 1_555
C20_3 O3_3 1_555 1_555
C20_3 O4_3 1_555 1_555
C23_3 C24_3 1_555 1_555
C25_3 C26_3 1_555 1_555
C59_3 C60_3 1_555 1_555
C64_3 C65_3 1_555 1_555
C66_3 C67_3 1_555 1_555
O14_3 In2_2 1_555 1_555
C72_3 C73_3 1_555 1_555
C77_3 C78_3 1_555 1_555
C79_3 C80_3 1_555 1_555
O16_3 In5 1_555 1_555
C81_3 C82_3 1_555 1_555
C82_3 O19_3 1_555 1_555
O18_3 C81_3 1_555 1_555
O20_3 C82_3 1_555 1_555
In6_3 O18_3 1_555 1_555
O20_3 In6_3 1_555 1_555
C1_3 C17_3 1_555 1_555
C2_3 C3_3 1_555 1_555
C3_3 H1_3 1_555 1_555
C4_3 C3_3 1_555 1_555
H2_3 C4_3 1_555 1_555
C5_3 C4_3 1_555 1_555
C6_3 C5_3 1_555 1_555
H3_3 C6_3 1_555 1_555
C7_3 C2_3 1_555 1_555
H4_3 C7_3 1_555 1_555
C14_3 C5_3 1_555 1_555
C15_3 C14_3 1_555 1_555
H9_3 C15_3 1_555 1_555
C16_3 C15_3 1_555 1_555
H10_3 C16_3 1_555 1_555
C17_3 C16_3 1_555 1_555
C18_3 C17_3 1_555 1_555
H11_3 C18_3 1_555 1_555
C19_3 C14_3 1_555 1_555
H12_3 C19_3 1_555 1_555
C27_3 C28_3 1_555 1_555
C28_3 O7_3 1_555 1_555
N1_3 C2_3 1_555 1_555
O6_3 C27_3 1_555 1_555
O8_3 C28_3 1_555 1_555
C29_3 C39_3 1_555 1_555
C30_3 N1_3 1_555 1_555
C31_3 C30_3 1_555 1_555
H17_3 C31_3 1_555 1_555
C32_3 C31_3 1_555 1_555
H18_3 C32_3 1_555 1_555
C33_3 C32_3 1_555 1_555
C34_3 C33_3 1_555 1_555
H19_3 C34_3 1_555 1_555
C35_3 C30_3 1_555 1_555
H20_3 C35_3 1_555 1_555
C36_3 C33_3 1_555 1_555
C37_3 C36_3 1_555 1_555
H21_3 C37_3 1_555 1_555
C38_3 C37_3 1_555 1_555
H22_3 C38_3 1_555 1_555
C39_3 C38_3 1_555 1_555
C40_3 C39_3 1_555 1_555
H23_3 C40_3 1_555 1_555
C41_3 C36_3 1_555 1_555
H24_3 C41_3 1_555 1_555
O9_2 C29_3 1_555 1_555
O10_2 C29_3 1_555 1_555
C42_3 C52_3 1_555 1_555
C43_3 N1_3 1_555 1_555
C44_3 C43_3 1_555 1_555
H25_3 C44_3 1_555 1_555
C45_3 C44_3 1_555 1_555
H26_3 C45_3 1_555 1_555
C46_3 C45_3 1_555 1_555
C47_3 C46_3 1_555 1_555
H27_3 C47_3 1_555 1_555
C48_3 C43_3 1_555 1_555
H28_3 C48_3 1_555 1_555
C49_3 C46_3 1_555 1_555
C50_3 C49_3 1_555 1_555
H29_3 C50_3 1_555 1_555
C51_3 C50_3 1_555 1_555
H30_3 C51_3 1_555 1_555
C52_3 C51_3 1_555 1_555
C53_3 C52_3 1_555 1_555
H31_3 C53_3 1_555 1_555
C54_3 C49_3 1_555 1_555
H32_3 C54_3 1_555 1_555
O28 C42_3 1_555 1_555
In4_2 O9_2 1_555 1_555
In8_3 O6_3 1_555 1_555
C1_3 O2_3 1_555 1_555
C6_3 C7_3 1_555 1_555
C18_3 C19_3 1_555 1_555
O8_3 In8_3 1_555 1_555
C34_3 C35_3 1_555 1_555
C40_3 C41_3 1_555 1_555
O10_2 In4_2 1_555 1_555
C47_3 C48_3 1_555 1_555
C53_3 C54_3 1_555 1_555
C83_3 C84_3 1_555 1_555
C84_3 O23_3 1_555 1_555
O22_3 C83_3 1_555 1_555
O24_3 C84_3 1_555 1_555
In7_3 O22_3 1_555 1_555
O24_3 In7_3 1_555 1_555
C1_4 C17_4 1_555 1_555
C2_4 C3_4 1_555 1_555
C3_4 H1_4 1_555 1_555
C4_4 C3_4 1_555 1_555
H2_4 C4_4 1_555 1_555
C5_4 C4_4 1_555 1_555
C6_4 C5_4 1_555 1_555
H3_4 C6_4 1_555 1_555
C7_4 C2_4 1_555 1_555
H4_4 C7_4 1_555 1_555
C14_4 C5_4 1_555 1_555
C15_4 C14_4 1_555 1_555
H9_4 C15_4 1_555 1_555
C16_4 C15_4 1_555 1_555
H10_4 C16_4 1_555 1_555
C17_4 C16_4 1_555 1_555
C18_4 C17_4 1_555 1_555
H11_4 C18_4 1_555 1_555
C19_4 C14_4 1_555 1_555
H12_4 C19_4 1_555 1_555
C27_4 C28_4 1_555 1_555
C28_4 O7_4 1_555 1_555
N1_4 C2_4 1_555 1_555
O6_4 C27_4 1_555 1_555
O8_4 C28_4 1_555 1_555
C29_4 C39_4 1_555 1_555
C30_4 N1_4 1_555 1_555
C31_4 C30_4 1_555 1_555
H17_4 C31_4 1_555 1_555
C32_4 C31_4 1_555 1_555
H18_4 C32_4 1_555 1_555
C33_4 C32_4 1_555 1_555
C34_4 C33_4 1_555 1_555
H19_4 C34_4 1_555 1_555
C35_4 C30_4 1_555 1_555
H20_4 C35_4 1_555 1_555
C36_4 C33_4 1_555 1_555
C37_4 C36_4 1_555 1_555
H21_4 C37_4 1_555 1_555
C38_4 C37_4 1_555 1_555
H22_4 C38_4 1_555 1_555
C39_4 C38_4 1_555 1_555
C40_4 C39_4 1_555 1_555
H23_4 C40_4 1_555 1_555
C41_4 C36_4 1_555 1_555
H24_4 C41_4 1_555 1_555
O27_2 C29_4 1_555 1_555
C42_4 C52_4 1_555 1_555
C43_4 N1_4 1_555 1_555
C44_4 C43_4 1_555 1_555
H25_4 C44_4 1_555 1_555
C45_4 C44_4 1_555 1_555
H26_4 C45_4 1_555 1_555
C46_4 C45_4 1_555 1_555
C47_4 C46_4 1_555 1_555
H27_4 C47_4 1_555 1_555
C48_4 C43_4 1_555 1_555
H28_4 C48_4 1_555 1_555
C49_4 C46_4 1_555 1_555
C50_4 C49_4 1_555 1_555
H29_4 C50_4 1_555 1_555
C51_4 C50_4 1_555 1_555
H30_4 C51_4 1_555 1_555
C52_4 C51_4 1_555 1_555
C53_4 C52_4 1_555 1_555
H31_4 C53_4 1_555 1_555
C54_4 C49_4 1_555 1_555
H32_4 C54_4 1_555 1_555
O26_2 C42_4 1_555 1_555
O28_2 C42_4 1_555 1_555
In8_4 O6_4 1_555 1_555
C1_4 O2_4 1_555 1_555
C6_4 C7_4 1_555 1_555
C18_4 C19_4 1_555 1_555
O8_4 In8_4 1_555 1_555
C34_4 C35_4 1_555 1_555
C40_4 C41_4 1_555 1_555
C47_4 C48_4 1_555 1_555
C53_4 C54_4 1_555 1_555
In1_4 O1_4 1_555 1_555
C8_4 C9_4 1_555 1_555
C9_4 H5_4 1_555 1_555
C10_4 C9_4 1_555 1_555
H6_4 C10_4 1_555 1_555
C11_4 C10_4 1_555 1_555
C12_4 C11_4 1_555 1_555
H7_4 C12_4 1_555 1_555
C13_4 C8_4 1_555 1_555
H8_4 C13_4 1_555 1_555
C20_4 C8_4 1_555 1_555
C21_4 C22_4 1_555 1_555
C22_4 H13_4 1_555 1_555
C23_4 C22_4 1_555 1_555
H14_4 C23_4 1_555 1_555
C24_4 C11_4 1_555 1_555
C25_4 C24_4 1_555 1_555
H15_4 C25_4 1_555 1_555
C26_4 C21_4 1_555 1_555
H16_4 C26_4 1_555 1_555
N2_4 C21_4 1_555 1_555
O3_4 In1_4 1_555 1_555
O4_4 In1_4 1_555 1_555
O5_4 In1_4 1_555 1_555
C55_4 C56_4 1_555 1_555
C56_4 H33_4 1_555 1_555
C57_4 C56_4 1_555 1_555
H34_4 C57_4 1_555 1_555
C58_4 C57_4 1_555 1_555
C59_4 C58_4 1_555 1_555
H35_4 C59_4 1_555 1_555
C60_4 C55_4 1_555 1_555
H36_4 C60_4 1_555 1_555
C61_4 C55_4 1_555 1_555
C62_4 N2_4 1_555 1_555
C63_4 C62_4 1_555 1_555
H37_4 C63_4 1_555 1_555
C64_4 C63_4 1_555 1_555
H38_4 C64_4 1_555 1_555
C65_4 C58_4 1_555 1_555
C66_4 C65_4 1_555 1_555
H39_4 C66_4 1_555 1_555
C67_4 C62_4 1_555 1_555
H40_4 C67_4 1_555 1_555
O13_4 C61_4 1_555 1_555
O14_4 C61_4 1_555 1_555
C68_4 C69_4 1_555 1_555
C69_4 H41_4 1_555 1_555
C70_4 C69_4 1_555 1_555
H42_4 C70_4 1_555 1_555
C71_4 C70_4 1_555 1_555
C72_4 C71_4 1_555 1_555
H43_4 C72_4 1_555 1_555
C73_4 C68_4 1_555 1_555
H44_4 C73_4 1_555 1_555
C74_4 C68_4 1_555 1_555
C75_4 N2_4 1_555 1_555
C76_4 C75_4 1_555 1_555
H45_4 C76_4 1_555 1_555
C77_4 C76_4 1_555 1_555
H46_4 C77_4 1_555 1_555
C78_4 C71_4 1_555 1_555
C79_4 C78_4 1_555 1_555
H47_4 C79_4 1_555 1_555
C80_4 C75_4 1_555 1_555
H48_4 C80_4 1_555 1_555
O15_4 C74_4 1_555 1_555
O16_4 C74_4 1_555 1_555
In4_2 O13_4 1_555 1_555
C81_4 C82_4 1_555 1_555
C82_4 O19_4 1_555 1_555
O17_4 In4_2 1_555 1_555
O18_4 C81_4 1_555 1_555
O19_4 In4_2 1_555 1_555
O20_4 C82_4 1_555 1_555
In5_2 O15_4 1_555 1_555
C83_4 C84_4 1_555 1_555
C84_4 O23_4 1_555 1_555
O21_4 In5_2 1_555 1_555
O22_4 C83_4 1_555 1_555
O23_4 In5_2 1_555 1_555
O24_4 C84_4 1_555 1_555
In6_4 O18_4 1_555 1_555
In7_4 O22_4 1_555 1_555
O29_4 In5_2 1_555 1_555
O30_4 In1_4 1_555 1_555
O31_4 In4_2 1_555 1_555
O32_4 In5_2 1_555 1_555
O33_4 In1_4 1_555 1_555
O34_4 In4_2 1_555 1_555
C12_4 C13_4 1_555 1_555
C20_4 O3_4 1_555 1_555
C20_4 O4_4 1_555 1_555
C23_4 C24_4 1_555 1_555
C25_4 C26_4 1_555 1_555
C59_4 C60_4 1_555 1_555
C64_4 C65_4 1_555 1_555
C66_4 C67_4 1_555 1_555
O14_4 In4_2 1_555 1_555
C72_4 C73_4 1_555 1_555
C77_4 C78_4 1_555 1_555
C79_4 C80_4 1_555 1_555
O16_4 In5_2 1_555 1_555
C81_4 O17_4 1_555 1_555
O20_4 In6_4 1_555 1_555
C83_4 O21_4 1_555 1_555
O24_4 In7_4 1_555 1_555
In7 O9_3 1_555 1_555
In6_3 O1_5 1_555 1_555
C1_5 C17_5 1_555 1_555
C2_5 C3_5 1_555 1_555
C3_5 H1_5 1_555 1_555
C4_5 C3_5 1_555 1_555
H2_5 C4_5 1_555 1_555
C5_5 C4_5 1_555 1_555
C6_5 C5_5 1_555 1_555
H3_5 C6_5 1_555 1_555
C7_5 C2_5 1_555 1_555
H4_5 C7_5 1_555 1_555
C8_5 C9_5 1_555 1_555
C9_5 H5_5 1_555 1_555
C10_5 C9_5 1_555 1_555
H6_5 C10_5 1_555 1_555
C11_5 C10_5 1_555 1_555
C12_5 C11_5 1_555 1_555
H7_5 C12_5 1_555 1_555
C13_5 C8_5 1_555 1_555
H8_5 C13_5 1_555 1_555
C14_5 C5_5 1_555 1_555
C15_5 C14_5 1_555 1_555
H9_5 C15_5 1_555 1_555
C16_5 C15_5 1_555 1_555
H10_5 C16_5 1_555 1_555
C17_5 C16_5 1_555 1_555
C18_5 C17_5 1_555 1_555
H11_5 C18_5 1_555 1_555
C19_5 C14_5 1_555 1_555
H12_5 C19_5 1_555 1_555
C20_5 C8_5 1_555 1_555
C21_5 C22_5 1_555 1_555
C22_5 H13_5 1_555 1_555
C23_5 C22_5 1_555 1_555
H14_5 C23_5 1_555 1_555
C24_5 C11_5 1_555 1_555
C25_5 C24_5 1_555 1_555
H15_5 C25_5 1_555 1_555
C26_5 C21_5 1_555 1_555
H16_5 C26_5 1_555 1_555
C27_5 C28_5 1_555 1_555
C28_5 O7_5 1_555 1_555
N1_5 C2_5 1_555 1_555
N2_5 C21_5 1_555 1_555
O1_5 C1_5 1_555 1_555
O2_5 In6_3 1_555 1_555
O3_5 In6_3 1_555 1_555
O4_5 In6_3 1_555 1_555
O5_5 In6_3 1_555 1_555
O29_4 C27_5 1_555 1_555
O7_5 In6_3 1_555 1_555
O32_4 C28_5 1_555 1_555
C29_5 C39_5 1_555 1_555
C30_5 N1_5 1_555 1_555
C31_5 C30_5 1_555 1_555
H17_5 C31_5 1_555 1_555
C32_5 C31_5 1_555 1_555
H18_5 C32_5 1_555 1_555
C33_5 C32_5 1_555 1_555
C34_5 C33_5 1_555 1_555
H19_5 C34_5 1_555 1_555
C35_5 C30_5 1_555 1_555
H20_5 C35_5 1_555 1_555
C36_5 C33_5 1_555 1_555
C37_5 C36_5 1_555 1_555
H21_5 C37_5 1_555 1_555
C38_5 C37_5 1_555 1_555
H22_5 C38_5 1_555 1_555
C39_5 C38_5 1_555 1_555
C40_5 C39_5 1_555 1_555
H23_5 C40_5 1_555 1_555
C41_5 C36_5 1_555 1_555
H24_5 C41_5 1_555 1_555
O10_3 C29_5 1_555 1_555
C42_5 C52_5 1_555 1_555
C43_5 N1_5 1_555 1_555
C44_5 C43_5 1_555 1_555
H25_5 C44_5 1_555 1_555
C45_5 C44_5 1_555 1_555
H26_5 C45_5 1_555 1_555
C46_5 C45_5 1_555 1_555
C47_5 C46_5 1_555 1_555
H27_5 C47_5 1_555 1_555
C48_5 C43_5 1_555 1_555
H28_5 C48_5 1_555 1_555
C49_5 C46_5 1_555 1_555
C50_5 C49_5 1_555 1_555
H29_5 C50_5 1_555 1_555
C51_5 C50_5 1_555 1_555
H30_5 C51_5 1_555 1_555
C52_5 C51_5 1_555 1_555
C53_5 C52_5 1_555 1_555
H31_5 C53_5 1_555 1_555
C54_5 C49_5 1_555 1_555
H32_5 C54_5 1_555 1_555
O12_3 C42_5 1_555 1_555
C55_5 C56_5 1_555 1_555
C56_5 H33_5 1_555 1_555
C57_5 C56_5 1_555 1_555
H34_5 C57_5 1_555 1_555
C58_5 C57_5 1_555 1_555
C59_5 C58_5 1_555 1_555
H35_5 C59_5 1_555 1_555
C60_5 C55_5 1_555 1_555
H36_5 C60_5 1_555 1_555
C61_5 C55_5 1_555 1_555
C62_5 N2_5 1_555 1_555
C63_5 C62_5 1_555 1_555
H37_5 C63_5 1_555 1_555
C64_5 C63_5 1_555 1_555
H38_5 C64_5 1_555 1_555
C65_5 C58_5 1_555 1_555
C66_5 C65_5 1_555 1_555
H39_5 C66_5 1_555 1_555
C67_5 C62_5 1_555 1_555
H40_5 C67_5 1_555 1_555
O13_5 C61_5 1_555 1_555
O14_5 C61_5 1_555 1_555
C68_5 C69_5 1_555 1_555
C69_5 H41_5 1_555 1_555
C70_5 C69_5 1_555 1_555
H42_5 C70_5 1_555 1_555
C71_5 C70_5 1_555 1_555
C72_5 C71_5 1_555 1_555
H43_5 C72_5 1_555 1_555
C73_5 C68_5 1_555 1_555
H44_5 C73_5 1_555 1_555
C74_5 C68_5 1_555 1_555
C75_5 N2_5 1_555 1_555
C76_5 C75_5 1_555 1_555
H45_5 C76_5 1_555 1_555
C77_5 C76_5 1_555 1_555
H46_5 C77_5 1_555 1_555
C78_5 C71_5 1_555 1_555
C79_5 C78_5 1_555 1_555
H47_5 C79_5 1_555 1_555
C80_5 C75_5 1_555 1_555
H48_5 C80_5 1_555 1_555
O15_5 C74_5 1_555 1_555
O16_5 C74_5 1_555 1_555
In7_2 O13_5 1_555 1_555
C81_5 C82_5 1_555 1_555
C82_5 O19_5 1_555 1_555
O17_5 In7_2 1_555 1_555
O30_3 C81_5 1_555 1_555
O19_5 In7_2 1_555 1_555
O33_3 C82_5 1_555 1_555
In8_4 O15_5 1_555 1_555
O21_5 In8_4 1_555 1_555
O25_3 In7_2 1_555 1_555
O26_3 In8_4 1_555 1_555
O27_3 In7_2 1_555 1_555
C1_5 O2_5 1_555 1_555
C6_5 C7_5 1_555 1_555
C12_5 C13_5 1_555 1_555
C18_5 C19_5 1_555 1_555
C20_5 O3_5 1_555 1_555
C20_5 O4_5 1_555 1_555
C23_5 C24_5 1_555 1_555
C25_5 C26_5 1_555 1_555
C27_5 O5_5 1_555 1_555
C34_5 C35_5 1_555 1_555
C40_5 C41_5 1_555 1_555
C47_5 C48_5 1_555 1_555
C53_5 C54_5 1_555 1_555
C59_5 C60_5 1_555 1_555
C64_5 C65_5 1_555 1_555
C66_5 C67_5 1_555 1_555
O14_5 In7_2 1_555 1_555
C72_5 C73_5 1_555 1_555
C77_5 C78_5 1_555 1_555
C79_5 C80_5 1_555 1_555
O16_5 In8_4 1_555 1_555
C81_5 O17_5 1_555 1_555
C83_5 C84_5 1_555 1_555
C84_5 O23_5 1_555 1_555
O31_2 C83_5 1_555 1_555
O34_2 C84_5 1_555 1_555
In8_2 O11_3 1_555 1_555
In6_4 O1_6 1_555 1_555
C1_6 C17_6 1_555 1_555
C2_6 C3_6 1_555 1_555
C3_6 H1_6 1_555 1_555
C4_6 C3_6 1_555 1_555
H2_6 C4_6 1_555 1_555
C5_6 C4_6 1_555 1_555
C6_6 C5_6 1_555 1_555
H3_6 C6_6 1_555 1_555
C7_6 C2_6 1_555 1_555
H4_6 C7_6 1_555 1_555
C8_6 C9_6 1_555 1_555
C9_6 H5_6 1_555 1_555
C10_6 C9_6 1_555 1_555
H6_6 C10_6 1_555 1_555
C11_6 C10_6 1_555 1_555
C12_6 C11_6 1_555 1_555
H7_6 C12_6 1_555 1_555
C13_6 C8_6 1_555 1_555
H8_6 C13_6 1_555 1_555
C14_6 C5_6 1_555 1_555
C15_6 C14_6 1_555 1_555
H9_6 C15_6 1_555 1_555
C16_6 C15_6 1_555 1_555
H10_6 C16_6 1_555 1_555
C17_6 C16_6 1_555 1_555
C18_6 C17_6 1_555 1_555
H11_6 C18_6 1_555 1_555
C19_6 C14_6 1_555 1_555
H12_6 C19_6 1_555 1_555
C20_6 C8_6 1_555 1_555
C21_6 C22_6 1_555 1_555
C22_6 H13_6 1_555 1_555
C23_6 C22_6 1_555 1_555
H14_6 C23_6 1_555 1_555
C24_6 C11_6 1_555 1_555
C25_6 C24_6 1_555 1_555
H15_6 C25_6 1_555 1_555
C26_6 C21_6 1_555 1_555
H16_6 C26_6 1_555 1_555
C27_6 C28_6 1_555 1_555
C28_6 O7_6 1_555 1_555
N1_6 C2_6 1_555 1_555
N2_6 C21_6 1_555 1_555
O1_6 C1_6 1_555 1_555
O2_6 In6_4 1_555 1_555
O3_6 In6_4 1_555 1_555
O4_6 In6_4 1_555 1_555
O5_6 In6_4 1_555 1_555
O29_3 C27_6 1_555 1_555
O7_6 In6_4 1_555 1_555
O32_3 C28_6 1_555 1_555
C29_6 C39_6 1_555 1_555
C30_6 N1_6 1_555 1_555
C31_6 C30_6 1_555 1_555
H17_6 C31_6 1_555 1_555
C32_6 C31_6 1_555 1_555
H18_6 C32_6 1_555 1_555
C33_6 C32_6 1_555 1_555
C34_6 C33_6 1_555 1_555
H19_6 C34_6 1_555 1_555
C35_6 C30_6 1_555 1_555
H20_6 C35_6 1_555 1_555
C36_6 C33_6 1_555 1_555
C37_6 C36_6 1_555 1_555
H21_6 C37_6 1_555 1_555
C38_6 C37_6 1_555 1_555
H22_6 C38_6 1_555 1_555
C39_6 C38_6 1_555 1_555
C40_6 C39_6 1_555 1_555
H23_6 C40_6 1_555 1_555
C41_6 C36_6 1_555 1_555
H24_6 C41_6 1_555 1_555
O25_3 C29_6 1_555 1_555
O27_3 C29_6 1_555 1_555
C42_6 C52_6 1_555 1_555
C43_6 N1_6 1_555 1_555
C44_6 C43_6 1_555 1_555
H25_6 C44_6 1_555 1_555
C45_6 C44_6 1_555 1_555
H26_6 C45_6 1_555 1_555
C46_6 C45_6 1_555 1_555
C47_6 C46_6 1_555 1_555
H27_6 C47_6 1_555 1_555
C48_6 C43_6 1_555 1_555
H28_6 C48_6 1_555 1_555
C49_6 C46_6 1_555 1_555
C50_6 C49_6 1_555 1_555
H29_6 C50_6 1_555 1_555
C51_6 C50_6 1_555 1_555
H30_6 C51_6 1_555 1_555
C52_6 C51_6 1_555 1_555
C53_6 C52_6 1_555 1_555
H31_6 C53_6 1_555 1_555
C54_6 C49_6 1_555 1_555
H32_6 C54_6 1_555 1_555
O11_4 C42_6 1_555 1_555
O12_4 C42_6 1_555 1_555
C55_6 C56_6 1_555 1_555
C56_6 H33_6 1_555 1_555
C57_6 C56_6 1_555 1_555
H34_6 C57_6 1_555 1_555
C58_6 C57_6 1_555 1_555
C59_6 C58_6 1_555 1_555
H35_6 C59_6 1_555 1_555
C60_6 C55_6 1_555 1_555
H36_6 C60_6 1_555 1_555
C61_6 C55_6 1_555 1_555
C62_6 N2_6 1_555 1_555
C63_6 C62_6 1_555 1_555
H37_6 C63_6 1_555 1_555
C64_6 C63_6 1_555 1_555
H38_6 C64_6 1_555 1_555
C65_6 C58_6 1_555 1_555
C66_6 C65_6 1_555 1_555
H39_6 C66_6 1_555 1_555
C67_6 C62_6 1_555 1_555
H40_6 C67_6 1_555 1_555
O13_6 C61_6 1_555 1_555
O14_6 C61_6 1_555 1_555
C68_6 C69_6 1_555 1_555
C69_6 H41_6 1_555 1_555
C70_6 C69_6 1_555 1_555
H42_6 C70_6 1_555 1_555
C71_6 C70_6 1_555 1_555
C72_6 C71_6 1_555 1_555
H43_6 C72_6 1_555 1_555
C73_6 C68_6 1_555 1_555
H44_6 C73_6 1_555 1_555
C74_6 C68_6 1_555 1_555
C75_6 N2_6 1_555 1_555
C76_6 C75_6 1_555 1_555
H45_6 C76_6 1_555 1_555
C77_6 C76_6 1_555 1_555
H46_6 C77_6 1_555 1_555
C78_6 C71_6 1_555 1_555
C79_6 C78_6 1_555 1_555
H47_6 C79_6 1_555 1_555
C80_6 C75_6 1_555 1_555
H48_6 C80_6 1_555 1_555
O15_6 C74_6 1_555 1_555
O16_6 C74_6 1_555 1_555
In7 O13_6 1_555 1_555
O17_6 In7 1_555 1_555
In8_3 O15_6 1_555 1_555
C83_6 C84_6 1_555 1_555
C84_6 O23_6 1_555 1_555
O21_6 In8_3 1_555 1_555
O31 C83_6 1_555 1_555
O23_6 In8_3 1_555 1_555
O34 C84_6 1_555 1_555
In8 O11_4 1_555 1_555
O26_4 In8_3 1_555 1_555
O28_4 In8_3 1_555 1_555
C1_6 O2_6 1_555 1_555
C6_6 C7_6 1_555 1_555
C12_6 C13_6 1_555 1_555
C18_6 C19_6 1_555 1_555
C20_6 O3_6 1_555 1_555
C20_6 O4_6 1_555 1_555
C23_6 C24_6 1_555 1_555
C25_6 C26_6 1_555 1_555
C27_6 O5_6 1_555 1_555
C34_6 C35_6 1_555 1_555
C40_6 C41_6 1_555 1_555
C47_6 C48_6 1_555 1_555
C53_6 C54_6 1_555 1_555
O12_4 In8 1_555 1_555
C59_6 C60_6 1_555 1_555
C64_6 C65_6 1_555 1_555
C66_6 C67_6 1_555 1_555
O14_6 In7 1_555 1_555
C72_6 C73_6 1_555 1_555
C77_6 C78_6 1_555 1_555
C79_6 C80_6 1_555 1_555
O16_6 In8_3 1_555 1_555
C83_6 O21_6 1_555 1_555
C81_6 C82_6 1_555 1_555
C82_6 O19_6 1_555 1_555
O30_4 C81_6 1_555 1_555
O33_4 C82_6 1_555 1_555
C83_7 C84_7 1_555 1_555
C84_7 O23_7 1_555 1_555
O31_4 C83_7 1_555 1_555
O34_4 C84_7 1_555 1_555
C1_7 C17_7 1_555 1_555
C2_7 C3_7 1_555 1_555
C3_7 H1_7 1_555 1_555
C4_7 C3_7 1_555 1_555
H2_7 C4_7 1_555 1_555
C5_7 C4_7 1_555 1_555
C6_7 C5_7 1_555 1_555
H3_7 C6_7 1_555 1_555
C7_7 C2_7 1_555 1_555
H4_7 C7_7 1_555 1_555
C14_7 C5_7 1_555 1_555
C15_7 C14_7 1_555 1_555
H9_7 C15_7 1_555 1_555
C16_7 C15_7 1_555 1_555
H10_7 C16_7 1_555 1_555
C17_7 C16_7 1_555 1_555
C18_7 C17_7 1_555 1_555
H11_7 C18_7 1_555 1_555
C19_7 C14_7 1_555 1_555
H12_7 C19_7 1_555 1_555
C27_7 C28_7 1_555 1_555
C28_7 O7_7 1_555 1_555
N1_7 C2_7 1_555 1_555
O29_2 C27_7 1_555 1_555
O32_2 C28_7 1_555 1_555
C29_7 C39_7 1_555 1_555
C30_7 N1_7 1_555 1_555
C31_7 C30_7 1_555 1_555
H17_7 C31_7 1_555 1_555
C32_7 C31_7 1_555 1_555
H18_7 C32_7 1_555 1_555
C33_7 C32_7 1_555 1_555
C34_7 C33_7 1_555 1_555
H19_7 C34_7 1_555 1_555
C35_7 C30_7 1_555 1_555
H20_7 C35_7 1_555 1_555
C36_7 C33_7 1_555 1_555
C37_7 C36_7 1_555 1_555
H21_7 C37_7 1_555 1_555
C38_7 C37_7 1_555 1_555
H22_7 C38_7 1_555 1_555
C39_7 C38_7 1_555 1_555
C40_7 C39_7 1_555 1_555
H23_7 C40_7 1_555 1_555
C41_7 C36_7 1_555 1_555
H24_7 C41_7 1_555 1_555
O9_4 C29_7 1_555 1_555
O10_4 C29_7 1_555 1_555
C42_7 C52_7 1_555 1_555
C43_7 N1_7 1_555 1_555
C44_7 C43_7 1_555 1_555
H25_7 C44_7 1_555 1_555
C45_7 C44_7 1_555 1_555
H26_7 C45_7 1_555 1_555
C46_7 C45_7 1_555 1_555
C47_7 C46_7 1_555 1_555
H27_7 C47_7 1_555 1_555
C48_7 C43_7 1_555 1_555
H28_7 C48_7 1_555 1_555
C49_7 C46_7 1_555 1_555
C50_7 C49_7 1_555 1_555
H29_7 C50_7 1_555 1_555
C51_7 C50_7 1_555 1_555
H30_7 C51_7 1_555 1_555
C52_7 C51_7 1_555 1_555
C53_7 C52_7 1_555 1_555
H31_7 C53_7 1_555 1_555
C54_7 C49_7 1_555 1_555
H32_7 C54_7 1_555 1_555
O28_3 C42_7 1_555 1_555
In7_3 O9_4 1_555 1_555
C1_7 O2_7 1_555 1_555
C6_7 C7_7 1_555 1_555
C18_7 C19_7 1_555 1_555
C34_7 C35_7 1_555 1_555
C40_7 C41_7 1_555 1_555
O10_4 In7_3 1_555 1_555
C47_7 C48_7 1_555 1_555
C53_7 C54_7 1_555 1_555
C81_7 C82_7 1_555 1_555
C82_7 O19_7 1_555 1_555
O30 C81_7 1_555 1_555
O33 C82_7 1_555 1_555
In6 O1_7 1_555 1_555
C8_7 C9_7 1_555 1_555
C9_7 H5_7 1_555 1_555
C10_7 C9_7 1_555 1_555
H6_7 C10_7 1_555 1_555
C11_7 C10_7 1_555 1_555
C12_7 C11_7 1_555 1_555
H7_7 C12_7 1_555 1_555
C13_7 C8_7 1_555 1_555
H8_7 C13_7 1_555 1_555
C20_7 C8_7 1_555 1_555
C21_7 C22_7 1_555 1_555
C22_7 H13_7 1_555 1_555
C23_7 C22_7 1_555 1_555
H14_7 C23_7 1_555 1_555
C24_7 C11_7 1_555 1_555
C25_7 C24_7 1_555 1_555
H15_7 C25_7 1_555 1_555
C26_7 C21_7 1_555 1_555
H16_7 C26_7 1_555 1_555
N2_7 C21_7 1_555 1_555
O3_7 In6 1_555 1_555
O4_7 In6 1_555 1_555
O5_7 In6 1_555 1_555
C55_7 C56_7 1_555 1_555
C56_7 H33_7 1_555 1_555
C57_7 C56_7 1_555 1_555
H34_7 C57_7 1_555 1_555
C58_7 C57_7 1_555 1_555
C59_7 C58_7 1_555 1_555
H35_7 C59_7 1_555 1_555
C60_7 C55_7 1_555 1_555
H36_7 C60_7 1_555 1_555
C61_7 C55_7 1_555 1_555
C62_7 N2_7 1_555 1_555
C63_7 C62_7 1_555 1_555
H37_7 C63_7 1_555 1_555
C64_7 C63_7 1_555 1_555
H38_7 C64_7 1_555 1_555
C65_7 C58_7 1_555 1_555
C66_7 C65_7 1_555 1_555
H39_7 C66_7 1_555 1_555
C67_7 C62_7 1_555 1_555
H40_7 C67_7 1_555 1_555
O13_7 C61_7 1_555 1_555
O14_7 C61_7 1_555 1_555
C68_7 C69_7 1_555 1_555
C69_7 H41_7 1_555 1_555
C70_7 C69_7 1_555 1_555
H42_7 C70_7 1_555 1_555
C71_7 C70_7 1_555 1_555
C72_7 C71_7 1_555 1_555
H43_7 C72_7 1_555 1_555
C73_7 C68_7 1_555 1_555
H44_7 C73_7 1_555 1_555
C74_7 C68_7 1_555 1_555
C75_7 N2_7 1_555 1_555
C76_7 C75_7 1_555 1_555
H45_7 C76_7 1_555 1_555
C77_7 C76_7 1_555 1_555
H46_7 C77_7 1_555 1_555
C78_7 C71_7 1_555 1_555
C79_7 C78_7 1_555 1_555
H47_7 C79_7 1_555 1_555
C80_7 C75_7 1_555 1_555
H48_7 C80_7 1_555 1_555
O15_7 C74_7 1_555 1_555
O16_7 C74_7 1_555 1_555
In7_4 O13_7 1_555 1_555
O17_7 In7_4 1_555 1_555
In8_2 O15_7 1_555 1_555
O21_7 In8_2 1_555 1_555
O25_4 In7_4 1_555 1_555
C12_7 C13_7 1_555 1_555
C20_7 O3_7 1_555 1_555
C20_7 O4_7 1_555 1_555
C23_7 C24_7 1_555 1_555
C25_7 C26_7 1_555 1_555
C59_7 C60_7 1_555 1_555
C64_7 C65_7 1_555 1_555
C66_7 C67_7 1_555 1_555
O14_7 In7_4 1_555 1_555
C72_7 C73_7 1_555 1_555
C77_7 C78_7 1_555 1_555
C79_7 C80_7 1_555 1_555
O16_7 In8_2 1_555 1_555
In6_2 O1_8 1_555 1_555
C8_8 C9_8 1_555 1_555
C9_8 H5_8 1_555 1_555
C10_8 C9_8 1_555 1_555
H6_8 C10_8 1_555 1_555
C11_8 C10_8 1_555 1_555
C12_8 C11_8 1_555 1_555
H7_8 C12_8 1_555 1_555
C13_8 C8_8 1_555 1_555
H8_8 C13_8 1_555 1_555
C20_8 C8_8 1_555 1_555
C21_8 C22_8 1_555 1_555
C22_8 H13_8 1_555 1_555
C23_8 C22_8 1_555 1_555
H14_8 C23_8 1_555 1_555
C24_8 C11_8 1_555 1_555
C25_8 C24_8 1_555 1_555
H15_8 C25_8 1_555 1_555
C26_8 C21_8 1_555 1_555
H16_8 C26_8 1_555 1_555
N2_8 C21_8 1_555 1_555
O3_8 In6_2 1_555 1_555
O4_8 In6_2 1_555 1_555
O5_8 In6_2 1_555 1_555
C55_8 C56_8 1_555 1_555
C56_8 H33_8 1_555 1_555
C57_8 C56_8 1_555 1_555
H34_8 C57_8 1_555 1_555
C58_8 C57_8 1_555 1_555
C59_8 C58_8 1_555 1_555
H35_8 C59_8 1_555 1_555
C60_8 C55_8 1_555 1_555
H36_8 C60_8 1_555 1_555
C61_8 C55_8 1_555 1_555
C62_8 N2_8 1_555 1_555
C63_8 C62_8 1_555 1_555
H37_8 C63_8 1_555 1_555
C64_8 C63_8 1_555 1_555
H38_8 C64_8 1_555 1_555
C65_8 C58_8 1_555 1_555
C66_8 C65_8 1_555 1_555
H39_8 C66_8 1_555 1_555
C67_8 C62_8 1_555 1_555
H40_8 C67_8 1_555 1_555
O13_8 C61_8 1_555 1_555
O14_8 C61_8 1_555 1_555
C68_8 C69_8 1_555 1_555
C69_8 H41_8 1_555 1_555
C70_8 C69_8 1_555 1_555
H42_8 C70_8 1_555 1_555
C71_8 C70_8 1_555 1_555
C72_8 C71_8 1_555 1_555
H43_8 C72_8 1_555 1_555
C73_8 C68_8 1_555 1_555
H44_8 C73_8 1_555 1_555
C74_8 C68_8 1_555 1_555
C75_8 N2_8 1_555 1_555
C76_8 C75_8 1_555 1_555
H45_8 C76_8 1_555 1_555
C77_8 C76_8 1_555 1_555
H46_8 C77_8 1_555 1_555
C78_8 C71_8 1_555 1_555
C79_8 C78_8 1_555 1_555
H47_8 C79_8 1_555 1_555
C80_8 C75_8 1_555 1_555
H48_8 C80_8 1_555 1_555
O15_8 C74_8 1_555 1_555
O16_8 C74_8 1_555 1_555
In7_3 O13_8 1_555 1_555
C81_8 C82_8 1_555 1_555
C82_8 O19_8 1_555 1_555
O17_8 In7_3 1_555 1_555
O30_2 C81_8 1_555 1_555
O19_8 In7_3 1_555 1_555
O33_2 C82_8 1_555 1_555
In8 O15_8 1_555 1_555
C83_8 C84_8 1_555 1_555
C84_8 O23_8 1_555 1_555
O21_8 In8 1_555 1_555
O31_3 C83_8 1_555 1_555
O23_8 In8 1_555 1_555
O34_3 C84_8 1_555 1_555
C12_8 C13_8 1_555 1_555
C20_8 O3_8 1_555 1_555
C20_8 O4_8 1_555 1_555
C23_8 C24_8 1_555 1_555
C25_8 C26_8 1_555 1_555
C59_8 C60_8 1_555 1_555
C64_8 C65_8 1_555 1_555
C66_8 C67_8 1_555 1_555
O14_8 In7_3 1_555 1_555
C72_8 C73_8 1_555 1_555
C77_8 C78_8 1_555 1_555
C79_8 C80_8 1_555 1_555
O16_8 In8 1_555 1_555
C81_8 O17_8 1_555 1_555
C83_8 O21_8 1_555 1_555
C1_8 C17_8 1_555 1_555
C2_8 C3_8 1_555 1_555
C3_8 H1_8 1_555 1_555
C4_8 C3_8 1_555 1_555
H2_8 C4_8 1_555 1_555
C5_8 C4_8 1_555 1_555
C6_8 C5_8 1_555 1_555
H3_8 C6_8 1_555 1_555
C7_8 C2_8 1_555 1_555
H4_8 C7_8 1_555 1_555
C14_8 C5_8 1_555 1_555
C15_8 C14_8 1_555 1_555
H9_8 C15_8 1_555 1_555
C16_8 C15_8 1_555 1_555
H10_8 C16_8 1_555 1_555
C17_8 C16_8 1_555 1_555
C18_8 C17_8 1_555 1_555
H11_8 C18_8 1_555 1_555
C19_8 C14_8 1_555 1_555
H12_8 C19_8 1_555 1_555
C27_8 C28_8 1_555 1_555
C28_8 O7_8 1_555 1_555
N1_8 C2_8 1_555 1_555
O29 C27_8 1_555 1_555
O32 C28_8 1_555 1_555
C29_8 C39_8 1_555 1_555
C30_8 N1_8 1_555 1_555
C31_8 C30_8 1_555 1_555
H17_8 C31_8 1_555 1_555
C32_8 C31_8 1_555 1_555
H18_8 C32_8 1_555 1_555
C33_8 C32_8 1_555 1_555
C34_8 C33_8 1_555 1_555
H19_8 C34_8 1_555 1_555
C35_8 C30_8 1_555 1_555
H20_8 C35_8 1_555 1_555
C36_8 C33_8 1_555 1_555
C37_8 C36_8 1_555 1_555
H21_8 C37_8 1_555 1_555
C38_8 C37_8 1_555 1_555
H22_8 C38_8 1_555 1_555
C39_8 C38_8 1_555 1_555
C40_8 C39_8 1_555 1_555
H23_8 C40_8 1_555 1_555
C41_8 C36_8 1_555 1_555
H24_8 C41_8 1_555 1_555
O27_4 C29_8 1_555 1_555
C42_8 C52_8 1_555 1_555
C43_8 N1_8 1_555 1_555
C44_8 C43_8 1_555 1_555
H25_8 C44_8 1_555 1_555
C45_8 C44_8 1_555 1_555
H26_8 C45_8 1_555 1_555
C46_8 C45_8 1_555 1_555
C47_8 C46_8 1_555 1_555
H27_8 C47_8 1_555 1_555
C48_8 C43_8 1_555 1_555
H28_8 C48_8 1_555 1_555
C49_8 C46_8 1_555 1_555
C50_8 C49_8 1_555 1_555
H29_8 C50_8 1_555 1_555
C51_8 C50_8 1_555 1_555
H30_8 C51_8 1_555 1_555
C52_8 C51_8 1_555 1_555
C53_8 C52_8 1_555 1_555
H31_8 C53_8 1_555 1_555
C54_8 C49_8 1_555 1_555
H32_8 C54_8 1_555 1_555
O26_4 C42_8 1_555 1_555
O28_4 C42_8 1_555 1_555
C1_8 O2_8 1_555 1_555
C6_8 C7_8 1_555 1_555
C18_8 C19_8 1_555 1_555
C34_8 C35_8 1_555 1_555
C40_8 C41_8 1_555 1_555
C47_8 C48_8 1_555 1_555
C53_8 C54_8 1_555 1_555

#END
