
###############################################################################
#
# This file contains modified crystal structure data generated from the
# MOF subset of the Cambridge Structural Database (CSD) v543 
# hosted by the Cambridge Crystallographic Data Centre (CCDC).
#
# This work is licensed under the Creative Commons
# Attribution-NonCommercial-ShareAlike 4.0 International License.
# To view a copy of this license, visit
# http://creativecommons.org/licenses/by-nc-sa/4.0/
# or send a letter to
# Creative Commons, PO Box 1866, Mountain View, CA 94042, USA.
#
# CIF created using the CSD Python API on 29 September 2022
# The structure has been converted into the P1 space group
# The structure has a 3D framework
# The original CSD entry EHOJIW is in the orthorhombic crystal system
# The framework has been calculated to contain at least 10.0% void space
# The void calculation uses a probe of radius 1.32A, grid spacing 0.4
#
###############################################################################

data_EHOJIW
_chemical_formula_moiety         '(C192 H152 Cd8 N24 O24)n'
_symmetry_cell_setting           triclinic
_symmetry_space_group_name_H-M   'P 1'
_symmetry_Int_Tables_number      1
_space_group_name_Hall           'P 1'
loop_
_symmetry_equiv_pos_site_id
_symmetry_equiv_pos_as_xyz
1 x,y,z
_cell_length_a                   14.094(5)
_cell_length_b                   17.248(5)
_cell_length_c                   22.357(5)
_cell_angle_alpha                90
_cell_angle_beta                 90
_cell_angle_gamma                90
_cell_volume                     5434.84
loop_
_atom_site_label
_atom_site_type_symbol
_atom_site_fract_x
_atom_site_fract_y
_atom_site_fract_z
N1 N 0.0124(3) 0.8151(2) 0.12406(18)
C21 C 0.0078(4) 0.8715(4) 0.1645(3)
H17 H 0.0584 0.8776 0.1908
Cd6 Cd 0.14049(2) 0.73066(2) 0.11508(2)
N1_2 N 0.4876(3) 0.6849(2) 0.62406(18)
C3 C 0.5598(3) 0.6903(3) 0.5856(2)
H3 H 0.5571 0.7284 0.5563
C5 C 0.9289(3) 0.4554(3) 0.5554(2)
H4 H 0.9116 0.4751 0.5182
C7 C 0.7278(3) 0.5349(3) 0.6373(3)
H6 H 0.7286 0.5013 0.6697
C8 C 0.9141(4) 0.4507(3) 0.6606(2)
H7 H 0.8860 0.4662 0.6963
C10 C 0.6375(3) 0.6429(3) 0.5869(2)
H9 H 0.6850 0.6485 0.5584
C12 C 0.8006(3) 0.5330(3) 0.6006(2)
H11 H 0.8007 0.5676 0.5687
C13 C 0.9883(3) 0.3981(3) 0.6607(2)
C18 C 0.5682(4) 0.5787(4) 0.6693(3)
H15 H 0.5679 0.5399 0.6983
C19 C 0.6454(3) 0.5863(3) 0.6308(2)
C21_2 C 0.4922(4) 0.6285(4) 0.6645(3)
H17_2 H 0.4416 0.6224 0.6908
C23 C 0.8822(3) 0.4799(3) 0.6063(2)
Cd6_2 Cd 0.35951(2) 0.76934(2) 0.61508(2)
C25 C 0.3572(3) 0.6837(3) 0.0908(3)
H20 H 0.3660 0.7342 0.1043
N4 N 0.2705(3) 0.6538(2) 0.09263(18)
C26 C 0.4351(3) 0.6432(3) 0.0697(3)
H21 H 0.4949 0.6661 0.0704
C27 C 0.3338(3) 0.5360(3) 0.0521(2)
H22 H 0.3232 0.4851 0.0400
C28 C 0.4245(3) 0.5689(3) 0.0475(2)
C29 C 0.2606(3) 0.5800(3) 0.0745(2)
H23 H 0.2009 0.5573 0.0773
C30 C 0.5035(3) 0.5286(3) 0.0188(2)
H24 H 0.5644 0.5453 0.0284
O5 O 0.2189(2) 0.7974(2) 0.19145(15)
O6 O 0.3799(2) 0.7669(2) 0.50222(15)
O7 O 0.1706(2) 0.6815(2) 0.21944(16)
O8 O 0.2927(2) 0.6777(2) 0.54632(15)
C31 C 0.0013(3) 0.5985(3) 0.0596(2)
H25 H 0.0301 0.6153 0.0246
N6 N 0.0315(3) 0.6273(2) 0.11113(18)
C33 C 0.3230(3) 0.7107(3) 0.4999(2)
C35 C 0.2562(3) 0.7079(3) 0.3335(2)
H28 H 0.2248 0.6609 0.3285
C38 C 0.2601(4) 0.7556(3) 0.2882(2)
H31 H 0.2955 0.8007 0.2932
H34 H 0.0092 0.6208 0.1974
C42 C 0.2132(3) 0.7439(3) 0.2300(2)
C43 C 0.2870(3) 0.6836(3) 0.4409(2)
H35 H 0.2555 0.6363 0.4389
C46 C 0.2981(3) 0.7245(3) 0.3909(2)
H37 H 0.3367 0.7681 0.3933
O10 O 0.1201(2) 0.7331(2) 0.00222(15)
O12 O 0.2073(2) 0.8223(2) 0.04632(15)
C25_2 C 0.1428(3) 0.8163(3) 0.5908(3)
H20_2 H 0.1340 0.7658 0.6043
N4_2 N 0.2295(3) 0.8462(2) 0.59263(18)
C26_2 C 0.0649(3) 0.8568(3) 0.5697(3)
H21_2 H 0.0051 0.8339 0.5704
C27_2 C 0.1662(3) 0.9640(3) 0.5521(2)
C28_2 C 0.0755(3) 0.9311(3) 0.5475(2)
C29_2 C 0.2394(3) 0.9200(3) 0.5745(2)
H23_2 H 0.2991 0.9427 0.5773
O5_2 O 0.2811(2) 0.7026(2) 0.69145(15)
O7_2 O 0.3294(2) 0.8185(2) 0.71944(16)
C31_2 C 0.4987(3) 0.9015(3) 0.5596(2)
H25_2 H 0.4699 0.8847 0.5246
N6_2 N 0.4685(3) 0.8727(2) 0.61113(18)
C33_2 C 0.1770(3) 0.7893(3) 0.9999(2)
C34 C 0.5711(3) 0.9554(3) 0.5554(2)
H27 H 0.5884 0.9751 0.5182
C35_2 C 0.2438(3) 0.7921(3) 0.8335(2)
H28_2 H 0.2752 0.8391 0.8285
C37 C 0.5859(4) 0.9507(3) 0.6606(2)
H30 H 0.6140 0.9662 0.6963
C38_2 C 0.2399(4) 0.7444(3) 0.7882(2)
H31_2 H 0.2045 0.6993 0.7932
C41 C 0.5117(3) 0.8981(3) 0.6607(2)
H34_2 H 0.4908 0.8792 0.6974
C42_2 C 0.2868(3) 0.7561(3) 0.7300(2)
C43_2 C 0.2130(3) 0.8164(3) 0.9409(2)
H35_2 H 0.2445 0.8637 0.9389
C46_2 C 0.2019(3) 0.7755(3) 0.8909(2)
H37_2 H 0.1633 0.7319 0.8933
C48 C 0.6178(3) 0.9799(3) 0.6063(2)
Cd1 Cd 0.35951(2) 0.23066(2) 0.11508(2)
O1 O 0.2811(2) 0.2974(2) 0.19145(15)
C1 C 0.1428(3) 0.1837(3) 0.0908(3)
H1 H 0.1340 0.2342 0.1043
O2 O 0.1201(2) 0.2669(2) 0.50222(15)
O3 O 0.3294(2) 0.1815(2) 0.21944(16)
O4 O 0.2073(2) 0.1777(2) 0.54632(15)
C2 C 0.4987(3) 0.0985(3) 0.0596(2)
H2 H 0.4699 0.1153 0.0246
N2 N 0.2295(3) 0.1538(2) 0.09263(18)
N3 N 0.4685(3) 0.1273(2) 0.11113(18)
C4 C 0.1770(3) 0.2107(3) 0.4999(2)
C5_2 C 0.5711(3) 0.0446(3) 0.0554(2)
H4_2 H 0.5884 0.0249 0.0182
C6 C 0.2438(3) 0.2079(3) 0.3335(2)
H5 H 0.2752 0.1609 0.3285
C8_2 C 0.5859(4) 0.0493(3) 0.1606(2)
H7_2 H 0.6140 0.0338 0.1963
C9 C 0.2399(4) 0.2556(3) 0.2882(2)
H8 H 0.2045 0.3007 0.2932
C11 C 0.0649(3) 0.1432(3) 0.0697(3)
H10 H 0.0051 0.1661 0.0704
C13_2 C 0.5117(3) 0.1019(3) 0.1607(2)
H12 H 0.4908 0.1208 0.1974
C14 C 0.1662(3) 0.0360(3) 0.0521(2)
C15 C 0.0755(3) 0.0689(3) 0.0475(2)
C16 C 0.2868(3) 0.2439(3) 0.2300(2)
C17 C 0.2130(3) 0.1836(3) 0.4409(2)
H14 H 0.2445 0.1363 0.4389
C20 C 0.2019(3) 0.2245(3) 0.3909(2)
H16 H 0.1633 0.2681 0.3933
C22 C 0.2394(3) 0.0800(3) 0.0745(2)
H18 H 0.2991 0.0573 0.0773
C23_2 C 0.6178(3) 0.0201(3) 0.1063(2)
Cd3 Cd 0.14049(2) 0.26934(2) 0.61508(2)
O9 O 0.3799(2) 0.2331(2) 0.00222(15)
O11 O 0.2927(2) 0.3223(2) 0.04632(15)
N8 N 0.4876(3) 0.3151(2) 0.12406(18)
C25_3 C 0.8572(3) 0.8163(3) 0.9092(3)
H20_3 H 0.8660 0.7658 0.8957
N4_3 N 0.7705(3) 0.8462(2) 0.90737(18)
C26_3 C 0.9351(3) 0.8568(3) 0.9303(3)
H21_3 H 0.9949 0.8339 0.9296
C27_3 C 0.8338(3) 0.9640(3) 0.9479(2)
C28_3 C 0.9245(3) 0.9311(3) 0.9525(2)
C29_3 C 0.7606(3) 0.9200(3) 0.9255(2)
H23_3 H 0.7009 0.9427 0.9227
Cd2 Cd 0.64049(2) 0.76934(2) 0.88492(2)
O5_3 O 0.7189(2) 0.7026(2) 0.80855(15)
O6_2 O 0.8799(2) 0.7331(2) 0.49778(15)
O7_3 O 0.6706(2) 0.8185(2) 0.78056(16)
O8_2 O 0.7927(2) 0.8223(2) 0.45368(15)
C31_3 C 0.5013(3) 0.9015(3) 0.9404(2)
H25_3 H 0.5301 0.8847 0.9754
N6_3 N 0.5315(3) 0.8727(2) 0.88887(18)
C33_3 C 0.8230(3) 0.7893(3) 0.5001(2)
C34_2 C 0.4289(3) 0.9554(3) 0.9446(2)
H27_2 H 0.4116 0.9751 0.9818
C35_3 C 0.7562(3) 0.7921(3) 0.6665(2)
H28_3 H 0.7248 0.8391 0.6715
C37_2 C 0.4141(4) 0.9507(3) 0.8394(2)
H30_2 H 0.3860 0.9662 0.8037
C38_3 C 0.7601(4) 0.7444(3) 0.7118(2)
H31_3 H 0.7955 0.6993 0.7068
C41_2 C 0.4883(3) 0.8981(3) 0.8393(2)
H34_3 H 0.5092 0.8792 0.8026
C42_3 C 0.7132(3) 0.7561(3) 0.7700(2)
C43_3 C 0.7870(3) 0.8164(3) 0.5591(2)
H35_3 H 0.7555 0.8637 0.5611
C46_3 C 0.7981(3) 0.7755(3) 0.6091(2)
H37_3 H 0.8367 0.7319 0.6067
C48_2 C 0.3822(3) 0.9799(3) 0.8937(2)
Cd5 Cd 0.85951(2) 0.73066(2) 0.38492(2)
O10_2 O 0.6201(2) 0.7669(2) 0.99778(15)
O12_2 O 0.7073(2) 0.6777(2) 0.95368(15)
N7 N 0.5124(3) 0.6849(2) 0.87594(18)
O1_2 O 0.2189(2) 0.2026(2) 0.69145(15)
C1_2 C 0.3572(3) 0.3163(3) 0.5908(3)
H1_2 H 0.3660 0.2658 0.6043
O3_2 O 0.1706(2) 0.3185(2) 0.71944(16)
C2_2 C 0.0013(3) 0.4015(3) 0.5596(2)
H2_2 H 0.0301 0.3847 0.5246
N2_2 N 0.2705(3) 0.3462(2) 0.59263(18)
N3_2 N 0.0315(3) 0.3727(2) 0.61113(18)
C4_2 C 0.3230(3) 0.2893(3) 0.9999(2)
C6_2 C 0.2562(3) 0.2921(3) 0.8335(2)
H5_2 H 0.2248 0.3391 0.8285
C9_2 C 0.2601(4) 0.2444(3) 0.7882(2)
H8_2 H 0.2955 0.1993 0.7932
C11_2 C 0.4351(3) 0.3568(3) 0.5697(3)
H10_2 H 0.4949 0.3339 0.5704
H12_2 H 0.0092 0.3792 0.6974
C14_2 C 0.3338(3) 0.4640(3) 0.5521(2)
H13 H 0.3232 0.5149 0.5400
C15_2 C 0.4245(3) 0.4311(3) 0.5475(2)
C16_2 C 0.2132(3) 0.2561(3) 0.7300(2)
C17_2 C 0.2870(3) 0.3164(3) 0.9409(2)
H14_2 H 0.2555 0.3637 0.9389
C20_2 C 0.2981(3) 0.2755(3) 0.8909(2)
H16_2 H 0.3367 0.2319 0.8933
C22_2 C 0.2606(3) 0.4200(3) 0.5745(2)
H18_2 H 0.2009 0.4427 0.5773
C24 C 0.5035(3) 0.4714(3) 0.5188(2)
H19 H 0.5644 0.4547 0.5284
C25_4 C 0.6428(3) 0.6837(3) 0.4092(3)
H20_4 H 0.6340 0.7342 0.3957
N4_4 N 0.7295(3) 0.6538(2) 0.40737(18)
C26_4 C 0.5649(3) 0.6432(3) 0.4303(3)
H21_4 H 0.5051 0.6661 0.4296
C27_4 C 0.6662(3) 0.5360(3) 0.4479(2)
H22_2 H 0.6768 0.4851 0.4600
C28_4 C 0.5755(3) 0.5689(3) 0.4525(2)
C29_4 C 0.7394(3) 0.5800(3) 0.4255(2)
H23_4 H 0.7991 0.5573 0.4227
C30_2 C 0.4965(3) 0.5286(3) 0.4812(2)
H24_2 H 0.4356 0.5453 0.4716
O5_4 O 0.7811(2) 0.7974(2) 0.30855(15)
O7_4 O 0.8294(2) 0.6815(2) 0.28056(16)
C31_4 C 0.9987(3) 0.5985(3) 0.4404(2)
H25_4 H 0.9699 0.6153 0.4754
N6_4 N 0.9685(3) 0.6273(2) 0.38887(18)
C33_4 C 0.6770(3) 0.7107(3) 0.0001(2)
C35_4 C 0.7438(3) 0.7079(3) 0.1665(2)
H28_4 H 0.7752 0.6609 0.1715
C38_4 C 0.7399(4) 0.7556(3) 0.2118(2)
H31_4 H 0.7045 0.8007 0.2068
H34_4 H 0.9908 0.6208 0.3026
C42_4 C 0.7868(3) 0.7439(3) 0.2700(2)
C43_4 C 0.7130(3) 0.6836(3) 0.0591(2)
H35_4 H 0.7445 0.6363 0.0611
C46_4 C 0.7019(3) 0.7245(3) 0.1091(2)
H37_4 H 0.6633 0.7681 0.1067
N7_2 N 0.9876(3) 0.8151(2) 0.37594(18)
N8_2 N 0.0124(3) 0.1849(2) 0.62406(18)
C3_2 C 0.4402(3) 0.6903(3) 0.9144(2)
H3_2 H 0.4429 0.7284 0.9437
C5_3 C 0.0711(3) 0.4554(3) 0.9446(2)
H4_3 H 0.0884 0.4751 0.9818
C7_2 C 0.2722(3) 0.5349(3) 0.8627(3)
H6_2 H 0.2714 0.5013 0.8303
C8_3 C 0.0859(4) 0.4507(3) 0.8394(2)
H7_3 H 0.1140 0.4662 0.8037
C10_2 C 0.3625(3) 0.6429(3) 0.9131(2)
H9_2 H 0.3150 0.6485 0.9416
C12_2 C 0.1994(3) 0.5330(3) 0.8994(2)
H11_2 H 0.1993 0.5676 0.9313
C13_3 C 0.0117(3) 0.3981(3) 0.8393(2)
C18_2 C 0.4318(4) 0.5787(4) 0.8307(3)
H15_2 H 0.4321 0.5399 0.8017
C19_2 C 0.3546(3) 0.5863(3) 0.8692(2)
C21_3 C 0.5078(4) 0.6285(4) 0.8355(3)
H17_3 H 0.5584 0.6224 0.8092
C23_3 C 0.1178(3) 0.4799(3) 0.8937(2)
C32 C 0.5598(3) 0.3097(3) 0.0856(2)
H26 H 0.5571 0.2716 0.0563
C34_3 C 0.9289(3) 0.5446(3) 0.0554(2)
H27_3 H 0.9116 0.5249 0.0182
C36 C 0.7278(3) 0.4651(3) 0.1373(3)
H29 H 0.7286 0.4987 0.1697
C37_3 C 0.9141(4) 0.5493(3) 0.1606(2)
H30_3 H 0.8860 0.5338 0.1963
C39 C 0.6375(3) 0.3571(3) 0.0869(2)
H32 H 0.6850 0.3515 0.0584
C40 C 0.8006(3) 0.4670(3) 0.1006(2)
H33 H 0.8007 0.4324 0.0687
C41_3 C 0.9883(3) 0.6019(3) 0.1607(2)
C44 C 0.5682(4) 0.4213(4) 0.1693(3)
H36 H 0.5679 0.4601 0.1983
C45 C 0.6454(3) 0.4137(3) 0.1308(2)
C47 C 0.4922(4) 0.3715(4) 0.1645(3)
H38 H 0.4416 0.3776 0.1908
C48_3 C 0.8822(3) 0.5201(3) 0.1063(2)
C47_2 C 0.0078(4) 0.1285(4) 0.6645(3)
H38_2 H 0.0584 0.1224 0.6908
C21_4 C 0.9922(4) 0.8715(4) 0.3355(3)
H17_4 H 0.9416 0.8776 0.3092
C3_3 C 0.9402(3) 0.8097(3) 0.0856(2)
H3_3 H 0.9429 0.7716 0.0563
C7_3 C 0.7722(3) 0.9651(3) 0.1373(3)
H6_3 H 0.7714 0.9987 0.1697
C10_3 C 0.8625(3) 0.8571(3) 0.0869(2)
H9_3 H 0.8150 0.8515 0.0584
C12_3 C 0.6994(3) 0.9670(3) 0.1006(2)
H11_3 H 0.6993 0.9324 0.0687
H13_2 H 0.1768 0.9851 0.0400
C18_3 C 0.9318(4) 0.9213(4) 0.1693(3)
H15_3 H 0.9321 0.9601 0.1983
C19_3 C 0.8546(3) 0.9137(3) 0.1308(2)
C30_3 C 0.0035(3) 0.9714(3) 0.9812(2)
H24_3 H 0.0644 0.9547 0.9716
C24_2 C 0.9965(3) 0.0286(3) 0.0188(2)
H19_2 H 0.9356 0.0453 0.0284
H22_3 H 0.8232 0.0149 0.9600
C32_2 C 0.0598(3) 0.1903(3) 0.9144(2)
H26_2 H 0.0571 0.2284 0.9437
C36_2 C 0.2278(3) 0.0349(3) 0.8627(3)
H29_2 H 0.2286 0.0013 0.8303
C39_2 C 0.1375(3) 0.1429(3) 0.9131(2)
H32_2 H 0.1850 0.1485 0.9416
C40_2 C 0.3006(3) 0.0330(3) 0.8994(2)
H33_2 H 0.3007 0.0676 0.9313
C44_2 C 0.0682(4) 0.0787(4) 0.8307(3)
H36_2 H 0.0679 0.0399 0.8017
C45_2 C 0.1454(3) 0.0863(3) 0.8692(2)
N5 N 0.9876(3) 0.1849(2) 0.87594(18)
C47_3 C 0.9922(4) 0.1285(4) 0.8355(3)
H38_3 H 0.9416 0.1224 0.8092
Cd4 Cd 0.85951(2) 0.26934(2) 0.88492(2)
N5_2 N 0.5124(3) 0.3151(2) 0.37594(18)
C32_3 C 0.4402(3) 0.3097(3) 0.4144(2)
H26_3 H 0.4429 0.2716 0.4437
C34_4 C 0.0711(3) 0.5446(3) 0.4446(2)
H27_4 H 0.0884 0.5249 0.4818
C36_3 C 0.2722(3) 0.4651(3) 0.3627(3)
H29_3 H 0.2714 0.4987 0.3303
C37_4 C 0.0859(4) 0.5493(3) 0.3394(2)
H30_4 H 0.1140 0.5338 0.3037
C39_3 C 0.3625(3) 0.3571(3) 0.4131(2)
H32_3 H 0.3150 0.3515 0.4416
C40_3 C 0.1994(3) 0.4670(3) 0.3994(2)
H33_3 H 0.1993 0.4324 0.4313
C41_4 C 0.0117(3) 0.6019(3) 0.3393(2)
C44_3 C 0.4318(4) 0.4213(4) 0.3307(3)
H36_3 H 0.4321 0.4601 0.3017
C45_3 C 0.3546(3) 0.4137(3) 0.3692(2)
C47_4 C 0.5078(4) 0.3715(4) 0.3355(3)
H38_4 H 0.5584 0.3776 0.3092
C48_4 C 0.1178(3) 0.5201(3) 0.3937(2)
Cd4_2 Cd 0.64049(2) 0.23066(2) 0.38492(2)
O1_3 O 0.7811(2) 0.2026(2) 0.80855(15)
C1_3 C 0.6428(3) 0.3163(3) 0.9092(3)
H1_3 H 0.6340 0.2658 0.8957
O2_2 O 0.6201(2) 0.2331(2) 0.49778(15)
O3_3 O 0.8294(2) 0.3185(2) 0.78056(16)
O4_2 O 0.7073(2) 0.3223(2) 0.45368(15)
C2_3 C 0.9987(3) 0.4015(3) 0.9404(2)
H2_3 H 0.9699 0.3847 0.9754
N2_3 N 0.7295(3) 0.3462(2) 0.90737(18)
N3_3 N 0.9685(3) 0.3727(2) 0.88887(18)
C4_3 C 0.6770(3) 0.2893(3) 0.5001(2)
C6_3 C 0.7438(3) 0.2921(3) 0.6665(2)
H5_3 H 0.7752 0.3391 0.6715
C9_3 C 0.7399(4) 0.2444(3) 0.7118(2)
H8_3 H 0.7045 0.1993 0.7068
C11_3 C 0.5649(3) 0.3568(3) 0.9303(3)
H10_3 H 0.5051 0.3339 0.9296
H12_3 H 0.9908 0.3792 0.8026
C14_3 C 0.6662(3) 0.4640(3) 0.9479(2)
H13_3 H 0.6768 0.5149 0.9600
C15_3 C 0.5755(3) 0.4311(3) 0.9525(2)
C16_3 C 0.7868(3) 0.2561(3) 0.7700(2)
C17_3 C 0.7130(3) 0.3164(3) 0.5591(2)
H14_3 H 0.7445 0.3637 0.5611
C20_3 C 0.7019(3) 0.2755(3) 0.6091(2)
H16_3 H 0.6633 0.2319 0.6067
C22_3 C 0.7394(3) 0.4200(3) 0.9255(2)
H18_3 H 0.7991 0.4427 0.9227
C24_3 C 0.4965(3) 0.4714(3) 0.9812(2)
H19_3 H 0.4356 0.4547 0.9716
O9_2 O 0.8799(2) 0.2669(2) 0.99778(15)
O11_2 O 0.7927(2) 0.1777(2) 0.95368(15)
O1_4 O 0.7189(2) 0.2974(2) 0.30855(15)
C1_4 C 0.8572(3) 0.1837(3) 0.4092(3)
H1_4 H 0.8660 0.2342 0.3957
O3_4 O 0.6706(2) 0.1815(2) 0.28056(16)
C2_4 C 0.5013(3) 0.0985(3) 0.4404(2)
H2_4 H 0.5301 0.1153 0.4754
N2_4 N 0.7705(3) 0.1538(2) 0.40737(18)
N3_4 N 0.5315(3) 0.1273(2) 0.38887(18)
C4_4 C 0.8230(3) 0.2107(3) 0.0001(2)
C5_4 C 0.4289(3) 0.0446(3) 0.4446(2)
H4_4 H 0.4116 0.0249 0.4818
C6_4 C 0.7562(3) 0.2079(3) 0.1665(2)
H5_4 H 0.7248 0.1609 0.1715
C8_4 C 0.4141(4) 0.0493(3) 0.3394(2)
H7_4 H 0.3860 0.0338 0.3037
C9_4 C 0.7601(4) 0.2556(3) 0.2118(2)
H8_4 H 0.7955 0.3007 0.2068
C11_4 C 0.9351(3) 0.1432(3) 0.4303(3)
H10_4 H 0.9949 0.1661 0.4296
C13_4 C 0.4883(3) 0.1019(3) 0.3393(2)
H12_4 H 0.5092 0.1208 0.3026
C14_4 C 0.8338(3) 0.0360(3) 0.4479(2)
C15_4 C 0.9245(3) 0.0689(3) 0.4525(2)
C16_4 C 0.7132(3) 0.2439(3) 0.2700(2)
C17_4 C 0.7870(3) 0.1836(3) 0.0591(2)
H14_4 H 0.7555 0.1363 0.0611
C20_4 C 0.7981(3) 0.2245(3) 0.1091(2)
H16_4 H 0.8367 0.2681 0.1067
C22_4 C 0.7606(3) 0.0800(3) 0.4255(2)
H18_4 H 0.7009 0.0573 0.4227
C23_4 C 0.3822(3) 0.0201(3) 0.3937(2)
C24_4 C 0.0035(3) 0.0286(3) 0.4812(2)
H19_4 H 0.0644 0.0453 0.4716
H22_4 H 0.1768 0.0149 0.5400
C32_4 C 0.9402(3) 0.1903(3) 0.5856(2)
H26_4 H 0.9429 0.2284 0.5563
C36_4 C 0.7722(3) 0.0349(3) 0.6373(3)
H29_4 H 0.7714 0.0013 0.6697
C39_4 C 0.8625(3) 0.1429(3) 0.5869(2)
H32_4 H 0.8150 0.1485 0.5584
C40_4 C 0.6994(3) 0.0330(3) 0.6006(2)
H33_4 H 0.6993 0.0676 0.5687
C44_4 C 0.9318(4) 0.0787(4) 0.6693(3)
H36_4 H 0.9321 0.0399 0.6983
C45_4 C 0.8546(3) 0.0863(3) 0.6308(2)
C3_4 C 0.0598(3) 0.8097(3) 0.4144(2)
H3_4 H 0.0571 0.7716 0.4437
C7_4 C 0.2278(3) 0.9651(3) 0.3627(3)
H6_4 H 0.2286 0.9987 0.3303
C10_4 C 0.1375(3) 0.8571(3) 0.4131(2)
H9_4 H 0.1850 0.8515 0.4416
C12_4 C 0.3006(3) 0.9670(3) 0.3994(2)
H11_4 H 0.3007 0.9324 0.4313
H13_4 H 0.8232 0.9851 0.4600
C18_4 C 0.0682(4) 0.9213(4) 0.3307(3)
H15_4 H 0.0679 0.9601 0.3017
C19_4 C 0.1454(3) 0.9137(3) 0.3692(2)
C30_4 C 0.9965(3) 0.9714(3) 0.5188(2)
H24_4 H 0.9356 0.9547 0.5284
loop_
_geom_bond_atom_site_label_1
_geom_bond_atom_site_label_2
_geom_bond_site_symmetry_1
_geom_bond_site_symmetry_2
C21 N1 1_555 1_555
H17 C21 1_555 1_555
Cd6 N1 1_555 1_555
N1_2 C3 1_555 1_555
C3 H3 1_555 1_555
H4 C5 1_555 1_555
C7 H6 1_555 1_555
C8 H7 1_555 1_555
C10 C3 1_555 1_555
H9 C10 1_555 1_555
C12 C7 1_555 1_555
H11 C12 1_555 1_555
C18 H15 1_555 1_555
C19 C7 1_555 1_555
C21_2 N1_2 1_555 1_555
H17_2 C21_2 1_555 1_555
C23 C5 1_555 1_555
Cd6_2 N1_2 1_555 1_555
C8 C13 1_555 1_555
C8 C23 1_555 1_555
C10 C19 1_555 1_555
C12 C23 1_555 1_555
C18 C19 1_555 1_555
C18 C21_2 1_555 1_555
C25 H20 1_555 1_555
N4 C25 1_555 1_555
C26 C25 1_555 1_555
H21 C26 1_555 1_555
C27 H22 1_555 1_555
C28 C26 1_555 1_555
C29 N4 1_555 1_555
H23 C29 1_555 1_555
H24 C30 1_555 1_555
Cd6 N4 1_555 1_555
O5 Cd6 1_555 1_555
O6 C33 1_555 1_555
O7 Cd6 1_555 1_555
O8 C33 1_555 1_555
C31 H25 1_555 1_555
N6 Cd6 1_555 1_555
C33 C43 1_555 1_555
C35 H28 1_555 1_555
C38 C35 1_555 1_555
H31 C38 1_555 1_555
C42 O5 1_555 1_555
C43 H35 1_555 1_555
C46 C35 1_555 1_555
H37 C46 1_555 1_555
Cd6_2 O6 1_555 1_555
O10 Cd6 1_555 1_555
O12 Cd6 1_555 1_555
C27 C28 1_555 1_555
C27 C29 1_555 1_555
C28 C30 1_555 1_555
O7 C42 1_555 1_555
O8 Cd6_2 1_555 1_555
C31 N6 1_555 1_555
C38 C42 1_555 1_555
C43 C46 1_555 1_555
C25_2 H20_2 1_555 1_555
N4_2 C25_2 1_555 1_555
C26_2 C25_2 1_555 1_555
H21_2 C26_2 1_555 1_555
C28_2 C26_2 1_555 1_555
C29_2 N4_2 1_555 1_555
H23_2 C29_2 1_555 1_555
Cd6_2 N4_2 1_555 1_555
O5_2 Cd6_2 1_555 1_555
O7_2 Cd6_2 1_555 1_555
C31_2 H25_2 1_555 1_555
N6_2 Cd6_2 1_555 1_555
C33_2 C43_2 1_555 1_555
C34 C31_2 1_555 1_555
H27 C34 1_555 1_555
C35_2 H28_2 1_555 1_555
C37 H30 1_555 1_555
C38_2 C35_2 1_555 1_555
H31_2 C38_2 1_555 1_555
C41 N6_2 1_555 1_555
H34_2 C41 1_555 1_555
C42_2 O5_2 1_555 1_555
C43_2 H35_2 1_555 1_555
C46_2 C35_2 1_555 1_555
H37_2 C46_2 1_555 1_555
C48 C34 1_555 1_555
C27_2 C28_2 1_555 1_555
C27_2 C29_2 1_555 1_555
O7_2 C42_2 1_555 1_555
C31_2 N6_2 1_555 1_555
C37 C41 1_555 1_555
C37 C48 1_555 1_555
C38_2 C42_2 1_555 1_555
C43_2 C46_2 1_555 1_555
Cd1 O1 1_555 1_555
O1 C16 1_555 1_555
C1 H1 1_555 1_555
O2 C4 1_555 1_555
O3 Cd1 1_555 1_555
O4 C4 1_555 1_555
C2 H2 1_555 1_555
N2 Cd1 1_555 1_555
N3 Cd1 1_555 1_555
C4 C17 1_555 1_555
C5_2 C2 1_555 1_555
H4_2 C5_2 1_555 1_555
C6 H5 1_555 1_555
C8_2 H7_2 1_555 1_555
C9 C6 1_555 1_555
H8 C9 1_555 1_555
C11 C1 1_555 1_555
H10 C11 1_555 1_555
C13_2 N3 1_555 1_555
H12 C13_2 1_555 1_555
C15 C11 1_555 1_555
C16 O3 1_555 1_555
C17 H14 1_555 1_555
C20 C6 1_555 1_555
H16 C20 1_555 1_555
C22 N2 1_555 1_555
H18 C22 1_555 1_555
C23_2 C5_2 1_555 1_555
Cd3 O2 1_555 1_555
O9 Cd1 1_555 1_555
O11 Cd1 1_555 1_555
N8 Cd1 1_555 1_555
C1 N2 1_555 1_555
O4 Cd3 1_555 1_555
C2 N3 1_555 1_555
C8_2 C13_2 1_555 1_555
C8_2 C23_2 1_555 1_555
C9 C16 1_555 1_555
C14 C15 1_555 1_555
C14 C22 1_555 1_555
C17 C20 1_555 1_555
C25_3 H20_3 1_555 1_555
N4_3 C25_3 1_555 1_555
C26_3 C25_3 1_555 1_555
H21_3 C26_3 1_555 1_555
C28_3 C26_3 1_555 1_555
C29_3 N4_3 1_555 1_555
H23_3 C29_3 1_555 1_555
Cd2 N4_3 1_555 1_555
O5_3 Cd2 1_555 1_555
O6_2 C33_3 1_555 1_555
O7_3 Cd2 1_555 1_555
O8_2 C33_3 1_555 1_555
C31_3 H25_3 1_555 1_555
N6_3 Cd2 1_555 1_555
C33_3 C43_3 1_555 1_555
C34_2 C31_3 1_555 1_555
H27_2 C34_2 1_555 1_555
C35_3 H28_3 1_555 1_555
C37_2 H30_2 1_555 1_555
C38_3 C35_3 1_555 1_555
H31_3 C38_3 1_555 1_555
C41_2 N6_3 1_555 1_555
H34_3 C41_2 1_555 1_555
C42_3 O5_3 1_555 1_555
C43_3 H35_3 1_555 1_555
C46_3 C35_3 1_555 1_555
H37_3 C46_3 1_555 1_555
C48_2 C34_2 1_555 1_555
Cd5 O6_2 1_555 1_555
O10_2 Cd2 1_555 1_555
O12_2 Cd2 1_555 1_555
N7 Cd2 1_555 1_555
C27_3 C28_3 1_555 1_555
C27_3 C29_3 1_555 1_555
O7_3 C42_3 1_555 1_555
O8_2 Cd5 1_555 1_555
C31_3 N6_3 1_555 1_555
C37_2 C41_2 1_555 1_555
C37_2 C48_2 1_555 1_555
C38_3 C42_3 1_555 1_555
C43_3 C46_3 1_555 1_555
Cd3 O1_2 1_555 1_555
O1_2 C16_2 1_555 1_555
C1_2 H1_2 1_555 1_555
O3_2 Cd3 1_555 1_555
C2_2 H2_2 1_555 1_555
N2_2 Cd3 1_555 1_555
N3_2 Cd3 1_555 1_555
C4_2 C17_2 1_555 1_555
C6_2 H5_2 1_555 1_555
C9_2 C6_2 1_555 1_555
H8_2 C9_2 1_555 1_555
C11_2 C1_2 1_555 1_555
H10_2 C11_2 1_555 1_555
C14_2 H13 1_555 1_555
C15_2 C11_2 1_555 1_555
C16_2 O3_2 1_555 1_555
C17_2 H14_2 1_555 1_555
C20_2 C6_2 1_555 1_555
H16_2 C20_2 1_555 1_555
C22_2 N2_2 1_555 1_555
H18_2 C22_2 1_555 1_555
C24 C15_2 1_555 1_555
H19 C24 1_555 1_555
C25_4 H20_4 1_555 1_555
N4_4 C25_4 1_555 1_555
C26_4 C25_4 1_555 1_555
H21_4 C26_4 1_555 1_555
C27_4 H22_2 1_555 1_555
C28_4 C26_4 1_555 1_555
C29_4 N4_4 1_555 1_555
H23_4 C29_4 1_555 1_555
C30_2 C24 1_555 1_555
H24_2 C30_2 1_555 1_555
Cd5 N4_4 1_555 1_555
O5_4 Cd5 1_555 1_555
O7_4 Cd5 1_555 1_555
C31_4 H25_4 1_555 1_555
N6_4 Cd5 1_555 1_555
C33_4 C43_4 1_555 1_555
C35_4 H28_4 1_555 1_555
C38_4 C35_4 1_555 1_555
H31_4 C38_4 1_555 1_555
C42_4 O5_4 1_555 1_555
C43_4 H35_4 1_555 1_555
C46_4 C35_4 1_555 1_555
H37_4 C46_4 1_555 1_555
N7_2 Cd5 1_555 1_555
N8_2 Cd3 1_555 1_555
C1_2 N2_2 1_555 1_555
C2_2 N3_2 1_555 1_555
C9_2 C16_2 1_555 1_555
C14_2 C15_2 1_555 1_555
C14_2 C22_2 1_555 1_555
C17_2 C20_2 1_555 1_555
C27_4 C28_4 1_555 1_555
C27_4 C29_4 1_555 1_555
C28_4 C30_2 1_555 1_555
O7_4 C42_4 1_555 1_555
C31_4 N6_4 1_555 1_555
C38_4 C42_4 1_555 1_555
C43_4 C46_4 1_555 1_555
N7 C3_2 1_555 1_555
C3_2 H3_2 1_555 1_555
H4_3 C5_3 1_555 1_555
C7_2 H6_2 1_555 1_555
C8_3 H7_3 1_555 1_555
C10_2 C3_2 1_555 1_555
H9_2 C10_2 1_555 1_555
C12_2 C7_2 1_555 1_555
H11_2 C12_2 1_555 1_555
C18_2 H15_2 1_555 1_555
C19_2 C7_2 1_555 1_555
C21_3 N7 1_555 1_555
H17_3 C21_3 1_555 1_555
C23_3 C5_3 1_555 1_555
C8_3 C13_3 1_555 1_555
C8_3 C23_3 1_555 1_555
C10_2 C19_2 1_555 1_555
C12_2 C23_3 1_555 1_555
C18_2 C19_2 1_555 1_555
C18_2 C21_3 1_555 1_555
N8 C32 1_555 1_555
C32 H26 1_555 1_555
H27_3 C34_3 1_555 1_555
C36 H29 1_555 1_555
C37_3 H30_3 1_555 1_555
C39 C32 1_555 1_555
H32 C39 1_555 1_555
C40 C36 1_555 1_555
H33 C40 1_555 1_555
C44 H36 1_555 1_555
C45 C36 1_555 1_555
C47 N8 1_555 1_555
H38 C47 1_555 1_555
C48_3 C34_3 1_555 1_555
C37_3 C41_3 1_555 1_555
C37_3 C48_3 1_555 1_555
C39 C45 1_555 1_555
C40 C48_3 1_555 1_555
C44 C45 1_555 1_555
C44 C47 1_555 1_555
C47_2 N8_2 1_555 1_555
H38_2 C47_2 1_555 1_555
C21_4 N7_2 1_555 1_555
H17_4 C21_4 1_555 1_555
C3_3 H3_3 1_555 1_555
C7_3 H6_3 1_555 1_555
C10_3 C3_3 1_555 1_555
H9_3 C10_3 1_555 1_555
C12_3 C7_3 1_555 1_555
H11_3 C12_3 1_555 1_555
C18_3 H15_3 1_555 1_555
C19_3 C7_3 1_555 1_555
C10_3 C19_3 1_555 1_555
C18_3 C19_3 1_555 1_555
H24_3 C30_3 1_555 1_555
H19_2 C24_2 1_555 1_555
C32_2 H26_2 1_555 1_555
C36_2 H29_2 1_555 1_555
C39_2 C32_2 1_555 1_555
H32_2 C39_2 1_555 1_555
C40_2 C36_2 1_555 1_555
H33_2 C40_2 1_555 1_555
C44_2 H36_2 1_555 1_555
C45_2 C36_2 1_555 1_555
C39_2 C45_2 1_555 1_555
C44_2 C45_2 1_555 1_555
C47_3 N5 1_555 1_555
H38_3 C47_3 1_555 1_555
Cd4 N5 1_555 1_555
N5_2 C32_3 1_555 1_555
C32_3 H26_3 1_555 1_555
H27_4 C34_4 1_555 1_555
C36_3 H29_3 1_555 1_555
C37_4 H30_4 1_555 1_555
C39_3 C32_3 1_555 1_555
H32_3 C39_3 1_555 1_555
C40_3 C36_3 1_555 1_555
H33_3 C40_3 1_555 1_555
C44_3 H36_3 1_555 1_555
C45_3 C36_3 1_555 1_555
C47_4 N5_2 1_555 1_555
H38_4 C47_4 1_555 1_555
C48_4 C34_4 1_555 1_555
Cd4_2 N5_2 1_555 1_555
C37_4 C41_4 1_555 1_555
C37_4 C48_4 1_555 1_555
C39_3 C45_3 1_555 1_555
C40_3 C48_4 1_555 1_555
C44_3 C45_3 1_555 1_555
C44_3 C47_4 1_555 1_555
Cd4 O1_3 1_555 1_555
O1_3 C16_3 1_555 1_555
C1_3 H1_3 1_555 1_555
O2_2 C4_3 1_555 1_555
O3_3 Cd4 1_555 1_555
O4_2 C4_3 1_555 1_555
C2_3 H2_3 1_555 1_555
N2_3 Cd4 1_555 1_555
N3_3 Cd4 1_555 1_555
C4_3 C17_3 1_555 1_555
C6_3 H5_3 1_555 1_555
C9_3 C6_3 1_555 1_555
H8_3 C9_3 1_555 1_555
C11_3 C1_3 1_555 1_555
H10_3 C11_3 1_555 1_555
C14_3 H13_3 1_555 1_555
C15_3 C11_3 1_555 1_555
C16_3 O3_3 1_555 1_555
C17_3 H14_3 1_555 1_555
C20_3 C6_3 1_555 1_555
H16_3 C20_3 1_555 1_555
C22_3 N2_3 1_555 1_555
H18_3 C22_3 1_555 1_555
C24_3 C15_3 1_555 1_555
H19_3 C24_3 1_555 1_555
Cd4_2 O2_2 1_555 1_555
O9_2 Cd4 1_555 1_555
O11_2 Cd4 1_555 1_555
C1_3 N2_3 1_555 1_555
O4_2 Cd4_2 1_555 1_555
C2_3 N3_3 1_555 1_555
C9_3 C16_3 1_555 1_555
C14_3 C15_3 1_555 1_555
C14_3 C22_3 1_555 1_555
C17_3 C20_3 1_555 1_555
Cd4_2 O1_4 1_555 1_555
O1_4 C16_4 1_555 1_555
C1_4 H1_4 1_555 1_555
O3_4 Cd4_2 1_555 1_555
C2_4 H2_4 1_555 1_555
N2_4 Cd4_2 1_555 1_555
N3_4 Cd4_2 1_555 1_555
C4_4 C17_4 1_555 1_555
C5_4 C2_4 1_555 1_555
H4_4 C5_4 1_555 1_555
C6_4 H5_4 1_555 1_555
C8_4 H7_4 1_555 1_555
C9_4 C6_4 1_555 1_555
H8_4 C9_4 1_555 1_555
C11_4 C1_4 1_555 1_555
H10_4 C11_4 1_555 1_555
C13_4 N3_4 1_555 1_555
H12_4 C13_4 1_555 1_555
C15_4 C11_4 1_555 1_555
C16_4 O3_4 1_555 1_555
C17_4 H14_4 1_555 1_555
C20_4 C6_4 1_555 1_555
H16_4 C20_4 1_555 1_555
C22_4 N2_4 1_555 1_555
H18_4 C22_4 1_555 1_555
C23_4 C5_4 1_555 1_555
C1_4 N2_4 1_555 1_555
C2_4 N3_4 1_555 1_555
C8_4 C13_4 1_555 1_555
C8_4 C23_4 1_555 1_555
C9_4 C16_4 1_555 1_555
C14_4 C15_4 1_555 1_555
C14_4 C22_4 1_555 1_555
C17_4 C20_4 1_555 1_555
H19_4 C24_4 1_555 1_555
C32_4 H26_4 1_555 1_555
C36_4 H29_4 1_555 1_555
C39_4 C32_4 1_555 1_555
H32_4 C39_4 1_555 1_555
C40_4 C36_4 1_555 1_555
H33_4 C40_4 1_555 1_555
C44_4 H36_4 1_555 1_555
C45_4 C36_4 1_555 1_555
C39_4 C45_4 1_555 1_555
C44_4 C45_4 1_555 1_555
C3_4 H3_4 1_555 1_555
C7_4 H6_4 1_555 1_555
C10_4 C3_4 1_555 1_555
H9_4 C10_4 1_555 1_555
C12_4 C7_4 1_555 1_555
H11_4 C12_4 1_555 1_555
C18_4 H15_4 1_555 1_555
C19_4 C7_4 1_555 1_555
H24_4 C30_4 1_555 1_555
C10_4 C19_4 1_555 1_555
C18_4 C19_4 1_555 1_555

#END
