
###############################################################################
#
# This file contains modified crystal structure data generated from the
# MOF subset of the Cambridge Structural Database (CSD) v543 
# hosted by the Cambridge Crystallographic Data Centre (CCDC).
#
# This work is licensed under the Creative Commons
# Attribution-NonCommercial-ShareAlike 4.0 International License.
# To view a copy of this license, visit
# http://creativecommons.org/licenses/by-nc-sa/4.0/
# or send a letter to
# Creative Commons, PO Box 1866, Mountain View, CA 94042, USA.
#
# CIF created using the CSD Python API on 29 September 2022
# The structure has been converted into the P1 space group
# The structure has a 3D framework
# The original CSD entry EHOJES is in the orthorhombic crystal system
# The framework has been calculated to contain at least 10.0% void space
# The void calculation uses a probe of radius 1.32A, grid spacing 0.4
#
###############################################################################

data_EHOJES
_chemical_formula_moiety         '(C192 H176 Cd8 N20 O32)n'
_symmetry_cell_setting           triclinic
_symmetry_space_group_name_H-M   'P 1'
_symmetry_Int_Tables_number      1
_space_group_name_Hall           'P 1'
loop_
_symmetry_equiv_pos_site_id
_symmetry_equiv_pos_as_xyz
1 x,y,z
_cell_length_a                   14.2940(5)
_cell_length_b                   16.7484(6)
_cell_length_c                   22.1104(7)
_cell_angle_alpha                90
_cell_angle_beta                 90
_cell_angle_gamma                90
_cell_volume                     5293.27
loop_
_atom_site_label
_atom_site_type_symbol
_atom_site_fract_x
_atom_site_fract_y
_atom_site_fract_z
N2 N 0.03227(16) 0.62957(14) 0.60778(11)
H3 H 0.0185 0.6215 0.5197
H9 H 0.0223 0.6194 0.6956
Cd6 Cd 0.14039(2) 0.73723(2) 0.61075(2)
N6 N 0.96773(16) 0.37043(14) 0.39222(11)
H31 H 0.9815 0.3785 0.4803
H33 H 0.9777 0.3806 0.3044
Cd4 Cd 0.85961(2) 0.26277(2) 0.38925(2)
C31 C 0.3878(3) 0.0166(2) 0.89271(19)
N6_2 N 0.53227(16) 0.12957(14) 0.89222(11)
C35 C 0.4951(2) 0.10228(19) 0.94393(14)
H31_2 H 0.5185 0.1215 0.9803
C42 C 0.4976(2) 0.1011(2) 0.84079(15)
H33_2 H 0.5223 0.1194 0.8044
C43 C 0.4239(2) 0.0472(2) 0.94558(17)
H34 H 0.4000 0.0304 0.9826
C44 C 0.4257(3) 0.0452(2) 0.83919(18)
H35 H 0.4032 0.0269 0.8022
H37 H 0.2116 0.0229 0.8573
Cd4_2 Cd 0.64039(2) 0.23723(2) 0.88925(2)
C1 C 0.6122(3) 0.9834(2) 0.10729(19)
N2_2 N 0.46773(16) 0.87043(14) 0.10778(11)
C6 C 0.5049(2) 0.89772(19) 0.05607(14)
H3_2 H 0.4815 0.8785 0.0197
C17 C 0.5024(2) 0.8989(2) 0.15921(15)
H9_2 H 0.4777 0.8806 0.1956
C18 C 0.5761(2) 0.9528(2) 0.05442(17)
H10 H 0.6000 0.9696 0.0174
C19 C 0.5743(3) 0.9548(2) 0.16081(18)
H11 H 0.5968 0.9731 0.1978
H13 H 0.7884 0.9771 0.1427
Cd6_2 Cd 0.35961(2) 0.76277(2) 0.11075(2)
O1 O 0.89425(15) 0.26007(13) 0.50293(9)
O2 O 0.73269(16) 0.29998(13) 0.81802(9)
O3 O 0.79674(15) 0.17418(12) 0.45996(8)
O4 O 0.66379(15) 0.19133(14) 0.78355(9)
N1 N 0.99271(17) 0.18459(14) 0.37302(10)
N3 N 0.73582(16) 0.34845(14) 0.41442(10)
C2 C 0.7803(2) 0.25320(19) 0.72268(13)
C3 C 0.5824(2) 0.44386(17) 0.44586(12)
C7 C 0.65118(19) 0.31637(17) 0.42464(13)
H4 H 0.6443 0.2614 0.4211
C8 C 0.5742(2) 0.36110(18) 0.44012(13)
H5 H 0.5168 0.3364 0.4467
C9 C 0.9961(2) 0.12712(19) 0.33110(13)
H6 H 0.9447 0.1200 0.3059
C10 C 0.7431(2) 0.42791(18) 0.41906(13)
H7 H 0.8010 0.4512 0.4113
C11 C 0.8171(2) 0.21880(19) 0.61756(13)
C12 C 0.7931(2) 0.18391(18) 0.56581(13)
C13 C 0.7212(2) 0.24707(18) 0.77814(13)
C14 C 0.7673(2) 0.20805(19) 0.67416(13)
C15 C 0.6695(2) 0.47718(18) 0.43468(14)
H8 H 0.6782 0.5321 0.4377
C20 C 0.5008(2) 0.4947(2) 0.46559(13)
C22 C 0.8323(2) 0.20732(18) 0.50589(13)
H17 H 0.872(2) 0.2571(19) 0.6157(14)
H18 H 0.442(2) 0.4703(19) 0.4513(14)
H19 H 0.824(2) 0.295(2) 0.7243(15)
H20 H 0.504(2) 0.547(2) 0.4456(14)
H21 H 0.719(2) 0.1704(19) 0.6748(14)
H22 H 0.742(3) 0.149(2) 0.5631(15)
N4 N 0.26418(16) 0.65155(14) 0.58558(10)
C25 C 0.4176(2) 0.55614(17) 0.55414(12)
C26 C 0.34882(19) 0.68363(17) 0.57536(13)
H23 H 0.3557 0.7386 0.5789
C27 C 0.4258(2) 0.63890(18) 0.55988(13)
H24 H 0.4832 0.6636 0.5533
C28 C 0.2569(2) 0.57209(18) 0.58094(13)
H25 H 0.1990 0.5488 0.5887
C29 C 0.3305(2) 0.52282(18) 0.56532(14)
H26 H 0.3218 0.4679 0.5623
C30 C 0.4992(2) 0.5053(2) 0.53441(13)
H27 H 0.558(2) 0.5297(19) 0.5487(14)
H28 H 0.496(2) 0.453(2) 0.5544(14)
O5 O 0.10575(15) 0.73993(13) 0.49707(9)
O6 O 0.26731(16) 0.70002(13) 0.18198(9)
O7 O 0.20326(15) 0.82582(12) 0.54004(8)
O8 O 0.33621(15) 0.80867(14) 0.21645(9)
N5 N 0.00729(17) 0.81541(14) 0.62698(10)
C32 C 0.2197(2) 0.74680(19) 0.27732(13)
C36 C 0.0039(2) 0.87288(19) 0.66890(13)
H32 H 0.0553 0.8800 0.6941
C37 C 0.1829(2) 0.78120(19) 0.38244(13)
C38 C 0.2069(2) 0.81609(18) 0.43419(13)
C39 C 0.2788(2) 0.75293(18) 0.22186(13)
C40 C 0.2327(2) 0.79195(19) 0.32584(13)
C46 C 0.1677(2) 0.79268(18) 0.49411(13)
H41 H 0.128(2) 0.7429(19) 0.3843(14)
H42 H 0.176(2) 0.705(2) 0.2757(15)
H43 H 0.281(2) 0.8296(19) 0.3252(14)
H44 H 0.258(3) 0.851(2) 0.4369(15)
O9 O 0.76731(16) 0.20002(13) 0.31802(9)
O10 O 0.23269(16) 0.79998(13) 0.68198(9)
O11 O 0.83621(15) 0.30867(14) 0.28355(9)
O12 O 0.16379(15) 0.69133(14) 0.71645(9)
N4_2 N 0.23582(16) 0.84845(14) 0.08558(10)
C25_2 C 0.0824(2) 0.94386(17) 0.05414(12)
C26_2 C 0.15118(19) 0.81637(17) 0.07536(13)
H23_2 H 0.1443 0.7614 0.0789
C27_2 C 0.0742(2) 0.86110(18) 0.05988(13)
H24_2 H 0.0168 0.8364 0.0533
C28_2 C 0.2431(2) 0.92791(18) 0.08094(13)
H25_2 H 0.3010 0.9512 0.0887
C29_2 C 0.1695(2) 0.97718(18) 0.06532(14)
C30_2 C 0.0008(2) 0.9947(2) 0.03441(13)
O7_2 O 0.29674(15) 0.67418(12) 0.04004(8)
N5_2 N 0.49271(17) 0.68459(14) 0.12698(10)
C31_2 C 0.8878(3) 0.4834(2) 0.10729(19)
C33 C 0.5728(2) 0.57775(19) 0.17638(13)
H29 H 0.5726 0.5389 0.2064
C34 C 0.6458(2) 0.64583(17) 0.09525(14)
H30 H 0.6958 0.6538 0.0691
C35_2 C 0.9951(2) 0.39772(19) 0.05607(14)
C36_2 C 0.4961(2) 0.62712(19) 0.16890(13)
H32_2 H 0.4447 0.6200 0.1941
C41 C 0.6499(2) 0.58622(18) 0.13905(14)
C42_2 C 0.9976(2) 0.3989(2) 0.15921(15)
C43_2 C 0.9239(2) 0.4528(2) 0.05442(17)
H34_2 H 0.9000 0.4696 0.0174
C44_2 C 0.9257(3) 0.4548(2) 0.16081(18)
H35_2 H 0.9032 0.4731 0.1978
C45 C 0.5670(2) 0.69282(17) 0.09098(13)
H36 H 0.5655 0.7324 0.0615
C47 C 0.7332(2) 0.5318(2) 0.14630(18)
H37_2 H 0.7116 0.4771 0.1427
H38 H 0.7576 0.5385 0.1869
C48 C 0.8090(3) 0.5433(3) 0.1042(2)
H39 H 0.8350 0.5961 0.1108
H40 H 0.7834 0.5424 0.0636
O5_2 O 0.39425(15) 0.76007(13) 0.99707(9)
C32_2 C 0.2803(2) 0.75320(19) 0.77732(13)
C37_2 C 0.3171(2) 0.71880(19) 0.88244(13)
C38_2 C 0.2931(2) 0.68391(18) 0.93419(13)
C39_2 C 0.2212(2) 0.74707(18) 0.72186(13)
C40_2 C 0.2673(2) 0.70805(19) 0.82584(13)
C46_2 C 0.3323(2) 0.70732(18) 0.99411(13)
H41_2 H 0.372(2) 0.7571(19) 0.8843(14)
H42_2 H 0.324(2) 0.795(2) 0.7757(15)
H43_2 H 0.219(2) 0.6704(19) 0.8252(14)
H44_2 H 0.242(3) 0.649(2) 0.9369(15)
O1_2 O 0.60575(15) 0.23993(13) 0.00293(9)
C2_2 C 0.7197(2) 0.24680(19) 0.22268(13)
C11_2 C 0.6829(2) 0.28120(19) 0.11756(13)
C12_2 C 0.7069(2) 0.31609(18) 0.06581(13)
C13_2 C 0.7788(2) 0.25293(18) 0.27814(13)
C14_2 C 0.7327(2) 0.29195(19) 0.17416(13)
C22_2 C 0.6677(2) 0.29268(18) 0.00589(13)
H17_2 H 0.628(2) 0.2429(19) 0.1157(14)
H19_2 H 0.676(2) 0.205(2) 0.2243(15)
H21_2 H 0.781(2) 0.3296(19) 0.1748(14)
H22_2 H 0.758(3) 0.351(2) 0.0631(15)
O3_2 O 0.70326(15) 0.32582(12) 0.95996(8)
N1_2 N 0.50729(17) 0.31541(14) 0.87302(10)
C1_2 C 0.1122(3) 0.5166(2) 0.89271(19)
N3_2 N 0.76418(16) 0.15155(14) 0.91442(10)
C3_2 C 0.9176(2) 0.05614(17) 0.94586(12)
C4 C 0.4272(2) 0.42225(19) 0.82362(13)
H1 H 0.4274 0.4611 0.7936
C5 C 0.3542(2) 0.35417(17) 0.90475(14)
H2 H 0.3042 0.3462 0.9309
C6_2 C 0.0049(2) 0.60228(19) 0.94393(14)
C7_2 C 0.84882(19) 0.18363(17) 0.92464(13)
H4_2 H 0.8557 0.2386 0.9211
C8_2 C 0.9258(2) 0.13890(18) 0.94012(13)
H5_2 H 0.9832 0.1636 0.9467
C9_2 C 0.5039(2) 0.37288(19) 0.83110(13)
H6_2 H 0.5553 0.3800 0.8059
C10_2 C 0.7569(2) 0.07209(18) 0.91906(13)
H7_2 H 0.6990 0.0488 0.9113
C15_2 C 0.8305(2) 0.02282(18) 0.93468(14)
C16 C 0.3501(2) 0.41378(18) 0.86095(14)
C17_2 C 0.0024(2) 0.6011(2) 0.84079(15)
C18_2 C 0.0761(2) 0.5472(2) 0.94558(17)
H10_2 H 0.1000 0.5304 0.9826
C19_2 C 0.0743(3) 0.5452(2) 0.83919(18)
H11_2 H 0.0968 0.5269 0.8022
C20_2 C 0.9992(2) 0.0053(2) 0.96559(13)
C21 C 0.4330(2) 0.30718(17) 0.90902(13)
H12 H 0.4345 0.2676 0.9385
C23 C 0.2668(2) 0.4682(2) 0.85370(18)
H13_2 H 0.2884 0.5229 0.8573
H14 H 0.2424 0.4615 0.8131
C24 C 0.1910(3) 0.4567(3) 0.8958(2)
H15 H 0.1650 0.4039 0.8892
H16 H 0.2166 0.4576 0.9364
Cd1 Cd 0.35961(2) 0.23723(2) 0.61075(2)
O1_3 O 0.39425(15) 0.23993(13) 0.49707(9)
O2_2 O 0.23269(16) 0.20002(13) 0.18198(9)
O3_3 O 0.29674(15) 0.32582(12) 0.54004(8)
O4_2 O 0.16379(15) 0.30867(14) 0.21645(9)
N1_3 N 0.49271(17) 0.31541(14) 0.62698(10)
C1_3 C 0.8878(3) 0.5166(2) 0.60729(19)
N3_3 N 0.23582(16) 0.15155(14) 0.58558(10)
C2_3 C 0.2803(2) 0.24680(19) 0.27732(13)
C3_3 C 0.0824(2) 0.05614(17) 0.55414(12)
C4_2 C 0.5728(2) 0.42225(19) 0.67638(13)
H1_2 H 0.5726 0.4611 0.7064
C5_2 C 0.6458(2) 0.35417(17) 0.59525(14)
H2_2 H 0.6958 0.3462 0.5691
C6_3 C 0.9951(2) 0.60228(19) 0.55607(14)
C7_3 C 0.15118(19) 0.18363(17) 0.57536(13)
H4_3 H 0.1443 0.2386 0.5789
C8_3 C 0.0742(2) 0.13890(18) 0.55988(13)
H5_3 H 0.0168 0.1636 0.5533
C9_3 C 0.4961(2) 0.37288(19) 0.66890(13)
H6_3 H 0.4447 0.3800 0.6941
C10_3 C 0.2431(2) 0.07209(18) 0.58094(13)
H7_3 H 0.3010 0.0488 0.5887
C11_3 C 0.3171(2) 0.28120(19) 0.38244(13)
C12_3 C 0.2931(2) 0.31609(18) 0.43419(13)
C13_3 C 0.2212(2) 0.25293(18) 0.22186(13)
C14_3 C 0.2673(2) 0.29195(19) 0.32584(13)
C15_3 C 0.1695(2) 0.02282(18) 0.56532(14)
C16_2 C 0.6499(2) 0.41378(18) 0.63905(14)
C17_3 C 0.9976(2) 0.6011(2) 0.65921(15)
C18_3 C 0.9239(2) 0.5472(2) 0.55442(17)
H10_3 H 0.9000 0.5304 0.5174
C19_3 C 0.9257(3) 0.5452(2) 0.66081(18)
H11_3 H 0.9032 0.5269 0.6978
C20_3 C 0.0008(2) 0.0053(2) 0.53441(13)
C21_2 C 0.5670(2) 0.30718(17) 0.59098(13)
H12_2 H 0.5655 0.2676 0.5615
C22_3 C 0.3323(2) 0.29268(18) 0.49411(13)
C23_2 C 0.7332(2) 0.4682(2) 0.64630(18)
H13_3 H 0.7116 0.5229 0.6427
H14_2 H 0.7576 0.4615 0.6869
C24_2 C 0.8090(3) 0.4567(3) 0.6042(2)
H15_2 H 0.8350 0.4039 0.6108
H16_2 H 0.7834 0.4576 0.5636
H17_3 H 0.372(2) 0.2429(19) 0.3843(14)
H19_3 H 0.324(2) 0.205(2) 0.2757(15)
H21_3 H 0.219(2) 0.3296(19) 0.3252(14)
H22_3 H 0.242(3) 0.351(2) 0.4369(15)
Cd3 Cd 0.14039(2) 0.26277(2) 0.11075(2)
O9_2 O 0.26731(16) 0.29998(13) 0.68198(9)
O11_2 O 0.33621(15) 0.19133(14) 0.71645(9)
N8 N 0.46773(16) 0.12957(14) 0.60778(11)
N4_3 N 0.76418(16) 0.84845(14) 0.41442(10)
C25_3 C 0.9176(2) 0.94386(17) 0.44586(12)
C26_3 C 0.84882(19) 0.81637(17) 0.42464(13)
H23_3 H 0.8557 0.7614 0.4211
C27_3 C 0.9258(2) 0.86110(18) 0.44012(13)
H24_3 H 0.9832 0.8364 0.4467
C28_3 C 0.7569(2) 0.92791(18) 0.41906(13)
H25_3 H 0.6990 0.9512 0.4113
C29_3 C 0.8305(2) 0.97718(18) 0.43468(14)
C30_3 C 0.9992(2) 0.9947(2) 0.46559(13)
Cd2 Cd 0.64039(2) 0.76277(2) 0.38925(2)
O5_3 O 0.60575(15) 0.76007(13) 0.50293(9)
O6_2 O 0.76731(16) 0.79998(13) 0.81802(9)
O7_3 O 0.70326(15) 0.67418(12) 0.45996(8)
O8_2 O 0.83621(15) 0.69133(14) 0.78355(9)
N5_3 N 0.50729(17) 0.68459(14) 0.37302(10)
C31_3 C 0.1122(3) 0.4834(2) 0.39271(19)
C32_3 C 0.7197(2) 0.75320(19) 0.72268(13)
C33_2 C 0.4272(2) 0.57775(19) 0.32362(13)
H29_2 H 0.4274 0.5389 0.2936
C34_2 C 0.3542(2) 0.64583(17) 0.40475(14)
H30_2 H 0.3042 0.6538 0.4309
C35_3 C 0.0049(2) 0.39772(19) 0.44393(14)
C36_3 C 0.5039(2) 0.62712(19) 0.33110(13)
H32_3 H 0.5553 0.6200 0.3059
C37_3 C 0.6829(2) 0.71880(19) 0.61756(13)
C38_3 C 0.7069(2) 0.68391(18) 0.56581(13)
C39_3 C 0.7788(2) 0.74707(18) 0.77814(13)
C40_3 C 0.7327(2) 0.70805(19) 0.67416(13)
C41_2 C 0.3501(2) 0.58622(18) 0.36095(14)
C42_3 C 0.0024(2) 0.3989(2) 0.34079(15)
C43_3 C 0.0761(2) 0.4528(2) 0.44558(17)
H34_3 H 0.1000 0.4696 0.4826
C44_3 C 0.0743(3) 0.4548(2) 0.33919(18)
H35_3 H 0.0968 0.4731 0.3022
C45_2 C 0.4330(2) 0.69282(17) 0.40902(13)
H36_2 H 0.4345 0.7324 0.4385
C46_3 C 0.6677(2) 0.70732(18) 0.50589(13)
C47_2 C 0.2668(2) 0.5318(2) 0.35370(18)
H37_3 H 0.2884 0.4771 0.3573
H38_2 H 0.2424 0.5385 0.3131
C48_2 C 0.1910(3) 0.5433(3) 0.3958(2)
H39_2 H 0.1650 0.5961 0.3892
H40_2 H 0.2166 0.5424 0.4364
H41_3 H 0.628(2) 0.7571(19) 0.6157(14)
H42_3 H 0.676(2) 0.795(2) 0.7243(15)
H43_3 H 0.781(2) 0.6704(19) 0.6748(14)
H44_3 H 0.758(3) 0.649(2) 0.5631(15)
Cd5 Cd 0.85961(2) 0.73723(2) 0.88925(2)
O10_2 O 0.73269(16) 0.70002(13) 0.31802(9)
O12_2 O 0.66379(15) 0.80867(14) 0.28355(9)
N7 N 0.53227(16) 0.87043(14) 0.39222(11)
O3_4 O 0.20326(15) 0.17418(12) 0.04004(8)
N1_4 N 0.00729(17) 0.18459(14) 0.12698(10)
N3_4 N 0.26418(16) 0.34845(14) 0.08558(10)
C3_4 C 0.4176(2) 0.44386(17) 0.05414(12)
C7_4 C 0.34882(19) 0.31637(17) 0.07536(13)
H4_4 H 0.3557 0.2614 0.0789
C8_4 C 0.4258(2) 0.36110(18) 0.05988(13)
H5_4 H 0.4832 0.3364 0.0533
C9_4 C 0.0039(2) 0.12712(19) 0.16890(13)
H6_4 H 0.0553 0.1200 0.1941
C10_4 C 0.2569(2) 0.42791(18) 0.08094(13)
H7_4 H 0.1990 0.4512 0.0887
C15_4 C 0.3305(2) 0.47718(18) 0.06532(14)
H8_2 H 0.3218 0.5321 0.0623
C20_4 C 0.4992(2) 0.4947(2) 0.03441(13)
H18_2 H 0.558(2) 0.4703(19) 0.0487(14)
H20_2 H 0.496(2) 0.547(2) 0.0544(14)
O5_4 O 0.89425(15) 0.73993(13) 0.00293(9)
C32_4 C 0.7803(2) 0.74680(19) 0.22268(13)
C37_4 C 0.8171(2) 0.78120(19) 0.11756(13)
C38_4 C 0.7931(2) 0.81609(18) 0.06581(13)
C39_4 C 0.7212(2) 0.75293(18) 0.27814(13)
C40_4 C 0.7673(2) 0.79195(19) 0.17416(13)
C46_4 C 0.8323(2) 0.79268(18) 0.00589(13)
H41_4 H 0.872(2) 0.7429(19) 0.1157(14)
H42_4 H 0.824(2) 0.705(2) 0.2243(15)
H43_4 H 0.719(2) 0.8296(19) 0.1748(14)
H44_4 H 0.742(3) 0.851(2) 0.0631(15)
N8_2 N 0.03227(16) 0.37043(14) 0.10778(11)
O1_4 O 0.10575(15) 0.26007(13) 0.99707(9)
C2_4 C 0.2197(2) 0.25320(19) 0.77732(13)
C11_4 C 0.1829(2) 0.21880(19) 0.88244(13)
C12_4 C 0.2069(2) 0.18391(18) 0.93419(13)
C13_4 C 0.2788(2) 0.24707(18) 0.72186(13)
C14_4 C 0.2327(2) 0.20805(19) 0.82584(13)
C22_4 C 0.1677(2) 0.20732(18) 0.99411(13)
H17_4 H 0.128(2) 0.2571(19) 0.8843(14)
H19_4 H 0.176(2) 0.295(2) 0.7757(15)
H21_4 H 0.281(2) 0.1704(19) 0.8252(14)
H22_4 H 0.258(3) 0.149(2) 0.9369(15)
N4_4 N 0.73582(16) 0.65155(14) 0.91442(10)
C25_4 C 0.5824(2) 0.55614(17) 0.94586(12)
C26_4 C 0.65118(19) 0.68363(17) 0.92464(13)
H23_4 H 0.6443 0.7386 0.9211
C27_4 C 0.5742(2) 0.63890(18) 0.94012(13)
H24_4 H 0.5168 0.6636 0.9467
C28_4 C 0.7431(2) 0.57209(18) 0.91906(13)
H25_4 H 0.8010 0.5488 0.9113
C29_4 C 0.6695(2) 0.52282(18) 0.93468(14)
H26_2 H 0.6782 0.4679 0.9377
C30_4 C 0.5008(2) 0.5053(2) 0.96559(13)
H27_2 H 0.442(2) 0.5297(19) 0.9513(14)
H28_2 H 0.504(2) 0.453(2) 0.9456(14)
O7_4 O 0.79674(15) 0.82582(12) 0.95996(8)
N5_4 N 0.99271(17) 0.81541(14) 0.87302(10)
C36_4 C 0.9961(2) 0.87288(19) 0.83110(13)
H32_4 H 0.9447 0.8800 0.8059
N7_2 N 0.96773(16) 0.62957(14) 0.89222(11)
C1_4 C 0.3878(3) 0.9834(2) 0.39271(19)
C6_4 C 0.4951(2) 0.89772(19) 0.44393(14)
H3_3 H 0.5185 0.8785 0.4803
C17_4 C 0.4976(2) 0.8989(2) 0.34079(15)
H9_3 H 0.5223 0.8806 0.3044
C18_4 C 0.4239(2) 0.9528(2) 0.44558(17)
H10_4 H 0.4000 0.9696 0.4826
C19_4 C 0.4257(3) 0.9548(2) 0.33919(18)
H11_4 H 0.4032 0.9731 0.3022
H13_4 H 0.2116 0.9771 0.3573
C31_4 C 0.6122(3) 0.0166(2) 0.60729(19)
C35_4 C 0.5049(2) 0.10228(19) 0.55607(14)
H31_3 H 0.4815 0.1215 0.5197
C42_4 C 0.5024(2) 0.1011(2) 0.65921(15)
H33_3 H 0.4777 0.1194 0.6956
C43_4 C 0.5761(2) 0.0472(2) 0.55442(17)
H34_4 H 0.6000 0.0304 0.5174
C44_4 C 0.5743(3) 0.0452(2) 0.66081(18)
H35_4 H 0.5968 0.0269 0.6978
H37_4 H 0.7884 0.0229 0.6427
H31_4 H 0.0185 0.3785 0.0197
H33_4 H 0.0223 0.3806 0.1956
H3_4 H 0.9815 0.6215 0.9803
H9_4 H 0.9777 0.6194 0.8044
H8_3 H 0.1782 0.9679 0.5623
H20_3 H 0.004(2) 0.953(2) 0.5544(14)
H27_3 H 0.058(2) 0.9703(19) 0.4513(14)
H18_3 H 0.942(2) 0.0297(19) 0.5487(14)
H26_3 H 0.8218 0.0321 0.4377
H28_3 H 0.996(2) 0.047(2) 0.4456(14)
C33_3 C 0.0728(2) 0.92225(19) 0.82362(13)
H29_3 H 0.0726 0.9611 0.7936
C34_3 C 0.1458(2) 0.85417(17) 0.90475(14)
H30_3 H 0.1958 0.8462 0.9309
C41_3 C 0.1499(2) 0.91378(18) 0.86095(14)
C45_3 C 0.0670(2) 0.80718(17) 0.90902(13)
H36_3 H 0.0655 0.7676 0.9385
C47_3 C 0.2332(2) 0.9682(2) 0.85370(18)
H38_3 H 0.2576 0.9615 0.8131
C48_3 C 0.3090(3) 0.9567(3) 0.8958(2)
H39_3 H 0.3350 0.9039 0.8892
H40_3 H 0.2834 0.9576 0.9364
C4_3 C 0.9272(2) 0.07775(19) 0.17638(13)
H1_3 H 0.9274 0.0389 0.2064
C5_3 C 0.8542(2) 0.14583(17) 0.09525(14)
H2_3 H 0.8042 0.1538 0.0691
C16_3 C 0.8501(2) 0.08622(18) 0.13905(14)
C21_3 C 0.9330(2) 0.19282(17) 0.09098(13)
H12_3 H 0.9345 0.2324 0.0615
C23_3 C 0.7668(2) 0.0318(2) 0.14630(18)
H14_3 H 0.7424 0.0385 0.1869
C24_3 C 0.6910(3) 0.0433(3) 0.1042(2)
H15_3 H 0.6650 0.0961 0.1108
H16_3 H 0.7166 0.0424 0.0636
C4_4 C 0.0728(2) 0.07775(19) 0.32362(13)
H1_4 H 0.0726 0.0389 0.2936
C5_4 C 0.1458(2) 0.14583(17) 0.40475(14)
H2_4 H 0.1958 0.1538 0.4309
C16_4 C 0.1499(2) 0.08622(18) 0.36095(14)
C21_4 C 0.0670(2) 0.19282(17) 0.40902(13)
H12_4 H 0.0655 0.2324 0.4385
C23_4 C 0.2332(2) 0.0318(2) 0.35370(18)
H14_4 H 0.2576 0.0385 0.3131
C24_4 C 0.3090(3) 0.0433(3) 0.3958(2)
H15_4 H 0.3350 0.0961 0.3892
H16_4 H 0.2834 0.0424 0.4364
C33_4 C 0.9272(2) 0.92225(19) 0.67638(13)
H29_4 H 0.9274 0.9611 0.7064
C34_4 C 0.8542(2) 0.85417(17) 0.59525(14)
H30_4 H 0.8042 0.8462 0.5691
C41_4 C 0.8501(2) 0.91378(18) 0.63905(14)
C45_4 C 0.9330(2) 0.80718(17) 0.59098(13)
H36_4 H 0.9345 0.7676 0.5615
C47_4 C 0.7668(2) 0.9682(2) 0.64630(18)
H38_4 H 0.7424 0.9615 0.6869
C48_4 C 0.6910(3) 0.9567(3) 0.6042(2)
H39_4 H 0.6650 0.9039 0.6108
H40_4 H 0.7166 0.9576 0.5636
H26_4 H 0.1782 0.0321 0.0623
H28_4 H 0.004(2) 0.047(2) 0.0544(14)
H18_4 H 0.058(2) 0.0297(19) 0.9513(14)
H27_4 H 0.942(2) 0.9703(19) 0.0487(14)
H8_4 H 0.8218 0.9679 0.9377
H20_4 H 0.996(2) 0.953(2) 0.9456(14)
loop_
_geom_bond_atom_site_label_1
_geom_bond_atom_site_label_2
_geom_bond_site_symmetry_1
_geom_bond_site_symmetry_2
Cd6 N2 1_555 1_555
Cd4 N6 1_555 1_555
C31 C43 1_555 1_555
N6_2 C35 1_555 1_555
C35 H31_2 1_555 1_555
C42 N6_2 1_555 1_555
H33_2 C42 1_555 1_555
C43 C35 1_555 1_555
H34 C43 1_555 1_555
C44 C31 1_555 1_555
H35 C44 1_555 1_555
Cd4_2 N6_2 1_555 1_555
C42 C44 1_555 1_555
C1 C18 1_555 1_555
N2_2 C6 1_555 1_555
C6 H3_2 1_555 1_555
C17 N2_2 1_555 1_555
H9_2 C17 1_555 1_555
C18 C6 1_555 1_555
H10 C18 1_555 1_555
C19 C1 1_555 1_555
H11 C19 1_555 1_555
Cd6_2 N2_2 1_555 1_555
C17 C19 1_555 1_555
Cd4 O1 1_555 1_555
O1 C22 1_555 1_555
O2 C13 1_555 1_555
O3 Cd4 1_555 1_555
O4 C13 1_555 1_555
N1 Cd4 1_555 1_555
N3 Cd4 1_555 1_555
C2 C13 1_555 1_555
C3 C8 1_555 1_555
C7 N3 1_555 1_555
H4 C7 1_555 1_555
C8 C7 1_555 1_555
H5 C8 1_555 1_555
C9 N1 1_555 1_555
H6 C9 1_555 1_555
C10 N3 1_555 1_555
H7 C10 1_555 1_555
C11 C12 1_555 1_555
C12 C22 1_555 1_555
C14 C2 1_555 1_555
C15 C3 1_555 1_555
H8 C15 1_555 1_555
C20 C3 1_555 1_555
C22 O3 1_555 1_555
H17 C11 1_555 1_555
H18 C20 1_555 1_555
H19 C2 1_555 1_555
H20 C20 1_555 1_555
H21 C14 1_555 1_555
H22 C12 1_555 1_555
N4 C26 1_555 1_555
C25 C27 1_555 1_555
C26 H23 1_555 1_555
C27 C26 1_555 1_555
H24 C27 1_555 1_555
C28 N4 1_555 1_555
H25 C28 1_555 1_555
C29 C25 1_555 1_555
H26 C29 1_555 1_555
C30 C20 1_555 1_555
H27 C30 1_555 1_555
H28 C30 1_555 1_555
Cd6 N4 1_555 1_555
O5 Cd6 1_555 1_555
O6 C39 1_555 1_555
O7 Cd6 1_555 1_555
O8 C39 1_555 1_555
N5 Cd6 1_555 1_555
C32 C39 1_555 1_555
C36 N5 1_555 1_555
H32 C36 1_555 1_555
C37 C38 1_555 1_555
C38 C46 1_555 1_555
C40 C32 1_555 1_555
C46 O5 1_555 1_555
H41 C37 1_555 1_555
H42 C32 1_555 1_555
H43 C40 1_555 1_555
H44 C38 1_555 1_555
Cd4_2 O2 1_555 1_555
Cd6_2 O6 1_555 1_555
O9 Cd4 1_555 1_555
O10 Cd6 1_555 1_555
O11 Cd4 1_555 1_555
O12 Cd6 1_555 1_555
O4 Cd4_2 1_555 1_555
C10 C15 1_555 1_555
C11 C14 1_555 1_555
C25 C30 1_555 1_555
C28 C29 1_555 1_555
O7 C46 1_555 1_555
O8 Cd6_2 1_555 1_555
C37 C40 1_555 1_555
N4_2 C26_2 1_555 1_555
C25_2 C27_2 1_555 1_555
C26_2 H23_2 1_555 1_555
C27_2 C26_2 1_555 1_555
H24_2 C27_2 1_555 1_555
C28_2 N4_2 1_555 1_555
H25_2 C28_2 1_555 1_555
C29_2 C25_2 1_555 1_555
Cd6_2 N4_2 1_555 1_555
O7_2 Cd6_2 1_555 1_555
N5_2 Cd6_2 1_555 1_555
C31_2 C43_2 1_555 1_555
C33 H29 1_555 1_555
C34 H30 1_555 1_555
C36_2 N5_2 1_555 1_555
H32_2 C36_2 1_555 1_555
C41 C33 1_555 1_555
C43_2 C35_2 1_555 1_555
H34_2 C43_2 1_555 1_555
C44_2 C31_2 1_555 1_555
H35_2 C44_2 1_555 1_555
C45 N5_2 1_555 1_555
H36 C45 1_555 1_555
C47 C41 1_555 1_555
H37_2 C47 1_555 1_555
H38 C47 1_555 1_555
C48 C31_2 1_555 1_555
H39 C48 1_555 1_555
H40 C48 1_555 1_555
C25_2 C30_2 1_555 1_555
C28_2 C29_2 1_555 1_555
C33 C36_2 1_555 1_555
C34 C41 1_555 1_555
C34 C45 1_555 1_555
C42_2 C44_2 1_555 1_555
C47 C48 1_555 1_555
O10 C39_2 1_555 1_555
O12 C39_2 1_555 1_555
C32_2 C39_2 1_555 1_555
C37_2 C38_2 1_555 1_555
C38_2 C46_2 1_555 1_555
C40_2 C32_2 1_555 1_555
C46_2 O5_2 1_555 1_555
H41_2 C37_2 1_555 1_555
H42_2 C32_2 1_555 1_555
H43_2 C40_2 1_555 1_555
H44_2 C38_2 1_555 1_555
C37_2 C40_2 1_555 1_555
O1_2 C22_2 1_555 1_555
O9 C13_2 1_555 1_555
O11 C13_2 1_555 1_555
C2_2 C13_2 1_555 1_555
C11_2 C12_2 1_555 1_555
C12_2 C22_2 1_555 1_555
C14_2 C2_2 1_555 1_555
H17_2 C11_2 1_555 1_555
H19_2 C2_2 1_555 1_555
H21_2 C14_2 1_555 1_555
H22_2 C12_2 1_555 1_555
C11_2 C14_2 1_555 1_555
O3_2 Cd4_2 1_555 1_555
N1_2 Cd4_2 1_555 1_555
C1_2 C18_2 1_555 1_555
N3_2 Cd4_2 1_555 1_555
C3_2 C8_2 1_555 1_555
C4 H1 1_555 1_555
C5 H2 1_555 1_555
C7_2 N3_2 1_555 1_555
H4_2 C7_2 1_555 1_555
C8_2 C7_2 1_555 1_555
H5_2 C8_2 1_555 1_555
C9_2 N1_2 1_555 1_555
H6_2 C9_2 1_555 1_555
C10_2 N3_2 1_555 1_555
H7_2 C10_2 1_555 1_555
C15_2 C3_2 1_555 1_555
C16 C4 1_555 1_555
C18_2 C6_2 1_555 1_555
H10_2 C18_2 1_555 1_555
C19_2 C1_2 1_555 1_555
H11_2 C19_2 1_555 1_555
C20_2 C3_2 1_555 1_555
C21 N1_2 1_555 1_555
H12 C21 1_555 1_555
C23 C16 1_555 1_555
H13_2 C23 1_555 1_555
H14 C23 1_555 1_555
C24 C1_2 1_555 1_555
H15 C24 1_555 1_555
H16 C24 1_555 1_555
C4 C9_2 1_555 1_555
C5 C16 1_555 1_555
C5 C21 1_555 1_555
C10_2 C15_2 1_555 1_555
C17_2 C19_2 1_555 1_555
C23 C24 1_555 1_555
Cd1 O1_3 1_555 1_555
O1_3 C22_3 1_555 1_555
O2_2 C13_3 1_555 1_555
O3_3 Cd1 1_555 1_555
O4_2 C13_3 1_555 1_555
N1_3 Cd1 1_555 1_555
C1_3 C18_3 1_555 1_555
N3_3 Cd1 1_555 1_555
C2_3 C13_3 1_555 1_555
C3_3 C8_3 1_555 1_555
C4_2 H1_2 1_555 1_555
C5_2 H2_2 1_555 1_555
C7_3 N3_3 1_555 1_555
H4_3 C7_3 1_555 1_555
C8_3 C7_3 1_555 1_555
H5_3 C8_3 1_555 1_555
C9_3 N1_3 1_555 1_555
H6_3 C9_3 1_555 1_555
C10_3 N3_3 1_555 1_555
H7_3 C10_3 1_555 1_555
C11_3 C12_3 1_555 1_555
C12_3 C22_3 1_555 1_555
C14_3 C2_3 1_555 1_555
C15_3 C3_3 1_555 1_555
C16_2 C4_2 1_555 1_555
C18_3 C6_3 1_555 1_555
H10_3 C18_3 1_555 1_555
C19_3 C1_3 1_555 1_555
H11_3 C19_3 1_555 1_555
C20_3 C3_3 1_555 1_555
C21_2 N1_3 1_555 1_555
H12_2 C21_2 1_555 1_555
C22_3 O3_3 1_555 1_555
C23_2 C16_2 1_555 1_555
H13_3 C23_2 1_555 1_555
H14_2 C23_2 1_555 1_555
C24_2 C1_3 1_555 1_555
H15_2 C24_2 1_555 1_555
H16_2 C24_2 1_555 1_555
H17_3 C11_3 1_555 1_555
H19_3 C2_3 1_555 1_555
H21_3 C14_3 1_555 1_555
H22_3 C12_3 1_555 1_555
Cd3 O2_2 1_555 1_555
O9_2 Cd1 1_555 1_555
O11_2 Cd1 1_555 1_555
N8 Cd1 1_555 1_555
O4_2 Cd3 1_555 1_555
C4_2 C9_3 1_555 1_555
C5_2 C16_2 1_555 1_555
C5_2 C21_2 1_555 1_555
C10_3 C15_3 1_555 1_555
C11_3 C14_3 1_555 1_555
C17_3 C19_3 1_555 1_555
C23_2 C24_2 1_555 1_555
N4_3 C26_3 1_555 1_555
C25_3 C27_3 1_555 1_555
C26_3 H23_3 1_555 1_555
C27_3 C26_3 1_555 1_555
H24_3 C27_3 1_555 1_555
C28_3 N4_3 1_555 1_555
H25_3 C28_3 1_555 1_555
C29_3 C25_3 1_555 1_555
Cd2 N4_3 1_555 1_555
O5_3 Cd2 1_555 1_555
O6_2 C39_3 1_555 1_555
O7_3 Cd2 1_555 1_555
O8_2 C39_3 1_555 1_555
N5_3 Cd2 1_555 1_555
C31_3 C43_3 1_555 1_555
C32_3 C39_3 1_555 1_555
C33_2 H29_2 1_555 1_555
C34_2 H30_2 1_555 1_555
C36_3 N5_3 1_555 1_555
H32_3 C36_3 1_555 1_555
C37_3 C38_3 1_555 1_555
C38_3 C46_3 1_555 1_555
C40_3 C32_3 1_555 1_555
C41_2 C33_2 1_555 1_555
C43_3 C35_3 1_555 1_555
H34_3 C43_3 1_555 1_555
C44_3 C31_3 1_555 1_555
H35_3 C44_3 1_555 1_555
C45_2 N5_3 1_555 1_555
H36_2 C45_2 1_555 1_555
C46_3 O5_3 1_555 1_555
C47_2 C41_2 1_555 1_555
H37_3 C47_2 1_555 1_555
H38_2 C47_2 1_555 1_555
C48_2 C31_3 1_555 1_555
H39_2 C48_2 1_555 1_555
H40_2 C48_2 1_555 1_555
H41_3 C37_3 1_555 1_555
H42_3 C32_3 1_555 1_555
H43_3 C40_3 1_555 1_555
H44_3 C38_3 1_555 1_555
Cd5 O6_2 1_555 1_555
O10_2 Cd2 1_555 1_555
O12_2 Cd2 1_555 1_555
N7 Cd2 1_555 1_555
C25_3 C30_3 1_555 1_555
C28_3 C29_3 1_555 1_555
O7_3 C46_3 1_555 1_555
O8_2 Cd5 1_555 1_555
C33_2 C36_3 1_555 1_555
C34_2 C41_2 1_555 1_555
C34_2 C45_2 1_555 1_555
C37_3 C40_3 1_555 1_555
C42_3 C44_3 1_555 1_555
C47_2 C48_2 1_555 1_555
O3_4 Cd3 1_555 1_555
N1_4 Cd3 1_555 1_555
N3_4 Cd3 1_555 1_555
C3_4 C8_4 1_555 1_555
C7_4 N3_4 1_555 1_555
H4_4 C7_4 1_555 1_555
C8_4 C7_4 1_555 1_555
H5_4 C8_4 1_555 1_555
C9_4 N1_4 1_555 1_555
H6_4 C9_4 1_555 1_555
C10_4 N3_4 1_555 1_555
H7_4 C10_4 1_555 1_555
C15_4 C3_4 1_555 1_555
H8_2 C15_4 1_555 1_555
C20_4 C3_4 1_555 1_555
H18_2 C20_4 1_555 1_555
H20_2 C20_4 1_555 1_555
O10_2 C39_4 1_555 1_555
O12_2 C39_4 1_555 1_555
C32_4 C39_4 1_555 1_555
C37_4 C38_4 1_555 1_555
C38_4 C46_4 1_555 1_555
C40_4 C32_4 1_555 1_555
C46_4 O5_4 1_555 1_555
H41_4 C37_4 1_555 1_555
H42_4 C32_4 1_555 1_555
H43_4 C40_4 1_555 1_555
H44_4 C38_4 1_555 1_555
N8_2 Cd3 1_555 1_555
C10_4 C15_4 1_555 1_555
C37_4 C40_4 1_555 1_555
O1_4 C22_4 1_555 1_555
O9_2 C13_4 1_555 1_555
O11_2 C13_4 1_555 1_555
C2_4 C13_4 1_555 1_555
C11_4 C12_4 1_555 1_555
C12_4 C22_4 1_555 1_555
C14_4 C2_4 1_555 1_555
H17_4 C11_4 1_555 1_555
H19_4 C2_4 1_555 1_555
H21_4 C14_4 1_555 1_555
H22_4 C12_4 1_555 1_555
N4_4 C26_4 1_555 1_555
C25_4 C27_4 1_555 1_555
C26_4 H23_4 1_555 1_555
C27_4 C26_4 1_555 1_555
H24_4 C27_4 1_555 1_555
C28_4 N4_4 1_555 1_555
H25_4 C28_4 1_555 1_555
C29_4 C25_4 1_555 1_555
H26_2 C29_4 1_555 1_555
H27_2 C30_4 1_555 1_555
H28_2 C30_4 1_555 1_555
Cd5 N4_4 1_555 1_555
O7_4 Cd5 1_555 1_555
N5_4 Cd5 1_555 1_555
C36_4 N5_4 1_555 1_555
H32_4 C36_4 1_555 1_555
N7_2 Cd5 1_555 1_555
C11_4 C14_4 1_555 1_555
C25_4 C30_4 1_555 1_555
C28_4 C29_4 1_555 1_555
C1_4 C18_4 1_555 1_555
N7 C6_4 1_555 1_555
C6_4 H3_3 1_555 1_555
C17_4 N7 1_555 1_555
H9_3 C17_4 1_555 1_555
C18_4 C6_4 1_555 1_555
H10_4 C18_4 1_555 1_555
C19_4 C1_4 1_555 1_555
H11_4 C19_4 1_555 1_555
C17_4 C19_4 1_555 1_555
C31_4 C43_4 1_555 1_555
N8 C35_4 1_555 1_555
C35_4 H31_3 1_555 1_555
C42_4 N8 1_555 1_555
H33_3 C42_4 1_555 1_555
C43_4 C35_4 1_555 1_555
H34_4 C43_4 1_555 1_555
C44_4 C31_4 1_555 1_555
H35_4 C44_4 1_555 1_555
C42_4 C44_4 1_555 1_555
C33_3 H29_3 1_555 1_555
C34_3 H30_3 1_555 1_555
C41_3 C33_3 1_555 1_555
H36_3 C45_3 1_555 1_555
C47_3 C41_3 1_555 1_555
H38_3 C47_3 1_555 1_555
H39_3 C48_3 1_555 1_555
H40_3 C48_3 1_555 1_555
C34_3 C41_3 1_555 1_555
C34_3 C45_3 1_555 1_555
C47_3 C48_3 1_555 1_555
C4_3 H1_3 1_555 1_555
C5_3 H2_3 1_555 1_555
C16_3 C4_3 1_555 1_555
H12_3 C21_3 1_555 1_555
C23_3 C16_3 1_555 1_555
H14_3 C23_3 1_555 1_555
H15_3 C24_3 1_555 1_555
H16_3 C24_3 1_555 1_555
C5_3 C16_3 1_555 1_555
C5_3 C21_3 1_555 1_555
C23_3 C24_3 1_555 1_555
C4_4 H1_4 1_555 1_555
C5_4 H2_4 1_555 1_555
C16_4 C4_4 1_555 1_555
H12_4 C21_4 1_555 1_555
C23_4 C16_4 1_555 1_555
H14_4 C23_4 1_555 1_555
H15_4 C24_4 1_555 1_555
H16_4 C24_4 1_555 1_555
C5_4 C16_4 1_555 1_555
C5_4 C21_4 1_555 1_555
C23_4 C24_4 1_555 1_555
C33_4 H29_4 1_555 1_555
C34_4 H30_4 1_555 1_555
C41_4 C33_4 1_555 1_555
H36_4 C45_4 1_555 1_555
C47_4 C41_4 1_555 1_555
H38_4 C47_4 1_555 1_555
H39_4 C48_4 1_555 1_555
H40_4 C48_4 1_555 1_555
C34_4 C41_4 1_555 1_555
C34_4 C45_4 1_555 1_555
C47_4 C48_4 1_555 1_555

#END
