
###############################################################################
#
# This file contains modified crystal structure data generated from the
# MOF subset of the Cambridge Structural Database (CSD) v543 
# hosted by the Cambridge Crystallographic Data Centre (CCDC).
#
# This work is licensed under the Creative Commons
# Attribution-NonCommercial-ShareAlike 4.0 International License.
# To view a copy of this license, visit
# http://creativecommons.org/licenses/by-nc-sa/4.0/
# or send a letter to
# Creative Commons, PO Box 1866, Mountain View, CA 94042, USA.
#
# CIF created using the CSD Python API on 29 September 2022
# The structure has been converted into the P1 space group
# The structure has a 3D framework
# The original CSD entry EHUFAP is in the trigonal crystal system
# The framework has been calculated to contain at least 10.0% void space
# The void calculation uses a probe of radius 1.32A, grid spacing 0.4
#
###############################################################################

data_EHUFAP
_chemical_formula_moiety         '(C72 H48 Cu3 N24)n'
_symmetry_cell_setting           triclinic
_symmetry_space_group_name_H-M   'P 1'
_symmetry_Int_Tables_number      1
_space_group_name_Hall           'P 1'
loop_
_symmetry_equiv_pos_site_id
_symmetry_equiv_pos_as_xyz
1 x,y,z
_cell_length_a                   15.1399(10)
_cell_length_b                   15.1399(10)
_cell_length_c                   8.9784(12)
_cell_angle_alpha                90
_cell_angle_beta                 90
_cell_angle_gamma                120
_cell_volume                     1782.28
loop_
_atom_site_label
_atom_site_type_symbol
_atom_site_fract_x
_atom_site_fract_y
_atom_site_fract_z
Cu3 Cu -0.0000 0.24677(3) 0.2500
Cu1 Cu 0.24677(3) -0.0000 0.2500
C3 C 0.4535(3) 0.0468(4) 0.0599(6)
H2 H 0.4236 0.0816 0.1022
Cu3_2 Cu 1.0000 0.24677(3) 0.2500
C7 C 0.6051(3) 0.0378(3) 0.0188(4)
C8 C 0.5565(3) 0.0845(4) 0.0807(6)
H5 H 0.5937 0.1428 0.1380
C10 C 0.7155(2) 0.0805(2) 0.0419(4)
C11 C 0.7746(2) 0.1305(3) 0.1620(4)
H7 H 0.7508 0.1427 0.2507
N4 N 0.29995(27) 0.07927(19) 0.4341(3)
N5 N 0.87490(19) 0.1604(2) 0.1323(3)
N6 N 0.28550(28) 0.12510(19) 0.1323(3)
Cu4 Cu 0.75323(3) -0.0000 0.7500
C12 C 0.8723(2) 0.1276(2) 0.9941(3)
H8 H 0.9302 0.1375 0.9437
N3 N 0.77932(19) 0.07927(19) 0.9341(3)
Cu1_2 Cu 0.24677(3) 1.0000 0.2500
C6 C 0.1277(2) 0.8724(2) 0.0059(3)
H4 H 0.0698 0.8625 0.0563
N1 N 0.22068(19) 0.92073(19) 0.0659(3)
N7 N 0.1604(2) 0.87490(19) 0.3677(3)
C1 C 0.3949(3) 0.9622(3) 0.9812(4)
C2 C 0.4435(3) 0.9155(4) 0.9193(6)
H1 H 0.4063 0.8572 0.8620
C4 C 0.2845(2) 0.9195(2) 0.9581(4)
C5 C 0.2254(2) 0.8695(3) 0.8380(4)
H3 H 0.2492 0.8573 0.7493
N2 N 0.12510(19) 0.8396(2) 0.8677(3)
Cu2 Cu -0.0000 0.75323(3) 0.7500
Cu4_2 Cu 0.75323(3) 1.0000 0.7500
C9 C 0.5465(3) 0.9532(4) 0.9401(6)
H6 H 0.5764 0.9184 0.8978
Cu2_2 Cu 1.0000 0.75323(3) 0.7500
C6_2 C 0.1276(2) 0.2553(3) 0.0059(3)
H4_2 H 0.1375 0.2073 0.0563
N1_2 N 0.07927(19) 0.29995(27) 0.0659(3)
N7_2 N 0.12510(19) 0.28550(28) 0.3677(3)
C1_2 C 0.0378(3) 0.4327(4) 0.9812(4)
C2_2 C 0.0845(4) 0.5280(5) 0.9193(6)
H1_2 H 0.1428 0.5491 0.8620
C4_2 C 0.0805(2) 0.3650(3) 0.9581(4)
C5_2 C 0.1305(3) 0.3559(4) 0.8380(4)
H3_2 H 0.1427 0.3919 0.7493
N2_2 N 0.1604(2) 0.28550(28) 0.8677(3)
Cu2_3 Cu 0.24677(3) 0.24677(3) 0.7500
C9_2 C 0.0468(4) 0.5933(5) 0.9401(6)
H6_2 H 0.0816 0.6580 0.8978
C3_2 C 0.9532(4) 0.4067(5) 0.0599(6)
H2_2 H 0.9184 0.3420 0.1022
Cu3_3 Cu 0.75323(3) 0.75323(3) 0.2500
C7_2 C 0.9622(3) 0.5673(4) 0.0188(4)
C8_2 C 0.9155(4) 0.4720(5) 0.0807(6)
H5_2 H 0.8572 0.4509 0.1380
C10_2 C 0.9195(2) 0.6350(3) 0.0419(4)
C11_2 C 0.8695(3) 0.6441(4) 0.1620(4)
H7_2 H 0.8573 0.6081 0.2507
N4_2 N 0.92073(19) 0.22068(33) 0.4341(3)
N5_2 N 0.8396(2) 0.71450(28) 0.1323(3)
C12_2 C 0.8724(2) 0.7447(3) 0.9941(3)
H8_2 H 0.8625 0.7927 0.9437
N3_2 N 0.92073(19) 0.70005(27) 0.9341(3)
C3_3 C 0.5933(5) 0.5465(3) 0.0599(6)
H2_3 H 0.6580 0.5764 0.1022
C6_3 C 0.7447(3) 0.8723(2) 0.0059(3)
H4_3 H 0.7927 0.9302 0.0563
N1_3 N 0.70005(27) 0.77932(19) 0.0659(3)
C7_3 C 0.4327(4) 0.3949(3) 0.0188(4)
C8_3 C 0.5280(5) 0.4435(3) 0.0807(6)
H5_3 H 0.5491 0.4063 0.1380
C10_3 C 0.3650(3) 0.2845(2) 0.0419(4)
C11_3 C 0.3559(4) 0.2254(2) 0.1620(4)
H7_3 H 0.3919 0.2492 0.2507
N4_3 N 0.77932(33) 0.70005(27) 0.4341(3)
N7_3 N 0.71450(28) 0.8396(2) 0.3677(3)
C1_3 C 0.5673(4) 0.6051(3) 0.9812(4)
C2_3 C 0.4720(5) 0.5565(3) 0.9193(6)
H1_3 H 0.4509 0.5937 0.8620
C4_3 C 0.6350(3) 0.7155(2) 0.9581(4)
C5_3 C 0.6441(4) 0.7746(2) 0.8380(4)
H3_3 H 0.6081 0.7508 0.7493
N2_3 N 0.71450(28) 0.87490(19) 0.8677(3)
C9_3 C 0.4067(5) 0.4535(3) 0.9401(6)
H6_3 H 0.3420 0.4236 0.8978
C12_3 C 0.2553(3) 0.1277(2) 0.9941(3)
H8_3 H 0.2073 0.0698 0.9437
N3_3 N 0.29995(27) 0.22068(19) 0.9341(3)
C3_4 C 0.0468(4) 0.4535(3) 0.4401(6)
H2_4 H 0.0816 0.4236 0.3978
C7_4 C 0.0378(3) 0.6051(3) 0.4812(4)
C8_4 C 0.0845(4) 0.5565(3) 0.4193(6)
H5_4 H 0.1428 0.5937 0.3620
C10_4 C 0.0805(2) 0.7155(2) 0.4581(4)
C11_4 C 0.1305(3) 0.7746(2) 0.3380(4)
H7_4 H 0.1427 0.7508 0.2493
C12_4 C 0.1276(2) 0.8723(2) 0.5059(3)
H8_4 H 0.1375 0.9302 0.5563
N3_4 N 0.07927(19) 0.77932(19) 0.5659(3)
C1_4 C 0.9622(3) 0.3949(3) 0.5188(4)
C2_4 C 0.9155(4) 0.4435(3) 0.5807(6)
H1_4 H 0.8572 0.4063 0.6380
C4_4 C 0.9195(2) 0.2845(2) 0.5419(4)
C5_4 C 0.8695(3) 0.2254(2) 0.6620(4)
H3_4 H 0.8573 0.2492 0.7507
C6_4 C 0.8724(2) 0.1277(2) 0.4941(3)
H4_4 H 0.8625 0.0698 0.4437
N2_4 N 0.8396(2) 0.12510(19) 0.6323(3)
C9_4 C 0.9532(4) 0.5465(3) 0.5599(6)
H6_4 H 0.9184 0.5764 0.6022
C1_5 C 0.4327(4) 0.0378(3) 0.5188(4)
C2_5 C 0.5280(5) 0.0845(4) 0.5807(6)
H1_5 H 0.5491 0.1428 0.6380
C4_5 C 0.3650(3) 0.0805(2) 0.5419(4)
C5_5 C 0.3559(4) 0.1305(3) 0.6620(4)
H3_5 H 0.3919 0.1427 0.7507
C6_5 C 0.2553(3) 0.1276(2) 0.4941(3)
H4_5 H 0.2073 0.1375 0.4437
N2_5 N 0.28550(28) 0.1604(2) 0.6323(3)
C9_5 C 0.5933(5) 0.0468(4) 0.5599(6)
H6_5 H 0.6580 0.0816 0.6022
C3_5 C 0.4067(5) 0.9532(4) 0.4401(6)
H2_5 H 0.3420 0.9184 0.3978
C7_5 C 0.5673(4) 0.9622(3) 0.4812(4)
C8_5 C 0.4720(5) 0.9155(4) 0.4193(6)
H5_5 H 0.4509 0.8572 0.3620
C10_5 C 0.6350(3) 0.9195(2) 0.4581(4)
C11_5 C 0.6441(4) 0.8695(3) 0.3380(4)
H7_5 H 0.6081 0.8573 0.2493
C12_5 C 0.7447(3) 0.8724(2) 0.5059(3)
H8_5 H 0.7927 0.8625 0.5563
N3_5 N 0.70005(27) 0.92073(19) 0.5659(3)
C1_6 C 0.6051(3) 0.5673(4) 0.5188(4)
C2_6 C 0.5565(3) 0.4720(5) 0.5807(6)
H1_6 H 0.5937 0.4509 0.6380
C3_6 C 0.5465(3) 0.5933(5) 0.4401(6)
H2_6 H 0.5764 0.6580 0.3978
C4_6 C 0.7155(2) 0.6350(3) 0.5419(4)
C5_6 C 0.7746(2) 0.6441(4) 0.6620(4)
H3_6 H 0.7508 0.6081 0.7507
C6_6 C 0.8723(2) 0.7447(3) 0.4941(3)
H4_6 H 0.9302 0.7927 0.4437
N2_6 N 0.87490(19) 0.71450(28) 0.6323(3)
C7_6 C 0.3949(3) 0.4327(4) 0.4812(4)
C8_6 C 0.4435(3) 0.5280(5) 0.4193(6)
H5_6 H 0.4063 0.5491 0.3620
C9_6 C 0.4535(3) 0.4067(5) 0.5599(6)
H6_6 H 0.4236 0.3420 0.6022
C10_6 C 0.2845(2) 0.3650(3) 0.4581(4)
C11_6 C 0.2254(2) 0.3559(4) 0.3380(4)
H7_6 H 0.2492 0.3919 0.2493
C12_6 C 0.1277(2) 0.2553(3) 0.5059(3)
H8_6 H 0.0698 0.2073 0.5563
N3_6 N 0.22068(19) 0.29995(27) 0.5659(3)
loop_
_geom_bond_atom_site_label_1
_geom_bond_atom_site_label_2
_geom_bond_site_symmetry_1
_geom_bond_site_symmetry_2
H2 C3 1_555 1_555
Cu3_2 N5 1_555 1_555
C7 C8 1_555 1_555
C8 C3 1_555 1_555
H5 C8 1_555 1_555
C10 C7 1_555 1_555
C11 C10 1_555 1_555
H7 C11 1_555 1_555
N4 Cu1 1_555 1_555
N5 C11 1_555 1_555
N6 Cu1 1_555 1_555
Cu4 N3 1_555 1_555
C12 H8 1_555 1_555
C12 N3 1_555 1_555
Cu1_2 N1 1_555 1_555
C6 H4 1_555 1_555
N7 Cu1_2 1_555 1_555
C6 N1 1_555 1_555
C1 C2 1_555 1_555
C2 H1 1_555 1_555
C4 C1 1_555 1_555
C5 C4 1_555 1_555
H3 C5 1_555 1_555
N2 C5 1_555 1_555
Cu2 N2 1_555 1_555
C9 C2 1_555 1_555
H6 C9 1_555 1_555
Cu3 N1_2 1_555 1_555
C6_2 H4_2 1_555 1_555
N7_2 Cu3 1_555 1_555
C6_2 N1_2 1_555 1_555
C1_2 C2_2 1_555 1_555
C2_2 H1_2 1_555 1_555
C4_2 C1_2 1_555 1_555
C5_2 C4_2 1_555 1_555
H3_2 C5_2 1_555 1_555
N2_2 C5_2 1_555 1_555
Cu2_3 N2_2 1_555 1_555
C9_2 C2_2 1_555 1_555
H6_2 C9_2 1_555 1_555
H2_2 C3_2 1_555 1_555
Cu3_3 N5_2 1_555 1_555
C7_2 C8_2 1_555 1_555
C8_2 C3_2 1_555 1_555
H5_2 C8_2 1_555 1_555
C10_2 C7_2 1_555 1_555
C11_2 C10_2 1_555 1_555
H7_2 C11_2 1_555 1_555
N4_2 Cu3_2 1_555 1_555
N5_2 C11_2 1_555 1_555
Cu2_2 N3_2 1_555 1_555
C12_2 H8_2 1_555 1_555
C12_2 N3_2 1_555 1_555
Cu3_3 N1_3 1_555 1_555
H2_3 C3_3 1_555 1_555
C6_3 H4_3 1_555 1_555
C7_3 C8_3 1_555 1_555
C8_3 C3_3 1_555 1_555
H5_3 C8_3 1_555 1_555
C10_3 C7_3 1_555 1_555
C11_3 C10_3 1_555 1_555
H7_3 C11_3 1_555 1_555
N4_3 Cu3_3 1_555 1_555
N6 C11_3 1_555 1_555
N7_3 Cu3_3 1_555 1_555
C6_3 N1_3 1_555 1_555
C1_3 C2_3 1_555 1_555
C2_3 H1_3 1_555 1_555
C4_3 C1_3 1_555 1_555
C5_3 C4_3 1_555 1_555
H3_3 C5_3 1_555 1_555
N2_3 C5_3 1_555 1_555
Cu4_2 N2_3 1_555 1_555
Cu2_3 N3_3 1_555 1_555
C9_3 C2_3 1_555 1_555
H6_3 C9_3 1_555 1_555
C12_3 H8_3 1_555 1_555
C12_3 N3_3 1_555 1_555
H2_4 C3_4 1_555 1_555
Cu2 N3_4 1_555 1_555
C7_4 C8_4 1_555 1_555
C8_4 C3_4 1_555 1_555
H5_4 C8_4 1_555 1_555
C10_4 C7_4 1_555 1_555
C11_4 C10_4 1_555 1_555
H7_4 C11_4 1_555 1_555
C12_4 H8_4 1_555 1_555
N3_4 C10_4 1_555 1_555
N7 C11_4 1_555 1_555
C12_4 N3_4 1_555 1_555
C12_4 N7 1_555 1_555
C1_4 C2_4 1_555 1_555
C2_4 H1_4 1_555 1_555
C4_4 C1_4 1_555 1_555
C5_4 C4_4 1_555 1_555
H3_4 C5_4 1_555 1_555
C6_4 H4_4 1_555 1_555
N4_2 C4_4 1_555 1_555
N2_4 C5_4 1_555 1_555
Cu4 N2_4 1_555 1_555
C9_4 C2_4 1_555 1_555
H6_4 C9_4 1_555 1_555
C6_4 N4_2 1_555 1_555
C6_4 N2_4 1_555 1_555
C1_5 C2_5 1_555 1_555
C2_5 H1_5 1_555 1_555
C4_5 C1_5 1_555 1_555
C5_5 C4_5 1_555 1_555
H3_5 C5_5 1_555 1_555
C6_5 H4_5 1_555 1_555
N4 C4_5 1_555 1_555
N2_5 C5_5 1_555 1_555
Cu2_3 N2_5 1_555 1_555
C9_5 C2_5 1_555 1_555
H6_5 C9_5 1_555 1_555
C6_5 N4 1_555 1_555
C6_5 N2_5 1_555 1_555
H2_5 C3_5 1_555 1_555
Cu4_2 N3_5 1_555 1_555
C7_5 C8_5 1_555 1_555
C8_5 C3_5 1_555 1_555
H5_5 C8_5 1_555 1_555
C10_5 C7_5 1_555 1_555
C11_5 C10_5 1_555 1_555
H7_5 C11_5 1_555 1_555
C12_5 H8_5 1_555 1_555
N3_5 C10_5 1_555 1_555
N7_3 C11_5 1_555 1_555
C12_5 N3_5 1_555 1_555
C12_5 N7_3 1_555 1_555
C1_6 C2_6 1_555 1_555
C2_6 H1_6 1_555 1_555
C3_6 C1_6 1_555 1_555
H2_6 C3_6 1_555 1_555
C4_6 C1_6 1_555 1_555
C5_6 C4_6 1_555 1_555
H3_6 C5_6 1_555 1_555
C6_6 H4_6 1_555 1_555
N4_3 C4_6 1_555 1_555
N2_6 C5_6 1_555 1_555
Cu2_2 N2_6 1_555 1_555
Cu2_3 N3_6 1_555 1_555
C7_6 C8_6 1_555 1_555
C8_6 C3_6 1_555 1_555
H5_6 C8_6 1_555 1_555
C9_6 C2_6 1_555 1_555
H6_6 C9_6 1_555 1_555
C10_6 C7_6 1_555 1_555
C11_6 C10_6 1_555 1_555
H7_6 C11_6 1_555 1_555
C12_6 H8_6 1_555 1_555
N3_6 C10_6 1_555 1_555
N7_2 C11_6 1_555 1_555
C6_6 N4_3 1_555 1_555
C6_6 N2_6 1_555 1_555
C7_6 C9_6 1_555 1_555
C12_6 N3_6 1_555 1_555
C12_6 N7_2 1_555 1_555

#END
