
###############################################################################
#
# This file contains modified crystal structure data generated from the
# MOF subset of the Cambridge Structural Database (CSD) v543 
# hosted by the Cambridge Crystallographic Data Centre (CCDC).
#
# This work is licensed under the Creative Commons
# Attribution-NonCommercial-ShareAlike 4.0 International License.
# To view a copy of this license, visit
# http://creativecommons.org/licenses/by-nc-sa/4.0/
# or send a letter to
# Creative Commons, PO Box 1866, Mountain View, CA 94042, USA.
#
# CIF created using the CSD Python API on 29 September 2022
# The structure has been converted into the P1 space group
# The structure has a 3D framework
# The original CSD entry EJAXIW is in the monoclinic crystal system
# The framework has been calculated to contain at least 10.0% void space
# The void calculation uses a probe of radius 1.32A, grid spacing 0.4
#
###############################################################################

data_EJAXIW
_chemical_formula_moiety         '(C152 H168 Co12 N24 O40 S8)n'
_symmetry_cell_setting           triclinic
_symmetry_space_group_name_H-M   'P 1'
_symmetry_Int_Tables_number      1
_space_group_name_Hall           'P 1'
loop_
_symmetry_equiv_pos_site_id
_symmetry_equiv_pos_as_xyz
1 x,y,z
_cell_length_a                   23.350(11)
_cell_length_b                   19.882(9)
_cell_length_c                   13.644(6)
_cell_angle_alpha                90
_cell_angle_beta                 106.29(2)
_cell_angle_gamma                90
_cell_volume                     6079.87
loop_
_atom_site_label
_atom_site_type_symbol
_atom_site_fract_x
_atom_site_fract_y
_atom_site_fract_z
Co1 Co 0.2500 0.2500 0.5000
Co2 Co 0.5000 0.31207(7) 0.7500
S1 S 0.37835(8) 0.35186(11) 0.5614(2)
O1 O 0.43259(19) 0.3152(3) 0.6126(4)
O2 O 0.32826(19) 0.3051(3) 0.5335(4)
N1 N 0.1984(2) 0.3404(3) 0.5016(6)
O3 O 0.3663(2) 0.4009(3) 0.6358(5)
N2 N 0.2424(3) 0.2596(3) 0.3381(6)
O4 O 0.5485(2) 0.3842(3) 0.6939(5)
O5 O 0.3840(3) 0.3854(3) 0.4709(5)
C1 C 0.0831(3) 0.6944(4) 0.7488(8)
H1 H 0.0925 0.7019 0.8188
C2 C 0.1115(4) 0.6433(5) 0.7167(10)
H2 H 0.1376 0.6156 0.7635
C3 C 0.1350(4) 0.4566(4) 0.5250(9)
N3 N 0.0440(3) 0.7338(3) 0.6902(6)
C4 C 0.2110(4) 0.2135(5) 0.2708(7)
H3 H 0.1935 0.1780 0.2961
C5 C 0.1011(4) 0.6329(4) 0.6135(9)
C6 C 0.1879(4) 0.4589(5) 0.5042(10)
H4 H 0.2047 0.5006 0.4988
C7 C 0.2696(4) 0.3064(5) 0.2997(8)
H5 H 0.2939 0.3368 0.3445
C8 C 0.1467(4) 0.3391(4) 0.5185(8)
H6 H 0.1304 0.2967 0.5213
C9 C 0.2186(4) 0.4010(5) 0.4904(8)
H7 H 0.2541 0.4053 0.4728
C10 C 0.1001(4) 0.5166(4) 0.5444(11)
H8 H 0.0682 0.5255 0.4827
H9 H 0.0816 0.5047 0.5975
C11 C 0.2038(4) 0.2164(5) 0.1711(8)
H10 H 0.1798 0.1844 0.1291
C12 C 0.2310(4) 0.2653(5) 0.1273(6)
C13 C 0.0618(4) 0.6730(5) 0.5505(10)
H11 H 0.0529 0.6670 0.4802
C14 C 0.1129(4) 0.3931(5) 0.5328(10)
H12 H 0.0765 0.3870 0.5471
C15 C 0.0342(4) 0.7237(5) 0.5905(9)
H13 H 0.0077 0.7521 0.5454
C16 C 0.1345(4) 0.5793(4) 0.5749(9)
H14 H 0.1459 0.5967 0.5167
H15 H 0.1708 0.5689 0.6279
C17 C 0.2642(4) 0.3130(5) 0.1970(9)
H16 H 0.2824 0.3488 0.1736
C18 C 0.2265(3) 0.2715(5) 0.0157(6)
C19 C 0.5338(6) 0.4330(7) 0.6214(13)
H19 H 0.5693 0.4559 0.6175
H20 H 0.5072 0.4645 0.6390
H21 H 0.5145 0.4130 0.5565
H26 H 0.2684 0.1817 0.0002
H27 H 0.3130 0.2424 0.0240
S2 S 0.12165(8) 0.14814(11) 0.4386(2)
O6 O 0.06741(19) 0.1848(3) 0.3874(4)
O7 O 0.17174(19) 0.1949(3) 0.4665(4)
O8 O 0.1337(2) 0.0991(3) 0.3642(5)
O9 O 0.1160(3) 0.1146(3) 0.5291(5)
N5 N 0.3016(2) 0.1596(3) 0.4984(6)
C28 C 0.3650(4) 0.0434(4) 0.4750(9)
C30 C 0.3121(4) 0.0411(5) 0.4958(10)
C31 C 0.3533(4) 0.1609(4) 0.4815(8)
H31 H 0.3696 0.2033 0.4787
C32 C 0.2814(4) 0.0990(5) 0.5096(8)
H32 H 0.2459 0.0947 0.5272
C35 C 0.3871(4) 0.1069(5) 0.4672(10)
H36 H 0.4235 0.1130 0.4529
O10 O 0.4515(2) 0.3842(3) 0.8061(5)
C38 C 0.4662(6) 0.4330(7) 0.8786(13)
H40 H 0.4307 0.4559 0.8825
H41 H 0.4928 0.4645 0.8610
H42 H 0.4855 0.4130 0.9435
N7 N 0.2576(3) 0.2404(3) 0.6619(6)
O11 O 0.56741(19) 0.3152(3) 0.8874(4)
N8 N 0.5440(3) 0.2338(3) 0.6902(6)
N9 N 0.4560(3) 0.2338(3) 0.8098(6)
Co3 Co -0.0000 0.81207(7) 0.7500
Co5 Co 0.0000 0.18793(7) 0.2500
H17 H 0.2316 0.3183 0.9998
H18 H 0.1870 0.2576 0.9760
C20 C 0.2735(3) 0.2285(5) 0.9843(6)
C21 C 0.2690(4) 0.2347(5) 0.8727(6)
C22 C 0.2962(4) 0.2836(5) 0.8289(8)
C23 C 0.2890(4) 0.2865(5) 0.7292(7)
C24 C 0.2304(4) 0.1936(5) 0.7003(8)
H22 H 0.2061 0.1632 0.6555
C25 C 0.2358(4) 0.1870(5) 0.8030(9)
H23 H 0.2176 0.1512 0.8264
H24 H 0.3065 0.3220 0.7039
H25 H 0.3202 0.3156 0.8709
C26 C 0.4169(3) 0.8056(4) 0.2512(8)
H28 H 0.4075 0.7981 0.1812
C27 C 0.3885(4) 0.8567(5) 0.2833(10)
H29 H 0.3624 0.8844 0.2365
N6 N 0.4560(3) 0.7662(3) 0.3098(6)
C29 C 0.3989(4) 0.8671(4) 0.3865(9)
H30 H 0.2953 0.9994 0.5012
C33 C 0.3999(4) 0.9834(4) 0.4556(11)
H33 H 0.4318 0.9745 0.5173
H34 H 0.4184 0.9953 0.4025
C34 C 0.4382(4) 0.8270(5) 0.4495(10)
H35 H 0.4471 0.8330 0.5198
C36 C 0.4658(4) 0.7763(5) 0.4095(9)
H37 H 0.4923 0.7479 0.4546
C37 C 0.3655(4) 0.9207(4) 0.4251(9)
H38 H 0.3541 0.9033 0.4833
H39 H 0.3292 0.9311 0.3721
Co6 Co 0.5000 0.68793(7) 0.2500
Co3_2 Co 1.0000 0.81207(7) 0.7500
Co5_2 Co 1.0000 0.18793(7) 0.2500
O4_2 O 0.0485(2) 0.8842(3) 0.6939(5)
C19_2 C 0.0338(6) 0.9330(7) 0.6214(13)
H19_2 H 0.0693 0.9559 0.6175
H20_2 H 0.0072 0.9645 0.6390
H21_2 H 0.0145 0.9130 0.5565
O11_2 O 0.06741(19) 0.8152(3) 0.8874(4)
C1_2 C 0.5831(3) 0.1944(4) 0.7488(8)
H1_2 H 0.5925 0.2019 0.8188
C2_2 C 0.6115(4) 0.1433(5) 0.7167(10)
H2_2 H 0.6376 0.1156 0.7635
C5_2 C 0.6011(4) 0.1329(4) 0.6135(9)
H4_2 H 0.7047 0.0006 0.4988
C10_2 C 0.6001(4) 0.0166(4) 0.5444(11)
H8_2 H 0.5682 0.0255 0.4827
H9_2 H 0.5816 0.0047 0.5975
C13_2 C 0.5618(4) 0.1730(5) 0.5505(10)
H11_2 H 0.5529 0.1670 0.4802
C15_2 C 0.5342(4) 0.2237(5) 0.5905(9)
H13_2 H 0.5077 0.2521 0.5454
C16_2 C 0.6345(4) 0.0793(4) 0.5749(9)
H14_2 H 0.6459 0.0967 0.5167
H15_2 H 0.6708 0.0689 0.6279
Co1_2 Co 0.7500 0.7500 0.5000
S1_2 S 0.87835(8) 0.85186(11) 0.5614(2)
O1_2 O 0.93259(19) 0.8152(3) 0.6126(4)
O2_2 O 0.82826(19) 0.8051(3) 0.5335(4)
N1_2 N 0.6984(2) 0.8404(3) 0.5016(6)
O3_2 O 0.8663(2) 0.9009(3) 0.6358(5)
N2_2 N 0.7424(3) 0.7596(3) 0.3381(6)
O5_2 O 0.8840(3) 0.8854(3) 0.4709(5)
C3_2 C 0.6350(4) 0.9566(4) 0.5250(9)
C4_2 C 0.7110(4) 0.7135(5) 0.2708(7)
H3_2 H 0.6935 0.6780 0.2961
C6_2 C 0.6879(4) 0.9589(5) 0.5042(10)
C7_2 C 0.7696(4) 0.8064(5) 0.2997(8)
H5_2 H 0.7939 0.8368 0.3445
C8_2 C 0.6467(4) 0.8391(4) 0.5185(8)
H6_2 H 0.6304 0.7967 0.5213
C9_2 C 0.7186(4) 0.9010(5) 0.4904(8)
H7_2 H 0.7541 0.9053 0.4728
C11_2 C 0.7038(4) 0.7164(5) 0.1711(8)
H10_2 H 0.6798 0.6844 0.1291
C12_2 C 0.7310(4) 0.7653(5) 0.1273(6)
C14_2 C 0.6129(4) 0.8931(5) 0.5328(10)
H12_2 H 0.5765 0.8870 0.5471
C17_2 C 0.7642(4) 0.8130(5) 0.1970(9)
H16_2 H 0.7824 0.8488 0.1736
C18_2 C 0.7265(3) 0.7715(5) 0.0157(6)
H26_2 H 0.7684 0.6817 0.0002
H27_2 H 0.8130 0.7424 0.0240
S2_2 S 0.62165(8) 0.64814(11) 0.4386(2)
O6_2 O 0.56741(19) 0.6848(3) 0.3874(4)
O7_2 O 0.67174(19) 0.6949(3) 0.4665(4)
O8_2 O 0.6337(2) 0.5991(3) 0.3642(5)
O9_2 O 0.6160(3) 0.6146(3) 0.5291(5)
N5_2 N 0.8016(2) 0.6596(3) 0.4984(6)
C26_2 C 0.9169(3) 0.3056(4) 0.2512(8)
H28_2 H 0.9075 0.2981 0.1812
C27_2 C 0.8885(4) 0.3567(5) 0.2833(10)
H29_2 H 0.8624 0.3844 0.2365
C28_2 C 0.8650(4) 0.5434(4) 0.4750(9)
N6_2 N 0.9560(3) 0.2662(3) 0.3098(6)
C29_2 C 0.8989(4) 0.3671(4) 0.3865(9)
C30_2 C 0.8121(4) 0.5411(5) 0.4958(10)
H30_2 H 0.7953 0.4994 0.5012
C31_2 C 0.8533(4) 0.6609(4) 0.4815(8)
H31_2 H 0.8696 0.7033 0.4787
C32_2 C 0.7814(4) 0.5990(5) 0.5096(8)
H32_2 H 0.7459 0.5947 0.5272
C33_2 C 0.8999(4) 0.4834(4) 0.4556(11)
H33_2 H 0.9318 0.4745 0.5173
H34_2 H 0.9184 0.4953 0.4025
C34_2 C 0.9382(4) 0.3270(5) 0.4495(10)
H35_2 H 0.9471 0.3330 0.5198
C35_2 C 0.8871(4) 0.6069(5) 0.4672(10)
H36_2 H 0.9235 0.6130 0.4529
C36_2 C 0.9658(4) 0.2763(5) 0.4095(9)
H37_2 H 0.9923 0.2479 0.4546
C37_2 C 0.8655(4) 0.4207(4) 0.4251(9)
H38_2 H 0.8541 0.4033 0.4833
H39_2 H 0.8292 0.4311 0.3721
O10_2 O 0.9515(2) 0.8842(3) 0.8061(5)
C38_2 C 0.9662(6) 0.9330(7) 0.8786(13)
H40_2 H 0.9307 0.9559 0.8825
H41_2 H 0.9928 0.9645 0.8610
H42_2 H 0.9855 0.9130 0.9435
N7_2 N 0.7576(3) 0.7404(3) 0.6619(6)
N9_2 N 0.9560(3) 0.7338(3) 0.8098(6)
H17_2 H 0.7316 0.8183 0.9998
H18_2 H 0.6870 0.7576 0.9760
C20_2 C 0.7735(3) 0.7285(5) 0.9843(6)
C21_2 C 0.7690(4) 0.7347(5) 0.8727(6)
C22_2 C 0.7962(4) 0.7836(5) 0.8289(8)
C23_2 C 0.7890(4) 0.7865(5) 0.7292(7)
C24_2 C 0.7304(4) 0.6936(5) 0.7003(8)
H22_2 H 0.7061 0.6632 0.6555
C25_2 C 0.7358(4) 0.6870(5) 0.8030(9)
H23_2 H 0.7176 0.6512 0.8264
H24_2 H 0.8065 0.8220 0.7039
H25_2 H 0.8202 0.8156 0.8709
C26_3 C 0.4169(3) 0.1944(4) 0.7512(8)
H28_3 H 0.4075 0.2019 0.6812
C27_3 C 0.3885(4) 0.1433(5) 0.7833(10)
H29_3 H 0.3624 0.1156 0.7365
C29_3 C 0.3989(4) 0.1329(4) 0.8865(9)
C33_3 C 0.3999(4) 0.0166(4) 0.9556(11)
H34_3 H 0.4184 0.0047 0.9025
C34_3 C 0.4382(4) 0.1730(5) 0.9495(10)
C36_3 C 0.4658(4) 0.2237(5) 0.9095(9)
H37_3 H 0.4923 0.2521 0.9546
C37_3 C 0.3655(4) 0.0793(4) 0.9251(9)
H38_3 H 0.3541 0.0967 0.9833
H39_3 H 0.3292 0.0689 0.8721
Co1_3 Co 0.2500 0.7500 -0.0000
S1_3 S 0.37835(8) 0.64814(11) 0.0614(2)
O1_3 O 0.43259(19) 0.6848(3) 0.1126(4)
O2_3 O 0.32826(19) 0.6949(3) 0.0335(4)
N1_3 N 0.1984(2) 0.6596(3) 0.0016(6)
O3_3 O 0.3663(2) 0.5991(3) 0.1358(5)
O4_3 O 0.5485(2) 0.6158(3) 0.1939(5)
C1_3 C 0.0831(3) 0.3056(4) 0.2488(8)
H1_3 H 0.0925 0.2981 0.3188
C2_3 C 0.1115(4) 0.3567(5) 0.2167(10)
H2_3 H 0.1376 0.3844 0.2635
C3_3 C 0.1350(4) 0.5434(4) 0.0250(9)
N3_2 N 0.0440(3) 0.2662(3) 0.1902(6)
C5_3 C 0.1011(4) 0.3671(4) 0.1135(9)
C6_3 C 0.1879(4) 0.5411(5) 0.0042(10)
C8_3 C 0.1467(4) 0.6609(4) 0.0185(8)
H6_3 H 0.1304 0.7033 0.0213
C10_3 C 0.1001(4) 0.4834(4) 0.0444(11)
H9_3 H 0.0816 0.4953 0.0975
C13_3 C 0.0618(4) 0.3270(5) 0.0505(10)
C14_3 C 0.1129(4) 0.6069(5) 0.0328(10)
H12_3 H 0.0765 0.6130 0.0471
C15_3 C 0.0342(4) 0.2763(5) 0.0905(9)
H13_3 H 0.0077 0.2479 0.0454
C16_3 C 0.1345(4) 0.4207(4) 0.0749(9)
H14_3 H 0.1459 0.4033 0.0167
H15_3 H 0.1708 0.4311 0.1279
C19_3 C 0.5338(6) 0.5670(7) 0.1214(13)
H19_3 H 0.5693 0.5441 0.1175
H20_3 H 0.5072 0.5355 0.1390
H21_3 H 0.5145 0.5870 0.0565
O9_3 O 0.1160(3) 0.8854(3) 0.0291(5)
C32_3 C 0.2814(4) 0.9010(5) 0.0096(8)
H32_3 H 0.2459 0.9053 0.0272
O10_3 O 0.4515(2) 0.6158(3) 0.3061(5)
C38_3 C 0.4662(6) 0.5670(7) 0.3786(13)
H40_3 H 0.4307 0.5441 0.3825
H41_3 H 0.4928 0.5355 0.3610
H42_3 H 0.4855 0.5870 0.4435
N7_3 N 0.2576(3) 0.7596(3) 0.1619(6)
N8_2 N 0.5440(3) 0.7662(3) 0.1902(6)
Co1_4 Co 0.2500 0.7500 1.0000
N2_3 N 0.2424(3) 0.7404(3) 0.8381(6)
O5_3 O 0.3840(3) 0.6146(3) 0.9709(5)
C4_3 C 0.2110(4) 0.7865(5) 0.7708(7)
H3_3 H 0.1935 0.8220 0.7961
H4_3 H 0.2047 0.4994 0.9988
C7_3 C 0.2696(4) 0.6936(5) 0.7997(8)
H5_3 H 0.2939 0.6632 0.8445
C9_3 C 0.2186(4) 0.5990(5) 0.9904(8)
H7_3 H 0.2541 0.5947 0.9728
H8_3 H 0.0682 0.4745 0.9827
C11_3 C 0.2038(4) 0.7836(5) 0.6711(8)
H10_3 H 0.1798 0.8156 0.6291
C12_3 C 0.2310(4) 0.7347(5) 0.6273(6)
H11_3 H 0.0529 0.3330 0.9802
C17_3 C 0.2642(4) 0.6870(5) 0.6970(9)
H16_3 H 0.2824 0.6512 0.6736
C18_3 C 0.2265(3) 0.7285(5) 0.5157(6)
H17_3 H 0.2316 0.6817 0.4998
H18_3 H 0.1870 0.7424 0.4760
C20_3 C 0.2735(3) 0.7715(5) 0.4843(6)
C21_3 C 0.2690(4) 0.7653(5) 0.3727(6)
C22_3 C 0.2962(4) 0.7164(5) 0.3289(8)
C23_3 C 0.2890(4) 0.7135(5) 0.2292(7)
C24_3 C 0.2304(4) 0.8064(5) 0.2003(8)
H22_3 H 0.2061 0.8368 0.1555
C25_3 C 0.2358(4) 0.8130(5) 0.3030(9)
H23_3 H 0.2176 0.8488 0.3264
H24_3 H 0.3065 0.6780 0.2039
H25_3 H 0.3202 0.6844 0.3709
H26_3 H 0.2684 0.8183 0.5002
H27_3 H 0.3130 0.7576 0.5240
S2_3 S 0.12165(8) 0.85186(11) 0.9386(2)
O7_3 O 0.17174(19) 0.8051(3) 0.9665(4)
O8_3 O 0.1337(2) 0.9009(3) 0.8642(5)
N5_3 N 0.3016(2) 0.8404(3) 0.9984(6)
C28_3 C 0.3650(4) 0.9566(4) 0.9750(9)
C30_3 C 0.3121(4) 0.9589(5) 0.9958(10)
C31_3 C 0.3533(4) 0.8391(4) 0.9815(8)
H31_3 H 0.3696 0.7967 0.9787
C35_3 C 0.3871(4) 0.8931(5) 0.9672(10)
H36_3 H 0.4235 0.8870 0.9529
O4_4 O 0.0485(2) 0.1158(3) 0.1939(5)
C19_4 C 0.0338(6) 0.0670(7) 0.1214(13)
H19_4 H 0.0693 0.0441 0.1175
H20_4 H 0.0072 0.0355 0.1390
H21_4 H 0.0145 0.0870 0.0565
Co1_5 Co 0.7500 0.2500 -0.0000
S1_4 S 0.87835(8) 0.14814(11) 0.0614(2)
O1_4 O 0.93259(19) 0.1848(3) 0.1126(4)
O2_4 O 0.82826(19) 0.1949(3) 0.0335(4)
N1_4 N 0.6984(2) 0.1596(3) 0.0016(6)
O3_4 O 0.8663(2) 0.0991(3) 0.1358(5)
C3_4 C 0.6350(4) 0.0434(4) 0.0250(9)
C6_4 C 0.6879(4) 0.0411(5) 0.0042(10)
C8_4 C 0.6467(4) 0.1609(4) 0.0185(8)
H6_4 H 0.6304 0.2033 0.0213
C14_4 C 0.6129(4) 0.1069(5) 0.0328(10)
H12_4 H 0.5765 0.1130 0.0471
O9_4 O 0.6160(3) 0.3854(3) 0.0291(5)
H30_3 H 0.7953 0.5006 0.0012
C32_4 C 0.7814(4) 0.4010(5) 0.0096(8)
H32_4 H 0.7459 0.4053 0.0272
H33_3 H 0.9318 0.5255 0.0173
H35_3 H 0.9471 0.6670 0.0198
O10_4 O 0.9515(2) 0.1158(3) 0.3061(5)
C38_4 C 0.9662(6) 0.0670(7) 0.3786(13)
H40_4 H 0.9307 0.0441 0.3825
H41_4 H 0.9928 0.0355 0.3610
H42_4 H 0.9855 0.0870 0.4435
N7_4 N 0.7576(3) 0.2596(3) 0.1619(6)
Co1_6 Co 0.7500 0.2500 1.0000
N2_4 N 0.7424(3) 0.2404(3) 0.8381(6)
O5_4 O 0.8840(3) 0.1146(3) 0.9709(5)
C4_4 C 0.7110(4) 0.2865(5) 0.7708(7)
H3_4 H 0.6935 0.3220 0.7961
C7_4 C 0.7696(4) 0.1936(5) 0.7997(8)
H5_4 H 0.7939 0.1632 0.8445
C9_4 C 0.7186(4) 0.0990(5) 0.9904(8)
H7_4 H 0.7541 0.0947 0.9728
C11_4 C 0.7038(4) 0.2836(5) 0.6711(8)
H10_4 H 0.6798 0.3156 0.6291
C12_4 C 0.7310(4) 0.2347(5) 0.6273(6)
C17_4 C 0.7642(4) 0.1870(5) 0.6970(9)
H16_4 H 0.7824 0.1512 0.6736
C18_4 C 0.7265(3) 0.2285(5) 0.5157(6)
H17_4 H 0.7316 0.1817 0.4998
H18_4 H 0.6870 0.2424 0.4760
C20_4 C 0.7735(3) 0.2715(5) 0.4843(6)
C21_4 C 0.7690(4) 0.2653(5) 0.3727(6)
C22_4 C 0.7962(4) 0.2164(5) 0.3289(8)
C23_4 C 0.7890(4) 0.2135(5) 0.2292(7)
C24_4 C 0.7304(4) 0.3064(5) 0.2003(8)
H22_4 H 0.7061 0.3368 0.1555
C25_4 C 0.7358(4) 0.3130(5) 0.3030(9)
H23_4 H 0.7176 0.3488 0.3264
H24_4 H 0.8065 0.1780 0.2039
H25_4 H 0.8202 0.1844 0.3709
H26_4 H 0.7684 0.3183 0.5002
H27_4 H 0.8130 0.2576 0.5240
S2_4 S 0.62165(8) 0.35186(11) 0.9386(2)
O7_4 O 0.67174(19) 0.3051(3) 0.9665(4)
O8_4 O 0.6337(2) 0.4009(3) 0.8642(5)
N5_4 N 0.8016(2) 0.3404(3) 0.9984(6)
C26_4 C 0.9169(3) 0.6944(4) 0.7512(8)
H28_4 H 0.9075 0.7019 0.6812
C27_4 C 0.8885(4) 0.6433(5) 0.7833(10)
H29_4 H 0.8624 0.6156 0.7365
C28_4 C 0.8650(4) 0.4566(4) 0.9750(9)
C29_4 C 0.8989(4) 0.6329(4) 0.8865(9)
C30_4 C 0.8121(4) 0.4589(5) 0.9958(10)
C31_4 C 0.8533(4) 0.3391(4) 0.9815(8)
H31_4 H 0.8696 0.2967 0.9787
C33_4 C 0.8999(4) 0.5166(4) 0.9556(11)
H34_4 H 0.9184 0.5047 0.9025
C34_4 C 0.9382(4) 0.6730(5) 0.9495(10)
C35_4 C 0.8871(4) 0.3931(5) 0.9672(10)
H36_4 H 0.9235 0.3870 0.9529
C36_4 C 0.9658(4) 0.7237(5) 0.9095(9)
H37_4 H 0.9923 0.7521 0.9546
C37_4 C 0.8655(4) 0.5793(4) 0.9251(9)
H38_4 H 0.8541 0.5967 0.9833
H39_4 H 0.8292 0.5689 0.8721
C1_4 C 0.5831(3) 0.8056(4) 0.2488(8)
H1_4 H 0.5925 0.7981 0.3188
C2_4 C 0.6115(4) 0.8567(5) 0.2167(10)
H2_4 H 0.6376 0.8844 0.2635
C5_4 C 0.6011(4) 0.8671(4) 0.1135(9)
C10_4 C 0.6001(4) 0.9834(4) 0.0444(11)
H9_4 H 0.5816 0.9953 0.0975
C13_4 C 0.5618(4) 0.8270(5) 0.0505(10)
C15_4 C 0.5342(4) 0.7763(5) 0.0905(9)
H13_4 H 0.5077 0.7479 0.0454
C16_4 C 0.6345(4) 0.9207(4) 0.0749(9)
H14_4 H 0.6459 0.9033 0.0167
H15_4 H 0.6708 0.9311 0.1279
H30_4 H 0.2953 0.0006 0.0012
H33_4 H 0.4318 0.0255 0.0173
H35_4 H 0.4471 0.1670 0.0198
H4_4 H 0.7047 0.9994 0.9988
H8_4 H 0.5682 0.9745 0.9827
H11_4 H 0.5529 0.8330 0.9802
loop_
_geom_bond_atom_site_label_1
_geom_bond_atom_site_label_2
_geom_bond_site_symmetry_1
_geom_bond_site_symmetry_2
Co1 O2 1_555 1_555
Co2 O1 1_555 1_555
S1 O1 1_555 1_555
O2 S1 1_555 1_555
N1 Co1 1_555 1_555
O3 S1 1_555 1_555
N2 Co1 1_555 1_555
O4 Co2 1_555 1_555
O5 S1 1_555 1_555
C1 H1 1_555 1_555
C2 C1 1_555 1_555
H2 C2 1_555 1_555
C3 C6 1_555 1_555
N3 C1 1_555 1_555
C4 N2 1_555 1_555
H3 C4 1_555 1_555
C5 C2 1_555 1_555
C6 H4 1_555 1_555
C7 N2 1_555 1_555
H5 C7 1_555 1_555
C8 N1 1_555 1_555
H6 C8 1_555 1_555
C9 N1 1_555 1_555
H7 C9 1_555 1_555
C10 C3 1_555 1_555
H8 C10 1_555 1_555
H9 C10 1_555 1_555
C11 C4 1_555 1_555
H10 C11 1_555 1_555
C12 C11 1_555 1_555
C13 C5 1_555 1_555
H11 C13 1_555 1_555
C14 C3 1_555 1_555
H12 C14 1_555 1_555
C15 N3 1_555 1_555
H13 C15 1_555 1_555
C16 C5 1_555 1_555
H14 C16 1_555 1_555
H15 C16 1_555 1_555
C17 C7 1_555 1_555
H16 C17 1_555 1_555
C18 C12 1_555 1_555
C19 O4 1_555 1_555
H19 C19 1_555 1_555
H20 C19 1_555 1_555
H21 C19 1_555 1_555
S2 O6 1_555 1_555
O6 Co5 1_555 1_555
O7 Co1 1_555 1_555
O8 S2 1_555 1_555
O9 S2 1_555 1_555
N5 Co1 1_555 1_555
C28 C30 1_555 1_555
C31 N5 1_555 1_555
H31 C31 1_555 1_555
C32 N5 1_555 1_555
H32 C32 1_555 1_555
C35 C28 1_555 1_555
H36 C35 1_555 1_555
O10 Co2 1_555 1_555
C38 O10 1_555 1_555
H40 C38 1_555 1_555
H41 C38 1_555 1_555
H42 C38 1_555 1_555
N7 Co1 1_555 1_555
O11 Co2 1_555 1_555
N8 Co2 1_555 1_555
N9 Co2 1_555 1_555
Co3 N3 1_555 1_555
C6 C9 1_555 1_555
C8 C14 1_555 1_555
C10 C16 1_555 1_555
C12 C17 1_555 1_555
C13 C15 1_555 1_555
S2 O7 1_555 1_555
C30 C32 1_555 1_555
C31 C35 1_555 1_555
C21 C20 1_555 1_555
C22 C21 1_555 1_555
C23 C22 1_555 1_555
N7 C23 1_555 1_555
C24 N7 1_555 1_555
H22 C24 1_555 1_555
C25 C21 1_555 1_555
H23 C25 1_555 1_555
H24 C23 1_555 1_555
H25 C22 1_555 1_555
C24 C25 1_555 1_555
C26 H28 1_555 1_555
C27 C26 1_555 1_555
H29 C27 1_555 1_555
N6 C26 1_555 1_555
C29 C27 1_555 1_555
H33 C33 1_555 1_555
H34 C33 1_555 1_555
C34 C29 1_555 1_555
H35 C34 1_555 1_555
C36 N6 1_555 1_555
H37 C36 1_555 1_555
C37 C29 1_555 1_555
H38 C37 1_555 1_555
H39 C37 1_555 1_555
Co6 N6 1_555 1_555
C33 C37 1_555 1_555
C34 C36 1_555 1_555
O4_2 Co3 1_555 1_555
C19_2 O4_2 1_555 1_555
H19_2 C19_2 1_555 1_555
H20_2 C19_2 1_555 1_555
H21_2 C19_2 1_555 1_555
O11_2 Co3 1_555 1_555
C1_2 H1_2 1_555 1_555
C2_2 C1_2 1_555 1_555
H2_2 C2_2 1_555 1_555
N8 C1_2 1_555 1_555
C5_2 C2_2 1_555 1_555
H8_2 C10_2 1_555 1_555
H9_2 C10_2 1_555 1_555
C13_2 C5_2 1_555 1_555
H11_2 C13_2 1_555 1_555
C15_2 N8 1_555 1_555
H13_2 C15_2 1_555 1_555
C16_2 C5_2 1_555 1_555
H14_2 C16_2 1_555 1_555
H15_2 C16_2 1_555 1_555
C10_2 C16_2 1_555 1_555
C13_2 C15_2 1_555 1_555
Co1_2 O2_2 1_555 1_555
Co3_2 O1_2 1_555 1_555
S1_2 O1_2 1_555 1_555
O2_2 S1_2 1_555 1_555
N1_2 Co1_2 1_555 1_555
O3_2 S1_2 1_555 1_555
N2_2 Co1_2 1_555 1_555
O5_2 S1_2 1_555 1_555
C3_2 C6_2 1_555 1_555
C4_2 N2_2 1_555 1_555
H3_2 C4_2 1_555 1_555
C7_2 N2_2 1_555 1_555
H5_2 C7_2 1_555 1_555
C8_2 N1_2 1_555 1_555
H6_2 C8_2 1_555 1_555
C9_2 N1_2 1_555 1_555
H7_2 C9_2 1_555 1_555
C11_2 C4_2 1_555 1_555
H10_2 C11_2 1_555 1_555
C12_2 C11_2 1_555 1_555
C14_2 C3_2 1_555 1_555
H12_2 C14_2 1_555 1_555
C17_2 C7_2 1_555 1_555
H16_2 C17_2 1_555 1_555
C18_2 C12_2 1_555 1_555
S2_2 O6_2 1_555 1_555
O6_2 Co6 1_555 1_555
O7_2 Co1_2 1_555 1_555
O8_2 S2_2 1_555 1_555
O9_2 S2_2 1_555 1_555
N5_2 Co1_2 1_555 1_555
C26_2 H28_2 1_555 1_555
C27_2 C26_2 1_555 1_555
H29_2 C27_2 1_555 1_555
C28_2 C30_2 1_555 1_555
N6_2 C26_2 1_555 1_555
C29_2 C27_2 1_555 1_555
C30_2 H30_2 1_555 1_555
C31_2 N5_2 1_555 1_555
H31_2 C31_2 1_555 1_555
C32_2 N5_2 1_555 1_555
H32_2 C32_2 1_555 1_555
C33_2 C28_2 1_555 1_555
H33_2 C33_2 1_555 1_555
H34_2 C33_2 1_555 1_555
C34_2 C29_2 1_555 1_555
H35_2 C34_2 1_555 1_555
C35_2 C28_2 1_555 1_555
H36_2 C35_2 1_555 1_555
C36_2 N6_2 1_555 1_555
H37_2 C36_2 1_555 1_555
C37_2 C29_2 1_555 1_555
H38_2 C37_2 1_555 1_555
H39_2 C37_2 1_555 1_555
O10_2 Co3_2 1_555 1_555
C38_2 O10_2 1_555 1_555
H40_2 C38_2 1_555 1_555
H41_2 C38_2 1_555 1_555
H42_2 C38_2 1_555 1_555
N7_2 Co1_2 1_555 1_555
N9_2 Co3_2 1_555 1_555
Co5_2 N6_2 1_555 1_555
C6_2 C9_2 1_555 1_555
C8_2 C14_2 1_555 1_555
C12_2 C17_2 1_555 1_555
S2_2 O7_2 1_555 1_555
C30_2 C32_2 1_555 1_555
C31_2 C35_2 1_555 1_555
C33_2 C37_2 1_555 1_555
C34_2 C36_2 1_555 1_555
C21_2 C20_2 1_555 1_555
C22_2 C21_2 1_555 1_555
C23_2 C22_2 1_555 1_555
N7_2 C23_2 1_555 1_555
C24_2 N7_2 1_555 1_555
H22_2 C24_2 1_555 1_555
C25_2 C21_2 1_555 1_555
H23_2 C25_2 1_555 1_555
H24_2 C23_2 1_555 1_555
H25_2 C22_2 1_555 1_555
C24_2 C25_2 1_555 1_555
C26_3 H28_3 1_555 1_555
C27_3 C26_3 1_555 1_555
H29_3 C27_3 1_555 1_555
N9 C26_3 1_555 1_555
C29_3 C27_3 1_555 1_555
H34_3 C33_3 1_555 1_555
C34_3 C29_3 1_555 1_555
C36_3 N9 1_555 1_555
H37_3 C36_3 1_555 1_555
C37_3 C29_3 1_555 1_555
H38_3 C37_3 1_555 1_555
H39_3 C37_3 1_555 1_555
C33_3 C37_3 1_555 1_555
C34_3 C36_3 1_555 1_555
Co1_3 O2_3 1_555 1_555
Co6 O1_3 1_555 1_555
S1_3 O1_3 1_555 1_555
O2_3 S1_3 1_555 1_555
N1_3 Co1_3 1_555 1_555
O3_3 S1_3 1_555 1_555
O4_3 Co6 1_555 1_555
C1_3 H1_3 1_555 1_555
C2_3 C1_3 1_555 1_555
H2_3 C2_3 1_555 1_555
C3_3 C6_3 1_555 1_555
N3_2 C1_3 1_555 1_555
C5_3 C2_3 1_555 1_555
C8_3 N1_3 1_555 1_555
H6_3 C8_3 1_555 1_555
C10_3 C3_3 1_555 1_555
H9_3 C10_3 1_555 1_555
C13_3 C5_3 1_555 1_555
C14_3 C3_3 1_555 1_555
H12_3 C14_3 1_555 1_555
C15_3 N3_2 1_555 1_555
H13_3 C15_3 1_555 1_555
C16_3 C5_3 1_555 1_555
H14_3 C16_3 1_555 1_555
H15_3 C16_3 1_555 1_555
C19_3 O4_3 1_555 1_555
H19_3 C19_3 1_555 1_555
H20_3 C19_3 1_555 1_555
H21_3 C19_3 1_555 1_555
H32_3 C32_3 1_555 1_555
O10_3 Co6 1_555 1_555
C38_3 O10_3 1_555 1_555
H40_3 C38_3 1_555 1_555
H41_3 C38_3 1_555 1_555
H42_3 C38_3 1_555 1_555
N7_3 Co1_3 1_555 1_555
N8_2 Co6 1_555 1_555
Co5 N3_2 1_555 1_555
C8_3 C14_3 1_555 1_555
C10_3 C16_3 1_555 1_555
C13_3 C15_3 1_555 1_555
N2_3 Co1_4 1_555 1_555
C4_3 N2_3 1_555 1_555
H3_3 C4_3 1_555 1_555
C7_3 N2_3 1_555 1_555
H5_3 C7_3 1_555 1_555
H7_3 C9_3 1_555 1_555
C11_3 C4_3 1_555 1_555
H10_3 C11_3 1_555 1_555
C12_3 C11_3 1_555 1_555
C17_3 C7_3 1_555 1_555
H16_3 C17_3 1_555 1_555
C18_3 C12_3 1_555 1_555
H17_3 C18_3 1_555 1_555
H18_3 C18_3 1_555 1_555
C20_3 C18_3 1_555 1_555
C21_3 C20_3 1_555 1_555
C22_3 C21_3 1_555 1_555
C23_3 C22_3 1_555 1_555
N7_3 C23_3 1_555 1_555
C24_3 N7_3 1_555 1_555
H22_3 C24_3 1_555 1_555
C25_3 C21_3 1_555 1_555
H23_3 C25_3 1_555 1_555
H24_3 C23_3 1_555 1_555
H25_3 C22_3 1_555 1_555
H26_3 C20_3 1_555 1_555
H27_3 C20_3 1_555 1_555
S2_3 O11_2 1_555 1_555
O7_3 Co1_4 1_555 1_555
O8_3 S2_3 1_555 1_555
N5_3 Co1_4 1_555 1_555
C28_3 C30_3 1_555 1_555
C31_3 N5_3 1_555 1_555
H31_3 C31_3 1_555 1_555
C35_3 C28_3 1_555 1_555
H36_3 C35_3 1_555 1_555
C12_3 C17_3 1_555 1_555
C24_3 C25_3 1_555 1_555
S2_3 O7_3 1_555 1_555
C31_3 C35_3 1_555 1_555
O4_4 Co5 1_555 1_555
C19_4 O4_4 1_555 1_555
H19_4 C19_4 1_555 1_555
H20_4 C19_4 1_555 1_555
H21_4 C19_4 1_555 1_555
Co1_5 O2_4 1_555 1_555
Co5_2 O1_4 1_555 1_555
S1_4 O1_4 1_555 1_555
O2_4 S1_4 1_555 1_555
N1_4 Co1_5 1_555 1_555
O3_4 S1_4 1_555 1_555
C3_4 C6_4 1_555 1_555
C8_4 N1_4 1_555 1_555
H6_4 C8_4 1_555 1_555
C14_4 C3_4 1_555 1_555
H12_4 C14_4 1_555 1_555
H32_4 C32_4 1_555 1_555
O10_4 Co5_2 1_555 1_555
C38_4 O10_4 1_555 1_555
H40_4 C38_4 1_555 1_555
H41_4 C38_4 1_555 1_555
H42_4 C38_4 1_555 1_555
N7_4 Co1_5 1_555 1_555
C8_4 C14_4 1_555 1_555
N2_4 Co1_6 1_555 1_555
C4_4 N2_4 1_555 1_555
H3_4 C4_4 1_555 1_555
C7_4 N2_4 1_555 1_555
H5_4 C7_4 1_555 1_555
H7_4 C9_4 1_555 1_555
C11_4 C4_4 1_555 1_555
H10_4 C11_4 1_555 1_555
C12_4 C11_4 1_555 1_555
C17_4 C7_4 1_555 1_555
H16_4 C17_4 1_555 1_555
C18_4 C12_4 1_555 1_555
H17_4 C18_4 1_555 1_555
H18_4 C18_4 1_555 1_555
C20_4 C18_4 1_555 1_555
C21_4 C20_4 1_555 1_555
C22_4 C21_4 1_555 1_555
C23_4 C22_4 1_555 1_555
N7_4 C23_4 1_555 1_555
C24_4 N7_4 1_555 1_555
H22_4 C24_4 1_555 1_555
C25_4 C21_4 1_555 1_555
H23_4 C25_4 1_555 1_555
H24_4 C23_4 1_555 1_555
H25_4 C22_4 1_555 1_555
H26_4 C20_4 1_555 1_555
H27_4 C20_4 1_555 1_555
S2_4 O11 1_555 1_555
O7_4 Co1_6 1_555 1_555
O8_4 S2_4 1_555 1_555
N5_4 Co1_6 1_555 1_555
C26_4 H28_4 1_555 1_555
C27_4 C26_4 1_555 1_555
H29_4 C27_4 1_555 1_555
C28_4 C30_4 1_555 1_555
N9_2 C26_4 1_555 1_555
C29_4 C27_4 1_555 1_555
C31_4 N5_4 1_555 1_555
H31_4 C31_4 1_555 1_555
C33_4 C28_4 1_555 1_555
H34_4 C33_4 1_555 1_555
C34_4 C29_4 1_555 1_555
C35_4 C28_4 1_555 1_555
H36_4 C35_4 1_555 1_555
C36_4 N9_2 1_555 1_555
H37_4 C36_4 1_555 1_555
C37_4 C29_4 1_555 1_555
H38_4 C37_4 1_555 1_555
H39_4 C37_4 1_555 1_555
C12_4 C17_4 1_555 1_555
C24_4 C25_4 1_555 1_555
S2_4 O7_4 1_555 1_555
C31_4 C35_4 1_555 1_555
C33_4 C37_4 1_555 1_555
C34_4 C36_4 1_555 1_555
C1_4 H1_4 1_555 1_555
C2_4 C1_4 1_555 1_555
H2_4 C2_4 1_555 1_555
N8_2 C1_4 1_555 1_555
C5_4 C2_4 1_555 1_555
H9_4 C10_4 1_555 1_555
C13_4 C5_4 1_555 1_555
C15_4 N8_2 1_555 1_555
H13_4 C15_4 1_555 1_555
C16_4 C5_4 1_555 1_555
H14_4 C16_4 1_555 1_555
H15_4 C16_4 1_555 1_555
C10_4 C16_4 1_555 1_555
C13_4 C15_4 1_555 1_555

#END
