
###############################################################################
#
# This file contains modified crystal structure data generated from the
# MOF subset of the Cambridge Structural Database (CSD) v543 
# hosted by the Cambridge Crystallographic Data Centre (CCDC).
#
# This work is licensed under the Creative Commons
# Attribution-NonCommercial-ShareAlike 4.0 International License.
# To view a copy of this license, visit
# http://creativecommons.org/licenses/by-nc-sa/4.0/
# or send a letter to
# Creative Commons, PO Box 1866, Mountain View, CA 94042, USA.
#
# CIF created using the CSD Python API on 29 September 2022
# The structure has been converted into the P1 space group
# The structure has a 3D framework
# The original CSD entry EJEFOP is in the triclinic crystal system
# The framework has been calculated to contain at least 10.0% void space
# The void calculation uses a probe of radius 1.32A, grid spacing 0.4
#
###############################################################################

data_EJEFOP
_chemical_formula_moiety         '(C72 H52 Cd3 N12 O16)n'
_symmetry_cell_setting           triclinic
_symmetry_space_group_name_H-M   'P 1'
_symmetry_Int_Tables_number      1
_space_group_name_Hall           'P 1'
loop_
_symmetry_equiv_pos_site_id
_symmetry_equiv_pos_as_xyz
1 x,y,z
_cell_length_a                   12.148(3)
_cell_length_b                   13.123(6)
_cell_length_c                   13.980(7)
_cell_angle_alpha                75.633(4)
_cell_angle_beta                 64.450(6)
_cell_angle_gamma                67.616(2)
_cell_volume                     1849.8
loop_
_atom_site_label
_atom_site_type_symbol
_atom_site_fract_x
_atom_site_fract_y
_atom_site_fract_z
_atom_site_U_iso_or_equiv
_atom_site_thermal_displace_type
C6 C 0.0448(15) 0.1392(11) 0.7917(10) 0.0965 Uani
H4 H 0.0818 0.0789 0.8316 0.1160 Uiso
C7 C 0.0969(11) 0.2211(13) 0.7491(9) 0.0820 Uani
H5 H 0.1677 0.2205 0.7596 0.0990 Uiso
C8 C 0.0387(12) 0.3081(11) 0.6876(8) 0.0794 Uani
H6 H 0.0732 0.3660 0.6560 0.0950 Uiso
C22 C 0.0045(9) 0.2351(8) 0.3952(7) 0.0455 Uani
C23 C 0.1031(9) 0.2373(8) 0.4176(7) 0.0522 Uani
C24 C 0.1663(10) 0.1432(9) 0.4672(8) 0.0597 Uani
H21 H 0.2364 0.1425 0.4790 0.0720 Uiso
C25 C 0.1275(10) 0.0515(9) 0.4991(8) 0.0643 Uani
C26 C 0.0233(9) 0.0484(8) 0.4818(7) 0.0498 Uani
C28 C 0.1497(10) 0.3395(9) 0.3834(8) 0.0552 Uani
O3 O 0.0936(7) 0.4092(6) 0.4497(6) 0.0737 Uani
O4 O 0.2330(8) 0.3482(8) 0.2964(6) 0.0960 Uani
Cd4 Cd 0.15062(8) 0.55385(7) 0.44913(6) 0.0632 Uani
C46 C 0.2535(12) 0.0238(9) 0.1968(8) 0.0768 Uani
H35 H 0.2828 0.0408 0.2437 0.0920 Uiso
H36 H 0.1616 0.0368 0.2320 0.0920 Uiso
C47 C 0.2818(12) 0.0982(9) 0.0934(8) 0.0790 Uani
H37 H 0.3738 0.0766 0.0534 0.0950 Uiso
H38 H 0.2417 0.0880 0.0511 0.0950 Uiso
C48 C 0.2329(12) 0.2211(9) 0.1111(8) 0.0753 Uani
H39 H 0.2632 0.2299 0.1614 0.0900 Uiso
H40 H 0.1397 0.2456 0.1418 0.0900 Uiso
H41 H 0.4530 0.2790 0.0134 0.0990 Uiso
C53 C 0.0079(14) 0.3143(12) 0.0183(9) 0.0883 Uani
H43 H 0.0288 0.2615 0.0711 0.1060 Uiso
N14 N 0.2750(11) 0.2886(7) 0.0146(6) 0.0701 Uani
Cd12 Cd 0.24978(7) 0.49186(6) 0.72287(5) 0.0506 Uani
C49 C 0.3956(14) 0.3047(10) 0.9788(9) 0.0827 Uani
C50 C 0.4096(12) 0.3652(10) 0.8840(9) 0.0743 Uani
H42 H 0.4818 0.3868 0.8402 0.0890 Uiso
C51 C 0.2219(12) 0.3442(9) 0.9406(8) 0.0576 Uani
C52 C 0.0985(12) 0.3628(9) 0.9416(7) 0.0587 Uani
N10 N 0.0706(8) 0.4364(7) 0.8644(6) 0.0609 Uani
N12 N 0.3031(9) 0.3908(8) 0.8607(7) 0.0676 Uani
C18 C 0.1116(15) 0.6555(13) 0.9843(10) 0.0953 Uani
H18 H 0.1717 0.6883 0.9333 0.1140 Uiso
H22 H 0.1710 0.9896 0.5332 0.0770 Uiso
C37 C 0.3824(12) 0.7829(12) 0.3260(10) 0.0834 Uani
H27 H 0.4492 0.8077 0.3159 0.1000 Uiso
C38 C 0.3462(11) 0.7001(10) 0.3967(9) 0.0740 Uani
H28 H 0.3822 0.6586 0.4464 0.0890 Uiso
C39 C 0.2168(11) 0.7625(9) 0.3117(8) 0.0619 Uani
C40 C 0.1085(11) 0.7707(10) 0.2834(8) 0.0622 Uani
C41 C 0.0592(12) 0.8588(12) 0.2213(10) 0.0922 Uani
H29 H 0.0964 0.9151 0.1893 0.1110 Uiso
C45 C 0.3213(11) 0.9028(10) 0.1749(8) 0.0753 Uani
H33 H 0.4128 0.8915 0.1380 0.0910 Uiso
H34 H 0.2912 0.8870 0.1279 0.0910 Uiso
C57 C 0.0696(9) 0.6672(8) 0.6587(8) 0.0502 Uani
C63 C 0.0335(9) 0.8557(9) 0.5744(7) 0.0532 Uani
H49 H 0.0999 0.8553 0.5911 0.0640 Uiso
N7 N 0.0637(8) 0.6883(8) 0.3276(6) 0.0585 Uani
N8 N 0.2475(8) 0.6872(7) 0.3832(6) 0.0631 Uani
N9 N 0.3008(9) 0.8234(8) 0.2717(7) 0.0750 Uani
O9 O 0.0951(7) 0.6775(6) 0.7312(5) 0.0641 Uani
O11 O 0.1055(6) 0.5719(6) 0.6239(5) 0.0596 Uani
O20 O 0.3324(7) 0.4358(6) 0.4674(6) 0.0790 Uani
H25 H 0.3219 0.0076 0.6472 0.0840 Uiso
Cd11 Cd 0.75022(7) 0.50814(6) 0.27713(5) 0.0506 Uani
C65 C 0.3707(10) 0.3525(9) 0.5299(9) 0.0595 Uani
C66 C 0.4639(9) 0.2492(8) 0.4787(7) 0.0482 Uani
C67 C 0.4438(9) 0.1502(8) 0.5229(7) 0.0486 Uani
H50 H 0.3770 0.1481 0.5886 0.0580 Uiso
C68 C 0.5153(9) 0.0537(8) 0.4768(8) 0.0535 Uani
C69 C 0.6229(10) 0.0575(9) 0.3837(9) 0.0696 Uani
C70 C 0.6486(11) 0.1546(10) 0.3372(9) 0.0699 Uani
H52 H 0.7202 0.1548 0.2748 0.0840 Uiso
C71 C 0.5684(10) 0.2538(8) 0.3824(8) 0.0527 Uani
C72 C 0.6044(10) 0.3608(10) 0.3309(9) 0.0603 Uani
O17 O 0.3334(7) 0.3457(6) 0.6287(5) 0.0691 Uani
O21 O 0.6214(7) 0.4110(6) 0.3817(5) 0.0672 Uani
O24 O 0.6219(8) 0.3835(7) 0.2341(6) 0.0900 Uani
Cd1 Cd 0.84938(8) 0.44615(7) 0.55087(6) 0.0632 Uani
C1 C 0.6176(12) 0.2171(12) 0.6740(10) 0.0834 Uani
H1 H 0.5508 0.1923 0.6841 0.1000 Uiso
C2 C 0.6538(11) 0.2999(10) 0.6033(9) 0.0740 Uani
H2 H 0.6178 0.3414 0.5536 0.0890 Uiso
C3 C 0.7832(11) 0.2375(9) 0.6883(8) 0.0619 Uani
C4 C 0.8915(11) 0.2293(10) 0.7166(8) 0.0622 Uani
C5 C 0.9408(12) 0.1412(12) 0.7787(10) 0.0922 Uani
H3 H 0.9036 0.0849 0.8107 0.1110 Uiso
C9 C 0.6787(11) 0.0972(10) 0.8251(8) 0.0753 Uani
H7 H 0.5872 0.1085 0.8620 0.0910 Uiso
H8 H 0.7088 0.1130 0.8721 0.0910 Uiso
C21 C 0.9304(9) 0.3328(8) 0.3413(8) 0.0502 Uani
C27 C 0.9665(9) 0.1443(9) 0.4256(7) 0.0532 Uani
H23 H 0.9001 0.1447 0.4089 0.0640 Uiso
C29 C 0.6293(10) 0.6475(9) 0.4701(9) 0.0595 Uani
C30 C 0.5361(9) 0.7508(8) 0.5213(7) 0.0482 Uani
C31 C 0.5562(9) 0.8498(8) 0.4771(7) 0.0486 Uani
H24 H 0.6230 0.8519 0.4114 0.0580 Uiso
C32 C 0.4847(9) 0.9463(8) 0.5232(8) 0.0535 Uani
C33 C 0.3771(10) 0.9425(9) 0.6163(9) 0.0696 Uani
C34 C 0.3514(11) 0.8454(10) 0.6628(9) 0.0699 Uani
H26 H 0.2798 0.8452 0.7252 0.0840 Uiso
C35 C 0.4316(10) 0.7462(8) 0.6176(8) 0.0527 Uani
C36 C 0.3956(10) 0.6392(10) 0.6691(9) 0.0603 Uani
N1 N 0.9363(8) 0.3117(8) 0.6724(6) 0.0585 Uani
N2 N 0.7525(8) 0.3128(7) 0.6168(6) 0.0631 Uani
N3 N 0.6992(9) 0.1766(8) 0.7283(7) 0.0750 Uani
O1 O 0.9049(7) 0.3225(6) 0.2688(5) 0.0641 Uani
O2 O 0.8945(6) 0.4281(6) 0.3761(5) 0.0596 Uani
O5 O 0.6666(7) 0.6543(6) 0.3713(5) 0.0691 Uani
O6 O 0.6676(7) 0.5642(6) 0.5326(6) 0.0790 Uani
O7 O 0.3786(7) 0.5890(6) 0.6183(5) 0.0672 Uani
O8 O 0.3781(8) 0.6165(7) 0.7659(6) 0.0900 Uani
C54 C 0.8884(15) 0.3445(13) 0.0157(10) 0.0953 Uani
H44 H 0.8283 0.3117 0.0667 0.1140 Uiso
H48 H 0.8290 0.0104 0.4668 0.0770 Uiso
H51 H 0.6781 0.9924 0.3528 0.0840 Uiso
N11 N 0.9294(8) 0.5636(7) 0.1356(6) 0.0609 Uani
N13 N 0.6969(9) 0.6092(8) 0.1393(7) 0.0676 Uani
O14 O 0.9064(7) 0.5908(6) 0.5503(6) 0.0737 Uani
C13 C 0.6044(14) 0.6953(10) 0.0212(9) 0.0827 Uani
C14 C 0.5904(12) 0.6348(10) 0.1160(9) 0.0743 Uani
H16 H 0.5182 0.6132 0.1598 0.0890 Uiso
C15 C 0.7781(12) 0.6558(9) 0.0594(8) 0.0576 Uani
C16 C 0.9015(12) 0.6372(9) 0.0584(7) 0.0587 Uani
C10 C 0.7465(12) 0.9762(9) 0.8032(8) 0.0768 Uani
H9 H 0.7172 0.9592 0.7563 0.0920 Uiso
H10 H 0.8384 0.9632 0.7680 0.0920 Uiso
C11 C 0.7182(12) 0.9018(9) 0.9066(8) 0.0790 Uani
H11 H 0.6262 0.9234 0.9466 0.0950 Uiso
H12 H 0.7583 0.9120 0.9489 0.0950 Uiso
C12 C 0.7671(12) 0.7789(9) 0.8889(8) 0.0753 Uani
H13 H 0.7368 0.7701 0.8386 0.0900 Uiso
H14 H 0.8603 0.7544 0.8582 0.0900 Uiso
H15 H 0.5470 0.7210 0.9866 0.0990 Uiso
C17 C 0.9921(14) 0.6857(12) 0.9817(9) 0.0883 Uani
H17 H 0.9712 0.7385 0.9289 0.1060 Uiso
N6 N 0.7250(11) 0.7114(7) 0.9854(6) 0.0701 Uani
C42 C 0.9552(15) 0.8608(11) 0.2083(10) 0.0965 Uani
H30 H 0.9182 0.9211 0.1684 0.1160 Uiso
C43 C 0.9031(11) 0.7789(13) 0.2509(9) 0.0820 Uani
H31 H 0.8323 0.7795 0.2404 0.0990 Uiso
C44 C 0.9613(12) 0.6919(11) 0.3124(8) 0.0794 Uani
H32 H 0.9268 0.6340 0.3440 0.0950 Uiso
C58 C 0.9955(9) 0.7649(8) 0.6048(7) 0.0455 Uani
C59 C 0.8969(9) 0.7627(8) 0.5824(7) 0.0522 Uani
C60 C 0.8337(10) 0.8568(9) 0.5328(8) 0.0597 Uani
H47 H 0.7636 0.8575 0.5210 0.0720 Uiso
C61 C 0.8725(10) 0.9485(9) 0.5009(8) 0.0643 Uani
C62 C 0.9767(9) 0.9516(8) 0.5182(7) 0.0498 Uani
C64 C 0.8503(10) 0.6605(9) 0.6166(8) 0.0552 Uani
O16 O 0.7670(8) 0.6518(8) 0.7036(6) 0.0960 Uani
C19 C 0.1439(12) 0.5764(12) 0.0621(10) 0.0846 Uani
H19 H 0.2257 0.5534 0.0637 0.1020 Uiso
C20 C 0.0480(12) 0.5328(10) 0.1383(9) 0.0754 Uani
H20 H 0.0662 0.4808 0.1926 0.0910 Uiso
C55 C 0.8561(12) 0.4236(12) 0.9379(10) 0.0846 Uani
H45 H 0.7743 0.4466 0.9363 0.1020 Uiso
C56 C 0.9520(12) 0.4672(10) 0.8617(9) 0.0754 Uani
H46 H 0.9338 0.5192 0.8074 0.0910 Uiso
loop_
_atom_site_aniso_label
_atom_site_aniso_U_11
_atom_site_aniso_U_22
_atom_site_aniso_U_33
_atom_site_aniso_U_23
_atom_site_aniso_U_13
_atom_site_aniso_U_12
C6 0.122 0.049 0.098 0.02 -0.041 -0.023
C7 0.062 0.095 0.078 -0.02 -0.03 -0.002
C8 0.093 0.07 0.065 -0.002 -0.022 -0.027
C22 0.059 0.028 0.049 -0.001 -0.021 -0.014
C23 0.058 0.038 0.051 -0.004 -0.02 -0.006
C24 0.067 0.043 0.085 0.005 -0.037 -0.031
C25 0.076 0.044 0.076 0.007 -0.046 -0.01
C26 0.063 0.026 0.063 -0.001 -0.027 -0.015
C28 0.066 0.036 0.06 0 -0.023 -0.016
O3 0.098 0.039 0.081 -0.014 -0.027 -0.021
O4 0.099 0.117 0.072 -0.022 0.004 -0.068
Cd4 0.0947 0.0379 0.0651 0.0061 -0.0385 -0.0264
C46 0.105 0.043 0.077 0.005 -0.038 -0.02
C47 0.119 0.038 0.069 0.02 -0.031 -0.034
C48 0.109 0.044 0.054 0.005 -0.025 -0.017
C53 0.11 0.09 0.077 0.023 -0.045 -0.052
N14 0.11 0.038 0.053 0.001 -0.028 -0.02
Cd12 0.0626 0.0313 0.0525 0.0039 -0.0202 -0.0158
C49 0.127 0.056 0.075 0 -0.057 -0.021
C50 0.101 0.055 0.087 0.021 -0.048 -0.048
C51 0.089 0.037 0.051 -0.006 -0.022 -0.028
C52 0.095 0.035 0.045 0.002 -0.016 -0.035
N10 0.072 0.041 0.063 -0.003 -0.017 -0.022
N12 0.087 0.059 0.065 0.005 -0.034 -0.032
C18 0.119 0.089 0.064 0.002 -0.013 -0.049
C37 0.08 0.085 0.095 0.002 -0.043 -0.031
C38 0.083 0.06 0.082 0.016 -0.037 -0.033
C39 0.078 0.036 0.058 0.008 -0.02 -0.018
C40 0.082 0.043 0.06 -0.01 -0.024 -0.018
C41 0.087 0.09 0.107 0.03 -0.059 -0.034
C45 0.08 0.059 0.07 0.01 -0.02 -0.024
C57 0.047 0.03 0.052 0.005 -0.007 -0.009
C63 0.048 0.049 0.056 -0.01 -0.025 0.001
N7 0.067 0.057 0.057 0.003 -0.023 -0.031
N8 0.071 0.038 0.068 0.013 -0.026 -0.016
N9 0.083 0.048 0.08 0.014 -0.027 -0.023
O9 0.079 0.046 0.063 0.003 -0.034 -0.012
O11 0.073 0.039 0.06 0.007 -0.031 -0.011
O20 0.078 0.04 0.088 -0.005 -0.015 -0.006
Cd11 0.0626 0.0313 0.0525 0.0039 -0.0202 -0.0158
C65 0.06 0.04 0.076 0.003 -0.02 -0.025
C66 0.049 0.034 0.061 -0.01 -0.019 -0.011
C67 0.054 0.031 0.052 -0.002 -0.01 -0.017
C68 0.061 0.028 0.057 -0.002 -0.014 -0.01
C69 0.076 0.036 0.08 -0.008 -0.005 -0.027
C70 0.078 0.047 0.069 0.001 -0.016 -0.021
C71 0.069 0.03 0.058 -0.001 -0.026 -0.014
C72 0.057 0.047 0.06 -0.001 -0.013 -0.012
O17 0.092 0.042 0.059 -0.016 -0.021 -0.008
O21 0.084 0.051 0.061 0.005 -0.017 -0.034
O24 0.129 0.063 0.07 0.003 -0.027 -0.04
Cd1 0.0947 0.0379 0.0651 0.0061 -0.0385 -0.0264
C1 0.08 0.085 0.095 0.002 -0.043 -0.031
C2 0.083 0.06 0.082 0.016 -0.037 -0.033
C3 0.078 0.036 0.058 0.008 -0.02 -0.018
C4 0.082 0.043 0.06 -0.01 -0.024 -0.018
C5 0.087 0.09 0.107 0.03 -0.059 -0.034
C9 0.08 0.059 0.07 0.01 -0.02 -0.024
C21 0.047 0.03 0.052 0.005 -0.007 -0.009
C27 0.048 0.049 0.056 -0.01 -0.025 0.001
C29 0.06 0.04 0.076 0.003 -0.02 -0.025
C30 0.049 0.034 0.061 -0.01 -0.019 -0.011
C31 0.054 0.031 0.052 -0.002 -0.01 -0.017
C32 0.061 0.028 0.057 -0.002 -0.014 -0.01
C33 0.076 0.036 0.08 -0.008 -0.005 -0.027
C34 0.078 0.047 0.069 0.001 -0.016 -0.021
C35 0.069 0.03 0.058 -0.001 -0.026 -0.014
C36 0.057 0.047 0.06 -0.001 -0.013 -0.012
N1 0.067 0.057 0.057 0.003 -0.023 -0.031
N2 0.071 0.038 0.068 0.013 -0.026 -0.016
N3 0.083 0.048 0.08 0.014 -0.027 -0.023
O1 0.079 0.046 0.063 0.003 -0.034 -0.012
O2 0.073 0.039 0.06 0.007 -0.031 -0.011
O5 0.092 0.042 0.059 -0.016 -0.021 -0.008
O6 0.078 0.04 0.088 -0.005 -0.015 -0.006
O7 0.084 0.051 0.061 0.005 -0.017 -0.034
O8 0.129 0.063 0.07 0.003 -0.027 -0.04
C54 0.119 0.089 0.064 0.002 -0.013 -0.049
N11 0.072 0.041 0.063 -0.003 -0.017 -0.022
N13 0.087 0.059 0.065 0.005 -0.034 -0.032
O14 0.098 0.039 0.081 -0.014 -0.027 -0.021
C13 0.127 0.056 0.075 0 -0.057 -0.021
C14 0.101 0.055 0.087 0.021 -0.048 -0.048
C15 0.089 0.037 0.051 -0.006 -0.022 -0.028
C16 0.095 0.035 0.045 0.002 -0.016 -0.035
C10 0.105 0.043 0.077 0.005 -0.038 -0.02
C11 0.119 0.038 0.069 0.02 -0.031 -0.034
C12 0.109 0.044 0.054 0.005 -0.025 -0.017
C17 0.11 0.09 0.077 0.023 -0.045 -0.052
N6 0.11 0.038 0.053 0.001 -0.028 -0.02
C42 0.122 0.049 0.098 0.02 -0.041 -0.023
C43 0.062 0.095 0.078 -0.02 -0.03 -0.002
C44 0.093 0.07 0.065 -0.002 -0.022 -0.027
C58 0.059 0.028 0.049 -0.001 -0.021 -0.014
C59 0.058 0.038 0.051 -0.004 -0.02 -0.006
C60 0.067 0.043 0.085 0.005 -0.037 -0.031
C61 0.076 0.044 0.076 0.007 -0.046 -0.01
C62 0.063 0.026 0.063 -0.001 -0.027 -0.015
C64 0.066 0.036 0.06 0 -0.023 -0.016
O16 0.099 0.117 0.072 -0.022 0.004 -0.068
C19 0.077 0.072 0.099 -0.017 -0.015 -0.033
C20 0.076 0.043 0.096 -0.004 -0.028 -0.014
C55 0.077 0.072 0.099 -0.017 -0.015 -0.033
C56 0.076 0.043 0.096 -0.004 -0.028 -0.014
loop_
_geom_bond_atom_site_label_1
_geom_bond_atom_site_label_2
_geom_bond_site_symmetry_1
_geom_bond_site_symmetry_2
H4 C6 1_555 1_555
C7 C6 1_555 1_555
H5 C7 1_555 1_555
C8 C7 1_555 1_555
H6 C8 1_555 1_555
C22 C23 1_555 1_555
C23 C24 1_555 1_555
C24 H21 1_555 1_555
C25 C24 1_555 1_555
C26 C25 1_555 1_555
C28 C23 1_555 1_555
O4 C28 1_555 1_555
Cd4 O3 1_555 1_555
H35 C46 1_555 1_555
H36 C46 1_555 1_555
C47 C46 1_555 1_555
H37 C47 1_555 1_555
H38 C47 1_555 1_555
C48 C47 1_555 1_555
H39 C48 1_555 1_555
H40 C48 1_555 1_555
C53 H43 1_555 1_555
N14 C48 1_555 1_555
C28 O3 1_555 1_555
Cd12 N10 1_555 1_555
C50 C49 1_555 1_555
H42 C50 1_555 1_555
C51 C52 1_555 1_555
N10 C52 1_555 1_555
N12 Cd12 1_555 1_555
C50 N12 1_555 1_555
C51 N12 1_555 1_555
H18 C18 1_555 1_555
Cd4 N7 1_555 1_555
Cd12 O9 1_555 1_555
C37 H27 1_555 1_555
C38 C37 1_555 1_555
H28 C38 1_555 1_555
C39 C40 1_555 1_555
C40 C41 1_555 1_555
C41 H29 1_555 1_555
C45 H33 1_555 1_555
H34 C45 1_555 1_555
H49 C63 1_555 1_555
N7 C40 1_555 1_555
N8 Cd4 1_555 1_555
N9 C37 1_555 1_555
O9 C57 1_555 1_555
O11 Cd4 1_555 1_555
O20 Cd4 1_555 1_555
Cd12 O11 1_555 1_555
C38 N8 1_555 1_555
C39 N8 1_555 1_555
C39 N9 1_555 1_555
C45 N9 1_555 1_555
C57 O11 1_555 1_555
Cd12 O17 1_555 1_555
Cd11 O21 1_555 1_555
C65 C66 1_555 1_555
C66 C67 1_555 1_555
C67 H50 1_555 1_555
C69 C68 1_555 1_555
C70 C69 1_555 1_555
H52 C70 1_555 1_555
C71 C66 1_555 1_555
C72 C71 1_555 1_555
O17 C65 1_555 1_555
O20 C65 1_555 1_555
O21 C72 1_555 1_555
O24 C72 1_555 1_555
C67 C68 1_555 1_555
C70 C71 1_555 1_555
Cd1 N1 1_555 1_555
C1 H1 1_555 1_555
C2 C1 1_555 1_555
H2 C2 1_555 1_555
C3 C4 1_555 1_555
C4 C5 1_555 1_555
C5 H3 1_555 1_555
C9 H7 1_555 1_555
H8 C9 1_555 1_555
H23 C27 1_555 1_555
C29 C30 1_555 1_555
C30 C31 1_555 1_555
C31 H24 1_555 1_555
C32 C31 1_555 1_555
C33 C32 1_555 1_555
C34 C33 1_555 1_555
H26 C34 1_555 1_555
C35 C30 1_555 1_555
C36 C35 1_555 1_555
N1 C4 1_555 1_555
N2 Cd1 1_555 1_555
N3 C1 1_555 1_555
O1 C21 1_555 1_555
O2 Cd1 1_555 1_555
O5 C29 1_555 1_555
O6 Cd1 1_555 1_555
O7 C36 1_555 1_555
O8 C36 1_555 1_555
Cd11 O1 1_555 1_555
Cd12 O7 1_555 1_555
H44 C54 1_555 1_555
N11 Cd11 1_555 1_555
N13 Cd11 1_555 1_555
O14 Cd1 1_555 1_555
C2 N2 1_555 1_555
C3 N2 1_555 1_555
C3 N3 1_555 1_555
C9 N3 1_555 1_555
C21 O2 1_555 1_555
C29 O6 1_555 1_555
C34 C35 1_555 1_555
O2 Cd11 1_555 1_555
O5 Cd11 1_555 1_555
C14 C13 1_555 1_555
H16 C14 1_555 1_555
C15 C16 1_555 1_555
N11 C16 1_555 1_555
C14 N13 1_555 1_555
C15 N13 1_555 1_555
H9 C10 1_555 1_555
H10 C10 1_555 1_555
C11 C10 1_555 1_555
H11 C11 1_555 1_555
H12 C11 1_555 1_555
C12 C11 1_555 1_555
H13 C12 1_555 1_555
H14 C12 1_555 1_555
C17 H17 1_555 1_555
N6 C12 1_555 1_555
H30 C42 1_555 1_555
C43 C42 1_555 1_555
H31 C43 1_555 1_555
C44 C43 1_555 1_555
H32 C44 1_555 1_555
C58 C59 1_555 1_555
C59 C60 1_555 1_555
C60 H47 1_555 1_555
C61 C60 1_555 1_555
C64 C59 1_555 1_555
O16 C64 1_555 1_555
C61 C62 1_555 1_555
C64 O14 1_555 1_555
H19 C19 1_555 1_555
C20 C19 1_555 1_555
H20 C20 1_555 1_555
H45 C55 1_555 1_555
C56 C55 1_555 1_555
H46 C56 1_555 1_555

#END
