
###############################################################################
#
# This file contains modified crystal structure data generated from the
# MOF subset of the Cambridge Structural Database (CSD) v543 
# hosted by the Cambridge Crystallographic Data Centre (CCDC).
#
# This work is licensed under the Creative Commons
# Attribution-NonCommercial-ShareAlike 4.0 International License.
# To view a copy of this license, visit
# http://creativecommons.org/licenses/by-nc-sa/4.0/
# or send a letter to
# Creative Commons, PO Box 1866, Mountain View, CA 94042, USA.
#
# CIF created using the CSD Python API on 29 September 2022
# The structure has been converted into the P1 space group
# The structure has a 3D framework
# The original CSD entry EJIBUW is in the rhombohedral crystal system
# The framework has been calculated to contain at least 10.0% void space
# The void calculation uses a probe of radius 1.32A, grid spacing 0.4
#
###############################################################################

data_EJIBUW
_chemical_formula_moiety         '(C396 H252 N216 Zn18)n'
_symmetry_cell_setting           triclinic
_symmetry_space_group_name_H-M   'P 1'
_symmetry_Int_Tables_number      1
_space_group_name_Hall           'P 1'
loop_
_symmetry_equiv_pos_site_id
_symmetry_equiv_pos_as_xyz
1 x,y,z
_cell_length_a                   28.60(4)
_cell_length_b                   28.60(4)
_cell_length_c                   17.60(2)
_cell_angle_alpha                90
_cell_angle_beta                 90
_cell_angle_gamma                120
_cell_volume                     12467.4
loop_
_atom_site_label
_atom_site_type_symbol
_atom_site_fract_x
_atom_site_fract_y
_atom_site_fract_z
Zn1 Zn 0.15980(4) 0.31800(7) 0.08420(5)
N1 N 0.2171(5) 0.3950(5) 0.1577(6)
N2 N 0.2654(7) 0.4780(7) 0.2638(9)
N3 N 0.1060(4) 0.3385(5) 0.2880(5)
N4 N 0.1183(3) 0.3073(4) 0.1819(5)
N5 N 0.0712(3) 0.2706(4) 0.2044(6)
N7 N 0.1078(3) 0.2497(5) 0.0113(5)
C1 C 0.2629(8) 0.4367(8) 0.1438(12)
H1 H 0.2780 0.4397 0.0959
C2 C 0.2907(11) 0.4764(9) 0.1944(18)
H2 H 0.3262 0.5026 0.1843
C3 C 0.2153(6) 0.4314(7) 0.2754(11)
H3 H 0.1983 0.4261 0.3222
C4 C 0.1913(5) 0.3940(5) 0.2208(6)
C5 C 0.1383(4) 0.3467(5) 0.2338(5)
C6 C 0.0632(4) 0.2913(5) 0.2685(6)
C7 C 0.0124(5) 0.2645(5) 0.3083(6)
C8 C 0.0008(5) 0.2906(6) 0.3675(8)
H4 H 0.0265 0.3246 0.3848
C12 C 0.0577(9) 0.2102(7) 0.0134(11)
H8 H 0.0371 0.2058 0.0565
N13 N 0.1188(5) 0.3650(6) 0.0442(5)
N14 N 0.2041(4) 0.2811(6) 0.1254(5)
N8 N 0.0580(6) 0.1807(7) 0.8955(9)
N9 N 0.2026(3) 0.3422(4) 0.9888(4)
N10 N 0.2520(3) 0.3793(3) 0.9689(4)
N11 N 0.2199(4) 0.3191(5) 0.8792(5)
N12 N 0.4104(4) 0.4626(4) 0.7921(5)
C13 C 0.0357(8) 0.1763(10) 0.9560(13)
H9 H 0.0009 0.1473 0.9623
C14 C 0.1066(5) 0.2222(6) 0.8871(9)
H10 H 0.1247 0.2268 0.8414
C15 C 0.1306(6) 0.2581(6) 0.9430(8)
C16 C 0.1859(4) 0.3045(5) 0.9347(6)
C17 C 0.2626(4) 0.3646(5) 0.9013(5)
C18 C 0.3107(4) 0.3985(5) 0.8623(6)
C19 C 0.3486(4) 0.4465(5) 0.8937(7)
H11 H 0.3417 0.4598 0.9380
C20 C 0.3992(4) 0.4753(5) 0.8548(8)
H12 H 0.4263 0.5062 0.8783
C21 C 0.3723(7) 0.4108(6) 0.7655(8)
H13 H 0.3814 0.3974 0.7234
C22 C 0.3224(6) 0.3788(6) 0.7981(8)
H14 H 0.2978 0.3454 0.7777
Zn3 Zn 0.49153(8) 0.50687(4) 0.75087(5)
N6 N 0.9128(4) 0.2145(5) 0.3775(5)
C9 C 0.9498(5) 0.2635(5) 0.3985(7)
H5 H 0.9410 0.2806 0.4362
C10 C 0.9278(6) 0.1917(6) 0.3276(7)
H6 H 0.9031 0.1559 0.3161
C11 C 0.9757(5) 0.2139(6) 0.2898(8)
H7 H 0.9826 0.1948 0.2529
Zn2 Zn 0.82487(8) 0.17353(4) 0.41753(5)
Zn1_2 Zn 0.68200(7) 0.84180(8) 0.08420(5)
N1_2 N 0.6050(5) 0.8221(7) 0.1577(6)
N2_2 N 0.5220(7) 0.7874(10) 0.2638(9)
N3_2 N 0.6615(5) 0.7675(6) 0.2880(5)
N4_2 N 0.6927(4) 0.8110(5) 0.1819(5)
N5_2 N 0.7294(4) 0.8006(5) 0.2044(6)
N6_2 N 0.7855(5) 0.6983(6) 0.3775(5)
N7_2 N 0.7503(5) 0.8581(6) 0.0113(5)
C1_2 C 0.5633(8) 0.8262(11) 0.1438(12)
H1_2 H 0.5603 0.8383 0.0959
C2_2 C 0.5236(9) 0.8143(14) 0.1944(18)
H2_2 H 0.4974 0.8236 0.1843
C3_2 C 0.5686(7) 0.7839(9) 0.2754(11)
H3_2 H 0.5739 0.7722 0.3222
C4_2 C 0.6060(5) 0.7973(7) 0.2208(6)
C5_2 C 0.6533(5) 0.7916(6) 0.2338(5)
C6_2 C 0.7087(5) 0.7719(6) 0.2685(6)
C7_2 C 0.7355(5) 0.7479(7) 0.3083(6)
C8_2 C 0.7094(6) 0.7102(8) 0.3675(8)
H4_2 H 0.6754 0.7019 0.3848
C9_2 C 0.7365(5) 0.6863(7) 0.3985(7)
H5_2 H 0.7194 0.6604 0.4362
C10_2 C 0.8083(6) 0.7361(8) 0.3276(7)
H6_2 H 0.8441 0.7472 0.3161
C11_2 C 0.7861(6) 0.7618(8) 0.2898(8)
H7_2 H 0.8052 0.7878 0.2529
C12_2 C 0.7898(7) 0.8475(11) 0.0134(11)
H8_2 H 0.7942 0.8313 0.0565
Zn2_2 Zn 0.82647(4) 0.65133(9) 0.41753(5)
N13_2 N 0.6350(6) 0.7539(8) 0.0442(5)
N14_2 N 0.7189(6) 0.9229(7) 0.1254(5)
N6_3 N 0.3017(6) 0.0872(4) 0.3775(5)
C9_3 C 0.3137(7) 0.0502(5) 0.3985(7)
H5_3 H 0.3396 0.0590 0.4362
C10_3 C 0.2639(8) 0.0722(6) 0.3276(7)
H6_3 H 0.2528 0.0969 0.3161
C11_3 C 0.2382(8) 0.0243(5) 0.2898(8)
H7_3 H 0.2122 0.0174 0.2529
Zn2_3 Zn 0.34867(9) 0.17513(8) 0.41753(5)
N1_3 N 0.8838(5) 0.7283(5) 0.4910(6)
N2_3 N 0.9321(7) 0.8113(7) 0.5971(9)
N3_3 N 0.7727(4) 0.6718(5) 0.6213(5)
N4_3 N 0.7850(3) 0.6406(4) 0.5152(5)
N5_3 N 0.7379(3) 0.6039(4) 0.5377(6)
N6_4 N 0.5795(4) 0.5478(5) 0.7108(5)
N7_3 N 0.7745(3) 0.5830(5) 0.3446(5)
N8_2 N 0.7247(6) 0.5140(7) 0.2288(9)
N9_2 N 0.8693(3) 0.6755(4) 0.3221(4)
N10_2 N 0.9187(3) 0.7126(3) 0.3022(4)
N11_2 N 0.8866(4) 0.6524(5) 0.2125(5)
C1_3 C 0.9296(8) 0.7700(8) 0.4771(12)
H1_3 H 0.9447 0.7730 0.4292
C2_3 C 0.9574(11) 0.8097(9) 0.5277(18)
H2_3 H 0.9929 0.8359 0.5176
C3_3 C 0.8820(6) 0.7647(7) 0.6087(11)
H3_3 H 0.8650 0.7594 0.6555
C4_3 C 0.8580(5) 0.7273(5) 0.5541(6)
C5_3 C 0.8050(4) 0.6800(5) 0.5671(5)
C6_3 C 0.7299(4) 0.6246(5) 0.6018(6)
C7_3 C 0.6791(5) 0.5978(5) 0.6416(6)
C8_3 C 0.6675(5) 0.6239(6) 0.7008(8)
H4_3 H 0.6932 0.6579 0.7181
C9_4 C 0.6165(5) 0.5968(5) 0.7318(7)
H5_4 H 0.6077 0.6139 0.7695
C10_4 C 0.5945(6) 0.5250(6) 0.6609(7)
H6_4 H 0.5698 0.4892 0.6494
C11_4 C 0.6424(5) 0.5472(6) 0.6231(8)
H7_4 H 0.6493 0.5281 0.5862
C12_3 C 0.7244(9) 0.5435(7) 0.3467(11)
H8_3 H 0.7038 0.5391 0.3898
C13_2 C 0.7024(8) 0.5096(10) 0.2893(13)
H9_2 H 0.6676 0.4806 0.2956
C14_2 C 0.7733(5) 0.5555(6) 0.2204(9)
H10_2 H 0.7914 0.5601 0.1747
C15_2 C 0.7973(6) 0.5914(6) 0.2763(8)
C16_2 C 0.8526(4) 0.6378(5) 0.2680(6)
C17_2 C 0.9293(4) 0.6979(5) 0.2346(5)
C18_2 C 0.9774(4) 0.7318(5) 0.1956(6)
C22_2 C 0.9891(6) 0.7121(6) 0.1314(8)
H14_2 H 0.9645 0.6787 0.1110
N14_3 N 0.8707(4) 0.6145(6) 0.4588(5)
N1_4 N 0.2717(5) 0.1554(7) 0.4910(6)
N2_4 N 0.1887(7) 0.1207(10) 0.5971(9)
N3_4 N 0.3282(5) 0.1008(6) 0.6213(5)
N4_4 N 0.3594(4) 0.1443(5) 0.5152(5)
N5_4 N 0.3961(4) 0.1339(5) 0.5377(6)
N6_5 N 0.4522(5) 0.0316(6) 0.7108(5)
N7_4 N 0.4170(5) 0.1914(6) 0.3446(5)
N8_3 N 0.4860(7) 0.2106(9) 0.2288(9)
N9_3 N 0.3245(4) 0.1937(5) 0.3221(4)
N10_3 N 0.2874(3) 0.2060(4) 0.3022(4)
N11_3 N 0.3476(5) 0.2341(6) 0.2125(5)
C1_4 C 0.2300(8) 0.1595(11) 0.4771(12)
H1_4 H 0.2270 0.1716 0.4292
C2_4 C 0.1903(9) 0.1476(14) 0.5277(18)
H2_4 H 0.1641 0.1569 0.5176
C3_4 C 0.2353(7) 0.1172(9) 0.6087(11)
H3_4 H 0.2406 0.1055 0.6555
C4_4 C 0.2727(5) 0.1306(7) 0.5541(6)
C5_4 C 0.3200(5) 0.1249(6) 0.5671(5)
C6_4 C 0.3754(5) 0.1052(6) 0.6018(6)
C7_4 C 0.4022(5) 0.0812(7) 0.6416(6)
C8_4 C 0.3761(6) 0.0435(8) 0.7008(8)
H4_4 H 0.3421 0.0352 0.7181
C9_5 C 0.4032(5) 0.0196(7) 0.7318(7)
C10_5 C 0.4750(6) 0.0694(8) 0.6609(7)
H6_5 H 0.5108 0.0805 0.6494
C11_5 C 0.4528(6) 0.0951(8) 0.6231(8)
H7_5 H 0.4719 0.1211 0.5862
C12_4 C 0.4565(7) 0.1808(11) 0.3467(11)
H8_4 H 0.4609 0.1646 0.3898
C13_3 C 0.4904(10) 0.1927(13) 0.2893(13)
H9_3 H 0.5194 0.1869 0.2956
C14_3 C 0.4445(6) 0.2177(8) 0.2204(9)
H10_3 H 0.4399 0.2312 0.1747
C15_3 C 0.4086(6) 0.2058(8) 0.2763(8)
C16_3 C 0.3622(5) 0.2147(6) 0.2680(6)
C17_3 C 0.3021(5) 0.2313(6) 0.2346(5)
C18_3 C 0.2682(5) 0.2455(6) 0.1956(6)
C19_2 C 0.2202(5) 0.2354(6) 0.2270(7)
H11_2 H 0.2069 0.2152 0.2713
C20_2 C 0.1914(5) 0.2572(6) 0.1881(8)
H12_2 H 0.1605 0.2534 0.2116
C21_2 C 0.2559(6) 0.2948(9) 0.0988(8)
H13_2 H 0.2693 0.3173 0.0567
C22_3 C 0.2879(6) 0.2769(8) 0.1314(8)
H14_3 H 0.3213 0.2857 0.1110
N14_4 N 0.3855(6) 0.2563(7) 0.4588(5)
N1_5 N 0.8446(7) 0.1162(5) 0.4910(6)
N2_5 N 0.8793(10) 0.0679(7) 0.5971(9)
N3_5 N 0.8992(6) 0.2273(4) 0.6213(5)
N4_5 N 0.8557(5) 0.2150(3) 0.5152(5)
N5_5 N 0.8661(5) 0.2621(3) 0.5377(6)
N6_6 N 0.9684(6) 0.4205(4) 0.7108(5)
N7_5 N 0.8086(6) 0.2255(3) 0.3446(5)
N8_4 N 0.7894(9) 0.2753(6) 0.2288(9)
N9_4 N 0.8063(5) 0.1307(3) 0.3221(4)
N10_4 N 0.7940(4) 0.0813(3) 0.3022(4)
N11_4 N 0.7659(6) 0.1134(4) 0.2125(5)
C1_5 C 0.8405(11) 0.0704(8) 0.4771(12)
H1_5 H 0.8284 0.0553 0.4292
C2_5 C 0.8524(14) 0.0426(11) 0.5277(18)
H2_5 H 0.8431 0.0071 0.5176
C3_5 C 0.8828(9) 0.1180(6) 0.6087(11)
H3_5 H 0.8945 0.1350 0.6555
C4_5 C 0.8694(7) 0.1420(5) 0.5541(6)
C5_5 C 0.8751(6) 0.1950(4) 0.5671(5)
C6_5 C 0.8948(6) 0.2701(4) 0.6018(6)
C7_5 C 0.9188(7) 0.3209(5) 0.6416(6)
C8_5 C 0.9565(8) 0.3325(5) 0.7008(8)
H4_5 H 0.9648 0.3068 0.7181
C9_6 C 0.9804(7) 0.3835(5) 0.7318(7)
C10_6 C 0.9306(8) 0.4055(6) 0.6609(7)
H6_6 H 0.9195 0.4302 0.6494
C11_6 C 0.9049(8) 0.3576(5) 0.6231(8)
H7_6 H 0.8789 0.3507 0.5862
C12_5 C 0.8192(11) 0.2756(9) 0.3467(11)
H8_5 H 0.8354 0.2962 0.3898
C13_4 C 0.8073(13) 0.2976(8) 0.2893(13)
H9_4 H 0.8131 0.3324 0.2956
C14_4 C 0.7823(8) 0.2267(5) 0.2204(9)
H10_4 H 0.7688 0.2086 0.1747
C15_4 C 0.7942(8) 0.2027(6) 0.2763(8)
C16_4 C 0.7853(6) 0.1474(4) 0.2680(6)
C17_4 C 0.7687(6) 0.0707(4) 0.2346(5)
C18_4 C 0.7545(6) 0.0226(4) 0.1956(6)
C22_4 C 0.7231(8) 0.0109(6) 0.1314(8)
H14_4 H 0.7143 0.0355 0.1110
N14_5 N 0.7437(7) 0.1293(4) 0.4588(5)
C19_3 C 0.7646(6) 0.9847(4) 0.2270(7)
H11_3 H 0.7848 0.9916 0.2713
C20_3 C 0.7428(6) 0.9341(4) 0.1881(8)
H12_3 H 0.7466 0.9070 0.2116
C21_3 C 0.7052(9) 0.9610(7) 0.0988(8)
H13_3 H 0.6827 0.9519 0.0567
N1_6 N 0.5504(5) 0.0617(5) 0.8244(6)
N2_6 N 0.5987(7) 0.1447(7) 0.9305(9)
N3_6 N 0.4393(4) 0.0052(5) 0.9547(5)
N9_5 N 0.5359(3) 0.0089(4) 0.6555(4)
N10_5 N 0.5853(3) 0.0460(3) 0.6356(4)
C1_6 C 0.5962(8) 0.1034(8) 0.8105(12)
H1_6 H 0.6113 0.1064 0.7626
C2_6 C 0.6240(11) 0.1431(9) 0.8611(18)
H2_6 H 0.6595 0.1693 0.8510
C3_6 C 0.5486(6) 0.0981(7) 0.9421(11)
H3_6 H 0.5316 0.0928 0.9889
C4_6 C 0.5246(5) 0.0607(5) 0.8875(6)
C5_6 C 0.4716(4) 0.0134(5) 0.9005(5)
C17_5 C 0.5959(4) 0.0313(5) 0.5680(5)
C18_5 C 0.6440(4) 0.0652(5) 0.5290(6)
C19_4 C 0.6819(4) 0.1132(5) 0.5604(7)
H11_4 H 0.6750 0.1265 0.6047
C20_4 C 0.7325(4) 0.1420(5) 0.5215(8)
H12_4 H 0.7596 0.1729 0.5450
C21_4 C 0.7056(7) 0.0775(6) 0.4322(8)
H13_4 H 0.7147 0.0641 0.3901
C22_5 C 0.6557(6) 0.0455(6) 0.4648(8)
H14_5 H 0.6311 0.0121 0.4444
C8_6 C 0.0427(6) 0.3769(8) 0.0342(8)
H4_6 H 0.0087 0.3686 0.0515
C9_7 C 0.0698(5) 0.3530(7) 0.0652(7)
H5_5 H 0.0527 0.3271 0.1029
N1_7 N 0.9383(5) 0.4888(7) 0.8244(6)
N2_7 N 0.8553(7) 0.4541(10) 0.9305(9)
N3_7 N 0.9948(5) 0.4342(6) 0.9547(5)
N9_6 N 0.9911(4) 0.5271(5) 0.6555(4)
N10_6 N 0.9540(3) 0.5394(4) 0.6356(4)
C1_7 C 0.8966(8) 0.4929(11) 0.8105(12)
H1_7 H 0.8936 0.5050 0.7626
C2_7 C 0.8569(9) 0.4810(14) 0.8611(18)
H2_7 H 0.8307 0.4903 0.8510
C3_7 C 0.9019(7) 0.4506(9) 0.9421(11)
H3_7 H 0.9072 0.4389 0.9889
C4_7 C 0.9393(5) 0.4640(7) 0.8875(6)
C5_7 C 0.9866(5) 0.4583(6) 0.9005(5)
C17_6 C 0.9687(5) 0.5647(6) 0.5680(5)
C18_6 C 0.9348(5) 0.5789(6) 0.5290(6)
C19_5 C 0.8868(5) 0.5688(6) 0.5604(7)
H11_5 H 0.8735 0.5486 0.6047
C20_5 C 0.8580(5) 0.5906(6) 0.5215(8)
H12_5 H 0.8271 0.5868 0.5450
C21_5 C 0.9225(6) 0.6282(9) 0.4322(8)
H13_5 H 0.9359 0.6507 0.3901
C22_6 C 0.9545(6) 0.6103(8) 0.4648(8)
H14_6 H 0.9879 0.6191 0.4444
C8_7 C 0.6231(8) 0.6659(5) 0.0342(8)
H4_7 H 0.6314 0.6402 0.0515
C9_8 C 0.6470(7) 0.7169(5) 0.0652(7)
H5_6 H 0.6729 0.7257 0.1029
N1_8 N 0.5112(7) 0.4496(5) 0.8244(6)
N2_8 N 0.5459(10) 0.4013(7) 0.9305(9)
N3_8 N 0.5658(6) 0.5607(4) 0.9547(5)
N4_6 N 0.5223(5) 0.5484(3) 0.8486(5)
N5_6 N 0.5327(5) 0.5955(3) 0.8711(6)
N7_6 N 0.4752(6) 0.5589(3) 0.6780(5)
N8_5 N 0.4560(9) 0.6087(6) 0.5622(9)
N9_7 N 0.4729(5) 0.4641(3) 0.6555(4)
N10_7 N 0.4606(4) 0.4147(3) 0.6356(4)
N11_5 N 0.4325(6) 0.4468(4) 0.5459(5)
C1_8 C 0.5071(11) 0.4038(8) 0.8105(12)
H1_8 H 0.4950 0.3887 0.7626
C2_8 C 0.5190(14) 0.3760(11) 0.8611(18)
H2_8 H 0.5097 0.3405 0.8510
C3_8 C 0.5494(9) 0.4514(6) 0.9421(11)
H3_8 H 0.5611 0.4684 0.9889
C4_8 C 0.5360(7) 0.4754(5) 0.8875(6)
C5_8 C 0.5417(6) 0.5284(4) 0.9005(5)
C6_6 C 0.5614(6) 0.6035(4) 0.9352(6)
C7_6 C 0.5854(7) 0.6543(5) 0.9750(6)
C10_7 C 0.5972(8) 0.7389(6) 0.9943(7)
H6_7 H 0.5861 0.7636 0.9828
C11_7 C 0.5715(8) 0.6910(5) 0.9565(8)
H7_7 H 0.5455 0.6841 0.9196
C12_6 C 0.4858(11) 0.6090(9) 0.6801(11)
H8_6 H 0.5020 0.6296 0.7232
C13_5 C 0.4739(13) 0.6310(8) 0.6227(13)
H9_5 H 0.4797 0.6658 0.6290
C14_5 C 0.4489(8) 0.5601(5) 0.5538(9)
H10_5 H 0.4354 0.5420 0.5081
C15_5 C 0.4608(8) 0.5361(6) 0.6097(8)
C16_5 C 0.4519(6) 0.4808(4) 0.6014(6)
C17_7 C 0.4353(6) 0.4041(4) 0.5680(5)
C18_7 C 0.4211(6) 0.3560(4) 0.5290(6)
C19_6 C 0.4312(6) 0.3181(4) 0.5604(7)
H11_6 H 0.4514 0.3250 0.6047
C20_6 C 0.4094(6) 0.2675(4) 0.5215(8)
H12_6 H 0.4132 0.2404 0.5450
C21_6 C 0.3718(9) 0.2944(7) 0.4322(8)
H13_6 H 0.3493 0.2853 0.3901
C22_7 C 0.3897(8) 0.3443(6) 0.4648(8)
H14_7 H 0.3809 0.3689 0.4444
N8_6 N 0.8193(7) 0.8773(9) 0.8955(9)
N9_8 N 0.6578(4) 0.8604(5) 0.9888(4)
N10_8 N 0.6207(3) 0.8727(4) 0.9689(4)
N11_6 N 0.6809(5) 0.9008(6) 0.8792(5)
N12_2 N 0.5374(4) 0.9478(6) 0.7921(5)
C13_6 C 0.8237(10) 0.8594(13) 0.9560(13)
H9_6 H 0.8527 0.8536 0.9623
C14_6 C 0.7778(6) 0.8844(8) 0.8871(9)
H10_6 H 0.7732 0.8979 0.8414
C15_6 C 0.7419(6) 0.8725(8) 0.9430(8)
C16_6 C 0.6955(5) 0.8814(6) 0.9347(6)
C17_8 C 0.6354(5) 0.8980(6) 0.9013(5)
C18_8 C 0.6015(5) 0.9122(6) 0.8623(6)
C19_7 C 0.5535(5) 0.9021(6) 0.8937(7)
H11_7 H 0.5402 0.8819 0.9380
C20_7 C 0.5247(5) 0.9239(6) 0.8548(8)
H12_7 H 0.4938 0.9201 0.8783
C21_7 C 0.5892(6) 0.9615(9) 0.7655(8)
H13_7 H 0.6026 0.9840 0.7234
C22_8 C 0.6212(6) 0.9436(8) 0.7981(8)
H14_8 H 0.6546 0.9524 0.7777
Zn3_2 Zn 0.49313(4) 0.98467(9) 0.75087(5)
H5_7 H 0.3861 0.9937 0.7695
N4_7 N 0.4516(3) 0.9740(4) 0.8486(5)
N5_7 N 0.4045(3) 0.9373(4) 0.8711(6)
N7_7 N 0.4411(3) 0.9164(5) 0.6780(5)
N8_7 N 0.3913(6) 0.8474(7) 0.5622(9)
N11_7 N 0.5532(4) 0.9858(5) 0.5459(5)
C6_7 C 0.3965(4) 0.9580(5) 0.9352(6)
C7_7 C 0.3457(5) 0.9312(5) 0.9750(6)
C10_8 C 0.2611(6) 0.8584(6) 0.9943(7)
H6_8 H 0.2364 0.8226 0.9828
C11_8 C 0.3090(5) 0.8806(6) 0.9565(8)
H7_8 H 0.3159 0.8615 0.9196
C12_7 C 0.3910(9) 0.8769(7) 0.6801(11)
H8_7 H 0.3704 0.8725 0.7232
C13_7 C 0.3690(8) 0.8430(10) 0.6227(13)
H9_7 H 0.3342 0.8140 0.6290
C14_7 C 0.4399(5) 0.8889(6) 0.5538(9)
H10_7 H 0.4580 0.8935 0.5081
C15_7 C 0.4639(6) 0.9248(6) 0.6097(8)
C16_7 C 0.5192(4) 0.9712(5) 0.6014(6)
Zn1_3 Zn 0.15820(8) 0.84020(4) 0.08420(5)
N1_9 N 0.1779(7) 0.7829(5) 0.1577(6)
N2_9 N 0.2126(10) 0.7346(7) 0.2638(9)
N3_9 N 0.2325(6) 0.8940(4) 0.2880(5)
N4_8 N 0.1890(5) 0.8817(3) 0.1819(5)
N5_8 N 0.1994(5) 0.9288(3) 0.2044(6)
N7_8 N 0.1419(6) 0.8922(3) 0.0113(5)
C1_9 C 0.1738(11) 0.7371(8) 0.1438(12)
H1_9 H 0.1617 0.7220 0.0959
C2_9 C 0.1857(14) 0.7093(11) 0.1944(18)
H2_9 H 0.1764 0.6738 0.1843
C3_9 C 0.2161(9) 0.7847(6) 0.2754(11)
H3_9 H 0.2278 0.8017 0.3222
C4_9 C 0.2027(7) 0.8087(5) 0.2208(6)
C5_9 C 0.2084(6) 0.8617(4) 0.2338(5)
C6_8 C 0.2281(6) 0.9368(4) 0.2685(6)
C7_8 C 0.2521(7) 0.9876(5) 0.3083(6)
C8_8 C 0.2898(8) 0.9992(5) 0.3675(8)
H4_8 H 0.2981 0.9735 0.3848
C12_8 C 0.1525(11) 0.9423(9) 0.0134(11)
H8_8 H 0.1687 0.9629 0.0565
N13_3 N 0.2461(8) 0.8812(5) 0.0442(5)
N14_6 N 0.0771(7) 0.7959(4) 0.1254(5)
C19_8 C 0.0153(4) 0.7798(5) 0.2270(7)
H11_8 H 0.0084 0.7931 0.2713
C20_8 C 0.0659(4) 0.8086(5) 0.1881(8)
H12_8 H 0.0930 0.8395 0.2116
C21_8 C 0.0390(7) 0.7441(6) 0.0988(8)
H13_8 H 0.0481 0.7307 0.0567
C8_9 C 0.3341(5) 0.9573(6) 0.0342(8)
H4_9 H 0.3598 0.9913 0.0515
C9_9 C 0.2831(5) 0.9302(5) 0.0652(7)
H5_8 H 0.2743 0.9473 0.1029
N8_8 N 0.1227(9) 0.9420(6) 0.8955(9)
N9_9 N 0.1396(5) 0.7974(3) 0.9888(4)
N10_9 N 0.1273(4) 0.7480(3) 0.9689(4)
N11_8 N 0.0992(6) 0.7801(4) 0.8792(5)
N12_3 N 0.0522(6) 0.5896(4) 0.7921(5)
C13_8 C 0.1406(13) 0.9643(8) 0.9560(13)
H9_8 H 0.1464 0.9991 0.9623
C14_8 C 0.1156(8) 0.8934(5) 0.8871(9)
H10_8 H 0.1021 0.8753 0.8414
C15_8 C 0.1275(8) 0.8694(6) 0.9430(8)
C16_8 C 0.1186(6) 0.8141(4) 0.9347(6)
C17_9 C 0.1020(6) 0.7374(4) 0.9013(5)
C18_9 C 0.0878(6) 0.6893(4) 0.8623(6)
C19_9 C 0.0979(6) 0.6514(4) 0.8937(7)
H11_9 H 0.1181 0.6583 0.9380
C20_9 C 0.0761(6) 0.6008(4) 0.8548(8)
H12_9 H 0.0799 0.5737 0.8783
C21_9 C 0.0385(9) 0.6277(7) 0.7655(8)
H13_9 H 0.0160 0.6186 0.7234
C22_9 C 0.0564(8) 0.6776(6) 0.7981(8)
H14_9 H 0.0476 0.7022 0.7777
Zn3_3 Zn 0.01533(9) 0.50847(8) 0.75087(5)
H5_9 H 0.0063 0.3923 0.7695
N4_9 N 0.0260(4) 0.4777(5) 0.8486(5)
N5_9 N 0.0627(4) 0.4673(5) 0.8711(6)
N7_9 N 0.0836(5) 0.5248(6) 0.6780(5)
N8_9 N 0.1526(7) 0.5440(9) 0.5622(9)
N11_9 N 0.0142(5) 0.5675(6) 0.5459(5)
C6_9 C 0.0420(5) 0.4386(6) 0.9352(6)
C7_9 C 0.0688(5) 0.4146(7) 0.9750(6)
C10_9 C 0.1416(6) 0.4028(8) 0.9943(7)
H6_9 H 0.1774 0.4139 0.9828
C11_9 C 0.1194(6) 0.4285(8) 0.9565(8)
H7_9 H 0.1385 0.4545 0.9196
C12_9 C 0.1231(7) 0.5142(11) 0.6801(11)
H8_9 H 0.1275 0.4980 0.7232
C13_9 C 0.1570(10) 0.5261(13) 0.6227(13)
H9_9 H 0.1860 0.5203 0.6290
C14_9 C 0.1111(6) 0.5511(8) 0.5538(9)
H10_9 H 0.1065 0.5646 0.5081
C15_9 C 0.0752(6) 0.5392(8) 0.6097(8)
C16_9 C 0.0288(5) 0.5481(6) 0.6014(6)
N6_7 N 0.0872(4) 0.7855(5) 0.6225(5)
C9_10 C 0.0502(5) 0.7365(5) 0.6015(7)
H5_10 H 0.0590 0.7194 0.5638
C10_10 C 0.0722(6) 0.8083(6) 0.6724(7)
H6_10 H 0.0969 0.8441 0.6839
C11_10 C 0.0243(5) 0.7861(6) 0.7102(8)
H7_10 H 0.0174 0.8052 0.7471
Zn2_4 Zn 0.17513(8) 0.82647(4) 0.58247(5)
N8_10 N 0.9420(6) 0.8193(7) 0.1045(9)
N9_10 N 0.7974(3) 0.6578(4) 0.0112(4)
N10_10 N 0.7480(3) 0.6207(3) 0.0311(4)
N11_10 N 0.7801(4) 0.6809(5) 0.1208(5)
N12_4 N 0.5896(4) 0.5374(4) 0.2079(5)
C13_10 C 0.9643(8) 0.8237(10) 0.0440(13)
H9_10 H 0.9991 0.8527 0.0377
C14_10 C 0.8934(5) 0.7778(6) 0.1129(9)
H10_10 H 0.8753 0.7732 0.1586
C15_10 C 0.8694(6) 0.7419(6) 0.0570(8)
C16_10 C 0.8141(4) 0.6955(5) 0.0653(6)
C17_10 C 0.7374(4) 0.6354(5) 0.0987(5)
C18_10 C 0.6893(4) 0.6015(5) 0.1377(6)
C19_10 C 0.6514(4) 0.5535(5) 0.1063(7)
H11_10 H 0.6583 0.5402 0.0620
C20_10 C 0.6008(4) 0.5247(5) 0.1452(8)
H12_10 H 0.5737 0.4938 0.1217
C21_10 C 0.6277(7) 0.5892(6) 0.2345(8)
H13_10 H 0.6186 0.6026 0.2766
C22_10 C 0.6776(6) 0.6212(6) 0.2019(8)
H14_10 H 0.7022 0.6546 0.2223
Zn3_4 Zn 0.50847(8) 0.49313(4) 0.24913(5)
Zn1_4 Zn 0.84020(4) 0.68200(7) 0.91580(5)
N1_10 N 0.7829(5) 0.6050(5) 0.8423(6)
N2_10 N 0.7346(7) 0.5220(7) 0.7362(9)
N3_10 N 0.8940(4) 0.6615(5) 0.7120(5)
N4_10 N 0.8817(3) 0.6927(4) 0.8181(5)
N5_10 N 0.9288(3) 0.7294(4) 0.7956(6)
N7_10 N 0.8922(3) 0.7503(5) 0.9887(5)
C1_10 C 0.7371(8) 0.5633(8) 0.8562(12)
H1_10 H 0.7220 0.5603 0.9041
C2_10 C 0.7093(11) 0.5236(9) 0.8056(18)
H2_10 H 0.6738 0.4974 0.8157
C3_10 C 0.7847(6) 0.5686(7) 0.7246(11)
H3_10 H 0.8017 0.5739 0.6778
C4_10 C 0.8087(5) 0.6060(5) 0.7792(6)
C5_10 C 0.8617(4) 0.6533(5) 0.7662(5)
C6_10 C 0.9368(4) 0.7087(5) 0.7315(6)
C7_10 C 0.9876(5) 0.7355(5) 0.6917(6)
C8_10 C 0.9992(5) 0.7094(6) 0.6325(8)
H4_10 H 0.9735 0.6754 0.6152
C12_10 C 0.9423(9) 0.7898(7) 0.9866(11)
H8_10 H 0.9629 0.7942 0.9435
N13_4 N 0.8812(5) 0.6350(6) 0.9558(5)
N14_7 N 0.7959(4) 0.7189(6) 0.8746(5)
Zn1_5 Zn 0.31800(7) 0.15820(8) 0.91580(5)
N1_11 N 0.3950(5) 0.1779(7) 0.8423(6)
N2_11 N 0.4780(7) 0.2126(10) 0.7362(9)
N3_11 N 0.3385(5) 0.2325(6) 0.7120(5)
N4_11 N 0.3073(4) 0.1890(5) 0.8181(5)
N5_11 N 0.2706(4) 0.1994(5) 0.7956(6)
N6_8 N 0.2145(5) 0.3017(6) 0.6225(5)
N7_11 N 0.2497(5) 0.1419(6) 0.9887(5)
C1_11 C 0.4367(8) 0.1738(11) 0.8562(12)
H1_11 H 0.4397 0.1617 0.9041
C2_11 C 0.4764(9) 0.1857(14) 0.8056(18)
H2_11 H 0.5026 0.1764 0.8157
C3_11 C 0.4314(7) 0.2161(9) 0.7246(11)
H3_11 H 0.4261 0.2278 0.6778
C4_11 C 0.3940(5) 0.2027(7) 0.7792(6)
C5_11 C 0.3467(5) 0.2084(6) 0.7662(5)
C6_11 C 0.2913(5) 0.2281(6) 0.7315(6)
C7_11 C 0.2645(5) 0.2521(7) 0.6917(6)
C8_11 C 0.2906(6) 0.2898(8) 0.6325(8)
H4_11 H 0.3246 0.2981 0.6152
C9_11 C 0.2635(5) 0.3137(7) 0.6015(7)
H5_11 H 0.2806 0.3396 0.5638
C10_11 C 0.1917(6) 0.2639(8) 0.6724(7)
H6_11 H 0.1559 0.2528 0.6839
C11_11 C 0.2139(6) 0.2382(8) 0.7102(8)
H7_11 H 0.1948 0.2122 0.7471
C12_11 C 0.2102(7) 0.1525(11) 0.9866(11)
H8_11 H 0.2058 0.1687 0.9435
Zn2_5 Zn 0.17353(4) 0.34867(9) 0.58247(5)
N13_5 N 0.3650(6) 0.2461(8) 0.9558(5)
N14_8 N 0.2811(6) 0.0771(7) 0.8746(5)
N6_9 N 0.6983(6) 0.9128(4) 0.6225(5)
C9_12 C 0.6863(7) 0.9498(5) 0.6015(7)
H5_12 H 0.6604 0.9410 0.5638
C10_12 C 0.7361(8) 0.9278(6) 0.6724(7)
H6_12 H 0.7472 0.9031 0.6839
C11_12 C 0.7618(8) 0.9757(5) 0.7102(8)
H7_12 H 0.7878 0.9826 0.7471
Zn2_6 Zn 0.65133(9) 0.82487(8) 0.58247(5)
N1_12 N 0.1162(5) 0.2717(5) 0.5090(6)
N2_12 N 0.0679(7) 0.1887(7) 0.4029(9)
N3_12 N 0.2273(4) 0.3282(5) 0.3787(5)
N4_12 N 0.2150(3) 0.3594(4) 0.4848(5)
N5_12 N 0.2621(3) 0.3961(4) 0.4623(6)
N6_10 N 0.4205(4) 0.4522(5) 0.2892(5)
N7_12 N 0.2255(3) 0.4170(5) 0.6554(5)
N8_11 N 0.2753(6) 0.4860(7) 0.7712(9)
N9_11 N 0.1307(3) 0.3245(4) 0.6779(4)
N10_11 N 0.0813(3) 0.2874(3) 0.6978(4)
N11_11 N 0.1134(4) 0.3476(5) 0.7875(5)
C1_12 C 0.0704(8) 0.2300(8) 0.5229(12)
H1_12 H 0.0553 0.2270 0.5708
C2_12 C 0.0426(11) 0.1903(9) 0.4723(18)
H2_12 H 0.0071 0.1641 0.4824
C3_12 C 0.1180(6) 0.2353(7) 0.3913(11)
H3_12 H 0.1350 0.2406 0.3445
C4_12 C 0.1420(5) 0.2727(5) 0.4459(6)
C5_12 C 0.1950(4) 0.3200(5) 0.4329(5)
C6_12 C 0.2701(4) 0.3754(5) 0.3982(6)
C7_12 C 0.3209(5) 0.4022(5) 0.3584(6)
C8_12 C 0.3325(5) 0.3761(6) 0.2992(8)
H4_12 H 0.3068 0.3421 0.2819
C9_13 C 0.3835(5) 0.4032(5) 0.2682(7)
H5_13 H 0.3923 0.3861 0.2305
C10_13 C 0.4055(6) 0.4750(6) 0.3391(7)
H6_13 H 0.4302 0.5108 0.3506
C11_13 C 0.3576(5) 0.4528(6) 0.3769(8)
H7_13 H 0.3507 0.4719 0.4138
C12_12 C 0.2756(9) 0.4565(7) 0.6533(11)
H8_12 H 0.2962 0.4609 0.6102
C13_11 C 0.2976(8) 0.4904(10) 0.7107(13)
H9_11 H 0.3324 0.5194 0.7044
C14_11 C 0.2267(5) 0.4445(6) 0.7796(9)
H10_11 H 0.2086 0.4399 0.8253
C15_11 C 0.2027(6) 0.4086(6) 0.7237(8)
C16_11 C 0.1474(4) 0.3622(5) 0.7320(6)
C17_11 C 0.0707(4) 0.3021(5) 0.7654(5)
C18_11 C 0.0226(4) 0.2682(5) 0.8044(6)
C22_11 C 0.0109(6) 0.2879(6) 0.8686(8)
H14_11 H 0.0355 0.3213 0.8890
N14_9 N 0.1293(4) 0.3855(6) 0.5412(5)
N1_13 N 0.7283(5) 0.8446(7) 0.5090(6)
N2_13 N 0.8113(7) 0.8793(10) 0.4029(9)
N3_13 N 0.6718(5) 0.8992(6) 0.3787(5)
N4_13 N 0.6406(4) 0.8557(5) 0.4848(5)
N5_13 N 0.6039(4) 0.8661(5) 0.4623(6)
N6_11 N 0.5478(5) 0.9684(6) 0.2892(5)
N7_13 N 0.5830(5) 0.8086(6) 0.6554(5)
N8_12 N 0.5140(7) 0.7894(9) 0.7712(9)
N9_12 N 0.6755(4) 0.8063(5) 0.6779(4)
N10_12 N 0.7126(3) 0.7940(4) 0.6978(4)
N11_12 N 0.6524(5) 0.7659(6) 0.7875(5)
C1_13 C 0.7700(8) 0.8405(11) 0.5229(12)
H1_13 H 0.7730 0.8284 0.5708
C2_13 C 0.8097(9) 0.8524(14) 0.4723(18)
H2_13 H 0.8359 0.8431 0.4824
C3_13 C 0.7647(7) 0.8828(9) 0.3913(11)
H3_13 H 0.7594 0.8945 0.3445
C4_13 C 0.7273(5) 0.8694(7) 0.4459(6)
C5_13 C 0.6800(5) 0.8751(6) 0.4329(5)
C6_13 C 0.6246(5) 0.8948(6) 0.3982(6)
C7_13 C 0.5978(5) 0.9188(7) 0.3584(6)
C8_13 C 0.6239(6) 0.9565(8) 0.2992(8)
H4_13 H 0.6579 0.9648 0.2819
C9_14 C 0.5968(5) 0.9804(7) 0.2682(7)
C10_14 C 0.5250(6) 0.9306(8) 0.3391(7)
H6_14 H 0.4892 0.9195 0.3506
C11_14 C 0.5472(6) 0.9049(8) 0.3769(8)
H7_14 H 0.5281 0.8789 0.4138
C12_13 C 0.5435(7) 0.8192(11) 0.6533(11)
H8_13 H 0.5391 0.8354 0.6102
C13_12 C 0.5096(10) 0.8073(13) 0.7107(13)
H9_12 H 0.4806 0.8131 0.7044
C14_12 C 0.5555(6) 0.7823(8) 0.7796(9)
H10_12 H 0.5601 0.7688 0.8253
C15_12 C 0.5914(6) 0.7942(8) 0.7237(8)
C16_12 C 0.6378(5) 0.7853(6) 0.7320(6)
C17_12 C 0.6979(5) 0.7687(6) 0.7654(5)
C18_12 C 0.7318(5) 0.7545(6) 0.8044(6)
C19_11 C 0.7798(5) 0.7646(6) 0.7730(7)
H11_11 H 0.7931 0.7848 0.7287
C20_11 C 0.8086(5) 0.7428(6) 0.8119(8)
H12_11 H 0.8395 0.7466 0.7884
C21_11 C 0.7441(6) 0.7052(9) 0.9012(8)
H13_11 H 0.7307 0.6827 0.9433
C22_12 C 0.7121(6) 0.7231(8) 0.8686(8)
H14_12 H 0.6787 0.7143 0.8890
N14_10 N 0.6145(6) 0.7437(7) 0.5412(5)
C19_12 C 0.2354(6) 0.0153(4) 0.7730(7)
H11_12 H 0.2152 0.0084 0.7287
C20_12 C 0.2572(6) 0.0659(4) 0.8119(8)
H12_12 H 0.2534 0.0930 0.7884
C21_12 C 0.2948(9) 0.0390(7) 0.9012(8)
H13_12 H 0.3173 0.0481 0.9433
N1_14 N 0.1554(7) 0.8838(5) 0.5090(6)
N2_14 N 0.1207(10) 0.9321(7) 0.4029(9)
N3_14 N 0.1008(6) 0.7727(4) 0.3787(5)
N4_14 N 0.1443(5) 0.7850(3) 0.4848(5)
N5_14 N 0.1339(5) 0.7379(3) 0.4623(6)
N6_12 N 0.0316(6) 0.5795(4) 0.2892(5)
N7_14 N 0.1914(6) 0.7745(3) 0.6554(5)
N8_13 N 0.2106(9) 0.7247(6) 0.7712(9)
N9_13 N 0.1937(5) 0.8693(3) 0.6779(4)
N10_13 N 0.2060(4) 0.9187(3) 0.6978(4)
N11_13 N 0.2341(6) 0.8866(4) 0.7875(5)
C1_14 C 0.1595(11) 0.9296(8) 0.5229(12)
H1_14 H 0.1716 0.9447 0.5708
C2_14 C 0.1476(14) 0.9574(11) 0.4723(18)
H2_14 H 0.1569 0.9929 0.4824
C3_14 C 0.1172(9) 0.8820(6) 0.3913(11)
H3_14 H 0.1055 0.8650 0.3445
C4_14 C 0.1306(7) 0.8580(5) 0.4459(6)
C5_14 C 0.1249(6) 0.8050(4) 0.4329(5)
C6_14 C 0.1052(6) 0.7299(4) 0.3982(6)
C7_14 C 0.0812(7) 0.6791(5) 0.3584(6)
C8_14 C 0.0435(8) 0.6675(5) 0.2992(8)
H4_14 H 0.0352 0.6932 0.2819
C9_15 C 0.0196(7) 0.6165(5) 0.2682(7)
C10_15 C 0.0694(8) 0.5945(6) 0.3391(7)
H6_15 H 0.0805 0.5698 0.3506
C11_15 C 0.0951(8) 0.6424(5) 0.3769(8)
H7_15 H 0.1211 0.6493 0.4138
C12_14 C 0.1808(11) 0.7244(9) 0.6533(11)
H8_14 H 0.1646 0.7038 0.6102
C13_13 C 0.1927(13) 0.7024(8) 0.7107(13)
H9_13 H 0.1869 0.6676 0.7044
C14_13 C 0.2177(8) 0.7733(5) 0.7796(9)
H10_13 H 0.2312 0.7914 0.8253
C15_13 C 0.2058(8) 0.7973(6) 0.7237(8)
C16_13 C 0.2147(6) 0.8526(4) 0.7320(6)
C17_13 C 0.2313(6) 0.9293(4) 0.7654(5)
C18_13 C 0.2455(6) 0.9774(4) 0.8044(6)
C22_13 C 0.2769(8) 0.9891(6) 0.8686(8)
H14_13 H 0.2857 0.9645 0.8890
N14_11 N 0.2563(7) 0.8707(4) 0.5412(5)
N1_15 N 0.4496(5) 0.9383(5) 0.1756(6)
N2_15 N 0.4013(7) 0.8553(7) 0.0695(9)
N3_15 N 0.5607(4) 0.9948(5) 0.0453(5)
N9_14 N 0.4641(3) 0.9911(4) 0.3445(4)
N10_14 N 0.4147(3) 0.9540(3) 0.3644(4)
C1_15 C 0.4038(8) 0.8966(8) 0.1895(12)
H1_15 H 0.3887 0.8936 0.2374
C2_15 C 0.3760(11) 0.8569(9) 0.1389(18)
H2_15 H 0.3405 0.8307 0.1490
C3_15 C 0.4514(6) 0.9019(7) 0.0579(11)
H3_15 H 0.4684 0.9072 0.0111
C4_15 C 0.4754(5) 0.9393(5) 0.1125(6)
C5_15 C 0.5284(4) 0.9866(5) 0.0995(5)
C17_14 C 0.4041(4) 0.9687(5) 0.4320(5)
C18_14 C 0.3560(4) 0.9348(5) 0.4710(6)
C19_13 C 0.3181(4) 0.8868(5) 0.4396(7)
H11_13 H 0.3250 0.8735 0.3953
C20_13 C 0.2675(4) 0.8580(5) 0.4785(8)
H12_13 H 0.2404 0.8271 0.4550
C21_13 C 0.2944(7) 0.9225(6) 0.5678(8)
H13_13 H 0.2853 0.9359 0.6099
C22_14 C 0.3443(6) 0.9545(6) 0.5352(8)
H14_14 H 0.3689 0.9879 0.5556
N1_16 N 0.0617(5) 0.5112(7) 0.1756(6)
N2_16 N 0.1447(7) 0.5459(10) 0.0695(9)
N3_16 N 0.0052(5) 0.5658(6) 0.0453(5)
N9_15 N 0.0089(4) 0.4729(5) 0.3445(4)
N10_15 N 0.0460(3) 0.4606(4) 0.3644(4)
C1_16 C 0.1034(8) 0.5071(11) 0.1895(12)
H1_16 H 0.1064 0.4950 0.2374
C2_16 C 0.1431(9) 0.5190(14) 0.1389(18)
H2_16 H 0.1693 0.5097 0.1490
C3_16 C 0.0981(7) 0.5494(9) 0.0579(11)
H3_16 H 0.0928 0.5611 0.0111
C4_16 C 0.0607(5) 0.5360(7) 0.1125(6)
C5_16 C 0.0134(5) 0.5417(6) 0.0995(5)
C17_15 C 0.0313(5) 0.4353(6) 0.4320(5)
C18_15 C 0.0652(5) 0.4211(6) 0.4710(6)
C19_14 C 0.1132(5) 0.4312(6) 0.4396(7)
H11_14 H 0.1265 0.4514 0.3953
C20_14 C 0.1420(5) 0.4094(6) 0.4785(8)
H12_14 H 0.1729 0.4132 0.4550
C21_14 C 0.0775(6) 0.3718(9) 0.5678(8)
H13_14 H 0.0641 0.3493 0.6099
C22_15 C 0.0455(6) 0.3897(8) 0.5352(8)
H14_15 H 0.0121 0.3809 0.5556
C8_15 C 0.9573(6) 0.6231(8) 0.9658(8)
H4_15 H 0.9913 0.6314 0.9485
C9_16 C 0.9302(5) 0.6470(7) 0.9348(7)
H5_14 H 0.9473 0.6729 0.8971
N1_17 N 0.4888(7) 0.5504(5) 0.1756(6)
N2_17 N 0.4541(10) 0.5987(7) 0.0695(9)
N3_17 N 0.4342(6) 0.4393(4) 0.0453(5)
N4_15 N 0.4777(5) 0.4516(3) 0.1514(5)
N5_15 N 0.4673(5) 0.4045(3) 0.1289(6)
N7_15 N 0.5248(6) 0.4411(3) 0.3220(5)
N8_14 N 0.5440(9) 0.3913(6) 0.4378(9)
N9_16 N 0.5271(5) 0.5359(3) 0.3445(4)
N10_16 N 0.5394(4) 0.5853(3) 0.3644(4)
N11_14 N 0.5675(6) 0.5532(4) 0.4541(5)
C1_17 C 0.4929(11) 0.5962(8) 0.1895(12)
H1_17 H 0.5050 0.6113 0.2374
C2_17 C 0.4810(14) 0.6240(11) 0.1389(18)
H2_17 H 0.4903 0.6595 0.1490
C3_17 C 0.4506(9) 0.5486(6) 0.0579(11)
H3_17 H 0.4389 0.5316 0.0111
C4_17 C 0.4640(7) 0.5246(5) 0.1125(6)
C5_17 C 0.4583(6) 0.4716(4) 0.0995(5)
C6_15 C 0.4386(6) 0.3965(4) 0.0648(6)
C7_15 C 0.4146(7) 0.3457(5) 0.0250(6)
C10_16 C 0.4028(8) 0.2611(6) 0.0057(7)
H6_16 H 0.4139 0.2364 0.0172
C11_16 C 0.4285(8) 0.3090(5) 0.0435(8)
H7_16 H 0.4545 0.3159 0.0804
C12_15 C 0.5142(11) 0.3910(9) 0.3199(11)
H8_15 H 0.4980 0.3704 0.2768
C13_14 C 0.5261(13) 0.3690(8) 0.3773(13)
H9_14 H 0.5203 0.3342 0.3710
C14_14 C 0.5511(8) 0.4399(5) 0.4462(9)
H10_14 H 0.5646 0.4580 0.4919
C15_14 C 0.5392(8) 0.4639(6) 0.3903(8)
C16_14 C 0.5481(6) 0.5192(4) 0.3986(6)
C17_16 C 0.5647(6) 0.5959(4) 0.4320(5)
C18_16 C 0.5789(6) 0.6440(4) 0.4710(6)
C19_15 C 0.5688(6) 0.6819(4) 0.4396(7)
H11_15 H 0.5486 0.6750 0.3953
C20_15 C 0.5906(6) 0.7325(4) 0.4785(8)
H12_15 H 0.5868 0.7596 0.4550
C21_15 C 0.6282(9) 0.7056(7) 0.5678(8)
H13_15 H 0.6507 0.7147 0.6099
C22_16 C 0.6103(8) 0.6557(6) 0.5352(8)
H14_16 H 0.6191 0.6311 0.5556
C8_16 C 0.3769(8) 0.3341(5) 0.9658(8)
H4_16 H 0.3686 0.3598 0.9485
C9_17 C 0.3530(7) 0.2831(5) 0.9348(7)
H5_15 H 0.3271 0.2743 0.8971
N8_15 N 0.1807(7) 0.1227(9) 0.1045(9)
N9_17 N 0.3422(4) 0.1396(5) 0.0112(4)
N10_17 N 0.3793(3) 0.1273(4) 0.0311(4)
N11_15 N 0.3191(5) 0.0992(6) 0.1208(5)
N12_5 N 0.4626(4) 0.0522(6) 0.2079(5)
C13_15 C 0.1763(10) 0.1406(13) 0.0440(13)
H9_15 H 0.1473 0.1464 0.0377
C14_15 C 0.2222(6) 0.1156(8) 0.1129(9)
H10_15 H 0.2268 0.1021 0.1586
C15_15 C 0.2581(6) 0.1275(8) 0.0570(8)
C16_15 C 0.3045(5) 0.1186(6) 0.0653(6)
C17_17 C 0.3646(5) 0.1020(6) 0.0987(5)
C18_17 C 0.3985(5) 0.0878(6) 0.1377(6)
C19_16 C 0.4465(5) 0.0979(6) 0.1063(7)
H11_16 H 0.4598 0.1181 0.0620
C20_16 C 0.4753(5) 0.0761(6) 0.1452(8)
H12_16 H 0.5062 0.0799 0.1217
C21_16 C 0.4108(6) 0.0385(9) 0.2345(8)
H13_16 H 0.3974 0.0160 0.2766
C22_17 C 0.3788(6) 0.0564(8) 0.2019(8)
H14_17 H 0.3454 0.0476 0.2223
Zn3_5 Zn 0.50687(4) 0.01533(9) 0.24913(5)
H5_16 H 0.6139 0.0063 0.2305
N4_16 N 0.5484(3) 0.0260(4) 0.1514(5)
N5_16 N 0.5955(3) 0.0627(4) 0.1289(6)
N7_16 N 0.5589(3) 0.0836(5) 0.3220(5)
N8_16 N 0.6087(6) 0.1526(7) 0.4378(9)
N11_16 N 0.4468(4) 0.0142(5) 0.4541(5)
C6_16 C 0.6035(4) 0.0420(5) 0.0648(6)
C7_16 C 0.6543(5) 0.0688(5) 0.0250(6)
C10_17 C 0.7389(6) 0.1416(6) 0.0057(7)
H6_17 H 0.7636 0.1774 0.0172
C11_17 C 0.6910(5) 0.1194(6) 0.0435(8)
H7_17 H 0.6841 0.1385 0.0804
C12_16 C 0.6090(9) 0.1231(7) 0.3199(11)
H8_16 H 0.6296 0.1275 0.2768
C13_16 C 0.6310(8) 0.1570(10) 0.3773(13)
H9_16 H 0.6658 0.1860 0.3710
C14_16 C 0.5601(5) 0.1111(6) 0.4462(9)
H10_16 H 0.5420 0.1065 0.4919
C15_16 C 0.5361(6) 0.0752(6) 0.3903(8)
C16_16 C 0.4808(4) 0.0288(5) 0.3986(6)
N8_17 N 0.8773(9) 0.0580(6) 0.1045(9)
N9_18 N 0.8604(5) 0.2026(3) 0.0112(4)
N10_18 N 0.8727(4) 0.2520(3) 0.0311(4)
N11_17 N 0.9008(6) 0.2199(4) 0.1208(5)
N12_6 N 0.9478(6) 0.4104(4) 0.2079(5)
C13_17 C 0.8594(13) 0.0357(8) 0.0440(13)
H9_17 H 0.8536 0.0009 0.0377
C14_17 C 0.8844(8) 0.1066(5) 0.1129(9)
H10_17 H 0.8979 0.1247 0.1586
C15_17 C 0.8725(8) 0.1306(6) 0.0570(8)
C16_17 C 0.8814(6) 0.1859(4) 0.0653(6)
C17_18 C 0.8980(6) 0.2626(4) 0.0987(5)
C18_18 C 0.9122(6) 0.3107(4) 0.1377(6)
C19_17 C 0.9021(6) 0.3486(4) 0.1063(7)
H11_17 H 0.8819 0.3417 0.0620
C20_17 C 0.9239(6) 0.3992(4) 0.1452(8)
H12_17 H 0.9201 0.4263 0.1217
C21_17 C 0.9615(9) 0.3723(7) 0.2345(8)
H13_17 H 0.9840 0.3814 0.2766
C22_18 C 0.9436(8) 0.3224(6) 0.2019(8)
H14_18 H 0.9524 0.2978 0.2223
Zn3_6 Zn 0.98467(9) 0.49153(8) 0.24913(5)
H5_17 H 0.9937 0.6077 0.2305
N4_17 N 0.9740(4) 0.5223(5) 0.1514(5)
N5_17 N 0.9373(4) 0.5327(5) 0.1289(6)
N7_17 N 0.9164(5) 0.4752(6) 0.3220(5)
N8_18 N 0.8474(7) 0.4560(9) 0.4378(9)
N11_18 N 0.9858(5) 0.4325(6) 0.4541(5)
C6_17 C 0.9580(5) 0.5614(6) 0.0648(6)
C7_17 C 0.9312(5) 0.5854(7) 0.0250(6)
C10_18 C 0.8584(6) 0.5972(8) 0.0057(7)
H6_18 H 0.8226 0.5861 0.0172
C11_18 C 0.8806(6) 0.5715(8) 0.0435(8)
H7_18 H 0.8615 0.5455 0.0804
C12_17 C 0.8769(7) 0.4858(11) 0.3199(11)
H8_17 H 0.8725 0.5020 0.2768
C13_18 C 0.8430(10) 0.4739(13) 0.3773(13)
H9_18 H 0.8140 0.4797 0.3710
C14_18 C 0.8889(6) 0.4489(8) 0.4462(9)
H10_18 H 0.8935 0.4354 0.4919
C15_18 C 0.9248(6) 0.4608(8) 0.3903(8)
C16_18 C 0.9712(5) 0.4519(6) 0.3986(6)
Zn1_6 Zn 0.84180(8) 0.15980(4) 0.91580(5)
N1_18 N 0.8221(7) 0.2171(5) 0.8423(6)
N2_18 N 0.7874(10) 0.2654(7) 0.7362(9)
N3_18 N 0.7675(6) 0.1060(4) 0.7120(5)
N4_18 N 0.8110(5) 0.1183(3) 0.8181(5)
N5_18 N 0.8006(5) 0.0712(3) 0.7956(6)
N7_18 N 0.8581(6) 0.1078(3) 0.9887(5)
C1_18 C 0.8262(11) 0.2629(8) 0.8562(12)
H1_18 H 0.8383 0.2780 0.9041
C2_18 C 0.8143(14) 0.2907(11) 0.8056(18)
H2_18 H 0.8236 0.3262 0.8157
C3_18 C 0.7839(9) 0.2153(6) 0.7246(11)
H3_18 H 0.7722 0.1983 0.6778
C4_18 C 0.7973(7) 0.1913(5) 0.7792(6)
C5_18 C 0.7916(6) 0.1383(4) 0.7662(5)
C6_18 C 0.7719(6) 0.0632(4) 0.7315(6)
C7_18 C 0.7479(7) 0.0124(5) 0.6917(6)
C8_17 C 0.7102(8) 0.0008(5) 0.6325(8)
H4_17 H 0.7019 0.0265 0.6152
C12_18 C 0.8475(11) 0.0577(9) 0.9866(11)
H8_18 H 0.8313 0.0371 0.9435
N13_6 N 0.7539(8) 0.1188(5) 0.9558(5)
N14_12 N 0.9229(7) 0.2041(4) 0.8746(5)
C19_18 C 0.9847(4) 0.2202(5) 0.7730(7)
H11_18 H 0.9916 0.2069 0.7287
C20_18 C 0.9341(4) 0.1914(5) 0.8119(8)
H12_18 H 0.9070 0.1605 0.7884
C21_18 C 0.9610(7) 0.2559(6) 0.9012(8)
H13_18 H 0.9519 0.2693 0.9433
C8_18 C 0.6659(5) 0.0427(6) 0.9658(8)
H4_18 H 0.6402 0.0087 0.9485
C9_18 C 0.7169(5) 0.0698(5) 0.9348(7)
H5_18 H 0.7257 0.0527 0.8971
loop_
_geom_bond_atom_site_label_1
_geom_bond_atom_site_label_2
_geom_bond_site_symmetry_1
_geom_bond_site_symmetry_2
Zn1 N1 1_555 1_555
N1 C1 1_555 1_555
N2 C2 1_555 1_555
N3 C5 1_555 1_555
N4 Zn1 1_555 1_555
N5 N4 1_555 1_555
N7 Zn1 1_555 1_555
C1 H1 1_555 1_555
C2 C1 1_555 1_555
H2 C2 1_555 1_555
C3 N2 1_555 1_555
H3 C3 1_555 1_555
C4 N1 1_555 1_555
C5 N4 1_555 1_555
C6 N3 1_555 1_555
C7 C6 1_555 1_555
C8 C7 1_555 1_555
H4 C8 1_555 1_555
C12 N7 1_555 1_555
H8 C12 1_555 1_555
N13 Zn1 1_555 1_555
N14 Zn1 1_555 1_555
N5 C6 1_555 1_555
C3 C4 1_555 1_555
C4 C5 1_555 1_555
N8 C13 1_555 1_555
N10 N9 1_555 1_555
N11 C16 1_555 1_555
N12 C20 1_555 1_555
H9 C13 1_555 1_555
C14 N8 1_555 1_555
H10 C14 1_555 1_555
C16 N9 1_555 1_555
C17 N10 1_555 1_555
C18 C17 1_555 1_555
C19 C18 1_555 1_555
H11 C19 1_555 1_555
C20 C19 1_555 1_555
H12 C20 1_555 1_555
C21 N12 1_555 1_555
H13 C21 1_555 1_555
C22 C18 1_555 1_555
H14 C22 1_555 1_555
Zn3 N12 1_555 1_555
N11 C17 1_555 1_555
C14 C15 1_555 1_555
C15 C16 1_555 1_555
C21 C22 1_555 1_555
N6 C9 1_555 1_555
H5 C9 1_555 1_555
C10 N6 1_555 1_555
H6 C10 1_555 1_555
H7 C11 1_555 1_555
Zn2 N6 1_555 1_555
C10 C11 1_555 1_555
Zn1_2 N1_2 1_555 1_555
N1_2 C1_2 1_555 1_555
N2_2 C2_2 1_555 1_555
N3_2 C5_2 1_555 1_555
N4_2 Zn1_2 1_555 1_555
N5_2 N4_2 1_555 1_555
N6_2 C9_2 1_555 1_555
N7_2 Zn1_2 1_555 1_555
C1_2 H1_2 1_555 1_555
C2_2 C1_2 1_555 1_555
H2_2 C2_2 1_555 1_555
C3_2 N2_2 1_555 1_555
H3_2 C3_2 1_555 1_555
C4_2 N1_2 1_555 1_555
C5_2 N4_2 1_555 1_555
C6_2 N3_2 1_555 1_555
C7_2 C6_2 1_555 1_555
C8_2 C7_2 1_555 1_555
H4_2 C8_2 1_555 1_555
C9_2 C8_2 1_555 1_555
H5_2 C9_2 1_555 1_555
C10_2 N6_2 1_555 1_555
H6_2 C10_2 1_555 1_555
C11_2 C7_2 1_555 1_555
H7_2 C11_2 1_555 1_555
C12_2 N7_2 1_555 1_555
H8_2 C12_2 1_555 1_555
Zn2_2 N6_2 1_555 1_555
N13_2 Zn1_2 1_555 1_555
N14_2 Zn1_2 1_555 1_555
N5_2 C6_2 1_555 1_555
C3_2 C4_2 1_555 1_555
C4_2 C5_2 1_555 1_555
C10_2 C11_2 1_555 1_555
N6_3 C9_3 1_555 1_555
H5_3 C9_3 1_555 1_555
C10_3 N6_3 1_555 1_555
H6_3 C10_3 1_555 1_555
H7_3 C11_3 1_555 1_555
Zn2_3 N6_3 1_555 1_555
C10_3 C11_3 1_555 1_555
Zn2_2 N1_3 1_555 1_555
N1_3 C1_3 1_555 1_555
N2_3 C2_3 1_555 1_555
N3_3 C5_3 1_555 1_555
N4_3 Zn2_2 1_555 1_555
N5_3 N4_3 1_555 1_555
N6_4 C9_4 1_555 1_555
N7_3 Zn2_2 1_555 1_555
N8_2 C13_2 1_555 1_555
N9_2 Zn2_2 1_555 1_555
N10_2 N9_2 1_555 1_555
N11_2 C16_2 1_555 1_555
C1_3 H1_3 1_555 1_555
C2_3 C1_3 1_555 1_555
H2_3 C2_3 1_555 1_555
C3_3 N2_3 1_555 1_555
H3_3 C3_3 1_555 1_555
C4_3 N1_3 1_555 1_555
C5_3 N4_3 1_555 1_555
C6_3 N3_3 1_555 1_555
C7_3 C6_3 1_555 1_555
C8_3 C7_3 1_555 1_555
H4_3 C8_3 1_555 1_555
C9_4 C8_3 1_555 1_555
H5_4 C9_4 1_555 1_555
C10_4 N6_4 1_555 1_555
H6_4 C10_4 1_555 1_555
C11_4 C7_3 1_555 1_555
H7_4 C11_4 1_555 1_555
C12_3 N7_3 1_555 1_555
H8_3 C12_3 1_555 1_555
C13_2 C12_3 1_555 1_555
H9_2 C13_2 1_555 1_555
C14_2 N8_2 1_555 1_555
H10_2 C14_2 1_555 1_555
C15_2 N7_3 1_555 1_555
C16_2 N9_2 1_555 1_555
C17_2 N10_2 1_555 1_555
C18_2 C17_2 1_555 1_555
C22_2 C18_2 1_555 1_555
H14_2 C22_2 1_555 1_555
Zn3 N6_4 1_555 1_555
N14_3 Zn2_2 1_555 1_555
N5_3 C6_3 1_555 1_555
N11_2 C17_2 1_555 1_555
C3_3 C4_3 1_555 1_555
C4_3 C5_3 1_555 1_555
C10_4 C11_4 1_555 1_555
C14_2 C15_2 1_555 1_555
C15_2 C16_2 1_555 1_555
Zn2_3 N1_4 1_555 1_555
N1_4 C1_4 1_555 1_555
N2_4 C2_4 1_555 1_555
N3_4 C5_4 1_555 1_555
N4_4 Zn2_3 1_555 1_555
N5_4 N4_4 1_555 1_555
N6_5 C9_5 1_555 1_555
N7_4 Zn2_3 1_555 1_555
N8_3 C13_3 1_555 1_555
N9_3 Zn2_3 1_555 1_555
N10_3 N9_3 1_555 1_555
N11_3 C16_3 1_555 1_555
N14 C20_2 1_555 1_555
C1_4 H1_4 1_555 1_555
C2_4 C1_4 1_555 1_555
H2_4 C2_4 1_555 1_555
C3_4 N2_4 1_555 1_555
H3_4 C3_4 1_555 1_555
C4_4 N1_4 1_555 1_555
C5_4 N4_4 1_555 1_555
C6_4 N3_4 1_555 1_555
C7_4 C6_4 1_555 1_555
C8_4 C7_4 1_555 1_555
H4_4 C8_4 1_555 1_555
C9_5 C8_4 1_555 1_555
C10_5 N6_5 1_555 1_555
H6_5 C10_5 1_555 1_555
C11_5 C7_4 1_555 1_555
H7_5 C11_5 1_555 1_555
C12_4 N7_4 1_555 1_555
H8_4 C12_4 1_555 1_555
C13_3 C12_4 1_555 1_555
H9_3 C13_3 1_555 1_555
C14_3 N8_3 1_555 1_555
H10_3 C14_3 1_555 1_555
C15_3 N7_4 1_555 1_555
C16_3 N9_3 1_555 1_555
C17_3 N10_3 1_555 1_555
C18_3 C17_3 1_555 1_555
C19_2 C18_3 1_555 1_555
H11_2 C19_2 1_555 1_555
C20_2 C19_2 1_555 1_555
H12_2 C20_2 1_555 1_555
C21_2 N14 1_555 1_555
H13_2 C21_2 1_555 1_555
C22_3 C18_3 1_555 1_555
H14_3 C22_3 1_555 1_555
N14_4 Zn2_3 1_555 1_555
N5_4 C6_4 1_555 1_555
N11_3 C17_3 1_555 1_555
C3_4 C4_4 1_555 1_555
C4_4 C5_4 1_555 1_555
C10_5 C11_5 1_555 1_555
C14_3 C15_3 1_555 1_555
C15_3 C16_3 1_555 1_555
C21_2 C22_3 1_555 1_555
Zn2 N1_5 1_555 1_555
N1_5 C1_5 1_555 1_555
N2_5 C2_5 1_555 1_555
N3_5 C5_5 1_555 1_555
N4_5 Zn2 1_555 1_555
N5_5 N4_5 1_555 1_555
N6_6 C9_6 1_555 1_555
N7_5 Zn2 1_555 1_555
N8_4 C13_4 1_555 1_555
N9_4 Zn2 1_555 1_555
N10_4 N9_4 1_555 1_555
N11_4 C16_4 1_555 1_555
C1_5 H1_5 1_555 1_555
C2_5 C1_5 1_555 1_555
H2_5 C2_5 1_555 1_555
C3_5 N2_5 1_555 1_555
H3_5 C3_5 1_555 1_555
C4_5 N1_5 1_555 1_555
C5_5 N4_5 1_555 1_555
C6_5 N3_5 1_555 1_555
C7_5 C6_5 1_555 1_555
C8_5 C7_5 1_555 1_555
H4_5 C8_5 1_555 1_555
C9_6 C8_5 1_555 1_555
C10_6 N6_6 1_555 1_555
H6_6 C10_6 1_555 1_555
C11_6 C7_5 1_555 1_555
H7_6 C11_6 1_555 1_555
C12_5 N7_5 1_555 1_555
H8_5 C12_5 1_555 1_555
C13_4 C12_5 1_555 1_555
H9_4 C13_4 1_555 1_555
C14_4 N8_4 1_555 1_555
H10_4 C14_4 1_555 1_555
C15_4 N7_5 1_555 1_555
C16_4 N9_4 1_555 1_555
C17_4 N10_4 1_555 1_555
C18_4 C17_4 1_555 1_555
C22_4 C18_4 1_555 1_555
H14_4 C22_4 1_555 1_555
N14_5 Zn2 1_555 1_555
N5_5 C6_5 1_555 1_555
N11_4 C17_4 1_555 1_555
C3_5 C4_5 1_555 1_555
C4_5 C5_5 1_555 1_555
C10_6 C11_6 1_555 1_555
C14_4 C15_4 1_555 1_555
C15_4 C16_4 1_555 1_555
N14_2 C20_3 1_555 1_555
H11_3 C19_3 1_555 1_555
C20_3 C19_3 1_555 1_555
H12_3 C20_3 1_555 1_555
C21_3 N14_2 1_555 1_555
H13_3 C21_3 1_555 1_555
N1_6 C1_6 1_555 1_555
N2_6 C2_6 1_555 1_555
N3_6 C5_6 1_555 1_555
N10_5 N9_5 1_555 1_555
N14_5 C20_4 1_555 1_555
C1_6 H1_6 1_555 1_555
C2_6 C1_6 1_555 1_555
H2_6 C2_6 1_555 1_555
C3_6 N2_6 1_555 1_555
H3_6 C3_6 1_555 1_555
C4_6 N1_6 1_555 1_555
C17_5 N10_5 1_555 1_555
C18_5 C17_5 1_555 1_555
C19_4 C18_5 1_555 1_555
H11_4 C19_4 1_555 1_555
C20_4 C19_4 1_555 1_555
H12_4 C20_4 1_555 1_555
C21_4 N14_5 1_555 1_555
H13_4 C21_4 1_555 1_555
C22_5 C18_5 1_555 1_555
H14_5 C22_5 1_555 1_555
C3_6 C4_6 1_555 1_555
C4_6 C5_6 1_555 1_555
C21_4 C22_5 1_555 1_555
N13 C9_7 1_555 1_555
H4_6 C8_6 1_555 1_555
C9_7 C8_6 1_555 1_555
H5_5 C9_7 1_555 1_555
N1_7 C1_7 1_555 1_555
N2_7 C2_7 1_555 1_555
N3_7 C5_7 1_555 1_555
N10_6 N9_6 1_555 1_555
N14_3 C20_5 1_555 1_555
C1_7 H1_7 1_555 1_555
C2_7 C1_7 1_555 1_555
H2_7 C2_7 1_555 1_555
C3_7 N2_7 1_555 1_555
H3_7 C3_7 1_555 1_555
C4_7 N1_7 1_555 1_555
C17_6 N10_6 1_555 1_555
C18_6 C17_6 1_555 1_555
C19_5 C18_6 1_555 1_555
H11_5 C19_5 1_555 1_555
C20_5 C19_5 1_555 1_555
H12_5 C20_5 1_555 1_555
C21_5 N14_3 1_555 1_555
H13_5 C21_5 1_555 1_555
C22_6 C18_6 1_555 1_555
H14_6 C22_6 1_555 1_555
C3_7 C4_7 1_555 1_555
C4_7 C5_7 1_555 1_555
C21_5 C22_6 1_555 1_555
N13_2 C9_8 1_555 1_555
H4_7 C8_7 1_555 1_555
C9_8 C8_7 1_555 1_555
H5_6 C9_8 1_555 1_555
Zn3 N1_8 1_555 1_555
N1_8 C1_8 1_555 1_555
N2_8 C2_8 1_555 1_555
N3_8 C5_8 1_555 1_555
N4_6 Zn3 1_555 1_555
N5_6 N4_6 1_555 1_555
N7_6 Zn3 1_555 1_555
N8_5 C13_5 1_555 1_555
N9_7 Zn3 1_555 1_555
N10_7 N9_7 1_555 1_555
N11_5 C16_5 1_555 1_555
N14_4 C20_6 1_555 1_555
C1_8 H1_8 1_555 1_555
C2_8 C1_8 1_555 1_555
H2_8 C2_8 1_555 1_555
C3_8 N2_8 1_555 1_555
H3_8 C3_8 1_555 1_555
C4_8 N1_8 1_555 1_555
C5_8 N4_6 1_555 1_555
C6_6 N3_8 1_555 1_555
C7_6 C6_6 1_555 1_555
H6_7 C10_7 1_555 1_555
C11_7 C7_6 1_555 1_555
H7_7 C11_7 1_555 1_555
C12_6 N7_6 1_555 1_555
H8_6 C12_6 1_555 1_555
C13_5 C12_6 1_555 1_555
H9_5 C13_5 1_555 1_555
C14_5 N8_5 1_555 1_555
H10_5 C14_5 1_555 1_555
C15_5 N7_6 1_555 1_555
C16_5 N9_7 1_555 1_555
C17_7 N10_7 1_555 1_555
C18_7 C17_7 1_555 1_555
C19_6 C18_7 1_555 1_555
H11_6 C19_6 1_555 1_555
C20_6 C19_6 1_555 1_555
H12_6 C20_6 1_555 1_555
C21_6 N14_4 1_555 1_555
H13_6 C21_6 1_555 1_555
C22_7 C18_7 1_555 1_555
H14_7 C22_7 1_555 1_555
N5_6 C6_6 1_555 1_555
N11_5 C17_7 1_555 1_555
C3_8 C4_8 1_555 1_555
C4_8 C5_8 1_555 1_555
C10_7 C11_7 1_555 1_555
C14_5 C15_5 1_555 1_555
C15_5 C16_5 1_555 1_555
C21_6 C22_7 1_555 1_555
N8_6 C13_6 1_555 1_555
N10_8 N9_8 1_555 1_555
N11_6 C16_6 1_555 1_555
N12_2 C20_7 1_555 1_555
H9_6 C13_6 1_555 1_555
C14_6 N8_6 1_555 1_555
H10_6 C14_6 1_555 1_555
C16_6 N9_8 1_555 1_555
C17_8 N10_8 1_555 1_555
C18_8 C17_8 1_555 1_555
C19_7 C18_8 1_555 1_555
H11_7 C19_7 1_555 1_555
C20_7 C19_7 1_555 1_555
H12_7 C20_7 1_555 1_555
C21_7 N12_2 1_555 1_555
H13_7 C21_7 1_555 1_555
C22_8 C18_8 1_555 1_555
H14_8 C22_8 1_555 1_555
Zn3_2 N12_2 1_555 1_555
N11_6 C17_8 1_555 1_555
C14_6 C15_6 1_555 1_555
C15_6 C16_6 1_555 1_555
C21_7 C22_8 1_555 1_555
N4_7 Zn3_2 1_555 1_555
N5_7 N4_7 1_555 1_555
N7_7 Zn3_2 1_555 1_555
N8_7 C13_7 1_555 1_555
N11_7 C16_7 1_555 1_555
C7_7 C6_7 1_555 1_555
H6_8 C10_8 1_555 1_555
C11_8 C7_7 1_555 1_555
H7_8 C11_8 1_555 1_555
C12_7 N7_7 1_555 1_555
H8_7 C12_7 1_555 1_555
C13_7 C12_7 1_555 1_555
H9_7 C13_7 1_555 1_555
C14_7 N8_7 1_555 1_555
H10_7 C14_7 1_555 1_555
C15_7 N7_7 1_555 1_555
N5_7 C6_7 1_555 1_555
C10_8 C11_8 1_555 1_555
C14_7 C15_7 1_555 1_555
C15_7 C16_7 1_555 1_555
Zn1_3 N1_9 1_555 1_555
N1_9 C1_9 1_555 1_555
N2_9 C2_9 1_555 1_555
N3_9 C5_9 1_555 1_555
N4_8 Zn1_3 1_555 1_555
N5_8 N4_8 1_555 1_555
N7_8 Zn1_3 1_555 1_555
C1_9 H1_9 1_555 1_555
C2_9 C1_9 1_555 1_555
H2_9 C2_9 1_555 1_555
C3_9 N2_9 1_555 1_555
H3_9 C3_9 1_555 1_555
C4_9 N1_9 1_555 1_555
C5_9 N4_8 1_555 1_555
C6_8 N3_9 1_555 1_555
C7_8 C6_8 1_555 1_555
C8_8 C7_8 1_555 1_555
H4_8 C8_8 1_555 1_555
C12_8 N7_8 1_555 1_555
H8_8 C12_8 1_555 1_555
N13_3 Zn1_3 1_555 1_555
N14_6 Zn1_3 1_555 1_555
N5_8 C6_8 1_555 1_555
C3_9 C4_9 1_555 1_555
C4_9 C5_9 1_555 1_555
N14_6 C20_8 1_555 1_555
H11_8 C19_8 1_555 1_555
C20_8 C19_8 1_555 1_555
H12_8 C20_8 1_555 1_555
C21_8 N14_6 1_555 1_555
H13_8 C21_8 1_555 1_555
N13_3 C9_9 1_555 1_555
H4_9 C8_9 1_555 1_555
C9_9 C8_9 1_555 1_555
H5_8 C9_9 1_555 1_555
N8_8 C13_8 1_555 1_555
N10_9 N9_9 1_555 1_555
N11_8 C16_8 1_555 1_555
N12_3 C20_9 1_555 1_555
H9_8 C13_8 1_555 1_555
C14_8 N8_8 1_555 1_555
H10_8 C14_8 1_555 1_555
C16_8 N9_9 1_555 1_555
C17_9 N10_9 1_555 1_555
C18_9 C17_9 1_555 1_555
C19_9 C18_9 1_555 1_555
H11_9 C19_9 1_555 1_555
C20_9 C19_9 1_555 1_555
H12_9 C20_9 1_555 1_555
C21_9 N12_3 1_555 1_555
H13_9 C21_9 1_555 1_555
C22_9 C18_9 1_555 1_555
H14_9 C22_9 1_555 1_555
Zn3_3 N12_3 1_555 1_555
N11_8 C17_9 1_555 1_555
C14_8 C15_8 1_555 1_555
C15_8 C16_8 1_555 1_555
C21_9 C22_9 1_555 1_555
N4_9 Zn3_3 1_555 1_555
N5_9 N4_9 1_555 1_555
N7_9 Zn3_3 1_555 1_555
N8_9 C13_9 1_555 1_555
N11_9 C16_9 1_555 1_555
C7_9 C6_9 1_555 1_555
H6_9 C10_9 1_555 1_555
C11_9 C7_9 1_555 1_555
H7_9 C11_9 1_555 1_555
C12_9 N7_9 1_555 1_555
H8_9 C12_9 1_555 1_555
C13_9 C12_9 1_555 1_555
H9_9 C13_9 1_555 1_555
C14_9 N8_9 1_555 1_555
H10_9 C14_9 1_555 1_555
C15_9 N7_9 1_555 1_555
N5_9 C6_9 1_555 1_555
C10_9 C11_9 1_555 1_555
C14_9 C15_9 1_555 1_555
C15_9 C16_9 1_555 1_555
N6_7 C9_10 1_555 1_555
H5_10 C9_10 1_555 1_555
C10_10 N6_7 1_555 1_555
H6_10 C10_10 1_555 1_555
H7_10 C11_10 1_555 1_555
Zn2_4 N6_7 1_555 1_555
C10_10 C11_10 1_555 1_555
N8_10 C13_10 1_555 1_555
N10_10 N9_10 1_555 1_555
N11_10 C16_10 1_555 1_555
N12_4 C20_10 1_555 1_555
H9_10 C13_10 1_555 1_555
C14_10 N8_10 1_555 1_555
H10_10 C14_10 1_555 1_555
C16_10 N9_10 1_555 1_555
C17_10 N10_10 1_555 1_555
C18_10 C17_10 1_555 1_555
C19_10 C18_10 1_555 1_555
H11_10 C19_10 1_555 1_555
C20_10 C19_10 1_555 1_555
H12_10 C20_10 1_555 1_555
C21_10 N12_4 1_555 1_555
H13_10 C21_10 1_555 1_555
C22_10 C18_10 1_555 1_555
H14_10 C22_10 1_555 1_555
Zn3_4 N12_4 1_555 1_555
N11_10 C17_10 1_555 1_555
C14_10 C15_10 1_555 1_555
C15_10 C16_10 1_555 1_555
C21_10 C22_10 1_555 1_555
Zn1_4 N1_10 1_555 1_555
N1_10 C1_10 1_555 1_555
N2_10 C2_10 1_555 1_555
N3_10 C5_10 1_555 1_555
N4_10 Zn1_4 1_555 1_555
N5_10 N4_10 1_555 1_555
N7_10 Zn1_4 1_555 1_555
C1_10 H1_10 1_555 1_555
C2_10 C1_10 1_555 1_555
H2_10 C2_10 1_555 1_555
C3_10 N2_10 1_555 1_555
H3_10 C3_10 1_555 1_555
C4_10 N1_10 1_555 1_555
C5_10 N4_10 1_555 1_555
C6_10 N3_10 1_555 1_555
C7_10 C6_10 1_555 1_555
C8_10 C7_10 1_555 1_555
H4_10 C8_10 1_555 1_555
C12_10 N7_10 1_555 1_555
H8_10 C12_10 1_555 1_555
N13_4 Zn1_4 1_555 1_555
N14_7 Zn1_4 1_555 1_555
N5_10 C6_10 1_555 1_555
C3_10 C4_10 1_555 1_555
C4_10 C5_10 1_555 1_555
Zn1_5 N1_11 1_555 1_555
N1_11 C1_11 1_555 1_555
N2_11 C2_11 1_555 1_555
N3_11 C5_11 1_555 1_555
N4_11 Zn1_5 1_555 1_555
N5_11 N4_11 1_555 1_555
N6_8 C9_11 1_555 1_555
N7_11 Zn1_5 1_555 1_555
C1_11 H1_11 1_555 1_555
C2_11 C1_11 1_555 1_555
H2_11 C2_11 1_555 1_555
C3_11 N2_11 1_555 1_555
H3_11 C3_11 1_555 1_555
C4_11 N1_11 1_555 1_555
C5_11 N4_11 1_555 1_555
C6_11 N3_11 1_555 1_555
C7_11 C6_11 1_555 1_555
C8_11 C7_11 1_555 1_555
H4_11 C8_11 1_555 1_555
C9_11 C8_11 1_555 1_555
H5_11 C9_11 1_555 1_555
C10_11 N6_8 1_555 1_555
H6_11 C10_11 1_555 1_555
C11_11 C7_11 1_555 1_555
H7_11 C11_11 1_555 1_555
C12_11 N7_11 1_555 1_555
H8_11 C12_11 1_555 1_555
Zn2_5 N6_8 1_555 1_555
N13_5 Zn1_5 1_555 1_555
N14_8 Zn1_5 1_555 1_555
N5_11 C6_11 1_555 1_555
C3_11 C4_11 1_555 1_555
C4_11 C5_11 1_555 1_555
C10_11 C11_11 1_555 1_555
N6_9 C9_12 1_555 1_555
H5_12 C9_12 1_555 1_555
C10_12 N6_9 1_555 1_555
H6_12 C10_12 1_555 1_555
H7_12 C11_12 1_555 1_555
Zn2_6 N6_9 1_555 1_555
C10_12 C11_12 1_555 1_555
Zn2_5 N1_12 1_555 1_555
N1_12 C1_12 1_555 1_555
N2_12 C2_12 1_555 1_555
N3_12 C5_12 1_555 1_555
N4_12 Zn2_5 1_555 1_555
N5_12 N4_12 1_555 1_555
N6_10 C9_13 1_555 1_555
N7_12 Zn2_5 1_555 1_555
N8_11 C13_11 1_555 1_555
N9_11 Zn2_5 1_555 1_555
N10_11 N9_11 1_555 1_555
N11_11 C16_11 1_555 1_555
C1_12 H1_12 1_555 1_555
C2_12 C1_12 1_555 1_555
H2_12 C2_12 1_555 1_555
C3_12 N2_12 1_555 1_555
H3_12 C3_12 1_555 1_555
C4_12 N1_12 1_555 1_555
C5_12 N4_12 1_555 1_555
C6_12 N3_12 1_555 1_555
C7_12 C6_12 1_555 1_555
C8_12 C7_12 1_555 1_555
H4_12 C8_12 1_555 1_555
C9_13 C8_12 1_555 1_555
H5_13 C9_13 1_555 1_555
C10_13 N6_10 1_555 1_555
H6_13 C10_13 1_555 1_555
C11_13 C7_12 1_555 1_555
H7_13 C11_13 1_555 1_555
C12_12 N7_12 1_555 1_555
H8_12 C12_12 1_555 1_555
C13_11 C12_12 1_555 1_555
H9_11 C13_11 1_555 1_555
C14_11 N8_11 1_555 1_555
H10_11 C14_11 1_555 1_555
C15_11 N7_12 1_555 1_555
C16_11 N9_11 1_555 1_555
C17_11 N10_11 1_555 1_555
C18_11 C17_11 1_555 1_555
C22_11 C18_11 1_555 1_555
H14_11 C22_11 1_555 1_555
Zn3_4 N6_10 1_555 1_555
N14_9 Zn2_5 1_555 1_555
N5_12 C6_12 1_555 1_555
N11_11 C17_11 1_555 1_555
C3_12 C4_12 1_555 1_555
C4_12 C5_12 1_555 1_555
C10_13 C11_13 1_555 1_555
C14_11 C15_11 1_555 1_555
C15_11 C16_11 1_555 1_555
Zn2_6 N1_13 1_555 1_555
N1_13 C1_13 1_555 1_555
N2_13 C2_13 1_555 1_555
N3_13 C5_13 1_555 1_555
N4_13 Zn2_6 1_555 1_555
N5_13 N4_13 1_555 1_555
N6_11 C9_14 1_555 1_555
N7_13 Zn2_6 1_555 1_555
N8_12 C13_12 1_555 1_555
N9_12 Zn2_6 1_555 1_555
N10_12 N9_12 1_555 1_555
N11_12 C16_12 1_555 1_555
N14_7 C20_11 1_555 1_555
C1_13 H1_13 1_555 1_555
C2_13 C1_13 1_555 1_555
H2_13 C2_13 1_555 1_555
C3_13 N2_13 1_555 1_555
H3_13 C3_13 1_555 1_555
C4_13 N1_13 1_555 1_555
C5_13 N4_13 1_555 1_555
C6_13 N3_13 1_555 1_555
C7_13 C6_13 1_555 1_555
C8_13 C7_13 1_555 1_555
H4_13 C8_13 1_555 1_555
C9_14 C8_13 1_555 1_555
C10_14 N6_11 1_555 1_555
H6_14 C10_14 1_555 1_555
C11_14 C7_13 1_555 1_555
H7_14 C11_14 1_555 1_555
C12_13 N7_13 1_555 1_555
H8_13 C12_13 1_555 1_555
C13_12 C12_13 1_555 1_555
H9_12 C13_12 1_555 1_555
C14_12 N8_12 1_555 1_555
H10_12 C14_12 1_555 1_555
C15_12 N7_13 1_555 1_555
C16_12 N9_12 1_555 1_555
C17_12 N10_12 1_555 1_555
C18_12 C17_12 1_555 1_555
C19_11 C18_12 1_555 1_555
H11_11 C19_11 1_555 1_555
C20_11 C19_11 1_555 1_555
H12_11 C20_11 1_555 1_555
C21_11 N14_7 1_555 1_555
H13_11 C21_11 1_555 1_555
C22_12 C18_12 1_555 1_555
H14_12 C22_12 1_555 1_555
N14_10 Zn2_6 1_555 1_555
N5_13 C6_13 1_555 1_555
N11_12 C17_12 1_555 1_555
C3_13 C4_13 1_555 1_555
C4_13 C5_13 1_555 1_555
C10_14 C11_14 1_555 1_555
C14_12 C15_12 1_555 1_555
C15_12 C16_12 1_555 1_555
C21_11 C22_12 1_555 1_555
N14_8 C20_12 1_555 1_555
H11_12 C19_12 1_555 1_555
C20_12 C19_12 1_555 1_555
H12_12 C20_12 1_555 1_555
C21_12 N14_8 1_555 1_555
H13_12 C21_12 1_555 1_555
Zn2_4 N1_14 1_555 1_555
N1_14 C1_14 1_555 1_555
N2_14 C2_14 1_555 1_555
N3_14 C5_14 1_555 1_555
N4_14 Zn2_4 1_555 1_555
N5_14 N4_14 1_555 1_555
N6_12 C9_15 1_555 1_555
N7_14 Zn2_4 1_555 1_555
N8_13 C13_13 1_555 1_555
N9_13 Zn2_4 1_555 1_555
N10_13 N9_13 1_555 1_555
N11_13 C16_13 1_555 1_555
C1_14 H1_14 1_555 1_555
C2_14 C1_14 1_555 1_555
H2_14 C2_14 1_555 1_555
C3_14 N2_14 1_555 1_555
H3_14 C3_14 1_555 1_555
C4_14 N1_14 1_555 1_555
C5_14 N4_14 1_555 1_555
C6_14 N3_14 1_555 1_555
C7_14 C6_14 1_555 1_555
C8_14 C7_14 1_555 1_555
H4_14 C8_14 1_555 1_555
C9_15 C8_14 1_555 1_555
C10_15 N6_12 1_555 1_555
H6_15 C10_15 1_555 1_555
C11_15 C7_14 1_555 1_555
H7_15 C11_15 1_555 1_555
C12_14 N7_14 1_555 1_555
H8_14 C12_14 1_555 1_555
C13_13 C12_14 1_555 1_555
H9_13 C13_13 1_555 1_555
C14_13 N8_13 1_555 1_555
H10_13 C14_13 1_555 1_555
C15_13 N7_14 1_555 1_555
C16_13 N9_13 1_555 1_555
C17_13 N10_13 1_555 1_555
C18_13 C17_13 1_555 1_555
C22_13 C18_13 1_555 1_555
H14_13 C22_13 1_555 1_555
N14_11 Zn2_4 1_555 1_555
N5_14 C6_14 1_555 1_555
N11_13 C17_13 1_555 1_555
C3_14 C4_14 1_555 1_555
C4_14 C5_14 1_555 1_555
C10_15 C11_15 1_555 1_555
C14_13 C15_13 1_555 1_555
C15_13 C16_13 1_555 1_555
N1_15 C1_15 1_555 1_555
N2_15 C2_15 1_555 1_555
N3_15 C5_15 1_555 1_555
N10_14 N9_14 1_555 1_555
N14_11 C20_13 1_555 1_555
C1_15 H1_15 1_555 1_555
C2_15 C1_15 1_555 1_555
H2_15 C2_15 1_555 1_555
C3_15 N2_15 1_555 1_555
H3_15 C3_15 1_555 1_555
C4_15 N1_15 1_555 1_555
C17_14 N10_14 1_555 1_555
C18_14 C17_14 1_555 1_555
C19_13 C18_14 1_555 1_555
H11_13 C19_13 1_555 1_555
C20_13 C19_13 1_555 1_555
H12_13 C20_13 1_555 1_555
C21_13 N14_11 1_555 1_555
H13_13 C21_13 1_555 1_555
C22_14 C18_14 1_555 1_555
H14_14 C22_14 1_555 1_555
C3_15 C4_15 1_555 1_555
C4_15 C5_15 1_555 1_555
C21_13 C22_14 1_555 1_555
N1_16 C1_16 1_555 1_555
N2_16 C2_16 1_555 1_555
N3_16 C5_16 1_555 1_555
N10_15 N9_15 1_555 1_555
N14_9 C20_14 1_555 1_555
C1_16 H1_16 1_555 1_555
C2_16 C1_16 1_555 1_555
H2_16 C2_16 1_555 1_555
C3_16 N2_16 1_555 1_555
H3_16 C3_16 1_555 1_555
C4_16 N1_16 1_555 1_555
C17_15 N10_15 1_555 1_555
C18_15 C17_15 1_555 1_555
C19_14 C18_15 1_555 1_555
H11_14 C19_14 1_555 1_555
C20_14 C19_14 1_555 1_555
H12_14 C20_14 1_555 1_555
C21_14 N14_9 1_555 1_555
H13_14 C21_14 1_555 1_555
C22_15 C18_15 1_555 1_555
H14_15 C22_15 1_555 1_555
C3_16 C4_16 1_555 1_555
C4_16 C5_16 1_555 1_555
C21_14 C22_15 1_555 1_555
N13_4 C9_16 1_555 1_555
H4_15 C8_15 1_555 1_555
C9_16 C8_15 1_555 1_555
H5_14 C9_16 1_555 1_555
Zn3_4 N1_17 1_555 1_555
N1_17 C1_17 1_555 1_555
N2_17 C2_17 1_555 1_555
N3_17 C5_17 1_555 1_555
N4_15 Zn3_4 1_555 1_555
N5_15 N4_15 1_555 1_555
N7_15 Zn3_4 1_555 1_555
N8_14 C13_14 1_555 1_555
N9_16 Zn3_4 1_555 1_555
N10_16 N9_16 1_555 1_555
N11_14 C16_14 1_555 1_555
N14_10 C20_15 1_555 1_555
C1_17 H1_17 1_555 1_555
C2_17 C1_17 1_555 1_555
H2_17 C2_17 1_555 1_555
C3_17 N2_17 1_555 1_555
H3_17 C3_17 1_555 1_555
C4_17 N1_17 1_555 1_555
C5_17 N4_15 1_555 1_555
C6_15 N3_17 1_555 1_555
C7_15 C6_15 1_555 1_555
H6_16 C10_16 1_555 1_555
C11_16 C7_15 1_555 1_555
H7_16 C11_16 1_555 1_555
C12_15 N7_15 1_555 1_555
H8_15 C12_15 1_555 1_555
C13_14 C12_15 1_555 1_555
H9_14 C13_14 1_555 1_555
C14_14 N8_14 1_555 1_555
H10_14 C14_14 1_555 1_555
C15_14 N7_15 1_555 1_555
C16_14 N9_16 1_555 1_555
C17_16 N10_16 1_555 1_555
C18_16 C17_16 1_555 1_555
C19_15 C18_16 1_555 1_555
H11_15 C19_15 1_555 1_555
C20_15 C19_15 1_555 1_555
H12_15 C20_15 1_555 1_555
C21_15 N14_10 1_555 1_555
H13_15 C21_15 1_555 1_555
C22_16 C18_16 1_555 1_555
H14_16 C22_16 1_555 1_555
N5_15 C6_15 1_555 1_555
N11_14 C17_16 1_555 1_555
C3_17 C4_17 1_555 1_555
C4_17 C5_17 1_555 1_555
C10_16 C11_16 1_555 1_555
C14_14 C15_14 1_555 1_555
C15_14 C16_14 1_555 1_555
C21_15 C22_16 1_555 1_555
N13_5 C9_17 1_555 1_555
H4_16 C8_16 1_555 1_555
C9_17 C8_16 1_555 1_555
H5_15 C9_17 1_555 1_555
N8_15 C13_15 1_555 1_555
N10_17 N9_17 1_555 1_555
N11_15 C16_15 1_555 1_555
N12_5 C20_16 1_555 1_555
H9_15 C13_15 1_555 1_555
C14_15 N8_15 1_555 1_555
H10_15 C14_15 1_555 1_555
C16_15 N9_17 1_555 1_555
C17_17 N10_17 1_555 1_555
C18_17 C17_17 1_555 1_555
C19_16 C18_17 1_555 1_555
H11_16 C19_16 1_555 1_555
C20_16 C19_16 1_555 1_555
H12_16 C20_16 1_555 1_555
C21_16 N12_5 1_555 1_555
H13_16 C21_16 1_555 1_555
C22_17 C18_17 1_555 1_555
H14_17 C22_17 1_555 1_555
Zn3_5 N12_5 1_555 1_555
N11_15 C17_17 1_555 1_555
C14_15 C15_15 1_555 1_555
C15_15 C16_15 1_555 1_555
C21_16 C22_17 1_555 1_555
N4_16 Zn3_5 1_555 1_555
N5_16 N4_16 1_555 1_555
N7_16 Zn3_5 1_555 1_555
N8_16 C13_16 1_555 1_555
N11_16 C16_16 1_555 1_555
C7_16 C6_16 1_555 1_555
H6_17 C10_17 1_555 1_555
C11_17 C7_16 1_555 1_555
H7_17 C11_17 1_555 1_555
C12_16 N7_16 1_555 1_555
H8_16 C12_16 1_555 1_555
C13_16 C12_16 1_555 1_555
H9_16 C13_16 1_555 1_555
C14_16 N8_16 1_555 1_555
H10_16 C14_16 1_555 1_555
C15_16 N7_16 1_555 1_555
N5_16 C6_16 1_555 1_555
C10_17 C11_17 1_555 1_555
C14_16 C15_16 1_555 1_555
C15_16 C16_16 1_555 1_555
N8_17 C13_17 1_555 1_555
N10_18 N9_18 1_555 1_555
N11_17 C16_17 1_555 1_555
N12_6 C20_17 1_555 1_555
H9_17 C13_17 1_555 1_555
C14_17 N8_17 1_555 1_555
H10_17 C14_17 1_555 1_555
C16_17 N9_18 1_555 1_555
C17_18 N10_18 1_555 1_555
C18_18 C17_18 1_555 1_555
C19_17 C18_18 1_555 1_555
H11_17 C19_17 1_555 1_555
C20_17 C19_17 1_555 1_555
H12_17 C20_17 1_555 1_555
C21_17 N12_6 1_555 1_555
H13_17 C21_17 1_555 1_555
C22_18 C18_18 1_555 1_555
H14_18 C22_18 1_555 1_555
Zn3_6 N12_6 1_555 1_555
N11_17 C17_18 1_555 1_555
C14_17 C15_17 1_555 1_555
C15_17 C16_17 1_555 1_555
C21_17 C22_18 1_555 1_555
N4_17 Zn3_6 1_555 1_555
N5_17 N4_17 1_555 1_555
N7_17 Zn3_6 1_555 1_555
N8_18 C13_18 1_555 1_555
N11_18 C16_18 1_555 1_555
C7_17 C6_17 1_555 1_555
H6_18 C10_18 1_555 1_555
C11_18 C7_17 1_555 1_555
H7_18 C11_18 1_555 1_555
C12_17 N7_17 1_555 1_555
H8_17 C12_17 1_555 1_555
C13_18 C12_17 1_555 1_555
H9_18 C13_18 1_555 1_555
C14_18 N8_18 1_555 1_555
H10_18 C14_18 1_555 1_555
C15_18 N7_17 1_555 1_555
N5_17 C6_17 1_555 1_555
C10_18 C11_18 1_555 1_555
C14_18 C15_18 1_555 1_555
C15_18 C16_18 1_555 1_555
Zn1_6 N1_18 1_555 1_555
N1_18 C1_18 1_555 1_555
N2_18 C2_18 1_555 1_555
N3_18 C5_18 1_555 1_555
N4_18 Zn1_6 1_555 1_555
N5_18 N4_18 1_555 1_555
N7_18 Zn1_6 1_555 1_555
C1_18 H1_18 1_555 1_555
C2_18 C1_18 1_555 1_555
H2_18 C2_18 1_555 1_555
C3_18 N2_18 1_555 1_555
H3_18 C3_18 1_555 1_555
C4_18 N1_18 1_555 1_555
C5_18 N4_18 1_555 1_555
C6_18 N3_18 1_555 1_555
C7_18 C6_18 1_555 1_555
C8_17 C7_18 1_555 1_555
H4_17 C8_17 1_555 1_555
C12_18 N7_18 1_555 1_555
H8_18 C12_18 1_555 1_555
N13_6 Zn1_6 1_555 1_555
N14_12 Zn1_6 1_555 1_555
N5_18 C6_18 1_555 1_555
C3_18 C4_18 1_555 1_555
C4_18 C5_18 1_555 1_555
N14_12 C20_18 1_555 1_555
H11_18 C19_18 1_555 1_555
C20_18 C19_18 1_555 1_555
H12_18 C20_18 1_555 1_555
C21_18 N14_12 1_555 1_555
H13_18 C21_18 1_555 1_555
N13_6 C9_18 1_555 1_555
H4_18 C8_18 1_555 1_555
C9_18 C8_18 1_555 1_555
H5_18 C9_18 1_555 1_555

#END
