
###############################################################################
#
# This file contains modified crystal structure data generated from the
# MOF subset of the Cambridge Structural Database (CSD) v543 
# hosted by the Cambridge Crystallographic Data Centre (CCDC).
#
# This work is licensed under the Creative Commons
# Attribution-NonCommercial-ShareAlike 4.0 International License.
# To view a copy of this license, visit
# http://creativecommons.org/licenses/by-nc-sa/4.0/
# or send a letter to
# Creative Commons, PO Box 1866, Mountain View, CA 94042, USA.
#
# CIF created using the CSD Python API on 29 September 2022
# The structure has been converted into the P1 space group
# The structure has a 3D framework
# The original CSD entry EJIBEH is in the triclinic crystal system
# The framework has been calculated to contain at least 10.0% void space
# The void calculation uses a probe of radius 1.32A, grid spacing 0.4
# The framework is charged, counterions have been retained in the structure
#
###############################################################################

data_EJIBEH
_chemical_formula_moiety         '(C58 H38 Cd2 N4 O20)n'
_symmetry_cell_setting           triclinic
_symmetry_space_group_name_H-M   'P 1'
_symmetry_Int_Tables_number      1
_space_group_name_Hall           'P 1'
loop_
_symmetry_equiv_pos_site_id
_symmetry_equiv_pos_as_xyz
1 x,y,z
_cell_length_a                   10.0936(10)
_cell_length_b                   13.0139(12)
_cell_length_c                   13.2232(13)
_cell_angle_alpha                74.658(2)
_cell_angle_beta                 89.591(2)
_cell_angle_gamma                74.271(2)
_cell_volume                     1608.43
loop_
_atom_site_label
_atom_site_type_symbol
_atom_site_fract_x
_atom_site_fract_y
_atom_site_fract_z
O9 O 0.0699(6) 0.1178(6) 0.7065(5)
Cd4 Cd 0.23876(5) 0.00119(5) 0.84021(4)
O5 O 0.0143(6) 0.9888(5) 0.8326(5)
Cd2 Cd 0.43487(5) 0.14490(5) 0.00480(4)
O17 O 0.6935(6) 0.1281(5) 0.0038(5)
O18 O 0.4363(7) 0.1968(6) 0.1524(5)
O1 O 0.5066(6) 0.0344(5) 0.8875(4)
O2 O 0.6230(6) 0.3466(5) 0.5027(4)
O4 O 0.1794(6) 0.4924(5) 0.3133(5)
O8 O 0.4594(6) 0.7291(5) 0.0976(5)
O11 O 0.6496(8) 0.1380(6) 0.2310(6)
O12 O 0.3732(7) 0.0976(7) 0.7426(5)
C2 C 0.5943(8) 0.1236(7) 0.7313(6)
C3 C 0.5316(8) 0.3427(7) 0.4233(6)
C4 C 0.7321(8) 0.0756(7) 0.7686(6)
H1 H 0.757331 0.015357 0.829185
C5 C 0.3376(8) 0.7824(7) 0.0622(7)
C6 C 0.5592(8) 0.2084(7) 0.6406(6)
H2 H 0.466541 0.236799 0.613976
C7 C 0.2240(8) 0.7326(6) 0.1084(7)
C8 C 0.4826(9) 0.2715(7) 0.2866(6)
C9 C 0.5712(8) 0.2675(7) 0.3668(6)
H3 H 0.657498 0.213978 0.382211
C10 C 0.0211(8) 0.6347(7) 0.1885(7)
C11 C 0.2587(7) 0.6357(6) 0.1906(6)
H5 H 0.350382 0.604368 0.219124
C12 C 0.0870(8) 0.7837(6) 0.0728(6)
H6 H 0.062533 0.853174 0.022515
C13 C 0.4829(8) 0.0822(7) 0.7900(6)
C14 C 0.6582(8) 0.2530(7) 0.5875(6)
C16 C 0.4031(8) 0.4192(6) 0.4076(6)
H7 H 0.376482 0.469533 0.448520
C17 C 0.7950(8) 0.2067(7) 0.6224(6)
H8 H 0.863076 0.234060 0.584500
C18 C 0.3142(8) 0.4175(7) 0.3266(6)
C19 C 0.1573(8) 0.5856(6) 0.2301(6)
C20 C 0.8328(8) 0.1202(7) 0.7129(7)
C21 C 0.5298(10) 0.1924(7) 0.2156(6)
C22 C 0.3501(8) 0.3457(8) 0.2691(7)
H9 H 0.287396 0.344879 0.217347
C23 C 0.9812(8) 0.0722(7) 0.7501(6)
O14 O 0.2144(6) 0.1150(5) 0.9551(5)
O19 O 0.5406(6) 0.2709(5) 0.9024(5)
O21 O 0.2306(6) 0.2807(6) 0.9415(6)
O6 O 0.3065(6) 0.8719(5) 0.9962(5)
Cd10 Cd 0.56513(5) 0.85510(5) 0.99520(4)
O13 O 0.4934(6) 0.9656(5) 0.1125(4)
Cd6 Cd 0.76124(5) 0.99881(5) 0.15979(4)
O22 O 0.3504(8) 0.8620(6) 0.7690(6)
O3 O 0.7856(6) 0.8850(5) 0.0449(5)
O10 O 0.7694(6) 0.7193(6) 0.0585(6)
C1 C 0.8366(8) 0.7827(7) 0.0689(6)
H4 H 0.952640 0.599786 0.213975
C15 C 0.9859(8) 0.7326(6) 0.1114(6)
C1_2 C 0.1634(8) 0.2173(7) 0.9311(6)
H4_2 H 0.047360 0.400214 0.786025
C15_2 C 0.0141(8) 0.2674(6) 0.8886(6)
O15 O 0.9857(6) 0.0112(5) 0.1674(5)
O2_2 O 0.3770(6) 0.6534(5) 0.4973(4)
O4_2 O 0.8206(6) 0.5076(5) 0.6867(5)
O7 O 0.5637(7) 0.8032(6) 0.8476(5)
O12_2 O 0.6268(7) 0.9024(7) 0.2574(5)
C2_2 C 0.4057(8) 0.8764(7) 0.2687(6)
C3_2 C 0.4684(8) 0.6573(7) 0.5767(6)
C4_2 C 0.2679(8) 0.9244(7) 0.2314(6)
H1_2 H 0.242669 0.984643 0.170815
C5_2 C 0.6624(8) 0.2176(7) 0.9378(7)
C6_2 C 0.4408(8) 0.7916(7) 0.3594(6)
H2_2 H 0.533459 0.763201 0.386024
C7_2 C 0.7760(8) 0.2674(6) 0.8916(7)
C8_2 C 0.5174(9) 0.7285(7) 0.7134(6)
C9_2 C 0.4288(8) 0.7325(7) 0.6332(6)
H3_2 H 0.342502 0.786022 0.617789
C10_2 C 0.9789(8) 0.3653(7) 0.8115(7)
C11_2 C 0.7413(7) 0.3643(6) 0.8094(6)
H5_2 H 0.649618 0.395632 0.780876
C12_2 C 0.9130(8) 0.2163(6) 0.9272(6)
H6_2 H 0.937467 0.146826 0.977485
C13_2 C 0.5171(8) 0.9178(7) 0.2100(6)
C14_2 C 0.3418(8) 0.7470(7) 0.4125(6)
C16_2 C 0.5969(8) 0.5808(6) 0.5924(6)
H7_2 H 0.623518 0.530467 0.551480
C17_2 C 0.2050(8) 0.7933(7) 0.3776(6)
H8_2 H 0.136924 0.765940 0.415500
C18_2 C 0.6858(8) 0.5825(7) 0.6734(6)
C19_2 C 0.8427(8) 0.4144(6) 0.7699(6)
C20_2 C 0.1672(8) 0.8798(7) 0.2871(7)
C21_2 C 0.4702(10) 0.8076(7) 0.7844(6)
C22_2 C 0.6499(8) 0.6543(8) 0.7309(7)
H9_2 H 0.712604 0.655121 0.782653
C23_2 C 0.0188(8) 0.9278(7) 0.2499(6)
O20 O 0.9301(6) 0.8822(6) 0.2935(5)
H19 H 0.002863 0.287830 0.152981
N1 N 0.7448(11) 0.4623(9) 0.1641(8)
N2 N 0.8644(11) 0.3811(9) 0.3062(8)
H10 H 0.927090 0.331791 0.351837
C24 C 0.6787(13) 0.5001(11) 0.0570(8)
H11 H 0.740967 0.465585 0.010677
H12 H 0.661412 0.580698 0.030710
C25 C 0.7780(13) 0.4701(11) 0.3252(10)
H13 H 0.774924 0.487841 0.389801
C26 C 0.5423(12) 0.4705(9) 0.0544(8)
H14 H 0.487143 0.492568 0.110385
H15 H 0.561297 0.389916 0.067759
C27 C 0.6973(15) 0.5298(13) 0.2401(11)
H16 H 0.628001 0.597229 0.229876
C28 C 0.8418(17) 0.3767(13) 0.2039(13)
C29 C 0.9079(19) 0.2875(15) 0.1642(14)
H17 H 0.860586 0.294612 0.098099
H18 H 0.905980 0.218395 0.214216
N3 N 0.2552(11) 0.5377(9) 0.8359(8)
N4 N 0.1356(11) 0.6189(9) 0.6938(8)
H20 H 0.072910 0.668209 0.648163
C30 C 0.3213(13) 0.4999(11) 0.9430(8)
H21 H 0.259033 0.534415 0.989323
H22 H 0.338588 0.419302 0.969290
C31 C 0.2220(13) 0.5299(11) 0.6748(10)
H23 H 0.225076 0.512159 0.610199
C32 C 0.4577(12) 0.5295(9) 0.9456(8)
H24 H 0.512857 0.507432 0.889615
H25 H 0.438703 0.610084 0.932241
C33 C 0.3027(15) 0.4702(13) 0.7599(11)
H26 H 0.371999 0.402771 0.770124
C34 C 0.1582(17) 0.6233(13) 0.7961(13)
C35 C 0.0921(19) 0.7125(15) 0.8358(14)
H27 H 0.139414 0.705388 0.901901
H28 H 0.094020 0.781605 0.785784
H29 H 0.997137 0.712170 0.847019
loop_
_geom_bond_atom_site_label_1
_geom_bond_atom_site_label_2
_geom_bond_site_symmetry_1
_geom_bond_site_symmetry_2
O9 Cd4 1_555 1_555
O17 Cd2 1_555 1_555
O18 Cd2 1_555 1_555
Cd4 O12 1_555 1_555
O1 C13 1_555 1_555
O2 C3 1_555 1_555
O4 C18 1_555 1_555
O18 C21 1_555 1_555
O8 C5 1_555 1_555
O11 C21 1_555 1_555
O12 C13 1_555 1_555
C2 C4 1_555 1_555
C3 C9 1_555 1_555
C4 H1 1_555 1_555
C5 C7 1_555 1_555
C6 C2 1_555 1_555
H2 C6 1_555 1_555
C7 C11 1_555 1_555
C8 C9 1_555 1_555
C9 H3 1_555 1_555
C11 H5 1_555 1_555
C12 C7 1_555 1_555
H6 C12 1_555 1_555
C13 C2 1_555 1_555
C14 O2 1_555 1_555
C16 C3 1_555 1_555
H7 C16 1_555 1_555
C17 C14 1_555 1_555
H8 C17 1_555 1_555
C18 C16 1_555 1_555
C19 O4 1_555 1_555
C20 C4 1_555 1_555
C21 C8 1_555 1_555
C22 C8 1_555 1_555
H9 C22 1_555 1_555
C23 C20 1_555 1_555
O14 Cd4 1_555 1_555
C6 C14 1_555 1_555
C10 C19 1_555 1_555
C11 C19 1_555 1_555
C17 C20 1_555 1_555
C18 C22 1_555 1_555
Cd10 O6 1_555 1_555
O3 C1 1_555 1_555
O10 C1 1_555 1_555
C1 C15 1_555 1_555
Cd6 O3 1_555 1_555
O14 C1_2 1_555 1_555
O21 C1_2 1_555 1_555
C1_2 C15_2 1_555 1_555
Cd6 O12_2 1_555 1_555
O13 C13_2 1_555 1_555
O2_2 C3_2 1_555 1_555
O4_2 C18_2 1_555 1_555
O7 C21_2 1_555 1_555
O19 C5_2 1_555 1_555
O22 C21_2 1_555 1_555
O12_2 C13_2 1_555 1_555
C2_2 C4_2 1_555 1_555
C3_2 C9_2 1_555 1_555
C4_2 H1_2 1_555 1_555
C5_2 C7_2 1_555 1_555
C6_2 C2_2 1_555 1_555
H2_2 C6_2 1_555 1_555
C7_2 C11_2 1_555 1_555
C8_2 C9_2 1_555 1_555
C9_2 H3_2 1_555 1_555
C11_2 H5_2 1_555 1_555
C12_2 C7_2 1_555 1_555
H6_2 C12_2 1_555 1_555
C13_2 C2_2 1_555 1_555
C14_2 O2_2 1_555 1_555
C16_2 C3_2 1_555 1_555
H7_2 C16_2 1_555 1_555
C17_2 C14_2 1_555 1_555
H8_2 C17_2 1_555 1_555
C18_2 C16_2 1_555 1_555
C19_2 O4_2 1_555 1_555
C20_2 C4_2 1_555 1_555
C21_2 C8_2 1_555 1_555
C22_2 C8_2 1_555 1_555
H9_2 C22_2 1_555 1_555
C23_2 C20_2 1_555 1_555
Cd10 O7 1_555 1_555
O20 Cd6 1_555 1_555
C6_2 C14_2 1_555 1_555
C10_2 C19_2 1_555 1_555
C11_2 C19_2 1_555 1_555
C17_2 C20_2 1_555 1_555
C18_2 C22_2 1_555 1_555
N1 C24 1_555 1_555
N2 H10 1_555 1_555
C24 H11 1_555 1_555
H12 C24 1_555 1_555
C25 N2 1_555 1_555
H13 C25 1_555 1_555
C26 C24 1_555 1_555
H14 C26 1_555 1_555
H15 C26 1_555 1_555
C27 N1 1_555 1_555
H16 C27 1_555 1_555
C28 N1 1_555 1_555
C29 C28 1_555 1_555
H17 C29 1_555 1_555
H18 C29 1_555 1_555
N2 C28 1_555 1_555
C25 C27 1_555 1_555
N3 C30 1_555 1_555
N4 H20 1_555 1_555
C30 H21 1_555 1_555
H22 C30 1_555 1_555
C31 N4 1_555 1_555
H23 C31 1_555 1_555
H24 C32 1_555 1_555
H25 C32 1_555 1_555
C33 N3 1_555 1_555
H26 C33 1_555 1_555
C34 N3 1_555 1_555
C35 C34 1_555 1_555
H27 C35 1_555 1_555
H28 C35 1_555 1_555
N4 C34 1_555 1_555
C30 C32 1_555 1_555
C31 C33 1_555 1_555

#END
