
###############################################################################
#
# This file contains modified crystal structure data generated from the
# MOF subset of the Cambridge Structural Database (CSD) v543 
# hosted by the Cambridge Crystallographic Data Centre (CCDC).
#
# This work is licensed under the Creative Commons
# Attribution-NonCommercial-ShareAlike 4.0 International License.
# To view a copy of this license, visit
# http://creativecommons.org/licenses/by-nc-sa/4.0/
# or send a letter to
# Creative Commons, PO Box 1866, Mountain View, CA 94042, USA.
#
# CIF created using the CSD Python API on 29 September 2022
# The structure has been converted into the P1 space group
# The structure has a 3D framework
# The original CSD entry EJIBOQ is in the rhombohedral crystal system
# The framework has been calculated to contain at least 10.0% void space
# The void calculation uses a probe of radius 1.32A, grid spacing 0.4
#
###############################################################################

data_EJIBOQ
_chemical_formula_moiety         '(C198 H126 Co16 N108)n'
_symmetry_cell_setting           triclinic
_symmetry_space_group_name_H-M   'P 1'
_symmetry_Int_Tables_number      1
_space_group_name_Hall           'P 1'
loop_
_symmetry_equiv_pos_site_id
_symmetry_equiv_pos_as_xyz
1 x,y,z
_cell_length_a                   27.720(5)
_cell_length_b                   27.720(5)
_cell_length_c                   8.840(3)
_cell_angle_alpha                90
_cell_angle_beta                 90
_cell_angle_gamma                120
_cell_volume                     5882.6
loop_
_atom_site_label
_atom_site_type_symbol
_atom_site_fract_x
_atom_site_fract_y
_atom_site_fract_z
Co1 Co 0.5000 0.5000 0.0000
N1 N 0.75204(15) 0.62583(16) 0.5939(4)
N2 N 0.55319(16) 0.56752(16) 0.4160(4)
N3 N 0.53832(15) 0.52403(15) 0.1935(4)
N4 N 0.58831(15) 0.53253(15) 0.2443(4)
N5 N 0.44247(15) 0.51860(16) 0.1354(4)
N6 N 0.3906(2) 0.5548(2) 0.3364(7)
C1 C 0.7341(2) 0.5834(2) 0.4969(5)
H1 H 0.7575 0.5694 0.4744
C2 C 0.68323(19) 0.55969(19) 0.4291(5)
H2 H 0.6729 0.5304 0.3617
C3 C 0.64696(18) 0.57885(18) 0.4600(4)
C4 C 0.6644(2) 0.6211(2) 0.5654(5)
H3 H 0.6408 0.6345 0.5933
C5 C 0.7163(2) 0.6434(2) 0.6291(5)
H4 H 0.7272 0.6718 0.6997
C6 C 0.59542(18) 0.55883(17) 0.3760(4)
C7 C 0.51885(18) 0.54481(17) 0.2978(5)
C8 C 0.46576(18) 0.54129(19) 0.2692(5)
C9 C 0.4393(2) 0.5582(2) 0.3689(6)
H5 H 0.4558 0.5726 0.4622
C10 C 0.3688(3) 0.5326(3) 0.2049(8)
H6 H 0.3347 0.5291 0.1783
C11 C 0.3935(2) 0.5145(2) 0.1065(7)
H7 H 0.3757 0.4986 0.0156
Co3 Co 0.8333 0.6667 0.6667
N14 N 0.45954(22) 0.41871(15) 0.0728(4)
Co1_2 Co 0.5000 0.0000 0.0000
N1_2 N 0.37417(16) 0.12621(22) 0.5939(4)
N3_2 N 0.47597(15) 0.01429(21) 0.1935(4)
N4_2 N 0.46747(15) 0.05578(21) 0.2443(4)
C1_2 C 0.4166(2) 0.1507(3) 0.4969(5)
H1_2 H 0.4306 0.1881 0.4744
C2_2 C 0.44031(19) 0.12354(27) 0.4291(5)
H2_2 H 0.4696 0.1425 0.3617
C3_2 C 0.42115(18) 0.06811(25) 0.4600(4)
C4_2 C 0.3789(2) 0.0433(3) 0.5654(5)
H3_2 H 0.3655 0.0063 0.5933
C5_2 C 0.3566(2) 0.0729(3) 0.6291(5)
H4_2 H 0.3282 0.0554 0.6997
C6_2 C 0.44117(17) 0.03659(25) 0.3760(4)
Co3_2 Co 0.3333 0.1667 0.6667
N14_2 N 0.58129(15) 0.04084(27) 0.0728(4)
Co1_3 Co 1.0000 0.5000 0.0000
N1_3 N 0.87379(22) 0.24796(15) 0.5939(4)
N3_3 N 0.98571(21) 0.46168(15) 0.1935(4)
N4_3 N 0.94422(21) 0.41169(15) 0.2443(4)
C1_3 C 0.8493(3) 0.2659(2) 0.4969(5)
H1_3 H 0.8119 0.2425 0.4744
C2_3 C 0.87646(27) 0.31677(19) 0.4291(5)
H2_3 H 0.8575 0.3271 0.3617
C3_3 C 0.93189(25) 0.35304(18) 0.4600(4)
C4_3 C 0.9567(3) 0.3356(2) 0.5654(5)
H3_3 H 0.9937 0.3592 0.5933
C5_3 C 0.9271(3) 0.2837(2) 0.6291(5)
H4_3 H 0.9446 0.2728 0.6997
C6_3 C 0.96341(25) 0.40458(18) 0.3760(4)
Co3_3 Co 0.8333 0.1667 0.6667
N14_3 N 0.95916(27) 0.54046(22) 0.0728(4)
H4_4 H 0.3939 0.0051 0.0330
N7 N 0.91463(15) 0.70750(16) 0.7394(4)
C12 C 0.9326(2) 0.7499(2) 0.8364(5)
H8 H 0.9092 0.7639 0.8589
C13 C 0.98344(19) 0.77364(19) 0.9042(5)
H9 H 0.9938 0.8029 0.9716
C16 C 0.9504(2) 0.6899(2) 0.7042(5)
H11 H 0.9395 0.6615 0.6336
N7_2 N 0.29250(16) 0.20712(22) 0.7394(4)
N8 N 0.23419(16) 0.34766(23) 0.9173(4)
N12 N 0.2215(2) 0.4975(3) 0.9969(7)
C12_2 C 0.2501(2) 0.1826(3) 0.8364(5)
H8_2 H 0.2361 0.1452 0.8589
C13_2 C 0.22636(19) 0.20979(27) 0.9042(5)
H9_2 H 0.1971 0.1908 0.9716
C14 C 0.24552(18) 0.26522(25) 0.8733(4)
C15 C 0.2878(2) 0.2900(3) 0.7679(5)
H10 H 0.3012 0.3270 0.7400
C16_2 C 0.3101(2) 0.2604(3) 0.7042(5)
H11_2 H 0.3385 0.2779 0.6336
C17 C 0.22550(17) 0.29674(25) 0.9573(4)
C20 C 0.2249(2) 0.4522(3) 0.9644(6)
H12 H 0.2393 0.4501 0.8711
H4_5 H 0.9949 0.3887 0.0330
N7_3 N 0.79288(22) 0.08537(15) 0.7394(4)
C12_3 C 0.8174(3) 0.0674(2) 0.8364(5)
H8_3 H 0.8548 0.0908 0.8589
C13_3 C 0.79021(27) 0.01656(19) 0.9042(5)
H9_3 H 0.8092 0.0062 0.9716
C16_3 C 0.7396(3) 0.0496(2) 0.7042(5)
H11_3 H 0.7221 0.0605 0.6336
H4_6 H 0.6113 0.6061 0.0330
N3_4 N 0.87165(15) 0.19070(15) 0.8602(4)
N4_4 N 0.92164(15) 0.19920(15) 0.9110(4)
N5_2 N 0.77580(15) 0.18527(16) 0.8021(4)
C7_2 C 0.85218(18) 0.21148(17) 0.9645(5)
C8_2 C 0.79909(18) 0.20796(19) 0.9359(5)
C10_2 C 0.7021(3) 0.1993(3) 0.8716(8)
H6_2 H 0.6680 0.1958 0.8450
C11_2 C 0.7268(2) 0.1812(2) 0.7732(7)
H7_2 H 0.7090 0.1653 0.6823
N8_2 N 0.78014(16) 0.09915(16) 0.2507(4)
N9 N 0.79501(15) 0.14264(15) 0.4732(4)
N10 N 0.74502(15) 0.13414(15) 0.4224(4)
N11 N 0.89086(15) 0.14807(16) 0.5313(4)
N12_2 N 0.9427(2) 0.1119(2) 0.3303(7)
C12_4 C 0.5992(2) 0.0833(2) 0.1698(5)
H8_4 H 0.5758 0.0973 0.1923
C13_4 C 0.65010(19) 0.10698(19) 0.2376(5)
H9_4 H 0.6604 0.1363 0.3050
C14_2 C 0.68637(18) 0.08782(18) 0.2067(4)
C15_2 C 0.6689(2) 0.0456(2) 0.1013(5)
H10_2 H 0.6925 0.0322 0.0734
C16_4 C 0.6170(2) 0.0233(2) 0.0376(5)
C17_2 C 0.73791(18) 0.10784(17) 0.2907(4)
C18 C 0.81448(18) 0.12186(17) 0.3689(5)
C19 C 0.86757(18) 0.12538(19) 0.3975(5)
C20_2 C 0.8940(2) 0.1085(2) 0.2978(6)
H12_2 H 0.8775 0.0941 0.2045
C21 C 0.9645(3) 0.1341(3) 0.4618(8)
H13 H 0.9986 0.1376 0.4884
C22 C 0.9398(2) 0.1522(2) 0.5602(7)
H14 H 0.9576 0.1681 0.6511
N3_5 N 0.80930(15) 0.68096(21) 0.8602(4)
N4_5 N 0.80080(15) 0.72245(21) 0.9110(4)
N5_3 N 0.81473(16) 0.59054(22) 0.8021(4)
C7_3 C 0.78852(17) 0.64071(25) 0.9645(5)
C8_3 C 0.79204(19) 0.59114(26) 0.9359(5)
C10_3 C 0.8007(3) 0.5029(4) 0.8716(8)
H6_3 H 0.8042 0.4723 0.8450
C11_3 C 0.8188(2) 0.5457(3) 0.7732(7)
H7_3 H 0.8347 0.5438 0.6823
N8_3 N 0.90085(16) 0.68100(23) 0.2507(4)
N9_2 N 0.85736(15) 0.65238(21) 0.4732(4)
N10_2 N 0.86586(15) 0.61089(21) 0.4224(4)
N11_2 N 0.85193(16) 0.74280(22) 0.5313(4)
N12_3 N 0.8881(2) 0.8309(3) 0.3303(7)
C12_5 C 0.9167(2) 0.5160(3) 0.1698(5)
H8_5 H 0.9027 0.4786 0.1923
C13_5 C 0.89302(19) 0.54313(27) 0.2376(5)
H9_5 H 0.8637 0.5242 0.3050
C14_3 C 0.91218(18) 0.59856(25) 0.2067(4)
C15_3 C 0.9544(2) 0.6234(3) 0.1013(5)
H10_3 H 0.9678 0.6604 0.0734
C16_5 C 0.9767(2) 0.5938(3) 0.0376(5)
C17_3 C 0.89216(17) 0.63008(25) 0.2907(4)
C18_2 C 0.87814(17) 0.69263(25) 0.3689(5)
C19_2 C 0.87462(19) 0.74220(26) 0.3975(5)
C20_3 C 0.8915(2) 0.7856(3) 0.2978(6)
H12_3 H 0.9059 0.7835 0.2045
C21_2 C 0.8659(3) 0.8305(4) 0.4618(8)
H13_2 H 0.8624 0.8611 0.4884
C22_2 C 0.8478(2) 0.7877(3) 0.5602(7)
H14_2 H 0.8319 0.7896 0.6511
N3_6 N 0.31904(21) 0.12835(15) 0.8602(4)
N4_6 N 0.27755(21) 0.07836(15) 0.9110(4)
N5_4 N 0.40946(22) 0.22420(15) 0.8021(4)
C7_4 C 0.35929(25) 0.14782(18) 0.9645(5)
C8_4 C 0.40886(26) 0.20091(18) 0.9359(5)
C10_4 C 0.4971(4) 0.2979(3) 0.8716(8)
H6_4 H 0.5277 0.3320 0.8450
C11_4 C 0.4543(3) 0.2732(2) 0.7732(7)
H7_4 H 0.4562 0.2910 0.6823
N8_4 N 0.31900(23) 0.21986(16) 0.2507(4)
N9_3 N 0.34762(21) 0.20499(15) 0.4732(4)
N10_3 N 0.38911(21) 0.25498(15) 0.4224(4)
N11_3 N 0.25720(22) 0.10914(15) 0.5313(4)
N12_4 N 0.1691(3) 0.0573(2) 0.3303(7)
C12_6 C 0.4840(3) 0.4008(2) 0.1698(5)
H8_6 H 0.5214 0.4242 0.1923
C13_6 C 0.45687(27) 0.34990(19) 0.2376(5)
H9_6 H 0.4758 0.3396 0.3050
C14_4 C 0.40144(25) 0.31363(18) 0.2067(4)
C15_4 C 0.3766(3) 0.3311(2) 0.1013(5)
H10_4 H 0.3396 0.3075 0.0734
C16_6 C 0.4062(3) 0.3830(2) 0.0376(5)
C17_4 C 0.36992(25) 0.26209(18) 0.2907(4)
C18_3 C 0.30737(25) 0.18552(18) 0.3689(5)
C19_3 C 0.25780(26) 0.13243(18) 0.3975(5)
C20_4 C 0.2144(3) 0.1060(2) 0.2978(6)
H12_4 H 0.2165 0.1225 0.2045
C21_3 C 0.1695(4) 0.0355(3) 0.4618(8)
H13_3 H 0.1389 0.0014 0.4884
C22_3 C 0.2123(3) 0.0602(2) 0.5602(7)
H14_3 H 0.2104 0.0424 0.6511
Co1_4 Co 0.5000 0.5000 1.0000
N7_4 N 0.24796(15) 0.37417(16) 0.4061(4)
N8_5 N 0.44681(16) 0.43248(16) 0.5840(4)
N9_4 N 0.46168(15) 0.47597(15) 0.8065(4)
N10_4 N 0.41169(15) 0.46747(15) 0.7557(4)
N11_4 N 0.55753(15) 0.48140(16) 0.8646(4)
N12_5 N 0.6094(2) 0.4452(2) 0.6636(7)
C12_7 C 0.2659(2) 0.4166(2) 0.5031(5)
H8_7 H 0.2425 0.4306 0.5256
C13_7 C 0.31677(19) 0.44031(19) 0.5709(5)
H9_7 H 0.3271 0.4696 0.6383
C14_5 C 0.35304(18) 0.42115(18) 0.5400(4)
C15_5 C 0.3356(2) 0.3789(2) 0.4346(5)
H10_5 H 0.3592 0.3655 0.4067
C16_7 C 0.2837(2) 0.3566(2) 0.3709(5)
H11_4 H 0.2728 0.3282 0.3003
C17_5 C 0.40458(18) 0.44117(17) 0.6240(4)
C18_4 C 0.48115(18) 0.45519(17) 0.7022(5)
C19_4 C 0.53424(18) 0.45871(19) 0.7308(5)
C20_5 C 0.5607(2) 0.4418(2) 0.6311(6)
H12_5 H 0.5442 0.4274 0.5378
C21_4 C 0.6312(3) 0.4674(3) 0.7951(8)
H13_4 H 0.6653 0.4709 0.8217
C22_4 C 0.6065(2) 0.4855(2) 0.8935(7)
H14_4 H 0.6243 0.5014 0.9844
Co2 Co 0.1667 0.3333 0.3333
N13 N 0.54046(22) 0.58129(15) 0.9272(4)
Co1_5 Co 0.5000 1.0000 1.0000
N7_5 N 0.62583(16) 0.87379(22) 0.4061(4)
N9_5 N 0.52403(15) 0.98571(21) 0.8065(4)
N10_5 N 0.53253(15) 0.94422(21) 0.7557(4)
C12_8 C 0.5834(2) 0.8493(3) 0.5031(5)
H8_8 H 0.5694 0.8119 0.5256
C13_8 C 0.55969(19) 0.87646(27) 0.5709(5)
H9_8 H 0.5304 0.8575 0.6383
C14_6 C 0.57885(18) 0.93189(25) 0.5400(4)
C15_6 C 0.6211(2) 0.9567(3) 0.4346(5)
H10_6 H 0.6345 0.9937 0.4067
C16_8 C 0.6434(2) 0.9271(3) 0.3709(5)
H11_5 H 0.6718 0.9446 0.3003
C17_6 C 0.55883(17) 0.96341(25) 0.6240(4)
Co2_2 Co 0.6667 0.8333 0.3333
N13_2 N 0.41871(15) 0.95916(27) 0.9272(4)
Co1_6 Co 0.0000 0.5000 1.0000
N7_6 N 0.12621(22) 0.75204(15) 0.4061(4)
N9_6 N 0.01429(21) 0.53832(15) 0.8065(4)
N10_6 N 0.05578(21) 0.58831(15) 0.7557(4)
C12_9 C 0.1507(3) 0.7341(2) 0.5031(5)
H8_9 H 0.1881 0.7575 0.5256
C13_9 C 0.12354(27) 0.68323(19) 0.5709(5)
H9_9 H 0.1425 0.6729 0.6383
C14_7 C 0.06811(25) 0.64696(18) 0.5400(4)
C15_7 C 0.0433(3) 0.6644(2) 0.4346(5)
H10_7 H 0.0063 0.6408 0.4067
C16_9 C 0.0729(3) 0.7163(2) 0.3709(5)
H11_6 H 0.0554 0.7272 0.3003
C17_7 C 0.03659(25) 0.59542(18) 0.6240(4)
Co2_3 Co 0.1667 0.8333 0.3333
N13_3 N 0.04084(27) 0.45954(22) 0.9272(4)
N2_2 N 0.21986(16) 0.90085(16) 0.7493(4)
N3_7 N 0.20499(15) 0.85736(15) 0.5268(4)
N4_7 N 0.25498(15) 0.86586(15) 0.5776(4)
N5_5 N 0.10914(15) 0.85193(16) 0.4687(4)
N6_2 N 0.0573(2) 0.8881(2) 0.6697(7)
C1_4 C 0.4008(2) 0.9167(2) 0.8302(5)
H1_4 H 0.4242 0.9027 0.8077
C2_4 C 0.34990(19) 0.89302(19) 0.7624(5)
H2_4 H 0.3396 0.8637 0.6950
C3_4 C 0.31363(18) 0.91218(18) 0.7933(4)
C4_4 C 0.3311(2) 0.9544(2) 0.8987(5)
H3_4 H 0.3075 0.9678 0.9266
C5_4 C 0.3830(2) 0.9767(2) 0.9624(5)
C6_4 C 0.26209(18) 0.89216(17) 0.7093(4)
C7_5 C 0.18552(18) 0.87814(17) 0.6311(5)
C8_5 C 0.13243(18) 0.87462(19) 0.6025(5)
C9_2 C 0.1060(2) 0.8915(2) 0.7022(6)
H5_2 H 0.1225 0.9059 0.7955
C10_5 C 0.0355(3) 0.8659(3) 0.5382(8)
H6_5 H 0.0014 0.8624 0.5116
C11_5 C 0.0602(2) 0.8478(2) 0.4398(7)
H7_5 H 0.0424 0.8319 0.3489
N9_7 N 0.12835(15) 0.80930(15) 0.1398(4)
N10_7 N 0.07836(15) 0.80080(15) 0.0890(4)
N11_5 N 0.22420(15) 0.81473(16) 0.1979(4)
C18_5 C 0.14782(18) 0.78852(17) 0.0355(5)
C19_5 C 0.20091(18) 0.79204(19) 0.0641(5)
C21_5 C 0.2979(3) 0.8007(3) 0.1284(8)
H13_5 H 0.3320 0.8042 0.1550
C22_5 C 0.2732(2) 0.8188(2) 0.2268(7)
H14_5 H 0.2910 0.8347 0.3177
N13_4 N 0.20712(22) 0.91463(15) 0.2606(4)
N2_3 N 0.09915(16) 0.31900(23) 0.7493(4)
N3_8 N 0.14264(15) 0.34762(21) 0.5268(4)
N4_8 N 0.13414(15) 0.38911(21) 0.5776(4)
N5_6 N 0.14807(16) 0.25720(22) 0.4687(4)
N6_3 N 0.1119(2) 0.1691(3) 0.6697(7)
C1_5 C 0.0833(2) 0.4840(3) 0.8302(5)
H1_5 H 0.0973 0.5214 0.8077
C2_5 C 0.10698(19) 0.45687(27) 0.7624(5)
H2_5 H 0.1363 0.4758 0.6950
C3_5 C 0.08782(18) 0.40144(25) 0.7933(4)
C4_5 C 0.0456(2) 0.3766(3) 0.8987(5)
H3_5 H 0.0322 0.3396 0.9266
C5_5 C 0.0233(2) 0.4062(3) 0.9624(5)
C6_5 C 0.10784(17) 0.36992(25) 0.7093(4)
C7_6 C 0.12186(17) 0.30737(25) 0.6311(5)
C8_6 C 0.12538(19) 0.25780(26) 0.6025(5)
C9_3 C 0.1085(2) 0.2144(3) 0.7022(6)
H5_3 H 0.0941 0.2165 0.7955
C10_6 C 0.1341(3) 0.1695(4) 0.5382(8)
H6_6 H 0.1376 0.1389 0.5116
C11_6 C 0.1522(2) 0.2123(3) 0.4398(7)
H7_6 H 0.1681 0.2104 0.3489
N9_8 N 0.19070(15) 0.31904(21) 0.1398(4)
N10_8 N 0.19920(15) 0.27755(21) 0.0890(4)
N11_6 N 0.18527(16) 0.40946(22) 0.1979(4)
C18_6 C 0.21148(17) 0.35929(25) 0.0355(5)
C19_6 C 0.20796(19) 0.40886(26) 0.0641(5)
C21_6 C 0.1993(3) 0.4971(4) 0.1284(8)
H13_6 H 0.1958 0.5277 0.1550
C22_6 C 0.1812(2) 0.4543(3) 0.2268(7)
H14_6 H 0.1653 0.4562 0.3177
N13_5 N 0.08537(15) 0.29250(27) 0.2606(4)
N2_4 N 0.68100(23) 0.78014(16) 0.7493(4)
N3_9 N 0.65238(21) 0.79501(15) 0.5268(4)
N4_9 N 0.61089(21) 0.74502(15) 0.5776(4)
N5_7 N 0.74280(22) 0.89086(15) 0.4687(4)
N6_4 N 0.8309(3) 0.9427(2) 0.6697(7)
C1_6 C 0.5160(3) 0.5992(2) 0.8302(5)
H1_6 H 0.4786 0.5758 0.8077
C2_6 C 0.54313(27) 0.65010(19) 0.7624(5)
H2_6 H 0.5242 0.6604 0.6950
C3_6 C 0.59856(25) 0.68637(18) 0.7933(4)
C4_6 C 0.6234(3) 0.6689(2) 0.8987(5)
H3_6 H 0.6604 0.6925 0.9266
C5_6 C 0.5938(3) 0.6170(2) 0.9624(5)
C6_6 C 0.63008(25) 0.73791(18) 0.7093(4)
C7_7 C 0.69263(25) 0.81448(18) 0.6311(5)
C8_7 C 0.74220(26) 0.86757(18) 0.6025(5)
C9_4 C 0.7856(3) 0.8940(2) 0.7022(6)
H5_4 H 0.7835 0.8775 0.7955
C10_7 C 0.8305(4) 0.9645(3) 0.5382(8)
H6_7 H 0.8611 0.9986 0.5116
C11_7 C 0.7877(3) 0.9398(2) 0.4398(7)
H7_7 H 0.7896 0.9576 0.3489
N9_9 N 0.68096(21) 0.87165(15) 0.1398(4)
N10_9 N 0.72245(21) 0.92164(15) 0.0890(4)
N11_7 N 0.59054(22) 0.77580(15) 0.1979(4)
C18_7 C 0.64071(25) 0.85218(18) 0.0355(5)
C19_7 C 0.59114(26) 0.79909(18) 0.0641(5)
C21_7 C 0.5029(4) 0.7021(3) 0.1284(8)
H13_7 H 0.4723 0.6680 0.1550
C22_7 C 0.5457(3) 0.7268(2) 0.2268(7)
H14_7 H 0.5438 0.7090 0.3177
N13_6 N 0.70750(27) 0.79288(22) 0.2606(4)
C1_7 C 0.0674(2) 0.2501(2) 0.1636(5)
H1_7 H 0.0908 0.2361 0.1411
C2_7 C 0.01656(19) 0.22636(19) 0.0958(5)
H2_7 H 0.0062 0.1971 0.0284
C5_7 C 0.0496(2) 0.3101(2) 0.2958(5)
H4_7 H 0.0605 0.3385 0.3664
H11_7 H 0.6061 0.9949 0.9670
H11_8 H 0.0051 0.6113 0.9670
N2_5 N 0.76581(16) 0.65234(23) 0.0827(4)
N6_5 N 0.7785(2) 0.5025(3) 0.0031(7)
C1_8 C 0.7499(2) 0.8174(3) 0.1636(5)
H1_8 H 0.7639 0.8548 0.1411
C2_8 C 0.77364(19) 0.79021(27) 0.0958(5)
H2_8 H 0.8029 0.8092 0.0284
C3_7 C 0.75448(18) 0.73478(25) 0.1267(4)
C4_7 C 0.7122(2) 0.7100(3) 0.2321(5)
H3_7 H 0.6988 0.6730 0.2600
C5_8 C 0.6899(2) 0.7396(3) 0.2958(5)
H4_8 H 0.6615 0.7221 0.3664
C6_7 C 0.77450(17) 0.70326(25) 0.0427(4)
C9_5 C 0.7751(2) 0.5478(3) 0.0356(6)
H5_5 H 0.7607 0.5499 0.1289
H11_9 H 0.3887 0.3939 0.9670
C1_9 C 0.1826(3) 0.9326(2) 0.1636(5)
H1_9 H 0.1452 0.9092 0.1411
C2_9 C 0.20979(27) 0.98344(19) 0.0958(5)
H2_9 H 0.1908 0.9938 0.0284
C5_9 C 0.2604(3) 0.9504(2) 0.2958(5)
H4_9 H 0.2779 0.9395 0.3664
Co1_7 Co 0.5000 0.0000 1.0000
N8_6 N 0.56752(16) 0.01433(23) 0.5840(4)
N11_8 N 0.51860(16) 0.07613(22) 0.8646(4)
N12_6 N 0.5548(2) 0.1642(3) 0.6636(7)
C18_8 C 0.54481(17) 0.02596(25) 0.7022(5)
C19_8 C 0.54129(19) 0.07553(26) 0.7308(5)
C20_6 C 0.5582(2) 0.1189(3) 0.6311(6)
H12_6 H 0.5726 0.1168 0.5378
C21_8 C 0.5326(3) 0.1638(4) 0.7951(8)
H13_8 H 0.5291 0.1944 0.8217
C22_8 C 0.5145(2) 0.1210(3) 0.8935(7)
H14_8 H 0.4986 0.1229 0.9844
Co1_8 Co 0.5000 1.0000 0.0000
N2_6 N 0.43248(16) 0.98567(23) 0.4160(4)
N5_8 N 0.48140(16) 0.92387(22) 0.1354(4)
N6_6 N 0.4452(2) 0.8358(3) 0.3364(7)
C7_8 C 0.45519(17) 0.97404(25) 0.2978(5)
C8_8 C 0.45871(19) 0.92447(26) 0.2692(5)
C9_6 C 0.4418(2) 0.8811(3) 0.3689(6)
H5_6 H 0.4274 0.8832 0.4622
C10_8 C 0.4674(3) 0.8362(4) 0.2049(8)
H6_8 H 0.4709 0.8056 0.1783
C11_8 C 0.4855(2) 0.8790(3) 0.1065(7)
H7_8 H 0.5014 0.8771 0.0156
Co1_9 Co 0.0000 0.5000 0.0000
N2_7 N 0.01433(23) 0.44681(16) 0.4160(4)
N5_9 N 0.07613(22) 0.55753(15) 0.1354(4)
N6_7 N 0.1642(3) 0.6094(2) 0.3364(7)
C7_9 C 0.02596(25) 0.48115(18) 0.2978(5)
C8_9 C 0.07553(26) 0.53424(18) 0.2692(5)
C9_7 C 0.1189(3) 0.5607(2) 0.3689(6)
H5_7 H 0.1168 0.5442 0.4622
C10_9 C 0.1638(4) 0.6312(3) 0.2049(8)
H6_9 H 0.1944 0.6653 0.1783
C11_9 C 0.1210(3) 0.6065(2) 0.1065(7)
H7_9 H 0.1229 0.6243 0.0156
Co1_10 Co 1.0000 0.5000 1.0000
N8_7 N 0.98567(23) 0.55319(16) 0.5840(4)
N11_9 N 0.92387(22) 0.44247(15) 0.8646(4)
N12_7 N 0.8358(3) 0.3906(2) 0.6636(7)
C18_9 C 0.97404(25) 0.51885(18) 0.7022(5)
C19_9 C 0.92447(26) 0.46576(18) 0.7308(5)
C20_7 C 0.8811(3) 0.4393(2) 0.6311(6)
H12_7 H 0.8832 0.4558 0.5378
C21_9 C 0.8362(4) 0.3688(3) 0.7951(8)
H13_9 H 0.8056 0.3347 0.8217
C22_9 C 0.8790(3) 0.3935(2) 0.8935(7)
H14_9 H 0.8771 0.3757 0.9844
N8_8 N 0.11348(16) 0.76581(16) 0.9173(4)
N12_8 N 0.2761(2) 0.7785(2) 0.9969(7)
C14_8 C 0.01971(18) 0.75448(18) 0.8733(4)
C15_8 C 0.0023(2) 0.7122(2) 0.7679(5)
H10_8 H 0.0259 0.6988 0.7400
C17_8 C 0.07125(18) 0.77450(17) 0.9573(4)
C20_8 C 0.2274(2) 0.7751(2) 0.9644(6)
H12_8 H 0.2109 0.7607 0.8711
N8_9 N 0.65234(23) 0.88652(16) 0.9173(4)
N12_9 N 0.5025(3) 0.7239(2) 0.9969(7)
C14_9 C 0.73478(25) 0.98029(18) 0.8733(4)
C15_9 C 0.7100(3) 0.9977(2) 0.7679(5)
H10_9 H 0.6730 0.9741 0.7400
C17_9 C 0.70326(25) 0.92875(18) 0.9573(4)
C20_9 C 0.5478(3) 0.7726(2) 0.9644(6)
H12_9 H 0.5499 0.7891 0.8711
N2_8 N 0.88652(16) 0.23419(16) 0.0827(4)
N6_8 N 0.7239(2) 0.2215(2) 0.0031(7)
C3_8 C 0.98029(18) 0.24552(18) 0.1267(4)
C4_8 C 0.9977(2) 0.2878(2) 0.2321(5)
H3_8 H 0.9741 0.3012 0.2600
C6_8 C 0.92875(18) 0.22550(17) 0.0427(4)
C9_8 C 0.7726(2) 0.2249(2) 0.0356(6)
H5_8 H 0.7891 0.2393 0.1289
N2_9 N 0.34766(23) 0.11348(16) 0.0827(4)
N6_9 N 0.4975(3) 0.2761(2) 0.0031(7)
C3_9 C 0.26522(25) 0.01971(18) 0.1267(4)
C4_9 C 0.2900(3) 0.0023(2) 0.2321(5)
H3_9 H 0.3270 0.0259 0.2600
C6_9 C 0.29674(25) 0.07125(18) 0.0427(4)
C9_9 C 0.4522(3) 0.2274(2) 0.0356(6)
H5_9 H 0.4501 0.2109 0.1289
loop_
_geom_bond_atom_site_label_1
_geom_bond_atom_site_label_2
_geom_bond_site_symmetry_1
_geom_bond_site_symmetry_2
Co1 N3 1_555 1_555
N1 C1 1_555 1_555
N2 C6 1_555 1_555
N3 N4 1_555 1_555
N4 C6 1_555 1_555
N5 Co1 1_555 1_555
N6 C9 1_555 1_555
C1 H1 1_555 1_555
C2 C1 1_555 1_555
H2 C2 1_555 1_555
C3 C2 1_555 1_555
C4 C3 1_555 1_555
H3 C4 1_555 1_555
C5 N1 1_555 1_555
H4 C5 1_555 1_555
C6 C3 1_555 1_555
C7 N2 1_555 1_555
C8 N5 1_555 1_555
C9 C8 1_555 1_555
H5 C9 1_555 1_555
C10 N6 1_555 1_555
H6 C10 1_555 1_555
C11 N5 1_555 1_555
H7 C11 1_555 1_555
Co3 N1 1_555 1_555
N14 Co1 1_555 1_555
N3 C7 1_555 1_555
C4 C5 1_555 1_555
C7 C8 1_555 1_555
C10 C11 1_555 1_555
Co1_2 N3_2 1_555 1_555
N1_2 C1_2 1_555 1_555
N3_2 N4_2 1_555 1_555
N4_2 C6_2 1_555 1_555
C1_2 H1_2 1_555 1_555
C2_2 C1_2 1_555 1_555
H2_2 C2_2 1_555 1_555
C3_2 C2_2 1_555 1_555
C4_2 C3_2 1_555 1_555
H3_2 C4_2 1_555 1_555
C5_2 N1_2 1_555 1_555
H4_2 C5_2 1_555 1_555
C6_2 C3_2 1_555 1_555
Co3_2 N1_2 1_555 1_555
N14_2 Co1_2 1_555 1_555
C4_2 C5_2 1_555 1_555
Co1_3 N3_3 1_555 1_555
N1_3 C1_3 1_555 1_555
N3_3 N4_3 1_555 1_555
N4_3 C6_3 1_555 1_555
C1_3 H1_3 1_555 1_555
C2_3 C1_3 1_555 1_555
H2_3 C2_3 1_555 1_555
C3_3 C2_3 1_555 1_555
C4_3 C3_3 1_555 1_555
H3_3 C4_3 1_555 1_555
C5_3 N1_3 1_555 1_555
H4_3 C5_3 1_555 1_555
C6_3 C3_3 1_555 1_555
Co3_3 N1_3 1_555 1_555
N14_3 Co1_3 1_555 1_555
C4_3 C5_3 1_555 1_555
N7 C12 1_555 1_555
C12 H8 1_555 1_555
C13 C12 1_555 1_555
H9 C13 1_555 1_555
C16 N7 1_555 1_555
H11 C16 1_555 1_555
Co3 N7 1_555 1_555
N7_2 C12_2 1_555 1_555
N8 C17 1_555 1_555
N12 C20 1_555 1_555
C12_2 H8_2 1_555 1_555
C13_2 C12_2 1_555 1_555
H9_2 C13_2 1_555 1_555
C14 C13_2 1_555 1_555
C15 C14 1_555 1_555
H10 C15 1_555 1_555
C16_2 N7_2 1_555 1_555
H11_2 C16_2 1_555 1_555
H12 C20 1_555 1_555
Co3_2 N7_2 1_555 1_555
C14 C17 1_555 1_555
C15 C16_2 1_555 1_555
N7_3 C12_3 1_555 1_555
C12_3 H8_3 1_555 1_555
C13_3 C12_3 1_555 1_555
H9_3 C13_3 1_555 1_555
C16_3 N7_3 1_555 1_555
H11_3 C16_3 1_555 1_555
Co3_3 N7_3 1_555 1_555
Co3_3 N3_4 1_555 1_555
N3_4 N4_4 1_555 1_555
N5_2 Co3_3 1_555 1_555
C8_2 N5_2 1_555 1_555
H6_2 C10_2 1_555 1_555
C11_2 N5_2 1_555 1_555
H7_2 C11_2 1_555 1_555
N14_2 C12_4 1_555 1_555
N8_2 C17_2 1_555 1_555
N9 Co3_3 1_555 1_555
N10 N9 1_555 1_555
N11 Co3_3 1_555 1_555
N12_2 C20_2 1_555 1_555
C12_4 H8_4 1_555 1_555
C13_4 C12_4 1_555 1_555
H9_4 C13_4 1_555 1_555
C14_2 C13_4 1_555 1_555
C15_2 C14_2 1_555 1_555
H10_2 C15_2 1_555 1_555
C16_4 N14_2 1_555 1_555
C17_2 N10 1_555 1_555
C18 N8_2 1_555 1_555
C19 N11 1_555 1_555
C20_2 C19 1_555 1_555
H12_2 C20_2 1_555 1_555
C21 N12_2 1_555 1_555
H13 C21 1_555 1_555
C22 N11 1_555 1_555
H14 C22 1_555 1_555
N3_4 C7_2 1_555 1_555
C7_2 C8_2 1_555 1_555
C10_2 C11_2 1_555 1_555
N9 C18 1_555 1_555
C14_2 C17_2 1_555 1_555
C15_2 C16_4 1_555 1_555
C18 C19 1_555 1_555
C21 C22 1_555 1_555
Co3 N3_5 1_555 1_555
N3_5 N4_5 1_555 1_555
N5_3 Co3 1_555 1_555
C8_3 N5_3 1_555 1_555
H6_3 C10_3 1_555 1_555
C11_3 N5_3 1_555 1_555
H7_3 C11_3 1_555 1_555
N14_3 C12_5 1_555 1_555
N8_3 C17_3 1_555 1_555
N9_2 Co3 1_555 1_555
N10_2 N9_2 1_555 1_555
N11_2 Co3 1_555 1_555
N12_3 C20_3 1_555 1_555
C12_5 H8_5 1_555 1_555
C13_5 C12_5 1_555 1_555
H9_5 C13_5 1_555 1_555
C14_3 C13_5 1_555 1_555
C15_3 C14_3 1_555 1_555
H10_3 C15_3 1_555 1_555
C16_5 N14_3 1_555 1_555
C17_3 N10_2 1_555 1_555
C18_2 N8_3 1_555 1_555
C19_2 N11_2 1_555 1_555
C20_3 C19_2 1_555 1_555
H12_3 C20_3 1_555 1_555
C21_2 N12_3 1_555 1_555
H13_2 C21_2 1_555 1_555
C22_2 N11_2 1_555 1_555
H14_2 C22_2 1_555 1_555
N3_5 C7_3 1_555 1_555
C7_3 C8_3 1_555 1_555
C10_3 C11_3 1_555 1_555
N9_2 C18_2 1_555 1_555
C14_3 C17_3 1_555 1_555
C15_3 C16_5 1_555 1_555
C18_2 C19_2 1_555 1_555
C21_2 C22_2 1_555 1_555
Co3_2 N3_6 1_555 1_555
N3_6 N4_6 1_555 1_555
N5_4 Co3_2 1_555 1_555
C8_4 N5_4 1_555 1_555
H6_4 C10_4 1_555 1_555
C11_4 N5_4 1_555 1_555
H7_4 C11_4 1_555 1_555
N14 C12_6 1_555 1_555
N8_4 C17_4 1_555 1_555
N9_3 Co3_2 1_555 1_555
N10_3 N9_3 1_555 1_555
N11_3 Co3_2 1_555 1_555
N12_4 C20_4 1_555 1_555
C12_6 H8_6 1_555 1_555
C13_6 C12_6 1_555 1_555
H9_6 C13_6 1_555 1_555
C14_4 C13_6 1_555 1_555
C15_4 C14_4 1_555 1_555
H10_4 C15_4 1_555 1_555
C16_6 N14 1_555 1_555
C17_4 N10_3 1_555 1_555
C18_3 N8_4 1_555 1_555
C19_3 N11_3 1_555 1_555
C20_4 C19_3 1_555 1_555
H12_4 C20_4 1_555 1_555
C21_3 N12_4 1_555 1_555
H13_3 C21_3 1_555 1_555
C22_3 N11_3 1_555 1_555
H14_3 C22_3 1_555 1_555
N3_6 C7_4 1_555 1_555
C7_4 C8_4 1_555 1_555
C10_4 C11_4 1_555 1_555
N9_3 C18_3 1_555 1_555
C14_4 C17_4 1_555 1_555
C15_4 C16_6 1_555 1_555
C18_3 C19_3 1_555 1_555
C21_3 C22_3 1_555 1_555
N7_4 C12_7 1_555 1_555
N8_5 C17_5 1_555 1_555
N9_4 Co1_4 1_555 1_555
N10_4 N9_4 1_555 1_555
N11_4 Co1_4 1_555 1_555
N12_5 C20_5 1_555 1_555
C12_7 H8_7 1_555 1_555
C13_7 C12_7 1_555 1_555
H9_7 C13_7 1_555 1_555
C14_5 C13_7 1_555 1_555
C15_5 C14_5 1_555 1_555
H10_5 C15_5 1_555 1_555
C16_7 N7_4 1_555 1_555
H11_4 C16_7 1_555 1_555
C17_5 N10_4 1_555 1_555
C18_4 N8_5 1_555 1_555
C19_4 N11_4 1_555 1_555
C20_5 C19_4 1_555 1_555
H12_5 C20_5 1_555 1_555
C21_4 N12_5 1_555 1_555
H13_4 C21_4 1_555 1_555
C22_4 N11_4 1_555 1_555
H14_4 C22_4 1_555 1_555
Co2 N7_4 1_555 1_555
N13 Co1_4 1_555 1_555
N9_4 C18_4 1_555 1_555
C14_5 C17_5 1_555 1_555
C15_5 C16_7 1_555 1_555
C18_4 C19_4 1_555 1_555
C21_4 C22_4 1_555 1_555
N7_5 C12_8 1_555 1_555
N9_5 Co1_5 1_555 1_555
N10_5 N9_5 1_555 1_555
C12_8 H8_8 1_555 1_555
C13_8 C12_8 1_555 1_555
H9_8 C13_8 1_555 1_555
C14_6 C13_8 1_555 1_555
C15_6 C14_6 1_555 1_555
H10_6 C15_6 1_555 1_555
C16_8 N7_5 1_555 1_555
H11_5 C16_8 1_555 1_555
C17_6 N10_5 1_555 1_555
Co2_2 N7_5 1_555 1_555
N13_2 Co1_5 1_555 1_555
C14_6 C17_6 1_555 1_555
C15_6 C16_8 1_555 1_555
N7_6 C12_9 1_555 1_555
N9_6 Co1_6 1_555 1_555
N10_6 N9_6 1_555 1_555
C12_9 H8_9 1_555 1_555
C13_9 C12_9 1_555 1_555
H9_9 C13_9 1_555 1_555
C14_7 C13_9 1_555 1_555
C15_7 C14_7 1_555 1_555
H10_7 C15_7 1_555 1_555
C16_9 N7_6 1_555 1_555
H11_6 C16_9 1_555 1_555
C17_7 N10_6 1_555 1_555
Co2_3 N7_6 1_555 1_555
N13_3 Co1_6 1_555 1_555
C14_7 C17_7 1_555 1_555
C15_7 C16_9 1_555 1_555
Co2_3 N3_7 1_555 1_555
N13_2 C1_4 1_555 1_555
N2_2 C6_4 1_555 1_555
N3_7 N4_7 1_555 1_555
N4_7 C6_4 1_555 1_555
N5_5 Co2_3 1_555 1_555
N6_2 C9_2 1_555 1_555
C1_4 H1_4 1_555 1_555
C2_4 C1_4 1_555 1_555
H2_4 C2_4 1_555 1_555
C3_4 C2_4 1_555 1_555
C4_4 C3_4 1_555 1_555
H3_4 C4_4 1_555 1_555
C5_4 N13_2 1_555 1_555
C6_4 C3_4 1_555 1_555
C7_5 N2_2 1_555 1_555
C8_5 N5_5 1_555 1_555
C9_2 C8_5 1_555 1_555
H5_2 C9_2 1_555 1_555
C10_5 N6_2 1_555 1_555
H6_5 C10_5 1_555 1_555
C11_5 N5_5 1_555 1_555
H7_5 C11_5 1_555 1_555
N9_7 Co2_3 1_555 1_555
N10_7 N9_7 1_555 1_555
N11_5 Co2_3 1_555 1_555
C19_5 N11_5 1_555 1_555
H13_5 C21_5 1_555 1_555
C22_5 N11_5 1_555 1_555
H14_5 C22_5 1_555 1_555
N13_4 Co2_3 1_555 1_555
N3_7 C7_5 1_555 1_555
C4_4 C5_4 1_555 1_555
C7_5 C8_5 1_555 1_555
C10_5 C11_5 1_555 1_555
N9_7 C18_5 1_555 1_555
C18_5 C19_5 1_555 1_555
C21_5 C22_5 1_555 1_555
Co2 N3_8 1_555 1_555
N13_3 C1_5 1_555 1_555
N2_3 C6_5 1_555 1_555
N3_8 N4_8 1_555 1_555
N4_8 C6_5 1_555 1_555
N5_6 Co2 1_555 1_555
N6_3 C9_3 1_555 1_555
C1_5 H1_5 1_555 1_555
C2_5 C1_5 1_555 1_555
H2_5 C2_5 1_555 1_555
C3_5 C2_5 1_555 1_555
C4_5 C3_5 1_555 1_555
H3_5 C4_5 1_555 1_555
C5_5 N13_3 1_555 1_555
C6_5 C3_5 1_555 1_555
C7_6 N2_3 1_555 1_555
C8_6 N5_6 1_555 1_555
C9_3 C8_6 1_555 1_555
H5_3 C9_3 1_555 1_555
C10_6 N6_3 1_555 1_555
H6_6 C10_6 1_555 1_555
C11_6 N5_6 1_555 1_555
H7_6 C11_6 1_555 1_555
N9_8 Co2 1_555 1_555
N10_8 N9_8 1_555 1_555
N11_6 Co2 1_555 1_555
C19_6 N11_6 1_555 1_555
H13_6 C21_6 1_555 1_555
C22_6 N11_6 1_555 1_555
H14_6 C22_6 1_555 1_555
N13_5 Co2 1_555 1_555
N3_8 C7_6 1_555 1_555
C4_5 C5_5 1_555 1_555
C7_6 C8_6 1_555 1_555
C10_6 C11_6 1_555 1_555
N9_8 C18_6 1_555 1_555
C18_6 C19_6 1_555 1_555
C21_6 C22_6 1_555 1_555
Co2_2 N3_9 1_555 1_555
N13 C1_6 1_555 1_555
N2_4 C6_6 1_555 1_555
N3_9 N4_9 1_555 1_555
N4_9 C6_6 1_555 1_555
N5_7 Co2_2 1_555 1_555
N6_4 C9_4 1_555 1_555
C1_6 H1_6 1_555 1_555
C2_6 C1_6 1_555 1_555
H2_6 C2_6 1_555 1_555
C3_6 C2_6 1_555 1_555
C4_6 C3_6 1_555 1_555
H3_6 C4_6 1_555 1_555
C5_6 N13 1_555 1_555
C6_6 C3_6 1_555 1_555
C7_7 N2_4 1_555 1_555
C8_7 N5_7 1_555 1_555
C9_4 C8_7 1_555 1_555
H5_4 C9_4 1_555 1_555
C10_7 N6_4 1_555 1_555
H6_7 C10_7 1_555 1_555
C11_7 N5_7 1_555 1_555
H7_7 C11_7 1_555 1_555
N9_9 Co2_2 1_555 1_555
N10_9 N9_9 1_555 1_555
N11_7 Co2_2 1_555 1_555
C19_7 N11_7 1_555 1_555
H13_7 C21_7 1_555 1_555
C22_7 N11_7 1_555 1_555
H14_7 C22_7 1_555 1_555
N13_6 Co2_2 1_555 1_555
N3_9 C7_7 1_555 1_555
C4_6 C5_6 1_555 1_555
C7_7 C8_7 1_555 1_555
C10_7 C11_7 1_555 1_555
N9_9 C18_7 1_555 1_555
C18_7 C19_7 1_555 1_555
C21_7 C22_7 1_555 1_555
N13_5 C1_7 1_555 1_555
C1_7 H1_7 1_555 1_555
C2_7 C1_7 1_555 1_555
H2_7 C2_7 1_555 1_555
C5_7 N13_5 1_555 1_555
H4_7 C5_7 1_555 1_555
N13_6 C1_8 1_555 1_555
N2_5 C6_7 1_555 1_555
N6_5 C9_5 1_555 1_555
C1_8 H1_8 1_555 1_555
C2_8 C1_8 1_555 1_555
H2_8 C2_8 1_555 1_555
C3_7 C2_8 1_555 1_555
C4_7 C3_7 1_555 1_555
H3_7 C4_7 1_555 1_555
C5_8 N13_6 1_555 1_555
H4_8 C5_8 1_555 1_555
C6_7 C3_7 1_555 1_555
H5_5 C9_5 1_555 1_555
C4_7 C5_8 1_555 1_555
N13_4 C1_9 1_555 1_555
C1_9 H1_9 1_555 1_555
C2_9 C1_9 1_555 1_555
H2_9 C2_9 1_555 1_555
C5_9 N13_4 1_555 1_555
H4_9 C5_9 1_555 1_555
N11_8 Co1_7 1_555 1_555
N12_6 C20_6 1_555 1_555
C18_8 N8_6 1_555 1_555
C19_8 N11_8 1_555 1_555
C20_6 C19_8 1_555 1_555
H12_6 C20_6 1_555 1_555
C21_8 N12_6 1_555 1_555
H13_8 C21_8 1_555 1_555
C22_8 N11_8 1_555 1_555
H14_8 C22_8 1_555 1_555
C18_8 C19_8 1_555 1_555
C21_8 C22_8 1_555 1_555
N5_8 Co1_8 1_555 1_555
N6_6 C9_6 1_555 1_555
C7_8 N2_6 1_555 1_555
C8_8 N5_8 1_555 1_555
C9_6 C8_8 1_555 1_555
H5_6 C9_6 1_555 1_555
C10_8 N6_6 1_555 1_555
H6_8 C10_8 1_555 1_555
C11_8 N5_8 1_555 1_555
H7_8 C11_8 1_555 1_555
C7_8 C8_8 1_555 1_555
C10_8 C11_8 1_555 1_555
N5_9 Co1_9 1_555 1_555
N6_7 C9_7 1_555 1_555
C7_9 N2_7 1_555 1_555
C8_9 N5_9 1_555 1_555
C9_7 C8_9 1_555 1_555
H5_7 C9_7 1_555 1_555
C10_9 N6_7 1_555 1_555
H6_9 C10_9 1_555 1_555
C11_9 N5_9 1_555 1_555
H7_9 C11_9 1_555 1_555
C7_9 C8_9 1_555 1_555
C10_9 C11_9 1_555 1_555
N11_9 Co1_10 1_555 1_555
N12_7 C20_7 1_555 1_555
C18_9 N8_7 1_555 1_555
C19_9 N11_9 1_555 1_555
C20_7 C19_9 1_555 1_555
H12_7 C20_7 1_555 1_555
C21_9 N12_7 1_555 1_555
H13_9 C21_9 1_555 1_555
C22_9 N11_9 1_555 1_555
H14_9 C22_9 1_555 1_555
C18_9 C19_9 1_555 1_555
C21_9 C22_9 1_555 1_555
N8_8 C17_8 1_555 1_555
N12_8 C20_8 1_555 1_555
C15_8 C14_8 1_555 1_555
H10_8 C15_8 1_555 1_555
H12_8 C20_8 1_555 1_555
C14_8 C17_8 1_555 1_555
N8_9 C17_9 1_555 1_555
N12_9 C20_9 1_555 1_555
C15_9 C14_9 1_555 1_555
H10_9 C15_9 1_555 1_555
H12_9 C20_9 1_555 1_555
C14_9 C17_9 1_555 1_555
N2_8 C6_8 1_555 1_555
N6_8 C9_8 1_555 1_555
C4_8 C3_8 1_555 1_555
H3_8 C4_8 1_555 1_555
C6_8 C3_8 1_555 1_555
H5_8 C9_8 1_555 1_555
N2_9 C6_9 1_555 1_555
N6_9 C9_9 1_555 1_555
C4_9 C3_9 1_555 1_555
H3_9 C4_9 1_555 1_555
C6_9 C3_9 1_555 1_555
H5_9 C9_9 1_555 1_555

#END
