
###############################################################################
#
# This file contains modified crystal structure data generated from the
# MOF subset of the Cambridge Structural Database (CSD) v543 
# hosted by the Cambridge Crystallographic Data Centre (CCDC).
#
# This work is licensed under the Creative Commons
# Attribution-NonCommercial-ShareAlike 4.0 International License.
# To view a copy of this license, visit
# http://creativecommons.org/licenses/by-nc-sa/4.0/
# or send a letter to
# Creative Commons, PO Box 1866, Mountain View, CA 94042, USA.
#
# CIF created using the CSD Python API on 29 September 2022
# The structure has been converted into the P1 space group
# The structure has a 3D framework
# The original CSD entry EJIDUW01 is in the triclinic crystal system
# The framework has been calculated to contain at least 10.0% void space
# The void calculation uses a probe of radius 1.32A, grid spacing 0.4
#
###############################################################################

data_EJIDUW01
_chemical_formula_moiety         '(C18 H32 Nd2 O15)n'
_symmetry_cell_setting           triclinic
_symmetry_space_group_name_H-M   'P 1'
_symmetry_Int_Tables_number      1
_space_group_name_Hall           'P 1'
loop_
_symmetry_equiv_pos_site_id
_symmetry_equiv_pos_as_xyz
1 x,y,z
_cell_length_a                   9.1820(1)
_cell_length_b                   9.6870(1)
_cell_length_c                   10.6390(2)
_cell_angle_alpha                106.807(1)
_cell_angle_beta                 95.625(1)
_cell_angle_gamma                118.060(1)
_cell_volume                     768.105
loop_
_atom_site_label
_atom_site_type_symbol
_atom_site_fract_x
_atom_site_fract_y
_atom_site_fract_z
_atom_site_U_iso_or_equiv
_atom_site_thermal_displace_type
O4 O 0.1246(4) 0.3823(4) 0.1696(3) 0.0122 Uani
C4 C 0.0093(5) 0.4150(5) 0.1924(4) 0.0093 Uani
H5 H 0.0186 0.3742 0.3713 0.0120 Uiso
O7 O 0.0501(4) 0.7961(4) 0.1471(3) 0.0169 Uani
H13 H 0.088(8) 0.886(8) 0.175(6) 0.0250 Uiso
H14 H 0.136(8) 0.793(7) 0.164(6) 0.0250 Uiso
Nd4 Nd 0.23498(2) 0.45502(2) 0.981800(17) 0.0078 Uani
Nd6 Nd 0.76502(2) 0.54498(2) 0.018200(17) 0.0078 Uani
O12 O 0.5084(4) 0.5343(4) 0.1329(3) 0.0115 Uani
O19 O 0.3082(4) 0.7282(3) 0.1699(3) 0.0105 Uani
O21 O 0.4544(4) 0.7627(3) 0.0179(3) 0.0120 Uani
O1 O 0.7626(4) 0.6380(4) 0.2662(3) 0.0136 Uani
O3 O 0.9379(4) 0.4507(4) 0.1105(3) 0.0124 Uani
C1 C 0.6071(5) 0.5984(5) 0.2521(4) 0.0107 Uani
C2 C 0.5408(5) 0.6204(6) 0.3755(4) 0.0132 Uani
H1 H 0.4235 0.5992 0.3486 0.0160 Uiso
H2 H 0.6159 0.7379 0.4432 0.0160 Uiso
C3 C 0.5372(6) 0.4952(6) 0.4396(4) 0.0134 Uani
H3 H 0.4677 0.3786 0.3695 0.0160 Uiso
H4 H 0.6556 0.5204 0.4697 0.0160 Uiso
C5 C 0.9585(5) 0.4142(5) 0.3228(4) 0.0099 Uani
H6 H 0.9970 0.5314 0.3824 0.0120 Uiso
C6 C 0.7649(5) 0.3017(5) 0.2993(4) 0.0112 Uani
H7 H 0.7052 0.3427 0.2519 0.0130 Uiso
H8 H 0.7403 0.3130 0.3891 0.0130 Uiso
C7 C 0.6924(5) 0.1154(5) 0.2155(4) 0.0122 Uani
H9 H 0.7205 0.1029 0.1270 0.0140 Uiso
H10 H 0.7454 0.0707 0.2650 0.0140 Uiso
C8 C 0.4975(6) 0.0145(6) 0.1904(5) 0.0131 Uani
H11 H 0.4787 0.0502 0.2832 0.0150 Uiso
H12 H 0.4533 0.0560 0.1371 0.0150 Uiso
O8 O 0.7731(4) 0.8097(4) 0.0378(3) 0.0147 Uani
H15 H 0.874(7) 0.923(7) 0.102(6) 0.0220 Uiso
H16 H 0.715(8) 0.824(8) 0.023(6) 0.0220 Uiso
O9 O 0.2374(4) 0.3620(4) 0.7338(3) 0.0136 Uani
O10 O 0.4916(4) 0.4657(4) 0.8671(3) 0.0115 Uani
O13 O 0.0621(4) 0.5493(4) 0.8895(3) 0.0124 Uani
C10 C 0.3929(5) 0.4016(5) 0.7479(4) 0.0107 Uani
C11 C 0.4592(5) 0.3796(6) 0.6245(4) 0.0132 Uani
H17 H 0.5765 0.4008 0.6514 0.0160 Uiso
H18 H 0.3841 0.2621 0.5568 0.0160 Uiso
C12 C 0.4628(6) 0.5048(6) 0.5604(4) 0.0134 Uani
H19 H 0.5323 0.6214 0.6305 0.0160 Uiso
H20 H 0.3444 0.4796 0.5303 0.0160 Uiso
O23 O 0.2269(4) 0.1903(4) 0.9622(3) 0.0147 Uani
H31 H 0.126(7) 0.077(7) 0.898(6) 0.0220 Uiso
H32 H 0.285(8) 0.176(8) 0.977(6) 0.0220 Uiso
O15 O 0.8754(4) 0.6177(4) 0.8304(3) 0.0122 Uani
O18 O 0.6918(4) 0.2718(3) 0.8301(3) 0.0105 Uani
O20 O 0.5456(4) 0.2373(3) 0.9821(3) 0.0120 Uani
C18 C 0.5832(5) 0.1749(5) 0.8777(4) 0.0104 Uani
C9 C 0.4168(5) 0.8251(5) 0.1223(4) 0.0104 Uani
C14 C 0.0415(5) 0.5858(5) 0.6772(4) 0.0099 Uani
H22 H 0.0030 0.4686 0.6176 0.0120 Uiso
C15 C 0.2351(5) 0.6983(5) 0.7007(4) 0.0112 Uani
H23 H 0.2948 0.6573 0.7481 0.0130 Uiso
H24 H 0.2597 0.6870 0.6109 0.0130 Uiso
C16 C 0.3076(5) 0.8846(5) 0.7845(4) 0.0122 Uani
H25 H 0.2795 0.8971 0.8730 0.0140 Uiso
H26 H 0.2546 0.9293 0.7350 0.0140 Uiso
C17 C 0.5025(6) 0.9855(6) 0.8096(5) 0.0131 Uani
H27 H 0.5213 0.9498 0.7168 0.0150 Uiso
H28 H 0.5467 0.9440 0.8629 0.0150 Uiso
O22 O 0.9499(4) 0.2039(4) 0.8529(3) 0.0169 Uani
H29 H 0.912(8) 0.114(8) 0.825(6) 0.0250 Uiso
H30 H 0.864(8) 0.207(7) 0.836(6) 0.0250 Uiso
C13 C 0.9907(5) 0.5850(5) 0.8076(4) 0.0093 Uani
H21 H 0.9814 0.6258 0.6287 0.0120 Uiso
loop_
_atom_site_aniso_label
_atom_site_aniso_U_11
_atom_site_aniso_U_22
_atom_site_aniso_U_33
_atom_site_aniso_U_23
_atom_site_aniso_U_13
_atom_site_aniso_U_12
O4 0.0109 0.0139 0.0143 0.0072 0.0066 0.0068
C4 0.008 0.0044 0.01 0.0014 0.0019 0
O7 0.008 0.0089 0.0271 0.0005 0.0003 0.004
Nd4 0.00789 0.00804 0.00707 0.00275 0.00181 0.00397
Nd6 0.00789 0.00804 0.00707 0.00275 0.00181 0.00397
O12 0.0109 0.0134 0.0086 0.0033 -0.0003 0.0063
O19 0.0095 0.0097 0.0116 0.004 0.0043 0.0043
O21 0.0116 0.0114 0.011 0.0029 0.0025 0.0055
O1 0.0105 0.0187 0.01 0.0036 0.0024 0.0077
O3 0.0133 0.0115 0.0122 0.0057 0.0017 0.006
C1 0.015 0.0065 0.011 0.0034 0.0038 0.0058
C2 0.015 0.018 0.011 0.0066 0.0064 0.0107
C3 0.019 0.019 0.01 0.0079 0.0087 0.0134
C5 0.011 0.009 0.0075 0.0016 0.0017 0.0047
C6 0.012 0.011 0.0104 0.0035 0.0038 0.0061
C7 0.011 0.013 0.012 0.0038 0.004 0.0062
C8 0.013 0.011 0.016 0.0054 0.0054 0.0063
O8 0.0109 0.0101 0.0236 0.0057 0.0034 0.0065
O9 0.0105 0.0187 0.01 0.0036 0.0024 0.0077
O10 0.0109 0.0134 0.0086 0.0033 -0.0003 0.0063
O13 0.0133 0.0115 0.0122 0.0057 0.0017 0.006
C10 0.015 0.0065 0.011 0.0034 0.0038 0.0058
C11 0.015 0.018 0.011 0.0066 0.0064 0.0107
C12 0.019 0.019 0.01 0.0079 0.0087 0.0134
O23 0.0109 0.0101 0.0236 0.0057 0.0034 0.0065
O15 0.0109 0.0139 0.0143 0.0072 0.0066 0.0068
O18 0.0095 0.0097 0.0116 0.004 0.0043 0.0043
O20 0.0116 0.0114 0.011 0.0029 0.0025 0.0055
C18 0.009 0.015 0.01 0.0052 0.0013 0.0083
C9 0.009 0.015 0.01 0.0052 0.0013 0.0083
C14 0.011 0.009 0.0075 0.0016 0.0017 0.0047
C15 0.012 0.011 0.0104 0.0035 0.0038 0.0061
C16 0.011 0.013 0.012 0.0038 0.004 0.0062
C17 0.013 0.011 0.016 0.0054 0.0054 0.0063
O22 0.008 0.0089 0.0271 0.0005 0.0003 0.004
C13 0.008 0.0044 0.01 0.0014 0.0019 0
loop_
_geom_bond_atom_site_label_1
_geom_bond_atom_site_label_2
_geom_bond_site_symmetry_1
_geom_bond_site_symmetry_2
O4 C4 1_555 1_555
H13 O7 1_555 1_555
H14 O7 1_555 1_555
Nd6 O12 1_555 1_555
Nd6 O1 1_555 1_555
O1 C1 1_555 1_555
O3 Nd6 1_555 1_555
C1 O12 1_555 1_555
C2 C1 1_555 1_555
H1 C2 1_555 1_555
H2 C2 1_555 1_555
C3 C2 1_555 1_555
H3 C3 1_555 1_555
H4 C3 1_555 1_555
H6 C5 1_555 1_555
C6 C5 1_555 1_555
H7 C6 1_555 1_555
H8 C6 1_555 1_555
C7 C6 1_555 1_555
H9 C7 1_555 1_555
H10 C7 1_555 1_555
C8 C7 1_555 1_555
H11 C8 1_555 1_555
H12 C8 1_555 1_555
O8 Nd6 1_555 1_555
H15 O8 1_555 1_555
H16 O8 1_555 1_555
Nd4 O9 1_555 1_555
O9 C10 1_555 1_555
O10 Nd4 1_555 1_555
O13 Nd4 1_555 1_555
C10 O10 1_555 1_555
C11 C10 1_555 1_555
H17 C11 1_555 1_555
H18 C11 1_555 1_555
C12 C3 1_555 1_555
H19 C12 1_555 1_555
H20 C12 1_555 1_555
O23 Nd4 1_555 1_555
H31 O23 1_555 1_555
H32 O23 1_555 1_555
C11 C12 1_555 1_555
C18 O18 1_555 1_555
O20 C18 1_555 1_555
O19 C9 1_555 1_555
O21 C9 1_555 1_555
H22 C14 1_555 1_555
C15 C14 1_555 1_555
H23 C15 1_555 1_555
H24 C15 1_555 1_555
C16 C15 1_555 1_555
H25 C16 1_555 1_555
H26 C16 1_555 1_555
C17 C16 1_555 1_555
H27 C17 1_555 1_555
H28 C17 1_555 1_555
H29 O22 1_555 1_555
H30 O22 1_555 1_555
O15 C13 1_555 1_555

#END
