
###############################################################################
#
# This file contains modified crystal structure data generated from the
# MOF subset of the Cambridge Structural Database (CSD) v543 
# hosted by the Cambridge Crystallographic Data Centre (CCDC).
#
# This work is licensed under the Creative Commons
# Attribution-NonCommercial-ShareAlike 4.0 International License.
# To view a copy of this license, visit
# http://creativecommons.org/licenses/by-nc-sa/4.0/
# or send a letter to
# Creative Commons, PO Box 1866, Mountain View, CA 94042, USA.
#
# CIF created using the CSD Python API on 29 September 2022
# The structure has been converted into the P1 space group
# The structure has a 3D framework
# The original CSD entry EJIDUW02 is in the triclinic crystal system
# The framework has been calculated to contain at least 10.0% void space
# The void calculation uses a probe of radius 1.32A, grid spacing 0.4
#
###############################################################################

data_EJIDUW02
_chemical_formula_moiety         '(C18 H32 Nd2 O15)n'
_symmetry_cell_setting           triclinic
_symmetry_space_group_name_H-M   'P 1'
_symmetry_Int_Tables_number      1
_space_group_name_Hall           'P 1'
loop_
_symmetry_equiv_pos_site_id
_symmetry_equiv_pos_as_xyz
1 x,y,z
_cell_length_a                   9.241(1)
_cell_length_b                   9.751(2)
_cell_length_c                   10.661(2)
_cell_angle_alpha                106.93(3)
_cell_angle_beta                 95.32(2)
_cell_angle_gamma                118.32(2)
_cell_volume                     778.031
loop_
_atom_site_label
_atom_site_type_symbol
_atom_site_fract_x
_atom_site_fract_y
_atom_site_fract_z
_atom_site_U_iso_or_equiv
_atom_site_thermal_displace_type
O4 O 0.11968(19) 0.3831(2) 0.16619(17) 0.0253 Uani
C1 C 0.0055(2) 0.4148(2) 0.19054(19) 0.0163 Uani
H6 H 0.0162 0.3780 0.3739 0.0240 Uiso
O8 O 0.0487(2) 0.7942(2) 0.1505(2) 0.0343 Uani
H13 H 0.0847 0.8908 0.1849 0.0360 Uiso
H14 H 0.1333 0.7839 0.1671 0.0380 Uiso
Nd4 Nd 0.236178(11) 0.456491(11) 0.981609(9) 0.0145 Uani
Nd5 Nd 0.763822(11) 0.543509(11) 0.018391(9) 0.0145 Uani
O13 O 0.50504(19) 0.5332(2) 0.13285(15) 0.0242 Uani
O15 O 0.45757(18) 0.76278(18) 0.01884(16) 0.0224 Uani
O20 O 0.30890(18) 0.72961(18) 0.16802(16) 0.0218 Uani
O1 O 0.9345(2) 0.4511(2) 0.11082(16) 0.0259 Uani
O6 O 0.7559(2) 0.6337(2) 0.26385(16) 0.0282 Uani
C2 C 0.5003(3) 0.0135(3) 0.1899(2) 0.0239 Uani
H1 H 0.4490 0.0373 0.1279 0.0290 Uiso
H2 H 0.4690 0.0330 0.2728 0.0290 Uiso
C3 C 0.7651(2) 0.3006(2) 0.2985(2) 0.0202 Uani
H3 H 0.7340 0.3002 0.3895 0.0240 Uiso
H4 H 0.7021 0.3403 0.2494 0.0240 Uiso
C4 C 0.6027(3) 0.5949(2) 0.25053(19) 0.0183 Uani
C5 C 0.9572(3) 0.4127(2) 0.3208(2) 0.0196 Uani
H5 H 0.9929 0.5377 0.3820 0.0240 Uiso
C6 C 0.5375(3) 0.6157(3) 0.3742(2) 0.0259 Uani
H7 H 0.6070 0.7229 0.4305 0.0310 Uiso
H8 H 0.4171 0.5938 0.3567 0.0310 Uiso
C8 C 0.6936(3) 0.1151(2) 0.2149(2) 0.0212 Uani
H9 H 0.7365 0.0601 0.2639 0.0250 Uiso
H10 H 0.7156 0.0946 0.1350 0.0250 Uiso
O7 O 0.7732(2) 0.8075(2) 0.03738(19) 0.0305 Uani
H11 H 0.6823 0.8025 0.0300 0.0540 Uiso
H12 H 0.8536 0.9063 0.0815 0.0490 Uiso
C9 C 0.5361(3) 0.4945(3) 0.4388(2) 0.0284 Uani
H15 H 0.6480 0.5221 0.4634 0.0340 Uiso
H16 H 0.4657 0.3672 0.3673 0.0340 Uiso
O10 O 0.0655(2) 0.5489(2) 0.88918(16) 0.0259 Uani
O11 O 0.49496(19) 0.4668(2) 0.86715(15) 0.0242 Uani
O21 O 0.2441(2) 0.3663(2) 0.73615(16) 0.0282 Uani
C13 C 0.3973(3) 0.4051(2) 0.74947(19) 0.0183 Uani
C15 C 0.4625(3) 0.3843(3) 0.6258(2) 0.0259 Uani
H23 H 0.3930 0.2771 0.5695 0.0310 Uiso
H24 H 0.5829 0.4062 0.6433 0.0310 Uiso
O22 O 0.2268(2) 0.1925(2) 0.96262(19) 0.0305 Uani
H27 H 0.3177 0.1975 0.9700 0.0540 Uiso
H28 H 0.1464 0.0937 0.9185 0.0490 Uiso
C18 C 0.4639(3) 0.5055(3) 0.5612(2) 0.0284 Uani
H31 H 0.3520 0.4779 0.5366 0.0340 Uiso
H32 H 0.5343 0.6328 0.6327 0.0340 Uiso
O14 O 0.54243(18) 0.23722(18) 0.98116(16) 0.0224 Uani
O17 O 0.88032(19) 0.6169(2) 0.83381(17) 0.0253 Uani
O19 O 0.69110(18) 0.27039(18) 0.83198(16) 0.0218 Uani
C16 C 0.5804(2) 0.1748(2) 0.8779(2) 0.0179 Uani
C7 C 0.4196(2) 0.8252(2) 0.1221(2) 0.0179 Uani
C11 C 0.4997(3) 0.9865(3) 0.8101(2) 0.0239 Uani
H17 H 0.5510 0.9627 0.8721 0.0290 Uiso
H18 H 0.5310 0.9670 0.7272 0.0290 Uiso
C12 C 0.2349(2) 0.6994(2) 0.7015(2) 0.0202 Uani
H19 H 0.2660 0.6998 0.6105 0.0240 Uiso
H20 H 0.2979 0.6597 0.7506 0.0240 Uiso
C14 C 0.0428(3) 0.5873(2) 0.6792(2) 0.0196 Uani
H21 H 0.0071 0.4623 0.6180 0.0240 Uiso
C17 C 0.3064(3) 0.8849(2) 0.7851(2) 0.0212 Uani
H25 H 0.2635 0.9399 0.7361 0.0250 Uiso
H26 H 0.2844 0.9054 0.8650 0.0250 Uiso
O23 O 0.9513(2) 0.2058(2) 0.8495(2) 0.0343 Uani
H29 H 0.9153 0.1092 0.8151 0.0360 Uiso
H30 H 0.8667 0.2161 0.8329 0.0380 Uiso
C10 C 0.9945(2) 0.5852(2) 0.80946(19) 0.0163 Uani
H22 H 0.9838 0.6220 0.6261 0.0240 Uiso
loop_
_atom_site_aniso_label
_atom_site_aniso_U_11
_atom_site_aniso_U_22
_atom_site_aniso_U_33
_atom_site_aniso_U_23
_atom_site_aniso_U_13
_atom_site_aniso_U_12
O4 0.0238 0.0312 0.0304 0.017 0.0152 0.0171
C1 0.015 0.0124 0.0174 0.006 0.0046 0.004
O8 0.0178 0.0206 0.0526 0.0018 0.0008 0.0098
Nd4 0.01386 0.01416 0.01441 0.00557 0.00328 0.0067
Nd5 0.01386 0.01416 0.01441 0.00557 0.00328 0.0067
O13 0.0227 0.0317 0.0175 0.0086 0.0035 0.0146
O15 0.0201 0.021 0.026 0.0089 0.0089 0.0103
O20 0.0184 0.018 0.0258 0.0085 0.0091 0.0067
O1 0.0262 0.0291 0.0263 0.0162 0.0052 0.0146
O6 0.0218 0.0428 0.0197 0.0097 0.0072 0.0177
C2 0.0202 0.017 0.0335 0.0087 0.0109 0.0089
C3 0.02 0.0154 0.023 0.007 0.0112 0.0069
C4 0.022 0.0198 0.0154 0.0078 0.0065 0.0119
C5 0.0203 0.019 0.0159 0.0066 0.0075 0.0073
C6 0.0303 0.038 0.0195 0.0123 0.0128 0.0235
C8 0.0195 0.0165 0.0249 0.0063 0.0081 0.0081
O7 0.0192 0.0208 0.0501 0.0102 0.0081 0.0116
C9 0.036 0.0411 0.0234 0.0176 0.019 0.0266
O10 0.0262 0.0291 0.0263 0.0162 0.0052 0.0146
O11 0.0227 0.0317 0.0175 0.0086 0.0035 0.0146
O21 0.0218 0.0428 0.0197 0.0097 0.0072 0.0177
C13 0.022 0.0198 0.0154 0.0078 0.0065 0.0119
C15 0.0303 0.038 0.0195 0.0123 0.0128 0.0235
O22 0.0192 0.0208 0.0501 0.0102 0.0081 0.0116
C18 0.036 0.0411 0.0234 0.0176 0.019 0.0266
O14 0.0201 0.021 0.026 0.0089 0.0089 0.0103
O17 0.0238 0.0312 0.0304 0.017 0.0152 0.0171
O19 0.0184 0.018 0.0258 0.0085 0.0091 0.0067
C16 0.0131 0.018 0.0221 0.0082 0.0047 0.0076
C7 0.0131 0.018 0.0221 0.0082 0.0047 0.0076
C11 0.0202 0.017 0.0335 0.0087 0.0109 0.0089
C12 0.02 0.0154 0.023 0.007 0.0112 0.0069
C14 0.0203 0.019 0.0159 0.0066 0.0075 0.0073
C17 0.0195 0.0165 0.0249 0.0063 0.0081 0.0081
O23 0.0178 0.0206 0.0526 0.0018 0.0008 0.0098
C10 0.015 0.0124 0.0174 0.006 0.0046 0.004
loop_
_geom_bond_atom_site_label_1
_geom_bond_atom_site_label_2
_geom_bond_site_symmetry_1
_geom_bond_site_symmetry_2
O4 C1 1_555 1_555
H13 O8 1_555 1_555
H14 O8 1_555 1_555
O13 Nd5 1_555 1_555
Nd5 O1 1_555 1_555
O6 Nd5 1_555 1_555
C2 H1 1_555 1_555
H2 C2 1_555 1_555
C3 H3 1_555 1_555
H4 C3 1_555 1_555
C4 O13 1_555 1_555
C5 C3 1_555 1_555
H5 C5 1_555 1_555
C6 C4 1_555 1_555
H7 C6 1_555 1_555
H8 C6 1_555 1_555
C8 C2 1_555 1_555
H9 C8 1_555 1_555
H10 C8 1_555 1_555
O7 Nd5 1_555 1_555
H11 O7 1_555 1_555
H12 O7 1_555 1_555
C9 C6 1_555 1_555
H15 C9 1_555 1_555
H16 C9 1_555 1_555
Nd4 O10 1_555 1_555
O11 Nd4 1_555 1_555
O21 Nd4 1_555 1_555
C13 O11 1_555 1_555
C15 C13 1_555 1_555
H23 C15 1_555 1_555
H24 C15 1_555 1_555
O22 Nd4 1_555 1_555
H27 O22 1_555 1_555
H28 O22 1_555 1_555
C18 C9 1_555 1_555
H31 C18 1_555 1_555
H32 C18 1_555 1_555
O6 C4 1_555 1_555
C3 C8 1_555 1_555
O21 C13 1_555 1_555
C15 C18 1_555 1_555
C16 O14 1_555 1_555
O19 C16 1_555 1_555
O15 C7 1_555 1_555
O20 C7 1_555 1_555
C11 H17 1_555 1_555
H18 C11 1_555 1_555
C12 H19 1_555 1_555
H20 C12 1_555 1_555
H21 C14 1_555 1_555
C17 C11 1_555 1_555
H25 C17 1_555 1_555
H26 C17 1_555 1_555
C12 C14 1_555 1_555
C12 C17 1_555 1_555
H29 O23 1_555 1_555
H30 O23 1_555 1_555
O17 C10 1_555 1_555

#END
