
###############################################################################
#
# This file contains modified crystal structure data generated from the
# MOF subset of the Cambridge Structural Database (CSD) v543 
# hosted by the Cambridge Crystallographic Data Centre (CCDC).
#
# This work is licensed under the Creative Commons
# Attribution-NonCommercial-ShareAlike 4.0 International License.
# To view a copy of this license, visit
# http://creativecommons.org/licenses/by-nc-sa/4.0/
# or send a letter to
# Creative Commons, PO Box 1866, Mountain View, CA 94042, USA.
#
# CIF created using the CSD Python API on 29 September 2022
# The structure has been converted into the P1 space group
# The structure has a 3D framework
# The original CSD entry EJIPUL is in the cubic crystal system
# The original CSD entry EJIPUL is in a Sohncke space group
# The framework has been calculated to contain at least 10.0% void space
# The void calculation uses a probe of radius 1.32A, grid spacing 0.4
# The framework is charged, counterions have been retained in the structure
# H atom positions have been added when not included in the experimental data
# Generated hydrogen atom positions removed from atoms on special positions
#
###############################################################################

data_EJIPUL
_chemical_formula_moiety         '(C552 H336 O176 Ti15 Zn20 4-)n'
_symmetry_cell_setting           triclinic
_symmetry_space_group_name_H-M   'P 1'
_symmetry_Int_Tables_number      1
_space_group_name_Hall           'P 1'
loop_
_symmetry_equiv_pos_site_id
_symmetry_equiv_pos_as_xyz
1 x,y,z
_cell_length_a                   25.4719(3)
_cell_length_b                   25.4719(3)
_cell_length_c                   25.4719(3)
_cell_angle_alpha                90
_cell_angle_beta                 90
_cell_angle_gamma                90
_cell_volume                     16526.6
loop_
_atom_site_label
_atom_site_type_symbol
_atom_site_fract_x
_atom_site_fract_y
_atom_site_fract_z
Zn1 Zn 0.62950(11) 0.62950(11) 0.62950(11)
Zn2 Zn 0.19981(11) 0.66908(13) 0.35084(12)
Zn3 Zn 0.24946(17) 0.75054(17) 0.25054(17)
Ti1 Ti 0.52514(13) 0.75450(13) 0.69073(13)
Ti2 Ti 0.19746(14) 0.69746(14) 0.80254(14)
O1 O 0.4931(4) 0.7622(5) 0.6255(5)
O2 O 0.5908(4) 0.7814(5) 0.6550(5)
O3 O 0.2529(5) 0.7484(5) 0.4245(4)
O4 O 0.3198(4) 0.7816(5) 0.4938(4)
O5 O 0.6428(5) 0.8207(5) 0.5968(5)
O6 O 0.5665(5) 0.5999(5) 0.6640(5)
O7 O 0.5555(5) 0.6846(5) 0.6753(5)
O8 O 0.4711(4) 0.7174(4) 0.7219(4)
O9 O 0.2008(6) 0.6850(6) 0.8813(6)
O10 O 0.2681(5) 0.6729(6) 0.3859(6)
O11 O 0.2697(5) 0.6930(5) 0.8045(5)
C1 C 0.5039(8) 0.7870(7) 0.5792(7)
C2 C 0.5999(8) 0.8018(8) 0.6094(8)
C3 C 0.2826(8) 0.7083(10) 0.4186(8)
C4 C 0.4629(6) 0.7928(7) 0.5462(7)
C5 C 0.4850(8) 0.6240(8) 0.7031(8)
C6 C 0.4102(7) 0.7714(7) 0.5548(7)
H1 H 0.3855 0.8004 0.5530
H2 H 0.4089 0.7578 0.5904
C7 C 0.3708(8) 0.7002(7) 0.7669(7)
H3 H 0.3883 0.7333 0.7602
H4 H 0.3374 0.7004 0.7486
C8 C 0.5390(8) 0.6385(10) 0.6800(7)
C9 C 0.3613(8) 0.6942(7) 0.8252(9)
C10 C 0.5559(7) 0.8059(7) 0.5688(8)
C11 C 0.3907(7) 0.7296(8) 0.5194(7)
C12 C 0.3450(8) 0.7385(8) 0.4896(7)
C13 C 0.4742(7) 0.8250(9) 0.4971(8)
C14 C 0.4546(8) 0.6674(9) 0.7238(8)
O12 O 0.2311(7) 0.6730(9) 0.9617(7)
C15 C 0.3052(10) 0.6908(8) 0.8415(9)
C16 C 0.3341(8) 0.5889(8) 0.7615(8)
H5 H 0.3107 0.6148 0.7722
C17 C 0.4569(8) 0.6635(8) 0.5474(8)
H6 H 0.4692 0.6880 0.5714
C18 C 0.3270(8) 0.7000(8) 0.4493(8)
C19 C 0.4334(8) 0.8380(9) 0.4627(8)
H7 H 0.3999 0.8251 0.4691
C20 C 0.5652(7) 0.8307(8) 0.5238(8)
H8 H 0.5991 0.8427 0.5173
C21 C 0.4049(8) 0.6547(7) 0.7462(8)
O13 O 0.1981(6) 0.7086(7) 0.2901(6)
C22 C 0.4174(8) 0.6779(8) 0.5165(8)
C23 C 0.3886(7) 0.6034(8) 0.7466(8)
C24 C 0.4188(8) 0.5624(9) 0.7265(8)
C25 C 0.2952(9) 0.6838(8) 0.8979(9)
C26 C 0.3349(12) 0.6811(10) 0.9320(9)
H9 H 0.3271 0.6765 0.9674
C27 C 0.5263(7) 0.8396(9) 0.4858(9)
C28 C 0.4697(10) 0.5753(7) 0.7053(8)
H10 H 0.4917 0.5488 0.6931
O14 O 0.6744(6) 0.6744(6) 0.6744(6)
C29 C 0.3975(10) 0.6416(10) 0.4768(10)
C30 C 0.4416(8) 0.8693(10) 0.4195(9)
H11 H 0.4136 0.8821 0.3998
C31 C 0.3181(9) 0.5371(9) 0.7596(10)
H12 H 0.2841 0.5282 0.7691
C32 C 0.3880(6) 0.6848(6) 0.9171(5)
C33 C 0.4256(7) 0.6813(6) 0.9554(5)
H13 H 0.4158 0.6752 0.9901
C34 C 0.4774(7) 0.6868(6) 0.9427(6)
H14 H 0.5030 0.6844 0.9686
C35 C 0.4917(6) 0.6958(6) 0.8917(6)
H15 H 0.5270 0.6996 0.8831
C36 C 0.4543(5) 0.6994(5) 0.8535(6)
H16 H 0.4640 0.7055 0.8189
C37 C 0.4024(5) 0.6939(6) 0.8662(5)
O15 O 0.2060(9) 0.5915(9) 0.3333(9)
H17 H 0.1860 0.5642 0.3562
H18 H 0.2422 0.5737 0.3377
C38 C 0.5363(10) 0.8674(12) 0.4388(11)
H19 H 0.5707 0.8761 0.4300
C39 C 0.3551(10) 0.6557(11) 0.4415(11)
H20 H 0.3472 0.6341 0.4132
C40 C 0.2384(12) 0.6801(9) 0.9136(13)
C41 C 0.4023(11) 0.5089(8) 0.7270(10)
H21 H 0.4247 0.4822 0.7163
C42 C 0.4958(9) 0.8817(11) 0.4057(9)
H22 H 0.5031 0.8992 0.3746
C43 C 0.3529(10) 0.4983(9) 0.7433(10)
H23 H 0.3418 0.4635 0.7438
C44 C 0.4803(10) 0.6162(10) 0.5466(10)
H24 H 0.5042 0.6068 0.5725
C45 C 0.4251(13) 0.5963(13) 0.4739(13)
H25 H 0.4148 0.5724 0.4483
C46 C 0.4679(19) 0.582(2) 0.5060(19)
H26 H 0.4867 0.5511 0.5004
O16 O 0.2883(9) 0.7117(9) 0.2117(9)
Zn4 Zn 0.35084(12) 0.19981(11) 0.66908(13)
Ti3 Ti 0.69073(13) 0.52514(13) 0.75450(13)
O17 O 0.6255(5) 0.4931(4) 0.7622(5)
O18 O 0.6550(5) 0.5908(4) 0.7814(5)
O19 O 0.4245(4) 0.2529(5) 0.7484(5)
O20 O 0.4938(4) 0.3198(4) 0.7816(5)
O21 O 0.5968(5) 0.6428(5) 0.8207(5)
O22 O 0.6640(5) 0.5665(5) 0.5999(5)
O23 O 0.6753(5) 0.5555(5) 0.6846(5)
O24 O 0.7219(4) 0.4711(4) 0.7174(4)
O25 O 0.8813(6) 0.2008(6) 0.6850(6)
O26 O 0.3859(6) 0.2681(5) 0.6729(6)
O27 O 0.8045(5) 0.2697(5) 0.6930(5)
C47 C 0.5792(7) 0.5039(8) 0.7870(7)
C48 C 0.6094(8) 0.5999(8) 0.8018(8)
C49 C 0.4186(8) 0.2826(8) 0.7083(10)
C50 C 0.5462(7) 0.4629(6) 0.7928(7)
C51 C 0.7031(8) 0.4850(8) 0.6240(8)
C52 C 0.5548(7) 0.4102(7) 0.7714(7)
H27 H 0.5530 0.3855 0.8004
H28 H 0.5904 0.4089 0.7578
C53 C 0.7669(7) 0.3708(8) 0.7002(7)
H29 H 0.7602 0.3883 0.7333
H30 H 0.7486 0.3374 0.7004
C54 C 0.6800(7) 0.5390(8) 0.6385(10)
C55 C 0.8252(9) 0.3613(8) 0.6942(7)
C56 C 0.5688(8) 0.5559(7) 0.8059(7)
C57 C 0.5194(7) 0.3907(7) 0.7296(8)
C58 C 0.4896(7) 0.3450(8) 0.7385(8)
C59 C 0.4971(8) 0.4742(7) 0.8250(9)
C60 C 0.7238(8) 0.4546(8) 0.6674(9)
O28 O 0.9617(7) 0.2311(7) 0.6730(9)
C61 C 0.8415(9) 0.3052(10) 0.6908(8)
C62 C 0.7615(8) 0.3341(8) 0.5889(8)
H31 H 0.7722 0.3107 0.6148
C63 C 0.5474(8) 0.4569(8) 0.6635(8)
H32 H 0.5714 0.4692 0.6880
C64 C 0.4493(8) 0.3270(8) 0.7000(8)
C65 C 0.4627(8) 0.4334(8) 0.8380(9)
H33 H 0.4691 0.3999 0.8251
C66 C 0.5238(8) 0.5652(7) 0.8307(8)
H34 H 0.5173 0.5991 0.8427
C67 C 0.7462(8) 0.4049(8) 0.6547(7)
O29 O 0.2901(6) 0.1981(6) 0.7086(7)
C68 C 0.5165(8) 0.4174(8) 0.6779(8)
C69 C 0.7466(8) 0.3886(7) 0.6034(8)
C70 C 0.7265(8) 0.4188(8) 0.5624(9)
C71 C 0.8979(9) 0.2952(9) 0.6838(8)
C72 C 0.9320(9) 0.3349(12) 0.6811(10)
H35 H 0.9674 0.3271 0.6765
C73 C 0.4858(9) 0.5263(7) 0.8396(9)
C74 C 0.7053(8) 0.4697(10) 0.5753(7)
H36 H 0.6931 0.4917 0.5488
C75 C 0.4768(10) 0.3975(10) 0.6416(10)
C76 C 0.4195(9) 0.4416(8) 0.8693(10)
H37 H 0.3998 0.4136 0.8821
C77 C 0.7596(10) 0.3181(9) 0.5371(9)
H38 H 0.7691 0.2841 0.5282
C78 C 0.9171(5) 0.3880(6) 0.6848(6)
C79 C 0.9554(5) 0.4256(7) 0.6813(6)
H39 H 0.9901 0.4158 0.6752
C80 C 0.9427(6) 0.4774(7) 0.6868(6)
H40 H 0.9686 0.5030 0.6844
C81 C 0.8917(6) 0.4917(6) 0.6958(6)
H41 H 0.8831 0.5270 0.6996
C82 C 0.8535(6) 0.4543(5) 0.6994(5)
H42 H 0.8189 0.4640 0.7055
C83 C 0.8662(5) 0.4024(5) 0.6939(6)
O30 O 0.3333(9) 0.2060(9) 0.5915(9)
H43 H 0.3562 0.1860 0.5642
H44 H 0.3377 0.2422 0.5737
C84 C 0.4388(11) 0.5363(10) 0.8674(12)
H45 H 0.4300 0.5707 0.8761
C85 C 0.4415(11) 0.3551(10) 0.6557(11)
H46 H 0.4132 0.3472 0.6341
C86 C 0.9136(13) 0.2384(12) 0.6801(9)
C87 C 0.7270(10) 0.4023(11) 0.5089(8)
H47 H 0.7163 0.4247 0.4822
C88 C 0.4057(9) 0.4958(9) 0.8817(11)
H48 H 0.3746 0.5031 0.8992
C89 C 0.7433(10) 0.3529(10) 0.4983(9)
H49 H 0.7438 0.3418 0.4635
C90 C 0.5466(10) 0.4803(10) 0.6162(10)
H50 H 0.5725 0.5042 0.6068
C91 C 0.4739(13) 0.4251(13) 0.5963(13)
H51 H 0.4483 0.4148 0.5724
C92 C 0.5060(19) 0.4679(19) 0.582(2)
H52 H 0.5004 0.4867 0.5511
Zn5 Zn 0.66908(13) 0.35084(12) 0.19981(11)
Ti4 Ti 0.75450(13) 0.69073(13) 0.52514(13)
O31 O 0.7622(5) 0.6255(5) 0.4931(4)
O32 O 0.7814(5) 0.6550(5) 0.5908(4)
O33 O 0.7484(5) 0.4245(4) 0.2529(5)
O34 O 0.7816(5) 0.4938(4) 0.3198(4)
O35 O 0.8207(5) 0.5968(5) 0.6428(5)
O36 O 0.5999(5) 0.6640(5) 0.5665(5)
O37 O 0.6846(5) 0.6753(5) 0.5555(5)
O38 O 0.7174(4) 0.7219(4) 0.4711(4)
O39 O 0.6850(6) 0.8813(6) 0.2008(6)
O40 O 0.6729(6) 0.3859(6) 0.2681(5)
O41 O 0.6930(5) 0.8045(5) 0.2697(5)
C93 C 0.7870(7) 0.5792(7) 0.5039(8)
C94 C 0.8018(8) 0.6094(8) 0.5999(8)
C95 C 0.7083(10) 0.4186(8) 0.2826(8)
C96 C 0.7928(7) 0.5462(7) 0.4629(6)
C97 C 0.6240(8) 0.7031(8) 0.4850(8)
C98 C 0.7714(7) 0.5548(7) 0.4102(7)
H53 H 0.8004 0.5530 0.3855
H54 H 0.7578 0.5904 0.4089
C99 C 0.7002(7) 0.7669(7) 0.3708(8)
H55 H 0.7333 0.7602 0.3883
H56 H 0.7004 0.7486 0.3374
C100 C 0.6385(10) 0.6800(7) 0.5390(8)
C101 C 0.6942(7) 0.8252(9) 0.3613(8)
C102 C 0.8059(7) 0.5688(8) 0.5559(7)
C103 C 0.7296(8) 0.5194(7) 0.3907(7)
C104 C 0.7385(8) 0.4896(7) 0.3450(8)
C105 C 0.8250(9) 0.4971(8) 0.4742(7)
C106 C 0.6674(9) 0.7238(8) 0.4546(8)
O42 O 0.6730(9) 0.9617(7) 0.2311(7)
C107 C 0.6908(8) 0.8415(9) 0.3052(10)
C108 C 0.5889(8) 0.7615(8) 0.3341(8)
H57 H 0.6148 0.7722 0.3107
C109 C 0.6635(8) 0.5474(8) 0.4569(8)
H58 H 0.6880 0.5714 0.4692
C110 C 0.7000(8) 0.4493(8) 0.3270(8)
C111 C 0.8380(9) 0.4627(8) 0.4334(8)
H59 H 0.8251 0.4691 0.3999
C112 C 0.8307(8) 0.5238(8) 0.5652(7)
H60 H 0.8427 0.5173 0.5991
C113 C 0.6547(7) 0.7462(8) 0.4049(8)
O43 O 0.7086(7) 0.2901(6) 0.1981(6)
C114 C 0.6779(8) 0.5165(8) 0.4174(8)
C115 C 0.6034(8) 0.7466(8) 0.3886(7)
C116 C 0.5624(9) 0.7265(8) 0.4188(8)
C117 C 0.6838(8) 0.8979(9) 0.2952(9)
C118 C 0.6811(10) 0.9320(9) 0.3349(12)
H61 H 0.6765 0.9674 0.3271
C119 C 0.8396(9) 0.4858(9) 0.5263(7)
C120 C 0.5753(7) 0.7053(8) 0.4697(10)
H62 H 0.5488 0.6931 0.4917
C121 C 0.6416(10) 0.4768(10) 0.3975(10)
C122 C 0.8693(10) 0.4195(9) 0.4416(8)
H63 H 0.8821 0.3998 0.4136
C123 C 0.5371(9) 0.7596(10) 0.3181(9)
H64 H 0.5282 0.7691 0.2841
C124 C 0.6848(6) 0.9171(5) 0.3880(6)
C125 C 0.6813(6) 0.9554(5) 0.4256(7)
H65 H 0.6752 0.9901 0.4158
C126 C 0.6868(6) 0.9427(6) 0.4774(7)
H66 H 0.6844 0.9686 0.5030
C127 C 0.6958(6) 0.8917(6) 0.4917(6)
H67 H 0.6996 0.8831 0.5270
C128 C 0.6994(5) 0.8535(6) 0.4543(5)
H68 H 0.7055 0.8189 0.4640
C129 C 0.6939(6) 0.8662(5) 0.4024(5)
O44 O 0.5915(9) 0.3333(9) 0.2060(9)
H69 H 0.5642 0.3562 0.1860
H70 H 0.5737 0.3377 0.2422
C130 C 0.8674(12) 0.4388(11) 0.5363(10)
H71 H 0.8761 0.4300 0.5707
C131 C 0.6557(11) 0.4415(11) 0.3551(10)
H72 H 0.6341 0.4132 0.3472
C132 C 0.6801(9) 0.9136(13) 0.2384(12)
C133 C 0.5089(8) 0.7270(10) 0.4023(11)
H73 H 0.4822 0.7163 0.4247
C134 C 0.8817(11) 0.4057(9) 0.4958(9)
H74 H 0.8992 0.3746 0.5031
C135 C 0.4983(9) 0.7433(10) 0.3529(10)
H75 H 0.4635 0.7438 0.3418
C136 C 0.6162(10) 0.5466(10) 0.4803(10)
H76 H 0.6068 0.5725 0.5042
C137 C 0.5963(13) 0.4739(13) 0.4251(13)
H77 H 0.5724 0.4483 0.4148
C138 C 0.582(2) 0.5060(19) 0.4679(19)
H78 H 0.5511 0.5004 0.4867
Zn6 Zn 0.69981(11) 0.83092(13) 0.64916(12)
Zn7 Zn 0.64916(12) 0.69981(11) 0.83092(13)
Zn8 Zn 0.83092(13) 0.64916(12) 0.69981(11)
Zn9 Zn 0.25054(17) 0.24946(17) 0.75054(17)
Zn10 Zn 0.75054(17) 0.25054(17) 0.24946(17)
Ti5 Ti 0.47486(13) 0.25450(13) 0.80927(13)
Ti6 Ti 0.80927(13) 0.47486(13) 0.25450(13)
Ti7 Ti 0.25450(13) 0.80927(13) 0.47486(13)
Ti8 Ti 0.69746(14) 0.80254(14) 0.19746(14)
Ti9 Ti 0.80254(14) 0.19746(14) 0.69746(14)
O45 O 0.7529(5) 0.7516(5) 0.5755(4)
O46 O 0.5755(4) 0.7529(5) 0.7516(5)
O47 O 0.7516(5) 0.5755(4) 0.7529(5)
O48 O 0.8198(4) 0.7184(5) 0.5062(4)
O49 O 0.5062(4) 0.8198(4) 0.7184(5)
O50 O 0.7184(5) 0.5062(4) 0.8198(4)
O51 O 0.1428(5) 0.6793(5) 0.4032(5)
O52 O 0.4032(5) 0.1428(5) 0.6793(5)
O53 O 0.6793(5) 0.4032(5) 0.1428(5)
O54 O 0.1187(6) 0.7008(6) 0.8150(6)
O55 O 0.1850(6) 0.6187(6) 0.7992(6)
O56 O 0.1955(5) 0.7697(5) 0.8070(5)
O57 O 0.1930(5) 0.6955(5) 0.7303(5)
O58 O 0.2099(6) 0.8019(6) 0.2086(7)
O59 O 0.2914(7) 0.7901(6) 0.3019(6)
Ti2_2 Ti 0.30254(14) 0.30254(14) 0.30254(14)
O1_2 O 0.0069(4) 0.2378(5) 0.1255(5)
O8_2 O 0.0289(4) 0.2826(4) 0.2219(4)
O9_2 O 0.2992(6) 0.3150(6) 0.3813(6)
O11_2 O 0.2303(5) 0.3070(5) 0.3045(5)
C4_2 C 0.0371(6) 0.2072(7) 0.0462(7)
C5_2 C 0.0150(8) 0.3760(8) 0.2031(8)
C6_2 C 0.0898(7) 0.2286(7) 0.0548(7)
H1_2 H 0.1145 0.1996 0.0530
H2_2 H 0.0911 0.2422 0.0904
C7_2 C 0.1292(8) 0.2998(7) 0.2669(7)
H3_2 H 0.1117 0.2667 0.2602
H4_2 H 0.1626 0.2996 0.2486
C9_2 C 0.1387(8) 0.3058(7) 0.3252(9)
C11_2 C 0.1093(7) 0.2704(8) 0.0194(7)
C14_2 C 0.0454(8) 0.3326(9) 0.2238(8)
O12_2 O 0.2689(7) 0.3270(9) 0.4617(7)
C15_2 C 0.1948(10) 0.3092(8) 0.3415(9)
C16_2 C 0.1659(8) 0.4111(8) 0.2615(8)
H5_2 H 0.1893 0.3852 0.2722
C17_2 C 0.0431(8) 0.3365(8) 0.0474(8)
H6_2 H 0.0308 0.3120 0.0714
C21_2 C 0.0951(8) 0.3453(7) 0.2462(8)
C22_2 C 0.0826(8) 0.3221(8) 0.0165(8)
C23_2 C 0.1114(7) 0.3966(8) 0.2466(8)
C24_2 C 0.0812(8) 0.4376(9) 0.2265(8)
C25_2 C 0.2048(9) 0.3162(8) 0.3979(9)
C26_2 C 0.1651(12) 0.3189(10) 0.4320(9)
H9_2 H 0.1729 0.3235 0.4674
C28_2 C 0.0303(10) 0.4247(7) 0.2053(8)
H10_2 H 0.0083 0.4512 0.1931
C31_2 C 0.1819(9) 0.4629(9) 0.2596(10)
H12_2 H 0.2159 0.4718 0.2691
C32_2 C 0.1120(6) 0.3152(6) 0.4171(5)
C33_2 C 0.0744(7) 0.3187(6) 0.4554(5)
H13_2 H 0.0842 0.3248 0.4901
C34_2 C 0.0226(7) 0.3132(6) 0.4427(6)
C35_2 C 0.0083(6) 0.3042(6) 0.3917(6)
C36_2 C 0.0457(5) 0.3006(5) 0.3535(6)
H16_2 H 0.0360 0.2945 0.3189
C37_2 C 0.0976(5) 0.3061(6) 0.3662(5)
C40_2 C 0.2616(12) 0.3199(9) 0.4136(13)
C41_2 C 0.0977(11) 0.4911(8) 0.2270(10)
H21_2 H 0.0753 0.5178 0.2163
C43_2 C 0.1471(10) 0.5017(9) 0.2433(10)
H23_2 H 0.1582 0.5365 0.2438
C44_2 C 0.0197(10) 0.3838(10) 0.0466(10)
C46_2 C 0.0321(19) 0.418(2) 0.0060(19)
H26_2 H 0.0133 0.4489 0.0004
Zn4_2 Zn 0.14916(12) 0.80019(11) 0.16908(13)
O19_2 O 0.0755(4) 0.7471(5) 0.2484(5)
O20_2 O 0.0062(4) 0.6802(4) 0.2816(5)
O26_2 O 0.1141(6) 0.7319(5) 0.1729(6)
C49_2 C 0.0814(8) 0.7174(8) 0.2083(10)
C58_2 C 0.0104(7) 0.6550(8) 0.2385(8)
C59_2 C 0.0029(8) 0.5258(7) 0.3250(9)
C64_2 C 0.0507(8) 0.6730(8) 0.2000(8)
C65_2 C 0.0373(8) 0.5666(8) 0.3380(9)
H33_2 H 0.0309 0.6001 0.3251
C73_2 C 0.0142(9) 0.4737(7) 0.3396(9)
C75_2 C 0.0232(10) 0.6025(10) 0.1416(10)
C76_2 C 0.0805(9) 0.5584(8) 0.3693(10)
H37_2 H 0.1002 0.5864 0.3821
O30_2 O 0.1667(9) 0.7940(9) 0.0915(9)
H43_2 H 0.1438 0.8140 0.0642
H44_2 H 0.1623 0.7578 0.0737
C84_2 C 0.0612(11) 0.4637(10) 0.3674(12)
H45_2 H 0.0700 0.4293 0.3761
C85_2 C 0.0585(11) 0.6449(10) 0.1557(11)
H46_2 H 0.0868 0.6528 0.1341
C88_2 C 0.0943(9) 0.5042(9) 0.3817(11)
H48_2 H 0.1254 0.4969 0.3992
C91_2 C 0.0261(13) 0.5749(13) 0.0963(13)
H51_2 H 0.0517 0.5852 0.0724
Ti5_2 Ti 0.02514(13) 0.74550(13) 0.30927(13)
O52_2 O 0.0968(5) 0.8572(5) 0.1793(5)
O54_2 O 0.3813(6) 0.2992(6) 0.3150(6)
O55_2 O 0.3150(6) 0.3813(6) 0.2992(6)
O56_2 O 0.3045(5) 0.2303(5) 0.3070(5)
O57_2 O 0.3070(5) 0.3045(5) 0.2303(5)
Zn2_2 Zn 0.30019(11) 0.33092(13) 0.85084(12)
O3_2 O 0.2471(5) 0.2516(5) 0.9245(4)
O4_2 O 0.1802(4) 0.2184(5) 0.9938(4)
O10_2 O 0.2319(5) 0.3271(6) 0.8859(6)
C3_2 C 0.2174(8) 0.2917(10) 0.9186(8)
C12_2 C 0.1550(8) 0.2615(8) 0.9896(7)
C13_2 C 0.0258(7) 0.1750(9) 0.9971(8)
C18_2 C 0.1730(8) 0.3000(8) 0.9493(8)
C19_2 C 0.0666(8) 0.1620(9) 0.9627(8)
H7_2 H 0.1001 0.1749 0.9691
O13_2 O 0.3019(6) 0.2914(7) 0.7901(6)
C29_2 C 0.1025(10) 0.3584(10) 0.9768(10)
C30_2 C 0.0584(8) 0.1307(10) 0.9195(9)
H11_2 H 0.0864 0.1179 0.8998
O15_2 O 0.2940(9) 0.4085(9) 0.8333(9)
H17_2 H 0.3140 0.4358 0.8562
H18_2 H 0.2578 0.4263 0.8377
C39_2 C 0.1449(10) 0.3443(11) 0.9415(11)
H20_2 H 0.1528 0.3659 0.9132
C42_2 C 0.0042(9) 0.1183(11) 0.9057(9)
C45_2 C 0.0749(13) 0.4037(13) 0.9739(13)
H25_2 H 0.0852 0.4276 0.9483
O16_2 O 0.2117(9) 0.2883(9) 0.7117(9)
H73_2 H 0.0178 0.2837 0.9247
C135_2 C 0.0017(9) 0.2567(10) 0.8529(10)
H75_2 H 0.0365 0.2562 0.8418
Ti7_2 Ti 0.24550(13) 0.19073(13) 0.97486(13)
O51_2 O 0.3572(5) 0.3207(5) 0.9032(5)
O59_2 O 0.2086(7) 0.2099(6) 0.8019(6)
Zn1_2 Zn 0.87050(11) 0.37050(11) 0.12950(11)
Ti1_2 Ti 0.97486(13) 0.24550(13) 0.19073(13)
O2_2 O 0.9092(4) 0.2186(5) 0.1550(5)
O5_2 O 0.8572(5) 0.1793(5) 0.0968(5)
O6_2 O 0.9335(5) 0.4001(5) 0.1640(5)
O7_2 O 0.9445(5) 0.3154(5) 0.1753(5)
C1_2 C 0.9961(8) 0.2130(7) 0.0792(7)
C2_2 C 0.9001(8) 0.1982(8) 0.1094(8)
C8_2 C 0.9610(8) 0.3615(10) 0.1800(7)
C10_2 C 0.9441(7) 0.1941(7) 0.0688(8)
C20_2 C 0.9348(7) 0.1693(8) 0.0238(8)
H8_2 H 0.9009 0.1573 0.0173
O14_2 O 0.8256(6) 0.3256(6) 0.1744(6)
H14_2 H 0.9970 0.3156 0.4686
H15_2 H 0.9730 0.3004 0.3831
H24_2 H 0.9958 0.3932 0.0725
O17_2 O 0.8745(5) 0.5069(4) 0.2622(5)
O18_2 O 0.8450(5) 0.4092(4) 0.2814(5)
O21_2 O 0.9032(5) 0.3572(5) 0.3207(5)
O22_2 O 0.8360(5) 0.4335(5) 0.0999(5)
O23_2 O 0.8247(5) 0.4445(5) 0.1846(5)
O24_2 O 0.7781(4) 0.5289(4) 0.2174(4)
O25_2 O 0.6187(6) 0.7992(6) 0.1850(6)
O27_2 O 0.6955(5) 0.7303(5) 0.1930(5)
C47_2 C 0.9208(7) 0.4961(8) 0.2870(7)
C48_2 C 0.8906(8) 0.4001(8) 0.3018(8)
C50_2 C 0.9538(7) 0.5371(6) 0.2928(7)
C51_2 C 0.7969(8) 0.5150(8) 0.1240(8)
C52_2 C 0.9452(7) 0.5898(7) 0.2714(7)
H27_2 H 0.9470 0.6145 0.3004
H28_2 H 0.9096 0.5911 0.2578
C53_2 C 0.7331(7) 0.6292(8) 0.2002(7)
H29_2 H 0.7398 0.6117 0.2333
H30_2 H 0.7514 0.6626 0.2004
C54_2 C 0.8200(7) 0.4610(8) 0.1385(10)
C55_2 C 0.6748(9) 0.6387(8) 0.1942(7)
C56_2 C 0.9312(8) 0.4441(7) 0.3059(7)
C57_2 C 0.9806(7) 0.6093(7) 0.2296(8)
C60_2 C 0.7762(8) 0.5454(8) 0.1674(9)
O28_2 O 0.5383(7) 0.7689(7) 0.1730(9)
C61_2 C 0.6585(9) 0.6948(10) 0.1908(8)
C62_2 C 0.7385(8) 0.6659(8) 0.0889(8)
H31_2 H 0.7278 0.6893 0.1148
C63_2 C 0.9526(8) 0.5431(8) 0.1635(8)
H32_2 H 0.9286 0.5308 0.1880
C66_2 C 0.9762(8) 0.4348(7) 0.3307(8)
H34_2 H 0.9827 0.4009 0.3427
C67_2 C 0.7538(8) 0.5951(8) 0.1547(7)
C68_2 C 0.9835(8) 0.5826(8) 0.1779(8)
C69_2 C 0.7534(8) 0.6114(7) 0.1034(8)
C70_2 C 0.7735(8) 0.5812(8) 0.0624(9)
C71_2 C 0.6021(9) 0.7048(9) 0.1838(8)
C72_2 C 0.5680(9) 0.6651(12) 0.1811(10)
H35_2 H 0.5326 0.6729 0.1765
C74_2 C 0.7947(8) 0.5303(10) 0.0753(7)
H36_2 H 0.8069 0.5083 0.0488
C77_2 C 0.7404(10) 0.6819(9) 0.0371(9)
H38_2 H 0.7309 0.7159 0.0282
C78_2 C 0.5829(5) 0.6120(6) 0.1848(6)
C79_2 C 0.5446(5) 0.5744(7) 0.1813(6)
H39_2 H 0.5099 0.5842 0.1752
C80_2 C 0.5573(6) 0.5226(7) 0.1868(6)
H40_2 H 0.5314 0.4970 0.1844
C81_2 C 0.6083(6) 0.5083(6) 0.1958(6)
H41_2 H 0.6169 0.4730 0.1996
C82_2 C 0.6465(6) 0.5457(5) 0.1994(5)
H42_2 H 0.6811 0.5360 0.2055
C83_2 C 0.6338(5) 0.5976(5) 0.1939(6)
C86_2 C 0.5864(13) 0.7616(12) 0.1801(9)
C87_2 C 0.7730(10) 0.5977(11) 0.0089(8)
C90_2 C 0.9534(10) 0.5197(10) 0.1162(10)
H50_2 H 0.9275 0.4958 0.1068
C92_2 C 0.9940(19) 0.5321(19) 0.082(2)
H52_2 H 0.9996 0.5133 0.0511
Ti4_2 Ti 0.74550(13) 0.30927(13) 0.02514(13)
O32_2 O 0.7186(5) 0.3450(5) 0.0908(4)
O36_2 O 0.9001(5) 0.3360(5) 0.0665(5)
O37_2 O 0.8154(5) 0.3247(5) 0.0555(5)
C93_2 C 0.7130(7) 0.4208(7) 0.0039(8)
C94_2 C 0.6982(8) 0.3906(8) 0.0999(8)
C100_2 C 0.8615(10) 0.3200(7) 0.0390(8)
C102_2 C 0.6941(7) 0.4312(8) 0.0559(7)
C112_2 C 0.6693(8) 0.4762(8) 0.0652(7)
H60_2 H 0.6573 0.4827 0.0991
C119_2 C 0.6604(9) 0.5142(9) 0.0263(7)
H66_2 H 0.8156 0.0314 0.0030
H67_2 H 0.8004 0.1169 0.0270
C130_2 C 0.6326(12) 0.5612(11) 0.0363(10)
H71_2 H 0.6239 0.5700 0.0707
H74_2 H 0.6008 0.6254 0.0031
H76_2 H 0.8932 0.4275 0.0042
Zn6_2 Zn 0.80019(11) 0.16908(13) 0.14916(12)
Zn7_2 Zn 0.85084(12) 0.30019(11) 0.33092(13)
O45_2 O 0.7471(5) 0.2484(5) 0.0755(4)
O46_2 O 0.9245(4) 0.2471(5) 0.2516(5)
O48_2 O 0.6802(4) 0.2816(5) 0.0062(4)
O49_2 O 0.9938(4) 0.1802(4) 0.2184(5)
C27_2 C 0.9737(7) 0.1604(9) 0.9858(9)
C38_2 C 0.9637(10) 0.1326(12) 0.9388(11)
H19_2 H 0.9293 0.1239 0.9300
H22_2 H 0.9969 0.1008 0.8746
H47_2 H 0.7837 0.5753 0.9822
C89_2 C 0.7567(10) 0.6471(10) 0.9983(9)
H49_2 H 0.7562 0.6582 0.9635
O31_2 O 0.7378(5) 0.3745(5) 0.9931(4)
O38_2 O 0.7826(4) 0.2781(4) 0.9711(4)
O39_2 O 0.8150(6) 0.1187(6) 0.7008(6)
O40_2 O 0.8271(6) 0.6141(6) 0.7681(5)
O41_2 O 0.8070(5) 0.1955(5) 0.7697(5)
C95_2 C 0.7917(10) 0.5814(8) 0.7826(8)
C96_2 C 0.7072(7) 0.4538(7) 0.9629(6)
C97_2 C 0.8760(8) 0.2969(8) 0.9850(8)
C98_2 C 0.7286(7) 0.4452(7) 0.9102(7)
H53_2 H 0.6996 0.4470 0.8855
H54_2 H 0.7422 0.4096 0.9089
C99_2 C 0.7998(7) 0.2331(7) 0.8708(8)
H55_2 H 0.7667 0.2398 0.8883
H56_2 H 0.7996 0.2514 0.8374
C101_2 C 0.8058(7) 0.1748(9) 0.8613(8)
C103_2 C 0.7704(8) 0.4806(7) 0.8907(7)
C104_2 C 0.7615(8) 0.5104(7) 0.8450(8)
C105_2 C 0.6750(9) 0.5029(8) 0.9742(7)
C106_2 C 0.8326(9) 0.2762(8) 0.9546(8)
O42_2 O 0.8270(9) 0.0383(7) 0.7311(7)
C107_2 C 0.8092(8) 0.1585(9) 0.8052(10)
C108_2 C 0.9111(8) 0.2385(8) 0.8341(8)
H57_2 H 0.8852 0.2278 0.8107
C109_2 C 0.8365(8) 0.4526(8) 0.9569(8)
H58_2 H 0.8120 0.4286 0.9692
C110_2 C 0.8000(8) 0.5507(8) 0.8270(8)
C111_2 C 0.6620(9) 0.5373(8) 0.9334(8)
H59_2 H 0.6749 0.5309 0.8999
C113_2 C 0.8453(7) 0.2538(8) 0.9049(8)
O43_2 O 0.7914(7) 0.7099(6) 0.6981(6)
C114_2 C 0.8221(8) 0.4835(8) 0.9174(8)
C115_2 C 0.8966(8) 0.2534(8) 0.8886(7)
C116_2 C 0.9376(9) 0.2735(8) 0.9188(8)
C117_2 C 0.8162(8) 0.1021(9) 0.7952(9)
C118_2 C 0.8189(10) 0.0680(9) 0.8349(12)
H61_2 H 0.8235 0.0326 0.8271
C120_2 C 0.9247(7) 0.2947(8) 0.9697(10)
H62_2 H 0.9512 0.3069 0.9917
C121_2 C 0.8584(10) 0.5232(10) 0.8975(10)
C122_2 C 0.6307(10) 0.5805(9) 0.9416(8)
H63_2 H 0.6179 0.6002 0.9136
C123_2 C 0.9629(9) 0.2404(10) 0.8181(9)
H64_2 H 0.9718 0.2309 0.7841
C124_2 C 0.8152(6) 0.0829(5) 0.8880(6)
C125_2 C 0.8187(6) 0.0446(5) 0.9256(7)
H65_2 H 0.8248 0.0099 0.9158
C126_2 C 0.8132(6) 0.0573(6) 0.9774(7)
C127_2 C 0.8042(6) 0.1083(6) 0.9917(6)
C128_2 C 0.8006(5) 0.1465(6) 0.9543(5)
H68_2 H 0.7945 0.1811 0.9640
C129_2 C 0.8061(6) 0.1338(5) 0.9024(5)
O44_2 O 0.9085(9) 0.6667(9) 0.7060(9)
H69_2 H 0.9358 0.6438 0.6860
H70_2 H 0.9263 0.6623 0.7422
C131_2 C 0.8443(11) 0.5585(11) 0.8551(10)
H72_2 H 0.8659 0.5868 0.8472
C132_2 C 0.8199(9) 0.0864(13) 0.7384(12)
C133_2 C 0.9911(8) 0.2730(10) 0.9023(11)
C134_2 C 0.6183(11) 0.5943(9) 0.9958(9)
C136_2 C 0.8838(10) 0.4534(10) 0.9803(10)
C137_2 C 0.9037(13) 0.5261(13) 0.9251(13)
H77_2 H 0.9276 0.5517 0.9148
C138_2 C 0.918(2) 0.4940(19) 0.9679(19)
H78_2 H 0.9489 0.4996 0.9867
Zn10_2 Zn 0.74946(17) 0.74946(17) 0.74946(17)
O17_3 O 0.1255(5) 0.0069(4) 0.2378(5)
O24_3 O 0.2219(4) 0.0289(4) 0.2826(4)
C50_3 C 0.0462(7) 0.0371(6) 0.2072(7)
C51_3 C 0.2031(8) 0.0150(8) 0.3760(8)
C52_3 C 0.0548(7) 0.0898(7) 0.2286(7)
H27_3 H 0.0530 0.1145 0.1996
H28_3 H 0.0904 0.0911 0.2422
C53_3 C 0.2669(7) 0.1292(8) 0.2998(7)
H29_3 H 0.2602 0.1117 0.2667
H30_3 H 0.2486 0.1626 0.2996
C55_3 C 0.3252(9) 0.1387(8) 0.3058(7)
C57_3 C 0.0194(7) 0.1093(7) 0.2704(8)
C60_3 C 0.2238(8) 0.0454(8) 0.3326(9)
O28_3 O 0.4617(7) 0.2689(7) 0.3270(9)
C61_3 C 0.3415(9) 0.1948(10) 0.3092(8)
C62_3 C 0.2615(8) 0.1659(8) 0.4111(8)
H31_3 H 0.2722 0.1893 0.3852
C63_3 C 0.0474(8) 0.0431(8) 0.3365(8)
H32_3 H 0.0714 0.0308 0.3120
C67_3 C 0.2462(8) 0.0951(8) 0.3453(7)
C68_3 C 0.0165(8) 0.0826(8) 0.3221(8)
C69_3 C 0.2466(8) 0.1114(7) 0.3966(8)
C70_3 C 0.2265(8) 0.0812(8) 0.4376(9)
C71_3 C 0.3979(9) 0.2048(9) 0.3162(8)
C72_3 C 0.4320(9) 0.1651(12) 0.3189(10)
H35_3 H 0.4674 0.1729 0.3235
C74_3 C 0.2053(8) 0.0303(10) 0.4247(7)
H36_3 H 0.1931 0.0083 0.4512
C77_3 C 0.2596(10) 0.1819(9) 0.4629(9)
H38_3 H 0.2691 0.2159 0.4718
C78_3 C 0.4171(5) 0.1120(6) 0.3152(6)
C79_3 C 0.4554(5) 0.0744(7) 0.3187(6)
H39_3 H 0.4901 0.0842 0.3248
C80_3 C 0.4427(6) 0.0226(7) 0.3132(6)
C81_3 C 0.3917(6) 0.0083(6) 0.3042(6)
C82_3 C 0.3535(6) 0.0457(5) 0.3006(5)
H42_3 H 0.3189 0.0360 0.2945
C83_3 C 0.3662(5) 0.0976(5) 0.3061(6)
C86_3 C 0.4136(13) 0.2616(12) 0.3199(9)
C87_3 C 0.2270(10) 0.0977(11) 0.4911(8)
H47_3 H 0.2163 0.0753 0.5178
C89_3 C 0.2433(10) 0.1471(10) 0.5017(9)
H49_3 H 0.2438 0.1582 0.5365
C90_3 C 0.0466(10) 0.0197(10) 0.3838(10)
C92_3 C 0.0060(19) 0.0321(19) 0.418(2)
H52_3 H 0.0004 0.0133 0.4489
Zn5_2 Zn 0.16908(13) 0.14916(12) 0.80019(11)
O33_2 O 0.2484(5) 0.0755(4) 0.7471(5)
O34_2 O 0.2816(5) 0.0062(4) 0.6802(4)
O40_3 O 0.1729(6) 0.1141(6) 0.7319(5)
C95_3 C 0.2083(10) 0.0814(8) 0.7174(8)
C104_3 C 0.2385(8) 0.0104(7) 0.6550(8)
C105_3 C 0.3250(9) 0.0029(8) 0.5258(7)
C110_3 C 0.2000(8) 0.0507(8) 0.6730(8)
C111_3 C 0.3380(9) 0.0373(8) 0.5666(8)
H59_3 H 0.3251 0.0309 0.6001
C119_3 C 0.3396(9) 0.0142(9) 0.4737(7)
C121_3 C 0.1416(10) 0.0232(10) 0.6025(10)
C122_3 C 0.3693(10) 0.0805(9) 0.5584(8)
H63_3 H 0.3821 0.1002 0.5864
O44_3 O 0.0915(9) 0.1667(9) 0.7940(9)
H69_3 H 0.0642 0.1438 0.8140
H70_3 H 0.0737 0.1623 0.7578
C130_3 C 0.3674(12) 0.0612(11) 0.4637(10)
H71_3 H 0.3761 0.0700 0.4293
C131_3 C 0.1557(11) 0.0585(11) 0.6449(10)
H72_3 H 0.1341 0.0868 0.6528
C134_3 C 0.3817(11) 0.0943(9) 0.5042(9)
H74_3 H 0.3992 0.1254 0.4969
C137_3 C 0.0963(13) 0.0261(13) 0.5749(13)
H77_3 H 0.0724 0.0517 0.5852
Ti6_2 Ti 0.30927(13) 0.02514(13) 0.74550(13)
O53_2 O 0.1793(5) 0.0968(5) 0.8572(5)
Zn1_3 Zn 0.12950(11) 0.87050(11) 0.37050(11)
O2_3 O 0.0908(4) 0.7186(5) 0.3450(5)
O6_3 O 0.0665(5) 0.9001(5) 0.3360(5)
O7_3 O 0.0555(5) 0.8154(5) 0.3247(5)
C1_3 C 0.0039(8) 0.7130(7) 0.4208(7)
C2_3 C 0.0999(8) 0.6982(8) 0.3906(8)
C8_3 C 0.0390(8) 0.8615(10) 0.3200(7)
C10_3 C 0.0559(7) 0.6941(7) 0.4312(8)
C20_3 C 0.0652(7) 0.6693(8) 0.4762(8)
H8_3 H 0.0991 0.6573 0.4827
C27_3 C 0.0263(7) 0.6604(9) 0.5142(9)
O14_3 O 0.1744(6) 0.8256(6) 0.3256(6)
H14_3 H 0.0030 0.8156 0.0314
H15_3 H 0.0270 0.8004 0.1169
C38_3 C 0.0363(10) 0.6326(12) 0.5612(11)
H19_3 H 0.0707 0.6239 0.5700
H22_3 H 0.0031 0.6008 0.6254
H24_3 H 0.0042 0.8932 0.4275
Ti3_2 Ti 0.19073(13) 0.97486(13) 0.24550(13)
O18_3 O 0.1550(5) 0.9092(4) 0.2186(5)
O22_3 O 0.1640(5) 0.9335(5) 0.4001(5)
O23_3 O 0.1753(5) 0.9445(5) 0.3154(5)
C47_3 C 0.0792(7) 0.9961(8) 0.2130(7)
C48_3 C 0.1094(8) 0.9001(8) 0.1982(8)
C54_3 C 0.1800(7) 0.9610(8) 0.3615(10)
C56_3 C 0.0688(8) 0.9441(7) 0.1941(7)
C66_3 C 0.0238(8) 0.9348(7) 0.1693(8)
H34_3 H 0.0173 0.9009 0.1573
H40_3 H 0.4686 0.9970 0.3156
H41_3 H 0.3831 0.9730 0.3004
H50_3 H 0.0725 0.9958 0.3932
O31_3 O 0.2622(5) 0.8745(5) 0.5069(4)
O32_3 O 0.2814(5) 0.8450(5) 0.4092(4)
O35_2 O 0.3207(5) 0.9032(5) 0.3572(5)
O36_3 O 0.0999(5) 0.8360(5) 0.4335(5)
O37_3 O 0.1846(5) 0.8247(5) 0.4445(5)
O38_3 O 0.2174(4) 0.7781(4) 0.5289(4)
C93_3 C 0.2870(7) 0.9208(7) 0.4961(8)
C94_3 C 0.3018(8) 0.8906(8) 0.4001(8)
C96_3 C 0.2928(7) 0.9538(7) 0.5371(6)
C97_3 C 0.1240(8) 0.7969(8) 0.5150(8)
C98_3 C 0.2714(7) 0.9452(7) 0.5898(7)
H53_3 H 0.3004 0.9470 0.6145
H54_3 H 0.2578 0.9096 0.5911
C99_3 C 0.2002(7) 0.7331(7) 0.6292(8)
H55_3 H 0.2333 0.7398 0.6117
H56_3 H 0.2004 0.7514 0.6626
C100_3 C 0.1385(10) 0.8200(7) 0.4610(8)
C101_3 C 0.1942(7) 0.6748(9) 0.6387(8)
C102_3 C 0.3059(7) 0.9312(8) 0.4441(7)
C103_3 C 0.2296(8) 0.9806(7) 0.6093(7)
C106_3 C 0.1674(9) 0.7762(8) 0.5454(8)
O42_3 O 0.1730(9) 0.5383(7) 0.7689(7)
C107_3 C 0.1908(8) 0.6585(9) 0.6948(10)
C108_3 C 0.0889(8) 0.7385(8) 0.6659(8)
H57_3 H 0.1148 0.7278 0.6893
C109_3 C 0.1635(8) 0.9526(8) 0.5431(8)
H58_3 H 0.1880 0.9286 0.5308
C112_3 C 0.3307(8) 0.9762(8) 0.4348(7)
H60_3 H 0.3427 0.9827 0.4009
C113_3 C 0.1547(7) 0.7538(8) 0.5951(8)
C114_3 C 0.1779(8) 0.9835(8) 0.5826(8)
C115_3 C 0.1034(8) 0.7534(8) 0.6114(7)
C116_3 C 0.0624(9) 0.7735(8) 0.5812(8)
C117_3 C 0.1838(8) 0.6021(9) 0.7048(9)
C118_3 C 0.1811(10) 0.5680(9) 0.6651(12)
H61_3 H 0.1765 0.5326 0.6729
C120_3 C 0.0753(7) 0.7947(8) 0.5303(10)
H62_3 H 0.0488 0.8069 0.5083
C123_3 C 0.0371(9) 0.7404(10) 0.6819(9)
H64_3 H 0.0282 0.7309 0.7159
C124_3 C 0.1848(6) 0.5829(5) 0.6120(6)
C125_3 C 0.1813(6) 0.5446(5) 0.5744(7)
H65_3 H 0.1752 0.5099 0.5842
C126_3 C 0.1868(6) 0.5573(6) 0.5226(7)
H66_3 H 0.1844 0.5314 0.4970
C127_3 C 0.1958(6) 0.6083(6) 0.5083(6)
H67_3 H 0.1996 0.6169 0.4730
C128_3 C 0.1994(5) 0.6465(6) 0.5457(5)
H68_3 H 0.2055 0.6811 0.5360
C129_3 C 0.1939(6) 0.6338(5) 0.5976(5)
C132_3 C 0.1801(9) 0.5864(13) 0.7616(12)
C133_3 C 0.0089(8) 0.7730(10) 0.5977(11)
C136_3 C 0.1162(10) 0.9534(10) 0.5197(10)
H76_3 H 0.1068 0.9275 0.4958
C138_3 C 0.082(2) 0.9940(19) 0.5321(19)
H78_3 H 0.0511 0.9996 0.5133
Zn8_2 Zn 0.33092(13) 0.85084(12) 0.30019(11)
O47_2 O 0.2516(5) 0.9245(4) 0.2471(5)
O50_2 O 0.2184(5) 0.9938(4) 0.1802(4)
H21_3 H 0.9247 0.0178 0.2837
C43_3 C 0.8529(10) 0.0017(9) 0.2567(10)
H23_3 H 0.8418 0.0365 0.2562
O26_3 O 0.8859(6) 0.2319(5) 0.3271(6)
C49_3 C 0.9186(8) 0.2174(8) 0.2917(10)
C58_3 C 0.9896(7) 0.1550(8) 0.2615(8)
C59_3 C 0.9971(8) 0.0258(7) 0.1750(9)
C64_3 C 0.9493(8) 0.1730(8) 0.3000(8)
C65_3 C 0.9627(8) 0.0666(8) 0.1620(9)
H33_3 H 0.9691 0.1001 0.1749
O29_2 O 0.7901(6) 0.3019(6) 0.2914(7)
C75_3 C 0.9768(10) 0.1025(10) 0.3584(10)
C76_3 C 0.9195(9) 0.0584(8) 0.1307(10)
H37_3 H 0.8998 0.0864 0.1179
O30_3 O 0.8333(9) 0.2940(9) 0.4085(9)
H43_3 H 0.8562 0.3140 0.4358
H44_3 H 0.8377 0.2578 0.4263
C85_3 C 0.9415(11) 0.1449(10) 0.3443(11)
H46_3 H 0.9132 0.1528 0.3659
C88_3 C 0.9057(9) 0.0042(9) 0.1183(11)
C91_3 C 0.9739(13) 0.0749(13) 0.4037(13)
H51_3 H 0.9483 0.0852 0.4276
O1_3 O 0.9931(4) 0.7378(5) 0.3745(5)
O8_3 O 0.9711(4) 0.7826(4) 0.2781(4)
O9_3 O 0.7008(6) 0.8150(6) 0.1187(6)
O10_3 O 0.7681(5) 0.8271(6) 0.6141(6)
O11_3 O 0.7697(5) 0.8070(5) 0.1955(5)
C3_3 C 0.7826(8) 0.7917(10) 0.5814(8)
C4_3 C 0.9629(6) 0.7072(7) 0.4538(7)
C5_3 C 0.9850(8) 0.8760(8) 0.2969(8)
C6_3 C 0.9102(7) 0.7286(7) 0.4452(7)
H1_3 H 0.8855 0.6996 0.4470
H2_3 H 0.9089 0.7422 0.4096
C7_3 C 0.8708(8) 0.7998(7) 0.2331(7)
H3_3 H 0.8883 0.7667 0.2398
H4_3 H 0.8374 0.7996 0.2514
C9_3 C 0.8613(8) 0.8058(7) 0.1748(9)
C11_3 C 0.8907(7) 0.7704(8) 0.4806(7)
C12_3 C 0.8450(8) 0.7615(8) 0.5104(7)
C13_3 C 0.9742(7) 0.6750(9) 0.5029(8)
C14_3 C 0.9546(8) 0.8326(9) 0.2762(8)
O12_3 O 0.7311(7) 0.8270(9) 0.0383(7)
C15_3 C 0.8052(10) 0.8092(8) 0.1585(9)
C16_3 C 0.8341(8) 0.9111(8) 0.2385(8)
H5_3 H 0.8107 0.8852 0.2278
C17_3 C 0.9569(8) 0.8365(8) 0.4526(8)
H6_3 H 0.9692 0.8120 0.4286
C18_3 C 0.8270(8) 0.8000(8) 0.5507(8)
C19_3 C 0.9334(8) 0.6620(9) 0.5373(8)
H7_3 H 0.8999 0.6749 0.5309
C21_3 C 0.9049(8) 0.8453(7) 0.2538(8)
O13_3 O 0.6981(6) 0.7914(7) 0.7099(6)
C22_3 C 0.9174(8) 0.8221(8) 0.4835(8)
C23_3 C 0.8886(7) 0.8966(8) 0.2534(8)
C24_3 C 0.9188(8) 0.9376(9) 0.2735(8)
C25_3 C 0.7952(9) 0.8162(8) 0.1021(9)
C26_3 C 0.8349(12) 0.8189(10) 0.0680(9)
H9_3 H 0.8271 0.8235 0.0326
C28_3 C 0.9697(10) 0.9247(7) 0.2947(8)
H10_3 H 0.9917 0.9512 0.3069
C29_3 C 0.8975(10) 0.8584(10) 0.5232(10)
C30_3 C 0.9416(8) 0.6307(10) 0.5805(9)
H11_3 H 0.9136 0.6179 0.6002
C31_3 C 0.8181(9) 0.9629(9) 0.2404(10)
H12_3 H 0.7841 0.9718 0.2309
C32_3 C 0.8880(6) 0.8152(6) 0.0829(5)
C33_3 C 0.9256(7) 0.8187(6) 0.0446(5)
H13_3 H 0.9158 0.8248 0.0099
C34_3 C 0.9774(7) 0.8132(6) 0.0573(6)
C35_3 C 0.9917(6) 0.8042(6) 0.1083(6)
C36_3 C 0.9543(5) 0.8006(5) 0.1465(6)
H16_3 H 0.9640 0.7945 0.1811
C37_3 C 0.9024(5) 0.8061(6) 0.1338(5)
O15_3 O 0.7060(9) 0.9085(9) 0.6667(9)
H17_3 H 0.6860 0.9358 0.6438
H18_3 H 0.7422 0.9263 0.6623
C39_3 C 0.8551(10) 0.8443(11) 0.5585(11)
H20_3 H 0.8472 0.8659 0.5868
C40_3 C 0.7384(12) 0.8199(9) 0.0864(13)
C41_3 C 0.9023(11) 0.9911(8) 0.2730(10)
C42_3 C 0.9958(9) 0.6183(11) 0.5943(9)
C44_3 C 0.9803(10) 0.8838(10) 0.4534(10)
C45_3 C 0.9251(13) 0.9037(13) 0.5261(13)
H25_3 H 0.9148 0.9276 0.5517
C46_3 C 0.9679(19) 0.918(2) 0.4940(19)
H26_3 H 0.9867 0.9489 0.4996
O16_3 O 0.7883(9) 0.7883(9) 0.7883(9)
C73_3 C 0.9858(9) 0.9737(7) 0.1604(9)
C84_3 C 0.9388(11) 0.9637(10) 0.1326(12)
H45_3 H 0.9300 0.9293 0.1239
H48_3 H 0.8746 0.9969 0.1008
H73_3 H 0.9822 0.7837 0.5753
C135_3 C 0.9983(9) 0.7567(10) 0.6471(10)
H75_3 H 0.9635 0.7562 0.6582
O58_2 O 0.7099(6) 0.6981(6) 0.7914(7)
O55_3 O 0.7992(6) 0.1850(6) 0.6187(6)
O57_3 O 0.7303(5) 0.1930(5) 0.6955(5)
O10_4 O 0.7319(5) 0.1729(6) 0.1141(6)
C3_4 C 0.7174(8) 0.2083(10) 0.0814(8)
C12_4 C 0.6550(8) 0.2385(8) 0.0104(7)
C13_4 C 0.5258(7) 0.3250(9) 0.0029(8)
C18_4 C 0.6730(8) 0.2000(8) 0.0507(8)
C19_4 C 0.5666(8) 0.3380(9) 0.0373(8)
H7_4 H 0.6001 0.3251 0.0309
O13_4 O 0.8019(6) 0.2086(7) 0.2099(6)
C27_4 C 0.4737(7) 0.3396(9) 0.0142(9)
C29_4 C 0.6025(10) 0.1416(10) 0.0232(10)
C30_4 C 0.5584(8) 0.3693(10) 0.0805(9)
H11_4 H 0.5864 0.3821 0.1002
O15_4 O 0.7940(9) 0.0915(9) 0.1667(9)
H17_4 H 0.8140 0.0642 0.1438
H18_4 H 0.7578 0.0737 0.1623
C38_4 C 0.4637(10) 0.3674(12) 0.0612(11)
H19_4 H 0.4293 0.3761 0.0700
C39_4 C 0.6449(10) 0.1557(11) 0.0585(11)
H20_4 H 0.6528 0.1341 0.0868
C42_4 C 0.5042(9) 0.3817(11) 0.0943(9)
H22_4 H 0.4969 0.3992 0.1254
C45_4 C 0.5749(13) 0.0963(13) 0.0261(13)
H25_4 H 0.5852 0.0724 0.0517
O16_4 O 0.7117(9) 0.2117(9) 0.2883(9)
O31_4 O 0.2378(5) 0.1255(5) 0.0069(4)
O38_4 O 0.2826(4) 0.2219(4) 0.0289(4)
C96_4 C 0.2072(7) 0.0462(7) 0.0371(6)
C97_4 C 0.3760(8) 0.2031(8) 0.0150(8)
C98_4 C 0.2286(7) 0.0548(7) 0.0898(7)
H53_4 H 0.1996 0.0530 0.1145
H54_4 H 0.2422 0.0904 0.0911
C99_4 C 0.2998(7) 0.2669(7) 0.1292(8)
H55_4 H 0.2667 0.2602 0.1117
H56_4 H 0.2996 0.2486 0.1626
C101_4 C 0.3058(7) 0.3252(9) 0.1387(8)
C103_4 C 0.2704(8) 0.0194(7) 0.1093(7)
C106_4 C 0.3326(9) 0.2238(8) 0.0454(8)
O42_4 O 0.3270(9) 0.4617(7) 0.2689(7)
C107_4 C 0.3092(8) 0.3415(9) 0.1948(10)
C108_4 C 0.4111(8) 0.2615(8) 0.1659(8)
H57_4 H 0.3852 0.2722 0.1893
C109_4 C 0.3365(8) 0.0474(8) 0.0431(8)
H58_4 H 0.3120 0.0714 0.0308
C113_4 C 0.3453(7) 0.2462(8) 0.0951(8)
C114_4 C 0.3221(8) 0.0165(8) 0.0826(8)
C115_4 C 0.3966(8) 0.2466(8) 0.1114(7)
C116_4 C 0.4376(9) 0.2265(8) 0.0812(8)
C117_4 C 0.3162(8) 0.3979(9) 0.2048(9)
C118_4 C 0.3189(10) 0.4320(9) 0.1651(12)
H61_4 H 0.3235 0.4674 0.1729
C120_4 C 0.4247(7) 0.2053(8) 0.0303(10)
H62_4 H 0.4512 0.1931 0.0083
C123_4 C 0.4629(9) 0.2596(10) 0.1819(9)
H64_4 H 0.4718 0.2691 0.2159
C124_4 C 0.3152(6) 0.4171(5) 0.1120(6)
C125_4 C 0.3187(6) 0.4554(5) 0.0744(7)
H65_4 H 0.3248 0.4901 0.0842
C126_4 C 0.3132(6) 0.4427(6) 0.0226(7)
C127_4 C 0.3042(6) 0.3917(6) 0.0083(6)
C128_4 C 0.3006(5) 0.3535(6) 0.0457(5)
H68_4 H 0.2945 0.3189 0.0360
C129_4 C 0.3061(6) 0.3662(5) 0.0976(5)
C132_4 C 0.3199(9) 0.4136(13) 0.2616(12)
C133_4 C 0.4911(8) 0.2270(10) 0.0977(11)
H73_4 H 0.5178 0.2163 0.0753
C135_4 C 0.5017(9) 0.2433(10) 0.1471(10)
H75_4 H 0.5365 0.2438 0.1582
C136_4 C 0.3838(10) 0.0466(10) 0.0197(10)
C138_4 C 0.418(2) 0.0060(19) 0.0321(19)
H78_4 H 0.4489 0.0004 0.0133
Zn1_4 Zn 0.37050(11) 0.12950(11) 0.87050(11)
O1_4 O 0.5069(4) 0.2622(5) 0.8745(5)
O2_4 O 0.4092(4) 0.2814(5) 0.8450(5)
O6_4 O 0.4335(5) 0.0999(5) 0.8360(5)
O7_4 O 0.4445(5) 0.1846(5) 0.8247(5)
O8_4 O 0.5289(4) 0.2174(4) 0.7781(4)
C1_4 C 0.4961(8) 0.2870(7) 0.9208(7)
C2_4 C 0.4001(8) 0.3018(8) 0.8906(8)
C4_4 C 0.5371(6) 0.2928(7) 0.9538(7)
C5_4 C 0.5150(8) 0.1240(8) 0.7969(8)
C6_4 C 0.5898(7) 0.2714(7) 0.9452(7)
H1_4 H 0.6145 0.3004 0.9470
H2_4 H 0.5911 0.2578 0.9096
C7_4 C 0.6292(8) 0.2002(7) 0.7331(7)
H3_4 H 0.6117 0.2333 0.7398
H4_4 H 0.6626 0.2004 0.7514
C8_4 C 0.4610(8) 0.1385(10) 0.8200(7)
C9_4 C 0.6387(8) 0.1942(7) 0.6748(9)
C10_4 C 0.4441(7) 0.3059(7) 0.9312(8)
C11_4 C 0.6093(7) 0.2296(8) 0.9806(7)
C14_4 C 0.5454(8) 0.1674(9) 0.7762(8)
O12_4 O 0.7689(7) 0.1730(9) 0.5383(7)
C15_4 C 0.6948(10) 0.1908(8) 0.6585(9)
C16_4 C 0.6659(8) 0.0889(8) 0.7385(8)
H5_4 H 0.6893 0.1148 0.7278
C17_4 C 0.5431(8) 0.1635(8) 0.9526(8)
H6_4 H 0.5308 0.1880 0.9286
C20_4 C 0.4348(7) 0.3307(8) 0.9762(8)
H8_4 H 0.4009 0.3427 0.9827
C21_4 C 0.5951(8) 0.1547(7) 0.7538(8)
C22_4 C 0.5826(8) 0.1779(8) 0.9835(8)
C23_4 C 0.6114(7) 0.1034(8) 0.7534(8)
C24_4 C 0.5812(8) 0.0624(9) 0.7735(8)
C25_4 C 0.7048(9) 0.1838(8) 0.6021(9)
C26_4 C 0.6651(12) 0.1811(10) 0.5680(9)
H9_4 H 0.6729 0.1765 0.5326
C28_4 C 0.5303(10) 0.0753(7) 0.7947(8)
H10_4 H 0.5083 0.0488 0.8069
O14_4 O 0.3256(6) 0.1744(6) 0.8256(6)
C31_4 C 0.6819(9) 0.0371(9) 0.7404(10)
H12_4 H 0.7159 0.0282 0.7309
C32_4 C 0.6120(6) 0.1848(6) 0.5829(5)
C33_4 C 0.5744(7) 0.1813(6) 0.5446(5)
H13_4 H 0.5842 0.1752 0.5099
C34_4 C 0.5226(7) 0.1868(6) 0.5573(6)
H14_4 H 0.4970 0.1844 0.5314
C35_4 C 0.5083(6) 0.1958(6) 0.6083(6)
H15_4 H 0.4730 0.1996 0.6169
C36_4 C 0.5457(5) 0.1994(5) 0.6465(6)
H16_4 H 0.5360 0.2055 0.6811
C37_4 C 0.5976(5) 0.1939(6) 0.6338(5)
C40_4 C 0.7616(12) 0.1801(9) 0.5864(13)
C41_4 C 0.5977(11) 0.0089(8) 0.7730(10)
C44_4 C 0.5197(10) 0.1162(10) 0.9534(10)
H24_4 H 0.4958 0.1068 0.9275
C46_4 C 0.5321(19) 0.082(2) 0.9940(19)
H26_4 H 0.5133 0.0511 0.9996
O18_4 O 0.3450(5) 0.0908(4) 0.7186(5)
O22_4 O 0.3360(5) 0.0665(5) 0.9001(5)
O23_4 O 0.3247(5) 0.0555(5) 0.8154(5)
C47_4 C 0.4208(7) 0.0039(8) 0.7130(7)
C48_4 C 0.3906(8) 0.0999(8) 0.6982(8)
C54_4 C 0.3200(7) 0.0390(8) 0.8615(10)
C56_4 C 0.4312(8) 0.0559(7) 0.6941(7)
C66_4 C 0.4762(8) 0.0652(7) 0.6693(8)
H34_4 H 0.4827 0.0991 0.6573
C73_4 C 0.5142(9) 0.0263(7) 0.6604(9)
H40_4 H 0.0314 0.0030 0.8156
H41_4 H 0.1169 0.0270 0.8004
C84_4 C 0.5612(11) 0.0363(10) 0.6326(12)
H45_4 H 0.5700 0.0707 0.6239
H48_4 H 0.6254 0.0031 0.6008
H50_4 H 0.4275 0.0042 0.8932
O32_4 O 0.2186(5) 0.1550(5) 0.9092(4)
O36_4 O 0.4001(5) 0.1640(5) 0.9335(5)
O37_4 O 0.3154(5) 0.1753(5) 0.9445(5)
C93_4 C 0.2130(7) 0.0792(7) 0.9961(8)
C94_4 C 0.1982(8) 0.1094(8) 0.9001(8)
C100_4 C 0.3615(10) 0.1800(7) 0.9610(8)
C102_4 C 0.1941(7) 0.0688(8) 0.9441(7)
C112_4 C 0.1693(8) 0.0238(8) 0.9348(7)
H60_4 H 0.1573 0.0173 0.9009
H66_4 H 0.3156 0.4686 0.9970
H67_4 H 0.3004 0.3831 0.9730
H76_4 H 0.3932 0.0725 0.9958
H47_4 H 0.2837 0.9247 0.0178
C89_4 C 0.2567(10) 0.8529(10) 0.0017(9)
H49_4 H 0.2562 0.8418 0.0365
O40_4 O 0.3271(6) 0.8859(6) 0.2319(5)
C95_4 C 0.2917(10) 0.9186(8) 0.2174(8)
C104_4 C 0.2615(8) 0.9896(7) 0.1550(8)
C105_4 C 0.1750(9) 0.9971(8) 0.0258(7)
C110_4 C 0.3000(8) 0.9493(8) 0.1730(8)
C111_4 C 0.1620(9) 0.9627(8) 0.0666(8)
H59_4 H 0.1749 0.9691 0.1001
C121_4 C 0.3584(10) 0.9768(10) 0.1025(10)
C122_4 C 0.1307(10) 0.9195(9) 0.0584(8)
H63_4 H 0.1179 0.8998 0.0864
O44_4 O 0.4085(9) 0.8333(9) 0.2940(9)
H69_4 H 0.4358 0.8562 0.3140
H70_4 H 0.4263 0.8377 0.2578
C131_4 C 0.3443(11) 0.9415(11) 0.1449(10)
H72_4 H 0.3659 0.9132 0.1528
C134_4 C 0.1183(11) 0.9057(9) 0.0042(9)
C137_4 C 0.4037(13) 0.9739(13) 0.0749(13)
H77_4 H 0.4276 0.9483 0.0852
H21_4 H 0.5753 0.9822 0.7837
C43_4 C 0.6471(10) 0.9983(9) 0.7567(10)
H23_4 H 0.6582 0.9635 0.7562
O17_4 O 0.3745(5) 0.9931(4) 0.7378(5)
O24_4 O 0.2781(4) 0.9711(4) 0.7826(4)
O26_4 O 0.6141(6) 0.7681(5) 0.8271(6)
C49_4 C 0.5814(8) 0.7826(8) 0.7917(10)
C50_4 C 0.4538(7) 0.9629(6) 0.7072(7)
C51_4 C 0.2969(8) 0.9850(8) 0.8760(8)
C52_4 C 0.4452(7) 0.9102(7) 0.7286(7)
H27_4 H 0.4470 0.8855 0.6996
H28_4 H 0.4096 0.9089 0.7422
C53_4 C 0.2331(7) 0.8708(8) 0.7998(7)
H29_4 H 0.2398 0.8883 0.7667
H30_4 H 0.2514 0.8374 0.7996
C55_4 C 0.1748(9) 0.8613(8) 0.8058(7)
C57_4 C 0.4806(7) 0.8907(7) 0.7704(8)
C58_4 C 0.5104(7) 0.8450(8) 0.7615(8)
C59_4 C 0.5029(8) 0.9742(7) 0.6750(9)
C60_4 C 0.2762(8) 0.9546(8) 0.8326(9)
O28_4 O 0.0383(7) 0.7311(7) 0.8270(9)
C61_4 C 0.1585(9) 0.8052(10) 0.8092(8)
C62_4 C 0.2385(8) 0.8341(8) 0.9111(8)
H31_4 H 0.2278 0.8107 0.8852
C63_4 C 0.4526(8) 0.9569(8) 0.8365(8)
H32_4 H 0.4286 0.9692 0.8120
C64_4 C 0.5507(8) 0.8270(8) 0.8000(8)
C65_4 C 0.5373(8) 0.9334(8) 0.6620(9)
H33_4 H 0.5309 0.8999 0.6749
C67_4 C 0.2538(8) 0.9049(8) 0.8453(7)
C68_4 C 0.4835(8) 0.9174(8) 0.8221(8)
C69_4 C 0.2534(8) 0.8886(7) 0.8966(8)
C70_4 C 0.2735(8) 0.9188(8) 0.9376(9)
C71_4 C 0.1021(9) 0.7952(9) 0.8162(8)
C72_4 C 0.0680(9) 0.8349(12) 0.8189(10)
H35_4 H 0.0326 0.8271 0.8235
C74_4 C 0.2947(8) 0.9697(10) 0.9247(7)
H36_4 H 0.3069 0.9917 0.9512
C75_4 C 0.5232(10) 0.8975(10) 0.8584(10)
C76_4 C 0.5805(9) 0.9416(8) 0.6307(10)
H37_4 H 0.6002 0.9136 0.6179
C77_4 C 0.2404(10) 0.8181(9) 0.9629(9)
H38_4 H 0.2309 0.7841 0.9718
C78_4 C 0.0829(5) 0.8880(6) 0.8152(6)
C79_4 C 0.0446(5) 0.9256(7) 0.8187(6)
H39_4 H 0.0099 0.9158 0.8248
C80_4 C 0.0573(6) 0.9774(7) 0.8132(6)
C81_4 C 0.1083(6) 0.9917(6) 0.8042(6)
C82_4 C 0.1465(6) 0.9543(5) 0.8006(5)
H42_4 H 0.1811 0.9640 0.7945
C83_4 C 0.1338(5) 0.9024(5) 0.8061(6)
O30_4 O 0.6667(9) 0.7060(9) 0.9085(9)
H43_4 H 0.6438 0.6860 0.9358
H44_4 H 0.6623 0.7422 0.9263
C85_4 C 0.5585(11) 0.8551(10) 0.8443(11)
H46_4 H 0.5868 0.8472 0.8659
C86_4 C 0.0864(13) 0.7384(12) 0.8199(9)
C87_4 C 0.2730(10) 0.9023(11) 0.9911(8)
C88_4 C 0.5943(9) 0.9958(9) 0.6183(11)
C90_4 C 0.4534(10) 0.9803(10) 0.8838(10)
C91_4 C 0.5261(13) 0.9251(13) 0.9037(13)
H51_4 H 0.5517 0.9148 0.9276
C92_4 C 0.4940(19) 0.9679(19) 0.918(2)
H52_4 H 0.4996 0.9867 0.9489
C119_4 C 0.1604(9) 0.9858(9) 0.9737(7)
C130_4 C 0.1326(12) 0.9388(11) 0.9637(10)
H71_4 H 0.1239 0.9300 0.9293
H74_4 H 0.1008 0.8746 0.9969
loop_
_geom_bond_atom_site_label_1
_geom_bond_atom_site_label_2
_geom_bond_site_symmetry_1
_geom_bond_site_symmetry_2
Zn1 O6 1_555 1_555
Zn2 O10 1_555 1_555
Zn3 O13 1_555 1_555
Ti1 O1 1_555 1_555
Ti2 O9 1_555 1_555
O1 C1 1_555 1_555
O2 Ti1 1_555 1_555
O3 C3 1_555 1_555
O4 C12 1_555 1_555
O5 C2 1_555 1_555
O6 C8 1_555 1_555
O7 Ti1 1_555 1_555
O8 Ti1 1_555 1_555
O9 C40 1_555 1_555
O10 C3 1_555 1_555
O11 Ti2 1_555 1_555
C1 C4 1_555 1_555
C2 O2 1_555 1_555
C3 C18 1_555 1_555
C4 C6 1_555 1_555
C5 C8 1_555 1_555
C6 H1 1_555 1_555
H2 C6 1_555 1_555
C7 H3 1_555 1_555
H4 C7 1_555 1_555
C8 O7 1_555 1_555
C9 C7 1_555 1_555
C10 C1 1_555 1_555
C11 C6 1_555 1_555
C12 C11 1_555 1_555
C13 C4 1_555 1_555
C14 O8 1_555 1_555
O12 C40 1_555 1_555
C15 O11 1_555 1_555
C16 H5 1_555 1_555
C17 H6 1_555 1_555
C18 C12 1_555 1_555
C19 C13 1_555 1_555
H7 C19 1_555 1_555
C20 C10 1_555 1_555
H8 C20 1_555 1_555
C21 C7 1_555 1_555
O13 Zn2 1_555 1_555
C22 C11 1_555 1_555
C23 C16 1_555 1_555
C24 C23 1_555 1_555
C25 C15 1_555 1_555
C26 C25 1_555 1_555
H9 C26 1_555 1_555
C27 C13 1_555 1_555
C28 C5 1_555 1_555
H10 C28 1_555 1_555
O14 Zn1 1_555 1_555
C29 C22 1_555 1_555
C30 C19 1_555 1_555
H11 C30 1_555 1_555
C31 C16 1_555 1_555
H12 C31 1_555 1_555
C32 C26 1_555 1_555
C33 C32 1_555 1_555
H13 C33 1_555 1_555
C34 C33 1_555 1_555
H14 C34 1_555 1_555
C35 C34 1_555 1_555
H15 C35 1_555 1_555
C36 C35 1_555 1_555
H16 C36 1_555 1_555
C37 C9 1_555 1_555
O15 Zn2 1_555 1_555
H17 O15 1_555 1_555
H18 O15 1_555 1_555
C38 C27 1_555 1_555
H19 C38 1_555 1_555
C39 C18 1_555 1_555
H20 C39 1_555 1_555
C40 C25 1_555 1_555
C41 C24 1_555 1_555
H21 C41 1_555 1_555
C42 C30 1_555 1_555
H22 C42 1_555 1_555
C43 C31 1_555 1_555
H23 C43 1_555 1_555
C44 C17 1_555 1_555
H24 C44 1_555 1_555
C45 C29 1_555 1_555
H25 C45 1_555 1_555
C46 C44 1_555 1_555
H26 C46 1_555 1_555
O16 Zn3 1_555 1_555
Zn4 O26 1_555 1_555
Ti3 O17 1_555 1_555
O17 C47 1_555 1_555
O18 Ti3 1_555 1_555
O19 C49 1_555 1_555
O20 C58 1_555 1_555
O21 C48 1_555 1_555
O22 Zn1 1_555 1_555
O23 Ti3 1_555 1_555
O24 Ti3 1_555 1_555
O25 C86 1_555 1_555
O26 C49 1_555 1_555
O27 C61 1_555 1_555
C47 C50 1_555 1_555
C48 O18 1_555 1_555
C49 C64 1_555 1_555
C50 C52 1_555 1_555
C51 C54 1_555 1_555
C52 H27 1_555 1_555
H28 C52 1_555 1_555
C53 H29 1_555 1_555
H30 C53 1_555 1_555
C54 O22 1_555 1_555
C55 C53 1_555 1_555
C56 C47 1_555 1_555
C57 C52 1_555 1_555
C58 C57 1_555 1_555
C59 C50 1_555 1_555
C60 O24 1_555 1_555
O28 C86 1_555 1_555
C61 C55 1_555 1_555
C62 H31 1_555 1_555
C63 H32 1_555 1_555
C64 C58 1_555 1_555
C65 C59 1_555 1_555
H33 C65 1_555 1_555
C66 C56 1_555 1_555
H34 C66 1_555 1_555
C67 C53 1_555 1_555
O29 Zn4 1_555 1_555
C68 C57 1_555 1_555
C69 C62 1_555 1_555
C70 C69 1_555 1_555
C71 C61 1_555 1_555
C72 C71 1_555 1_555
H35 C72 1_555 1_555
C73 C59 1_555 1_555
C74 C51 1_555 1_555
H36 C74 1_555 1_555
C75 C68 1_555 1_555
C76 C65 1_555 1_555
H37 C76 1_555 1_555
C77 C62 1_555 1_555
H38 C77 1_555 1_555
C78 C72 1_555 1_555
C79 C78 1_555 1_555
H39 C79 1_555 1_555
C80 C79 1_555 1_555
H40 C80 1_555 1_555
C81 C80 1_555 1_555
H41 C81 1_555 1_555
C82 C81 1_555 1_555
H42 C82 1_555 1_555
C83 C55 1_555 1_555
O30 Zn4 1_555 1_555
H43 O30 1_555 1_555
H44 O30 1_555 1_555
C84 C73 1_555 1_555
H45 C84 1_555 1_555
C85 C64 1_555 1_555
H46 C85 1_555 1_555
C86 C71 1_555 1_555
C87 C70 1_555 1_555
H47 C87 1_555 1_555
C88 C76 1_555 1_555
H48 C88 1_555 1_555
C89 C77 1_555 1_555
H49 C89 1_555 1_555
C90 C63 1_555 1_555
H50 C90 1_555 1_555
C91 C75 1_555 1_555
H51 C91 1_555 1_555
C92 C90 1_555 1_555
H52 C92 1_555 1_555
Zn5 O40 1_555 1_555
Ti4 O31 1_555 1_555
O31 C93 1_555 1_555
O32 Ti4 1_555 1_555
O33 C95 1_555 1_555
O34 C104 1_555 1_555
O35 C94 1_555 1_555
O36 Zn1 1_555 1_555
O37 Ti4 1_555 1_555
O38 Ti4 1_555 1_555
O39 C132 1_555 1_555
O40 C95 1_555 1_555
O41 C107 1_555 1_555
C93 C96 1_555 1_555
C94 O32 1_555 1_555
C95 C110 1_555 1_555
C96 C98 1_555 1_555
C97 C100 1_555 1_555
C98 H53 1_555 1_555
H54 C98 1_555 1_555
C99 H55 1_555 1_555
H56 C99 1_555 1_555
C100 O36 1_555 1_555
C101 C99 1_555 1_555
C102 C93 1_555 1_555
C103 C98 1_555 1_555
C104 C103 1_555 1_555
C105 C96 1_555 1_555
C106 O38 1_555 1_555
O42 C132 1_555 1_555
C107 C101 1_555 1_555
C108 H57 1_555 1_555
C109 H58 1_555 1_555
C110 C104 1_555 1_555
C111 C105 1_555 1_555
H59 C111 1_555 1_555
C112 C102 1_555 1_555
H60 C112 1_555 1_555
C113 C99 1_555 1_555
O43 Zn5 1_555 1_555
C114 C103 1_555 1_555
C115 C108 1_555 1_555
C116 C115 1_555 1_555
C117 C107 1_555 1_555
C118 C117 1_555 1_555
H61 C118 1_555 1_555
C119 C105 1_555 1_555
C120 C97 1_555 1_555
H62 C120 1_555 1_555
C121 C114 1_555 1_555
C122 C111 1_555 1_555
H63 C122 1_555 1_555
C123 C108 1_555 1_555
H64 C123 1_555 1_555
C124 C118 1_555 1_555
C125 C124 1_555 1_555
H65 C125 1_555 1_555
C126 C125 1_555 1_555
H66 C126 1_555 1_555
C127 C126 1_555 1_555
H67 C127 1_555 1_555
C128 C127 1_555 1_555
H68 C128 1_555 1_555
C129 C101 1_555 1_555
O44 Zn5 1_555 1_555
H69 O44 1_555 1_555
H70 O44 1_555 1_555
C130 C119 1_555 1_555
H71 C130 1_555 1_555
C131 C110 1_555 1_555
H72 C131 1_555 1_555
C132 C117 1_555 1_555
C133 C116 1_555 1_555
H73 C133 1_555 1_555
C134 C122 1_555 1_555
H74 C134 1_555 1_555
C135 C123 1_555 1_555
H75 C135 1_555 1_555
C136 C109 1_555 1_555
H76 C136 1_555 1_555
C137 C121 1_555 1_555
H77 C137 1_555 1_555
C138 C136 1_555 1_555
H78 C138 1_555 1_555
Zn6 O5 1_555 1_555
Zn7 O21 1_555 1_555
Zn8 O35 1_555 1_555
Zn9 O29 1_555 1_555
Zn10 O43 1_555 1_555
Ti5 O19 1_555 1_555
Ti6 O33 1_555 1_555
Ti7 O3 1_555 1_555
Ti8 O39 1_555 1_555
Ti9 O25 1_555 1_555
O45 Ti4 1_555 1_555
O46 Ti1 1_555 1_555
O47 Ti3 1_555 1_555
O48 Ti4 1_555 1_555
O49 Ti1 1_555 1_555
O50 Ti3 1_555 1_555
O51 Zn2 1_555 1_555
O52 Zn4 1_555 1_555
O53 Zn5 1_555 1_555
O54 Ti2 1_555 1_555
O55 Ti2 1_555 1_555
O56 Ti2 1_555 1_555
O57 Ti2 1_555 1_555
O58 Zn3 1_555 1_555
O59 Zn3 1_555 1_555
O4 Ti7 1_555 1_555
C2 C10 1_555 1_555
C5 C14 1_555 1_555
C9 C15 1_555 1_555
C14 C21 1_555 1_555
C17 C22 1_555 1_555
C20 C27 1_555 1_555
C21 C23 1_555 1_555
C24 C28 1_555 1_555
C29 C39 1_555 1_555
C32 C37 1_555 1_555
C36 C37 1_555 1_555
C38 C42 1_555 1_555
C41 C43 1_555 1_555
C45 C46 1_555 1_555
O20 Ti5 1_555 1_555
O23 C54 1_555 1_555
O27 Ti9 1_555 1_555
C48 C56 1_555 1_555
C51 C60 1_555 1_555
C60 C67 1_555 1_555
C63 C68 1_555 1_555
C66 C73 1_555 1_555
C67 C69 1_555 1_555
C70 C74 1_555 1_555
C75 C85 1_555 1_555
C78 C83 1_555 1_555
C82 C83 1_555 1_555
C84 C88 1_555 1_555
C87 C89 1_555 1_555
C91 C92 1_555 1_555
O34 Ti6 1_555 1_555
O37 C100 1_555 1_555
O41 Ti8 1_555 1_555
C94 C102 1_555 1_555
C97 C106 1_555 1_555
C106 C113 1_555 1_555
C109 C114 1_555 1_555
C112 C119 1_555 1_555
C113 C115 1_555 1_555
C116 C120 1_555 1_555
C121 C131 1_555 1_555
C124 C129 1_555 1_555
C128 C129 1_555 1_555
C130 C134 1_555 1_555
C133 C135 1_555 1_555
C137 C138 1_555 1_555
Ti2_2 O9_2 1_555 1_555
O9_2 C40_2 1_555 1_555
O11_2 Ti2_2 1_555 1_555
C4_2 C6_2 1_555 1_555
C6_2 H1_2 1_555 1_555
H2_2 C6_2 1_555 1_555
C7_2 H3_2 1_555 1_555
H4_2 C7_2 1_555 1_555
C9_2 C7_2 1_555 1_555
C11_2 C6_2 1_555 1_555
C14_2 O8_2 1_555 1_555
O12_2 C40_2 1_555 1_555
C15_2 O11_2 1_555 1_555
C16_2 H5_2 1_555 1_555
C17_2 H6_2 1_555 1_555
C21_2 C7_2 1_555 1_555
C22_2 C11_2 1_555 1_555
C23_2 C16_2 1_555 1_555
C24_2 C23_2 1_555 1_555
C25_2 C15_2 1_555 1_555
C26_2 C25_2 1_555 1_555
H9_2 C26_2 1_555 1_555
C28_2 C5_2 1_555 1_555
H10_2 C28_2 1_555 1_555
C31_2 C16_2 1_555 1_555
H12_2 C31_2 1_555 1_555
C32_2 C26_2 1_555 1_555
C33_2 C32_2 1_555 1_555
H13_2 C33_2 1_555 1_555
C34_2 C33_2 1_555 1_555
C35_2 C34_2 1_555 1_555
C36_2 C35_2 1_555 1_555
H16_2 C36_2 1_555 1_555
C37_2 C9_2 1_555 1_555
C40_2 C25_2 1_555 1_555
C41_2 C24_2 1_555 1_555
H21_2 C41_2 1_555 1_555
C43_2 C31_2 1_555 1_555
H23_2 C43_2 1_555 1_555
C44_2 C17_2 1_555 1_555
C46_2 C44_2 1_555 1_555
H26_2 C46_2 1_555 1_555
Zn4_2 O26_2 1_555 1_555
O19_2 C49_2 1_555 1_555
O20_2 C58_2 1_555 1_555
O26_2 C49_2 1_555 1_555
C49_2 C64_2 1_555 1_555
C64_2 C58_2 1_555 1_555
C65_2 C59_2 1_555 1_555
H33_2 C65_2 1_555 1_555
O58 Zn4_2 1_555 1_555
C73_2 C59_2 1_555 1_555
C76_2 C65_2 1_555 1_555
H37_2 C76_2 1_555 1_555
O30_2 Zn4_2 1_555 1_555
H43_2 O30_2 1_555 1_555
H44_2 O30_2 1_555 1_555
C84_2 C73_2 1_555 1_555
H45_2 C84_2 1_555 1_555
C85_2 C64_2 1_555 1_555
H46_2 C85_2 1_555 1_555
C88_2 C76_2 1_555 1_555
H48_2 C88_2 1_555 1_555
C91_2 C75_2 1_555 1_555
H51_2 C91_2 1_555 1_555
Ti5_2 O19_2 1_555 1_555
O52_2 Zn4_2 1_555 1_555
O54_2 Ti2_2 1_555 1_555
O55_2 Ti2_2 1_555 1_555
O56_2 Ti2_2 1_555 1_555
O57_2 Ti2_2 1_555 1_555
C5_2 C14_2 1_555 1_555
C9_2 C15_2 1_555 1_555
C14_2 C21_2 1_555 1_555
C17_2 C22_2 1_555 1_555
C21_2 C23_2 1_555 1_555
C24_2 C28_2 1_555 1_555
C32_2 C37_2 1_555 1_555
C36_2 C37_2 1_555 1_555
C41_2 C43_2 1_555 1_555
O20_2 Ti5_2 1_555 1_555
C75_2 C85_2 1_555 1_555
C84_2 C88_2 1_555 1_555
Zn2_2 O10_2 1_555 1_555
Zn9 O13_2 1_555 1_555
O3_2 C3_2 1_555 1_555
O4_2 C12_2 1_555 1_555
O10_2 C3_2 1_555 1_555
C3_2 C18_2 1_555 1_555
C18_2 C12_2 1_555 1_555
C19_2 C13_2 1_555 1_555
H7_2 C19_2 1_555 1_555
O13_2 Zn2_2 1_555 1_555
C30_2 C19_2 1_555 1_555
H11_2 C30_2 1_555 1_555
O15_2 Zn2_2 1_555 1_555
H17_2 O15_2 1_555 1_555
H18_2 O15_2 1_555 1_555
C39_2 C18_2 1_555 1_555
H20_2 C39_2 1_555 1_555
C42_2 C30_2 1_555 1_555
C45_2 C29_2 1_555 1_555
H25_2 C45_2 1_555 1_555
O16_2 Zn9 1_555 1_555
H75_2 C135_2 1_555 1_555
Ti7_2 O3_2 1_555 1_555
O51_2 Zn2_2 1_555 1_555
O59_2 Zn9 1_555 1_555
O4_2 Ti7_2 1_555 1_555
C29_2 C39_2 1_555 1_555
Zn1_2 O6_2 1_555 1_555
O2_2 Ti1_2 1_555 1_555
O5_2 C2_2 1_555 1_555
O6_2 C8_2 1_555 1_555
O7_2 Ti1_2 1_555 1_555
C2_2 O2_2 1_555 1_555
C8_2 O7_2 1_555 1_555
C10_2 C1_2 1_555 1_555
C20_2 C10_2 1_555 1_555
H8_2 C20_2 1_555 1_555
O14_2 Zn1_2 1_555 1_555
Ti6 O17_2 1_555 1_555
O17_2 C47_2 1_555 1_555
O18_2 Ti6 1_555 1_555
O21_2 C48_2 1_555 1_555
O22_2 Zn1_2 1_555 1_555
O23_2 Ti6 1_555 1_555
O24_2 Ti6 1_555 1_555
O25_2 C86_2 1_555 1_555
O27_2 C61_2 1_555 1_555
C47_2 C50_2 1_555 1_555
C48_2 O18_2 1_555 1_555
C50_2 C52_2 1_555 1_555
C51_2 C54_2 1_555 1_555
C52_2 H27_2 1_555 1_555
H28_2 C52_2 1_555 1_555
C53_2 H29_2 1_555 1_555
H30_2 C53_2 1_555 1_555
C54_2 O22_2 1_555 1_555
C55_2 C53_2 1_555 1_555
C56_2 C47_2 1_555 1_555
C57_2 C52_2 1_555 1_555
C60_2 O24_2 1_555 1_555
O28_2 C86_2 1_555 1_555
C61_2 C55_2 1_555 1_555
C62_2 H31_2 1_555 1_555
C63_2 H32_2 1_555 1_555
C66_2 C56_2 1_555 1_555
H34_2 C66_2 1_555 1_555
C67_2 C53_2 1_555 1_555
C68_2 C57_2 1_555 1_555
C69_2 C62_2 1_555 1_555
C70_2 C69_2 1_555 1_555
C71_2 C61_2 1_555 1_555
C72_2 C71_2 1_555 1_555
H35_2 C72_2 1_555 1_555
C74_2 C51_2 1_555 1_555
H36_2 C74_2 1_555 1_555
C77_2 C62_2 1_555 1_555
H38_2 C77_2 1_555 1_555
C78_2 C72_2 1_555 1_555
C79_2 C78_2 1_555 1_555
H39_2 C79_2 1_555 1_555
C80_2 C79_2 1_555 1_555
H40_2 C80_2 1_555 1_555
C81_2 C80_2 1_555 1_555
H41_2 C81_2 1_555 1_555
C82_2 C81_2 1_555 1_555
H42_2 C82_2 1_555 1_555
C83_2 C55_2 1_555 1_555
C86_2 C71_2 1_555 1_555
C87_2 C70_2 1_555 1_555
C90_2 C63_2 1_555 1_555
H50_2 C90_2 1_555 1_555
C92_2 C90_2 1_555 1_555
H52_2 C92_2 1_555 1_555
O32_2 Ti4_2 1_555 1_555
O53 C94_2 1_555 1_555
O36_2 Zn1_2 1_555 1_555
O37_2 Ti4_2 1_555 1_555
C94_2 O32_2 1_555 1_555
C100_2 O36_2 1_555 1_555
C102_2 C93_2 1_555 1_555
C112_2 C102_2 1_555 1_555
H60_2 C112_2 1_555 1_555
C130_2 C119_2 1_555 1_555
H71_2 C130_2 1_555 1_555
Zn6_2 O5_2 1_555 1_555
Zn7_2 O21_2 1_555 1_555
Ti8 O25_2 1_555 1_555
O45_2 Ti4_2 1_555 1_555
O46_2 Ti1_2 1_555 1_555
O48_2 Ti4_2 1_555 1_555
O49_2 Ti1_2 1_555 1_555
C2_2 C10_2 1_555 1_555
O23_2 C54_2 1_555 1_555
O27_2 Ti8 1_555 1_555
C48_2 C56_2 1_555 1_555
C51_2 C60_2 1_555 1_555
C60_2 C67_2 1_555 1_555
C63_2 C68_2 1_555 1_555
C67_2 C69_2 1_555 1_555
C70_2 C74_2 1_555 1_555
C78_2 C83_2 1_555 1_555
C82_2 C83_2 1_555 1_555
O37_2 C100_2 1_555 1_555
C94_2 C102_2 1_555 1_555
C112_2 C119_2 1_555 1_555
C38_2 C27_2 1_555 1_555
H19_2 C38_2 1_555 1_555
H49_2 C89_2 1_555 1_555
Zn8 O40_2 1_555 1_555
O47 C95_2 1_555 1_555
O50 C104_2 1_555 1_555
O39_2 C132_2 1_555 1_555
O40_2 C95_2 1_555 1_555
O41_2 C107_2 1_555 1_555
C95_2 C110_2 1_555 1_555
C96_2 C98_2 1_555 1_555
C98_2 H53_2 1_555 1_555
H54_2 C98_2 1_555 1_555
C99_2 H55_2 1_555 1_555
H56_2 C99_2 1_555 1_555
C101_2 C99_2 1_555 1_555
C103_2 C98_2 1_555 1_555
C104_2 C103_2 1_555 1_555
C105_2 C96_2 1_555 1_555
C106_2 O38_2 1_555 1_555
O42_2 C132_2 1_555 1_555
C107_2 C101_2 1_555 1_555
C108_2 H57_2 1_555 1_555
C109_2 H58_2 1_555 1_555
C110_2 C104_2 1_555 1_555
C111_2 C105_2 1_555 1_555
H59_2 C111_2 1_555 1_555
C113_2 C99_2 1_555 1_555
O43_2 Zn8 1_555 1_555
C114_2 C103_2 1_555 1_555
C115_2 C108_2 1_555 1_555
C116_2 C115_2 1_555 1_555
C117_2 C107_2 1_555 1_555
C118_2 C117_2 1_555 1_555
H61_2 C118_2 1_555 1_555
C120_2 C97_2 1_555 1_555
H62_2 C120_2 1_555 1_555
C121_2 C114_2 1_555 1_555
C122_2 C111_2 1_555 1_555
H63_2 C122_2 1_555 1_555
C123_2 C108_2 1_555 1_555
H64_2 C123_2 1_555 1_555
C124_2 C118_2 1_555 1_555
C125_2 C124_2 1_555 1_555
H65_2 C125_2 1_555 1_555
C126_2 C125_2 1_555 1_555
C127_2 C126_2 1_555 1_555
C128_2 C127_2 1_555 1_555
H68_2 C128_2 1_555 1_555
C129_2 C101_2 1_555 1_555
O44_2 Zn8 1_555 1_555
H69_2 O44_2 1_555 1_555
H70_2 O44_2 1_555 1_555
C131_2 C110_2 1_555 1_555
H72_2 C131_2 1_555 1_555
C132_2 C117_2 1_555 1_555
C133_2 C116_2 1_555 1_555
C134_2 C122_2 1_555 1_555
C136_2 C109_2 1_555 1_555
C137_2 C121_2 1_555 1_555
H77_2 C137_2 1_555 1_555
C138_2 C136_2 1_555 1_555
H78_2 C138_2 1_555 1_555
Zn10_2 O43_2 1_555 1_555
Ti9 O39_2 1_555 1_555
O41_2 Ti9 1_555 1_555
C97_2 C106_2 1_555 1_555
C106_2 C113_2 1_555 1_555
C109_2 C114_2 1_555 1_555
C113_2 C115_2 1_555 1_555
C116_2 C120_2 1_555 1_555
C121_2 C131_2 1_555 1_555
C124_2 C129_2 1_555 1_555
C128_2 C129_2 1_555 1_555
C137_2 C138_2 1_555 1_555
O54_2 C86_3 1_555 1_555
O56_2 C61_3 1_555 1_555
C50_3 C52_3 1_555 1_555
C52_3 H27_3 1_555 1_555
H28_3 C52_3 1_555 1_555
C53_3 H29_3 1_555 1_555
H30_3 C53_3 1_555 1_555
C55_3 C53_3 1_555 1_555
C57_3 C52_3 1_555 1_555
C60_3 O24_3 1_555 1_555
O28_3 C86_3 1_555 1_555
C61_3 C55_3 1_555 1_555
C62_3 H31_3 1_555 1_555
C63_3 H32_3 1_555 1_555
C67_3 C53_3 1_555 1_555
C68_3 C57_3 1_555 1_555
C69_3 C62_3 1_555 1_555
C70_3 C69_3 1_555 1_555
C71_3 C61_3 1_555 1_555
C72_3 C71_3 1_555 1_555
H35_3 C72_3 1_555 1_555
C74_3 C51_3 1_555 1_555
H36_3 C74_3 1_555 1_555
C77_3 C62_3 1_555 1_555
H38_3 C77_3 1_555 1_555
C78_3 C72_3 1_555 1_555
C79_3 C78_3 1_555 1_555
H39_3 C79_3 1_555 1_555
C80_3 C79_3 1_555 1_555
C81_3 C80_3 1_555 1_555
C82_3 C81_3 1_555 1_555
H42_3 C82_3 1_555 1_555
C83_3 C55_3 1_555 1_555
C86_3 C71_3 1_555 1_555
C87_3 C70_3 1_555 1_555
H47_3 C87_3 1_555 1_555
C89_3 C77_3 1_555 1_555
H49_3 C89_3 1_555 1_555
C90_3 C63_3 1_555 1_555
C92_3 C90_3 1_555 1_555
H52_3 C92_3 1_555 1_555
Zn5_2 O40_3 1_555 1_555
O33_2 C95_3 1_555 1_555
O34_2 C104_3 1_555 1_555
O40_3 C95_3 1_555 1_555
C95_3 C110_3 1_555 1_555
C110_3 C104_3 1_555 1_555
C111_3 C105_3 1_555 1_555
H59_3 C111_3 1_555 1_555
O59_2 Zn5_2 1_555 1_555
C119_3 C105_3 1_555 1_555
C122_3 C111_3 1_555 1_555
H63_3 C122_3 1_555 1_555
O44_3 Zn5_2 1_555 1_555
H69_3 O44_3 1_555 1_555
H70_3 O44_3 1_555 1_555
C130_3 C119_3 1_555 1_555
H71_3 C130_3 1_555 1_555
C131_3 C110_3 1_555 1_555
H72_3 C131_3 1_555 1_555
C134_3 C122_3 1_555 1_555
H74_3 C134_3 1_555 1_555
C137_3 C121_3 1_555 1_555
H77_3 C137_3 1_555 1_555
Ti6_2 O33_2 1_555 1_555
O53_2 Zn5_2 1_555 1_555
C51_3 C60_3 1_555 1_555
C60_3 C67_3 1_555 1_555
C63_3 C68_3 1_555 1_555
C67_3 C69_3 1_555 1_555
C70_3 C74_3 1_555 1_555
C78_3 C83_3 1_555 1_555
C82_3 C83_3 1_555 1_555
C87_3 C89_3 1_555 1_555
O34_2 Ti6_2 1_555 1_555
C121_3 C131_3 1_555 1_555
C130_3 C134_3 1_555 1_555
Zn1_3 O6_3 1_555 1_555
O2_3 Ti5_2 1_555 1_555
O51 C2_3 1_555 1_555
O6_3 C8_3 1_555 1_555
O7_3 Ti5_2 1_555 1_555
C2_3 O2_3 1_555 1_555
C8_3 O7_3 1_555 1_555
C10_3 C1_3 1_555 1_555
C20_3 C10_3 1_555 1_555
H8_3 C20_3 1_555 1_555
O14_3 Zn1_3 1_555 1_555
C38_3 C27_3 1_555 1_555
H19_3 C38_3 1_555 1_555
O18_3 Ti3_2 1_555 1_555
O52_2 C48_3 1_555 1_555
O22_3 Zn1_3 1_555 1_555
O23_3 Ti3_2 1_555 1_555
C48_3 O18_3 1_555 1_555
C54_3 O22_3 1_555 1_555
C56_3 C47_3 1_555 1_555
C66_3 C56_3 1_555 1_555
H34_3 C66_3 1_555 1_555
Ti7 O31_3 1_555 1_555
O31_3 C93_3 1_555 1_555
O32_3 Ti7 1_555 1_555
O35_2 C94_3 1_555 1_555
O36_3 Zn1_3 1_555 1_555
O37_3 Ti7 1_555 1_555
O38_3 Ti7 1_555 1_555
O55 C132_3 1_555 1_555
O57 C107_3 1_555 1_555
C93_3 C96_3 1_555 1_555
C94_3 O32_3 1_555 1_555
C96_3 C98_3 1_555 1_555
C97_3 C100_3 1_555 1_555
C98_3 H53_3 1_555 1_555
H54_3 C98_3 1_555 1_555
C99_3 H55_3 1_555 1_555
H56_3 C99_3 1_555 1_555
C100_3 O36_3 1_555 1_555
C101_3 C99_3 1_555 1_555
C102_3 C93_3 1_555 1_555
C103_3 C98_3 1_555 1_555
C106_3 O38_3 1_555 1_555
O42_3 C132_3 1_555 1_555
C107_3 C101_3 1_555 1_555
C108_3 H57_3 1_555 1_555
C109_3 H58_3 1_555 1_555
C112_3 C102_3 1_555 1_555
H60_3 C112_3 1_555 1_555
C113_3 C99_3 1_555 1_555
C114_3 C103_3 1_555 1_555
C115_3 C108_3 1_555 1_555
C116_3 C115_3 1_555 1_555
C117_3 C107_3 1_555 1_555
C118_3 C117_3 1_555 1_555
H61_3 C118_3 1_555 1_555
C120_3 C97_3 1_555 1_555
H62_3 C120_3 1_555 1_555
C123_3 C108_3 1_555 1_555
H64_3 C123_3 1_555 1_555
C124_3 C118_3 1_555 1_555
C125_3 C124_3 1_555 1_555
H65_3 C125_3 1_555 1_555
C126_3 C125_3 1_555 1_555
H66_3 C126_3 1_555 1_555
C127_3 C126_3 1_555 1_555
H67_3 C127_3 1_555 1_555
C128_3 C127_3 1_555 1_555
H68_3 C128_3 1_555 1_555
C129_3 C101_3 1_555 1_555
C132_3 C117_3 1_555 1_555
C133_3 C116_3 1_555 1_555
C136_3 C109_3 1_555 1_555
H76_3 C136_3 1_555 1_555
C138_3 C136_3 1_555 1_555
H78_3 C138_3 1_555 1_555
Zn8_2 O35_2 1_555 1_555
O47_2 Ti3_2 1_555 1_555
O50_2 Ti3_2 1_555 1_555
C2_3 C10_3 1_555 1_555
C20_3 C27_3 1_555 1_555
O23_3 C54_3 1_555 1_555
C48_3 C56_3 1_555 1_555
O37_3 C100_3 1_555 1_555
C94_3 C102_3 1_555 1_555
C97_3 C106_3 1_555 1_555
C106_3 C113_3 1_555 1_555
C109_3 C114_3 1_555 1_555
C113_3 C115_3 1_555 1_555
C116_3 C120_3 1_555 1_555
C124_3 C129_3 1_555 1_555
C128_3 C129_3 1_555 1_555
H23_3 C43_3 1_555 1_555
Zn7_2 O26_3 1_555 1_555
O46_2 C49_3 1_555 1_555
O49_2 C58_3 1_555 1_555
O26_3 C49_3 1_555 1_555
C49_3 C64_3 1_555 1_555
C64_3 C58_3 1_555 1_555
C65_3 C59_3 1_555 1_555
H33_3 C65_3 1_555 1_555
O29_2 Zn7_2 1_555 1_555
C76_3 C65_3 1_555 1_555
H37_3 C76_3 1_555 1_555
O30_3 Zn7_2 1_555 1_555
H43_3 O30_3 1_555 1_555
H44_3 O30_3 1_555 1_555
C85_3 C64_3 1_555 1_555
H46_3 C85_3 1_555 1_555
C88_3 C76_3 1_555 1_555
C91_3 C75_3 1_555 1_555
H51_3 C91_3 1_555 1_555
Zn10 O29_2 1_555 1_555
C75_3 C85_3 1_555 1_555
Zn6 O10_3 1_555 1_555
Zn10_2 O13_3 1_555 1_555
Ti8 O9_3 1_555 1_555
O45 C3_3 1_555 1_555
O48 C12_3 1_555 1_555
O9_3 C40_3 1_555 1_555
O10_3 C3_3 1_555 1_555
O11_3 Ti8 1_555 1_555
C3_3 C18_3 1_555 1_555
C4_3 C6_3 1_555 1_555
C6_3 H1_3 1_555 1_555
H2_3 C6_3 1_555 1_555
C7_3 H3_3 1_555 1_555
H4_3 C7_3 1_555 1_555
C9_3 C7_3 1_555 1_555
C11_3 C6_3 1_555 1_555
C12_3 C11_3 1_555 1_555
C13_3 C4_3 1_555 1_555
C14_3 O8_3 1_555 1_555
O12_3 C40_3 1_555 1_555
C15_3 O11_3 1_555 1_555
C16_3 H5_3 1_555 1_555
C17_3 H6_3 1_555 1_555
C18_3 C12_3 1_555 1_555
C19_3 C13_3 1_555 1_555
H7_3 C19_3 1_555 1_555
C21_3 C7_3 1_555 1_555
O13_3 Zn6 1_555 1_555
C22_3 C11_3 1_555 1_555
C23_3 C16_3 1_555 1_555
C24_3 C23_3 1_555 1_555
C25_3 C15_3 1_555 1_555
C26_3 C25_3 1_555 1_555
H9_3 C26_3 1_555 1_555
C28_3 C5_3 1_555 1_555
H10_3 C28_3 1_555 1_555
C29_3 C22_3 1_555 1_555
C30_3 C19_3 1_555 1_555
H11_3 C30_3 1_555 1_555
C31_3 C16_3 1_555 1_555
H12_3 C31_3 1_555 1_555
C32_3 C26_3 1_555 1_555
C33_3 C32_3 1_555 1_555
H13_3 C33_3 1_555 1_555
C34_3 C33_3 1_555 1_555
C35_3 C34_3 1_555 1_555
C36_3 C35_3 1_555 1_555
H16_3 C36_3 1_555 1_555
C37_3 C9_3 1_555 1_555
O15_3 Zn6 1_555 1_555
H17_3 O15_3 1_555 1_555
H18_3 O15_3 1_555 1_555
C39_3 C18_3 1_555 1_555
H20_3 C39_3 1_555 1_555
C40_3 C25_3 1_555 1_555
C41_3 C24_3 1_555 1_555
C42_3 C30_3 1_555 1_555
C44_3 C17_3 1_555 1_555
C45_3 C29_3 1_555 1_555
H25_3 C45_3 1_555 1_555
C46_3 C44_3 1_555 1_555
H26_3 C46_3 1_555 1_555
O16_3 Zn10_2 1_555 1_555
C84_3 C73_3 1_555 1_555
H45_3 C84_3 1_555 1_555
H75_3 C135_3 1_555 1_555
O58_2 Zn10_2 1_555 1_555
C5_3 C14_3 1_555 1_555
C9_3 C15_3 1_555 1_555
C14_3 C21_3 1_555 1_555
C17_3 C22_3 1_555 1_555
C21_3 C23_3 1_555 1_555
C24_3 C28_3 1_555 1_555
C29_3 C39_3 1_555 1_555
C32_3 C37_3 1_555 1_555
C36_3 C37_3 1_555 1_555
C45_3 C46_3 1_555 1_555
O55_3 Ti9 1_555 1_555
O57_3 Ti9 1_555 1_555
Zn6_2 O10_4 1_555 1_555
Zn10 O13_4 1_555 1_555
O45_2 C3_4 1_555 1_555
O48_2 C12_4 1_555 1_555
O10_4 C3_4 1_555 1_555
C3_4 C18_4 1_555 1_555
C18_4 C12_4 1_555 1_555
C19_4 C13_4 1_555 1_555
H7_4 C19_4 1_555 1_555
O13_4 Zn6_2 1_555 1_555
C27_4 C13_4 1_555 1_555
C30_4 C19_4 1_555 1_555
H11_4 C30_4 1_555 1_555
O15_4 Zn6_2 1_555 1_555
H17_4 O15_4 1_555 1_555
H18_4 O15_4 1_555 1_555
C38_4 C27_4 1_555 1_555
H19_4 C38_4 1_555 1_555
C39_4 C18_4 1_555 1_555
H20_4 C39_4 1_555 1_555
C42_4 C30_4 1_555 1_555
H22_4 C42_4 1_555 1_555
C45_4 C29_4 1_555 1_555
H25_4 C45_4 1_555 1_555
O16_4 Zn10 1_555 1_555
O55_2 C132_4 1_555 1_555
O57_2 C107_4 1_555 1_555
C96_4 C98_4 1_555 1_555
C98_4 H53_4 1_555 1_555
H54_4 C98_4 1_555 1_555
C99_4 H55_4 1_555 1_555
H56_4 C99_4 1_555 1_555
C101_4 C99_4 1_555 1_555
C103_4 C98_4 1_555 1_555
C106_4 O38_4 1_555 1_555
O42_4 C132_4 1_555 1_555
C107_4 C101_4 1_555 1_555
C108_4 H57_4 1_555 1_555
C109_4 H58_4 1_555 1_555
C113_4 C99_4 1_555 1_555
C114_4 C103_4 1_555 1_555
C115_4 C108_4 1_555 1_555
C116_4 C115_4 1_555 1_555
C117_4 C107_4 1_555 1_555
C118_4 C117_4 1_555 1_555
H61_4 C118_4 1_555 1_555
C120_4 C97_4 1_555 1_555
H62_4 C120_4 1_555 1_555
C123_4 C108_4 1_555 1_555
H64_4 C123_4 1_555 1_555
C124_4 C118_4 1_555 1_555
C125_4 C124_4 1_555 1_555
H65_4 C125_4 1_555 1_555
C126_4 C125_4 1_555 1_555
C127_4 C126_4 1_555 1_555
C128_4 C127_4 1_555 1_555
H68_4 C128_4 1_555 1_555
C129_4 C101_4 1_555 1_555
C132_4 C117_4 1_555 1_555
C133_4 C116_4 1_555 1_555
H73_4 C133_4 1_555 1_555
C135_4 C123_4 1_555 1_555
H75_4 C135_4 1_555 1_555
C136_4 C109_4 1_555 1_555
C138_4 C136_4 1_555 1_555
H78_4 C138_4 1_555 1_555
C29_4 C39_4 1_555 1_555
C38_4 C42_4 1_555 1_555
C97_4 C106_4 1_555 1_555
C106_4 C113_4 1_555 1_555
C109_4 C114_4 1_555 1_555
C113_4 C115_4 1_555 1_555
C116_4 C120_4 1_555 1_555
C124_4 C129_4 1_555 1_555
C128_4 C129_4 1_555 1_555
C133_4 C135_4 1_555 1_555
Zn1_4 O6_4 1_555 1_555
Ti5 O1_4 1_555 1_555
O1_4 C1_4 1_555 1_555
O2_4 Ti5 1_555 1_555
O51_2 C2_4 1_555 1_555
O6_4 C8_4 1_555 1_555
O7_4 Ti5 1_555 1_555
O8_4 Ti5 1_555 1_555
O55_3 C40_4 1_555 1_555
C1_4 C4_4 1_555 1_555
C2_4 O2_4 1_555 1_555
C4_4 C6_4 1_555 1_555
C5_4 C8_4 1_555 1_555
C6_4 H1_4 1_555 1_555
H2_4 C6_4 1_555 1_555
C7_4 H3_4 1_555 1_555
H4_4 C7_4 1_555 1_555
C8_4 O7_4 1_555 1_555
C9_4 C7_4 1_555 1_555
C10_4 C1_4 1_555 1_555
C11_4 C6_4 1_555 1_555
C14_4 O8_4 1_555 1_555
O12_4 C40_4 1_555 1_555
C15_4 O57_3 1_555 1_555
C16_4 H5_4 1_555 1_555
C17_4 H6_4 1_555 1_555
C20_4 C10_4 1_555 1_555
H8_4 C20_4 1_555 1_555
C21_4 C7_4 1_555 1_555
C22_4 C11_4 1_555 1_555
C23_4 C16_4 1_555 1_555
C24_4 C23_4 1_555 1_555
C25_4 C15_4 1_555 1_555
C26_4 C25_4 1_555 1_555
H9_4 C26_4 1_555 1_555
C28_4 C5_4 1_555 1_555
H10_4 C28_4 1_555 1_555
O14_4 Zn1_4 1_555 1_555
C31_4 C16_4 1_555 1_555
H12_4 C31_4 1_555 1_555
C32_4 C26_4 1_555 1_555
C33_4 C32_4 1_555 1_555
H13_4 C33_4 1_555 1_555
C34_4 C33_4 1_555 1_555
H14_4 C34_4 1_555 1_555
C35_4 C34_4 1_555 1_555
H15_4 C35_4 1_555 1_555
C36_4 C35_4 1_555 1_555
H16_4 C36_4 1_555 1_555
C37_4 C9_4 1_555 1_555
C40_4 C25_4 1_555 1_555
C41_4 C24_4 1_555 1_555
C44_4 C17_4 1_555 1_555
H24_4 C44_4 1_555 1_555
C46_4 C44_4 1_555 1_555
H26_4 C46_4 1_555 1_555
O18_4 Ti6_2 1_555 1_555
O52 C48_4 1_555 1_555
O22_4 Zn1_4 1_555 1_555
O23_4 Ti6_2 1_555 1_555
C48_4 O18_4 1_555 1_555
C54_4 O22_4 1_555 1_555
C56_4 C47_4 1_555 1_555
C66_4 C56_4 1_555 1_555
H34_4 C66_4 1_555 1_555
C84_4 C73_4 1_555 1_555
H45_4 C84_4 1_555 1_555
O32_4 Ti7_2 1_555 1_555
O53_2 C94_4 1_555 1_555
O36_4 Zn1_4 1_555 1_555
O37_4 Ti7_2 1_555 1_555
C94_4 O32_4 1_555 1_555
C100_4 O36_4 1_555 1_555
C102_4 C93_4 1_555 1_555
C112_4 C102_4 1_555 1_555
H60_4 C112_4 1_555 1_555
C2_4 C10_4 1_555 1_555
C5_4 C14_4 1_555 1_555
C9_4 C15_4 1_555 1_555
C14_4 C21_4 1_555 1_555
C17_4 C22_4 1_555 1_555
C21_4 C23_4 1_555 1_555
C24_4 C28_4 1_555 1_555
C32_4 C37_4 1_555 1_555
C36_4 C37_4 1_555 1_555
O23_4 C54_4 1_555 1_555
C48_4 C56_4 1_555 1_555
C66_4 C73_4 1_555 1_555
O37_4 C100_4 1_555 1_555
C94_4 C102_4 1_555 1_555
H49_4 C89_4 1_555 1_555
Zn8_2 O40_4 1_555 1_555
O47_2 C95_4 1_555 1_555
O50_2 C104_4 1_555 1_555
O40_4 C95_4 1_555 1_555
C95_4 C110_4 1_555 1_555
C110_4 C104_4 1_555 1_555
C111_4 C105_4 1_555 1_555
H59_4 C111_4 1_555 1_555
O59 Zn8_2 1_555 1_555
C122_4 C111_4 1_555 1_555
H63_4 C122_4 1_555 1_555
O44_4 Zn8_2 1_555 1_555
H69_4 O44_4 1_555 1_555
H70_4 O44_4 1_555 1_555
C131_4 C110_4 1_555 1_555
H72_4 C131_4 1_555 1_555
C134_4 C122_4 1_555 1_555
C137_4 C121_4 1_555 1_555
H77_4 C137_4 1_555 1_555
C121_4 C131_4 1_555 1_555
H23_4 C43_4 1_555 1_555
Zn7 O26_4 1_555 1_555
O46 C49_4 1_555 1_555
O49 C58_4 1_555 1_555
O54 C86_4 1_555 1_555
O26_4 C49_4 1_555 1_555
O56 C61_4 1_555 1_555
C49_4 C64_4 1_555 1_555
C50_4 C52_4 1_555 1_555
C52_4 H27_4 1_555 1_555
H28_4 C52_4 1_555 1_555
C53_4 H29_4 1_555 1_555
H30_4 C53_4 1_555 1_555
C55_4 C53_4 1_555 1_555
C57_4 C52_4 1_555 1_555
C58_4 C57_4 1_555 1_555
C59_4 C50_4 1_555 1_555
C60_4 O24_4 1_555 1_555
O28_4 C86_4 1_555 1_555
C61_4 C55_4 1_555 1_555
C62_4 H31_4 1_555 1_555
C63_4 H32_4 1_555 1_555
C64_4 C58_4 1_555 1_555
C65_4 C59_4 1_555 1_555
H33_4 C65_4 1_555 1_555
C67_4 C53_4 1_555 1_555
O58_2 Zn7 1_555 1_555
C68_4 C57_4 1_555 1_555
C69_4 C62_4 1_555 1_555
C70_4 C69_4 1_555 1_555
C71_4 C61_4 1_555 1_555
C72_4 C71_4 1_555 1_555
H35_4 C72_4 1_555 1_555
C74_4 C51_4 1_555 1_555
H36_4 C74_4 1_555 1_555
C75_4 C68_4 1_555 1_555
C76_4 C65_4 1_555 1_555
H37_4 C76_4 1_555 1_555
C77_4 C62_4 1_555 1_555
H38_4 C77_4 1_555 1_555
C78_4 C72_4 1_555 1_555
C79_4 C78_4 1_555 1_555
H39_4 C79_4 1_555 1_555
C80_4 C79_4 1_555 1_555
C81_4 C80_4 1_555 1_555
C82_4 C81_4 1_555 1_555
H42_4 C82_4 1_555 1_555
C83_4 C55_4 1_555 1_555
O30_4 Zn7 1_555 1_555
H43_4 O30_4 1_555 1_555
H44_4 O30_4 1_555 1_555
C85_4 C64_4 1_555 1_555
H46_4 C85_4 1_555 1_555
C86_4 C71_4 1_555 1_555
C87_4 C70_4 1_555 1_555
C88_4 C76_4 1_555 1_555
C90_4 C63_4 1_555 1_555
C91_4 C75_4 1_555 1_555
H51_4 C91_4 1_555 1_555
C92_4 C90_4 1_555 1_555
H52_4 C92_4 1_555 1_555
C130_4 C119_4 1_555 1_555
H71_4 C130_4 1_555 1_555
C51_4 C60_4 1_555 1_555
C60_4 C67_4 1_555 1_555
C63_4 C68_4 1_555 1_555
C67_4 C69_4 1_555 1_555
C70_4 C74_4 1_555 1_555
C75_4 C85_4 1_555 1_555
C78_4 C83_4 1_555 1_555
C82_4 C83_4 1_555 1_555
C91_4 C92_4 1_555 1_555

#END
