
###############################################################################
#
# This file contains modified crystal structure data generated from the
# MOF subset of the Cambridge Structural Database (CSD) v543 
# hosted by the Cambridge Crystallographic Data Centre (CCDC).
#
# This work is licensed under the Creative Commons
# Attribution-NonCommercial-ShareAlike 4.0 International License.
# To view a copy of this license, visit
# http://creativecommons.org/licenses/by-nc-sa/4.0/
# or send a letter to
# Creative Commons, PO Box 1866, Mountain View, CA 94042, USA.
#
# CIF created using the CSD Python API on 29 September 2022
# The structure has been converted into the P1 space group
# The structure has a 3D framework
# The original CSD entry EJIQAS is in the cubic crystal system
# The original CSD entry EJIQAS is in a Sohncke space group
# The framework has been calculated to contain at least 10.0% void space
# The void calculation uses a probe of radius 1.32A, grid spacing 0.4
# The framework is charged, counterions have been retained in the structure
# H atom positions have been added when not included in the experimental data
# Generated hydrogen atom positions removed from atoms on special positions
#
###############################################################################

data_EJIQAS
_chemical_formula_moiety         '(C552 H336 O174 Ti16 Zn19 4-)n'
_symmetry_cell_setting           triclinic
_symmetry_space_group_name_H-M   'P 1'
_symmetry_Int_Tables_number      1
_space_group_name_Hall           'P 1'
loop_
_symmetry_equiv_pos_site_id
_symmetry_equiv_pos_as_xyz
1 x,y,z
_cell_length_a                   25.57570(10)
_cell_length_b                   25.57570(10)
_cell_length_c                   25.57570(10)
_cell_angle_alpha                90
_cell_angle_beta                 90
_cell_angle_gamma                90
_cell_volume                     16729.5
loop_
_atom_site_label
_atom_site_type_symbol
_atom_site_fract_x
_atom_site_fract_y
_atom_site_fract_z
Zn1 Zn 0.11938(5) 0.38062(5) 0.61938(5)
Ti1 Ti 0.22476(5) 0.43972(5) 0.49440(5)
Zn2 Zn 0.54985(5) 0.10214(6) 0.57929(7)
Ti2 Ti 0.55007(5) 0.55007(5) 0.55007(5)
Zn3 Zn 0.50270(11) 0.00270(11) 0.49730(11)
O1 O 0.25614(19) 0.37483(19) 0.4860(2)
O2 O 0.4301(2) 0.2435(2) 0.4661(2)
O3 O 0.1945(2) 0.4246(2) 0.56522(19)
O4 O 0.2783(2) 0.47088(19) 0.53129(18)
O5 O 0.4965(2) 0.1735(2) 0.5013(2)
O6 O 0.4781(2) 0.5549(2) 0.5523(2)
O7 O 0.1592(2) 0.4029(2) 0.4677(2)
O8 O 0.1075(2) 0.3455(2) 0.4309(3)
O9 O 0.1836(2) 0.4142(2) 0.6492(2)
O10 O 0.5479(2) 0.6288(2) 0.5605(3)
O11 O 0.4807(3) 0.1347(3) 0.5754(3)
C1 C 0.2463(3) 0.3306(3) 0.4615(3)
C2 C 0.3606(3) 0.4978(3) 0.6457(3)
C3 C 0.3575(3) 0.2665(3) 0.5188(3)
C4 C 0.4023(3) 0.2366(3) 0.5098(3)
C5 C 0.2627(3) 0.4550(3) 0.6222(3)
C6 C 0.3312(3) 0.2605(3) 0.5671(3)
C7 C 0.2866(3) 0.2942(3) 0.4542(3)
C8 C 0.3400(3) 0.3056(3) 0.4776(3)
H1 H 0.365690 0.306152 0.449673
H2 H 0.339352 0.340212 0.493192
C9 C 0.1949(3) 0.3192(3) 0.4426(3)
C10 C 0.4409(3) 0.5910(3) 0.5557(3)
C11 C 0.1850(3) 0.2738(3) 0.4190(3)
H3 H 0.150749 0.265914 0.409538
O12 O 0.5203(4) 0.7095(3) 0.5702(5)
C12 C 0.2116(3) 0.4302(3) 0.6120(3)
C13 C 0.3438(3) 0.4963(3) 0.5929(3)
C14 C 0.2944(3) 0.6030(4) 0.5502(3)
H4 H 0.283959 0.568752 0.544079
C15 C 0.2250(3) 0.2373(3) 0.4080(4)
C16 C 0.3766(3) 0.5180(3) 0.5484(3)
H5 H 0.358182 0.512132 0.515786
H6 H 0.409202 0.498659 0.546819
C17 C 0.1508(3) 0.3572(3) 0.4482(3)
C18 C 0.3451(4) 0.2199(3) 0.6022(3)
C19 C 0.4118(3) 0.5154(4) 0.6587(3)
H7 H 0.434535 0.526481 0.632569
C20 C 0.2760(3) 0.2480(3) 0.4241(3)
C21 C 0.3890(3) 0.5760(3) 0.5533(3)
C22 C 0.4677(4) 0.1659(4) 0.5394(4)
C23 C 0.2900(3) 0.2958(3) 0.5823(3)
H8 H 0.280220 0.323293 0.560690
C24 C 0.2952(3) 0.4742(3) 0.5818(3)
C25 C 0.3286(4) 0.4797(3) 0.6854(3)
C26 C 0.2778(4) 0.4579(3) 0.6731(3)
H9 H 0.255843 0.446051 0.699611
C27 C 0.4185(4) 0.1965(3) 0.5473(3)
C28 C 0.3160(4) 0.2127(4) 0.4101(4)
H10 H 0.350095 0.219397 0.420801
C29 C 0.2578(4) 0.6410(4) 0.5544(4)
H11 H 0.222615 0.632096 0.551951
C30 C 0.3637(4) 0.6677(4) 0.5607(4)
C31 C 0.3495(4) 0.6146(3) 0.5551(3)
C32 C 0.4551(4) 0.6447(3) 0.5590(4)
C33 C 0.3878(4) 0.1884(4) 0.5903(4)
H12 H 0.395765 0.160725 0.612519
C34 C 0.2536(4) 0.1574(4) 0.3701(5)
H13 H 0.245620 0.125268 0.355101
C35 C 0.2763(4) 0.2450(4) 0.6631(4)
H14 H 0.257573 0.239668 0.693846
C36 C 0.2655(3) 0.2880(4) 0.6292(4)
H15 H 0.240328 0.312138 0.639528
C37 C 0.2147(4) 0.1903(4) 0.3800(4)
H16 H 0.180954 0.182692 0.368834
C38 C 0.3060(4) 0.1686(5) 0.3810(5)
H17 H 0.332918 0.147219 0.369082
C39 C 0.3450(5) 0.4816(4) 0.7384(4)
H18 H 0.322737 0.470810 0.765045
C40 C 0.3215(5) 0.7068(4) 0.5647(5)
H19 H 0.330195 0.741885 0.568864
C41 C 0.3163(4) 0.2115(4) 0.6477(4)
H20 H 0.324087 0.182579 0.668412
C42 C 0.4279(4) 0.5159(4) 0.7110(4)
H21 H 0.461331 0.527212 0.719648
C43 C 0.2718(4) 0.6934(4) 0.5624(5)
H22 H 0.245970 0.718677 0.566180
C44 C 0.5117(4) 0.6625(4) 0.5659(5)
C45 C 0.4147(5) 0.6819(3) 0.5632(5)
H23 H 0.423197 0.716971 0.567681
C46 C 0.3941(4) 0.4995(4) 0.7497(4)
H24 H 0.404933 0.500718 0.784332
O13 O 0.5437(6) 0.0866(6) 0.6585(4)
O14 O 0.5556(6) 0.0393(4) 0.5416(6)
O15 O 0.0761(5) 0.4239(5) 0.5761(5)
Ti3 Ti 0.49440(5) 0.22476(5) 0.43972(5)
Zn4 Zn 0.57929(7) 0.54985(5) 0.10214(6)
O17 O 0.4860(2) 0.25614(19) 0.37483(19)
O18 O 0.4661(2) 0.4301(2) 0.2435(2)
O19 O 0.56522(19) 0.1945(2) 0.4246(2)
O20 O 0.53129(18) 0.2783(2) 0.47088(19)
O21 O 0.5013(2) 0.4965(2) 0.1735(2)
O22 O 0.5523(2) 0.4781(2) 0.5549(2)
O23 O 0.4677(2) 0.1592(2) 0.4029(2)
O24 O 0.4309(3) 0.1075(2) 0.3455(2)
O25 O 0.6492(2) 0.1836(2) 0.4142(2)
O26 O 0.5605(3) 0.5479(2) 0.6288(2)
O27 O 0.5754(3) 0.4807(3) 0.1347(3)
C47 C 0.4615(3) 0.2463(3) 0.3306(3)
C48 C 0.6457(3) 0.3606(3) 0.4978(3)
C49 C 0.5188(3) 0.3575(3) 0.2665(3)
C50 C 0.5098(3) 0.4023(3) 0.2366(3)
C51 C 0.6222(3) 0.2627(3) 0.4550(3)
C52 C 0.5671(3) 0.3312(3) 0.2605(3)
C53 C 0.4542(3) 0.2866(3) 0.2942(3)
C54 C 0.4776(3) 0.3400(3) 0.3056(3)
H25 H 0.449673 0.365690 0.306152
H26 H 0.493192 0.339352 0.340212
C55 C 0.4426(3) 0.1949(3) 0.3192(3)
C56 C 0.5557(3) 0.4409(3) 0.5910(3)
C57 C 0.4190(3) 0.1850(3) 0.2738(3)
H27 H 0.409538 0.150749 0.265914
O28 O 0.5702(5) 0.5203(4) 0.7095(3)
C58 C 0.6120(3) 0.2116(3) 0.4302(3)
C59 C 0.5929(3) 0.3438(3) 0.4963(3)
C60 C 0.5502(3) 0.2944(3) 0.6030(4)
H28 H 0.544079 0.283959 0.568752
C61 C 0.4080(4) 0.2250(3) 0.2373(3)
C62 C 0.5484(3) 0.3766(3) 0.5180(3)
H29 H 0.515786 0.358182 0.512132
H30 H 0.546819 0.409202 0.498659
C63 C 0.4482(3) 0.1508(3) 0.3572(3)
C64 C 0.6022(3) 0.3451(4) 0.2199(3)
C65 C 0.6587(3) 0.4118(3) 0.5154(4)
H31 H 0.632569 0.434535 0.526481
C66 C 0.4241(3) 0.2760(3) 0.2480(3)
C67 C 0.5533(3) 0.3890(3) 0.5760(3)
C68 C 0.5394(4) 0.4677(4) 0.1659(4)
C69 C 0.5823(3) 0.2900(3) 0.2958(3)
H32 H 0.560690 0.280220 0.323293
C70 C 0.5818(3) 0.2952(3) 0.4742(3)
C71 C 0.6854(3) 0.3286(4) 0.4797(3)
C72 C 0.6731(3) 0.2778(4) 0.4579(3)
H33 H 0.699611 0.255843 0.446051
C73 C 0.5473(3) 0.4185(4) 0.1965(3)
C74 C 0.4101(4) 0.3160(4) 0.2127(4)
H34 H 0.420801 0.350095 0.219397
C75 C 0.5544(4) 0.2578(4) 0.6410(4)
H35 H 0.551951 0.222615 0.632096
C76 C 0.5607(4) 0.3637(4) 0.6677(4)
C77 C 0.5551(3) 0.3495(4) 0.6146(3)
C78 C 0.5590(4) 0.4551(4) 0.6447(3)
C79 C 0.5903(4) 0.3878(4) 0.1884(4)
H36 H 0.612519 0.395765 0.160725
C80 C 0.3701(5) 0.2536(4) 0.1574(4)
H37 H 0.355101 0.245620 0.125268
C81 C 0.6631(4) 0.2763(4) 0.2450(4)
H38 H 0.693846 0.257573 0.239668
C82 C 0.6292(4) 0.2655(3) 0.2880(4)
H39 H 0.639528 0.240328 0.312138
C83 C 0.3800(4) 0.2147(4) 0.1903(4)
H40 H 0.368834 0.180954 0.182692
C84 C 0.3810(5) 0.3060(4) 0.1686(5)
H41 H 0.369082 0.332918 0.147219
C85 C 0.7384(4) 0.3450(5) 0.4816(4)
H42 H 0.765045 0.322737 0.470810
C86 C 0.5647(5) 0.3215(5) 0.7068(4)
H43 H 0.568864 0.330195 0.741885
C87 C 0.6477(4) 0.3163(4) 0.2115(4)
H44 H 0.668412 0.324087 0.182579
C88 C 0.7110(4) 0.4279(4) 0.5159(4)
H45 H 0.719648 0.461331 0.527212
C89 C 0.5624(5) 0.2718(4) 0.6934(4)
H46 H 0.566180 0.245970 0.718677
C90 C 0.5659(5) 0.5117(4) 0.6625(4)
C91 C 0.5632(5) 0.4147(5) 0.6819(3)
H47 H 0.567681 0.423197 0.716971
C92 C 0.7497(4) 0.3941(4) 0.4995(4)
H48 H 0.784332 0.404933 0.500718
O29 O 0.6585(4) 0.5437(6) 0.0866(6)
O30 O 0.5416(6) 0.5556(6) 0.0393(4)
Ti4 Ti 0.43972(5) 0.49440(5) 0.22476(5)
Zn5 Zn 0.10214(6) 0.57929(7) 0.54985(5)
O31 O 0.37483(19) 0.4860(2) 0.25614(19)
O32 O 0.2435(2) 0.4661(2) 0.4301(2)
O33 O 0.4246(2) 0.56522(19) 0.1945(2)
O34 O 0.47088(19) 0.53129(18) 0.2783(2)
O35 O 0.1735(2) 0.5013(2) 0.4965(2)
O36 O 0.5549(2) 0.5523(2) 0.4781(2)
O37 O 0.4029(2) 0.4677(2) 0.1592(2)
O38 O 0.3455(2) 0.4309(3) 0.1075(2)
O39 O 0.4142(2) 0.6492(2) 0.1836(2)
O40 O 0.6288(2) 0.5605(3) 0.5479(2)
O41 O 0.1347(3) 0.5754(3) 0.4807(3)
C93 C 0.3306(3) 0.4615(3) 0.2463(3)
C94 C 0.4978(3) 0.6457(3) 0.3606(3)
C95 C 0.2665(3) 0.5188(3) 0.3575(3)
C96 C 0.2366(3) 0.5098(3) 0.4023(3)
C97 C 0.4550(3) 0.6222(3) 0.2627(3)
C98 C 0.2605(3) 0.5671(3) 0.3312(3)
C99 C 0.2942(3) 0.4542(3) 0.2866(3)
C100 C 0.3056(3) 0.4776(3) 0.3400(3)
H49 H 0.306152 0.449673 0.365690
H50 H 0.340212 0.493192 0.339352
C101 C 0.3192(3) 0.4426(3) 0.1949(3)
C102 C 0.5910(3) 0.5557(3) 0.4409(3)
C103 C 0.2738(3) 0.4190(3) 0.1850(3)
H51 H 0.265914 0.409538 0.150749
O42 O 0.7095(3) 0.5702(5) 0.5203(4)
C104 C 0.4302(3) 0.6120(3) 0.2116(3)
C105 C 0.4963(3) 0.5929(3) 0.3438(3)
C106 C 0.6030(4) 0.5502(3) 0.2944(3)
H52 H 0.568752 0.544079 0.283959
C107 C 0.2373(3) 0.4080(4) 0.2250(3)
C108 C 0.5180(3) 0.5484(3) 0.3766(3)
H53 H 0.512132 0.515786 0.358182
H54 H 0.498659 0.546819 0.409202
C109 C 0.3572(3) 0.4482(3) 0.1508(3)
C110 C 0.2199(3) 0.6022(3) 0.3451(4)
C111 C 0.5154(4) 0.6587(3) 0.4118(3)
H55 H 0.526481 0.632569 0.434535
C112 C 0.2480(3) 0.4241(3) 0.2760(3)
C113 C 0.5760(3) 0.5533(3) 0.3890(3)
C114 C 0.1659(4) 0.5394(4) 0.4677(4)
C115 C 0.2958(3) 0.5823(3) 0.2900(3)
H56 H 0.323293 0.560690 0.280220
C116 C 0.4742(3) 0.5818(3) 0.2952(3)
C117 C 0.4797(3) 0.6854(3) 0.3286(4)
C118 C 0.4579(3) 0.6731(3) 0.2778(4)
H57 H 0.446051 0.699611 0.255843
C119 C 0.1965(3) 0.5473(3) 0.4185(4)
C120 C 0.2127(4) 0.4101(4) 0.3160(4)
H58 H 0.219397 0.420801 0.350095
C121 C 0.6410(4) 0.5544(4) 0.2578(4)
H59 H 0.632096 0.551951 0.222615
C122 C 0.6677(4) 0.5607(4) 0.3637(4)
C123 C 0.6146(3) 0.5551(3) 0.3495(4)
C124 C 0.6447(3) 0.5590(4) 0.4551(4)
C125 C 0.1884(4) 0.5903(4) 0.3878(4)
H60 H 0.160725 0.612519 0.395765
C126 C 0.1574(4) 0.3701(5) 0.2536(4)
H61 H 0.125268 0.355101 0.245620
C127 C 0.2450(4) 0.6631(4) 0.2763(4)
H62 H 0.239668 0.693846 0.257573
C128 C 0.2880(4) 0.6292(4) 0.2655(3)
H63 H 0.312138 0.639528 0.240328
C129 C 0.1903(4) 0.3800(4) 0.2147(4)
H64 H 0.182692 0.368834 0.180954
C130 C 0.1686(5) 0.3810(5) 0.3060(4)
H65 H 0.147219 0.369082 0.332918
C131 C 0.4816(4) 0.7384(4) 0.3450(5)
H66 H 0.470810 0.765045 0.322737
C132 C 0.7068(4) 0.5647(5) 0.3215(5)
H67 H 0.741885 0.568864 0.330195
C133 C 0.2115(4) 0.6477(4) 0.3163(4)
H68 H 0.182579 0.668412 0.324087
C134 C 0.5159(4) 0.7110(4) 0.4279(4)
H69 H 0.527212 0.719648 0.461331
C135 C 0.6934(4) 0.5624(5) 0.2718(4)
H70 H 0.718677 0.566180 0.245970
C136 C 0.6625(4) 0.5659(5) 0.5117(4)
C137 C 0.6819(3) 0.5632(5) 0.4147(5)
H71 H 0.716971 0.567681 0.423197
C138 C 0.4995(4) 0.7497(4) 0.3941(4)
H72 H 0.500718 0.784332 0.404933
O43 O 0.0866(6) 0.6585(4) 0.5437(6)
O44 O 0.0393(4) 0.5416(6) 0.5556(6)
Zn6 Zn 0.38062(5) 0.61938(5) 0.11938(5)
Zn7 Zn 0.61938(5) 0.11938(5) 0.38062(5)
Zn8 Zn 0.04985(5) 0.39786(6) 0.42071(7)
Zn9 Zn 0.42071(7) 0.04985(5) 0.39786(6)
Zn10 Zn 0.39786(6) 0.42071(7) 0.04985(5)
Zn11 Zn 0.49730(11) 0.50270(11) 0.00270(11)
Zn12 Zn 0.00270(11) 0.49730(11) 0.50270(11)
O45 O 0.6075(2) 0.1545(2) 0.5691(3)
O46 O 0.5691(3) 0.6075(2) 0.1545(2)
O47 O 0.1545(2) 0.5691(3) 0.6075(2)
O48 O 0.1492(2) 0.3164(2) 0.5858(2)
O49 O 0.0858(2) 0.3508(2) 0.6836(2)
O50 O 0.4584(6) 0.0556(6) 0.4607(4)
H73 H 0.513146 0.0634922 0.664821
H74 H 0.576032 0.0689531 0.670775
H79 H 0.664821 0.513146 0.0634922
H80 H 0.670775 0.576032 0.0689531
H81 H 0.0634922 0.664821 0.513146
H82 H 0.0689531 0.670775 0.576032
O16 O 0.4570(5) 0.9570(5) 0.5430(5)
O51 O 0.5393(4) 0.9584(6) 0.4444(6)
O3_2 O 0.3055(2) 0.5754(2) 0.06522(19)
O4_2 O 0.2217(2) 0.52912(19) 0.03129(18)
O5_2 O 0.0035(2) 0.8265(2) 0.0013(2)
O6_2 O 0.0219(2) 0.4451(2) 0.0523(2)
O9_2 O 0.3164(2) 0.5858(2) 0.1492(2)
O11_2 O 0.0193(3) 0.8653(3) 0.0754(3)
C2_2 C 0.1394(3) 0.5022(3) 0.1457(3)
C3_2 C 0.1425(3) 0.7335(3) 0.0188(3)
C4_2 C 0.0977(3) 0.7634(3) 0.0098(3)
C5_2 C 0.2373(3) 0.5450(3) 0.1222(3)
C6_2 C 0.1688(3) 0.7395(3) 0.0671(3)
C10_2 C 0.0591(3) 0.4090(3) 0.0557(3)
C12_2 C 0.2884(3) 0.5698(3) 0.1120(3)
C13_2 C 0.1562(3) 0.5037(3) 0.0929(3)
C14_2 C 0.2056(3) 0.3970(4) 0.0502(3)
H4_2 H 0.216041 0.431248 0.044079
C16_2 C 0.1234(3) 0.4820(3) 0.0484(3)
H5_2 H 0.141818 0.487868 0.015786
H6_2 H 0.090798 0.501341 0.046819
C18_2 C 0.1549(4) 0.7801(3) 0.1022(3)
C19_2 C 0.0882(3) 0.4846(4) 0.1587(3)
H7_2 H 0.065465 0.473519 0.132569
C21_2 C 0.1110(3) 0.4240(3) 0.0533(3)
C22_2 C 0.0323(4) 0.8341(4) 0.0394(4)
C23_2 C 0.2100(3) 0.7042(3) 0.0823(3)
H8_2 H 0.219780 0.676707 0.060690
C24_2 C 0.2048(3) 0.5258(3) 0.0818(3)
C25_2 C 0.1714(4) 0.5203(3) 0.1854(3)
C26_2 C 0.2222(4) 0.5421(3) 0.1731(3)
H9_2 H 0.244157 0.553949 0.199611
C27_2 C 0.0815(4) 0.8035(3) 0.0473(3)
C29_2 C 0.2422(4) 0.3590(4) 0.0544(4)
H11_2 H 0.277385 0.367904 0.051951
C30_2 C 0.1363(4) 0.3323(4) 0.0607(4)
C31_2 C 0.1505(4) 0.3854(3) 0.0551(3)
C32_2 C 0.0449(4) 0.3553(3) 0.0590(4)
C33_2 C 0.1122(4) 0.8116(4) 0.0903(4)
H12_2 H 0.104235 0.839275 0.112519
C35_2 C 0.2237(4) 0.7550(4) 0.1631(4)
H14_2 H 0.242427 0.760332 0.193846
C36_2 C 0.2345(3) 0.7120(4) 0.1292(4)
H15_2 H 0.259672 0.687862 0.139528
C39_2 C 0.1550(5) 0.5184(4) 0.2384(4)
H18_2 H 0.177263 0.529190 0.265045
C40_2 C 0.1785(5) 0.2932(4) 0.0647(5)
H19_2 H 0.169805 0.258115 0.068864
C41_2 C 0.1837(4) 0.7885(4) 0.1477(4)
H20_2 H 0.175913 0.817421 0.168412
C42_2 C 0.0721(4) 0.4841(4) 0.2110(4)
H21_2 H 0.038669 0.472788 0.219648
C43_2 C 0.2282(4) 0.3066(4) 0.0624(5)
H22_2 H 0.254030 0.281323 0.066180
C45_2 C 0.0853(5) 0.3181(3) 0.0632(5)
H23_2 H 0.076803 0.283029 0.067681
C46_2 C 0.1059(4) 0.5005(4) 0.2497(4)
H24_2 H 0.095067 0.499282 0.284332
O15_2 O 0.4239(5) 0.5761(5) 0.0761(5)
O43_2 O 0.4134(6) 0.3415(4) 0.0437(6)
O44_2 O 0.4607(4) 0.4584(6) 0.0556(6)
O48_2 O 0.3508(2) 0.6836(2) 0.0858(2)
H81_2 H 0.436508 0.335179 0.0131464
H82_2 H 0.431047 0.329225 0.076032
Ti1_2 Ti 0.27524(5) 0.56028(5) 0.99440(5)
O1_2 O 0.24386(19) 0.62517(19) 0.9860(2)
O2_2 O 0.0699(2) 0.7565(2) 0.9661(2)
O7_2 O 0.3408(2) 0.5971(2) 0.9677(2)
O8_2 O 0.3925(2) 0.6545(2) 0.9309(3)
C1_2 C 0.2537(3) 0.6694(3) 0.9615(3)
C7_2 C 0.2134(3) 0.7058(3) 0.9542(3)
C8_2 C 0.1600(3) 0.6944(3) 0.9776(3)
H1_2 H 0.134310 0.693848 0.949673
H2_2 H 0.160648 0.659788 0.993192
C9_2 C 0.3051(3) 0.6808(3) 0.9426(3)
C11_2 C 0.3150(3) 0.7262(3) 0.9190(3)
H3_2 H 0.349251 0.734086 0.909538
C15_2 C 0.2750(3) 0.7627(3) 0.9080(4)
C17_2 C 0.3492(3) 0.6428(3) 0.9482(3)
C20_2 C 0.2240(3) 0.7520(3) 0.9241(3)
C28_2 C 0.1840(4) 0.7873(4) 0.9101(4)
H10_2 H 0.149905 0.780603 0.920801
C34_2 C 0.2464(4) 0.8426(4) 0.8701(5)
H13_2 H 0.254380 0.874732 0.855101
C37_2 C 0.2853(4) 0.8097(4) 0.8800(4)
H16_2 H 0.319046 0.817308 0.868834
C38_2 C 0.1940(4) 0.8314(5) 0.8810(5)
H17_2 H 0.167082 0.852781 0.869082
Ti3_2 Ti 0.00560(5) 0.77524(5) 0.93972(5)
O17_2 O 0.0140(2) 0.74386(19) 0.87483(19)
O18_2 O 0.0339(2) 0.5699(2) 0.7435(2)
O23_2 O 0.0323(2) 0.8408(2) 0.9029(2)
O24_2 O 0.0691(3) 0.8925(2) 0.8455(2)
C47_2 C 0.0385(3) 0.7537(3) 0.8306(3)
C53_2 C 0.0458(3) 0.7134(3) 0.7942(3)
C54_2 C 0.0224(3) 0.6600(3) 0.8056(3)
H25_2 H 0.050327 0.634310 0.806152
H26_2 H 0.006808 0.660648 0.840212
C55_2 C 0.0574(3) 0.8051(3) 0.8192(3)
C57_2 C 0.0810(3) 0.8150(3) 0.7738(3)
H27_2 H 0.090462 0.849251 0.765914
C61_2 C 0.0920(4) 0.7750(3) 0.7373(3)
C63_2 C 0.0518(3) 0.8492(3) 0.8572(3)
C66_2 C 0.0759(3) 0.7240(3) 0.7480(3)
C74_2 C 0.0899(4) 0.6840(4) 0.7127(4)
H34_2 H 0.079199 0.649905 0.719397
C80_2 C 0.1299(5) 0.7464(4) 0.6574(4)
H37_2 H 0.144899 0.754380 0.625268
C83_2 C 0.1200(4) 0.7853(4) 0.6903(4)
H40_2 H 0.131166 0.819046 0.682692
C84_2 C 0.1190(5) 0.6940(4) 0.6686(5)
H41_2 H 0.130918 0.667082 0.647219
Ti4_2 Ti 0.06028(5) 0.50560(5) 0.72476(5)
O31_2 O 0.12517(19) 0.5140(2) 0.75614(19)
O32_2 O 0.2565(2) 0.5339(2) 0.9301(2)
O33_2 O 0.0754(2) 0.43478(19) 0.6945(2)
O34_2 O 0.02912(19) 0.46871(18) 0.7783(2)
O35_2 O 0.3265(2) 0.4987(2) 0.9965(2)
O37_2 O 0.0971(2) 0.5323(2) 0.6592(2)
O41_2 O 0.3653(3) 0.4246(3) 0.9807(3)
C93_2 C 0.1694(3) 0.5385(3) 0.7463(3)
C94_2 C 0.0022(3) 0.3543(3) 0.8606(3)
C95_2 C 0.2335(3) 0.4812(3) 0.8575(3)
C96_2 C 0.2634(3) 0.4902(3) 0.9023(3)
C97_2 C 0.0450(3) 0.3778(3) 0.7627(3)
C98_2 C 0.2395(3) 0.4329(3) 0.8312(3)
C99_2 C 0.2058(3) 0.5458(3) 0.7866(3)
C100_2 C 0.1944(3) 0.5224(3) 0.8400(3)
H49_2 H 0.193848 0.550327 0.865690
H50_2 H 0.159788 0.506808 0.839352
C101_2 C 0.1808(3) 0.5574(3) 0.6949(3)
C103_2 C 0.2262(3) 0.5810(3) 0.6850(3)
H51_2 H 0.234086 0.590462 0.650749
C104_2 C 0.0698(3) 0.3880(3) 0.7116(3)
C105_2 C 0.0037(3) 0.4071(3) 0.8438(3)
C107_2 C 0.2627(3) 0.5920(4) 0.7250(3)
H54_2 H 0.001341 0.453181 0.909202
C109_2 C 0.1428(3) 0.5518(3) 0.6508(3)
C110_2 C 0.2801(3) 0.3978(3) 0.8451(4)
C112_2 C 0.2520(3) 0.5759(3) 0.7760(3)
C114_2 C 0.3341(4) 0.4606(4) 0.9677(4)
C115_2 C 0.2042(3) 0.4177(3) 0.7900(3)
H56_2 H 0.176707 0.439310 0.780220
C116_2 C 0.0258(3) 0.4182(3) 0.7952(3)
C117_2 C 0.0203(3) 0.3146(3) 0.8286(4)
C118_2 C 0.0421(3) 0.3269(3) 0.7778(4)
H57_2 H 0.053949 0.300389 0.755843
C119_2 C 0.3035(3) 0.4527(3) 0.9185(4)
C120_2 C 0.2873(4) 0.5899(4) 0.8160(4)
H58_2 H 0.280603 0.579199 0.850095
C125_2 C 0.3116(4) 0.4097(4) 0.8878(4)
H60_2 H 0.339275 0.387481 0.895765
C126_2 C 0.3426(4) 0.6299(5) 0.7536(4)
H61_2 H 0.374732 0.644899 0.745620
C127_2 C 0.2550(4) 0.3369(4) 0.7763(4)
H62_2 H 0.260332 0.306154 0.757573
C128_2 C 0.2120(4) 0.3708(4) 0.7655(3)
H63_2 H 0.187862 0.360472 0.740328
C129_2 C 0.3097(4) 0.6200(4) 0.7147(4)
H64_2 H 0.317308 0.631166 0.680954
C130_2 C 0.3314(5) 0.6190(5) 0.8060(4)
H65_2 H 0.352781 0.630918 0.832918
C131_2 C 0.0184(4) 0.2616(4) 0.8450(5)
H66_2 H 0.029190 0.234955 0.822737
C133_2 C 0.2885(4) 0.3523(4) 0.8163(4)
H68_2 H 0.317421 0.331588 0.824087
C138_2 C 0.0005(4) 0.2503(4) 0.8941(4)
Zn8_2 Zn 0.45015(5) 0.60214(6) 0.92071(7)
Zn9_2 Zn 0.07929(7) 0.95015(5) 0.89786(6)
O50_2 O 0.0416(6) 0.9444(6) 0.9607(4)
O51_2 O 0.9607(4) 0.0416(6) 0.9444(6)
Zn2_2 Zn 0.95015(5) 0.89786(6) 0.07929(7)
Ti2_2 Ti 0.94993(5) 0.44993(5) 0.05007(5)
O10_2 O 0.9521(2) 0.3712(2) 0.0605(3)
O12_2 O 0.9797(4) 0.2905(3) 0.0702(5)
C44_2 C 0.9883(4) 0.3375(4) 0.0659(5)
O13_2 O 0.9563(6) 0.9134(6) 0.1585(4)
O14_2 O 0.9444(6) 0.9607(4) 0.0416(6)
O22_2 O 0.9477(2) 0.5219(2) 0.0549(2)
O26_2 O 0.9395(3) 0.4521(2) 0.1288(2)
C56_2 C 0.9443(3) 0.5591(3) 0.0910(3)
O28_2 O 0.9298(5) 0.4797(4) 0.2095(3)
C60_2 C 0.9498(3) 0.7056(3) 0.1030(4)
H28_2 H 0.955921 0.716041 0.068752
C62_2 C 0.9516(3) 0.6234(3) 0.0180(3)
H29_2 H 0.984214 0.641818 0.012132
C65_2 C 0.8413(3) 0.5882(3) 0.0154(4)
H31_2 H 0.867431 0.565465 0.026481
C67_2 C 0.9467(3) 0.6110(3) 0.0760(3)
C75_2 C 0.9456(4) 0.7422(4) 0.1410(4)
H35_2 H 0.948049 0.777385 0.132096
C76_2 C 0.9393(4) 0.6363(4) 0.1677(4)
C77_2 C 0.9449(3) 0.6505(4) 0.1146(3)
C78_2 C 0.9410(4) 0.5449(4) 0.1447(3)
C86_2 C 0.9353(5) 0.6785(5) 0.2068(4)
H43_2 H 0.931136 0.669805 0.241885
C88_2 C 0.7890(4) 0.5721(4) 0.0159(4)
H45_2 H 0.780352 0.538669 0.027212
C89_2 C 0.9376(5) 0.7282(4) 0.1934(4)
H46_2 H 0.933820 0.754030 0.218677
C90_2 C 0.9341(5) 0.4883(4) 0.1625(4)
C91_2 C 0.9368(5) 0.5853(5) 0.1819(3)
H47_2 H 0.932319 0.576803 0.216971
H48_2 H 0.715668 0.595067 0.000718
O40_2 O 0.8712(2) 0.4395(3) 0.0479(2)
O42_2 O 0.7905(3) 0.4298(5) 0.0203(4)
C136_2 C 0.8375(4) 0.4341(5) 0.0117(4)
O45_2 O 0.8925(2) 0.8455(2) 0.0691(3)
H73_2 H 0.986854 0.936508 0.164821
H74_2 H 0.923968 0.931047 0.170775
Zn3_2 Zn 0.99730(11) 0.99730(11) 0.99730(11)
Zn4_2 Zn 0.92071(7) 0.45015(5) 0.60214(6)
O19_2 O 0.93478(19) 0.8055(2) 0.9246(2)
O20_2 O 0.96871(18) 0.7217(2) 0.97088(19)
O21_2 O 0.9987(2) 0.5035(2) 0.6735(2)
O25_2 O 0.8508(2) 0.8164(2) 0.9142(2)
O27_2 O 0.9246(3) 0.5193(3) 0.6347(3)
C48_2 C 0.8543(3) 0.6394(3) 0.9978(3)
C49_2 C 0.9812(3) 0.6425(3) 0.7665(3)
C50_2 C 0.9902(3) 0.5977(3) 0.7366(3)
C51_2 C 0.8778(3) 0.7373(3) 0.9550(3)
C52_2 C 0.9329(3) 0.6688(3) 0.7605(3)
C58_2 C 0.8880(3) 0.7884(3) 0.9302(3)
C59_2 C 0.9071(3) 0.6562(3) 0.9963(3)
H30_2 H 0.953181 0.590798 0.998659
C64_2 C 0.8978(3) 0.6549(4) 0.7199(3)
C68_2 C 0.9606(4) 0.5323(4) 0.6659(4)
C69_2 C 0.9177(3) 0.7100(3) 0.7958(3)
H32_2 H 0.939310 0.719780 0.823293
C70_2 C 0.9182(3) 0.7048(3) 0.9742(3)
C71_2 C 0.8146(3) 0.6714(4) 0.9797(3)
C72_2 C 0.8269(3) 0.7222(4) 0.9579(3)
H33_2 H 0.800389 0.744157 0.946051
C73_2 C 0.9527(3) 0.5815(4) 0.6965(3)
C79_2 C 0.9097(4) 0.6122(4) 0.6884(4)
H36_2 H 0.887481 0.604235 0.660725
C81_2 C 0.8369(4) 0.7237(4) 0.7450(4)
H38_2 H 0.806154 0.742427 0.739668
C82_2 C 0.8708(4) 0.7345(3) 0.7880(4)
H39_2 H 0.860472 0.759672 0.812138
C85_2 C 0.7616(4) 0.6550(5) 0.9816(4)
H42_2 H 0.734955 0.677263 0.970810
C87_2 C 0.8523(4) 0.6837(4) 0.7115(4)
H44_2 H 0.831588 0.675913 0.682579
C92_2 C 0.7503(4) 0.6059(4) 0.9995(4)
O29_2 O 0.8415(4) 0.4563(6) 0.5866(6)
O30_2 O 0.9584(6) 0.4444(6) 0.5393(4)
O36_2 O 0.9451(2) 0.4477(2) 0.9781(2)
C102_2 C 0.9090(3) 0.4443(3) 0.9409(3)
C106_2 C 0.8970(4) 0.4498(3) 0.7944(3)
H52_2 H 0.931248 0.455921 0.783959
C108_2 C 0.9820(3) 0.4516(3) 0.8766(3)
H53_2 H 0.987868 0.484214 0.858182
C111_2 C 0.9846(4) 0.3413(3) 0.9118(3)
H55_2 H 0.973519 0.367431 0.934535
C113_2 C 0.9240(3) 0.4467(3) 0.8890(3)
C121_2 C 0.8590(4) 0.4456(4) 0.7578(4)
H59_2 H 0.867904 0.448049 0.722615
C122_2 C 0.8323(4) 0.4393(4) 0.8637(4)
C123_2 C 0.8854(3) 0.4449(3) 0.8495(4)
C124_2 C 0.8553(3) 0.4410(4) 0.9551(4)
C132_2 C 0.7932(4) 0.4353(5) 0.8215(5)
H67_2 H 0.758115 0.431136 0.830195
C134_2 C 0.9841(4) 0.2890(4) 0.9279(4)
H69_2 H 0.972788 0.280352 0.961331
C135_2 C 0.8066(4) 0.4376(5) 0.7718(4)
H70_2 H 0.781323 0.433820 0.745970
C137_2 C 0.8181(3) 0.4368(5) 0.9147(5)
H71_2 H 0.783029 0.432319 0.923197
H72_2 H 0.999282 0.215668 0.904933
Zn7_2 Zn 0.88062(5) 0.88062(5) 0.88062(5)
O46_2 O 0.9309(3) 0.3925(2) 0.6545(2)
H79_2 H 0.835179 0.486854 0.563492
H80_2 H 0.829225 0.423968 0.568953
O29_3 O 0.3415(4) 0.0437(6) 0.4134(6)
O33_3 O 0.5754(2) 0.06522(19) 0.3055(2)
O34_3 O 0.52912(19) 0.03129(18) 0.2217(2)
O35_3 O 0.8265(2) 0.0013(2) 0.0035(2)
O36_3 O 0.4451(2) 0.0523(2) 0.0219(2)
O39_2 O 0.5858(2) 0.1492(2) 0.3164(2)
O41_3 O 0.8653(3) 0.0754(3) 0.0193(3)
C94_3 C 0.5022(3) 0.1457(3) 0.1394(3)
C95_3 C 0.7335(3) 0.0188(3) 0.1425(3)
C96_3 C 0.7634(3) 0.0098(3) 0.0977(3)
C97_3 C 0.5450(3) 0.1222(3) 0.2373(3)
C98_3 C 0.7395(3) 0.0671(3) 0.1688(3)
C102_3 C 0.4090(3) 0.0557(3) 0.0591(3)
C104_3 C 0.5698(3) 0.1120(3) 0.2884(3)
C105_3 C 0.5037(3) 0.0929(3) 0.1562(3)
C106_3 C 0.3970(4) 0.0502(3) 0.2056(3)
H52_3 H 0.431248 0.044079 0.216041
C108_3 C 0.4820(3) 0.0484(3) 0.1234(3)
H53_3 H 0.487868 0.015786 0.141818
H54_3 H 0.501341 0.046819 0.090798
C110_3 C 0.7801(3) 0.1022(3) 0.1549(4)
C111_3 C 0.4846(4) 0.1587(3) 0.0882(3)
H55_3 H 0.473519 0.132569 0.065465
C113_3 C 0.4240(3) 0.0533(3) 0.1110(3)
C114_3 C 0.8341(4) 0.0394(4) 0.0323(4)
C115_3 C 0.7042(3) 0.0823(3) 0.2100(3)
H56_3 H 0.676707 0.060690 0.219780
C116_3 C 0.5258(3) 0.0818(3) 0.2048(3)
C117_3 C 0.5203(3) 0.1854(3) 0.1714(4)
C118_3 C 0.5421(3) 0.1731(3) 0.2222(4)
H57_3 H 0.553949 0.199611 0.244157
C119_3 C 0.8035(3) 0.0473(3) 0.0815(4)
C121_3 C 0.3590(4) 0.0544(4) 0.2422(4)
H59_3 H 0.367904 0.051951 0.277385
C122_3 C 0.3323(4) 0.0607(4) 0.1363(4)
C123_3 C 0.3854(3) 0.0551(3) 0.1505(4)
C124_3 C 0.3553(3) 0.0590(4) 0.0449(4)
C125_3 C 0.8116(4) 0.0903(4) 0.1122(4)
H60_3 H 0.839275 0.112519 0.104235
C127_3 C 0.7550(4) 0.1631(4) 0.2237(4)
H62_3 H 0.760332 0.193846 0.242427
C128_3 C 0.7120(4) 0.1292(4) 0.2345(3)
H63_3 H 0.687862 0.139528 0.259672
C131_3 C 0.5184(4) 0.2384(4) 0.1550(5)
H66_3 H 0.529190 0.265045 0.177263
C132_3 C 0.2932(4) 0.0647(5) 0.1785(5)
H67_3 H 0.258115 0.068864 0.169805
C133_3 C 0.7885(4) 0.1477(4) 0.1837(4)
H68_3 H 0.817421 0.168412 0.175913
C134_3 C 0.4841(4) 0.2110(4) 0.0721(4)
H69_3 H 0.472788 0.219648 0.038669
C135_3 C 0.3066(4) 0.0624(5) 0.2282(4)
H70_3 H 0.281323 0.066180 0.254030
C137_3 C 0.3181(3) 0.0632(5) 0.0853(5)
H71_3 H 0.283029 0.067681 0.076803
C138_3 C 0.5005(4) 0.2497(4) 0.1059(4)
H72_3 H 0.499282 0.284332 0.095067
H79_3 H 0.335179 0.0131464 0.436508
H80_3 H 0.329225 0.076032 0.431047
Ti2_3 Ti 0.44993(5) 0.05007(5) 0.94993(5)
O6_3 O 0.5219(2) 0.0549(2) 0.9477(2)
O10_3 O 0.4521(2) 0.1288(2) 0.9395(3)
C10_3 C 0.5591(3) 0.0910(3) 0.9443(3)
O12_3 O 0.4797(4) 0.2095(3) 0.9298(5)
C14_3 C 0.7056(3) 0.1030(4) 0.9498(3)
H4_3 H 0.716041 0.068752 0.955921
C16_3 C 0.6234(3) 0.0180(3) 0.9516(3)
H5_3 H 0.641818 0.012132 0.984214
C19_3 C 0.5882(3) 0.0154(4) 0.8413(3)
H7_3 H 0.565465 0.026481 0.867431
C21_3 C 0.6110(3) 0.0760(3) 0.9467(3)
C29_3 C 0.7422(4) 0.1410(4) 0.9456(4)
H11_3 H 0.777385 0.132096 0.948049
C30_3 C 0.6363(4) 0.1677(4) 0.9393(4)
C31_3 C 0.6505(4) 0.1146(3) 0.9449(3)
C32_3 C 0.5449(4) 0.1447(3) 0.9410(4)
C40_3 C 0.6785(5) 0.2068(4) 0.9353(5)
H19_3 H 0.669805 0.241885 0.931136
C42_3 C 0.5721(4) 0.0159(4) 0.7890(4)
H21_3 H 0.538669 0.027212 0.780352
C43_3 C 0.7282(4) 0.1934(4) 0.9376(5)
H22_3 H 0.754030 0.218677 0.933820
C44_3 C 0.4883(4) 0.1625(4) 0.9341(5)
C45_3 C 0.5853(5) 0.1819(3) 0.9368(5)
H23_3 H 0.576803 0.216971 0.932319
H24_3 H 0.595067 0.000718 0.715668
O26_3 O 0.4395(3) 0.0479(2) 0.8712(2)
O28_3 O 0.4298(5) 0.0203(4) 0.7905(3)
C90_3 C 0.4341(5) 0.0117(4) 0.8375(4)
Zn5_2 Zn 0.89786(6) 0.07929(7) 0.95015(5)
O40_3 O 0.3712(2) 0.0605(3) 0.9521(2)
O42_3 O 0.2905(3) 0.0702(5) 0.9797(4)
C136_3 C 0.3375(4) 0.0659(5) 0.9883(4)
O43_3 O 0.9134(6) 0.1585(4) 0.9563(6)
O47_2 O 0.8455(2) 0.0691(3) 0.8925(2)
H81_3 H 0.936508 0.164821 0.986854
H82_3 H 0.931047 0.170775 0.923968
Ti1_3 Ti 0.77524(5) 0.93972(5) 0.00560(5)
O1_3 O 0.74386(19) 0.87483(19) 0.0140(2)
O2_3 O 0.5699(2) 0.7435(2) 0.0339(2)
O7_3 O 0.8408(2) 0.9029(2) 0.0323(2)
C1_3 C 0.7537(3) 0.8306(3) 0.0385(3)
C7_3 C 0.7134(3) 0.7942(3) 0.0458(3)
C8_3 C 0.6600(3) 0.8056(3) 0.0224(3)
H1_3 H 0.634310 0.806152 0.050327
H2_3 H 0.660648 0.840212 0.006808
C9_3 C 0.8051(3) 0.8192(3) 0.0574(3)
C11_3 C 0.8150(3) 0.7738(3) 0.0810(3)
H3_3 H 0.849251 0.765914 0.090462
C15_3 C 0.7750(3) 0.7373(3) 0.0920(4)
C17_3 C 0.8492(3) 0.8572(3) 0.0518(3)
C20_3 C 0.7240(3) 0.7480(3) 0.0759(3)
C28_3 C 0.6840(4) 0.7127(4) 0.0899(4)
H10_3 H 0.649905 0.719397 0.079199
C34_3 C 0.7464(4) 0.6574(4) 0.1299(5)
H13_3 H 0.754380 0.625268 0.144899
C37_3 C 0.7853(4) 0.6903(4) 0.1200(4)
H16_3 H 0.819046 0.682692 0.131166
C38_3 C 0.6940(4) 0.6686(5) 0.1190(5)
H17_3 H 0.667082 0.647219 0.130918
Ti3_3 Ti 0.50560(5) 0.72476(5) 0.06028(5)
O17_3 O 0.5140(2) 0.75614(19) 0.12517(19)
O18_3 O 0.5339(2) 0.9301(2) 0.2565(2)
O19_3 O 0.43478(19) 0.6945(2) 0.0754(2)
O20_3 O 0.46871(18) 0.7783(2) 0.02912(19)
O21_3 O 0.4987(2) 0.9965(2) 0.3265(2)
O23_3 O 0.5323(2) 0.6592(2) 0.0971(2)
O27_3 O 0.4246(3) 0.9807(3) 0.3653(3)
C47_3 C 0.5385(3) 0.7463(3) 0.1694(3)
C48_3 C 0.3543(3) 0.8606(3) 0.0022(3)
C49_3 C 0.4812(3) 0.8575(3) 0.2335(3)
C50_3 C 0.4902(3) 0.9023(3) 0.2634(3)
C51_3 C 0.3778(3) 0.7627(3) 0.0450(3)
C52_3 C 0.4329(3) 0.8312(3) 0.2395(3)
C53_3 C 0.5458(3) 0.7866(3) 0.2058(3)
C54_3 C 0.5224(3) 0.8400(3) 0.1944(3)
H25_3 H 0.550327 0.865690 0.193848
H26_3 H 0.506808 0.839352 0.159788
C55_3 C 0.5574(3) 0.6949(3) 0.1808(3)
C57_3 C 0.5810(3) 0.6850(3) 0.2262(3)
H27_3 H 0.590462 0.650749 0.234086
C58_3 C 0.3880(3) 0.7116(3) 0.0698(3)
C59_3 C 0.4071(3) 0.8438(3) 0.0037(3)
C61_3 C 0.5920(4) 0.7250(3) 0.2627(3)
H30_3 H 0.453181 0.909202 0.001341
C63_3 C 0.5518(3) 0.6508(3) 0.1428(3)
C64_3 C 0.3978(3) 0.8451(4) 0.2801(3)
C66_3 C 0.5759(3) 0.7760(3) 0.2520(3)
C68_3 C 0.4606(4) 0.9677(4) 0.3341(4)
C69_3 C 0.4177(3) 0.7900(3) 0.2042(3)
H32_3 H 0.439310 0.780220 0.176707
C70_3 C 0.4182(3) 0.7952(3) 0.0258(3)
C71_3 C 0.3146(3) 0.8286(4) 0.0203(3)
C72_3 C 0.3269(3) 0.7778(4) 0.0421(3)
H33_3 H 0.300389 0.755843 0.053949
C73_3 C 0.4527(3) 0.9185(4) 0.3035(3)
C74_3 C 0.5899(4) 0.8160(4) 0.2873(4)
H34_3 H 0.579199 0.850095 0.280603
C79_3 C 0.4097(4) 0.8878(4) 0.3116(4)
H36_3 H 0.387481 0.895765 0.339275
C80_3 C 0.6299(5) 0.7536(4) 0.3426(4)
H37_3 H 0.644899 0.745620 0.374732
C81_3 C 0.3369(4) 0.7763(4) 0.2550(4)
H38_3 H 0.306154 0.757573 0.260332
C82_3 C 0.3708(4) 0.7655(3) 0.2120(4)
H39_3 H 0.360472 0.740328 0.187862
C83_3 C 0.6200(4) 0.7147(4) 0.3097(4)
H40_3 H 0.631166 0.680954 0.317308
C84_3 C 0.6190(5) 0.8060(4) 0.3314(5)
H41_3 H 0.630918 0.832918 0.352781
C85_3 C 0.2616(4) 0.8450(5) 0.0184(4)
H42_3 H 0.234955 0.822737 0.029190
C87_3 C 0.3523(4) 0.8163(4) 0.2885(4)
H44_3 H 0.331588 0.824087 0.317421
C92_3 C 0.2503(4) 0.8941(4) 0.0005(4)
Ti4_3 Ti 0.56028(5) 0.99440(5) 0.27524(5)
O31_3 O 0.62517(19) 0.9860(2) 0.24386(19)
O32_3 O 0.7565(2) 0.9661(2) 0.0699(2)
O37_3 O 0.5971(2) 0.9677(2) 0.3408(2)
O38_2 O 0.6545(2) 0.9309(3) 0.3925(2)
C93_3 C 0.6694(3) 0.9615(3) 0.2537(3)
C99_3 C 0.7058(3) 0.9542(3) 0.2134(3)
C100_3 C 0.6944(3) 0.9776(3) 0.1600(3)
H49_3 H 0.693848 0.949673 0.134310
H50_3 H 0.659788 0.993192 0.160648
C101_3 C 0.6808(3) 0.9426(3) 0.3051(3)
C103_3 C 0.7262(3) 0.9190(3) 0.3150(3)
H51_3 H 0.734086 0.909538 0.349251
C107_3 C 0.7627(3) 0.9080(4) 0.2750(3)
C109_3 C 0.6428(3) 0.9482(3) 0.3492(3)
C112_3 C 0.7520(3) 0.9241(3) 0.2240(3)
C120_3 C 0.7873(4) 0.9101(4) 0.1840(4)
H58_3 H 0.780603 0.920801 0.149905
C126_3 C 0.8426(4) 0.8701(5) 0.2464(4)
H61_3 H 0.874732 0.855101 0.254380
C129_3 C 0.8097(4) 0.8800(4) 0.2853(4)
H64_3 H 0.817308 0.868834 0.319046
C130_3 C 0.8314(5) 0.8810(5) 0.1940(4)
H65_3 H 0.852781 0.869082 0.167082
Zn10_2 Zn 0.60214(6) 0.92071(7) 0.45015(5)
O3_3 O 0.8055(2) 0.9246(2) 0.93478(19)
O4_3 O 0.7217(2) 0.97088(19) 0.96871(18)
O5_3 O 0.5035(2) 0.6735(2) 0.9987(2)
O9_3 O 0.8164(2) 0.9142(2) 0.8508(2)
O11_3 O 0.5193(3) 0.6347(3) 0.9246(3)
C2_3 C 0.6394(3) 0.9978(3) 0.8543(3)
C3_3 C 0.6425(3) 0.7665(3) 0.9812(3)
C4_3 C 0.5977(3) 0.7366(3) 0.9902(3)
C5_3 C 0.7373(3) 0.9550(3) 0.8778(3)
C6_3 C 0.6688(3) 0.7605(3) 0.9329(3)
C12_3 C 0.7884(3) 0.9302(3) 0.8880(3)
C13_3 C 0.6562(3) 0.9963(3) 0.9071(3)
H6_3 H 0.590798 0.998659 0.953181
C18_3 C 0.6549(4) 0.7199(3) 0.8978(3)
C22_3 C 0.5323(4) 0.6659(4) 0.9606(4)
C23_3 C 0.7100(3) 0.7958(3) 0.9177(3)
H8_3 H 0.719780 0.823293 0.939310
C24_3 C 0.7048(3) 0.9742(3) 0.9182(3)
C25_3 C 0.6714(4) 0.9797(3) 0.8146(3)
C26_3 C 0.7222(4) 0.9579(3) 0.8269(3)
H9_3 H 0.744157 0.946051 0.800389
C27_3 C 0.5815(4) 0.6965(3) 0.9527(3)
C33_3 C 0.6122(4) 0.6884(4) 0.9097(4)
H12_3 H 0.604235 0.660725 0.887481
C35_3 C 0.7237(4) 0.7450(4) 0.8369(4)
H14_3 H 0.742427 0.739668 0.806154
C36_3 C 0.7345(3) 0.7880(4) 0.8708(4)
H15_3 H 0.759672 0.812138 0.860472
C39_3 C 0.6550(5) 0.9816(4) 0.7616(4)
H18_3 H 0.677263 0.970810 0.734955
C41_3 C 0.6837(4) 0.7115(4) 0.8523(4)
H20_3 H 0.675913 0.682579 0.831588
C46_3 C 0.6059(4) 0.9995(4) 0.7503(4)
O13_3 O 0.4563(6) 0.5866(6) 0.8415(4)
O14_3 O 0.4444(6) 0.5393(4) 0.9584(6)
O15_3 O 0.9239(5) 0.9239(5) 0.9239(5)
O16_2 O 0.5430(5) 0.4570(5) 0.9570(5)
O22_3 O 0.4477(2) 0.9781(2) 0.9451(2)
C56_3 C 0.4443(3) 0.9409(3) 0.9090(3)
C60_3 C 0.4498(3) 0.7944(3) 0.8970(4)
H28_3 H 0.455921 0.783959 0.931248
C62_3 C 0.4516(3) 0.8766(3) 0.9820(3)
H29_3 H 0.484214 0.858182 0.987868
C65_3 C 0.3413(3) 0.9118(3) 0.9846(4)
H31_3 H 0.367431 0.934535 0.973519
C67_3 C 0.4467(3) 0.8890(3) 0.9240(3)
C75_3 C 0.4456(4) 0.7578(4) 0.8590(4)
H35_3 H 0.448049 0.722615 0.867904
C76_3 C 0.4393(4) 0.8637(4) 0.8323(4)
C77_3 C 0.4449(3) 0.8495(4) 0.8854(3)
C78_3 C 0.4410(4) 0.9551(4) 0.8553(3)
C86_3 C 0.4353(5) 0.8215(5) 0.7932(4)
H43_3 H 0.431136 0.830195 0.758115
C88_3 C 0.2890(4) 0.9279(4) 0.9841(4)
H45_3 H 0.280352 0.961331 0.972788
C89_3 C 0.4376(5) 0.7718(4) 0.8066(4)
H46_3 H 0.433820 0.745970 0.781323
C91_3 C 0.4368(5) 0.9147(5) 0.8181(3)
H47_3 H 0.432319 0.923197 0.783029
H48_3 H 0.215668 0.904933 0.999282
O49_2 O 0.9142(2) 0.8508(2) 0.8164(2)
H73_3 H 0.486854 0.563492 0.835179
H74_3 H 0.423968 0.568953 0.829225
O13_4 O 0.0437(6) 0.4134(6) 0.3415(4)
O14_4 O 0.0556(6) 0.4607(4) 0.4584(6)
O19_4 O 0.06522(19) 0.3055(2) 0.5754(2)
O20_4 O 0.03129(18) 0.2217(2) 0.52912(19)
O21_4 O 0.0013(2) 0.0035(2) 0.8265(2)
O22_4 O 0.0523(2) 0.0219(2) 0.4451(2)
O27_4 O 0.0754(3) 0.0193(3) 0.8653(3)
C48_4 C 0.1457(3) 0.1394(3) 0.5022(3)
C49_4 C 0.0188(3) 0.1425(3) 0.7335(3)
C50_4 C 0.0098(3) 0.0977(3) 0.7634(3)
C51_4 C 0.1222(3) 0.2373(3) 0.5450(3)
C52_4 C 0.0671(3) 0.1688(3) 0.7395(3)
C56_4 C 0.0557(3) 0.0591(3) 0.4090(3)
C58_4 C 0.1120(3) 0.2884(3) 0.5698(3)
C59_4 C 0.0929(3) 0.1562(3) 0.5037(3)
C60_4 C 0.0502(3) 0.2056(3) 0.3970(4)
H28_4 H 0.044079 0.216041 0.431248
C62_4 C 0.0484(3) 0.1234(3) 0.4820(3)
H29_4 H 0.015786 0.141818 0.487868
H30_4 H 0.046819 0.090798 0.501341
C64_4 C 0.1022(3) 0.1549(4) 0.7801(3)
C65_4 C 0.1587(3) 0.0882(3) 0.4846(4)
H31_4 H 0.132569 0.065465 0.473519
C67_4 C 0.0533(3) 0.1110(3) 0.4240(3)
C68_4 C 0.0394(4) 0.0323(4) 0.8341(4)
C69_4 C 0.0823(3) 0.2100(3) 0.7042(3)
H32_4 H 0.060690 0.219780 0.676707
C70_4 C 0.0818(3) 0.2048(3) 0.5258(3)
C71_4 C 0.1854(3) 0.1714(4) 0.5203(3)
C72_4 C 0.1731(3) 0.2222(4) 0.5421(3)
H33_4 H 0.199611 0.244157 0.553949
C73_4 C 0.0473(3) 0.0815(4) 0.8035(3)
C75_4 C 0.0544(4) 0.2422(4) 0.3590(4)
H35_4 H 0.051951 0.277385 0.367904
C76_4 C 0.0607(4) 0.1363(4) 0.3323(4)
C77_4 C 0.0551(3) 0.1505(4) 0.3854(3)
C78_4 C 0.0590(4) 0.0449(4) 0.3553(3)
C79_4 C 0.0903(4) 0.1122(4) 0.8116(4)
H36_4 H 0.112519 0.104235 0.839275
C81_4 C 0.1631(4) 0.2237(4) 0.7550(4)
H38_4 H 0.193846 0.242427 0.760332
C82_4 C 0.1292(4) 0.2345(3) 0.7120(4)
H39_4 H 0.139528 0.259672 0.687862
C85_4 C 0.2384(4) 0.1550(5) 0.5184(4)
H42_4 H 0.265045 0.177263 0.529190
C86_4 C 0.0647(5) 0.1785(5) 0.2932(4)
H43_4 H 0.068864 0.169805 0.258115
C87_4 C 0.1477(4) 0.1837(4) 0.7885(4)
H44_4 H 0.168412 0.175913 0.817421
C88_4 C 0.2110(4) 0.0721(4) 0.4841(4)
H45_4 H 0.219648 0.038669 0.472788
C89_4 C 0.0624(5) 0.2282(4) 0.3066(4)
H46_4 H 0.066180 0.254030 0.281323
C91_4 C 0.0632(5) 0.0853(5) 0.3181(3)
H47_4 H 0.067681 0.076803 0.283029
C92_4 C 0.2497(4) 0.1059(4) 0.5005(4)
H48_4 H 0.284332 0.095067 0.499282
H73_4 H 0.0131464 0.436508 0.335179
H74_4 H 0.076032 0.431047 0.329225
Ti2_4 Ti 0.05007(5) 0.94993(5) 0.44993(5)
O10_4 O 0.0479(2) 0.8712(2) 0.4395(3)
O12_4 O 0.0203(4) 0.7905(3) 0.4298(5)
C44_4 C 0.0117(4) 0.8375(4) 0.4341(5)
O26_4 O 0.0605(3) 0.9521(2) 0.3712(2)
O28_4 O 0.0702(5) 0.9797(4) 0.2905(3)
C90_4 C 0.0659(5) 0.9883(4) 0.3375(4)
O29_4 O 0.1585(4) 0.9563(6) 0.9134(6)
O36_4 O 0.0549(2) 0.9477(2) 0.5219(2)
O40_4 O 0.1288(2) 0.9395(3) 0.4521(2)
C102_4 C 0.0910(3) 0.9443(3) 0.5591(3)
O42_4 O 0.2095(3) 0.9298(5) 0.4797(4)
C106_4 C 0.1030(4) 0.9498(3) 0.7056(3)
H52_4 H 0.068752 0.955921 0.716041
C108_4 C 0.0180(3) 0.9516(3) 0.6234(3)
H53_4 H 0.012132 0.984214 0.641818
C111_4 C 0.0154(4) 0.8413(3) 0.5882(3)
H55_4 H 0.026481 0.867431 0.565465
C113_4 C 0.0760(3) 0.9467(3) 0.6110(3)
C121_4 C 0.1410(4) 0.9456(4) 0.7422(4)
H59_4 H 0.132096 0.948049 0.777385
C122_4 C 0.1677(4) 0.9393(4) 0.6363(4)
C123_4 C 0.1146(3) 0.9449(3) 0.6505(4)
C124_4 C 0.1447(3) 0.9410(4) 0.5449(4)
C132_4 C 0.2068(4) 0.9353(5) 0.6785(5)
H67_4 H 0.241885 0.931136 0.669805
C134_4 C 0.0159(4) 0.7890(4) 0.5721(4)
H69_4 H 0.027212 0.780352 0.538669
C135_4 C 0.1934(4) 0.9376(5) 0.7282(4)
H70_4 H 0.218677 0.933820 0.754030
C136_4 C 0.1625(4) 0.9341(5) 0.4883(4)
C137_4 C 0.1819(3) 0.9368(5) 0.5853(5)
H71_4 H 0.216971 0.932319 0.576803
H72_4 H 0.000718 0.715668 0.595067
H79_4 H 0.164821 0.986854 0.936508
H80_4 H 0.170775 0.923968 0.931047
Ti1_4 Ti 0.72476(5) 0.06028(5) 0.50560(5)
O1_4 O 0.75614(19) 0.12517(19) 0.5140(2)
O2_4 O 0.9301(2) 0.2565(2) 0.5339(2)
O3_4 O 0.6945(2) 0.0754(2) 0.43478(19)
O4_4 O 0.7783(2) 0.02912(19) 0.46871(18)
O5_4 O 0.9965(2) 0.3265(2) 0.4987(2)
O7_4 O 0.6592(2) 0.0971(2) 0.5323(2)
O9_4 O 0.6836(2) 0.0858(2) 0.3508(2)
O11_4 O 0.9807(3) 0.3653(3) 0.4246(3)
C1_4 C 0.7463(3) 0.1694(3) 0.5385(3)
C2_4 C 0.8606(3) 0.0022(3) 0.3543(3)
C3_4 C 0.8575(3) 0.2335(3) 0.4812(3)
C4_4 C 0.9023(3) 0.2634(3) 0.4902(3)
C5_4 C 0.7627(3) 0.0450(3) 0.3778(3)
C6_4 C 0.8312(3) 0.2395(3) 0.4329(3)
C7_4 C 0.7866(3) 0.2058(3) 0.5458(3)
C8_4 C 0.8400(3) 0.1944(3) 0.5224(3)
H1_4 H 0.865690 0.193848 0.550327
H2_4 H 0.839352 0.159788 0.506808
C9_4 C 0.6949(3) 0.1808(3) 0.5574(3)
C11_4 C 0.6850(3) 0.2262(3) 0.5810(3)
H3_4 H 0.650749 0.234086 0.590462
C12_4 C 0.7116(3) 0.0698(3) 0.3880(3)
C13_4 C 0.8438(3) 0.0037(3) 0.4071(3)
C15_4 C 0.7250(3) 0.2627(3) 0.5920(4)
H6_4 H 0.909202 0.001341 0.453181
C17_4 C 0.6508(3) 0.1428(3) 0.5518(3)
C18_4 C 0.8451(4) 0.2801(3) 0.3978(3)
C20_4 C 0.7760(3) 0.2520(3) 0.5759(3)
C22_4 C 0.9677(4) 0.3341(4) 0.4606(4)
C23_4 C 0.7900(3) 0.2042(3) 0.4177(3)
H8_4 H 0.780220 0.176707 0.439310
C24_4 C 0.7952(3) 0.0258(3) 0.4182(3)
C25_4 C 0.8286(4) 0.0203(3) 0.3146(3)
C26_4 C 0.7778(4) 0.0421(3) 0.3269(3)
H9_4 H 0.755843 0.053949 0.300389
C27_4 C 0.9185(4) 0.3035(3) 0.4527(3)
C28_4 C 0.8160(4) 0.2873(4) 0.5899(4)
H10_4 H 0.850095 0.280603 0.579199
C33_4 C 0.8878(4) 0.3116(4) 0.4097(4)
H12_4 H 0.895765 0.339275 0.387481
C34_4 C 0.7536(4) 0.3426(4) 0.6299(5)
H13_4 H 0.745620 0.374732 0.644899
C35_4 C 0.7763(4) 0.2550(4) 0.3369(4)
H14_4 H 0.757573 0.260332 0.306154
C36_4 C 0.7655(3) 0.2120(4) 0.3708(4)
H15_4 H 0.740328 0.187862 0.360472
C37_4 C 0.7147(4) 0.3097(4) 0.6200(4)
H16_4 H 0.680954 0.317308 0.631166
C38_4 C 0.8060(4) 0.3314(5) 0.6190(5)
H17_4 H 0.832918 0.352781 0.630918
C39_4 C 0.8450(5) 0.0184(4) 0.2616(4)
H18_4 H 0.822737 0.029190 0.234955
C41_4 C 0.8163(4) 0.2885(4) 0.3523(4)
H20_4 H 0.824087 0.317421 0.331588
C46_4 C 0.8941(4) 0.0005(4) 0.2503(4)
O15_4 O 0.5761(5) 0.0761(5) 0.4239(5)
O16_3 O 0.9570(5) 0.5430(5) 0.4570(5)
Ti3_4 Ti 0.99440(5) 0.27524(5) 0.56028(5)
O17_4 O 0.9860(2) 0.24386(19) 0.62517(19)
O18_4 O 0.9661(2) 0.0699(2) 0.7565(2)
O23_4 O 0.9677(2) 0.3408(2) 0.5971(2)
C47_4 C 0.9615(3) 0.2537(3) 0.6694(3)
C53_4 C 0.9542(3) 0.2134(3) 0.7058(3)
C54_4 C 0.9776(3) 0.1600(3) 0.6944(3)
H25_4 H 0.949673 0.134310 0.693848
H26_4 H 0.993192 0.160648 0.659788
C55_4 C 0.9426(3) 0.3051(3) 0.6808(3)
C57_4 C 0.9190(3) 0.3150(3) 0.7262(3)
H27_4 H 0.909538 0.349251 0.734086
C61_4 C 0.9080(4) 0.2750(3) 0.7627(3)
C63_4 C 0.9482(3) 0.3492(3) 0.6428(3)
C66_4 C 0.9241(3) 0.2240(3) 0.7520(3)
C74_4 C 0.9101(4) 0.1840(4) 0.7873(4)
H34_4 H 0.920801 0.149905 0.780603
C80_4 C 0.8701(5) 0.2464(4) 0.8426(4)
H37_4 H 0.855101 0.254380 0.874732
C83_4 C 0.8800(4) 0.2853(4) 0.8097(4)
H40_4 H 0.868834 0.319046 0.817308
C84_4 C 0.8810(5) 0.1940(4) 0.8314(5)
H41_4 H 0.869082 0.167082 0.852781
Ti4_4 Ti 0.93972(5) 0.00560(5) 0.77524(5)
O31_4 O 0.87483(19) 0.0140(2) 0.74386(19)
O32_4 O 0.7435(2) 0.0339(2) 0.5699(2)
O37_4 O 0.9029(2) 0.0323(2) 0.8408(2)
C93_4 C 0.8306(3) 0.0385(3) 0.7537(3)
C99_4 C 0.7942(3) 0.0458(3) 0.7134(3)
C100_4 C 0.8056(3) 0.0224(3) 0.6600(3)
H49_4 H 0.806152 0.050327 0.634310
H50_4 H 0.840212 0.006808 0.660648
C101_4 C 0.8192(3) 0.0574(3) 0.8051(3)
C103_4 C 0.7738(3) 0.0810(3) 0.8150(3)
H51_4 H 0.765914 0.090462 0.849251
C107_4 C 0.7373(3) 0.0920(4) 0.7750(3)
C109_4 C 0.8572(3) 0.0518(3) 0.8492(3)
C112_4 C 0.7480(3) 0.0759(3) 0.7240(3)
C120_4 C 0.7127(4) 0.0899(4) 0.6840(4)
H58_4 H 0.719397 0.079199 0.649905
C126_4 C 0.6574(4) 0.1299(5) 0.7464(4)
H61_4 H 0.625268 0.144899 0.754380
C129_4 C 0.6903(4) 0.1200(4) 0.7853(4)
H64_4 H 0.682692 0.131166 0.819046
C130_4 C 0.6686(5) 0.1190(5) 0.6940(4)
H65_4 H 0.647219 0.130918 0.667082
O6_4 O 0.9781(2) 0.9451(2) 0.4477(2)
C10_4 C 0.9409(3) 0.9090(3) 0.4443(3)
C14_4 C 0.7944(3) 0.8970(4) 0.4498(3)
H4_4 H 0.783959 0.931248 0.455921
C16_4 C 0.8766(3) 0.9820(3) 0.4516(3)
H5_4 H 0.858182 0.987868 0.484214
C19_4 C 0.9118(3) 0.9846(4) 0.3413(3)
H7_4 H 0.934535 0.973519 0.367431
C21_4 C 0.8890(3) 0.9240(3) 0.4467(3)
C29_4 C 0.7578(4) 0.8590(4) 0.4456(4)
H11_4 H 0.722615 0.867904 0.448049
C30_4 C 0.8637(4) 0.8323(4) 0.4393(4)
C31_4 C 0.8495(4) 0.8854(3) 0.4449(3)
C32_4 C 0.9551(4) 0.8553(3) 0.4410(4)
C40_4 C 0.8215(5) 0.7932(4) 0.4353(5)
H19_4 H 0.830195 0.758115 0.431136
C42_4 C 0.9279(4) 0.9841(4) 0.2890(4)
H21_4 H 0.961331 0.972788 0.280352
C43_4 C 0.7718(4) 0.8066(4) 0.4376(5)
H22_4 H 0.745970 0.781323 0.433820
C45_4 C 0.9147(5) 0.8181(3) 0.4368(5)
H23_4 H 0.923197 0.783029 0.432319
H24_4 H 0.904933 0.999282 0.215668
O33_4 O 0.9246(2) 0.93478(19) 0.8055(2)
O34_4 O 0.97088(19) 0.96871(18) 0.7217(2)
O35_4 O 0.6735(2) 0.9987(2) 0.5035(2)
O41_4 O 0.6347(3) 0.9246(3) 0.5193(3)
C94_4 C 0.9978(3) 0.8543(3) 0.6394(3)
C95_4 C 0.7665(3) 0.9812(3) 0.6425(3)
C96_4 C 0.7366(3) 0.9902(3) 0.5977(3)
C97_4 C 0.9550(3) 0.8778(3) 0.7373(3)
C98_4 C 0.7605(3) 0.9329(3) 0.6688(3)
C104_4 C 0.9302(3) 0.8880(3) 0.7884(3)
C105_4 C 0.9963(3) 0.9071(3) 0.6562(3)
H54_4 H 0.998659 0.953181 0.590798
C110_4 C 0.7199(3) 0.8978(3) 0.6549(4)
C114_4 C 0.6659(4) 0.9606(4) 0.5323(4)
C115_4 C 0.7958(3) 0.9177(3) 0.7100(3)
H56_4 H 0.823293 0.939310 0.719780
C116_4 C 0.9742(3) 0.9182(3) 0.7048(3)
C117_4 C 0.9797(3) 0.8146(3) 0.6714(4)
C118_4 C 0.9579(3) 0.8269(3) 0.7222(4)
H57_4 H 0.946051 0.800389 0.744157
C119_4 C 0.6965(3) 0.9527(3) 0.5815(4)
C125_4 C 0.6884(4) 0.9097(4) 0.6122(4)
H60_4 H 0.660725 0.887481 0.604235
C127_4 C 0.7450(4) 0.8369(4) 0.7237(4)
H62_4 H 0.739668 0.806154 0.742427
C128_4 C 0.7880(4) 0.8708(4) 0.7345(3)
H63_4 H 0.812138 0.860472 0.759672
C131_4 C 0.9816(4) 0.7616(4) 0.6550(5)
H66_4 H 0.970810 0.734955 0.677263
C133_4 C 0.7115(4) 0.8523(4) 0.6837(4)
H68_4 H 0.682579 0.831588 0.675913
C138_4 C 0.9995(4) 0.7503(4) 0.6059(4)
O43_4 O 0.5866(6) 0.8415(4) 0.4563(6)
H81_4 H 0.563492 0.835179 0.486854
H82_4 H 0.568953 0.829225 0.423968
O16_4 O 0.0430(5) 0.0430(5) 0.0430(5)
loop_
_geom_bond_atom_site_label_1
_geom_bond_atom_site_label_2
_geom_bond_site_symmetry_1
_geom_bond_site_symmetry_2
Zn1 O9 1_555 1_555
Ti1 O1 1_555 1_555
Zn2 O11 1_555 1_555
Ti2 O6 1_555 1_555
Zn3 O14 1_555 1_555
O1 C1 1_555 1_555
O2 C4 1_555 1_555
O3 Ti1 1_555 1_555
O4 Ti1 1_555 1_555
O5 C22 1_555 1_555
O6 C10 1_555 1_555
O7 Ti1 1_555 1_555
O8 C17 1_555 1_555
O9 C12 1_555 1_555
O10 Ti2 1_555 1_555
O11 C22 1_555 1_555
C1 C7 1_555 1_555
C2 C13 1_555 1_555
C3 C4 1_555 1_555
C4 C27 1_555 1_555
C5 C12 1_555 1_555
C6 C3 1_555 1_555
C7 C8 1_555 1_555
C8 C3 1_555 1_555
H1 C8 1_555 1_555
H2 C8 1_555 1_555
C9 C1 1_555 1_555
C10 C21 1_555 1_555
C11 C9 1_555 1_555
H3 C11 1_555 1_555
O12 C44 1_555 1_555
C12 O3 1_555 1_555
C13 C16 1_555 1_555
C14 H4 1_555 1_555
C15 C11 1_555 1_555
C16 H5 1_555 1_555
H6 C16 1_555 1_555
C17 O7 1_555 1_555
C18 C6 1_555 1_555
C19 C2 1_555 1_555
H7 C19 1_555 1_555
C20 C7 1_555 1_555
C21 C16 1_555 1_555
C22 C27 1_555 1_555
C23 C6 1_555 1_555
H8 C23 1_555 1_555
C24 O4 1_555 1_555
C25 C2 1_555 1_555
C26 C5 1_555 1_555
H9 C26 1_555 1_555
C27 C33 1_555 1_555
C28 C20 1_555 1_555
H10 C28 1_555 1_555
C29 C14 1_555 1_555
H11 C29 1_555 1_555
C30 C31 1_555 1_555
C31 C14 1_555 1_555
C32 C10 1_555 1_555
C33 C18 1_555 1_555
H12 C33 1_555 1_555
C34 H13 1_555 1_555
C35 H14 1_555 1_555
C36 C23 1_555 1_555
H15 C36 1_555 1_555
C37 C15 1_555 1_555
H16 C37 1_555 1_555
C38 C28 1_555 1_555
H17 C38 1_555 1_555
C39 C25 1_555 1_555
H18 C39 1_555 1_555
C40 C30 1_555 1_555
H19 C40 1_555 1_555
C41 C18 1_555 1_555
H20 C41 1_555 1_555
C42 C19 1_555 1_555
H21 C42 1_555 1_555
C43 C29 1_555 1_555
H22 C43 1_555 1_555
C44 O10 1_555 1_555
C45 C30 1_555 1_555
H23 C45 1_555 1_555
C46 C39 1_555 1_555
H24 C46 1_555 1_555
O13 Zn2 1_555 1_555
O14 Zn2 1_555 1_555
O15 Zn1 1_555 1_555
Ti3 O2 1_555 1_555
Zn4 O27 1_555 1_555
O17 Ti3 1_555 1_555
O18 C50 1_555 1_555
O19 Ti3 1_555 1_555
O20 Ti3 1_555 1_555
O21 C68 1_555 1_555
O22 Ti2 1_555 1_555
O23 Ti3 1_555 1_555
O24 C63 1_555 1_555
O25 C58 1_555 1_555
O26 Ti2 1_555 1_555
O27 C68 1_555 1_555
C47 O17 1_555 1_555
C48 C59 1_555 1_555
C49 C50 1_555 1_555
C50 C73 1_555 1_555
C51 C58 1_555 1_555
C52 C49 1_555 1_555
C53 C47 1_555 1_555
C54 C49 1_555 1_555
H25 C54 1_555 1_555
H26 C54 1_555 1_555
C55 C47 1_555 1_555
C56 O22 1_555 1_555
C57 C55 1_555 1_555
H27 C57 1_555 1_555
O28 C90 1_555 1_555
C58 O19 1_555 1_555
C59 C62 1_555 1_555
C60 H28 1_555 1_555
C61 C57 1_555 1_555
C62 H29 1_555 1_555
H30 C62 1_555 1_555
C63 O23 1_555 1_555
C64 C52 1_555 1_555
C65 C48 1_555 1_555
H31 C65 1_555 1_555
C66 C53 1_555 1_555
C67 C56 1_555 1_555
C68 C73 1_555 1_555
C69 C52 1_555 1_555
H32 C69 1_555 1_555
C70 O20 1_555 1_555
C71 C48 1_555 1_555
C72 C51 1_555 1_555
H33 C72 1_555 1_555
C73 C79 1_555 1_555
C74 C66 1_555 1_555
H34 C74 1_555 1_555
C75 C60 1_555 1_555
H35 C75 1_555 1_555
C76 C77 1_555 1_555
C77 C60 1_555 1_555
C78 C56 1_555 1_555
C79 C64 1_555 1_555
H36 C79 1_555 1_555
C80 H37 1_555 1_555
C81 H38 1_555 1_555
C82 C69 1_555 1_555
H39 C82 1_555 1_555
C83 C61 1_555 1_555
H40 C83 1_555 1_555
C84 C74 1_555 1_555
H41 C84 1_555 1_555
C85 C71 1_555 1_555
H42 C85 1_555 1_555
C86 C76 1_555 1_555
H43 C86 1_555 1_555
C87 C64 1_555 1_555
H44 C87 1_555 1_555
C88 C65 1_555 1_555
H45 C88 1_555 1_555
C89 C75 1_555 1_555
H46 C89 1_555 1_555
C90 O26 1_555 1_555
C91 C76 1_555 1_555
H47 C91 1_555 1_555
C92 C85 1_555 1_555
H48 C92 1_555 1_555
O29 Zn4 1_555 1_555
O30 Zn4 1_555 1_555
Ti4 O18 1_555 1_555
Zn5 O41 1_555 1_555
O31 Ti4 1_555 1_555
O32 Ti1 1_555 1_555
O33 Ti4 1_555 1_555
O34 Ti4 1_555 1_555
O35 Ti1 1_555 1_555
O36 Ti2 1_555 1_555
O37 Ti4 1_555 1_555
O38 C109 1_555 1_555
O39 C104 1_555 1_555
O40 Ti2 1_555 1_555
O41 C114 1_555 1_555
C93 O31 1_555 1_555
C94 C105 1_555 1_555
C95 C96 1_555 1_555
C96 O32 1_555 1_555
C97 C104 1_555 1_555
C98 C95 1_555 1_555
C99 C93 1_555 1_555
C100 C95 1_555 1_555
H49 C100 1_555 1_555
H50 C100 1_555 1_555
C101 C93 1_555 1_555
C102 O36 1_555 1_555
C103 C101 1_555 1_555
H51 C103 1_555 1_555
O42 C136 1_555 1_555
C104 O33 1_555 1_555
C105 C108 1_555 1_555
C106 H52 1_555 1_555
C107 C103 1_555 1_555
C108 H53 1_555 1_555
H54 C108 1_555 1_555
C109 O37 1_555 1_555
C110 C98 1_555 1_555
C111 C94 1_555 1_555
H55 C111 1_555 1_555
C112 C99 1_555 1_555
C113 C102 1_555 1_555
C114 O35 1_555 1_555
C115 C98 1_555 1_555
H56 C115 1_555 1_555
C116 O34 1_555 1_555
C117 C94 1_555 1_555
C118 C97 1_555 1_555
H57 C118 1_555 1_555
C119 C96 1_555 1_555
C120 C112 1_555 1_555
H58 C120 1_555 1_555
C121 C106 1_555 1_555
H59 C121 1_555 1_555
C122 C123 1_555 1_555
C123 C106 1_555 1_555
C124 C102 1_555 1_555
C125 C110 1_555 1_555
H60 C125 1_555 1_555
C126 H61 1_555 1_555
C127 H62 1_555 1_555
C128 C115 1_555 1_555
H63 C128 1_555 1_555
C129 C107 1_555 1_555
H64 C129 1_555 1_555
C130 C120 1_555 1_555
H65 C130 1_555 1_555
C131 C117 1_555 1_555
H66 C131 1_555 1_555
C132 C122 1_555 1_555
H67 C132 1_555 1_555
C133 C110 1_555 1_555
H68 C133 1_555 1_555
C134 C111 1_555 1_555
H69 C134 1_555 1_555
C135 C121 1_555 1_555
H70 C135 1_555 1_555
C136 O40 1_555 1_555
C137 C122 1_555 1_555
H71 C137 1_555 1_555
C138 C131 1_555 1_555
H72 C138 1_555 1_555
O43 Zn5 1_555 1_555
O44 Zn5 1_555 1_555
Zn6 O39 1_555 1_555
Zn7 O25 1_555 1_555
Zn8 O8 1_555 1_555
Zn9 O24 1_555 1_555
Zn10 O38 1_555 1_555
Zn11 O30 1_555 1_555
Zn12 O44 1_555 1_555
O45 Zn2 1_555 1_555
O46 Zn4 1_555 1_555
O47 Zn5 1_555 1_555
O48 Zn1 1_555 1_555
O49 Zn1 1_555 1_555
O50 Zn3 1_555 1_555
O5 Ti3 1_555 1_555
C5 C24 1_555 1_555
C9 C17 1_555 1_555
C13 C24 1_555 1_555
C15 C20 1_555 1_555
C21 C31 1_555 1_555
C25 C26 1_555 1_555
C32 C44 1_555 1_555
C32 C45 1_555 1_555
C34 C37 1_555 1_555
C34 C38 1_555 1_555
C35 C36 1_555 1_555
C35 C41 1_555 1_555
C40 C43 1_555 1_555
C42 C46 1_555 1_555
O21 Ti4 1_555 1_555
C51 C70 1_555 1_555
C53 C54 1_555 1_555
C55 C63 1_555 1_555
C59 C70 1_555 1_555
C61 C66 1_555 1_555
C62 C67 1_555 1_555
C67 C77 1_555 1_555
C71 C72 1_555 1_555
C78 C90 1_555 1_555
C78 C91 1_555 1_555
C80 C83 1_555 1_555
C80 C84 1_555 1_555
C81 C82 1_555 1_555
C81 C87 1_555 1_555
C86 C89 1_555 1_555
C88 C92 1_555 1_555
C97 C116 1_555 1_555
C99 C100 1_555 1_555
C101 C109 1_555 1_555
C105 C116 1_555 1_555
C107 C112 1_555 1_555
C108 C113 1_555 1_555
C113 C123 1_555 1_555
C114 C119 1_555 1_555
C117 C118 1_555 1_555
C119 C125 1_555 1_555
C124 C136 1_555 1_555
C124 C137 1_555 1_555
C126 C129 1_555 1_555
C126 C130 1_555 1_555
C127 C128 1_555 1_555
C127 C133 1_555 1_555
C132 C135 1_555 1_555
C134 C138 1_555 1_555
Zn9 O50 1_555 1_555
O13 H73 1_555 1_555
O13 H74 1_555 1_555
O29 H79 1_555 1_555
O29 H80 1_555 1_555
O43 H81 1_555 1_555
O43 H82 1_555 1_555
Zn6 O9_2 1_555 1_555
O5_2 C22_2 1_555 1_555
O6_2 C10_2 1_555 1_555
O9_2 C12_2 1_555 1_555
O11_2 C22_2 1_555 1_555
C2_2 C13_2 1_555 1_555
C3_2 C4_2 1_555 1_555
C4_2 C27_2 1_555 1_555
C5_2 C12_2 1_555 1_555
C6_2 C3_2 1_555 1_555
C10_2 C21_2 1_555 1_555
C12_2 O3_2 1_555 1_555
C13_2 C16_2 1_555 1_555
C14_2 H4_2 1_555 1_555
C16_2 H5_2 1_555 1_555
H6_2 C16_2 1_555 1_555
C18_2 C6_2 1_555 1_555
C19_2 C2_2 1_555 1_555
H7_2 C19_2 1_555 1_555
C21_2 C16_2 1_555 1_555
C22_2 C27_2 1_555 1_555
C23_2 C6_2 1_555 1_555
H8_2 C23_2 1_555 1_555
C24_2 O4_2 1_555 1_555
C25_2 C2_2 1_555 1_555
C26_2 C5_2 1_555 1_555
H9_2 C26_2 1_555 1_555
C27_2 C33_2 1_555 1_555
C29_2 C14_2 1_555 1_555
H11_2 C29_2 1_555 1_555
C30_2 C31_2 1_555 1_555
C31_2 C14_2 1_555 1_555
C32_2 C10_2 1_555 1_555
C33_2 C18_2 1_555 1_555
H12_2 C33_2 1_555 1_555
C35_2 H14_2 1_555 1_555
C36_2 C23_2 1_555 1_555
H15_2 C36_2 1_555 1_555
C39_2 C25_2 1_555 1_555
H18_2 C39_2 1_555 1_555
C40_2 C30_2 1_555 1_555
H19_2 C40_2 1_555 1_555
C41_2 C18_2 1_555 1_555
H20_2 C41_2 1_555 1_555
C42_2 C19_2 1_555 1_555
H21_2 C42_2 1_555 1_555
C43_2 C29_2 1_555 1_555
H22_2 C43_2 1_555 1_555
C45_2 C30_2 1_555 1_555
H23_2 C45_2 1_555 1_555
C46_2 C39_2 1_555 1_555
H24_2 C46_2 1_555 1_555
O15_2 Zn6 1_555 1_555
O43_2 Zn10 1_555 1_555
O44_2 Zn10 1_555 1_555
Zn11 O44_2 1_555 1_555
O48_2 Zn6 1_555 1_555
C5_2 C24_2 1_555 1_555
C13_2 C24_2 1_555 1_555
C21_2 C31_2 1_555 1_555
C25_2 C26_2 1_555 1_555
C32_2 C45_2 1_555 1_555
C35_2 C36_2 1_555 1_555
C35_2 C41_2 1_555 1_555
C40_2 C43_2 1_555 1_555
C42_2 C46_2 1_555 1_555
O43_2 H81_2 1_555 1_555
O43_2 H82_2 1_555 1_555
Ti1_2 O1_2 1_555 1_555
O1_2 C1_2 1_555 1_555
O7_2 Ti1_2 1_555 1_555
O8_2 C17_2 1_555 1_555
C1_2 C7_2 1_555 1_555
C7_2 C8_2 1_555 1_555
H1_2 C8_2 1_555 1_555
H2_2 C8_2 1_555 1_555
C9_2 C1_2 1_555 1_555
C11_2 C9_2 1_555 1_555
H3_2 C11_2 1_555 1_555
C15_2 C11_2 1_555 1_555
C17_2 O7_2 1_555 1_555
C20_2 C7_2 1_555 1_555
C28_2 C20_2 1_555 1_555
H10_2 C28_2 1_555 1_555
C34_2 H13_2 1_555 1_555
C37_2 C15_2 1_555 1_555
H16_2 C37_2 1_555 1_555
C38_2 C28_2 1_555 1_555
H17_2 C38_2 1_555 1_555
Ti3_2 O2_2 1_555 1_555
O17_2 Ti3_2 1_555 1_555
O23_2 Ti3_2 1_555 1_555
O24_2 C63_2 1_555 1_555
C47_2 O17_2 1_555 1_555
C53_2 C47_2 1_555 1_555
H25_2 C54_2 1_555 1_555
H26_2 C54_2 1_555 1_555
C55_2 C47_2 1_555 1_555
C57_2 C55_2 1_555 1_555
H27_2 C57_2 1_555 1_555
C61_2 C57_2 1_555 1_555
C63_2 O23_2 1_555 1_555
C66_2 C53_2 1_555 1_555
C74_2 C66_2 1_555 1_555
H34_2 C74_2 1_555 1_555
C80_2 H37_2 1_555 1_555
C83_2 C61_2 1_555 1_555
H40_2 C83_2 1_555 1_555
C84_2 C74_2 1_555 1_555
H41_2 C84_2 1_555 1_555
Ti4_2 O18_2 1_555 1_555
O31_2 Ti4_2 1_555 1_555
O32_2 Ti1_2 1_555 1_555
O33_2 Ti4_2 1_555 1_555
O34_2 Ti4_2 1_555 1_555
O35_2 Ti1_2 1_555 1_555
O37_2 Ti4_2 1_555 1_555
O47 C109_2 1_555 1_555
O49 C104_2 1_555 1_555
O41_2 C114_2 1_555 1_555
C93_2 O31_2 1_555 1_555
C94_2 C105_2 1_555 1_555
C95_2 C96_2 1_555 1_555
C96_2 O32_2 1_555 1_555
C97_2 C104_2 1_555 1_555
C98_2 C95_2 1_555 1_555
C99_2 C93_2 1_555 1_555
C100_2 C95_2 1_555 1_555
H49_2 C100_2 1_555 1_555
H50_2 C100_2 1_555 1_555
C101_2 C93_2 1_555 1_555
C103_2 C101_2 1_555 1_555
H51_2 C103_2 1_555 1_555
C104_2 O33_2 1_555 1_555
C107_2 C103_2 1_555 1_555
C109_2 O37_2 1_555 1_555
C110_2 C98_2 1_555 1_555
C112_2 C99_2 1_555 1_555
C114_2 O35_2 1_555 1_555
C115_2 C98_2 1_555 1_555
H56_2 C115_2 1_555 1_555
C116_2 O34_2 1_555 1_555
C117_2 C94_2 1_555 1_555
C118_2 C97_2 1_555 1_555
H57_2 C118_2 1_555 1_555
C119_2 C96_2 1_555 1_555
C120_2 C112_2 1_555 1_555
H58_2 C120_2 1_555 1_555
C125_2 C110_2 1_555 1_555
H60_2 C125_2 1_555 1_555
C126_2 H61_2 1_555 1_555
C127_2 H62_2 1_555 1_555
C128_2 C115_2 1_555 1_555
H63_2 C128_2 1_555 1_555
C129_2 C107_2 1_555 1_555
H64_2 C129_2 1_555 1_555
C130_2 C120_2 1_555 1_555
H65_2 C130_2 1_555 1_555
C131_2 C117_2 1_555 1_555
H66_2 C131_2 1_555 1_555
C133_2 C110_2 1_555 1_555
H68_2 C133_2 1_555 1_555
C138_2 C131_2 1_555 1_555
Zn8_2 O8_2 1_555 1_555
Zn9_2 O24_2 1_555 1_555
C9_2 C17_2 1_555 1_555
C15_2 C20_2 1_555 1_555
C34_2 C37_2 1_555 1_555
C34_2 C38_2 1_555 1_555
C53_2 C54_2 1_555 1_555
C55_2 C63_2 1_555 1_555
C61_2 C66_2 1_555 1_555
C80_2 C83_2 1_555 1_555
C80_2 C84_2 1_555 1_555
C97_2 C116_2 1_555 1_555
C99_2 C100_2 1_555 1_555
C101_2 C109_2 1_555 1_555
C105_2 C116_2 1_555 1_555
C107_2 C112_2 1_555 1_555
C114_2 C119_2 1_555 1_555
C117_2 C118_2 1_555 1_555
C119_2 C125_2 1_555 1_555
C126_2 C129_2 1_555 1_555
C126_2 C130_2 1_555 1_555
C127_2 C128_2 1_555 1_555
C127_2 C133_2 1_555 1_555
Zn9_2 O50_2 1_555 1_555
O10_2 Ti2_2 1_555 1_555
O12_2 C44_2 1_555 1_555
C44_2 O10_2 1_555 1_555
O13_2 Zn2_2 1_555 1_555
O14_2 Zn2_2 1_555 1_555
O22_2 Ti2_2 1_555 1_555
O26_2 Ti2_2 1_555 1_555
C56_2 O22_2 1_555 1_555
O28_2 C90_2 1_555 1_555
C60_2 H28_2 1_555 1_555
C62_2 H29_2 1_555 1_555
H31_2 C65_2 1_555 1_555
C67_2 C56_2 1_555 1_555
C75_2 C60_2 1_555 1_555
H35_2 C75_2 1_555 1_555
C76_2 C77_2 1_555 1_555
C77_2 C60_2 1_555 1_555
C78_2 C56_2 1_555 1_555
C86_2 C76_2 1_555 1_555
H43_2 C86_2 1_555 1_555
C88_2 C65_2 1_555 1_555
H45_2 C88_2 1_555 1_555
C89_2 C75_2 1_555 1_555
H46_2 C89_2 1_555 1_555
C90_2 O26_2 1_555 1_555
C91_2 C76_2 1_555 1_555
H47_2 C91_2 1_555 1_555
O40_2 Ti2_2 1_555 1_555
O42_2 C136_2 1_555 1_555
C136_2 O40_2 1_555 1_555
O45_2 Zn2_2 1_555 1_555
C62_2 C67_2 1_555 1_555
C67_2 C77_2 1_555 1_555
C78_2 C90_2 1_555 1_555
C78_2 C91_2 1_555 1_555
C86_2 C89_2 1_555 1_555
O13_2 H73_2 1_555 1_555
O13_2 H74_2 1_555 1_555
Zn4_2 O27_2 1_555 1_555
O21_2 C68_2 1_555 1_555
O25_2 C58_2 1_555 1_555
O27_2 C68_2 1_555 1_555
C48_2 C59_2 1_555 1_555
C49_2 C50_2 1_555 1_555
C50_2 C73_2 1_555 1_555
C51_2 C58_2 1_555 1_555
C52_2 C49_2 1_555 1_555
C58_2 O19_2 1_555 1_555
C64_2 C52_2 1_555 1_555
C68_2 C73_2 1_555 1_555
C69_2 C52_2 1_555 1_555
H32_2 C69_2 1_555 1_555
C70_2 O20_2 1_555 1_555
C71_2 C48_2 1_555 1_555
C72_2 C51_2 1_555 1_555
H33_2 C72_2 1_555 1_555
C73_2 C79_2 1_555 1_555
C79_2 C64_2 1_555 1_555
H36_2 C79_2 1_555 1_555
C81_2 H38_2 1_555 1_555
C82_2 C69_2 1_555 1_555
H39_2 C82_2 1_555 1_555
C85_2 C71_2 1_555 1_555
H42_2 C85_2 1_555 1_555
C87_2 C64_2 1_555 1_555
H44_2 C87_2 1_555 1_555
C92_2 C85_2 1_555 1_555
O29_2 Zn4_2 1_555 1_555
O30_2 Zn4_2 1_555 1_555
C102_2 O36_2 1_555 1_555
C106_2 H52_2 1_555 1_555
C108_2 H53_2 1_555 1_555
H55_2 C111_2 1_555 1_555
C113_2 C102_2 1_555 1_555
C121_2 C106_2 1_555 1_555
H59_2 C121_2 1_555 1_555
C122_2 C123_2 1_555 1_555
C123_2 C106_2 1_555 1_555
C124_2 C102_2 1_555 1_555
C132_2 C122_2 1_555 1_555
H67_2 C132_2 1_555 1_555
C134_2 C111_2 1_555 1_555
H69_2 C134_2 1_555 1_555
C135_2 C121_2 1_555 1_555
H70_2 C135_2 1_555 1_555
C137_2 C122_2 1_555 1_555
H71_2 C137_2 1_555 1_555
Zn7_2 O25_2 1_555 1_555
O46_2 Zn4_2 1_555 1_555
C51_2 C70_2 1_555 1_555
C59_2 C70_2 1_555 1_555
C71_2 C72_2 1_555 1_555
C81_2 C82_2 1_555 1_555
C81_2 C87_2 1_555 1_555
C108_2 C113_2 1_555 1_555
C113_2 C123_2 1_555 1_555
C124_2 C137_2 1_555 1_555
C132_2 C135_2 1_555 1_555
O29_2 H79_2 1_555 1_555
O29_2 H80_2 1_555 1_555
O29_3 Zn9 1_555 1_555
O39_2 C104_3 1_555 1_555
O41_3 C114_3 1_555 1_555
C94_3 C105_3 1_555 1_555
C95_3 C96_3 1_555 1_555
C97_3 C104_3 1_555 1_555
C98_3 C95_3 1_555 1_555
C102_3 O36_3 1_555 1_555
C104_3 O33_3 1_555 1_555
C105_3 C108_3 1_555 1_555
C106_3 H52_3 1_555 1_555
C108_3 H53_3 1_555 1_555
H54_3 C108_3 1_555 1_555
C110_3 C98_3 1_555 1_555
C111_3 C94_3 1_555 1_555
H55_3 C111_3 1_555 1_555
C113_3 C102_3 1_555 1_555
C114_3 O35_3 1_555 1_555
C115_3 C98_3 1_555 1_555
H56_3 C115_3 1_555 1_555
C116_3 O34_3 1_555 1_555
C117_3 C94_3 1_555 1_555
C118_3 C97_3 1_555 1_555
H57_3 C118_3 1_555 1_555
C119_3 C96_3 1_555 1_555
C121_3 C106_3 1_555 1_555
H59_3 C121_3 1_555 1_555
C122_3 C123_3 1_555 1_555
C123_3 C106_3 1_555 1_555
C124_3 C102_3 1_555 1_555
C125_3 C110_3 1_555 1_555
H60_3 C125_3 1_555 1_555
C127_3 H62_3 1_555 1_555
C128_3 C115_3 1_555 1_555
H63_3 C128_3 1_555 1_555
C131_3 C117_3 1_555 1_555
H66_3 C131_3 1_555 1_555
C132_3 C122_3 1_555 1_555
H67_3 C132_3 1_555 1_555
C133_3 C110_3 1_555 1_555
H68_3 C133_3 1_555 1_555
C134_3 C111_3 1_555 1_555
H69_3 C134_3 1_555 1_555
C135_3 C121_3 1_555 1_555
H70_3 C135_3 1_555 1_555
C137_3 C122_3 1_555 1_555
H71_3 C137_3 1_555 1_555
C138_3 C131_3 1_555 1_555
H72_3 C138_3 1_555 1_555
Zn7 O39_2 1_555 1_555
C97_3 C116_3 1_555 1_555
C105_3 C116_3 1_555 1_555
C108_3 C113_3 1_555 1_555
C113_3 C123_3 1_555 1_555
C114_3 C119_3 1_555 1_555
C117_3 C118_3 1_555 1_555
C119_3 C125_3 1_555 1_555
C124_3 C137_3 1_555 1_555
C127_3 C128_3 1_555 1_555
C127_3 C133_3 1_555 1_555
C132_3 C135_3 1_555 1_555
C134_3 C138_3 1_555 1_555
O29_3 H79_3 1_555 1_555
O29_3 H80_3 1_555 1_555
Ti2_3 O6_3 1_555 1_555
O6_3 C10_3 1_555 1_555
O10_3 Ti2_3 1_555 1_555
C10_3 C21_3 1_555 1_555
O12_3 C44_3 1_555 1_555
C14_3 H4_3 1_555 1_555
C16_3 H5_3 1_555 1_555
H7_3 C19_3 1_555 1_555
C21_3 C16_3 1_555 1_555
C29_3 C14_3 1_555 1_555
H11_3 C29_3 1_555 1_555
C30_3 C31_3 1_555 1_555
C31_3 C14_3 1_555 1_555
C32_3 C10_3 1_555 1_555
C40_3 C30_3 1_555 1_555
H19_3 C40_3 1_555 1_555
C42_3 C19_3 1_555 1_555
H21_3 C42_3 1_555 1_555
C43_3 C29_3 1_555 1_555
H22_3 C43_3 1_555 1_555
C44_3 O10_3 1_555 1_555
C45_3 C30_3 1_555 1_555
H23_3 C45_3 1_555 1_555
O26_3 Ti2_3 1_555 1_555
O28_3 C90_3 1_555 1_555
C90_3 O26_3 1_555 1_555
O40_3 Ti2_3 1_555 1_555
O42_3 C136_3 1_555 1_555
C136_3 O40_3 1_555 1_555
O43_3 Zn5_2 1_555 1_555
O51_2 Zn5_2 1_555 1_555
O47_2 Zn5_2 1_555 1_555
C21_3 C31_3 1_555 1_555
C32_3 C44_3 1_555 1_555
C32_3 C45_3 1_555 1_555
C40_3 C43_3 1_555 1_555
O43_3 H81_3 1_555 1_555
O43_3 H82_3 1_555 1_555
Ti1_3 O1_3 1_555 1_555
O1_3 C1_3 1_555 1_555
O7_3 Ti1_3 1_555 1_555
O45_2 C17_3 1_555 1_555
C1_3 C7_3 1_555 1_555
C7_3 C8_3 1_555 1_555
H1_3 C8_3 1_555 1_555
H2_3 C8_3 1_555 1_555
C9_3 C1_3 1_555 1_555
C11_3 C9_3 1_555 1_555
H3_3 C11_3 1_555 1_555
C15_3 C11_3 1_555 1_555
C17_3 O7_3 1_555 1_555
C20_3 C7_3 1_555 1_555
C28_3 C20_3 1_555 1_555
H10_3 C28_3 1_555 1_555
C34_3 H13_3 1_555 1_555
C37_3 C15_3 1_555 1_555
H16_3 C37_3 1_555 1_555
C38_3 C28_3 1_555 1_555
H17_3 C38_3 1_555 1_555
Ti3_3 O2_3 1_555 1_555
O17_3 Ti3_3 1_555 1_555
O18_3 C50_3 1_555 1_555
O19_3 Ti3_3 1_555 1_555
O20_3 Ti3_3 1_555 1_555
O21_3 C68_3 1_555 1_555
O23_3 Ti3_3 1_555 1_555
O46 C63_3 1_555 1_555
O48_2 C58_3 1_555 1_555
O27_3 C68_3 1_555 1_555
C47_3 O17_3 1_555 1_555
C48_3 C59_3 1_555 1_555
C49_3 C50_3 1_555 1_555
C50_3 C73_3 1_555 1_555
C51_3 C58_3 1_555 1_555
C52_3 C49_3 1_555 1_555
C53_3 C47_3 1_555 1_555
C54_3 C49_3 1_555 1_555
H25_3 C54_3 1_555 1_555
H26_3 C54_3 1_555 1_555
C55_3 C47_3 1_555 1_555
C57_3 C55_3 1_555 1_555
H27_3 C57_3 1_555 1_555
C58_3 O19_3 1_555 1_555
C61_3 C57_3 1_555 1_555
C63_3 O23_3 1_555 1_555
C64_3 C52_3 1_555 1_555
C66_3 C53_3 1_555 1_555
C68_3 C73_3 1_555 1_555
C69_3 C52_3 1_555 1_555
H32_3 C69_3 1_555 1_555
C70_3 O20_3 1_555 1_555
C71_3 C48_3 1_555 1_555
C72_3 C51_3 1_555 1_555
H33_3 C72_3 1_555 1_555
C73_3 C79_3 1_555 1_555
C74_3 C66_3 1_555 1_555
H34_3 C74_3 1_555 1_555
C79_3 C64_3 1_555 1_555
H36_3 C79_3 1_555 1_555
C80_3 H37_3 1_555 1_555
C81_3 H38_3 1_555 1_555
C82_3 C69_3 1_555 1_555
H39_3 C82_3 1_555 1_555
C83_3 C61_3 1_555 1_555
H40_3 C83_3 1_555 1_555
C84_3 C74_3 1_555 1_555
H41_3 C84_3 1_555 1_555
C85_3 C71_3 1_555 1_555
H42_3 C85_3 1_555 1_555
C87_3 C64_3 1_555 1_555
H44_3 C87_3 1_555 1_555
C92_3 C85_3 1_555 1_555
Ti4_3 O18_3 1_555 1_555
O31_3 Ti4_3 1_555 1_555
O32_3 Ti1_3 1_555 1_555
O37_3 Ti4_3 1_555 1_555
O38_2 C109_3 1_555 1_555
C93_3 O31_3 1_555 1_555
C99_3 C93_3 1_555 1_555
H49_3 C100_3 1_555 1_555
H50_3 C100_3 1_555 1_555
C101_3 C93_3 1_555 1_555
C103_3 C101_3 1_555 1_555
H51_3 C103_3 1_555 1_555
C107_3 C103_3 1_555 1_555
C109_3 O37_3 1_555 1_555
C112_3 C99_3 1_555 1_555
C120_3 C112_3 1_555 1_555
H58_3 C120_3 1_555 1_555
C126_3 H61_3 1_555 1_555
C129_3 C107_3 1_555 1_555
H64_3 C129_3 1_555 1_555
C130_3 C120_3 1_555 1_555
H65_3 C130_3 1_555 1_555
Zn10_2 O38_2 1_555 1_555
C9_3 C17_3 1_555 1_555
C15_3 C20_3 1_555 1_555
C34_3 C37_3 1_555 1_555
C34_3 C38_3 1_555 1_555
O21_3 Ti4_3 1_555 1_555
C51_3 C70_3 1_555 1_555
C53_3 C54_3 1_555 1_555
C55_3 C63_3 1_555 1_555
C59_3 C70_3 1_555 1_555
C61_3 C66_3 1_555 1_555
C71_3 C72_3 1_555 1_555
C80_3 C83_3 1_555 1_555
C80_3 C84_3 1_555 1_555
C81_3 C82_3 1_555 1_555
C81_3 C87_3 1_555 1_555
C99_3 C100_3 1_555 1_555
C101_3 C109_3 1_555 1_555
C107_3 C112_3 1_555 1_555
C126_3 C129_3 1_555 1_555
C126_3 C130_3 1_555 1_555
Zn7_2 O9_3 1_555 1_555
Zn8_2 O11_3 1_555 1_555
O5_3 C22_3 1_555 1_555
O9_3 C12_3 1_555 1_555
O11_3 C22_3 1_555 1_555
C2_3 C13_3 1_555 1_555
C3_3 C4_3 1_555 1_555
C4_3 C27_3 1_555 1_555
C5_3 C12_3 1_555 1_555
C6_3 C3_3 1_555 1_555
C12_3 O3_3 1_555 1_555
C18_3 C6_3 1_555 1_555
C22_3 C27_3 1_555 1_555
C23_3 C6_3 1_555 1_555
H8_3 C23_3 1_555 1_555
C24_3 O4_3 1_555 1_555
C25_3 C2_3 1_555 1_555
C26_3 C5_3 1_555 1_555
H9_3 C26_3 1_555 1_555
C27_3 C33_3 1_555 1_555
C33_3 C18_3 1_555 1_555
H12_3 C33_3 1_555 1_555
C35_3 H14_3 1_555 1_555
C36_3 C23_3 1_555 1_555
H15_3 C36_3 1_555 1_555
C39_3 C25_3 1_555 1_555
H18_3 C39_3 1_555 1_555
C41_3 C18_3 1_555 1_555
H20_3 C41_3 1_555 1_555
C46_3 C39_3 1_555 1_555
O13_3 Zn8_2 1_555 1_555
O14_3 Zn8_2 1_555 1_555
O15_3 Zn7_2 1_555 1_555
C56_3 O22_3 1_555 1_555
C60_3 H28_3 1_555 1_555
C62_3 H29_3 1_555 1_555
H31_3 C65_3 1_555 1_555
C67_3 C56_3 1_555 1_555
C75_3 C60_3 1_555 1_555
H35_3 C75_3 1_555 1_555
C76_3 C77_3 1_555 1_555
C77_3 C60_3 1_555 1_555
C78_3 C56_3 1_555 1_555
C86_3 C76_3 1_555 1_555
H43_3 C86_3 1_555 1_555
C88_3 C65_3 1_555 1_555
H45_3 C88_3 1_555 1_555
C89_3 C75_3 1_555 1_555
H46_3 C89_3 1_555 1_555
C91_3 C76_3 1_555 1_555
H47_3 C91_3 1_555 1_555
O49_2 Zn7_2 1_555 1_555
C5_3 C24_3 1_555 1_555
C13_3 C24_3 1_555 1_555
C25_3 C26_3 1_555 1_555
C35_3 C36_3 1_555 1_555
C35_3 C41_3 1_555 1_555
C62_3 C67_3 1_555 1_555
C67_3 C77_3 1_555 1_555
C78_3 C91_3 1_555 1_555
C86_3 C89_3 1_555 1_555
O13_3 H73_3 1_555 1_555
O13_3 H74_3 1_555 1_555
Zn12 O14_4 1_555 1_555
O13_4 Zn8 1_555 1_555
O14_4 Zn8 1_555 1_555
O21_4 C68_4 1_555 1_555
O48 C58_4 1_555 1_555
O27_4 C68_4 1_555 1_555
C48_4 C59_4 1_555 1_555
C49_4 C50_4 1_555 1_555
C50_4 C73_4 1_555 1_555
C51_4 C58_4 1_555 1_555
C52_4 C49_4 1_555 1_555
C56_4 O22_4 1_555 1_555
C58_4 O19_4 1_555 1_555
C59_4 C62_4 1_555 1_555
C60_4 H28_4 1_555 1_555
C62_4 H29_4 1_555 1_555
H30_4 C62_4 1_555 1_555
C64_4 C52_4 1_555 1_555
C65_4 C48_4 1_555 1_555
H31_4 C65_4 1_555 1_555
C67_4 C56_4 1_555 1_555
C68_4 C73_4 1_555 1_555
C69_4 C52_4 1_555 1_555
H32_4 C69_4 1_555 1_555
C70_4 O20_4 1_555 1_555
C71_4 C48_4 1_555 1_555
C72_4 C51_4 1_555 1_555
H33_4 C72_4 1_555 1_555
C73_4 C79_4 1_555 1_555
C75_4 C60_4 1_555 1_555
H35_4 C75_4 1_555 1_555
C76_4 C77_4 1_555 1_555
C77_4 C60_4 1_555 1_555
C78_4 C56_4 1_555 1_555
C79_4 C64_4 1_555 1_555
H36_4 C79_4 1_555 1_555
C81_4 H38_4 1_555 1_555
C82_4 C69_4 1_555 1_555
H39_4 C82_4 1_555 1_555
C85_4 C71_4 1_555 1_555
H42_4 C85_4 1_555 1_555
C86_4 C76_4 1_555 1_555
H43_4 C86_4 1_555 1_555
C87_4 C64_4 1_555 1_555
H44_4 C87_4 1_555 1_555
C88_4 C65_4 1_555 1_555
H45_4 C88_4 1_555 1_555
C89_4 C75_4 1_555 1_555
H46_4 C89_4 1_555 1_555
C91_4 C76_4 1_555 1_555
H47_4 C91_4 1_555 1_555
C92_4 C85_4 1_555 1_555
H48_4 C92_4 1_555 1_555
C51_4 C70_4 1_555 1_555
C59_4 C70_4 1_555 1_555
C62_4 C67_4 1_555 1_555
C67_4 C77_4 1_555 1_555
C71_4 C72_4 1_555 1_555
C78_4 C91_4 1_555 1_555
C81_4 C82_4 1_555 1_555
C81_4 C87_4 1_555 1_555
C86_4 C89_4 1_555 1_555
C88_4 C92_4 1_555 1_555
O13_4 H73_4 1_555 1_555
O13_4 H74_4 1_555 1_555
O10_4 Ti2_4 1_555 1_555
O12_4 C44_4 1_555 1_555
C44_4 O10_4 1_555 1_555
O26_4 Ti2_4 1_555 1_555
O28_4 C90_4 1_555 1_555
C90_4 O26_4 1_555 1_555
O29_4 Zn9_2 1_555 1_555
O36_4 Ti2_4 1_555 1_555
O40_4 Ti2_4 1_555 1_555
C102_4 O36_4 1_555 1_555
O42_4 C136_4 1_555 1_555
C106_4 H52_4 1_555 1_555
C108_4 H53_4 1_555 1_555
H55_4 C111_4 1_555 1_555
C113_4 C102_4 1_555 1_555
C121_4 C106_4 1_555 1_555
H59_4 C121_4 1_555 1_555
C122_4 C123_4 1_555 1_555
C123_4 C106_4 1_555 1_555
C124_4 C102_4 1_555 1_555
C132_4 C122_4 1_555 1_555
H67_4 C132_4 1_555 1_555
C134_4 C111_4 1_555 1_555
H69_4 C134_4 1_555 1_555
C135_4 C121_4 1_555 1_555
H70_4 C135_4 1_555 1_555
C136_4 O40_4 1_555 1_555
C137_4 C122_4 1_555 1_555
H71_4 C137_4 1_555 1_555
C108_4 C113_4 1_555 1_555
C113_4 C123_4 1_555 1_555
C124_4 C136_4 1_555 1_555
C124_4 C137_4 1_555 1_555
C132_4 C135_4 1_555 1_555
O29_4 H79_4 1_555 1_555
O29_4 H80_4 1_555 1_555
Zn7 O9_4 1_555 1_555
Ti1_4 O1_4 1_555 1_555
O1_4 C1_4 1_555 1_555
O2_4 C4_4 1_555 1_555
O3_4 Ti1_4 1_555 1_555
O4_4 Ti1_4 1_555 1_555
O5_4 C22_4 1_555 1_555
O7_4 Ti1_4 1_555 1_555
O45 C17_4 1_555 1_555
O9_4 C12_4 1_555 1_555
O11_4 C22_4 1_555 1_555
C1_4 C7_4 1_555 1_555
C2_4 C13_4 1_555 1_555
C3_4 C4_4 1_555 1_555
C4_4 C27_4 1_555 1_555
C5_4 C12_4 1_555 1_555
C6_4 C3_4 1_555 1_555
C7_4 C8_4 1_555 1_555
C8_4 C3_4 1_555 1_555
H1_4 C8_4 1_555 1_555
H2_4 C8_4 1_555 1_555
C9_4 C1_4 1_555 1_555
C11_4 C9_4 1_555 1_555
H3_4 C11_4 1_555 1_555
C12_4 O3_4 1_555 1_555
C15_4 C11_4 1_555 1_555
C17_4 O7_4 1_555 1_555
C18_4 C6_4 1_555 1_555
C20_4 C7_4 1_555 1_555
C22_4 C27_4 1_555 1_555
C23_4 C6_4 1_555 1_555
H8_4 C23_4 1_555 1_555
C24_4 O4_4 1_555 1_555
C25_4 C2_4 1_555 1_555
C26_4 C5_4 1_555 1_555
H9_4 C26_4 1_555 1_555
C27_4 C33_4 1_555 1_555
C28_4 C20_4 1_555 1_555
H10_4 C28_4 1_555 1_555
C33_4 C18_4 1_555 1_555
H12_4 C33_4 1_555 1_555
C34_4 H13_4 1_555 1_555
C35_4 H14_4 1_555 1_555
C36_4 C23_4 1_555 1_555
H15_4 C36_4 1_555 1_555
C37_4 C15_4 1_555 1_555
H16_4 C37_4 1_555 1_555
C38_4 C28_4 1_555 1_555
H17_4 C38_4 1_555 1_555
C39_4 C25_4 1_555 1_555
H18_4 C39_4 1_555 1_555
C41_4 C18_4 1_555 1_555
H20_4 C41_4 1_555 1_555
C46_4 C39_4 1_555 1_555
O15_4 Zn7 1_555 1_555
Ti3_4 O2_4 1_555 1_555
O17_4 Ti3_4 1_555 1_555
O23_4 Ti3_4 1_555 1_555
O46_2 C63_4 1_555 1_555
C47_4 O17_4 1_555 1_555
C53_4 C47_4 1_555 1_555
H25_4 C54_4 1_555 1_555
H26_4 C54_4 1_555 1_555
C55_4 C47_4 1_555 1_555
C57_4 C55_4 1_555 1_555
H27_4 C57_4 1_555 1_555
C61_4 C57_4 1_555 1_555
C63_4 O23_4 1_555 1_555
C66_4 C53_4 1_555 1_555
C74_4 C66_4 1_555 1_555
H34_4 C74_4 1_555 1_555
C80_4 H37_4 1_555 1_555
C83_4 C61_4 1_555 1_555
H40_4 C83_4 1_555 1_555
C84_4 C74_4 1_555 1_555
H41_4 C84_4 1_555 1_555
Ti4_4 O18_4 1_555 1_555
O31_4 Ti4_4 1_555 1_555
O32_4 Ti1_4 1_555 1_555
O37_4 Ti4_4 1_555 1_555
O47_2 C109_4 1_555 1_555
C93_4 O31_4 1_555 1_555
C99_4 C93_4 1_555 1_555
H49_4 C100_4 1_555 1_555
H50_4 C100_4 1_555 1_555
C101_4 C93_4 1_555 1_555
C103_4 C101_4 1_555 1_555
H51_4 C103_4 1_555 1_555
C107_4 C103_4 1_555 1_555
C109_4 O37_4 1_555 1_555
C112_4 C99_4 1_555 1_555
C120_4 C112_4 1_555 1_555
H58_4 C120_4 1_555 1_555
C126_4 H61_4 1_555 1_555
C129_4 C107_4 1_555 1_555
H64_4 C129_4 1_555 1_555
C130_4 C120_4 1_555 1_555
H65_4 C130_4 1_555 1_555
O5_4 Ti3_4 1_555 1_555
C5_4 C24_4 1_555 1_555
C9_4 C17_4 1_555 1_555
C13_4 C24_4 1_555 1_555
C15_4 C20_4 1_555 1_555
C25_4 C26_4 1_555 1_555
C34_4 C37_4 1_555 1_555
C34_4 C38_4 1_555 1_555
C35_4 C36_4 1_555 1_555
C35_4 C41_4 1_555 1_555
C53_4 C54_4 1_555 1_555
C55_4 C63_4 1_555 1_555
C61_4 C66_4 1_555 1_555
C80_4 C83_4 1_555 1_555
C80_4 C84_4 1_555 1_555
C99_4 C100_4 1_555 1_555
C101_4 C109_4 1_555 1_555
C107_4 C112_4 1_555 1_555
C126_4 C129_4 1_555 1_555
C126_4 C130_4 1_555 1_555
O6_4 C10_4 1_555 1_555
C10_4 C21_4 1_555 1_555
C14_4 H4_4 1_555 1_555
C16_4 H5_4 1_555 1_555
H7_4 C19_4 1_555 1_555
C21_4 C16_4 1_555 1_555
C29_4 C14_4 1_555 1_555
H11_4 C29_4 1_555 1_555
C30_4 C31_4 1_555 1_555
C31_4 C14_4 1_555 1_555
C32_4 C10_4 1_555 1_555
C40_4 C30_4 1_555 1_555
H19_4 C40_4 1_555 1_555
C42_4 C19_4 1_555 1_555
H21_4 C42_4 1_555 1_555
C43_4 C29_4 1_555 1_555
H22_4 C43_4 1_555 1_555
C45_4 C30_4 1_555 1_555
H23_4 C45_4 1_555 1_555
Zn10_2 O41_4 1_555 1_555
O49_2 C104_4 1_555 1_555
O41_4 C114_4 1_555 1_555
C94_4 C105_4 1_555 1_555
C95_4 C96_4 1_555 1_555
C97_4 C104_4 1_555 1_555
C98_4 C95_4 1_555 1_555
C104_4 O33_4 1_555 1_555
C110_4 C98_4 1_555 1_555
C114_4 O35_4 1_555 1_555
C115_4 C98_4 1_555 1_555
H56_4 C115_4 1_555 1_555
C116_4 O34_4 1_555 1_555
C117_4 C94_4 1_555 1_555
C118_4 C97_4 1_555 1_555
H57_4 C118_4 1_555 1_555
C119_4 C96_4 1_555 1_555
C125_4 C110_4 1_555 1_555
H60_4 C125_4 1_555 1_555
C127_4 H62_4 1_555 1_555
C128_4 C115_4 1_555 1_555
H63_4 C128_4 1_555 1_555
C131_4 C117_4 1_555 1_555
H66_4 C131_4 1_555 1_555
C133_4 C110_4 1_555 1_555
H68_4 C133_4 1_555 1_555
C138_4 C131_4 1_555 1_555
O43_4 Zn10_2 1_555 1_555
O51 Zn10_2 1_555 1_555
C21_4 C31_4 1_555 1_555
C32_4 C45_4 1_555 1_555
C40_4 C43_4 1_555 1_555
C97_4 C116_4 1_555 1_555
C105_4 C116_4 1_555 1_555
C114_4 C119_4 1_555 1_555
C117_4 C118_4 1_555 1_555
C119_4 C125_4 1_555 1_555
C127_4 C128_4 1_555 1_555
C127_4 C133_4 1_555 1_555
O43_4 H81_4 1_555 1_555
O43_4 H82_4 1_555 1_555

#END
