
###############################################################################
#
# This file contains modified crystal structure data generated from the
# MOF subset of the Cambridge Structural Database (CSD) v543 
# hosted by the Cambridge Crystallographic Data Centre (CCDC).
#
# This work is licensed under the Creative Commons
# Attribution-NonCommercial-ShareAlike 4.0 International License.
# To view a copy of this license, visit
# http://creativecommons.org/licenses/by-nc-sa/4.0/
# or send a letter to
# Creative Commons, PO Box 1866, Mountain View, CA 94042, USA.
#
# CIF created using the CSD Python API on 29 September 2022
# The structure has been converted into the P1 space group
# The structure has a 3D framework
# The original CSD entry EJIQIZ is in the trigonal crystal system
# The framework has been calculated to contain at least 10.0% void space
# The void calculation uses a probe of radius 1.32A, grid spacing 0.4
# The framework is charged, counterions have been retained in the structure
#
###############################################################################

data_EJIQIZ
_chemical_formula_moiety         '(C102 H54 N6 O26 Zn6 2-)n'
_symmetry_cell_setting           triclinic
_symmetry_space_group_name_H-M   'P 1'
_symmetry_Int_Tables_number      1
_space_group_name_Hall           'P 1'
loop_
_symmetry_equiv_pos_site_id
_symmetry_equiv_pos_as_xyz
1 x,y,z
_cell_length_a                   13.0500(2)
_cell_length_b                   13.0500(2)
_cell_length_c                   16.2992(7)
_cell_angle_alpha                90
_cell_angle_beta                 90
_cell_angle_gamma                120
_cell_volume                     2403.91
loop_
_atom_site_label
_atom_site_type_symbol
_atom_site_fract_x
_atom_site_fract_y
_atom_site_fract_z
N5 N 0.0268(5) 0.6108(7) 0.1565(3)
H14 H 0.0031 0.4321 0.9598
Zn8 Zn 0.15379(7) 0.52906(10) 0.82290(5)
Zn1 Zn 0.62473(7) 0.15379(7) 0.17710(5)
O1 O 0.4778(4) 0.1100(4) 0.0937(3)
O2 O 0.4805(5) 0.2803(5) 0.0734(3)
O5 O 0.6667 0.3333 0.1804(5)
C1 C 0.4689(7) 0.1827(7) 0.0507(4)
Zn2 Zn 0.84621(7) 0.47094(10) 0.17710(5)
O6 O 0.8900(4) 0.3678(6) 0.0937(3)
O7 O 0.7197(5) 0.2002(7) 0.0734(3)
C18 C 0.8173(7) 0.2862(10) 0.0507(4)
Zn3 Zn 0.52906(10) 0.37527(7) 0.17710(5)
O10 O 0.6322(6) 0.5222(4) 0.0937(3)
O11 O 0.7998(7) 0.5195(5) 0.0734(3)
C35 C 0.7138(10) 0.5311(7) 0.0507(4)
O14 O 0.4296(4) 0.2328(4) 0.2596(3)
O15 O 0.7672(4) 0.1968(6) 0.2596(3)
O16 O 0.8032(6) 0.5704(4) 0.2596(3)
O17 O 0.5311(4) 0.1365(4) 0.2788(3)
O18 O 0.8635(4) 0.3946(6) 0.2788(3)
O19 O 0.6054(6) 0.4689(4) 0.2788(3)
N6 N 0.3892(7) 0.4160(5) 0.1565(3)
N1 N 0.4160(5) 0.0268(5) 0.8435(3)
C2 C 0.4413(6) 0.1577(6) 0.9591(4)
C3 C 0.4294(7) 0.2349(7) 0.9082(4)
H1 H 0.4307 0.3015 0.9298
C4 C 0.4153(7) 0.2132(6) 0.8235(4)
C5 C 0.4052(7) 0.2901(7) 0.7677(4)
H2 H 0.4031 0.3559 0.7874
C6 C 0.3982(8) 0.2699(7) 0.6852(4)
H3 H 0.3901 0.3212 0.6498
C7 C 0.4032(6) 0.1726(6) 0.6530(4)
C8 C 0.4103(6) 0.0921(6) 0.7061(4)
H4 H 0.4140 0.0278 0.6849
C9 C 0.4120(6) 0.1085(6) 0.7924(4)
C10 C 0.4286(6) 0.0524(6) 0.9243(4)
C11 C 0.4117(7) 0.1639(6) 0.5627(4)
C12 C 0.3450(7) 0.1921(7) 0.5105(4)
H6 H 0.2894 0.2093 0.5321
C13 C 0.3612(6) 0.1945(6) 0.4271(4)
H7 H 0.3166 0.2138 0.3926
C14 C 0.4440(6) 0.1682(6) 0.3937(4)
C15 C 0.5092(6) 0.1397(6) 0.4459(4)
H8 H 0.5656 0.1234 0.4243
C16 C 0.4922(7) 0.1349(6) 0.5282(4)
H9 H 0.5346 0.1121 0.5622
C17 C 0.4695(6) 0.1789(6) 0.3030(4)
N2 N 0.9732(5) 0.3892(7) 0.8435(3)
C19 C 0.8423(6) 0.2836(8) 0.9591(4)
C20 C 0.7651(7) 0.1945(10) 0.9082(4)
H10 H 0.6985 0.1292 0.9298
C21 C 0.7868(6) 0.2021(9) 0.8235(4)
C22 C 0.7099(7) 0.1151(10) 0.7677(4)
H11 H 0.6441 0.0472 0.7874
C23 C 0.7301(7) 0.1283(11) 0.6852(4)
H12 H 0.6788 0.0689 0.6498
C24 C 0.8274(6) 0.2306(8) 0.6530(4)
C25 C 0.9079(6) 0.3182(8) 0.7061(4)
H13 H 0.9722 0.3862 0.6849
C26 C 0.8915(6) 0.3035(8) 0.7924(4)
C27 C 0.9476(6) 0.3762(8) 0.9243(4)
C28 C 0.8361(6) 0.2478(9) 0.5627(4)
C29 C 0.8079(7) 0.1529(10) 0.5105(4)
H15 H 0.7907 0.0801 0.5321
C30 C 0.8055(6) 0.1667(8) 0.4271(4)
H16 H 0.7862 0.1028 0.3926
C31 C 0.8318(6) 0.2758(8) 0.3937(4)
C32 C 0.8603(6) 0.3695(8) 0.4459(4)
H17 H 0.8766 0.4422 0.4243
C33 C 0.8651(6) 0.3573(9) 0.5282(4)
H18 H 0.8879 0.4225 0.5622
C34 C 0.8211(6) 0.2906(8) 0.3030(4)
N3 N 0.6108(7) 0.5840(5) 0.8435(3)
C36 C 0.7164(8) 0.5587(6) 0.9591(4)
C37 C 0.8055(10) 0.5706(7) 0.9082(4)
H19 H 0.8708 0.5693 0.9298
C38 C 0.7979(9) 0.5847(7) 0.8235(4)
C39 C 0.8849(10) 0.5948(7) 0.7677(4)
H20 H 0.9528 0.5969 0.7874
C40 C 0.8717(11) 0.6018(8) 0.6852(4)
H21 H 0.9311 0.6099 0.6498
C41 C 0.7694(8) 0.5968(6) 0.6530(4)
C42 C 0.6818(8) 0.5897(6) 0.7061(4)
H22 H 0.6138 0.5860 0.6849
C43 C 0.6965(8) 0.5880(6) 0.7924(4)
C44 C 0.6238(8) 0.5714(6) 0.9243(4)
H23 H 0.5679 0.5710 0.9598
C45 C 0.7522(9) 0.5883(7) 0.5627(4)
C46 C 0.8471(10) 0.6550(7) 0.5105(4)
H24 H 0.9199 0.7106 0.5321
C47 C 0.8333(8) 0.6388(6) 0.4271(4)
H25 H 0.8972 0.6834 0.3926
C48 C 0.7242(8) 0.5560(6) 0.3937(4)
C49 C 0.6305(8) 0.4908(6) 0.4459(4)
H26 H 0.5578 0.4344 0.4243
C50 C 0.6427(9) 0.5078(7) 0.5282(4)
H27 H 0.5775 0.4654 0.5622
C51 C 0.7094(8) 0.5305(6) 0.3030(4)
Zn9 Zn 0.47094(10) 0.62473(7) 0.82290(5)
N4 N 0.5840(5) 0.9732(5) 0.1565(3)
H5 H 0.4290 0.9969 0.9598
Zn7 Zn 0.37527(7) 0.84621(7) 0.82290(5)
H5_2 H 0.5710 0.0031 0.0402
O3 O 0.5704(4) 0.7672(4) 0.7404(3)
O4 O 0.4689(4) 0.8635(4) 0.7212(3)
C2_2 C 0.5587(6) 0.8423(6) 0.0409(4)
C3_2 C 0.5706(7) 0.7651(7) 0.0918(4)
H1_2 H 0.5693 0.6985 0.0702
C4_2 C 0.5847(7) 0.7868(6) 0.1765(4)
C5_2 C 0.5948(7) 0.7099(7) 0.2323(4)
H2_2 H 0.5969 0.6441 0.2126
C6_2 C 0.6018(8) 0.7301(7) 0.3148(4)
H3_2 H 0.6099 0.6788 0.3502
C7_2 C 0.5968(6) 0.8274(6) 0.3470(4)
C8_2 C 0.5897(6) 0.9079(6) 0.2939(4)
H4_2 H 0.5860 0.9722 0.3151
C9_2 C 0.5880(6) 0.8915(6) 0.2076(4)
C10_2 C 0.5714(6) 0.9476(6) 0.0757(4)
C11_2 C 0.5883(7) 0.8361(6) 0.4373(4)
C12_2 C 0.6550(7) 0.8079(7) 0.4895(4)
H6_2 H 0.7106 0.7907 0.4679
C13_2 C 0.6388(6) 0.8055(6) 0.5729(4)
H7_2 H 0.6834 0.7862 0.6074
C14_2 C 0.5560(6) 0.8318(6) 0.6063(4)
C15_2 C 0.4908(6) 0.8603(6) 0.5541(4)
H8_2 H 0.4344 0.8766 0.5757
C16_2 C 0.5078(7) 0.8651(6) 0.4718(4)
H9_2 H 0.4654 0.8879 0.4378
C17_2 C 0.5305(6) 0.8211(6) 0.6970(4)
O8 O 0.2328(4) 0.8032(6) 0.7404(3)
O9 O 0.1365(4) 0.6054(6) 0.7212(3)
C19_2 C 0.1577(6) 0.7164(8) 0.0409(4)
C20_2 C 0.2349(7) 0.8055(10) 0.0918(4)
H10_2 H 0.3015 0.8708 0.0702
C21_2 C 0.2132(6) 0.7979(9) 0.1765(4)
C22_2 C 0.2901(7) 0.8849(10) 0.2323(4)
H11_2 H 0.3559 0.9528 0.2126
C23_2 C 0.2699(7) 0.8717(11) 0.3148(4)
H12_2 H 0.3212 0.9311 0.3502
C24_2 C 0.1726(6) 0.7694(8) 0.3470(4)
C25_2 C 0.0921(6) 0.6818(8) 0.2939(4)
H13_2 H 0.0278 0.6138 0.3151
C26_2 C 0.1085(6) 0.6965(8) 0.2076(4)
C27_2 C 0.0524(6) 0.6238(8) 0.0757(4)
C28_2 C 0.1639(6) 0.7522(9) 0.4373(4)
C29_2 C 0.1921(7) 0.8471(10) 0.4895(4)
H15_2 H 0.2093 0.9199 0.4679
C30_2 C 0.1945(6) 0.8333(8) 0.5729(4)
H16_2 H 0.2138 0.8972 0.6074
C31_2 C 0.1682(6) 0.7242(8) 0.6063(4)
C32_2 C 0.1397(6) 0.6305(8) 0.5541(4)
H17_2 H 0.1234 0.5578 0.5757
C33_2 C 0.1349(6) 0.6427(9) 0.4718(4)
H18_2 H 0.1121 0.5775 0.4378
C34_2 C 0.1789(6) 0.7094(8) 0.6970(4)
O12 O 0.1968(6) 0.4296(4) 0.7404(3)
O13 O 0.3946(6) 0.5311(4) 0.7212(3)
C36_2 C 0.2836(8) 0.4413(6) 0.0409(4)
C37_2 C 0.1945(10) 0.4294(7) 0.0918(4)
H19_2 H 0.1292 0.4307 0.0702
C38_2 C 0.2021(9) 0.4153(7) 0.1765(4)
C39_2 C 0.1151(10) 0.4052(7) 0.2323(4)
H20_2 H 0.0472 0.4031 0.2126
C40_2 C 0.1283(11) 0.3982(8) 0.3148(4)
H21_2 H 0.0689 0.3901 0.3502
C41_2 C 0.2306(8) 0.4032(6) 0.3470(4)
C42_2 C 0.3182(8) 0.4103(6) 0.2939(4)
H22_2 H 0.3862 0.4140 0.3151
C43_2 C 0.3035(8) 0.4120(6) 0.2076(4)
C44_2 C 0.3762(8) 0.4286(6) 0.0757(4)
H23_2 H 0.4321 0.4290 0.0402
C45_2 C 0.2478(9) 0.4117(7) 0.4373(4)
C46_2 C 0.1529(10) 0.3450(7) 0.4895(4)
H24_2 H 0.0801 0.2894 0.4679
C47_2 C 0.1667(8) 0.3612(6) 0.5729(4)
H25_2 H 0.1028 0.3166 0.6074
C48_2 C 0.2758(8) 0.4440(6) 0.6063(4)
C49_2 C 0.3695(8) 0.5092(6) 0.5541(4)
H26_2 H 0.4422 0.5656 0.5757
C50_2 C 0.3573(9) 0.4922(7) 0.4718(4)
H27_2 H 0.4225 0.5346 0.4378
C51_2 C 0.2906(8) 0.4695(6) 0.6970(4)
O1_2 O 0.5222(4) 0.8900(4) 0.9063(3)
O2_2 O 0.5195(5) 0.7197(5) 0.9266(3)
O5_2 O 0.3333 0.6667 0.8196(5)
C1_2 C 0.5311(7) 0.8173(7) 0.9493(4)
O6_2 O 0.1100(4) 0.6322(6) 0.9063(3)
O7_2 O 0.2803(5) 0.7998(7) 0.9266(3)
C18_2 C 0.1827(7) 0.7138(10) 0.9493(4)
O10_2 O 0.3678(6) 0.4778(4) 0.9063(3)
O11_2 O 0.2002(7) 0.4805(5) 0.9266(3)
C35_2 C 0.2862(10) 0.4689(7) 0.9493(4)
H14_2 H 0.9969 0.5679 0.0402
loop_
_geom_bond_atom_site_label_1
_geom_bond_atom_site_label_2
_geom_bond_site_symmetry_1
_geom_bond_site_symmetry_2
Zn1 O1 1_555 1_555
O1 C1 1_555 1_555
O2 C1 1_555 1_555
O5 Zn1 1_555 1_555
Zn2 O5 1_555 1_555
O6 Zn2 1_555 1_555
O7 Zn1 1_555 1_555
C18 O6 1_555 1_555
Zn3 O2 1_555 1_555
O10 Zn3 1_555 1_555
O11 Zn2 1_555 1_555
C35 O10 1_555 1_555
O14 Zn3 1_555 1_555
O15 Zn1 1_555 1_555
O16 Zn2 1_555 1_555
O17 Zn1 1_555 1_555
O18 Zn2 1_555 1_555
O19 Zn3 1_555 1_555
N6 Zn3 1_555 1_555
O5 Zn3 1_555 1_555
O7 C18 1_555 1_555
O11 C35 1_555 1_555
O14 C17 1_555 1_555
O17 C17 1_555 1_555
N1 C9 1_555 1_555
C2 C3 1_555 1_555
C3 H1 1_555 1_555
C4 C3 1_555 1_555
C5 C4 1_555 1_555
H2 C5 1_555 1_555
C6 C5 1_555 1_555
H3 C6 1_555 1_555
C7 C6 1_555 1_555
C8 C7 1_555 1_555
H4 C8 1_555 1_555
C9 C4 1_555 1_555
C10 N1 1_555 1_555
C11 C7 1_555 1_555
C12 C11 1_555 1_555
H6 C12 1_555 1_555
C13 C12 1_555 1_555
H7 C13 1_555 1_555
C14 C13 1_555 1_555
C15 C14 1_555 1_555
H8 C15 1_555 1_555
C16 C11 1_555 1_555
H9 C16 1_555 1_555
C17 C14 1_555 1_555
O15 C34 1_555 1_555
O18 C34 1_555 1_555
N2 C26 1_555 1_555
C20 C19 1_555 1_555
H10 C20 1_555 1_555
C21 C20 1_555 1_555
C22 C21 1_555 1_555
H11 C22 1_555 1_555
C23 C22 1_555 1_555
H12 C23 1_555 1_555
C24 C23 1_555 1_555
C25 C24 1_555 1_555
H13 C25 1_555 1_555
C26 C21 1_555 1_555
C27 N2 1_555 1_555
C28 C24 1_555 1_555
C29 C28 1_555 1_555
H15 C29 1_555 1_555
C30 C29 1_555 1_555
H16 C30 1_555 1_555
C31 C30 1_555 1_555
C32 C31 1_555 1_555
H17 C32 1_555 1_555
C33 C28 1_555 1_555
H18 C33 1_555 1_555
C34 C31 1_555 1_555
O16 C51 1_555 1_555
O19 C51 1_555 1_555
N3 C43 1_555 1_555
C37 C36 1_555 1_555
H19 C37 1_555 1_555
C38 C37 1_555 1_555
C39 C38 1_555 1_555
H20 C39 1_555 1_555
C40 C39 1_555 1_555
H21 C40 1_555 1_555
C41 C40 1_555 1_555
C42 C41 1_555 1_555
H22 C42 1_555 1_555
C43 C38 1_555 1_555
C44 N3 1_555 1_555
H23 C44 1_555 1_555
C45 C41 1_555 1_555
C46 C45 1_555 1_555
H24 C46 1_555 1_555
C47 C46 1_555 1_555
H25 C47 1_555 1_555
C48 C47 1_555 1_555
C49 C48 1_555 1_555
H26 C49 1_555 1_555
C50 C45 1_555 1_555
H27 C50 1_555 1_555
C51 C48 1_555 1_555
Zn9 N3 1_555 1_555
C2 C10 1_555 1_555
C8 C9 1_555 1_555
C15 C16 1_555 1_555
C19 C27 1_555 1_555
C25 C26 1_555 1_555
C32 C33 1_555 1_555
C36 C44 1_555 1_555
C42 C43 1_555 1_555
C49 C50 1_555 1_555
O3 C17_2 1_555 1_555
O4 C17_2 1_555 1_555
N4 C9_2 1_555 1_555
C2_2 C3_2 1_555 1_555
C3_2 H1_2 1_555 1_555
C4_2 C3_2 1_555 1_555
C5_2 C4_2 1_555 1_555
H2_2 C5_2 1_555 1_555
C6_2 C5_2 1_555 1_555
H3_2 C6_2 1_555 1_555
C7_2 C6_2 1_555 1_555
C8_2 C7_2 1_555 1_555
H4_2 C8_2 1_555 1_555
C9_2 C4_2 1_555 1_555
C10_2 N4 1_555 1_555
C11_2 C7_2 1_555 1_555
C12_2 C11_2 1_555 1_555
H6_2 C12_2 1_555 1_555
C13_2 C12_2 1_555 1_555
H7_2 C13_2 1_555 1_555
C14_2 C13_2 1_555 1_555
C15_2 C14_2 1_555 1_555
H8_2 C15_2 1_555 1_555
C16_2 C11_2 1_555 1_555
H9_2 C16_2 1_555 1_555
C17_2 C14_2 1_555 1_555
O8 C34_2 1_555 1_555
O9 C34_2 1_555 1_555
N5 C26_2 1_555 1_555
C20_2 C19_2 1_555 1_555
H10_2 C20_2 1_555 1_555
C21_2 C20_2 1_555 1_555
C22_2 C21_2 1_555 1_555
H11_2 C22_2 1_555 1_555
C23_2 C22_2 1_555 1_555
H12_2 C23_2 1_555 1_555
C24_2 C23_2 1_555 1_555
C25_2 C24_2 1_555 1_555
H13_2 C25_2 1_555 1_555
C26_2 C21_2 1_555 1_555
C27_2 N5 1_555 1_555
C28_2 C24_2 1_555 1_555
C29_2 C28_2 1_555 1_555
H15_2 C29_2 1_555 1_555
C30_2 C29_2 1_555 1_555
H16_2 C30_2 1_555 1_555
C31_2 C30_2 1_555 1_555
C32_2 C31_2 1_555 1_555
H17_2 C32_2 1_555 1_555
C33_2 C28_2 1_555 1_555
H18_2 C33_2 1_555 1_555
C34_2 C31_2 1_555 1_555
O12 C51_2 1_555 1_555
O13 C51_2 1_555 1_555
N6 C43_2 1_555 1_555
C37_2 C36_2 1_555 1_555
H19_2 C37_2 1_555 1_555
C38_2 C37_2 1_555 1_555
C39_2 C38_2 1_555 1_555
H20_2 C39_2 1_555 1_555
C40_2 C39_2 1_555 1_555
H21_2 C40_2 1_555 1_555
C41_2 C40_2 1_555 1_555
C42_2 C41_2 1_555 1_555
H22_2 C42_2 1_555 1_555
C43_2 C38_2 1_555 1_555
C44_2 N6 1_555 1_555
H23_2 C44_2 1_555 1_555
C45_2 C41_2 1_555 1_555
C46_2 C45_2 1_555 1_555
H24_2 C46_2 1_555 1_555
C47_2 C46_2 1_555 1_555
H25_2 C47_2 1_555 1_555
C48_2 C47_2 1_555 1_555
C49_2 C48_2 1_555 1_555
H26_2 C49_2 1_555 1_555
C50_2 C45_2 1_555 1_555
H27_2 C50_2 1_555 1_555
C51_2 C48_2 1_555 1_555
Zn7 O4 1_555 1_555
Zn8 O9 1_555 1_555
Zn9 O3 1_555 1_555
C2_2 C10_2 1_555 1_555
C8_2 C9_2 1_555 1_555
C15_2 C16_2 1_555 1_555
O8 Zn7 1_555 1_555
C19_2 C27_2 1_555 1_555
C25_2 C26_2 1_555 1_555
C32_2 C33_2 1_555 1_555
O12 Zn8 1_555 1_555
O13 Zn9 1_555 1_555
C36_2 C44_2 1_555 1_555
C42_2 C43_2 1_555 1_555
C49_2 C50_2 1_555 1_555
Zn7 O1_2 1_555 1_555
O1_2 C1_2 1_555 1_555
O2_2 C1_2 1_555 1_555
O5_2 Zn7 1_555 1_555
Zn8 O5_2 1_555 1_555
O6_2 Zn8 1_555 1_555
O7_2 Zn7 1_555 1_555
C18_2 O6_2 1_555 1_555
Zn9 O2_2 1_555 1_555
O10_2 Zn9 1_555 1_555
O11_2 Zn8 1_555 1_555
C35_2 O10_2 1_555 1_555
O5_2 Zn9 1_555 1_555
O7_2 C18_2 1_555 1_555
O11_2 C35_2 1_555 1_555

#END
