
###############################################################################
#
# This file contains modified crystal structure data generated from the
# MOF subset of the Cambridge Structural Database (CSD) v543 
# hosted by the Cambridge Crystallographic Data Centre (CCDC).
#
# This work is licensed under the Creative Commons
# Attribution-NonCommercial-ShareAlike 4.0 International License.
# To view a copy of this license, visit
# http://creativecommons.org/licenses/by-nc-sa/4.0/
# or send a letter to
# Creative Commons, PO Box 1866, Mountain View, CA 94042, USA.
#
# CIF created using the CSD Python API on 29 September 2022
# The structure has been converted into the P1 space group
# The structure has a 3D framework
# The original CSD entry EJOGOZ is in the rhombohedral crystal system
# The framework has been calculated to contain at least 10.0% void space
# The void calculation uses a probe of radius 1.32A, grid spacing 0.4
#
###############################################################################

data_EJOGOZ
_chemical_formula_moiety         '(C306 H216 Cu18 N36 O54)n'
_symmetry_cell_setting           triclinic
_symmetry_space_group_name_H-M   'P 1'
_symmetry_Int_Tables_number      1
_space_group_name_Hall           'P 1'
loop_
_symmetry_equiv_pos_site_id
_symmetry_equiv_pos_as_xyz
1 x,y,z
_cell_length_a                   32.602(2)
_cell_length_b                   32.602(2)
_cell_length_c                   10.6162(4)
_cell_angle_alpha                90
_cell_angle_beta                 90
_cell_angle_gamma                120.0
_cell_volume                     9772.11
loop_
_atom_site_label
_atom_site_type_symbol
_atom_site_fract_x
_atom_site_fract_y
_atom_site_fract_z
N1 N 0.6501(2) 0.0491(2) 0.0271(4)
C5 C 0.6360(3) 0.0799(2) 0.0400(8)
H4 H 0.659(2) 0.107(2) 0.086(6)
Cu3 Cu 0.71079(3) 0.05658(2) 0.10805(6)
O3 O 0.7586(1) 0.0543(1) 0.2055(3)
C13 C 0.7742(2) 0.0247(3) 0.1939(5)
C14 C 0.8044(3) 0.0242(4) 0.2893(7)
H9 H 0.811(3) 0.044(4) 0.360(8)
H1 H 0.371(3) 0.006(3) 0.049(8)
H2 H 0.435(3) 0.023(3) 0.145(9)
H7 H 0.475(3) 0.008(3) 0.304(7)
H8 H 0.534(2) 0.012(3) 0.412(7)
O4 O 0.6574(1) 0.0322(1) 0.3268(3)
O5 O 0.6123(1) 0.0376(1) 0.5389(3)
O1 O 0.7081(1) 0.0992(1) 0.2363(3)
C10 C 0.8043(4) 0.1426(3) 0.0091(7)
C11 C 0.6799(3) 0.0770(2) 0.3259(5)
C12 C 0.6741(3) 0.1042(2) 0.4275(5)
C13_2 C 0.6419(3) 0.0828(2) 0.5273(5)
C14_2 C 0.6424(4) 0.1135(3) 0.6227(7)
C15 C 0.6723(5) 0.1612(3) 0.6209(9)
C16 C 0.7034(4) 0.1825(3) 0.5218(9)
C17 C 0.7043(4) 0.1538(2) 0.4254(7)
H8_2 H 0.811(4) 0.133(2) 0.079(7)
H9_2 H 0.622(4) 0.100(3) 0.694(8)
H10 H 0.675(4) 0.187(3) 0.682(7)
H11 H 0.726(4) 0.217(3) 0.520(7)
H12 H 0.734(4) 0.170(3) 0.358(7)
Cu1 Cu 0.38991(2) 0.01245(2) 0.55862(6)
O1_2 O 0.4325(1) 0.0577(1) 0.4304(3)
O2 O 0.3655(1) 0.0414(1) 0.3399(3)
O3_2 O 0.3709(1) 0.0919(1) 0.1278(3)
N2 N 0.4515(2) 0.0261(2) 0.6903(4)
C1 C 0.6233(4) 0.0133(3) 0.9549(9)
C2 C 0.5840(4) 0.0077(3) 0.8932(9)
C3 C 0.5698(2) 0.0404(2) 0.9024(5)
C4 C 0.5972(3) 0.0767(3) 0.9814(8)
C6 C 0.4667(3) 0.0516(3) 0.7949(7)
C7 C 0.5038(3) 0.0569(3) 0.8668(7)
C8 C 0.5290(2) 0.0356(2) 0.8313(5)
C9 C 0.5142(3) 0.0090(3) 0.7232(7)
C10_2 C 0.4759(3) 0.0049(3) 0.6576(7)
C11_2 C 0.4103(2) 0.0637(2) 0.3408(5)
C12_2 C 0.4375(2) 0.0967(2) 0.2392(5)
C13_3 C 0.4161(2) 0.1075(2) 0.1394(5)
C14_3 C 0.4468(3) 0.1377(3) 0.0440(7)
C15_2 C 0.4945(3) 0.1555(4) 0.0458(9)
C16_2 C 0.5158(3) 0.1457(3) 0.1449(9)
C17_2 C 0.4871(2) 0.1161(3) 0.2413(7)
H3 H 0.594(3) 0.099(3) 0.983(8)
H5 H 0.448(2) 0.060(2) 0.819(6)
H6 H 0.510(2) 0.072(2) 0.935(6)
H11_2 H 0.550(3) 0.157(3) 0.147(7)
H12_2 H 0.503(3) 0.102(3) 0.309(7)
Cu2 Cu 0.32088(2) 0.04413(3) 0.22529(6)
N3 N 0.3824(2) 0.0657(3) 0.6396(4)
N1_2 N 0.3990(3) 0.3499(2) 0.0271(4)
C5_2 C 0.4439(4) 0.3640(3) 0.0400(8)
H4_2 H 0.448(3) 0.341(2) 0.086(6)
Cu3_2 Cu 0.34578(4) 0.28921(3) 0.10805(6)
N1_3 N 0.3168(2) 0.3824(2) 0.3604(4)
N2_2 N 0.1182(2) 0.3594(2) 0.0236(4)
C1_2 C 0.2900(4) 0.3466(3) 0.2882(9)
C2_2 C 0.2507(4) 0.3410(3) 0.2265(9)
C3_2 C 0.2365(2) 0.3737(2) 0.2357(5)
C4_2 C 0.2639(3) 0.4100(3) 0.3147(8)
C5_3 C 0.3027(3) 0.4132(2) 0.3733(8)
C6_2 C 0.1334(3) 0.3849(3) 0.1282(7)
C7_2 C 0.1705(3) 0.3902(3) 0.2001(7)
C8_2 C 0.1957(2) 0.3689(2) 0.1646(5)
C9_2 C 0.1809(3) 0.3423(3) 0.0565(7)
H1_2 H 0.296(3) 0.327(3) 0.284(8)
H2_2 H 0.232(3) 0.310(3) 0.188(9)
H3_2 H 0.261(3) 0.432(3) 0.316(8)
H4_3 H 0.326(2) 0.440(2) 0.419(6)
H5_2 H 0.115(2) 0.393(2) 0.152(6)
H6_2 H 0.177(2) 0.405(2) 0.268(6)
H7_2 H 0.192(3) 0.325(3) 0.029(7)
O4_2 O 0.0092(1) 0.3012(1) 0.0066(3)
Cu3_3 Cu 0.37746(3) 0.38991(2) 0.44138(6)
O1_3 O 0.3748(1) 0.4325(1) 0.5696(3)
O2_2 O 0.3241(1) 0.3655(1) 0.6601(3)
O3_3 O 0.2790(1) 0.3709(1) 0.8722(3)
N2_3 N 0.4254(3) 0.4515(2) 0.3097(4)
C1_3 C 0.6100(5) 0.6233(4) 0.0451(9)
C2_3 C 0.5763(5) 0.5840(4) 0.1068(9)
C3_3 C 0.5294(3) 0.5698(2) 0.0976(5)
C4_3 C 0.5205(4) 0.5972(3) 0.0186(8)
C6_3 C 0.4151(4) 0.4667(3) 0.2051(7)
C7_3 C 0.4469(4) 0.5038(3) 0.1332(7)
C8_3 C 0.4934(3) 0.5290(2) 0.1687(5)
C9_3 C 0.5052(4) 0.5142(3) 0.2768(7)
C10_3 C 0.4710(4) 0.4759(3) 0.3424(7)
C11_3 C 0.3466(3) 0.4103(2) 0.6592(5)
C12_3 C 0.3408(3) 0.4375(2) 0.7608(5)
C13_4 C 0.3086(3) 0.4161(2) 0.8606(5)
C14_4 C 0.3091(4) 0.4468(3) 0.9560(7)
C15_3 C 0.3390(5) 0.4945(3) 0.9542(9)
C16_3 C 0.3701(4) 0.5158(3) 0.8551(9)
C17_3 C 0.3710(4) 0.4871(2) 0.7587(7)
H1_3 H 0.635(4) 0.629(3) 0.049(8)
H2_3 H 0.588(4) 0.565(3) 0.145(9)
H3_3 H 0.495(4) 0.594(3) 0.017(8)
H5_3 H 0.388(3) 0.448(2) 0.181(6)
H6_3 H 0.438(3) 0.510(2) 0.065(6)
H7_3 H 0.533(4) 0.525(3) 0.304(7)
H8_3 H 0.478(4) 0.466(2) 0.412(7)
H11_3 H 0.393(4) 0.550(3) 0.853(7)
H12_3 H 0.401(4) 0.503(3) 0.691(7)
O4_3 O 0.3747(1) 0.3426(1) 0.3268(3)
Cu2_2 Cu 0.27676(4) 0.32088(2) 0.77471(6)
O5_2 O 0.4252(1) 0.3877(1) 0.5389(3)
O1_4 O 0.3910(1) 0.2919(1) 0.2363(3)
C10_4 C 0.3382(3) 0.1957(4) 0.0091(7)
C11_4 C 0.3970(2) 0.3201(3) 0.3259(5)
C12_4 C 0.4300(2) 0.3259(3) 0.4275(5)
C13_5 C 0.4408(2) 0.3581(3) 0.5273(5)
C14_5 C 0.4710(3) 0.3576(4) 0.6227(7)
C15_4 C 0.4888(4) 0.3277(5) 0.6209(9)
C16_4 C 0.4790(3) 0.2966(4) 0.5218(9)
C17_4 C 0.4494(3) 0.2957(4) 0.4254(7)
H8_4 H 0.321(3) 0.189(4) 0.079(7)
H9_3 H 0.477(3) 0.378(4) 0.694(8)
H10_2 H 0.511(3) 0.325(4) 0.682(7)
H11_4 H 0.490(3) 0.274(4) 0.520(7)
H12_4 H 0.435(3) 0.266(4) 0.358(7)
O5_3 O 0.2958(1) 0.2414(1) 0.2055(3)
N2_4 N 0.3594(2) 0.2413(3) 0.9764(4)
C1_4 C 0.3466(3) 0.0567(5) 0.7118(9)
C2_4 C 0.3410(3) 0.0904(5) 0.7735(9)
C3_4 C 0.3737(2) 0.1373(3) 0.7643(5)
C4_4 C 0.4100(3) 0.1462(4) 0.6853(8)
C5_4 C 0.4132(2) 0.1106(4) 0.6267(8)
C6_4 C 0.3849(3) 0.2516(4) 0.8718(7)
C7_4 C 0.3902(3) 0.2198(4) 0.7999(7)
C8_4 C 0.3689(2) 0.1733(3) 0.8354(5)
C9_4 C 0.3423(3) 0.1615(4) 0.9435(7)
H1_4 H 0.327(3) 0.032(4) 0.716(8)
H2_4 H 0.310(3) 0.079(4) 0.812(9)
H3_4 H 0.432(3) 0.172(4) 0.684(8)
H4_4 H 0.440(2) 0.115(3) 0.581(6)
H5_4 H 0.393(2) 0.279(3) 0.848(6)
H6_4 H 0.405(2) 0.229(3) 0.732(6)
H7_4 H 0.325(3) 0.134(4) 0.971(7)
O4_4 O 0.3012(1) 0.2919(1) 0.9934(3)
O1_5 O 0.2756(1) 0.0415(1) 0.0971(3)
N1_4 N 0.2842(2) 0.2677(3) 0.6938(4)
N2_5 N 0.3072(2) 0.0921(3) 0.3570(4)
C1_5 C 0.3200(3) 0.2767(5) 0.6216(9)
C2_5 C 0.3256(3) 0.2430(5) 0.5599(9)
C3_5 C 0.2929(2) 0.1961(3) 0.5691(5)
C4_5 C 0.2566(3) 0.1872(4) 0.6481(8)
C5_5 C 0.2534(2) 0.2228(4) 0.7067(8)
C6_5 C 0.2817(3) 0.0818(4) 0.4616(7)
C7_5 C 0.2764(3) 0.1136(4) 0.5335(7)
C8_5 C 0.2977(2) 0.1601(3) 0.4980(5)
C9_5 C 0.3243(3) 0.1719(4) 0.3899(7)
C10_5 C 0.3284(3) 0.1377(4) 0.3243(7)
C11_5 C 0.2696(2) 0.0133(3) 0.0075(5)
H1_5 H 0.339(3) 0.302(4) 0.618(8)
H2_5 H 0.356(3) 0.255(4) 0.522(9)
H3_5 H 0.234(3) 0.162(4) 0.650(8)
H4_5 H 0.226(2) 0.219(3) 0.753(6)
H5_5 H 0.273(2) 0.055(3) 0.486(6)
H6_5 H 0.261(2) 0.105(3) 0.602(6)
H7_5 H 0.341(3) 0.200(4) 0.363(7)
H8_5 H 0.345(3) 0.145(4) 0.255(7)
N3_2 N 0.0166(4) 0.2842(2) 0.3062(4)
C12_5 C 0.2292(2) 0.2366(2) 0.0941(5)
C13_6 C 0.2506(2) 0.2258(2) 0.1939(5)
C14_6 C 0.2199(3) 0.1956(3) 0.2893(7)
C15_5 C 0.1722(3) 0.1778(4) 0.2875(9)
C16_5 C 0.1509(3) 0.1876(3) 0.1884(9)
C17_5 C 0.1796(2) 0.2172(3) 0.0920(7)
H9_4 H 0.234(3) 0.189(3) 0.360(8)
H10_3 H 0.147(3) 0.155(3) 0.348(7)
H11_5 H 0.117(3) 0.176(3) 0.186(7)
H12_5 H 0.164(3) 0.231(3) 0.024(7)
O1_6 O 0.2342(1) 0.2756(1) 0.9029(3)
N2_6 N 0.2152(2) 0.3072(2) 0.6430(4)
C1_6 C 0.0434(4) 0.3200(3) 0.3784(9)
C2_6 C 0.0827(4) 0.3256(3) 0.4401(9)
C3_6 C 0.0969(2) 0.2929(2) 0.4309(5)
C4_6 C 0.0695(3) 0.2566(3) 0.3519(8)
C5_6 C 0.0307(3) 0.2534(2) 0.2933(8)
C6_6 C 0.2000(3) 0.2817(3) 0.5384(7)
C7_6 C 0.1629(3) 0.2764(3) 0.4665(7)
C8_6 C 0.1377(2) 0.2977(2) 0.5020(5)
C9_6 C 0.1525(3) 0.3243(3) 0.6101(7)
C10_6 C 0.1908(3) 0.3284(3) 0.6757(7)
C11_6 C 0.2564(2) 0.2696(2) 0.9925(5)
H1_6 H 0.038(3) 0.339(3) 0.382(8)
H2_6 H 0.102(3) 0.356(3) 0.478(9)
H3_6 H 0.073(3) 0.234(3) 0.350(8)
H4_6 H 0.008(2) 0.226(2) 0.247(6)
H5_6 H 0.219(2) 0.273(2) 0.514(6)
H6_6 H 0.157(2) 0.261(2) 0.398(6)
H7_6 H 0.142(3) 0.341(3) 0.637(7)
H8_6 H 0.201(2) 0.345(3) 0.745(7)
H9_5 H 0.433(3) 0.144(3) 0.973(8)
H10_4 H 0.520(3) 0.178(3) 0.985(7)
H1_7 H 0.629(3) 0.994(3) 0.951(8)
H2_7 H 0.565(3) 0.977(3) 0.855(9)
H7_7 H 0.525(3) 0.992(3) 0.696(7)
H8_7 H 0.466(2) 0.988(3) 0.588(7)
O4_5 O 0.3426(1) 0.9678(1) 0.6732(3)
O5_4 O 0.3877(1) 0.9624(1) 0.4611(3)
Cu1_2 Cu 0.28921(3) 0.94342(2) 0.89195(6)
O1_7 O 0.2919(1) 0.9008(1) 0.7637(3)
C10_7 C 0.1957(4) 0.8574(3) 0.9909(7)
C11_7 C 0.3201(3) 0.9230(2) 0.6741(5)
C12_6 C 0.3259(3) 0.8958(2) 0.5725(5)
C13_7 C 0.3581(3) 0.9172(2) 0.4727(5)
C14_7 C 0.3576(4) 0.8865(3) 0.3773(7)
C15_6 C 0.3277(5) 0.8388(3) 0.3791(9)
C16_6 C 0.2966(4) 0.8175(3) 0.4782(9)
C17_6 C 0.2957(4) 0.8462(2) 0.5746(7)
H8_8 H 0.189(4) 0.867(2) 0.921(7)
H9_6 H 0.378(4) 0.900(3) 0.306(8)
H10_5 H 0.325(4) 0.813(3) 0.318(7)
H11_6 H 0.274(4) 0.783(3) 0.480(7)
H12_6 H 0.266(4) 0.830(3) 0.642(7)
N3_3 N 0.3499(4) 0.9509(2) 0.9729(4)
O5_5 O 0.2414(1) 0.9457(1) 0.7945(3)
C5_7 C 0.3640(3) 0.9201(2) 0.9600(8)
H4_7 H 0.341(2) 0.893(2) 0.914(6)
C13_8 C 0.2258(2) 0.9753(3) 0.8061(5)
C14_8 C 0.1956(3) 0.9758(4) 0.7107(7)
H9_7 H 0.189(3) 0.956(4) 0.640(8)
H1_8 H 0.006(3) 0.635(4) 0.951(8)
H2_8 H 0.023(3) 0.588(4) 0.855(9)
H7_8 H 0.008(3) 0.533(4) 0.696(7)
H8_9 H 0.012(3) 0.478(4) 0.588(7)
O4_6 O 0.0322(1) 0.3747(1) 0.6732(3)
O5_6 O 0.0376(1) 0.4252(1) 0.4611(3)
Cu1_3 Cu 0.05658(2) 0.34578(2) 0.89195(6)
O1_8 O 0.0992(1) 0.3910(1) 0.7637(3)
C10_8 C 0.1426(3) 0.3382(3) 0.9909(7)
C11_8 C 0.0770(2) 0.3970(2) 0.6741(5)
C12_7 C 0.1042(2) 0.4300(2) 0.5725(5)
C13_9 C 0.0828(2) 0.4408(2) 0.4727(5)
C14_9 C 0.1135(3) 0.4710(3) 0.3773(7)
C15_7 C 0.1612(3) 0.4888(4) 0.3791(9)
C16_7 C 0.1825(3) 0.4790(3) 0.4782(9)
C17_7 C 0.1538(2) 0.4494(3) 0.5746(7)
H8_10 H 0.133(2) 0.321(3) 0.921(7)
H9_8 H 0.100(3) 0.477(3) 0.306(8)
H10_6 H 0.187(3) 0.511(3) 0.318(7)
H11_7 H 0.217(3) 0.490(3) 0.480(7)
H12_7 H 0.170(3) 0.435(3) 0.642(7)
N3_4 N 0.0491(2) 0.3990(3) 0.9729(4)
O5_7 O 0.0543(1) 0.2958(1) 0.7945(3)
C5_8 C 0.0799(2) 0.4439(4) 0.9600(8)
H4_8 H 0.107(2) 0.448(3) 0.914(6)
C13_10 C 0.0247(3) 0.2506(2) 0.8061(5)
C14_10 C 0.0242(4) 0.2199(3) 0.7107(7)
H9_9 H 0.044(4) 0.234(3) 0.640(8)
N1_5 N 0.9509(2) 0.6010(3) 0.0271(4)
C5_9 C 0.9201(2) 0.5561(4) 0.0400(8)
H4_9 H 0.893(2) 0.552(3) 0.086(6)
Cu3_4 Cu 0.94342(2) 0.65422(4) 0.10805(6)
O3_4 O 0.9457(1) 0.7042(1) 0.2055(3)
C13_11 C 0.9753(3) 0.7494(2) 0.1939(5)
C14_11 C 0.9758(4) 0.7801(3) 0.2893(7)
H9_10 H 0.956(4) 0.766(3) 0.360(8)
H1_9 H 0.994(3) 0.365(4) 0.049(8)
H2_9 H 0.977(3) 0.412(4) 0.145(9)
H7_9 H 0.992(3) 0.467(4) 0.304(7)
H8_11 H 0.988(3) 0.522(4) 0.412(7)
O4_7 O 0.9678(1) 0.6253(1) 0.3268(3)
O5_8 O 0.9624(1) 0.5748(1) 0.5389(3)
O1_9 O 0.9008(1) 0.6090(1) 0.2363(3)
C10_9 C 0.8574(3) 0.6618(3) 0.0091(7)
C11_9 C 0.9230(2) 0.6030(2) 0.3259(5)
C12_8 C 0.8958(2) 0.5700(2) 0.4275(5)
C13_12 C 0.9172(2) 0.5592(2) 0.5273(5)
C14_12 C 0.8865(3) 0.5290(3) 0.6227(7)
C15_8 C 0.8388(3) 0.5112(4) 0.6209(9)
C16_8 C 0.8175(3) 0.5210(3) 0.5218(9)
C17_8 C 0.8462(2) 0.5506(3) 0.4254(7)
H8_12 H 0.867(2) 0.679(3) 0.079(7)
H9_11 H 0.900(3) 0.523(3) 0.694(8)
H10_7 H 0.813(3) 0.489(3) 0.682(7)
H11_8 H 0.783(3) 0.510(3) 0.520(7)
H12_8 H 0.830(3) 0.565(3) 0.358(7)
Cu1_4 Cu 0.98755(2) 0.37746(3) 0.55862(6)
O1_10 O 0.9423(1) 0.3748(1) 0.4304(3)
O2_3 O 0.9586(1) 0.3241(1) 0.3399(3)
O3_5 O 0.9081(1) 0.2790(1) 0.1278(3)
N2_7 N 0.9739(2) 0.4254(3) 0.6903(4)
C1_7 C 0.9867(3) 0.6100(5) 0.9549(9)
C2_7 C 0.9923(3) 0.5763(5) 0.8932(9)
C3_7 C 0.9596(2) 0.5294(3) 0.9024(5)
C4_7 C 0.9233(3) 0.5205(4) 0.9814(8)
C6_7 C 0.9484(3) 0.4151(4) 0.7949(7)
C7_7 C 0.9431(3) 0.4469(4) 0.8668(7)
C8_7 C 0.9644(2) 0.4934(3) 0.8313(5)
C9_7 C 0.9910(3) 0.5052(4) 0.7232(7)
C10_10 C 0.9951(3) 0.4710(4) 0.6576(7)
C11_10 C 0.9363(2) 0.3466(3) 0.3408(5)
C12_9 C 0.9033(2) 0.3408(3) 0.2392(5)
C13_13 C 0.8925(2) 0.3086(3) 0.1394(5)
C14_13 C 0.8623(3) 0.3091(4) 0.0440(7)
C15_9 C 0.8445(4) 0.3390(5) 0.0458(9)
C16_9 C 0.8543(3) 0.3701(4) 0.1449(9)
C17_9 C 0.8839(3) 0.3710(4) 0.2413(7)
H3_7 H 0.901(3) 0.495(4) 0.983(8)
H5_7 H 0.940(2) 0.388(3) 0.819(6)
H6_7 H 0.928(2) 0.438(3) 0.935(6)
H11_9 H 0.843(3) 0.393(4) 0.147(7)
H12_9 H 0.898(3) 0.401(4) 0.309(7)
Cu2_3 Cu 0.95587(3) 0.27676(4) 0.22529(6)
N3_5 N 0.9343(3) 0.3168(4) 0.6396(4)
O2_4 O 0.7081(1) 0.0092(1) 0.9934(3)
N3_6 N 0.7323(3) 0.0166(4) 0.6938(4)
N2_8 N 0.7587(3) 0.1182(2) 0.9764(4)
C1_8 C 0.9433(5) 0.2900(4) 0.7118(9)
C2_8 C 0.9096(5) 0.2507(4) 0.7735(9)
C3_8 C 0.8627(3) 0.2365(2) 0.7643(5)
C4_8 C 0.8538(4) 0.2639(3) 0.6853(8)
C5_10 C 0.8894(4) 0.3027(3) 0.6267(8)
C6_8 C 0.7484(4) 0.1334(3) 0.8718(7)
C7_8 C 0.7802(4) 0.1705(3) 0.7999(7)
C8_8 C 0.8267(3) 0.1957(2) 0.8354(5)
C9_8 C 0.8385(4) 0.1809(3) 0.9435(7)
H1_10 H 0.968(4) 0.296(3) 0.716(8)
H2_10 H 0.921(4) 0.232(3) 0.812(9)
H3_8 H 0.828(4) 0.261(3) 0.684(8)
H4_10 H 0.885(3) 0.326(2) 0.581(6)
H5_8 H 0.721(3) 0.115(2) 0.848(6)
H6_8 H 0.771(3) 0.177(2) 0.732(6)
H7_10 H 0.866(4) 0.192(3) 0.971(7)
O1_11 O 0.9585(1) 0.2342(1) 0.0971(3)
N2_9 N 0.9079(3) 0.2152(2) 0.3570(4)
C1_9 C 0.7233(5) 0.0434(4) 0.6216(9)
C2_9 C 0.7570(5) 0.0827(4) 0.5599(9)
C3_9 C 0.8039(3) 0.0969(2) 0.5691(5)
C4_9 C 0.8128(4) 0.0695(3) 0.6481(8)
C5_11 C 0.7772(4) 0.0307(3) 0.7067(8)
C6_9 C 0.9182(4) 0.2000(3) 0.4616(7)
C7_9 C 0.8864(4) 0.1629(3) 0.5335(7)
C8_9 C 0.8399(3) 0.1377(2) 0.4980(5)
C9_9 C 0.8281(4) 0.1525(3) 0.3899(7)
C10_11 C 0.8623(4) 0.1908(3) 0.3243(7)
C11_11 C 0.9867(3) 0.2564(2) 0.0075(5)
H1_11 H 0.698(4) 0.038(3) 0.618(8)
H2_11 H 0.745(4) 0.102(3) 0.522(9)
H3_9 H 0.838(4) 0.073(3) 0.650(8)
H4_11 H 0.781(3) 0.008(2) 0.753(6)
H5_9 H 0.945(3) 0.219(2) 0.486(6)
H6_9 H 0.895(3) 0.157(2) 0.602(6)
H7_11 H 0.800(4) 0.142(3) 0.363(7)
H8_13 H 0.855(4) 0.201(2) 0.255(7)
H9_12 H 0.856(3) 0.289(4) 0.973(8)
H10_8 H 0.822(3) 0.342(4) 0.985(7)
Cu1_5 Cu 0.62254(3) 0.61009(2) 0.55862(6)
O1_12 O 0.6252(1) 0.5675(1) 0.4304(3)
O2_5 O 0.6759(1) 0.6345(1) 0.3399(3)
O3_6 O 0.7210(1) 0.6291(1) 0.1278(3)
N2_10 N 0.5746(3) 0.5485(2) 0.6903(4)
C1_10 C 0.3900(5) 0.3767(4) 0.9549(9)
C2_10 C 0.4237(5) 0.4160(4) 0.8932(9)
C3_10 C 0.4706(3) 0.4302(2) 0.9024(5)
C4_10 C 0.4795(4) 0.4028(3) 0.9814(8)
C6_10 C 0.5849(4) 0.5333(3) 0.7949(7)
C7_10 C 0.5531(4) 0.4962(3) 0.8668(7)
C8_10 C 0.5066(3) 0.4710(2) 0.8313(5)
C9_10 C 0.4948(4) 0.4858(3) 0.7232(7)
C10_12 C 0.5290(4) 0.5241(3) 0.6576(7)
C11_12 C 0.6534(3) 0.5897(2) 0.3408(5)
C12_10 C 0.6592(3) 0.5625(2) 0.2392(5)
C13_14 C 0.6914(3) 0.5839(2) 0.1394(5)
C14_14 C 0.6909(4) 0.5532(3) 0.0440(7)
C15_10 C 0.6610(5) 0.5055(3) 0.0458(9)
C16_10 C 0.6299(4) 0.4842(3) 0.1449(9)
C17_10 C 0.6290(4) 0.5129(2) 0.2413(7)
H1_12 H 0.365(4) 0.371(3) 0.951(8)
H2_12 H 0.412(4) 0.435(3) 0.855(9)
H3_10 H 0.505(4) 0.406(3) 0.983(8)
H5_10 H 0.612(3) 0.552(2) 0.819(6)
H6_10 H 0.562(3) 0.490(2) 0.935(6)
H7_12 H 0.467(4) 0.475(3) 0.696(7)
H8_14 H 0.522(4) 0.534(2) 0.588(7)
H11_10 H 0.607(4) 0.450(3) 0.147(7)
H12_10 H 0.599(4) 0.497(3) 0.309(7)
O4_8 O 0.6253(1) 0.6574(1) 0.6732(3)
Cu2_4 Cu 0.72324(4) 0.67912(2) 0.22529(6)
N3_7 N 0.6832(4) 0.6176(2) 0.6396(4)
O5_9 O 0.5748(1) 0.6123(1) 0.4611(3)
N1_6 N 0.6176(2) 0.9343(3) 0.3604(4)
N2_11 N 0.6406(2) 0.7587(3) 0.0236(4)
C1_11 C 0.6534(3) 0.9433(5) 0.2882(9)
C2_11 C 0.6590(3) 0.9096(5) 0.2265(9)
C3_11 C 0.6263(2) 0.8627(3) 0.2357(5)
C4_11 C 0.5900(3) 0.8538(4) 0.3147(8)
C5_12 C 0.5868(2) 0.8894(4) 0.3733(8)
C6_11 C 0.6151(3) 0.7484(4) 0.1282(7)
C7_11 C 0.6098(3) 0.7802(4) 0.2001(7)
C8_11 C 0.6311(2) 0.8267(3) 0.1646(5)
C9_11 C 0.6577(3) 0.8385(4) 0.0565(7)
H1_13 H 0.673(3) 0.968(4) 0.284(8)
H2_13 H 0.690(3) 0.921(4) 0.188(9)
H3_11 H 0.568(3) 0.828(4) 0.316(8)
H4_12 H 0.560(2) 0.885(3) 0.419(6)
H5_11 H 0.607(2) 0.721(3) 0.152(6)
H6_11 H 0.595(2) 0.771(3) 0.268(6)
H7_13 H 0.675(3) 0.866(4) 0.029(7)
O4_9 O 0.6988(1) 0.7081(1) 0.0066(3)
Cu3_5 Cu 0.61009(2) 0.98755(4) 0.44138(6)
Cu1_6 Cu 0.65422(2) 0.71079(3) 0.89195(6)
O1_13 O 0.6090(1) 0.7081(1) 0.7637(3)
C10_13 C 0.6618(3) 0.8043(4) 0.9909(7)
C11_13 C 0.6030(2) 0.6799(3) 0.6741(5)
C12_11 C 0.5700(2) 0.6741(3) 0.5725(5)
C13_15 C 0.5592(2) 0.6419(3) 0.4727(5)
C14_15 C 0.5290(3) 0.6424(4) 0.3773(7)
C15_11 C 0.5112(4) 0.6723(5) 0.3791(9)
C16_11 C 0.5210(3) 0.7034(4) 0.4782(9)
C17_11 C 0.5506(3) 0.7043(4) 0.5746(7)
H8_15 H 0.679(3) 0.811(4) 0.921(7)
H9_13 H 0.523(3) 0.622(4) 0.306(8)
H10_9 H 0.489(3) 0.675(4) 0.318(7)
H11_11 H 0.510(3) 0.726(4) 0.480(7)
H12_11 H 0.565(3) 0.734(4) 0.642(7)
N3_8 N 0.6010(3) 0.6501(4) 0.9729(4)
O5_10 O 0.7042(1) 0.7586(1) 0.7945(3)
Cu1_7 Cu 0.67912(2) 0.95587(3) 0.77471(6)
O1_14 O 0.7244(1) 0.9585(1) 0.9029(3)
N1_7 N 0.7158(2) 0.7323(3) 0.3062(4)
N2_12 N 0.6928(2) 0.9079(3) 0.6430(4)
C1_12 C 0.6800(3) 0.7233(5) 0.3784(9)
C2_12 C 0.6744(3) 0.7570(5) 0.4401(9)
C3_12 C 0.7071(2) 0.8039(3) 0.4309(5)
C4_12 C 0.7434(3) 0.8128(4) 0.3519(8)
C5_13 C 0.7466(2) 0.7772(4) 0.2933(8)
C6_12 C 0.7183(3) 0.9182(4) 0.5384(7)
C7_12 C 0.7236(3) 0.8864(4) 0.4665(7)
C8_12 C 0.7023(2) 0.8399(3) 0.5020(5)
C9_12 C 0.6757(3) 0.8281(4) 0.6101(7)
C10_14 C 0.6716(3) 0.8623(4) 0.6757(7)
C11_14 C 0.7304(2) 0.9867(3) 0.9925(5)
H1_14 H 0.661(3) 0.698(4) 0.382(8)
H2_14 H 0.644(3) 0.745(4) 0.478(9)
H3_12 H 0.766(3) 0.838(4) 0.350(8)
H4_13 H 0.774(2) 0.781(3) 0.247(6)
H5_12 H 0.727(2) 0.945(3) 0.514(6)
H6_12 H 0.739(2) 0.895(3) 0.398(6)
H7_14 H 0.659(3) 0.800(4) 0.637(7)
H8_16 H 0.655(3) 0.855(4) 0.745(7)
O4_10 O 0.6345(1) 0.9586(1) 0.6601(3)
O5_11 O 0.6291(1) 0.9081(1) 0.8722(3)
O2_6 O 0.9908(1) 0.6988(1) 0.9934(3)
N3_9 N 0.9834(4) 0.7158(2) 0.6938(4)
O1_15 O 0.7658(1) 0.7244(1) 0.0971(3)
N2_13 N 0.7848(2) 0.6928(2) 0.3570(4)
C1_13 C 0.9566(4) 0.6800(3) 0.6216(9)
C2_13 C 0.9173(4) 0.6744(3) 0.5599(9)
C3_13 C 0.9031(2) 0.7071(2) 0.5691(5)
C4_13 C 0.9305(3) 0.7434(3) 0.6481(8)
C5_14 C 0.9693(3) 0.7466(2) 0.7067(8)
C6_13 C 0.8000(3) 0.7183(3) 0.4616(7)
C7_13 C 0.8371(3) 0.7236(3) 0.5335(7)
C8_13 C 0.8623(2) 0.7023(2) 0.4980(5)
C9_13 C 0.8475(3) 0.6757(3) 0.3899(7)
C10_15 C 0.8092(3) 0.6716(3) 0.3243(7)
C11_15 C 0.7436(2) 0.7304(2) 0.0075(5)
H1_15 H 0.962(3) 0.661(3) 0.618(8)
H2_15 H 0.898(3) 0.644(3) 0.522(9)
H3_13 H 0.927(3) 0.766(3) 0.650(8)
H4_14 H 0.992(2) 0.774(2) 0.753(6)
H5_13 H 0.781(2) 0.727(2) 0.486(6)
H6_13 H 0.843(2) 0.739(2) 0.602(6)
H7_15 H 0.858(3) 0.659(3) 0.363(7)
H8_17 H 0.799(2) 0.655(3) 0.255(7)
C12_12 C 0.7708(2) 0.7634(2) 0.9059(5)
C13_16 C 0.7494(2) 0.7742(2) 0.8061(5)
C14_16 C 0.7801(3) 0.8044(3) 0.7107(7)
C15_12 C 0.8278(3) 0.8222(4) 0.7125(9)
C16_12 C 0.8491(3) 0.8124(3) 0.8116(9)
C17_12 C 0.8204(2) 0.7828(3) 0.9080(7)
H9_14 H 0.766(3) 0.811(3) 0.640(8)
H10_10 H 0.853(3) 0.845(3) 0.652(7)
H11_12 H 0.883(3) 0.824(3) 0.814(7)
H12_12 H 0.836(3) 0.769(3) 0.976(7)
O1_16 O 0.5675(1) 0.9423(1) 0.5696(3)
N2_14 N 0.5485(2) 0.9739(2) 0.3097(4)
C1_14 C 0.3767(4) 0.9867(3) 0.0451(9)
C2_14 C 0.4160(4) 0.9923(3) 0.1068(9)
C3_14 C 0.4302(2) 0.9596(2) 0.0976(5)
C4_14 C 0.4028(3) 0.9233(3) 0.0186(8)
C6_14 C 0.5333(3) 0.9484(3) 0.2051(7)
C7_14 C 0.4962(3) 0.9431(3) 0.1332(7)
C8_14 C 0.4710(2) 0.9644(2) 0.1687(5)
C9_14 C 0.4858(3) 0.9910(3) 0.2768(7)
C10_16 C 0.5241(3) 0.9951(3) 0.3424(7)
C11_16 C 0.5897(2) 0.9363(2) 0.6592(5)
C12_13 C 0.5625(2) 0.9033(2) 0.7608(5)
C13_17 C 0.5839(2) 0.8925(2) 0.8606(5)
C14_17 C 0.5532(3) 0.8623(3) 0.9560(7)
C15_13 C 0.5055(3) 0.8445(4) 0.9542(9)
C16_13 C 0.4842(3) 0.8543(3) 0.8551(9)
C17_13 C 0.5129(2) 0.8839(3) 0.7587(7)
H3_14 H 0.406(3) 0.901(3) 0.017(8)
H5_14 H 0.552(2) 0.940(2) 0.181(6)
H6_14 H 0.490(2) 0.928(2) 0.065(6)
H11_13 H 0.450(3) 0.843(3) 0.853(7)
H12_13 H 0.497(3) 0.898(3) 0.691(7)
C5_15 C 0.5561(4) 0.6360(3) 0.9600(8)
H4_15 H 0.552(3) 0.659(2) 0.914(6)
N2_15 N 0.8818(2) 0.6406(2) 0.9764(4)
C1_15 C 0.7100(4) 0.6534(3) 0.7118(9)
C2_15 C 0.7493(4) 0.6590(3) 0.7735(9)
C3_15 C 0.7635(2) 0.6263(2) 0.7643(5)
C4_15 C 0.7361(3) 0.5900(3) 0.6853(8)
C5_16 C 0.6973(3) 0.5868(2) 0.6267(8)
C6_15 C 0.8666(3) 0.6151(3) 0.8718(7)
C7_15 C 0.8295(3) 0.6098(3) 0.7999(7)
C8_15 C 0.8043(2) 0.6311(2) 0.8354(5)
C9_15 C 0.8191(3) 0.6577(3) 0.9435(7)
H1_16 H 0.704(3) 0.673(3) 0.716(8)
H2_16 H 0.768(3) 0.690(3) 0.812(9)
H3_15 H 0.739(3) 0.568(3) 0.684(8)
H4_16 H 0.674(2) 0.560(2) 0.581(6)
H5_15 H 0.885(2) 0.607(2) 0.848(6)
H6_15 H 0.823(2) 0.595(2) 0.732(6)
H7_16 H 0.808(3) 0.675(3) 0.971(7)
H9_15 H 0.711(4) 0.567(3) 0.973(8)
H10_11 H 0.658(4) 0.480(3) 0.985(7)
N1_8 N 0.0657(3) 0.6832(2) 0.3604(4)
N2_16 N 0.2413(3) 0.8818(2) 0.0236(4)
C1_16 C 0.0567(5) 0.7100(4) 0.2882(9)
C2_16 C 0.0904(5) 0.7493(4) 0.2265(9)
C3_16 C 0.1373(3) 0.7635(2) 0.2357(5)
C4_16 C 0.1462(4) 0.7361(3) 0.3147(8)
C5_17 C 0.1106(4) 0.6973(3) 0.3733(8)
C6_16 C 0.2516(4) 0.8666(3) 0.1282(7)
C7_16 C 0.2198(4) 0.8295(3) 0.2001(7)
C8_16 C 0.1733(3) 0.8043(2) 0.1646(5)
C9_16 C 0.1615(4) 0.8191(3) 0.0565(7)
H1_17 H 0.032(4) 0.704(3) 0.284(8)
H2_17 H 0.079(4) 0.768(3) 0.188(9)
H3_16 H 0.172(4) 0.739(3) 0.316(8)
H4_17 H 0.115(3) 0.674(2) 0.419(6)
H5_16 H 0.279(3) 0.885(2) 0.152(6)
H6_16 H 0.229(3) 0.823(2) 0.268(6)
H7_17 H 0.134(4) 0.808(3) 0.029(7)
O4_11 O 0.2919(1) 0.9908(1) 0.0066(3)
Cu3_6 Cu 0.01245(4) 0.62254(3) 0.44138(6)
Cu1_8 Cu 0.04413(3) 0.72324(2) 0.77471(6)
O1_17 O 0.0415(1) 0.7658(1) 0.9029(3)
N1_9 N 0.2677(3) 0.9834(2) 0.3062(4)
N2_17 N 0.0921(3) 0.7848(2) 0.6430(4)
C1_17 C 0.2767(5) 0.9566(4) 0.3784(9)
C2_17 C 0.2430(5) 0.9173(4) 0.4401(9)
C3_17 C 0.1961(3) 0.9031(2) 0.4309(5)
C4_17 C 0.1872(4) 0.9305(3) 0.3519(8)
C5_18 C 0.2228(4) 0.9693(3) 0.2933(8)
C6_17 C 0.0818(4) 0.8000(3) 0.5384(7)
C7_17 C 0.1136(4) 0.8371(3) 0.4665(7)
C8_17 C 0.1601(3) 0.8623(2) 0.5020(5)
C9_17 C 0.1719(4) 0.8475(3) 0.6101(7)
C10_17 C 0.1377(4) 0.8092(3) 0.6757(7)
C11_17 C 0.0133(3) 0.7436(2) 0.9925(5)
H1_18 H 0.302(4) 0.962(3) 0.382(8)
H2_18 H 0.255(4) 0.898(3) 0.478(9)
H3_17 H 0.162(4) 0.927(3) 0.350(8)
H4_18 H 0.219(3) 0.992(2) 0.247(6)
H5_17 H 0.055(3) 0.781(2) 0.514(6)
H6_17 H 0.105(3) 0.843(2) 0.398(6)
H7_18 H 0.200(4) 0.858(3) 0.637(7)
H8_18 H 0.145(4) 0.799(2) 0.745(7)
O4_12 O 0.0414(1) 0.6759(1) 0.6601(3)
O5_12 O 0.0919(1) 0.7210(1) 0.8722(3)
O1_18 O 0.0577(1) 0.6252(1) 0.5696(3)
N2_18 N 0.0261(2) 0.5746(3) 0.3097(4)
C1_18 C 0.0133(3) 0.3900(5) 0.0451(9)
C2_18 C 0.0077(3) 0.4237(5) 0.1068(9)
C3_18 C 0.0404(2) 0.4706(3) 0.0976(5)
C4_18 C 0.0767(3) 0.4795(4) 0.0186(8)
C6_18 C 0.0516(3) 0.5849(4) 0.2051(7)
C7_18 C 0.0569(3) 0.5531(4) 0.1332(7)
C8_18 C 0.0356(2) 0.5066(3) 0.1687(5)
C9_18 C 0.0090(3) 0.4948(4) 0.2768(7)
C10_18 C 0.0049(3) 0.5290(4) 0.3424(7)
C11_18 C 0.0637(2) 0.6534(3) 0.6592(5)
C12_14 C 0.0967(2) 0.6592(3) 0.7608(5)
C13_18 C 0.1075(2) 0.6914(3) 0.8606(5)
C14_18 C 0.1377(3) 0.6909(4) 0.9560(7)
C15_14 C 0.1555(4) 0.6610(5) 0.9542(9)
C16_14 C 0.1457(3) 0.6299(4) 0.8551(9)
C17_14 C 0.1161(3) 0.6290(4) 0.7587(7)
H3_18 H 0.099(3) 0.505(4) 0.017(8)
H5_18 H 0.060(2) 0.612(3) 0.181(6)
H6_18 H 0.072(2) 0.562(3) 0.065(6)
H11_14 H 0.157(3) 0.607(4) 0.853(7)
H12_14 H 0.102(3) 0.599(4) 0.691(7)
C12_15 C 0.7634(2) 0.9925(3) 0.0941(5)
C15_15 C 0.8222(4) 0.9943(5) 0.2875(9)
C16_15 C 0.8124(3) 0.9632(4) 0.1884(9)
C17_15 C 0.7828(3) 0.9623(4) 0.0920(7)
H10_12 H 0.845(3) 0.991(4) 0.348(7)
H11_15 H 0.824(3) 0.940(4) 0.186(7)
H12_15 H 0.769(3) 0.932(4) 0.024(7)
C12_16 C 0.0075(3) 0.7708(2) 0.0941(5)
C15_16 C 0.0057(5) 0.8278(3) 0.2875(9)
C16_16 C 0.0368(4) 0.8491(3) 0.1884(9)
C17_16 C 0.0377(4) 0.8204(2) 0.0920(7)
H10_13 H 0.009(4) 0.853(3) 0.348(7)
H11_16 H 0.060(4) 0.883(3) 0.186(7)
H12_16 H 0.068(4) 0.836(3) 0.024(7)
H9_16 H 0.567(3) 0.856(3) 0.027(8)
H10_14 H 0.480(3) 0.822(3) 0.015(7)
H9_17 H 0.144(3) 0.711(4) 0.027(8)
H10_15 H 0.178(3) 0.658(4) 0.015(7)
H9_18 H 0.289(4) 0.433(3) 0.027(8)
H10_16 H 0.342(4) 0.520(3) 0.015(7)
C12_17 C 0.2366(2) 0.0075(3) 0.9059(5)
C15_17 C 0.1778(4) 0.0057(5) 0.7125(9)
C16_17 C 0.1876(3) 0.0368(4) 0.8116(9)
C17_17 C 0.2172(3) 0.0377(4) 0.9080(7)
H10_17 H 0.155(3) 0.009(4) 0.652(7)
H11_17 H 0.176(3) 0.060(4) 0.814(7)
H12_17 H 0.231(3) 0.068(4) 0.976(7)
C12_18 C 0.9925(3) 0.2292(2) 0.9059(5)
C15_18 C 0.9943(5) 0.1722(3) 0.7125(9)
C16_18 C 0.9632(4) 0.1509(3) 0.8116(9)
C17_18 C 0.9623(4) 0.1796(2) 0.9080(7)
H10_18 H 0.991(4) 0.147(3) 0.652(7)
H11_18 H 0.940(4) 0.117(3) 0.814(7)
H12_18 H 0.932(4) 0.164(3) 0.976(7)
loop_
_geom_bond_atom_site_label_1
_geom_bond_atom_site_label_2
_geom_bond_site_symmetry_1
_geom_bond_site_symmetry_2
C5 N1 1_555 1_555
H4 C5 1_555 1_555
Cu3 N1 1_555 1_555
O3 C13 1_555 1_555
C13 C14 1_555 1_555
H9 C14 1_555 1_555
O3 Cu3 1_555 1_555
Cu3 O1 1_555 1_555
O1 C11 1_555 1_555
O4 C11 1_555 1_555
O5 C13_2 1_555 1_555
C11 C12 1_555 1_555
C12 C13_2 1_555 1_555
C13_2 C14_2 1_555 1_555
C14_2 C15 1_555 1_555
C15 C16 1_555 1_555
C16 C17 1_555 1_555
C17 C12 1_555 1_555
H8_2 C10 1_555 1_555
H9_2 C14_2 1_555 1_555
H10 C15 1_555 1_555
H11 C16 1_555 1_555
H12 C17 1_555 1_555
Cu1 O1_2 1_555 1_555
O1_2 C11_2 1_555 1_555
O2 C11_2 1_555 1_555
O3_2 C13_3 1_555 1_555
N2 Cu1 1_555 1_555
C1 C2 1_555 1_555
C2 C3 1_555 1_555
C3 C4 1_555 1_555
C6 N2 1_555 1_555
C7 C6 1_555 1_555
C8 C3 1_555 1_555
C9 C8 1_555 1_555
C10_2 N2 1_555 1_555
C11_2 C12_2 1_555 1_555
C12_2 C13_3 1_555 1_555
C13_3 C14_3 1_555 1_555
C14_3 C15_2 1_555 1_555
C15_2 C16_2 1_555 1_555
C16_2 C17_2 1_555 1_555
C17_2 C12_2 1_555 1_555
H3 C4 1_555 1_555
H5 C6 1_555 1_555
H6 C7 1_555 1_555
H11_2 C16_2 1_555 1_555
H12_2 C17_2 1_555 1_555
Cu2 O2 1_555 1_555
N3 Cu1 1_555 1_555
O3_2 Cu2 1_555 1_555
C7 C8 1_555 1_555
C9 C10_2 1_555 1_555
C5_2 N1_2 1_555 1_555
H4_2 C5_2 1_555 1_555
Cu3_2 N1_2 1_555 1_555
N1_3 C1_2 1_555 1_555
C1_2 C2_2 1_555 1_555
C2_2 C3_2 1_555 1_555
C3_2 C4_2 1_555 1_555
C4_2 C5_3 1_555 1_555
C5_3 N1_3 1_555 1_555
C6_2 N2_2 1_555 1_555
C7_2 C6_2 1_555 1_555
C8_2 C3_2 1_555 1_555
C9_2 C8_2 1_555 1_555
H1_2 C1_2 1_555 1_555
H2_2 C2_2 1_555 1_555
H3_2 C4_2 1_555 1_555
H4_3 C5_3 1_555 1_555
H5_2 C6_2 1_555 1_555
H6_2 C7_2 1_555 1_555
H7_2 C9_2 1_555 1_555
Cu3_3 N1_3 1_555 1_555
C7_2 C8_2 1_555 1_555
Cu3_3 O1_3 1_555 1_555
O1_3 C11_3 1_555 1_555
O2_2 C11_3 1_555 1_555
O3_3 C13_4 1_555 1_555
N2_3 Cu3_3 1_555 1_555
C1_3 C2_3 1_555 1_555
C2_3 C3_3 1_555 1_555
C3_3 C4_3 1_555 1_555
C6_3 N2_3 1_555 1_555
C7_3 C6_3 1_555 1_555
C8_3 C3_3 1_555 1_555
C9_3 C8_3 1_555 1_555
C10_3 N2_3 1_555 1_555
C11_3 C12_3 1_555 1_555
C12_3 C13_4 1_555 1_555
C13_4 C14_4 1_555 1_555
C14_4 C15_3 1_555 1_555
C15_3 C16_3 1_555 1_555
C16_3 C17_3 1_555 1_555
C17_3 C12_3 1_555 1_555
H1_3 C1_3 1_555 1_555
H2_3 C2_3 1_555 1_555
H3_3 C4_3 1_555 1_555
H5_3 C6_3 1_555 1_555
H6_3 C7_3 1_555 1_555
H7_3 C9_3 1_555 1_555
H8_3 C10_3 1_555 1_555
H11_3 C16_3 1_555 1_555
H12_3 C17_3 1_555 1_555
O4_3 Cu3_3 1_555 1_555
Cu2_2 O2_2 1_555 1_555
O5_2 Cu3_3 1_555 1_555
O3_3 Cu2_2 1_555 1_555
C7_3 C8_3 1_555 1_555
C9_3 C10_3 1_555 1_555
Cu3_2 O1_4 1_555 1_555
O1_4 C11_4 1_555 1_555
O4_3 C11_4 1_555 1_555
O5_2 C13_5 1_555 1_555
C11_4 C12_4 1_555 1_555
C12_4 C13_5 1_555 1_555
C13_5 C14_5 1_555 1_555
C14_5 C15_4 1_555 1_555
C15_4 C16_4 1_555 1_555
C16_4 C17_4 1_555 1_555
C17_4 C12_4 1_555 1_555
H8_4 C10_4 1_555 1_555
H9_3 C14_5 1_555 1_555
H10_2 C15_4 1_555 1_555
H11_4 C16_4 1_555 1_555
H12_4 C17_4 1_555 1_555
O5_3 Cu3_2 1_555 1_555
N3 C1_4 1_555 1_555
C1_4 C2_4 1_555 1_555
C2_4 C3_4 1_555 1_555
C3_4 C4_4 1_555 1_555
C4_4 C5_4 1_555 1_555
C5_4 N3 1_555 1_555
C6_4 N2_4 1_555 1_555
C7_4 C6_4 1_555 1_555
C8_4 C3_4 1_555 1_555
C9_4 C8_4 1_555 1_555
H1_4 C1_4 1_555 1_555
H2_4 C2_4 1_555 1_555
H3_4 C4_4 1_555 1_555
H4_4 C5_4 1_555 1_555
H5_4 C6_4 1_555 1_555
H6_4 C7_4 1_555 1_555
H7_4 C9_4 1_555 1_555
C7_4 C8_4 1_555 1_555
Cu2 O1_5 1_555 1_555
O1_5 C11_5 1_555 1_555
N1_4 C1_5 1_555 1_555
N2_5 Cu2 1_555 1_555
C1_5 C2_5 1_555 1_555
C2_5 C3_5 1_555 1_555
C3_5 C4_5 1_555 1_555
C4_5 C5_5 1_555 1_555
C5_5 N1_4 1_555 1_555
C6_5 N2_5 1_555 1_555
C7_5 C6_5 1_555 1_555
C8_5 C3_5 1_555 1_555
C9_5 C8_5 1_555 1_555
C10_5 N2_5 1_555 1_555
H1_5 C1_5 1_555 1_555
H2_5 C2_5 1_555 1_555
H3_5 C4_5 1_555 1_555
H4_5 C5_5 1_555 1_555
H5_5 C6_5 1_555 1_555
H6_5 C7_5 1_555 1_555
H7_5 C9_5 1_555 1_555
H8_5 C10_5 1_555 1_555
Cu2_2 N1_4 1_555 1_555
C7_5 C8_5 1_555 1_555
C9_5 C10_5 1_555 1_555
O5_3 C13_6 1_555 1_555
C12_5 C13_6 1_555 1_555
C13_6 C14_6 1_555 1_555
C14_6 C15_5 1_555 1_555
C15_5 C16_5 1_555 1_555
C16_5 C17_5 1_555 1_555
C17_5 C12_5 1_555 1_555
H9_4 C14_6 1_555 1_555
H10_3 C15_5 1_555 1_555
H11_5 C16_5 1_555 1_555
H12_5 C17_5 1_555 1_555
Cu2_2 O1_6 1_555 1_555
O1_6 C11_6 1_555 1_555
O4_4 C11_6 1_555 1_555
N3_2 C1_6 1_555 1_555
N2_6 Cu2_2 1_555 1_555
C1_6 C2_6 1_555 1_555
C2_6 C3_6 1_555 1_555
C3_6 C4_6 1_555 1_555
C4_6 C5_6 1_555 1_555
C5_6 N3_2 1_555 1_555
C6_6 N2_6 1_555 1_555
C7_6 C6_6 1_555 1_555
C8_6 C3_6 1_555 1_555
C9_6 C8_6 1_555 1_555
C10_6 N2_6 1_555 1_555
H1_6 C1_6 1_555 1_555
H2_6 C2_6 1_555 1_555
H3_6 C4_6 1_555 1_555
H4_6 C5_6 1_555 1_555
H5_6 C6_6 1_555 1_555
H6_6 C7_6 1_555 1_555
H7_6 C9_6 1_555 1_555
H8_6 C10_6 1_555 1_555
C7_6 C8_6 1_555 1_555
C9_6 C10_6 1_555 1_555
Cu1_2 O1_7 1_555 1_555
O1_7 C11_7 1_555 1_555
O4_5 C11_7 1_555 1_555
O5_4 C13_7 1_555 1_555
C11_7 C12_6 1_555 1_555
C12_6 C13_7 1_555 1_555
C13_7 C14_7 1_555 1_555
C14_7 C15_6 1_555 1_555
C15_6 C16_6 1_555 1_555
C16_6 C17_6 1_555 1_555
C17_6 C12_6 1_555 1_555
H8_8 C10_7 1_555 1_555
H9_6 C14_7 1_555 1_555
H10_5 C15_6 1_555 1_555
H11_6 C16_6 1_555 1_555
H12_6 C17_6 1_555 1_555
N3_3 Cu1_2 1_555 1_555
O5_5 Cu1_2 1_555 1_555
C5_7 N3_3 1_555 1_555
H4_7 C5_7 1_555 1_555
O5_5 C13_8 1_555 1_555
C13_8 C14_8 1_555 1_555
H9_7 C14_8 1_555 1_555
Cu1_3 O1_8 1_555 1_555
O1_8 C11_8 1_555 1_555
O4_6 C11_8 1_555 1_555
O5_6 C13_9 1_555 1_555
C11_8 C12_7 1_555 1_555
C12_7 C13_9 1_555 1_555
C13_9 C14_9 1_555 1_555
C14_9 C15_7 1_555 1_555
C15_7 C16_7 1_555 1_555
C16_7 C17_7 1_555 1_555
C17_7 C12_7 1_555 1_555
H8_10 C10_8 1_555 1_555
H9_8 C14_9 1_555 1_555
H10_6 C15_7 1_555 1_555
H11_7 C16_7 1_555 1_555
H12_7 C17_7 1_555 1_555
N3_4 Cu1_3 1_555 1_555
O5_7 Cu1_3 1_555 1_555
C5_8 N3_4 1_555 1_555
H4_8 C5_8 1_555 1_555
O5_7 C13_10 1_555 1_555
C13_10 C14_10 1_555 1_555
H9_9 C14_10 1_555 1_555
C5_9 N1_5 1_555 1_555
H4_9 C5_9 1_555 1_555
Cu3_4 N1_5 1_555 1_555
O3_4 C13_11 1_555 1_555
C13_11 C14_11 1_555 1_555
H9_10 C14_11 1_555 1_555
O3_4 Cu3_4 1_555 1_555
Cu3_4 O1_9 1_555 1_555
O1_9 C11_9 1_555 1_555
O4_7 C11_9 1_555 1_555
O5_8 C13_12 1_555 1_555
C11_9 C12_8 1_555 1_555
C12_8 C13_12 1_555 1_555
C13_12 C14_12 1_555 1_555
C14_12 C15_8 1_555 1_555
C15_8 C16_8 1_555 1_555
C16_8 C17_8 1_555 1_555
C17_8 C12_8 1_555 1_555
H8_12 C10_9 1_555 1_555
H9_11 C14_12 1_555 1_555
H10_7 C15_8 1_555 1_555
H11_8 C16_8 1_555 1_555
H12_8 C17_8 1_555 1_555
Cu1_4 O1_10 1_555 1_555
O1_10 C11_10 1_555 1_555
O2_3 C11_10 1_555 1_555
O3_5 C13_13 1_555 1_555
N2_7 Cu1_4 1_555 1_555
C1_7 C2_7 1_555 1_555
C2_7 C3_7 1_555 1_555
C3_7 C4_7 1_555 1_555
C6_7 N2_7 1_555 1_555
C7_7 C6_7 1_555 1_555
C8_7 C3_7 1_555 1_555
C9_7 C8_7 1_555 1_555
C10_10 N2_7 1_555 1_555
C11_10 C12_9 1_555 1_555
C12_9 C13_13 1_555 1_555
C13_13 C14_13 1_555 1_555
C14_13 C15_9 1_555 1_555
C15_9 C16_9 1_555 1_555
C16_9 C17_9 1_555 1_555
C17_9 C12_9 1_555 1_555
H3_7 C4_7 1_555 1_555
H5_7 C6_7 1_555 1_555
H6_7 C7_7 1_555 1_555
H11_9 C16_9 1_555 1_555
H12_9 C17_9 1_555 1_555
Cu2_3 O2_3 1_555 1_555
N3_5 Cu1_4 1_555 1_555
O3_5 Cu2_3 1_555 1_555
C7_7 C8_7 1_555 1_555
C9_7 C10_10 1_555 1_555
N3_5 C1_8 1_555 1_555
C1_8 C2_8 1_555 1_555
C2_8 C3_8 1_555 1_555
C3_8 C4_8 1_555 1_555
C4_8 C5_10 1_555 1_555
C5_10 N3_5 1_555 1_555
C6_8 N2_8 1_555 1_555
C7_8 C6_8 1_555 1_555
C8_8 C3_8 1_555 1_555
C9_8 C8_8 1_555 1_555
H1_10 C1_8 1_555 1_555
H2_10 C2_8 1_555 1_555
H3_8 C4_8 1_555 1_555
H4_10 C5_10 1_555 1_555
H5_8 C6_8 1_555 1_555
H6_8 C7_8 1_555 1_555
H7_10 C9_8 1_555 1_555
C7_8 C8_8 1_555 1_555
Cu2_3 O1_11 1_555 1_555
O1_11 C11_11 1_555 1_555
N3_6 C1_9 1_555 1_555
N2_9 Cu2_3 1_555 1_555
C1_9 C2_9 1_555 1_555
C2_9 C3_9 1_555 1_555
C3_9 C4_9 1_555 1_555
C4_9 C5_11 1_555 1_555
C5_11 N3_6 1_555 1_555
C6_9 N2_9 1_555 1_555
C7_9 C6_9 1_555 1_555
C8_9 C3_9 1_555 1_555
C9_9 C8_9 1_555 1_555
C10_11 N2_9 1_555 1_555
H1_11 C1_9 1_555 1_555
H2_11 C2_9 1_555 1_555
H3_9 C4_9 1_555 1_555
H4_11 C5_11 1_555 1_555
H5_9 C6_9 1_555 1_555
H6_9 C7_9 1_555 1_555
H7_11 C9_9 1_555 1_555
H8_13 C10_11 1_555 1_555
C7_9 C8_9 1_555 1_555
C9_9 C10_11 1_555 1_555
Cu1_5 O1_12 1_555 1_555
O1_12 C11_12 1_555 1_555
O2_5 C11_12 1_555 1_555
O3_6 C13_14 1_555 1_555
N2_10 Cu1_5 1_555 1_555
C1_10 C2_10 1_555 1_555
C2_10 C3_10 1_555 1_555
C3_10 C4_10 1_555 1_555
C6_10 N2_10 1_555 1_555
C7_10 C6_10 1_555 1_555
C8_10 C3_10 1_555 1_555
C9_10 C8_10 1_555 1_555
C10_12 N2_10 1_555 1_555
C11_12 C12_10 1_555 1_555
C12_10 C13_14 1_555 1_555
C13_14 C14_14 1_555 1_555
C14_14 C15_10 1_555 1_555
C15_10 C16_10 1_555 1_555
C16_10 C17_10 1_555 1_555
C17_10 C12_10 1_555 1_555
H1_12 C1_10 1_555 1_555
H2_12 C2_10 1_555 1_555
H3_10 C4_10 1_555 1_555
H5_10 C6_10 1_555 1_555
H6_10 C7_10 1_555 1_555
H7_12 C9_10 1_555 1_555
H8_14 C10_12 1_555 1_555
H11_10 C16_10 1_555 1_555
H12_10 C17_10 1_555 1_555
O4_8 Cu1_5 1_555 1_555
Cu2_4 O2_5 1_555 1_555
N3_7 Cu1_5 1_555 1_555
O5_9 Cu1_5 1_555 1_555
O3_6 Cu2_4 1_555 1_555
C7_10 C8_10 1_555 1_555
C9_10 C10_12 1_555 1_555
N1_6 C1_11 1_555 1_555
C1_11 C2_11 1_555 1_555
C2_11 C3_11 1_555 1_555
C3_11 C4_11 1_555 1_555
C4_11 C5_12 1_555 1_555
C5_12 N1_6 1_555 1_555
C6_11 N2_11 1_555 1_555
C7_11 C6_11 1_555 1_555
C8_11 C3_11 1_555 1_555
C9_11 C8_11 1_555 1_555
H1_13 C1_11 1_555 1_555
H2_13 C2_11 1_555 1_555
H3_11 C4_11 1_555 1_555
H4_12 C5_12 1_555 1_555
H5_11 C6_11 1_555 1_555
H6_11 C7_11 1_555 1_555
H7_13 C9_11 1_555 1_555
Cu3_5 N1_6 1_555 1_555
C7_11 C8_11 1_555 1_555
Cu1_6 O1_13 1_555 1_555
O1_13 C11_13 1_555 1_555
O4_8 C11_13 1_555 1_555
O5_9 C13_15 1_555 1_555
C11_13 C12_11 1_555 1_555
C12_11 C13_15 1_555 1_555
C13_15 C14_15 1_555 1_555
C14_15 C15_11 1_555 1_555
C15_11 C16_11 1_555 1_555
C16_11 C17_11 1_555 1_555
C17_11 C12_11 1_555 1_555
H8_15 C10_13 1_555 1_555
H9_13 C14_15 1_555 1_555
H10_9 C15_11 1_555 1_555
H11_11 C16_11 1_555 1_555
H12_11 C17_11 1_555 1_555
N3_8 Cu1_6 1_555 1_555
O5_10 Cu1_6 1_555 1_555
Cu1_7 O1_14 1_555 1_555
O1_14 C11_14 1_555 1_555
N1_7 C1_12 1_555 1_555
N2_12 Cu1_7 1_555 1_555
C1_12 C2_12 1_555 1_555
C2_12 C3_12 1_555 1_555
C3_12 C4_12 1_555 1_555
C4_12 C5_13 1_555 1_555
C5_13 N1_7 1_555 1_555
C6_12 N2_12 1_555 1_555
C7_12 C6_12 1_555 1_555
C8_12 C3_12 1_555 1_555
C9_12 C8_12 1_555 1_555
C10_14 N2_12 1_555 1_555
H1_14 C1_12 1_555 1_555
H2_14 C2_12 1_555 1_555
H3_12 C4_12 1_555 1_555
H4_13 C5_13 1_555 1_555
H5_12 C6_12 1_555 1_555
H6_12 C7_12 1_555 1_555
H7_14 C9_12 1_555 1_555
H8_16 C10_14 1_555 1_555
O4_10 Cu1_7 1_555 1_555
Cu2_4 N1_7 1_555 1_555
O5_11 Cu1_7 1_555 1_555
C7_12 C8_12 1_555 1_555
C9_12 C10_14 1_555 1_555
Cu2_4 O1_15 1_555 1_555
O1_15 C11_15 1_555 1_555
O4_9 C11_15 1_555 1_555
N3_9 C1_13 1_555 1_555
N2_13 Cu2_4 1_555 1_555
C1_13 C2_13 1_555 1_555
C2_13 C3_13 1_555 1_555
C3_13 C4_13 1_555 1_555
C4_13 C5_14 1_555 1_555
C5_14 N3_9 1_555 1_555
C6_13 N2_13 1_555 1_555
C7_13 C6_13 1_555 1_555
C8_13 C3_13 1_555 1_555
C9_13 C8_13 1_555 1_555
C10_15 N2_13 1_555 1_555
H1_15 C1_13 1_555 1_555
H2_15 C2_13 1_555 1_555
H3_13 C4_13 1_555 1_555
H4_14 C5_14 1_555 1_555
H5_13 C6_13 1_555 1_555
H6_13 C7_13 1_555 1_555
H7_15 C9_13 1_555 1_555
H8_17 C10_15 1_555 1_555
C7_13 C8_13 1_555 1_555
C9_13 C10_15 1_555 1_555
O5_10 C13_16 1_555 1_555
C12_12 C13_16 1_555 1_555
C13_16 C14_16 1_555 1_555
C14_16 C15_12 1_555 1_555
C15_12 C16_12 1_555 1_555
C16_12 C17_12 1_555 1_555
C17_12 C12_12 1_555 1_555
H9_14 C14_16 1_555 1_555
H10_10 C15_12 1_555 1_555
H11_12 C16_12 1_555 1_555
H12_12 C17_12 1_555 1_555
Cu3_5 O1_16 1_555 1_555
O1_16 C11_16 1_555 1_555
O4_10 C11_16 1_555 1_555
O5_11 C13_17 1_555 1_555
N2_14 Cu3_5 1_555 1_555
C1_14 C2_14 1_555 1_555
C2_14 C3_14 1_555 1_555
C3_14 C4_14 1_555 1_555
C6_14 N2_14 1_555 1_555
C7_14 C6_14 1_555 1_555
C8_14 C3_14 1_555 1_555
C9_14 C8_14 1_555 1_555
C10_16 N2_14 1_555 1_555
C11_16 C12_13 1_555 1_555
C12_13 C13_17 1_555 1_555
C13_17 C14_17 1_555 1_555
C14_17 C15_13 1_555 1_555
C15_13 C16_13 1_555 1_555
C16_13 C17_13 1_555 1_555
C17_13 C12_13 1_555 1_555
H3_14 C4_14 1_555 1_555
H5_14 C6_14 1_555 1_555
H6_14 C7_14 1_555 1_555
H11_13 C16_13 1_555 1_555
H12_13 C17_13 1_555 1_555
C7_14 C8_14 1_555 1_555
C9_14 C10_16 1_555 1_555
C5_15 N3_8 1_555 1_555
H4_15 C5_15 1_555 1_555
N3_7 C1_15 1_555 1_555
C1_15 C2_15 1_555 1_555
C2_15 C3_15 1_555 1_555
C3_15 C4_15 1_555 1_555
C4_15 C5_16 1_555 1_555
C5_16 N3_7 1_555 1_555
C6_15 N2_15 1_555 1_555
C7_15 C6_15 1_555 1_555
C8_15 C3_15 1_555 1_555
C9_15 C8_15 1_555 1_555
H1_16 C1_15 1_555 1_555
H2_16 C2_15 1_555 1_555
H3_15 C4_15 1_555 1_555
H4_16 C5_16 1_555 1_555
H5_15 C6_15 1_555 1_555
H6_15 C7_15 1_555 1_555
H7_16 C9_15 1_555 1_555
C7_15 C8_15 1_555 1_555
N1_8 C1_16 1_555 1_555
C1_16 C2_16 1_555 1_555
C2_16 C3_16 1_555 1_555
C3_16 C4_16 1_555 1_555
C4_16 C5_17 1_555 1_555
C5_17 N1_8 1_555 1_555
C6_16 N2_16 1_555 1_555
C7_16 C6_16 1_555 1_555
C8_16 C3_16 1_555 1_555
C9_16 C8_16 1_555 1_555
H1_17 C1_16 1_555 1_555
H2_17 C2_16 1_555 1_555
H3_16 C4_16 1_555 1_555
H4_17 C5_17 1_555 1_555
H5_16 C6_16 1_555 1_555
H6_16 C7_16 1_555 1_555
H7_17 C9_16 1_555 1_555
Cu3_6 N1_8 1_555 1_555
C7_16 C8_16 1_555 1_555
Cu1_8 O1_17 1_555 1_555
O1_17 C11_17 1_555 1_555
N1_9 C1_17 1_555 1_555
N2_17 Cu1_8 1_555 1_555
C1_17 C2_17 1_555 1_555
C2_17 C3_17 1_555 1_555
C3_17 C4_17 1_555 1_555
C4_17 C5_18 1_555 1_555
C5_18 N1_9 1_555 1_555
C6_17 N2_17 1_555 1_555
C7_17 C6_17 1_555 1_555
C8_17 C3_17 1_555 1_555
C9_17 C8_17 1_555 1_555
C10_17 N2_17 1_555 1_555
H1_18 C1_17 1_555 1_555
H2_18 C2_17 1_555 1_555
H3_17 C4_17 1_555 1_555
H4_18 C5_18 1_555 1_555
H5_17 C6_17 1_555 1_555
H6_17 C7_17 1_555 1_555
H7_18 C9_17 1_555 1_555
H8_18 C10_17 1_555 1_555
O4_12 Cu1_8 1_555 1_555
O5_12 Cu1_8 1_555 1_555
C7_17 C8_17 1_555 1_555
C9_17 C10_17 1_555 1_555
Cu3_6 O1_18 1_555 1_555
O1_18 C11_18 1_555 1_555
O4_12 C11_18 1_555 1_555
O5_12 C13_18 1_555 1_555
N2_18 Cu3_6 1_555 1_555
C1_18 C2_18 1_555 1_555
C2_18 C3_18 1_555 1_555
C3_18 C4_18 1_555 1_555
C6_18 N2_18 1_555 1_555
C7_18 C6_18 1_555 1_555
C8_18 C3_18 1_555 1_555
C9_18 C8_18 1_555 1_555
C10_18 N2_18 1_555 1_555
C11_18 C12_14 1_555 1_555
C12_14 C13_18 1_555 1_555
C13_18 C14_18 1_555 1_555
C14_18 C15_14 1_555 1_555
C15_14 C16_14 1_555 1_555
C16_14 C17_14 1_555 1_555
C17_14 C12_14 1_555 1_555
H3_18 C4_18 1_555 1_555
H5_18 C6_18 1_555 1_555
H6_18 C7_18 1_555 1_555
H11_14 C16_14 1_555 1_555
H12_14 C17_14 1_555 1_555
C7_18 C8_18 1_555 1_555
C9_18 C10_18 1_555 1_555
C15_15 C16_15 1_555 1_555
C16_15 C17_15 1_555 1_555
C17_15 C12_15 1_555 1_555
H10_12 C15_15 1_555 1_555
H11_15 C16_15 1_555 1_555
H12_15 C17_15 1_555 1_555
C15_16 C16_16 1_555 1_555
C16_16 C17_16 1_555 1_555
C17_16 C12_16 1_555 1_555
H10_13 C15_16 1_555 1_555
H11_16 C16_16 1_555 1_555
H12_16 C17_16 1_555 1_555
C15_17 C16_17 1_555 1_555
C16_17 C17_17 1_555 1_555
C17_17 C12_17 1_555 1_555
H10_17 C15_17 1_555 1_555
H11_17 C16_17 1_555 1_555
H12_17 C17_17 1_555 1_555
C15_18 C16_18 1_555 1_555
C16_18 C17_18 1_555 1_555
C17_18 C12_18 1_555 1_555
H10_18 C15_18 1_555 1_555
H11_18 C16_18 1_555 1_555
H12_18 C17_18 1_555 1_555

#END
