
###############################################################################
#
# This file contains modified crystal structure data generated from the
# MOF subset of the Cambridge Structural Database (CSD) v543 
# hosted by the Cambridge Crystallographic Data Centre (CCDC).
#
# This work is licensed under the Creative Commons
# Attribution-NonCommercial-ShareAlike 4.0 International License.
# To view a copy of this license, visit
# http://creativecommons.org/licenses/by-nc-sa/4.0/
# or send a letter to
# Creative Commons, PO Box 1866, Mountain View, CA 94042, USA.
#
# CIF created using the CSD Python API on 29 September 2022
# The structure has been converted into the P1 space group
# The structure has a 3D framework
# The original CSD entry EJONOH is in the triclinic crystal system
# The framework has been calculated to contain at least 10.0% void space
# The void calculation uses a probe of radius 1.32A, grid spacing 0.4
#
###############################################################################

data_EJONOH
_chemical_formula_moiety         '(C20 H16 Co3 N12 O12)n'
_symmetry_cell_setting           triclinic
_symmetry_space_group_name_H-M   'P 1'
_symmetry_Int_Tables_number      1
_space_group_name_Hall           'P 1'
loop_
_symmetry_equiv_pos_site_id
_symmetry_equiv_pos_as_xyz
1 x,y,z
_cell_length_a                   8.2152(4)
_cell_length_b                   8.9387(4)
_cell_length_c                   12.3961(5)
_cell_angle_alpha                109.8460(10)
_cell_angle_beta                 92.6510(10)
_cell_angle_gamma                106.7250(10)
_cell_volume                     809.464
loop_
_atom_site_label
_atom_site_type_symbol
_atom_site_fract_x
_atom_site_fract_y
_atom_site_fract_z
_atom_site_U_iso_or_equiv
_atom_site_thermal_displace_type
Co8 Co 0.03208(4) 0.05585(4) 0.17923(3) 0.0178 Uani
N2 N 0.1666(3) 0.9365(3) 0.05488(18) 0.0217 Uani
N3 N 0.2904(3) 0.8778(3) 0.0732(2) 0.0346 Uani
Co1 Co 0.5000 0.5000 0.5000 0.0149 Uani
O1 O 0.3440(4) 0.3065(3) 0.7148(3) 0.0666 Uani
O2 O 0.5482(2) 0.4415(2) 0.64035(14) 0.0199 Uani
O3 O 0.2935(2) 0.2821(2) 0.42942(15) 0.0215 Uani
O4 O 0.1617(2) 0.0193(2) 0.31100(15) 0.0234 Uani
N1 N 0.1340(3) 0.9088(3) 0.94194(17) 0.0192 Uani
N4 N 0.3400(3) 0.8094(3) 0.9715(2) 0.0338 Uani
N5 N 0.1209(3) 0.8084(3) 0.70896(19) 0.0246 Uani
N6 N 0.3280(3) 0.6296(3) 0.59386(18) 0.0198 Uani
C1 C 0.2416(3) 0.8301(3) 0.8932(2) 0.0210 Uani
C2 C 0.2377(3) 0.7732(3) 0.7675(2) 0.0215 Uani
C3 C 0.1082(4) 0.7532(4) 0.5938(2) 0.0277 Uani
H5 H 0.0290 0.7760 0.5510 0.0330 Uiso
C4 C 0.2101(3) 0.6626(3) 0.5362(2) 0.0232 Uani
H6 H 0.1960 0.6239 0.4556 0.0280 Uiso
C5 C 0.3415(3) 0.6852(3) 0.7096(2) 0.0220 Uani
H7 H 0.4227 0.6645 0.7523 0.0260 Uiso
C6 C 0.4669(3) 0.1453(3) 0.5688(2) 0.0173 Uani
C7 C 0.3920(3) 0.0649(3) 0.4514(2) 0.0173 Uani
C8 C 0.5730(3) 0.0794(3) 0.6158(2) 0.0186 Uani
H8 H 0.6219 0.1328 0.6938 0.0220 Uiso
C9 C 0.4483(3) 0.3083(3) 0.6472(2) 0.0218 Uani
C10 C 0.2750(3) 0.1279(3) 0.3938(2) 0.0170 Uani
O9 O 0.4518(2) 0.5585(2) 0.35965(14) 0.0199 Uani
O11 O 0.7065(2) 0.7179(2) 0.57058(15) 0.0215 Uani
O14 O 0.2009(3) 0.2877(2) 0.19599(17) 0.0357 Uani
H9 H 0.2654 0.3589 0.2587 0.0540 Uiso
H10 H 0.2217 0.3039 0.1337 0.0540 Uiso
N15 N 0.6720(3) 0.3704(3) 0.40614(18) 0.0198 Uani
Co7 Co 0.96792(4) 0.94415(4) 0.82077(3) 0.0178 Uani
O7 O 0.6560(4) 0.6935(3) 0.2852(3) 0.0666 Uani
O12 O 0.8383(2) 0.9807(2) 0.68900(15) 0.0234 Uani
C16 C 0.5331(3) 0.8547(3) 0.4312(2) 0.0173 Uani
C17 C 0.6080(3) 0.9351(3) 0.5486(2) 0.0173 Uani
C18 C 0.4270(3) 0.9206(3) 0.3842(2) 0.0186 Uani
H16 H 0.3781 0.8672 0.3062 0.0220 Uiso
C19 C 0.5517(3) 0.6917(3) 0.3528(2) 0.0218 Uani
C20 C 0.7250(3) 0.8721(3) 0.6062(2) 0.0170 Uani
N10 N 0.8334(3) 0.0635(3) 0.94512(18) 0.0217 Uani
O5 O 0.7991(3) 0.7123(2) 0.80401(17) 0.0357 Uani
H1 H 0.7346 0.6411 0.7413 0.0540 Uiso
H2 H 0.7783 0.6961 0.8663 0.0540 Uiso
N7 N 0.8660(3) 0.0912(3) 0.05806(17) 0.0192 Uani
N12 N 0.6600(3) 0.1906(3) 0.0285(2) 0.0338 Uani
N13 N 0.8791(3) 0.1916(3) 0.29104(19) 0.0246 Uani
C11 C 0.7584(3) 0.1699(3) 0.1068(2) 0.0210 Uani
C12 C 0.7623(3) 0.2268(3) 0.2325(2) 0.0215 Uani
C13 C 0.8918(4) 0.2468(4) 0.4062(2) 0.0277 Uani
H13 H 0.9710 0.2240 0.4490 0.0330 Uiso
C14 C 0.7899(3) 0.3374(3) 0.4638(2) 0.0232 Uani
H14 H 0.8040 0.3761 0.5444 0.0280 Uiso
C15 C 0.6585(3) 0.3148(3) 0.2904(2) 0.0220 Uani
H15 H 0.5773 0.3355 0.2477 0.0260 Uiso
N11 N 0.7096(3) 0.1222(3) 0.9268(2) 0.0346 Uani
O6 O 0.1558(3) 0.1700(3) 0.84673(19) 0.0401 Uani
H3 H 0.2004 0.1843 0.7890 0.0600 Uiso
H4 H 0.2198 0.2191 0.9128 0.0600 Uiso
O15 O 0.8442(3) 0.8300(3) 0.15327(19) 0.0401 Uani
H11 H 0.7996 0.8157 0.2110 0.0600 Uiso
H12 H 0.7802 0.7809 0.0872 0.0600 Uiso
loop_
_atom_site_aniso_label
_atom_site_aniso_U_11
_atom_site_aniso_U_22
_atom_site_aniso_U_33
_atom_site_aniso_U_23
_atom_site_aniso_U_13
_atom_site_aniso_U_12
Co8 0.01884 0.0238 0.01455 0.00705 0.00442 0.01228
N2 0.0242 0.0304 0.0153 0.0079 0.0047 0.0161
N3 0.0407 0.0562 0.0204 0.0133 0.008 0.036
Co1 0.0178 0.0154 0.0136 0.00507 0.0042 0.00852
O1 0.102 0.0414 0.083 0.0347 0.0776 0.0383
O2 0.0264 0.0169 0.0166 0.006 0.0019 0.0076
O3 0.0198 0.0175 0.0281 0.0082 -0.0007 0.0084
O4 0.027 0.021 0.0216 0.0065 -0.0042 0.0098
N1 0.0218 0.0245 0.0152 0.0071 0.0054 0.0132
N4 0.0397 0.0545 0.02 0.0121 0.0089 0.0352
N5 0.0244 0.0353 0.0206 0.0098 0.0072 0.019
N6 0.0211 0.0212 0.0195 0.0069 0.007 0.0105
C1 0.0223 0.0268 0.0189 0.0081 0.0052 0.0155
C2 0.022 0.0251 0.0201 0.0076 0.0057 0.0122
C3 0.0273 0.0441 0.019 0.0114 0.0048 0.0225
C4 0.0226 0.0309 0.0171 0.0068 0.0052 0.0122
C5 0.0251 0.0277 0.0195 0.0091 0.0064 0.0168
C6 0.017 0.0158 0.0209 0.0082 0.0052 0.0059
C7 0.0169 0.0165 0.0212 0.0097 0.0033 0.0061
C8 0.0201 0.0183 0.0166 0.0065 -0.0001 0.0056
C9 0.0282 0.0236 0.0213 0.0118 0.0092 0.0146
C10 0.0167 0.0203 0.0171 0.0085 0.0053 0.0084
O9 0.0264 0.0169 0.0166 0.006 0.0019 0.0076
O11 0.0198 0.0175 0.0281 0.0082 -0.0007 0.0084
O14 0.0394 0.0321 0.0227 0.0058 -0.004 -0.0009
N15 0.0211 0.0212 0.0195 0.0069 0.007 0.0105
Co7 0.01884 0.0238 0.01455 0.00705 0.00442 0.01228
O7 0.102 0.0414 0.083 0.0347 0.0776 0.0383
O12 0.027 0.021 0.0216 0.0065 -0.0042 0.0098
C16 0.017 0.0158 0.0209 0.0082 0.0052 0.0059
C17 0.0169 0.0165 0.0212 0.0097 0.0033 0.0061
C18 0.0201 0.0183 0.0166 0.0065 -0.0001 0.0056
C19 0.0282 0.0236 0.0213 0.0118 0.0092 0.0146
C20 0.0167 0.0203 0.0171 0.0085 0.0053 0.0084
N10 0.0242 0.0304 0.0153 0.0079 0.0047 0.0161
O5 0.0394 0.0321 0.0227 0.0058 -0.004 -0.0009
N7 0.0218 0.0245 0.0152 0.0071 0.0054 0.0132
N12 0.0397 0.0545 0.02 0.0121 0.0089 0.0352
N13 0.0244 0.0353 0.0206 0.0098 0.0072 0.019
C11 0.0223 0.0268 0.0189 0.0081 0.0052 0.0155
C12 0.022 0.0251 0.0201 0.0076 0.0057 0.0122
C13 0.0273 0.0441 0.019 0.0114 0.0048 0.0225
C14 0.0226 0.0309 0.0171 0.0068 0.0052 0.0122
C15 0.0251 0.0277 0.0195 0.0091 0.0064 0.0168
N11 0.0407 0.0562 0.0204 0.0133 0.008 0.036
O6 0.037 0.046 0.0313 0.0211 0.0017 -0.0031
O15 0.037 0.046 0.0313 0.0211 0.0017 -0.0031
loop_
_geom_bond_atom_site_label_1
_geom_bond_atom_site_label_2
_geom_bond_site_symmetry_1
_geom_bond_site_symmetry_2
N3 N2 1_555 1_555
Co1 O2 1_555 1_555
O1 C9 1_555 1_555
O2 C9 1_555 1_555
O3 Co1 1_555 1_555
O4 C10 1_555 1_555
N6 Co1 1_555 1_555
C1 N1 1_555 1_555
C2 N5 1_555 1_555
C3 N5 1_555 1_555
H5 C3 1_555 1_555
C4 N6 1_555 1_555
H6 C4 1_555 1_555
C5 N6 1_555 1_555
H7 C5 1_555 1_555
C6 C7 1_555 1_555
C7 C10 1_555 1_555
C8 C6 1_555 1_555
H8 C8 1_555 1_555
C9 C6 1_555 1_555
C10 O3 1_555 1_555
Co8 O4 1_555 1_555
O9 Co1 1_555 1_555
O11 Co1 1_555 1_555
O14 Co8 1_555 1_555
H9 O14 1_555 1_555
H10 O14 1_555 1_555
N15 Co1 1_555 1_555
N4 C1 1_555 1_555
C1 C2 1_555 1_555
C2 C5 1_555 1_555
C3 C4 1_555 1_555
Co7 O12 1_555 1_555
O7 C19 1_555 1_555
O9 C19 1_555 1_555
O12 C20 1_555 1_555
C16 C17 1_555 1_555
H16 C18 1_555 1_555
C19 C16 1_555 1_555
C20 O11 1_555 1_555
C16 C18 1_555 1_555
C17 C20 1_555 1_555
Co7 O5 1_555 1_555
O5 H1 1_555 1_555
H2 O5 1_555 1_555
N15 C14 1_555 1_555
C11 N7 1_555 1_555
C12 N13 1_555 1_555
C13 N13 1_555 1_555
H13 C13 1_555 1_555
C14 C13 1_555 1_555
H14 C14 1_555 1_555
C15 N15 1_555 1_555
H15 C15 1_555 1_555
N12 C11 1_555 1_555
C11 C12 1_555 1_555
C12 C15 1_555 1_555
N11 N10 1_555 1_555
H3 O6 1_555 1_555
H4 O6 1_555 1_555
H11 O15 1_555 1_555
H12 O15 1_555 1_555

#END
