
###############################################################################
#
# This file contains modified crystal structure data generated from the
# MOF subset of the Cambridge Structural Database (CSD) v543 
# hosted by the Cambridge Crystallographic Data Centre (CCDC).
#
# This work is licensed under the Creative Commons
# Attribution-NonCommercial-ShareAlike 4.0 International License.
# To view a copy of this license, visit
# http://creativecommons.org/licenses/by-nc-sa/4.0/
# or send a letter to
# Creative Commons, PO Box 1866, Mountain View, CA 94042, USA.
#
# CIF created using the CSD Python API on 29 September 2022
# The structure has been converted into the P1 space group
# The structure has a 3D framework
# The original CSD entry EJOQUR is in the tetragonal crystal system
# The framework has been calculated to contain at least 10.0% void space
# The void calculation uses a probe of radius 1.32A, grid spacing 0.4
# H atom positions have been added when not included in the experimental data
# Generated hydrogen atom positions removed from atoms on special positions
#
###############################################################################

data_EJOQUR
_chemical_formula_moiety         '(C256 H328 Cu44 O190)n'
_symmetry_cell_setting           triclinic
_symmetry_space_group_name_H-M   'P 1'
_symmetry_Int_Tables_number      1
_space_group_name_Hall           'P 1'
loop_
_symmetry_equiv_pos_site_id
_symmetry_equiv_pos_as_xyz
1 x,y,z
_cell_length_a                   18.5924(3)
_cell_length_b                   18.5924(3)
_cell_length_c                   42.2293(7)
_cell_angle_alpha                90
_cell_angle_beta                 90
_cell_angle_gamma                90
_cell_volume                     14597.7
loop_
_atom_site_label
_atom_site_type_symbol
_atom_site_fract_x
_atom_site_fract_y
_atom_site_fract_z
Cu1 Cu 0.05655(5) 0.05655(5) 0.39513(4)
Cu3 Cu 0.15412(7) 0.15412(7) 0.5000
Cu4 Cu 0.25497(7) 0.25497(7) 0.5000
Cu5 Cu 0.25859(4) 0.25859(4) 0.28004(3)
Cu6 Cu 0.19182(4) 0.19182(4) 0.23290(2)
C1 C 0.0052(4) 0.3224(4) 0.39385(14)
C2 C 0.0392(4) 0.2795(4) 0.41608(14)
C3 C 0.0933(4) 0.3130(4) 0.43468(15)
C4 C 0.1102(6) 0.3827(5) 0.4309(2)
H1 H 0.1467 0.4027 0.4431
C5 C 0.0728(6) 0.4268(5) 0.4084(3)
H2 H 0.0826 0.4755 0.4061
C6 C 0.0214(5) 0.3925(5) 0.39026(19)
C11 C 0.0358(3) 0.2623(4) 0.29860(14)
C12 C 0.0300(3) 0.2733(4) 0.33104(14)
H6 H 0.0704 0.2713 0.3440
C13 C 0.0206(3) 0.2011(4) 0.41618(15)
C14 C 0.1345(4) 0.2693(4) 0.45869(13)
C15 C 0.1074(3) 0.2456(3) 0.28386(13)
O1 O 0.0593(2) 0.1614(2) 0.39978(11)
O3 O 0.1082(3) 0.2134(3) 0.46826(12)
O4 O 0.1938(3) 0.2986(3) 0.46791(12)
O5 O 0.1624(2) 0.2667(2) 0.29798(10)
O6 O 0.1058(2) 0.2121(2) 0.25795(10)
O11 O 0.0690(4) 0.0690(4) 0.3408(3)
O13 O 0.0716(5) 0.0716(5) 0.5000
O14 O 0.3344(4) 0.3344(4) 0.5000
O15 O 0.3124(3) 0.3124(3) 0.31795(19)
O16 O 0.1417(3) 0.1417(3) 0.19302(15)
Cu7 Cu 0.25859(4) 0.25859(4) 0.71996(3)
Cu8 Cu 0.19182(4) 0.19182(4) 0.76710(2)
C17 C 0.3224(4) 0.0052(4) 0.60615(14)
C18 C 0.2795(4) 0.0392(4) 0.58392(14)
C19 C 0.3130(4) 0.0933(4) 0.56532(15)
C20 C 0.3827(5) 0.1102(6) 0.5691(2)
H7 H 0.4027 0.1467 0.5569
C21 C 0.4268(5) 0.0728(6) 0.5916(3)
H8 H 0.4755 0.0826 0.5939
C22 C 0.3925(5) 0.0214(5) 0.60974(19)
C27 C 0.2623(4) 0.0358(3) 0.70140(14)
C28 C 0.2733(4) 0.0300(3) 0.66896(14)
H12 H 0.2713 0.0704 0.6560
C29 C 0.2011(4) 0.0206(3) 0.58382(15)
C30 C 0.2693(4) 0.1345(4) 0.54131(13)
C31 C 0.2456(3) 0.1074(3) 0.71614(13)
O17 O 0.1614(2) 0.0593(2) 0.60022(11)
O19 O 0.2134(3) 0.1082(3) 0.53174(12)
O20 O 0.2986(3) 0.1938(3) 0.53209(12)
O21 O 0.2667(2) 0.1624(2) 0.70202(10)
O22 O 0.2121(2) 0.1058(2) 0.74205(10)
O26 O 0.3124(3) 0.3124(3) 0.68205(19)
O27 O 0.1417(3) 0.1417(3) 0.80698(15)
C33 C 0.0052(4) 0.3224(4) 0.60615(14)
C34 C 0.0392(4) 0.2795(4) 0.58392(14)
C35 C 0.0933(4) 0.3130(4) 0.56532(15)
C36 C 0.1102(6) 0.3827(5) 0.5691(2)
H13 H 0.1467 0.4027 0.5569
C37 C 0.0728(6) 0.4268(5) 0.5916(3)
H14 H 0.0826 0.4755 0.5939
C38 C 0.0214(5) 0.3925(5) 0.60974(19)
C43 C 0.0358(3) 0.2623(4) 0.70140(14)
C44 C 0.0300(3) 0.2733(4) 0.66896(14)
H18 H 0.0704 0.2713 0.6560
C45 C 0.0206(3) 0.2011(4) 0.58382(15)
C46 C 0.1345(4) 0.2693(4) 0.54131(13)
C47 C 0.1074(3) 0.2456(3) 0.71614(13)
O28 O 0.0593(2) 0.1614(2) 0.60022(11)
O30 O 0.1082(3) 0.2134(3) 0.53174(12)
O31 O 0.1938(3) 0.2986(3) 0.53209(12)
O32 O 0.1624(2) 0.2667(2) 0.70202(10)
O33 O 0.1058(2) 0.2121(2) 0.74205(10)
C49 C 0.3224(4) 0.0052(4) 0.39385(14)
C50 C 0.2795(4) 0.0392(4) 0.41608(14)
C51 C 0.3130(4) 0.0933(4) 0.43468(15)
C52 C 0.3827(5) 0.1102(6) 0.4309(2)
H19 H 0.4027 0.1467 0.4431
C53 C 0.4268(5) 0.0728(6) 0.4084(3)
H20 H 0.4755 0.0826 0.4061
C54 C 0.3925(5) 0.0214(5) 0.39026(19)
C59 C 0.2623(4) 0.0358(3) 0.29860(14)
C60 C 0.2733(4) 0.0300(3) 0.33104(14)
H24 H 0.2713 0.0704 0.3440
C61 C 0.2011(4) 0.0206(3) 0.41618(15)
C62 C 0.2693(4) 0.1345(4) 0.45869(13)
C63 C 0.2456(3) 0.1074(3) 0.28386(13)
O37 O 0.1614(2) 0.0593(2) 0.39978(11)
O39 O 0.2134(3) 0.1082(3) 0.46826(12)
O40 O 0.2986(3) 0.1938(3) 0.46791(12)
O41 O 0.2667(2) 0.1624(2) 0.29798(10)
O42 O 0.2121(2) 0.1058(2) 0.25795(10)
Cu11 Cu 0.05655(5) 0.05655(5) 0.60487(4)
O53 O 0.2423(3) 0.3451(2) 0.74570(11)
O54 O 0.3451(2) 0.2423(3) 0.25430(11)
O55 O 0.2423(3) 0.3451(2) 0.25430(11)
O56 O 0.3451(2) 0.2423(3) 0.74570(11)
O57 O 0.1851(3) 0.2880(2) 0.78546(11)
O58 O 0.2880(2) 0.1851(3) 0.21454(11)
O59 O 0.1851(3) 0.2880(2) 0.21454(11)
O60 O 0.2880(2) 0.1851(3) 0.78546(11)
H9 H 0.4189 0.9970 0.6250
C23 C 0.2872(4) 0.9629(4) 0.65635(14)
C24 C 0.2937(4) 0.9030(3) 0.67537(15)
H10 H 0.3056 0.8587 0.6666
C25 C 0.2826(4) 0.9089(3) 0.70704(15)
C26 C 0.2648(3) 0.9741(3) 0.72033(14)
H11 H 0.2544 0.9771 0.7418
C32 C 0.2847(4) 0.8423(3) 0.72699(15)
O18 O 0.1824(3) 0.9657(3) 0.56761(11)
O23 O 0.2577(3) 0.8451(2) 0.75430(11)
O24 O 0.3149(3) 0.7880(2) 0.71454(11)
O25 O 0.2909(3) 0.9506(3) 0.62403(11)
H21 H 0.4189 0.9970 0.3750
C55 C 0.2872(4) 0.9629(4) 0.34365(14)
C56 C 0.2937(4) 0.9030(3) 0.32463(15)
H22 H 0.3056 0.8587 0.3334
C57 C 0.2826(4) 0.9089(3) 0.29296(15)
C58 C 0.2648(3) 0.9741(3) 0.27967(14)
H23 H 0.2544 0.9771 0.2582
C64 C 0.2847(4) 0.8423(3) 0.27301(15)
O38 O 0.1824(3) 0.9657(3) 0.43239(11)
O43 O 0.2577(3) 0.8451(2) 0.24570(11)
O44 O 0.3149(3) 0.7880(2) 0.28546(11)
O45 O 0.2909(3) 0.9506(3) 0.37597(11)
Cu10 Cu 0.09367(10) 0.90633(10) 0.43252(6)
O46 O 0.0496(3) 0.9504(3) 0.39543(17)
O48 O 0.1319(6) 0.8681(6) 0.4725(3)
Cu12 Cu 0.09367(10) 0.90633(10) 0.56748(6)
Cu14 Cu 0.24141(4) 0.75859(4) 0.78004(3)
Cu17 Cu 0.24141(4) 0.75859(4) 0.21996(3)
Cu18 Cu 0.30818(4) 0.69182(4) 0.73290(2)
Cu21 Cu 0.30818(4) 0.69182(4) 0.26710(2)
O51 O 0.0343(3) 0.8176(3) 0.43239(11)
Cu2 Cu 0.90633(10) 0.09367(10) 0.43252(6)
H3 H 0.9970 0.4189 0.3750
C7 C 0.9629(4) 0.2872(4) 0.34365(14)
C8 C 0.9030(3) 0.2937(4) 0.32463(15)
H4 H 0.8587 0.3056 0.3334
C9 C 0.9089(3) 0.2826(4) 0.29296(15)
C10 C 0.9741(3) 0.2648(3) 0.27967(14)
H5 H 0.9771 0.2544 0.2582
C16 C 0.8423(3) 0.2847(4) 0.27301(15)
O2 O 0.9657(3) 0.1824(3) 0.43239(11)
O7 O 0.8451(2) 0.2577(3) 0.24570(11)
O8 O 0.7880(2) 0.3149(3) 0.28546(11)
O9 O 0.9506(3) 0.2909(3) 0.37597(11)
O10 O 0.9504(3) 0.0496(3) 0.39543(17)
O12 O 0.8681(6) 0.1319(6) 0.4725(3)
H15 H 0.9970 0.4189 0.6250
C39 C 0.9629(4) 0.2872(4) 0.65635(14)
C40 C 0.9030(3) 0.2937(4) 0.67537(15)
H16 H 0.8587 0.3056 0.6666
C41 C 0.9089(3) 0.2826(4) 0.70704(15)
C42 C 0.9741(3) 0.2648(3) 0.72033(14)
H17 H 0.9771 0.2544 0.7418
C48 C 0.8423(3) 0.2847(4) 0.72699(15)
O29 O 0.9657(3) 0.1824(3) 0.56761(11)
O34 O 0.8451(2) 0.2577(3) 0.75430(11)
O35 O 0.7880(2) 0.3149(3) 0.71454(11)
O36 O 0.9506(3) 0.2909(3) 0.62403(11)
Cu13 Cu 0.90633(10) 0.09367(10) 0.56748(6)
Cu15 Cu 0.75859(4) 0.24141(4) 0.78004(3)
Cu16 Cu 0.75859(4) 0.24141(4) 0.21996(3)
Cu19 Cu 0.69182(4) 0.30818(4) 0.73290(2)
Cu20 Cu 0.69182(4) 0.30818(4) 0.26710(2)
O52 O 0.8176(3) 0.0343(3) 0.43239(11)
Cu9 Cu 0.94345(5) 0.94345(5) 0.39513(4)
O47 O 0.9310(4) 0.9310(4) 0.3408(3)
O49 O 0.9407(2) 0.8386(2) 0.39978(11)
O50 O 0.8386(2) 0.9407(2) 0.39978(11)
Cu3_2 Cu 0.34588(7) 0.65412(7) 0.0000
Cu4_2 Cu 0.24503(7) 0.75497(7) 0.0000
O13_2 O 0.4284(5) 0.5716(5) 0.0000
O14_2 O 0.1656(4) 0.8344(4) 0.0000
C17_2 C 0.4948(4) 0.8224(4) 0.10615(14)
C18_2 C 0.4608(4) 0.7795(4) 0.08392(14)
C19_2 C 0.4067(4) 0.8130(4) 0.06532(15)
C20_2 C 0.3898(6) 0.8827(5) 0.0691(2)
H7_2 H 0.3533 0.9027 0.0569
C21_2 C 0.4272(6) 0.9268(5) 0.0916(3)
H8_2 H 0.4174 0.9755 0.0939
C22_2 C 0.4786(5) 0.8925(5) 0.10974(19)
H9_2 H 0.5030 0.9189 0.1250
C23_2 C 0.5371(4) 0.7872(4) 0.15635(14)
C24_2 C 0.5970(3) 0.7937(4) 0.17537(15)
H10_2 H 0.6413 0.8056 0.1666
C25_2 C 0.5911(3) 0.7826(4) 0.20704(15)
C26_2 C 0.5259(3) 0.7648(3) 0.22033(14)
H11_2 H 0.5229 0.7544 0.2418
C27_2 C 0.4642(3) 0.7623(4) 0.20140(14)
C28_2 C 0.4700(3) 0.7733(4) 0.16896(14)
H12_2 H 0.4296 0.7713 0.1560
C29_2 C 0.4794(3) 0.7011(4) 0.08382(15)
C30_2 C 0.3655(4) 0.7693(4) 0.04131(13)
C31_2 C 0.3926(3) 0.7456(3) 0.21614(13)
C32_2 C 0.6577(3) 0.7847(4) 0.22699(15)
O17_2 O 0.4407(2) 0.6614(2) 0.10022(11)
O18_2 O 0.5343(3) 0.6824(3) 0.06761(11)
O19_2 O 0.3918(3) 0.7134(3) 0.03174(12)
O20_2 O 0.3062(3) 0.7986(3) 0.03209(12)
O21_2 O 0.3376(2) 0.7667(2) 0.20202(10)
O22_2 O 0.3942(2) 0.7121(2) 0.24205(10)
O23_2 O 0.6549(2) 0.7577(3) 0.25430(11)
O24_2 O 0.7120(2) 0.8149(3) 0.21454(11)
O25_2 O 0.5494(3) 0.7909(3) 0.12403(11)
O26_2 O 0.1876(3) 0.8124(3) 0.18205(19)
O27_2 O 0.3583(3) 0.6417(3) 0.30698(15)
C33_2 C 0.1776(4) 0.5052(4) 0.10615(14)
C34_2 C 0.2205(4) 0.5392(4) 0.08392(14)
C35_2 C 0.1870(4) 0.5933(4) 0.06532(15)
C36_2 C 0.1173(5) 0.6102(6) 0.0691(2)
H13_2 H 0.0973 0.6467 0.0569
C37_2 C 0.0732(5) 0.5728(6) 0.0916(3)
H14_2 H 0.0245 0.5826 0.0939
C38_2 C 0.1075(5) 0.5214(5) 0.10974(19)
H15_2 H 0.0811 0.4970 0.1250
C39_2 C 0.2128(4) 0.4629(4) 0.15635(14)
C40_2 C 0.2063(4) 0.4030(3) 0.17537(15)
H16_2 H 0.1944 0.3587 0.1666
C41_2 C 0.2174(4) 0.4089(3) 0.20704(15)
C42_2 C 0.2352(3) 0.4741(3) 0.22033(14)
H17_2 H 0.2456 0.4771 0.2418
C43_2 C 0.2377(4) 0.5358(3) 0.20140(14)
C44_2 C 0.2267(4) 0.5300(3) 0.16896(14)
H18_2 H 0.2287 0.5704 0.1560
C45_2 C 0.2989(4) 0.5206(3) 0.08382(15)
C46_2 C 0.2307(4) 0.6345(4) 0.04131(13)
C47_2 C 0.2544(3) 0.6074(3) 0.21614(13)
C48_2 C 0.2153(4) 0.3423(3) 0.22699(15)
O28_2 O 0.3386(2) 0.5593(2) 0.10022(11)
O29_2 O 0.3176(3) 0.4657(3) 0.06761(11)
O30_2 O 0.2866(3) 0.6082(3) 0.03174(12)
O31_2 O 0.2014(3) 0.6938(3) 0.03209(12)
O32_2 O 0.2333(2) 0.6624(2) 0.20202(10)
O33_2 O 0.2879(2) 0.6058(2) 0.24205(10)
O36_2 O 0.2091(3) 0.4506(3) 0.12403(11)
Cu11_2 Cu 0.44345(5) 0.55655(5) 0.10487(4)
Cu12_2 Cu 0.59367(10) 0.59367(10) 0.06748(6)
Cu13_2 Cu 0.40633(10) 0.40633(10) 0.06748(6)
Cu14_2 Cu 0.74141(4) 0.74141(4) 0.28004(3)
Cu18_2 Cu 0.80818(4) 0.80818(4) 0.23290(2)
O53_2 O 0.1549(2) 0.7423(3) 0.24570(11)
O57_2 O 0.2120(2) 0.6851(3) 0.28546(11)
Cu1_2 Cu 0.44345(5) 0.55655(5) 0.89513(4)
Cu2_2 Cu 0.40633(10) 0.40633(10) 0.93252(6)
Cu3_3 Cu 0.34588(7) 0.65412(7) 1.0000
Cu4_3 Cu 0.24503(7) 0.75497(7) 1.0000
C1_2 C 0.1776(4) 0.5052(4) 0.89385(14)
C2_2 C 0.2205(4) 0.5392(4) 0.91608(14)
C3_2 C 0.1870(4) 0.5933(4) 0.93468(15)
C4_2 C 0.1173(5) 0.6102(6) 0.9309(2)
H1_2 H 0.0973 0.6467 0.9431
C5_2 C 0.0732(5) 0.5728(6) 0.9084(3)
H2_2 H 0.0245 0.5826 0.9061
C6_2 C 0.1075(5) 0.5214(5) 0.89026(19)
H3_2 H 0.0811 0.4970 0.8750
C7_2 C 0.2128(4) 0.4629(4) 0.84365(14)
C8_2 C 0.2063(4) 0.4030(3) 0.82463(15)
H4_2 H 0.1944 0.3587 0.8334
C9_2 C 0.2174(4) 0.4089(3) 0.79296(15)
C10_2 C 0.2352(3) 0.4741(3) 0.77967(14)
H5_2 H 0.2456 0.4771 0.7582
C11_2 C 0.2377(4) 0.5358(3) 0.79860(14)
C12_2 C 0.2267(4) 0.5300(3) 0.83104(14)
H6_2 H 0.2287 0.5704 0.8440
C13_2 C 0.2989(4) 0.5206(3) 0.91618(15)
C14_2 C 0.2307(4) 0.6345(4) 0.95869(13)
C15_2 C 0.2544(3) 0.6074(3) 0.78386(13)
C16_2 C 0.2153(4) 0.3423(3) 0.77301(15)
O1_2 O 0.3386(2) 0.5593(2) 0.89978(11)
O2_2 O 0.3176(3) 0.4657(3) 0.93239(11)
O3_2 O 0.2866(3) 0.6082(3) 0.96826(12)
O4_2 O 0.2014(3) 0.6938(3) 0.96791(12)
O5_2 O 0.2333(2) 0.6624(2) 0.79798(10)
O6_2 O 0.2879(2) 0.6058(2) 0.75795(10)
O9_2 O 0.2091(3) 0.4506(3) 0.87597(11)
O10_2 O 0.4504(3) 0.4504(3) 0.89543(17)
O11_2 O 0.4310(4) 0.5690(4) 0.8408(3)
O12_2 O 0.3681(6) 0.3681(6) 0.9725(3)
O13_3 O 0.4284(5) 0.5716(5) 1.0000
O14_3 O 0.1656(4) 0.8344(4) 1.0000
O15_2 O 0.1876(3) 0.8124(3) 0.81795(19)
O16_2 O 0.3583(3) 0.6417(3) 0.69302(15)
C49_2 C 0.4948(4) 0.8224(4) 0.89385(14)
C50_2 C 0.4608(4) 0.7795(4) 0.91608(14)
C51_2 C 0.4067(4) 0.8130(4) 0.93468(15)
C52_2 C 0.3898(6) 0.8827(5) 0.9309(2)
H19_2 H 0.3533 0.9027 0.9431
C53_2 C 0.4272(6) 0.9268(5) 0.9084(3)
H20_2 H 0.4174 0.9755 0.9061
C54_2 C 0.4786(5) 0.8925(5) 0.89026(19)
H21_2 H 0.5030 0.9189 0.8750
C55_2 C 0.5371(4) 0.7872(4) 0.84365(14)
C56_2 C 0.5970(3) 0.7937(4) 0.82463(15)
H22_2 H 0.6413 0.8056 0.8334
C57_2 C 0.5911(3) 0.7826(4) 0.79296(15)
C58_2 C 0.5259(3) 0.7648(3) 0.77967(14)
H23_2 H 0.5229 0.7544 0.7582
C59_2 C 0.4642(3) 0.7623(4) 0.79860(14)
C60_2 C 0.4700(3) 0.7733(4) 0.83104(14)
H24_2 H 0.4296 0.7713 0.8440
C61_2 C 0.4794(3) 0.7011(4) 0.91618(15)
C62_2 C 0.3655(4) 0.7693(4) 0.95869(13)
C63_2 C 0.3926(3) 0.7456(3) 0.78386(13)
C64_2 C 0.6577(3) 0.7847(4) 0.77301(15)
O37_2 O 0.4407(2) 0.6614(2) 0.89978(11)
O38_2 O 0.5343(3) 0.6824(3) 0.93239(11)
O39_2 O 0.3918(3) 0.7134(3) 0.96826(12)
O40_2 O 0.3062(3) 0.7986(3) 0.96791(12)
O41_2 O 0.3376(2) 0.7667(2) 0.79798(10)
O42_2 O 0.3942(2) 0.7121(2) 0.75795(10)
O43_2 O 0.6549(2) 0.7577(3) 0.74570(11)
O44_2 O 0.7120(2) 0.8149(3) 0.78546(11)
O45_2 O 0.5494(3) 0.7909(3) 0.87597(11)
Cu9_2 Cu 0.55655(5) 0.44345(5) 0.89513(4)
Cu10_2 Cu 0.59367(10) 0.59367(10) 0.93252(6)
O46_2 O 0.5496(3) 0.5496(3) 0.89543(17)
O47_2 O 0.5690(4) 0.4310(4) 0.8408(3)
O48_2 O 0.6319(6) 0.6319(6) 0.9725(3)
Cu17_2 Cu 0.74141(4) 0.74141(4) 0.71996(3)
Cu21_2 Cu 0.80818(4) 0.80818(4) 0.76710(2)
O49_2 O 0.6614(2) 0.4407(2) 0.89978(11)
O50_2 O 0.5593(2) 0.3386(2) 0.89978(11)
O51_2 O 0.6824(3) 0.5343(3) 0.93239(11)
O52_2 O 0.4657(3) 0.3176(3) 0.93239(11)
O55_2 O 0.1549(2) 0.7423(3) 0.75430(11)
O59_2 O 0.2120(2) 0.6851(3) 0.71454(11)
Cu3_4 Cu 0.65412(7) 0.34588(7) 0.0000
Cu4_4 Cu 0.75497(7) 0.24503(7) 0.0000
O13_4 O 0.5716(5) 0.4284(5) 0.0000
O14_4 O 0.8344(4) 0.1656(4) 0.0000
C17_3 C 0.5052(4) 0.1776(4) 0.10615(14)
C18_3 C 0.5392(4) 0.2205(4) 0.08392(14)
C19_3 C 0.5933(4) 0.1870(4) 0.06532(15)
C20_3 C 0.6102(6) 0.1173(5) 0.0691(2)
H7_3 H 0.6467 0.0973 0.0569
C21_3 C 0.5728(6) 0.0732(5) 0.0916(3)
H8_3 H 0.5826 0.0245 0.0939
C22_3 C 0.5214(5) 0.1075(5) 0.10974(19)
H9_3 H 0.4970 0.0811 0.1250
C23_3 C 0.4629(4) 0.2128(4) 0.15635(14)
C24_3 C 0.4030(3) 0.2063(4) 0.17537(15)
H10_3 H 0.3587 0.1944 0.1666
C25_3 C 0.4089(3) 0.2174(4) 0.20704(15)
C26_3 C 0.4741(3) 0.2352(3) 0.22033(14)
H11_3 H 0.4771 0.2456 0.2418
C27_3 C 0.5358(3) 0.2377(4) 0.20140(14)
C28_3 C 0.5300(3) 0.2267(4) 0.16896(14)
H12_3 H 0.5704 0.2287 0.1560
C29_3 C 0.5206(3) 0.2989(4) 0.08382(15)
C30_3 C 0.6345(4) 0.2307(4) 0.04131(13)
C31_3 C 0.6074(3) 0.2544(3) 0.21614(13)
C32_3 C 0.3423(3) 0.2153(4) 0.22699(15)
O17_3 O 0.5593(2) 0.3386(2) 0.10022(11)
O18_3 O 0.4657(3) 0.3176(3) 0.06761(11)
O19_3 O 0.6082(3) 0.2866(3) 0.03174(12)
O20_3 O 0.6938(3) 0.2014(3) 0.03209(12)
O21_3 O 0.6624(2) 0.2333(2) 0.20202(10)
O22_3 O 0.6058(2) 0.2879(2) 0.24205(10)
O25_3 O 0.4506(3) 0.2091(3) 0.12403(11)
O26_3 O 0.8124(3) 0.1876(3) 0.18205(19)
O27_3 O 0.6417(3) 0.3583(3) 0.30698(15)
C33_3 C 0.8224(4) 0.4948(4) 0.10615(14)
C34_3 C 0.7795(4) 0.4608(4) 0.08392(14)
C35_3 C 0.8130(4) 0.4067(4) 0.06532(15)
C36_3 C 0.8827(5) 0.3898(6) 0.0691(2)
H13_3 H 0.9027 0.3533 0.0569
C37_3 C 0.9268(5) 0.4272(6) 0.0916(3)
H14_3 H 0.9755 0.4174 0.0939
C38_3 C 0.8925(5) 0.4786(5) 0.10974(19)
H15_3 H 0.9189 0.5030 0.1250
C39_3 C 0.7872(4) 0.5371(4) 0.15635(14)
C40_3 C 0.7937(4) 0.5970(3) 0.17537(15)
H16_3 H 0.8056 0.6413 0.1666
C41_3 C 0.7826(4) 0.5911(3) 0.20704(15)
C42_3 C 0.7648(3) 0.5259(3) 0.22033(14)
H17_3 H 0.7544 0.5229 0.2418
C43_3 C 0.7623(4) 0.4642(3) 0.20140(14)
C44_3 C 0.7733(4) 0.4700(3) 0.16896(14)
H18_3 H 0.7713 0.4296 0.1560
C45_3 C 0.7011(4) 0.4794(3) 0.08382(15)
C46_3 C 0.7693(4) 0.3655(4) 0.04131(13)
C47_3 C 0.7456(3) 0.3926(3) 0.21614(13)
C48_3 C 0.7847(4) 0.6577(3) 0.22699(15)
O28_3 O 0.6614(2) 0.4407(2) 0.10022(11)
O29_3 O 0.6824(3) 0.5343(3) 0.06761(11)
O30_3 O 0.7134(3) 0.3918(3) 0.03174(12)
O31_3 O 0.7986(3) 0.3062(3) 0.03209(12)
O32_3 O 0.7667(2) 0.3376(2) 0.20202(10)
O33_3 O 0.7121(2) 0.3942(2) 0.24205(10)
O34_2 O 0.7577(3) 0.6549(2) 0.25430(11)
O35_2 O 0.8149(3) 0.7120(2) 0.21454(11)
O36_3 O 0.7909(3) 0.5494(3) 0.12403(11)
Cu11_3 Cu 0.55655(5) 0.44345(5) 0.10487(4)
O56_2 O 0.7423(3) 0.1549(2) 0.24570(11)
O60_2 O 0.6851(3) 0.2120(2) 0.28546(11)
Cu3_5 Cu 0.65412(7) 0.34588(7) 1.0000
Cu4_5 Cu 0.75497(7) 0.24503(7) 1.0000
C1_3 C 0.8224(4) 0.4948(4) 0.89385(14)
C2_3 C 0.7795(4) 0.4608(4) 0.91608(14)
C3_3 C 0.8130(4) 0.4067(4) 0.93468(15)
C4_3 C 0.8827(5) 0.3898(6) 0.9309(2)
H1_3 H 0.9027 0.3533 0.9431
C5_3 C 0.9268(5) 0.4272(6) 0.9084(3)
H2_3 H 0.9755 0.4174 0.9061
C6_3 C 0.8925(5) 0.4786(5) 0.89026(19)
H3_3 H 0.9189 0.5030 0.8750
C7_3 C 0.7872(4) 0.5371(4) 0.84365(14)
C8_3 C 0.7937(4) 0.5970(3) 0.82463(15)
H4_3 H 0.8056 0.6413 0.8334
C9_3 C 0.7826(4) 0.5911(3) 0.79296(15)
C10_3 C 0.7648(3) 0.5259(3) 0.77967(14)
H5_3 H 0.7544 0.5229 0.7582
C11_3 C 0.7623(4) 0.4642(3) 0.79860(14)
C12_3 C 0.7733(4) 0.4700(3) 0.83104(14)
H6_3 H 0.7713 0.4296 0.8440
C13_3 C 0.7011(4) 0.4794(3) 0.91618(15)
C14_3 C 0.7693(4) 0.3655(4) 0.95869(13)
C15_3 C 0.7456(3) 0.3926(3) 0.78386(13)
C16_3 C 0.7847(4) 0.6577(3) 0.77301(15)
O3_3 O 0.7134(3) 0.3918(3) 0.96826(12)
O4_3 O 0.7986(3) 0.3062(3) 0.96791(12)
O5_3 O 0.7667(2) 0.3376(2) 0.79798(10)
O6_3 O 0.7121(2) 0.3942(2) 0.75795(10)
O7_2 O 0.7577(3) 0.6549(2) 0.74570(11)
O8_2 O 0.8149(3) 0.7120(2) 0.78546(11)
O9_3 O 0.7909(3) 0.5494(3) 0.87597(11)
O13_5 O 0.5716(5) 0.4284(5) 1.0000
O14_5 O 0.8344(4) 0.1656(4) 1.0000
O15_3 O 0.8124(3) 0.1876(3) 0.81795(19)
O16_3 O 0.6417(3) 0.3583(3) 0.69302(15)
C49_3 C 0.5052(4) 0.1776(4) 0.89385(14)
C50_3 C 0.5392(4) 0.2205(4) 0.91608(14)
C51_3 C 0.5933(4) 0.1870(4) 0.93468(15)
C52_3 C 0.6102(6) 0.1173(5) 0.9309(2)
H19_3 H 0.6467 0.0973 0.9431
C53_3 C 0.5728(6) 0.0732(5) 0.9084(3)
H20_3 H 0.5826 0.0245 0.9061
C54_3 C 0.5214(5) 0.1075(5) 0.89026(19)
H21_3 H 0.4970 0.0811 0.8750
C55_3 C 0.4629(4) 0.2128(4) 0.84365(14)
C56_3 C 0.4030(3) 0.2063(4) 0.82463(15)
H22_3 H 0.3587 0.1944 0.8334
C57_3 C 0.4089(3) 0.2174(4) 0.79296(15)
C58_3 C 0.4741(3) 0.2352(3) 0.77967(14)
H23_3 H 0.4771 0.2456 0.7582
C59_3 C 0.5358(3) 0.2377(4) 0.79860(14)
C60_3 C 0.5300(3) 0.2267(4) 0.83104(14)
H24_3 H 0.5704 0.2287 0.8440
C61_3 C 0.5206(3) 0.2989(4) 0.91618(15)
C62_3 C 0.6345(4) 0.2307(4) 0.95869(13)
C63_3 C 0.6074(3) 0.2544(3) 0.78386(13)
C64_3 C 0.3423(3) 0.2153(4) 0.77301(15)
O39_3 O 0.6082(3) 0.2866(3) 0.96826(12)
O40_3 O 0.6938(3) 0.2014(3) 0.96791(12)
O41_3 O 0.6624(2) 0.2333(2) 0.79798(10)
O42_3 O 0.6058(2) 0.2879(2) 0.75795(10)
O45_3 O 0.4506(3) 0.2091(3) 0.87597(11)
O54_2 O 0.7423(3) 0.1549(2) 0.75430(11)
O58_2 O 0.6851(3) 0.2120(2) 0.71454(11)
O10_3 O 0.4504(3) 0.4504(3) 0.10457(17)
O11_3 O 0.5690(4) 0.4310(4) 0.1592(3)
O12_3 O 0.3681(6) 0.3681(6) 0.0275(3)
O46_3 O 0.5496(3) 0.5496(3) 0.10457(17)
O47_3 O 0.4310(4) 0.5690(4) 0.1592(3)
O48_3 O 0.6319(6) 0.6319(6) 0.0275(3)
H3_4 H 0.0030 0.5811 0.3750
C7_4 C 0.0371(4) 0.7128(4) 0.34365(14)
C8_4 C 0.0970(3) 0.7063(4) 0.32463(15)
H4_4 H 0.1413 0.6944 0.3334
C9_4 C 0.0911(3) 0.7174(4) 0.29296(15)
C10_4 C 0.0259(3) 0.7352(3) 0.27967(14)
H5_4 H 0.0229 0.7456 0.2582
C16_4 C 0.1577(3) 0.7153(4) 0.27301(15)
O9_4 O 0.0494(3) 0.7091(3) 0.37597(11)
H15_4 H 0.0030 0.5811 0.6250
C39_4 C 0.0371(4) 0.7128(4) 0.65635(14)
C40_4 C 0.0970(3) 0.7063(4) 0.67537(15)
H16_4 H 0.1413 0.6944 0.6666
C41_4 C 0.0911(3) 0.7174(4) 0.70704(15)
C42_4 C 0.0259(3) 0.7352(3) 0.72033(14)
H17_4 H 0.0229 0.7456 0.7418
C48_4 C 0.1577(3) 0.7153(4) 0.72699(15)
O29_4 O 0.0343(3) 0.8176(3) 0.56761(11)
O36_4 O 0.0494(3) 0.7091(3) 0.62403(11)
H9_4 H 0.5811 0.0030 0.6250
C23_4 C 0.7128(4) 0.0371(4) 0.65635(14)
C24_4 C 0.7063(4) 0.0970(3) 0.67537(15)
H10_4 H 0.6944 0.1413 0.6666
C25_4 C 0.7174(4) 0.0911(3) 0.70704(15)
C26_4 C 0.7352(3) 0.0259(3) 0.72033(14)
H11_4 H 0.7456 0.0229 0.7418
C32_4 C 0.7153(4) 0.1577(3) 0.72699(15)
O18_4 O 0.8176(3) 0.0343(3) 0.56761(11)
O25_4 O 0.7091(3) 0.0494(3) 0.62403(11)
H21_4 H 0.5811 0.0030 0.3750
C55_4 C 0.7128(4) 0.0371(4) 0.34365(14)
C56_4 C 0.7063(4) 0.0970(3) 0.32463(15)
H22_4 H 0.6944 0.1413 0.3334
C57_4 C 0.7174(4) 0.0911(3) 0.29296(15)
C58_4 C 0.7352(3) 0.0259(3) 0.27967(14)
H23_4 H 0.7456 0.0229 0.2582
C64_4 C 0.7153(4) 0.1577(3) 0.27301(15)
O45_4 O 0.7091(3) 0.0494(3) 0.37597(11)
Cu3_6 Cu 0.84588(7) 0.84588(7) 0.5000
Cu4_6 Cu 0.74503(7) 0.74503(7) 0.5000
C1_4 C 0.9948(4) 0.6776(4) 0.39385(14)
C2_4 C 0.9608(4) 0.7205(4) 0.41608(14)
C3_4 C 0.9067(4) 0.6870(4) 0.43468(15)
C4_4 C 0.8898(6) 0.6173(5) 0.4309(2)
H1_4 H 0.8533 0.5973 0.4431
C5_4 C 0.9272(6) 0.5732(5) 0.4084(3)
H2_4 H 0.9174 0.5245 0.4061
C6_4 C 0.9786(5) 0.6075(5) 0.39026(19)
C11_4 C 0.9642(3) 0.7377(4) 0.29860(14)
C12_4 C 0.9700(3) 0.7267(4) 0.33104(14)
H6_4 H 0.9296 0.7287 0.3440
C13_4 C 0.9794(3) 0.7989(4) 0.41618(15)
C14_4 C 0.8655(4) 0.7307(4) 0.45869(13)
C15_4 C 0.8926(3) 0.7544(3) 0.28386(13)
O3_4 O 0.8918(3) 0.7866(3) 0.46826(12)
O4_4 O 0.8062(3) 0.7014(3) 0.46791(12)
O5_4 O 0.8376(2) 0.7333(2) 0.29798(10)
O6_4 O 0.8942(2) 0.7879(2) 0.25795(10)
O13_6 O 0.9284(5) 0.9284(5) 0.5000
O14_6 O 0.6656(4) 0.6656(4) 0.5000
O15_4 O 0.6876(3) 0.6876(3) 0.31795(19)
O16_4 O 0.8583(3) 0.8583(3) 0.19302(15)
C17_4 C 0.6776(4) 0.9948(4) 0.60615(14)
C18_4 C 0.7205(4) 0.9608(4) 0.58392(14)
C19_4 C 0.6870(4) 0.9067(4) 0.56532(15)
C20_4 C 0.6173(5) 0.8898(6) 0.5691(2)
H7_4 H 0.5973 0.8533 0.5569
C21_4 C 0.5732(5) 0.9272(6) 0.5916(3)
H8_4 H 0.5245 0.9174 0.5939
C22_4 C 0.6075(5) 0.9786(5) 0.60974(19)
C27_4 C 0.7377(4) 0.9642(3) 0.70140(14)
C28_4 C 0.7267(4) 0.9700(3) 0.66896(14)
H12_4 H 0.7287 0.9296 0.6560
C29_4 C 0.7989(4) 0.9794(3) 0.58382(15)
C30_4 C 0.7307(4) 0.8655(4) 0.54131(13)
C31_4 C 0.7544(3) 0.8926(3) 0.71614(13)
O17_4 O 0.8386(2) 0.9407(2) 0.60022(11)
O19_4 O 0.7866(3) 0.8918(3) 0.53174(12)
O20_4 O 0.7014(3) 0.8062(3) 0.53209(12)
O21_4 O 0.7333(2) 0.8376(2) 0.70202(10)
O22_4 O 0.7879(2) 0.8942(2) 0.74205(10)
O26_4 O 0.6876(3) 0.6876(3) 0.68205(19)
O27_4 O 0.8583(3) 0.8583(3) 0.80698(15)
C33_4 C 0.9948(4) 0.6776(4) 0.60615(14)
C34_4 C 0.9608(4) 0.7205(4) 0.58392(14)
C35_4 C 0.9067(4) 0.6870(4) 0.56532(15)
C36_4 C 0.8898(6) 0.6173(5) 0.5691(2)
H13_4 H 0.8533 0.5973 0.5569
C37_4 C 0.9272(6) 0.5732(5) 0.5916(3)
H14_4 H 0.9174 0.5245 0.5939
C38_4 C 0.9786(5) 0.6075(5) 0.60974(19)
C43_4 C 0.9642(3) 0.7377(4) 0.70140(14)
C44_4 C 0.9700(3) 0.7267(4) 0.66896(14)
H18_4 H 0.9296 0.7287 0.6560
C45_4 C 0.9794(3) 0.7989(4) 0.58382(15)
C46_4 C 0.8655(4) 0.7307(4) 0.54131(13)
C47_4 C 0.8926(3) 0.7544(3) 0.71614(13)
O28_4 O 0.9407(2) 0.8386(2) 0.60022(11)
O30_4 O 0.8918(3) 0.7866(3) 0.53174(12)
O31_4 O 0.8062(3) 0.7014(3) 0.53209(12)
O32_4 O 0.8376(2) 0.7333(2) 0.70202(10)
O33_4 O 0.8942(2) 0.7879(2) 0.74205(10)
C49_4 C 0.6776(4) 0.9948(4) 0.39385(14)
C50_4 C 0.7205(4) 0.9608(4) 0.41608(14)
C51_4 C 0.6870(4) 0.9067(4) 0.43468(15)
C52_4 C 0.6173(5) 0.8898(6) 0.4309(2)
H19_4 H 0.5973 0.8533 0.4431
C53_4 C 0.5732(5) 0.9272(6) 0.4084(3)
H20_4 H 0.5245 0.9174 0.4061
C54_4 C 0.6075(5) 0.9786(5) 0.39026(19)
C59_4 C 0.7377(4) 0.9642(3) 0.29860(14)
C60_4 C 0.7267(4) 0.9700(3) 0.33104(14)
H24_4 H 0.7287 0.9296 0.3440
C61_4 C 0.7989(4) 0.9794(3) 0.41618(15)
C62_4 C 0.7307(4) 0.8655(4) 0.45869(13)
C63_4 C 0.7544(3) 0.8926(3) 0.28386(13)
O39_4 O 0.7866(3) 0.8918(3) 0.46826(12)
O40_4 O 0.7014(3) 0.8062(3) 0.46791(12)
O41_4 O 0.7333(2) 0.8376(2) 0.29798(10)
O42_4 O 0.7879(2) 0.8942(2) 0.25795(10)
Cu11_4 Cu 0.94345(5) 0.94345(5) 0.60487(4)
O11_4 O 0.0690(4) 0.0690(4) 0.6592(3)
O10_4 O 0.0496(3) 0.9504(3) 0.60457(17)
O12_4 O 0.1319(6) 0.8681(6) 0.5275(3)
O46_4 O 0.9504(3) 0.0496(3) 0.60457(17)
O48_4 O 0.8681(6) 0.1319(6) 0.5275(3)
O47_4 O 0.9310(4) 0.9310(4) 0.6592(3)
loop_
_geom_bond_atom_site_label_1
_geom_bond_atom_site_label_2
_geom_bond_site_symmetry_1
_geom_bond_site_symmetry_2
Cu1 O1 1_555 1_555
Cu3 Cu4 1_555 1_555
Cu4 O4 1_555 1_555
Cu5 Cu6 1_555 1_555
Cu6 O6 1_555 1_555
C1 C2 1_555 1_555
C2 C3 1_555 1_555
C3 C4 1_555 1_555
C4 H1 1_555 1_555
C5 C4 1_555 1_555
H2 C5 1_555 1_555
C6 C1 1_555 1_555
H6 C12 1_555 1_555
C13 C2 1_555 1_555
C14 C3 1_555 1_555
C15 C11 1_555 1_555
O1 C13 1_555 1_555
O3 Cu3 1_555 1_555
O4 C14 1_555 1_555
O5 Cu5 1_555 1_555
O6 C15 1_555 1_555
O11 Cu1 1_555 1_555
O13 Cu3 1_555 1_555
O14 Cu4 1_555 1_555
O15 Cu5 1_555 1_555
O16 Cu6 1_555 1_555
Cu7 Cu8 1_555 1_555
Cu8 O22 1_555 1_555
C17 C18 1_555 1_555
C18 C19 1_555 1_555
C19 C20 1_555 1_555
C20 H7 1_555 1_555
C21 C20 1_555 1_555
H8 C21 1_555 1_555
C22 C17 1_555 1_555
H12 C28 1_555 1_555
C29 C18 1_555 1_555
C30 C19 1_555 1_555
C31 C27 1_555 1_555
O17 C29 1_555 1_555
O19 Cu3 1_555 1_555
O20 Cu4 1_555 1_555
O21 Cu7 1_555 1_555
O22 C31 1_555 1_555
O26 Cu7 1_555 1_555
O27 Cu8 1_555 1_555
C33 C34 1_555 1_555
C34 C35 1_555 1_555
C35 C36 1_555 1_555
C36 H13 1_555 1_555
C37 C36 1_555 1_555
H14 C37 1_555 1_555
C38 C33 1_555 1_555
H18 C44 1_555 1_555
C45 C34 1_555 1_555
C46 C35 1_555 1_555
C47 C43 1_555 1_555
O28 C45 1_555 1_555
O30 Cu3 1_555 1_555
O31 Cu4 1_555 1_555
O32 Cu7 1_555 1_555
O33 Cu8 1_555 1_555
C49 C50 1_555 1_555
C50 C51 1_555 1_555
C51 C52 1_555 1_555
C52 H19 1_555 1_555
C53 C52 1_555 1_555
H20 C53 1_555 1_555
C54 C49 1_555 1_555
H24 C60 1_555 1_555
C61 C50 1_555 1_555
C62 C51 1_555 1_555
C63 C59 1_555 1_555
O37 Cu1 1_555 1_555
O39 Cu3 1_555 1_555
O40 Cu4 1_555 1_555
O41 Cu5 1_555 1_555
O42 Cu6 1_555 1_555
Cu11 O17 1_555 1_555
O53 Cu7 1_555 1_555
O54 Cu5 1_555 1_555
O55 Cu5 1_555 1_555
O56 Cu7 1_555 1_555
O57 Cu8 1_555 1_555
O58 Cu6 1_555 1_555
O59 Cu6 1_555 1_555
O60 Cu8 1_555 1_555
C5 C6 1_555 1_555
C11 C12 1_555 1_555
C14 O3 1_555 1_555
C15 O5 1_555 1_555
C21 C22 1_555 1_555
C27 C28 1_555 1_555
C30 O19 1_555 1_555
C30 O20 1_555 1_555
C31 O21 1_555 1_555
C37 C38 1_555 1_555
C43 C44 1_555 1_555
C46 O30 1_555 1_555
C46 O31 1_555 1_555
C47 O32 1_555 1_555
C47 O33 1_555 1_555
O28 Cu11 1_555 1_555
C53 C54 1_555 1_555
C59 C60 1_555 1_555
C61 O37 1_555 1_555
C62 O39 1_555 1_555
C62 O40 1_555 1_555
C63 O41 1_555 1_555
C63 O42 1_555 1_555
C23 C24 1_555 1_555
C24 H10 1_555 1_555
C25 C24 1_555 1_555
C26 C25 1_555 1_555
H11 C26 1_555 1_555
C32 C25 1_555 1_555
O23 C32 1_555 1_555
O24 C32 1_555 1_555
C55 C56 1_555 1_555
C56 H22 1_555 1_555
C57 C56 1_555 1_555
C58 C57 1_555 1_555
H23 C58 1_555 1_555
C64 C57 1_555 1_555
O43 C64 1_555 1_555
O44 C64 1_555 1_555
Cu10 O38 1_555 1_555
O48 Cu10 1_555 1_555
Cu12 O18 1_555 1_555
Cu14 O23 1_555 1_555
Cu17 O43 1_555 1_555
Cu18 O24 1_555 1_555
Cu21 O44 1_555 1_555
O51 Cu10 1_555 1_555
C23 O25 1_555 1_555
C55 O45 1_555 1_555
Cu10 O46 1_555 1_555
Cu14 Cu18 1_555 1_555
Cu17 Cu21 1_555 1_555
Cu2 O2 1_555 1_555
C7 C8 1_555 1_555
C8 H4 1_555 1_555
C9 C8 1_555 1_555
C10 C9 1_555 1_555
H5 C10 1_555 1_555
C16 C9 1_555 1_555
O7 C16 1_555 1_555
O8 C16 1_555 1_555
O12 Cu2 1_555 1_555
C39 C40 1_555 1_555
C40 H16 1_555 1_555
C41 C40 1_555 1_555
C42 C41 1_555 1_555
H17 C42 1_555 1_555
C48 C41 1_555 1_555
O34 C48 1_555 1_555
O35 C48 1_555 1_555
Cu13 O29 1_555 1_555
Cu15 O34 1_555 1_555
Cu16 O7 1_555 1_555
Cu19 O35 1_555 1_555
Cu20 O8 1_555 1_555
O52 Cu2 1_555 1_555
Cu2 O10 1_555 1_555
C7 O9 1_555 1_555
C39 O36 1_555 1_555
Cu15 Cu19 1_555 1_555
Cu16 Cu20 1_555 1_555
O47 Cu9 1_555 1_555
O49 Cu9 1_555 1_555
O50 Cu9 1_555 1_555
Cu3_2 Cu4_2 1_555 1_555
O13_2 Cu3_2 1_555 1_555
O14_2 Cu4_2 1_555 1_555
Cu21 O22_2 1_555 1_555
C17_2 C18_2 1_555 1_555
C18_2 C19_2 1_555 1_555
C19_2 C20_2 1_555 1_555
C20_2 H7_2 1_555 1_555
C21_2 C20_2 1_555 1_555
H8_2 C21_2 1_555 1_555
C22_2 C17_2 1_555 1_555
H9_2 C22_2 1_555 1_555
C23_2 C24_2 1_555 1_555
C24_2 H10_2 1_555 1_555
C25_2 C24_2 1_555 1_555
C26_2 C25_2 1_555 1_555
H11_2 C26_2 1_555 1_555
C27_2 C26_2 1_555 1_555
C28_2 C23_2 1_555 1_555
H12_2 C28_2 1_555 1_555
C29_2 C18_2 1_555 1_555
C30_2 C19_2 1_555 1_555
C31_2 C27_2 1_555 1_555
C32_2 C25_2 1_555 1_555
O17_2 C29_2 1_555 1_555
O18_2 C29_2 1_555 1_555
O19_2 Cu3_2 1_555 1_555
O20_2 Cu4_2 1_555 1_555
O21_2 Cu17 1_555 1_555
O22_2 C31_2 1_555 1_555
O23_2 C32_2 1_555 1_555
O24_2 C32_2 1_555 1_555
O25_2 C17_2 1_555 1_555
O26_2 Cu17 1_555 1_555
O27_2 Cu21 1_555 1_555
C33_2 C34_2 1_555 1_555
C34_2 C35_2 1_555 1_555
C35_2 C36_2 1_555 1_555
C36_2 H13_2 1_555 1_555
C37_2 C36_2 1_555 1_555
H14_2 C37_2 1_555 1_555
C38_2 C33_2 1_555 1_555
H15_2 C38_2 1_555 1_555
C39_2 C40_2 1_555 1_555
C40_2 H16_2 1_555 1_555
C41_2 C40_2 1_555 1_555
C42_2 C41_2 1_555 1_555
H17_2 C42_2 1_555 1_555
C43_2 C42_2 1_555 1_555
C44_2 C39_2 1_555 1_555
H18_2 C44_2 1_555 1_555
C45_2 C34_2 1_555 1_555
C46_2 C35_2 1_555 1_555
C47_2 C43_2 1_555 1_555
C48_2 C41_2 1_555 1_555
O28_2 C45_2 1_555 1_555
O29_2 C45_2 1_555 1_555
O30_2 Cu3_2 1_555 1_555
O31_2 Cu4_2 1_555 1_555
O32_2 Cu17 1_555 1_555
O33_2 Cu21 1_555 1_555
O55 C48_2 1_555 1_555
O59 C48_2 1_555 1_555
O36_2 C33_2 1_555 1_555
Cu11_2 O17_2 1_555 1_555
Cu12_2 O18_2 1_555 1_555
Cu13_2 O29_2 1_555 1_555
Cu14_2 O23_2 1_555 1_555
Cu18_2 O24_2 1_555 1_555
O53_2 Cu17 1_555 1_555
O57_2 Cu21 1_555 1_555
C21_2 C22_2 1_555 1_555
C23_2 O25_2 1_555 1_555
C27_2 C28_2 1_555 1_555
C30_2 O19_2 1_555 1_555
C30_2 O20_2 1_555 1_555
C31_2 O21_2 1_555 1_555
C37_2 C38_2 1_555 1_555
C39_2 O36_2 1_555 1_555
C43_2 C44_2 1_555 1_555
C46_2 O30_2 1_555 1_555
C46_2 O31_2 1_555 1_555
C47_2 O32_2 1_555 1_555
C47_2 O33_2 1_555 1_555
O28_2 Cu11_2 1_555 1_555
Cu14_2 Cu18_2 1_555 1_555
Cu1_2 O1_2 1_555 1_555
Cu2_2 O2_2 1_555 1_555
Cu3_3 Cu4_3 1_555 1_555
Cu4_3 O4_2 1_555 1_555
Cu18 O6_2 1_555 1_555
C1_2 C2_2 1_555 1_555
C2_2 C3_2 1_555 1_555
C3_2 C4_2 1_555 1_555
C4_2 H1_2 1_555 1_555
C5_2 C4_2 1_555 1_555
H2_2 C5_2 1_555 1_555
C6_2 C1_2 1_555 1_555
H3_2 C6_2 1_555 1_555
C7_2 C8_2 1_555 1_555
C8_2 H4_2 1_555 1_555
C9_2 C8_2 1_555 1_555
C10_2 C9_2 1_555 1_555
H5_2 C10_2 1_555 1_555
C11_2 C10_2 1_555 1_555
C12_2 C7_2 1_555 1_555
H6_2 C12_2 1_555 1_555
C13_2 C2_2 1_555 1_555
C14_2 C3_2 1_555 1_555
C15_2 C11_2 1_555 1_555
C16_2 C9_2 1_555 1_555
O1_2 C13_2 1_555 1_555
O2_2 C13_2 1_555 1_555
O3_2 Cu3_3 1_555 1_555
O4_2 C14_2 1_555 1_555
O5_2 Cu14 1_555 1_555
O6_2 C15_2 1_555 1_555
O53 C16_2 1_555 1_555
O57 C16_2 1_555 1_555
O9_2 C1_2 1_555 1_555
O10_2 Cu1_2 1_555 1_555
O11_2 Cu1_2 1_555 1_555
O12_2 Cu2_2 1_555 1_555
O13_3 Cu3_3 1_555 1_555
O14_3 Cu4_3 1_555 1_555
O15_2 Cu14 1_555 1_555
O16_2 Cu18 1_555 1_555
C49_2 C50_2 1_555 1_555
C50_2 C51_2 1_555 1_555
C51_2 C52_2 1_555 1_555
C52_2 H19_2 1_555 1_555
C53_2 C52_2 1_555 1_555
H20_2 C53_2 1_555 1_555
C54_2 C49_2 1_555 1_555
H21_2 C54_2 1_555 1_555
C55_2 C56_2 1_555 1_555
C56_2 H22_2 1_555 1_555
C57_2 C56_2 1_555 1_555
C58_2 C57_2 1_555 1_555
H23_2 C58_2 1_555 1_555
C59_2 C58_2 1_555 1_555
C60_2 C55_2 1_555 1_555
H24_2 C60_2 1_555 1_555
C61_2 C50_2 1_555 1_555
C62_2 C51_2 1_555 1_555
C63_2 C59_2 1_555 1_555
C64_2 C57_2 1_555 1_555
O37_2 Cu1_2 1_555 1_555
O38_2 C61_2 1_555 1_555
O39_2 Cu3_3 1_555 1_555
O40_2 Cu4_3 1_555 1_555
O41_2 Cu14 1_555 1_555
O42_2 Cu18 1_555 1_555
O43_2 C64_2 1_555 1_555
O44_2 C64_2 1_555 1_555
O45_2 C49_2 1_555 1_555
Cu9_2 O10_2 1_555 1_555
Cu10_2 O38_2 1_555 1_555
O46_2 Cu1_2 1_555 1_555
O47_2 Cu9_2 1_555 1_555
O48_2 Cu10_2 1_555 1_555
Cu17_2 O43_2 1_555 1_555
Cu21_2 O44_2 1_555 1_555
O49_2 Cu9_2 1_555 1_555
O50_2 Cu9_2 1_555 1_555
O51_2 Cu10_2 1_555 1_555
O52_2 Cu2_2 1_555 1_555
O55_2 Cu14 1_555 1_555
O59_2 Cu18 1_555 1_555
Cu2_2 O10_2 1_555 1_555
C5_2 C6_2 1_555 1_555
C7_2 O9_2 1_555 1_555
C11_2 C12_2 1_555 1_555
C14_2 O3_2 1_555 1_555
C15_2 O5_2 1_555 1_555
C53_2 C54_2 1_555 1_555
C55_2 O45_2 1_555 1_555
C59_2 C60_2 1_555 1_555
C61_2 O37_2 1_555 1_555
C62_2 O39_2 1_555 1_555
C62_2 O40_2 1_555 1_555
C63_2 O41_2 1_555 1_555
C63_2 O42_2 1_555 1_555
Cu9_2 O46_2 1_555 1_555
Cu10_2 O46_2 1_555 1_555
Cu17_2 Cu21_2 1_555 1_555
Cu3_4 Cu4_4 1_555 1_555
O13_4 Cu3_4 1_555 1_555
O14_4 Cu4_4 1_555 1_555
Cu20 O22_3 1_555 1_555
C17_3 C18_3 1_555 1_555
C18_3 C19_3 1_555 1_555
C19_3 C20_3 1_555 1_555
C20_3 H7_3 1_555 1_555
C21_3 C20_3 1_555 1_555
H8_3 C21_3 1_555 1_555
C22_3 C17_3 1_555 1_555
H9_3 C22_3 1_555 1_555
C23_3 C24_3 1_555 1_555
C24_3 H10_3 1_555 1_555
C25_3 C24_3 1_555 1_555
C26_3 C25_3 1_555 1_555
H11_3 C26_3 1_555 1_555
C27_3 C26_3 1_555 1_555
C28_3 C23_3 1_555 1_555
H12_3 C28_3 1_555 1_555
C29_3 C18_3 1_555 1_555
C30_3 C19_3 1_555 1_555
C31_3 C27_3 1_555 1_555
C32_3 C25_3 1_555 1_555
O17_3 C29_3 1_555 1_555
O18_3 C29_3 1_555 1_555
O19_3 Cu3_4 1_555 1_555
O20_3 Cu4_4 1_555 1_555
O21_3 Cu16 1_555 1_555
O22_3 C31_3 1_555 1_555
O54 C32_3 1_555 1_555
O58 C32_3 1_555 1_555
O25_3 C17_3 1_555 1_555
O26_3 Cu16 1_555 1_555
O27_3 Cu20 1_555 1_555
C33_3 C34_3 1_555 1_555
C34_3 C35_3 1_555 1_555
C35_3 C36_3 1_555 1_555
C36_3 H13_3 1_555 1_555
C37_3 C36_3 1_555 1_555
H14_3 C37_3 1_555 1_555
C38_3 C33_3 1_555 1_555
H15_3 C38_3 1_555 1_555
C39_3 C40_3 1_555 1_555
C40_3 H16_3 1_555 1_555
C41_3 C40_3 1_555 1_555
C42_3 C41_3 1_555 1_555
H17_3 C42_3 1_555 1_555
C43_3 C42_3 1_555 1_555
C44_3 C39_3 1_555 1_555
H18_3 C44_3 1_555 1_555
C45_3 C34_3 1_555 1_555
C46_3 C35_3 1_555 1_555
C47_3 C43_3 1_555 1_555
C48_3 C41_3 1_555 1_555
O28_3 C45_3 1_555 1_555
O29_3 C45_3 1_555 1_555
O30_3 Cu3_4 1_555 1_555
O31_3 Cu4_4 1_555 1_555
O32_3 Cu16 1_555 1_555
O33_3 Cu20 1_555 1_555
O34_2 C48_3 1_555 1_555
O35_2 C48_3 1_555 1_555
O36_3 C33_3 1_555 1_555
Cu11_3 O17_3 1_555 1_555
Cu13_2 O18_3 1_555 1_555
Cu12_2 O29_3 1_555 1_555
Cu14_2 O34_2 1_555 1_555
Cu18_2 O35_2 1_555 1_555
O56_2 Cu16 1_555 1_555
O60_2 Cu20 1_555 1_555
C21_3 C22_3 1_555 1_555
C23_3 O25_3 1_555 1_555
C27_3 C28_3 1_555 1_555
C30_3 O19_3 1_555 1_555
C30_3 O20_3 1_555 1_555
C31_3 O21_3 1_555 1_555
C37_3 C38_3 1_555 1_555
C39_3 O36_3 1_555 1_555
C43_3 C44_3 1_555 1_555
C46_3 O30_3 1_555 1_555
C46_3 O31_3 1_555 1_555
C47_3 O32_3 1_555 1_555
C47_3 O33_3 1_555 1_555
O28_3 Cu11_3 1_555 1_555
Cu3_5 Cu4_5 1_555 1_555
Cu4_5 O4_3 1_555 1_555
Cu19 O6_3 1_555 1_555
C1_3 C2_3 1_555 1_555
C2_3 C3_3 1_555 1_555
C3_3 C4_3 1_555 1_555
C4_3 H1_3 1_555 1_555
C5_3 C4_3 1_555 1_555
H2_3 C5_3 1_555 1_555
C6_3 C1_3 1_555 1_555
H3_3 C6_3 1_555 1_555
C7_3 C8_3 1_555 1_555
C8_3 H4_3 1_555 1_555
C9_3 C8_3 1_555 1_555
C10_3 C9_3 1_555 1_555
H5_3 C10_3 1_555 1_555
C11_3 C10_3 1_555 1_555
C12_3 C7_3 1_555 1_555
H6_3 C12_3 1_555 1_555
C13_3 C2_3 1_555 1_555
C14_3 C3_3 1_555 1_555
C15_3 C11_3 1_555 1_555
C16_3 C9_3 1_555 1_555
O49_2 C13_3 1_555 1_555
O51_2 C13_3 1_555 1_555
O3_3 Cu3_5 1_555 1_555
O4_3 C14_3 1_555 1_555
O5_3 Cu15 1_555 1_555
O6_3 C15_3 1_555 1_555
O7_2 C16_3 1_555 1_555
O8_2 C16_3 1_555 1_555
O9_3 C1_3 1_555 1_555
O13_5 Cu3_5 1_555 1_555
O14_5 Cu4_5 1_555 1_555
O15_3 Cu15 1_555 1_555
O16_3 Cu19 1_555 1_555
C49_3 C50_3 1_555 1_555
C50_3 C51_3 1_555 1_555
C51_3 C52_3 1_555 1_555
C52_3 H19_3 1_555 1_555
C53_3 C52_3 1_555 1_555
H20_3 C53_3 1_555 1_555
C54_3 C49_3 1_555 1_555
H21_3 C54_3 1_555 1_555
C55_3 C56_3 1_555 1_555
C56_3 H22_3 1_555 1_555
C57_3 C56_3 1_555 1_555
C58_3 C57_3 1_555 1_555
H23_3 C58_3 1_555 1_555
C59_3 C58_3 1_555 1_555
C60_3 C55_3 1_555 1_555
H24_3 C60_3 1_555 1_555
C61_3 C50_3 1_555 1_555
C62_3 C51_3 1_555 1_555
C63_3 C59_3 1_555 1_555
C64_3 C57_3 1_555 1_555
O52_2 C61_3 1_555 1_555
O39_3 Cu3_5 1_555 1_555
O40_3 Cu4_5 1_555 1_555
O41_3 Cu15 1_555 1_555
O42_3 Cu19 1_555 1_555
O56 C64_3 1_555 1_555
O60 C64_3 1_555 1_555
O45_3 C49_3 1_555 1_555
Cu17_2 O7_2 1_555 1_555
Cu21_2 O8_2 1_555 1_555
O54_2 Cu15 1_555 1_555
O58_2 Cu19 1_555 1_555
C5_3 C6_3 1_555 1_555
C7_3 O9_3 1_555 1_555
C11_3 C12_3 1_555 1_555
C14_3 O3_3 1_555 1_555
C15_3 O5_3 1_555 1_555
C53_3 C54_3 1_555 1_555
C55_3 O45_3 1_555 1_555
C59_3 C60_3 1_555 1_555
C61_3 O50_2 1_555 1_555
C62_3 O39_3 1_555 1_555
C62_3 O40_3 1_555 1_555
C63_3 O41_3 1_555 1_555
C63_3 O42_3 1_555 1_555
O10_3 Cu11_3 1_555 1_555
O11_3 Cu11_3 1_555 1_555
O12_3 Cu13_2 1_555 1_555
Cu11_2 O10_3 1_555 1_555
O46_3 Cu11_3 1_555 1_555
O47_3 Cu11_2 1_555 1_555
O48_3 Cu12_2 1_555 1_555
Cu13_2 O10_3 1_555 1_555
Cu11_2 O46_3 1_555 1_555
Cu12_2 O46_3 1_555 1_555
C7_4 C8_4 1_555 1_555
C8_4 H4_4 1_555 1_555
C9_4 C8_4 1_555 1_555
C10_4 C9_4 1_555 1_555
H5_4 C10_4 1_555 1_555
C16_4 C9_4 1_555 1_555
O53_2 C16_4 1_555 1_555
O57_2 C16_4 1_555 1_555
C39_4 C40_4 1_555 1_555
C40_4 H16_4 1_555 1_555
C41_4 C40_4 1_555 1_555
C42_4 C41_4 1_555 1_555
H17_4 C42_4 1_555 1_555
C48_4 C41_4 1_555 1_555
O55_2 C48_4 1_555 1_555
O59_2 C48_4 1_555 1_555
Cu12 O29_4 1_555 1_555
C7_4 O9_4 1_555 1_555
C39_4 O36_4 1_555 1_555
C23_4 C24_4 1_555 1_555
C24_4 H10_4 1_555 1_555
C25_4 C24_4 1_555 1_555
C26_4 C25_4 1_555 1_555
H11_4 C26_4 1_555 1_555
C32_4 C25_4 1_555 1_555
O54_2 C32_4 1_555 1_555
O58_2 C32_4 1_555 1_555
C55_4 C56_4 1_555 1_555
C56_4 H22_4 1_555 1_555
C57_4 C56_4 1_555 1_555
C58_4 C57_4 1_555 1_555
H23_4 C58_4 1_555 1_555
C64_4 C57_4 1_555 1_555
O56_2 C64_4 1_555 1_555
O60_2 C64_4 1_555 1_555
Cu13 O18_4 1_555 1_555
C23_4 O25_4 1_555 1_555
C55_4 O45_4 1_555 1_555
Cu3_6 Cu4_6 1_555 1_555
Cu4_6 O4_4 1_555 1_555
Cu18_2 O6_4 1_555 1_555
C1_4 C2_4 1_555 1_555
C2_4 C3_4 1_555 1_555
C3_4 C4_4 1_555 1_555
C4_4 H1_4 1_555 1_555
C5_4 C4_4 1_555 1_555
H2_4 C5_4 1_555 1_555
C6_4 C1_4 1_555 1_555
H6_4 C12_4 1_555 1_555
C13_4 C2_4 1_555 1_555
C14_4 C3_4 1_555 1_555
C15_4 C11_4 1_555 1_555
O49 C13_4 1_555 1_555
O3_4 Cu3_6 1_555 1_555
O4_4 C14_4 1_555 1_555
O5_4 Cu14_2 1_555 1_555
O6_4 C15_4 1_555 1_555
O13_6 Cu3_6 1_555 1_555
O14_6 Cu4_6 1_555 1_555
O15_4 Cu14_2 1_555 1_555
O16_4 Cu18_2 1_555 1_555
Cu21_2 O22_4 1_555 1_555
C17_4 C18_4 1_555 1_555
C18_4 C19_4 1_555 1_555
C19_4 C20_4 1_555 1_555
C20_4 H7_4 1_555 1_555
C21_4 C20_4 1_555 1_555
H8_4 C21_4 1_555 1_555
C22_4 C17_4 1_555 1_555
H12_4 C28_4 1_555 1_555
C29_4 C18_4 1_555 1_555
C30_4 C19_4 1_555 1_555
C31_4 C27_4 1_555 1_555
O17_4 C29_4 1_555 1_555
O19_4 Cu3_6 1_555 1_555
O20_4 Cu4_6 1_555 1_555
O21_4 Cu17_2 1_555 1_555
O22_4 C31_4 1_555 1_555
O26_4 Cu17_2 1_555 1_555
O27_4 Cu21_2 1_555 1_555
C33_4 C34_4 1_555 1_555
C34_4 C35_4 1_555 1_555
C35_4 C36_4 1_555 1_555
C36_4 H13_4 1_555 1_555
C37_4 C36_4 1_555 1_555
H14_4 C37_4 1_555 1_555
C38_4 C33_4 1_555 1_555
H18_4 C44_4 1_555 1_555
C45_4 C34_4 1_555 1_555
C46_4 C35_4 1_555 1_555
C47_4 C43_4 1_555 1_555
O28_4 C45_4 1_555 1_555
O30_4 Cu3_6 1_555 1_555
O31_4 Cu4_6 1_555 1_555
O32_4 Cu17_2 1_555 1_555
O33_4 Cu21_2 1_555 1_555
C49_4 C50_4 1_555 1_555
C50_4 C51_4 1_555 1_555
C51_4 C52_4 1_555 1_555
C52_4 H19_4 1_555 1_555
C53_4 C52_4 1_555 1_555
H20_4 C53_4 1_555 1_555
C54_4 C49_4 1_555 1_555
H24_4 C60_4 1_555 1_555
C61_4 C50_4 1_555 1_555
C62_4 C51_4 1_555 1_555
C63_4 C59_4 1_555 1_555
O39_4 Cu3_6 1_555 1_555
O40_4 Cu4_6 1_555 1_555
O41_4 Cu14_2 1_555 1_555
O42_4 Cu18_2 1_555 1_555
Cu11_4 O17_4 1_555 1_555
C5_4 C6_4 1_555 1_555
C11_4 C12_4 1_555 1_555
C14_4 O3_4 1_555 1_555
C15_4 O5_4 1_555 1_555
C21_4 C22_4 1_555 1_555
C27_4 C28_4 1_555 1_555
C30_4 O19_4 1_555 1_555
C30_4 O20_4 1_555 1_555
C31_4 O21_4 1_555 1_555
C37_4 C38_4 1_555 1_555
C43_4 C44_4 1_555 1_555
C46_4 O30_4 1_555 1_555
C46_4 O31_4 1_555 1_555
C47_4 O32_4 1_555 1_555
C47_4 O33_4 1_555 1_555
O28_4 Cu11_4 1_555 1_555
C53_4 C54_4 1_555 1_555
C59_4 C60_4 1_555 1_555
C61_4 O50 1_555 1_555
C62_4 O39_4 1_555 1_555
C62_4 O40_4 1_555 1_555
C63_4 O41_4 1_555 1_555
C63_4 O42_4 1_555 1_555
O11_4 Cu11 1_555 1_555
O12_4 Cu12 1_555 1_555
Cu12 O10_4 1_555 1_555
O48_4 Cu13 1_555 1_555
Cu13 O46_4 1_555 1_555
O47_4 Cu11_4 1_555 1_555

#END
