
###############################################################################
#
# This file contains modified crystal structure data generated from the
# MOF subset of the Cambridge Structural Database (CSD) v543 
# hosted by the Cambridge Crystallographic Data Centre (CCDC).
#
# This work is licensed under the Creative Commons
# Attribution-NonCommercial-ShareAlike 4.0 International License.
# To view a copy of this license, visit
# http://creativecommons.org/licenses/by-nc-sa/4.0/
# or send a letter to
# Creative Commons, PO Box 1866, Mountain View, CA 94042, USA.
#
# CIF created using the CSD Python API on 29 September 2022
# The structure has been converted into the P1 space group
# The structure has a 3D framework
# The original CSD entry EJORAY is in the triclinic crystal system
# The framework has been calculated to contain at least 10.0% void space
# The void calculation uses a probe of radius 1.32A, grid spacing 0.4
# H atom positions have been added when not included in the experimental data
# Generated hydrogen atom positions removed from atoms on special positions
#
###############################################################################

data_EJORAY
_chemical_formula_moiety         '(C32 H26 Cu8 O23)n'
_symmetry_cell_setting           triclinic
_symmetry_space_group_name_H-M   'P 1'
_symmetry_Int_Tables_number      1
_space_group_name_Hall           'P 1'
loop_
_symmetry_equiv_pos_site_id
_symmetry_equiv_pos_as_xyz
1 x,y,z
_cell_length_a                   10.788(3)
_cell_length_b                   11.252(3)
_cell_length_c                   11.840(3)
_cell_angle_alpha                100.854(3)
_cell_angle_beta                 110.289(3)
_cell_angle_gamma                99.777(3)
_cell_volume                     1280.08
loop_
_atom_site_label
_atom_site_type_symbol
_atom_site_fract_x
_atom_site_fract_y
_atom_site_fract_z
Cu3 Cu 0.5000 0.0000 0.0000
O12 O 0.3686(4) 0.0613(4) 0.0587(3)
O29 O 0.6156(2) 0.01364(19) 0.16966(18)
H12 H 0.403117 0.0781051 0.151059
C21 C 0.7656(3) 0.0274(3) 0.4158(2)
H7 H 0.7477 0.1000 0.3943
C22 C 0.8520(3) 0.0360(2) 0.5379(2)
H16 H 0.899809 0.126233 0.607285
H19 H 0.336472 0.00364565 0.102564
Cu3_2 Cu 0.5000 0.0000 1.0000
C1 C 0.1248(2) 0.0737(2) 0.4317(2)
C2 C 0.1822(3) 0.1882(2) 0.5183(2)
H1 H 0.1650 0.2603 0.4955
C3 C 0.2668(3) 0.1959(2) 0.6409(2)
C4 C 0.2942(3) 0.0864(2) 0.6740(2)
C7 C 0.0388(2) 0.1636(2) 0.2616(2)
C8 C 0.1508(2) 0.2127(2) 0.2384(2)
H3 H 0.2287 0.1830 0.2627
C9 C 0.1450(2) 0.3071(2) 0.1780(2)
C10 C 0.0291(2) 0.3519(2) 0.1426(2)
H4 H 0.0247 0.4135 0.0999
C13 C 0.3157(3) 0.3244(3) 0.7327(2)
C14 C 0.3898(3) 0.0913(3) 0.8032(2)
C16 C 0.2661(2) 0.3602(2) 0.1508(2)
O1 O 0.3975(2) 0.4070(2) 0.7183(2)
O2 O 0.26263(18) 0.34026(17) 0.81155(16)
O3 O 0.4712(2) 0.1905(2) 0.87551(18)
O7 O 0.24508(19) 0.4220(2) 0.07079(19)
O8 O 0.37760(18) 0.3392(2) 0.21032(19)
O9 O 0.03590(17) 0.05865(16) 0.31010(15)
Cu9 Cu 0.35707(3) 0.49001(3) 0.98872(3)
Cu11 Cu 0.56086(3) 0.38500(3) 0.21096(3)
Cu13 Cu 0.43914(3) 0.61500(3) 0.78904(3)
Cu3_3 Cu 0.5000 1.0000 0.0000
H11 H 0.279653 0.997245 0.0201675
H20 H 0.710523 0.934696 0.0137329
Cu1 Cu 0.64293(3) 0.50999(3) 0.01128(3)
C11 C 0.9188(2) 0.3039(2) 0.1713(2)
C12 C 0.9232(2) 0.2079(2) 0.2310(2)
H5 H 0.8500 0.1746 0.2497
C15 C 0.7967(2) 0.3579(2) 0.1422(2)
O5 O 0.7298(2) 0.3464(2) 0.20894(19)
O6 O 0.77411(18) 0.41116(18) 0.05582(17)
O10 O 0.49959(16) 0.39988(16) 0.04148(15)
O11 O 0.6232(2) 0.3582(3) 0.3790(2)
O26 O 0.6025(2) 0.5930(2) 0.2817(2)
O28 O 0.73737(18) 0.65974(17) 0.18845(16)
C27 C 0.0812(2) 0.6961(2) 0.8287(2)
C28 C 0.0768(2) 0.7921(2) 0.7690(2)
H10 H 0.1500 0.8254 0.7503
C31 C 0.2033(2) 0.6421(2) 0.8578(2)
O17 O 0.2702(2) 0.6536(2) 0.79106(19)
O18 O 0.22589(18) 0.58884(18) 0.94418(17)
O22 O 0.50041(16) 0.60012(16) 0.95852(15)
O23 O 0.3768(2) 0.6418(3) 0.6210(2)
O31 O 0.75492(19) 0.5780(2) 0.92921(19)
O33 O 0.62240(18) 0.6608(2) 0.78968(19)
C17 C 0.8752(2) 0.9263(2) 0.5683(2)
C18 C 0.8178(3) 0.8118(2) 0.4817(2)
H6 H 0.8350 0.7397 0.5045
C19 C 0.7332(3) 0.8041(2) 0.3591(2)
C20 C 0.7058(3) 0.9136(2) 0.3260(2)
C23 C 0.9612(2) 0.8364(2) 0.7384(2)
C24 C 0.8492(2) 0.7873(2) 0.7616(2)
H8 H 0.7713 0.8170 0.7373
C25 C 0.8550(2) 0.6929(2) 0.8220(2)
C26 C 0.9709(2) 0.6481(2) 0.8574(2)
H9 H 0.9753 0.5865 0.9001
C29 C 0.6843(3) 0.6756(3) 0.2673(2)
C30 C 0.6102(3) 0.9087(3) 0.1968(2)
C32 C 0.7339(2) 0.6398(2) 0.8492(2)
O15 O 0.5288(2) 0.8095(2) 0.12449(18)
O21 O 0.96410(17) 0.94135(16) 0.68990(15)
H11_2 H 0.720347 0.00275482 0.979832
H20_2 H 0.289477 0.0653041 0.986267
Cu3_4 Cu 0.5000 1.0000 1.0000
C5 C 0.2344(3) 0.9726(3) 0.5842(2)
H2 H 0.2523 0.9000 0.6057
C6 C 0.1480(3) 0.9640(2) 0.4621(2)
O4 O 0.3844(2) 0.98636(19) 0.83034(18)
O24 O 0.6314(4) 0.9387(4) 0.9413(3)
H13 H 0.100191 0.873767 0.392715
H19_2 H 0.663528 0.996354 0.897436
H12_2 H 0.596883 0.921895 0.848941
loop_
_geom_bond_atom_site_label_1
_geom_bond_atom_site_label_2
_geom_bond_site_symmetry_1
_geom_bond_site_symmetry_2
O12 Cu3 1_555 1_555
O29 Cu3 1_555 1_555
O12 H12 1_555 1_555
H7 C21 1_555 1_555
C21 C22 1_555 1_555
C22 H16 1_555 1_555
O12 H19 1_555 1_555
C1 C2 1_555 1_555
C2 H1 1_555 1_555
C3 C2 1_555 1_555
C4 C3 1_555 1_555
C7 C8 1_555 1_555
C8 H3 1_555 1_555
C9 C8 1_555 1_555
C10 C9 1_555 1_555
H4 C10 1_555 1_555
C13 C3 1_555 1_555
C14 C4 1_555 1_555
C16 C9 1_555 1_555
O1 C13 1_555 1_555
O2 C13 1_555 1_555
O3 C14 1_555 1_555
O7 C16 1_555 1_555
O8 C16 1_555 1_555
O9 C1 1_555 1_555
Cu9 O2 1_555 1_555
Cu11 O8 1_555 1_555
Cu13 O1 1_555 1_555
C7 O9 1_555 1_555
Cu1 O6 1_555 1_555
Cu11 O5 1_555 1_555
H5 C12 1_555 1_555
C15 C11 1_555 1_555
O5 C15 1_555 1_555
O6 C15 1_555 1_555
O10 Cu1 1_555 1_555
O11 Cu11 1_555 1_555
O26 Cu11 1_555 1_555
O28 Cu1 1_555 1_555
Cu11 O10 1_555 1_555
C11 C12 1_555 1_555
Cu13 O17 1_555 1_555
H10 C28 1_555 1_555
C31 C27 1_555 1_555
O17 C31 1_555 1_555
O18 Cu9 1_555 1_555
O23 Cu13 1_555 1_555
O33 Cu13 1_555 1_555
Cu9 O22 1_555 1_555
Cu13 O22 1_555 1_555
C27 C28 1_555 1_555
C31 O18 1_555 1_555
C17 C18 1_555 1_555
C18 H6 1_555 1_555
C19 C18 1_555 1_555
C20 C19 1_555 1_555
C23 C24 1_555 1_555
C24 H8 1_555 1_555
C25 C24 1_555 1_555
C26 C25 1_555 1_555
H9 C26 1_555 1_555
C29 C19 1_555 1_555
C30 C20 1_555 1_555
C32 C25 1_555 1_555
O26 C29 1_555 1_555
O28 C29 1_555 1_555
O15 C30 1_555 1_555
O31 C32 1_555 1_555
O33 C32 1_555 1_555
O21 C17 1_555 1_555
C23 O21 1_555 1_555
Cu3_4 O4 1_555 1_555
H2 C5 1_555 1_555
O24 Cu3_4 1_555 1_555
C5 C6 1_555 1_555
C6 H13 1_555 1_555
O24 H19_2 1_555 1_555
O24 H12_2 1_555 1_555

#END
