
###############################################################################
#
# This file contains modified crystal structure data generated from the
# MOF subset of the Cambridge Structural Database (CSD) v543 
# hosted by the Cambridge Crystallographic Data Centre (CCDC).
#
# This work is licensed under the Creative Commons
# Attribution-NonCommercial-ShareAlike 4.0 International License.
# To view a copy of this license, visit
# http://creativecommons.org/licenses/by-nc-sa/4.0/
# or send a letter to
# Creative Commons, PO Box 1866, Mountain View, CA 94042, USA.
#
# CIF created using the CSD Python API on 29 September 2022
# The structure has been converted into the P1 space group
# The structure has a 3D framework
# The original CSD entry EJOTUV is in the monoclinic crystal system
# The framework has been calculated to contain at least 10.0% void space
# The void calculation uses a probe of radius 1.32A, grid spacing 0.4
#
###############################################################################

data_EJOTUV
_chemical_formula_moiety         '(C120 H88 Cd8 N8 O50)n'
_symmetry_cell_setting           triclinic
_symmetry_space_group_name_H-M   'P 1'
_symmetry_Int_Tables_number      1
_space_group_name_Hall           'P 1'
loop_
_symmetry_equiv_pos_site_id
_symmetry_equiv_pos_as_xyz
1 x,y,z
_cell_length_a                   13.2067(16)
_cell_length_b                   15.4970(18)
_cell_length_c                   16.513(2)
_cell_angle_alpha                90
_cell_angle_beta                 108.694(2)
_cell_angle_gamma                90
_cell_volume                     3201.32
loop_
_atom_site_label
_atom_site_type_symbol
_atom_site_fract_x
_atom_site_fract_y
_atom_site_fract_z
Cd1 Cd 0.20287(3) 0.33643(2) 0.35237(2)
Cd2 Cd 0.18485(3) 0.14625(3) 0.50404(2)
O1 O 0.0483(4) 0.2540(3) 0.5232(3)
C2 C 0.0375(4) 0.2760(3) 0.4485(4)
C3 C 0.4669(5) 0.1705(4) 0.4549(4)
C4 C 0.5113(5) 0.1748(3) 0.5430(4)
H1 H 0.4795 0.2112 0.5744
O2 O 0.0963(3) 0.2481(3) 0.4074(3)
C5 C 0.3776(5) 0.2297(4) 0.4122(4)
O3 O 0.3210(4) 0.2572(3) 0.4565(3)
O4 O 0.3616(4) 0.2544(3) 0.3366(3)
C6 C 0.5954(4) 0.0589(3) 0.4521(4)
O5 O 0.0199(4) 0.0581(3) 0.4562(3)
H2 H 0.035(6) 0.032(4) 0.416(3)
C15 C 0.6018(5) 0.1268(3) 0.5864(4)
C16 C 0.6434(4) 0.0696(3) 0.5402(4)
H7 H 0.7056 0.0372 0.5691
C17 C 0.5075(4) 0.1113(3) 0.4096(4)
H8 H 0.4755 0.1064 0.3494
C18 C 0.6524(5) 0.1374(4) 0.6815(4)
O12 O 0.6124(3) 0.1962(3) 0.7173(3)
O13 O 0.7278(3) 0.0901(3) 0.7219(3)
Cd4 Cd 0.70287(3) 0.16357(2) 0.85237(2)
O14 O 0.1816(3) 0.0927(3) 0.6383(3)
O15 O 0.3085(4) 0.0199(3) 0.5251(3)
O16 O 0.0837(4) 0.4775(3) 0.3270(3)
O17 O 0.2995(3) 0.1931(3) 0.6371(3)
O18 O 0.2152(3) 0.0699(3) 0.3974(3)
O19 O 0.2109(4) 0.4430(3) 0.4461(3)
O20 O 0.1124(3) 0.3038(3) 0.2173(3)
O21 O 0.2278(3) 0.4099(3) 0.2219(3)
C7 C 0.6316(5) 0.9908(3) 0.4050(4)
O8 O 0.5837(4) 0.9775(3) 0.3270(3)
O11 O 0.7109(4) 0.9430(3) 0.4461(3)
Cd3 Cd 0.70287(3) 0.83643(2) 0.35237(2)
C1 C 0.9490(5) 0.3368(3) 0.4037(4)
H3 H 0.987(5) 0.018(3) 0.473(4)
C8 C 0.8148(4) 0.3742(3) 0.2711(4)
C9 C 0.9042(5) 0.3257(3) 0.3146(4)
H4 H 0.9345 0.2861 0.2850
C10 C 0.9078(4) 0.3968(3) 0.4460(4)
H5 H 0.9390 0.4037 0.5061
C11 C 0.7724(4) 0.4343(3) 0.3153(4)
H6 H 0.7100 0.4661 0.2858
C12 C 0.8216(4) 0.4469(3) 0.4021(3)
C13 C 0.7795(5) 0.5168(4) 0.4449(4)
C14 C 0.7613(5) 0.3613(4) 0.1754(4)
O6 O 0.6816(3) 0.4073(3) 0.1383(3)
O7 O 0.8085(4) 0.5199(3) 0.5251(3)
O9 O 0.7995(3) 0.3069(3) 0.1371(3)
O10 O 0.7152(3) 0.5699(3) 0.3974(3)
Cd5 Cd 0.68485(3) 0.64625(3) 0.50404(2)
Cd6 Cd 0.68485(3) 0.35375(3) 0.00404(2)
C7_2 C 0.6316(5) 0.0092(3) 0.9050(4)
O8_2 O 0.5837(4) 0.0225(3) 0.8270(3)
O11_2 O 0.7109(4) 0.0570(3) 0.9461(3)
Cd2_2 Cd 0.18485(3) 0.85375(3) 0.00404(2)
O1_2 O 0.0483(4) 0.7460(3) 0.0232(3)
C4_2 C 0.5113(5) 0.8252(3) 0.0430(4)
H1_2 H 0.4795 0.7888 0.0744
C15_2 C 0.6018(5) 0.8732(3) 0.0864(4)
C16_2 C 0.6434(4) 0.9304(3) 0.0402(4)
H7_2 H 0.7056 0.9628 0.0691
C18_2 C 0.6524(5) 0.8626(4) 0.1815(4)
O12_2 O 0.6124(3) 0.8038(3) 0.2173(3)
O13_2 O 0.7278(3) 0.9099(3) 0.2219(3)
O14_2 O 0.1816(3) 0.9073(3) 0.1383(3)
O15_2 O 0.3085(4) 0.9801(3) 0.0251(3)
O17_2 O 0.2995(3) 0.8069(3) 0.1371(3)
Cd1_2 Cd 0.20287(3) 0.66357(2) 0.85237(2)
C2_2 C 0.0375(4) 0.7240(3) 0.9485(4)
C3_2 C 0.4669(5) 0.8295(4) 0.9549(4)
O2_2 O 0.0963(3) 0.7519(3) 0.9074(3)
C5_2 C 0.3776(5) 0.7703(4) 0.9122(4)
O3_2 O 0.3210(4) 0.7428(3) 0.9565(3)
O4_2 O 0.3616(4) 0.7456(3) 0.8366(3)
C6_2 C 0.5954(4) 0.9411(3) 0.9521(4)
O5_2 O 0.0199(4) 0.9419(3) 0.9562(3)
H2_2 H 0.035(6) 0.968(4) 0.916(3)
C17_2 C 0.5075(4) 0.8887(3) 0.9096(4)
H8_2 H 0.4755 0.8936 0.8494
O16_2 O 0.0837(4) 0.5225(3) 0.8270(3)
O18_2 O 0.2152(3) 0.9301(3) 0.8974(3)
O19_2 O 0.2109(4) 0.5570(3) 0.9461(3)
O20_2 O 0.1124(3) 0.6962(3) 0.7173(3)
O21_2 O 0.2278(3) 0.5901(3) 0.7219(3)
H5_2 H 0.9390 0.5963 0.0061
O7_2 O 0.8085(4) 0.4801(3) 0.0251(3)
C1_2 C 0.9490(5) 0.6632(3) 0.9037(4)
H3_2 H 0.987(5) 0.982(3) 0.973(4)
C8_2 C 0.8148(4) 0.6258(3) 0.7711(4)
C9_2 C 0.9042(5) 0.6743(3) 0.8146(4)
H4_2 H 0.9345 0.7139 0.7850
C10_2 C 0.9078(4) 0.6032(3) 0.9460(4)
C11_2 C 0.7724(4) 0.5657(3) 0.8153(4)
H6_2 H 0.7100 0.5339 0.7858
C12_2 C 0.8216(4) 0.5531(3) 0.9021(3)
C13_2 C 0.7795(5) 0.4832(4) 0.9449(4)
C14_2 C 0.7613(5) 0.6387(4) 0.6754(4)
O6_2 O 0.6816(3) 0.5927(3) 0.6383(3)
O9_2 O 0.7995(3) 0.6931(3) 0.6371(3)
O10_2 O 0.7152(3) 0.4301(3) 0.8974(3)
C4_3 C 0.0113(5) 0.6748(3) 0.5430(4)
C6_3 C 0.0954(4) 0.5589(3) 0.4521(4)
C7_3 C 0.1316(5) 0.4908(3) 0.4050(4)
C15_3 C 0.1018(5) 0.6268(3) 0.5864(4)
C16_3 C 0.1434(4) 0.5696(3) 0.5402(4)
H7_3 H 0.2056 0.5372 0.5691
C17_3 C 0.0075(4) 0.6113(3) 0.4096(4)
C18_3 C 0.1524(5) 0.6374(4) 0.6815(4)
C13_3 C 0.2795(5) 0.0168(4) 0.4449(4)
O1_3 O 0.5483(4) 0.7540(3) 0.5232(3)
C1_3 C 0.4490(5) 0.8368(3) 0.4037(4)
C2_3 C 0.5375(4) 0.7760(3) 0.4485(4)
C3_3 C 0.9669(5) 0.6705(4) 0.4549(4)
H1_3 H 0.9795 0.7112 0.5744
O2_3 O 0.5963(3) 0.7481(3) 0.4074(3)
C5_3 C 0.8776(5) 0.7297(4) 0.4122(4)
O3_3 O 0.8210(4) 0.7572(3) 0.4565(3)
O4_3 O 0.8616(4) 0.7544(3) 0.3366(3)
O5_3 O 0.5199(4) 0.5581(3) 0.4562(3)
H2_3 H 0.535(6) 0.532(4) 0.416(3)
H3_3 H 0.487(5) 0.518(3) 0.473(4)
C8_3 C 0.3148(4) 0.8742(3) 0.2711(4)
C9_3 C 0.4042(5) 0.8257(3) 0.3146(4)
H4_3 H 0.4345 0.7861 0.2850
C10_3 C 0.4078(4) 0.8968(3) 0.4460(4)
H5_3 H 0.4390 0.9037 0.5061
C11_3 C 0.2724(4) 0.9343(3) 0.3153(4)
H6_3 H 0.2100 0.9661 0.2858
C12_3 C 0.3216(4) 0.9469(3) 0.4021(3)
C14_3 C 0.2613(5) 0.8613(4) 0.1754(4)
H8_3 H 0.9755 0.6064 0.3494
C4_4 C 0.0113(5) 0.3252(3) 0.0430(4)
C15_4 C 0.1018(5) 0.3732(3) 0.0864(4)
C16_4 C 0.1434(4) 0.4304(3) 0.0402(4)
H7_4 H 0.2056 0.4628 0.0691
C18_4 C 0.1524(5) 0.3626(4) 0.1815(4)
C6_4 C 0.0954(4) 0.4411(3) 0.9521(4)
C7_4 C 0.1316(5) 0.5092(3) 0.9050(4)
C17_4 C 0.0075(4) 0.3887(3) 0.9096(4)
O1_4 O 0.5483(4) 0.2460(3) 0.0232(3)
H1_4 H 0.9795 0.2888 0.0744
H5_4 H 0.4390 0.0963 0.0061
C1_4 C 0.4490(5) 0.1632(3) 0.9037(4)
C2_4 C 0.5375(4) 0.2240(3) 0.9485(4)
C3_4 C 0.9669(5) 0.3295(4) 0.9549(4)
O2_4 O 0.5963(3) 0.2519(3) 0.9074(3)
C5_4 C 0.8776(5) 0.2703(4) 0.9122(4)
O3_4 O 0.8210(4) 0.2428(3) 0.9565(3)
O4_4 O 0.8616(4) 0.2456(3) 0.8366(3)
O5_4 O 0.5199(4) 0.4419(3) 0.9562(3)
H2_4 H 0.535(6) 0.468(4) 0.916(3)
H3_4 H 0.487(5) 0.482(3) 0.973(4)
C8_4 C 0.3148(4) 0.1258(3) 0.7711(4)
C9_4 C 0.4042(5) 0.1743(3) 0.8146(4)
H4_4 H 0.4345 0.2139 0.7850
C10_4 C 0.4078(4) 0.1032(3) 0.9460(4)
C11_4 C 0.2724(4) 0.0657(3) 0.8153(4)
H6_4 H 0.2100 0.0339 0.7858
C12_4 C 0.3216(4) 0.0531(3) 0.9021(3)
C14_4 C 0.2613(5) 0.1387(4) 0.6754(4)
H8_4 H 0.9755 0.3936 0.8494
C13_4 C 0.2795(5) 0.9832(4) 0.9449(4)
N1 N 0.2063(4) 0.6491(3) 0.2358(4)
C19 C 0.2136(5) 0.7255(3) 0.3886(4)
C20 C 0.2860(5) 0.6296(4) 0.3067(4)
H9 H 0.3397 0.5901 0.3038
C21 C 0.2175(5) 0.7672(4) 0.4710(4)
C22 C 0.1309(5) 0.7436(4) 0.3123(4)
H10 H 0.0759 0.7829 0.3128
C23 C 0.2911(5) 0.6664(4) 0.3843(4)
H11 H 0.3475 0.6513 0.4346
C24 C 0.1455(5) 0.8317(4) 0.4732(4)
H12 H 0.0930 0.8499 0.4218
C25 C 0.2948(5) 0.7438(4) 0.5474(4)
H13 H 0.3464 0.7010 0.5476
C26 C 0.1292(5) 0.7051(4) 0.2375(4)
H14 H 0.0731 0.7180 0.1863
C27 C 0.2017(6) 0.6087(4) 0.1536(4)
H15 H 0.2563 0.5636 0.1638
H16 H 0.2149 0.6526 0.1154
H17 H 0.1309 0.5832 0.1271
N2 N 0.2241(4) 0.8441(3) 0.6229(3)
C28 C 0.1503(6) 0.8693(4) 0.5497(4)
H18 H 0.1010 0.9136 0.5509
C29 C 0.2965(5) 0.7828(4) 0.6229(4)
H19 H 0.3488 0.7664 0.6750
C30 C 0.2273(6) 0.8869(4) 0.7031(5)
H20 H 0.2936 0.9201 0.7250
H21 H 0.2245 0.8433 0.7454
H22 H 0.1658 0.9257 0.6925
C25_2 C 0.2948(5) 0.2562(4) 0.0474(4)
H13_2 H 0.3464 0.2990 0.0476
N2_2 N 0.2241(4) 0.1559(3) 0.1229(3)
C28_2 C 0.1503(6) 0.1307(4) 0.0497(4)
H18_2 H 0.1010 0.0864 0.0509
C29_2 C 0.2965(5) 0.2172(4) 0.1229(4)
H19_2 H 0.3488 0.2336 0.1750
C30_2 C 0.2273(6) 0.1131(4) 0.2031(5)
H20_2 H 0.2936 0.0799 0.2250
H21_2 H 0.2245 0.1567 0.2454
H22_2 H 0.1658 0.0743 0.1925
N1_2 N 0.2063(4) 0.3509(3) 0.7358(4)
C19_2 C 0.2136(5) 0.2745(3) 0.8886(4)
C20_2 C 0.2860(5) 0.3704(4) 0.8067(4)
H9_2 H 0.3397 0.4099 0.8038
C21_2 C 0.2175(5) 0.2328(4) 0.9710(4)
C22_2 C 0.1309(5) 0.2564(4) 0.8123(4)
H10_2 H 0.0759 0.2171 0.8128
C23_2 C 0.2911(5) 0.3336(4) 0.8843(4)
H11_2 H 0.3475 0.3487 0.9346
C24_2 C 0.1455(5) 0.1683(4) 0.9732(4)
H12_2 H 0.0930 0.1501 0.9218
C26_2 C 0.1292(5) 0.2949(4) 0.7375(4)
H14_2 H 0.0731 0.2820 0.6863
C27_2 C 0.2017(6) 0.3913(4) 0.6536(4)
H15_2 H 0.2563 0.4364 0.6638
H16_2 H 0.2149 0.3474 0.6154
H17_2 H 0.1309 0.4168 0.6271
N1_3 N 0.7063(4) 0.1491(3) 0.2358(4)
C19_3 C 0.7136(5) 0.2255(3) 0.3886(4)
C20_3 C 0.7860(5) 0.1296(4) 0.3067(4)
H9_3 H 0.8397 0.0901 0.3038
C21_3 C 0.7175(5) 0.2672(4) 0.4710(4)
C22_3 C 0.6309(5) 0.2436(4) 0.3123(4)
H10_3 H 0.5759 0.2829 0.3128
C23_3 C 0.7911(5) 0.1664(4) 0.3843(4)
H11_3 H 0.8475 0.1513 0.4346
C24_3 C 0.6455(5) 0.3317(4) 0.4732(4)
H12_3 H 0.5930 0.3499 0.4218
C25_3 C 0.7948(5) 0.2438(4) 0.5474(4)
H13_3 H 0.8464 0.2010 0.5476
C26_3 C 0.6292(5) 0.2051(4) 0.2375(4)
H14_3 H 0.5731 0.2180 0.1863
C27_3 C 0.7017(6) 0.1087(4) 0.1536(4)
H15_3 H 0.7563 0.0636 0.1638
H16_3 H 0.7149 0.1526 0.1154
H17_3 H 0.6309 0.0832 0.1271
N2_3 N 0.7241(4) 0.3441(3) 0.6229(3)
C28_3 C 0.6503(6) 0.3693(4) 0.5497(4)
H18_3 H 0.6010 0.4136 0.5509
C29_3 C 0.7965(5) 0.2828(4) 0.6229(4)
H19_3 H 0.8488 0.2664 0.6750
C30_3 C 0.7273(6) 0.3869(4) 0.7031(5)
H20_3 H 0.7936 0.4201 0.7250
H21_3 H 0.7245 0.3433 0.7454
H22_3 H 0.6658 0.4257 0.6925
C25_4 C 0.7948(5) 0.7562(4) 0.0474(4)
H13_4 H 0.8464 0.7990 0.0476
N2_4 N 0.7241(4) 0.6559(3) 0.1229(3)
C28_4 C 0.6503(6) 0.6307(4) 0.0497(4)
H18_4 H 0.6010 0.5864 0.0509
C29_4 C 0.7965(5) 0.7172(4) 0.1229(4)
H19_4 H 0.8488 0.7336 0.1750
C30_4 C 0.7273(6) 0.6131(4) 0.2031(5)
H20_4 H 0.7936 0.5799 0.2250
H21_4 H 0.7245 0.6567 0.2454
H22_4 H 0.6658 0.5743 0.1925
N1_4 N 0.7063(4) 0.8509(3) 0.7358(4)
C19_4 C 0.7136(5) 0.7745(3) 0.8886(4)
C20_4 C 0.7860(5) 0.8704(4) 0.8067(4)
H9_4 H 0.8397 0.9099 0.8038
C21_4 C 0.7175(5) 0.7328(4) 0.9710(4)
C22_4 C 0.6309(5) 0.7564(4) 0.8123(4)
H10_4 H 0.5759 0.7171 0.8128
C23_4 C 0.7911(5) 0.8336(4) 0.8843(4)
H11_4 H 0.8475 0.8487 0.9346
C24_4 C 0.6455(5) 0.6683(4) 0.9732(4)
H12_4 H 0.5930 0.6501 0.9218
C26_4 C 0.6292(5) 0.7949(4) 0.7375(4)
H14_4 H 0.5731 0.7820 0.6863
C27_4 C 0.7017(6) 0.8913(4) 0.6536(4)
H15_4 H 0.7563 0.9364 0.6638
H16_4 H 0.7149 0.8474 0.6154
H17_4 H 0.6309 0.9168 0.6271
loop_
_geom_bond_atom_site_label_1
_geom_bond_atom_site_label_2
_geom_bond_site_symmetry_1
_geom_bond_site_symmetry_2
Cd1 O2 1_555 1_555
Cd2 O1 1_555 1_555
O1 C2 1_555 1_555
C2 O2 1_555 1_555
C3 C4 1_555 1_555
C4 H1 1_555 1_555
O2 Cd2 1_555 1_555
C5 C3 1_555 1_555
O3 Cd1 1_555 1_555
O4 Cd1 1_555 1_555
O5 Cd2 1_555 1_555
H2 O5 1_555 1_555
C15 C4 1_555 1_555
C16 C6 1_555 1_555
H7 C16 1_555 1_555
C17 C3 1_555 1_555
H8 C17 1_555 1_555
C18 C15 1_555 1_555
O12 C18 1_555 1_555
O13 C18 1_555 1_555
Cd4 O12 1_555 1_555
O14 Cd2 1_555 1_555
O15 Cd2 1_555 1_555
O16 Cd1 1_555 1_555
O17 Cd2 1_555 1_555
O18 Cd2 1_555 1_555
O19 Cd1 1_555 1_555
O20 Cd1 1_555 1_555
O21 Cd1 1_555 1_555
Cd2 O3 1_555 1_555
C5 O3 1_555 1_555
C5 O4 1_555 1_555
C6 C17 1_555 1_555
C15 C16 1_555 1_555
O13 Cd4 1_555 1_555
C7 O8 1_555 1_555
O8 Cd3 1_555 1_555
O11 C7 1_555 1_555
Cd3 O11 1_555 1_555
C8 C9 1_555 1_555
C9 C1 1_555 1_555
H4 C9 1_555 1_555
C10 C1 1_555 1_555
H5 C10 1_555 1_555
C11 C8 1_555 1_555
H6 C11 1_555 1_555
C12 C10 1_555 1_555
C13 C12 1_555 1_555
C14 C8 1_555 1_555
O6 C14 1_555 1_555
O7 C13 1_555 1_555
O9 C14 1_555 1_555
O10 C13 1_555 1_555
Cd5 O7 1_555 1_555
Cd6 O6 1_555 1_555
C11 C12 1_555 1_555
O9 Cd6 1_555 1_555
O10 Cd5 1_555 1_555
C7_2 O8_2 1_555 1_555
O8_2 Cd4 1_555 1_555
O11_2 C7_2 1_555 1_555
Cd4 O11_2 1_555 1_555
Cd2_2 O1_2 1_555 1_555
C4_2 H1_2 1_555 1_555
C15_2 C4_2 1_555 1_555
H7_2 C16_2 1_555 1_555
C18_2 C15_2 1_555 1_555
O12_2 C18_2 1_555 1_555
O13_2 C18_2 1_555 1_555
Cd3 O12_2 1_555 1_555
O14_2 Cd2_2 1_555 1_555
O15_2 Cd2_2 1_555 1_555
O17_2 Cd2_2 1_555 1_555
C15_2 C16_2 1_555 1_555
O13_2 Cd3 1_555 1_555
Cd1_2 O2_2 1_555 1_555
C2_2 O2_2 1_555 1_555
C5_2 C3_2 1_555 1_555
O3_2 Cd1_2 1_555 1_555
O4_2 Cd1_2 1_555 1_555
H2_2 O5_2 1_555 1_555
C17_2 C3_2 1_555 1_555
H8_2 C17_2 1_555 1_555
O16_2 Cd1_2 1_555 1_555
O19_2 Cd1_2 1_555 1_555
O20_2 Cd1_2 1_555 1_555
O21_2 Cd1_2 1_555 1_555
C5_2 O3_2 1_555 1_555
C5_2 O4_2 1_555 1_555
C6_2 C17_2 1_555 1_555
Cd6 O7_2 1_555 1_555
C8_2 C9_2 1_555 1_555
C9_2 C1_2 1_555 1_555
H4_2 C9_2 1_555 1_555
C10_2 C1_2 1_555 1_555
C11_2 C8_2 1_555 1_555
H6_2 C11_2 1_555 1_555
C12_2 C10_2 1_555 1_555
C13_2 C12_2 1_555 1_555
C14_2 C8_2 1_555 1_555
O6_2 C14_2 1_555 1_555
O9_2 C14_2 1_555 1_555
O10_2 C13_2 1_555 1_555
Cd5 O6_2 1_555 1_555
C11_2 C12_2 1_555 1_555
O9_2 Cd5 1_555 1_555
C6_3 C7_3 1_555 1_555
C7_3 O16 1_555 1_555
O19 C7_3 1_555 1_555
C15_3 C4_3 1_555 1_555
C16_3 C6_3 1_555 1_555
H7_3 C16_3 1_555 1_555
C18_3 C15_3 1_555 1_555
O20_2 C18_3 1_555 1_555
O21_2 C18_3 1_555 1_555
C6_3 C17_3 1_555 1_555
C15_3 C16_3 1_555 1_555
O15 C13_3 1_555 1_555
O18 C13_3 1_555 1_555
Cd3 O2_3 1_555 1_555
Cd5 O1_3 1_555 1_555
O1_3 C2_3 1_555 1_555
C1_3 C2_3 1_555 1_555
C2_3 O2_3 1_555 1_555
O2_3 Cd5 1_555 1_555
C5_3 C3_3 1_555 1_555
O3_3 Cd3 1_555 1_555
O4_3 Cd3 1_555 1_555
O5_3 Cd5 1_555 1_555
H2_3 O5_3 1_555 1_555
H3_3 O5_3 1_555 1_555
C8_3 C9_3 1_555 1_555
C9_3 C1_3 1_555 1_555
H4_3 C9_3 1_555 1_555
C10_3 C1_3 1_555 1_555
H5_3 C10_3 1_555 1_555
C11_3 C8_3 1_555 1_555
H6_3 C11_3 1_555 1_555
C12_3 C10_3 1_555 1_555
C14_3 C8_3 1_555 1_555
O14_2 C14_3 1_555 1_555
O17_2 C14_3 1_555 1_555
Cd5 O3_3 1_555 1_555
C5_3 O3_3 1_555 1_555
C5_3 O4_3 1_555 1_555
C11_3 C12_3 1_555 1_555
C15_4 C4_4 1_555 1_555
H7_4 C16_4 1_555 1_555
C18_4 C15_4 1_555 1_555
O20 C18_4 1_555 1_555
O21 C18_4 1_555 1_555
C15_4 C16_4 1_555 1_555
C6_4 C7_4 1_555 1_555
C7_4 O16_2 1_555 1_555
O19_2 C7_4 1_555 1_555
C6_4 C17_4 1_555 1_555
Cd6 O1_4 1_555 1_555
Cd4 O2_4 1_555 1_555
C1_4 C2_4 1_555 1_555
C2_4 O2_4 1_555 1_555
C5_4 C3_4 1_555 1_555
O3_4 Cd4 1_555 1_555
O4_4 Cd4 1_555 1_555
H2_4 O5_4 1_555 1_555
H3_4 O5_4 1_555 1_555
C8_4 C9_4 1_555 1_555
C9_4 C1_4 1_555 1_555
H4_4 C9_4 1_555 1_555
C10_4 C1_4 1_555 1_555
C11_4 C8_4 1_555 1_555
H6_4 C11_4 1_555 1_555
C12_4 C10_4 1_555 1_555
C14_4 C8_4 1_555 1_555
O14 C14_4 1_555 1_555
O17 C14_4 1_555 1_555
C5_4 O3_4 1_555 1_555
C5_4 O4_4 1_555 1_555
C11_4 C12_4 1_555 1_555
O18_2 C13_4 1_555 1_555
N1 C20 1_555 1_555
C19 C21 1_555 1_555
C20 H9 1_555 1_555
C21 C24 1_555 1_555
C22 C19 1_555 1_555
H10 C22 1_555 1_555
C23 C19 1_555 1_555
H11 C23 1_555 1_555
C24 H12 1_555 1_555
C25 C21 1_555 1_555
H13 C25 1_555 1_555
C26 N1 1_555 1_555
H14 C26 1_555 1_555
C27 N1 1_555 1_555
H15 C27 1_555 1_555
H16 C27 1_555 1_555
H17 C27 1_555 1_555
N2 C28 1_555 1_555
C28 C24 1_555 1_555
H18 C28 1_555 1_555
C29 C25 1_555 1_555
H19 C29 1_555 1_555
C30 N2 1_555 1_555
H20 C30 1_555 1_555
H21 C30 1_555 1_555
H22 C30 1_555 1_555
C20 C23 1_555 1_555
C22 C26 1_555 1_555
N2 C29 1_555 1_555
H13_2 C25_2 1_555 1_555
N2_2 C28_2 1_555 1_555
H18_2 C28_2 1_555 1_555
C29_2 C25_2 1_555 1_555
H19_2 C29_2 1_555 1_555
C30_2 N2_2 1_555 1_555
H20_2 C30_2 1_555 1_555
H21_2 C30_2 1_555 1_555
H22_2 C30_2 1_555 1_555
N2_2 C29_2 1_555 1_555
N1_2 C20_2 1_555 1_555
C19_2 C21_2 1_555 1_555
C20_2 H9_2 1_555 1_555
C21_2 C24_2 1_555 1_555
C22_2 C19_2 1_555 1_555
H10_2 C22_2 1_555 1_555
C23_2 C19_2 1_555 1_555
H11_2 C23_2 1_555 1_555
C24_2 H12_2 1_555 1_555
C26_2 N1_2 1_555 1_555
H14_2 C26_2 1_555 1_555
C27_2 N1_2 1_555 1_555
H15_2 C27_2 1_555 1_555
H16_2 C27_2 1_555 1_555
H17_2 C27_2 1_555 1_555
C20_2 C23_2 1_555 1_555
C22_2 C26_2 1_555 1_555
N1_3 C20_3 1_555 1_555
C19_3 C21_3 1_555 1_555
C20_3 H9_3 1_555 1_555
C21_3 C24_3 1_555 1_555
C22_3 C19_3 1_555 1_555
H10_3 C22_3 1_555 1_555
C23_3 C19_3 1_555 1_555
H11_3 C23_3 1_555 1_555
C24_3 H12_3 1_555 1_555
C25_3 C21_3 1_555 1_555
H13_3 C25_3 1_555 1_555
C26_3 N1_3 1_555 1_555
H14_3 C26_3 1_555 1_555
C27_3 N1_3 1_555 1_555
H15_3 C27_3 1_555 1_555
H16_3 C27_3 1_555 1_555
H17_3 C27_3 1_555 1_555
N2_3 C28_3 1_555 1_555
C28_3 C24_3 1_555 1_555
H18_3 C28_3 1_555 1_555
C29_3 C25_3 1_555 1_555
H19_3 C29_3 1_555 1_555
C30_3 N2_3 1_555 1_555
H20_3 C30_3 1_555 1_555
H21_3 C30_3 1_555 1_555
H22_3 C30_3 1_555 1_555
C20_3 C23_3 1_555 1_555
C22_3 C26_3 1_555 1_555
N2_3 C29_3 1_555 1_555
H13_4 C25_4 1_555 1_555
N2_4 C28_4 1_555 1_555
H18_4 C28_4 1_555 1_555
C29_4 C25_4 1_555 1_555
H19_4 C29_4 1_555 1_555
C30_4 N2_4 1_555 1_555
H20_4 C30_4 1_555 1_555
H21_4 C30_4 1_555 1_555
H22_4 C30_4 1_555 1_555
N2_4 C29_4 1_555 1_555
N1_4 C20_4 1_555 1_555
C19_4 C21_4 1_555 1_555
C20_4 H9_4 1_555 1_555
C21_4 C24_4 1_555 1_555
C22_4 C19_4 1_555 1_555
H10_4 C22_4 1_555 1_555
C23_4 C19_4 1_555 1_555
H11_4 C23_4 1_555 1_555
C24_4 H12_4 1_555 1_555
C26_4 N1_4 1_555 1_555
H14_4 C26_4 1_555 1_555
C27_4 N1_4 1_555 1_555
H15_4 C27_4 1_555 1_555
H16_4 C27_4 1_555 1_555
H17_4 C27_4 1_555 1_555
C20_4 C23_4 1_555 1_555
C22_4 C26_4 1_555 1_555

#END
