
###############################################################################
#
# This file contains modified crystal structure data generated from the
# MOF subset of the Cambridge Structural Database (CSD) v543 
# hosted by the Cambridge Crystallographic Data Centre (CCDC).
#
# This work is licensed under the Creative Commons
# Attribution-NonCommercial-ShareAlike 4.0 International License.
# To view a copy of this license, visit
# http://creativecommons.org/licenses/by-nc-sa/4.0/
# or send a letter to
# Creative Commons, PO Box 1866, Mountain View, CA 94042, USA.
#
# CIF created using the CSD Python API on 29 September 2022
# The structure has been converted into the P1 space group
# The structure has a 3D framework
# The original CSD entry EJOXIM is in the monoclinic crystal system
# The framework has been calculated to contain at least 10.0% void space
# The void calculation uses a probe of radius 1.32A, grid spacing 0.4
#
###############################################################################

data_EJOXIM
_chemical_formula_moiety         '(C150 H152 Cu8 N24 O56)n'
_symmetry_cell_setting           triclinic
_symmetry_space_group_name_H-M   'P 1'
_symmetry_Int_Tables_number      1
_space_group_name_Hall           'P 1'
loop_
_symmetry_equiv_pos_site_id
_symmetry_equiv_pos_as_xyz
1 x,y,z
_cell_length_a                   15.6449(2)
_cell_length_b                   21.5544(3)
_cell_length_c                   13.2606(2)
_cell_angle_alpha                90
_cell_angle_beta                 90.8150(10)
_cell_angle_gamma                90
_cell_volume                     4471.24
loop_
_atom_site_label
_atom_site_type_symbol
_atom_site_fract_x
_atom_site_fract_y
_atom_site_fract_z
Cu1 Cu 0.20157(3) 0.10398(2) 0.37819(4)
N1 N 0.4609(3) 0.37517(18) 0.3786(3)
H1 H 0.4066 0.3848 0.3856
C1 C 0.4844(3) 0.3140(2) 0.3720(4)
O1 O 0.5579(6) 0.2976(5) 0.3571(5)
N2 N 0.2845(2) 0.17593(14) 0.3793(2)
C2 C 0.3217(5) 0.2836(2) 0.3759(4)
H2 H 0.3036 0.3257 0.3752
O3 O 0.10897(18) 0.15972(12) 0.3434(2)
O4 O 0.28272(16) 0.05644(12) 0.4621(2)
O5 O 0.20694(18) 0.07084(15) 0.5997(2)
O6 O 0.1020(2) 0.14435(16) 0.1779(3)
N3 N 0.62376(19) 0.52944(14) 0.3721(2)
C3 C 0.3795(4) 0.0376(4) 0.6847(7)
H3 H 0.3423 0.0643 0.7247
H4 H 0.4207 0.0633 0.6484
H5 H 0.4103 0.0089 0.7295
C4 C 0.3680(3) 0.1640(2) 0.3802(4)
H6 H 0.3858 0.1219 0.3816
C5 C 0.4306(4) 0.2095(3) 0.3791(4)
H7 H 0.4894 0.1984 0.3805
C6 C 0.4077(3) 0.2694(2) 0.3762(3)
C7 C 0.2607(4) 0.2350(2) 0.3767(4)
H8 H 0.2015 0.2449 0.3754
C9 C 0.3251(3) 0.0005(2) 0.6085(4)
C10 C 0.0779(2) 0.16910(17) 0.2566(3)
C11 C 0.0000 0.2132(2) 0.2500
C12 C 0.6582(3) 0.47347(19) 0.3652(4)
H10 H 0.7185 0.4704 0.3590
C13 C 0.6109(4) 0.4191(2) 0.3666(4)
H11 H 0.6383 0.3799 0.3623
C14 C 0.5230(3) 0.4232(2) 0.3744(3)
C15 C 0.4864(3) 0.4815(2) 0.3791(3)
H12 H 0.4261 0.4860 0.3829
C16 C 0.5383(2) 0.5325(2) 0.3783(3)
H13 H 0.5124 0.5723 0.3823
C17 C 0.2653(2) 0.04630(17) 0.5529(3)
C19 C 0.0065(4) 0.2543(3) 0.1568(5)
H17 H 0.0567 0.2813 0.1635
H19 H 0.0121 0.2282 0.0967
H21 H 0.0451 0.2798 0.3498
Cu3 Cu 0.70157(3) 0.60398(2) 0.37819(4)
O16 O 0.28138(18) 0.06167(13) 0.2485(2)
N7 N 0.12376(19) 0.02944(14) 0.3721(2)
O2 O 0.28138(18) 0.93833(13) 0.7485(2)
C8 C 0.2695(2) 0.95370(19) 0.6620(3)
O7 O 0.2090(2) 0.93080(16) 0.6039(2)
H9 H 0.1791 0.9060 0.6372
C18 C 0.3828(4) 0.9643(4) 0.5351(7)
H14 H 0.4162 0.9937 0.4953
H15 H 0.3470 0.9390 0.4898
H16 H 0.4216 0.9373 0.5737
Cu6 Cu 0.20157(3) 0.89602(2) 0.87819(4)
C11_2 C 1.0000 0.2132(2) 0.2500
H18 H 0.9549 0.2798 0.1502
O8 O 0.89103(18) 0.15972(12) 0.1566(2)
O9 O 0.8980(2) 0.14435(16) 0.3221(3)
C20 C 0.9221(2) 0.16910(17) 0.2434(3)
C21 C 0.9935(4) 0.2543(3) 0.3432(5)
H20 H 0.9433 0.2813 0.3365
H22 H 0.9879 0.2282 0.4033
Cu2 Cu 0.79843(3) 0.10398(2) 0.12181(4)
N4 N 0.5391(3) 0.37517(18) 0.1214(3)
H23 H 0.5934 0.3848 0.1144
C22 C 0.5156(3) 0.3140(2) 0.1280(4)
O10 O 0.4421(6) 0.2976(5) 0.1429(5)
N5 N 0.7155(2) 0.17593(14) 0.1207(2)
C23 C 0.6783(5) 0.2836(2) 0.1241(4)
H24 H 0.6964 0.3257 0.1248
O12 O 0.71728(16) 0.05644(12) 0.0379(2)
N6 N 0.37624(19) 0.52944(14) 0.1279(2)
C25 C 0.6320(3) 0.1640(2) 0.1198(4)
H28 H 0.6142 0.1219 0.1184
C26 C 0.5694(4) 0.2095(3) 0.1209(4)
H29 H 0.5106 0.1984 0.1195
C27 C 0.5923(3) 0.2694(2) 0.1238(3)
C28 C 0.7393(4) 0.2350(2) 0.1233(4)
H30 H 0.7985 0.2449 0.1246
C31 C 0.3418(3) 0.47347(19) 0.1348(4)
H32 H 0.2815 0.4704 0.1410
C32 C 0.3891(4) 0.4191(2) 0.1334(4)
H33 H 0.3617 0.3799 0.1377
C33 C 0.4770(3) 0.4232(2) 0.1256(3)
C34 C 0.5136(3) 0.4815(2) 0.1209(3)
H34 H 0.5739 0.4860 0.1171
C35 C 0.4617(2) 0.5325(2) 0.1217(3)
H35 H 0.4876 0.5723 0.1177
Cu4 Cu 0.29843(3) 0.60398(2) 0.12181(4)
O15 O 0.71862(18) 0.06167(13) 0.2515(2)
N8 N 0.87624(19) 0.02944(14) 0.1279(2)
O11 O 0.71862(18) 0.93833(13) 0.7515(2)
C29 C 0.7305(2) 0.95370(19) 0.8380(3)
O14 O 0.7910(2) 0.93080(16) 0.8961(2)
H31 H 0.8209 0.9060 0.8628
C37 C 0.6172(4) 0.9643(4) 0.9649(7)
H38 H 0.5784 0.9373 0.9263
Cu5 Cu 0.79843(3) 0.89602(2) 0.62181(4)
C16_2 C 0.0383(2) 0.0325(2) 0.3783(3)
H13_2 H 0.0124 0.0723 0.3823
N1_2 N 0.9609(3) 0.87517(18) 0.3786(3)
H1_2 H 0.9066 0.8848 0.3856
C1_2 C 0.9844(3) 0.8140(2) 0.3720(4)
N2_2 N 0.7845(2) 0.67593(14) 0.3793(2)
C2_2 C 0.8217(5) 0.7836(2) 0.3759(4)
H2_2 H 0.8036 0.8257 0.3752
O2_2 O 0.78138(18) 0.43833(13) 0.7485(2)
O3_2 O 0.60897(18) 0.65972(12) 0.3434(2)
O4_2 O 0.78272(16) 0.55644(12) 0.4621(2)
O5_2 O 0.70694(18) 0.57084(15) 0.5997(2)
O6_2 O 0.6020(2) 0.64435(16) 0.1779(3)
C3_2 C 0.8795(4) 0.5376(4) 0.6847(7)
H3_2 H 0.8423 0.5643 0.7247
H4_2 H 0.9207 0.5633 0.6484
H5_2 H 0.9103 0.5089 0.7295
C4_2 C 0.8680(3) 0.6640(2) 0.3802(4)
H6_2 H 0.8858 0.6219 0.3816
C5_2 C 0.9306(4) 0.7095(3) 0.3791(4)
H7_2 H 0.9894 0.6984 0.3805
C6_2 C 0.9077(3) 0.7694(2) 0.3762(3)
C7_2 C 0.7607(4) 0.7350(2) 0.3767(4)
H8_2 H 0.7015 0.7449 0.3754
C8_2 C 0.7695(2) 0.45370(19) 0.6620(3)
O7_2 O 0.7090(2) 0.43080(16) 0.6039(2)
H9_2 H 0.6791 0.4060 0.6372
C9_2 C 0.8251(3) 0.5005(2) 0.6085(4)
C10_2 C 0.5779(2) 0.66910(17) 0.2566(3)
C11_3 C 0.5000 0.7132(2) 0.2500
C15_2 C 0.9864(3) 0.9815(2) 0.3791(3)
H12_2 H 0.9261 0.9860 0.3829
C17_2 C 0.7653(2) 0.54630(17) 0.5529(3)
C18_2 C 0.8828(4) 0.4643(4) 0.5351(7)
H14_2 H 0.9162 0.4937 0.4953
H15_2 H 0.8470 0.4390 0.4898
H16_2 H 0.9216 0.4373 0.5737
C19_2 C 0.5065(4) 0.7543(3) 0.1568(5)
H17_2 H 0.5567 0.7813 0.1635
H18_2 H 0.4549 0.7798 0.1502
H19_2 H 0.5121 0.7282 0.0967
O8_2 O 0.39103(18) 0.65972(12) 0.1566(2)
O9_2 O 0.3980(2) 0.64435(16) 0.3221(3)
C20_2 C 0.4221(2) 0.66910(17) 0.2434(3)
C21_2 C 0.4935(4) 0.7543(3) 0.3432(5)
H20_2 H 0.4433 0.7813 0.3365
H21_2 H 0.5451 0.7798 0.3498
H22_2 H 0.4879 0.7282 0.4033
N4_2 N 0.0391(3) 0.87517(18) 0.1214(3)
H23_2 H 0.0934 0.8848 0.1144
C22_2 C 0.0156(3) 0.8140(2) 0.1280(4)
N5_2 N 0.2155(2) 0.67593(14) 0.1207(2)
C23_2 C 0.1783(5) 0.7836(2) 0.1241(4)
H24_2 H 0.1964 0.8257 0.1248
O12_2 O 0.21728(16) 0.55644(12) 0.0379(2)
C25_2 C 0.1320(3) 0.6640(2) 0.1198(4)
H28_2 H 0.1142 0.6219 0.1184
C26_2 C 0.0694(4) 0.7095(3) 0.1209(4)
H29_2 H 0.0106 0.6984 0.1195
C27_2 C 0.0923(3) 0.7694(2) 0.1238(3)
C28_2 C 0.2393(4) 0.7350(2) 0.1233(4)
H30_2 H 0.2985 0.7449 0.1246
C34_2 C 0.0136(3) 0.9815(2) 0.1209(3)
H34_2 H 0.0739 0.9860 0.1171
H36 H 0.0838 0.4937 0.0047
H37 H 0.1530 0.4390 0.0102
Cu6_2 Cu 0.70157(3) 0.39602(2) 0.87819(4)
O15_2 O 0.21862(18) 0.56167(13) 0.2515(2)
O16_2 O 0.78138(18) 0.56167(13) 0.2485(2)
O11_2 O 0.21862(18) 0.43833(13) 0.7515(2)
O13 O 0.29306(18) 0.57084(15) 0.9003(2)
C24 C 0.1205(4) 0.5376(4) 0.8153(7)
H25 H 0.1577 0.5643 0.7753
H26 H 0.0793 0.5633 0.8516
H27 H 0.0897 0.5089 0.7705
C29_2 C 0.2305(2) 0.45370(19) 0.8380(3)
O14_2 O 0.2910(2) 0.43080(16) 0.8961(2)
H31_2 H 0.3209 0.4060 0.8628
C30 C 0.1749(3) 0.5005(2) 0.8915(4)
C36 C 0.2347(2) 0.54630(17) 0.9471(3)
C37_2 C 0.1172(4) 0.4643(4) 0.9649(7)
H38_2 H 0.0784 0.4373 0.9263
Cu5_2 Cu 0.29843(3) 0.39602(2) 0.62181(4)
C35_2 C 0.9617(2) 0.0325(2) 0.1217(3)
H35_2 H 0.9876 0.0723 0.1177
C29_3 C 0.2695(2) 0.04630(19) 0.1620(3)
O14_3 O 0.2090(2) 0.06920(16) 0.1039(2)
H31_3 H 0.1791 0.0940 0.1372
C37_3 C 0.3828(4) 0.0357(4) 0.0351(7)
H38_3 H 0.4216 0.0627 0.0737
C11_4 C 0.0000 0.7868(2) 0.7500
H18_3 H 0.0451 0.7202 0.8498
O8_3 O 0.10897(18) 0.84028(12) 0.8434(2)
O9_3 O 0.1020(2) 0.85565(16) 0.6779(3)
C20_3 C 0.0779(2) 0.83090(17) 0.7566(3)
C21_3 C 0.0065(4) 0.7457(3) 0.6568(5)
H20_3 H 0.0567 0.7187 0.6635
H22_3 H 0.0121 0.7718 0.5967
N4_3 N 0.4609(3) 0.62483(18) 0.8786(3)
H23_3 H 0.4066 0.6152 0.8856
C22_3 C 0.4844(3) 0.6860(2) 0.8720(4)
O10_2 O 0.5579(6) 0.7024(5) 0.8571(5)
N5_3 N 0.2845(2) 0.82407(14) 0.8793(2)
C23_3 C 0.3217(5) 0.7164(2) 0.8759(4)
H24_3 H 0.3036 0.6743 0.8752
O12_3 O 0.28272(16) 0.94356(12) 0.9621(2)
N6_2 N 0.62376(19) 0.47056(14) 0.8721(2)
C25_3 C 0.3680(3) 0.8360(2) 0.8802(4)
H28_3 H 0.3858 0.8781 0.8816
C26_3 C 0.4306(4) 0.7905(3) 0.8791(4)
H29_3 H 0.4894 0.8016 0.8805
C27_3 C 0.4077(3) 0.7306(2) 0.8762(3)
C28_3 C 0.2607(4) 0.7650(2) 0.8767(4)
H30_3 H 0.2015 0.7551 0.8754
C31_2 C 0.6582(3) 0.52653(19) 0.8652(4)
H32_2 H 0.7185 0.5296 0.8590
C32_2 C 0.6109(4) 0.5809(2) 0.8666(4)
H33_2 H 0.6383 0.6201 0.8623
C33_2 C 0.5230(3) 0.5768(2) 0.8744(3)
C34_3 C 0.4864(3) 0.5185(2) 0.8791(3)
H34_3 H 0.4261 0.5140 0.8829
C35_3 C 0.5383(2) 0.4675(2) 0.8783(3)
H35_3 H 0.5124 0.4277 0.8823
N8_2 N 0.12376(19) 0.97056(14) 0.8721(2)
C8_3 C 0.7305(2) 0.04630(19) 0.3380(3)
O7_3 O 0.7910(2) 0.06920(16) 0.3961(2)
H9_3 H 0.8209 0.0940 0.3628
C18_3 C 0.6172(4) 0.0357(4) 0.4649(7)
H14_3 H 0.5838 0.0063 0.5047
H15_3 H 0.6530 0.0610 0.5102
H16_3 H 0.5784 0.0627 0.4263
N1_3 N 0.5391(3) 0.62483(18) 0.6214(3)
H1_3 H 0.5934 0.6152 0.6144
C1_3 C 0.5156(3) 0.6860(2) 0.6280(4)
O1_2 O 0.4421(6) 0.7024(5) 0.6429(5)
N2_3 N 0.7155(2) 0.82407(14) 0.6207(2)
C2_3 C 0.6783(5) 0.7164(2) 0.6241(4)
H2_3 H 0.6964 0.6743 0.6248
O3_3 O 0.89103(18) 0.84028(12) 0.6566(2)
O4_3 O 0.71728(16) 0.94356(12) 0.5379(2)
O5_3 O 0.79306(18) 0.92916(15) 0.4003(2)
O6_3 O 0.8980(2) 0.85565(16) 0.8221(3)
N3_2 N 0.37624(19) 0.47056(14) 0.6279(2)
C3_3 C 0.6205(4) 0.9624(4) 0.3153(7)
H3_3 H 0.6577 0.9357 0.2753
H4_3 H 0.5793 0.9367 0.3516
H5_3 H 0.5897 0.9911 0.2705
C4_3 C 0.6320(3) 0.8360(2) 0.6198(4)
H6_3 H 0.6142 0.8781 0.6184
C5_3 C 0.5694(4) 0.7905(3) 0.6209(4)
H7_3 H 0.5106 0.8016 0.6195
C6_3 C 0.5923(3) 0.7306(2) 0.6238(3)
C7_3 C 0.7393(4) 0.7650(2) 0.6233(4)
H8_3 H 0.7985 0.7551 0.6246
C9_3 C 0.6749(3) 0.9995(2) 0.3915(4)
C10_3 C 0.9221(2) 0.83090(17) 0.7434(3)
C11_5 C 1.0000 0.7868(2) 0.7500
C12_2 C 0.3418(3) 0.52653(19) 0.6348(4)
H10_2 H 0.2815 0.5296 0.6410
C13_2 C 0.3891(4) 0.5809(2) 0.6334(4)
H11_2 H 0.3617 0.6201 0.6377
C14_2 C 0.4770(3) 0.5768(2) 0.6256(3)
C15_3 C 0.5136(3) 0.5185(2) 0.6209(3)
H12_3 H 0.5739 0.5140 0.6171
C16_3 C 0.4617(2) 0.4675(2) 0.6217(3)
H13_3 H 0.4876 0.4277 0.6177
C17_3 C 0.7347(2) 0.95370(17) 0.4471(3)
C19_3 C 0.9935(4) 0.7457(3) 0.8432(5)
H17_3 H 0.9433 0.7187 0.8365
H19_3 H 0.9879 0.7718 0.9033
H21_3 H 0.9549 0.7202 0.6502
N7_2 N 0.87624(19) 0.97056(14) 0.6279(2)
C35_4 C 0.0383(2) 0.9675(2) 0.8783(3)
H35_4 H 0.0124 0.9277 0.8823
O13_2 O 0.70694(18) 0.42916(15) 0.0997(2)
C24_2 C 0.8795(4) 0.4624(4) 0.1847(7)
H25_2 H 0.8423 0.4357 0.2247
H26_2 H 0.9207 0.4367 0.1484
H27_2 H 0.9103 0.4911 0.2295
C29_4 C 0.7695(2) 0.54630(19) 0.1620(3)
O14_4 O 0.7090(2) 0.56920(16) 0.1039(2)
H31_4 H 0.6791 0.5940 0.1372
C30_2 C 0.8251(3) 0.4995(2) 0.1085(4)
C36_2 C 0.7653(2) 0.45370(17) 0.0529(3)
C37_4 C 0.8828(4) 0.5357(4) 0.0351(7)
H38_4 H 0.9216 0.5627 0.0737
N1_4 N 0.0391(3) 0.12483(18) 0.6214(3)
H1_4 H 0.0934 0.1152 0.6144
C1_4 C 0.0156(3) 0.1860(2) 0.6280(4)
N2_4 N 0.2155(2) 0.32407(14) 0.6207(2)
C2_4 C 0.1783(5) 0.2164(2) 0.6241(4)
H2_4 H 0.1964 0.1743 0.6248
O3_4 O 0.39103(18) 0.34028(12) 0.6566(2)
O4_4 O 0.21728(16) 0.44356(12) 0.5379(2)
O5_4 O 0.29306(18) 0.42916(15) 0.4003(2)
O6_4 O 0.3980(2) 0.35565(16) 0.8221(3)
C3_4 C 0.1205(4) 0.4624(4) 0.3153(7)
H3_4 H 0.1577 0.4357 0.2753
H4_4 H 0.0793 0.4367 0.3516
H5_4 H 0.0897 0.4911 0.2705
C4_4 C 0.1320(3) 0.3360(2) 0.6198(4)
H6_4 H 0.1142 0.3781 0.6184
C5_4 C 0.0694(4) 0.2905(3) 0.6209(4)
H7_4 H 0.0106 0.3016 0.6195
C6_4 C 0.0923(3) 0.2306(2) 0.6238(3)
C7_4 C 0.2393(4) 0.2650(2) 0.6233(4)
H8_4 H 0.2985 0.2551 0.6246
C8_4 C 0.2305(2) 0.54630(19) 0.3380(3)
O7_4 O 0.2910(2) 0.56920(16) 0.3961(2)
H9_4 H 0.3209 0.5940 0.3628
C9_4 C 0.1749(3) 0.4995(2) 0.3915(4)
C10_4 C 0.4221(2) 0.33090(17) 0.7434(3)
C11_6 C 0.5000 0.2868(2) 0.7500
C15_4 C 0.0136(3) 0.0185(2) 0.6209(3)
H12_4 H 0.0739 0.0140 0.6171
C17_4 C 0.2347(2) 0.45370(17) 0.4471(3)
C18_4 C 0.1172(4) 0.5357(4) 0.4649(7)
H14_4 H 0.0838 0.5063 0.5047
H15_4 H 0.1530 0.5610 0.5102
H16_4 H 0.0784 0.5627 0.4263
C19_4 C 0.4935(4) 0.2457(3) 0.8432(5)
H17_4 H 0.4433 0.2187 0.8365
H18_4 H 0.5451 0.2202 0.8498
H19_4 H 0.4879 0.2718 0.9033
O8_4 O 0.60897(18) 0.34028(12) 0.8434(2)
O9_4 O 0.6020(2) 0.35565(16) 0.6779(3)
C20_4 C 0.5779(2) 0.33090(17) 0.7566(3)
C21_4 C 0.5065(4) 0.2457(3) 0.6568(5)
H20_4 H 0.5567 0.2187 0.6635
H21_4 H 0.4549 0.2202 0.6502
H22_4 H 0.5121 0.2718 0.5967
N4_4 N 0.9609(3) 0.12483(18) 0.8786(3)
H23_4 H 0.9066 0.1152 0.8856
C22_4 C 0.9844(3) 0.1860(2) 0.8720(4)
N5_4 N 0.7845(2) 0.32407(14) 0.8793(2)
C23_4 C 0.8217(5) 0.2164(2) 0.8759(4)
H24_4 H 0.8036 0.1743 0.8752
O12_4 O 0.78272(16) 0.44356(12) 0.9621(2)
C25_4 C 0.8680(3) 0.3360(2) 0.8802(4)
H28_4 H 0.8858 0.3781 0.8816
C26_4 C 0.9306(4) 0.2905(3) 0.8791(4)
H29_4 H 0.9894 0.3016 0.8805
C27_4 C 0.9077(3) 0.2306(2) 0.8762(3)
C28_4 C 0.7607(4) 0.2650(2) 0.8767(4)
H30_4 H 0.7015 0.2551 0.8754
C34_4 C 0.9864(3) 0.0185(2) 0.8791(3)
H34_4 H 0.9261 0.0140 0.8829
H36_2 H 0.9162 0.5063 0.9953
H37_2 H 0.8470 0.5610 0.9898
C16_4 C 0.9617(2) 0.9675(2) 0.6217(3)
H13_4 H 0.9876 0.9277 0.6177
O13_3 O 0.79306(18) 0.07084(15) 0.9003(2)
C24_3 C 0.6205(4) 0.0376(4) 0.8153(7)
H25_3 H 0.6577 0.0643 0.7753
H26_3 H 0.5793 0.0633 0.8516
H27_3 H 0.5897 0.0089 0.7705
C30_3 C 0.6749(3) 0.0005(2) 0.8915(4)
C36_3 C 0.7347(2) 0.04630(17) 0.9471(3)
H36_3 H 0.5838 0.9937 0.0047
H37_3 H 0.6530 0.9390 0.0102
O1_3 O 0.0579(6) 0.7976(5) 0.3571(5)
C12_3 C 0.1582(3) 0.97347(19) 0.3652(4)
H10_3 H 0.2185 0.9704 0.3590
C13_3 C 0.1109(4) 0.9191(2) 0.3666(4)
H11_3 H 0.1383 0.8799 0.3623
C14_3 C 0.0230(3) 0.9232(2) 0.3744(3)
O10_3 O 0.9421(6) 0.7976(5) 0.1429(5)
C31_3 C 0.8418(3) 0.97347(19) 0.1348(4)
H32_3 H 0.7815 0.9704 0.1410
C32_3 C 0.8891(4) 0.9191(2) 0.1334(4)
H33_3 H 0.8617 0.8799 0.1377
C33_3 C 0.9770(3) 0.9232(2) 0.1256(3)
H36_4 H 0.4162 0.0063 0.9953
H37_4 H 0.3470 0.0610 0.9898
O13_4 O 0.20694(18) 0.92916(15) 0.0997(2)
C24_4 C 0.3795(4) 0.9624(4) 0.1847(7)
H25_4 H 0.3423 0.9357 0.2247
H26_4 H 0.4207 0.9367 0.1484
H27_4 H 0.4103 0.9911 0.2295
C30_4 C 0.3251(3) 0.9995(2) 0.1085(4)
C36_4 C 0.2653(2) 0.95370(17) 0.0529(3)
O10_4 O 0.0579(6) 0.2024(5) 0.8571(5)
C31_4 C 0.1582(3) 0.02653(19) 0.8652(4)
H32_4 H 0.2185 0.0296 0.8590
C32_4 C 0.1109(4) 0.0809(2) 0.8666(4)
H33_4 H 0.1383 0.1201 0.8623
C33_4 C 0.0230(3) 0.0768(2) 0.8744(3)
O1_4 O 0.9421(6) 0.2024(5) 0.6429(5)
C12_4 C 0.8418(3) 0.02653(19) 0.6348(4)
H10_4 H 0.7815 0.0296 0.6410
C13_4 C 0.8891(4) 0.0809(2) 0.6334(4)
H11_4 H 0.8617 0.1201 0.6377
C14_4 C 0.9770(3) 0.0768(2) 0.6256(3)
loop_
_geom_bond_atom_site_label_1
_geom_bond_atom_site_label_2
_geom_bond_site_symmetry_1
_geom_bond_site_symmetry_2
Cu1 N2 1_555 1_555
N1 H1 1_555 1_555
C1 N1 1_555 1_555
O1 C1 1_555 1_555
N2 C4 1_555 1_555
C2 H2 1_555 1_555
O3 Cu1 1_555 1_555
O4 Cu1 1_555 1_555
O5 C17 1_555 1_555
O6 C10 1_555 1_555
N3 C12 1_555 1_555
C3 H3 1_555 1_555
H4 C3 1_555 1_555
H5 C3 1_555 1_555
C4 H6 1_555 1_555
C5 C4 1_555 1_555
H7 C5 1_555 1_555
C6 C1 1_555 1_555
C7 N2 1_555 1_555
H8 C7 1_555 1_555
C9 C3 1_555 1_555
C10 O3 1_555 1_555
C11 C10 1_555 1_555
C12 H10 1_555 1_555
C13 C12 1_555 1_555
H11 C13 1_555 1_555
C14 N1 1_555 1_555
C15 C14 1_555 1_555
H12 C15 1_555 1_555
C16 N3 1_555 1_555
H13 C16 1_555 1_555
C17 O4 1_555 1_555
C19 C11 1_555 1_555
H17 C19 1_555 1_555
H19 C19 1_555 1_555
Cu3 N3 1_555 1_555
O16 Cu1 1_555 1_555
N7 Cu1 1_555 1_555
C2 C6 1_555 1_555
C2 C7 1_555 1_555
C5 C6 1_555 1_555
C9 C17 1_555 1_555
C13 C14 1_555 1_555
C15 C16 1_555 1_555
O2 C8 1_555 1_555
C8 O7 1_555 1_555
O7 H9 1_555 1_555
H14 C18 1_555 1_555
H15 C18 1_555 1_555
H16 C18 1_555 1_555
Cu6 O2 1_555 1_555
O8 C20 1_555 1_555
O9 C20 1_555 1_555
C20 C11_2 1_555 1_555
C21 C11_2 1_555 1_555
H20 C21 1_555 1_555
H22 C21 1_555 1_555
Cu2 O8 1_555 1_555
N4 H23 1_555 1_555
C22 N4 1_555 1_555
O10 C22 1_555 1_555
N5 Cu2 1_555 1_555
C23 H24 1_555 1_555
O12 Cu2 1_555 1_555
N6 C31 1_555 1_555
C25 N5 1_555 1_555
H28 C25 1_555 1_555
C26 C25 1_555 1_555
H29 C26 1_555 1_555
C27 C22 1_555 1_555
C28 N5 1_555 1_555
H30 C28 1_555 1_555
C31 H32 1_555 1_555
C32 C31 1_555 1_555
H33 C32 1_555 1_555
C33 N4 1_555 1_555
C34 C33 1_555 1_555
H34 C34 1_555 1_555
C35 N6 1_555 1_555
H35 C35 1_555 1_555
Cu4 N6 1_555 1_555
O15 Cu2 1_555 1_555
N8 Cu2 1_555 1_555
C23 C27 1_555 1_555
C23 C28 1_555 1_555
C26 C27 1_555 1_555
C32 C33 1_555 1_555
C34 C35 1_555 1_555
O11 C29 1_555 1_555
C29 O14 1_555 1_555
O14 H31 1_555 1_555
H38 C37 1_555 1_555
Cu5 O11 1_555 1_555
C16_2 N7 1_555 1_555
H13_2 C16_2 1_555 1_555
Cu3 N2_2 1_555 1_555
N1_2 H1_2 1_555 1_555
C1_2 N1_2 1_555 1_555
N2_2 C4_2 1_555 1_555
C2_2 H2_2 1_555 1_555
O2_2 C8_2 1_555 1_555
O3_2 Cu3 1_555 1_555
O4_2 Cu3 1_555 1_555
O5_2 C17_2 1_555 1_555
O6_2 C10_2 1_555 1_555
C3_2 H3_2 1_555 1_555
H4_2 C3_2 1_555 1_555
H5_2 C3_2 1_555 1_555
C4_2 H6_2 1_555 1_555
C5_2 C4_2 1_555 1_555
H7_2 C5_2 1_555 1_555
C6_2 C1_2 1_555 1_555
C7_2 N2_2 1_555 1_555
H8_2 C7_2 1_555 1_555
C8_2 O7_2 1_555 1_555
O7_2 H9_2 1_555 1_555
C9_2 C3_2 1_555 1_555
C10_2 O3_2 1_555 1_555
C11_3 C10_2 1_555 1_555
H12_2 C15_2 1_555 1_555
C17_2 O4_2 1_555 1_555
C18_2 C9_2 1_555 1_555
H14_2 C18_2 1_555 1_555
H15_2 C18_2 1_555 1_555
H16_2 C18_2 1_555 1_555
C19_2 C11_3 1_555 1_555
H17_2 C19_2 1_555 1_555
H18_2 C19_2 1_555 1_555
H19_2 C19_2 1_555 1_555
O8_2 C20_2 1_555 1_555
O9_2 C20_2 1_555 1_555
C20_2 C11_3 1_555 1_555
C21_2 C11_3 1_555 1_555
H20_2 C21_2 1_555 1_555
H21_2 C21_2 1_555 1_555
H22_2 C21_2 1_555 1_555
Cu4 O8_2 1_555 1_555
N4_2 H23_2 1_555 1_555
C22_2 N4_2 1_555 1_555
N5_2 Cu4 1_555 1_555
C23_2 H24_2 1_555 1_555
O12_2 Cu4 1_555 1_555
C25_2 N5_2 1_555 1_555
H28_2 C25_2 1_555 1_555
C26_2 C25_2 1_555 1_555
H29_2 C26_2 1_555 1_555
C27_2 C22_2 1_555 1_555
C28_2 N5_2 1_555 1_555
H30_2 C28_2 1_555 1_555
H34_2 C34_2 1_555 1_555
Cu6_2 O2_2 1_555 1_555
O15_2 Cu4 1_555 1_555
O16_2 Cu3 1_555 1_555
C2_2 C6_2 1_555 1_555
C2_2 C7_2 1_555 1_555
C5_2 C6_2 1_555 1_555
C8_2 C9_2 1_555 1_555
C9_2 C17_2 1_555 1_555
C23_2 C27_2 1_555 1_555
C23_2 C28_2 1_555 1_555
C26_2 C27_2 1_555 1_555
O11_2 C29_2 1_555 1_555
O13 C36 1_555 1_555
C24 H25 1_555 1_555
H26 C24 1_555 1_555
H27 C24 1_555 1_555
C29_2 O14_2 1_555 1_555
O14_2 H31_2 1_555 1_555
C30 C24 1_555 1_555
C37_2 C30 1_555 1_555
H38_2 C37_2 1_555 1_555
Cu5_2 O11_2 1_555 1_555
C29_2 C30 1_555 1_555
C30 C36 1_555 1_555
C35_2 N8 1_555 1_555
H35_2 C35_2 1_555 1_555
O16 C29_3 1_555 1_555
C29_3 O14_3 1_555 1_555
O14_3 H31_3 1_555 1_555
H38_3 C37_3 1_555 1_555
O8_3 C20_3 1_555 1_555
O9_3 C20_3 1_555 1_555
C20_3 C11_4 1_555 1_555
C21_3 C11_4 1_555 1_555
H20_3 C21_3 1_555 1_555
H22_3 C21_3 1_555 1_555
Cu6 O8_3 1_555 1_555
N4_3 H23_3 1_555 1_555
C22_3 N4_3 1_555 1_555
O10_2 C22_3 1_555 1_555
N5_3 Cu6 1_555 1_555
C23_3 H24_3 1_555 1_555
O12_3 Cu6 1_555 1_555
N6_2 C31_2 1_555 1_555
C25_3 N5_3 1_555 1_555
H28_3 C25_3 1_555 1_555
C26_3 C25_3 1_555 1_555
H29_3 C26_3 1_555 1_555
C27_3 C22_3 1_555 1_555
C28_3 N5_3 1_555 1_555
H30_3 C28_3 1_555 1_555
C31_2 H32_2 1_555 1_555
C32_2 C31_2 1_555 1_555
H33_2 C32_2 1_555 1_555
C33_2 N4_3 1_555 1_555
C34_3 C33_2 1_555 1_555
H34_3 C34_3 1_555 1_555
C35_3 N6_2 1_555 1_555
H35_3 C35_3 1_555 1_555
Cu6_2 N6_2 1_555 1_555
N8_2 Cu6 1_555 1_555
C23_3 C27_3 1_555 1_555
C23_3 C28_3 1_555 1_555
C26_3 C27_3 1_555 1_555
C32_2 C33_2 1_555 1_555
C34_3 C35_3 1_555 1_555
O15 C8_3 1_555 1_555
C8_3 O7_3 1_555 1_555
O7_3 H9_3 1_555 1_555
H14_3 C18_3 1_555 1_555
H15_3 C18_3 1_555 1_555
H16_3 C18_3 1_555 1_555
Cu5 N2_3 1_555 1_555
N1_3 H1_3 1_555 1_555
C1_3 N1_3 1_555 1_555
O1_2 C1_3 1_555 1_555
N2_3 C4_3 1_555 1_555
C2_3 H2_3 1_555 1_555
O3_3 Cu5 1_555 1_555
O4_3 Cu5 1_555 1_555
O5_3 C17_3 1_555 1_555
O6_3 C10_3 1_555 1_555
N3_2 C12_2 1_555 1_555
C3_3 H3_3 1_555 1_555
H4_3 C3_3 1_555 1_555
H5_3 C3_3 1_555 1_555
C4_3 H6_3 1_555 1_555
C5_3 C4_3 1_555 1_555
H7_3 C5_3 1_555 1_555
C6_3 C1_3 1_555 1_555
C7_3 N2_3 1_555 1_555
H8_3 C7_3 1_555 1_555
C9_3 C3_3 1_555 1_555
C10_3 O3_3 1_555 1_555
C11_5 C10_3 1_555 1_555
C12_2 H10_2 1_555 1_555
C13_2 C12_2 1_555 1_555
H11_2 C13_2 1_555 1_555
C14_2 N1_3 1_555 1_555
C15_3 C14_2 1_555 1_555
H12_3 C15_3 1_555 1_555
C16_3 N3_2 1_555 1_555
H13_3 C16_3 1_555 1_555
C17_3 O4_3 1_555 1_555
C19_3 C11_5 1_555 1_555
H17_3 C19_3 1_555 1_555
H19_3 C19_3 1_555 1_555
Cu5_2 N3_2 1_555 1_555
N7_2 Cu5 1_555 1_555
C2_3 C6_3 1_555 1_555
C2_3 C7_3 1_555 1_555
C5_3 C6_3 1_555 1_555
C9_3 C17_3 1_555 1_555
C13_2 C14_2 1_555 1_555
C15_3 C16_3 1_555 1_555
C35_4 N8_2 1_555 1_555
H35_4 C35_4 1_555 1_555
O16_2 C29_4 1_555 1_555
O13_2 C36_2 1_555 1_555
C24_2 H25_2 1_555 1_555
H26_2 C24_2 1_555 1_555
H27_2 C24_2 1_555 1_555
C29_4 O14_4 1_555 1_555
O14_4 H31_4 1_555 1_555
C30_2 C24_2 1_555 1_555
C37_4 C30_2 1_555 1_555
H38_4 C37_4 1_555 1_555
C29_4 C30_2 1_555 1_555
C30_2 C36_2 1_555 1_555
Cu5_2 N2_4 1_555 1_555
N1_4 H1_4 1_555 1_555
C1_4 N1_4 1_555 1_555
N2_4 C4_4 1_555 1_555
C2_4 H2_4 1_555 1_555
O15_2 C8_4 1_555 1_555
O3_4 Cu5_2 1_555 1_555
O4_4 Cu5_2 1_555 1_555
O5_4 C17_4 1_555 1_555
O6_4 C10_4 1_555 1_555
C3_4 H3_4 1_555 1_555
H4_4 C3_4 1_555 1_555
H5_4 C3_4 1_555 1_555
C4_4 H6_4 1_555 1_555
C5_4 C4_4 1_555 1_555
H7_4 C5_4 1_555 1_555
C6_4 C1_4 1_555 1_555
C7_4 N2_4 1_555 1_555
H8_4 C7_4 1_555 1_555
C8_4 O7_4 1_555 1_555
O7_4 H9_4 1_555 1_555
C9_4 C3_4 1_555 1_555
C10_4 O3_4 1_555 1_555
C11_6 C10_4 1_555 1_555
H12_4 C15_4 1_555 1_555
C17_4 O4_4 1_555 1_555
C18_4 C9_4 1_555 1_555
H14_4 C18_4 1_555 1_555
H15_4 C18_4 1_555 1_555
H16_4 C18_4 1_555 1_555
C19_4 C11_6 1_555 1_555
H17_4 C19_4 1_555 1_555
H18_4 C19_4 1_555 1_555
H19_4 C19_4 1_555 1_555
O8_4 C20_4 1_555 1_555
O9_4 C20_4 1_555 1_555
C20_4 C11_6 1_555 1_555
C21_4 C11_6 1_555 1_555
H20_4 C21_4 1_555 1_555
H21_4 C21_4 1_555 1_555
H22_4 C21_4 1_555 1_555
Cu6_2 O8_4 1_555 1_555
N4_4 H23_4 1_555 1_555
C22_4 N4_4 1_555 1_555
N5_4 Cu6_2 1_555 1_555
C23_4 H24_4 1_555 1_555
O12_4 Cu6_2 1_555 1_555
C25_4 N5_4 1_555 1_555
H28_4 C25_4 1_555 1_555
C26_4 C25_4 1_555 1_555
H29_4 C26_4 1_555 1_555
C27_4 C22_4 1_555 1_555
C28_4 N5_4 1_555 1_555
H30_4 C28_4 1_555 1_555
H34_4 C34_4 1_555 1_555
C2_4 C6_4 1_555 1_555
C2_4 C7_4 1_555 1_555
C5_4 C6_4 1_555 1_555
C8_4 C9_4 1_555 1_555
C9_4 C17_4 1_555 1_555
C23_4 C27_4 1_555 1_555
C23_4 C28_4 1_555 1_555
C26_4 C27_4 1_555 1_555
C16_4 N7_2 1_555 1_555
H13_4 C16_4 1_555 1_555
O13_3 C36_3 1_555 1_555
C24_3 H25_3 1_555 1_555
H26_3 C24_3 1_555 1_555
H27_3 C24_3 1_555 1_555
C30_3 C24_3 1_555 1_555
C30_3 C36_3 1_555 1_555
C12_3 H10_3 1_555 1_555
C13_3 C12_3 1_555 1_555
H11_3 C13_3 1_555 1_555
C13_3 C14_3 1_555 1_555
C31_3 H32_3 1_555 1_555
C32_3 C31_3 1_555 1_555
H33_3 C32_3 1_555 1_555
C32_3 C33_3 1_555 1_555
O13_4 C36_4 1_555 1_555
C24_4 H25_4 1_555 1_555
H26_4 C24_4 1_555 1_555
H27_4 C24_4 1_555 1_555
C30_4 C24_4 1_555 1_555
C30_4 C36_4 1_555 1_555
C31_4 H32_4 1_555 1_555
C32_4 C31_4 1_555 1_555
H33_4 C32_4 1_555 1_555
C32_4 C33_4 1_555 1_555
C12_4 H10_4 1_555 1_555
C13_4 C12_4 1_555 1_555
H11_4 C13_4 1_555 1_555
C13_4 C14_4 1_555 1_555

#END
