
###############################################################################
#
# This file contains modified crystal structure data generated from the
# MOF subset of the Cambridge Structural Database (CSD) v543 
# hosted by the Cambridge Crystallographic Data Centre (CCDC).
#
# This work is licensed under the Creative Commons
# Attribution-NonCommercial-ShareAlike 4.0 International License.
# To view a copy of this license, visit
# http://creativecommons.org/licenses/by-nc-sa/4.0/
# or send a letter to
# Creative Commons, PO Box 1866, Mountain View, CA 94042, USA.
#
# CIF created using the CSD Python API on 29 September 2022
# The structure has been converted into the P1 space group
# The structure has a 3D framework
# The original CSD entry EJOZOU is in the monoclinic crystal system
# The framework has been calculated to contain at least 10.0% void space
# The void calculation uses a probe of radius 1.32A, grid spacing 0.4
#
###############################################################################

data_EJOZOU
_chemical_formula_moiety         '(C256 H240 Cu16 N48 O72)n'
_symmetry_cell_setting           triclinic
_symmetry_space_group_name_H-M   'P 1'
_symmetry_Int_Tables_number      1
_space_group_name_Hall           'P 1'
loop_
_symmetry_equiv_pos_site_id
_symmetry_equiv_pos_as_xyz
1 x,y,z
_cell_length_a                   39.900(4)
_cell_length_b                   9.9925(9)
_cell_length_c                   28.728(3)
_cell_angle_alpha                90
_cell_angle_beta                 133.7990(10)
_cell_angle_gamma                90
_cell_volume                     8267.09
loop_
_atom_site_label
_atom_site_type_symbol
_atom_site_fract_x
_atom_site_fract_y
_atom_site_fract_z
O1 O 0.58113(9) 0.0153(2) 0.46103(11)
O6 O 0.45191(9) 0.0413(2) 0.27271(11)
C1 C 0.55602(14) 0.1206(3) 0.43357(17)
C2 C 0.52600(13) 0.1397(3) 0.36060(17)
O8 O 0.55700(12) 0.2103(3) 0.46367(14)
C3 C 0.49361(13) 0.0186(3) 0.32262(16)
C12 C 0.21054(16) 0.7969(4) 0.0297(2)
H7 H 0.2236 0.8840 0.0402
C13 C 0.23832(16) 0.6861(4) 0.0513(2)
H8 H 0.2706 0.6959 0.0767
C14 C 0.21860(14) 0.5592(4) 0.03571(19)
N5 N 0.24800(12) 0.4482(3) 0.06106(17)
H10 H 0.2774 0.4641 0.0830
N6 N 0.34755(11) 0.0358(3) 0.17194(15)
C17 C 0.35014(15) 0.1410(4) 0.1463(2)
H11 H 0.3776 0.1522 0.1547
C18 C 0.31534(14) 0.2350(4) 0.10809(19)
H12 H 0.3188 0.3076 0.0903
C19 C 0.27565(13) 0.2220(4) 0.09616(18)
C20 C 0.23558(14) 0.3182(4) 0.05509(19)
O9 O 0.19567(10) 0.2796(3) 0.01995(15)
C21 C 0.27243(15) 0.1134(4) 0.1233(2)
H13 H 0.2455 0.1011 0.1160
C22 C 0.30871(15) 0.0243(4) 0.1607(2)
C23 C 0.49827(14) 0.2697(4) 0.33688(18)
H15 H 0.4773 0.2660 0.3436
H16 H 0.4801 0.2812 0.2908
H17 H 0.5196 0.3453 0.3610
C24 C 0.55954(14) 0.1465(4) 0.35108(18)
H18 H 0.5828 0.2161 0.3791
H19 H 0.5420 0.1678 0.3060
H20 H 0.5750 0.0599 0.3622
O11 O 0.41887(9) 0.0153(2) 0.03897(11)
O6_2 O 0.54809(9) 0.0413(2) 0.22729(11)
C1_2 C 0.44398(14) 0.1206(3) 0.06643(17)
C2_2 C 0.47400(13) 0.1397(3) 0.13940(17)
O8_2 O 0.44300(12) 0.2103(3) 0.03633(14)
C3_2 C 0.50639(13) 0.0186(3) 0.17738(16)
N4 N 0.85550(11) 0.6596(3) 0.52313(14)
C11 C 0.83575(14) 0.7818(4) 0.50676(19)
H6 H 0.8546 0.8590 0.5210
C12_2 C 0.78946(16) 0.7969(4) 0.4703(2)
H7_2 H 0.7764 0.8840 0.4598
C13_2 C 0.76168(16) 0.6861(4) 0.4487(2)
H8_2 H 0.7294 0.6959 0.4233
C14_2 C 0.78140(14) 0.5592(4) 0.46429(19)
C15 C 0.82892(13) 0.5515(4) 0.50256(18)
H9 H 0.8431 0.4657 0.5146
N5_2 N 0.75200(12) 0.4482(3) 0.43894(17)
H10_2 H 0.7226 0.4641 0.4170
N6_2 N 0.65245(11) 0.0358(3) 0.32806(15)
C17_2 C 0.64986(15) 0.1410(4) 0.3537(2)
H11_2 H 0.6224 0.1522 0.3453
C18_2 C 0.68466(14) 0.2350(4) 0.39191(19)
H12_2 H 0.6812 0.3076 0.4097
C19_2 C 0.72435(13) 0.2220(4) 0.40384(18)
C20_2 C 0.76442(14) 0.3182(4) 0.44491(19)
O9_2 O 0.80433(10) 0.2796(3) 0.48005(15)
C21_2 C 0.72757(15) 0.1134(4) 0.3767(2)
H13_2 H 0.7545 0.1011 0.3840
C22_2 C 0.69129(15) 0.0243(4) 0.3393(2)
C23_2 C 0.50173(14) 0.2697(4) 0.16312(18)
H15_2 H 0.5227 0.2660 0.1564
H16_2 H 0.5199 0.2812 0.2092
H17_2 H 0.4804 0.3453 0.1390
C24_2 C 0.44046(14) 0.1465(4) 0.14892(18)
H18_2 H 0.4172 0.2161 0.1209
H19_2 H 0.4580 0.1678 0.1940
H20_2 H 0.4250 0.0599 0.1378
Cu4 Cu 0.92533(2) 0.64257(4) 0.58497(2)
O3 O 0.92340(11) 0.9698(3) 0.87176(13)
N1 N 0.93642(13) 0.8013(3) 0.93588(16)
H1 H 0.9445 0.7854 0.9727
N2 N 0.91397(11) 0.5887(3) 0.81165(15)
C7 C 0.92986(15) 0.9309(4) 0.91786(18)
C8 C 0.93171(15) 0.6889(4) 0.90215(19)
C25 C 0.91882(15) 0.4669(4) 0.8359(2)
H21 H 0.9136 0.3893 0.8124
C26 C 0.93111(18) 0.4521(4) 0.8935(2)
H22 H 0.9347 0.3651 0.9098
C27 C 0.93832(18) 0.5635(4) 0.9280(2)
H23 H 0.9476 0.5544 0.9685
C28 C 0.92019(14) 0.6979(4) 0.84429(18)
H24 H 0.9166 0.7839 0.8272
Cu5 Cu 0.90646(2) 0.60600(4) 0.73489(2)
O1_2 O 0.91887(9) 0.4847(2) 0.53897(11)
O2 O 0.99100(9) 0.5990(2) 0.65765(12)
C1_3 C 0.94398(14) 0.3794(3) 0.56643(17)
C2_3 C 0.97400(13) 0.3603(3) 0.63940(17)
O8_3 O 0.94300(12) 0.2897(3) 0.53633(14)
H17_3 H 0.9804 0.1547 0.6390
C24_3 C 0.94046(14) 0.3535(4) 0.64892(18)
H18_3 H 0.9172 0.2839 0.6209
H19_3 H 0.9580 0.3322 0.6940
H20_3 H 0.9250 0.4401 0.6378
O4 O 0.93026(9) 0.7913(2) 0.63496(11)
O5 O 0.91504(9) 0.6497(2) 0.67727(12)
O6_3 O 0.95191(9) 0.4587(2) 0.77271(11)
O7 O 0.84234(10) 0.9634(3) 0.65830(15)
C3_3 C 0.99361(13) 0.4814(3) 0.82262(16)
N3 N 0.93092(11) 0.7840(3) 0.53032(14)
C4 C 0.95857(14) 0.8906(4) 0.55828(18)
H2 H 0.9783 0.9016 0.6035
C5 C 0.96013(14) 0.9861(4) 0.52505(18)
C6 C 0.93169(14) 0.9720(4) 0.45934(18)
C9 C 0.90283(16) 0.8605(4) 0.42962(19)
H4 H 0.8831 0.8465 0.3846
C10 C 0.90337(16) 0.7704(4) 0.46667(19)
H5 H 0.8832 0.6953 0.4459
H9_2 H 0.6569 0.0343 0.4854
N5_3 N 0.74800(12) 0.0518(3) 0.56106(17)
H10_3 H 0.7774 0.0359 0.5830
C16 C 0.92038(12) 0.7679(3) 0.66735(16)
N6_3 N 0.84755(11) 0.4642(3) 0.67194(15)
C17_3 C 0.85014(15) 0.3590(4) 0.6463(2)
H11_3 H 0.8776 0.3478 0.6547
C18_3 C 0.81534(14) 0.2650(4) 0.60809(19)
H12_3 H 0.8188 0.1924 0.5903
C19_3 C 0.77565(13) 0.2780(4) 0.59616(18)
C20_3 C 0.73558(14) 0.1818(4) 0.55509(19)
O9_3 O 0.69567(10) 0.2204(3) 0.51995(15)
C21_3 C 0.77243(15) 0.3866(4) 0.6233(2)
H13_3 H 0.7455 0.3989 0.6160
C22_3 C 0.80871(15) 0.4757(4) 0.6607(2)
H14 H 0.8064 0.5488 0.6794
C23_3 C 0.99827(14) 0.2303(4) 0.83688(18)
H15_3 H 0.9773 0.2340 0.8436
H16_3 H 0.9801 0.2188 0.7908
O10 O 0.86724(9) 0.7643(2) 0.70440(12)
C29 C 0.87071(13) 0.8706(4) 0.68312(17)
C30 C 0.91418(13) 0.8884(3) 0.69405(17)
C32 C 0.95658(13) 0.8944(4) 0.76772(17)
H28 H 0.9845 0.9166 0.7765
H29 H 0.9514 0.9631 0.7865
H30 H 0.9608 0.8073 0.7868
N4_2 N 0.14450(11) 0.6596(3) 0.97687(14)
C11_2 C 0.16425(14) 0.7818(4) 0.99324(19)
H6_2 H 0.1454 0.8590 0.9790
C15_2 C 0.17108(13) 0.5515(4) 0.99744(18)
H9_3 H 0.1569 0.4657 0.9854
Cu4_2 Cu 0.07467(2) 0.64257(4) 0.91503(2)
O3_2 O 0.07660(11) 0.9698(3) 0.62824(13)
N1_2 N 0.06358(13) 0.8013(3) 0.56412(16)
H1_2 H 0.0555 0.7854 0.5273
N2_2 N 0.08603(11) 0.5887(3) 0.68835(15)
H3 H 0.0195 0.9395 0.4529
C7_2 C 0.07014(15) 0.9309(4) 0.58214(18)
C8_2 C 0.06829(15) 0.6889(4) 0.59785(19)
C25_2 C 0.08118(15) 0.4669(4) 0.6641(2)
H21_2 H 0.0864 0.3893 0.6876
C26_2 C 0.06889(18) 0.4521(4) 0.6065(2)
H22_2 H 0.0653 0.3651 0.5902
C27_2 C 0.06168(18) 0.5635(4) 0.5720(2)
H23_2 H 0.0524 0.5544 0.5315
C28_2 C 0.07981(14) 0.6979(4) 0.65571(18)
H24_2 H 0.0834 0.7839 0.6728
C31 C 0.08855(14) 0.9811(4) 0.33638(19)
H25 H 0.1155 0.9841 0.3831
H26 H 0.0918 0.9055 0.3180
H27 H 0.0602 0.9702 0.3275
Cu5_2 Cu 0.09354(2) 0.60600(4) 0.76511(2)
O4_2 O 0.06974(9) 0.7913(2) 0.86504(11)
O5_2 O 0.08496(9) 0.6497(2) 0.82273(12)
O6_4 O 0.04809(9) 0.4587(2) 0.72729(11)
O7_2 O 0.15766(10) 0.9634(3) 0.84170(15)
C3_4 C 0.00639(13) 0.4814(3) 0.67738(16)
N3_2 N 0.06908(11) 0.7840(3) 0.96968(14)
C4_2 C 0.04143(14) 0.8906(4) 0.94172(18)
H2_2 H 0.0217 0.9016 0.8965
C5_2 C 0.03987(14) 0.9861(4) 0.97495(18)
N5_4 N 0.25200(12) 0.0518(3) 0.93894(17)
H10_4 H 0.2226 0.0359 0.9170
C16_2 C 0.07962(12) 0.7679(3) 0.83265(16)
N6_4 N 0.15245(11) 0.4642(3) 0.82806(15)
C17_4 C 0.14986(15) 0.3590(4) 0.8537(2)
H11_4 H 0.1224 0.3478 0.8453
C18_4 C 0.18466(14) 0.2650(4) 0.89191(19)
H12_4 H 0.1812 0.1924 0.9097
C19_4 C 0.22435(13) 0.2780(4) 0.90384(18)
C20_4 C 0.26442(14) 0.1818(4) 0.94491(19)
O9_4 O 0.30433(10) 0.2204(3) 0.98005(15)
C21_4 C 0.22757(15) 0.3866(4) 0.8767(2)
H13_4 H 0.2545 0.3989 0.8840
C22_4 C 0.19129(15) 0.4757(4) 0.8393(2)
H14_2 H 0.1936 0.5488 0.8206
C23_4 C 0.00173(14) 0.2303(4) 0.66312(18)
H15_4 H 0.0227 0.2340 0.6564
H16_4 H 0.0199 0.2188 0.7092
O10_2 O 0.13276(9) 0.7643(2) 0.79560(12)
C29_2 C 0.12929(13) 0.8706(4) 0.81688(17)
C30_2 C 0.08582(13) 0.8884(3) 0.80595(17)
C32_2 C 0.04342(13) 0.8944(4) 0.73228(17)
H28_2 H 0.0155 0.9166 0.7235
H29_2 H 0.0486 0.9631 0.7135
H30_2 H 0.0392 0.8073 0.7132
O11_2 O 0.08113(9) 0.4847(2) 0.96103(11)
O12 O 0.00900(9) 0.5990(2) 0.84235(12)
C1_4 C 0.05602(14) 0.3794(3) 0.93357(17)
C2_4 C 0.02600(13) 0.3603(3) 0.86060(17)
O8_4 O 0.05700(12) 0.2897(3) 0.96367(14)
H17_4 H 0.0196 0.1547 0.8610
C24_4 C 0.05954(14) 0.3535(4) 0.85108(18)
H18_4 H 0.0828 0.2839 0.8791
H19_4 H 0.0420 0.3322 0.8060
H20_4 H 0.0750 0.4401 0.8622
Cu1 Cu 0.42533(2) 0.85743(4) 0.08497(2)
Cu2 Cu 0.40646(2) 0.89400(4) 0.23489(2)
O2_2 O 0.50900(9) 0.9010(2) 0.34235(12)
O4_3 O 0.43026(9) 0.7087(2) 0.13496(11)
O5_3 O 0.41504(9) 0.8503(2) 0.17727(12)
O7_3 O 0.34234(10) 0.5366(3) 0.15830(15)
N3_3 N 0.43092(11) 0.7160(3) 0.03032(14)
C4_3 C 0.45857(14) 0.6094(4) 0.05828(18)
H2_3 H 0.4783 0.5984 0.1035
C5_3 C 0.46013(14) 0.5139(4) 0.02505(18)
H3_2 H 0.4805 0.4395 0.0471
C16_3 C 0.42038(12) 0.7321(3) 0.16735(16)
H14_3 H 0.3064 0.9512 0.1794
O10_3 O 0.36724(9) 0.7357(2) 0.20440(12)
C29_3 C 0.37071(13) 0.6294(4) 0.18312(17)
C30_3 C 0.41418(13) 0.6116(3) 0.19405(17)
C31_2 C 0.41145(14) 0.4811(4) 0.16362(19)
H25_2 H 0.3845 0.4841 0.1169
H26_2 H 0.4082 0.4055 0.1820
H27_2 H 0.4398 0.4702 0.1725
C32_3 C 0.45658(13) 0.6056(4) 0.26772(17)
H28_3 H 0.4845 0.5834 0.2765
H29_3 H 0.4514 0.5369 0.2865
H30_3 H 0.4608 0.6927 0.2868
Cu3 Cu 0.57467(2) 0.85743(4) 0.41503(2)
O12_2 O 0.49100(9) 0.9010(2) 0.15765(12)
N7 N 0.41397(11) 0.9113(3) 0.31165(15)
N8 N 0.35550(11) 0.8404(3) 0.02313(14)
O3_3 O 0.42340(11) 0.4698(3) 0.87176(13)
N1_3 N 0.43642(13) 0.3013(3) 0.93588(16)
H1_3 H 0.4445 0.2854 0.9727
N2_3 N 0.41397(11) 0.0887(3) 0.81165(15)
C6_2 C 0.43169(14) 0.5280(4) 0.95934(18)
C7_3 C 0.42986(15) 0.4309(4) 0.91786(18)
C8_3 C 0.43171(15) 0.1889(4) 0.90215(19)
C9_2 C 0.40283(16) 0.6395(4) 0.92962(19)
H4_2 H 0.3831 0.6535 0.8846
C10_2 C 0.40337(16) 0.7296(4) 0.96667(19)
H5_2 H 0.3832 0.8047 0.9459
C27_3 C 0.43832(18) 0.0635(4) 0.9280(2)
H23_3 H 0.4476 0.0544 0.9685
C28_3 C 0.42019(14) 0.1979(4) 0.84429(18)
H24_3 H 0.4166 0.2839 0.8272
Cu5_3 Cu 0.40646(2) 0.10600(4) 0.73489(2)
Cu2_2 Cu 0.59354(2) 0.89400(4) 0.26511(2)
O3_4 O 0.57660(11) 0.4698(3) 0.62824(13)
O4_4 O 0.56974(9) 0.7087(2) 0.36504(11)
O5_4 O 0.58496(9) 0.8503(2) 0.32273(12)
O7_4 O 0.65766(10) 0.5366(3) 0.34170(15)
N1_4 N 0.56358(13) 0.3013(3) 0.56412(16)
H1_4 H 0.5555 0.2854 0.5273
N2_4 N 0.58603(11) 0.0887(3) 0.68835(15)
N3_4 N 0.56908(11) 0.7160(3) 0.46968(14)
C4_4 C 0.54143(14) 0.6094(4) 0.44172(18)
H2_4 H 0.5217 0.5984 0.3965
C5_4 C 0.53987(14) 0.5139(4) 0.47495(18)
H3_3 H 0.5195 0.4395 0.4529
C6_3 C 0.56831(14) 0.5280(4) 0.54066(18)
C7_4 C 0.57014(15) 0.4309(4) 0.58214(18)
C8_4 C 0.56829(15) 0.1889(4) 0.59785(19)
C9_3 C 0.59717(16) 0.6395(4) 0.57038(19)
H4_3 H 0.6169 0.6535 0.6154
C10_3 C 0.59663(16) 0.7296(4) 0.53333(19)
H5_3 H 0.6168 0.8047 0.5541
C16_4 C 0.57962(12) 0.7321(3) 0.33265(16)
H14_4 H 0.6936 0.9512 0.3206
C27_4 C 0.56168(18) 0.0635(4) 0.5720(2)
H23_4 H 0.5524 0.0544 0.5315
C28_4 C 0.57981(14) 0.1979(4) 0.65571(18)
H24_4 H 0.5834 0.2839 0.6728
O10_4 O 0.63276(9) 0.7357(2) 0.29560(12)
C29_4 C 0.62929(13) 0.6294(4) 0.31688(17)
C30_4 C 0.58582(13) 0.6116(3) 0.30595(17)
C31_3 C 0.58855(14) 0.4811(4) 0.33638(19)
H25_3 H 0.6155 0.4841 0.3831
H26_3 H 0.5918 0.4055 0.3180
H27_3 H 0.5602 0.4702 0.3275
C32_4 C 0.54342(13) 0.6056(4) 0.23228(17)
H28_4 H 0.5155 0.5834 0.2235
H29_4 H 0.5486 0.5369 0.2135
H30_4 H 0.5392 0.6927 0.2132
Cu5_4 Cu 0.59354(2) 0.10600(4) 0.76511(2)
N7_2 N 0.58603(11) 0.9113(3) 0.18835(15)
N8_2 N 0.64450(11) 0.8404(3) 0.47687(14)
N4_3 N 0.64450(11) 0.1596(3) 0.97687(14)
C11_3 C 0.66425(14) 0.2818(4) 0.99324(19)
H6_3 H 0.6454 0.3590 0.9790
C15_3 C 0.67108(13) 0.0515(4) 0.99744(18)
Cu4_3 Cu 0.57467(2) 0.14257(4) 0.91503(2)
N4_4 N 0.35550(11) 0.1596(3) 0.52313(14)
C11_4 C 0.33575(14) 0.2818(4) 0.50676(19)
H6_4 H 0.3546 0.3590 0.5210
C12_3 C 0.28946(16) 0.2969(4) 0.4703(2)
H7_3 H 0.2764 0.3840 0.4598
C13_3 C 0.26168(16) 0.1861(4) 0.4487(2)
H8_3 H 0.2294 0.1959 0.4233
C14_3 C 0.28140(14) 0.0592(4) 0.46429(19)
C15_4 C 0.32892(13) 0.0515(4) 0.50256(18)
Cu4_4 Cu 0.42533(2) 0.14257(4) 0.58497(2)
O3_5 O 0.57660(11) 0.5302(3) 0.12824(13)
N1_5 N 0.56358(13) 0.6987(3) 0.06412(16)
H1_5 H 0.5555 0.7146 0.0273
C6_4 C 0.56831(14) 0.4720(4) 0.04066(18)
C7_5 C 0.57014(15) 0.5691(4) 0.08214(18)
C8_5 C 0.56829(15) 0.8111(4) 0.09785(19)
C9_4 C 0.59717(16) 0.3605(4) 0.07038(19)
H4_4 H 0.6169 0.3465 0.1154
C10_4 C 0.59663(16) 0.2704(4) 0.03333(19)
H5_4 H 0.6168 0.1953 0.0541
C27_5 C 0.56168(18) 0.9365(4) 0.0720(2)
H23_5 H 0.5524 0.9456 0.0315
C28_5 C 0.57981(14) 0.8021(4) 0.15571(18)
H24_5 H 0.5834 0.7161 0.1728
O2_3 O 0.49100(9) 0.0990(2) 0.65765(12)
O4_5 O 0.56974(9) 0.2913(2) 0.86504(11)
O5_5 O 0.58496(9) 0.1497(2) 0.82273(12)
O7_5 O 0.65766(10) 0.4634(3) 0.84170(15)
N3_5 N 0.56908(11) 0.2840(3) 0.96968(14)
C4_5 C 0.54143(14) 0.3906(4) 0.94172(18)
H2_5 H 0.5217 0.4016 0.8965
C5_5 C 0.53987(14) 0.4861(4) 0.97495(18)
H3_4 H 0.5195 0.5605 0.9529
C16_5 C 0.57962(12) 0.2679(3) 0.83265(16)
H14_5 H 0.6936 0.0488 0.8206
O10_5 O 0.63276(9) 0.2643(2) 0.79560(12)
C29_5 C 0.62929(13) 0.3706(4) 0.81688(17)
C30_5 C 0.58582(13) 0.3884(3) 0.80595(17)
C31_4 C 0.58855(14) 0.5189(4) 0.83638(19)
H25_4 H 0.6155 0.5159 0.8831
H26_4 H 0.5918 0.5945 0.8180
H27_4 H 0.5602 0.5298 0.8275
C32_5 C 0.54342(13) 0.3944(4) 0.73228(17)
H28_5 H 0.5155 0.4166 0.7235
H29_5 H 0.5486 0.4631 0.7135
H30_5 H 0.5392 0.3073 0.7132
O12_3 O 0.50900(9) 0.0990(2) 0.84235(12)
O3_6 O 0.42340(11) 0.5302(3) 0.37176(13)
O4_6 O 0.43026(9) 0.2913(2) 0.63496(11)
O5_6 O 0.41504(9) 0.1497(2) 0.67727(12)
O7_6 O 0.34234(10) 0.4634(3) 0.65830(15)
N1_6 N 0.43642(13) 0.6987(3) 0.43588(16)
H1_6 H 0.4445 0.7146 0.4727
N3_6 N 0.43092(11) 0.2840(3) 0.53032(14)
C4_6 C 0.45857(14) 0.3906(4) 0.55828(18)
H2_6 H 0.4783 0.4016 0.6035
C5_6 C 0.46013(14) 0.4861(4) 0.52505(18)
H3_5 H 0.4805 0.5605 0.5471
C6_5 C 0.43169(14) 0.4720(4) 0.45934(18)
C7_6 C 0.42986(15) 0.5691(4) 0.41786(18)
C8_6 C 0.43171(15) 0.8111(4) 0.40215(19)
C9_5 C 0.40283(16) 0.3605(4) 0.42962(19)
H4_5 H 0.3831 0.3465 0.3846
C10_5 C 0.40337(16) 0.2704(4) 0.46667(19)
H5_5 H 0.3832 0.1953 0.4459
C16_6 C 0.42038(12) 0.2679(3) 0.66735(16)
H14_6 H 0.3064 0.0488 0.6794
C27_6 C 0.43832(18) 0.9365(4) 0.4280(2)
H23_6 H 0.4476 0.9456 0.4685
C28_6 C 0.42019(14) 0.8021(4) 0.34429(18)
H24_6 H 0.4166 0.7161 0.3272
O10_6 O 0.36724(9) 0.2643(2) 0.70440(12)
C29_6 C 0.37071(13) 0.3706(4) 0.68312(17)
C30_6 C 0.41418(13) 0.3884(3) 0.69405(17)
C31_5 C 0.41145(14) 0.5189(4) 0.66362(19)
H25_5 H 0.3845 0.5159 0.6169
H26_5 H 0.4082 0.5945 0.6820
H27_5 H 0.4398 0.5298 0.6725
C32_6 C 0.45658(13) 0.3944(4) 0.76772(17)
H28_6 H 0.4845 0.4166 0.7765
H29_6 H 0.4514 0.4631 0.7865
H30_6 H 0.4608 0.3073 0.7868
C11_5 C 0.33575(14) 0.7182(4) 0.00676(19)
H6_5 H 0.3546 0.6410 0.0210
C15_5 C 0.32892(13) 0.9485(4) 0.00256(18)
C11_6 C 0.66425(14) 0.7182(4) 0.49324(19)
H6_6 H 0.6454 0.6410 0.4790
C12_4 C 0.71054(16) 0.7031(4) 0.5297(2)
H7_4 H 0.7236 0.6160 0.5402
C13_4 C 0.73832(16) 0.8139(4) 0.5513(2)
H8_4 H 0.7706 0.8041 0.5767
C14_4 C 0.71860(14) 0.9408(4) 0.53571(19)
C15_6 C 0.67108(13) 0.9485(4) 0.49744(18)
C25_3 C 0.41882(15) 0.9669(4) 0.8359(2)
H21_3 H 0.4136 0.8893 0.8124
C26_3 C 0.43111(18) 0.9521(4) 0.8935(2)
H22_3 H 0.4347 0.8651 0.9098
C25_4 C 0.58118(15) 0.9669(4) 0.6641(2)
H21_4 H 0.5864 0.8893 0.6876
C26_4 C 0.56889(18) 0.9521(4) 0.6065(2)
H22_4 H 0.5653 0.8651 0.5902
O1_3 O 0.08113(9) 0.5153(2) 0.46103(11)
O2_4 O 0.00900(9) 0.4010(2) 0.34235(12)
C1_5 C 0.05602(14) 0.6206(3) 0.43357(17)
C2_5 C 0.02600(13) 0.6397(3) 0.36060(17)
O8_5 O 0.05700(12) 0.7103(3) 0.46367(14)
H17_5 H 0.0196 0.8453 0.3610
C24_5 C 0.05954(14) 0.6465(4) 0.35108(18)
H18_5 H 0.0828 0.7161 0.3791
H19_5 H 0.0420 0.6678 0.3060
H20_5 H 0.0750 0.5599 0.3622
Cu3_2 Cu 0.07467(2) 0.35743(4) 0.41503(2)
Cu2_3 Cu 0.09354(2) 0.39400(4) 0.26511(2)
O4_7 O 0.06974(9) 0.2087(2) 0.36504(11)
O5_7 O 0.08496(9) 0.3503(2) 0.32273(12)
O6_5 O 0.04809(9) 0.5413(2) 0.22729(11)
O7_7 O 0.15766(10) 0.0366(3) 0.34170(15)
C3_5 C 0.00639(13) 0.5186(3) 0.17738(16)
N3_7 N 0.06908(11) 0.2160(3) 0.46968(14)
C4_7 C 0.04143(14) 0.1094(4) 0.44172(18)
H2_7 H 0.0217 0.0984 0.3965
C5_7 C 0.03987(14) 0.0139(4) 0.47495(18)
C6_6 C 0.06831(14) 0.0280(4) 0.54066(18)
C9_6 C 0.09717(16) 0.1395(4) 0.57038(19)
H4_6 H 0.1169 0.1535 0.6154
C10_6 C 0.09663(16) 0.2296(4) 0.53333(19)
H5_6 H 0.1168 0.3047 0.5541
H9_4 H 0.3431 0.9657 0.5146
N5_5 N 0.25200(12) 0.9482(3) 0.43894(17)
H10_5 H 0.2226 0.9641 0.4170
C16_7 C 0.07962(12) 0.2321(3) 0.33265(16)
N6_5 N 0.15245(11) 0.5358(3) 0.32806(15)
C17_5 C 0.14986(15) 0.6410(4) 0.3537(2)
H11_5 H 0.1224 0.6522 0.3453
C18_5 C 0.18466(14) 0.7350(4) 0.39191(19)
H12_5 H 0.1812 0.8076 0.4097
C19_5 C 0.22435(13) 0.7220(4) 0.40384(18)
C20_5 C 0.26442(14) 0.8182(4) 0.44491(19)
O9_5 O 0.30433(10) 0.7796(3) 0.48005(15)
C21_5 C 0.22757(15) 0.6134(4) 0.3767(2)
H13_5 H 0.2545 0.6011 0.3840
C22_5 C 0.19129(15) 0.5243(4) 0.3393(2)
H14_7 H 0.1936 0.4512 0.3206
C23_5 C 0.00173(14) 0.7697(4) 0.16312(18)
H15_5 H 0.0227 0.7660 0.1564
H16_5 H 0.0199 0.7812 0.2092
O10_7 O 0.13276(9) 0.2357(2) 0.29560(12)
C29_7 C 0.12929(13) 0.1294(4) 0.31688(17)
C30_7 C 0.08582(13) 0.1116(3) 0.30595(17)
C32_7 C 0.04342(13) 0.1056(4) 0.23228(17)
H28_7 H 0.0155 0.0834 0.2235
H29_7 H 0.0486 0.0369 0.2135
H30_7 H 0.0392 0.1927 0.2132
N7_3 N 0.08603(11) 0.4113(3) 0.18835(15)
N8_3 N 0.14450(11) 0.3404(3) 0.47687(14)
O1_4 O 0.41887(9) 0.9847(2) 0.53897(11)
O6_6 O 0.54809(9) 0.9587(2) 0.72729(11)
C1_6 C 0.44398(14) 0.8794(3) 0.56643(17)
C2_6 C 0.47400(13) 0.8603(3) 0.63940(17)
O8_6 O 0.44300(12) 0.7897(3) 0.53633(14)
C3_6 C 0.50639(13) 0.9814(3) 0.67738(16)
C12_5 C 0.78946(16) 0.2031(4) 0.9703(2)
H7_5 H 0.7764 0.1160 0.9598
C13_5 C 0.76168(16) 0.3139(4) 0.9487(2)
H8_5 H 0.7294 0.3041 0.9233
C14_5 C 0.78140(14) 0.4408(4) 0.96429(19)
N5_6 N 0.75200(12) 0.5518(3) 0.93894(17)
H10_6 H 0.7226 0.5359 0.9170
N6_6 N 0.65245(11) 0.9642(3) 0.82806(15)
C17_6 C 0.64986(15) 0.8590(4) 0.8537(2)
H11_6 H 0.6224 0.8478 0.8453
C18_6 C 0.68466(14) 0.7650(4) 0.89191(19)
H12_6 H 0.6812 0.6924 0.9097
C19_6 C 0.72435(13) 0.7780(4) 0.90384(18)
C20_6 C 0.76442(14) 0.6818(4) 0.94491(19)
O9_6 O 0.80433(10) 0.7204(3) 0.98005(15)
C21_6 C 0.72757(15) 0.8866(4) 0.8767(2)
H13_6 H 0.7545 0.8989 0.8840
C22_6 C 0.69129(15) 0.9757(4) 0.8393(2)
C23_6 C 0.50173(14) 0.7303(4) 0.66312(18)
H15_6 H 0.5227 0.7340 0.6564
H16_6 H 0.5199 0.7188 0.7092
H17_6 H 0.4804 0.6547 0.6390
C24_6 C 0.44046(14) 0.8535(4) 0.64892(18)
H18_6 H 0.4172 0.7839 0.6209
H19_6 H 0.4580 0.8322 0.6940
H20_6 H 0.4250 0.9401 0.6378
O11_3 O 0.58113(9) 0.9847(2) 0.96103(11)
O6_7 O 0.45191(9) 0.9587(2) 0.77271(11)
C1_7 C 0.55602(14) 0.8794(3) 0.93357(17)
C2_7 C 0.52600(13) 0.8603(3) 0.86060(17)
O8_7 O 0.55700(12) 0.7897(3) 0.96367(14)
C3_7 C 0.49361(13) 0.9814(3) 0.82262(16)
C11_7 C 0.16425(14) 0.2182(4) 0.49324(19)
H6_7 H 0.1454 0.1410 0.4790
C12_6 C 0.21054(16) 0.2031(4) 0.5297(2)
H7_6 H 0.2236 0.1160 0.5402
C13_6 C 0.23832(16) 0.3139(4) 0.5513(2)
H8_6 H 0.2706 0.3041 0.5767
C14_6 C 0.21860(14) 0.4408(4) 0.53571(19)
C15_7 C 0.17108(13) 0.4485(4) 0.49744(18)
H9_5 H 0.1569 0.5343 0.4854
N5_7 N 0.24800(12) 0.5518(3) 0.56106(17)
H10_7 H 0.2774 0.5359 0.5830
N6_7 N 0.34755(11) 0.9642(3) 0.67194(15)
C17_7 C 0.35014(15) 0.8590(4) 0.6463(2)
H11_7 H 0.3776 0.8478 0.6547
C18_7 C 0.31534(14) 0.7650(4) 0.60809(19)
H12_7 H 0.3188 0.6924 0.5903
C19_7 C 0.27565(13) 0.7780(4) 0.59616(18)
C20_7 C 0.23558(14) 0.6818(4) 0.55509(19)
O9_7 O 0.19567(10) 0.7204(3) 0.51995(15)
C21_7 C 0.27243(15) 0.8866(4) 0.6233(2)
H13_7 H 0.2455 0.8989 0.6160
C22_7 C 0.30871(15) 0.9757(4) 0.6607(2)
C23_7 C 0.49827(14) 0.7303(4) 0.83688(18)
H15_7 H 0.4773 0.7340 0.8436
H16_7 H 0.4801 0.7188 0.7908
H17_7 H 0.5196 0.6547 0.8610
C24_7 C 0.55954(14) 0.8535(4) 0.85108(18)
H18_7 H 0.5828 0.7839 0.8791
H19_7 H 0.5420 0.8322 0.8060
H20_7 H 0.5750 0.9401 0.8622
O3_7 O 0.07660(11) 0.0302(3) 0.12824(13)
N1_7 N 0.06358(13) 0.1987(3) 0.06412(16)
H1_7 H 0.0555 0.2146 0.0273
C7_7 C 0.07014(15) 0.0691(4) 0.08214(18)
C8_7 C 0.06829(15) 0.3111(4) 0.09785(19)
C25_5 C 0.08118(15) 0.5331(4) 0.1641(2)
H21_5 H 0.0864 0.6107 0.1876
C26_5 C 0.06889(18) 0.5479(4) 0.1065(2)
H22_5 H 0.0653 0.6349 0.0902
C27_7 C 0.06168(18) 0.4365(4) 0.0720(2)
H23_7 H 0.0524 0.4456 0.0315
C28_7 C 0.07981(14) 0.3021(4) 0.15571(18)
H24_7 H 0.0834 0.2161 0.1728
C12_7 C 0.71054(16) 0.2969(4) 0.0297(2)
H7_7 H 0.7236 0.3840 0.0402
C13_7 C 0.73832(16) 0.1861(4) 0.0513(2)
H8_7 H 0.7706 0.1959 0.0767
C14_7 C 0.71860(14) 0.0592(4) 0.03571(19)
Cu1_2 Cu 0.92533(2) 0.35743(4) 0.08497(2)
Cu2_4 Cu 0.90646(2) 0.39400(4) 0.23489(2)
O4_8 O 0.93026(9) 0.2087(2) 0.13496(11)
O5_8 O 0.91504(9) 0.3503(2) 0.17727(12)
O6_8 O 0.95191(9) 0.5413(2) 0.27271(11)
O7_8 O 0.84234(10) 0.0366(3) 0.15830(15)
C3_8 C 0.99361(13) 0.5186(3) 0.32262(16)
N3_8 N 0.93092(11) 0.2160(3) 0.03032(14)
C4_8 C 0.95857(14) 0.1094(4) 0.05828(18)
H2_8 H 0.9783 0.0984 0.1035
C5_8 C 0.96013(14) 0.0139(4) 0.02505(18)
N5_8 N 0.74800(12) 0.9482(3) 0.06106(17)
H10_8 H 0.7774 0.9641 0.0830
C16_8 C 0.92038(12) 0.2321(3) 0.16735(16)
N6_8 N 0.84755(11) 0.5358(3) 0.17194(15)
C17_8 C 0.85014(15) 0.6410(4) 0.1463(2)
H11_8 H 0.8776 0.6522 0.1547
C18_8 C 0.81534(14) 0.7350(4) 0.10809(19)
H12_8 H 0.8188 0.8076 0.0903
C19_8 C 0.77565(13) 0.7220(4) 0.09616(18)
C20_8 C 0.73558(14) 0.8182(4) 0.05509(19)
O9_8 O 0.69567(10) 0.7796(3) 0.01995(15)
C21_8 C 0.77243(15) 0.6134(4) 0.1233(2)
H13_8 H 0.7455 0.6011 0.1160
C22_8 C 0.80871(15) 0.5243(4) 0.1607(2)
H14_8 H 0.8064 0.4512 0.1794
C23_8 C 0.99827(14) 0.7697(4) 0.33688(18)
H15_8 H 0.9773 0.7660 0.3436
H16_8 H 0.9801 0.7812 0.2908
O10_8 O 0.86724(9) 0.2357(2) 0.20440(12)
C29_8 C 0.87071(13) 0.1294(4) 0.18312(17)
C30_8 C 0.91418(13) 0.1116(3) 0.19405(17)
C32_8 C 0.95658(13) 0.1056(4) 0.26772(17)
H28_8 H 0.9845 0.0834 0.2765
H29_8 H 0.9514 0.0369 0.2865
H30_8 H 0.9608 0.1927 0.2868
O11_4 O 0.91887(9) 0.5153(2) 0.03897(11)
O12_4 O 0.99100(9) 0.4010(2) 0.15765(12)
N7_4 N 0.91397(11) 0.4113(3) 0.31165(15)
N8_4 N 0.85550(11) 0.3404(3) 0.02313(14)
C1_8 C 0.94398(14) 0.6206(3) 0.06643(17)
C2_8 C 0.97400(13) 0.6397(3) 0.13940(17)
O8_8 O 0.94300(12) 0.7103(3) 0.03633(14)
H17_8 H 0.9804 0.8453 0.1390
C24_8 C 0.94046(14) 0.6465(4) 0.14892(18)
H18_8 H 0.9172 0.7161 0.1209
H19_8 H 0.9580 0.6678 0.1940
H20_8 H 0.9250 0.5599 0.1378
C11_8 C 0.83575(14) 0.2182(4) 0.00676(19)
H6_8 H 0.8546 0.1410 0.0210
C15_8 C 0.82892(13) 0.4485(4) 0.00256(18)
H9_6 H 0.8431 0.5343 0.0146
O3_8 O 0.92340(11) 0.0302(3) 0.37176(13)
N1_8 N 0.93642(13) 0.1987(3) 0.43588(16)
H1_8 H 0.9445 0.2146 0.4727
H3_6 H 0.9805 0.0605 0.5471
C7_8 C 0.92986(15) 0.0691(4) 0.41786(18)
C8_8 C 0.93171(15) 0.3111(4) 0.40215(19)
C25_6 C 0.91882(15) 0.5331(4) 0.3359(2)
H21_6 H 0.9136 0.6107 0.3124
C26_6 C 0.93111(18) 0.5479(4) 0.3935(2)
H22_6 H 0.9347 0.6349 0.4098
C27_8 C 0.93832(18) 0.4365(4) 0.4280(2)
H23_8 H 0.9476 0.4456 0.4685
C28_8 C 0.92019(14) 0.3021(4) 0.34429(18)
H24_8 H 0.9166 0.2161 0.3272
C31_6 C 0.91145(14) 0.0189(4) 0.66362(19)
H25_6 H 0.8845 0.0159 0.6169
H26_6 H 0.9082 0.0945 0.6820
H27_6 H 0.9398 0.0298 0.6725
C6_7 C 0.93169(14) 0.0280(4) 0.95934(18)
C9_7 C 0.90283(16) 0.1395(4) 0.92962(19)
H4_7 H 0.8831 0.1535 0.8846
C10_7 C 0.90337(16) 0.2296(4) 0.96667(19)
H5_7 H 0.8832 0.3047 0.9459
H9_7 H 0.6569 0.9657 0.9854
H3_7 H 0.9805 0.9395 0.0471
C31_7 C 0.91145(14) 0.9811(4) 0.16362(19)
H25_7 H 0.8845 0.9841 0.1169
H26_7 H 0.9082 0.9055 0.1820
H27_7 H 0.9398 0.9702 0.1725
C25_7 C 0.58118(15) 0.0331(4) 0.1641(2)
H21_7 H 0.5864 0.1107 0.1876
C26_7 C 0.56889(18) 0.0479(4) 0.1065(2)
H22_7 H 0.5653 0.1349 0.0902
C25_8 C 0.41882(15) 0.0331(4) 0.3359(2)
H21_8 H 0.4136 0.1107 0.3124
C26_8 C 0.43111(18) 0.0479(4) 0.3935(2)
H22_8 H 0.4347 0.1349 0.4098
H3_8 H 0.0195 0.0605 0.9529
C31_8 C 0.08855(14) 0.0189(4) 0.83638(19)
H25_8 H 0.1155 0.0159 0.8831
H26_8 H 0.0918 0.0945 0.8180
H27_8 H 0.0602 0.0298 0.8275
C6_8 C 0.06831(14) 0.9720(4) 0.04066(18)
C9_8 C 0.09717(16) 0.8605(4) 0.07038(19)
H4_8 H 0.1169 0.8465 0.1154
C10_8 C 0.09663(16) 0.7704(4) 0.03333(19)
H5_8 H 0.1168 0.6953 0.0541
H9_8 H 0.3431 0.0343 0.0146
C12_8 C 0.28946(16) 0.7031(4) 0.9703(2)
H7_8 H 0.2764 0.6160 0.9598
C13_8 C 0.26168(16) 0.8139(4) 0.9487(2)
H8_8 H 0.2294 0.8041 0.9233
C14_8 C 0.28140(14) 0.9408(4) 0.96429(19)
loop_
_geom_bond_atom_site_label_1
_geom_bond_atom_site_label_2
_geom_bond_site_symmetry_1
_geom_bond_site_symmetry_2
O1 C1 1_555 1_555
C1 C2 1_555 1_555
C2 C3 1_555 1_555
O8 C1 1_555 1_555
C3 O6 1_555 1_555
H7 C12 1_555 1_555
C13 C12 1_555 1_555
H8 C13 1_555 1_555
C14 C13 1_555 1_555
N5 C14 1_555 1_555
H10 N5 1_555 1_555
C17 N6 1_555 1_555
H11 C17 1_555 1_555
C18 C17 1_555 1_555
H12 C18 1_555 1_555
C19 C18 1_555 1_555
C20 N5 1_555 1_555
O9 C20 1_555 1_555
C21 C19 1_555 1_555
H13 C21 1_555 1_555
C22 N6 1_555 1_555
C23 C2 1_555 1_555
H15 C23 1_555 1_555
H16 C23 1_555 1_555
H17 C23 1_555 1_555
C24 C2 1_555 1_555
H18 C24 1_555 1_555
H19 C24 1_555 1_555
H20 C24 1_555 1_555
C19 C20 1_555 1_555
C21 C22 1_555 1_555
O11 C1_2 1_555 1_555
C1_2 C2_2 1_555 1_555
C2_2 C3_2 1_555 1_555
O8_2 C1_2 1_555 1_555
C3_2 O6_2 1_555 1_555
N4 C11 1_555 1_555
C11 H6 1_555 1_555
C12_2 C11 1_555 1_555
H7_2 C12_2 1_555 1_555
C13_2 C12_2 1_555 1_555
H8_2 C13_2 1_555 1_555
C14_2 C13_2 1_555 1_555
C15 N4 1_555 1_555
H9 C15 1_555 1_555
N5_2 C14_2 1_555 1_555
H10_2 N5_2 1_555 1_555
C17_2 N6_2 1_555 1_555
H11_2 C17_2 1_555 1_555
C18_2 C17_2 1_555 1_555
H12_2 C18_2 1_555 1_555
C19_2 C18_2 1_555 1_555
C20_2 N5_2 1_555 1_555
O9_2 C20_2 1_555 1_555
C21_2 C19_2 1_555 1_555
H13_2 C21_2 1_555 1_555
C22_2 N6_2 1_555 1_555
C23_2 C2_2 1_555 1_555
H15_2 C23_2 1_555 1_555
H16_2 C23_2 1_555 1_555
H17_2 C23_2 1_555 1_555
C24_2 C2_2 1_555 1_555
H18_2 C24_2 1_555 1_555
H19_2 C24_2 1_555 1_555
H20_2 C24_2 1_555 1_555
Cu4 N4 1_555 1_555
C14_2 C15 1_555 1_555
C19_2 C20_2 1_555 1_555
C21_2 C22_2 1_555 1_555
O3 C7 1_555 1_555
N1 H1 1_555 1_555
N2 C25 1_555 1_555
C7 N1 1_555 1_555
C8 N1 1_555 1_555
C25 H21 1_555 1_555
C26 C25 1_555 1_555
H22 C26 1_555 1_555
C27 C8 1_555 1_555
H23 C27 1_555 1_555
C28 N2 1_555 1_555
H24 C28 1_555 1_555
Cu5 N2 1_555 1_555
C8 C28 1_555 1_555
C26 C27 1_555 1_555
O1_2 C1_3 1_555 1_555
C1_3 C2_3 1_555 1_555
O8_3 C1_3 1_555 1_555
C24_3 C2_3 1_555 1_555
H18_3 C24_3 1_555 1_555
H19_3 C24_3 1_555 1_555
H20_3 C24_3 1_555 1_555
Cu4 O1_2 1_555 1_555
O2 Cu4 1_555 1_555
Cu4 O4 1_555 1_555
Cu5 O5 1_555 1_555
O4 C16 1_555 1_555
O5 C16 1_555 1_555
O6_3 Cu5 1_555 1_555
O7 C29 1_555 1_555
C3_3 O6_3 1_555 1_555
N3 Cu4 1_555 1_555
C4 N3 1_555 1_555
H2 C4 1_555 1_555
C5 C4 1_555 1_555
C6 C5 1_555 1_555
C9 C6 1_555 1_555
H4 C9 1_555 1_555
C10 N3 1_555 1_555
H5 C10 1_555 1_555
H10_3 N5_3 1_555 1_555
C16 C30 1_555 1_555
N6_3 Cu5 1_555 1_555
C17_3 N6_3 1_555 1_555
H11_3 C17_3 1_555 1_555
C18_3 C17_3 1_555 1_555
H12_3 C18_3 1_555 1_555
C19_3 C18_3 1_555 1_555
C20_3 N5_3 1_555 1_555
O9_3 C20_3 1_555 1_555
C21_3 C19_3 1_555 1_555
H13_3 C21_3 1_555 1_555
C22_3 N6_3 1_555 1_555
H14 C22_3 1_555 1_555
H15_3 C23_3 1_555 1_555
H16_3 C23_3 1_555 1_555
O10 Cu5 1_555 1_555
C29 O10 1_555 1_555
C30 C29 1_555 1_555
C32 C30 1_555 1_555
H28 C32 1_555 1_555
H29 C32 1_555 1_555
H30 C32 1_555 1_555
C9 C10 1_555 1_555
C19_3 C20_3 1_555 1_555
C21_3 C22_3 1_555 1_555
N4_2 C11_2 1_555 1_555
C11_2 H6_2 1_555 1_555
C15_2 N4_2 1_555 1_555
H9_3 C15_2 1_555 1_555
Cu4_2 N4_2 1_555 1_555
O3_2 C7_2 1_555 1_555
N1_2 H1_2 1_555 1_555
N2_2 C25_2 1_555 1_555
C7_2 N1_2 1_555 1_555
C8_2 N1_2 1_555 1_555
C25_2 H21_2 1_555 1_555
C26_2 C25_2 1_555 1_555
H22_2 C26_2 1_555 1_555
C27_2 C8_2 1_555 1_555
H23_2 C27_2 1_555 1_555
C28_2 N2_2 1_555 1_555
H24_2 C28_2 1_555 1_555
H25 C31 1_555 1_555
H26 C31 1_555 1_555
H27 C31 1_555 1_555
Cu5_2 N2_2 1_555 1_555
C8_2 C28_2 1_555 1_555
C26_2 C27_2 1_555 1_555
Cu4_2 O4_2 1_555 1_555
Cu5_2 O5_2 1_555 1_555
O4_2 C16_2 1_555 1_555
O5_2 C16_2 1_555 1_555
O6_4 Cu5_2 1_555 1_555
O7_2 C29_2 1_555 1_555
C3_4 O6_4 1_555 1_555
N3_2 Cu4_2 1_555 1_555
C4_2 N3_2 1_555 1_555
H2_2 C4_2 1_555 1_555
C5_2 C4_2 1_555 1_555
H10_4 N5_4 1_555 1_555
C16_2 C30_2 1_555 1_555
N6_4 Cu5_2 1_555 1_555
C17_4 N6_4 1_555 1_555
H11_4 C17_4 1_555 1_555
C18_4 C17_4 1_555 1_555
H12_4 C18_4 1_555 1_555
C19_4 C18_4 1_555 1_555
C20_4 N5_4 1_555 1_555
O9_4 C20_4 1_555 1_555
C21_4 C19_4 1_555 1_555
H13_4 C21_4 1_555 1_555
C22_4 N6_4 1_555 1_555
H14_2 C22_4 1_555 1_555
H15_4 C23_4 1_555 1_555
H16_4 C23_4 1_555 1_555
O10_2 Cu5_2 1_555 1_555
C29_2 O10_2 1_555 1_555
C30_2 C29_2 1_555 1_555
C32_2 C30_2 1_555 1_555
H28_2 C32_2 1_555 1_555
H29_2 C32_2 1_555 1_555
H30_2 C32_2 1_555 1_555
O11_2 Cu4_2 1_555 1_555
O12 Cu4_2 1_555 1_555
C19_4 C20_4 1_555 1_555
C21_4 C22_4 1_555 1_555
O11_2 C1_4 1_555 1_555
C1_4 C2_4 1_555 1_555
O8_4 C1_4 1_555 1_555
C24_4 C2_4 1_555 1_555
H18_4 C24_4 1_555 1_555
H19_4 C24_4 1_555 1_555
H20_4 C24_4 1_555 1_555
Cu1 O4_3 1_555 1_555
Cu2 O5_3 1_555 1_555
O4_3 C16_3 1_555 1_555
O5_3 C16_3 1_555 1_555
O7_3 C29_3 1_555 1_555
N3_3 Cu1 1_555 1_555
C4_3 N3_3 1_555 1_555
H2_3 C4_3 1_555 1_555
C5_3 C4_3 1_555 1_555
H3_2 C5_3 1_555 1_555
C16_3 C30_3 1_555 1_555
O10_3 Cu2 1_555 1_555
C29_3 O10_3 1_555 1_555
C30_3 C29_3 1_555 1_555
C31_2 C30_3 1_555 1_555
H25_2 C31_2 1_555 1_555
H26_2 C31_2 1_555 1_555
H27_2 C31_2 1_555 1_555
C32_3 C30_3 1_555 1_555
H28_3 C32_3 1_555 1_555
H29_3 C32_3 1_555 1_555
H30_3 C32_3 1_555 1_555
O12_2 Cu1 1_555 1_555
N7 Cu2 1_555 1_555
N8 Cu1 1_555 1_555
O2_2 Cu3 1_555 1_555
O3_3 C7_3 1_555 1_555
N1_3 H1_3 1_555 1_555
C7_3 N1_3 1_555 1_555
C8_3 N1_3 1_555 1_555
C9_2 C6_2 1_555 1_555
H4_2 C9_2 1_555 1_555
H5_2 C10_2 1_555 1_555
C27_3 C8_3 1_555 1_555
H23_3 C27_3 1_555 1_555
C28_3 N2_3 1_555 1_555
H24_3 C28_3 1_555 1_555
Cu5_3 N2_3 1_555 1_555
C6_2 C7_3 1_555 1_555
C8_3 C28_3 1_555 1_555
C9_2 C10_2 1_555 1_555
Cu3 O4_4 1_555 1_555
Cu2_2 O5_4 1_555 1_555
O3_4 C7_4 1_555 1_555
O4_4 C16_4 1_555 1_555
O5_4 C16_4 1_555 1_555
O7_4 C29_4 1_555 1_555
N1_4 H1_4 1_555 1_555
N3_4 Cu3 1_555 1_555
C4_4 N3_4 1_555 1_555
H2_4 C4_4 1_555 1_555
C5_4 C4_4 1_555 1_555
H3_3 C5_4 1_555 1_555
C6_3 C5_4 1_555 1_555
C7_4 N1_4 1_555 1_555
C8_4 N1_4 1_555 1_555
C9_3 C6_3 1_555 1_555
H4_3 C9_3 1_555 1_555
C10_3 N3_4 1_555 1_555
H5_3 C10_3 1_555 1_555
C16_4 C30_4 1_555 1_555
C27_4 C8_4 1_555 1_555
H23_4 C27_4 1_555 1_555
C28_4 N2_4 1_555 1_555
H24_4 C28_4 1_555 1_555
O10_4 Cu2_2 1_555 1_555
C29_4 O10_4 1_555 1_555
C30_4 C29_4 1_555 1_555
C31_3 C30_4 1_555 1_555
H25_3 C31_3 1_555 1_555
H26_3 C31_3 1_555 1_555
H27_3 C31_3 1_555 1_555
C32_4 C30_4 1_555 1_555
H28_4 C32_4 1_555 1_555
H29_4 C32_4 1_555 1_555
H30_4 C32_4 1_555 1_555
Cu5_4 N2_4 1_555 1_555
N7_2 Cu2_2 1_555 1_555
N8_2 Cu3 1_555 1_555
C6_3 C7_4 1_555 1_555
C8_4 C28_4 1_555 1_555
C9_3 C10_3 1_555 1_555
N4_3 C11_3 1_555 1_555
C11_3 H6_3 1_555 1_555
C15_3 N4_3 1_555 1_555
Cu4_3 N4_3 1_555 1_555
N4_4 C11_4 1_555 1_555
C11_4 H6_4 1_555 1_555
C12_3 C11_4 1_555 1_555
H7_3 C12_3 1_555 1_555
C13_3 C12_3 1_555 1_555
H8_3 C13_3 1_555 1_555
C14_3 C13_3 1_555 1_555
C15_4 N4_4 1_555 1_555
Cu4_4 N4_4 1_555 1_555
C14_3 C15_4 1_555 1_555
O3_5 C7_5 1_555 1_555
N1_5 H1_5 1_555 1_555
C7_5 N1_5 1_555 1_555
C8_5 N1_5 1_555 1_555
C9_4 C6_4 1_555 1_555
H4_4 C9_4 1_555 1_555
H5_4 C10_4 1_555 1_555
C27_5 C8_5 1_555 1_555
H23_5 C27_5 1_555 1_555
C28_5 N7_2 1_555 1_555
H24_5 C28_5 1_555 1_555
C6_4 C7_5 1_555 1_555
C8_5 C28_5 1_555 1_555
C9_4 C10_4 1_555 1_555
Cu4_3 O4_5 1_555 1_555
Cu5_4 O5_5 1_555 1_555
O4_5 C16_5 1_555 1_555
O5_5 C16_5 1_555 1_555
O7_5 C29_5 1_555 1_555
N3_5 Cu4_3 1_555 1_555
C4_5 N3_5 1_555 1_555
H2_5 C4_5 1_555 1_555
C5_5 C4_5 1_555 1_555
H3_4 C5_5 1_555 1_555
C16_5 C30_5 1_555 1_555
O10_5 Cu5_4 1_555 1_555
C29_5 O10_5 1_555 1_555
C30_5 C29_5 1_555 1_555
C31_4 C30_5 1_555 1_555
H25_4 C31_4 1_555 1_555
H26_4 C31_4 1_555 1_555
H27_4 C31_4 1_555 1_555
C32_5 C30_5 1_555 1_555
H28_5 C32_5 1_555 1_555
H29_5 C32_5 1_555 1_555
H30_5 C32_5 1_555 1_555
O12_3 Cu4_3 1_555 1_555
O2_3 Cu4_4 1_555 1_555
Cu4_4 O4_6 1_555 1_555
Cu5_3 O5_6 1_555 1_555
O3_6 C7_6 1_555 1_555
O4_6 C16_6 1_555 1_555
O5_6 C16_6 1_555 1_555
O7_6 C29_6 1_555 1_555
N1_6 H1_6 1_555 1_555
N3_6 Cu4_4 1_555 1_555
C4_6 N3_6 1_555 1_555
H2_6 C4_6 1_555 1_555
C5_6 C4_6 1_555 1_555
H3_5 C5_6 1_555 1_555
C6_5 C5_6 1_555 1_555
C7_6 N1_6 1_555 1_555
C8_6 N1_6 1_555 1_555
C9_5 C6_5 1_555 1_555
H4_5 C9_5 1_555 1_555
C10_5 N3_6 1_555 1_555
H5_5 C10_5 1_555 1_555
C16_6 C30_6 1_555 1_555
C27_6 C8_6 1_555 1_555
H23_6 C27_6 1_555 1_555
C28_6 N7 1_555 1_555
H24_6 C28_6 1_555 1_555
O10_6 Cu5_3 1_555 1_555
C29_6 O10_6 1_555 1_555
C30_6 C29_6 1_555 1_555
C31_5 C30_6 1_555 1_555
H25_5 C31_5 1_555 1_555
H26_5 C31_5 1_555 1_555
H27_5 C31_5 1_555 1_555
C32_6 C30_6 1_555 1_555
H28_6 C32_6 1_555 1_555
H29_6 C32_6 1_555 1_555
H30_6 C32_6 1_555 1_555
C6_5 C7_6 1_555 1_555
C8_6 C28_6 1_555 1_555
C9_5 C10_5 1_555 1_555
N8 C11_5 1_555 1_555
C11_5 H6_5 1_555 1_555
C15_5 N8 1_555 1_555
N8_2 C11_6 1_555 1_555
C11_6 H6_6 1_555 1_555
C12_4 C11_6 1_555 1_555
H7_4 C12_4 1_555 1_555
C13_4 C12_4 1_555 1_555
H8_4 C13_4 1_555 1_555
C14_4 C13_4 1_555 1_555
C15_6 N8_2 1_555 1_555
C14_4 C15_6 1_555 1_555
C25_3 H21_3 1_555 1_555
C26_3 C25_3 1_555 1_555
H22_3 C26_3 1_555 1_555
C25_4 H21_4 1_555 1_555
C26_4 C25_4 1_555 1_555
H22_4 C26_4 1_555 1_555
O1_3 C1_5 1_555 1_555
C1_5 C2_5 1_555 1_555
O8_5 C1_5 1_555 1_555
C24_5 C2_5 1_555 1_555
H18_5 C24_5 1_555 1_555
H19_5 C24_5 1_555 1_555
H20_5 C24_5 1_555 1_555
Cu3_2 O1_3 1_555 1_555
O2_4 Cu3_2 1_555 1_555
Cu3_2 O4_7 1_555 1_555
Cu2_3 O5_7 1_555 1_555
O4_7 C16_7 1_555 1_555
O5_7 C16_7 1_555 1_555
O6_5 Cu2_3 1_555 1_555
O7_7 C29_7 1_555 1_555
C3_5 O6_5 1_555 1_555
N3_7 Cu3_2 1_555 1_555
C4_7 N3_7 1_555 1_555
H2_7 C4_7 1_555 1_555
C5_7 C4_7 1_555 1_555
C6_6 C5_7 1_555 1_555
C9_6 C6_6 1_555 1_555
H4_6 C9_6 1_555 1_555
C10_6 N3_7 1_555 1_555
H5_6 C10_6 1_555 1_555
H10_5 N5_5 1_555 1_555
C16_7 C30_7 1_555 1_555
N6_5 Cu2_3 1_555 1_555
C17_5 N6_5 1_555 1_555
H11_5 C17_5 1_555 1_555
C18_5 C17_5 1_555 1_555
H12_5 C18_5 1_555 1_555
C19_5 C18_5 1_555 1_555
C20_5 N5_5 1_555 1_555
O9_5 C20_5 1_555 1_555
C21_5 C19_5 1_555 1_555
H13_5 C21_5 1_555 1_555
C22_5 N6_5 1_555 1_555
H14_7 C22_5 1_555 1_555
H15_5 C23_5 1_555 1_555
H16_5 C23_5 1_555 1_555
O10_7 Cu2_3 1_555 1_555
C29_7 O10_7 1_555 1_555
C30_7 C29_7 1_555 1_555
C32_7 C30_7 1_555 1_555
H28_7 C32_7 1_555 1_555
H29_7 C32_7 1_555 1_555
H30_7 C32_7 1_555 1_555
N7_3 Cu2_3 1_555 1_555
N8_3 Cu3_2 1_555 1_555
C9_6 C10_6 1_555 1_555
C19_5 C20_5 1_555 1_555
C21_5 C22_5 1_555 1_555
O1_4 C1_6 1_555 1_555
C1_6 C2_6 1_555 1_555
C2_6 C3_6 1_555 1_555
O8_6 C1_6 1_555 1_555
C3_6 O6_6 1_555 1_555
H7_5 C12_5 1_555 1_555
C13_5 C12_5 1_555 1_555
H8_5 C13_5 1_555 1_555
C14_5 C13_5 1_555 1_555
N5_6 C14_5 1_555 1_555
H10_6 N5_6 1_555 1_555
C17_6 N6_6 1_555 1_555
H11_6 C17_6 1_555 1_555
C18_6 C17_6 1_555 1_555
H12_6 C18_6 1_555 1_555
C19_6 C18_6 1_555 1_555
C20_6 N5_6 1_555 1_555
O9_6 C20_6 1_555 1_555
C21_6 C19_6 1_555 1_555
H13_6 C21_6 1_555 1_555
C22_6 N6_6 1_555 1_555
C23_6 C2_6 1_555 1_555
H15_6 C23_6 1_555 1_555
H16_6 C23_6 1_555 1_555
H17_6 C23_6 1_555 1_555
C24_6 C2_6 1_555 1_555
H18_6 C24_6 1_555 1_555
H19_6 C24_6 1_555 1_555
H20_6 C24_6 1_555 1_555
C19_6 C20_6 1_555 1_555
C21_6 C22_6 1_555 1_555
O11_3 C1_7 1_555 1_555
C1_7 C2_7 1_555 1_555
C2_7 C3_7 1_555 1_555
O8_7 C1_7 1_555 1_555
C3_7 O6_7 1_555 1_555
N8_3 C11_7 1_555 1_555
C11_7 H6_7 1_555 1_555
C12_6 C11_7 1_555 1_555
H7_6 C12_6 1_555 1_555
C13_6 C12_6 1_555 1_555
H8_6 C13_6 1_555 1_555
C14_6 C13_6 1_555 1_555
C15_7 N8_3 1_555 1_555
H9_5 C15_7 1_555 1_555
N5_7 C14_6 1_555 1_555
H10_7 N5_7 1_555 1_555
C17_7 N6_7 1_555 1_555
H11_7 C17_7 1_555 1_555
C18_7 C17_7 1_555 1_555
H12_7 C18_7 1_555 1_555
C19_7 C18_7 1_555 1_555
C20_7 N5_7 1_555 1_555
O9_7 C20_7 1_555 1_555
C21_7 C19_7 1_555 1_555
H13_7 C21_7 1_555 1_555
C22_7 N6_7 1_555 1_555
C23_7 C2_7 1_555 1_555
H15_7 C23_7 1_555 1_555
H16_7 C23_7 1_555 1_555
H17_7 C23_7 1_555 1_555
C24_7 C2_7 1_555 1_555
H18_7 C24_7 1_555 1_555
H19_7 C24_7 1_555 1_555
H20_7 C24_7 1_555 1_555
C14_6 C15_7 1_555 1_555
C19_7 C20_7 1_555 1_555
C21_7 C22_7 1_555 1_555
O3_7 C7_7 1_555 1_555
N1_7 H1_7 1_555 1_555
N7_3 C25_5 1_555 1_555
C7_7 N1_7 1_555 1_555
C8_7 N1_7 1_555 1_555
C25_5 H21_5 1_555 1_555
C26_5 C25_5 1_555 1_555
H22_5 C26_5 1_555 1_555
C27_7 C8_7 1_555 1_555
H23_7 C27_7 1_555 1_555
C28_7 N7_3 1_555 1_555
H24_7 C28_7 1_555 1_555
C8_7 C28_7 1_555 1_555
C26_5 C27_7 1_555 1_555
H7_7 C12_7 1_555 1_555
C13_7 C12_7 1_555 1_555
H8_7 C13_7 1_555 1_555
C14_7 C13_7 1_555 1_555
Cu1_2 O4_8 1_555 1_555
Cu2_4 O5_8 1_555 1_555
O4_8 C16_8 1_555 1_555
O5_8 C16_8 1_555 1_555
O6_8 Cu2_4 1_555 1_555
O7_8 C29_8 1_555 1_555
C3_8 O6_8 1_555 1_555
N3_8 Cu1_2 1_555 1_555
C4_8 N3_8 1_555 1_555
H2_8 C4_8 1_555 1_555
C5_8 C4_8 1_555 1_555
H10_8 N5_8 1_555 1_555
C16_8 C30_8 1_555 1_555
N6_8 Cu2_4 1_555 1_555
C17_8 N6_8 1_555 1_555
H11_8 C17_8 1_555 1_555
C18_8 C17_8 1_555 1_555
H12_8 C18_8 1_555 1_555
C19_8 C18_8 1_555 1_555
C20_8 N5_8 1_555 1_555
O9_8 C20_8 1_555 1_555
C21_8 C19_8 1_555 1_555
H13_8 C21_8 1_555 1_555
C22_8 N6_8 1_555 1_555
H14_8 C22_8 1_555 1_555
H15_8 C23_8 1_555 1_555
H16_8 C23_8 1_555 1_555
O10_8 Cu2_4 1_555 1_555
C29_8 O10_8 1_555 1_555
C30_8 C29_8 1_555 1_555
C32_8 C30_8 1_555 1_555
H28_8 C32_8 1_555 1_555
H29_8 C32_8 1_555 1_555
H30_8 C32_8 1_555 1_555
O11_4 Cu1_2 1_555 1_555
O12_4 Cu1_2 1_555 1_555
N7_4 Cu2_4 1_555 1_555
N8_4 Cu1_2 1_555 1_555
C19_8 C20_8 1_555 1_555
C21_8 C22_8 1_555 1_555
O11_4 C1_8 1_555 1_555
C1_8 C2_8 1_555 1_555
O8_8 C1_8 1_555 1_555
C24_8 C2_8 1_555 1_555
H18_8 C24_8 1_555 1_555
H19_8 C24_8 1_555 1_555
H20_8 C24_8 1_555 1_555
N8_4 C11_8 1_555 1_555
C11_8 H6_8 1_555 1_555
C15_8 N8_4 1_555 1_555
H9_6 C15_8 1_555 1_555
O3_8 C7_8 1_555 1_555
N1_8 H1_8 1_555 1_555
N7_4 C25_6 1_555 1_555
C7_8 N1_8 1_555 1_555
C8_8 N1_8 1_555 1_555
C25_6 H21_6 1_555 1_555
C26_6 C25_6 1_555 1_555
H22_6 C26_6 1_555 1_555
C27_8 C8_8 1_555 1_555
H23_8 C27_8 1_555 1_555
C28_8 N7_4 1_555 1_555
H24_8 C28_8 1_555 1_555
H25_6 C31_6 1_555 1_555
H26_6 C31_6 1_555 1_555
H27_6 C31_6 1_555 1_555
C8_8 C28_8 1_555 1_555
C26_6 C27_8 1_555 1_555
C9_7 C6_7 1_555 1_555
H4_7 C9_7 1_555 1_555
H5_7 C10_7 1_555 1_555
C9_7 C10_7 1_555 1_555
H25_7 C31_7 1_555 1_555
H26_7 C31_7 1_555 1_555
H27_7 C31_7 1_555 1_555
C25_7 H21_7 1_555 1_555
C26_7 C25_7 1_555 1_555
H22_7 C26_7 1_555 1_555
C25_8 H21_8 1_555 1_555
C26_8 C25_8 1_555 1_555
H22_8 C26_8 1_555 1_555
H25_8 C31_8 1_555 1_555
H26_8 C31_8 1_555 1_555
H27_8 C31_8 1_555 1_555
C9_8 C6_8 1_555 1_555
H4_8 C9_8 1_555 1_555
H5_8 C10_8 1_555 1_555
C9_8 C10_8 1_555 1_555
H7_8 C12_8 1_555 1_555
C13_8 C12_8 1_555 1_555
H8_8 C13_8 1_555 1_555
C14_8 C13_8 1_555 1_555

#END
