
###############################################################################
#
# This file contains modified crystal structure data generated from the
# MOF subset of the Cambridge Structural Database (CSD) v543 
# hosted by the Cambridge Crystallographic Data Centre (CCDC).
#
# This work is licensed under the Creative Commons
# Attribution-NonCommercial-ShareAlike 4.0 International License.
# To view a copy of this license, visit
# http://creativecommons.org/licenses/by-nc-sa/4.0/
# or send a letter to
# Creative Commons, PO Box 1866, Mountain View, CA 94042, USA.
#
# CIF created using the CSD Python API on 29 September 2022
# The structure has been converted into the P1 space group
# The structure has a 3D framework
# The original CSD entry EJULUS is in the tetragonal crystal system
# The framework has been calculated to contain at least 10.0% void space
# The void calculation uses a probe of radius 1.32A, grid spacing 0.4
#
###############################################################################

data_EJULUS
_chemical_formula_moiety         '(C104 H120 Co16 N60 O48)n'
_symmetry_cell_setting           triclinic
_symmetry_space_group_name_H-M   'P 1'
_symmetry_Int_Tables_number      1
_space_group_name_Hall           'P 1'
loop_
_symmetry_equiv_pos_site_id
_symmetry_equiv_pos_as_xyz
1 x,y,z
_cell_length_a                   12.3214(2)
_cell_length_b                   12.3214(2)
_cell_length_c                   26.0026(10)
_cell_angle_alpha                90
_cell_angle_beta                 90
_cell_angle_gamma                90
_cell_volume                     3947.63
loop_
_atom_site_label
_atom_site_type_symbol
_atom_site_fract_x
_atom_site_fract_y
_atom_site_fract_z
Co1 Co 0.19367(8) 0.29859(8) 0.31598(3)
C1 C 0.1766(6) 0.3819(7) 0.4044(3)
C2 C 0.1704(7) 0.4420(6) 0.4540(2)
C3 C 0.1610(10) 0.5559(7) 0.4544(3)
H1 H 0.1578 0.5949 0.4238
C4 C 0.1724(8) 0.3858(8) 0.5000
H2 H 0.1752 0.3104 0.5000
C5 C 0.2957(5) 0.0113(5) 0.2537(2)
C6 C 0.2497(5) 0.0580(5) 0.3279(3)
C7 C 0.1566(16) 0.6069(11) 0.5000
H4 H 0.1502 0.6821 0.5000
N1 N 0.2460(4) 0.1477(4) 0.29954(19)
N3 N 0.2214(6) 0.0549(5) 0.3787(2)
H5 H 0.1998 0.1131 0.3939
N4 N 0.2763(4) 0.1158(4) 0.25042(19)
O1 O 0.1689(4) 0.2812(4) 0.4035(2)
O2 O 0.3768(6) 0.3310(7) 0.3395(4)
H7 H 0.4281 0.2759 0.3368
H8 H 0.3973 0.3991 0.3515
O3 O 0.1888(5) 0.4365(6) 0.36294(19)
C8 C 0.1766(6) 0.3819(7) 0.5956(3)
C9 C 0.1704(7) 0.4420(6) 0.5460(2)
C10 C 0.1610(10) 0.5559(7) 0.5456(3)
H9 H 0.1578 0.5949 0.5762
O4 O 0.1689(4) 0.2812(4) 0.5965(2)
O5 O 0.1888(5) 0.4365(6) 0.63706(19)
H10 H 0.0305 0.3174 0.2258
N6 N 0.0298(4) 0.2814(5) 0.3010(2)
H12 H 0.0051 0.2252 0.3955
Co4 Co 0.19367(8) 0.29859(8) 0.68402(3)
Co5 Co 0.30633(8) 0.20141(8) 0.18402(3)
N10 N 0.2237(4) 0.3842(4) 0.24958(19)
H3 H 0.3174 0.9695 0.2258
N2 N 0.2814(5) 0.9702(4) 0.3010(2)
H6 H 0.2252 0.9949 0.3955
Co3 Co 0.29859(8) 0.80633(8) 0.31598(3)
Co2 Co 0.70141(8) 0.19367(8) 0.31598(3)
C11 C 0.9887(5) 0.2957(5) 0.2537(2)
C12 C 0.9420(5) 0.2497(5) 0.3279(3)
N5 N 0.8523(4) 0.2460(4) 0.29954(19)
N7 N 0.9451(5) 0.2214(6) 0.3787(2)
H11 H 0.8869 0.1998 0.3939
N8 N 0.8842(4) 0.2763(4) 0.25042(19)
O6 O 0.6690(7) 0.3768(6) 0.3395(4)
H13 H 0.7241 0.4281 0.3368
H14 H 0.6009 0.3973 0.3515
Co6 Co 0.79859(8) 0.30633(8) 0.18402(3)
N9 N 0.7186(5) 0.0298(4) 0.3010(2)
N11 N 0.6158(4) 0.2237(4) 0.24958(19)
O7 O 0.7188(4) 0.1689(4) 0.4035(2)
O8 O 0.5635(6) 0.1888(5) 0.36294(19)
C11_2 C 0.0113(5) 0.7043(5) 0.2537(2)
C12_2 C 0.0580(5) 0.7503(5) 0.3279(3)
N5_2 N 0.1477(4) 0.7540(4) 0.29954(19)
N7_2 N 0.0549(5) 0.7786(6) 0.3787(2)
H11_2 H 0.1131 0.8002 0.3939
N8_2 N 0.1158(4) 0.7237(4) 0.25042(19)
O6_2 O 0.3310(7) 0.6232(6) 0.3395(4)
H13_2 H 0.2759 0.5719 0.3368
H14_2 H 0.3991 0.6027 0.3515
Co6_2 Co 0.20141(8) 0.69367(8) 0.18402(3)
N11_2 N 0.3842(4) 0.7763(4) 0.24958(19)
O7_2 O 0.2812(4) 0.8311(4) 0.4035(2)
O8_2 O 0.4365(6) 0.8112(5) 0.36294(19)
H3_2 H 0.6826 0.0305 0.2258
H6_2 H 0.7748 0.0051 0.3955
Co1_2 Co 0.80633(8) 0.70141(8) 0.31598(3)
C1_2 C 0.8234(6) 0.6181(7) 0.4044(3)
C2_2 C 0.8296(7) 0.5580(6) 0.4540(2)
C3_2 C 0.8390(10) 0.4441(7) 0.4544(3)
H1_2 H 0.8422 0.4051 0.4238
C4_2 C 0.8276(8) 0.6142(8) 0.5000
H2_2 H 0.8248 0.6896 0.5000
C5_2 C 0.7043(5) 0.9887(5) 0.2537(2)
C6_2 C 0.7503(5) 0.9420(5) 0.3279(3)
C7_2 C 0.8434(16) 0.3931(11) 0.5000
H4_2 H 0.8498 0.3179 0.5000
N1_2 N 0.7540(4) 0.8523(4) 0.29954(19)
N3_2 N 0.7786(6) 0.9451(5) 0.3787(2)
H5_2 H 0.8002 0.8869 0.3939
N4_2 N 0.7237(4) 0.8842(4) 0.25042(19)
O1_2 O 0.8311(4) 0.7188(4) 0.4035(2)
O2_2 O 0.6232(6) 0.6690(7) 0.3395(4)
H7_2 H 0.5719 0.7241 0.3368
H8_2 H 0.6027 0.6009 0.3515
O3_2 O 0.8112(5) 0.5635(6) 0.36294(19)
C8_2 C 0.8234(6) 0.6181(7) 0.5956(3)
C9_2 C 0.8296(7) 0.5580(6) 0.5460(2)
C10_2 C 0.8390(10) 0.4441(7) 0.5456(3)
H9_2 H 0.8422 0.4051 0.5762
O4_2 O 0.8311(4) 0.7188(4) 0.5965(2)
O5_2 O 0.8112(5) 0.5635(6) 0.63706(19)
H10_2 H 0.9695 0.6826 0.2258
N6_2 N 0.9702(4) 0.7186(5) 0.3010(2)
H12_2 H 0.9949 0.7748 0.3955
Co4_2 Co 0.80633(8) 0.70141(8) 0.68402(3)
Co5_2 Co 0.69367(8) 0.79859(8) 0.18402(3)
N10_2 N 0.7763(4) 0.6158(4) 0.24958(19)
C1_3 C 0.6181(7) 0.1766(6) 0.4044(3)
C2_3 C 0.5580(6) 0.1704(7) 0.4540(2)
C3_3 C 0.4441(7) 0.1610(10) 0.4544(3)
H1_3 H 0.4051 0.1578 0.4238
C4_3 C 0.6142(8) 0.1724(8) 0.5000
H2_3 H 0.6896 0.1752 0.5000
C7_3 C 0.3931(11) 0.1566(16) 0.5000
H4_3 H 0.3179 0.1502 0.5000
C8_3 C 0.6181(7) 0.1766(6) 0.5956(3)
C9_3 C 0.5580(6) 0.1704(7) 0.5460(2)
C10_3 C 0.4441(7) 0.1610(10) 0.5456(3)
H9_3 H 0.4051 0.1578 0.5762
O4_3 O 0.7188(4) 0.1689(4) 0.5965(2)
O5_3 O 0.5635(6) 0.1888(5) 0.63706(19)
Co4_3 Co 0.70141(8) 0.19367(8) 0.68402(3)
C1_4 C 0.3819(7) 0.8234(6) 0.4044(3)
C2_4 C 0.4420(6) 0.8296(7) 0.4540(2)
C3_4 C 0.5559(7) 0.8390(10) 0.4544(3)
H1_4 H 0.5949 0.8422 0.4238
C4_4 C 0.3858(8) 0.8276(8) 0.5000
H2_4 H 0.3104 0.8248 0.5000
C7_4 C 0.6069(11) 0.8434(16) 0.5000
H4_4 H 0.6821 0.8498 0.5000
C8_4 C 0.3819(7) 0.8234(6) 0.5956(3)
C9_4 C 0.4420(6) 0.8296(7) 0.5460(2)
C10_4 C 0.5559(7) 0.8390(10) 0.5456(3)
H9_4 H 0.5949 0.8422 0.5762
O4_4 O 0.2812(4) 0.8311(4) 0.5965(2)
O5_4 O 0.4365(6) 0.8112(5) 0.63706(19)
Co4_4 Co 0.29859(8) 0.80633(8) 0.68402(3)
C4_5 C 0.6724(8) 0.8858(8) -0.0000
H2_5 H 0.6752 0.8104 -0.0000
C8_5 C 0.6766(6) 0.8819(7) 0.0956(3)
C9_5 C 0.6704(7) 0.9420(6) 0.0460(2)
O4_5 O 0.6689(4) 0.7812(4) 0.0965(2)
O5_5 O 0.6888(5) 0.9365(6) 0.13706(19)
Co1_3 Co 0.69367(8) 0.79859(8) 0.81598(3)
C1_5 C 0.6766(6) 0.8819(7) 0.9044(3)
C2_5 C 0.6704(7) 0.9420(6) 0.9540(2)
C4_6 C 0.6724(8) 0.8858(8) 1.0000
H2_6 H 0.6752 0.8104 1.0000
C5_3 C 0.7957(5) 0.5113(5) 0.7537(2)
H3_3 H 0.8174 0.4695 0.7258
C6_3 C 0.7497(5) 0.5580(5) 0.8279(3)
N1_3 N 0.7460(4) 0.6477(4) 0.79954(19)
N2_2 N 0.7814(5) 0.4702(4) 0.8010(2)
N3_3 N 0.7214(6) 0.5549(5) 0.8787(2)
H5_3 H 0.6998 0.6131 0.8939
H6_3 H 0.7252 0.4949 0.8955
N4_3 N 0.7763(4) 0.6158(4) 0.75042(19)
O1_3 O 0.6689(4) 0.7812(4) 0.9035(2)
O2_3 O 0.8768(6) 0.8310(7) 0.8395(4)
H7_3 H 0.9281 0.7759 0.8368
H8_3 H 0.8973 0.8991 0.8515
O3_3 O 0.6888(5) 0.9365(6) 0.86294(19)
Co2_2 Co 0.20141(8) 0.69367(8) 0.81598(3)
C11_3 C 0.4887(5) 0.7957(5) 0.7537(2)
H10_3 H 0.5305 0.8174 0.7258
C12_3 C 0.4420(5) 0.7497(5) 0.8279(3)
N5_3 N 0.3523(4) 0.7460(4) 0.79954(19)
N6_3 N 0.5298(4) 0.7814(5) 0.8010(2)
N7_3 N 0.4451(5) 0.7214(6) 0.8787(2)
H11_3 H 0.3869 0.6998 0.8939
H12_3 H 0.5051 0.7252 0.8955
N8_3 N 0.3842(4) 0.7763(4) 0.75042(19)
O6_3 O 0.1690(7) 0.8768(6) 0.8395(4)
H13_3 H 0.2241 0.9281 0.8368
H14_3 H 0.1009 0.8973 0.8515
Co3_2 Co 0.79859(8) 0.30633(8) 0.81598(3)
N9_2 N 0.2186(5) 0.5298(4) 0.8010(2)
N10_3 N 0.7237(4) 0.8842(4) 0.74958(19)
N11_3 N 0.1158(4) 0.7237(4) 0.74958(19)
O7_3 O 0.2188(4) 0.6689(4) 0.9035(2)
O8_3 O 0.0635(6) 0.6888(5) 0.86294(19)
C4_7 C 0.3276(8) 0.1142(8) -0.0000
H2_7 H 0.3248 0.1896 -0.0000
C8_6 C 0.3234(6) 0.1181(7) 0.0956(3)
C9_6 C 0.3296(7) 0.0580(6) 0.0460(2)
O4_6 O 0.3311(4) 0.2188(4) 0.0965(2)
O5_6 O 0.3112(5) 0.0635(6) 0.13706(19)
Co1_4 Co 0.30633(8) 0.20141(8) 0.81598(3)
C1_6 C 0.3234(6) 0.1181(7) 0.9044(3)
C2_6 C 0.3296(7) 0.0580(6) 0.9540(2)
C4_8 C 0.3276(8) 0.1142(8) 1.0000
H2_8 H 0.3248 0.1896 1.0000
C5_4 C 0.2043(5) 0.4887(5) 0.7537(2)
H3_4 H 0.1826 0.5305 0.7258
C6_4 C 0.2503(5) 0.4420(5) 0.8279(3)
N1_4 N 0.2540(4) 0.3523(4) 0.79954(19)
N3_4 N 0.2786(6) 0.4451(5) 0.8787(2)
H5_4 H 0.3002 0.3869 0.8939
H6_4 H 0.2748 0.5051 0.8955
N4_4 N 0.2237(4) 0.3842(4) 0.75042(19)
O1_4 O 0.3311(4) 0.2188(4) 0.9035(2)
O2_4 O 0.1232(6) 0.1690(7) 0.8395(4)
H7_4 H 0.0719 0.2241 0.8368
H8_4 H 0.1027 0.1009 0.8515
O3_4 O 0.3112(5) 0.0635(6) 0.86294(19)
C11_4 C 0.5113(5) 0.2043(5) 0.7537(2)
H10_4 H 0.4695 0.1826 0.7258
C12_4 C 0.5580(5) 0.2503(5) 0.8279(3)
N5_4 N 0.6477(4) 0.2540(4) 0.79954(19)
N6_4 N 0.4702(4) 0.2186(5) 0.8010(2)
N7_4 N 0.5549(5) 0.2786(6) 0.8787(2)
H11_4 H 0.6131 0.3002 0.8939
H12_4 H 0.4949 0.2748 0.8955
N8_4 N 0.6158(4) 0.2237(4) 0.75042(19)
O6_4 O 0.8310(7) 0.1232(6) 0.8395(4)
H13_4 H 0.7759 0.0719 0.8368
H14_4 H 0.8991 0.1027 0.8515
N10_4 N 0.2763(4) 0.1158(4) 0.74958(19)
N11_4 N 0.8842(4) 0.2763(4) 0.74958(19)
O7_4 O 0.7812(4) 0.3311(4) 0.9035(2)
O8_4 O 0.9365(6) 0.3112(5) 0.86294(19)
C4_9 C 0.1142(8) 0.6724(8) -0.0000
H2_9 H 0.1896 0.6752 -0.0000
C8_7 C 0.1181(7) 0.6766(6) 0.0956(3)
C9_7 C 0.0580(6) 0.6704(7) 0.0460(2)
O4_7 O 0.2188(4) 0.6689(4) 0.0965(2)
O5_7 O 0.0635(6) 0.6888(5) 0.13706(19)
C1_7 C 0.1181(7) 0.6766(6) 0.9044(3)
C2_7 C 0.0580(6) 0.6704(7) 0.9540(2)
C4_10 C 0.1142(8) 0.6724(8) 1.0000
H2_10 H 0.1896 0.6752 1.0000
C4_11 C 0.8858(8) 0.3276(8) -0.0000
H2_11 H 0.8104 0.3248 -0.0000
C8_8 C 0.8819(7) 0.3234(6) 0.0956(3)
C9_8 C 0.9420(6) 0.3296(7) 0.0460(2)
O4_8 O 0.7812(4) 0.3311(4) 0.0965(2)
O5_8 O 0.9365(6) 0.3112(5) 0.13706(19)
C1_8 C 0.8819(7) 0.3234(6) 0.9044(3)
C2_8 C 0.9420(6) 0.3296(7) 0.9540(2)
C4_12 C 0.8858(8) 0.3276(8) 1.0000
H2_12 H 0.8104 0.3248 1.0000
C11_5 C 0.0113(5) 0.7043(5) 0.7463(2)
C12_5 C 0.0580(5) 0.7503(5) 0.6721(3)
N5_5 N 0.1477(4) 0.7540(4) 0.70046(19)
N7_5 N 0.0549(5) 0.7786(6) 0.6213(2)
H11_5 H 0.1131 0.8002 0.6061
O6_5 O 0.3310(7) 0.6232(6) 0.6605(4)
H13_5 H 0.2759 0.5719 0.6632
H14_5 H 0.3991 0.6027 0.6485
N9_3 N 0.2814(5) 0.9702(4) 0.6990(2)
H3_5 H 0.6826 0.0305 0.7742
N2_3 N 0.7186(5) 0.0298(4) 0.6990(2)
H6_5 H 0.7748 0.0051 0.6045
C5_5 C 0.7043(5) 0.9887(5) 0.7463(2)
C6_5 C 0.7503(5) 0.9420(5) 0.6721(3)
N1_5 N 0.7540(4) 0.8523(4) 0.70046(19)
N3_5 N 0.7786(6) 0.9451(5) 0.6213(2)
H5_5 H 0.8002 0.8869 0.6061
O2_5 O 0.6232(6) 0.6690(7) 0.6605(4)
H7_5 H 0.5719 0.7241 0.6632
H8_5 H 0.6027 0.6009 0.6485
H10_5 H 0.9695 0.6826 0.7742
N6_5 N 0.9702(4) 0.7186(5) 0.6990(2)
H12_5 H 0.9949 0.7748 0.6045
C5_6 C 0.2957(5) 0.0113(5) 0.7463(2)
C6_6 C 0.2497(5) 0.0580(5) 0.6721(3)
N1_6 N 0.2460(4) 0.1477(4) 0.70046(19)
N3_6 N 0.2214(6) 0.0549(5) 0.6213(2)
H5_6 H 0.1998 0.1131 0.6061
O2_6 O 0.3768(6) 0.3310(7) 0.6605(4)
H7_6 H 0.4281 0.2759 0.6632
H8_6 H 0.3973 0.3991 0.6485
H10_6 H 0.0305 0.3174 0.7742
N6_6 N 0.0298(4) 0.2814(5) 0.6990(2)
H12_6 H 0.0051 0.2252 0.6045
H3_6 H 0.3174 0.9695 0.7742
H6_6 H 0.2252 0.9949 0.6045
C11_6 C 0.9887(5) 0.2957(5) 0.7463(2)
C12_6 C 0.9420(5) 0.2497(5) 0.6721(3)
N5_6 N 0.8523(4) 0.2460(4) 0.70046(19)
N7_6 N 0.9451(5) 0.2214(6) 0.6213(2)
H11_6 H 0.8869 0.1998 0.6061
O6_6 O 0.6690(7) 0.3768(6) 0.6605(4)
H13_6 H 0.7241 0.4281 0.6632
H14_6 H 0.6009 0.3973 0.6485
C5_7 C 0.2043(5) 0.4887(5) 0.2463(2)
H3_7 H 0.1826 0.5305 0.2742
C6_7 C 0.2503(5) 0.4420(5) 0.1721(3)
N1_7 N 0.2540(4) 0.3523(4) 0.20046(19)
N2_4 N 0.2186(5) 0.5298(4) 0.1990(2)
N3_7 N 0.2786(6) 0.4451(5) 0.1213(2)
H5_7 H 0.3002 0.3869 0.1061
H6_7 H 0.2748 0.5051 0.1045
O2_7 O 0.1232(6) 0.1690(7) 0.1605(4)
H7_7 H 0.0719 0.2241 0.1632
H8_7 H 0.1027 0.1009 0.1485
C11_7 C 0.5113(5) 0.2043(5) 0.2463(2)
H10_7 H 0.4695 0.1826 0.2742
C12_7 C 0.5580(5) 0.2503(5) 0.1721(3)
N5_7 N 0.6477(4) 0.2540(4) 0.20046(19)
N6_7 N 0.4702(4) 0.2186(5) 0.1990(2)
N7_7 N 0.5549(5) 0.2786(6) 0.1213(2)
H11_7 H 0.6131 0.3002 0.1061
H12_7 H 0.4949 0.2748 0.1045
O6_7 O 0.8310(7) 0.1232(6) 0.1605(4)
H13_7 H 0.7759 0.0719 0.1632
H14_7 H 0.8991 0.1027 0.1485
N9_4 N 0.7814(5) 0.4702(4) 0.1990(2)
C5_8 C 0.7957(5) 0.5113(5) 0.2463(2)
H3_8 H 0.8174 0.4695 0.2742
C6_8 C 0.7497(5) 0.5580(5) 0.1721(3)
N1_8 N 0.7460(4) 0.6477(4) 0.20046(19)
N3_8 N 0.7214(6) 0.5549(5) 0.1213(2)
H5_8 H 0.6998 0.6131 0.1061
H6_8 H 0.7252 0.4949 0.1045
O2_8 O 0.8768(6) 0.8310(7) 0.1605(4)
H7_8 H 0.9281 0.7759 0.1632
H8_8 H 0.8973 0.8991 0.1485
C11_8 C 0.4887(5) 0.7957(5) 0.2463(2)
H10_8 H 0.5305 0.8174 0.2742
C12_8 C 0.4420(5) 0.7497(5) 0.1721(3)
N5_8 N 0.3523(4) 0.7460(4) 0.20046(19)
N6_8 N 0.5298(4) 0.7814(5) 0.1990(2)
N7_8 N 0.4451(5) 0.7214(6) 0.1213(2)
H11_8 H 0.3869 0.6998 0.1061
H12_8 H 0.5051 0.7252 0.1045
O6_8 O 0.1690(7) 0.8768(6) 0.1605(4)
H13_8 H 0.2241 0.9281 0.1632
H14_8 H 0.1009 0.8973 0.1485
C7_5 C 0.6566(16) 0.1069(11) -0.0000
H4_5 H 0.6502 0.1821 -0.0000
C10_5 C 0.6610(10) 0.0559(7) 0.0456(3)
H9_5 H 0.6578 0.0949 0.0762
C3_5 C 0.6610(10) 0.0559(7) 0.9544(3)
H1_5 H 0.6578 0.0949 0.9238
C7_6 C 0.6566(16) 0.1069(11) 1.0000
H4_6 H 0.6502 0.1821 1.0000
C7_7 C 0.3434(16) 0.8931(11) -0.0000
H4_7 H 0.3498 0.8179 -0.0000
C10_6 C 0.3390(10) 0.9441(7) 0.0456(3)
H9_6 H 0.3422 0.9051 0.0762
C3_6 C 0.3390(10) 0.9441(7) 0.9544(3)
H1_6 H 0.3422 0.9051 0.9238
C7_8 C 0.3434(16) 0.8931(11) 1.0000
H4_8 H 0.3498 0.8179 1.0000
C7_9 C 0.8931(11) 0.6566(16) -0.0000
H4_9 H 0.8179 0.6502 -0.0000
C10_7 C 0.9441(7) 0.6610(10) 0.0456(3)
H9_7 H 0.9051 0.6578 0.0762
C3_7 C 0.9441(7) 0.6610(10) 0.9544(3)
H1_7 H 0.9051 0.6578 0.9238
C7_10 C 0.8931(11) 0.6566(16) 1.0000
H4_10 H 0.8179 0.6502 1.0000
C7_11 C 0.1069(11) 0.3434(16) -0.0000
H4_11 H 0.1821 0.3498 -0.0000
C10_8 C 0.0559(7) 0.3390(10) 0.0456(3)
H9_8 H 0.0949 0.3422 0.0762
C3_8 C 0.0559(7) 0.3390(10) 0.9544(3)
H1_8 H 0.0949 0.3422 0.9238
C7_12 C 0.1069(11) 0.3434(16) 1.0000
H4_12 H 0.1821 0.3498 1.0000
loop_
_geom_bond_atom_site_label_1
_geom_bond_atom_site_label_2
_geom_bond_site_symmetry_1
_geom_bond_site_symmetry_2
Co1 N1 1_555 1_555
C1 C2 1_555 1_555
C2 C3 1_555 1_555
C3 H1 1_555 1_555
C4 C2 1_555 1_555
H2 C4 1_555 1_555
C6 N1 1_555 1_555
C7 C3 1_555 1_555
H4 C7 1_555 1_555
N1 N4 1_555 1_555
N3 C6 1_555 1_555
H5 N3 1_555 1_555
N4 C5 1_555 1_555
O1 Co1 1_555 1_555
O2 Co1 1_555 1_555
H7 O2 1_555 1_555
H8 O2 1_555 1_555
O3 Co1 1_555 1_555
C8 C9 1_555 1_555
C9 C4 1_555 1_555
C10 C7 1_555 1_555
H9 C10 1_555 1_555
O4 C8 1_555 1_555
O5 C8 1_555 1_555
N6 Co1 1_555 1_555
Co4 O4 1_555 1_555
Co5 N4 1_555 1_555
N10 Co1 1_555 1_555
C1 O1 1_555 1_555
C1 O3 1_555 1_555
C9 C10 1_555 1_555
O5 Co4 1_555 1_555
Co3 N2 1_555 1_555
Co2 N5 1_555 1_555
C12 N5 1_555 1_555
N5 N8 1_555 1_555
N7 C12 1_555 1_555
H11 N7 1_555 1_555
N8 C11 1_555 1_555
O6 Co2 1_555 1_555
H13 O6 1_555 1_555
H14 O6 1_555 1_555
Co6 N8 1_555 1_555
N9 Co2 1_555 1_555
N11 Co2 1_555 1_555
O7 Co2 1_555 1_555
O8 Co2 1_555 1_555
Co3 N5_2 1_555 1_555
C12_2 N5_2 1_555 1_555
N5_2 N8_2 1_555 1_555
N7_2 C12_2 1_555 1_555
H11_2 N7_2 1_555 1_555
N8_2 C11_2 1_555 1_555
O6_2 Co3 1_555 1_555
H13_2 O6_2 1_555 1_555
H14_2 O6_2 1_555 1_555
Co6_2 N8_2 1_555 1_555
N11_2 Co3 1_555 1_555
O7_2 Co3 1_555 1_555
O8_2 Co3 1_555 1_555
Co1_2 N1_2 1_555 1_555
C1_2 C2_2 1_555 1_555
C2_2 C3_2 1_555 1_555
C3_2 H1_2 1_555 1_555
C4_2 C2_2 1_555 1_555
H2_2 C4_2 1_555 1_555
C6_2 N1_2 1_555 1_555
C7_2 C3_2 1_555 1_555
H4_2 C7_2 1_555 1_555
N1_2 N4_2 1_555 1_555
N3_2 C6_2 1_555 1_555
H5_2 N3_2 1_555 1_555
N4_2 C5_2 1_555 1_555
O1_2 Co1_2 1_555 1_555
O2_2 Co1_2 1_555 1_555
H7_2 O2_2 1_555 1_555
H8_2 O2_2 1_555 1_555
O3_2 Co1_2 1_555 1_555
C8_2 C9_2 1_555 1_555
C9_2 C4_2 1_555 1_555
C10_2 C7_2 1_555 1_555
H9_2 C10_2 1_555 1_555
O4_2 C8_2 1_555 1_555
O5_2 C8_2 1_555 1_555
N6_2 Co1_2 1_555 1_555
Co4_2 O4_2 1_555 1_555
Co5_2 N4_2 1_555 1_555
N10_2 Co1_2 1_555 1_555
C1_2 O1_2 1_555 1_555
C1_2 O3_2 1_555 1_555
C9_2 C10_2 1_555 1_555
O5_2 Co4_2 1_555 1_555
C1_3 C2_3 1_555 1_555
C2_3 C3_3 1_555 1_555
C3_3 H1_3 1_555 1_555
C4_3 C2_3 1_555 1_555
H2_3 C4_3 1_555 1_555
C7_3 C3_3 1_555 1_555
H4_3 C7_3 1_555 1_555
C8_3 C9_3 1_555 1_555
C9_3 C4_3 1_555 1_555
C10_3 C7_3 1_555 1_555
H9_3 C10_3 1_555 1_555
O4_3 C8_3 1_555 1_555
O5_3 C8_3 1_555 1_555
Co4_3 O4_3 1_555 1_555
C1_3 O7 1_555 1_555
C1_3 O8 1_555 1_555
C9_3 C10_3 1_555 1_555
O5_3 Co4_3 1_555 1_555
C1_4 C2_4 1_555 1_555
C2_4 C3_4 1_555 1_555
C3_4 H1_4 1_555 1_555
C4_4 C2_4 1_555 1_555
H2_4 C4_4 1_555 1_555
C7_4 C3_4 1_555 1_555
H4_4 C7_4 1_555 1_555
C8_4 C9_4 1_555 1_555
C9_4 C4_4 1_555 1_555
C10_4 C7_4 1_555 1_555
H9_4 C10_4 1_555 1_555
O4_4 C8_4 1_555 1_555
O5_4 C8_4 1_555 1_555
Co4_4 O4_4 1_555 1_555
C1_4 O7_2 1_555 1_555
C1_4 O8_2 1_555 1_555
C9_4 C10_4 1_555 1_555
O5_4 Co4_4 1_555 1_555
H2_5 C4_5 1_555 1_555
C8_5 C9_5 1_555 1_555
C9_5 C4_5 1_555 1_555
O4_5 C8_5 1_555 1_555
O5_5 C8_5 1_555 1_555
Co5_2 O4_5 1_555 1_555
O5_5 Co5_2 1_555 1_555
Co1_3 N1_3 1_555 1_555
C1_5 C2_5 1_555 1_555
C4_6 C2_5 1_555 1_555
H2_6 C4_6 1_555 1_555
C5_3 H3_3 1_555 1_555
C6_3 N1_3 1_555 1_555
N1_3 N4_3 1_555 1_555
N2_2 C5_3 1_555 1_555
N3_3 C6_3 1_555 1_555
H5_3 N3_3 1_555 1_555
H6_3 N3_3 1_555 1_555
N4_3 C5_3 1_555 1_555
O1_3 Co1_3 1_555 1_555
O2_3 Co1_3 1_555 1_555
H7_3 O2_3 1_555 1_555
H8_3 O2_3 1_555 1_555
O3_3 Co1_3 1_555 1_555
Co2_2 N5_3 1_555 1_555
C11_3 H10_3 1_555 1_555
C12_3 N5_3 1_555 1_555
N5_3 N8_3 1_555 1_555
N6_3 Co1_3 1_555 1_555
N7_3 C12_3 1_555 1_555
H11_3 N7_3 1_555 1_555
H12_3 N7_3 1_555 1_555
N8_3 C11_3 1_555 1_555
O6_3 Co2_2 1_555 1_555
H13_3 O6_3 1_555 1_555
H14_3 O6_3 1_555 1_555
Co3_2 N2_2 1_555 1_555
Co4_2 N4_3 1_555 1_555
Co4_4 N8_3 1_555 1_555
N9_2 Co2_2 1_555 1_555
N10_3 Co1_3 1_555 1_555
N11_3 Co2_2 1_555 1_555
O7_3 Co2_2 1_555 1_555
O8_3 Co2_2 1_555 1_555
C1_5 O1_3 1_555 1_555
C1_5 O3_3 1_555 1_555
C6_3 N2_2 1_555 1_555
C11_3 N6_3 1_555 1_555
C12_3 N6_3 1_555 1_555
H2_7 C4_7 1_555 1_555
C8_6 C9_6 1_555 1_555
C9_6 C4_7 1_555 1_555
O4_6 C8_6 1_555 1_555
O5_6 C8_6 1_555 1_555
Co5 O4_6 1_555 1_555
O5_6 Co5 1_555 1_555
Co1_4 N1_4 1_555 1_555
C1_6 C2_6 1_555 1_555
C4_8 C2_6 1_555 1_555
H2_8 C4_8 1_555 1_555
C5_4 H3_4 1_555 1_555
C6_4 N1_4 1_555 1_555
N1_4 N4_4 1_555 1_555
N9_2 C5_4 1_555 1_555
N3_4 C6_4 1_555 1_555
H5_4 N3_4 1_555 1_555
H6_4 N3_4 1_555 1_555
N4_4 C5_4 1_555 1_555
O1_4 Co1_4 1_555 1_555
O2_4 Co1_4 1_555 1_555
H7_4 O2_4 1_555 1_555
H8_4 O2_4 1_555 1_555
O3_4 Co1_4 1_555 1_555
Co3_2 N5_4 1_555 1_555
C11_4 H10_4 1_555 1_555
C12_4 N5_4 1_555 1_555
N5_4 N8_4 1_555 1_555
N6_4 Co1_4 1_555 1_555
N7_4 C12_4 1_555 1_555
H11_4 N7_4 1_555 1_555
H12_4 N7_4 1_555 1_555
N8_4 C11_4 1_555 1_555
O6_4 Co3_2 1_555 1_555
H13_4 O6_4 1_555 1_555
H14_4 O6_4 1_555 1_555
Co4 N4_4 1_555 1_555
Co4_3 N8_4 1_555 1_555
N10_4 Co1_4 1_555 1_555
N11_4 Co3_2 1_555 1_555
O7_4 Co3_2 1_555 1_555
O8_4 Co3_2 1_555 1_555
C1_6 O1_4 1_555 1_555
C1_6 O3_4 1_555 1_555
C6_4 N9_2 1_555 1_555
C11_4 N6_4 1_555 1_555
C12_4 N6_4 1_555 1_555
H2_9 C4_9 1_555 1_555
C8_7 C9_7 1_555 1_555
C9_7 C4_9 1_555 1_555
O4_7 C8_7 1_555 1_555
O5_7 C8_7 1_555 1_555
Co6_2 O4_7 1_555 1_555
O5_7 Co6_2 1_555 1_555
C1_7 C2_7 1_555 1_555
C4_10 C2_7 1_555 1_555
H2_10 C4_10 1_555 1_555
C1_7 O7_3 1_555 1_555
C1_7 O8_3 1_555 1_555
H2_11 C4_11 1_555 1_555
C8_8 C9_8 1_555 1_555
C9_8 C4_11 1_555 1_555
O4_8 C8_8 1_555 1_555
O5_8 C8_8 1_555 1_555
Co6 O4_8 1_555 1_555
O5_8 Co6 1_555 1_555
C1_8 C2_8 1_555 1_555
C4_12 C2_8 1_555 1_555
H2_12 C4_12 1_555 1_555
C1_8 O7_4 1_555 1_555
C1_8 O8_4 1_555 1_555
Co4_4 N5_5 1_555 1_555
C12_5 N5_5 1_555 1_555
N5_5 N11_3 1_555 1_555
N7_5 C12_5 1_555 1_555
H11_5 N7_5 1_555 1_555
N11_3 C11_5 1_555 1_555
O6_5 Co4_4 1_555 1_555
H13_5 O6_5 1_555 1_555
H14_5 O6_5 1_555 1_555
N9_3 Co4_4 1_555 1_555
Co4_3 N2_3 1_555 1_555
Co4_2 N1_5 1_555 1_555
C6_5 N1_5 1_555 1_555
N1_5 N10_3 1_555 1_555
N3_5 C6_5 1_555 1_555
H5_5 N3_5 1_555 1_555
N10_3 C5_5 1_555 1_555
O2_5 Co4_2 1_555 1_555
H7_5 O2_5 1_555 1_555
H8_5 O2_5 1_555 1_555
N6_5 Co4_2 1_555 1_555
Co4 N1_6 1_555 1_555
C6_6 N1_6 1_555 1_555
N1_6 N10_4 1_555 1_555
N3_6 C6_6 1_555 1_555
H5_6 N3_6 1_555 1_555
N10_4 C5_6 1_555 1_555
O2_6 Co4 1_555 1_555
H7_6 O2_6 1_555 1_555
H8_6 O2_6 1_555 1_555
N6_6 Co4 1_555 1_555
Co4_3 N5_6 1_555 1_555
C12_6 N5_6 1_555 1_555
N5_6 N11_4 1_555 1_555
N7_6 C12_6 1_555 1_555
H11_6 N7_6 1_555 1_555
N11_4 C11_6 1_555 1_555
O6_6 Co4_3 1_555 1_555
H13_6 O6_6 1_555 1_555
H14_6 O6_6 1_555 1_555
Co5 N1_7 1_555 1_555
C5_7 H3_7 1_555 1_555
C6_7 N1_7 1_555 1_555
N1_7 N10 1_555 1_555
N2_4 C5_7 1_555 1_555
N3_7 C6_7 1_555 1_555
H5_7 N3_7 1_555 1_555
H6_7 N3_7 1_555 1_555
N10 C5_7 1_555 1_555
O2_7 Co5 1_555 1_555
H7_7 O2_7 1_555 1_555
H8_7 O2_7 1_555 1_555
Co6 N5_7 1_555 1_555
C11_7 H10_7 1_555 1_555
C12_7 N5_7 1_555 1_555
N5_7 N11 1_555 1_555
N6_7 Co5 1_555 1_555
N7_7 C12_7 1_555 1_555
H11_7 N7_7 1_555 1_555
H12_7 N7_7 1_555 1_555
N11 C11_7 1_555 1_555
O6_7 Co6 1_555 1_555
H13_7 O6_7 1_555 1_555
H14_7 O6_7 1_555 1_555
Co6_2 N2_4 1_555 1_555
N9_4 Co6 1_555 1_555
C6_7 N2_4 1_555 1_555
C11_7 N6_7 1_555 1_555
C12_7 N6_7 1_555 1_555
Co5_2 N1_8 1_555 1_555
C5_8 H3_8 1_555 1_555
C6_8 N1_8 1_555 1_555
N1_8 N10_2 1_555 1_555
N9_4 C5_8 1_555 1_555
N3_8 C6_8 1_555 1_555
H5_8 N3_8 1_555 1_555
H6_8 N3_8 1_555 1_555
N10_2 C5_8 1_555 1_555
O2_8 Co5_2 1_555 1_555
H7_8 O2_8 1_555 1_555
H8_8 O2_8 1_555 1_555
Co6_2 N5_8 1_555 1_555
C11_8 H10_8 1_555 1_555
C12_8 N5_8 1_555 1_555
N5_8 N11_2 1_555 1_555
N6_8 Co5_2 1_555 1_555
N7_8 C12_8 1_555 1_555
H11_8 N7_8 1_555 1_555
H12_8 N7_8 1_555 1_555
N11_2 C11_8 1_555 1_555
O6_8 Co6_2 1_555 1_555
H13_8 O6_8 1_555 1_555
H14_8 O6_8 1_555 1_555
C6_8 N9_4 1_555 1_555
C11_8 N6_8 1_555 1_555
C12_8 N6_8 1_555 1_555
H4_5 C7_5 1_555 1_555
C10_5 C7_5 1_555 1_555
H9_5 C10_5 1_555 1_555
C3_5 H1_5 1_555 1_555
C7_6 C3_5 1_555 1_555
H4_6 C7_6 1_555 1_555
H4_7 C7_7 1_555 1_555
C10_6 C7_7 1_555 1_555
H9_6 C10_6 1_555 1_555
C3_6 H1_6 1_555 1_555
C7_8 C3_6 1_555 1_555
H4_8 C7_8 1_555 1_555
H4_9 C7_9 1_555 1_555
C10_7 C7_9 1_555 1_555
H9_7 C10_7 1_555 1_555
C3_7 H1_7 1_555 1_555
C7_10 C3_7 1_555 1_555
H4_10 C7_10 1_555 1_555
H4_11 C7_11 1_555 1_555
C10_8 C7_11 1_555 1_555
H9_8 C10_8 1_555 1_555
C3_8 H1_8 1_555 1_555
C7_12 C3_8 1_555 1_555
H4_12 C7_12 1_555 1_555

#END
