
###############################################################################
#
# This file contains modified crystal structure data generated from the
# MOF subset of the Cambridge Structural Database (CSD) v543 
# hosted by the Cambridge Crystallographic Data Centre (CCDC).
#
# This work is licensed under the Creative Commons
# Attribution-NonCommercial-ShareAlike 4.0 International License.
# To view a copy of this license, visit
# http://creativecommons.org/licenses/by-nc-sa/4.0/
# or send a letter to
# Creative Commons, PO Box 1866, Mountain View, CA 94042, USA.
#
# CIF created using the CSD Python API on 29 September 2022
# The structure has been converted into the P1 space group
# The structure has a 3D framework
# The original CSD entry EKAMUB is in the tetragonal crystal system
# The original CSD entry EKAMUB is in a Sohncke space group
# The framework has been calculated to contain at least 10.0% void space
# The void calculation uses a probe of radius 1.32A, grid spacing 0.4
#
###############################################################################

data_EKAMUB
_chemical_formula_moiety         '(C272 H288 Co8 N32 O32)n'
_symmetry_cell_setting           triclinic
_symmetry_space_group_name_H-M   'P 1'
_symmetry_Int_Tables_number      1
_space_group_name_Hall           'P 1'
loop_
_symmetry_equiv_pos_site_id
_symmetry_equiv_pos_as_xyz
1 x,y,z
_cell_length_a                   21.2198(10)
_cell_length_b                   21.2198(10)
_cell_length_c                   20.8795(14)
_cell_angle_alpha                90
_cell_angle_beta                 90
_cell_angle_gamma                90
_cell_volume                     9401.62
loop_
_atom_site_label
_atom_site_type_symbol
_atom_site_fract_x
_atom_site_fract_y
_atom_site_fract_z
N2 N 0.1203(4) 0.2882(4) 0.8670(4)
C7 C 0.0089(4) 0.2651(4) 0.7966(4)
C8 C 0.0289(4) 0.2253(4) 0.8457(4)
H4 H 0.0052 0.1898 0.8557
C9 C 0.0833(4) 0.2377(4) 0.8798(4)
H5 H 0.0949 0.2104 0.9126
C10 C 0.0994(5) 0.3284(4) 0.8222(5)
H6 H 0.1225 0.3649 0.8148
C11 C 0.0452(5) 0.3186(4) 0.7863(5)
H7 H 0.0333 0.3479 0.7554
H11 H 0.0184 0.2499 0.5750
Co4 Co 0.21911(5) 0.28876(5) 0.90004(5)
N6 N 0.2111(3) 0.8004(3) 0.4633(3)
H39 H 0.2850 0.9767 0.3323
C40 C 0.2121(3) 0.9894(3) 0.3902(4)
C41 C 0.2104(4) 0.9246(4) 0.4154(3)
C42 C 0.2653(4) 0.8913(4) 0.4241(3)
H40 H 0.3038 0.9099 0.4143
C43 C 0.2638(4) 0.8306(4) 0.4473(3)
H41 H 0.3018 0.8094 0.4520
C44 C 0.1568(4) 0.8327(4) 0.4553(3)
H42 H 0.1193 0.8129 0.4665
C45 C 0.1536(4) 0.8933(4) 0.4314(3)
H43 H 0.1149 0.9131 0.4259
Co5 Co 0.21967(5) 0.71517(5) 0.51916(4)
Co5_2 Co 0.78033(5) 0.28483(5) 0.01916(4)
N6_2 N 0.7889(3) 0.1996(3) 0.9633(3)
H39_2 H 0.7150 0.0233 0.8323
C40_2 C 0.7879(3) 0.0106(3) 0.8902(4)
C41_2 C 0.7896(4) 0.0754(4) 0.9154(3)
C42_2 C 0.7347(4) 0.1087(4) 0.9241(3)
H40_2 H 0.6962 0.0901 0.9143
C43_2 C 0.7362(4) 0.1694(4) 0.9473(3)
H41_2 H 0.6982 0.1906 0.9520
C44_2 C 0.8432(4) 0.1673(4) 0.9553(3)
H42_2 H 0.8807 0.1871 0.9665
C45_2 C 0.8464(4) 0.1067(4) 0.9314(3)
H43_2 H 0.8851 0.0869 0.9259
N2_2 N 0.8797(4) 0.7118(4) 0.3670(4)
C7_2 C 0.9911(4) 0.7349(4) 0.2966(4)
C8_2 C 0.9711(4) 0.7747(4) 0.3457(4)
H4_2 H 0.9948 0.8102 0.3557
C9_2 C 0.9167(4) 0.7623(4) 0.3798(4)
H5_2 H 0.9051 0.7896 0.4126
C10_2 C 0.9006(5) 0.6716(4) 0.3222(5)
H6_2 H 0.8775 0.6351 0.3148
C11_2 C 0.9548(5) 0.6814(4) 0.2863(5)
H7_2 H 0.9667 0.6521 0.2554
H11_2 H 0.9816 0.7501 0.0750
Co4_2 Co 0.78089(5) 0.71124(5) 0.40004(5)
O1 O 0.7807(3) 0.8030(2) 0.3839(2)
O2 O 0.8335(3) 0.6910(3) 0.5417(3)
O3 O 0.7627(3) 0.5905(3) 0.4763(3)
O4 O 0.7527(3) 0.6936(3) 0.3084(3)
O5 O 0.8238(2) 0.2333(2) 0.0879(2)
O8 O 0.6948(2) 0.2578(2) 0.0521(2)
N1 N 0.8122(3) 0.7348(3) 0.4947(3)
N3 N 0.7752(3) 0.6133(3) 0.4134(3)
N4 N 0.7710(3) 0.3668(3) 0.0786(3)
C1 C 0.7712(4) 0.8508(4) 0.4218(4)
C2 C 0.9208(4) 0.3121(4) 0.0293(4)
H1 H 0.9539 0.3401 0.0225
C3 C 0.7832(4) 0.8467(4) 0.4891(4)
C5 C 0.7721(4) 0.8996(4) 0.5288(4)
H3 H 0.7812 0.8964 0.5723
C6 C 0.7491(4) 0.9539(4) 0.5067(4)
C12 C 0.7373(4) 0.9593(4) 0.4387(4)
H8 H 0.7204 0.9967 0.4229
C13 C 0.7502(4) 0.9109(4) 0.3963(4)
C14 C 0.7434(6) 0.9197(4) 0.3240(4)
C15 C 0.7210(6) 0.9885(4) 0.3072(4)
H9 H 0.6799 0.9955 0.3250
H10 H 0.7194 0.9935 0.2616
C16 C 0.6913(5) 0.8747(5) 0.2983(5)
H12 H 0.7061 0.8320 0.2999
H13 H 0.6813 0.8857 0.2549
H14 H 0.6542 0.8788 0.3244
C17 C 0.8094(5) 0.9095(5) 0.2917(4)
H15 H 0.8386 0.9401 0.3079
H16 H 0.8054 0.9144 0.2461
H17 H 0.8244 0.8679 0.3013
C18 C 0.8048(3) 0.7898(4) 0.5208(4)
H18 H 0.8143 0.7931 0.5642
C19 C 0.8646(4) 0.6376(4) 0.5137(5)
H19 H 0.9022 0.6277 0.5382
H20 H 0.8775 0.6478 0.4704
C20 C 0.8217(4) 0.5809(4) 0.5125(4)
H21 H 0.8444 0.5457 0.4938
H22 H 0.8112 0.5696 0.5562
C21 C 0.7606(4) 0.5717(4) 0.3718(4)
H23 H 0.7504 0.5317 0.3867
C22 C 0.7587(4) 0.5817(4) 0.3030(4)
C23 C 0.7556(4) 0.6430(4) 0.2747(4)
C24 C 0.7530(5) 0.6461(5) 0.2055(5)
C25 C 0.7445(8) 0.7140(7) 0.1726(6)
C26 C 0.8033(7) 0.7554(6) 0.1908(6)
H24 H 0.8008 0.7671 0.2352
H25 H 0.8039 0.7927 0.1648
H26 H 0.8412 0.7317 0.1837
C27 C 0.6816(7) 0.7429(5) 0.1887(5)
H27 H 0.6485 0.7165 0.1725
H28 H 0.6787 0.7838 0.1694
H29 H 0.6776 0.7466 0.2343
C28 C 0.7516(8) 0.7040(6) 0.0958(6)
H30 H 0.7948 0.6952 0.0856
H31 H 0.7384 0.7415 0.0740
H32 H 0.7257 0.6692 0.0825
C29 C 0.7542(5) 0.5920(5) 0.1711(4)
H33 H 0.7530 0.5952 0.1267
C30 C 0.7571(5) 0.5316(4) 0.1979(4)
C31 C 0.7607(4) 0.4755(4) 0.1565(4)
C32 C 0.7518(5) 0.4777(4) 0.0913(4)
H34 H 0.7423 0.5158 0.0715
C33 C 0.7569(5) 0.4235(4) 0.0549(4)
H35 H 0.7501 0.4268 0.0111
C34 C 0.7792(5) 0.3644(4) 0.1408(4)
H36 H 0.7883 0.3254 0.1588
C35 C 0.7753(5) 0.4150(4) 0.1810(4)
H37 H 0.7822 0.4096 0.2247
C36 C 0.7585(4) 0.5279(4) 0.2649(4)
H38 H 0.7594 0.4885 0.2843
C37 C 0.8823(4) 0.2251(3) 0.1013(4)
C38 C 0.9312(4) 0.2632(4) 0.0756(4)
C39 C 0.9929(4) 0.2571(3) 0.0975(4)
C46 C 0.9633(4) 0.1692(4) 0.1618(4)
H44 H 0.9750 0.1364 0.1887
C47 C 0.9013(3) 0.1747(4) 0.1443(3)
C48 C 0.8507(4) 0.1276(4) 0.1714(4)
C49 C 0.8825(4) 0.0767(4) 0.2130(4)
H45 H 0.9140 0.0553 0.1882
H46 H 0.8514 0.0470 0.2272
H47 H 0.9019 0.0962 0.2495
C50 C 0.8171(4) 0.0933(4) 0.1156(4)
H48 H 0.7941 0.1233 0.0904
H49 H 0.7884 0.0625 0.1326
H50 H 0.8478 0.0727 0.0891
C51 C 0.8028(4) 0.1635(4) 0.2129(4)
H51 H 0.8248 0.1869 0.2453
H52 H 0.7746 0.1341 0.2328
H53 H 0.7792 0.1920 0.1865
C56 C 0.6390(4) 0.2663(4) 0.0337(3)
C57 C 0.5862(4) 0.2414(4) 0.0703(3)
C58 C 0.5988(4) 0.2055(6) 0.1344(4)
C59 C 0.6397(4) 0.1469(5) 0.1202(5)
H59 H 0.6187 0.1207 0.0894
H60 H 0.6462 0.1236 0.1590
H61 H 0.6797 0.1601 0.1033
C60 C 0.6339(5) 0.2513(6) 0.1802(4)
H62 H 0.6786 0.2461 0.1751
H63 H 0.6225 0.2420 0.2237
H64 H 0.6224 0.2939 0.1702
C61 C 0.5379(4) 0.1834(6) 0.1655(5)
H65 H 0.5114 0.2192 0.1740
H66 H 0.5473 0.1623 0.2050
H67 H 0.5164 0.1549 0.1372
C62 C 0.5267(4) 0.2506(4) 0.0483(4)
H68 H 0.4935 0.2366 0.0736
C65 C 0.3969(3) 0.2958(4) 0.0107(3)
H69 H 0.4068 0.3027 0.0535
H70 H 0.3043 0.3064 0.0218
N11 N 0.6829(3) 0.7130(3) 0.4310(3)
O6 O 0.8766(2) 0.3798(2) 0.9606(2)
O7 O 0.7596(2) 0.3641(2) 0.8936(2)
N5 N 0.8702(3) 0.3211(3) 0.9958(3)
N7 N 0.7307(3) 0.3263(3) 0.9433(3)
N8 N 0.3171(3) 0.2870(3) 0.9310(3)
C4 C 0.5600(4) 0.3031(4) 0.9539(4)
H2 H 0.5513 0.3231 0.9152
C52 C 0.8746(3) 0.3684(4) 0.8937(3)
H54 H 0.9109 0.3433 0.8817
H55 H 0.8774 0.4083 0.8713
C53 C 0.8152(4) 0.3344(4) 0.8722(4)
H56 H 0.8147 0.3325 0.8257
H57 H 0.8161 0.2915 0.8882
C54 C 0.6699(4) 0.3269(4) 0.9345(3)
H58 H 0.6554 0.3485 0.8987
C55 C 0.6226(4) 0.2976(4) 0.9746(3)
C63 C 0.5121(4) 0.2798(4) 0.9895(4)
C64 C 0.4441(4) 0.2841(4) 0.9678(4)
C66 C 0.3351(4) 0.2975(4) 0.9914(4)
C67 C 0.3634(4) 0.2770(5) 0.8884(4)
H71 H 0.3518 0.2710 0.8459
C68 C 0.4265(4) 0.2750(4) 0.9028(4)
H72 H 0.4566 0.2679 0.8712
O1_2 O 0.2193(3) 0.1970(2) 0.8839(2)
O3_2 O 0.2373(3) 0.4095(3) 0.9763(3)
O4_2 O 0.2473(3) 0.3064(3) 0.8084(3)
O5_2 O 0.1762(2) 0.7667(2) 0.5879(2)
O6_2 O 0.1234(2) 0.6202(2) 0.4606(2)
O7_2 O 0.2404(2) 0.6359(2) 0.3936(2)
O8_2 O 0.3052(2) 0.7422(2) 0.5521(2)
N1_2 N 0.1878(3) 0.2652(3) 0.9947(3)
N3_2 N 0.2248(3) 0.3867(3) 0.9134(3)
N4_2 N 0.2290(3) 0.6332(3) 0.5786(3)
N5_2 N 0.1298(3) 0.6789(3) 0.4958(3)
N7_2 N 0.2693(3) 0.6737(3) 0.4433(3)
C1_2 C 0.2288(4) 0.1492(4) 0.9218(4)
C2_2 C 0.0792(4) 0.6879(4) 0.5293(4)
H1_2 H 0.0461 0.6599 0.5225
C3_2 C 0.2168(4) 0.1533(4) 0.9891(4)
C4_2 C 0.4400(4) 0.6969(4) 0.4539(4)
H2_2 H 0.4487 0.6769 0.4152
C12_2 C 0.2627(4) 0.0407(4) 0.9387(4)
H8_2 H 0.2796 0.0033 0.9229
C13_2 C 0.2498(4) 0.0891(4) 0.8963(4)
C14_2 C 0.2566(6) 0.0803(4) 0.8240(4)
C15_2 C 0.2790(6) 0.0115(4) 0.8072(4)
H9_2 H 0.3201 0.0045 0.8250
H10_2 H 0.2806 0.0065 0.7616
C16_2 C 0.3087(5) 0.1253(5) 0.7983(5)
H12_2 H 0.2939 0.1680 0.7999
H13_2 H 0.3187 0.1143 0.7549
H14_2 H 0.3458 0.1212 0.8244
C17_2 C 0.1906(5) 0.0905(5) 0.7917(4)
H15_2 H 0.1614 0.0599 0.8079
H16_2 H 0.1946 0.0856 0.7461
H17_2 H 0.1756 0.1321 0.8013
H20_2 H 0.1225 0.3522 0.9704
H21_2 H 0.1556 0.4543 0.9938
C21_2 C 0.2394(4) 0.4283(4) 0.8718(4)
H23_2 H 0.2496 0.4683 0.8867
C22_2 C 0.2413(4) 0.4183(4) 0.8030(4)
C23_2 C 0.2444(4) 0.3570(4) 0.7747(4)
C24_2 C 0.2470(5) 0.3539(5) 0.7055(5)
C25_2 C 0.2555(8) 0.2860(7) 0.6726(6)
C26_2 C 0.1967(7) 0.2446(6) 0.6908(6)
H24_2 H 0.1992 0.2329 0.7352
H25_2 H 0.1961 0.2073 0.6648
H26_2 H 0.1588 0.2683 0.6837
C27_2 C 0.3184(7) 0.2571(5) 0.6887(5)
H27_2 H 0.3515 0.2835 0.6725
H28_2 H 0.3213 0.2162 0.6694
H29_2 H 0.3224 0.2534 0.7343
C28_2 C 0.2484(8) 0.2960(6) 0.5958(6)
H30_2 H 0.2052 0.3048 0.5856
H31_2 H 0.2616 0.2585 0.5740
H32_2 H 0.2743 0.3308 0.5825
C29_2 C 0.2458(5) 0.4080(5) 0.6711(4)
H33_2 H 0.2470 0.4048 0.6267
C30_2 C 0.2429(5) 0.4684(4) 0.6979(4)
C31_2 C 0.2393(4) 0.5245(4) 0.6565(4)
C32_2 C 0.2482(5) 0.5223(4) 0.5913(4)
H34_2 H 0.2577 0.4842 0.5715
C33_2 C 0.2431(5) 0.5765(4) 0.5549(4)
H35_2 H 0.2499 0.5732 0.5111
C34_2 C 0.2208(5) 0.6356(4) 0.6408(4)
H36_2 H 0.2117 0.6746 0.6588
C35_2 C 0.2247(5) 0.5850(4) 0.6810(4)
H37_2 H 0.2178 0.5904 0.7247
C36_2 C 0.2415(4) 0.4721(4) 0.7649(4)
H38_2 H 0.2406 0.5115 0.7843
C37_2 C 0.1177(4) 0.7749(3) 0.6013(4)
C38_2 C 0.0688(4) 0.7368(4) 0.5756(4)
C39_2 C 0.0071(4) 0.7429(3) 0.5975(4)
C46_2 C 0.0367(4) 0.8308(4) 0.6618(4)
H44_2 H 0.0250 0.8636 0.6887
C47_2 C 0.0987(3) 0.8253(4) 0.6443(3)
C48_2 C 0.1493(4) 0.8724(4) 0.6714(4)
C49_2 C 0.1175(4) 0.9233(4) 0.7130(4)
H45_2 H 0.0860 0.9447 0.6882
H46_2 H 0.1486 0.9530 0.7272
H47_2 H 0.0981 0.9038 0.7495
C50_2 C 0.1829(4) 0.9067(4) 0.6156(4)
H48_2 H 0.2059 0.8767 0.5904
H49_2 H 0.2116 0.9375 0.6326
H50_2 H 0.1522 0.9273 0.5891
C51_2 C 0.1972(4) 0.8365(4) 0.7129(4)
H51_2 H 0.1752 0.8131 0.7453
H52_2 H 0.2254 0.8659 0.7328
H53_2 H 0.2208 0.8080 0.6865
C52_2 C 0.1254(3) 0.6316(4) 0.3937(3)
H54_2 H 0.0891 0.6567 0.3817
H55_2 H 0.1226 0.5917 0.3713
C53_2 C 0.1848(4) 0.6656(4) 0.3722(4)
H56_2 H 0.1853 0.6675 0.3257
H57_2 H 0.1839 0.7085 0.3882
C54_2 C 0.3301(4) 0.6731(4) 0.4345(3)
H58_2 H 0.3446 0.6515 0.3987
C55_2 C 0.3774(4) 0.7024(4) 0.4746(3)
C56_2 C 0.3610(4) 0.7337(4) 0.5337(3)
C57_2 C 0.4138(4) 0.7586(4) 0.5703(3)
C58_2 C 0.4012(4) 0.7945(6) 0.6344(4)
C59_2 C 0.3603(4) 0.8531(5) 0.6202(5)
H59_2 H 0.3813 0.8793 0.5894
H60_2 H 0.3538 0.8764 0.6590
H61_2 H 0.3203 0.8399 0.6033
C60_2 C 0.3661(5) 0.7487(6) 0.6802(4)
H62_2 H 0.3214 0.7539 0.6751
H63_2 H 0.3775 0.7580 0.7237
H64_2 H 0.3776 0.7061 0.6702
C61_2 C 0.4621(4) 0.8166(6) 0.6655(5)
H65_2 H 0.4886 0.7808 0.6740
H66_2 H 0.4527 0.8377 0.7050
H67_2 H 0.4836 0.8451 0.6372
C62_2 C 0.4733(4) 0.7494(4) 0.5483(4)
H68_2 H 0.5065 0.7634 0.5736
C63_2 C 0.4879(4) 0.7202(4) 0.4895(4)
C64_2 C 0.5559(4) 0.7159(4) 0.4678(4)
C65_2 C 0.6031(3) 0.7042(4) 0.5107(3)
H69_2 H 0.5932 0.6973 0.5535
C66_2 C 0.6649(4) 0.7025(4) 0.4914(4)
H70_2 H 0.6957 0.6936 0.5218
C67_2 C 0.6366(4) 0.7230(5) 0.3884(4)
H71_2 H 0.6482 0.7290 0.3459
C68_2 C 0.5735(4) 0.7250(4) 0.4028(4)
H72_2 H 0.5434 0.7321 0.3712
Co1 Co 0.71124(5) 0.21911(5) 0.65004(5)
Co2 Co 0.28483(5) 0.21967(5) 0.26916(4)
O1_3 O 0.8030(2) 0.2193(3) 0.6339(2)
O2_2 O 0.6910(3) 0.1665(3) 0.7917(3)
O3_3 O 0.5905(3) 0.2373(3) 0.7263(3)
O4_3 O 0.6936(3) 0.2473(3) 0.5584(3)
O5_3 O 0.2333(2) 0.1762(2) 0.3379(2)
O6_3 O 0.3798(2) 0.1234(2) 0.2106(2)
O7_3 O 0.3641(2) 0.2404(2) 0.1436(2)
O8_3 O 0.2578(2) 0.3052(2) 0.3021(2)
N1_3 N 0.7348(3) 0.1878(3) 0.7447(3)
N3_3 N 0.6133(3) 0.2248(3) 0.6634(3)
N4_3 N 0.3668(3) 0.2290(3) 0.3286(3)
N5_3 N 0.3211(3) 0.1298(3) 0.2458(3)
N7_3 N 0.3263(3) 0.2693(3) 0.1933(3)
N8_2 N 0.2870(3) 0.6829(3) 0.1810(3)
C1_3 C 0.8508(4) 0.2288(4) 0.6718(4)
C2_3 C 0.3121(4) 0.0792(4) 0.2793(4)
H1_3 H 0.3401 0.0461 0.2725
C3_3 C 0.8467(4) 0.2168(4) 0.7391(4)
C4_3 C 0.3031(4) 0.4400(4) 0.2039(4)
H2_3 H 0.3231 0.4487 0.1652
C5_2 C 0.8996(4) 0.2279(4) 0.7788(4)
H3_2 H 0.8964 0.2188 0.8223
C6_2 C 0.9539(4) 0.2509(4) 0.7567(4)
C12_3 C 0.9593(4) 0.2627(4) 0.6887(4)
H8_3 H 0.9967 0.2796 0.6729
C13_3 C 0.9109(4) 0.2498(4) 0.6463(4)
C14_3 C 0.9197(4) 0.2566(6) 0.5740(4)
C15_3 C 0.9885(4) 0.2790(6) 0.5572(4)
H9_3 H 0.9955 0.3201 0.5750
H10_3 H 0.9935 0.2806 0.5116
C16_3 C 0.8747(5) 0.3087(5) 0.5483(5)
H12_3 H 0.8320 0.2939 0.5499
H13_3 H 0.8857 0.3187 0.5049
H14_3 H 0.8788 0.3458 0.5744
C17_3 C 0.9095(5) 0.1906(5) 0.5417(4)
H15_3 H 0.9401 0.1614 0.5579
H16_3 H 0.9144 0.1946 0.4961
H17_3 H 0.8679 0.1756 0.5513
C18_2 C 0.7898(4) 0.1952(3) 0.7708(4)
H18_2 H 0.7931 0.1857 0.8142
C19_2 C 0.6376(4) 0.1354(4) 0.7637(5)
H19_2 H 0.6277 0.0978 0.7882
H20_3 H 0.6478 0.1225 0.7204
C20_2 C 0.5809(4) 0.1783(4) 0.7625(4)
H21_3 H 0.5457 0.1556 0.7438
H22_2 H 0.5696 0.1888 0.8062
C21_3 C 0.5717(4) 0.2394(4) 0.6218(4)
H23_3 H 0.5317 0.2496 0.6367
C22_3 C 0.5817(4) 0.2413(4) 0.5530(4)
C23_3 C 0.6430(4) 0.2444(4) 0.5247(4)
C24_3 C 0.6461(5) 0.2470(5) 0.4555(5)
C25_3 C 0.7140(7) 0.2555(8) 0.4226(6)
C26_3 C 0.7554(6) 0.1967(7) 0.4408(6)
H24_3 H 0.7671 0.1992 0.4852
H25_3 H 0.7927 0.1961 0.4148
H26_3 H 0.7317 0.1588 0.4337
C27_3 C 0.7429(5) 0.3184(7) 0.4387(5)
H27_3 H 0.7165 0.3515 0.4225
H28_3 H 0.7838 0.3213 0.4194
H29_3 H 0.7466 0.3224 0.4843
C28_3 C 0.7040(6) 0.2484(8) 0.3458(6)
H30_3 H 0.6952 0.2052 0.3356
H31_3 H 0.7415 0.2616 0.3240
H32_3 H 0.6692 0.2743 0.3325
C29_3 C 0.5920(5) 0.2458(5) 0.4211(4)
H33_3 H 0.5952 0.2470 0.3767
C30_3 C 0.5316(4) 0.2429(5) 0.4479(4)
C31_3 C 0.4755(4) 0.2393(4) 0.4065(4)
C32_3 C 0.4777(4) 0.2482(5) 0.3413(4)
H34_3 H 0.5158 0.2577 0.3215
C33_3 C 0.4235(4) 0.2431(5) 0.3049(4)
H35_3 H 0.4268 0.2499 0.2611
C34_3 C 0.3644(4) 0.2208(5) 0.3908(4)
H36_3 H 0.3254 0.2117 0.4088
C35_3 C 0.4150(4) 0.2247(5) 0.4310(4)
H37_3 H 0.4096 0.2178 0.4747
C36_3 C 0.5279(4) 0.2415(4) 0.5149(4)
H38_3 H 0.4885 0.2406 0.5343
C37_3 C 0.2251(3) 0.1177(4) 0.3513(4)
C38_3 C 0.2632(4) 0.0688(4) 0.3256(4)
C39_3 C 0.2571(3) 0.0071(4) 0.3475(4)
C46_3 C 0.1692(4) 0.0367(4) 0.4118(4)
H44_3 H 0.1364 0.0250 0.4387
C47_3 C 0.1747(4) 0.0987(3) 0.3943(3)
C48_3 C 0.1276(4) 0.1493(4) 0.4214(4)
C49_3 C 0.0767(4) 0.1175(4) 0.4630(4)
H45_3 H 0.0553 0.0860 0.4382
H46_3 H 0.0470 0.1486 0.4772
H47_3 H 0.0962 0.0981 0.4995
C50_3 C 0.0933(4) 0.1829(4) 0.3656(4)
H48_3 H 0.1233 0.2059 0.3404
H49_3 H 0.0625 0.2116 0.3826
H50_3 H 0.0727 0.1522 0.3391
C51_3 C 0.1635(4) 0.1972(4) 0.4629(4)
H51_3 H 0.1869 0.1752 0.4953
H52_3 H 0.1341 0.2254 0.4828
H53_3 H 0.1920 0.2208 0.4365
C52_3 C 0.3684(4) 0.1254(3) 0.1437(3)
H54_3 H 0.3433 0.0891 0.1317
H55_3 H 0.4083 0.1226 0.1213
C53_3 C 0.3344(4) 0.1848(4) 0.1222(4)
H56_3 H 0.3325 0.1853 0.0757
H57_3 H 0.2915 0.1839 0.1382
C54_3 C 0.3269(4) 0.3301(4) 0.1845(3)
H58_3 H 0.3485 0.3446 0.1487
C55_3 C 0.2976(4) 0.3774(4) 0.2246(3)
C56_3 C 0.2663(4) 0.3610(4) 0.2837(3)
C57_3 C 0.2414(4) 0.4138(4) 0.3203(3)
C58_3 C 0.2055(6) 0.4012(4) 0.3844(4)
C59_3 C 0.1469(5) 0.3603(4) 0.3702(5)
H59_3 H 0.1207 0.3813 0.3394
H60_3 H 0.1236 0.3538 0.4090
H61_3 H 0.1601 0.3203 0.3533
C60_3 C 0.2513(6) 0.3661(5) 0.4302(4)
H62_3 H 0.2461 0.3214 0.4251
H63_3 H 0.2420 0.3775 0.4737
H64_3 H 0.2939 0.3776 0.4202
C61_3 C 0.1834(6) 0.4621(4) 0.4155(5)
H65_3 H 0.2192 0.4886 0.4240
H66_3 H 0.1623 0.4527 0.4550
H67_3 H 0.1549 0.4836 0.3872
C62_3 C 0.2506(4) 0.4733(4) 0.2983(4)
H68_3 H 0.2366 0.5065 0.3236
C63_3 C 0.2798(4) 0.4879(4) 0.2395(4)
C64_3 C 0.2841(4) 0.5559(4) 0.2178(4)
C65_3 C 0.2958(4) 0.6031(3) 0.2607(3)
H69_3 H 0.3027 0.5932 0.3035
C66_3 C 0.2975(4) 0.6649(4) 0.2414(4)
H70_3 H 0.3064 0.6957 0.2718
C67_3 C 0.2770(5) 0.6366(4) 0.1384(4)
H71_3 H 0.2710 0.6482 0.0959
C68_3 C 0.2750(4) 0.5735(4) 0.1528(4)
H72_3 H 0.2679 0.5434 0.1212
Co3 Co 0.28876(5) 0.78089(5) 0.15004(5)
N9 N 0.7118(4) 0.1203(4) 0.6170(4)
N10 N 0.1996(3) 0.2111(3) 0.2133(3)
N11_2 N 0.7130(3) 0.3171(3) 0.6810(3)
O1_4 O 0.1970(2) 0.7807(3) 0.1339(2)
O2_3 O 0.3090(3) 0.8335(3) 0.2917(3)
O3_4 O 0.4095(3) 0.7627(3) 0.2263(3)
O4_4 O 0.3064(3) 0.7527(3) 0.0584(3)
N1_4 N 0.2652(3) 0.8122(3) 0.2447(3)
N3_4 N 0.3867(3) 0.7752(3) 0.1634(3)
C1_4 C 0.1492(4) 0.7712(4) 0.1718(4)
C3_4 C 0.1533(4) 0.7832(4) 0.2391(4)
C5_3 C 0.1004(4) 0.7721(4) 0.2788(4)
H3_3 H 0.1036 0.7812 0.3223
C6_3 C 0.0461(4) 0.7491(4) 0.2567(4)
C12_4 C 0.0407(4) 0.7373(4) 0.1887(4)
H8_4 H 0.0033 0.7204 0.1729
C13_4 C 0.0891(4) 0.7502(4) 0.1463(4)
C14_4 C 0.0803(4) 0.7434(6) 0.0740(4)
C15_4 C 0.0115(4) 0.7210(6) 0.0572(4)
H9_4 H 0.0045 0.6799 0.0750
H10_4 H 0.0065 0.7194 0.0116
C16_4 C 0.1253(5) 0.6913(5) 0.0483(5)
H12_4 H 0.1680 0.7061 0.0499
H13_4 H 0.1143 0.6813 0.0049
H14_4 H 0.1212 0.6542 0.0744
C17_4 C 0.0905(5) 0.8094(5) 0.0417(4)
H15_4 H 0.0599 0.8386 0.0579
H17_4 H 0.1321 0.8244 0.0513
C18_3 C 0.2102(4) 0.8048(3) 0.2708(4)
H18_3 H 0.2069 0.8143 0.3142
C19_3 C 0.3624(4) 0.8646(4) 0.2637(5)
H19_3 H 0.3723 0.9022 0.2882
H20_4 H 0.3522 0.8775 0.2204
C20_3 C 0.4191(4) 0.8217(4) 0.2625(4)
H21_4 H 0.4543 0.8444 0.2438
H22_3 H 0.4304 0.8112 0.3062
C21_4 C 0.4283(4) 0.7606(4) 0.1218(4)
H23_4 H 0.4683 0.7504 0.1367
C22_4 C 0.4183(4) 0.7587(4) 0.0530(4)
C23_4 C 0.3570(4) 0.7556(4) 0.0247(4)
C36_4 C 0.4721(4) 0.7585(4) 0.0149(4)
H38_4 H 0.5115 0.7594 0.0343
N9_2 N 0.2882(4) 0.8797(4) 0.1170(4)
Co2_2 Co 0.71517(5) 0.78033(5) 0.76916(4)
O5_4 O 0.7667(2) 0.8238(2) 0.8379(2)
O6_4 O 0.6202(2) 0.8766(2) 0.7106(2)
O7_4 O 0.6359(2) 0.7596(2) 0.6436(2)
O8_4 O 0.7422(2) 0.6948(2) 0.8021(2)
N4_4 N 0.6332(3) 0.7710(3) 0.8286(3)
N5_4 N 0.6789(3) 0.8702(3) 0.7458(3)
N7_4 N 0.6737(3) 0.7307(3) 0.6933(3)
C2_4 C 0.6879(4) 0.9208(4) 0.7793(4)
H1_4 H 0.6599 0.9539 0.7725
C4_4 C 0.6969(4) 0.5600(4) 0.7039(4)
H2_4 H 0.6769 0.5513 0.6652
H16_4 H 0.0856 0.8054 0.9961
C24_4 C 0.3539(5) 0.7530(5) 0.9555(5)
C25_4 C 0.2860(7) 0.7445(8) 0.9226(6)
C26_4 C 0.2446(6) 0.8033(7) 0.9408(6)
H24_4 H 0.2329 0.8008 0.9852
H25_4 H 0.2073 0.8039 0.9148
H26_4 H 0.2683 0.8412 0.9337
C27_4 C 0.2571(5) 0.6816(7) 0.9387(5)
H27_4 H 0.2835 0.6485 0.9225
H28_4 H 0.2162 0.6787 0.9194
H29_4 H 0.2534 0.6776 0.9843
C28_4 C 0.2960(6) 0.7516(8) 0.8458(6)
H30_4 H 0.3048 0.7948 0.8356
H31_4 H 0.2585 0.7384 0.8240
H32_4 H 0.3308 0.7257 0.8325
C29_4 C 0.4080(5) 0.7542(5) 0.9211(4)
H33_4 H 0.4048 0.7530 0.8767
C30_4 C 0.4684(4) 0.7571(5) 0.9479(4)
C31_4 C 0.5245(4) 0.7607(4) 0.9065(4)
C32_4 C 0.5223(4) 0.7518(5) 0.8413(4)
H34_4 H 0.4842 0.7423 0.8215
C33_4 C 0.5765(4) 0.7569(5) 0.8049(4)
H35_4 H 0.5732 0.7501 0.7611
C34_4 C 0.6356(4) 0.7792(5) 0.8908(4)
H36_4 H 0.6746 0.7883 0.9088
C35_4 C 0.5850(4) 0.7753(5) 0.9310(4)
H37_4 H 0.5904 0.7822 0.9747
C37_4 C 0.7749(3) 0.8823(4) 0.8513(4)
C38_4 C 0.7368(4) 0.9312(4) 0.8256(4)
C39_4 C 0.7429(3) 0.9929(4) 0.8475(4)
C46_4 C 0.8308(4) 0.9633(4) 0.9118(4)
H44_4 H 0.8636 0.9750 0.9387
C47_4 C 0.8253(4) 0.9013(3) 0.8943(3)
C48_4 C 0.8724(4) 0.8507(4) 0.9214(4)
C49_4 C 0.9233(4) 0.8825(4) 0.9630(4)
H45_4 H 0.9447 0.9140 0.9382
H46_4 H 0.9530 0.8514 0.9772
H47_4 H 0.9038 0.9019 0.9995
C50_4 C 0.9067(4) 0.8171(4) 0.8656(4)
H48_4 H 0.8767 0.7941 0.8404
H49_4 H 0.9375 0.7884 0.8826
H50_4 H 0.9273 0.8478 0.8391
C51_4 C 0.8365(4) 0.8028(4) 0.9629(4)
H51_4 H 0.8131 0.8248 0.9953
H52_4 H 0.8659 0.7746 0.9828
H53_4 H 0.8080 0.7792 0.9365
C52_4 C 0.6316(4) 0.8746(3) 0.6437(3)
H54_4 H 0.6567 0.9109 0.6317
H55_4 H 0.5917 0.8774 0.6213
C53_4 C 0.6656(4) 0.8152(4) 0.6222(4)
H56_4 H 0.6675 0.8147 0.5757
H57_4 H 0.7085 0.8161 0.6382
C54_4 C 0.6731(4) 0.6699(4) 0.6845(3)
H58_4 H 0.6515 0.6554 0.6487
C55_4 C 0.7024(4) 0.6226(4) 0.7246(3)
C56_4 C 0.7337(4) 0.6390(4) 0.7837(3)
C57_4 C 0.7586(4) 0.5862(4) 0.8203(3)
C58_4 C 0.7945(6) 0.5988(4) 0.8844(4)
C59_4 C 0.8531(5) 0.6397(4) 0.8702(5)
H59_4 H 0.8793 0.6187 0.8394
H60_4 H 0.8764 0.6462 0.9090
H61_4 H 0.8399 0.6797 0.8533
C60_4 C 0.7487(6) 0.6339(5) 0.9302(4)
H62_4 H 0.7539 0.6786 0.9251
H63_4 H 0.7580 0.6225 0.9737
H64_4 H 0.7061 0.6224 0.9202
C61_4 C 0.8166(6) 0.5379(4) 0.9155(5)
H65_4 H 0.7808 0.5114 0.9240
H66_4 H 0.8377 0.5473 0.9550
H67_4 H 0.8451 0.5164 0.8872
C62_4 C 0.7494(4) 0.5267(4) 0.7983(4)
H68_4 H 0.7634 0.4935 0.8236
C63_4 C 0.7202(4) 0.5121(4) 0.7395(4)
C64_4 C 0.7159(4) 0.4441(4) 0.7178(4)
C65_4 C 0.7042(4) 0.3969(3) 0.7607(3)
H69_4 H 0.6973 0.4068 0.8035
C66_4 C 0.7025(4) 0.3351(4) 0.7414(4)
H70_4 H 0.6936 0.3043 0.7718
C67_4 C 0.7230(5) 0.3634(4) 0.6384(4)
H71_4 H 0.7290 0.3518 0.5959
C68_4 C 0.7250(4) 0.4265(4) 0.6528(4)
H72_4 H 0.7321 0.4566 0.6212
N10_2 N 0.8004(3) 0.7889(3) 0.7133(3)
H39_3 H 0.0233 0.2850 0.0823
C40_3 C 0.0106(3) 0.2121(3) 0.1402(4)
C41_3 C 0.0754(4) 0.2104(4) 0.1654(3)
C42_3 C 0.1087(4) 0.2653(4) 0.1741(3)
H40_3 H 0.0901 0.3038 0.1643
C43_3 C 0.1694(4) 0.2638(4) 0.1973(3)
H41_3 H 0.1906 0.3018 0.2020
C44_3 C 0.1673(4) 0.1568(4) 0.2053(3)
H42_3 H 0.1871 0.1193 0.2165
C45_3 C 0.1067(4) 0.1536(4) 0.1814(3)
H43_3 H 0.0869 0.1149 0.1759
C7_3 C 0.7349(4) 0.0089(4) 0.5466(4)
C8_3 C 0.7747(4) 0.0289(4) 0.5957(4)
H4_3 H 0.8102 0.0052 0.6057
C9_3 C 0.7623(4) 0.0833(4) 0.6298(4)
H5_3 H 0.7896 0.0949 0.6626
C10_3 C 0.6716(4) 0.0994(5) 0.5722(5)
H6_3 H 0.6351 0.1225 0.5648
C11_3 C 0.6814(4) 0.0452(5) 0.5363(5)
H7_3 H 0.6521 0.0333 0.5054
H11_3 H 0.7501 0.0184 0.3250
C7_4 C 0.2651(4) 0.9911(4) 0.0466(4)
C8_4 C 0.2253(4) 0.9711(4) 0.0957(4)
H4_4 H 0.1898 0.9948 0.1057
C9_4 C 0.2377(4) 0.9167(4) 0.1298(4)
H5_4 H 0.2104 0.9051 0.1626
C10_4 C 0.3284(4) 0.9006(5) 0.0722(5)
H6_4 H 0.3649 0.8775 0.0648
C11_4 C 0.3186(4) 0.9548(5) 0.0363(5)
H7_4 H 0.3479 0.9667 0.0054
H39_4 H 0.9767 0.7150 0.5823
C40_4 C 0.9894(3) 0.7879(3) 0.6402(4)
C41_4 C 0.9246(4) 0.7896(4) 0.6654(3)
C42_4 C 0.8913(4) 0.7347(4) 0.6741(3)
H40_4 H 0.9099 0.6962 0.6643
C43_4 C 0.8306(4) 0.7362(4) 0.6973(3)
H41_4 H 0.8094 0.6982 0.7020
C44_4 C 0.8327(4) 0.8432(4) 0.7053(3)
H42_4 H 0.8129 0.8807 0.7165
C45_4 C 0.8933(4) 0.8464(4) 0.6814(3)
H43_4 H 0.9131 0.8851 0.6759
O2_4 O 0.1665(3) 0.3090(3) 0.0417(3)
C5_4 C 0.2279(4) 0.1004(4) 0.0288(4)
H3_4 H 0.2188 0.1036 0.0723
C6_4 C 0.2509(4) 0.0461(4) 0.0067(4)
C18_4 C 0.1952(3) 0.2102(4) 0.0208(4)
H18_4 H 0.1857 0.2069 0.0642
C19_4 C 0.1354(4) 0.3624(4) 0.0137(5)
H19_4 H 0.0978 0.3723 0.0382
C20_4 C 0.1783(4) 0.4191(4) 0.0125(4)
H22_4 H 0.1888 0.4304 0.0562
H11_4 H 0.2499 0.9816 0.8250
loop_
_geom_bond_atom_site_label_1
_geom_bond_atom_site_label_2
_geom_bond_site_symmetry_1
_geom_bond_site_symmetry_2
N2 C9 1_555 1_555
C8 C7 1_555 1_555
H4 C8 1_555 1_555
C9 C8 1_555 1_555
H5 C9 1_555 1_555
C10 N2 1_555 1_555
H6 C10 1_555 1_555
C11 C7 1_555 1_555
H7 C11 1_555 1_555
Co4 N2 1_555 1_555
C10 C11 1_555 1_555
N6 C43 1_555 1_555
C41 C40 1_555 1_555
C42 C41 1_555 1_555
H40 C42 1_555 1_555
C43 C42 1_555 1_555
H41 C43 1_555 1_555
C44 N6 1_555 1_555
H42 C44 1_555 1_555
C45 C41 1_555 1_555
H43 C45 1_555 1_555
Co5 N6 1_555 1_555
C44 C45 1_555 1_555
N6_2 C43_2 1_555 1_555
C41_2 C40_2 1_555 1_555
C42_2 C41_2 1_555 1_555
H40_2 C42_2 1_555 1_555
C43_2 C42_2 1_555 1_555
H41_2 C43_2 1_555 1_555
C44_2 N6_2 1_555 1_555
H42_2 C44_2 1_555 1_555
C45_2 C41_2 1_555 1_555
H43_2 C45_2 1_555 1_555
C44_2 C45_2 1_555 1_555
N2_2 C9_2 1_555 1_555
C8_2 C7_2 1_555 1_555
H4_2 C8_2 1_555 1_555
C9_2 C8_2 1_555 1_555
H5_2 C9_2 1_555 1_555
C10_2 N2_2 1_555 1_555
H6_2 C10_2 1_555 1_555
C11_2 C7_2 1_555 1_555
H7_2 C11_2 1_555 1_555
Co4_2 N2_2 1_555 1_555
C10_2 C11_2 1_555 1_555
Co4_2 O1 1_555 1_555
Co5_2 O5 1_555 1_555
O1 C1 1_555 1_555
O2 N1 1_555 1_555
O3 N3 1_555 1_555
O4 Co4_2 1_555 1_555
O5 C37 1_555 1_555
O8 Co5_2 1_555 1_555
N1 Co4_2 1_555 1_555
N3 Co4_2 1_555 1_555
N4 Co5_2 1_555 1_555
C1 C3 1_555 1_555
H1 C2 1_555 1_555
C3 C5 1_555 1_555
C5 H3 1_555 1_555
C6 C5 1_555 1_555
C12 C6 1_555 1_555
H8 C12 1_555 1_555
C13 C1 1_555 1_555
C14 C13 1_555 1_555
C15 C14 1_555 1_555
H9 C15 1_555 1_555
H10 C15 1_555 1_555
C16 C14 1_555 1_555
H12 C16 1_555 1_555
H13 C16 1_555 1_555
H14 C16 1_555 1_555
C17 C14 1_555 1_555
H15 C17 1_555 1_555
H16 C17 1_555 1_555
H17 C17 1_555 1_555
C18 N1 1_555 1_555
H18 C18 1_555 1_555
C19 O2 1_555 1_555
H19 C19 1_555 1_555
H20 C19 1_555 1_555
C20 O3 1_555 1_555
H21 C20 1_555 1_555
H22 C20 1_555 1_555
C21 N3 1_555 1_555
H23 C21 1_555 1_555
C22 C21 1_555 1_555
C23 O4 1_555 1_555
C24 C23 1_555 1_555
C25 C24 1_555 1_555
C26 C25 1_555 1_555
H24 C26 1_555 1_555
H25 C26 1_555 1_555
H26 C26 1_555 1_555
C27 C25 1_555 1_555
H27 C27 1_555 1_555
H28 C27 1_555 1_555
H29 C27 1_555 1_555
C28 C25 1_555 1_555
H30 C28 1_555 1_555
H31 C28 1_555 1_555
H32 C28 1_555 1_555
C29 C24 1_555 1_555
H33 C29 1_555 1_555
C30 C29 1_555 1_555
C31 C30 1_555 1_555
C32 C31 1_555 1_555
H34 C32 1_555 1_555
C33 N4 1_555 1_555
H35 C33 1_555 1_555
C34 N4 1_555 1_555
H36 C34 1_555 1_555
C35 C31 1_555 1_555
H37 C35 1_555 1_555
C36 C22 1_555 1_555
H38 C36 1_555 1_555
C37 C38 1_555 1_555
C38 C2 1_555 1_555
C39 C38 1_555 1_555
H44 C46 1_555 1_555
C47 C37 1_555 1_555
C48 C47 1_555 1_555
C49 C48 1_555 1_555
H45 C49 1_555 1_555
H46 C49 1_555 1_555
H47 C49 1_555 1_555
C50 C48 1_555 1_555
H48 C50 1_555 1_555
H49 C50 1_555 1_555
H50 C50 1_555 1_555
C51 C48 1_555 1_555
H51 C51 1_555 1_555
H52 C51 1_555 1_555
H53 C51 1_555 1_555
C56 O8 1_555 1_555
C57 C56 1_555 1_555
C58 C57 1_555 1_555
C59 C58 1_555 1_555
H59 C59 1_555 1_555
H60 C59 1_555 1_555
H61 C59 1_555 1_555
C60 C58 1_555 1_555
H62 C60 1_555 1_555
H63 C60 1_555 1_555
H64 C60 1_555 1_555
C61 C58 1_555 1_555
H65 C61 1_555 1_555
H66 C61 1_555 1_555
H67 C61 1_555 1_555
C62 C57 1_555 1_555
H68 C62 1_555 1_555
H69 C65 1_555 1_555
N11 Co4_2 1_555 1_555
C3 C18 1_555 1_555
C12 C13 1_555 1_555
C19 C20 1_555 1_555
C22 C23 1_555 1_555
C30 C36 1_555 1_555
C32 C33 1_555 1_555
C34 C35 1_555 1_555
C46 C47 1_555 1_555
O6 N5 1_555 1_555
O7 N7 1_555 1_555
N8 C66 1_555 1_555
C4 H2 1_555 1_555
C52 O6 1_555 1_555
H54 C52 1_555 1_555
H55 C52 1_555 1_555
C53 O7 1_555 1_555
H56 C53 1_555 1_555
H57 C53 1_555 1_555
C54 N7 1_555 1_555
H58 C54 1_555 1_555
C55 C4 1_555 1_555
C63 C4 1_555 1_555
C64 C63 1_555 1_555
C67 N8 1_555 1_555
H71 C67 1_555 1_555
C68 C64 1_555 1_555
H72 C68 1_555 1_555
Co4 N8 1_555 1_555
C52 C53 1_555 1_555
C54 C55 1_555 1_555
C67 C68 1_555 1_555
Co4 O1_2 1_555 1_555
Co5 O5_2 1_555 1_555
O1_2 C1_2 1_555 1_555
O3_2 N3_2 1_555 1_555
O4_2 Co4 1_555 1_555
O5_2 C37_2 1_555 1_555
O6_2 N5_2 1_555 1_555
O7_2 N7_2 1_555 1_555
O8_2 Co5 1_555 1_555
N1_2 Co4 1_555 1_555
N3_2 Co4 1_555 1_555
N4_2 Co5 1_555 1_555
N5_2 Co5 1_555 1_555
N7_2 Co5 1_555 1_555
N11 C66_2 1_555 1_555
C1_2 C3_2 1_555 1_555
C2_2 N5_2 1_555 1_555
H1_2 C2_2 1_555 1_555
C4_2 H2_2 1_555 1_555
H8_2 C12_2 1_555 1_555
C13_2 C1_2 1_555 1_555
C14_2 C13_2 1_555 1_555
C15_2 C14_2 1_555 1_555
H9_2 C15_2 1_555 1_555
H10_2 C15_2 1_555 1_555
C16_2 C14_2 1_555 1_555
H12_2 C16_2 1_555 1_555
H13_2 C16_2 1_555 1_555
H14_2 C16_2 1_555 1_555
C17_2 C14_2 1_555 1_555
H15_2 C17_2 1_555 1_555
H16_2 C17_2 1_555 1_555
H17_2 C17_2 1_555 1_555
C21_2 N3_2 1_555 1_555
H23_2 C21_2 1_555 1_555
C22_2 C21_2 1_555 1_555
C23_2 O4_2 1_555 1_555
C24_2 C23_2 1_555 1_555
C25_2 C24_2 1_555 1_555
C26_2 C25_2 1_555 1_555
H24_2 C26_2 1_555 1_555
H25_2 C26_2 1_555 1_555
H26_2 C26_2 1_555 1_555
C27_2 C25_2 1_555 1_555
H27_2 C27_2 1_555 1_555
H28_2 C27_2 1_555 1_555
H29_2 C27_2 1_555 1_555
C28_2 C25_2 1_555 1_555
H30_2 C28_2 1_555 1_555
H31_2 C28_2 1_555 1_555
H32_2 C28_2 1_555 1_555
C29_2 C24_2 1_555 1_555
H33_2 C29_2 1_555 1_555
C30_2 C29_2 1_555 1_555
C31_2 C30_2 1_555 1_555
C32_2 C31_2 1_555 1_555
H34_2 C32_2 1_555 1_555
C33_2 N4_2 1_555 1_555
H35_2 C33_2 1_555 1_555
C34_2 N4_2 1_555 1_555
H36_2 C34_2 1_555 1_555
C35_2 C31_2 1_555 1_555
H37_2 C35_2 1_555 1_555
C36_2 C22_2 1_555 1_555
H38_2 C36_2 1_555 1_555
C37_2 C38_2 1_555 1_555
C38_2 C2_2 1_555 1_555
C39_2 C38_2 1_555 1_555
H44_2 C46_2 1_555 1_555
C47_2 C37_2 1_555 1_555
C48_2 C47_2 1_555 1_555
C49_2 C48_2 1_555 1_555
H45_2 C49_2 1_555 1_555
H46_2 C49_2 1_555 1_555
H47_2 C49_2 1_555 1_555
C50_2 C48_2 1_555 1_555
H48_2 C50_2 1_555 1_555
H49_2 C50_2 1_555 1_555
H50_2 C50_2 1_555 1_555
C51_2 C48_2 1_555 1_555
H51_2 C51_2 1_555 1_555
H52_2 C51_2 1_555 1_555
H53_2 C51_2 1_555 1_555
C52_2 O6_2 1_555 1_555
H54_2 C52_2 1_555 1_555
H55_2 C52_2 1_555 1_555
C53_2 O7_2 1_555 1_555
H56_2 C53_2 1_555 1_555
H57_2 C53_2 1_555 1_555
C54_2 N7_2 1_555 1_555
H58_2 C54_2 1_555 1_555
C55_2 C4_2 1_555 1_555
C56_2 O8_2 1_555 1_555
C57_2 C56_2 1_555 1_555
C58_2 C57_2 1_555 1_555
C59_2 C58_2 1_555 1_555
H59_2 C59_2 1_555 1_555
H60_2 C59_2 1_555 1_555
H61_2 C59_2 1_555 1_555
C60_2 C58_2 1_555 1_555
H62_2 C60_2 1_555 1_555
H63_2 C60_2 1_555 1_555
H64_2 C60_2 1_555 1_555
C61_2 C58_2 1_555 1_555
H65_2 C61_2 1_555 1_555
H66_2 C61_2 1_555 1_555
H67_2 C61_2 1_555 1_555
C62_2 C57_2 1_555 1_555
H68_2 C62_2 1_555 1_555
C63_2 C4_2 1_555 1_555
C64_2 C63_2 1_555 1_555
C65_2 C64_2 1_555 1_555
H69_2 C65_2 1_555 1_555
C66_2 C65_2 1_555 1_555
H70_2 C66_2 1_555 1_555
C67_2 N11 1_555 1_555
H71_2 C67_2 1_555 1_555
C68_2 C64_2 1_555 1_555
H72_2 C68_2 1_555 1_555
C12_2 C13_2 1_555 1_555
C22_2 C23_2 1_555 1_555
C30_2 C36_2 1_555 1_555
C32_2 C33_2 1_555 1_555
C34_2 C35_2 1_555 1_555
C46_2 C47_2 1_555 1_555
C52_2 C53_2 1_555 1_555
C54_2 C55_2 1_555 1_555
C55_2 C56_2 1_555 1_555
C62_2 C63_2 1_555 1_555
C67_2 C68_2 1_555 1_555
Co1 O1_3 1_555 1_555
Co2 O5_3 1_555 1_555
O1_3 C1_3 1_555 1_555
O2_2 N1_3 1_555 1_555
O3_3 N3_3 1_555 1_555
O4_3 Co1 1_555 1_555
O5_3 C37_3 1_555 1_555
O6_3 N5_3 1_555 1_555
O7_3 N7_3 1_555 1_555
O8_3 Co2 1_555 1_555
N1_3 Co1 1_555 1_555
N3_3 Co1 1_555 1_555
N4_3 Co2 1_555 1_555
N5_3 Co2 1_555 1_555
N7_3 Co2 1_555 1_555
N8_2 C66_3 1_555 1_555
C1_3 C3_3 1_555 1_555
C2_3 N5_3 1_555 1_555
H1_3 C2_3 1_555 1_555
C3_3 C5_2 1_555 1_555
C4_3 H2_3 1_555 1_555
C5_2 H3_2 1_555 1_555
C6_2 C5_2 1_555 1_555
C12_3 C6_2 1_555 1_555
H8_3 C12_3 1_555 1_555
C13_3 C1_3 1_555 1_555
C14_3 C13_3 1_555 1_555
C15_3 C14_3 1_555 1_555
H9_3 C15_3 1_555 1_555
H10_3 C15_3 1_555 1_555
C16_3 C14_3 1_555 1_555
H12_3 C16_3 1_555 1_555
H13_3 C16_3 1_555 1_555
H14_3 C16_3 1_555 1_555
C17_3 C14_3 1_555 1_555
H15_3 C17_3 1_555 1_555
H16_3 C17_3 1_555 1_555
H17_3 C17_3 1_555 1_555
C18_2 N1_3 1_555 1_555
H18_2 C18_2 1_555 1_555
C19_2 O2_2 1_555 1_555
H19_2 C19_2 1_555 1_555
H20_3 C19_2 1_555 1_555
C20_2 O3_3 1_555 1_555
H21_3 C20_2 1_555 1_555
H22_2 C20_2 1_555 1_555
C21_3 N3_3 1_555 1_555
H23_3 C21_3 1_555 1_555
C22_3 C21_3 1_555 1_555
C23_3 O4_3 1_555 1_555
C24_3 C23_3 1_555 1_555
C25_3 C24_3 1_555 1_555
C26_3 C25_3 1_555 1_555
H24_3 C26_3 1_555 1_555
H25_3 C26_3 1_555 1_555
H26_3 C26_3 1_555 1_555
C27_3 C25_3 1_555 1_555
H27_3 C27_3 1_555 1_555
H28_3 C27_3 1_555 1_555
H29_3 C27_3 1_555 1_555
C28_3 C25_3 1_555 1_555
H30_3 C28_3 1_555 1_555
H31_3 C28_3 1_555 1_555
H32_3 C28_3 1_555 1_555
C29_3 C24_3 1_555 1_555
H33_3 C29_3 1_555 1_555
C30_3 C29_3 1_555 1_555
C31_3 C30_3 1_555 1_555
C32_3 C31_3 1_555 1_555
H34_3 C32_3 1_555 1_555
C33_3 N4_3 1_555 1_555
H35_3 C33_3 1_555 1_555
C34_3 N4_3 1_555 1_555
H36_3 C34_3 1_555 1_555
C35_3 C31_3 1_555 1_555
H37_3 C35_3 1_555 1_555
C36_3 C22_3 1_555 1_555
H38_3 C36_3 1_555 1_555
C37_3 C38_3 1_555 1_555
C38_3 C2_3 1_555 1_555
C39_3 C38_3 1_555 1_555
H44_3 C46_3 1_555 1_555
C47_3 C37_3 1_555 1_555
C48_3 C47_3 1_555 1_555
C49_3 C48_3 1_555 1_555
H45_3 C49_3 1_555 1_555
H46_3 C49_3 1_555 1_555
H47_3 C49_3 1_555 1_555
C50_3 C48_3 1_555 1_555
H48_3 C50_3 1_555 1_555
H49_3 C50_3 1_555 1_555
H50_3 C50_3 1_555 1_555
C51_3 C48_3 1_555 1_555
H51_3 C51_3 1_555 1_555
H52_3 C51_3 1_555 1_555
H53_3 C51_3 1_555 1_555
C52_3 O6_3 1_555 1_555
H54_3 C52_3 1_555 1_555
H55_3 C52_3 1_555 1_555
C53_3 O7_3 1_555 1_555
H56_3 C53_3 1_555 1_555
H57_3 C53_3 1_555 1_555
C54_3 N7_3 1_555 1_555
H58_3 C54_3 1_555 1_555
C55_3 C4_3 1_555 1_555
C56_3 O8_3 1_555 1_555
C57_3 C56_3 1_555 1_555
C58_3 C57_3 1_555 1_555
C59_3 C58_3 1_555 1_555
H59_3 C59_3 1_555 1_555
H60_3 C59_3 1_555 1_555
H61_3 C59_3 1_555 1_555
C60_3 C58_3 1_555 1_555
H62_3 C60_3 1_555 1_555
H63_3 C60_3 1_555 1_555
H64_3 C60_3 1_555 1_555
C61_3 C58_3 1_555 1_555
H65_3 C61_3 1_555 1_555
H66_3 C61_3 1_555 1_555
H67_3 C61_3 1_555 1_555
C62_3 C57_3 1_555 1_555
H68_3 C62_3 1_555 1_555
C63_3 C4_3 1_555 1_555
C64_3 C63_3 1_555 1_555
C65_3 C64_3 1_555 1_555
H69_3 C65_3 1_555 1_555
C66_3 C65_3 1_555 1_555
H70_3 C66_3 1_555 1_555
C67_3 N8_2 1_555 1_555
H71_3 C67_3 1_555 1_555
C68_3 C64_3 1_555 1_555
H72_3 C68_3 1_555 1_555
Co3 N8_2 1_555 1_555
N9 Co1 1_555 1_555
N10 Co2 1_555 1_555
N11_2 Co1 1_555 1_555
C3_3 C18_2 1_555 1_555
C12_3 C13_3 1_555 1_555
C19_2 C20_2 1_555 1_555
C22_3 C23_3 1_555 1_555
C30_3 C36_3 1_555 1_555
C32_3 C33_3 1_555 1_555
C34_3 C35_3 1_555 1_555
C46_3 C47_3 1_555 1_555
C52_3 C53_3 1_555 1_555
C54_3 C55_3 1_555 1_555
C55_3 C56_3 1_555 1_555
C62_3 C63_3 1_555 1_555
C67_3 C68_3 1_555 1_555
Co3 O1_4 1_555 1_555
O1_4 C1_4 1_555 1_555
O2_3 N1_4 1_555 1_555
O3_4 N3_4 1_555 1_555
O4_4 Co3 1_555 1_555
N1_4 Co3 1_555 1_555
N3_4 Co3 1_555 1_555
C1_4 C3_4 1_555 1_555
C3_4 C5_3 1_555 1_555
C5_3 H3_3 1_555 1_555
C6_3 C5_3 1_555 1_555
C12_4 C6_3 1_555 1_555
H8_4 C12_4 1_555 1_555
C13_4 C1_4 1_555 1_555
C14_4 C13_4 1_555 1_555
C15_4 C14_4 1_555 1_555
H9_4 C15_4 1_555 1_555
H10_4 C15_4 1_555 1_555
C16_4 C14_4 1_555 1_555
H12_4 C16_4 1_555 1_555
H13_4 C16_4 1_555 1_555
H14_4 C16_4 1_555 1_555
C17_4 C14_4 1_555 1_555
H15_4 C17_4 1_555 1_555
H17_4 C17_4 1_555 1_555
C18_3 N1_4 1_555 1_555
H18_3 C18_3 1_555 1_555
C19_3 O2_3 1_555 1_555
H19_3 C19_3 1_555 1_555
H20_4 C19_3 1_555 1_555
C20_3 O3_4 1_555 1_555
H21_4 C20_3 1_555 1_555
H22_3 C20_3 1_555 1_555
C21_4 N3_4 1_555 1_555
H23_4 C21_4 1_555 1_555
C22_4 C21_4 1_555 1_555
C23_4 O4_4 1_555 1_555
C36_4 C22_4 1_555 1_555
H38_4 C36_4 1_555 1_555
N9_2 Co3 1_555 1_555
C3_4 C18_3 1_555 1_555
C12_4 C13_4 1_555 1_555
C19_3 C20_3 1_555 1_555
C22_4 C23_4 1_555 1_555
Co2_2 O5_4 1_555 1_555
O5_4 C37_4 1_555 1_555
O6_4 N5_4 1_555 1_555
O7_4 N7_4 1_555 1_555
O8_4 Co2_2 1_555 1_555
N4_4 Co2_2 1_555 1_555
N5_4 Co2_2 1_555 1_555
N7_4 Co2_2 1_555 1_555
N11_2 C66_4 1_555 1_555
C2_4 N5_4 1_555 1_555
H1_4 C2_4 1_555 1_555
C4_4 H2_4 1_555 1_555
C25_4 C24_4 1_555 1_555
C26_4 C25_4 1_555 1_555
H24_4 C26_4 1_555 1_555
H25_4 C26_4 1_555 1_555
H26_4 C26_4 1_555 1_555
C27_4 C25_4 1_555 1_555
H27_4 C27_4 1_555 1_555
H28_4 C27_4 1_555 1_555
H29_4 C27_4 1_555 1_555
C28_4 C25_4 1_555 1_555
H30_4 C28_4 1_555 1_555
H31_4 C28_4 1_555 1_555
H32_4 C28_4 1_555 1_555
C29_4 C24_4 1_555 1_555
H33_4 C29_4 1_555 1_555
C30_4 C29_4 1_555 1_555
C31_4 C30_4 1_555 1_555
C32_4 C31_4 1_555 1_555
H34_4 C32_4 1_555 1_555
C33_4 N4_4 1_555 1_555
H35_4 C33_4 1_555 1_555
C34_4 N4_4 1_555 1_555
H36_4 C34_4 1_555 1_555
C35_4 C31_4 1_555 1_555
H37_4 C35_4 1_555 1_555
C37_4 C38_4 1_555 1_555
C38_4 C2_4 1_555 1_555
C39_4 C38_4 1_555 1_555
H44_4 C46_4 1_555 1_555
C47_4 C37_4 1_555 1_555
C48_4 C47_4 1_555 1_555
C49_4 C48_4 1_555 1_555
H45_4 C49_4 1_555 1_555
H46_4 C49_4 1_555 1_555
H47_4 C49_4 1_555 1_555
C50_4 C48_4 1_555 1_555
H48_4 C50_4 1_555 1_555
H49_4 C50_4 1_555 1_555
H50_4 C50_4 1_555 1_555
C51_4 C48_4 1_555 1_555
H51_4 C51_4 1_555 1_555
H52_4 C51_4 1_555 1_555
H53_4 C51_4 1_555 1_555
C52_4 O6_4 1_555 1_555
H54_4 C52_4 1_555 1_555
H55_4 C52_4 1_555 1_555
C53_4 O7_4 1_555 1_555
H56_4 C53_4 1_555 1_555
H57_4 C53_4 1_555 1_555
C54_4 N7_4 1_555 1_555
H58_4 C54_4 1_555 1_555
C55_4 C4_4 1_555 1_555
C56_4 O8_4 1_555 1_555
C57_4 C56_4 1_555 1_555
C58_4 C57_4 1_555 1_555
C59_4 C58_4 1_555 1_555
H59_4 C59_4 1_555 1_555
H60_4 C59_4 1_555 1_555
H61_4 C59_4 1_555 1_555
C60_4 C58_4 1_555 1_555
H62_4 C60_4 1_555 1_555
H63_4 C60_4 1_555 1_555
H64_4 C60_4 1_555 1_555
C61_4 C58_4 1_555 1_555
H65_4 C61_4 1_555 1_555
H66_4 C61_4 1_555 1_555
H67_4 C61_4 1_555 1_555
C62_4 C57_4 1_555 1_555
H68_4 C62_4 1_555 1_555
C63_4 C4_4 1_555 1_555
C64_4 C63_4 1_555 1_555
C65_4 C64_4 1_555 1_555
H69_4 C65_4 1_555 1_555
C66_4 C65_4 1_555 1_555
H70_4 C66_4 1_555 1_555
C67_4 N11_2 1_555 1_555
H71_4 C67_4 1_555 1_555
C68_4 C64_4 1_555 1_555
H72_4 C68_4 1_555 1_555
N10_2 Co2_2 1_555 1_555
C32_4 C33_4 1_555 1_555
C34_4 C35_4 1_555 1_555
C46_4 C47_4 1_555 1_555
C52_4 C53_4 1_555 1_555
C54_4 C55_4 1_555 1_555
C55_4 C56_4 1_555 1_555
C62_4 C63_4 1_555 1_555
C67_4 C68_4 1_555 1_555
N10 C43_3 1_555 1_555
C41_3 C40_3 1_555 1_555
C42_3 C41_3 1_555 1_555
H40_3 C42_3 1_555 1_555
C43_3 C42_3 1_555 1_555
H41_3 C43_3 1_555 1_555
C44_3 N10 1_555 1_555
H42_3 C44_3 1_555 1_555
C45_3 C41_3 1_555 1_555
H43_3 C45_3 1_555 1_555
C44_3 C45_3 1_555 1_555
N9 C9_3 1_555 1_555
C8_3 C7_3 1_555 1_555
H4_3 C8_3 1_555 1_555
C9_3 C8_3 1_555 1_555
H5_3 C9_3 1_555 1_555
C10_3 N9 1_555 1_555
H6_3 C10_3 1_555 1_555
C11_3 C7_3 1_555 1_555
H7_3 C11_3 1_555 1_555
C10_3 C11_3 1_555 1_555
N9_2 C9_4 1_555 1_555
C8_4 C7_4 1_555 1_555
H4_4 C8_4 1_555 1_555
C9_4 C8_4 1_555 1_555
H5_4 C9_4 1_555 1_555
C10_4 N9_2 1_555 1_555
H6_4 C10_4 1_555 1_555
C11_4 C7_4 1_555 1_555
H7_4 C11_4 1_555 1_555
C10_4 C11_4 1_555 1_555
N10_2 C43_4 1_555 1_555
C41_4 C40_4 1_555 1_555
C42_4 C41_4 1_555 1_555
H40_4 C42_4 1_555 1_555
C43_4 C42_4 1_555 1_555
H41_4 C43_4 1_555 1_555
C44_4 N10_2 1_555 1_555
H42_4 C44_4 1_555 1_555
C45_4 C41_4 1_555 1_555
H43_4 C45_4 1_555 1_555
C44_4 C45_4 1_555 1_555
C5_4 H3_4 1_555 1_555
C6_4 C5_4 1_555 1_555
H18_4 C18_4 1_555 1_555
C19_4 O2_4 1_555 1_555
H19_4 C19_4 1_555 1_555
H22_4 C20_4 1_555 1_555
C19_4 C20_4 1_555 1_555

#END
