
###############################################################################
#
# This file contains modified crystal structure data generated from the
# MOF subset of the Cambridge Structural Database (CSD) v543 
# hosted by the Cambridge Crystallographic Data Centre (CCDC).
#
# This work is licensed under the Creative Commons
# Attribution-NonCommercial-ShareAlike 4.0 International License.
# To view a copy of this license, visit
# http://creativecommons.org/licenses/by-nc-sa/4.0/
# or send a letter to
# Creative Commons, PO Box 1866, Mountain View, CA 94042, USA.
#
# CIF created using the CSD Python API on 29 September 2022
# The structure has been converted into the P1 space group
# The structure has a 3D framework
# The original CSD entry EKAQOZ is in the monoclinic crystal system
# The framework has been calculated to contain at least 10.0% void space
# The void calculation uses a probe of radius 1.32A, grid spacing 0.4
# The framework is charged, counterions have been retained in the structure
#
###############################################################################

data_EKAQOZ
_chemical_formula_moiety         '(C320 H240 F16 In8 O88 8-)n'
_symmetry_cell_setting           triclinic
_symmetry_space_group_name_H-M   'P 1'
_symmetry_Int_Tables_number      1
_space_group_name_Hall           'P 1'
loop_
_symmetry_equiv_pos_site_id
_symmetry_equiv_pos_as_xyz
1 x,y,z
_cell_length_a                   12.9184(3)
_cell_length_b                   35.3319(11)
_cell_length_c                   30.2209(6)
_cell_angle_alpha                90
_cell_angle_beta                 90.418(2)
_cell_angle_gamma                90
_cell_volume                     13793.4
loop_
_atom_site_label
_atom_site_type_symbol
_atom_site_fract_x
_atom_site_fract_y
_atom_site_fract_z
O1 O 0.3761(2) 0.56381(9) 0.52439(10)
O2 O 0.91193(18) 0.56902(8) 0.20276(8)
O3 O 0.05873(18) 0.46471(8) 0.63420(8)
O4 O 0.3495(2) 0.89538(8) 0.57509(8)
O6 O 0.47901(19) 0.88388(8) 0.62033(9)
O8 O 0.7726(2) 0.58784(10) 0.16877(8)
O9 O 0.6387(2) 0.62852(11) 0.36368(9)
O11 O 0.4747(3) 0.73158(9) 0.50729(11)
C1 C 0.1421(2) 0.49727(11) 0.57532(11)
C2 C 0.2977(3) 0.54173(12) 0.53874(12)
C3 C 0.0562(2) 0.47555(10) 0.59492(11)
C4 C 0.3575(3) 0.58554(13) 0.48511(12)
H1 H 0.294683 0.600315 0.488095
H2 H 0.349878 0.568951 0.459727
C5 C 0.45022(15) 0.61152(6) 0.47913(7)
C6 C 0.52405(17) 0.60358(6) 0.44721(7)
C7 C 0.60477(15) 0.62878(7) 0.43993(7)
C8 C 0.61168(15) 0.66192(6) 0.46457(8)
C9 C 0.53785(17) 0.66986(6) 0.49648(7)
C10 C 0.45712(14) 0.64466(6) 0.50377(6)
C11 C 0.7888(3) 0.60330(13) 0.32559(12)
H3 H 0.826074 0.600841 0.351873
C12 C 0.6892(3) 0.61738(13) 0.32606(12)
C13 C 0.6776(3) 0.61099(16) 0.24768(13)
H4 H 0.640276 0.613936 0.221482
C14 C 0.2321(3) 0.50415(12) 0.59877(12)
H5 H 0.240434 0.494024 0.626975
C15 C 0.7776(2) 0.59624(11) 0.24670(11)
C16 C 0.4204(3) 0.87397(10) 0.58897(11)
C17 C 0.1323(3) 0.51282(14) 0.53316(12)
H6 H 0.072403 0.507984 0.516853
C18 C 0.8329(2) 0.59283(12) 0.28582(11)
H7 H 0.900193 0.583454 0.285423
C20 C 0.8229(2) 0.58383(11) 0.20391(12)
C21 C 0.3104(3) 0.52604(13) 0.58073(13)
H8 H 0.371258 0.530212 0.596628
C22 C 0.5470(3) 0.70468(12) 0.52461(15)
H9 H 0.531110 0.698811 0.555167
H10 H 0.616828 0.714724 0.523363
C23 C 0.6852(3) 0.61944(16) 0.40527(12)
H11 H 0.747404 0.634311 0.410002
H12 H 0.703279 0.592811 0.406471
C24 C 0.6344(3) 0.62111(16) 0.28699(13)
H13 H 0.567306 0.630620 0.287447
C25 C 0.4658(3) 0.76579(12) 0.52917(14)
C26 C 0.2073(3) 0.53488(14) 0.51494(12)
H14 H 0.198108 0.545210 0.486883
C27 C 0.4370(3) 0.83620(12) 0.56845(12)
C34 C 0.5302(3) 0.77685(13) 0.56330(15)
H18 H 0.582984 0.761116 0.573431
C35 C 0.5137(3) 0.81309(12) 0.58263(14)
H19 H 0.556714 0.821045 0.605607
C36 C 0.3772(3) 0.65330(15) 0.53905(14)
H20 H 0.341124 0.676192 0.531496
H21 H 0.411278 0.656384 0.567145
H22 H 0.328662 0.632781 0.540766
C37 C 0.6924(4) 0.69141(17) 0.4525(2)
H23 H 0.760225 0.681792 0.459255
H24 H 0.680510 0.714083 0.469236
H25 H 0.687478 0.696969 0.421491
C38 C 0.3724(4) 0.82366(15) 0.53384(19)
H26 H 0.319485 0.839216 0.523433
C39 C 0.5175(5) 0.56605(16) 0.4209(2)
H27 H 0.534857 0.545273 0.439988
H28 H 0.565120 0.566862 0.396649
H29 H 0.448375 0.562754 0.409608
C40 C 0.3870(5) 0.78814(16) 0.51503(19)
H30 H 0.342647 0.779727 0.492738
In2 In 0.39483(2) 0.93946(2) 0.62729(2)
In3 In 0.89483(2) 0.56054(2) 0.12729(2)
O3_2 O 0.55873(18) 0.96471(8) 0.63420(8)
O5 O 0.47739(19) 0.96784(9) 0.57062(8)
O7 O 0.2578(2) 0.97345(10) 0.59981(10)
O10 O 0.3493(2) 0.99927(9) 0.65187(10)
C1_2 C 0.6421(2) 0.99727(11) 0.57532(11)
C3_2 C 0.5562(2) 0.97555(10) 0.59492(11)
H5_2 H 0.740434 0.994024 0.626975
O12 O 0.41193(18) 0.93098(8) 0.70276(8)
O15 O 0.2726(2) 0.91216(10) 0.66877(8)
O5_2 O 0.97739(19) 0.53216(9) 0.07062(8)
O7_2 O 0.7578(2) 0.52655(10) 0.09981(10)
O10_2 O 0.8493(2) 0.50073(9) 0.15187(10)
C19 C 0.7779(3) 0.49873(14) 0.12458(14)
C28 C 0.7165(3) 0.46389(10) 0.11928(13)
C29 C 0.6538(3) 0.46106(14) 0.08186(14)
H15 H 0.649831 0.481107 0.061973
C30 C 0.5970(3) 0.42827(18) 0.0741(2)
H16 H 0.555092 0.426371 0.049102
C31 C 0.6030(5) 0.39830(14) 0.1039(3)
H17 H 0.564998 0.376361 0.098700
C32 C 0.6657(5) 0.40113(13) 0.1413(2)
C33 C 0.7224(4) 0.43393(13) 0.14900(14)
F1 F 0.7765(7) 0.43560(18) 0.18447(19)
F2 F 0.6655(12) 0.3746(3) 0.1686(4)
O13 O 0.8495(2) 0.60462(8) 0.07509(8)
O14 O 0.97901(19) 0.61612(8) 0.12033(9)
O9_2 O 0.1387(2) 0.87148(11) 0.86368(9)
C6_2 C 0.02405(17) 0.89642(6) 0.94721(7)
C7_2 C 0.10477(15) 0.87122(7) 0.93993(7)
C8_2 C 0.11168(15) 0.83808(6) 0.96457(8)
C9_2 C 0.03785(17) 0.83014(6) 0.99648(7)
C11_2 C 0.2888(3) 0.89670(13) 0.82559(12)
H3_2 H 0.326074 0.899159 0.851873
C12_2 C 0.1892(3) 0.88262(13) 0.82606(12)
C13_2 C 0.1776(3) 0.88901(16) 0.74768(13)
H4_2 H 0.140276 0.886064 0.721482
C15_2 C 0.2776(2) 0.90376(11) 0.74670(11)
C18_2 C 0.3329(2) 0.90717(12) 0.78582(11)
H7_2 H 0.400193 0.916546 0.785423
C20_2 C 0.3229(2) 0.91617(11) 0.70391(12)
C23_2 C 0.1852(3) 0.88056(16) 0.90527(12)
H11_2 H 0.247404 0.865689 0.910002
H12_2 H 0.203279 0.907189 0.906471
C24_2 C 0.1344(3) 0.87889(16) 0.78699(13)
H13_2 H 0.067306 0.869380 0.787447
C37_2 C 0.1924(4) 0.80859(17) 0.9525(2)
H23_2 H 0.260225 0.818208 0.959255
H24_2 H 0.180510 0.785917 0.969236
H25_2 H 0.187478 0.803031 0.921491
C39_2 C 0.0175(5) 0.93395(16) 0.9209(2)
H27_2 H 0.034857 0.954727 0.939988
H28_2 H 0.065120 0.933138 0.896649
O1_2 O 0.8761(2) 0.93619(9) 0.02439(10)
O11_2 O 0.9747(3) 0.76842(9) 0.00729(11)
C2_2 C 0.7977(3) 0.95827(12) 0.03874(12)
C10_2 C 0.95712(14) 0.85534(6) 0.00377(6)
C14_2 C 0.7321(3) 0.99585(12) 0.09877(12)
C16_2 C 0.9204(3) 0.62603(10) 0.08897(11)
C17_2 C 0.6323(3) 0.98718(14) 0.03316(12)
H6_2 H 0.572403 0.992016 0.016853
C19_2 C 0.2779(3) 0.99873(14) 0.12458(14)
C21_2 C 0.8104(3) 0.97396(13) 0.08073(13)
H8_2 H 0.871258 0.969788 0.096628
C25_2 C 0.9658(3) 0.73421(12) 0.02917(14)
C26_2 C 0.7073(3) 0.96512(14) 0.01494(12)
C27_2 C 0.9370(3) 0.66380(12) 0.06845(12)
C28_2 C 0.2165(3) 0.96389(10) 0.11928(13)
C29_2 C 0.1538(3) 0.96106(14) 0.08186(14)
H15_2 H 0.149831 0.981107 0.061973
C30_2 C 0.0970(3) 0.92827(18) 0.0741(2)
H16_2 H 0.055092 0.926371 0.049102
C31_2 C 0.1030(5) 0.89830(14) 0.1039(3)
H17_2 H 0.064998 0.876361 0.098700
C32_2 C 0.1657(5) 0.90113(13) 0.1413(2)
C33_2 C 0.2224(4) 0.93393(13) 0.14900(14)
C36_2 C 0.8772(3) 0.84670(15) 0.03905(14)
H20_2 H 0.841124 0.823808 0.031496
H21_2 H 0.911278 0.843616 0.067145
H22_2 H 0.828662 0.867219 0.040766
F1_2 F 0.2765(7) 0.93560(18) 0.18447(19)
C38_2 C 0.8724(4) 0.67634(15) 0.03384(19)
H26_2 H 0.819485 0.660784 0.023433
C40_2 C 0.8870(5) 0.71186(16) 0.01503(19)
F2_2 F 0.1655(12) 0.8746(3) 0.1686(4)
In1 In 0.89483(2) 0.43946(2) 0.62729(2)
O5_3 O 0.97739(19) 0.46784(9) 0.57062(8)
O7_3 O 0.7578(2) 0.47345(10) 0.59981(10)
O10_3 O 0.8493(2) 0.49927(9) 0.65187(10)
C19_3 C 0.7779(3) 0.50127(14) 0.62458(14)
C28_3 C 0.7165(3) 0.53611(10) 0.61928(13)
C29_3 C 0.6538(3) 0.53894(14) 0.58186(14)
H15_3 H 0.649831 0.518893 0.561973
C30_3 C 0.5970(3) 0.57173(18) 0.5741(2)
H16_3 H 0.555092 0.573629 0.549102
C31_3 C 0.6030(5) 0.60170(14) 0.6039(3)
H17_3 H 0.564998 0.623639 0.598700
C32_3 C 0.6657(5) 0.59887(13) 0.6413(2)
C33_3 C 0.7224(4) 0.56607(13) 0.64900(14)
F1_3 F 0.7765(7) 0.56440(18) 0.68447(19)
F2_3 F 0.6655(12) 0.6254(3) 0.6686(4)
O12_2 O 0.91193(18) 0.43098(8) 0.70276(8)
O13_2 O 0.8495(2) 0.39538(8) 0.57509(8)
O14_2 O 0.97901(19) 0.38388(8) 0.62033(9)
O15_2 O 0.7726(2) 0.41216(10) 0.66877(8)
O1_3 O 0.8761(2) 0.06381(9) 0.52439(10)
O11_3 O 0.9747(3) 0.23158(9) 0.50729(11)
C2_3 C 0.7977(3) 0.04173(12) 0.53874(12)
C4_2 C 0.8575(3) 0.08554(13) 0.48511(12)
H1_2 H 0.794683 0.100315 0.488095
H2_2 H 0.849878 0.068951 0.459727
C5_2 C 0.95022(15) 0.11152(6) 0.47913(7)
C10_3 C 0.95712(14) 0.14466(6) 0.50377(6)
C14_3 C 0.7321(3) 0.00415(12) 0.59877(12)
C16_3 C 0.9204(3) 0.37397(10) 0.58897(11)
C17_3 C 0.6323(3) 0.01282(14) 0.53316(12)
H6_3 H 0.572403 0.007984 0.516853
C19_4 C 0.2779(3) 0.00127(14) 0.62458(14)
C21_3 C 0.8104(3) 0.02604(13) 0.58073(13)
H8_3 H 0.871258 0.030212 0.596628
C25_3 C 0.9658(3) 0.26579(12) 0.52917(14)
C26_3 C 0.7073(3) 0.03488(14) 0.51494(12)
H14_2 H 0.698108 0.045210 0.486883
C27_3 C 0.9370(3) 0.33620(12) 0.56845(12)
C28_4 C 0.2165(3) 0.03611(10) 0.61928(13)
C29_4 C 0.1538(3) 0.03894(14) 0.58186(14)
H15_4 H 0.149831 0.018893 0.561973
C30_4 C 0.0970(3) 0.07173(18) 0.5741(2)
H16_4 H 0.055092 0.073629 0.549102
C31_4 C 0.1030(5) 0.10170(14) 0.6039(3)
H17_4 H 0.064998 0.123639 0.598700
C32_4 C 0.1657(5) 0.09887(13) 0.6413(2)
C33_4 C 0.2224(4) 0.06607(13) 0.64900(14)
C36_3 C 0.8772(3) 0.15330(15) 0.53905(14)
H20_3 H 0.841124 0.176192 0.531496
H21_3 H 0.911278 0.156384 0.567145
H22_3 H 0.828662 0.132781 0.540766
F1_4 F 0.2765(7) 0.06440(18) 0.68447(19)
C38_3 C 0.8724(4) 0.32366(15) 0.53384(19)
H26_3 H 0.819485 0.339216 0.523433
H29_2 H 0.948375 0.062754 0.409608
C40_3 C 0.8870(5) 0.28814(16) 0.51503(19)
H30_2 H 0.842647 0.279727 0.492738
F2_4 F 0.1655(12) 0.1254(3) 0.6686(4)
O9_3 O 0.6387(2) 0.37148(11) 0.86368(9)
C4_3 C 0.3575(3) 0.41446(13) 0.98511(12)
H1_3 H 0.294683 0.399685 0.988095
H2_3 H 0.349878 0.431049 0.959727
C5_3 C 0.45022(15) 0.38848(6) 0.97913(7)
C6_3 C 0.52405(17) 0.39642(6) 0.94721(7)
C7_3 C 0.60477(15) 0.37122(7) 0.93993(7)
C8_3 C 0.61168(15) 0.33808(6) 0.96457(8)
C9_3 C 0.53785(17) 0.33014(6) 0.99648(7)
C11_3 C 0.7888(3) 0.39670(13) 0.82559(12)
H3_3 H 0.826074 0.399159 0.851873
C12_3 C 0.6892(3) 0.38262(13) 0.82606(12)
C13_3 C 0.6776(3) 0.38901(16) 0.74768(13)
H4_3 H 0.640276 0.386064 0.721482
C15_3 C 0.7776(2) 0.40376(11) 0.74670(11)
C18_3 C 0.8329(2) 0.40717(12) 0.78582(11)
H7_3 H 0.900193 0.416546 0.785423
C20_3 C 0.8229(2) 0.41617(11) 0.70391(12)
C23_3 C 0.6852(3) 0.38056(16) 0.90527(12)
H11_3 H 0.747404 0.365689 0.910002
H12_3 H 0.703279 0.407189 0.906471
C24_3 C 0.6344(3) 0.37889(16) 0.78699(13)
H13_3 H 0.567306 0.369380 0.787447
H14_3 H 0.198108 0.454790 0.986883
C37_3 C 0.6924(4) 0.30859(17) 0.9525(2)
H23_3 H 0.760225 0.318208 0.959255
H24_3 H 0.680510 0.285917 0.969236
H25_3 H 0.687478 0.303031 0.921491
C39_3 C 0.5175(5) 0.43395(16) 0.9209(2)
H27_3 H 0.534857 0.454727 0.939988
H28_3 H 0.565120 0.433138 0.896649
H29_3 H 0.448375 0.437246 0.909608
H30_3 H 0.342647 0.220273 0.992738
In1_2 In 0.10517(2) 0.43946(2) 0.87271(2)
O5_4 O 0.02261(19) 0.46784(9) 0.92938(8)
O7_4 O 0.2422(2) 0.47345(10) 0.90019(10)
O10_4 O 0.1507(2) 0.49927(9) 0.84813(10)
C19_5 C 0.2221(3) 0.50127(14) 0.87542(14)
C28_5 C 0.2835(3) 0.53611(10) 0.88072(13)
C29_5 C 0.3462(3) 0.53894(14) 0.91814(14)
H15_5 H 0.350169 0.518893 0.938027
C30_5 C 0.4030(3) 0.57173(18) 0.9259(2)
H16_5 H 0.444908 0.573629 0.950898
C31_5 C 0.3970(5) 0.60170(14) 0.8961(3)
H17_5 H 0.435002 0.623639 0.901300
C32_5 C 0.3343(5) 0.59887(13) 0.8587(2)
C33_5 C 0.2776(4) 0.56607(13) 0.85100(14)
F1_5 F 0.2235(7) 0.56440(18) 0.81553(19)
F2_5 F 0.3345(12) 0.6254(3) 0.8314(4)
O12_3 O 0.08807(18) 0.43098(8) 0.79724(8)
O13_3 O 0.1505(2) 0.39538(8) 0.92491(8)
O14_3 O 0.02099(19) 0.38388(8) 0.87967(9)
O15_3 O 0.2274(2) 0.41216(10) 0.83123(8)
O1_4 O 0.1239(2) 0.06381(9) 0.97561(10)
O11_4 O 0.0253(3) 0.23158(9) 0.99271(11)
C2_4 C 0.2023(3) 0.04173(12) 0.96126(12)
C10_4 C 0.04288(14) 0.14466(6) 0.99623(6)
C14_4 C 0.2679(3) 0.00415(12) 0.90123(12)
C16_4 C 0.0796(3) 0.37397(10) 0.91103(11)
C17_4 C 0.3677(3) 0.01282(14) 0.96684(12)
H6_4 H 0.427597 0.007984 0.983147
C19_6 C 0.7221(3) 0.00127(14) 0.87542(14)
C21_4 C 0.1896(3) 0.02604(13) 0.91927(13)
H8_4 H 0.128742 0.030212 0.903372
C25_4 C 0.0342(3) 0.26579(12) 0.97083(14)
C26_4 C 0.2927(3) 0.03488(14) 0.98506(12)
C27_4 C 0.0630(3) 0.33620(12) 0.93155(12)
C28_6 C 0.7835(3) 0.03611(10) 0.88072(13)
C29_6 C 0.8462(3) 0.03894(14) 0.91814(14)
H15_6 H 0.850169 0.018893 0.938027
C30_6 C 0.9030(3) 0.07173(18) 0.9259(2)
H16_6 H 0.944908 0.073629 0.950898
C31_6 C 0.8970(5) 0.10170(14) 0.8961(3)
H17_6 H 0.935002 0.123639 0.901300
C32_6 C 0.8343(5) 0.09887(13) 0.8587(2)
C33_6 C 0.7776(4) 0.06607(13) 0.85100(14)
C36_4 C 0.1228(3) 0.15330(15) 0.96095(14)
H20_4 H 0.158876 0.176192 0.968504
H21_4 H 0.088722 0.156384 0.932855
H22_4 H 0.171338 0.132781 0.959234
F1_6 F 0.7235(7) 0.06440(18) 0.81553(19)
C38_4 C 0.1276(4) 0.32366(15) 0.96616(19)
H26_4 H 0.180515 0.339216 0.976567
C40_4 C 0.1130(5) 0.28814(16) 0.98497(19)
F2_6 F 0.8345(12) 0.1254(3) 0.8314(4)
O2_2 O 0.58807(18) 0.06902(8) 0.29724(8)
O8_2 O 0.7274(2) 0.08784(10) 0.33123(8)
O9_4 O 0.8613(2) 0.12852(11) 0.13632(9)
C6_4 C 0.97595(17) 0.10358(6) 0.05279(7)
C7_4 C 0.89523(15) 0.12878(7) 0.06007(7)
C8_4 C 0.88832(15) 0.16192(6) 0.03543(8)
C9_4 C 0.96215(17) 0.16986(6) 0.00352(7)
C11_4 C 0.7112(3) 0.10330(13) 0.17441(12)
H3_4 H 0.673926 0.100841 0.148127
C12_4 C 0.8108(3) 0.11738(13) 0.17394(12)
C13_4 C 0.8224(3) 0.11099(16) 0.25232(13)
H4_4 H 0.859724 0.113936 0.278518
C15_4 C 0.7224(2) 0.09624(11) 0.25330(11)
C18_4 C 0.6671(2) 0.09283(12) 0.21418(11)
H7_4 H 0.599807 0.083454 0.214577
C20_4 C 0.6771(2) 0.08383(11) 0.29609(12)
C23_4 C 0.8148(3) 0.11944(16) 0.09473(12)
H11_4 H 0.752596 0.134311 0.089998
H12_4 H 0.796721 0.092811 0.093529
C24_4 C 0.8656(3) 0.12111(16) 0.21301(13)
H13_4 H 0.932694 0.130620 0.212553
C37_4 C 0.8076(4) 0.19141(17) 0.0475(2)
H23_4 H 0.739775 0.181792 0.040745
H24_4 H 0.819490 0.214083 0.030764
H25_4 H 0.812522 0.196969 0.078509
C39_4 C 0.9825(5) 0.06605(16) 0.0791(2)
H27_4 H 0.965143 0.045273 0.060012
H28_4 H 0.934880 0.066862 0.103351
In3_2 In 0.60517(2) 0.06054(2) 0.37271(2)
O1_5 O 0.6239(2) 0.43619(9) 0.47561(10)
O3_3 O 0.94127(18) 0.53529(8) 0.36580(8)
O4_2 O 0.6505(2) 0.10462(8) 0.42491(8)
O6_2 O 0.52099(19) 0.11612(8) 0.37967(9)
O9_5 O 0.3613(2) 0.37148(11) 0.63632(9)
O11_5 O 0.5253(3) 0.26842(9) 0.49271(11)
C1_3 C 0.8579(2) 0.50273(11) 0.42468(11)
C2_5 C 0.7023(3) 0.45827(12) 0.46126(12)
C3_3 C 0.9438(2) 0.52445(10) 0.40508(11)
C4_4 C 0.6425(3) 0.41446(13) 0.51489(12)
H1_4 H 0.705317 0.399685 0.511905
H2_4 H 0.650122 0.431049 0.540273
C5_4 C 0.54978(15) 0.38848(6) 0.52087(7)
C6_5 C 0.47595(17) 0.39642(6) 0.55279(7)
C7_5 C 0.39523(15) 0.37122(7) 0.56007(7)
C8_5 C 0.38832(15) 0.33808(6) 0.53543(8)
C9_5 C 0.46215(17) 0.33014(6) 0.50352(7)
C10_5 C 0.54288(14) 0.35534(6) 0.49623(6)
C11_5 C 0.2112(3) 0.39670(13) 0.67441(12)
H3_5 H 0.173926 0.399159 0.648127
C12_5 C 0.3108(3) 0.38262(13) 0.67394(12)
C13_5 C 0.3224(3) 0.38901(16) 0.75232(13)
H4_5 H 0.359724 0.386064 0.778518
C14_5 C 0.7679(3) 0.49585(12) 0.40123(12)
H5_3 H 0.759566 0.505976 0.373025
C15_5 C 0.2224(2) 0.40376(11) 0.75330(11)
C16_5 C 0.5796(3) 0.12603(10) 0.41103(11)
C17_5 C 0.8677(3) 0.48718(14) 0.46684(12)
H6_5 H 0.927597 0.492016 0.483147
C18_5 C 0.1671(2) 0.40717(12) 0.71418(11)
H7_5 H 0.099807 0.416546 0.714577
C20_5 C 0.1771(2) 0.41617(11) 0.79609(12)
C21_5 C 0.6896(3) 0.47396(13) 0.41927(13)
H8_5 H 0.628742 0.469788 0.403372
C22_2 C 0.4530(3) 0.29532(12) 0.47539(15)
H9_2 H 0.468890 0.301189 0.444833
H10_2 H 0.383172 0.285276 0.476637
C23_5 C 0.3148(3) 0.38056(16) 0.59473(12)
H11_5 H 0.252596 0.365689 0.589998
H12_5 H 0.296721 0.407189 0.593529
C24_5 C 0.3656(3) 0.37889(16) 0.71301(13)
H13_5 H 0.432694 0.369380 0.712553
C25_5 C 0.5342(3) 0.23421(12) 0.47083(14)
C26_5 C 0.7927(3) 0.46512(14) 0.48506(12)
H14_4 H 0.801892 0.454790 0.513117
C27_5 C 0.5630(3) 0.16380(12) 0.43155(12)
C34_2 C 0.4698(3) 0.22315(13) 0.43670(15)
H18_2 H 0.417016 0.238884 0.426569
C35_2 C 0.4863(3) 0.18691(12) 0.41737(14)
H19_2 H 0.443286 0.178955 0.394393
C36_5 C 0.6228(3) 0.34670(15) 0.46095(14)
H20_5 H 0.658876 0.323808 0.468504
H21_5 H 0.588722 0.343616 0.432855
H22_5 H 0.671338 0.367219 0.459234
C37_5 C 0.3076(4) 0.30859(17) 0.5475(2)
H23_5 H 0.239775 0.318208 0.540745
H24_5 H 0.319490 0.285917 0.530764
H25_5 H 0.312522 0.303031 0.578509
C38_5 C 0.6276(4) 0.17634(15) 0.46616(19)
H26_5 H 0.680515 0.160784 0.476567
C39_5 C 0.4825(5) 0.43395(16) 0.5791(2)
H27_5 H 0.465143 0.454727 0.560012
H28_5 H 0.434880 0.433138 0.603351
H29_4 H 0.551625 0.437246 0.590392
C40_5 C 0.6130(5) 0.21186(16) 0.48497(19)
H30_4 H 0.657353 0.220273 0.507262
O3_4 O 0.44127(18) 0.03529(8) 0.36580(8)
O5_5 O 0.52261(19) 0.03216(9) 0.42938(8)
O7_5 O 0.7422(2) 0.02655(10) 0.40019(10)
O10_5 O 0.6507(2) 0.00073(9) 0.34813(10)
C1_4 C 0.3579(2) 0.00273(11) 0.42468(11)
C3_4 C 0.4438(2) 0.02445(10) 0.40508(11)
H5_4 H 0.259566 0.005976 0.373025
O2_3 O 0.08807(18) 0.56902(8) 0.29724(8)
O8_3 O 0.2274(2) 0.58784(10) 0.33123(8)
O9_6 O 0.3613(2) 0.62852(11) 0.13632(9)
C4_5 C 0.6425(3) 0.58554(13) 0.01489(12)
H1_5 H 0.705317 0.600315 0.011905
H2_5 H 0.650122 0.568951 0.040273
C5_5 C 0.54978(15) 0.61152(6) 0.02087(7)
C6_6 C 0.47595(17) 0.60358(6) 0.05279(7)
C7_6 C 0.39523(15) 0.62878(7) 0.06007(7)
C8_6 C 0.38832(15) 0.66192(6) 0.03543(8)
C9_6 C 0.46215(17) 0.66986(6) 0.00352(7)
C11_6 C 0.2112(3) 0.60330(13) 0.17441(12)
H3_6 H 0.173926 0.600841 0.148127
C12_6 C 0.3108(3) 0.61738(13) 0.17394(12)
C13_6 C 0.3224(3) 0.61099(16) 0.25232(13)
H4_6 H 0.359724 0.613936 0.278518
C15_6 C 0.2224(2) 0.59624(11) 0.25330(11)
C18_6 C 0.1671(2) 0.59283(12) 0.21418(11)
H7_6 H 0.099807 0.583454 0.214577
C20_6 C 0.1771(2) 0.58383(11) 0.29609(12)
C23_6 C 0.3148(3) 0.61944(16) 0.09473(12)
H11_6 H 0.252596 0.634311 0.089998
H12_6 H 0.296721 0.592811 0.093529
C24_6 C 0.3656(3) 0.62111(16) 0.21301(13)
H13_6 H 0.432694 0.630620 0.212553
H14_5 H 0.801892 0.545210 0.013117
C37_6 C 0.3076(4) 0.69141(17) 0.0475(2)
H23_6 H 0.239775 0.681792 0.040745
H24_6 H 0.319490 0.714083 0.030764
H25_6 H 0.312522 0.696969 0.078509
C39_6 C 0.4825(5) 0.56605(16) 0.0791(2)
H27_6 H 0.465143 0.545273 0.060012
H28_6 H 0.434880 0.566862 0.103351
H29_5 H 0.551625 0.562754 0.090392
H30_5 H 0.657353 0.779727 0.007262
In3_3 In 0.10517(2) 0.56054(2) 0.37271(2)
O5_6 O 0.02261(19) 0.53216(9) 0.42938(8)
O7_6 O 0.2422(2) 0.52655(10) 0.40019(10)
O10_6 O 0.1507(2) 0.50073(9) 0.34813(10)
C19_7 C 0.2221(3) 0.49873(14) 0.37542(14)
C28_7 C 0.2835(3) 0.46389(10) 0.38072(13)
C29_7 C 0.3462(3) 0.46106(14) 0.41814(14)
H15_7 H 0.350169 0.481107 0.438027
C30_7 C 0.4030(3) 0.42827(18) 0.4259(2)
H16_7 H 0.444908 0.426371 0.450898
C31_7 C 0.3970(5) 0.39830(14) 0.3961(3)
H17_7 H 0.435002 0.376361 0.401300
C32_7 C 0.3343(5) 0.40113(13) 0.3587(2)
C33_7 C 0.2776(4) 0.43393(13) 0.35100(14)
F1_7 F 0.2235(7) 0.43560(18) 0.31553(19)
F2_7 F 0.3345(12) 0.3746(3) 0.3314(4)
O13_4 O 0.1505(2) 0.60462(8) 0.42491(8)
O14_4 O 0.02099(19) 0.61612(8) 0.37967(9)
O1_6 O 0.1239(2) 0.93619(9) 0.47561(10)
O11_6 O 0.0253(3) 0.76842(9) 0.49271(11)
C2_6 C 0.2023(3) 0.95827(12) 0.46126(12)
C4_6 C 0.1425(3) 0.91446(13) 0.51489(12)
H1_6 H 0.205317 0.899685 0.511905
H2_6 H 0.150122 0.931049 0.540273
C5_6 C 0.04978(15) 0.88848(6) 0.52087(7)
C10_6 C 0.04288(14) 0.85534(6) 0.49623(6)
C14_6 C 0.2679(3) 0.99585(12) 0.40123(12)
C16_6 C 0.0796(3) 0.62603(10) 0.41103(11)
C17_6 C 0.3677(3) 0.98718(14) 0.46684(12)
H6_6 H 0.427597 0.992016 0.483147
C19_8 C 0.7221(3) 0.99873(14) 0.37542(14)
C21_6 C 0.1896(3) 0.97396(13) 0.41927(13)
H8_6 H 0.128742 0.969788 0.403372
C25_6 C 0.0342(3) 0.73421(12) 0.47083(14)
C26_6 C 0.2927(3) 0.96512(14) 0.48506(12)
H14_6 H 0.301892 0.954790 0.513117
C27_6 C 0.0630(3) 0.66380(12) 0.43155(12)
C28_8 C 0.7835(3) 0.96389(10) 0.38072(13)
C29_8 C 0.8462(3) 0.96106(14) 0.41814(14)
H15_8 H 0.850169 0.981107 0.438027
C30_8 C 0.9030(3) 0.92827(18) 0.4259(2)
H16_8 H 0.944908 0.926371 0.450898
C31_8 C 0.8970(5) 0.89830(14) 0.3961(3)
H17_8 H 0.935002 0.876361 0.401300
C32_8 C 0.8343(5) 0.90113(13) 0.3587(2)
C33_8 C 0.7776(4) 0.93393(13) 0.35100(14)
C36_6 C 0.1228(3) 0.84670(15) 0.46095(14)
H20_6 H 0.158876 0.823808 0.468504
H21_6 H 0.088722 0.843616 0.432855
H22_6 H 0.171338 0.867219 0.459234
F1_8 F 0.7235(7) 0.93560(18) 0.31553(19)
C38_6 C 0.1276(4) 0.67634(15) 0.46616(19)
H26_6 H 0.180515 0.660784 0.476567
H29_6 H 0.051625 0.937246 0.590392
C40_6 C 0.1130(5) 0.71186(16) 0.48497(19)
H30_6 H 0.157353 0.720273 0.507262
F2_8 F 0.8345(12) 0.8746(3) 0.3314(4)
O1_7 O 0.6239(2) 0.56381(9) 0.97561(10)
O3_5 O 0.94127(18) 0.46471(8) 0.86580(8)
O4_3 O 0.6505(2) 0.89538(8) 0.92491(8)
O6_3 O 0.52099(19) 0.88388(8) 0.87967(9)
O11_7 O 0.5253(3) 0.73158(9) 0.99271(11)
C1_5 C 0.8579(2) 0.49727(11) 0.92468(11)
C2_7 C 0.7023(3) 0.54173(12) 0.96126(12)
C3_5 C 0.9438(2) 0.47555(10) 0.90508(11)
C10_7 C 0.54288(14) 0.64466(6) 0.99623(6)
C14_7 C 0.7679(3) 0.50415(12) 0.90123(12)
H5_5 H 0.759566 0.494024 0.873025
C16_7 C 0.5796(3) 0.87397(10) 0.91103(11)
C17_7 C 0.8677(3) 0.51282(14) 0.96684(12)
H6_7 H 0.927597 0.507984 0.983147
C21_7 C 0.6896(3) 0.52604(13) 0.91927(13)
H8_7 H 0.628742 0.530212 0.903372
C22_3 C 0.4530(3) 0.70468(12) 0.97539(15)
H9_3 H 0.468890 0.698811 0.944833
H10_3 H 0.383172 0.714724 0.976637
C25_7 C 0.5342(3) 0.76579(12) 0.97083(14)
C26_7 C 0.7927(3) 0.53488(14) 0.98506(12)
C27_7 C 0.5630(3) 0.83620(12) 0.93155(12)
C34_3 C 0.4698(3) 0.77685(13) 0.93670(15)
H18_3 H 0.417016 0.761116 0.926569
C35_3 C 0.4863(3) 0.81309(12) 0.91737(14)
H19_3 H 0.443286 0.821045 0.894393
C36_7 C 0.6228(3) 0.65330(15) 0.96095(14)
H20_7 H 0.658876 0.676192 0.968504
H21_7 H 0.588722 0.656384 0.932855
H22_7 H 0.671338 0.632781 0.959234
C38_7 C 0.6276(4) 0.82366(15) 0.96616(19)
H26_7 H 0.680515 0.839216 0.976567
C40_7 C 0.6130(5) 0.78814(16) 0.98497(19)
In2_2 In 0.60517(2) 0.93946(2) 0.87271(2)
O3_6 O 0.44127(18) 0.96471(8) 0.86580(8)
O5_7 O 0.52261(19) 0.96784(9) 0.92938(8)
O7_7 O 0.7422(2) 0.97345(10) 0.90019(10)
O10_7 O 0.6507(2) 0.99927(9) 0.84813(10)
C1_6 C 0.3579(2) 0.99727(11) 0.92468(11)
C3_6 C 0.4438(2) 0.97555(10) 0.90508(11)
H5_6 H 0.259566 0.994024 0.873025
O12_4 O 0.58807(18) 0.93098(8) 0.79724(8)
O15_4 O 0.7274(2) 0.91216(10) 0.83123(8)
O9_7 O 0.8613(2) 0.87148(11) 0.63632(9)
C6_7 C 0.97595(17) 0.89642(6) 0.55279(7)
C7_7 C 0.89523(15) 0.87122(7) 0.56007(7)
C8_7 C 0.88832(15) 0.83808(6) 0.53543(8)
C9_7 C 0.96215(17) 0.83014(6) 0.50352(7)
C11_7 C 0.7112(3) 0.89670(13) 0.67441(12)
H3_7 H 0.673926 0.899159 0.648127
C12_7 C 0.8108(3) 0.88262(13) 0.67394(12)
C13_7 C 0.8224(3) 0.88901(16) 0.75232(13)
H4_7 H 0.859724 0.886064 0.778518
C15_7 C 0.7224(2) 0.90376(11) 0.75330(11)
C18_7 C 0.6671(2) 0.90717(12) 0.71418(11)
H7_7 H 0.599807 0.916546 0.714577
C20_7 C 0.6771(2) 0.91617(11) 0.79609(12)
C22_4 C 0.9530(3) 0.79532(12) 0.47539(15)
H9_4 H 0.968890 0.801189 0.444833
H10_4 H 0.883172 0.785276 0.476637
C23_7 C 0.8148(3) 0.88056(16) 0.59473(12)
H11_7 H 0.752596 0.865689 0.589998
H12_7 H 0.796721 0.907189 0.593529
C24_7 C 0.8656(3) 0.87889(16) 0.71301(13)
H13_7 H 0.932694 0.869380 0.712553
C34_4 C 0.9698(3) 0.72315(13) 0.43670(15)
H18_4 H 0.917016 0.738884 0.426569
C35_4 C 0.9863(3) 0.68691(12) 0.41737(14)
H19_4 H 0.943286 0.678955 0.394393
C37_7 C 0.8076(4) 0.80859(17) 0.5475(2)
H23_7 H 0.739775 0.818208 0.540745
H24_7 H 0.819490 0.785917 0.530764
H25_7 H 0.812522 0.803031 0.578509
C39_7 C 0.9825(5) 0.93395(16) 0.5791(2)
H27_7 H 0.965143 0.954727 0.560012
H28_7 H 0.934880 0.933138 0.603351
O2_4 O 0.41193(18) 0.06902(8) 0.20276(8)
O8_4 O 0.2726(2) 0.08784(10) 0.16877(8)
O9_8 O 0.1387(2) 0.12852(11) 0.36368(9)
C6_8 C 0.02405(17) 0.10358(6) 0.44721(7)
C7_8 C 0.10477(15) 0.12878(7) 0.43993(7)
C8_8 C 0.11168(15) 0.16192(6) 0.46457(8)
C9_8 C 0.03785(17) 0.16986(6) 0.49648(7)
C11_8 C 0.2888(3) 0.10330(13) 0.32559(12)
H3_8 H 0.326074 0.100841 0.351873
C12_8 C 0.1892(3) 0.11738(13) 0.32606(12)
C13_8 C 0.1776(3) 0.11099(16) 0.24768(13)
H4_8 H 0.140276 0.113936 0.221482
C15_8 C 0.2776(2) 0.09624(11) 0.24670(11)
C18_8 C 0.3329(2) 0.09283(12) 0.28582(11)
H7_8 H 0.400193 0.083454 0.285423
C20_8 C 0.3229(2) 0.08383(11) 0.20391(12)
C22_5 C 0.0470(3) 0.20468(12) 0.52461(15)
H9_5 H 0.031110 0.198811 0.555167
H10_5 H 0.116828 0.214724 0.523363
C23_8 C 0.1852(3) 0.11944(16) 0.40527(12)
H11_8 H 0.247404 0.134311 0.410002
H12_8 H 0.203279 0.092811 0.406471
C24_8 C 0.1344(3) 0.12111(16) 0.28699(13)
H13_8 H 0.067306 0.130620 0.287447
C34_5 C 0.0302(3) 0.27685(13) 0.56330(15)
H18_5 H 0.082984 0.261116 0.573431
C35_5 C 0.0137(3) 0.31309(12) 0.58263(14)
H19_5 H 0.056714 0.321045 0.605607
C37_8 C 0.1924(4) 0.19141(17) 0.4525(2)
H23_8 H 0.260225 0.181792 0.459255
H24_8 H 0.180510 0.214083 0.469236
H25_8 H 0.187478 0.196969 0.421491
C39_8 C 0.0175(5) 0.06605(16) 0.4209(2)
H27_8 H 0.034857 0.045273 0.439988
H28_8 H 0.065120 0.066862 0.396649
In3_4 In 0.39483(2) 0.06054(2) 0.12729(2)
O1_8 O 0.3761(2) 0.43619(9) 0.02439(10)
O3_7 O 0.05873(18) 0.53529(8) 0.13420(8)
O4_4 O 0.3495(2) 0.10462(8) 0.07509(8)
O6_4 O 0.47901(19) 0.11612(8) 0.12033(9)
O11_8 O 0.4747(3) 0.26842(9) 0.00729(11)
C1_7 C 0.1421(2) 0.50273(11) 0.07532(11)
C2_8 C 0.2977(3) 0.45827(12) 0.03874(12)
C3_7 C 0.0562(2) 0.52445(10) 0.09492(11)
C10_8 C 0.45712(14) 0.35534(6) 0.00377(6)
C14_8 C 0.2321(3) 0.49585(12) 0.09877(12)
H5_7 H 0.240434 0.505976 0.126975
C16_8 C 0.4204(3) 0.12603(10) 0.08897(11)
C17_8 C 0.1323(3) 0.48718(14) 0.03316(12)
H6_8 H 0.072403 0.492016 0.016853
C21_8 C 0.3104(3) 0.47396(13) 0.08073(13)
H8_8 H 0.371258 0.469788 0.096628
C22_6 C 0.5470(3) 0.29532(12) 0.02461(15)
H9_6 H 0.531110 0.301189 0.055167
H10_6 H 0.616828 0.285276 0.023363
C25_8 C 0.4658(3) 0.23421(12) 0.02917(14)
C26_8 C 0.2073(3) 0.46512(14) 0.01494(12)
C27_8 C 0.4370(3) 0.16380(12) 0.06845(12)
C34_6 C 0.5302(3) 0.22315(13) 0.06330(15)
H18_6 H 0.582984 0.238884 0.073431
C35_6 C 0.5137(3) 0.18691(12) 0.08263(14)
H19_6 H 0.556714 0.178955 0.105607
C36_8 C 0.3772(3) 0.34670(15) 0.03905(14)
H20_8 H 0.341124 0.323808 0.031496
H21_8 H 0.411278 0.343616 0.067145
H22_8 H 0.328662 0.367219 0.040766
C38_8 C 0.3724(4) 0.17634(15) 0.03384(19)
H26_8 H 0.319485 0.160784 0.023433
C40_8 C 0.3870(5) 0.21186(16) 0.01503(19)
O3_8 O 0.55873(18) 0.03529(8) 0.13420(8)
O5_8 O 0.47739(19) 0.03216(9) 0.07062(8)
O7_8 O 0.2578(2) 0.02655(10) 0.09981(10)
O10_8 O 0.3493(2) 0.00073(9) 0.15187(10)
C1_8 C 0.6421(2) 0.00273(11) 0.07532(11)
C3_8 C 0.5562(2) 0.02445(10) 0.09492(11)
H5_8 H 0.740434 0.005976 0.126975
C4_7 C 0.1425(3) 0.08554(13) 0.01489(12)
H1_7 H 0.205317 0.100315 0.011905
H2_7 H 0.150122 0.068951 0.040273
C5_7 C 0.04978(15) 0.11152(6) 0.02087(7)
H14_7 H 0.301892 0.045210 0.013117
H29_7 H 0.051625 0.062754 0.090392
H30_7 H 0.157353 0.279727 0.007262
C22_7 C 0.9530(3) 0.20468(12) 0.97539(15)
H9_7 H 0.968890 0.198811 0.944833
H10_7 H 0.883172 0.214724 0.976637
C34_7 C 0.9698(3) 0.27685(13) 0.93670(15)
H18_7 H 0.917016 0.261116 0.926569
C35_7 C 0.9863(3) 0.31309(12) 0.91737(14)
H19_7 H 0.943286 0.321045 0.894393
C22_8 C 0.0470(3) 0.79532(12) 0.02461(15)
H9_8 H 0.031110 0.801189 0.055167
H10_8 H 0.116828 0.785276 0.023363
C34_8 C 0.0302(3) 0.72315(13) 0.06330(15)
H18_8 H 0.082984 0.738884 0.073431
C35_8 C 0.0137(3) 0.68691(12) 0.08263(14)
H19_8 H 0.056714 0.678955 0.105607
C4_8 C 0.8575(3) 0.91446(13) 0.98511(12)
H1_8 H 0.794683 0.899685 0.988095
H2_8 H 0.849878 0.931049 0.959727
C5_8 C 0.95022(15) 0.88848(6) 0.97913(7)
H14_8 H 0.698108 0.954790 0.986883
H29_8 H 0.948375 0.937246 0.909608
H30_8 H 0.842647 0.720273 0.992738
loop_
_geom_bond_atom_site_label_1
_geom_bond_atom_site_label_2
_geom_bond_site_symmetry_1
_geom_bond_site_symmetry_2
O1 C2 1_555 1_555
O2 C20 1_555 1_555
O3 C3 1_555 1_555
O4 C16 1_555 1_555
O6 C16 1_555 1_555
O8 C20 1_555 1_555
O9 C12 1_555 1_555
O11 C22 1_555 1_555
C1 C3 1_555 1_555
C2 C21 1_555 1_555
C4 O1 1_555 1_555
H1 C4 1_555 1_555
H2 C4 1_555 1_555
C5 C4 1_555 1_555
C6 C5 1_555 1_555
C7 C6 1_555 1_555
C8 C7 1_555 1_555
C9 C8 1_555 1_555
C10 C5 1_555 1_555
C11 H3 1_555 1_555
C12 C11 1_555 1_555
C13 H4 1_555 1_555
C14 C1 1_555 1_555
H5 C14 1_555 1_555
C15 C13 1_555 1_555
C16 C27 1_555 1_555
C17 C1 1_555 1_555
H6 C17 1_555 1_555
C18 C11 1_555 1_555
H7 C18 1_555 1_555
C20 C15 1_555 1_555
C21 C14 1_555 1_555
H8 C21 1_555 1_555
C22 C9 1_555 1_555
H9 C22 1_555 1_555
H10 C22 1_555 1_555
C23 O9 1_555 1_555
H11 C23 1_555 1_555
H12 C23 1_555 1_555
C24 C12 1_555 1_555
H13 C24 1_555 1_555
C25 O11 1_555 1_555
C26 C2 1_555 1_555
H14 C26 1_555 1_555
C27 C35 1_555 1_555
C34 C25 1_555 1_555
H18 C34 1_555 1_555
C35 C34 1_555 1_555
H19 C35 1_555 1_555
C36 C10 1_555 1_555
H20 C36 1_555 1_555
H21 C36 1_555 1_555
H22 C36 1_555 1_555
C37 C8 1_555 1_555
H23 C37 1_555 1_555
H24 C37 1_555 1_555
H25 C37 1_555 1_555
C38 C27 1_555 1_555
H26 C38 1_555 1_555
C39 C6 1_555 1_555
H27 C39 1_555 1_555
H28 C39 1_555 1_555
H29 C39 1_555 1_555
C40 C25 1_555 1_555
H30 C40 1_555 1_555
In2 O4 1_555 1_555
In3 O2 1_555 1_555
O6 In2 1_555 1_555
O8 In3 1_555 1_555
C7 C23 1_555 1_555
C9 C10 1_555 1_555
C13 C24 1_555 1_555
C15 C18 1_555 1_555
C17 C26 1_555 1_555
C38 C40 1_555 1_555
In2 O3_2 1_555 1_555
O3_2 C3_2 1_555 1_555
O5 In2 1_555 1_555
O7 In2 1_555 1_555
O10 In2 1_555 1_555
C1_2 C3_2 1_555 1_555
C3_2 O5 1_555 1_555
O12 In2 1_555 1_555
O15 In2 1_555 1_555
O5_2 In3 1_555 1_555
O7_2 In3 1_555 1_555
O10_2 In3 1_555 1_555
C19 O7_2 1_555 1_555
C28 C19 1_555 1_555
C29 C28 1_555 1_555
H15 C29 1_555 1_555
C30 C29 1_555 1_555
H16 C30 1_555 1_555
C31 C30 1_555 1_555
H17 C31 1_555 1_555
C32 C31 1_555 1_555
C33 C28 1_555 1_555
F1 C33 1_555 1_555
F2 C32 1_555 1_555
O13 In3 1_555 1_555
O14 In3 1_555 1_555
O10_2 C19 1_555 1_555
C32 C33 1_555 1_555
O12 C20_2 1_555 1_555
O15 C20_2 1_555 1_555
O9_2 C12_2 1_555 1_555
C7_2 C6_2 1_555 1_555
C8_2 C7_2 1_555 1_555
C9_2 C8_2 1_555 1_555
C11_2 H3_2 1_555 1_555
C12_2 C11_2 1_555 1_555
C13_2 H4_2 1_555 1_555
C15_2 C13_2 1_555 1_555
C18_2 C11_2 1_555 1_555
H7_2 C18_2 1_555 1_555
C20_2 C15_2 1_555 1_555
C23_2 O9_2 1_555 1_555
H11_2 C23_2 1_555 1_555
H12_2 C23_2 1_555 1_555
C24_2 C12_2 1_555 1_555
H13_2 C24_2 1_555 1_555
C37_2 C8_2 1_555 1_555
H23_2 C37_2 1_555 1_555
H24_2 C37_2 1_555 1_555
H25_2 C37_2 1_555 1_555
C39_2 C6_2 1_555 1_555
H27_2 C39_2 1_555 1_555
H28_2 C39_2 1_555 1_555
C7_2 C23_2 1_555 1_555
C13_2 C24_2 1_555 1_555
C15_2 C18_2 1_555 1_555
O1_2 C2_2 1_555 1_555
O13 C16_2 1_555 1_555
O14 C16_2 1_555 1_555
C2_2 C21_2 1_555 1_555
C16_2 C27_2 1_555 1_555
H6_2 C17_2 1_555 1_555
C21_2 C14_2 1_555 1_555
H8_2 C21_2 1_555 1_555
C25_2 O11_2 1_555 1_555
C26_2 C2_2 1_555 1_555
C28_2 C19_2 1_555 1_555
C29_2 C28_2 1_555 1_555
H15_2 C29_2 1_555 1_555
C30_2 C29_2 1_555 1_555
H16_2 C30_2 1_555 1_555
C31_2 C30_2 1_555 1_555
H17_2 C31_2 1_555 1_555
C32_2 C31_2 1_555 1_555
C33_2 C28_2 1_555 1_555
C36_2 C10_2 1_555 1_555
H20_2 C36_2 1_555 1_555
H21_2 C36_2 1_555 1_555
H22_2 C36_2 1_555 1_555
F1_2 C33_2 1_555 1_555
C38_2 C27_2 1_555 1_555
H26_2 C38_2 1_555 1_555
C40_2 C25_2 1_555 1_555
F2_2 C32_2 1_555 1_555
C17_2 C26_2 1_555 1_555
C32_2 C33_2 1_555 1_555
C38_2 C40_2 1_555 1_555
O5_3 In1 1_555 1_555
O7_3 In1 1_555 1_555
O10_3 In1 1_555 1_555
C19_3 O7_3 1_555 1_555
C28_3 C19_3 1_555 1_555
C29_3 C28_3 1_555 1_555
H15_3 C29_3 1_555 1_555
C30_3 C29_3 1_555 1_555
H16_3 C30_3 1_555 1_555
C31_3 C30_3 1_555 1_555
H17_3 C31_3 1_555 1_555
C32_3 C31_3 1_555 1_555
C33_3 C28_3 1_555 1_555
F1_3 C33_3 1_555 1_555
F2_3 C32_3 1_555 1_555
O12_2 In1 1_555 1_555
O13_2 In1 1_555 1_555
O14_2 In1 1_555 1_555
O15_2 In1 1_555 1_555
O10_3 C19_3 1_555 1_555
C32_3 C33_3 1_555 1_555
O1_3 C2_3 1_555 1_555
O13_2 C16_3 1_555 1_555
O14_2 C16_3 1_555 1_555
C2_3 C21_3 1_555 1_555
C4_2 O1_3 1_555 1_555
H1_2 C4_2 1_555 1_555
H2_2 C4_2 1_555 1_555
C5_2 C4_2 1_555 1_555
C10_3 C5_2 1_555 1_555
C16_3 C27_3 1_555 1_555
H6_3 C17_3 1_555 1_555
C21_3 C14_3 1_555 1_555
H8_3 C21_3 1_555 1_555
C25_3 O11_3 1_555 1_555
C26_3 C2_3 1_555 1_555
H14_2 C26_3 1_555 1_555
C28_4 C19_4 1_555 1_555
C29_4 C28_4 1_555 1_555
H15_4 C29_4 1_555 1_555
C30_4 C29_4 1_555 1_555
H16_4 C30_4 1_555 1_555
C31_4 C30_4 1_555 1_555
H17_4 C31_4 1_555 1_555
C32_4 C31_4 1_555 1_555
C33_4 C28_4 1_555 1_555
C36_3 C10_3 1_555 1_555
H20_3 C36_3 1_555 1_555
H21_3 C36_3 1_555 1_555
H22_3 C36_3 1_555 1_555
F1_4 C33_4 1_555 1_555
C38_3 C27_3 1_555 1_555
H26_3 C38_3 1_555 1_555
C40_3 C25_3 1_555 1_555
H30_2 C40_3 1_555 1_555
F2_4 C32_4 1_555 1_555
C17_3 C26_3 1_555 1_555
C32_4 C33_4 1_555 1_555
C38_3 C40_3 1_555 1_555
O12_2 C20_3 1_555 1_555
O15_2 C20_3 1_555 1_555
O9_3 C12_3 1_555 1_555
H1_3 C4_3 1_555 1_555
H2_3 C4_3 1_555 1_555
C5_3 C4_3 1_555 1_555
C6_3 C5_3 1_555 1_555
C7_3 C6_3 1_555 1_555
C8_3 C7_3 1_555 1_555
C9_3 C8_3 1_555 1_555
C11_3 H3_3 1_555 1_555
C12_3 C11_3 1_555 1_555
C13_3 H4_3 1_555 1_555
C15_3 C13_3 1_555 1_555
C18_3 C11_3 1_555 1_555
H7_3 C18_3 1_555 1_555
C20_3 C15_3 1_555 1_555
C23_3 O9_3 1_555 1_555
H11_3 C23_3 1_555 1_555
H12_3 C23_3 1_555 1_555
C24_3 C12_3 1_555 1_555
H13_3 C24_3 1_555 1_555
C37_3 C8_3 1_555 1_555
H23_3 C37_3 1_555 1_555
H24_3 C37_3 1_555 1_555
H25_3 C37_3 1_555 1_555
C39_3 C6_3 1_555 1_555
H27_3 C39_3 1_555 1_555
H28_3 C39_3 1_555 1_555
H29_3 C39_3 1_555 1_555
C7_3 C23_3 1_555 1_555
C13_3 C24_3 1_555 1_555
C15_3 C18_3 1_555 1_555
O5_4 In1_2 1_555 1_555
O7_4 In1_2 1_555 1_555
O10_4 In1_2 1_555 1_555
C19_5 O7_4 1_555 1_555
C28_5 C19_5 1_555 1_555
C29_5 C28_5 1_555 1_555
H15_5 C29_5 1_555 1_555
C30_5 C29_5 1_555 1_555
H16_5 C30_5 1_555 1_555
C31_5 C30_5 1_555 1_555
H17_5 C31_5 1_555 1_555
C32_5 C31_5 1_555 1_555
C33_5 C28_5 1_555 1_555
F1_5 C33_5 1_555 1_555
F2_5 C32_5 1_555 1_555
O12_3 In1_2 1_555 1_555
O13_3 In1_2 1_555 1_555
O14_3 In1_2 1_555 1_555
O15_3 In1_2 1_555 1_555
O10_4 C19_5 1_555 1_555
C32_5 C33_5 1_555 1_555
O1_4 C2_4 1_555 1_555
O13_3 C16_4 1_555 1_555
O14_3 C16_4 1_555 1_555
C2_4 C21_4 1_555 1_555
C16_4 C27_4 1_555 1_555
H6_4 C17_4 1_555 1_555
C21_4 C14_4 1_555 1_555
H8_4 C21_4 1_555 1_555
C25_4 O11_4 1_555 1_555
C26_4 C2_4 1_555 1_555
C28_6 C19_6 1_555 1_555
C29_6 C28_6 1_555 1_555
H15_6 C29_6 1_555 1_555
C30_6 C29_6 1_555 1_555
H16_6 C30_6 1_555 1_555
C31_6 C30_6 1_555 1_555
H17_6 C31_6 1_555 1_555
C32_6 C31_6 1_555 1_555
C33_6 C28_6 1_555 1_555
C36_4 C10_4 1_555 1_555
H20_4 C36_4 1_555 1_555
H21_4 C36_4 1_555 1_555
H22_4 C36_4 1_555 1_555
F1_6 C33_6 1_555 1_555
C38_4 C27_4 1_555 1_555
H26_4 C38_4 1_555 1_555
C40_4 C25_4 1_555 1_555
F2_6 C32_6 1_555 1_555
C17_4 C26_4 1_555 1_555
C32_6 C33_6 1_555 1_555
C38_4 C40_4 1_555 1_555
O2_2 C20_4 1_555 1_555
O8_2 C20_4 1_555 1_555
O9_4 C12_4 1_555 1_555
C7_4 C6_4 1_555 1_555
C8_4 C7_4 1_555 1_555
C9_4 C8_4 1_555 1_555
C11_4 H3_4 1_555 1_555
C12_4 C11_4 1_555 1_555
C13_4 H4_4 1_555 1_555
C15_4 C13_4 1_555 1_555
C18_4 C11_4 1_555 1_555
H7_4 C18_4 1_555 1_555
C20_4 C15_4 1_555 1_555
C23_4 O9_4 1_555 1_555
H11_4 C23_4 1_555 1_555
H12_4 C23_4 1_555 1_555
C24_4 C12_4 1_555 1_555
H13_4 C24_4 1_555 1_555
C37_4 C8_4 1_555 1_555
H23_4 C37_4 1_555 1_555
H24_4 C37_4 1_555 1_555
H25_4 C37_4 1_555 1_555
C39_4 C6_4 1_555 1_555
H27_4 C39_4 1_555 1_555
H28_4 C39_4 1_555 1_555
In3_2 O2_2 1_555 1_555
O8_2 In3_2 1_555 1_555
C7_4 C23_4 1_555 1_555
C13_4 C24_4 1_555 1_555
C15_4 C18_4 1_555 1_555
O1_5 C2_5 1_555 1_555
O12_3 C20_5 1_555 1_555
O3_3 C3_3 1_555 1_555
O4_2 C16_5 1_555 1_555
O6_2 C16_5 1_555 1_555
O15_3 C20_5 1_555 1_555
O9_5 C12_5 1_555 1_555
O11_5 C22_2 1_555 1_555
C1_3 C3_3 1_555 1_555
C2_5 C21_5 1_555 1_555
C4_4 O1_5 1_555 1_555
H1_4 C4_4 1_555 1_555
H2_4 C4_4 1_555 1_555
C5_4 C4_4 1_555 1_555
C6_5 C5_4 1_555 1_555
C7_5 C6_5 1_555 1_555
C8_5 C7_5 1_555 1_555
C9_5 C8_5 1_555 1_555
C10_5 C5_4 1_555 1_555
C11_5 H3_5 1_555 1_555
C12_5 C11_5 1_555 1_555
C13_5 H4_5 1_555 1_555
C14_5 C1_3 1_555 1_555
H5_3 C14_5 1_555 1_555
C15_5 C13_5 1_555 1_555
C16_5 C27_5 1_555 1_555
C17_5 C1_3 1_555 1_555
H6_5 C17_5 1_555 1_555
C18_5 C11_5 1_555 1_555
H7_5 C18_5 1_555 1_555
C20_5 C15_5 1_555 1_555
C21_5 C14_5 1_555 1_555
H8_5 C21_5 1_555 1_555
C22_2 C9_5 1_555 1_555
H9_2 C22_2 1_555 1_555
H10_2 C22_2 1_555 1_555
C23_5 O9_5 1_555 1_555
H11_5 C23_5 1_555 1_555
H12_5 C23_5 1_555 1_555
C24_5 C12_5 1_555 1_555
H13_5 C24_5 1_555 1_555
C25_5 O11_5 1_555 1_555
C26_5 C2_5 1_555 1_555
H14_4 C26_5 1_555 1_555
C27_5 C35_2 1_555 1_555
C34_2 C25_5 1_555 1_555
H18_2 C34_2 1_555 1_555
C35_2 C34_2 1_555 1_555
H19_2 C35_2 1_555 1_555
C36_5 C10_5 1_555 1_555
H20_5 C36_5 1_555 1_555
H21_5 C36_5 1_555 1_555
H22_5 C36_5 1_555 1_555
C37_5 C8_5 1_555 1_555
H23_5 C37_5 1_555 1_555
H24_5 C37_5 1_555 1_555
H25_5 C37_5 1_555 1_555
C38_5 C27_5 1_555 1_555
H26_5 C38_5 1_555 1_555
C39_5 C6_5 1_555 1_555
H27_5 C39_5 1_555 1_555
H28_5 C39_5 1_555 1_555
H29_4 C39_5 1_555 1_555
C40_5 C25_5 1_555 1_555
H30_4 C40_5 1_555 1_555
In3_2 O4_2 1_555 1_555
O6_2 In3_2 1_555 1_555
C7_5 C23_5 1_555 1_555
C9_5 C10_5 1_555 1_555
C13_5 C24_5 1_555 1_555
C15_5 C18_5 1_555 1_555
C17_5 C26_5 1_555 1_555
C38_5 C40_5 1_555 1_555
In3_2 O3_4 1_555 1_555
O3_4 C3_4 1_555 1_555
O5_5 In3_2 1_555 1_555
O7_5 In3_2 1_555 1_555
O10_5 In3_2 1_555 1_555
C1_4 C3_4 1_555 1_555
C3_4 O5_5 1_555 1_555
O2_3 C20_6 1_555 1_555
O8_3 C20_6 1_555 1_555
O9_6 C12_6 1_555 1_555
H1_5 C4_5 1_555 1_555
H2_5 C4_5 1_555 1_555
C5_5 C4_5 1_555 1_555
C6_6 C5_5 1_555 1_555
C7_6 C6_6 1_555 1_555
C8_6 C7_6 1_555 1_555
C9_6 C8_6 1_555 1_555
C11_6 H3_6 1_555 1_555
C12_6 C11_6 1_555 1_555
C13_6 H4_6 1_555 1_555
C15_6 C13_6 1_555 1_555
C18_6 C11_6 1_555 1_555
H7_6 C18_6 1_555 1_555
C20_6 C15_6 1_555 1_555
C23_6 O9_6 1_555 1_555
H11_6 C23_6 1_555 1_555
H12_6 C23_6 1_555 1_555
C24_6 C12_6 1_555 1_555
H13_6 C24_6 1_555 1_555
C37_6 C8_6 1_555 1_555
H23_6 C37_6 1_555 1_555
H24_6 C37_6 1_555 1_555
H25_6 C37_6 1_555 1_555
C39_6 C6_6 1_555 1_555
H27_6 C39_6 1_555 1_555
H28_6 C39_6 1_555 1_555
H29_5 C39_6 1_555 1_555
In3_3 O2_3 1_555 1_555
O8_3 In3_3 1_555 1_555
C7_6 C23_6 1_555 1_555
C13_6 C24_6 1_555 1_555
C15_6 C18_6 1_555 1_555
O5_6 In3_3 1_555 1_555
O7_6 In3_3 1_555 1_555
O10_6 In3_3 1_555 1_555
C19_7 O7_6 1_555 1_555
C28_7 C19_7 1_555 1_555
C29_7 C28_7 1_555 1_555
H15_7 C29_7 1_555 1_555
C30_7 C29_7 1_555 1_555
H16_7 C30_7 1_555 1_555
C31_7 C30_7 1_555 1_555
H17_7 C31_7 1_555 1_555
C32_7 C31_7 1_555 1_555
C33_7 C28_7 1_555 1_555
F1_7 C33_7 1_555 1_555
F2_7 C32_7 1_555 1_555
O13_4 In3_3 1_555 1_555
O14_4 In3_3 1_555 1_555
O10_6 C19_7 1_555 1_555
C32_7 C33_7 1_555 1_555
O1_6 C2_6 1_555 1_555
O13_4 C16_6 1_555 1_555
O14_4 C16_6 1_555 1_555
C2_6 C21_6 1_555 1_555
C4_6 O1_6 1_555 1_555
H1_6 C4_6 1_555 1_555
H2_6 C4_6 1_555 1_555
C5_6 C4_6 1_555 1_555
C10_6 C5_6 1_555 1_555
C16_6 C27_6 1_555 1_555
H6_6 C17_6 1_555 1_555
C21_6 C14_6 1_555 1_555
H8_6 C21_6 1_555 1_555
C25_6 O11_6 1_555 1_555
C26_6 C2_6 1_555 1_555
H14_6 C26_6 1_555 1_555
C28_8 C19_8 1_555 1_555
C29_8 C28_8 1_555 1_555
H15_8 C29_8 1_555 1_555
C30_8 C29_8 1_555 1_555
H16_8 C30_8 1_555 1_555
C31_8 C30_8 1_555 1_555
H17_8 C31_8 1_555 1_555
C32_8 C31_8 1_555 1_555
C33_8 C28_8 1_555 1_555
C36_6 C10_6 1_555 1_555
H20_6 C36_6 1_555 1_555
H21_6 C36_6 1_555 1_555
H22_6 C36_6 1_555 1_555
F1_8 C33_8 1_555 1_555
C38_6 C27_6 1_555 1_555
H26_6 C38_6 1_555 1_555
C40_6 C25_6 1_555 1_555
H30_6 C40_6 1_555 1_555
F2_8 C32_8 1_555 1_555
C17_6 C26_6 1_555 1_555
C32_8 C33_8 1_555 1_555
C38_6 C40_6 1_555 1_555
O1_7 C2_7 1_555 1_555
O3_5 C3_5 1_555 1_555
O4_3 C16_7 1_555 1_555
O6_3 C16_7 1_555 1_555
O11_7 C22_3 1_555 1_555
C1_5 C3_5 1_555 1_555
C2_7 C21_7 1_555 1_555
C14_7 C1_5 1_555 1_555
H5_5 C14_7 1_555 1_555
C16_7 C27_7 1_555 1_555
C17_7 C1_5 1_555 1_555
H6_7 C17_7 1_555 1_555
C21_7 C14_7 1_555 1_555
H8_7 C21_7 1_555 1_555
H9_3 C22_3 1_555 1_555
H10_3 C22_3 1_555 1_555
C25_7 O11_7 1_555 1_555
C26_7 C2_7 1_555 1_555
C27_7 C35_3 1_555 1_555
C34_3 C25_7 1_555 1_555
H18_3 C34_3 1_555 1_555
C35_3 C34_3 1_555 1_555
H19_3 C35_3 1_555 1_555
C36_7 C10_7 1_555 1_555
H20_7 C36_7 1_555 1_555
H21_7 C36_7 1_555 1_555
H22_7 C36_7 1_555 1_555
C38_7 C27_7 1_555 1_555
H26_7 C38_7 1_555 1_555
C40_7 C25_7 1_555 1_555
In2_2 O4_3 1_555 1_555
O6_3 In2_2 1_555 1_555
C17_7 C26_7 1_555 1_555
C38_7 C40_7 1_555 1_555
In2_2 O3_6 1_555 1_555
O3_6 C3_6 1_555 1_555
O5_7 In2_2 1_555 1_555
O7_7 In2_2 1_555 1_555
O10_7 In2_2 1_555 1_555
C1_6 C3_6 1_555 1_555
C3_6 O5_7 1_555 1_555
O12_4 In2_2 1_555 1_555
O15_4 In2_2 1_555 1_555
O12_4 C20_7 1_555 1_555
O15_4 C20_7 1_555 1_555
O9_7 C12_7 1_555 1_555
C7_7 C6_7 1_555 1_555
C8_7 C7_7 1_555 1_555
C9_7 C8_7 1_555 1_555
C11_7 H3_7 1_555 1_555
C12_7 C11_7 1_555 1_555
C13_7 H4_7 1_555 1_555
C15_7 C13_7 1_555 1_555
C18_7 C11_7 1_555 1_555
H7_7 C18_7 1_555 1_555
C20_7 C15_7 1_555 1_555
C22_4 C9_7 1_555 1_555
H9_4 C22_4 1_555 1_555
H10_4 C22_4 1_555 1_555
C23_7 O9_7 1_555 1_555
H11_7 C23_7 1_555 1_555
H12_7 C23_7 1_555 1_555
C24_7 C12_7 1_555 1_555
H13_7 C24_7 1_555 1_555
H18_4 C34_4 1_555 1_555
C35_4 C34_4 1_555 1_555
H19_4 C35_4 1_555 1_555
C37_7 C8_7 1_555 1_555
H23_7 C37_7 1_555 1_555
H24_7 C37_7 1_555 1_555
H25_7 C37_7 1_555 1_555
C39_7 C6_7 1_555 1_555
H27_7 C39_7 1_555 1_555
H28_7 C39_7 1_555 1_555
C7_7 C23_7 1_555 1_555
C13_7 C24_7 1_555 1_555
C15_7 C18_7 1_555 1_555
O2_4 C20_8 1_555 1_555
O8_4 C20_8 1_555 1_555
O9_8 C12_8 1_555 1_555
C7_8 C6_8 1_555 1_555
C8_8 C7_8 1_555 1_555
C9_8 C8_8 1_555 1_555
C11_8 H3_8 1_555 1_555
C12_8 C11_8 1_555 1_555
C13_8 H4_8 1_555 1_555
C15_8 C13_8 1_555 1_555
C18_8 C11_8 1_555 1_555
H7_8 C18_8 1_555 1_555
C20_8 C15_8 1_555 1_555
C22_5 C9_8 1_555 1_555
H9_5 C22_5 1_555 1_555
H10_5 C22_5 1_555 1_555
C23_8 O9_8 1_555 1_555
H11_8 C23_8 1_555 1_555
H12_8 C23_8 1_555 1_555
C24_8 C12_8 1_555 1_555
H13_8 C24_8 1_555 1_555
H18_5 C34_5 1_555 1_555
C35_5 C34_5 1_555 1_555
H19_5 C35_5 1_555 1_555
C37_8 C8_8 1_555 1_555
H23_8 C37_8 1_555 1_555
H24_8 C37_8 1_555 1_555
H25_8 C37_8 1_555 1_555
C39_8 C6_8 1_555 1_555
H27_8 C39_8 1_555 1_555
H28_8 C39_8 1_555 1_555
In3_4 O2_4 1_555 1_555
O8_4 In3_4 1_555 1_555
C7_8 C23_8 1_555 1_555
C13_8 C24_8 1_555 1_555
C15_8 C18_8 1_555 1_555
O1_8 C2_8 1_555 1_555
O3_7 C3_7 1_555 1_555
O4_4 C16_8 1_555 1_555
O6_4 C16_8 1_555 1_555
O11_8 C22_6 1_555 1_555
C1_7 C3_7 1_555 1_555
C2_8 C21_8 1_555 1_555
C14_8 C1_7 1_555 1_555
H5_7 C14_8 1_555 1_555
C16_8 C27_8 1_555 1_555
C17_8 C1_7 1_555 1_555
H6_8 C17_8 1_555 1_555
C21_8 C14_8 1_555 1_555
H8_8 C21_8 1_555 1_555
H9_6 C22_6 1_555 1_555
H10_6 C22_6 1_555 1_555
C25_8 O11_8 1_555 1_555
C26_8 C2_8 1_555 1_555
C27_8 C35_6 1_555 1_555
C34_6 C25_8 1_555 1_555
H18_6 C34_6 1_555 1_555
C35_6 C34_6 1_555 1_555
H19_6 C35_6 1_555 1_555
C36_8 C10_8 1_555 1_555
H20_8 C36_8 1_555 1_555
H21_8 C36_8 1_555 1_555
H22_8 C36_8 1_555 1_555
C38_8 C27_8 1_555 1_555
H26_8 C38_8 1_555 1_555
C40_8 C25_8 1_555 1_555
In3_4 O4_4 1_555 1_555
O6_4 In3_4 1_555 1_555
C17_8 C26_8 1_555 1_555
C38_8 C40_8 1_555 1_555
In3_4 O3_8 1_555 1_555
O3_8 C3_8 1_555 1_555
O5_8 In3_4 1_555 1_555
O7_8 In3_4 1_555 1_555
O10_8 In3_4 1_555 1_555
C1_8 C3_8 1_555 1_555
C3_8 O5_8 1_555 1_555
H1_7 C4_7 1_555 1_555
H2_7 C4_7 1_555 1_555
C5_7 C4_7 1_555 1_555
H9_7 C22_7 1_555 1_555
H10_7 C22_7 1_555 1_555
H18_7 C34_7 1_555 1_555
C35_7 C34_7 1_555 1_555
H19_7 C35_7 1_555 1_555
H9_8 C22_8 1_555 1_555
H10_8 C22_8 1_555 1_555
H18_8 C34_8 1_555 1_555
C35_8 C34_8 1_555 1_555
H19_8 C35_8 1_555 1_555
H1_8 C4_8 1_555 1_555
H2_8 C4_8 1_555 1_555
C5_8 C4_8 1_555 1_555

#END
