
###############################################################################
#
# This file contains modified crystal structure data generated from the
# MOF subset of the Cambridge Structural Database (CSD) v543 
# hosted by the Cambridge Crystallographic Data Centre (CCDC).
#
# This work is licensed under the Creative Commons
# Attribution-NonCommercial-ShareAlike 4.0 International License.
# To view a copy of this license, visit
# http://creativecommons.org/licenses/by-nc-sa/4.0/
# or send a letter to
# Creative Commons, PO Box 1866, Mountain View, CA 94042, USA.
#
# CIF created using the CSD Python API on 29 September 2022
# The structure has been converted into the P1 space group
# The structure has a 3D framework
# The original CSD entry EKEHUZ is in the trigonal crystal system
# The original CSD entry EKEHUZ is in a Sohncke space group
# The framework has been calculated to contain at least 10.0% void space
# The void calculation uses a probe of radius 1.32A, grid spacing 0.4
#
###############################################################################

data_EKEHUZ
_chemical_formula_moiety         '(C18 H42 N6 O14 P6 Zn6)n'
_symmetry_cell_setting           triclinic
_symmetry_space_group_name_H-M   'P 1'
_symmetry_Int_Tables_number      1
_space_group_name_Hall           'P 1'
loop_
_symmetry_equiv_pos_site_id
_symmetry_equiv_pos_as_xyz
1 x,y,z
_cell_length_a                   10.19880(10)
_cell_length_b                   10.19880(10)
_cell_length_c                   13.4856(3)
_cell_angle_alpha                90
_cell_angle_beta                 90
_cell_angle_gamma                120
_cell_volume                     1214.78
loop_
_atom_site_label
_atom_site_type_symbol
_atom_site_fract_x
_atom_site_fract_y
_atom_site_fract_z
Zn1 Zn 0.22732(14) 0.58716(14) 0.41483(8)
P1 P 0.1124(3) 0.4730(4) 0.1887(2)
H1 H 0.0849 0.3328 0.1956
O1 O 0.2116(10) 0.5569(10) 0.2735(5)
O3 O 0.1955(9) 0.5350(13) 0.0919(5)
N1 N 0.3440(10) 0.4810(9) 0.4674(6)
C1 C 0.5075(16) 0.5893(17) 0.4824(15)
H2 H 0.5198 0.6645 0.5312
H3 H 0.5519 0.6412 0.4206
C2 C 0.2847(16) 0.4128(17) 0.5653(8)
H4 H 0.1765 0.3433 0.5604
H5 H 0.3008 0.4917 0.6122
C3 C 0.3280(15) 0.3628(16) 0.3972(8)
H6 H 0.3678 0.4082 0.3330
H7 H 0.2216 0.2885 0.3891
N2 N 0.4810(9) 0.3440(10) 0.5326(6)
C4 C 0.5893(17) 0.5075(16) 0.5176(15)
H8 H 0.6645 0.5198 0.4688
H9 H 0.6412 0.5519 0.5794
C5 C 0.4128(17) 0.2847(16) 0.4347(8)
H10 H 0.3433 0.1765 0.4396
H11 H 0.4917 0.3008 0.3878
C6 C 0.3628(16) 0.3280(15) 0.6028(8)
H12 H 0.4082 0.3678 0.6670
H13 H 0.2885 0.2216 0.6109
Zn2 Zn 0.58716(14) 0.22732(14) 0.58517(8)
P2 P 0.4730(4) 0.1124(3) 0.8113(2)
H14 H 0.3328 0.0849 0.8044
O4 O 0.5569(10) 0.2116(10) 0.7265(5)
O6 O 0.5350(13) 0.1955(9) 0.9081(5)
Zn3 Zn 0.41284(14) 0.64016(20) 0.08150(8)
Zn5 Zn 0.64016(20) 0.41284(14) 0.91850(8)
O7 O 0.5007(15) 0.0358(9) 0.5185(7)
O8 O 0.0358(9) 0.5007(15) 0.4815(7)
O9 O 0.3395(16) 0.8045(9) 0.4252(5)
O10 O 0.8045(9) 0.3395(16) 0.5748(5)
O5 O 0.4649(12) 0.9642(9) 0.8148(7)
Zn4 Zn 0.35984(20) 0.77268(14) 0.74816(8)
O2 O 0.9642(9) 0.4649(12) 0.1852(7)
Zn6 Zn 0.77268(14) 0.35984(20) 0.25184(8)
N2_2 N 0.6560(10) 0.1370(13) 0.1993(6)
C4_2 C 0.4925(16) 0.0818(23) 0.1843(15)
H8_2 H 0.4802 0.1447 0.1355
H9_2 H 0.4481 0.0893 0.2461
C5_2 C 0.7153(16) 0.1281(23) 0.1014(8)
H10_2 H 0.8235 0.1668 0.1063
H11_2 H 0.6992 0.1909 0.0545
C6_2 C 0.6720(15) 0.0348(22) 0.2695(8)
H12_2 H 0.6322 0.0404 0.3337
H13_2 H 0.7784 0.0669 0.2776
P2_2 P 0.8876(3) 0.3606(5) 0.4780(2)
H14_2 H 0.9151 0.2479 0.4711
O4_2 O 0.7884(10) 0.3453(14) 0.3932(5)
O10_2 O 0.6605(16) 0.4650(18) 0.2414(5)
N1_2 N 0.5190(9) 0.8630(13) 0.1341(6)
C1_2 C 0.4107(17) 0.9182(23) 0.1491(15)
H2_2 H 0.3355 0.8553 0.1979
H3_2 H 0.3588 0.9107 0.0873
C2_2 C 0.5872(17) 0.8719(23) 0.2320(8)
H4_2 H 0.6567 0.8332 0.2271
H5_2 H 0.5083 0.8091 0.2789
C3_2 C 0.6372(16) 0.9652(22) 0.0639(8)
H7_2 H 0.7115 0.9331 0.0558
O8_2 O 0.4993(15) 0.5351(17) 0.1481(7)
P1_2 P 0.5270(4) 0.6394(5) 0.8554(2)
H1_2 H 0.6672 0.7521 0.8623
O1_2 O 0.4431(10) 0.6547(14) 0.9402(5)
O2_2 O 0.5351(12) 0.4993(15) 0.8519(7)
O3_2 O 0.4650(13) 0.6605(16) 0.7586(5)
H6_2 H 0.5918 0.9596 0.9997
P1_3 P 0.3606(5) 0.8876(3) 0.5220(2)
H1_3 H 0.2479 0.9151 0.5289
O1_3 O 0.3453(14) 0.7884(10) 0.6068(5)
N1_3 N 0.1370(13) 0.6560(10) 0.8007(6)
C1_3 C 0.0818(23) 0.4925(16) 0.8157(15)
H2_3 H 0.1447 0.4802 0.8645
H3_3 H 0.0893 0.4481 0.7539
C2_3 C 0.1281(23) 0.7153(16) 0.8986(8)
H4_3 H 0.1668 0.8235 0.8937
H5_3 H 0.1909 0.6992 0.9455
C3_3 C 0.0348(22) 0.6720(15) 0.7305(8)
H6_3 H 0.0404 0.6322 0.6663
H7_3 H 0.0669 0.7784 0.7224
H12_3 H 0.9596 0.5918 0.0003
P2_3 P 0.6394(5) 0.5270(4) 0.1446(2)
H14_3 H 0.7521 0.6672 0.1377
O4_3 O 0.6547(14) 0.4431(10) 0.0598(5)
N2_3 N 0.8630(13) 0.5190(9) 0.8659(6)
C4_3 C 0.9182(23) 0.4107(17) 0.8509(15)
H8_3 H 0.8553 0.3355 0.8021
H9_3 H 0.9107 0.3588 0.9127
C5_3 C 0.8719(23) 0.5872(17) 0.7680(8)
H10_3 H 0.8332 0.6567 0.7729
H11_3 H 0.8091 0.5083 0.7211
C6_3 C 0.9652(22) 0.6372(16) 0.9361(8)
H13_3 H 0.9331 0.7115 0.9442
loop_
_geom_bond_atom_site_label_1
_geom_bond_atom_site_label_2
_geom_bond_site_symmetry_1
_geom_bond_site_symmetry_2
Zn1 O1 1_555 1_555
P1 H1 1_555 1_555
O1 P1 1_555 1_555
O3 P1 1_555 1_555
N1 Zn1 1_555 1_555
C1 N1 1_555 1_555
H2 C1 1_555 1_555
H3 C1 1_555 1_555
C2 N1 1_555 1_555
H4 C2 1_555 1_555
H5 C2 1_555 1_555
C3 N1 1_555 1_555
H6 C3 1_555 1_555
H7 C3 1_555 1_555
N2 C4 1_555 1_555
C4 C1 1_555 1_555
H8 C4 1_555 1_555
H9 C4 1_555 1_555
C5 C3 1_555 1_555
H10 C5 1_555 1_555
H11 C5 1_555 1_555
C6 C2 1_555 1_555
H12 C6 1_555 1_555
H13 C6 1_555 1_555
Zn2 N2 1_555 1_555
P2 H14 1_555 1_555
O4 Zn2 1_555 1_555
O6 P2 1_555 1_555
Zn3 O3 1_555 1_555
Zn5 O6 1_555 1_555
O7 Zn2 1_555 1_555
O8 Zn1 1_555 1_555
O9 Zn1 1_555 1_555
O10 Zn2 1_555 1_555
N2 C5 1_555 1_555
N2 C6 1_555 1_555
P2 O4 1_555 1_555
Zn4 O5 1_555 1_555
Zn6 O2 1_555 1_555
N2_2 C4_2 1_555 1_555
H8_2 C4_2 1_555 1_555
H9_2 C4_2 1_555 1_555
H10_2 C5_2 1_555 1_555
H11_2 C5_2 1_555 1_555
H12_2 C6_2 1_555 1_555
H13_2 C6_2 1_555 1_555
Zn6 N2_2 1_555 1_555
P2_2 H14_2 1_555 1_555
O4_2 Zn6 1_555 1_555
O10 P2_2 1_555 1_555
O10_2 Zn6 1_555 1_555
N2_2 C5_2 1_555 1_555
N2_2 C6_2 1_555 1_555
P2_2 O4_2 1_555 1_555
N1_2 Zn3 1_555 1_555
C1_2 N1_2 1_555 1_555
H2_2 C1_2 1_555 1_555
H3_2 C1_2 1_555 1_555
C2_2 N1_2 1_555 1_555
H4_2 C2_2 1_555 1_555
H5_2 C2_2 1_555 1_555
C3_2 N1_2 1_555 1_555
H7_2 C3_2 1_555 1_555
O8_2 Zn3 1_555 1_555
P1_2 H1_2 1_555 1_555
O1_2 P1_2 1_555 1_555
O2_2 P1_2 1_555 1_555
O3_2 P1_2 1_555 1_555
Zn4 O3_2 1_555 1_555
Zn5 O2_2 1_555 1_555
Zn4 O1_3 1_555 1_555
P1_3 H1_3 1_555 1_555
O1_3 P1_3 1_555 1_555
O9 P1_3 1_555 1_555
N1_3 Zn4 1_555 1_555
C1_3 N1_3 1_555 1_555
H2_3 C1_3 1_555 1_555
H3_3 C1_3 1_555 1_555
C2_3 N1_3 1_555 1_555
H4_3 C2_3 1_555 1_555
H5_3 C2_3 1_555 1_555
C3_3 N1_3 1_555 1_555
H6_3 C3_3 1_555 1_555
H7_3 C3_3 1_555 1_555
P2_3 H14_3 1_555 1_555
O8_2 P2_3 1_555 1_555
O10_2 P2_3 1_555 1_555
P2_3 O4_3 1_555 1_555
N2_3 C4_3 1_555 1_555
H8_3 C4_3 1_555 1_555
H9_3 C4_3 1_555 1_555
H10_3 C5_3 1_555 1_555
H11_3 C5_3 1_555 1_555
H13_3 C6_3 1_555 1_555
Zn5 N2_3 1_555 1_555
N2_3 C5_3 1_555 1_555
N2_3 C6_3 1_555 1_555

#END
