
###############################################################################
#
# This file contains modified crystal structure data generated from the
# MOF subset of the Cambridge Structural Database (CSD) v543 
# hosted by the Cambridge Crystallographic Data Centre (CCDC).
#
# This work is licensed under the Creative Commons
# Attribution-NonCommercial-ShareAlike 4.0 International License.
# To view a copy of this license, visit
# http://creativecommons.org/licenses/by-nc-sa/4.0/
# or send a letter to
# Creative Commons, PO Box 1866, Mountain View, CA 94042, USA.
#
# CIF created using the CSD Python API on 29 September 2022
# The structure has been converted into the P1 space group
# The structure has a 3D framework
# The original CSD entry EKEQIV is in the monoclinic crystal system
# The framework has been calculated to contain at least 10.0% void space
# The void calculation uses a probe of radius 1.32A, grid spacing 0.4
# H atom positions have been added when not included in the experimental data
# Generated hydrogen atom positions removed from atoms on special positions
#
###############################################################################

data_EKEQIV
_chemical_formula_moiety         '(C56 H68 Cu4 Mo16 N16 O56)n'
_symmetry_cell_setting           triclinic
_symmetry_space_group_name_H-M   'P 1'
_symmetry_Int_Tables_number      1
_space_group_name_Hall           'P 1'
loop_
_symmetry_equiv_pos_site_id
_symmetry_equiv_pos_as_xyz
1 x,y,z
_cell_length_a                   9.618(3)
_cell_length_b                   13.996(4)
_cell_length_c                   19.842(6)
_cell_angle_alpha                90
_cell_angle_beta                 99.182(4)
_cell_angle_gamma                90
_cell_volume                     2636.78
loop_
_atom_site_label
_atom_site_type_symbol
_atom_site_fract_x
_atom_site_fract_y
_atom_site_fract_z
H2 H 0.8964 0.0638 0.2371
C3 C 0.6927(12) 0.0733(8) 0.1971(5)
H3 H 0.6763 0.0083 0.1904
H4 H 0.4931 0.1206 0.1602
C6 C 0.5155(11) 0.3155(7) 0.1737(5)
C8 C 0.3353(12) 0.4152(7) 0.1529(6)
H6 H 0.2445 0.4399 0.1435
C9 C 0.2694(11) 0.2424(7) 0.1543(5)
H7 H 0.2902 0.1955 0.1213
H8 H 0.1764 0.2681 0.1382
C10 C 0.2696(10) 0.1931(7) 0.2239(5)
C11 C 0.3002(12) 0.2420(8) 0.2844(6)
H9 H 0.3234 0.3066 0.2852
C12 C 0.2952(12) 0.1916(8) 0.3449(6)
H10 H 0.3140 0.2220 0.3871
C13 C 0.2619(12) 0.0958(7) 0.3406(6)
H11 H 0.2578 0.0623 0.3807
C14 C 0.2410(10) 0.0976(7) 0.2246(5)
H12 H 0.2247 0.0652 0.1832
N3 N 0.3726(9) 0.3193(6) 0.1587(4)
N4 N 0.2352(9) 0.0490(6) 0.2812(4)
Cu3 Cu 0.76938(13) 0.40795(9) 0.21875(7)
C15 C 0.8443(11) 0.2015(8) 0.2335(6)
H13 H 0.9336 0.2225 0.2528
C16 C 0.8226(12) 0.1065(7) 0.2246(5)
C18 C 0.5830(12) 0.1408(8) 0.1791(6)
C19 C 0.6113(10) 0.2369(7) 0.1898(5)
C21 C 0.4598(11) 0.4668(8) 0.1637(6)
H17 H 0.4679 0.5330 0.1625
N6 N 0.7437(9) 0.2663(6) 0.2159(4)
N8 N 0.5690(9) 0.4031(5) 0.1768(4)
O24 O 0.3383(6) 0.0492(5) 0.0676(3)
Mo5 Mo 0.29947(8) 0.09502(6) 0.98384(4)
Mo7 Mo 0.00880(8) 0.11861(6) 0.87888(4)
Mo10 Mo 0.63966(8) 0.11074(6) 0.92142(4)
O15 O 0.2994(7) 0.2138(5) 0.9983(3)
O16 O 0.1992(6) 0.0961(4) 0.8845(3)
O17 O 0.0838(6) 0.0771(4) 0.9857(3)
O18 O 0.0093(7) 0.2396(5) 0.8854(3)
O29 O 0.4633(6) 0.0759(5) 0.9490(3)
Cu1 Cu 0.23062(13) 0.90795(9) 0.28125(7)
Mo4 Mo 0.36034(8) 0.88926(6) 0.07858(4)
O5 O 0.0684(7) 0.9024(5) 0.2055(3)
O6 O 0.1538(6) 0.8997(4) 0.0719(3)
O11 O 0.3999(7) 0.9006(5) 0.1644(3)
O12 O 0.3706(8) 0.7703(5) 0.0646(4)
O14 O 0.0910(10) 0.8986(6) 0.3659(4)
N5 N 0.2563(9) 0.7663(6) 0.2841(4)
N7 N 0.4310(9) 0.9031(5) 0.3232(4)
O27 O 0.5367(6) 0.9241(5) 0.0510(3)
C1 C 0.8443(11) 0.2985(8) 0.7335(6)
H1 H 0.9336 0.2775 0.7528
C2 C 0.8226(12) 0.3935(7) 0.7246(5)
C4 C 0.5830(12) 0.3592(8) 0.6791(6)
C5 C 0.6113(10) 0.2631(7) 0.6898(5)
C7 C 0.4598(11) 0.0332(8) 0.6637(6)
N1 N 0.7437(9) 0.2337(6) 0.7159(4)
N2 N 0.5690(9) 0.0969(5) 0.6768(4)
Cu2 Cu 0.76938(13) 0.09205(9) 0.71875(7)
Cu4 Cu 0.23062(13) 0.59205(9) 0.78125(7)
H14 H 0.8964 0.4362 0.7371
C17 C 0.6927(12) 0.4267(8) 0.6971(5)
H15 H 0.6763 0.4917 0.6904
H16 H 0.4931 0.3794 0.6602
C20 C 0.5155(11) 0.1845(7) 0.6737(5)
C22 C 0.3353(12) 0.0848(7) 0.6529(6)
H18 H 0.2445 0.0601 0.6435
C23 C 0.2694(11) 0.2576(7) 0.6543(5)
H19 H 0.2902 0.3045 0.6213
H20 H 0.1764 0.2319 0.6382
C24 C 0.2696(10) 0.3069(7) 0.7239(5)
C25 C 0.3002(12) 0.2580(8) 0.7844(6)
H21 H 0.3234 0.1934 0.7852
C26 C 0.2952(12) 0.3084(8) 0.8449(6)
H22 H 0.3140 0.2780 0.8871
C27 C 0.2619(12) 0.4042(7) 0.8406(6)
H23 H 0.2578 0.4377 0.8807
C28 C 0.2410(10) 0.4024(7) 0.7246(5)
H24 H 0.2247 0.4348 0.6832
N9 N 0.3726(9) 0.1807(6) 0.6587(4)
N11 N 0.2352(9) 0.4510(6) 0.7812(4)
O19 O 0.9316(7) 0.0976(5) 0.7945(3)
O20 O 0.8462(6) 0.1003(4) 0.9281(3)
O25 O 0.6001(7) 0.0994(5) 0.8356(3)
O26 O 0.6294(8) 0.2297(5) 0.9354(4)
O30 O 0.9090(10) 0.1014(6) 0.6341(4)
Mo1 Mo 0.70053(8) 0.90498(6) 0.01616(4)
Mo3 Mo 0.99120(8) 0.88139(6) 0.12112(4)
O1 O 0.7006(7) 0.7862(5) 0.0017(3)
O2 O 0.8008(6) 0.9039(4) 0.1155(3)
O3 O 0.9162(6) 0.9229(4) 0.0143(3)
O4 O 0.9907(7) 0.7604(5) 0.1146(3)
H25 H 1.00009 0.931563 0.350419
H5 H 0.4679 0.9670 0.6625
O10 O 0.6617(6) 0.9508(5) 0.9324(3)
N10 N 0.7648(9) 0.9510(6) 0.7188(4)
Mo1_2 Mo 0.29947(8) 0.40498(6) 0.48384(4)
Mo3_2 Mo 0.00880(8) 0.38139(6) 0.37888(4)
C1_2 C 0.1557(11) 0.7985(8) 0.7665(6)
H1_2 H 0.0664 0.7775 0.7472
C2_2 C 0.1774(12) 0.8935(7) 0.7754(5)
C4_2 C 0.4170(12) 0.8592(8) 0.8209(6)
C5_2 C 0.3887(10) 0.7631(7) 0.8102(5)
C7_2 C 0.5402(11) 0.5332(8) 0.8363(6)
H5_2 H 0.5321 0.4670 0.8375
N1_2 N 0.2563(9) 0.7337(6) 0.7841(4)
N2_2 N 0.4310(9) 0.5969(5) 0.8232(4)
O1_2 O 0.2994(7) 0.2862(5) 0.4983(3)
O2_2 O 0.1992(6) 0.4039(4) 0.3845(3)
O3_2 O 0.0838(6) 0.4229(4) 0.4857(3)
O4_2 O 0.0093(7) 0.2604(5) 0.3854(3)
O7 O 0.0003(7) 0.5491(4) 0.3875(3)
O9 O 0.2652(6) 0.5713(4) 0.4700(3)
O10_2 O 0.3383(6) 0.4508(5) 0.5676(3)
O13 O 0.4633(6) 0.4241(5) 0.4490(3)
Mo6 Mo 0.07646(8) 0.60164(5) 0.46418(4)
Mo8 Mo 0.36034(8) 0.61074(6) 0.57858(4)
Mo9 Mo 0.63966(8) 0.38926(6) 0.42142(4)
H14_2 H 0.1036 0.9362 0.7629
C17_2 C 0.3073(12) 0.9267(8) 0.8029(5)
H15_2 H 0.3237 0.9917 0.8096
H16_2 H 0.5069 0.8794 0.8398
C20_2 C 0.4845(11) 0.6845(7) 0.8263(5)
C22_2 C 0.6647(12) 0.5848(7) 0.8471(6)
H18_2 H 0.7555 0.5601 0.8565
C23_2 C 0.7306(11) 0.7576(7) 0.8457(5)
H19_2 H 0.7098 0.8045 0.8787
H20_2 H 0.8236 0.7319 0.8618
C24_2 C 0.7304(10) 0.8069(7) 0.7761(5)
C25_2 C 0.6998(12) 0.7580(8) 0.7156(6)
H21_2 H 0.6766 0.6934 0.7148
C26_2 C 0.7048(12) 0.8084(8) 0.6551(6)
H22_2 H 0.6860 0.7780 0.6129
C27_2 C 0.7381(12) 0.9042(7) 0.6594(6)
H23_2 H 0.7422 0.9377 0.6193
C28_2 C 0.7590(10) 0.9024(7) 0.7754(5)
H24_2 H 0.7753 0.9348 0.8168
N9_2 N 0.6274(9) 0.6807(6) 0.8413(4)
O19_2 O 0.0684(7) 0.5976(5) 0.7055(3)
O20_2 O 0.1538(6) 0.6003(4) 0.5719(3)
O22 O 0.0668(7) 0.7208(5) 0.4500(3)
O25_2 O 0.3999(7) 0.5994(5) 0.6644(3)
O26_2 O 0.3706(8) 0.7297(5) 0.5646(4)
O28 O 0.5367(6) 0.5759(5) 0.5510(3)
O30_2 O 0.0910(10) 0.6014(6) 0.8659(4)
H25_2 H -8.72481e-05 0.431563 0.149581
H17_2 H 0.5321 0.0330 0.3375
Mo2 Mo 0.92354(8) 0.39836(5) 0.53582(4)
H2_2 H 0.1036 0.5638 0.2629
C3_2 C 0.3073(12) 0.5733(8) 0.3029(5)
H3_2 H 0.3237 0.5083 0.3096
H4_2 H 0.5069 0.6206 0.3398
C6_2 C 0.4845(11) 0.8155(7) 0.3263(5)
C8_2 C 0.6647(12) 0.9152(7) 0.3471(6)
H6_2 H 0.7555 0.9399 0.3565
C9_2 C 0.7306(11) 0.7424(7) 0.3457(5)
H7_2 H 0.7098 0.6955 0.3787
H8_2 H 0.8236 0.7681 0.3618
C10_2 C 0.7304(10) 0.6931(7) 0.2761(5)
C11_2 C 0.6998(12) 0.7420(8) 0.2156(6)
H9_2 H 0.6766 0.8066 0.2148
C12_2 C 0.7048(12) 0.6916(8) 0.1551(6)
H10_2 H 0.6860 0.7220 0.1129
C13_2 C 0.7381(12) 0.5958(7) 0.1594(6)
H11_2 H 0.7422 0.5623 0.1193
C14_2 C 0.7590(10) 0.5976(7) 0.2754(5)
H12_2 H 0.7753 0.5652 0.3168
N3_2 N 0.6274(9) 0.8193(6) 0.3413(4)
N4_2 N 0.7648(9) 0.5490(6) 0.2188(4)
O5_2 O 0.9316(7) 0.4024(5) 0.2945(3)
O6_2 O 0.8462(6) 0.3997(4) 0.4281(3)
O8 O 0.9332(7) 0.2792(5) 0.5500(3)
O11_2 O 0.6001(7) 0.4006(5) 0.3356(3)
O12_2 O 0.6294(8) 0.2703(5) 0.4354(4)
O14_2 O 0.9090(10) 0.3986(6) 0.1341(4)
Mo5_2 Mo 0.70053(8) 0.59502(6) 0.51616(4)
Mo7_2 Mo 0.99120(8) 0.61861(6) 0.62112(4)
C15_2 C 0.1557(11) 0.7015(8) 0.2665(6)
H13_2 H 0.0664 0.7225 0.2472
C16_2 C 0.1774(12) 0.6065(7) 0.2754(5)
C18_2 C 0.4170(12) 0.6408(8) 0.3209(6)
C19_2 C 0.3887(10) 0.7369(7) 0.3102(5)
C21_2 C 0.5402(11) 0.9668(8) 0.3363(6)
O15_2 O 0.7006(7) 0.7138(5) 0.5017(3)
O16_2 O 0.8008(6) 0.5961(4) 0.6155(3)
O17_2 O 0.9162(6) 0.5771(4) 0.5143(3)
O18_2 O 0.9907(7) 0.7396(5) 0.6146(3)
O21 O 0.9997(7) 0.4509(4) 0.6125(3)
O23 O 0.7348(6) 0.4287(4) 0.5300(3)
O24_2 O 0.6617(6) 0.5492(5) 0.4324(3)
H25_3 H -8.72481e-05 0.0684374 0.649581
H25_4 H 1.00009 0.568437 0.850419
Mo2_2 Mo 0.07646(8) 0.89836(5) 0.96418(4)
O8_2 O 0.0668(7) 0.7792(5) 0.9500(3)
O21_2 O 0.0003(7) 0.9509(4) 0.8875(3)
O23_2 O 0.2652(6) 0.9287(4) 0.9700(3)
O7_2 O 0.9997(7) 0.0491(4) 0.1125(3)
O9_2 O 0.7348(6) 0.0713(4) 0.0300(3)
Mo6_2 Mo 0.92354(8) 0.10164(5) 0.03582(4)
O22_2 O 0.9332(7) 0.2208(5) 0.0500(3)
loop_
_geom_bond_atom_site_label_1
_geom_bond_atom_site_label_2
_geom_bond_site_symmetry_1
_geom_bond_site_symmetry_2
H2 C16 1_555 1_555
C3 H3 1_555 1_555
H4 C18 1_555 1_555
C6 N3 1_555 1_555
C8 H6 1_555 1_555
C9 H7 1_555 1_555
H8 C9 1_555 1_555
C10 C9 1_555 1_555
C11 C10 1_555 1_555
H9 C11 1_555 1_555
C12 C11 1_555 1_555
H10 C12 1_555 1_555
C13 C12 1_555 1_555
H11 C13 1_555 1_555
C14 C10 1_555 1_555
H12 C14 1_555 1_555
N3 C8 1_555 1_555
N4 C13 1_555 1_555
Cu3 N6 1_555 1_555
C15 H13 1_555 1_555
C16 C3 1_555 1_555
C18 C3 1_555 1_555
C19 C6 1_555 1_555
C21 C8 1_555 1_555
H17 C21 1_555 1_555
N6 C15 1_555 1_555
N8 C6 1_555 1_555
C9 N3 1_555 1_555
C14 N4 1_555 1_555
Cu3 N8 1_555 1_555
C15 C16 1_555 1_555
C18 C19 1_555 1_555
C19 N6 1_555 1_555
C21 N8 1_555 1_555
Mo5 O15 1_555 1_555
Mo7 O16 1_555 1_555
Mo10 O29 1_555 1_555
O16 Mo5 1_555 1_555
O17 Mo5 1_555 1_555
O18 Mo7 1_555 1_555
O29 Mo5 1_555 1_555
Mo7 O17 1_555 1_555
Mo4 O6 1_555 1_555
O5 Cu1 1_555 1_555
O11 Mo4 1_555 1_555
O12 Mo4 1_555 1_555
O14 Cu1 1_555 1_555
N5 Cu1 1_555 1_555
N7 Cu1 1_555 1_555
O27 Mo4 1_555 1_555
C1 H1 1_555 1_555
C2 C1 1_555 1_555
C4 C5 1_555 1_555
C5 N1 1_555 1_555
N1 C1 1_555 1_555
N2 C7 1_555 1_555
Cu2 N1 1_555 1_555
Cu4 N11 1_555 1_555
H14 C2 1_555 1_555
C17 C2 1_555 1_555
H15 C17 1_555 1_555
H16 C4 1_555 1_555
C20 C5 1_555 1_555
C22 C7 1_555 1_555
H18 C22 1_555 1_555
C23 H19 1_555 1_555
H20 C23 1_555 1_555
C24 C23 1_555 1_555
C25 C24 1_555 1_555
H21 C25 1_555 1_555
C26 C25 1_555 1_555
H22 C26 1_555 1_555
C27 C26 1_555 1_555
H23 C27 1_555 1_555
C28 C24 1_555 1_555
H24 C28 1_555 1_555
N9 C20 1_555 1_555
N11 C27 1_555 1_555
O19 Cu2 1_555 1_555
O25 Mo10 1_555 1_555
O26 Mo10 1_555 1_555
O30 Cu2 1_555 1_555
C4 C17 1_555 1_555
N2 Cu2 1_555 1_555
N2 C20 1_555 1_555
Mo10 O20 1_555 1_555
C22 N9 1_555 1_555
C23 N9 1_555 1_555
C28 N11 1_555 1_555
Mo1 O1 1_555 1_555
Mo3 O2 1_555 1_555
O2 Mo1 1_555 1_555
O3 Mo1 1_555 1_555
O4 Mo3 1_555 1_555
O27 Mo1 1_555 1_555
Mo3 O3 1_555 1_555
Mo1_2 O1_2 1_555 1_555
Mo3_2 O2_2 1_555 1_555
C1_2 H1_2 1_555 1_555
C2_2 C1_2 1_555 1_555
C4_2 C5_2 1_555 1_555
C5_2 N1_2 1_555 1_555
C7_2 H5_2 1_555 1_555
N1_2 C1_2 1_555 1_555
N2_2 C7_2 1_555 1_555
O2_2 Mo1_2 1_555 1_555
O3_2 Mo1_2 1_555 1_555
O4_2 Mo3_2 1_555 1_555
O7 Mo3_2 1_555 1_555
O9 Mo1_2 1_555 1_555
O10_2 Mo1_2 1_555 1_555
O13 Mo1_2 1_555 1_555
Cu4 N1_2 1_555 1_555
Mo6 O7 1_555 1_555
Mo8 O9 1_555 1_555
Mo9 O13 1_555 1_555
H14_2 C2_2 1_555 1_555
C17_2 C2_2 1_555 1_555
H15_2 C17_2 1_555 1_555
H16_2 C4_2 1_555 1_555
C20_2 C5_2 1_555 1_555
C22_2 C7_2 1_555 1_555
H18_2 C22_2 1_555 1_555
C23_2 H19_2 1_555 1_555
H20_2 C23_2 1_555 1_555
C24_2 C23_2 1_555 1_555
C25_2 C24_2 1_555 1_555
H21_2 C25_2 1_555 1_555
C26_2 C25_2 1_555 1_555
H22_2 C26_2 1_555 1_555
C27_2 C26_2 1_555 1_555
H23_2 C27_2 1_555 1_555
C28_2 C24_2 1_555 1_555
H24_2 C28_2 1_555 1_555
N9_2 C20_2 1_555 1_555
N10 C27_2 1_555 1_555
O19_2 Cu4 1_555 1_555
O20_2 Mo6 1_555 1_555
O22 Mo6 1_555 1_555
O25_2 Mo8 1_555 1_555
O26_2 Mo8 1_555 1_555
O28 Mo8 1_555 1_555
O30_2 Cu4 1_555 1_555
Mo3_2 O3_2 1_555 1_555
C4_2 C17_2 1_555 1_555
N2_2 Cu4 1_555 1_555
N2_2 C20_2 1_555 1_555
O9 Mo6 1_555 1_555
O10_2 Mo8 1_555 1_555
Mo8 O20_2 1_555 1_555
C22_2 N9_2 1_555 1_555
C23_2 N9_2 1_555 1_555
C28_2 N10 1_555 1_555
Cu3 N4_2 1_555 1_555
Mo9 O6_2 1_555 1_555
H2_2 C16_2 1_555 1_555
C3_2 H3_2 1_555 1_555
H4_2 C18_2 1_555 1_555
C6_2 N3_2 1_555 1_555
C8_2 H6_2 1_555 1_555
C9_2 H7_2 1_555 1_555
H8_2 C9_2 1_555 1_555
C10_2 C9_2 1_555 1_555
C11_2 C10_2 1_555 1_555
H9_2 C11_2 1_555 1_555
C12_2 C11_2 1_555 1_555
H10_2 C12_2 1_555 1_555
C13_2 C12_2 1_555 1_555
H11_2 C13_2 1_555 1_555
C14_2 C10_2 1_555 1_555
H12_2 C14_2 1_555 1_555
N3_2 C8_2 1_555 1_555
N4_2 C13_2 1_555 1_555
O5_2 Cu3 1_555 1_555
O6_2 Mo2 1_555 1_555
O8 Mo2 1_555 1_555
O11_2 Mo9 1_555 1_555
O12_2 Mo9 1_555 1_555
O14_2 Cu3 1_555 1_555
Mo5_2 O15_2 1_555 1_555
Mo7_2 O16_2 1_555 1_555
C15_2 H13_2 1_555 1_555
C16_2 C3_2 1_555 1_555
C18_2 C3_2 1_555 1_555
C19_2 C6_2 1_555 1_555
C21_2 C8_2 1_555 1_555
N5 C15_2 1_555 1_555
N7 C6_2 1_555 1_555
O16_2 Mo5_2 1_555 1_555
O17_2 Mo5_2 1_555 1_555
O18_2 Mo7_2 1_555 1_555
O21 Mo2 1_555 1_555
O23 Mo2 1_555 1_555
O24_2 Mo9 1_555 1_555
O28 Mo5_2 1_555 1_555
Mo9 O23 1_555 1_555
C9_2 N3_2 1_555 1_555
C14_2 N4_2 1_555 1_555
Mo5_2 O23 1_555 1_555
Mo5_2 O24_2 1_555 1_555
Mo7_2 O17_2 1_555 1_555
Mo7_2 O21 1_555 1_555
C15_2 C16_2 1_555 1_555
C18_2 C19_2 1_555 1_555
C19_2 N5 1_555 1_555
C21_2 N7 1_555 1_555
O8_2 Mo2_2 1_555 1_555
O21_2 Mo2_2 1_555 1_555
O23_2 Mo2_2 1_555 1_555
Mo6_2 O7_2 1_555 1_555
O22_2 Mo6_2 1_555 1_555
O9_2 Mo6_2 1_555 1_555

#END
