
###############################################################################
#
# This file contains modified crystal structure data generated from the
# MOF subset of the Cambridge Structural Database (CSD) v543 
# hosted by the Cambridge Crystallographic Data Centre (CCDC).
#
# This work is licensed under the Creative Commons
# Attribution-NonCommercial-ShareAlike 4.0 International License.
# To view a copy of this license, visit
# http://creativecommons.org/licenses/by-nc-sa/4.0/
# or send a letter to
# Creative Commons, PO Box 1866, Mountain View, CA 94042, USA.
#
# CIF created using the CSD Python API on 29 September 2022
# The structure has been converted into the P1 space group
# The structure has a 3D framework
# The original CSD entry EKETOF is in the monoclinic crystal system
# The framework has been calculated to contain at least 10.0% void space
# The void calculation uses a probe of radius 1.32A, grid spacing 0.4
#
###############################################################################

data_EKETOF
_chemical_formula_moiety         '(C80 H56 Eu6 N22 O24)n'
_symmetry_cell_setting           triclinic
_symmetry_space_group_name_H-M   'P 1'
_symmetry_Int_Tables_number      1
_space_group_name_Hall           'P 1'
loop_
_symmetry_equiv_pos_site_id
_symmetry_equiv_pos_as_xyz
1 x,y,z
_cell_length_a                   19.974(14)
_cell_length_b                   13.135(10)
_cell_length_c                   9.901(7)
_cell_angle_alpha                90
_cell_angle_beta                 113.308(11)
_cell_angle_gamma                90
_cell_volume                     2385.62
loop_
_atom_site_label
_atom_site_type_symbol
_atom_site_fract_x
_atom_site_fract_y
_atom_site_fract_z
Eu1 Eu 0.0000 0.05855(2) 0.2500
O1 O 0.08380(19) 0.0845(3) 0.1487(4)
N1 N 0.4310(2) 0.2817(3) 0.6137(5)
N2 N 0.3979(2) 0.2652(3) 0.4685(4)
H1 H 0.4091 0.2968 0.4042
C1 C 0.1157(3) 0.0532(4) 0.0713(5)
C2 C 0.1921(2) 0.0901(4) 0.1093(5)
C3 C 0.2322(2) 0.1270(4) 0.2469(5)
H2 H 0.2117 0.1296 0.3164
C4 C 0.3031(2) 0.1607(4) 0.2836(5)
C5 C 0.3312(3) 0.1599(5) 0.1770(6)
H3 H 0.3782 0.1838 0.1993
C6 C 0.2904(3) 0.1241(5) 0.0381(6)
C7 C 0.2214(3) 0.0880(4) 0.0040(6)
C8 C 0.3456(3) 0.1942(4) 0.4342(5)
C9 C 0.3437(3) 0.1624(5) 0.5641(6)
H6 H 0.3131 0.1137 0.5774
C10 C 0.3976(3) 0.2185(4) 0.6717(6)
H7 H 0.4089 0.2125 0.7720
Eu5 Eu 0.5000 0.44145(2) 0.7500
O9 O 0.08962(18) 0.0059(3) 0.4659(4)
N6 N 0.0690(2) 0.2183(3) 0.3863(5)
O4 O -0.0000 0.7426(5) 0.2500
N3 N -0.0000 0.8313(5) 0.2500
O5 O 0.04008(18) 0.8825(3) 0.2036(4)
Eu3 Eu -0.0000 0.94145(2) 0.7500
O2 O 0.08962(18) 0.9941(3) 0.9659(4)
Eu1_2 Eu 1.0000 0.05855(2) 0.2500
O6 O 0.91620(19) 0.0845(3) 0.3513(4)
N5 N 0.6021(2) 0.2652(3) 0.0315(4)
H8 H 0.5909 0.2968 0.0958
C11 C 0.8843(3) 0.0532(4) 0.4287(5)
C12 C 0.8079(2) 0.0901(4) 0.3907(5)
C13 C 0.7678(2) 0.1270(4) 0.2531(5)
H9 H 0.7883 0.1296 0.1836
C14 C 0.6969(2) 0.1607(4) 0.2164(5)
C15 C 0.6688(3) 0.1599(5) 0.3230(6)
H10 H 0.6218 0.1838 0.3007
C16 C 0.7096(3) 0.1241(5) 0.4619(6)
H11 H 0.6901 0.1244 0.5331
C17 C 0.7786(3) 0.0880(4) 0.4960(6)
H12 H 0.8057 0.0622 0.5893
C18 C 0.6544(3) 0.1942(4) 0.0658(5)
O8 O 0.91038(18) 0.0059(3) 0.0341(4)
N7 N 0.9310(2) 0.2183(3) 0.1137(5)
N4 N 0.5690(2) 0.2817(3) 0.8863(5)
C19 C 0.6563(3) 0.1624(5) 0.9359(6)
H13 H 0.6869 0.1137 0.9226
C20 C 0.6024(3) 0.2185(4) 0.8283(6)
H14 H 0.5911 0.2125 0.7280
O3 O 0.95992(18) 0.8825(3) 0.2964(4)
O4_2 O 1.0000 0.7426(5) 0.2500
N3_2 N 1.0000 0.8313(5) 0.2500
O7 O 0.91038(18) 0.9941(3) 0.5341(4)
Eu3_2 Eu 1.0000 0.94145(2) 0.7500
Eu1_3 Eu 0.5000 0.55855(2) 0.2500
O1_2 O 0.58380(19) 0.5845(3) 0.1487(4)
O3_2 O 0.45992(18) 0.3825(3) 0.2964(4)
O4_3 O 0.5000 0.2426(5) 0.2500
N1_2 N 0.9310(2) 0.7817(3) 0.6137(5)
N2_2 N 0.8979(2) 0.7652(3) 0.4685(4)
H1_2 H 0.9091 0.7968 0.4042
N3_3 N 0.5000 0.3313(5) 0.2500
C1_2 C 0.6157(3) 0.5532(4) 0.0713(5)
C2_2 C 0.6921(2) 0.5901(4) 0.1093(5)
C3_2 C 0.7322(2) 0.6270(4) 0.2469(5)
H2_2 H 0.7117 0.6296 0.3164
C4_2 C 0.8031(2) 0.6607(4) 0.2836(5)
C5_2 C 0.8312(3) 0.6599(5) 0.1770(6)
H3_2 H 0.8782 0.6838 0.1993
C6_2 C 0.7904(3) 0.6241(5) 0.0381(6)
C7_2 C 0.7214(3) 0.5880(4) 0.0040(6)
C8_2 C 0.8456(3) 0.6942(4) 0.4342(5)
C9_2 C 0.8437(3) 0.6624(5) 0.5641(6)
H6_2 H 0.8131 0.6137 0.5774
C10_2 C 0.8976(3) 0.7185(4) 0.6717(6)
H7_2 H 0.9089 0.7125 0.7720
O5_2 O 0.54008(18) 0.3825(3) 0.2036(4)
O6_2 O 0.41620(19) 0.5845(3) 0.3513(4)
O7_2 O 0.41038(18) 0.4941(3) 0.5341(4)
N5_2 N 0.1021(2) 0.7652(3) 0.0315(4)
H8_2 H 0.0909 0.7968 0.0958
C11_2 C 0.3843(3) 0.5532(4) 0.4287(5)
C12_2 C 0.3079(2) 0.5901(4) 0.3907(5)
C13_2 C 0.2678(2) 0.6270(4) 0.2531(5)
H9_2 H 0.2883 0.6296 0.1836
C14_2 C 0.1969(2) 0.6607(4) 0.2164(5)
C15_2 C 0.1688(3) 0.6599(5) 0.3230(6)
H10_2 H 0.1218 0.6838 0.3007
C16_2 C 0.2096(3) 0.6241(5) 0.4619(6)
H11_2 H 0.1901 0.6244 0.5331
C17_2 C 0.2786(3) 0.5880(4) 0.4960(6)
H12_2 H 0.3057 0.5622 0.5893
C18_2 C 0.1544(3) 0.6942(4) 0.0658(5)
O8_2 O 0.41038(18) 0.5059(3) 0.0341(4)
O9_2 O 0.58962(18) 0.5059(3) 0.4659(4)
N6_2 N 0.5690(2) 0.7183(3) 0.3863(5)
N7_2 N 0.4310(2) 0.7183(3) 0.1137(5)
O2_2 O 0.58962(18) 0.4941(3) 0.9659(4)
H4 H 0.8099 0.6244 0.9669
H5 H 0.6943 0.5622 0.9107
N4_2 N 0.0690(2) 0.7817(3) 0.8863(5)
C19_2 C 0.1563(3) 0.6624(5) 0.9359(6)
H13_2 H 0.1869 0.6137 0.9226
C20_2 C 0.1024(3) 0.7185(4) 0.8283(6)
H14_2 H 0.0911 0.7125 0.7280
O3_3 O 0.04008(18) 0.1175(3) 0.7036(4)
O4_4 O 0.0000 0.2574(5) 0.7500
N3_4 N -0.0000 0.1687(5) 0.7500
C19_3 C 0.3437(3) 0.8376(5) 0.0641(6)
H13_3 H 0.3131 0.8863 0.0774
C20_3 C 0.3976(3) 0.7815(4) 0.1717(6)
H14_3 H 0.4089 0.7875 0.2720
O6_3 O 0.08380(19) 0.9155(3) 0.6487(4)
N5_3 N 0.3979(2) 0.7348(3) 0.9685(4)
H8_3 H 0.4091 0.7032 0.9042
C11_3 C 0.1157(3) 0.9468(4) 0.5713(5)
C12_3 C 0.1921(2) 0.9099(4) 0.6093(5)
C13_3 C 0.2322(2) 0.8730(4) 0.7469(5)
H9_3 H 0.2117 0.8704 0.8164
C14_3 C 0.3031(2) 0.8393(4) 0.7836(5)
C15_3 C 0.3312(3) 0.8401(5) 0.6770(6)
H10_3 H 0.3782 0.8162 0.6993
C16_3 C 0.2904(3) 0.8759(5) 0.5381(6)
H11_3 H 0.3099 0.8756 0.4669
C17_3 C 0.2214(3) 0.9120(4) 0.5040(6)
H12_3 H 0.1943 0.9378 0.4107
C18_3 C 0.3456(3) 0.8058(4) 0.9342(5)
O4_5 O 1.0000 0.2574(5) 0.7500
N3_5 N 1.0000 0.1687(5) 0.7500
O5_3 O 0.95992(18) 0.1175(3) 0.7964(4)
O1_3 O 0.91620(19) 0.9155(3) 0.8513(4)
N2_3 N 0.6021(2) 0.7348(3) 0.5315(4)
H1_3 H 0.5909 0.7032 0.5958
C1_3 C 0.8843(3) 0.9468(4) 0.9287(5)
C2_3 C 0.8079(2) 0.9099(4) 0.8907(5)
C3_3 C 0.7678(2) 0.8730(4) 0.7531(5)
H2_3 H 0.7883 0.8704 0.6836
C4_3 C 0.6969(2) 0.8393(4) 0.7164(5)
C5_3 C 0.6688(3) 0.8401(5) 0.8230(6)
H3_3 H 0.6218 0.8162 0.8007
C6_3 C 0.7096(3) 0.8759(5) 0.9619(6)
C7_3 C 0.7786(3) 0.9120(4) 0.9960(6)
C8_3 C 0.6544(3) 0.8058(4) 0.5658(5)
C9_3 C 0.6563(3) 0.8376(5) 0.4359(6)
H6_3 H 0.6869 0.8863 0.4226
C10_3 C 0.6024(3) 0.7815(4) 0.3283(6)
H7_3 H 0.5911 0.7875 0.2280
H4_2 H 0.1901 0.3756 0.0331
H5_2 H 0.3057 0.4378 0.0893
C19_4 C 0.8437(3) 0.3376(5) 0.0641(6)
H13_4 H 0.8131 0.3863 0.0774
C20_4 C 0.8976(3) 0.2815(4) 0.1717(6)
H14_4 H 0.9089 0.2875 0.2720
O1_4 O 0.41620(19) 0.4155(3) 0.8513(4)
O3_4 O 0.54008(18) 0.6175(3) 0.7036(4)
O4_6 O 0.5000 0.7574(5) 0.7500
N2_4 N 0.1021(2) 0.2348(3) 0.5315(4)
H1_4 H 0.0909 0.2032 0.5958
N3_6 N 0.5000 0.6687(5) 0.7500
C1_4 C 0.3843(3) 0.4468(4) 0.9287(5)
C2_4 C 0.3079(2) 0.4099(4) 0.8907(5)
C3_4 C 0.2678(2) 0.3730(4) 0.7531(5)
H2_4 H 0.2883 0.3704 0.6836
C4_4 C 0.1969(2) 0.3393(4) 0.7164(5)
C5_4 C 0.1688(3) 0.3401(5) 0.8230(6)
H3_4 H 0.1218 0.3162 0.8007
C6_4 C 0.2096(3) 0.3759(5) 0.9619(6)
C7_4 C 0.2786(3) 0.4120(4) 0.9960(6)
C8_4 C 0.1544(3) 0.3058(4) 0.5658(5)
C9_4 C 0.1563(3) 0.3376(5) 0.4359(6)
H6_4 H 0.1869 0.3863 0.4226
C10_4 C 0.1024(3) 0.2815(4) 0.3283(6)
H7_4 H 0.0911 0.2875 0.2280
O5_4 O 0.45992(18) 0.6175(3) 0.7964(4)
O6_4 O 0.58380(19) 0.4155(3) 0.6487(4)
N5_4 N 0.8979(2) 0.2348(3) 0.9685(4)
H8_4 H 0.9091 0.2032 0.9042
C11_4 C 0.6157(3) 0.4468(4) 0.5713(5)
C12_4 C 0.6921(2) 0.4099(4) 0.6093(5)
C13_4 C 0.7322(2) 0.3730(4) 0.7469(5)
H9_4 H 0.7117 0.3704 0.8164
C14_4 C 0.8031(2) 0.3393(4) 0.7836(5)
C15_4 C 0.8312(3) 0.3401(5) 0.6770(6)
H10_4 H 0.8782 0.3162 0.6993
C16_4 C 0.7904(3) 0.3759(5) 0.5381(6)
H11_4 H 0.8099 0.3756 0.4669
C17_4 C 0.7214(3) 0.4120(4) 0.5040(6)
H12_4 H 0.6943 0.4378 0.4107
C18_4 C 0.8456(3) 0.3058(4) 0.9342(5)
H4_3 H 0.3099 0.1244 0.9669
H5_3 H 0.1943 0.0622 0.9107
H4_4 H 0.6901 0.8756 0.0331
H5_4 H 0.8057 0.9378 0.0893
loop_
_geom_bond_atom_site_label_1
_geom_bond_atom_site_label_2
_geom_bond_site_symmetry_1
_geom_bond_site_symmetry_2
Eu1 O1 1_555 1_555
O1 C1 1_555 1_555
N1 N2 1_555 1_555
N2 H1 1_555 1_555
C1 C2 1_555 1_555
C2 C3 1_555 1_555
C3 H2 1_555 1_555
C4 C3 1_555 1_555
C5 C4 1_555 1_555
H3 C5 1_555 1_555
C6 C5 1_555 1_555
C7 C2 1_555 1_555
C8 N2 1_555 1_555
C9 C8 1_555 1_555
H6 C9 1_555 1_555
C10 N1 1_555 1_555
H7 C10 1_555 1_555
Eu5 N1 1_555 1_555
O9 Eu1 1_555 1_555
N6 Eu1 1_555 1_555
C4 C8 1_555 1_555
C6 C7 1_555 1_555
C9 C10 1_555 1_555
O4 N3 1_555 1_555
N3 O5 1_555 1_555
Eu3 O2 1_555 1_555
O6 Eu1_2 1_555 1_555
N5 H8 1_555 1_555
C11 O6 1_555 1_555
C12 C11 1_555 1_555
C13 C12 1_555 1_555
H9 C13 1_555 1_555
C14 C13 1_555 1_555
C15 C14 1_555 1_555
H10 C15 1_555 1_555
C16 C15 1_555 1_555
H11 C16 1_555 1_555
C17 C12 1_555 1_555
H12 C17 1_555 1_555
C18 N5 1_555 1_555
O8 Eu1_2 1_555 1_555
N7 Eu1_2 1_555 1_555
C14 C18 1_555 1_555
C16 C17 1_555 1_555
H13 C19 1_555 1_555
C20 N4 1_555 1_555
H14 C20 1_555 1_555
Eu5 N4 1_555 1_555
C19 C20 1_555 1_555
O4_2 N3_2 1_555 1_555
N3_2 O3 1_555 1_555
Eu3_2 O7 1_555 1_555
Eu1_3 O1_2 1_555 1_555
O1_2 C1_2 1_555 1_555
O3_2 Eu1_3 1_555 1_555
O4_3 N3_3 1_555 1_555
N1_2 N2_2 1_555 1_555
N2_2 H1_2 1_555 1_555
N3_3 O3_2 1_555 1_555
C1_2 C2_2 1_555 1_555
C2_2 C3_2 1_555 1_555
C3_2 H2_2 1_555 1_555
C4_2 C3_2 1_555 1_555
C5_2 C4_2 1_555 1_555
H3_2 C5_2 1_555 1_555
C6_2 C5_2 1_555 1_555
C7_2 C2_2 1_555 1_555
C8_2 N2_2 1_555 1_555
C9_2 C8_2 1_555 1_555
H6_2 C9_2 1_555 1_555
C10_2 N1_2 1_555 1_555
H7_2 C10_2 1_555 1_555
O5_2 Eu1_3 1_555 1_555
O6_2 Eu1_3 1_555 1_555
O7_2 C11_2 1_555 1_555
N5_2 H8_2 1_555 1_555
C11_2 O6_2 1_555 1_555
C12_2 C11_2 1_555 1_555
C13_2 C12_2 1_555 1_555
H9_2 C13_2 1_555 1_555
C14_2 C13_2 1_555 1_555
C15_2 C14_2 1_555 1_555
H10_2 C15_2 1_555 1_555
C16_2 C15_2 1_555 1_555
H11_2 C16_2 1_555 1_555
C17_2 C12_2 1_555 1_555
H12_2 C17_2 1_555 1_555
C18_2 N5_2 1_555 1_555
Eu5 O7_2 1_555 1_555
Eu3_2 N1_2 1_555 1_555
O8_2 Eu1_3 1_555 1_555
O9_2 Eu1_3 1_555 1_555
N6_2 Eu1_3 1_555 1_555
N7_2 Eu1_3 1_555 1_555
N3_3 O5_2 1_555 1_555
C4_2 C8_2 1_555 1_555
C6_2 C7_2 1_555 1_555
C9_2 C10_2 1_555 1_555
C14_2 C18_2 1_555 1_555
C16_2 C17_2 1_555 1_555
H13_2 C19_2 1_555 1_555
C20_2 N4_2 1_555 1_555
H14_2 C20_2 1_555 1_555
Eu5 O2_2 1_555 1_555
Eu3 N4_2 1_555 1_555
C19_2 C20_2 1_555 1_555
O4_4 N3_4 1_555 1_555
N3_4 O3_3 1_555 1_555
H13_3 C19_3 1_555 1_555
C20_3 N7_2 1_555 1_555
H14_3 C20_3 1_555 1_555
C19_3 C20_3 1_555 1_555
O6_3 Eu3 1_555 1_555
N5_3 H8_3 1_555 1_555
C11_3 O6_3 1_555 1_555
C12_3 C11_3 1_555 1_555
C13_3 C12_3 1_555 1_555
H9_3 C13_3 1_555 1_555
C14_3 C13_3 1_555 1_555
C15_3 C14_3 1_555 1_555
H10_3 C15_3 1_555 1_555
C16_3 C15_3 1_555 1_555
H11_3 C16_3 1_555 1_555
C17_3 C12_3 1_555 1_555
H12_3 C17_3 1_555 1_555
C18_3 N5_3 1_555 1_555
C14_3 C18_3 1_555 1_555
C16_3 C17_3 1_555 1_555
O4_5 N3_5 1_555 1_555
N3_5 O5_3 1_555 1_555
Eu3_2 O1_3 1_555 1_555
O1_3 C1_3 1_555 1_555
N6_2 N2_3 1_555 1_555
N2_3 H1_3 1_555 1_555
C1_3 C2_3 1_555 1_555
C2_3 C3_3 1_555 1_555
C3_3 H2_3 1_555 1_555
C4_3 C3_3 1_555 1_555
C5_3 C4_3 1_555 1_555
H3_3 C5_3 1_555 1_555
C6_3 C5_3 1_555 1_555
C7_3 C2_3 1_555 1_555
C8_3 N2_3 1_555 1_555
C9_3 C8_3 1_555 1_555
H6_3 C9_3 1_555 1_555
C10_3 N6_2 1_555 1_555
H7_3 C10_3 1_555 1_555
C4_3 C8_3 1_555 1_555
C6_3 C7_3 1_555 1_555
C9_3 C10_3 1_555 1_555
H13_4 C19_4 1_555 1_555
C20_4 N7 1_555 1_555
H14_4 C20_4 1_555 1_555
C19_4 C20_4 1_555 1_555
Eu5 O1_4 1_555 1_555
O1_4 C1_4 1_555 1_555
O3_4 Eu5 1_555 1_555
O4_6 N3_6 1_555 1_555
N6 N2_4 1_555 1_555
N2_4 H1_4 1_555 1_555
N3_6 O3_4 1_555 1_555
C1_4 C2_4 1_555 1_555
C2_4 C3_4 1_555 1_555
C3_4 H2_4 1_555 1_555
C4_4 C3_4 1_555 1_555
C5_4 C4_4 1_555 1_555
H3_4 C5_4 1_555 1_555
C6_4 C5_4 1_555 1_555
C7_4 C2_4 1_555 1_555
C8_4 N2_4 1_555 1_555
C9_4 C8_4 1_555 1_555
H6_4 C9_4 1_555 1_555
C10_4 N6 1_555 1_555
H7_4 C10_4 1_555 1_555
O5_4 Eu5 1_555 1_555
O6_4 Eu5 1_555 1_555
O9_2 C11_4 1_555 1_555
N5_4 H8_4 1_555 1_555
C11_4 O6_4 1_555 1_555
C12_4 C11_4 1_555 1_555
C13_4 C12_4 1_555 1_555
H9_4 C13_4 1_555 1_555
C14_4 C13_4 1_555 1_555
C15_4 C14_4 1_555 1_555
H10_4 C15_4 1_555 1_555
C16_4 C15_4 1_555 1_555
H11_4 C16_4 1_555 1_555
C17_4 C12_4 1_555 1_555
H12_4 C17_4 1_555 1_555
C18_4 N5_4 1_555 1_555
N3_6 O5_4 1_555 1_555
C4_4 C8_4 1_555 1_555
C6_4 C7_4 1_555 1_555
C9_4 C10_4 1_555 1_555
C14_4 C18_4 1_555 1_555
C16_4 C17_4 1_555 1_555

#END
