
###############################################################################
#
# This file contains modified crystal structure data generated from the
# MOF subset of the Cambridge Structural Database (CSD) v543 
# hosted by the Cambridge Crystallographic Data Centre (CCDC).
#
# This work is licensed under the Creative Commons
# Attribution-NonCommercial-ShareAlike 4.0 International License.
# To view a copy of this license, visit
# http://creativecommons.org/licenses/by-nc-sa/4.0/
# or send a letter to
# Creative Commons, PO Box 1866, Mountain View, CA 94042, USA.
#
# CIF created using the CSD Python API on 29 September 2022
# The structure has been converted into the P1 space group
# The structure has a 3D framework
# The original CSD entry EKEVAT is in the monoclinic crystal system
# The framework has been calculated to contain at least 10.0% void space
# The void calculation uses a probe of radius 1.32A, grid spacing 0.4
#
###############################################################################

data_EKEVAT
_chemical_formula_moiety         '(C80 H56 Er6 N22 O24)n'
_symmetry_cell_setting           triclinic
_symmetry_space_group_name_H-M   'P 1'
_symmetry_Int_Tables_number      1
_space_group_name_Hall           'P 1'
loop_
_symmetry_equiv_pos_site_id
_symmetry_equiv_pos_as_xyz
1 x,y,z
_cell_length_a                   19.810(10)
_cell_length_b                   13.153(7)
_cell_length_c                   9.806(5)
_cell_angle_alpha                90
_cell_angle_beta                 113.196(8)
_cell_angle_gamma                90
_cell_volume                     2348.52
loop_
_atom_site_label
_atom_site_type_symbol
_atom_site_fract_x
_atom_site_fract_y
_atom_site_fract_z
N1 N 0.43144(19) 0.2854(3) 0.1181(4)
C9 C 0.3464(3) 0.1626(4) 0.0695(5)
H6 H 0.3169 0.1124 0.0842
C10 C 0.3996(3) 0.2197(4) 0.1777(5)
H7 H 0.4116 0.2131 0.2790
Er5 Er 0.5000 0.44126(2) 0.2500
Er1 Er 0.0000 0.05874(2) 0.7500
N2 N 0.39779(19) 0.2684(3) 0.9707(4)
H1 H 0.4082 0.3010 0.9054
C1 C 0.1140(2) 0.0527(3) 0.5692(4)
C2 C 0.1909(2) 0.0905(3) 0.6081(4)
C3 C 0.2319(2) 0.1273(3) 0.7476(4)
H2 H 0.2115 0.1296 0.8183
C4 C 0.3032(2) 0.1610(4) 0.7844(5)
C5 C 0.3322(3) 0.1592(4) 0.6771(5)
H3 H 0.3800 0.1817 0.7004
C6 C 0.2910(3) 0.1246(5) 0.5362(6)
H4 H 0.3106 0.1257 0.4642
C7 C 0.2209(3) 0.0882(4) 0.5014(5)
H5 H 0.1938 0.0623 0.4073
C8 C 0.3462(2) 0.1950(4) 0.9367(5)
O1 O 0.08108(17) 0.0843(3) 0.6470(3)
N6 N 0.06856(19) 0.2146(3) 0.8819(4)
O9 O 0.08805(15) 0.0076(2) 0.9629(3)
Er3 Er 0.0000 0.94126(2) 0.2500
N3 N 0.0000 0.8366(5) 0.7500
O2 O 0.08805(15) 0.9924(2) 0.4629(3)
O4 O 0.0000 0.7453(5) 0.7500
O5 O 0.04069(16) 0.8871(3) 0.7040(3)
Er1_2 Er 1.0000 0.05874(2) 0.7500
N4 N 0.56856(19) 0.2854(3) 0.3819(4)
N5 N 0.60221(19) 0.2684(3) 0.5293(4)
H8 H 0.5918 0.3010 0.5946
C11 C 0.8860(2) 0.0527(3) 0.9308(4)
C12 C 0.8091(2) 0.0905(3) 0.8919(4)
C13 C 0.7681(2) 0.1273(3) 0.7524(4)
H9 H 0.7885 0.1296 0.6817
C14 C 0.6968(2) 0.1610(4) 0.7156(5)
C15 C 0.6678(3) 0.1592(4) 0.8229(5)
H10 H 0.6200 0.1817 0.7996
C16 C 0.7090(3) 0.1246(5) 0.9638(6)
C17 C 0.7791(3) 0.0882(4) 0.9986(5)
C18 C 0.6538(2) 0.1950(4) 0.5633(5)
C19 C 0.6536(3) 0.1626(4) 0.4305(5)
H13 H 0.6831 0.1124 0.4158
C20 C 0.6004(3) 0.2197(4) 0.3223(5)
H14 H 0.5884 0.2131 0.2210
O6 O 0.91892(17) 0.0843(3) 0.8530(3)
N7 N 0.93144(19) 0.2146(3) 0.6181(4)
O8 O 0.91195(15) 0.0076(2) 0.5371(3)
O7 O 0.91195(15) 0.9924(2) 0.0371(3)
Er3_2 Er 1.0000 0.94126(2) 0.2500
N3_2 N 1.0000 0.8366(5) 0.7500
O3 O 0.95931(16) 0.8871(3) 0.7960(3)
O4_2 O 1.0000 0.7453(5) 0.7500
N1_2 N 0.93144(19) 0.7854(3) 0.1181(4)
C9_2 C 0.8464(3) 0.6626(4) 0.0695(5)
H6_2 H 0.8169 0.6124 0.0842
C10_2 C 0.8996(3) 0.7197(4) 0.1777(5)
H7_2 H 0.9116 0.7131 0.2790
H11 H 0.1894 0.6257 0.0358
H12 H 0.3062 0.5623 0.0927
O7_2 O 0.41195(15) 0.4924(2) 0.0371(3)
Er1_3 Er 0.5000 0.55874(2) 0.7500
N2_2 N 0.89779(19) 0.7684(3) 0.9707(4)
H1_2 H 0.9082 0.8010 0.9054
N3_3 N 0.5000 0.3366(5) 0.7500
C1_2 C 0.6140(2) 0.5527(3) 0.5692(4)
C2_2 C 0.6909(2) 0.5905(3) 0.6081(4)
C3_2 C 0.7319(2) 0.6273(3) 0.7476(4)
H2_2 H 0.7115 0.6296 0.8183
C4_2 C 0.8032(2) 0.6610(4) 0.7844(5)
C5_2 C 0.8322(3) 0.6592(4) 0.6771(5)
H3_2 H 0.8800 0.6817 0.7004
C6_2 C 0.7910(3) 0.6246(5) 0.5362(6)
H4_2 H 0.8106 0.6257 0.4642
C7_2 C 0.7209(3) 0.5882(4) 0.5014(5)
H5_2 H 0.6938 0.5623 0.4073
C8_2 C 0.8462(2) 0.6950(4) 0.9367(5)
O1_2 O 0.58108(17) 0.5843(3) 0.6470(3)
O2_2 O 0.58805(15) 0.4924(2) 0.4629(3)
O3_2 O 0.45931(16) 0.3871(3) 0.7960(3)
O4_3 O 0.5000 0.2453(5) 0.7500
O5_2 O 0.54069(16) 0.3871(3) 0.7040(3)
N4_2 N 0.06856(19) 0.7854(3) 0.3819(4)
N5_2 N 0.10221(19) 0.7684(3) 0.5293(4)
H8_2 H 0.0918 0.8010 0.5946
C11_2 C 0.3860(2) 0.5527(3) 0.9308(4)
C12_2 C 0.3091(2) 0.5905(3) 0.8919(4)
C13_2 C 0.2681(2) 0.6273(3) 0.7524(4)
H9_2 H 0.2885 0.6296 0.6817
C14_2 C 0.1968(2) 0.6610(4) 0.7156(5)
C15_2 C 0.1678(3) 0.6592(4) 0.8229(5)
H10_2 H 0.1200 0.6817 0.7996
C16_2 C 0.2090(3) 0.6246(5) 0.9638(6)
C17_2 C 0.2791(3) 0.5882(4) 0.9986(5)
C18_2 C 0.1538(2) 0.6950(4) 0.5633(5)
C19_2 C 0.1536(3) 0.6626(4) 0.4305(5)
H13_2 H 0.1831 0.6124 0.4158
C20_2 C 0.1004(3) 0.7197(4) 0.3223(5)
H14_2 H 0.0884 0.7131 0.2210
O6_2 O 0.41892(17) 0.5843(3) 0.8530(3)
N6_2 N 0.56856(19) 0.7146(3) 0.8819(4)
N7_2 N 0.43144(19) 0.7146(3) 0.6181(4)
O8_2 O 0.41195(15) 0.5076(2) 0.5371(3)
O9_2 O 0.58805(15) 0.5076(2) 0.9629(3)
N3_4 N -0.0000 0.1634(5) 0.2500
O3_3 O 0.04069(16) 0.1129(3) 0.2040(3)
O4_4 O -0.0000 0.2547(5) 0.2500
N5_3 N 0.39779(19) 0.7316(3) 0.4707(4)
H8_3 H 0.4082 0.6990 0.4054
C11_3 C 0.1140(2) 0.9473(3) 0.0692(4)
C12_3 C 0.1909(2) 0.9095(3) 0.1081(4)
C13_3 C 0.2319(2) 0.8727(3) 0.2476(4)
H9_3 H 0.2115 0.8704 0.3183
C14_3 C 0.3032(2) 0.8390(4) 0.2844(5)
C15_3 C 0.3322(3) 0.8408(4) 0.1771(5)
H10_3 H 0.3800 0.8183 0.2004
C16_3 C 0.2910(3) 0.8754(5) 0.0362(6)
C17_3 C 0.2209(3) 0.9118(4) 0.0014(5)
C18_3 C 0.3462(2) 0.8050(4) 0.4367(5)
C19_3 C 0.3464(3) 0.8374(4) 0.5695(5)
H13_3 H 0.3169 0.8876 0.5842
C20_3 C 0.3996(3) 0.7803(4) 0.6777(5)
H14_3 H 0.4116 0.7869 0.7790
O6_3 O 0.08108(17) 0.9157(3) 0.1470(3)
N3_5 N 1.0000 0.1634(5) 0.2500
O4_5 O 1.0000 0.2547(5) 0.2500
O5_3 O 0.95931(16) 0.1129(3) 0.2960(3)
N2_3 N 0.60221(19) 0.7316(3) 0.0293(4)
H1_3 H 0.5918 0.6990 0.0946
C1_3 C 0.8860(2) 0.9473(3) 0.4308(4)
C2_3 C 0.8091(2) 0.9095(3) 0.3919(4)
C3_3 C 0.7681(2) 0.8727(3) 0.2524(4)
H2_3 H 0.7885 0.8704 0.1817
C4_3 C 0.6968(2) 0.8390(4) 0.2156(5)
C5_3 C 0.6678(3) 0.8408(4) 0.3229(5)
H3_3 H 0.6200 0.8183 0.2996
C6_3 C 0.7090(3) 0.8754(5) 0.4638(6)
H4_3 H 0.6894 0.8743 0.5358
C7_3 C 0.7791(3) 0.9118(4) 0.4986(5)
H5_3 H 0.8062 0.9377 0.5927
C8_3 C 0.6538(2) 0.8050(4) 0.0633(5)
O1_3 O 0.91892(17) 0.9157(3) 0.3530(3)
C9_3 C 0.6536(3) 0.8374(4) 0.9305(5)
H6_3 H 0.6831 0.8876 0.9158
C10_3 C 0.6004(3) 0.7803(4) 0.8223(5)
H7_3 H 0.5884 0.7869 0.7210
N2_4 N 0.10221(19) 0.2316(3) 0.0293(4)
H1_4 H 0.0918 0.1990 0.0946
N3_6 N 0.5000 0.6634(5) 0.2500
C1_4 C 0.3860(2) 0.4473(3) 0.4308(4)
C2_4 C 0.3091(2) 0.4095(3) 0.3919(4)
C3_4 C 0.2681(2) 0.3727(3) 0.2524(4)
H2_4 H 0.2885 0.3704 0.1817
C4_4 C 0.1968(2) 0.3390(4) 0.2156(5)
C5_4 C 0.1678(3) 0.3408(4) 0.3229(5)
H3_4 H 0.1200 0.3183 0.2996
C6_4 C 0.2090(3) 0.3754(5) 0.4638(6)
H4_4 H 0.1894 0.3743 0.5358
C7_4 C 0.2791(3) 0.4118(4) 0.4986(5)
H5_4 H 0.3062 0.4377 0.5927
C8_4 C 0.1538(2) 0.3050(4) 0.0633(5)
O1_4 O 0.41892(17) 0.4157(3) 0.3530(3)
O3_4 O 0.54069(16) 0.6129(3) 0.2040(3)
O4_6 O 0.5000 0.7547(5) 0.2500
O5_4 O 0.45931(16) 0.6129(3) 0.2960(3)
N5_4 N 0.89779(19) 0.2316(3) 0.4707(4)
H8_4 H 0.9082 0.1990 0.4054
C11_4 C 0.6140(2) 0.4473(3) 0.0692(4)
C12_4 C 0.6909(2) 0.4095(3) 0.1081(4)
C13_4 C 0.7319(2) 0.3727(3) 0.2476(4)
H9_4 H 0.7115 0.3704 0.3183
C14_4 C 0.8032(2) 0.3390(4) 0.2844(5)
C15_4 C 0.8322(3) 0.3408(4) 0.1771(5)
H10_4 H 0.8800 0.3183 0.2004
C16_4 C 0.7910(3) 0.3754(5) 0.0362(6)
C17_4 C 0.7209(3) 0.4118(4) 0.0014(5)
C18_4 C 0.8462(2) 0.3050(4) 0.4367(5)
C19_4 C 0.8464(3) 0.3374(4) 0.5695(5)
H13_4 H 0.8169 0.3876 0.5842
C20_4 C 0.8996(3) 0.2803(4) 0.6777(5)
H14_4 H 0.9116 0.2869 0.7790
O6_4 O 0.58108(17) 0.4157(3) 0.1470(3)
C9_4 C 0.1536(3) 0.3374(4) 0.9305(5)
H6_4 H 0.1831 0.3876 0.9158
C10_4 C 0.1004(3) 0.2803(4) 0.8223(5)
H7_4 H 0.0884 0.2869 0.7210
H11_2 H 0.8106 0.3743 0.9642
H12_2 H 0.6938 0.4377 0.9073
H11_3 H 0.6894 0.1257 0.0358
H12_3 H 0.8062 0.0623 0.0927
H11_4 H 0.3106 0.8743 0.9642
H12_4 H 0.1938 0.9377 0.9073
loop_
_geom_bond_atom_site_label_1
_geom_bond_atom_site_label_2
_geom_bond_site_symmetry_1
_geom_bond_site_symmetry_2
H6 C9 1_555 1_555
C10 N1 1_555 1_555
H7 C10 1_555 1_555
Er5 N1 1_555 1_555
C9 C10 1_555 1_555
Er1 O1 1_555 1_555
N2 H1 1_555 1_555
C1 C2 1_555 1_555
C2 C3 1_555 1_555
C3 H2 1_555 1_555
C4 C3 1_555 1_555
C5 C4 1_555 1_555
H3 C5 1_555 1_555
C6 C5 1_555 1_555
H4 C6 1_555 1_555
C7 C2 1_555 1_555
H5 C7 1_555 1_555
C8 N2 1_555 1_555
O1 C1 1_555 1_555
N6 Er1 1_555 1_555
O9 Er1 1_555 1_555
C4 C8 1_555 1_555
C6 C7 1_555 1_555
O4 N3 1_555 1_555
Er3 O2 1_555 1_555
N3 O5 1_555 1_555
N4 N5 1_555 1_555
N5 H8 1_555 1_555
C11 C12 1_555 1_555
C12 C13 1_555 1_555
C13 H9 1_555 1_555
C14 C13 1_555 1_555
C15 C14 1_555 1_555
H10 C15 1_555 1_555
C16 C15 1_555 1_555
C17 C12 1_555 1_555
C18 N5 1_555 1_555
C19 C18 1_555 1_555
H13 C19 1_555 1_555
C20 N4 1_555 1_555
H14 C20 1_555 1_555
O6 Er1_2 1_555 1_555
Er5 N4 1_555 1_555
N7 Er1_2 1_555 1_555
O8 Er1_2 1_555 1_555
C11 O6 1_555 1_555
C14 C18 1_555 1_555
C16 C17 1_555 1_555
C19 C20 1_555 1_555
Er3_2 O7 1_555 1_555
N3_2 O3 1_555 1_555
O4_2 N3_2 1_555 1_555
H6_2 C9_2 1_555 1_555
C10_2 N1_2 1_555 1_555
H7_2 C10_2 1_555 1_555
Er5 O7_2 1_555 1_555
Er3_2 N1_2 1_555 1_555
C9_2 C10_2 1_555 1_555
Er1_3 O1_2 1_555 1_555
N2_2 H1_2 1_555 1_555
N3_3 O3_2 1_555 1_555
C1_2 C2_2 1_555 1_555
C2_2 C3_2 1_555 1_555
C3_2 H2_2 1_555 1_555
C4_2 C3_2 1_555 1_555
C5_2 C4_2 1_555 1_555
H3_2 C5_2 1_555 1_555
C6_2 C5_2 1_555 1_555
H4_2 C6_2 1_555 1_555
C7_2 C2_2 1_555 1_555
H5_2 C7_2 1_555 1_555
C8_2 N2_2 1_555 1_555
O1_2 C1_2 1_555 1_555
O2_2 C1_2 1_555 1_555
O3_2 Er1_3 1_555 1_555
O4_3 N3_3 1_555 1_555
O5_2 Er1_3 1_555 1_555
N4_2 N5_2 1_555 1_555
N5_2 H8_2 1_555 1_555
C11_2 C12_2 1_555 1_555
C12_2 C13_2 1_555 1_555
C13_2 H9_2 1_555 1_555
C14_2 C13_2 1_555 1_555
C15_2 C14_2 1_555 1_555
H10_2 C15_2 1_555 1_555
C16_2 C15_2 1_555 1_555
C17_2 C12_2 1_555 1_555
C18_2 N5_2 1_555 1_555
C19_2 C18_2 1_555 1_555
H13_2 C19_2 1_555 1_555
C20_2 N4_2 1_555 1_555
H14_2 C20_2 1_555 1_555
O6_2 Er1_3 1_555 1_555
Er5 O2_2 1_555 1_555
Er3 N4_2 1_555 1_555
N6_2 Er1_3 1_555 1_555
N7_2 Er1_3 1_555 1_555
O8_2 Er1_3 1_555 1_555
O9_2 Er1_3 1_555 1_555
N3_3 O5_2 1_555 1_555
C4_2 C8_2 1_555 1_555
C6_2 C7_2 1_555 1_555
C11_2 O6_2 1_555 1_555
C14_2 C18_2 1_555 1_555
C16_2 C17_2 1_555 1_555
C19_2 C20_2 1_555 1_555
N3_4 O3_3 1_555 1_555
O4_4 N3_4 1_555 1_555
N7_2 N5_3 1_555 1_555
N5_3 H8_3 1_555 1_555
C11_3 C12_3 1_555 1_555
C12_3 C13_3 1_555 1_555
C13_3 H9_3 1_555 1_555
C14_3 C13_3 1_555 1_555
C15_3 C14_3 1_555 1_555
H10_3 C15_3 1_555 1_555
C16_3 C15_3 1_555 1_555
C17_3 C12_3 1_555 1_555
C18_3 N5_3 1_555 1_555
C19_3 C18_3 1_555 1_555
H13_3 C19_3 1_555 1_555
C20_3 N7_2 1_555 1_555
H14_3 C20_3 1_555 1_555
O6_3 Er3 1_555 1_555
C11_3 O6_3 1_555 1_555
C14_3 C18_3 1_555 1_555
C16_3 C17_3 1_555 1_555
C19_3 C20_3 1_555 1_555
O4_5 N3_5 1_555 1_555
N3_5 O5_3 1_555 1_555
Er3_2 O1_3 1_555 1_555
N2_3 H1_3 1_555 1_555
C1_3 C2_3 1_555 1_555
C2_3 C3_3 1_555 1_555
C3_3 H2_3 1_555 1_555
C4_3 C3_3 1_555 1_555
C5_3 C4_3 1_555 1_555
H3_3 C5_3 1_555 1_555
C6_3 C5_3 1_555 1_555
H4_3 C6_3 1_555 1_555
C7_3 C2_3 1_555 1_555
H5_3 C7_3 1_555 1_555
C8_3 N2_3 1_555 1_555
O1_3 C1_3 1_555 1_555
C4_3 C8_3 1_555 1_555
C6_3 C7_3 1_555 1_555
H6_3 C9_3 1_555 1_555
C10_3 N6_2 1_555 1_555
H7_3 C10_3 1_555 1_555
C9_3 C10_3 1_555 1_555
Er5 O1_4 1_555 1_555
N2_4 H1_4 1_555 1_555
N3_6 O3_4 1_555 1_555
C1_4 C2_4 1_555 1_555
C2_4 C3_4 1_555 1_555
C3_4 H2_4 1_555 1_555
C4_4 C3_4 1_555 1_555
C5_4 C4_4 1_555 1_555
H3_4 C5_4 1_555 1_555
C6_4 C5_4 1_555 1_555
H4_4 C6_4 1_555 1_555
C7_4 C2_4 1_555 1_555
H5_4 C7_4 1_555 1_555
C8_4 N2_4 1_555 1_555
O1_4 C1_4 1_555 1_555
O8_2 C1_4 1_555 1_555
O3_4 Er5 1_555 1_555
O4_6 N3_6 1_555 1_555
O5_4 Er5 1_555 1_555
N7 N5_4 1_555 1_555
N5_4 H8_4 1_555 1_555
C11_4 C12_4 1_555 1_555
C12_4 C13_4 1_555 1_555
C13_4 H9_4 1_555 1_555
C14_4 C13_4 1_555 1_555
C15_4 C14_4 1_555 1_555
H10_4 C15_4 1_555 1_555
C16_4 C15_4 1_555 1_555
C17_4 C12_4 1_555 1_555
C18_4 N5_4 1_555 1_555
C19_4 C18_4 1_555 1_555
H13_4 C19_4 1_555 1_555
C20_4 N7 1_555 1_555
H14_4 C20_4 1_555 1_555
O6_4 Er5 1_555 1_555
N3_6 O5_4 1_555 1_555
C4_4 C8_4 1_555 1_555
C6_4 C7_4 1_555 1_555
C11_4 O6_4 1_555 1_555
C14_4 C18_4 1_555 1_555
C16_4 C17_4 1_555 1_555
C19_4 C20_4 1_555 1_555
H6_4 C9_4 1_555 1_555
C10_4 N6 1_555 1_555
H7_4 C10_4 1_555 1_555
C9_4 C10_4 1_555 1_555

#END
