
###############################################################################
#
# This file contains modified crystal structure data generated from the
# MOF subset of the Cambridge Structural Database (CSD) v543 
# hosted by the Cambridge Crystallographic Data Centre (CCDC).
#
# This work is licensed under the Creative Commons
# Attribution-NonCommercial-ShareAlike 4.0 International License.
# To view a copy of this license, visit
# http://creativecommons.org/licenses/by-nc-sa/4.0/
# or send a letter to
# Creative Commons, PO Box 1866, Mountain View, CA 94042, USA.
#
# CIF created using the CSD Python API on 29 September 2022
# The structure has been converted into the P1 space group
# The structure has a 3D framework
# The original CSD entry EKIKOB is in the monoclinic crystal system
# The framework has been calculated to contain at least 10.0% void space
# The void calculation uses a probe of radius 1.32A, grid spacing 0.4
# H atom positions have been added when not included in the experimental data
#
###############################################################################

data_EKIKOB
_chemical_formula_moiety         '(C172 H132 Co12 N20 O46)n'
_symmetry_cell_setting           triclinic
_symmetry_space_group_name_H-M   'P 1'
_symmetry_Int_Tables_number      1
_space_group_name_Hall           'P 1'
loop_
_symmetry_equiv_pos_site_id
_symmetry_equiv_pos_as_xyz
1 x,y,z
_cell_length_a                   24.6917(9)
_cell_length_b                   20.7234(8)
_cell_length_c                   9.8181(4)
_cell_angle_alpha                90
_cell_angle_beta                 97.439(2)
_cell_angle_gamma                90
_cell_volume                     4981.6
loop_
_atom_site_label
_atom_site_type_symbol
_atom_site_fract_x
_atom_site_fract_y
_atom_site_fract_z
O3 O 0.14491(7) 0.77131(9) 0.04456(18)
O4 O 0.14052(7) 0.72005(8) 0.24289(17)
C10 C 0.06602(10) 0.70900(12) 0.0690(2)
C11 C 0.03834(10) 0.66835(13) 0.1492(3)
H7 H 0.054666 0.657138 0.239063
C38 C 0.12140(10) 0.73516(11) 0.1222(2)
Co4 Co 0.20117(2) 0.85299(2) 0.08267(3)
Co6 Co 0.19520(2) 0.77287(2) 0.37598(3)
C9 C 0.04157(11) 0.72451(13) 0.9377(3)
H6 H 0.060140 0.751883 0.881487
Co7 Co 0.19520(2) 0.72713(2) 0.87598(3)
O7 O 0.66281(8) 0.14170(9) 0.8862(2)
O8 O 0.73811(8) 0.07851(9) 0.9043(2)
C33 C 0.60309(12) 0.03523(14) 0.9729(3)
H22 H 0.584897 0.075714 0.967493
C34 C 0.65541(12) 0.03008(13) 0.9331(3)
C40 C 0.68766(11) 0.08830(13) 0.9036(3)
Co5 Co 0.79883(2) 0.14701(2) 0.91733(3)
Co11 Co 0.69949(2) 0.23389(2) 0.89631(3)
Co1 Co 0.79883(2) 0.35299(2) 0.41733(3)
Co2 Co 0.80480(2) 0.27287(2) 0.12402(3)
Co3 Co 0.69949(2) 0.26611(2) 0.39631(3)
O1 O 0.84054(9) 0.41257(10) 0.3046(2)
O2 O 0.85221(8) 0.35254(9) 0.1222(2)
O9 O 0.75826(7) 0.30053(8) 0.54937(17)
O10 O 0.75385(6) 0.30074(9) 0.26027(16)
O11 O 0.75042(8) 0.17708(9) 0.4528(2)
O12 O 0.84456(8) 0.39327(10) 0.6000(2)
N5 N 0.73179(12) 0.07974(13) 0.3494(3)
C2 C 0.85120(13) 0.57617(14) 0.0524(3)
H1 H 0.830344 0.614494 0.056236
C3 C 0.83791(13) 0.52121(15) 0.1216(3)
H2 H 0.809038 0.522589 0.176751
C4 C 0.86665(12) 0.46401(13) 0.1106(3)
C5 C 0.90808(12) 0.46254(14) 0.0301(3)
H3 H 0.926489 0.423098 0.018071
C12 C 0.98739(11) 0.64405(13) 0.1000(3)
H8 H 0.968961 0.616640 0.156483
C37 C 0.85231(11) 0.40473(13) 0.1853(3)
C41 C 0.76373(12) 0.12813(14) 0.3889(3)
H25 H 0.800146 0.126301 0.367569
C42 C 0.75210(18) 0.02463(19) 0.2769(4)
H27 H 0.764576 0.039612 0.191519
H28 H 0.782602 0.004413 0.335330
C43 C 0.67587(18) 0.0778(2) 0.3808(8)
H29 H 0.658178 0.038088 0.343367
H30 H 0.675929 0.078598 0.480668
H31 H 0.655809 0.115249 0.339705
Co8 Co 0.80480(2) 0.22713(2) 0.62402(3)
O13 O 0.85509(7) 0.27131(9) 0.45544(18)
O15 O 0.85948(7) 0.22005(8) 0.25711(17)
O16 O 0.64613(8) 0.22081(9) 0.25508(18)
O17 O 0.65465(7) 0.23427(9) 0.55269(18)
O18 O 0.66281(8) 0.35830(9) 0.3862(2)
O19 O 0.73811(8) 0.42149(9) 0.4043(2)
O20 O 0.75826(7) 0.19947(8) 0.04937(17)
H32 H 0.837675 0.440421 0.603194
H33 H 0.832882 0.372425 0.682485
N1 N 0.91208(9) 0.63250(12) 0.9162(3)
N2 N 0.75800(11) 0.76561(14) 0.5480(3)
N3 N 0.72896(11) 0.73234(14) 0.4612(3)
N4 N 0.58041(9) 0.86697(12) 0.0822(3)
C1 C 0.89499(11) 0.57481(13) 0.9779(3)
C6 C 0.92325(12) 0.51770(15) 0.9664(3)
H4 H 0.953136 0.516584 0.914420
C7 C 0.96282(10) 0.65954(13) 0.9677(3)
C8 C 0.99073(11) 0.70075(13) 0.8879(3)
H5 H 0.974439 0.712479 0.798324
C13 C 0.87336(11) 0.66539(14) 0.8230(3)
C14 C 0.84067(13) 0.63037(16) 0.7233(4)
H9 H 0.844956 0.584920 0.718058
C15 C 0.80191(13) 0.66139(18) 0.6317(4)
H10 H 0.779497 0.637163 0.564244
C16 C 0.79569(13) 0.72817(16) 0.6384(3)
C17 C 0.82786(14) 0.76244(16) 0.7396(4)
H11 H 0.823172 0.807774 0.746328
C18 C 0.86626(13) 0.73191(15) 0.8300(4)
H12 H 0.888257 0.756255 0.898144
C19 C 0.69127(13) 0.76931(16) 0.3711(3)
C20 C 0.65923(13) 0.73493(16) 0.2695(4)
H13 H 0.662943 0.689384 0.264890
C21 C 0.62209(13) 0.76615(15) 0.1753(3)
H14 H 0.600496 0.742114 0.105901
C22 C 0.61611(11) 0.83267(14) 0.1815(3)
C23 C 0.64718(13) 0.86716(16) 0.2848(4)
H15 H 0.642671 0.912553 0.290643
C24 C 0.68470(14) 0.83590(18) 0.3792(4)
H16 H 0.705921 0.859808 0.449507
C25 C 0.52868(10) 0.84315(13) 0.0291(3)
C26 C 0.49904(11) 0.80473(14) 0.1106(3)
H17 H 0.513880 0.794916 0.202443
C27 C 0.44841(11) 0.78110(13) 0.0582(3)
H18 H 0.428718 0.755060 0.114443
C31 C 0.60353(11) 0.92215(13) 0.0246(3)
C32 C 0.57785(12) 0.98157(14) 0.0201(3)
H21 H 0.542809 0.985546 0.049372
Co9 Co 0.30051(2) 0.76611(2) 0.10369(3)
O14 O 0.85509(7) 0.22869(9) 0.95544(18)
O21 O 0.75042(8) 0.32292(9) 0.9528(2)
O5 O 0.35387(8) 0.77919(9) 0.74492(18)
O6 O 0.34535(7) 0.73427(9) 0.94731(18)
C28 C 0.42575(10) 0.79475(12) 0.9245(2)
C29 C 0.45476(11) 0.83363(13) 0.8440(3)
H19 H 0.439447 0.843927 0.752803
C30 C 0.50566(11) 0.85749(13) 0.8953(3)
H20 H 0.525075 0.883827 0.838889
C35 C 0.68021(13) 0.96968(14) 0.9357(3)
H23 H 0.715323 0.965464 0.906936
C36 C 0.65447(12) 0.91584(14) 0.9795(3)
H24 H 0.671417 0.874697 0.978941
C39 C 0.37079(10) 0.76750(11) 0.8700(3)
Co10 Co 0.30051(2) 0.73389(2) 0.60369(3)
O5_2 O 0.64613(8) 0.27919(9) 0.75508(18)
O7_2 O 0.33719(8) 0.64170(9) 0.6138(2)
O8_2 O 0.26189(8) 0.57851(9) 0.5957(2)
N3_2 N 0.27104(11) 0.23234(14) 0.0388(3)
N4_2 N 0.41959(9) 0.36697(12) 0.4178(3)
C19_2 C 0.30873(13) 0.26931(16) 0.1289(3)
C20_2 C 0.34077(13) 0.23493(16) 0.2305(4)
H13_2 H 0.337057 0.189384 0.235110
C21_2 C 0.37791(13) 0.26615(15) 0.3247(3)
H14_2 H 0.399504 0.242114 0.394099
C22_2 C 0.38389(11) 0.33267(14) 0.3185(3)
C23_2 C 0.35282(13) 0.36716(16) 0.2152(4)
H15_2 H 0.357329 0.412553 0.209357
C24_2 C 0.31530(14) 0.33590(18) 0.1208(4)
H16_2 H 0.294079 0.359808 0.050493
C25_2 C 0.47132(10) 0.34315(13) 0.4709(3)
C26_2 C 0.50096(11) 0.30473(14) 0.3894(3)
H17_2 H 0.486120 0.294916 0.297557
C27_2 C 0.55159(11) 0.28110(13) 0.4418(3)
H18_2 H 0.571282 0.255060 0.385557
C28_2 C 0.57425(10) 0.29475(12) 0.5755(2)
C29_2 C 0.54524(11) 0.33363(13) 0.6560(3)
H19_2 H 0.560553 0.343927 0.747197
C30_2 C 0.49434(11) 0.35749(13) 0.6047(3)
H20_2 H 0.474925 0.383827 0.661111
C31_2 C 0.39647(11) 0.42215(13) 0.4754(3)
C32_2 C 0.42215(12) 0.48157(14) 0.4799(3)
H21_2 H 0.457191 0.485546 0.450628
C33_2 C 0.39691(12) 0.53523(14) 0.5271(3)
H22_2 H 0.415103 0.575714 0.532507
C34_2 C 0.34459(12) 0.53008(13) 0.5669(3)
C35_2 C 0.31979(13) 0.46968(14) 0.5643(3)
H23_2 H 0.284677 0.465464 0.593064
C36_2 C 0.34553(12) 0.41584(14) 0.5205(3)
H24_2 H 0.328583 0.374697 0.521059
C39_2 C 0.62921(10) 0.26750(11) 0.6300(3)
C40_2 C 0.31234(11) 0.58830(13) 0.5964(3)
Co5_2 Co 0.20117(2) 0.64701(2) 0.58267(3)
O1_2 O 0.15946(9) 0.91257(10) 0.1954(2)
O2_2 O 0.14779(8) 0.85254(9) 0.3778(2)
O10_2 O 0.24615(6) 0.80074(9) 0.23973(16)
O11_2 O 0.24958(8) 0.67708(9) 0.0472(2)
N5_2 N 0.26821(12) 0.57974(13) 0.1506(3)
C4_2 C 0.13335(12) 0.96401(13) 0.3894(3)
C5_2 C 0.09192(12) 0.96254(14) 0.4699(3)
H3_2 H 0.073511 0.923098 0.481929
C37_2 C 0.14769(11) 0.90473(13) 0.3147(3)
C41_2 C 0.23627(12) 0.62813(14) 0.1111(3)
H25_2 H 0.199854 0.626301 0.132431
C42_2 C 0.24790(18) 0.52463(19) 0.2231(4)
H26 H 0.277334 0.493084 0.244659
H27_2 H 0.235424 0.539612 0.308481
H28_2 H 0.217398 0.504413 0.164670
C43_2 C 0.32413(18) 0.5778(2) 0.1192(8)
H29_2 H 0.341822 0.538088 0.156633
H30_2 H 0.324071 0.578598 0.019332
H31_2 H 0.344191 0.615249 0.160295
O14_2 O 0.14491(7) 0.72869(9) 0.54456(18)
O16_2 O 0.35387(8) 0.72081(9) 0.24492(18)
O18_2 O 0.33719(8) 0.85830(9) 0.1138(2)
O19_2 O 0.26189(8) 0.92149(9) 0.0957(2)
O20_2 O 0.24174(7) 0.69947(8) 0.45063(17)
O21_2 O 0.24958(8) 0.82292(9) 0.5472(2)
O9_2 O 0.24174(7) 0.80053(8) 0.95063(17)
O12_2 O 0.15544(8) 0.89327(10) 0.9000(2)
H32_2 H 0.162325 0.940421 0.896806
H33_2 H 0.167118 0.872425 0.817515
C9_2 C 0.95843(11) 0.22451(13) 0.5623(3)
H6_2 H 0.939860 0.251883 0.618513
C10_2 C 0.93398(10) 0.20900(12) 0.4310(2)
C11_2 C 0.96166(10) 0.16835(13) 0.3508(3)
H7_2 H 0.945334 0.157138 0.260937
C38_2 C 0.87860(10) 0.23516(11) 0.3778(2)
O6_2 O 0.65465(7) 0.26573(9) 0.05269(18)
C28_3 C 0.57425(10) 0.20525(12) 0.0755(2)
C29_3 C 0.54524(11) 0.16637(13) 0.1560(3)
H19_3 H 0.560553 0.156073 0.247197
C30_3 C 0.49434(11) 0.14251(13) 0.1047(3)
H20_3 H 0.474925 0.116173 0.161111
C35_3 C 0.31979(13) 0.03032(14) 0.0643(3)
H23_3 H 0.284677 0.034536 0.093064
C36_3 C 0.34553(12) 0.08416(14) 0.0205(3)
H24_3 H 0.328583 0.125303 0.021059
C39_3 C 0.62921(10) 0.23250(11) 0.1300(3)
N1_2 N 0.08792(9) 0.36750(12) 0.0838(3)
N2_2 N 0.24200(11) 0.23439(14) 0.4520(3)
N3_3 N 0.27104(11) 0.26766(14) 0.5388(3)
N4_3 N 0.41959(9) 0.13303(12) 0.9178(3)
C1_2 C 0.10501(11) 0.42519(13) 0.0221(3)
C6_2 C 0.07675(12) 0.48230(15) 0.0336(3)
H4_2 H 0.046864 0.483416 0.085580
C7_2 C 0.03718(10) 0.34046(13) 0.0323(3)
C8_2 C 0.00927(11) 0.29925(13) 0.1121(3)
H5_2 H 0.025561 0.287521 0.201676
C13_2 C 0.12664(11) 0.33461(14) 0.1770(3)
C14_2 C 0.15933(13) 0.36963(16) 0.2767(4)
H9_2 H 0.155044 0.415080 0.281942
C15_2 C 0.19809(13) 0.33861(18) 0.3683(4)
H10_2 H 0.220503 0.362837 0.435756
C16_2 C 0.20431(13) 0.27183(16) 0.3616(3)
C17_2 C 0.17214(14) 0.23756(16) 0.2604(4)
H11_2 H 0.176828 0.192226 0.253672
C18_2 C 0.13374(13) 0.26809(15) 0.1700(4)
H12_2 H 0.111743 0.243745 0.101856
C19_3 C 0.30873(13) 0.23069(16) 0.6289(3)
C20_3 C 0.34077(13) 0.26507(16) 0.7305(4)
H13_3 H 0.337057 0.310616 0.735110
C21_3 C 0.37791(13) 0.23385(15) 0.8247(3)
H14_3 H 0.399504 0.257886 0.894099
C22_3 C 0.38389(11) 0.16733(14) 0.8185(3)
C23_3 C 0.35282(13) 0.13284(16) 0.7152(4)
H15_3 H 0.357329 0.087447 0.709357
C24_3 C 0.31530(14) 0.16410(18) 0.6208(4)
H16_3 H 0.294079 0.140192 0.550493
C25_3 C 0.47132(10) 0.15685(13) 0.9709(3)
C26_3 C 0.50096(11) 0.19527(14) 0.8894(3)
H17_3 H 0.486120 0.205084 0.797557
C27_3 C 0.55159(11) 0.21890(13) 0.9418(3)
H18_3 H 0.571282 0.244940 0.885557
C31_3 C 0.39647(11) 0.07785(13) 0.9754(3)
C32_3 C 0.42215(12) 0.01843(14) 0.9799(3)
H21_3 H 0.457191 0.014454 0.950628
O1_3 O 0.15946(9) 0.58743(10) 0.6954(2)
O2_3 O 0.14779(8) 0.64746(9) 0.8778(2)
O10_3 O 0.24615(6) 0.69926(9) 0.73973(16)
O12_3 O 0.15544(8) 0.60673(10) 0.4000(2)
N5_3 N 0.26821(12) 0.92026(13) 0.6506(3)
C2_2 C 0.14880(13) 0.42383(14) 0.9476(3)
H1_2 H 0.169656 0.385506 0.943764
C3_2 C 0.16209(13) 0.47879(15) 0.8784(3)
H2_2 H 0.190962 0.477411 0.823249
C4_3 C 0.13335(12) 0.53599(13) 0.8894(3)
C5_3 C 0.09192(12) 0.53746(14) 0.9699(3)
H3_3 H 0.073511 0.576902 0.981929
C12_2 C 0.01261(11) 0.35595(13) 0.9000(3)
H8_2 H 0.031039 0.383360 0.843517
C37_3 C 0.14769(11) 0.59527(13) 0.8147(3)
C41_3 C 0.23627(12) 0.87187(14) 0.6111(3)
H25_3 H 0.199854 0.873699 0.632431
C42_3 C 0.24790(18) 0.97537(19) 0.7231(4)
H27_3 H 0.235424 0.960388 0.808481
H28_3 H 0.217398 0.995587 0.664670
C43_3 C 0.32413(18) 0.9222(2) 0.6192(8)
H29_3 H 0.341822 0.961912 0.656633
H30_3 H 0.324071 0.921402 0.519332
H31_3 H 0.344191 0.884751 0.660295
O15_2 O 0.14052(7) 0.77995(8) 0.74289(17)
O17_2 O 0.34535(7) 0.76573(9) 0.44731(18)
H32_3 H 0.162325 0.559579 0.396806
H33_3 H 0.167118 0.627575 0.317515
C33_3 C 0.39691(12) 0.96477(14) 0.0271(3)
H22_3 H 0.415103 0.924286 0.032507
C34_3 C 0.34459(12) 0.96992(13) 0.0669(3)
C40_3 C 0.31234(11) 0.91170(13) 0.0964(3)
C9_3 C 0.95843(11) 0.27549(13) 0.0623(3)
H6_3 H 0.939860 0.248117 0.118513
O4_2 O 0.85948(7) 0.27995(8) 0.75711(17)
C10_3 C 0.93398(10) 0.29100(12) 0.9310(2)
C11_3 C 0.96166(10) 0.33165(13) 0.8508(3)
H7_3 H 0.945334 0.342862 0.760937
C38_3 C 0.87860(10) 0.26484(11) 0.8778(2)
C9_4 C 0.04157(11) 0.77549(13) 0.4377(3)
H6_4 H 0.060140 0.748117 0.381487
C10_4 C 0.06602(10) 0.79100(12) 0.5690(2)
C11_4 C 0.03834(10) 0.83165(13) 0.6492(3)
H7_4 H 0.054666 0.842862 0.739063
C38_4 C 0.12140(10) 0.76484(11) 0.6222(2)
O12_4 O 0.84456(8) 0.10673(10) 0.1000(2)
H32_4 H 0.837675 0.0595789 0.103194
H33_4 H 0.832882 0.127575 0.182485
O1_4 O 0.84054(9) 0.08743(10) 0.8046(2)
O2_4 O 0.85221(8) 0.14746(9) 0.6222(2)
O10_4 O 0.75385(6) 0.19926(9) 0.76027(16)
N5_4 N 0.73179(12) 0.42026(13) 0.8494(3)
C4_4 C 0.86665(12) 0.03599(13) 0.6106(3)
C5_4 C 0.90808(12) 0.03746(14) 0.5301(3)
H3_4 H 0.926489 0.076902 0.518071
C37_4 C 0.85231(11) 0.09527(13) 0.6853(3)
C41_4 C 0.76373(12) 0.37187(14) 0.8889(3)
H25_4 H 0.800146 0.373699 0.867569
C42_4 C 0.75210(18) 0.47537(19) 0.7769(4)
H26_2 H 0.722666 0.506916 0.755341
H27_4 H 0.764576 0.460388 0.691519
H28_4 H 0.782602 0.495587 0.835330
C43_4 C 0.67587(18) 0.4222(2) 0.8808(8)
H29_4 H 0.658178 0.461912 0.843367
H30_4 H 0.675929 0.421402 0.980668
H31_4 H 0.655809 0.384751 0.839705
N3_4 N 0.72896(11) 0.76766(14) 0.9612(3)
N4_4 N 0.58041(9) 0.63303(12) 0.5822(3)
C19_4 C 0.69127(13) 0.73069(16) 0.8711(3)
C20_4 C 0.65923(13) 0.76507(16) 0.7695(4)
H13_4 H 0.662943 0.810616 0.764890
C21_4 C 0.62209(13) 0.73385(15) 0.6753(3)
H14_4 H 0.600496 0.757886 0.605901
C22_4 C 0.61611(11) 0.66733(14) 0.6815(3)
C23_4 C 0.64718(13) 0.63284(16) 0.7848(4)
H15_4 H 0.642671 0.587447 0.790643
C24_4 C 0.68470(14) 0.66410(18) 0.8792(4)
H16_4 H 0.705921 0.640192 0.949507
C25_4 C 0.52868(10) 0.65685(13) 0.5291(3)
C26_4 C 0.49904(11) 0.69527(14) 0.6106(3)
H17_4 H 0.513880 0.705084 0.702443
C27_4 C 0.44841(11) 0.71890(13) 0.5582(3)
H18_4 H 0.428718 0.744940 0.614443
C28_4 C 0.42575(10) 0.70525(12) 0.4245(2)
C29_4 C 0.45476(11) 0.66637(13) 0.3440(3)
H19_4 H 0.439447 0.656073 0.252803
C30_4 C 0.50566(11) 0.64251(13) 0.3953(3)
H20_4 H 0.525075 0.616173 0.338889
C31_4 C 0.60353(11) 0.57785(13) 0.5246(3)
C32_4 C 0.57785(12) 0.51843(14) 0.5201(3)
H21_4 H 0.542809 0.514454 0.549372
C33_4 C 0.60309(12) 0.46477(14) 0.4729(3)
H22_4 H 0.584897 0.424286 0.467493
C34_4 C 0.65541(12) 0.46992(13) 0.4331(3)
C35_4 C 0.68021(13) 0.53032(14) 0.4357(3)
H23_4 H 0.715323 0.534536 0.406936
C36_4 C 0.65447(12) 0.58416(14) 0.4795(3)
H24_4 H 0.671417 0.625303 0.478941
C39_4 C 0.37079(10) 0.73250(11) 0.3700(3)
C40_4 C 0.68766(11) 0.41170(13) 0.4036(3)
H26_3 H 0.722666 0.993084 0.255341
N1_3 N 0.08792(9) 0.13250(12) 0.5838(3)
N2_3 N 0.24200(11) 0.26561(14) 0.9520(3)
C1_3 C 0.10501(11) 0.07481(13) 0.5221(3)
C2_3 C 0.14880(13) 0.07617(14) 0.4476(3)
H1_3 H 0.169656 0.114494 0.443764
C3_3 C 0.16209(13) 0.02121(15) 0.3784(3)
H2_3 H 0.190962 0.022589 0.323249
C6_3 C 0.07675(12) 0.01770(15) 0.5336(3)
H4_3 H 0.046864 0.016584 0.585580
C7_3 C 0.03718(10) 0.15954(13) 0.5323(3)
C8_3 C 0.00927(11) 0.20075(13) 0.6121(3)
H5_3 H 0.025561 0.212479 0.701676
C12_3 C 0.01261(11) 0.14405(13) 0.4000(3)
H8_3 H 0.031039 0.116640 0.343517
C13_3 C 0.12664(11) 0.16539(14) 0.6770(3)
C14_3 C 0.15933(13) 0.13037(16) 0.7767(4)
H9_3 H 0.155044 0.084920 0.781942
C15_3 C 0.19809(13) 0.16139(18) 0.8683(4)
H10_3 H 0.220503 0.137163 0.935756
C16_3 C 0.20431(13) 0.22817(16) 0.8616(3)
C17_3 C 0.17214(14) 0.26244(16) 0.7604(4)
H11_3 H 0.176828 0.307774 0.753672
C18_3 C 0.13374(13) 0.23191(15) 0.6700(4)
H12_3 H 0.111743 0.256255 0.601856
H26_4 H 0.277334 0.006916 0.744659
N1_4 N 0.91208(9) 0.86750(12) 0.4162(3)
N2_4 N 0.75800(11) 0.73439(14) 0.0480(3)
C1_4 C 0.89499(11) 0.92519(13) 0.4779(3)
C2_4 C 0.85120(13) 0.92383(14) 0.5524(3)
H1_4 H 0.830344 0.885506 0.556236
C3_4 C 0.83791(13) 0.97879(15) 0.6216(3)
H2_4 H 0.809038 0.977411 0.676751
C6_4 C 0.92325(12) 0.98230(15) 0.4664(3)
H4_4 H 0.953136 0.983416 0.414420
C7_4 C 0.96282(10) 0.84046(13) 0.4677(3)
C8_4 C 0.99073(11) 0.79925(13) 0.3879(3)
H5_4 H 0.974439 0.787521 0.298324
C12_4 C 0.98739(11) 0.85595(13) 0.6000(3)
H8_4 H 0.968961 0.883360 0.656483
C13_4 C 0.87336(11) 0.83461(14) 0.3230(3)
C14_4 C 0.84067(13) 0.86963(16) 0.2233(4)
H9_4 H 0.844956 0.915080 0.218058
C15_4 C 0.80191(13) 0.83861(18) 0.1317(4)
H10_4 H 0.779497 0.862837 0.064244
C16_4 C 0.79569(13) 0.77183(16) 0.1384(3)
C17_4 C 0.82786(14) 0.73756(16) 0.2396(4)
H11_4 H 0.823172 0.692226 0.246328
C18_4 C 0.86626(13) 0.76809(15) 0.3300(4)
H12_4 H 0.888257 0.743745 0.398144
loop_
_geom_bond_atom_site_label_1
_geom_bond_atom_site_label_2
_geom_bond_site_symmetry_1
_geom_bond_site_symmetry_2
O3 C38 1_555 1_555
O4 C38 1_555 1_555
C11 C10 1_555 1_555
H7 C11 1_555 1_555
C38 C10 1_555 1_555
Co4 O3 1_555 1_555
Co6 O4 1_555 1_555
H6 C9 1_555 1_555
O7 C40 1_555 1_555
O8 C40 1_555 1_555
H22 C33 1_555 1_555
C34 C33 1_555 1_555
C40 C34 1_555 1_555
Co5 O8 1_555 1_555
Co11 O7 1_555 1_555
Co1 O1 1_555 1_555
Co2 O2 1_555 1_555
Co3 O9 1_555 1_555
O1 C37 1_555 1_555
O2 C37 1_555 1_555
O9 Co1 1_555 1_555
O10 Co1 1_555 1_555
O11 Co3 1_555 1_555
O12 Co1 1_555 1_555
N5 C41 1_555 1_555
C2 H1 1_555 1_555
C3 C2 1_555 1_555
H2 C3 1_555 1_555
C4 C3 1_555 1_555
C5 C4 1_555 1_555
H3 C5 1_555 1_555
H8 C12 1_555 1_555
C37 C4 1_555 1_555
C41 O11 1_555 1_555
H25 C41 1_555 1_555
C42 N5 1_555 1_555
H27 C42 1_555 1_555
H28 C42 1_555 1_555
C43 N5 1_555 1_555
H29 C43 1_555 1_555
H30 C43 1_555 1_555
H31 C43 1_555 1_555
Co8 O9 1_555 1_555
O13 Co1 1_555 1_555
O15 Co2 1_555 1_555
O16 Co3 1_555 1_555
O17 Co3 1_555 1_555
O18 Co3 1_555 1_555
O19 Co1 1_555 1_555
O20 Co2 1_555 1_555
Co2 O10 1_555 1_555
Co3 O10 1_555 1_555
O11 Co8 1_555 1_555
Co8 O13 1_555 1_555
O12 H32 1_555 1_555
O12 H33 1_555 1_555
N1 C1 1_555 1_555
N2 N3 1_555 1_555
N3 C19 1_555 1_555
N4 C22 1_555 1_555
C6 C1 1_555 1_555
H4 C6 1_555 1_555
C7 N1 1_555 1_555
C8 C7 1_555 1_555
H5 C8 1_555 1_555
C13 N1 1_555 1_555
C14 C13 1_555 1_555
H9 C14 1_555 1_555
C15 C14 1_555 1_555
H10 C15 1_555 1_555
C16 N2 1_555 1_555
C17 C16 1_555 1_555
H11 C17 1_555 1_555
C18 C13 1_555 1_555
H12 C18 1_555 1_555
C19 C20 1_555 1_555
C20 H13 1_555 1_555
C21 C20 1_555 1_555
H14 C21 1_555 1_555
C22 C21 1_555 1_555
C23 C22 1_555 1_555
H15 C23 1_555 1_555
C24 C19 1_555 1_555
H16 C24 1_555 1_555
C25 N4 1_555 1_555
C26 C25 1_555 1_555
H17 C26 1_555 1_555
C27 C26 1_555 1_555
H18 C27 1_555 1_555
C31 N4 1_555 1_555
C32 C31 1_555 1_555
H21 C32 1_555 1_555
C15 C16 1_555 1_555
C17 C18 1_555 1_555
C23 C24 1_555 1_555
O5 C39 1_555 1_555
O6 C39 1_555 1_555
C29 C28 1_555 1_555
H19 C29 1_555 1_555
H20 C30 1_555 1_555
H23 C35 1_555 1_555
H24 C36 1_555 1_555
C39 C28 1_555 1_555
Co10 O5 1_555 1_555
C29 C30 1_555 1_555
C35 C36 1_555 1_555
O5_2 C39_2 1_555 1_555
O17 C39_2 1_555 1_555
O7_2 C40_2 1_555 1_555
O8_2 C40_2 1_555 1_555
N3_2 C19_2 1_555 1_555
N4_2 C22_2 1_555 1_555
C19_2 C20_2 1_555 1_555
C20_2 H13_2 1_555 1_555
C21_2 C20_2 1_555 1_555
H14_2 C21_2 1_555 1_555
C22_2 C21_2 1_555 1_555
C23_2 C22_2 1_555 1_555
H15_2 C23_2 1_555 1_555
C24_2 C19_2 1_555 1_555
H16_2 C24_2 1_555 1_555
C25_2 N4_2 1_555 1_555
C26_2 C25_2 1_555 1_555
H17_2 C26_2 1_555 1_555
C27_2 C26_2 1_555 1_555
H18_2 C27_2 1_555 1_555
C28_2 C27_2 1_555 1_555
C29_2 C28_2 1_555 1_555
H19_2 C29_2 1_555 1_555
C30_2 C25_2 1_555 1_555
H20_2 C30_2 1_555 1_555
C31_2 N4_2 1_555 1_555
C32_2 C31_2 1_555 1_555
H21_2 C32_2 1_555 1_555
C33_2 C32_2 1_555 1_555
H22_2 C33_2 1_555 1_555
C34_2 C33_2 1_555 1_555
C35_2 C34_2 1_555 1_555
H23_2 C35_2 1_555 1_555
C36_2 C31_2 1_555 1_555
H24_2 C36_2 1_555 1_555
C39_2 C28_2 1_555 1_555
C40_2 C34_2 1_555 1_555
Co5_2 O8_2 1_555 1_555
Co11 O5_2 1_555 1_555
Co10 O7_2 1_555 1_555
C23_2 C24_2 1_555 1_555
C29_2 C30_2 1_555 1_555
C35_2 C36_2 1_555 1_555
Co4 O1_2 1_555 1_555
Co6 O2_2 1_555 1_555
O1_2 C37_2 1_555 1_555
O2_2 C37_2 1_555 1_555
O10_2 Co4 1_555 1_555
O11_2 Co9 1_555 1_555
N5_2 C41_2 1_555 1_555
C5_2 C4_2 1_555 1_555
H3_2 C5_2 1_555 1_555
C37_2 C4_2 1_555 1_555
C41_2 O11_2 1_555 1_555
H25_2 C41_2 1_555 1_555
C42_2 N5_2 1_555 1_555
H26 C42_2 1_555 1_555
H27_2 C42_2 1_555 1_555
H28_2 C42_2 1_555 1_555
C43_2 N5_2 1_555 1_555
H29_2 C43_2 1_555 1_555
H30_2 C43_2 1_555 1_555
H31_2 C43_2 1_555 1_555
O14_2 Co6 1_555 1_555
O16_2 Co9 1_555 1_555
O18_2 Co9 1_555 1_555
O19_2 Co4 1_555 1_555
O20_2 Co6 1_555 1_555
O21_2 Co6 1_555 1_555
Co6 O10_2 1_555 1_555
Co9 O10_2 1_555 1_555
Co7 O9_2 1_555 1_555
O12_2 H32_2 1_555 1_555
O12_2 H33_2 1_555 1_555
O13 C38_2 1_555 1_555
O15 C38_2 1_555 1_555
H6_2 C9_2 1_555 1_555
C10_2 C9_2 1_555 1_555
C11_2 C10_2 1_555 1_555
H7_2 C11_2 1_555 1_555
C38_2 C10_2 1_555 1_555
O16 C39_3 1_555 1_555
O6_2 C39_3 1_555 1_555
C29_3 C28_3 1_555 1_555
H19_3 C29_3 1_555 1_555
H20_3 C30_3 1_555 1_555
H23_3 C35_3 1_555 1_555
H24_3 C36_3 1_555 1_555
C39_3 C28_3 1_555 1_555
C29_3 C30_3 1_555 1_555
C35_3 C36_3 1_555 1_555
N1_2 C1_2 1_555 1_555
N2_2 N3_3 1_555 1_555
N3_3 C19_3 1_555 1_555
N4_3 C22_3 1_555 1_555
C6_2 C1_2 1_555 1_555
H4_2 C6_2 1_555 1_555
C7_2 N1_2 1_555 1_555
C8_2 C7_2 1_555 1_555
H5_2 C8_2 1_555 1_555
C13_2 N1_2 1_555 1_555
C14_2 C13_2 1_555 1_555
H9_2 C14_2 1_555 1_555
C15_2 C14_2 1_555 1_555
H10_2 C15_2 1_555 1_555
C16_2 N2_2 1_555 1_555
C17_2 C16_2 1_555 1_555
H11_2 C17_2 1_555 1_555
C18_2 C13_2 1_555 1_555
H12_2 C18_2 1_555 1_555
C19_3 C20_3 1_555 1_555
C20_3 H13_3 1_555 1_555
C21_3 C20_3 1_555 1_555
H14_3 C21_3 1_555 1_555
C22_3 C21_3 1_555 1_555
C23_3 C22_3 1_555 1_555
H15_3 C23_3 1_555 1_555
C24_3 C19_3 1_555 1_555
H16_3 C24_3 1_555 1_555
C25_3 N4_3 1_555 1_555
C26_3 C25_3 1_555 1_555
H17_3 C26_3 1_555 1_555
C27_3 C26_3 1_555 1_555
H18_3 C27_3 1_555 1_555
C31_3 N4_3 1_555 1_555
C32_3 C31_3 1_555 1_555
H21_3 C32_3 1_555 1_555
C15_2 C16_2 1_555 1_555
C17_2 C18_2 1_555 1_555
C23_3 C24_3 1_555 1_555
Co5_2 O1_3 1_555 1_555
Co7 O2_3 1_555 1_555
Co10 O20_2 1_555 1_555
O1_3 C37_3 1_555 1_555
O2_3 C37_3 1_555 1_555
O20_2 Co5_2 1_555 1_555
O10_3 Co5_2 1_555 1_555
O21_2 Co10 1_555 1_555
O12_3 Co5_2 1_555 1_555
N5_3 C41_3 1_555 1_555
C2_2 H1_2 1_555 1_555
C3_2 C2_2 1_555 1_555
H2_2 C3_2 1_555 1_555
C4_3 C3_2 1_555 1_555
C5_3 C4_3 1_555 1_555
H3_3 C5_3 1_555 1_555
H8_2 C12_2 1_555 1_555
C37_3 C4_3 1_555 1_555
C41_3 O21_2 1_555 1_555
H25_3 C41_3 1_555 1_555
C42_3 N5_3 1_555 1_555
H27_3 C42_3 1_555 1_555
H28_3 C42_3 1_555 1_555
C43_3 N5_3 1_555 1_555
H29_3 C43_3 1_555 1_555
H30_3 C43_3 1_555 1_555
H31_3 C43_3 1_555 1_555
O14_2 Co5_2 1_555 1_555
O15_2 Co7 1_555 1_555
O17_2 Co10 1_555 1_555
Co7 O10_3 1_555 1_555
Co10 O10_3 1_555 1_555
O12_3 H32_3 1_555 1_555
O12_3 H33_3 1_555 1_555
O18_2 C40_3 1_555 1_555
O19_2 C40_3 1_555 1_555
H22_3 C33_3 1_555 1_555
C34_3 C33_3 1_555 1_555
C40_3 C34_3 1_555 1_555
H6_3 C9_3 1_555 1_555
O14 C38_3 1_555 1_555
O4_2 C38_3 1_555 1_555
C11_3 C10_3 1_555 1_555
H7_3 C11_3 1_555 1_555
C38_3 C10_3 1_555 1_555
Co5 O14 1_555 1_555
Co8 O4_2 1_555 1_555
O14_2 C38_4 1_555 1_555
O15_2 C38_4 1_555 1_555
H6_4 C9_4 1_555 1_555
C10_4 C9_4 1_555 1_555
C11_4 C10_4 1_555 1_555
H7_4 C11_4 1_555 1_555
C38_4 C10_4 1_555 1_555
O12_4 H32_4 1_555 1_555
O12_4 H33_4 1_555 1_555
Co5 O1_4 1_555 1_555
Co8 O2_4 1_555 1_555
O1_4 C37_4 1_555 1_555
O2_4 C37_4 1_555 1_555
O10_4 Co5 1_555 1_555
O21 Co11 1_555 1_555
N5_4 C41_4 1_555 1_555
C5_4 C4_4 1_555 1_555
H3_4 C5_4 1_555 1_555
C37_4 C4_4 1_555 1_555
C41_4 O21 1_555 1_555
H25_4 C41_4 1_555 1_555
C42_4 N5_4 1_555 1_555
H26_2 C42_4 1_555 1_555
H27_4 C42_4 1_555 1_555
H28_4 C42_4 1_555 1_555
C43_4 N5_4 1_555 1_555
H29_4 C43_4 1_555 1_555
H30_4 C43_4 1_555 1_555
H31_4 C43_4 1_555 1_555
Co8 O10_4 1_555 1_555
Co11 O10_4 1_555 1_555
O16_2 C39_4 1_555 1_555
O17_2 C39_4 1_555 1_555
O18 C40_4 1_555 1_555
O19 C40_4 1_555 1_555
N3_4 C19_4 1_555 1_555
N4_4 C22_4 1_555 1_555
C19_4 C20_4 1_555 1_555
C20_4 H13_4 1_555 1_555
C21_4 C20_4 1_555 1_555
H14_4 C21_4 1_555 1_555
C22_4 C21_4 1_555 1_555
C23_4 C22_4 1_555 1_555
H15_4 C23_4 1_555 1_555
C24_4 C19_4 1_555 1_555
H16_4 C24_4 1_555 1_555
C25_4 N4_4 1_555 1_555
C26_4 C25_4 1_555 1_555
H17_4 C26_4 1_555 1_555
C27_4 C26_4 1_555 1_555
H18_4 C27_4 1_555 1_555
C28_4 C27_4 1_555 1_555
C29_4 C28_4 1_555 1_555
H19_4 C29_4 1_555 1_555
C30_4 C25_4 1_555 1_555
H20_4 C30_4 1_555 1_555
C31_4 N4_4 1_555 1_555
C32_4 C31_4 1_555 1_555
H21_4 C32_4 1_555 1_555
C33_4 C32_4 1_555 1_555
H22_4 C33_4 1_555 1_555
C34_4 C33_4 1_555 1_555
C35_4 C34_4 1_555 1_555
H23_4 C35_4 1_555 1_555
C36_4 C31_4 1_555 1_555
H24_4 C36_4 1_555 1_555
C39_4 C28_4 1_555 1_555
C40_4 C34_4 1_555 1_555
C23_4 C24_4 1_555 1_555
C29_4 C30_4 1_555 1_555
C35_4 C36_4 1_555 1_555
N1_3 C1_3 1_555 1_555
C1_3 C2_3 1_555 1_555
C2_3 H1_3 1_555 1_555
C3_3 C2_3 1_555 1_555
H2_3 C3_3 1_555 1_555
C6_3 C1_3 1_555 1_555
H4_3 C6_3 1_555 1_555
C7_3 N1_3 1_555 1_555
C8_3 C7_3 1_555 1_555
H5_3 C8_3 1_555 1_555
C12_3 C7_3 1_555 1_555
H8_3 C12_3 1_555 1_555
C13_3 N1_3 1_555 1_555
C14_3 C13_3 1_555 1_555
H9_3 C14_3 1_555 1_555
C15_3 C14_3 1_555 1_555
H10_3 C15_3 1_555 1_555
C16_3 N2_3 1_555 1_555
C17_3 C16_3 1_555 1_555
H11_3 C17_3 1_555 1_555
C18_3 C13_3 1_555 1_555
H12_3 C18_3 1_555 1_555
C15_3 C16_3 1_555 1_555
C17_3 C18_3 1_555 1_555
N1_4 C1_4 1_555 1_555
C1_4 C2_4 1_555 1_555
C2_4 H1_4 1_555 1_555
C3_4 C2_4 1_555 1_555
H2_4 C3_4 1_555 1_555
C6_4 C1_4 1_555 1_555
H4_4 C6_4 1_555 1_555
C7_4 N1_4 1_555 1_555
C8_4 C7_4 1_555 1_555
H5_4 C8_4 1_555 1_555
C12_4 C7_4 1_555 1_555
H8_4 C12_4 1_555 1_555
C13_4 N1_4 1_555 1_555
C14_4 C13_4 1_555 1_555
H9_4 C14_4 1_555 1_555
C15_4 C14_4 1_555 1_555
H10_4 C15_4 1_555 1_555
C16_4 N2_4 1_555 1_555
C17_4 C16_4 1_555 1_555
H11_4 C17_4 1_555 1_555
C18_4 C13_4 1_555 1_555
H12_4 C18_4 1_555 1_555
C15_4 C16_4 1_555 1_555
C17_4 C18_4 1_555 1_555

#END
