
###############################################################################
#
# This file contains modified crystal structure data generated from the
# MOF subset of the Cambridge Structural Database (CSD) v543 
# hosted by the Cambridge Crystallographic Data Centre (CCDC).
#
# This work is licensed under the Creative Commons
# Attribution-NonCommercial-ShareAlike 4.0 International License.
# To view a copy of this license, visit
# http://creativecommons.org/licenses/by-nc-sa/4.0/
# or send a letter to
# Creative Commons, PO Box 1866, Mountain View, CA 94042, USA.
#
# CIF created using the CSD Python API on 29 September 2022
# The structure has been converted into the P1 space group
# The structure has a 3D framework
# The original CSD entry EKIRAU is in the monoclinic crystal system
# The framework has been calculated to contain at least 10.0% void space
# The void calculation uses a probe of radius 1.32A, grid spacing 0.4
#
###############################################################################

data_EKIRAU
_chemical_formula_moiety         '(C196 H196 Cu8 N56 O160 Si4 W48)n'
_symmetry_cell_setting           triclinic
_symmetry_space_group_name_H-M   'P 1'
_symmetry_Int_Tables_number      1
_space_group_name_Hall           'P 1'
loop_
_symmetry_equiv_pos_site_id
_symmetry_equiv_pos_as_xyz
1 x,y,z
_cell_length_a                   15.109(5)
_cell_length_b                   24.331(5)
_cell_length_c                   24.320(5)
_cell_angle_alpha                90
_cell_angle_beta                 99.343(5)
_cell_angle_gamma                90
_cell_volume                     8821.84
loop_
_atom_site_label
_atom_site_type_symbol
_atom_site_fract_x
_atom_site_fract_y
_atom_site_fract_z
C85 C 0.2111(8) 0.4998(6) 0.2792(6)
N25 N 0.4813(7) 0.4844(4) 0.2695(5)
C86 C 0.3465(9) 0.4444(5) 0.2929(6)
N26 N 0.1173(7) 0.5040(5) 0.2814(5)
C87 C 0.3886(9) 0.4885(6) 0.2738(6)
C88 C 0.2540(9) 0.4511(5) 0.2948(6)
H85 H 0.221831 0.422179 0.306844
C89 C 0.3926(11) 0.3914(6) 0.3139(8)
H86 H 0.449433 0.399618 0.336329
H87 H 0.355747 0.371803 0.335959
H88 H 0.401965 0.369120 0.282782
C90 C 0.3457(9) 0.5373(6) 0.2579(7)
H89 H 0.377495 0.566211 0.245377
C91 C 0.6038(9) 0.4548(6) 0.2443(6)
H90 H 0.643394 0.432822 0.228530
N28 N 0.6261(9) 0.5014(6) 0.2746(7)
C92 C 0.5473(10) 0.5202(6) 0.2905(7)
H91 H 0.540849 0.551401 0.311580
C93 C 0.2541(10) 0.5436(6) 0.2606(7)
C94 C 0.0493(10) 0.4940(6) 0.2398(6)
H92 H 0.056709 0.479046 0.205652
C95 C 0.5170(10) 0.4459(6) 0.2409(7)
H93 H 0.485577 0.417141 0.221498
C96 C 0.2089(12) 0.5985(7) 0.2432(8)
H94 H 0.203091 0.619577 0.275792
H95 H 0.244780 0.618572 0.220827
H96 H 0.150583 0.591979 0.221950
C97 C 0.0801(10) 0.5245(9) 0.3245(7)
H97 H 0.109875 0.534534 0.359614
C48 C 0.4153(15) 0.4967(11) 0.0085(9)
H46 H 0.356490 0.493293 0.014771
N19 N 0.7542(8) 0.5240(5) 0.1548(5)
N20 N 0.6390(8) 0.5270(5) 0.0875(5)
C64 C 0.6539(12) 0.5782(7) 0.1077(7)
H64 H 0.621103 0.609353 0.095161
C65 C 0.5674(10) 0.5108(6) 0.0434(6)
C66 C 0.7011(10) 0.4941(7) 0.1164(6)
H65 H 0.706517 0.456547 0.110727
C67 C 0.7236(11) 0.5766(6) 0.1486(6)
H66 H 0.747623 0.606510 0.169698
C68 C 0.4808(14) 0.5091(11) 0.0524(8)
C70 C 0.4547(18) 0.5209(13) 0.1104(10)
H68 H 0.504375 0.512205 0.138981
H69 H 0.439543 0.558998 0.112844
H70 H 0.403998 0.498656 0.115253
Cu11 Cu 0.85636(12) 0.50703(8) 0.20798(8)
W1 W 0.14572(3) 0.30049(2) 0.57493(2)
W2 W 0.22864(3) 0.24511(2) 0.77567(2)
W3 W 0.24315(4) 0.17036(2) 0.53763(2)
W4 W 0.12980(3) 0.17832(2) 0.65917(2)
W5 W 0.32029(4) 0.12730(2) 0.73957(2)
W6 W 0.53555(3) 0.19473(2) 0.74153(2)
W7 W 0.54869(3) 0.30931(2) 0.66411(2)
W8 W 0.34593(4) 0.36541(2) 0.57979(2)
W9 W 0.44319(4) 0.31448(2) 0.77667(2)
W10 W 0.44066(4) 0.23554(2) 0.53998(2)
W11 W 0.43074(4) 0.12047(2) 0.61698(2)
W12 W 0.23974(4) 0.36763(2) 0.69101(2)
Cu1 Cu 0.58678(10) 0.24866(6) 0.40780(6)
O1 O 0.4315(5) 0.2595(3) 0.6966(3)
O2 O 0.2761(6) 0.2102(3) 0.6942(3)
O3 O 0.3564(6) 0.2060(3) 0.6060(3)
O4 O 0.4573(6) 0.3552(4) 0.6287(4)
O5 O 0.4994(6) 0.2442(3) 0.4859(4)
O6 O 0.4805(6) 0.0596(4) 0.6120(4)
O7 O 0.1256(6) 0.2120(4) 0.7292(3)
O8 O 0.1803(6) 0.1533(3) 0.5960(4)
O9 O 0.6433(6) 0.3423(4) 0.6543(5)
O10 O 0.2859(5) 0.2990(3) 0.6344(3)
O11 O 0.1799(5) 0.2566(4) 0.8331(3)
O12 O 0.2004(6) 0.4240(4) 0.7194(4)
O13 O 0.3343(6) 0.2018(4) 0.5003(4)
O14 O 0.3222(6) 0.0675(4) 0.7748(4)
O15 O 0.3563(6) 0.3586(3) 0.7349(4)
O16 O 0.2024(6) 0.3100(4) 0.7334(4)
O17 O 0.0274(6) 0.1479(4) 0.6492(4)
O18 O 0.6215(6) 0.1590(4) 0.7784(4)
O19 O 0.5234(6) 0.2632(4) 0.6006(4)
N2 N 0.5667(7) 0.4149(4) 0.4414(4)
N3 N 0.5751(7) 0.1672(4) 0.4044(4)
O20 O 0.3808(6) 0.3027(4) 0.5398(3)
O21 O 0.5098(6) 0.1549(4) 0.6740(4)
O22 O 0.0476(7) 0.3157(4) 0.5342(4)
C1 C 0.6402(9) 0.3672(5) 0.3876(6)
H1 H 0.677353 0.358048 0.361963
O23 O 0.4779(7) 0.3504(4) 0.8348(4)
O24 O 0.1796(7) 0.1400(4) 0.4823(4)
O25 O 0.4808(6) 0.1621(4) 0.5623(4)
O26 O 0.3663(7) 0.4177(4) 0.5391(4)
O27 O 0.2708(6) 0.1716(4) 0.7921(3)
O28 O 0.1417(6) 0.3544(4) 0.6330(3)
N4 N 0.4736(6) 0.2522(4) 0.3540(4)
N5 N 0.2871(8) 0.2678(5) 0.0419(5)
N6 N 0.5415(8) 0.0849(4) 0.4312(4)
O29 O 0.5298(6) 0.3413(4) 0.7335(4)
O30 O 0.2993(6) 0.4041(3) 0.6366(4)
N7 N 0.3872(6) 0.2520(4) 0.2725(4)
O31 O 0.1955(5) 0.1193(3) 0.7009(4)
O32 O 0.3453(6) 0.2720(4) 0.7960(4)
C2 C 0.3634(8) 0.2563(6) 0.2138(5)
O33 O 0.4327(6) 0.1583(4) 0.7613(3)
O34 O 0.1100(6) 0.2466(3) 0.6237(3)
C3 C 0.5203(10) 0.0415(5) 0.4677(6)
O35 O 0.3587(6) 0.1055(4) 0.6724(3)
O36 O 0.5184(6) 0.2495(4) 0.7949(4)
C4 C 0.3888(9) 0.2373(5) 0.3609(5)
H2 H 0.371104 0.228520 0.394690
C5 C 0.5624(11) 0.1329(5) 0.3599(6)
H3 H 0.567515 0.143059 0.323727
O37 O 0.6010(6) 0.2469(4) 0.7055(4)
C6 C 0.5888(10) 0.0128(5) 0.4980(6)
H4 H 0.648043 0.021534 0.495781
O38 O 0.3250(6) 0.1108(4) 0.5606(4)
C7 C 0.5744(10) 0.4685(5) 0.5264(6)
C8 C 0.3133(9) 0.2659(7) 0.1005(6)
C9 C 0.6551(13) 0.4367(8) 0.5551(8)
H5 H 0.638670 0.398944 0.559183
H6 H 0.675553 0.452262 0.591161
H7 H 0.702309 0.438587 0.533041
C10 C 0.5469(9) 0.3604(5) 0.4458(5)
H8 H 0.507375 0.345977 0.467677
O39 O 0.2228(6) 0.3512(4) 0.5450(4)
O40 O 0.1905(6) 0.2412(4) 0.5361(4)
C11 C 0.6241(9) 0.4188(5) 0.4050(6)
H9 H 0.648625 0.451105 0.393613
C12 C 0.3799(8) 0.2277(6) 0.1223(5)
H10 H 0.407532 0.206437 0.098212
C13 C 0.4710(8) 0.2606(5) 0.3003(5)
H11 H 0.519887 0.270977 0.283777
C14 C 0.3341(9) 0.2374(5) 0.3104(5)
H12 H 0.273159 0.229122 0.303273
Si1 Si 0.33756(19) 0.24411(11) 0.65844(12)
N8 N 0.5926(6) 0.3314(4) 0.4140(4)
C15 C 0.4047(9) 0.2216(5) 0.1793(5)
C16 C 0.5336(9) 0.4590(5) 0.4728(5)
C17 C 0.4736(9) 0.1783(6) 0.2017(6)
H13 H 0.477318 0.151341 0.173393
H14 H 0.455979 0.160826 0.233643
H15 H 0.531094 0.195440 0.212312
C18 C 0.5625(9) 0.1363(5) 0.4476(5)
H16 H 0.567492 0.148817 0.484088
C19 C 0.5380(10) 0.5112(5) 0.5533(6)
H17 H 0.562836 0.519827 0.589800
C20 C 0.2066(9) 0.2518(6) 0.0144(6)
H18 H 0.160983 0.237404 0.031550
C21 C 0.4307(10) 0.0298(6) 0.4675(6)
C22 C 0.2725(9) 0.3014(7) 0.1352(6)
C23 C 0.5418(10) 0.0828(6) 0.3751(6)
H19 H 0.529937 0.052283 0.352043
C24 C 0.2989(9) 0.2941(6) 0.1921(6)
H20 H 0.272120 0.315497 0.216533
C25 C 0.3563(14) 0.0593(8) 0.4312(9)
H21 H 0.365811 0.098201 0.434664
H22 H 0.300135 0.049976 0.442409
H23 H 0.355205 0.048518 0.393070
C27 C 0.2046(11) 0.3441(8) 0.1141(7)
H25 H 0.146124 0.327595 0.106738
H26 H 0.218798 0.359779 0.080398
H27 H 0.205043 0.372421 0.141653
C28 C 0.3331(12) 0.2863(8) 0.0036(7)
H28 H 0.391086 0.300364 0.009731
Cu2 Cu 0.14364(12) 0.49297(8) 0.79202(8)
N9 N 0.2458(8) 0.4760(5) 0.8452(5)
N11 N 0.3610(8) 0.4730(5) 0.9125(5)
N13 N 0.0282(7) 0.4923(5) 0.7473(5)
C34 C 0.3461(12) 0.4218(7) 0.8923(7)
H33 H 0.378897 0.390647 0.904839
C37 C 0.4326(10) 0.4892(6) 0.9566(6)
C44 C 0.0086(11) 0.4728(9) 0.6942(8)
H43 H 0.050890 0.459556 0.673671
C45 C 0.2989(10) 0.5059(7) 0.8836(6)
H44 H 0.293483 0.543453 0.889273
C46 C 0.2764(11) 0.4234(6) 0.8514(6)
H45 H 0.252377 0.393490 0.830302
C47 C 0.5192(14) 0.4909(11) 0.9476(8)
C49 C 0.5453(18) 0.4791(13) 0.8896(10)
H47 H 0.495625 0.487795 0.861019
H48 H 0.560457 0.441002 0.887156
H49 H 0.596002 0.501344 0.884747
N15 N 0.4333(7) 0.5851(4) 0.5586(4)
C50 C 0.3598(9) 0.6328(5) 0.6124(6)
H50 H 0.322647 0.641952 0.638037
C51 C 0.4256(10) 0.5315(5) 0.4736(6)
C52 C 0.3449(13) 0.5633(8) 0.4449(8)
H51 H 0.361330 0.601056 0.440817
H52 H 0.324447 0.547738 0.408839
H53 H 0.297691 0.561413 0.466959
C53 C 0.4531(9) 0.6396(5) 0.5542(5)
H54 H 0.492625 0.654023 0.532323
C54 C 0.3759(9) 0.5812(5) 0.5950(6)
H55 H 0.351375 0.548895 0.606387
N16 N 0.4074(6) 0.6686(4) 0.5860(4)
C55 C 0.4664(9) 0.5410(5) 0.5272(5)
C56 C 0.4620(10) 0.4888(5) 0.4467(6)
H56 H 0.437164 0.480173 0.410200
C69 C 0.5847(15) 0.5033(11) 0.9915(9)
H67 H 0.643510 0.506707 0.985229
Cu7 Cu 0.41322(10) 0.75134(6) 0.59220(6)
Cu9 Cu 0.08678(10) 0.25134(6) 0.90780(6)
O82 O 0.6799(5) 0.2434(4) 0.3331(3)
O83 O 0.1778(6) 0.5675(4) 0.7252(4)
N30 N 0.7008(7) 0.2410(4) 0.4611(4)
Cu12 Cu 0.64364(12) 0.00703(8) 0.29202(8)
N1 N 0.2008(7) 0.2590(4) 0.9611(4)
C26 C 0.2771(11) 0.2806(7) 0.9525(7)
H24 H 0.291401 0.290413 0.918030
N21 N 0.7992(7) 0.7410(4) 0.0389(4)
C82 C 0.7229(11) 0.7194(7) 0.0475(7)
H80 H 0.708599 0.709587 0.081970
Cu6 Cu 0.91322(10) 0.74866(6) 0.09220(6)
N17 N 0.4249(7) 0.8328(4) 0.5956(4)
N18 N 0.4585(8) 0.9151(4) 0.5688(4)
C57 C 0.4797(10) 0.9585(5) 0.5323(6)
C58 C 0.4376(11) 0.8671(5) 0.6401(6)
H57 H 0.432485 0.856941 0.676273
C59 C 0.4112(10) 0.9872(5) 0.5020(6)
H58 H 0.351957 0.978466 0.504219
C60 C 0.4375(9) 0.8637(5) 0.5524(5)
H59 H 0.432508 0.851183 0.515912
C61 C 0.5693(10) 0.9702(6) 0.5325(6)
C62 C 0.4582(10) 0.9172(6) 0.6249(6)
H60 H 0.470063 0.947717 0.647957
C63 C 0.6437(14) 0.9407(8) 0.5688(9)
H61 H 0.634189 0.901799 0.565336
H62 H 0.699865 0.950024 0.557591
H63 H 0.644795 0.951482 0.606930
W13 W 0.85428(3) 0.69951(2) 0.42507(2)
W14 W 0.77136(3) 0.75489(2) 0.22433(2)
W15 W 0.75685(4) 0.82964(2) 0.46237(2)
W16 W 0.87020(3) 0.82168(2) 0.34083(2)
W17 W 0.67971(4) 0.87270(2) 0.26043(2)
W18 W 0.46445(3) 0.80527(2) 0.25847(2)
W19 W 0.45131(3) 0.69069(2) 0.33589(2)
W20 W 0.65407(4) 0.63459(2) 0.42021(2)
W21 W 0.55681(4) 0.68552(2) 0.22333(2)
W22 W 0.55934(4) 0.76446(2) 0.46002(2)
W23 W 0.56926(4) 0.87953(2) 0.38302(2)
W24 W 0.76026(4) 0.63237(2) 0.30899(2)
O41 O 0.5685(5) 0.7405(3) 0.3034(3)
O42 O 0.7239(6) 0.7898(3) 0.3058(3)
O43 O 0.6436(6) 0.7940(3) 0.3940(3)
O44 O 0.5427(6) 0.6448(4) 0.3713(4)
O45 O 0.5006(6) 0.7558(3) 0.5141(4)
O46 O 0.5195(6) 0.9404(4) 0.3880(4)
O47 O 0.8744(6) 0.7880(4) 0.2708(3)
O48 O 0.8197(6) 0.8467(3) 0.4040(4)
O49 O 0.3567(6) 0.6577(4) 0.3457(5)
O50 O 0.7141(5) 0.7010(3) 0.3656(3)
O51 O 0.8201(5) 0.7434(4) 0.1669(3)
O52 O 0.7996(6) 0.5760(4) 0.2806(4)
O53 O 0.6657(6) 0.7982(4) 0.4997(4)
O54 O 0.6778(6) 0.9325(4) 0.2252(4)
O55 O 0.6437(6) 0.6414(3) 0.2651(4)
O56 O 0.7976(6) 0.6900(4) 0.2666(4)
O57 O 0.9726(6) 0.8521(4) 0.3508(4)
O58 O 0.3785(6) 0.8410(4) 0.2216(4)
O59 O 0.4766(6) 0.7368(4) 0.3994(4)
O60 O 0.6192(6) 0.6973(4) 0.4602(3)
O61 O 0.4902(6) 0.8451(4) 0.3260(4)
O62 O 0.9524(7) 0.6843(4) 0.4658(4)
O63 O 0.5221(7) 0.6496(4) 0.1652(4)
O64 O 0.8204(7) 0.8600(4) 0.5177(4)
O65 O 0.5192(6) 0.8379(4) 0.4377(4)
O66 O 0.6337(7) 0.5823(4) 0.4609(4)
O67 O 0.7292(6) 0.8284(4) 0.2079(3)
O68 O 0.8583(6) 0.6456(4) 0.3670(3)
N22 N 0.5264(6) 0.7478(4) 0.6460(4)
N23 N 0.7129(8) 0.7322(5) 0.9581(5)
O69 O 0.4702(6) 0.6587(4) 0.2665(4)
O70 O 0.7007(6) 0.5959(3) 0.3634(4)
N24 N 0.6128(6) 0.7480(4) 0.7275(4)
O71 O 0.8045(5) 0.8807(3) 0.2991(4)
O72 O 0.6547(6) 0.7280(4) 0.2040(4)
C71 C 0.6366(8) 0.7437(6) 0.7862(5)
O73 O 0.5673(6) 0.8417(4) 0.2387(3)
O74 O 0.8900(6) 0.7534(3) 0.3763(3)
O75 O 0.6413(6) 0.8945(4) 0.3276(3)
O76 O 0.4816(6) 0.7505(4) 0.2051(4)
C72 C 0.6112(9) 0.7627(5) 0.6391(5)
H71 H 0.628896 0.771480 0.605310
O77 O 0.3990(6) 0.7531(4) 0.2945(4)
O78 O 0.6750(6) 0.8892(4) 0.4394(4)
C73 C 0.6867(9) 0.7341(7) 0.8995(6)
O79 O 0.7772(6) 0.6488(4) 0.4550(4)
O80 O 0.8095(6) 0.7588(4) 0.4639(4)
C74 C 0.6201(8) 0.7723(6) 0.8777(5)
H72 H 0.592468 0.793563 0.901788
C75 C 0.5290(8) 0.7394(5) 0.6997(5)
H73 H 0.480113 0.729023 0.716223
C76 C 0.6659(9) 0.7626(5) 0.6896(5)
H74 H 0.726841 0.770878 0.696727
Si2 Si 0.66244(19) 0.75589(11) 0.34156(12)
C77 C 0.5953(9) 0.7784(5) 0.8207(5)
C78 C 0.5264(9) 0.8217(6) 0.7983(6)
H75 H 0.522682 0.848659 0.826607
H76 H 0.544021 0.839174 0.766357
H77 H 0.468906 0.804560 0.787688
C79 C 0.7934(9) 0.7482(6) 0.9856(6)
H78 H 0.839017 0.762596 0.968450
C80 C 0.7275(9) 0.6986(7) 0.8648(6)
C81 C 0.7011(9) 0.7059(6) 0.8079(6)
H79 H 0.727880 0.684503 0.783467
C83 C 0.7954(11) 0.6559(8) 0.8859(7)
H81 H 0.853876 0.672405 0.893262
H82 H 0.781202 0.640221 0.919602
H83 H 0.794957 0.627579 0.858347
C84 C 0.6669(12) 0.7137(8) 0.9964(7)
H84 H 0.608914 0.699636 0.990269
N27 N 0.9718(7) 0.5077(5) 0.2527(5)
C98 C 0.9914(11) 0.5272(9) 0.3058(8)
H98 H 0.949110 0.540444 0.326329
O81 O 0.3201(5) 0.7566(4) 0.6669(3)
O84 O 0.8222(6) 0.4325(4) 0.2748(4)
N29 N 0.2992(7) 0.7590(4) 0.5389(4)
Cu10 Cu 0.35636(12) 0.99297(8) 0.70798(8)
C51_2 C 0.0744(10) 0.0315(5) 0.0264(6)
C52_2 C 0.1551(13) 0.0633(8) 0.0551(8)
H51_2 H 0.138670 0.101056 0.059183
H52_2 H 0.175553 0.047738 0.091161
H53_2 H 0.202309 0.061413 0.033041
C29 C 0.7111(8) 0.0002(6) 0.7792(6)
N10 N 0.9813(7) 0.0156(4) 0.7695(5)
C30 C 0.8465(9) 0.0556(5) 0.7929(6)
C31 C 0.8886(9) 0.0115(6) 0.7738(6)
C32 C 0.7540(9) 0.0489(5) 0.7948(6)
H29 H 0.721831 0.077821 0.806844
C33 C 0.8926(11) 0.1086(6) 0.8139(8)
H30 H 0.949433 0.100382 0.836329
H31 H 0.855747 0.128197 0.835959
H32 H 0.901965 0.130880 0.782782
C40 C 0.5493(10) 0.0060(6) 0.7398(6)
H37 H 0.556709 0.020954 0.705652
H38 H 0.985577 0.082859 0.721498
C45_2 C 0.2011(10) 0.0059(7) 0.6164(6)
H44_2 H 0.206517 0.043453 0.610727
N15_2 N 0.0667(7) 0.0851(4) 0.9414(4)
C50_2 C 0.1402(9) 0.1328(5) 0.8876(6)
H50_2 H 0.177353 0.141952 0.861963
C53_2 C 0.0469(9) 0.1396(5) 0.9458(5)
H54_2 H 0.007375 0.154023 0.967677
C54_2 C 0.1241(9) 0.0812(5) 0.9050(6)
H55_2 H 0.148625 0.048895 0.893613
N16_2 N 0.0926(6) 0.1686(4) 0.9140(4)
C55_2 C 0.0336(9) 0.0410(5) 0.9728(5)
C68_2 C 0.0192(14) 0.0091(11) 0.4476(8)
C70_2 C 0.0453(18) 0.0209(13) 0.3896(10)
H69_2 H 0.060457 0.058998 0.387156
O5_2 O 0.0006(6) 0.7442(3) 0.0141(4)
O24_2 O 0.3204(7) 0.6400(4) 0.0177(4)
N4_2 N 0.0264(6) 0.7522(4) 0.1460(4)
N5_2 N 0.2129(8) 0.7678(5) 0.4581(5)
N7_2 N 0.1128(6) 0.7520(4) 0.2275(4)
C2_2 C 0.1366(8) 0.7563(6) 0.2862(5)
C4_2 C 0.1112(9) 0.7373(5) 0.1391(5)
H2_2 H 0.128896 0.728520 0.105310
C8_2 C 0.1867(9) 0.7659(7) 0.3995(6)
C12_2 C 0.1201(8) 0.7277(6) 0.3777(5)
H10_2 H 0.092468 0.706437 0.401788
C13_2 C 0.0290(8) 0.7606(5) 0.1997(5)
C14_2 C 0.1659(9) 0.7374(5) 0.1896(5)
H12_2 H 0.226841 0.729122 0.196727
C15_2 C 0.0953(9) 0.7216(5) 0.3207(5)
C17_2 C 0.0264(9) 0.6783(6) 0.2983(6)
H13_2 H 0.022682 0.651341 0.326607
H14_2 H 0.044021 0.660826 0.266357
C20_2 C 0.2934(9) 0.7518(6) 0.4856(6)
H18_2 H 0.339017 0.737404 0.468450
C21_2 C 0.0693(10) 0.5298(6) 0.0325(6)
C22_2 C 0.2275(9) 0.8014(7) 0.3648(6)
C24_2 C 0.2011(9) 0.7941(6) 0.3079(6)
H20_2 H 0.227880 0.815497 0.283467
C25_2 C 0.1437(14) 0.5593(8) 0.0688(9)
H21_2 H 0.134189 0.598201 0.065336
H22_2 H 0.199865 0.549976 0.057591
H23_2 H 0.144795 0.548518 0.106930
C26_2 C 0.2229(11) 0.7806(7) 0.5475(7)
H24_2 H 0.208599 0.790413 0.581970
C27_2 C 0.2954(11) 0.8441(8) 0.3859(7)
H25_2 H 0.353876 0.827595 0.393262
H26_2 H 0.281202 0.859779 0.419602
H27_2 H 0.294957 0.872421 0.358347
C28_2 C 0.1669(12) 0.7863(8) 0.4964(7)
H28_2 H 0.108914 0.800364 0.490269
C56_2 C 0.0380(10) 0.9888(5) 0.0533(6)
H56_2 H 0.062836 0.980173 0.089800
W18_2 W 0.03555(3) 0.30527(2) 0.24153(2)
W19_2 W 0.04869(3) 0.19069(2) 0.16411(2)
O49_2 O 0.1433(6) 0.1577(4) 0.1543(5)
O58_2 O 0.1215(6) 0.3410(4) 0.2784(4)
O59_2 O 0.0234(6) 0.2368(4) 0.1006(4)
O61_2 O 0.0098(6) 0.3451(4) 0.1740(4)
O69_2 O 0.0298(6) 0.1587(4) 0.2335(4)
O76_2 O 0.0184(6) 0.2505(4) 0.2949(4)
O77_2 O 0.1010(6) 0.2531(4) 0.2055(4)
W1_2 W 0.35428(3) 0.80049(2) 0.92507(2)
W2_2 W 0.27136(3) 0.74511(2) 0.72433(2)
W3_2 W 0.25685(4) 0.67036(2) 0.96237(2)
W4_2 W 0.37020(3) 0.67832(2) 0.84083(2)
W5_2 W 0.17971(4) 0.62730(2) 0.76043(2)
W8_2 W 0.15407(4) 0.86541(2) 0.92021(2)
W9_2 W 0.05681(4) 0.81448(2) 0.72333(2)
W10_2 W 0.05934(4) 0.73554(2) 0.96002(2)
W11_2 W 0.06926(4) 0.62047(2) 0.88302(2)
W12_2 W 0.26026(4) 0.86763(2) 0.80899(2)
O1_2 O 0.0685(5) 0.7595(3) 0.8034(3)
O2_2 O 0.2239(6) 0.7102(3) 0.8058(3)
O3_2 O 0.1436(6) 0.7060(3) 0.8940(3)
O4_2 O 0.0427(6) 0.8552(4) 0.8713(4)
O6_2 O 0.0195(6) 0.5596(4) 0.8880(4)
O7_2 O 0.3744(6) 0.7120(4) 0.7708(3)
O8_2 O 0.3197(6) 0.6533(3) 0.9040(4)
O10_2 O 0.2141(5) 0.7990(3) 0.8656(3)
O12_2 O 0.2996(6) 0.9240(4) 0.7806(4)
O13_2 O 0.1657(6) 0.7018(4) 0.9997(4)
O15_2 O 0.1437(6) 0.8586(3) 0.7651(4)
O16_2 O 0.2976(6) 0.8100(4) 0.7666(4)
O17_2 O 0.4726(6) 0.6479(4) 0.8508(4)
O20_2 O 0.1192(6) 0.8027(4) 0.9602(3)
O22_2 O 0.4524(7) 0.8157(4) 0.9658(4)
O23_2 O 0.0221(7) 0.8504(4) 0.6652(4)
O25_2 O 0.0192(6) 0.6621(4) 0.9377(4)
O26_2 O 0.1337(7) 0.9177(4) 0.9609(4)
O27_2 O 0.2292(6) 0.6716(4) 0.7079(3)
O28_2 O 0.3583(6) 0.8544(4) 0.8670(3)
O30_2 O 0.2007(6) 0.9041(3) 0.8634(4)
O31_2 O 0.3045(5) 0.6193(3) 0.7991(4)
O32_2 O 0.1547(6) 0.7720(4) 0.7040(4)
O33_2 O 0.0673(6) 0.6583(4) 0.7387(3)
O34_2 O 0.3900(6) 0.7466(3) 0.8763(3)
O35_2 O 0.1413(6) 0.6055(4) 0.8276(3)
O38_2 O 0.1750(6) 0.6108(4) 0.9394(4)
O39_2 O 0.2772(6) 0.8512(4) 0.9550(4)
O40_2 O 0.3095(6) 0.7412(4) 0.9639(4)
Si1_2 Si 0.16244(19) 0.74411(11) 0.84156(12)
N9_2 N 0.2542(8) 0.9760(5) 0.6548(5)
N11_2 N 0.1390(8) 0.9730(5) 0.5875(5)
N12 N 0.6173(7) 0.9960(5) 0.7814(5)
N13_2 N 0.4718(7) 0.9923(5) 0.7527(5)
C34_2 C 0.1539(12) 0.9218(7) 0.6077(7)
H33_2 H 0.121103 0.890647 0.595161
C35 C 0.8457(9) 0.9627(6) 0.7579(7)
H34 H 0.877495 0.933789 0.745377
C37_2 C 0.0674(10) 0.9892(6) 0.5434(6)
C39 C 0.7541(10) 0.9564(6) 0.7606(7)
C42 C 0.7089(12) 0.9015(7) 0.7432(8)
H39 H 0.703091 0.880423 0.775792
H40 H 0.744780 0.881428 0.720827
H41 H 0.650583 0.908021 0.721950
C43 C 0.5801(10) 0.9755(9) 0.8245(7)
H42 H 0.609875 0.965466 0.859614
C44_2 C 0.4914(11) 0.9728(9) 0.8058(8)
H43_2 H 0.449110 0.959556 0.826329
C46_2 C 0.2236(11) 0.9234(6) 0.6486(6)
H45_2 H 0.247623 0.893490 0.669698
C48_2 C 0.0847(15) 0.9967(11) 0.4915(9)
H46_2 H 0.143510 0.993293 0.485229
H47_2 H 0.004375 0.987795 0.638981
N17_2 N 0.0751(7) 0.3328(4) 0.9044(4)
N18_2 N 0.0415(8) 0.4151(4) 0.9312(4)
C57_2 C 0.0203(10) 0.4585(5) 0.9677(6)
C58_2 C 0.0624(11) 0.3671(5) 0.8599(6)
H57_2 H 0.067515 0.356941 0.823727
C59_2 C 0.0888(10) 0.4872(5) 0.9980(6)
H58_2 H 0.148043 0.478466 0.995781
C60_2 C 0.0625(9) 0.3637(5) 0.9476(5)
H59_2 H 0.067492 0.351183 0.984088
C62_2 C 0.0418(10) 0.4172(6) 0.8751(6)
H60_2 H 0.029937 0.447717 0.852043
H70_2 H 0.096002 0.998656 0.384747
H73_2 H 0.019887 0.229023 0.783777
H77_2 H 0.031094 0.304560 0.712312
C19_2 C 0.9620(10) 0.0112(5) 0.9467(6)
H17_2 H 0.937164 0.019827 0.910200
H49_2 H 0.903998 0.001344 0.615253
N19_2 N 0.7458(8) 0.0240(5) 0.3452(5)
N20_2 N 0.8610(8) 0.0270(5) 0.4125(5)
C64_2 C 0.8461(12) 0.0782(7) 0.3923(7)
H64_2 H 0.878897 0.109353 0.404839
C65_2 C 0.9326(10) 0.0108(6) 0.4566(6)
C67_2 C 0.7764(11) 0.0766(6) 0.3514(6)
H66_2 H 0.752377 0.106510 0.330302
C69_2 C 0.9153(15) 0.0033(11) 0.5085(9)
H67_2 H 0.856490 0.006707 0.514771
H68_2 H 0.995625 0.012205 0.361019
N2_2 N 0.9333(7) 0.9149(4) 0.0586(4)
N3_2 N 0.9249(7) 0.6672(4) 0.0956(4)
C1_2 C 0.8598(9) 0.8672(5) 0.1124(6)
H1_2 H 0.822647 0.858048 0.138037
N6_2 N 0.9585(8) 0.5849(4) 0.0688(4)
C3_2 C 0.9797(10) 0.5415(5) 0.0323(6)
C5_2 C 0.9376(11) 0.6329(5) 0.1401(6)
H3_2 H 0.932485 0.643059 0.176273
C6_2 C 0.9112(10) 0.5128(5) 0.0020(6)
H4_2 H 0.851957 0.521534 0.004219
C10_2 C 0.9531(9) 0.8604(5) 0.0542(5)
H8_2 H 0.992625 0.845977 0.032323
C11_2 C 0.8759(9) 0.9188(5) 0.0950(6)
H9_2 H 0.851375 0.951105 0.106387
H11_2 H 0.980113 0.770977 0.216223
N8_2 N 0.9074(6) 0.8314(4) 0.0860(4)
C16_2 C 0.9664(9) 0.9590(5) 0.0272(5)
H15_2 H 0.968906 0.695440 0.287688
C18_2 C 0.9375(9) 0.6363(5) 0.0524(5)
H16_2 H 0.932508 0.648817 0.015912
C23_2 C 0.9582(10) 0.5828(6) 0.1249(6)
H19_2 H 0.970063 0.552283 0.147957
W13_2 W 0.64572(3) 0.19951(2) 0.07493(2)
W14_2 W 0.72864(3) 0.25489(2) 0.27567(2)
W15_2 W 0.74315(4) 0.32964(2) 0.03763(2)
W16_2 W 0.62980(3) 0.32168(2) 0.15917(2)
W17_2 W 0.82029(4) 0.37270(2) 0.23957(2)
W20_2 W 0.84593(4) 0.13459(2) 0.07979(2)
W21_2 W 0.94319(4) 0.18552(2) 0.27667(2)
W22_2 W 0.94066(4) 0.26446(2) 0.03998(2)
W23_2 W 0.93074(4) 0.37953(2) 0.11698(2)
W24_2 W 0.73974(4) 0.13237(2) 0.19101(2)
O41_2 O 0.9315(5) 0.2405(3) 0.1966(3)
O42_2 O 0.7761(6) 0.2898(3) 0.1942(3)
O43_2 O 0.8564(6) 0.2940(3) 0.1060(3)
O44_2 O 0.9573(6) 0.1448(4) 0.1287(4)
O46_2 O 0.9805(6) 0.4404(4) 0.1120(4)
O47_2 O 0.6256(6) 0.2880(4) 0.2292(3)
O48_2 O 0.6803(6) 0.3467(3) 0.0960(4)
O50_2 O 0.7859(5) 0.2010(3) 0.1344(3)
O52_2 O 0.7004(6) 0.0760(4) 0.2194(4)
O53_2 O 0.8343(6) 0.2982(4) 0.0003(4)
O55_2 O 0.8563(6) 0.1414(3) 0.2349(4)
O56_2 O 0.7024(6) 0.1900(4) 0.2334(4)
O57_2 O 0.5274(6) 0.3521(4) 0.1492(4)
O60_2 O 0.8808(6) 0.1973(4) 0.0398(3)
O62_2 O 0.5476(7) 0.1843(4) 0.0342(4)
O63_2 O 0.9779(7) 0.1496(4) 0.3348(4)
O65_2 O 0.9808(6) 0.3379(4) 0.0623(4)
O66_2 O 0.8663(7) 0.0823(4) 0.0391(4)
O67_2 O 0.7708(6) 0.3284(4) 0.2921(3)
O68_2 O 0.6417(6) 0.1456(4) 0.1330(3)
O70_2 O 0.7993(6) 0.0959(3) 0.1366(4)
O71_2 O 0.6955(5) 0.3807(3) 0.2009(4)
O72_2 O 0.8453(6) 0.2280(4) 0.2960(4)
O73_2 O 0.9327(6) 0.3417(4) 0.2613(3)
O74_2 O 0.6100(6) 0.2534(3) 0.1237(3)
O75_2 O 0.8587(6) 0.3945(4) 0.1724(3)
O78_2 O 0.8250(6) 0.3892(4) 0.0606(4)
O79_2 O 0.7228(6) 0.1488(4) 0.0450(4)
O80_2 O 0.6905(6) 0.2588(4) 0.0361(4)
Si2_2 Si 0.83756(19) 0.25589(11) 0.15844(12)
N26_2 N 0.3827(7) 0.0040(5) 0.2186(5)
N27_2 N 0.5282(7) 0.0077(5) 0.2473(5)
C90_2 C 0.1543(9) 0.0373(6) 0.2421(7)
H89_2 H 0.122505 0.066211 0.254623
C93_2 C 0.2459(10) 0.0436(6) 0.2394(7)
C96_2 C 0.2911(12) 0.0985(7) 0.2568(8)
H94_2 H 0.296909 0.119577 0.224208
H95_2 H 0.255220 0.118572 0.279173
H96_2 H 0.349417 0.091979 0.278050
C97_2 C 0.4199(10) 0.0245(9) 0.1755(7)
H97_2 H 0.390125 0.034534 0.140386
C98_2 C 0.5086(11) 0.0272(9) 0.1942(8)
H98_2 H 0.550890 0.040444 0.173671
W6_2 W 0.96445(3) 0.69473(2) 0.75847(2)
W7_2 W 0.95131(3) 0.80931(2) 0.83589(2)
O9_2 O 0.8567(6) 0.8423(4) 0.8457(5)
O18_2 O 0.8785(6) 0.6590(4) 0.7216(4)
O19_2 O 0.9766(6) 0.7632(4) 0.8994(4)
O21_2 O 0.9902(6) 0.6549(4) 0.8260(4)
O29_2 O 0.9702(6) 0.8413(4) 0.7665(4)
O36_2 O 0.9816(6) 0.7495(4) 0.7051(4)
O37_2 O 0.8990(6) 0.7469(4) 0.7945(4)
C7_2 C 0.9256(10) 0.9685(5) 0.9736(6)
C9_2 C 0.8449(13) 0.9367(8) 0.9449(8)
H5_2 H 0.861330 0.898944 0.940817
H6_2 H 0.824447 0.952262 0.908839
H7_2 H 0.797691 0.938587 0.966959
C47_2 C 0.9808(14) 0.9909(11) 0.5524(8)
C49_2 C 0.9547(18) 0.9791(13) 0.6104(10)
H48_2 H 0.939543 0.941002 0.612844
C61_2 C 0.9307(10) 0.4702(6) 0.9675(6)
C63_2 C 0.8563(14) 0.4407(8) 0.9312(9)
H61_2 H 0.865811 0.401799 0.934664
H62_2 H 0.800135 0.450024 0.942409
H63_2 H 0.855205 0.451482 0.893070
C66_2 C 0.7989(10) 0.9941(7) 0.3836(6)
H65_2 H 0.793483 0.956547 0.389273
O45_2 O 0.9994(6) 0.2558(3) 0.9859(4)
O64_2 O 0.6796(7) 0.3600(4) 0.9823(4)
N22_2 N 0.9736(6) 0.2478(4) 0.8540(4)
N23_2 N 0.7871(8) 0.2322(5) 0.5419(5)
N24_2 N 0.8872(6) 0.2480(4) 0.7725(4)
C71_2 C 0.8634(8) 0.2437(6) 0.7138(5)
C72_2 C 0.8888(9) 0.2627(5) 0.8609(5)
H71_2 H 0.871104 0.271480 0.894690
C73_2 C 0.8133(9) 0.2341(7) 0.6005(6)
C74_2 C 0.8799(8) 0.2723(6) 0.6223(5)
H72_2 H 0.907532 0.293563 0.598212
C75_2 C 0.9710(8) 0.2394(5) 0.8003(5)
C76_2 C 0.8341(9) 0.2626(5) 0.8104(5)
H74_2 H 0.773159 0.270878 0.803273
C77_2 C 0.9047(9) 0.2784(5) 0.6793(5)
C78_2 C 0.9736(9) 0.3217(6) 0.7017(6)
H75_2 H 0.977318 0.348659 0.673393
H76_2 H 0.955979 0.339174 0.733643
C79_2 C 0.7066(9) 0.2482(6) 0.5144(6)
H78_2 H 0.660983 0.262596 0.531550
C80_2 C 0.7725(9) 0.1986(7) 0.6352(6)
C81_2 C 0.7989(9) 0.2059(6) 0.6921(6)
H79_2 H 0.772120 0.184503 0.716533
C82_2 C 0.7771(11) 0.2194(7) 0.4525(7)
H80_2 H 0.791401 0.209587 0.418030
C83_2 C 0.7046(11) 0.1559(8) 0.6141(7)
H81_2 H 0.646124 0.172405 0.606738
H82_2 H 0.718798 0.140221 0.580398
H83_2 H 0.705043 0.127579 0.641653
C84_2 C 0.8331(12) 0.2137(8) 0.5036(7)
H84_2 H 0.891086 0.199636 0.509731
C85_2 C 0.2889(8) 0.9998(6) 0.2208(6)
N25_2 N 0.0187(7) 0.9844(4) 0.2305(5)
C86_2 C 0.1535(9) 0.9444(5) 0.2071(6)
C87_2 C 0.1114(9) 0.9885(6) 0.2262(6)
C88_2 C 0.2460(9) 0.9511(5) 0.2052(6)
H85_2 H 0.278169 0.922179 0.193156
C89_2 C 0.1074(11) 0.8914(6) 0.1861(8)
H86_2 H 0.050567 0.899618 0.163671
H87_2 H 0.144253 0.871803 0.164041
H88_2 H 0.098035 0.869120 0.217218
C94_2 C 0.4507(10) 0.9940(6) 0.2602(6)
H92_2 H 0.443291 0.979046 0.294348
H93_2 H 0.014423 0.917141 0.278502
C29_2 C 0.7889(8) 0.5002(6) 0.7208(6)
N10_2 N 0.5187(7) 0.5156(4) 0.7305(5)
C30_2 C 0.6535(9) 0.5556(5) 0.7071(6)
N12_2 N 0.8827(7) 0.4960(5) 0.7186(5)
C31_2 C 0.6114(9) 0.5115(6) 0.7262(6)
C32_2 C 0.7460(9) 0.5489(5) 0.7052(6)
H29_2 H 0.778169 0.577821 0.693156
C33_2 C 0.6074(11) 0.6086(6) 0.6861(8)
H30_2 H 0.550567 0.600382 0.663671
H31_2 H 0.644253 0.628197 0.664041
H32_2 H 0.598035 0.630880 0.717218
C35_2 C 0.6543(9) 0.4627(6) 0.7421(7)
H34_2 H 0.622505 0.433789 0.754623
C36 C 0.3962(9) 0.5452(6) 0.7557(6)
H35 H 0.356606 0.567178 0.771470
N14 N 0.3739(9) 0.4986(6) 0.7254(7)
C38 C 0.4527(10) 0.4798(6) 0.7095(7)
H36 H 0.459151 0.448599 0.688420
C39_2 C 0.7459(10) 0.4564(6) 0.7394(7)
C40_2 C 0.9507(10) 0.5060(6) 0.7602(6)
H37_2 H 0.943291 0.520954 0.794348
C41 C 0.4830(10) 0.5541(6) 0.7591(7)
H38_2 H 0.514423 0.582859 0.778502
C42_2 C 0.7911(12) 0.4015(7) 0.7568(8)
H39_2 H 0.796909 0.380423 0.724208
H40_2 H 0.755220 0.381428 0.779173
H41_2 H 0.849417 0.408021 0.778050
C43_2 C 0.9199(10) 0.4755(9) 0.6755(7)
H42_2 H 0.890125 0.465466 0.640386
C36_2 C 0.1038(9) 0.0452(6) 0.7443(6)
H35_2 H 0.143394 0.067178 0.728530
C41_2 C 0.0170(10) 0.0541(6) 0.7409(7)
N14_2 N 0.1261(9) 0.9986(6) 0.7746(7)
C38_2 C 0.0473(10) 0.9798(6) 0.7905(7)
H36_2 H 0.040849 0.948599 0.811580
N28_2 N 0.8739(9) 0.0014(6) 0.2254(7)
C92_2 C 0.9527(10) 0.0202(6) 0.2095(7)
H91_2 H 0.959151 0.051401 0.188420
C91_2 C 0.8962(9) 0.9548(6) 0.2557(6)
H90_2 H 0.856606 0.932822 0.271470
C95_2 C 0.9830(10) 0.9459(6) 0.2591(7)
loop_
_geom_bond_atom_site_label_1
_geom_bond_atom_site_label_2
_geom_bond_site_symmetry_1
_geom_bond_site_symmetry_2
C85 N26 1_555 1_555
N25 C87 1_555 1_555
C86 C87 1_555 1_555
N26 C94 1_555 1_555
C87 C90 1_555 1_555
C88 C85 1_555 1_555
H85 C88 1_555 1_555
C89 C86 1_555 1_555
H86 C89 1_555 1_555
H87 C89 1_555 1_555
H88 C89 1_555 1_555
C90 H89 1_555 1_555
C91 H90 1_555 1_555
N28 C91 1_555 1_555
C92 N25 1_555 1_555
H91 C92 1_555 1_555
C93 C85 1_555 1_555
H92 C94 1_555 1_555
C95 N25 1_555 1_555
H93 C95 1_555 1_555
C96 C93 1_555 1_555
H94 C96 1_555 1_555
H95 C96 1_555 1_555
H96 C96 1_555 1_555
C97 N26 1_555 1_555
H97 C97 1_555 1_555
C86 C88 1_555 1_555
C90 C93 1_555 1_555
C91 C95 1_555 1_555
N28 C92 1_555 1_555
H46 C48 1_555 1_555
N19 C66 1_555 1_555
N20 C64 1_555 1_555
C64 H64 1_555 1_555
C65 N20 1_555 1_555
C66 N20 1_555 1_555
H65 C66 1_555 1_555
C67 N19 1_555 1_555
H66 C67 1_555 1_555
C68 C48 1_555 1_555
C70 C68 1_555 1_555
H68 C70 1_555 1_555
H69 C70 1_555 1_555
H70 C70 1_555 1_555
Cu11 N19 1_555 1_555
C64 C67 1_555 1_555
C65 C68 1_555 1_555
W1 O10 1_555 1_555
W2 O2 1_555 1_555
W3 O3 1_555 1_555
W4 O2 1_555 1_555
W5 O2 1_555 1_555
W6 O1 1_555 1_555
W7 O1 1_555 1_555
W8 O4 1_555 1_555
W9 O1 1_555 1_555
W10 O3 1_555 1_555
W11 O3 1_555 1_555
W12 O10 1_555 1_555
Cu1 O5 1_555 1_555
O1 Si1 1_555 1_555
O2 Si1 1_555 1_555
O3 Si1 1_555 1_555
O4 W7 1_555 1_555
O5 W10 1_555 1_555
O6 W11 1_555 1_555
O7 W2 1_555 1_555
O8 W3 1_555 1_555
O9 W7 1_555 1_555
O10 W8 1_555 1_555
O11 W2 1_555 1_555
O12 W12 1_555 1_555
O13 W3 1_555 1_555
O14 W5 1_555 1_555
O15 W9 1_555 1_555
O16 W2 1_555 1_555
O17 W4 1_555 1_555
O18 W6 1_555 1_555
O19 W7 1_555 1_555
N2 C10 1_555 1_555
N3 Cu1 1_555 1_555
O20 W8 1_555 1_555
O21 W6 1_555 1_555
O22 W1 1_555 1_555
C1 H1 1_555 1_555
O23 W9 1_555 1_555
O24 W3 1_555 1_555
O25 W10 1_555 1_555
O26 W8 1_555 1_555
O27 W2 1_555 1_555
O28 W1 1_555 1_555
N4 Cu1 1_555 1_555
N5 C8 1_555 1_555
N6 C3 1_555 1_555
O29 W7 1_555 1_555
O30 W8 1_555 1_555
N7 C2 1_555 1_555
O31 W4 1_555 1_555
O32 W2 1_555 1_555
C2 C15 1_555 1_555
O33 W5 1_555 1_555
O34 W1 1_555 1_555
C3 C6 1_555 1_555
O35 W5 1_555 1_555
O36 W6 1_555 1_555
C4 N4 1_555 1_555
H2 C4 1_555 1_555
C5 N3 1_555 1_555
H3 C5 1_555 1_555
O37 W6 1_555 1_555
C6 H4 1_555 1_555
O38 W3 1_555 1_555
C7 C9 1_555 1_555
C8 C12 1_555 1_555
C9 H5 1_555 1_555
H6 C9 1_555 1_555
H7 C9 1_555 1_555
C10 H8 1_555 1_555
O39 W1 1_555 1_555
O40 W1 1_555 1_555
C11 N2 1_555 1_555
H9 C11 1_555 1_555
C12 H10 1_555 1_555
C13 N4 1_555 1_555
H11 C13 1_555 1_555
C14 N7 1_555 1_555
H12 C14 1_555 1_555
Si1 O10 1_555 1_555
N8 Cu1 1_555 1_555
C15 C12 1_555 1_555
C16 N2 1_555 1_555
C17 C15 1_555 1_555
H13 C17 1_555 1_555
H14 C17 1_555 1_555
H15 C17 1_555 1_555
C18 N3 1_555 1_555
H16 C18 1_555 1_555
C19 C7 1_555 1_555
H17 C19 1_555 1_555
C20 N5 1_555 1_555
H18 C20 1_555 1_555
C21 C3 1_555 1_555
C22 C8 1_555 1_555
C23 N6 1_555 1_555
H19 C23 1_555 1_555
C24 C2 1_555 1_555
H20 C24 1_555 1_555
C25 C21 1_555 1_555
H21 C25 1_555 1_555
H22 C25 1_555 1_555
H23 C25 1_555 1_555
C27 C22 1_555 1_555
H25 C27 1_555 1_555
H26 C27 1_555 1_555
H27 C27 1_555 1_555
C28 N5 1_555 1_555
H28 C28 1_555 1_555
Cu2 O12 1_555 1_555
N9 Cu2 1_555 1_555
N11 C34 1_555 1_555
N13 Cu2 1_555 1_555
C34 H33 1_555 1_555
C37 N11 1_555 1_555
C44 N13 1_555 1_555
H43 C44 1_555 1_555
C45 N9 1_555 1_555
H44 C45 1_555 1_555
C46 N9 1_555 1_555
H45 C46 1_555 1_555
C47 C37 1_555 1_555
C49 C47 1_555 1_555
H47 C49 1_555 1_555
H48 C49 1_555 1_555
H49 C49 1_555 1_555
N15 C53 1_555 1_555
C50 H50 1_555 1_555
C51 C52 1_555 1_555
C52 H51 1_555 1_555
H52 C52 1_555 1_555
H53 C52 1_555 1_555
C53 H54 1_555 1_555
C54 N15 1_555 1_555
H55 C54 1_555 1_555
N16 C50 1_555 1_555
C55 C19 1_555 1_555
C56 C16 1_555 1_555
H56 C56 1_555 1_555
C69 C47 1_555 1_555
H67 C69 1_555 1_555
Cu7 N16 1_555 1_555
Cu9 O11 1_555 1_555
O82 Cu1 1_555 1_555
O83 Cu2 1_555 1_555
N30 Cu1 1_555 1_555
W3 O40 1_555 1_555
W4 O7 1_555 1_555
W4 O8 1_555 1_555
W4 O34 1_555 1_555
W5 O27 1_555 1_555
W5 O31 1_555 1_555
W6 O33 1_555 1_555
W7 O37 1_555 1_555
W8 O39 1_555 1_555
W9 O29 1_555 1_555
W9 O32 1_555 1_555
W9 O36 1_555 1_555
W10 O13 1_555 1_555
W10 O19 1_555 1_555
W10 O20 1_555 1_555
W11 O21 1_555 1_555
W11 O25 1_555 1_555
W11 O35 1_555 1_555
W11 O38 1_555 1_555
W12 O15 1_555 1_555
W12 O16 1_555 1_555
W12 O28 1_555 1_555
W12 O30 1_555 1_555
C1 C11 1_555 1_555
C1 N8 1_555 1_555
N6 C18 1_555 1_555
N7 C13 1_555 1_555
C4 C14 1_555 1_555
C5 C23 1_555 1_555
C7 C16 1_555 1_555
C10 N8 1_555 1_555
C22 C24 1_555 1_555
N11 C45 1_555 1_555
C34 C46 1_555 1_555
N15 C55 1_555 1_555
C50 C54 1_555 1_555
C51 C55 1_555 1_555
C51 C56 1_555 1_555
C53 N16 1_555 1_555
C26 N1 1_555 1_555
H24 C26 1_555 1_555
Cu9 N1 1_555 1_555
C82 N21 1_555 1_555
H80 C82 1_555 1_555
Cu6 N21 1_555 1_555
N17 C58 1_555 1_555
N18 C57 1_555 1_555
C57 C59 1_555 1_555
C58 H57 1_555 1_555
H58 C59 1_555 1_555
C60 N17 1_555 1_555
H59 C60 1_555 1_555
C62 N18 1_555 1_555
H60 C62 1_555 1_555
C63 C61 1_555 1_555
H61 C63 1_555 1_555
H62 C63 1_555 1_555
H63 C63 1_555 1_555
W13 O50 1_555 1_555
W14 O42 1_555 1_555
W15 O43 1_555 1_555
W16 O42 1_555 1_555
W17 O42 1_555 1_555
W18 O41 1_555 1_555
W19 O41 1_555 1_555
W20 O44 1_555 1_555
W21 O41 1_555 1_555
W22 O43 1_555 1_555
W23 O43 1_555 1_555
W24 O50 1_555 1_555
Cu7 N17 1_555 1_555
O41 Si2 1_555 1_555
O42 Si2 1_555 1_555
O43 Si2 1_555 1_555
O44 W19 1_555 1_555
O45 W22 1_555 1_555
O46 W23 1_555 1_555
O47 W14 1_555 1_555
O48 W15 1_555 1_555
O49 W19 1_555 1_555
O50 W20 1_555 1_555
O51 W14 1_555 1_555
O52 W24 1_555 1_555
O53 W15 1_555 1_555
O54 W17 1_555 1_555
O55 W21 1_555 1_555
O56 W14 1_555 1_555
O57 W16 1_555 1_555
O58 W18 1_555 1_555
O59 W19 1_555 1_555
O60 W20 1_555 1_555
O61 W18 1_555 1_555
O62 W13 1_555 1_555
O63 W21 1_555 1_555
O64 W15 1_555 1_555
O65 W22 1_555 1_555
O66 W20 1_555 1_555
O67 W14 1_555 1_555
O68 W13 1_555 1_555
N22 Cu7 1_555 1_555
N23 C73 1_555 1_555
O69 W19 1_555 1_555
O70 W20 1_555 1_555
N24 C71 1_555 1_555
O71 W16 1_555 1_555
O72 W14 1_555 1_555
C71 C77 1_555 1_555
O73 W17 1_555 1_555
O74 W13 1_555 1_555
O75 W17 1_555 1_555
O76 W18 1_555 1_555
C72 N22 1_555 1_555
H71 C72 1_555 1_555
O77 W18 1_555 1_555
O78 W15 1_555 1_555
C73 C74 1_555 1_555
O79 W13 1_555 1_555
O80 W13 1_555 1_555
C74 H72 1_555 1_555
C75 N22 1_555 1_555
H73 C75 1_555 1_555
C76 N24 1_555 1_555
H74 C76 1_555 1_555
Si2 O50 1_555 1_555
C77 C74 1_555 1_555
C78 C77 1_555 1_555
H75 C78 1_555 1_555
H76 C78 1_555 1_555
H77 C78 1_555 1_555
C79 N23 1_555 1_555
H78 C79 1_555 1_555
C80 C73 1_555 1_555
C81 C71 1_555 1_555
H79 C81 1_555 1_555
C83 C80 1_555 1_555
H81 C83 1_555 1_555
H82 C83 1_555 1_555
H83 C83 1_555 1_555
C84 N23 1_555 1_555
H84 C84 1_555 1_555
Cu11 O52 1_555 1_555
N27 Cu11 1_555 1_555
C98 N27 1_555 1_555
H98 C98 1_555 1_555
Cu6 O51 1_555 1_555
O81 Cu7 1_555 1_555
O84 Cu11 1_555 1_555
N29 Cu7 1_555 1_555
N18 C60 1_555 1_555
C57 C61 1_555 1_555
C58 C62 1_555 1_555
W15 O80 1_555 1_555
W16 O47 1_555 1_555
W16 O48 1_555 1_555
W16 O74 1_555 1_555
W17 O67 1_555 1_555
W17 O71 1_555 1_555
W18 O73 1_555 1_555
W19 O77 1_555 1_555
W20 O79 1_555 1_555
W21 O69 1_555 1_555
W21 O72 1_555 1_555
W21 O76 1_555 1_555
W22 O53 1_555 1_555
W22 O59 1_555 1_555
W22 O60 1_555 1_555
W23 O61 1_555 1_555
W23 O65 1_555 1_555
W23 O75 1_555 1_555
W23 O78 1_555 1_555
W24 O55 1_555 1_555
W24 O56 1_555 1_555
W24 O68 1_555 1_555
W24 O70 1_555 1_555
Cu7 O45 1_555 1_555
N24 C75 1_555 1_555
C72 C76 1_555 1_555
C80 C81 1_555 1_555
C51_2 C52_2 1_555 1_555
C52_2 H51_2 1_555 1_555
H52_2 C52_2 1_555 1_555
H53_2 C52_2 1_555 1_555
N10 C31 1_555 1_555
C30 C31 1_555 1_555
C32 C29 1_555 1_555
H29 C32 1_555 1_555
C33 C30 1_555 1_555
H30 C33 1_555 1_555
H31 C33 1_555 1_555
H32 C33 1_555 1_555
H37 C40 1_555 1_555
H44_2 C45_2 1_555 1_555
N15_2 C53_2 1_555 1_555
C50_2 H50_2 1_555 1_555
C53_2 H54_2 1_555 1_555
C54_2 N15_2 1_555 1_555
H55_2 C54_2 1_555 1_555
N16_2 C50_2 1_555 1_555
C70_2 C68_2 1_555 1_555
H69_2 C70_2 1_555 1_555
Cu9 N16_2 1_555 1_555
C30 C32 1_555 1_555
N15_2 C55_2 1_555 1_555
C50_2 C54_2 1_555 1_555
C53_2 N16_2 1_555 1_555
N29 C20_2 1_555 1_555
N5_2 C8_2 1_555 1_555
N7_2 C2_2 1_555 1_555
C2_2 C15_2 1_555 1_555
C4_2 N4_2 1_555 1_555
H2_2 C4_2 1_555 1_555
C8_2 C12_2 1_555 1_555
C12_2 H10_2 1_555 1_555
C13_2 N4_2 1_555 1_555
C14_2 N7_2 1_555 1_555
H12_2 C14_2 1_555 1_555
C15_2 C12_2 1_555 1_555
C17_2 C15_2 1_555 1_555
H13_2 C17_2 1_555 1_555
H14_2 C17_2 1_555 1_555
C20_2 N5_2 1_555 1_555
H18_2 C20_2 1_555 1_555
C22_2 C8_2 1_555 1_555
C24_2 C2_2 1_555 1_555
H20_2 C24_2 1_555 1_555
C25_2 C21_2 1_555 1_555
H21_2 C25_2 1_555 1_555
H22_2 C25_2 1_555 1_555
H23_2 C25_2 1_555 1_555
C26_2 N29 1_555 1_555
H24_2 C26_2 1_555 1_555
C27_2 C22_2 1_555 1_555
H25_2 C27_2 1_555 1_555
H26_2 C27_2 1_555 1_555
H27_2 C27_2 1_555 1_555
C28_2 N5_2 1_555 1_555
H28_2 C28_2 1_555 1_555
H56_2 C56_2 1_555 1_555
O49_2 W19_2 1_555 1_555
O58_2 W18_2 1_555 1_555
O59_2 W19_2 1_555 1_555
O61_2 W18_2 1_555 1_555
O69_2 W19_2 1_555 1_555
O76_2 W18_2 1_555 1_555
O77_2 W18_2 1_555 1_555
N7_2 C13_2 1_555 1_555
C4_2 C14_2 1_555 1_555
C22_2 C24_2 1_555 1_555
C26_2 C28_2 1_555 1_555
W19_2 O77_2 1_555 1_555
W1_2 O10_2 1_555 1_555
W2_2 O2_2 1_555 1_555
W3_2 O3_2 1_555 1_555
W4_2 O2_2 1_555 1_555
W5_2 O2_2 1_555 1_555
W8_2 O4_2 1_555 1_555
W9_2 O1_2 1_555 1_555
W10_2 O3_2 1_555 1_555
W11_2 O3_2 1_555 1_555
W12_2 O10_2 1_555 1_555
O1_2 Si1_2 1_555 1_555
O2_2 Si1_2 1_555 1_555
O3_2 Si1_2 1_555 1_555
O6_2 W11_2 1_555 1_555
O7_2 W2_2 1_555 1_555
O8_2 W3_2 1_555 1_555
O10_2 W8_2 1_555 1_555
O81 W2_2 1_555 1_555
O12_2 W12_2 1_555 1_555
O13_2 W3_2 1_555 1_555
O83 W5_2 1_555 1_555
O15_2 W9_2 1_555 1_555
O16_2 W2_2 1_555 1_555
O17_2 W4_2 1_555 1_555
O20_2 W8_2 1_555 1_555
O22_2 W1_2 1_555 1_555
O23_2 W9_2 1_555 1_555
O25_2 W10_2 1_555 1_555
O26_2 W8_2 1_555 1_555
O27_2 W2_2 1_555 1_555
O28_2 W1_2 1_555 1_555
O30_2 W8_2 1_555 1_555
O31_2 W4_2 1_555 1_555
O32_2 W2_2 1_555 1_555
O33_2 W5_2 1_555 1_555
O34_2 W1_2 1_555 1_555
O35_2 W5_2 1_555 1_555
O38_2 W3_2 1_555 1_555
O39_2 W1_2 1_555 1_555
O40_2 W1_2 1_555 1_555
Si1_2 O10_2 1_555 1_555
Cu10 O12_2 1_555 1_555
N9_2 Cu10 1_555 1_555
N11_2 C34_2 1_555 1_555
N13_2 Cu10 1_555 1_555
C34_2 H33_2 1_555 1_555
C35 H34 1_555 1_555
C37_2 N11_2 1_555 1_555
C42 C39 1_555 1_555
H39 C42 1_555 1_555
H40 C42 1_555 1_555
H41 C42 1_555 1_555
C43 N12 1_555 1_555
H42 C43 1_555 1_555
C44_2 N13_2 1_555 1_555
H43_2 C44_2 1_555 1_555
C46_2 N9_2 1_555 1_555
H45_2 C46_2 1_555 1_555
C48_2 C37_2 1_555 1_555
H46_2 C48_2 1_555 1_555
N17_2 C58_2 1_555 1_555
N18_2 C57_2 1_555 1_555
C57_2 C59_2 1_555 1_555
C58_2 H57_2 1_555 1_555
H58_2 C59_2 1_555 1_555
C60_2 N17_2 1_555 1_555
H59_2 C60_2 1_555 1_555
C62_2 N18_2 1_555 1_555
H60_2 C62_2 1_555 1_555
Cu9 N17_2 1_555 1_555
W3_2 O40_2 1_555 1_555
W4_2 O7_2 1_555 1_555
W4_2 O8_2 1_555 1_555
W4_2 O34_2 1_555 1_555
W5_2 O27_2 1_555 1_555
W5_2 O31_2 1_555 1_555
W8_2 O39_2 1_555 1_555
W9_2 O32_2 1_555 1_555
W10_2 O13_2 1_555 1_555
W10_2 O20_2 1_555 1_555
W11_2 O25_2 1_555 1_555
W11_2 O35_2 1_555 1_555
W11_2 O38_2 1_555 1_555
W12_2 O15_2 1_555 1_555
W12_2 O16_2 1_555 1_555
W12_2 O28_2 1_555 1_555
W12_2 O30_2 1_555 1_555
C34_2 C46_2 1_555 1_555
C35 C39 1_555 1_555
C43 C44_2 1_555 1_555
N18_2 C60_2 1_555 1_555
C58_2 C62_2 1_555 1_555
H17_2 C19_2 1_555 1_555
N20_2 C64_2 1_555 1_555
C64_2 H64_2 1_555 1_555
C65_2 N20_2 1_555 1_555
C67_2 N19_2 1_555 1_555
H66_2 C67_2 1_555 1_555
H67_2 C69_2 1_555 1_555
Cu12 N19_2 1_555 1_555
C64_2 C67_2 1_555 1_555
C65_2 C69_2 1_555 1_555
N2_2 C10_2 1_555 1_555
N3_2 Cu6 1_555 1_555
C1_2 H1_2 1_555 1_555
N6_2 C3_2 1_555 1_555
C3_2 C6_2 1_555 1_555
C5_2 N3_2 1_555 1_555
H3_2 C5_2 1_555 1_555
C6_2 H4_2 1_555 1_555
C10_2 H8_2 1_555 1_555
C11_2 N2_2 1_555 1_555
H9_2 C11_2 1_555 1_555
N8_2 Cu6 1_555 1_555
C16_2 N2_2 1_555 1_555
C18_2 N3_2 1_555 1_555
H16_2 C18_2 1_555 1_555
C23_2 N6_2 1_555 1_555
H19_2 C23_2 1_555 1_555
W13_2 O50_2 1_555 1_555
W14_2 O42_2 1_555 1_555
W15_2 O43_2 1_555 1_555
W16_2 O42_2 1_555 1_555
W17_2 O42_2 1_555 1_555
W20_2 O44_2 1_555 1_555
W21_2 O41_2 1_555 1_555
W22_2 O43_2 1_555 1_555
W23_2 O43_2 1_555 1_555
W24_2 O50_2 1_555 1_555
O41_2 Si2_2 1_555 1_555
O42_2 Si2_2 1_555 1_555
O43_2 Si2_2 1_555 1_555
O46_2 W23_2 1_555 1_555
O47_2 W14_2 1_555 1_555
O48_2 W15_2 1_555 1_555
O50_2 W20_2 1_555 1_555
O82 W14_2 1_555 1_555
O52_2 W24_2 1_555 1_555
O53_2 W15_2 1_555 1_555
O84 W17_2 1_555 1_555
O55_2 W21_2 1_555 1_555
O56_2 W14_2 1_555 1_555
O57_2 W16_2 1_555 1_555
O60_2 W20_2 1_555 1_555
O62_2 W13_2 1_555 1_555
O63_2 W21_2 1_555 1_555
O65_2 W22_2 1_555 1_555
O66_2 W20_2 1_555 1_555
O67_2 W14_2 1_555 1_555
O68_2 W13_2 1_555 1_555
O70_2 W20_2 1_555 1_555
O71_2 W16_2 1_555 1_555
O72_2 W14_2 1_555 1_555
O73_2 W17_2 1_555 1_555
O74_2 W13_2 1_555 1_555
O75_2 W17_2 1_555 1_555
O78_2 W15_2 1_555 1_555
O79_2 W13_2 1_555 1_555
O80_2 W13_2 1_555 1_555
Si2_2 O50_2 1_555 1_555
Cu12 O52_2 1_555 1_555
N27_2 Cu12 1_555 1_555
C90_2 H89_2 1_555 1_555
C96_2 C93_2 1_555 1_555
H94_2 C96_2 1_555 1_555
H95_2 C96_2 1_555 1_555
H96_2 C96_2 1_555 1_555
C97_2 N26_2 1_555 1_555
H97_2 C97_2 1_555 1_555
C98_2 N27_2 1_555 1_555
H98_2 C98_2 1_555 1_555
C1_2 C11_2 1_555 1_555
C1_2 N8_2 1_555 1_555
N6_2 C18_2 1_555 1_555
C5_2 C23_2 1_555 1_555
C10_2 N8_2 1_555 1_555
W15_2 O80_2 1_555 1_555
W16_2 O47_2 1_555 1_555
W16_2 O48_2 1_555 1_555
W16_2 O74_2 1_555 1_555
W17_2 O67_2 1_555 1_555
W17_2 O71_2 1_555 1_555
W20_2 O79_2 1_555 1_555
W21_2 O72_2 1_555 1_555
W22_2 O53_2 1_555 1_555
W22_2 O60_2 1_555 1_555
W23_2 O65_2 1_555 1_555
W23_2 O75_2 1_555 1_555
W23_2 O78_2 1_555 1_555
W24_2 O55_2 1_555 1_555
W24_2 O56_2 1_555 1_555
W24_2 O68_2 1_555 1_555
W24_2 O70_2 1_555 1_555
C90_2 C93_2 1_555 1_555
C97_2 C98_2 1_555 1_555
O9_2 W7_2 1_555 1_555
O18_2 W6_2 1_555 1_555
O19_2 W7_2 1_555 1_555
O21_2 W6_2 1_555 1_555
O29_2 W7_2 1_555 1_555
O36_2 W6_2 1_555 1_555
O37_2 W6_2 1_555 1_555
C7_2 C9_2 1_555 1_555
C9_2 H5_2 1_555 1_555
H6_2 C9_2 1_555 1_555
H7_2 C9_2 1_555 1_555
C49_2 C47_2 1_555 1_555
H48_2 C49_2 1_555 1_555
C63_2 C61_2 1_555 1_555
H61_2 C63_2 1_555 1_555
H62_2 C63_2 1_555 1_555
H63_2 C63_2 1_555 1_555
H65_2 C66_2 1_555 1_555
N30 C79_2 1_555 1_555
N23_2 C73_2 1_555 1_555
N24_2 C71_2 1_555 1_555
C71_2 C77_2 1_555 1_555
C72_2 N22_2 1_555 1_555
H71_2 C72_2 1_555 1_555
C73_2 C74_2 1_555 1_555
C74_2 H72_2 1_555 1_555
C75_2 N22_2 1_555 1_555
C76_2 N24_2 1_555 1_555
H74_2 C76_2 1_555 1_555
C77_2 C74_2 1_555 1_555
C78_2 C77_2 1_555 1_555
H75_2 C78_2 1_555 1_555
H76_2 C78_2 1_555 1_555
C79_2 N23_2 1_555 1_555
H78_2 C79_2 1_555 1_555
C80_2 C73_2 1_555 1_555
C81_2 C71_2 1_555 1_555
H79_2 C81_2 1_555 1_555
C82_2 N30 1_555 1_555
H80_2 C82_2 1_555 1_555
C83_2 C80_2 1_555 1_555
H81_2 C83_2 1_555 1_555
H82_2 C83_2 1_555 1_555
H83_2 C83_2 1_555 1_555
C84_2 N23_2 1_555 1_555
H84_2 C84_2 1_555 1_555
W7_2 O37_2 1_555 1_555
N24_2 C75_2 1_555 1_555
C72_2 C76_2 1_555 1_555
C80_2 C81_2 1_555 1_555
C82_2 C84_2 1_555 1_555
N25_2 C87_2 1_555 1_555
C86_2 C87_2 1_555 1_555
C88_2 C85_2 1_555 1_555
H85_2 C88_2 1_555 1_555
C89_2 C86_2 1_555 1_555
H86_2 C89_2 1_555 1_555
H87_2 C89_2 1_555 1_555
H88_2 C89_2 1_555 1_555
H92_2 C94_2 1_555 1_555
C86_2 C88_2 1_555 1_555
C29_2 N12_2 1_555 1_555
N10_2 C31_2 1_555 1_555
C30_2 C31_2 1_555 1_555
N12_2 C40_2 1_555 1_555
C31_2 C35_2 1_555 1_555
C32_2 C29_2 1_555 1_555
H29_2 C32_2 1_555 1_555
C33_2 C30_2 1_555 1_555
H30_2 C33_2 1_555 1_555
H31_2 C33_2 1_555 1_555
H32_2 C33_2 1_555 1_555
C35_2 H34_2 1_555 1_555
C36 H35 1_555 1_555
N14 C36 1_555 1_555
C38 N10_2 1_555 1_555
H36 C38 1_555 1_555
C39_2 C29_2 1_555 1_555
H37_2 C40_2 1_555 1_555
C41 N10_2 1_555 1_555
H38_2 C41 1_555 1_555
C42_2 C39_2 1_555 1_555
H39_2 C42_2 1_555 1_555
H40_2 C42_2 1_555 1_555
H41_2 C42_2 1_555 1_555
C43_2 N12_2 1_555 1_555
H42_2 C43_2 1_555 1_555
C30_2 C32_2 1_555 1_555
C35_2 C39_2 1_555 1_555
C36 C41 1_555 1_555
N14 C38 1_555 1_555
C36_2 H35_2 1_555 1_555
C36_2 C41_2 1_555 1_555
H36_2 C38_2 1_555 1_555
N14_2 C38_2 1_555 1_555
H91_2 C92_2 1_555 1_555
N28_2 C92_2 1_555 1_555
C91_2 H90_2 1_555 1_555
C91_2 C95_2 1_555 1_555

#END
