
###############################################################################
#
# This file contains modified crystal structure data generated from the
# MOF subset of the Cambridge Structural Database (CSD) v543 
# hosted by the Cambridge Crystallographic Data Centre (CCDC).
#
# This work is licensed under the Creative Commons
# Attribution-NonCommercial-ShareAlike 4.0 International License.
# To view a copy of this license, visit
# http://creativecommons.org/licenses/by-nc-sa/4.0/
# or send a letter to
# Creative Commons, PO Box 1866, Mountain View, CA 94042, USA.
#
# CIF created using the CSD Python API on 29 September 2022
# The structure has been converted into the P1 space group
# The structure has a 3D framework
# The original CSD entry EKOMEY is in the monoclinic crystal system
# The framework has been calculated to contain at least 10.0% void space
# The void calculation uses a probe of radius 1.32A, grid spacing 0.4
#
###############################################################################

data_EKOMEY
_chemical_formula_moiety         '(C208 H144 Cd5 N56 O16)n'
_symmetry_cell_setting           triclinic
_symmetry_space_group_name_H-M   'P 1'
_symmetry_Int_Tables_number      1
_space_group_name_Hall           'P 1'
loop_
_symmetry_equiv_pos_site_id
_symmetry_equiv_pos_as_xyz
1 x,y,z
_cell_length_a                   18.535(4)
_cell_length_b                   27.031(6)
_cell_length_c                   10.995(3)
_cell_angle_alpha                90
_cell_angle_beta                 103.158(4)
_cell_angle_gamma                90
_cell_volume                     5364.08
loop_
_atom_site_label
_atom_site_type_symbol
_atom_site_fract_x
_atom_site_fract_y
_atom_site_fract_z
Cd5 Cd 0.0000 0.238938(12) 0.2500
Cd4 Cd -0.0000 0.761062(12) 0.7500
Cd1 Cd 0.5000 0.261062(12) 0.7500
C1 C 0.4260(2) 0.18191(14) 0.5231(4)
H1 H 0.4725 0.1745 0.5093
C2 C 0.3412(2) 0.2081(2) 0.5988(5)
H2 H 0.3163 0.2237 0.6525
C5 C 0.3500(2) 0.13786(13) 0.3398(3)
C6 C 0.4060(2) 0.13163(13) 0.2770(4)
H5 H 0.4517 0.1468 0.3067
C7 C 0.39443(19) 0.10315(13) 0.1708(4)
H6 H 0.4329 0.0985 0.1306
C8 C 0.32623(19) 0.08121(13) 0.1227(3)
C9 C 0.2701(2) 0.08869(15) 0.1862(4)
H7 H 0.2238 0.0745 0.1557
C10 C 0.2822(2) 0.11664(15) 0.2927(4)
H8 H 0.2440 0.1213 0.3336
C14 C 0.2635(2) 0.01083(13) 0.0039(4)
C23 C 0.6064(3) 0.24718(18) 0.5618(7)
C24 C 0.6817(2) 0.24876(14) 0.5303(5)
C25 C 0.6919(3) 0.2297(2) 0.4171(6)
H17 H 0.6521 0.2161 0.3598
C26 C 0.7391(3) 0.2688(2) 0.6094(5)
H18 H 0.7325 0.2822 0.6840
N1 N 0.41464(17) 0.20876(11) 0.6176(3)
N2 N 0.36232(16) 0.16698(11) 0.4505(3)
N3 N 0.3060(2) 0.18378(18) 0.4988(4)
N7 N 0.31290(17) 0.05226(11) 0.0132(3)
O1 O 0.59608(19) 0.26476(18) 0.6536(3)
O2 O 0.5527(3) 0.2292(3) 0.4725(8)
C49 C 0.8936(3) 0.25282(18) 0.4382(7)
C50 C 0.8183(2) 0.25124(14) 0.4697(5)
C51 C 0.8081(3) 0.2703(2) 0.5829(6)
H35 H 0.8479 0.2839 0.6402
C52 C 0.7609(3) 0.2312(2) 0.3906(5)
H36 H 0.7675 0.2178 0.3160
O3 O 0.90392(19) 0.23524(18) 0.3464(3)
O4 O 0.9473(3) 0.2708(3) 0.5275(8)
Cd5_2 Cd 1.0000 0.238938(12) 0.2500
N15 N 0.58536(17) 0.20876(11) 0.8824(3)
N16 N 0.55688(17) 0.32466(11) 0.8867(3)
N17 N 0.44312(17) 0.32466(11) 0.6133(3)
O5 O 0.40392(19) 0.26476(18) 0.8464(3)
C15 C 0.2054(2) 0.00661(14) 0.8977(4)
H11 H 0.1987 0.0306 0.8355
C17 C 0.3645(2) 0.05204(13) 0.9340(3)
C18 C 0.3816(2) 0.09524(13) 0.8796(4)
H13 H 0.3573 0.1244 0.8905
C19 C 0.4346(2) 0.09551(13) 0.8090(4)
H14 H 0.4459 0.1251 0.7746
C20 C 0.47134(19) 0.05253(12) 0.7882(3)
C21 C 0.4521(2) 0.00930(13) 0.8409(3)
C22 C 0.4000(2) 0.00885(13) 0.9122(3)
C31 C 0.6500(2) 0.13786(13) 0.1602(3)
C32 C 0.5940(2) 0.13163(13) 0.2230(4)
H23 H 0.5483 0.1468 0.1933
C33 C 0.60557(19) 0.10315(13) 0.3292(4)
H24 H 0.5671 0.0985 0.3694
C34 C 0.67377(19) 0.08121(13) 0.3773(3)
C35 C 0.7299(2) 0.08869(15) 0.3138(4)
H25 H 0.7762 0.0745 0.3443
C36 C 0.7178(2) 0.11664(15) 0.2073(4)
H26 H 0.7560 0.1213 0.1664
C40 C 0.7365(2) 0.01083(13) 0.4961(4)
C41 C 0.7946(2) 0.00661(14) 0.6023(4)
H29 H 0.8013 0.0306 0.6645
C43 C 0.6355(2) 0.05204(13) 0.5660(3)
C44 C 0.6184(2) 0.09524(13) 0.6204(4)
H31 H 0.6427 0.1244 0.6095
C45 C 0.5654(2) 0.09551(13) 0.6910(4)
H32 H 0.5541 0.1251 0.7254
C46 C 0.52866(19) 0.05253(12) 0.7118(3)
C47 C 0.5479(2) 0.00930(13) 0.6591(3)
C48 C 0.6000(2) 0.00885(13) 0.5878(3)
N9 N 0.63768(16) 0.16698(11) 0.0495(3)
N10 N 0.6940(2) 0.18378(18) 0.0012(4)
N14 N 0.68710(17) 0.05226(11) 0.4868(3)
C27 C 0.5740(2) 0.18191(14) 0.9769(4)
H19 H 0.5275 0.1745 0.9907
C28 C 0.6588(2) 0.2081(2) 0.9012(5)
H20 H 0.6837 0.2237 0.8475
C4 C 0.0892(2) 0.86495(13) 0.8594(4)
H4 H 0.0879 0.8762 0.7790
C11 C 0.1694(2) 0.93092(13) 0.9802(4)
C16 C 0.1582(2) 0.96622(14) 0.8863(4)
H12 H 0.1193 0.9629 0.8164
H15 H 0.4750 0.9798 0.8277
H16 H 0.3884 0.9792 0.9462
N4 N 0.05688(17) 0.82466(11) 0.8867(3)
N5 N 0.12431(17) 0.88764(11) 0.9648(3)
C29 C 0.9245(3) 0.82381(16) 0.4869(4)
H21 H 0.9397 0.7985 0.4412
C30 C 0.9108(2) 0.86495(13) 0.6406(4)
H22 H 0.9121 0.8762 0.7210
C37 C 0.8306(2) 0.93092(13) 0.5198(4)
C38 C 0.7733(2) 0.93529(14) 0.4141(4)
H27 H 0.7663 0.9112 0.3521
C39 C 0.7272(2) 0.97558(14) 0.4024(4)
H28 H 0.6894 0.9792 0.3310
C42 C 0.8418(2) 0.96622(14) 0.6137(4)
H30 H 0.8807 0.9629 0.6836
H33 H 0.5250 0.9798 0.6723
H34 H 0.6116 0.9792 0.5538
N11 N 0.94312(17) 0.82466(11) 0.6133(3)
N12 N 0.87569(17) 0.88764(11) 0.5352(3)
N13 N 0.8841(2) 0.86054(13) 0.4330(3)
Cd4_2 Cd 1.0000 0.761062(12) 0.7500
C25_2 C 0.3081(3) 0.2297(2) 0.0829(6)
H17_2 H 0.3479 0.2161 0.1402
O2_2 O 0.4473(3) 0.2292(3) 0.0275(8)
C49_2 C 0.1064(3) 0.25282(18) 0.0618(7)
C50_2 C 0.1817(2) 0.25124(14) 0.0303(5)
C52_2 C 0.2391(3) 0.2312(2) 0.1094(5)
H36_2 H 0.2325 0.2178 0.1840
O3_2 O 0.09608(19) 0.23524(18) 0.1536(3)
C23_2 C 0.3936(3) 0.24718(18) 0.9382(7)
C24_2 C 0.3183(2) 0.24876(14) 0.9697(5)
C26_2 C 0.2609(3) 0.2688(2) 0.8906(5)
H18_2 H 0.2675 0.2822 0.8160
C51_2 C 0.1919(3) 0.2703(2) 0.9171(6)
H35_2 H 0.1521 0.2839 0.8598
O4_2 O 0.0527(3) 0.2708(3) 0.9725(8)
C23_3 C 0.1064(3) 0.74718(18) 0.5618(7)
C24_3 C 0.1817(2) 0.74876(14) 0.5303(5)
C25_3 C 0.1919(3) 0.7297(2) 0.4171(6)
H17_3 H 0.1521 0.7161 0.3598
C26_3 C 0.2391(3) 0.7688(2) 0.6094(5)
H18_3 H 0.2325 0.7822 0.6840
O1_2 O 0.09608(19) 0.76476(18) 0.6536(3)
O2_3 O 0.0527(3) 0.7292(3) 0.4725(8)
C49_3 C 0.3936(3) 0.75282(18) 0.4382(7)
C50_3 C 0.3183(2) 0.75124(14) 0.4697(5)
C51_3 C 0.3081(3) 0.7703(2) 0.5829(6)
H35_3 H 0.3479 0.7839 0.6402
C52_3 C 0.2609(3) 0.7312(2) 0.3906(5)
H36_3 H 0.2675 0.7178 0.3160
O3_3 O 0.40392(19) 0.73524(18) 0.3464(3)
O4_3 O 0.4473(3) 0.7708(3) 0.5275(8)
Cd5_3 Cd 0.5000 0.738938(12) 0.2500
N15_2 N 0.08536(17) 0.70876(11) 0.8824(3)
C29_2 C 0.4245(3) 0.32381(16) 0.4869(4)
H21_2 H 0.4397 0.2985 0.4412
C30_2 C 0.4108(2) 0.36495(13) 0.6406(4)
H22_2 H 0.4121 0.3762 0.7210
C31_2 C 0.1500(2) 0.63786(13) 0.1602(3)
C32_2 C 0.0940(2) 0.63163(13) 0.2230(4)
H23_2 H 0.0483 0.6468 0.1933
C33_2 C 0.10557(19) 0.60315(13) 0.3292(4)
H24_2 H 0.0671 0.5985 0.3694
C34_2 C 0.17377(19) 0.58121(13) 0.3773(3)
C35_2 C 0.2299(2) 0.58869(15) 0.3138(4)
H25_2 H 0.2762 0.5745 0.3443
C36_2 C 0.2178(2) 0.61664(15) 0.2073(4)
H26_2 H 0.2560 0.6213 0.1664
C37_2 C 0.3306(2) 0.43092(13) 0.5198(4)
C38_2 C 0.2733(2) 0.43529(14) 0.4141(4)
H27_2 H 0.2663 0.4112 0.3521
C39_2 C 0.2272(2) 0.47558(14) 0.4024(4)
H28_2 H 0.1894 0.4792 0.3310
C40_2 C 0.2365(2) 0.51083(13) 0.4961(4)
C41_2 C 0.2946(2) 0.50661(14) 0.6023(4)
H29_2 H 0.3013 0.5306 0.6645
C42_2 C 0.3418(2) 0.46622(14) 0.6137(4)
H30_2 H 0.3807 0.4629 0.6836
C43_2 C 0.1355(2) 0.55204(13) 0.5660(3)
C44_2 C 0.1184(2) 0.59524(13) 0.6204(4)
H31_2 H 0.1427 0.6244 0.6095
C45_2 C 0.0654(2) 0.59551(13) 0.6910(4)
H32_2 H 0.0541 0.6251 0.7254
C46_2 C 0.02866(19) 0.55253(12) 0.7118(3)
C47_2 C 0.0479(2) 0.50930(13) 0.6591(3)
H33_2 H 0.0250 0.4798 0.6723
C48_2 C 0.1000(2) 0.50885(13) 0.5878(3)
H34_2 H 0.1116 0.4792 0.5538
N9_2 N 0.13768(16) 0.66698(11) 0.0495(3)
N10_2 N 0.1940(2) 0.68378(18) 0.0012(4)
N12_2 N 0.37569(17) 0.38764(11) 0.5352(3)
N13_2 N 0.3841(2) 0.36054(13) 0.4330(3)
N14_2 N 0.18710(17) 0.55226(11) 0.4868(3)
C27_2 C 0.0740(2) 0.68191(14) 0.9769(4)
H19_2 H 0.0275 0.6745 0.9907
C28_2 C 0.1588(2) 0.7081(2) 0.9012(5)
H20_2 H 0.1837 0.7237 0.8475
C1_2 C 0.9260(2) 0.68191(14) 0.5231(4)
H1_2 H 0.9725 0.6745 0.5093
C2_2 C 0.8412(2) 0.7081(2) 0.5988(5)
H2_2 H 0.8163 0.7237 0.6525
C3 C 0.5755(3) 0.32381(16) 0.0131(4)
H3 H 0.5603 0.2985 0.0588
C5_2 C 0.8500(2) 0.63786(13) 0.3398(3)
C6_2 C 0.9060(2) 0.63163(13) 0.2770(4)
H5_2 H 0.9517 0.6468 0.3067
C7_2 C 0.89443(19) 0.60315(13) 0.1708(4)
H6_2 H 0.9329 0.5985 0.1306
C8_2 C 0.82623(19) 0.58121(13) 0.1227(3)
C9_2 C 0.7701(2) 0.58869(15) 0.1862(4)
H7_2 H 0.7238 0.5745 0.1557
C10_2 C 0.7822(2) 0.61664(15) 0.2927(4)
H8_2 H 0.7440 0.6213 0.3336
C12 C 0.7267(2) 0.43529(14) 0.0859(4)
H9 H 0.7337 0.4112 0.1479
C13 C 0.7728(2) 0.47558(14) 0.0976(4)
H10 H 0.8106 0.4792 0.1690
C14_2 C 0.7635(2) 0.51083(13) 0.0039(4)
N1_2 N 0.91464(17) 0.70876(11) 0.6176(3)
N2_2 N 0.86232(16) 0.66698(11) 0.4505(3)
N3_2 N 0.8060(2) 0.68378(18) 0.4988(4)
N6 N 0.6159(2) 0.36054(13) 0.0670(3)
N7_2 N 0.81290(17) 0.55226(11) 0.0132(3)
O5_2 O 0.90392(19) 0.76476(18) 0.8464(3)
C4_2 C 0.5892(2) 0.36495(13) 0.8594(4)
H4_2 H 0.5879 0.3762 0.7790
C11_2 C 0.6694(2) 0.43092(13) 0.9802(4)
C15_2 C 0.7054(2) 0.50661(14) 0.8977(4)
H11_2 H 0.6987 0.5306 0.8355
C16_2 C 0.6582(2) 0.46622(14) 0.8863(4)
H12_2 H 0.6193 0.4629 0.8164
C17_2 C 0.8645(2) 0.55204(13) 0.9340(3)
C18_2 C 0.8816(2) 0.59524(13) 0.8796(4)
H13_2 H 0.8573 0.6244 0.8905
C19_2 C 0.9346(2) 0.59551(13) 0.8090(4)
H14_2 H 0.9459 0.6251 0.7746
C20_2 C 0.97134(19) 0.55253(12) 0.7882(3)
C21_2 C 0.9521(2) 0.50930(13) 0.8409(3)
H15_2 H 0.9750 0.4798 0.8277
C22_2 C 0.9000(2) 0.50885(13) 0.9122(3)
H16_2 H 0.8884 0.4792 0.9462
N5_2 N 0.62431(17) 0.38764(11) 0.9648(3)
C25_4 C 0.8081(3) 0.7297(2) 0.0829(6)
H17_4 H 0.8479 0.7161 0.1402
O2_4 O 0.9473(3) 0.7292(3) 0.0275(8)
C49_4 C 0.6064(3) 0.75282(18) 0.0618(7)
C50_4 C 0.6817(2) 0.75124(14) 0.0303(5)
C52_4 C 0.7391(3) 0.7312(2) 0.1094(5)
H36_4 H 0.7325 0.7178 0.1840
O3_4 O 0.59608(19) 0.73524(18) 0.1536(3)
C23_4 C 0.8936(3) 0.74718(18) 0.9382(7)
C24_4 C 0.8183(2) 0.74876(14) 0.9697(5)
C26_4 C 0.7609(3) 0.7688(2) 0.8906(5)
H18_4 H 0.7675 0.7822 0.8160
C51_4 C 0.6919(3) 0.7703(2) 0.9171(6)
H35_4 H 0.6521 0.7839 0.8598
O4_4 O 0.5527(3) 0.7708(3) 0.9725(8)
C4_3 C 0.9108(2) 0.13505(13) 0.1406(4)
H4_3 H 0.9121 0.1238 0.2210
C11_3 C 0.8306(2) 0.06908(13) 0.0198(4)
C16_3 C 0.8418(2) 0.03378(14) 0.1137(4)
H12_3 H 0.8807 0.0371 0.1836
H15_3 H 0.5250 0.0202 0.1723
H16_3 H 0.6116 0.0208 0.0538
N4_2 N 0.94312(17) 0.17534(11) 0.1133(3)
N5_3 N 0.87569(17) 0.11236(11) 0.0352(3)
C29_3 C 0.0755(3) 0.17619(16) 0.5131(4)
H21_3 H 0.0603 0.2015 0.5588
C30_3 C 0.0892(2) 0.13505(13) 0.3594(4)
H22_3 H 0.0879 0.1238 0.2790
C37_3 C 0.1694(2) 0.06908(13) 0.4802(4)
C38_3 C 0.2267(2) 0.06471(14) 0.5859(4)
H27_3 H 0.2337 0.0888 0.6479
C39_3 C 0.2728(2) 0.02442(14) 0.5976(4)
H28_3 H 0.3106 0.0208 0.6690
C42_3 C 0.1582(2) 0.03378(14) 0.3863(4)
H30_3 H 0.1193 0.0371 0.3164
H33_3 H 0.4750 0.0202 0.3277
H34_3 H 0.3884 0.0208 0.4462
N11_2 N 0.05688(17) 0.17534(11) 0.3867(3)
N12_3 N 0.12431(17) 0.11236(11) 0.4648(3)
N13_3 N 0.1159(2) 0.13946(13) 0.5670(3)
C27_3 C 0.4260(2) 0.81809(14) 0.0231(4)
H19_3 H 0.4725 0.8255 0.0093
C28_3 C 0.3412(2) 0.7919(2) 0.0988(5)
H20_3 H 0.3163 0.7763 0.1525
N8 N 0.41464(17) 0.79124(11) 0.1176(3)
C15_3 C 0.7946(2) 0.99339(14) 0.1023(4)
H11_3 H 0.8013 0.9694 0.1645
C17_3 C 0.6355(2) 0.94796(13) 0.0660(3)
C18_3 C 0.6184(2) 0.90476(13) 0.1204(4)
H13_3 H 0.6427 0.8756 0.1095
C19_3 C 0.5654(2) 0.90449(13) 0.1910(4)
H14_3 H 0.5541 0.8749 0.2254
C20_3 C 0.52866(19) 0.94747(12) 0.2118(3)
C21_3 C 0.5479(2) 0.99070(13) 0.1591(3)
C22_3 C 0.6000(2) 0.99115(13) 0.0878(3)
C31_3 C 0.3500(2) 0.86214(13) 0.8398(3)
C32_3 C 0.4060(2) 0.86837(13) 0.7770(4)
H23_3 H 0.4517 0.8532 0.8067
C33_3 C 0.39443(19) 0.89685(13) 0.6708(4)
H24_3 H 0.4329 0.9015 0.6306
C34_3 C 0.32623(19) 0.91879(13) 0.6227(3)
C35_3 C 0.2701(2) 0.91131(15) 0.6862(4)
H25_3 H 0.2238 0.9255 0.6557
C36_3 C 0.2822(2) 0.88336(15) 0.7927(4)
H26_3 H 0.2440 0.8787 0.8336
C40_3 C 0.2635(2) 0.98917(13) 0.5039(4)
C41_3 C 0.2054(2) 0.99339(14) 0.3977(4)
H29_3 H 0.1987 0.9694 0.3355
C43_3 C 0.3645(2) 0.94796(13) 0.4340(3)
C44_3 C 0.3816(2) 0.90476(13) 0.3796(4)
H31_3 H 0.3573 0.8756 0.3905
C45_3 C 0.4346(2) 0.90449(13) 0.3090(4)
H32_3 H 0.4459 0.8749 0.2746
C46_3 C 0.47134(19) 0.94747(12) 0.2882(3)
C47_3 C 0.4521(2) 0.99070(13) 0.3409(3)
C48_3 C 0.4000(2) 0.99115(13) 0.4122(3)
N9_3 N 0.36232(16) 0.83302(11) 0.9505(3)
N10_3 N 0.3060(2) 0.81622(18) 0.9988(4)
N14_3 N 0.31290(17) 0.94774(11) 0.5132(3)
C1_3 C 0.5740(2) 0.81809(14) 0.4769(4)
H1_3 H 0.5275 0.8255 0.4907
C2_3 C 0.6588(2) 0.7919(2) 0.4012(5)
H2_3 H 0.6837 0.7763 0.3475
C5_3 C 0.6500(2) 0.86214(13) 0.6602(3)
C6_3 C 0.5940(2) 0.86837(13) 0.7230(4)
H5_3 H 0.5483 0.8532 0.6933
C7_3 C 0.60557(19) 0.89685(13) 0.8292(4)
H6_3 H 0.5671 0.9015 0.8694
C8_3 C 0.67377(19) 0.91879(13) 0.8773(3)
C9_3 C 0.7299(2) 0.91131(15) 0.8138(4)
H7_3 H 0.7762 0.9255 0.8443
C10_3 C 0.7178(2) 0.88336(15) 0.7073(4)
H8_3 H 0.7560 0.8787 0.6664
C14_3 C 0.7365(2) 0.98917(13) 0.9961(4)
N1_3 N 0.58536(17) 0.79124(11) 0.3824(3)
N2_3 N 0.63768(16) 0.83302(11) 0.5495(3)
N3_3 N 0.6940(2) 0.81622(18) 0.5012(4)
N7_3 N 0.68710(17) 0.94774(11) 0.9868(3)
N16_2 N 0.44312(17) 0.67534(11) 0.1133(3)
N17_2 N 0.55688(17) 0.67534(11) 0.3867(3)
C4_4 C 0.4108(2) 0.63505(13) 0.1406(4)
H4_4 H 0.4121 0.6238 0.2210
C11_4 C 0.3306(2) 0.56908(13) 0.0198(4)
C15_4 C 0.2946(2) 0.49339(14) 0.1023(4)
H11_4 H 0.3013 0.4694 0.1645
C16_4 C 0.3418(2) 0.53378(14) 0.1137(4)
H12_4 H 0.3807 0.5371 0.1836
C17_4 C 0.1355(2) 0.44796(13) 0.0660(3)
C18_4 C 0.1184(2) 0.40476(13) 0.1204(4)
H13_4 H 0.1427 0.3756 0.1095
C19_4 C 0.0654(2) 0.40449(13) 0.1910(4)
H14_4 H 0.0541 0.3749 0.2254
C20_4 C 0.02866(19) 0.44747(12) 0.2118(3)
C21_4 C 0.0479(2) 0.49070(13) 0.1591(3)
H15_4 H 0.0250 0.5202 0.1723
C22_4 C 0.1000(2) 0.49115(13) 0.0878(3)
H16_4 H 0.1116 0.5208 0.0538
N5_4 N 0.37569(17) 0.61236(11) 0.0352(3)
C1_4 C 0.0740(2) 0.31809(14) 0.4769(4)
H1_4 H 0.0275 0.3255 0.4907
C2_4 C 0.1588(2) 0.2919(2) 0.4012(5)
H2_4 H 0.1837 0.2763 0.3475
C3_2 C 0.4245(3) 0.67619(16) 0.9869(4)
H3_2 H 0.4397 0.7015 0.9412
C5_4 C 0.1500(2) 0.36214(13) 0.6602(3)
C6_4 C 0.0940(2) 0.36837(13) 0.7230(4)
H5_4 H 0.0483 0.3532 0.6933
C7_4 C 0.10557(19) 0.39685(13) 0.8292(4)
H6_4 H 0.0671 0.4015 0.8694
C8_4 C 0.17377(19) 0.41879(13) 0.8773(3)
C9_4 C 0.2299(2) 0.41131(15) 0.8138(4)
H7_4 H 0.2762 0.4255 0.8443
C10_4 C 0.2178(2) 0.38336(15) 0.7073(4)
H8_4 H 0.2560 0.3787 0.6664
C12_2 C 0.2733(2) 0.56471(14) 0.9141(4)
H9_2 H 0.2663 0.5888 0.8521
C13_2 C 0.2272(2) 0.52442(14) 0.9024(4)
H10_2 H 0.1894 0.5208 0.8310
C14_4 C 0.2365(2) 0.48917(13) 0.9961(4)
N1_4 N 0.08536(17) 0.29124(11) 0.3824(3)
N2_4 N 0.13768(16) 0.33302(11) 0.5495(3)
N3_4 N 0.1940(2) 0.31622(18) 0.5012(4)
N6_2 N 0.3841(2) 0.63946(13) 0.9330(3)
N7_4 N 0.18710(17) 0.44774(11) 0.9868(3)
C27_4 C 0.9260(2) 0.31809(14) 0.0231(4)
H19_4 H 0.9725 0.3255 0.0093
C28_4 C 0.8412(2) 0.2919(2) 0.0988(5)
H20_4 H 0.8163 0.2763 0.1525
N8_2 N 0.91464(17) 0.29124(11) 0.1176(3)
C29_4 C 0.5755(3) 0.67619(16) 0.5131(4)
H21_4 H 0.5603 0.7015 0.5588
C30_4 C 0.5892(2) 0.63505(13) 0.3594(4)
H22_4 H 0.5879 0.6238 0.2790
C31_4 C 0.8500(2) 0.36214(13) 0.8398(3)
C32_4 C 0.9060(2) 0.36837(13) 0.7770(4)
H23_4 H 0.9517 0.3532 0.8067
C33_4 C 0.89443(19) 0.39685(13) 0.6708(4)
H24_4 H 0.9329 0.4015 0.6306
C34_4 C 0.82623(19) 0.41879(13) 0.6227(3)
C35_4 C 0.7701(2) 0.41131(15) 0.6862(4)
H25_4 H 0.7238 0.4255 0.6557
C36_4 C 0.7822(2) 0.38336(15) 0.7927(4)
H26_4 H 0.7440 0.3787 0.8336
C37_4 C 0.6694(2) 0.56908(13) 0.4802(4)
C38_4 C 0.7267(2) 0.56471(14) 0.5859(4)
H27_4 H 0.7337 0.5888 0.6479
C39_4 C 0.7728(2) 0.52442(14) 0.5976(4)
H28_4 H 0.8106 0.5208 0.6690
C40_4 C 0.7635(2) 0.48917(13) 0.5039(4)
C41_4 C 0.7054(2) 0.49339(14) 0.3977(4)
H29_4 H 0.6987 0.4694 0.3355
C42_4 C 0.6582(2) 0.53378(14) 0.3863(4)
H30_4 H 0.6193 0.5371 0.3164
C43_4 C 0.8645(2) 0.44796(13) 0.4340(3)
C44_4 C 0.8816(2) 0.40476(13) 0.3796(4)
H31_4 H 0.8573 0.3756 0.3905
C45_4 C 0.9346(2) 0.40449(13) 0.3090(4)
H32_4 H 0.9459 0.3749 0.2746
C46_4 C 0.97134(19) 0.44747(12) 0.2882(3)
C47_4 C 0.9521(2) 0.49070(13) 0.3409(3)
H33_4 H 0.9750 0.5202 0.3277
C48_4 C 0.9000(2) 0.49115(13) 0.4122(3)
H34_4 H 0.8884 0.5208 0.4462
N9_4 N 0.86232(16) 0.33302(11) 0.9505(3)
N10_4 N 0.8060(2) 0.31622(18) 0.9988(4)
N12_4 N 0.62431(17) 0.61236(11) 0.4648(3)
N13_4 N 0.6159(2) 0.63946(13) 0.5670(3)
N14_4 N 0.81290(17) 0.44774(11) 0.5132(3)
C3_3 C 0.0755(3) 0.82381(16) 0.0131(4)
H3_3 H 0.0603 0.7985 0.0588
C12_3 C 0.2267(2) 0.93529(14) 0.0859(4)
H9_3 H 0.2337 0.9112 0.1479
C13_3 C 0.2728(2) 0.97558(14) 0.0976(4)
H10_3 H 0.3106 0.9792 0.1690
N6_3 N 0.1159(2) 0.86054(13) 0.0670(3)
C3_4 C 0.9245(3) 0.17619(16) 0.9869(4)
H3_4 H 0.9397 0.2015 0.9412
C12_4 C 0.7733(2) 0.06471(14) 0.9141(4)
H9_4 H 0.7663 0.0888 0.8521
C13_4 C 0.7272(2) 0.02442(14) 0.9024(4)
H10_4 H 0.6894 0.0208 0.8310
N6_4 N 0.8841(2) 0.13946(13) 0.9330(3)
loop_
_geom_bond_atom_site_label_1
_geom_bond_atom_site_label_2
_geom_bond_site_symmetry_1
_geom_bond_site_symmetry_2
Cd1 N1 1_555 1_555
C1 H1 1_555 1_555
C2 H2 1_555 1_555
C5 C6 1_555 1_555
C6 H5 1_555 1_555
C7 C6 1_555 1_555
H6 C7 1_555 1_555
C8 C7 1_555 1_555
C9 C8 1_555 1_555
H7 C9 1_555 1_555
C10 C5 1_555 1_555
H8 C10 1_555 1_555
C23 C24 1_555 1_555
C24 C25 1_555 1_555
C25 H17 1_555 1_555
C26 C24 1_555 1_555
H18 C26 1_555 1_555
N1 C1 1_555 1_555
N2 C1 1_555 1_555
N3 C2 1_555 1_555
N7 C8 1_555 1_555
O1 Cd1 1_555 1_555
O2 C23 1_555 1_555
C49 C50 1_555 1_555
C50 C51 1_555 1_555
C51 C26 1_555 1_555
H35 C51 1_555 1_555
C52 C25 1_555 1_555
H36 C52 1_555 1_555
O3 C49 1_555 1_555
O4 C49 1_555 1_555
Cd5_2 O3 1_555 1_555
N15 Cd1 1_555 1_555
N16 Cd1 1_555 1_555
N17 Cd1 1_555 1_555
O5 Cd1 1_555 1_555
C2 N1 1_555 1_555
C5 N2 1_555 1_555
C9 C10 1_555 1_555
C14 N7 1_555 1_555
C23 O1 1_555 1_555
N2 N3 1_555 1_555
C50 C52 1_555 1_555
H11 C15 1_555 1_555
C17 C18 1_555 1_555
C18 H13 1_555 1_555
C19 C18 1_555 1_555
H14 C19 1_555 1_555
C20 C19 1_555 1_555
C21 C20 1_555 1_555
C22 C17 1_555 1_555
C31 C32 1_555 1_555
C32 H23 1_555 1_555
C33 C32 1_555 1_555
H24 C33 1_555 1_555
C34 C33 1_555 1_555
C35 C34 1_555 1_555
H25 C35 1_555 1_555
C36 C31 1_555 1_555
H26 C36 1_555 1_555
C41 C40 1_555 1_555
H29 C41 1_555 1_555
C43 C44 1_555 1_555
C44 H31 1_555 1_555
C45 C44 1_555 1_555
H32 C45 1_555 1_555
C46 C20 1_555 1_555
C47 C46 1_555 1_555
C48 C43 1_555 1_555
N14 C34 1_555 1_555
C21 C22 1_555 1_555
C31 N9 1_555 1_555
C35 C36 1_555 1_555
C40 N14 1_555 1_555
C43 N14 1_555 1_555
C45 C46 1_555 1_555
C47 C48 1_555 1_555
N9 N10 1_555 1_555
C27 H19 1_555 1_555
C28 H20 1_555 1_555
N15 C27 1_555 1_555
C28 N15 1_555 1_555
C4 H4 1_555 1_555
C16 C11 1_555 1_555
H12 C16 1_555 1_555
N5 C4 1_555 1_555
C29 H21 1_555 1_555
C30 H22 1_555 1_555
C37 C38 1_555 1_555
C38 H27 1_555 1_555
C39 C38 1_555 1_555
H28 C39 1_555 1_555
C42 C37 1_555 1_555
H30 C42 1_555 1_555
N11 C29 1_555 1_555
N12 C30 1_555 1_555
N13 C29 1_555 1_555
Cd4 N4 1_555 1_555
Cd4_2 N11 1_555 1_555
C4 N4 1_555 1_555
C11 N5 1_555 1_555
C30 N11 1_555 1_555
C37 N12 1_555 1_555
N12 N13 1_555 1_555
C25_2 H17_2 1_555 1_555
C49_2 C50_2 1_555 1_555
C52_2 C25_2 1_555 1_555
H36_2 C52_2 1_555 1_555
O3_2 C49_2 1_555 1_555
Cd5 O3_2 1_555 1_555
C50_2 C52_2 1_555 1_555
C23_2 C24_2 1_555 1_555
C26_2 C24_2 1_555 1_555
H18_2 C26_2 1_555 1_555
C51_2 C26_2 1_555 1_555
H35_2 C51_2 1_555 1_555
C23_2 O5 1_555 1_555
C23_3 C24_3 1_555 1_555
C24_3 C25_3 1_555 1_555
C25_3 H17_3 1_555 1_555
C26_3 C24_3 1_555 1_555
H18_3 C26_3 1_555 1_555
O1_2 Cd4 1_555 1_555
O2_3 C23_3 1_555 1_555
C49_3 C50_3 1_555 1_555
C50_3 C51_3 1_555 1_555
C51_3 C26_3 1_555 1_555
H35_3 C51_3 1_555 1_555
C52_3 C25_3 1_555 1_555
H36_3 C52_3 1_555 1_555
O3_3 C49_3 1_555 1_555
O4_3 C49_3 1_555 1_555
Cd5_3 O3_3 1_555 1_555
N15_2 Cd4 1_555 1_555
C23_3 O1_2 1_555 1_555
C50_3 C52_3 1_555 1_555
C29_2 H21_2 1_555 1_555
C30_2 H22_2 1_555 1_555
C31_2 C32_2 1_555 1_555
C32_2 H23_2 1_555 1_555
C33_2 C32_2 1_555 1_555
H24_2 C33_2 1_555 1_555
C34_2 C33_2 1_555 1_555
C35_2 C34_2 1_555 1_555
H25_2 C35_2 1_555 1_555
C36_2 C31_2 1_555 1_555
H26_2 C36_2 1_555 1_555
C37_2 C38_2 1_555 1_555
C38_2 H27_2 1_555 1_555
C39_2 C38_2 1_555 1_555
H28_2 C39_2 1_555 1_555
C40_2 C39_2 1_555 1_555
C41_2 C40_2 1_555 1_555
H29_2 C41_2 1_555 1_555
C42_2 C37_2 1_555 1_555
H30_2 C42_2 1_555 1_555
C43_2 C44_2 1_555 1_555
C44_2 H31_2 1_555 1_555
C45_2 C44_2 1_555 1_555
H32_2 C45_2 1_555 1_555
C47_2 C46_2 1_555 1_555
H33_2 C47_2 1_555 1_555
C48_2 C43_2 1_555 1_555
H34_2 C48_2 1_555 1_555
N17 C29_2 1_555 1_555
N12_2 C30_2 1_555 1_555
N13_2 C29_2 1_555 1_555
N14_2 C34_2 1_555 1_555
C30_2 N17 1_555 1_555
C31_2 N9_2 1_555 1_555
C35_2 C36_2 1_555 1_555
C37_2 N12_2 1_555 1_555
C40_2 N14_2 1_555 1_555
C41_2 C42_2 1_555 1_555
C43_2 N14_2 1_555 1_555
C45_2 C46_2 1_555 1_555
C47_2 C48_2 1_555 1_555
N9_2 N10_2 1_555 1_555
N12_2 N13_2 1_555 1_555
C27_2 H19_2 1_555 1_555
C28_2 H20_2 1_555 1_555
N15_2 C27_2 1_555 1_555
C28_2 N15_2 1_555 1_555
Cd4_2 N1_2 1_555 1_555
C1_2 H1_2 1_555 1_555
C2_2 H2_2 1_555 1_555
C3 H3 1_555 1_555
C5_2 C6_2 1_555 1_555
C6_2 H5_2 1_555 1_555
C7_2 C6_2 1_555 1_555
H6_2 C7_2 1_555 1_555
C8_2 C7_2 1_555 1_555
C9_2 C8_2 1_555 1_555
H7_2 C9_2 1_555 1_555
C10_2 C5_2 1_555 1_555
H8_2 C10_2 1_555 1_555
C12 H9 1_555 1_555
C13 C12 1_555 1_555
H10 C13 1_555 1_555
C14_2 C13 1_555 1_555
N1_2 C1_2 1_555 1_555
N2_2 C1_2 1_555 1_555
N3_2 C2_2 1_555 1_555
N6 C3 1_555 1_555
N7_2 C8_2 1_555 1_555
O5_2 Cd4_2 1_555 1_555
C2_2 N1_2 1_555 1_555
C5_2 N2_2 1_555 1_555
C9_2 C10_2 1_555 1_555
C14_2 N7_2 1_555 1_555
N2_2 N3_2 1_555 1_555
C4_2 H4_2 1_555 1_555
H11_2 C15_2 1_555 1_555
C16_2 C11_2 1_555 1_555
H12_2 C16_2 1_555 1_555
C17_2 C18_2 1_555 1_555
C18_2 H13_2 1_555 1_555
C19_2 C18_2 1_555 1_555
H14_2 C19_2 1_555 1_555
C20_2 C19_2 1_555 1_555
C21_2 C20_2 1_555 1_555
H15_2 C21_2 1_555 1_555
C22_2 C17_2 1_555 1_555
H16_2 C22_2 1_555 1_555
N5_2 C4_2 1_555 1_555
C4_2 N16 1_555 1_555
C11_2 N5_2 1_555 1_555
C15_2 C16_2 1_555 1_555
C21_2 C22_2 1_555 1_555
C25_4 H17_4 1_555 1_555
C49_4 C50_4 1_555 1_555
C52_4 C25_4 1_555 1_555
H36_4 C52_4 1_555 1_555
O3_4 C49_4 1_555 1_555
Cd5_3 O3_4 1_555 1_555
C50_4 C52_4 1_555 1_555
C23_4 C24_4 1_555 1_555
C26_4 C24_4 1_555 1_555
H18_4 C26_4 1_555 1_555
C51_4 C26_4 1_555 1_555
H35_4 C51_4 1_555 1_555
C23_4 O5_2 1_555 1_555
C4_3 H4_3 1_555 1_555
C16_3 C11_3 1_555 1_555
H12_3 C16_3 1_555 1_555
N5_3 C4_3 1_555 1_555
C29_3 H21_3 1_555 1_555
C30_3 H22_3 1_555 1_555
C37_3 C38_3 1_555 1_555
C38_3 H27_3 1_555 1_555
C39_3 C38_3 1_555 1_555
H28_3 C39_3 1_555 1_555
C42_3 C37_3 1_555 1_555
H30_3 C42_3 1_555 1_555
N11_2 C29_3 1_555 1_555
N12_3 C30_3 1_555 1_555
N13_3 C29_3 1_555 1_555
Cd5_2 N4_2 1_555 1_555
Cd5 N11_2 1_555 1_555
C4_3 N4_2 1_555 1_555
C11_3 N5_3 1_555 1_555
C30_3 N11_2 1_555 1_555
C37_3 N12_3 1_555 1_555
N12_3 N13_3 1_555 1_555
C27_3 H19_3 1_555 1_555
C28_3 H20_3 1_555 1_555
N8 C27_3 1_555 1_555
Cd5_3 N8 1_555 1_555
C28_3 N8 1_555 1_555
H11_3 C15_3 1_555 1_555
C17_3 C18_3 1_555 1_555
C18_3 H13_3 1_555 1_555
C19_3 C18_3 1_555 1_555
H14_3 C19_3 1_555 1_555
C20_3 C19_3 1_555 1_555
C21_3 C20_3 1_555 1_555
C22_3 C17_3 1_555 1_555
C31_3 C32_3 1_555 1_555
C32_3 H23_3 1_555 1_555
C33_3 C32_3 1_555 1_555
H24_3 C33_3 1_555 1_555
C34_3 C33_3 1_555 1_555
C35_3 C34_3 1_555 1_555
H25_3 C35_3 1_555 1_555
C36_3 C31_3 1_555 1_555
H26_3 C36_3 1_555 1_555
C41_3 C40_3 1_555 1_555
H29_3 C41_3 1_555 1_555
C43_3 C44_3 1_555 1_555
C44_3 H31_3 1_555 1_555
C45_3 C44_3 1_555 1_555
H32_3 C45_3 1_555 1_555
C46_3 C20_3 1_555 1_555
C47_3 C46_3 1_555 1_555
C48_3 C43_3 1_555 1_555
N14_3 C34_3 1_555 1_555
C21_3 C22_3 1_555 1_555
C31_3 N9_3 1_555 1_555
C35_3 C36_3 1_555 1_555
C40_3 N14_3 1_555 1_555
C43_3 N14_3 1_555 1_555
C45_3 C46_3 1_555 1_555
C47_3 C48_3 1_555 1_555
N9_3 N10_3 1_555 1_555
Cd5_3 N1_3 1_555 1_555
C1_3 H1_3 1_555 1_555
C2_3 H2_3 1_555 1_555
C5_3 C6_3 1_555 1_555
C6_3 H5_3 1_555 1_555
C7_3 C6_3 1_555 1_555
H6_3 C7_3 1_555 1_555
C8_3 C7_3 1_555 1_555
C9_3 C8_3 1_555 1_555
H7_3 C9_3 1_555 1_555
C10_3 C5_3 1_555 1_555
H8_3 C10_3 1_555 1_555
N1_3 C1_3 1_555 1_555
N2_3 C1_3 1_555 1_555
N3_3 C2_3 1_555 1_555
N7_3 C8_3 1_555 1_555
N16_2 Cd5_3 1_555 1_555
N17_2 Cd5_3 1_555 1_555
C2_3 N1_3 1_555 1_555
C5_3 N2_3 1_555 1_555
C9_3 C10_3 1_555 1_555
C14_3 N7_3 1_555 1_555
N2_3 N3_3 1_555 1_555
C4_4 H4_4 1_555 1_555
H11_4 C15_4 1_555 1_555
C16_4 C11_4 1_555 1_555
H12_4 C16_4 1_555 1_555
C17_4 C18_4 1_555 1_555
C18_4 H13_4 1_555 1_555
C19_4 C18_4 1_555 1_555
H14_4 C19_4 1_555 1_555
C20_4 C19_4 1_555 1_555
C21_4 C20_4 1_555 1_555
H15_4 C21_4 1_555 1_555
C22_4 C17_4 1_555 1_555
H16_4 C22_4 1_555 1_555
N5_4 C4_4 1_555 1_555
C4_4 N16_2 1_555 1_555
C11_4 N5_4 1_555 1_555
C15_4 C16_4 1_555 1_555
C21_4 C22_4 1_555 1_555
Cd5 N1_4 1_555 1_555
C1_4 H1_4 1_555 1_555
C2_4 H2_4 1_555 1_555
C3_2 H3_2 1_555 1_555
C5_4 C6_4 1_555 1_555
C6_4 H5_4 1_555 1_555
C7_4 C6_4 1_555 1_555
H6_4 C7_4 1_555 1_555
C8_4 C7_4 1_555 1_555
C9_4 C8_4 1_555 1_555
H7_4 C9_4 1_555 1_555
C10_4 C5_4 1_555 1_555
H8_4 C10_4 1_555 1_555
C12_2 H9_2 1_555 1_555
C13_2 C12_2 1_555 1_555
H10_2 C13_2 1_555 1_555
C14_4 C13_2 1_555 1_555
N1_4 C1_4 1_555 1_555
N2_4 C1_4 1_555 1_555
N3_4 C2_4 1_555 1_555
N6_2 C3_2 1_555 1_555
N7_4 C8_4 1_555 1_555
C2_4 N1_4 1_555 1_555
C5_4 N2_4 1_555 1_555
C9_4 C10_4 1_555 1_555
C14_4 N7_4 1_555 1_555
N2_4 N3_4 1_555 1_555
C27_4 H19_4 1_555 1_555
C28_4 H20_4 1_555 1_555
N8_2 C27_4 1_555 1_555
Cd5_2 N8_2 1_555 1_555
C28_4 N8_2 1_555 1_555
C29_4 H21_4 1_555 1_555
C30_4 H22_4 1_555 1_555
C31_4 C32_4 1_555 1_555
C32_4 H23_4 1_555 1_555
C33_4 C32_4 1_555 1_555
H24_4 C33_4 1_555 1_555
C34_4 C33_4 1_555 1_555
C35_4 C34_4 1_555 1_555
H25_4 C35_4 1_555 1_555
C36_4 C31_4 1_555 1_555
H26_4 C36_4 1_555 1_555
C37_4 C38_4 1_555 1_555
C38_4 H27_4 1_555 1_555
C39_4 C38_4 1_555 1_555
H28_4 C39_4 1_555 1_555
C40_4 C39_4 1_555 1_555
C41_4 C40_4 1_555 1_555
H29_4 C41_4 1_555 1_555
C42_4 C37_4 1_555 1_555
H30_4 C42_4 1_555 1_555
C43_4 C44_4 1_555 1_555
C44_4 H31_4 1_555 1_555
C45_4 C44_4 1_555 1_555
H32_4 C45_4 1_555 1_555
C47_4 C46_4 1_555 1_555
H33_4 C47_4 1_555 1_555
C48_4 C43_4 1_555 1_555
H34_4 C48_4 1_555 1_555
N17_2 C29_4 1_555 1_555
N12_4 C30_4 1_555 1_555
N13_4 C29_4 1_555 1_555
N14_4 C34_4 1_555 1_555
C30_4 N17_2 1_555 1_555
C31_4 N9_4 1_555 1_555
C35_4 C36_4 1_555 1_555
C37_4 N12_4 1_555 1_555
C40_4 N14_4 1_555 1_555
C41_4 C42_4 1_555 1_555
C43_4 N14_4 1_555 1_555
C45_4 C46_4 1_555 1_555
C47_4 C48_4 1_555 1_555
N9_4 N10_4 1_555 1_555
N12_4 N13_4 1_555 1_555
C3_3 H3_3 1_555 1_555
C12_3 H9_3 1_555 1_555
C13_3 C12_3 1_555 1_555
H10_3 C13_3 1_555 1_555
N6_3 C3_3 1_555 1_555
C3_4 H3_4 1_555 1_555
C12_4 H9_4 1_555 1_555
C13_4 C12_4 1_555 1_555
H10_4 C13_4 1_555 1_555
N6_4 C3_4 1_555 1_555

#END
