
###############################################################################
#
# This file contains modified crystal structure data generated from the
# MOF subset of the Cambridge Structural Database (CSD) v543 
# hosted by the Cambridge Crystallographic Data Centre (CCDC).
#
# This work is licensed under the Creative Commons
# Attribution-NonCommercial-ShareAlike 4.0 International License.
# To view a copy of this license, visit
# http://creativecommons.org/licenses/by-nc-sa/4.0/
# or send a letter to
# Creative Commons, PO Box 1866, Mountain View, CA 94042, USA.
#
# CIF created using the CSD Python API on 29 September 2022
# The structure has been converted into the P1 space group
# The structure has a 3D framework
# The original CSD entry EKOPOK is in the tetragonal crystal system
# The framework has been calculated to contain at least 10.0% void space
# The void calculation uses a probe of radius 1.32A, grid spacing 0.4
#
###############################################################################

data_EKOPOK
_chemical_formula_moiety         '(C128 H96 Ca8 Cd12 O96)n'
_symmetry_cell_setting           triclinic
_symmetry_space_group_name_H-M   'P 1'
_symmetry_Int_Tables_number      1
_space_group_name_Hall           'P 1'
loop_
_symmetry_equiv_pos_site_id
_symmetry_equiv_pos_as_xyz
1 x,y,z
_cell_length_a                   19.6226(4)
_cell_length_b                   19.6226(4)
_cell_length_c                   14.2086(6)
_cell_angle_alpha                90
_cell_angle_beta                 90
_cell_angle_gamma                90
_cell_volume                     5470.97
loop_
_atom_site_label
_atom_site_type_symbol
_atom_site_fract_x
_atom_site_fract_y
_atom_site_fract_z
Cd1 Cd 0.732234(10) 0.232234(10) 0.0000
O2 O 0.60283(13) 0.22086(16) 0.0063(3)
Cd2 Cd 0.232234(10) 0.267766(10) 0.0000
Ca3 Ca 0.79746(3) 0.20254(3) 0.2500
O7 O 0.72991(14) 0.15884(13) 0.1262(2)
O11 O 0.73136(17) 0.34450(15) 0.0359(2)
C9 C 0.7224(2) 0.10330(19) 0.0818(2)
C11 C 0.7167(2) 0.03925(18) 0.1379(3)
C12 C 0.6974(2) 0.0446(2) 0.2326(3)
H10 H 0.6877 0.0871 0.2583
Cd1_2 Cd 0.732234(10) 0.232234(10) 1.0000
Ca1 Ca 0.70254(3) 0.29746(3) 0.7500
O1 O 0.65884(13) 0.22991(14) 0.8738(2)
O3 O 0.34450(15) 0.26864(17) 0.9641(2)
O4 O 0.29712(14) 0.22128(19) 0.8397(2)
O5 O 0.4954(2) 0.1753(2) 0.6203(2)
H1 H 0.4638 0.1906 0.5890
O6 O 0.6743(2) 0.3857(3) 0.8516(5)
H2 H 0.6521 0.4212 0.8363
H3 H 0.6894 0.3770 0.9063
C1 C 0.60330(19) 0.2224(2) 0.9182(2)
C2 C 0.34811(19) 0.2385(2) 0.8851(3)
C3 C 0.53925(18) 0.2167(2) 0.8621(3)
C4 C 0.5446(2) 0.1974(2) 0.7674(3)
H4 H 0.5871 0.1877 0.7417
C5 C 0.4867(2) 0.1927(2) 0.7122(3)
C6 C 0.42322(19) 0.2060(2) 0.7507(3)
H5 H 0.3843 0.2019 0.7138
C7 C 0.41763(19) 0.2256(2) 0.8449(3)
C8 C 0.4759(2) 0.2303(2) 0.9008(3)
H6 H 0.4722 0.2425 0.9639
Cd2_2 Cd 0.232234(10) 0.267766(10) 1.0000
Ca2 Ca 0.20254(3) 0.20254(3) 0.7500
O8 O 0.77009(14) 0.34116(13) 0.6262(2)
O9 O 0.72086(16) 0.10283(13) 0.9937(3)
O12 O 0.84450(15) 0.23136(17) 0.9641(2)
O14 O 0.72128(19) 0.20288(14) 0.6603(2)
O15 O 0.79712(14) 0.27872(19) 0.8397(2)
O17 O 0.6143(3) 0.3257(2) 0.6484(5)
H8 H 0.5788 0.3479 0.6637
H9 H 0.6230 0.3106 0.5937
Cd3 Cd 0.767766(10) 0.732234(10) 0.0000
Ca4 Ca 0.70254(3) 0.70254(3) 0.2500
O10 O 0.76864(17) 0.84450(15) 0.0359(2)
O13 O 0.72128(19) 0.79712(14) 0.1603(2)
O16 O 0.6753(2) 0.9954(2) 0.3797(2)
H7 H 0.6906 0.9638 0.4110
C10 C 0.7385(2) 0.84811(19) 0.1149(3)
C13 C 0.6927(2) 0.9867(2) 0.2878(3)
C14 C 0.7060(2) 0.92322(19) 0.2493(3)
H11 H 0.7019 0.8843 0.2862
C15 C 0.7256(2) 0.91763(19) 0.1551(3)
C16 C 0.7303(2) 0.9759(2) 0.0992(3)
H12 H 0.7425 0.9722 0.0361
Cd3_2 Cd 0.767766(10) 0.732234(10) 1.0000
Ca4_2 Ca 0.29746(3) 0.29746(3) 0.2500
O10_2 O 0.23136(17) 0.15550(15) 0.0359(2)
O13_2 O 0.27872(19) 0.20288(14) 0.1603(2)
O16_2 O 0.3247(2) 0.0046(2) 0.3797(2)
H7_2 H 0.3094 0.0362 0.4110
C10_2 C 0.2615(2) 0.15189(19) 0.1149(3)
C13_2 C 0.3073(2) 0.0133(2) 0.2878(3)
C14_2 C 0.2940(2) 0.07678(19) 0.2493(3)
H11_2 H 0.2981 0.1157 0.2862
C15_2 C 0.2744(2) 0.08237(19) 0.1551(3)
C16_2 C 0.2697(2) 0.0241(2) 0.0992(3)
H12_2 H 0.2575 0.0278 0.0361
Cd1_3 Cd 0.267766(10) 0.767766(10) 0.0000
O2_2 O 0.39717(13) 0.77914(16) 0.0063(3)
Ca3_2 Ca 0.20254(3) 0.79746(3) 0.2500
O7_2 O 0.27009(14) 0.84116(13) 0.1262(2)
O11_2 O 0.26864(17) 0.65550(15) 0.0359(2)
C9_2 C 0.2776(2) 0.89670(19) 0.0818(2)
C11_2 C 0.2833(2) 0.96075(18) 0.1379(3)
C12_2 C 0.3026(2) 0.9554(2) 0.2326(3)
H10_2 H 0.3123 0.9129 0.2583
Cd1_4 Cd 0.267766(10) 0.767766(10) 1.0000
Ca1_2 Ca 0.29746(3) 0.70254(3) 0.7500
O1_2 O 0.34116(13) 0.77009(14) 0.8738(2)
O3_2 O 0.65550(15) 0.73136(17) 0.9641(2)
O4_2 O 0.70288(14) 0.77872(19) 0.8397(2)
O5_2 O 0.5046(2) 0.8247(2) 0.6203(2)
H1_2 H 0.5362 0.8094 0.5890
O6_2 O 0.3257(2) 0.6143(3) 0.8516(5)
H2_2 H 0.3479 0.5788 0.8363
H3_2 H 0.3106 0.6230 0.9063
C1_2 C 0.39670(19) 0.7776(2) 0.9182(2)
C2_2 C 0.65189(19) 0.7615(2) 0.8851(3)
C3_2 C 0.46075(18) 0.7833(2) 0.8621(3)
C4_2 C 0.4554(2) 0.8026(2) 0.7674(3)
H4_2 H 0.4129 0.8123 0.7417
C5_2 C 0.5133(2) 0.8073(2) 0.7122(3)
C6_2 C 0.57678(19) 0.7940(2) 0.7507(3)
H5_2 H 0.6157 0.7981 0.7138
C7_2 C 0.58237(19) 0.7744(2) 0.8449(3)
C8_2 C 0.5241(2) 0.7697(2) 0.9008(3)
H6_2 H 0.5278 0.7575 0.9639
Ca2_2 Ca 0.79746(3) 0.79746(3) 0.7500
O8_2 O 0.22991(14) 0.65884(13) 0.6262(2)
O9_2 O 0.27914(16) 0.89717(13) 0.9937(3)
O12_2 O 0.15550(15) 0.76864(17) 0.9641(2)
O14_2 O 0.27872(19) 0.79712(14) 0.6603(2)
O15_2 O 0.20288(14) 0.72128(19) 0.8397(2)
O17_2 O 0.3857(3) 0.6743(2) 0.6484(5)
H8_2 H 0.4212 0.6521 0.6637
H9_2 H 0.3770 0.6894 0.5937
O1_3 O 0.22991(14) 0.34116(13) 0.1262(2)
O4_3 O 0.22128(19) 0.70288(14) 0.1603(2)
O5_3 O 0.1753(2) 0.5046(2) 0.3797(2)
H1_3 H 0.1906 0.5362 0.4110
O6_3 O 0.3857(3) 0.3257(2) 0.1484(5)
H2_3 H 0.4212 0.3479 0.1637
H3_3 H 0.3770 0.3106 0.0937
C1_3 C 0.2224(2) 0.39670(19) 0.0818(2)
C2_3 C 0.2385(2) 0.65189(19) 0.1149(3)
C3_3 C 0.2167(2) 0.46075(18) 0.1379(3)
C4_3 C 0.1974(2) 0.4554(2) 0.2326(3)
H4_3 H 0.1877 0.4129 0.2583
C5_3 C 0.1927(2) 0.5133(2) 0.2878(3)
C6_3 C 0.2060(2) 0.57678(19) 0.2493(3)
H5_3 H 0.2019 0.6157 0.2862
C7_3 C 0.2256(2) 0.58237(19) 0.1551(3)
C8_3 C 0.2303(2) 0.5241(2) 0.0992(3)
H6_3 H 0.2425 0.5278 0.0361
O8_3 O 0.34116(13) 0.22991(14) 0.3738(2)
O9_3 O 0.10283(13) 0.27914(16) 0.0063(3)
O14_3 O 0.20288(14) 0.27872(19) 0.3397(2)
O17_3 O 0.3257(2) 0.3857(3) 0.3516(5)
H8_3 H 0.3479 0.4212 0.3363
H9_3 H 0.3106 0.3770 0.4063
O2_3 O 0.22086(16) 0.39717(13) 0.9937(3)
O7_3 O 0.15884(13) 0.27009(14) 0.8738(2)
C9_3 C 0.10330(19) 0.2776(2) 0.9182(2)
C11_3 C 0.03925(18) 0.2833(2) 0.8621(3)
C12_3 C 0.0446(2) 0.3026(2) 0.7674(3)
H10_3 H 0.0871 0.3123 0.7417
O16_3 O 0.9954(2) 0.3247(2) 0.6203(2)
H7_3 H 0.9638 0.3094 0.5890
C10_3 C 0.84811(19) 0.2615(2) 0.8851(3)
C13_3 C 0.9867(2) 0.3073(2) 0.7122(3)
C14_3 C 0.92322(19) 0.2940(2) 0.7507(3)
H11_3 H 0.8843 0.2981 0.7138
C15_3 C 0.91763(19) 0.2744(2) 0.8449(3)
C16_3 C 0.9759(2) 0.2697(2) 0.9008(3)
H12_3 H 0.9722 0.2575 0.9639
O16_4 O 0.0046(2) 0.6753(2) 0.6203(2)
H7_4 H 0.0362 0.6906 0.5890
C10_4 C 0.15189(19) 0.7385(2) 0.8851(3)
C13_4 C 0.0133(2) 0.6927(2) 0.7122(3)
C14_4 C 0.07678(19) 0.7060(2) 0.7507(3)
H11_4 H 0.1157 0.7019 0.7138
C15_4 C 0.08237(19) 0.7256(2) 0.8449(3)
C16_4 C 0.0241(2) 0.7303(2) 0.9008(3)
H12_4 H 0.0278 0.7425 0.9639
O1_4 O 0.77009(14) 0.65884(13) 0.1262(2)
O4_4 O 0.77872(19) 0.29712(14) 0.1603(2)
O5_4 O 0.8247(2) 0.4954(2) 0.3797(2)
H1_4 H 0.8094 0.4638 0.4110
O6_4 O 0.6143(3) 0.6743(2) 0.1484(5)
H2_4 H 0.5788 0.6521 0.1637
H3_4 H 0.6230 0.6894 0.0937
C1_4 C 0.7776(2) 0.60330(19) 0.0818(2)
C2_4 C 0.7615(2) 0.34811(19) 0.1149(3)
C3_4 C 0.7833(2) 0.53925(18) 0.1379(3)
C4_4 C 0.8026(2) 0.5446(2) 0.2326(3)
H4_4 H 0.8123 0.5871 0.2583
C5_4 C 0.8073(2) 0.4867(2) 0.2878(3)
C6_4 C 0.7940(2) 0.42322(19) 0.2493(3)
H5_4 H 0.7981 0.3843 0.2862
C7_4 C 0.7744(2) 0.41763(19) 0.1551(3)
C8_4 C 0.7697(2) 0.4759(2) 0.0992(3)
H6_4 H 0.7575 0.4722 0.0361
O8_4 O 0.65884(13) 0.77009(14) 0.3738(2)
O9_4 O 0.89717(13) 0.72086(16) 0.0063(3)
O14_4 O 0.79712(14) 0.72128(19) 0.3397(2)
O17_4 O 0.6743(2) 0.6143(3) 0.3516(5)
H8_4 H 0.6521 0.5788 0.3363
H9_4 H 0.6894 0.6230 0.4063
O2_4 O 0.77914(16) 0.60283(13) 0.9937(3)
O7_4 O 0.84116(13) 0.72991(14) 0.8738(2)
C9_4 C 0.89670(19) 0.7224(2) 0.9182(2)
C11_4 C 0.96075(18) 0.7167(2) 0.8621(3)
C12_4 C 0.9554(2) 0.6974(2) 0.7674(3)
H10_4 H 0.9129 0.6877 0.7417
Cd3_3 Cd 0.767766(10) 0.267766(10) 0.5000
O10_3 O 0.76864(17) 0.15550(15) 0.5359(2)
O16_5 O 0.6753(2) 0.0046(2) 0.8797(2)
H7_5 H 0.6906 0.0362 0.9110
C10_5 C 0.7385(2) 0.15189(19) 0.6149(3)
C13_5 C 0.6927(2) 0.0133(2) 0.7878(3)
C14_5 C 0.7060(2) 0.07678(19) 0.7493(3)
H11_5 H 0.7019 0.1157 0.7862
C15_5 C 0.7256(2) 0.08237(19) 0.6551(3)
C16_5 C 0.7303(2) 0.0241(2) 0.5992(3)
H12_5 H 0.7425 0.0278 0.5361
Cd1_5 Cd 0.732234(10) 0.767766(10) 0.5000
O2_5 O 0.60283(13) 0.77914(16) 0.5063(3)
O3_3 O 0.34450(15) 0.73136(17) 0.4641(2)
O4_5 O 0.29712(14) 0.77872(19) 0.3397(2)
O5_5 O 0.4954(2) 0.8247(2) 0.1203(2)
H1_5 H 0.4638 0.8094 0.0890
C1_5 C 0.60330(19) 0.7776(2) 0.4182(2)
C2_5 C 0.34811(19) 0.7615(2) 0.3851(3)
C3_5 C 0.53925(18) 0.7833(2) 0.3621(3)
C4_5 C 0.5446(2) 0.8026(2) 0.2674(3)
H4_5 H 0.5871 0.8123 0.2417
C5_5 C 0.4867(2) 0.8073(2) 0.2122(3)
C6_5 C 0.42322(19) 0.7940(2) 0.2507(3)
H5_5 H 0.3843 0.7981 0.2138
C7_5 C 0.41763(19) 0.7744(2) 0.3449(3)
C8_5 C 0.4759(2) 0.7697(2) 0.4008(3)
H6_5 H 0.4722 0.7575 0.4639
Cd2_3 Cd 0.232234(10) 0.732234(10) 0.5000
O7_5 O 0.72991(14) 0.84116(13) 0.6262(2)
O9_5 O 0.72086(16) 0.89717(13) 0.4937(3)
O11_3 O 0.73136(17) 0.65550(15) 0.5359(2)
O12_3 O 0.84450(15) 0.76864(17) 0.4641(2)
C9_5 C 0.7224(2) 0.89670(19) 0.5818(2)
C11_5 C 0.7167(2) 0.96075(18) 0.6379(3)
C12_5 C 0.6974(2) 0.9554(2) 0.7326(3)
H10_5 H 0.6877 0.9129 0.7583
Cd1_6 Cd 0.267766(10) 0.232234(10) 0.5000
O2_6 O 0.39717(13) 0.22086(16) 0.5063(3)
O3_4 O 0.65550(15) 0.26864(17) 0.4641(2)
O4_6 O 0.70288(14) 0.22128(19) 0.3397(2)
O5_6 O 0.5046(2) 0.1753(2) 0.1203(2)
H1_6 H 0.5362 0.1906 0.0890
C1_6 C 0.39670(19) 0.2224(2) 0.4182(2)
C2_6 C 0.65189(19) 0.2385(2) 0.3851(3)
C3_6 C 0.46075(18) 0.2167(2) 0.3621(3)
C4_6 C 0.4554(2) 0.1974(2) 0.2674(3)
H4_6 H 0.4129 0.1877 0.2417
C5_6 C 0.5133(2) 0.1927(2) 0.2122(3)
C6_6 C 0.57678(19) 0.2060(2) 0.2507(3)
H5_6 H 0.6157 0.2019 0.2138
C7_6 C 0.58237(19) 0.2256(2) 0.3449(3)
C8_6 C 0.5241(2) 0.2303(2) 0.4008(3)
H6_6 H 0.5278 0.2425 0.4639
O7_6 O 0.27009(14) 0.15884(13) 0.6262(2)
O9_6 O 0.27914(16) 0.10283(13) 0.4937(3)
O11_4 O 0.26864(17) 0.34450(15) 0.5359(2)
O12_4 O 0.15550(15) 0.23136(17) 0.4641(2)
C9_6 C 0.2776(2) 0.10330(19) 0.5818(2)
C11_6 C 0.2833(2) 0.03925(18) 0.6379(3)
C12_6 C 0.3026(2) 0.0446(2) 0.7326(3)
H10_6 H 0.3123 0.0871 0.7583
O10_4 O 0.23136(17) 0.84450(15) 0.5359(2)
O16_6 O 0.3247(2) 0.9954(2) 0.8797(2)
H7_6 H 0.3094 0.9638 0.9110
C10_6 C 0.2615(2) 0.84811(19) 0.6149(3)
C13_6 C 0.3073(2) 0.9867(2) 0.7878(3)
C14_6 C 0.2940(2) 0.92322(19) 0.7493(3)
H11_6 H 0.2981 0.8843 0.7862
C15_6 C 0.2744(2) 0.91763(19) 0.6551(3)
C16_6 C 0.2697(2) 0.9759(2) 0.5992(3)
H12_6 H 0.2575 0.9722 0.5361
O2_7 O 0.22086(16) 0.60283(13) 0.4937(3)
O4_7 O 0.22128(19) 0.29712(14) 0.6603(2)
O5_7 O 0.1753(2) 0.4954(2) 0.8797(2)
H1_7 H 0.1906 0.4638 0.9110
C1_7 C 0.2224(2) 0.60330(19) 0.5818(2)
C2_7 C 0.2385(2) 0.34811(19) 0.6149(3)
C3_7 C 0.2167(2) 0.53925(18) 0.6379(3)
C4_7 C 0.1974(2) 0.5446(2) 0.7326(3)
H4_7 H 0.1877 0.5871 0.7583
C5_7 C 0.1927(2) 0.4867(2) 0.7878(3)
C6_7 C 0.2060(2) 0.42322(19) 0.7493(3)
H5_7 H 0.2019 0.3843 0.7862
C7_7 C 0.2256(2) 0.41763(19) 0.6551(3)
C8_7 C 0.2303(2) 0.4759(2) 0.5992(3)
H6_7 H 0.2425 0.4722 0.5361
O7_7 O 0.15884(13) 0.72991(14) 0.3738(2)
O9_7 O 0.10283(13) 0.72086(16) 0.5063(3)
C9_7 C 0.10330(19) 0.7224(2) 0.4182(2)
C11_7 C 0.03925(18) 0.7167(2) 0.3621(3)
C12_7 C 0.0446(2) 0.6974(2) 0.2674(3)
H10_7 H 0.0871 0.6877 0.2417
O16_7 O 0.9954(2) 0.6753(2) 0.1203(2)
H7_7 H 0.9638 0.6906 0.0890
C10_7 C 0.84811(19) 0.7385(2) 0.3851(3)
C13_7 C 0.9867(2) 0.6927(2) 0.2122(3)
C14_7 C 0.92322(19) 0.7060(2) 0.2507(3)
H11_7 H 0.8843 0.7019 0.2138
C15_7 C 0.91763(19) 0.7256(2) 0.3449(3)
C16_7 C 0.9759(2) 0.7303(2) 0.4008(3)
H12_7 H 0.9722 0.7425 0.4639
O16_8 O 0.0046(2) 0.3247(2) 0.1203(2)
H7_8 H 0.0362 0.3094 0.0890
C10_8 C 0.15189(19) 0.2615(2) 0.3851(3)
C13_8 C 0.0133(2) 0.3073(2) 0.2122(3)
C14_8 C 0.07678(19) 0.2940(2) 0.2507(3)
H11_8 H 0.1157 0.2981 0.2138
C15_8 C 0.08237(19) 0.2744(2) 0.3449(3)
C16_8 C 0.0241(2) 0.2697(2) 0.4008(3)
H12_8 H 0.0278 0.2575 0.4639
O2_8 O 0.77914(16) 0.39717(13) 0.4937(3)
O4_8 O 0.77872(19) 0.70288(14) 0.6603(2)
O5_8 O 0.8247(2) 0.5046(2) 0.8797(2)
H1_8 H 0.8094 0.5362 0.9110
C1_8 C 0.7776(2) 0.39670(19) 0.5818(2)
C2_8 C 0.7615(2) 0.65189(19) 0.6149(3)
C3_8 C 0.7833(2) 0.46075(18) 0.6379(3)
C4_8 C 0.8026(2) 0.4554(2) 0.7326(3)
H4_8 H 0.8123 0.4129 0.7583
C5_8 C 0.8073(2) 0.5133(2) 0.7878(3)
C6_8 C 0.7940(2) 0.57678(19) 0.7493(3)
H5_8 H 0.7981 0.6157 0.7862
C7_8 C 0.7744(2) 0.58237(19) 0.6551(3)
C8_8 C 0.7697(2) 0.5241(2) 0.5992(3)
H6_8 H 0.7575 0.5278 0.5361
O7_8 O 0.84116(13) 0.27009(14) 0.3738(2)
O9_8 O 0.89717(13) 0.27914(16) 0.5063(3)
C9_8 C 0.89670(19) 0.2776(2) 0.4182(2)
C11_8 C 0.96075(18) 0.2833(2) 0.3621(3)
C12_8 C 0.9554(2) 0.3026(2) 0.2674(3)
H10_8 H 0.9129 0.3123 0.2417
O6_5 O 0.1743(2) 0.8857(3) 0.3516(5)
H2_5 H 0.1521 0.9212 0.3363
H3_5 H 0.1894 0.8770 0.4063
O17_5 O 0.1143(3) 0.8257(2) 0.1484(5)
H8_5 H 0.0788 0.8479 0.1637
H9_5 H 0.1230 0.8106 0.0937
O6_6 O 0.8257(2) 0.1143(3) 0.3516(5)
H2_6 H 0.8479 0.0788 0.3363
H3_6 H 0.8106 0.1230 0.4063
O17_6 O 0.8857(3) 0.1743(2) 0.1484(5)
H8_6 H 0.9212 0.1521 0.1637
H9_6 H 0.8770 0.1894 0.0937
O6_7 O 0.8857(3) 0.8257(2) 0.6484(5)
H2_7 H 0.9212 0.8479 0.6637
H3_7 H 0.8770 0.8106 0.5937
O17_7 O 0.8257(2) 0.8857(3) 0.8516(5)
H8_7 H 0.8479 0.9212 0.8363
H9_7 H 0.8106 0.8770 0.9063
O6_8 O 0.1143(3) 0.1743(2) 0.6484(5)
H2_8 H 0.0788 0.1521 0.6637
H3_8 H 0.1230 0.1894 0.5937
O17_8 O 0.1743(2) 0.1143(3) 0.8516(5)
H8_8 H 0.1521 0.0788 0.8363
H9_8 H 0.1894 0.1230 0.9063
loop_
_geom_bond_atom_site_label_1
_geom_bond_atom_site_label_2
_geom_bond_site_symmetry_1
_geom_bond_site_symmetry_2
O2 Cd1 1_555 1_555
Ca3 O7 1_555 1_555
O7 Cd1 1_555 1_555
O11 Cd1 1_555 1_555
C9 O7 1_555 1_555
C11 C9 1_555 1_555
C12 C11 1_555 1_555
H10 C12 1_555 1_555
Cd1_2 O1 1_555 1_555
Ca1 O1 1_555 1_555
O1 C1 1_555 1_555
O3 C2 1_555 1_555
O4 C2 1_555 1_555
O5 H1 1_555 1_555
O6 Ca1 1_555 1_555
H2 O6 1_555 1_555
H3 O6 1_555 1_555
C2 C7 1_555 1_555
C3 C1 1_555 1_555
C4 C3 1_555 1_555
H4 C4 1_555 1_555
C5 O5 1_555 1_555
C6 C5 1_555 1_555
H5 C6 1_555 1_555
C7 C6 1_555 1_555
C8 C3 1_555 1_555
H6 C8 1_555 1_555
Cd2_2 O3 1_555 1_555
Ca2 O4 1_555 1_555
O8 Ca1 1_555 1_555
O9 Cd1_2 1_555 1_555
O12 Cd1_2 1_555 1_555
O14 Ca1 1_555 1_555
O15 Ca1 1_555 1_555
O17 Ca1 1_555 1_555
H8 O17 1_555 1_555
H9 O17 1_555 1_555
C4 C5 1_555 1_555
C7 C8 1_555 1_555
Cd3 O10 1_555 1_555
Ca4 O13 1_555 1_555
O10 C10 1_555 1_555
O13 C10 1_555 1_555
O16 H7 1_555 1_555
C10 C15 1_555 1_555
C13 O16 1_555 1_555
C14 C13 1_555 1_555
H11 C14 1_555 1_555
C15 C14 1_555 1_555
H12 C16 1_555 1_555
C15 C16 1_555 1_555
Cd2 O10_2 1_555 1_555
Ca4_2 O13_2 1_555 1_555
O10_2 C10_2 1_555 1_555
O13_2 C10_2 1_555 1_555
O16_2 H7_2 1_555 1_555
C10_2 C15_2 1_555 1_555
C13_2 O16_2 1_555 1_555
C14_2 C13_2 1_555 1_555
H11_2 C14_2 1_555 1_555
C15_2 C14_2 1_555 1_555
H12_2 C16_2 1_555 1_555
C15_2 C16_2 1_555 1_555
O2_2 Cd1_3 1_555 1_555
Ca3_2 O7_2 1_555 1_555
O7_2 Cd1_3 1_555 1_555
O11_2 Cd1_3 1_555 1_555
C9_2 O7_2 1_555 1_555
C11_2 C9_2 1_555 1_555
C12_2 C11_2 1_555 1_555
H10_2 C12_2 1_555 1_555
Cd1_4 O1_2 1_555 1_555
Ca1_2 O1_2 1_555 1_555
O1_2 C1_2 1_555 1_555
O3_2 C2_2 1_555 1_555
O4_2 C2_2 1_555 1_555
O5_2 H1_2 1_555 1_555
O6_2 Ca1_2 1_555 1_555
H2_2 O6_2 1_555 1_555
H3_2 O6_2 1_555 1_555
C2_2 C7_2 1_555 1_555
C3_2 C1_2 1_555 1_555
C4_2 C3_2 1_555 1_555
H4_2 C4_2 1_555 1_555
C5_2 O5_2 1_555 1_555
C6_2 C5_2 1_555 1_555
H5_2 C6_2 1_555 1_555
C7_2 C6_2 1_555 1_555
C8_2 C3_2 1_555 1_555
H6_2 C8_2 1_555 1_555
Cd3_2 O3_2 1_555 1_555
Ca2_2 O4_2 1_555 1_555
O8_2 Ca1_2 1_555 1_555
O9_2 Cd1_4 1_555 1_555
O12_2 Cd1_4 1_555 1_555
O14_2 Ca1_2 1_555 1_555
O15_2 Ca1_2 1_555 1_555
O17_2 Ca1_2 1_555 1_555
H8_2 O17_2 1_555 1_555
H9_2 O17_2 1_555 1_555
C4_2 C5_2 1_555 1_555
C7_2 C8_2 1_555 1_555
Cd2 O1_3 1_555 1_555
Ca4_2 O1_3 1_555 1_555
O1_3 C1_3 1_555 1_555
O11_2 C2_3 1_555 1_555
O4_3 C2_3 1_555 1_555
O5_3 H1_3 1_555 1_555
O6_3 Ca4_2 1_555 1_555
H2_3 O6_3 1_555 1_555
H3_3 O6_3 1_555 1_555
C2_3 C7_3 1_555 1_555
C3_3 C1_3 1_555 1_555
C4_3 C3_3 1_555 1_555
H4_3 C4_3 1_555 1_555
C5_3 O5_3 1_555 1_555
C6_3 C5_3 1_555 1_555
H5_3 C6_3 1_555 1_555
C7_3 C6_3 1_555 1_555
C8_3 C3_3 1_555 1_555
H6_3 C8_3 1_555 1_555
Ca3_2 O4_3 1_555 1_555
O8_3 Ca4_2 1_555 1_555
O9_3 Cd2 1_555 1_555
O14_3 Ca4_2 1_555 1_555
O17_3 Ca4_2 1_555 1_555
H8_3 O17_3 1_555 1_555
H9_3 O17_3 1_555 1_555
C4_3 C5_3 1_555 1_555
C7_3 C8_3 1_555 1_555
O2_3 Cd2_2 1_555 1_555
Ca2 O7_3 1_555 1_555
O7_3 Cd2_2 1_555 1_555
C9_3 O7_3 1_555 1_555
C11_3 C9_3 1_555 1_555
C12_3 C11_3 1_555 1_555
H10_3 C12_3 1_555 1_555
O12 C10_3 1_555 1_555
O15 C10_3 1_555 1_555
O16_3 H7_3 1_555 1_555
C10_3 C15_3 1_555 1_555
C13_3 O16_3 1_555 1_555
C14_3 C13_3 1_555 1_555
H11_3 C14_3 1_555 1_555
C15_3 C14_3 1_555 1_555
H12_3 C16_3 1_555 1_555
C15_3 C16_3 1_555 1_555
O12_2 C10_4 1_555 1_555
O15_2 C10_4 1_555 1_555
O16_4 H7_4 1_555 1_555
C10_4 C15_4 1_555 1_555
C13_4 O16_4 1_555 1_555
C14_4 C13_4 1_555 1_555
H11_4 C14_4 1_555 1_555
C15_4 C14_4 1_555 1_555
H12_4 C16_4 1_555 1_555
C15_4 C16_4 1_555 1_555
Cd3 O1_4 1_555 1_555
Ca4 O1_4 1_555 1_555
O1_4 C1_4 1_555 1_555
O11 C2_4 1_555 1_555
O4_4 C2_4 1_555 1_555
O5_4 H1_4 1_555 1_555
O6_4 Ca4 1_555 1_555
H2_4 O6_4 1_555 1_555
H3_4 O6_4 1_555 1_555
C2_4 C7_4 1_555 1_555
C3_4 C1_4 1_555 1_555
C4_4 C3_4 1_555 1_555
H4_4 C4_4 1_555 1_555
C5_4 O5_4 1_555 1_555
C6_4 C5_4 1_555 1_555
H5_4 C6_4 1_555 1_555
C7_4 C6_4 1_555 1_555
C8_4 C3_4 1_555 1_555
H6_4 C8_4 1_555 1_555
Ca3 O4_4 1_555 1_555
O8_4 Ca4 1_555 1_555
O9_4 Cd3 1_555 1_555
O14_4 Ca4 1_555 1_555
O17_4 Ca4 1_555 1_555
H8_4 O17_4 1_555 1_555
H9_4 O17_4 1_555 1_555
C4_4 C5_4 1_555 1_555
C7_4 C8_4 1_555 1_555
O2_4 Cd3_2 1_555 1_555
Ca2_2 O7_4 1_555 1_555
O7_4 Cd3_2 1_555 1_555
C9_4 O7_4 1_555 1_555
C11_4 C9_4 1_555 1_555
C12_4 C11_4 1_555 1_555
H10_4 C12_4 1_555 1_555
Cd3_3 O10_3 1_555 1_555
O10_3 C10_5 1_555 1_555
O14 C10_5 1_555 1_555
O16_5 H7_5 1_555 1_555
C10_5 C15_5 1_555 1_555
C13_5 O16_5 1_555 1_555
C14_5 C13_5 1_555 1_555
H11_5 C14_5 1_555 1_555
C15_5 C14_5 1_555 1_555
H12_5 C16_5 1_555 1_555
C15_5 C16_5 1_555 1_555
Cd1_5 O8_4 1_555 1_555
O8_4 C1_5 1_555 1_555
O2_5 Cd1_5 1_555 1_555
O3_3 C2_5 1_555 1_555
O4_5 C2_5 1_555 1_555
O5_5 H1_5 1_555 1_555
C1_5 O2_5 1_555 1_555
C2_5 C7_5 1_555 1_555
C3_5 C1_5 1_555 1_555
C4_5 C3_5 1_555 1_555
H4_5 C4_5 1_555 1_555
C5_5 O5_5 1_555 1_555
C6_5 C5_5 1_555 1_555
H5_5 C6_5 1_555 1_555
C7_5 C6_5 1_555 1_555
C8_5 C3_5 1_555 1_555
H6_5 C8_5 1_555 1_555
Cd2_3 O3_3 1_555 1_555
Ca3_2 O4_5 1_555 1_555
Ca2_2 O7_5 1_555 1_555
O7_5 Cd1_5 1_555 1_555
O9_5 Cd1_5 1_555 1_555
O11_3 Cd1_5 1_555 1_555
O12_3 Cd1_5 1_555 1_555
C9_5 O7_5 1_555 1_555
C11_5 C9_5 1_555 1_555
C12_5 C11_5 1_555 1_555
H10_5 C12_5 1_555 1_555
C4_5 C5_5 1_555 1_555
C7_5 C8_5 1_555 1_555
O9_5 C9_5 1_555 1_555
Cd1_6 O8_3 1_555 1_555
O8_3 C1_6 1_555 1_555
O2_6 Cd1_6 1_555 1_555
O3_4 C2_6 1_555 1_555
O4_6 C2_6 1_555 1_555
O5_6 H1_6 1_555 1_555
C1_6 O2_6 1_555 1_555
C2_6 C7_6 1_555 1_555
C3_6 C1_6 1_555 1_555
C4_6 C3_6 1_555 1_555
H4_6 C4_6 1_555 1_555
C5_6 O5_6 1_555 1_555
C6_6 C5_6 1_555 1_555
H5_6 C6_6 1_555 1_555
C7_6 C6_6 1_555 1_555
C8_6 C3_6 1_555 1_555
H6_6 C8_6 1_555 1_555
Cd3_3 O3_4 1_555 1_555
Ca3 O4_6 1_555 1_555
Ca2 O7_6 1_555 1_555
O7_6 Cd1_6 1_555 1_555
O9_6 Cd1_6 1_555 1_555
O11_4 Cd1_6 1_555 1_555
O12_4 Cd1_6 1_555 1_555
C9_6 O7_6 1_555 1_555
C11_6 C9_6 1_555 1_555
C12_6 C11_6 1_555 1_555
H10_6 C12_6 1_555 1_555
C4_6 C5_6 1_555 1_555
C7_6 C8_6 1_555 1_555
O9_6 C9_6 1_555 1_555
Cd2_3 O10_4 1_555 1_555
O10_4 C10_6 1_555 1_555
O14_2 C10_6 1_555 1_555
O16_6 H7_6 1_555 1_555
C10_6 C15_6 1_555 1_555
C13_6 O16_6 1_555 1_555
C14_6 C13_6 1_555 1_555
H11_6 C14_6 1_555 1_555
C15_6 C14_6 1_555 1_555
H12_6 C16_6 1_555 1_555
C15_6 C16_6 1_555 1_555
Cd2_3 O8_2 1_555 1_555
O8_2 C1_7 1_555 1_555
O2_7 Cd2_3 1_555 1_555
O11_4 C2_7 1_555 1_555
O4_7 C2_7 1_555 1_555
O5_7 H1_7 1_555 1_555
C1_7 O2_7 1_555 1_555
C2_7 C7_7 1_555 1_555
C3_7 C1_7 1_555 1_555
C4_7 C3_7 1_555 1_555
H4_7 C4_7 1_555 1_555
C5_7 O5_7 1_555 1_555
C6_7 C5_7 1_555 1_555
H5_7 C6_7 1_555 1_555
C7_7 C6_7 1_555 1_555
C8_7 C3_7 1_555 1_555
H6_7 C8_7 1_555 1_555
Ca2 O4_7 1_555 1_555
Ca3_2 O7_7 1_555 1_555
O7_7 Cd2_3 1_555 1_555
O9_7 Cd2_3 1_555 1_555
C9_7 O7_7 1_555 1_555
C11_7 C9_7 1_555 1_555
C12_7 C11_7 1_555 1_555
H10_7 C12_7 1_555 1_555
C4_7 C5_7 1_555 1_555
C7_7 C8_7 1_555 1_555
O9_7 C9_7 1_555 1_555
O12_3 C10_7 1_555 1_555
O14_4 C10_7 1_555 1_555
O16_7 H7_7 1_555 1_555
C10_7 C15_7 1_555 1_555
C13_7 O16_7 1_555 1_555
C14_7 C13_7 1_555 1_555
H11_7 C14_7 1_555 1_555
C15_7 C14_7 1_555 1_555
H12_7 C16_7 1_555 1_555
C15_7 C16_7 1_555 1_555
O12_4 C10_8 1_555 1_555
O14_3 C10_8 1_555 1_555
O16_8 H7_8 1_555 1_555
C10_8 C15_8 1_555 1_555
C13_8 O16_8 1_555 1_555
C14_8 C13_8 1_555 1_555
H11_8 C14_8 1_555 1_555
C15_8 C14_8 1_555 1_555
H12_8 C16_8 1_555 1_555
C15_8 C16_8 1_555 1_555
Cd3_3 O8 1_555 1_555
O8 C1_8 1_555 1_555
O2_8 Cd3_3 1_555 1_555
O11_3 C2_8 1_555 1_555
O4_8 C2_8 1_555 1_555
O5_8 H1_8 1_555 1_555
C1_8 O2_8 1_555 1_555
C2_8 C7_8 1_555 1_555
C3_8 C1_8 1_555 1_555
C4_8 C3_8 1_555 1_555
H4_8 C4_8 1_555 1_555
C5_8 O5_8 1_555 1_555
C6_8 C5_8 1_555 1_555
H5_8 C6_8 1_555 1_555
C7_8 C6_8 1_555 1_555
C8_8 C3_8 1_555 1_555
H6_8 C8_8 1_555 1_555
Ca2_2 O4_8 1_555 1_555
Ca3 O7_8 1_555 1_555
O7_8 Cd3_3 1_555 1_555
O9_8 Cd3_3 1_555 1_555
C9_8 O7_8 1_555 1_555
C11_8 C9_8 1_555 1_555
C12_8 C11_8 1_555 1_555
H10_8 C12_8 1_555 1_555
C4_8 C5_8 1_555 1_555
C7_8 C8_8 1_555 1_555
O9_8 C9_8 1_555 1_555
O6_5 Ca3_2 1_555 1_555
H2_5 O6_5 1_555 1_555
H3_5 O6_5 1_555 1_555
O17_5 Ca3_2 1_555 1_555
H8_5 O17_5 1_555 1_555
H9_5 O17_5 1_555 1_555
O6_6 Ca3 1_555 1_555
H2_6 O6_6 1_555 1_555
H3_6 O6_6 1_555 1_555
O17_6 Ca3 1_555 1_555
H8_6 O17_6 1_555 1_555
H9_6 O17_6 1_555 1_555
O6_7 Ca2_2 1_555 1_555
H2_7 O6_7 1_555 1_555
H3_7 O6_7 1_555 1_555
O17_7 Ca2_2 1_555 1_555
H8_7 O17_7 1_555 1_555
H9_7 O17_7 1_555 1_555
O6_8 Ca2 1_555 1_555
H2_8 O6_8 1_555 1_555
H3_8 O6_8 1_555 1_555
O17_8 Ca2 1_555 1_555
H8_8 O17_8 1_555 1_555
H9_8 O17_8 1_555 1_555

#END
