
###############################################################################
#
# This file contains modified crystal structure data generated from the
# MOF subset of the Cambridge Structural Database (CSD) v543 
# hosted by the Cambridge Crystallographic Data Centre (CCDC).
#
# This work is licensed under the Creative Commons
# Attribution-NonCommercial-ShareAlike 4.0 International License.
# To view a copy of this license, visit
# http://creativecommons.org/licenses/by-nc-sa/4.0/
# or send a letter to
# Creative Commons, PO Box 1866, Mountain View, CA 94042, USA.
#
# CIF created using the CSD Python API on 29 September 2022
# The structure has been converted into the P1 space group
# The structure has a 3D framework
# The original CSD entry EKUDAP is in the rhombohedral crystal system
# The framework has been calculated to contain at least 10.0% void space
# The void calculation uses a probe of radius 1.32A, grid spacing 0.4
#
###############################################################################

data_EKUDAP
_chemical_formula_moiety         '(C360 H360 Cu20 N36 O72)n'
_symmetry_cell_setting           triclinic
_symmetry_space_group_name_H-M   'P 1'
_symmetry_Int_Tables_number      1
_space_group_name_Hall           'P 1'
loop_
_symmetry_equiv_pos_site_id
_symmetry_equiv_pos_as_xyz
1 x,y,z
_cell_length_a                   22.604(2)
_cell_length_b                   22.604(2)
_cell_length_c                   22.964(3)
_cell_angle_alpha                90
_cell_angle_beta                 90
_cell_angle_gamma                120.0
_cell_volume                     10161.3
loop_
_atom_site_label
_atom_site_type_symbol
_atom_site_fract_x
_atom_site_fract_y
_atom_site_fract_z
Cu1 Cu 0.0000 0.5000 0.0000
O1 O 0.07941(5) 0.48902(5) 0.00893(4)
N1 N 0.13073(6) 0.38571(6) 0.25417(5)
C1 C 0.16661(7) 0.47882(9) 0.05496(7)
H1 H 0.1818 0.4817 0.0146
H2 H 0.1651 0.4393 0.0740
H3 H 0.1986 0.5206 0.0758
C2 C 0.09630(7) 0.47098(6) 0.05573(6)
C3 C 0.05387(6) 0.44328(6) 0.10517(6)
C6 C 0.08114(7) 0.42426(7) 0.15685(6)
C7 C 0.05480(7) 0.35604(7) 0.17235(6)
H7 H 0.0192 0.3210 0.1499
C8 C 0.08047(7) 0.33917(7) 0.22054(6)
H8 H 0.0615 0.2923 0.2302
C9 C 0.15654(7) 0.45141(7) 0.23910(6)
H9 H 0.1925 0.4852 0.2621
C10 C 0.13362(7) 0.47285(7) 0.19170(6)
H10 H 0.1535 0.5201 0.1831
O5 O 0.15569(5) 0.74294(7) 0.32440(4)
O6 O 0.10577(5) 0.81782(7) 0.26892(4)
N2 N 0.05238(6) 0.58831(8) 0.07916(5)
C11 C 0.14549(9) 0.64554(11) 0.27837(7)
H11 H 0.1484 0.6332 0.3187
H12 H 0.1060 0.6075 0.2593
H13 H 0.1873 0.6553 0.2575
C12 C 0.13765(6) 0.70801(9) 0.27760(6)
C13 C 0.10995(6) 0.72274(8) 0.22816(6)
C14 C 0.09509(6) 0.77660(9) 0.22708(5)
C15 C 0.06340(8) 0.78881(11) 0.17396(6)
H14 H 0.0749 0.8367 0.1730
H15 H 0.0812 0.7784 0.1388
H16 H 0.0137 0.7592 0.1755
C16 C 0.09093(7) 0.67645(10) 0.17648(6)
C17 C 0.02271(7) 0.63457(10) 0.16098(6)
C18 C 0.00584(7) 0.59203(10) 0.11279(6)
C19 C 0.11808(7) 0.62820(10) 0.09423(6)
H19 H 0.1519 0.6260 0.0712
C20 C 0.13952(7) 0.67256(10) 0.14163(6)
H20 H 0.1868 0.6999 0.1502
Cu2 Cu 0.1667 0.8333 0.3333
Cu3 Cu 0.1667 0.3333 0.3333
Cu1_2 Cu -0.0000 0.5000 1.0000
O4 O 0.04539(5) 0.56090(5) 0.93559(4)
Cu1_3 Cu 1.0000 0.5000 0.0000
O2 O 0.95461(5) 0.43910(5) 0.06441(4)
C4 C 0.98515(7) 0.42842(6) 0.10625(5)
C5 C 0.94125(8) 0.39673(8) 0.15937(6)
H4 H 0.9048 0.4082 0.1603
H5 H 0.9694 0.4145 0.1945
H6 H 0.9211 0.3470 0.1578
H17 H 0.9877 0.6351 0.1834
H18 H 0.9590 0.5641 0.1031
Cu1_4 Cu 1.0000 0.5000 1.0000
O3 O 0.92059(5) 0.51098(5) 0.99107(4)
N3 N 0.94762(6) 0.41169(8) 0.92084(5)
Cu1_5 Cu 0.5000 0.5000 0.0000
O1_2 O 0.51098(5) 0.59039(7) 0.00893(4)
O2_2 O 0.56090(5) 0.51551(7) 0.06441(4)
N1_2 N 0.61429(6) 0.74502(8) 0.25417(5)
C1_2 C 0.52118(9) 0.68779(11) 0.05496(7)
H1_2 H 0.5183 0.7001 0.0146
H2_2 H 0.5607 0.7258 0.0740
H3_2 H 0.4794 0.6780 0.0758
C2_2 C 0.52902(6) 0.62532(9) 0.05573(6)
C3_2 C 0.55672(6) 0.61059(8) 0.10517(6)
C4_2 C 0.57158(6) 0.55673(9) 0.10625(5)
C5_2 C 0.60327(8) 0.54452(11) 0.15937(6)
H4_2 H 0.5918 0.4966 0.1603
H5_2 H 0.5855 0.5549 0.1945
H6_2 H 0.6530 0.5741 0.1578
C6_2 C 0.57574(7) 0.65688(10) 0.15685(6)
C7_2 C 0.64396(7) 0.69876(10) 0.17235(6)
H7_2 H 0.6790 0.6982 0.1499
C8_2 C 0.66083(7) 0.74130(10) 0.22054(6)
H8_2 H 0.7077 0.7692 0.2302
C9_2 C 0.54859(7) 0.70513(10) 0.23910(6)
H9_2 H 0.5148 0.7073 0.2621
C10_2 C 0.52715(7) 0.66077(10) 0.19170(6)
H10_2 H 0.4799 0.6334 0.1831
O5_2 O 0.25706(7) 0.41274(9) 0.32440(4)
O6_2 O 0.18218(7) 0.28794(9) 0.26892(4)
N2_2 N 0.41169(8) 0.46406(10) 0.07916(5)
C11_2 C 0.35446(11) 0.49994(14) 0.27837(7)
H11_2 H 0.3668 0.5151 0.3187
H12_2 H 0.3925 0.4984 0.2593
H13_2 H 0.3447 0.5319 0.2575
C12_2 C 0.29199(9) 0.42963(11) 0.27760(6)
C13_2 C 0.27726(8) 0.38720(10) 0.22816(6)
C14_2 C 0.22340(9) 0.31848(11) 0.22708(5)
C15_2 C 0.21119(11) 0.27458(14) 0.17396(6)
H14_2 H 0.1633 0.2381 0.1730
H15_2 H 0.2216 0.3027 0.1388
H16_2 H 0.2408 0.2544 0.1755
C16_2 C 0.32355(10) 0.41447(12) 0.17648(6)
C17_2 C 0.36543(10) 0.38813(12) 0.16098(6)
H17_2 H 0.3649 0.3525 0.1834
C18_2 C 0.40797(10) 0.41380(12) 0.11279(6)
H18_2 H 0.4359 0.3948 0.1031
C19_2 C 0.37180(10) 0.48987(12) 0.09423(6)
H19_2 H 0.3740 0.5258 0.0712
C20_2 C 0.32744(10) 0.46695(12) 0.14163(6)
H20_2 H 0.3001 0.4868 0.1502
Cu3_2 Cu 0.6667 0.8333 0.3333
Cu1_6 Cu 0.5000 0.5000 1.0000
O3_2 O 0.48902(5) 0.40961(7) 0.99107(4)
O4_2 O 0.43910(5) 0.48449(7) 0.93559(4)
N3_2 N 0.58831(8) 0.53594(10) 0.92084(5)
Cu1_7 Cu 0.5000 0.0000 0.0000
O2_3 O 0.48449(7) 0.04539(5) 0.06441(4)
C4_3 C 0.44327(9) 0.01485(7) 0.10625(5)
C5_3 C 0.45548(11) 0.05875(8) 0.15937(6)
H4_3 H 0.5034 0.0952 0.1603
H5_3 H 0.4451 0.0306 0.1945
H6_3 H 0.4259 0.0789 0.1578
H17_3 H 0.6475 0.0123 0.1834
H18_3 H 0.6052 0.0410 0.1031
Cu1_8 Cu 0.5000 0.0000 1.0000
O3_3 O 0.59039(7) 0.07941(5) 0.99107(4)
N3_3 N 0.46406(10) 0.05238(6) 0.92084(5)
Cu1_9 Cu 0.5000 1.0000 0.0000
O1_3 O 0.40961(7) 0.92059(5) 0.00893(4)
N1_3 N 0.25498(8) 0.86927(6) 0.25417(5)
C1_3 C 0.31221(11) 0.83339(7) 0.05496(7)
H1_3 H 0.2999 0.8182 0.0146
H2_3 H 0.2742 0.8349 0.0740
H3_3 H 0.3220 0.8014 0.0758
C2_3 C 0.37468(9) 0.90370(7) 0.05573(6)
C3_3 C 0.38941(8) 0.94613(6) 0.10517(6)
C6_3 C 0.34312(10) 0.91886(7) 0.15685(6)
C7_3 C 0.30124(10) 0.94520(7) 0.17235(6)
H7_3 H 0.3018 0.9808 0.1499
C8_3 C 0.25870(10) 0.91953(7) 0.22054(6)
H8_3 H 0.2308 0.9385 0.2302
C9_3 C 0.29487(10) 0.84346(7) 0.23910(6)
H9_3 H 0.2927 0.8075 0.2621
C10_3 C 0.33923(10) 0.86638(7) 0.19170(6)
H10_3 H 0.3666 0.8465 0.1831
O5_3 O 0.58726(9) 0.84431(5) 0.32440(4)
O6_3 O 0.71206(9) 0.89423(5) 0.26892(4)
N2_3 N 0.53594(10) 0.94762(6) 0.07916(5)
C11_3 C 0.50006(14) 0.85451(9) 0.27837(7)
H11_3 H 0.4849 0.8516 0.3187
H12_3 H 0.5016 0.8940 0.2593
H13_3 H 0.4681 0.8127 0.2575
C12_3 C 0.57037(11) 0.86235(6) 0.27760(6)
C13_3 C 0.61280(10) 0.89005(6) 0.22816(6)
C14_3 C 0.68152(11) 0.90491(6) 0.22708(5)
C15_3 C 0.72542(14) 0.93660(8) 0.17396(6)
H14_3 H 0.7619 0.9251 0.1730
H15_3 H 0.6973 0.9188 0.1388
H16_3 H 0.7456 0.9863 0.1755
C16_3 C 0.58553(12) 0.90907(7) 0.17648(6)
C17_3 C 0.61187(12) 0.97729(7) 0.16098(6)
C18_3 C 0.58620(12) 0.99416(7) 0.11279(6)
C19_3 C 0.51013(12) 0.88192(7) 0.09423(6)
H19_3 H 0.4742 0.8481 0.0712
C20_3 C 0.53305(12) 0.86048(7) 0.14163(6)
H20_3 H 0.5132 0.8132 0.1502
Cu1_10 Cu 0.5000 1.0000 1.0000
O4_3 O 0.51551(7) 0.95461(5) 0.93559(4)
O5_4 O 0.82235(5) 0.07628(7) 0.65774(4)
O6_4 O 0.77243(5) 0.15116(7) 0.60226(4)
C12_4 C 0.80431(6) 0.04135(9) 0.61094(6)
C13_4 C 0.77661(6) 0.05608(8) 0.56150(6)
C14_4 C 0.76175(6) 0.10994(9) 0.56042(5)
C15_4 C 0.73006(8) 0.12215(11) 0.50730(6)
H14_4 H 0.7415 0.1701 0.5064
H15_4 H 0.7478 0.1118 0.4722
H16_4 H 0.6803 0.0926 0.5089
C16_4 C 0.75759(7) 0.00979(10) 0.50982(6)
C20_4 C 0.80618(7) 0.00590(10) 0.47497(6)
H20_4 H 0.8534 0.0333 0.4836
Cu2_2 Cu 0.8333 0.1667 0.6667
O1_4 O 0.74608(5) 0.82235(5) 0.34226(4)
O2_4 O 0.62128(5) 0.77243(5) 0.39774(4)
N1_4 N 0.79740(6) 0.71904(6) 0.58750(5)
C1_4 C 0.83328(7) 0.81215(9) 0.38829(7)
H1_4 H 0.8485 0.8150 0.3479
H2_4 H 0.8318 0.7726 0.4073
H3_4 H 0.8653 0.8539 0.4091
C2_4 C 0.76297(7) 0.80431(6) 0.38906(6)
C3_4 C 0.72054(6) 0.77661(6) 0.43850(6)
C4_4 C 0.65182(7) 0.76175(6) 0.43958(5)
C5_4 C 0.60792(8) 0.73006(8) 0.49270(6)
H4_4 H 0.5715 0.7415 0.4936
H5_4 H 0.6361 0.7478 0.5278
H6_4 H 0.5878 0.6803 0.4911
C6_4 C 0.74781(7) 0.75759(7) 0.49018(6)
C7_4 C 0.72147(7) 0.68937(7) 0.50568(6)
H7_4 H 0.6859 0.6543 0.4832
C8_4 C 0.74714(7) 0.67250(7) 0.55387(6)
H8_4 H 0.7282 0.6256 0.5635
C9_4 C 0.82321(7) 0.78474(7) 0.57243(6)
H9_4 H 0.8592 0.8185 0.5954
C10_4 C 0.80029(7) 0.80618(7) 0.52503(6)
H10_4 H 0.8202 0.8534 0.5164
N2_4 N 0.71904(6) 0.92165(8) 0.41250(5)
C11_4 C 0.81215(9) 0.97888(11) 0.61171(7)
H11_4 H 0.8150 0.9666 0.6521
H12_4 H 0.7726 0.9409 0.5927
H13_4 H 0.8539 0.9887 0.5909
C17_4 C 0.68937(7) 0.96791(10) 0.49432(6)
H17_4 H 0.6543 0.9685 0.5168
C18_4 C 0.67250(7) 0.92537(10) 0.44613(6)
H18_4 H 0.6256 0.8975 0.4365
C19_4 C 0.78474(7) 0.96154(10) 0.42757(6)
H19_4 H 0.8185 0.9594 0.4046
Cu3_3 Cu 0.8333 0.6667 0.6667
N1_5 N 0.28096(6) 0.07835(8) 0.58750(5)
C1_5 C 0.18785(9) 0.02112(11) 0.38829(7)
H1_5 H 0.1850 0.0334 0.3479
H2_5 H 0.2274 0.0591 0.4073
H3_5 H 0.1461 0.0113 0.4091
C7_5 C 0.31063(7) 0.03209(10) 0.50568(6)
H7_5 H 0.3457 0.0315 0.4832
C8_5 C 0.32750(7) 0.07463(10) 0.55387(6)
H8_5 H 0.3744 0.1025 0.5635
C9_5 C 0.21526(7) 0.03846(10) 0.57243(6)
H9_5 H 0.1815 0.0406 0.5954
Cu3_4 Cu 0.3333 0.1667 0.6667
O1_5 O 0.17765(5) 0.92372(7) 0.34226(4)
O2_5 O 0.22757(5) 0.84884(7) 0.39774(4)
C2_5 C 0.19569(6) 0.95865(9) 0.38906(6)
C3_5 C 0.22339(6) 0.94392(8) 0.43850(6)
C4_5 C 0.23825(6) 0.89006(9) 0.43958(5)
C5_5 C 0.26994(8) 0.87785(11) 0.49270(6)
H4_5 H 0.2585 0.8299 0.4936
H5_5 H 0.2522 0.8882 0.5278
H6_5 H 0.3197 0.9074 0.4911
C6_5 C 0.24241(7) 0.99021(10) 0.49018(6)
C10_5 C 0.19382(7) 0.99410(10) 0.52503(6)
H10_5 H 0.1466 0.9667 0.5164
N2_5 N 0.07835(8) 0.79740(10) 0.41250(5)
C11_5 C 0.02112(11) 0.83328(14) 0.61171(7)
H11_5 H 0.0334 0.8485 0.6521
H12_5 H 0.0591 0.8318 0.5927
H13_5 H 0.0113 0.8653 0.5909
C17_5 C 0.03209(10) 0.72147(12) 0.49432(6)
H17_5 H 0.0315 0.6859 0.5168
C18_5 C 0.07463(10) 0.74714(12) 0.44613(6)
H18_5 H 0.1025 0.7282 0.4365
C19_5 C 0.03846(10) 0.82321(12) 0.42757(6)
H19_5 H 0.0406 0.8592 0.4046
O5_5 O 0.92372(7) 0.74608(9) 0.65774(4)
O6_5 O 0.84884(7) 0.62128(9) 0.60226(4)
C12_5 C 0.95865(9) 0.76297(11) 0.61094(6)
C13_5 C 0.94392(8) 0.72054(10) 0.56150(6)
C14_5 C 0.89006(9) 0.65182(11) 0.56042(5)
C15_5 C 0.87785(11) 0.60792(14) 0.50730(6)
H14_5 H 0.8299 0.5715 0.5064
H15_5 H 0.8882 0.6361 0.4722
H16_5 H 0.9074 0.5878 0.5089
C16_5 C 0.99021(10) 0.74781(12) 0.50982(6)
C20_5 C 0.99410(10) 0.80029(12) 0.47497(6)
H20_5 H 0.9667 0.8202 0.4836
O1_6 O 0.07628(7) 0.25392(5) 0.34226(4)
O2_6 O 0.15116(7) 0.37872(5) 0.39774(4)
C2_6 C 0.04135(9) 0.23703(7) 0.38906(6)
C3_6 C 0.05608(8) 0.27946(6) 0.43850(6)
C4_6 C 0.10994(9) 0.34818(7) 0.43958(5)
C5_6 C 0.12215(11) 0.39208(8) 0.49270(6)
H4_6 H 0.1701 0.4285 0.4936
H5_6 H 0.1118 0.3639 0.5278
H6_6 H 0.0926 0.4122 0.4911
C6_6 C 0.00979(10) 0.25219(7) 0.49018(6)
C10_6 C 0.00590(10) 0.19971(7) 0.52503(6)
H10_6 H 0.0333 0.1798 0.5164
O5_6 O 0.25392(9) 0.17765(5) 0.65774(4)
O6_6 O 0.37872(9) 0.22757(5) 0.60226(4)
N2_6 N 0.20260(10) 0.28096(6) 0.41250(5)
C11_6 C 0.16672(14) 0.18785(9) 0.61171(7)
H11_6 H 0.1515 0.1850 0.6521
H12_6 H 0.1682 0.2274 0.5927
H13_6 H 0.1347 0.1461 0.5909
C12_6 C 0.23703(11) 0.19569(6) 0.61094(6)
C13_6 C 0.27946(10) 0.22339(6) 0.56150(6)
C14_6 C 0.34818(11) 0.23825(6) 0.56042(5)
C15_6 C 0.39208(14) 0.26994(8) 0.50730(6)
H14_6 H 0.4285 0.2585 0.5064
H15_6 H 0.3639 0.2522 0.4722
H16_6 H 0.4122 0.3197 0.5089
C16_6 C 0.25219(12) 0.24241(7) 0.50982(6)
C17_6 C 0.27853(12) 0.31063(7) 0.49432(6)
H17_6 H 0.3141 0.3457 0.5168
C18_6 C 0.25286(12) 0.32750(7) 0.44613(6)
H18_6 H 0.2718 0.3744 0.4365
C19_6 C 0.17679(12) 0.21526(7) 0.42757(6)
H19_6 H 0.1408 0.1815 0.4046
C20_6 C 0.19971(12) 0.19382(7) 0.47497(6)
H20_6 H 0.1798 0.1466 0.4836
N1_6 N 0.92165(8) 0.20260(6) 0.58750(5)
C1_6 C 0.97888(11) 0.16672(7) 0.38829(7)
H1_6 H 0.9666 0.1515 0.3479
H2_6 H 0.9409 0.1682 0.4073
H3_6 H 0.9887 0.1347 0.4091
C7_6 C 0.96791(10) 0.27853(7) 0.50568(6)
H7_6 H 0.9685 0.3141 0.4832
C8_6 C 0.92537(10) 0.25286(7) 0.55387(6)
H8_6 H 0.8975 0.2718 0.5635
C9_6 C 0.96154(10) 0.17679(7) 0.57243(6)
H9_6 H 0.9594 0.1408 0.5954
O1_7 O 0.41274(5) 0.15569(5) 0.67560(4)
O2_7 O 0.28794(5) 0.10577(5) 0.73108(4)
C1_7 C 0.49994(7) 0.14549(9) 0.72163(7)
H1_7 H 0.5151 0.1484 0.6813
H2_7 H 0.4984 0.1060 0.7407
H3_7 H 0.5319 0.1873 0.7425
C2_7 C 0.42963(7) 0.13765(6) 0.72240(6)
C3_7 C 0.38720(6) 0.10995(6) 0.77184(6)
C4_7 C 0.31848(7) 0.09509(6) 0.77292(5)
C5_7 C 0.27458(8) 0.06340(8) 0.82604(6)
H4_7 H 0.2381 0.0749 0.8270
H5_7 H 0.3027 0.0812 0.8612
H6_7 H 0.2544 0.0137 0.8245
C6_7 C 0.41447(7) 0.09093(7) 0.82352(6)
C7_7 C 0.38813(7) 0.02271(7) 0.83902(6)
C8_7 C 0.41380(7) 0.00584(7) 0.88721(6)
C9_7 C 0.48987(7) 0.11808(7) 0.90577(6)
H9_7 H 0.5258 0.1519 0.9288
C10_7 C 0.46695(7) 0.13952(7) 0.85837(6)
H10_7 H 0.4868 0.1868 0.8498
N2_7 N 0.38571(6) 0.25498(8) 0.74583(5)
C11_7 C 0.47882(9) 0.31221(11) 0.94504(7)
H11_7 H 0.4817 0.2999 0.9854
H12_7 H 0.4393 0.2742 0.9260
H13_7 H 0.5206 0.3220 0.9242
C12_7 C 0.47098(6) 0.37468(9) 0.94427(6)
C13_7 C 0.44328(6) 0.38941(8) 0.89483(6)
C14_7 C 0.42842(6) 0.44327(9) 0.89375(5)
C15_7 C 0.39673(8) 0.45548(11) 0.84063(6)
H14_7 H 0.4082 0.5034 0.8397
H15_7 H 0.4145 0.4451 0.8055
H16_7 H 0.3470 0.4259 0.8422
C16_7 C 0.42426(7) 0.34312(10) 0.84315(6)
C17_7 C 0.35604(7) 0.30124(10) 0.82765(6)
H17_7 H 0.3210 0.3018 0.8501
C18_7 C 0.33917(7) 0.25870(10) 0.77946(6)
H18_7 H 0.2923 0.2308 0.7698
C19_7 C 0.45141(7) 0.29487(10) 0.76090(6)
H19_7 H 0.4852 0.2927 0.7379
C20_7 C 0.47285(7) 0.33923(10) 0.80830(6)
H20_7 H 0.5201 0.3666 0.8169
H7_7 H 0.3525 0.9877 0.8166
H8_7 H 0.3948 0.9590 0.8969
C4_8 C 0.01485(7) 0.57158(6) 0.89375(5)
C5_8 C 0.05875(8) 0.60327(8) 0.84063(6)
H4_8 H 0.0952 0.5918 0.8397
H5_8 H 0.0306 0.5855 0.8055
H6_8 H 0.0789 0.6530 0.8422
H17_8 H 0.0123 0.3649 0.8166
H18_8 H 0.0410 0.4359 0.8969
N1_7 N 0.86927(6) 0.61429(6) 0.74583(5)
C1_8 C 0.83339(7) 0.52118(9) 0.94504(7)
H1_8 H 0.8182 0.5183 0.9854
H2_8 H 0.8349 0.5607 0.9260
H3_8 H 0.8014 0.4794 0.9242
C2_8 C 0.90370(7) 0.52902(6) 0.94427(6)
C3_8 C 0.94613(6) 0.55672(6) 0.89483(6)
C6_8 C 0.91886(7) 0.57574(7) 0.84315(6)
C7_8 C 0.94520(7) 0.64396(7) 0.82765(6)
H7_8 H 0.9808 0.6790 0.8501
C8_8 C 0.91953(7) 0.66083(7) 0.77946(6)
H8_8 H 0.9385 0.7077 0.7698
C9_8 C 0.84346(7) 0.54859(7) 0.76090(6)
H9_8 H 0.8075 0.5148 0.7379
C10_8 C 0.86638(7) 0.52715(7) 0.80830(6)
H10_8 H 0.8465 0.4799 0.8169
O5_7 O 0.84431(5) 0.25706(7) 0.67560(4)
O6_7 O 0.89423(5) 0.18218(7) 0.73108(4)
C11_8 C 0.85451(9) 0.35446(11) 0.72163(7)
H11_8 H 0.8516 0.3668 0.6813
H12_8 H 0.8940 0.3925 0.7407
H13_8 H 0.8127 0.3447 0.7425
C12_8 C 0.86235(6) 0.29199(9) 0.72240(6)
C13_8 C 0.89005(6) 0.27726(8) 0.77184(6)
C14_8 C 0.90491(6) 0.22340(9) 0.77292(5)
C15_8 C 0.93660(8) 0.21119(11) 0.82604(6)
H14_8 H 0.9251 0.1633 0.8270
H15_8 H 0.9188 0.2216 0.8612
H16_8 H 0.9863 0.2408 0.8245
C16_8 C 0.90907(7) 0.32355(10) 0.82352(6)
C17_8 C 0.97729(7) 0.36543(10) 0.83902(6)
C18_8 C 0.99416(7) 0.40797(10) 0.88721(6)
C19_8 C 0.88192(7) 0.37180(10) 0.90577(6)
H19_8 H 0.8481 0.3740 0.9288
C20_8 C 0.86048(7) 0.32744(10) 0.85837(6)
H20_8 H 0.8132 0.3001 0.8498
O5_8 O 0.74294(7) 0.58726(9) 0.67560(4)
O6_8 O 0.81782(7) 0.71206(9) 0.73108(4)
C11_9 C 0.64554(11) 0.50006(14) 0.72163(7)
H11_9 H 0.6332 0.4849 0.6813
H12_9 H 0.6075 0.5016 0.7407
H13_9 H 0.6553 0.4681 0.7425
C12_9 C 0.70801(9) 0.57037(11) 0.72240(6)
C13_9 C 0.72274(8) 0.61280(10) 0.77184(6)
C14_9 C 0.77660(9) 0.68152(11) 0.77292(5)
C15_9 C 0.78881(11) 0.72542(14) 0.82604(6)
H14_9 H 0.8367 0.7619 0.8270
H15_9 H 0.7784 0.6973 0.8612
H16_9 H 0.7592 0.7456 0.8245
C16_9 C 0.67645(10) 0.58553(12) 0.82352(6)
C17_9 C 0.63457(10) 0.61187(12) 0.83902(6)
H17_9 H 0.6351 0.6475 0.8166
C18_9 C 0.59203(10) 0.58620(12) 0.88721(6)
H18_9 H 0.5641 0.6052 0.8969
C19_9 C 0.62820(10) 0.51013(12) 0.90577(6)
H19_9 H 0.6260 0.4742 0.9288
C20_9 C 0.67256(10) 0.53305(12) 0.85837(6)
H20_9 H 0.6999 0.5132 0.8498
N1_8 N 0.74502(8) 0.13073(6) 0.74583(5)
C1_9 C 0.68779(11) 0.16661(7) 0.94504(7)
H1_9 H 0.7001 0.1818 0.9854
H2_9 H 0.7258 0.1651 0.9260
H3_9 H 0.6780 0.1986 0.9242
C2_9 C 0.62532(9) 0.09630(7) 0.94427(6)
C3_9 C 0.61059(8) 0.05387(6) 0.89483(6)
C6_9 C 0.65688(10) 0.08114(7) 0.84315(6)
C7_9 C 0.69876(10) 0.05480(7) 0.82765(6)
H7_9 H 0.6982 0.0192 0.8501
C8_9 C 0.74130(10) 0.08047(7) 0.77946(6)
H8_9 H 0.7692 0.0615 0.7698
C9_9 C 0.70513(10) 0.15654(7) 0.76090(6)
H9_9 H 0.7073 0.1925 0.7379
C10_9 C 0.66077(10) 0.13362(7) 0.80830(6)
H10_9 H 0.6334 0.1535 0.8169
C4_9 C 0.55673(9) 0.98515(7) 0.89375(5)
C5_9 C 0.54452(11) 0.94125(8) 0.84063(6)
H4_9 H 0.4966 0.9048 0.8397
H5_9 H 0.5549 0.9694 0.8055
H6_9 H 0.5741 0.9211 0.8422
Cu1_11 Cu 0.5000 0.0000 0.5000
O1_8 O 0.48902(5) 0.07941(5) 0.49107(4)
N1_9 N 0.38571(6) 0.13073(6) 0.24583(5)
C1_10 C 0.47882(9) 0.16661(7) 0.44504(7)
H1_10 H 0.4817 0.1818 0.4854
H2_10 H 0.4393 0.1651 0.4260
H3_10 H 0.5206 0.1986 0.4242
C2_10 C 0.47098(6) 0.09630(7) 0.44427(6)
C3_10 C 0.44328(6) 0.05387(6) 0.39483(6)
C6_10 C 0.42426(7) 0.08114(7) 0.34315(6)
C7_10 C 0.35604(7) 0.05480(7) 0.32765(6)
H7_10 H 0.3210 0.0192 0.3501
C8_10 C 0.33917(7) 0.08047(7) 0.27946(6)
H8_10 H 0.2923 0.0615 0.2698
C9_10 C 0.45141(7) 0.15654(7) 0.26090(6)
H9_10 H 0.4852 0.1925 0.2379
C10_10 C 0.47285(7) 0.13362(7) 0.30830(6)
H10_10 H 0.5201 0.1535 0.3169
O4_4 O 0.56090(5) 0.04539(5) 0.56441(4)
O5_9 O 0.74294(7) 0.15569(5) 0.17560(4)
O6_9 O 0.81782(7) 0.10577(5) 0.23108(4)
N2_8 N 0.58831(8) 0.05238(6) 0.42084(5)
C11_10 C 0.64554(11) 0.14549(9) 0.22163(7)
H11_10 H 0.6332 0.1484 0.1813
H12_10 H 0.6075 0.1060 0.2407
H13_10 H 0.6553 0.1873 0.2425
C12_10 C 0.70801(9) 0.13765(6) 0.22240(6)
C13_10 C 0.72274(8) 0.10995(6) 0.27184(6)
C14_10 C 0.77660(9) 0.09509(6) 0.27292(5)
C15_10 C 0.78881(11) 0.06340(8) 0.32604(6)
H14_10 H 0.8367 0.0749 0.3270
H15_10 H 0.7784 0.0812 0.3612
H16_10 H 0.7592 0.0137 0.3245
C16_10 C 0.67645(10) 0.09093(7) 0.32352(6)
C17_10 C 0.63457(10) 0.02271(7) 0.33902(6)
C18_10 C 0.59203(10) 0.00584(7) 0.38721(6)
C19_10 C 0.62820(10) 0.11808(7) 0.40577(6)
H19_10 H 0.6260 0.1519 0.4288
C20_10 C 0.67256(10) 0.13952(7) 0.35837(6)
H20_10 H 0.6999 0.1868 0.3498
Cu2_3 Cu 0.8333 0.1667 0.1667
Cu3_5 Cu 0.3333 0.1667 0.1667
Cu1_12 Cu 0.5000 1.0000 0.5000
O2_8 O 0.43910(5) 0.95461(5) 0.43559(4)
C4_10 C 0.42842(6) 0.98515(7) 0.39375(5)
C5_10 C 0.39673(8) 0.94125(8) 0.34063(6)
H4_10 H 0.4082 0.9048 0.3397
H5_10 H 0.4145 0.9694 0.3055
H6_10 H 0.3470 0.9211 0.3422
O3_4 O 0.51098(5) 0.92059(5) 0.50893(4)
H17_10 H 0.6351 0.9877 0.3166
H18_10 H 0.5641 0.9590 0.3969
N3_4 N 0.41169(8) 0.94762(6) 0.57916(5)
Cu1_13 Cu 0.1667 0.3333 0.8333
O1_9 O 0.15569(5) 0.41274(5) 0.82440(4)
O2_9 O 0.10577(5) 0.28794(5) 0.76892(4)
N1_10 N 0.05238(6) 0.46406(6) 0.57916(5)
C1_11 C 0.14549(9) 0.49994(7) 0.77837(7)
H1_11 H 0.1484 0.5151 0.8187
H2_11 H 0.1060 0.4984 0.7593
H3_11 H 0.1873 0.5319 0.7575
C2_11 C 0.13765(6) 0.42963(7) 0.77760(6)
C3_11 C 0.10995(6) 0.38720(6) 0.72816(6)
C4_11 C 0.09509(6) 0.31848(7) 0.72708(5)
C5_11 C 0.06340(8) 0.27458(8) 0.67396(6)
H4_11 H 0.0749 0.2381 0.6730
H5_11 H 0.0812 0.3027 0.6388
H6_11 H 0.0137 0.2544 0.6755
C6_11 C 0.09093(7) 0.41447(7) 0.67648(6)
C7_11 C 0.02271(7) 0.38813(7) 0.66098(6)
C8_11 C 0.00584(7) 0.41380(7) 0.61279(6)
C9_11 C 0.11808(7) 0.48987(7) 0.59423(6)
H9_11 H 0.1519 0.5258 0.5712
C10_11 C 0.13952(7) 0.46695(7) 0.64163(6)
H10_11 H 0.1868 0.4868 0.6502
O3_5 O 0.17765(5) 0.25392(5) 0.84226(4)
O4_5 O 0.22757(5) 0.37872(5) 0.89774(4)
O5_10 O 0.40961(7) 0.48902(5) 0.50893(4)
O6_10 O 0.48449(7) 0.43910(5) 0.56441(4)
N2_9 N 0.25498(8) 0.38571(6) 0.75417(5)
C11_11 C 0.31221(11) 0.47882(9) 0.55496(7)
H11_11 H 0.2999 0.4817 0.5146
H12_11 H 0.2742 0.4393 0.5740
H13_11 H 0.3220 0.5206 0.5758
C12_11 C 0.37468(9) 0.47098(6) 0.55573(6)
C13_11 C 0.38941(8) 0.44328(6) 0.60517(6)
C14_11 C 0.44327(9) 0.42842(6) 0.60625(5)
C15_11 C 0.45548(11) 0.39673(8) 0.65937(6)
H14_11 H 0.5034 0.4082 0.6603
H15_11 H 0.4451 0.4145 0.6945
H16_11 H 0.4259 0.3470 0.6578
C16_11 C 0.34312(10) 0.42426(7) 0.65685(6)
C17_11 C 0.30124(10) 0.35604(7) 0.67235(6)
H17_11 H 0.3018 0.3210 0.6499
C18_11 C 0.25870(10) 0.33917(7) 0.72054(6)
H18_11 H 0.2308 0.2923 0.7302
C19_11 C 0.29487(10) 0.45141(7) 0.73910(6)
H19_11 H 0.2927 0.4852 0.7621
C20_11 C 0.33923(10) 0.47285(7) 0.69170(6)
H20_11 H 0.3666 0.5201 0.6831
N3_5 N 0.07835(8) 0.28096(6) 0.91250(5)
Cu2_4 Cu 0.5000 0.5000 0.5000
Cu3_6 Cu 0.0000 0.5000 0.5000
H7_11 H 0.9877 0.3525 0.6834
H8_11 H 0.9590 0.3948 0.6031
Cu3_7 Cu 1.0000 0.5000 0.5000
O5_11 O 0.07628(7) 0.82235(5) 0.84226(4)
O6_11 O 0.15116(7) 0.77243(5) 0.89774(4)
C12_12 C 0.04135(9) 0.80431(6) 0.88906(6)
C13_12 C 0.05608(8) 0.77661(6) 0.93850(6)
C14_12 C 0.10994(9) 0.76175(6) 0.93958(5)
C15_12 C 0.12215(11) 0.73006(8) 0.99270(6)
H14_12 H 0.1701 0.7415 0.9936
H16_12 H 0.0926 0.6803 0.9911
C16_12 C 0.00979(10) 0.75759(7) 0.99018(6)
Cu2_5 Cu 0.1667 0.8333 0.8333
Cu1_14 Cu 0.8333 0.6667 0.1667
O1_10 O 0.82235(5) 0.74608(5) 0.15774(4)
O2_10 O 0.77243(5) 0.62128(5) 0.10226(4)
C1_12 C 0.81215(9) 0.83328(7) 0.11171(7)
H1_12 H 0.8150 0.8485 0.1521
H2_12 H 0.7726 0.8318 0.0927
H3_12 H 0.8539 0.8653 0.0909
C2_12 C 0.80431(6) 0.76297(7) 0.11094(6)
C3_12 C 0.77661(6) 0.72054(6) 0.06150(6)
C4_12 C 0.76175(6) 0.65182(7) 0.06042(5)
C5_12 C 0.73006(8) 0.60792(8) 0.00730(6)
H4_12 H 0.7415 0.5715 0.0064
H6_12 H 0.6803 0.5878 0.0089
C6_12 C 0.75759(7) 0.74781(7) 0.00982(6)
H7_12 H 0.6543 0.6859 0.0168
O3_6 O 0.84431(5) 0.58726(5) 0.17560(4)
O4_6 O 0.89423(5) 0.71206(5) 0.23108(4)
N2_10 N 0.92165(8) 0.71904(6) 0.08750(5)
C17_12 C 0.96791(10) 0.68937(7) 0.00568(6)
C18_12 C 0.92537(10) 0.67250(7) 0.05387(6)
H18_12 H 0.8975 0.6256 0.0635
C19_12 C 0.96154(10) 0.78474(7) 0.07243(6)
H19_12 H 0.9594 0.8185 0.0954
N3_6 N 0.74502(8) 0.61429(6) 0.24583(5)
N1_11 N 0.71904(6) 0.79740(6) 0.91250(5)
H5_12 H 0.7478 0.6361 0.9722
C7_12 C 0.68937(7) 0.72147(7) 0.99432(6)
C8_12 C 0.67250(7) 0.74714(7) 0.94613(6)
H8_12 H 0.6256 0.7282 0.9365
C9_12 C 0.78474(7) 0.82321(7) 0.92757(6)
H9_12 H 0.8185 0.8592 0.9046
C10_12 C 0.80618(7) 0.80029(7) 0.97497(6)
H10_12 H 0.8534 0.8202 0.9836
C11_12 C 0.97888(11) 0.81215(9) 0.88829(7)
H11_12 H 0.9666 0.8150 0.8479
H12_12 H 0.9409 0.7726 0.9073
H13_12 H 0.9887 0.8539 0.9091
H17_12 H 0.9685 0.6543 0.9832
Cu3_8 Cu 0.6667 0.8333 0.8333
O3_7 O 0.59039(7) 0.51098(5) 0.49107(4)
O4_7 O 0.51551(7) 0.56090(5) 0.43559(4)
O5_12 O 0.58726(9) 0.74294(7) 0.82440(4)
O6_12 O 0.71206(9) 0.81782(7) 0.76892(4)
N2_11 N 0.53594(10) 0.58831(8) 0.57916(5)
C11_13 C 0.50006(14) 0.64554(11) 0.77837(7)
H11_13 H 0.4849 0.6332 0.8187
H12_13 H 0.5016 0.6075 0.7593
H13_13 H 0.4681 0.6553 0.7575
C12_13 C 0.57037(11) 0.70801(9) 0.77760(6)
C13_13 C 0.61280(10) 0.72274(8) 0.72816(6)
C14_13 C 0.68152(11) 0.77660(9) 0.72708(5)
C15_13 C 0.72542(14) 0.78881(11) 0.67396(6)
H14_13 H 0.7619 0.8367 0.6730
H15_12 H 0.6973 0.7784 0.6388
H16_13 H 0.7456 0.7592 0.6755
C16_13 C 0.58553(12) 0.67645(10) 0.67648(6)
C17_13 C 0.61187(12) 0.63457(10) 0.66098(6)
H17_13 H 0.6475 0.6351 0.6834
C18_13 C 0.58620(12) 0.59203(10) 0.61279(6)
H18_13 H 0.6052 0.5641 0.6031
C19_13 C 0.51013(12) 0.62820(10) 0.59423(6)
H19_13 H 0.4742 0.6260 0.5712
C20_12 C 0.53305(12) 0.67256(10) 0.64163(6)
H20_12 H 0.5132 0.6999 0.6502
N3_7 N 0.46406(10) 0.41169(8) 0.42084(5)
O1_11 O 0.07941(5) 0.59039(7) 0.50893(4)
N1_12 N 0.13073(6) 0.74502(8) 0.75417(5)
C1_13 C 0.16661(7) 0.68779(11) 0.55496(7)
H1_13 H 0.1818 0.7001 0.5146
H2_13 H 0.1651 0.7258 0.5740
H3_13 H 0.1986 0.6780 0.5758
C2_13 C 0.09630(7) 0.62532(9) 0.55573(6)
C3_13 C 0.05387(6) 0.61059(8) 0.60517(6)
C6_13 C 0.08114(7) 0.65688(10) 0.65685(6)
C7_13 C 0.05480(7) 0.69876(10) 0.67235(6)
H7_13 H 0.0192 0.6982 0.6499
C8_13 C 0.08047(7) 0.74130(10) 0.72054(6)
H8_13 H 0.0615 0.7692 0.7302
C9_13 C 0.15654(7) 0.70513(10) 0.73910(6)
H9_13 H 0.1925 0.7073 0.7621
C10_13 C 0.13362(7) 0.66077(10) 0.69170(6)
H10_13 H 0.1535 0.6334 0.6831
O4_8 O 0.04539(5) 0.48449(7) 0.43559(4)
O2_11 O 0.95461(5) 0.51551(7) 0.56441(4)
C4_13 C 0.98515(7) 0.55673(9) 0.60625(5)
C5_13 C 0.94125(8) 0.54452(11) 0.65937(6)
H4_13 H 0.9048 0.4966 0.6603
H5_13 H 0.9694 0.5549 0.6945
H6_13 H 0.9211 0.5741 0.6578
O3_8 O 0.92059(5) 0.40961(7) 0.49107(4)
N3_8 N 0.94762(6) 0.53594(10) 0.42084(5)
O5_13 O 0.25392(9) 0.07628(7) 0.15774(4)
O6_13 O 0.37872(9) 0.15116(7) 0.10226(4)
C12_14 C 0.23703(11) 0.04135(9) 0.11094(6)
C13_14 C 0.27946(10) 0.05608(8) 0.06150(6)
C14_14 C 0.34818(11) 0.10994(9) 0.06042(5)
C15_14 C 0.39208(14) 0.12215(11) 0.00730(6)
H14_14 H 0.4285 0.1701 0.0064
H16_14 H 0.4122 0.0926 0.0089
C16_14 C 0.25219(12) 0.00979(10) 0.00982(6)
H15_13 H 0.3639 0.1118 0.9722
C20_13 C 0.19971(12) 0.00590(10) 0.97497(6)
H20_13 H 0.1798 0.0333 0.9836
O3_9 O 0.25706(7) 0.84431(5) 0.82440(4)
O4_9 O 0.18218(7) 0.89423(5) 0.76892(4)
N2_12 N 0.20260(10) 0.92165(8) 0.91250(5)
C17_14 C 0.27853(12) 0.96791(10) 0.99432(6)
C18_14 C 0.25286(12) 0.92537(10) 0.94613(6)
H18_14 H 0.2718 0.8975 0.9365
C19_14 C 0.17679(12) 0.96154(10) 0.92757(6)
H19_14 H 0.1408 0.9594 0.9046
N1_13 N 0.79740(6) 0.07835(8) 0.08750(5)
C7_14 C 0.72147(7) 0.03209(10) 0.00568(6)
C8_14 C 0.74714(7) 0.07463(10) 0.05387(6)
H8_14 H 0.7282 0.1025 0.0635
C9_14 C 0.82321(7) 0.03846(10) 0.07243(6)
H9_14 H 0.8592 0.0406 0.0954
H5_14 H 0.6361 0.8882 0.0278
C10_14 C 0.80029(7) 0.99410(10) 0.02503(6)
H10_14 H 0.8202 0.9667 0.0164
O1_12 O 0.74608(5) 0.92372(7) 0.84226(4)
O2_12 O 0.62128(5) 0.84884(7) 0.89774(4)
C2_14 C 0.76297(7) 0.95865(9) 0.88906(6)
C3_14 C 0.72054(6) 0.94392(8) 0.93850(6)
C4_14 C 0.65182(7) 0.89006(9) 0.93958(5)
C5_14 C 0.60792(8) 0.87785(11) 0.99270(6)
H4_14 H 0.5715 0.8299 0.9936
H6_14 H 0.5878 0.9074 0.9911
C6_14 C 0.74781(7) 0.99021(10) 0.99018(6)
N3_9 N 0.61429(6) 0.86927(10) 0.75417(5)
C14_15 C 0.01485(11) 0.44327(9) 0.39375(5)
C15_15 C 0.05875(14) 0.45548(11) 0.34063(6)
H14_15 H 0.0952 0.5034 0.3397
H15_14 H 0.0306 0.4451 0.3055
H16_15 H 0.0789 0.4259 0.3422
O3_10 O 0.92372(7) 0.17765(5) 0.15774(4)
O4_10 O 0.84884(7) 0.22757(5) 0.10226(4)
N2_13 N 0.86927(10) 0.25498(8) 0.24583(5)
C11_14 C 0.83339(14) 0.31221(11) 0.44504(7)
H11_14 H 0.8182 0.2999 0.4854
H12_14 H 0.8349 0.2742 0.4260
H13_14 H 0.8014 0.3220 0.4242
C12_15 C 0.90370(11) 0.37468(9) 0.44427(6)
C13_15 C 0.94613(10) 0.38941(8) 0.39483(6)
C16_15 C 0.91886(12) 0.34312(10) 0.34315(6)
C17_15 C 0.94520(12) 0.30124(10) 0.32765(6)
H17_14 H 0.9808 0.3018 0.3501
C18_15 C 0.91953(12) 0.25870(10) 0.27946(6)
H18_15 H 0.9385 0.2308 0.2698
C19_15 C 0.84346(12) 0.29487(10) 0.26090(6)
H19_15 H 0.8075 0.2927 0.2379
C20_14 C 0.86638(12) 0.33923(10) 0.30830(6)
H20_14 H 0.8465 0.3666 0.3169
O1_13 O 0.41274(5) 0.25706(7) 0.17560(4)
O2_13 O 0.28794(5) 0.18218(7) 0.23108(4)
C1_14 C 0.49994(7) 0.35446(11) 0.22163(7)
H1_14 H 0.5151 0.3668 0.1813
H2_14 H 0.4984 0.3925 0.2407
H3_14 H 0.5319 0.3447 0.2425
C2_15 C 0.42963(7) 0.29199(9) 0.22240(6)
C3_15 C 0.38720(6) 0.27726(8) 0.27184(6)
C4_15 C 0.31848(7) 0.22340(9) 0.27292(5)
C5_15 C 0.27458(8) 0.21119(11) 0.32604(6)
H4_15 H 0.2381 0.1633 0.3270
H5_15 H 0.3027 0.2216 0.3612
H6_15 H 0.2544 0.2408 0.3245
C6_15 C 0.41447(7) 0.32355(10) 0.32352(6)
C7_15 C 0.38813(7) 0.36543(10) 0.33902(6)
H7_14 H 0.3525 0.3649 0.3166
C8_15 C 0.41380(7) 0.40797(10) 0.38721(6)
H8_15 H 0.3948 0.4359 0.3969
C9_15 C 0.48987(7) 0.37180(10) 0.40577(6)
H9_15 H 0.5258 0.3740 0.4288
C10_15 C 0.46695(7) 0.32744(10) 0.35837(6)
H10_15 H 0.4868 0.3001 0.3498
N3_10 N 0.28096(6) 0.20260(10) 0.08750(5)
C4_16 C 0.57158(6) 0.01485(7) 0.60625(5)
C5_16 C 0.60327(8) 0.05875(8) 0.65937(6)
H4_16 H 0.5918 0.0952 0.6603
H5_16 H 0.5855 0.0306 0.6945
H6_16 H 0.6530 0.0789 0.6578
H17_15 H 0.3649 0.0123 0.6834
H18_16 H 0.4359 0.0410 0.6031
C1_15 C 0.52118(9) 0.83339(7) 0.55496(7)
H1_15 H 0.5183 0.8182 0.5146
H2_15 H 0.5607 0.8349 0.5740
H3_15 H 0.4794 0.8014 0.5758
C2_16 C 0.52902(6) 0.90370(7) 0.55573(6)
C3_16 C 0.55672(6) 0.94613(6) 0.60517(6)
C6_16 C 0.57574(7) 0.91886(7) 0.65685(6)
C7_16 C 0.64396(7) 0.94520(7) 0.67235(6)
H7_15 H 0.6790 0.9808 0.6499
C8_16 C 0.66083(7) 0.91953(7) 0.72054(6)
H8_16 H 0.7077 0.9385 0.7302
C9_16 C 0.54859(7) 0.84346(7) 0.73910(6)
H9_16 H 0.5148 0.8075 0.7621
C10_16 C 0.52715(7) 0.86638(7) 0.69170(6)
H10_16 H 0.4799 0.8465 0.6831
C11_15 C 0.35446(11) 0.85451(9) 0.77837(7)
H11_15 H 0.3668 0.8516 0.8187
H12_15 H 0.3925 0.8940 0.7593
H13_15 H 0.3447 0.8127 0.7575
C12_16 C 0.29199(9) 0.86235(6) 0.77760(6)
C13_16 C 0.27726(8) 0.89005(6) 0.72816(6)
C14_16 C 0.22340(9) 0.90491(6) 0.72708(5)
C15_16 C 0.21119(11) 0.93660(8) 0.67396(6)
H14_16 H 0.1633 0.9251 0.6730
H15_15 H 0.2216 0.9188 0.6388
H16_16 H 0.2408 0.9863 0.6755
C16_16 C 0.32355(10) 0.90907(7) 0.67648(6)
C17_16 C 0.36543(10) 0.97729(7) 0.66098(6)
C18_16 C 0.40797(10) 0.99416(7) 0.61279(6)
C19_16 C 0.37180(10) 0.88192(7) 0.59423(6)
H19_16 H 0.3740 0.8481 0.5712
C20_15 C 0.32744(10) 0.86048(7) 0.64163(6)
H20_15 H 0.3001 0.8132 0.6502
H7_16 H 0.0123 0.6475 0.3166
H8_17 H 0.0410 0.6052 0.3969
C1_16 C 0.85451(9) 0.50006(7) 0.22163(7)
H1_16 H 0.8516 0.4849 0.1813
H2_16 H 0.8940 0.5016 0.2407
H3_16 H 0.8127 0.4681 0.2425
C2_17 C 0.86235(6) 0.57037(7) 0.22240(6)
C3_17 C 0.89005(6) 0.61280(6) 0.27184(6)
C4_17 C 0.90491(6) 0.68152(7) 0.27292(5)
C5_17 C 0.93660(8) 0.72542(8) 0.32604(6)
H4_17 H 0.9251 0.7619 0.3270
H5_17 H 0.9188 0.6973 0.3612
H6_17 H 0.9863 0.7456 0.3245
C6_17 C 0.90907(7) 0.58553(7) 0.32352(6)
C7_17 C 0.97729(7) 0.61187(7) 0.33902(6)
C8_17 C 0.99416(7) 0.58620(7) 0.38721(6)
C9_17 C 0.88192(7) 0.51013(7) 0.40577(6)
H9_17 H 0.8481 0.4742 0.4288
C10_17 C 0.86048(7) 0.53305(7) 0.35837(6)
H10_17 H 0.8132 0.5132 0.3498
C11_16 C 0.68779(11) 0.52118(9) 0.44504(7)
H11_16 H 0.7001 0.5183 0.4854
H12_16 H 0.7258 0.5607 0.4260
H13_16 H 0.6780 0.4794 0.4242
C12_17 C 0.62532(9) 0.52902(6) 0.44427(6)
C13_17 C 0.61059(8) 0.55672(6) 0.39483(6)
C14_17 C 0.55673(9) 0.57158(6) 0.39375(5)
C15_17 C 0.54452(11) 0.60327(8) 0.34063(6)
H14_17 H 0.4966 0.5918 0.3397
H15_16 H 0.5549 0.5855 0.3055
H16_17 H 0.5741 0.6530 0.3422
C16_17 C 0.65688(10) 0.57574(7) 0.34315(6)
C17_17 C 0.69876(10) 0.64396(7) 0.32765(6)
H17_16 H 0.6982 0.6790 0.3501
C18_17 C 0.74130(10) 0.66083(7) 0.27946(6)
H18_17 H 0.7692 0.7077 0.2698
C19_17 C 0.70513(10) 0.54859(7) 0.26090(6)
H19_17 H 0.7073 0.5148 0.2379
C20_16 C 0.66077(10) 0.52715(7) 0.30830(6)
H20_16 H 0.6334 0.4799 0.3169
H5_18 H 0.2522 0.3639 0.0278
C7_18 C 0.31063(7) 0.27853(7) 0.00568(6)
C8_18 C 0.32750(7) 0.25286(7) 0.05387(6)
H8_18 H 0.3744 0.2718 0.0635
C9_18 C 0.21526(7) 0.17679(7) 0.07243(6)
H9_18 H 0.1815 0.1408 0.0954
C10_18 C 0.19382(7) 0.19971(7) 0.02503(6)
H10_18 H 0.1466 0.1798 0.0164
C11_17 C 0.02112(11) 0.18785(9) 0.11171(7)
H11_17 H 0.0334 0.1850 0.1521
H12_17 H 0.0591 0.2274 0.0927
H13_17 H 0.0113 0.1461 0.0909
H17_17 H 0.0315 0.3457 0.0168
C1_17 C 0.18785(9) 0.16672(7) 0.88829(7)
H1_17 H 0.1850 0.1515 0.8479
H2_17 H 0.2274 0.1682 0.9073
H3_17 H 0.1461 0.1347 0.9091
C2_18 C 0.19569(6) 0.23703(7) 0.88906(6)
C3_18 C 0.22339(6) 0.27946(6) 0.93850(6)
C4_18 C 0.23825(6) 0.34818(7) 0.93958(5)
C5_18 C 0.26994(8) 0.39208(8) 0.99270(6)
H4_18 H 0.2585 0.4285 0.9936
H6_18 H 0.3197 0.4122 0.9911
C6_18 C 0.24241(7) 0.25219(7) 0.99018(6)
H7_17 H 0.3457 0.3141 0.9832
C17_18 C 0.03209(10) 0.31063(7) 0.99432(6)
C18_18 C 0.07463(10) 0.32750(7) 0.94613(6)
H18_18 H 0.1025 0.3744 0.9365
C19_18 C 0.03846(10) 0.21526(7) 0.92757(6)
H19_18 H 0.0406 0.1815 0.9046
C12_18 C 0.95865(9) 0.19569(6) 0.11094(6)
C13_18 C 0.94392(8) 0.22339(6) 0.06150(6)
C14_18 C 0.89006(9) 0.23825(6) 0.06042(5)
C15_18 C 0.87785(11) 0.26994(8) 0.00730(6)
H14_18 H 0.8299 0.2585 0.0064
H16_18 H 0.9074 0.3197 0.0089
C16_18 C 0.99021(10) 0.24241(7) 0.00982(6)
H15_17 H 0.1118 0.7478 0.0278
C20_17 C 0.00590(10) 0.80618(7) 0.02503(6)
H20_17 H 0.0333 0.8534 0.0164
C11_18 C 0.16672(14) 0.97888(11) 0.11171(7)
H11_18 H 0.1515 0.9666 0.1521
H12_18 H 0.1682 0.9409 0.0927
H13_18 H 0.1347 0.9887 0.0909
H17_18 H 0.3141 0.9685 0.0168
C1_18 C 0.83328(7) 0.02112(11) 0.88829(7)
H1_18 H 0.8485 0.0334 0.8479
H2_18 H 0.8318 0.0591 0.9073
H3_18 H 0.8653 0.0113 0.9091
H7_18 H 0.6859 0.0315 0.9832
H15_18 H 0.8882 0.2522 0.9722
C20_18 C 0.99410(10) 0.19382(7) 0.97497(6)
H20_18 H 0.9667 0.1466 0.9836
loop_
_geom_bond_atom_site_label_1
_geom_bond_atom_site_label_2
_geom_bond_site_symmetry_1
_geom_bond_site_symmetry_2
Cu1 O1 1_555 1_555
O1 C2 1_555 1_555
N1 C8 1_555 1_555
C1 H1 1_555 1_555
H2 C1 1_555 1_555
H3 C1 1_555 1_555
C2 C1 1_555 1_555
C3 C2 1_555 1_555
C6 C3 1_555 1_555
C7 C6 1_555 1_555
H7 C7 1_555 1_555
C8 C7 1_555 1_555
H8 C8 1_555 1_555
C9 N1 1_555 1_555
H9 C9 1_555 1_555
C10 C6 1_555 1_555
H10 C10 1_555 1_555
O5 C12 1_555 1_555
O6 C14 1_555 1_555
N2 Cu1 1_555 1_555
C11 H11 1_555 1_555
H12 C11 1_555 1_555
H13 C11 1_555 1_555
C12 C11 1_555 1_555
C13 C12 1_555 1_555
C14 C13 1_555 1_555
C15 C14 1_555 1_555
H14 C15 1_555 1_555
H15 C15 1_555 1_555
H16 C15 1_555 1_555
C16 C13 1_555 1_555
C17 C16 1_555 1_555
C18 N2 1_555 1_555
C19 N2 1_555 1_555
H19 C19 1_555 1_555
C20 C16 1_555 1_555
H20 C20 1_555 1_555
Cu2 O5 1_555 1_555
Cu3 N1 1_555 1_555
C9 C10 1_555 1_555
O6 Cu2 1_555 1_555
C17 C18 1_555 1_555
C19 C20 1_555 1_555
O4 Cu1_2 1_555 1_555
O2 Cu1_3 1_555 1_555
C4 O2 1_555 1_555
C5 C4 1_555 1_555
H4 C5 1_555 1_555
H5 C5 1_555 1_555
H6 C5 1_555 1_555
O3 Cu1_4 1_555 1_555
N3 Cu1_4 1_555 1_555
Cu1_5 O1_2 1_555 1_555
O1_2 C2_2 1_555 1_555
O2_2 Cu1_5 1_555 1_555
N1_2 C8_2 1_555 1_555
C1_2 H1_2 1_555 1_555
H2_2 C1_2 1_555 1_555
H3_2 C1_2 1_555 1_555
C2_2 C1_2 1_555 1_555
C3_2 C2_2 1_555 1_555
C4_2 O2_2 1_555 1_555
C5_2 C4_2 1_555 1_555
H4_2 C5_2 1_555 1_555
H5_2 C5_2 1_555 1_555
H6_2 C5_2 1_555 1_555
C6_2 C3_2 1_555 1_555
C7_2 C6_2 1_555 1_555
H7_2 C7_2 1_555 1_555
C8_2 C7_2 1_555 1_555
H8_2 C8_2 1_555 1_555
C9_2 N1_2 1_555 1_555
H9_2 C9_2 1_555 1_555
C10_2 C6_2 1_555 1_555
H10_2 C10_2 1_555 1_555
O5_2 C12_2 1_555 1_555
O6_2 C14_2 1_555 1_555
N2_2 Cu1_5 1_555 1_555
C11_2 H11_2 1_555 1_555
H12_2 C11_2 1_555 1_555
H13_2 C11_2 1_555 1_555
C12_2 C11_2 1_555 1_555
C13_2 C12_2 1_555 1_555
C14_2 C13_2 1_555 1_555
C15_2 C14_2 1_555 1_555
H14_2 C15_2 1_555 1_555
H15_2 C15_2 1_555 1_555
H16_2 C15_2 1_555 1_555
C16_2 C13_2 1_555 1_555
C17_2 C16_2 1_555 1_555
H17_2 C17_2 1_555 1_555
C18_2 N2_2 1_555 1_555
H18_2 C18_2 1_555 1_555
C19_2 N2_2 1_555 1_555
H19_2 C19_2 1_555 1_555
C20_2 C16_2 1_555 1_555
H20_2 C20_2 1_555 1_555
Cu3 O5_2 1_555 1_555
Cu3_2 N1_2 1_555 1_555
C3_2 C4_2 1_555 1_555
C9_2 C10_2 1_555 1_555
O6_2 Cu3 1_555 1_555
C17_2 C18_2 1_555 1_555
C19_2 C20_2 1_555 1_555
O3_2 Cu1_6 1_555 1_555
O4_2 Cu1_6 1_555 1_555
N3_2 Cu1_6 1_555 1_555
O2_3 Cu1_7 1_555 1_555
C4_3 O2_3 1_555 1_555
C5_3 C4_3 1_555 1_555
H4_3 C5_3 1_555 1_555
H5_3 C5_3 1_555 1_555
H6_3 C5_3 1_555 1_555
O3_3 Cu1_8 1_555 1_555
N3_3 Cu1_8 1_555 1_555
Cu1_9 O1_3 1_555 1_555
O1_3 C2_3 1_555 1_555
N1_3 C8_3 1_555 1_555
C1_3 H1_3 1_555 1_555
H2_3 C1_3 1_555 1_555
H3_3 C1_3 1_555 1_555
C2_3 C1_3 1_555 1_555
C3_3 C2_3 1_555 1_555
C6_3 C3_3 1_555 1_555
C7_3 C6_3 1_555 1_555
H7_3 C7_3 1_555 1_555
C8_3 C7_3 1_555 1_555
H8_3 C8_3 1_555 1_555
C9_3 N1_3 1_555 1_555
H9_3 C9_3 1_555 1_555
C10_3 C6_3 1_555 1_555
H10_3 C10_3 1_555 1_555
O5_3 C12_3 1_555 1_555
O6_3 C14_3 1_555 1_555
N2_3 Cu1_9 1_555 1_555
C11_3 H11_3 1_555 1_555
H12_3 C11_3 1_555 1_555
H13_3 C11_3 1_555 1_555
C12_3 C11_3 1_555 1_555
C13_3 C12_3 1_555 1_555
C14_3 C13_3 1_555 1_555
C15_3 C14_3 1_555 1_555
H14_3 C15_3 1_555 1_555
H15_3 C15_3 1_555 1_555
H16_3 C15_3 1_555 1_555
C16_3 C13_3 1_555 1_555
C17_3 C16_3 1_555 1_555
C18_3 N2_3 1_555 1_555
C19_3 N2_3 1_555 1_555
H19_3 C19_3 1_555 1_555
C20_3 C16_3 1_555 1_555
H20_3 C20_3 1_555 1_555
Cu3_2 O5_3 1_555 1_555
Cu2 N1_3 1_555 1_555
C9_3 C10_3 1_555 1_555
O6_3 Cu3_2 1_555 1_555
C17_3 C18_3 1_555 1_555
C19_3 C20_3 1_555 1_555
O4_3 Cu1_10 1_555 1_555
O5_4 C12_4 1_555 1_555
O6_4 C14_4 1_555 1_555
C13_4 C12_4 1_555 1_555
C14_4 C13_4 1_555 1_555
C15_4 C14_4 1_555 1_555
H14_4 C15_4 1_555 1_555
H15_4 C15_4 1_555 1_555
H16_4 C15_4 1_555 1_555
C16_4 C13_4 1_555 1_555
C20_4 C16_4 1_555 1_555
H20_4 C20_4 1_555 1_555
Cu2_2 O5_4 1_555 1_555
O6_4 Cu2_2 1_555 1_555
Cu3_2 O1_4 1_555 1_555
O1_4 C2_4 1_555 1_555
O2_4 Cu3_2 1_555 1_555
N1_4 C8_4 1_555 1_555
C1_4 H1_4 1_555 1_555
H2_4 C1_4 1_555 1_555
H3_4 C1_4 1_555 1_555
C2_4 C1_4 1_555 1_555
C3_4 C2_4 1_555 1_555
C4_4 O2_4 1_555 1_555
C5_4 C4_4 1_555 1_555
H4_4 C5_4 1_555 1_555
H5_4 C5_4 1_555 1_555
H6_4 C5_4 1_555 1_555
C6_4 C3_4 1_555 1_555
C7_4 C6_4 1_555 1_555
H7_4 C7_4 1_555 1_555
C8_4 C7_4 1_555 1_555
H8_4 C8_4 1_555 1_555
C9_4 N1_4 1_555 1_555
H9_4 C9_4 1_555 1_555
C10_4 C6_4 1_555 1_555
H10_4 C10_4 1_555 1_555
N2_4 Cu3_2 1_555 1_555
C11_4 H11_4 1_555 1_555
H12_4 C11_4 1_555 1_555
H13_4 C11_4 1_555 1_555
H17_4 C17_4 1_555 1_555
C18_4 N2_4 1_555 1_555
H18_4 C18_4 1_555 1_555
C19_4 N2_4 1_555 1_555
H19_4 C19_4 1_555 1_555
Cu3_3 N1_4 1_555 1_555
C3_4 C4_4 1_555 1_555
C9_4 C10_4 1_555 1_555
C17_4 C18_4 1_555 1_555
N1_5 C8_5 1_555 1_555
C1_5 H1_5 1_555 1_555
H2_5 C1_5 1_555 1_555
H3_5 C1_5 1_555 1_555
H7_5 C7_5 1_555 1_555
C8_5 C7_5 1_555 1_555
H8_5 C8_5 1_555 1_555
C9_5 N1_5 1_555 1_555
H9_5 C9_5 1_555 1_555
Cu3_4 N1_5 1_555 1_555
Cu2 O1_5 1_555 1_555
O1_5 C2_5 1_555 1_555
O2_5 Cu2 1_555 1_555
C3_5 C2_5 1_555 1_555
C4_5 O2_5 1_555 1_555
C5_5 C4_5 1_555 1_555
H4_5 C5_5 1_555 1_555
H5_5 C5_5 1_555 1_555
H6_5 C5_5 1_555 1_555
C6_5 C3_5 1_555 1_555
C10_5 C6_5 1_555 1_555
H10_5 C10_5 1_555 1_555
N2_5 Cu2 1_555 1_555
C11_5 H11_5 1_555 1_555
H12_5 C11_5 1_555 1_555
H13_5 C11_5 1_555 1_555
H17_5 C17_5 1_555 1_555
C18_5 N2_5 1_555 1_555
H18_5 C18_5 1_555 1_555
C19_5 N2_5 1_555 1_555
H19_5 C19_5 1_555 1_555
C3_5 C4_5 1_555 1_555
C17_5 C18_5 1_555 1_555
O5_5 C12_5 1_555 1_555
O6_5 C14_5 1_555 1_555
C13_5 C12_5 1_555 1_555
C14_5 C13_5 1_555 1_555
C15_5 C14_5 1_555 1_555
H14_5 C15_5 1_555 1_555
H15_5 C15_5 1_555 1_555
H16_5 C15_5 1_555 1_555
C16_5 C13_5 1_555 1_555
C20_5 C16_5 1_555 1_555
H20_5 C20_5 1_555 1_555
Cu3_3 O5_5 1_555 1_555
O6_5 Cu3_3 1_555 1_555
Cu3 O1_6 1_555 1_555
O1_6 C2_6 1_555 1_555
O2_6 Cu3 1_555 1_555
C3_6 C2_6 1_555 1_555
C4_6 O2_6 1_555 1_555
C5_6 C4_6 1_555 1_555
H4_6 C5_6 1_555 1_555
H5_6 C5_6 1_555 1_555
H6_6 C5_6 1_555 1_555
C6_6 C3_6 1_555 1_555
C10_6 C6_6 1_555 1_555
H10_6 C10_6 1_555 1_555
O5_6 C12_6 1_555 1_555
O6_6 C14_6 1_555 1_555
N2_6 Cu3 1_555 1_555
C11_6 H11_6 1_555 1_555
H12_6 C11_6 1_555 1_555
H13_6 C11_6 1_555 1_555
C12_6 C11_6 1_555 1_555
C13_6 C12_6 1_555 1_555
C14_6 C13_6 1_555 1_555
C15_6 C14_6 1_555 1_555
H14_6 C15_6 1_555 1_555
H15_6 C15_6 1_555 1_555
H16_6 C15_6 1_555 1_555
C16_6 C13_6 1_555 1_555
C17_6 C16_6 1_555 1_555
H17_6 C17_6 1_555 1_555
C18_6 N2_6 1_555 1_555
H18_6 C18_6 1_555 1_555
C19_6 N2_6 1_555 1_555
H19_6 C19_6 1_555 1_555
C20_6 C16_6 1_555 1_555
H20_6 C20_6 1_555 1_555
Cu3_4 O5_6 1_555 1_555
C3_6 C4_6 1_555 1_555
O6_6 Cu3_4 1_555 1_555
C17_6 C18_6 1_555 1_555
C19_6 C20_6 1_555 1_555
N1_6 C8_6 1_555 1_555
C1_6 H1_6 1_555 1_555
H2_6 C1_6 1_555 1_555
H3_6 C1_6 1_555 1_555
H7_6 C7_6 1_555 1_555
C8_6 C7_6 1_555 1_555
H8_6 C8_6 1_555 1_555
C9_6 N1_6 1_555 1_555
H9_6 C9_6 1_555 1_555
Cu2_2 N1_6 1_555 1_555
Cu3_4 O1_7 1_555 1_555
O1_7 C2_7 1_555 1_555
O2_7 Cu3_4 1_555 1_555
N3_3 C8_7 1_555 1_555
C1_7 H1_7 1_555 1_555
H2_7 C1_7 1_555 1_555
H3_7 C1_7 1_555 1_555
C2_7 C1_7 1_555 1_555
C3_7 C2_7 1_555 1_555
C4_7 O2_7 1_555 1_555
C5_7 C4_7 1_555 1_555
H4_7 C5_7 1_555 1_555
H5_7 C5_7 1_555 1_555
H6_7 C5_7 1_555 1_555
C6_7 C3_7 1_555 1_555
C7_7 C6_7 1_555 1_555
C8_7 C7_7 1_555 1_555
C9_7 N3_3 1_555 1_555
H9_7 C9_7 1_555 1_555
C10_7 C6_7 1_555 1_555
H10_7 C10_7 1_555 1_555
O3_2 C12_7 1_555 1_555
O4_2 C14_7 1_555 1_555
N2_7 Cu3_4 1_555 1_555
C11_7 H11_7 1_555 1_555
H12_7 C11_7 1_555 1_555
H13_7 C11_7 1_555 1_555
C12_7 C11_7 1_555 1_555
C13_7 C12_7 1_555 1_555
C14_7 C13_7 1_555 1_555
C15_7 C14_7 1_555 1_555
H14_7 C15_7 1_555 1_555
H15_7 C15_7 1_555 1_555
H16_7 C15_7 1_555 1_555
C16_7 C13_7 1_555 1_555
C17_7 C16_7 1_555 1_555
H17_7 C17_7 1_555 1_555
C18_7 N2_7 1_555 1_555
H18_7 C18_7 1_555 1_555
C19_7 N2_7 1_555 1_555
H19_7 C19_7 1_555 1_555
C20_7 C16_7 1_555 1_555
H20_7 C20_7 1_555 1_555
C3_7 C4_7 1_555 1_555
C9_7 C10_7 1_555 1_555
C17_7 C18_7 1_555 1_555
C19_7 C20_7 1_555 1_555
C4_8 O4 1_555 1_555
C5_8 C4_8 1_555 1_555
H4_8 C5_8 1_555 1_555
H5_8 C5_8 1_555 1_555
H6_8 C5_8 1_555 1_555
O3 C2_8 1_555 1_555
N1_7 C8_8 1_555 1_555
C1_8 H1_8 1_555 1_555
H2_8 C1_8 1_555 1_555
H3_8 C1_8 1_555 1_555
C2_8 C1_8 1_555 1_555
C3_8 C2_8 1_555 1_555
C6_8 C3_8 1_555 1_555
C7_8 C6_8 1_555 1_555
H7_8 C7_8 1_555 1_555
C8_8 C7_8 1_555 1_555
H8_8 C8_8 1_555 1_555
C9_8 N1_7 1_555 1_555
H9_8 C9_8 1_555 1_555
C10_8 C6_8 1_555 1_555
H10_8 C10_8 1_555 1_555
O5_7 C12_8 1_555 1_555
O6_7 C14_8 1_555 1_555
C11_8 H11_8 1_555 1_555
H12_8 C11_8 1_555 1_555
H13_8 C11_8 1_555 1_555
C12_8 C11_8 1_555 1_555
C13_8 C12_8 1_555 1_555
C14_8 C13_8 1_555 1_555
C15_8 C14_8 1_555 1_555
H14_8 C15_8 1_555 1_555
H15_8 C15_8 1_555 1_555
H16_8 C15_8 1_555 1_555
C16_8 C13_8 1_555 1_555
C17_8 C16_8 1_555 1_555
C18_8 N3 1_555 1_555
C19_8 N3 1_555 1_555
H19_8 C19_8 1_555 1_555
C20_8 C16_8 1_555 1_555
H20_8 C20_8 1_555 1_555
Cu2_2 O5_7 1_555 1_555
Cu3_3 N1_7 1_555 1_555
C9_8 C10_8 1_555 1_555
O6_7 Cu2_2 1_555 1_555
C17_8 C18_8 1_555 1_555
C19_8 C20_8 1_555 1_555
O5_8 C12_9 1_555 1_555
O6_8 C14_9 1_555 1_555
C11_9 H11_9 1_555 1_555
H12_9 C11_9 1_555 1_555
H13_9 C11_9 1_555 1_555
C12_9 C11_9 1_555 1_555
C13_9 C12_9 1_555 1_555
C14_9 C13_9 1_555 1_555
C15_9 C14_9 1_555 1_555
H14_9 C15_9 1_555 1_555
H15_9 C15_9 1_555 1_555
H16_9 C15_9 1_555 1_555
C16_9 C13_9 1_555 1_555
C17_9 C16_9 1_555 1_555
H17_9 C17_9 1_555 1_555
C18_9 N3_2 1_555 1_555
H18_9 C18_9 1_555 1_555
C19_9 N3_2 1_555 1_555
H19_9 C19_9 1_555 1_555
C20_9 C16_9 1_555 1_555
H20_9 C20_9 1_555 1_555
Cu3_3 O5_8 1_555 1_555
O6_8 Cu3_3 1_555 1_555
C17_9 C18_9 1_555 1_555
C19_9 C20_9 1_555 1_555
O3_3 C2_9 1_555 1_555
N1_8 C8_9 1_555 1_555
C1_9 H1_9 1_555 1_555
H2_9 C1_9 1_555 1_555
H3_9 C1_9 1_555 1_555
C2_9 C1_9 1_555 1_555
C3_9 C2_9 1_555 1_555
C6_9 C3_9 1_555 1_555
C7_9 C6_9 1_555 1_555
H7_9 C7_9 1_555 1_555
C8_9 C7_9 1_555 1_555
H8_9 C8_9 1_555 1_555
C9_9 N1_8 1_555 1_555
H9_9 C9_9 1_555 1_555
C10_9 C6_9 1_555 1_555
H10_9 C10_9 1_555 1_555
Cu2_2 N1_8 1_555 1_555
C9_9 C10_9 1_555 1_555
C4_9 O4_3 1_555 1_555
C5_9 C4_9 1_555 1_555
H4_9 C5_9 1_555 1_555
H5_9 C5_9 1_555 1_555
H6_9 C5_9 1_555 1_555
Cu1_11 O1_8 1_555 1_555
O1_8 C2_10 1_555 1_555
N1_9 C8_10 1_555 1_555
C1_10 H1_10 1_555 1_555
H2_10 C1_10 1_555 1_555
H3_10 C1_10 1_555 1_555
C2_10 C1_10 1_555 1_555
C3_10 C2_10 1_555 1_555
C6_10 C3_10 1_555 1_555
C7_10 C6_10 1_555 1_555
H7_10 C7_10 1_555 1_555
C8_10 C7_10 1_555 1_555
H8_10 C8_10 1_555 1_555
C9_10 N1_9 1_555 1_555
H9_10 C9_10 1_555 1_555
C10_10 C6_10 1_555 1_555
H10_10 C10_10 1_555 1_555
O4_4 Cu1_11 1_555 1_555
O5_9 C12_10 1_555 1_555
O6_9 C14_10 1_555 1_555
N2_8 Cu1_11 1_555 1_555
C11_10 H11_10 1_555 1_555
H12_10 C11_10 1_555 1_555
H13_10 C11_10 1_555 1_555
C12_10 C11_10 1_555 1_555
C13_10 C12_10 1_555 1_555
C14_10 C13_10 1_555 1_555
C15_10 C14_10 1_555 1_555
H14_10 C15_10 1_555 1_555
H15_10 C15_10 1_555 1_555
H16_10 C15_10 1_555 1_555
C16_10 C13_10 1_555 1_555
C17_10 C16_10 1_555 1_555
C18_10 N2_8 1_555 1_555
C19_10 N2_8 1_555 1_555
H19_10 C19_10 1_555 1_555
C20_10 C16_10 1_555 1_555
H20_10 C20_10 1_555 1_555
Cu2_3 O5_9 1_555 1_555
Cu3_5 N1_9 1_555 1_555
C9_10 C10_10 1_555 1_555
O6_9 Cu2_3 1_555 1_555
C17_10 C18_10 1_555 1_555
C19_10 C20_10 1_555 1_555
O2_8 Cu1_12 1_555 1_555
C4_10 O2_8 1_555 1_555
C5_10 C4_10 1_555 1_555
H4_10 C5_10 1_555 1_555
H5_10 C5_10 1_555 1_555
H6_10 C5_10 1_555 1_555
O3_4 Cu1_12 1_555 1_555
N3_4 Cu1_12 1_555 1_555
Cu1_13 O1_9 1_555 1_555
O1_9 C2_11 1_555 1_555
O2_9 Cu1_13 1_555 1_555
N1_10 C8_11 1_555 1_555
C1_11 H1_11 1_555 1_555
H2_11 C1_11 1_555 1_555
H3_11 C1_11 1_555 1_555
C2_11 C1_11 1_555 1_555
C3_11 C2_11 1_555 1_555
C4_11 O2_9 1_555 1_555
C5_11 C4_11 1_555 1_555
H4_11 C5_11 1_555 1_555
H5_11 C5_11 1_555 1_555
H6_11 C5_11 1_555 1_555
C6_11 C3_11 1_555 1_555
C7_11 C6_11 1_555 1_555
C8_11 C7_11 1_555 1_555
C9_11 N1_10 1_555 1_555
H9_11 C9_11 1_555 1_555
C10_11 C6_11 1_555 1_555
H10_11 C10_11 1_555 1_555
O3_5 Cu1_13 1_555 1_555
O4_5 Cu1_13 1_555 1_555
O5_10 C12_11 1_555 1_555
O6_10 C14_11 1_555 1_555
N2_9 Cu1_13 1_555 1_555
C11_11 H11_11 1_555 1_555
H12_11 C11_11 1_555 1_555
H13_11 C11_11 1_555 1_555
C12_11 C11_11 1_555 1_555
C13_11 C12_11 1_555 1_555
C14_11 C13_11 1_555 1_555
C15_11 C14_11 1_555 1_555
H14_11 C15_11 1_555 1_555
H15_11 C15_11 1_555 1_555
H16_11 C15_11 1_555 1_555
C16_11 C13_11 1_555 1_555
C17_11 C16_11 1_555 1_555
H17_11 C17_11 1_555 1_555
C18_11 N2_9 1_555 1_555
H18_11 C18_11 1_555 1_555
C19_11 N2_9 1_555 1_555
H19_11 C19_11 1_555 1_555
C20_11 C16_11 1_555 1_555
H20_11 C20_11 1_555 1_555
N3_5 Cu1_13 1_555 1_555
Cu2_4 O5_10 1_555 1_555
Cu3_6 N1_10 1_555 1_555
C3_11 C4_11 1_555 1_555
C9_11 C10_11 1_555 1_555
O6_10 Cu2_4 1_555 1_555
C17_11 C18_11 1_555 1_555
C19_11 C20_11 1_555 1_555
O5_11 C12_12 1_555 1_555
O6_11 C14_12 1_555 1_555
C13_12 C12_12 1_555 1_555
C14_12 C13_12 1_555 1_555
C15_12 C14_12 1_555 1_555
H14_12 C15_12 1_555 1_555
H16_12 C15_12 1_555 1_555
C16_12 C13_12 1_555 1_555
Cu2_5 O5_11 1_555 1_555
O6_11 Cu2_5 1_555 1_555
Cu1_14 O1_10 1_555 1_555
O1_10 C2_12 1_555 1_555
O2_10 Cu1_14 1_555 1_555
C1_12 H1_12 1_555 1_555
H2_12 C1_12 1_555 1_555
H3_12 C1_12 1_555 1_555
C2_12 C1_12 1_555 1_555
C3_12 C2_12 1_555 1_555
C4_12 O2_10 1_555 1_555
C5_12 C4_12 1_555 1_555
H4_12 C5_12 1_555 1_555
H6_12 C5_12 1_555 1_555
C6_12 C3_12 1_555 1_555
O3_6 Cu1_14 1_555 1_555
O4_6 Cu1_14 1_555 1_555
N2_10 Cu1_14 1_555 1_555
C18_12 N2_10 1_555 1_555
H18_12 C18_12 1_555 1_555
C19_12 N2_10 1_555 1_555
H19_12 C19_12 1_555 1_555
N3_6 Cu1_14 1_555 1_555
C3_12 C4_12 1_555 1_555
C17_12 C18_12 1_555 1_555
N1_11 C8_12 1_555 1_555
C8_12 C7_12 1_555 1_555
H8_12 C8_12 1_555 1_555
C9_12 N1_11 1_555 1_555
H9_12 C9_12 1_555 1_555
H10_12 C10_12 1_555 1_555
C11_12 H11_12 1_555 1_555
H12_12 C11_12 1_555 1_555
H13_12 C11_12 1_555 1_555
Cu3_8 N1_11 1_555 1_555
C9_12 C10_12 1_555 1_555
O3_7 Cu2_4 1_555 1_555
O4_7 Cu2_4 1_555 1_555
O5_12 C12_13 1_555 1_555
O6_12 C14_13 1_555 1_555
N2_11 Cu2_4 1_555 1_555
C11_13 H11_13 1_555 1_555
H12_13 C11_13 1_555 1_555
H13_13 C11_13 1_555 1_555
C12_13 C11_13 1_555 1_555
C13_13 C12_13 1_555 1_555
C14_13 C13_13 1_555 1_555
C15_13 C14_13 1_555 1_555
H14_13 C15_13 1_555 1_555
H15_12 C15_13 1_555 1_555
H16_13 C15_13 1_555 1_555
C16_13 C13_13 1_555 1_555
C17_13 C16_13 1_555 1_555
H17_13 C17_13 1_555 1_555
C18_13 N2_11 1_555 1_555
H18_13 C18_13 1_555 1_555
C19_13 N2_11 1_555 1_555
H19_13 C19_13 1_555 1_555
C20_12 C16_13 1_555 1_555
H20_12 C20_12 1_555 1_555
N3_7 Cu2_4 1_555 1_555
Cu3_8 O5_12 1_555 1_555
O6_12 Cu3_8 1_555 1_555
C17_13 C18_13 1_555 1_555
C19_13 C20_12 1_555 1_555
Cu3_6 O1_11 1_555 1_555
O1_11 C2_13 1_555 1_555
N1_12 C8_13 1_555 1_555
C1_13 H1_13 1_555 1_555
H2_13 C1_13 1_555 1_555
H3_13 C1_13 1_555 1_555
C2_13 C1_13 1_555 1_555
C3_13 C2_13 1_555 1_555
C6_13 C3_13 1_555 1_555
C7_13 C6_13 1_555 1_555
H7_13 C7_13 1_555 1_555
C8_13 C7_13 1_555 1_555
H8_13 C8_13 1_555 1_555
C9_13 N1_12 1_555 1_555
H9_13 C9_13 1_555 1_555
C10_13 C6_13 1_555 1_555
H10_13 C10_13 1_555 1_555
O4_8 Cu3_6 1_555 1_555
Cu2_5 N1_12 1_555 1_555
C9_13 C10_13 1_555 1_555
O2_11 Cu3_7 1_555 1_555
C4_13 O2_11 1_555 1_555
C5_13 C4_13 1_555 1_555
H4_13 C5_13 1_555 1_555
H5_13 C5_13 1_555 1_555
H6_13 C5_13 1_555 1_555
O3_8 Cu3_7 1_555 1_555
N3_8 Cu3_7 1_555 1_555
O5_13 C12_14 1_555 1_555
O6_13 C14_14 1_555 1_555
C13_14 C12_14 1_555 1_555
C14_14 C13_14 1_555 1_555
C15_14 C14_14 1_555 1_555
H14_14 C15_14 1_555 1_555
H16_14 C15_14 1_555 1_555
C16_14 C13_14 1_555 1_555
Cu3_5 O5_13 1_555 1_555
O6_13 Cu3_5 1_555 1_555
H20_13 C20_13 1_555 1_555
O3_9 Cu2_5 1_555 1_555
O4_9 Cu2_5 1_555 1_555
N2_12 Cu2_5 1_555 1_555
C18_14 N2_12 1_555 1_555
H18_14 C18_14 1_555 1_555
C19_14 N2_12 1_555 1_555
H19_14 C19_14 1_555 1_555
C17_14 C18_14 1_555 1_555
N1_13 C8_14 1_555 1_555
C8_14 C7_14 1_555 1_555
H8_14 C8_14 1_555 1_555
C9_14 N1_13 1_555 1_555
H9_14 C9_14 1_555 1_555
Cu2_3 N1_13 1_555 1_555
H10_14 C10_14 1_555 1_555
Cu3_8 O1_12 1_555 1_555
O1_12 C2_14 1_555 1_555
O2_12 Cu3_8 1_555 1_555
C3_14 C2_14 1_555 1_555
C4_14 O2_12 1_555 1_555
C5_14 C4_14 1_555 1_555
H4_14 C5_14 1_555 1_555
H6_14 C5_14 1_555 1_555
C6_14 C3_14 1_555 1_555
N3_9 Cu3_8 1_555 1_555
C3_14 C4_14 1_555 1_555
O4_8 C14_15 1_555 1_555
C15_15 C14_15 1_555 1_555
H14_15 C15_15 1_555 1_555
H15_14 C15_15 1_555 1_555
H16_15 C15_15 1_555 1_555
O3_10 Cu2_3 1_555 1_555
O4_10 Cu2_3 1_555 1_555
O3_8 C12_15 1_555 1_555
N2_13 Cu2_3 1_555 1_555
C11_14 H11_14 1_555 1_555
H12_14 C11_14 1_555 1_555
H13_14 C11_14 1_555 1_555
C12_15 C11_14 1_555 1_555
C13_15 C12_15 1_555 1_555
C16_15 C13_15 1_555 1_555
C17_15 C16_15 1_555 1_555
H17_14 C17_15 1_555 1_555
C18_15 N2_13 1_555 1_555
H18_15 C18_15 1_555 1_555
C19_15 N2_13 1_555 1_555
H19_15 C19_15 1_555 1_555
C20_14 C16_15 1_555 1_555
H20_14 C20_14 1_555 1_555
C17_15 C18_15 1_555 1_555
C19_15 C20_14 1_555 1_555
Cu3_5 O1_13 1_555 1_555
O1_13 C2_15 1_555 1_555
O2_13 Cu3_5 1_555 1_555
N3_7 C8_15 1_555 1_555
C1_14 H1_14 1_555 1_555
H2_14 C1_14 1_555 1_555
H3_14 C1_14 1_555 1_555
C2_15 C1_14 1_555 1_555
C3_15 C2_15 1_555 1_555
C4_15 O2_13 1_555 1_555
C5_15 C4_15 1_555 1_555
H4_15 C5_15 1_555 1_555
H5_15 C5_15 1_555 1_555
H6_15 C5_15 1_555 1_555
C6_15 C3_15 1_555 1_555
C7_15 C6_15 1_555 1_555
H7_14 C7_15 1_555 1_555
C8_15 C7_15 1_555 1_555
H8_15 C8_15 1_555 1_555
C9_15 N3_7 1_555 1_555
H9_15 C9_15 1_555 1_555
C10_15 C6_15 1_555 1_555
H10_15 C10_15 1_555 1_555
N3_10 Cu3_5 1_555 1_555
C3_15 C4_15 1_555 1_555
C9_15 C10_15 1_555 1_555
C4_16 O4_4 1_555 1_555
C5_16 C4_16 1_555 1_555
H4_16 C5_16 1_555 1_555
H5_16 C5_16 1_555 1_555
H6_16 C5_16 1_555 1_555
O3_4 C2_16 1_555 1_555
N3_9 C8_16 1_555 1_555
C1_15 H1_15 1_555 1_555
H2_15 C1_15 1_555 1_555
H3_15 C1_15 1_555 1_555
C2_16 C1_15 1_555 1_555
C3_16 C2_16 1_555 1_555
C6_16 C3_16 1_555 1_555
C7_16 C6_16 1_555 1_555
H7_15 C7_16 1_555 1_555
C8_16 C7_16 1_555 1_555
H8_16 C8_16 1_555 1_555
C9_16 N3_9 1_555 1_555
H9_16 C9_16 1_555 1_555
C10_16 C6_16 1_555 1_555
H10_16 C10_16 1_555 1_555
O3_9 C12_16 1_555 1_555
O4_9 C14_16 1_555 1_555
C11_15 H11_15 1_555 1_555
H12_15 C11_15 1_555 1_555
H13_15 C11_15 1_555 1_555
C12_16 C11_15 1_555 1_555
C13_16 C12_16 1_555 1_555
C14_16 C13_16 1_555 1_555
C15_16 C14_16 1_555 1_555
H14_16 C15_16 1_555 1_555
H15_15 C15_16 1_555 1_555
H16_16 C15_16 1_555 1_555
C16_16 C13_16 1_555 1_555
C17_16 C16_16 1_555 1_555
C18_16 N3_4 1_555 1_555
C19_16 N3_4 1_555 1_555
H19_16 C19_16 1_555 1_555
C20_15 C16_16 1_555 1_555
H20_15 C20_15 1_555 1_555
C9_16 C10_16 1_555 1_555
C17_16 C18_16 1_555 1_555
C19_16 C20_15 1_555 1_555
O3_6 C2_17 1_555 1_555
N3_8 C8_17 1_555 1_555
C1_16 H1_16 1_555 1_555
H2_16 C1_16 1_555 1_555
H3_16 C1_16 1_555 1_555
C2_17 C1_16 1_555 1_555
C3_17 C2_17 1_555 1_555
C4_17 O4_6 1_555 1_555
C5_17 C4_17 1_555 1_555
H4_17 C5_17 1_555 1_555
H5_17 C5_17 1_555 1_555
H6_17 C5_17 1_555 1_555
C6_17 C3_17 1_555 1_555
C7_17 C6_17 1_555 1_555
C8_17 C7_17 1_555 1_555
C9_17 N3_8 1_555 1_555
H9_17 C9_17 1_555 1_555
C10_17 C6_17 1_555 1_555
H10_17 C10_17 1_555 1_555
O3_7 C12_17 1_555 1_555
O4_7 C14_17 1_555 1_555
C11_16 H11_16 1_555 1_555
H12_16 C11_16 1_555 1_555
H13_16 C11_16 1_555 1_555
C12_17 C11_16 1_555 1_555
C13_17 C12_17 1_555 1_555
C14_17 C13_17 1_555 1_555
C15_17 C14_17 1_555 1_555
H14_17 C15_17 1_555 1_555
H15_16 C15_17 1_555 1_555
H16_17 C15_17 1_555 1_555
C16_17 C13_17 1_555 1_555
C17_17 C16_17 1_555 1_555
H17_16 C17_17 1_555 1_555
C18_17 N3_6 1_555 1_555
H18_17 C18_17 1_555 1_555
C19_17 N3_6 1_555 1_555
H19_17 C19_17 1_555 1_555
C20_16 C16_17 1_555 1_555
H20_16 C20_16 1_555 1_555
C3_17 C4_17 1_555 1_555
C9_17 C10_17 1_555 1_555
C17_17 C18_17 1_555 1_555
C19_17 C20_16 1_555 1_555
N3_10 C8_18 1_555 1_555
C8_18 C7_18 1_555 1_555
H8_18 C8_18 1_555 1_555
C9_18 N3_10 1_555 1_555
H9_18 C9_18 1_555 1_555
H10_18 C10_18 1_555 1_555
C11_17 H11_17 1_555 1_555
H12_17 C11_17 1_555 1_555
H13_17 C11_17 1_555 1_555
C9_18 C10_18 1_555 1_555
O3_5 C2_18 1_555 1_555
C1_17 H1_17 1_555 1_555
H2_17 C1_17 1_555 1_555
H3_17 C1_17 1_555 1_555
C2_18 C1_17 1_555 1_555
C3_18 C2_18 1_555 1_555
C4_18 O4_5 1_555 1_555
C5_18 C4_18 1_555 1_555
H4_18 C5_18 1_555 1_555
H6_18 C5_18 1_555 1_555
C6_18 C3_18 1_555 1_555
C18_18 N3_5 1_555 1_555
H18_18 C18_18 1_555 1_555
C19_18 N3_5 1_555 1_555
H19_18 C19_18 1_555 1_555
C3_18 C4_18 1_555 1_555
C17_18 C18_18 1_555 1_555
O3_10 C12_18 1_555 1_555
O4_10 C14_18 1_555 1_555
C13_18 C12_18 1_555 1_555
C14_18 C13_18 1_555 1_555
C15_18 C14_18 1_555 1_555
H14_18 C15_18 1_555 1_555
H16_18 C15_18 1_555 1_555
C16_18 C13_18 1_555 1_555
H20_17 C20_17 1_555 1_555
C11_18 H11_18 1_555 1_555
H12_18 C11_18 1_555 1_555
H13_18 C11_18 1_555 1_555
C1_18 H1_18 1_555 1_555
H2_18 C1_18 1_555 1_555
H3_18 C1_18 1_555 1_555
H20_18 C20_18 1_555 1_555

#END
