
###############################################################################
#
# This file contains modified crystal structure data generated from the
# MOF subset of the Cambridge Structural Database (CSD) v543 
# hosted by the Cambridge Crystallographic Data Centre (CCDC).
#
# This work is licensed under the Creative Commons
# Attribution-NonCommercial-ShareAlike 4.0 International License.
# To view a copy of this license, visit
# http://creativecommons.org/licenses/by-nc-sa/4.0/
# or send a letter to
# Creative Commons, PO Box 1866, Mountain View, CA 94042, USA.
#
# CIF created using the CSD Python API on 29 September 2022
# The structure has been converted into the P1 space group
# The structure has a 3D framework
# The original CSD entry ELAFUT is in the triclinic crystal system
# The framework has been calculated to contain at least 10.0% void space
# The void calculation uses a probe of radius 1.32A, grid spacing 0.4
#
###############################################################################

data_ELAFUT
_chemical_formula_moiety         '(C36 H36 Cd4 N6 O18 S6)n'
_symmetry_cell_setting           triclinic
_symmetry_space_group_name_H-M   'P 1'
_symmetry_Int_Tables_number      1
_space_group_name_Hall           'P 1'
loop_
_symmetry_equiv_pos_site_id
_symmetry_equiv_pos_as_xyz
1 x,y,z
_cell_length_a                   8.4243(9)
_cell_length_b                   11.6368(12)
_cell_length_c                   15.7095(16)
_cell_angle_alpha                95.4940(10)
_cell_angle_beta                 104.7250(10)
_cell_angle_gamma                99.1220(10)
_cell_volume                     1455.62
loop_
_atom_site_label
_atom_site_type_symbol
_atom_site_fract_x
_atom_site_fract_y
_atom_site_fract_z
Cd5 Cd 0.5000 0.5000 0.0000
Cd5_2 Cd 0.5000 0.5000 1.0000
Cd11 Cd 0.523256(19) 0.550080(13) 0.676174(10)
S6 S 0.20243(7) 0.46992(5) 0.77919(3)
O19 O 0.2964(2) 0.44546(15) 0.86532(10)
O22 O 0.3058(2) 0.55175(15) 0.74050(12)
O25 O 0.1145(2) 0.36448(14) 0.71950(10)
H22 H 0.0166 0.4509 0.9019
C21 C 0.0503(3) 0.5486(2) 0.80172(15)
H24 H 0.1068 0.6257 0.8376
N3 N 0.4556(2) 0.25077(16) 0.31465(12)
C9 C 0.4302(3) 0.00538(19) 0.30535(14)
C10 C 0.3851(3) 0.0714(2) 0.37123(15)
H11 H 0.3445 0.0336 0.4145
C11 C 0.4848(3) 0.0680(2) 0.24298(15)
H12 H 0.5145 0.0274 0.1957
C12 C 0.3991(3) 0.1912(2) 0.37370(15)
H13 H 0.3674 0.2339 0.4193
C18 C 0.4955(3) 0.1882(2) 0.24994(15)
H18 H 0.5330 0.2284 0.2067
Cd9 Cd 0.476744(19) 0.449920(13) 0.323826(10)
C32 C 0.6482(3) 0.1443(2) 0.00800(15)
H33 H 0.7516 0.1183 0.0155
C35 C 0.6429(3) 0.2621(2) 0.00600(15)
H35 H 0.7443 0.3154 0.0121
N4 N 0.5010(2) 0.30495(16) 0.99588(12)
C31 C 0.3531(3) 0.1088(2) 0.98636(15)
H32 H 0.2492 0.0577 0.9787
C33 C 0.5004(3) 0.06320(19) 0.99885(14)
C34 C 0.3589(3) 0.2274(2) 0.98515(15)
H34 H 0.2572 0.2558 0.9763
S1 S 0.22371(7) 0.44746(5) 0.47608(3)
S2 S 0.17708(6) 0.42777(5) 0.10648(3)
O1 O 0.25217(19) 0.43635(14) 0.38788(10)
O2 O 0.2153(2) 0.33925(15) 0.51353(11)
O3 O 0.34285(19) 0.54641(14) 0.53633(10)
O4 O 0.2789(2) 0.50316(15) 0.06300(11)
O5 O 0.2791(2) 0.38616(15) 0.18256(10)
O6 O 0.05828(19) 0.33351(14) 0.04503(10)
N1 N 0.4990(2) 0.69505(16) 0.00412(12)
N2 N 0.4497(2) 0.63981(16) 0.31202(12)
C1 C 0.0249(3) 0.4898(2) 0.45709(14)
H1 H 0.0285 0.5629 0.4295
C2 C 0.0563(3) 0.5200(2) 0.14805(15)
H3 H 0.1314 0.5888 0.1883
H5 H 0.0223 0.4368 0.2549
C4 C 0.4814(3) 0.6941(2) 0.24486(14)
H7 H 0.5124 0.6506 0.1994
C5 C 0.4036(3) 0.7036(2) 0.37454(15)
H8 H 0.3801 0.6667 0.4225
C6 C 0.3887(3) 0.8197(2) 0.37271(15)
H9 H 0.3526 0.8601 0.4177
C7 C 0.4711(3) 0.8103(2) 0.23876(14)
H10 H 0.4942 0.8445 0.1896
C8 C 0.4270(3) 0.87797(19) 0.30402(14)
C13 C 0.6469(3) 0.8912(2) 0.01364(15)
H14 H 0.7508 0.9423 0.0213
C15 C 0.4996(3) 0.93680(19) 0.00115(14)
C16 C 0.6411(3) 0.7726(2) 0.01485(15)
H16 H 0.7428 0.7442 0.0237
O14 O 0.65715(19) 0.45359(14) 0.46367(10)
O20 O 0.7036(2) 0.55454(15) 0.13468(10)
O23 O 0.6942(2) 0.44825(15) 0.25950(12)
H20 H 0.0605 0.5725 0.5849
C14 C 0.3518(3) 0.8557(2) 0.99200(15)
H15 H 0.2484 0.8817 0.9845
C17 C 0.3571(3) 0.7379(2) 0.99400(15)
H17 H 0.2557 0.6846 0.9879
S5 S 0.82292(6) 0.57223(5) 0.89352(3)
O11 O 0.74783(19) 0.56365(14) 0.61212(10)
O16 O 0.7211(2) 0.49684(15) 0.93700(11)
O17 O 0.7209(2) 0.61384(15) 0.81744(10)
O18 O 0.94172(19) 0.66649(14) 0.95497(10)
N7 N 0.5503(2) 0.36019(16) 0.68798(12)
N9 N 0.5444(2) 0.74923(16) 0.68535(12)
C20 C 0.9437(3) 0.4800(2) 0.85195(15)
H21 H 0.8686 0.4112 0.8117
H23 H 0.9777 0.5632 0.7451
S3 S 0.79757(7) 0.53008(5) 0.22081(3)
O9 O 0.8855(2) 0.63552(14) 0.28050(10)
H2 H 0.9395 0.4275 0.4151
H4 H 0.9834 0.5491 0.0981
C3 C 0.9497(3) 0.4514(2) 0.19828(15)
H6 H 0.8932 0.3743 0.1624
S4 S 0.77629(7) 0.55254(5) 0.52392(3)
O12 O 0.7847(2) 0.66075(15) 0.48647(11)
C19 C 0.9751(3) 0.5102(2) 0.54291(14)
H19 H 0.9715 0.4371 0.5705
C22 C 0.5186(3) 0.3059(2) 0.75514(14)
H25 H 0.4876 0.3494 0.8006
C23 C 0.5964(3) 0.2964(2) 0.62546(15)
H26 H 0.6199 0.3333 0.5775
C24 C 0.6113(3) 0.1803(2) 0.62729(15)
H27 H 0.6474 0.1399 0.5823
C25 C 0.5289(3) 0.1897(2) 0.76124(14)
H28 H 0.5058 0.1555 0.8104
C26 C 0.5730(3) 0.12203(19) 0.69598(14)
C27 C 0.5698(3) 0.99462(19) 0.69465(14)
C28 C 0.6149(3) 0.9286(2) 0.62877(15)
H29 H 0.6555 0.9664 0.5855
C29 C 0.5152(3) 0.9320(2) 0.75702(15)
H30 H 0.4855 0.9726 0.8043
C30 C 0.6009(3) 0.8088(2) 0.62630(15)
H31 H 0.6326 0.7661 0.5807
C36 C 0.5045(3) 0.8118(2) 0.75006(15)
H36 H 0.4670 0.7716 0.7933
loop_
_geom_bond_atom_site_label_1
_geom_bond_atom_site_label_2
_geom_bond_site_symmetry_1
_geom_bond_site_symmetry_2
Cd5_2 O19 1_555 1_555
Cd11 O22 1_555 1_555
S6 O19 1_555 1_555
O22 S6 1_555 1_555
O25 S6 1_555 1_555
C21 S6 1_555 1_555
H24 C21 1_555 1_555
N3 C12 1_555 1_555
C10 C9 1_555 1_555
H11 C10 1_555 1_555
C11 C9 1_555 1_555
H12 C11 1_555 1_555
C12 C10 1_555 1_555
H13 C12 1_555 1_555
C18 N3 1_555 1_555
H18 C18 1_555 1_555
Cd9 N3 1_555 1_555
C32 H33 1_555 1_555
H35 C35 1_555 1_555
C11 C18 1_555 1_555
C32 C35 1_555 1_555
Cd5_2 N4 1_555 1_555
N4 C34 1_555 1_555
C31 H32 1_555 1_555
C34 C31 1_555 1_555
H34 C34 1_555 1_555
C31 C33 1_555 1_555
Cd5 O4 1_555 1_555
Cd9 O1 1_555 1_555
S1 O1 1_555 1_555
S2 O4 1_555 1_555
O2 S1 1_555 1_555
O3 S1 1_555 1_555
O5 Cd9 1_555 1_555
O6 S2 1_555 1_555
N1 Cd5 1_555 1_555
N2 Cd9 1_555 1_555
C1 S1 1_555 1_555
H1 C1 1_555 1_555
C2 S2 1_555 1_555
H3 C2 1_555 1_555
C4 N2 1_555 1_555
H7 C4 1_555 1_555
C5 N2 1_555 1_555
H8 C5 1_555 1_555
C6 C5 1_555 1_555
H9 C6 1_555 1_555
C7 C4 1_555 1_555
H10 C7 1_555 1_555
C8 C6 1_555 1_555
C13 H14 1_555 1_555
C15 C13 1_555 1_555
C16 N1 1_555 1_555
H16 C16 1_555 1_555
Cd11 O3 1_555 1_555
O14 Cd9 1_555 1_555
O20 Cd5 1_555 1_555
O23 Cd9 1_555 1_555
S2 O5 1_555 1_555
C7 C8 1_555 1_555
C13 C16 1_555 1_555
C14 H15 1_555 1_555
H17 C17 1_555 1_555
Cd11 O11 1_555 1_555
S5 O16 1_555 1_555
O16 Cd5_2 1_555 1_555
O17 Cd11 1_555 1_555
O18 S5 1_555 1_555
N7 Cd11 1_555 1_555
N9 Cd11 1_555 1_555
C20 S5 1_555 1_555
H21 C20 1_555 1_555
C14 C17 1_555 1_555
S5 O17 1_555 1_555
S3 O20 1_555 1_555
O23 S3 1_555 1_555
O9 S3 1_555 1_555
C3 S3 1_555 1_555
H6 C3 1_555 1_555
S4 O11 1_555 1_555
O12 S4 1_555 1_555
H19 C19 1_555 1_555
S4 O14 1_555 1_555
S4 C19 1_555 1_555
N7 C22 1_555 1_555
C22 H25 1_555 1_555
C23 N7 1_555 1_555
H26 C23 1_555 1_555
C24 C23 1_555 1_555
H27 C24 1_555 1_555
C25 C22 1_555 1_555
H28 C25 1_555 1_555
C26 C24 1_555 1_555
C25 C26 1_555 1_555
C28 C27 1_555 1_555
H29 C28 1_555 1_555
C29 C27 1_555 1_555
H30 C29 1_555 1_555
C30 N9 1_555 1_555
H31 C30 1_555 1_555
C36 N9 1_555 1_555
H36 C36 1_555 1_555
C28 C30 1_555 1_555
C29 C36 1_555 1_555

#END
