
###############################################################################
#
# This file contains modified crystal structure data generated from the
# MOF subset of the Cambridge Structural Database (CSD) v543 
# hosted by the Cambridge Crystallographic Data Centre (CCDC).
#
# This work is licensed under the Creative Commons
# Attribution-NonCommercial-ShareAlike 4.0 International License.
# To view a copy of this license, visit
# http://creativecommons.org/licenses/by-nc-sa/4.0/
# or send a letter to
# Creative Commons, PO Box 1866, Mountain View, CA 94042, USA.
#
# CIF created using the CSD Python API on 29 September 2022
# The structure has been converted into the P1 space group
# The structure has a 3D framework
# The original CSD entry ELIJUF is in the triclinic crystal system
# The framework has been calculated to contain at least 10.0% void space
# The void calculation uses a probe of radius 1.32A, grid spacing 0.4
# H atom positions have been added when not included in the experimental data
#
###############################################################################

data_ELIJUF
_chemical_formula_moiety         '(C30 H22 O16 Y2)n'
_symmetry_cell_setting           triclinic
_symmetry_space_group_name_H-M   'P 1'
_symmetry_Int_Tables_number      1
_space_group_name_Hall           'P 1'
loop_
_symmetry_equiv_pos_site_id
_symmetry_equiv_pos_as_xyz
1 x,y,z
_cell_length_a                   9.3530(16)
_cell_length_b                   9.7970(16)
_cell_length_c                   11.3880(19)
_cell_angle_alpha                94.340(2)
_cell_angle_beta                 99.407(2)
_cell_angle_gamma                111.455(2)
_cell_volume                     947.644
loop_
_atom_site_label
_atom_site_type_symbol
_atom_site_fract_x
_atom_site_fract_y
_atom_site_fract_z
H7 H 0.0795 0.1405 0.3391
O7 O 0.0504(6) 0.3447(5) 0.4715(5)
Y5 Y 0.27654(7) 0.54510(7) 0.48855(5)
C12 C 0.8859(8) 0.0937(8) 0.4096(6)
C13 C 0.9874(8) 0.0644(8) 0.3458(6)
C15 C 0.9185(8) 0.2467(7) 0.4668(6)
O6 O 0.8109(6) 0.2693(5) 0.5083(5)
Y4 Y 0.72346(7) 0.45490(7) 0.51145(5)
C4 C 0.8690(10) 0.8354(10) 0.0362(7)
H2 H 0.8234 0.8982 0.0638
C5 C 0.9944(9) 0.8205(8) 0.1111(7)
C8 C 0.9520(8) 0.9225(8) 0.2924(6)
C9 C 0.8197(8) 0.8044(8) 0.3090(6)
H5 H 0.8003 0.7076 0.2772
C10 C 0.7189(8) 0.8342(7) 0.3733(6)
C11 C 0.7491(8) 0.9775(7) 0.4204(6)
H6 H 0.6779 0.9975 0.4599
C14 C 0.5805(8) 0.7090(7) 0.3969(6)
O4 O 0.4534(6) 0.7249(5) 0.3942(5)
O5 O 0.5977(6) 0.5923(5) 0.4222(4)
C1 C 0.8249(8) 0.5873(8) 0.7548(6)
C2 C 0.8841(9) 0.6723(8) 0.8766(6)
C3 C 0.8143(10) 0.7604(10) 0.9255(7)
H1 H 0.7262 0.7669 0.8790
O1 O 0.8778(6) 0.4955(6) 0.7172(4)
O2 O 0.7185(6) 0.6107(6) 0.6831(4)
O3 O 0.5123(6) 0.2842(6) 0.3560(5)
O9 O 0.8076(6) 0.4531(6) 0.3169(5)
O10 O 0.5466(6) 0.2751(5) 0.6058(5)
O13 O 0.9496(6) 0.6553(5) 0.5285(5)
H8 H 0.412849 0.252944 0.385916
H9 H 0.501256 0.333612 0.284012
H10 H 0.849619 0.374281 0.307263
H11 H 0.716393 0.433398 0.250303
C1_2 C 0.1751(8) 0.4127(8) 0.2452(6)
C2_2 C 0.1159(9) 0.3277(8) 0.1234(6)
C3_2 C 0.1857(10) 0.2396(10) 0.0745(7)
H1_2 H 0.2738 0.2331 0.1210
O1_2 O 0.1222(6) 0.5045(6) 0.2828(4)
O2_2 O 0.2815(6) 0.3893(6) 0.3169(4)
O3_2 O 0.4877(6) 0.7158(6) 0.6440(5)
O9_2 O 0.1924(6) 0.5469(6) 0.6831(5)
O11 O 0.4023(6) 0.4077(5) 0.5778(4)
O12 O 0.1891(6) 0.7307(5) 0.4917(5)
H8_2 H 0.587151 0.747056 0.614084
H9_2 H 0.498744 0.666388 0.715988
H10_2 H 0.150381 0.625719 0.692737
H11_2 H 0.283607 0.566602 0.749697
C4_2 C 0.1310(10) 0.1646(10) 0.9638(7)
H2_2 H 0.1766 0.1018 0.9362
C5_2 C 0.0056(9) 0.1795(8) 0.8889(7)
C8_2 C 0.0480(8) 0.0775(8) 0.7076(6)
C9_2 C 0.1803(8) 0.1956(8) 0.6910(6)
H5_2 H 0.1997 0.2924 0.7228
C10_2 C 0.2811(8) 0.1658(7) 0.6267(6)
C11_2 C 0.2509(8) 0.0225(7) 0.5796(6)
H6_2 H 0.3221 0.0025 0.5401
C14_2 C 0.4195(8) 0.2910(7) 0.6031(6)
C12_2 C 0.1141(8) 0.9063(8) 0.5904(6)
C13_2 C 0.0126(8) 0.9356(8) 0.6542(6)
C15_2 C 0.0815(8) 0.7533(7) 0.5332(6)
H7_2 H 0.9205 0.8595 0.6609
C6 C 0.0680(10) 0.7366(10) 0.0671(7)
H3 H 0.1549 0.7301 0.1155
O8 O 0.0548(5) 0.8950(6) 0.2274(4)
C7 C 0.0137(10) 0.6612(9) 0.9509(7)
H4 H 0.0632 0.6029 0.9219
C7_2 C 0.9863(10) 0.3388(9) 0.0491(7)
H4_2 H 0.9368 0.3971 0.0781
C6_2 C 0.9320(10) 0.2634(10) 0.9329(7)
H3_2 H 0.8451 0.2699 0.8845
O8_2 O 0.9452(5) 0.1050(6) 0.7726(4)
loop_
_geom_bond_atom_site_label_1
_geom_bond_atom_site_label_2
_geom_bond_site_symmetry_1
_geom_bond_site_symmetry_2
Y5 O7 1_555 1_555
C15 C12 1_555 1_555
O6 C15 1_555 1_555
Y4 O6 1_555 1_555
C12 C13 1_555 1_555
H2 C4 1_555 1_555
C5 C4 1_555 1_555
C8 C9 1_555 1_555
C9 H5 1_555 1_555
C10 C9 1_555 1_555
C11 C10 1_555 1_555
H6 C11 1_555 1_555
C14 C10 1_555 1_555
O4 C14 1_555 1_555
O5 C14 1_555 1_555
Y5 O4 1_555 1_555
Y4 O5 1_555 1_555
C1 C2 1_555 1_555
C2 C3 1_555 1_555
C3 H1 1_555 1_555
O1 C1 1_555 1_555
O2 C1 1_555 1_555
O3 Y4 1_555 1_555
Y4 O1 1_555 1_555
O9 Y4 1_555 1_555
O10 Y4 1_555 1_555
O13 Y4 1_555 1_555
O2 Y4 1_555 1_555
O3 H8 1_555 1_555
O3 H9 1_555 1_555
O9 H10 1_555 1_555
O9 H11 1_555 1_555
C1_2 C2_2 1_555 1_555
C2_2 C3_2 1_555 1_555
C3_2 H1_2 1_555 1_555
O1_2 C1_2 1_555 1_555
O2_2 C1_2 1_555 1_555
O3_2 Y5 1_555 1_555
Y5 O1_2 1_555 1_555
O9_2 Y5 1_555 1_555
O11 Y5 1_555 1_555
O12 Y5 1_555 1_555
O2_2 Y5 1_555 1_555
O3_2 H8_2 1_555 1_555
O3_2 H9_2 1_555 1_555
O9_2 H10_2 1_555 1_555
O9_2 H11_2 1_555 1_555
H2_2 C4_2 1_555 1_555
C5_2 C4_2 1_555 1_555
C8_2 C9_2 1_555 1_555
C9_2 H5_2 1_555 1_555
C10_2 C9_2 1_555 1_555
C11_2 C10_2 1_555 1_555
H6_2 C11_2 1_555 1_555
C14_2 C10_2 1_555 1_555
O10 C14_2 1_555 1_555
O11 C14_2 1_555 1_555
C15_2 C12_2 1_555 1_555
O12 C15_2 1_555 1_555
C12_2 C13_2 1_555 1_555
H3 C6 1_555 1_555
H4 C7 1_555 1_555
H4_2 C7_2 1_555 1_555
H3_2 C6_2 1_555 1_555

#END
