
###############################################################################
#
# This file contains modified crystal structure data generated from the
# MOF subset of the Cambridge Structural Database (CSD) v543 
# hosted by the Cambridge Crystallographic Data Centre (CCDC).
#
# This work is licensed under the Creative Commons
# Attribution-NonCommercial-ShareAlike 4.0 International License.
# To view a copy of this license, visit
# http://creativecommons.org/licenses/by-nc-sa/4.0/
# or send a letter to
# Creative Commons, PO Box 1866, Mountain View, CA 94042, USA.
#
# CIF created using the CSD Python API on 29 September 2022
# The structure has been converted into the P1 space group
# The structure has a 3D framework
# The original CSD entry ELIJOZ is in the triclinic crystal system
# The framework has been calculated to contain at least 10.0% void space
# The void calculation uses a probe of radius 1.32A, grid spacing 0.4
# H atom positions have been added when not included in the experimental data
#
###############################################################################

data_ELIJOZ
_chemical_formula_moiety         '(C30 H22 Ce2 O16)n'
_symmetry_cell_setting           triclinic
_symmetry_space_group_name_H-M   'P 1'
_symmetry_Int_Tables_number      1
_space_group_name_Hall           'P 1'
loop_
_symmetry_equiv_pos_site_id
_symmetry_equiv_pos_as_xyz
1 x,y,z
_cell_length_a                   9.4230(8)
_cell_length_b                   9.9470(8)
_cell_length_c                   11.4190(10)
_cell_angle_alpha                93.6330(10)
_cell_angle_beta                 98.0920(10)
_cell_angle_gamma                110.6490(10)
_cell_volume                     984.175
loop_
_atom_site_label
_atom_site_type_symbol
_atom_site_fract_x
_atom_site_fract_y
_atom_site_fract_z
O8 O 0.1208(5) 0.0000(4) 0.7716(3)
Ce5 Ce 0.28419(3) 0.04592(2) 0.98479(2)
O12 O 0.9445(5) 0.1638(4) 0.0317(4)
O13 O 0.7140(5) 0.1103(5) 0.1997(4)
O14 O 0.8792(5) 0.0000(4) 0.2284(3)
O10 O 0.5848(4) 0.1075(4) 0.9249(3)
H11 H 0.878539 0.0587368 0.804799
O3 O 0.5088(5) 0.7806(4) 0.8503(4)
O4 O 0.1777(5) 0.2310(4) 0.9865(4)
O5 O 0.8126(5) 0.9582(5) 0.8132(4)
H8 H 0.405561 0.773898 0.865753
H9 H 0.524282 0.817087 0.772322
H10 H 0.722971 0.922816 0.746962
H2 H 0.9190 0.3643 0.1637
C12 C 0.9877(8) 0.8371(7) 0.5437(5)
H6 H 0.9391 0.8955 0.5730
C13 C 0.9325(8) 0.7637(7) 0.4303(6)
H7 H 0.8478 0.7726 0.3836
O9 O 0.9455(4) 0.6050(4) 0.2736(3)
C1 C 0.5793(6) 0.2260(5) 0.8964(4)
C2 C 0.7218(6) 0.3427(5) 0.8754(4)
C3 C 0.7532(6) 0.4847(5) 0.9231(4)
H1 H 0.6832 0.5065 0.9632
C4 C 0.8882(6) 0.5926(5) 0.9108(4)
C5 C 0.9899(6) 0.5630(5) 0.8448(4)
C6 C 0.9516(6) 0.4224(5) 0.7925(4)
C7 C 0.8221(6) 0.3102(5) 0.8111(4)
H3 H 0.8030 0.2151 0.7811
C8 C 0.9253(6) 0.7443(5) 0.9683(4)
C9 C 0.8720(7) 0.3408(7) 0.5413(5)
H4 H 0.8266 0.4026 0.5696
C10 C 0.8187(7) 0.2667(7) 0.4295(5)
H5 H 0.7361 0.2785 0.3824
C11 C 0.8842(6) 0.1742(6) 0.3841(5)
C14 C 0.9957(6) 0.3226(6) 0.6127(5)
C15 C 0.8246(6) 0.0902(6) 0.2656(5)
O1 O 0.4562(4) 0.2511(4) 0.8874(4)
C1_2 C 0.4207(6) 0.7740(5) 0.1036(4)
C2_2 C 0.2782(6) 0.6573(5) 0.1246(4)
C3_2 C 0.2468(6) 0.5153(5) 0.0769(4)
H1_2 H 0.3168 0.4935 0.0368
C4_2 C 0.1118(6) 0.4074(5) 0.0892(4)
C5_2 C 0.0101(6) 0.4370(5) 0.1552(4)
C6_2 C 0.0484(6) 0.5776(5) 0.2075(4)
C7_2 C 0.1779(6) 0.6898(5) 0.1889(4)
H3_2 H 0.1970 0.7849 0.2189
C8_2 C 0.0747(6) 0.2557(5) 0.0317(4)
C9_2 C 0.1280(7) 0.6592(7) 0.4587(5)
H4_2 H 0.1734 0.5974 0.4304
C10_2 C 0.1813(7) 0.7333(7) 0.5705(5)
H5_2 H 0.2639 0.7215 0.6176
C11_2 C 0.1158(6) 0.8258(6) 0.6159(5)
C14_2 C 0.0043(6) 0.6774(6) 0.3873(5)
C15_2 C 0.1754(6) 0.9098(6) 0.7344(5)
Ce1 Ce 0.71581(3) 0.95408(2) 0.01521(2)
O1_2 O 0.5438(4) 0.7489(4) 0.1126(4)
O2 O 0.4152(4) 0.8925(4) 0.0751(3)
O7 O 0.2860(5) 0.8897(5) 0.8003(4)
O8_2 O 0.1208(5) 1.0000(4) 0.7716(3)
O11 O 0.8223(5) 0.7690(4) 0.0135(4)
O14_2 O 0.8792(5) 1.0000(4) 0.2284(3)
H2_2 H 0.0810 0.6357 0.8363
C12_2 C 0.0123(8) 0.1629(7) 0.4563(5)
H6_2 H 0.0609 0.1045 0.4270
C13_2 C 0.0675(8) 0.2363(7) 0.5697(6)
H7_2 H 0.1522 0.2274 0.6164
O6 O 0.0555(5) 0.8362(4) 0.9683(4)
O9_2 O 0.0545(4) 0.3950(4) 0.7264(3)
O3_2 O 0.4912(5) 0.2194(4) 0.1497(4)
O5_2 O 0.1874(5) 0.0418(5) 0.1868(4)
H8_2 H 0.594439 0.226102 0.134247
H9_2 H 0.475718 0.182913 0.227678
H10_2 H 0.277029 0.0771839 0.253038
H11_2 H 0.121461 0.941263 0.195201
loop_
_geom_bond_atom_site_label_1
_geom_bond_atom_site_label_2
_geom_bond_site_symmetry_1
_geom_bond_site_symmetry_2
O8 Ce5 1_555 1_555
Ce5 O10 1_555 1_555
Ce5 O4 1_555 1_555
O3 H8 1_555 1_555
O3 H9 1_555 1_555
O5 H10 1_555 1_555
H6 C12 1_555 1_555
C13 C12 1_555 1_555
H7 C13 1_555 1_555
C1 C2 1_555 1_555
C2 C3 1_555 1_555
C3 H1 1_555 1_555
C4 C3 1_555 1_555
C5 C4 1_555 1_555
C6 C5 1_555 1_555
C7 C2 1_555 1_555
H3 C7 1_555 1_555
C8 C4 1_555 1_555
C9 H4 1_555 1_555
C10 C9 1_555 1_555
H5 C10 1_555 1_555
C11 C10 1_555 1_555
C14 C9 1_555 1_555
C15 C11 1_555 1_555
Ce5 O1 1_555 1_555
O1 C1 1_555 1_555
O10 C1 1_555 1_555
O13 C15 1_555 1_555
O14 C15 1_555 1_555
C6 C7 1_555 1_555
C1_2 C2_2 1_555 1_555
C2_2 C3_2 1_555 1_555
C3_2 H1_2 1_555 1_555
C4_2 C3_2 1_555 1_555
C5_2 C4_2 1_555 1_555
C6_2 C5_2 1_555 1_555
C7_2 C2_2 1_555 1_555
H3_2 C7_2 1_555 1_555
C8_2 C4_2 1_555 1_555
C9_2 H4_2 1_555 1_555
C10_2 C9_2 1_555 1_555
H5_2 C10_2 1_555 1_555
C11_2 C10_2 1_555 1_555
C14_2 C9_2 1_555 1_555
C15_2 C11_2 1_555 1_555
Ce1 O1_2 1_555 1_555
O1_2 C1_2 1_555 1_555
O2 C1_2 1_555 1_555
O7 C15_2 1_555 1_555
O8_2 C15_2 1_555 1_555
O11 Ce1 1_555 1_555
O14_2 Ce1 1_555 1_555
C6_2 C7_2 1_555 1_555
Ce1 O2 1_555 1_555
H6_2 C12_2 1_555 1_555
C13_2 C12_2 1_555 1_555
H7_2 C13_2 1_555 1_555
O3_2 H8_2 1_555 1_555
O3_2 H9_2 1_555 1_555
O5_2 H10_2 1_555 1_555

#END
