
###############################################################################
#
# This file contains modified crystal structure data generated from the
# MOF subset of the Cambridge Structural Database (CSD) v543 
# hosted by the Cambridge Crystallographic Data Centre (CCDC).
#
# This work is licensed under the Creative Commons
# Attribution-NonCommercial-ShareAlike 4.0 International License.
# To view a copy of this license, visit
# http://creativecommons.org/licenses/by-nc-sa/4.0/
# or send a letter to
# Creative Commons, PO Box 1866, Mountain View, CA 94042, USA.
#
# CIF created using the CSD Python API on 29 September 2022
# The structure has been converted into the P1 space group
# The structure has a 3D framework
# The original CSD entry ELIKIU is in the triclinic crystal system
# The framework has been calculated to contain at least 10.0% void space
# The void calculation uses a probe of radius 1.32A, grid spacing 0.4
# H atom positions have been added when not included in the experimental data
#
###############################################################################

data_ELIKIU
_chemical_formula_moiety         '(C30 H22 O16 Sm2)n'
_symmetry_cell_setting           triclinic
_symmetry_space_group_name_H-M   'P 1'
_symmetry_Int_Tables_number      1
_space_group_name_Hall           'P 1'
loop_
_symmetry_equiv_pos_site_id
_symmetry_equiv_pos_as_xyz
1 x,y,z
_cell_length_a                   9.3410(10)
_cell_length_b                   9.8650(12)
_cell_length_c                   11.4150(12)
_cell_angle_alpha                94.0330(10)
_cell_angle_beta                 98.3320(10)
_cell_angle_gamma                110.8090(10)
_cell_volume                     964.413
loop_
_atom_site_label
_atom_site_type_symbol
_atom_site_fract_x
_atom_site_fract_y
_atom_site_fract_z
H6 H 0.1819 0.0026 0.4642
C12 C 0.3886(7) 0.0933(6) 0.4099(5)
C13 C 0.4893(7) 0.0637(7) 0.3442(6)
H7 H 0.5805 0.1379 0.3351
C15 C 0.4236(7) 0.2462(6) 0.4675(5)
O7 O 0.3182(5) 0.2702(5) 0.5111(4)
O8 O 0.5553(5) 0.3403(5) 0.4675(4)
Sm4 Sm 0.21739(3) 0.45435(3) 0.51503(2)
Sm5 Sm 0.78261(3) 0.54565(3) 0.48497(2)
C4 C 0.5689(9) 0.7359(8) 0.0681(7)
H2 H 0.6537 0.7266 0.1157
C5 C 0.4967(8) 0.8221(7) 0.1108(6)
C6 C 0.3706(9) 0.8376(8) 0.0397(6)
H3 H 0.3235 0.8983 0.0689
C8 C 0.4527(7) 0.9221(7) 0.2921(5)
C9 C 0.3232(7) 0.8093(7) 0.3099(6)
H5 H 0.3043 0.7136 0.2787
C10 C 0.2224(7) 0.8391(6) 0.3740(5)
C11 C 0.2523(7) 0.9819(6) 0.4231(5)
C14 C 0.0802(7) 0.7198(7) 0.3974(5)
O6 O 0.0886(5) 0.6019(5) 0.4257(4)
O9 O 0.5573(5) 0.8952(5) 0.2259(4)
C1 C 0.3233(8) 0.5880(7) 0.7609(6)
C2 C 0.3835(8) 0.6720(7) 0.8805(6)
C3 C 0.5147(9) 0.6622(8) 0.9529(6)
H1 H 0.5655 0.6055 0.9229
C7 C 0.3167(9) 0.7640(8) 0.9274(6)
H4 H 0.2327 0.7756 0.8805
O1 O 0.2152(5) 0.6098(5) 0.6936(4)
O2 O 0.3780(6) 0.4966(5) 0.7237(4)
O3 O 0.3105(6) 0.4576(6) 0.3176(5)
O5 O 0.0110(5) 0.2821(5) 0.3554(4)
O10 O 0.0473(5) 0.2589(5) 0.6115(4)
O14 O 0.4447(5) 0.6597(5) 0.5325(4)
H9 H 0.0593776 0.23987 0.29814
H10 H 0.425953 0.503214 0.331854
H11 H 0.276453 0.355843 0.277327
O4 O 0.9527(5) 0.7411(5) 0.3885(4)
O12 O 0.9114(5) 0.3981(5) 0.5743(4)
H8 H 0.951371 0.335154 0.312702
H8_2 H 0.0486292 0.664846 0.687298
C1_2 C 0.6767(8) 0.4120(7) 0.2391(6)
C2_2 C 0.6165(8) 0.3280(7) 0.1195(6)
C3_2 C 0.4853(9) 0.3378(8) 0.0471(6)
H1_2 H 0.4345 0.3945 0.0771
C7_2 C 0.6833(9) 0.2360(8) 0.0726(6)
H4_2 H 0.7673 0.2244 0.1195
O1_2 O 0.7848(5) 0.3902(5) 0.3064(4)
O2_2 O 0.6220(6) 0.5034(5) 0.2763(4)
O3_2 O 0.6895(6) 0.5424(6) 0.6824(5)
O5_2 O 0.9890(5) 0.7179(5) 0.6446(4)
O13 O 0.6818(5) 0.7298(5) 0.4889(4)
H9_2 H 0.940622 0.76013 0.70186
H10_2 H 0.574047 0.496786 0.668146
H11_2 H 0.723547 0.644157 0.722673
C4_2 C 0.4311(9) 0.2641(8) 0.9319(7)
H2_2 H 0.3463 0.2734 0.8843
C5_2 C 0.5033(8) 0.1779(7) 0.8892(6)
C6_2 C 0.6294(9) 0.1624(8) 0.9603(6)
H3_2 H 0.6765 0.1017 0.9311
C8_2 C 0.5473(7) 0.0779(7) 0.7079(5)
C9_2 C 0.6768(7) 0.1907(7) 0.6901(6)
H5_2 H 0.6957 0.2864 0.7213
C10_2 C 0.7776(7) 0.1609(6) 0.6260(5)
C11_2 C 0.7477(7) 0.0181(6) 0.5769(5)
C14_2 C 0.9198(7) 0.2802(7) 0.6026(5)
O9_2 O 0.4427(5) 0.1048(5) 0.7741(4)
H6_2 H 0.8181 0.9974 0.5358
C12_2 C 0.6114(7) 0.9067(6) 0.5901(5)
C13_2 C 0.5107(7) 0.9363(7) 0.6558(6)
H7_2 H 0.4195 0.8621 0.6649
C15_2 C 0.5764(7) 0.7538(6) 0.5325(5)
loop_
_geom_bond_atom_site_label_1
_geom_bond_atom_site_label_2
_geom_bond_site_symmetry_1
_geom_bond_site_symmetry_2
H7 C13 1_555 1_555
C15 C12 1_555 1_555
O7 C15 1_555 1_555
O8 C15 1_555 1_555
Sm4 O7 1_555 1_555
Sm5 O8 1_555 1_555
C12 C13 1_555 1_555
H2 C4 1_555 1_555
C5 C4 1_555 1_555
C6 C5 1_555 1_555
H3 C6 1_555 1_555
C8 C9 1_555 1_555
C9 H5 1_555 1_555
C10 C9 1_555 1_555
C11 C10 1_555 1_555
C14 C10 1_555 1_555
O6 C14 1_555 1_555
O9 C5 1_555 1_555
Sm4 O6 1_555 1_555
C8 O9 1_555 1_555
C1 C2 1_555 1_555
C2 C3 1_555 1_555
C3 H1 1_555 1_555
C7 C2 1_555 1_555
H4 C7 1_555 1_555
O1 C1 1_555 1_555
O2 C1 1_555 1_555
O3 Sm4 1_555 1_555
O5 Sm4 1_555 1_555
Sm4 O1 1_555 1_555
O10 Sm4 1_555 1_555
O14 Sm4 1_555 1_555
O2 Sm4 1_555 1_555
O5 H9 1_555 1_555
O3 H10 1_555 1_555
O3 H11 1_555 1_555
Sm5 O4 1_555 1_555
C1_2 C2_2 1_555 1_555
C2_2 C3_2 1_555 1_555
C3_2 H1_2 1_555 1_555
C7_2 C2_2 1_555 1_555
H4_2 C7_2 1_555 1_555
O1_2 C1_2 1_555 1_555
O2_2 C1_2 1_555 1_555
O3_2 Sm5 1_555 1_555
O5_2 Sm5 1_555 1_555
Sm5 O1_2 1_555 1_555
O12 Sm5 1_555 1_555
O13 Sm5 1_555 1_555
O2_2 Sm5 1_555 1_555
O5_2 H9_2 1_555 1_555
O3_2 H10_2 1_555 1_555
O3_2 H11_2 1_555 1_555
H2_2 C4_2 1_555 1_555
C5_2 C4_2 1_555 1_555
C6_2 C5_2 1_555 1_555
H3_2 C6_2 1_555 1_555
C8_2 C9_2 1_555 1_555
C9_2 H5_2 1_555 1_555
C10_2 C9_2 1_555 1_555
C11_2 C10_2 1_555 1_555
C14_2 C10_2 1_555 1_555
O12 C14_2 1_555 1_555
O9_2 C5_2 1_555 1_555
C8_2 O9_2 1_555 1_555
H7_2 C13_2 1_555 1_555
C15_2 C12_2 1_555 1_555
O13 C15_2 1_555 1_555
O14 C15_2 1_555 1_555
C12_2 C13_2 1_555 1_555

#END
