
###############################################################################
#
# This file contains modified crystal structure data generated from the
# MOF subset of the Cambridge Structural Database (CSD) v543 
# hosted by the Cambridge Crystallographic Data Centre (CCDC).
#
# This work is licensed under the Creative Commons
# Attribution-NonCommercial-ShareAlike 4.0 International License.
# To view a copy of this license, visit
# http://creativecommons.org/licenses/by-nc-sa/4.0/
# or send a letter to
# Creative Commons, PO Box 1866, Mountain View, CA 94042, USA.
#
# CIF created using the CSD Python API on 29 September 2022
# The structure has been converted into the P1 space group
# The structure has a 3D framework
# The original CSD entry ELIKAM is in the triclinic crystal system
# The framework has been calculated to contain at least 10.0% void space
# The void calculation uses a probe of radius 1.32A, grid spacing 0.4
# H atom positions have been added when not included in the experimental data
#
###############################################################################

data_ELIKAM
_chemical_formula_moiety         '(C30 H22 O16 Pr2)n'
_symmetry_cell_setting           triclinic
_symmetry_space_group_name_H-M   'P 1'
_symmetry_Int_Tables_number      1
_space_group_name_Hall           'P 1'
loop_
_symmetry_equiv_pos_site_id
_symmetry_equiv_pos_as_xyz
1 x,y,z
_cell_length_a                   9.3980(19)
_cell_length_b                   9.911(2)
_cell_length_c                   11.422(2)
_cell_angle_alpha                93.965(3)
_cell_angle_beta                 98.131(3)
_cell_angle_gamma                110.782(2)
_cell_volume                     976.449
loop_
_atom_site_label
_atom_site_type_symbol
_atom_site_fract_x
_atom_site_fract_y
_atom_site_fract_z
H5 H 0.0803 0.1339 0.3363
O4 O 0.0552(6) 0.3378(6) 0.4684(5)
Pr2 Pr 0.28428(4) 0.54560(4) 0.48512(3)
C9 C 0.9886(8) 0.0613(8) 0.3451(6)
C10 C 0.8885(8) 0.0936(7) 0.4102(6)
C11 C 0.9246(8) 0.2446(7) 0.4671(6)
H6 H 0.6806 0.0049 0.4618
O6 O 0.8213(6) 0.2698(6) 0.5120(5)
Pr3 Pr 0.71572(4) 0.45440(4) 0.51488(3)
C5 C 0.9955(9) 0.8222(9) 0.1130(7)
C6 C 0.8741(10) 0.8408(10) 0.0408(7)
H3 H 0.8299 0.9043 0.0686
C8 C 0.9512(8) 0.9214(8) 0.2938(6)
C12 C 0.7514(8) 0.9832(7) 0.4224(6)
C13 C 0.7216(8) 0.8425(7) 0.3759(6)
C14 C 0.8213(8) 0.8092(8) 0.3115(6)
H7 H 0.8014 0.7136 0.2809
C15 C 0.5797(8) 0.7254(7) 0.3976(6)
O7 O 0.5853(6) 0.6059(5) 0.4256(5)
O8 O 0.4538(6) 0.7482(6) 0.3887(5)
C1 C 0.8234(9) 0.5895(8) 0.7635(6)
C2 C 0.8835(9) 0.6735(8) 0.8834(7)
C7 C 0.8198(10) 0.7662(10) 0.9294(7)
H4 H 0.7367 0.7781 0.8827
O1 O 0.7151(6) 0.6106(6) 0.6977(5)
O2 O 0.8776(7) 0.4997(6) 0.7263(5)
O3 O 0.5087(6) 0.2805(6) 0.3500(5)
O5 O 0.8118(7) 0.4575(7) 0.3149(5)
O10 O 0.9448(6) 0.6622(6) 0.5316(5)
O13 O 0.4147(6) 0.3941(5) 0.5744(5)
O14 O 0.5462(6) 0.2518(6) 0.6113(5)
H8 H 0.449806 0.333613 0.307415
H9 H 0.558087 0.239619 0.292991
H10 H 0.926589 0.500195 0.329564
H11 H 0.775754 0.356484 0.273896
C1_2 C 0.1766(9) 0.4105(8) 0.2365(6)
C2_2 C 0.1165(9) 0.3265(8) 0.1166(7)
C7_2 C 0.1802(10) 0.2338(10) 0.0706(7)
H4_2 H 0.2633 0.2219 0.1173
O1_2 O 0.2849(6) 0.3894(6) 0.3023(5)
O2_2 O 0.1224(7) 0.5003(6) 0.2737(5)
O3_2 O 0.4913(6) 0.7195(6) 0.6500(5)
O5_2 O 0.1882(7) 0.5425(7) 0.6851(5)
O11 O 0.1787(6) 0.7302(6) 0.4880(5)
H8_2 H 0.550194 0.666387 0.692585
H9_2 H 0.441913 0.760381 0.707009
H10_2 H 0.0734105 0.499805 0.670436
H11_2 H 0.224246 0.643516 0.726104
C5_2 C 0.0045(9) 0.1778(9) 0.8870(7)
C6_2 C 0.1259(10) 0.1592(10) 0.9592(7)
H3_2 H 0.1701 0.0957 0.9314
C8_2 C 0.0488(8) 0.0786(8) 0.7062(6)
C12_2 C 0.2486(8) 0.0168(7) 0.5776(6)
C13_2 C 0.2784(8) 0.1575(7) 0.6241(6)
C14_2 C 0.1787(8) 0.1908(8) 0.6885(6)
H7_2 H 0.1986 0.2864 0.7191
C15_2 C 0.4203(8) 0.2746(7) 0.6024(6)
C9_2 C 0.0114(8) 0.9387(8) 0.6549(6)
C10_2 C 0.1115(8) 0.9064(7) 0.5898(6)
C11_2 C 0.0754(8) 0.7554(7) 0.5329(6)
H6_2 H 0.3194 0.9951 0.5382
H5_2 H 0.9197 0.8661 0.6637
C4 C 0.0659(11) 0.7356(11) 0.0702(8)
H2 H 0.1502 0.7263 0.1175
O9 O 0.0556(6) 0.8938(6) 0.2271(5)
C3 C 0.0113(11) 0.6610(10) 0.9554(7)
H1 H 0.0598 0.6022 0.9260
C3_2 C 0.9887(11) 0.3390(10) 0.0446(7)
H1_2 H 0.9402 0.3978 0.0740
C4_2 C 0.9341(11) 0.2644(11) 0.9298(8)
H2_2 H 0.8498 0.2737 0.8825
O9_2 O 0.9444(6) 0.1062(6) 0.7729(5)
loop_
_geom_bond_atom_site_label_1
_geom_bond_atom_site_label_2
_geom_bond_site_symmetry_1
_geom_bond_site_symmetry_2
Pr2 O4 1_555 1_555
C10 C9 1_555 1_555
C11 C10 1_555 1_555
O6 C11 1_555 1_555
Pr3 O6 1_555 1_555
C6 C5 1_555 1_555
H3 C6 1_555 1_555
C13 C12 1_555 1_555
C14 C8 1_555 1_555
H7 C14 1_555 1_555
C15 C13 1_555 1_555
O7 C15 1_555 1_555
O8 C15 1_555 1_555
Pr3 O7 1_555 1_555
Pr2 O7 1_555 1_555
C13 C14 1_555 1_555
O8 Pr2 1_555 1_555
C1 C2 1_555 1_555
C7 C2 1_555 1_555
H4 C7 1_555 1_555
O1 C1 1_555 1_555
O2 C1 1_555 1_555
O3 Pr3 1_555 1_555
O5 Pr3 1_555 1_555
Pr3 O1 1_555 1_555
O10 Pr3 1_555 1_555
O13 Pr3 1_555 1_555
O14 Pr3 1_555 1_555
O2 Pr3 1_555 1_555
O3 H8 1_555 1_555
O3 H9 1_555 1_555
O5 H10 1_555 1_555
O5 H11 1_555 1_555
C1_2 C2_2 1_555 1_555
C7_2 C2_2 1_555 1_555
H4_2 C7_2 1_555 1_555
O1_2 C1_2 1_555 1_555
O2_2 C1_2 1_555 1_555
O3_2 Pr2 1_555 1_555
O5_2 Pr2 1_555 1_555
Pr2 O1_2 1_555 1_555
O11 Pr2 1_555 1_555
O13 Pr2 1_555 1_555
O2_2 Pr2 1_555 1_555
O3_2 H8_2 1_555 1_555
O3_2 H9_2 1_555 1_555
O5_2 H10_2 1_555 1_555
O5_2 H11_2 1_555 1_555
C6_2 C5_2 1_555 1_555
H3_2 C6_2 1_555 1_555
C13_2 C12_2 1_555 1_555
C14_2 C8_2 1_555 1_555
H7_2 C14_2 1_555 1_555
C15_2 C13_2 1_555 1_555
O13 C15_2 1_555 1_555
O14 C15_2 1_555 1_555
C13_2 C14_2 1_555 1_555
C10_2 C9_2 1_555 1_555
C11_2 C10_2 1_555 1_555
O11 C11_2 1_555 1_555
H2 C4 1_555 1_555
C3 H1 1_555 1_555
C3_2 H1_2 1_555 1_555
H2_2 C4_2 1_555 1_555

#END
