
###############################################################################
#
# This file contains modified crystal structure data generated from the
# MOF subset of the Cambridge Structural Database (CSD) v543 
# hosted by the Cambridge Crystallographic Data Centre (CCDC).
#
# This work is licensed under the Creative Commons
# Attribution-NonCommercial-ShareAlike 4.0 International License.
# To view a copy of this license, visit
# http://creativecommons.org/licenses/by-nc-sa/4.0/
# or send a letter to
# Creative Commons, PO Box 1866, Mountain View, CA 94042, USA.
#
# CIF created using the CSD Python API on 29 September 2022
# The structure has been converted into the P1 space group
# The structure has a 3D framework
# The original CSD entry ELIKEQ is in the triclinic crystal system
# The framework has been calculated to contain at least 10.0% void space
# The void calculation uses a probe of radius 1.32A, grid spacing 0.4
# H atom positions have been added when not included in the experimental data
#
###############################################################################

data_ELIKEQ
_chemical_formula_moiety         '(C30 H22 Nd2 O14)n'
_symmetry_cell_setting           triclinic
_symmetry_space_group_name_H-M   'P 1'
_symmetry_Int_Tables_number      1
_space_group_name_Hall           'P 1'
loop_
_symmetry_equiv_pos_site_id
_symmetry_equiv_pos_as_xyz
1 x,y,z
_cell_length_a                   9.3700(7)
_cell_length_b                   9.9020(7)
_cell_length_c                   11.4290(9)
_cell_angle_alpha                93.9420(10)
_cell_angle_beta                 98.0750(10)
_cell_angle_gamma                110.6920(10)
_cell_volume                     974.109
loop_
_atom_site_label
_atom_site_type_symbol
_atom_site_fract_x
_atom_site_fract_y
_atom_site_fract_z
O2 O 0.1882(5) 0.5418(5) 0.1837(4)
O5 O 0.4891(5) 0.7184(4) 0.1467(4)
O12 O 0.4147(4) 0.3955(4) 0.0744(4)
H8 H 0.231645 0.483507 0.234836
H9 H 0.222571 0.642845 0.224232
H10 H 0.560515 0.798566 0.11133
H11 H 0.439572 0.759452 0.20365
Nd1 Nd 0.28395(3) 0.54588(2) 0.98441(2)
O1 O 0.2869(5) 0.3908(5) 0.8036(4)
O7 O 0.1220(5) 0.5022(4) 0.7748(3)
O9 O 0.5455(4) 0.2541(4) 0.1123(4)
C2 C 0.0039(6) 0.1785(6) 0.3886(5)
C4 C 0.0462(6) 0.0772(6) 0.2077(5)
C6 C 0.1280(7) 0.1600(7) 0.4592(5)
H3 H 0.1734 0.0978 0.4305
C8 C 0.1816(7) 0.2344(7) 0.5709(5)
H4 H 0.2655 0.2233 0.6175
C9 C 0.1149(6) 0.3267(6) 0.6178(5)
C10 C 0.1769(6) 0.1904(6) 0.1897(5)
H5 H 0.1962 0.2857 0.2208
C11 C 0.2473(6) 0.0167(5) 0.0776(4)
C12 C 0.2781(6) 0.1591(5) 0.1248(4)
C13 C 0.4212(6) 0.2764(5) 0.1030(4)
C15 C 0.1766(6) 0.4110(6) 0.7372(5)
Nd5 Nd 0.71605(3) 0.45412(2) 0.01559(2)
O10 O 0.1790(5) 0.7298(4) 0.9871(4)
O11 O 0.0563(5) 0.3383(4) 0.9673(4)
O13 O 0.5853(4) 0.6045(4) 0.9256(4)
O14 O 0.4545(4) 0.7459(4) 0.8877(4)
O6 O 0.9437(5) 0.6617(4) 0.0327(4)
H2 H 0.9185 0.8631 0.1650
H2_2 H 0.0815 0.1369 0.8350
O4 O 0.8210(5) 0.2702(4) 0.0129(4)
O1_2 O 0.7131(5) 0.6092(5) 0.1964(4)
O7_2 O 0.8780(5) 0.4978(4) 0.2252(3)
C2_2 C 0.9961(6) 0.8215(6) 0.6114(5)
C4_2 C 0.9538(6) 0.9228(6) 0.7923(5)
C6_2 C 0.8720(7) 0.8400(7) 0.5408(5)
H3_2 H 0.8266 0.9022 0.5695
C8_2 C 0.8184(7) 0.7656(7) 0.4291(5)
H4_2 H 0.7345 0.7767 0.3825
C9_2 C 0.8851(6) 0.6733(6) 0.3822(5)
C10_2 C 0.8231(6) 0.8096(6) 0.8103(5)
H5_2 H 0.8038 0.7143 0.7792
C11_2 C 0.7527(6) 0.9833(5) 0.9224(4)
C12_2 C 0.7219(6) 0.8409(5) 0.8752(4)
C13_2 C 0.5788(6) 0.7236(5) 0.8970(4)
C15_2 C 0.8234(6) 0.5890(6) 0.2628(5)
O2_2 O 0.8118(5) 0.4582(5) 0.8163(4)
O5_2 O 0.5109(5) 0.2816(4) 0.8533(4)
H8_2 H 0.768355 0.516493 0.765164
H9_2 H 0.777429 0.357155 0.775768
H10_2 H 0.439485 0.201434 0.88867
H11_2 H 0.560428 0.240548 0.79635
C3 C 0.0095(6) 0.9366(5) 0.1559(4)
C5 C 0.0744(6) 0.7546(5) 0.0322(4)
C7 C 0.1113(6) 0.9064(5) 0.0894(4)
H6 H 0.3182 0.9953 0.0378
O3 O 0.9443(4) 0.1062(4) 0.2741(3)
C1 C 0.9866(8) 0.3382(7) 0.5458(6)
H1 H 0.9374 0.3965 0.5754
C14 C 0.9316(8) 0.2642(7) 0.4314(6)
H7 H 0.8465 0.2730 0.3845
O3_2 O 0.0557(4) 0.8938(4) 0.7259(3)
C1_2 C 0.0134(8) 0.6618(7) 0.4542(6)
H1_2 H 0.0626 0.6035 0.4246
C14_2 C 0.0684(8) 0.7358(7) 0.5686(6)
H7_2 H 0.1535 0.7270 0.6155
C3_2 C 0.9905(6) 0.0634(5) 0.8441(4)
C5_2 C 0.9256(6) 0.2454(5) 0.9678(4)
C7_2 C 0.8887(6) 0.0936(5) 0.9106(4)
H6_2 H 0.6818 0.0047 0.9622
loop_
_geom_bond_atom_site_label_1
_geom_bond_atom_site_label_2
_geom_bond_site_symmetry_1
_geom_bond_site_symmetry_2
O2 H8 1_555 1_555
O2 H9 1_555 1_555
O5 H10 1_555 1_555
O5 H11 1_555 1_555
Nd1 O1 1_555 1_555
O1 C15 1_555 1_555
O7 Nd1 1_555 1_555
O12 C13 1_555 1_555
O9 C13 1_555 1_555
C2 C6 1_555 1_555
C6 H3 1_555 1_555
C8 C6 1_555 1_555
H4 C8 1_555 1_555
C10 C4 1_555 1_555
H5 C10 1_555 1_555
C12 C10 1_555 1_555
C13 C12 1_555 1_555
C15 O7 1_555 1_555
Nd5 O12 1_555 1_555
O10 Nd1 1_555 1_555
O11 Nd1 1_555 1_555
O13 Nd1 1_555 1_555
O14 Nd1 1_555 1_555
O9 Nd5 1_555 1_555
C8 C9 1_555 1_555
C9 C15 1_555 1_555
C11 C12 1_555 1_555
Nd5 O6 1_555 1_555
Nd5 O4 1_555 1_555
Nd5 O1_2 1_555 1_555
O1_2 C15_2 1_555 1_555
O7_2 Nd5 1_555 1_555
O13 C13_2 1_555 1_555
O14 C13_2 1_555 1_555
C2_2 C6_2 1_555 1_555
C6_2 H3_2 1_555 1_555
C8_2 C6_2 1_555 1_555
H4_2 C8_2 1_555 1_555
C10_2 C4_2 1_555 1_555
H5_2 C10_2 1_555 1_555
C12_2 C10_2 1_555 1_555
C13_2 C12_2 1_555 1_555
C15_2 O7_2 1_555 1_555
C8_2 C9_2 1_555 1_555
C9_2 C15_2 1_555 1_555
C11_2 C12_2 1_555 1_555
O2_2 H8_2 1_555 1_555
O2_2 H9_2 1_555 1_555
O5_2 H10_2 1_555 1_555
O5_2 H11_2 1_555 1_555
C5 C7 1_555 1_555
C7 C3 1_555 1_555
C1 H1 1_555 1_555
C14 C1 1_555 1_555
H7 C14 1_555 1_555
C1_2 H1_2 1_555 1_555
C14_2 C1_2 1_555 1_555
H7_2 C14_2 1_555 1_555
C5_2 C7_2 1_555 1_555
C7_2 C3_2 1_555 1_555

#END
