
###############################################################################
#
# This file contains modified crystal structure data generated from the
# MOF subset of the Cambridge Structural Database (CSD) v543 
# hosted by the Cambridge Crystallographic Data Centre (CCDC).
#
# This work is licensed under the Creative Commons
# Attribution-NonCommercial-ShareAlike 4.0 International License.
# To view a copy of this license, visit
# http://creativecommons.org/licenses/by-nc-sa/4.0/
# or send a letter to
# Creative Commons, PO Box 1866, Mountain View, CA 94042, USA.
#
# CIF created using the CSD Python API on 29 September 2022
# The structure has been converted into the P1 space group
# The structure has a 3D framework
# The original CSD entry ELIKOA is in the triclinic crystal system
# The framework has been calculated to contain at least 10.0% void space
# The void calculation uses a probe of radius 1.32A, grid spacing 0.4
# H atom positions have been added when not included in the experimental data
#
###############################################################################

data_ELIKOA
_chemical_formula_moiety         '(C30 H22 Eu2 O14)n'
_symmetry_cell_setting           triclinic
_symmetry_space_group_name_H-M   'P 1'
_symmetry_Int_Tables_number      1
_space_group_name_Hall           'P 1'
loop_
_symmetry_equiv_pos_site_id
_symmetry_equiv_pos_as_xyz
1 x,y,z
_cell_length_a                   9.3410(7)
_cell_length_b                   9.8490(8)
_cell_length_c                   11.4220(9)
_cell_angle_alpha                94.0760(10)
_cell_angle_beta                 98.5770(10)
_cell_angle_gamma                110.9270(10)
_cell_volume                     961.689
loop_
_atom_site_label
_atom_site_type_symbol
_atom_site_fract_x
_atom_site_fract_y
_atom_site_fract_z
O3 O 0.4884(5) 0.7178(5) 0.1448(4)
O5 O 0.1908(5) 0.5435(5) 0.1827(4)
O14 O 0.4101(5) 0.3995(4) 0.0745(4)
H8 H 0.56016 0.797628 0.10897
H9 H 0.440213 0.760442 0.201776
H10 H 0.237131 0.487445 0.234743
H11 H 0.22417 0.645825 0.222287
C1 C 0.1757(6) 0.4117(6) 0.7400(5)
C2 C 0.1141(7) 0.3274(6) 0.6196(5)
C5 C 0.0035(7) 0.1788(6) 0.3888(5)
C6 C 0.1300(8) 0.1629(8) 0.4604(6)
H3 H 0.1771 0.1022 0.4314
C7 C 0.1836(8) 0.2368(8) 0.5727(6)
H4 H 0.2687 0.2269 0.6197
C8 C 0.0471(6) 0.0787(6) 0.2079(5)
C11 C 0.2496(6) 0.0183(6) 0.0779(5)
C12 C 0.2798(6) 0.1620(6) 0.1258(5)
C13 C 0.1771(7) 0.1921(6) 0.1900(5)
H7 H 0.1959 0.2881 0.2207
C15 C 0.4201(6) 0.2820(6) 0.1024(5)
Eu1 Eu 0.28199(3) 0.54536(2) 0.98529(2)
O1 O 0.2848(5) 0.3898(5) 0.8080(4)
O2 O 0.1206(5) 0.5030(5) 0.7774(4)
O7 O 0.5471(5) 0.2619(4) 0.1112(4)
Eu4 Eu 0.71801(3) 0.45464(2) 0.01471(2)
O10 O 0.1826(5) 0.7293(4) 0.9893(4)
O11 O 0.0550(5) 0.3410(4) 0.9682(4)
O12 O 0.4529(5) 0.7381(4) 0.8888(4)
O13 O 0.5899(5) 0.6005(4) 0.9255(4)
H5 H 0.9204 0.8610 0.1646
O6 O 0.9450(5) 0.6590(4) 0.0318(4)
H5_2 H 0.0796 0.1390 0.8354
O4 O 0.8174(5) 0.2707(4) 0.0107(4)
C1_2 C 0.8243(6) 0.5883(6) 0.2600(5)
C2_2 C 0.8859(7) 0.6726(6) 0.3804(5)
C5_2 C 0.9965(7) 0.8212(6) 0.6112(5)
C6_2 C 0.8700(8) 0.8371(8) 0.5396(6)
H3_2 H 0.8229 0.8978 0.5686
C7_2 C 0.8164(8) 0.7632(8) 0.4273(6)
H4_2 H 0.7313 0.7731 0.3803
C8_2 C 0.9529(6) 0.9213(6) 0.7921(5)
C11_2 C 0.7504(6) 0.9817(6) 0.9221(5)
C12_2 C 0.7202(6) 0.8380(6) 0.8742(5)
C13_2 C 0.8229(7) 0.8079(6) 0.8100(5)
H7_2 H 0.8041 0.7119 0.7793
C15_2 C 0.5799(6) 0.7180(6) 0.8976(5)
O1_2 O 0.7152(5) 0.6102(5) 0.1920(4)
O2_2 O 0.8794(5) 0.4970(5) 0.2226(4)
O3_2 O 0.5116(5) 0.2822(5) 0.8552(4)
O5_2 O 0.8092(5) 0.4565(5) 0.8173(4)
H8_2 H 0.43984 0.202372 0.89103
H9_2 H 0.559787 0.239558 0.798224
H10_2 H 0.762869 0.512555 0.765257
H11_2 H 0.77583 0.354175 0.777713
C9 C 0.0112(6) 0.9359(6) 0.1556(5)
C10 C 0.1120(6) 0.9067(6) 0.0901(5)
H6 H 0.3205 0.9970 0.0381
C14 C 0.0776(6) 0.7530(6) 0.0327(5)
C3 C 0.9849(8) 0.3384(8) 0.5476(6)
H1 H 0.9345 0.3958 0.5771
C4 C 0.9312(8) 0.2634(8) 0.4319(6)
H2 H 0.8456 0.2715 0.3841
O9 O 0.9437(5) 0.1051(5) 0.2738(3)
C3_2 C 0.0151(8) 0.6616(8) 0.4524(6)
H1_2 H 0.0655 0.6042 0.4229
C4_2 C 0.0688(8) 0.7366(8) 0.5681(6)
H2_2 H 0.1544 0.7285 0.6159
O9_2 O 0.0563(5) 0.8949(5) 0.7262(3)
C9_2 C 0.9888(6) 0.0641(6) 0.8444(5)
C10_2 C 0.8880(6) 0.0933(6) 0.9099(5)
H6_2 H 0.6795 0.0030 0.9619
C14_2 C 0.9224(6) 0.2470(6) 0.9673(5)
loop_
_geom_bond_atom_site_label_1
_geom_bond_atom_site_label_2
_geom_bond_site_symmetry_1
_geom_bond_site_symmetry_2
O3 H8 1_555 1_555
O3 H9 1_555 1_555
O5 H10 1_555 1_555
O5 H11 1_555 1_555
C1 C2 1_555 1_555
C6 C5 1_555 1_555
H3 C6 1_555 1_555
C7 C2 1_555 1_555
H4 C7 1_555 1_555
C12 C11 1_555 1_555
C13 C8 1_555 1_555
H7 C13 1_555 1_555
C15 C12 1_555 1_555
Eu1 O1 1_555 1_555
O1 C1 1_555 1_555
O2 C1 1_555 1_555
O7 C15 1_555 1_555
O14 C15 1_555 1_555
Eu4 O7 1_555 1_555
O10 Eu1 1_555 1_555
O11 Eu1 1_555 1_555
O12 Eu1 1_555 1_555
O13 Eu1 1_555 1_555
C6 C7 1_555 1_555
C12 C13 1_555 1_555
Eu1 O2 1_555 1_555
O14 Eu4 1_555 1_555
Eu4 O6 1_555 1_555
Eu4 O4 1_555 1_555
C1_2 C2_2 1_555 1_555
C6_2 C5_2 1_555 1_555
H3_2 C6_2 1_555 1_555
C7_2 C2_2 1_555 1_555
H4_2 C7_2 1_555 1_555
C12_2 C11_2 1_555 1_555
C13_2 C8_2 1_555 1_555
H7_2 C13_2 1_555 1_555
C15_2 C12_2 1_555 1_555
Eu4 O1_2 1_555 1_555
O1_2 C1_2 1_555 1_555
O2_2 C1_2 1_555 1_555
O12 C15_2 1_555 1_555
O13 C15_2 1_555 1_555
C6_2 C7_2 1_555 1_555
C12_2 C13_2 1_555 1_555
Eu4 O2_2 1_555 1_555
O3_2 H8_2 1_555 1_555
O3_2 H9_2 1_555 1_555
O5_2 H10_2 1_555 1_555
O5_2 H11_2 1_555 1_555
C10 C9 1_555 1_555
C14 C10 1_555 1_555
C3 H1 1_555 1_555
C4 C3 1_555 1_555
H2 C4 1_555 1_555
C3_2 H1_2 1_555 1_555
C4_2 C3_2 1_555 1_555
H2_2 C4_2 1_555 1_555
C10_2 C9_2 1_555 1_555
C14_2 C10_2 1_555 1_555

#END
