
###############################################################################
#
# This file contains modified crystal structure data generated from the
# MOF subset of the Cambridge Structural Database (CSD) v543 
# hosted by the Cambridge Crystallographic Data Centre (CCDC).
#
# This work is licensed under the Creative Commons
# Attribution-NonCommercial-ShareAlike 4.0 International License.
# To view a copy of this license, visit
# http://creativecommons.org/licenses/by-nc-sa/4.0/
# or send a letter to
# Creative Commons, PO Box 1866, Mountain View, CA 94042, USA.
#
# CIF created using the CSD Python API on 29 September 2022
# The structure has been converted into the P1 space group
# The structure has a 3D framework
# The original CSD entry ELIKUG is in the triclinic crystal system
# The framework has been calculated to contain at least 10.0% void space
# The void calculation uses a probe of radius 1.32A, grid spacing 0.4
# H atom positions have been added when not included in the experimental data
#
###############################################################################

data_ELIKUG
_chemical_formula_moiety         '(C30 H22 Gd2 O16)n'
_symmetry_cell_setting           triclinic
_symmetry_space_group_name_H-M   'P 1'
_symmetry_Int_Tables_number      1
_space_group_name_Hall           'P 1'
loop_
_symmetry_equiv_pos_site_id
_symmetry_equiv_pos_as_xyz
1 x,y,z
_cell_length_a                   9.3310(9)
_cell_length_b                   9.8410(9)
_cell_length_c                   11.4230(11)
_cell_angle_alpha                94.2240(10)
_cell_angle_beta                 98.5100(10)
_cell_angle_gamma                110.9520(10)
_cell_volume                     959.652
loop_
_atom_site_label
_atom_site_type_symbol
_atom_site_fract_x
_atom_site_fract_y
_atom_site_fract_z
C3 C 0.2473(7) 0.0184(7) 0.0778(6)
C4 C 0.2773(7) 0.1618(7) 0.1256(6)
C5 C 0.1758(8) 0.1914(7) 0.1901(6)
H2 H 0.1950 0.2876 0.2211
C6 C 0.0460(8) 0.0785(7) 0.2087(6)
C8 C 0.4191(7) 0.2829(7) 0.1031(6)
C9 C 0.0029(8) 0.1782(8) 0.3887(6)
C10 C 0.1298(9) 0.1623(9) 0.4608(7)
H4 H 0.1765 0.1009 0.4318
C11 C 0.1839(9) 0.2366(9) 0.5727(7)
H5 H 0.2697 0.2269 0.6189
C12 C 0.1157(8) 0.3274(8) 0.6215(7)
C15 C 0.1765(7) 0.4131(7) 0.7408(6)
O4 O 0.5471(5) 0.2638(5) 0.1100(5)
O6 O 0.4063(5) 0.3999(5) 0.0740(4)
O7 O 0.2846(6) 0.3904(5) 0.8084(4)
O8 O 0.1233(6) 0.5056(5) 0.7783(4)
Gd3 Gd 0.71885(3) 0.45439(3) 0.01460(3)
Gd5 Gd 0.28115(3) 0.54561(3) 0.98540(3)
O2 O 0.1820(5) 0.7292(5) 0.9887(5)
H3 H 0.9189 0.8607 0.1632
O1 O 0.9458(6) 0.6577(5) 0.0319(5)
O10 O 0.8180(5) 0.2708(5) 0.0113(5)
O14 O 0.7154(6) 0.6096(5) 0.1916(4)
O15 O 0.8767(6) 0.4944(5) 0.2217(4)
O3 O 0.8107(6) 0.4567(6) 0.8192(5)
O5 O 0.5120(6) 0.2827(6) 0.8560(5)
O13 O 0.5937(5) 0.6001(5) 0.9260(4)
H8 H 0.916435 0.452223 0.831788
H9 H 0.737085 0.370434 0.762163
H10 H 0.558567 0.232033 0.803434
H11 H 0.434118 0.208888 0.892477
O3_2 O 0.1893(6) 0.5433(6) 0.1808(5)
O5_2 O 0.4880(6) 0.7173(6) 0.1440(5)
H8_2 H 0.0835653 0.547777 0.168212
H9_2 H 0.262915 0.629566 0.237837
H10_2 H 0.441433 0.767967 0.196566
H11_2 H 0.565882 0.791112 0.107523
H3_2 H 0.0811 0.1393 0.8368
O1_2 O 0.0542(6) 0.3423(5) 0.9681(5)
O11 O 0.4529(5) 0.7362(5) 0.8900(5)
C3_2 C 0.7527(7) 0.9816(7) 0.9222(6)
C4_2 C 0.7227(7) 0.8382(7) 0.8744(6)
C5_2 C 0.8242(8) 0.8086(7) 0.8099(6)
H2_2 H 0.8050 0.7124 0.7789
C6_2 C 0.9540(8) 0.9215(7) 0.7913(6)
C8_2 C 0.5809(7) 0.7171(7) 0.8969(6)
C9_2 C 0.9971(8) 0.8218(8) 0.6113(6)
C10_2 C 0.8702(9) 0.8377(9) 0.5392(7)
H4_2 H 0.8235 0.8991 0.5682
C11_2 C 0.8161(9) 0.7634(9) 0.4273(7)
H5_2 H 0.7303 0.7731 0.3811
C12_2 C 0.8843(8) 0.6726(8) 0.3785(7)
C15_2 C 0.8235(7) 0.5869(7) 0.2592(6)
C1 C 0.0764(7) 0.7525(7) 0.0333(6)
C2 C 0.1115(7) 0.9063(7) 0.0895(6)
H1 H 0.3186 0.9977 0.0378
C7 C 0.0103(8) 0.9358(7) 0.1550(6)
C13 C 0.9861(9) 0.3393(9) 0.5484(7)
H6 H 0.9370 0.3978 0.5783
C14 C 0.9298(9) 0.2650(9) 0.4319(7)
H7 H 0.8445 0.2742 0.3846
O9 O 0.9427(5) 0.1050(5) 0.2743(4)
C13_2 C 0.0139(9) 0.6607(9) 0.4516(7)
H6_2 H 0.0630 0.6022 0.4217
C14_2 C 0.0702(9) 0.7350(9) 0.5681(7)
H7_2 H 0.1555 0.7258 0.6154
O9_2 O 0.0573(5) 0.8950(5) 0.7257(4)
C1_2 C 0.9236(7) 0.2475(7) 0.9667(6)
C2_2 C 0.8885(7) 0.0937(7) 0.9105(6)
H1_2 H 0.6814 0.0023 0.9622
C7_2 C 0.9897(8) 0.0642(7) 0.8450(6)
loop_
_geom_bond_atom_site_label_1
_geom_bond_atom_site_label_2
_geom_bond_site_symmetry_1
_geom_bond_site_symmetry_2
C4 C3 1_555 1_555
C5 C4 1_555 1_555
H2 C5 1_555 1_555
C6 C5 1_555 1_555
C8 C4 1_555 1_555
C9 C10 1_555 1_555
C10 H4 1_555 1_555
C11 C10 1_555 1_555
H5 C11 1_555 1_555
C12 C11 1_555 1_555
C15 C12 1_555 1_555
O4 C8 1_555 1_555
O6 C8 1_555 1_555
O7 C15 1_555 1_555
O8 C15 1_555 1_555
Gd3 O4 1_555 1_555
Gd5 O7 1_555 1_555
O6 Gd3 1_555 1_555
O8 Gd5 1_555 1_555
Gd5 O2 1_555 1_555
Gd3 O1 1_555 1_555
O10 Gd3 1_555 1_555
O14 Gd3 1_555 1_555
O15 Gd3 1_555 1_555
O3 H8 1_555 1_555
O3 H9 1_555 1_555
O5 H10 1_555 1_555
O5 H11 1_555 1_555
O3_2 H8_2 1_555 1_555
O3_2 H9_2 1_555 1_555
O5_2 H10_2 1_555 1_555
O5_2 H11_2 1_555 1_555
Gd5 O1_2 1_555 1_555
O11 Gd5 1_555 1_555
O13 Gd5 1_555 1_555
C4_2 C3_2 1_555 1_555
C5_2 C4_2 1_555 1_555
H2_2 C5_2 1_555 1_555
C6_2 C5_2 1_555 1_555
C8_2 C4_2 1_555 1_555
C9_2 C10_2 1_555 1_555
C10_2 H4_2 1_555 1_555
C11_2 C10_2 1_555 1_555
H5_2 C11_2 1_555 1_555
C12_2 C11_2 1_555 1_555
C15_2 C12_2 1_555 1_555
O11 C8_2 1_555 1_555
O13 C8_2 1_555 1_555
O14 C15_2 1_555 1_555
O15 C15_2 1_555 1_555
C1 C2 1_555 1_555
C7 C2 1_555 1_555
H6 C13 1_555 1_555
H7 C14 1_555 1_555
C13 C14 1_555 1_555
H6_2 C13_2 1_555 1_555
H7_2 C14_2 1_555 1_555
C13_2 C14_2 1_555 1_555
C1_2 C2_2 1_555 1_555
C7_2 C2_2 1_555 1_555

#END
