
###############################################################################
#
# This file contains modified crystal structure data generated from the
# MOF subset of the Cambridge Structural Database (CSD) v543 
# hosted by the Cambridge Crystallographic Data Centre (CCDC).
#
# This work is licensed under the Creative Commons
# Attribution-NonCommercial-ShareAlike 4.0 International License.
# To view a copy of this license, visit
# http://creativecommons.org/licenses/by-nc-sa/4.0/
# or send a letter to
# Creative Commons, PO Box 1866, Mountain View, CA 94042, USA.
#
# CIF created using the CSD Python API on 29 September 2022
# The structure has been converted into the P1 space group
# The structure has a 3D framework
# The original CSD entry ELILIV is in the triclinic crystal system
# The framework has been calculated to contain at least 10.0% void space
# The void calculation uses a probe of radius 1.32A, grid spacing 0.4
# H atom positions have been added when not included in the experimental data
#
###############################################################################

data_ELILIV
_chemical_formula_moiety         '(C30 H22 O14 Tm2)n'
_symmetry_cell_setting           triclinic
_symmetry_space_group_name_H-M   'P 1'
_symmetry_Int_Tables_number      1
_space_group_name_Hall           'P 1'
loop_
_symmetry_equiv_pos_site_id
_symmetry_equiv_pos_as_xyz
1 x,y,z
_cell_length_a                   9.3560(6)
_cell_length_b                   9.7960(7)
_cell_length_c                   11.4150(8)
_cell_angle_alpha                94.7990(10)
_cell_angle_beta                 99.6140(10)
_cell_angle_gamma                111.7380(10)
_cell_volume                     945.982
loop_
_atom_site_label
_atom_site_type_symbol
_atom_site_fract_x
_atom_site_fract_y
_atom_site_fract_z
O3 O 0.1929(6) 0.5483(6) 0.1829(5)
O5 O 0.4861(5) 0.7168(5) 0.1449(4)
O10 O 0.3983(5) 0.4103(5) 0.0784(4)
H8 H 0.108881 0.450429 0.184332
H9 H 0.284622 0.568087 0.249491
H10 H 0.462606 0.805252 0.167056
H11 H 0.497615 0.667923 0.216652
C1 C 0.1735(7) 0.4108(7) 0.7482(6)
C2 C 0.1161(8) 0.3287(7) 0.6263(6)
C5 C 0.0076(8) 0.1808(7) 0.3893(6)
C6 C 0.1331(10) 0.1647(9) 0.4632(7)
H3 H 0.1800 0.1040 0.4342
C7 C 0.1860(9) 0.2383(9) 0.5775(6)
H4 H 0.2714 0.2289 0.6255
C8 C 0.0510(7) 0.0807(7) 0.2072(5)
C9 C 0.1800(7) 0.1982(7) 0.1922(5)
H5 H 0.1993 0.2950 0.2251
C10 C 0.2818(7) 0.1693(6) 0.1264(5)
C11 C 0.2526(7) 0.0246(7) 0.0786(5)
H6 H 0.3240 0.0056 0.0390
C14 C 0.4184(7) 0.2952(7) 0.1020(5)
O1 O 0.1207(6) 0.5038(5) 0.7848(4)
O2 O 0.2790(5) 0.3871(5) 0.8200(4)
O6 O 0.5468(5) 0.2800(5) 0.1034(4)
Tm1 Tm 0.27485(3) 0.54484(2) 0.98976(2)
O11 O 0.4532(5) 0.7200(5) 0.8966(4)
O12 O 0.1927(5) 0.7321(5) 0.9939(4)
O13 O 0.0495(5) 0.3458(5) 0.9714(4)
Tm3 Tm 0.72515(3) 0.45516(2) 0.01024(2)
H7 H 0.9248 0.8575 0.1642
O8 O 0.9505(5) 0.6542(5) 0.0286(4)
H7_2 H 0.0752 0.1425 0.8358
O7 O 0.8073(5) 0.2679(5) 0.0061(4)
C1_2 C 0.8265(7) 0.5892(7) 0.2518(6)
C2_2 C 0.8839(8) 0.6713(7) 0.3737(6)
C5_2 C 0.9924(8) 0.8192(7) 0.6107(6)
C6_2 C 0.8669(10) 0.8353(9) 0.5368(7)
H3_2 H 0.8200 0.8960 0.5658
C7_2 C 0.8140(9) 0.7617(9) 0.4225(6)
H4_2 H 0.7286 0.7711 0.3745
C8_2 C 0.9490(7) 0.9193(7) 0.7928(5)
C9_2 C 0.8200(7) 0.8018(7) 0.8078(5)
H5_2 H 0.8007 0.7050 0.7749
C10_2 C 0.7182(7) 0.8307(6) 0.8736(5)
C11_2 C 0.7474(7) 0.9754(7) 0.9214(5)
H6_2 H 0.6760 0.9944 0.9610
C14_2 C 0.5816(7) 0.7048(7) 0.8980(5)
O1_2 O 0.8793(6) 0.4962(5) 0.2152(4)
O2_2 O 0.7210(5) 0.6129(5) 0.1800(4)
O4 O 0.6017(5) 0.5897(5) 0.9216(4)
O3_2 O 0.8071(6) 0.4517(6) 0.8171(5)
O5_2 O 0.5139(5) 0.2832(5) 0.8551(4)
H8_2 H 0.891119 0.549571 0.815668
H9_2 H 0.715378 0.431913 0.750509
H10_2 H 0.537394 0.194748 0.832944
H11_2 H 0.502385 0.332077 0.783348
C12 C 0.1187(7) 0.9088(6) 0.0890(5)
C13 C 0.0149(7) 0.9352(7) 0.1553(5)
C15 C 0.0827(7) 0.7531(6) 0.0327(5)
C3 C 0.9867(9) 0.3391(9) 0.5499(7)
H1 H 0.9351 0.3950 0.5793
C4 C 0.9350(9) 0.2671(9) 0.4314(7)
H2 H 0.8518 0.2775 0.3812
O9 O 0.9457(5) 0.1058(5) 0.2715(4)
C3_2 C 0.0133(9) 0.6609(9) 0.4501(7)
H1_2 H 0.0649 0.6050 0.4207
C4_2 C 0.0650(9) 0.7329(9) 0.5686(7)
H2_2 H 0.1482 0.7225 0.6188
O9_2 O 0.0543(5) 0.8942(5) 0.7285(4)
C12_2 C 0.8813(7) 0.0912(6) 0.9110(5)
C13_2 C 0.9851(7) 0.0648(7) 0.8447(5)
C15_2 C 0.9173(7) 0.2469(6) 0.9673(5)
loop_
_geom_bond_atom_site_label_1
_geom_bond_atom_site_label_2
_geom_bond_site_symmetry_1
_geom_bond_site_symmetry_2
O3 H8 1_555 1_555
O3 H9 1_555 1_555
O5 H10 1_555 1_555
O5 H11 1_555 1_555
C1 C2 1_555 1_555
C6 C5 1_555 1_555
H3 C6 1_555 1_555
C7 C2 1_555 1_555
H4 C7 1_555 1_555
C8 C9 1_555 1_555
C9 H5 1_555 1_555
C10 C9 1_555 1_555
C11 C10 1_555 1_555
H6 C11 1_555 1_555
C14 C10 1_555 1_555
O1 C1 1_555 1_555
O2 C1 1_555 1_555
O10 C14 1_555 1_555
O6 C14 1_555 1_555
Tm1 O1 1_555 1_555
O11 Tm1 1_555 1_555
O12 Tm1 1_555 1_555
O13 Tm1 1_555 1_555
Tm3 O6 1_555 1_555
C6 C7 1_555 1_555
O2 Tm1 1_555 1_555
Tm3 O8 1_555 1_555
Tm3 O7 1_555 1_555
C1_2 C2_2 1_555 1_555
C6_2 C5_2 1_555 1_555
H3_2 C6_2 1_555 1_555
C7_2 C2_2 1_555 1_555
H4_2 C7_2 1_555 1_555
C8_2 C9_2 1_555 1_555
C9_2 H5_2 1_555 1_555
C10_2 C9_2 1_555 1_555
C11_2 C10_2 1_555 1_555
H6_2 C11_2 1_555 1_555
C14_2 C10_2 1_555 1_555
O1_2 C1_2 1_555 1_555
O2_2 C1_2 1_555 1_555
O4 C14_2 1_555 1_555
O11 C14_2 1_555 1_555
Tm3 O1_2 1_555 1_555
C6_2 C7_2 1_555 1_555
O2_2 Tm3 1_555 1_555
O3_2 H8_2 1_555 1_555
O3_2 H9_2 1_555 1_555
O5_2 H10_2 1_555 1_555
O5_2 H11_2 1_555 1_555
C15 C12 1_555 1_555
C12 C13 1_555 1_555
C3 H1 1_555 1_555
C4 C3 1_555 1_555
H2 C4 1_555 1_555
C3_2 H1_2 1_555 1_555
C4_2 C3_2 1_555 1_555
H2_2 C4_2 1_555 1_555
C15_2 C12_2 1_555 1_555
C12_2 C13_2 1_555 1_555

#END
