
###############################################################################
#
# This file contains modified crystal structure data generated from the
# MOF subset of the Cambridge Structural Database (CSD) v543 
# hosted by the Cambridge Crystallographic Data Centre (CCDC).
#
# This work is licensed under the Creative Commons
# Attribution-NonCommercial-ShareAlike 4.0 International License.
# To view a copy of this license, visit
# http://creativecommons.org/licenses/by-nc-sa/4.0/
# or send a letter to
# Creative Commons, PO Box 1866, Mountain View, CA 94042, USA.
#
# CIF created using the CSD Python API on 29 September 2022
# The structure has been converted into the P1 space group
# The structure has a 3D framework
# The original CSD entry ELILAN is in the triclinic crystal system
# The framework has been calculated to contain at least 10.0% void space
# The void calculation uses a probe of radius 1.32A, grid spacing 0.4
# H atom positions have been added when not included in the experimental data
#
###############################################################################

data_ELILAN
_chemical_formula_moiety         '(C30 H22 Dy2 O14)n'
_symmetry_cell_setting           triclinic
_symmetry_space_group_name_H-M   'P 1'
_symmetry_Int_Tables_number      1
_space_group_name_Hall           'P 1'
loop_
_symmetry_equiv_pos_site_id
_symmetry_equiv_pos_as_xyz
1 x,y,z
_cell_length_a                   9.3410(8)
_cell_length_b                   9.8130(9)
_cell_length_c                   11.3950(10)
_cell_angle_alpha                94.2470(10)
_cell_angle_beta                 99.0870(10)
_cell_angle_gamma                111.2590(10)
_cell_volume                     951.371
loop_
_atom_site_label
_atom_site_type_symbol
_atom_site_fract_x
_atom_site_fract_y
_atom_site_fract_z
H11 H 0.000372444 0.665927 0.215046
O6 O 0.0468(5) 0.2706(5) 0.1079(4)
Dy3 Dy 0.22185(3) 0.45483(3) 0.01271(2)
C12 C 0.6152(7) 0.9069(6) 0.0899(5)
C13 C 0.5114(7) 0.9351(7) 0.1550(6)
H7 H 0.4198 0.8595 0.1628
C15 C 0.5788(7) 0.7527(7) 0.0316(6)
O7 O 0.4479(5) 0.6555(5) 0.0303(4)
O8 O 0.3130(5) 0.2690(5) 0.0098(4)
C1 C 0.3243(7) 0.5883(7) 0.2558(6)
C2 C 0.3844(8) 0.6715(7) 0.3766(6)
C3 C 0.5156(9) 0.6629(9) 0.4513(7)
H1 H 0.5675 0.6072 0.4215
C4 C 0.5693(9) 0.7361(8) 0.5688(7)
H2 H 0.6542 0.7272 0.6176
C5 C 0.4952(8) 0.8212(7) 0.6113(6)
C6 C 0.3683(9) 0.8366(8) 0.5379(6)
H3 H 0.3206 0.8969 0.5667
C7 C 0.3158(9) 0.7629(8) 0.4249(6)
H4 H 0.2308 0.7731 0.3772
C8 C 0.4513(7) 0.9218(7) 0.7927(5)
C9 C 0.3220(7) 0.8061(6) 0.8087(5)
H5 H 0.3030 0.7098 0.7765
C10 C 0.2204(7) 0.8354(6) 0.8737(5)
C11 C 0.2493(7) 0.9789(6) 0.9212(6)
H6 H 0.1776 0.9988 0.9606
C14 C 0.0804(7) 0.7114(6) 0.8970(5)
O1 O 0.3787(5) 0.4952(5) 0.2190(4)
O2 O 0.2184(5) 0.6101(5) 0.1855(4)
O4 O 0.0964(5) 0.5954(5) 0.9243(4)
O9 O 0.5558(5) 0.8949(5) 0.7265(4)
O3 O 0.0122(5) 0.2836(5) 0.8560(5)
O5 O 0.3082(6) 0.4543(6) 0.8177(5)
H8 H 0.390775 0.551904 0.815667
H9 H 0.217495 0.434853 0.751271
H10 H 0.0385476 0.197317 0.832767
O3_2 O 0.9878(5) 0.7164(5) 0.1440(5)
O5_2 O 0.6918(6) 0.5457(6) 0.1823(5)
O10 O 0.9036(5) 0.4046(5) 0.0757(4)
H8_2 H 0.609225 0.448096 0.184333
H9_2 H 0.782505 0.565147 0.248729
H10_2 H 0.961452 0.802683 0.167233
C1_2 C 0.6757(7) 0.4117(7) 0.7442(6)
C2_2 C 0.6156(8) 0.3285(7) 0.6234(6)
C3_2 C 0.4844(9) 0.3371(9) 0.5487(7)
H1_2 H 0.4325 0.3928 0.5785
C4_2 C 0.4307(9) 0.2639(8) 0.4312(7)
H2_2 H 0.3458 0.2728 0.3824
C5_2 C 0.5048(8) 0.1788(7) 0.3887(6)
C6_2 C 0.6317(9) 0.1634(8) 0.4621(6)
H3_2 H 0.6794 0.1031 0.4333
C7_2 C 0.6842(9) 0.2371(8) 0.5751(6)
H4_2 H 0.7692 0.2269 0.6228
C8_2 C 0.5487(7) 0.0782(7) 0.2073(5)
C9_2 C 0.6780(7) 0.1939(6) 0.1913(5)
H5_2 H 0.6970 0.2902 0.2235
C10_2 C 0.7796(7) 0.1646(6) 0.1263(5)
C11_2 C 0.7507(7) 0.0211(6) 0.0788(6)
H6_2 H 0.8224 0.0012 0.0394
C14_2 C 0.9196(7) 0.2886(6) 0.1030(5)
Dy1 Dy 0.77815(3) 0.54517(3) 0.98729(2)
O1_2 O 0.6213(5) 0.5048(5) 0.7810(4)
O2_2 O 0.7816(5) 0.3899(5) 0.8145(4)
O9_2 O 0.4442(5) 0.1051(5) 0.2735(4)
O11 O 0.9532(5) 0.7294(5) 0.8921(4)
O12 O 0.5521(5) 0.3445(5) 0.9697(4)
O13 O 0.6870(5) 0.7310(5) 0.9902(4)
C12_2 C 0.3848(7) 0.0931(6) 0.9101(5)
C13_2 C 0.4886(7) 0.0649(7) 0.8450(6)
H7_2 H 0.5802 0.1405 0.8372
C15_2 C 0.4212(7) 0.2473(7) 0.9684(6)
H11_2 H 0.999628 0.334073 0.784954
loop_
_geom_bond_atom_site_label_1
_geom_bond_atom_site_label_2
_geom_bond_site_symmetry_1
_geom_bond_site_symmetry_2
Dy3 O6 1_555 1_555
H7 C13 1_555 1_555
C15 C12 1_555 1_555
O7 C15 1_555 1_555
Dy3 O7 1_555 1_555
C12 C13 1_555 1_555
Dy3 O8 1_555 1_555
C1 C2 1_555 1_555
C2 C3 1_555 1_555
C3 H1 1_555 1_555
C4 C3 1_555 1_555
H2 C4 1_555 1_555
C5 C4 1_555 1_555
C6 C5 1_555 1_555
H3 C6 1_555 1_555
C7 C2 1_555 1_555
H4 C7 1_555 1_555
C8 C9 1_555 1_555
C9 H5 1_555 1_555
C10 C9 1_555 1_555
C11 C10 1_555 1_555
H6 C11 1_555 1_555
C14 C10 1_555 1_555
Dy3 O1 1_555 1_555
O1 C1 1_555 1_555
O2 C1 1_555 1_555
O4 C14 1_555 1_555
O9 C5 1_555 1_555
C6 C7 1_555 1_555
C8 O9 1_555 1_555
Dy3 O2 1_555 1_555
O5 H8 1_555 1_555
O5 H9 1_555 1_555
O3 H10 1_555 1_555
O5_2 H8_2 1_555 1_555
O5_2 H9_2 1_555 1_555
O3_2 H10_2 1_555 1_555
C1_2 C2_2 1_555 1_555
C2_2 C3_2 1_555 1_555
C3_2 H1_2 1_555 1_555
C4_2 C3_2 1_555 1_555
H2_2 C4_2 1_555 1_555
C5_2 C4_2 1_555 1_555
C6_2 C5_2 1_555 1_555
H3_2 C6_2 1_555 1_555
C7_2 C2_2 1_555 1_555
H4_2 C7_2 1_555 1_555
C8_2 C9_2 1_555 1_555
C9_2 H5_2 1_555 1_555
C10_2 C9_2 1_555 1_555
C11_2 C10_2 1_555 1_555
H6_2 C11_2 1_555 1_555
C14_2 C10_2 1_555 1_555
Dy1 O1_2 1_555 1_555
O1_2 C1_2 1_555 1_555
O2_2 C1_2 1_555 1_555
O10 C14_2 1_555 1_555
O9_2 C5_2 1_555 1_555
O11 Dy1 1_555 1_555
O12 Dy1 1_555 1_555
O13 Dy1 1_555 1_555
C6_2 C7_2 1_555 1_555
C8_2 O9_2 1_555 1_555
Dy1 O2_2 1_555 1_555
H7_2 C13_2 1_555 1_555
C15_2 C12_2 1_555 1_555
O12 C15_2 1_555 1_555
C12_2 C13_2 1_555 1_555

#END
