
###############################################################################
#
# This file contains modified crystal structure data generated from the
# MOF subset of the Cambridge Structural Database (CSD) v543 
# hosted by the Cambridge Crystallographic Data Centre (CCDC).
#
# This work is licensed under the Creative Commons
# Attribution-NonCommercial-ShareAlike 4.0 International License.
# To view a copy of this license, visit
# http://creativecommons.org/licenses/by-nc-sa/4.0/
# or send a letter to
# Creative Commons, PO Box 1866, Mountain View, CA 94042, USA.
#
# CIF created using the CSD Python API on 29 September 2022
# The structure has been converted into the P1 space group
# The structure has a 3D framework
# The original CSD entry ELILER is in the triclinic crystal system
# The framework has been calculated to contain at least 10.0% void space
# The void calculation uses a probe of radius 1.32A, grid spacing 0.4
# H atom positions have been added when not included in the experimental data
#
###############################################################################

data_ELILER
_chemical_formula_moiety         '(C30 H22 Er2 O14)n'
_symmetry_cell_setting           triclinic
_symmetry_space_group_name_H-M   'P 1'
_symmetry_Int_Tables_number      1
_space_group_name_Hall           'P 1'
loop_
_symmetry_equiv_pos_site_id
_symmetry_equiv_pos_as_xyz
1 x,y,z
_cell_length_a                   9.3490(12)
_cell_length_b                   9.8000(13)
_cell_length_c                   11.3790(15)
_cell_angle_alpha                94.441(2)
_cell_angle_beta                 99.3050(10)
_cell_angle_gamma                111.5270(10)
_cell_volume                     946.381
loop_
_atom_site_label
_atom_site_type_symbol
_atom_site_fract_x
_atom_site_fract_y
_atom_site_fract_z
O3 O 0.4860(6) 0.7165(6) 0.1444(5)
O5 O 0.1912(7) 0.5475(7) 0.1809(5)
O11 O 0.3998(6) 0.4094(5) 0.0781(5)
H8 H 0.461439 0.804224 0.166686
H9 H 0.49756 0.666989 0.216206
H10 H 0.107408 0.449941 0.182561
H11 H 0.281945 0.566723 0.247775
C1 C 0.1761(8) 0.4130(8) 0.7470(6)
C2 C 0.1170(9) 0.3302(8) 0.6259(7)
C3 C 0.1851(10) 0.2376(10) 0.5767(7)
H1 H 0.2706 0.2277 0.6242
C4 C 0.1306(10) 0.1631(9) 0.4633(7)
H2 H 0.1768 0.1016 0.4345
C5 C 0.0047(9) 0.1790(8) 0.3898(7)
C8 C 0.0493(8) 0.0778(8) 0.2065(6)
C11 C 0.2505(8) 0.0231(7) 0.0789(6)
H6 H 0.3219 0.0036 0.0391
C12 C 0.2811(8) 0.1680(8) 0.1268(6)
C13 C 0.1790(8) 0.1959(8) 0.1909(6)
H7 H 0.1971 0.2924 0.2231
C15 C 0.4169(8) 0.2915(8) 0.1032(6)
Er1 Er 0.27581(3) 0.54510(3) 0.98869(3)
O1 O 0.1222(6) 0.5052(6) 0.7833(5)
O2 O 0.2802(6) 0.3885(6) 0.8174(5)
O4 O 0.5476(6) 0.2774(6) 0.1061(5)
Er2 Er 0.72419(3) 0.45490(3) 0.01131(3)
O10 O 0.4524(6) 0.7226(6) 0.8939(5)
O12 O 0.1898(6) 0.7313(6) 0.9910(5)
O13 O 0.0503(6) 0.3447(5) 0.9707(5)
H5 H 0.9232 0.8595 0.1627
O8 O 0.9497(6) 0.6553(5) 0.0293(5)
H5_2 H 0.0768 0.1405 0.8373
O7 O 0.8102(6) 0.2687(6) 0.0090(5)
C1_2 C 0.8239(8) 0.5870(8) 0.2530(6)
C2_2 C 0.8830(9) 0.6698(8) 0.3741(7)
C3_2 C 0.8149(10) 0.7624(10) 0.4233(7)
H1_2 H 0.7294 0.7723 0.3758
C4_2 C 0.8694(10) 0.8369(9) 0.5367(7)
H2_2 H 0.8232 0.8984 0.5655
C5_2 C 0.9953(9) 0.8210(8) 0.6102(7)
C8_2 C 0.9507(8) 0.9222(8) 0.7935(6)
C11_2 C 0.7495(8) 0.9769(7) 0.9211(6)
H6_2 H 0.6781 0.9964 0.9609
C12_2 C 0.7189(8) 0.8320(8) 0.8732(6)
C13_2 C 0.8210(8) 0.8041(8) 0.8091(6)
H7_2 H 0.8029 0.7076 0.7769
C15_2 C 0.5831(8) 0.7085(8) 0.8968(6)
O1_2 O 0.8778(6) 0.4948(6) 0.2167(5)
O2_2 O 0.7198(6) 0.6115(6) 0.1826(5)
O6 O 0.6002(6) 0.5906(5) 0.9219(5)
O3_2 O 0.5140(6) 0.2835(6) 0.8556(5)
O5_2 O 0.8088(7) 0.4525(7) 0.8191(5)
H8_2 H 0.538561 0.195776 0.833314
H9_2 H 0.50244 0.333011 0.783794
H10_2 H 0.892592 0.550059 0.817439
H11_2 H 0.718055 0.433277 0.752225
C9 C 0.0143(8) 0.9360(8) 0.1544(6)
C10 C 0.1156(8) 0.9071(8) 0.0894(6)
C14 C 0.0815(8) 0.7542(8) 0.0336(6)
C6 C 0.9316(10) 0.2651(10) 0.4324(8)
H3 H 0.8470 0.2744 0.3832
C7 C 0.9854(10) 0.3378(10) 0.5496(7)
H4 H 0.9336 0.3936 0.5792
O9 O 0.9435(6) 0.1044(6) 0.2727(4)
C6_2 C 0.0684(10) 0.7349(10) 0.5676(8)
H3_2 H 0.1530 0.7256 0.6168
C7_2 C 0.0146(10) 0.6622(10) 0.4504(7)
H4_2 H 0.0664 0.6064 0.4208
O9_2 O 0.0565(6) 0.8956(6) 0.7273(4)
C9_2 C 0.9857(8) 0.0640(8) 0.8456(6)
C10_2 C 0.8844(8) 0.0929(8) 0.9106(6)
C14_2 C 0.9185(8) 0.2458(8) 0.9664(6)
loop_
_geom_bond_atom_site_label_1
_geom_bond_atom_site_label_2
_geom_bond_site_symmetry_1
_geom_bond_site_symmetry_2
O3 H8 1_555 1_555
O3 H9 1_555 1_555
O5 H10 1_555 1_555
O5 H11 1_555 1_555
C1 C2 1_555 1_555
C2 C3 1_555 1_555
C3 H1 1_555 1_555
C4 C3 1_555 1_555
H2 C4 1_555 1_555
C5 C4 1_555 1_555
H6 C11 1_555 1_555
C12 C11 1_555 1_555
C13 C8 1_555 1_555
H7 C13 1_555 1_555
C15 C12 1_555 1_555
Er1 O1 1_555 1_555
O1 C1 1_555 1_555
O2 C1 1_555 1_555
O4 C15 1_555 1_555
O11 C15 1_555 1_555
Er2 O4 1_555 1_555
O10 Er1 1_555 1_555
O12 Er1 1_555 1_555
O13 Er1 1_555 1_555
C12 C13 1_555 1_555
Er1 O2 1_555 1_555
Er2 O8 1_555 1_555
Er2 O7 1_555 1_555
C1_2 C2_2 1_555 1_555
C2_2 C3_2 1_555 1_555
C3_2 H1_2 1_555 1_555
C4_2 C3_2 1_555 1_555
H2_2 C4_2 1_555 1_555
C5_2 C4_2 1_555 1_555
H6_2 C11_2 1_555 1_555
C12_2 C11_2 1_555 1_555
C13_2 C8_2 1_555 1_555
H7_2 C13_2 1_555 1_555
C15_2 C12_2 1_555 1_555
Er2 O1_2 1_555 1_555
O1_2 C1_2 1_555 1_555
O2_2 C1_2 1_555 1_555
O10 C15_2 1_555 1_555
O6 C15_2 1_555 1_555
C12_2 C13_2 1_555 1_555
Er2 O2_2 1_555 1_555
O3_2 H8_2 1_555 1_555
O3_2 H9_2 1_555 1_555
O5_2 H10_2 1_555 1_555
O5_2 H11_2 1_555 1_555
C10 C9 1_555 1_555
C14 C10 1_555 1_555
H3 C6 1_555 1_555
H4 C7 1_555 1_555
C6 C7 1_555 1_555
H3_2 C6_2 1_555 1_555
H4_2 C7_2 1_555 1_555
C6_2 C7_2 1_555 1_555
C10_2 C9_2 1_555 1_555
C14_2 C10_2 1_555 1_555

#END
