
###############################################################################
#
# This file contains modified crystal structure data generated from the
# MOF subset of the Cambridge Structural Database (CSD) v543 
# hosted by the Cambridge Crystallographic Data Centre (CCDC).
#
# This work is licensed under the Creative Commons
# Attribution-NonCommercial-ShareAlike 4.0 International License.
# To view a copy of this license, visit
# http://creativecommons.org/licenses/by-nc-sa/4.0/
# or send a letter to
# Creative Commons, PO Box 1866, Mountain View, CA 94042, USA.
#
# CIF created using the CSD Python API on 29 September 2022
# The structure has been converted into the P1 space group
# The structure has a 3D framework
# The original CSD entry ELISEA is in the trigonal crystal system
# The framework has been calculated to contain at least 10.0% void space
# The void calculation uses a probe of radius 1.32A, grid spacing 0.4
# The framework is charged, counterions have been retained in the structure
# H atom positions have been added when not included in the experimental data
#
###############################################################################

data_ELISEA
_chemical_formula_moiety         '(C192 H240 Co22 N48 O156 U12 3-)n'
_symmetry_cell_setting           triclinic
_symmetry_space_group_name_H-M   'P 1'
_symmetry_Int_Tables_number      1
_space_group_name_Hall           'P 1'
loop_
_symmetry_equiv_pos_site_id
_symmetry_equiv_pos_as_xyz
1 x,y,z
_cell_length_a                   17.4311(2)
_cell_length_b                   17.4311(2)
_cell_length_c                   43.4638(13)
_cell_angle_alpha                90
_cell_angle_beta                 90
_cell_angle_gamma                120
_cell_volume                     11436.9
loop_
_atom_site_label
_atom_site_type_symbol
_atom_site_fract_x
_atom_site_fract_y
_atom_site_fract_z
C4 C 0.2944(14) 0.0015(18) 0.3746(3)
C5 C 0.2744(15) 0.0020(15) 0.3405(3)
H1 H 0.3221 0.0569 0.3322
C8 C 0.3713(11) 0.1004(13) 0.4470(4)
C9 C 0.3330(10) 0.0368(11) 0.4201(4)
H7 H 0.2039 0.0449 0.3157
H9 H 0.1278 0.0418 0.3515
Co1 Co 0.43067(13) 0.20557(13) 0.38790(5)
N1 N 0.3428(8) 0.0731(8) 0.3923(3)
O3 O 0.4161(9) 0.1827(8) 0.4383(3)
O4 O 0.3637(10) 0.0774(9) 0.4742(3)
O13 O 0.5286(14) 0.175(2) 0.3843(5)
O26 O 0.5520(34) 0.3635(19) 0.3915(5)
N26 N 0.3408(9) 0.2487(16) 0.3798(3)
O80 O 0.4323(8) 0.2168(14) 0.3370(3)
O85 O 0.4703(11) 0.1096(18) 0.5247(3)
H87 H 0.610253 0.366552 0.389691
H88 H 0.545536 0.398211 0.374607
H117 H 0.517049 0.135798 0.36624
H118 H 0.586435 0.230233 0.381638
C3 C 0.2831(12) 0.9509(15) 0.4199(4)
H2 H 0.2800 0.9545 0.3312
C7 C 0.0307(11) 0.7099(9) 0.3472(4)
H3 H 0.0318 0.7248 0.4403
C11 C 0.008(2) 0.8272(16) 0.4341(6)
H5 H 0.0711 0.8652 0.4317
C12 C 0.0899(13) 0.7318(14) 0.3241(5)
C13 C 0.189(2) 0.994(3) 0.3283(11)
H8 H 0.1610 0.9418 0.3151
C14 C 0.2494(16) 0.8773(13) 0.4422(5)
C15 C 0.126(4) 0.986(4) 0.3522(14)
H10 H 0.1397 0.9756 0.3726
H11 H 0.0672 0.9394 0.3468
H14 H 0.0334 0.8878 0.4762
Co2 Co 0.18536(15) 0.79544(15) 0.38221(5)
N2 N 0.2568(10) 0.9265(10) 0.3896(4)
N3 N 0.0560(8) 0.7388(8) 0.3793(3)
O5 O 0.2644(9) 0.8862(8) 0.4707(3)
O6 O 0.3280(12) 0.8152(11) 0.5089(4)
O7 O 0.1989(10) 0.7956(10) 0.4328(4)
O8 O 0.4561(10) 0.9828(10) 0.4803(5)
O9 O 0.2928(18) 0.9695(18) 0.5280(6)
O10 O 0.1696(9) 0.7780(9) 0.3318(3)
O11 O 0.0670(7) 0.7168(10) 0.2966(3)
O12 O 0.2602(15) 0.7384(16) 0.3791(7)
U1 U 0.37740(6) 0.97452(5) 0.504169(15)
C23 C 0.0619(20) 0.5539(15) 0.0769(4)
C25 C 0.1398(18) 0.5626(12) 0.0670(3)
C26 C 0.1636(20) 0.6433(14) 0.1095(4)
C27 C 0.2080(25) 0.7105(19) 0.1349(5)
H17 H 0.1804 0.6841 0.1545
H18 H 0.2699 0.7271 0.1361
C30 C 0.201(4) 0.792(3) 0.1294(17)
H24 H 0.2140 0.8042 0.1076
H25 H 0.2515 0.8386 0.1401
C31 C 0.1683(27) 0.5291(15) 0.0424(4)
C32 C 0.129(18) 0.815(17) 0.135(6)
H26 H 0.0904 0.7608 0.1240
H27 H 0.1212 0.8618 0.1268
H28 H 0.1135 0.8069 0.1564
Co5 Co 0.3334 0.6667 0.07222(7)
N7 N 0.0744(15) 0.6080(10) 0.1026(4)
N8 N 0.2070(13) 0.6230(9) 0.0883(3)
O15 O 0.0060(15) 0.6975(10) 0.1551(3)
O21 O 0.1096(18) 0.4703(11) 0.0247(3)
O24 O 0.1208(18) 0.7873(12) 0.2385(4)
O25 O 0.2492(16) 0.5593(9) 0.0384(3)
N28 N 0.3770(9) 0.5840(16) 0.0883(3)
N29 N 0.4160(16) 0.7930(13) 0.0883(3)
O82 O 0.4619(14) 0.9525(18) 0.5398(5)
O88 O 0.4407(9) 0.6899(18) 0.0384(3)
O89 O 0.3101(18) 0.7508(16) 0.0384(3)
H85 H 0.162117 0.765849 0.244053
H86 H 0.120498 0.794022 0.215821
H115 H 0.345898 0.795152 0.490243
H116 H 0.35572 0.805464 0.527332
H119 H 0.293631 0.747915 0.398563
H120 H 0.221639 0.673869 0.375458
C1 C 0.8644(18) 0.6110(12) 0.3281(4)
C2 C 0.9313(17) 0.6593(11) 0.3500(4)
C6 C 0.9834(10) 0.7057(11) 0.3966(3)
C10 C 0.9870(14) 0.7325(15) 0.4298(4)
H4 H 0.9304 0.6930 0.4393
H6 H 0.9797 0.8408 0.4174
C16 C 0.982(3) 0.854(4) 0.4636(10)
H12 H 0.9403 0.8016 0.4745
H13 H 0.9550 0.8890 0.4589
N4 N 0.9079(13) 0.6592(9) 0.3798(3)
O1 O 0.8843(14) 0.6079(9) 0.2994(3)
O2 O 0.7845(11) 0.5677(8) 0.3370(3)
C17 C 0.7871(19) 0.5146(14) 0.2260(3)
C18 C 0.8284(18) 0.5079(13) 0.1950(4)
C19 C 0.8902(18) 0.5700(13) 0.1756(4)
C20 C 0.8306(16) 0.4372(11) 0.1537(5)
C21 C 0.8177(18) 0.3672(13) 0.1303(4)
H15 H 0.8223 0.3909 0.1098
H16 H 0.7586 0.3165 0.1326
C22 C 0.9541(19) 0.6571(14) 0.1781(4)
C24 C 0.9725(18) 0.5068(13) 0.0655(5)
C28 C 0.8851(34) 0.337(3) 0.1338(9)
H19 H 0.9452 0.3846 0.1303
H20 H 0.8811 0.3099 0.1537
C29 C 0.852(8) 0.270(5) 0.1080(16)
H21 H 0.8199 0.2133 0.1179
H22 H 0.8945 0.2703 0.0941
H23 H 0.8108 0.2811 0.0968
Co3 Co 0.96982(22) 0.60790(16) 0.11773(5)
Co4 Co 0.6666 0.3333 0.20163(8)
N5 N 0.8954(14) 0.5256(10) 0.1512(3)
N6 N 0.7867(12) 0.4279(8) 0.1819(3)
O14 O 0.9690(13) 0.7076(9) 0.2034(3)
O16 O 0.8237(12) 0.5880(8) 0.2397(2)
O17 O 0.7194(11) 0.4465(8) 0.2335(2)
O18 O 0.9144(14) 0.5172(10) 0.0793(3)
O19 O 0.9525(18) 0.4619(14) 0.0398(5)
O20 O 0.9477(14) 0.7637(10) 0.2622(4)
O22 O 0.9422(17) 0.6891(13) 0.0945(3)
O23 O 0.9872(13) 0.5900(9) 0.2487(3)
U2 U 0.96899(7) 0.67863(5) 0.256353(16)
C33 C 0.3890(12) 0.2534(22) 0.3281(4)
C34 C 0.3407(11) 0.2720(20) 0.3500(4)
C35 C 0.0491(15) 0.3322(19) 0.4199(4)
H30 H 0.0455 0.3255 0.3312
C38 C 0.2943(11) 0.2777(15) 0.3966(3)
C39 C 0.2901(9) 0.3208(14) 0.3472(4)
C42 C 0.2675(15) 0.2545(21) 0.4298(4)
H31 H 0.2752 0.3070 0.4403
H32 H 0.3070 0.2374 0.4393
C43 C 0.1728(16) 0.1808(26) 0.4341(6)
H33 H 0.1348 0.2059 0.4317
H34 H 0.1592 0.1389 0.4174
C44 C 0.2682(14) 0.3581(19) 0.3241(5)
C45 C 0.006(3) 0.195(4) 0.3283(11)
H36 H 0.0582 0.2192 0.3151
C46 C 0.1227(13) 0.3721(21) 0.4422(5)
C47 C 0.014(4) 0.140(6) 0.3522(14)
H38 H 0.0244 0.1641 0.3726
H39 H 0.0606 0.1278 0.3468
C48 C 0.146(4) 0.128(5) 0.4636(10)
H40 H 0.1984 0.1387 0.4745
H41 H 0.1110 0.0660 0.4589
H42 H 0.1122 0.1456 0.4762
Co7 Co 0.20456(15) 0.38992(21) 0.38221(5)
N10 N 0.0735(10) 0.3303(14) 0.3896(4)
N11 N 0.2612(8) 0.3172(11) 0.3793(3)
O27 O 0.3921(9) 0.2764(17) 0.2994(3)
O31 O 0.1138(8) 0.3782(12) 0.4707(3)
O32 O 0.1848(11) 0.5128(16) 0.5089(4)
O33 O 0.2044(10) 0.4033(14) 0.4328(4)
O34 O 0.0172(10) 0.4733(14) 0.4803(5)
O35 O 0.0305(18) 0.3233(25) 0.5280(6)
O36 O 0.2220(9) 0.3916(13) 0.3318(3)
O37 O 0.2832(10) 0.3502(12) 0.2966(3)
O38 O 0.2616(16) 0.5218(22) 0.3791(7)
U3 U 0.02548(5) 0.40288(8) 0.504169(15)
C49 C 0.4854(14) 0.2725(24) 0.2260(3)
C50 C 0.4921(13) 0.3205(22) 0.1950(4)
C51 C 0.4300(13) 0.3202(22) 0.1756(4)
C52 C 0.5628(11) 0.3934(19) 0.1537(5)
C53 C 0.6328(13) 0.4505(22) 0.1303(4)
H43 H 0.6091 0.4314 0.1098
H44 H 0.6835 0.4421 0.1326
C54 C 0.3429(14) 0.2970(24) 0.1781(4)
C55 C 0.4461(15) 0.5080(25) 0.0769(4)
C56 C 0.4932(13) 0.4657(22) 0.0655(5)
C57 C 0.4374(12) 0.5772(22) 0.0670(3)
C58 C 0.3567(14) 0.5203(24) 0.1095(4)
C59 C 0.2895(19) 0.4975(31) 0.1349(5)
H45 H 0.3159 0.4963 0.1545
H46 H 0.2729 0.5428 0.1361
C60 C 0.663(3) 0.5481(45) 0.1338(9)
H47 H 0.6154 0.5606 0.1303
H48 H 0.6901 0.5712 0.1537
C61 C 0.730(5) 0.582(9) 0.1080(16)
H49 H 0.7867 0.6066 0.1179
H50 H 0.7297 0.6242 0.0941
H51 H 0.7189 0.5297 0.0968
C62 C 0.208(3) 0.409(5) 0.1294(17)
H52 H 0.1958 0.4098 0.1076
H53 H 0.1614 0.4129 0.1401
C63 C 0.4709(15) 0.6392(31) 0.0424(4)
C64 C 0.185(17) 0.314(25) 0.135(6)
H54 H 0.2392 0.3296 0.1240
H55 H 0.1382 0.2594 0.1268
H56 H 0.1931 0.3066 0.1564
Co8 Co 0.39210(16) 0.36192(27) 0.11773(5)
N13 N 0.4744(10) 0.3698(17) 0.1512(3)
N14 N 0.5721(8) 0.3588(14) 0.1819(3)
N15 N 0.3920(10) 0.4664(18) 0.1026(4)
O40 O 0.2924(9) 0.2614(16) 0.2034(3)
O41 O 0.3025(10) 0.3085(18) 0.1551(3)
O42 O 0.4120(8) 0.2357(14) 0.2397(2)
O43 O 0.5535(8) 0.2729(14) 0.2335(2)
O44 O 0.4828(10) 0.3972(17) 0.0793(3)
O45 O 0.5381(14) 0.4906(23) 0.0398(5)
O46 O 0.2363(10) 0.1840(17) 0.2622(4)
O47 O 0.5297(11) 0.6393(21) 0.0247(3)
O48 O 0.3109(13) 0.2531(21) 0.0945(3)
O49 O 0.4100(9) 0.3972(16) 0.2487(3)
O50 O 0.2127(12) 0.3335(22) 0.2385(4)
U4 U 0.32137(5) 0.29036(9) 0.256353(16)
C65 C 0.7466(22) 0.1356(18) 0.3281(4)
C66 C 0.7280(20) 0.0687(17) 0.3500(4)
C70 C 0.7223(15) 0.0166(10) 0.3966(3)
C74 C 0.7455(21) 0.0130(14) 0.4298(4)
H60 H 0.7626 0.0696 0.4393
H62 H 0.8611 0.0203 0.4174
C80 C 0.872(5) 0.018(3) 0.4636(10)
H68 H 0.8613 0.0597 0.4745
H69 H 0.9340 0.0450 0.4589
N20 N 0.7513(16) 0.0921(13) 0.3798(3)
O53 O 0.7236(17) 0.1157(14) 0.2994(3)
O54 O 0.7832(14) 0.2155(11) 0.3370(3)
C81 C 0.7275(24) 0.2129(19) 0.2260(3)
C82 C 0.6795(22) 0.1716(18) 0.1950(4)
C83 C 0.6798(22) 0.1098(18) 0.1756(4)
C84 C 0.6066(19) 0.1694(16) 0.1537(5)
C85 C 0.5495(22) 0.1823(18) 0.1303(4)
H71 H 0.5686 0.1777 0.1098
H72 H 0.5579 0.2414 0.1326
C86 C 0.7030(24) 0.0459(19) 0.1781(4)
C88 C 0.5343(22) 0.0275(18) 0.0655(5)
C92 C 0.4519(45) 0.1149(34) 0.1338(9)
H75 H 0.4394 0.0548 0.1303
H76 H 0.4288 0.1189 0.1537
C93 C 0.418(9) 0.148(8) 0.1080(16)
H77 H 0.3934 0.1801 0.1179
H78 H 0.3758 0.1055 0.0941
H79 H 0.4703 0.1892 0.0968
Co11 Co 0.63808(27) 0.03018(22) 0.11773(5)
N21 N 0.6302(17) 0.1046(14) 0.1512(3)
N22 N 0.6412(14) 0.2133(12) 0.1819(3)
O66 O 0.7386(16) 0.0310(13) 0.2034(3)
O68 O 0.7643(14) 0.1763(12) 0.2397(2)
O69 O 0.7271(14) 0.2806(11) 0.2335(2)
O70 O 0.6028(17) 0.0856(14) 0.0793(3)
O71 O 0.5094(23) 0.0475(18) 0.0398(5)
O72 O 0.8160(17) 0.0523(14) 0.2622(4)
O74 O 0.7469(21) 0.0578(17) 0.0945(3)
O75 O 0.6028(16) 0.0128(13) 0.2487(3)
U6 U 0.70964(9) 0.03101(7) 0.256353(16)
Co13 Co 0.79443(13) 0.22510(18) 0.38790(5)
Co14 Co 0.77490(18) 0.56933(13) 0.38790(5)
U7 U 0.97452(5) 0.37740(6) 0.004169(15)
U8 U 0.62260(6) 0.59712(8) 0.004169(15)
U9 U 0.40288(8) 0.02548(5) 0.004169(15)
O83 O 0.0475(18) 0.5094(23) 0.5398(5)
H89 H 0.938416 0.731146 0.108982
H90 H 0.989685 0.722667 0.0791884
H91 H 0.204848 0.550746 0.490243
H92 H 0.194536 0.550256 0.527332
H93 H 0.252085 0.545716 0.398563
H94 H 0.326131 0.54777 0.375458
H97 H 0.268854 0.20727 0.108982
H98 H 0.277333 0.267017 0.0791884
H99 H 0.234151 0.396268 0.244053
H100 H 0.205978 0.326476 0.215821
H109 H 0.79273 0.0615843 0.108982
H110 H 0.732983 0.0103152 0.0791884
C67 C 0.6678(19) 0.7169(12) 0.4199(4)
C68 C 0.7071(23) 0.7056(14) 0.3746(3)
C69 C 0.7276(21) 0.7256(15) 0.3405(3)
H57 H 0.7348 0.6779 0.3322
H58 H 0.6745 0.7200 0.3312
C71 C 0.6792(14) 0.9693(11) 0.3472(4)
C72 C 0.7291(17) 0.6287(11) 0.4470(4)
C73 C 0.7038(15) 0.6670(10) 0.4201(4)
H59 H 0.6930 0.9682 0.4403
C75 C 0.8192(26) 0.992(2) 0.4341(6)
H61 H 0.7941 0.9289 0.4317
C76 C 0.6419(19) 0.9101(13) 0.3241(5)
C77 C 0.805(4) 0.811(2) 0.3283(11)
H63 H 0.8410 0.7961 0.3157
H64 H 0.7808 0.8390 0.3151
C78 C 0.6279(21) 0.7506(16) 0.4422(5)
C79 C 0.860(6) 0.874(4) 0.3522(14)
H65 H 0.9140 0.8722 0.3515
H66 H 0.8359 0.8603 0.3726
H67 H 0.8722 0.9328 0.3468
H70 H 0.8544 0.9666 0.4762
Co10 Co 0.61008(21) 0.81464(15) 0.38221(5)
N17 N 0.7303(11) 0.6572(8) 0.3923(3)
N18 N 0.6697(14) 0.7432(10) 0.3896(4)
N19 N 0.6828(11) 0.9440(8) 0.3793(3)
O55 O 0.7666(12) 0.5839(9) 0.4383(3)
O56 O 0.7137(13) 0.6363(10) 0.4742(3)
O57 O 0.6218(12) 0.7356(9) 0.4707(3)
O58 O 0.4872(16) 0.6720(12) 0.5089(4)
O59 O 0.5967(14) 0.8011(10) 0.4328(4)
O60 O 0.5267(14) 0.5439(10) 0.4803(5)
O61 O 0.6767(25) 0.7072(18) 0.5280(6)
O62 O 0.6084(13) 0.8304(9) 0.3318(3)
O63 O 0.6498(12) 0.9330(7) 0.2966(3)
O64 O 0.4782(22) 0.7398(15) 0.3791(7)
O65 O 0.6464(24) 0.4714(14) 0.3843(5)
U5 U 0.59712(8) 0.62260(6) 0.504169(15)
C87 C 0.4920(25) 0.9381(20) 0.0769(4)
C89 C 0.4228(22) 0.8602(18) 0.0670(3)
C90 C 0.4797(24) 0.8364(20) 0.1095(4)
C91 C 0.5025(31) 0.7920(25) 0.1349(5)
H73 H 0.5037 0.8196 0.1545
H74 H 0.4572 0.7301 0.1361
C94 C 0.591(5) 0.799(4) 0.1294(17)
H80 H 0.5902 0.7860 0.1076
H81 H 0.5871 0.7485 0.1401
C95 C 0.3608(31) 0.8317(27) 0.0424(4)
C96 C 0.686(25) 0.871(18) 0.135(6)
H82 H 0.6704 0.9096 0.1240
H83 H 0.7406 0.8788 0.1268
H84 H 0.6934 0.8865 0.1564
N23 N 0.5336(18) 0.9256(15) 0.1026(4)
O67 O 0.6915(18) 0.9940(15) 0.1551(3)
O73 O 0.3607(21) 0.8904(18) 0.0247(3)
O76 O 0.6665(22) 0.8792(18) 0.2385(4)
O78 O 0.8115(39) 0.4480(34) 0.3915(5)
O84 O 0.4906(23) 0.5381(14) 0.5398(5)
O87 O 0.6393(21) 0.5297(11) 0.5247(3)
H103 H 0.454284 0.706369 0.398563
H104 H 0.45223 0.778361 0.375458
H105 H 0.449254 0.654102 0.490243
H106 H 0.449744 0.64428 0.527332
H107 H 0.618749 0.482951 0.36624
H108 H 0.643798 0.413565 0.381638
H111 H 0.756299 0.389747 0.389691
H112 H 0.852675 0.454464 0.374607
H113 H 0.603732 0.837883 0.244053
H114 H 0.673524 0.879502 0.215821
C36 C 0.9985(18) 0.2929(23) 0.3746(3)
C37 C 0.9980(15) 0.2724(21) 0.3405(3)
H29 H 0.9431 0.2652 0.3322
C40 C 0.8996(13) 0.2709(17) 0.4470(4)
C41 C 0.9632(11) 0.2962(15) 0.4201(4)
H35 H 0.9551 0.1590 0.3157
H37 H 0.9582 0.0860 0.3515
N9 N 0.9269(8) 0.2697(11) 0.3923(3)
O29 O 0.8173(8) 0.2334(12) 0.4383(3)
O30 O 0.9226(9) 0.2863(13) 0.4742(3)
O39 O 0.825(2) 0.3536(24) 0.3843(5)
O52 O 0.6365(19) 0.1885(39) 0.3915(5)
O86 O 0.8904(18) 0.3607(21) 0.5247(3)
H95 H 0.864202 0.381251 0.36624
H96 H 0.769767 0.356202 0.381638
H101 H 0.633448 0.243701 0.389691
H102 H 0.601789 0.147325 0.374607
C4_2 C 0.0015(18) 0.2944(14) 0.8746(3)
C5_2 C 0.0020(15) 0.2744(15) 0.8405(3)
H1_2 H 0.0569 0.3221 0.8322
C8_2 C 0.1004(13) 0.3713(11) 0.9470(4)
C9_2 C 0.0368(11) 0.3330(10) 0.9201(4)
H7_2 H 0.0449 0.2039 0.8157
H9_2 H 0.0418 0.1278 0.8515
Co1_2 Co 0.20557(13) 0.43067(13) 0.88790(5)
N1_2 N 0.0731(8) 0.3428(8) 0.8923(3)
O3_2 O 0.1827(8) 0.4161(9) 0.9383(3)
O4_2 O 0.0774(9) 0.3637(10) 0.9742(3)
O13_2 O 0.175(2) 0.5286(14) 0.8843(5)
O26_2 O 0.3635(19) 0.5520(34) 0.8915(5)
N26_2 N 0.2487(16) 0.3408(9) 0.8798(3)
O80_2 O 0.2168(14) 0.4323(8) 0.8370(3)
H87_2 H 0.366552 0.610253 0.889691
H88_2 H 0.398211 0.545536 0.874607
H117_2 H 0.135798 0.517049 0.86624
H118_2 H 0.230233 0.586435 0.881638
O6_2 O 0.8152(11) 0.3280(12) 0.0089(4)
O9_2 O 0.9695(18) 0.2928(18) 0.0280(6)
H116_2 H 0.805464 0.35572 0.0273317
C3_2 C 0.9509(15) 0.2831(12) 0.9199(4)
H2_2 H 0.9545 0.2800 0.8312
C7_2 C 0.7099(9) 0.0307(11) 0.8472(4)
H3_2 H 0.7248 0.0318 0.9403
C11_2 C 0.8272(16) 0.008(2) 0.9341(6)
H5_2 H 0.8652 0.0711 0.9317
C12_2 C 0.7318(14) 0.0899(13) 0.8241(5)
C13_2 C 0.994(3) 0.189(2) 0.8283(11)
H8_2 H 0.9418 0.1610 0.8151
C14_2 C 0.8773(13) 0.2494(16) 0.9422(5)
C15_2 C 0.986(4) 0.126(4) 0.8522(14)
H10_2 H 0.9756 0.1397 0.8726
H11_2 H 0.9394 0.0672 0.8468
H14_2 H 0.8878 0.0334 0.9762
Co2_2 Co 0.79544(15) 0.18536(15) 0.88221(5)
N2_2 N 0.9265(10) 0.2568(10) 0.8896(4)
N3_2 N 0.7388(8) 0.0560(8) 0.8793(3)
O5_2 O 0.8862(8) 0.2644(9) 0.9707(3)
O7_2 O 0.7956(10) 0.1989(10) 0.9328(4)
O8_2 O 0.9828(10) 0.4561(10) 0.9803(5)
O10_2 O 0.7780(9) 0.1696(9) 0.8318(3)
O11_2 O 0.7168(10) 0.0670(7) 0.7966(3)
O12_2 O 0.7384(16) 0.2602(15) 0.8791(7)
C23_2 C 0.5539(15) 0.0619(20) 0.5769(4)
C25_2 C 0.5626(12) 0.1398(18) 0.5670(3)
C26_2 C 0.6433(14) 0.1636(20) 0.6095(4)
C27_2 C 0.7105(19) 0.2080(25) 0.6349(5)
H17_2 H 0.6841 0.1804 0.6545
H18_2 H 0.7271 0.2699 0.6361
C30_2 C 0.792(3) 0.201(4) 0.6294(17)
H24_2 H 0.8042 0.2140 0.6076
H25_2 H 0.8386 0.2515 0.6401
C31_2 C 0.5291(15) 0.1683(27) 0.5424(4)
C32_2 C 0.815(17) 0.129(18) 0.635(6)
H26_2 H 0.7608 0.0904 0.6240
H27_2 H 0.8618 0.1212 0.6268
H28_2 H 0.8069 0.1135 0.6564
Co5_2 Co 0.6667 0.3334 0.57222(7)
N7_2 N 0.6080(10) 0.0744(15) 0.6026(4)
N8_2 N 0.6230(9) 0.2070(13) 0.5883(3)
O15_2 O 0.6975(10) 0.0060(15) 0.6551(3)
O24_2 O 0.7873(12) 0.1208(18) 0.7385(4)
O25_2 O 0.5593(9) 0.2492(16) 0.5384(3)
N28_2 N 0.5840(16) 0.3770(9) 0.5883(3)
N29_2 N 0.7930(13) 0.4160(16) 0.5883(3)
O88_2 O 0.6899(18) 0.4407(9) 0.5384(3)
O89_2 O 0.7508(16) 0.3101(18) 0.5384(3)
H85_2 H 0.765849 0.162117 0.744053
H86_2 H 0.794022 0.120498 0.715821
H115_2 H 0.795152 0.345898 0.990243
H119_2 H 0.747915 0.293631 0.898563
H120_2 H 0.673869 0.221639 0.875458
O32_2 O 0.5128(16) 0.1848(11) 0.0089(4)
O35_2 O 0.3233(25) 0.0305(18) 0.0280(6)
H92_2 H 0.550256 0.194536 0.0273317
C1_2 C 0.6110(12) 0.8644(18) 0.8281(4)
C2_2 C 0.6593(11) 0.9313(17) 0.8500(4)
C6_2 C 0.7057(11) 0.9834(10) 0.8966(3)
C10_2 C 0.7325(15) 0.9870(14) 0.9298(4)
H4_2 H 0.6930 0.9304 0.9393
H6_2 H 0.8408 0.9797 0.9174
C16_2 C 0.854(4) 0.982(3) 0.9636(10)
H12_2 H 0.8016 0.9403 0.9745
H13_2 H 0.8890 0.9550 0.9589
N4_2 N 0.6592(9) 0.9079(13) 0.8798(3)
O1_2 O 0.6079(9) 0.8843(14) 0.7994(3)
O2_2 O 0.5677(8) 0.7845(11) 0.8370(3)
C17_2 C 0.5146(14) 0.7871(19) 0.7260(3)
C18_2 C 0.5079(13) 0.8284(18) 0.6950(4)
C19_2 C 0.5700(13) 0.8902(18) 0.6756(4)
C20_2 C 0.4372(11) 0.8306(16) 0.6537(5)
C21_2 C 0.3672(13) 0.8177(18) 0.6303(4)
H15_2 H 0.3909 0.8223 0.6098
H16_2 H 0.3165 0.7586 0.6326
C22_2 C 0.6571(14) 0.9541(19) 0.6781(4)
C24_2 C 0.5068(13) 0.9725(18) 0.5655(5)
C28_2 C 0.337(3) 0.8851(34) 0.6338(9)
H19_2 H 0.3846 0.9452 0.6303
H20_2 H 0.3099 0.8811 0.6537
C29_2 C 0.270(5) 0.852(8) 0.6080(16)
H21_2 H 0.2133 0.8199 0.6179
H22_2 H 0.2703 0.8945 0.5941
H23_2 H 0.2811 0.8108 0.5968
Co3_2 Co 0.60790(16) 0.96982(22) 0.61773(5)
Co4_2 Co 0.3333 0.6666 0.70163(8)
N5_2 N 0.5256(10) 0.8954(14) 0.6512(3)
N6_2 N 0.4279(8) 0.7867(12) 0.6819(3)
O14_2 O 0.7076(9) 0.9690(13) 0.7034(3)
O16_2 O 0.5880(8) 0.8237(12) 0.7397(2)
O17_2 O 0.4465(8) 0.7194(11) 0.7335(2)
O18_2 O 0.5172(10) 0.9144(14) 0.5793(3)
O20_2 O 0.7637(10) 0.9477(14) 0.7622(4)
O22_2 O 0.6891(13) 0.9422(17) 0.5945(3)
O23_2 O 0.5900(9) 0.9872(13) 0.7487(3)
U2_2 U 0.67863(5) 0.96899(7) 0.756353(16)
C33_2 C 0.2534(22) 0.3890(12) 0.8281(4)
C34_2 C 0.2720(20) 0.3407(11) 0.8500(4)
C35_2 C 0.3322(19) 0.0491(15) 0.9199(4)
H30_2 H 0.3255 0.0455 0.8312
C38_2 C 0.2777(15) 0.2943(11) 0.8966(3)
C39_2 C 0.3208(14) 0.2901(9) 0.8472(4)
C42_2 C 0.2545(21) 0.2675(15) 0.9298(4)
H31_2 H 0.3070 0.2752 0.9403
H32_2 H 0.2374 0.3070 0.9393
C43_2 C 0.1808(26) 0.1728(16) 0.9341(6)
H33_2 H 0.2059 0.1348 0.9317
H34_2 H 0.1389 0.1592 0.9174
C44_2 C 0.3581(19) 0.2682(14) 0.8241(5)
C45_2 C 0.195(4) 0.006(3) 0.8283(11)
H36_2 H 0.2192 0.0582 0.8151
C46_2 C 0.3721(21) 0.1227(13) 0.9422(5)
C47_2 C 0.140(6) 0.014(4) 0.8522(14)
H38_2 H 0.1641 0.0244 0.8726
H39_2 H 0.1278 0.0606 0.8468
C48_2 C 0.128(5) 0.146(4) 0.9636(10)
H40_2 H 0.1387 0.1984 0.9745
H41_2 H 0.0660 0.1110 0.9589
H42_2 H 0.1456 0.1122 0.9762
Co7_2 Co 0.38992(21) 0.20456(15) 0.88221(5)
N10_2 N 0.3303(14) 0.0735(10) 0.8896(4)
N11_2 N 0.3172(11) 0.2612(8) 0.8793(3)
O27_2 O 0.2764(17) 0.3921(9) 0.7994(3)
O31_2 O 0.3782(12) 0.1138(8) 0.9707(3)
O33_2 O 0.4033(14) 0.2044(10) 0.9328(4)
O34_2 O 0.4733(14) 0.0172(10) 0.9803(5)
O36_2 O 0.3916(13) 0.2220(9) 0.8318(3)
O37_2 O 0.3502(12) 0.2832(10) 0.7966(3)
O38_2 O 0.5218(22) 0.2616(16) 0.8791(7)
C49_2 C 0.2725(24) 0.4854(14) 0.7260(3)
C50_2 C 0.3205(22) 0.4921(13) 0.6950(4)
C51_2 C 0.3202(22) 0.4300(13) 0.6756(4)
C52_2 C 0.3934(19) 0.5628(11) 0.6537(5)
C53_2 C 0.4505(22) 0.6328(13) 0.6303(4)
H43_2 H 0.4314 0.6091 0.6098
H44_2 H 0.4421 0.6835 0.6326
C54_2 C 0.2970(24) 0.3429(14) 0.6781(4)
C55_2 C 0.5080(25) 0.4461(15) 0.5769(4)
C56_2 C 0.4657(22) 0.4932(13) 0.5655(5)
C57_2 C 0.5772(22) 0.4374(12) 0.5670(3)
C58_2 C 0.5203(24) 0.3567(14) 0.6095(4)
C59_2 C 0.4975(31) 0.2895(19) 0.6349(5)
H45_2 H 0.4963 0.3159 0.6545
H46_2 H 0.5428 0.2729 0.6361
C60_2 C 0.5481(45) 0.663(3) 0.6338(9)
H47_2 H 0.5606 0.6154 0.6303
H48_2 H 0.5712 0.6901 0.6537
C61_2 C 0.582(9) 0.730(5) 0.6080(16)
H49_2 H 0.6066 0.7867 0.6179
H50_2 H 0.6242 0.7297 0.5941
H51_2 H 0.5297 0.7189 0.5968
C62_2 C 0.409(5) 0.208(3) 0.6294(17)
H52_2 H 0.4098 0.1958 0.6076
H53_2 H 0.4129 0.1614 0.6401
C63_2 C 0.6392(31) 0.4709(15) 0.5424(4)
C64_2 C 0.314(25) 0.185(17) 0.635(6)
H54_2 H 0.3296 0.2392 0.6240
H55_2 H 0.2594 0.1382 0.6268
H56_2 H 0.3066 0.1931 0.6564
Co8_2 Co 0.36192(27) 0.39210(16) 0.61773(5)
N13_2 N 0.3698(17) 0.4744(10) 0.6512(3)
N14_2 N 0.3588(14) 0.5721(8) 0.6819(3)
N15_2 N 0.4664(18) 0.3920(10) 0.6026(4)
O40_2 O 0.2614(16) 0.2924(9) 0.7034(3)
O41_2 O 0.3085(18) 0.3025(10) 0.6551(3)
O42_2 O 0.2357(14) 0.4120(8) 0.7397(2)
O43_2 O 0.2729(14) 0.5535(8) 0.7335(2)
O44_2 O 0.3972(17) 0.4828(10) 0.5793(3)
O46_2 O 0.1840(17) 0.2363(10) 0.7622(4)
O48_2 O 0.2531(21) 0.3109(13) 0.5945(3)
O49_2 O 0.3972(16) 0.4100(9) 0.7487(3)
O50_2 O 0.3335(22) 0.2127(12) 0.7385(4)
U4_2 U 0.29036(9) 0.32137(5) 0.756353(16)
C65_2 C 0.1356(18) 0.7466(22) 0.8281(4)
C66_2 C 0.0687(17) 0.7280(20) 0.8500(4)
C70_2 C 0.0166(10) 0.7223(15) 0.8966(3)
C74_2 C 0.0130(14) 0.7455(21) 0.9298(4)
H60_2 H 0.0696 0.7626 0.9393
H62_2 H 0.0203 0.8611 0.9174
C80_2 C 0.018(3) 0.872(5) 0.9636(10)
H68_2 H 0.0597 0.8613 0.9745
H69_2 H 0.0450 0.9340 0.9589
N20_2 N 0.0921(13) 0.7513(16) 0.8798(3)
O53_2 O 0.1157(14) 0.7236(17) 0.7994(3)
O54_2 O 0.2155(11) 0.7832(14) 0.8370(3)
C81_2 C 0.2129(19) 0.7275(24) 0.7260(3)
C82_2 C 0.1716(18) 0.6795(22) 0.6950(4)
C83_2 C 0.1098(18) 0.6798(22) 0.6756(4)
C84_2 C 0.1694(16) 0.6066(19) 0.6537(5)
C85_2 C 0.1823(18) 0.5495(22) 0.6303(4)
H71_2 H 0.1777 0.5686 0.6098
H72_2 H 0.2414 0.5579 0.6326
C86_2 C 0.0459(19) 0.7030(24) 0.6781(4)
C88_2 C 0.0275(18) 0.5343(22) 0.5655(5)
C92_2 C 0.1149(34) 0.4519(45) 0.6338(9)
H75_2 H 0.0548 0.4394 0.6303
H76_2 H 0.1189 0.4288 0.6537
C93_2 C 0.148(8) 0.418(9) 0.6080(16)
H77_2 H 0.1801 0.3934 0.6179
H78_2 H 0.1055 0.3758 0.5941
H79_2 H 0.1892 0.4703 0.5968
Co11_2 Co 0.03018(22) 0.63808(27) 0.61773(5)
N21_2 N 0.1046(14) 0.6302(17) 0.6512(3)
N22_2 N 0.2133(12) 0.6412(14) 0.6819(3)
O66_2 O 0.0310(13) 0.7386(16) 0.7034(3)
O68_2 O 0.1763(12) 0.7643(14) 0.7397(2)
O69_2 O 0.2806(11) 0.7271(14) 0.7335(2)
O70_2 O 0.0856(14) 0.6028(17) 0.5793(3)
O72_2 O 0.0523(14) 0.8160(17) 0.7622(4)
O74_2 O 0.0578(17) 0.7469(21) 0.5945(3)
O75_2 O 0.0128(13) 0.6028(16) 0.7487(3)
U6_2 U 0.03101(7) 0.70964(9) 0.756353(16)
Co13_2 Co 0.22510(18) 0.79443(13) 0.88790(5)
Co14_2 Co 0.56933(13) 0.77490(18) 0.88790(5)
H89_2 H 0.731146 0.938416 0.608982
H90_2 H 0.722667 0.989685 0.579188
H91_2 H 0.550746 0.204848 0.990243
H93_2 H 0.545716 0.252085 0.898563
H94_2 H 0.54777 0.326131 0.875458
H97_2 H 0.20727 0.268854 0.608982
H98_2 H 0.267017 0.277333 0.579188
H99_2 H 0.396268 0.234151 0.744053
H100_2 H 0.326476 0.205978 0.715821
H109_2 H 0.0615843 0.79273 0.608982
H110_2 H 0.0103152 0.732983 0.579188
C36_2 C 0.2929(23) 0.9985(18) 0.8746(3)
C37_2 C 0.2724(21) 0.9980(15) 0.8405(3)
H29_2 H 0.2652 0.9431 0.8322
C40_2 C 0.2709(17) 0.8996(13) 0.9470(4)
C41_2 C 0.2962(15) 0.9632(11) 0.9201(4)
H35_2 H 0.1590 0.9551 0.8157
H37_2 H 0.0860 0.9582 0.8515
N9_2 N 0.2697(11) 0.9269(8) 0.8923(3)
O29_2 O 0.2334(12) 0.8173(8) 0.9383(3)
O30_2 O 0.2863(13) 0.9226(9) 0.9742(3)
O39_2 O 0.3536(24) 0.825(2) 0.8843(5)
O52_2 O 0.1885(39) 0.6365(19) 0.8915(5)
H95_2 H 0.381251 0.864202 0.86624
H96_2 H 0.356202 0.769767 0.881638
H101_2 H 0.243701 0.633448 0.889691
H102_2 H 0.147325 0.601789 0.874607
O58_2 O 0.6720(12) 0.4872(16) 0.0089(4)
O61_2 O 0.7072(18) 0.6767(25) 0.0280(6)
H106_2 H 0.64428 0.449744 0.0273317
C67_2 C 0.7169(12) 0.6678(19) 0.9199(4)
C68_2 C 0.7056(14) 0.7071(23) 0.8746(3)
C69_2 C 0.7256(15) 0.7276(21) 0.8405(3)
H57_2 H 0.6779 0.7348 0.8322
H58_2 H 0.7200 0.6745 0.8312
C71_2 C 0.9693(11) 0.6792(14) 0.8472(4)
C72_2 C 0.6287(11) 0.7291(17) 0.9470(4)
C73_2 C 0.6670(10) 0.7038(15) 0.9201(4)
H59_2 H 0.9682 0.6930 0.9403
C75_2 C 0.992(2) 0.8192(26) 0.9341(6)
H61_2 H 0.9289 0.7941 0.9317
C76_2 C 0.9101(13) 0.6419(19) 0.8241(5)
C77_2 C 0.811(2) 0.805(4) 0.8283(11)
H63_2 H 0.7961 0.8410 0.8157
H64_2 H 0.8390 0.7808 0.8151
C78_2 C 0.7506(16) 0.6279(21) 0.9422(5)
C79_2 C 0.874(4) 0.860(6) 0.8522(14)
H65_2 H 0.8722 0.9140 0.8515
H66_2 H 0.8603 0.8359 0.8726
H67_2 H 0.9328 0.8722 0.8468
H70_2 H 0.9666 0.8544 0.9762
Co10_2 Co 0.81464(15) 0.61008(21) 0.88221(5)
N17_2 N 0.6572(8) 0.7303(11) 0.8923(3)
N18_2 N 0.7432(10) 0.6697(14) 0.8896(4)
N19_2 N 0.9440(8) 0.6828(11) 0.8793(3)
O55_2 O 0.5839(9) 0.7666(12) 0.9383(3)
O56_2 O 0.6363(10) 0.7137(13) 0.9742(3)
O57_2 O 0.7356(9) 0.6218(12) 0.9707(3)
O59_2 O 0.8011(10) 0.5967(14) 0.9328(4)
O60_2 O 0.5439(10) 0.5267(14) 0.9803(5)
O62_2 O 0.8304(9) 0.6084(13) 0.8318(3)
O63_2 O 0.9330(7) 0.6498(12) 0.7966(3)
O64_2 O 0.7398(15) 0.4782(22) 0.8791(7)
O65_2 O 0.4714(14) 0.6464(24) 0.8843(5)
C87_2 C 0.9381(20) 0.4920(25) 0.5769(4)
C89_2 C 0.8602(18) 0.4228(22) 0.5670(3)
C90_2 C 0.8364(20) 0.4797(24) 0.6095(4)
C91_2 C 0.7920(25) 0.5025(31) 0.6349(5)
H73_2 H 0.8196 0.5037 0.6545
H74_2 H 0.7301 0.4572 0.6361
C94_2 C 0.799(4) 0.591(5) 0.6294(17)
H80_2 H 0.7860 0.5902 0.6076
H81_2 H 0.7485 0.5871 0.6401
C95_2 C 0.8317(27) 0.3608(31) 0.5424(4)
C96_2 C 0.871(18) 0.686(25) 0.635(6)
H82_2 H 0.9096 0.6704 0.6240
H83_2 H 0.8788 0.7406 0.6268
H84_2 H 0.8865 0.6934 0.6564
N23_2 N 0.9256(15) 0.5336(18) 0.6026(4)
O67_2 O 0.9940(15) 0.6915(18) 0.6551(3)
O76_2 O 0.8792(18) 0.6665(22) 0.7385(4)
O78_2 O 0.4480(34) 0.8115(39) 0.8915(5)
H103_2 H 0.706369 0.454284 0.898563
H104_2 H 0.778361 0.45223 0.875458
H105_2 H 0.654102 0.449254 0.990243
H107_2 H 0.482951 0.618749 0.86624
H108_2 H 0.413565 0.643798 0.881638
H111_2 H 0.389747 0.756299 0.889691
H112_2 H 0.454464 0.852675 0.874607
H113_2 H 0.837883 0.603732 0.744053
H114_2 H 0.879502 0.673524 0.715821
loop_
_geom_bond_atom_site_label_1
_geom_bond_atom_site_label_2
_geom_bond_site_symmetry_1
_geom_bond_site_symmetry_2
C4 C5 1_555 1_555
C5 H1 1_555 1_555
C8 C9 1_555 1_555
C9 N1 1_555 1_555
Co1 N1 1_555 1_555
N1 C4 1_555 1_555
O3 C8 1_555 1_555
O4 C8 1_555 1_555
O13 Co1 1_555 1_555
O26 Co1 1_555 1_555
N26 Co1 1_555 1_555
O80 Co1 1_555 1_555
Co1 O3 1_555 1_555
O26 H87 1_555 1_555
O26 H88 1_555 1_555
O13 H117 1_555 1_555
O13 H118 1_555 1_555
C7 C12 1_555 1_555
H5 C11 1_555 1_555
C12 O10 1_555 1_555
H8 C13 1_555 1_555
C14 C3 1_555 1_555
C15 C13 1_555 1_555
H10 C15 1_555 1_555
H11 C15 1_555 1_555
Co2 N2 1_555 1_555
N2 C3 1_555 1_555
O5 C14 1_555 1_555
O6 U1 1_555 1_555
O7 C14 1_555 1_555
O8 U1 1_555 1_555
O9 U1 1_555 1_555
O10 Co2 1_555 1_555
O11 C12 1_555 1_555
O12 Co2 1_555 1_555
C25 C23 1_555 1_555
C26 C27 1_555 1_555
C27 H17 1_555 1_555
H18 C27 1_555 1_555
C30 C27 1_555 1_555
H24 C30 1_555 1_555
H25 C30 1_555 1_555
C31 C25 1_555 1_555
C32 C30 1_555 1_555
H26 C32 1_555 1_555
H27 C32 1_555 1_555
H28 C32 1_555 1_555
Co5 N8 1_555 1_555
N7 C23 1_555 1_555
N8 C25 1_555 1_555
O21 C31 1_555 1_555
O25 C31 1_555 1_555
N28 Co5 1_555 1_555
N29 Co5 1_555 1_555
O82 U1 1_555 1_555
O88 Co5 1_555 1_555
O89 Co5 1_555 1_555
C7 N3 1_555 1_555
Co2 N3 1_555 1_555
Co2 O7 1_555 1_555
O5 U1 1_555 1_555
C26 N7 1_555 1_555
C26 N8 1_555 1_555
Co5 O25 1_555 1_555
O24 H85 1_555 1_555
O24 H86 1_555 1_555
O6 H115 1_555 1_555
O6 H116 1_555 1_555
O12 H119 1_555 1_555
O12 H120 1_555 1_555
C1 C2 1_555 1_555
C6 C10 1_555 1_555
H4 C10 1_555 1_555
H12 C16 1_555 1_555
H13 C16 1_555 1_555
N4 C2 1_555 1_555
O1 C1 1_555 1_555
O2 C1 1_555 1_555
C17 C18 1_555 1_555
C18 C19 1_555 1_555
C19 C22 1_555 1_555
C20 C21 1_555 1_555
C21 H15 1_555 1_555
H16 C21 1_555 1_555
C22 O14 1_555 1_555
C24 O18 1_555 1_555
C28 C21 1_555 1_555
H19 C28 1_555 1_555
H20 C28 1_555 1_555
C29 C28 1_555 1_555
H21 C29 1_555 1_555
H22 C29 1_555 1_555
H23 C29 1_555 1_555
Co3 N5 1_555 1_555
Co4 N6 1_555 1_555
N5 C19 1_555 1_555
N6 C18 1_555 1_555
O14 U2 1_555 1_555
O16 C17 1_555 1_555
O17 C17 1_555 1_555
O18 Co3 1_555 1_555
O19 C24 1_555 1_555
O20 U2 1_555 1_555
O22 Co3 1_555 1_555
O23 U2 1_555 1_555
U2 O1 1_555 1_555
C33 C34 1_555 1_555
C34 C39 1_555 1_555
C38 C42 1_555 1_555
C39 C44 1_555 1_555
C42 H31 1_555 1_555
H32 C42 1_555 1_555
C43 C42 1_555 1_555
H33 C43 1_555 1_555
H34 C43 1_555 1_555
C44 O36 1_555 1_555
H36 C45 1_555 1_555
C46 C35 1_555 1_555
C47 C45 1_555 1_555
H38 C47 1_555 1_555
H39 C47 1_555 1_555
C48 C43 1_555 1_555
H40 C48 1_555 1_555
H41 C48 1_555 1_555
H42 C48 1_555 1_555
Co7 N10 1_555 1_555
N10 C35 1_555 1_555
N11 C38 1_555 1_555
N26 C34 1_555 1_555
O27 C33 1_555 1_555
O80 C33 1_555 1_555
O31 C46 1_555 1_555
O32 U3 1_555 1_555
O33 C46 1_555 1_555
O34 U3 1_555 1_555
O35 U3 1_555 1_555
O36 Co7 1_555 1_555
O37 C44 1_555 1_555
O38 Co7 1_555 1_555
C49 C50 1_555 1_555
C50 C51 1_555 1_555
C51 C54 1_555 1_555
C52 C53 1_555 1_555
C53 H43 1_555 1_555
H44 C53 1_555 1_555
C54 O40 1_555 1_555
C55 C56 1_555 1_555
C56 O44 1_555 1_555
C57 C55 1_555 1_555
C58 C59 1_555 1_555
C59 H45 1_555 1_555
H46 C59 1_555 1_555
C60 C53 1_555 1_555
H47 C60 1_555 1_555
H48 C60 1_555 1_555
C61 C60 1_555 1_555
H49 C61 1_555 1_555
H50 C61 1_555 1_555
H51 C61 1_555 1_555
C62 C59 1_555 1_555
H52 C62 1_555 1_555
H53 C62 1_555 1_555
C63 C57 1_555 1_555
C64 C62 1_555 1_555
H54 C64 1_555 1_555
H55 C64 1_555 1_555
H56 C64 1_555 1_555
Co8 N13 1_555 1_555
N13 C51 1_555 1_555
N14 Co4 1_555 1_555
N15 C55 1_555 1_555
N28 C57 1_555 1_555
O40 U4 1_555 1_555
O41 C54 1_555 1_555
O42 C49 1_555 1_555
O43 Co4 1_555 1_555
O44 Co8 1_555 1_555
O45 C56 1_555 1_555
O46 U4 1_555 1_555
O47 C63 1_555 1_555
O48 Co8 1_555 1_555
O49 U4 1_555 1_555
O50 U4 1_555 1_555
O88 C63 1_555 1_555
U4 O27 1_555 1_555
C65 C66 1_555 1_555
C70 C74 1_555 1_555
H60 C74 1_555 1_555
H68 C80 1_555 1_555
H69 C80 1_555 1_555
N20 C66 1_555 1_555
O53 C65 1_555 1_555
O54 C65 1_555 1_555
C81 C82 1_555 1_555
C82 C83 1_555 1_555
C83 C86 1_555 1_555
C84 C85 1_555 1_555
C85 H71 1_555 1_555
H72 C85 1_555 1_555
C86 O66 1_555 1_555
C88 O70 1_555 1_555
C92 C85 1_555 1_555
H75 C92 1_555 1_555
H76 C92 1_555 1_555
C93 C92 1_555 1_555
H77 C93 1_555 1_555
H78 C93 1_555 1_555
H79 C93 1_555 1_555
Co11 N21 1_555 1_555
N21 C83 1_555 1_555
N22 Co4 1_555 1_555
O66 U6 1_555 1_555
O68 C81 1_555 1_555
O69 Co4 1_555 1_555
O70 Co11 1_555 1_555
O71 C88 1_555 1_555
O72 U6 1_555 1_555
O74 Co11 1_555 1_555
O75 U6 1_555 1_555
U6 O53 1_555 1_555
Co13 N20 1_555 1_555
Co14 N4 1_555 1_555
U7 O19 1_555 1_555
U8 O45 1_555 1_555
U9 O71 1_555 1_555
O83 U3 1_555 1_555
C6 N4 1_555 1_555
O2 Co14 1_555 1_555
C20 N5 1_555 1_555
C20 N6 1_555 1_555
Co4 O17 1_555 1_555
O16 U2 1_555 1_555
C38 N26 1_555 1_555
C39 N11 1_555 1_555
Co7 N11 1_555 1_555
Co7 O33 1_555 1_555
O31 U3 1_555 1_555
O37 U4 1_555 1_555
C49 O43 1_555 1_555
C50 N14 1_555 1_555
C52 N13 1_555 1_555
C52 N14 1_555 1_555
C58 N15 1_555 1_555
C58 N28 1_555 1_555
Co8 N15 1_555 1_555
Co8 O41 1_555 1_555
O42 U4 1_555 1_555
O47 U8 1_555 1_555
C70 N20 1_555 1_555
O54 Co13 1_555 1_555
C81 O69 1_555 1_555
C82 N22 1_555 1_555
C84 N21 1_555 1_555
C84 N22 1_555 1_555
O68 U6 1_555 1_555
O22 H89 1_555 1_555
O22 H90 1_555 1_555
O32 H91 1_555 1_555
O32 H92 1_555 1_555
O38 H93 1_555 1_555
O38 H94 1_555 1_555
O48 H97 1_555 1_555
O48 H98 1_555 1_555
O50 H99 1_555 1_555
O50 H100 1_555 1_555
O74 H109 1_555 1_555
O74 H110 1_555 1_555
C67 C73 1_555 1_555
C68 C69 1_555 1_555
C69 H57 1_555 1_555
H58 C69 1_555 1_555
C71 C76 1_555 1_555
C72 C73 1_555 1_555
C73 N17 1_555 1_555
H61 C75 1_555 1_555
C76 O62 1_555 1_555
C77 C69 1_555 1_555
H63 C77 1_555 1_555
H64 C77 1_555 1_555
C78 C67 1_555 1_555
C79 C77 1_555 1_555
H65 C79 1_555 1_555
H66 C79 1_555 1_555
H67 C79 1_555 1_555
Co14 N17 1_555 1_555
Co10 N18 1_555 1_555
N17 C68 1_555 1_555
N18 C67 1_555 1_555
O55 C72 1_555 1_555
O56 C72 1_555 1_555
O57 C78 1_555 1_555
O58 U5 1_555 1_555
O59 C78 1_555 1_555
O60 U5 1_555 1_555
O61 U5 1_555 1_555
O62 Co10 1_555 1_555
O63 C76 1_555 1_555
O64 Co10 1_555 1_555
O65 Co14 1_555 1_555
U5 O56 1_555 1_555
C89 C87 1_555 1_555
C90 C91 1_555 1_555
C91 H73 1_555 1_555
H74 C91 1_555 1_555
C94 C91 1_555 1_555
H80 C94 1_555 1_555
H81 C94 1_555 1_555
C95 C89 1_555 1_555
C96 C94 1_555 1_555
H82 C96 1_555 1_555
H83 C96 1_555 1_555
H84 C96 1_555 1_555
N23 C87 1_555 1_555
N29 C89 1_555 1_555
O73 C95 1_555 1_555
O89 C95 1_555 1_555
O78 Co14 1_555 1_555
O84 U5 1_555 1_555
O87 U5 1_555 1_555
C68 N18 1_555 1_555
C71 N19 1_555 1_555
Co14 O55 1_555 1_555
Co10 N19 1_555 1_555
Co10 O59 1_555 1_555
O57 U5 1_555 1_555
C90 N23 1_555 1_555
C90 N29 1_555 1_555
O64 H103 1_555 1_555
O64 H104 1_555 1_555
O58 H105 1_555 1_555
O58 H106 1_555 1_555
O65 H107 1_555 1_555
O65 H108 1_555 1_555
O78 H111 1_555 1_555
O78 H112 1_555 1_555
O76 H113 1_555 1_555
O76 H114 1_555 1_555
C36 C37 1_555 1_555
C37 H29 1_555 1_555
C40 C41 1_555 1_555
C41 N9 1_555 1_555
Co13 N9 1_555 1_555
N9 C36 1_555 1_555
O29 C40 1_555 1_555
O30 C40 1_555 1_555
O39 Co13 1_555 1_555
O52 Co13 1_555 1_555
Co13 O29 1_555 1_555
O39 H95 1_555 1_555
O39 H96 1_555 1_555
O52 H101 1_555 1_555
O52 H102 1_555 1_555
C4_2 C5_2 1_555 1_555
C5_2 H1_2 1_555 1_555
C8_2 C9_2 1_555 1_555
C9_2 N1_2 1_555 1_555
Co1_2 N1_2 1_555 1_555
N1_2 C4_2 1_555 1_555
O3_2 C8_2 1_555 1_555
O4_2 C8_2 1_555 1_555
O13_2 Co1_2 1_555 1_555
O26_2 Co1_2 1_555 1_555
N26_2 Co1_2 1_555 1_555
O80_2 Co1_2 1_555 1_555
Co1_2 O3_2 1_555 1_555
O26_2 H87_2 1_555 1_555
O26_2 H88_2 1_555 1_555
O13_2 H117_2 1_555 1_555
O13_2 H118_2 1_555 1_555
O6_2 U7 1_555 1_555
O9_2 U7 1_555 1_555
O6_2 H116_2 1_555 1_555
C7_2 C12_2 1_555 1_555
H5_2 C11_2 1_555 1_555
C12_2 O10_2 1_555 1_555
H8_2 C13_2 1_555 1_555
C14_2 C3_2 1_555 1_555
C15_2 C13_2 1_555 1_555
H10_2 C15_2 1_555 1_555
H11_2 C15_2 1_555 1_555
Co2_2 N2_2 1_555 1_555
N2_2 C3_2 1_555 1_555
O5_2 C14_2 1_555 1_555
O7_2 C14_2 1_555 1_555
O10_2 Co2_2 1_555 1_555
O11_2 C12_2 1_555 1_555
O12_2 Co2_2 1_555 1_555
C25_2 C23_2 1_555 1_555
C26_2 C27_2 1_555 1_555
C27_2 H17_2 1_555 1_555
H18_2 C27_2 1_555 1_555
C30_2 C27_2 1_555 1_555
H24_2 C30_2 1_555 1_555
H25_2 C30_2 1_555 1_555
C31_2 C25_2 1_555 1_555
C32_2 C30_2 1_555 1_555
H26_2 C32_2 1_555 1_555
H27_2 C32_2 1_555 1_555
H28_2 C32_2 1_555 1_555
Co5_2 N8_2 1_555 1_555
N7_2 C23_2 1_555 1_555
N8_2 C25_2 1_555 1_555
O85 C31_2 1_555 1_555
O25_2 C31_2 1_555 1_555
N28_2 Co5_2 1_555 1_555
N29_2 Co5_2 1_555 1_555
O88_2 Co5_2 1_555 1_555
O89_2 Co5_2 1_555 1_555
C7_2 N3_2 1_555 1_555
Co2_2 N3_2 1_555 1_555
Co2_2 O7_2 1_555 1_555
C26_2 N7_2 1_555 1_555
C26_2 N8_2 1_555 1_555
Co5_2 O25_2 1_555 1_555
O24_2 H85_2 1_555 1_555
O24_2 H86_2 1_555 1_555
O12_2 H119_2 1_555 1_555
O12_2 H120_2 1_555 1_555
O32_2 U9 1_555 1_555
O35_2 U9 1_555 1_555
O32_2 H92_2 1_555 1_555
C1_2 C2_2 1_555 1_555
C6_2 C10_2 1_555 1_555
H4_2 C10_2 1_555 1_555
H12_2 C16_2 1_555 1_555
H13_2 C16_2 1_555 1_555
N4_2 C2_2 1_555 1_555
O1_2 C1_2 1_555 1_555
O2_2 C1_2 1_555 1_555
C17_2 C18_2 1_555 1_555
C18_2 C19_2 1_555 1_555
C19_2 C22_2 1_555 1_555
C20_2 C21_2 1_555 1_555
C21_2 H15_2 1_555 1_555
H16_2 C21_2 1_555 1_555
C22_2 O14_2 1_555 1_555
C24_2 O18_2 1_555 1_555
C28_2 C21_2 1_555 1_555
H19_2 C28_2 1_555 1_555
H20_2 C28_2 1_555 1_555
C29_2 C28_2 1_555 1_555
H21_2 C29_2 1_555 1_555
H22_2 C29_2 1_555 1_555
H23_2 C29_2 1_555 1_555
Co3_2 N5_2 1_555 1_555
Co4_2 N6_2 1_555 1_555
N5_2 C19_2 1_555 1_555
N6_2 C18_2 1_555 1_555
O14_2 U2_2 1_555 1_555
O16_2 C17_2 1_555 1_555
O17_2 C17_2 1_555 1_555
O18_2 Co3_2 1_555 1_555
O82 C24_2 1_555 1_555
O20_2 U2_2 1_555 1_555
O22_2 Co3_2 1_555 1_555
O23_2 U2_2 1_555 1_555
U2_2 O1_2 1_555 1_555
C33_2 C34_2 1_555 1_555
C34_2 C39_2 1_555 1_555
C38_2 C42_2 1_555 1_555
C39_2 C44_2 1_555 1_555
C42_2 H31_2 1_555 1_555
H32_2 C42_2 1_555 1_555
C43_2 C42_2 1_555 1_555
H33_2 C43_2 1_555 1_555
H34_2 C43_2 1_555 1_555
C44_2 O36_2 1_555 1_555
H36_2 C45_2 1_555 1_555
C46_2 C35_2 1_555 1_555
C47_2 C45_2 1_555 1_555
H38_2 C47_2 1_555 1_555
H39_2 C47_2 1_555 1_555
C48_2 C43_2 1_555 1_555
H40_2 C48_2 1_555 1_555
H41_2 C48_2 1_555 1_555
H42_2 C48_2 1_555 1_555
Co7_2 N10_2 1_555 1_555
N10_2 C35_2 1_555 1_555
N11_2 C38_2 1_555 1_555
N26_2 C34_2 1_555 1_555
O27_2 C33_2 1_555 1_555
O80_2 C33_2 1_555 1_555
O31_2 C46_2 1_555 1_555
O33_2 C46_2 1_555 1_555
O36_2 Co7_2 1_555 1_555
O37_2 C44_2 1_555 1_555
O38_2 Co7_2 1_555 1_555
C49_2 C50_2 1_555 1_555
C50_2 C51_2 1_555 1_555
C51_2 C54_2 1_555 1_555
C52_2 C53_2 1_555 1_555
C53_2 H43_2 1_555 1_555
H44_2 C53_2 1_555 1_555
C54_2 O40_2 1_555 1_555
C55_2 C56_2 1_555 1_555
C56_2 O44_2 1_555 1_555
C57_2 C55_2 1_555 1_555
C58_2 C59_2 1_555 1_555
C59_2 H45_2 1_555 1_555
H46_2 C59_2 1_555 1_555
C60_2 C53_2 1_555 1_555
H47_2 C60_2 1_555 1_555
H48_2 C60_2 1_555 1_555
C61_2 C60_2 1_555 1_555
H49_2 C61_2 1_555 1_555
H50_2 C61_2 1_555 1_555
H51_2 C61_2 1_555 1_555
C62_2 C59_2 1_555 1_555
H52_2 C62_2 1_555 1_555
H53_2 C62_2 1_555 1_555
C63_2 C57_2 1_555 1_555
C64_2 C62_2 1_555 1_555
H54_2 C64_2 1_555 1_555
H55_2 C64_2 1_555 1_555
H56_2 C64_2 1_555 1_555
Co8_2 N13_2 1_555 1_555
N13_2 C51_2 1_555 1_555
N14_2 Co4_2 1_555 1_555
N15_2 C55_2 1_555 1_555
N28_2 C57_2 1_555 1_555
O40_2 U4_2 1_555 1_555
O41_2 C54_2 1_555 1_555
O42_2 C49_2 1_555 1_555
O43_2 Co4_2 1_555 1_555
O44_2 Co8_2 1_555 1_555
O84 C56_2 1_555 1_555
O46_2 U4_2 1_555 1_555
O87 C63_2 1_555 1_555
O48_2 Co8_2 1_555 1_555
O49_2 U4_2 1_555 1_555
O50_2 U4_2 1_555 1_555
O88_2 C63_2 1_555 1_555
U4_2 O27_2 1_555 1_555
C65_2 C66_2 1_555 1_555
C70_2 C74_2 1_555 1_555
H60_2 C74_2 1_555 1_555
H68_2 C80_2 1_555 1_555
H69_2 C80_2 1_555 1_555
N20_2 C66_2 1_555 1_555
O53_2 C65_2 1_555 1_555
O54_2 C65_2 1_555 1_555
C81_2 C82_2 1_555 1_555
C82_2 C83_2 1_555 1_555
C83_2 C86_2 1_555 1_555
C84_2 C85_2 1_555 1_555
C85_2 H71_2 1_555 1_555
H72_2 C85_2 1_555 1_555
C86_2 O66_2 1_555 1_555
C88_2 O70_2 1_555 1_555
C92_2 C85_2 1_555 1_555
H75_2 C92_2 1_555 1_555
H76_2 C92_2 1_555 1_555
C93_2 C92_2 1_555 1_555
H77_2 C93_2 1_555 1_555
H78_2 C93_2 1_555 1_555
H79_2 C93_2 1_555 1_555
Co11_2 N21_2 1_555 1_555
N21_2 C83_2 1_555 1_555
N22_2 Co4_2 1_555 1_555
O66_2 U6_2 1_555 1_555
O68_2 C81_2 1_555 1_555
O69_2 Co4_2 1_555 1_555
O70_2 Co11_2 1_555 1_555
O83 C88_2 1_555 1_555
O72_2 U6_2 1_555 1_555
O74_2 Co11_2 1_555 1_555
O75_2 U6_2 1_555 1_555
U6_2 O53_2 1_555 1_555
Co13_2 N20_2 1_555 1_555
Co14_2 N4_2 1_555 1_555
C6_2 N4_2 1_555 1_555
O2_2 Co14_2 1_555 1_555
C20_2 N5_2 1_555 1_555
C20_2 N6_2 1_555 1_555
Co4_2 O17_2 1_555 1_555
O16_2 U2_2 1_555 1_555
C38_2 N26_2 1_555 1_555
C39_2 N11_2 1_555 1_555
Co7_2 N11_2 1_555 1_555
Co7_2 O33_2 1_555 1_555
O37_2 U4_2 1_555 1_555
C49_2 O43_2 1_555 1_555
C50_2 N14_2 1_555 1_555
C52_2 N13_2 1_555 1_555
C52_2 N14_2 1_555 1_555
C58_2 N15_2 1_555 1_555
C58_2 N28_2 1_555 1_555
Co8_2 N15_2 1_555 1_555
Co8_2 O41_2 1_555 1_555
O42_2 U4_2 1_555 1_555
C70_2 N20_2 1_555 1_555
O54_2 Co13_2 1_555 1_555
C81_2 O69_2 1_555 1_555
C82_2 N22_2 1_555 1_555
C84_2 N21_2 1_555 1_555
C84_2 N22_2 1_555 1_555
O68_2 U6_2 1_555 1_555
O22_2 H89_2 1_555 1_555
O22_2 H90_2 1_555 1_555
O38_2 H93_2 1_555 1_555
O38_2 H94_2 1_555 1_555
O48_2 H97_2 1_555 1_555
O48_2 H98_2 1_555 1_555
O50_2 H99_2 1_555 1_555
O50_2 H100_2 1_555 1_555
O74_2 H109_2 1_555 1_555
O74_2 H110_2 1_555 1_555
C36_2 C37_2 1_555 1_555
C37_2 H29_2 1_555 1_555
C40_2 C41_2 1_555 1_555
C41_2 N9_2 1_555 1_555
Co13_2 N9_2 1_555 1_555
N9_2 C36_2 1_555 1_555
O29_2 C40_2 1_555 1_555
O30_2 C40_2 1_555 1_555
O39_2 Co13_2 1_555 1_555
O52_2 Co13_2 1_555 1_555
Co13_2 O29_2 1_555 1_555
O39_2 H95_2 1_555 1_555
O39_2 H96_2 1_555 1_555
O52_2 H101_2 1_555 1_555
O52_2 H102_2 1_555 1_555
O58_2 U8 1_555 1_555
O61_2 U8 1_555 1_555
O58_2 H106_2 1_555 1_555
C67_2 C73_2 1_555 1_555
C68_2 C69_2 1_555 1_555
C69_2 H57_2 1_555 1_555
H58_2 C69_2 1_555 1_555
C71_2 C76_2 1_555 1_555
C72_2 C73_2 1_555 1_555
C73_2 N17_2 1_555 1_555
H61_2 C75_2 1_555 1_555
C76_2 O62_2 1_555 1_555
C77_2 C69_2 1_555 1_555
H63_2 C77_2 1_555 1_555
H64_2 C77_2 1_555 1_555
C78_2 C67_2 1_555 1_555
C79_2 C77_2 1_555 1_555
H65_2 C79_2 1_555 1_555
H66_2 C79_2 1_555 1_555
H67_2 C79_2 1_555 1_555
Co14_2 N17_2 1_555 1_555
Co10_2 N18_2 1_555 1_555
N17_2 C68_2 1_555 1_555
N18_2 C67_2 1_555 1_555
O55_2 C72_2 1_555 1_555
O56_2 C72_2 1_555 1_555
O57_2 C78_2 1_555 1_555
O59_2 C78_2 1_555 1_555
O62_2 Co10_2 1_555 1_555
O63_2 C76_2 1_555 1_555
O64_2 Co10_2 1_555 1_555
O65_2 Co14_2 1_555 1_555
C89_2 C87_2 1_555 1_555
C90_2 C91_2 1_555 1_555
C91_2 H73_2 1_555 1_555
H74_2 C91_2 1_555 1_555
C94_2 C91_2 1_555 1_555
H80_2 C94_2 1_555 1_555
H81_2 C94_2 1_555 1_555
C95_2 C89_2 1_555 1_555
C96_2 C94_2 1_555 1_555
H82_2 C96_2 1_555 1_555
H83_2 C96_2 1_555 1_555
H84_2 C96_2 1_555 1_555
N23_2 C87_2 1_555 1_555
N29_2 C89_2 1_555 1_555
O86 C95_2 1_555 1_555
O89_2 C95_2 1_555 1_555
O78_2 Co14_2 1_555 1_555
C68_2 N18_2 1_555 1_555
C71_2 N19_2 1_555 1_555
Co14_2 O55_2 1_555 1_555
Co10_2 N19_2 1_555 1_555
Co10_2 O59_2 1_555 1_555
C90_2 N23_2 1_555 1_555
C90_2 N29_2 1_555 1_555
O64_2 H103_2 1_555 1_555
O64_2 H104_2 1_555 1_555
O65_2 H107_2 1_555 1_555
O65_2 H108_2 1_555 1_555
O78_2 H111_2 1_555 1_555
O78_2 H112_2 1_555 1_555
O76_2 H113_2 1_555 1_555
O76_2 H114_2 1_555 1_555

#END
