
###############################################################################
#
# This file contains modified crystal structure data generated from the
# MOF subset of the Cambridge Structural Database (CSD) v543 
# hosted by the Cambridge Crystallographic Data Centre (CCDC).
#
# This work is licensed under the Creative Commons
# Attribution-NonCommercial-ShareAlike 4.0 International License.
# To view a copy of this license, visit
# http://creativecommons.org/licenses/by-nc-sa/4.0/
# or send a letter to
# Creative Commons, PO Box 1866, Mountain View, CA 94042, USA.
#
# CIF created using the CSD Python API on 29 September 2022
# The structure has been converted into the P1 space group
# The structure has a 3D framework
# The original CSD entry ELOFIU is in the orthorhombic crystal system
# The framework has been calculated to contain at least 10.0% void space
# The void calculation uses a probe of radius 1.32A, grid spacing 0.4
# The framework is charged, counterions have been retained in the structure
# H atom positions have been added when not included in the experimental data
#
###############################################################################

data_ELOFIU
_chemical_formula_moiety         '(C64 H218 Ca6 Cl16 O61 4-)n'
_symmetry_cell_setting           triclinic
_symmetry_space_group_name_H-M   'P 1'
_symmetry_Int_Tables_number      1
_space_group_name_Hall           'P 1'
loop_
_symmetry_equiv_pos_site_id
_symmetry_equiv_pos_as_xyz
1 x,y,z
_cell_length_a                   11.6282(3)
_cell_length_b                   15.3443(4)
_cell_length_c                   22.2933(7)
_cell_angle_alpha                90
_cell_angle_beta                 90
_cell_angle_gamma                90
_cell_volume                     3977.72
loop_
_atom_site_label
_atom_site_type_symbol
_atom_site_fract_x
_atom_site_fract_y
_atom_site_fract_z
Ca1 Ca 0.1250 0.1250 0.1250
O5 O 0.0449(2) 0.25678(14) 0.17134(10)
H14 H 0.054(4) 0.3088(15) 0.1630(18)
C7 C 0.0342(3) 0.2493(2) 0.27930(13)
H17 H 0.0855 0.1987 0.2796
C8 C 0.1035(3) 0.3309(2) 0.28987(16)
O8 O 0.0245(2) 0.39985(15) 0.30168(11)
H18 H 0.054(3) 0.4462(10) 0.296(2)
H19 H 0.1494 0.3444 0.2548
H20 H 0.1547 0.3229 0.3238
O10 O 0.2051(2) 0.25678(14) 0.07866(10)
O11 O 0.2745(2) 0.14985(15) 0.19832(11)
O12 O 0.2745(2) 0.10015(15) 0.05168(11)
H22 H 0.196(4) 0.3088(15) 0.0870(18)
H23 H 0.304(3) 0.1962(10) 0.204(2)
H24 H 0.304(3) 0.0538(10) 0.046(2)
H25 H 0.180651 0.25261 0.0360786
H27 H 0.338067 0.14036 0.0625747
H28 H 0.338067 0.10964 0.187425
O1 O 0.0449(2) 0.99322(14) 0.07866(10)
H4 H 0.054(4) 0.9412(15) 0.0870(18)
O9 O 0.2051(2) 0.99322(14) 0.17134(10)
H21 H 0.196(4) 0.9412(15) 0.1630(18)
H26 H 0.180651 0.99739 0.213921
C4 C 0.1035(3) 0.9191(2) 0.96013(16)
O4 O 0.0245(2) 0.85015(15) 0.94832(11)
H8 H 0.054(3) 0.8038(10) 0.954(2)
H9 H 0.1494 0.9056 0.9952
H10 H 0.1547 0.9271 0.9262
O2 O 0.9755(2) 0.14985(15) 0.05168(11)
C2 C 0.8965(3) 0.0809(2) 0.03987(16)
H2 H 0.8506 0.0944 0.0048
H3 H 0.8453 0.0729 0.0738
H5 H 0.946(3) 0.1962(10) 0.046(2)
O6 O 0.9755(2) 0.10015(15) 0.19832(11)
C5 C 0.9658(3) 0.2507(2) 0.22070(13)
H11 H 0.9145 0.3013 0.2204
C6 C 0.8965(3) 0.1691(2) 0.21013(16)
H12 H 0.8506 0.1556 0.2452
H13 H 0.8453 0.1771 0.1762
H15 H 0.946(3) 0.0538(10) 0.204(2)
O7 O 0.9551(2) 0.24322(14) 0.32866(10)
H16 H 0.946(4) 0.1912(15) 0.3370(18)
Ca3 Ca 0.8750 0.3750 0.3750
O3 O 0.9551(2) 0.00678(14) 0.92134(10)
H6 H 0.946(4) 0.0588(15) 0.9130(18)
Ca2 Ca 0.8750 0.8750 0.8750
Ca1_2 Ca 0.1250 0.6250 0.6250
O1_2 O 0.0449(2) 0.49322(14) 0.57866(10)
H4_2 H 0.054(4) 0.4412(15) 0.5870(18)
C3 C 0.0342(3) 0.5007(2) 0.47070(13)
H7 H 0.0855 0.5513 0.4704
C4_2 C 0.1035(3) 0.4191(2) 0.46013(16)
O4_2 O 0.0245(2) 0.35015(15) 0.44832(11)
H8_2 H 0.054(3) 0.3038(10) 0.454(2)
H9_2 H 0.1494 0.4056 0.4952
H10_2 H 0.1547 0.4271 0.4262
O5_2 O 0.0449(2) 0.75678(14) 0.67134(10)
H14_2 H 0.054(4) 0.8088(15) 0.6630(18)
C7_2 C 0.0342(3) 0.7493(2) 0.77930(13)
H17_2 H 0.0855 0.6987 0.7796
C8_2 C 0.1035(3) 0.8309(2) 0.78987(16)
O8_2 O 0.0245(2) 0.89985(15) 0.80168(11)
H18_2 H 0.054(3) 0.9462(10) 0.796(2)
H19_2 H 0.1494 0.8444 0.7548
H20_2 H 0.1547 0.8229 0.8238
O9_2 O 0.2051(2) 0.49322(14) 0.67134(10)
O10_2 O 0.2051(2) 0.75678(14) 0.57866(10)
O11_2 O 0.2745(2) 0.64985(15) 0.69832(11)
O12_2 O 0.2745(2) 0.60015(15) 0.55168(11)
H21_2 H 0.196(4) 0.4412(15) 0.6630(18)
H22_2 H 0.196(4) 0.8088(15) 0.5870(18)
H23_2 H 0.304(3) 0.6962(10) 0.704(2)
H24_2 H 0.304(3) 0.5538(10) 0.546(2)
H25_2 H 0.180651 0.75261 0.536079
H26_2 H 0.180651 0.49739 0.713921
H27_2 H 0.338067 0.64036 0.562575
H28_2 H 0.338067 0.60964 0.687425
O2_2 O 0.9755(2) 0.64985(15) 0.55168(11)
C1 C 0.9658(3) 0.4993(2) 0.52930(13)
H1 H 0.9145 0.4487 0.5296
C2_2 C 0.8965(3) 0.5809(2) 0.53987(16)
H2_2 H 0.8506 0.5944 0.5048
H3_2 H 0.8453 0.5729 0.5738
H5_2 H 0.946(3) 0.6962(10) 0.546(2)
O3_2 O 0.9551(2) 0.50678(14) 0.42134(10)
H6_2 H 0.946(4) 0.5588(15) 0.4130(18)
O6_2 O 0.9755(2) 0.60015(15) 0.69832(11)
C5_2 C 0.9658(3) 0.7507(2) 0.72070(13)
H11_2 H 0.9145 0.8013 0.7204
C6_2 C 0.8965(3) 0.6691(2) 0.71013(16)
H12_2 H 0.8506 0.6556 0.7452
H13_2 H 0.8453 0.6771 0.6762
H15_2 H 0.946(3) 0.5538(10) 0.704(2)
O7_2 O 0.9551(2) 0.74322(14) 0.82866(10)
H16_2 H 0.946(4) 0.6912(15) 0.8370(18)
Ca1_3 Ca 0.6250 0.1250 0.6250
O2_3 O 0.4755(2) 0.14985(15) 0.55168(11)
C2_3 C 0.3965(3) 0.0809(2) 0.53987(16)
H2_3 H 0.3506 0.0944 0.5048
H3_3 H 0.3453 0.0729 0.5738
H5_3 H 0.446(3) 0.1962(10) 0.546(2)
C3_2 C 0.5342(3) 0.0007(2) 0.47070(13)
O3_3 O 0.4551(2) 0.00678(14) 0.42134(10)
H6_3 H 0.446(4) 0.0588(15) 0.4130(18)
H7_2 H 0.5855 0.0513 0.4704
O5_3 O 0.5449(2) 0.25678(14) 0.67134(10)
O6_3 O 0.4755(2) 0.10015(15) 0.69832(11)
C5_3 C 0.4658(3) 0.2507(2) 0.72070(13)
H11_3 H 0.4145 0.3013 0.7204
C6_3 C 0.3965(3) 0.1691(2) 0.71013(16)
H12_3 H 0.3506 0.1556 0.7452
H13_3 H 0.3453 0.1771 0.6762
H14_3 H 0.554(4) 0.3088(15) 0.6630(18)
H15_3 H 0.446(3) 0.0538(10) 0.704(2)
C7_3 C 0.5342(3) 0.2493(2) 0.77930(13)
O7_3 O 0.4551(2) 0.24322(14) 0.82866(10)
H16_3 H 0.446(4) 0.1912(15) 0.8370(18)
H17_3 H 0.5855 0.1987 0.7796
C8_3 C 0.6035(3) 0.3309(2) 0.78987(16)
O8_3 O 0.5245(2) 0.39985(15) 0.80168(11)
H18_3 H 0.554(3) 0.4462(10) 0.796(2)
H19_3 H 0.6494 0.3444 0.7548
H20_3 H 0.6547 0.3229 0.8238
O10_3 O 0.7051(2) 0.25678(14) 0.57866(10)
O11_3 O 0.7745(2) 0.14985(15) 0.69832(11)
O12_3 O 0.7745(2) 0.10015(15) 0.55168(11)
Ca3_2 Ca 0.3750 0.3750 0.8750
H22_3 H 0.696(4) 0.3088(15) 0.5870(18)
H23_3 H 0.804(3) 0.1962(10) 0.704(2)
H24_3 H 0.804(3) 0.0538(10) 0.546(2)
H25_3 H 0.680651 0.25261 0.536079
H27_3 H 0.838067 0.14036 0.562575
H28_3 H 0.838067 0.10964 0.687425
O1_3 O 0.5449(2) 0.99322(14) 0.57866(10)
C1_2 C 0.4658(3) 0.9993(2) 0.52930(13)
H1_2 H 0.4145 0.9487 0.5296
H4_3 H 0.554(4) 0.9412(15) 0.5870(18)
C4_3 C 0.6035(3) 0.9191(2) 0.46013(16)
O4_3 O 0.5245(2) 0.85015(15) 0.44832(11)
H8_3 H 0.554(3) 0.8038(10) 0.454(2)
H9_3 H 0.6494 0.9056 0.4952
H10_3 H 0.6547 0.9271 0.4262
O9_3 O 0.7051(2) 0.99322(14) 0.67134(10)
Ca2_2 Ca 0.3750 0.8750 0.3750
H21_3 H 0.696(4) 0.9412(15) 0.6630(18)
H26_3 H 0.680651 0.99739 0.713921
C2_4 C 0.3535(3) 0.0809(2) 0.21013(16)
H2_4 H 0.3994 0.0944 0.2452
H3_4 H 0.4047 0.0729 0.1762
C3_3 C 0.2158(3) 0.0007(2) 0.27930(13)
O3_4 O 0.2949(2) 0.00678(14) 0.32866(10)
H6_4 H 0.304(4) 0.0588(15) 0.3370(18)
H7_3 H 0.1645 0.0513 0.2796
C5_4 C 0.2842(3) 0.2507(2) 0.02930(13)
H11_4 H 0.3355 0.3013 0.0296
C6_4 C 0.3535(3) 0.1691(2) 0.03987(16)
H12_4 H 0.3994 0.1556 0.0048
H13_4 H 0.4047 0.1771 0.0738
H25_4 H 0.0693488 0.25261 0.213921
C7_4 C 0.2158(3) 0.2493(2) 0.97070(13)
O7_4 O 0.2949(2) 0.24322(14) 0.92134(10)
H16_4 H 0.304(4) 0.1912(15) 0.9130(18)
H17_4 H 0.1645 0.1987 0.9704
C8_4 C 0.1465(3) 0.3309(2) 0.96013(16)
O8_4 O 0.2255(2) 0.39985(15) 0.94832(11)
H18_4 H 0.196(3) 0.4462(10) 0.954(2)
H19_4 H 0.1006 0.3444 0.9952
H20_4 H 0.0953 0.3229 0.9262
C1_3 C 0.2842(3) 0.9993(2) 0.22070(13)
H1_3 H 0.3355 0.9487 0.2204
C4_4 C 0.1465(3) 0.9191(2) 0.28987(16)
O4_4 O 0.2255(2) 0.85015(15) 0.30168(11)
H8_4 H 0.196(3) 0.8038(10) 0.296(2)
H9_4 H 0.1006 0.9056 0.2548
H10_4 H 0.0953 0.9271 0.3238
H26_4 H 0.0693488 0.99739 0.0360786
H27_4 H 0.911933 0.14036 0.187425
H28_4 H 0.911933 0.10964 0.0625747
Ca1_4 Ca 0.6250 0.6250 0.1250
O1_4 O 0.5449(2) 0.49322(14) 0.07866(10)
O2_4 O 0.4755(2) 0.64985(15) 0.05168(11)
C1_4 C 0.4658(3) 0.4993(2) 0.02930(13)
H1_4 H 0.4145 0.4487 0.0296
C2_5 C 0.3965(3) 0.5809(2) 0.03987(16)
H2_5 H 0.3506 0.5944 0.0048
H3_5 H 0.3453 0.5729 0.0738
H4_4 H 0.554(4) 0.4412(15) 0.0870(18)
H5_4 H 0.446(3) 0.6962(10) 0.046(2)
O5_4 O 0.5449(2) 0.75678(14) 0.17134(10)
O6_4 O 0.4755(2) 0.60015(15) 0.19832(11)
C5_5 C 0.4658(3) 0.7507(2) 0.22070(13)
H11_5 H 0.4145 0.8013 0.2204
C6_5 C 0.3965(3) 0.6691(2) 0.21013(16)
H12_5 H 0.3506 0.6556 0.2452
H13_5 H 0.3453 0.6771 0.1762
H14_4 H 0.554(4) 0.8088(15) 0.1630(18)
H15_4 H 0.446(3) 0.5538(10) 0.204(2)
C7_5 C 0.5342(3) 0.7493(2) 0.27930(13)
O7_5 O 0.4551(2) 0.74322(14) 0.32866(10)
H16_5 H 0.446(4) 0.6912(15) 0.3370(18)
H17_5 H 0.5855 0.6987 0.2796
C8_5 C 0.6035(3) 0.8309(2) 0.28987(16)
O8_5 O 0.5245(2) 0.89985(15) 0.30168(11)
H18_5 H 0.554(3) 0.9462(10) 0.296(2)
H19_5 H 0.6494 0.8444 0.2548
H20_5 H 0.6547 0.8229 0.3238
O9_4 O 0.7051(2) 0.49322(14) 0.17134(10)
O10_4 O 0.7051(2) 0.75678(14) 0.07866(10)
O11_4 O 0.7745(2) 0.64985(15) 0.19832(11)
O12_4 O 0.7745(2) 0.60015(15) 0.05168(11)
H21_4 H 0.696(4) 0.4412(15) 0.1630(18)
H22_4 H 0.696(4) 0.8088(15) 0.0870(18)
H23_4 H 0.804(3) 0.6962(10) 0.204(2)
H24_4 H 0.804(3) 0.5538(10) 0.046(2)
H25_5 H 0.680651 0.75261 0.0360786
H26_5 H 0.680651 0.49739 0.213921
H27_5 H 0.838067 0.64036 0.0625747
H28_5 H 0.838067 0.60964 0.187425
C3_4 C 0.5342(3) 0.5007(2) 0.97070(13)
O3_5 O 0.4551(2) 0.50678(14) 0.92134(10)
H6_5 H 0.446(4) 0.5588(15) 0.9130(18)
H7_4 H 0.5855 0.5513 0.9704
C4_5 C 0.6035(3) 0.4191(2) 0.96013(16)
O4_5 O 0.5245(2) 0.35015(15) 0.94832(11)
H8_5 H 0.554(3) 0.3038(10) 0.954(2)
H9_5 H 0.6494 0.4056 0.9952
H10_5 H 0.6547 0.4271 0.9262
O5_5 O 0.2949(2) 0.50678(14) 0.82866(10)
O6_5 O 0.2255(2) 0.35015(15) 0.80168(11)
C5_6 C 0.2158(3) 0.5007(2) 0.77930(13)
H11_6 H 0.1645 0.5513 0.7796
C6_6 C 0.1465(3) 0.4191(2) 0.78987(16)
H12_6 H 0.1006 0.4056 0.7548
H13_6 H 0.0953 0.4271 0.8238
H14_5 H 0.304(4) 0.5588(15) 0.8370(18)
H15_5 H 0.196(3) 0.3038(10) 0.796(2)
C7_6 C 0.2842(3) 0.4993(2) 0.72070(13)
H17_6 H 0.3355 0.4487 0.7204
C8_6 C 0.3535(3) 0.5809(2) 0.71013(16)
H19_6 H 0.3994 0.5944 0.7452
H20_6 H 0.4047 0.5729 0.6762
H25_6 H 0.430651 0.50261 0.963921
H26_6 H 0.430651 0.24739 0.786079
H27_6 H 0.588067 0.39036 0.937425
H28_6 H 0.588067 0.35964 0.812575
H26_7 H 0.430651 0.00261044 0.463921
O5_6 O 0.2949(2) 0.74322(14) 0.42134(10)
O6_6 O 0.2255(2) 0.89985(15) 0.44832(11)
C5_7 C 0.2158(3) 0.7493(2) 0.47070(13)
H11_7 H 0.1645 0.6987 0.4704
C6_7 C 0.1465(3) 0.8309(2) 0.46013(16)
H12_7 H 0.1006 0.8444 0.4952
H13_7 H 0.0953 0.8229 0.4262
H14_6 H 0.304(4) 0.6912(15) 0.4130(18)
H15_6 H 0.196(3) 0.9462(10) 0.454(2)
C7_7 C 0.2842(3) 0.7507(2) 0.52930(13)
H17_7 H 0.3355 0.8013 0.5296
C8_7 C 0.3535(3) 0.6691(2) 0.53987(16)
H19_7 H 0.3994 0.6556 0.5048
H20_7 H 0.4047 0.6771 0.5738
H25_7 H 0.430651 0.74739 0.286079
H27_7 H 0.588067 0.85964 0.312575
H28_7 H 0.588067 0.89036 0.437425
O9_5 O 0.7949(2) 0.24322(14) 0.42134(10)
O10_5 O 0.7949(2) 0.50678(14) 0.32866(10)
O11_5 O 0.7255(2) 0.39985(15) 0.44832(11)
O12_5 O 0.7255(2) 0.35015(15) 0.30168(11)
H21_5 H 0.804(4) 0.1912(15) 0.4130(18)
H22_5 H 0.804(4) 0.5588(15) 0.3370(18)
H23_5 H 0.696(3) 0.4462(10) 0.454(2)
H24_5 H 0.696(3) 0.3038(10) 0.296(2)
H25_8 H 0.819349 0.50261 0.286079
H26_8 H 0.819349 0.24739 0.463921
H27_8 H 0.661933 0.39036 0.312575
H28_8 H 0.661933 0.35964 0.437425
H27_9 H 0.0880669 0.39036 0.437425
H28_9 H 0.0880669 0.35964 0.312575
C1_5 C 0.7158(3) 0.2493(2) 0.47070(13)
H1_5 H 0.6645 0.1987 0.4704
C2_6 C 0.6465(3) 0.3309(2) 0.46013(16)
H2_6 H 0.6006 0.3444 0.4952
H3_6 H 0.5953 0.3229 0.4262
C3_5 C 0.7842(3) 0.2507(2) 0.52930(13)
H7_5 H 0.8355 0.3013 0.5296
C4_6 C 0.8535(3) 0.1691(2) 0.53987(16)
H9_6 H 0.8994 0.1556 0.5048
H10_6 H 0.9047 0.1771 0.5738
C5_8 C 0.7158(3) 0.5007(2) 0.27930(13)
H11_8 H 0.6645 0.5513 0.2796
C6_8 C 0.6465(3) 0.4191(2) 0.28987(16)
H12_8 H 0.6006 0.4056 0.2548
H13_8 H 0.5953 0.4271 0.3238
C7_8 C 0.7842(3) 0.4993(2) 0.22070(13)
H17_8 H 0.8355 0.4487 0.2204
C8_8 C 0.8535(3) 0.5809(2) 0.21013(16)
H19_8 H 0.8994 0.5944 0.2452
H20_8 H 0.9047 0.5729 0.1762
H25_9 H 0.930651 0.50261 0.463921
H26_9 H 0.930651 0.24739 0.286079
H25_10 H 0.319349 0.50261 0.786079
H26_10 H 0.319349 0.24739 0.963921
H27_10 H 0.161933 0.39036 0.812575
H28_10 H 0.161933 0.35964 0.937425
H25_11 H 0.319349 0.00261044 0.286079
H26_11 H 0.319349 0.74739 0.463921
H27_11 H 0.161933 0.89036 0.312575
H28_11 H 0.161933 0.85964 0.437425
O9_6 O 0.7949(2) 0.00678(14) 0.82866(10)
H21_6 H 0.804(4) 0.0588(15) 0.8370(18)
H26_12 H 0.819349 0.00261044 0.786079
O10_6 O 0.7949(2) 0.74322(14) 0.92134(10)
O11_6 O 0.7255(2) 0.85015(15) 0.80168(11)
O12_6 O 0.7255(2) 0.89985(15) 0.94832(11)
H22_6 H 0.804(4) 0.6912(15) 0.9130(18)
H23_6 H 0.696(3) 0.8038(10) 0.796(2)
H24_6 H 0.696(3) 0.9462(10) 0.954(2)
H25_12 H 0.819349 0.74739 0.963921
H27_12 H 0.661933 0.85964 0.937425
H28_12 H 0.661933 0.89036 0.812575
H27_13 H 0.0880669 0.85964 0.812575
H28_13 H 0.0880669 0.89036 0.937425
C1_6 C 0.7158(3) 0.0007(2) 0.77930(13)
H1_6 H 0.6645 0.0513 0.7796
C4_7 C 0.8535(3) 0.0809(2) 0.71013(16)
H9_7 H 0.8994 0.0944 0.7452
H10_7 H 0.9047 0.0729 0.6762
H26_13 H 0.930651 0.00261044 0.963921
C7_9 C 0.7842(3) 0.7507(2) 0.02930(13)
H17_9 H 0.8355 0.8013 0.0296
C8_9 C 0.8535(3) 0.6691(2) 0.03987(16)
H19_9 H 0.8994 0.6556 0.0048
H20_9 H 0.9047 0.6771 0.0738
C2_7 C 0.6465(3) 0.9191(2) 0.78987(16)
H2_7 H 0.6006 0.9056 0.7548
H3_7 H 0.5953 0.9271 0.8238
C3_6 C 0.7842(3) 0.9993(2) 0.72070(13)
H7_6 H 0.8355 0.9487 0.7204
C5_9 C 0.7158(3) 0.7493(2) 0.97070(13)
H11_9 H 0.6645 0.6987 0.9704
C6_9 C 0.6465(3) 0.8309(2) 0.96013(16)
H12_9 H 0.6006 0.8444 0.9952
H13_9 H 0.5953 0.8229 0.9262
H25_13 H 0.930651 0.74739 0.786079
H25_14 H 0.569349 0.49739 0.0360786
H26_14 H 0.569349 0.75261 0.213921
H27_14 H 0.411933 0.60964 0.0625747
H28_14 H 0.411933 0.64036 0.187425
H25_15 H 0.569349 0.25261 0.713921
H27_15 H 0.411933 0.14036 0.687425
H28_15 H 0.411933 0.10964 0.562575
H26_15 H 0.569349 0.99739 0.536079
H25_16 H 0.0693488 0.49739 0.536079
H26_16 H 0.0693488 0.75261 0.713921
H27_16 H 0.911933 0.60964 0.562575
H28_16 H 0.911933 0.64036 0.687425
C3_7 C 0.0342(3) 0.0007(2) 0.97070(13)
H7_7 H 0.0855 0.0513 0.9704
C1_7 C 0.9658(3) 0.9993(2) 0.02930(13)
H1_7 H 0.9145 0.9487 0.0296
Cl1 Cl 0.1250 0.81371(13) 0.1250
Cl1_2 Cl 0.1250 0.31371(13) 0.6250
Cl1_3 Cl 0.1250 0.43629(13) 0.1250
Cl1_4 Cl 0.6250 0.81371(13) 0.6250
Cl1_5 Cl 0.6250 0.31371(13) 0.1250
Cl1_6 Cl 0.3750 0.06371(13) 0.8750
Cl1_7 Cl 0.3750 0.18629(13) 0.3750
Cl1_8 Cl 0.8750 0.06371(13) 0.3750
Cl1_9 Cl 0.3750 0.56371(13) 0.3750
Cl1_10 Cl 0.3750 0.68629(13) 0.8750
Cl1_11 Cl 0.8750 0.68629(13) 0.3750
Cl1_12 Cl 0.8750 0.18629(13) 0.8750
Cl1_13 Cl 0.8750 0.56371(13) 0.8750
Cl1_14 Cl 0.6250 0.93629(13) 0.1250
Cl1_15 Cl 0.1250 0.93629(13) 0.6250
Cl1_16 Cl 0.6250 0.43629(13) 0.6250
loop_
_geom_bond_atom_site_label_1
_geom_bond_atom_site_label_2
_geom_bond_site_symmetry_1
_geom_bond_site_symmetry_2
O5 Ca1 1_555 1_555
H14 O5 1_555 1_555
H17 C7 1_555 1_555
C8 C7 1_555 1_555
O8 C8 1_555 1_555
H18 O8 1_555 1_555
H19 C8 1_555 1_555
H20 C8 1_555 1_555
O10 Ca1 1_555 1_555
O11 Ca1 1_555 1_555
O12 Ca1 1_555 1_555
H22 O10 1_555 1_555
H23 O11 1_555 1_555
H24 O12 1_555 1_555
O10 H25 1_555 1_555
O12 H27 1_555 1_555
O11 H28 1_555 1_555
H4 O1 1_555 1_555
H21 O9 1_555 1_555
O9 H26 1_555 1_555
O4 C4 1_555 1_555
H8 O4 1_555 1_555
H9 C4 1_555 1_555
H10 C4 1_555 1_555
C2 O2 1_555 1_555
H2 C2 1_555 1_555
H3 C2 1_555 1_555
H5 O2 1_555 1_555
H11 C5 1_555 1_555
C6 O6 1_555 1_555
H12 C6 1_555 1_555
H13 C6 1_555 1_555
H15 O6 1_555 1_555
H16 O7 1_555 1_555
Ca3 O7 1_555 1_555
C5 C6 1_555 1_555
H6 O3 1_555 1_555
Ca1_2 O1_2 1_555 1_555
H4_2 O1_2 1_555 1_555
H7 C3 1_555 1_555
C4_2 C3 1_555 1_555
O4_2 C4_2 1_555 1_555
H8_2 O4_2 1_555 1_555
H9_2 C4_2 1_555 1_555
H10_2 C4_2 1_555 1_555
O5_2 Ca1_2 1_555 1_555
H14_2 O5_2 1_555 1_555
H17_2 C7_2 1_555 1_555
C8_2 C7_2 1_555 1_555
O8_2 C8_2 1_555 1_555
H18_2 O8_2 1_555 1_555
H19_2 C8_2 1_555 1_555
H20_2 C8_2 1_555 1_555
O9_2 Ca1_2 1_555 1_555
O10_2 Ca1_2 1_555 1_555
O11_2 Ca1_2 1_555 1_555
O12_2 Ca1_2 1_555 1_555
H21_2 O9_2 1_555 1_555
H22_2 O10_2 1_555 1_555
H23_2 O11_2 1_555 1_555
H24_2 O12_2 1_555 1_555
O10_2 H25_2 1_555 1_555
O9_2 H26_2 1_555 1_555
O12_2 H27_2 1_555 1_555
O11_2 H28_2 1_555 1_555
C1 H1 1_555 1_555
C2_2 O2_2 1_555 1_555
H2_2 C2_2 1_555 1_555
H3_2 C2_2 1_555 1_555
H5_2 O2_2 1_555 1_555
H6_2 O3_2 1_555 1_555
H11_2 C5_2 1_555 1_555
C6_2 O6_2 1_555 1_555
H12_2 C6_2 1_555 1_555
H13_2 C6_2 1_555 1_555
H15_2 O6_2 1_555 1_555
H16_2 O7_2 1_555 1_555
Ca3 O3_2 1_555 1_555
Ca2 O7_2 1_555 1_555
C1 C2_2 1_555 1_555
C5_2 C6_2 1_555 1_555
O2_3 Ca1_3 1_555 1_555
C2_3 O2_3 1_555 1_555
H2_3 C2_3 1_555 1_555
H3_3 C2_3 1_555 1_555
H5_3 O2_3 1_555 1_555
O3_3 C3_2 1_555 1_555
H6_3 O3_3 1_555 1_555
H7_2 C3_2 1_555 1_555
O5_3 Ca1_3 1_555 1_555
O6_3 Ca1_3 1_555 1_555
C5_3 O5_3 1_555 1_555
H11_3 C5_3 1_555 1_555
C6_3 O6_3 1_555 1_555
H12_3 C6_3 1_555 1_555
H13_3 C6_3 1_555 1_555
H14_3 O5_3 1_555 1_555
H15_3 O6_3 1_555 1_555
C7_3 C5_3 1_555 1_555
O7_3 C7_3 1_555 1_555
H16_3 O7_3 1_555 1_555
H17_3 C7_3 1_555 1_555
C8_3 C7_3 1_555 1_555
O8_3 C8_3 1_555 1_555
H18_3 O8_3 1_555 1_555
H19_3 C8_3 1_555 1_555
H20_3 C8_3 1_555 1_555
O10_3 Ca1_3 1_555 1_555
O11_3 Ca1_3 1_555 1_555
O12_3 Ca1_3 1_555 1_555
Ca3_2 O7_3 1_555 1_555
H22_3 O10_3 1_555 1_555
H23_3 O11_3 1_555 1_555
H24_3 O12_3 1_555 1_555
C5_3 C6_3 1_555 1_555
O8_3 Ca3_2 1_555 1_555
O10_3 H25_3 1_555 1_555
O12_3 H27_3 1_555 1_555
O11_3 H28_3 1_555 1_555
O1_3 C1_2 1_555 1_555
C1_2 H1_2 1_555 1_555
H4_3 O1_3 1_555 1_555
O4_3 C4_3 1_555 1_555
H8_3 O4_3 1_555 1_555
H9_3 C4_3 1_555 1_555
H10_3 C4_3 1_555 1_555
H21_3 O9_3 1_555 1_555
O4_3 Ca2_2 1_555 1_555
O9_3 H26_3 1_555 1_555
C2_4 O11 1_555 1_555
H2_4 C2_4 1_555 1_555
H3_4 C2_4 1_555 1_555
O3_4 C3_3 1_555 1_555
H6_4 O3_4 1_555 1_555
H7_3 C3_3 1_555 1_555
C5_4 O10 1_555 1_555
H11_4 C5_4 1_555 1_555
C6_4 O12 1_555 1_555
H12_4 C6_4 1_555 1_555
H13_4 C6_4 1_555 1_555
C5_4 C6_4 1_555 1_555
O5 H25_4 1_555 1_555
O7_4 C7_4 1_555 1_555
H16_4 O7_4 1_555 1_555
H17_4 C7_4 1_555 1_555
C8_4 C7_4 1_555 1_555
O8_4 C8_4 1_555 1_555
H18_4 O8_4 1_555 1_555
H19_4 C8_4 1_555 1_555
H20_4 C8_4 1_555 1_555
Ca3_2 O7_4 1_555 1_555
O8_4 Ca3_2 1_555 1_555
O9 C1_3 1_555 1_555
C1_3 H1_3 1_555 1_555
O4_4 C4_4 1_555 1_555
H8_4 O4_4 1_555 1_555
H9_4 C4_4 1_555 1_555
H10_4 C4_4 1_555 1_555
O4_4 Ca2_2 1_555 1_555
O1 H26_4 1_555 1_555
O6 H27_4 1_555 1_555
O2 H28_4 1_555 1_555
Ca1_4 O1_4 1_555 1_555
O1_4 C1_4 1_555 1_555
O2_4 Ca1_4 1_555 1_555
C1_4 H1_4 1_555 1_555
C2_5 O2_4 1_555 1_555
H2_5 C2_5 1_555 1_555
H3_5 C2_5 1_555 1_555
H4_4 O1_4 1_555 1_555
H5_4 O2_4 1_555 1_555
O5_4 Ca1_4 1_555 1_555
O6_4 Ca1_4 1_555 1_555
C5_5 O5_4 1_555 1_555
H11_5 C5_5 1_555 1_555
C6_5 O6_4 1_555 1_555
H12_5 C6_5 1_555 1_555
H13_5 C6_5 1_555 1_555
H14_4 O5_4 1_555 1_555
H15_4 O6_4 1_555 1_555
C7_5 C5_5 1_555 1_555
O7_5 C7_5 1_555 1_555
H16_5 O7_5 1_555 1_555
H17_5 C7_5 1_555 1_555
C8_5 C7_5 1_555 1_555
O8_5 C8_5 1_555 1_555
H18_5 O8_5 1_555 1_555
H19_5 C8_5 1_555 1_555
H20_5 C8_5 1_555 1_555
O9_4 Ca1_4 1_555 1_555
O10_4 Ca1_4 1_555 1_555
O11_4 Ca1_4 1_555 1_555
O12_4 Ca1_4 1_555 1_555
Ca2_2 O7_5 1_555 1_555
H21_4 O9_4 1_555 1_555
H22_4 O10_4 1_555 1_555
H23_4 O11_4 1_555 1_555
H24_4 O12_4 1_555 1_555
C1_4 C2_5 1_555 1_555
C5_5 C6_5 1_555 1_555
O8_5 Ca2_2 1_555 1_555
O10_4 H25_5 1_555 1_555
O9_4 H26_5 1_555 1_555
O12_4 H27_5 1_555 1_555
O11_4 H28_5 1_555 1_555
O3_5 C3_4 1_555 1_555
H6_5 O3_5 1_555 1_555
H7_4 C3_4 1_555 1_555
C4_5 C3_4 1_555 1_555
O4_5 C4_5 1_555 1_555
H8_5 O4_5 1_555 1_555
H9_5 C4_5 1_555 1_555
H10_5 C4_5 1_555 1_555
Ca3_2 O3_5 1_555 1_555
O4_5 Ca3_2 1_555 1_555
O5_5 Ca3_2 1_555 1_555
O6_5 Ca3_2 1_555 1_555
C5_6 O5_5 1_555 1_555
H11_6 C5_6 1_555 1_555
C6_6 O6_5 1_555 1_555
H12_6 C6_6 1_555 1_555
H13_6 C6_6 1_555 1_555
H14_5 O5_5 1_555 1_555
H15_5 O6_5 1_555 1_555
C7_6 C5_6 1_555 1_555
O9_2 C7_6 1_555 1_555
H17_6 C7_6 1_555 1_555
C8_6 C7_6 1_555 1_555
O11_2 C8_6 1_555 1_555
H19_6 C8_6 1_555 1_555
H20_6 C8_6 1_555 1_555
C5_6 C6_6 1_555 1_555
O3_5 H25_6 1_555 1_555
O7_3 H26_6 1_555 1_555
O4_5 H27_6 1_555 1_555
O8_3 H28_6 1_555 1_555
O3_3 H26_7 1_555 1_555
O5_6 Ca2_2 1_555 1_555
O6_6 Ca2_2 1_555 1_555
C5_7 O5_6 1_555 1_555
H11_7 C5_7 1_555 1_555
C6_7 O6_6 1_555 1_555
H12_7 C6_7 1_555 1_555
H13_7 C6_7 1_555 1_555
H14_6 O5_6 1_555 1_555
H15_6 O6_6 1_555 1_555
C7_7 C5_7 1_555 1_555
O10_2 C7_7 1_555 1_555
H17_7 C7_7 1_555 1_555
C8_7 C7_7 1_555 1_555
O12_2 C8_7 1_555 1_555
H19_7 C8_7 1_555 1_555
H20_7 C8_7 1_555 1_555
C5_7 C6_7 1_555 1_555
O7_5 H25_7 1_555 1_555
O8_5 H27_7 1_555 1_555
O4_3 H28_7 1_555 1_555
O9_5 Ca3 1_555 1_555
O10_5 Ca3 1_555 1_555
O11_5 Ca3 1_555 1_555
O12_5 Ca3 1_555 1_555
H21_5 O9_5 1_555 1_555
H22_5 O10_5 1_555 1_555
H23_5 O11_5 1_555 1_555
H24_5 O12_5 1_555 1_555
O10_5 H25_8 1_555 1_555
O9_5 H26_8 1_555 1_555
O12_5 H27_8 1_555 1_555
O11_5 H28_8 1_555 1_555
O4_2 H27_9 1_555 1_555
O8 H28_9 1_555 1_555
O9_5 C1_5 1_555 1_555
C1_5 H1_5 1_555 1_555
C2_6 O11_5 1_555 1_555
H2_6 C2_6 1_555 1_555
H3_6 C2_6 1_555 1_555
C3_5 C1_5 1_555 1_555
O10_3 C3_5 1_555 1_555
H7_5 C3_5 1_555 1_555
C4_6 C3_5 1_555 1_555
O12_3 C4_6 1_555 1_555
H9_6 C4_6 1_555 1_555
H10_6 C4_6 1_555 1_555
C5_8 O10_5 1_555 1_555
H11_8 C5_8 1_555 1_555
C6_8 O12_5 1_555 1_555
H12_8 C6_8 1_555 1_555
H13_8 C6_8 1_555 1_555
C7_8 C5_8 1_555 1_555
O9_4 C7_8 1_555 1_555
H17_8 C7_8 1_555 1_555
C8_8 C7_8 1_555 1_555
O11_4 C8_8 1_555 1_555
H19_8 C8_8 1_555 1_555
H20_8 C8_8 1_555 1_555
C1_5 C2_6 1_555 1_555
C5_8 C6_8 1_555 1_555
O3_2 H25_9 1_555 1_555
O7 H26_9 1_555 1_555
O5_5 H25_10 1_555 1_555
O7_4 H26_10 1_555 1_555
O6_5 H27_10 1_555 1_555
O8_4 H28_10 1_555 1_555
O3_4 H25_11 1_555 1_555
O5_6 H26_11 1_555 1_555
O4_4 H27_11 1_555 1_555
O6_6 H28_11 1_555 1_555
H21_6 O9_6 1_555 1_555
O9_6 H26_12 1_555 1_555
O10_6 Ca2 1_555 1_555
O11_6 Ca2 1_555 1_555
O12_6 Ca2 1_555 1_555
H22_6 O10_6 1_555 1_555
H23_6 O11_6 1_555 1_555
H24_6 O12_6 1_555 1_555
O10_6 H25_12 1_555 1_555
O12_6 H27_12 1_555 1_555
O11_6 H28_12 1_555 1_555
O8_2 H27_13 1_555 1_555
O4 H28_13 1_555 1_555
O9_6 C1_6 1_555 1_555
C1_6 H1_6 1_555 1_555
O11_3 C4_7 1_555 1_555
H9_7 C4_7 1_555 1_555
H10_7 C4_7 1_555 1_555
O3 H26_13 1_555 1_555
O10_4 C7_9 1_555 1_555
H17_9 C7_9 1_555 1_555
C8_9 C7_9 1_555 1_555
O12_4 C8_9 1_555 1_555
H19_9 C8_9 1_555 1_555
H20_9 C8_9 1_555 1_555
C2_7 O11_6 1_555 1_555
H2_7 C2_7 1_555 1_555
H3_7 C2_7 1_555 1_555
O9_3 C3_6 1_555 1_555
H7_6 C3_6 1_555 1_555
C5_9 O10_6 1_555 1_555
H11_9 C5_9 1_555 1_555
C6_9 O12_6 1_555 1_555
H12_9 C6_9 1_555 1_555
H13_9 C6_9 1_555 1_555
C5_9 C6_9 1_555 1_555
O7_2 H25_13 1_555 1_555
O1_4 H25_14 1_555 1_555
O5_4 H26_14 1_555 1_555
O2_4 H27_14 1_555 1_555
O6_4 H28_14 1_555 1_555
O5_3 H25_15 1_555 1_555
O6_3 H27_15 1_555 1_555
O2_3 H28_15 1_555 1_555
O1_3 H26_15 1_555 1_555
O1_2 H25_16 1_555 1_555
O5_2 H26_16 1_555 1_555
O2_2 H27_16 1_555 1_555
O6_2 H28_16 1_555 1_555
H7_7 C3_7 1_555 1_555
C1_7 H1_7 1_555 1_555

#END
