
###############################################################################
#
# This file contains modified crystal structure data generated from the
# MOF subset of the Cambridge Structural Database (CSD) v543 
# hosted by the Cambridge Crystallographic Data Centre (CCDC).
#
# This work is licensed under the Creative Commons
# Attribution-NonCommercial-ShareAlike 4.0 International License.
# To view a copy of this license, visit
# http://creativecommons.org/licenses/by-nc-sa/4.0/
# or send a letter to
# Creative Commons, PO Box 1866, Mountain View, CA 94042, USA.
#
# CIF created using the CSD Python API on 29 September 2022
# The structure has been converted into the P1 space group
# The structure has a 3D framework
# The original CSD entry ELOGUJ is in the orthorhombic crystal system
# The framework has been calculated to contain at least 10.0% void space
# The void calculation uses a probe of radius 1.32A, grid spacing 0.4
#
###############################################################################

data_ELOGUJ
_chemical_formula_moiety         '(C96 H80 Co8 N32 O160 V4 W48)n'
_symmetry_cell_setting           triclinic
_symmetry_space_group_name_H-M   'P 1'
_symmetry_Int_Tables_number      1
_space_group_name_Hall           'P 1'
loop_
_symmetry_equiv_pos_site_id
_symmetry_equiv_pos_as_xyz
1 x,y,z
_cell_length_a                   26.867(5)
_cell_length_b                   20.084(5)
_cell_length_c                   13.099(5)
_cell_angle_alpha                90
_cell_angle_beta                 90
_cell_angle_gamma                90
_cell_volume                     7068.18
loop_
_atom_site_label
_atom_site_type_symbol
_atom_site_fract_x
_atom_site_fract_y
_atom_site_fract_z
H18 H 0.1546 0.5138 0.0163
H9 H 0.0020 0.0060 0.8396
N7 N 0.0801(7) 0.5704(9) 0.8598(13)
C13 C 0.0276(9) 0.6415(12) 0.756(2)
H11 H 0.0527 0.6732 0.7506
C14 C 0.0901(11) 0.5311(12) 0.944(2)
H12 H 0.0672 0.5055 0.9804
C15 C 0.0352(8) 0.5826(11) 0.8098(18)
C22 C 0.1381(10) 0.5367(11) 0.9647(16)
H19 H 0.0020 0.4940 0.8396
C24 C 0.1264(9) 0.5994(13) 0.8323(17)
H20 H 0.1316 0.6267 0.7761
N8 N 0.1607(7) 0.5820(10) 0.8978(13)
Co5 Co 0.24025(14) 0.60955(19) 0.8931(2)
N3 N 0.0801(7) 0.9296(9) 0.8598(13)
C1 C 0.0276(9) 0.8585(12) 0.756(2)
H1 H 0.0527 0.8268 0.7506
C2 C 0.0901(11) 0.9689(12) 0.944(2)
H2 H 0.0672 0.9945 0.9804
C3 C 0.0352(8) 0.9174(11) 0.8098(18)
C10 C 0.1381(10) 0.9633(11) 0.9647(16)
C12 C 0.1264(9) 0.9006(13) 0.8323(17)
H10 H 0.1316 0.8733 0.7761
N4 N 0.1607(7) 0.9180(10) 0.8978(13)
Co6 Co 0.24025(14) 0.89045(19) 0.8931(2)
Co4 Co 0.75975(14) 0.10955(19) 0.1069(2)
Co8 Co 0.75975(14) 0.39045(19) 0.1069(2)
W1 W 0.65363(2) 0.16622(3) 0.52874(5)
W2 W 0.65380(4) 0.2500 0.75134(7)
W3 W 0.86842(4) 0.2500 0.44110(7)
W4 W 0.76624(3) 0.16667(4) 0.36822(5)
W5 W 0.86864(2) 0.34216(3) 0.68514(5)
W6 W 0.76589(3) 0.07493(3) 0.61145(5)
W7 W 0.76670(3) 0.15837(4) 0.83299(5)
V1 V 0.76358(16) 0.2500 0.6034(3)
O1 O 0.8761(5) 0.2500 0.7193(11)
O2 O 0.7552(6) 0.2500 0.2981(13)
O3 O 0.8372(4) 0.1837(6) 0.3595(9)
O4 O 0.6269(4) 0.1828(6) 0.6632(8)
O5 O 0.7010(4) 0.1850(6) 0.7992(8)
O6 O 0.7557(4) 0.0780(6) 0.7568(10)
O7 O 0.7021(6) 0.2500 0.6030(11)
O8 O 0.8762(4) 0.3174(5) 0.5438(8)
O9 O 0.7594(4) 0.1132(6) 0.2676(9)
O10 O 0.6097(4) 0.1130(6) 0.4802(9)
O11 O 0.6992(4) 0.1060(5) 0.5953(8)
O12 O 0.7784(4) 0.1060(5) 0.4772(8)
O13 O 0.7833(4) 0.3158(5) 0.6620(8)
O14 O 0.8371(4) 0.3549(6) 0.8146(8)
O15 O 0.6994(4) 0.1706(6) 0.4196(9)
O16 O 0.9262(7) 0.2500 0.3881(14)
O17 O 0.9264(4) 0.3724(6) 0.7118(10)
O18 O 0.6261(5) 0.2500 0.4880(11)
O19 O 0.8364(4) 0.4218(5) 0.6384(9)
O20 O 0.7789(6) 0.2500 0.8582(12)
O22 O 0.7846(5) 0.2500 0.4866(11)
O23 O 0.6116(7) 0.2500 0.8480(14)
O24 O 0.7590(5) 0.1281(7) 0.9539(9)
W8 W 0.65363(2) 0.33378(3) 0.52874(5)
W9 W 0.76624(3) 0.33333(4) 0.36822(5)
W10 W 0.86864(2) 0.15784(3) 0.68514(5)
W11 W 0.76589(3) 0.42507(3) 0.61145(5)
W12 W 0.76670(3) 0.34163(4) 0.83299(5)
Co2 Co 0.74025(14) 0.60955(19) 0.6069(2)
O25 O 0.8372(4) 0.3163(6) 0.3595(9)
O26 O 0.6269(4) 0.3172(6) 0.6632(8)
O27 O 0.7010(4) 0.3150(6) 0.7992(8)
O28 O 0.7557(4) 0.4220(6) 0.7568(10)
O29 O 0.8762(4) 0.1826(5) 0.5438(8)
O30 O 0.7594(4) 0.3868(6) 0.2676(9)
O31 O 0.6097(4) 0.3870(6) 0.4802(9)
O32 O 0.6992(4) 0.3940(5) 0.5953(8)
O33 O 0.7784(4) 0.3940(5) 0.4772(8)
O34 O 0.7833(4) 0.1842(5) 0.6620(8)
O35 O 0.8371(4) 0.1451(6) 0.8146(8)
O36 O 0.6994(4) 0.3294(6) 0.4196(9)
O37 O 0.9264(4) 0.1276(6) 0.7118(10)
O38 O 0.8364(4) 0.0782(5) 0.6384(9)
O39 O 0.7579(4) 0.5088(6) 0.5933(10)
N5 N 0.8197(8) 0.6224(11) 0.6114(14)
N6 N 0.9003(7) 0.6159(9) 0.6538(14)
C16 C 0.9446(9) 0.6047(11) 0.7073(16)
C17 C 0.8951(9) 0.6561(13) 0.5624(17)
H13 H 0.9205 0.6773 0.5266
C18 C 0.8477(9) 0.6565(12) 0.5405(16)
H14 H 0.8344 0.6775 0.4834
C19 C 0.8528(9) 0.5977(13) 0.676(2)
H15 H 0.8444 0.5707 0.7316
C20 C 0.9800(9) 0.6515(13) 0.711(2)
H16 H 0.9731 0.6929 0.6822
C21 C 0.9524(9) 0.5434(12) 0.7523(19)
H17 H 0.9288 0.5096 0.7475
C23 C 0.9971(9) 0.5340(14) 0.806(2)
O40 O 0.7590(5) 0.3719(7) 0.9539(9)
O42 O 0.7406(4) 0.6132(6) 0.7676(9)
N9 N 0.6607(7) 0.5820(10) 0.6022(13)
O44 O 0.7410(5) 0.6281(7) 0.4539(9)
Co1 Co 0.74025(14) 0.89045(19) 0.6069(2)
O21 O 0.7579(4) 0.9912(6) 0.5933(10)
N1 N 0.8197(8) 0.8776(11) 0.6114(14)
N2 N 0.9003(7) 0.8841(9) 0.6538(14)
C4 C 0.9446(9) 0.8953(11) 0.7073(16)
C5 C 0.8951(9) 0.8439(13) 0.5624(17)
H3 H 0.9205 0.8227 0.5266
C6 C 0.8477(9) 0.8435(12) 0.5405(16)
H4 H 0.8344 0.8225 0.4834
C7 C 0.8528(9) 0.9023(13) 0.676(2)
H5 H 0.8444 0.9293 0.7316
C8 C 0.9800(9) 0.8485(13) 0.711(2)
H6 H 0.9731 0.8071 0.6822
C9 C 0.9524(9) 0.9566(12) 0.7523(19)
H7 H 0.9288 0.9904 0.7475
C11 C 0.9971(9) 0.9660(14) 0.806(2)
O41 O 0.7406(4) 0.8868(6) 0.7676(9)
N10 N 0.6607(7) 0.9180(10) 0.6022(13)
O43 O 0.7410(5) 0.8719(7) 0.4539(9)
O21_2 O 0.7421(4) 0.0088(6) 0.0933(10)
N1_2 N 0.6803(8) 0.1224(11) 0.1114(14)
N2_2 N 0.5997(7) 0.1159(9) 0.1538(14)
N3_2 N 0.4199(7) 0.0704(9) 0.3598(13)
C1_2 C 0.4724(9) 0.1415(12) 0.256(2)
H1_2 H 0.4473 0.1732 0.2506
C2_2 C 0.4099(11) 0.0311(12) 0.444(2)
H2_2 H 0.4328 0.0055 0.4804
C3_2 C 0.4648(8) 0.0826(11) 0.3098(18)
C4_2 C 0.5554(9) 0.1047(11) 0.2073(16)
C5_2 C 0.6049(9) 0.1561(13) 0.0624(17)
H3_2 H 0.5795 0.1773 0.0266
C6_2 C 0.6523(9) 0.1565(12) 0.0405(16)
C7_2 C 0.6472(9) 0.0977(13) 0.176(2)
H5_2 H 0.6556 0.0707 0.2316
C8_2 C 0.5200(9) 0.1515(13) 0.211(2)
H6_2 H 0.5269 0.1929 0.1822
C9_2 C 0.5476(9) 0.0434(12) 0.2523(19)
H7_2 H 0.5712 0.0096 0.2475
C10_2 C 0.3619(10) 0.0367(11) 0.4647(16)
H8 H 0.3454 0.0138 0.5163
C11_2 C 0.5029(9) 0.0340(14) 0.306(2)
C12_2 C 0.3736(9) 0.0994(13) 0.3323(17)
H10_2 H 0.3684 0.1267 0.2761
N4_2 N 0.3393(7) 0.0820(10) 0.3978(13)
Co6_2 Co 0.25975(14) 0.10955(19) 0.3931(2)
N10_2 N 0.8393(7) 0.0820(10) 0.1022(13)
H4_2 H 0.6656 0.1775 0.9834
W1_2 W 0.84637(2) 0.83378(3) 0.02874(5)
W2_2 W 0.84620(4) 0.7500 0.25134(7)
W5_2 W 0.63136(2) 0.65784(3) 0.18514(5)
W6_2 W 0.73411(3) 0.92507(3) 0.11145(5)
W7_2 W 0.73330(3) 0.84163(4) 0.33299(5)
V1_2 V 0.73642(16) 0.7500 0.1034(3)
O1_2 O 0.6239(5) 0.7500 0.2193(11)
O4_2 O 0.8731(4) 0.8172(6) 0.1632(8)
O5_2 O 0.7990(4) 0.8150(6) 0.2992(8)
O6_2 O 0.7443(4) 0.9220(6) 0.2568(10)
O7_2 O 0.7979(6) 0.7500 0.1030(11)
O8_2 O 0.6238(4) 0.6826(5) 0.0438(8)
O11_2 O 0.8008(4) 0.8940(5) 0.0953(8)
O13_2 O 0.7167(4) 0.6842(5) 0.1620(8)
O14_2 O 0.6629(4) 0.6451(6) 0.3146(8)
O17_2 O 0.5736(4) 0.6276(6) 0.2118(10)
O19_2 O 0.6636(4) 0.5782(5) 0.1384(9)
O20_2 O 0.7211(6) 0.7500 0.3582(12)
O23_2 O 0.8884(7) 0.7500 0.3480(14)
H9_2 H 0.4980 0.9940 0.3396
W8_2 W 0.84637(2) 0.66622(3) 0.02874(5)
W10_2 W 0.63136(2) 0.84216(3) 0.18514(5)
W11_2 W 0.73411(3) 0.57493(3) 0.11145(5)
W12_2 W 0.73330(3) 0.65837(4) 0.33299(5)
O26_2 O 0.8731(4) 0.6828(6) 0.1632(8)
O27_2 O 0.7990(4) 0.6850(6) 0.2992(8)
O28_2 O 0.7443(4) 0.5780(6) 0.2568(10)
O29_2 O 0.6238(4) 0.8174(5) 0.0438(8)
O32_2 O 0.8008(4) 0.6060(5) 0.0953(8)
O34_2 O 0.7167(4) 0.8158(5) 0.1620(8)
O35_2 O 0.6629(4) 0.8549(6) 0.3146(8)
O37_2 O 0.5736(4) 0.8724(6) 0.2118(10)
O38_2 O 0.6636(4) 0.9218(5) 0.1384(9)
O39_2 O 0.7421(4) 0.4912(6) 0.0933(10)
N5_2 N 0.6803(8) 0.3776(11) 0.1114(14)
N6_2 N 0.5997(7) 0.3841(9) 0.1538(14)
N7_2 N 0.4199(7) 0.4296(9) 0.3598(13)
C13_2 C 0.4724(9) 0.3585(12) 0.256(2)
H11_2 H 0.4473 0.3268 0.2506
C14_2 C 0.4099(11) 0.4689(12) 0.444(2)
H12_2 H 0.4328 0.4945 0.4804
C15_2 C 0.4648(8) 0.4174(11) 0.3098(18)
C16_2 C 0.5554(9) 0.3953(11) 0.2073(16)
C17_2 C 0.6049(9) 0.3439(13) 0.0624(17)
H13_2 H 0.5795 0.3227 0.0266
C18_2 C 0.6523(9) 0.3435(12) 0.0405(16)
C19_2 C 0.6472(9) 0.4023(13) 0.176(2)
H15_2 H 0.6556 0.4293 0.2316
C20_2 C 0.5200(9) 0.3485(13) 0.211(2)
H16_2 H 0.5269 0.3071 0.1822
C21_2 C 0.5476(9) 0.4566(12) 0.2523(19)
H17_2 H 0.5712 0.4904 0.2475
C22_2 C 0.3619(10) 0.4633(11) 0.4647(16)
H18_2 H 0.3454 0.4862 0.5163
C23_2 C 0.5029(9) 0.4660(14) 0.306(2)
H19_2 H 0.4980 0.5060 0.3396
C24_2 C 0.3736(9) 0.4006(13) 0.3323(17)
H20_2 H 0.3684 0.3733 0.2761
N8_2 N 0.3393(7) 0.4180(10) 0.3978(13)
Co5_2 Co 0.25975(14) 0.39045(19) 0.3931(2)
N9_2 N 0.8393(7) 0.4180(10) 0.1022(13)
W3_2 W 0.63158(4) 0.7500 0.94110(7)
W4_2 W 0.73376(3) 0.83333(4) 0.86822(5)
O2_2 O 0.7448(6) 0.7500 0.7981(13)
O3_2 O 0.6628(4) 0.8163(6) 0.8595(9)
O10_2 O 0.8903(4) 0.8870(6) 0.9802(9)
O12_2 O 0.7216(4) 0.8940(5) 0.9772(8)
O15_2 O 0.8006(4) 0.8294(6) 0.9196(9)
O16_2 O 0.5738(7) 0.7500 0.8881(14)
O18_2 O 0.8739(5) 0.7500 0.9880(11)
O22_2 O 0.7154(5) 0.7500 0.9866(11)
W9_2 W 0.73376(3) 0.66667(4) 0.86822(5)
O25_2 O 0.6628(4) 0.6837(6) 0.8595(9)
O31_2 O 0.8903(4) 0.6130(6) 0.9802(9)
O33_2 O 0.7216(4) 0.6060(5) 0.9772(8)
O36_2 O 0.8006(4) 0.6706(6) 0.9196(9)
H14_2 H 0.6656 0.3225 0.9834
W3_3 W 0.36842(4) 0.2500 0.05890(7)
W4_3 W 0.26624(3) 0.33333(4) 0.13178(5)
O2_3 O 0.2552(6) 0.2500 0.2019(13)
O3_3 O 0.3372(4) 0.3163(6) 0.1405(9)
O9_2 O 0.2594(4) 0.3868(6) 0.2324(9)
O10_3 O 0.1097(4) 0.3870(6) 0.0198(9)
O12_3 O 0.2784(4) 0.3940(5) 0.0228(8)
O15_3 O 0.1994(4) 0.3294(6) 0.0804(9)
O16_3 O 0.4262(7) 0.2500 0.1119(14)
O18_3 O 0.1261(5) 0.2500 0.0120(11)
O22_3 O 0.2846(5) 0.2500 0.0134(11)
H4_3 H 0.3344 0.6775 0.0166
W9_3 W 0.26624(3) 0.16667(4) 0.13178(5)
O25_3 O 0.3372(4) 0.1837(6) 0.1405(9)
O30_2 O 0.2594(4) 0.1132(6) 0.2324(9)
O31_3 O 0.1097(4) 0.1130(6) 0.0198(9)
O33_3 O 0.2784(4) 0.1060(5) 0.0228(8)
O36_3 O 0.1994(4) 0.1706(6) 0.0804(9)
O43_2 O 0.2410(5) 0.6281(7) 0.0461(9)
W1_3 W 0.15363(2) 0.33378(3) 0.97126(5)
W2_3 W 0.15380(4) 0.2500 0.74866(7)
W5_3 W 0.36864(2) 0.15784(3) 0.81486(5)
W6_3 W 0.26589(3) 0.42507(3) 0.88855(5)
W7_3 W 0.26670(3) 0.34163(4) 0.66701(5)
V1_3 V 0.26358(16) 0.2500 0.8966(3)
O1_3 O 0.3761(5) 0.2500 0.7807(11)
O4_3 O 0.1269(4) 0.3172(6) 0.8368(8)
O5_3 O 0.2010(4) 0.3150(6) 0.7008(8)
O6_3 O 0.2557(4) 0.4220(6) 0.7432(10)
O7_3 O 0.2021(6) 0.2500 0.8970(11)
O8_3 O 0.3762(4) 0.1826(5) 0.9562(8)
O11_3 O 0.1992(4) 0.3940(5) 0.9047(8)
O13_3 O 0.2833(4) 0.1842(5) 0.8380(8)
O14_3 O 0.3371(4) 0.1451(6) 0.6854(8)
O17_3 O 0.4264(4) 0.1276(6) 0.7882(10)
O19_3 O 0.3364(4) 0.0782(5) 0.8616(9)
O20_3 O 0.2789(6) 0.2500 0.6418(12)
O21_3 O 0.2579(4) 0.5088(6) 0.9067(10)
O23_3 O 0.1116(7) 0.2500 0.6520(14)
N1_3 N 0.3197(8) 0.6224(11) 0.8886(14)
N2_3 N 0.4003(7) 0.6159(9) 0.8462(14)
N3_3 N 0.5801(7) 0.5704(9) 0.6402(13)
C1_3 C 0.5276(9) 0.6415(12) 0.744(2)
H1_3 H 0.5527 0.6732 0.7494
C2_3 C 0.5901(11) 0.5311(12) 0.556(2)
H2_3 H 0.5672 0.5055 0.5196
C3_3 C 0.5352(8) 0.5826(11) 0.6902(18)
C4_3 C 0.4446(9) 0.6047(11) 0.7927(16)
C5_3 C 0.3951(9) 0.6561(13) 0.9376(17)
H3_3 H 0.4205 0.6773 0.9734
C6_3 C 0.3477(9) 0.6565(12) 0.9595(16)
C7_3 C 0.3528(9) 0.5977(13) 0.824(2)
H5_3 H 0.3444 0.5707 0.7684
C8_3 C 0.4800(9) 0.6515(13) 0.789(2)
H6_3 H 0.4731 0.6929 0.8178
C9_3 C 0.4524(9) 0.5434(12) 0.7477(19)
H7_3 H 0.4288 0.5096 0.7525
C10_3 C 0.6381(10) 0.5367(11) 0.5353(16)
H8_2 H 0.6546 0.5138 0.4837
C11_3 C 0.4971(9) 0.5340(14) 0.694(2)
H9_3 H 0.5020 0.4940 0.6604
C12_3 C 0.6264(9) 0.5994(13) 0.6677(17)
H10_3 H 0.6316 0.6267 0.7239
O24_2 O 0.2590(5) 0.3719(7) 0.5461(9)
W8_3 W 0.15363(2) 0.16622(3) 0.97126(5)
W10_3 W 0.36864(2) 0.34216(3) 0.81486(5)
W11_3 W 0.26589(3) 0.07493(3) 0.88855(5)
W12_3 W 0.26670(3) 0.15837(4) 0.66701(5)
O26_3 O 0.1269(4) 0.1828(6) 0.8368(8)
O27_3 O 0.2010(4) 0.1850(6) 0.7008(8)
O28_3 O 0.2557(4) 0.0780(6) 0.7432(10)
O29_3 O 0.3762(4) 0.3174(5) 0.9562(8)
O32_3 O 0.1992(4) 0.1060(5) 0.9047(8)
O34_3 O 0.2833(4) 0.3158(5) 0.8380(8)
O35_3 O 0.3371(4) 0.3549(6) 0.6854(8)
O37_3 O 0.4264(4) 0.3724(6) 0.7882(10)
O38_3 O 0.3364(4) 0.4218(5) 0.8616(9)
H19_3 H 0.5020 0.0060 0.6604
O40_2 O 0.2590(5) 0.1281(7) 0.5461(9)
O41_2 O 0.2406(4) 0.6132(6) 0.7324(9)
H14_3 H 0.3344 0.8225 0.0166
O44_2 O 0.2410(5) 0.8719(7) 0.0461(9)
O39_3 O 0.2579(4) 0.9912(6) 0.9067(10)
N5_3 N 0.3197(8) 0.8776(11) 0.8886(14)
N6_3 N 0.4003(7) 0.8841(9) 0.8462(14)
N7_3 N 0.5801(7) 0.9296(9) 0.6402(13)
C13_3 C 0.5276(9) 0.8585(12) 0.744(2)
H11_3 H 0.5527 0.8268 0.7494
C14_3 C 0.5901(11) 0.9689(12) 0.556(2)
H12_3 H 0.5672 0.9945 0.5196
C15_3 C 0.5352(8) 0.9174(11) 0.6902(18)
C16_3 C 0.4446(9) 0.8953(11) 0.7927(16)
C17_3 C 0.3951(9) 0.8439(13) 0.9376(17)
H13_3 H 0.4205 0.8227 0.9734
C18_3 C 0.3477(9) 0.8435(12) 0.9595(16)
C19_3 C 0.3528(9) 0.9023(13) 0.824(2)
H15_3 H 0.3444 0.9293 0.7684
C20_3 C 0.4800(9) 0.8485(13) 0.789(2)
H16_3 H 0.4731 0.8071 0.8178
C21_3 C 0.4524(9) 0.9566(12) 0.7477(19)
H17_3 H 0.4288 0.9904 0.7525
C22_3 C 0.6381(10) 0.9633(11) 0.5353(16)
H18_3 H 0.6546 0.9862 0.4837
C23_3 C 0.4971(9) 0.9660(14) 0.694(2)
C24_3 C 0.6264(9) 0.9006(13) 0.6677(17)
H20_3 H 0.6316 0.8733 0.7239
O42_2 O 0.2406(4) 0.8868(6) 0.7324(9)
O39_4 O 0.2421(4) 0.0088(6) 0.4067(10)
N5_4 N 0.1803(8) 0.1224(11) 0.3886(14)
N6_4 N 0.0997(7) 0.1159(9) 0.3462(14)
C16_4 C 0.0554(9) 0.1047(11) 0.2927(16)
C17_4 C 0.1049(9) 0.1561(13) 0.4376(17)
H13_4 H 0.0795 0.1773 0.4734
C18_4 C 0.1523(9) 0.1565(12) 0.4595(16)
H14_4 H 0.1656 0.1775 0.5166
C19_4 C 0.1472(9) 0.0977(13) 0.324(2)
H15_4 H 0.1556 0.0707 0.2684
C20_4 C 0.0200(9) 0.1515(13) 0.289(2)
H16_4 H 0.0269 0.1929 0.3178
C21_4 C 0.0476(9) 0.0434(12) 0.2477(19)
H17_4 H 0.0712 0.0096 0.2525
C23_4 C 0.0029(9) 0.0340(14) 0.194(2)
W1_4 W 0.34637(2) 0.66622(3) 0.47126(5)
W2_4 W 0.34620(4) 0.7500 0.24866(7)
W3_4 W 0.13158(4) 0.7500 0.55890(7)
W4_4 W 0.23376(3) 0.66667(4) 0.63178(5)
W5_4 W 0.13136(2) 0.84216(3) 0.31486(5)
W6_4 W 0.23411(3) 0.57493(3) 0.38855(5)
W7_4 W 0.23330(3) 0.65837(4) 0.16701(5)
V1_4 V 0.23642(16) 0.7500 0.3966(3)
O1_4 O 0.1239(5) 0.7500 0.2807(11)
O2_4 O 0.2448(6) 0.7500 0.7019(13)
O3_4 O 0.1628(4) 0.6837(6) 0.6405(9)
O4_4 O 0.3731(4) 0.6828(6) 0.3368(8)
O5_4 O 0.2990(4) 0.6850(6) 0.2008(8)
O6_4 O 0.2443(4) 0.5780(6) 0.2432(10)
O7_4 O 0.2979(6) 0.7500 0.3970(11)
O8_4 O 0.1238(4) 0.8174(5) 0.4562(8)
O10_4 O 0.3903(4) 0.6130(6) 0.5198(9)
O11_4 O 0.3008(4) 0.6060(5) 0.4047(8)
O12_4 O 0.2216(4) 0.6060(5) 0.5228(8)
O13_4 O 0.2167(4) 0.8158(5) 0.3380(8)
O14_4 O 0.1629(4) 0.8549(6) 0.1854(8)
O15_4 O 0.3006(4) 0.6706(6) 0.5804(9)
O16_4 O 0.0738(7) 0.7500 0.6119(14)
O17_4 O 0.0736(4) 0.8724(6) 0.2882(10)
O18_4 O 0.3739(5) 0.7500 0.5120(11)
O19_4 O 0.1636(4) 0.9218(5) 0.3616(9)
O20_4 O 0.2211(6) 0.7500 0.1418(12)
O21_4 O 0.2421(4) 0.4912(6) 0.4067(10)
O22_4 O 0.2154(5) 0.7500 0.5134(11)
O23_4 O 0.3884(7) 0.7500 0.1520(14)
N1_4 N 0.1803(8) 0.3776(11) 0.3886(14)
N2_4 N 0.0997(7) 0.3841(9) 0.3462(14)
C4_4 C 0.0554(9) 0.3953(11) 0.2927(16)
C5_4 C 0.1049(9) 0.3439(13) 0.4376(17)
H3_4 H 0.0795 0.3227 0.4734
C6_4 C 0.1523(9) 0.3435(12) 0.4595(16)
H4_4 H 0.1656 0.3225 0.5166
C7_4 C 0.1472(9) 0.4023(13) 0.324(2)
H5_4 H 0.1556 0.4293 0.2684
C8_4 C 0.0200(9) 0.3485(13) 0.289(2)
H6_4 H 0.0269 0.3071 0.3178
C9_4 C 0.0476(9) 0.4566(12) 0.2477(19)
H7_4 H 0.0712 0.4904 0.2525
C11_4 C 0.0029(9) 0.4660(14) 0.194(2)
W8_4 W 0.34637(2) 0.83378(3) 0.47126(5)
W9_4 W 0.23376(3) 0.83333(4) 0.63178(5)
W10_4 W 0.13136(2) 0.65784(3) 0.31486(5)
W11_4 W 0.23411(3) 0.92507(3) 0.38855(5)
W12_4 W 0.23330(3) 0.84163(4) 0.16701(5)
O25_4 O 0.1628(4) 0.8163(6) 0.6405(9)
O26_4 O 0.3731(4) 0.8172(6) 0.3368(8)
O27_4 O 0.2990(4) 0.8150(6) 0.2008(8)
O28_4 O 0.2443(4) 0.9220(6) 0.2432(10)
O29_4 O 0.1238(4) 0.6826(5) 0.4562(8)
O31_4 O 0.3903(4) 0.8870(6) 0.5198(9)
O32_4 O 0.3008(4) 0.8940(5) 0.4047(8)
O33_4 O 0.2216(4) 0.8940(5) 0.5228(8)
O34_4 O 0.2167(4) 0.6842(5) 0.3380(8)
O35_4 O 0.1629(4) 0.6451(6) 0.1854(8)
O36_4 O 0.3006(4) 0.8294(6) 0.5804(9)
O37_4 O 0.0736(4) 0.6276(6) 0.2882(10)
O38_4 O 0.1636(4) 0.5782(5) 0.3616(9)
N7_4 N 0.9199(7) 0.0704(9) 0.1402(13)
C13_4 C 0.9724(9) 0.1415(12) 0.244(2)
H11_4 H 0.9473 0.1732 0.2494
C14_4 C 0.9099(11) 0.0311(12) 0.056(2)
H12_4 H 0.9328 0.0055 0.0196
C15_4 C 0.9648(8) 0.0826(11) 0.1902(18)
C22_4 C 0.8619(10) 0.0367(11) 0.0353(16)
C24_4 C 0.8736(9) 0.0994(13) 0.1677(17)
H20_4 H 0.8684 0.1267 0.2239
N3_4 N 0.9199(7) 0.4296(9) 0.1402(13)
C1_4 C 0.9724(9) 0.3585(12) 0.244(2)
H1_4 H 0.9473 0.3268 0.2494
C2_4 C 0.9099(11) 0.4689(12) 0.056(2)
H2_4 H 0.9328 0.4945 0.0196
C3_4 C 0.9648(8) 0.4174(11) 0.1902(18)
C10_4 C 0.8619(10) 0.4633(11) 0.0353(16)
H9_4 H 0.9980 0.5060 0.1604
C12_4 C 0.8736(9) 0.4006(13) 0.1677(17)
H10_4 H 0.8684 0.3733 0.2239
H19_4 H 0.9980 0.9940 0.1604
H8_3 H 0.1546 0.9862 0.0163
H18_4 H 0.8454 0.0138 0.9837
H8_4 H 0.8454 0.4862 0.9837
loop_
_geom_bond_atom_site_label_1
_geom_bond_atom_site_label_2
_geom_bond_site_symmetry_1
_geom_bond_site_symmetry_2
N7 C14 1_555 1_555
C13 H11 1_555 1_555
C14 H12 1_555 1_555
C15 N7 1_555 1_555
C22 C14 1_555 1_555
C24 N7 1_555 1_555
H20 C24 1_555 1_555
N8 C22 1_555 1_555
Co5 N8 1_555 1_555
C13 C15 1_555 1_555
C24 N8 1_555 1_555
N3 C2 1_555 1_555
C1 H1 1_555 1_555
C2 H2 1_555 1_555
C3 N3 1_555 1_555
C10 C2 1_555 1_555
C12 N3 1_555 1_555
H10 C12 1_555 1_555
N4 C10 1_555 1_555
Co6 N4 1_555 1_555
C1 C3 1_555 1_555
C12 N4 1_555 1_555
W1 O4 1_555 1_555
W2 O4 1_555 1_555
W3 O3 1_555 1_555
W4 O2 1_555 1_555
W5 O1 1_555 1_555
W6 O6 1_555 1_555
W7 O5 1_555 1_555
V1 O7 1_555 1_555
O1 W10 1_555 1_555
O2 W9 1_555 1_555
O3 W4 1_555 1_555
O5 W2 1_555 1_555
O6 W7 1_555 1_555
O7 W1 1_555 1_555
O8 W3 1_555 1_555
O9 W4 1_555 1_555
O10 W1 1_555 1_555
O11 W1 1_555 1_555
O12 W4 1_555 1_555
O13 W5 1_555 1_555
O14 W5 1_555 1_555
O15 W1 1_555 1_555
O16 W3 1_555 1_555
O17 W5 1_555 1_555
O18 W1 1_555 1_555
O19 W5 1_555 1_555
O20 W7 1_555 1_555
O22 W3 1_555 1_555
O23 W2 1_555 1_555
O24 W7 1_555 1_555
W8 O7 1_555 1_555
W9 O22 1_555 1_555
W10 O29 1_555 1_555
W11 O13 1_555 1_555
W12 O13 1_555 1_555
Co2 O39 1_555 1_555
O25 W3 1_555 1_555
O26 W2 1_555 1_555
O27 W2 1_555 1_555
O28 W11 1_555 1_555
O29 W3 1_555 1_555
O30 W9 1_555 1_555
O31 W8 1_555 1_555
O32 W8 1_555 1_555
O33 W9 1_555 1_555
O34 W6 1_555 1_555
O35 W7 1_555 1_555
O36 W8 1_555 1_555
O37 W10 1_555 1_555
O38 W6 1_555 1_555
O39 W11 1_555 1_555
N5 Co2 1_555 1_555
N6 C16 1_555 1_555
C16 C20 1_555 1_555
C17 N6 1_555 1_555
H13 C17 1_555 1_555
C18 N5 1_555 1_555
H14 C18 1_555 1_555
C19 N5 1_555 1_555
H15 C19 1_555 1_555
H16 C20 1_555 1_555
C21 C16 1_555 1_555
H17 C21 1_555 1_555
O40 W12 1_555 1_555
Co4 O9 1_555 1_555
Co8 O30 1_555 1_555
O42 Co2 1_555 1_555
N9 Co2 1_555 1_555
O44 Co2 1_555 1_555
W2 O7 1_555 1_555
W4 O15 1_555 1_555
W4 O22 1_555 1_555
W5 O8 1_555 1_555
W6 O11 1_555 1_555
W6 O12 1_555 1_555
W7 O34 1_555 1_555
V1 O13 1_555 1_555
V1 O22 1_555 1_555
V1 O34 1_555 1_555
O14 W12 1_555 1_555
O18 W8 1_555 1_555
O19 W11 1_555 1_555
O20 W12 1_555 1_555
W8 O26 1_555 1_555
W9 O25 1_555 1_555
W9 O36 1_555 1_555
W10 O34 1_555 1_555
W10 O35 1_555 1_555
W10 O38 1_555 1_555
W11 O32 1_555 1_555
W11 O33 1_555 1_555
W12 O27 1_555 1_555
W12 O28 1_555 1_555
N6 C19 1_555 1_555
C17 C18 1_555 1_555
C21 C23 1_555 1_555
Co1 O21 1_555 1_555
N1 Co1 1_555 1_555
N2 C4 1_555 1_555
C4 C8 1_555 1_555
C5 N2 1_555 1_555
H3 C5 1_555 1_555
C6 N1 1_555 1_555
H4 C6 1_555 1_555
C7 N1 1_555 1_555
H5 C7 1_555 1_555
H6 C8 1_555 1_555
C9 C4 1_555 1_555
H7 C9 1_555 1_555
O41 Co1 1_555 1_555
N10 Co1 1_555 1_555
O43 Co1 1_555 1_555
N2 C7 1_555 1_555
C5 C6 1_555 1_555
C9 C11 1_555 1_555
Co4 O21_2 1_555 1_555
N1_2 Co4 1_555 1_555
N2_2 C4_2 1_555 1_555
N3_2 C2_2 1_555 1_555
C1_2 H1_2 1_555 1_555
C2_2 H2_2 1_555 1_555
C3_2 N3_2 1_555 1_555
C4_2 C8_2 1_555 1_555
C5_2 N2_2 1_555 1_555
H3_2 C5_2 1_555 1_555
C6_2 N1_2 1_555 1_555
C7_2 N1_2 1_555 1_555
H5_2 C7_2 1_555 1_555
C8_2 C1_2 1_555 1_555
H6_2 C8_2 1_555 1_555
C9_2 C4_2 1_555 1_555
H7_2 C9_2 1_555 1_555
C10_2 C2_2 1_555 1_555
H8 C10_2 1_555 1_555
C11_2 C3_2 1_555 1_555
C12_2 N3_2 1_555 1_555
H10_2 C12_2 1_555 1_555
N4_2 C10_2 1_555 1_555
Co6_2 N4_2 1_555 1_555
N10_2 Co4 1_555 1_555
N2_2 C7_2 1_555 1_555
C1_2 C3_2 1_555 1_555
C5_2 C6_2 1_555 1_555
C9_2 C11_2 1_555 1_555
C12_2 N4_2 1_555 1_555
W1_2 O4_2 1_555 1_555
W2_2 O4_2 1_555 1_555
W5_2 O1_2 1_555 1_555
W6_2 O6_2 1_555 1_555
W7_2 O5_2 1_555 1_555
V1_2 O7_2 1_555 1_555
O1_2 W10_2 1_555 1_555
O5_2 W2_2 1_555 1_555
O6_2 W7_2 1_555 1_555
O7_2 W1_2 1_555 1_555
O11_2 W1_2 1_555 1_555
O13_2 W5_2 1_555 1_555
O14_2 W5_2 1_555 1_555
O17_2 W5_2 1_555 1_555
O19_2 W5_2 1_555 1_555
O20_2 W7_2 1_555 1_555
O23_2 W2_2 1_555 1_555
O43 W7_2 1_555 1_555
W8_2 O7_2 1_555 1_555
W10_2 O29_2 1_555 1_555
W11_2 O13_2 1_555 1_555
W12_2 O13_2 1_555 1_555
Co8 O39_2 1_555 1_555
O26_2 W2_2 1_555 1_555
O27_2 W2_2 1_555 1_555
O28_2 W11_2 1_555 1_555
O32_2 W8_2 1_555 1_555
O34_2 W6_2 1_555 1_555
O35_2 W7_2 1_555 1_555
O37_2 W10_2 1_555 1_555
O38_2 W6_2 1_555 1_555
O39_2 W11_2 1_555 1_555
N5_2 Co8 1_555 1_555
N6_2 C16_2 1_555 1_555
N7_2 C14_2 1_555 1_555
C13_2 H11_2 1_555 1_555
C14_2 H12_2 1_555 1_555
C15_2 N7_2 1_555 1_555
C16_2 C20_2 1_555 1_555
C17_2 N6_2 1_555 1_555
H13_2 C17_2 1_555 1_555
C18_2 N5_2 1_555 1_555
C19_2 N5_2 1_555 1_555
H15_2 C19_2 1_555 1_555
C20_2 C13_2 1_555 1_555
H16_2 C20_2 1_555 1_555
C21_2 C16_2 1_555 1_555
H17_2 C21_2 1_555 1_555
C22_2 C14_2 1_555 1_555
H18_2 C22_2 1_555 1_555
C23_2 C15_2 1_555 1_555
H19_2 C23_2 1_555 1_555
C24_2 N7_2 1_555 1_555
H20_2 C24_2 1_555 1_555
N8_2 C22_2 1_555 1_555
O44 W12_2 1_555 1_555
Co5_2 N8_2 1_555 1_555
N9_2 Co8 1_555 1_555
W2_2 O7_2 1_555 1_555
W5_2 O8_2 1_555 1_555
W6_2 O11_2 1_555 1_555
W7_2 O34_2 1_555 1_555
V1_2 O13_2 1_555 1_555
V1_2 O34_2 1_555 1_555
O14_2 W12_2 1_555 1_555
O19_2 W11_2 1_555 1_555
O20_2 W12_2 1_555 1_555
W8_2 O26_2 1_555 1_555
W10_2 O34_2 1_555 1_555
W10_2 O35_2 1_555 1_555
W10_2 O38_2 1_555 1_555
W11_2 O32_2 1_555 1_555
W12_2 O27_2 1_555 1_555
W12_2 O28_2 1_555 1_555
N6_2 C19_2 1_555 1_555
C13_2 C15_2 1_555 1_555
C17_2 C18_2 1_555 1_555
C21_2 C23_2 1_555 1_555
C24_2 N8_2 1_555 1_555
W3_2 O3_2 1_555 1_555
W4_2 O2_2 1_555 1_555
O2_2 W9_2 1_555 1_555
O3_2 W4_2 1_555 1_555
O41 W4_2 1_555 1_555
O12_2 W4_2 1_555 1_555
O16_2 W3_2 1_555 1_555
O22_2 W3_2 1_555 1_555
W9_2 O22_2 1_555 1_555
O25_2 W3_2 1_555 1_555
O42 W9_2 1_555 1_555
O33_2 W9_2 1_555 1_555
W4_2 O15_2 1_555 1_555
W4_2 O22_2 1_555 1_555
W9_2 O25_2 1_555 1_555
W9_2 O36_2 1_555 1_555
W3_3 O3_3 1_555 1_555
W4_3 O2_3 1_555 1_555
O2_3 W9_3 1_555 1_555
O3_3 W4_3 1_555 1_555
O9_2 W4_3 1_555 1_555
O12_3 W4_3 1_555 1_555
O16_3 W3_3 1_555 1_555
O22_3 W3_3 1_555 1_555
W9_3 O22_3 1_555 1_555
O25_3 W3_3 1_555 1_555
O30_2 W9_3 1_555 1_555
O33_3 W9_3 1_555 1_555
Co5_2 O9_2 1_555 1_555
Co6_2 O30_2 1_555 1_555
W4_3 O15_3 1_555 1_555
W4_3 O22_3 1_555 1_555
W9_3 O25_3 1_555 1_555
W9_3 O36_3 1_555 1_555
W1_3 O4_3 1_555 1_555
W2_3 O4_3 1_555 1_555
W5_3 O1_3 1_555 1_555
W6_3 O6_3 1_555 1_555
W7_3 O5_3 1_555 1_555
V1_3 O7_3 1_555 1_555
Co5 O21_3 1_555 1_555
O1_3 W10_3 1_555 1_555
O5_3 W2_3 1_555 1_555
O6_3 W7_3 1_555 1_555
O7_3 W1_3 1_555 1_555
O11_3 W1_3 1_555 1_555
O13_3 W5_3 1_555 1_555
O14_3 W5_3 1_555 1_555
O17_3 W5_3 1_555 1_555
O19_3 W5_3 1_555 1_555
O20_3 W7_3 1_555 1_555
O21_3 W6_3 1_555 1_555
O23_3 W2_3 1_555 1_555
N1_3 Co5 1_555 1_555
N2_3 C4_3 1_555 1_555
N3_3 C2_3 1_555 1_555
C1_3 H1_3 1_555 1_555
C2_3 H2_3 1_555 1_555
C3_3 N3_3 1_555 1_555
C4_3 C8_3 1_555 1_555
C5_3 N2_3 1_555 1_555
H3_3 C5_3 1_555 1_555
C6_3 N1_3 1_555 1_555
C7_3 N1_3 1_555 1_555
H5_3 C7_3 1_555 1_555
C8_3 C1_3 1_555 1_555
H6_3 C8_3 1_555 1_555
C9_3 C4_3 1_555 1_555
H7_3 C9_3 1_555 1_555
C10_3 C2_3 1_555 1_555
H8_2 C10_3 1_555 1_555
C11_3 C3_3 1_555 1_555
H9_3 C11_3 1_555 1_555
C12_3 N3_3 1_555 1_555
H10_3 C12_3 1_555 1_555
N9 C10_3 1_555 1_555
O24_2 W7_3 1_555 1_555
W8_3 O7_3 1_555 1_555
W10_3 O29_3 1_555 1_555
W11_3 O13_3 1_555 1_555
W12_3 O13_3 1_555 1_555
O26_3 W2_3 1_555 1_555
O27_3 W2_3 1_555 1_555
O28_3 W11_3 1_555 1_555
O32_3 W8_3 1_555 1_555
O34_3 W6_3 1_555 1_555
O35_3 W7_3 1_555 1_555
O37_3 W10_3 1_555 1_555
O38_3 W6_3 1_555 1_555
O40_2 W12_3 1_555 1_555
Co5_2 O24_2 1_555 1_555
Co6_2 O40_2 1_555 1_555
O41_2 Co5 1_555 1_555
W2_3 O7_3 1_555 1_555
W5_3 O8_3 1_555 1_555
W6_3 O11_3 1_555 1_555
W7_3 O34_3 1_555 1_555
V1_3 O13_3 1_555 1_555
V1_3 O34_3 1_555 1_555
O14_3 W12_3 1_555 1_555
O19_3 W11_3 1_555 1_555
O20_3 W12_3 1_555 1_555
N2_3 C7_3 1_555 1_555
C1_3 C3_3 1_555 1_555
C5_3 C6_3 1_555 1_555
C9_3 C11_3 1_555 1_555
C12_3 N9 1_555 1_555
W8_3 O26_3 1_555 1_555
W10_3 O34_3 1_555 1_555
W10_3 O35_3 1_555 1_555
W10_3 O38_3 1_555 1_555
W11_3 O32_3 1_555 1_555
W12_3 O27_3 1_555 1_555
W12_3 O28_3 1_555 1_555
Co6 O39_3 1_555 1_555
N5_3 Co6 1_555 1_555
N6_3 C16_3 1_555 1_555
N7_3 C14_3 1_555 1_555
C13_3 H11_3 1_555 1_555
C14_3 H12_3 1_555 1_555
C15_3 N7_3 1_555 1_555
C16_3 C20_3 1_555 1_555
C17_3 N6_3 1_555 1_555
H13_3 C17_3 1_555 1_555
C18_3 N5_3 1_555 1_555
C19_3 N5_3 1_555 1_555
H15_3 C19_3 1_555 1_555
C20_3 C13_3 1_555 1_555
H16_3 C20_3 1_555 1_555
C21_3 C16_3 1_555 1_555
H17_3 C21_3 1_555 1_555
C22_3 C14_3 1_555 1_555
H18_3 C22_3 1_555 1_555
C23_3 C15_3 1_555 1_555
C24_3 N7_3 1_555 1_555
H20_3 C24_3 1_555 1_555
N10 C22_3 1_555 1_555
O42_2 Co6 1_555 1_555
N6_3 C19_3 1_555 1_555
C13_3 C15_3 1_555 1_555
C17_3 C18_3 1_555 1_555
C21_3 C23_3 1_555 1_555
C24_3 N10 1_555 1_555
Co6_2 O39_4 1_555 1_555
N5_4 Co6_2 1_555 1_555
N6_4 C16_4 1_555 1_555
C16_4 C20_4 1_555 1_555
C17_4 N6_4 1_555 1_555
H13_4 C17_4 1_555 1_555
C18_4 N5_4 1_555 1_555
H14_4 C18_4 1_555 1_555
C19_4 N5_4 1_555 1_555
H15_4 C19_4 1_555 1_555
H16_4 C20_4 1_555 1_555
C21_4 C16_4 1_555 1_555
H17_4 C21_4 1_555 1_555
N6_4 C19_4 1_555 1_555
C17_4 C18_4 1_555 1_555
C21_4 C23_4 1_555 1_555
W1_4 O4_4 1_555 1_555
W2_4 O4_4 1_555 1_555
W3_4 O3_4 1_555 1_555
W4_4 O2_4 1_555 1_555
W5_4 O1_4 1_555 1_555
W6_4 O6_4 1_555 1_555
W7_4 O5_4 1_555 1_555
V1_4 O7_4 1_555 1_555
Co5_2 O21_4 1_555 1_555
O1_4 W10_4 1_555 1_555
O2_4 W9_4 1_555 1_555
O3_4 W4_4 1_555 1_555
O5_4 W2_4 1_555 1_555
O6_4 W7_4 1_555 1_555
O7_4 W1_4 1_555 1_555
O8_4 W3_4 1_555 1_555
O41_2 W4_4 1_555 1_555
O10_4 W1_4 1_555 1_555
O11_4 W1_4 1_555 1_555
O12_4 W4_4 1_555 1_555
O13_4 W5_4 1_555 1_555
O14_4 W5_4 1_555 1_555
O15_4 W1_4 1_555 1_555
O16_4 W3_4 1_555 1_555
O17_4 W5_4 1_555 1_555
O18_4 W1_4 1_555 1_555
O19_4 W5_4 1_555 1_555
O20_4 W7_4 1_555 1_555
O21_4 W6_4 1_555 1_555
O22_4 W3_4 1_555 1_555
O23_4 W2_4 1_555 1_555
N1_4 Co5_2 1_555 1_555
N2_4 C4_4 1_555 1_555
C4_4 C8_4 1_555 1_555
C5_4 N2_4 1_555 1_555
H3_4 C5_4 1_555 1_555
C6_4 N1_4 1_555 1_555
H4_4 C6_4 1_555 1_555
C7_4 N1_4 1_555 1_555
H5_4 C7_4 1_555 1_555
H6_4 C8_4 1_555 1_555
C9_4 C4_4 1_555 1_555
H7_4 C9_4 1_555 1_555
O43_2 W7_4 1_555 1_555
W8_4 O7_4 1_555 1_555
W9_4 O22_4 1_555 1_555
W10_4 O29_4 1_555 1_555
W11_4 O13_4 1_555 1_555
W12_4 O13_4 1_555 1_555
O25_4 W3_4 1_555 1_555
O26_4 W2_4 1_555 1_555
O27_4 W2_4 1_555 1_555
O28_4 W11_4 1_555 1_555
O29_4 W3_4 1_555 1_555
O42_2 W9_4 1_555 1_555
O31_4 W8_4 1_555 1_555
O32_4 W8_4 1_555 1_555
O33_4 W9_4 1_555 1_555
O34_4 W6_4 1_555 1_555
O35_4 W7_4 1_555 1_555
O36_4 W8_4 1_555 1_555
O37_4 W10_4 1_555 1_555
O38_4 W6_4 1_555 1_555
O44_2 W12_4 1_555 1_555
W2_4 O7_4 1_555 1_555
W4_4 O15_4 1_555 1_555
W4_4 O22_4 1_555 1_555
W5_4 O8_4 1_555 1_555
W6_4 O11_4 1_555 1_555
W6_4 O12_4 1_555 1_555
W7_4 O34_4 1_555 1_555
V1_4 O13_4 1_555 1_555
V1_4 O22_4 1_555 1_555
V1_4 O34_4 1_555 1_555
O14_4 W12_4 1_555 1_555
O18_4 W8_4 1_555 1_555
O19_4 W11_4 1_555 1_555
O20_4 W12_4 1_555 1_555
N2_4 C7_4 1_555 1_555
C5_4 C6_4 1_555 1_555
C9_4 C11_4 1_555 1_555
W8_4 O26_4 1_555 1_555
W9_4 O25_4 1_555 1_555
W9_4 O36_4 1_555 1_555
W10_4 O34_4 1_555 1_555
W10_4 O35_4 1_555 1_555
W10_4 O38_4 1_555 1_555
W11_4 O32_4 1_555 1_555
W11_4 O33_4 1_555 1_555
W12_4 O27_4 1_555 1_555
W12_4 O28_4 1_555 1_555
N7_4 C14_4 1_555 1_555
C13_4 H11_4 1_555 1_555
C14_4 H12_4 1_555 1_555
C15_4 N7_4 1_555 1_555
C22_4 C14_4 1_555 1_555
C24_4 N7_4 1_555 1_555
H20_4 C24_4 1_555 1_555
N10_2 C22_4 1_555 1_555
C13_4 C15_4 1_555 1_555
C24_4 N10_2 1_555 1_555
N3_4 C2_4 1_555 1_555
C1_4 H1_4 1_555 1_555
C2_4 H2_4 1_555 1_555
C3_4 N3_4 1_555 1_555
C10_4 C2_4 1_555 1_555
C12_4 N3_4 1_555 1_555
H10_4 C12_4 1_555 1_555
N9_2 C10_4 1_555 1_555
C1_4 C3_4 1_555 1_555
C12_4 N9_2 1_555 1_555

#END
