
###############################################################################
#
# This file contains modified crystal structure data generated from the
# MOF subset of the Cambridge Structural Database (CSD) v543 
# hosted by the Cambridge Crystallographic Data Centre (CCDC).
#
# This work is licensed under the Creative Commons
# Attribution-NonCommercial-ShareAlike 4.0 International License.
# To view a copy of this license, visit
# http://creativecommons.org/licenses/by-nc-sa/4.0/
# or send a letter to
# Creative Commons, PO Box 1866, Mountain View, CA 94042, USA.
#
# CIF created using the CSD Python API on 29 September 2022
# The structure has been converted into the P1 space group
# The structure has a 3D framework
# The original CSD entry ELOHOE is in the monoclinic crystal system
# The framework has been calculated to contain at least 10.0% void space
# The void calculation uses a probe of radius 1.32A, grid spacing 0.4
#
###############################################################################

data_ELOHOE
_chemical_formula_moiety         '(C168 H128 Cd9 N12 O27)n'
_symmetry_cell_setting           triclinic
_symmetry_space_group_name_H-M   'P 1'
_symmetry_Int_Tables_number      1
_space_group_name_Hall           'P 1'
loop_
_symmetry_equiv_pos_site_id
_symmetry_equiv_pos_as_xyz
1 x,y,z
_cell_length_a                   11.4607(5)
_cell_length_b                   18.7956(8)
_cell_length_c                   22.7213(10)
_cell_angle_alpha                90
_cell_angle_beta                 96.8630(10)
_cell_angle_gamma                90
_cell_volume                     4859.34
loop_
_atom_site_label
_atom_site_type_symbol
_atom_site_fract_x
_atom_site_fract_y
_atom_site_fract_z
C53 C 0.1758(4) 0.0327(3) 0.3521(2)
C54 C 0.0850(4) 0.0328(3) 0.2991(2)
C56 C 0.0427(8) 0.0951(3) 0.2749(4)
H42 H 0.0704 0.1380 0.2914
O9 O 0.2344(3) 0.0862(2) 0.36575(16)
Cd5 Cd 0.35322(3) 0.024440(18) 0.443040(14)
N2 N 0.5242(4) 0.0396(2) 0.61394(19)
H5 H 0.0580 0.1487 0.8739
C8 C 0.0804(6) 0.2748(4) 0.8287(3)
C9 C 0.0834(8) 0.3470(4) 0.8232(4)
H7 H 0.0343 0.3747 0.8437
C10 C 0.1574(9) 0.3800(4) 0.7882(4)
H8 H 0.1590 0.4294 0.7860
C11 C 0.2285(8) 0.3405(4) 0.7566(3)
H9 H 0.2770 0.3628 0.7322
C12 C 0.2278(6) 0.2685(4) 0.7610(3)
C13 C 0.1533(5) 0.2361(3) 0.7974(3)
H10 H 0.1533 0.1868 0.8005
C14 C 0.3041(6) 0.2277(4) 0.7259(3)
H11 H 0.3595 0.2538 0.7084
C15 C 0.3039(6) 0.1592(4) 0.7163(3)
H12 H 0.2480 0.1329 0.7333
C16 C 0.3815(5) 0.1193(4) 0.6820(2)
C17 C 0.3608(5) 0.0489(4) 0.6694(3)
H13 H 0.2976 0.0261 0.6834
C18 C 0.4322(5) 0.0118(3) 0.6363(3)
C19 C 0.5453(5) 0.1073(4) 0.6267(3)
H15 H 0.6098 0.1285 0.6126
C20 C 0.4774(6) 0.1484(3) 0.6598(3)
H16 H 0.4966 0.1960 0.6671
Cd9 Cd 0.0000 0.5000 0.5000
C55 C 0.0403(6) 0.9738(3) 0.2746(2)
H41 H 0.0646 0.9304 0.2916
O8 O 0.1924(3) 0.9762(2) 0.38063(16)
H14 H 0.4155 0.9640 0.6290
Cd7 Cd 0.64678(3) 0.975560(18) 0.556960(14)
Cd1 Cd 0.64678(3) 0.024440(18) 0.056960(14)
Cd2 Cd 0.0000 0.5000 0.0000
C32 C 0.2056(7) 0.3961(4) 0.0336(4)
C33 C 0.2616(5) 0.3233(3) 0.0322(3)
C36 C 0.3641(4) 0.1911(2) 0.0265(2)
C37 C 0.4167(5) 0.2428(3) 0.0617(3)
H28 H 0.4884 0.2333 0.0841
C38 C 0.3670(6) 0.3090(4) 0.0653(4)
H29 H 0.4045 0.3437 0.0899
C39 C 0.4209(4) 0.1190(3) 0.0243(2)
C40 C 0.8242(4) 0.0327(3) 0.1479(2)
C41 C 0.9150(4) 0.0328(3) 0.2009(2)
C43 C 0.9573(8) 0.0951(3) 0.2251(4)
H31 H 0.9296 0.1380 0.2086
O1 O 0.1010(5) 0.5447(3) 0.0889(3)
H32 H 0.0680 0.5242 0.1219
H33 H 0.1826 0.5321 0.0912
O2 O 0.2489(6) 0.4386(3) 0.0717(4)
O4 O 0.3585(3) 0.06903(19) 0.00317(16)
O5 O 0.5254(3) 0.11564(19) 0.04569(18)
O7 O 0.7656(3) 0.0862(2) 0.13425(16)
H56 H 0.4155 0.0360 0.1290
Cd2_2 Cd 0.0000 0.5000 1.0000
N1 N 0.7617(3) 0.0788(2) 0.99111(18)
N3 N 0.1166(5) 0.5663(3) 0.9440(3)
C1 C 0.7519(5) 0.1476(3) 0.9776(3)
H1 H 0.6924 0.1736 0.9919
C2 C 0.8255(5) 0.1820(3) 0.9432(3)
H2 H 0.8152 0.2302 0.9350
C3 C 0.9148(5) 0.1448(3) 0.9210(2)
C4 C 0.9246(5) 0.0750(4) 0.9351(3)
H3 H 0.9840 0.0479 0.9217
C5 C 0.8479(5) 0.0438(3) 0.9689(3)
C6 C 0.9985(5) 0.1778(4) 0.8847(3)
C7 C 0.9979(6) 0.2431(4) 0.8663(3)
H6 H 0.9399 0.2727 0.8780
C21 C 0.1205(8) 0.6359(5) 0.9443(4)
H17 H 0.0755 0.6618 0.9681
C22 C 0.1982(7) 0.6733(4) 0.9056(4)
H18 H 0.2021 0.7227 0.9060
C23 C 0.2617(8) 0.6365(6) 0.8706(4)
C24 C 0.2534(9) 0.5671(6) 0.8729(4)
H19 H 0.2963 0.5394 0.8492
C25 C 0.1836(9) 0.5349(5) 0.9091(4)
H20 H 0.1833 0.4854 0.9091
C26 C 0.3406(7) 0.6738(6) 0.8310(4)
H21 H 0.3882 0.6441 0.8114
C27 C 0.3498(6) 0.7358(5) 0.8217(3)
H22 H 0.3014 0.7658 0.8405
C28 C 0.5000 0.7334(5) 0.7500
H23 H 0.5000 0.6839 0.7500
C29 C 0.4271(5) 0.7699(4) 0.7846(2)
C30 C 0.4293(6) 0.8430(4) 0.7838(3)
H24 H 0.3818 0.8687 0.8066
C31 C 0.5000 0.8776(6) 0.7500
H25 H 0.5000 0.9270 0.7500
C34 C 0.2086(5) 0.2723(3) 0.9963(3)
H26 H 0.1381 0.2824 0.9731
C35 C 0.2584(4) 0.2049(3) 0.9936(2)
H27 H 0.2203 0.1697 0.9698
O3 O 0.1161(4) 0.4061(2) 0.9985(2)
N4 N 0.8834(5) 0.5663(3) 0.5560(3)
C44 C 0.8795(8) 0.6359(5) 0.5557(4)
H34 H 0.9245 0.6618 0.5319
C45 C 0.8018(7) 0.6733(4) 0.5944(4)
H35 H 0.7979 0.7227 0.5940
C46 C 0.7383(8) 0.6365(6) 0.6294(4)
C47 C 0.7466(9) 0.5671(6) 0.6271(4)
H36 H 0.7037 0.5394 0.6508
C48 C 0.8164(9) 0.5349(5) 0.5909(4)
H37 H 0.8167 0.4854 0.5909
C49 C 0.6594(7) 0.6738(6) 0.6690(4)
H38 H 0.6118 0.6441 0.6886
C50 C 0.6502(6) 0.7358(5) 0.6783(3)
H39 H 0.6986 0.7658 0.6595
C51 C 0.5729(5) 0.7699(4) 0.7154(2)
C52 C 0.5707(6) 0.8430(4) 0.7162(3)
H40 H 0.6182 0.8687 0.6934
Cd9_2 Cd 1.0000 0.5000 0.5000
C42 C 0.9597(6) 0.9738(3) 0.2254(2)
H30 H 0.9354 0.9304 0.2084
O6 O 0.8076(3) 0.9762(2) 0.11937(16)
N6 N 0.5242(4) 0.9604(2) 0.11394(19)
H47 H 0.0580 0.8513 0.3739
C64 C 0.0804(6) 0.7252(4) 0.3287(3)
C65 C 0.0834(8) 0.6530(4) 0.3232(4)
H49 H 0.0343 0.6253 0.3437
C66 C 0.1574(9) 0.6200(4) 0.2882(4)
H50 H 0.1590 0.5706 0.2860
C67 C 0.2285(8) 0.6595(4) 0.2566(3)
H51 H 0.2770 0.6372 0.2322
C68 C 0.2278(6) 0.7315(4) 0.2610(3)
C69 C 0.1533(5) 0.7639(3) 0.2974(3)
H52 H 0.1533 0.8132 0.3005
C70 C 0.3041(6) 0.7723(4) 0.2259(3)
H53 H 0.3595 0.7462 0.2084
C71 C 0.3039(6) 0.8408(4) 0.2163(3)
H54 H 0.2480 0.8671 0.2333
C72 C 0.3815(5) 0.8807(4) 0.1820(2)
C73 C 0.3608(5) 0.9511(4) 0.1694(3)
H55 H 0.2976 0.9739 0.1834
C74 C 0.4322(5) 0.9882(3) 0.1363(3)
C75 C 0.5453(5) 0.8927(4) 0.1267(3)
H57 H 0.6098 0.8715 0.1126
C76 C 0.4774(6) 0.8516(3) 0.1598(3)
H58 H 0.4966 0.8040 0.1671
H4 H 0.8562 0.9954 0.9769
Cd6 Cd 0.35322(3) 0.975560(18) 0.943040(14)
O17 O 0.6415(3) 0.93097(19) 0.99683(16)
Cd2_3 Cd 1.0000 0.5000 0.0000
H46 H 0.8562 0.0046 0.4769
N8 N 0.8834(5) 0.4337(3) 0.0560(3)
O15 O 0.8839(4) 0.5939(2) 0.0015(2)
O16 O 0.6415(3) 0.06903(19) 0.49683(16)
O18 O 0.8076(3) 0.0238(2) 0.61937(16)
Cd2_4 Cd 1.0000 0.5000 1.0000
O14 O 0.8990(5) 0.4553(3) 0.9111(3)
H63 H 0.9320 0.4758 0.8781
H64 H 0.8174 0.4679 0.9088
N5 N 0.7617(3) 0.9212(2) 0.49111(18)
C57 C 0.7519(5) 0.8524(3) 0.4776(3)
H43 H 0.6924 0.8264 0.4919
C58 C 0.8255(5) 0.8180(3) 0.4432(3)
H44 H 0.8152 0.7698 0.4350
C59 C 0.9148(5) 0.8552(3) 0.4210(2)
C60 C 0.9246(5) 0.9250(4) 0.4351(3)
H45 H 0.9840 0.9521 0.4217
C61 C 0.8479(5) 0.9562(3) 0.4689(3)
C62 C 0.9985(5) 0.8222(4) 0.3847(3)
C63 C 0.9979(6) 0.7569(4) 0.3663(3)
H48 H 0.9399 0.7273 0.3780
C77 C 0.2056(7) 0.6039(4) 0.5336(4)
C78 C 0.2616(5) 0.6767(3) 0.5322(3)
C79 C 0.2086(5) 0.7277(3) 0.4963(3)
H59 H 0.1381 0.7176 0.4731
C80 C 0.2584(4) 0.7951(3) 0.4936(2)
H60 H 0.2203 0.8303 0.4698
C81 C 0.3641(4) 0.8089(2) 0.5265(2)
C82 C 0.4167(5) 0.7572(3) 0.5617(3)
H61 H 0.4884 0.7667 0.5841
C83 C 0.3670(6) 0.6910(4) 0.5653(4)
H62 H 0.4045 0.6563 0.5899
C84 C 0.4209(4) 0.8810(3) 0.5243(2)
O10 O 0.2489(6) 0.5614(3) 0.5717(4)
O11 O 0.1161(4) 0.5939(2) 0.4985(2)
O12 O 0.3585(3) 0.93097(19) 0.50317(16)
O13 O 0.5254(3) 0.88436(19) 0.54569(18)
O19 O 0.7656(3) 0.9138(2) 0.63425(16)
H46_2 H 0.1438 0.0046 0.0231
O14_2 O 0.1010(5) 0.4553(3) 0.5889(3)
H63_2 H 0.0680 0.4758 0.6219
H64_2 H 0.1826 0.4679 0.5912
N8_2 N 0.1166(5) 0.4337(3) 0.4440(3)
N7 N 0.4758(4) 0.0396(2) 0.88606(19)
O18_2 O 0.1924(3) 0.0238(2) 0.88063(16)
N5_2 N 0.2383(3) 0.9212(2) 0.00889(18)
C57_2 C 0.2481(5) 0.8524(3) 0.0224(3)
H43_2 H 0.3076 0.8264 0.0081
C58_2 C 0.1745(5) 0.8180(3) 0.0568(3)
H44_2 H 0.1848 0.7698 0.0650
C59_2 C 0.0852(5) 0.8552(3) 0.0790(2)
C60_2 C 0.0754(5) 0.9250(4) 0.0649(3)
H45_2 H 0.0160 0.9521 0.0783
C61_2 C 0.1521(5) 0.9562(3) 0.0311(3)
C62_2 C 0.0015(5) 0.8222(4) 0.1153(3)
C63_2 C 0.0021(6) 0.7569(4) 0.1337(3)
H48_2 H 0.0601 0.7273 0.1220
C79_2 C 0.7914(5) 0.7277(3) 0.0037(3)
H59_2 H 0.8619 0.7176 0.0269
C80_2 C 0.7416(4) 0.7951(3) 0.0064(2)
H60_2 H 0.7797 0.8303 0.0302
C77_2 C 0.7944(7) 0.6039(4) 0.9664(4)
C78_2 C 0.7384(5) 0.6767(3) 0.9678(3)
C81_2 C 0.6359(4) 0.8089(2) 0.9735(2)
C82_2 C 0.5833(5) 0.7572(3) 0.9383(3)
H61_2 H 0.5116 0.7667 0.9159
C83_2 C 0.6330(6) 0.6910(4) 0.9347(4)
H62_2 H 0.5955 0.6563 0.9101
C84_2 C 0.5791(4) 0.8810(3) 0.9757(2)
O10_2 O 0.7511(6) 0.5614(3) 0.9283(4)
O13_2 O 0.4746(3) 0.88436(19) 0.95431(18)
O19_2 O 0.2344(3) 0.9138(2) 0.86575(16)
N1_2 N 0.2383(3) 0.0788(2) 0.50889(18)
C1_2 C 0.2481(5) 0.1476(3) 0.5224(3)
H1_2 H 0.3076 0.1736 0.5081
C2_2 C 0.1745(5) 0.1820(3) 0.5568(3)
H2_2 H 0.1848 0.2302 0.5650
C3_2 C 0.0852(5) 0.1448(3) 0.5790(2)
C4_2 C 0.0754(5) 0.0750(4) 0.5649(3)
H3_2 H 0.0160 0.0479 0.5783
C5_2 C 0.1521(5) 0.0438(3) 0.5311(3)
C6_2 C 0.0015(5) 0.1778(4) 0.6153(3)
C7_2 C 0.0021(6) 0.2431(4) 0.6337(3)
H6_2 H 0.0601 0.2727 0.6220
C32_2 C 0.7944(7) 0.3961(4) 0.4664(4)
C33_2 C 0.7384(5) 0.3233(3) 0.4678(3)
C34_2 C 0.7914(5) 0.2723(3) 0.5037(3)
H26_2 H 0.8619 0.2824 0.5269
C35_2 C 0.7416(4) 0.2049(3) 0.5064(2)
H27_2 H 0.7797 0.1697 0.5302
C36_2 C 0.6359(4) 0.1911(2) 0.4735(2)
C37_2 C 0.5833(5) 0.2428(3) 0.4383(3)
H28_2 H 0.5116 0.2333 0.4159
C38_2 C 0.6330(6) 0.3090(4) 0.4347(4)
H29_2 H 0.5955 0.3437 0.4101
C39_2 C 0.5791(4) 0.1190(3) 0.4757(2)
O1_2 O 0.8990(5) 0.5447(3) 0.4111(3)
H32_2 H 0.9320 0.5242 0.3781
H33_2 H 0.8174 0.5321 0.4088
O2_2 O 0.7511(6) 0.4386(3) 0.4283(4)
O3_2 O 0.8839(4) 0.4061(2) 0.5015(2)
O5_2 O 0.4746(3) 0.11564(19) 0.45431(18)
H56_2 H 0.5845 0.0360 0.3710
H4_2 H 0.1438 0.9954 0.5231
N6_2 N 0.4758(4) 0.9604(2) 0.38606(19)
H47_2 H 0.9420 0.8513 0.1261
C64_2 C 0.9196(6) 0.7252(4) 0.1713(3)
C65_2 C 0.9166(8) 0.6530(4) 0.1768(4)
H49_2 H 0.9657 0.6253 0.1563
C66_2 C 0.8426(9) 0.6200(4) 0.2118(4)
H50_2 H 0.8410 0.5706 0.2140
C67_2 C 0.7715(8) 0.6595(4) 0.2434(3)
H51_2 H 0.7230 0.6372 0.2678
C68_2 C 0.7722(6) 0.7315(4) 0.2390(3)
C69_2 C 0.8467(5) 0.7639(3) 0.2026(3)
H52_2 H 0.8467 0.8132 0.1995
C70_2 C 0.6959(6) 0.7723(4) 0.2741(3)
H53_2 H 0.6405 0.7462 0.2916
C71_2 C 0.6961(6) 0.8408(4) 0.2837(3)
H54_2 H 0.7520 0.8671 0.2667
C72_2 C 0.6185(5) 0.8807(4) 0.3180(2)
C73_2 C 0.6392(5) 0.9511(4) 0.3306(3)
H55_2 H 0.7024 0.9739 0.3166
C74_2 C 0.5678(5) 0.9882(3) 0.3637(3)
C75_2 C 0.4547(5) 0.8927(4) 0.3733(3)
H57_2 H 0.3902 0.8715 0.3874
C76_2 C 0.5226(6) 0.8516(3) 0.3402(3)
H58_2 H 0.5034 0.8040 0.3329
H5_2 H 0.9420 0.1487 0.6261
C8_2 C 0.9196(6) 0.2748(4) 0.6713(3)
C9_2 C 0.9166(8) 0.3470(4) 0.6768(4)
H7_2 H 0.9657 0.3747 0.6563
C10_2 C 0.8426(9) 0.3800(4) 0.7118(4)
H8_2 H 0.8410 0.4294 0.7140
C11_2 C 0.7715(8) 0.3405(4) 0.7434(3)
H9_2 H 0.7230 0.3628 0.7678
C12_2 C 0.7722(6) 0.2685(4) 0.7390(3)
C13_2 C 0.8467(5) 0.2361(3) 0.7026(3)
H10_2 H 0.8467 0.1868 0.6995
C14_2 C 0.6959(6) 0.2277(4) 0.7741(3)
H11_2 H 0.6405 0.2538 0.7916
C15_2 C 0.6961(6) 0.1592(4) 0.7837(3)
H12_2 H 0.7520 0.1329 0.7667
C16_2 C 0.6185(5) 0.1193(4) 0.8180(2)
C17_2 C 0.6392(5) 0.0489(4) 0.8306(3)
H13_2 H 0.7024 0.0261 0.8166
C18_2 C 0.5678(5) 0.0118(3) 0.8637(3)
C19_2 C 0.4547(5) 0.1073(4) 0.8733(3)
H15_2 H 0.3902 0.1285 0.8874
C20_2 C 0.5226(6) 0.1484(3) 0.8402(3)
H16_2 H 0.5034 0.1960 0.8329
H14_2 H 0.5845 0.9640 0.8710
C42_2 C 0.0403(6) 0.0262(3) 0.7746(2)
H30_2 H 0.0646 0.0696 0.7916
C21_2 C 0.8795(8) 0.3641(5) 0.0557(4)
H17_2 H 0.9245 0.3382 0.0319
C22_2 C 0.8018(7) 0.3267(4) 0.0944(4)
H18_2 H 0.7979 0.2773 0.0940
C23_2 C 0.7383(8) 0.3635(6) 0.1294(4)
C24_2 C 0.7466(9) 0.4329(6) 0.1271(4)
H19_2 H 0.7037 0.4606 0.1508
C25_2 C 0.8164(9) 0.4651(5) 0.0909(4)
H20_2 H 0.8167 0.5146 0.0909
C26_2 C 0.6594(7) 0.3262(6) 0.1690(4)
H21_2 H 0.6118 0.3559 0.1886
C27_2 C 0.6502(6) 0.2642(5) 0.1783(3)
H22_2 H 0.6986 0.2342 0.1595
C28_2 C 0.5000 0.2666(5) 0.2500
H23_2 H 0.5000 0.3161 0.2500
C29_2 C 0.5729(5) 0.2301(4) 0.2154(2)
C30_2 C 0.5707(6) 0.1570(4) 0.2162(3)
H24_2 H 0.6182 0.1313 0.1934
C31_2 C 0.5000 0.1224(6) 0.2500
H25_2 H 0.5000 0.0730 0.2500
C44_2 C 0.1205(8) 0.3641(5) 0.4443(4)
H34_2 H 0.0755 0.3382 0.4681
C45_2 C 0.1982(7) 0.3267(4) 0.4056(4)
H35_2 H 0.2021 0.2773 0.4060
C46_2 C 0.2617(8) 0.3635(6) 0.3706(4)
C47_2 C 0.2534(9) 0.4329(6) 0.3729(4)
H36_2 H 0.2963 0.4606 0.3492
C48_2 C 0.1836(9) 0.4651(5) 0.4091(4)
H37_2 H 0.1833 0.5146 0.4091
C49_2 C 0.3406(7) 0.3262(6) 0.3310(4)
H38_2 H 0.3882 0.3559 0.3114
C50_2 C 0.3498(6) 0.2642(5) 0.3217(3)
H39_2 H 0.3014 0.2342 0.3405
C51_2 C 0.4271(5) 0.2301(4) 0.2846(2)
C52_2 C 0.4293(6) 0.1570(4) 0.2838(3)
H40_2 H 0.3818 0.1313 0.3066
C40_2 C 0.1758(4) 0.9673(3) 0.8521(2)
C41_2 C 0.0850(4) 0.9672(3) 0.7991(2)
C43_2 C 0.0427(8) 0.9049(3) 0.7749(4)
H31_2 H 0.0704 0.8620 0.7914
C55_2 C 0.9597(6) 0.0262(3) 0.7254(2)
H41_2 H 0.9354 0.0696 0.7084
C53_2 C 0.8242(4) 0.9673(3) 0.6479(2)
C54_2 C 0.9150(4) 0.9672(3) 0.7009(2)
C56_2 C 0.9573(8) 0.9049(3) 0.7251(4)
H42_2 H 0.9296 0.8620 0.7086
loop_
_geom_bond_atom_site_label_1
_geom_bond_atom_site_label_2
_geom_bond_site_symmetry_1
_geom_bond_site_symmetry_2
C53 C54 1_555 1_555
H42 C56 1_555 1_555
O9 C53 1_555 1_555
C54 C56 1_555 1_555
O9 Cd5 1_555 1_555
N2 C18 1_555 1_555
C9 C8 1_555 1_555
H7 C9 1_555 1_555
C10 C9 1_555 1_555
H8 C10 1_555 1_555
C11 C10 1_555 1_555
H9 C11 1_555 1_555
C12 C11 1_555 1_555
C13 C8 1_555 1_555
H10 C13 1_555 1_555
C14 C12 1_555 1_555
H11 C14 1_555 1_555
C15 C14 1_555 1_555
H12 C15 1_555 1_555
C16 C15 1_555 1_555
C17 C16 1_555 1_555
H13 C17 1_555 1_555
C18 C17 1_555 1_555
C19 N2 1_555 1_555
H15 C19 1_555 1_555
C20 C16 1_555 1_555
H16 C20 1_555 1_555
C12 C13 1_555 1_555
C19 C20 1_555 1_555
H41 C55 1_555 1_555
C32 C33 1_555 1_555
C37 C36 1_555 1_555
H28 C37 1_555 1_555
C38 C33 1_555 1_555
H29 C38 1_555 1_555
C39 C36 1_555 1_555
C40 C41 1_555 1_555
C43 C41 1_555 1_555
H31 C43 1_555 1_555
O1 Cd2 1_555 1_555
H32 O1 1_555 1_555
H33 O1 1_555 1_555
O2 C32 1_555 1_555
O4 C39 1_555 1_555
O5 Cd1 1_555 1_555
O7 Cd1 1_555 1_555
C37 C38 1_555 1_555
C39 O5 1_555 1_555
C40 O7 1_555 1_555
Cd2_2 N3 1_555 1_555
N1 C1 1_555 1_555
N3 C21 1_555 1_555
C1 H1 1_555 1_555
C2 C1 1_555 1_555
H2 C2 1_555 1_555
C3 C2 1_555 1_555
C4 C3 1_555 1_555
H3 C4 1_555 1_555
C5 N1 1_555 1_555
C6 C3 1_555 1_555
C7 C6 1_555 1_555
H6 C7 1_555 1_555
C21 H17 1_555 1_555
C22 C21 1_555 1_555
H18 C22 1_555 1_555
C23 C22 1_555 1_555
C24 C23 1_555 1_555
H19 C24 1_555 1_555
C25 N3 1_555 1_555
H20 C25 1_555 1_555
C26 C23 1_555 1_555
H21 C26 1_555 1_555
C27 C26 1_555 1_555
H22 C27 1_555 1_555
C28 H23 1_555 1_555
C29 C27 1_555 1_555
C30 C29 1_555 1_555
H24 C30 1_555 1_555
C31 C30 1_555 1_555
H25 C31 1_555 1_555
C34 H26 1_555 1_555
C35 C34 1_555 1_555
H27 C35 1_555 1_555
O3 Cd2_2 1_555 1_555
N4 C44 1_555 1_555
C44 H34 1_555 1_555
C45 C44 1_555 1_555
H35 C45 1_555 1_555
C46 C45 1_555 1_555
C47 C46 1_555 1_555
H36 C47 1_555 1_555
C48 N4 1_555 1_555
H37 C48 1_555 1_555
C49 C46 1_555 1_555
H38 C49 1_555 1_555
C50 C49 1_555 1_555
H39 C50 1_555 1_555
C51 C28 1_555 1_555
C52 C31 1_555 1_555
H40 C52 1_555 1_555
Cd9_2 N4 1_555 1_555
C4 C5 1_555 1_555
C24 C25 1_555 1_555
C28 C29 1_555 1_555
C47 C48 1_555 1_555
C50 C51 1_555 1_555
C51 C52 1_555 1_555
C42 H30 1_555 1_555
C65 C64 1_555 1_555
H49 C65 1_555 1_555
C66 C65 1_555 1_555
H50 C66 1_555 1_555
C67 C66 1_555 1_555
H51 C67 1_555 1_555
C68 C67 1_555 1_555
C69 C64 1_555 1_555
H52 C69 1_555 1_555
C70 C68 1_555 1_555
H53 C70 1_555 1_555
C71 C70 1_555 1_555
H54 C71 1_555 1_555
C72 C71 1_555 1_555
C73 C72 1_555 1_555
H55 C73 1_555 1_555
C74 N6 1_555 1_555
C75 N6 1_555 1_555
H57 C75 1_555 1_555
C76 C72 1_555 1_555
H58 C76 1_555 1_555
C68 C69 1_555 1_555
C73 C74 1_555 1_555
C75 C76 1_555 1_555
N8 Cd2_3 1_555 1_555
O15 Cd2_3 1_555 1_555
O14 Cd2_4 1_555 1_555
H63 O14 1_555 1_555
H64 O14 1_555 1_555
Cd7 N5 1_555 1_555
N5 C57 1_555 1_555
C57 H43 1_555 1_555
C58 C57 1_555 1_555
H44 C58 1_555 1_555
C59 C58 1_555 1_555
C60 C59 1_555 1_555
H45 C60 1_555 1_555
C61 N5 1_555 1_555
C62 C59 1_555 1_555
C63 C62 1_555 1_555
H48 C63 1_555 1_555
C77 C78 1_555 1_555
C78 C79 1_555 1_555
C79 H59 1_555 1_555
C80 C79 1_555 1_555
H60 C80 1_555 1_555
C81 C80 1_555 1_555
C82 C81 1_555 1_555
H61 C82 1_555 1_555
C83 C78 1_555 1_555
H62 C83 1_555 1_555
C84 C81 1_555 1_555
O10 C77 1_555 1_555
O11 C77 1_555 1_555
O12 C84 1_555 1_555
O13 Cd7 1_555 1_555
Cd9 O11 1_555 1_555
O19 Cd7 1_555 1_555
C60 C61 1_555 1_555
C82 C83 1_555 1_555
C84 O13 1_555 1_555
O14_2 Cd9 1_555 1_555
H63_2 O14_2 1_555 1_555
H64_2 O14_2 1_555 1_555
N8_2 Cd9 1_555 1_555
N5_2 C57_2 1_555 1_555
C57_2 H43_2 1_555 1_555
C58_2 C57_2 1_555 1_555
H44_2 C58_2 1_555 1_555
C59_2 C58_2 1_555 1_555
C60_2 C59_2 1_555 1_555
H45_2 C60_2 1_555 1_555
C61_2 N5_2 1_555 1_555
C62_2 C59_2 1_555 1_555
C63_2 C62_2 1_555 1_555
H48_2 C63_2 1_555 1_555
C79_2 H59_2 1_555 1_555
C80_2 C79_2 1_555 1_555
H60_2 C80_2 1_555 1_555
C60_2 C61_2 1_555 1_555
C77_2 C78_2 1_555 1_555
C82_2 C81_2 1_555 1_555
H61_2 C82_2 1_555 1_555
C83_2 C78_2 1_555 1_555
H62_2 C83_2 1_555 1_555
C84_2 C81_2 1_555 1_555
O10_2 C77_2 1_555 1_555
O17 C84_2 1_555 1_555
O13_2 Cd6 1_555 1_555
O19_2 Cd6 1_555 1_555
C82_2 C83_2 1_555 1_555
C84_2 O13_2 1_555 1_555
Cd5 N1_2 1_555 1_555
N1_2 C1_2 1_555 1_555
C1_2 H1_2 1_555 1_555
C2_2 C1_2 1_555 1_555
H2_2 C2_2 1_555 1_555
C3_2 C2_2 1_555 1_555
C4_2 C3_2 1_555 1_555
H3_2 C4_2 1_555 1_555
C5_2 N1_2 1_555 1_555
C6_2 C3_2 1_555 1_555
C7_2 C6_2 1_555 1_555
H6_2 C7_2 1_555 1_555
C32_2 C33_2 1_555 1_555
C33_2 C34_2 1_555 1_555
C34_2 H26_2 1_555 1_555
C35_2 C34_2 1_555 1_555
H27_2 C35_2 1_555 1_555
C36_2 C35_2 1_555 1_555
C37_2 C36_2 1_555 1_555
H28_2 C37_2 1_555 1_555
C38_2 C33_2 1_555 1_555
H29_2 C38_2 1_555 1_555
C39_2 C36_2 1_555 1_555
O1_2 Cd9_2 1_555 1_555
H32_2 O1_2 1_555 1_555
H33_2 O1_2 1_555 1_555
O2_2 C32_2 1_555 1_555
O3_2 Cd9_2 1_555 1_555
O16 C39_2 1_555 1_555
O5_2 Cd5 1_555 1_555
C4_2 C5_2 1_555 1_555
C32_2 O3_2 1_555 1_555
C37_2 C38_2 1_555 1_555
C39_2 O5_2 1_555 1_555
C65_2 C64_2 1_555 1_555
H49_2 C65_2 1_555 1_555
C66_2 C65_2 1_555 1_555
H50_2 C66_2 1_555 1_555
C67_2 C66_2 1_555 1_555
H51_2 C67_2 1_555 1_555
C68_2 C67_2 1_555 1_555
C69_2 C64_2 1_555 1_555
H52_2 C69_2 1_555 1_555
C70_2 C68_2 1_555 1_555
H53_2 C70_2 1_555 1_555
C71_2 C70_2 1_555 1_555
H54_2 C71_2 1_555 1_555
C72_2 C71_2 1_555 1_555
C73_2 C72_2 1_555 1_555
H55_2 C73_2 1_555 1_555
C74_2 N6_2 1_555 1_555
C75_2 N6_2 1_555 1_555
H57_2 C75_2 1_555 1_555
C76_2 C72_2 1_555 1_555
H58_2 C76_2 1_555 1_555
C68_2 C69_2 1_555 1_555
C73_2 C74_2 1_555 1_555
C75_2 C76_2 1_555 1_555
N7 C18_2 1_555 1_555
C9_2 C8_2 1_555 1_555
H7_2 C9_2 1_555 1_555
C10_2 C9_2 1_555 1_555
H8_2 C10_2 1_555 1_555
C11_2 C10_2 1_555 1_555
H9_2 C11_2 1_555 1_555
C12_2 C11_2 1_555 1_555
C13_2 C8_2 1_555 1_555
H10_2 C13_2 1_555 1_555
C14_2 C12_2 1_555 1_555
H11_2 C14_2 1_555 1_555
C15_2 C14_2 1_555 1_555
H12_2 C15_2 1_555 1_555
C16_2 C15_2 1_555 1_555
C17_2 C16_2 1_555 1_555
H13_2 C17_2 1_555 1_555
C18_2 C17_2 1_555 1_555
C19_2 N7 1_555 1_555
H15_2 C19_2 1_555 1_555
C20_2 C16_2 1_555 1_555
H16_2 C20_2 1_555 1_555
C12_2 C13_2 1_555 1_555
C19_2 C20_2 1_555 1_555
C42_2 H30_2 1_555 1_555
N8 C21_2 1_555 1_555
C21_2 H17_2 1_555 1_555
C22_2 C21_2 1_555 1_555
H18_2 C22_2 1_555 1_555
C23_2 C22_2 1_555 1_555
C24_2 C23_2 1_555 1_555
H19_2 C24_2 1_555 1_555
C25_2 N8 1_555 1_555
H20_2 C25_2 1_555 1_555
C26_2 C23_2 1_555 1_555
H21_2 C26_2 1_555 1_555
C27_2 C26_2 1_555 1_555
H22_2 C27_2 1_555 1_555
C28_2 H23_2 1_555 1_555
C29_2 C27_2 1_555 1_555
C30_2 C29_2 1_555 1_555
H24_2 C30_2 1_555 1_555
C31_2 C30_2 1_555 1_555
H25_2 C31_2 1_555 1_555
N8_2 C44_2 1_555 1_555
C44_2 H34_2 1_555 1_555
C45_2 C44_2 1_555 1_555
H35_2 C45_2 1_555 1_555
C46_2 C45_2 1_555 1_555
C47_2 C46_2 1_555 1_555
H36_2 C47_2 1_555 1_555
C48_2 N8_2 1_555 1_555
H37_2 C48_2 1_555 1_555
C49_2 C46_2 1_555 1_555
H38_2 C49_2 1_555 1_555
C50_2 C49_2 1_555 1_555
H39_2 C50_2 1_555 1_555
C51_2 C28_2 1_555 1_555
C52_2 C31_2 1_555 1_555
H40_2 C52_2 1_555 1_555
C24_2 C25_2 1_555 1_555
C28_2 C29_2 1_555 1_555
C47_2 C48_2 1_555 1_555
C50_2 C51_2 1_555 1_555
C51_2 C52_2 1_555 1_555
C40_2 C41_2 1_555 1_555
C43_2 C41_2 1_555 1_555
H31_2 C43_2 1_555 1_555
C40_2 O19_2 1_555 1_555
H41_2 C55_2 1_555 1_555
C53_2 C54_2 1_555 1_555
H42_2 C56_2 1_555 1_555
O19 C53_2 1_555 1_555
C54_2 C56_2 1_555 1_555

#END
