
###############################################################################
#
# This file contains modified crystal structure data generated from the
# MOF subset of the Cambridge Structural Database (CSD) v543 
# hosted by the Cambridge Crystallographic Data Centre (CCDC).
#
# This work is licensed under the Creative Commons
# Attribution-NonCommercial-ShareAlike 4.0 International License.
# To view a copy of this license, visit
# http://creativecommons.org/licenses/by-nc-sa/4.0/
# or send a letter to
# Creative Commons, PO Box 1866, Mountain View, CA 94042, USA.
#
# CIF created using the CSD Python API on 29 September 2022
# The structure has been converted into the P1 space group
# The structure has a 3D framework
# The original CSD entry ELOKOI is in the monoclinic crystal system
# The framework has been calculated to contain at least 10.0% void space
# The void calculation uses a probe of radius 1.32A, grid spacing 0.4
# H atom positions have been added when not included in the experimental data
#
###############################################################################

data_ELOKOI
_chemical_formula_moiety         '(C56 H128 Ce8 Fe6 N8 O214 Sb4 W36)n'
_symmetry_cell_setting           triclinic
_symmetry_space_group_name_H-M   'P 1'
_symmetry_Int_Tables_number      1
_space_group_name_Hall           'P 1'
loop_
_symmetry_equiv_pos_site_id
_symmetry_equiv_pos_as_xyz
1 x,y,z
_cell_length_a                   15.8051(5)
_cell_length_b                   21.7324(6)
_cell_length_c                   21.8012(6)
_cell_angle_alpha                90
_cell_angle_beta                 91.0520(10)
_cell_angle_gamma                90
_cell_volume                     7487.07
loop_
_atom_site_label
_atom_site_type_symbol
_atom_site_fract_x
_atom_site_fract_y
_atom_site_fract_z
W1 W 0.05282(3) 0.41183(2) 0.07055(2)
W2 W 0.08532(3) 0.44586(2) 0.22067(2)
W3 W 0.32657(3) 0.58411(2) 0.16811(2)
W4 W 0.30289(3) 0.55494(2) 0.01942(2)
W6 W 0.25037(3) 0.43004(2) 0.12800(2)
W7 W 0.13969(3) 0.60433(2) 0.26553(2)
W8 W 0.05445(3) 0.70638(2) 0.16666(2)
W9 W 0.24901(3) 0.69281(2) 0.07377(2)
Sb1 Sb 0.10029(5) 0.56702(4) 0.08794(4)
Ce1 Ce 0.26474(4) 0.56981(3) 0.43178(3)
O4 O 0.1179(7) 0.5242(6) 0.4240(5)
O5 O 0.2743(10) 0.4930(6) 0.3460(7)
O6 O 0.3265(6) 0.6658(4) 0.3868(5)
O7 O 0.4185(6) 0.5424(5) 0.4135(5)
O8 O 0.3555(6) 0.6263(4) 0.5102(4)
O14 O 0.0241(5) 0.5952(4) 0.2803(4)
O15 O 0.2216(5) 0.5915(4) 0.0963(3)
O16 O 0.0779(5) 0.6033(4) 0.1700(3)
O19 O 0.1690(5) 0.7120(4) 0.1317(4)
O21 O 0.1179(5) 0.6887(4) 0.2440(4)
O23 O 0.1450(5) 0.5180(4) 0.2541(3)
O24 O 0.3099(5) 0.6426(4) 0.0136(4)
O25 O 0.2465(5) 0.6116(4) 0.2239(4)
O26 O 0.3777(5) 0.5634(4) 0.0908(4)
O27 O 0.0360(6) 0.7828(4) 0.1821(4)
O29 O 0.1722(5) 0.3784(4) 0.0888(4)
O30 O 0.0163(5) 0.6960(4) 0.0879(4)
O31 O 0.2921(6) 0.7635(4) 0.0563(4)
O32 O 0.1777(5) 0.6119(4) 0.3402(4)
O33 O 0.2928(5) 0.5029(4) 0.1741(4)
O34 O 0.0931(5) 0.4451(4) 0.0019(4)
O35 O 0.0113(5) 0.3403(4) 0.0434(4)
O36 O 0.0639(6) 0.4064(4) 0.2866(4)
O37 O 0.1221(5) 0.4840(4) 0.1229(3)
O39 O 0.4188(5) 0.5856(4) 0.2108(4)
O40 O 0.0408(5) 0.3917(4) 0.1615(4)
O41 O 0.3311(5) 0.6696(4) 0.1345(4)
O42 O 0.3331(5) 0.3802(4) 0.1374(4)
O43 O 0.1957(5) 0.4140(4) 0.2063(4)
O44 O 0.2803(5) 0.4744(4) 0.0587(4)
O45 O 0.1551(5) 0.6872(4) 0.0143(4)
O47 O 0.2997(6) 0.4754(4) 0.4932(5)
O48 O 0.2977(7) 0.4195(4) 0.5782(5)
O49 O 0.1724(6) 0.6541(4) 0.4720(4)
O50 O 0.0826(6) 0.6950(4) 0.5411(4)
N1 N 0.1963(6) 0.5559(4) 0.5406(5)
C1 C 0.2721(9) 0.4604(6) 0.5464(6)
C2 C 0.2074(8) 0.5032(6) 0.5730(6)
C3 C 0.1595(8) 0.4909(6) 0.6234(6)
H1 H 0.1665 0.4526 0.6439
C4 C 0.1021(9) 0.5323(6) 0.6448(6)
H2 H 0.0708 0.5236 0.6805
C5 C 0.0900(8) 0.5882(6) 0.6128(6)
H3 H 0.0506 0.6181 0.6262
C6 C 0.1384(8) 0.5978(6) 0.5607(6)
C7 C 0.1319(8) 0.6528(6) 0.5224(5)
Ce3 Ce 0.57021(5) 0.55555(4) 0.23345(3)
Fe3 Fe 0.04177(11) 0.77523(8) 0.50594(8)
Fe4 Fe 0.04177(11) 0.72477(8) 0.00594(8)
H9 H 0.36355 0.600123 0.54718
H10 H 0.411422 0.635687 0.492397
H13 H 0.064737 0.184887 0.00013514
H21 H 0.23337 0.504191 0.312744
H22 H 0.332542 0.493145 0.329677
H23 H 0.121005 0.479156 0.431344
H24 H 0.0813706 0.543488 0.455197
H25 H 0.294938 0.702209 0.401676
H26 H 0.386933 0.669321 0.399583
H27 H 0.425675 0.531501 0.369669
H28 H 0.455001 0.578201 0.424034
W5 W 0.94736(3) 0.58203(2) 0.20725(2)
Fe2 Fe 0.86212(11) 0.51304(8) 0.07010(7)
O2 O 0.9302(6) 0.2350(4) 0.0790(4)
O3 O 0.7611(5) 0.5750(4) 0.0701(4)
O9 O 0.4942(7) 0.4561(5) 0.2071(5)
O10 O 0.6935(6) 0.5991(5) 0.2964(4)
O11 O 0.5429(6) 0.5499(6) 0.1188(4)
O12 O 0.5116(7) 0.6357(5) 0.3083(5)
O13 O 0.6116(9) 0.6570(5) 0.1877(5)
O17 O 0.9540(5) 0.6706(4) 0.2003(3)
O20 O 0.9191(5) 0.5703(4) 0.1280(4)
O22 O 0.8537(6) 0.5758(4) 0.2451(4)
O28 O 0.9906(5) 0.4991(4) 0.2143(3)
O46 O 0.9599(5) 0.4579(4) 0.0756(4)
O51 O 0.5513(7) 0.4245(6) 0.3989(5)
O52 O 0.5371(6) 0.5003(5) 0.3307(4)
O53 O 0.6988(5) 0.5287(4) 0.1708(4)
O54 O 0.8093(5) 0.4698(4) 0.1447(4)
N2 N 0.6676(6) 0.4621(5) 0.2665(5)
C8 C 0.7477(8) 0.4842(6) 0.1795(5)
C9 C 0.7336(8) 0.4433(6) 0.2344(5)
C10 C 0.7802(9) 0.3926(6) 0.2489(6)
H4 H 0.8276 0.3818 0.2251
C11 C 0.7579(9) 0.3570(6) 0.2986(6)
H5 H 0.7889 0.3210 0.3093
C12 C 0.6884(9) 0.3756(7) 0.3326(6)
H6 H 0.6702 0.3512 0.3661
C13 C 0.6465(8) 0.4287(7) 0.3180(6)
C14 C 0.5733(9) 0.4538(8) 0.3512(6)
O57 O 0.7969(6) 0.4533(4) 0.0203(4)
H7 H 0.780545 0.615717 0.0552415
H8 H 0.715039 0.559504 0.0426299
H11 H 0.504782 0.616555 0.34927
H12 H 0.551549 0.670847 0.311759
H15 H 0.472231 0.437294 0.245143
H16 H 0.446334 0.46482 0.178262
H17 H 0.559944 0.67955 0.174074
H18 H 0.642834 0.681782 0.218967
H19 H 0.972985 0.248113 0.110261
H20 H 0.873122 0.248396 0.0918262
H29 H 0.747087 0.579939 0.282933
H30 H 0.696442 0.644327 0.290318
H31 H 0.48105 0.547035 0.110456
H32 H 0.565547 0.587443 0.098987
O2_2 O 0.0698(6) 0.7350(4) 0.4210(4)
O9_2 O 0.5058(7) 0.9561(5) 0.2929(5)
O28_2 O 0.0094(5) 0.9991(4) 0.2857(3)
O46_2 O 0.0401(5) 0.9579(4) 0.4244(4)
O51_2 O 0.4487(7) 0.9245(6) 0.1011(5)
O54_2 O 0.1907(5) 0.9698(4) 0.3553(4)
N2_2 N 0.3324(6) 0.9621(5) 0.2335(5)
C8_2 C 0.2523(8) 0.9842(6) 0.3205(5)
C9_2 C 0.2664(8) 0.9433(6) 0.2656(5)
C10_2 C 0.2198(9) 0.8926(6) 0.2511(6)
H4_2 H 0.1724 0.8818 0.2749
C11_2 C 0.2421(9) 0.8570(6) 0.2014(6)
H5_2 H 0.2111 0.8210 0.1907
C12_2 C 0.3116(9) 0.8756(7) 0.1674(6)
H6_2 H 0.3298 0.8512 0.1339
C13_2 C 0.3535(8) 0.9287(7) 0.1820(6)
C14_2 C 0.4267(9) 0.9538(8) 0.1488(6)
O55 O 0.0163(5) 0.8040(4) 0.5879(4)
O57_2 O 0.2031(6) 0.9533(4) 0.4797(4)
O59 O 0.1551(5) 0.8128(4) 0.5143(4)
H15_2 H 0.527769 0.937294 0.254857
H16_2 H 0.553666 0.96482 0.321738
H19_2 H 0.0270151 0.748113 0.389739
H20_2 H 0.126878 0.748396 0.408174
W1_2 W 0.94718(3) 0.91183(2) 0.42945(2)
W2_2 W 0.91468(3) 0.94586(2) 0.27933(2)
W6_2 W 0.74963(3) 0.93004(2) 0.37200(2)
O1 O 0.9257(6) 0.7300(4) 0.5018(4)
O5_2 O 0.7257(10) 0.9930(6) 0.1540(7)
O29_2 O 0.8278(5) 0.8784(4) 0.4112(4)
O34_2 O 0.9069(5) 0.9451(4) 0.4981(4)
O35_2 O 0.9887(5) 0.8403(4) 0.4566(4)
O36_2 O 0.9361(6) 0.9064(4) 0.2134(4)
O37_2 O 0.8779(5) 0.9840(4) 0.3771(3)
O40_2 O 0.9592(5) 0.8917(4) 0.3385(4)
O42_2 O 0.6669(5) 0.8802(4) 0.3626(4)
O43_2 O 0.8043(5) 0.9140(4) 0.2937(4)
O44_2 O 0.7197(5) 0.9744(4) 0.4413(4)
O47_2 O 0.7003(6) 0.9754(4) 0.0068(5)
Fe5 Fe 0.86212(11) 0.98696(8) 0.57010(7)
H13_2 H 0.935263 0.684887 0.499865
H14 H 0.892939 0.740026 0.538925
H22_2 H 0.667458 0.993145 0.170323
H23_2 H 0.878995 0.979156 0.0686558
O60 O 0.0826(6) 0.8050(4) 0.0411(4)
O1_2 O 0.9257(6) 0.7700(4) 0.0018(4)
O18 O 0.6244(5) 0.4669(4) 0.0352(4)
H14_2 H 0.892939 0.759974 0.0389248
O8_2 O 0.3555(6) 0.8737(4) 0.0102(4)
N1_2 N 0.1963(6) 0.9441(4) 0.0406(5)
C2_2 C 0.2074(8) 0.9968(6) 0.0730(6)
C4_2 C 0.1021(9) 0.9677(6) 0.1448(6)
H2_2 H 0.0708 0.9764 0.1805
C5_2 C 0.0900(8) 0.9118(6) 0.1128(6)
H3_2 H 0.0506 0.8819 0.1262
C6_2 C 0.1384(8) 0.9022(6) 0.0607(6)
C7_2 C 0.1319(8) 0.8472(6) 0.0224(5)
H9_2 H 0.36355 0.899877 0.0471803
W3_2 W 0.32657(3) 0.91589(2) 0.66811(2)
W4_2 W 0.30289(3) 0.94506(2) 0.51942(2)
W7_2 W 0.13969(3) 0.89567(2) 0.76553(2)
W8_2 W 0.05445(3) 0.79362(2) 0.66666(2)
W9_2 W 0.24901(3) 0.80719(2) 0.57377(2)
Sb1_2 Sb 0.10029(5) 0.93298(4) 0.58794(4)
Ce1_2 Ce 0.26474(4) 0.93019(3) 0.93178(3)
O4_2 O 0.1179(7) 0.9758(6) 0.9240(5)
O6_2 O 0.3265(6) 0.8342(4) 0.8868(5)
O7_2 O 0.4185(6) 0.9576(5) 0.9135(5)
O14_2 O 0.0241(5) 0.9048(4) 0.7803(4)
O15_2 O 0.2216(5) 0.9085(4) 0.5963(3)
O16_2 O 0.0779(5) 0.8967(4) 0.6700(3)
O18_2 O 0.3756(5) 0.9669(4) 0.4648(4)
O19_2 O 0.1690(5) 0.7880(4) 0.6317(4)
O21_2 O 0.1179(5) 0.8113(4) 0.7440(4)
O23_2 O 0.1450(5) 0.9820(4) 0.7541(3)
O24_2 O 0.3099(5) 0.8574(4) 0.5136(4)
O25_2 O 0.2465(5) 0.8884(4) 0.7239(4)
O26_2 O 0.3777(5) 0.9366(4) 0.5908(4)
O27_2 O 0.0360(6) 0.7172(4) 0.6821(4)
O31_2 O 0.2921(6) 0.7365(4) 0.5563(4)
O32_2 O 0.1777(5) 0.8881(4) 0.8402(4)
O33_2 O 0.2928(5) 0.9971(4) 0.6741(4)
O39_2 O 0.4188(5) 0.9144(4) 0.7108(4)
O41_2 O 0.3311(5) 0.8304(4) 0.6345(4)
O49_2 O 0.1724(6) 0.8459(4) 0.9720(4)
Ce3_2 Ce 0.57021(5) 0.94445(4) 0.73345(3)
H10_2 H 0.411422 0.864313 0.992397
H21_2 H 0.23337 0.995809 0.812744
H24_2 H 0.0813706 0.956512 0.955197
H25_2 H 0.294938 0.797791 0.901676
H26_2 H 0.386933 0.830679 0.899583
H27_2 H 0.425675 0.968499 0.869669
H28_2 H 0.455001 0.921799 0.924034
W5_2 W 0.94736(3) 0.91797(2) 0.70725(2)
O3_2 O 0.7611(5) 0.9250(4) 0.5701(4)
O10_2 O 0.6935(6) 0.9009(5) 0.7964(4)
O11_2 O 0.5429(6) 0.9501(6) 0.6188(4)
O12_2 O 0.5116(7) 0.8643(5) 0.8083(5)
O13_2 O 0.6116(9) 0.8430(5) 0.6877(5)
O17_2 O 0.9540(5) 0.8294(4) 0.7003(3)
O20_2 O 0.9191(5) 0.9297(4) 0.6280(4)
O22_2 O 0.8537(6) 0.9242(4) 0.7451(4)
O52_2 O 0.5371(6) 0.9997(5) 0.8307(4)
O53_2 O 0.6988(5) 0.9713(4) 0.6708(4)
H7_2 H 0.780545 0.884283 0.555242
H8_2 H 0.715039 0.940496 0.54263
H11_2 H 0.504782 0.883445 0.84927
H12_2 H 0.551549 0.829153 0.811759
H17_2 H 0.559944 0.82045 0.674074
H18_2 H 0.642834 0.818218 0.718967
H29_2 H 0.747087 0.920061 0.782933
H30_2 H 0.696442 0.855673 0.790318
H31_2 H 0.48105 0.952965 0.610456
H32_2 H 0.565547 0.912557 0.598987
O1_3 O 0.0743(6) 0.2300(4) 0.9982(4)
O18_3 O 0.3756(5) 0.5331(4) 0.9648(4)
O38 O 0.2031(6) 0.5467(4) 0.9797(4)
Fe5_2 Fe 0.13788(11) 0.48696(8) 0.92990(7)
H14_3 H 0.107061 0.240026 0.961075
Fe1 Fe 0.95823(11) 0.27523(8) 0.99406(8)
O55_2 O 0.9837(5) 0.3040(4) 0.9121(4)
O56 O 0.9069(5) 0.5549(4) 0.9981(4)
O59_2 O 0.8449(5) 0.3128(4) 0.9857(4)
O60_2 O 0.9174(6) 0.1950(4) 0.9589(4)
W5_3 W 0.05264(3) 0.08203(2) 0.29275(2)
Ce2 Ce 0.42979(5) 0.05555(4) 0.26655(3)
Fe2_2 Fe 0.13788(11) 0.01304(8) 0.42990(7)
O3_3 O 0.2389(5) 0.0750(4) 0.4299(4)
O10_3 O 0.3065(6) 0.0991(5) 0.2036(4)
O11_3 O 0.4571(6) 0.0499(6) 0.3812(4)
O12_3 O 0.4884(7) 0.1357(5) 0.1917(5)
O13_3 O 0.3884(9) 0.1570(5) 0.3123(5)
O17_3 O 0.0460(5) 0.1706(4) 0.2997(3)
O20_3 O 0.0809(5) 0.0703(4) 0.3720(4)
O22_3 O 0.1463(6) 0.0758(4) 0.2549(4)
O52_3 O 0.4629(6) 0.0003(5) 0.1693(4)
O53_3 O 0.3012(5) 0.0287(4) 0.3292(4)
O56_2 O 0.0931(5) 0.0549(4) 0.5019(4)
O58 O 0.5812(5) 0.0856(4) 0.2892(4)
H7_3 H 0.219455 0.115717 0.444758
H8_3 H 0.284961 0.0595042 0.45737
H11_3 H 0.495218 0.116555 0.15073
H12_3 H 0.448451 0.170847 0.188241
H17_3 H 0.440056 0.17955 0.325926
H18_3 H 0.357166 0.181782 0.281033
H29_3 H 0.252913 0.0799387 0.217067
H30_3 H 0.303558 0.144327 0.209682
H31_3 H 0.51895 0.047035 0.389544
H32_3 H 0.434453 0.0874425 0.401013
W3_3 W 0.67343(3) 0.08411(2) 0.33189(2)
W4_3 W 0.69711(3) 0.05494(2) 0.48058(2)
W7_3 W 0.86031(3) 0.10433(2) 0.23447(2)
W8_3 W 0.94555(3) 0.20638(2) 0.33334(2)
W9_3 W 0.75099(3) 0.19281(2) 0.42623(2)
Sb1_3 Sb 0.89971(5) 0.06702(4) 0.41206(4)
Ce1_3 Ce 0.73526(4) 0.06981(3) 0.06822(3)
O4_3 O 0.8821(7) 0.0242(6) 0.0760(5)
O6_3 O 0.6735(6) 0.1658(4) 0.1132(5)
O7_3 O 0.5815(6) 0.0424(5) 0.0865(5)
O14_3 O 0.9759(5) 0.0952(4) 0.2197(4)
O15_3 O 0.7784(5) 0.0915(4) 0.4037(3)
O16_3 O 0.9221(5) 0.1033(4) 0.3300(3)
O18_4 O 0.6244(5) 0.0331(4) 0.5352(4)
O19_3 O 0.8310(5) 0.2120(4) 0.3683(4)
O21_3 O 0.8821(5) 0.1887(4) 0.2560(4)
O23_3 O 0.8550(5) 0.0180(4) 0.2459(3)
O24_3 O 0.6901(5) 0.1426(4) 0.4864(4)
O25_3 O 0.7535(5) 0.1116(4) 0.2761(4)
O26_3 O 0.6223(5) 0.0634(4) 0.4092(4)
O27_3 O 0.9640(6) 0.2828(4) 0.3179(4)
O30_2 O 0.9837(5) 0.1960(4) 0.4121(4)
O31_3 O 0.7079(6) 0.2635(4) 0.4437(4)
O32_3 O 0.8223(5) 0.1119(4) 0.1598(4)
O33_3 O 0.7072(5) 0.0029(4) 0.3259(4)
O38_2 O 0.7969(6) 0.0467(4) 0.5203(4)
O41_3 O 0.6689(5) 0.1696(4) 0.3655(4)
O45_2 O 0.8449(5) 0.1872(4) 0.4857(4)
O49_3 O 0.8276(6) 0.1541(4) 0.0280(4)
Fe4_2 Fe 0.95823(11) 0.22477(8) 0.49406(8)
H10_3 H 0.588578 0.135687 0.00760293
H21_3 H 0.76663 0.00419126 0.187256
H24_3 H 0.918629 0.0434878 0.0448026
H25_3 H 0.705062 0.202209 0.0983244
H26_3 H 0.613067 0.169321 0.100417
H27_3 H 0.574325 0.0315009 0.130331
H28_3 H 0.544999 0.0782011 0.0759657
O8_3 O 0.6445(6) 0.1263(4) 0.9898(4)
N1_3 N 0.8037(6) 0.0559(4) 0.9594(5)
C2_3 C 0.7926(8) 0.0032(6) 0.9270(6)
C4_3 C 0.8979(9) 0.0323(6) 0.8552(6)
H2_3 H 0.9292 0.0236 0.8195
C5_3 C 0.9100(8) 0.0882(6) 0.8872(6)
H3_3 H 0.9494 0.1181 0.8738
C6_3 C 0.8616(8) 0.0978(6) 0.9393(6)
C7_3 C 0.8681(8) 0.1528(6) 0.9776(5)
H9_3 H 0.63645 0.100123 0.95282
W5_4 W 0.05264(3) 0.41797(2) 0.79275(2)
Ce2_2 Ce 0.42979(5) 0.44445(4) 0.76655(3)
O2_3 O 0.0698(6) 0.7650(4) 0.9210(4)
O3_4 O 0.2389(5) 0.4250(4) 0.9299(4)
O9_3 O 0.5058(7) 0.5439(5) 0.7929(5)
O10_4 O 0.3065(6) 0.4009(5) 0.7036(4)
O11_4 O 0.4571(6) 0.4501(6) 0.8812(4)
O12_4 O 0.4884(7) 0.3643(5) 0.6917(5)
O13_4 O 0.3884(9) 0.3430(5) 0.8123(5)
O17_4 O 0.0460(5) 0.3294(4) 0.7997(3)
O20_4 O 0.0809(5) 0.4297(4) 0.8720(4)
O22_4 O 0.1463(6) 0.4242(4) 0.7549(4)
O28_3 O 0.0094(5) 0.5009(4) 0.7857(3)
O46_3 O 0.0401(5) 0.5421(4) 0.9244(4)
O51_3 O 0.4487(7) 0.5755(6) 0.6011(5)
O52_4 O 0.4629(6) 0.4997(5) 0.6693(4)
O53_4 O 0.3012(5) 0.4713(4) 0.8292(4)
O54_3 O 0.1907(5) 0.5302(4) 0.8553(4)
N2_3 N 0.3324(6) 0.5379(5) 0.7335(5)
C8_3 C 0.2523(8) 0.5158(6) 0.8205(5)
C9_3 C 0.2664(8) 0.5567(6) 0.7656(5)
C10_3 C 0.2198(9) 0.6074(6) 0.7511(6)
H4_3 H 0.1724 0.6182 0.7749
C11_3 C 0.2421(9) 0.6430(6) 0.7014(6)
H5_3 H 0.2111 0.6790 0.6907
C12_3 C 0.3116(9) 0.6244(7) 0.6674(6)
H6_3 H 0.3298 0.6488 0.6339
C13_3 C 0.3535(8) 0.5713(7) 0.6820(6)
C14_3 C 0.4267(9) 0.5462(8) 0.6488(6)
O58_2 O 0.5812(5) 0.4144(4) 0.7892(4)
H7_4 H 0.219455 0.384283 0.944758
H8_4 H 0.284961 0.440496 0.95737
H11_4 H 0.495218 0.383445 0.65073
H12_4 H 0.448451 0.329153 0.688241
H15_3 H 0.527769 0.562706 0.754857
H16_3 H 0.553666 0.53518 0.821738
H17_4 H 0.440056 0.32045 0.825926
H18_4 H 0.357166 0.318218 0.781033
H19_3 H 0.0270151 0.751887 0.889739
H20_3 H 0.126878 0.751604 0.908174
H29_4 H 0.252913 0.420061 0.717067
H30_4 H 0.303558 0.355673 0.709682
H31_4 H 0.51895 0.452965 0.889544
H32_4 H 0.434453 0.412557 0.901013
W1_3 W 0.94718(3) 0.58817(2) 0.92945(2)
W2_3 W 0.91468(3) 0.55414(2) 0.77933(2)
W3_4 W 0.67343(3) 0.41589(2) 0.83189(2)
W4_4 W 0.69711(3) 0.44506(2) 0.98058(2)
W6_3 W 0.74963(3) 0.56996(2) 0.87200(2)
W7_4 W 0.86031(3) 0.39567(2) 0.73447(2)
W8_4 W 0.94555(3) 0.29362(2) 0.83334(2)
W9_4 W 0.75099(3) 0.30719(2) 0.92623(2)
Sb1_4 Sb 0.89971(5) 0.43298(4) 0.91206(4)
Ce1_4 Ce 0.73526(4) 0.43019(3) 0.56822(3)
O4_4 O 0.8821(7) 0.4758(6) 0.5760(5)
O5_3 O 0.7257(10) 0.5070(6) 0.6540(7)
O6_4 O 0.6735(6) 0.3342(4) 0.6132(5)
O7_4 O 0.5815(6) 0.4576(5) 0.5865(5)
O8_4 O 0.6445(6) 0.3737(4) 0.4898(4)
O14_4 O 0.9759(5) 0.4048(4) 0.7197(4)
O15_4 O 0.7784(5) 0.4085(4) 0.9037(3)
O16_4 O 0.9221(5) 0.3967(4) 0.8300(3)
O19_4 O 0.8310(5) 0.2880(4) 0.8683(4)
O21_4 O 0.8821(5) 0.3113(4) 0.7560(4)
O23_4 O 0.8550(5) 0.4820(4) 0.7459(3)
O24_4 O 0.6901(5) 0.3574(4) 0.9864(4)
O25_4 O 0.7535(5) 0.3884(4) 0.7761(4)
O26_4 O 0.6223(5) 0.4366(4) 0.9092(4)
O27_4 O 0.9640(6) 0.2172(4) 0.8179(4)
O29_3 O 0.8278(5) 0.6216(4) 0.9112(4)
O31_4 O 0.7079(6) 0.2365(4) 0.9437(4)
O32_4 O 0.8223(5) 0.3881(4) 0.6598(4)
O33_4 O 0.7072(5) 0.4971(4) 0.8259(4)
O35_3 O 0.9887(5) 0.6597(4) 0.9566(4)
O36_3 O 0.9361(6) 0.5936(4) 0.7134(4)
O37_3 O 0.8779(5) 0.5160(4) 0.8771(3)
O40_3 O 0.9592(5) 0.6083(4) 0.8385(4)
O41_4 O 0.6689(5) 0.3304(4) 0.8655(4)
O42_3 O 0.6669(5) 0.6198(4) 0.8626(4)
O43_3 O 0.8043(5) 0.5860(4) 0.7937(4)
O44_3 O 0.7197(5) 0.5256(4) 0.9413(4)
O47_3 O 0.7003(6) 0.5246(4) 0.5068(5)
O48_2 O 0.7023(7) 0.5805(4) 0.4218(5)
O49_4 O 0.8276(6) 0.3459(4) 0.5280(4)
O50_2 O 0.9174(6) 0.3050(4) 0.4589(4)
N1_4 N 0.8037(6) 0.4441(4) 0.4594(5)
C1_2 C 0.7279(9) 0.5396(6) 0.4536(6)
C2_4 C 0.7926(8) 0.4968(6) 0.4270(6)
C3_2 C 0.8405(8) 0.5091(6) 0.3766(6)
H1_2 H 0.8335 0.5474 0.3561
C4_4 C 0.8979(9) 0.4677(6) 0.3552(6)
H2_4 H 0.9292 0.4764 0.3195
C5_4 C 0.9100(8) 0.4118(6) 0.3872(6)
H3_4 H 0.9494 0.3819 0.3738
C6_4 C 0.8616(8) 0.4022(6) 0.4393(6)
C7_4 C 0.8681(8) 0.3472(6) 0.4776(5)
H9_4 H 0.63645 0.399877 0.45282
H10_4 H 0.588578 0.364313 0.507603
H13_3 H 0.935263 0.815113 0.999865
H21_4 H 0.76663 0.495809 0.687256
H22_3 H 0.667458 0.506855 0.670323
H23_3 H 0.878995 0.520844 0.568656
H24_4 H 0.918629 0.456512 0.544803
H25_4 H 0.705062 0.297791 0.598324
H26_4 H 0.613067 0.330679 0.600417
H27_4 H 0.574325 0.468499 0.630331
H28_4 H 0.544999 0.421799 0.575966
W1_4 W 0.05282(3) 0.08817(2) 0.57055(2)
W2_4 W 0.08532(3) 0.05414(2) 0.72067(2)
W6_4 W 0.25037(3) 0.06996(2) 0.62800(2)
O1_4 O 0.0743(6) 0.2700(4) 0.4982(4)
O5_4 O 0.2743(10) 0.0070(6) 0.8460(7)
O29_4 O 0.1722(5) 0.1216(4) 0.5888(4)
O35_4 O 0.0113(5) 0.1597(4) 0.5434(4)
O36_4 O 0.0639(6) 0.0936(4) 0.7866(4)
O37_4 O 0.1221(5) 0.0160(4) 0.6229(3)
O40_4 O 0.0408(5) 0.1083(4) 0.6615(4)
O42_4 O 0.3331(5) 0.1198(4) 0.6374(4)
O43_4 O 0.1957(5) 0.0860(4) 0.7063(4)
O44_4 O 0.2803(5) 0.0256(4) 0.5587(4)
O47_4 O 0.2997(6) 0.0246(4) 0.9932(5)
H13_4 H 0.064737 0.315113 0.500135
H14_4 H 0.107061 0.259974 0.461075
H22_4 H 0.332542 0.00685473 0.829677
H23_4 H 0.121005 0.0208445 0.931344
O2_4 O 0.9302(6) 0.2650(4) 0.5790(4)
O9_4 O 0.4942(7) 0.0439(5) 0.7071(5)
O28_4 O 0.9906(5) 0.0009(4) 0.7143(3)
O46_4 O 0.9599(5) 0.0421(4) 0.5756(4)
O51_4 O 0.5513(7) 0.0755(6) 0.8989(5)
O54_4 O 0.8093(5) 0.0302(4) 0.6447(4)
N2_4 N 0.6676(6) 0.0379(5) 0.7665(5)
C8_4 C 0.7477(8) 0.0158(6) 0.6795(5)
C9_4 C 0.7336(8) 0.0567(6) 0.7344(5)
C10_4 C 0.7802(9) 0.1074(6) 0.7489(6)
H4_4 H 0.8276 0.1182 0.7251
C11_4 C 0.7579(9) 0.1430(6) 0.7986(6)
H5_4 H 0.7889 0.1790 0.8093
C12_4 C 0.6884(9) 0.1244(7) 0.8326(6)
H6_4 H 0.6702 0.1488 0.8661
C13_4 C 0.6465(8) 0.0713(7) 0.8180(6)
C14_4 C 0.5733(9) 0.0462(8) 0.8512(6)
H15_4 H 0.472231 0.0627056 0.745143
H16_4 H 0.446334 0.0351804 0.678262
H19_4 H 0.972985 0.251887 0.610261
H20_4 H 0.873122 0.251604 0.591826
O48_3 O 0.7023(7) 0.9195(4) 0.9218(5)
C1_3 C 0.7279(9) 0.9604(6) 0.9536(6)
C3_3 C 0.8405(8) 0.9909(6) 0.8766(6)
H1_3 H 0.8335 0.9526 0.8561
O48_4 O 0.2977(7) 0.0805(4) 0.0782(5)
C1_4 C 0.2721(9) 0.0396(6) 0.0464(6)
C3_4 C 0.1595(8) 0.0091(6) 0.1234(6)
H1_4 H 0.1665 0.0474 0.1439
loop_
_geom_bond_atom_site_label_1
_geom_bond_atom_site_label_2
_geom_bond_site_symmetry_1
_geom_bond_site_symmetry_2
W1 O29 1_555 1_555
W2 O23 1_555 1_555
W3 O15 1_555 1_555
W4 O15 1_555 1_555
W6 O29 1_555 1_555
W7 O14 1_555 1_555
W8 O16 1_555 1_555
W9 O15 1_555 1_555
Sb1 O15 1_555 1_555
Ce1 O4 1_555 1_555
O5 Ce1 1_555 1_555
O6 Ce1 1_555 1_555
O7 Ce1 1_555 1_555
O8 Ce1 1_555 1_555
O19 W8 1_555 1_555
O21 W7 1_555 1_555
O23 W7 1_555 1_555
O24 W4 1_555 1_555
O25 W3 1_555 1_555
O26 W3 1_555 1_555
O27 W8 1_555 1_555
O30 W8 1_555 1_555
O31 W9 1_555 1_555
O32 W7 1_555 1_555
O33 W3 1_555 1_555
O34 W1 1_555 1_555
O35 W1 1_555 1_555
O36 W2 1_555 1_555
O37 W1 1_555 1_555
O39 W3 1_555 1_555
O40 W1 1_555 1_555
O41 W3 1_555 1_555
O42 W6 1_555 1_555
O43 W2 1_555 1_555
O44 W4 1_555 1_555
O45 W9 1_555 1_555
O47 Ce1 1_555 1_555
O48 C1 1_555 1_555
O49 Ce1 1_555 1_555
O50 C7 1_555 1_555
N1 Ce1 1_555 1_555
C1 O47 1_555 1_555
C2 N1 1_555 1_555
C3 C2 1_555 1_555
H1 C3 1_555 1_555
C4 C3 1_555 1_555
H2 C4 1_555 1_555
C5 C4 1_555 1_555
H3 C5 1_555 1_555
C6 N1 1_555 1_555
C7 O49 1_555 1_555
Ce3 O39 1_555 1_555
Fe3 O50 1_555 1_555
Fe4 O30 1_555 1_555
W2 O37 1_555 1_555
W2 O40 1_555 1_555
W4 O26 1_555 1_555
W6 O33 1_555 1_555
W6 O37 1_555 1_555
W6 O43 1_555 1_555
W6 O44 1_555 1_555
W7 O16 1_555 1_555
W7 O25 1_555 1_555
W8 O21 1_555 1_555
W9 O19 1_555 1_555
W9 O24 1_555 1_555
W9 O41 1_555 1_555
Sb1 O16 1_555 1_555
Sb1 O37 1_555 1_555
Ce1 O32 1_555 1_555
O45 Fe4 1_555 1_555
C1 C2 1_555 1_555
C5 C6 1_555 1_555
C6 C7 1_555 1_555
O8 H9 1_555 1_555
O8 H10 1_555 1_555
O5 H21 1_555 1_555
O5 H22 1_555 1_555
O4 H23 1_555 1_555
O4 H24 1_555 1_555
O6 H25 1_555 1_555
O6 H26 1_555 1_555
O7 H27 1_555 1_555
O7 H28 1_555 1_555
Ce3 O9 1_555 1_555
Fe2 O3 1_555 1_555
O10 Ce3 1_555 1_555
O11 Ce3 1_555 1_555
O12 Ce3 1_555 1_555
O13 Ce3 1_555 1_555
O17 W5 1_555 1_555
O20 W5 1_555 1_555
O22 W5 1_555 1_555
O51 C14 1_555 1_555
O52 Ce3 1_555 1_555
O53 Ce3 1_555 1_555
O54 Fe2 1_555 1_555
N2 Ce3 1_555 1_555
C8 O53 1_555 1_555
C9 N2 1_555 1_555
C10 C9 1_555 1_555
H4 C10 1_555 1_555
C11 C10 1_555 1_555
H5 C11 1_555 1_555
C12 C11 1_555 1_555
H6 C12 1_555 1_555
C13 N2 1_555 1_555
C14 O52 1_555 1_555
O57 Fe2 1_555 1_555
W5 O28 1_555 1_555
Fe2 O20 1_555 1_555
Fe2 O46 1_555 1_555
O54 C8 1_555 1_555
C8 C9 1_555 1_555
C12 C13 1_555 1_555
C13 C14 1_555 1_555
O3 H7 1_555 1_555
O3 H8 1_555 1_555
O12 H11 1_555 1_555
O12 H12 1_555 1_555
O9 H15 1_555 1_555
O9 H16 1_555 1_555
O13 H17 1_555 1_555
O13 H18 1_555 1_555
O2 H19 1_555 1_555
O2 H20 1_555 1_555
O10 H29 1_555 1_555
O10 H30 1_555 1_555
O11 H31 1_555 1_555
O11 H32 1_555 1_555
O2_2 Fe3 1_555 1_555
O51_2 C14_2 1_555 1_555
C9_2 N2_2 1_555 1_555
C10_2 C9_2 1_555 1_555
H4_2 C10_2 1_555 1_555
C11_2 C10_2 1_555 1_555
H5_2 C11_2 1_555 1_555
C12_2 C11_2 1_555 1_555
H6_2 C12_2 1_555 1_555
C13_2 N2_2 1_555 1_555
O55 Fe3 1_555 1_555
O59 Fe3 1_555 1_555
O54_2 C8_2 1_555 1_555
C8_2 C9_2 1_555 1_555
C12_2 C13_2 1_555 1_555
C13_2 C14_2 1_555 1_555
O9_2 H15_2 1_555 1_555
O9_2 H16_2 1_555 1_555
O2_2 H19_2 1_555 1_555
O2_2 H20_2 1_555 1_555
W1_2 O29_2 1_555 1_555
W6_2 O29_2 1_555 1_555
O34_2 W1_2 1_555 1_555
O35_2 W1_2 1_555 1_555
O36_2 W2_2 1_555 1_555
O37_2 W1_2 1_555 1_555
O40_2 W1_2 1_555 1_555
O42_2 W6_2 1_555 1_555
O43_2 W2_2 1_555 1_555
Fe5 O34_2 1_555 1_555
W2_2 O37_2 1_555 1_555
W2_2 O40_2 1_555 1_555
W6_2 O37_2 1_555 1_555
W6_2 O43_2 1_555 1_555
W6_2 O44_2 1_555 1_555
O1 H13_2 1_555 1_555
O1 H14 1_555 1_555
O5_2 H22_2 1_555 1_555
O60 Fe4 1_555 1_555
O1_2 H14_2 1_555 1_555
O60 C7_2 1_555 1_555
C2_2 N1_2 1_555 1_555
H2_2 C4_2 1_555 1_555
C5_2 C4_2 1_555 1_555
H3_2 C5_2 1_555 1_555
C6_2 N1_2 1_555 1_555
C5_2 C6_2 1_555 1_555
C6_2 C7_2 1_555 1_555
O8_2 H9_2 1_555 1_555
W3_2 O15_2 1_555 1_555
W4_2 O15_2 1_555 1_555
W7_2 O14_2 1_555 1_555
W8_2 O16_2 1_555 1_555
W9_2 O15_2 1_555 1_555
Sb1_2 O15_2 1_555 1_555
Ce1_2 O4_2 1_555 1_555
O6_2 Ce1_2 1_555 1_555
O7_2 Ce1_2 1_555 1_555
O18_2 W4_2 1_555 1_555
O19_2 W8_2 1_555 1_555
O21_2 W7_2 1_555 1_555
O23_2 W7_2 1_555 1_555
O24_2 W4_2 1_555 1_555
O25_2 W3_2 1_555 1_555
O26_2 W3_2 1_555 1_555
O27_2 W8_2 1_555 1_555
O55 W8_2 1_555 1_555
O31_2 W9_2 1_555 1_555
O32_2 W7_2 1_555 1_555
O33_2 W3_2 1_555 1_555
O57_2 W4_2 1_555 1_555
O39_2 W3_2 1_555 1_555
O41_2 W3_2 1_555 1_555
O59 W9_2 1_555 1_555
O49_2 Ce1_2 1_555 1_555
Ce3_2 O39_2 1_555 1_555
W4_2 O26_2 1_555 1_555
W7_2 O16_2 1_555 1_555
W7_2 O25_2 1_555 1_555
W8_2 O21_2 1_555 1_555
W9_2 O19_2 1_555 1_555
W9_2 O24_2 1_555 1_555
W9_2 O41_2 1_555 1_555
Sb1_2 O16_2 1_555 1_555
Ce1_2 O32_2 1_555 1_555
O4_2 H24_2 1_555 1_555
O6_2 H25_2 1_555 1_555
O6_2 H26_2 1_555 1_555
O7_2 H27_2 1_555 1_555
O7_2 H28_2 1_555 1_555
Fe5 O3_2 1_555 1_555
O10_2 Ce3_2 1_555 1_555
O11_2 Ce3_2 1_555 1_555
O12_2 Ce3_2 1_555 1_555
O13_2 Ce3_2 1_555 1_555
O17_2 W5_2 1_555 1_555
O20_2 W5_2 1_555 1_555
O22_2 W5_2 1_555 1_555
O52_2 Ce3_2 1_555 1_555
O53_2 Ce3_2 1_555 1_555
Fe5 O20_2 1_555 1_555
O3_2 H7_2 1_555 1_555
O3_2 H8_2 1_555 1_555
O12_2 H11_2 1_555 1_555
O12_2 H12_2 1_555 1_555
O13_2 H17_2 1_555 1_555
O13_2 H18_2 1_555 1_555
O10_2 H29_2 1_555 1_555
O10_2 H30_2 1_555 1_555
O11_2 H31_2 1_555 1_555
O11_2 H32_2 1_555 1_555
O38 Fe5_2 1_555 1_555
O1_3 H14_3 1_555 1_555
O55_2 Fe1 1_555 1_555
O59_2 Fe1 1_555 1_555
O60_2 Fe1 1_555 1_555
Fe2_2 O3_3 1_555 1_555
O10_3 Ce2 1_555 1_555
O11_3 Ce2 1_555 1_555
O12_3 Ce2 1_555 1_555
O13_3 Ce2 1_555 1_555
O17_3 W5_3 1_555 1_555
O20_3 W5_3 1_555 1_555
O22_3 W5_3 1_555 1_555
O52_3 Ce2 1_555 1_555
O53_3 Ce2 1_555 1_555
O56_2 Fe2_2 1_555 1_555
O58 Ce2 1_555 1_555
Fe2_2 O20_3 1_555 1_555
O3_3 H7_3 1_555 1_555
O3_3 H8_3 1_555 1_555
O12_3 H11_3 1_555 1_555
O12_3 H12_3 1_555 1_555
O13_3 H17_3 1_555 1_555
O13_3 H18_3 1_555 1_555
O10_3 H29_3 1_555 1_555
O10_3 H30_3 1_555 1_555
O11_3 H31_3 1_555 1_555
O11_3 H32_3 1_555 1_555
W3_3 O15_3 1_555 1_555
W4_3 O15_3 1_555 1_555
W7_3 O14_3 1_555 1_555
W8_3 O16_3 1_555 1_555
W9_3 O15_3 1_555 1_555
Sb1_3 O15_3 1_555 1_555
Ce1_3 O4_3 1_555 1_555
O6_3 Ce1_3 1_555 1_555
O7_3 Ce1_3 1_555 1_555
O18_4 W4_3 1_555 1_555
O19_3 W8_3 1_555 1_555
O21_3 W7_3 1_555 1_555
O23_3 W7_3 1_555 1_555
O24_3 W4_3 1_555 1_555
O25_3 W3_3 1_555 1_555
O26_3 W3_3 1_555 1_555
O27_3 W8_3 1_555 1_555
O30_2 W8_3 1_555 1_555
O31_3 W9_3 1_555 1_555
O32_3 W7_3 1_555 1_555
O33_3 W3_3 1_555 1_555
O38_2 W4_3 1_555 1_555
O58 W3_3 1_555 1_555
O41_3 W3_3 1_555 1_555
O45_2 W9_3 1_555 1_555
O49_3 Ce1_3 1_555 1_555
Fe4_2 O30_2 1_555 1_555
W4_3 O26_3 1_555 1_555
W7_3 O16_3 1_555 1_555
W7_3 O25_3 1_555 1_555
W8_3 O21_3 1_555 1_555
W9_3 O19_3 1_555 1_555
W9_3 O24_3 1_555 1_555
W9_3 O41_3 1_555 1_555
Sb1_3 O16_3 1_555 1_555
Ce1_3 O32_3 1_555 1_555
O45_2 Fe4_2 1_555 1_555
O4_3 H24_3 1_555 1_555
O6_3 H25_3 1_555 1_555
O6_3 H26_3 1_555 1_555
O7_3 H27_3 1_555 1_555
O7_3 H28_3 1_555 1_555
O60_2 C7_3 1_555 1_555
C2_3 N1_3 1_555 1_555
H2_3 C4_3 1_555 1_555
C5_3 C4_3 1_555 1_555
H3_3 C5_3 1_555 1_555
C6_3 N1_3 1_555 1_555
C5_3 C6_3 1_555 1_555
C6_3 C7_3 1_555 1_555
O8_3 H9_3 1_555 1_555
Ce2_2 O9_3 1_555 1_555
Fe5_2 O3_4 1_555 1_555
O10_4 Ce2_2 1_555 1_555
O11_4 Ce2_2 1_555 1_555
O12_4 Ce2_2 1_555 1_555
O13_4 Ce2_2 1_555 1_555
O17_4 W5_4 1_555 1_555
O20_4 W5_4 1_555 1_555
O22_4 W5_4 1_555 1_555
O51_3 C14_3 1_555 1_555
O52_4 Ce2_2 1_555 1_555
O53_4 Ce2_2 1_555 1_555
O54_3 Fe5_2 1_555 1_555
N2_3 Ce2_2 1_555 1_555
C8_3 O53_4 1_555 1_555
C9_3 N2_3 1_555 1_555
C10_3 C9_3 1_555 1_555
H4_3 C10_3 1_555 1_555
C11_3 C10_3 1_555 1_555
H5_3 C11_3 1_555 1_555
C12_3 C11_3 1_555 1_555
H6_3 C12_3 1_555 1_555
C13_3 N2_3 1_555 1_555
C14_3 O52_4 1_555 1_555
O58_2 Ce2_2 1_555 1_555
W5_4 O28_3 1_555 1_555
Fe5_2 O20_4 1_555 1_555
Fe5_2 O46_3 1_555 1_555
O54_3 C8_3 1_555 1_555
C8_3 C9_3 1_555 1_555
C12_3 C13_3 1_555 1_555
C13_3 C14_3 1_555 1_555
O3_4 H7_4 1_555 1_555
O3_4 H8_4 1_555 1_555
O12_4 H11_4 1_555 1_555
O12_4 H12_4 1_555 1_555
O9_3 H15_3 1_555 1_555
O9_3 H16_3 1_555 1_555
O13_4 H17_4 1_555 1_555
O13_4 H18_4 1_555 1_555
O2_3 H19_3 1_555 1_555
O2_3 H20_3 1_555 1_555
O10_4 H29_4 1_555 1_555
O10_4 H30_4 1_555 1_555
O11_4 H31_4 1_555 1_555
O11_4 H32_4 1_555 1_555
W1_3 O29_3 1_555 1_555
W2_3 O23_4 1_555 1_555
W3_4 O15_4 1_555 1_555
W4_4 O15_4 1_555 1_555
W6_3 O29_3 1_555 1_555
W7_4 O14_4 1_555 1_555
W8_4 O16_4 1_555 1_555
W9_4 O15_4 1_555 1_555
Sb1_4 O15_4 1_555 1_555
Ce1_4 O4_4 1_555 1_555
O5_3 Ce1_4 1_555 1_555
O6_4 Ce1_4 1_555 1_555
O7_4 Ce1_4 1_555 1_555
O8_4 Ce1_4 1_555 1_555
O19_4 W8_4 1_555 1_555
O21_4 W7_4 1_555 1_555
O23_4 W7_4 1_555 1_555
O24_4 W4_4 1_555 1_555
O25_4 W3_4 1_555 1_555
O26_4 W3_4 1_555 1_555
O27_4 W8_4 1_555 1_555
O55_2 W8_4 1_555 1_555
O31_4 W9_4 1_555 1_555
O32_4 W7_4 1_555 1_555
O33_4 W3_4 1_555 1_555
O56 W1_3 1_555 1_555
O35_3 W1_3 1_555 1_555
O36_3 W2_3 1_555 1_555
O37_3 W1_3 1_555 1_555
O58_2 W3_4 1_555 1_555
O40_3 W1_3 1_555 1_555
O41_4 W3_4 1_555 1_555
O42_3 W6_3 1_555 1_555
O43_3 W2_3 1_555 1_555
O44_3 W4_4 1_555 1_555
O59_2 W9_4 1_555 1_555
O47_3 Ce1_4 1_555 1_555
O48_2 C1_2 1_555 1_555
O49_4 Ce1_4 1_555 1_555
O50_2 C7_4 1_555 1_555
N1_4 Ce1_4 1_555 1_555
C1_2 O47_3 1_555 1_555
C2_4 N1_4 1_555 1_555
C3_2 C2_4 1_555 1_555
H1_2 C3_2 1_555 1_555
C4_4 C3_2 1_555 1_555
H2_4 C4_4 1_555 1_555
C5_4 C4_4 1_555 1_555
H3_4 C5_4 1_555 1_555
C6_4 N1_4 1_555 1_555
C7_4 O49_4 1_555 1_555
Fe4_2 O50_2 1_555 1_555
W2_3 O37_3 1_555 1_555
W2_3 O40_3 1_555 1_555
W4_4 O26_4 1_555 1_555
W6_3 O33_4 1_555 1_555
W6_3 O37_3 1_555 1_555
W6_3 O43_3 1_555 1_555
W6_3 O44_3 1_555 1_555
W7_4 O16_4 1_555 1_555
W7_4 O25_4 1_555 1_555
W8_4 O21_4 1_555 1_555
W9_4 O19_4 1_555 1_555
W9_4 O24_4 1_555 1_555
W9_4 O41_4 1_555 1_555
Sb1_4 O16_4 1_555 1_555
Sb1_4 O37_3 1_555 1_555
Ce1_4 O32_4 1_555 1_555
C1_2 C2_4 1_555 1_555
C5_4 C6_4 1_555 1_555
C6_4 C7_4 1_555 1_555
O8_4 H9_4 1_555 1_555
O8_4 H10_4 1_555 1_555
O5_3 H21_4 1_555 1_555
O5_3 H22_3 1_555 1_555
O4_4 H23_3 1_555 1_555
O4_4 H24_4 1_555 1_555
O6_4 H25_4 1_555 1_555
O6_4 H26_4 1_555 1_555
O7_4 H27_4 1_555 1_555
O7_4 H28_4 1_555 1_555
W1_4 O29_4 1_555 1_555
W6_4 O29_4 1_555 1_555
O56_2 W1_4 1_555 1_555
O35_4 W1_4 1_555 1_555
O36_4 W2_4 1_555 1_555
O37_4 W1_4 1_555 1_555
O40_4 W1_4 1_555 1_555
O42_4 W6_4 1_555 1_555
O43_4 W2_4 1_555 1_555
W2_4 O37_4 1_555 1_555
W2_4 O40_4 1_555 1_555
W6_4 O37_4 1_555 1_555
W6_4 O43_4 1_555 1_555
W6_4 O44_4 1_555 1_555
O1_4 H13_4 1_555 1_555
O1_4 H14_4 1_555 1_555
O5_4 H22_4 1_555 1_555
O2_4 Fe4_2 1_555 1_555
O51_4 C14_4 1_555 1_555
C9_4 N2_4 1_555 1_555
C10_4 C9_4 1_555 1_555
H4_4 C10_4 1_555 1_555
C11_4 C10_4 1_555 1_555
H5_4 C11_4 1_555 1_555
C12_4 C11_4 1_555 1_555
H6_4 C12_4 1_555 1_555
C13_4 N2_4 1_555 1_555
O54_4 C8_4 1_555 1_555
C8_4 C9_4 1_555 1_555
C12_4 C13_4 1_555 1_555
C13_4 C14_4 1_555 1_555
O9_4 H15_4 1_555 1_555
O9_4 H16_4 1_555 1_555
O2_4 H19_4 1_555 1_555
O2_4 H20_4 1_555 1_555
O48_3 C1_3 1_555 1_555
H1_3 C3_3 1_555 1_555
O48_4 C1_4 1_555 1_555
H1_4 C3_4 1_555 1_555

#END
