
###############################################################################
#
# This file contains modified crystal structure data generated from the
# MOF subset of the Cambridge Structural Database (CSD) v543 
# hosted by the Cambridge Crystallographic Data Centre (CCDC).
#
# This work is licensed under the Creative Commons
# Attribution-NonCommercial-ShareAlike 4.0 International License.
# To view a copy of this license, visit
# http://creativecommons.org/licenses/by-nc-sa/4.0/
# or send a letter to
# Creative Commons, PO Box 1866, Mountain View, CA 94042, USA.
#
# CIF created using the CSD Python API on 29 September 2022
# The structure has been converted into the P1 space group
# The structure has a 3D framework
# The original CSD entry ELOZOW is in the orthorhombic crystal system
# The framework has been calculated to contain at least 10.0% void space
# The void calculation uses a probe of radius 1.32A, grid spacing 0.4
# The framework is charged, counterions have been retained in the structure
#
###############################################################################

data_ELOZOW
_chemical_formula_moiety         '(C176 H96 Cd32 Cl12 N80 O64 S16 4-)n'
_symmetry_cell_setting           triclinic
_symmetry_space_group_name_H-M   'P 1'
_symmetry_Int_Tables_number      1
_space_group_name_Hall           'P 1'
loop_
_symmetry_equiv_pos_site_id
_symmetry_equiv_pos_as_xyz
1 x,y,z
_cell_length_a                   24.715(15)
_cell_length_b                   24.819(15)
_cell_length_c                   18.975(15)
_cell_angle_alpha                90
_cell_angle_beta                 90
_cell_angle_gamma                90
_cell_volume                     11639.3
loop_
_atom_site_label
_atom_site_type_symbol
_atom_site_fract_x
_atom_site_fract_y
_atom_site_fract_z
Cd2 Cd 0.20266(6) 0.0000 0.2500
Cd3 Cd 0.5000 0.29734(7) 0.2500
S1 S 0.3475(2) 0.1526(2) 0.2456(4)
O1 O 0.2691(6) 0.0629(6) 0.2250(12)
O2 O 0.4371(5) 0.2303(6) 0.2230(10)
O3 O 0.4219(6) 0.2810(5) 0.3165(9)
O4 O 0.2182(6) 0.0777(6) 0.3165(9)
N1 N 0.1367(6) 0.0308(7) 0.1761(10)
N2 N 0.1182(6) 0.1172(6) 0.2588(8)
H1 H 0.0980 0.1454 0.2598
H2 H 0.1431 0.1129 0.2901
N3 N 0.0116(6) 0.0799(6) 0.0854(9)
N4 N 0.0307(6) 0.1369(6) 0.1747(10)
N5 N 0.0797(6) 0.0112(6) 0.0849(9)
C1 C 0.1103(8) 0.0766(7) 0.2042(10)
C2 C 0.0684(7) 0.0981(7) 0.1668(10)
C3 C 0.0584(7) 0.0564(7) 0.1108(9)
C4 C 0.1244(9) 0.0009(9) 0.1244(14)
C6 C 0.2912(8) 0.1389(8) 0.2981(16)
C7 C 0.2850(10) 0.1775(10) 0.3456(15)
H5 H 0.2561 0.1777 0.3769
C8 C 0.3624(7) 0.2090(7) 0.2979(15)
C9 C 0.3233(10) 0.2166(10) 0.3462(17)
H6 H 0.3226 0.2457 0.3769
C10 C 0.2565(8) 0.0898(8) 0.2798(17)
C11 C 0.4086(8) 0.2426(7) 0.2810(15)
Cd8 Cd 0.0000 0.20266(7) 0.2500
O9 O 0.5629(5) 0.2303(6) 0.2770(10)
O10 O 0.5781(6) 0.2810(5) 0.1835(9)
N13 N 0.4693(6) 0.3631(6) 0.1747(10)
N14 N 0.5307(6) 0.3631(6) 0.3253(10)
N15 N 0.0797(6) 0.0112(6) 0.9151(9)
Cd1 Cd 0.05115(8) 0.94900(8) 0.0000
Cd2_2 Cd 0.20266(6) 1.0000 0.2500
Cl1 Cl 0.1246(3) 0.8754(3) 0.0000
H3 H 0.1462 0.9716 0.1133
C16 C 0.0064(7) 0.8746(8) 0.1194(12)
H10 H 0.0372 0.8549 0.1083
S2 S 0.3475(2) 0.8474(2) 0.2544(4)
O5 O 0.2691(6) 0.9371(6) 0.2750(12)
O6 O 0.4371(5) 0.7697(6) 0.2770(10)
O7 O 0.4219(6) 0.7190(5) 0.1835(9)
O8 O 0.2182(6) 0.9223(6) 0.1835(9)
C17 C 0.2912(8) 0.8611(8) 0.2019(16)
C18 C 0.2850(10) 0.8225(10) 0.1544(15)
H11 H 0.2561 0.8223 0.1231
C19 C 0.3624(7) 0.7910(7) 0.2021(15)
C20 C 0.3233(10) 0.7834(10) 0.1538(17)
H12 H 0.3226 0.7543 0.1231
C21 C 0.2565(8) 0.9102(8) 0.2202(17)
C22 C 0.4086(8) 0.7574(7) 0.2190(15)
Cd6 Cd 0.5000 0.70266(7) 0.2500
Cd7 Cd -0.0000 0.79734(7) 0.2500
N11 N 0.1367(6) 0.9692(7) 0.3239(10)
Cd1_2 Cd 0.05115(8) 0.94900(8) 1.0000
Cl1_2 Cl 0.1246(3) 0.8754(3) 1.0000
C5 C 0.9936(7) 0.1254(8) 0.1194(12)
H4 H 0.9628 0.1451 0.1083
H9 H 0.8538 0.0284 0.1133
Cd4 Cd 0.94885(8) 0.05100(8) 0.0000
Cd5 Cd 0.79734(6) 0.0000 0.2500
Cd8_2 Cd 1.0000 0.20266(7) 0.2500
Cd4_2 Cd 0.94885(8) 0.05100(8) 1.0000
N6 N 0.8633(6) 0.9692(7) 0.1761(10)
N7 N 0.8818(6) 0.8828(6) 0.2588(8)
H7 H 0.9020 0.8546 0.2598
H8 H 0.8569 0.8871 0.2901
N8 N 0.9884(6) 0.9201(6) 0.0854(9)
N9 N 0.9693(6) 0.8631(6) 0.1747(10)
N10 N 0.9203(6) 0.9888(6) 0.0849(9)
C12 C 0.8897(8) 0.9234(7) 0.2042(10)
C13 C 0.9316(7) 0.9019(7) 0.1668(10)
C14 C 0.9416(7) 0.9436(7) 0.1108(9)
C15 C 0.8756(9) 0.9991(9) 0.1244(14)
Cd5_2 Cd 0.79734(6) 1.0000 0.2500
Cd7_2 Cd 1.0000 0.79734(7) 0.2500
N12 N 0.9884(6) 0.9201(6) 0.9146(9)
N12_2 N 0.0116(6) 0.0799(6) 0.9146(9)
Cl1_3 Cl 0.8754(3) 0.1246(3) 0.0000
S2_2 S 0.6525(2) 0.1526(2) 0.2544(4)
O5_2 O 0.7309(6) 0.0629(6) 0.2750(12)
O8_2 O 0.7818(6) 0.0777(6) 0.1835(9)
C17_2 C 0.7088(8) 0.1389(8) 0.2019(16)
C18_2 C 0.7150(10) 0.1775(10) 0.1544(15)
H11_2 H 0.7439 0.1777 0.1231
C19_2 C 0.6376(7) 0.2090(7) 0.2021(15)
C20_2 C 0.6767(10) 0.2166(10) 0.1538(17)
H12_2 H 0.6774 0.2457 0.1231
C21_2 C 0.7435(8) 0.0898(8) 0.2202(17)
C22_2 C 0.5914(8) 0.2426(7) 0.2190(15)
N11_2 N 0.8633(6) 0.0308(7) 0.3239(10)
Cl1_4 Cl 0.8754(3) 0.1246(3) 1.0000
S1_2 S 0.6525(2) 0.8474(2) 0.2456(4)
O1_2 O 0.7309(6) 0.9371(6) 0.2250(12)
O2_2 O 0.5629(5) 0.7697(6) 0.2230(10)
O3_2 O 0.5781(6) 0.7190(5) 0.3165(9)
O4_2 O 0.7818(6) 0.9223(6) 0.3165(9)
C6_2 C 0.7088(8) 0.8611(8) 0.2981(16)
C7_2 C 0.7150(10) 0.8225(10) 0.3456(15)
H5_2 H 0.7439 0.8223 0.3769
C8_2 C 0.6376(7) 0.7910(7) 0.2979(15)
C9_2 C 0.6767(10) 0.7834(10) 0.3462(17)
H6_2 H 0.6774 0.7543 0.3769
C10_2 C 0.7435(8) 0.9102(8) 0.2798(17)
C11_2 C 0.5914(8) 0.7574(7) 0.2810(15)
N13_2 N 0.5307(6) 0.6369(6) 0.1747(10)
N14_2 N 0.4693(6) 0.6369(6) 0.3253(10)
N15_2 N 0.9203(6) 0.9888(6) 0.9151(9)
Cd1_3 Cd 0.05115(8) 0.05100(8) 0.5000
Cl1_5 Cl 0.1246(3) 0.1246(3) 0.5000
H3_2 H 0.1462 0.0284 0.3867
C16_2 C 0.0064(7) 0.1254(8) 0.3806(12)
H10_2 H 0.0372 0.1451 0.3917
N2_2 N 0.1182(6) 0.8828(6) 0.2412(8)
H1_2 H 0.0980 0.8546 0.2402
H2_2 H 0.1431 0.8871 0.2099
N3_2 N 0.0116(6) 0.9201(6) 0.4146(9)
N4_2 N 0.0307(6) 0.8631(6) 0.3253(10)
N5_2 N 0.0797(6) 0.9888(6) 0.4151(9)
C1_2 C 0.1103(8) 0.9234(7) 0.2958(10)
C2_2 C 0.0684(7) 0.9019(7) 0.3332(10)
C3_2 C 0.0584(7) 0.9436(7) 0.3892(9)
C4_2 C 0.1244(9) 0.9991(9) 0.3756(14)
N15_3 N 0.0797(6) 0.9888(6) 0.5849(9)
N7_2 N 0.8818(6) 0.1172(6) 0.2412(8)
H7_2 H 0.9020 0.1454 0.2402
H8_2 H 0.8569 0.1129 0.2099
N8_2 N 0.9884(6) 0.0799(6) 0.4146(9)
N9_2 N 0.9693(6) 0.1369(6) 0.3253(10)
N10_2 N 0.9203(6) 0.0112(6) 0.4151(9)
C12_2 C 0.8897(8) 0.0766(7) 0.2958(10)
C13_2 C 0.9316(7) 0.0981(7) 0.3332(10)
C14_2 C 0.9416(7) 0.0564(7) 0.3892(9)
C15_2 C 0.8756(9) 0.0009(9) 0.3756(14)
N12_3 N 0.9884(6) 0.0799(6) 0.5854(9)
C5_2 C 0.9936(7) 0.8746(8) 0.3806(12)
H4_2 H 0.9628 0.8549 0.3917
H9_2 H 0.8538 0.9716 0.3867
Cd4_3 Cd 0.94885(8) 0.94900(8) 0.5000
N12_4 N 0.0116(6) 0.9201(6) 0.5854(9)
N15_4 N 0.9203(6) 0.0112(6) 0.5849(9)
Cl1_6 Cl 0.8754(3) 0.8754(3) 0.5000
O9_2 O 0.0629(5) 0.7303(6) 0.2770(10)
O10_2 O 0.0781(6) 0.7810(5) 0.1835(9)
Cd1_4 Cd 0.55115(8) 0.44900(8) 0.0000
Cd2_3 Cd 0.70266(6) 0.5000 0.2500
S1_3 S 0.8475(2) 0.6526(2) 0.2456(4)
Cl1_7 Cl 0.6246(3) 0.3754(3) 0.0000
O1_3 O 0.7691(6) 0.5629(6) 0.2250(12)
O2_3 O 0.9371(5) 0.7303(6) 0.2230(10)
O3_3 O 0.9219(6) 0.7810(5) 0.3165(9)
O4_3 O 0.7182(6) 0.5777(6) 0.3165(9)
N1_2 N 0.6367(6) 0.5308(7) 0.1761(10)
N2_3 N 0.6182(6) 0.6172(6) 0.2588(8)
H1_3 H 0.5980 0.6454 0.2598
H2_3 H 0.6431 0.6129 0.2901
N3_3 N 0.5116(6) 0.5799(6) 0.0854(9)
N5_3 N 0.5797(6) 0.5112(6) 0.0849(9)
C1_3 C 0.6103(8) 0.5766(7) 0.2042(10)
C2_3 C 0.5684(7) 0.5981(7) 0.1668(10)
C3_3 C 0.5584(7) 0.5564(7) 0.1108(9)
C4_3 C 0.6244(9) 0.5009(9) 0.1244(14)
H3_3 H 0.6462 0.4716 0.1133
C5_3 C 0.4936(7) 0.6254(8) 0.1194(12)
H4_3 H 0.4628 0.6451 0.1083
C6_3 C 0.7912(8) 0.6389(8) 0.2981(16)
C7_3 C 0.7850(10) 0.6775(10) 0.3456(15)
H5_3 H 0.7561 0.6777 0.3769
C8_3 C 0.8624(7) 0.7090(7) 0.2979(15)
C9_3 C 0.8233(10) 0.7166(10) 0.3462(17)
H6_3 H 0.8226 0.7457 0.3769
C10_3 C 0.7565(8) 0.5898(8) 0.2798(17)
C11_3 C 0.9086(8) 0.7426(7) 0.2810(15)
N6_2 N 0.3633(6) 0.4692(7) 0.1761(10)
N7_3 N 0.3818(6) 0.3828(6) 0.2588(8)
H7_3 H 0.4020 0.3546 0.2598
H8_3 H 0.3569 0.3871 0.2901
N8_3 N 0.4884(6) 0.4201(6) 0.0854(9)
N10_3 N 0.4203(6) 0.4888(6) 0.0849(9)
C12_3 C 0.3897(8) 0.4234(7) 0.2042(10)
C13_3 C 0.4316(7) 0.4019(7) 0.1668(10)
C14_3 C 0.4416(7) 0.4436(7) 0.1108(9)
C15_3 C 0.3756(9) 0.4991(9) 0.1244(14)
H9_3 H 0.3538 0.5284 0.1133
C16_3 C 0.5064(7) 0.3746(8) 0.1194(12)
H10_3 H 0.5372 0.3549 0.1083
S2_3 S 0.8475(2) 0.3474(2) 0.2544(4)
O5_3 O 0.7691(6) 0.4371(6) 0.2750(12)
O6_2 O 0.9371(5) 0.2697(6) 0.2770(10)
O7_2 O 0.9219(6) 0.2190(5) 0.1835(9)
O8_3 O 0.7182(6) 0.4223(6) 0.1835(9)
C17_3 C 0.7912(8) 0.3611(8) 0.2019(16)
C18_3 C 0.7850(10) 0.3225(10) 0.1544(15)
H11_3 H 0.7561 0.3223 0.1231
C19_3 C 0.8624(7) 0.2910(7) 0.2021(15)
C20_3 C 0.8233(10) 0.2834(10) 0.1538(17)
H12_3 H 0.8226 0.2543 0.1231
C21_3 C 0.7565(8) 0.4102(8) 0.2202(17)
C22_3 C 0.9086(8) 0.2574(7) 0.2190(15)
Cd4_4 Cd 0.44885(8) 0.55100(8) 0.0000
Cd5_3 Cd 0.29734(6) 0.5000 0.2500
N11_3 N 0.6367(6) 0.4692(7) 0.3239(10)
Cd1_5 Cd 0.55115(8) 0.44900(8) 1.0000
Cl1_8 Cl 0.6246(3) 0.3754(3) 1.0000
Cd4_5 Cd 0.44885(8) 0.55100(8) 1.0000
N12_5 N 0.4884(6) 0.4201(6) 0.9146(9)
N15_5 N 0.5797(6) 0.5112(6) 0.9151(9)
S1_4 S 0.1525(2) 0.3474(2) 0.2456(4)
Cl1_9 Cl 0.3754(3) 0.6246(3) 0.0000
O1_4 O 0.2309(6) 0.4371(6) 0.2250(12)
O2_4 O 0.0629(5) 0.2697(6) 0.2230(10)
O3_4 O 0.0781(6) 0.2190(5) 0.3165(9)
O4_4 O 0.2818(6) 0.4223(6) 0.3165(9)
C6_4 C 0.2088(8) 0.3611(8) 0.2981(16)
C7_4 C 0.2150(10) 0.3225(10) 0.3456(15)
H5_4 H 0.2439 0.3223 0.3769
C8_4 C 0.1376(7) 0.2910(7) 0.2979(15)
C9_4 C 0.1767(10) 0.2834(10) 0.3462(17)
H6_4 H 0.1774 0.2543 0.3769
C10_4 C 0.2435(8) 0.4102(8) 0.2798(17)
C11_4 C 0.0914(8) 0.2574(7) 0.2810(15)
S2_4 S 0.1525(2) 0.6526(2) 0.2544(4)
O5_4 O 0.2309(6) 0.5629(6) 0.2750(12)
O8_4 O 0.2818(6) 0.5777(6) 0.1835(9)
C17_4 C 0.2088(8) 0.6389(8) 0.2019(16)
C18_4 C 0.2150(10) 0.6775(10) 0.1544(15)
H11_4 H 0.2439 0.6777 0.1231
C19_4 C 0.1376(7) 0.7090(7) 0.2021(15)
C20_4 C 0.1767(10) 0.7166(10) 0.1538(17)
H12_4 H 0.1774 0.7457 0.1231
C21_4 C 0.2435(8) 0.5898(8) 0.2202(17)
C22_4 C 0.0914(8) 0.7426(7) 0.2190(15)
N11_4 N 0.3633(6) 0.5308(7) 0.3239(10)
Cl1_10 Cl 0.3754(3) 0.6246(3) 1.0000
N12_6 N 0.5116(6) 0.5799(6) 0.9146(9)
N15_6 N 0.4203(6) 0.4888(6) 0.9151(9)
Cd1_6 Cd 0.55115(8) 0.55100(8) 0.5000
Cl1_11 Cl 0.6246(3) 0.6246(3) 0.5000
N2_4 N 0.6182(6) 0.3828(6) 0.2412(8)
H1_4 H 0.5980 0.3546 0.2402
H2_4 H 0.6431 0.3871 0.2099
N3_4 N 0.5116(6) 0.4201(6) 0.4146(9)
N5_4 N 0.5797(6) 0.4888(6) 0.4151(9)
C1_4 C 0.6103(8) 0.4234(7) 0.2958(10)
C2_4 C 0.5684(7) 0.4019(7) 0.3332(10)
C3_4 C 0.5584(7) 0.4436(7) 0.3892(9)
C4_4 C 0.6244(9) 0.4991(9) 0.3756(14)
H3_4 H 0.6462 0.5284 0.3867
C5_4 C 0.4936(7) 0.3746(8) 0.3806(12)
H4_4 H 0.4628 0.3549 0.3917
N7_4 N 0.3818(6) 0.6172(6) 0.2412(8)
H7_4 H 0.4020 0.6454 0.2402
H8_4 H 0.3569 0.6129 0.2099
N8_4 N 0.4884(6) 0.5799(6) 0.4146(9)
N10_4 N 0.4203(6) 0.5112(6) 0.4151(9)
C12_4 C 0.3897(8) 0.5766(7) 0.2958(10)
C13_4 C 0.4316(7) 0.5981(7) 0.3332(10)
C14_4 C 0.4416(7) 0.5564(7) 0.3892(9)
C15_4 C 0.3756(9) 0.5009(9) 0.3756(14)
H9_4 H 0.3538 0.4716 0.3867
C16_4 C 0.5064(7) 0.6254(8) 0.3806(12)
H10_4 H 0.5372 0.6451 0.3917
Cd4_6 Cd 0.44885(8) 0.44900(8) 0.5000
N12_7 N 0.4884(6) 0.5799(6) 0.5854(9)
N15_7 N 0.5797(6) 0.4888(6) 0.5849(9)
Cl1_12 Cl 0.3754(3) 0.3754(3) 0.5000
N12_8 N 0.5116(6) 0.4201(6) 0.5854(9)
N15_8 N 0.4203(6) 0.5112(6) 0.5849(9)
N6_3 N 0.1367(6) 0.0308(7) 0.8239(10)
N7_5 N 0.1182(6) 0.1172(6) 0.7412(8)
H7_5 H 0.0980 0.1454 0.7402
H8_5 H 0.1431 0.1129 0.7099
N9_3 N 0.0307(6) 0.1369(6) 0.8253(10)
C12_5 C 0.1103(8) 0.0766(7) 0.7958(10)
C13_5 C 0.0684(7) 0.0981(7) 0.8332(10)
C14_5 C 0.0584(7) 0.0564(7) 0.8892(9)
C15_5 C 0.1244(9) 0.0009(9) 0.8756(14)
Cd5_4 Cd 0.20266(6) -0.0000 0.7500
Cd7_3 Cd 0.0000 0.20266(7) 0.7500
C5_5 C 0.0064(7) 0.8746(8) 0.8806(12)
H4_5 H 0.0372 0.8549 0.8917
H9_5 H 0.1462 0.9716 0.8867
Cd5_5 Cd 0.20266(6) 1.0000 0.7500
Cd8_3 Cd 0.0000 0.79734(7) 0.7500
Cd2_4 Cd 0.79734(6) -0.0000 0.7500
H3_5 H 0.8538 0.0284 0.8867
C16_5 C 0.9936(7) 0.1254(8) 0.8806(12)
H10_5 H 0.9628 0.1451 0.8917
S2_5 S 0.6525(2) 0.1526(2) 0.7456(4)
O5_5 O 0.7309(6) 0.0629(6) 0.7250(12)
O6_3 O 0.5629(5) 0.2303(6) 0.7230(10)
O7_3 O 0.5781(6) 0.2810(5) 0.8165(9)
O8_5 O 0.7818(6) 0.0777(6) 0.8165(9)
C17_5 C 0.7088(8) 0.1389(8) 0.7981(16)
C18_5 C 0.7150(10) 0.1775(10) 0.8456(15)
H11_5 H 0.7439 0.1777 0.8769
C19_5 C 0.6376(7) 0.2090(7) 0.7979(15)
C20_5 C 0.6767(10) 0.2166(10) 0.8462(17)
H12_5 H 0.6774 0.2457 0.8769
C21_5 C 0.7435(8) 0.0898(8) 0.7798(17)
C22_5 C 0.5914(8) 0.2426(7) 0.7810(15)
Cd6_2 Cd 0.5000 0.29734(7) 0.7500
Cd7_4 Cd 1.0000 0.20266(7) 0.7500
N11_5 N 0.8633(6) 0.0308(7) 0.6761(10)
Cd2_5 Cd 0.79734(6) 1.0000 0.7500
Cd3_2 Cd 0.5000 0.70266(7) 0.7500
S1_5 S 0.6525(2) 0.8474(2) 0.7544(4)
O1_5 O 0.7309(6) 0.9371(6) 0.7750(12)
O2_5 O 0.5629(5) 0.7697(6) 0.7770(10)
O3_5 O 0.5781(6) 0.7190(5) 0.6835(9)
O4_5 O 0.7818(6) 0.9223(6) 0.6835(9)
N1_3 N 0.8633(6) 0.9692(7) 0.8239(10)
N2_5 N 0.8818(6) 0.8828(6) 0.7412(8)
H1_5 H 0.9020 0.8546 0.7402
H2_5 H 0.8569 0.8871 0.7099
N4_3 N 0.9693(6) 0.8631(6) 0.8253(10)
C1_5 C 0.8897(8) 0.9234(7) 0.7958(10)
C2_5 C 0.9316(7) 0.9019(7) 0.8332(10)
C3_5 C 0.9416(7) 0.9436(7) 0.8892(9)
C4_5 C 0.8756(9) 0.9991(9) 0.8756(14)
C6_5 C 0.7088(8) 0.8611(8) 0.7019(16)
C7_5 C 0.7150(10) 0.8225(10) 0.6544(15)
H5_5 H 0.7439 0.8223 0.6231
C8_5 C 0.6376(7) 0.7910(7) 0.7021(15)
C9_5 C 0.6767(10) 0.7834(10) 0.6538(17)
H6_5 H 0.6774 0.7543 0.6231
C10_5 C 0.7435(8) 0.9102(8) 0.7202(17)
C11_5 C 0.5914(8) 0.7574(7) 0.7190(15)
Cd8_4 Cd 1.0000 0.79734(7) 0.7500
O9_3 O 0.4371(5) 0.7697(6) 0.7230(10)
O10_3 O 0.4219(6) 0.7190(5) 0.8165(9)
N13_3 N 0.5307(6) 0.6369(6) 0.8253(10)
N14_3 N 0.4693(6) 0.6369(6) 0.6747(10)
S1_6 S 0.3475(2) 0.1526(2) 0.7544(4)
O1_6 O 0.2691(6) 0.0629(6) 0.7750(12)
O2_6 O 0.4371(5) 0.2303(6) 0.7770(10)
O3_6 O 0.4219(6) 0.2810(5) 0.6835(9)
O4_6 O 0.2182(6) 0.0777(6) 0.6835(9)
C6_6 C 0.2912(8) 0.1389(8) 0.7019(16)
C7_6 C 0.2850(10) 0.1775(10) 0.6544(15)
H5_6 H 0.2561 0.1777 0.6231
C8_6 C 0.3624(7) 0.2090(7) 0.7021(15)
C9_6 C 0.3233(10) 0.2166(10) 0.6538(17)
H6_6 H 0.3226 0.2457 0.6231
C10_6 C 0.2565(8) 0.0898(8) 0.7202(17)
C11_6 C 0.4086(8) 0.2426(7) 0.7190(15)
N13_4 N 0.4693(6) 0.3631(6) 0.8253(10)
N14_4 N 0.5307(6) 0.3631(6) 0.6747(10)
S2_6 S 0.3475(2) 0.8474(2) 0.7456(4)
O5_6 O 0.2691(6) 0.9371(6) 0.7250(12)
O8_6 O 0.2182(6) 0.9223(6) 0.8165(9)
C17_6 C 0.2912(8) 0.8611(8) 0.7981(16)
C18_6 C 0.2850(10) 0.8225(10) 0.8456(15)
H11_6 H 0.2561 0.8223 0.8769
C19_6 C 0.3624(7) 0.7910(7) 0.7979(15)
C20_6 C 0.3233(10) 0.7834(10) 0.8462(17)
H12_6 H 0.3226 0.7543 0.8769
C21_6 C 0.2565(8) 0.9102(8) 0.7798(17)
C22_6 C 0.4086(8) 0.7574(7) 0.7810(15)
N11_6 N 0.1367(6) 0.9692(7) 0.6761(10)
C5_6 C 0.0064(7) 0.1254(8) 0.6194(12)
H4_6 H 0.0372 0.1451 0.6083
H9_6 H 0.1462 0.0284 0.6133
N7_6 N 0.1182(6) 0.8828(6) 0.7588(8)
H7_6 H 0.0980 0.8546 0.7598
H8_6 H 0.1431 0.8871 0.7901
N9_4 N 0.0307(6) 0.8631(6) 0.6747(10)
C12_6 C 0.1103(8) 0.9234(7) 0.7042(10)
C13_6 C 0.0684(7) 0.9019(7) 0.6668(10)
C14_6 C 0.0584(7) 0.9436(7) 0.6108(9)
C15_6 C 0.1244(9) 0.9991(9) 0.6244(14)
N2_6 N 0.8818(6) 0.1172(6) 0.7588(8)
H1_6 H 0.9020 0.1454 0.7598
H2_6 H 0.8569 0.1129 0.7901
N4_4 N 0.9693(6) 0.1369(6) 0.6747(10)
C1_6 C 0.8897(8) 0.0766(7) 0.7042(10)
C2_6 C 0.9316(7) 0.0981(7) 0.6668(10)
C3_6 C 0.9416(7) 0.0564(7) 0.6108(9)
C4_6 C 0.8756(9) 0.0009(9) 0.6244(14)
H3_6 H 0.8538 0.9716 0.6133
C16_6 C 0.9936(7) 0.8746(8) 0.6194(12)
H10_6 H 0.9628 0.8549 0.6083
Cd2_6 Cd 0.29734(6) 0.5000 0.7500
S1_7 S 0.1525(2) 0.3474(2) 0.7544(4)
O1_7 O 0.2309(6) 0.4371(6) 0.7750(12)
O2_7 O 0.0629(5) 0.2697(6) 0.7770(10)
O3_7 O 0.0781(6) 0.2190(5) 0.6835(9)
O4_7 O 0.2818(6) 0.4223(6) 0.6835(9)
N1_4 N 0.3633(6) 0.4692(7) 0.8239(10)
N2_7 N 0.3818(6) 0.3828(6) 0.7412(8)
H1_7 H 0.4020 0.3546 0.7402
H2_7 H 0.3569 0.3871 0.7099
C1_7 C 0.3897(8) 0.4234(7) 0.7958(10)
C2_7 C 0.4316(7) 0.4019(7) 0.8332(10)
C3_7 C 0.4416(7) 0.4436(7) 0.8892(9)
C4_7 C 0.3756(9) 0.4991(9) 0.8756(14)
H3_7 H 0.3538 0.5284 0.8867
C5_7 C 0.5064(7) 0.3746(8) 0.8806(12)
H4_7 H 0.5372 0.3549 0.8917
C6_7 C 0.2088(8) 0.3611(8) 0.7019(16)
C7_7 C 0.2150(10) 0.3225(10) 0.6544(15)
H5_7 H 0.2439 0.3223 0.6231
C8_7 C 0.1376(7) 0.2910(7) 0.7021(15)
C9_7 C 0.1767(10) 0.2834(10) 0.6538(17)
H6_7 H 0.1774 0.2543 0.6231
C10_7 C 0.2435(8) 0.4102(8) 0.7202(17)
C11_7 C 0.0914(8) 0.2574(7) 0.7190(15)
N6_4 N 0.6367(6) 0.5308(7) 0.8239(10)
N7_7 N 0.6182(6) 0.6172(6) 0.7412(8)
H7_7 H 0.5980 0.6454 0.7402
H8_7 H 0.6431 0.6129 0.7099
C12_7 C 0.6103(8) 0.5766(7) 0.7958(10)
C13_7 C 0.5684(7) 0.5981(7) 0.8332(10)
C14_7 C 0.5584(7) 0.5564(7) 0.8892(9)
C15_7 C 0.6244(9) 0.5009(9) 0.8756(14)
H9_7 H 0.6462 0.4716 0.8867
C16_7 C 0.4936(7) 0.6254(8) 0.8806(12)
H10_7 H 0.4628 0.6451 0.8917
S2_7 S 0.1525(2) 0.6526(2) 0.7456(4)
O5_7 O 0.2309(6) 0.5629(6) 0.7250(12)
O6_4 O 0.0629(5) 0.7303(6) 0.7230(10)
O7_4 O 0.0781(6) 0.7810(5) 0.8165(9)
O8_7 O 0.2818(6) 0.5777(6) 0.8165(9)
C17_7 C 0.2088(8) 0.6389(8) 0.7981(16)
C18_7 C 0.2150(10) 0.6775(10) 0.8456(15)
H11_7 H 0.2439 0.6777 0.8769
C19_7 C 0.1376(7) 0.7090(7) 0.7979(15)
C20_7 C 0.1767(10) 0.7166(10) 0.8462(17)
H12_7 H 0.1774 0.7457 0.8769
C21_7 C 0.2435(8) 0.5898(8) 0.7798(17)
C22_7 C 0.0914(8) 0.7426(7) 0.7810(15)
Cd5_6 Cd 0.70266(6) 0.5000 0.7500
N11_7 N 0.3633(6) 0.5308(7) 0.6761(10)
O9_4 O 0.9371(5) 0.2697(6) 0.7230(10)
O10_4 O 0.9219(6) 0.2190(5) 0.8165(9)
S1_8 S 0.8475(2) 0.6526(2) 0.7544(4)
O1_8 O 0.7691(6) 0.5629(6) 0.7750(12)
O2_8 O 0.9371(5) 0.7303(6) 0.7770(10)
O3_8 O 0.9219(6) 0.7810(5) 0.6835(9)
O4_8 O 0.7182(6) 0.5777(6) 0.6835(9)
C6_8 C 0.7912(8) 0.6389(8) 0.7019(16)
C7_8 C 0.7850(10) 0.6775(10) 0.6544(15)
H5_8 H 0.7561 0.6777 0.6231
C8_8 C 0.8624(7) 0.7090(7) 0.7021(15)
C9_8 C 0.8233(10) 0.7166(10) 0.6538(17)
H6_8 H 0.8226 0.7457 0.6231
C10_8 C 0.7565(8) 0.5898(8) 0.7202(17)
C11_8 C 0.9086(8) 0.7426(7) 0.7190(15)
S2_8 S 0.8475(2) 0.3474(2) 0.7456(4)
O5_8 O 0.7691(6) 0.4371(6) 0.7250(12)
O8_8 O 0.7182(6) 0.4223(6) 0.8165(9)
C17_8 C 0.7912(8) 0.3611(8) 0.7981(16)
C18_8 C 0.7850(10) 0.3225(10) 0.8456(15)
H11_8 H 0.7561 0.3223 0.8769
C19_8 C 0.8624(7) 0.2910(7) 0.7979(15)
C20_8 C 0.8233(10) 0.2834(10) 0.8462(17)
H12_8 H 0.8226 0.2543 0.8769
C21_8 C 0.7565(8) 0.4102(8) 0.7798(17)
C22_8 C 0.9086(8) 0.2574(7) 0.7810(15)
N11_8 N 0.6367(6) 0.4692(7) 0.6761(10)
N2_8 N 0.3818(6) 0.6172(6) 0.7588(8)
H1_8 H 0.4020 0.6454 0.7598
H2_8 H 0.3569 0.6129 0.7901
C1_8 C 0.3897(8) 0.5766(7) 0.7042(10)
C2_8 C 0.4316(7) 0.5981(7) 0.6668(10)
C3_8 C 0.4416(7) 0.5564(7) 0.6108(9)
C4_8 C 0.3756(9) 0.5009(9) 0.6244(14)
H3_8 H 0.3538 0.4716 0.6133
C5_8 C 0.5064(7) 0.6254(8) 0.6194(12)
H4_8 H 0.5372 0.6451 0.6083
N7_8 N 0.6182(6) 0.3828(6) 0.7588(8)
H7_8 H 0.5980 0.3546 0.7598
H8_8 H 0.6431 0.3871 0.7901
C12_8 C 0.6103(8) 0.4234(7) 0.7042(10)
C13_8 C 0.5684(7) 0.4019(7) 0.6668(10)
C14_8 C 0.5584(7) 0.4436(7) 0.6108(9)
C15_8 C 0.6244(9) 0.4991(9) 0.6244(14)
H9_8 H 0.6462 0.5284 0.6133
C16_8 C 0.4936(7) 0.3746(8) 0.6194(12)
H10_8 H 0.4628 0.3549 0.6083
loop_
_geom_bond_atom_site_label_1
_geom_bond_atom_site_label_2
_geom_bond_site_symmetry_1
_geom_bond_site_symmetry_2
Cd2 O1 1_555 1_555
Cd3 O2 1_555 1_555
S1 C6 1_555 1_555
O1 C10 1_555 1_555
O2 C11 1_555 1_555
O3 Cd3 1_555 1_555
O4 Cd2 1_555 1_555
N1 Cd2 1_555 1_555
N2 H1 1_555 1_555
H2 N2 1_555 1_555
N3 C3 1_555 1_555
N4 C2 1_555 1_555
C1 N1 1_555 1_555
C2 C1 1_555 1_555
C3 N5 1_555 1_555
C4 N1 1_555 1_555
C6 C7 1_555 1_555
C7 H5 1_555 1_555
C8 S1 1_555 1_555
C9 C7 1_555 1_555
H6 C9 1_555 1_555
C10 O4 1_555 1_555
C11 O3 1_555 1_555
Cd8 N4 1_555 1_555
O9 Cd3 1_555 1_555
O10 Cd3 1_555 1_555
N13 Cd3 1_555 1_555
N14 Cd3 1_555 1_555
N2 C1 1_555 1_555
N5 C4 1_555 1_555
C2 C3 1_555 1_555
C6 C10 1_555 1_555
C8 C9 1_555 1_555
C8 C11 1_555 1_555
Cd1 Cl1 1_555 1_555
H10 C16 1_555 1_555
S2 C17 1_555 1_555
O5 Cd2_2 1_555 1_555
O6 C22 1_555 1_555
O7 C22 1_555 1_555
O8 Cd2_2 1_555 1_555
C17 C18 1_555 1_555
C18 H11 1_555 1_555
C19 S2 1_555 1_555
C20 C18 1_555 1_555
H12 C20 1_555 1_555
C21 O5 1_555 1_555
C22 C19 1_555 1_555
Cd6 O6 1_555 1_555
N11 Cd2_2 1_555 1_555
O7 Cd6 1_555 1_555
O8 C21 1_555 1_555
C17 C21 1_555 1_555
C19 C20 1_555 1_555
Cd1_2 Cl1_2 1_555 1_555
H4 C5 1_555 1_555
N6 C12 1_555 1_555
N7 H7 1_555 1_555
H8 N7 1_555 1_555
N9 C13 1_555 1_555
N10 C14 1_555 1_555
C12 N7 1_555 1_555
C13 C12 1_555 1_555
C14 N8 1_555 1_555
C15 N6 1_555 1_555
Cd5_2 N6 1_555 1_555
Cd7_2 N9 1_555 1_555
N10 C15 1_555 1_555
C13 C14 1_555 1_555
Cd4 Cl1_3 1_555 1_555
S2_2 C17_2 1_555 1_555
O5_2 Cd5 1_555 1_555
O9 C22_2 1_555 1_555
O10 C22_2 1_555 1_555
O8_2 Cd5 1_555 1_555
C17_2 C18_2 1_555 1_555
C18_2 H11_2 1_555 1_555
C19_2 S2_2 1_555 1_555
C20_2 C18_2 1_555 1_555
H12_2 C20_2 1_555 1_555
C21_2 O5_2 1_555 1_555
C22_2 C19_2 1_555 1_555
N11_2 Cd5 1_555 1_555
O8_2 C21_2 1_555 1_555
C17_2 C21_2 1_555 1_555
C19_2 C20_2 1_555 1_555
Cd4_2 Cl1_4 1_555 1_555
Cd5_2 O1_2 1_555 1_555
Cd6 O2_2 1_555 1_555
S1_2 C6_2 1_555 1_555
O1_2 C10_2 1_555 1_555
O2_2 C11_2 1_555 1_555
O3_2 Cd6 1_555 1_555
O4_2 Cd5_2 1_555 1_555
C6_2 C7_2 1_555 1_555
C7_2 H5_2 1_555 1_555
C8_2 S1_2 1_555 1_555
C9_2 C7_2 1_555 1_555
H6_2 C9_2 1_555 1_555
C10_2 O4_2 1_555 1_555
C11_2 O3_2 1_555 1_555
N13_2 Cd6 1_555 1_555
N14_2 Cd6 1_555 1_555
C6_2 C10_2 1_555 1_555
C8_2 C9_2 1_555 1_555
C8_2 C11_2 1_555 1_555
Cd1_3 Cl1_5 1_555 1_555
H10_2 C16_2 1_555 1_555
N2_2 H1_2 1_555 1_555
H2_2 N2_2 1_555 1_555
N3_2 C3_2 1_555 1_555
N4_2 C2_2 1_555 1_555
C1_2 N11 1_555 1_555
C2_2 C1_2 1_555 1_555
C3_2 N5_2 1_555 1_555
C4_2 N11 1_555 1_555
Cd7 N4_2 1_555 1_555
N2_2 C1_2 1_555 1_555
N5_2 C4_2 1_555 1_555
C2_2 C3_2 1_555 1_555
N11_2 C12_2 1_555 1_555
N7_2 H7_2 1_555 1_555
H8_2 N7_2 1_555 1_555
N9_2 C13_2 1_555 1_555
N10_2 C14_2 1_555 1_555
C12_2 N7_2 1_555 1_555
C13_2 C12_2 1_555 1_555
C14_2 N8_2 1_555 1_555
C15_2 N11_2 1_555 1_555
Cd8_2 N9_2 1_555 1_555
N10_2 C15_2 1_555 1_555
C13_2 C14_2 1_555 1_555
H4_2 C5_2 1_555 1_555
Cd4_3 Cl1_6 1_555 1_555
O9_2 Cd7 1_555 1_555
O10_2 Cd7 1_555 1_555
Cd1_4 Cl1_7 1_555 1_555
Cd2_3 O1_3 1_555 1_555
Cd7_2 O2_3 1_555 1_555
S1_3 C6_3 1_555 1_555
O1_3 C10_3 1_555 1_555
O2_3 C11_3 1_555 1_555
O3_3 Cd7_2 1_555 1_555
O4_3 Cd2_3 1_555 1_555
N1_2 Cd2_3 1_555 1_555
N2_3 H1_3 1_555 1_555
H2_3 N2_3 1_555 1_555
N3_3 C3_3 1_555 1_555
N13_2 C2_3 1_555 1_555
N5_3 Cd1_4 1_555 1_555
C1_3 N1_2 1_555 1_555
C2_3 C1_3 1_555 1_555
C3_3 N5_3 1_555 1_555
C4_3 N1_2 1_555 1_555
H3_3 C4_3 1_555 1_555
C5_3 N3_3 1_555 1_555
H4_3 C5_3 1_555 1_555
C6_3 C7_3 1_555 1_555
C7_3 H5_3 1_555 1_555
C8_3 S1_3 1_555 1_555
C9_3 C7_3 1_555 1_555
H6_3 C9_3 1_555 1_555
C10_3 O4_3 1_555 1_555
C11_3 O3_3 1_555 1_555
N6_2 C12_3 1_555 1_555
N7_3 H7_3 1_555 1_555
H8_3 N7_3 1_555 1_555
N8_3 Cd1_4 1_555 1_555
N13 C13_3 1_555 1_555
N10_3 C14_3 1_555 1_555
C12_3 N7_3 1_555 1_555
C13_3 C12_3 1_555 1_555
C14_3 N8_3 1_555 1_555
C15_3 N6_2 1_555 1_555
H9_3 C15_3 1_555 1_555
C16_3 N8_3 1_555 1_555
H10_3 C16_3 1_555 1_555
S2_3 C17_3 1_555 1_555
O5_3 Cd2_3 1_555 1_555
O6_2 C22_3 1_555 1_555
O7_2 C22_3 1_555 1_555
O8_3 Cd2_3 1_555 1_555
C17_3 C18_3 1_555 1_555
C18_3 H11_3 1_555 1_555
C19_3 S2_3 1_555 1_555
C20_3 C18_3 1_555 1_555
H12_3 C20_3 1_555 1_555
C21_3 O5_3 1_555 1_555
C22_3 C19_3 1_555 1_555
Cd4_4 N3_3 1_555 1_555
Cd5_3 N6_2 1_555 1_555
Cd8_2 O6_2 1_555 1_555
N11_3 Cd2_3 1_555 1_555
N2_3 C1_3 1_555 1_555
N13_2 C5_3 1_555 1_555
N5_3 C4_3 1_555 1_555
C2_3 C3_3 1_555 1_555
C6_3 C10_3 1_555 1_555
C8_3 C9_3 1_555 1_555
C8_3 C11_3 1_555 1_555
N13 C16_3 1_555 1_555
N10_3 C15_3 1_555 1_555
N10_3 Cd4_4 1_555 1_555
C13_3 C14_3 1_555 1_555
O7_2 Cd8_2 1_555 1_555
O8_3 C21_3 1_555 1_555
C17_3 C21_3 1_555 1_555
C19_3 C20_3 1_555 1_555
Cd1_5 Cl1_8 1_555 1_555
N12_5 Cd1_5 1_555 1_555
N15_5 Cd1_5 1_555 1_555
Cd4_4 Cl1_9 1_555 1_555
Cd5_3 O1_4 1_555 1_555
Cd8 O2_4 1_555 1_555
S1_4 C6_4 1_555 1_555
O1_4 C10_4 1_555 1_555
O2_4 C11_4 1_555 1_555
O3_4 Cd8 1_555 1_555
O4_4 Cd5_3 1_555 1_555
C6_4 C7_4 1_555 1_555
C7_4 H5_4 1_555 1_555
C8_4 S1_4 1_555 1_555
C9_4 C7_4 1_555 1_555
H6_4 C9_4 1_555 1_555
C10_4 O4_4 1_555 1_555
C11_4 O3_4 1_555 1_555
S2_4 C17_4 1_555 1_555
O5_4 Cd5_3 1_555 1_555
O9_2 C22_4 1_555 1_555
O10_2 C22_4 1_555 1_555
O8_4 Cd5_3 1_555 1_555
C17_4 C18_4 1_555 1_555
C18_4 H11_4 1_555 1_555
C19_4 S2_4 1_555 1_555
C20_4 C18_4 1_555 1_555
H12_4 C20_4 1_555 1_555
C21_4 O5_4 1_555 1_555
C22_4 C19_4 1_555 1_555
N11_4 Cd5_3 1_555 1_555
C6_4 C10_4 1_555 1_555
C8_4 C9_4 1_555 1_555
C8_4 C11_4 1_555 1_555
O8_4 C21_4 1_555 1_555
C17_4 C21_4 1_555 1_555
C19_4 C20_4 1_555 1_555
Cd4_5 Cl1_10 1_555 1_555
N12_6 Cd4_5 1_555 1_555
N15_6 Cd4_5 1_555 1_555
Cd1_6 Cl1_11 1_555 1_555
N2_4 H1_4 1_555 1_555
H2_4 N2_4 1_555 1_555
N3_4 C3_4 1_555 1_555
N14 C2_4 1_555 1_555
N5_4 Cd1_6 1_555 1_555
C1_4 N11_3 1_555 1_555
C2_4 C1_4 1_555 1_555
C3_4 N5_4 1_555 1_555
C4_4 N11_3 1_555 1_555
H3_4 C4_4 1_555 1_555
C5_4 N3_4 1_555 1_555
H4_4 C5_4 1_555 1_555
N11_4 C12_4 1_555 1_555
N7_4 H7_4 1_555 1_555
H8_4 N7_4 1_555 1_555
N8_4 Cd1_6 1_555 1_555
N14_2 C13_4 1_555 1_555
N10_4 C14_4 1_555 1_555
C12_4 N7_4 1_555 1_555
C13_4 C12_4 1_555 1_555
C14_4 N8_4 1_555 1_555
C15_4 N11_4 1_555 1_555
H9_4 C15_4 1_555 1_555
C16_4 N8_4 1_555 1_555
H10_4 C16_4 1_555 1_555
Cd4_6 N3_4 1_555 1_555
N12_7 Cd1_6 1_555 1_555
N15_7 Cd1_6 1_555 1_555
N2_4 C1_4 1_555 1_555
N14 C5_4 1_555 1_555
N5_4 C4_4 1_555 1_555
C2_4 C3_4 1_555 1_555
N14_2 C16_4 1_555 1_555
N10_4 C15_4 1_555 1_555
N10_4 Cd4_6 1_555 1_555
C13_4 C14_4 1_555 1_555
Cd4_6 Cl1_12 1_555 1_555
N12_8 Cd4_6 1_555 1_555
N15_8 Cd4_6 1_555 1_555
N6_3 C12_5 1_555 1_555
N7_5 H7_5 1_555 1_555
H8_5 N7_5 1_555 1_555
N9_3 C13_5 1_555 1_555
N15 C14_5 1_555 1_555
C12_5 N7_5 1_555 1_555
C13_5 C12_5 1_555 1_555
C14_5 N12_2 1_555 1_555
C15_5 N6_3 1_555 1_555
Cd5_4 N6_3 1_555 1_555
Cd7_3 N9_3 1_555 1_555
N15 C15_5 1_555 1_555
C13_5 C14_5 1_555 1_555
H4_5 C5_5 1_555 1_555
H10_5 C16_5 1_555 1_555
S2_5 C17_5 1_555 1_555
O5_5 Cd2_4 1_555 1_555
O6_3 C22_5 1_555 1_555
O7_3 C22_5 1_555 1_555
O8_5 Cd2_4 1_555 1_555
C17_5 C18_5 1_555 1_555
C18_5 H11_5 1_555 1_555
C19_5 S2_5 1_555 1_555
C20_5 C18_5 1_555 1_555
H12_5 C20_5 1_555 1_555
C21_5 O5_5 1_555 1_555
C22_5 C19_5 1_555 1_555
Cd6_2 O6_3 1_555 1_555
N11_5 Cd2_4 1_555 1_555
O7_3 Cd6_2 1_555 1_555
O8_5 C21_5 1_555 1_555
C17_5 C21_5 1_555 1_555
C19_5 C20_5 1_555 1_555
Cd2_5 O1_5 1_555 1_555
Cd3_2 O2_5 1_555 1_555
S1_5 C6_5 1_555 1_555
O1_5 C10_5 1_555 1_555
O2_5 C11_5 1_555 1_555
O3_5 Cd3_2 1_555 1_555
O4_5 Cd2_5 1_555 1_555
N1_3 Cd2_5 1_555 1_555
N2_5 H1_5 1_555 1_555
H2_5 N2_5 1_555 1_555
N12 C3_5 1_555 1_555
N4_3 C2_5 1_555 1_555
C1_5 N1_3 1_555 1_555
C2_5 C1_5 1_555 1_555
C3_5 N15_2 1_555 1_555
C4_5 N1_3 1_555 1_555
C6_5 C7_5 1_555 1_555
C7_5 H5_5 1_555 1_555
C8_5 S1_5 1_555 1_555
C9_5 C7_5 1_555 1_555
H6_5 C9_5 1_555 1_555
C10_5 O4_5 1_555 1_555
C11_5 O3_5 1_555 1_555
Cd8_4 N4_3 1_555 1_555
O9_3 Cd3_2 1_555 1_555
O10_3 Cd3_2 1_555 1_555
N13_3 Cd3_2 1_555 1_555
N14_3 Cd3_2 1_555 1_555
N2_5 C1_5 1_555 1_555
N15_2 C4_5 1_555 1_555
C2_5 C3_5 1_555 1_555
C6_5 C10_5 1_555 1_555
C8_5 C9_5 1_555 1_555
C8_5 C11_5 1_555 1_555
Cd5_4 O1_6 1_555 1_555
Cd6_2 O2_6 1_555 1_555
S1_6 C6_6 1_555 1_555
O1_6 C10_6 1_555 1_555
O2_6 C11_6 1_555 1_555
O3_6 Cd6_2 1_555 1_555
O4_6 Cd5_4 1_555 1_555
C6_6 C7_6 1_555 1_555
C7_6 H5_6 1_555 1_555
C8_6 S1_6 1_555 1_555
C9_6 C7_6 1_555 1_555
H6_6 C9_6 1_555 1_555
C10_6 O4_6 1_555 1_555
C11_6 O3_6 1_555 1_555
N13_4 Cd6_2 1_555 1_555
N14_4 Cd6_2 1_555 1_555
C6_6 C10_6 1_555 1_555
C8_6 C9_6 1_555 1_555
C8_6 C11_6 1_555 1_555
S2_6 C17_6 1_555 1_555
O5_6 Cd5_5 1_555 1_555
O9_3 C22_6 1_555 1_555
O10_3 C22_6 1_555 1_555
O8_6 Cd5_5 1_555 1_555
C17_6 C18_6 1_555 1_555
C18_6 H11_6 1_555 1_555
C19_6 S2_6 1_555 1_555
C20_6 C18_6 1_555 1_555
H12_6 C20_6 1_555 1_555
C21_6 O5_6 1_555 1_555
C22_6 C19_6 1_555 1_555
N11_6 Cd5_5 1_555 1_555
O8_6 C21_6 1_555 1_555
C17_6 C21_6 1_555 1_555
C19_6 C20_6 1_555 1_555
H4_6 C5_6 1_555 1_555
N11_6 C12_6 1_555 1_555
N7_6 H7_6 1_555 1_555
H8_6 N7_6 1_555 1_555
N9_4 C13_6 1_555 1_555
N15_3 C14_6 1_555 1_555
C12_6 N7_6 1_555 1_555
C13_6 C12_6 1_555 1_555
C14_6 N12_4 1_555 1_555
C15_6 N11_6 1_555 1_555
Cd8_3 N9_4 1_555 1_555
N15_3 C15_6 1_555 1_555
C13_6 C14_6 1_555 1_555
N2_6 H1_6 1_555 1_555
H2_6 N2_6 1_555 1_555
N12_3 C3_6 1_555 1_555
N4_4 C2_6 1_555 1_555
C1_6 N11_5 1_555 1_555
C2_6 C1_6 1_555 1_555
C3_6 N15_4 1_555 1_555
C4_6 N11_5 1_555 1_555
Cd7_4 N4_4 1_555 1_555
N2_6 C1_6 1_555 1_555
N15_4 C4_6 1_555 1_555
C2_6 C3_6 1_555 1_555
H10_6 C16_6 1_555 1_555
Cd2_6 O1_7 1_555 1_555
Cd7_3 O2_7 1_555 1_555
S1_7 C6_7 1_555 1_555
O1_7 C10_7 1_555 1_555
O2_7 C11_7 1_555 1_555
O3_7 Cd7_3 1_555 1_555
O4_7 Cd2_6 1_555 1_555
N1_4 Cd2_6 1_555 1_555
N2_7 H1_7 1_555 1_555
H2_7 N2_7 1_555 1_555
N12_5 C3_7 1_555 1_555
N13_4 C2_7 1_555 1_555
C1_7 N1_4 1_555 1_555
C2_7 C1_7 1_555 1_555
C3_7 N15_6 1_555 1_555
C4_7 N1_4 1_555 1_555
H3_7 C4_7 1_555 1_555
C5_7 N12_5 1_555 1_555
H4_7 C5_7 1_555 1_555
C6_7 C7_7 1_555 1_555
C7_7 H5_7 1_555 1_555
C8_7 S1_7 1_555 1_555
C9_7 C7_7 1_555 1_555
H6_7 C9_7 1_555 1_555
C10_7 O4_7 1_555 1_555
C11_7 O3_7 1_555 1_555
N6_4 C12_7 1_555 1_555
N7_7 H7_7 1_555 1_555
H8_7 N7_7 1_555 1_555
N13_3 C13_7 1_555 1_555
N15_5 C14_7 1_555 1_555
C12_7 N7_7 1_555 1_555
C13_7 C12_7 1_555 1_555
C14_7 N12_6 1_555 1_555
C15_7 N6_4 1_555 1_555
H9_7 C15_7 1_555 1_555
C16_7 N12_6 1_555 1_555
H10_7 C16_7 1_555 1_555
S2_7 C17_7 1_555 1_555
O5_7 Cd2_6 1_555 1_555
O6_4 C22_7 1_555 1_555
O7_4 C22_7 1_555 1_555
O8_7 Cd2_6 1_555 1_555
C17_7 C18_7 1_555 1_555
C18_7 H11_7 1_555 1_555
C19_7 S2_7 1_555 1_555
C20_7 C18_7 1_555 1_555
H12_7 C20_7 1_555 1_555
C21_7 O5_7 1_555 1_555
C22_7 C19_7 1_555 1_555
Cd5_6 N6_4 1_555 1_555
Cd8_3 O6_4 1_555 1_555
N11_7 Cd2_6 1_555 1_555
N2_7 C1_7 1_555 1_555
N13_4 C5_7 1_555 1_555
N15_6 C4_7 1_555 1_555
C2_7 C3_7 1_555 1_555
C6_7 C10_7 1_555 1_555
C8_7 C9_7 1_555 1_555
C8_7 C11_7 1_555 1_555
N13_3 C16_7 1_555 1_555
N15_5 C15_7 1_555 1_555
C13_7 C14_7 1_555 1_555
O7_4 Cd8_3 1_555 1_555
O8_7 C21_7 1_555 1_555
C17_7 C21_7 1_555 1_555
C19_7 C20_7 1_555 1_555
O9_4 Cd7_4 1_555 1_555
O10_4 Cd7_4 1_555 1_555
Cd5_6 O1_8 1_555 1_555
Cd8_4 O2_8 1_555 1_555
S1_8 C6_8 1_555 1_555
O1_8 C10_8 1_555 1_555
O2_8 C11_8 1_555 1_555
O3_8 Cd8_4 1_555 1_555
O4_8 Cd5_6 1_555 1_555
C6_8 C7_8 1_555 1_555
C7_8 H5_8 1_555 1_555
C8_8 S1_8 1_555 1_555
C9_8 C7_8 1_555 1_555
H6_8 C9_8 1_555 1_555
C10_8 O4_8 1_555 1_555
C11_8 O3_8 1_555 1_555
S2_8 C17_8 1_555 1_555
O5_8 Cd5_6 1_555 1_555
O9_4 C22_8 1_555 1_555
O10_4 C22_8 1_555 1_555
O8_8 Cd5_6 1_555 1_555
C17_8 C18_8 1_555 1_555
C18_8 H11_8 1_555 1_555
C19_8 S2_8 1_555 1_555
C20_8 C18_8 1_555 1_555
H12_8 C20_8 1_555 1_555
C21_8 O5_8 1_555 1_555
C22_8 C19_8 1_555 1_555
N11_8 Cd5_6 1_555 1_555
C6_8 C10_8 1_555 1_555
C8_8 C9_8 1_555 1_555
C8_8 C11_8 1_555 1_555
O8_8 C21_8 1_555 1_555
C17_8 C21_8 1_555 1_555
C19_8 C20_8 1_555 1_555
N2_8 H1_8 1_555 1_555
H2_8 N2_8 1_555 1_555
N12_7 C3_8 1_555 1_555
N14_3 C2_8 1_555 1_555
C1_8 N11_7 1_555 1_555
C2_8 C1_8 1_555 1_555
C3_8 N15_8 1_555 1_555
C4_8 N11_7 1_555 1_555
H3_8 C4_8 1_555 1_555
C5_8 N12_7 1_555 1_555
H4_8 C5_8 1_555 1_555
N11_8 C12_8 1_555 1_555
N7_8 H7_8 1_555 1_555
H8_8 N7_8 1_555 1_555
N14_4 C13_8 1_555 1_555
N15_7 C14_8 1_555 1_555
C12_8 N7_8 1_555 1_555
C13_8 C12_8 1_555 1_555
C14_8 N12_8 1_555 1_555
C15_8 N11_8 1_555 1_555
H9_8 C15_8 1_555 1_555
C16_8 N12_8 1_555 1_555
H10_8 C16_8 1_555 1_555
N2_8 C1_8 1_555 1_555
N14_3 C5_8 1_555 1_555
N15_8 C4_8 1_555 1_555
C2_8 C3_8 1_555 1_555
N14_4 C16_8 1_555 1_555
N15_7 C15_8 1_555 1_555
C13_8 C14_8 1_555 1_555

#END
