
###############################################################################
#
# This file contains modified crystal structure data generated from the
# MOF subset of the Cambridge Structural Database (CSD) v543 
# hosted by the Cambridge Crystallographic Data Centre (CCDC).
#
# This work is licensed under the Creative Commons
# Attribution-NonCommercial-ShareAlike 4.0 International License.
# To view a copy of this license, visit
# http://creativecommons.org/licenses/by-nc-sa/4.0/
# or send a letter to
# Creative Commons, PO Box 1866, Mountain View, CA 94042, USA.
#
# CIF created using the CSD Python API on 29 September 2022
# The structure has been converted into the P1 space group
# The structure has a 3D framework
# The original CSD entry ELUBIZ is in the cubic crystal system
# The original CSD entry ELUBIZ is in a Sohncke space group
# The framework has been calculated to contain at least 10.0% void space
# The void calculation uses a probe of radius 1.32A, grid spacing 0.4
# The framework is charged, counterions have been retained in the structure
#
###############################################################################

data_ELUBIZ
_chemical_formula_moiety         '(C912 H672 Ag12 F96 N192 P16 4-)n'
_symmetry_cell_setting           triclinic
_symmetry_space_group_name_H-M   'P 1'
_symmetry_Int_Tables_number      1
_space_group_name_Hall           'P 1'
loop_
_symmetry_equiv_pos_site_id
_symmetry_equiv_pos_as_xyz
1 x,y,z
_cell_length_a                   28.6728(6)
_cell_length_b                   28.6728(6)
_cell_length_c                   28.6728(6)
_cell_angle_alpha                90
_cell_angle_beta                 90
_cell_angle_gamma                90
_cell_volume                     23572.8
loop_
_atom_site_label
_atom_site_type_symbol
_atom_site_fract_x
_atom_site_fract_y
_atom_site_fract_z
C1 C 0.0266(3) 0.6934(2) 0.6644(3)
N1 N 0.0238(2) 0.68693(18) 0.7488(2)
C2 C 0.1194(2) 0.6690(2) 0.6654(2)
H2 H 0.151438 0.660572 0.666177
C3 C 0.0981(2) 0.6765(2) 0.6226(2)
N3 N 0.2099(3) 0.6323(3) 0.3469(2)
C4 C 0.1346(3) 0.6583(3) 0.4718(2)
H3 H 0.112385 0.636409 0.483073
C5 C 0.0492(2) 0.68493(19) 0.7064(2)
C6 C 0.1458(3) 0.6968(2) 0.4984(2)
C7 C 0.0017(4) 0.6881(3) 0.8227(3)
H4 H 0.001415 0.690204 0.855713
C8 C 0.1788(3) 0.7291(3) 0.4800(3)
H5 H 0.186926 0.756170 0.497235
C9 C 0.0513(2) 0.6892(2) 0.6233(2)
H6 H 0.035834 0.695183 0.594566
C10 C 0.125000 0.6716(2) 0.5784(2)
C11 C 0.1556(3) 0.6514(3) 0.4285(2)
H7 H 0.147451 0.624858 0.410461
C12 C 0.0397(3) 0.6904(3) 0.7930(3)
H8 H 0.071352 0.693744 0.802150
C13 C 0.125000 0.7054(2) 0.5446(2)
N4 N 0.2082(4) 0.6745(3) 0.3667(3)
C14 C 0.1987(4) 0.7210(3) 0.4377(3)
H9 H 0.220814 0.742597 0.425740
C15 C 0.1873(3) 0.6819(3) 0.4119(3)
C16 C 0.2292(5) 0.6395(4) 0.3062(4)
H10 H 0.234030 0.615728 0.283628
C17 C 0.0953(3) 0.6736(2) 0.7074(2)
H11 H 0.110771 0.668785 0.736273
C19 C 0.2411(5) 0.6838(5) 0.2998(4)
H13 H 0.257413 0.696620 0.273979
C20 C 0.2254(5) 0.7067(5) 0.3377(4)
H14 H 0.226355 0.739398 0.342812
C21 C 0.2234(3) 0.5856(3) 0.5566(2)
H15 H 0.255389 0.586023 0.548013
N5 N 0.2262(2) 0.5012(2) 0.56307(18)
N6 N 0.2738(2) 0.5015(2) 0.5691(2)
C22 C 0.1306(2) 0.5846(2) 0.5810(2)
H16 H 0.098562 0.583823 0.589428
C23 C 0.1519(2) 0.6274(2) 0.5735(2)
N7 N 0.0401(3) 0.9031(2) 0.6177(3)
C24 C 0.1154(3) 0.7782(2) 0.5917(3)
H17 H 0.137615 0.766927 0.613591
C25 C 0.2008(2) 0.5436(2) 0.56507(19)
C26 C 0.1042(3) 0.7516(2) 0.5532(2)
C27 C 0.2483(4) 0.4273(3) 0.5619(3)
H18 H 0.248585 0.394287 0.559796
C28 C 0.0712(3) 0.7700(3) 0.5209(3)
H19 H 0.063074 0.752765 0.493830
C29 C 0.1987(2) 0.6267(2) 0.5608(2)
H20 H 0.214166 0.655434 0.554817
C30 C 0.0944(3) 0.8215(2) 0.5986(3)
H21 H 0.102549 0.839539 0.625142
C31 C 0.2103(3) 0.4570(3) 0.5596(3)
H22 H 0.178648 0.447850 0.556256
N8 N 0.0418(4) 0.8833(3) 0.5755(3)
C32 C 0.0513(4) 0.8123(3) 0.5290(3)
H23 H 0.029186 0.824260 0.507403
C33 C 0.0627(3) 0.8381(3) 0.5681(3)
C34 C 0.0208(5) 0.9438(4) 0.6105(4)
H24 H 0.015970 0.966372 0.634272
C35 C 0.1547(3) 0.5426(2) 0.5764(2)
H25 H 0.139229 0.513727 0.581215
C36 C 0.2842(3) 0.4560(3) 0.5679(3)
H26 H 0.315220 0.444941 0.571070
C37 C 0.0089(5) 0.9502(4) 0.5662(5)
C38 C 0.0246(5) 0.9123(4) 0.5433(5)
H28 H 0.023645 0.907188 0.510602
Ag2 Ag 0.19523(2) 0.55477(2) 0.375000
Ag3 Ag 0.05477(2) 0.875000 0.69523(2)
Ag4 Ag 0.30477(2) 0.55477(2) 0.625000
Ag1 Ag 0.94523(2) 0.625000 0.69523(2)
H1 H 0.994611 0.701987 0.663977
N2 N 0.9762(2) 0.6809(2) 0.7485(2)
C18 C 0.9658(3) 0.6821(3) 0.7940(3)
H12 H 0.934780 0.678930 0.805059
H27 H 0.992587 0.976021 0.553380
N9 N 0.9985(2) 0.5691(2) 0.7262(2)
N10 N 0.8677(3) 0.6531(2) 0.7099(3)
N11 N 0.9599(3) 0.5969(2) 0.6177(3)
Ag1_2 Ag 0.55477(2) 0.375000 0.19523(2)
C1_2 C 0.4734(3) 0.3066(2) 0.1644(3)
H1_2 H 0.505389 0.298013 0.163977
N1_2 N 0.4762(2) 0.31307(18) 0.2488(2)
N2_2 N 0.5238(2) 0.3191(2) 0.2485(2)
C2_2 C 0.3806(2) 0.3310(2) 0.1654(2)
H2_2 H 0.348562 0.339428 0.166177
C3_2 C 0.4019(2) 0.3235(2) 0.1226(2)
C5_2 C 0.4508(2) 0.31507(19) 0.2064(2)
C7_2 C 0.4983(4) 0.3119(3) 0.3227(3)
H4_2 H 0.498585 0.309796 0.355713
C9_2 C 0.4487(2) 0.3108(2) 0.1233(2)
H6_2 H 0.464166 0.304817 0.094566
C10_2 C 0.375000 0.3284(2) 0.0784(2)
C12_2 C 0.4603(3) 0.3096(3) 0.2930(3)
H8_2 H 0.428648 0.306256 0.302150
C13_2 C 0.375000 0.2946(2) 0.0446(2)
C17_2 C 0.4047(3) 0.3264(2) 0.2074(2)
H11_2 H 0.389229 0.331215 0.236273
C18_2 C 0.5342(3) 0.3179(3) 0.2940(3)
H12_2 H 0.565220 0.321070 0.305059
C21_2 C 0.2766(3) 0.4144(3) 0.0566(2)
H15_2 H 0.244611 0.413977 0.048013
N5_2 N 0.2738(2) 0.4988(2) 0.06307(18)
N6_2 N 0.2262(2) 0.4985(2) 0.0691(2)
C22_2 C 0.3694(2) 0.4154(2) 0.0810(2)
H16_2 H 0.401438 0.416177 0.089428
C23_2 C 0.3481(2) 0.3726(2) 0.0735(2)
N7_2 N 0.4599(3) 0.0969(2) 0.1177(3)
C24_2 C 0.3846(3) 0.2218(2) 0.0917(3)
H17_2 H 0.362385 0.233073 0.113591
C25_2 C 0.2992(2) 0.4564(2) 0.06507(19)
C26_2 C 0.3958(3) 0.2484(2) 0.0532(2)
C27_2 C 0.2517(4) 0.5727(3) 0.0619(3)
H18_2 H 0.251415 0.605713 0.059796
C28_2 C 0.4288(3) 0.2300(3) 0.0209(3)
C29_2 C 0.3013(2) 0.3733(2) 0.0608(2)
H20_2 H 0.285834 0.344566 0.054817
C30_2 C 0.4056(3) 0.1785(2) 0.0986(3)
H21_2 H 0.397451 0.160461 0.125142
C31_2 C 0.2897(3) 0.5430(3) 0.0596(3)
H22_2 H 0.321352 0.552150 0.056256
N8_2 N 0.4582(4) 0.1167(3) 0.0755(3)
C32_2 C 0.4487(4) 0.1877(3) 0.0290(3)
H23_2 H 0.470814 0.175740 0.007403
C33_2 C 0.4373(3) 0.1619(3) 0.0681(3)
C34_2 C 0.4792(5) 0.0562(4) 0.1105(4)
H24_2 H 0.484030 0.033628 0.134272
C35_2 C 0.3453(3) 0.4574(2) 0.0764(2)
H25_2 H 0.360771 0.486273 0.081215
C36_2 C 0.2158(3) 0.5440(3) 0.0679(3)
H26_2 H 0.184780 0.555059 0.071070
C37_2 C 0.4911(5) 0.0498(4) 0.0662(5)
H27_2 H 0.507413 0.023979 0.053380
C38_2 C 0.4754(5) 0.0877(4) 0.0433(5)
H28_2 H 0.476355 0.092812 0.010602
Ag3_2 Ag 0.44523(2) 0.125000 0.19523(2)
Ag4_2 Ag 0.19523(2) 0.44523(2) 0.125000
N9_2 N 0.5015(2) 0.4309(2) 0.2262(2)
N10_2 N 0.6323(3) 0.3469(2) 0.2099(3)
N11_2 N 0.5401(3) 0.4031(2) 0.1177(3)
N3_2 N 0.2901(3) 0.3677(3) 0.8469(2)
C4_2 C 0.3654(3) 0.3417(3) 0.9718(2)
H3_2 H 0.387615 0.363591 0.983073
C6_2 C 0.3542(3) 0.3032(2) 0.9984(2)
C8_2 C 0.3212(3) 0.2709(3) 0.9800(3)
H5_2 H 0.313074 0.243830 0.997235
C11_2 C 0.3444(3) 0.3486(3) 0.9285(2)
H7_2 H 0.352549 0.375142 0.910461
N4_2 N 0.2918(4) 0.3255(3) 0.8667(3)
C14_2 C 0.3013(4) 0.2790(3) 0.9377(3)
H9_2 H 0.279186 0.257403 0.925740
C15_2 C 0.3127(3) 0.3181(3) 0.9119(3)
C16_2 C 0.2708(5) 0.3605(4) 0.8062(4)
H10_2 H 0.265970 0.384272 0.783628
C19_2 C 0.2589(5) 0.3162(5) 0.7998(4)
H13_2 H 0.242587 0.303380 0.773979
C20_2 C 0.2746(5) 0.2933(5) 0.8377(4)
H14_2 H 0.273645 0.260602 0.842812
H19_2 H 0.436926 0.247235 0.993830
Ag2_2 Ag 0.30477(2) 0.44523(2) 0.875000
Ag1_3 Ag 0.05477(2) 0.125000 0.80477(2)
H1_3 H 0.005389 0.201987 0.836023
N2_3 N 0.0238(2) 0.1809(2) 0.7515(2)
C18_3 C 0.0342(3) 0.1821(3) 0.7060(3)
H12_3 H 0.065220 0.178930 0.694941
H27_3 H 0.007413 0.476021 0.946620
N9_3 N 0.0015(2) 0.0691(2) 0.7738(2)
N10_3 N 0.1323(3) 0.1531(2) 0.7901(3)
N11_3 N 0.0401(3) 0.0969(2) 0.8823(3)
N3_3 N 0.7901(3) 0.1323(3) 0.1531(2)
C4_3 C 0.8654(3) 0.1583(3) 0.0282(2)
H3_3 H 0.887615 0.136409 0.016927
C6_3 C 0.8542(3) 0.1968(2) 0.0016(2)
C8_3 C 0.8212(3) 0.2291(3) 0.0200(3)
H5_3 H 0.813074 0.256170 0.002765
C11_3 C 0.8444(3) 0.1514(3) 0.0715(2)
H7_3 H 0.852549 0.124858 0.089539
N4_3 N 0.7918(4) 0.1745(3) 0.1333(3)
C14_3 C 0.8013(4) 0.2210(3) 0.0623(3)
H9_3 H 0.779186 0.242597 0.074260
C15_3 C 0.8127(3) 0.1819(3) 0.0881(3)
C16_3 C 0.7708(5) 0.1395(4) 0.1938(4)
H10_3 H 0.765970 0.115728 0.216372
C19_3 C 0.7589(5) 0.1838(5) 0.2002(4)
H13_3 H 0.742587 0.196620 0.226021
C20_3 C 0.7746(5) 0.2067(5) 0.1623(4)
H14_3 H 0.773645 0.239398 0.157188
H19_3 H 0.936926 0.252765 0.006170
Ag2_3 Ag 0.80477(2) 0.05477(2) 0.125000
C1_3 C 0.9734(3) 0.1934(2) 0.8356(3)
N1_3 N 0.9762(2) 0.18693(18) 0.7512(2)
C2_3 C 0.8806(2) 0.1690(2) 0.8346(2)
H2_3 H 0.848562 0.160572 0.833823
C3_3 C 0.9019(2) 0.1765(2) 0.8774(2)
C5_3 C 0.9508(2) 0.18493(19) 0.7936(2)
C7_3 C 0.9983(4) 0.1881(3) 0.6773(3)
H4_3 H 0.998585 0.190204 0.644287
C9_3 C 0.9487(2) 0.1892(2) 0.8767(2)
H6_3 H 0.964166 0.195183 0.905434
C10_3 C 0.875000 0.1716(2) 0.9216(2)
C12_3 C 0.9603(3) 0.1904(3) 0.7070(3)
H8_3 H 0.928648 0.193744 0.697850
C13_3 C 0.875000 0.2054(2) 0.9554(2)
C17_3 C 0.9047(3) 0.1736(2) 0.7926(2)
H11_3 H 0.889229 0.168785 0.763727
C21_3 C 0.7766(3) 0.0856(3) 0.9434(2)
H15_3 H 0.744611 0.086023 0.951987
N5_3 N 0.7738(2) 0.0012(2) 0.93693(18)
N6_3 N 0.7262(2) 0.0015(2) 0.9309(2)
C22_3 C 0.8694(2) 0.0846(2) 0.9190(2)
H16_3 H 0.901438 0.083823 0.910572
C23_3 C 0.8481(2) 0.1274(2) 0.9265(2)
N7_3 N 0.9599(3) 0.4031(2) 0.8823(3)
C24_3 C 0.8846(3) 0.2782(2) 0.9083(3)
H17_3 H 0.862385 0.266927 0.886409
C25_3 C 0.7992(2) 0.0436(2) 0.93493(19)
C26_3 C 0.8958(3) 0.2516(2) 0.9468(2)
C28_3 C 0.9288(3) 0.2700(3) 0.9791(3)
C29_3 C 0.8013(2) 0.1267(2) 0.9392(2)
H20_3 H 0.785834 0.155434 0.945183
C30_3 C 0.9056(3) 0.3215(2) 0.9014(3)
H21_3 H 0.897451 0.339539 0.874858
N8_3 N 0.9582(4) 0.3833(3) 0.9245(3)
C32_3 C 0.9487(4) 0.3123(3) 0.9710(3)
H23_3 H 0.970814 0.324260 0.992597
C33_3 C 0.9373(3) 0.3381(3) 0.9319(3)
C34_3 C 0.9792(5) 0.4438(4) 0.8895(4)
H24_3 H 0.984030 0.466372 0.865728
C35_3 C 0.8453(3) 0.0426(2) 0.9236(2)
H25_3 H 0.860771 0.013727 0.918785
C37_3 C 0.9911(5) 0.4502(4) 0.9338(5)
C38_3 C 0.9754(5) 0.4123(4) 0.9567(5)
H28_3 H 0.976355 0.407188 0.989398
Ag3_3 Ag 0.94523(2) 0.375000 0.80477(2)
Ag4_3 Ag 0.69523(2) 0.05477(2) 0.875000
Ag1_4 Ag 0.44523(2) 0.875000 0.30477(2)
C1_4 C 0.5266(3) 0.8066(2) 0.3356(3)
H1_4 H 0.494611 0.798013 0.336023
N1_4 N 0.5238(2) 0.81307(18) 0.2512(2)
N2_4 N 0.4762(2) 0.8191(2) 0.2515(2)
C2_4 C 0.6194(2) 0.8310(2) 0.3346(2)
H2_4 H 0.651438 0.839428 0.333823
C3_4 C 0.5981(2) 0.8235(2) 0.3774(2)
N3_4 N 0.7099(3) 0.8677(3) 0.6531(2)
C4_4 C 0.6346(3) 0.8417(3) 0.5282(2)
H3_4 H 0.612385 0.863591 0.516927
C5_4 C 0.5492(2) 0.81507(19) 0.2936(2)
C6_4 C 0.6458(3) 0.8032(2) 0.5016(2)
C7_4 C 0.5017(4) 0.8119(3) 0.1773(3)
H4_4 H 0.501415 0.809796 0.144287
C8_4 C 0.6788(3) 0.7709(3) 0.5200(3)
H5_4 H 0.686926 0.743830 0.502765
C9_4 C 0.5513(2) 0.8108(2) 0.3767(2)
H6_4 H 0.535834 0.804817 0.405434
C10_4 C 0.625000 0.8284(2) 0.4216(2)
C11_4 C 0.6556(3) 0.8486(3) 0.5715(2)
H7_4 H 0.647451 0.875142 0.589539
C12_4 C 0.5397(3) 0.8096(3) 0.2070(3)
H8_4 H 0.571352 0.806256 0.197850
C13_4 C 0.625000 0.7946(2) 0.4554(2)
N4_4 N 0.7082(4) 0.8255(3) 0.6333(3)
C14_4 C 0.6987(4) 0.7790(3) 0.5623(3)
H9_4 H 0.720814 0.757403 0.574260
C15_4 C 0.6873(3) 0.8181(3) 0.5881(3)
C16_4 C 0.7292(5) 0.8605(4) 0.6938(4)
H10_4 H 0.734030 0.884272 0.716372
C17_4 C 0.5953(3) 0.8264(2) 0.2926(2)
H11_4 H 0.610771 0.831215 0.263727
C18_4 C 0.4658(3) 0.8179(3) 0.2060(3)
H12_4 H 0.434780 0.821070 0.194941
C19_4 C 0.7411(5) 0.8162(5) 0.7002(4)
H13_4 H 0.757413 0.803380 0.726021
C20_4 C 0.7254(5) 0.7933(5) 0.6623(4)
H14_4 H 0.726355 0.760602 0.657188
C21_4 C 0.7234(3) 0.9144(3) 0.4434(2)
H15_4 H 0.755389 0.913977 0.451987
N5_4 N 0.7262(2) 0.9988(2) 0.43693(18)
N6_4 N 0.7738(2) 0.9985(2) 0.4309(2)
C22_4 C 0.6306(2) 0.9154(2) 0.4190(2)
H16_4 H 0.598562 0.916177 0.410572
C23_4 C 0.6519(2) 0.8726(2) 0.4265(2)
N7_4 N 0.5401(3) 0.5969(2) 0.3823(3)
C24_4 C 0.6154(3) 0.7218(2) 0.4083(3)
H17_4 H 0.637615 0.733073 0.386409
C25_4 C 0.7008(2) 0.9564(2) 0.43493(19)
C26_4 C 0.6042(3) 0.7484(2) 0.4468(2)
C28_4 C 0.5712(3) 0.7300(3) 0.4791(3)
H19_4 H 0.563074 0.747235 0.506170
C29_4 C 0.6987(2) 0.8733(2) 0.4392(2)
H20_4 H 0.714166 0.844566 0.445183
C30_4 C 0.5944(3) 0.6785(2) 0.4014(3)
H21_4 H 0.602549 0.660461 0.374858
N8_4 N 0.5418(4) 0.6167(3) 0.4245(3)
C32_4 C 0.5513(4) 0.6877(3) 0.4710(3)
H23_4 H 0.529186 0.675740 0.492597
C33_4 C 0.5627(3) 0.6619(3) 0.4319(3)
C34_4 C 0.5208(5) 0.5562(4) 0.3895(4)
H24_4 H 0.515970 0.533628 0.365728
C35_4 C 0.6547(3) 0.9574(2) 0.4236(2)
H25_4 H 0.639229 0.986273 0.418785
C37_4 C 0.5089(5) 0.5498(4) 0.4338(5)
H27_4 H 0.492587 0.523979 0.446620
C38_4 C 0.5246(5) 0.5877(4) 0.4567(5)
H28_4 H 0.523645 0.592812 0.489398
Ag2_4 Ag 0.69523(2) 0.94523(2) 0.625000
Ag3_4 Ag 0.55477(2) 0.625000 0.30477(2)
Ag4_4 Ag 0.80477(2) 0.94523(2) 0.375000
N9_4 N 0.4985(2) 0.9309(2) 0.2738(2)
N10_4 N 0.3677(3) 0.8469(2) 0.2901(3)
N11_4 N 0.4599(3) 0.9031(2) 0.3823(3)
C1_5 C 0.6644(3) 0.0266(3) 0.6934(2)
N1_5 N 0.7488(2) 0.0238(2) 0.68693(18)
C2_5 C 0.6654(2) 0.1194(2) 0.6690(2)
H2_5 H 0.666177 0.151438 0.660572
C3_5 C 0.6226(2) 0.0981(2) 0.6765(2)
N3_5 N 0.3469(2) 0.2099(3) 0.6323(3)
C4_5 C 0.4718(2) 0.1346(3) 0.6583(3)
H3_5 H 0.483073 0.112385 0.636409
C5_5 C 0.7064(2) 0.0492(2) 0.68493(19)
C6_5 C 0.4984(2) 0.1458(3) 0.6968(2)
C7_5 C 0.8227(3) 0.0017(4) 0.6881(3)
H4_5 H 0.855713 0.001415 0.690204
C8_5 C 0.4800(3) 0.1788(3) 0.7291(3)
H5_5 H 0.497235 0.186926 0.756170
C9_5 C 0.6233(2) 0.0513(2) 0.6892(2)
H6_5 H 0.594566 0.035834 0.695183
C10_5 C 0.5784(2) 0.125000 0.6716(2)
C11_5 C 0.4285(2) 0.1556(3) 0.6514(3)
H7_5 H 0.410461 0.147451 0.624858
C12_5 C 0.7930(3) 0.0397(3) 0.6904(3)
H8_5 H 0.802150 0.071352 0.693744
C13_5 C 0.5446(2) 0.125000 0.7054(2)
N4_5 N 0.3667(3) 0.2082(4) 0.6745(3)
C14_5 C 0.4377(3) 0.1987(4) 0.7210(3)
H9_5 H 0.425740 0.220814 0.742597
C15_5 C 0.4119(3) 0.1873(3) 0.6819(3)
C16_5 C 0.3062(4) 0.2292(5) 0.6395(4)
H10_5 H 0.283628 0.234030 0.615728
C17_5 C 0.7074(2) 0.0953(3) 0.6736(2)
H11_5 H 0.736273 0.110771 0.668785
C19_5 C 0.2998(4) 0.2411(5) 0.6838(5)
H13_5 H 0.273979 0.257413 0.696620
C20_5 C 0.3377(4) 0.2254(5) 0.7067(5)
H14_5 H 0.342812 0.226355 0.739398
C21_5 C 0.5566(2) 0.2234(3) 0.5856(3)
H15_5 H 0.548013 0.255389 0.586023
N5_5 N 0.56307(18) 0.2262(2) 0.5012(2)
N6_5 N 0.5691(2) 0.2738(2) 0.5015(2)
C22_5 C 0.5810(2) 0.1306(2) 0.5846(2)
H16_5 H 0.589428 0.098562 0.583823
C23_5 C 0.5735(2) 0.1519(2) 0.6274(2)
N7_5 N 0.6177(3) 0.0401(3) 0.9031(2)
C24_5 C 0.5917(3) 0.1154(3) 0.7782(2)
H17_5 H 0.613591 0.137615 0.766927
C25_5 C 0.56507(19) 0.2008(2) 0.5436(2)
C26_5 C 0.5532(2) 0.1042(3) 0.7516(2)
C27_3 C 0.5619(3) 0.2483(4) 0.4273(3)
H18_3 H 0.559796 0.248585 0.394287
C28_5 C 0.5209(3) 0.0712(3) 0.7700(3)
H19_5 H 0.493830 0.063074 0.752765
C29_5 C 0.5608(2) 0.1987(2) 0.6267(2)
H20_5 H 0.554817 0.214166 0.655434
C30_5 C 0.5986(3) 0.0944(3) 0.8215(2)
H21_5 H 0.625142 0.102549 0.839539
C31_3 C 0.5596(3) 0.2103(3) 0.4570(3)
H22_3 H 0.556256 0.178648 0.447850
N8_5 N 0.5755(3) 0.0418(4) 0.8833(3)
C32_5 C 0.5290(3) 0.0513(4) 0.8123(3)
H23_5 H 0.507403 0.029186 0.824260
C33_5 C 0.5681(3) 0.0627(3) 0.8381(3)
C34_5 C 0.6105(4) 0.0208(5) 0.9438(4)
H24_5 H 0.634272 0.015970 0.966372
C35_5 C 0.5764(2) 0.1547(3) 0.5426(2)
H25_5 H 0.581215 0.139229 0.513727
C36_3 C 0.5679(3) 0.2842(3) 0.4560(3)
H26_3 H 0.571070 0.315220 0.444941
C37_5 C 0.5662(5) 0.0089(5) 0.9502(4)
C38_5 C 0.5433(5) 0.0246(5) 0.9123(4)
H28_5 H 0.510602 0.023645 0.907188
Ag2_5 Ag 0.375000 0.19523(2) 0.55477(2)
Ag4_5 Ag 0.625000 0.30477(2) 0.55477(2)
H1_5 H 0.663977 0.994611 0.701987
N2_5 N 0.7485(2) 0.9762(2) 0.6809(2)
C18_5 C 0.7940(3) 0.9658(3) 0.6821(3)
H12_5 H 0.805059 0.934780 0.678930
H27_5 H 0.553380 0.992587 0.976021
N9_5 N 0.7262(2) 0.9985(2) 0.5691(2)
N11_5 N 0.6177(3) 0.9599(3) 0.5969(2)
C1_6 C 0.1644(3) 0.4734(3) 0.3066(2)
H1_6 H 0.163977 0.505389 0.298013
N1_6 N 0.2488(2) 0.4762(2) 0.31307(18)
N2_6 N 0.2485(2) 0.5238(2) 0.3191(2)
C2_6 C 0.1654(2) 0.3806(2) 0.3310(2)
H2_6 H 0.166177 0.348562 0.339428
C3_6 C 0.1226(2) 0.4019(2) 0.3235(2)
C5_6 C 0.2064(2) 0.4508(2) 0.31507(19)
C7_6 C 0.3227(3) 0.4983(4) 0.3119(3)
H4_6 H 0.355713 0.498585 0.309796
C9_6 C 0.1233(2) 0.4487(2) 0.3108(2)
H6_6 H 0.094566 0.464166 0.304817
C10_6 C 0.0784(2) 0.375000 0.3284(2)
C12_6 C 0.2930(3) 0.4603(3) 0.3096(3)
H8_6 H 0.302150 0.428648 0.306256
C13_6 C 0.0446(2) 0.375000 0.2946(2)
C17_6 C 0.2074(2) 0.4047(3) 0.3264(2)
H11_6 H 0.236273 0.389229 0.331215
C18_6 C 0.2940(3) 0.5342(3) 0.3179(3)
H12_6 H 0.305059 0.565220 0.321070
C21_6 C 0.0566(2) 0.2766(3) 0.4144(3)
H15_6 H 0.048013 0.244611 0.413977
N5_6 N 0.06307(18) 0.2738(2) 0.4988(2)
N6_6 N 0.0691(2) 0.2262(2) 0.4985(2)
C22_6 C 0.0810(2) 0.3694(2) 0.4154(2)
H16_6 H 0.089428 0.401438 0.416177
C23_6 C 0.0735(2) 0.3481(2) 0.3726(2)
N7_6 N 0.1177(3) 0.4599(3) 0.0969(2)
C24_6 C 0.0917(3) 0.3846(3) 0.2218(2)
H17_6 H 0.113591 0.362385 0.233073
C25_6 C 0.06507(19) 0.2992(2) 0.4564(2)
C26_6 C 0.0532(2) 0.3958(3) 0.2484(2)
C27_4 C 0.0619(3) 0.2517(4) 0.5727(3)
H18_4 H 0.059796 0.251415 0.605713
C28_6 C 0.0209(3) 0.4288(3) 0.2300(3)
C29_6 C 0.0608(2) 0.3013(2) 0.3733(2)
H20_6 H 0.054817 0.285834 0.344566
C30_6 C 0.0986(3) 0.4056(3) 0.1785(2)
H21_6 H 0.125142 0.397451 0.160461
C31_4 C 0.0596(3) 0.2897(3) 0.5430(3)
H22_4 H 0.056256 0.321352 0.552150
N8_6 N 0.0755(3) 0.4582(4) 0.1167(3)
C32_6 C 0.0290(3) 0.4487(4) 0.1877(3)
H23_6 H 0.007403 0.470814 0.175740
C33_6 C 0.0681(3) 0.4373(3) 0.1619(3)
C34_6 C 0.1105(4) 0.4792(5) 0.0562(4)
H24_6 H 0.134272 0.484030 0.033628
C35_6 C 0.0764(2) 0.3453(3) 0.4574(2)
H25_6 H 0.081215 0.360771 0.486273
C36_4 C 0.0679(3) 0.2158(3) 0.5440(3)
H26_4 H 0.071070 0.184780 0.555059
C37_6 C 0.0662(5) 0.4911(5) 0.0498(4)
H27_6 H 0.053380 0.507413 0.023979
C38_6 C 0.0433(5) 0.4754(5) 0.0877(4)
H28_6 H 0.010602 0.476355 0.092812
Ag4_6 Ag 0.125000 0.19523(2) 0.44523(2)
N9_6 N 0.2262(2) 0.5015(2) 0.4309(2)
N11_6 N 0.1177(3) 0.5401(3) 0.4031(2)
N3_6 N 0.8469(2) 0.2901(3) 0.3677(3)
C4_6 C 0.9718(2) 0.3654(3) 0.3417(3)
H3_6 H 0.983073 0.387615 0.363591
C6_6 C 0.9984(2) 0.3542(3) 0.3032(2)
C8_6 C 0.9800(3) 0.3212(3) 0.2709(3)
H5_6 H 0.997235 0.313074 0.243830
C11_6 C 0.9285(2) 0.3444(3) 0.3486(3)
H7_6 H 0.910461 0.352549 0.375142
N4_6 N 0.8667(3) 0.2918(4) 0.3255(3)
C14_6 C 0.9377(3) 0.3013(4) 0.2790(3)
H9_6 H 0.925740 0.279186 0.257403
C15_6 C 0.9119(3) 0.3127(3) 0.3181(3)
C16_6 C 0.8062(4) 0.2708(5) 0.3605(4)
H10_6 H 0.783628 0.265970 0.384272
C19_6 C 0.7998(4) 0.2589(5) 0.3162(5)
H13_6 H 0.773979 0.242587 0.303380
C20_6 C 0.8377(4) 0.2746(5) 0.2933(5)
H14_6 H 0.842812 0.273645 0.260602
H19_6 H 0.993830 0.436926 0.247235
Ag2_6 Ag 0.875000 0.30477(2) 0.44523(2)
N3_7 N 0.1531(2) 0.7901(3) 0.1323(3)
C4_7 C 0.0282(2) 0.8654(3) 0.1583(3)
H3_7 H 0.016927 0.887615 0.136409
C6_7 C 0.0016(2) 0.8542(3) 0.1968(2)
C8_7 C 0.0200(3) 0.8212(3) 0.2291(3)
H5_7 H 0.002765 0.813074 0.256170
C11_7 C 0.0715(2) 0.8444(3) 0.1514(3)
H7_7 H 0.089539 0.852549 0.124858
N4_7 N 0.1333(3) 0.7918(4) 0.1745(3)
C14_7 C 0.0623(3) 0.8013(4) 0.2210(3)
H9_7 H 0.074260 0.779186 0.242597
C15_7 C 0.0881(3) 0.8127(3) 0.1819(3)
C16_7 C 0.1938(4) 0.7708(5) 0.1395(4)
H10_7 H 0.216372 0.765970 0.115728
C19_7 C 0.2002(4) 0.7589(5) 0.1838(5)
H13_7 H 0.226021 0.742587 0.196620
C20_7 C 0.1623(4) 0.7746(5) 0.2067(5)
H14_7 H 0.157188 0.773645 0.239398
H19_7 H 0.006170 0.936926 0.252765
Ag2_7 Ag 0.125000 0.80477(2) 0.05477(2)
H1_7 H 0.836023 0.005389 0.201987
N2_7 N 0.7515(2) 0.0238(2) 0.1809(2)
C18_7 C 0.7060(3) 0.0342(3) 0.1821(3)
H12_7 H 0.694941 0.065220 0.178930
H27_7 H 0.946620 0.007413 0.476021
N9_7 N 0.7738(2) 0.0015(2) 0.0691(2)
N11_7 N 0.8823(3) 0.0401(3) 0.0969(2)
C1_7 C 0.8356(3) 0.9734(3) 0.1934(2)
N1_7 N 0.7512(2) 0.9762(2) 0.18693(18)
C2_7 C 0.8346(2) 0.8806(2) 0.1690(2)
H2_7 H 0.833823 0.848562 0.160572
C3_7 C 0.8774(2) 0.9019(2) 0.1765(2)
C5_7 C 0.7936(2) 0.9508(2) 0.18493(19)
C7_7 C 0.6773(3) 0.9983(4) 0.1881(3)
H4_7 H 0.644287 0.998585 0.190204
C9_7 C 0.8767(2) 0.9487(2) 0.1892(2)
H6_7 H 0.905434 0.964166 0.195183
C10_7 C 0.9216(2) 0.875000 0.1716(2)
C12_7 C 0.7070(3) 0.9603(3) 0.1904(3)
H8_7 H 0.697850 0.928648 0.193744
C13_7 C 0.9554(2) 0.875000 0.2054(2)
C17_7 C 0.7926(2) 0.9047(3) 0.1736(2)
H11_7 H 0.763727 0.889229 0.168785
C21_7 C 0.9434(2) 0.7766(3) 0.0856(3)
H15_7 H 0.951987 0.744611 0.086023
N5_7 N 0.93693(18) 0.7738(2) 0.0012(2)
N6_7 N 0.9309(2) 0.7262(2) 0.0015(2)
C22_7 C 0.9190(2) 0.8694(2) 0.0846(2)
H16_7 H 0.910572 0.901438 0.083823
C23_7 C 0.9265(2) 0.8481(2) 0.1274(2)
N7_7 N 0.8823(3) 0.9599(3) 0.4031(2)
C24_7 C 0.9083(3) 0.8846(3) 0.2782(2)
H17_7 H 0.886409 0.862385 0.266927
C25_7 C 0.93493(19) 0.7992(2) 0.0436(2)
C26_7 C 0.9468(2) 0.8958(3) 0.2516(2)
C28_7 C 0.9791(3) 0.9288(3) 0.2700(3)
C29_7 C 0.9392(2) 0.8013(2) 0.1267(2)
H20_7 H 0.945183 0.785834 0.155434
C30_7 C 0.9014(3) 0.9056(3) 0.3215(2)
H21_7 H 0.874858 0.897451 0.339539
N8_7 N 0.9245(3) 0.9582(4) 0.3833(3)
C32_7 C 0.9710(3) 0.9487(4) 0.3123(3)
H23_7 H 0.992597 0.970814 0.324260
C33_7 C 0.9319(3) 0.9373(3) 0.3381(3)
C34_7 C 0.8895(4) 0.9792(5) 0.4438(4)
H24_7 H 0.865728 0.984030 0.466372
C35_7 C 0.9236(2) 0.8453(3) 0.0426(2)
H25_7 H 0.918785 0.860771 0.013727
C37_7 C 0.9338(5) 0.9911(5) 0.4502(4)
C38_7 C 0.9567(5) 0.9754(5) 0.4123(4)
H28_7 H 0.989398 0.976355 0.407188
Ag4_7 Ag 0.875000 0.69523(2) 0.05477(2)
C1_8 C 0.3356(3) 0.5266(3) 0.8066(2)
H1_8 H 0.336023 0.494611 0.798013
N1_8 N 0.2512(2) 0.5238(2) 0.81307(18)
N2_8 N 0.2515(2) 0.4762(2) 0.8191(2)
C2_8 C 0.3346(2) 0.6194(2) 0.8310(2)
H2_8 H 0.333823 0.651438 0.839428
C3_8 C 0.3774(2) 0.5981(2) 0.8235(2)
N3_8 N 0.6531(2) 0.7099(3) 0.8677(3)
C4_8 C 0.5282(2) 0.6346(3) 0.8417(3)
H3_8 H 0.516927 0.612385 0.863591
C5_8 C 0.2936(2) 0.5492(2) 0.81507(19)
C6_8 C 0.5016(2) 0.6458(3) 0.8032(2)
C7_8 C 0.1773(3) 0.5017(4) 0.8119(3)
H4_8 H 0.144287 0.501415 0.809796
C8_8 C 0.5200(3) 0.6788(3) 0.7709(3)
H5_8 H 0.502765 0.686926 0.743830
C9_8 C 0.3767(2) 0.5513(2) 0.8108(2)
H6_8 H 0.405434 0.535834 0.804817
C10_8 C 0.4216(2) 0.625000 0.8284(2)
C11_8 C 0.5715(2) 0.6556(3) 0.8486(3)
H7_8 H 0.589539 0.647451 0.875142
C12_8 C 0.2070(3) 0.5397(3) 0.8096(3)
H8_8 H 0.197850 0.571352 0.806256
C13_8 C 0.4554(2) 0.625000 0.7946(2)
N4_8 N 0.6333(3) 0.7082(4) 0.8255(3)
C14_8 C 0.5623(3) 0.6987(4) 0.7790(3)
H9_8 H 0.574260 0.720814 0.757403
C15_8 C 0.5881(3) 0.6873(3) 0.8181(3)
C16_8 C 0.6938(4) 0.7292(5) 0.8605(4)
H10_8 H 0.716372 0.734030 0.884272
C17_8 C 0.2926(2) 0.5953(3) 0.8264(2)
H11_8 H 0.263727 0.610771 0.831215
C18_8 C 0.2060(3) 0.4658(3) 0.8179(3)
H12_8 H 0.194941 0.434780 0.821070
C19_8 C 0.7002(4) 0.7411(5) 0.8162(5)
H13_8 H 0.726021 0.757413 0.803380
C20_8 C 0.6623(4) 0.7254(5) 0.7933(5)
H14_8 H 0.657188 0.726355 0.760602
C21_8 C 0.4434(2) 0.7234(3) 0.9144(3)
H15_8 H 0.451987 0.755389 0.913977
N5_8 N 0.43693(18) 0.7262(2) 0.9988(2)
N6_8 N 0.4309(2) 0.7738(2) 0.9985(2)
C22_8 C 0.4190(2) 0.6306(2) 0.9154(2)
H16_8 H 0.410572 0.598562 0.916177
C23_8 C 0.4265(2) 0.6519(2) 0.8726(2)
N7_8 N 0.3823(3) 0.5401(3) 0.5969(2)
C24_8 C 0.4083(3) 0.6154(3) 0.7218(2)
H17_8 H 0.386409 0.637615 0.733073
C25_8 C 0.43493(19) 0.7008(2) 0.9564(2)
C26_8 C 0.4468(2) 0.6042(3) 0.7484(2)
C28_8 C 0.4791(3) 0.5712(3) 0.7300(3)
H19_8 H 0.506170 0.563074 0.747235
C29_8 C 0.4392(2) 0.6987(2) 0.8733(2)
H20_8 H 0.445183 0.714166 0.844566
C30_8 C 0.4014(3) 0.5944(3) 0.6785(2)
H21_8 H 0.374858 0.602549 0.660461
N8_8 N 0.4245(3) 0.5418(4) 0.6167(3)
C32_8 C 0.4710(3) 0.5513(4) 0.6877(3)
H23_8 H 0.492597 0.529186 0.675740
C33_8 C 0.4319(3) 0.5627(3) 0.6619(3)
C34_8 C 0.3895(4) 0.5208(5) 0.5562(4)
H24_8 H 0.365728 0.515970 0.533628
C35_8 C 0.4236(2) 0.6547(3) 0.9574(2)
H25_8 H 0.418785 0.639229 0.986273
C37_8 C 0.4338(5) 0.5089(5) 0.5498(4)
H27_8 H 0.446620 0.492587 0.523979
C38_8 C 0.4567(5) 0.5246(5) 0.5877(4)
H28_8 H 0.489398 0.523645 0.592812
Ag2_8 Ag 0.625000 0.69523(2) 0.94523(2)
Ag4_8 Ag 0.375000 0.80477(2) 0.94523(2)
N9_8 N 0.2738(2) 0.4985(2) 0.9309(2)
N11_8 N 0.3823(3) 0.4599(3) 0.9031(2)
C1_9 C 0.6934(2) 0.6644(3) 0.0266(3)
N1_9 N 0.68693(18) 0.7488(2) 0.0238(2)
C2_9 C 0.6690(2) 0.6654(2) 0.1194(2)
H2_9 H 0.660572 0.666177 0.151438
C3_9 C 0.6765(2) 0.6226(2) 0.0981(2)
C4_9 C 0.6583(3) 0.4718(2) 0.1346(3)
H3_9 H 0.636409 0.483073 0.112385
C5_9 C 0.68493(19) 0.7064(2) 0.0492(2)
C6_9 C 0.6968(2) 0.4984(2) 0.1458(3)
C7_9 C 0.6881(3) 0.8227(3) 0.0017(4)
H4_9 H 0.690204 0.855713 0.001415
C8_9 C 0.7291(3) 0.4800(3) 0.1788(3)
H5_9 H 0.756170 0.497235 0.186926
C9_9 C 0.6892(2) 0.6233(2) 0.0513(2)
H6_9 H 0.695183 0.594566 0.035834
C10_9 C 0.6716(2) 0.5784(2) 0.125000
C11_9 C 0.6514(3) 0.4285(2) 0.1556(3)
H7_9 H 0.624858 0.410461 0.147451
C12_9 C 0.6904(3) 0.7930(3) 0.0397(3)
H8_9 H 0.693744 0.802150 0.071352
C13_9 C 0.7054(2) 0.5446(2) 0.125000
N4_9 N 0.6745(3) 0.3667(3) 0.2082(4)
C14_9 C 0.7210(3) 0.4377(3) 0.1987(4)
H9_9 H 0.742597 0.425740 0.220814
C15_9 C 0.6819(3) 0.4119(3) 0.1873(3)
C16_9 C 0.6395(4) 0.3062(4) 0.2292(5)
H10_9 H 0.615728 0.283628 0.234030
C17_9 C 0.6736(2) 0.7074(2) 0.0953(3)
H11_9 H 0.668785 0.736273 0.110771
C19_9 C 0.6838(5) 0.2998(4) 0.2411(5)
H13_9 H 0.696620 0.273979 0.257413
C20_9 C 0.7067(5) 0.3377(4) 0.2254(5)
H14_9 H 0.739398 0.342812 0.226355
C21_9 C 0.5856(3) 0.5566(2) 0.2234(3)
H15_9 H 0.586023 0.548013 0.255389
N5_9 N 0.5012(2) 0.56307(18) 0.2262(2)
N6_9 N 0.5015(2) 0.5691(2) 0.2738(2)
C22_9 C 0.5846(2) 0.5810(2) 0.1306(2)
H16_9 H 0.583823 0.589428 0.098562
C23_9 C 0.6274(2) 0.5735(2) 0.1519(2)
N7_9 N 0.9031(2) 0.6177(3) 0.0401(3)
C24_9 C 0.7782(2) 0.5917(3) 0.1154(3)
H17_9 H 0.766927 0.613591 0.137615
C25_9 C 0.5436(2) 0.56507(19) 0.2008(2)
C26_9 C 0.7516(2) 0.5532(2) 0.1042(3)
C27_5 C 0.4273(3) 0.5619(3) 0.2483(4)
H18_5 H 0.394287 0.559796 0.248585
C28_9 C 0.7700(3) 0.5209(3) 0.0712(3)
H19_9 H 0.752765 0.493830 0.063074
C29_9 C 0.6267(2) 0.5608(2) 0.1987(2)
H20_9 H 0.655434 0.554817 0.214166
C30_9 C 0.8215(2) 0.5986(3) 0.0944(3)
H21_9 H 0.839539 0.625142 0.102549
C31_5 C 0.4570(3) 0.5596(3) 0.2103(3)
H22_5 H 0.447850 0.556256 0.178648
N8_9 N 0.8833(3) 0.5755(3) 0.0418(4)
C32_9 C 0.8123(3) 0.5290(3) 0.0513(4)
H23_9 H 0.824260 0.507403 0.029186
C33_9 C 0.8381(3) 0.5681(3) 0.0627(3)
C34_9 C 0.9438(4) 0.6105(4) 0.0208(5)
H24_9 H 0.966372 0.634272 0.015970
C35_9 C 0.5426(2) 0.5764(2) 0.1547(3)
H25_9 H 0.513727 0.581215 0.139229
C36_5 C 0.4560(3) 0.5679(3) 0.2842(3)
H26_5 H 0.444941 0.571070 0.315220
C37_9 C 0.9502(4) 0.5662(5) 0.0089(5)
C38_9 C 0.9123(4) 0.5433(5) 0.0246(5)
H28_9 H 0.907188 0.510602 0.023645
H1_9 H 0.701987 0.663977 0.994611
N2_9 N 0.6809(2) 0.7485(2) 0.9762(2)
C18_9 C 0.6821(3) 0.7940(3) 0.9658(3)
H12_9 H 0.678930 0.805059 0.934780
H27_9 H 0.976021 0.553380 0.992587
N9_9 N 0.5691(2) 0.7262(2) 0.9985(2)
N11_9 N 0.5969(2) 0.6177(3) 0.9599(3)
C1_10 C 0.3066(2) 0.1644(3) 0.4734(3)
H1_10 H 0.298013 0.163977 0.505389
N1_10 N 0.31307(18) 0.2488(2) 0.4762(2)
N2_10 N 0.3191(2) 0.2485(2) 0.5238(2)
C2_10 C 0.3310(2) 0.1654(2) 0.3806(2)
H2_10 H 0.339428 0.166177 0.348562
C3_10 C 0.3235(2) 0.1226(2) 0.4019(2)
C5_10 C 0.31507(19) 0.2064(2) 0.4508(2)
C7_10 C 0.3119(3) 0.3227(3) 0.4983(4)
H4_10 H 0.309796 0.355713 0.498585
C9_10 C 0.3108(2) 0.1233(2) 0.4487(2)
H6_10 H 0.304817 0.094566 0.464166
C10_10 C 0.3284(2) 0.0784(2) 0.375000
C12_10 C 0.3096(3) 0.2930(3) 0.4603(3)
H8_10 H 0.306256 0.302150 0.428648
C13_10 C 0.2946(2) 0.0446(2) 0.375000
C17_10 C 0.3264(2) 0.2074(2) 0.4047(3)
H11_10 H 0.331215 0.236273 0.389229
C18_10 C 0.3179(3) 0.2940(3) 0.5342(3)
H12_10 H 0.321070 0.305059 0.565220
C21_10 C 0.4144(3) 0.0566(2) 0.2766(3)
H15_10 H 0.413977 0.048013 0.244611
N5_10 N 0.4988(2) 0.06307(18) 0.2738(2)
N6_10 N 0.4985(2) 0.0691(2) 0.2262(2)
C22_10 C 0.4154(2) 0.0810(2) 0.3694(2)
H16_10 H 0.416177 0.089428 0.401438
C23_10 C 0.3726(2) 0.0735(2) 0.3481(2)
N7_10 N 0.0969(2) 0.1177(3) 0.4599(3)
C24_10 C 0.2218(2) 0.0917(3) 0.3846(3)
H17_10 H 0.233073 0.113591 0.362385
C25_10 C 0.4564(2) 0.06507(19) 0.2992(2)
C26_10 C 0.2484(2) 0.0532(2) 0.3958(3)
C27_6 C 0.5727(3) 0.0619(3) 0.2517(4)
H18_6 H 0.605713 0.059796 0.251415
C28_10 C 0.2300(3) 0.0209(3) 0.4288(3)
C29_10 C 0.3733(2) 0.0608(2) 0.3013(2)
H20_10 H 0.344566 0.054817 0.285834
C30_10 C 0.1785(2) 0.0986(3) 0.4056(3)
H21_10 H 0.160461 0.125142 0.397451
C31_6 C 0.5430(3) 0.0596(3) 0.2897(3)
H22_6 H 0.552150 0.056256 0.321352
N8_10 N 0.1167(3) 0.0755(3) 0.4582(4)
C32_10 C 0.1877(3) 0.0290(3) 0.4487(4)
H23_10 H 0.175740 0.007403 0.470814
C33_10 C 0.1619(3) 0.0681(3) 0.4373(3)
C34_10 C 0.0562(4) 0.1105(4) 0.4792(5)
H24_10 H 0.033628 0.134272 0.484030
C35_10 C 0.4574(2) 0.0764(2) 0.3453(3)
H25_10 H 0.486273 0.081215 0.360771
C36_6 C 0.5440(3) 0.0679(3) 0.2158(3)
H26_6 H 0.555059 0.071070 0.184780
C37_10 C 0.0498(4) 0.0662(5) 0.4911(5)
H27_10 H 0.023979 0.053380 0.507413
C38_10 C 0.0877(4) 0.0433(5) 0.4754(5)
H28_10 H 0.092812 0.010602 0.476355
N9_10 N 0.4309(2) 0.2262(2) 0.5015(2)
N11_10 N 0.4031(2) 0.1177(3) 0.5401(3)
C4_10 C 0.3417(3) 0.9718(2) 0.3654(3)
H3_10 H 0.363591 0.983073 0.387615
C6_10 C 0.3032(2) 0.9984(2) 0.3542(3)
C8_10 C 0.2709(3) 0.9800(3) 0.3212(3)
H5_10 H 0.243830 0.997235 0.313074
C11_10 C 0.3486(3) 0.9285(2) 0.3444(3)
H7_10 H 0.375142 0.910461 0.352549
N4_10 N 0.3255(3) 0.8667(3) 0.2918(4)
C14_10 C 0.2790(3) 0.9377(3) 0.3013(4)
H9_10 H 0.257403 0.925740 0.279186
C15_10 C 0.3181(3) 0.9119(3) 0.3127(3)
C16_10 C 0.3605(4) 0.8062(4) 0.2708(5)
H10_10 H 0.384272 0.783628 0.265970
C19_10 C 0.3162(5) 0.7998(4) 0.2589(5)
H13_10 H 0.303380 0.773979 0.242587
C20_10 C 0.2933(5) 0.8377(4) 0.2746(5)
H14_10 H 0.260602 0.842812 0.273645
H19_10 H 0.247235 0.993830 0.436926
C4_11 C 0.1583(3) 0.0282(2) 0.8654(3)
H3_11 H 0.136409 0.016927 0.887615
C6_11 C 0.1968(2) 0.0016(2) 0.8542(3)
C8_11 C 0.2291(3) 0.0200(3) 0.8212(3)
H5_11 H 0.256170 0.002765 0.813074
C11_11 C 0.1514(3) 0.0715(2) 0.8444(3)
H7_11 H 0.124858 0.089539 0.852549
N4_11 N 0.1745(3) 0.1333(3) 0.7918(4)
C14_11 C 0.2210(3) 0.0623(3) 0.8013(4)
H9_11 H 0.242597 0.074260 0.779186
C15_11 C 0.1819(3) 0.0881(3) 0.8127(3)
C16_11 C 0.1395(4) 0.1938(4) 0.7708(5)
H10_11 H 0.115728 0.216372 0.765970
C19_11 C 0.1838(5) 0.2002(4) 0.7589(5)
H13_11 H 0.196620 0.226021 0.742587
C20_11 C 0.2067(5) 0.1623(4) 0.7746(5)
H14_11 H 0.239398 0.157188 0.773645
H19_11 H 0.252765 0.006170 0.936926
H1_11 H 0.201987 0.836023 0.005389
N2_11 N 0.1809(2) 0.7515(2) 0.0238(2)
C18_11 C 0.1821(3) 0.7060(3) 0.0342(3)
H12_11 H 0.178930 0.694941 0.065220
H27_11 H 0.476021 0.946620 0.007413
N9_11 N 0.0691(2) 0.7738(2) 0.0015(2)
N11_11 N 0.0969(2) 0.8823(3) 0.0401(3)
C1_11 C 0.1934(2) 0.8356(3) 0.9734(3)
N1_11 N 0.18693(18) 0.7512(2) 0.9762(2)
C2_11 C 0.1690(2) 0.8346(2) 0.8806(2)
H2_11 H 0.160572 0.833823 0.848562
C3_11 C 0.1765(2) 0.8774(2) 0.9019(2)
C5_11 C 0.18493(19) 0.7936(2) 0.9508(2)
C7_11 C 0.1881(3) 0.6773(3) 0.9983(4)
H4_11 H 0.190204 0.644287 0.998585
C9_11 C 0.1892(2) 0.8767(2) 0.9487(2)
H6_11 H 0.195183 0.905434 0.964166
C10_11 C 0.1716(2) 0.9216(2) 0.875000
C12_11 C 0.1904(3) 0.7070(3) 0.9603(3)
H8_11 H 0.193744 0.697850 0.928648
C13_11 C 0.2054(2) 0.9554(2) 0.875000
C17_11 C 0.1736(2) 0.7926(2) 0.9047(3)
H11_11 H 0.168785 0.763727 0.889229
C21_11 C 0.0856(3) 0.9434(2) 0.7766(3)
H15_11 H 0.086023 0.951987 0.744611
N5_11 N 0.0012(2) 0.93693(18) 0.7738(2)
N6_11 N 0.0015(2) 0.9309(2) 0.7262(2)
C22_11 C 0.0846(2) 0.9190(2) 0.8694(2)
H16_11 H 0.083823 0.910572 0.901438
C23_11 C 0.1274(2) 0.9265(2) 0.8481(2)
N7_11 N 0.4031(2) 0.8823(3) 0.9599(3)
C24_11 C 0.2782(2) 0.9083(3) 0.8846(3)
H17_11 H 0.266927 0.886409 0.862385
C25_11 C 0.0436(2) 0.93493(19) 0.7992(2)
C26_11 C 0.2516(2) 0.9468(2) 0.8958(3)
C28_11 C 0.2700(3) 0.9791(3) 0.9288(3)
C29_11 C 0.1267(2) 0.9392(2) 0.8013(2)
H20_11 H 0.155434 0.945183 0.785834
C30_11 C 0.3215(2) 0.9014(3) 0.9056(3)
H21_11 H 0.339539 0.874858 0.897451
N8_11 N 0.3833(3) 0.9245(3) 0.9582(4)
C32_11 C 0.3123(3) 0.9710(3) 0.9487(4)
H23_11 H 0.324260 0.992597 0.970814
C33_11 C 0.3381(3) 0.9319(3) 0.9373(3)
C34_11 C 0.4438(4) 0.8895(4) 0.9792(5)
H24_11 H 0.466372 0.865728 0.984030
C35_11 C 0.0426(2) 0.9236(2) 0.8453(3)
H25_11 H 0.013727 0.918785 0.860771
C37_11 C 0.4502(4) 0.9338(5) 0.9911(5)
C38_11 C 0.4123(4) 0.9567(5) 0.9754(5)
H28_11 H 0.407188 0.989398 0.976355
C1_12 C 0.8066(2) 0.3356(3) 0.5266(3)
H1_12 H 0.798013 0.336023 0.494611
N1_12 N 0.81307(18) 0.2512(2) 0.5238(2)
N2_12 N 0.8191(2) 0.2515(2) 0.4762(2)
C2_12 C 0.8310(2) 0.3346(2) 0.6194(2)
H2_12 H 0.839428 0.333823 0.651438
C3_12 C 0.8235(2) 0.3774(2) 0.5981(2)
C4_12 C 0.8417(3) 0.5282(2) 0.6346(3)
H3_12 H 0.863591 0.516927 0.612385
C5_12 C 0.81507(19) 0.2936(2) 0.5492(2)
C6_12 C 0.8032(2) 0.5016(2) 0.6458(3)
C7_12 C 0.8119(3) 0.1773(3) 0.5017(4)
H4_12 H 0.809796 0.144287 0.501415
C8_12 C 0.7709(3) 0.5200(3) 0.6788(3)
H5_12 H 0.743830 0.502765 0.686926
C9_12 C 0.8108(2) 0.3767(2) 0.5513(2)
H6_12 H 0.804817 0.405434 0.535834
C10_12 C 0.8284(2) 0.4216(2) 0.625000
C11_12 C 0.8486(3) 0.5715(2) 0.6556(3)
H7_12 H 0.875142 0.589539 0.647451
C12_12 C 0.8096(3) 0.2070(3) 0.5397(3)
H8_12 H 0.806256 0.197850 0.571352
C13_12 C 0.7946(2) 0.4554(2) 0.625000
N4_12 N 0.8255(3) 0.6333(3) 0.7082(4)
C14_12 C 0.7790(3) 0.5623(3) 0.6987(4)
H9_12 H 0.757403 0.574260 0.720814
C15_12 C 0.8181(3) 0.5881(3) 0.6873(3)
C16_12 C 0.8605(4) 0.6938(4) 0.7292(5)
H10_12 H 0.884272 0.716372 0.734030
C17_12 C 0.8264(2) 0.2926(2) 0.5953(3)
H11_12 H 0.831215 0.263727 0.610771
C18_12 C 0.8179(3) 0.2060(3) 0.4658(3)
H12_12 H 0.821070 0.194941 0.434780
C19_12 C 0.8162(5) 0.7002(4) 0.7411(5)
H13_12 H 0.803380 0.726021 0.757413
C20_12 C 0.7933(5) 0.6623(4) 0.7254(5)
H14_12 H 0.760602 0.657188 0.726355
C21_12 C 0.9144(3) 0.4434(2) 0.7234(3)
H15_12 H 0.913977 0.451987 0.755389
N5_12 N 0.9988(2) 0.43693(18) 0.7262(2)
N6_12 N 0.9985(2) 0.4309(2) 0.7738(2)
C22_12 C 0.9154(2) 0.4190(2) 0.6306(2)
H16_12 H 0.916177 0.410572 0.598562
C23_12 C 0.8726(2) 0.4265(2) 0.6519(2)
N7_12 N 0.5969(2) 0.3823(3) 0.5401(3)
C24_12 C 0.7218(2) 0.4083(3) 0.6154(3)
H17_12 H 0.733073 0.386409 0.637615
C25_12 C 0.9564(2) 0.43493(19) 0.7008(2)
C26_12 C 0.7484(2) 0.4468(2) 0.6042(3)
C28_12 C 0.7300(3) 0.4791(3) 0.5712(3)
H19_12 H 0.747235 0.506170 0.563074
C29_12 C 0.8733(2) 0.4392(2) 0.6987(2)
H20_12 H 0.844566 0.445183 0.714166
C30_12 C 0.6785(2) 0.4014(3) 0.5944(3)
H21_12 H 0.660461 0.374858 0.602549
N8_12 N 0.6167(3) 0.4245(3) 0.5418(4)
C32_12 C 0.6877(3) 0.4710(3) 0.5513(4)
H23_12 H 0.675740 0.492597 0.529186
C33_12 C 0.6619(3) 0.4319(3) 0.5627(3)
C34_12 C 0.5562(4) 0.3895(4) 0.5208(5)
H24_12 H 0.533628 0.365728 0.515970
C35_12 C 0.9574(2) 0.4236(2) 0.6547(3)
H25_12 H 0.986273 0.418785 0.639229
C37_12 C 0.5498(4) 0.4338(5) 0.5089(5)
H27_12 H 0.523979 0.446620 0.492587
C38_12 C 0.5877(4) 0.4567(5) 0.5246(5)
H28_12 H 0.592812 0.489398 0.523645
N9_12 N 0.9309(2) 0.2738(2) 0.4985(2)
N11_12 N 0.9031(2) 0.3823(3) 0.4599(3)
C1_13 C 0.4434(2) 0.2766(3) 0.5856(3)
H1_13 H 0.451987 0.244611 0.586023
N1_13 N 0.43693(18) 0.2738(2) 0.5012(2)
C2_13 C 0.4190(2) 0.3694(2) 0.5846(2)
H2_13 H 0.410572 0.401438 0.583823
C3_13 C 0.4265(2) 0.3481(2) 0.6274(2)
C4_13 C 0.4083(3) 0.3846(3) 0.7782(2)
H3_13 H 0.386409 0.362385 0.766927
C5_13 C 0.43493(19) 0.2992(2) 0.5436(2)
C6_13 C 0.4468(2) 0.3958(3) 0.7516(2)
C7_13 C 0.4381(3) 0.2517(4) 0.4273(3)
H4_13 H 0.440204 0.251415 0.394287
C8_13 C 0.4791(3) 0.4288(3) 0.7700(3)
H5_13 H 0.506170 0.436926 0.752765
C9_13 C 0.4392(2) 0.3013(2) 0.6267(2)
H6_13 H 0.445183 0.285834 0.655434
C10_13 C 0.4216(2) 0.375000 0.6716(2)
C11_13 C 0.4014(3) 0.4056(3) 0.8215(2)
H7_13 H 0.374858 0.397451 0.839539
C12_13 C 0.4404(3) 0.2897(3) 0.4570(3)
H8_13 H 0.443744 0.321352 0.447850
C13_13 C 0.4554(2) 0.375000 0.7054(2)
N4_13 N 0.4245(3) 0.4582(4) 0.8833(3)
C14_13 C 0.4710(3) 0.4487(4) 0.8123(3)
H9_13 H 0.492597 0.470814 0.824260
C15_13 C 0.4319(3) 0.4373(3) 0.8381(3)
C16_13 C 0.3895(4) 0.4792(5) 0.9438(4)
H10_13 H 0.365728 0.484030 0.966372
C17_13 C 0.4236(2) 0.3453(3) 0.5426(2)
H11_13 H 0.418785 0.360771 0.513727
C18_13 C 0.4321(3) 0.2158(3) 0.4560(3)
H12_13 H 0.428930 0.184780 0.444941
C19_13 C 0.4338(5) 0.4911(5) 0.9502(4)
H13_13 H 0.446620 0.507413 0.976021
C20_13 C 0.4567(5) 0.4754(5) 0.9123(4)
H14_13 H 0.489398 0.476355 0.907188
C21_13 C 0.3356(3) 0.4734(3) 0.6934(2)
H15_13 H 0.336023 0.505389 0.701987
N5_13 N 0.2512(2) 0.4762(2) 0.68693(18)
N6_13 N 0.2515(2) 0.5238(2) 0.6809(2)
C22_13 C 0.3346(2) 0.3806(2) 0.6690(2)
H16_13 H 0.333823 0.348562 0.660572
C23_13 C 0.3774(2) 0.4019(2) 0.6765(2)
N7_13 N 0.6531(2) 0.2901(3) 0.6323(3)
C24_13 C 0.5282(2) 0.3654(3) 0.6583(3)
H17_13 H 0.516927 0.387615 0.636409
C25_13 C 0.2936(2) 0.4508(2) 0.68493(19)
C26_13 C 0.5016(2) 0.3542(3) 0.6968(2)
C27_7 C 0.1773(3) 0.4983(4) 0.6881(3)
H18_7 H 0.144287 0.498585 0.690204
C28_13 C 0.5200(3) 0.3212(3) 0.7291(3)
H19_13 H 0.502765 0.313074 0.756170
C29_13 C 0.3767(2) 0.4487(2) 0.6892(2)
H20_13 H 0.405434 0.464166 0.695183
C30_13 C 0.5715(2) 0.3444(3) 0.6514(3)
H21_13 H 0.589539 0.352549 0.624858
C31_7 C 0.2070(3) 0.4603(3) 0.6904(3)
H22_7 H 0.197850 0.428648 0.693744
N8_13 N 0.6333(3) 0.2918(4) 0.6745(3)
C32_13 C 0.5623(3) 0.3013(4) 0.7210(3)
H23_13 H 0.574260 0.279186 0.742597
C33_13 C 0.5881(3) 0.3127(3) 0.6819(3)
C34_13 C 0.6938(4) 0.2708(5) 0.6395(4)
H24_13 H 0.716372 0.265970 0.615728
C35_13 C 0.2926(2) 0.4047(3) 0.6736(2)
H25_13 H 0.263727 0.389229 0.668785
C36_7 C 0.2060(3) 0.5342(3) 0.6821(3)
H26_7 H 0.194941 0.565220 0.678930
C37_13 C 0.7002(4) 0.2589(5) 0.6838(5)
H27_13 H 0.726021 0.242587 0.696620
C38_13 C 0.6623(4) 0.2746(5) 0.7067(5)
H28_13 H 0.657188 0.273645 0.739398
C1_14 C 0.0566(2) 0.7234(3) 0.0856(3)
H1_14 H 0.048013 0.755389 0.086023
N1_14 N 0.06307(18) 0.7262(2) 0.0012(2)
C2_14 C 0.0810(2) 0.6306(2) 0.0846(2)
H2_14 H 0.089428 0.598562 0.083823
C3_14 C 0.0735(2) 0.6519(2) 0.1274(2)
C4_14 C 0.0917(3) 0.6154(3) 0.2782(2)
H3_14 H 0.113591 0.637615 0.266927
C5_14 C 0.06507(19) 0.7008(2) 0.0436(2)
C6_14 C 0.0532(2) 0.6042(3) 0.2516(2)
C8_14 C 0.0209(3) 0.5712(3) 0.2700(3)
C9_14 C 0.0608(2) 0.6987(2) 0.1267(2)
H6_14 H 0.054817 0.714166 0.155434
C10_14 C 0.0784(2) 0.625000 0.1716(2)
C11_14 C 0.0986(3) 0.5944(3) 0.3215(2)
H7_14 H 0.125142 0.602549 0.339539
C13_14 C 0.0446(2) 0.625000 0.2054(2)
N4_14 N 0.0755(3) 0.5418(4) 0.3833(3)
C14_14 C 0.0290(3) 0.5513(4) 0.3123(3)
H9_14 H 0.007403 0.529186 0.324260
C15_14 C 0.0681(3) 0.5627(3) 0.3381(3)
C16_14 C 0.1105(4) 0.5208(5) 0.4438(4)
H10_14 H 0.134272 0.515970 0.466372
C17_14 C 0.0764(2) 0.6547(3) 0.0426(2)
H11_14 H 0.081215 0.639229 0.013727
C19_14 C 0.0662(5) 0.5089(5) 0.4502(4)
H13_14 H 0.053380 0.492587 0.476021
C20_14 C 0.0433(5) 0.5246(5) 0.4123(4)
H14_14 H 0.010602 0.523645 0.407188
C21_14 C 0.1644(3) 0.5266(3) 0.1934(2)
H15_14 H 0.163977 0.494611 0.201987
N5_14 N 0.2488(2) 0.5238(2) 0.18693(18)
N6_14 N 0.2485(2) 0.4762(2) 0.1809(2)
C22_14 C 0.1654(2) 0.6194(2) 0.1690(2)
H16_14 H 0.166177 0.651438 0.160572
C23_14 C 0.1226(2) 0.5981(2) 0.1765(2)
C25_14 C 0.2064(2) 0.5492(2) 0.18493(19)
C27_8 C 0.3227(3) 0.5017(4) 0.1881(3)
H18_8 H 0.355713 0.501415 0.190204
C29_14 C 0.1233(2) 0.5513(2) 0.1892(2)
H20_14 H 0.094566 0.535834 0.195183
C31_8 C 0.2930(3) 0.5397(3) 0.1904(3)
H22_8 H 0.302150 0.571352 0.193744
C35_14 C 0.2074(2) 0.5953(3) 0.1736(2)
H25_14 H 0.236273 0.610771 0.168785
C36_8 C 0.2940(3) 0.4658(3) 0.1821(3)
H26_8 H 0.305059 0.434780 0.178930
H5_14 H 0.993830 0.563074 0.252765
N7_14 N 0.8469(2) 0.7099(3) 0.1323(3)
C24_14 C 0.9718(2) 0.6346(3) 0.1583(3)
H17_14 H 0.983073 0.612385 0.136409
C26_14 C 0.9984(2) 0.6458(3) 0.1968(2)
C28_14 C 0.9800(3) 0.6788(3) 0.2291(3)
H19_14 H 0.997235 0.686926 0.256170
C30_14 C 0.9285(2) 0.6556(3) 0.1514(3)
H21_14 H 0.910461 0.647451 0.124858
N8_14 N 0.8667(3) 0.7082(4) 0.1745(3)
C32_14 C 0.9377(3) 0.6987(4) 0.2210(3)
H23_14 H 0.925740 0.720814 0.242597
C33_14 C 0.9119(3) 0.6873(3) 0.1819(3)
C34_14 C 0.8062(4) 0.7292(5) 0.1395(4)
H24_14 H 0.783628 0.734030 0.115728
C37_14 C 0.7998(4) 0.7411(5) 0.1838(5)
H27_14 H 0.773979 0.757413 0.196620
C38_14 C 0.8377(4) 0.7254(5) 0.2067(5)
H28_14 H 0.842812 0.726355 0.239398
H5_15 H 0.006170 0.063074 0.247235
N7_15 N 0.1531(2) 0.2099(3) 0.3677(3)
C24_15 C 0.0282(2) 0.1346(3) 0.3417(3)
H17_15 H 0.016927 0.112385 0.363591
C26_15 C 0.0016(2) 0.1458(3) 0.3032(2)
C28_15 C 0.0200(3) 0.1788(3) 0.2709(3)
H19_15 H 0.002765 0.186926 0.243830
C30_15 C 0.0715(2) 0.1556(3) 0.3486(3)
H21_15 H 0.089539 0.147451 0.375142
N8_15 N 0.1333(3) 0.2082(4) 0.3255(3)
C32_15 C 0.0623(3) 0.1987(4) 0.2790(3)
H23_15 H 0.074260 0.220814 0.257403
C33_15 C 0.0881(3) 0.1873(3) 0.3181(3)
C34_15 C 0.1938(4) 0.2292(5) 0.3605(4)
H24_15 H 0.216372 0.234030 0.384272
C37_15 C 0.2002(4) 0.2411(5) 0.3162(5)
H27_15 H 0.226021 0.257413 0.303380
C38_15 C 0.1623(4) 0.2254(5) 0.2933(5)
H28_15 H 0.157188 0.226355 0.260602
C1_15 C 0.9434(2) 0.2234(3) 0.4144(3)
H1_15 H 0.951987 0.255389 0.413977
N1_15 N 0.93693(18) 0.2262(2) 0.4988(2)
C2_15 C 0.9190(2) 0.1306(2) 0.4154(2)
H2_15 H 0.910572 0.098562 0.416177
C3_15 C 0.9265(2) 0.1519(2) 0.3726(2)
C4_15 C 0.9083(3) 0.1154(3) 0.2218(2)
H3_15 H 0.886409 0.137615 0.233073
C5_15 C 0.93493(19) 0.2008(2) 0.4564(2)
C6_15 C 0.9468(2) 0.1042(3) 0.2484(2)
C7_14 C 0.9381(3) 0.2483(4) 0.5727(3)
H4_14 H 0.940204 0.248585 0.605713
C8_15 C 0.9791(3) 0.0712(3) 0.2300(3)
C9_15 C 0.9392(2) 0.1987(2) 0.3733(2)
H6_15 H 0.945183 0.214166 0.344566
C10_15 C 0.9216(2) 0.125000 0.3284(2)
C11_15 C 0.9014(3) 0.0944(3) 0.1785(2)
H7_15 H 0.874858 0.102549 0.160461
C12_14 C 0.9404(3) 0.2103(3) 0.5430(3)
H8_14 H 0.943744 0.178648 0.552150
C13_15 C 0.9554(2) 0.125000 0.2946(2)
N4_15 N 0.9245(3) 0.0418(4) 0.1167(3)
C14_15 C 0.9710(3) 0.0513(4) 0.1877(3)
H9_15 H 0.992597 0.029186 0.175740
C15_15 C 0.9319(3) 0.0627(3) 0.1619(3)
C16_15 C 0.8895(4) 0.0208(5) 0.0562(4)
H10_15 H 0.865728 0.015970 0.033628
C17_15 C 0.9236(2) 0.1547(3) 0.4574(2)
H11_15 H 0.918785 0.139229 0.486273
C18_14 C 0.9321(3) 0.2842(3) 0.5440(3)
H12_14 H 0.928930 0.315220 0.555059
C19_15 C 0.9338(5) 0.0089(5) 0.0498(4)
C20_15 C 0.9567(5) 0.0246(5) 0.0877(4)
H14_15 H 0.989398 0.023645 0.092812
C21_15 C 0.8356(3) 0.0266(3) 0.3066(2)
N5_15 N 0.7512(2) 0.0238(2) 0.31307(18)
C22_15 C 0.8346(2) 0.1194(2) 0.3310(2)
H16_15 H 0.833823 0.151438 0.339428
C23_15 C 0.8774(2) 0.0981(2) 0.3235(2)
C25_15 C 0.7936(2) 0.0492(2) 0.31507(19)
C27_9 C 0.6773(3) 0.0017(4) 0.3119(3)
H18_9 H 0.644287 0.001415 0.309796
C29_15 C 0.8767(2) 0.0513(2) 0.3108(2)
H20_15 H 0.905434 0.035834 0.304817
C31_9 C 0.7070(3) 0.0397(3) 0.3096(3)
H22_9 H 0.697850 0.071352 0.306256
C35_15 C 0.7926(2) 0.0953(3) 0.3264(2)
H25_15 H 0.763727 0.110771 0.331215
H13_15 H 0.946620 0.992587 0.023979
H15_15 H 0.836023 0.994611 0.298013
N6_15 N 0.7515(2) 0.9762(2) 0.3191(2)
C36_9 C 0.7060(3) 0.9658(3) 0.3179(3)
H26_9 H 0.694941 0.934780 0.321070
H13_16 H 0.553380 0.007413 0.523979
H15_16 H 0.663977 0.005389 0.798013
N6_16 N 0.7485(2) 0.0238(2) 0.8191(2)
C36_10 C 0.7940(3) 0.0342(3) 0.8179(3)
H26_10 H 0.805059 0.065220 0.821070
C1_16 C 0.5566(2) 0.7766(3) 0.9144(3)
H1_16 H 0.548013 0.744611 0.913977
N1_16 N 0.56307(18) 0.7738(2) 0.9988(2)
C2_16 C 0.5810(2) 0.8694(2) 0.9154(2)
H2_16 H 0.589428 0.901438 0.916177
C3_16 C 0.5735(2) 0.8481(2) 0.8726(2)
C4_16 C 0.5917(3) 0.8846(3) 0.7218(2)
H3_16 H 0.613591 0.862385 0.733073
C5_16 C 0.56507(19) 0.7992(2) 0.9564(2)
C6_16 C 0.5532(2) 0.8958(3) 0.7484(2)
C8_16 C 0.5209(3) 0.9288(3) 0.7300(3)
H5_16 H 0.493830 0.936926 0.747235
C9_16 C 0.5608(2) 0.8013(2) 0.8733(2)
H6_16 H 0.554817 0.785834 0.844566
C10_16 C 0.5784(2) 0.875000 0.8284(2)
C11_16 C 0.5986(3) 0.9056(3) 0.6785(2)
H7_16 H 0.625142 0.897451 0.660461
C13_16 C 0.5446(2) 0.875000 0.7946(2)
N4_16 N 0.5755(3) 0.9582(4) 0.6167(3)
C14_16 C 0.5290(3) 0.9487(4) 0.6877(3)
H9_16 H 0.507403 0.970814 0.675740
C15_16 C 0.5681(3) 0.9373(3) 0.6619(3)
C16_16 C 0.6105(4) 0.9792(5) 0.5562(4)
H10_16 H 0.634272 0.984030 0.533628
C17_16 C 0.5764(2) 0.8453(3) 0.9574(2)
H11_16 H 0.581215 0.860771 0.986273
C19_16 C 0.5662(5) 0.9911(5) 0.5498(4)
C20_16 C 0.5433(5) 0.9754(5) 0.5877(4)
H14_16 H 0.510602 0.976355 0.592812
C21_16 C 0.6644(3) 0.9734(3) 0.8066(2)
N5_16 N 0.7488(2) 0.9762(2) 0.81307(18)
C22_16 C 0.6654(2) 0.8806(2) 0.8310(2)
H16_16 H 0.666177 0.848562 0.839428
C23_16 C 0.6226(2) 0.9019(2) 0.8235(2)
N7_16 N 0.3469(2) 0.7901(3) 0.8677(3)
C24_16 C 0.4718(2) 0.8654(3) 0.8417(3)
H17_16 H 0.483073 0.887615 0.863591
C25_16 C 0.7064(2) 0.9508(2) 0.81507(19)
C26_16 C 0.4984(2) 0.8542(3) 0.8032(2)
C27_10 C 0.8227(3) 0.9983(4) 0.8119(3)
H18_10 H 0.855713 0.998585 0.809796
C28_16 C 0.4800(3) 0.8212(3) 0.7709(3)
H19_16 H 0.497235 0.813074 0.743830
C29_16 C 0.6233(2) 0.9487(2) 0.8108(2)
H20_16 H 0.594566 0.964166 0.804817
C30_16 C 0.4285(2) 0.8444(3) 0.8486(3)
H21_16 H 0.410461 0.852549 0.875142
C31_10 C 0.7930(3) 0.9603(3) 0.8096(3)
H22_10 H 0.802150 0.928648 0.806256
N8_16 N 0.3667(3) 0.7918(4) 0.8255(3)
C32_16 C 0.4377(3) 0.8013(4) 0.7790(3)
H23_16 H 0.425740 0.779186 0.757403
C33_16 C 0.4119(3) 0.8127(3) 0.8181(3)
C34_16 C 0.3062(4) 0.7708(5) 0.8605(4)
H24_16 H 0.283628 0.765970 0.884272
C35_16 C 0.7074(2) 0.9047(3) 0.8264(2)
H25_16 H 0.736273 0.889229 0.831215
C37_16 C 0.2998(4) 0.7589(5) 0.8162(5)
H27_16 H 0.273979 0.742587 0.803380
C38_16 C 0.3377(4) 0.7746(5) 0.7933(5)
H28_16 H 0.342812 0.773645 0.760602
H13_17 H 0.007413 0.523979 0.553380
H15_17 H 0.005389 0.798013 0.663977
N6_17 N 0.0238(2) 0.8191(2) 0.7485(2)
C36_11 C 0.0342(3) 0.8179(3) 0.7940(3)
H26_11 H 0.065220 0.821070 0.805059
C1_17 C 0.7766(3) 0.9144(3) 0.5566(2)
H1_17 H 0.744611 0.913977 0.548013
N1_17 N 0.7738(2) 0.9988(2) 0.56307(18)
C2_17 C 0.8694(2) 0.9154(2) 0.5810(2)
H2_17 H 0.901438 0.916177 0.589428
C3_17 C 0.8481(2) 0.8726(2) 0.5735(2)
C4_17 C 0.8846(3) 0.7218(2) 0.5917(3)
H3_17 H 0.862385 0.733073 0.613591
C5_17 C 0.7992(2) 0.9564(2) 0.56507(19)
C6_17 C 0.8958(3) 0.7484(2) 0.5532(2)
C8_17 C 0.9288(3) 0.7300(3) 0.5209(3)
H5_17 H 0.936926 0.747235 0.493830
C9_17 C 0.8013(2) 0.8733(2) 0.5608(2)
H6_17 H 0.785834 0.844566 0.554817
C10_17 C 0.875000 0.8284(2) 0.5784(2)
C11_17 C 0.9056(3) 0.6785(2) 0.5986(3)
H7_17 H 0.897451 0.660461 0.625142
C13_17 C 0.875000 0.7946(2) 0.5446(2)
N4_17 N 0.9582(4) 0.6167(3) 0.5755(3)
C14_17 C 0.9487(4) 0.6877(3) 0.5290(3)
H9_17 H 0.970814 0.675740 0.507403
C15_17 C 0.9373(3) 0.6619(3) 0.5681(3)
C16_17 C 0.9792(5) 0.5562(4) 0.6105(4)
H10_17 H 0.984030 0.533628 0.634272
C17_17 C 0.8453(3) 0.9574(2) 0.5764(2)
H11_17 H 0.860771 0.986273 0.581215
C19_17 C 0.9911(5) 0.5498(4) 0.5662(5)
C20_17 C 0.9754(5) 0.5877(4) 0.5433(5)
H14_17 H 0.976355 0.592812 0.510602
C21_17 C 0.9734(3) 0.8066(2) 0.6644(3)
N5_17 N 0.9762(2) 0.81307(18) 0.7488(2)
C22_17 C 0.8806(2) 0.8310(2) 0.6654(2)
H16_17 H 0.848562 0.839428 0.666177
C23_17 C 0.9019(2) 0.8235(2) 0.6226(2)
N7_17 N 0.7901(3) 0.8677(3) 0.3469(2)
C24_17 C 0.8654(3) 0.8417(3) 0.4718(2)
H17_17 H 0.887615 0.863591 0.483073
C25_17 C 0.9508(2) 0.81507(19) 0.7064(2)
C26_17 C 0.8542(3) 0.8032(2) 0.4984(2)
C27_11 C 0.9983(4) 0.8119(3) 0.8227(3)
H18_11 H 0.998585 0.809796 0.855713
C28_17 C 0.8212(3) 0.7709(3) 0.4800(3)
H19_17 H 0.813074 0.743830 0.497235
C29_17 C 0.9487(2) 0.8108(2) 0.6233(2)
H20_17 H 0.964166 0.804817 0.594566
C30_17 C 0.8444(3) 0.8486(3) 0.4285(2)
H21_17 H 0.852549 0.875142 0.410461
C31_11 C 0.9603(3) 0.8096(3) 0.7930(3)
H22_11 H 0.928648 0.806256 0.802150
N8_17 N 0.7918(4) 0.8255(3) 0.3667(3)
C32_17 C 0.8013(4) 0.7790(3) 0.4377(3)
H23_17 H 0.779186 0.757403 0.425740
C33_17 C 0.8127(3) 0.8181(3) 0.4119(3)
C34_17 C 0.7708(5) 0.8605(4) 0.3062(4)
H24_17 H 0.765970 0.884272 0.283628
C35_17 C 0.9047(3) 0.8264(2) 0.7074(2)
H25_17 H 0.889229 0.831215 0.736273
C37_17 C 0.7589(5) 0.8162(5) 0.2998(4)
H27_17 H 0.742587 0.803380 0.273979
C38_17 C 0.7746(5) 0.7933(5) 0.3377(4)
H28_17 H 0.773645 0.760602 0.342812
H5_18 H 0.063074 0.247235 0.006170
N7_18 N 0.2099(3) 0.3677(3) 0.1531(2)
C24_18 C 0.1346(3) 0.3417(3) 0.0282(2)
H17_18 H 0.112385 0.363591 0.016927
C26_18 C 0.1458(3) 0.3032(2) 0.0016(2)
C28_18 C 0.1788(3) 0.2709(3) 0.0200(3)
H19_18 H 0.186926 0.243830 0.002765
C30_18 C 0.1556(3) 0.3486(3) 0.0715(2)
H21_18 H 0.147451 0.375142 0.089539
N8_18 N 0.2082(4) 0.3255(3) 0.1333(3)
C32_18 C 0.1987(4) 0.2790(3) 0.0623(3)
H23_18 H 0.220814 0.257403 0.074260
C33_18 C 0.1873(3) 0.3181(3) 0.0881(3)
C34_18 C 0.2292(5) 0.3605(4) 0.1938(4)
H24_18 H 0.234030 0.384272 0.216372
C37_18 C 0.2411(5) 0.3162(5) 0.2002(4)
H27_18 H 0.257413 0.303380 0.226021
C38_18 C 0.2254(5) 0.2933(5) 0.1623(4)
H28_18 H 0.226355 0.260602 0.157188
C1_18 C 0.2234(3) 0.4144(3) 0.9434(2)
H1_18 H 0.255389 0.413977 0.951987
N1_18 N 0.2262(2) 0.4988(2) 0.93693(18)
C2_18 C 0.1306(2) 0.4154(2) 0.9190(2)
H2_18 H 0.098562 0.416177 0.910572
C3_18 C 0.1519(2) 0.3726(2) 0.9265(2)
C4_18 C 0.1154(3) 0.2218(2) 0.9083(3)
H3_18 H 0.137615 0.233073 0.886409
C5_18 C 0.2008(2) 0.4564(2) 0.93493(19)
C6_18 C 0.1042(3) 0.2484(2) 0.9468(2)
C7_15 C 0.2483(4) 0.5727(3) 0.9381(3)
H4_15 H 0.248585 0.605713 0.940204
C8_18 C 0.0712(3) 0.2300(3) 0.9791(3)
C9_18 C 0.1987(2) 0.3733(2) 0.9392(2)
H6_18 H 0.214166 0.344566 0.945183
C10_18 C 0.125000 0.3284(2) 0.9216(2)
C11_18 C 0.0944(3) 0.1785(2) 0.9014(3)
H7_18 H 0.102549 0.160461 0.874858
C12_15 C 0.2103(3) 0.5430(3) 0.9404(3)
H8_15 H 0.178648 0.552150 0.943744
C13_18 C 0.125000 0.2946(2) 0.9554(2)
N4_18 N 0.0418(4) 0.1167(3) 0.9245(3)
C14_18 C 0.0513(4) 0.1877(3) 0.9710(3)
H9_18 H 0.029186 0.175740 0.992597
C15_18 C 0.0627(3) 0.1619(3) 0.9319(3)
C16_18 C 0.0208(5) 0.0562(4) 0.8895(4)
H10_18 H 0.015970 0.033628 0.865728
C17_18 C 0.1547(3) 0.4574(2) 0.9236(2)
H11_18 H 0.139229 0.486273 0.918785
C18_15 C 0.2842(3) 0.5440(3) 0.9321(3)
H12_15 H 0.315220 0.555059 0.928930
C19_18 C 0.0089(5) 0.0498(4) 0.9338(5)
C20_18 C 0.0246(5) 0.0877(4) 0.9567(5)
H14_18 H 0.023645 0.092812 0.989398
C21_18 C 0.0266(3) 0.3066(2) 0.8356(3)
N5_18 N 0.0238(2) 0.31307(18) 0.7512(2)
C22_18 C 0.1194(2) 0.3310(2) 0.8346(2)
H16_18 H 0.151438 0.339428 0.833823
C23_18 C 0.0981(2) 0.3235(2) 0.8774(2)
C25_18 C 0.0492(2) 0.31507(19) 0.7936(2)
C27_12 C 0.0017(4) 0.3119(3) 0.6773(3)
H18_12 H 0.001415 0.309796 0.644287
C29_18 C 0.0513(2) 0.3108(2) 0.8767(2)
H20_18 H 0.035834 0.304817 0.905434
C31_12 C 0.0397(3) 0.3096(3) 0.7070(3)
H22_12 H 0.071352 0.306256 0.697850
C35_18 C 0.0953(3) 0.3264(2) 0.7926(2)
H25_18 H 0.110771 0.331215 0.763727
H13_18 H 0.992587 0.023979 0.946620
H15_18 H 0.994611 0.298013 0.836023
N6_18 N 0.9762(2) 0.3191(2) 0.7515(2)
C36_12 C 0.9658(3) 0.3179(3) 0.7060(3)
H26_12 H 0.934780 0.321070 0.694941
C1_19 C 0.7234(3) 0.0856(3) 0.0566(2)
H1_19 H 0.755389 0.086023 0.048013
N1_19 N 0.7262(2) 0.0012(2) 0.06307(18)
C2_19 C 0.6306(2) 0.0846(2) 0.0810(2)
H2_19 H 0.598562 0.083823 0.089428
C3_19 C 0.6519(2) 0.1274(2) 0.0735(2)
C4_19 C 0.6154(3) 0.2782(2) 0.0917(3)
H3_19 H 0.637615 0.266927 0.113591
C5_19 C 0.7008(2) 0.0436(2) 0.06507(19)
C6_19 C 0.6042(3) 0.2516(2) 0.0532(2)
C8_19 C 0.5712(3) 0.2700(3) 0.0209(3)
C9_19 C 0.6987(2) 0.1267(2) 0.0608(2)
H6_19 H 0.714166 0.155434 0.054817
C10_19 C 0.625000 0.1716(2) 0.0784(2)
C11_19 C 0.5944(3) 0.3215(2) 0.0986(3)
H7_19 H 0.602549 0.339539 0.125142
C13_19 C 0.625000 0.2054(2) 0.0446(2)
N4_19 N 0.5418(4) 0.3833(3) 0.0755(3)
C14_19 C 0.5513(4) 0.3123(3) 0.0290(3)
H9_19 H 0.529186 0.324260 0.007403
C15_19 C 0.5627(3) 0.3381(3) 0.0681(3)
C16_19 C 0.5208(5) 0.4438(4) 0.1105(4)
H10_19 H 0.515970 0.466372 0.134272
C17_19 C 0.6547(3) 0.0426(2) 0.0764(2)
H11_19 H 0.639229 0.013727 0.081215
C19_19 C 0.5089(5) 0.4502(4) 0.0662(5)
H13_19 H 0.492587 0.476021 0.053380
C20_19 C 0.5246(5) 0.4123(4) 0.0433(5)
H14_19 H 0.523645 0.407188 0.010602
C21_19 C 0.5266(3) 0.1934(2) 0.1644(3)
H15_19 H 0.494611 0.201987 0.163977
N5_19 N 0.5238(2) 0.18693(18) 0.2488(2)
N6_19 N 0.4762(2) 0.1809(2) 0.2485(2)
C22_19 C 0.6194(2) 0.1690(2) 0.1654(2)
H16_19 H 0.651438 0.160572 0.166177
C23_19 C 0.5981(2) 0.1765(2) 0.1226(2)
C25_19 C 0.5492(2) 0.18493(19) 0.2064(2)
C27_13 C 0.5017(4) 0.1881(3) 0.3227(3)
H18_13 H 0.501415 0.190204 0.355713
C29_19 C 0.5513(2) 0.1892(2) 0.1233(2)
H20_19 H 0.535834 0.195183 0.094566
C31_13 C 0.5397(3) 0.1904(3) 0.2930(3)
H22_13 H 0.571352 0.193744 0.302150
C35_19 C 0.5953(3) 0.1736(2) 0.2074(2)
H25_19 H 0.610771 0.168785 0.236273
C36_13 C 0.4658(3) 0.1821(3) 0.2940(3)
H26_13 H 0.434780 0.178930 0.305059
H5_19 H 0.563074 0.252765 0.993830
N7_19 N 0.7099(3) 0.1323(3) 0.8469(2)
C24_19 C 0.6346(3) 0.1583(3) 0.9718(2)
H17_19 H 0.612385 0.136409 0.983073
C26_19 C 0.6458(3) 0.1968(2) 0.9984(2)
C28_19 C 0.6788(3) 0.2291(3) 0.9800(3)
H19_19 H 0.686926 0.256170 0.997235
C30_19 C 0.6556(3) 0.1514(3) 0.9285(2)
H21_19 H 0.647451 0.124858 0.910461
N8_19 N 0.7082(4) 0.1745(3) 0.8667(3)
C32_19 C 0.6987(4) 0.2210(3) 0.9377(3)
H23_19 H 0.720814 0.242597 0.925740
C33_19 C 0.6873(3) 0.1819(3) 0.9119(3)
C34_19 C 0.7292(5) 0.1395(4) 0.8062(4)
H24_19 H 0.734030 0.115728 0.783628
C37_19 C 0.7411(5) 0.1838(5) 0.7998(4)
H27_19 H 0.757413 0.196620 0.773979
C38_19 C 0.7254(5) 0.2067(5) 0.8377(4)
H28_19 H 0.726355 0.239398 0.842812
C1_20 C 0.2766(3) 0.5856(3) 0.4434(2)
H1_20 H 0.244611 0.586023 0.451987
N1_20 N 0.2738(2) 0.5012(2) 0.43693(18)
C2_20 C 0.3694(2) 0.5846(2) 0.4190(2)
H2_20 H 0.401438 0.583823 0.410572
C3_20 C 0.3481(2) 0.6274(2) 0.4265(2)
C4_20 C 0.3846(3) 0.7782(2) 0.4083(3)
H3_20 H 0.362385 0.766927 0.386409
C5_20 C 0.2992(2) 0.5436(2) 0.43493(19)
C6_20 C 0.3958(3) 0.7516(2) 0.4468(2)
C7_16 C 0.2517(4) 0.4273(3) 0.4381(3)
H4_16 H 0.251415 0.394287 0.440204
C8_20 C 0.4288(3) 0.7700(3) 0.4791(3)
H5_20 H 0.436926 0.752765 0.506170
C9_20 C 0.3013(2) 0.6267(2) 0.4392(2)
H6_20 H 0.285834 0.655434 0.445183
C10_20 C 0.375000 0.6716(2) 0.4216(2)
C11_20 C 0.4056(3) 0.8215(2) 0.4014(3)
H7_20 H 0.397451 0.839539 0.374858
C12_16 C 0.2897(3) 0.4570(3) 0.4404(3)
H8_16 H 0.321352 0.447850 0.443744
C13_20 C 0.375000 0.7054(2) 0.4554(2)
N4_20 N 0.4582(4) 0.8833(3) 0.4245(3)
C14_20 C 0.4487(4) 0.8123(3) 0.4710(3)
H9_20 H 0.470814 0.824260 0.492597
C15_20 C 0.4373(3) 0.8381(3) 0.4319(3)
C16_20 C 0.4792(5) 0.9438(4) 0.3895(4)
H10_20 H 0.484030 0.966372 0.365728
C17_20 C 0.3453(3) 0.5426(2) 0.4236(2)
H11_20 H 0.360771 0.513727 0.418785
C18_16 C 0.2158(3) 0.4560(3) 0.4321(3)
H12_16 H 0.184780 0.444941 0.428930
C19_20 C 0.4911(5) 0.9502(4) 0.4338(5)
H13_20 H 0.507413 0.976021 0.446620
C20_20 C 0.4754(5) 0.9123(4) 0.4567(5)
H14_20 H 0.476355 0.907188 0.489398
C21_20 C 0.4734(3) 0.6934(2) 0.3356(3)
H15_20 H 0.505389 0.701987 0.336023
N5_20 N 0.4762(2) 0.68693(18) 0.2512(2)
N6_20 N 0.5238(2) 0.6809(2) 0.2515(2)
C22_20 C 0.3806(2) 0.6690(2) 0.3346(2)
H16_20 H 0.348562 0.660572 0.333823
C23_20 C 0.4019(2) 0.6765(2) 0.3774(2)
N7_20 N 0.2901(3) 0.6323(3) 0.6531(2)
C24_20 C 0.3654(3) 0.6583(3) 0.5282(2)
H17_20 H 0.387615 0.636409 0.516927
C25_20 C 0.4508(2) 0.68493(19) 0.2936(2)
C26_20 C 0.3542(3) 0.6968(2) 0.5016(2)
C27_14 C 0.4983(4) 0.6881(3) 0.1773(3)
H18_14 H 0.498585 0.690204 0.144287
C28_20 C 0.3212(3) 0.7291(3) 0.5200(3)
H19_20 H 0.313074 0.756170 0.502765
C29_20 C 0.4487(2) 0.6892(2) 0.3767(2)
H20_20 H 0.464166 0.695183 0.405434
C30_20 C 0.3444(3) 0.6514(3) 0.5715(2)
H21_20 H 0.352549 0.624858 0.589539
C31_14 C 0.4603(3) 0.6904(3) 0.2070(3)
H22_14 H 0.428648 0.693744 0.197850
N8_20 N 0.2918(4) 0.6745(3) 0.6333(3)
C32_20 C 0.3013(4) 0.7210(3) 0.5623(3)
H23_20 H 0.279186 0.742597 0.574260
C33_20 C 0.3127(3) 0.6819(3) 0.5881(3)
C34_20 C 0.2708(5) 0.6395(4) 0.6938(4)
H24_20 H 0.265970 0.615728 0.716372
C35_20 C 0.4047(3) 0.6736(2) 0.2926(2)
H25_20 H 0.389229 0.668785 0.263727
C36_14 C 0.5342(3) 0.6821(3) 0.2060(3)
H26_14 H 0.565220 0.678930 0.194941
C37_20 C 0.2589(5) 0.6838(5) 0.7002(4)
H27_20 H 0.242587 0.696620 0.726021
C38_20 C 0.2746(5) 0.7067(5) 0.6623(4)
H28_20 H 0.273645 0.739398 0.657188
H5_21 H 0.247235 0.006170 0.063074
N7_21 N 0.3677(3) 0.1531(2) 0.2099(3)
C24_21 C 0.3417(3) 0.0282(2) 0.1346(3)
H17_21 H 0.363591 0.016927 0.112385
C26_21 C 0.3032(2) 0.0016(2) 0.1458(3)
C28_21 C 0.2709(3) 0.0200(3) 0.1788(3)
H19_21 H 0.243830 0.002765 0.186926
C30_21 C 0.3486(3) 0.0715(2) 0.1556(3)
H21_21 H 0.375142 0.089539 0.147451
N8_21 N 0.3255(3) 0.1333(3) 0.2082(4)
C32_21 C 0.2790(3) 0.0623(3) 0.1987(4)
H23_21 H 0.257403 0.074260 0.220814
C33_21 C 0.3181(3) 0.0881(3) 0.1873(3)
C34_21 C 0.3605(4) 0.1938(4) 0.2292(5)
H24_21 H 0.384272 0.216372 0.234030
C37_21 C 0.3162(5) 0.2002(4) 0.2411(5)
H27_21 H 0.303380 0.226021 0.257413
C38_21 C 0.2933(5) 0.1623(4) 0.2254(5)
H28_21 H 0.260602 0.157188 0.226355
C1_21 C 0.4144(3) 0.9434(2) 0.2234(3)
H1_21 H 0.413977 0.951987 0.255389
N1_21 N 0.4988(2) 0.93693(18) 0.2262(2)
C2_21 C 0.4154(2) 0.9190(2) 0.1306(2)
H2_21 H 0.416177 0.910572 0.098562
C3_21 C 0.3726(2) 0.9265(2) 0.1519(2)
C4_21 C 0.2218(2) 0.9083(3) 0.1154(3)
H3_21 H 0.233073 0.886409 0.137615
C5_21 C 0.4564(2) 0.93493(19) 0.2008(2)
C6_21 C 0.2484(2) 0.9468(2) 0.1042(3)
C7_17 C 0.5727(3) 0.9381(3) 0.2483(4)
H4_17 H 0.605713 0.940204 0.248585
C8_21 C 0.2300(3) 0.9791(3) 0.0712(3)
C9_21 C 0.3733(2) 0.9392(2) 0.1987(2)
H6_21 H 0.344566 0.945183 0.214166
C10_21 C 0.3284(2) 0.9216(2) 0.125000
C11_21 C 0.1785(2) 0.9014(3) 0.0944(3)
H7_21 H 0.160461 0.874858 0.102549
C12_17 C 0.5430(3) 0.9404(3) 0.2103(3)
H8_17 H 0.552150 0.943744 0.178648
C13_21 C 0.2946(2) 0.9554(2) 0.125000
N4_21 N 0.1167(3) 0.9245(3) 0.0418(4)
C14_21 C 0.1877(3) 0.9710(3) 0.0513(4)
H9_21 H 0.175740 0.992597 0.029186
C15_21 C 0.1619(3) 0.9319(3) 0.0627(3)
C16_21 C 0.0562(4) 0.8895(4) 0.0208(5)
H10_21 H 0.033628 0.865728 0.015970
C17_21 C 0.4574(2) 0.9236(2) 0.1547(3)
H11_21 H 0.486273 0.918785 0.139229
C18_17 C 0.5440(3) 0.9321(3) 0.2842(3)
H12_17 H 0.555059 0.928930 0.315220
C19_21 C 0.0498(4) 0.9338(5) 0.0089(5)
C20_21 C 0.0877(4) 0.9567(5) 0.0246(5)
H14_21 H 0.092812 0.989398 0.023645
C21_21 C 0.3066(2) 0.8356(3) 0.0266(3)
N5_21 N 0.31307(18) 0.7512(2) 0.0238(2)
C22_21 C 0.3310(2) 0.8346(2) 0.1194(2)
H16_21 H 0.339428 0.833823 0.151438
C23_21 C 0.3235(2) 0.8774(2) 0.0981(2)
C25_21 C 0.31507(19) 0.7936(2) 0.0492(2)
C27_15 C 0.3119(3) 0.6773(3) 0.0017(4)
H18_15 H 0.309796 0.644287 0.001415
C29_21 C 0.3108(2) 0.8767(2) 0.0513(2)
H20_21 H 0.304817 0.905434 0.035834
C31_15 C 0.3096(3) 0.7070(3) 0.0397(3)
H22_15 H 0.306256 0.697850 0.071352
C35_21 C 0.3264(2) 0.7926(2) 0.0953(3)
H25_21 H 0.331215 0.763727 0.110771
H13_21 H 0.023979 0.946620 0.992587
H15_21 H 0.298013 0.836023 0.994611
N6_21 N 0.3191(2) 0.7515(2) 0.9762(2)
C36_15 C 0.3179(3) 0.7060(3) 0.9658(3)
H26_15 H 0.321070 0.694941 0.934780
H13_22 H 0.523979 0.553380 0.007413
H15_22 H 0.798013 0.663977 0.005389
N6_22 N 0.8191(2) 0.7485(2) 0.0238(2)
C36_16 C 0.8179(3) 0.7940(3) 0.0342(3)
H26_16 H 0.821070 0.805059 0.065220
C1_22 C 0.9144(3) 0.5566(2) 0.7766(3)
H1_22 H 0.913977 0.548013 0.744611
N1_22 N 0.9988(2) 0.56307(18) 0.7738(2)
C2_22 C 0.9154(2) 0.5810(2) 0.8694(2)
H2_22 H 0.916177 0.589428 0.901438
C3_22 C 0.8726(2) 0.5735(2) 0.8481(2)
C4_22 C 0.7218(2) 0.5917(3) 0.8846(3)
H3_22 H 0.733073 0.613591 0.862385
C5_22 C 0.9564(2) 0.56507(19) 0.7992(2)
C6_22 C 0.7484(2) 0.5532(2) 0.8958(3)
C8_22 C 0.7300(3) 0.5209(3) 0.9288(3)
H5_22 H 0.747235 0.493830 0.936926
C9_22 C 0.8733(2) 0.5608(2) 0.8013(2)
H6_22 H 0.844566 0.554817 0.785834
C10_22 C 0.8284(2) 0.5784(2) 0.875000
C11_22 C 0.6785(2) 0.5986(3) 0.9056(3)
H7_22 H 0.660461 0.625142 0.897451
C13_22 C 0.7946(2) 0.5446(2) 0.875000
N4_22 N 0.6167(3) 0.5755(3) 0.9582(4)
C14_22 C 0.6877(3) 0.5290(3) 0.9487(4)
H9_22 H 0.675740 0.507403 0.970814
C15_22 C 0.6619(3) 0.5681(3) 0.9373(3)
C16_22 C 0.5562(4) 0.6105(4) 0.9792(5)
H10_22 H 0.533628 0.634272 0.984030
C17_22 C 0.9574(2) 0.5764(2) 0.8453(3)
H11_22 H 0.986273 0.581215 0.860771
C19_22 C 0.5498(4) 0.5662(5) 0.9911(5)
C20_22 C 0.5877(4) 0.5433(5) 0.9754(5)
H14_22 H 0.592812 0.510602 0.976355
C21_22 C 0.8066(2) 0.6644(3) 0.9734(3)
N5_22 N 0.81307(18) 0.7488(2) 0.9762(2)
C22_22 C 0.8310(2) 0.6654(2) 0.8806(2)
H16_22 H 0.839428 0.666177 0.848562
C23_22 C 0.8235(2) 0.6226(2) 0.9019(2)
N7_22 N 0.8677(3) 0.3469(2) 0.7901(3)
C24_22 C 0.8417(3) 0.4718(2) 0.8654(3)
H17_22 H 0.863591 0.483073 0.887615
C25_22 C 0.81507(19) 0.7064(2) 0.9508(2)
C26_22 C 0.8032(2) 0.4984(2) 0.8542(3)
C27_16 C 0.8119(3) 0.8227(3) 0.9983(4)
H18_16 H 0.809796 0.855713 0.998585
C28_22 C 0.7709(3) 0.4800(3) 0.8212(3)
H19_22 H 0.743830 0.497235 0.813074
C29_22 C 0.8108(2) 0.6233(2) 0.9487(2)
H20_22 H 0.804817 0.594566 0.964166
C30_22 C 0.8486(3) 0.4285(2) 0.8444(3)
H21_22 H 0.875142 0.410461 0.852549
C31_16 C 0.8096(3) 0.7930(3) 0.9603(3)
H22_16 H 0.806256 0.802150 0.928648
N8_22 N 0.8255(3) 0.3667(3) 0.7918(4)
C32_22 C 0.7790(3) 0.4377(3) 0.8013(4)
H23_22 H 0.757403 0.425740 0.779186
C33_22 C 0.8181(3) 0.4119(3) 0.8127(3)
C34_22 C 0.8605(4) 0.3062(4) 0.7708(5)
H24_22 H 0.884272 0.283628 0.765970
C35_22 C 0.8264(2) 0.7074(2) 0.9047(3)
H25_22 H 0.831215 0.736273 0.889229
C37_22 C 0.8162(5) 0.2998(4) 0.7589(5)
H27_22 H 0.803380 0.273979 0.742587
C38_22 C 0.7933(5) 0.3377(4) 0.7746(5)
H28_22 H 0.760602 0.342812 0.773645
C1_23 C 0.5856(3) 0.4434(2) 0.2766(3)
H1_23 H 0.586023 0.451987 0.244611
N1_23 N 0.5012(2) 0.43693(18) 0.2738(2)
C2_23 C 0.5846(2) 0.4190(2) 0.3694(2)
H2_23 H 0.583823 0.410572 0.401438
C3_23 C 0.6274(2) 0.4265(2) 0.3481(2)
C4_23 C 0.7782(2) 0.4083(3) 0.3846(3)
H3_23 H 0.766927 0.386409 0.362385
C5_23 C 0.5436(2) 0.43493(19) 0.2992(2)
C6_23 C 0.7516(2) 0.4468(2) 0.3958(3)
C7_18 C 0.4273(3) 0.4381(3) 0.2517(4)
H4_18 H 0.394287 0.440204 0.251415
C8_23 C 0.7700(3) 0.4791(3) 0.4288(3)
H5_23 H 0.752765 0.506170 0.436926
C9_23 C 0.6267(2) 0.4392(2) 0.3013(2)
H6_23 H 0.655434 0.445183 0.285834
C10_23 C 0.6716(2) 0.4216(2) 0.375000
C11_23 C 0.8215(2) 0.4014(3) 0.4056(3)
H7_23 H 0.839539 0.374858 0.397451
C12_18 C 0.4570(3) 0.4404(3) 0.2897(3)
H8_18 H 0.447850 0.443744 0.321352
C13_23 C 0.7054(2) 0.4554(2) 0.375000
N4_23 N 0.8833(3) 0.4245(3) 0.4582(4)
C14_23 C 0.8123(3) 0.4710(3) 0.4487(4)
H9_23 H 0.824260 0.492597 0.470814
C15_23 C 0.8381(3) 0.4319(3) 0.4373(3)
C16_23 C 0.9438(4) 0.3895(4) 0.4792(5)
H10_23 H 0.966372 0.365728 0.484030
C17_23 C 0.5426(2) 0.4236(2) 0.3453(3)
H11_23 H 0.513727 0.418785 0.360771
C18_18 C 0.4560(3) 0.4321(3) 0.2158(3)
H12_18 H 0.444941 0.428930 0.184780
C19_23 C 0.9502(4) 0.4338(5) 0.4911(5)
H13_23 H 0.976021 0.446620 0.507413
C20_23 C 0.9123(4) 0.4567(5) 0.4754(5)
H14_23 H 0.907188 0.489398 0.476355
C21_23 C 0.6934(2) 0.3356(3) 0.4734(3)
H15_23 H 0.701987 0.336023 0.505389
N5_23 N 0.68693(18) 0.2512(2) 0.4762(2)
N6_23 N 0.6809(2) 0.2515(2) 0.5238(2)
C22_23 C 0.6690(2) 0.3346(2) 0.3806(2)
H16_23 H 0.660572 0.333823 0.348562
C23_23 C 0.6765(2) 0.3774(2) 0.4019(2)
N7_23 N 0.6323(3) 0.6531(2) 0.2901(3)
C24_23 C 0.6583(3) 0.5282(2) 0.3654(3)
H17_23 H 0.636409 0.516927 0.387615
C25_23 C 0.68493(19) 0.2936(2) 0.4508(2)
C26_23 C 0.6968(2) 0.5016(2) 0.3542(3)
C27_17 C 0.6881(3) 0.1773(3) 0.4983(4)
H18_17 H 0.690204 0.144287 0.498585
C28_23 C 0.7291(3) 0.5200(3) 0.3212(3)
H19_23 H 0.756170 0.502765 0.313074
C29_23 C 0.6892(2) 0.3767(2) 0.4487(2)
H20_23 H 0.695183 0.405434 0.464166
C30_23 C 0.6514(3) 0.5715(2) 0.3444(3)
H21_23 H 0.624858 0.589539 0.352549
C31_17 C 0.6904(3) 0.2070(3) 0.4603(3)
H22_17 H 0.693744 0.197850 0.428648
N8_23 N 0.6745(3) 0.6333(3) 0.2918(4)
C32_23 C 0.7210(3) 0.5623(3) 0.3013(4)
H23_23 H 0.742597 0.574260 0.279186
C33_23 C 0.6819(3) 0.5881(3) 0.3127(3)
C34_23 C 0.6395(4) 0.6938(4) 0.2708(5)
H24_23 H 0.615728 0.716372 0.265970
C35_23 C 0.6736(2) 0.2926(2) 0.4047(3)
H25_23 H 0.668785 0.263727 0.389229
C36_17 C 0.6821(3) 0.2060(3) 0.5342(3)
H26_17 H 0.678930 0.194941 0.565220
C37_23 C 0.6838(5) 0.7002(4) 0.2589(5)
H27_23 H 0.696620 0.726021 0.242587
C38_23 C 0.7067(5) 0.6623(4) 0.2746(5)
H28_23 H 0.739398 0.657188 0.273645
C1_24 C 0.0856(3) 0.0566(2) 0.7234(3)
H1_24 H 0.086023 0.048013 0.755389
N1_24 N 0.0012(2) 0.06307(18) 0.7262(2)
C2_24 C 0.0846(2) 0.0810(2) 0.6306(2)
H2_24 H 0.083823 0.089428 0.598562
C3_24 C 0.1274(2) 0.0735(2) 0.6519(2)
C4_24 C 0.2782(2) 0.0917(3) 0.6154(3)
H3_24 H 0.266927 0.113591 0.637615
C5_24 C 0.0436(2) 0.06507(19) 0.7008(2)
C6_24 C 0.2516(2) 0.0532(2) 0.6042(3)
C8_24 C 0.2700(3) 0.0209(3) 0.5712(3)
C9_24 C 0.1267(2) 0.0608(2) 0.6987(2)
H6_24 H 0.155434 0.054817 0.714166
C10_24 C 0.1716(2) 0.0784(2) 0.625000
C11_24 C 0.3215(2) 0.0986(3) 0.5944(3)
H7_24 H 0.339539 0.125142 0.602549
C13_24 C 0.2054(2) 0.0446(2) 0.625000
N4_24 N 0.3833(3) 0.0755(3) 0.5418(4)
C14_24 C 0.3123(3) 0.0290(3) 0.5513(4)
H9_24 H 0.324260 0.007403 0.529186
C15_24 C 0.3381(3) 0.0681(3) 0.5627(3)
C16_24 C 0.4438(4) 0.1105(4) 0.5208(5)
H10_24 H 0.466372 0.134272 0.515970
C17_24 C 0.0426(2) 0.0764(2) 0.6547(3)
H11_24 H 0.013727 0.081215 0.639229
C19_24 C 0.4502(4) 0.0662(5) 0.5089(5)
H13_24 H 0.476021 0.053380 0.492587
C20_24 C 0.4123(4) 0.0433(5) 0.5246(5)
H14_24 H 0.407188 0.010602 0.523645
C21_24 C 0.1934(2) 0.1644(3) 0.5266(3)
H15_24 H 0.201987 0.163977 0.494611
N5_24 N 0.18693(18) 0.2488(2) 0.5238(2)
N6_24 N 0.1809(2) 0.2485(2) 0.4762(2)
C22_24 C 0.1690(2) 0.1654(2) 0.6194(2)
H16_24 H 0.160572 0.166177 0.651438
C23_24 C 0.1765(2) 0.1226(2) 0.5981(2)
C25_24 C 0.18493(19) 0.2064(2) 0.5492(2)
C27_18 C 0.1881(3) 0.3227(3) 0.5017(4)
H18_18 H 0.190204 0.355713 0.501415
C29_24 C 0.1892(2) 0.1233(2) 0.5513(2)
H20_24 H 0.195183 0.094566 0.535834
C31_18 C 0.1904(3) 0.2930(3) 0.5397(3)
H22_18 H 0.193744 0.302150 0.571352
C35_24 C 0.1736(2) 0.2074(2) 0.5953(3)
H25_24 H 0.168785 0.236273 0.610771
C36_18 C 0.1821(3) 0.2940(3) 0.4658(3)
H26_18 H 0.178930 0.305059 0.434780
H5_24 H 0.252765 0.993830 0.563074
N7_24 N 0.1323(3) 0.8469(2) 0.7099(3)
C24_24 C 0.1583(3) 0.9718(2) 0.6346(3)
H17_24 H 0.136409 0.983073 0.612385
C26_24 C 0.1968(2) 0.9984(2) 0.6458(3)
C28_24 C 0.2291(3) 0.9800(3) 0.6788(3)
H19_24 H 0.256170 0.997235 0.686926
C30_24 C 0.1514(3) 0.9285(2) 0.6556(3)
H21_24 H 0.124858 0.910461 0.647451
N8_24 N 0.1745(3) 0.8667(3) 0.7082(4)
C32_24 C 0.2210(3) 0.9377(3) 0.6987(4)
H23_24 H 0.242597 0.925740 0.720814
C33_24 C 0.1819(3) 0.9119(3) 0.6873(3)
C34_24 C 0.1395(4) 0.8062(4) 0.7292(5)
H24_24 H 0.115728 0.783628 0.734030
C37_24 C 0.1838(5) 0.7998(4) 0.7411(5)
H27_24 H 0.196620 0.773979 0.757413
C38_24 C 0.2067(5) 0.8377(4) 0.7254(5)
H28_24 H 0.239398 0.842812 0.726355
C27_19 C 0.7517(4) 0.9273(3) 0.9381(3)
H18_19 H 0.751415 0.894287 0.940204
C31_19 C 0.7897(3) 0.9570(3) 0.9404(3)
H22_19 H 0.821352 0.947850 0.943744
C36_19 C 0.7158(3) 0.9560(3) 0.9321(3)
H26_19 H 0.684780 0.944941 0.928930
C27_20 C 0.7483(4) 0.0727(3) 0.4381(3)
H18_20 H 0.748585 0.105713 0.440204
C31_20 C 0.7103(3) 0.0430(3) 0.4404(3)
H22_20 H 0.678648 0.052150 0.443744
C36_20 C 0.7842(3) 0.0440(3) 0.4321(3)
H26_20 H 0.815220 0.055059 0.428930
C27_21 C 0.9381(3) 0.7517(4) 0.9273(3)
H18_21 H 0.940204 0.751415 0.894287
C31_21 C 0.9404(3) 0.7897(3) 0.9570(3)
H22_21 H 0.943744 0.821352 0.947850
C36_21 C 0.9321(3) 0.7158(3) 0.9560(3)
H26_21 H 0.928930 0.684780 0.944941
C27_22 C 0.4381(3) 0.7483(4) 0.0727(3)
H18_22 H 0.440204 0.748585 0.105713
C31_22 C 0.4404(3) 0.7103(3) 0.0430(3)
H22_22 H 0.443744 0.678648 0.052150
C36_22 C 0.4321(3) 0.7842(3) 0.0440(3)
H26_22 H 0.428930 0.815220 0.055059
C27_23 C 0.9273(3) 0.9381(3) 0.7517(4)
H18_23 H 0.894287 0.940204 0.751415
C31_23 C 0.9570(3) 0.9404(3) 0.7897(3)
H22_23 H 0.947850 0.943744 0.821352
C36_23 C 0.9560(3) 0.9321(3) 0.7158(3)
H26_23 H 0.944941 0.928930 0.684780
C27_24 C 0.0727(3) 0.4381(3) 0.7483(4)
H18_24 H 0.105713 0.440204 0.748585
C31_24 C 0.0430(3) 0.4404(3) 0.7103(3)
H22_24 H 0.052150 0.443744 0.678648
C36_24 C 0.0440(3) 0.4321(3) 0.7842(3)
H26_24 H 0.055059 0.428930 0.815220
C7_19 C 0.0619(3) 0.7483(4) 0.9273(3)
H4_19 H 0.059796 0.748585 0.894287
C12_19 C 0.0596(3) 0.7103(3) 0.9570(3)
H8_19 H 0.056256 0.678648 0.947850
C18_19 C 0.0679(3) 0.7842(3) 0.9560(3)
H12_19 H 0.071070 0.815220 0.944941
C7_20 C 0.5619(3) 0.7517(4) 0.0727(3)
H4_20 H 0.559796 0.751415 0.105713
C12_20 C 0.5596(3) 0.7897(3) 0.0430(3)
H8_20 H 0.556256 0.821352 0.052150
C18_20 C 0.5679(3) 0.7158(3) 0.0440(3)
H12_20 H 0.571070 0.684780 0.055059
C7_21 C 0.7517(4) 0.0727(3) 0.5619(3)
H4_21 H 0.751415 0.105713 0.559796
C12_21 C 0.7897(3) 0.0430(3) 0.5596(3)
H8_21 H 0.821352 0.052150 0.556256
C18_21 C 0.7158(3) 0.0440(3) 0.5679(3)
H12_21 H 0.684780 0.055059 0.571070
C7_22 C 0.7483(4) 0.9273(3) 0.0619(3)
H4_22 H 0.748585 0.894287 0.059796
C12_22 C 0.7103(3) 0.9570(3) 0.0596(3)
H8_22 H 0.678648 0.947850 0.056256
C18_22 C 0.7842(3) 0.9560(3) 0.0679(3)
H12_22 H 0.815220 0.944941 0.071070
C7_23 C 0.0727(3) 0.5619(3) 0.7517(4)
H4_23 H 0.105713 0.559796 0.751415
C12_23 C 0.0430(3) 0.5596(3) 0.7897(3)
H8_23 H 0.052150 0.556256 0.821352
C18_23 C 0.0440(3) 0.5679(3) 0.7158(3)
H12_23 H 0.055059 0.571070 0.684780
C7_24 C 0.9273(3) 0.0619(3) 0.7483(4)
H4_24 H 0.894287 0.059796 0.748585
C12_24 C 0.9570(3) 0.0596(3) 0.7103(3)
H8_24 H 0.947850 0.056256 0.678648
C18_24 C 0.9560(3) 0.0679(3) 0.7842(3)
H12_24 H 0.944941 0.071070 0.815220
P1 P 0.17759(8) 0.67759(8) 0.82241(8)
F1 F 0.1842(4) 0.6470(4) 0.7819(3)
F2 F 0.1375(5) 0.6826(5) 0.8587(5)
F3 F 0.2181(3) 0.6842(4) 0.8530(4)
F4 F 0.1413(5) 0.6375(5) 0.8174(5)
F5 F 0.1470(4) 0.7181(3) 0.8158(4)
F6 F 0.1826(5) 0.6413(5) 0.8625(5)
P1_2 P 0.32241(8) 0.32241(8) 0.32241(8)
F1_2 F 0.3158(4) 0.3530(4) 0.2819(3)
F2_2 F 0.3625(5) 0.3174(5) 0.3587(5)
F3_2 F 0.2819(3) 0.3158(4) 0.3530(4)
F4_2 F 0.3587(5) 0.3625(5) 0.3174(5)
F5_2 F 0.3530(4) 0.2819(3) 0.3158(4)
F6_2 F 0.3174(5) 0.3587(5) 0.3625(5)
P1_3 P 0.82241(8) 0.17759(8) 0.67759(8)
F1_3 F 0.8158(4) 0.1470(4) 0.7181(3)
F2_3 F 0.8625(5) 0.1826(5) 0.6413(5)
F3_3 F 0.7819(3) 0.1842(4) 0.6470(4)
F4_3 F 0.8587(5) 0.1375(5) 0.6826(5)
F5_3 F 0.8530(4) 0.2181(3) 0.6842(4)
F6_3 F 0.8174(5) 0.1413(5) 0.6375(5)
P1_4 P 0.67759(8) 0.82241(8) 0.17759(8)
F1_4 F 0.6842(4) 0.8530(4) 0.2181(3)
F2_4 F 0.6375(5) 0.8174(5) 0.1413(5)
F3_4 F 0.7181(3) 0.8158(4) 0.1470(4)
F4_4 F 0.6413(5) 0.8625(5) 0.1826(5)
F5_4 F 0.6470(4) 0.7819(3) 0.1842(4)
F6_4 F 0.6826(5) 0.8587(5) 0.1375(5)
P1_5 P 0.42759(8) 0.42759(8) 0.42759(8)
F1_5 F 0.3970(4) 0.4342(4) 0.4681(3)
F2_5 F 0.4326(5) 0.3875(5) 0.3913(5)
F3_5 F 0.4342(4) 0.4681(3) 0.3970(4)
F4_5 F 0.3875(5) 0.3913(5) 0.4326(5)
F5_5 F 0.4681(3) 0.3970(4) 0.4342(4)
F6_5 F 0.3913(5) 0.4326(5) 0.3875(5)
P1_6 P 0.07241(8) 0.57241(8) 0.92759(8)
F1_6 F 0.1030(4) 0.5658(4) 0.9681(3)
F2_6 F 0.0674(5) 0.6125(5) 0.8913(5)
F3_6 F 0.0658(4) 0.5319(3) 0.8970(4)
F4_6 F 0.1125(5) 0.6087(5) 0.9326(5)
F5_6 F 0.0319(3) 0.6030(4) 0.9342(4)
F6_6 F 0.1087(5) 0.5674(5) 0.8875(5)
P1_7 P 0.92759(8) 0.07241(8) 0.57241(8)
F1_7 F 0.8970(4) 0.0658(4) 0.5319(3)
F2_7 F 0.9326(5) 0.1125(5) 0.6087(5)
F3_7 F 0.9342(4) 0.0319(3) 0.6030(4)
F4_7 F 0.8875(5) 0.1087(5) 0.5674(5)
F5_7 F 0.9681(3) 0.1030(4) 0.5658(4)
F6_7 F 0.8913(5) 0.0674(5) 0.6125(5)
P1_8 P 0.57241(8) 0.92759(8) 0.07241(8)
F1_8 F 0.6030(4) 0.9342(4) 0.0319(3)
F2_8 F 0.5674(5) 0.8875(5) 0.1087(5)
F3_8 F 0.5658(4) 0.9681(3) 0.1030(4)
F4_8 F 0.6125(5) 0.8913(5) 0.0674(5)
F5_8 F 0.5319(3) 0.8970(4) 0.0658(4)
F6_8 F 0.6087(5) 0.9326(5) 0.1125(5)
P1_9 P 0.67759(8) 0.17759(8) 0.32241(8)
F1_9 F 0.6842(4) 0.1470(4) 0.2819(3)
F2_9 F 0.6375(5) 0.1826(5) 0.3587(5)
F3_9 F 0.7181(3) 0.1842(4) 0.3530(4)
F4_9 F 0.6413(5) 0.1375(5) 0.3174(5)
F5_9 F 0.6470(4) 0.2181(3) 0.3158(4)
F6_9 F 0.6826(5) 0.1413(5) 0.3625(5)
P1_10 P 0.82241(8) 0.82241(8) 0.82241(8)
F1_10 F 0.8158(4) 0.8530(4) 0.7819(3)
F2_10 F 0.8625(5) 0.8174(5) 0.8587(5)
F3_10 F 0.7819(3) 0.8158(4) 0.8530(4)
F4_10 F 0.8587(5) 0.8625(5) 0.8174(5)
F5_10 F 0.8530(4) 0.7819(3) 0.8158(4)
F6_10 F 0.8174(5) 0.8587(5) 0.8625(5)
P1_11 P 0.32241(8) 0.67759(8) 0.17759(8)
F1_11 F 0.3158(4) 0.6470(4) 0.2181(3)
F2_11 F 0.3625(5) 0.6826(5) 0.1413(5)
F3_11 F 0.2819(3) 0.6842(4) 0.1470(4)
F4_11 F 0.3587(5) 0.6375(5) 0.1826(5)
F5_11 F 0.3530(4) 0.7181(3) 0.1842(4)
F6_11 F 0.3174(5) 0.6413(5) 0.1375(5)
P1_12 P 0.17759(8) 0.32241(8) 0.67759(8)
F1_12 F 0.1842(4) 0.3530(4) 0.7181(3)
F2_12 F 0.1375(5) 0.3174(5) 0.6413(5)
F3_12 F 0.2181(3) 0.3158(4) 0.6470(4)
F4_12 F 0.1413(5) 0.3625(5) 0.6826(5)
F5_12 F 0.1470(4) 0.2819(3) 0.6842(4)
F6_12 F 0.1826(5) 0.3587(5) 0.6375(5)
P1_13 P 0.92759(8) 0.92759(8) 0.92759(8)
F1_13 F 0.8970(4) 0.9342(4) 0.9681(3)
F2_13 F 0.9326(5) 0.8875(5) 0.8913(5)
F3_13 F 0.9342(4) 0.9681(3) 0.8970(4)
F4_13 F 0.8875(5) 0.8913(5) 0.9326(5)
F5_13 F 0.9681(3) 0.8970(4) 0.9342(4)
F6_13 F 0.8913(5) 0.9326(5) 0.8875(5)
P1_14 P 0.57241(8) 0.07241(8) 0.42759(8)
F1_14 F 0.6030(4) 0.0658(4) 0.4681(3)
F2_14 F 0.5674(5) 0.1125(5) 0.3913(5)
F3_14 F 0.5658(4) 0.0319(3) 0.3970(4)
F4_14 F 0.6125(5) 0.1087(5) 0.4326(5)
F5_14 F 0.5319(3) 0.1030(4) 0.4342(4)
F6_14 F 0.6087(5) 0.0674(5) 0.3875(5)
P1_15 P 0.42759(8) 0.57241(8) 0.07241(8)
F1_15 F 0.3970(4) 0.5658(4) 0.0319(3)
F2_15 F 0.4326(5) 0.6125(5) 0.1087(5)
F3_15 F 0.4342(4) 0.5319(3) 0.1030(4)
F4_15 F 0.3875(5) 0.6087(5) 0.0674(5)
F5_15 F 0.4681(3) 0.6030(4) 0.0658(4)
F6_15 F 0.3913(5) 0.5674(5) 0.1125(5)
P1_16 P 0.07241(8) 0.42759(8) 0.57241(8)
F1_16 F 0.1030(4) 0.4342(4) 0.5319(3)
F2_16 F 0.0674(5) 0.3875(5) 0.6087(5)
F3_16 F 0.0658(4) 0.4681(3) 0.6030(4)
F4_16 F 0.1125(5) 0.3913(5) 0.5674(5)
F5_16 F 0.0319(3) 0.3970(4) 0.5658(4)
F6_16 F 0.1087(5) 0.4326(5) 0.6125(5)
loop_
_geom_bond_atom_site_label_1
_geom_bond_atom_site_label_2
_geom_bond_site_symmetry_1
_geom_bond_site_symmetry_2
C2 H2 1_555 1_555
C3 C2 1_555 1_555
N3 N4 1_555 1_555
C4 H3 1_555 1_555
C5 C1 1_555 1_555
C6 C4 1_555 1_555
C7 H4 1_555 1_555
C8 C6 1_555 1_555
H5 C8 1_555 1_555
C9 C1 1_555 1_555
H6 C9 1_555 1_555
C10 C3 1_555 1_555
C11 C4 1_555 1_555
H7 C11 1_555 1_555
C12 N1 1_555 1_555
H8 C12 1_555 1_555
C13 C6 1_555 1_555
N4 C15 1_555 1_555
C14 C8 1_555 1_555
H9 C14 1_555 1_555
C15 C11 1_555 1_555
C16 N3 1_555 1_555
H10 C16 1_555 1_555
C17 C2 1_555 1_555
H11 C17 1_555 1_555
C19 C16 1_555 1_555
H13 C19 1_555 1_555
C20 N4 1_555 1_555
H14 C20 1_555 1_555
C21 H15 1_555 1_555
N5 N6 1_555 1_555
N6 C36 1_555 1_555
C22 H16 1_555 1_555
C23 C10 1_555 1_555
N7 N8 1_555 1_555
C24 H17 1_555 1_555
C25 C21 1_555 1_555
C26 C13 1_555 1_555
C27 H18 1_555 1_555
C28 C26 1_555 1_555
H19 C28 1_555 1_555
C29 C21 1_555 1_555
H20 C29 1_555 1_555
C30 C24 1_555 1_555
H21 C30 1_555 1_555
C31 N5 1_555 1_555
H22 C31 1_555 1_555
N8 C33 1_555 1_555
C32 C28 1_555 1_555
H23 C32 1_555 1_555
C33 C30 1_555 1_555
C34 N7 1_555 1_555
H24 C34 1_555 1_555
C35 C22 1_555 1_555
H25 C35 1_555 1_555
C36 C27 1_555 1_555
H26 C36 1_555 1_555
C37 C34 1_555 1_555
C38 N8 1_555 1_555
H28 C38 1_555 1_555
Ag2 N3 1_555 1_555
Ag3 N7 1_555 1_555
Ag4 N6 1_555 1_555
N1 C5 1_555 1_555
C3 C9 1_555 1_555
C5 C17 1_555 1_555
C7 C12 1_555 1_555
C10 C13 1_555 1_555
C14 C15 1_555 1_555
C19 C20 1_555 1_555
N5 C25 1_555 1_555
C22 C23 1_555 1_555
C23 C29 1_555 1_555
C24 C26 1_555 1_555
C25 C35 1_555 1_555
C27 C31 1_555 1_555
C32 C33 1_555 1_555
C37 C38 1_555 1_555
Ag1 N2 1_555 1_555
N2 C18 1_555 1_555
H12 C18 1_555 1_555
N9 Ag1 1_555 1_555
N10 Ag1 1_555 1_555
N11 Ag1 1_555 1_555
Ag1_2 N2_2 1_555 1_555
C1_2 H1_2 1_555 1_555
N1_2 N2_2 1_555 1_555
N2_2 C18_2 1_555 1_555
C2_2 H2_2 1_555 1_555
C3_2 C2_2 1_555 1_555
C5_2 C1_2 1_555 1_555
C7_2 H4_2 1_555 1_555
C9_2 C1_2 1_555 1_555
H6_2 C9_2 1_555 1_555
C10_2 C3_2 1_555 1_555
C12_2 N1_2 1_555 1_555
H8_2 C12_2 1_555 1_555
C17_2 C2_2 1_555 1_555
H11_2 C17_2 1_555 1_555
C18_2 C7_2 1_555 1_555
H12_2 C18_2 1_555 1_555
C21_2 H15_2 1_555 1_555
N5_2 N6_2 1_555 1_555
N6_2 C36_2 1_555 1_555
C22_2 H16_2 1_555 1_555
C23_2 C10_2 1_555 1_555
N7_2 N8_2 1_555 1_555
C24_2 H17_2 1_555 1_555
C25_2 C21_2 1_555 1_555
C26_2 C13_2 1_555 1_555
C27_2 H18_2 1_555 1_555
C28_2 C26_2 1_555 1_555
C29_2 C21_2 1_555 1_555
H20_2 C29_2 1_555 1_555
C30_2 C24_2 1_555 1_555
H21_2 C30_2 1_555 1_555
C31_2 N5_2 1_555 1_555
H22_2 C31_2 1_555 1_555
N8_2 C33_2 1_555 1_555
C32_2 C28_2 1_555 1_555
H23_2 C32_2 1_555 1_555
C33_2 C30_2 1_555 1_555
C34_2 N7_2 1_555 1_555
H24_2 C34_2 1_555 1_555
C35_2 C22_2 1_555 1_555
H25_2 C35_2 1_555 1_555
C36_2 C27_2 1_555 1_555
H26_2 C36_2 1_555 1_555
C37_2 C34_2 1_555 1_555
H27_2 C37_2 1_555 1_555
C38_2 N8_2 1_555 1_555
H28_2 C38_2 1_555 1_555
Ag3_2 N7_2 1_555 1_555
Ag4_2 N6_2 1_555 1_555
N9_2 Ag1_2 1_555 1_555
N10_2 Ag1_2 1_555 1_555
N11_2 Ag1_2 1_555 1_555
N1_2 C5_2 1_555 1_555
C3_2 C9_2 1_555 1_555
C5_2 C17_2 1_555 1_555
C7_2 C12_2 1_555 1_555
C10_2 C13_2 1_555 1_555
N5_2 C25_2 1_555 1_555
C22_2 C23_2 1_555 1_555
C23_2 C29_2 1_555 1_555
C24_2 C26_2 1_555 1_555
C25_2 C35_2 1_555 1_555
C27_2 C31_2 1_555 1_555
C32_2 C33_2 1_555 1_555
C37_2 C38_2 1_555 1_555
N3_2 N4_2 1_555 1_555
C4_2 H3_2 1_555 1_555
C6_2 C4_2 1_555 1_555
C8_2 C6_2 1_555 1_555
H5_2 C8_2 1_555 1_555
C11_2 C4_2 1_555 1_555
H7_2 C11_2 1_555 1_555
N4_2 C15_2 1_555 1_555
C14_2 C8_2 1_555 1_555
H9_2 C14_2 1_555 1_555
C15_2 C11_2 1_555 1_555
C16_2 N3_2 1_555 1_555
H10_2 C16_2 1_555 1_555
C19_2 C16_2 1_555 1_555
H13_2 C19_2 1_555 1_555
C20_2 N4_2 1_555 1_555
H14_2 C20_2 1_555 1_555
Ag2_2 N3_2 1_555 1_555
C14_2 C15_2 1_555 1_555
C19_2 C20_2 1_555 1_555
Ag1_3 N2_3 1_555 1_555
N2_3 C18_3 1_555 1_555
H12_3 C18_3 1_555 1_555
N9_3 Ag1_3 1_555 1_555
N10_3 Ag1_3 1_555 1_555
N11_3 Ag1_3 1_555 1_555
N3_3 N4_3 1_555 1_555
C4_3 H3_3 1_555 1_555
C6_3 C4_3 1_555 1_555
C8_3 C6_3 1_555 1_555
H5_3 C8_3 1_555 1_555
C11_3 C4_3 1_555 1_555
H7_3 C11_3 1_555 1_555
N4_3 C15_3 1_555 1_555
C14_3 C8_3 1_555 1_555
H9_3 C14_3 1_555 1_555
C15_3 C11_3 1_555 1_555
C16_3 N3_3 1_555 1_555
H10_3 C16_3 1_555 1_555
C19_3 C16_3 1_555 1_555
H13_3 C19_3 1_555 1_555
C20_3 N4_3 1_555 1_555
H14_3 C20_3 1_555 1_555
Ag2_3 N3_3 1_555 1_555
C14_3 C15_3 1_555 1_555
C19_3 C20_3 1_555 1_555
C2_3 H2_3 1_555 1_555
C3_3 C2_3 1_555 1_555
C5_3 C1_3 1_555 1_555
C7_3 H4_3 1_555 1_555
C9_3 C1_3 1_555 1_555
H6_3 C9_3 1_555 1_555
C10_3 C3_3 1_555 1_555
C12_3 N1_3 1_555 1_555
H8_3 C12_3 1_555 1_555
C17_3 C2_3 1_555 1_555
H11_3 C17_3 1_555 1_555
C21_3 H15_3 1_555 1_555
N5_3 N6_3 1_555 1_555
C22_3 H16_3 1_555 1_555
C23_3 C10_3 1_555 1_555
N7_3 N8_3 1_555 1_555
C24_3 H17_3 1_555 1_555
C25_3 C21_3 1_555 1_555
C26_3 C13_3 1_555 1_555
C28_3 C26_3 1_555 1_555
C29_3 C21_3 1_555 1_555
H20_3 C29_3 1_555 1_555
C30_3 C24_3 1_555 1_555
H21_3 C30_3 1_555 1_555
N8_3 C33_3 1_555 1_555
C32_3 C28_3 1_555 1_555
H23_3 C32_3 1_555 1_555
C33_3 C30_3 1_555 1_555
C34_3 N7_3 1_555 1_555
H24_3 C34_3 1_555 1_555
C35_3 C22_3 1_555 1_555
H25_3 C35_3 1_555 1_555
C37_3 C34_3 1_555 1_555
C38_3 N8_3 1_555 1_555
H28_3 C38_3 1_555 1_555
Ag3_3 N7_3 1_555 1_555
Ag4_3 N6_3 1_555 1_555
N1_3 C5_3 1_555 1_555
C3_3 C9_3 1_555 1_555
C5_3 C17_3 1_555 1_555
C7_3 C12_3 1_555 1_555
C10_3 C13_3 1_555 1_555
N5_3 C25_3 1_555 1_555
C22_3 C23_3 1_555 1_555
C23_3 C29_3 1_555 1_555
C24_3 C26_3 1_555 1_555
C25_3 C35_3 1_555 1_555
C32_3 C33_3 1_555 1_555
C37_3 C38_3 1_555 1_555
Ag1_4 N2_4 1_555 1_555
C1_4 H1_4 1_555 1_555
N1_4 N2_4 1_555 1_555
N2_4 C18_4 1_555 1_555
C2_4 H2_4 1_555 1_555
C3_4 C2_4 1_555 1_555
N3_4 N4_4 1_555 1_555
C4_4 H3_4 1_555 1_555
C5_4 C1_4 1_555 1_555
C6_4 C4_4 1_555 1_555
C7_4 H4_4 1_555 1_555
C8_4 C6_4 1_555 1_555
H5_4 C8_4 1_555 1_555
C9_4 C1_4 1_555 1_555
H6_4 C9_4 1_555 1_555
C10_4 C3_4 1_555 1_555
C11_4 C4_4 1_555 1_555
H7_4 C11_4 1_555 1_555
C12_4 N1_4 1_555 1_555
H8_4 C12_4 1_555 1_555
C13_4 C6_4 1_555 1_555
N4_4 C15_4 1_555 1_555
C14_4 C8_4 1_555 1_555
H9_4 C14_4 1_555 1_555
C15_4 C11_4 1_555 1_555
C16_4 N3_4 1_555 1_555
H10_4 C16_4 1_555 1_555
C17_4 C2_4 1_555 1_555
H11_4 C17_4 1_555 1_555
C18_4 C7_4 1_555 1_555
H12_4 C18_4 1_555 1_555
C19_4 C16_4 1_555 1_555
H13_4 C19_4 1_555 1_555
C20_4 N4_4 1_555 1_555
H14_4 C20_4 1_555 1_555
C21_4 H15_4 1_555 1_555
N5_4 N6_4 1_555 1_555
C22_4 H16_4 1_555 1_555
C23_4 C10_4 1_555 1_555
N7_4 N8_4 1_555 1_555
C24_4 H17_4 1_555 1_555
C25_4 C21_4 1_555 1_555
C26_4 C13_4 1_555 1_555
C28_4 C26_4 1_555 1_555
H19_4 C28_4 1_555 1_555
C29_4 C21_4 1_555 1_555
H20_4 C29_4 1_555 1_555
C30_4 C24_4 1_555 1_555
H21_4 C30_4 1_555 1_555
N8_4 C33_4 1_555 1_555
C32_4 C28_4 1_555 1_555
H23_4 C32_4 1_555 1_555
C33_4 C30_4 1_555 1_555
C34_4 N7_4 1_555 1_555
H24_4 C34_4 1_555 1_555
C35_4 C22_4 1_555 1_555
H25_4 C35_4 1_555 1_555
C37_4 C34_4 1_555 1_555
H27_4 C37_4 1_555 1_555
C38_4 N8_4 1_555 1_555
H28_4 C38_4 1_555 1_555
Ag2_4 N3_4 1_555 1_555
Ag3_4 N7_4 1_555 1_555
Ag4_4 N6_4 1_555 1_555
N9_4 Ag1_4 1_555 1_555
N10_4 Ag1_4 1_555 1_555
N11_4 Ag1_4 1_555 1_555
N1_4 C5_4 1_555 1_555
C3_4 C9_4 1_555 1_555
C5_4 C17_4 1_555 1_555
C7_4 C12_4 1_555 1_555
C10_4 C13_4 1_555 1_555
C14_4 C15_4 1_555 1_555
C19_4 C20_4 1_555 1_555
N5_4 C25_4 1_555 1_555
C22_4 C23_4 1_555 1_555
C23_4 C29_4 1_555 1_555
C24_4 C26_4 1_555 1_555
C25_4 C35_4 1_555 1_555
C32_4 C33_4 1_555 1_555
C37_4 C38_4 1_555 1_555
C2_5 H2_5 1_555 1_555
C3_5 C2_5 1_555 1_555
N3_5 N4_5 1_555 1_555
C4_5 H3_5 1_555 1_555
C5_5 C1_5 1_555 1_555
C6_5 C4_5 1_555 1_555
C7_5 H4_5 1_555 1_555
C8_5 C6_5 1_555 1_555
H5_5 C8_5 1_555 1_555
C9_5 C1_5 1_555 1_555
H6_5 C9_5 1_555 1_555
C10_5 C3_5 1_555 1_555
C11_5 C4_5 1_555 1_555
H7_5 C11_5 1_555 1_555
C12_5 N1_5 1_555 1_555
H8_5 C12_5 1_555 1_555
C13_5 C6_5 1_555 1_555
N4_5 C15_5 1_555 1_555
C14_5 C8_5 1_555 1_555
H9_5 C14_5 1_555 1_555
C15_5 C11_5 1_555 1_555
C16_5 N3_5 1_555 1_555
H10_5 C16_5 1_555 1_555
C17_5 C2_5 1_555 1_555
H11_5 C17_5 1_555 1_555
C19_5 C16_5 1_555 1_555
H13_5 C19_5 1_555 1_555
C20_5 N4_5 1_555 1_555
H14_5 C20_5 1_555 1_555
C21_5 H15_5 1_555 1_555
N5_5 N6_5 1_555 1_555
N6_5 C36_3 1_555 1_555
C22_5 H16_5 1_555 1_555
C23_5 C10_5 1_555 1_555
N7_5 N8_5 1_555 1_555
C24_5 H17_5 1_555 1_555
C25_5 C21_5 1_555 1_555
C26_5 C13_5 1_555 1_555
C27_3 H18_3 1_555 1_555
C28_5 C26_5 1_555 1_555
H19_5 C28_5 1_555 1_555
C29_5 C21_5 1_555 1_555
H20_5 C29_5 1_555 1_555
C30_5 C24_5 1_555 1_555
H21_5 C30_5 1_555 1_555
C31_3 N5_5 1_555 1_555
H22_3 C31_3 1_555 1_555
N8_5 C33_5 1_555 1_555
C32_5 C28_5 1_555 1_555
H23_5 C32_5 1_555 1_555
C33_5 C30_5 1_555 1_555
C34_5 N7_5 1_555 1_555
H24_5 C34_5 1_555 1_555
C35_5 C22_5 1_555 1_555
H25_5 C35_5 1_555 1_555
C36_3 C27_3 1_555 1_555
H26_3 C36_3 1_555 1_555
C37_5 C34_5 1_555 1_555
C38_5 N8_5 1_555 1_555
H28_5 C38_5 1_555 1_555
Ag2_5 N3_5 1_555 1_555
Ag4_3 N7_5 1_555 1_555
Ag4_5 N6_5 1_555 1_555
N1_5 C5_5 1_555 1_555
C3_5 C9_5 1_555 1_555
C5_5 C17_5 1_555 1_555
C7_5 C12_5 1_555 1_555
C10_5 C13_5 1_555 1_555
C14_5 C15_5 1_555 1_555
C19_5 C20_5 1_555 1_555
N5_5 C25_5 1_555 1_555
C22_5 C23_5 1_555 1_555
C23_5 C29_5 1_555 1_555
C24_5 C26_5 1_555 1_555
C25_5 C35_5 1_555 1_555
C27_3 C31_3 1_555 1_555
C32_5 C33_5 1_555 1_555
C37_5 C38_5 1_555 1_555
Ag2_4 N2_5 1_555 1_555
N2_5 C18_5 1_555 1_555
H12_5 C18_5 1_555 1_555
N9_5 Ag2_4 1_555 1_555
N11_5 Ag2_4 1_555 1_555
Ag2 N2_6 1_555 1_555
C1_6 H1_6 1_555 1_555
N1_6 N2_6 1_555 1_555
N2_6 C18_6 1_555 1_555
C2_6 H2_6 1_555 1_555
C3_6 C2_6 1_555 1_555
C5_6 C1_6 1_555 1_555
C7_6 H4_6 1_555 1_555
C9_6 C1_6 1_555 1_555
H6_6 C9_6 1_555 1_555
C10_6 C3_6 1_555 1_555
C12_6 N1_6 1_555 1_555
H8_6 C12_6 1_555 1_555
C17_6 C2_6 1_555 1_555
H11_6 C17_6 1_555 1_555
C18_6 C7_6 1_555 1_555
H12_6 C18_6 1_555 1_555
C21_6 H15_6 1_555 1_555
N5_6 N6_6 1_555 1_555
N6_6 C36_4 1_555 1_555
C22_6 H16_6 1_555 1_555
C23_6 C10_6 1_555 1_555
N7_6 N8_6 1_555 1_555
C24_6 H17_6 1_555 1_555
C25_6 C21_6 1_555 1_555
C26_6 C13_6 1_555 1_555
C27_4 H18_4 1_555 1_555
C28_6 C26_6 1_555 1_555
C29_6 C21_6 1_555 1_555
H20_6 C29_6 1_555 1_555
C30_6 C24_6 1_555 1_555
H21_6 C30_6 1_555 1_555
C31_4 N5_6 1_555 1_555
H22_4 C31_4 1_555 1_555
N8_6 C33_6 1_555 1_555
C32_6 C28_6 1_555 1_555
H23_6 C32_6 1_555 1_555
C33_6 C30_6 1_555 1_555
C34_6 N7_6 1_555 1_555
H24_6 C34_6 1_555 1_555
C35_6 C22_6 1_555 1_555
H25_6 C35_6 1_555 1_555
C36_4 C27_4 1_555 1_555
H26_4 C36_4 1_555 1_555
C37_6 C34_6 1_555 1_555
H27_6 C37_6 1_555 1_555
C38_6 N8_6 1_555 1_555
H28_6 C38_6 1_555 1_555
Ag4_2 N7_6 1_555 1_555
Ag4_6 N6_6 1_555 1_555
N9_6 Ag2 1_555 1_555
N11_6 Ag2 1_555 1_555
N1_6 C5_6 1_555 1_555
C3_6 C9_6 1_555 1_555
C5_6 C17_6 1_555 1_555
C7_6 C12_6 1_555 1_555
C10_6 C13_6 1_555 1_555
N5_6 C25_6 1_555 1_555
C22_6 C23_6 1_555 1_555
C23_6 C29_6 1_555 1_555
C24_6 C26_6 1_555 1_555
C25_6 C35_6 1_555 1_555
C27_4 C31_4 1_555 1_555
C32_6 C33_6 1_555 1_555
C37_6 C38_6 1_555 1_555
N3_6 N4_6 1_555 1_555
C4_6 H3_6 1_555 1_555
C6_6 C4_6 1_555 1_555
C8_6 C6_6 1_555 1_555
H5_6 C8_6 1_555 1_555
C11_6 C4_6 1_555 1_555
H7_6 C11_6 1_555 1_555
N4_6 C15_6 1_555 1_555
C14_6 C8_6 1_555 1_555
H9_6 C14_6 1_555 1_555
C15_6 C11_6 1_555 1_555
C16_6 N3_6 1_555 1_555
H10_6 C16_6 1_555 1_555
C19_6 C16_6 1_555 1_555
H13_6 C19_6 1_555 1_555
C20_6 N4_6 1_555 1_555
H14_6 C20_6 1_555 1_555
Ag2_6 N3_6 1_555 1_555
C14_6 C15_6 1_555 1_555
C19_6 C20_6 1_555 1_555
N3_7 N4_7 1_555 1_555
C4_7 H3_7 1_555 1_555
C6_7 C4_7 1_555 1_555
C8_7 C6_7 1_555 1_555
H5_7 C8_7 1_555 1_555
C11_7 C4_7 1_555 1_555
H7_7 C11_7 1_555 1_555
N4_7 C15_7 1_555 1_555
C14_7 C8_7 1_555 1_555
H9_7 C14_7 1_555 1_555
C15_7 C11_7 1_555 1_555
C16_7 N3_7 1_555 1_555
H10_7 C16_7 1_555 1_555
C19_7 C16_7 1_555 1_555
H13_7 C19_7 1_555 1_555
C20_7 N4_7 1_555 1_555
H14_7 C20_7 1_555 1_555
Ag2_7 N3_7 1_555 1_555
C14_7 C15_7 1_555 1_555
C19_7 C20_7 1_555 1_555
Ag2_3 N2_7 1_555 1_555
N2_7 C18_7 1_555 1_555
H12_7 C18_7 1_555 1_555
N9_7 Ag2_3 1_555 1_555
N11_7 Ag2_3 1_555 1_555
C2_7 H2_7 1_555 1_555
C3_7 C2_7 1_555 1_555
C5_7 C1_7 1_555 1_555
C7_7 H4_7 1_555 1_555
C9_7 C1_7 1_555 1_555
H6_7 C9_7 1_555 1_555
C10_7 C3_7 1_555 1_555
C12_7 N1_7 1_555 1_555
H8_7 C12_7 1_555 1_555
C17_7 C2_7 1_555 1_555
H11_7 C17_7 1_555 1_555
C21_7 H15_7 1_555 1_555
N5_7 N6_7 1_555 1_555
C22_7 H16_7 1_555 1_555
C23_7 C10_7 1_555 1_555
N7_7 N8_7 1_555 1_555
C24_7 H17_7 1_555 1_555
C25_7 C21_7 1_555 1_555
C26_7 C13_7 1_555 1_555
C28_7 C26_7 1_555 1_555
C29_7 C21_7 1_555 1_555
H20_7 C29_7 1_555 1_555
C30_7 C24_7 1_555 1_555
H21_7 C30_7 1_555 1_555
N8_7 C33_7 1_555 1_555
C32_7 C28_7 1_555 1_555
H23_7 C32_7 1_555 1_555
C33_7 C30_7 1_555 1_555
C34_7 N7_7 1_555 1_555
H24_7 C34_7 1_555 1_555
C35_7 C22_7 1_555 1_555
H25_7 C35_7 1_555 1_555
C37_7 C34_7 1_555 1_555
C38_7 N8_7 1_555 1_555
H28_7 C38_7 1_555 1_555
Ag4_4 N7_7 1_555 1_555
Ag4_7 N6_7 1_555 1_555
N1_7 C5_7 1_555 1_555
C3_7 C9_7 1_555 1_555
C5_7 C17_7 1_555 1_555
C7_7 C12_7 1_555 1_555
C10_7 C13_7 1_555 1_555
N5_7 C25_7 1_555 1_555
C22_7 C23_7 1_555 1_555
C23_7 C29_7 1_555 1_555
C24_7 C26_7 1_555 1_555
C25_7 C35_7 1_555 1_555
C32_7 C33_7 1_555 1_555
C37_7 C38_7 1_555 1_555
Ag2_2 N2_8 1_555 1_555
C1_8 H1_8 1_555 1_555
N1_8 N2_8 1_555 1_555
N2_8 C18_8 1_555 1_555
C2_8 H2_8 1_555 1_555
C3_8 C2_8 1_555 1_555
N3_8 N4_8 1_555 1_555
C4_8 H3_8 1_555 1_555
C5_8 C1_8 1_555 1_555
C6_8 C4_8 1_555 1_555
C7_8 H4_8 1_555 1_555
C8_8 C6_8 1_555 1_555
H5_8 C8_8 1_555 1_555
C9_8 C1_8 1_555 1_555
H6_8 C9_8 1_555 1_555
C10_8 C3_8 1_555 1_555
C11_8 C4_8 1_555 1_555
H7_8 C11_8 1_555 1_555
C12_8 N1_8 1_555 1_555
H8_8 C12_8 1_555 1_555
C13_8 C6_8 1_555 1_555
N4_8 C15_8 1_555 1_555
C14_8 C8_8 1_555 1_555
H9_8 C14_8 1_555 1_555
C15_8 C11_8 1_555 1_555
C16_8 N3_8 1_555 1_555
H10_8 C16_8 1_555 1_555
C17_8 C2_8 1_555 1_555
H11_8 C17_8 1_555 1_555
C18_8 C7_8 1_555 1_555
H12_8 C18_8 1_555 1_555
C19_8 C16_8 1_555 1_555
H13_8 C19_8 1_555 1_555
C20_8 N4_8 1_555 1_555
H14_8 C20_8 1_555 1_555
C21_8 H15_8 1_555 1_555
N5_8 N6_8 1_555 1_555
C22_8 H16_8 1_555 1_555
C23_8 C10_8 1_555 1_555
N7_8 N8_8 1_555 1_555
C24_8 H17_8 1_555 1_555
C25_8 C21_8 1_555 1_555
C26_8 C13_8 1_555 1_555
C28_8 C26_8 1_555 1_555
H19_8 C28_8 1_555 1_555
C29_8 C21_8 1_555 1_555
H20_8 C29_8 1_555 1_555
C30_8 C24_8 1_555 1_555
H21_8 C30_8 1_555 1_555
N8_8 C33_8 1_555 1_555
C32_8 C28_8 1_555 1_555
H23_8 C32_8 1_555 1_555
C33_8 C30_8 1_555 1_555
C34_8 N7_8 1_555 1_555
H24_8 C34_8 1_555 1_555
C35_8 C22_8 1_555 1_555
H25_8 C35_8 1_555 1_555
C37_8 C34_8 1_555 1_555
H27_8 C37_8 1_555 1_555
C38_8 N8_8 1_555 1_555
H28_8 C38_8 1_555 1_555
Ag2_8 N3_8 1_555 1_555
Ag4 N7_8 1_555 1_555
Ag4_8 N6_8 1_555 1_555
N9_8 Ag2_2 1_555 1_555
N11_8 Ag2_2 1_555 1_555
N1_8 C5_8 1_555 1_555
C3_8 C9_8 1_555 1_555
C5_8 C17_8 1_555 1_555
C7_8 C12_8 1_555 1_555
C10_8 C13_8 1_555 1_555
C14_8 C15_8 1_555 1_555
C19_8 C20_8 1_555 1_555
N5_8 C25_8 1_555 1_555
C22_8 C23_8 1_555 1_555
C23_8 C29_8 1_555 1_555
C24_8 C26_8 1_555 1_555
C25_8 C35_8 1_555 1_555
C32_8 C33_8 1_555 1_555
C37_8 C38_8 1_555 1_555
C2_9 H2_9 1_555 1_555
C3_9 C2_9 1_555 1_555
N10_2 N4_9 1_555 1_555
C4_9 H3_9 1_555 1_555
C5_9 C1_9 1_555 1_555
C6_9 C4_9 1_555 1_555
C7_9 H4_9 1_555 1_555
C8_9 C6_9 1_555 1_555
H5_9 C8_9 1_555 1_555
C9_9 C1_9 1_555 1_555
H6_9 C9_9 1_555 1_555
C10_9 C3_9 1_555 1_555
C11_9 C4_9 1_555 1_555
H7_9 C11_9 1_555 1_555
C12_9 N1_9 1_555 1_555
H8_9 C12_9 1_555 1_555
C13_9 C6_9 1_555 1_555
N4_9 C15_9 1_555 1_555
C14_9 C8_9 1_555 1_555
H9_9 C14_9 1_555 1_555
C15_9 C11_9 1_555 1_555
C16_9 N10_2 1_555 1_555
H10_9 C16_9 1_555 1_555
C17_9 C2_9 1_555 1_555
H11_9 C17_9 1_555 1_555
C19_9 C16_9 1_555 1_555
H13_9 C19_9 1_555 1_555
C20_9 N4_9 1_555 1_555
H14_9 C20_9 1_555 1_555
C21_9 H15_9 1_555 1_555
N5_9 N6_9 1_555 1_555
N6_9 C36_5 1_555 1_555
C22_9 H16_9 1_555 1_555
C23_9 C10_9 1_555 1_555
N7_9 N8_9 1_555 1_555
C24_9 H17_9 1_555 1_555
C25_9 C21_9 1_555 1_555
C26_9 C13_9 1_555 1_555
C27_5 H18_5 1_555 1_555
C28_9 C26_9 1_555 1_555
H19_9 C28_9 1_555 1_555
C29_9 C21_9 1_555 1_555
H20_9 C29_9 1_555 1_555
C30_9 C24_9 1_555 1_555
H21_9 C30_9 1_555 1_555
C31_5 N5_9 1_555 1_555
H22_5 C31_5 1_555 1_555
N8_9 C33_9 1_555 1_555
C32_9 C28_9 1_555 1_555
H23_9 C32_9 1_555 1_555
C33_9 C30_9 1_555 1_555
C34_9 N7_9 1_555 1_555
H24_9 C34_9 1_555 1_555
C35_9 C22_9 1_555 1_555
H25_9 C35_9 1_555 1_555
C36_5 C27_5 1_555 1_555
H26_5 C36_5 1_555 1_555
C37_9 C34_9 1_555 1_555
C38_9 N8_9 1_555 1_555
H28_9 C38_9 1_555 1_555
Ag4_7 N7_9 1_555 1_555
Ag3_4 N6_9 1_555 1_555
N1_9 C5_9 1_555 1_555
C3_9 C9_9 1_555 1_555
C5_9 C17_9 1_555 1_555
C7_9 C12_9 1_555 1_555
C10_9 C13_9 1_555 1_555
C14_9 C15_9 1_555 1_555
C19_9 C20_9 1_555 1_555
N5_9 C25_9 1_555 1_555
C22_9 C23_9 1_555 1_555
C23_9 C29_9 1_555 1_555
C24_9 C26_9 1_555 1_555
C25_9 C35_9 1_555 1_555
C27_5 C31_5 1_555 1_555
C32_9 C33_9 1_555 1_555
C37_9 C38_9 1_555 1_555
Ag2_8 N2_9 1_555 1_555
N2_9 C18_9 1_555 1_555
H12_9 C18_9 1_555 1_555
N9_9 Ag2_8 1_555 1_555
N11_9 Ag2_8 1_555 1_555
Ag2_5 N2_10 1_555 1_555
C1_10 H1_10 1_555 1_555
N1_10 N2_10 1_555 1_555
N2_10 C18_10 1_555 1_555
C2_10 H2_10 1_555 1_555
C3_10 C2_10 1_555 1_555
C5_10 C1_10 1_555 1_555
C7_10 H4_10 1_555 1_555
C9_10 C1_10 1_555 1_555
H6_10 C9_10 1_555 1_555
C10_10 C3_10 1_555 1_555
C12_10 N1_10 1_555 1_555
H8_10 C12_10 1_555 1_555
C17_10 C2_10 1_555 1_555
H11_10 C17_10 1_555 1_555
C18_10 C7_10 1_555 1_555
H12_10 C18_10 1_555 1_555
C21_10 H15_10 1_555 1_555
N5_10 N6_10 1_555 1_555
N6_10 C36_6 1_555 1_555
C22_10 H16_10 1_555 1_555
C23_10 C10_10 1_555 1_555
N7_10 N8_10 1_555 1_555
C24_10 H17_10 1_555 1_555
C25_10 C21_10 1_555 1_555
C26_10 C13_10 1_555 1_555
C27_6 H18_6 1_555 1_555
C28_10 C26_10 1_555 1_555
C29_10 C21_10 1_555 1_555
H20_10 C29_10 1_555 1_555
C30_10 C24_10 1_555 1_555
H21_10 C30_10 1_555 1_555
C31_6 N5_10 1_555 1_555
H22_6 C31_6 1_555 1_555
N8_10 C33_10 1_555 1_555
C32_10 C28_10 1_555 1_555
H23_10 C32_10 1_555 1_555
C33_10 C30_10 1_555 1_555
C34_10 N7_10 1_555 1_555
H24_10 C34_10 1_555 1_555
C35_10 C22_10 1_555 1_555
H25_10 C35_10 1_555 1_555
C36_6 C27_6 1_555 1_555
H26_6 C36_6 1_555 1_555
C37_10 C34_10 1_555 1_555
H27_10 C37_10 1_555 1_555
C38_10 N8_10 1_555 1_555
H28_10 C38_10 1_555 1_555
Ag4_6 N7_10 1_555 1_555
Ag3_2 N6_10 1_555 1_555
N9_10 Ag2_5 1_555 1_555
N11_10 Ag2_5 1_555 1_555
N1_10 C5_10 1_555 1_555
C3_10 C9_10 1_555 1_555
C5_10 C17_10 1_555 1_555
C7_10 C12_10 1_555 1_555
C10_10 C13_10 1_555 1_555
N5_10 C25_10 1_555 1_555
C22_10 C23_10 1_555 1_555
C23_10 C29_10 1_555 1_555
C24_10 C26_10 1_555 1_555
C25_10 C35_10 1_555 1_555
C27_6 C31_6 1_555 1_555
C32_10 C33_10 1_555 1_555
C37_10 C38_10 1_555 1_555
N10_4 N4_10 1_555 1_555
C4_10 H3_10 1_555 1_555
C6_10 C4_10 1_555 1_555
C8_10 C6_10 1_555 1_555
H5_10 C8_10 1_555 1_555
C11_10 C4_10 1_555 1_555
H7_10 C11_10 1_555 1_555
N4_10 C15_10 1_555 1_555
C14_10 C8_10 1_555 1_555
H9_10 C14_10 1_555 1_555
C15_10 C11_10 1_555 1_555
C16_10 N10_4 1_555 1_555
H10_10 C16_10 1_555 1_555
C19_10 C16_10 1_555 1_555
H13_10 C19_10 1_555 1_555
C20_10 N4_10 1_555 1_555
H14_10 C20_10 1_555 1_555
C14_10 C15_10 1_555 1_555
C19_10 C20_10 1_555 1_555
N10_3 N4_11 1_555 1_555
C4_11 H3_11 1_555 1_555
C6_11 C4_11 1_555 1_555
C8_11 C6_11 1_555 1_555
H5_11 C8_11 1_555 1_555
C11_11 C4_11 1_555 1_555
H7_11 C11_11 1_555 1_555
N4_11 C15_11 1_555 1_555
C14_11 C8_11 1_555 1_555
H9_11 C14_11 1_555 1_555
C15_11 C11_11 1_555 1_555
C16_11 N10_3 1_555 1_555
H10_11 C16_11 1_555 1_555
C19_11 C16_11 1_555 1_555
H13_11 C19_11 1_555 1_555
C20_11 N4_11 1_555 1_555
H14_11 C20_11 1_555 1_555
C14_11 C15_11 1_555 1_555
C19_11 C20_11 1_555 1_555
Ag2_7 N2_11 1_555 1_555
N2_11 C18_11 1_555 1_555
H12_11 C18_11 1_555 1_555
N9_11 Ag2_7 1_555 1_555
N11_11 Ag2_7 1_555 1_555
C2_11 H2_11 1_555 1_555
C3_11 C2_11 1_555 1_555
C5_11 C1_11 1_555 1_555
C7_11 H4_11 1_555 1_555
C9_11 C1_11 1_555 1_555
H6_11 C9_11 1_555 1_555
C10_11 C3_11 1_555 1_555
C12_11 N1_11 1_555 1_555
H8_11 C12_11 1_555 1_555
C17_11 C2_11 1_555 1_555
H11_11 C17_11 1_555 1_555
C21_11 H15_11 1_555 1_555
N5_11 N6_11 1_555 1_555
C22_11 H16_11 1_555 1_555
C23_11 C10_11 1_555 1_555
N7_11 N8_11 1_555 1_555
C24_11 H17_11 1_555 1_555
C25_11 C21_11 1_555 1_555
C26_11 C13_11 1_555 1_555
C28_11 C26_11 1_555 1_555
C29_11 C21_11 1_555 1_555
H20_11 C29_11 1_555 1_555
C30_11 C24_11 1_555 1_555
H21_11 C30_11 1_555 1_555
N8_11 C33_11 1_555 1_555
C32_11 C28_11 1_555 1_555
H23_11 C32_11 1_555 1_555
C33_11 C30_11 1_555 1_555
C34_11 N7_11 1_555 1_555
H24_11 C34_11 1_555 1_555
C35_11 C22_11 1_555 1_555
H25_11 C35_11 1_555 1_555
C37_11 C34_11 1_555 1_555
C38_11 N8_11 1_555 1_555
H28_11 C38_11 1_555 1_555
Ag4_8 N7_11 1_555 1_555
Ag3 N6_11 1_555 1_555
N1_11 C5_11 1_555 1_555
C3_11 C9_11 1_555 1_555
C5_11 C17_11 1_555 1_555
C7_11 C12_11 1_555 1_555
C10_11 C13_11 1_555 1_555
N5_11 C25_11 1_555 1_555
C22_11 C23_11 1_555 1_555
C23_11 C29_11 1_555 1_555
C24_11 C26_11 1_555 1_555
C25_11 C35_11 1_555 1_555
C32_11 C33_11 1_555 1_555
C37_11 C38_11 1_555 1_555
Ag2_6 N2_12 1_555 1_555
C1_12 H1_12 1_555 1_555
N1_12 N2_12 1_555 1_555
N2_12 C18_12 1_555 1_555
C2_12 H2_12 1_555 1_555
C3_12 C2_12 1_555 1_555
N10 N4_12 1_555 1_555
C4_12 H3_12 1_555 1_555
C5_12 C1_12 1_555 1_555
C6_12 C4_12 1_555 1_555
C7_12 H4_12 1_555 1_555
C8_12 C6_12 1_555 1_555
H5_12 C8_12 1_555 1_555
C9_12 C1_12 1_555 1_555
H6_12 C9_12 1_555 1_555
C10_12 C3_12 1_555 1_555
C11_12 C4_12 1_555 1_555
H7_12 C11_12 1_555 1_555
C12_12 N1_12 1_555 1_555
H8_12 C12_12 1_555 1_555
C13_12 C6_12 1_555 1_555
N4_12 C15_12 1_555 1_555
C14_12 C8_12 1_555 1_555
H9_12 C14_12 1_555 1_555
C15_12 C11_12 1_555 1_555
C16_12 N10 1_555 1_555
H10_12 C16_12 1_555 1_555
C17_12 C2_12 1_555 1_555
H11_12 C17_12 1_555 1_555
C18_12 C7_12 1_555 1_555
H12_12 C18_12 1_555 1_555
C19_12 C16_12 1_555 1_555
H13_12 C19_12 1_555 1_555
C20_12 N4_12 1_555 1_555
H14_12 C20_12 1_555 1_555
C21_12 H15_12 1_555 1_555
N5_12 N6_12 1_555 1_555
C22_12 H16_12 1_555 1_555
C23_12 C10_12 1_555 1_555
N7_12 N8_12 1_555 1_555
C24_12 H17_12 1_555 1_555
C25_12 C21_12 1_555 1_555
C26_12 C13_12 1_555 1_555
C28_12 C26_12 1_555 1_555
H19_12 C28_12 1_555 1_555
C29_12 C21_12 1_555 1_555
H20_12 C29_12 1_555 1_555
C30_12 C24_12 1_555 1_555
H21_12 C30_12 1_555 1_555
N8_12 C33_12 1_555 1_555
C32_12 C28_12 1_555 1_555
H23_12 C32_12 1_555 1_555
C33_12 C30_12 1_555 1_555
C34_12 N7_12 1_555 1_555
H24_12 C34_12 1_555 1_555
C35_12 C22_12 1_555 1_555
H25_12 C35_12 1_555 1_555
C37_12 C34_12 1_555 1_555
H27_12 C37_12 1_555 1_555
C38_12 N8_12 1_555 1_555
H28_12 C38_12 1_555 1_555
Ag4_5 N7_12 1_555 1_555
Ag3_3 N6_12 1_555 1_555
N9_12 Ag2_6 1_555 1_555
N11_12 Ag2_6 1_555 1_555
N1_12 C5_12 1_555 1_555
C3_12 C9_12 1_555 1_555
C5_12 C17_12 1_555 1_555
C7_12 C12_12 1_555 1_555
C10_12 C13_12 1_555 1_555
C14_12 C15_12 1_555 1_555
C19_12 C20_12 1_555 1_555
N5_12 C25_12 1_555 1_555
C22_12 C23_12 1_555 1_555
C23_12 C29_12 1_555 1_555
C24_12 C26_12 1_555 1_555
C25_12 C35_12 1_555 1_555
C32_12 C33_12 1_555 1_555
C37_12 C38_12 1_555 1_555
C1_13 H1_13 1_555 1_555
N1_13 N9_10 1_555 1_555
N9_10 C18_13 1_555 1_555
C2_13 H2_13 1_555 1_555
C3_13 C2_13 1_555 1_555
N11_8 N4_13 1_555 1_555
C4_13 H3_13 1_555 1_555
C5_13 C1_13 1_555 1_555
C6_13 C4_13 1_555 1_555
C7_13 H4_13 1_555 1_555
C8_13 C6_13 1_555 1_555
H5_13 C8_13 1_555 1_555
C9_13 C1_13 1_555 1_555
H6_13 C9_13 1_555 1_555
C10_13 C3_13 1_555 1_555
C11_13 C4_13 1_555 1_555
H7_13 C11_13 1_555 1_555
C12_13 N1_13 1_555 1_555
H8_13 C12_13 1_555 1_555
C13_13 C6_13 1_555 1_555
N4_13 C15_13 1_555 1_555
C14_13 C8_13 1_555 1_555
H9_13 C14_13 1_555 1_555
C15_13 C11_13 1_555 1_555
C16_13 N11_8 1_555 1_555
H10_13 C16_13 1_555 1_555
C17_13 C2_13 1_555 1_555
H11_13 C17_13 1_555 1_555
C18_13 C7_13 1_555 1_555
H12_13 C18_13 1_555 1_555
C19_13 C16_13 1_555 1_555
H13_13 C19_13 1_555 1_555
C20_13 N4_13 1_555 1_555
H14_13 C20_13 1_555 1_555
C21_13 H15_13 1_555 1_555
N5_13 N6_13 1_555 1_555
N6_13 C36_7 1_555 1_555
C22_13 H16_13 1_555 1_555
C23_13 C10_13 1_555 1_555
N7_13 N8_13 1_555 1_555
C24_13 H17_13 1_555 1_555
C25_13 C21_13 1_555 1_555
C26_13 C13_13 1_555 1_555
C27_7 H18_7 1_555 1_555
C28_13 C26_13 1_555 1_555
H19_13 C28_13 1_555 1_555
C29_13 C21_13 1_555 1_555
H20_13 C29_13 1_555 1_555
C30_13 C24_13 1_555 1_555
H21_13 C30_13 1_555 1_555
C31_7 N5_13 1_555 1_555
H22_7 C31_7 1_555 1_555
N8_13 C33_13 1_555 1_555
C32_13 C28_13 1_555 1_555
H23_13 C32_13 1_555 1_555
C33_13 C30_13 1_555 1_555
C34_13 N7_13 1_555 1_555
H24_13 C34_13 1_555 1_555
C35_13 C22_13 1_555 1_555
H25_13 C35_13 1_555 1_555
C36_7 C27_7 1_555 1_555
H26_7 C36_7 1_555 1_555
C37_13 C34_13 1_555 1_555
H27_13 C37_13 1_555 1_555
C38_13 N8_13 1_555 1_555
H28_13 C38_13 1_555 1_555
Ag4_5 N7_13 1_555 1_555
Ag4 N6_13 1_555 1_555
N1_13 C5_13 1_555 1_555
C3_13 C9_13 1_555 1_555
C5_13 C17_13 1_555 1_555
C7_13 C12_13 1_555 1_555
C10_13 C13_13 1_555 1_555
C14_13 C15_13 1_555 1_555
C19_13 C20_13 1_555 1_555
N5_13 C25_13 1_555 1_555
C22_13 C23_13 1_555 1_555
C23_13 C29_13 1_555 1_555
C24_13 C26_13 1_555 1_555
C25_13 C35_13 1_555 1_555
C27_7 C31_7 1_555 1_555
C32_13 C33_13 1_555 1_555
C37_13 C38_13 1_555 1_555
C1_14 H1_14 1_555 1_555
N1_14 N9_11 1_555 1_555
C2_14 H2_14 1_555 1_555
C3_14 C2_14 1_555 1_555
N11_6 N4_14 1_555 1_555
C4_14 H3_14 1_555 1_555
C5_14 C1_14 1_555 1_555
C6_14 C4_14 1_555 1_555
C8_14 C6_14 1_555 1_555
C9_14 C1_14 1_555 1_555
H6_14 C9_14 1_555 1_555
C10_14 C3_14 1_555 1_555
C11_14 C4_14 1_555 1_555
H7_14 C11_14 1_555 1_555
C13_14 C6_14 1_555 1_555
N4_14 C15_14 1_555 1_555
C14_14 C8_14 1_555 1_555
H9_14 C14_14 1_555 1_555
C15_14 C11_14 1_555 1_555
C16_14 N11_6 1_555 1_555
H10_14 C16_14 1_555 1_555
C17_14 C2_14 1_555 1_555
H11_14 C17_14 1_555 1_555
C19_14 C16_14 1_555 1_555
H13_14 C19_14 1_555 1_555
C20_14 N4_14 1_555 1_555
H14_14 C20_14 1_555 1_555
C21_14 H15_14 1_555 1_555
N5_14 N6_14 1_555 1_555
N6_14 C36_8 1_555 1_555
C22_14 H16_14 1_555 1_555
C23_14 C10_14 1_555 1_555
C25_14 C21_14 1_555 1_555
C27_8 H18_8 1_555 1_555
C29_14 C21_14 1_555 1_555
H20_14 C29_14 1_555 1_555
C31_8 N5_14 1_555 1_555
H22_8 C31_8 1_555 1_555
C35_14 C22_14 1_555 1_555
H25_14 C35_14 1_555 1_555
C36_8 C27_8 1_555 1_555
H26_8 C36_8 1_555 1_555
Ag4_2 N6_14 1_555 1_555
N1_14 C5_14 1_555 1_555
C3_14 C9_14 1_555 1_555
C5_14 C17_14 1_555 1_555
C10_14 C13_14 1_555 1_555
C14_14 C15_14 1_555 1_555
C19_14 C20_14 1_555 1_555
N5_14 C25_14 1_555 1_555
C22_14 C23_14 1_555 1_555
C23_14 C29_14 1_555 1_555
C25_14 C35_14 1_555 1_555
C27_8 C31_8 1_555 1_555
N7_14 N8_14 1_555 1_555
C24_14 H17_14 1_555 1_555
C28_14 C26_14 1_555 1_555
H19_14 C28_14 1_555 1_555
C30_14 C24_14 1_555 1_555
H21_14 C30_14 1_555 1_555
N8_14 C33_14 1_555 1_555
C32_14 C28_14 1_555 1_555
H23_14 C32_14 1_555 1_555
C33_14 C30_14 1_555 1_555
C34_14 N7_14 1_555 1_555
H24_14 C34_14 1_555 1_555
C37_14 C34_14 1_555 1_555
H27_14 C37_14 1_555 1_555
C38_14 N8_14 1_555 1_555
H28_14 C38_14 1_555 1_555
Ag4_7 N7_14 1_555 1_555
C24_14 C26_14 1_555 1_555
C32_14 C33_14 1_555 1_555
C37_14 C38_14 1_555 1_555
N7_15 N8_15 1_555 1_555
C24_15 H17_15 1_555 1_555
C28_15 C26_15 1_555 1_555
H19_15 C28_15 1_555 1_555
C30_15 C24_15 1_555 1_555
H21_15 C30_15 1_555 1_555
N8_15 C33_15 1_555 1_555
C32_15 C28_15 1_555 1_555
H23_15 C32_15 1_555 1_555
C33_15 C30_15 1_555 1_555
C34_15 N7_15 1_555 1_555
H24_15 C34_15 1_555 1_555
C37_15 C34_15 1_555 1_555
H27_15 C37_15 1_555 1_555
C38_15 N8_15 1_555 1_555
H28_15 C38_15 1_555 1_555
Ag4_6 N7_15 1_555 1_555
C24_15 C26_15 1_555 1_555
C32_15 C33_15 1_555 1_555
C37_15 C38_15 1_555 1_555
C1_15 H1_15 1_555 1_555
N1_15 N9_12 1_555 1_555
N9_12 C18_14 1_555 1_555
C2_15 H2_15 1_555 1_555
C3_15 C2_15 1_555 1_555
N11_7 N4_15 1_555 1_555
C4_15 H3_15 1_555 1_555
C5_15 C1_15 1_555 1_555
C6_15 C4_15 1_555 1_555
C7_14 H4_14 1_555 1_555
C8_15 C6_15 1_555 1_555
C9_15 C1_15 1_555 1_555
H6_15 C9_15 1_555 1_555
C10_15 C3_15 1_555 1_555
C11_15 C4_15 1_555 1_555
H7_15 C11_15 1_555 1_555
C12_14 N1_15 1_555 1_555
H8_14 C12_14 1_555 1_555
C13_15 C6_15 1_555 1_555
N4_15 C15_15 1_555 1_555
C14_15 C8_15 1_555 1_555
H9_15 C14_15 1_555 1_555
C15_15 C11_15 1_555 1_555
C16_15 N11_7 1_555 1_555
H10_15 C16_15 1_555 1_555
C17_15 C2_15 1_555 1_555
H11_15 C17_15 1_555 1_555
C18_14 C7_14 1_555 1_555
H12_14 C18_14 1_555 1_555
C19_15 C16_15 1_555 1_555
C20_15 N4_15 1_555 1_555
H14_15 C20_15 1_555 1_555
C22_15 H16_15 1_555 1_555
C23_15 C10_15 1_555 1_555
C25_15 C21_15 1_555 1_555
C27_9 H18_9 1_555 1_555
C29_15 C21_15 1_555 1_555
H20_15 C29_15 1_555 1_555
C31_9 N5_15 1_555 1_555
H22_9 C31_9 1_555 1_555
C35_15 C22_15 1_555 1_555
H25_15 C35_15 1_555 1_555
N1_15 C5_15 1_555 1_555
C3_15 C9_15 1_555 1_555
C5_15 C17_15 1_555 1_555
C7_14 C12_14 1_555 1_555
C10_15 C13_15 1_555 1_555
C14_15 C15_15 1_555 1_555
C19_15 C20_15 1_555 1_555
N5_15 C25_15 1_555 1_555
C22_15 C23_15 1_555 1_555
C23_15 C29_15 1_555 1_555
C25_15 C35_15 1_555 1_555
C27_9 C31_9 1_555 1_555
N6_15 C36_9 1_555 1_555
H26_9 C36_9 1_555 1_555
Ag4_4 N6_15 1_555 1_555
N6_16 C36_10 1_555 1_555
H26_10 C36_10 1_555 1_555
Ag4_3 N6_16 1_555 1_555
C1_16 H1_16 1_555 1_555
N1_16 N9_9 1_555 1_555
C2_16 H2_16 1_555 1_555
C3_16 C2_16 1_555 1_555
N11_5 N4_16 1_555 1_555
C4_16 H3_16 1_555 1_555
C5_16 C1_16 1_555 1_555
C6_16 C4_16 1_555 1_555
C8_16 C6_16 1_555 1_555
H5_16 C8_16 1_555 1_555
C9_16 C1_16 1_555 1_555
H6_16 C9_16 1_555 1_555
C10_16 C3_16 1_555 1_555
C11_16 C4_16 1_555 1_555
H7_16 C11_16 1_555 1_555
C13_16 C6_16 1_555 1_555
N4_16 C15_16 1_555 1_555
C14_16 C8_16 1_555 1_555
H9_16 C14_16 1_555 1_555
C15_16 C11_16 1_555 1_555
C16_16 N11_5 1_555 1_555
H10_16 C16_16 1_555 1_555
C17_16 C2_16 1_555 1_555
H11_16 C17_16 1_555 1_555
C19_16 C16_16 1_555 1_555
C20_16 N4_16 1_555 1_555
H14_16 C20_16 1_555 1_555
C22_16 H16_16 1_555 1_555
C23_16 C10_16 1_555 1_555
N7_16 N8_16 1_555 1_555
C24_16 H17_16 1_555 1_555
C25_16 C21_16 1_555 1_555
C26_16 C13_16 1_555 1_555
C27_10 H18_10 1_555 1_555
C28_16 C26_16 1_555 1_555
H19_16 C28_16 1_555 1_555
C29_16 C21_16 1_555 1_555
H20_16 C29_16 1_555 1_555
C30_16 C24_16 1_555 1_555
H21_16 C30_16 1_555 1_555
C31_10 N5_16 1_555 1_555
H22_10 C31_10 1_555 1_555
N8_16 C33_16 1_555 1_555
C32_16 C28_16 1_555 1_555
H23_16 C32_16 1_555 1_555
C33_16 C30_16 1_555 1_555
C34_16 N7_16 1_555 1_555
H24_16 C34_16 1_555 1_555
C35_16 C22_16 1_555 1_555
H25_16 C35_16 1_555 1_555
C37_16 C34_16 1_555 1_555
H27_16 C37_16 1_555 1_555
C38_16 N8_16 1_555 1_555
H28_16 C38_16 1_555 1_555
Ag4_8 N7_16 1_555 1_555
N1_16 C5_16 1_555 1_555
C3_16 C9_16 1_555 1_555
C5_16 C17_16 1_555 1_555
C10_16 C13_16 1_555 1_555
C14_16 C15_16 1_555 1_555
C19_16 C20_16 1_555 1_555
N5_16 C25_16 1_555 1_555
C22_16 C23_16 1_555 1_555
C23_16 C29_16 1_555 1_555
C24_16 C26_16 1_555 1_555
C25_16 C35_16 1_555 1_555
C27_10 C31_10 1_555 1_555
C32_16 C33_16 1_555 1_555
C37_16 C38_16 1_555 1_555
N6_17 C36_11 1_555 1_555
H26_11 C36_11 1_555 1_555
Ag3 N6_17 1_555 1_555
C1_17 H1_17 1_555 1_555
N1_17 N9_5 1_555 1_555
C2_17 H2_17 1_555 1_555
C3_17 C2_17 1_555 1_555
N11 N4_17 1_555 1_555
C4_17 H3_17 1_555 1_555
C5_17 C1_17 1_555 1_555
C6_17 C4_17 1_555 1_555
C8_17 C6_17 1_555 1_555
H5_17 C8_17 1_555 1_555
C9_17 C1_17 1_555 1_555
H6_17 C9_17 1_555 1_555
C10_17 C3_17 1_555 1_555
C11_17 C4_17 1_555 1_555
H7_17 C11_17 1_555 1_555
C13_17 C6_17 1_555 1_555
N4_17 C15_17 1_555 1_555
C14_17 C8_17 1_555 1_555
H9_17 C14_17 1_555 1_555
C15_17 C11_17 1_555 1_555
C16_17 N11 1_555 1_555
H10_17 C16_17 1_555 1_555
C17_17 C2_17 1_555 1_555
H11_17 C17_17 1_555 1_555
C19_17 C16_17 1_555 1_555
C20_17 N4_17 1_555 1_555
H14_17 C20_17 1_555 1_555
C22_17 H16_17 1_555 1_555
C23_17 C10_17 1_555 1_555
N7_17 N8_17 1_555 1_555
C24_17 H17_17 1_555 1_555
C25_17 C21_17 1_555 1_555
C26_17 C13_17 1_555 1_555
C27_11 H18_11 1_555 1_555
C28_17 C26_17 1_555 1_555
H19_17 C28_17 1_555 1_555
C29_17 C21_17 1_555 1_555
H20_17 C29_17 1_555 1_555
C30_17 C24_17 1_555 1_555
H21_17 C30_17 1_555 1_555
C31_11 N5_17 1_555 1_555
H22_11 C31_11 1_555 1_555
N8_17 C33_17 1_555 1_555
C32_17 C28_17 1_555 1_555
H23_17 C32_17 1_555 1_555
C33_17 C30_17 1_555 1_555
C34_17 N7_17 1_555 1_555
H24_17 C34_17 1_555 1_555
C35_17 C22_17 1_555 1_555
H25_17 C35_17 1_555 1_555
C37_17 C34_17 1_555 1_555
H27_17 C37_17 1_555 1_555
C38_17 N8_17 1_555 1_555
H28_17 C38_17 1_555 1_555
Ag4_4 N7_17 1_555 1_555
N1_17 C5_17 1_555 1_555
C3_17 C9_17 1_555 1_555
C5_17 C17_17 1_555 1_555
C10_17 C13_17 1_555 1_555
C14_17 C15_17 1_555 1_555
C19_17 C20_17 1_555 1_555
N5_17 C25_17 1_555 1_555
C22_17 C23_17 1_555 1_555
C23_17 C29_17 1_555 1_555
C24_17 C26_17 1_555 1_555
C25_17 C35_17 1_555 1_555
C27_11 C31_11 1_555 1_555
C32_17 C33_17 1_555 1_555
C37_17 C38_17 1_555 1_555
N7_18 N8_18 1_555 1_555
C24_18 H17_18 1_555 1_555
C28_18 C26_18 1_555 1_555
H19_18 C28_18 1_555 1_555
C30_18 C24_18 1_555 1_555
H21_18 C30_18 1_555 1_555
N8_18 C33_18 1_555 1_555
C32_18 C28_18 1_555 1_555
H23_18 C32_18 1_555 1_555
C33_18 C30_18 1_555 1_555
C34_18 N7_18 1_555 1_555
H24_18 C34_18 1_555 1_555
C37_18 C34_18 1_555 1_555
H27_18 C37_18 1_555 1_555
C38_18 N8_18 1_555 1_555
H28_18 C38_18 1_555 1_555
Ag4_2 N7_18 1_555 1_555
C24_18 C26_18 1_555 1_555
C32_18 C33_18 1_555 1_555
C37_18 C38_18 1_555 1_555
C1_18 H1_18 1_555 1_555
N1_18 N9_8 1_555 1_555
N9_8 C18_15 1_555 1_555
C2_18 H2_18 1_555 1_555
C3_18 C2_18 1_555 1_555
N11_3 N4_18 1_555 1_555
C4_18 H3_18 1_555 1_555
C5_18 C1_18 1_555 1_555
C6_18 C4_18 1_555 1_555
C7_15 H4_15 1_555 1_555
C8_18 C6_18 1_555 1_555
C9_18 C1_18 1_555 1_555
H6_18 C9_18 1_555 1_555
C10_18 C3_18 1_555 1_555
C11_18 C4_18 1_555 1_555
H7_18 C11_18 1_555 1_555
C12_15 N1_18 1_555 1_555
H8_15 C12_15 1_555 1_555
C13_18 C6_18 1_555 1_555
N4_18 C15_18 1_555 1_555
C14_18 C8_18 1_555 1_555
H9_18 C14_18 1_555 1_555
C15_18 C11_18 1_555 1_555
C16_18 N11_3 1_555 1_555
H10_18 C16_18 1_555 1_555
C17_18 C2_18 1_555 1_555
H11_18 C17_18 1_555 1_555
C18_15 C7_15 1_555 1_555
H12_15 C18_15 1_555 1_555
C19_18 C16_18 1_555 1_555
C20_18 N4_18 1_555 1_555
H14_18 C20_18 1_555 1_555
C22_18 H16_18 1_555 1_555
C23_18 C10_18 1_555 1_555
C25_18 C21_18 1_555 1_555
C27_12 H18_12 1_555 1_555
C29_18 C21_18 1_555 1_555
H20_18 C29_18 1_555 1_555
C31_12 N5_18 1_555 1_555
H22_12 C31_12 1_555 1_555
C35_18 C22_18 1_555 1_555
H25_18 C35_18 1_555 1_555
N1_18 C5_18 1_555 1_555
C3_18 C9_18 1_555 1_555
C5_18 C17_18 1_555 1_555
C7_15 C12_15 1_555 1_555
C10_18 C13_18 1_555 1_555
C14_18 C15_18 1_555 1_555
C19_18 C20_18 1_555 1_555
N5_18 C25_18 1_555 1_555
C22_18 C23_18 1_555 1_555
C23_18 C29_18 1_555 1_555
C25_18 C35_18 1_555 1_555
C27_12 C31_12 1_555 1_555
N6_18 C36_12 1_555 1_555
H26_12 C36_12 1_555 1_555
Ag3_3 N6_18 1_555 1_555
C1_19 H1_19 1_555 1_555
N1_19 N9_7 1_555 1_555
C2_19 H2_19 1_555 1_555
C3_19 C2_19 1_555 1_555
N11_2 N4_19 1_555 1_555
C4_19 H3_19 1_555 1_555
C5_19 C1_19 1_555 1_555
C6_19 C4_19 1_555 1_555
C8_19 C6_19 1_555 1_555
C9_19 C1_19 1_555 1_555
H6_19 C9_19 1_555 1_555
C10_19 C3_19 1_555 1_555
C11_19 C4_19 1_555 1_555
H7_19 C11_19 1_555 1_555
C13_19 C6_19 1_555 1_555
N4_19 C15_19 1_555 1_555
C14_19 C8_19 1_555 1_555
H9_19 C14_19 1_555 1_555
C15_19 C11_19 1_555 1_555
C16_19 N11_2 1_555 1_555
H10_19 C16_19 1_555 1_555
C17_19 C2_19 1_555 1_555
H11_19 C17_19 1_555 1_555
C19_19 C16_19 1_555 1_555
H13_19 C19_19 1_555 1_555
C20_19 N4_19 1_555 1_555
H14_19 C20_19 1_555 1_555
C21_19 H15_19 1_555 1_555
N5_19 N6_19 1_555 1_555
N6_19 C36_13 1_555 1_555
C22_19 H16_19 1_555 1_555
C23_19 C10_19 1_555 1_555
C25_19 C21_19 1_555 1_555
C27_13 H18_13 1_555 1_555
C29_19 C21_19 1_555 1_555
H20_19 C29_19 1_555 1_555
C31_13 N5_19 1_555 1_555
H22_13 C31_13 1_555 1_555
C35_19 C22_19 1_555 1_555
H25_19 C35_19 1_555 1_555
C36_13 C27_13 1_555 1_555
H26_13 C36_13 1_555 1_555
Ag3_2 N6_19 1_555 1_555
N1_19 C5_19 1_555 1_555
C3_19 C9_19 1_555 1_555
C5_19 C17_19 1_555 1_555
C10_19 C13_19 1_555 1_555
C14_19 C15_19 1_555 1_555
C19_19 C20_19 1_555 1_555
N5_19 C25_19 1_555 1_555
C22_19 C23_19 1_555 1_555
C23_19 C29_19 1_555 1_555
C25_19 C35_19 1_555 1_555
C27_13 C31_13 1_555 1_555
N7_19 N8_19 1_555 1_555
C24_19 H17_19 1_555 1_555
C28_19 C26_19 1_555 1_555
H19_19 C28_19 1_555 1_555
C30_19 C24_19 1_555 1_555
H21_19 C30_19 1_555 1_555
N8_19 C33_19 1_555 1_555
C32_19 C28_19 1_555 1_555
H23_19 C32_19 1_555 1_555
C33_19 C30_19 1_555 1_555
C34_19 N7_19 1_555 1_555
H24_19 C34_19 1_555 1_555
C37_19 C34_19 1_555 1_555
H27_19 C37_19 1_555 1_555
C38_19 N8_19 1_555 1_555
H28_19 C38_19 1_555 1_555
Ag4_3 N7_19 1_555 1_555
C24_19 C26_19 1_555 1_555
C32_19 C33_19 1_555 1_555
C37_19 C38_19 1_555 1_555
C1_20 H1_20 1_555 1_555
N1_20 N9_6 1_555 1_555
N9_6 C18_16 1_555 1_555
C2_20 H2_20 1_555 1_555
C3_20 C2_20 1_555 1_555
N11_4 N4_20 1_555 1_555
C4_20 H3_20 1_555 1_555
C5_20 C1_20 1_555 1_555
C6_20 C4_20 1_555 1_555
C7_16 H4_16 1_555 1_555
C8_20 C6_20 1_555 1_555
H5_20 C8_20 1_555 1_555
C9_20 C1_20 1_555 1_555
H6_20 C9_20 1_555 1_555
C10_20 C3_20 1_555 1_555
C11_20 C4_20 1_555 1_555
H7_20 C11_20 1_555 1_555
C12_16 N1_20 1_555 1_555
H8_16 C12_16 1_555 1_555
C13_20 C6_20 1_555 1_555
N4_20 C15_20 1_555 1_555
C14_20 C8_20 1_555 1_555
H9_20 C14_20 1_555 1_555
C15_20 C11_20 1_555 1_555
C16_20 N11_4 1_555 1_555
H10_20 C16_20 1_555 1_555
C17_20 C2_20 1_555 1_555
H11_20 C17_20 1_555 1_555
C18_16 C7_16 1_555 1_555
H12_16 C18_16 1_555 1_555
C19_20 C16_20 1_555 1_555
H13_20 C19_20 1_555 1_555
C20_20 N4_20 1_555 1_555
H14_20 C20_20 1_555 1_555
C21_20 H15_20 1_555 1_555
N5_20 N6_20 1_555 1_555
N6_20 C36_14 1_555 1_555
C22_20 H16_20 1_555 1_555
C23_20 C10_20 1_555 1_555
N7_20 N8_20 1_555 1_555
C24_20 H17_20 1_555 1_555
C25_20 C21_20 1_555 1_555
C26_20 C13_20 1_555 1_555
C27_14 H18_14 1_555 1_555
C28_20 C26_20 1_555 1_555
H19_20 C28_20 1_555 1_555
C29_20 C21_20 1_555 1_555
H20_20 C29_20 1_555 1_555
C30_20 C24_20 1_555 1_555
H21_20 C30_20 1_555 1_555
C31_14 N5_20 1_555 1_555
H22_14 C31_14 1_555 1_555
N8_20 C33_20 1_555 1_555
C32_20 C28_20 1_555 1_555
H23_20 C32_20 1_555 1_555
C33_20 C30_20 1_555 1_555
C34_20 N7_20 1_555 1_555
H24_20 C34_20 1_555 1_555
C35_20 C22_20 1_555 1_555
H25_20 C35_20 1_555 1_555
C36_14 C27_14 1_555 1_555
H26_14 C36_14 1_555 1_555
C37_20 C34_20 1_555 1_555
H27_20 C37_20 1_555 1_555
C38_20 N8_20 1_555 1_555
H28_20 C38_20 1_555 1_555
Ag4 N7_20 1_555 1_555
Ag3_4 N6_20 1_555 1_555
N1_20 C5_20 1_555 1_555
C3_20 C9_20 1_555 1_555
C5_20 C17_20 1_555 1_555
C7_16 C12_16 1_555 1_555
C10_20 C13_20 1_555 1_555
C14_20 C15_20 1_555 1_555
C19_20 C20_20 1_555 1_555
N5_20 C25_20 1_555 1_555
C22_20 C23_20 1_555 1_555
C23_20 C29_20 1_555 1_555
C24_20 C26_20 1_555 1_555
C25_20 C35_20 1_555 1_555
C27_14 C31_14 1_555 1_555
C32_20 C33_20 1_555 1_555
C37_20 C38_20 1_555 1_555
N7_21 N8_21 1_555 1_555
C24_21 H17_21 1_555 1_555
C28_21 C26_21 1_555 1_555
H19_21 C28_21 1_555 1_555
C30_21 C24_21 1_555 1_555
H21_21 C30_21 1_555 1_555
N8_21 C33_21 1_555 1_555
C32_21 C28_21 1_555 1_555
H23_21 C32_21 1_555 1_555
C33_21 C30_21 1_555 1_555
C34_21 N7_21 1_555 1_555
H24_21 C34_21 1_555 1_555
C37_21 C34_21 1_555 1_555
H27_21 C37_21 1_555 1_555
C38_21 N8_21 1_555 1_555
H28_21 C38_21 1_555 1_555
Ag3_2 N7_21 1_555 1_555
C24_21 C26_21 1_555 1_555
C32_21 C33_21 1_555 1_555
C37_21 C38_21 1_555 1_555
C1_21 H1_21 1_555 1_555
N1_21 N9_4 1_555 1_555
N9_4 C18_17 1_555 1_555
C2_21 H2_21 1_555 1_555
C3_21 C2_21 1_555 1_555
N11_11 N4_21 1_555 1_555
C4_21 H3_21 1_555 1_555
C5_21 C1_21 1_555 1_555
C6_21 C4_21 1_555 1_555
C7_17 H4_17 1_555 1_555
C8_21 C6_21 1_555 1_555
C9_21 C1_21 1_555 1_555
H6_21 C9_21 1_555 1_555
C10_21 C3_21 1_555 1_555
C11_21 C4_21 1_555 1_555
H7_21 C11_21 1_555 1_555
C12_17 N1_21 1_555 1_555
H8_17 C12_17 1_555 1_555
C13_21 C6_21 1_555 1_555
N4_21 C15_21 1_555 1_555
C14_21 C8_21 1_555 1_555
H9_21 C14_21 1_555 1_555
C15_21 C11_21 1_555 1_555
C16_21 N11_11 1_555 1_555
H10_21 C16_21 1_555 1_555
C17_21 C2_21 1_555 1_555
H11_21 C17_21 1_555 1_555
C18_17 C7_17 1_555 1_555
H12_17 C18_17 1_555 1_555
C19_21 C16_21 1_555 1_555
C20_21 N4_21 1_555 1_555
H14_21 C20_21 1_555 1_555
C22_21 H16_21 1_555 1_555
C23_21 C10_21 1_555 1_555
C25_21 C21_21 1_555 1_555
C27_15 H18_15 1_555 1_555
C29_21 C21_21 1_555 1_555
H20_21 C29_21 1_555 1_555
C31_15 N5_21 1_555 1_555
H22_15 C31_15 1_555 1_555
C35_21 C22_21 1_555 1_555
H25_21 C35_21 1_555 1_555
N1_21 C5_21 1_555 1_555
C3_21 C9_21 1_555 1_555
C5_21 C17_21 1_555 1_555
C7_17 C12_17 1_555 1_555
C10_21 C13_21 1_555 1_555
C14_21 C15_21 1_555 1_555
C19_21 C20_21 1_555 1_555
N5_21 C25_21 1_555 1_555
C22_21 C23_21 1_555 1_555
C23_21 C29_21 1_555 1_555
C25_21 C35_21 1_555 1_555
C27_15 C31_15 1_555 1_555
N6_21 C36_15 1_555 1_555
H26_15 C36_15 1_555 1_555
Ag4_8 N6_21 1_555 1_555
N6_22 C36_16 1_555 1_555
H26_16 C36_16 1_555 1_555
Ag4_7 N6_22 1_555 1_555
C1_22 H1_22 1_555 1_555
N1_22 N9 1_555 1_555
C2_22 H2_22 1_555 1_555
C3_22 C2_22 1_555 1_555
N11_9 N4_22 1_555 1_555
C4_22 H3_22 1_555 1_555
C5_22 C1_22 1_555 1_555
C6_22 C4_22 1_555 1_555
C8_22 C6_22 1_555 1_555
H5_22 C8_22 1_555 1_555
C9_22 C1_22 1_555 1_555
H6_22 C9_22 1_555 1_555
C10_22 C3_22 1_555 1_555
C11_22 C4_22 1_555 1_555
H7_22 C11_22 1_555 1_555
C13_22 C6_22 1_555 1_555
N4_22 C15_22 1_555 1_555
C14_22 C8_22 1_555 1_555
H9_22 C14_22 1_555 1_555
C15_22 C11_22 1_555 1_555
C16_22 N11_9 1_555 1_555
H10_22 C16_22 1_555 1_555
C17_22 C2_22 1_555 1_555
H11_22 C17_22 1_555 1_555
C19_22 C16_22 1_555 1_555
C20_22 N4_22 1_555 1_555
H14_22 C20_22 1_555 1_555
C22_22 H16_22 1_555 1_555
C23_22 C10_22 1_555 1_555
N7_22 N8_22 1_555 1_555
C24_22 H17_22 1_555 1_555
C25_22 C21_22 1_555 1_555
C26_22 C13_22 1_555 1_555
C27_16 H18_16 1_555 1_555
C28_22 C26_22 1_555 1_555
H19_22 C28_22 1_555 1_555
C29_22 C21_22 1_555 1_555
H20_22 C29_22 1_555 1_555
C30_22 C24_22 1_555 1_555
H21_22 C30_22 1_555 1_555
C31_16 N5_22 1_555 1_555
H22_16 C31_16 1_555 1_555
N8_22 C33_22 1_555 1_555
C32_22 C28_22 1_555 1_555
H23_22 C32_22 1_555 1_555
C33_22 C30_22 1_555 1_555
C34_22 N7_22 1_555 1_555
H24_22 C34_22 1_555 1_555
C35_22 C22_22 1_555 1_555
H25_22 C35_22 1_555 1_555
C37_22 C34_22 1_555 1_555
H27_22 C37_22 1_555 1_555
C38_22 N8_22 1_555 1_555
H28_22 C38_22 1_555 1_555
Ag3_3 N7_22 1_555 1_555
N1_22 C5_22 1_555 1_555
C3_22 C9_22 1_555 1_555
C5_22 C17_22 1_555 1_555
C10_22 C13_22 1_555 1_555
C14_22 C15_22 1_555 1_555
C19_22 C20_22 1_555 1_555
N5_22 C25_22 1_555 1_555
C22_22 C23_22 1_555 1_555
C23_22 C29_22 1_555 1_555
C24_22 C26_22 1_555 1_555
C25_22 C35_22 1_555 1_555
C27_16 C31_16 1_555 1_555
C32_22 C33_22 1_555 1_555
C37_22 C38_22 1_555 1_555
C1_23 H1_23 1_555 1_555
N1_23 N9_2 1_555 1_555
N9_2 C18_18 1_555 1_555
C2_23 H2_23 1_555 1_555
C3_23 C2_23 1_555 1_555
N11_12 N4_23 1_555 1_555
C4_23 H3_23 1_555 1_555
C5_23 C1_23 1_555 1_555
C6_23 C4_23 1_555 1_555
C7_18 H4_18 1_555 1_555
C8_23 C6_23 1_555 1_555
H5_23 C8_23 1_555 1_555
C9_23 C1_23 1_555 1_555
H6_23 C9_23 1_555 1_555
C10_23 C3_23 1_555 1_555
C11_23 C4_23 1_555 1_555
H7_23 C11_23 1_555 1_555
C12_18 N1_23 1_555 1_555
H8_18 C12_18 1_555 1_555
C13_23 C6_23 1_555 1_555
N4_23 C15_23 1_555 1_555
C14_23 C8_23 1_555 1_555
H9_23 C14_23 1_555 1_555
C15_23 C11_23 1_555 1_555
C16_23 N11_12 1_555 1_555
H10_23 C16_23 1_555 1_555
C17_23 C2_23 1_555 1_555
H11_23 C17_23 1_555 1_555
C18_18 C7_18 1_555 1_555
H12_18 C18_18 1_555 1_555
C19_23 C16_23 1_555 1_555
H13_23 C19_23 1_555 1_555
C20_23 N4_23 1_555 1_555
H14_23 C20_23 1_555 1_555
C21_23 H15_23 1_555 1_555
N5_23 N6_23 1_555 1_555
N6_23 C36_17 1_555 1_555
C22_23 H16_23 1_555 1_555
C23_23 C10_23 1_555 1_555
N7_23 N8_23 1_555 1_555
C24_23 H17_23 1_555 1_555
C25_23 C21_23 1_555 1_555
C26_23 C13_23 1_555 1_555
C27_17 H18_17 1_555 1_555
C28_23 C26_23 1_555 1_555
H19_23 C28_23 1_555 1_555
C29_23 C21_23 1_555 1_555
H20_23 C29_23 1_555 1_555
C30_23 C24_23 1_555 1_555
H21_23 C30_23 1_555 1_555
C31_17 N5_23 1_555 1_555
H22_17 C31_17 1_555 1_555
N8_23 C33_23 1_555 1_555
C32_23 C28_23 1_555 1_555
H23_23 C32_23 1_555 1_555
C33_23 C30_23 1_555 1_555
C34_23 N7_23 1_555 1_555
H24_23 C34_23 1_555 1_555
C35_23 C22_23 1_555 1_555
H25_23 C35_23 1_555 1_555
C36_17 C27_17 1_555 1_555
H26_17 C36_17 1_555 1_555
C37_23 C34_23 1_555 1_555
H27_23 C37_23 1_555 1_555
C38_23 N8_23 1_555 1_555
H28_23 C38_23 1_555 1_555
Ag3_4 N7_23 1_555 1_555
Ag4_5 N6_23 1_555 1_555
N1_23 C5_23 1_555 1_555
C3_23 C9_23 1_555 1_555
C5_23 C17_23 1_555 1_555
C7_18 C12_18 1_555 1_555
C10_23 C13_23 1_555 1_555
C14_23 C15_23 1_555 1_555
C19_23 C20_23 1_555 1_555
N5_23 C25_23 1_555 1_555
C22_23 C23_23 1_555 1_555
C23_23 C29_23 1_555 1_555
C24_23 C26_23 1_555 1_555
C25_23 C35_23 1_555 1_555
C27_17 C31_17 1_555 1_555
C32_23 C33_23 1_555 1_555
C37_23 C38_23 1_555 1_555
C1_24 H1_24 1_555 1_555
N1_24 N9_3 1_555 1_555
C2_24 H2_24 1_555 1_555
C3_24 C2_24 1_555 1_555
N11_10 N4_24 1_555 1_555
C4_24 H3_24 1_555 1_555
C5_24 C1_24 1_555 1_555
C6_24 C4_24 1_555 1_555
C8_24 C6_24 1_555 1_555
C9_24 C1_24 1_555 1_555
H6_24 C9_24 1_555 1_555
C10_24 C3_24 1_555 1_555
C11_24 C4_24 1_555 1_555
H7_24 C11_24 1_555 1_555
C13_24 C6_24 1_555 1_555
N4_24 C15_24 1_555 1_555
C14_24 C8_24 1_555 1_555
H9_24 C14_24 1_555 1_555
C15_24 C11_24 1_555 1_555
C16_24 N11_10 1_555 1_555
H10_24 C16_24 1_555 1_555
C17_24 C2_24 1_555 1_555
H11_24 C17_24 1_555 1_555
C19_24 C16_24 1_555 1_555
H13_24 C19_24 1_555 1_555
C20_24 N4_24 1_555 1_555
H14_24 C20_24 1_555 1_555
C21_24 H15_24 1_555 1_555
N5_24 N6_24 1_555 1_555
N6_24 C36_18 1_555 1_555
C22_24 H16_24 1_555 1_555
C23_24 C10_24 1_555 1_555
C25_24 C21_24 1_555 1_555
C27_18 H18_18 1_555 1_555
C29_24 C21_24 1_555 1_555
H20_24 C29_24 1_555 1_555
C31_18 N5_24 1_555 1_555
H22_18 C31_18 1_555 1_555
C35_24 C22_24 1_555 1_555
H25_24 C35_24 1_555 1_555
C36_18 C27_18 1_555 1_555
H26_18 C36_18 1_555 1_555
Ag4_6 N6_24 1_555 1_555
N1_24 C5_24 1_555 1_555
C3_24 C9_24 1_555 1_555
C5_24 C17_24 1_555 1_555
C10_24 C13_24 1_555 1_555
C14_24 C15_24 1_555 1_555
C19_24 C20_24 1_555 1_555
N5_24 C25_24 1_555 1_555
C22_24 C23_24 1_555 1_555
C23_24 C29_24 1_555 1_555
C25_24 C35_24 1_555 1_555
C27_18 C31_18 1_555 1_555
N7_24 N8_24 1_555 1_555
C24_24 H17_24 1_555 1_555
C28_24 C26_24 1_555 1_555
H19_24 C28_24 1_555 1_555
C30_24 C24_24 1_555 1_555
H21_24 C30_24 1_555 1_555
N8_24 C33_24 1_555 1_555
C32_24 C28_24 1_555 1_555
H23_24 C32_24 1_555 1_555
C33_24 C30_24 1_555 1_555
C34_24 N7_24 1_555 1_555
H24_24 C34_24 1_555 1_555
C37_24 C34_24 1_555 1_555
H27_24 C37_24 1_555 1_555
C38_24 N8_24 1_555 1_555
H28_24 C38_24 1_555 1_555
Ag3 N7_24 1_555 1_555
C24_24 C26_24 1_555 1_555
C32_24 C33_24 1_555 1_555
C37_24 C38_24 1_555 1_555
C27_19 H18_19 1_555 1_555
H22_19 C31_19 1_555 1_555
C36_19 C27_19 1_555 1_555
H26_19 C36_19 1_555 1_555
C27_19 C31_19 1_555 1_555
C27_20 H18_20 1_555 1_555
H22_20 C31_20 1_555 1_555
C36_20 C27_20 1_555 1_555
H26_20 C36_20 1_555 1_555
C27_20 C31_20 1_555 1_555
C27_21 H18_21 1_555 1_555
H22_21 C31_21 1_555 1_555
C36_21 C27_21 1_555 1_555
H26_21 C36_21 1_555 1_555
C27_21 C31_21 1_555 1_555
C27_22 H18_22 1_555 1_555
H22_22 C31_22 1_555 1_555
C36_22 C27_22 1_555 1_555
H26_22 C36_22 1_555 1_555
C27_22 C31_22 1_555 1_555
C27_23 H18_23 1_555 1_555
H22_23 C31_23 1_555 1_555
C36_23 C27_23 1_555 1_555
H26_23 C36_23 1_555 1_555
C27_23 C31_23 1_555 1_555
C27_24 H18_24 1_555 1_555
H22_24 C31_24 1_555 1_555
C36_24 C27_24 1_555 1_555
H26_24 C36_24 1_555 1_555
C27_24 C31_24 1_555 1_555
C7_19 H4_19 1_555 1_555
H8_19 C12_19 1_555 1_555
C18_19 C7_19 1_555 1_555
H12_19 C18_19 1_555 1_555
C7_19 C12_19 1_555 1_555
C7_20 H4_20 1_555 1_555
H8_20 C12_20 1_555 1_555
C18_20 C7_20 1_555 1_555
H12_20 C18_20 1_555 1_555
C7_20 C12_20 1_555 1_555
C7_21 H4_21 1_555 1_555
H8_21 C12_21 1_555 1_555
C18_21 C7_21 1_555 1_555
H12_21 C18_21 1_555 1_555
C7_21 C12_21 1_555 1_555
C7_22 H4_22 1_555 1_555
H8_22 C12_22 1_555 1_555
C18_22 C7_22 1_555 1_555
H12_22 C18_22 1_555 1_555
C7_22 C12_22 1_555 1_555
C7_23 H4_23 1_555 1_555
H8_23 C12_23 1_555 1_555
C18_23 C7_23 1_555 1_555
H12_23 C18_23 1_555 1_555
C7_23 C12_23 1_555 1_555
C7_24 H4_24 1_555 1_555
H8_24 C12_24 1_555 1_555
C18_24 C7_24 1_555 1_555
H12_24 C18_24 1_555 1_555
C7_24 C12_24 1_555 1_555
P1 F1 1_555 1_555
F2 P1 1_555 1_555
F3 P1 1_555 1_555
F4 P1 1_555 1_555
F5 P1 1_555 1_555
F6 P1 1_555 1_555
P1_2 F1_2 1_555 1_555
F2_2 P1_2 1_555 1_555
F3_2 P1_2 1_555 1_555
F4_2 P1_2 1_555 1_555
F5_2 P1_2 1_555 1_555
F6_2 P1_2 1_555 1_555
P1_3 F1_3 1_555 1_555
F2_3 P1_3 1_555 1_555
F3_3 P1_3 1_555 1_555
F4_3 P1_3 1_555 1_555
F5_3 P1_3 1_555 1_555
F6_3 P1_3 1_555 1_555
P1_4 F1_4 1_555 1_555
F2_4 P1_4 1_555 1_555
F3_4 P1_4 1_555 1_555
F4_4 P1_4 1_555 1_555
F5_4 P1_4 1_555 1_555
F6_4 P1_4 1_555 1_555
P1_5 F1_5 1_555 1_555
F2_5 P1_5 1_555 1_555
F3_5 P1_5 1_555 1_555
F4_5 P1_5 1_555 1_555
F5_5 P1_5 1_555 1_555
F6_5 P1_5 1_555 1_555
P1_6 F1_6 1_555 1_555
F2_6 P1_6 1_555 1_555
F3_6 P1_6 1_555 1_555
F4_6 P1_6 1_555 1_555
F5_6 P1_6 1_555 1_555
F6_6 P1_6 1_555 1_555
P1_7 F1_7 1_555 1_555
F2_7 P1_7 1_555 1_555
F3_7 P1_7 1_555 1_555
F4_7 P1_7 1_555 1_555
F5_7 P1_7 1_555 1_555
F6_7 P1_7 1_555 1_555
P1_8 F1_8 1_555 1_555
F2_8 P1_8 1_555 1_555
F3_8 P1_8 1_555 1_555
F4_8 P1_8 1_555 1_555
F5_8 P1_8 1_555 1_555
F6_8 P1_8 1_555 1_555
P1_9 F1_9 1_555 1_555
F2_9 P1_9 1_555 1_555
F3_9 P1_9 1_555 1_555
F4_9 P1_9 1_555 1_555
F5_9 P1_9 1_555 1_555
F6_9 P1_9 1_555 1_555
P1_10 F1_10 1_555 1_555
F2_10 P1_10 1_555 1_555
F3_10 P1_10 1_555 1_555
F4_10 P1_10 1_555 1_555
F5_10 P1_10 1_555 1_555
F6_10 P1_10 1_555 1_555
P1_11 F1_11 1_555 1_555
F2_11 P1_11 1_555 1_555
F3_11 P1_11 1_555 1_555
F4_11 P1_11 1_555 1_555
F5_11 P1_11 1_555 1_555
F6_11 P1_11 1_555 1_555
P1_12 F1_12 1_555 1_555
F2_12 P1_12 1_555 1_555
F3_12 P1_12 1_555 1_555
F4_12 P1_12 1_555 1_555
F5_12 P1_12 1_555 1_555
F6_12 P1_12 1_555 1_555
P1_13 F1_13 1_555 1_555
F2_13 P1_13 1_555 1_555
F3_13 P1_13 1_555 1_555
F4_13 P1_13 1_555 1_555
F5_13 P1_13 1_555 1_555
F6_13 P1_13 1_555 1_555
P1_14 F1_14 1_555 1_555
F2_14 P1_14 1_555 1_555
F3_14 P1_14 1_555 1_555
F4_14 P1_14 1_555 1_555
F5_14 P1_14 1_555 1_555
F6_14 P1_14 1_555 1_555
P1_15 F1_15 1_555 1_555
F2_15 P1_15 1_555 1_555
F3_15 P1_15 1_555 1_555
F4_15 P1_15 1_555 1_555
F5_15 P1_15 1_555 1_555
F6_15 P1_15 1_555 1_555
P1_16 F1_16 1_555 1_555
F2_16 P1_16 1_555 1_555
F3_16 P1_16 1_555 1_555
F4_16 P1_16 1_555 1_555
F5_16 P1_16 1_555 1_555
F6_16 P1_16 1_555 1_555

#END
