
###############################################################################
#
# This file contains modified crystal structure data generated from the
# MOF subset of the Cambridge Structural Database (CSD) v543 
# hosted by the Cambridge Crystallographic Data Centre (CCDC).
#
# This work is licensed under the Creative Commons
# Attribution-NonCommercial-ShareAlike 4.0 International License.
# To view a copy of this license, visit
# http://creativecommons.org/licenses/by-nc-sa/4.0/
# or send a letter to
# Creative Commons, PO Box 1866, Mountain View, CA 94042, USA.
#
# CIF created using the CSD Python API on 29 September 2022
# The structure has been converted into the P1 space group
# The structure has a 3D framework
# The original CSD entry ELUBOF is in the cubic crystal system
# The original CSD entry ELUBOF is in a Sohncke space group
# The framework has been calculated to contain at least 10.0% void space
# The void calculation uses a probe of radius 1.32A, grid spacing 0.4
# The framework is charged, counterions have been retained in the structure
#
###############################################################################

data_ELUBOF
_chemical_formula_moiety         '(C912 H672 Ag9 N208 O48 7-)n'
_symmetry_cell_setting           triclinic
_symmetry_space_group_name_H-M   'P 1'
_symmetry_Int_Tables_number      1
_space_group_name_Hall           'P 1'
loop_
_symmetry_equiv_pos_site_id
_symmetry_equiv_pos_as_xyz
1 x,y,z
_cell_length_a                   28.4267(7)
_cell_length_b                   28.4267(7)
_cell_length_c                   28.4267(7)
_cell_angle_alpha                90
_cell_angle_beta                 90
_cell_angle_gamma                90
_cell_volume                     22971
loop_
_atom_site_label
_atom_site_type_symbol
_atom_site_fract_x
_atom_site_fract_y
_atom_site_fract_z
N2 N 0.18733(19) 0.24881(19) 0.0255(2)
N3 N 0.40411(19) 0.3802(2) 0.0390(2)
N4 N 0.3857(2) 0.4243(2) 0.0419(3)
C1 C 0.4470(3) 0.3862(4) 0.0200(3)
H1 H 0.468276 0.361168 0.013675
C2 C 0.4564(4) 0.4324(3) 0.0108(5)
C3 C 0.4165(4) 0.4560(4) 0.0246(6)
H3 H 0.411508 0.488915 0.022219
C4 C 0.3407(2) 0.4320(3) 0.0613(3)
C5 C 0.3151(3) 0.4721(3) 0.0500(3)
H4 H 0.326777 0.493634 0.027266
C6 C 0.2724(3) 0.4803(3) 0.0720(3)
H5 H 0.255755 0.508516 0.065404
C7 C 0.2534(2) 0.4483(2) 0.1035(2)
C8 C 0.2795(2) 0.4083(3) 0.1150(2)
H6 H 0.267518 0.386291 0.137145
C9 C 0.3227(2) 0.4009(2) 0.0942(3)
H7 H 0.340443 0.373853 0.102626
C10 C 0.2063(2) 0.4563(2) 0.125000
C11 C 0.1726(2) 0.4226(2) 0.125000
C12 C 0.1779(2) 0.3779(2) 0.0995(2)
C13 C 0.1901(2) 0.3761(2) 0.0520(2)
H8 H 0.195630 0.404781 0.035657
C14 C 0.1945(2) 0.3341(2) 0.0277(2)
C15 C 0.1863(2) 0.2923(2) 0.0517(2)
C16 C 0.1748(2) 0.2920(2) 0.0986(2)
H10 H 0.169623 0.263123 0.114685
C17 C 0.1708(2) 0.3345(2) 0.1221(2)
H11 H 0.162993 0.334313 0.154562
C19 C 0.1860(3) 0.1748(3) 0.0054(3)
H13 H 0.186537 0.141428 0.005983
C20 C 0.1900(3) 0.2046(2) 0.0424(3)
H14 H 0.193972 0.195820 0.074401
N7 N 0.1302(2) 0.65411(19) 0.2110(2)
N8 N 0.1743(2) 0.6357(2) 0.2081(3)
C21 C 0.1362(4) 0.6970(3) 0.2300(3)
H15 H 0.111168 0.718276 0.236325
C22 C 0.1824(3) 0.7064(4) 0.2392(5)
H16 H 0.195391 0.734328 0.252161
C23 C 0.2060(4) 0.6665(4) 0.2254(6)
H17 H 0.238915 0.661508 0.227781
C24 C 0.1820(3) 0.5907(2) 0.1887(3)
C25 C 0.2221(3) 0.5651(3) 0.2000(3)
H18 H 0.243634 0.576777 0.222734
C26 C 0.2303(3) 0.5224(3) 0.1780(3)
H19 H 0.258516 0.505755 0.184596
C27 C 0.1983(2) 0.5034(2) 0.1465(2)
C28 C 0.1583(3) 0.5295(2) 0.1350(2)
H20 H 0.136291 0.517518 0.112855
C29 C 0.1509(2) 0.5727(2) 0.1558(3)
H21 H 0.123853 0.590443 0.147374
C30 C 0.1279(2) 0.4279(2) 0.1505(2)
C31 C 0.1261(2) 0.4401(2) 0.1980(2)
H22 H 0.154781 0.445630 0.214343
C32 C 0.0841(2) 0.4445(2) 0.2223(2)
H23 H 0.083798 0.452938 0.254592
C33 C 0.0423(2) 0.4363(2) 0.1983(2)
C34 C 0.0420(2) 0.4248(2) 0.1514(2)
H24 H 0.013123 0.419623 0.135315
C35 C 0.0845(2) 0.4208(2) 0.1279(2)
H25 H 0.084313 0.412993 0.095438
Ag2 Ag 0.375000 0.30322(2) 0.05322(2)
Ag3 Ag 0.05322(2) 0.625000 0.19678(2)
Ag4 Ag 0.05322(2) 0.375000 0.30322(2)
N9 N 0.0689(2) 0.2716(2) 0.0006(2)
Ag1 Ag 0.125000 0.30322(2) 0.94678(2)
N1 N 0.1811(2) 0.2494(2) 0.9784(2)
H2 H 0.484328 0.445391 0.997839
H9 H 0.202938 0.333798 0.995408
C18 C 0.1809(2) 0.2031(3) 0.9674(3)
H12 H 0.177652 0.191587 0.936184
N10 N 0.09589(19) 0.3802(2) 0.9610(2)
N11 N 0.15411(19) 0.2890(2) 0.8698(2)
N5 N 0.9994(2) 0.4311(2) 0.2716(2)
N6 N 0.99881(19) 0.43733(19) 0.2245(2)
C36 C 0.9531(3) 0.4309(2) 0.2826(3)
H26 H 0.941587 0.427652 0.313816
C37 C 0.9248(3) 0.4360(3) 0.2446(3)
H27 H 0.891428 0.436537 0.244017
C38 C 0.9546(2) 0.4400(3) 0.2076(3)
H28 H 0.945820 0.443972 0.175599
N1_2 N 0.0006(2) 0.9311(2) 0.2284(2)
N2_2 N 0.00119(19) 0.93733(19) 0.2755(2)
C18_2 C 0.0469(3) 0.9309(2) 0.2174(3)
H12_2 H 0.058413 0.927652 0.186184
C19_2 C 0.0752(3) 0.9360(3) 0.2554(3)
H13_2 H 0.108572 0.936537 0.255983
C20_2 C 0.0454(2) 0.9400(3) 0.2924(3)
H14_2 H 0.054180 0.943972 0.324401
N3_2 N 0.8698(2) 0.15411(19) 0.2890(2)
N4_2 N 0.8257(2) 0.1357(2) 0.2919(3)
C1_2 C 0.8638(4) 0.1970(3) 0.2700(3)
H1_2 H 0.888832 0.218276 0.263675
C2_2 C 0.8176(3) 0.2064(4) 0.2608(5)
H2_2 H 0.804609 0.234328 0.247839
C3_2 C 0.7940(4) 0.1665(4) 0.2746(6)
H3_2 H 0.761085 0.161508 0.272219
C4_2 C 0.8180(3) 0.0907(2) 0.3113(3)
C5_2 C 0.7779(3) 0.0651(3) 0.3000(3)
H4_2 H 0.756366 0.076777 0.277266
C6_2 C 0.7697(3) 0.0224(3) 0.3220(3)
H5_2 H 0.741484 0.005755 0.315404
C7_2 C 0.8017(2) 0.0034(2) 0.3535(2)
C8_2 C 0.8417(3) 0.0295(2) 0.3650(2)
H6_2 H 0.863709 0.017518 0.387145
C9_2 C 0.8491(2) 0.0727(2) 0.3442(3)
H7_2 H 0.876147 0.090443 0.352626
H19_2 H 0.744245 0.008516 0.434596
Ag2_2 Ag 0.94678(2) 0.125000 0.30322(2)
Ag1_2 Ag 0.94678(2) 0.875000 0.19678(2)
C10_2 C 0.7937(2) 0.9563(2) 0.375000
C11_2 C 0.8274(2) 0.9226(2) 0.375000
C12_2 C 0.8721(2) 0.9279(2) 0.3495(2)
C13_2 C 0.8739(2) 0.9401(2) 0.3020(2)
H8_2 H 0.845219 0.945630 0.285657
C14_2 C 0.9159(2) 0.9445(2) 0.2777(2)
H9_2 H 0.916202 0.952938 0.245408
C15_2 C 0.9577(2) 0.9363(2) 0.3017(2)
C16_2 C 0.9580(2) 0.9248(2) 0.3486(2)
H10_2 H 0.986877 0.919623 0.364685
C17_2 C 0.9155(2) 0.9208(2) 0.3721(2)
H11_2 H 0.915687 0.912993 0.404562
N5_2 N 0.8189(2) 0.7494(2) 0.5216(2)
N6_2 N 0.81267(19) 0.74881(19) 0.4745(2)
N7_2 N 0.59589(19) 0.8802(2) 0.4610(2)
N8_2 N 0.6143(2) 0.9243(2) 0.4581(3)
C21_2 C 0.5530(3) 0.8862(4) 0.4800(3)
H15_2 H 0.531724 0.861168 0.486325
C22_2 C 0.5436(4) 0.9324(3) 0.4892(5)
H16_2 H 0.515672 0.945391 0.502161
C23_2 C 0.5835(4) 0.9560(4) 0.4754(6)
H17_2 H 0.588492 0.988915 0.477781
C24_2 C 0.6593(2) 0.9320(3) 0.4387(3)
C25_2 C 0.6849(3) 0.9721(3) 0.4500(3)
H18_2 H 0.673223 0.993634 0.472734
C26_2 C 0.7276(3) 0.9803(3) 0.4280(3)
C27_2 C 0.7466(2) 0.9483(2) 0.3965(2)
C28_2 C 0.7205(2) 0.9083(3) 0.3850(2)
H20_2 H 0.732482 0.886291 0.362855
C29_2 C 0.6773(2) 0.9009(2) 0.4058(3)
H21_2 H 0.659557 0.873853 0.397374
C30_2 C 0.8221(2) 0.8779(2) 0.4005(2)
C31_2 C 0.8099(2) 0.8761(2) 0.4480(2)
H22_2 H 0.804370 0.904781 0.464343
C32_2 C 0.8055(2) 0.8341(2) 0.4723(2)
H23_2 H 0.797062 0.833798 0.504592
C33_2 C 0.8137(2) 0.7923(2) 0.4483(2)
C34_2 C 0.8252(2) 0.7920(2) 0.4014(2)
H24_2 H 0.830377 0.763123 0.385315
C35_2 C 0.8292(2) 0.8345(2) 0.3779(2)
H25_2 H 0.837007 0.834313 0.345438
C36_2 C 0.8191(2) 0.7031(3) 0.5326(3)
H26_2 H 0.822348 0.691587 0.563816
C37_2 C 0.8140(3) 0.6748(3) 0.4946(3)
H27_2 H 0.813463 0.641428 0.494017
C38_2 C 0.8100(3) 0.7046(2) 0.4576(3)
H28_2 H 0.806028 0.695820 0.425599
Ag3_2 Ag 0.625000 0.80322(2) 0.44678(2)
Ag4_2 Ag 0.875000 0.80322(2) 0.55322(2)
N9_2 N 0.9784(2) 0.8189(2) 0.2506(2)
N10_2 N 0.8698(2) 0.84589(19) 0.2110(2)
N11_2 N 0.9610(2) 0.90411(19) 0.1198(2)
Ag1_3 Ag 0.375000 0.69678(2) 0.44678(2)
N1_3 N 0.3189(2) 0.7506(2) 0.4784(2)
N2_3 N 0.31267(19) 0.75119(19) 0.5255(2)
N3_3 N 0.09589(19) 0.6198(2) 0.5390(2)
N4_3 N 0.1143(2) 0.5757(2) 0.5419(3)
C1_3 C 0.0530(3) 0.6138(4) 0.5200(3)
H1_3 H 0.031724 0.638832 0.513675
C2_3 C 0.0436(4) 0.5676(3) 0.5108(5)
H2_3 H 0.015672 0.554609 0.497839
C3_3 C 0.0835(4) 0.5440(4) 0.5246(6)
H3_3 H 0.088492 0.511085 0.522219
C4_3 C 0.1593(2) 0.5680(3) 0.5613(3)
C5_3 C 0.1849(3) 0.5279(3) 0.5500(3)
H4_3 H 0.173223 0.506366 0.527266
C6_3 C 0.2276(3) 0.5197(3) 0.5720(3)
H5_3 H 0.244245 0.491484 0.565404
C7_3 C 0.2466(2) 0.5517(2) 0.6035(2)
C8_3 C 0.2205(2) 0.5917(3) 0.6150(2)
H6_3 H 0.232482 0.613709 0.637145
C9_3 C 0.1773(2) 0.5991(2) 0.5942(3)
H7_3 H 0.159557 0.626147 0.602626
C10_3 C 0.2937(2) 0.5437(2) 0.625000
C11_3 C 0.3274(2) 0.5774(2) 0.625000
C12_3 C 0.3221(2) 0.6221(2) 0.5995(2)
C13_3 C 0.3099(2) 0.6239(2) 0.5520(2)
H8_3 H 0.304370 0.595219 0.535657
C14_3 C 0.3055(2) 0.6659(2) 0.5277(2)
H9_3 H 0.297062 0.666202 0.495408
C15_3 C 0.3137(2) 0.7077(2) 0.5517(2)
C16_3 C 0.3252(2) 0.7080(2) 0.5986(2)
H10_3 H 0.330377 0.736877 0.614685
C17_3 C 0.3292(2) 0.6655(2) 0.6221(2)
H11_3 H 0.337007 0.665687 0.654562
C18_3 C 0.3191(2) 0.7969(3) 0.4674(3)
H12_3 H 0.322348 0.808413 0.436184
C19_3 C 0.3140(3) 0.8252(3) 0.5054(3)
H13_3 H 0.313463 0.858572 0.505983
C20_3 C 0.3100(3) 0.7954(2) 0.5424(3)
H14_3 H 0.306028 0.804180 0.574401
N5_3 N 0.5006(2) 0.5689(2) 0.7716(2)
N6_3 N 0.50119(19) 0.56267(19) 0.7245(2)
N7_3 N 0.3698(2) 0.34589(19) 0.7110(2)
N8_3 N 0.3257(2) 0.3643(2) 0.7081(3)
C21_3 C 0.3638(4) 0.3030(3) 0.7300(3)
H15_3 H 0.388832 0.281724 0.736325
C22_3 C 0.3176(3) 0.2936(4) 0.7392(5)
H16_3 H 0.304609 0.265672 0.752161
C23_3 C 0.2940(4) 0.3335(4) 0.7254(6)
H17_3 H 0.261085 0.338492 0.727781
C24_3 C 0.3180(3) 0.4093(2) 0.6887(3)
C25_3 C 0.2779(3) 0.4349(3) 0.7000(3)
H18_3 H 0.256366 0.423223 0.722734
C26_3 C 0.2697(3) 0.4776(3) 0.6780(3)
H19_3 H 0.241484 0.494245 0.684596
C27_3 C 0.3017(2) 0.4966(2) 0.6465(2)
C28_3 C 0.3417(3) 0.4705(2) 0.6350(2)
H20_3 H 0.363709 0.482482 0.612855
C29_3 C 0.3491(2) 0.4273(2) 0.6558(3)
H21_3 H 0.376147 0.409557 0.647374
C30_3 C 0.3721(2) 0.5721(2) 0.6505(2)
C31_3 C 0.3739(2) 0.5599(2) 0.6980(2)
H22_3 H 0.345219 0.554370 0.714343
C32_3 C 0.4159(2) 0.5555(2) 0.7223(2)
H23_3 H 0.416202 0.547062 0.754592
C33_3 C 0.4577(2) 0.5637(2) 0.6983(2)
C34_3 C 0.4580(2) 0.5752(2) 0.6514(2)
H24_3 H 0.486877 0.580377 0.635315
C35_3 C 0.4155(2) 0.5792(2) 0.6279(2)
H25_3 H 0.415687 0.587007 0.595438
C36_3 C 0.5469(3) 0.5691(2) 0.7826(3)
H26_3 H 0.558413 0.572348 0.813816
C37_3 C 0.5752(3) 0.5640(3) 0.7446(3)
H27_3 H 0.608572 0.563463 0.744017
C38_3 C 0.5454(2) 0.5600(3) 0.7076(3)
H28_3 H 0.554180 0.556028 0.675599
Ag2_3 Ag 0.125000 0.69678(2) 0.55322(2)
Ag3_3 Ag 0.44678(2) 0.375000 0.69678(2)
Ag4_3 Ag 0.44678(2) 0.625000 0.80322(2)
N9_3 N 0.4311(2) 0.7284(2) 0.5006(2)
N10_3 N 0.40411(19) 0.6198(2) 0.4610(2)
N11_3 N 0.34589(19) 0.7110(2) 0.3698(2)
N5_4 N 0.6811(2) 0.2506(2) 0.0216(2)
H16_4 H 0.984328 0.054609 0.002161
H23_4 H 0.702938 0.166202 0.004592
C36_4 C 0.6809(2) 0.2969(3) 0.0326(3)
H26_4 H 0.677652 0.308413 0.063816
Ag4_4 Ag 0.625000 0.19678(2) 0.05322(2)
Ag1_4 Ag 0.55322(2) 0.125000 0.69678(2)
N1_4 N 0.4994(2) 0.0689(2) 0.7284(2)
N2_4 N 0.49881(19) 0.06267(19) 0.7755(2)
C10_4 C 0.7063(2) 0.0437(2) 0.875000
C11_4 C 0.6726(2) 0.0774(2) 0.875000
C12_4 C 0.6279(2) 0.0721(2) 0.8495(2)
C13_4 C 0.6261(2) 0.0599(2) 0.8020(2)
H8_4 H 0.654781 0.054370 0.785657
C14_4 C 0.5841(2) 0.0555(2) 0.7777(2)
H9_4 H 0.583798 0.047062 0.745408
C15_4 C 0.5423(2) 0.0637(2) 0.8017(2)
C16_4 C 0.5420(2) 0.0752(2) 0.8486(2)
H10_4 H 0.513123 0.080377 0.864685
C17_4 C 0.5845(2) 0.0792(2) 0.8721(2)
H11_4 H 0.584313 0.087007 0.904562
C18_4 C 0.4531(3) 0.0691(2) 0.7174(3)
H12_4 H 0.441587 0.072348 0.686184
C19_4 C 0.4248(3) 0.0640(3) 0.7554(3)
H13_4 H 0.391428 0.063463 0.755983
C20_4 C 0.4546(2) 0.0600(3) 0.7924(3)
H14_4 H 0.445820 0.056028 0.824401
N6_4 N 0.68733(19) 0.25119(19) 0.9745(2)
N7_4 N 0.90411(19) 0.1198(2) 0.9610(2)
N8_4 N 0.8857(2) 0.0757(2) 0.9581(3)
C21_4 C 0.9470(3) 0.1138(4) 0.9800(3)
H15_4 H 0.968276 0.138832 0.986325
C22_4 C 0.9564(4) 0.0676(3) 0.9892(5)
C23_4 C 0.9165(4) 0.0440(4) 0.9754(6)
H17_4 H 0.911508 0.011085 0.977781
C24_4 C 0.8407(2) 0.0680(3) 0.9387(3)
C25_4 C 0.8151(3) 0.0279(3) 0.9500(3)
H18_4 H 0.826777 0.006366 0.972734
C26_4 C 0.7724(3) 0.0197(3) 0.9280(3)
C27_4 C 0.7534(2) 0.0517(2) 0.8965(2)
C28_4 C 0.7795(2) 0.0917(3) 0.8850(2)
H20_4 H 0.767518 0.113709 0.862855
C29_4 C 0.8227(2) 0.0991(2) 0.9058(3)
H21_4 H 0.840443 0.126147 0.897374
C30_4 C 0.6779(2) 0.1221(2) 0.9005(2)
C31_4 C 0.6901(2) 0.1239(2) 0.9480(2)
H22_4 H 0.695630 0.095219 0.964343
C32_4 C 0.6945(2) 0.1659(2) 0.9723(2)
C33_4 C 0.6863(2) 0.2077(2) 0.9483(2)
C34_4 C 0.6748(2) 0.2080(2) 0.9014(2)
H24_4 H 0.669623 0.236877 0.885315
C35_4 C 0.6708(2) 0.1655(2) 0.8779(2)
H25_4 H 0.662993 0.165687 0.845438
C37_4 C 0.6860(3) 0.3252(3) 0.9946(3)
H27_4 H 0.686537 0.358572 0.994017
C38_4 C 0.6900(3) 0.2954(2) 0.9576(3)
H28_4 H 0.693972 0.304180 0.925599
Ag3_4 Ag 0.875000 0.19678(2) 0.94678(2)
N9_4 N 0.5216(2) 0.1811(2) 0.7506(2)
N10_4 N 0.6302(2) 0.15411(19) 0.7110(2)
N11_4 N 0.5390(2) 0.09589(19) 0.6198(2)
N3_4 N 0.6302(2) 0.84589(19) 0.7890(2)
N4_4 N 0.6743(2) 0.8643(2) 0.7919(3)
C1_4 C 0.6362(4) 0.8030(3) 0.7700(3)
H1_4 H 0.611168 0.781724 0.763675
C2_4 C 0.6824(3) 0.7936(4) 0.7608(5)
H2_4 H 0.695391 0.765672 0.747839
C3_4 C 0.7060(4) 0.8335(4) 0.7746(6)
H3_4 H 0.738915 0.838492 0.772219
C4_4 C 0.6820(3) 0.9093(2) 0.8113(3)
C5_4 C 0.7221(3) 0.9349(3) 0.8000(3)
H4_4 H 0.743634 0.923223 0.777266
C6_4 C 0.7303(3) 0.9776(3) 0.8220(3)
H5_4 H 0.758516 0.994245 0.815404
C7_4 C 0.6983(2) 0.9966(2) 0.8535(2)
C8_4 C 0.6583(3) 0.9705(2) 0.8650(2)
H6_4 H 0.636291 0.982482 0.887145
C9_4 C 0.6509(2) 0.9273(2) 0.8442(3)
H7_4 H 0.623853 0.909557 0.852626
H19_4 H 0.755755 0.991484 0.934596
Ag2_4 Ag 0.55322(2) 0.875000 0.80322(2)
N1_5 N 0.1811(2) 0.7506(2) 0.5216(2)
N2_5 N 0.18733(19) 0.75119(19) 0.4745(2)
N4_5 N 0.3857(2) 0.5757(2) 0.4581(3)
C1_5 C 0.4470(3) 0.6138(4) 0.4800(3)
H1_5 H 0.468276 0.638832 0.486325
C2_5 C 0.4564(4) 0.5676(3) 0.4892(5)
H2_5 H 0.484328 0.554609 0.502161
C3_5 C 0.4165(4) 0.5440(4) 0.4754(6)
H3_5 H 0.411508 0.511085 0.477781
C4_5 C 0.3407(2) 0.5680(3) 0.4387(3)
C5_5 C 0.3151(3) 0.5279(3) 0.4500(3)
H4_5 H 0.326777 0.506366 0.472734
C6_5 C 0.2724(3) 0.5197(3) 0.4280(3)
H5_5 H 0.255755 0.491484 0.434596
C7_5 C 0.2534(2) 0.5517(2) 0.3965(2)
C8_5 C 0.2795(2) 0.5917(3) 0.3850(2)
H6_5 H 0.267518 0.613709 0.362855
C9_5 C 0.3227(2) 0.5991(2) 0.4058(3)
H7_5 H 0.340443 0.626147 0.397374
C10_5 C 0.2063(2) 0.5437(2) 0.375000
C11_5 C 0.1726(2) 0.5774(2) 0.375000
C12_5 C 0.1779(2) 0.6221(2) 0.4005(2)
C13_5 C 0.1901(2) 0.6239(2) 0.4480(2)
H8_5 H 0.195630 0.595219 0.464343
C14_5 C 0.1945(2) 0.6659(2) 0.4723(2)
H9_5 H 0.202938 0.666202 0.504592
C15_5 C 0.1863(2) 0.7077(2) 0.4483(2)
C16_5 C 0.1748(2) 0.7080(2) 0.4014(2)
H10_5 H 0.169623 0.736877 0.385315
C17_5 C 0.1708(2) 0.6655(2) 0.3779(2)
H11_5 H 0.162993 0.665687 0.345438
C18_5 C 0.1809(2) 0.7969(3) 0.5326(3)
H12_5 H 0.177652 0.808413 0.563816
C19_5 C 0.1860(3) 0.8252(3) 0.4946(3)
H13_5 H 0.186537 0.858572 0.494017
C20_5 C 0.1900(3) 0.7954(2) 0.4576(3)
H14_5 H 0.193972 0.804180 0.425599
N7_5 N 0.1302(2) 0.34589(19) 0.2890(2)
N8_5 N 0.1743(2) 0.3643(2) 0.2919(3)
C21_5 C 0.1362(4) 0.3030(3) 0.2700(3)
H15_5 H 0.111168 0.281724 0.263675
C22_5 C 0.1824(3) 0.2936(4) 0.2608(5)
H16_5 H 0.195391 0.265672 0.247839
C23_5 C 0.2060(4) 0.3335(4) 0.2746(6)
H17_5 H 0.238915 0.338492 0.272219
C24_5 C 0.1820(3) 0.4093(2) 0.3113(3)
C25_5 C 0.2221(3) 0.4349(3) 0.3000(3)
H18_5 H 0.243634 0.423223 0.277266
C26_5 C 0.2303(3) 0.4776(3) 0.3220(3)
H19_5 H 0.258516 0.494245 0.315404
C27_5 C 0.1983(2) 0.4966(2) 0.3535(2)
C28_5 C 0.1583(3) 0.4705(2) 0.3650(2)
H20_5 H 0.136291 0.482482 0.387145
C29_5 C 0.1509(2) 0.4273(2) 0.3442(3)
H21_5 H 0.123853 0.409557 0.352626
C30_5 C 0.1279(2) 0.5721(2) 0.3495(2)
C31_5 C 0.1261(2) 0.5599(2) 0.3020(2)
H22_5 H 0.154781 0.554370 0.285657
C32_5 C 0.0841(2) 0.5555(2) 0.2777(2)
H23_5 H 0.083798 0.547062 0.245408
C33_5 C 0.0423(2) 0.5637(2) 0.3017(2)
C34_5 C 0.0420(2) 0.5752(2) 0.3486(2)
H24_5 H 0.013123 0.580377 0.364685
C35_5 C 0.0845(2) 0.5792(2) 0.3721(2)
H25_5 H 0.084313 0.587007 0.404562
N9_5 N 0.0689(2) 0.7284(2) 0.4994(2)
N11_5 N 0.15411(19) 0.7110(2) 0.6302(2)
N5_5 N 0.9994(2) 0.5689(2) 0.2284(2)
N6_5 N 0.99881(19) 0.56267(19) 0.2755(2)
C36_5 C 0.9531(3) 0.5691(2) 0.2174(3)
H26_5 H 0.941587 0.572348 0.186184
C37_5 C 0.9248(3) 0.5640(3) 0.2554(3)
H27_5 H 0.891428 0.563463 0.255983
C38_5 C 0.9546(2) 0.5600(3) 0.2924(3)
H28_5 H 0.945820 0.556028 0.324401
N4_6 N 0.6743(2) 0.1357(2) 0.7081(3)
C1_6 C 0.6362(4) 0.1970(3) 0.7300(3)
H1_6 H 0.611168 0.218276 0.736325
C2_6 C 0.6824(3) 0.2064(4) 0.7392(5)
H2_6 H 0.695391 0.234328 0.752161
C3_6 C 0.7060(4) 0.1665(4) 0.7254(6)
H3_6 H 0.738915 0.161508 0.727781
C4_6 C 0.6820(3) 0.0907(2) 0.6887(3)
C5_6 C 0.7221(3) 0.0651(3) 0.7000(3)
H4_6 H 0.743634 0.076777 0.722734
C6_6 C 0.7303(3) 0.0224(3) 0.6780(3)
H5_6 H 0.758516 0.005755 0.684596
C7_6 C 0.6983(2) 0.0034(2) 0.6465(2)
C8_6 C 0.6583(3) 0.0295(2) 0.6350(2)
H6_6 H 0.636291 0.017518 0.612855
C9_6 C 0.6509(2) 0.0727(2) 0.6558(3)
H7_6 H 0.623853 0.090443 0.647374
H19_6 H 0.755755 0.008516 0.565404
N1_6 N 0.4994(2) 0.9311(2) 0.7716(2)
N2_6 N 0.49881(19) 0.93733(19) 0.7245(2)
C10_6 C 0.7063(2) 0.9563(2) 0.625000
C11_6 C 0.6726(2) 0.9226(2) 0.625000
C12_6 C 0.6279(2) 0.9279(2) 0.6505(2)
C13_6 C 0.6261(2) 0.9401(2) 0.6980(2)
H8_6 H 0.654781 0.945630 0.714343
C14_6 C 0.5841(2) 0.9445(2) 0.7223(2)
H9_6 H 0.583798 0.952938 0.754592
C15_6 C 0.5423(2) 0.9363(2) 0.6983(2)
C16_6 C 0.5420(2) 0.9248(2) 0.6514(2)
H10_6 H 0.513123 0.919623 0.635315
C17_6 C 0.5845(2) 0.9208(2) 0.6279(2)
H11_6 H 0.584313 0.912993 0.595438
C18_6 C 0.4531(3) 0.9309(2) 0.7826(3)
H12_6 H 0.441587 0.927652 0.813816
C19_6 C 0.4248(3) 0.9360(3) 0.7446(3)
H13_6 H 0.391428 0.936537 0.744017
C20_6 C 0.4546(2) 0.9400(3) 0.7076(3)
H14_6 H 0.445820 0.943972 0.675599
N5_6 N 0.6811(2) 0.7494(2) 0.4784(2)
N6_6 N 0.68733(19) 0.74881(19) 0.5255(2)
N7_6 N 0.90411(19) 0.8802(2) 0.5390(2)
N8_6 N 0.8857(2) 0.9243(2) 0.5419(3)
C21_6 C 0.9470(3) 0.8862(4) 0.5200(3)
H15_6 H 0.968276 0.861168 0.513675
C22_6 C 0.9564(4) 0.9324(3) 0.5108(5)
H16_6 H 0.984328 0.945391 0.497839
C23_6 C 0.9165(4) 0.9560(4) 0.5246(6)
H17_6 H 0.911508 0.988915 0.522219
C24_6 C 0.8407(2) 0.9320(3) 0.5613(3)
C25_6 C 0.8151(3) 0.9721(3) 0.5500(3)
H18_6 H 0.826777 0.993634 0.527266
C26_6 C 0.7724(3) 0.9803(3) 0.5720(3)
C27_6 C 0.7534(2) 0.9483(2) 0.6035(2)
C28_6 C 0.7795(2) 0.9083(3) 0.6150(2)
H20_6 H 0.767518 0.886291 0.637145
C29_6 C 0.8227(2) 0.9009(2) 0.5942(3)
H21_6 H 0.840443 0.873853 0.602626
C30_6 C 0.6779(2) 0.8779(2) 0.5995(2)
C31_6 C 0.6901(2) 0.8761(2) 0.5520(2)
H22_6 H 0.695630 0.904781 0.535657
C32_6 C 0.6945(2) 0.8341(2) 0.5277(2)
H23_6 H 0.702938 0.833798 0.495408
C33_6 C 0.6863(2) 0.7923(2) 0.5517(2)
C34_6 C 0.6748(2) 0.7920(2) 0.5986(2)
H24_6 H 0.669623 0.763123 0.614685
C35_6 C 0.6708(2) 0.8345(2) 0.6221(2)
H25_6 H 0.662993 0.834313 0.654562
C36_6 C 0.6809(2) 0.7031(3) 0.4674(3)
H26_6 H 0.677652 0.691587 0.436184
C37_6 C 0.6860(3) 0.6748(3) 0.5054(3)
H27_6 H 0.686537 0.641428 0.505983
C38_6 C 0.6900(3) 0.7046(2) 0.5424(3)
H28_6 H 0.693972 0.695820 0.574401
N9_6 N 0.5216(2) 0.8189(2) 0.7494(2)
N11_6 N 0.5390(2) 0.90411(19) 0.8802(2)
N1_7 N 0.3189(2) 0.2494(2) 0.0216(2)
H2_7 H 0.015672 0.445391 0.002161
H9_7 H 0.297062 0.333798 0.004592
C18_7 C 0.3191(2) 0.2031(3) 0.0326(3)
H12_7 H 0.322348 0.191587 0.063816
N11_7 N 0.34589(19) 0.2890(2) 0.1302(2)
N2_7 N 0.31267(19) 0.24881(19) 0.9745(2)
N4_7 N 0.1143(2) 0.4243(2) 0.9581(3)
C1_7 C 0.0530(3) 0.3862(4) 0.9800(3)
H1_7 H 0.031724 0.361168 0.986325
C2_7 C 0.0436(4) 0.4324(3) 0.9892(5)
C3_7 C 0.0835(4) 0.4560(4) 0.9754(6)
H3_7 H 0.088492 0.488915 0.977781
C4_7 C 0.1593(2) 0.4320(3) 0.9387(3)
C5_7 C 0.1849(3) 0.4721(3) 0.9500(3)
H4_7 H 0.173223 0.493634 0.972734
C6_7 C 0.2276(3) 0.4803(3) 0.9280(3)
H5_7 H 0.244245 0.508516 0.934596
C7_7 C 0.2466(2) 0.4483(2) 0.8965(2)
C8_7 C 0.2205(2) 0.4083(3) 0.8850(2)
H6_7 H 0.232482 0.386291 0.862855
C9_7 C 0.1773(2) 0.4009(2) 0.9058(3)
H7_7 H 0.159557 0.373853 0.897374
C10_7 C 0.2937(2) 0.4563(2) 0.875000
C11_7 C 0.3274(2) 0.4226(2) 0.875000
C12_7 C 0.3221(2) 0.3779(2) 0.9005(2)
C13_7 C 0.3099(2) 0.3761(2) 0.9480(2)
H8_7 H 0.304370 0.404781 0.964343
C14_7 C 0.3055(2) 0.3341(2) 0.9723(2)
C15_7 C 0.3137(2) 0.2923(2) 0.9483(2)
C16_7 C 0.3252(2) 0.2920(2) 0.9014(2)
H10_7 H 0.330377 0.263123 0.885315
C17_7 C 0.3292(2) 0.3345(2) 0.8779(2)
H11_7 H 0.337007 0.334313 0.845438
C19_7 C 0.3140(3) 0.1748(3) 0.9946(3)
H13_7 H 0.313463 0.141428 0.994017
C20_7 C 0.3100(3) 0.2046(2) 0.9576(3)
H14_7 H 0.306028 0.195820 0.925599
N5_7 N 0.5006(2) 0.4311(2) 0.7284(2)
N6_7 N 0.50119(19) 0.43733(19) 0.7755(2)
N7_7 N 0.3698(2) 0.65411(19) 0.7890(2)
N8_7 N 0.3257(2) 0.6357(2) 0.7919(3)
C21_7 C 0.3638(4) 0.6970(3) 0.7700(3)
H15_7 H 0.388832 0.718276 0.763675
C22_7 C 0.3176(3) 0.7064(4) 0.7608(5)
H16_7 H 0.304609 0.734328 0.747839
C23_7 C 0.2940(4) 0.6665(4) 0.7746(6)
H17_7 H 0.261085 0.661508 0.772219
C24_7 C 0.3180(3) 0.5907(2) 0.8113(3)
C25_7 C 0.2779(3) 0.5651(3) 0.8000(3)
H18_7 H 0.256366 0.576777 0.777266
C26_7 C 0.2697(3) 0.5224(3) 0.8220(3)
H19_7 H 0.241484 0.505755 0.815404
C27_7 C 0.3017(2) 0.5034(2) 0.8535(2)
C28_7 C 0.3417(3) 0.5295(2) 0.8650(2)
H20_7 H 0.363709 0.517518 0.887145
C29_7 C 0.3491(2) 0.5727(2) 0.8442(3)
H21_7 H 0.376147 0.590443 0.852626
C30_7 C 0.3721(2) 0.4279(2) 0.8495(2)
C31_7 C 0.3739(2) 0.4401(2) 0.8020(2)
H22_7 H 0.345219 0.445630 0.785657
C32_7 C 0.4159(2) 0.4445(2) 0.7777(2)
H23_7 H 0.416202 0.452938 0.745408
C33_7 C 0.4577(2) 0.4363(2) 0.8017(2)
C34_7 C 0.4580(2) 0.4248(2) 0.8486(2)
H24_7 H 0.486877 0.419623 0.864685
C35_7 C 0.4155(2) 0.4208(2) 0.8721(2)
H25_7 H 0.415687 0.412993 0.904562
C36_7 C 0.5469(3) 0.4309(2) 0.7174(3)
H26_7 H 0.558413 0.427652 0.686184
C37_7 C 0.5752(3) 0.4360(3) 0.7554(3)
H27_7 H 0.608572 0.436537 0.755983
C38_7 C 0.5454(2) 0.4400(3) 0.7924(3)
H28_7 H 0.554180 0.443972 0.824401
N9_7 N 0.4311(2) 0.2716(2) 0.9994(2)
N1_8 N 0.0006(2) 0.0689(2) 0.2716(2)
N2_8 N 0.00119(19) 0.06267(19) 0.2245(2)
C18_8 C 0.0469(3) 0.0691(2) 0.2826(3)
H12_8 H 0.058413 0.072348 0.313816
C19_8 C 0.0752(3) 0.0640(3) 0.2446(3)
H13_8 H 0.108572 0.063463 0.244017
C20_8 C 0.0454(2) 0.0600(3) 0.2076(3)
H14_8 H 0.054180 0.056028 0.175599
C10_8 C 0.7937(2) 0.0437(2) 0.125000
C11_8 C 0.8274(2) 0.0774(2) 0.125000
C12_8 C 0.8721(2) 0.0721(2) 0.1505(2)
C13_8 C 0.8739(2) 0.0599(2) 0.1980(2)
H8_8 H 0.845219 0.054370 0.214343
C14_8 C 0.9159(2) 0.0555(2) 0.2223(2)
H9_8 H 0.916202 0.047062 0.254592
C15_8 C 0.9577(2) 0.0637(2) 0.1983(2)
C16_8 C 0.9580(2) 0.0752(2) 0.1514(2)
H10_8 H 0.986877 0.080377 0.135315
C17_8 C 0.9155(2) 0.0792(2) 0.1279(2)
H11_8 H 0.915687 0.087007 0.095438
N6_8 N 0.81267(19) 0.25119(19) 0.0255(2)
N7_8 N 0.59589(19) 0.1198(2) 0.0390(2)
N8_8 N 0.6143(2) 0.0757(2) 0.0419(3)
C21_8 C 0.5530(3) 0.1138(4) 0.0200(3)
H15_8 H 0.531724 0.138832 0.013675
C22_8 C 0.5436(4) 0.0676(3) 0.0108(5)
C23_8 C 0.5835(4) 0.0440(4) 0.0246(6)
H17_8 H 0.588492 0.011085 0.022219
C24_8 C 0.6593(2) 0.0680(3) 0.0613(3)
C25_8 C 0.6849(3) 0.0279(3) 0.0500(3)
H18_8 H 0.673223 0.006366 0.027266
C26_8 C 0.7276(3) 0.0197(3) 0.0720(3)
C27_8 C 0.7466(2) 0.0517(2) 0.1035(2)
C28_8 C 0.7205(2) 0.0917(3) 0.1150(2)
H20_8 H 0.732482 0.113709 0.137145
C29_8 C 0.6773(2) 0.0991(2) 0.0942(3)
H21_8 H 0.659557 0.126147 0.102626
C30_8 C 0.8221(2) 0.1221(2) 0.0995(2)
C31_8 C 0.8099(2) 0.1239(2) 0.0520(2)
H22_8 H 0.804370 0.095219 0.035657
C32_8 C 0.8055(2) 0.1659(2) 0.0277(2)
C33_8 C 0.8137(2) 0.2077(2) 0.0517(2)
C34_8 C 0.8252(2) 0.2080(2) 0.0986(2)
H24_8 H 0.830377 0.236877 0.114685
C35_8 C 0.8292(2) 0.1655(2) 0.1221(2)
H25_8 H 0.837007 0.165687 0.154562
C37_8 C 0.8140(3) 0.3252(3) 0.0054(3)
H27_8 H 0.813463 0.358572 0.005983
C38_8 C 0.8100(3) 0.2954(2) 0.0424(3)
H28_8 H 0.806028 0.304180 0.074401
N9_8 N 0.9784(2) 0.1811(2) 0.2494(2)
N11_8 N 0.9610(2) 0.09589(19) 0.3802(2)
N5_8 N 0.8189(2) 0.2506(2) 0.9784(2)
H16_8 H 0.515672 0.054609 0.997839
H23_8 H 0.797062 0.166202 0.995408
C36_8 C 0.8191(2) 0.2969(3) 0.9674(3)
H26_8 H 0.822348 0.308413 0.936184
N4_8 N 0.8257(2) 0.8643(2) 0.2081(3)
C1_8 C 0.8638(4) 0.8030(3) 0.2300(3)
H1_8 H 0.888832 0.781724 0.236325
C2_8 C 0.8176(3) 0.7936(4) 0.2392(5)
H2_8 H 0.804609 0.765672 0.252161
C3_8 C 0.7940(4) 0.8335(4) 0.2254(6)
H3_8 H 0.761085 0.838492 0.227781
C4_8 C 0.8180(3) 0.9093(2) 0.1887(3)
C5_8 C 0.7779(3) 0.9349(3) 0.2000(3)
H4_8 H 0.756366 0.923223 0.222734
C6_8 C 0.7697(3) 0.9776(3) 0.1780(3)
H5_8 H 0.741484 0.994245 0.184596
C7_8 C 0.8017(2) 0.9966(2) 0.1465(2)
C8_8 C 0.8417(3) 0.9705(2) 0.1350(2)
H6_8 H 0.863709 0.982482 0.112855
C9_8 C 0.8491(2) 0.9273(2) 0.1558(3)
H7_8 H 0.876147 0.909557 0.147374
H19_8 H 0.744245 0.991484 0.065404
N2_9 N 0.0255(2) 0.18733(19) 0.24881(19)
N3_5 N 0.0390(2) 0.40411(19) 0.3802(2)
N4_9 N 0.0419(3) 0.3857(2) 0.4243(2)
C1_9 C 0.0200(3) 0.4470(3) 0.3862(4)
H1_9 H 0.013675 0.468276 0.361168
C2_9 C 0.0108(5) 0.4564(4) 0.4324(3)
C3_9 C 0.0246(6) 0.4165(4) 0.4560(4)
H3_9 H 0.022219 0.411508 0.488915
C4_9 C 0.0613(3) 0.3407(2) 0.4320(3)
C5_9 C 0.0500(3) 0.3151(3) 0.4721(3)
H4_9 H 0.027266 0.326777 0.493634
C6_9 C 0.0720(3) 0.2724(3) 0.4803(3)
H5_9 H 0.065404 0.255755 0.508516
C7_9 C 0.1035(2) 0.2534(2) 0.4483(2)
C8_9 C 0.1150(2) 0.2795(2) 0.4083(3)
H6_9 H 0.137145 0.267518 0.386291
C9_9 C 0.0942(3) 0.3227(2) 0.4009(2)
H7_9 H 0.102626 0.340443 0.373853
C10_9 C 0.125000 0.2063(2) 0.4563(2)
C11_9 C 0.125000 0.1726(2) 0.4226(2)
C12_9 C 0.0995(2) 0.1779(2) 0.3779(2)
C13_9 C 0.0520(2) 0.1901(2) 0.3761(2)
H8_9 H 0.035657 0.195630 0.404781
C14_9 C 0.0277(2) 0.1945(2) 0.3341(2)
C15_9 C 0.0517(2) 0.1863(2) 0.2923(2)
C16_9 C 0.0986(2) 0.1748(2) 0.2920(2)
H10_9 H 0.114685 0.169623 0.263123
C17_9 C 0.1221(2) 0.1708(2) 0.3345(2)
H11_9 H 0.154562 0.162993 0.334313
C19_9 C 0.0054(3) 0.1860(3) 0.1748(3)
H13_9 H 0.005983 0.186537 0.141428
C20_9 C 0.0424(3) 0.1900(3) 0.2046(2)
H14_9 H 0.074401 0.193972 0.195820
N7_9 N 0.2110(2) 0.1302(2) 0.65411(19)
N8_9 N 0.2081(3) 0.1743(2) 0.6357(2)
C21_9 C 0.2300(3) 0.1362(4) 0.6970(3)
H15_9 H 0.236325 0.111168 0.718276
C22_9 C 0.2392(5) 0.1824(3) 0.7064(4)
H16_9 H 0.252161 0.195391 0.734328
C23_9 C 0.2254(6) 0.2060(4) 0.6665(4)
H17_9 H 0.227781 0.238915 0.661508
C24_9 C 0.1887(3) 0.1820(3) 0.5907(2)
C25_9 C 0.2000(3) 0.2221(3) 0.5651(3)
H18_9 H 0.222734 0.243634 0.576777
C26_9 C 0.1780(3) 0.2303(3) 0.5224(3)
H19_9 H 0.184596 0.258516 0.505755
C27_9 C 0.1465(2) 0.1983(2) 0.5034(2)
C28_9 C 0.1350(2) 0.1583(3) 0.5295(2)
H20_9 H 0.112855 0.136291 0.517518
C29_9 C 0.1558(3) 0.1509(2) 0.5727(2)
H21_9 H 0.147374 0.123853 0.590443
C30_9 C 0.1505(2) 0.1279(2) 0.4279(2)
C31_9 C 0.1980(2) 0.1261(2) 0.4401(2)
H22_9 H 0.214343 0.154781 0.445630
C32_9 C 0.2223(2) 0.0841(2) 0.4445(2)
H23_9 H 0.254592 0.083798 0.452938
C33_9 C 0.1983(2) 0.0423(2) 0.4363(2)
C34_9 C 0.1514(2) 0.0420(2) 0.4248(2)
H24_9 H 0.135315 0.013123 0.419623
C35_9 C 0.1279(2) 0.0845(2) 0.4208(2)
H25_9 H 0.095438 0.084313 0.412993
Ag3_5 Ag 0.19678(2) 0.05322(2) 0.625000
Ag4_5 Ag 0.30322(2) 0.05322(2) 0.375000
N5_9 N 0.2716(2) 0.9994(2) 0.4311(2)
N6_9 N 0.2245(2) 0.99881(19) 0.43733(19)
C36_9 C 0.2826(3) 0.9531(3) 0.4309(2)
H26_9 H 0.313816 0.941587 0.427652
C37_9 C 0.2446(3) 0.9248(3) 0.4360(3)
H27_9 H 0.244017 0.891428 0.436537
C38_9 C 0.2076(3) 0.9546(2) 0.4400(3)
H28_9 H 0.175599 0.945820 0.443972
H2_9 H 0.997839 0.484328 0.445391
H9_9 H 0.995408 0.202938 0.333798
C18_9 C 0.9674(3) 0.1809(2) 0.2031(3)
H12_9 H 0.936184 0.177652 0.191587
N5_10 N 0.2506(2) 0.0216(2) 0.6811(2)
H16_10 H 0.054609 0.002161 0.984328
H23_10 H 0.166202 0.004592 0.702938
C36_10 C 0.2969(3) 0.0326(3) 0.6809(2)
H26_10 H 0.308413 0.063816 0.677652
N2_10 N 0.06267(19) 0.7755(2) 0.49881(19)
C10_10 C 0.0437(2) 0.875000 0.7063(2)
C11_10 C 0.0774(2) 0.875000 0.6726(2)
C12_10 C 0.0721(2) 0.8495(2) 0.6279(2)
C13_10 C 0.0599(2) 0.8020(2) 0.6261(2)
H8_10 H 0.054370 0.785657 0.654781
C14_10 C 0.0555(2) 0.7777(2) 0.5841(2)
H9_10 H 0.047062 0.745408 0.583798
C15_10 C 0.0637(2) 0.8017(2) 0.5423(2)
C16_10 C 0.0752(2) 0.8486(2) 0.5420(2)
H10_10 H 0.080377 0.864685 0.513123
C17_10 C 0.0792(2) 0.8721(2) 0.5845(2)
H11_10 H 0.087007 0.904562 0.584313
C18_10 C 0.0691(2) 0.7174(3) 0.4531(3)
H12_10 H 0.072348 0.686184 0.441587
C19_10 C 0.0640(3) 0.7554(3) 0.4248(3)
H13_10 H 0.063463 0.755983 0.391428
C20_10 C 0.0600(3) 0.7924(3) 0.4546(2)
H14_10 H 0.056028 0.824401 0.445820
N6_10 N 0.25119(19) 0.9745(2) 0.68733(19)
N7_10 N 0.1198(2) 0.9610(2) 0.90411(19)
N8_10 N 0.0757(2) 0.9581(3) 0.8857(2)
C21_10 C 0.1138(4) 0.9800(3) 0.9470(3)
H15_10 H 0.138832 0.986325 0.968276
C22_10 C 0.0676(3) 0.9892(5) 0.9564(4)
C23_10 C 0.0440(4) 0.9754(6) 0.9165(4)
H17_10 H 0.011085 0.977781 0.911508
C24_10 C 0.0680(3) 0.9387(3) 0.8407(2)
C25_10 C 0.0279(3) 0.9500(3) 0.8151(3)
H18_10 H 0.006366 0.972734 0.826777
C26_10 C 0.0197(3) 0.9280(3) 0.7724(3)
C27_10 C 0.0517(2) 0.8965(2) 0.7534(2)
C28_10 C 0.0917(3) 0.8850(2) 0.7795(2)
H20_10 H 0.113709 0.862855 0.767518
C29_10 C 0.0991(2) 0.9058(3) 0.8227(2)
H21_10 H 0.126147 0.897374 0.840443
C30_10 C 0.1221(2) 0.9005(2) 0.6779(2)
C31_10 C 0.1239(2) 0.9480(2) 0.6901(2)
H22_10 H 0.095219 0.964343 0.695630
C32_10 C 0.1659(2) 0.9723(2) 0.6945(2)
C33_10 C 0.2077(2) 0.9483(2) 0.6863(2)
C34_10 C 0.2080(2) 0.9014(2) 0.6748(2)
H24_10 H 0.236877 0.885315 0.669623
C35_10 C 0.1655(2) 0.8779(2) 0.6708(2)
H25_10 H 0.165687 0.845438 0.662993
C37_10 C 0.3252(3) 0.9946(3) 0.6860(3)
H27_10 H 0.358572 0.994017 0.686537
C38_10 C 0.2954(2) 0.9576(3) 0.6900(3)
H28_10 H 0.304180 0.925599 0.693972
Ag3_6 Ag 0.19678(2) 0.94678(2) 0.875000
N3_6 N 0.84589(19) 0.7890(2) 0.6302(2)
N4_10 N 0.8643(2) 0.7919(3) 0.6743(2)
C1_10 C 0.8030(3) 0.7700(3) 0.6362(4)
H1_10 H 0.781724 0.763675 0.611168
C2_10 C 0.7936(4) 0.7608(5) 0.6824(3)
H2_10 H 0.765672 0.747839 0.695391
C3_10 C 0.8335(4) 0.7746(6) 0.7060(4)
H3_10 H 0.838492 0.772219 0.738915
C4_10 C 0.9093(2) 0.8113(3) 0.6820(3)
C5_10 C 0.9349(3) 0.8000(3) 0.7221(3)
H4_10 H 0.923223 0.777266 0.743634
C6_10 C 0.9776(3) 0.8220(3) 0.7303(3)
H5_10 H 0.994245 0.815404 0.758516
C7_10 C 0.9966(2) 0.8535(2) 0.6983(2)
C8_10 C 0.9705(2) 0.8650(2) 0.6583(3)
H6_10 H 0.982482 0.887145 0.636291
C9_10 C 0.9273(2) 0.8442(3) 0.6509(2)
H7_10 H 0.909557 0.852626 0.623853
H19_10 H 0.991484 0.934596 0.755755
N5_11 N 0.2284(2) 0.0006(2) 0.9311(2)
N6_11 N 0.2755(2) 0.00119(19) 0.93733(19)
C36_11 C 0.2174(3) 0.0469(3) 0.9309(2)
H26_11 H 0.186184 0.058413 0.927652
C37_11 C 0.2554(3) 0.0752(3) 0.9360(3)
H27_11 H 0.255983 0.108572 0.936537
C38_11 C 0.2924(3) 0.0454(2) 0.9400(3)
H28_11 H 0.324401 0.054180 0.943972
H5_11 H 0.434596 0.744245 0.008516
N7_11 N 0.2890(2) 0.8698(2) 0.15411(19)
N8_11 N 0.2919(3) 0.8257(2) 0.1357(2)
C21_11 C 0.2700(3) 0.8638(4) 0.1970(3)
H15_11 H 0.263675 0.888832 0.218276
C22_11 C 0.2608(5) 0.8176(3) 0.2064(4)
H16_11 H 0.247839 0.804609 0.234328
C23_11 C 0.2746(6) 0.7940(4) 0.1665(4)
H17_11 H 0.272219 0.761085 0.161508
C24_11 C 0.3113(3) 0.8180(3) 0.0907(2)
C25_11 C 0.3000(3) 0.7779(3) 0.0651(3)
H18_11 H 0.277266 0.756366 0.076777
C26_11 C 0.3220(3) 0.7697(3) 0.0224(3)
H19_11 H 0.315404 0.741484 0.005755
C27_11 C 0.3535(2) 0.8017(2) 0.0034(2)
C28_11 C 0.3650(2) 0.8417(3) 0.0295(2)
H20_11 H 0.387145 0.863709 0.017518
C29_11 C 0.3442(3) 0.8491(2) 0.0727(2)
H21_11 H 0.352626 0.876147 0.090443
Ag3_7 Ag 0.30322(2) 0.94678(2) 0.125000
N2_11 N 0.4745(2) 0.81267(19) 0.74881(19)
N3_7 N 0.4610(2) 0.59589(19) 0.8802(2)
N4_11 N 0.4581(3) 0.6143(2) 0.9243(2)
C1_11 C 0.4800(3) 0.5530(3) 0.8862(4)
H1_11 H 0.486325 0.531724 0.861168
C2_11 C 0.4892(5) 0.5436(4) 0.9324(3)
H2_11 H 0.502161 0.515672 0.945391
C3_11 C 0.4754(6) 0.5835(4) 0.9560(4)
H3_11 H 0.477781 0.588492 0.988915
C4_11 C 0.4387(3) 0.6593(2) 0.9320(3)
C5_11 C 0.4500(3) 0.6849(3) 0.9721(3)
H4_11 H 0.472734 0.673223 0.993634
C6_11 C 0.4280(3) 0.7276(3) 0.9803(3)
C7_11 C 0.3965(2) 0.7466(2) 0.9483(2)
C8_11 C 0.3850(2) 0.7205(2) 0.9083(3)
H6_11 H 0.362855 0.732482 0.886291
C9_11 C 0.4058(3) 0.6773(2) 0.9009(2)
H7_11 H 0.397374 0.659557 0.873853
C10_11 C 0.375000 0.7937(2) 0.9563(2)
C11_11 C 0.375000 0.8274(2) 0.9226(2)
C12_11 C 0.4005(2) 0.8221(2) 0.8779(2)
C13_11 C 0.4480(2) 0.8099(2) 0.8761(2)
H8_11 H 0.464343 0.804370 0.904781
C14_11 C 0.4723(2) 0.8055(2) 0.8341(2)
H9_11 H 0.504592 0.797062 0.833798
C15_11 C 0.4483(2) 0.8137(2) 0.7923(2)
C16_11 C 0.4014(2) 0.8252(2) 0.7920(2)
H10_11 H 0.385315 0.830377 0.763123
C17_11 C 0.3779(2) 0.8292(2) 0.8345(2)
H11_11 H 0.345438 0.837007 0.834313
C18_11 C 0.5326(3) 0.8191(2) 0.7031(3)
H12_11 H 0.563816 0.822348 0.691587
C19_11 C 0.4946(3) 0.8140(3) 0.6748(3)
H13_11 H 0.494017 0.813463 0.641428
C20_11 C 0.4576(3) 0.8100(3) 0.7046(2)
H14_11 H 0.425599 0.806028 0.695820
C30_11 C 0.3495(2) 0.8721(2) 0.9279(2)
C31_11 C 0.3020(2) 0.8739(2) 0.9401(2)
H22_11 H 0.285657 0.845219 0.945630
C32_11 C 0.2777(2) 0.9159(2) 0.9445(2)
H23_11 H 0.245408 0.916202 0.952938
C33_11 C 0.3017(2) 0.9577(2) 0.9363(2)
C34_11 C 0.3486(2) 0.9580(2) 0.9248(2)
H24_11 H 0.364685 0.986877 0.919623
C35_11 C 0.3721(2) 0.9155(2) 0.9208(2)
H25_11 H 0.404562 0.915687 0.912993
N3_8 N 0.65411(19) 0.2110(2) 0.1302(2)
N4_12 N 0.6357(2) 0.2081(3) 0.1743(2)
C1_12 C 0.6970(3) 0.2300(3) 0.1362(4)
H1_12 H 0.718276 0.236325 0.111168
C2_12 C 0.7064(4) 0.2392(5) 0.1824(3)
H2_12 H 0.734328 0.252161 0.195391
C3_12 C 0.6665(4) 0.2254(6) 0.2060(4)
H3_12 H 0.661508 0.227781 0.238915
C4_12 C 0.5907(2) 0.1887(3) 0.1820(3)
C5_12 C 0.5651(3) 0.2000(3) 0.2221(3)
H4_12 H 0.576777 0.222734 0.243634
C6_12 C 0.5224(3) 0.1780(3) 0.2303(3)
H5_12 H 0.505755 0.184596 0.258516
C7_12 C 0.5034(2) 0.1465(2) 0.1983(2)
C8_12 C 0.5295(2) 0.1350(2) 0.1583(3)
H6_12 H 0.517518 0.112855 0.136291
C9_12 C 0.5727(2) 0.1558(3) 0.1509(2)
H7_12 H 0.590443 0.147374 0.123853
C10_12 C 0.4563(2) 0.125000 0.2063(2)
C11_12 C 0.4226(2) 0.125000 0.1726(2)
C12_12 C 0.4279(2) 0.1505(2) 0.1279(2)
C13_12 C 0.4401(2) 0.1980(2) 0.1261(2)
H8_12 H 0.445630 0.214343 0.154781
C14_12 C 0.4445(2) 0.2223(2) 0.0841(2)
H9_12 H 0.452938 0.254592 0.083798
C15_12 C 0.4363(2) 0.1983(2) 0.0423(2)
C16_12 C 0.4248(2) 0.1514(2) 0.0420(2)
H10_12 H 0.419623 0.135315 0.013123
C17_12 C 0.4208(2) 0.1279(2) 0.0845(2)
H11_12 H 0.412993 0.095438 0.084313
N6_12 N 0.24881(19) 0.0255(2) 0.18733(19)
N7_12 N 0.3802(2) 0.0390(2) 0.40411(19)
N8_12 N 0.4243(2) 0.0419(3) 0.3857(2)
C21_12 C 0.3862(4) 0.0200(3) 0.4470(3)
H15_12 H 0.361168 0.013675 0.468276
C22_12 C 0.4324(3) 0.0108(5) 0.4564(4)
C23_12 C 0.4560(4) 0.0246(6) 0.4165(4)
H17_12 H 0.488915 0.022219 0.411508
C24_12 C 0.4320(3) 0.0613(3) 0.3407(2)
C25_12 C 0.4721(3) 0.0500(3) 0.3151(3)
H18_12 H 0.493634 0.027266 0.326777
C26_12 C 0.4803(3) 0.0720(3) 0.2724(3)
H19_12 H 0.508516 0.065404 0.255755
C27_12 C 0.4483(2) 0.1035(2) 0.2534(2)
C28_12 C 0.4083(3) 0.1150(2) 0.2795(2)
H20_12 H 0.386291 0.137145 0.267518
C29_12 C 0.4009(2) 0.0942(3) 0.3227(2)
H21_12 H 0.373853 0.102626 0.340443
C30_12 C 0.3779(2) 0.0995(2) 0.1779(2)
C31_12 C 0.3761(2) 0.0520(2) 0.1901(2)
H22_12 H 0.404781 0.035657 0.195630
C32_12 C 0.3341(2) 0.0277(2) 0.1945(2)
C33_12 C 0.2923(2) 0.0517(2) 0.1863(2)
C34_12 C 0.2920(2) 0.0986(2) 0.1748(2)
H24_12 H 0.263123 0.114685 0.169623
C35_12 C 0.3345(2) 0.1221(2) 0.1708(2)
H25_12 H 0.334313 0.154562 0.162993
C37_12 C 0.1748(3) 0.0054(3) 0.1860(3)
H27_12 H 0.141428 0.005983 0.186537
C38_12 C 0.2046(2) 0.0424(3) 0.1900(3)
H28_12 H 0.195820 0.074401 0.193972
N2_12 N 0.43733(19) 0.2245(2) 0.99881(19)
C18_12 C 0.4309(2) 0.2826(3) 0.9531(3)
H12_12 H 0.427652 0.313816 0.941587
C19_12 C 0.4360(3) 0.2446(3) 0.9248(3)
H13_12 H 0.436537 0.244017 0.891428
C20_12 C 0.4400(3) 0.2076(3) 0.9546(2)
H14_12 H 0.443972 0.175599 0.945820
N5_12 N 0.2494(2) 0.9784(2) 0.1811(2)
H16_12 H 0.445391 0.997839 0.484328
H23_12 H 0.333798 0.995408 0.202938
C36_12 C 0.2031(3) 0.9674(3) 0.1809(2)
H26_12 H 0.191587 0.936184 0.177652
N5_13 N 0.2716(2) 0.0006(2) 0.0689(2)
N6_13 N 0.2245(2) 0.00119(19) 0.06267(19)
C36_13 C 0.2826(3) 0.0469(3) 0.0691(2)
H26_13 H 0.313816 0.058413 0.072348
C37_13 C 0.2446(3) 0.0752(3) 0.0640(3)
H27_13 H 0.244017 0.108572 0.063463
C38_13 C 0.2076(3) 0.0454(2) 0.0600(3)
H28_13 H 0.175599 0.054180 0.056028
N2_13 N 0.0255(2) 0.81267(19) 0.25119(19)
N3_9 N 0.0390(2) 0.59589(19) 0.1198(2)
N4_13 N 0.0419(3) 0.6143(2) 0.0757(2)
C1_13 C 0.0200(3) 0.5530(3) 0.1138(4)
H1_13 H 0.013675 0.531724 0.138832
C2_13 C 0.0108(5) 0.5436(4) 0.0676(3)
C3_13 C 0.0246(6) 0.5835(4) 0.0440(4)
H3_13 H 0.022219 0.588492 0.011085
C4_13 C 0.0613(3) 0.6593(2) 0.0680(3)
C5_13 C 0.0500(3) 0.6849(3) 0.0279(3)
H4_13 H 0.027266 0.673223 0.006366
C6_13 C 0.0720(3) 0.7276(3) 0.0197(3)
C7_13 C 0.1035(2) 0.7466(2) 0.0517(2)
C8_13 C 0.1150(2) 0.7205(2) 0.0917(3)
H6_13 H 0.137145 0.732482 0.113709
C9_13 C 0.0942(3) 0.6773(2) 0.0991(2)
H7_13 H 0.102626 0.659557 0.126147
C10_13 C 0.125000 0.7937(2) 0.0437(2)
C11_13 C 0.125000 0.8274(2) 0.0774(2)
C12_13 C 0.0995(2) 0.8221(2) 0.1221(2)
C13_13 C 0.0520(2) 0.8099(2) 0.1239(2)
H8_13 H 0.035657 0.804370 0.095219
C14_13 C 0.0277(2) 0.8055(2) 0.1659(2)
C15_13 C 0.0517(2) 0.8137(2) 0.2077(2)
C16_13 C 0.0986(2) 0.8252(2) 0.2080(2)
H10_13 H 0.114685 0.830377 0.236877
C17_13 C 0.1221(2) 0.8292(2) 0.1655(2)
H11_13 H 0.154562 0.837007 0.165687
C19_13 C 0.0054(3) 0.8140(3) 0.3252(3)
H13_13 H 0.005983 0.813463 0.358572
C20_13 C 0.0424(3) 0.8100(3) 0.2954(2)
H14_13 H 0.074401 0.806028 0.304180
C30_13 C 0.1505(2) 0.8721(2) 0.0721(2)
C31_13 C 0.1980(2) 0.8739(2) 0.0599(2)
H22_13 H 0.214343 0.845219 0.054370
C32_13 C 0.2223(2) 0.9159(2) 0.0555(2)
H23_13 H 0.254592 0.916202 0.047062
C33_13 C 0.1983(2) 0.9577(2) 0.0637(2)
C34_13 C 0.1514(2) 0.9580(2) 0.0752(2)
H24_13 H 0.135315 0.986877 0.080377
C35_13 C 0.1279(2) 0.9155(2) 0.0792(2)
H25_13 H 0.095438 0.915687 0.087007
H5_13 H 0.065404 0.744245 0.991484
N7_13 N 0.2110(2) 0.8698(2) 0.84589(19)
N8_13 N 0.2081(3) 0.8257(2) 0.8643(2)
C21_13 C 0.2300(3) 0.8638(4) 0.8030(3)
H15_13 H 0.236325 0.888832 0.781724
C22_13 C 0.2392(5) 0.8176(3) 0.7936(4)
H16_13 H 0.252161 0.804609 0.765672
C23_13 C 0.2254(6) 0.7940(4) 0.8335(4)
H17_13 H 0.227781 0.761085 0.838492
C24_13 C 0.1887(3) 0.8180(3) 0.9093(2)
C25_13 C 0.2000(3) 0.7779(3) 0.9349(3)
H18_13 H 0.222734 0.756366 0.923223
C26_13 C 0.1780(3) 0.7697(3) 0.9776(3)
H19_13 H 0.184596 0.741484 0.994245
C27_13 C 0.1465(2) 0.8017(2) 0.9966(2)
C28_13 C 0.1350(2) 0.8417(3) 0.9705(2)
H20_13 H 0.112855 0.863709 0.982482
C29_13 C 0.1558(3) 0.8491(2) 0.9273(2)
H21_13 H 0.147374 0.876147 0.909557
H2_13 H 0.997839 0.515672 0.054609
H9_13 H 0.995408 0.797062 0.166202
C18_13 C 0.9674(3) 0.8191(2) 0.2969(3)
H12_13 H 0.936184 0.822348 0.308413
N5_14 N 0.2494(2) 0.0216(2) 0.3189(2)
H16_14 H 0.445391 0.002161 0.015672
H23_14 H 0.333798 0.004592 0.297062
C36_14 C 0.2031(3) 0.0326(3) 0.3191(2)
H26_14 H 0.191587 0.063816 0.322348
N2_14 N 0.43733(19) 0.7755(2) 0.50119(19)
N3_10 N 0.65411(19) 0.7890(2) 0.3698(2)
N4_14 N 0.6357(2) 0.7919(3) 0.3257(2)
C1_14 C 0.6970(3) 0.7700(3) 0.3638(4)
H1_14 H 0.718276 0.763675 0.388832
C2_14 C 0.7064(4) 0.7608(5) 0.3176(3)
H2_14 H 0.734328 0.747839 0.304609
C3_14 C 0.6665(4) 0.7746(6) 0.2940(4)
H3_14 H 0.661508 0.772219 0.261085
C4_14 C 0.5907(2) 0.8113(3) 0.3180(3)
C5_14 C 0.5651(3) 0.8000(3) 0.2779(3)
H4_14 H 0.576777 0.777266 0.256366
C6_14 C 0.5224(3) 0.8220(3) 0.2697(3)
H5_14 H 0.505755 0.815404 0.241484
C7_14 C 0.5034(2) 0.8535(2) 0.3017(2)
C8_14 C 0.5295(2) 0.8650(2) 0.3417(3)
H6_14 H 0.517518 0.887145 0.363709
C9_14 C 0.5727(2) 0.8442(3) 0.3491(2)
H7_14 H 0.590443 0.852626 0.376147
C10_14 C 0.4563(2) 0.875000 0.2937(2)
C11_14 C 0.4226(2) 0.875000 0.3274(2)
C12_14 C 0.4279(2) 0.8495(2) 0.3721(2)
C13_14 C 0.4401(2) 0.8020(2) 0.3739(2)
H8_14 H 0.445630 0.785657 0.345219
C14_14 C 0.4445(2) 0.7777(2) 0.4159(2)
H9_14 H 0.452938 0.745408 0.416202
C15_14 C 0.4363(2) 0.8017(2) 0.4577(2)
C16_14 C 0.4248(2) 0.8486(2) 0.4580(2)
H10_14 H 0.419623 0.864685 0.486877
C17_14 C 0.4208(2) 0.8721(2) 0.4155(2)
H11_14 H 0.412993 0.904562 0.415687
C18_14 C 0.4309(2) 0.7174(3) 0.5469(3)
H12_14 H 0.427652 0.686184 0.558413
C19_14 C 0.4360(3) 0.7554(3) 0.5752(3)
H13_14 H 0.436537 0.755983 0.608572
C20_14 C 0.4400(3) 0.7924(3) 0.5454(2)
H14_14 H 0.443972 0.824401 0.554180
N6_14 N 0.24881(19) 0.9745(2) 0.31267(19)
N7_14 N 0.3802(2) 0.9610(2) 0.09589(19)
N8_14 N 0.4243(2) 0.9581(3) 0.1143(2)
C21_14 C 0.3862(4) 0.9800(3) 0.0530(3)
H15_14 H 0.361168 0.986325 0.031724
C22_14 C 0.4324(3) 0.9892(5) 0.0436(4)
C23_14 C 0.4560(4) 0.9754(6) 0.0835(4)
H17_14 H 0.488915 0.977781 0.088492
C24_14 C 0.4320(3) 0.9387(3) 0.1593(2)
C25_14 C 0.4721(3) 0.9500(3) 0.1849(3)
H18_14 H 0.493634 0.972734 0.173223
C26_14 C 0.4803(3) 0.9280(3) 0.2276(3)
H19_14 H 0.508516 0.934596 0.244245
C27_14 C 0.4483(2) 0.8965(2) 0.2466(2)
C28_14 C 0.4083(3) 0.8850(2) 0.2205(2)
H20_14 H 0.386291 0.862855 0.232482
C29_14 C 0.4009(2) 0.9058(3) 0.1773(2)
H21_14 H 0.373853 0.897374 0.159557
C30_14 C 0.3779(2) 0.9005(2) 0.3221(2)
C31_14 C 0.3761(2) 0.9480(2) 0.3099(2)
H22_14 H 0.404781 0.964343 0.304370
C32_14 C 0.3341(2) 0.9723(2) 0.3055(2)
C33_14 C 0.2923(2) 0.9483(2) 0.3137(2)
C34_14 C 0.2920(2) 0.9014(2) 0.3252(2)
H24_14 H 0.263123 0.885315 0.330377
C35_14 C 0.3345(2) 0.8779(2) 0.3292(2)
H25_14 H 0.334313 0.845438 0.337007
C37_14 C 0.1748(3) 0.9946(3) 0.3140(3)
H27_14 H 0.141428 0.994017 0.313463
C38_14 C 0.2046(2) 0.9576(3) 0.3100(3)
H28_14 H 0.195820 0.925599 0.306028
N2_15 N 0.4745(2) 0.18733(19) 0.75119(19)
N3_11 N 0.4610(2) 0.40411(19) 0.6198(2)
N4_15 N 0.4581(3) 0.3857(2) 0.5757(2)
C1_15 C 0.4800(3) 0.4470(3) 0.6138(4)
H1_15 H 0.486325 0.468276 0.638832
C2_15 C 0.4892(5) 0.4564(4) 0.5676(3)
H2_15 H 0.502161 0.484328 0.554609
C3_15 C 0.4754(6) 0.4165(4) 0.5440(4)
H3_15 H 0.477781 0.411508 0.511085
C4_15 C 0.4387(3) 0.3407(2) 0.5680(3)
C5_15 C 0.4500(3) 0.3151(3) 0.5279(3)
H4_15 H 0.472734 0.326777 0.506366
C6_15 C 0.4280(3) 0.2724(3) 0.5197(3)
H5_15 H 0.434596 0.255755 0.491484
C7_15 C 0.3965(2) 0.2534(2) 0.5517(2)
C8_15 C 0.3850(2) 0.2795(2) 0.5917(3)
H6_15 H 0.362855 0.267518 0.613709
C9_15 C 0.4058(3) 0.3227(2) 0.5991(2)
H7_15 H 0.397374 0.340443 0.626147
C10_15 C 0.375000 0.2063(2) 0.5437(2)
C11_15 C 0.375000 0.1726(2) 0.5774(2)
C12_15 C 0.4005(2) 0.1779(2) 0.6221(2)
C13_15 C 0.4480(2) 0.1901(2) 0.6239(2)
H8_15 H 0.464343 0.195630 0.595219
C14_15 C 0.4723(2) 0.1945(2) 0.6659(2)
H9_15 H 0.504592 0.202938 0.666202
C15_15 C 0.4483(2) 0.1863(2) 0.7077(2)
C16_15 C 0.4014(2) 0.1748(2) 0.7080(2)
H10_15 H 0.385315 0.169623 0.736877
C17_15 C 0.3779(2) 0.1708(2) 0.6655(2)
H11_15 H 0.345438 0.162993 0.665687
C18_15 C 0.5326(3) 0.1809(2) 0.7969(3)
H12_15 H 0.563816 0.177652 0.808413
C19_15 C 0.4946(3) 0.1860(3) 0.8252(3)
H13_15 H 0.494017 0.186537 0.858572
C20_15 C 0.4576(3) 0.1900(3) 0.7954(2)
H14_15 H 0.425599 0.193972 0.804180
N7_15 N 0.2890(2) 0.1302(2) 0.34589(19)
N8_15 N 0.2919(3) 0.1743(2) 0.3643(2)
C21_15 C 0.2700(3) 0.1362(4) 0.3030(3)
H15_15 H 0.263675 0.111168 0.281724
C22_15 C 0.2608(5) 0.1824(3) 0.2936(4)
H16_15 H 0.247839 0.195391 0.265672
C23_15 C 0.2746(6) 0.2060(4) 0.3335(4)
H17_15 H 0.272219 0.238915 0.338492
C24_15 C 0.3113(3) 0.1820(3) 0.4093(2)
C25_15 C 0.3000(3) 0.2221(3) 0.4349(3)
H18_15 H 0.277266 0.243634 0.423223
C26_15 C 0.3220(3) 0.2303(3) 0.4776(3)
H19_15 H 0.315404 0.258516 0.494245
C27_15 C 0.3535(2) 0.1983(2) 0.4966(2)
C28_15 C 0.3650(2) 0.1583(3) 0.4705(2)
H20_15 H 0.387145 0.136291 0.482482
C29_15 C 0.3442(3) 0.1509(2) 0.4273(2)
H21_15 H 0.352626 0.123853 0.409557
C30_15 C 0.3495(2) 0.1279(2) 0.5721(2)
C31_15 C 0.3020(2) 0.1261(2) 0.5599(2)
H22_15 H 0.285657 0.154781 0.554370
C32_15 C 0.2777(2) 0.0841(2) 0.5555(2)
H23_15 H 0.245408 0.083798 0.547062
C33_15 C 0.3017(2) 0.0423(2) 0.5637(2)
C34_15 C 0.3486(2) 0.0420(2) 0.5752(2)
H24_15 H 0.364685 0.013123 0.580377
C35_15 C 0.3721(2) 0.0845(2) 0.5792(2)
H25_15 H 0.404562 0.084313 0.587007
N5_15 N 0.2284(2) 0.9994(2) 0.5689(2)
N6_15 N 0.2755(2) 0.99881(19) 0.56267(19)
C36_15 C 0.2174(3) 0.9531(3) 0.5691(2)
H26_15 H 0.186184 0.941587 0.572348
C37_15 C 0.2554(3) 0.9248(3) 0.5640(3)
H27_15 H 0.255983 0.891428 0.563463
C38_15 C 0.2924(3) 0.9546(2) 0.5600(3)
H28_15 H 0.324401 0.945820 0.556028
N2_16 N 0.06267(19) 0.2245(2) 0.00119(19)
C18_16 C 0.0691(2) 0.2826(3) 0.0469(3)
H12_16 H 0.072348 0.313816 0.058413
C19_16 C 0.0640(3) 0.2446(3) 0.0752(3)
H13_16 H 0.063463 0.244017 0.108572
C20_16 C 0.0600(3) 0.2076(3) 0.0454(2)
H14_16 H 0.056028 0.175599 0.054180
C10_16 C 0.0437(2) 0.125000 0.7937(2)
C11_16 C 0.0774(2) 0.125000 0.8274(2)
C12_16 C 0.0721(2) 0.1505(2) 0.8721(2)
C13_16 C 0.0599(2) 0.1980(2) 0.8739(2)
H8_16 H 0.054370 0.214343 0.845219
C14_16 C 0.0555(2) 0.2223(2) 0.9159(2)
H9_16 H 0.047062 0.254592 0.916202
C15_16 C 0.0637(2) 0.1983(2) 0.9577(2)
C16_16 C 0.0752(2) 0.1514(2) 0.9580(2)
H10_16 H 0.080377 0.135315 0.986877
C17_16 C 0.0792(2) 0.1279(2) 0.9155(2)
H11_16 H 0.087007 0.095438 0.915687
N6_16 N 0.25119(19) 0.0255(2) 0.81267(19)
N7_16 N 0.1198(2) 0.0390(2) 0.59589(19)
N8_16 N 0.0757(2) 0.0419(3) 0.6143(2)
C21_16 C 0.1138(4) 0.0200(3) 0.5530(3)
H15_16 H 0.138832 0.013675 0.531724
C22_16 C 0.0676(3) 0.0108(5) 0.5436(4)
C23_16 C 0.0440(4) 0.0246(6) 0.5835(4)
H17_16 H 0.011085 0.022219 0.588492
C24_16 C 0.0680(3) 0.0613(3) 0.6593(2)
C25_16 C 0.0279(3) 0.0500(3) 0.6849(3)
H18_16 H 0.006366 0.027266 0.673223
C26_16 C 0.0197(3) 0.0720(3) 0.7276(3)
C27_16 C 0.0517(2) 0.1035(2) 0.7466(2)
C28_16 C 0.0917(3) 0.1150(2) 0.7205(2)
H20_16 H 0.113709 0.137145 0.732482
C29_16 C 0.0991(2) 0.0942(3) 0.6773(2)
H21_16 H 0.126147 0.102626 0.659557
C30_16 C 0.1221(2) 0.0995(2) 0.8221(2)
C31_16 C 0.1239(2) 0.0520(2) 0.8099(2)
H22_16 H 0.095219 0.035657 0.804370
C32_16 C 0.1659(2) 0.0277(2) 0.8055(2)
C33_16 C 0.2077(2) 0.0517(2) 0.8137(2)
C34_16 C 0.2080(2) 0.0986(2) 0.8252(2)
H24_16 H 0.236877 0.114685 0.830377
C35_16 C 0.1655(2) 0.1221(2) 0.8292(2)
H25_16 H 0.165687 0.154562 0.837007
C37_16 C 0.3252(3) 0.0054(3) 0.8140(3)
H27_16 H 0.358572 0.005983 0.813463
C38_16 C 0.2954(2) 0.0424(3) 0.8100(3)
H28_16 H 0.304180 0.074401 0.806028
N5_16 N 0.2506(2) 0.9784(2) 0.8189(2)
H16_16 H 0.054609 0.997839 0.515672
H23_16 H 0.166202 0.995408 0.797062
C36_16 C 0.2969(3) 0.9674(3) 0.8191(2)
H26_16 H 0.308413 0.936184 0.822348
N3_12 N 0.84589(19) 0.2110(2) 0.8698(2)
N4_16 N 0.8643(2) 0.2081(3) 0.8257(2)
C1_16 C 0.8030(3) 0.2300(3) 0.8638(4)
H1_16 H 0.781724 0.236325 0.888832
C2_16 C 0.7936(4) 0.2392(5) 0.8176(3)
H2_16 H 0.765672 0.252161 0.804609
C3_16 C 0.8335(4) 0.2254(6) 0.7940(4)
H3_16 H 0.838492 0.227781 0.761085
C4_16 C 0.9093(2) 0.1887(3) 0.8180(3)
C5_16 C 0.9349(3) 0.2000(3) 0.7779(3)
H4_16 H 0.923223 0.222734 0.756366
C6_16 C 0.9776(3) 0.1780(3) 0.7697(3)
H5_16 H 0.994245 0.184596 0.741484
C7_16 C 0.9966(2) 0.1465(2) 0.8017(2)
C8_16 C 0.9705(2) 0.1350(2) 0.8417(3)
H6_16 H 0.982482 0.112855 0.863709
C9_16 C 0.9273(2) 0.1558(3) 0.8491(2)
H7_16 H 0.909557 0.147374 0.876147
H19_16 H 0.991484 0.065404 0.744245
N3_13 N 0.7110(2) 0.6302(2) 0.15411(19)
N4_17 N 0.7081(3) 0.6743(2) 0.1357(2)
C1_17 C 0.7300(3) 0.6362(4) 0.1970(3)
H1_17 H 0.736325 0.611168 0.218276
C2_17 C 0.7392(5) 0.6824(3) 0.2064(4)
H2_17 H 0.752161 0.695391 0.234328
C3_17 C 0.7254(6) 0.7060(4) 0.1665(4)
H3_17 H 0.727781 0.738915 0.161508
C4_17 C 0.6887(3) 0.6820(3) 0.0907(2)
C5_17 C 0.7000(3) 0.7221(3) 0.0651(3)
H4_17 H 0.722734 0.743634 0.076777
C6_17 C 0.6780(3) 0.7303(3) 0.0224(3)
H5_17 H 0.684596 0.758516 0.005755
C7_17 C 0.6465(2) 0.6983(2) 0.0034(2)
C8_17 C 0.6350(2) 0.6583(3) 0.0295(2)
H6_17 H 0.612855 0.636291 0.017518
C9_17 C 0.6558(3) 0.6509(2) 0.0727(2)
H7_17 H 0.647374 0.623853 0.090443
H19_17 H 0.565404 0.755755 0.008516
Ag2_5 Ag 0.69678(2) 0.55322(2) 0.125000
Ag1_5 Ag 0.80322(2) 0.55322(2) 0.875000
N1_9 N 0.7716(2) 0.4994(2) 0.9311(2)
N2_17 N 0.7245(2) 0.49881(19) 0.93733(19)
C10_17 C 0.625000 0.7063(2) 0.9563(2)
C11_17 C 0.625000 0.6726(2) 0.9226(2)
C12_17 C 0.6505(2) 0.6279(2) 0.9279(2)
C13_17 C 0.6980(2) 0.6261(2) 0.9401(2)
H8_17 H 0.714343 0.654781 0.945630
C14_17 C 0.7223(2) 0.5841(2) 0.9445(2)
H9_17 H 0.754592 0.583798 0.952938
C15_17 C 0.6983(2) 0.5423(2) 0.9363(2)
C16_17 C 0.6514(2) 0.5420(2) 0.9248(2)
H10_17 H 0.635315 0.513123 0.919623
C17_17 C 0.6279(2) 0.5845(2) 0.9208(2)
H11_17 H 0.595438 0.584313 0.912993
C18_17 C 0.7826(3) 0.4531(3) 0.9309(2)
H12_17 H 0.813816 0.441587 0.927652
C19_17 C 0.7446(3) 0.4248(3) 0.9360(3)
H13_17 H 0.744017 0.391428 0.936537
C20_17 C 0.7076(3) 0.4546(2) 0.9400(3)
H14_17 H 0.675599 0.445820 0.943972
N5_17 N 0.4784(2) 0.6811(2) 0.7494(2)
N6_17 N 0.5255(2) 0.68733(19) 0.74881(19)
N8_17 N 0.5419(3) 0.8857(2) 0.9243(2)
C21_17 C 0.5200(3) 0.9470(3) 0.8862(4)
H15_17 H 0.513675 0.968276 0.861168
C22_17 C 0.5108(5) 0.9564(4) 0.9324(3)
H16_17 H 0.497839 0.984328 0.945391
C23_17 C 0.5246(6) 0.9165(4) 0.9560(4)
H17_17 H 0.522219 0.911508 0.988915
C24_17 C 0.5613(3) 0.8407(2) 0.9320(3)
C25_17 C 0.5500(3) 0.8151(3) 0.9721(3)
H18_17 H 0.527266 0.826777 0.993634
C26_17 C 0.5720(3) 0.7724(3) 0.9803(3)
C27_17 C 0.6035(2) 0.7534(2) 0.9483(2)
C28_17 C 0.6150(2) 0.7795(2) 0.9083(3)
H20_17 H 0.637145 0.767518 0.886291
C29_17 C 0.5942(3) 0.8227(2) 0.9009(2)
H21_17 H 0.602626 0.840443 0.873853
C30_17 C 0.5995(2) 0.6779(2) 0.8779(2)
C31_17 C 0.5520(2) 0.6901(2) 0.8761(2)
H22_17 H 0.535657 0.695630 0.904781
C32_17 C 0.5277(2) 0.6945(2) 0.8341(2)
H23_17 H 0.495408 0.702938 0.833798
C33_17 C 0.5517(2) 0.6863(2) 0.7923(2)
C34_17 C 0.5986(2) 0.6748(2) 0.7920(2)
H24_17 H 0.614685 0.669623 0.763123
C35_17 C 0.6221(2) 0.6708(2) 0.8345(2)
H25_17 H 0.654562 0.662993 0.834313
C36_17 C 0.4674(3) 0.6809(2) 0.7031(3)
H26_17 H 0.436184 0.677652 0.691587
C37_17 C 0.5054(3) 0.6860(3) 0.6748(3)
H27_17 H 0.505983 0.686537 0.641428
C38_17 C 0.5424(3) 0.6900(3) 0.7046(2)
H28_17 H 0.574401 0.693972 0.695820
N9_9 N 0.7494(2) 0.5216(2) 0.8189(2)
N10_5 N 0.7890(2) 0.6302(2) 0.84589(19)
N11_9 N 0.8802(2) 0.5390(2) 0.90411(19)
N5_18 N 0.0216(2) 0.6811(2) 0.2506(2)
H16_18 H 0.002161 0.984328 0.054609
H23_18 H 0.004592 0.702938 0.166202
C36_18 C 0.0326(3) 0.6809(2) 0.2969(3)
H26_18 H 0.063816 0.677652 0.308413
N1_10 N 0.7284(2) 0.4994(2) 0.0689(2)
N2_18 N 0.7755(2) 0.49881(19) 0.06267(19)
C10_18 C 0.875000 0.7063(2) 0.0437(2)
C11_18 C 0.875000 0.6726(2) 0.0774(2)
C12_18 C 0.8495(2) 0.6279(2) 0.0721(2)
C13_18 C 0.8020(2) 0.6261(2) 0.0599(2)
H8_18 H 0.785657 0.654781 0.054370
C14_18 C 0.7777(2) 0.5841(2) 0.0555(2)
H9_18 H 0.745408 0.583798 0.047062
C15_18 C 0.8017(2) 0.5423(2) 0.0637(2)
C16_18 C 0.8486(2) 0.5420(2) 0.0752(2)
H10_18 H 0.864685 0.513123 0.080377
C17_18 C 0.8721(2) 0.5845(2) 0.0792(2)
H11_18 H 0.904562 0.584313 0.087007
C18_18 C 0.7174(3) 0.4531(3) 0.0691(2)
H12_18 H 0.686184 0.441587 0.072348
C19_18 C 0.7554(3) 0.4248(3) 0.0640(3)
H13_18 H 0.755983 0.391428 0.063463
C20_18 C 0.7924(3) 0.4546(2) 0.0600(3)
H14_18 H 0.824401 0.445820 0.056028
N6_18 N 0.9745(2) 0.68733(19) 0.25119(19)
N8_18 N 0.9581(3) 0.8857(2) 0.0757(2)
C21_18 C 0.9800(3) 0.9470(3) 0.1138(4)
H15_18 H 0.986325 0.968276 0.138832
C22_18 C 0.9892(5) 0.9564(4) 0.0676(3)
C23_18 C 0.9754(6) 0.9165(4) 0.0440(4)
H17_18 H 0.977781 0.911508 0.011085
C24_18 C 0.9387(3) 0.8407(2) 0.0680(3)
C25_18 C 0.9500(3) 0.8151(3) 0.0279(3)
H18_18 H 0.972734 0.826777 0.006366
C26_18 C 0.9280(3) 0.7724(3) 0.0197(3)
C27_18 C 0.8965(2) 0.7534(2) 0.0517(2)
C28_18 C 0.8850(2) 0.7795(2) 0.0917(3)
H20_18 H 0.862855 0.767518 0.113709
C29_18 C 0.9058(3) 0.8227(2) 0.0991(2)
H21_18 H 0.897374 0.840443 0.126147
C30_18 C 0.9005(2) 0.6779(2) 0.1221(2)
C31_18 C 0.9480(2) 0.6901(2) 0.1239(2)
H22_18 H 0.964343 0.695630 0.095219
C32_18 C 0.9723(2) 0.6945(2) 0.1659(2)
C33_18 C 0.9483(2) 0.6863(2) 0.2077(2)
C34_18 C 0.9014(2) 0.6748(2) 0.2080(2)
H24_18 H 0.885315 0.669623 0.236877
C35_18 C 0.8779(2) 0.6708(2) 0.1655(2)
H25_18 H 0.845438 0.662993 0.165687
C37_18 C 0.9946(3) 0.6860(3) 0.3252(3)
H27_18 H 0.994017 0.686537 0.358572
C38_18 C 0.9576(3) 0.6900(3) 0.2954(2)
H28_18 H 0.925599 0.693972 0.304180
N9_10 N 0.7506(2) 0.5216(2) 0.1811(2)
N11_10 N 0.6198(2) 0.5390(2) 0.09589(19)
N4_18 N 0.7919(3) 0.6743(2) 0.8643(2)
C1_18 C 0.7700(3) 0.6362(4) 0.8030(3)
H1_18 H 0.763675 0.611168 0.781724
C2_18 C 0.7608(5) 0.6824(3) 0.7936(4)
H2_18 H 0.747839 0.695391 0.765672
C3_18 C 0.7746(6) 0.7060(4) 0.8335(4)
H3_18 H 0.772219 0.738915 0.838492
C4_18 C 0.8113(3) 0.6820(3) 0.9093(2)
C5_18 C 0.8000(3) 0.7221(3) 0.9349(3)
H4_18 H 0.777266 0.743634 0.923223
C6_18 C 0.8220(3) 0.7303(3) 0.9776(3)
H5_18 H 0.815404 0.758516 0.994245
C7_18 C 0.8535(2) 0.6983(2) 0.9966(2)
C8_18 C 0.8650(2) 0.6583(3) 0.9705(2)
H6_18 H 0.887145 0.636291 0.982482
C9_18 C 0.8442(3) 0.6509(2) 0.9273(2)
H7_18 H 0.852626 0.623853 0.909557
H19_18 H 0.934596 0.755755 0.991484
N2_19 N 0.75119(19) 0.4745(2) 0.18733(19)
N3_14 N 0.6198(2) 0.4610(2) 0.40411(19)
N4_19 N 0.5757(2) 0.4581(3) 0.3857(2)
C1_19 C 0.6138(4) 0.4800(3) 0.4470(3)
H1_19 H 0.638832 0.486325 0.468276
C2_19 C 0.5676(3) 0.4892(5) 0.4564(4)
H2_19 H 0.554609 0.502161 0.484328
C3_19 C 0.5440(4) 0.4754(6) 0.4165(4)
H3_19 H 0.511085 0.477781 0.411508
C4_19 C 0.5680(3) 0.4387(3) 0.3407(2)
C5_19 C 0.5279(3) 0.4500(3) 0.3151(3)
H4_19 H 0.506366 0.472734 0.326777
C6_19 C 0.5197(3) 0.4280(3) 0.2724(3)
H5_19 H 0.491484 0.434596 0.255755
C7_19 C 0.5517(2) 0.3965(2) 0.2534(2)
C8_19 C 0.5917(3) 0.3850(2) 0.2795(2)
H6_19 H 0.613709 0.362855 0.267518
C9_19 C 0.5991(2) 0.4058(3) 0.3227(2)
H7_19 H 0.626147 0.397374 0.340443
C10_19 C 0.5437(2) 0.375000 0.2063(2)
C11_19 C 0.5774(2) 0.375000 0.1726(2)
C12_19 C 0.6221(2) 0.4005(2) 0.1779(2)
C13_19 C 0.6239(2) 0.4480(2) 0.1901(2)
H8_19 H 0.595219 0.464343 0.195630
C14_19 C 0.6659(2) 0.4723(2) 0.1945(2)
H9_19 H 0.666202 0.504592 0.202938
C15_19 C 0.7077(2) 0.4483(2) 0.1863(2)
C16_19 C 0.7080(2) 0.4014(2) 0.1748(2)
H10_19 H 0.736877 0.385315 0.169623
C17_19 C 0.6655(2) 0.3779(2) 0.1708(2)
H11_19 H 0.665687 0.345438 0.162993
C18_19 C 0.7969(3) 0.5326(3) 0.1809(2)
H12_19 H 0.808413 0.563816 0.177652
C19_19 C 0.8252(3) 0.4946(3) 0.1860(3)
H13_19 H 0.858572 0.494017 0.186537
C20_19 C 0.7954(2) 0.4576(3) 0.1900(3)
H14_19 H 0.804180 0.425599 0.193972
N8_19 N 0.3643(2) 0.2919(3) 0.1743(2)
C21_19 C 0.3030(3) 0.2700(3) 0.1362(4)
H15_19 H 0.281724 0.263675 0.111168
C22_19 C 0.2936(4) 0.2608(5) 0.1824(3)
H16_19 H 0.265672 0.247839 0.195391
C23_19 C 0.3335(4) 0.2746(6) 0.2060(4)
H17_19 H 0.338492 0.272219 0.238915
C24_19 C 0.4093(2) 0.3113(3) 0.1820(3)
C25_19 C 0.4349(3) 0.3000(3) 0.2221(3)
H18_19 H 0.423223 0.277266 0.243634
C26_19 C 0.4776(3) 0.3220(3) 0.2303(3)
H19_19 H 0.494245 0.315404 0.258516
C27_19 C 0.4966(2) 0.3535(2) 0.1983(2)
C28_19 C 0.4705(2) 0.3650(2) 0.1583(3)
H20_19 H 0.482482 0.387145 0.136291
C29_19 C 0.4273(2) 0.3442(3) 0.1509(2)
H21_19 H 0.409557 0.352626 0.123853
C30_19 C 0.5721(2) 0.3495(2) 0.1279(2)
C31_19 C 0.5599(2) 0.3020(2) 0.1261(2)
H22_19 H 0.554370 0.285657 0.154781
C32_19 C 0.5555(2) 0.2777(2) 0.0841(2)
H23_19 H 0.547062 0.245408 0.083798
C33_19 C 0.5637(2) 0.3017(2) 0.0423(2)
C34_19 C 0.5752(2) 0.3486(2) 0.0420(2)
H24_19 H 0.580377 0.364685 0.013123
C35_19 C 0.5792(2) 0.3721(2) 0.0845(2)
H25_19 H 0.587007 0.404562 0.084313
Ag2_6 Ag 0.69678(2) 0.44678(2) 0.375000
N5_19 N 0.5689(2) 0.2284(2) 0.9994(2)
N6_19 N 0.56267(19) 0.2755(2) 0.99881(19)
C36_19 C 0.5691(2) 0.2174(3) 0.9531(3)
H26_19 H 0.572348 0.186184 0.941587
C37_19 C 0.5640(3) 0.2554(3) 0.9248(3)
H27_19 H 0.563463 0.255983 0.891428
C38_19 C 0.5600(3) 0.2924(3) 0.9546(2)
H28_19 H 0.556028 0.324401 0.945820
N1_11 N 0.7506(2) 0.4784(2) 0.3189(2)
N2_20 N 0.75119(19) 0.5255(2) 0.31267(19)
N4_20 N 0.5757(2) 0.5419(3) 0.1143(2)
C1_20 C 0.6138(4) 0.5200(3) 0.0530(3)
H1_20 H 0.638832 0.513675 0.031724
C2_20 C 0.5676(3) 0.5108(5) 0.0436(4)
H2_20 H 0.554609 0.497839 0.015672
C3_20 C 0.5440(4) 0.5246(6) 0.0835(4)
H3_20 H 0.511085 0.522219 0.088492
C4_20 C 0.5680(3) 0.5613(3) 0.1593(2)
C5_20 C 0.5279(3) 0.5500(3) 0.1849(3)
H4_20 H 0.506366 0.527266 0.173223
C6_20 C 0.5197(3) 0.5720(3) 0.2276(3)
H5_20 H 0.491484 0.565404 0.244245
C7_20 C 0.5517(2) 0.6035(2) 0.2466(2)
C8_20 C 0.5917(3) 0.6150(2) 0.2205(2)
H6_20 H 0.613709 0.637145 0.232482
C9_20 C 0.5991(2) 0.5942(3) 0.1773(2)
H7_20 H 0.626147 0.602626 0.159557
C10_20 C 0.5437(2) 0.625000 0.2937(2)
C11_20 C 0.5774(2) 0.625000 0.3274(2)
C12_20 C 0.6221(2) 0.5995(2) 0.3221(2)
C13_20 C 0.6239(2) 0.5520(2) 0.3099(2)
H8_20 H 0.595219 0.535657 0.304370
C14_20 C 0.6659(2) 0.5277(2) 0.3055(2)
H9_20 H 0.666202 0.495408 0.297062
C15_20 C 0.7077(2) 0.5517(2) 0.3137(2)
C16_20 C 0.7080(2) 0.5986(2) 0.3252(2)
H10_20 H 0.736877 0.614685 0.330377
C17_20 C 0.6655(2) 0.6221(2) 0.3292(2)
H11_20 H 0.665687 0.654562 0.337007
C18_20 C 0.7969(3) 0.4674(3) 0.3191(2)
H12_20 H 0.808413 0.436184 0.322348
C19_20 C 0.8252(3) 0.5054(3) 0.3140(3)
H13_20 H 0.858572 0.505983 0.313463
C20_20 C 0.7954(2) 0.5424(3) 0.3100(3)
H14_20 H 0.804180 0.574401 0.306028
N5_20 N 0.5689(2) 0.7716(2) 0.5006(2)
N6_20 N 0.56267(19) 0.7245(2) 0.50119(19)
N8_20 N 0.3643(2) 0.7081(3) 0.3257(2)
C21_20 C 0.3030(3) 0.7300(3) 0.3638(4)
H15_20 H 0.281724 0.736325 0.388832
C22_20 C 0.2936(4) 0.7392(5) 0.3176(3)
H16_20 H 0.265672 0.752161 0.304609
C23_20 C 0.3335(4) 0.7254(6) 0.2940(4)
H17_20 H 0.338492 0.727781 0.261085
C24_20 C 0.4093(2) 0.6887(3) 0.3180(3)
C25_20 C 0.4349(3) 0.7000(3) 0.2779(3)
H18_20 H 0.423223 0.722734 0.256366
C26_20 C 0.4776(3) 0.6780(3) 0.2697(3)
H19_20 H 0.494245 0.684596 0.241484
C27_20 C 0.4966(2) 0.6465(2) 0.3017(2)
C28_20 C 0.4705(2) 0.6350(2) 0.3417(3)
H20_20 H 0.482482 0.612855 0.363709
C29_20 C 0.4273(2) 0.6558(3) 0.3491(2)
H21_20 H 0.409557 0.647374 0.376147
C30_20 C 0.5721(2) 0.6505(2) 0.3721(2)
C31_20 C 0.5599(2) 0.6980(2) 0.3739(2)
H22_20 H 0.554370 0.714343 0.345219
C32_20 C 0.5555(2) 0.7223(2) 0.4159(2)
H23_20 H 0.547062 0.754592 0.416202
C33_20 C 0.5637(2) 0.6983(2) 0.4577(2)
C34_20 C 0.5752(2) 0.6514(2) 0.4580(2)
H24_20 H 0.580377 0.635315 0.486877
C35_20 C 0.5792(2) 0.6279(2) 0.4155(2)
H25_20 H 0.587007 0.595438 0.415687
C36_20 C 0.5691(2) 0.7826(3) 0.5469(3)
H26_20 H 0.572348 0.813816 0.558413
C37_20 C 0.5640(3) 0.7446(3) 0.5752(3)
H27_20 H 0.563463 0.744017 0.608572
C38_20 C 0.5600(3) 0.7076(3) 0.5454(2)
H28_20 H 0.556028 0.675599 0.554180
N9_11 N 0.7284(2) 0.5006(2) 0.4311(2)
N11_11 N 0.7110(2) 0.3698(2) 0.34589(19)
N9_12 N 0.4784(2) 0.3189(2) 0.7506(2)
N9_13 N 0.9311(2) 0.2284(2) 0.0006(2)
N9_14 N 0.0216(2) 0.3189(2) 0.2494(2)
N9_15 N 0.9311(2) 0.7716(2) 0.4994(2)
H2_21 H 0.002161 0.015672 0.445391
H9_21 H 0.004592 0.297062 0.333798
C18_21 C 0.0326(3) 0.3191(2) 0.2031(3)
H12_21 H 0.063816 0.322348 0.191587
N2_21 N 0.9745(2) 0.31267(19) 0.24881(19)
N4_21 N 0.9581(3) 0.1143(2) 0.4243(2)
C1_21 C 0.9800(3) 0.0530(3) 0.3862(4)
H1_21 H 0.986325 0.031724 0.361168
C2_21 C 0.9892(5) 0.0436(4) 0.4324(3)
C3_21 C 0.9754(6) 0.0835(4) 0.4560(4)
H3_21 H 0.977781 0.088492 0.488915
C4_21 C 0.9387(3) 0.1593(2) 0.4320(3)
C5_21 C 0.9500(3) 0.1849(3) 0.4721(3)
H4_21 H 0.972734 0.173223 0.493634
C6_21 C 0.9280(3) 0.2276(3) 0.4803(3)
H5_21 H 0.934596 0.244245 0.508516
C7_21 C 0.8965(2) 0.2466(2) 0.4483(2)
C8_21 C 0.8850(2) 0.2205(2) 0.4083(3)
H6_21 H 0.862855 0.232482 0.386291
C9_21 C 0.9058(3) 0.1773(2) 0.4009(2)
H7_21 H 0.897374 0.159557 0.373853
C10_21 C 0.875000 0.2937(2) 0.4563(2)
C11_21 C 0.875000 0.3274(2) 0.4226(2)
C12_21 C 0.9005(2) 0.3221(2) 0.3779(2)
C13_21 C 0.9480(2) 0.3099(2) 0.3761(2)
H8_21 H 0.964343 0.304370 0.404781
C14_21 C 0.9723(2) 0.3055(2) 0.3341(2)
C15_21 C 0.9483(2) 0.3137(2) 0.2923(2)
C16_21 C 0.9014(2) 0.3252(2) 0.2920(2)
H10_21 H 0.885315 0.330377 0.263123
C17_21 C 0.8779(2) 0.3292(2) 0.3345(2)
H11_21 H 0.845438 0.337007 0.334313
C19_21 C 0.9946(3) 0.3140(3) 0.1748(3)
H13_21 H 0.994017 0.313463 0.141428
C20_21 C 0.9576(3) 0.3100(3) 0.2046(2)
H14_21 H 0.925599 0.306028 0.195820
N6_21 N 0.7755(2) 0.50119(19) 0.43733(19)
N7_17 N 0.7890(2) 0.3698(2) 0.65411(19)
N8_21 N 0.7919(3) 0.3257(2) 0.6357(2)
C21_21 C 0.7700(3) 0.3638(4) 0.6970(3)
H15_21 H 0.763675 0.388832 0.718276
C22_21 C 0.7608(5) 0.3176(3) 0.7064(4)
H16_21 H 0.747839 0.304609 0.734328
C23_21 C 0.7746(6) 0.2940(4) 0.6665(4)
H17_21 H 0.772219 0.261085 0.661508
C24_21 C 0.8113(3) 0.3180(3) 0.5907(2)
C25_21 C 0.8000(3) 0.2779(3) 0.5651(3)
H18_21 H 0.777266 0.256366 0.576777
C26_21 C 0.8220(3) 0.2697(3) 0.5224(3)
H19_21 H 0.815404 0.241484 0.505755
C27_21 C 0.8535(2) 0.3017(2) 0.5034(2)
C28_21 C 0.8650(2) 0.3417(3) 0.5295(2)
H20_21 H 0.887145 0.363709 0.517518
C29_21 C 0.8442(3) 0.3491(2) 0.5727(2)
H21_21 H 0.852626 0.376147 0.590443
C30_21 C 0.8495(2) 0.3721(2) 0.4279(2)
C31_21 C 0.8020(2) 0.3739(2) 0.4401(2)
H22_21 H 0.785657 0.345219 0.445630
C32_21 C 0.7777(2) 0.4159(2) 0.4445(2)
H23_21 H 0.745408 0.416202 0.452938
C33_21 C 0.8017(2) 0.4577(2) 0.4363(2)
C34_21 C 0.8486(2) 0.4580(2) 0.4248(2)
H24_21 H 0.864685 0.486877 0.419623
C35_21 C 0.8721(2) 0.4155(2) 0.4208(2)
H25_21 H 0.904562 0.415687 0.412993
C36_21 C 0.7174(3) 0.5469(3) 0.4309(2)
H26_21 H 0.686184 0.558413 0.427652
C37_21 C 0.7554(3) 0.5752(3) 0.4360(3)
H27_21 H 0.755983 0.608572 0.436537
C38_21 C 0.7924(3) 0.5454(2) 0.4400(3)
H28_21 H 0.824401 0.554180 0.443972
Ag3_8 Ag 0.80322(2) 0.44678(2) 0.625000
N4_22 N 0.1357(2) 0.7081(3) 0.6743(2)
C1_22 C 0.1970(3) 0.7300(3) 0.6362(4)
H1_22 H 0.218276 0.736325 0.611168
C2_22 C 0.2064(4) 0.7392(5) 0.6824(3)
H2_22 H 0.234328 0.752161 0.695391
C3_22 C 0.1665(4) 0.7254(6) 0.7060(4)
H3_22 H 0.161508 0.727781 0.738915
C4_22 C 0.0907(2) 0.6887(3) 0.6820(3)
C5_22 C 0.0651(3) 0.7000(3) 0.7221(3)
H4_22 H 0.076777 0.722734 0.743634
C6_22 C 0.0224(3) 0.6780(3) 0.7303(3)
H5_22 H 0.005755 0.684596 0.758516
C7_22 C 0.0034(2) 0.6465(2) 0.6983(2)
C8_22 C 0.0295(2) 0.6350(2) 0.6583(3)
H6_22 H 0.017518 0.612855 0.636291
C9_22 C 0.0727(2) 0.6558(3) 0.6509(2)
H7_22 H 0.090443 0.647374 0.623853
H19_22 H 0.008516 0.565404 0.755755
N2_22 N 0.93733(19) 0.7245(2) 0.49881(19)
C10_22 C 0.9563(2) 0.625000 0.7063(2)
C11_22 C 0.9226(2) 0.625000 0.6726(2)
C12_22 C 0.9279(2) 0.6505(2) 0.6279(2)
C13_22 C 0.9401(2) 0.6980(2) 0.6261(2)
H8_22 H 0.945630 0.714343 0.654781
C14_22 C 0.9445(2) 0.7223(2) 0.5841(2)
H9_22 H 0.952938 0.754592 0.583798
C15_22 C 0.9363(2) 0.6983(2) 0.5423(2)
C16_22 C 0.9248(2) 0.6514(2) 0.5420(2)
H10_22 H 0.919623 0.635315 0.513123
C17_22 C 0.9208(2) 0.6279(2) 0.5845(2)
H11_22 H 0.912993 0.595438 0.584313
C18_22 C 0.9309(2) 0.7826(3) 0.4531(3)
H12_22 H 0.927652 0.813816 0.441587
C19_22 C 0.9360(3) 0.7446(3) 0.4248(3)
H13_22 H 0.936537 0.744017 0.391428
C20_22 C 0.9400(3) 0.7076(3) 0.4546(2)
H14_22 H 0.943972 0.675599 0.445820
N5_21 N 0.7494(2) 0.4784(2) 0.6811(2)
N6_22 N 0.74881(19) 0.5255(2) 0.68733(19)
N8_22 N 0.9243(2) 0.5419(3) 0.8857(2)
C21_22 C 0.8862(4) 0.5200(3) 0.9470(3)
H15_22 H 0.861168 0.513675 0.968276
C22_22 C 0.9324(3) 0.5108(5) 0.9564(4)
H16_22 H 0.945391 0.497839 0.984328
C23_22 C 0.9560(4) 0.5246(6) 0.9165(4)
H17_22 H 0.988915 0.522219 0.911508
C24_22 C 0.9320(3) 0.5613(3) 0.8407(2)
C25_22 C 0.9721(3) 0.5500(3) 0.8151(3)
H18_22 H 0.993634 0.527266 0.826777
C26_22 C 0.9803(3) 0.5720(3) 0.7724(3)
C27_22 C 0.9483(2) 0.6035(2) 0.7534(2)
C28_22 C 0.9083(3) 0.6150(2) 0.7795(2)
H20_22 H 0.886291 0.637145 0.767518
C29_22 C 0.9009(2) 0.5942(3) 0.8227(2)
H21_22 H 0.873853 0.602626 0.840443
C30_22 C 0.8779(2) 0.5995(2) 0.6779(2)
C31_22 C 0.8761(2) 0.5520(2) 0.6901(2)
H22_22 H 0.904781 0.535657 0.695630
C32_22 C 0.8341(2) 0.5277(2) 0.6945(2)
H23_22 H 0.833798 0.495408 0.702938
C33_22 C 0.7923(2) 0.5517(2) 0.6863(2)
C34_22 C 0.7920(2) 0.5986(2) 0.6748(2)
H24_22 H 0.763123 0.614685 0.669623
C35_22 C 0.8345(2) 0.6221(2) 0.6708(2)
H25_22 H 0.834313 0.654562 0.662993
C36_22 C 0.7031(3) 0.4674(3) 0.6809(2)
H26_22 H 0.691587 0.436184 0.677652
C37_22 C 0.6748(3) 0.5054(3) 0.6860(3)
H27_22 H 0.641428 0.505983 0.686537
C38_22 C 0.7046(2) 0.5424(3) 0.6900(3)
H28_22 H 0.695820 0.574401 0.693972
N2_23 N 0.5255(2) 0.31267(19) 0.75119(19)
N4_23 N 0.5419(3) 0.1143(2) 0.5757(2)
C1_23 C 0.5200(3) 0.0530(3) 0.6138(4)
H1_23 H 0.513675 0.031724 0.638832
C2_23 C 0.5108(5) 0.0436(4) 0.5676(3)
H2_23 H 0.497839 0.015672 0.554609
C3_23 C 0.5246(6) 0.0835(4) 0.5440(4)
H3_23 H 0.522219 0.088492 0.511085
C4_23 C 0.5613(3) 0.1593(2) 0.5680(3)
C5_23 C 0.5500(3) 0.1849(3) 0.5279(3)
H4_23 H 0.527266 0.173223 0.506366
C6_23 C 0.5720(3) 0.2276(3) 0.5197(3)
H5_23 H 0.565404 0.244245 0.491484
C7_23 C 0.6035(2) 0.2466(2) 0.5517(2)
C8_23 C 0.6150(2) 0.2205(2) 0.5917(3)
H6_23 H 0.637145 0.232482 0.613709
C9_23 C 0.5942(3) 0.1773(2) 0.5991(2)
H7_23 H 0.602626 0.159557 0.626147
C10_23 C 0.625000 0.2937(2) 0.5437(2)
C11_23 C 0.625000 0.3274(2) 0.5774(2)
C12_23 C 0.5995(2) 0.3221(2) 0.6221(2)
C13_23 C 0.5520(2) 0.3099(2) 0.6239(2)
H8_23 H 0.535657 0.304370 0.595219
C14_23 C 0.5277(2) 0.3055(2) 0.6659(2)
H9_23 H 0.495408 0.297062 0.666202
C15_23 C 0.5517(2) 0.3137(2) 0.7077(2)
C16_23 C 0.5986(2) 0.3252(2) 0.7080(2)
H10_23 H 0.614685 0.330377 0.736877
C17_23 C 0.6221(2) 0.3292(2) 0.6655(2)
H11_23 H 0.654562 0.337007 0.665687
C18_23 C 0.4674(3) 0.3191(2) 0.7969(3)
H12_23 H 0.436184 0.322348 0.808413
C19_23 C 0.5054(3) 0.3140(3) 0.8252(3)
H13_23 H 0.505983 0.313463 0.858572
C20_23 C 0.5424(3) 0.3100(3) 0.7954(2)
H14_23 H 0.574401 0.306028 0.804180
N5_22 N 0.7716(2) 0.5006(2) 0.5689(2)
N6_23 N 0.7245(2) 0.50119(19) 0.56267(19)
N8_23 N 0.7081(3) 0.3257(2) 0.3643(2)
C21_23 C 0.7300(3) 0.3638(4) 0.3030(3)
H15_23 H 0.736325 0.388832 0.281724
C22_23 C 0.7392(5) 0.3176(3) 0.2936(4)
H16_23 H 0.752161 0.304609 0.265672
C23_23 C 0.7254(6) 0.2940(4) 0.3335(4)
H17_23 H 0.727781 0.261085 0.338492
C24_23 C 0.6887(3) 0.3180(3) 0.4093(2)
C25_23 C 0.7000(3) 0.2779(3) 0.4349(3)
H18_23 H 0.722734 0.256366 0.423223
C26_23 C 0.6780(3) 0.2697(3) 0.4776(3)
H19_23 H 0.684596 0.241484 0.494245
C27_23 C 0.6465(2) 0.3017(2) 0.4966(2)
C28_23 C 0.6350(2) 0.3417(3) 0.4705(2)
H20_23 H 0.612855 0.363709 0.482482
C29_23 C 0.6558(3) 0.3491(2) 0.4273(2)
H21_23 H 0.647374 0.376147 0.409557
C30_23 C 0.6505(2) 0.3721(2) 0.5721(2)
C31_23 C 0.6980(2) 0.3739(2) 0.5599(2)
H22_23 H 0.714343 0.345219 0.554370
C32_23 C 0.7223(2) 0.4159(2) 0.5555(2)
H23_23 H 0.754592 0.416202 0.547062
C33_23 C 0.6983(2) 0.4577(2) 0.5637(2)
C34_23 C 0.6514(2) 0.4580(2) 0.5752(2)
H24_23 H 0.635315 0.486877 0.580377
C35_23 C 0.6279(2) 0.4155(2) 0.5792(2)
H25_23 H 0.595438 0.415687 0.587007
C36_23 C 0.7826(3) 0.5469(3) 0.5691(2)
H26_23 H 0.813816 0.558413 0.572348
C37_23 C 0.7446(3) 0.5752(3) 0.5640(3)
H27_23 H 0.744017 0.608572 0.563463
C38_23 C 0.7076(3) 0.5454(2) 0.5600(3)
H28_23 H 0.675599 0.554180 0.556028
N4_24 N 0.1357(2) 0.2919(3) 0.8257(2)
C1_24 C 0.1970(3) 0.2700(3) 0.8638(4)
H1_24 H 0.218276 0.263675 0.888832
C2_24 C 0.2064(4) 0.2608(5) 0.8176(3)
H2_24 H 0.234328 0.247839 0.804609
C3_24 C 0.1665(4) 0.2746(6) 0.7940(4)
H3_24 H 0.161508 0.272219 0.761085
C4_24 C 0.0907(2) 0.3113(3) 0.8180(3)
C5_24 C 0.0651(3) 0.3000(3) 0.7779(3)
H4_24 H 0.076777 0.277266 0.756366
C6_24 C 0.0224(3) 0.3220(3) 0.7697(3)
H5_24 H 0.005755 0.315404 0.741484
C7_24 C 0.0034(2) 0.3535(2) 0.8017(2)
C8_24 C 0.0295(2) 0.3650(2) 0.8417(3)
H6_24 H 0.017518 0.387145 0.863709
C9_24 C 0.0727(2) 0.3442(3) 0.8491(2)
H7_24 H 0.090443 0.352626 0.876147
H19_24 H 0.008516 0.434596 0.744245
N2_24 N 0.93733(19) 0.2755(2) 0.00119(19)
C18_24 C 0.9309(2) 0.2174(3) 0.0469(3)
H12_24 H 0.927652 0.186184 0.058413
C19_24 C 0.9360(3) 0.2554(3) 0.0752(3)
H13_24 H 0.936537 0.255983 0.108572
C20_24 C 0.9400(3) 0.2924(3) 0.0454(2)
H14_24 H 0.943972 0.324401 0.054180
C10_24 C 0.9563(2) 0.375000 0.7937(2)
C11_24 C 0.9226(2) 0.375000 0.8274(2)
C12_24 C 0.9279(2) 0.3495(2) 0.8721(2)
C13_24 C 0.9401(2) 0.3020(2) 0.8739(2)
H8_24 H 0.945630 0.285657 0.845219
C14_24 C 0.9445(2) 0.2777(2) 0.9159(2)
H9_24 H 0.952938 0.245408 0.916202
C15_24 C 0.9363(2) 0.3017(2) 0.9577(2)
C16_24 C 0.9248(2) 0.3486(2) 0.9580(2)
H10_24 H 0.919623 0.364685 0.986877
C17_24 C 0.9208(2) 0.3721(2) 0.9155(2)
H11_24 H 0.912993 0.404562 0.915687
N6_24 N 0.74881(19) 0.4745(2) 0.81267(19)
N7_18 N 0.8802(2) 0.4610(2) 0.59589(19)
N8_24 N 0.9243(2) 0.4581(3) 0.6143(2)
C21_24 C 0.8862(4) 0.4800(3) 0.5530(3)
H15_24 H 0.861168 0.486325 0.531724
C22_24 C 0.9324(3) 0.4892(5) 0.5436(4)
H16_24 H 0.945391 0.502161 0.515672
C23_24 C 0.9560(4) 0.4754(6) 0.5835(4)
H17_24 H 0.988915 0.477781 0.588492
C24_24 C 0.9320(3) 0.4387(3) 0.6593(2)
C25_24 C 0.9721(3) 0.4500(3) 0.6849(3)
H18_24 H 0.993634 0.472734 0.673223
C26_24 C 0.9803(3) 0.4280(3) 0.7276(3)
C27_24 C 0.9483(2) 0.3965(2) 0.7466(2)
C28_24 C 0.9083(3) 0.3850(2) 0.7205(2)
H20_24 H 0.886291 0.362855 0.732482
C29_24 C 0.9009(2) 0.4058(3) 0.6773(2)
H21_24 H 0.873853 0.397374 0.659557
C30_24 C 0.8779(2) 0.4005(2) 0.8221(2)
C31_24 C 0.8761(2) 0.4480(2) 0.8099(2)
H22_24 H 0.904781 0.464343 0.804370
C32_24 C 0.8341(2) 0.4723(2) 0.8055(2)
H23_24 H 0.833798 0.504592 0.797062
C33_24 C 0.7923(2) 0.4483(2) 0.8137(2)
C34_24 C 0.7920(2) 0.4014(2) 0.8252(2)
H24_24 H 0.763123 0.385315 0.830377
C35_24 C 0.8345(2) 0.3779(2) 0.8292(2)
H25_24 H 0.834313 0.345438 0.837007
C36_24 C 0.7031(3) 0.5326(3) 0.8191(2)
H26_24 H 0.691587 0.563816 0.822348
C37_24 C 0.6748(3) 0.4946(3) 0.8140(3)
H27_24 H 0.641428 0.494017 0.813463
C38_24 C 0.7046(2) 0.4576(3) 0.8100(3)
H28_24 H 0.695820 0.425599 0.806028
O1 O 0.0986(3) 0.0702(3) 0.0378(3)
N12 N 0.0690(2) 0.0690(2) 0.0690(2)
O2 O 0.0378(3) 0.0986(3) 0.0702(3)
O3 O 0.0702(3) 0.0378(3) 0.0986(3)
O1_2 O 0.1798(3) 0.8486(3) 0.2878(3)
N12_2 N 0.1810(2) 0.8190(2) 0.3190(2)
O2_2 O 0.1514(3) 0.7878(3) 0.3202(3)
O3_2 O 0.2122(3) 0.8202(3) 0.3486(3)
O1_3 O 0.4014(3) 0.9298(3) 0.5378(3)
N12_3 N 0.4310(2) 0.9310(2) 0.5690(2)
O2_3 O 0.4622(3) 0.9014(3) 0.5702(3)
O3_3 O 0.4298(3) 0.9622(3) 0.5986(3)
O1_4 O 0.3202(3) 0.1514(3) 0.7878(3)
N12_4 N 0.3190(2) 0.1810(2) 0.8190(2)
O2_4 O 0.3486(3) 0.2122(3) 0.8202(3)
O3_4 O 0.2878(3) 0.1798(3) 0.8486(3)
O1_5 O 0.0986(3) 0.9298(3) 0.4622(3)
N12_5 N 0.0690(2) 0.9310(2) 0.4310(2)
O2_5 O 0.0378(3) 0.9014(3) 0.4298(3)
O3_5 O 0.0702(3) 0.9622(3) 0.4014(3)
O1_6 O 0.3202(3) 0.8486(3) 0.7122(3)
N12_6 N 0.3190(2) 0.8190(2) 0.6810(2)
O2_6 O 0.3486(3) 0.7878(3) 0.6798(3)
O3_6 O 0.2878(3) 0.8202(3) 0.6514(3)
O1_7 O 0.4014(3) 0.0702(3) 0.9622(3)
N12_7 N 0.4310(2) 0.0690(2) 0.9310(2)
O2_7 O 0.4622(3) 0.0986(3) 0.9298(3)
O3_7 O 0.4298(3) 0.0378(3) 0.9014(3)
O1_8 O 0.1798(3) 0.1514(3) 0.2122(3)
N12_8 N 0.1810(2) 0.1810(2) 0.1810(2)
O2_8 O 0.1514(3) 0.2122(3) 0.1798(3)
O3_8 O 0.2122(3) 0.1798(3) 0.1514(3)
O1_9 O 0.7122(3) 0.3202(3) 0.8486(3)
N12_9 N 0.6810(2) 0.3190(2) 0.8190(2)
O2_9 O 0.6798(3) 0.3486(3) 0.7878(3)
O3_9 O 0.6514(3) 0.2878(3) 0.8202(3)
O1_10 O 0.7878(3) 0.3202(3) 0.1514(3)
N12_10 N 0.8190(2) 0.3190(2) 0.1810(2)
O2_10 O 0.8202(3) 0.3486(3) 0.2122(3)
O3_10 O 0.8486(3) 0.2878(3) 0.1798(3)
O1_11 O 0.9298(3) 0.4622(3) 0.0986(3)
N12_11 N 0.9310(2) 0.4310(2) 0.0690(2)
O2_11 O 0.9014(3) 0.4298(3) 0.0378(3)
O3_11 O 0.9622(3) 0.4014(3) 0.0702(3)
O1_12 O 0.9298(3) 0.5378(3) 0.4014(3)
N12_12 N 0.9310(2) 0.5690(2) 0.4310(2)
O2_12 O 0.9014(3) 0.5702(3) 0.4622(3)
O3_12 O 0.9622(3) 0.5986(3) 0.4298(3)
O1_13 O 0.5986(3) 0.5702(3) 0.5378(3)
N12_13 N 0.5690(2) 0.5690(2) 0.5690(2)
O2_13 O 0.5378(3) 0.5986(3) 0.5702(3)
O3_13 O 0.5702(3) 0.5378(3) 0.5986(3)
O1_14 O 0.8202(3) 0.6514(3) 0.2878(3)
N12_14 N 0.8190(2) 0.6810(2) 0.3190(2)
O2_14 O 0.8486(3) 0.7122(3) 0.3202(3)
O3_14 O 0.7878(3) 0.6798(3) 0.3486(3)
O1_15 O 0.5986(3) 0.4298(3) 0.9622(3)
N12_15 N 0.5690(2) 0.4310(2) 0.9310(2)
O2_15 O 0.5378(3) 0.4014(3) 0.9298(3)
O3_15 O 0.5702(3) 0.4622(3) 0.9014(3)
O1_16 O 0.6798(3) 0.6514(3) 0.7122(3)
N12_16 N 0.6810(2) 0.6810(2) 0.6810(2)
O2_16 O 0.6514(3) 0.7122(3) 0.6798(3)
O3_16 O 0.7122(3) 0.6798(3) 0.6514(3)
loop_
_geom_bond_atom_site_label_1
_geom_bond_atom_site_label_2
_geom_bond_site_symmetry_1
_geom_bond_site_symmetry_2
N2 C15 1_555 1_555
N3 N4 1_555 1_555
N4 C3 1_555 1_555
C1 N3 1_555 1_555
H1 C1 1_555 1_555
C2 C1 1_555 1_555
C3 C2 1_555 1_555
H3 C3 1_555 1_555
C4 N4 1_555 1_555
C5 C4 1_555 1_555
H4 C5 1_555 1_555
C6 C5 1_555 1_555
H5 C6 1_555 1_555
C7 C6 1_555 1_555
C8 C7 1_555 1_555
H6 C8 1_555 1_555
C9 C4 1_555 1_555
H7 C9 1_555 1_555
C10 C7 1_555 1_555
C11 C10 1_555 1_555
C12 C11 1_555 1_555
C13 C12 1_555 1_555
H8 C13 1_555 1_555
C14 C13 1_555 1_555
C15 C14 1_555 1_555
C16 C15 1_555 1_555
H10 C16 1_555 1_555
C17 C12 1_555 1_555
H11 C17 1_555 1_555
H13 C19 1_555 1_555
C20 N2 1_555 1_555
H14 C20 1_555 1_555
N7 N8 1_555 1_555
N8 C23 1_555 1_555
C21 N7 1_555 1_555
H15 C21 1_555 1_555
C22 C21 1_555 1_555
H16 C22 1_555 1_555
C23 C22 1_555 1_555
H17 C23 1_555 1_555
C24 N8 1_555 1_555
C25 C24 1_555 1_555
H18 C25 1_555 1_555
C26 C25 1_555 1_555
H19 C26 1_555 1_555
C27 C10 1_555 1_555
C28 C27 1_555 1_555
H20 C28 1_555 1_555
C29 C24 1_555 1_555
H21 C29 1_555 1_555
C30 C11 1_555 1_555
C31 C30 1_555 1_555
H22 C31 1_555 1_555
C32 C31 1_555 1_555
H23 C32 1_555 1_555
C33 C32 1_555 1_555
C34 C33 1_555 1_555
H24 C34 1_555 1_555
C35 C30 1_555 1_555
H25 C35 1_555 1_555
Ag2 N3 1_555 1_555
Ag3 N7 1_555 1_555
C8 C9 1_555 1_555
C16 C17 1_555 1_555
C19 C20 1_555 1_555
C26 C27 1_555 1_555
C28 C29 1_555 1_555
C34 C35 1_555 1_555
Ag1 N1 1_555 1_555
C18 N1 1_555 1_555
H12 C18 1_555 1_555
N10 Ag1 1_555 1_555
N11 Ag1 1_555 1_555
N5 N6 1_555 1_555
C36 N5 1_555 1_555
H26 C36 1_555 1_555
C37 C36 1_555 1_555
H27 C37 1_555 1_555
C38 N6 1_555 1_555
H28 C38 1_555 1_555
C37 C38 1_555 1_555
N1_2 N2_2 1_555 1_555
C18_2 N1_2 1_555 1_555
H12_2 C18_2 1_555 1_555
C19_2 C18_2 1_555 1_555
H13_2 C19_2 1_555 1_555
C20_2 N2_2 1_555 1_555
H14_2 C20_2 1_555 1_555
C19_2 C20_2 1_555 1_555
N3_2 N4_2 1_555 1_555
N4_2 C3_2 1_555 1_555
C1_2 N3_2 1_555 1_555
H1_2 C1_2 1_555 1_555
C2_2 C1_2 1_555 1_555
H2_2 C2_2 1_555 1_555
C3_2 C2_2 1_555 1_555
H3_2 C3_2 1_555 1_555
C4_2 N4_2 1_555 1_555
C5_2 C4_2 1_555 1_555
H4_2 C5_2 1_555 1_555
C6_2 C5_2 1_555 1_555
H5_2 C6_2 1_555 1_555
C7_2 C6_2 1_555 1_555
C8_2 C7_2 1_555 1_555
H6_2 C8_2 1_555 1_555
C9_2 C4_2 1_555 1_555
H7_2 C9_2 1_555 1_555
Ag2_2 N3_2 1_555 1_555
C8_2 C9_2 1_555 1_555
C11_2 C10_2 1_555 1_555
C12_2 C11_2 1_555 1_555
C13_2 C12_2 1_555 1_555
H8_2 C13_2 1_555 1_555
C14_2 C13_2 1_555 1_555
H9_2 C14_2 1_555 1_555
C15_2 C14_2 1_555 1_555
C16_2 C15_2 1_555 1_555
H10_2 C16_2 1_555 1_555
C17_2 C12_2 1_555 1_555
H11_2 C17_2 1_555 1_555
N5_2 N6_2 1_555 1_555
N6_2 C33_2 1_555 1_555
N7_2 N8_2 1_555 1_555
N8_2 C23_2 1_555 1_555
C21_2 N7_2 1_555 1_555
H15_2 C21_2 1_555 1_555
C22_2 C21_2 1_555 1_555
H16_2 C22_2 1_555 1_555
C23_2 C22_2 1_555 1_555
H17_2 C23_2 1_555 1_555
C24_2 N8_2 1_555 1_555
C25_2 C24_2 1_555 1_555
H18_2 C25_2 1_555 1_555
C26_2 C25_2 1_555 1_555
C27_2 C10_2 1_555 1_555
C28_2 C27_2 1_555 1_555
H20_2 C28_2 1_555 1_555
C29_2 C24_2 1_555 1_555
H21_2 C29_2 1_555 1_555
C30_2 C11_2 1_555 1_555
C31_2 C30_2 1_555 1_555
H22_2 C31_2 1_555 1_555
C32_2 C31_2 1_555 1_555
H23_2 C32_2 1_555 1_555
C33_2 C32_2 1_555 1_555
C34_2 C33_2 1_555 1_555
H24_2 C34_2 1_555 1_555
C35_2 C30_2 1_555 1_555
H25_2 C35_2 1_555 1_555
C36_2 N5_2 1_555 1_555
H26_2 C36_2 1_555 1_555
C37_2 C36_2 1_555 1_555
H27_2 C37_2 1_555 1_555
C38_2 N6_2 1_555 1_555
H28_2 C38_2 1_555 1_555
Ag3_2 N7_2 1_555 1_555
Ag4_2 N5_2 1_555 1_555
N9_2 Ag1_2 1_555 1_555
N10_2 Ag1_2 1_555 1_555
N11_2 Ag1_2 1_555 1_555
C16_2 C17_2 1_555 1_555
C26_2 C27_2 1_555 1_555
C28_2 C29_2 1_555 1_555
C34_2 C35_2 1_555 1_555
C37_2 C38_2 1_555 1_555
Ag1_3 N1_3 1_555 1_555
N1_3 N2_3 1_555 1_555
N2_3 C15_3 1_555 1_555
N3_3 N4_3 1_555 1_555
N4_3 C3_3 1_555 1_555
C1_3 N3_3 1_555 1_555
H1_3 C1_3 1_555 1_555
C2_3 C1_3 1_555 1_555
H2_3 C2_3 1_555 1_555
C3_3 C2_3 1_555 1_555
H3_3 C3_3 1_555 1_555
C4_3 N4_3 1_555 1_555
C5_3 C4_3 1_555 1_555
H4_3 C5_3 1_555 1_555
C6_3 C5_3 1_555 1_555
H5_3 C6_3 1_555 1_555
C7_3 C6_3 1_555 1_555
C8_3 C7_3 1_555 1_555
H6_3 C8_3 1_555 1_555
C9_3 C4_3 1_555 1_555
H7_3 C9_3 1_555 1_555
C10_3 C7_3 1_555 1_555
C11_3 C10_3 1_555 1_555
C12_3 C11_3 1_555 1_555
C13_3 C12_3 1_555 1_555
H8_3 C13_3 1_555 1_555
C14_3 C13_3 1_555 1_555
H9_3 C14_3 1_555 1_555
C15_3 C14_3 1_555 1_555
C16_3 C15_3 1_555 1_555
H10_3 C16_3 1_555 1_555
C17_3 C12_3 1_555 1_555
H11_3 C17_3 1_555 1_555
C18_3 N1_3 1_555 1_555
H12_3 C18_3 1_555 1_555
C19_3 C18_3 1_555 1_555
H13_3 C19_3 1_555 1_555
C20_3 N2_3 1_555 1_555
H14_3 C20_3 1_555 1_555
N5_3 N6_3 1_555 1_555
N6_3 C33_3 1_555 1_555
N7_3 N8_3 1_555 1_555
N8_3 C23_3 1_555 1_555
C21_3 N7_3 1_555 1_555
H15_3 C21_3 1_555 1_555
C22_3 C21_3 1_555 1_555
H16_3 C22_3 1_555 1_555
C23_3 C22_3 1_555 1_555
H17_3 C23_3 1_555 1_555
C24_3 N8_3 1_555 1_555
C25_3 C24_3 1_555 1_555
H18_3 C25_3 1_555 1_555
C26_3 C25_3 1_555 1_555
H19_3 C26_3 1_555 1_555
C27_3 C10_3 1_555 1_555
C28_3 C27_3 1_555 1_555
H20_3 C28_3 1_555 1_555
C29_3 C24_3 1_555 1_555
H21_3 C29_3 1_555 1_555
C30_3 C11_3 1_555 1_555
C31_3 C30_3 1_555 1_555
H22_3 C31_3 1_555 1_555
C32_3 C31_3 1_555 1_555
H23_3 C32_3 1_555 1_555
C33_3 C32_3 1_555 1_555
C34_3 C33_3 1_555 1_555
H24_3 C34_3 1_555 1_555
C35_3 C30_3 1_555 1_555
H25_3 C35_3 1_555 1_555
C36_3 N5_3 1_555 1_555
H26_3 C36_3 1_555 1_555
C37_3 C36_3 1_555 1_555
H27_3 C37_3 1_555 1_555
C38_3 N6_3 1_555 1_555
H28_3 C38_3 1_555 1_555
Ag2_3 N3_3 1_555 1_555
Ag3_3 N7_3 1_555 1_555
Ag4_3 N5_3 1_555 1_555
N9_3 Ag1_3 1_555 1_555
N10_3 Ag1_3 1_555 1_555
N11_3 Ag1_3 1_555 1_555
C8_3 C9_3 1_555 1_555
C16_3 C17_3 1_555 1_555
C19_3 C20_3 1_555 1_555
C26_3 C27_3 1_555 1_555
C28_3 C29_3 1_555 1_555
C34_3 C35_3 1_555 1_555
C37_3 C38_3 1_555 1_555
C36_4 N5_4 1_555 1_555
H26_4 C36_4 1_555 1_555
Ag4_4 N5_4 1_555 1_555
Ag1_4 N1_4 1_555 1_555
N1_4 N2_4 1_555 1_555
N2_4 C15_4 1_555 1_555
C11_4 C10_4 1_555 1_555
C12_4 C11_4 1_555 1_555
C13_4 C12_4 1_555 1_555
H8_4 C13_4 1_555 1_555
C14_4 C13_4 1_555 1_555
H9_4 C14_4 1_555 1_555
C15_4 C14_4 1_555 1_555
C16_4 C15_4 1_555 1_555
H10_4 C16_4 1_555 1_555
C17_4 C12_4 1_555 1_555
H11_4 C17_4 1_555 1_555
C18_4 N1_4 1_555 1_555
H12_4 C18_4 1_555 1_555
C19_4 C18_4 1_555 1_555
H13_4 C19_4 1_555 1_555
C20_4 N2_4 1_555 1_555
H14_4 C20_4 1_555 1_555
N6_4 C33_4 1_555 1_555
N7_4 N8_4 1_555 1_555
N8_4 C23_4 1_555 1_555
C21_4 N7_4 1_555 1_555
H15_4 C21_4 1_555 1_555
C22_4 C21_4 1_555 1_555
C23_4 C22_4 1_555 1_555
H17_4 C23_4 1_555 1_555
C24_4 N8_4 1_555 1_555
C25_4 C24_4 1_555 1_555
H18_4 C25_4 1_555 1_555
C26_4 C25_4 1_555 1_555
C27_4 C10_4 1_555 1_555
C28_4 C27_4 1_555 1_555
H20_4 C28_4 1_555 1_555
C29_4 C24_4 1_555 1_555
H21_4 C29_4 1_555 1_555
C30_4 C11_4 1_555 1_555
C31_4 C30_4 1_555 1_555
H22_4 C31_4 1_555 1_555
C32_4 C31_4 1_555 1_555
C33_4 C32_4 1_555 1_555
C34_4 C33_4 1_555 1_555
H24_4 C34_4 1_555 1_555
C35_4 C30_4 1_555 1_555
H25_4 C35_4 1_555 1_555
H27_4 C37_4 1_555 1_555
C38_4 N6_4 1_555 1_555
H28_4 C38_4 1_555 1_555
Ag3_4 N7_4 1_555 1_555
N9_4 Ag1_4 1_555 1_555
N10_4 Ag1_4 1_555 1_555
N11_4 Ag1_4 1_555 1_555
C16_4 C17_4 1_555 1_555
C19_4 C20_4 1_555 1_555
C26_4 C27_4 1_555 1_555
C28_4 C29_4 1_555 1_555
C34_4 C35_4 1_555 1_555
C37_4 C38_4 1_555 1_555
N3_4 N4_4 1_555 1_555
N4_4 C3_4 1_555 1_555
C1_4 N3_4 1_555 1_555
H1_4 C1_4 1_555 1_555
C2_4 C1_4 1_555 1_555
H2_4 C2_4 1_555 1_555
C3_4 C2_4 1_555 1_555
H3_4 C3_4 1_555 1_555
C4_4 N4_4 1_555 1_555
C5_4 C4_4 1_555 1_555
H4_4 C5_4 1_555 1_555
C6_4 C5_4 1_555 1_555
H5_4 C6_4 1_555 1_555
C7_4 C6_4 1_555 1_555
C8_4 C7_4 1_555 1_555
H6_4 C8_4 1_555 1_555
C9_4 C4_4 1_555 1_555
H7_4 C9_4 1_555 1_555
Ag2_4 N3_4 1_555 1_555
C8_4 C9_4 1_555 1_555
Ag2_3 N1_5 1_555 1_555
N1_5 N2_5 1_555 1_555
N2_5 C15_5 1_555 1_555
N10_3 N4_5 1_555 1_555
N4_5 C3_5 1_555 1_555
C1_5 N10_3 1_555 1_555
H1_5 C1_5 1_555 1_555
C2_5 C1_5 1_555 1_555
H2_5 C2_5 1_555 1_555
C3_5 C2_5 1_555 1_555
H3_5 C3_5 1_555 1_555
C4_5 N4_5 1_555 1_555
C5_5 C4_5 1_555 1_555
H4_5 C5_5 1_555 1_555
C6_5 C5_5 1_555 1_555
H5_5 C6_5 1_555 1_555
C7_5 C6_5 1_555 1_555
C8_5 C7_5 1_555 1_555
H6_5 C8_5 1_555 1_555
C9_5 C4_5 1_555 1_555
H7_5 C9_5 1_555 1_555
C10_5 C7_5 1_555 1_555
C11_5 C10_5 1_555 1_555
C12_5 C11_5 1_555 1_555
C13_5 C12_5 1_555 1_555
H8_5 C13_5 1_555 1_555
C14_5 C13_5 1_555 1_555
H9_5 C14_5 1_555 1_555
C15_5 C14_5 1_555 1_555
C16_5 C15_5 1_555 1_555
H10_5 C16_5 1_555 1_555
C17_5 C12_5 1_555 1_555
H11_5 C17_5 1_555 1_555
C18_5 N1_5 1_555 1_555
H12_5 C18_5 1_555 1_555
C19_5 C18_5 1_555 1_555
H13_5 C19_5 1_555 1_555
C20_5 N2_5 1_555 1_555
H14_5 C20_5 1_555 1_555
N7_5 N8_5 1_555 1_555
N8_5 C23_5 1_555 1_555
C21_5 N7_5 1_555 1_555
H15_5 C21_5 1_555 1_555
C22_5 C21_5 1_555 1_555
H16_5 C22_5 1_555 1_555
C23_5 C22_5 1_555 1_555
H17_5 C23_5 1_555 1_555
C24_5 N8_5 1_555 1_555
C25_5 C24_5 1_555 1_555
H18_5 C25_5 1_555 1_555
C26_5 C25_5 1_555 1_555
H19_5 C26_5 1_555 1_555
C27_5 C10_5 1_555 1_555
C28_5 C27_5 1_555 1_555
H20_5 C28_5 1_555 1_555
C29_5 C24_5 1_555 1_555
H21_5 C29_5 1_555 1_555
C30_5 C11_5 1_555 1_555
C31_5 C30_5 1_555 1_555
H22_5 C31_5 1_555 1_555
C32_5 C31_5 1_555 1_555
H23_5 C32_5 1_555 1_555
C33_5 C32_5 1_555 1_555
C34_5 C33_5 1_555 1_555
H24_5 C34_5 1_555 1_555
C35_5 C30_5 1_555 1_555
H25_5 C35_5 1_555 1_555
Ag4 N7_5 1_555 1_555
N9_5 Ag2_3 1_555 1_555
N11_5 Ag2_3 1_555 1_555
C8_5 C9_5 1_555 1_555
C16_5 C17_5 1_555 1_555
C19_5 C20_5 1_555 1_555
C26_5 C27_5 1_555 1_555
C28_5 C29_5 1_555 1_555
C34_5 C35_5 1_555 1_555
N5_5 N6_5 1_555 1_555
C36_5 N5_5 1_555 1_555
H26_5 C36_5 1_555 1_555
C37_5 C36_5 1_555 1_555
H27_5 C37_5 1_555 1_555
C38_5 N6_5 1_555 1_555
H28_5 C38_5 1_555 1_555
C37_5 C38_5 1_555 1_555
N10_4 N4_6 1_555 1_555
N4_6 C3_6 1_555 1_555
C1_6 N10_4 1_555 1_555
H1_6 C1_6 1_555 1_555
C2_6 C1_6 1_555 1_555
H2_6 C2_6 1_555 1_555
C3_6 C2_6 1_555 1_555
H3_6 C3_6 1_555 1_555
C4_6 N4_6 1_555 1_555
C5_6 C4_6 1_555 1_555
H4_6 C5_6 1_555 1_555
C6_6 C5_6 1_555 1_555
H5_6 C6_6 1_555 1_555
C7_6 C6_6 1_555 1_555
C8_6 C7_6 1_555 1_555
H6_6 C8_6 1_555 1_555
C9_6 C4_6 1_555 1_555
H7_6 C9_6 1_555 1_555
C8_6 C9_6 1_555 1_555
Ag2_4 N1_6 1_555 1_555
N1_6 N2_6 1_555 1_555
N2_6 C15_6 1_555 1_555
C11_6 C10_6 1_555 1_555
C12_6 C11_6 1_555 1_555
C13_6 C12_6 1_555 1_555
H8_6 C13_6 1_555 1_555
C14_6 C13_6 1_555 1_555
H9_6 C14_6 1_555 1_555
C15_6 C14_6 1_555 1_555
C16_6 C15_6 1_555 1_555
H10_6 C16_6 1_555 1_555
C17_6 C12_6 1_555 1_555
H11_6 C17_6 1_555 1_555
C18_6 N1_6 1_555 1_555
H12_6 C18_6 1_555 1_555
C19_6 C18_6 1_555 1_555
H13_6 C19_6 1_555 1_555
C20_6 N2_6 1_555 1_555
H14_6 C20_6 1_555 1_555
N5_6 N6_6 1_555 1_555
N6_6 C33_6 1_555 1_555
N7_6 N8_6 1_555 1_555
N8_6 C23_6 1_555 1_555
C21_6 N7_6 1_555 1_555
H15_6 C21_6 1_555 1_555
C22_6 C21_6 1_555 1_555
H16_6 C22_6 1_555 1_555
C23_6 C22_6 1_555 1_555
H17_6 C23_6 1_555 1_555
C24_6 N8_6 1_555 1_555
C25_6 C24_6 1_555 1_555
H18_6 C25_6 1_555 1_555
C26_6 C25_6 1_555 1_555
C27_6 C10_6 1_555 1_555
C28_6 C27_6 1_555 1_555
H20_6 C28_6 1_555 1_555
C29_6 C24_6 1_555 1_555
H21_6 C29_6 1_555 1_555
C30_6 C11_6 1_555 1_555
C31_6 C30_6 1_555 1_555
H22_6 C31_6 1_555 1_555
C32_6 C31_6 1_555 1_555
H23_6 C32_6 1_555 1_555
C33_6 C32_6 1_555 1_555
C34_6 C33_6 1_555 1_555
H24_6 C34_6 1_555 1_555
C35_6 C30_6 1_555 1_555
H25_6 C35_6 1_555 1_555
C36_6 N5_6 1_555 1_555
H26_6 C36_6 1_555 1_555
C37_6 C36_6 1_555 1_555
H27_6 C37_6 1_555 1_555
C38_6 N6_6 1_555 1_555
H28_6 C38_6 1_555 1_555
Ag4_2 N7_6 1_555 1_555
Ag3_2 N5_6 1_555 1_555
N9_6 Ag2_4 1_555 1_555
N11_6 Ag2_4 1_555 1_555
C16_6 C17_6 1_555 1_555
C19_6 C20_6 1_555 1_555
C26_6 C27_6 1_555 1_555
C28_6 C29_6 1_555 1_555
C34_6 C35_6 1_555 1_555
C37_6 C38_6 1_555 1_555
Ag2 N1_7 1_555 1_555
C18_7 N1_7 1_555 1_555
H12_7 C18_7 1_555 1_555
N11_7 Ag2 1_555 1_555
N2_7 C15_7 1_555 1_555
N10 N4_7 1_555 1_555
N4_7 C3_7 1_555 1_555
C1_7 N10 1_555 1_555
H1_7 C1_7 1_555 1_555
C2_7 C1_7 1_555 1_555
C3_7 C2_7 1_555 1_555
H3_7 C3_7 1_555 1_555
C4_7 N4_7 1_555 1_555
C5_7 C4_7 1_555 1_555
H4_7 C5_7 1_555 1_555
C6_7 C5_7 1_555 1_555
H5_7 C6_7 1_555 1_555
C7_7 C6_7 1_555 1_555
C8_7 C7_7 1_555 1_555
H6_7 C8_7 1_555 1_555
C9_7 C4_7 1_555 1_555
H7_7 C9_7 1_555 1_555
C10_7 C7_7 1_555 1_555
C11_7 C10_7 1_555 1_555
C12_7 C11_7 1_555 1_555
C13_7 C12_7 1_555 1_555
H8_7 C13_7 1_555 1_555
C14_7 C13_7 1_555 1_555
C15_7 C14_7 1_555 1_555
C16_7 C15_7 1_555 1_555
H10_7 C16_7 1_555 1_555
C17_7 C12_7 1_555 1_555
H11_7 C17_7 1_555 1_555
H13_7 C19_7 1_555 1_555
C20_7 N2_7 1_555 1_555
H14_7 C20_7 1_555 1_555
N5_7 N6_7 1_555 1_555
N6_7 C33_7 1_555 1_555
N7_7 N8_7 1_555 1_555
N8_7 C23_7 1_555 1_555
C21_7 N7_7 1_555 1_555
H15_7 C21_7 1_555 1_555
C22_7 C21_7 1_555 1_555
H16_7 C22_7 1_555 1_555
C23_7 C22_7 1_555 1_555
H17_7 C23_7 1_555 1_555
C24_7 N8_7 1_555 1_555
C25_7 C24_7 1_555 1_555
H18_7 C25_7 1_555 1_555
C26_7 C25_7 1_555 1_555
H19_7 C26_7 1_555 1_555
C27_7 C10_7 1_555 1_555
C28_7 C27_7 1_555 1_555
H20_7 C28_7 1_555 1_555
C29_7 C24_7 1_555 1_555
H21_7 C29_7 1_555 1_555
C30_7 C11_7 1_555 1_555
C31_7 C30_7 1_555 1_555
H22_7 C31_7 1_555 1_555
C32_7 C31_7 1_555 1_555
H23_7 C32_7 1_555 1_555
C33_7 C32_7 1_555 1_555
C34_7 C33_7 1_555 1_555
H24_7 C34_7 1_555 1_555
C35_7 C30_7 1_555 1_555
H25_7 C35_7 1_555 1_555
C36_7 N5_7 1_555 1_555
H26_7 C36_7 1_555 1_555
C37_7 C36_7 1_555 1_555
H27_7 C37_7 1_555 1_555
C38_7 N6_7 1_555 1_555
H28_7 C38_7 1_555 1_555
Ag4_3 N7_7 1_555 1_555
Ag3_3 N5_7 1_555 1_555
C8_7 C9_7 1_555 1_555
C16_7 C17_7 1_555 1_555
C19_7 C20_7 1_555 1_555
C26_7 C27_7 1_555 1_555
C28_7 C29_7 1_555 1_555
C34_7 C35_7 1_555 1_555
C37_7 C38_7 1_555 1_555
N1_8 N2_8 1_555 1_555
C18_8 N1_8 1_555 1_555
H12_8 C18_8 1_555 1_555
C19_8 C18_8 1_555 1_555
H13_8 C19_8 1_555 1_555
C20_8 N2_8 1_555 1_555
H14_8 C20_8 1_555 1_555
C19_8 C20_8 1_555 1_555
C11_8 C10_8 1_555 1_555
C12_8 C11_8 1_555 1_555
C13_8 C12_8 1_555 1_555
H8_8 C13_8 1_555 1_555
C14_8 C13_8 1_555 1_555
H9_8 C14_8 1_555 1_555
C15_8 C14_8 1_555 1_555
C16_8 C15_8 1_555 1_555
H10_8 C16_8 1_555 1_555
C17_8 C12_8 1_555 1_555
H11_8 C17_8 1_555 1_555
N6_8 C33_8 1_555 1_555
N7_8 N8_8 1_555 1_555
N8_8 C23_8 1_555 1_555
C21_8 N7_8 1_555 1_555
H15_8 C21_8 1_555 1_555
C22_8 C21_8 1_555 1_555
C23_8 C22_8 1_555 1_555
H17_8 C23_8 1_555 1_555
C24_8 N8_8 1_555 1_555
C25_8 C24_8 1_555 1_555
H18_8 C25_8 1_555 1_555
C26_8 C25_8 1_555 1_555
C27_8 C10_8 1_555 1_555
C28_8 C27_8 1_555 1_555
H20_8 C28_8 1_555 1_555
C29_8 C24_8 1_555 1_555
H21_8 C29_8 1_555 1_555
C30_8 C11_8 1_555 1_555
C31_8 C30_8 1_555 1_555
H22_8 C31_8 1_555 1_555
C32_8 C31_8 1_555 1_555
C33_8 C32_8 1_555 1_555
C34_8 C33_8 1_555 1_555
H24_8 C34_8 1_555 1_555
C35_8 C30_8 1_555 1_555
H25_8 C35_8 1_555 1_555
H27_8 C37_8 1_555 1_555
C38_8 N6_8 1_555 1_555
H28_8 C38_8 1_555 1_555
Ag4_4 N7_8 1_555 1_555
N9_8 Ag2_2 1_555 1_555
N11_8 Ag2_2 1_555 1_555
C16_8 C17_8 1_555 1_555
C26_8 C27_8 1_555 1_555
C28_8 C29_8 1_555 1_555
C34_8 C35_8 1_555 1_555
C37_8 C38_8 1_555 1_555
C36_8 N5_8 1_555 1_555
H26_8 C36_8 1_555 1_555
Ag3_4 N5_8 1_555 1_555
N10_2 N4_8 1_555 1_555
N4_8 C3_8 1_555 1_555
C1_8 N10_2 1_555 1_555
H1_8 C1_8 1_555 1_555
C2_8 C1_8 1_555 1_555
H2_8 C2_8 1_555 1_555
C3_8 C2_8 1_555 1_555
H3_8 C3_8 1_555 1_555
C4_8 N4_8 1_555 1_555
C5_8 C4_8 1_555 1_555
H4_8 C5_8 1_555 1_555
C6_8 C5_8 1_555 1_555
H5_8 C6_8 1_555 1_555
C7_8 C6_8 1_555 1_555
C8_8 C7_8 1_555 1_555
H6_8 C8_8 1_555 1_555
C9_8 C4_8 1_555 1_555
H7_8 C9_8 1_555 1_555
C8_8 C9_8 1_555 1_555
N2_9 C15_9 1_555 1_555
N3_5 N4_9 1_555 1_555
N4_9 C3_9 1_555 1_555
C1_9 N3_5 1_555 1_555
H1_9 C1_9 1_555 1_555
C2_9 C1_9 1_555 1_555
C3_9 C2_9 1_555 1_555
H3_9 C3_9 1_555 1_555
C4_9 N4_9 1_555 1_555
C5_9 C4_9 1_555 1_555
H4_9 C5_9 1_555 1_555
C6_9 C5_9 1_555 1_555
H5_9 C6_9 1_555 1_555
C7_9 C6_9 1_555 1_555
C8_9 C7_9 1_555 1_555
H6_9 C8_9 1_555 1_555
C9_9 C4_9 1_555 1_555
H7_9 C9_9 1_555 1_555
C10_9 C7_9 1_555 1_555
C11_9 C10_9 1_555 1_555
C12_9 C11_9 1_555 1_555
C13_9 C12_9 1_555 1_555
H8_9 C13_9 1_555 1_555
C14_9 C13_9 1_555 1_555
C15_9 C14_9 1_555 1_555
C16_9 C15_9 1_555 1_555
H10_9 C16_9 1_555 1_555
C17_9 C12_9 1_555 1_555
H11_9 C17_9 1_555 1_555
H13_9 C19_9 1_555 1_555
C20_9 N2_9 1_555 1_555
H14_9 C20_9 1_555 1_555
N7_9 N8_9 1_555 1_555
N8_9 C23_9 1_555 1_555
C21_9 N7_9 1_555 1_555
H15_9 C21_9 1_555 1_555
C22_9 C21_9 1_555 1_555
H16_9 C22_9 1_555 1_555
C23_9 C22_9 1_555 1_555
H17_9 C23_9 1_555 1_555
C24_9 N8_9 1_555 1_555
C25_9 C24_9 1_555 1_555
H18_9 C25_9 1_555 1_555
C26_9 C25_9 1_555 1_555
H19_9 C26_9 1_555 1_555
C27_9 C10_9 1_555 1_555
C28_9 C27_9 1_555 1_555
H20_9 C28_9 1_555 1_555
C29_9 C24_9 1_555 1_555
H21_9 C29_9 1_555 1_555
C30_9 C11_9 1_555 1_555
C31_9 C30_9 1_555 1_555
H22_9 C31_9 1_555 1_555
C32_9 C31_9 1_555 1_555
H23_9 C32_9 1_555 1_555
C33_9 C32_9 1_555 1_555
C34_9 C33_9 1_555 1_555
H24_9 C34_9 1_555 1_555
C35_9 C30_9 1_555 1_555
H25_9 C35_9 1_555 1_555
Ag4 N3_5 1_555 1_555
Ag3_5 N7_9 1_555 1_555
C8_9 C9_9 1_555 1_555
C16_9 C17_9 1_555 1_555
C19_9 C20_9 1_555 1_555
C26_9 C27_9 1_555 1_555
C28_9 C29_9 1_555 1_555
C34_9 C35_9 1_555 1_555
N5_9 N6_9 1_555 1_555
C36_9 N5_9 1_555 1_555
H26_9 C36_9 1_555 1_555
C37_9 C36_9 1_555 1_555
H27_9 C37_9 1_555 1_555
C38_9 N6_9 1_555 1_555
H28_9 C38_9 1_555 1_555
C37_9 C38_9 1_555 1_555
C18_9 N9_8 1_555 1_555
H12_9 C18_9 1_555 1_555
C36_10 N5_10 1_555 1_555
H26_10 C36_10 1_555 1_555
Ag3_5 N5_10 1_555 1_555
N9_5 N2_10 1_555 1_555
N2_10 C15_10 1_555 1_555
C11_10 C10_10 1_555 1_555
C12_10 C11_10 1_555 1_555
C13_10 C12_10 1_555 1_555
H8_10 C13_10 1_555 1_555
C14_10 C13_10 1_555 1_555
H9_10 C14_10 1_555 1_555
C15_10 C14_10 1_555 1_555
C16_10 C15_10 1_555 1_555
H10_10 C16_10 1_555 1_555
C17_10 C12_10 1_555 1_555
H11_10 C17_10 1_555 1_555
C18_10 N9_5 1_555 1_555
H12_10 C18_10 1_555 1_555
C19_10 C18_10 1_555 1_555
H13_10 C19_10 1_555 1_555
C20_10 N2_10 1_555 1_555
H14_10 C20_10 1_555 1_555
N6_10 C33_10 1_555 1_555
N7_10 N8_10 1_555 1_555
N8_10 C23_10 1_555 1_555
C21_10 N7_10 1_555 1_555
H15_10 C21_10 1_555 1_555
C22_10 C21_10 1_555 1_555
C23_10 C22_10 1_555 1_555
H17_10 C23_10 1_555 1_555
C24_10 N8_10 1_555 1_555
C25_10 C24_10 1_555 1_555
H18_10 C25_10 1_555 1_555
C26_10 C25_10 1_555 1_555
C27_10 C10_10 1_555 1_555
C28_10 C27_10 1_555 1_555
H20_10 C28_10 1_555 1_555
C29_10 C24_10 1_555 1_555
H21_10 C29_10 1_555 1_555
C30_10 C11_10 1_555 1_555
C31_10 C30_10 1_555 1_555
H22_10 C31_10 1_555 1_555
C32_10 C31_10 1_555 1_555
C33_10 C32_10 1_555 1_555
C34_10 C33_10 1_555 1_555
H24_10 C34_10 1_555 1_555
C35_10 C30_10 1_555 1_555
H25_10 C35_10 1_555 1_555
H27_10 C37_10 1_555 1_555
C38_10 N6_10 1_555 1_555
H28_10 C38_10 1_555 1_555
Ag3_6 N7_10 1_555 1_555
C16_10 C17_10 1_555 1_555
C19_10 C20_10 1_555 1_555
C26_10 C27_10 1_555 1_555
C28_10 C29_10 1_555 1_555
C34_10 C35_10 1_555 1_555
C37_10 C38_10 1_555 1_555
N3_6 N4_10 1_555 1_555
N4_10 C3_10 1_555 1_555
C1_10 N3_6 1_555 1_555
H1_10 C1_10 1_555 1_555
C2_10 C1_10 1_555 1_555
H2_10 C2_10 1_555 1_555
C3_10 C2_10 1_555 1_555
H3_10 C3_10 1_555 1_555
C4_10 N4_10 1_555 1_555
C5_10 C4_10 1_555 1_555
H4_10 C5_10 1_555 1_555
C6_10 C5_10 1_555 1_555
H5_10 C6_10 1_555 1_555
C7_10 C6_10 1_555 1_555
C8_10 C7_10 1_555 1_555
H6_10 C8_10 1_555 1_555
C9_10 C4_10 1_555 1_555
H7_10 C9_10 1_555 1_555
Ag4_2 N3_6 1_555 1_555
C8_10 C9_10 1_555 1_555
N5_11 N6_11 1_555 1_555
C36_11 N5_11 1_555 1_555
H26_11 C36_11 1_555 1_555
C37_11 C36_11 1_555 1_555
H27_11 C37_11 1_555 1_555
C38_11 N6_11 1_555 1_555
H28_11 C38_11 1_555 1_555
C37_11 C38_11 1_555 1_555
N7_11 N8_11 1_555 1_555
N8_11 C23_11 1_555 1_555
C21_11 N7_11 1_555 1_555
H15_11 C21_11 1_555 1_555
C22_11 C21_11 1_555 1_555
H16_11 C22_11 1_555 1_555
C23_11 C22_11 1_555 1_555
H17_11 C23_11 1_555 1_555
C24_11 N8_11 1_555 1_555
C25_11 C24_11 1_555 1_555
H18_11 C25_11 1_555 1_555
C26_11 C25_11 1_555 1_555
H19_11 C26_11 1_555 1_555
C28_11 C27_11 1_555 1_555
H20_11 C28_11 1_555 1_555
C29_11 C24_11 1_555 1_555
H21_11 C29_11 1_555 1_555
Ag3_7 N7_11 1_555 1_555
C26_11 C27_11 1_555 1_555
C28_11 C29_11 1_555 1_555
N9_6 N2_11 1_555 1_555
N2_11 C15_11 1_555 1_555
N3_7 N4_11 1_555 1_555
N4_11 C3_11 1_555 1_555
C1_11 N3_7 1_555 1_555
H1_11 C1_11 1_555 1_555
C2_11 C1_11 1_555 1_555
H2_11 C2_11 1_555 1_555
C3_11 C2_11 1_555 1_555
H3_11 C3_11 1_555 1_555
C4_11 N4_11 1_555 1_555
C5_11 C4_11 1_555 1_555
H4_11 C5_11 1_555 1_555
C6_11 C5_11 1_555 1_555
C7_11 C6_11 1_555 1_555
C8_11 C7_11 1_555 1_555
H6_11 C8_11 1_555 1_555
C9_11 C4_11 1_555 1_555
H7_11 C9_11 1_555 1_555
C10_11 C7_11 1_555 1_555
C11_11 C10_11 1_555 1_555
C12_11 C11_11 1_555 1_555
C13_11 C12_11 1_555 1_555
H8_11 C13_11 1_555 1_555
C14_11 C13_11 1_555 1_555
H9_11 C14_11 1_555 1_555
C15_11 C14_11 1_555 1_555
C16_11 C15_11 1_555 1_555
H10_11 C16_11 1_555 1_555
C17_11 C12_11 1_555 1_555
H11_11 C17_11 1_555 1_555
C18_11 N9_6 1_555 1_555
H12_11 C18_11 1_555 1_555
C19_11 C18_11 1_555 1_555
H13_11 C19_11 1_555 1_555
C20_11 N2_11 1_555 1_555
H14_11 C20_11 1_555 1_555
C30_11 C11_11 1_555 1_555
C31_11 C30_11 1_555 1_555
H22_11 C31_11 1_555 1_555
C32_11 C31_11 1_555 1_555
H23_11 C32_11 1_555 1_555
C33_11 C32_11 1_555 1_555
C34_11 C33_11 1_555 1_555
H24_11 C34_11 1_555 1_555
C35_11 C30_11 1_555 1_555
H25_11 C35_11 1_555 1_555
Ag4_3 N3_7 1_555 1_555
C8_11 C9_11 1_555 1_555
C16_11 C17_11 1_555 1_555
C19_11 C20_11 1_555 1_555
C34_11 C35_11 1_555 1_555
N3_8 N4_12 1_555 1_555
N4_12 C3_12 1_555 1_555
C1_12 N3_8 1_555 1_555
H1_12 C1_12 1_555 1_555
C2_12 C1_12 1_555 1_555
H2_12 C2_12 1_555 1_555
C3_12 C2_12 1_555 1_555
H3_12 C3_12 1_555 1_555
C4_12 N4_12 1_555 1_555
C5_12 C4_12 1_555 1_555
H4_12 C5_12 1_555 1_555
C6_12 C5_12 1_555 1_555
H5_12 C6_12 1_555 1_555
C7_12 C6_12 1_555 1_555
C8_12 C7_12 1_555 1_555
H6_12 C8_12 1_555 1_555
C9_12 C4_12 1_555 1_555
H7_12 C9_12 1_555 1_555
C10_12 C7_12 1_555 1_555
C11_12 C10_12 1_555 1_555
C12_12 C11_12 1_555 1_555
C13_12 C12_12 1_555 1_555
H8_12 C13_12 1_555 1_555
C14_12 C13_12 1_555 1_555
H9_12 C14_12 1_555 1_555
C15_12 C14_12 1_555 1_555
C16_12 C15_12 1_555 1_555
H10_12 C16_12 1_555 1_555
C17_12 C12_12 1_555 1_555
H11_12 C17_12 1_555 1_555
N6_12 C33_12 1_555 1_555
N7_12 N8_12 1_555 1_555
N8_12 C23_12 1_555 1_555
C21_12 N7_12 1_555 1_555
H15_12 C21_12 1_555 1_555
C22_12 C21_12 1_555 1_555
C23_12 C22_12 1_555 1_555
H17_12 C23_12 1_555 1_555
C24_12 N8_12 1_555 1_555
C25_12 C24_12 1_555 1_555
H18_12 C25_12 1_555 1_555
C26_12 C25_12 1_555 1_555
H19_12 C26_12 1_555 1_555
C27_12 C10_12 1_555 1_555
C28_12 C27_12 1_555 1_555
H20_12 C28_12 1_555 1_555
C29_12 C24_12 1_555 1_555
H21_12 C29_12 1_555 1_555
C30_12 C11_12 1_555 1_555
C31_12 C30_12 1_555 1_555
H22_12 C31_12 1_555 1_555
C32_12 C31_12 1_555 1_555
C33_12 C32_12 1_555 1_555
C34_12 C33_12 1_555 1_555
H24_12 C34_12 1_555 1_555
C35_12 C30_12 1_555 1_555
H25_12 C35_12 1_555 1_555
H27_12 C37_12 1_555 1_555
C38_12 N6_12 1_555 1_555
H28_12 C38_12 1_555 1_555
Ag4_4 N3_8 1_555 1_555
Ag4_5 N7_12 1_555 1_555
C8_12 C9_12 1_555 1_555
C16_12 C17_12 1_555 1_555
C26_12 C27_12 1_555 1_555
C28_12 C29_12 1_555 1_555
C34_12 C35_12 1_555 1_555
C37_12 C38_12 1_555 1_555
N9_7 N2_12 1_555 1_555
C18_12 N9_7 1_555 1_555
H12_12 C18_12 1_555 1_555
C19_12 C18_12 1_555 1_555
H13_12 C19_12 1_555 1_555
C20_12 N2_12 1_555 1_555
H14_12 C20_12 1_555 1_555
C19_12 C20_12 1_555 1_555
C36_12 N5_12 1_555 1_555
H26_12 C36_12 1_555 1_555
Ag3_7 N5_12 1_555 1_555
N5_13 N6_13 1_555 1_555
C36_13 N5_13 1_555 1_555
H26_13 C36_13 1_555 1_555
C37_13 C36_13 1_555 1_555
H27_13 C37_13 1_555 1_555
C38_13 N6_13 1_555 1_555
H28_13 C38_13 1_555 1_555
C37_13 C38_13 1_555 1_555
N2_13 C15_13 1_555 1_555
N3_9 N4_13 1_555 1_555
N4_13 C3_13 1_555 1_555
C1_13 N3_9 1_555 1_555
H1_13 C1_13 1_555 1_555
C2_13 C1_13 1_555 1_555
C3_13 C2_13 1_555 1_555
H3_13 C3_13 1_555 1_555
C4_13 N4_13 1_555 1_555
C5_13 C4_13 1_555 1_555
H4_13 C5_13 1_555 1_555
C6_13 C5_13 1_555 1_555
C7_13 C6_13 1_555 1_555
C8_13 C7_13 1_555 1_555
H6_13 C8_13 1_555 1_555
C9_13 C4_13 1_555 1_555
H7_13 C9_13 1_555 1_555
C10_13 C7_13 1_555 1_555
C11_13 C10_13 1_555 1_555
C12_13 C11_13 1_555 1_555
C13_13 C12_13 1_555 1_555
H8_13 C13_13 1_555 1_555
C14_13 C13_13 1_555 1_555
C15_13 C14_13 1_555 1_555
C16_13 C15_13 1_555 1_555
H10_13 C16_13 1_555 1_555
C17_13 C12_13 1_555 1_555
H11_13 C17_13 1_555 1_555
H13_13 C19_13 1_555 1_555
C20_13 N2_13 1_555 1_555
H14_13 C20_13 1_555 1_555
C30_13 C11_13 1_555 1_555
C31_13 C30_13 1_555 1_555
H22_13 C31_13 1_555 1_555
C32_13 C31_13 1_555 1_555
H23_13 C32_13 1_555 1_555
C33_13 C32_13 1_555 1_555
C34_13 C33_13 1_555 1_555
H24_13 C34_13 1_555 1_555
C35_13 C30_13 1_555 1_555
H25_13 C35_13 1_555 1_555
Ag3 N3_9 1_555 1_555
C8_13 C9_13 1_555 1_555
C16_13 C17_13 1_555 1_555
C19_13 C20_13 1_555 1_555
C34_13 C35_13 1_555 1_555
N7_13 N8_13 1_555 1_555
N8_13 C23_13 1_555 1_555
C21_13 N7_13 1_555 1_555
H15_13 C21_13 1_555 1_555
C22_13 C21_13 1_555 1_555
H16_13 C22_13 1_555 1_555
C23_13 C22_13 1_555 1_555
H17_13 C23_13 1_555 1_555
C24_13 N8_13 1_555 1_555
C25_13 C24_13 1_555 1_555
H18_13 C25_13 1_555 1_555
C26_13 C25_13 1_555 1_555
H19_13 C26_13 1_555 1_555
C28_13 C27_13 1_555 1_555
H20_13 C28_13 1_555 1_555
C29_13 C24_13 1_555 1_555
H21_13 C29_13 1_555 1_555
Ag3_6 N7_13 1_555 1_555
C26_13 C27_13 1_555 1_555
C28_13 C29_13 1_555 1_555
C18_13 N9_2 1_555 1_555
H12_13 C18_13 1_555 1_555
C36_14 N5_14 1_555 1_555
H26_14 C36_14 1_555 1_555
Ag4_5 N5_14 1_555 1_555
N9_3 N2_14 1_555 1_555
N2_14 C15_14 1_555 1_555
N3_10 N4_14 1_555 1_555
N4_14 C3_14 1_555 1_555
C1_14 N3_10 1_555 1_555
H1_14 C1_14 1_555 1_555
C2_14 C1_14 1_555 1_555
H2_14 C2_14 1_555 1_555
C3_14 C2_14 1_555 1_555
H3_14 C3_14 1_555 1_555
C4_14 N4_14 1_555 1_555
C5_14 C4_14 1_555 1_555
H4_14 C5_14 1_555 1_555
C6_14 C5_14 1_555 1_555
H5_14 C6_14 1_555 1_555
C7_14 C6_14 1_555 1_555
C8_14 C7_14 1_555 1_555
H6_14 C8_14 1_555 1_555
C9_14 C4_14 1_555 1_555
H7_14 C9_14 1_555 1_555
C10_14 C7_14 1_555 1_555
C11_14 C10_14 1_555 1_555
C12_14 C11_14 1_555 1_555
C13_14 C12_14 1_555 1_555
H8_14 C13_14 1_555 1_555
C14_14 C13_14 1_555 1_555
H9_14 C14_14 1_555 1_555
C15_14 C14_14 1_555 1_555
C16_14 C15_14 1_555 1_555
H10_14 C16_14 1_555 1_555
C17_14 C12_14 1_555 1_555
H11_14 C17_14 1_555 1_555
C18_14 N9_3 1_555 1_555
H12_14 C18_14 1_555 1_555
C19_14 C18_14 1_555 1_555
H13_14 C19_14 1_555 1_555
C20_14 N2_14 1_555 1_555
H14_14 C20_14 1_555 1_555
N6_14 C33_14 1_555 1_555
N7_14 N8_14 1_555 1_555
N8_14 C23_14 1_555 1_555
C21_14 N7_14 1_555 1_555
H15_14 C21_14 1_555 1_555
C22_14 C21_14 1_555 1_555
C23_14 C22_14 1_555 1_555
H17_14 C23_14 1_555 1_555
C24_14 N8_14 1_555 1_555
C25_14 C24_14 1_555 1_555
H18_14 C25_14 1_555 1_555
C26_14 C25_14 1_555 1_555
H19_14 C26_14 1_555 1_555
C27_14 C10_14 1_555 1_555
C28_14 C27_14 1_555 1_555
H20_14 C28_14 1_555 1_555
C29_14 C24_14 1_555 1_555
H21_14 C29_14 1_555 1_555
C30_14 C11_14 1_555 1_555
C31_14 C30_14 1_555 1_555
H22_14 C31_14 1_555 1_555
C32_14 C31_14 1_555 1_555
C33_14 C32_14 1_555 1_555
C34_14 C33_14 1_555 1_555
H24_14 C34_14 1_555 1_555
C35_14 C30_14 1_555 1_555
H25_14 C35_14 1_555 1_555
H27_14 C37_14 1_555 1_555
C38_14 N6_14 1_555 1_555
H28_14 C38_14 1_555 1_555
Ag3_2 N3_10 1_555 1_555
Ag3_7 N7_14 1_555 1_555
C8_14 C9_14 1_555 1_555
C16_14 C17_14 1_555 1_555
C19_14 C20_14 1_555 1_555
C26_14 C27_14 1_555 1_555
C28_14 C29_14 1_555 1_555
C34_14 C35_14 1_555 1_555
C37_14 C38_14 1_555 1_555
N9_4 N2_15 1_555 1_555
N2_15 C15_15 1_555 1_555
N3_11 N4_15 1_555 1_555
N4_15 C3_15 1_555 1_555
C1_15 N3_11 1_555 1_555
H1_15 C1_15 1_555 1_555
C2_15 C1_15 1_555 1_555
H2_15 C2_15 1_555 1_555
C3_15 C2_15 1_555 1_555
H3_15 C3_15 1_555 1_555
C4_15 N4_15 1_555 1_555
C5_15 C4_15 1_555 1_555
H4_15 C5_15 1_555 1_555
C6_15 C5_15 1_555 1_555
H5_15 C6_15 1_555 1_555
C7_15 C6_15 1_555 1_555
C8_15 C7_15 1_555 1_555
H6_15 C8_15 1_555 1_555
C9_15 C4_15 1_555 1_555
H7_15 C9_15 1_555 1_555
C10_15 C7_15 1_555 1_555
C11_15 C10_15 1_555 1_555
C12_15 C11_15 1_555 1_555
C13_15 C12_15 1_555 1_555
H8_15 C13_15 1_555 1_555
C14_15 C13_15 1_555 1_555
H9_15 C14_15 1_555 1_555
C15_15 C14_15 1_555 1_555
C16_15 C15_15 1_555 1_555
H10_15 C16_15 1_555 1_555
C17_15 C12_15 1_555 1_555
H11_15 C17_15 1_555 1_555
C18_15 N9_4 1_555 1_555
H12_15 C18_15 1_555 1_555
C19_15 C18_15 1_555 1_555
H13_15 C19_15 1_555 1_555
C20_15 N2_15 1_555 1_555
H14_15 C20_15 1_555 1_555
N7_15 N8_15 1_555 1_555
N8_15 C23_15 1_555 1_555
C21_15 N7_15 1_555 1_555
H15_15 C21_15 1_555 1_555
C22_15 C21_15 1_555 1_555
H16_15 C22_15 1_555 1_555
C23_15 C22_15 1_555 1_555
H17_15 C23_15 1_555 1_555
C24_15 N8_15 1_555 1_555
C25_15 C24_15 1_555 1_555
H18_15 C25_15 1_555 1_555
C26_15 C25_15 1_555 1_555
H19_15 C26_15 1_555 1_555
C27_15 C10_15 1_555 1_555
C28_15 C27_15 1_555 1_555
H20_15 C28_15 1_555 1_555
C29_15 C24_15 1_555 1_555
H21_15 C29_15 1_555 1_555
C30_15 C11_15 1_555 1_555
C31_15 C30_15 1_555 1_555
H22_15 C31_15 1_555 1_555
C32_15 C31_15 1_555 1_555
H23_15 C32_15 1_555 1_555
C33_15 C32_15 1_555 1_555
C34_15 C33_15 1_555 1_555
H24_15 C34_15 1_555 1_555
C35_15 C30_15 1_555 1_555
H25_15 C35_15 1_555 1_555
Ag3_3 N3_11 1_555 1_555
Ag4_5 N7_15 1_555 1_555
C8_15 C9_15 1_555 1_555
C16_15 C17_15 1_555 1_555
C19_15 C20_15 1_555 1_555
C26_15 C27_15 1_555 1_555
C28_15 C29_15 1_555 1_555
C34_15 C35_15 1_555 1_555
N5_15 N6_15 1_555 1_555
C36_15 N5_15 1_555 1_555
H26_15 C36_15 1_555 1_555
C37_15 C36_15 1_555 1_555
H27_15 C37_15 1_555 1_555
C38_15 N6_15 1_555 1_555
H28_15 C38_15 1_555 1_555
C37_15 C38_15 1_555 1_555
N9 N2_16 1_555 1_555
C18_16 N9 1_555 1_555
H12_16 C18_16 1_555 1_555
C19_16 C18_16 1_555 1_555
H13_16 C19_16 1_555 1_555
C20_16 N2_16 1_555 1_555
H14_16 C20_16 1_555 1_555
C19_16 C20_16 1_555 1_555
C11_16 C10_16 1_555 1_555
C12_16 C11_16 1_555 1_555
C13_16 C12_16 1_555 1_555
H8_16 C13_16 1_555 1_555
C14_16 C13_16 1_555 1_555
H9_16 C14_16 1_555 1_555
C15_16 C14_16 1_555 1_555
C16_16 C15_16 1_555 1_555
H10_16 C16_16 1_555 1_555
C17_16 C12_16 1_555 1_555
H11_16 C17_16 1_555 1_555
N6_16 C33_16 1_555 1_555
N7_16 N8_16 1_555 1_555
N8_16 C23_16 1_555 1_555
C21_16 N7_16 1_555 1_555
H15_16 C21_16 1_555 1_555
C22_16 C21_16 1_555 1_555
C23_16 C22_16 1_555 1_555
H17_16 C23_16 1_555 1_555
C24_16 N8_16 1_555 1_555
C25_16 C24_16 1_555 1_555
H18_16 C25_16 1_555 1_555
C26_16 C25_16 1_555 1_555
C27_16 C10_16 1_555 1_555
C28_16 C27_16 1_555 1_555
H20_16 C28_16 1_555 1_555
C29_16 C24_16 1_555 1_555
H21_16 C29_16 1_555 1_555
C30_16 C11_16 1_555 1_555
C31_16 C30_16 1_555 1_555
H22_16 C31_16 1_555 1_555
C32_16 C31_16 1_555 1_555
C33_16 C32_16 1_555 1_555
C34_16 C33_16 1_555 1_555
H24_16 C34_16 1_555 1_555
C35_16 C30_16 1_555 1_555
H25_16 C35_16 1_555 1_555
H27_16 C37_16 1_555 1_555
C38_16 N6_16 1_555 1_555
H28_16 C38_16 1_555 1_555
Ag3_5 N7_16 1_555 1_555
C16_16 C17_16 1_555 1_555
C26_16 C27_16 1_555 1_555
C28_16 C29_16 1_555 1_555
C34_16 C35_16 1_555 1_555
C37_16 C38_16 1_555 1_555
C36_16 N5_16 1_555 1_555
H26_16 C36_16 1_555 1_555
Ag3_6 N5_16 1_555 1_555
N3_12 N4_16 1_555 1_555
N4_16 C3_16 1_555 1_555
C1_16 N3_12 1_555 1_555
H1_16 C1_16 1_555 1_555
C2_16 C1_16 1_555 1_555
H2_16 C2_16 1_555 1_555
C3_16 C2_16 1_555 1_555
H3_16 C3_16 1_555 1_555
C4_16 N4_16 1_555 1_555
C5_16 C4_16 1_555 1_555
H4_16 C5_16 1_555 1_555
C6_16 C5_16 1_555 1_555
H5_16 C6_16 1_555 1_555
C7_16 C6_16 1_555 1_555
C8_16 C7_16 1_555 1_555
H6_16 C8_16 1_555 1_555
C9_16 C4_16 1_555 1_555
H7_16 C9_16 1_555 1_555
Ag3_4 N3_12 1_555 1_555
C8_16 C9_16 1_555 1_555
N3_13 N4_17 1_555 1_555
N4_17 C3_17 1_555 1_555
C1_17 N3_13 1_555 1_555
H1_17 C1_17 1_555 1_555
C2_17 C1_17 1_555 1_555
H2_17 C2_17 1_555 1_555
C3_17 C2_17 1_555 1_555
H3_17 C3_17 1_555 1_555
C4_17 N4_17 1_555 1_555
C5_17 C4_17 1_555 1_555
H4_17 C5_17 1_555 1_555
C6_17 C5_17 1_555 1_555
H5_17 C6_17 1_555 1_555
C7_17 C6_17 1_555 1_555
C8_17 C7_17 1_555 1_555
H6_17 C8_17 1_555 1_555
C9_17 C4_17 1_555 1_555
H7_17 C9_17 1_555 1_555
Ag2_5 N3_13 1_555 1_555
C8_17 C9_17 1_555 1_555
Ag1_5 N1_9 1_555 1_555
N1_9 N2_17 1_555 1_555
N2_17 C15_17 1_555 1_555
C11_17 C10_17 1_555 1_555
C12_17 C11_17 1_555 1_555
C13_17 C12_17 1_555 1_555
H8_17 C13_17 1_555 1_555
C14_17 C13_17 1_555 1_555
H9_17 C14_17 1_555 1_555
C15_17 C14_17 1_555 1_555
C16_17 C15_17 1_555 1_555
H10_17 C16_17 1_555 1_555
C17_17 C12_17 1_555 1_555
H11_17 C17_17 1_555 1_555
C18_17 N1_9 1_555 1_555
H12_17 C18_17 1_555 1_555
C19_17 C18_17 1_555 1_555
H13_17 C19_17 1_555 1_555
C20_17 N2_17 1_555 1_555
H14_17 C20_17 1_555 1_555
N5_17 N6_17 1_555 1_555
N6_17 C33_17 1_555 1_555
N11_6 N8_17 1_555 1_555
N8_17 C23_17 1_555 1_555
C21_17 N11_6 1_555 1_555
H15_17 C21_17 1_555 1_555
C22_17 C21_17 1_555 1_555
H16_17 C22_17 1_555 1_555
C23_17 C22_17 1_555 1_555
H17_17 C23_17 1_555 1_555
C24_17 N8_17 1_555 1_555
C25_17 C24_17 1_555 1_555
H18_17 C25_17 1_555 1_555
C26_17 C25_17 1_555 1_555
C27_17 C10_17 1_555 1_555
C28_17 C27_17 1_555 1_555
H20_17 C28_17 1_555 1_555
C29_17 C24_17 1_555 1_555
H21_17 C29_17 1_555 1_555
C30_17 C11_17 1_555 1_555
C31_17 C30_17 1_555 1_555
H22_17 C31_17 1_555 1_555
C32_17 C31_17 1_555 1_555
H23_17 C32_17 1_555 1_555
C33_17 C32_17 1_555 1_555
C34_17 C33_17 1_555 1_555
H24_17 C34_17 1_555 1_555
C35_17 C30_17 1_555 1_555
H25_17 C35_17 1_555 1_555
C36_17 N5_17 1_555 1_555
H26_17 C36_17 1_555 1_555
C37_17 C36_17 1_555 1_555
H27_17 C37_17 1_555 1_555
C38_17 N6_17 1_555 1_555
H28_17 C38_17 1_555 1_555
Ag4_3 N5_17 1_555 1_555
N9_9 Ag1_5 1_555 1_555
N10_5 Ag1_5 1_555 1_555
N11_9 Ag1_5 1_555 1_555
C16_17 C17_17 1_555 1_555
C19_17 C20_17 1_555 1_555
C26_17 C27_17 1_555 1_555
C28_17 C29_17 1_555 1_555
C34_17 C35_17 1_555 1_555
C37_17 C38_17 1_555 1_555
C36_18 N5_18 1_555 1_555
H26_18 C36_18 1_555 1_555
Ag3 N5_18 1_555 1_555
Ag2_5 N1_10 1_555 1_555
N1_10 N2_18 1_555 1_555
N2_18 C15_18 1_555 1_555
C11_18 C10_18 1_555 1_555
C12_18 C11_18 1_555 1_555
C13_18 C12_18 1_555 1_555
H8_18 C13_18 1_555 1_555
C14_18 C13_18 1_555 1_555
H9_18 C14_18 1_555 1_555
C15_18 C14_18 1_555 1_555
C16_18 C15_18 1_555 1_555
H10_18 C16_18 1_555 1_555
C17_18 C12_18 1_555 1_555
H11_18 C17_18 1_555 1_555
C18_18 N1_10 1_555 1_555
H12_18 C18_18 1_555 1_555
C19_18 C18_18 1_555 1_555
H13_18 C19_18 1_555 1_555
C20_18 N2_18 1_555 1_555
H14_18 C20_18 1_555 1_555
N6_18 C33_18 1_555 1_555
N11_2 N8_18 1_555 1_555
N8_18 C23_18 1_555 1_555
C21_18 N11_2 1_555 1_555
H15_18 C21_18 1_555 1_555
C22_18 C21_18 1_555 1_555
C23_18 C22_18 1_555 1_555
H17_18 C23_18 1_555 1_555
C24_18 N8_18 1_555 1_555
C25_18 C24_18 1_555 1_555
H18_18 C25_18 1_555 1_555
C26_18 C25_18 1_555 1_555
C27_18 C10_18 1_555 1_555
C28_18 C27_18 1_555 1_555
H20_18 C28_18 1_555 1_555
C29_18 C24_18 1_555 1_555
H21_18 C29_18 1_555 1_555
C30_18 C11_18 1_555 1_555
C31_18 C30_18 1_555 1_555
H22_18 C31_18 1_555 1_555
C32_18 C31_18 1_555 1_555
C33_18 C32_18 1_555 1_555
C34_18 C33_18 1_555 1_555
H24_18 C34_18 1_555 1_555
C35_18 C30_18 1_555 1_555
H25_18 C35_18 1_555 1_555
H27_18 C37_18 1_555 1_555
C38_18 N6_18 1_555 1_555
H28_18 C38_18 1_555 1_555
N9_10 Ag2_5 1_555 1_555
N11_10 Ag2_5 1_555 1_555
C16_18 C17_18 1_555 1_555
C19_18 C20_18 1_555 1_555
C26_18 C27_18 1_555 1_555
C28_18 C29_18 1_555 1_555
C34_18 C35_18 1_555 1_555
C37_18 C38_18 1_555 1_555
N10_5 N4_18 1_555 1_555
N4_18 C3_18 1_555 1_555
C1_18 N10_5 1_555 1_555
H1_18 C1_18 1_555 1_555
C2_18 C1_18 1_555 1_555
H2_18 C2_18 1_555 1_555
C3_18 C2_18 1_555 1_555
H3_18 C3_18 1_555 1_555
C4_18 N4_18 1_555 1_555
C5_18 C4_18 1_555 1_555
H4_18 C5_18 1_555 1_555
C6_18 C5_18 1_555 1_555
H5_18 C6_18 1_555 1_555
C7_18 C6_18 1_555 1_555
C8_18 C7_18 1_555 1_555
H6_18 C8_18 1_555 1_555
C9_18 C4_18 1_555 1_555
H7_18 C9_18 1_555 1_555
C8_18 C9_18 1_555 1_555
N9_10 N2_19 1_555 1_555
N2_19 C15_19 1_555 1_555
N3_14 N4_19 1_555 1_555
N4_19 C3_19 1_555 1_555
C1_19 N3_14 1_555 1_555
H1_19 C1_19 1_555 1_555
C2_19 C1_19 1_555 1_555
H2_19 C2_19 1_555 1_555
C3_19 C2_19 1_555 1_555
H3_19 C3_19 1_555 1_555
C4_19 N4_19 1_555 1_555
C5_19 C4_19 1_555 1_555
H4_19 C5_19 1_555 1_555
C6_19 C5_19 1_555 1_555
H5_19 C6_19 1_555 1_555
C7_19 C6_19 1_555 1_555
C8_19 C7_19 1_555 1_555
H6_19 C8_19 1_555 1_555
C9_19 C4_19 1_555 1_555
H7_19 C9_19 1_555 1_555
C10_19 C7_19 1_555 1_555
C11_19 C10_19 1_555 1_555
C12_19 C11_19 1_555 1_555
C13_19 C12_19 1_555 1_555
H8_19 C13_19 1_555 1_555
C14_19 C13_19 1_555 1_555
H9_19 C14_19 1_555 1_555
C15_19 C14_19 1_555 1_555
C16_19 C15_19 1_555 1_555
H10_19 C16_19 1_555 1_555
C17_19 C12_19 1_555 1_555
H11_19 C17_19 1_555 1_555
C18_19 N9_10 1_555 1_555
H12_19 C18_19 1_555 1_555
C19_19 C18_19 1_555 1_555
H13_19 C19_19 1_555 1_555
C20_19 N2_19 1_555 1_555
H14_19 C20_19 1_555 1_555
N11_7 N8_19 1_555 1_555
N8_19 C23_19 1_555 1_555
C21_19 N11_7 1_555 1_555
H15_19 C21_19 1_555 1_555
C22_19 C21_19 1_555 1_555
H16_19 C22_19 1_555 1_555
C23_19 C22_19 1_555 1_555
H17_19 C23_19 1_555 1_555
C24_19 N8_19 1_555 1_555
C25_19 C24_19 1_555 1_555
H18_19 C25_19 1_555 1_555
C26_19 C25_19 1_555 1_555
H19_19 C26_19 1_555 1_555
C27_19 C10_19 1_555 1_555
C28_19 C27_19 1_555 1_555
H20_19 C28_19 1_555 1_555
C29_19 C24_19 1_555 1_555
H21_19 C29_19 1_555 1_555
C30_19 C11_19 1_555 1_555
C31_19 C30_19 1_555 1_555
H22_19 C31_19 1_555 1_555
C32_19 C31_19 1_555 1_555
H23_19 C32_19 1_555 1_555
C33_19 C32_19 1_555 1_555
C34_19 C33_19 1_555 1_555
H24_19 C34_19 1_555 1_555
C35_19 C30_19 1_555 1_555
H25_19 C35_19 1_555 1_555
Ag2_6 N3_14 1_555 1_555
C8_19 C9_19 1_555 1_555
C16_19 C17_19 1_555 1_555
C19_19 C20_19 1_555 1_555
C26_19 C27_19 1_555 1_555
C28_19 C29_19 1_555 1_555
C34_19 C35_19 1_555 1_555
N5_19 N6_19 1_555 1_555
C36_19 N5_19 1_555 1_555
H26_19 C36_19 1_555 1_555
C37_19 C36_19 1_555 1_555
H27_19 C37_19 1_555 1_555
C38_19 N6_19 1_555 1_555
H28_19 C38_19 1_555 1_555
C37_19 C38_19 1_555 1_555
Ag2_6 N1_11 1_555 1_555
N1_11 N2_20 1_555 1_555
N2_20 C15_20 1_555 1_555
N11_10 N4_20 1_555 1_555
N4_20 C3_20 1_555 1_555
C1_20 N11_10 1_555 1_555
H1_20 C1_20 1_555 1_555
C2_20 C1_20 1_555 1_555
H2_20 C2_20 1_555 1_555
C3_20 C2_20 1_555 1_555
H3_20 C3_20 1_555 1_555
C4_20 N4_20 1_555 1_555
C5_20 C4_20 1_555 1_555
H4_20 C5_20 1_555 1_555
C6_20 C5_20 1_555 1_555
H5_20 C6_20 1_555 1_555
C7_20 C6_20 1_555 1_555
C8_20 C7_20 1_555 1_555
H6_20 C8_20 1_555 1_555
C9_20 C4_20 1_555 1_555
H7_20 C9_20 1_555 1_555
C10_20 C7_20 1_555 1_555
C11_20 C10_20 1_555 1_555
C12_20 C11_20 1_555 1_555
C13_20 C12_20 1_555 1_555
H8_20 C13_20 1_555 1_555
C14_20 C13_20 1_555 1_555
H9_20 C14_20 1_555 1_555
C15_20 C14_20 1_555 1_555
C16_20 C15_20 1_555 1_555
H10_20 C16_20 1_555 1_555
C17_20 C12_20 1_555 1_555
H11_20 C17_20 1_555 1_555
C18_20 N1_11 1_555 1_555
H12_20 C18_20 1_555 1_555
C19_20 C18_20 1_555 1_555
H13_20 C19_20 1_555 1_555
C20_20 N2_20 1_555 1_555
H14_20 C20_20 1_555 1_555
N5_20 N6_20 1_555 1_555
N6_20 C33_20 1_555 1_555
N11_3 N8_20 1_555 1_555
N8_20 C23_20 1_555 1_555
C21_20 N11_3 1_555 1_555
H15_20 C21_20 1_555 1_555
C22_20 C21_20 1_555 1_555
H16_20 C22_20 1_555 1_555
C23_20 C22_20 1_555 1_555
H17_20 C23_20 1_555 1_555
C24_20 N8_20 1_555 1_555
C25_20 C24_20 1_555 1_555
H18_20 C25_20 1_555 1_555
C26_20 C25_20 1_555 1_555
H19_20 C26_20 1_555 1_555
C27_20 C10_20 1_555 1_555
C28_20 C27_20 1_555 1_555
H20_20 C28_20 1_555 1_555
C29_20 C24_20 1_555 1_555
H21_20 C29_20 1_555 1_555
C30_20 C11_20 1_555 1_555
C31_20 C30_20 1_555 1_555
H22_20 C31_20 1_555 1_555
C32_20 C31_20 1_555 1_555
H23_20 C32_20 1_555 1_555
C33_20 C32_20 1_555 1_555
C34_20 C33_20 1_555 1_555
H24_20 C34_20 1_555 1_555
C35_20 C30_20 1_555 1_555
H25_20 C35_20 1_555 1_555
C36_20 N5_20 1_555 1_555
H26_20 C36_20 1_555 1_555
C37_20 C36_20 1_555 1_555
H27_20 C37_20 1_555 1_555
C38_20 N6_20 1_555 1_555
H28_20 C38_20 1_555 1_555
Ag3_2 N5_20 1_555 1_555
N9_11 Ag2_6 1_555 1_555
N11_11 Ag2_6 1_555 1_555
C8_20 C9_20 1_555 1_555
C16_20 C17_20 1_555 1_555
C19_20 C20_20 1_555 1_555
C26_20 C27_20 1_555 1_555
C28_20 C29_20 1_555 1_555
C34_20 C35_20 1_555 1_555
C37_20 C38_20 1_555 1_555
N9_12 Ag3_3 1_555 1_555
N9_14 Ag4 1_555 1_555
N9_15 Ag4_2 1_555 1_555
C18_21 N9_14 1_555 1_555
H12_21 C18_21 1_555 1_555
N2_21 C15_21 1_555 1_555
N11_8 N4_21 1_555 1_555
N4_21 C3_21 1_555 1_555
C1_21 N11_8 1_555 1_555
H1_21 C1_21 1_555 1_555
C2_21 C1_21 1_555 1_555
C3_21 C2_21 1_555 1_555
H3_21 C3_21 1_555 1_555
C4_21 N4_21 1_555 1_555
C5_21 C4_21 1_555 1_555
H4_21 C5_21 1_555 1_555
C6_21 C5_21 1_555 1_555
H5_21 C6_21 1_555 1_555
C7_21 C6_21 1_555 1_555
C8_21 C7_21 1_555 1_555
H6_21 C8_21 1_555 1_555
C9_21 C4_21 1_555 1_555
H7_21 C9_21 1_555 1_555
C10_21 C7_21 1_555 1_555
C11_21 C10_21 1_555 1_555
C12_21 C11_21 1_555 1_555
C13_21 C12_21 1_555 1_555
H8_21 C13_21 1_555 1_555
C14_21 C13_21 1_555 1_555
C15_21 C14_21 1_555 1_555
C16_21 C15_21 1_555 1_555
H10_21 C16_21 1_555 1_555
C17_21 C12_21 1_555 1_555
H11_21 C17_21 1_555 1_555
H13_21 C19_21 1_555 1_555
C20_21 N2_21 1_555 1_555
H14_21 C20_21 1_555 1_555
N9_11 N6_21 1_555 1_555
N6_21 C33_21 1_555 1_555
N7_17 N8_21 1_555 1_555
N8_21 C23_21 1_555 1_555
C21_21 N7_17 1_555 1_555
H15_21 C21_21 1_555 1_555
C22_21 C21_21 1_555 1_555
H16_21 C22_21 1_555 1_555
C23_21 C22_21 1_555 1_555
H17_21 C23_21 1_555 1_555
C24_21 N8_21 1_555 1_555
C25_21 C24_21 1_555 1_555
H18_21 C25_21 1_555 1_555
C26_21 C25_21 1_555 1_555
H19_21 C26_21 1_555 1_555
C27_21 C10_21 1_555 1_555
C28_21 C27_21 1_555 1_555
H20_21 C28_21 1_555 1_555
C29_21 C24_21 1_555 1_555
H21_21 C29_21 1_555 1_555
C30_21 C11_21 1_555 1_555
C31_21 C30_21 1_555 1_555
H22_21 C31_21 1_555 1_555
C32_21 C31_21 1_555 1_555
H23_21 C32_21 1_555 1_555
C33_21 C32_21 1_555 1_555
C34_21 C33_21 1_555 1_555
H24_21 C34_21 1_555 1_555
C35_21 C30_21 1_555 1_555
H25_21 C35_21 1_555 1_555
C36_21 N9_11 1_555 1_555
H26_21 C36_21 1_555 1_555
C37_21 C36_21 1_555 1_555
H27_21 C37_21 1_555 1_555
C38_21 N6_21 1_555 1_555
H28_21 C38_21 1_555 1_555
Ag3_8 N7_17 1_555 1_555
C8_21 C9_21 1_555 1_555
C16_21 C17_21 1_555 1_555
C19_21 C20_21 1_555 1_555
C26_21 C27_21 1_555 1_555
C28_21 C29_21 1_555 1_555
C34_21 C35_21 1_555 1_555
C37_21 C38_21 1_555 1_555
N11_5 N4_22 1_555 1_555
N4_22 C3_22 1_555 1_555
C1_22 N11_5 1_555 1_555
H1_22 C1_22 1_555 1_555
C2_22 C1_22 1_555 1_555
H2_22 C2_22 1_555 1_555
C3_22 C2_22 1_555 1_555
H3_22 C3_22 1_555 1_555
C4_22 N4_22 1_555 1_555
C5_22 C4_22 1_555 1_555
H4_22 C5_22 1_555 1_555
C6_22 C5_22 1_555 1_555
H5_22 C6_22 1_555 1_555
C7_22 C6_22 1_555 1_555
C8_22 C7_22 1_555 1_555
H6_22 C8_22 1_555 1_555
C9_22 C4_22 1_555 1_555
H7_22 C9_22 1_555 1_555
C8_22 C9_22 1_555 1_555
N9_15 N2_22 1_555 1_555
N2_22 C15_22 1_555 1_555
C11_22 C10_22 1_555 1_555
C12_22 C11_22 1_555 1_555
C13_22 C12_22 1_555 1_555
H8_22 C13_22 1_555 1_555
C14_22 C13_22 1_555 1_555
H9_22 C14_22 1_555 1_555
C15_22 C14_22 1_555 1_555
C16_22 C15_22 1_555 1_555
H10_22 C16_22 1_555 1_555
C17_22 C12_22 1_555 1_555
H11_22 C17_22 1_555 1_555
C18_22 N9_15 1_555 1_555
H12_22 C18_22 1_555 1_555
C19_22 C18_22 1_555 1_555
H13_22 C19_22 1_555 1_555
C20_22 N2_22 1_555 1_555
H14_22 C20_22 1_555 1_555
N5_21 N6_22 1_555 1_555
N6_22 C33_22 1_555 1_555
N11_9 N8_22 1_555 1_555
N8_22 C23_22 1_555 1_555
C21_22 N11_9 1_555 1_555
H15_22 C21_22 1_555 1_555
C22_22 C21_22 1_555 1_555
H16_22 C22_22 1_555 1_555
C23_22 C22_22 1_555 1_555
H17_22 C23_22 1_555 1_555
C24_22 N8_22 1_555 1_555
C25_22 C24_22 1_555 1_555
H18_22 C25_22 1_555 1_555
C26_22 C25_22 1_555 1_555
C27_22 C10_22 1_555 1_555
C28_22 C27_22 1_555 1_555
H20_22 C28_22 1_555 1_555
C29_22 C24_22 1_555 1_555
H21_22 C29_22 1_555 1_555
C30_22 C11_22 1_555 1_555
C31_22 C30_22 1_555 1_555
H22_22 C31_22 1_555 1_555
C32_22 C31_22 1_555 1_555
H23_22 C32_22 1_555 1_555
C33_22 C32_22 1_555 1_555
C34_22 C33_22 1_555 1_555
H24_22 C34_22 1_555 1_555
C35_22 C30_22 1_555 1_555
H25_22 C35_22 1_555 1_555
C36_22 N5_21 1_555 1_555
H26_22 C36_22 1_555 1_555
C37_22 C36_22 1_555 1_555
H27_22 C37_22 1_555 1_555
C38_22 N6_22 1_555 1_555
H28_22 C38_22 1_555 1_555
Ag3_8 N5_21 1_555 1_555
C16_22 C17_22 1_555 1_555
C19_22 C20_22 1_555 1_555
C26_22 C27_22 1_555 1_555
C28_22 C29_22 1_555 1_555
C34_22 C35_22 1_555 1_555
C37_22 C38_22 1_555 1_555
N9_12 N2_23 1_555 1_555
N2_23 C15_23 1_555 1_555
N11_4 N4_23 1_555 1_555
N4_23 C3_23 1_555 1_555
C1_23 N11_4 1_555 1_555
H1_23 C1_23 1_555 1_555
C2_23 C1_23 1_555 1_555
H2_23 C2_23 1_555 1_555
C3_23 C2_23 1_555 1_555
H3_23 C3_23 1_555 1_555
C4_23 N4_23 1_555 1_555
C5_23 C4_23 1_555 1_555
H4_23 C5_23 1_555 1_555
C6_23 C5_23 1_555 1_555
H5_23 C6_23 1_555 1_555
C7_23 C6_23 1_555 1_555
C8_23 C7_23 1_555 1_555
H6_23 C8_23 1_555 1_555
C9_23 C4_23 1_555 1_555
H7_23 C9_23 1_555 1_555
C10_23 C7_23 1_555 1_555
C11_23 C10_23 1_555 1_555
C12_23 C11_23 1_555 1_555
C13_23 C12_23 1_555 1_555
H8_23 C13_23 1_555 1_555
C14_23 C13_23 1_555 1_555
H9_23 C14_23 1_555 1_555
C15_23 C14_23 1_555 1_555
C16_23 C15_23 1_555 1_555
H10_23 C16_23 1_555 1_555
C17_23 C12_23 1_555 1_555
H11_23 C17_23 1_555 1_555
C18_23 N9_12 1_555 1_555
H12_23 C18_23 1_555 1_555
C19_23 C18_23 1_555 1_555
H13_23 C19_23 1_555 1_555
C20_23 N2_23 1_555 1_555
H14_23 C20_23 1_555 1_555
N5_22 N6_23 1_555 1_555
N6_23 C33_23 1_555 1_555
N11_11 N8_23 1_555 1_555
N8_23 C23_23 1_555 1_555
C21_23 N11_11 1_555 1_555
H15_23 C21_23 1_555 1_555
C22_23 C21_23 1_555 1_555
H16_23 C22_23 1_555 1_555
C23_23 C22_23 1_555 1_555
H17_23 C23_23 1_555 1_555
C24_23 N8_23 1_555 1_555
C25_23 C24_23 1_555 1_555
H18_23 C25_23 1_555 1_555
C26_23 C25_23 1_555 1_555
H19_23 C26_23 1_555 1_555
C27_23 C10_23 1_555 1_555
C28_23 C27_23 1_555 1_555
H20_23 C28_23 1_555 1_555
C29_23 C24_23 1_555 1_555
H21_23 C29_23 1_555 1_555
C30_23 C11_23 1_555 1_555
C31_23 C30_23 1_555 1_555
H22_23 C31_23 1_555 1_555
C32_23 C31_23 1_555 1_555
H23_23 C32_23 1_555 1_555
C33_23 C32_23 1_555 1_555
C34_23 C33_23 1_555 1_555
H24_23 C34_23 1_555 1_555
C35_23 C30_23 1_555 1_555
H25_23 C35_23 1_555 1_555
C36_23 N5_22 1_555 1_555
H26_23 C36_23 1_555 1_555
C37_23 C36_23 1_555 1_555
H27_23 C37_23 1_555 1_555
C38_23 N6_23 1_555 1_555
H28_23 C38_23 1_555 1_555
Ag3_8 N5_22 1_555 1_555
C8_23 C9_23 1_555 1_555
C16_23 C17_23 1_555 1_555
C19_23 C20_23 1_555 1_555
C26_23 C27_23 1_555 1_555
C28_23 C29_23 1_555 1_555
C34_23 C35_23 1_555 1_555
C37_23 C38_23 1_555 1_555
N11 N4_24 1_555 1_555
N4_24 C3_24 1_555 1_555
C1_24 N11 1_555 1_555
H1_24 C1_24 1_555 1_555
C2_24 C1_24 1_555 1_555
H2_24 C2_24 1_555 1_555
C3_24 C2_24 1_555 1_555
H3_24 C3_24 1_555 1_555
C4_24 N4_24 1_555 1_555
C5_24 C4_24 1_555 1_555
H4_24 C5_24 1_555 1_555
C6_24 C5_24 1_555 1_555
H5_24 C6_24 1_555 1_555
C7_24 C6_24 1_555 1_555
C8_24 C7_24 1_555 1_555
H6_24 C8_24 1_555 1_555
C9_24 C4_24 1_555 1_555
H7_24 C9_24 1_555 1_555
C8_24 C9_24 1_555 1_555
N9_13 N2_24 1_555 1_555
C18_24 N9_13 1_555 1_555
H12_24 C18_24 1_555 1_555
C19_24 C18_24 1_555 1_555
H13_24 C19_24 1_555 1_555
C20_24 N2_24 1_555 1_555
H14_24 C20_24 1_555 1_555
C19_24 C20_24 1_555 1_555
C11_24 C10_24 1_555 1_555
C12_24 C11_24 1_555 1_555
C13_24 C12_24 1_555 1_555
H8_24 C13_24 1_555 1_555
C14_24 C13_24 1_555 1_555
H9_24 C14_24 1_555 1_555
C15_24 C14_24 1_555 1_555
C16_24 C15_24 1_555 1_555
H10_24 C16_24 1_555 1_555
C17_24 C12_24 1_555 1_555
H11_24 C17_24 1_555 1_555
N9_9 N6_24 1_555 1_555
N6_24 C33_24 1_555 1_555
N7_18 N8_24 1_555 1_555
N8_24 C23_24 1_555 1_555
C21_24 N7_18 1_555 1_555
H15_24 C21_24 1_555 1_555
C22_24 C21_24 1_555 1_555
H16_24 C22_24 1_555 1_555
C23_24 C22_24 1_555 1_555
H17_24 C23_24 1_555 1_555
C24_24 N8_24 1_555 1_555
C25_24 C24_24 1_555 1_555
H18_24 C25_24 1_555 1_555
C26_24 C25_24 1_555 1_555
C27_24 C10_24 1_555 1_555
C28_24 C27_24 1_555 1_555
H20_24 C28_24 1_555 1_555
C29_24 C24_24 1_555 1_555
H21_24 C29_24 1_555 1_555
C30_24 C11_24 1_555 1_555
C31_24 C30_24 1_555 1_555
H22_24 C31_24 1_555 1_555
C32_24 C31_24 1_555 1_555
H23_24 C32_24 1_555 1_555
C33_24 C32_24 1_555 1_555
C34_24 C33_24 1_555 1_555
H24_24 C34_24 1_555 1_555
C35_24 C30_24 1_555 1_555
H25_24 C35_24 1_555 1_555
C36_24 N9_9 1_555 1_555
H26_24 C36_24 1_555 1_555
C37_24 C36_24 1_555 1_555
H27_24 C37_24 1_555 1_555
C38_24 N6_24 1_555 1_555
H28_24 C38_24 1_555 1_555
Ag3_8 N7_18 1_555 1_555
C16_24 C17_24 1_555 1_555
C26_24 C27_24 1_555 1_555
C28_24 C29_24 1_555 1_555
C34_24 C35_24 1_555 1_555
C37_24 C38_24 1_555 1_555
O1 N12 1_555 1_555
N12 O2 1_555 1_555
O3 N12 1_555 1_555
O1_2 N12_2 1_555 1_555
N12_2 O2_2 1_555 1_555
O3_2 N12_2 1_555 1_555
O1_3 N12_3 1_555 1_555
N12_3 O2_3 1_555 1_555
O3_3 N12_3 1_555 1_555
O1_4 N12_4 1_555 1_555
N12_4 O2_4 1_555 1_555
O3_4 N12_4 1_555 1_555
O1_5 N12_5 1_555 1_555
N12_5 O2_5 1_555 1_555
O3_5 N12_5 1_555 1_555
O1_6 N12_6 1_555 1_555
N12_6 O2_6 1_555 1_555
O3_6 N12_6 1_555 1_555
O1_7 N12_7 1_555 1_555
N12_7 O2_7 1_555 1_555
O3_7 N12_7 1_555 1_555
O1_8 N12_8 1_555 1_555
N12_8 O2_8 1_555 1_555
O3_8 N12_8 1_555 1_555
O1_9 N12_9 1_555 1_555
N12_9 O2_9 1_555 1_555
O3_9 N12_9 1_555 1_555
O1_10 N12_10 1_555 1_555
N12_10 O2_10 1_555 1_555
O3_10 N12_10 1_555 1_555
O1_11 N12_11 1_555 1_555
N12_11 O2_11 1_555 1_555
O3_11 N12_11 1_555 1_555
O1_12 N12_12 1_555 1_555
N12_12 O2_12 1_555 1_555
O3_12 N12_12 1_555 1_555
O1_13 N12_13 1_555 1_555
N12_13 O2_13 1_555 1_555
O3_13 N12_13 1_555 1_555
O1_14 N12_14 1_555 1_555
N12_14 O2_14 1_555 1_555
O3_14 N12_14 1_555 1_555
O1_15 N12_15 1_555 1_555
N12_15 O2_15 1_555 1_555
O3_15 N12_15 1_555 1_555
O1_16 N12_16 1_555 1_555
N12_16 O2_16 1_555 1_555
O3_16 N12_16 1_555 1_555

#END
