
###############################################################################
#
# This file contains modified crystal structure data generated from the
# MOF subset of the Cambridge Structural Database (CSD) v543 
# hosted by the Cambridge Crystallographic Data Centre (CCDC).
#
# This work is licensed under the Creative Commons
# Attribution-NonCommercial-ShareAlike 4.0 International License.
# To view a copy of this license, visit
# http://creativecommons.org/licenses/by-nc-sa/4.0/
# or send a letter to
# Creative Commons, PO Box 1866, Mountain View, CA 94042, USA.
#
# CIF created using the CSD Python API on 29 September 2022
# The structure has been converted into the P1 space group
# The structure has a 3D framework
# The original CSD entry ELUJAY is in the orthorhombic crystal system
# The framework has been calculated to contain at least 10.0% void space
# The void calculation uses a probe of radius 1.32A, grid spacing 0.4
#
###############################################################################

data_ELUJAY
_chemical_formula_moiety         '(C128 H80 N16 O76 Sm8 Zn4)n'
_symmetry_cell_setting           triclinic
_symmetry_space_group_name_H-M   'P 1'
_symmetry_Int_Tables_number      1
_space_group_name_Hall           'P 1'
loop_
_symmetry_equiv_pos_site_id
_symmetry_equiv_pos_as_xyz
1 x,y,z
_cell_length_a                   13.390(3)
_cell_length_b                   24.074(5)
_cell_length_c                   13.179(3)
_cell_angle_alpha                90
_cell_angle_beta                 90
_cell_angle_gamma                90
_cell_volume                     4248.26
loop_
_atom_site_label
_atom_site_type_symbol
_atom_site_fract_x
_atom_site_fract_y
_atom_site_fract_z
Sm6 Sm 0.05892(4) 0.34298(2) 0.61653(10)
Zn2 Zn 0.0000 0.5000 0.6179(3)
O1 O 0.2986(9) 0.1124(5) 0.2086(10)
O2 O 0.4325(8) 0.0612(6) 0.2118(11)
C1 C 0.3413(12) 0.0699(8) 0.2315(12)
C12 C 0.2834(11) 0.0273(6) 0.2890(12)
C15 C 0.1793(10) 0.0268(6) 0.2887(12)
H10 H 0.1437 0.0550 0.2567
Sm2 Sm 0.44108(4) 0.15702(2) 0.11653(10)
O19 O 0.4722(12) 0.1803(5) 0.2873(10)
H17 H 0.4199 0.1745 0.3222
H18 H 0.4883 0.2144 0.2912
Zn4 Zn 0.5000 0.0000 0.1179(3)
Zn6 Zn 0.5000 0.0000 0.6179(3)
O25 O 0.5130(8) 0.2612(4) 0.1259(12)
O26 O 0.3536(8) 0.2426(4) 0.1103(14)
O28 O 0.5992(7) 0.1221(3) 0.1150(12)
O31 O 0.4289(9) 0.0745(5) 0.0005(10)
O20 O 0.4943(12) 0.1910(6) 0.9518(10)
H19 H 0.4974 0.2263 0.9532
H20 H 0.4526 0.1808 0.9069
O30 O 0.3026(8) 0.1364(5) 0.9961(10)
Sm1 Sm 0.44108(4) 0.84298(2) 0.61653(10)
O3 O 0.5130(8) 0.7388(4) 0.6259(12)
O4 O 0.3536(8) 0.7574(4) 0.6103(14)
C2 C 0.3355(11) 0.5523(6) 0.5845(12)
H1 H 0.3159 0.5158 0.5729
C3 C 0.3971(10) 0.6615(5) 0.6098(19)
C4 C 0.2631(10) 0.5933(6) 0.5966(14)
C5 C 0.2986(12) 0.6476(6) 0.6043(13)
H2 H 0.2519 0.6762 0.6058
O5 O 0.1313(7) 0.5323(4) 0.5880(8)
C6 C 0.1565(10) 0.5816(5) 0.5998(13)
C7 C 0.4690(11) 0.6192(5) 0.6031(15)
H3 H 0.5366 0.6277 0.6077
O6 O 0.4722(12) 0.8197(5) 0.7873(10)
H4 H 0.4199 0.8255 0.8222
H5 H 0.4883 0.7856 0.7912
O7 O 0.4943(12) 0.8090(6) 0.4518(10)
H6 H 0.4974 0.7737 0.4532
H7 H 0.4526 0.8192 0.4069
C8 C 0.4392(8) 0.5656(7) 0.5897(12)
C9 C 0.4268(11) 0.7230(6) 0.6215(18)
C10 C 0.3406(11) 0.9095(8) 0.4673(12)
C11 C 0.3381(9) 0.9889(7) 0.3485(10)
H8 H 0.4073 0.9910 0.3533
O8 O 0.0992(7) 0.6221(3) 0.6150(12)
N1 N 0.5152(9) 0.5239(5) 0.5850(9)
C13 C 0.2843(10) 0.9476(6) 0.4002(13)
O9 O 0.3026(8) 0.8636(5) 0.4961(10)
O10 O 0.4289(9) 0.9255(5) 0.5005(10)
C14 C 0.1792(10) 0.9434(7) 0.3904(13)
H9 H 0.1451 0.9138 0.4198
C16 C 0.1287(9) 0.9828(6) 0.3377(11)
N2 N 0.0241(10) 0.9769(5) 0.3363(11)
O15 O 0.4870(8) 0.2612(4) 0.6259(12)
O16 O 0.6464(8) 0.2426(4) 0.6103(14)
C25 C 0.6645(11) 0.4477(6) 0.5845(12)
H14 H 0.6841 0.4842 0.5729
C26 C 0.6029(10) 0.3385(5) 0.6098(19)
C27 C 0.7369(10) 0.4067(6) 0.5966(14)
C28 C 0.7014(12) 0.3524(6) 0.6043(13)
H15 H 0.7481 0.3238 0.6058
O17 O 0.8687(7) 0.4677(4) 0.5880(8)
C29 C 0.8435(10) 0.4184(5) 0.5998(13)
C30 C 0.5310(11) 0.3808(5) 0.6031(15)
H16 H 0.4634 0.3723 0.6077
C31 C 0.5608(8) 0.4344(7) 0.5897(12)
C32 C 0.5732(11) 0.2770(6) 0.6215(18)
O18 O 0.9008(7) 0.3779(3) 0.6150(12)
N4 N 0.4848(9) 0.4761(5) 0.5850(9)
O21 O 0.2986(9) 0.8876(5) 0.7086(10)
O22 O 0.4325(8) 0.9388(6) 0.7118(11)
O24 O 0.0675(8) 0.4388(6) 0.7118(11)
Sm4 Sm 0.55892(4) 0.15702(2) 0.61653(10)
Zn2_2 Zn 1.0000 0.5000 0.6179(3)
Zn4_2 Zn 0.5000 1.0000 0.1179(3)
Zn6_2 Zn 0.5000 1.0000 0.6179(3)
O29 O 0.5992(7) 0.8779(3) 0.6150(12)
O32 O 0.0711(9) 0.4255(5) 0.5005(10)
C18 C 0.6594(11) 0.0905(8) 0.4673(12)
C19 C 0.6619(9) 0.0111(7) 0.3485(10)
H11 H 0.5927 0.0090 0.3533
C21 C 0.7157(10) 0.0524(6) 0.4002(13)
O13 O 0.6974(8) 0.1364(5) 0.4961(10)
O14 O 0.5711(9) 0.0745(5) 0.5005(10)
C22 C 0.8208(10) 0.0566(7) 0.3904(13)
H12 H 0.8549 0.0862 0.4198
C24 C 0.8713(9) 0.0172(6) 0.3377(11)
N3 N 0.9759(10) 0.0231(5) 0.3363(11)
O11 O 0.7014(9) 0.8876(5) 0.2086(10)
O12 O 0.5675(8) 0.9388(6) 0.2118(11)
C17 C 0.6587(12) 0.9301(8) 0.2315(12)
C20 C 0.7166(11) 0.9727(6) 0.2890(12)
C23 C 0.8207(10) 0.9732(6) 0.2887(12)
H13 H 0.8563 0.9450 0.2567
O23 O 0.9325(8) 0.5612(6) 0.7118(11)
Sm5 Sm 0.55892(4) 0.84298(2) 0.11653(10)
Sm7 Sm 0.94108(4) 0.65702(2) 0.61653(10)
O33 O 0.9289(9) 0.5745(5) 0.5005(10)
O6_2 O 0.5278(12) 0.1803(5) 0.7873(10)
H4_2 H 0.5801 0.1745 0.8222
H5_2 H 0.5117 0.2144 0.7912
O7_2 O 0.5057(12) 0.1910(6) 0.4518(10)
H6_2 H 0.5026 0.2263 0.4532
H7_2 H 0.5474 0.1808 0.4069
O21_2 O 0.7014(9) 0.1124(5) 0.7086(10)
O22_2 O 0.5675(8) 0.0612(6) 0.7118(11)
O29_2 O 0.4008(7) 0.1221(3) 0.6150(12)
O19_2 O 0.5278(12) 0.8197(5) 0.2873(10)
H17_2 H 0.5801 0.8255 0.3222
H18_2 H 0.5117 0.7856 0.2912
O25_2 O 0.4870(8) 0.7388(4) 0.1259(12)
O26_2 O 0.6464(8) 0.7574(4) 0.1103(14)
O28_2 O 0.4008(7) 0.8779(3) 0.1150(12)
O31_2 O 0.5711(9) 0.9255(5) 0.0005(10)
O20_2 O 0.5057(12) 0.8090(6) 0.9518(10)
H19_2 H 0.5026 0.7737 0.9532
H20_2 H 0.5474 0.8192 0.9069
O30_2 O 0.6974(8) 0.8636(5) 0.9961(10)
C18_2 C 0.3406(11) 0.0905(8) 0.9673(12)
C19_2 C 0.3381(9) 0.0111(7) 0.8485(10)
H11_2 H 0.4073 0.0090 0.8533
C21_2 C 0.2843(10) 0.0524(6) 0.9002(13)
C22_2 C 0.1792(10) 0.0566(7) 0.8904(13)
H12_2 H 0.1451 0.0862 0.9198
C24_2 C 0.1287(9) 0.0172(6) 0.8377(11)
N3_2 N 0.0241(10) 0.0231(5) 0.8363(11)
Zn1 Zn 0.0000 0.5000 0.1179(3)
O23_2 O 0.0675(8) 0.5612(6) 0.2118(11)
Sm7_2 Sm 0.05892(4) 0.65702(2) 0.11653(10)
O27 O 0.1313(7) 0.4677(4) 0.0880(8)
O33_2 O 0.0711(9) 0.5745(5) 0.0005(10)
C17_2 C 0.3413(12) 0.9301(8) 0.7315(12)
C20_2 C 0.2834(11) 0.9727(6) 0.7890(12)
C23_2 C 0.1793(10) 0.9732(6) 0.7887(12)
H13_2 H 0.1437 0.9450 0.7567
C1_2 C 0.6587(12) 0.0699(8) 0.7315(12)
C12_2 C 0.7166(11) 0.0273(6) 0.7890(12)
C15_2 C 0.8207(10) 0.0268(6) 0.7887(12)
H10_2 H 0.8563 0.0550 0.7567
Zn1_2 Zn 1.0000 0.5000 0.1179(3)
C2_2 C 0.6645(11) 0.5523(6) 0.0845(12)
H1_2 H 0.6841 0.5158 0.0729
C3_2 C 0.6029(10) 0.6615(5) 0.1098(19)
C4_2 C 0.7369(10) 0.5933(6) 0.0966(14)
C5_2 C 0.7014(12) 0.6476(6) 0.1043(13)
H2_2 H 0.7481 0.6762 0.1058
O5_2 O 0.8687(7) 0.5323(4) 0.0880(8)
C6_2 C 0.8435(10) 0.5816(5) 0.0998(13)
C7_2 C 0.5310(11) 0.6192(5) 0.1031(15)
H3_2 H 0.4634 0.6277 0.1077
C8_2 C 0.5608(8) 0.5656(7) 0.0897(12)
C9_2 C 0.5732(11) 0.7230(6) 0.1215(18)
O8_2 O 0.9008(7) 0.6221(3) 0.1150(12)
N1_2 N 0.4848(9) 0.5239(5) 0.0850(9)
C25_2 C 0.3355(11) 0.4477(6) 0.0845(12)
H14_2 H 0.3159 0.4842 0.0729
C26_2 C 0.3971(10) 0.3385(5) 0.1098(19)
C27_2 C 0.2631(10) 0.4067(6) 0.0966(14)
C28_2 C 0.2986(12) 0.3524(6) 0.1043(13)
H15_2 H 0.2519 0.3238 0.1058
C29_2 C 0.1565(10) 0.4184(5) 0.0998(13)
C30_2 C 0.4690(11) 0.3808(5) 0.1031(15)
H16_2 H 0.5366 0.3723 0.1077
C31_2 C 0.4392(8) 0.4344(7) 0.0897(12)
C32_2 C 0.4268(11) 0.2770(6) 0.1215(18)
O18_2 O 0.0992(7) 0.3779(3) 0.1150(12)
N4_2 N 0.5152(9) 0.4761(5) 0.0850(9)
O24_2 O 0.9325(8) 0.4388(6) 0.2118(11)
O32_2 O 0.9289(9) 0.4255(5) 0.0005(10)
C10_2 C 0.6594(11) 0.9095(8) 0.9673(12)
C11_2 C 0.6619(9) 0.9889(7) 0.8485(10)
H8_2 H 0.5927 0.9910 0.8533
C13_2 C 0.7157(10) 0.9476(6) 0.9002(13)
C14_2 C 0.8208(10) 0.9434(7) 0.8904(13)
H9_2 H 0.8549 0.9138 0.9198
C16_2 C 0.8713(9) 0.9828(6) 0.8377(11)
N2_2 N 0.9759(10) 0.9769(5) 0.8363(11)
Sm6_2 Sm 0.94108(4) 0.34298(2) 0.11653(10)
O3_2 O 0.0130(8) 0.2388(4) 0.1259(12)
H3_3 H 0.0366 0.1277 0.1077
N1_3 N 0.0152(9) 0.0239(5) 0.0850(9)
O25_3 O 0.0130(8) 0.7612(4) 0.6259(12)
O16_2 O 0.1464(8) 0.7426(4) 0.1103(14)
C25_3 C 0.1645(11) 0.9477(6) 0.0845(12)
H14_3 H 0.1841 0.9842 0.0729
C26_3 C 0.1029(10) 0.8385(5) 0.1098(19)
C27_3 C 0.2369(10) 0.9067(6) 0.0966(14)
C28_3 C 0.2014(12) 0.8524(6) 0.1043(13)
H15_3 H 0.2481 0.8238 0.1058
O17_2 O 0.3687(7) 0.9677(4) 0.0880(8)
C29_3 C 0.3435(10) 0.9184(5) 0.0998(13)
C30_3 C 0.0310(11) 0.8808(5) 0.1031(15)
C31_3 C 0.0608(8) 0.9344(7) 0.0897(12)
C32_3 C 0.0732(11) 0.7770(6) 0.1215(18)
O4_2 O 0.8536(8) 0.2574(4) 0.1103(14)
C2_3 C 0.8355(11) 0.0523(6) 0.0845(12)
H1_3 H 0.8159 0.0158 0.0729
C3_3 C 0.8971(10) 0.1615(5) 0.1098(19)
C4_3 C 0.7631(10) 0.0933(6) 0.0966(14)
C5_3 C 0.7986(12) 0.1476(6) 0.1043(13)
H2_3 H 0.7519 0.1762 0.1058
O5_3 O 0.6313(7) 0.0323(4) 0.0880(8)
C6_3 C 0.6565(10) 0.0816(5) 0.0998(13)
C7_3 C 0.9690(11) 0.1192(5) 0.1031(15)
O6_3 O 0.9722(12) 0.3197(5) 0.2873(10)
H4_3 H 0.9199 0.3255 0.3222
H5_3 H 0.9883 0.2856 0.2912
C8_3 C 0.9392(8) 0.0656(7) 0.0897(12)
C9_3 C 0.9268(11) 0.2230(6) 0.1215(18)
O21_3 O 0.7986(9) 0.3876(5) 0.2086(10)
O1_2 O 0.7986(9) 0.6124(5) 0.7086(10)
C1_3 C 0.8413(12) 0.5699(8) 0.7315(12)
O7_3 O 0.9943(12) 0.3090(6) 0.9518(10)
H6_3 H 0.9974 0.2737 0.9532
H7_3 H 0.9526 0.3192 0.9069
C10_3 C 0.8406(11) 0.4095(8) 0.9673(12)
C11_3 C 0.8381(9) 0.4889(7) 0.8485(10)
H8_3 H 0.9073 0.4910 0.8533
C12_3 C 0.7834(11) 0.5273(6) 0.7890(12)
C13_3 C 0.7843(10) 0.4476(6) 0.9002(13)
O9_2 O 0.8026(8) 0.3636(5) 0.9961(10)
C14_3 C 0.6792(10) 0.4434(7) 0.8904(13)
H9_3 H 0.6451 0.4138 0.9198
C15_3 C 0.6793(10) 0.5268(6) 0.7887(12)
H10_3 H 0.6437 0.5550 0.7567
C16_3 C 0.6287(9) 0.4828(6) 0.8377(11)
N2_3 N 0.5241(10) 0.4769(5) 0.8363(11)
O11_2 O 0.2014(9) 0.3876(5) 0.7086(10)
C17_3 C 0.1587(12) 0.4301(8) 0.7315(12)
C18_3 C 0.1594(11) 0.5905(8) 0.9673(12)
C19_3 C 0.1619(9) 0.5111(7) 0.8485(10)
H11_3 H 0.0927 0.5090 0.8533
C20_3 C 0.2166(11) 0.4727(6) 0.7890(12)
C21_3 C 0.2157(10) 0.5524(6) 0.9002(13)
O13_2 O 0.1974(8) 0.6364(5) 0.9961(10)
C22_3 C 0.3208(10) 0.5566(7) 0.8904(13)
H12_3 H 0.3549 0.5862 0.9198
C23_3 C 0.3207(10) 0.4732(6) 0.7887(12)
H13_3 H 0.3563 0.4450 0.7567
C24_3 C 0.3713(9) 0.5172(6) 0.8377(11)
N3_3 N 0.4759(10) 0.5231(5) 0.8363(11)
O19_3 O 0.9722(12) 0.6803(5) 0.7873(10)
H17_3 H 0.9199 0.6745 0.8222
H18_3 H 0.9883 0.7144 0.7912
O20_3 O 0.9943(12) 0.6910(6) 0.4518(10)
H19_3 H 0.9974 0.7263 0.4532
H20_3 H 0.9526 0.6808 0.4069
O26_3 O 0.8536(8) 0.7426(4) 0.6103(14)
O30_3 O 0.8026(8) 0.6364(5) 0.4961(10)
O15_2 O 0.9870(8) 0.7612(4) 0.1259(12)
H16_3 H 0.9634 0.8723 0.1077
N4_3 N 0.9848(9) 0.9761(5) 0.0850(9)
O6_4 O 0.0278(12) 0.6803(5) 0.2873(10)
H4_4 H 0.0801 0.6745 0.3222
H5_4 H 0.0117 0.7144 0.2912
O21_4 O 0.2014(9) 0.6124(5) 0.2086(10)
O7_4 O 0.0057(12) 0.6910(6) 0.9518(10)
H6_4 H 0.0026 0.7263 0.9532
H7_4 H 0.0474 0.6808 0.9069
O19_4 O 0.0278(12) 0.3197(5) 0.7873(10)
H17_4 H 0.0801 0.3255 0.8222
H18_4 H 0.0117 0.2856 0.7912
O20_4 O 0.0057(12) 0.3090(6) 0.4518(10)
H19_4 H 0.0026 0.2737 0.4532
H20_4 H 0.0474 0.3192 0.4069
O26_4 O 0.1464(8) 0.2574(4) 0.6103(14)
O30_4 O 0.1974(8) 0.3636(5) 0.4961(10)
O25_4 O 0.9870(8) 0.2388(4) 0.6259(12)
C1_4 C 0.1587(12) 0.5699(8) 0.2315(12)
C2_4 C 0.1645(11) 0.0523(6) 0.5845(12)
H1_4 H 0.1841 0.0158 0.5729
C3_4 C 0.1029(10) 0.1615(5) 0.6098(19)
C4_4 C 0.2369(10) 0.0933(6) 0.5966(14)
C5_4 C 0.2014(12) 0.1476(6) 0.6043(13)
H2_4 H 0.2481 0.1762 0.6058
O5_4 O 0.3687(7) 0.0323(4) 0.5880(8)
C6_4 C 0.3435(10) 0.0816(5) 0.5998(13)
C7_4 C 0.0310(11) 0.1192(5) 0.6031(15)
C8_4 C 0.0608(8) 0.0656(7) 0.5897(12)
C9_4 C 0.0732(11) 0.2230(6) 0.6215(18)
C10_4 C 0.1594(11) 0.4095(8) 0.4673(12)
C11_4 C 0.1619(9) 0.4889(7) 0.3485(10)
H8_4 H 0.0927 0.4910 0.3533
C12_4 C 0.2166(11) 0.5273(6) 0.2890(12)
C13_4 C 0.2157(10) 0.4476(6) 0.4002(13)
C14_4 C 0.3208(10) 0.4434(7) 0.3904(13)
H9_4 H 0.3549 0.4138 0.4198
C15_4 C 0.3207(10) 0.5268(6) 0.2887(12)
H10_4 H 0.3563 0.5550 0.2567
C16_4 C 0.3713(9) 0.4828(6) 0.3377(11)
N2_4 N 0.4759(10) 0.4769(5) 0.3363(11)
C17_4 C 0.8413(12) 0.4301(8) 0.2315(12)
C18_4 C 0.8406(11) 0.5905(8) 0.4673(12)
C19_4 C 0.8381(9) 0.5111(7) 0.3485(10)
H11_4 H 0.9073 0.5090 0.3533
C20_4 C 0.7834(11) 0.4727(6) 0.2890(12)
C21_4 C 0.7843(10) 0.5524(6) 0.4002(13)
C22_4 C 0.6792(10) 0.5566(7) 0.3904(13)
H12_4 H 0.6451 0.5862 0.4198
C23_4 C 0.6793(10) 0.4732(6) 0.2887(12)
H13_4 H 0.6437 0.4450 0.2567
C24_4 C 0.6287(9) 0.5172(6) 0.3377(11)
N3_4 N 0.5241(10) 0.5231(5) 0.3363(11)
H16_4 H 0.0366 0.8723 0.6077
N4_4 N 0.0152(9) 0.9761(5) 0.5850(9)
O27_2 O 0.6313(7) 0.9677(4) 0.5880(8)
H3_4 H 0.9634 0.1277 0.6077
N1_4 N 0.9848(9) 0.0239(5) 0.5850(9)
C25_4 C 0.8355(11) 0.9477(6) 0.5845(12)
H14_4 H 0.8159 0.9842 0.5729
C26_4 C 0.8971(10) 0.8385(5) 0.6098(19)
C27_4 C 0.7631(10) 0.9067(6) 0.5966(14)
C28_4 C 0.7986(12) 0.8524(6) 0.6043(13)
H15_4 H 0.7519 0.8238 0.6058
C29_4 C 0.6565(10) 0.9184(5) 0.5998(13)
C30_4 C 0.9690(11) 0.8808(5) 0.6031(15)
C31_4 C 0.9392(8) 0.9344(7) 0.5897(12)
C32_4 C 0.9268(11) 0.7770(6) 0.6215(18)
loop_
_geom_bond_atom_site_label_1
_geom_bond_atom_site_label_2
_geom_bond_site_symmetry_1
_geom_bond_site_symmetry_2
O1 C1 1_555 1_555
O2 C1 1_555 1_555
C1 C12 1_555 1_555
C15 C12 1_555 1_555
H10 C15 1_555 1_555
Sm2 O1 1_555 1_555
O19 Sm2 1_555 1_555
H17 O19 1_555 1_555
H18 O19 1_555 1_555
Zn4 O2 1_555 1_555
O25 Sm2 1_555 1_555
O26 Sm2 1_555 1_555
O28 Sm2 1_555 1_555
O31 Sm2 1_555 1_555
O2 Sm2 1_555 1_555
Zn4 O31 1_555 1_555
H19 O20 1_555 1_555
H20 O20 1_555 1_555
Sm1 O3 1_555 1_555
Zn2 O5 1_555 1_555
O3 C9 1_555 1_555
O4 Sm1 1_555 1_555
C2 H1 1_555 1_555
C3 C5 1_555 1_555
C4 C2 1_555 1_555
C5 C4 1_555 1_555
H2 C5 1_555 1_555
O5 C6 1_555 1_555
C6 C4 1_555 1_555
C7 C3 1_555 1_555
H3 C7 1_555 1_555
O6 Sm1 1_555 1_555
H4 O6 1_555 1_555
H5 O6 1_555 1_555
O7 Sm1 1_555 1_555
H6 O7 1_555 1_555
H7 O7 1_555 1_555
C8 C2 1_555 1_555
C9 O4 1_555 1_555
C10 C13 1_555 1_555
C11 H8 1_555 1_555
O8 C6 1_555 1_555
N1 C8 1_555 1_555
C13 C11 1_555 1_555
O9 Sm1 1_555 1_555
O10 Sm1 1_555 1_555
C14 C13 1_555 1_555
H9 C14 1_555 1_555
C16 C14 1_555 1_555
N2 C16 1_555 1_555
O15 C32 1_555 1_555
O16 C32 1_555 1_555
C25 H14 1_555 1_555
C26 C28 1_555 1_555
C27 C25 1_555 1_555
C28 C27 1_555 1_555
H15 C28 1_555 1_555
O17 C29 1_555 1_555
C29 C27 1_555 1_555
C30 C26 1_555 1_555
H16 C30 1_555 1_555
C31 C25 1_555 1_555
C32 C26 1_555 1_555
O18 C29 1_555 1_555
N4 N1 1_555 1_555
O21 Sm1 1_555 1_555
O22 Sm1 1_555 1_555
O24 Zn2 1_555 1_555
Sm4 O15 1_555 1_555
Zn2_2 O17 1_555 1_555
Zn6_2 O10 1_555 1_555
O29 Sm1 1_555 1_555
O32 Zn2 1_555 1_555
C3 C9 1_555 1_555
C7 C8 1_555 1_555
C10 O9 1_555 1_555
C10 O10 1_555 1_555
O16 Sm4 1_555 1_555
C30 C31 1_555 1_555
C31 N4 1_555 1_555
O22 Zn6_2 1_555 1_555
C18 C21 1_555 1_555
C19 H11 1_555 1_555
C21 C19 1_555 1_555
O13 C18 1_555 1_555
O14 C18 1_555 1_555
C22 C21 1_555 1_555
H12 C22 1_555 1_555
C24 C22 1_555 1_555
Sm4 O13 1_555 1_555
Zn6 O14 1_555 1_555
O14 Sm4 1_555 1_555
C24 N3 1_555 1_555
O11 C17 1_555 1_555
O12 C17 1_555 1_555
C17 C20 1_555 1_555
C23 C20 1_555 1_555
H13 C23 1_555 1_555
O23 Zn2_2 1_555 1_555
Sm5 O11 1_555 1_555
Zn4_2 O12 1_555 1_555
O33 Zn2_2 1_555 1_555
O12 Sm5 1_555 1_555
O23 Sm7 1_555 1_555
Sm7 O33 1_555 1_555
O24 Sm6 1_555 1_555
Sm6 O32 1_555 1_555
O6_2 Sm4 1_555 1_555
H4_2 O6_2 1_555 1_555
H5_2 O6_2 1_555 1_555
O7_2 Sm4 1_555 1_555
H6_2 O7_2 1_555 1_555
H7_2 O7_2 1_555 1_555
O21_2 Sm4 1_555 1_555
O22_2 Sm4 1_555 1_555
O29_2 Sm4 1_555 1_555
O22_2 Zn6 1_555 1_555
O19_2 Sm5 1_555 1_555
H17_2 O19_2 1_555 1_555
H18_2 O19_2 1_555 1_555
O25_2 Sm5 1_555 1_555
O26_2 Sm5 1_555 1_555
O28_2 Sm5 1_555 1_555
O31_2 Sm5 1_555 1_555
Zn4_2 O31_2 1_555 1_555
H19_2 O20_2 1_555 1_555
H20_2 O20_2 1_555 1_555
C18_2 C21_2 1_555 1_555
C19_2 H11_2 1_555 1_555
C21_2 C19_2 1_555 1_555
O30 C18_2 1_555 1_555
C22_2 C21_2 1_555 1_555
H12_2 C22_2 1_555 1_555
C24_2 C22_2 1_555 1_555
C24_2 N3_2 1_555 1_555
O23_2 Zn1 1_555 1_555
O27 Zn1 1_555 1_555
O33_2 Zn1 1_555 1_555
O23_2 Sm7_2 1_555 1_555
Sm7_2 O33_2 1_555 1_555
O21 C17_2 1_555 1_555
O22 C17_2 1_555 1_555
C17_2 C20_2 1_555 1_555
C23_2 C20_2 1_555 1_555
H13_2 C23_2 1_555 1_555
O21_2 C1_2 1_555 1_555
O22_2 C1_2 1_555 1_555
C1_2 C12_2 1_555 1_555
C15_2 C12_2 1_555 1_555
H10_2 C15_2 1_555 1_555
Zn1_2 O5_2 1_555 1_555
O25_2 C9_2 1_555 1_555
C2_2 H1_2 1_555 1_555
C3_2 C5_2 1_555 1_555
C4_2 C2_2 1_555 1_555
C5_2 C4_2 1_555 1_555
H2_2 C5_2 1_555 1_555
O5_2 C6_2 1_555 1_555
C6_2 C4_2 1_555 1_555
C7_2 C3_2 1_555 1_555
H3_2 C7_2 1_555 1_555
C8_2 C2_2 1_555 1_555
C9_2 O26_2 1_555 1_555
O8_2 C6_2 1_555 1_555
N1_2 C8_2 1_555 1_555
O25 C32_2 1_555 1_555
O26 C32_2 1_555 1_555
C25_2 H14_2 1_555 1_555
C26_2 C28_2 1_555 1_555
C27_2 C25_2 1_555 1_555
C28_2 C27_2 1_555 1_555
H15_2 C28_2 1_555 1_555
O27 C29_2 1_555 1_555
C29_2 C27_2 1_555 1_555
C30_2 C26_2 1_555 1_555
H16_2 C30_2 1_555 1_555
C31_2 C25_2 1_555 1_555
C32_2 C26_2 1_555 1_555
O18_2 C29_2 1_555 1_555
N4_2 N1_2 1_555 1_555
O24_2 Zn1_2 1_555 1_555
O32_2 Zn1_2 1_555 1_555
C3_2 C9_2 1_555 1_555
C7_2 C8_2 1_555 1_555
C30_2 C31_2 1_555 1_555
C31_2 N4_2 1_555 1_555
C10_2 C13_2 1_555 1_555
C11_2 H8_2 1_555 1_555
C13_2 C11_2 1_555 1_555
C14_2 C13_2 1_555 1_555
H9_2 C14_2 1_555 1_555
C16_2 C14_2 1_555 1_555
N2_2 C16_2 1_555 1_555
C10_2 O30_2 1_555 1_555
O24_2 Sm6_2 1_555 1_555
Sm6_2 O32_2 1_555 1_555
O16_2 C32_3 1_555 1_555
C25_3 H14_3 1_555 1_555
C26_3 C28_3 1_555 1_555
C27_3 C25_3 1_555 1_555
C28_3 C27_3 1_555 1_555
H15_3 C28_3 1_555 1_555
O17_2 C29_3 1_555 1_555
C29_3 C27_3 1_555 1_555
C30_3 C26_3 1_555 1_555
C31_3 C25_3 1_555 1_555
C32_3 C26_3 1_555 1_555
O28_2 C29_3 1_555 1_555
Zn4_2 O17_2 1_555 1_555
O16_2 Sm7_2 1_555 1_555
C30_3 C31_3 1_555 1_555
Zn4 O5_3 1_555 1_555
O4_2 Sm6_2 1_555 1_555
C2_3 H1_3 1_555 1_555
C3_3 C5_3 1_555 1_555
C4_3 C2_3 1_555 1_555
C5_3 C4_3 1_555 1_555
H2_3 C5_3 1_555 1_555
O5_3 C6_3 1_555 1_555
C6_3 C4_3 1_555 1_555
C7_3 C3_3 1_555 1_555
O6_3 Sm6_2 1_555 1_555
H4_3 O6_3 1_555 1_555
H5_3 O6_3 1_555 1_555
C8_3 C2_3 1_555 1_555
C9_3 O4_2 1_555 1_555
O28 C6_3 1_555 1_555
O21_3 Sm6_2 1_555 1_555
C3_3 C9_3 1_555 1_555
C7_3 C8_3 1_555 1_555
O1_2 C1_3 1_555 1_555
O23 C1_3 1_555 1_555
C1_3 C12_3 1_555 1_555
H6_3 O7_3 1_555 1_555
H7_3 O7_3 1_555 1_555
C10_3 C13_3 1_555 1_555
C11_3 H8_3 1_555 1_555
C12_3 C11_3 1_555 1_555
C13_3 C11_3 1_555 1_555
C14_3 C13_3 1_555 1_555
H9_3 C14_3 1_555 1_555
C15_3 C12_3 1_555 1_555
H10_3 C15_3 1_555 1_555
C16_3 C14_3 1_555 1_555
N2_3 C16_3 1_555 1_555
O11_2 C17_3 1_555 1_555
O24 C17_3 1_555 1_555
C17_3 C20_3 1_555 1_555
C18_3 C21_3 1_555 1_555
C19_3 H11_3 1_555 1_555
C20_3 C19_3 1_555 1_555
C21_3 C19_3 1_555 1_555
O13_2 C18_3 1_555 1_555
C22_3 C21_3 1_555 1_555
H12_3 C22_3 1_555 1_555
C23_3 C20_3 1_555 1_555
H13_3 C23_3 1_555 1_555
C24_3 C22_3 1_555 1_555
N3_3 N2_3 1_555 1_555
Sm7 O1_2 1_555 1_555
O19_3 Sm7 1_555 1_555
H17_3 O19_3 1_555 1_555
H18_3 O19_3 1_555 1_555
O20_3 Sm7 1_555 1_555
H19_3 O20_3 1_555 1_555
H20_3 O20_3 1_555 1_555
Sm6 O11_2 1_555 1_555
O26_3 Sm7 1_555 1_555
O30_3 Sm7 1_555 1_555
C10_3 O9_2 1_555 1_555
C15_3 C16_3 1_555 1_555
C23_3 C24_3 1_555 1_555
C24_3 N3_3 1_555 1_555
O6_4 Sm7_2 1_555 1_555
H4_4 O6_4 1_555 1_555
H5_4 O6_4 1_555 1_555
O21_4 Sm7_2 1_555 1_555
H6_4 O7_4 1_555 1_555
H7_4 O7_4 1_555 1_555
O19_4 Sm6 1_555 1_555
H17_4 O19_4 1_555 1_555
H18_4 O19_4 1_555 1_555
O20_4 Sm6 1_555 1_555
H19_4 O20_4 1_555 1_555
H20_4 O20_4 1_555 1_555
O26_4 Sm6 1_555 1_555
O30_4 Sm6 1_555 1_555
O21_4 C1_4 1_555 1_555
O23_2 C1_4 1_555 1_555
C1_4 C12_4 1_555 1_555
Zn6 O5_4 1_555 1_555
C2_4 H1_4 1_555 1_555
C3_4 C5_4 1_555 1_555
C4_4 C2_4 1_555 1_555
C5_4 C4_4 1_555 1_555
H2_4 C5_4 1_555 1_555
O5_4 C6_4 1_555 1_555
C6_4 C4_4 1_555 1_555
C7_4 C3_4 1_555 1_555
C8_4 C2_4 1_555 1_555
C9_4 O26_4 1_555 1_555
C10_4 C13_4 1_555 1_555
C11_4 H8_4 1_555 1_555
O29_2 C6_4 1_555 1_555
C12_4 C11_4 1_555 1_555
C13_4 C11_4 1_555 1_555
C14_4 C13_4 1_555 1_555
H9_4 C14_4 1_555 1_555
C15_4 C12_4 1_555 1_555
H10_4 C15_4 1_555 1_555
C16_4 C14_4 1_555 1_555
N2_4 C16_4 1_555 1_555
O21_3 C17_4 1_555 1_555
O24_2 C17_4 1_555 1_555
C17_4 C20_4 1_555 1_555
C18_4 C21_4 1_555 1_555
C19_4 H11_4 1_555 1_555
C20_4 C19_4 1_555 1_555
C21_4 C19_4 1_555 1_555
O30_3 C18_4 1_555 1_555
O33 C18_4 1_555 1_555
C22_4 C21_4 1_555 1_555
H12_4 C22_4 1_555 1_555
C23_4 C20_4 1_555 1_555
H13_4 C23_4 1_555 1_555
C24_4 C22_4 1_555 1_555
N3_4 N2_4 1_555 1_555
C3_4 C9_4 1_555 1_555
C7_4 C8_4 1_555 1_555
C10_4 O30_4 1_555 1_555
C10_4 O32 1_555 1_555
C15_4 C16_4 1_555 1_555
C23_4 C24_4 1_555 1_555
C24_4 N3_4 1_555 1_555
O27_2 Zn6_2 1_555 1_555
O26_3 C32_4 1_555 1_555
C25_4 H14_4 1_555 1_555
C26_4 C28_4 1_555 1_555
C27_4 C25_4 1_555 1_555
C28_4 C27_4 1_555 1_555
H15_4 C28_4 1_555 1_555
O27_2 C29_4 1_555 1_555
C29_4 C27_4 1_555 1_555
C30_4 C26_4 1_555 1_555
C31_4 C25_4 1_555 1_555
C32_4 C26_4 1_555 1_555
O29 C29_4 1_555 1_555
C30_4 C31_4 1_555 1_555

#END
