
###############################################################################
#
# This file contains modified crystal structure data generated from the
# MOF subset of the Cambridge Structural Database (CSD) v543 
# hosted by the Cambridge Crystallographic Data Centre (CCDC).
#
# This work is licensed under the Creative Commons
# Attribution-NonCommercial-ShareAlike 4.0 International License.
# To view a copy of this license, visit
# http://creativecommons.org/licenses/by-nc-sa/4.0/
# or send a letter to
# Creative Commons, PO Box 1866, Mountain View, CA 94042, USA.
#
# CIF created using the CSD Python API on 29 September 2022
# The structure has been converted into the P1 space group
# The structure has a 3D framework
# The original CSD entry ELUJON is in the monoclinic crystal system
# The framework has been calculated to contain at least 10.0% void space
# The void calculation uses a probe of radius 1.32A, grid spacing 0.4
#
###############################################################################

data_ELUJON
_chemical_formula_moiety         '(C168 H96 Br16 Co8 N16 O35)n'
_symmetry_cell_setting           triclinic
_symmetry_space_group_name_H-M   'P 1'
_symmetry_Int_Tables_number      1
_space_group_name_Hall           'P 1'
loop_
_symmetry_equiv_pos_site_id
_symmetry_equiv_pos_as_xyz
1 x,y,z
_cell_length_a                   29.455(2)
_cell_length_b                   15.5308(13)
_cell_length_c                   17.4531(14)
_cell_angle_alpha                90
_cell_angle_beta                 114.7650(10)
_cell_angle_gamma                90
_cell_volume                     7249.82
loop_
_atom_site_label
_atom_site_type_symbol
_atom_site_fract_x
_atom_site_fract_y
_atom_site_fract_z
Br3 Br 0.04057(2) 0.07485(2) 0.19192(2)
Br4 Br 0.04335(2) 0.19644(2) 0.03715(2)
C24 C 0.01717(9) 0.03224(16) 0.08111(14)
C25 C 0.01910(9) 0.08189(15) 0.01667(15)
C26 C 0.41679(9) 0.15239(15) 0.08007(14)
C27 C 0.37879(8) 0.10292(15) 0.00748(15)
H14 H 0.3185 0.1641 0.0072
H17 H 0.2402 0.1211 0.0025
O8 O 0.40064(5) 0.21747(10) 0.10366(9)
O9 O 0.46092(6) 0.12647(12) 0.11187(11)
Co8 Co 0.43256(2) 0.29365(2) 0.20880(2)
C18 C 0.00233(9) 0.10714(14) 0.86338(13)
C19 C 0.00219(8) 0.05075(14) 0.93483(13)
O4 O 0.04270(6) 0.11706(10) 0.85792(10)
O5 O -0.0000 0.28209(13) 0.7500
H12 H 0.0018 0.3190 0.7961
Co2 Co 0.06744(2) 0.20635(2) 0.79120(2)
C28 C 0.32836(9) 0.12058(16) 0.98085(15)
C29 C 0.29233(9) 0.07450(17) 0.91555(16)
C30 C 0.30776(9) 0.01100(17) 0.87552(17)
C32 C 0.39346(9) 0.03855(17) 0.96770(15)
H16 H 0.4272 0.0258 0.9858
C33 C 0.23821(9) 0.09324(16) 0.88804(16)
C34 C 0.21943(9) 0.11898(16) 0.94513(16)
C35 C 0.16944(9) 0.14158(16) 0.91599(15)
H18 H 0.1575 0.1587 0.9552
C36 C 0.15541(9) 0.11228(17) 0.78018(16)
H19 H 0.1336 0.1087 0.7234
C37 C 0.20454(9) 0.08880(18) 0.80419(17)
H20 H 0.2152 0.0699 0.7638
N3 N 0.13768(7) 0.14005(12) 0.83485(12)
N5 N 0.09554(7) 0.29754(13) 0.72559(12)
O11 O 0.09936(5) 0.28253(10) 0.89634(9)
O12 O 0.03961(6) 0.13821(10) 0.68137(9)
O6 O 0.03961(6) 0.86179(10) 0.18137(9)
Co5 Co 0.06744(2) 0.79365(2) 0.29120(2)
H15 H 0.2840 0.9803 0.8311
C31 C 0.35798(9) 0.99275(17) 0.90073(16)
C38 C 0.37411(9) 0.92440(17) 0.85769(17)
C39 C 0.34687(10) 0.90682(19) 0.77222(17)
H21 H 0.3177 0.9373 0.7411
C40 C 0.36337(10) 0.84403(18) 0.73404(17)
H22 H 0.3447 0.8336 0.6768
C41 C 0.43039(9) 0.81479(16) 0.85671(15)
H23 H 0.4593 0.7832 0.8866
C42 C 0.41672(9) 0.87642(17) 0.89926(16)
H24 H 0.4363 0.8858 0.9563
N4 N 0.40446(7) 0.79754(13) 0.77441(12)
Co3 Co 0.43256(2) 0.70635(2) 0.70880(2)
Co1 Co 0.93256(2) 0.20635(2) 0.70880(2)
C1 C 0.58321(9) 0.15239(15) 0.41993(14)
C2 C 0.62121(8) 0.10292(15) 0.49252(15)
C3 C 0.67164(9) 0.12058(16) 0.51915(15)
H1 H 0.6815 0.1641 0.4928
C4 C 0.70767(9) 0.07450(17) 0.58445(16)
C5 C 0.69224(9) 0.01100(17) 0.62448(17)
C7 C 0.60654(9) 0.03855(17) 0.53230(15)
H3 H 0.5728 0.0258 0.5142
C8 C 0.76179(9) 0.09324(16) 0.61196(16)
C9 C 0.78057(9) 0.11898(16) 0.55487(16)
H4 H 0.7598 0.1211 0.4975
C10 C 0.83056(9) 0.14158(16) 0.58401(15)
H5 H 0.8425 0.1587 0.5448
C11 C 0.84459(9) 0.11228(17) 0.71982(16)
H6 H 0.8664 0.1087 0.7766
C12 C 0.79546(9) 0.08880(18) 0.69581(17)
H7 H 0.7848 0.0699 0.7362
N1 N 0.86232(7) 0.14005(12) 0.66515(12)
O1 O 0.59936(5) 0.21747(10) 0.39634(9)
O2 O 0.53908(6) 0.12647(12) 0.38813(11)
O3 O 0.96039(6) 0.13821(10) 0.81863(9)
O5_2 O 1.0000 0.28209(13) 0.7500
H13 H 0.9982 0.3190 0.7039
Co7 Co 0.56744(2) 0.29365(2) 0.29120(2)
N6 N 0.90446(7) 0.29754(13) 0.77441(12)
O10 O 0.90064(5) 0.28253(10) 0.60366(9)
O13 O 0.95730(6) 0.11706(10) 0.64208(10)
C22 C 0.99767(9) 0.89286(14) 0.13662(13)
C23 C 0.99781(8) 0.94925(14) 0.06517(13)
O7 O 0.95730(6) 0.88294(10) 0.14208(10)
Co6 Co 0.93256(2) 0.79365(2) 0.20880(2)
Br1 Br 0.95943(2) 0.92515(2) 0.80808(2)
Br2 Br 0.95665(2) 0.80356(2) 0.96285(2)
H2 H 0.7160 0.9803 0.6689
C6 C 0.64202(9) 0.99275(17) 0.59927(16)
C13 C 0.62589(9) 0.92440(17) 0.64231(17)
C14 C 0.65313(10) 0.90682(19) 0.72778(17)
H8 H 0.6823 0.9373 0.7589
C15 C 0.63663(10) 0.84403(18) 0.76596(17)
H9 H 0.6553 0.8336 0.8232
C16 C 0.56961(9) 0.81479(16) 0.64329(15)
H10 H 0.5407 0.7832 0.6134
C17 C 0.58328(9) 0.87642(17) 0.60074(16)
H11 H 0.5637 0.8858 0.5437
C20 C 0.98283(9) 0.96776(16) 0.91889(14)
C21 C 0.98090(9) 0.91811(15) 0.98333(15)
N2 N 0.59554(7) 0.79754(13) 0.72559(12)
Co4 Co 0.56744(2) 0.70635(2) 0.79120(2)
Br1_2 Br 0.04057(2) 0.92515(2) 0.69192(2)
Br2_2 Br 0.04335(2) 0.80356(2) 0.53715(2)
C20_2 C 0.01717(9) 0.96776(16) 0.58111(14)
C21_2 C 0.01910(9) 0.91811(15) 0.51667(15)
C22_2 C 0.00233(9) 0.89286(14) 0.36338(13)
C23_2 C 0.00219(8) 0.94925(14) 0.43483(13)
O7_2 O 0.04270(6) 0.88294(10) 0.35792(10)
C18_2 C 0.99767(9) 0.10714(14) 0.63662(13)
C19_2 C 0.99781(8) 0.05075(14) 0.56517(13)
Br3_2 Br 0.95943(2) 0.07485(2) 0.30808(2)
Br4_2 Br 0.95665(2) 0.19644(2) 0.46285(2)
C24_2 C 0.98283(9) 0.03224(16) 0.41889(14)
C25_2 C 0.98090(9) 0.08189(15) 0.48333(15)
O6_2 O 0.96039(6) 0.86179(10) 0.31863(9)
Br3_3 Br 0.54057(2) 0.57485(2) 0.19192(2)
Br4_3 Br 0.54335(2) 0.69644(2) 0.03715(2)
C22_3 C 0.49767(9) 0.39286(14) 0.13662(13)
C23_3 C 0.49781(8) 0.44925(14) 0.06517(13)
C24_3 C 0.51717(9) 0.53224(16) 0.08111(14)
C25_3 C 0.51910(9) 0.58189(15) 0.01667(15)
O6_3 O 0.53961(6) 0.36179(10) 0.18137(9)
O7_3 O 0.45730(6) 0.38294(10) 0.14208(10)
C26_2 C 0.91679(9) 0.65239(15) 0.08007(14)
C27_2 C 0.87879(8) 0.60292(15) 0.00748(15)
H14_2 H 0.8185 0.6641 0.0072
H17_2 H 0.7402 0.6211 0.0025
O8_2 O 0.90064(5) 0.71747(10) 0.10366(9)
O9_2 O 0.96092(6) 0.62647(12) 0.11187(11)
Br1_3 Br 0.45943(2) 0.42515(2) 0.80808(2)
Br2_3 Br 0.45665(2) 0.30356(2) 0.96285(2)
C1_2 C 0.08321(9) 0.65239(15) 0.41993(14)
C2_2 C 0.12121(8) 0.60292(15) 0.49252(15)
C3_2 C 0.17164(9) 0.62058(16) 0.51915(15)
H1_2 H 0.1815 0.6641 0.4928
C4_2 C 0.20767(9) 0.57450(17) 0.58445(16)
C5_2 C 0.19224(9) 0.51100(17) 0.62448(17)
H2_2 H 0.2160 0.4803 0.6689
C6_2 C 0.14202(9) 0.49275(17) 0.59927(16)
C7_2 C 0.10654(9) 0.53855(17) 0.53230(15)
H3_2 H 0.0728 0.5258 0.5142
C8_2 C 0.26179(9) 0.59324(16) 0.61196(16)
C9_2 C 0.28057(9) 0.61898(16) 0.55487(16)
H4_2 H 0.2598 0.6211 0.4975
C10_2 C 0.33056(9) 0.64158(16) 0.58401(15)
H5_2 H 0.3425 0.6587 0.5448
C11_2 C 0.34459(9) 0.61228(17) 0.71982(16)
H6_2 H 0.3664 0.6087 0.7766
C12_2 C 0.29546(9) 0.58880(18) 0.69581(17)
H7_2 H 0.2848 0.5699 0.7362
C13_2 C 0.12589(9) 0.42440(17) 0.64231(17)
C14_2 C 0.15313(10) 0.40682(19) 0.72778(17)
H8_2 H 0.1823 0.4373 0.7589
C15_2 C 0.13663(10) 0.34403(18) 0.76596(17)
H9_2 H 0.1553 0.3336 0.8232
C16_2 C 0.06961(9) 0.31479(16) 0.64329(15)
H10_2 H 0.0407 0.2832 0.6134
C17_2 C 0.08328(9) 0.37642(17) 0.60074(16)
H11_2 H 0.0637 0.3858 0.5437
C18_3 C 0.50233(9) 0.60714(14) 0.86338(13)
C19_3 C 0.50219(8) 0.55075(14) 0.93483(13)
C20_3 C 0.48283(9) 0.46776(16) 0.91889(14)
C21_3 C 0.48090(9) 0.41811(15) 0.98333(15)
N1_2 N 0.36232(7) 0.64005(12) 0.66515(12)
O1_2 O 0.09936(5) 0.71747(10) 0.39634(9)
O2_2 O 0.03908(6) 0.62647(12) 0.38813(11)
O3_2 O 0.46039(6) 0.63821(10) 0.81863(9)
O4_2 O 0.54270(6) 0.61706(10) 0.85792(10)
O5_3 O 0.5000 0.78209(13) 0.7500
H12_2 H 0.5018 0.8190 0.7961
H13_2 H 0.4982 0.8190 0.7039
C28_2 C 0.82836(9) 0.62058(16) 0.98085(15)
C29_2 C 0.79233(9) 0.57450(17) 0.91555(16)
C30_2 C 0.80776(9) 0.51100(17) 0.87552(17)
H15_2 H 0.7840 0.4803 0.8311
C31_2 C 0.85798(9) 0.49275(17) 0.90073(16)
C32_2 C 0.89346(9) 0.53855(17) 0.96770(15)
H16_2 H 0.9272 0.5258 0.9858
C33_2 C 0.73821(9) 0.59324(16) 0.88804(16)
C34_2 C 0.71943(9) 0.61898(16) 0.94513(16)
C35_2 C 0.66944(9) 0.64158(16) 0.91599(15)
H18_2 H 0.6575 0.6587 0.9552
C36_2 C 0.65541(9) 0.61228(17) 0.78018(16)
H19_2 H 0.6336 0.6087 0.7234
C37_2 C 0.70454(9) 0.58880(18) 0.80419(17)
H20_2 H 0.7152 0.5699 0.7638
C38_2 C 0.87411(9) 0.42440(17) 0.85769(17)
C39_2 C 0.84687(10) 0.40682(19) 0.77222(17)
H21_2 H 0.8177 0.4373 0.7411
C40_2 C 0.86337(10) 0.34403(18) 0.73404(17)
H22_2 H 0.8447 0.3336 0.6768
C41_2 C 0.93039(9) 0.31479(16) 0.85671(15)
H23_2 H 0.9593 0.2832 0.8866
C42_2 C 0.91672(9) 0.37642(17) 0.89926(16)
H24_2 H 0.9363 0.3858 0.9563
N3_2 N 0.63768(7) 0.64005(12) 0.83485(12)
O10_2 O 0.40064(5) 0.78253(10) 0.60366(9)
O11_2 O 0.59936(5) 0.78253(10) 0.89634(9)
O12_2 O 0.53961(6) 0.63821(10) 0.68137(9)
O13_2 O 0.45730(6) 0.61706(10) 0.64208(10)
Br1_4 Br 0.54057(2) 0.42515(2) 0.69192(2)
Br2_4 Br 0.54335(2) 0.30356(2) 0.53715(2)
C18_4 C 0.49767(9) 0.60714(14) 0.63662(13)
C19_4 C 0.49781(8) 0.55075(14) 0.56517(13)
C20_4 C 0.51717(9) 0.46776(16) 0.58111(14)
C21_4 C 0.51910(9) 0.41811(15) 0.51667(15)
Br3_4 Br 0.45943(2) 0.57485(2) 0.30808(2)
Br4_4 Br 0.45665(2) 0.69644(2) 0.46285(2)
C22_4 C 0.50233(9) 0.39286(14) 0.36338(13)
C23_4 C 0.50219(8) 0.44925(14) 0.43483(13)
C24_4 C 0.48283(9) 0.53224(16) 0.41889(14)
C25_4 C 0.48090(9) 0.58189(15) 0.48333(15)
O6_4 O 0.46039(6) 0.36179(10) 0.31863(9)
O7_4 O 0.54270(6) 0.38294(10) 0.35792(10)
H2_3 H 0.2840 0.0197 0.3311
C6_3 C 0.35798(9) 0.00725(17) 0.40073(16)
C13_3 C 0.37411(9) 0.07560(17) 0.35769(17)
C14_3 C 0.34687(10) 0.09318(19) 0.27222(17)
H8_3 H 0.3177 0.0627 0.2411
C15_3 C 0.36337(10) 0.15597(18) 0.23404(17)
H9_3 H 0.3447 0.1664 0.1768
C16_3 C 0.43039(9) 0.18521(16) 0.35671(15)
H10_3 H 0.4593 0.2168 0.3866
C17_3 C 0.41672(9) 0.12358(17) 0.39926(16)
H11_3 H 0.4363 0.1142 0.4563
N2_2 N 0.40446(7) 0.20246(13) 0.27441(12)
C1_3 C 0.41679(9) 0.84761(15) 0.58007(14)
C2_3 C 0.37879(8) 0.89708(15) 0.50748(15)
C3_3 C 0.32836(9) 0.87942(16) 0.48085(15)
H1_3 H 0.3185 0.8359 0.5072
C4_3 C 0.29233(9) 0.92550(17) 0.41555(16)
C5_3 C 0.30776(9) 0.98900(17) 0.37552(17)
C7_3 C 0.39346(9) 0.96145(17) 0.46770(15)
H3_3 H 0.4272 0.9742 0.4858
C8_3 C 0.23821(9) 0.90676(16) 0.38804(16)
C9_3 C 0.21943(9) 0.88102(16) 0.44513(16)
H4_3 H 0.2402 0.8789 0.5025
C10_3 C 0.16944(9) 0.85842(16) 0.41599(15)
H5_3 H 0.1575 0.8413 0.4552
C11_3 C 0.15541(9) 0.88772(17) 0.28018(16)
H6_3 H 0.1336 0.8913 0.2234
C12_3 C 0.20454(9) 0.91120(18) 0.30419(17)
H7_3 H 0.2152 0.9301 0.2638
N1_3 N 0.13768(7) 0.85995(12) 0.33485(12)
O2_3 O 0.46092(6) 0.87353(12) 0.61187(11)
O5_4 O -0.0000 0.71791(13) 0.2500
H13_3 H 0.0018 0.6810 0.2961
N6_2 N 0.09554(7) 0.70246(13) 0.22559(12)
H15_3 H 0.7160 0.0197 0.1689
C31_3 C 0.64202(9) 0.00725(17) 0.09927(16)
C38_3 C 0.62589(9) 0.07560(17) 0.14231(17)
C39_3 C 0.65313(10) 0.09318(19) 0.22778(17)
H21_3 H 0.6823 0.0627 0.2589
C40_3 C 0.63663(10) 0.15597(18) 0.26596(17)
H22_3 H 0.6553 0.1664 0.3232
C41_3 C 0.56961(9) 0.18521(16) 0.14329(15)
H23_3 H 0.5407 0.2168 0.1134
C42_3 C 0.58328(9) 0.12358(17) 0.10074(16)
H24_3 H 0.5637 0.1142 0.0437
N4_2 N 0.59554(7) 0.20246(13) 0.22559(12)
O5_5 O 1.0000 0.71791(13) 0.2500
H12_3 H 0.9982 0.6810 0.2039
C28_3 C 0.67164(9) 0.87942(16) 0.01915(15)
C29_3 C 0.70767(9) 0.92550(17) 0.08445(16)
C30_3 C 0.69224(9) 0.98900(17) 0.12448(17)
C32_3 C 0.60654(9) 0.96145(17) 0.03230(15)
H16_3 H 0.5728 0.9742 0.0142
C33_3 C 0.76179(9) 0.90676(16) 0.11196(16)
C34_3 C 0.78057(9) 0.88102(16) 0.05487(16)
C35_3 C 0.83056(9) 0.85842(16) 0.08401(15)
H18_3 H 0.8425 0.8413 0.0448
C36_3 C 0.84459(9) 0.88772(17) 0.21982(16)
H19_3 H 0.8664 0.8913 0.2766
C37_3 C 0.79546(9) 0.91120(18) 0.19581(17)
H20_3 H 0.7848 0.9301 0.2362
N3_3 N 0.86232(7) 0.85995(12) 0.16515(12)
N5_2 N 0.90446(7) 0.70246(13) 0.27441(12)
C26_3 C 0.58321(9) 0.84761(15) 0.91993(14)
C27_3 C 0.62121(8) 0.89708(15) 0.99252(15)
H14_3 H 0.6815 0.8359 0.9928
H17_3 H 0.7598 0.8789 0.9975
O9_3 O 0.53908(6) 0.87353(12) 0.88813(11)
C1_4 C 0.91679(9) 0.34761(15) 0.58007(14)
C2_4 C 0.87879(8) 0.39708(15) 0.50748(15)
C3_4 C 0.82836(9) 0.37942(16) 0.48085(15)
H1_4 H 0.8185 0.3359 0.5072
C4_4 C 0.79233(9) 0.42550(17) 0.41555(16)
C5_4 C 0.80776(9) 0.48900(17) 0.37552(17)
H2_4 H 0.7840 0.5197 0.3311
C6_4 C 0.85798(9) 0.50725(17) 0.40073(16)
C7_4 C 0.89346(9) 0.46145(17) 0.46770(15)
H3_4 H 0.9272 0.4742 0.4858
C8_4 C 0.73821(9) 0.40676(16) 0.38804(16)
C9_4 C 0.71943(9) 0.38102(16) 0.44513(16)
H4_4 H 0.7402 0.3789 0.5025
C10_4 C 0.66944(9) 0.35842(16) 0.41599(15)
H5_4 H 0.6575 0.3413 0.4552
C11_4 C 0.65541(9) 0.38772(17) 0.28018(16)
H6_4 H 0.6336 0.3913 0.2234
C12_4 C 0.70454(9) 0.41120(18) 0.30419(17)
H7_4 H 0.7152 0.4301 0.2638
C13_4 C 0.87411(9) 0.57560(17) 0.35769(17)
C14_4 C 0.84687(10) 0.59318(19) 0.27222(17)
H8_4 H 0.8177 0.5627 0.2411
C15_4 C 0.86337(10) 0.65597(18) 0.23404(17)
H9_4 H 0.8447 0.6664 0.1768
C16_4 C 0.93039(9) 0.68521(16) 0.35671(15)
H10_4 H 0.9593 0.7168 0.3866
C17_4 C 0.91672(9) 0.62358(17) 0.39926(16)
H11_4 H 0.9363 0.6142 0.4563
N1_4 N 0.63768(7) 0.35995(12) 0.33485(12)
O2_4 O 0.96092(6) 0.37353(12) 0.61187(11)
O5_6 O 0.5000 0.21791(13) 0.2500
H12_4 H 0.4982 0.1810 0.2039
H13_4 H 0.5018 0.1810 0.2961
C28_4 C 0.17164(9) 0.37942(16) 0.01915(15)
C29_4 C 0.20767(9) 0.42550(17) 0.08445(16)
C30_4 C 0.19224(9) 0.48900(17) 0.12448(17)
H15_4 H 0.2160 0.5197 0.1689
C31_4 C 0.14202(9) 0.50725(17) 0.09927(16)
C32_4 C 0.10654(9) 0.46145(17) 0.03230(15)
H16_4 H 0.0728 0.4742 0.0142
C33_4 C 0.26179(9) 0.40676(16) 0.11196(16)
C34_4 C 0.28057(9) 0.38102(16) 0.05487(16)
C35_4 C 0.33056(9) 0.35842(16) 0.08401(15)
H18_4 H 0.3425 0.3413 0.0448
C36_4 C 0.34459(9) 0.38772(17) 0.21982(16)
H19_4 H 0.3664 0.3913 0.2766
C37_4 C 0.29546(9) 0.41120(18) 0.19581(17)
H20_4 H 0.2848 0.4301 0.2362
C38_4 C 0.12589(9) 0.57560(17) 0.14231(17)
C39_4 C 0.15313(10) 0.59318(19) 0.22778(17)
H21_4 H 0.1823 0.5627 0.2589
C40_4 C 0.13663(10) 0.65597(18) 0.26596(17)
H22_4 H 0.1553 0.6664 0.3232
C41_4 C 0.06961(9) 0.68521(16) 0.14329(15)
H23_4 H 0.0407 0.7168 0.1134
C42_4 C 0.08328(9) 0.62358(17) 0.10074(16)
H24_4 H 0.0637 0.6142 0.0437
N3_4 N 0.36232(7) 0.35995(12) 0.16515(12)
C26_4 C 0.08321(9) 0.34761(15) 0.91993(14)
C27_4 C 0.12121(8) 0.39708(15) 0.99252(15)
H14_4 H 0.1815 0.3359 0.9928
H17_4 H 0.2598 0.3789 0.9975
O9_4 O 0.03908(6) 0.37353(12) 0.88813(11)
loop_
_geom_bond_atom_site_label_1
_geom_bond_atom_site_label_2
_geom_bond_site_symmetry_1
_geom_bond_site_symmetry_2
Br3 C24 1_555 1_555
Br4 C25 1_555 1_555
C24 C25 1_555 1_555
C26 C27 1_555 1_555
O8 C26 1_555 1_555
O9 C26 1_555 1_555
Co8 O8 1_555 1_555
C18 C19 1_555 1_555
O4 C18 1_555 1_555
H12 O5 1_555 1_555
Co2 O4 1_555 1_555
C29 C28 1_555 1_555
C30 C29 1_555 1_555
H16 C32 1_555 1_555
C33 C29 1_555 1_555
C34 C33 1_555 1_555
C35 C34 1_555 1_555
H18 C35 1_555 1_555
C36 H19 1_555 1_555
C37 C33 1_555 1_555
H20 C37 1_555 1_555
N3 Co2 1_555 1_555
N5 Co2 1_555 1_555
O11 Co2 1_555 1_555
O12 Co2 1_555 1_555
O5 Co2 1_555 1_555
C35 N3 1_555 1_555
C36 C37 1_555 1_555
C36 N3 1_555 1_555
Co5 O6 1_555 1_555
C38 C31 1_555 1_555
C39 C38 1_555 1_555
H21 C39 1_555 1_555
C40 C39 1_555 1_555
H22 C40 1_555 1_555
C41 H23 1_555 1_555
C42 C38 1_555 1_555
H24 C42 1_555 1_555
N4 C40 1_555 1_555
Co3 N4 1_555 1_555
C41 C42 1_555 1_555
C41 N4 1_555 1_555
Co1 N1 1_555 1_555
C1 C2 1_555 1_555
C2 C3 1_555 1_555
C3 H1 1_555 1_555
C4 C3 1_555 1_555
C5 C4 1_555 1_555
C7 C2 1_555 1_555
H3 C7 1_555 1_555
C8 C4 1_555 1_555
C9 C8 1_555 1_555
H4 C9 1_555 1_555
C10 C9 1_555 1_555
H5 C10 1_555 1_555
C11 H6 1_555 1_555
C12 C8 1_555 1_555
H7 C12 1_555 1_555
N1 C10 1_555 1_555
O1 C1 1_555 1_555
O2 C1 1_555 1_555
O3 Co1 1_555 1_555
O5_2 Co1 1_555 1_555
H13 O5_2 1_555 1_555
Co7 O1 1_555 1_555
N6 Co1 1_555 1_555
O10 Co1 1_555 1_555
O13 Co1 1_555 1_555
C11 C12 1_555 1_555
C11 N1 1_555 1_555
C22 C23 1_555 1_555
O7 C22 1_555 1_555
Co6 O7 1_555 1_555
Br1 C20 1_555 1_555
Br2 C21 1_555 1_555
C13 C6 1_555 1_555
C14 C13 1_555 1_555
H8 C14 1_555 1_555
C15 C14 1_555 1_555
H9 C15 1_555 1_555
C16 H10 1_555 1_555
C17 C13 1_555 1_555
H11 C17 1_555 1_555
C20 C21 1_555 1_555
N2 C15 1_555 1_555
Co4 N2 1_555 1_555
C16 C17 1_555 1_555
C16 N2 1_555 1_555
Br1_2 C20_2 1_555 1_555
Br2_2 C21_2 1_555 1_555
C20_2 C21_2 1_555 1_555
C21_2 C23_2 1_555 1_555
C22_2 C23_2 1_555 1_555
O7_2 C22_2 1_555 1_555
Co5 O7_2 1_555 1_555
C18_2 C19_2 1_555 1_555
O13 C18_2 1_555 1_555
Br3_2 C24_2 1_555 1_555
Br4_2 C25_2 1_555 1_555
C24_2 C25_2 1_555 1_555
C25_2 C19_2 1_555 1_555
Co6 O6_2 1_555 1_555
Br3_3 C24_3 1_555 1_555
Br4_3 C25_3 1_555 1_555
C22_3 C23_3 1_555 1_555
C23_3 C24_3 1_555 1_555
C24_3 C25_3 1_555 1_555
O6_3 C22_3 1_555 1_555
O7_3 C22_3 1_555 1_555
C26_2 C27_2 1_555 1_555
O8_2 C26_2 1_555 1_555
O9_2 C26_2 1_555 1_555
Co7 O6_3 1_555 1_555
Co8 O7_3 1_555 1_555
Co6 O8_2 1_555 1_555
Co3 N1_2 1_555 1_555
Br1_3 C20_3 1_555 1_555
Br2_3 C21_3 1_555 1_555
C1_2 C2_2 1_555 1_555
C2_2 C3_2 1_555 1_555
C3_2 H1_2 1_555 1_555
C4_2 C3_2 1_555 1_555
C5_2 C4_2 1_555 1_555
H2_2 C5_2 1_555 1_555
C6_2 C5_2 1_555 1_555
C7_2 C2_2 1_555 1_555
H3_2 C7_2 1_555 1_555
C8_2 C4_2 1_555 1_555
C9_2 C8_2 1_555 1_555
H4_2 C9_2 1_555 1_555
C10_2 C9_2 1_555 1_555
H5_2 C10_2 1_555 1_555
C11_2 H6_2 1_555 1_555
C12_2 C8_2 1_555 1_555
H7_2 C12_2 1_555 1_555
C13_2 C6_2 1_555 1_555
C14_2 C13_2 1_555 1_555
H8_2 C14_2 1_555 1_555
C15_2 C14_2 1_555 1_555
H9_2 C15_2 1_555 1_555
C16_2 H10_2 1_555 1_555
C17_2 C13_2 1_555 1_555
H11_2 C17_2 1_555 1_555
C18_3 C19_3 1_555 1_555
C19_3 C20_3 1_555 1_555
C20_3 C21_3 1_555 1_555
N1_2 C10_2 1_555 1_555
N5 C15_2 1_555 1_555
O1_2 C1_2 1_555 1_555
O2_2 C1_2 1_555 1_555
O3_2 Co3 1_555 1_555
O4_2 C18_3 1_555 1_555
O5_3 Co3 1_555 1_555
H12_2 O5_3 1_555 1_555
H13_2 O5_3 1_555 1_555
Co4 O4_2 1_555 1_555
C29_2 C28_2 1_555 1_555
C30_2 C29_2 1_555 1_555
H15_2 C30_2 1_555 1_555
C31_2 C30_2 1_555 1_555
H16_2 C32_2 1_555 1_555
C33_2 C29_2 1_555 1_555
C34_2 C33_2 1_555 1_555
C35_2 C34_2 1_555 1_555
H18_2 C35_2 1_555 1_555
C36_2 H19_2 1_555 1_555
C37_2 C33_2 1_555 1_555
H20_2 C37_2 1_555 1_555
C38_2 C31_2 1_555 1_555
C39_2 C38_2 1_555 1_555
H21_2 C39_2 1_555 1_555
C40_2 C39_2 1_555 1_555
H22_2 C40_2 1_555 1_555
C41_2 H23_2 1_555 1_555
C42_2 C38_2 1_555 1_555
H24_2 C42_2 1_555 1_555
N3_2 Co4 1_555 1_555
N6 C40_2 1_555 1_555
Co5 O1_2 1_555 1_555
O10_2 Co3 1_555 1_555
O11_2 Co4 1_555 1_555
O12_2 Co4 1_555 1_555
O13_2 Co3 1_555 1_555
C6_2 C7_2 1_555 1_555
C11_2 C12_2 1_555 1_555
C11_2 N1_2 1_555 1_555
C16_2 C17_2 1_555 1_555
C16_2 N5 1_555 1_555
C18_3 O3_2 1_555 1_555
O5_3 Co4 1_555 1_555
C31_2 C32_2 1_555 1_555
C35_2 N3_2 1_555 1_555
C36_2 C37_2 1_555 1_555
C36_2 N3_2 1_555 1_555
C41_2 C42_2 1_555 1_555
C41_2 N6 1_555 1_555
Br1_4 C20_4 1_555 1_555
Br2_4 C21_4 1_555 1_555
C18_4 C19_4 1_555 1_555
C19_4 C20_4 1_555 1_555
C20_4 C21_4 1_555 1_555
C21_4 C23_4 1_555 1_555
O13_2 C18_4 1_555 1_555
Br3_4 C24_4 1_555 1_555
Br4_4 C25_4 1_555 1_555
C22_4 C23_4 1_555 1_555
C23_4 C24_4 1_555 1_555
C24_4 C25_4 1_555 1_555
C25_4 C19_4 1_555 1_555
O6_4 C22_4 1_555 1_555
O7_4 C22_4 1_555 1_555
Co8 O6_4 1_555 1_555
Co7 O7_4 1_555 1_555
C18_4 O12_2 1_555 1_555
C13_3 C6_3 1_555 1_555
C14_3 C13_3 1_555 1_555
H8_3 C14_3 1_555 1_555
C15_3 C14_3 1_555 1_555
H9_3 C15_3 1_555 1_555
C16_3 H10_3 1_555 1_555
C17_3 C13_3 1_555 1_555
H11_3 C17_3 1_555 1_555
N2_2 C15_3 1_555 1_555
Co8 N2_2 1_555 1_555
C16_3 C17_3 1_555 1_555
C16_3 N2_2 1_555 1_555
Co5 N1_3 1_555 1_555
C1_3 C2_3 1_555 1_555
C2_3 C3_3 1_555 1_555
C3_3 H1_3 1_555 1_555
C4_3 C3_3 1_555 1_555
C5_3 C4_3 1_555 1_555
C7_3 C2_3 1_555 1_555
H3_3 C7_3 1_555 1_555
C8_3 C4_3 1_555 1_555
C9_3 C8_3 1_555 1_555
H4_3 C9_3 1_555 1_555
C10_3 C9_3 1_555 1_555
H5_3 C10_3 1_555 1_555
C11_3 H6_3 1_555 1_555
C12_3 C8_3 1_555 1_555
H7_3 C12_3 1_555 1_555
N1_3 C10_3 1_555 1_555
O10_2 C1_3 1_555 1_555
O2_3 C1_3 1_555 1_555
O5_4 Co5 1_555 1_555
H13_3 O5_4 1_555 1_555
N6_2 Co5 1_555 1_555
C11_3 C12_3 1_555 1_555
C11_3 N1_3 1_555 1_555
C38_3 C31_3 1_555 1_555
C39_3 C38_3 1_555 1_555
H21_3 C39_3 1_555 1_555
C40_3 C39_3 1_555 1_555
H22_3 C40_3 1_555 1_555
C41_3 H23_3 1_555 1_555
C42_3 C38_3 1_555 1_555
H24_3 C42_3 1_555 1_555
N4_2 C40_3 1_555 1_555
Co7 N4_2 1_555 1_555
C41_3 C42_3 1_555 1_555
C41_3 N4_2 1_555 1_555
H12_3 O5_5 1_555 1_555
C29_3 C28_3 1_555 1_555
C30_3 C29_3 1_555 1_555
H16_3 C32_3 1_555 1_555
C33_3 C29_3 1_555 1_555
C34_3 C33_3 1_555 1_555
C35_3 C34_3 1_555 1_555
H18_3 C35_3 1_555 1_555
C36_3 H19_3 1_555 1_555
C37_3 C33_3 1_555 1_555
H20_3 C37_3 1_555 1_555
N3_3 Co6 1_555 1_555
N5_2 Co6 1_555 1_555
O5_5 Co6 1_555 1_555
C35_3 N3_3 1_555 1_555
C36_3 C37_3 1_555 1_555
C36_3 N3_3 1_555 1_555
C26_3 C27_3 1_555 1_555
O11_2 C26_3 1_555 1_555
O9_3 C26_3 1_555 1_555
Co7 N1_4 1_555 1_555
C1_4 C2_4 1_555 1_555
C2_4 C3_4 1_555 1_555
C3_4 H1_4 1_555 1_555
C4_4 C3_4 1_555 1_555
C5_4 C4_4 1_555 1_555
H2_4 C5_4 1_555 1_555
C6_4 C5_4 1_555 1_555
C7_4 C2_4 1_555 1_555
H3_4 C7_4 1_555 1_555
C8_4 C4_4 1_555 1_555
C9_4 C8_4 1_555 1_555
H4_4 C9_4 1_555 1_555
C10_4 C9_4 1_555 1_555
H5_4 C10_4 1_555 1_555
C11_4 H6_4 1_555 1_555
C12_4 C8_4 1_555 1_555
H7_4 C12_4 1_555 1_555
C13_4 C6_4 1_555 1_555
C14_4 C13_4 1_555 1_555
H8_4 C14_4 1_555 1_555
C15_4 C14_4 1_555 1_555
H9_4 C15_4 1_555 1_555
C16_4 H10_4 1_555 1_555
C17_4 C13_4 1_555 1_555
H11_4 C17_4 1_555 1_555
N1_4 C10_4 1_555 1_555
N5_2 C15_4 1_555 1_555
O10 C1_4 1_555 1_555
O2_4 C1_4 1_555 1_555
O5_6 Co7 1_555 1_555
H12_4 O5_6 1_555 1_555
H13_4 O5_6 1_555 1_555
C29_4 C28_4 1_555 1_555
C30_4 C29_4 1_555 1_555
H15_4 C30_4 1_555 1_555
C31_4 C30_4 1_555 1_555
H16_4 C32_4 1_555 1_555
C33_4 C29_4 1_555 1_555
C34_4 C33_4 1_555 1_555
C35_4 C34_4 1_555 1_555
H18_4 C35_4 1_555 1_555
C36_4 H19_4 1_555 1_555
C37_4 C33_4 1_555 1_555
H20_4 C37_4 1_555 1_555
C38_4 C31_4 1_555 1_555
C39_4 C38_4 1_555 1_555
H21_4 C39_4 1_555 1_555
C40_4 C39_4 1_555 1_555
H22_4 C40_4 1_555 1_555
C41_4 H23_4 1_555 1_555
C42_4 C38_4 1_555 1_555
H24_4 C42_4 1_555 1_555
N3_4 Co8 1_555 1_555
N6_2 C40_4 1_555 1_555
C6_4 C7_4 1_555 1_555
C11_4 C12_4 1_555 1_555
C11_4 N1_4 1_555 1_555
C16_4 C17_4 1_555 1_555
C16_4 N5_2 1_555 1_555
O5_6 Co8 1_555 1_555
C31_4 C32_4 1_555 1_555
C35_4 N3_4 1_555 1_555
C36_4 C37_4 1_555 1_555
C36_4 N3_4 1_555 1_555
C41_4 C42_4 1_555 1_555
C41_4 N6_2 1_555 1_555
C26_4 C27_4 1_555 1_555
O11 C26_4 1_555 1_555
O9_4 C26_4 1_555 1_555

#END
