
###############################################################################
#
# This file contains modified crystal structure data generated from the
# MOF subset of the Cambridge Structural Database (CSD) v543 
# hosted by the Cambridge Crystallographic Data Centre (CCDC).
#
# This work is licensed under the Creative Commons
# Attribution-NonCommercial-ShareAlike 4.0 International License.
# To view a copy of this license, visit
# http://creativecommons.org/licenses/by-nc-sa/4.0/
# or send a letter to
# Creative Commons, PO Box 1866, Mountain View, CA 94042, USA.
#
# CIF created using the CSD Python API on 29 September 2022
# The structure has been converted into the P1 space group
# The structure has a 3D framework
# The original CSD entry ELUJEC is in the orthorhombic crystal system
# The framework has been calculated to contain at least 10.0% void space
# The void calculation uses a probe of radius 1.32A, grid spacing 0.4
#
###############################################################################

data_ELUJEC
_chemical_formula_moiety         '(C128 H80 N16 O80 Tb8 Zn6)n'
_symmetry_cell_setting           triclinic
_symmetry_space_group_name_H-M   'P 1'
_symmetry_Int_Tables_number      1
_space_group_name_Hall           'P 1'
loop_
_symmetry_equiv_pos_site_id
_symmetry_equiv_pos_as_xyz
1 x,y,z
_cell_length_a                   13.368(3)
_cell_length_b                   23.922(5)
_cell_length_c                   13.092(3)
_cell_angle_alpha                90
_cell_angle_beta                 90
_cell_angle_gamma                90
_cell_volume                     4186.68
loop_
_atom_site_label
_atom_site_type_symbol
_atom_site_fract_x
_atom_site_fract_y
_atom_site_fract_z
Zn5 Zn 0.0000 0.5000 0.1094(3)
Zn3 Zn -0.0000 0.5000 0.6094(3)
Tb4 Tb 0.94244(2) 0.656500(14) 0.11083(8)
Tb5 Tb 0.05756(2) 0.343500(14) 0.11083(8)
Zn5_2 Zn 1.0000 0.5000 0.1094(3)
O1 O 0.0706(6) 0.4247(4) 0.9972(7)
O2 O 0.1964(7) 0.3643(4) 0.9933(7)
C1 C 0.1578(9) 0.4108(5) 0.9650(9)
Tb1 Tb 0.05756(2) 0.656500(14) 0.61083(8)
O6 O 0.0657(6) 0.5617(4) 0.7063(7)
O7 O 0.0079(7) 0.6901(4) 0.4448(7)
O8 O 0.0230(9) 0.6799(4) 0.7810(8)
H6 H 0.0646 0.6625 0.8263
O9 O 0.1959(7) 0.6160(4) 0.7047(8)
C9 C 0.3198(7) 0.5273(5) 0.7825(8)
H7 H 0.3549 0.5555 0.7491
C10 C 0.1634(6) 0.4892(4) 0.8451(8)
H8 H 0.0940 0.4912 0.8485
N1 N 0.4767(7) 0.4778(4) 0.8306(7)
C12 C 0.2162(8) 0.5276(5) 0.7843(9)
C13 C 0.2131(8) 0.4485(5) 0.8999(10)
C14 C 0.3710(8) 0.4835(4) 0.8321(8)
C15 C 0.3177(8) 0.4438(5) 0.8865(9)
H10 H 0.3513 0.4135 0.9148
C16 C 0.1559(8) 0.5717(5) 0.7261(9)
O11 O 0.9294(6) 0.5753(4) 0.9972(7)
O12 O 0.8036(7) 0.6357(4) 0.9933(7)
C17 C 0.8422(9) 0.5892(5) 0.9650(9)
O13 O 0.9343(6) 0.4383(4) 0.7063(7)
O14 O 0.8041(7) 0.3840(4) 0.7047(8)
C18 C 0.6802(7) 0.4727(5) 0.7825(8)
H11 H 0.6451 0.4445 0.7491
C19 C 0.8366(6) 0.5108(4) 0.8451(8)
H12 H 0.9060 0.5088 0.8485
N3 N 0.5233(7) 0.5222(4) 0.8306(7)
C20 C 0.7838(8) 0.4724(5) 0.7843(9)
C21 C 0.7869(8) 0.5515(5) 0.8999(10)
C22 C 0.6290(8) 0.5165(4) 0.8321(8)
C23 C 0.6823(8) 0.5562(5) 0.8865(9)
H13 H 0.6487 0.5865 0.9148
C24 C 0.8441(8) 0.4283(5) 0.7261(9)
O23 O 0.0706(6) 0.5753(4) 0.4972(7)
O25 O 0.1964(7) 0.6357(4) 0.4933(7)
O26 O 0.1307(5) 0.4666(3) 0.5841(6)
O28 O 0.1450(5) 0.7405(2) 0.6092(12)
Tb3 Tb 0.94244(2) 0.343500(14) 0.61083(8)
Zn3_2 Zn 1.0000 0.5000 0.6094(3)
O3 O 0.8693(5) 0.5334(3) 0.5841(6)
O4 O 0.6450(5) 0.7595(2) 0.6092(12)
O5 O 0.4839(5) 0.7399(3) 0.6182(10)
C2 C 0.5732(6) 0.7250(4) 0.6111(16)
C3 C 0.6015(7) 0.6635(3) 0.6011(12)
C4 C 0.6628(7) 0.5523(4) 0.5820(7)
H1 H 0.6837 0.5156 0.5720
C5 C 0.7320(7) 0.5945(4) 0.5939(14)
C6 C 0.7003(7) 0.6503(4) 0.6003(12)
H2 H 0.7476 0.6787 0.6040
H3 H 0.9727 0.6627 0.4027
H4 H 0.9624 0.7220 0.4460
H5 H 0.9594 0.6706 0.7998
C7 C 0.8436(7) 0.5830(4) 0.5956(11)
C8 C 0.5606(6) 0.5652(5) 0.5851(7)
O10 O 0.8991(4) 0.6239(2) 0.6049(9)
C11 C 0.5295(7) 0.6208(4) 0.5992(10)
H9 H 0.4620 0.6291 0.6071
N2 N 0.4831(7) 0.5240(3) 0.5811(6)
O16 O 0.3550(5) 0.2405(2) 0.6092(12)
O17 O 0.5161(5) 0.2601(3) 0.6182(10)
C25 C 0.4268(6) 0.2750(4) 0.6111(16)
C26 C 0.3985(7) 0.3365(3) 0.6011(12)
C27 C 0.3372(7) 0.4477(4) 0.5820(7)
H14 H 0.3163 0.4844 0.5720
C28 C 0.2680(7) 0.4055(4) 0.5939(14)
C29 C 0.2997(7) 0.3497(4) 0.6003(12)
H15 H 0.2524 0.3213 0.6040
C30 C 0.1564(7) 0.4170(4) 0.5956(11)
C31 C 0.4394(6) 0.4348(5) 0.5851(7)
O18 O 0.1009(4) 0.3761(2) 0.6049(9)
C32 C 0.4705(7) 0.3792(4) 0.5992(10)
H16 H 0.5380 0.3709 0.6071
N4 N 0.5169(7) 0.4760(3) 0.5811(6)
H17 H 0.0273 0.3373 0.4027
H18 H 0.0376 0.2780 0.4460
H19 H 0.0406 0.3294 0.7998
O22 O 0.9294(6) 0.4247(4) 0.4972(7)
O29 O 0.0161(5) 0.2399(3) 0.6182(10)
O30 O 0.9839(5) 0.7601(3) 0.6182(10)
Tb6 Tb 0.44244(2) 0.156500(14) 0.61083(8)
Tb7 Tb 0.55756(2) 0.843500(14) 0.61083(8)
O19 O 0.9921(7) 0.3099(4) 0.4448(7)
O20 O 0.9770(9) 0.3201(4) 0.7810(8)
H20 H 0.9354 0.3375 0.8263
O24 O 0.8036(7) 0.3643(4) 0.4933(7)
O27 O 0.8550(5) 0.2595(2) 0.6092(12)
O20_2 O 0.0230(9) 0.3201(4) 0.2810(8)
H20_2 H 0.0646 0.3375 0.3263
O27_2 O 0.1450(5) 0.2595(2) 0.1092(12)
O31 O 0.0657(6) 0.4383(4) 0.2063(7)
O33 O 0.1959(7) 0.3840(4) 0.2047(8)
O19_2 O 0.0079(7) 0.3099(4) 0.9448(7)
O3_2 O 0.1307(5) 0.5334(3) 0.0841(6)
O4_2 O 0.3550(5) 0.7595(2) 0.1092(12)
O5_2 O 0.5161(5) 0.7399(3) 0.1182(10)
C2_2 C 0.4268(6) 0.7250(4) 0.1111(16)
C3_2 C 0.3985(7) 0.6635(3) 0.1011(12)
C4_2 C 0.3372(7) 0.5523(4) 0.0820(7)
H1_2 H 0.3163 0.5156 0.0720
C5_2 C 0.2680(7) 0.5945(4) 0.0939(14)
C6_2 C 0.2997(7) 0.6503(4) 0.1003(12)
H2_2 H 0.2524 0.6787 0.1040
H5_2 H 0.0406 0.6706 0.2998
C7_2 C 0.1564(7) 0.5830(4) 0.0956(11)
C8_2 C 0.4394(6) 0.5652(5) 0.0851(7)
O10_2 O 0.1009(4) 0.6239(2) 0.1049(9)
C11_2 C 0.4705(7) 0.6208(4) 0.0992(10)
H9_2 H 0.5380 0.6291 0.1071
N2_2 N 0.5169(7) 0.5240(3) 0.0811(6)
O15 O 0.8693(5) 0.4666(3) 0.0841(6)
O16_2 O 0.6450(5) 0.2405(2) 0.1092(12)
O17_2 O 0.4839(5) 0.2601(3) 0.1182(10)
C25_2 C 0.5732(6) 0.2750(4) 0.1111(16)
C26_2 C 0.6015(7) 0.3365(3) 0.1011(12)
C27_2 C 0.6628(7) 0.4477(4) 0.0820(7)
H14_2 H 0.6837 0.4844 0.0720
C28_2 C 0.7320(7) 0.4055(4) 0.0939(14)
C29_2 C 0.7003(7) 0.3497(4) 0.1003(12)
H15_2 H 0.7476 0.3213 0.1040
C30_2 C 0.8436(7) 0.4170(4) 0.0956(11)
C31_2 C 0.5606(6) 0.4348(5) 0.0851(7)
O18_2 O 0.8991(4) 0.3761(2) 0.1049(9)
C32_2 C 0.5295(7) 0.3792(4) 0.0992(10)
H16_2 H 0.4620 0.3709 0.1071
N4_2 N 0.4831(7) 0.4760(3) 0.0811(6)
H19_2 H 0.9594 0.3294 0.2998
O29_2 O 0.9839(5) 0.2399(3) 0.1182(10)
O30_2 O 0.0161(5) 0.7601(3) 0.1182(10)
Tb6_2 Tb 0.55756(2) 0.156500(14) 0.11083(8)
Tb7_2 Tb 0.44244(2) 0.843500(14) 0.11083(8)
H3_2 H 0.0273 0.6627 0.9027
H4_2 H 0.0376 0.7220 0.9460
H17_2 H 0.9727 0.3373 0.9027
H18_2 H 0.9624 0.2780 0.9460
C1_2 C 0.8422(9) 0.4108(5) 0.4650(9)
O6_2 O 0.9343(6) 0.5617(4) 0.2063(7)
O8_2 O 0.9770(9) 0.6799(4) 0.2810(8)
H6_2 H 0.9354 0.6625 0.3263
O9_2 O 0.8041(7) 0.6160(4) 0.2047(8)
C9_2 C 0.6802(7) 0.5273(5) 0.2825(8)
H7_2 H 0.6451 0.5555 0.2491
C10_2 C 0.8366(6) 0.4892(4) 0.3451(8)
H8_2 H 0.9060 0.4912 0.3485
N1_2 N 0.5233(7) 0.4778(4) 0.3306(7)
C12_2 C 0.7838(8) 0.5276(5) 0.2843(9)
C13_2 C 0.7869(8) 0.4485(5) 0.3999(10)
C14_2 C 0.6290(8) 0.4835(4) 0.3321(8)
C15_2 C 0.6823(8) 0.4438(5) 0.3865(9)
H10_2 H 0.6487 0.4135 0.4148
C16_2 C 0.8441(8) 0.5717(5) 0.2261(9)
C17_2 C 0.1578(9) 0.5892(5) 0.4650(9)
C18_2 C 0.3198(7) 0.4727(5) 0.2825(8)
H11_2 H 0.3549 0.4445 0.2491
C19_2 C 0.1634(6) 0.5108(4) 0.3451(8)
H12_2 H 0.0940 0.5088 0.3485
N3_2 N 0.4767(7) 0.5222(4) 0.3306(7)
C20_2 C 0.2162(8) 0.4724(5) 0.2843(9)
C21_2 C 0.2131(8) 0.5515(5) 0.3999(10)
C22_2 C 0.3710(8) 0.5165(4) 0.3321(8)
C23_2 C 0.3177(8) 0.5562(5) 0.3865(9)
H13_2 H 0.3513 0.5865 0.4148
C24_2 C 0.1559(8) 0.4283(5) 0.2261(9)
O28_2 O 0.8550(5) 0.7405(2) 0.1092(12)
O7_2 O 0.9921(7) 0.6901(4) 0.9448(7)
O11_2 O 0.4294(6) 0.0753(4) 0.4972(7)
O12_2 O 0.3036(7) 0.1357(4) 0.4933(7)
C17_3 C 0.3422(9) 0.0892(5) 0.4650(9)
C19_3 C 0.3366(6) 0.0108(4) 0.3451(8)
H12_3 H 0.4060 0.0088 0.3485
N3_3 N 0.0233(7) 0.0222(4) 0.3306(7)
C21_3 C 0.2869(8) 0.0515(5) 0.3999(10)
C22_3 C 0.1290(8) 0.0165(4) 0.3321(8)
C23_3 C 0.1823(8) 0.0562(5) 0.3865(9)
H13_3 H 0.1487 0.0865 0.4148
Zn3_3 Zn 0.5000 0.0000 0.1094(3)
Zn5_3 Zn 0.5000 0.0000 0.6094(3)
O13_2 O 0.4343(6) 0.9383(4) 0.2063(7)
O14_2 O 0.3041(7) 0.8840(4) 0.2047(8)
C18_3 C 0.1802(7) 0.9727(5) 0.2825(8)
H11_3 H 0.1451 0.9445 0.2491
C20_3 C 0.2838(8) 0.9724(5) 0.2843(9)
C24_3 C 0.3441(8) 0.9283(5) 0.2261(9)
Zn3_4 Zn 0.5000 1.0000 0.1094(3)
Zn5_4 Zn 0.5000 1.0000 0.6094(3)
O3_3 O 0.3693(5) 0.0334(3) 0.0841(6)
C2_3 C 0.0732(6) 0.2250(4) 0.1111(16)
C3_3 C 0.1015(7) 0.1635(3) 0.1011(12)
O6_3 O 0.5657(6) 0.0617(4) 0.2063(7)
C4_3 C 0.1628(7) 0.0523(4) 0.0820(7)
H1_3 H 0.1837 0.0156 0.0720
C5_3 C 0.2320(7) 0.0945(4) 0.0939(14)
C6_3 C 0.2003(7) 0.1503(4) 0.1003(12)
H2_3 H 0.2476 0.1787 0.1040
O8_3 O 0.5230(9) 0.1799(4) 0.2810(8)
H5_3 H 0.4594 0.1706 0.2998
H6_3 H 0.5646 0.1625 0.3263
C7_3 C 0.3436(7) 0.0830(4) 0.0956(11)
C8_3 C 0.0606(6) 0.0652(5) 0.0851(7)
O9_3 O 0.6959(7) 0.1160(4) 0.2047(8)
C9_3 C 0.8198(7) 0.0273(5) 0.2825(8)
H7_3 H 0.8549 0.0555 0.2491
O10_3 O 0.3991(4) 0.1239(2) 0.1049(9)
C11_3 C 0.0295(7) 0.1208(4) 0.0992(10)
C12_3 C 0.7162(8) 0.0276(5) 0.2843(9)
C16_3 C 0.6559(8) 0.0717(5) 0.2261(9)
O7_3 O 0.5079(7) 0.1901(4) 0.9448(7)
H3_3 H 0.4727 0.1627 0.9027
H4_3 H 0.4624 0.2220 0.9460
O23_2 O 0.5706(6) 0.0753(4) 0.9972(7)
O25_2 O 0.6964(7) 0.1357(4) 0.9933(7)
O1_2 O 0.5706(6) 0.9247(4) 0.4972(7)
O2_2 O 0.6964(7) 0.8643(4) 0.4933(7)
C1_3 C 0.6578(9) 0.9108(5) 0.4650(9)
C10_3 C 0.6634(6) 0.9892(4) 0.3451(8)
H8_3 H 0.5940 0.9912 0.3485
N1_3 N 0.9767(7) 0.9778(4) 0.3306(7)
C13_3 C 0.7131(8) 0.9485(5) 0.3999(10)
C14_3 C 0.8710(8) 0.9835(4) 0.3321(8)
C15_3 C 0.8177(8) 0.9438(5) 0.3865(9)
H10_3 H 0.8513 0.9135 0.4148
H16_3 H 0.0380 0.8709 0.1071
N4_3 N 0.0169(7) 0.9760(3) 0.0811(6)
O26_2 O 0.6307(5) 0.9666(3) 0.0841(6)
O22_2 O 0.4294(6) 0.9247(4) 0.9972(7)
H9_3 H 0.9620 0.1291 0.1071
N2_3 N 0.9831(7) 0.0240(3) 0.0811(6)
C25_3 C 0.9268(6) 0.7750(4) 0.1111(16)
C26_3 C 0.8985(7) 0.8365(3) 0.1011(12)
C27_3 C 0.8372(7) 0.9477(4) 0.0820(7)
H14_3 H 0.8163 0.9844 0.0720
C28_3 C 0.7680(7) 0.9055(4) 0.0939(14)
C29_3 C 0.7997(7) 0.8497(4) 0.1003(12)
H15_3 H 0.7524 0.8213 0.1040
C30_3 C 0.6564(7) 0.9170(4) 0.0956(11)
C31_3 C 0.9394(6) 0.9348(5) 0.0851(7)
O18_3 O 0.6009(4) 0.8761(2) 0.1049(9)
C32_3 C 0.9705(7) 0.8792(4) 0.0992(10)
O20_3 O 0.4770(9) 0.8201(4) 0.2810(8)
H19_3 H 0.5406 0.8294 0.2998
H20_3 H 0.4354 0.8375 0.3263
O19_3 O 0.4921(7) 0.8099(4) 0.9448(7)
H17_3 H 0.5273 0.8373 0.9027
H18_3 H 0.5376 0.7780 0.9460
O24_2 O 0.3036(7) 0.8643(4) 0.9933(7)
H9_4 H 0.0380 0.1291 0.6071
N2_4 N 0.0169(7) 0.0240(3) 0.5811(6)
O15_2 O 0.3693(5) 0.9666(3) 0.5841(6)
C25_4 C 0.0732(6) 0.7750(4) 0.6111(16)
C26_4 C 0.1015(7) 0.8365(3) 0.6011(12)
C27_4 C 0.1628(7) 0.9477(4) 0.5820(7)
H14_4 H 0.1837 0.9844 0.5720
C28_4 C 0.2320(7) 0.9055(4) 0.5939(14)
C29_4 C 0.2003(7) 0.8497(4) 0.6003(12)
H15_4 H 0.2476 0.8213 0.6040
C30_4 C 0.3436(7) 0.9170(4) 0.5956(11)
C31_4 C 0.0606(6) 0.9348(5) 0.5851(7)
O18_4 O 0.3991(4) 0.8761(2) 0.6049(9)
C32_4 C 0.0295(7) 0.8792(4) 0.5992(10)
O19_4 O 0.5079(7) 0.8099(4) 0.4448(7)
H17_4 H 0.4727 0.8373 0.4027
H18_4 H 0.4624 0.7780 0.4460
O20_4 O 0.5230(9) 0.8201(4) 0.7810(8)
H19_4 H 0.4594 0.8294 0.7998
H20_4 H 0.5646 0.8375 0.8263
O31_2 O 0.5657(6) 0.9383(4) 0.7063(7)
O33_2 O 0.6959(7) 0.8840(4) 0.7047(8)
O3_4 O 0.6307(5) 0.0334(3) 0.5841(6)
C2_4 C 0.9268(6) 0.2250(4) 0.6111(16)
C3_4 C 0.8985(7) 0.1635(3) 0.6011(12)
O6_4 O 0.4343(6) 0.0617(4) 0.7063(7)
C4_4 C 0.8372(7) 0.0523(4) 0.5820(7)
H1_4 H 0.8163 0.0156 0.5720
C5_4 C 0.7680(7) 0.0945(4) 0.5939(14)
C6_4 C 0.7997(7) 0.1503(4) 0.6003(12)
H2_4 H 0.7524 0.1787 0.6040
O7_4 O 0.4921(7) 0.1901(4) 0.4448(7)
H3_4 H 0.5273 0.1627 0.4027
H4_4 H 0.5376 0.2220 0.4460
O8_4 O 0.4770(9) 0.1799(4) 0.7810(8)
H5_4 H 0.5406 0.1706 0.7998
H6_4 H 0.4354 0.1625 0.8263
C7_4 C 0.6564(7) 0.0830(4) 0.5956(11)
C8_4 C 0.9394(6) 0.0652(5) 0.5851(7)
O9_4 O 0.3041(7) 0.1160(4) 0.7047(8)
C9_4 C 0.1802(7) 0.0273(5) 0.7825(8)
H7_4 H 0.1451 0.0555 0.7491
O10_4 O 0.6009(4) 0.1239(2) 0.6049(9)
C11_4 C 0.9705(7) 0.1208(4) 0.5992(10)
C12_4 C 0.2838(8) 0.0276(5) 0.7843(9)
C16_4 C 0.3441(8) 0.0717(5) 0.7261(9)
C1_4 C 0.3422(9) 0.9108(5) 0.9650(9)
C10_4 C 0.3366(6) 0.9892(4) 0.8451(8)
H8_4 H 0.4060 0.9912 0.8485
N1_4 N 0.0233(7) 0.9778(4) 0.8306(7)
C13_4 C 0.2869(8) 0.9485(5) 0.8999(10)
C14_4 C 0.1290(8) 0.9835(4) 0.8321(8)
C15_4 C 0.1823(8) 0.9438(5) 0.8865(9)
H10_4 H 0.1487 0.9135 0.9148
H16_4 H 0.9620 0.8709 0.6071
N4_4 N 0.9831(7) 0.9760(3) 0.5811(6)
C17_4 C 0.6578(9) 0.0892(5) 0.9650(9)
C19_4 C 0.6634(6) 0.0108(4) 0.8451(8)
H12_4 H 0.5940 0.0088 0.8485
N3_4 N 0.9767(7) 0.0222(4) 0.8306(7)
C21_4 C 0.7131(8) 0.0515(5) 0.8999(10)
C22_4 C 0.8710(8) 0.0165(4) 0.8321(8)
C23_4 C 0.8177(8) 0.0562(5) 0.8865(9)
H13_4 H 0.8513 0.0865 0.9148
C18_4 C 0.8198(7) 0.9727(5) 0.7825(8)
H11_4 H 0.8549 0.9445 0.7491
C20_4 C 0.7162(8) 0.9724(5) 0.7843(9)
C24_4 C 0.6559(8) 0.9283(5) 0.7261(9)
loop_
_geom_bond_atom_site_label_1
_geom_bond_atom_site_label_2
_geom_bond_site_symmetry_1
_geom_bond_site_symmetry_2
O1 C1 1_555 1_555
O2 C1 1_555 1_555
C1 C13 1_555 1_555
Tb1 O6 1_555 1_555
Zn3 O6 1_555 1_555
O6 C16 1_555 1_555
O7 Tb1 1_555 1_555
O8 Tb1 1_555 1_555
H6 O8 1_555 1_555
O9 Tb1 1_555 1_555
C9 H7 1_555 1_555
C10 H8 1_555 1_555
N1 C14 1_555 1_555
C12 C9 1_555 1_555
C13 C10 1_555 1_555
C14 C9 1_555 1_555
C15 C13 1_555 1_555
H10 C15 1_555 1_555
C16 O9 1_555 1_555
O11 C17 1_555 1_555
O12 C17 1_555 1_555
C17 C21 1_555 1_555
O13 C24 1_555 1_555
O14 C24 1_555 1_555
C18 H11 1_555 1_555
C19 H12 1_555 1_555
N3 N1 1_555 1_555
C20 C18 1_555 1_555
C21 C19 1_555 1_555
C22 C18 1_555 1_555
C23 C21 1_555 1_555
H13 C23 1_555 1_555
C24 C20 1_555 1_555
O23 Tb1 1_555 1_555
O25 Tb1 1_555 1_555
O26 Zn3 1_555 1_555
O28 Tb1 1_555 1_555
Tb3 O13 1_555 1_555
Zn3_2 O13 1_555 1_555
Zn3 O23 1_555 1_555
C10 C12 1_555 1_555
C12 C16 1_555 1_555
C14 C15 1_555 1_555
O14 Tb3 1_555 1_555
C19 C20 1_555 1_555
N3 C22 1_555 1_555
C22 C23 1_555 1_555
O3 Zn3_2 1_555 1_555
O4 C2 1_555 1_555
O5 C2 1_555 1_555
C2 C3 1_555 1_555
C3 C6 1_555 1_555
C4 H1 1_555 1_555
C5 C4 1_555 1_555
C6 C5 1_555 1_555
H2 C6 1_555 1_555
C7 O3 1_555 1_555
C8 C4 1_555 1_555
C11 C3 1_555 1_555
H9 C11 1_555 1_555
N2 C8 1_555 1_555
O26 C30 1_555 1_555
O16 C25 1_555 1_555
O17 C25 1_555 1_555
C25 C26 1_555 1_555
C26 C29 1_555 1_555
C27 H14 1_555 1_555
C28 C27 1_555 1_555
C29 C28 1_555 1_555
H15 C29 1_555 1_555
C30 C28 1_555 1_555
C31 C27 1_555 1_555
O18 C30 1_555 1_555
C32 C26 1_555 1_555
H16 C32 1_555 1_555
N4 N2 1_555 1_555
O22 Zn3_2 1_555 1_555
Tb6 O16 1_555 1_555
Tb7 O4 1_555 1_555
O5 Tb7 1_555 1_555
C5 C7 1_555 1_555
C7 O10 1_555 1_555
C8 C11 1_555 1_555
O17 Tb6 1_555 1_555
C31 C32 1_555 1_555
C31 N4 1_555 1_555
O19 Tb3 1_555 1_555
O20 Tb3 1_555 1_555
H20 O20 1_555 1_555
O22 Tb3 1_555 1_555
O24 Tb3 1_555 1_555
O27 Tb3 1_555 1_555
O20_2 Tb5 1_555 1_555
H20_2 O20_2 1_555 1_555
O27_2 Tb5 1_555 1_555
O31 Tb5 1_555 1_555
O33 Tb5 1_555 1_555
Zn5 O31 1_555 1_555
O3_2 Zn5 1_555 1_555
O4_2 C2_2 1_555 1_555
O5_2 C2_2 1_555 1_555
C2_2 C3_2 1_555 1_555
C3_2 C6_2 1_555 1_555
C4_2 H1_2 1_555 1_555
C5_2 C4_2 1_555 1_555
C6_2 C5_2 1_555 1_555
H2_2 C6_2 1_555 1_555
C7_2 O3_2 1_555 1_555
C8_2 C4_2 1_555 1_555
C11_2 C3_2 1_555 1_555
H9_2 C11_2 1_555 1_555
N2_2 C8_2 1_555 1_555
O15 C30_2 1_555 1_555
O16_2 C25_2 1_555 1_555
O17_2 C25_2 1_555 1_555
C25_2 C26_2 1_555 1_555
C26_2 C29_2 1_555 1_555
C27_2 H14_2 1_555 1_555
C28_2 C27_2 1_555 1_555
C29_2 C28_2 1_555 1_555
H15_2 C29_2 1_555 1_555
C30_2 C28_2 1_555 1_555
C31_2 C27_2 1_555 1_555
O18_2 C30_2 1_555 1_555
C32_2 C26_2 1_555 1_555
H16_2 C32_2 1_555 1_555
N4_2 N2_2 1_555 1_555
Tb6_2 O16_2 1_555 1_555
Tb7_2 O4_2 1_555 1_555
Zn5_2 O15 1_555 1_555
O5_2 Tb7_2 1_555 1_555
C5_2 C7_2 1_555 1_555
C7_2 O10_2 1_555 1_555
C8_2 C11_2 1_555 1_555
O17_2 Tb6_2 1_555 1_555
C31_2 C32_2 1_555 1_555
C31_2 N4_2 1_555 1_555
O22 C1_2 1_555 1_555
O24 C1_2 1_555 1_555
C1_2 C13_2 1_555 1_555
Tb4 O6_2 1_555 1_555
Zn5_2 O6_2 1_555 1_555
O6_2 C16_2 1_555 1_555
O8_2 Tb4 1_555 1_555
H6_2 O8_2 1_555 1_555
O9_2 Tb4 1_555 1_555
C9_2 H7_2 1_555 1_555
C10_2 H8_2 1_555 1_555
N1_2 C14_2 1_555 1_555
C12_2 C9_2 1_555 1_555
C13_2 C10_2 1_555 1_555
C14_2 C9_2 1_555 1_555
C15_2 C13_2 1_555 1_555
H10_2 C15_2 1_555 1_555
C16_2 O9_2 1_555 1_555
O23 C17_2 1_555 1_555
O25 C17_2 1_555 1_555
C17_2 C21_2 1_555 1_555
O31 C24_2 1_555 1_555
O33 C24_2 1_555 1_555
C18_2 H11_2 1_555 1_555
C19_2 H12_2 1_555 1_555
N3_2 N1_2 1_555 1_555
C20_2 C18_2 1_555 1_555
C21_2 C19_2 1_555 1_555
C22_2 C18_2 1_555 1_555
C23_2 C21_2 1_555 1_555
H13_2 C23_2 1_555 1_555
C24_2 C20_2 1_555 1_555
O28_2 Tb4 1_555 1_555
C10_2 C12_2 1_555 1_555
C12_2 C16_2 1_555 1_555
C14_2 C15_2 1_555 1_555
C19_2 C20_2 1_555 1_555
N3_2 C22_2 1_555 1_555
C22_2 C23_2 1_555 1_555
O11_2 C17_3 1_555 1_555
O12_2 C17_3 1_555 1_555
C17_3 C21_3 1_555 1_555
C19_3 H12_3 1_555 1_555
C21_3 C19_3 1_555 1_555
C23_3 C21_3 1_555 1_555
H13_3 C23_3 1_555 1_555
Tb6 O11_2 1_555 1_555
Zn5_3 O11_2 1_555 1_555
O12_2 Tb6 1_555 1_555
N3_3 C22_3 1_555 1_555
C22_3 C23_3 1_555 1_555
O13_2 C24_3 1_555 1_555
O14_2 C24_3 1_555 1_555
C18_3 H11_3 1_555 1_555
C20_3 C18_3 1_555 1_555
C24_3 C20_3 1_555 1_555
Tb7_2 O13_2 1_555 1_555
Zn3_4 O13_2 1_555 1_555
O14_2 Tb7_2 1_555 1_555
O3_3 Zn3_3 1_555 1_555
O27_2 C2_3 1_555 1_555
C2_3 C3_3 1_555 1_555
C3_3 C6_3 1_555 1_555
Tb6_2 O6_3 1_555 1_555
Zn3_3 O6_3 1_555 1_555
O6_3 C16_3 1_555 1_555
C4_3 H1_3 1_555 1_555
C5_3 C4_3 1_555 1_555
C6_3 C5_3 1_555 1_555
H2_3 C6_3 1_555 1_555
O8_3 Tb6_2 1_555 1_555
H5_3 O8_3 1_555 1_555
H6_3 O8_3 1_555 1_555
C7_3 O3_3 1_555 1_555
C8_3 C4_3 1_555 1_555
O9_3 Tb6_2 1_555 1_555
C9_3 H7_3 1_555 1_555
O10_3 Tb6_2 1_555 1_555
C11_3 C3_3 1_555 1_555
C12_3 C9_3 1_555 1_555
C16_3 O9_3 1_555 1_555
C5_3 C7_3 1_555 1_555
C7_3 O10_3 1_555 1_555
C8_3 C11_3 1_555 1_555
C12_3 C16_3 1_555 1_555
H3_3 O7_3 1_555 1_555
H4_3 O7_3 1_555 1_555
O1_2 C1_3 1_555 1_555
O2_2 C1_3 1_555 1_555
C1_3 C13_3 1_555 1_555
C10_3 H8_3 1_555 1_555
N1_3 C14_3 1_555 1_555
C13_3 C10_3 1_555 1_555
C15_3 C13_3 1_555 1_555
H10_3 C15_3 1_555 1_555
O26_2 Zn3_4 1_555 1_555
Tb7 O1_2 1_555 1_555
Zn5_4 O1_2 1_555 1_555
O2_2 Tb7 1_555 1_555
C14_3 C15_3 1_555 1_555
O26_2 C30_3 1_555 1_555
O28_2 C25_3 1_555 1_555
C25_3 C26_3 1_555 1_555
C26_3 C29_3 1_555 1_555
C27_3 H14_3 1_555 1_555
C28_3 C27_3 1_555 1_555
C29_3 C28_3 1_555 1_555
H15_3 C29_3 1_555 1_555
C30_3 C28_3 1_555 1_555
C31_3 C27_3 1_555 1_555
O18_3 C30_3 1_555 1_555
C32_3 C26_3 1_555 1_555
Tb7_2 O18_3 1_555 1_555
O20_3 Tb7_2 1_555 1_555
H19_3 O20_3 1_555 1_555
H20_3 O20_3 1_555 1_555
C31_3 C32_3 1_555 1_555
H17_3 O19_3 1_555 1_555
H18_3 O19_3 1_555 1_555
O15_2 C30_4 1_555 1_555
O28 C25_4 1_555 1_555
C25_4 C26_4 1_555 1_555
C26_4 C29_4 1_555 1_555
C27_4 H14_4 1_555 1_555
C28_4 C27_4 1_555 1_555
C29_4 C28_4 1_555 1_555
H15_4 C29_4 1_555 1_555
C30_4 C28_4 1_555 1_555
C31_4 C27_4 1_555 1_555
O18_4 C30_4 1_555 1_555
C32_4 C26_4 1_555 1_555
Tb7 O18_4 1_555 1_555
O19_4 Tb7 1_555 1_555
H17_4 O19_4 1_555 1_555
H18_4 O19_4 1_555 1_555
O20_4 Tb7 1_555 1_555
H19_4 O20_4 1_555 1_555
H20_4 O20_4 1_555 1_555
Zn5_4 O15_2 1_555 1_555
O31_2 Tb7 1_555 1_555
O33_2 Tb7 1_555 1_555
C31_4 C32_4 1_555 1_555
Zn5_4 O31_2 1_555 1_555
O3_4 Zn5_3 1_555 1_555
O27 C2_4 1_555 1_555
C2_4 C3_4 1_555 1_555
C3_4 C6_4 1_555 1_555
Tb6 O6_4 1_555 1_555
Zn5_3 O6_4 1_555 1_555
O6_4 C16_4 1_555 1_555
C4_4 H1_4 1_555 1_555
C5_4 C4_4 1_555 1_555
C6_4 C5_4 1_555 1_555
H2_4 C6_4 1_555 1_555
O7_4 Tb6 1_555 1_555
H3_4 O7_4 1_555 1_555
H4_4 O7_4 1_555 1_555
O8_4 Tb6 1_555 1_555
H5_4 O8_4 1_555 1_555
H6_4 O8_4 1_555 1_555
C7_4 O3_4 1_555 1_555
C8_4 C4_4 1_555 1_555
O9_4 Tb6 1_555 1_555
C9_4 H7_4 1_555 1_555
O10_4 Tb6 1_555 1_555
C11_4 C3_4 1_555 1_555
C12_4 C9_4 1_555 1_555
C16_4 O9_4 1_555 1_555
C5_4 C7_4 1_555 1_555
C7_4 O10_4 1_555 1_555
C8_4 C11_4 1_555 1_555
C12_4 C16_4 1_555 1_555
O22_2 C1_4 1_555 1_555
O24_2 C1_4 1_555 1_555
C1_4 C13_4 1_555 1_555
C10_4 H8_4 1_555 1_555
N1_4 C14_4 1_555 1_555
C13_4 C10_4 1_555 1_555
C15_4 C13_4 1_555 1_555
H10_4 C15_4 1_555 1_555
C14_4 C15_4 1_555 1_555
O23_2 C17_4 1_555 1_555
O25_2 C17_4 1_555 1_555
C17_4 C21_4 1_555 1_555
C19_4 H12_4 1_555 1_555
C21_4 C19_4 1_555 1_555
C23_4 C21_4 1_555 1_555
H13_4 C23_4 1_555 1_555
N3_4 C22_4 1_555 1_555
C22_4 C23_4 1_555 1_555
O31_2 C24_4 1_555 1_555
O33_2 C24_4 1_555 1_555
C18_4 H11_4 1_555 1_555
C20_4 C18_4 1_555 1_555
C24_4 C20_4 1_555 1_555

#END
