
###############################################################################
#
# This file contains modified crystal structure data generated from the
# MOF subset of the Cambridge Structural Database (CSD) v543 
# hosted by the Cambridge Crystallographic Data Centre (CCDC).
#
# This work is licensed under the Creative Commons
# Attribution-NonCommercial-ShareAlike 4.0 International License.
# To view a copy of this license, visit
# http://creativecommons.org/licenses/by-nc-sa/4.0/
# or send a letter to
# Creative Commons, PO Box 1866, Mountain View, CA 94042, USA.
#
# CIF created using the CSD Python API on 29 September 2022
# The structure has been converted into the P1 space group
# The structure has a 3D framework
# The original CSD entry ELUTIR is in the orthorhombic crystal system
# The framework has been calculated to contain at least 10.0% void space
# The void calculation uses a probe of radius 1.32A, grid spacing 0.4
# H atom positions have been added when not included in the experimental data
# Generated hydrogen atom positions removed from atoms on special positions
#
###############################################################################

data_ELUTIR
_chemical_formula_moiety         '(C340 H312 Eu36 N12 O136)n'
_symmetry_cell_setting           triclinic
_symmetry_space_group_name_H-M   'P 1'
_symmetry_Int_Tables_number      1
_space_group_name_Hall           'P 1'
loop_
_symmetry_equiv_pos_site_id
_symmetry_equiv_pos_as_xyz
1 x,y,z
_cell_length_a                   15.419(2)
_cell_length_b                   33.9048(15)
_cell_length_c                   35.582(2)
_cell_angle_alpha                90
_cell_angle_beta                 90
_cell_angle_gamma                90
_cell_volume                     18601.5
loop_
_atom_site_label
_atom_site_type_symbol
_atom_site_fract_x
_atom_site_fract_y
_atom_site_fract_z
Eu9 Eu 0.000000 0.22316(2) 0.07362(2)
Eu11 Eu 0.000000 0.77684(2) 0.07362(2)
C1 C 0.3599(10) 0.6522(3) 0.4062(3)
C2 C 0.3349(10) 0.6288(4) 0.3729(3)
C3 C 0.2729(10) 0.6001(4) 0.3752(4)
H1 H 0.249650 0.593053 0.398340
C4 C 0.2441(11) 0.5809(4) 0.3419(3)
H2 H 0.199220 0.562668 0.342987
C5 C 0.2832(11) 0.5896(3) 0.3075(3)
C6 C 0.3431(11) 0.6179(4) 0.3065(3)
H3 H 0.365643 0.625560 0.283389
C7 C 0.3741(11) 0.6370(4) 0.3401(3)
H4 H 0.420207 0.654646 0.339028
C8 C 0.2549(11) 0.5738(3) 0.2709(3)
C9 C 0.2484(11) 0.5336(3) 0.2618(3)
C10 C 0.2231(11) 0.5212(3) 0.2256(3)
C11 C 0.2091(12) 0.5478(4) 0.1969(3)
H5 H 0.197113 0.539243 0.172668
C12 C 0.2134(13) 0.5884(4) 0.2055(3)
C13 C 0.2379(10) 0.5997(3) 0.2419(3)
H6 H 0.243085 0.626580 0.246790
C14 C 0.1986(12) 0.6190(4) 0.1756(4)
C15 C 0.2280(12) 0.6149(4) 0.1393(3)
H7 H 0.262210 0.593261 0.133225
C16 C 0.2083(13) 0.6420(4) 0.1117(4)
H8 H 0.227028 0.638125 0.087133
C17 C 0.1584(12) 0.6763(4) 0.1216(3)
C18 C 0.1292(12) 0.6806(4) 0.1575(3)
H9 H 0.096262 0.702594 0.163826
C19 C 0.1482(12) 0.6521(3) 0.1853(3)
H10 H 0.127636 0.655174 0.209720
C20 C 0.1348(13) 0.7055(4) 0.0916(3)
C21 C 0.500000 0.5866(8) 0.500000
C22 C 0.500000 0.8613(8) 0.500000
N1 N 0.2615(14) 0.500000 0.2843(4)
H11 H 0.275175 0.499999 0.307771
O1 O 0.4082(6) 0.6812(2) 0.3992(2)
O2 O 0.3377(7) 0.6432(3) 0.4397(2)
O3 O 0.1627(7) 0.6986(3) 0.0589(2)
O4 O 0.0907(7) 0.7332(2) 0.1023(2)
O5 O 0.5793(9) 0.6007(3) 0.500000
O6 O 0.5880(13) 0.8450(3) 0.500000
O7 O 0.500000 0.6700(3) 0.4667(2)
O8 O 0.6184(5) 0.72199(18) 0.46551(15)
O9 O 0.500000 0.7747(3) 0.4663(2)
O10 O 0.7710(9) 0.7719(5) 0.500000
O11 O 0.7668(9) 0.6696(5) 0.500000
Eu1 Eu 0.500000 0.72316(2) 0.42638(2)
Eu2 Eu 0.62513(7) 0.77952(3) 0.500000
Eu3 Eu 0.62385(8) 0.66450(2) 0.500000
C23 C 0.3599(10) 0.3478(3) 0.4062(3)
C24 C 0.3349(10) 0.3712(4) 0.3729(3)
C25 C 0.2729(10) 0.3999(4) 0.3752(4)
H12 H 0.249650 0.406947 0.398340
C26 C 0.2441(11) 0.4191(4) 0.3419(3)
H13 H 0.199220 0.437332 0.342987
C27 C 0.2832(11) 0.4104(3) 0.3075(3)
C28 C 0.3431(11) 0.3821(4) 0.3065(3)
H14 H 0.365643 0.374440 0.283389
C29 C 0.3741(11) 0.3630(4) 0.3401(3)
H15 H 0.420207 0.345354 0.339028
C30 C 0.2549(11) 0.4262(3) 0.2709(3)
C31 C 0.2484(11) 0.4664(3) 0.2618(3)
C32 C 0.2231(11) 0.4788(3) 0.2256(3)
C33 C 0.2091(12) 0.4522(4) 0.1969(3)
H16 H 0.197113 0.460757 0.172668
C34 C 0.2134(13) 0.4116(4) 0.2055(3)
C35 C 0.2379(10) 0.4003(3) 0.2419(3)
H17 H 0.243085 0.373420 0.246790
C36 C 0.1986(12) 0.3810(4) 0.1756(4)
C37 C 0.2280(12) 0.3851(4) 0.1393(3)
H18 H 0.262210 0.406739 0.133225
C38 C 0.2083(13) 0.3580(4) 0.1117(4)
H19 H 0.227028 0.361875 0.087133
C39 C 0.1584(12) 0.3237(4) 0.1216(3)
C40 C 0.1292(12) 0.3194(4) 0.1575(3)
H20 H 0.096262 0.297406 0.163826
C41 C 0.1482(12) 0.3479(3) 0.1853(3)
H21 H 0.127636 0.344826 0.209720
C42 C 0.1348(13) 0.2945(4) 0.0916(3)
O12 O 0.4082(6) 0.3188(2) 0.3992(2)
O13 O 0.3377(7) 0.3568(3) 0.4397(2)
O14 O 0.1627(7) 0.3014(3) 0.0589(2)
O15 O 0.0907(7) 0.2668(2) 0.1023(2)
O16 O 0.4207(9) 0.6007(3) 0.500000
O17 O 0.4120(13) 0.8450(3) 0.500000
C43 C 0.6401(10) 0.3478(3) 0.4062(3)
C44 C 0.6651(10) 0.3712(4) 0.3729(3)
C45 C 0.7271(10) 0.3999(4) 0.3752(4)
H22 H 0.750350 0.406947 0.398340
C46 C 0.7559(11) 0.4191(4) 0.3419(3)
H23 H 0.800780 0.437332 0.342987
C47 C 0.7168(11) 0.4104(3) 0.3075(3)
C48 C 0.6569(11) 0.3821(4) 0.3065(3)
H24 H 0.634357 0.374440 0.283389
C49 C 0.6259(11) 0.3630(4) 0.3401(3)
H25 H 0.579793 0.345354 0.339028
C50 C 0.7451(11) 0.4262(3) 0.2709(3)
C51 C 0.7516(11) 0.4664(3) 0.2618(3)
C52 C 0.7769(11) 0.4788(3) 0.2256(3)
C53 C 0.7909(12) 0.4522(4) 0.1969(3)
H26 H 0.802887 0.460757 0.172668
C54 C 0.7866(13) 0.4116(4) 0.2055(3)
C55 C 0.7621(10) 0.4003(3) 0.2419(3)
H27 H 0.756915 0.373420 0.246790
C56 C 0.8014(12) 0.3810(4) 0.1756(4)
C57 C 0.7720(12) 0.3851(4) 0.1393(3)
H28 H 0.737790 0.406739 0.133225
C58 C 0.7917(13) 0.3580(4) 0.1117(4)
H29 H 0.772972 0.361875 0.087133
C59 C 0.8416(12) 0.3237(4) 0.1216(3)
C60 C 0.8708(12) 0.3194(4) 0.1575(3)
H30 H 0.903738 0.297406 0.163826
C61 C 0.8518(12) 0.3479(3) 0.1853(3)
H31 H 0.872364 0.344826 0.209720
C62 C 0.8652(13) 0.2945(4) 0.0916(3)
N2 N 0.7385(14) 0.500000 0.2843(4)
H32 H 0.724825 0.500001 0.307771
O18 O 0.5918(6) 0.3188(2) 0.3992(2)
O19 O 0.6623(7) 0.3568(3) 0.4397(2)
O20 O 0.8373(7) 0.3014(3) 0.0589(2)
O21 O 0.9093(7) 0.2668(2) 0.1023(2)
O22 O 0.500000 0.3300(3) 0.4667(2)
O23 O 0.3816(5) 0.27801(18) 0.46551(15)
O24 O 0.500000 0.2253(3) 0.4663(2)
O25 O 0.2290(9) 0.2281(5) 0.500000
O26 O 0.2332(9) 0.3304(5) 0.500000
Eu4 Eu 0.500000 0.27684(2) 0.42638(2)
Eu5 Eu 0.37487(7) 0.22048(3) 0.500000
Eu6 Eu 0.37615(8) 0.33550(2) 0.500000
C63 C 0.6401(10) 0.6522(3) 0.4062(3)
C64 C 0.6651(10) 0.6288(4) 0.3729(3)
C65 C 0.7271(10) 0.6001(4) 0.3752(4)
H33 H 0.750350 0.593053 0.398340
C66 C 0.7559(11) 0.5809(4) 0.3419(3)
H34 H 0.800780 0.562668 0.342987
C67 C 0.7168(11) 0.5896(3) 0.3075(3)
C68 C 0.6569(11) 0.6179(4) 0.3065(3)
H35 H 0.634357 0.625560 0.283389
C69 C 0.6259(11) 0.6370(4) 0.3401(3)
H36 H 0.579793 0.654646 0.339028
C70 C 0.7451(11) 0.5738(3) 0.2709(3)
C71 C 0.7516(11) 0.5336(3) 0.2618(3)
C72 C 0.7769(11) 0.5212(3) 0.2256(3)
C73 C 0.7909(12) 0.5478(4) 0.1969(3)
H37 H 0.802887 0.539243 0.172668
C74 C 0.7866(13) 0.5884(4) 0.2055(3)
C75 C 0.7621(10) 0.5997(3) 0.2419(3)
H38 H 0.756915 0.626580 0.246790
C76 C 0.8014(12) 0.6190(4) 0.1756(4)
C77 C 0.7720(12) 0.6149(4) 0.1393(3)
H39 H 0.737790 0.593261 0.133225
C78 C 0.7917(13) 0.6420(4) 0.1117(4)
H40 H 0.772972 0.638125 0.087133
C79 C 0.8416(12) 0.6763(4) 0.1216(3)
C80 C 0.8708(12) 0.6806(4) 0.1575(3)
H41 H 0.903738 0.702594 0.163826
C81 C 0.8518(12) 0.6521(3) 0.1853(3)
H42 H 0.872364 0.655174 0.209720
C82 C 0.8652(13) 0.7055(4) 0.0916(3)
O27 O 0.5918(6) 0.6812(2) 0.3992(2)
O28 O 0.6623(7) 0.6432(3) 0.4397(2)
O29 O 0.8373(7) 0.6986(3) 0.0589(2)
O30 O 0.9093(7) 0.7332(2) 0.1023(2)
O31 O 0.3816(5) 0.72199(18) 0.46551(15)
O32 O 0.6184(5) 0.72199(18) 0.53449(15)
O33 O 0.6623(7) 0.6432(3) 0.5603(2)
O34 O 0.3377(7) 0.3568(3) 0.5603(2)
O35 O 0.3373(7) 0.1986(3) 0.4411(2)
O36 O 0.6627(7) 0.8014(3) 0.4411(2)
O37 O 0.6627(7) 0.8014(3) 0.5589(2)
O38 O 0.3373(7) 0.1986(3) 0.5589(2)
O39 O 0.4093(7) 0.2332(2) 0.3977(2)
O40 O 0.5907(7) 0.7668(2) 0.3977(2)
O41 O 0.4093(7) 0.7668(2) 0.3977(2)
O42 O 0.5907(7) 0.2332(2) 0.3977(2)
O43 O 0.4207(9) 0.3993(3) 0.500000
O44 O 0.4120(13) 0.1550(3) 0.500000
O45 O 0.500000 0.6700(3) 0.5333(2)
O46 O 0.500000 0.3300(3) 0.5333(2)
O47 O 0.3816(5) 0.27801(18) 0.53449(15)
O48 O 0.6184(5) 0.27801(18) 0.46551(15)
O49 O 0.500000 0.7747(3) 0.5337(2)
O50 O 0.500000 0.2253(3) 0.5337(2)
Eu7 Eu 0.500000 0.72316(2) 0.57362(2)
Eu9_2 Eu 1.000000 0.22316(2) 0.07362(2)
Eu11_2 Eu 1.000000 0.77684(2) 0.07362(2)
Eu12 Eu 0.37487(7) 0.77952(3) 0.500000
Eu13 Eu 0.62513(7) 0.22048(3) 0.500000
Eu14 Eu 0.12513(7) 0.27952(3) 0.000000
Eu15 Eu 0.87487(7) 0.72048(3) 0.000000
Eu16 Eu 0.87487(7) 0.27952(3) 0.000000
Eu17 Eu 0.12513(7) 0.72048(3) 0.000000
Eu18 Eu 0.37615(8) 0.66450(2) 0.500000
Eu19 Eu 0.62385(8) 0.33550(2) 0.500000
H43 H 0.5 0.893419 0.5
H44 H 0.5 0.554481 0.5
Eu14_2 Eu 0.12513(7) 0.27952(3) 1.000000
Eu15_2 Eu 0.87487(7) 0.72048(3) 1.000000
Eu16_2 Eu 0.87487(7) 0.27952(3) 1.000000
Eu17_2 Eu 0.12513(7) 0.72048(3) 1.000000
C21_2 C 0.500000 0.4134(8) 0.500000
C22_2 C 0.500000 0.1387(8) 0.500000
O16_2 O 0.5793(9) 0.3993(3) 0.500000
O17_2 O 0.5880(13) 0.1550(3) 0.500000
Eu7_2 Eu 0.500000 0.27684(2) 0.57362(2)
H43_2 H 0.5 0.106581 0.5
H44_2 H 0.5 0.445519 0.5
Eu8 Eu 0.000000 0.22316(2) 0.92638(2)
Eu10 Eu 0.000000 0.77684(2) 0.92638(2)
C1_2 C 0.6401(10) 0.6522(3) 0.5938(3)
C2_2 C 0.6651(10) 0.6288(4) 0.6271(3)
C3_2 C 0.7271(10) 0.6001(4) 0.6248(4)
H1_2 H 0.750350 0.593053 0.601660
C4_2 C 0.7559(11) 0.5809(4) 0.6581(3)
H2_2 H 0.800780 0.562668 0.657013
C5_2 C 0.7168(11) 0.5896(3) 0.6925(3)
C6_2 C 0.6569(11) 0.6179(4) 0.6935(3)
H3_2 H 0.634357 0.625560 0.716611
C7_2 C 0.6259(11) 0.6370(4) 0.6599(3)
H4_2 H 0.579793 0.654646 0.660972
C8_2 C 0.7451(11) 0.5738(3) 0.7291(3)
C9_2 C 0.7516(11) 0.5336(3) 0.7382(3)
C10_2 C 0.7769(11) 0.5212(3) 0.7744(3)
C11_2 C 0.7909(12) 0.5478(4) 0.8031(3)
H5_2 H 0.802887 0.539243 0.827332
C12_2 C 0.7866(13) 0.5884(4) 0.7945(3)
C13_2 C 0.7621(10) 0.5997(3) 0.7581(3)
H6_2 H 0.756915 0.626580 0.753210
C14_2 C 0.8014(12) 0.6190(4) 0.8244(4)
C15_2 C 0.7720(12) 0.6149(4) 0.8607(3)
H7_2 H 0.737790 0.593261 0.866775
C16_2 C 0.7917(13) 0.6420(4) 0.8883(4)
H8_2 H 0.772972 0.638125 0.912867
C17_2 C 0.8416(12) 0.6763(4) 0.8784(3)
C18_2 C 0.8708(12) 0.6806(4) 0.8425(3)
H9_2 H 0.903738 0.702594 0.836174
C19_2 C 0.8518(12) 0.6521(3) 0.8147(3)
H10_2 H 0.872364 0.655174 0.790280
C20_2 C 0.8652(13) 0.7055(4) 0.9084(3)
N1_2 N 0.7385(14) 0.500000 0.7157(4)
H11_2 H 0.724825 0.499999 0.692229
O1_2 O 0.5918(6) 0.6812(2) 0.6008(2)
O3_2 O 0.8373(7) 0.6986(3) 0.9411(2)
O4_2 O 0.9093(7) 0.7332(2) 0.8977(2)
O8_2 O 0.3816(5) 0.72199(18) 0.53449(15)
O10_2 O 0.2290(9) 0.7719(5) 0.500000
O11_2 O 0.2332(9) 0.6696(5) 0.500000
C23_2 C 0.6401(10) 0.3478(3) 0.5938(3)
C24_2 C 0.6651(10) 0.3712(4) 0.6271(3)
C25_2 C 0.7271(10) 0.3999(4) 0.6248(4)
H12_2 H 0.750350 0.406947 0.601660
C26_2 C 0.7559(11) 0.4191(4) 0.6581(3)
H13_2 H 0.800780 0.437332 0.657013
C27_2 C 0.7168(11) 0.4104(3) 0.6925(3)
C28_2 C 0.6569(11) 0.3821(4) 0.6935(3)
H14_2 H 0.634357 0.374440 0.716611
C29_2 C 0.6259(11) 0.3630(4) 0.6599(3)
H15_2 H 0.579793 0.345354 0.660972
C30_2 C 0.7451(11) 0.4262(3) 0.7291(3)
C31_2 C 0.7516(11) 0.4664(3) 0.7382(3)
C32_2 C 0.7769(11) 0.4788(3) 0.7744(3)
C33_2 C 0.7909(12) 0.4522(4) 0.8031(3)
H16_2 H 0.802887 0.460757 0.827332
C34_2 C 0.7866(13) 0.4116(4) 0.7945(3)
C35_2 C 0.7621(10) 0.4003(3) 0.7581(3)
H17_2 H 0.756915 0.373420 0.753210
C36_2 C 0.8014(12) 0.3810(4) 0.8244(4)
C37_2 C 0.7720(12) 0.3851(4) 0.8607(3)
H18_2 H 0.737790 0.406739 0.866775
C38_2 C 0.7917(13) 0.3580(4) 0.8883(4)
H19_2 H 0.772972 0.361875 0.912867
C39_2 C 0.8416(12) 0.3237(4) 0.8784(3)
C40_2 C 0.8708(12) 0.3194(4) 0.8425(3)
H20_2 H 0.903738 0.297406 0.836174
C41_2 C 0.8518(12) 0.3479(3) 0.8147(3)
H21_2 H 0.872364 0.344826 0.790280
C42_2 C 0.8652(13) 0.2945(4) 0.9084(3)
O12_2 O 0.5918(6) 0.3188(2) 0.6008(2)
O13_2 O 0.6623(7) 0.3568(3) 0.5603(2)
O14_2 O 0.8373(7) 0.3014(3) 0.9411(2)
O15_2 O 0.9093(7) 0.2668(2) 0.8977(2)
C43_2 C 0.3599(10) 0.3478(3) 0.5938(3)
C44_2 C 0.3349(10) 0.3712(4) 0.6271(3)
C45_2 C 0.2729(10) 0.3999(4) 0.6248(4)
H22_2 H 0.249650 0.406947 0.601660
C46_2 C 0.2441(11) 0.4191(4) 0.6581(3)
H23_2 H 0.199220 0.437332 0.657013
C47_2 C 0.2832(11) 0.4104(3) 0.6925(3)
C48_2 C 0.3431(11) 0.3821(4) 0.6935(3)
H24_2 H 0.365643 0.374440 0.716611
C49_2 C 0.3741(11) 0.3630(4) 0.6599(3)
H25_2 H 0.420207 0.345354 0.660972
C50_2 C 0.2549(11) 0.4262(3) 0.7291(3)
C51_2 C 0.2484(11) 0.4664(3) 0.7382(3)
C52_2 C 0.2231(11) 0.4788(3) 0.7744(3)
C53_2 C 0.2091(12) 0.4522(4) 0.8031(3)
H26_2 H 0.197113 0.460757 0.827332
C54_2 C 0.2134(13) 0.4116(4) 0.7945(3)
C55_2 C 0.2379(10) 0.4003(3) 0.7581(3)
H27_2 H 0.243085 0.373420 0.753210
C56_2 C 0.1986(12) 0.3810(4) 0.8244(4)
C57_2 C 0.2280(12) 0.3851(4) 0.8607(3)
H28_2 H 0.262210 0.406739 0.866775
C58_2 C 0.2083(13) 0.3580(4) 0.8883(4)
H29_2 H 0.227028 0.361875 0.912867
C59_2 C 0.1584(12) 0.3237(4) 0.8784(3)
C60_2 C 0.1292(12) 0.3194(4) 0.8425(3)
H30_2 H 0.096262 0.297406 0.836174
C61_2 C 0.1482(12) 0.3479(3) 0.8147(3)
H31_2 H 0.127636 0.344826 0.790280
C62_2 C 0.1348(13) 0.2945(4) 0.9084(3)
N2_2 N 0.2615(14) 0.500000 0.7157(4)
H32_2 H 0.275175 0.500001 0.692229
O18_2 O 0.4082(6) 0.3188(2) 0.6008(2)
O20_2 O 0.1627(7) 0.3014(3) 0.9411(2)
O21_2 O 0.0907(7) 0.2668(2) 0.8977(2)
O23_2 O 0.6184(5) 0.27801(18) 0.53449(15)
O25_2 O 0.7710(9) 0.2281(5) 0.500000
O26_2 O 0.7668(9) 0.3304(5) 0.500000
C63_2 C 0.3599(10) 0.6522(3) 0.5938(3)
C64_2 C 0.3349(10) 0.6288(4) 0.6271(3)
C65_2 C 0.2729(10) 0.6001(4) 0.6248(4)
H33_2 H 0.249650 0.593053 0.601660
C66_2 C 0.2441(11) 0.5809(4) 0.6581(3)
H34_2 H 0.199220 0.562668 0.657013
C67_2 C 0.2832(11) 0.5896(3) 0.6925(3)
C68_2 C 0.3431(11) 0.6179(4) 0.6935(3)
H35_2 H 0.365643 0.625560 0.716611
C69_2 C 0.3741(11) 0.6370(4) 0.6599(3)
H36_2 H 0.420207 0.654646 0.660972
C70_2 C 0.2549(11) 0.5738(3) 0.7291(3)
C71_2 C 0.2484(11) 0.5336(3) 0.7382(3)
C72_2 C 0.2231(11) 0.5212(3) 0.7744(3)
C73_2 C 0.2091(12) 0.5478(4) 0.8031(3)
H37_2 H 0.197113 0.539243 0.827332
C74_2 C 0.2134(13) 0.5884(4) 0.7945(3)
C75_2 C 0.2379(10) 0.5997(3) 0.7581(3)
H38_2 H 0.243085 0.626580 0.753210
C76_2 C 0.1986(12) 0.6190(4) 0.8244(4)
C77_2 C 0.2280(12) 0.6149(4) 0.8607(3)
H39_2 H 0.262210 0.593261 0.866775
C78_2 C 0.2083(13) 0.6420(4) 0.8883(4)
H40_2 H 0.227028 0.638125 0.912867
C79_2 C 0.1584(12) 0.6763(4) 0.8784(3)
C80_2 C 0.1292(12) 0.6806(4) 0.8425(3)
H41_2 H 0.096262 0.702594 0.836174
C81_2 C 0.1482(12) 0.6521(3) 0.8147(3)
H42_2 H 0.127636 0.655174 0.790280
C82_2 C 0.1348(13) 0.7055(4) 0.9084(3)
O27_2 O 0.4082(6) 0.6812(2) 0.6008(2)
O28_2 O 0.3377(7) 0.6432(3) 0.5603(2)
O29_2 O 0.1627(7) 0.6986(3) 0.9411(2)
O30_2 O 0.0907(7) 0.7332(2) 0.8977(2)
O35_2 O 0.6627(7) 0.1986(3) 0.5589(2)
O36_2 O 0.3373(7) 0.8014(3) 0.5589(2)
O37_2 O 0.3373(7) 0.8014(3) 0.4411(2)
O38_2 O 0.6627(7) 0.1986(3) 0.4411(2)
O39_2 O 0.5907(7) 0.2332(2) 0.6023(2)
O40_2 O 0.4093(7) 0.7668(2) 0.6023(2)
O41_2 O 0.5907(7) 0.7668(2) 0.6023(2)
O42_2 O 0.4093(7) 0.2332(2) 0.6023(2)
Eu8_2 Eu 1.000000 0.22316(2) 0.92638(2)
Eu10_2 Eu 1.000000 0.77684(2) 0.92638(2)
C21_3 C -0.000000 0.0866(8) 0.000000
C22_3 C -0.000000 0.3613(8) 0.000000
O5_2 O 0.0793(9) 0.1007(3) 0.000000
O6_2 O 0.0880(13) 0.3450(3) 0.000000
O10_3 O 0.2710(9) 0.2719(5) 0.000000
O11_3 O 0.2668(9) 0.1696(5) 0.000000
Eu3_2 Eu 0.12385(8) 0.16450(2) 0.000000
O32_2 O 0.1184(5) 0.22199(18) 0.03449(15)
O33_2 O 0.1623(7) 0.1432(3) 0.0603(2)
O45_2 O -0.000000 0.1700(3) 0.0333(2)
O49_2 O 0.000000 0.2747(3) 0.0337(2)
H43_3 H 1.2326e-32 0.393419 0
H44_3 H 1.54074e-33 0.0544807 0
C21_4 C 0.000000 0.0866(8) 1.000000
C22_4 C 0.000000 0.3613(8) 1.000000
O5_3 O 0.0793(9) 0.1007(3) 1.000000
O6_3 O 0.0880(13) 0.3450(3) 1.000000
O7_2 O 0.000000 0.1700(3) 0.9667(2)
O8_3 O 0.1184(5) 0.22199(18) 0.96551(15)
O9_2 O 0.000000 0.2747(3) 0.9663(2)
O10_4 O 0.2710(9) 0.2719(5) 1.000000
O11_4 O 0.2668(9) 0.1696(5) 1.000000
Eu3_3 Eu 0.12385(8) 0.16450(2) 1.000000
N2_3 N 0.2385(14) 0.000000 0.7843(4)
H32_3 H 0.224825 0.000001 0.807771
C63_3 C 0.1401(10) 0.1522(3) 0.9062(3)
C64_3 C 0.1651(10) 0.1288(4) 0.8729(3)
C65_3 C 0.2271(10) 0.1001(4) 0.8752(4)
H33_3 H 0.250350 0.093053 0.898340
C66_3 C 0.2559(11) 0.0809(4) 0.8419(3)
H34_3 H 0.300780 0.062668 0.842987
C67_3 C 0.2168(11) 0.0896(3) 0.8075(3)
C68_3 C 0.1569(11) 0.1179(4) 0.8065(3)
H35_3 H 0.134357 0.125560 0.783389
C69_3 C 0.1259(11) 0.1370(4) 0.8401(3)
H36_3 H 0.079793 0.154646 0.839028
C70_3 C 0.2451(11) 0.0738(3) 0.7709(3)
C71_3 C 0.2516(11) 0.0336(3) 0.7618(3)
C72_3 C 0.2769(11) 0.0212(3) 0.7256(3)
C73_3 C 0.2909(12) 0.0478(4) 0.6969(3)
H37_3 H 0.302887 0.039243 0.672668
C74_3 C 0.2866(13) 0.0884(4) 0.7055(3)
C75_3 C 0.2621(10) 0.0997(3) 0.7419(3)
H38_3 H 0.256915 0.126580 0.746790
C76_3 C 0.3014(12) 0.1190(4) 0.6756(4)
C77_3 C 0.2720(12) 0.1149(4) 0.6393(3)
H39_3 H 0.237790 0.093261 0.633225
C78_3 C 0.2917(13) 0.1420(4) 0.6117(4)
H40_3 H 0.272972 0.138125 0.587133
C79_3 C 0.3416(12) 0.1763(4) 0.6216(3)
C80_3 C 0.3708(12) 0.1806(4) 0.6575(3)
H41_3 H 0.403738 0.202594 0.663826
C81_3 C 0.3518(12) 0.1521(3) 0.6853(3)
H42_3 H 0.372364 0.155174 0.709720
C82_3 C 0.3652(13) 0.2055(4) 0.5916(3)
O27_3 O 0.0918(6) 0.1812(2) 0.8992(2)
O28_3 O 0.1623(7) 0.1432(3) 0.9397(2)
H43_4 H -2.46519e-32 0.393419 1
H44_4 H 0 0.0544807 1
O46_2 O 0.000000 0.8300(3) 0.0333(2)
O50_2 O 0.000000 0.7253(3) 0.0337(2)
Eu19_2 Eu 0.12385(8) 0.83550(2) 0.000000
C43_3 C 0.1401(10) 0.8478(3) 0.9062(3)
C44_3 C 0.1651(10) 0.8712(4) 0.8729(3)
C45_3 C 0.2271(10) 0.8999(4) 0.8752(4)
H22_3 H 0.250350 0.906947 0.898340
C46_3 C 0.2559(11) 0.9191(4) 0.8419(3)
H23_3 H 0.300780 0.937332 0.842987
C47_3 C 0.2168(11) 0.9104(3) 0.8075(3)
C48_3 C 0.1569(11) 0.8821(4) 0.8065(3)
H24_3 H 0.134357 0.874440 0.783389
C49_3 C 0.1259(11) 0.8630(4) 0.8401(3)
H25_3 H 0.079793 0.845354 0.839028
C50_3 C 0.2451(11) 0.9262(3) 0.7709(3)
C51_3 C 0.2516(11) 0.9664(3) 0.7618(3)
C52_3 C 0.2769(11) 0.9788(3) 0.7256(3)
C53_3 C 0.2909(12) 0.9522(4) 0.6969(3)
H26_3 H 0.302887 0.960757 0.672668
C54_3 C 0.2866(13) 0.9116(4) 0.7055(3)
C55_3 C 0.2621(10) 0.9003(3) 0.7419(3)
H27_3 H 0.256915 0.873420 0.746790
C56_3 C 0.3014(12) 0.8810(4) 0.6756(4)
C57_3 C 0.2720(12) 0.8851(4) 0.6393(3)
H28_3 H 0.237790 0.906739 0.633225
C58_3 C 0.2917(13) 0.8580(4) 0.6117(4)
H29_3 H 0.272972 0.861875 0.587133
C59_3 C 0.3416(12) 0.8237(4) 0.6216(3)
C60_3 C 0.3708(12) 0.8194(4) 0.6575(3)
H30_3 H 0.403738 0.797406 0.663826
C61_3 C 0.3518(12) 0.8479(3) 0.6853(3)
H31_3 H 0.372364 0.844826 0.709720
C62_3 C 0.3652(13) 0.7945(4) 0.5916(3)
N2_4 N 0.2385(14) 1.000000 0.7843(4)
H32_4 H 0.224825 1.000001 0.807771
O18_3 O 0.0918(6) 0.8188(2) 0.8992(2)
O19_2 O 0.1623(7) 0.8568(3) 0.9397(2)
O22_2 O 0.000000 0.8300(3) 0.9667(2)
O24_2 O 0.000000 0.7253(3) 0.9663(2)
O48_2 O 0.1184(5) 0.77801(18) 0.96551(15)
Eu19_3 Eu 0.12385(8) 0.83550(2) 1.000000
C21_5 C 1.000000 0.0866(8) 0.000000
C22_5 C 1.000000 0.3613(8) 0.000000
O16_3 O 0.9207(9) 0.1007(3) 0.000000
O17_3 O 0.9120(13) 0.3450(3) 0.000000
O45_3 O 1.000000 0.1700(3) 0.0333(2)
O49_3 O 1.000000 0.2747(3) 0.0337(2)
Eu18_2 Eu 0.87615(8) 0.16450(2) 0.000000
H43_5 H 1 0.393419 0
H44_5 H 1 0.0544807 0
C1_3 C 0.8599(10) 0.1522(3) 0.9062(3)
C2_3 C 0.8349(10) 0.1288(4) 0.8729(3)
C3_3 C 0.7729(10) 0.1001(4) 0.8752(4)
H1_3 H 0.749650 0.093053 0.898340
C4_3 C 0.7441(11) 0.0809(4) 0.8419(3)
H2_3 H 0.699220 0.062668 0.842987
C5_3 C 0.7832(11) 0.0896(3) 0.8075(3)
C6_3 C 0.8431(11) 0.1179(4) 0.8065(3)
H3_3 H 0.865643 0.125560 0.783389
C7_3 C 0.8741(11) 0.1370(4) 0.8401(3)
H4_3 H 0.920207 0.154646 0.839028
C8_3 C 0.7549(11) 0.0738(3) 0.7709(3)
C9_3 C 0.7484(11) 0.0336(3) 0.7618(3)
C10_3 C 0.7231(11) 0.0212(3) 0.7256(3)
C11_3 C 0.7091(12) 0.0478(4) 0.6969(3)
H5_3 H 0.697113 0.039243 0.672668
C12_3 C 0.7134(13) 0.0884(4) 0.7055(3)
C13_3 C 0.7379(10) 0.0997(3) 0.7419(3)
H6_3 H 0.743085 0.126580 0.746790
C14_3 C 0.6986(12) 0.1190(4) 0.6756(4)
C15_3 C 0.7280(12) 0.1149(4) 0.6393(3)
H7_3 H 0.762210 0.093261 0.633225
C16_3 C 0.7083(13) 0.1420(4) 0.6117(4)
H8_3 H 0.727028 0.138125 0.587133
C17_3 C 0.6584(12) 0.1763(4) 0.6216(3)
C18_3 C 0.6292(12) 0.1806(4) 0.6575(3)
H9_3 H 0.596262 0.202594 0.663826
C19_3 C 0.6482(12) 0.1521(3) 0.6853(3)
H10_3 H 0.627636 0.155174 0.709720
C20_3 C 0.6348(13) 0.2055(4) 0.5916(3)
C21_6 C 1.000000 0.0866(8) 1.000000
C22_6 C 1.000000 0.3613(8) 1.000000
N1_3 N 0.7615(14) 0.000000 0.7843(4)
H11_3 H 0.775175 -0.000001 0.807771
O1_3 O 0.9082(6) 0.1812(2) 0.8992(2)
O2_2 O 0.8377(7) 0.1432(3) 0.9397(2)
O7_3 O 1.000000 0.1700(3) 0.9667(2)
O9_3 O 1.000000 0.2747(3) 0.9663(2)
O16_4 O 0.9207(9) 0.1007(3) 1.000000
O17_4 O 0.9120(13) 0.3450(3) 1.000000
O31_2 O 0.8816(5) 0.22199(18) 0.96551(15)
Eu18_3 Eu 0.87615(8) 0.16450(2) 1.000000
H43_6 H 1 0.393419 1
H44_6 H 1 0.0544807 1
O25_3 O 0.7290(9) 0.7281(5) 0.000000
O26_3 O 0.7332(9) 0.8304(5) 0.000000
Eu6_2 Eu 0.87615(8) 0.83550(2) 0.000000
O34_2 O 0.8377(7) 0.8568(3) 0.0603(2)
O43_2 O 0.9207(9) 0.8993(3) 0.000000
O44_2 O 0.9120(13) 0.6550(3) 0.000000
O46_3 O 1.000000 0.8300(3) 0.0333(2)
O47_2 O 0.8816(5) 0.77801(18) 0.03449(15)
O50_3 O 1.000000 0.7253(3) 0.0337(2)
N1_4 N 0.7615(14) 1.000000 0.7843(4)
H11_4 H 0.775175 0.999999 0.807771
C23_3 C 0.8599(10) 0.8478(3) 0.9062(3)
C24_3 C 0.8349(10) 0.8712(4) 0.8729(3)
C25_3 C 0.7729(10) 0.8999(4) 0.8752(4)
H12_3 H 0.749650 0.906947 0.898340
C26_3 C 0.7441(11) 0.9191(4) 0.8419(3)
H13_3 H 0.699220 0.937332 0.842987
C27_3 C 0.7832(11) 0.9104(3) 0.8075(3)
C28_3 C 0.8431(11) 0.8821(4) 0.8065(3)
H14_3 H 0.865643 0.874440 0.783389
C29_3 C 0.8741(11) 0.8630(4) 0.8401(3)
H15_3 H 0.920207 0.845354 0.839028
C30_3 C 0.7549(11) 0.9262(3) 0.7709(3)
C31_3 C 0.7484(11) 0.9664(3) 0.7618(3)
C32_3 C 0.7231(11) 0.9788(3) 0.7256(3)
C33_3 C 0.7091(12) 0.9522(4) 0.6969(3)
H16_3 H 0.697113 0.960757 0.672668
C34_3 C 0.7134(13) 0.9116(4) 0.7055(3)
C35_3 C 0.7379(10) 0.9003(3) 0.7419(3)
H17_3 H 0.743085 0.873420 0.746790
C36_3 C 0.6986(12) 0.8810(4) 0.6756(4)
C37_3 C 0.7280(12) 0.8851(4) 0.6393(3)
H18_3 H 0.762210 0.906739 0.633225
C38_3 C 0.7083(13) 0.8580(4) 0.6117(4)
H19_3 H 0.727028 0.861875 0.587133
C39_3 C 0.6584(12) 0.8237(4) 0.6216(3)
C40_3 C 0.6292(12) 0.8194(4) 0.6575(3)
H20_3 H 0.596262 0.797406 0.663826
C41_3 C 0.6482(12) 0.8479(3) 0.6853(3)
H21_3 H 0.627636 0.844826 0.709720
C42_3 C 0.6348(13) 0.7945(4) 0.5916(3)
O12_3 O 0.9082(6) 0.8188(2) 0.8992(2)
O13_3 O 0.8377(7) 0.8568(3) 0.9397(2)
O22_3 O 1.000000 0.8300(3) 0.9667(2)
O23_3 O 0.8816(5) 0.77801(18) 0.96551(15)
O24_3 O 1.000000 0.7253(3) 0.9663(2)
O25_4 O 0.7290(9) 0.7281(5) 1.000000
O26_4 O 0.7332(9) 0.8304(5) 1.000000
Eu6_3 Eu 0.87615(8) 0.83550(2) 1.000000
O43_3 O 0.9207(9) 0.8993(3) 1.000000
O44_3 O 0.9120(13) 0.6550(3) 1.000000
C21_7 C 0.000000 0.9134(8) 0.000000
C22_7 C 0.000000 0.6387(8) 0.000000
O16_5 O 0.0793(9) 0.8993(3) 0.000000
O17_5 O 0.0880(13) 0.6550(3) 0.000000
H43_7 H 0 0.606581 0
H44_7 H 0 0.945519 0
C21_8 C -0.000000 0.9134(8) 1.000000
C22_8 C -0.000000 0.6387(8) 1.000000
O16_6 O 0.0793(9) 0.8993(3) 1.000000
O17_6 O 0.0880(13) 0.6550(3) 1.000000
H43_8 H 2.46519e-32 0.606581 1
H44_8 H -4.93038e-32 0.945519 1
C21_9 C 1.000000 0.9134(8) 0.000000
C22_9 C 1.000000 0.6387(8) 0.000000
H43_9 H 1 0.606581 0
H44_9 H 1 0.945519 0
C21_10 C 1.000000 0.9134(8) 1.000000
C22_10 C 1.000000 0.6387(8) 1.000000
H43_10 H 1 0.606581 1
H44_10 H 1 0.945519 1
C1_4 C 0.1401(10) 0.1522(3) 0.0938(3)
C2_4 C 0.1651(10) 0.1288(4) 0.1271(3)
C3_4 C 0.2271(10) 0.1001(4) 0.1248(4)
H1_4 H 0.250350 0.093053 0.101660
C4_4 C 0.2559(11) 0.0809(4) 0.1581(3)
H2_4 H 0.300780 0.062668 0.157013
C5_4 C 0.2168(11) 0.0896(3) 0.1925(3)
C6_4 C 0.1569(11) 0.1179(4) 0.1935(3)
H3_4 H 0.134357 0.125560 0.216611
C7_4 C 0.1259(11) 0.1370(4) 0.1599(3)
H4_4 H 0.079793 0.154646 0.160972
C8_4 C 0.2451(11) 0.0738(3) 0.2291(3)
C9_4 C 0.2516(11) 0.0336(3) 0.2382(3)
C10_4 C 0.2769(11) 0.0212(3) 0.2744(3)
C11_4 C 0.2909(12) 0.0478(4) 0.3031(3)
H5_4 H 0.302887 0.039243 0.327332
C12_4 C 0.2866(13) 0.0884(4) 0.2945(3)
C13_4 C 0.2621(10) 0.0997(3) 0.2581(3)
H6_4 H 0.256915 0.126580 0.253210
C14_4 C 0.3014(12) 0.1190(4) 0.3244(4)
C15_4 C 0.2720(12) 0.1149(4) 0.3607(3)
H7_4 H 0.237790 0.093261 0.366775
C16_4 C 0.2917(13) 0.1420(4) 0.3883(4)
H8_4 H 0.272972 0.138125 0.412867
C17_4 C 0.3416(12) 0.1763(4) 0.3784(3)
C18_4 C 0.3708(12) 0.1806(4) 0.3425(3)
H9_4 H 0.403738 0.202594 0.336174
C19_4 C 0.3518(12) 0.1521(3) 0.3147(3)
H10_4 H 0.372364 0.155174 0.290280
C20_4 C 0.3652(13) 0.2055(4) 0.4084(3)
N1_5 N 0.2385(14) -0.000000 0.2157(4)
H11_5 H 0.224825 -0.000001 0.192229
O1_4 O 0.0918(6) 0.1812(2) 0.1008(2)
N1_6 N 0.2385(14) 1.000000 0.2157(4)
H11_6 H 0.224825 0.999999 0.192229
C23_4 C 0.1401(10) 0.8478(3) 0.0938(3)
C24_4 C 0.1651(10) 0.8712(4) 0.1271(3)
C25_4 C 0.2271(10) 0.8999(4) 0.1248(4)
H12_4 H 0.250350 0.906947 0.101660
C26_4 C 0.2559(11) 0.9191(4) 0.1581(3)
H13_4 H 0.300780 0.937332 0.157013
C27_4 C 0.2168(11) 0.9104(3) 0.1925(3)
C28_4 C 0.1569(11) 0.8821(4) 0.1935(3)
H14_4 H 0.134357 0.874440 0.216611
C29_4 C 0.1259(11) 0.8630(4) 0.1599(3)
H15_4 H 0.079793 0.845354 0.160972
C30_4 C 0.2451(11) 0.9262(3) 0.2291(3)
C31_4 C 0.2516(11) 0.9664(3) 0.2382(3)
C32_4 C 0.2769(11) 0.9788(3) 0.2744(3)
C33_4 C 0.2909(12) 0.9522(4) 0.3031(3)
H16_4 H 0.302887 0.960757 0.327332
C34_4 C 0.2866(13) 0.9116(4) 0.2945(3)
C35_4 C 0.2621(10) 0.9003(3) 0.2581(3)
H17_4 H 0.256915 0.873420 0.253210
C36_4 C 0.3014(12) 0.8810(4) 0.3244(4)
C37_4 C 0.2720(12) 0.8851(4) 0.3607(3)
H18_4 H 0.237790 0.906739 0.366775
C38_4 C 0.2917(13) 0.8580(4) 0.3883(4)
H19_4 H 0.272972 0.861875 0.412867
C39_4 C 0.3416(12) 0.8237(4) 0.3784(3)
C40_4 C 0.3708(12) 0.8194(4) 0.3425(3)
H20_4 H 0.403738 0.797406 0.336174
C41_4 C 0.3518(12) 0.8479(3) 0.3147(3)
H21_4 H 0.372364 0.844826 0.290280
C42_4 C 0.3652(13) 0.7945(4) 0.4084(3)
O12_4 O 0.0918(6) 0.8188(2) 0.1008(2)
O13_4 O 0.1623(7) 0.8568(3) 0.0603(2)
O23_4 O 0.1184(5) 0.77801(18) 0.03449(15)
O25_5 O 0.2710(9) 0.7281(5) 0.000000
O26_5 O 0.2668(9) 0.8304(5) 0.000000
O25_6 O 0.2710(9) 0.7281(5) 1.000000
O26_6 O 0.2668(9) 0.8304(5) 1.000000
O8_4 O 0.8816(5) 0.22199(18) 0.03449(15)
O10_5 O 0.7290(9) 0.2719(5) 0.000000
O11_5 O 0.7332(9) 0.1696(5) 0.000000
N2_5 N 0.7615(14) -0.000000 0.2157(4)
H32_5 H 0.775175 0.000001 0.192229
C63_4 C 0.8599(10) 0.1522(3) 0.0938(3)
C64_4 C 0.8349(10) 0.1288(4) 0.1271(3)
C65_4 C 0.7729(10) 0.1001(4) 0.1248(4)
H33_4 H 0.749650 0.093053 0.101660
C66_4 C 0.7441(11) 0.0809(4) 0.1581(3)
H34_4 H 0.699220 0.062668 0.157013
C67_4 C 0.7832(11) 0.0896(3) 0.1925(3)
C68_4 C 0.8431(11) 0.1179(4) 0.1935(3)
H35_4 H 0.865643 0.125560 0.216611
C69_4 C 0.8741(11) 0.1370(4) 0.1599(3)
H36_4 H 0.920207 0.154646 0.160972
C70_4 C 0.7549(11) 0.0738(3) 0.2291(3)
C71_4 C 0.7484(11) 0.0336(3) 0.2382(3)
C72_4 C 0.7231(11) 0.0212(3) 0.2744(3)
C73_4 C 0.7091(12) 0.0478(4) 0.3031(3)
H37_4 H 0.697113 0.039243 0.327332
C74_4 C 0.7134(13) 0.0884(4) 0.2945(3)
C75_4 C 0.7379(10) 0.0997(3) 0.2581(3)
H38_4 H 0.743085 0.126580 0.253210
C76_4 C 0.6986(12) 0.1190(4) 0.3244(4)
C77_4 C 0.7280(12) 0.1149(4) 0.3607(3)
H39_4 H 0.762210 0.093261 0.366775
C78_4 C 0.7083(13) 0.1420(4) 0.3883(4)
H40_4 H 0.727028 0.138125 0.412867
C79_4 C 0.6584(12) 0.1763(4) 0.3784(3)
C80_4 C 0.6292(12) 0.1806(4) 0.3425(3)
H41_4 H 0.596262 0.202594 0.336174
C81_4 C 0.6482(12) 0.1521(3) 0.3147(3)
H42_4 H 0.627636 0.155174 0.290280
C82_4 C 0.6348(13) 0.2055(4) 0.4084(3)
O27_4 O 0.9082(6) 0.1812(2) 0.1008(2)
O28_4 O 0.8377(7) 0.1432(3) 0.0603(2)
O10_6 O 0.7290(9) 0.2719(5) 1.000000
O11_6 O 0.7332(9) 0.1696(5) 1.000000
C43_4 C 0.8599(10) 0.8478(3) 0.0938(3)
C44_4 C 0.8349(10) 0.8712(4) 0.1271(3)
C45_4 C 0.7729(10) 0.8999(4) 0.1248(4)
H22_4 H 0.749650 0.906947 0.101660
C46_4 C 0.7441(11) 0.9191(4) 0.1581(3)
H23_4 H 0.699220 0.937332 0.157013
C47_4 C 0.7832(11) 0.9104(3) 0.1925(3)
C48_4 C 0.8431(11) 0.8821(4) 0.1935(3)
H24_4 H 0.865643 0.874440 0.216611
C49_4 C 0.8741(11) 0.8630(4) 0.1599(3)
H25_4 H 0.920207 0.845354 0.160972
C50_4 C 0.7549(11) 0.9262(3) 0.2291(3)
C51_4 C 0.7484(11) 0.9664(3) 0.2382(3)
C52_4 C 0.7231(11) 0.9788(3) 0.2744(3)
C53_4 C 0.7091(12) 0.9522(4) 0.3031(3)
H26_4 H 0.697113 0.960757 0.327332
C54_4 C 0.7134(13) 0.9116(4) 0.2945(3)
C55_4 C 0.7379(10) 0.9003(3) 0.2581(3)
H27_4 H 0.743085 0.873420 0.253210
C56_4 C 0.6986(12) 0.8810(4) 0.3244(4)
C57_4 C 0.7280(12) 0.8851(4) 0.3607(3)
H28_4 H 0.762210 0.906739 0.366775
C58_4 C 0.7083(13) 0.8580(4) 0.3883(4)
H29_4 H 0.727028 0.861875 0.412867
C59_4 C 0.6584(12) 0.8237(4) 0.3784(3)
C60_4 C 0.6292(12) 0.8194(4) 0.3425(3)
H30_4 H 0.596262 0.797406 0.336174
C61_4 C 0.6482(12) 0.8479(3) 0.3147(3)
H31_4 H 0.627636 0.844826 0.290280
C62_4 C 0.6348(13) 0.7945(4) 0.4084(3)
N2_6 N 0.7615(14) 1.000000 0.2157(4)
H32_6 H 0.775175 1.000001 0.192229
O18_4 O 0.9082(6) 0.8188(2) 0.1008(2)
loop_
_geom_bond_atom_site_label_1
_geom_bond_atom_site_label_2
_geom_bond_site_symmetry_1
_geom_bond_site_symmetry_2
C1 C2 1_555 1_555
C2 C3 1_555 1_555
C3 H1 1_555 1_555
C4 C3 1_555 1_555
H2 C4 1_555 1_555
C5 C4 1_555 1_555
C6 C5 1_555 1_555
H3 C6 1_555 1_555
C7 C2 1_555 1_555
H4 C7 1_555 1_555
C8 C5 1_555 1_555
C9 C8 1_555 1_555
C10 C9 1_555 1_555
C11 C10 1_555 1_555
H5 C11 1_555 1_555
C12 C11 1_555 1_555
C13 C8 1_555 1_555
H6 C13 1_555 1_555
C14 C12 1_555 1_555
C15 C14 1_555 1_555
H7 C15 1_555 1_555
C16 C15 1_555 1_555
H8 C16 1_555 1_555
C17 C16 1_555 1_555
C18 C17 1_555 1_555
H9 C18 1_555 1_555
C19 C14 1_555 1_555
H10 C19 1_555 1_555
C20 C17 1_555 1_555
C21 O5 1_555 1_555
C22 O6 1_555 1_555
N1 C9 1_555 1_555
H11 N1 1_555 1_555
O1 C1 1_555 1_555
O2 C1 1_555 1_555
O3 C20 1_555 1_555
O4 C20 1_555 1_555
O5 Eu3 1_555 1_555
O6 Eu2 1_555 1_555
O7 Eu1 1_555 1_555
O8 Eu1 1_555 1_555
O9 Eu1 1_555 1_555
O10 Eu2 1_555 1_555
O11 Eu3 1_555 1_555
Eu1 O1 1_555 1_555
Eu2 O8 1_555 1_555
Eu3 O7 1_555 1_555
C23 C24 1_555 1_555
C24 C25 1_555 1_555
C25 H12 1_555 1_555
C26 C25 1_555 1_555
H13 C26 1_555 1_555
C27 C26 1_555 1_555
C28 C27 1_555 1_555
H14 C28 1_555 1_555
C29 C24 1_555 1_555
H15 C29 1_555 1_555
C30 C27 1_555 1_555
C31 N1 1_555 1_555
C32 C10 1_555 1_555
C33 C32 1_555 1_555
H16 C33 1_555 1_555
C34 C33 1_555 1_555
C35 C30 1_555 1_555
H17 C35 1_555 1_555
C36 C34 1_555 1_555
C37 C36 1_555 1_555
H18 C37 1_555 1_555
C38 C37 1_555 1_555
H19 C38 1_555 1_555
C39 C38 1_555 1_555
C40 C39 1_555 1_555
H20 C40 1_555 1_555
C41 C36 1_555 1_555
H21 C41 1_555 1_555
C42 C39 1_555 1_555
O12 C23 1_555 1_555
O13 C23 1_555 1_555
O14 C42 1_555 1_555
O15 C42 1_555 1_555
O16 C21 1_555 1_555
O17 C22 1_555 1_555
C43 C44 1_555 1_555
C44 C45 1_555 1_555
C45 H22 1_555 1_555
C46 C45 1_555 1_555
H23 C46 1_555 1_555
C47 C46 1_555 1_555
C48 C47 1_555 1_555
H24 C48 1_555 1_555
C49 C44 1_555 1_555
H25 C49 1_555 1_555
C50 C47 1_555 1_555
C51 C50 1_555 1_555
C52 C51 1_555 1_555
C53 C52 1_555 1_555
H26 C53 1_555 1_555
C54 C53 1_555 1_555
C55 C50 1_555 1_555
H27 C55 1_555 1_555
C56 C54 1_555 1_555
C57 C56 1_555 1_555
H28 C57 1_555 1_555
C58 C57 1_555 1_555
H29 C58 1_555 1_555
C59 C58 1_555 1_555
C60 C59 1_555 1_555
H30 C60 1_555 1_555
C61 C56 1_555 1_555
H31 C61 1_555 1_555
C62 C59 1_555 1_555
N2 C51 1_555 1_555
H32 N2 1_555 1_555
O18 C43 1_555 1_555
O19 C43 1_555 1_555
O20 C62 1_555 1_555
O21 C62 1_555 1_555
O22 Eu4 1_555 1_555
O23 Eu4 1_555 1_555
O24 Eu4 1_555 1_555
O25 Eu5 1_555 1_555
O26 Eu6 1_555 1_555
Eu4 O12 1_555 1_555
Eu5 O23 1_555 1_555
Eu6 O13 1_555 1_555
C63 C64 1_555 1_555
C64 C65 1_555 1_555
C65 H33 1_555 1_555
C66 C65 1_555 1_555
H34 C66 1_555 1_555
C67 C66 1_555 1_555
C68 C67 1_555 1_555
H35 C68 1_555 1_555
C69 C64 1_555 1_555
H36 C69 1_555 1_555
C70 C67 1_555 1_555
C71 N2 1_555 1_555
C72 C52 1_555 1_555
C73 C72 1_555 1_555
H37 C73 1_555 1_555
C74 C73 1_555 1_555
C75 C70 1_555 1_555
H38 C75 1_555 1_555
C76 C74 1_555 1_555
C77 C76 1_555 1_555
H39 C77 1_555 1_555
C78 C77 1_555 1_555
H40 C78 1_555 1_555
C79 C78 1_555 1_555
C80 C79 1_555 1_555
H41 C80 1_555 1_555
C81 C76 1_555 1_555
H42 C81 1_555 1_555
C82 C79 1_555 1_555
O27 Eu1 1_555 1_555
O28 Eu3 1_555 1_555
O29 C82 1_555 1_555
O30 C82 1_555 1_555
O31 Eu1 1_555 1_555
O32 Eu2 1_555 1_555
O33 Eu3 1_555 1_555
O34 Eu6 1_555 1_555
O35 Eu5 1_555 1_555
O36 Eu2 1_555 1_555
O37 Eu2 1_555 1_555
O38 Eu5 1_555 1_555
O39 Eu4 1_555 1_555
O40 Eu1 1_555 1_555
O41 Eu1 1_555 1_555
O42 Eu4 1_555 1_555
O43 Eu6 1_555 1_555
O44 Eu5 1_555 1_555
O45 Eu3 1_555 1_555
O46 Eu6 1_555 1_555
O47 Eu5 1_555 1_555
O48 Eu4 1_555 1_555
O49 Eu2 1_555 1_555
O50 Eu5 1_555 1_555
Eu7 O32 1_555 1_555
Eu9 O15 1_555 1_555
Eu9_2 O21 1_555 1_555
Eu11 O4 1_555 1_555
Eu11_2 O30 1_555 1_555
Eu12 O9 1_555 1_555
Eu13 O24 1_555 1_555
Eu14 O14 1_555 1_555
Eu15 O29 1_555 1_555
Eu16 O20 1_555 1_555
Eu17 O3 1_555 1_555
Eu18 O2 1_555 1_555
Eu19 O19 1_555 1_555
C6 C7 1_555 1_555
C12 C13 1_555 1_555
C18 C19 1_555 1_555
O7 Eu18 1_555 1_555
O8 Eu3 1_555 1_555
O9 Eu2 1_555 1_555
Eu3 O32 1_555 1_555
C28 C29 1_555 1_555
C30 C31 1_555 1_555
C31 C32 1_555 1_555
C34 C35 1_555 1_555
C40 C41 1_555 1_555
O16 Eu18 1_555 1_555
O17 Eu12 1_555 1_555
C48 C49 1_555 1_555
C54 C55 1_555 1_555
C60 C61 1_555 1_555
O18 Eu4 1_555 1_555
O22 Eu6 1_555 1_555
O22 Eu19 1_555 1_555
O23 Eu6 1_555 1_555
O24 Eu5 1_555 1_555
Eu6 O47 1_555 1_555
C63 O27 1_555 1_555
C63 O28 1_555 1_555
C68 C69 1_555 1_555
C70 C71 1_555 1_555
C71 C72 1_555 1_555
C74 C75 1_555 1_555
C80 C81 1_555 1_555
O31 Eu12 1_555 1_555
O31 Eu18 1_555 1_555
O45 Eu7 1_555 1_555
O45 Eu18 1_555 1_555
O46 Eu19 1_555 1_555
O48 Eu13 1_555 1_555
O48 Eu19 1_555 1_555
O49 Eu7 1_555 1_555
O49 Eu12 1_555 1_555
O50 Eu13 1_555 1_555
C22 H43 1_555 1_555
C21 H44 1_555 1_555
C21_2 O43 1_555 1_555
C22_2 O44 1_555 1_555
O16_2 C21_2 1_555 1_555
O17_2 C22_2 1_555 1_555
Eu7_2 O47 1_555 1_555
O16_2 Eu19 1_555 1_555
O17_2 Eu13 1_555 1_555
O46 Eu7_2 1_555 1_555
O50 Eu7_2 1_555 1_555
C22_2 H43_2 1_555 1_555
C21_2 H44_2 1_555 1_555
C1_2 C2_2 1_555 1_555
C2_2 C3_2 1_555 1_555
C3_2 H1_2 1_555 1_555
C4_2 C3_2 1_555 1_555
H2_2 C4_2 1_555 1_555
C5_2 C4_2 1_555 1_555
C6_2 C5_2 1_555 1_555
H3_2 C6_2 1_555 1_555
C7_2 C2_2 1_555 1_555
H4_2 C7_2 1_555 1_555
C8_2 C5_2 1_555 1_555
C9_2 C8_2 1_555 1_555
C10_2 C9_2 1_555 1_555
C11_2 C10_2 1_555 1_555
H5_2 C11_2 1_555 1_555
C12_2 C11_2 1_555 1_555
C13_2 C8_2 1_555 1_555
H6_2 C13_2 1_555 1_555
C14_2 C12_2 1_555 1_555
C15_2 C14_2 1_555 1_555
H7_2 C15_2 1_555 1_555
C16_2 C15_2 1_555 1_555
H8_2 C16_2 1_555 1_555
C17_2 C16_2 1_555 1_555
C18_2 C17_2 1_555 1_555
H9_2 C18_2 1_555 1_555
C19_2 C14_2 1_555 1_555
H10_2 C19_2 1_555 1_555
C20_2 C17_2 1_555 1_555
N1_2 C9_2 1_555 1_555
H11_2 N1_2 1_555 1_555
O1_2 C1_2 1_555 1_555
O33 C1_2 1_555 1_555
O3_2 C20_2 1_555 1_555
O4_2 C20_2 1_555 1_555
O8_2 Eu7 1_555 1_555
O10_2 Eu12 1_555 1_555
O11_2 Eu18 1_555 1_555
Eu7 O1_2 1_555 1_555
Eu12 O8_2 1_555 1_555
C23_2 C24_2 1_555 1_555
C24_2 C25_2 1_555 1_555
C25_2 H12_2 1_555 1_555
C26_2 C25_2 1_555 1_555
H13_2 C26_2 1_555 1_555
C27_2 C26_2 1_555 1_555
C28_2 C27_2 1_555 1_555
H14_2 C28_2 1_555 1_555
C29_2 C24_2 1_555 1_555
H15_2 C29_2 1_555 1_555
C30_2 C27_2 1_555 1_555
C31_2 N1_2 1_555 1_555
C32_2 C10_2 1_555 1_555
C33_2 C32_2 1_555 1_555
H16_2 C33_2 1_555 1_555
C34_2 C33_2 1_555 1_555
C35_2 C30_2 1_555 1_555
H17_2 C35_2 1_555 1_555
C36_2 C34_2 1_555 1_555
C37_2 C36_2 1_555 1_555
H18_2 C37_2 1_555 1_555
C38_2 C37_2 1_555 1_555
H19_2 C38_2 1_555 1_555
C39_2 C38_2 1_555 1_555
C40_2 C39_2 1_555 1_555
H20_2 C40_2 1_555 1_555
C41_2 C36_2 1_555 1_555
H21_2 C41_2 1_555 1_555
C42_2 C39_2 1_555 1_555
O12_2 C23_2 1_555 1_555
O13_2 C23_2 1_555 1_555
O14_2 C42_2 1_555 1_555
O15_2 C42_2 1_555 1_555
C43_2 C44_2 1_555 1_555
C44_2 C45_2 1_555 1_555
C45_2 H22_2 1_555 1_555
C46_2 C45_2 1_555 1_555
H23_2 C46_2 1_555 1_555
C47_2 C46_2 1_555 1_555
C48_2 C47_2 1_555 1_555
H24_2 C48_2 1_555 1_555
C49_2 C44_2 1_555 1_555
H25_2 C49_2 1_555 1_555
C50_2 C47_2 1_555 1_555
C51_2 C50_2 1_555 1_555
C52_2 C51_2 1_555 1_555
C53_2 C52_2 1_555 1_555
H26_2 C53_2 1_555 1_555
C54_2 C53_2 1_555 1_555
C55_2 C50_2 1_555 1_555
H27_2 C55_2 1_555 1_555
C56_2 C54_2 1_555 1_555
C57_2 C56_2 1_555 1_555
H28_2 C57_2 1_555 1_555
C58_2 C57_2 1_555 1_555
H29_2 C58_2 1_555 1_555
C59_2 C58_2 1_555 1_555
C60_2 C59_2 1_555 1_555
H30_2 C60_2 1_555 1_555
C61_2 C56_2 1_555 1_555
H31_2 C61_2 1_555 1_555
C62_2 C59_2 1_555 1_555
N2_2 C51_2 1_555 1_555
H32_2 N2_2 1_555 1_555
O18_2 C43_2 1_555 1_555
O34 C43_2 1_555 1_555
O20_2 C62_2 1_555 1_555
O21_2 C62_2 1_555 1_555
O23_2 Eu7_2 1_555 1_555
O25_2 Eu13 1_555 1_555
O26_2 Eu19 1_555 1_555
Eu7_2 O12_2 1_555 1_555
Eu13 O23_2 1_555 1_555
Eu19 O13_2 1_555 1_555
C63_2 C64_2 1_555 1_555
C64_2 C65_2 1_555 1_555
C65_2 H33_2 1_555 1_555
C66_2 C65_2 1_555 1_555
H34_2 C66_2 1_555 1_555
C67_2 C66_2 1_555 1_555
C68_2 C67_2 1_555 1_555
H35_2 C68_2 1_555 1_555
C69_2 C64_2 1_555 1_555
H36_2 C69_2 1_555 1_555
C70_2 C67_2 1_555 1_555
C71_2 N2_2 1_555 1_555
C72_2 C52_2 1_555 1_555
C73_2 C72_2 1_555 1_555
H37_2 C73_2 1_555 1_555
C74_2 C73_2 1_555 1_555
C75_2 C70_2 1_555 1_555
H38_2 C75_2 1_555 1_555
C76_2 C74_2 1_555 1_555
C77_2 C76_2 1_555 1_555
H39_2 C77_2 1_555 1_555
C78_2 C77_2 1_555 1_555
H40_2 C78_2 1_555 1_555
C79_2 C78_2 1_555 1_555
C80_2 C79_2 1_555 1_555
H41_2 C80_2 1_555 1_555
C81_2 C76_2 1_555 1_555
H42_2 C81_2 1_555 1_555
C82_2 C79_2 1_555 1_555
O27_2 Eu7 1_555 1_555
O28_2 Eu18 1_555 1_555
O29_2 C82_2 1_555 1_555
O30_2 C82_2 1_555 1_555
O35_2 Eu13 1_555 1_555
O36_2 Eu12 1_555 1_555
O37_2 Eu12 1_555 1_555
O38_2 Eu13 1_555 1_555
O39_2 Eu7_2 1_555 1_555
O40_2 Eu7 1_555 1_555
O41_2 Eu7 1_555 1_555
O42_2 Eu7_2 1_555 1_555
Eu8_2 O15_2 1_555 1_555
Eu8 O21_2 1_555 1_555
Eu10_2 O4_2 1_555 1_555
Eu10 O30_2 1_555 1_555
Eu16_2 O14_2 1_555 1_555
Eu17_2 O29_2 1_555 1_555
Eu14_2 O20_2 1_555 1_555
Eu15_2 O3_2 1_555 1_555
C6_2 C7_2 1_555 1_555
C12_2 C13_2 1_555 1_555
C18_2 C19_2 1_555 1_555
O8_2 Eu18 1_555 1_555
C28_2 C29_2 1_555 1_555
C30_2 C31_2 1_555 1_555
C31_2 C32_2 1_555 1_555
C34_2 C35_2 1_555 1_555
C40_2 C41_2 1_555 1_555
C48_2 C49_2 1_555 1_555
C54_2 C55_2 1_555 1_555
C60_2 C61_2 1_555 1_555
O18_2 Eu7_2 1_555 1_555
O23_2 Eu19 1_555 1_555
C63_2 O27_2 1_555 1_555
C63_2 O28_2 1_555 1_555
C68_2 C69_2 1_555 1_555
C70_2 C71_2 1_555 1_555
C71_2 C72_2 1_555 1_555
C74_2 C75_2 1_555 1_555
C80_2 C81_2 1_555 1_555
C21_3 O5_2 1_555 1_555
C22_3 O6_2 1_555 1_555
O5_2 Eu3_2 1_555 1_555
O6_2 Eu14 1_555 1_555
O10_3 Eu14 1_555 1_555
O11_3 Eu3_2 1_555 1_555
O32_2 Eu14 1_555 1_555
O33_2 Eu3_2 1_555 1_555
O45_2 Eu3_2 1_555 1_555
O49_2 Eu14 1_555 1_555
Eu9 O32_2 1_555 1_555
Eu3_2 O32_2 1_555 1_555
O45_2 Eu9 1_555 1_555
O49_2 Eu9 1_555 1_555
C22_3 H43_3 1_555 1_555
C21_3 H44_3 1_555 1_555
C21_4 O5_3 1_555 1_555
C22_4 O6_3 1_555 1_555
O5_3 Eu3_3 1_555 1_555
O6_3 Eu14_2 1_555 1_555
O7_2 Eu8 1_555 1_555
O8_3 Eu8 1_555 1_555
O9_2 Eu8 1_555 1_555
O10_4 Eu14_2 1_555 1_555
O11_4 Eu3_3 1_555 1_555
Eu14_2 O8_3 1_555 1_555
Eu3_3 O7_2 1_555 1_555
H32_3 N2_3 1_555 1_555
C63_3 C64_3 1_555 1_555
C64_3 C65_3 1_555 1_555
C65_3 H33_3 1_555 1_555
C66_3 C65_3 1_555 1_555
H34_3 C66_3 1_555 1_555
C67_3 C66_3 1_555 1_555
C68_3 C67_3 1_555 1_555
H35_3 C68_3 1_555 1_555
C69_3 C64_3 1_555 1_555
H36_3 C69_3 1_555 1_555
C70_3 C67_3 1_555 1_555
C71_3 N2_3 1_555 1_555
C73_3 C72_3 1_555 1_555
H37_3 C73_3 1_555 1_555
C74_3 C73_3 1_555 1_555
C75_3 C70_3 1_555 1_555
H38_3 C75_3 1_555 1_555
C76_3 C74_3 1_555 1_555
C77_3 C76_3 1_555 1_555
H39_3 C77_3 1_555 1_555
C78_3 C77_3 1_555 1_555
H40_3 C78_3 1_555 1_555
C79_3 C78_3 1_555 1_555
C80_3 C79_3 1_555 1_555
H41_3 C80_3 1_555 1_555
C81_3 C76_3 1_555 1_555
H42_3 C81_3 1_555 1_555
C82_3 C79_3 1_555 1_555
O27_3 Eu8 1_555 1_555
O28_3 Eu3_3 1_555 1_555
O38 C82_3 1_555 1_555
O42_2 C82_3 1_555 1_555
O8_3 Eu3_3 1_555 1_555
O9_2 Eu14_2 1_555 1_555
C63_3 O27_3 1_555 1_555
C63_3 O28_3 1_555 1_555
C68_3 C69_3 1_555 1_555
C70_3 C71_3 1_555 1_555
C71_3 C72_3 1_555 1_555
C74_3 C75_3 1_555 1_555
C80_3 C81_3 1_555 1_555
C22_4 H43_4 1_555 1_555
C21_4 H44_4 1_555 1_555
O46_2 Eu19_2 1_555 1_555
O50_2 Eu17 1_555 1_555
C43_3 C44_3 1_555 1_555
C44_3 C45_3 1_555 1_555
C45_3 H22_3 1_555 1_555
C46_3 C45_3 1_555 1_555
H23_3 C46_3 1_555 1_555
C47_3 C46_3 1_555 1_555
C48_3 C47_3 1_555 1_555
H24_3 C48_3 1_555 1_555
C49_3 C44_3 1_555 1_555
H25_3 C49_3 1_555 1_555
C50_3 C47_3 1_555 1_555
C51_3 C50_3 1_555 1_555
C52_3 C51_3 1_555 1_555
C53_3 C52_3 1_555 1_555
H26_3 C53_3 1_555 1_555
C54_3 C53_3 1_555 1_555
C55_3 C50_3 1_555 1_555
H27_3 C55_3 1_555 1_555
C56_3 C54_3 1_555 1_555
C57_3 C56_3 1_555 1_555
H28_3 C57_3 1_555 1_555
C58_3 C57_3 1_555 1_555
H29_3 C58_3 1_555 1_555
C59_3 C58_3 1_555 1_555
C60_3 C59_3 1_555 1_555
H30_3 C60_3 1_555 1_555
C61_3 C56_3 1_555 1_555
H31_3 C61_3 1_555 1_555
C62_3 C59_3 1_555 1_555
N2_4 C51_3 1_555 1_555
H32_4 N2_4 1_555 1_555
O18_3 C43_3 1_555 1_555
O19_2 C43_3 1_555 1_555
O36_2 C62_3 1_555 1_555
O40_2 C62_3 1_555 1_555
O22_2 Eu10 1_555 1_555
O24_2 Eu10 1_555 1_555
O48_2 Eu10 1_555 1_555
Eu17_2 O24_2 1_555 1_555
Eu19_3 O19_2 1_555 1_555
C48_3 C49_3 1_555 1_555
C54_3 C55_3 1_555 1_555
C60_3 C61_3 1_555 1_555
O18_3 Eu10 1_555 1_555
O22_2 Eu19_3 1_555 1_555
O48_2 Eu17_2 1_555 1_555
O48_2 Eu19_3 1_555 1_555
O16_3 C21_5 1_555 1_555
O17_3 C22_5 1_555 1_555
O16_3 Eu18_2 1_555 1_555
O17_3 Eu16 1_555 1_555
O45_3 Eu9_2 1_555 1_555
O45_3 Eu18_2 1_555 1_555
O49_3 Eu9_2 1_555 1_555
O49_3 Eu16 1_555 1_555
C22_5 H43_5 1_555 1_555
C21_5 H44_5 1_555 1_555
C1_3 C2_3 1_555 1_555
C2_3 C3_3 1_555 1_555
C3_3 H1_3 1_555 1_555
C4_3 C3_3 1_555 1_555
H2_3 C4_3 1_555 1_555
C5_3 C4_3 1_555 1_555
C6_3 C5_3 1_555 1_555
H3_3 C6_3 1_555 1_555
C7_3 C2_3 1_555 1_555
H4_3 C7_3 1_555 1_555
C8_3 C5_3 1_555 1_555
C9_3 C8_3 1_555 1_555
C10_3 C9_3 1_555 1_555
C11_3 C10_3 1_555 1_555
H5_3 C11_3 1_555 1_555
C12_3 C11_3 1_555 1_555
C13_3 C8_3 1_555 1_555
H6_3 C13_3 1_555 1_555
C14_3 C12_3 1_555 1_555
C15_3 C14_3 1_555 1_555
H7_3 C15_3 1_555 1_555
C16_3 C15_3 1_555 1_555
H8_3 C16_3 1_555 1_555
C17_3 C16_3 1_555 1_555
C18_3 C17_3 1_555 1_555
H9_3 C18_3 1_555 1_555
C19_3 C14_3 1_555 1_555
H10_3 C19_3 1_555 1_555
C20_3 C17_3 1_555 1_555
N1_3 C9_3 1_555 1_555
H11_3 N1_3 1_555 1_555
O1_3 C1_3 1_555 1_555
O2_2 C1_3 1_555 1_555
O35_2 C20_3 1_555 1_555
O39_2 C20_3 1_555 1_555
O7_3 Eu8_2 1_555 1_555
O9_3 Eu8_2 1_555 1_555
Eu8_2 O1_3 1_555 1_555
O16_4 C21_6 1_555 1_555
O17_4 C22_6 1_555 1_555
O31_2 Eu8_2 1_555 1_555
Eu16_2 O9_3 1_555 1_555
Eu18_3 O2_2 1_555 1_555
C6_3 C7_3 1_555 1_555
C12_3 C13_3 1_555 1_555
C18_3 C19_3 1_555 1_555
O7_3 Eu18_3 1_555 1_555
O16_4 Eu18_3 1_555 1_555
O17_4 Eu16_2 1_555 1_555
O31_2 Eu16_2 1_555 1_555
O31_2 Eu18_3 1_555 1_555
C22_6 H43_6 1_555 1_555
C21_6 H44_6 1_555 1_555
O25_3 Eu15 1_555 1_555
O26_3 Eu6_2 1_555 1_555
O34_2 Eu6_2 1_555 1_555
O43_2 Eu6_2 1_555 1_555
O44_2 Eu15 1_555 1_555
O46_3 Eu6_2 1_555 1_555
O47_2 Eu15 1_555 1_555
O50_3 Eu15 1_555 1_555
Eu6_2 O47_2 1_555 1_555
H11_4 N1_4 1_555 1_555
C23_3 C24_3 1_555 1_555
C24_3 C25_3 1_555 1_555
C25_3 H12_3 1_555 1_555
C26_3 C25_3 1_555 1_555
H13_3 C26_3 1_555 1_555
C27_3 C26_3 1_555 1_555
C28_3 C27_3 1_555 1_555
H14_3 C28_3 1_555 1_555
C29_3 C24_3 1_555 1_555
H15_3 C29_3 1_555 1_555
C30_3 C27_3 1_555 1_555
C31_3 N1_4 1_555 1_555
C33_3 C32_3 1_555 1_555
H16_3 C33_3 1_555 1_555
C34_3 C33_3 1_555 1_555
C35_3 C30_3 1_555 1_555
H17_3 C35_3 1_555 1_555
C36_3 C34_3 1_555 1_555
C37_3 C36_3 1_555 1_555
H18_3 C37_3 1_555 1_555
C38_3 C37_3 1_555 1_555
H19_3 C38_3 1_555 1_555
C39_3 C38_3 1_555 1_555
C40_3 C39_3 1_555 1_555
H20_3 C40_3 1_555 1_555
C41_3 C36_3 1_555 1_555
H21_3 C41_3 1_555 1_555
C42_3 C39_3 1_555 1_555
O12_3 C23_3 1_555 1_555
O13_3 C23_3 1_555 1_555
O37 C42_3 1_555 1_555
O41_2 C42_3 1_555 1_555
O22_3 Eu10_2 1_555 1_555
O23_3 Eu10_2 1_555 1_555
O24_3 Eu10_2 1_555 1_555
O25_4 Eu15_2 1_555 1_555
O26_4 Eu6_3 1_555 1_555
Eu10_2 O12_3 1_555 1_555
Eu15_2 O23_3 1_555 1_555
Eu6_3 O13_3 1_555 1_555
O43_3 Eu6_3 1_555 1_555
O44_3 Eu15_2 1_555 1_555
C28_3 C29_3 1_555 1_555
C30_3 C31_3 1_555 1_555
C31_3 C32_3 1_555 1_555
C34_3 C35_3 1_555 1_555
C40_3 C41_3 1_555 1_555
O22_3 Eu6_3 1_555 1_555
O23_3 Eu6_3 1_555 1_555
O24_3 Eu15_2 1_555 1_555
O16_5 C21_7 1_555 1_555
O17_5 C22_7 1_555 1_555
O16_5 Eu19_2 1_555 1_555
O17_5 Eu17 1_555 1_555
O46_2 Eu11 1_555 1_555
O50_2 Eu11 1_555 1_555
C22_7 H43_7 1_555 1_555
C21_7 H44_7 1_555 1_555
O16_6 C21_8 1_555 1_555
O17_6 C22_8 1_555 1_555
O16_6 Eu19_3 1_555 1_555
O17_6 Eu17_2 1_555 1_555
C22_8 H43_8 1_555 1_555
C21_8 H44_8 1_555 1_555
C21_9 O43_2 1_555 1_555
C22_9 O44_2 1_555 1_555
Eu11_2 O47_2 1_555 1_555
O46_3 Eu11_2 1_555 1_555
O50_3 Eu11_2 1_555 1_555
C22_9 H43_9 1_555 1_555
C21_9 H44_9 1_555 1_555
C21_10 O43_3 1_555 1_555
C22_10 O44_3 1_555 1_555
C22_10 H43_10 1_555 1_555
C21_10 H44_10 1_555 1_555
C1_4 C2_4 1_555 1_555
C2_4 C3_4 1_555 1_555
C3_4 H1_4 1_555 1_555
C4_4 C3_4 1_555 1_555
H2_4 C4_4 1_555 1_555
C5_4 C4_4 1_555 1_555
C6_4 C5_4 1_555 1_555
H3_4 C6_4 1_555 1_555
C7_4 C2_4 1_555 1_555
H4_4 C7_4 1_555 1_555
C8_4 C5_4 1_555 1_555
C9_4 C8_4 1_555 1_555
C10_4 C9_4 1_555 1_555
C11_4 C10_4 1_555 1_555
H5_4 C11_4 1_555 1_555
C12_4 C11_4 1_555 1_555
C13_4 C8_4 1_555 1_555
H6_4 C13_4 1_555 1_555
C14_4 C12_4 1_555 1_555
C15_4 C14_4 1_555 1_555
H7_4 C15_4 1_555 1_555
C16_4 C15_4 1_555 1_555
H8_4 C16_4 1_555 1_555
C17_4 C16_4 1_555 1_555
C18_4 C17_4 1_555 1_555
H9_4 C18_4 1_555 1_555
C19_4 C14_4 1_555 1_555
H10_4 C19_4 1_555 1_555
C20_4 C17_4 1_555 1_555
N1_5 C9_4 1_555 1_555
H11_5 N1_5 1_555 1_555
O1_4 C1_4 1_555 1_555
O33_2 C1_4 1_555 1_555
O35 C20_4 1_555 1_555
O39 C20_4 1_555 1_555
Eu9 O1_4 1_555 1_555
C6_4 C7_4 1_555 1_555
C12_4 C13_4 1_555 1_555
C18_4 C19_4 1_555 1_555
H11_6 N1_6 1_555 1_555
C23_4 C24_4 1_555 1_555
C24_4 C25_4 1_555 1_555
C25_4 H12_4 1_555 1_555
C26_4 C25_4 1_555 1_555
H13_4 C26_4 1_555 1_555
C27_4 C26_4 1_555 1_555
C28_4 C27_4 1_555 1_555
H14_4 C28_4 1_555 1_555
C29_4 C24_4 1_555 1_555
H15_4 C29_4 1_555 1_555
C30_4 C27_4 1_555 1_555
C31_4 N1_6 1_555 1_555
C33_4 C32_4 1_555 1_555
H16_4 C33_4 1_555 1_555
C34_4 C33_4 1_555 1_555
C35_4 C30_4 1_555 1_555
H17_4 C35_4 1_555 1_555
C36_4 C34_4 1_555 1_555
C37_4 C36_4 1_555 1_555
H18_4 C37_4 1_555 1_555
C38_4 C37_4 1_555 1_555
H19_4 C38_4 1_555 1_555
C39_4 C38_4 1_555 1_555
C40_4 C39_4 1_555 1_555
H20_4 C40_4 1_555 1_555
C41_4 C36_4 1_555 1_555
H21_4 C41_4 1_555 1_555
C42_4 C39_4 1_555 1_555
O12_4 C23_4 1_555 1_555
O13_4 C23_4 1_555 1_555
O37_2 C42_4 1_555 1_555
O41 C42_4 1_555 1_555
O23_4 Eu11 1_555 1_555
O25_5 Eu17 1_555 1_555
O26_5 Eu19_2 1_555 1_555
Eu11 O12_4 1_555 1_555
Eu17 O23_4 1_555 1_555
Eu19_2 O13_4 1_555 1_555
C28_4 C29_4 1_555 1_555
C30_4 C31_4 1_555 1_555
C31_4 C32_4 1_555 1_555
C34_4 C35_4 1_555 1_555
C40_4 C41_4 1_555 1_555
O23_4 Eu19_2 1_555 1_555
O25_6 Eu17_2 1_555 1_555
O26_6 Eu19_3 1_555 1_555
O8_4 Eu9_2 1_555 1_555
O10_5 Eu16 1_555 1_555
O11_5 Eu18_2 1_555 1_555
Eu16 O8_4 1_555 1_555
H32_5 N2_5 1_555 1_555
C63_4 C64_4 1_555 1_555
C64_4 C65_4 1_555 1_555
C65_4 H33_4 1_555 1_555
C66_4 C65_4 1_555 1_555
H34_4 C66_4 1_555 1_555
C67_4 C66_4 1_555 1_555
C68_4 C67_4 1_555 1_555
H35_4 C68_4 1_555 1_555
C69_4 C64_4 1_555 1_555
H36_4 C69_4 1_555 1_555
C70_4 C67_4 1_555 1_555
C71_4 N2_5 1_555 1_555
C73_4 C72_4 1_555 1_555
H37_4 C73_4 1_555 1_555
C74_4 C73_4 1_555 1_555
C75_4 C70_4 1_555 1_555
H38_4 C75_4 1_555 1_555
C76_4 C74_4 1_555 1_555
C77_4 C76_4 1_555 1_555
H39_4 C77_4 1_555 1_555
C78_4 C77_4 1_555 1_555
H40_4 C78_4 1_555 1_555
C79_4 C78_4 1_555 1_555
C80_4 C79_4 1_555 1_555
H41_4 C80_4 1_555 1_555
C81_4 C76_4 1_555 1_555
H42_4 C81_4 1_555 1_555
C82_4 C79_4 1_555 1_555
O27_4 Eu9_2 1_555 1_555
O28_4 Eu18_2 1_555 1_555
O38_2 C82_4 1_555 1_555
O42 C82_4 1_555 1_555
O8_4 Eu18_2 1_555 1_555
C63_4 O27_4 1_555 1_555
C63_4 O28_4 1_555 1_555
C68_4 C69_4 1_555 1_555
C70_4 C71_4 1_555 1_555
C71_4 C72_4 1_555 1_555
C74_4 C75_4 1_555 1_555
C80_4 C81_4 1_555 1_555
O10_6 Eu16_2 1_555 1_555
O11_6 Eu18_3 1_555 1_555
C43_4 C44_4 1_555 1_555
C44_4 C45_4 1_555 1_555
C45_4 H22_4 1_555 1_555
C46_4 C45_4 1_555 1_555
H23_4 C46_4 1_555 1_555
C47_4 C46_4 1_555 1_555
C48_4 C47_4 1_555 1_555
H24_4 C48_4 1_555 1_555
C49_4 C44_4 1_555 1_555
H25_4 C49_4 1_555 1_555
C50_4 C47_4 1_555 1_555
C51_4 C50_4 1_555 1_555
C52_4 C51_4 1_555 1_555
C53_4 C52_4 1_555 1_555
H26_4 C53_4 1_555 1_555
C54_4 C53_4 1_555 1_555
C55_4 C50_4 1_555 1_555
H27_4 C55_4 1_555 1_555
C56_4 C54_4 1_555 1_555
C57_4 C56_4 1_555 1_555
H28_4 C57_4 1_555 1_555
C58_4 C57_4 1_555 1_555
H29_4 C58_4 1_555 1_555
C59_4 C58_4 1_555 1_555
C60_4 C59_4 1_555 1_555
H30_4 C60_4 1_555 1_555
C61_4 C56_4 1_555 1_555
H31_4 C61_4 1_555 1_555
C62_4 C59_4 1_555 1_555
N2_6 C51_4 1_555 1_555
H32_6 N2_6 1_555 1_555
O18_4 C43_4 1_555 1_555
O34_2 C43_4 1_555 1_555
O36 C62_4 1_555 1_555
O40 C62_4 1_555 1_555
C48_4 C49_4 1_555 1_555
C54_4 C55_4 1_555 1_555
C60_4 C61_4 1_555 1_555
O18_4 Eu11_2 1_555 1_555

#END
