
###############################################################################
#
# This file contains modified crystal structure data generated from the
# MOF subset of the Cambridge Structural Database (CSD) v543 
# hosted by the Cambridge Crystallographic Data Centre (CCDC).
#
# This work is licensed under the Creative Commons
# Attribution-NonCommercial-ShareAlike 4.0 International License.
# To view a copy of this license, visit
# http://creativecommons.org/licenses/by-nc-sa/4.0/
# or send a letter to
# Creative Commons, PO Box 1866, Mountain View, CA 94042, USA.
#
# CIF created using the CSD Python API on 29 September 2022
# The structure has been converted into the P1 space group
# The structure has a 3D framework
# The original CSD entry EMAFAA is in the tetragonal crystal system
# The original CSD entry EMAFAA is in a Sohncke space group
# The framework has been calculated to contain at least 10.0% void space
# The void calculation uses a probe of radius 1.32A, grid spacing 0.4
# The framework is charged, counterions have been retained in the structure
#
###############################################################################

data_EMAFAA
_chemical_formula_moiety         '(C264 H288 Ag8 B8 F32 N48)n'
_symmetry_cell_setting           triclinic
_symmetry_space_group_name_H-M   'P 1'
_symmetry_Int_Tables_number      1
_space_group_name_Hall           'P 1'
loop_
_symmetry_equiv_pos_site_id
_symmetry_equiv_pos_as_xyz
1 x,y,z
_cell_length_a                   20.379(3)
_cell_length_b                   20.379(3)
_cell_length_c                   16.588(2)
_cell_angle_alpha                90
_cell_angle_beta                 90
_cell_angle_gamma                90
_cell_volume                     6889.06
loop_
_atom_site_label
_atom_site_type_symbol
_atom_site_fract_x
_atom_site_fract_y
_atom_site_fract_z
N3 N 0.03987(16) 0.20180(16) 0.27107(19)
N4 N 0.05569(16) 0.20812(16) 0.1920(2)
C17 C 0.1170(2) 0.1865(2) 0.1849(3)
C18 C 0.1406(2) 0.1658(2) 0.2590(3)
H16 H 0.1828 0.1480 0.2700
C19 C 0.0908(2) 0.1761(2) 0.3133(3)
C20 C 0.1497(2) 0.1859(2) 0.1042(3)
H17 H 0.1367 0.1464 0.0746
H18 H 0.1975 0.1861 0.1114
H19 H 0.1365 0.2249 0.0736
C21 C 0.0861(2) 0.1638(3) 0.4018(3)
H20 H 0.0816 0.2056 0.4302
H21 H 0.1260 0.1414 0.4202
H22 H 0.0479 0.1361 0.4130
Ag2 Ag 0.267439(15) 0.485926(15) 0.343633(19)
N7 N 0.29797(16) 0.33519(16) 0.2909(2)
N8 N 0.32223(16) 0.39716(17) 0.3020(2)
C34 C 0.38498(19) 0.3946(2) 0.2767(3)
C35 C 0.3993(2) 0.3310(2) 0.2502(3)
H37 H 0.4400 0.3161 0.2291
C36 C 0.34344(19) 0.2945(2) 0.2603(2)
C37 C 0.4268(2) 0.4540(2) 0.2785(3)
H38 H 0.4378 0.4670 0.2233
H39 H 0.4672 0.4446 0.3084
H40 H 0.4031 0.4898 0.3052
C38 C 0.3299(2) 0.2243(2) 0.2440(3)
H41 H 0.3219 0.2014 0.2950
H42 H 0.3678 0.2046 0.2169
H43 H 0.2912 0.2205 0.2094
C39 C 0.23170(19) 0.3210(2) 0.3170(2)
H44 H 0.2241 0.3428 0.3695
H45 H 0.2276 0.2731 0.3256
C40 C 0.17848(18) 0.34276(18) 0.2585(2)
C41 C 0.1915(2) 0.34917(19) 0.1788(2)
H46 H 0.2348 0.3417 0.1597
C42 C 0.14157(18) 0.3668(2) 0.1237(2)
H47 H 0.1515 0.3697 0.0679
C43 C 0.07897(19) 0.37972(17) 0.1497(3)
C44 C 0.06411(19) 0.37602(17) 0.2332(2)
C45 C 0.11376(18) 0.35434(17) 0.2883(2)
C46 C 0.00087(18) 0.39136(19) 0.2650(3)
C48 C 0.03462(19) 0.35980(18) 0.3982(3)
H50 H 0.0241 0.3527 0.4533
C49 C 0.0968(2) 0.34656(19) 0.3701(2)
H51 H 0.1292 0.3317 0.4069
N11 N 0.29188(16) 0.55569(16) 0.4420(2)
N12 N 0.03398(17) 0.37022(16) 0.0102(2)
N14 N 0.19433(17) 0.51853(17) 0.2488(2)
C66 C 0.0258(2) 0.39870(19) 0.0898(3)
H72 H 0.0251 0.4471 0.0846
N13 N 0.01853(17) 0.30567(17) 0.9988(2)
C61 C 0.0311(2) 0.2938(2) 0.9221(3)
C62 C 0.0558(3) 0.3496(2) 0.8848(3)
H64 H 0.0692 0.3536 0.8301
C63 C 0.0570(3) 0.3975(2) 0.9419(3)
C64 C 0.0162(3) 0.2272(3) 0.8862(3)
H65 H 0.0289 0.1928 0.9244
H66 H 0.0408 0.2218 0.8359
C65 C 0.0778(3) 0.4691(3) 0.9388(3)
H68 H 0.0443 0.4963 0.9649
H69 H 0.0828 0.4827 0.8824
H70 H 0.1197 0.4744 0.9669
Ag1 Ag 0.985926(15) 0.232561(15) 0.093633(19)
N1 N 0.83519(16) 0.20203(16) 0.0409(2)
N2 N 0.89716(17) 0.17777(16) 0.0520(2)
C1 C 0.8946(2) 0.11502(19) 0.0267(3)
C2 C 0.8310(2) 0.1007(2) 0.0002(3)
C3 C 0.7945(2) 0.15656(19) 0.0103(2)
C4 C 0.9540(2) 0.0732(2) 0.0285(3)
H3 H 0.9446 0.0328 0.0584
H4 H 0.9898 0.0969 0.0552
H5 H 0.7014 0.1781 0.0450
C6 C 0.8210(2) 0.26830(19) 0.0670(2)
H8 H 0.8428 0.2759 0.1195
H9 H 0.7731 0.2724 0.0756
C7 C 0.84276(18) 0.32152(18) 0.0085(2)
C12 C 0.85434(17) 0.38624(18) 0.0383(2)
C13 C 0.89136(19) 0.49913(18) 0.0150(3)
C14 C 0.88388(17) 0.5128(2) 0.0950(3)
H13 H 0.8951 0.5551 0.1147
C15 C 0.85980(18) 0.46538(19) 0.1482(3)
H14 H 0.8527 0.4759 0.2033
C16 C 0.84656(19) 0.4032(2) 0.1201(2)
H15 H 0.8317 0.3708 0.1569
C22 C 0.97537(19) 0.21959(19) 0.2972(2)
H23 H 0.9636 0.2625 0.2734
H24 H 0.9754 0.2246 0.3566
C23 C 0.92409(19) 0.16946(19) 0.2737(2)
C24 C 0.94148(19) 0.10609(19) 0.2614(2)
H25 H 0.9860 0.0933 0.2679
C25 C 0.85671(19) 0.18921(19) 0.2640(2)
C26 C 0.7714(2) 0.2724(2) 0.2668(2)
H26 H 0.7573 0.3156 0.2800
C27 C 0.8350(2) 0.25432(19) 0.2814(2)
H27 H 0.8649 0.2853 0.3032
Ag4 Ag 0.767439(15) 0.014074(15) 0.406367(19)
H48 H 0.9677 0.4071 0.2298
C47 C 0.9872(2) 0.38388(17) 0.3450(3)
H49 H 0.9449 0.3951 0.3647
C55 C 0.78041(19) 0.02463(19) 0.2028(2)
H59 H 0.7375 0.0364 0.2266
H60 H 0.7754 0.0246 0.1434
C56 C 0.83054(19) 0.07591(19) 0.2263(2)
C57 C 0.89391(19) 0.05852(19) 0.2386(2)
H61 H 0.9067 0.0140 0.2321
C58 C 0.81079(19) 0.14329(19) 0.2360(2)
C59 C 0.7276(2) 0.2286(2) 0.2332(2)
H62 H 0.6844 0.2427 0.2200
C60 C 0.74568(19) 0.1650(2) 0.2186(2)
H63 H 0.7147 0.1351 0.1968
H71 H 0.9828 0.3849 0.1116
H1 H 0.8161 0.0600 0.9791
H2 H 0.9670 0.0622 0.9733
C5 C 0.7243(2) 0.1701(2) 0.9940(3)
H6 H 0.7046 0.1322 0.9669
H7 H 0.7205 0.2088 0.9594
C8 C 0.84917(19) 0.3085(2) 0.9288(2)
H10 H 0.8417 0.2652 0.9097
C9 C 0.8668(2) 0.35843(18) 0.8737(2)
H11 H 0.8697 0.3485 0.8179
C10 C 0.87972(17) 0.42103(19) 0.8997(3)
C11 C 0.87602(17) 0.43589(19) 0.9832(2)
H12 H 0.9071 0.5323 0.9798
N5 N 0.87022(16) 0.46602(17) 0.7602(2)
N6 N 0.80567(17) 0.48147(17) 0.7488(2)
C28 C 0.7938(2) 0.4689(2) 0.6721(3)
C29 C 0.8496(2) 0.4442(3) 0.6348(3)
H28 H 0.8536 0.4308 0.5801
C30 C 0.8975(2) 0.4430(3) 0.6919(3)
C31 C 0.7272(3) 0.4838(3) 0.6362(3)
H29 H 0.6928 0.4711 0.6744
H30 H 0.7218 0.4592 0.5859
H31 H 0.7239 0.5309 0.6250
C32 C 0.9691(3) 0.4222(3) 0.6888(3)
H32 H 0.9963 0.4557 0.7149
H33 H 0.9827 0.4172 0.6324
H34 H 0.9744 0.3803 0.7169
C33 C 0.89870(19) 0.4742(2) 0.8398(3)
H35 H 0.8849 0.5172 0.8616
H36 H 0.9471 0.4749 0.8346
Ag3 Ag 0.732561(15) 0.514074(15) 0.843633(19)
H67 H 0.9691 0.2239 0.8750
N9 N 0.79820(16) 0.96013(16) 0.22893(19)
N10 N 0.79188(16) 0.94431(16) 0.3080(2)
C50 C 0.8135(2) 0.8830(2) 0.3151(3)
C51 C 0.8342(2) 0.8594(2) 0.2410(3)
H52 H 0.8520 0.8172 0.2300
C52 C 0.8239(2) 0.9092(2) 0.1867(3)
C53 C 0.8141(2) 0.8503(2) 0.3958(3)
H53 H 0.8536 0.8633 0.4254
H54 H 0.8139 0.8025 0.3886
H55 H 0.7751 0.8635 0.4264
C54 C 0.8362(3) 0.9139(2) 0.0982(3)
H56 H 0.7944 0.9184 0.0698
H57 H 0.8586 0.8740 0.0798
H58 H 0.8639 0.9521 0.0870
N9_2 N 0.20180(16) 0.03987(16) 0.72893(19)
N10_2 N 0.20812(16) 0.05569(16) 0.8080(2)
C50_2 C 0.1865(2) 0.1170(2) 0.8151(3)
C51_2 C 0.1658(2) 0.1406(2) 0.7410(3)
H52_2 H 0.1480 0.1828 0.7300
C52_2 C 0.1761(2) 0.0908(2) 0.6867(3)
C53_2 C 0.1859(2) 0.1497(2) 0.8958(3)
H53_2 H 0.1464 0.1367 0.9254
H54_2 H 0.1861 0.1975 0.8886
H55_2 H 0.2249 0.1365 0.9264
C54_2 C 0.1638(3) 0.0861(2) 0.5982(3)
H56_2 H 0.2056 0.0816 0.5698
H57_2 H 0.1414 0.1260 0.5798
H58_2 H 0.1361 0.0479 0.5870
Ag1_2 Ag 0.014074(15) 0.767439(15) 0.593633(19)
N1_2 N 0.16481(16) 0.79797(16) 0.5409(2)
N2_2 N 0.10284(17) 0.82223(16) 0.5520(2)
C1_2 C 0.1054(2) 0.88498(19) 0.5267(3)
C2_2 C 0.1690(2) 0.8993(2) 0.5002(3)
H1_2 H 0.1839 0.9400 0.4791
C3_2 C 0.2055(2) 0.84344(19) 0.5103(2)
C4_2 C 0.0460(2) 0.9268(2) 0.5285(3)
H2_2 H 0.0330 0.9378 0.4733
H3_2 H 0.0554 0.9672 0.5584
H4_2 H 0.0102 0.9031 0.5552
C5_2 C 0.2757(2) 0.8299(2) 0.4940(3)
H5_2 H 0.2986 0.8219 0.5450
H6_2 H 0.2954 0.8678 0.4669
H7_2 H 0.2795 0.7912 0.4594
C6_2 C 0.1790(2) 0.73170(19) 0.5670(2)
H8_2 H 0.1572 0.7241 0.6195
H9_2 H 0.2269 0.7276 0.5756
C7_2 C 0.15724(18) 0.67848(18) 0.5085(2)
C8_2 C 0.15083(19) 0.6915(2) 0.4288(2)
H10_2 H 0.1583 0.7348 0.4097
C9_2 C 0.1332(2) 0.64157(18) 0.3737(2)
H11_2 H 0.1303 0.6515 0.3179
C10_2 C 0.12028(17) 0.57897(19) 0.3997(3)
C11_2 C 0.12398(17) 0.56411(19) 0.4832(2)
C12_2 C 0.14566(17) 0.61376(18) 0.5383(2)
C13_2 C 0.10864(19) 0.50087(18) 0.5150(3)
H12_2 H 0.0929 0.4677 0.4798
C14_2 C 0.11612(17) 0.4872(2) 0.5950(3)
H13_2 H 0.1049 0.4449 0.6147
C15_2 C 0.14020(18) 0.53462(19) 0.6482(3)
H14_2 H 0.1473 0.5241 0.7033
C16_2 C 0.15344(19) 0.5968(2) 0.6201(2)
H15_2 H 0.1683 0.6292 0.6569
C22_2 C 0.02463(19) 0.78041(19) 0.7972(2)
H23_2 H 0.0364 0.7375 0.7734
H24_2 H 0.0246 0.7754 0.8566
C23_2 C 0.07591(19) 0.83054(19) 0.7737(2)
C24_2 C 0.05852(19) 0.89391(19) 0.7614(2)
H25_2 H 0.0140 0.9067 0.7679
C25_2 C 0.14329(19) 0.81079(19) 0.7640(2)
C26_2 C 0.2286(2) 0.7276(2) 0.7668(2)
H26_2 H 0.2427 0.6844 0.7800
C27_2 C 0.1650(2) 0.74568(19) 0.7814(2)
H27_2 H 0.1351 0.7147 0.8032
N5_2 N 0.12978(16) 0.53398(17) 0.2602(2)
C28_2 C 0.2062(2) 0.5311(2) 0.1721(3)
C29_2 C 0.1504(2) 0.5558(3) 0.1348(3)
H28_2 H 0.1464 0.5692 0.0801
C30_2 C 0.1025(2) 0.5570(3) 0.1919(3)
C31_2 C 0.2728(3) 0.5162(3) 0.1362(3)
H29_2 H 0.3072 0.5289 0.1744
H30_2 H 0.2782 0.5408 0.0859
H31_2 H 0.2761 0.4691 0.1250
C32_2 C 0.0309(3) 0.5778(3) 0.1888(3)
H32_2 H 0.0037 0.5443 0.2149
H33_2 H 0.0173 0.5828 0.1324
H34_2 H 0.0256 0.6197 0.2169
C33_2 C 0.10130(19) 0.5258(2) 0.3398(3)
H35_2 H 0.1151 0.4828 0.3616
H36_2 H 0.0529 0.5251 0.3346
Ag4_2 Ag 0.232561(15) 0.985926(15) 0.906367(19)
H48_2 H 0.0323 0.5929 0.7298
C47_2 C 0.0128(2) 0.61612(17) 0.8450(3)
H49_2 H 0.0551 0.6049 0.8647
C55_2 C 0.21959(19) 0.97537(19) 0.7028(2)
H59_2 H 0.2625 0.9636 0.7266
H60_2 H 0.2246 0.9754 0.6434
C56_2 C 0.16946(19) 0.92409(19) 0.7263(2)
C57_2 C 0.10609(19) 0.94148(19) 0.7386(2)
H61_2 H 0.0933 0.9860 0.7321
C58_2 C 0.18921(19) 0.85671(19) 0.7360(2)
C59_2 C 0.2724(2) 0.7714(2) 0.7332(2)
H62_2 H 0.3156 0.7573 0.7200
C60_2 C 0.25432(19) 0.8350(2) 0.7186(2)
H63_2 H 0.2853 0.8649 0.6968
H67_2 H 0.0309 0.7761 0.3750
H71_2 H 0.0172 0.6151 0.6116
N3_2 N 0.96013(16) 0.79820(16) 0.77107(19)
N4_2 N 0.94431(16) 0.79188(16) 0.6920(2)
C17_2 C 0.8830(2) 0.8135(2) 0.6849(3)
C18_2 C 0.8594(2) 0.8342(2) 0.7590(3)
H16_2 H 0.8172 0.8520 0.7700
C19_2 C 0.9092(2) 0.8239(2) 0.8133(3)
C20_2 C 0.8503(2) 0.8141(2) 0.6042(3)
H17_2 H 0.8633 0.8536 0.5746
H18_2 H 0.8025 0.8139 0.6114
H19_2 H 0.8635 0.7751 0.5736
C21_2 C 0.9139(2) 0.8362(3) 0.9018(3)
H20_2 H 0.9184 0.7944 0.9302
H21_2 H 0.8740 0.8586 0.9202
H22_2 H 0.9521 0.8639 0.9130
N7_2 N 0.70203(16) 0.66481(16) 0.7909(2)
N8_2 N 0.67777(16) 0.60284(17) 0.8020(2)
C34_2 C 0.61502(19) 0.6054(2) 0.7767(3)
C35_2 C 0.6007(2) 0.6690(2) 0.7502(3)
H37_2 H 0.5600 0.6839 0.7291
C36_2 C 0.65656(19) 0.7055(2) 0.7603(2)
C37_2 C 0.5732(2) 0.5460(2) 0.7785(3)
H38_2 H 0.5622 0.5330 0.7233
H39_2 H 0.5328 0.5554 0.8084
H40_2 H 0.5969 0.5102 0.8052
C38_2 C 0.6701(2) 0.7757(2) 0.7440(3)
H41_2 H 0.6781 0.7986 0.7950
H42_2 H 0.6322 0.7954 0.7169
H43_2 H 0.7088 0.7795 0.7094
C39_2 C 0.76830(19) 0.6790(2) 0.8170(2)
H44_2 H 0.7759 0.6572 0.8695
H45_2 H 0.7724 0.7269 0.8256
C40_2 C 0.82152(18) 0.65724(18) 0.7585(2)
C41_2 C 0.8085(2) 0.65083(19) 0.6788(2)
H46_2 H 0.7652 0.6583 0.6597
C42_2 C 0.85843(18) 0.6332(2) 0.6237(2)
H47_2 H 0.8485 0.6303 0.5679
C43_2 C 0.92103(19) 0.62028(17) 0.6497(3)
C44_2 C 0.93589(19) 0.62398(17) 0.7332(2)
C45_2 C 0.88624(18) 0.64566(17) 0.7883(2)
C46_2 C 0.99913(18) 0.60864(19) 0.7650(3)
C48_2 C 0.96538(19) 0.64020(18) 0.8982(3)
H50_2 H 0.9759 0.6473 0.9533
C49_2 C 0.9032(2) 0.65344(19) 0.8701(2)
H51_2 H 0.8708 0.6683 0.9069
N11_2 N 0.70812(16) 0.44431(16) 0.9420(2)
N12_2 N 0.96602(17) 0.62978(16) 0.5102(2)
N13_2 N 0.98147(17) 0.69433(17) 0.4988(2)
C61_2 C 0.9689(2) 0.7062(2) 0.4221(3)
C62_2 C 0.9442(3) 0.6504(2) 0.3848(3)
H64_2 H 0.9308 0.6464 0.3301
C63_2 C 0.9430(3) 0.6025(2) 0.4419(3)
C64_2 C 0.9838(3) 0.7728(3) 0.3862(3)
H65_2 H 0.9711 0.8072 0.4244
H66_2 H 0.9592 0.7782 0.3359
C65_2 C 0.9222(3) 0.5309(3) 0.4388(3)
H68_2 H 0.9557 0.5037 0.4649
H69_2 H 0.9172 0.5173 0.3824
H70_2 H 0.8803 0.5256 0.4669
C66_2 C 0.9742(2) 0.60130(19) 0.5898(3)
H72_2 H 0.9749 0.5529 0.5846
N3_3 N 0.29820(16) 0.53987(16) 0.52107(19)
C17_3 C 0.3135(2) 0.6170(2) 0.4349(3)
C18_3 C 0.3342(2) 0.6406(2) 0.5090(3)
H16_3 H 0.3520 0.6828 0.5200
C19_3 C 0.3239(2) 0.5908(2) 0.5633(3)
C20_3 C 0.3141(2) 0.6497(2) 0.3542(3)
H17_3 H 0.3536 0.6367 0.3246
H18_3 H 0.3139 0.6975 0.3614
H19_3 H 0.2751 0.6365 0.3236
C21_3 C 0.3362(3) 0.5861(2) 0.6518(3)
H20_3 H 0.2944 0.5816 0.6802
H21_3 H 0.3586 0.6260 0.6702
H22_3 H 0.3639 0.5479 0.6630
C22_3 C 0.28041(19) 0.47537(19) 0.5472(2)
H23_3 H 0.2375 0.4636 0.5234
H24_3 H 0.2754 0.4754 0.6066
C23_3 C 0.33054(19) 0.42409(19) 0.5237(2)
C24_3 C 0.39391(19) 0.44148(19) 0.5114(2)
H25_3 H 0.4067 0.4860 0.5179
C25_3 C 0.31079(19) 0.35671(19) 0.5140(2)
C26_3 C 0.2276(2) 0.2714(2) 0.5168(2)
H26_3 H 0.1844 0.2573 0.5300
C27_3 C 0.24568(19) 0.3350(2) 0.5314(2)
H27_3 H 0.2147 0.3649 0.5532
Ag4_3 Ag 0.485926(15) 0.267439(15) 0.656367(19)
N9_3 N 0.53987(16) 0.29820(16) 0.47893(19)
N10_3 N 0.55569(16) 0.29188(16) 0.5580(2)
C50_3 C 0.6170(2) 0.3135(2) 0.5651(3)
C51_3 C 0.6406(2) 0.3342(2) 0.4910(3)
H52_3 H 0.6828 0.3520 0.4800
C52_3 C 0.5908(2) 0.3239(2) 0.4367(3)
C53_3 C 0.6497(2) 0.3141(2) 0.6458(3)
H53_3 H 0.6367 0.3536 0.6754
H54_3 H 0.6975 0.3139 0.6386
H55_3 H 0.6365 0.2751 0.6764
C54_3 C 0.5861(2) 0.3362(3) 0.3482(3)
H56_3 H 0.5816 0.2944 0.3198
H57_3 H 0.6260 0.3586 0.3298
H58_3 H 0.5479 0.3639 0.3370
C55_3 C 0.47537(19) 0.28041(19) 0.4528(2)
H59_3 H 0.4636 0.2375 0.4766
H60_3 H 0.4754 0.2754 0.3934
C56_3 C 0.42409(19) 0.33054(19) 0.4763(2)
C57_3 C 0.44148(19) 0.39391(19) 0.4886(2)
H61_3 H 0.4860 0.4067 0.4821
C58_3 C 0.35671(19) 0.31079(19) 0.4860(2)
C59_3 C 0.2714(2) 0.2276(2) 0.4832(2)
H62_3 H 0.2573 0.1844 0.4700
C60_3 C 0.3350(2) 0.24568(19) 0.4686(2)
H63_3 H 0.3649 0.2147 0.4468
N13_3 N 0.30567(17) 0.01853(17) 0.0012(2)
C61_3 C 0.2938(2) 0.0311(2) 0.0779(3)
C62_3 C 0.3496(2) 0.0558(3) 0.1152(3)
H64_3 H 0.3536 0.0692 0.1699
C63_3 C 0.3975(2) 0.0570(3) 0.0581(3)
C64_3 C 0.2272(3) 0.0162(3) 0.1138(3)
H65_3 H 0.1928 0.0289 0.0756
H66_3 H 0.2218 0.0408 0.1641
C65_3 C 0.4691(3) 0.0778(3) 0.0612(3)
H68_3 H 0.4963 0.0443 0.0351
H69_3 H 0.4827 0.0828 0.1176
H70_3 H 0.4744 0.1197 0.0331
N7_3 N 0.33519(16) 0.29797(16) 0.7091(2)
N8_3 N 0.39716(17) 0.32223(16) 0.6980(2)
C34_3 C 0.3946(2) 0.38498(19) 0.7233(3)
C35_3 C 0.3310(2) 0.3993(2) 0.7498(3)
H37_3 H 0.3161 0.4400 0.7709
C36_3 C 0.2945(2) 0.34344(19) 0.7397(2)
C37_3 C 0.4540(2) 0.4268(2) 0.7215(3)
H38_3 H 0.4670 0.4378 0.7767
H39_3 H 0.4446 0.4672 0.6916
H40_3 H 0.4898 0.4031 0.6948
C38_3 C 0.2243(2) 0.3299(2) 0.7560(3)
H41_3 H 0.2014 0.3219 0.7050
H42_3 H 0.2046 0.3678 0.7831
H43_3 H 0.2205 0.2912 0.7906
C39_3 C 0.3210(2) 0.23170(19) 0.6830(2)
H44_3 H 0.3428 0.2241 0.6305
H45_3 H 0.2731 0.2276 0.6744
C40_3 C 0.34276(18) 0.17848(18) 0.7415(2)
C41_3 C 0.34917(19) 0.1915(2) 0.8212(2)
H46_3 H 0.3417 0.2348 0.8403
C42_3 C 0.3668(2) 0.14157(18) 0.8763(2)
H47_3 H 0.3697 0.1515 0.9321
C43_3 C 0.37972(17) 0.07897(19) 0.8503(3)
C44_3 C 0.37602(17) 0.06411(19) 0.7668(2)
C45_3 C 0.35434(17) 0.11376(18) 0.7117(2)
C46_3 C 0.39136(19) 0.00087(18) 0.7350(3)
C48_3 C 0.35980(18) 0.03462(19) 0.6018(3)
H50_3 H 0.3527 0.0241 0.5467
C49_3 C 0.34656(19) 0.0968(2) 0.6299(2)
H51_3 H 0.3317 0.1292 0.5931
N12_3 N 0.37022(16) 0.03398(17) 0.9898(2)
N14_2 N 0.51853(17) 0.19433(17) 0.7512(2)
C66_3 C 0.39870(19) 0.0258(2) 0.9102(3)
H72_3 H 0.4471 0.0251 0.9154
H1_3 H 0.0600 0.8161 0.0209
H2_3 H 0.0622 0.9670 0.0267
C5_3 C 0.1701(2) 0.7243(2) 0.0060(3)
H6_3 H 0.1322 0.7046 0.0331
H7_3 H 0.2088 0.7205 0.0406
C8_3 C 0.3085(2) 0.84917(19) 0.0712(2)
H10_3 H 0.2652 0.8417 0.0903
C9_3 C 0.35843(18) 0.8668(2) 0.1263(2)
H11_3 H 0.3485 0.8697 0.1821
C10_3 C 0.42103(19) 0.87972(17) 0.1003(3)
C11_3 C 0.43589(19) 0.87602(17) 0.0168(2)
H12_3 H 0.5323 0.9071 0.0202
N5_3 N 0.46602(17) 0.87022(16) 0.2398(2)
N6_2 N 0.48147(17) 0.80567(17) 0.2512(2)
C28_3 C 0.4689(2) 0.7938(2) 0.3279(3)
C29_3 C 0.4442(3) 0.8496(2) 0.3652(3)
H28_3 H 0.4308 0.8536 0.4199
C30_3 C 0.4430(3) 0.8975(2) 0.3081(3)
C31_3 C 0.4838(3) 0.7272(3) 0.3638(3)
H29_3 H 0.4711 0.6928 0.3256
H30_3 H 0.4592 0.7218 0.4141
H31_3 H 0.5309 0.7239 0.3750
C32_3 C 0.4222(3) 0.9691(3) 0.3112(3)
H32_3 H 0.4557 0.9963 0.2851
H33_3 H 0.4172 0.9827 0.3676
H34_3 H 0.3803 0.9744 0.2831
C33_3 C 0.4742(2) 0.89870(19) 0.1602(3)
H35_3 H 0.5172 0.8849 0.1384
H36_3 H 0.4749 0.9471 0.1654
Ag3_2 Ag 0.514074(15) 0.732561(15) 0.156367(19)
H67_3 H 0.2239 0.9691 0.1250
N1_3 N 0.20203(16) 0.83519(16) 0.9591(2)
N2_3 N 0.17777(16) 0.89716(17) 0.9480(2)
C1_3 C 0.11502(19) 0.8946(2) 0.9733(3)
C2_3 C 0.1007(2) 0.8310(2) 0.9998(3)
C3_3 C 0.15656(19) 0.7945(2) 0.9897(2)
C4_3 C 0.0732(2) 0.9540(2) 0.9715(3)
H3_3 H 0.0328 0.9446 0.9416
H4_3 H 0.0969 0.9898 0.9448
H5_3 H 0.1781 0.7014 0.9550
C6_3 C 0.26830(19) 0.8210(2) 0.9330(2)
H8_3 H 0.2759 0.8428 0.8805
H9_3 H 0.2724 0.7731 0.9244
C7_3 C 0.32152(18) 0.84276(18) 0.9915(2)
C12_3 C 0.38624(18) 0.85434(17) 0.9617(2)
C13_3 C 0.49913(18) 0.89136(19) 0.9850(3)
C14_3 C 0.5128(2) 0.88388(17) 0.9050(3)
H13_3 H 0.5551 0.8951 0.8853
C15_3 C 0.46538(19) 0.85980(18) 0.8518(3)
H14_3 H 0.4759 0.8527 0.7967
C16_3 C 0.4032(2) 0.84656(19) 0.8799(2)
H15_3 H 0.3708 0.8317 0.8431
H48_3 H 0.4071 0.9677 0.7702
C47_3 C 0.38388(17) 0.9872(2) 0.6550(3)
H49_3 H 0.3951 0.9449 0.6353
H71_3 H 0.3849 0.9828 0.8884
N3_4 N 0.70180(16) 0.46013(16) 0.02107(19)
C18_4 C 0.6658(2) 0.3594(2) 0.0090(3)
H16_4 H 0.6480 0.3172 0.0200
C19_4 C 0.6761(2) 0.4092(2) 0.0633(3)
C21_4 C 0.6638(3) 0.4139(2) 0.1518(3)
H20_4 H 0.7056 0.4184 0.1802
H21_4 H 0.6414 0.3740 0.1702
H22_4 H 0.6361 0.4521 0.1630
C22_4 C 0.71959(19) 0.52463(19) 0.0472(2)
H23_4 H 0.7625 0.5364 0.0234
H24_4 H 0.7246 0.5246 0.1066
C23_4 C 0.66946(19) 0.57591(19) 0.0237(2)
C24_4 C 0.60609(19) 0.55852(19) 0.0114(2)
H25_4 H 0.5933 0.5140 0.0179
C25_4 C 0.68921(19) 0.64329(19) 0.0140(2)
C26_4 C 0.7724(2) 0.7286(2) 0.0168(2)
H26_4 H 0.8156 0.7427 0.0300
C27_4 C 0.75432(19) 0.6650(2) 0.0314(2)
H27_4 H 0.7853 0.6351 0.0532
N10_4 N 0.44431(16) 0.70812(16) 0.0580(2)
C50_4 C 0.3830(2) 0.6865(2) 0.0651(3)
C53_4 C 0.3503(2) 0.6859(2) 0.1458(3)
H53_4 H 0.3633 0.6464 0.1754
H54_4 H 0.3025 0.6861 0.1386
H55_4 H 0.3635 0.7249 0.1764
C17_4 C 0.6865(2) 0.3830(2) 0.9349(3)
C20_4 C 0.6859(2) 0.3503(2) 0.8542(3)
H17_4 H 0.6464 0.3633 0.8246
H18_4 H 0.6861 0.3025 0.8614
H19_4 H 0.7249 0.3635 0.8236
N9_4 N 0.46013(16) 0.70180(16) 0.97893(19)
C51_4 C 0.3594(2) 0.6658(2) 0.9910(3)
H52_4 H 0.3172 0.6480 0.9800
C52_4 C 0.4092(2) 0.6761(2) 0.9367(3)
C54_4 C 0.4139(2) 0.6638(3) 0.8482(3)
H56_4 H 0.4184 0.7056 0.8198
H57_4 H 0.3740 0.6414 0.8298
H58_4 H 0.4521 0.6361 0.8370
C55_4 C 0.52463(19) 0.71959(19) 0.9528(2)
H59_4 H 0.5364 0.7625 0.9766
H60_4 H 0.5246 0.7246 0.8934
C56_4 C 0.57591(19) 0.66946(19) 0.9763(2)
C57_4 C 0.55852(19) 0.60609(19) 0.9886(2)
H61_4 H 0.5140 0.5933 0.9821
C58_4 C 0.64329(19) 0.68921(19) 0.9860(2)
C59_4 C 0.7286(2) 0.7724(2) 0.9832(2)
H62_4 H 0.7427 0.8156 0.9700
C60_4 C 0.6650(2) 0.75432(19) 0.9686(2)
H63_4 H 0.6351 0.7853 0.9468
H12_4 H 0.5929 0.0323 0.2702
C14_4 C 0.61612(17) 0.0128(2) 0.1550(3)
H13_4 H 0.6049 0.0551 0.1353
H31_4 H 0.7761 0.0309 0.6250
H35_4 H 0.6151 0.0172 0.3884
N1_4 N 0.66481(16) 0.70203(16) 0.2091(2)
N2_4 N 0.60284(17) 0.67777(16) 0.1980(2)
C1_4 C 0.6054(2) 0.61502(19) 0.2233(3)
C2_4 C 0.6690(2) 0.6007(2) 0.2498(3)
H1_4 H 0.6839 0.5600 0.2709
C3_4 C 0.7055(2) 0.65656(19) 0.2397(2)
C4_4 C 0.5460(2) 0.5732(2) 0.2215(3)
H2_4 H 0.5330 0.5622 0.2767
H3_4 H 0.5554 0.5328 0.1916
H4_4 H 0.5102 0.5969 0.1948
C5_4 C 0.7757(2) 0.6701(2) 0.2560(3)
H5_4 H 0.7986 0.6781 0.2050
H6_4 H 0.7954 0.6322 0.2831
H7_4 H 0.7795 0.7088 0.2906
C6_4 C 0.6790(2) 0.76830(19) 0.1830(2)
H8_4 H 0.6572 0.7759 0.1305
H9_4 H 0.7269 0.7724 0.1744
C7_4 C 0.65724(18) 0.82152(18) 0.2415(2)
C8_4 C 0.65083(19) 0.8085(2) 0.3212(2)
H10_4 H 0.6583 0.7652 0.3403
C9_4 C 0.6332(2) 0.85843(18) 0.3763(2)
H11_4 H 0.6303 0.8485 0.4321
C10_4 C 0.62028(17) 0.92103(19) 0.3503(3)
C11_4 C 0.62398(17) 0.93589(19) 0.2668(2)
C12_4 C 0.64566(17) 0.88624(18) 0.2117(2)
C13_4 C 0.60864(19) 0.99913(18) 0.2350(3)
C15_4 C 0.64020(18) 0.96538(19) 0.1018(3)
H14_4 H 0.6473 0.9759 0.0467
C16_4 C 0.65344(19) 0.9032(2) 0.1299(2)
H15_4 H 0.6683 0.8708 0.0931
N5_4 N 0.62978(16) 0.96602(17) 0.4898(2)
N6_3 N 0.69433(17) 0.98147(17) 0.5012(2)
C28_4 C 0.7062(2) 0.9689(2) 0.5779(3)
C29_4 C 0.6504(2) 0.9442(3) 0.6152(3)
H28_4 H 0.6464 0.9308 0.6699
C30_4 C 0.6025(2) 0.9430(3) 0.5581(3)
C31_4 C 0.7728(3) 0.9838(3) 0.6138(3)
H29_4 H 0.8072 0.9711 0.5756
H30_4 H 0.7782 0.9592 0.6641
C32_4 C 0.5309(3) 0.9222(3) 0.5612(3)
H32_4 H 0.5037 0.9557 0.5351
H33_4 H 0.5173 0.9172 0.6176
H34_4 H 0.5256 0.8803 0.5331
C33_4 C 0.60130(19) 0.9742(2) 0.4102(3)
H36_4 H 0.5529 0.9749 0.4154
N1_5 N 0.79797(16) 0.16481(16) 0.4591(2)
N2_5 N 0.82223(16) 0.10284(17) 0.4480(2)
C1_5 C 0.88498(19) 0.1054(2) 0.4733(3)
C2_5 C 0.8993(2) 0.1690(2) 0.4998(3)
H1_5 H 0.9400 0.1839 0.5209
C3_5 C 0.84344(19) 0.2055(2) 0.4897(2)
C4_5 C 0.9268(2) 0.0460(2) 0.4715(3)
H2_5 H 0.9378 0.0330 0.5267
H3_5 H 0.9672 0.0554 0.4416
H4_5 H 0.9031 0.0102 0.4448
C5_5 C 0.8299(2) 0.2757(2) 0.5060(3)
H5_5 H 0.8219 0.2986 0.4550
H6_5 H 0.8678 0.2954 0.5331
H7_5 H 0.7912 0.2795 0.5406
C6_5 C 0.73170(19) 0.1790(2) 0.4330(2)
H8_5 H 0.7241 0.1572 0.3805
H9_5 H 0.7276 0.2269 0.4244
C7_5 C 0.67848(18) 0.15724(18) 0.4915(2)
C8_5 C 0.6915(2) 0.15083(19) 0.5712(2)
H10_5 H 0.7348 0.1583 0.5903
C9_5 C 0.64157(18) 0.1332(2) 0.6263(2)
H11_5 H 0.6515 0.1303 0.6821
C10_5 C 0.57897(19) 0.12028(17) 0.6003(3)
C11_5 C 0.56411(19) 0.12398(17) 0.5168(2)
C12_5 C 0.61376(18) 0.14566(17) 0.4617(2)
C13_5 C 0.50087(18) 0.10864(19) 0.4850(3)
H12_5 H 0.4677 0.0929 0.5202
C14_5 C 0.4872(2) 0.11612(17) 0.4050(3)
H13_5 H 0.4449 0.1049 0.3853
C15_5 C 0.53462(19) 0.14020(18) 0.3518(3)
H14_5 H 0.5241 0.1473 0.2967
C16_5 C 0.5968(2) 0.15344(19) 0.3799(2)
H15_5 H 0.6292 0.1683 0.3431
N5_5 N 0.53398(17) 0.12978(16) 0.7398(2)
C28_5 C 0.5311(2) 0.2062(2) 0.8279(3)
C29_5 C 0.5558(3) 0.1504(2) 0.8652(3)
H28_5 H 0.5692 0.1464 0.9199
C30_5 C 0.5570(3) 0.1025(2) 0.8081(3)
C31_5 C 0.5162(3) 0.2728(3) 0.8638(3)
H29_5 H 0.5289 0.3072 0.8256
H30_5 H 0.5408 0.2782 0.9141
H31_5 H 0.4691 0.2761 0.8750
C32_5 C 0.5778(3) 0.0309(3) 0.8112(3)
H32_5 H 0.5443 0.0037 0.7851
H33_5 H 0.5828 0.0173 0.8676
H34_5 H 0.6197 0.0256 0.7831
C33_5 C 0.5258(2) 0.10130(19) 0.6602(3)
H35_5 H 0.4828 0.1151 0.6384
H36_5 H 0.5251 0.0529 0.6654
F1 F 0.77829(17) 0.44500(19) 0.44709(17)
F2 F 0.72030(13) 0.42554(18) 0.3338(2)
F3 F 0.83047(12) 0.40996(13) 0.3350(2)
F4 F 0.78871(16) 0.51179(14) 0.3383(2)
B1 B 0.7787(2) 0.4487(3) 0.3642(3)
F1_2 F 0.22171(17) 0.55500(19) 0.94709(17)
F2_2 F 0.27970(13) 0.57446(18) 0.8338(2)
F3_2 F 0.16953(12) 0.59004(13) 0.8350(2)
F4_2 F 0.21129(16) 0.48821(14) 0.8383(2)
B1_2 B 0.2213(2) 0.5513(3) 0.8642(3)
F1_3 F 0.05500(19) 0.27829(17) 0.69709(17)
F2_3 F 0.07446(18) 0.22030(13) 0.5838(2)
F3_3 F 0.09004(13) 0.33047(12) 0.5850(2)
B1_3 B 0.0513(3) 0.2787(2) 0.6142(3)
F4_3 F 0.98821(14) 0.28871(16) 0.5883(2)
F1_4 F 0.44500(19) 0.77829(17) 0.55291(17)
F2_4 F 0.42554(18) 0.72030(13) 0.6662(2)
F3_4 F 0.40996(13) 0.83047(12) 0.6650(2)
F4_4 F 0.51179(14) 0.78871(16) 0.6617(2)
B1_4 B 0.4487(3) 0.7787(2) 0.6358(3)
F4_5 F 0.01179(14) 0.71129(16) 0.0883(2)
F1_5 F 0.94500(19) 0.72171(17) 0.19709(17)
F2_5 F 0.92554(18) 0.77970(13) 0.0838(2)
F3_5 F 0.90996(13) 0.66953(12) 0.0850(2)
B1_5 B 0.9487(3) 0.7213(2) 0.1142(3)
F4_6 F 0.71129(16) 0.01179(14) 0.9117(2)
F1_6 F 0.72171(17) 0.94500(19) 0.80291(17)
F2_6 F 0.77970(13) 0.92554(18) 0.9162(2)
F3_6 F 0.66953(12) 0.90996(13) 0.9150(2)
B1_6 B 0.7213(2) 0.9487(3) 0.8858(3)
F1_7 F 0.55500(19) 0.22171(17) 0.05291(17)
F2_7 F 0.57446(18) 0.27970(13) 0.1662(2)
F3_7 F 0.59004(13) 0.16953(12) 0.1650(2)
F4_7 F 0.48821(14) 0.21129(16) 0.1617(2)
B1_7 B 0.5513(3) 0.2213(2) 0.1358(3)
F1_8 F 0.27829(17) 0.05500(19) 0.30291(17)
F2_8 F 0.22030(13) 0.07446(18) 0.4162(2)
F3_8 F 0.33047(12) 0.09004(13) 0.4150(2)
B1_8 B 0.2787(2) 0.0513(3) 0.3858(3)
F4_8 F 0.28871(16) 0.98821(14) 0.4117(2)
loop_
_geom_bond_atom_site_label_1
_geom_bond_atom_site_label_2
_geom_bond_site_symmetry_1
_geom_bond_site_symmetry_2
N3 N4 1_555 1_555
C17 N4 1_555 1_555
C18 C17 1_555 1_555
H16 C18 1_555 1_555
C19 N3 1_555 1_555
C20 C17 1_555 1_555
H17 C20 1_555 1_555
H18 C20 1_555 1_555
H19 C20 1_555 1_555
C21 C19 1_555 1_555
H20 C21 1_555 1_555
H21 C21 1_555 1_555
H22 C21 1_555 1_555
Ag2 N8 1_555 1_555
N7 N8 1_555 1_555
N8 C34 1_555 1_555
C34 C35 1_555 1_555
C35 H37 1_555 1_555
C36 N7 1_555 1_555
C37 C34 1_555 1_555
H38 C37 1_555 1_555
H39 C37 1_555 1_555
H40 C37 1_555 1_555
C38 C36 1_555 1_555
H41 C38 1_555 1_555
H42 C38 1_555 1_555
H43 C38 1_555 1_555
C39 N7 1_555 1_555
H44 C39 1_555 1_555
H45 C39 1_555 1_555
C40 C39 1_555 1_555
C41 C40 1_555 1_555
H46 C41 1_555 1_555
C42 C41 1_555 1_555
H47 C42 1_555 1_555
C43 C42 1_555 1_555
C44 C43 1_555 1_555
C45 C40 1_555 1_555
C46 C44 1_555 1_555
H50 C48 1_555 1_555
C49 C45 1_555 1_555
H51 C49 1_555 1_555
N11 Ag2 1_555 1_555
N14 Ag2 1_555 1_555
C66 C43 1_555 1_555
H72 C66 1_555 1_555
C18 C19 1_555 1_555
C35 C36 1_555 1_555
C44 C45 1_555 1_555
C48 C49 1_555 1_555
N12 C66 1_555 1_555
C61 N13 1_555 1_555
C62 C61 1_555 1_555
H64 C62 1_555 1_555
C64 C61 1_555 1_555
H65 C64 1_555 1_555
H66 C64 1_555 1_555
C65 C63 1_555 1_555
H68 C65 1_555 1_555
H69 C65 1_555 1_555
H70 C65 1_555 1_555
C62 C63 1_555 1_555
Ag1 N2 1_555 1_555
N1 N2 1_555 1_555
N2 C1 1_555 1_555
C1 C2 1_555 1_555
C3 N1 1_555 1_555
C4 C1 1_555 1_555
H3 C4 1_555 1_555
H4 C4 1_555 1_555
C6 N1 1_555 1_555
H8 C6 1_555 1_555
H9 C6 1_555 1_555
C7 C6 1_555 1_555
C12 C7 1_555 1_555
C14 C13 1_555 1_555
H13 C14 1_555 1_555
C15 C14 1_555 1_555
H14 C15 1_555 1_555
C16 C12 1_555 1_555
H15 C16 1_555 1_555
H23 C22 1_555 1_555
H24 C22 1_555 1_555
C23 C22 1_555 1_555
C24 C23 1_555 1_555
H25 C24 1_555 1_555
C25 C23 1_555 1_555
C26 H26 1_555 1_555
C27 C25 1_555 1_555
H27 C27 1_555 1_555
H49 C47 1_555 1_555
H59 C55 1_555 1_555
H60 C55 1_555 1_555
C56 C55 1_555 1_555
C57 C24 1_555 1_555
H61 C57 1_555 1_555
C58 C25 1_555 1_555
C59 C26 1_555 1_555
H62 C59 1_555 1_555
C60 C58 1_555 1_555
H63 C60 1_555 1_555
C2 C3 1_555 1_555
C15 C16 1_555 1_555
C26 C27 1_555 1_555
C56 C57 1_555 1_555
C56 C58 1_555 1_555
C59 C60 1_555 1_555
H6 C5 1_555 1_555
H7 C5 1_555 1_555
H10 C8 1_555 1_555
C9 C8 1_555 1_555
H11 C9 1_555 1_555
C10 C9 1_555 1_555
C11 C10 1_555 1_555
N5 N6 1_555 1_555
N6 C28 1_555 1_555
C28 C29 1_555 1_555
C29 H28 1_555 1_555
C30 N5 1_555 1_555
C31 C28 1_555 1_555
H29 C31 1_555 1_555
H30 C31 1_555 1_555
H31 C31 1_555 1_555
C32 C30 1_555 1_555
H32 C32 1_555 1_555
H33 C32 1_555 1_555
H34 C32 1_555 1_555
C33 C10 1_555 1_555
H35 C33 1_555 1_555
H36 C33 1_555 1_555
Ag3 N6 1_555 1_555
N5 C33 1_555 1_555
C29 C30 1_555 1_555
N9 N10 1_555 1_555
N10 C50 1_555 1_555
C50 C51 1_555 1_555
C51 H52 1_555 1_555
C52 N9 1_555 1_555
C53 C50 1_555 1_555
H53 C53 1_555 1_555
H54 C53 1_555 1_555
H55 C53 1_555 1_555
C54 C52 1_555 1_555
H56 C54 1_555 1_555
H57 C54 1_555 1_555
H58 C54 1_555 1_555
C51 C52 1_555 1_555
N9_2 N10_2 1_555 1_555
N10_2 C50_2 1_555 1_555
C50_2 C51_2 1_555 1_555
C51_2 H52_2 1_555 1_555
C52_2 N9_2 1_555 1_555
C53_2 C50_2 1_555 1_555
H53_2 C53_2 1_555 1_555
H54_2 C53_2 1_555 1_555
H55_2 C53_2 1_555 1_555
C54_2 C52_2 1_555 1_555
H56_2 C54_2 1_555 1_555
H57_2 C54_2 1_555 1_555
H58_2 C54_2 1_555 1_555
C51_2 C52_2 1_555 1_555
Ag1_2 N2_2 1_555 1_555
N1_2 N2_2 1_555 1_555
N2_2 C1_2 1_555 1_555
C1_2 C2_2 1_555 1_555
C2_2 H1_2 1_555 1_555
C3_2 N1_2 1_555 1_555
C4_2 C1_2 1_555 1_555
H2_2 C4_2 1_555 1_555
H3_2 C4_2 1_555 1_555
H4_2 C4_2 1_555 1_555
C5_2 C3_2 1_555 1_555
H5_2 C5_2 1_555 1_555
H6_2 C5_2 1_555 1_555
H7_2 C5_2 1_555 1_555
C6_2 N1_2 1_555 1_555
H8_2 C6_2 1_555 1_555
H9_2 C6_2 1_555 1_555
C7_2 C6_2 1_555 1_555
C8_2 C7_2 1_555 1_555
H10_2 C8_2 1_555 1_555
C9_2 C8_2 1_555 1_555
H11_2 C9_2 1_555 1_555
C10_2 C9_2 1_555 1_555
C11_2 C10_2 1_555 1_555
C12_2 C7_2 1_555 1_555
C13_2 C11_2 1_555 1_555
H12_2 C13_2 1_555 1_555
C14_2 C13_2 1_555 1_555
H13_2 C14_2 1_555 1_555
C15_2 C14_2 1_555 1_555
H14_2 C15_2 1_555 1_555
C16_2 C12_2 1_555 1_555
H15_2 C16_2 1_555 1_555
H23_2 C22_2 1_555 1_555
H24_2 C22_2 1_555 1_555
C23_2 C22_2 1_555 1_555
C24_2 C23_2 1_555 1_555
H25_2 C24_2 1_555 1_555
C25_2 C23_2 1_555 1_555
C26_2 H26_2 1_555 1_555
C27_2 C25_2 1_555 1_555
H27_2 C27_2 1_555 1_555
N5_2 N14 1_555 1_555
N14 C28_2 1_555 1_555
C28_2 C29_2 1_555 1_555
C29_2 H28_2 1_555 1_555
C30_2 N5_2 1_555 1_555
C31_2 C28_2 1_555 1_555
H29_2 C31_2 1_555 1_555
H30_2 C31_2 1_555 1_555
H31_2 C31_2 1_555 1_555
C32_2 C30_2 1_555 1_555
H32_2 C32_2 1_555 1_555
H33_2 C32_2 1_555 1_555
H34_2 C32_2 1_555 1_555
C33_2 C10_2 1_555 1_555
H35_2 C33_2 1_555 1_555
H36_2 C33_2 1_555 1_555
H49_2 C47_2 1_555 1_555
H59_2 C55_2 1_555 1_555
H60_2 C55_2 1_555 1_555
C56_2 C55_2 1_555 1_555
C57_2 C24_2 1_555 1_555
H61_2 C57_2 1_555 1_555
C58_2 C25_2 1_555 1_555
C59_2 C26_2 1_555 1_555
H62_2 C59_2 1_555 1_555
C60_2 C58_2 1_555 1_555
H63_2 C60_2 1_555 1_555
C2_2 C3_2 1_555 1_555
C11_2 C12_2 1_555 1_555
C15_2 C16_2 1_555 1_555
C26_2 C27_2 1_555 1_555
N5_2 C33_2 1_555 1_555
C29_2 C30_2 1_555 1_555
C56_2 C57_2 1_555 1_555
C56_2 C58_2 1_555 1_555
C59_2 C60_2 1_555 1_555
N3_2 N4_2 1_555 1_555
C17_2 N4_2 1_555 1_555
C18_2 C17_2 1_555 1_555
H16_2 C18_2 1_555 1_555
C19_2 N3_2 1_555 1_555
C20_2 C17_2 1_555 1_555
H17_2 C20_2 1_555 1_555
H18_2 C20_2 1_555 1_555
H19_2 C20_2 1_555 1_555
C21_2 C19_2 1_555 1_555
H20_2 C21_2 1_555 1_555
H21_2 C21_2 1_555 1_555
H22_2 C21_2 1_555 1_555
Ag3 N8_2 1_555 1_555
N7_2 N8_2 1_555 1_555
N8_2 C34_2 1_555 1_555
C34_2 C35_2 1_555 1_555
C35_2 H37_2 1_555 1_555
C36_2 N7_2 1_555 1_555
C37_2 C34_2 1_555 1_555
H38_2 C37_2 1_555 1_555
H39_2 C37_2 1_555 1_555
H40_2 C37_2 1_555 1_555
C38_2 C36_2 1_555 1_555
H41_2 C38_2 1_555 1_555
H42_2 C38_2 1_555 1_555
H43_2 C38_2 1_555 1_555
C39_2 N7_2 1_555 1_555
H44_2 C39_2 1_555 1_555
H45_2 C39_2 1_555 1_555
C40_2 C39_2 1_555 1_555
C41_2 C40_2 1_555 1_555
H46_2 C41_2 1_555 1_555
C42_2 C41_2 1_555 1_555
H47_2 C42_2 1_555 1_555
C43_2 C42_2 1_555 1_555
C44_2 C43_2 1_555 1_555
C45_2 C40_2 1_555 1_555
C46_2 C44_2 1_555 1_555
H50_2 C48_2 1_555 1_555
C49_2 C45_2 1_555 1_555
H51_2 C49_2 1_555 1_555
N11_2 Ag3 1_555 1_555
N12_2 N13_2 1_555 1_555
C61_2 N13_2 1_555 1_555
C62_2 C61_2 1_555 1_555
H64_2 C62_2 1_555 1_555
C63_2 N12_2 1_555 1_555
C64_2 C61_2 1_555 1_555
H65_2 C64_2 1_555 1_555
H66_2 C64_2 1_555 1_555
C65_2 C63_2 1_555 1_555
H68_2 C65_2 1_555 1_555
H69_2 C65_2 1_555 1_555
H70_2 C65_2 1_555 1_555
C66_2 C43_2 1_555 1_555
H72_2 C66_2 1_555 1_555
C18_2 C19_2 1_555 1_555
C35_2 C36_2 1_555 1_555
C44_2 C45_2 1_555 1_555
C48_2 C49_2 1_555 1_555
N12_2 C66_2 1_555 1_555
C62_2 C63_2 1_555 1_555
N3_3 N11 1_555 1_555
C17_3 N11 1_555 1_555
C18_3 C17_3 1_555 1_555
H16_3 C18_3 1_555 1_555
C19_3 N3_3 1_555 1_555
C20_3 C17_3 1_555 1_555
H17_3 C20_3 1_555 1_555
H18_3 C20_3 1_555 1_555
H19_3 C20_3 1_555 1_555
C21_3 C19_3 1_555 1_555
H20_3 C21_3 1_555 1_555
H21_3 C21_3 1_555 1_555
H22_3 C21_3 1_555 1_555
C22_3 N3_3 1_555 1_555
H23_3 C22_3 1_555 1_555
H24_3 C22_3 1_555 1_555
C23_3 C22_3 1_555 1_555
C24_3 C23_3 1_555 1_555
H25_3 C24_3 1_555 1_555
C25_3 C23_3 1_555 1_555
C26_3 H26_3 1_555 1_555
C27_3 C25_3 1_555 1_555
H27_3 C27_3 1_555 1_555
Ag4_3 N10_3 1_555 1_555
N9_3 N10_3 1_555 1_555
N10_3 C50_3 1_555 1_555
C50_3 C51_3 1_555 1_555
C51_3 H52_3 1_555 1_555
C52_3 N9_3 1_555 1_555
C53_3 C50_3 1_555 1_555
H53_3 C53_3 1_555 1_555
H54_3 C53_3 1_555 1_555
H55_3 C53_3 1_555 1_555
C54_3 C52_3 1_555 1_555
H56_3 C54_3 1_555 1_555
H57_3 C54_3 1_555 1_555
H58_3 C54_3 1_555 1_555
C55_3 N9_3 1_555 1_555
H59_3 C55_3 1_555 1_555
H60_3 C55_3 1_555 1_555
C56_3 C55_3 1_555 1_555
C57_3 C24_3 1_555 1_555
H61_3 C57_3 1_555 1_555
C58_3 C25_3 1_555 1_555
C59_3 C26_3 1_555 1_555
H62_3 C59_3 1_555 1_555
C60_3 C58_3 1_555 1_555
H63_3 C60_3 1_555 1_555
C18_3 C19_3 1_555 1_555
C26_3 C27_3 1_555 1_555
C51_3 C52_3 1_555 1_555
C56_3 C57_3 1_555 1_555
C56_3 C58_3 1_555 1_555
C59_3 C60_3 1_555 1_555
C61_3 N13_3 1_555 1_555
C62_3 C61_3 1_555 1_555
H64_3 C62_3 1_555 1_555
C64_3 C61_3 1_555 1_555
H65_3 C64_3 1_555 1_555
H66_3 C64_3 1_555 1_555
C65_3 C63_3 1_555 1_555
H68_3 C65_3 1_555 1_555
H69_3 C65_3 1_555 1_555
H70_3 C65_3 1_555 1_555
C62_3 C63_3 1_555 1_555
Ag4_3 N8_3 1_555 1_555
N7_3 N8_3 1_555 1_555
N8_3 C34_3 1_555 1_555
C34_3 C35_3 1_555 1_555
C35_3 H37_3 1_555 1_555
C36_3 N7_3 1_555 1_555
C37_3 C34_3 1_555 1_555
H38_3 C37_3 1_555 1_555
H39_3 C37_3 1_555 1_555
H40_3 C37_3 1_555 1_555
C38_3 C36_3 1_555 1_555
H41_3 C38_3 1_555 1_555
H42_3 C38_3 1_555 1_555
H43_3 C38_3 1_555 1_555
C39_3 N7_3 1_555 1_555
H44_3 C39_3 1_555 1_555
H45_3 C39_3 1_555 1_555
C40_3 C39_3 1_555 1_555
C41_3 C40_3 1_555 1_555
H46_3 C41_3 1_555 1_555
C42_3 C41_3 1_555 1_555
H47_3 C42_3 1_555 1_555
C43_3 C42_3 1_555 1_555
C44_3 C43_3 1_555 1_555
C45_3 C40_3 1_555 1_555
C46_3 C44_3 1_555 1_555
H50_3 C48_3 1_555 1_555
C49_3 C45_3 1_555 1_555
H51_3 C49_3 1_555 1_555
N14_2 Ag4_3 1_555 1_555
C66_3 C43_3 1_555 1_555
H72_3 C66_3 1_555 1_555
C35_3 C36_3 1_555 1_555
C44_3 C45_3 1_555 1_555
C48_3 C49_3 1_555 1_555
N12_3 C66_3 1_555 1_555
H6_3 C5_3 1_555 1_555
H7_3 C5_3 1_555 1_555
H10_3 C8_3 1_555 1_555
C9_3 C8_3 1_555 1_555
H11_3 C9_3 1_555 1_555
C10_3 C9_3 1_555 1_555
C11_3 C10_3 1_555 1_555
N5_3 N6_2 1_555 1_555
N6_2 C28_3 1_555 1_555
C28_3 C29_3 1_555 1_555
C29_3 H28_3 1_555 1_555
C30_3 N5_3 1_555 1_555
C31_3 C28_3 1_555 1_555
H29_3 C31_3 1_555 1_555
H30_3 C31_3 1_555 1_555
H31_3 C31_3 1_555 1_555
C32_3 C30_3 1_555 1_555
H32_3 C32_3 1_555 1_555
H33_3 C32_3 1_555 1_555
H34_3 C32_3 1_555 1_555
C33_3 C10_3 1_555 1_555
H35_3 C33_3 1_555 1_555
H36_3 C33_3 1_555 1_555
Ag3_2 N6_2 1_555 1_555
N5_3 C33_3 1_555 1_555
C29_3 C30_3 1_555 1_555
Ag4_2 N2_3 1_555 1_555
N1_3 N2_3 1_555 1_555
N2_3 C1_3 1_555 1_555
C1_3 C2_3 1_555 1_555
C3_3 N1_3 1_555 1_555
C4_3 C1_3 1_555 1_555
H3_3 C4_3 1_555 1_555
H4_3 C4_3 1_555 1_555
C6_3 N1_3 1_555 1_555
H8_3 C6_3 1_555 1_555
H9_3 C6_3 1_555 1_555
C7_3 C6_3 1_555 1_555
C12_3 C7_3 1_555 1_555
C14_3 C13_3 1_555 1_555
H13_3 C14_3 1_555 1_555
C15_3 C14_3 1_555 1_555
H14_3 C15_3 1_555 1_555
C16_3 C12_3 1_555 1_555
H15_3 C16_3 1_555 1_555
H49_3 C47_3 1_555 1_555
C2_3 C3_3 1_555 1_555
C15_3 C16_3 1_555 1_555
H16_4 C18_4 1_555 1_555
C19_4 N3_4 1_555 1_555
C21_4 C19_4 1_555 1_555
H20_4 C21_4 1_555 1_555
H21_4 C21_4 1_555 1_555
H22_4 C21_4 1_555 1_555
C22_4 N3_4 1_555 1_555
H23_4 C22_4 1_555 1_555
H24_4 C22_4 1_555 1_555
C23_4 C22_4 1_555 1_555
C24_4 C23_4 1_555 1_555
H25_4 C24_4 1_555 1_555
C25_4 C23_4 1_555 1_555
C26_4 H26_4 1_555 1_555
C27_4 C25_4 1_555 1_555
H27_4 C27_4 1_555 1_555
Ag3_2 N10_4 1_555 1_555
N10_4 C50_4 1_555 1_555
C53_4 C50_4 1_555 1_555
H53_4 C53_4 1_555 1_555
H54_4 C53_4 1_555 1_555
H55_4 C53_4 1_555 1_555
C18_4 C19_4 1_555 1_555
C26_4 C27_4 1_555 1_555
C17_4 N11_2 1_555 1_555
C20_4 C17_4 1_555 1_555
H17_4 C20_4 1_555 1_555
H18_4 C20_4 1_555 1_555
H19_4 C20_4 1_555 1_555
C51_4 H52_4 1_555 1_555
C52_4 N9_4 1_555 1_555
C54_4 C52_4 1_555 1_555
H56_4 C54_4 1_555 1_555
H57_4 C54_4 1_555 1_555
H58_4 C54_4 1_555 1_555
C55_4 N9_4 1_555 1_555
H59_4 C55_4 1_555 1_555
H60_4 C55_4 1_555 1_555
C56_4 C55_4 1_555 1_555
H61_4 C57_4 1_555 1_555
H62_4 C59_4 1_555 1_555
C60_4 C58_4 1_555 1_555
H63_4 C60_4 1_555 1_555
C51_4 C52_4 1_555 1_555
C56_4 C57_4 1_555 1_555
C56_4 C58_4 1_555 1_555
C59_4 C60_4 1_555 1_555
H13_4 C14_4 1_555 1_555
Ag3_2 N2_4 1_555 1_555
N1_4 N2_4 1_555 1_555
N2_4 C1_4 1_555 1_555
C1_4 C2_4 1_555 1_555
C2_4 H1_4 1_555 1_555
C3_4 N1_4 1_555 1_555
C4_4 C1_4 1_555 1_555
H2_4 C4_4 1_555 1_555
H3_4 C4_4 1_555 1_555
H4_4 C4_4 1_555 1_555
C5_4 C3_4 1_555 1_555
H5_4 C5_4 1_555 1_555
H6_4 C5_4 1_555 1_555
H7_4 C5_4 1_555 1_555
C6_4 N1_4 1_555 1_555
H8_4 C6_4 1_555 1_555
H9_4 C6_4 1_555 1_555
C7_4 C6_4 1_555 1_555
C8_4 C7_4 1_555 1_555
H10_4 C8_4 1_555 1_555
C9_4 C8_4 1_555 1_555
H11_4 C9_4 1_555 1_555
C10_4 C9_4 1_555 1_555
C11_4 C10_4 1_555 1_555
C12_4 C7_4 1_555 1_555
C13_4 C11_4 1_555 1_555
H14_4 C15_4 1_555 1_555
C16_4 C12_4 1_555 1_555
H15_4 C16_4 1_555 1_555
N5_4 N6_3 1_555 1_555
N6_3 C28_4 1_555 1_555
C28_4 C29_4 1_555 1_555
C29_4 H28_4 1_555 1_555
C30_4 N5_4 1_555 1_555
C31_4 C28_4 1_555 1_555
H29_4 C31_4 1_555 1_555
H30_4 C31_4 1_555 1_555
C32_4 C30_4 1_555 1_555
H32_4 C32_4 1_555 1_555
H33_4 C32_4 1_555 1_555
H34_4 C32_4 1_555 1_555
C33_4 C10_4 1_555 1_555
H36_4 C33_4 1_555 1_555
C2_4 C3_4 1_555 1_555
C11_4 C12_4 1_555 1_555
C15_4 C16_4 1_555 1_555
N5_4 C33_4 1_555 1_555
C29_4 C30_4 1_555 1_555
Ag4 N2_5 1_555 1_555
N1_5 N2_5 1_555 1_555
N2_5 C1_5 1_555 1_555
C1_5 C2_5 1_555 1_555
C2_5 H1_5 1_555 1_555
C3_5 N1_5 1_555 1_555
C4_5 C1_5 1_555 1_555
H2_5 C4_5 1_555 1_555
H3_5 C4_5 1_555 1_555
H4_5 C4_5 1_555 1_555
C5_5 C3_5 1_555 1_555
H5_5 C5_5 1_555 1_555
H6_5 C5_5 1_555 1_555
H7_5 C5_5 1_555 1_555
C6_5 N1_5 1_555 1_555
H8_5 C6_5 1_555 1_555
H9_5 C6_5 1_555 1_555
C7_5 C6_5 1_555 1_555
C8_5 C7_5 1_555 1_555
H10_5 C8_5 1_555 1_555
C9_5 C8_5 1_555 1_555
H11_5 C9_5 1_555 1_555
C10_5 C9_5 1_555 1_555
C11_5 C10_5 1_555 1_555
C12_5 C7_5 1_555 1_555
C13_5 C11_5 1_555 1_555
H12_5 C13_5 1_555 1_555
C14_5 C13_5 1_555 1_555
H13_5 C14_5 1_555 1_555
C15_5 C14_5 1_555 1_555
H14_5 C15_5 1_555 1_555
C16_5 C12_5 1_555 1_555
H15_5 C16_5 1_555 1_555
N5_5 N14_2 1_555 1_555
N14_2 C28_5 1_555 1_555
C28_5 C29_5 1_555 1_555
C29_5 H28_5 1_555 1_555
C30_5 N5_5 1_555 1_555
C31_5 C28_5 1_555 1_555
H29_5 C31_5 1_555 1_555
H30_5 C31_5 1_555 1_555
H31_5 C31_5 1_555 1_555
C32_5 C30_5 1_555 1_555
H32_5 C32_5 1_555 1_555
H33_5 C32_5 1_555 1_555
H34_5 C32_5 1_555 1_555
C33_5 C10_5 1_555 1_555
H35_5 C33_5 1_555 1_555
H36_5 C33_5 1_555 1_555
C2_5 C3_5 1_555 1_555
C11_5 C12_5 1_555 1_555
C15_5 C16_5 1_555 1_555
N5_5 C33_5 1_555 1_555
C29_5 C30_5 1_555 1_555
F1 B1 1_555 1_555
F2 B1 1_555 1_555
F3 B1 1_555 1_555
F4 B1 1_555 1_555
F1_2 B1_2 1_555 1_555
F2_2 B1_2 1_555 1_555
F3_2 B1_2 1_555 1_555
F4_2 B1_2 1_555 1_555
F1_3 B1_3 1_555 1_555
F2_3 B1_3 1_555 1_555
F3_3 B1_3 1_555 1_555
F1_4 B1_4 1_555 1_555
F2_4 B1_4 1_555 1_555
F3_4 B1_4 1_555 1_555
F4_4 B1_4 1_555 1_555
F1_5 B1_5 1_555 1_555
F2_5 B1_5 1_555 1_555
F3_5 B1_5 1_555 1_555
F1_6 B1_6 1_555 1_555
F2_6 B1_6 1_555 1_555
F3_6 B1_6 1_555 1_555
F1_7 B1_7 1_555 1_555
F2_7 B1_7 1_555 1_555
F3_7 B1_7 1_555 1_555
F4_7 B1_7 1_555 1_555
F1_8 B1_8 1_555 1_555
F2_8 B1_8 1_555 1_555
F3_8 B1_8 1_555 1_555

#END
