
###############################################################################
#
# This file contains modified crystal structure data generated from the
# MOF subset of the Cambridge Structural Database (CSD) v543 
# hosted by the Cambridge Crystallographic Data Centre (CCDC).
#
# This work is licensed under the Creative Commons
# Attribution-NonCommercial-ShareAlike 4.0 International License.
# To view a copy of this license, visit
# http://creativecommons.org/licenses/by-nc-sa/4.0/
# or send a letter to
# Creative Commons, PO Box 1866, Mountain View, CA 94042, USA.
#
# CIF created using the CSD Python API on 29 September 2022
# The structure has been converted into the P1 space group
# The structure has a 3D framework
# The original CSD entry EMAFII is in the cubic crystal system
# The original CSD entry EMAFII is in a Sohncke space group
# The framework has been calculated to contain at least 10.0% void space
# The void calculation uses a probe of radius 1.32A, grid spacing 0.4
# The framework is charged, counterions have been retained in the structure
#
###############################################################################

data_EMAFII
_chemical_formula_moiety         '(C264 H288 Ag8 F48 N48 P8)n'
_symmetry_cell_setting           triclinic
_symmetry_space_group_name_H-M   'P 1'
_symmetry_Int_Tables_number      1
_space_group_name_Hall           'P 1'
loop_
_symmetry_equiv_pos_site_id
_symmetry_equiv_pos_as_xyz
1 x,y,z
_cell_length_a                   19.8931(6)
_cell_length_b                   19.8931(6)
_cell_length_c                   19.8931(6)
_cell_angle_alpha                90
_cell_angle_beta                 90
_cell_angle_gamma                90
_cell_volume                     7872.4
loop_
_atom_site_label
_atom_site_type_symbol
_atom_site_fract_x
_atom_site_fract_y
_atom_site_fract_z
Ag1 Ag 0.00297(3) 0.00297(3) 0.00297(3)
H8 H 0.0189 0.0388 0.1526
C10 C 0.0311(3) 0.2349(3) 0.1395(3)
H11 H 0.0755 0.2491 0.1499
C11 C 0.0119(3) 0.1699(3) 0.1525(3)
H12 H 0.0434 0.1393 0.1714
H49 H 0.1526 0.0189 0.0388
H51 H 0.0388 0.1526 0.0189
C58 C 0.1395(3) 0.0311(3) 0.2349(3)
C60 C 0.2349(3) 0.1395(3) 0.0311(3)
H64 H 0.1499 0.0755 0.2491
H66 H 0.2491 0.1499 0.0755
C63 C 0.1525(3) 0.0119(3) 0.1699(3)
C65 C 0.1699(3) 0.1525(3) 0.0119(3)
H69 H 0.1714 0.0434 0.1393
H71 H 0.1393 0.1714 0.0434
Ag4 Ag 0.25297(3) 0.24703(3) 0.75297(3)
N7 N 0.2067(3) 0.0964(3) 0.7097(3)
N12 N 0.2169(3) 0.1605(3) 0.6902(3)
C16 C 0.1935(4) 0.1638(5) 0.6274(4)
C21 C 0.1673(4) 0.0996(5) 0.6093(4)
H17 H 0.1472 0.0879 0.5676
C26 C 0.1762(4) 0.0591(4) 0.6619(3)
C31 C 0.1966(7) 0.2277(6) 0.5875(5)
H22 H 0.1521 0.2376 0.5688
H27 H 0.2290 0.2226 0.5507
H32 H 0.2107 0.2647 0.6168
C40 C 0.0279(3) 0.1719(4) 0.9744(3)
C41 C 0.2244(3) 0.0781(4) 0.7779(3)
H52 H 0.2689 0.0974 0.7888
H56 H 0.0307 0.2215 0.9783
H57 H 0.2283 0.0285 0.7807
C45 C 0.0800(3) 0.1482(3) 0.9238(3)
C46 C 0.1738(3) 0.1018(3) 0.8300(3)
C50 C 0.0616(3) 0.1364(4) 0.8600(3)
C51 C 0.1100(3) 0.1136(4) 0.8116(3)
H61 H 0.0162 0.1432 0.8468
H62 H 0.0968 0.1068 0.7662
C55 C 0.1476(3) 0.1378(3) 0.9450(3)
C56 C 0.1950(3) 0.1122(3) 0.8976(3)
C61 C 0.2811(3) 0.1105(3) 0.9849(3)
H67 H 0.3255 0.1001 0.9991
C66 C 0.2619(3) 0.0975(3) 0.9199(3)
H72 H 0.2934 0.0786 0.8893
Ag3 Ag 0.24703(3) 0.75297(3) 0.25297(3)
N5 N 0.0964(3) 0.7097(3) 0.2067(3)
N10 N 0.1605(3) 0.6902(3) 0.2169(3)
C14 C 0.1638(5) 0.6274(4) 0.1935(4)
C19 C 0.0996(5) 0.6093(4) 0.1673(4)
H15 H 0.0879 0.5676 0.1472
C24 C 0.0591(4) 0.6619(3) 0.1762(4)
C29 C 0.2277(6) 0.5875(5) 0.1966(7)
H20 H 0.2376 0.5688 0.1521
H25 H 0.2226 0.5507 0.2290
H30 H 0.2647 0.6168 0.2107
C38 C 0.1719(4) 0.9744(3) 0.0279(3)
C39 C 0.0781(4) 0.7779(3) 0.2244(3)
H50 H 0.0974 0.7888 0.2689
H54 H 0.2215 0.9783 0.0307
H55 H 0.0285 0.7807 0.2283
C43 C 0.1482(3) 0.9238(3) 0.0800(3)
C44 C 0.1018(3) 0.8300(3) 0.1738(3)
C48 C 0.1364(4) 0.8600(3) 0.0616(3)
C49 C 0.1136(4) 0.8116(3) 0.1100(3)
H59 H 0.1432 0.8468 0.0162
H60 H 0.1068 0.7662 0.0968
C53 C 0.1378(3) 0.9450(3) 0.1476(3)
C54 C 0.1122(3) 0.8976(3) 0.1950(3)
C59 C 0.1105(3) 0.9849(3) 0.2811(3)
H65 H 0.1001 0.9991 0.3255
C64 C 0.0975(3) 0.9199(3) 0.2619(3)
H70 H 0.0786 0.8893 0.2934
N4 N 0.1536(3) 0.9567(3) 0.9597(3)
N9 N 0.0895(3) 0.9669(3) 0.9402(3)
C13 C 0.0862(5) 0.9435(4) 0.8774(4)
C18 C 0.1504(5) 0.9173(4) 0.8593(4)
H14 H 0.1621 0.8972 0.8176
C23 C 0.1909(4) 0.9262(4) 0.9119(3)
C28 C 0.0223(6) 0.9466(7) 0.8375(5)
H19 H 0.0124 0.9021 0.8188
H24 H 0.0274 0.9790 0.8007
C33 C 0.2630(5) 0.9079(5) 0.9218(5)
C36 C 0.1579(5) 0.9870(5) 0.6718(5)
H34 H 0.2890 0.9485 0.9321
H37 H 0.1985 0.9610 0.6821
H39 H 0.2805 0.8872 0.8807
H42 H 0.1372 0.9695 0.6307
H44 H 0.2669 0.8760 0.9592
H47 H 0.1260 0.9831 0.7092
C6 C 0.9744(3) 0.0279(3) 0.1719(4)
H9 H 0.9783 0.0307 0.2215
C7 C 0.9238(3) 0.0800(3) 0.1482(3)
C8 C 0.8600(3) 0.0616(3) 0.1364(4)
H10 H 0.8468 0.0162 0.1432
C9 C 0.9450(3) 0.1476(3) 0.1378(3)
Ag2 Ag 0.75297(3) 0.25297(3) 0.24703(3)
N3 N 0.7097(3) 0.2067(3) 0.0964(3)
N8 N 0.6902(3) 0.2169(3) 0.1605(3)
N13 N 0.7169(3) 0.3395(3) 0.3098(3)
N14 N 0.8395(3) 0.1902(3) 0.2831(3)
C12 C 0.6274(4) 0.1935(4) 0.1638(5)
C17 C 0.6093(4) 0.1673(4) 0.0996(5)
H13 H 0.5676 0.1472 0.0879
C22 C 0.6619(3) 0.1762(4) 0.0591(4)
C27 C 0.5875(5) 0.1966(7) 0.2277(6)
H18 H 0.5688 0.1521 0.2376
H23 H 0.5507 0.2290 0.2226
H28 H 0.6168 0.2107 0.2647
C37 C 0.7779(3) 0.2244(3) 0.0781(4)
H48 H 0.7888 0.2689 0.0974
H53 H 0.7807 0.2283 0.0285
C42 C 0.8300(3) 0.1738(3) 0.1018(3)
C47 C 0.8116(3) 0.1100(3) 0.1136(4)
H58 H 0.7662 0.0968 0.1068
C52 C 0.8976(3) 0.1950(3) 0.1122(3)
C57 C 0.9849(3) 0.2811(3) 0.1105(3)
H63 H 0.9991 0.3255 0.1001
C62 C 0.9199(3) 0.2619(3) 0.0975(3)
H68 H 0.8893 0.2934 0.0786
N6 N 0.9597(3) 0.1536(3) 0.9567(3)
N11 N 0.9402(3) 0.0895(3) 0.9669(3)
C15 C 0.8774(4) 0.0862(5) 0.9435(4)
C20 C 0.8593(4) 0.1504(5) 0.9173(4)
H16 H 0.8176 0.1621 0.8972
C25 C 0.9119(3) 0.1909(4) 0.9262(4)
C30 C 0.8375(5) 0.0223(6) 0.9466(7)
H21 H 0.8188 0.0124 0.9021
H26 H 0.8007 0.0274 0.9790
C32 C 0.6718(5) 0.1579(5) 0.9870(5)
C35 C 0.9218(5) 0.2630(5) 0.9079(5)
H33 H 0.6821 0.1985 0.9610
H36 H 0.9321 0.2890 0.9485
H38 H 0.6307 0.1372 0.9695
H41 H 0.8807 0.2805 0.8872
H43 H 0.7092 0.1260 0.9831
H46 H 0.9592 0.2669 0.8760
N1 N 0.9567(3) 0.9597(3) 0.1536(3)
N2 N 0.9669(3) 0.9402(3) 0.0895(3)
C1 C 0.9435(4) 0.8774(4) 0.0862(5)
C2 C 0.9173(4) 0.8593(4) 0.1504(5)
H1 H 0.8972 0.8176 0.1621
C3 C 0.9262(4) 0.9119(3) 0.1909(4)
C4 C 0.9466(7) 0.8375(5) 0.0223(6)
H2 H 0.9021 0.8188 0.0124
H3 H 0.9790 0.8007 0.0274
C5 C 0.9079(5) 0.9218(5) 0.2630(5)
H5 H 0.9485 0.9321 0.2890
H6 H 0.8872 0.8807 0.2805
H7 H 0.8760 0.9592 0.2669
C34 C 0.9870(5) 0.6718(5) 0.1579(5)
H35 H 0.9610 0.6821 0.1985
H40 H 0.9695 0.6307 0.1372
H45 H 0.9831 0.7092 0.1260
N1_2 N 0.5433(3) 0.0403(3) 0.6536(3)
N2_2 N 0.5331(3) 0.0598(3) 0.5895(3)
C1_2 C 0.5565(4) 0.1226(4) 0.5862(5)
C2_2 C 0.5827(4) 0.1407(4) 0.6504(5)
H1_2 H 0.6028 0.1824 0.6621
C3_2 C 0.5738(4) 0.0881(3) 0.6909(4)
C4_2 C 0.5534(7) 0.1625(5) 0.5223(6)
H2_2 H 0.5979 0.1812 0.5124
H3_2 H 0.5210 0.1993 0.5274
H4 H 0.5393 0.1332 0.4853
C5_2 C 0.5921(5) 0.0782(5) 0.7630(5)
H5_2 H 0.5515 0.0679 0.7890
H6_2 H 0.6128 0.1193 0.7805
H7_2 H 0.6240 0.0408 0.7669
N4_2 N 0.3464(3) 0.0433(3) 0.4597(3)
N5_2 N 0.4036(3) 0.2903(3) 0.7067(3)
N9_2 N 0.4105(3) 0.0331(3) 0.4402(3)
N10_2 N 0.3395(3) 0.3098(3) 0.7169(3)
C13_2 C 0.4138(5) 0.0565(4) 0.3774(4)
C14_2 C 0.3362(5) 0.3726(4) 0.6935(4)
C18_2 C 0.3496(5) 0.0827(4) 0.3593(4)
C19_2 C 0.4004(5) 0.3907(4) 0.6673(4)
H14_2 H 0.3379 0.1028 0.3176
H15_2 H 0.4121 0.4324 0.6472
C23_2 C 0.3091(4) 0.0738(4) 0.4119(3)
C24_2 C 0.4409(4) 0.3381(3) 0.6762(4)
C28_2 C 0.4777(6) 0.0534(7) 0.3375(5)
C29_2 C 0.2723(6) 0.4125(5) 0.6966(7)
H19_2 H 0.4876 0.0979 0.3188
H20_2 H 0.2624 0.4312 0.6521
H24_2 H 0.4726 0.0210 0.3007
H25_2 H 0.2774 0.4493 0.7290
H29 H 0.5147 0.0393 0.3668
H30_2 H 0.2353 0.3832 0.7107
H31 H 0.6332 0.0147 0.4607
C33_2 C 0.2370(5) 0.0921(5) 0.4218(5)
C34_2 C 0.5130(5) 0.3282(5) 0.6579(5)
C36_2 C 0.3421(5) 0.0130(5) 0.1718(5)
H34_2 H 0.2110 0.0515 0.4321
H35_2 H 0.5390 0.3179 0.6985
H37_2 H 0.3015 0.0390 0.1821
H39_2 H 0.2195 0.1128 0.3807
H40_2 H 0.5305 0.3693 0.6372
H42_2 H 0.3628 0.0305 0.1307
H44_2 H 0.2331 0.1240 0.4592
H45_2 H 0.5169 0.2908 0.6260
H47_2 H 0.3740 0.0169 0.2092
C38_2 C 0.3281(4) 0.0256(3) 0.5279(3)
C39_2 C 0.4219(4) 0.2221(3) 0.7244(3)
H50_2 H 0.4026 0.2112 0.7689
H54_2 H 0.2785 0.0217 0.5307
H55_2 H 0.4715 0.2193 0.7283
C43_2 C 0.3518(3) 0.0762(3) 0.5800(3)
C44_2 C 0.3982(3) 0.1700(3) 0.6738(3)
C48_2 C 0.3636(4) 0.1400(3) 0.5616(3)
C49_2 C 0.3864(4) 0.1884(3) 0.6100(3)
H59_2 H 0.3568 0.1532 0.5162
H60_2 H 0.3932 0.2338 0.5968
C53_2 C 0.3622(3) 0.0550(3) 0.6476(3)
C54_2 C 0.3878(3) 0.1024(3) 0.6950(3)
C59_2 C 0.3895(3) 0.0151(3) 0.7811(3)
H65_2 H 0.3999 0.0009 0.8255
C64_2 C 0.4025(3) 0.0801(3) 0.7619(3)
H70_2 H 0.4214 0.1107 0.7934
Ag1_2 Ag 0.49703(3) 0.99703(3) 0.50297(3)
C6_2 C 0.5256(3) 0.9721(3) 0.6719(4)
H8_2 H 0.4811 0.9612 0.6526
H9_2 H 0.5217 0.9693 0.7215
C7_2 C 0.5762(3) 0.9200(3) 0.6482(3)
C8_2 C 0.6400(3) 0.9384(3) 0.6364(4)
H10_2 H 0.6532 0.9838 0.6432
C9_2 C 0.5550(3) 0.8524(3) 0.6378(3)
C10_2 C 0.4689(3) 0.7651(3) 0.6395(3)
H11_2 H 0.4245 0.7509 0.6499
C11_2 C 0.4881(3) 0.8301(3) 0.6525(3)
H12_2 H 0.4566 0.8607 0.6714
Ag2_2 Ag 0.74703(3) 0.74703(3) 0.74703(3)
N3_2 N 0.7903(3) 0.7933(3) 0.5964(3)
N6_2 N 0.5403(3) 0.8464(3) 0.4567(3)
N7_2 N 0.2933(3) 0.9036(3) 0.2097(3)
N8_2 N 0.8098(3) 0.7831(3) 0.6605(3)
N11_2 N 0.5598(3) 0.9105(3) 0.4669(3)
N12_2 N 0.2831(3) 0.8395(3) 0.1902(3)
N13_2 N 0.7831(3) 0.6605(3) 0.8098(3)
N14_2 N 0.6605(3) 0.8098(3) 0.7831(3)
C12_2 C 0.8726(4) 0.8065(4) 0.6638(5)
C15_2 C 0.6226(4) 0.9138(5) 0.4435(4)
C16_2 C 0.3065(4) 0.8362(5) 0.1274(4)
C17_2 C 0.8907(4) 0.8327(4) 0.5996(5)
C20_2 C 0.6407(4) 0.8496(5) 0.4173(4)
C21_2 C 0.3327(4) 0.9004(5) 0.1093(4)
H13_2 H 0.9324 0.8528 0.5879
H16_2 H 0.6824 0.8379 0.3972
H17_2 H 0.3528 0.9121 0.0676
C22_2 C 0.8381(3) 0.8238(4) 0.5591(4)
C25_2 C 0.5881(3) 0.8091(4) 0.4262(4)
C26_2 C 0.3238(4) 0.9409(4) 0.1619(3)
C27_2 C 0.9125(5) 0.8034(7) 0.7277(6)
C30_2 C 0.6625(5) 0.9777(6) 0.4466(7)
C31_2 C 0.3034(7) 0.7723(6) 0.0875(5)
H18_2 H 0.9312 0.8479 0.7376
H21_2 H 0.6812 0.9876 0.4021
H22_2 H 0.3479 0.7624 0.0688
H23_2 H 0.9493 0.7710 0.7226
H26_2 H 0.6993 0.9726 0.4790
H27_2 H 0.2710 0.7774 0.0507
H28_2 H 0.8832 0.7893 0.7647
H32_2 H 0.2893 0.7353 0.1168
C32_2 C 0.8282(5) 0.8421(5) 0.4870(5)
C35_2 C 0.5782(5) 0.7370(5) 0.4079(5)
H33_2 H 0.8179 0.8015 0.4610
H36_2 H 0.5679 0.7110 0.4485
H38_2 H 0.8693 0.8628 0.4695
H41_2 H 0.6193 0.7195 0.3872
H43_2 H 0.7908 0.8740 0.4831
H46_2 H 0.5408 0.7331 0.3760
C37_2 C 0.7221(3) 0.7756(3) 0.5781(4)
C40_2 C 0.4721(3) 0.8281(4) 0.4744(3)
C41_2 C 0.2756(3) 0.9219(4) 0.2779(3)
H48_2 H 0.7112 0.7311 0.5974
H49_2 H 0.3474 0.9811 0.5388
H51_2 H 0.4612 0.8474 0.5189
H52_2 H 0.2311 0.9026 0.2888
H53_2 H 0.7193 0.7717 0.5285
H56_2 H 0.4693 0.7785 0.4783
H57_2 H 0.2717 0.9715 0.2807
C42_2 C 0.6700(3) 0.8262(3) 0.6018(3)
C45_2 C 0.4200(3) 0.8518(3) 0.4238(3)
C46_2 C 0.3262(3) 0.8982(3) 0.3300(3)
C47_2 C 0.6884(3) 0.8900(3) 0.6136(4)
C50_2 C 0.4384(3) 0.8636(4) 0.3600(3)
C51_2 C 0.3900(3) 0.8864(4) 0.3116(3)
H58_2 H 0.7338 0.9032 0.6068
H61_2 H 0.4838 0.8568 0.3468
H62_2 H 0.4032 0.8932 0.2662
C52_2 C 0.6024(3) 0.8050(3) 0.6122(3)
C55_2 C 0.3524(3) 0.8622(3) 0.4450(3)
C56_2 C 0.3050(3) 0.8878(3) 0.3976(3)
C57_2 C 0.5151(3) 0.7189(3) 0.6105(3)
C58_2 C 0.3605(3) 0.9689(3) 0.7349(3)
C60_2 C 0.2651(3) 0.8605(3) 0.5311(3)
C61_2 C 0.2189(3) 0.8895(3) 0.4849(3)
H63_2 H 0.5009 0.6745 0.6001
H64_2 H 0.3501 0.9245 0.7491
H66_2 H 0.2509 0.8501 0.5755
H67_2 H 0.1745 0.8999 0.4991
C62_2 C 0.5801(3) 0.7381(3) 0.5975(3)
C63_2 C 0.3475(3) 0.9881(3) 0.6699(3)
C65_2 C 0.3301(3) 0.8475(3) 0.5119(3)
C66_2 C 0.2381(3) 0.9025(3) 0.4199(3)
H68_2 H 0.6107 0.7066 0.5786
H69_2 H 0.3286 0.9566 0.6393
H71_2 H 0.3607 0.8286 0.5434
H72_2 H 0.2066 0.9214 0.3893
N1_3 N 0.0433(3) 0.4597(3) 0.3464(3)
N2_3 N 0.0331(3) 0.4402(3) 0.4105(3)
C1_3 C 0.0565(4) 0.3774(4) 0.4138(5)
C2_3 C 0.0827(4) 0.3593(4) 0.3496(5)
H1_3 H 0.1028 0.3176 0.3379
C3_3 C 0.0738(4) 0.4119(3) 0.3091(4)
C4_3 C 0.0534(7) 0.3375(5) 0.4777(6)
H2_3 H 0.0979 0.3188 0.4876
H3_3 H 0.0210 0.3007 0.4726
H4_2 H 0.0393 0.3668 0.5147
C5_3 C 0.0921(5) 0.4218(5) 0.2370(5)
H5_3 H 0.0515 0.4321 0.2110
H6_3 H 0.1128 0.3807 0.2195
H7_3 H 0.1240 0.4592 0.2331
C6_3 C 0.0256(3) 0.5279(3) 0.3281(4)
H9_3 H 0.0217 0.5307 0.2785
C7_3 C 0.0762(3) 0.5800(3) 0.3518(3)
C8_3 C 0.1400(3) 0.5616(3) 0.3636(4)
H10_3 H 0.1532 0.5162 0.3568
C9_3 C 0.0550(3) 0.6476(3) 0.3622(3)
N3_3 N 0.2903(3) 0.7067(3) 0.4036(3)
N6_3 N 0.0403(3) 0.6536(3) 0.5433(3)
N8_3 N 0.3098(3) 0.7169(3) 0.3395(3)
N11_3 N 0.0598(3) 0.5895(3) 0.5331(3)
C12_3 C 0.3726(4) 0.6935(4) 0.3362(5)
C15_3 C 0.1226(4) 0.5862(5) 0.5565(4)
C17_3 C 0.3907(4) 0.6673(4) 0.4004(5)
C20_3 C 0.1407(4) 0.6504(5) 0.5827(4)
H13_3 H 0.4324 0.6472 0.4121
H16_3 H 0.1824 0.6621 0.6028
C22_3 C 0.3381(3) 0.6762(4) 0.4409(4)
C25_3 C 0.0881(3) 0.6909(4) 0.5738(4)
C27_3 C 0.4125(5) 0.6966(7) 0.2723(6)
C30_3 C 0.1625(5) 0.5223(6) 0.5534(7)
H18_3 H 0.4312 0.6521 0.2624
H21_3 H 0.1812 0.5124 0.5979
H23_3 H 0.4493 0.7290 0.2774
H26_3 H 0.1993 0.5274 0.5210
H28_3 H 0.3832 0.7107 0.2353
H29_2 H 0.0147 0.4607 0.6332
H31_2 H 0.1332 0.4853 0.5393
C32_3 C 0.3282(5) 0.6579(5) 0.5130(5)
C34_3 C 0.0130(5) 0.1718(5) 0.3421(5)
C35_3 C 0.0782(5) 0.7630(5) 0.5921(5)
H33_3 H 0.3179 0.6985 0.5390
H35_3 H 0.0390 0.1821 0.3015
H36_3 H 0.0679 0.7890 0.5515
H38_3 H 0.3693 0.6372 0.5305
H40_3 H 0.0305 0.1307 0.3628
H41_3 H 0.1193 0.7805 0.6128
H43_3 H 0.2908 0.6260 0.5169
H45_3 H 0.0169 0.2092 0.3740
H46_3 H 0.0408 0.7669 0.6240
C37_3 C 0.2221(3) 0.7244(3) 0.4219(4)
H48_3 H 0.2112 0.7689 0.4026
H53_3 H 0.2193 0.7283 0.4715
C42_3 C 0.1700(3) 0.6738(3) 0.3982(3)
C47_3 C 0.1884(3) 0.6100(3) 0.3864(4)
H58_3 H 0.2338 0.5968 0.3932
C52_3 C 0.1024(3) 0.6950(3) 0.3878(3)
C57_3 C 0.0151(3) 0.7811(3) 0.3895(3)
H63_3 H 0.0009 0.8255 0.3999
C62_3 C 0.0801(3) 0.7619(3) 0.4025(3)
H68_3 H 0.1107 0.7934 0.4214
Ag1_3 Ag 0.99703(3) 0.50297(3) 0.49703(3)
H8_3 H 0.9811 0.5388 0.3474
C10_3 C 0.9689(3) 0.7349(3) 0.3605(3)
H11_3 H 0.9245 0.7491 0.3501
C11_3 C 0.9881(3) 0.6699(3) 0.3475(3)
H12_3 H 0.9566 0.6393 0.3286
N4_3 N 0.8464(3) 0.4567(3) 0.5403(3)
N5_3 N 0.9036(3) 0.2097(3) 0.2933(3)
N7_3 N 0.7933(3) 0.5964(3) 0.7903(3)
N9_3 N 0.9105(3) 0.4669(3) 0.5598(3)
C13_3 C 0.9138(5) 0.4435(4) 0.6226(4)
C14_3 C 0.8362(5) 0.1274(4) 0.3065(4)
C16_3 C 0.8065(4) 0.6638(5) 0.8726(4)
C18_3 C 0.8496(5) 0.4173(4) 0.6407(4)
C19_3 C 0.9004(5) 0.1093(4) 0.3327(4)
C21_3 C 0.8327(4) 0.5996(5) 0.8907(4)
H14_3 H 0.8379 0.3972 0.6824
H15_3 H 0.9121 0.0676 0.3528
H17_3 H 0.8528 0.5879 0.9324
C23_3 C 0.8091(4) 0.4262(4) 0.5881(3)
C24_3 C 0.9409(4) 0.1619(3) 0.3238(4)
C26_3 C 0.8238(4) 0.5591(4) 0.8381(3)
C28_3 C 0.9777(6) 0.4466(7) 0.6625(5)
C29_3 C 0.7723(6) 0.0875(5) 0.3034(7)
C31_3 C 0.8034(7) 0.7277(6) 0.9125(5)
H19_3 H 0.9876 0.4021 0.6812
H20_3 H 0.7624 0.0688 0.3479
H22_3 H 0.8479 0.7376 0.9312
H24_3 H 0.9726 0.4790 0.6993
H25_3 H 0.7774 0.0507 0.2710
H27_3 H 0.7710 0.7226 0.9493
H30_3 H 0.7353 0.1168 0.2893
H32_3 H 0.7893 0.7647 0.8832
C33_3 C 0.7370(5) 0.4079(5) 0.5782(5)
C36_3 C 0.8421(5) 0.4870(5) 0.8282(5)
H34_3 H 0.7110 0.4485 0.5679
H37_3 H 0.8015 0.4610 0.8179
H39_3 H 0.7195 0.3872 0.6193
H42_3 H 0.8628 0.4695 0.8693
H44_3 H 0.7331 0.3760 0.5408
H47_3 H 0.8740 0.4831 0.7908
C38_3 C 0.8281(4) 0.4744(3) 0.4721(3)
C39_3 C 0.9219(4) 0.2779(3) 0.2756(3)
C40_3 C 0.9721(3) 0.6719(4) 0.5256(3)
C41_3 C 0.7756(3) 0.5781(4) 0.7221(3)
H49_3 H 0.8474 0.5189 0.4612
H50_3 H 0.9026 0.2888 0.2311
H51_3 H 0.9612 0.6526 0.4811
H52_3 H 0.7311 0.5974 0.7112
H54_3 H 0.7785 0.4783 0.4693
H55_3 H 0.9715 0.2807 0.2717
H56_3 H 0.9693 0.7215 0.5217
H57_3 H 0.7717 0.5285 0.7193
C43_3 C 0.8518(3) 0.4238(3) 0.4200(3)
C44_3 C 0.8982(3) 0.3300(3) 0.3262(3)
C45_3 C 0.9200(3) 0.6482(3) 0.5762(3)
C46_3 C 0.8262(3) 0.6018(3) 0.6700(3)
C48_3 C 0.8636(4) 0.3600(3) 0.4384(3)
C49_3 C 0.8864(4) 0.3116(3) 0.3900(3)
C50_3 C 0.9384(3) 0.6364(4) 0.6400(3)
C51_3 C 0.8900(3) 0.6136(4) 0.6884(3)
H59_3 H 0.8568 0.3468 0.4838
H60_3 H 0.8932 0.2662 0.4032
H61_3 H 0.9838 0.6432 0.6532
H62_3 H 0.9032 0.6068 0.7338
C53_3 C 0.8622(3) 0.4450(3) 0.3524(3)
C54_3 C 0.8878(3) 0.3976(3) 0.3050(3)
C55_3 C 0.8524(3) 0.6378(3) 0.5550(3)
C56_3 C 0.8050(3) 0.6122(3) 0.6024(3)
C58_3 C 0.8605(3) 0.5311(3) 0.2651(3)
C59_3 C 0.8895(3) 0.4849(3) 0.2189(3)
C60_3 C 0.7651(3) 0.6395(3) 0.4689(3)
C61_3 C 0.7189(3) 0.6105(3) 0.5151(3)
H64_3 H 0.8501 0.5755 0.2509
H65_3 H 0.8999 0.4991 0.1745
H66_3 H 0.7509 0.6499 0.4245
H67_3 H 0.6745 0.6001 0.5009
C63_3 C 0.8475(3) 0.5119(3) 0.3301(3)
C64_3 C 0.9025(3) 0.4199(3) 0.2381(3)
C65_3 C 0.8301(3) 0.6525(3) 0.4881(3)
C66_3 C 0.7381(3) 0.5975(3) 0.5801(3)
H69_3 H 0.8286 0.5434 0.3607
H70_3 H 0.9214 0.3893 0.2066
H71_3 H 0.8607 0.6714 0.4566
H72_3 H 0.7066 0.5786 0.6107
H4_3 H 0.4607 0.6332 0.0147
N4_4 N 0.6536(3) 0.5433(3) 0.0403(3)
N6_4 N 0.4597(3) 0.3464(3) 0.0433(3)
N7_4 N 0.7067(3) 0.4036(3) 0.2903(3)
N9_4 N 0.5895(3) 0.5331(3) 0.0598(3)
N11_4 N 0.4402(3) 0.4105(3) 0.0331(3)
C13_4 C 0.5862(5) 0.5565(4) 0.1226(4)
C15_4 C 0.3774(4) 0.4138(5) 0.0565(4)
C16_4 C 0.6935(4) 0.3362(5) 0.3726(4)
C18_4 C 0.6504(5) 0.5827(4) 0.1407(4)
C20_4 C 0.3593(4) 0.3496(5) 0.0827(4)
C21_4 C 0.6673(4) 0.4004(5) 0.3907(4)
H14_4 H 0.6621 0.6028 0.1824
H16_4 H 0.3176 0.3379 0.1028
H17_4 H 0.6472 0.4121 0.4324
C23_4 C 0.6909(4) 0.5738(4) 0.0881(3)
C25_4 C 0.4119(3) 0.3091(4) 0.0738(4)
C26_4 C 0.6762(4) 0.4409(4) 0.3381(3)
C28_4 C 0.5223(6) 0.5534(7) 0.1625(5)
C30_4 C 0.3375(5) 0.4777(6) 0.0534(7)
C31_4 C 0.6966(7) 0.2723(6) 0.4125(5)
H19_4 H 0.5124 0.5979 0.1812
H21_4 H 0.3188 0.4876 0.0979
H22_4 H 0.6521 0.2624 0.4312
H24_4 H 0.5274 0.5210 0.1993
H26_4 H 0.3007 0.4726 0.0210
H27_4 H 0.7290 0.2774 0.4493
H29_3 H 0.4853 0.5393 0.1332
H31_3 H 0.3668 0.5147 0.0393
H32_4 H 0.7107 0.2353 0.3832
C32_4 C 0.1718(5) 0.3421(5) 0.0130(5)
C33_4 C 0.7630(5) 0.5921(5) 0.0782(5)
C35_4 C 0.4218(5) 0.2370(5) 0.0921(5)
C36_4 C 0.6579(5) 0.5130(5) 0.3282(5)
H33_4 H 0.1821 0.3015 0.0390
H34_4 H 0.7890 0.5515 0.0679
H36_4 H 0.4321 0.2110 0.0515
H37_4 H 0.6985 0.5390 0.3179
H38_4 H 0.1307 0.3628 0.0305
H39_4 H 0.7805 0.6128 0.1193
H41_4 H 0.3807 0.2195 0.1128
H42_4 H 0.6372 0.5305 0.3693
H43_4 H 0.2092 0.3740 0.0169
H44_4 H 0.7669 0.6240 0.0408
H46_4 H 0.4592 0.2331 0.1240
H47_4 H 0.6260 0.5169 0.2908
C40_4 C 0.5279(3) 0.3281(4) 0.0256(3)
C41_4 C 0.7244(3) 0.4219(4) 0.2221(3)
H52_4 H 0.7689 0.4026 0.2112
H56_4 H 0.5307 0.2785 0.0217
H57_4 H 0.7283 0.4715 0.2193
C45_4 C 0.5800(3) 0.3518(3) 0.0762(3)
C46_4 C 0.6738(3) 0.3982(3) 0.1700(3)
C50_4 C 0.5616(3) 0.3636(4) 0.1400(3)
C51_4 C 0.6100(3) 0.3864(4) 0.1884(3)
H61_4 H 0.5162 0.3568 0.1532
H62_4 H 0.5968 0.3932 0.2338
C55_4 C 0.6476(3) 0.3622(3) 0.0550(3)
C56_4 C 0.6950(3) 0.3878(3) 0.1024(3)
C61_4 C 0.7811(3) 0.3895(3) 0.0151(3)
H67_4 H 0.8255 0.3999 0.0009
C66_4 C 0.7619(3) 0.4025(3) 0.0801(3)
H72_4 H 0.7934 0.4214 0.1107
Ag1_4 Ag 0.50297(3) 0.49703(3) 0.99703(3)
N1_4 N 0.4567(3) 0.5403(3) 0.8464(3)
N2_4 N 0.4669(3) 0.5598(3) 0.9105(3)
C1_4 C 0.4435(4) 0.6226(4) 0.9138(5)
C2_4 C 0.4173(4) 0.6407(4) 0.8496(5)
H1_4 H 0.3972 0.6824 0.8379
C3_4 C 0.4262(4) 0.5881(3) 0.8091(4)
C4_4 C 0.4466(7) 0.6625(5) 0.9777(6)
H2_4 H 0.4021 0.6812 0.9876
H3_4 H 0.4790 0.6993 0.9726
C5_4 C 0.4079(5) 0.5782(5) 0.7370(5)
H5_4 H 0.4485 0.5679 0.7110
H6_4 H 0.3872 0.6193 0.7195
H7_4 H 0.3760 0.5408 0.7331
C6_4 C 0.4744(3) 0.4721(3) 0.8281(4)
H8_4 H 0.5189 0.4612 0.8474
H9_4 H 0.4783 0.4693 0.7785
C7_4 C 0.4238(3) 0.4200(3) 0.8518(3)
C8_4 C 0.3600(3) 0.4384(3) 0.8636(4)
H10_4 H 0.3468 0.4838 0.8568
C9_4 C 0.4450(3) 0.3524(3) 0.8622(3)
C10_4 C 0.5311(3) 0.2651(3) 0.8605(3)
H11_4 H 0.5755 0.2509 0.8501
C11_4 C 0.5119(3) 0.3301(3) 0.8475(3)
H12_4 H 0.5434 0.3607 0.8286
N3_4 N 0.2097(3) 0.2933(3) 0.9036(3)
N5_4 N 0.5964(3) 0.7903(3) 0.7933(3)
N8_4 N 0.1902(3) 0.2831(3) 0.8395(3)
C12_4 C 0.1274(4) 0.3065(4) 0.8362(5)
C14_4 C 0.6638(5) 0.8726(4) 0.8065(4)
C17_4 C 0.1093(4) 0.3327(4) 0.9004(5)
C19_4 C 0.5996(5) 0.8907(4) 0.8327(4)
H13_4 H 0.0676 0.3528 0.9121
H15_4 H 0.5879 0.9324 0.8528
C22_4 C 0.1619(3) 0.3238(4) 0.9409(4)
C24_4 C 0.5591(4) 0.8381(3) 0.8238(4)
C27_4 C 0.0875(5) 0.3034(7) 0.7723(6)
C29_4 C 0.7277(6) 0.9125(5) 0.8034(7)
H18_4 H 0.0688 0.3479 0.7624
H20_4 H 0.7376 0.9312 0.8479
H23_4 H 0.0507 0.2710 0.7774
H25_4 H 0.7226 0.9493 0.7710
H28_4 H 0.1168 0.2893 0.7353
H30_4 H 0.7647 0.8832 0.7893
C34_4 C 0.4870(5) 0.8282(5) 0.8421(5)
H35_4 H 0.4610 0.8179 0.8015
H40_4 H 0.4695 0.8693 0.8628
H45_4 H 0.4831 0.7908 0.8740
C37_4 C 0.2779(3) 0.2756(3) 0.9219(4)
C38_4 C 0.6719(4) 0.5256(3) 0.9721(3)
C39_4 C 0.5781(4) 0.7221(3) 0.7756(3)
H48_4 H 0.2888 0.2311 0.9026
H49_4 H 0.6526 0.4811 0.9612
H50_4 H 0.5974 0.7112 0.7311
H51_4 H 0.5388 0.3474 0.9811
H53_4 H 0.2807 0.2717 0.9715
H54_4 H 0.7215 0.5217 0.9693
H55_4 H 0.5285 0.7193 0.7717
C42_4 C 0.3300(3) 0.3262(3) 0.8982(3)
C43_4 C 0.6482(3) 0.5762(3) 0.9200(3)
C44_4 C 0.6018(3) 0.6700(3) 0.8262(3)
C47_4 C 0.3116(3) 0.3900(3) 0.8864(4)
C48_4 C 0.6364(4) 0.6400(3) 0.9384(3)
C49_4 C 0.6136(4) 0.6884(3) 0.8900(3)
H58_4 H 0.2662 0.4032 0.8932
H59_4 H 0.6432 0.6532 0.9838
H60_4 H 0.6068 0.7338 0.9032
C52_4 C 0.3976(3) 0.3050(3) 0.8878(3)
C53_4 C 0.6378(3) 0.5550(3) 0.8524(3)
C54_4 C 0.6122(3) 0.6024(3) 0.8050(3)
C57_4 C 0.4849(3) 0.2189(3) 0.8895(3)
C58_4 C 0.6395(3) 0.4689(3) 0.7651(3)
C59_4 C 0.6105(3) 0.5151(3) 0.7189(3)
C60_4 C 0.7349(3) 0.3605(3) 0.9689(3)
H63_4 H 0.4991 0.1745 0.8999
H64_4 H 0.6499 0.4245 0.7509
H65_4 H 0.6001 0.5009 0.6745
H66_4 H 0.7491 0.3501 0.9245
C62_4 C 0.4199(3) 0.2381(3) 0.9025(3)
C63_4 C 0.6525(3) 0.4881(3) 0.8301(3)
C64_4 C 0.5975(3) 0.5801(3) 0.7381(3)
C65_4 C 0.6699(3) 0.3475(3) 0.9881(3)
H68_4 H 0.3893 0.2066 0.9214
H69_4 H 0.6714 0.4566 0.8607
H70_4 H 0.5786 0.6107 0.7066
H71_4 H 0.6393 0.3286 0.9566
H4_4 H 0.9607 0.8668 0.9853
H29_4 H 0.9853 0.9607 0.8668
H31_4 H 0.8668 0.9853 0.9607
F1 F 0.4557(16) 0.0781(12) 0.0327(8)
F6 F 0.4133(9) 0.014(2) 0.0220(16)
P1 P 0.47397(11) 0.02603(11) 0.97397(11)
F2 F 0.5220(16) 0.0867(9) 0.986(2)
F3 F 0.5327(8) 0.0443(16) 0.9219(12)
F4 F 0.4219(12) 0.9673(8) 0.9557(16)
F5 F 0.486(2) 0.9780(16) 0.9133(9)
F4_2 F 0.0781(12) 0.0327(8) 0.4557(16)
F5_2 F 0.014(2) 0.0220(16) 0.4133(9)
P1_2 P 0.02603(11) 0.97397(11) 0.47397(11)
F1_2 F 0.0443(16) 0.9219(12) 0.5327(8)
F6_2 F 0.0867(9) 0.986(2) 0.5220(16)
F2_2 F 0.9780(16) 0.9133(9) 0.486(2)
F3_2 F 0.9673(8) 0.9557(16) 0.4219(12)
P1_3 P 0.52603(11) 0.52603(11) 0.52603(11)
F1_3 F 0.5443(16) 0.5781(12) 0.4673(8)
F2_3 F 0.4780(16) 0.5867(9) 0.514(2)
F3_3 F 0.4673(8) 0.5443(16) 0.5781(12)
F4_3 F 0.5781(12) 0.4673(8) 0.5443(16)
F5_3 F 0.514(2) 0.4780(16) 0.5867(9)
F6_3 F 0.5867(9) 0.514(2) 0.4780(16)
F2_4 F 0.0220(16) 0.4133(9) 0.014(2)
F3_4 F 0.0327(8) 0.4557(16) 0.0781(12)
P1_4 P 0.97397(11) 0.47397(11) 0.02603(11)
F4_4 F 0.9219(12) 0.5327(8) 0.0443(16)
F5_4 F 0.986(2) 0.5220(16) 0.0867(9)
F1_4 F 0.9557(16) 0.4219(12) 0.9673(8)
F6_4 F 0.9133(9) 0.486(2) 0.9780(16)
P1_5 P 0.77603(11) 0.72397(11) 0.27603(11)
F1_5 F 0.8281(12) 0.7057(16) 0.2173(8)
F2_5 F 0.8367(9) 0.7720(16) 0.264(2)
F3_5 F 0.7943(16) 0.7827(8) 0.3281(12)
F4_5 F 0.7173(8) 0.6719(12) 0.2943(16)
F5_5 F 0.7280(16) 0.736(2) 0.3367(9)
F6_5 F 0.764(2) 0.6633(9) 0.2280(16)
P1_6 P 0.72397(11) 0.27603(11) 0.77603(11)
F1_6 F 0.6719(12) 0.2943(16) 0.7173(8)
F2_6 F 0.6633(9) 0.2280(16) 0.764(2)
F3_6 F 0.7057(16) 0.2173(8) 0.8281(12)
F4_6 F 0.7827(8) 0.3281(12) 0.7943(16)
F5_6 F 0.7720(16) 0.264(2) 0.8367(9)
F6_6 F 0.736(2) 0.3367(9) 0.7280(16)
P1_7 P 0.27603(11) 0.77603(11) 0.72397(11)
F1_7 F 0.3281(12) 0.7943(16) 0.7827(8)
F2_7 F 0.3367(9) 0.7280(16) 0.736(2)
F3_7 F 0.2943(16) 0.7173(8) 0.6719(12)
F4_7 F 0.2173(8) 0.8281(12) 0.7057(16)
F5_7 F 0.2280(16) 0.764(2) 0.6633(9)
F6_7 F 0.264(2) 0.8367(9) 0.7720(16)
P1_8 P 0.22397(11) 0.22397(11) 0.22397(11)
F1_8 F 0.1719(12) 0.2057(16) 0.2827(8)
F2_8 F 0.1633(9) 0.2720(16) 0.236(2)
F3_8 F 0.2057(16) 0.2827(8) 0.1719(12)
F4_8 F 0.2827(8) 0.1719(12) 0.2057(16)
F5_8 F 0.2720(16) 0.236(2) 0.1633(9)
F6_8 F 0.236(2) 0.1633(9) 0.2720(16)
loop_
_geom_bond_atom_site_label_1
_geom_bond_atom_site_label_2
_geom_bond_site_symmetry_1
_geom_bond_site_symmetry_2
C10 H11 1_555 1_555
H12 C11 1_555 1_555
H64 C58 1_555 1_555
H66 C60 1_555 1_555
H69 C63 1_555 1_555
H71 C65 1_555 1_555
C10 C11 1_555 1_555
C58 C63 1_555 1_555
C60 C65 1_555 1_555
Ag4 N12 1_555 1_555
N7 N12 1_555 1_555
N12 C16 1_555 1_555
C16 C21 1_555 1_555
C21 H17 1_555 1_555
C26 N7 1_555 1_555
C31 C16 1_555 1_555
H22 C31 1_555 1_555
H27 C31 1_555 1_555
H32 C31 1_555 1_555
C41 N7 1_555 1_555
H52 C41 1_555 1_555
H56 C40 1_555 1_555
H57 C41 1_555 1_555
C45 C40 1_555 1_555
C46 C41 1_555 1_555
C50 C45 1_555 1_555
C51 C46 1_555 1_555
H61 C50 1_555 1_555
H62 C51 1_555 1_555
C55 C45 1_555 1_555
C56 C46 1_555 1_555
C61 H67 1_555 1_555
C66 C56 1_555 1_555
H72 C66 1_555 1_555
C21 C26 1_555 1_555
C50 C51 1_555 1_555
C55 C56 1_555 1_555
C61 C66 1_555 1_555
Ag3 N10 1_555 1_555
N5 N10 1_555 1_555
N10 C14 1_555 1_555
C14 C19 1_555 1_555
C19 H15 1_555 1_555
C24 N5 1_555 1_555
C29 C14 1_555 1_555
H20 C29 1_555 1_555
H25 C29 1_555 1_555
H30 C29 1_555 1_555
C39 N5 1_555 1_555
H50 C39 1_555 1_555
H54 C38 1_555 1_555
H55 C39 1_555 1_555
C43 C38 1_555 1_555
C44 C39 1_555 1_555
C48 C43 1_555 1_555
C49 C44 1_555 1_555
H59 C48 1_555 1_555
H60 C49 1_555 1_555
C53 C43 1_555 1_555
C54 C44 1_555 1_555
C59 H65 1_555 1_555
C64 C54 1_555 1_555
H70 C64 1_555 1_555
C19 C24 1_555 1_555
C48 C49 1_555 1_555
C53 C54 1_555 1_555
C59 C64 1_555 1_555
N4 N9 1_555 1_555
C13 N9 1_555 1_555
C18 C13 1_555 1_555
H14 C18 1_555 1_555
C23 N4 1_555 1_555
C28 C13 1_555 1_555
H19 C28 1_555 1_555
H24 C28 1_555 1_555
C33 C23 1_555 1_555
H34 C33 1_555 1_555
H37 C36 1_555 1_555
H39 C33 1_555 1_555
H42 C36 1_555 1_555
H44 C33 1_555 1_555
H47 C36 1_555 1_555
C18 C23 1_555 1_555
H9 C6 1_555 1_555
C7 C6 1_555 1_555
C8 C7 1_555 1_555
H10 C8 1_555 1_555
C9 C7 1_555 1_555
Ag2 N8 1_555 1_555
N3 N8 1_555 1_555
N8 C12 1_555 1_555
N13 Ag2 1_555 1_555
N14 Ag2 1_555 1_555
C12 C17 1_555 1_555
C17 H13 1_555 1_555
C22 N3 1_555 1_555
C27 C12 1_555 1_555
H18 C27 1_555 1_555
H23 C27 1_555 1_555
H28 C27 1_555 1_555
C37 N3 1_555 1_555
H48 C37 1_555 1_555
H53 C37 1_555 1_555
C42 C37 1_555 1_555
C47 C8 1_555 1_555
H58 C47 1_555 1_555
C52 C9 1_555 1_555
H63 C57 1_555 1_555
C62 C52 1_555 1_555
H68 C62 1_555 1_555
C17 C22 1_555 1_555
C42 C47 1_555 1_555
C42 C52 1_555 1_555
C57 C62 1_555 1_555
N6 N11 1_555 1_555
C15 N11 1_555 1_555
C20 C15 1_555 1_555
H16 C20 1_555 1_555
C25 N6 1_555 1_555
C30 C15 1_555 1_555
H21 C30 1_555 1_555
H26 C30 1_555 1_555
C35 C25 1_555 1_555
H33 C32 1_555 1_555
H36 C35 1_555 1_555
H38 C32 1_555 1_555
H41 C35 1_555 1_555
H43 C32 1_555 1_555
H46 C35 1_555 1_555
C20 C25 1_555 1_555
N1 N2 1_555 1_555
N2 C1 1_555 1_555
C1 C2 1_555 1_555
C2 H1 1_555 1_555
C3 N1 1_555 1_555
C4 C1 1_555 1_555
H2 C4 1_555 1_555
H3 C4 1_555 1_555
C5 C3 1_555 1_555
H5 C5 1_555 1_555
H6 C5 1_555 1_555
H7 C5 1_555 1_555
H35 C34 1_555 1_555
H40 C34 1_555 1_555
H45 C34 1_555 1_555
C2 C3 1_555 1_555
N1_2 N2_2 1_555 1_555
N2_2 C1_2 1_555 1_555
C1_2 C2_2 1_555 1_555
C2_2 H1_2 1_555 1_555
C3_2 N1_2 1_555 1_555
C4_2 C1_2 1_555 1_555
H2_2 C4_2 1_555 1_555
H3_2 C4_2 1_555 1_555
H4 C4_2 1_555 1_555
C5_2 C3_2 1_555 1_555
H5_2 C5_2 1_555 1_555
H6_2 C5_2 1_555 1_555
H7_2 C5_2 1_555 1_555
Ag4 N10_2 1_555 1_555
N4_2 N9_2 1_555 1_555
N5_2 N10_2 1_555 1_555
N10_2 C14_2 1_555 1_555
C13_2 N9_2 1_555 1_555
C14_2 C19_2 1_555 1_555
C18_2 C13_2 1_555 1_555
C19_2 H15_2 1_555 1_555
H14_2 C18_2 1_555 1_555
C23_2 N4_2 1_555 1_555
C24_2 N5_2 1_555 1_555
C28_2 C13_2 1_555 1_555
C29_2 C14_2 1_555 1_555
H19_2 C28_2 1_555 1_555
H20_2 C29_2 1_555 1_555
H24_2 C28_2 1_555 1_555
H25_2 C29_2 1_555 1_555
H29 C28_2 1_555 1_555
H30_2 C29_2 1_555 1_555
C33_2 C23_2 1_555 1_555
C34_2 C24_2 1_555 1_555
H34_2 C33_2 1_555 1_555
H35_2 C34_2 1_555 1_555
H37_2 C36_2 1_555 1_555
H39_2 C33_2 1_555 1_555
H40_2 C34_2 1_555 1_555
H42_2 C36_2 1_555 1_555
H44_2 C33_2 1_555 1_555
H45_2 C34_2 1_555 1_555
H47_2 C36_2 1_555 1_555
C38_2 N4_2 1_555 1_555
C39_2 N5_2 1_555 1_555
H50_2 C39_2 1_555 1_555
H54_2 C38_2 1_555 1_555
H55_2 C39_2 1_555 1_555
C43_2 C38_2 1_555 1_555
C44_2 C39_2 1_555 1_555
C48_2 C43_2 1_555 1_555
C49_2 C44_2 1_555 1_555
H59_2 C48_2 1_555 1_555
H60_2 C49_2 1_555 1_555
C53_2 C43_2 1_555 1_555
C54_2 C44_2 1_555 1_555
C59_2 H65_2 1_555 1_555
C64_2 C54_2 1_555 1_555
H70_2 C64_2 1_555 1_555
C2_2 C3_2 1_555 1_555
C18_2 C23_2 1_555 1_555
C19_2 C24_2 1_555 1_555
C48_2 C49_2 1_555 1_555
C53_2 C54_2 1_555 1_555
C59_2 C64_2 1_555 1_555
H8_2 C6_2 1_555 1_555
H9_2 C6_2 1_555 1_555
C7_2 C6_2 1_555 1_555
C8_2 C7_2 1_555 1_555
H10_2 C8_2 1_555 1_555
C9_2 C7_2 1_555 1_555
C10_2 H11_2 1_555 1_555
C11_2 C9_2 1_555 1_555
H12_2 C11_2 1_555 1_555
Ag2_2 N8_2 1_555 1_555
Ag3 N12_2 1_555 1_555
N3_2 N8_2 1_555 1_555
N6_2 N11_2 1_555 1_555
N7_2 N12_2 1_555 1_555
N8_2 C12_2 1_555 1_555
N11_2 Ag1_2 1_555 1_555
N12_2 C16_2 1_555 1_555
N13_2 Ag2_2 1_555 1_555
N14_2 Ag2_2 1_555 1_555
C12_2 C17_2 1_555 1_555
C15_2 N11_2 1_555 1_555
C16_2 C21_2 1_555 1_555
C17_2 H13_2 1_555 1_555
C20_2 C15_2 1_555 1_555
C21_2 H17_2 1_555 1_555
H16_2 C20_2 1_555 1_555
C22_2 N3_2 1_555 1_555
C25_2 N6_2 1_555 1_555
C26_2 N7_2 1_555 1_555
C27_2 C12_2 1_555 1_555
C30_2 C15_2 1_555 1_555
C31_2 C16_2 1_555 1_555
H18_2 C27_2 1_555 1_555
H21_2 C30_2 1_555 1_555
H22_2 C31_2 1_555 1_555
H23_2 C27_2 1_555 1_555
H26_2 C30_2 1_555 1_555
H27_2 C31_2 1_555 1_555
H28_2 C27_2 1_555 1_555
H32_2 C31_2 1_555 1_555
C32_2 C22_2 1_555 1_555
C35_2 C25_2 1_555 1_555
H33_2 C32_2 1_555 1_555
H36_2 C35_2 1_555 1_555
H38_2 C32_2 1_555 1_555
H41_2 C35_2 1_555 1_555
H43_2 C32_2 1_555 1_555
H46_2 C35_2 1_555 1_555
C37_2 N3_2 1_555 1_555
C40_2 N6_2 1_555 1_555
C41_2 N7_2 1_555 1_555
H48_2 C37_2 1_555 1_555
H51_2 C40_2 1_555 1_555
H52_2 C41_2 1_555 1_555
H53_2 C37_2 1_555 1_555
H56_2 C40_2 1_555 1_555
H57_2 C41_2 1_555 1_555
C42_2 C37_2 1_555 1_555
C45_2 C40_2 1_555 1_555
C46_2 C41_2 1_555 1_555
C47_2 C8_2 1_555 1_555
C50_2 C45_2 1_555 1_555
C51_2 C46_2 1_555 1_555
H58_2 C47_2 1_555 1_555
H61_2 C50_2 1_555 1_555
H62_2 C51_2 1_555 1_555
C52_2 C9_2 1_555 1_555
C55_2 C45_2 1_555 1_555
C56_2 C46_2 1_555 1_555
C57_2 C10_2 1_555 1_555
C60_2 C61_2 1_555 1_555
C61_2 H67_2 1_555 1_555
H63_2 C57_2 1_555 1_555
H64_2 C58_2 1_555 1_555
H66_2 C60_2 1_555 1_555
C62_2 C52_2 1_555 1_555
C65_2 C55_2 1_555 1_555
C66_2 C56_2 1_555 1_555
H68_2 C62_2 1_555 1_555
H69_2 C63_2 1_555 1_555
H71_2 C65_2 1_555 1_555
H72_2 C66_2 1_555 1_555
C10_2 C11_2 1_555 1_555
C17_2 C22_2 1_555 1_555
C20_2 C25_2 1_555 1_555
C21_2 C26_2 1_555 1_555
C42_2 C47_2 1_555 1_555
C42_2 C52_2 1_555 1_555
C50_2 C51_2 1_555 1_555
C55_2 C56_2 1_555 1_555
C57_2 C62_2 1_555 1_555
C58_2 C63_2 1_555 1_555
C60_2 C65_2 1_555 1_555
C61_2 C66_2 1_555 1_555
N1_3 N2_3 1_555 1_555
N2_3 C1_3 1_555 1_555
C1_3 C2_3 1_555 1_555
C2_3 H1_3 1_555 1_555
C3_3 N1_3 1_555 1_555
C4_3 C1_3 1_555 1_555
H2_3 C4_3 1_555 1_555
H3_3 C4_3 1_555 1_555
H4_2 C4_3 1_555 1_555
C5_3 C3_3 1_555 1_555
H5_3 C5_3 1_555 1_555
H6_3 C5_3 1_555 1_555
H7_3 C5_3 1_555 1_555
C6_3 N1_3 1_555 1_555
H9_3 C6_3 1_555 1_555
C7_3 C6_3 1_555 1_555
C8_3 C7_3 1_555 1_555
H10_3 C8_3 1_555 1_555
C9_3 C7_3 1_555 1_555
Ag3 N8_3 1_555 1_555
N3_3 N8_3 1_555 1_555
N6_3 N11_3 1_555 1_555
N8_3 C12_3 1_555 1_555
C12_3 C17_3 1_555 1_555
C15_3 N11_3 1_555 1_555
C17_3 H13_3 1_555 1_555
C20_3 C15_3 1_555 1_555
H16_3 C20_3 1_555 1_555
C22_3 N3_3 1_555 1_555
C25_3 N6_3 1_555 1_555
C27_3 C12_3 1_555 1_555
C30_3 C15_3 1_555 1_555
H18_3 C27_3 1_555 1_555
H21_3 C30_3 1_555 1_555
H23_3 C27_3 1_555 1_555
H26_3 C30_3 1_555 1_555
H28_3 C27_3 1_555 1_555
H31_2 C30_3 1_555 1_555
C32_3 C22_3 1_555 1_555
C35_3 C25_3 1_555 1_555
H33_3 C32_3 1_555 1_555
H35_3 C34_3 1_555 1_555
H36_3 C35_3 1_555 1_555
H38_3 C32_3 1_555 1_555
H40_3 C34_3 1_555 1_555
H41_3 C35_3 1_555 1_555
H43_3 C32_3 1_555 1_555
H45_3 C34_3 1_555 1_555
H46_3 C35_3 1_555 1_555
C37_3 N3_3 1_555 1_555
H48_3 C37_3 1_555 1_555
H53_3 C37_3 1_555 1_555
C42_3 C37_3 1_555 1_555
C47_3 C8_3 1_555 1_555
H58_3 C47_3 1_555 1_555
C52_3 C9_3 1_555 1_555
H63_3 C57_3 1_555 1_555
C62_3 C52_3 1_555 1_555
H68_3 C62_3 1_555 1_555
C2_3 C3_3 1_555 1_555
C17_3 C22_3 1_555 1_555
C20_3 C25_3 1_555 1_555
C42_3 C47_3 1_555 1_555
C42_3 C52_3 1_555 1_555
C57_3 C62_3 1_555 1_555
C10_3 H11_3 1_555 1_555
H12_3 C11_3 1_555 1_555
N4_3 N9_3 1_555 1_555
N5_3 N14 1_555 1_555
N7_3 N13_2 1_555 1_555
N9_3 Ag1_3 1_555 1_555
N14 C14_3 1_555 1_555
N13_2 C16_3 1_555 1_555
C13_3 N9_3 1_555 1_555
C14_3 C19_3 1_555 1_555
C16_3 C21_3 1_555 1_555
C18_3 C13_3 1_555 1_555
C19_3 H15_3 1_555 1_555
C21_3 H17_3 1_555 1_555
H14_3 C18_3 1_555 1_555
C23_3 N4_3 1_555 1_555
C24_3 N5_3 1_555 1_555
C26_3 N7_3 1_555 1_555
C28_3 C13_3 1_555 1_555
C29_3 C14_3 1_555 1_555
C31_3 C16_3 1_555 1_555
H19_3 C28_3 1_555 1_555
H20_3 C29_3 1_555 1_555
H22_3 C31_3 1_555 1_555
H24_3 C28_3 1_555 1_555
H25_3 C29_3 1_555 1_555
H27_3 C31_3 1_555 1_555
H30_3 C29_3 1_555 1_555
H32_3 C31_3 1_555 1_555
C33_3 C23_3 1_555 1_555
C36_3 C26_3 1_555 1_555
H34_3 C33_3 1_555 1_555
H37_3 C36_3 1_555 1_555
H39_3 C33_3 1_555 1_555
H42_3 C36_3 1_555 1_555
H44_3 C33_3 1_555 1_555
H47_3 C36_3 1_555 1_555
C38_3 N4_3 1_555 1_555
C39_3 N5_3 1_555 1_555
C41_3 N7_3 1_555 1_555
H49_3 C38_3 1_555 1_555
H50_3 C39_3 1_555 1_555
H51_3 C40_3 1_555 1_555
H52_3 C41_3 1_555 1_555
H54_3 C38_3 1_555 1_555
H55_3 C39_3 1_555 1_555
H56_3 C40_3 1_555 1_555
H57_3 C41_3 1_555 1_555
C43_3 C38_3 1_555 1_555
C44_3 C39_3 1_555 1_555
C45_3 C40_3 1_555 1_555
C46_3 C41_3 1_555 1_555
C48_3 C43_3 1_555 1_555
C49_3 C44_3 1_555 1_555
C50_3 C45_3 1_555 1_555
C51_3 C46_3 1_555 1_555
H59_3 C48_3 1_555 1_555
H60_3 C49_3 1_555 1_555
H61_3 C50_3 1_555 1_555
H62_3 C51_3 1_555 1_555
C53_3 C43_3 1_555 1_555
C54_3 C44_3 1_555 1_555
C55_3 C45_3 1_555 1_555
C56_3 C46_3 1_555 1_555
C58_3 C59_3 1_555 1_555
C59_3 H65_3 1_555 1_555
C60_3 C61_3 1_555 1_555
C61_3 H67_3 1_555 1_555
H64_3 C58_3 1_555 1_555
H66_3 C60_3 1_555 1_555
C63_3 C53_3 1_555 1_555
C64_3 C54_3 1_555 1_555
C65_3 C55_3 1_555 1_555
C66_3 C56_3 1_555 1_555
H69_3 C63_3 1_555 1_555
H70_3 C64_3 1_555 1_555
H71_3 C65_3 1_555 1_555
H72_3 C66_3 1_555 1_555
C10_3 C11_3 1_555 1_555
C18_3 C23_3 1_555 1_555
C19_3 C24_3 1_555 1_555
C21_3 C26_3 1_555 1_555
C48_3 C49_3 1_555 1_555
C50_3 C51_3 1_555 1_555
C53_3 C54_3 1_555 1_555
C55_3 C56_3 1_555 1_555
C58_3 C63_3 1_555 1_555
C59_3 C64_3 1_555 1_555
C60_3 C65_3 1_555 1_555
C61_3 C66_3 1_555 1_555
N4_4 N9_4 1_555 1_555
N6_4 N11_4 1_555 1_555
N7_4 N13 1_555 1_555
N13 C16_4 1_555 1_555
C13_4 N9_4 1_555 1_555
C15_4 N11_4 1_555 1_555
C16_4 C21_4 1_555 1_555
C18_4 C13_4 1_555 1_555
C20_4 C15_4 1_555 1_555
C21_4 H17_4 1_555 1_555
H14_4 C18_4 1_555 1_555
H16_4 C20_4 1_555 1_555
C23_4 N4_4 1_555 1_555
C25_4 N6_4 1_555 1_555
C26_4 N7_4 1_555 1_555
C28_4 C13_4 1_555 1_555
C30_4 C15_4 1_555 1_555
C31_4 C16_4 1_555 1_555
H19_4 C28_4 1_555 1_555
H21_4 C30_4 1_555 1_555
H22_4 C31_4 1_555 1_555
H24_4 C28_4 1_555 1_555
H26_4 C30_4 1_555 1_555
H27_4 C31_4 1_555 1_555
H29_3 C28_4 1_555 1_555
H31_3 C30_4 1_555 1_555
H32_4 C31_4 1_555 1_555
C33_4 C23_4 1_555 1_555
C35_4 C25_4 1_555 1_555
C36_4 C26_4 1_555 1_555
H33_4 C32_4 1_555 1_555
H34_4 C33_4 1_555 1_555
H36_4 C35_4 1_555 1_555
H37_4 C36_4 1_555 1_555
H38_4 C32_4 1_555 1_555
H39_4 C33_4 1_555 1_555
H41_4 C35_4 1_555 1_555
H42_4 C36_4 1_555 1_555
H43_4 C32_4 1_555 1_555
H44_4 C33_4 1_555 1_555
H46_4 C35_4 1_555 1_555
H47_4 C36_4 1_555 1_555
C40_4 N6_4 1_555 1_555
C41_4 N7_4 1_555 1_555
H52_4 C41_4 1_555 1_555
H56_4 C40_4 1_555 1_555
H57_4 C41_4 1_555 1_555
C45_4 C40_4 1_555 1_555
C46_4 C41_4 1_555 1_555
C50_4 C45_4 1_555 1_555
C51_4 C46_4 1_555 1_555
H61_4 C50_4 1_555 1_555
H62_4 C51_4 1_555 1_555
C55_4 C45_4 1_555 1_555
C56_4 C46_4 1_555 1_555
C61_4 H67_4 1_555 1_555
C66_4 C56_4 1_555 1_555
H72_4 C66_4 1_555 1_555
C18_4 C23_4 1_555 1_555
C20_4 C25_4 1_555 1_555
C21_4 C26_4 1_555 1_555
C50_4 C51_4 1_555 1_555
C55_4 C56_4 1_555 1_555
C61_4 C66_4 1_555 1_555
Ag1_4 N2_4 1_555 1_555
N1_4 N2_4 1_555 1_555
N2_4 C1_4 1_555 1_555
C1_4 C2_4 1_555 1_555
C2_4 H1_4 1_555 1_555
C3_4 N1_4 1_555 1_555
C4_4 C1_4 1_555 1_555
H2_4 C4_4 1_555 1_555
H3_4 C4_4 1_555 1_555
C5_4 C3_4 1_555 1_555
H5_4 C5_4 1_555 1_555
H6_4 C5_4 1_555 1_555
H7_4 C5_4 1_555 1_555
C6_4 N1_4 1_555 1_555
H8_4 C6_4 1_555 1_555
H9_4 C6_4 1_555 1_555
C7_4 C6_4 1_555 1_555
C8_4 C7_4 1_555 1_555
H10_4 C8_4 1_555 1_555
C9_4 C7_4 1_555 1_555
C10_4 H11_4 1_555 1_555
C11_4 C9_4 1_555 1_555
H12_4 C11_4 1_555 1_555
Ag4 N8_4 1_555 1_555
N3_4 N8_4 1_555 1_555
N5_4 N14_2 1_555 1_555
N8_4 C12_4 1_555 1_555
N14_2 C14_4 1_555 1_555
C12_4 C17_4 1_555 1_555
C14_4 C19_4 1_555 1_555
C17_4 H13_4 1_555 1_555
C19_4 H15_4 1_555 1_555
C22_4 N3_4 1_555 1_555
C24_4 N5_4 1_555 1_555
C27_4 C12_4 1_555 1_555
C29_4 C14_4 1_555 1_555
H18_4 C27_4 1_555 1_555
H20_4 C29_4 1_555 1_555
H23_4 C27_4 1_555 1_555
H25_4 C29_4 1_555 1_555
H28_4 C27_4 1_555 1_555
H30_4 C29_4 1_555 1_555
C34_4 C24_4 1_555 1_555
H35_4 C34_4 1_555 1_555
H40_4 C34_4 1_555 1_555
H45_4 C34_4 1_555 1_555
C37_4 N3_4 1_555 1_555
C39_4 N5_4 1_555 1_555
H48_4 C37_4 1_555 1_555
H49_4 C38_4 1_555 1_555
H50_4 C39_4 1_555 1_555
H53_4 C37_4 1_555 1_555
H54_4 C38_4 1_555 1_555
H55_4 C39_4 1_555 1_555
C42_4 C37_4 1_555 1_555
C43_4 C38_4 1_555 1_555
C44_4 C39_4 1_555 1_555
C47_4 C8_4 1_555 1_555
C48_4 C43_4 1_555 1_555
C49_4 C44_4 1_555 1_555
H58_4 C47_4 1_555 1_555
H59_4 C48_4 1_555 1_555
H60_4 C49_4 1_555 1_555
C52_4 C9_4 1_555 1_555
C53_4 C43_4 1_555 1_555
C54_4 C44_4 1_555 1_555
C57_4 C10_4 1_555 1_555
C58_4 C59_4 1_555 1_555
C59_4 H65_4 1_555 1_555
H63_4 C57_4 1_555 1_555
H64_4 C58_4 1_555 1_555
H66_4 C60_4 1_555 1_555
C62_4 C52_4 1_555 1_555
C63_4 C53_4 1_555 1_555
C64_4 C54_4 1_555 1_555
H68_4 C62_4 1_555 1_555
H69_4 C63_4 1_555 1_555
H70_4 C64_4 1_555 1_555
H71_4 C65_4 1_555 1_555
C2_4 C3_4 1_555 1_555
C10_4 C11_4 1_555 1_555
C17_4 C22_4 1_555 1_555
C19_4 C24_4 1_555 1_555
C42_4 C47_4 1_555 1_555
C42_4 C52_4 1_555 1_555
C48_4 C49_4 1_555 1_555
C53_4 C54_4 1_555 1_555
C57_4 C62_4 1_555 1_555
C58_4 C63_4 1_555 1_555
C59_4 C64_4 1_555 1_555
C60_4 C65_4 1_555 1_555
F2 P1 1_555 1_555
F3 P1 1_555 1_555
P1_2 F1_2 1_555 1_555
F6_2 P1_2 1_555 1_555
P1_3 F1_3 1_555 1_555
F2_3 P1_3 1_555 1_555
F3_3 P1_3 1_555 1_555
F4_3 P1_3 1_555 1_555
F5_3 P1_3 1_555 1_555
F6_3 P1_3 1_555 1_555
F4_4 P1_4 1_555 1_555
F5_4 P1_4 1_555 1_555
P1_5 F1_5 1_555 1_555
F2_5 P1_5 1_555 1_555
F3_5 P1_5 1_555 1_555
F4_5 P1_5 1_555 1_555
F5_5 P1_5 1_555 1_555
F6_5 P1_5 1_555 1_555
P1_6 F1_6 1_555 1_555
F2_6 P1_6 1_555 1_555
F3_6 P1_6 1_555 1_555
F4_6 P1_6 1_555 1_555
F5_6 P1_6 1_555 1_555
F6_6 P1_6 1_555 1_555
P1_7 F1_7 1_555 1_555
F2_7 P1_7 1_555 1_555
F3_7 P1_7 1_555 1_555
F4_7 P1_7 1_555 1_555
F5_7 P1_7 1_555 1_555
F6_7 P1_7 1_555 1_555
P1_8 F1_8 1_555 1_555
F2_8 P1_8 1_555 1_555
F3_8 P1_8 1_555 1_555
F4_8 P1_8 1_555 1_555
F5_8 P1_8 1_555 1_555
F6_8 P1_8 1_555 1_555

#END
