
###############################################################################
#
# This file contains modified crystal structure data generated from the
# MOF subset of the Cambridge Structural Database (CSD) v543 
# hosted by the Cambridge Crystallographic Data Centre (CCDC).
#
# This work is licensed under the Creative Commons
# Attribution-NonCommercial-ShareAlike 4.0 International License.
# To view a copy of this license, visit
# http://creativecommons.org/licenses/by-nc-sa/4.0/
# or send a letter to
# Creative Commons, PO Box 1866, Mountain View, CA 94042, USA.
#
# CIF created using the CSD Python API on 29 September 2022
# The structure has been converted into the P1 space group
# The structure has a 3D framework
# The original CSD entry EMAMUC is in the monoclinic crystal system
# The framework has been calculated to contain at least 10.0% void space
# The void calculation uses a probe of radius 1.32A, grid spacing 0.4
#
###############################################################################

data_EMAMUC
_chemical_formula_moiety         '(C128 H128 N32 Ni8 O48)n'
_symmetry_cell_setting           triclinic
_symmetry_space_group_name_H-M   'P 1'
_symmetry_Int_Tables_number      1
_space_group_name_Hall           'P 1'
loop_
_symmetry_equiv_pos_site_id
_symmetry_equiv_pos_as_xyz
1 x,y,z
_cell_length_a                   35.0241(16)
_cell_length_b                   13.3396(6)
_cell_length_c                   9.1834(4)
_cell_angle_alpha                90
_cell_angle_beta                 104.116(2)
_cell_angle_gamma                90
_cell_volume                     4161
loop_
_atom_site_label
_atom_site_type_symbol
_atom_site_fract_x
_atom_site_fract_y
_atom_site_fract_z
O7 O 0.59564(10) 0.7897(2) 0.1021(4)
H25 H 0.5985 0.7426 0.1787
H26 H 0.5767 0.8397 0.0925
O8 O 0.63254(11) 0.6337(3) 0.2421(4)
O9 O 0.82496(10) 0.3694(3) 0.4129(4)
O11 O 0.66136(9) 0.6605(2) 0.0524(4)
O12 O 0.86076(11) 0.4449(3) 0.2748(5)
C27 C 0.69311(15) 0.5542(4) 0.2496(6)
H29 H 0.6915 0.5190 0.3353
C28 C 0.79294(14) 0.4834(3) 0.2273(5)
H30 H 0.7939 0.5161 0.1389
C29 C 0.72477(13) 0.5432(3) 0.1977(5)
H31 H 0.7247 0.5731 0.1062
C30 C 0.82852(14) 0.4285(3) 0.3112(5)
C31 C 0.65951(15) 0.6212(3) 0.1762(5)
C32 C 0.75979(14) 0.4876(3) 0.2731(5)
H32 H 0.7589 0.4526 0.3597
Ni5 Ni 0.86843(2) 0.28335(4) 0.54755(6)
O14 O 0.67504(10) 0.8694(3) 0.0871(4)
N3 N 0.73195(11) 0.2416(3) 0.9749(4)
H11 H 0.6597 0.2009 0.9422
N4 N 0.4962(2) 0.4599(5) 0.9855(8)
C17 C 0.84988(14) 0.2955(4) 0.8511(5)
H17 H 0.8763 0.3136 0.8825
N5 N 0.83481(11) 0.2780(3) 0.7042(4)
C18 C 0.79636(12) 0.2531(3) 0.6613(5)
H18 H 0.7855 0.2405 0.5601
C19 C 0.78884(13) 0.2635(3) 0.9100(5)
C20 C 0.77235(13) 0.2453(3) 0.7588(5)
H19 H 0.7459 0.2284 0.7247
C21 C 0.82853(14) 0.2880(4) 0.9568(5)
N7 N 0.41153(12) 0.6965(3) 0.6907(5)
C22 C 0.4338(2) 0.5412(6) 0.8090(9)
H21 H 0.4293 0.4732 0.8193
C23 C 0.4674(2) 0.5856(7) 0.8906(8)
C24 C 0.40645(18) 0.6003(4) 0.7100(7)
H22 H 0.3835 0.5702 0.6549
C25 C 0.47305(19) 0.6855(7) 0.8738(9)
H23 H 0.4955 0.7174 0.9300
C26 C 0.44495(16) 0.7384(6) 0.7719(7)
H24 H 0.4492 0.8062 0.7585
Ni2 Ni 0.36843(2) 0.78335(4) 0.54755(6)
O7_2 O 0.40436(10) 0.7897(2) 0.3979(4)
H25_2 H 0.4015 0.7426 0.3213
H26_2 H 0.4233 0.8397 0.4075
O8_2 O 0.36746(11) 0.6337(3) 0.2579(4)
O9_2 O 0.17504(10) 0.3694(3) 0.0871(4)
O10 O 0.39530(10) 0.9183(3) 0.6394(4)
H27 H 0.3838 0.9795 0.6055
H28 H 0.4187 0.9166 0.7139
O11_2 O 0.33864(9) 0.6605(2) 0.4476(4)
O12_2 O 0.13924(11) 0.4449(3) 0.2252(5)
C27_2 C 0.30689(15) 0.5542(4) 0.2504(6)
H29_2 H 0.3085 0.5190 0.1647
C28_2 C 0.20706(14) 0.4834(3) 0.2727(5)
H30_2 H 0.2061 0.5161 0.3611
C29_2 C 0.27523(13) 0.5432(3) 0.3023(5)
H31_2 H 0.2753 0.5731 0.3938
C30_2 C 0.17148(14) 0.4285(3) 0.1888(5)
C31_2 C 0.34049(15) 0.6212(3) 0.3238(5)
C32_2 C 0.24021(14) 0.4876(3) 0.2269(5)
H32_2 H 0.2411 0.4526 0.1403
N9 N 0.33481(11) 0.7780(3) 0.7042(4)
O14_2 O 0.32496(10) 0.8694(3) 0.4129(4)
O7_3 O 0.09564(10) 0.2897(2) 0.1021(4)
H25_3 H 0.0985 0.2426 0.1787
H26_3 H 0.0767 0.3397 0.0925
O8_3 O 0.13254(11) 0.1337(3) 0.2421(4)
O11_3 O 0.16136(9) 0.1605(2) 0.0524(4)
C27_3 C 0.19311(15) 0.0542(4) 0.2496(6)
H29_3 H 0.1915 0.0190 0.3353
H30_3 H 0.2939 0.0161 0.1389
C29_3 C 0.22477(13) 0.0432(3) 0.1977(5)
H31_3 H 0.2247 0.0731 0.1062
C31_3 C 0.15951(15) 0.1212(3) 0.1762(5)
O12_3 O 0.36076(11) 0.9449(3) 0.2748(5)
C28_3 C 0.29294(14) 0.9834(3) 0.2273(5)
C30_3 C 0.32852(14) 0.9285(3) 0.3112(5)
C32_3 C 0.25979(14) 0.9876(3) 0.2731(5)
H32_3 H 0.2589 0.9526 0.3597
N3_2 N 0.23195(11) 0.7416(3) 0.9749(4)
H11_2 H 0.1597 0.7009 0.9422
C17_2 C 0.34988(14) 0.7955(4) 0.8511(5)
H17_2 H 0.3763 0.8136 0.8825
C18_2 C 0.29636(12) 0.7531(3) 0.6613(5)
H18_2 H 0.2855 0.7405 0.5601
C19_2 C 0.28884(13) 0.7635(3) 0.9100(5)
C20_2 C 0.27235(13) 0.7453(3) 0.7588(5)
H19_2 H 0.2459 0.7284 0.7247
C21_2 C 0.32853(14) 0.7880(4) 0.9568(5)
N7_2 N 0.91153(12) 0.1965(3) 0.6907(5)
C22_2 C 0.9338(2) 0.0412(6) 0.8090(9)
C23_2 C 0.9674(2) 0.0856(7) 0.8906(8)
C24_2 C 0.90645(18) 0.1003(4) 0.7100(7)
H22_2 H 0.8835 0.0702 0.6549
C25_2 C 0.97305(19) 0.1855(7) 0.8738(9)
H23_2 H 0.9955 0.2174 0.9300
C26_2 C 0.94495(16) 0.2384(6) 0.7719(7)
H24_2 H 0.9492 0.3062 0.7585
O7_4 O 0.90436(10) 0.2897(2) 0.3979(4)
H25_4 H 0.9015 0.2426 0.3213
H26_4 H 0.9233 0.3397 0.4075
O8_4 O 0.86746(11) 0.1337(3) 0.2579(4)
O10_2 O 0.89530(10) 0.4183(3) 0.6394(4)
H27_2 H 0.8838 0.4795 0.6055
H28_2 H 0.9187 0.4166 0.7139
O11_4 O 0.83864(9) 0.1605(2) 0.4476(4)
C27_4 C 0.80689(15) 0.0542(4) 0.2504(6)
H29_4 H 0.8085 0.0190 0.1647
H30_4 H 0.7061 0.0161 0.3611
C29_4 C 0.77523(13) 0.0432(3) 0.3023(5)
H31_4 H 0.7753 0.0731 0.3938
C31_4 C 0.84049(15) 0.1212(3) 0.3238(5)
N4_2 N 0.9962(2) 0.9599(5) 0.9855(8)
H21_2 H 0.9293 0.9732 0.8193
O12_4 O 0.63924(11) 0.9449(3) 0.2252(5)
C28_4 C 0.70706(14) 0.9834(3) 0.2727(5)
C30_4 C 0.67148(14) 0.9285(3) 0.1888(5)
C32_4 C 0.74021(14) 0.9876(3) 0.2269(5)
H32_4 H 0.7411 0.9526 0.1403
Ni1 Ni 0.36843(2) 0.21665(4) 0.04755(6)
C1 C 0.34988(14) 0.2045(4) 0.3511(5)
H1 H 0.3763 0.1864 0.3825
N1 N 0.33481(11) 0.2220(3) 0.2042(4)
O4 O 0.39530(10) 0.0817(3) 0.1394(4)
H4 H 0.3838 0.0205 0.1055
H5 H 0.4187 0.0834 0.2139
N2 N 0.41153(12) 0.3035(3) 0.1907(5)
N3_3 N 0.26805(11) 0.2416(3) 0.5251(4)
C4 C 0.29636(12) 0.2469(3) 0.1613(5)
H8 H 0.2855 0.2595 0.0601
C5 C 0.28884(13) 0.2365(3) 0.4100(5)
C6 C 0.27235(13) 0.2547(3) 0.2588(5)
H9 H 0.2459 0.2716 0.2247
C8 C 0.32853(14) 0.2120(4) 0.4568(5)
H11_3 H 0.3403 0.2009 0.5578
C12 C 0.4338(2) 0.4588(6) 0.3090(9)
H13 H 0.4293 0.5268 0.3193
C13 C 0.4674(2) 0.4144(7) 0.3906(8)
C14 C 0.40645(18) 0.3997(4) 0.2100(7)
H14 H 0.3835 0.4298 0.1549
N4_3 N 0.5038(2) 0.4599(5) 0.5145(8)
C15 C 0.47305(19) 0.3145(7) 0.3738(9)
H15 H 0.4955 0.2826 0.4300
C16 C 0.44495(16) 0.2616(6) 0.2719(7)
H16 H 0.4492 0.1938 0.2585
C17_3 C 0.15012(14) 0.2955(4) 0.6489(5)
H17_3 H 0.1237 0.3136 0.6175
N5_2 N 0.16519(11) 0.2780(3) 0.7958(4)
N6 N 0.23195(11) 0.2584(3) 0.4749(4)
C18_3 C 0.20364(12) 0.2531(3) 0.8387(5)
H18_3 H 0.2145 0.2405 0.9399
C19_3 C 0.21116(13) 0.2635(3) 0.5900(5)
C20_3 C 0.22765(13) 0.2453(3) 0.7412(5)
H19_3 H 0.2541 0.2284 0.7753
C21_3 C 0.17147(14) 0.2880(4) 0.5432(5)
H20 H 0.1597 0.2991 0.4422
N7_3 N 0.58847(12) 0.6965(3) 0.8093(5)
C22_3 C 0.5662(2) 0.5412(6) 0.6910(9)
H21_3 H 0.5707 0.4732 0.6807
C23_3 C 0.5326(2) 0.5856(7) 0.6094(8)
C24_3 C 0.59355(18) 0.6003(4) 0.7900(7)
H22_3 H 0.6165 0.5702 0.8451
N8 N 0.4962(2) 0.5401(5) 0.4855(8)
C25_3 C 0.52695(19) 0.6855(7) 0.6262(9)
H23_3 H 0.5045 0.7174 0.5700
C26_3 C 0.55505(16) 0.7384(6) 0.7281(7)
H24_3 H 0.5508 0.8062 0.7415
Ni2_2 Ni 0.63157(2) 0.78335(4) 0.95245(6)
O10_3 O 0.60470(10) 0.9183(3) 0.8606(4)
H27_3 H 0.6162 0.9795 0.8945
H28_3 H 0.5813 0.9166 0.7861
Ni4 Ni 0.13157(2) 0.28335(4) 0.95245(6)
N9_2 N 0.66519(11) 0.7780(3) 0.7958(4)
Ni3 Ni 0.86843(2) 0.71665(4) 0.04755(6)
N7_4 N 0.08847(12) 0.1965(3) 0.8093(5)
C22_4 C 0.0662(2) 0.0412(6) 0.6910(9)
C23_4 C 0.0326(2) 0.0856(7) 0.6094(8)
C24_4 C 0.09355(18) 0.1003(4) 0.7900(7)
H22_4 H 0.1165 0.0702 0.8451
C25_4 C 0.02695(19) 0.1855(7) 0.6262(9)
H23_4 H 0.0045 0.2174 0.5700
C26_4 C 0.05505(16) 0.2384(6) 0.7281(7)
H24_4 H 0.0508 0.3062 0.7415
O10_4 O 0.10470(10) 0.4183(3) 0.8606(4)
H27_4 H 0.1162 0.4795 0.8945
H28_4 H 0.0813 0.4166 0.7861
C1_2 C 0.84988(14) 0.7045(4) 0.3511(5)
H1_2 H 0.8763 0.6864 0.3825
N1_2 N 0.83481(11) 0.7220(3) 0.2042(4)
O4_2 O 0.89530(10) 0.5817(3) 0.1394(4)
H4_2 H 0.8838 0.5205 0.1055
H5_2 H 0.9187 0.5834 0.2139
N2_2 N 0.91153(12) 0.8035(3) 0.1907(5)
N3_4 N 0.76805(11) 0.7416(3) 0.5251(4)
C4_2 C 0.79636(12) 0.7469(3) 0.1613(5)
H8_2 H 0.7855 0.7595 0.0601
C5_2 C 0.78884(13) 0.7365(3) 0.4100(5)
C6_2 C 0.77235(13) 0.7547(3) 0.2588(5)
H9_2 H 0.7459 0.7716 0.2247
C8_2 C 0.82853(14) 0.7120(4) 0.4568(5)
H11_4 H 0.8403 0.7009 0.5578
C12_2 C 0.9338(2) 0.9588(6) 0.3090(9)
C13_2 C 0.9674(2) 0.9144(7) 0.3906(8)
C14_2 C 0.90645(18) 0.8997(4) 0.2100(7)
H14_2 H 0.8835 0.9298 0.1549
C15_2 C 0.97305(19) 0.8145(7) 0.3738(9)
H15_2 H 0.9955 0.7826 0.4300
C16_2 C 0.94495(16) 0.7616(6) 0.2719(7)
H16_2 H 0.9492 0.6938 0.2585
C17_4 C 0.65012(14) 0.7955(4) 0.6489(5)
H17_4 H 0.6237 0.8136 0.6175
N6_2 N 0.73195(11) 0.7584(3) 0.4749(4)
C18_4 C 0.70364(12) 0.7531(3) 0.8387(5)
H18_4 H 0.7145 0.7405 0.9399
C19_4 C 0.71116(13) 0.7635(3) 0.5900(5)
C20_4 C 0.72765(13) 0.7453(3) 0.7412(5)
H19_4 H 0.7541 0.7284 0.7753
C21_4 C 0.67147(14) 0.7880(4) 0.5432(5)
H20_2 H 0.6597 0.7991 0.4422
O1 O 0.40436(10) 0.2103(2) 0.8979(4)
H2 H 0.4015 0.2574 0.8213
H3 H 0.4233 0.1603 0.9075
O2 O 0.36746(11) 0.3663(3) 0.7579(4)
O3 O 0.17504(10) 0.6306(3) 0.5871(4)
O5 O 0.33864(9) 0.3395(2) 0.9476(4)
O6 O 0.13924(11) 0.5551(3) 0.7252(5)
C2 C 0.30689(15) 0.4458(4) 0.7504(6)
H6 H 0.3085 0.4810 0.6647
C3 C 0.20706(14) 0.5166(3) 0.7727(5)
H7 H 0.2061 0.4839 0.8611
C7 C 0.27523(13) 0.4568(3) 0.8023(5)
H10 H 0.2753 0.4269 0.8938
C9 C 0.17148(14) 0.5715(3) 0.6888(5)
C10 C 0.34049(15) 0.3788(3) 0.8238(5)
C11 C 0.24021(14) 0.5124(3) 0.7269(5)
H12 H 0.2411 0.5474 0.6403
Ni3_2 Ni 0.13157(2) 0.71665(4) 0.45245(6)
O13 O 0.32496(10) 0.1306(3) 0.9129(4)
Ni1_2 Ni 0.63157(2) 0.21665(4) 0.45245(6)
C1_3 C 0.65012(14) 0.2045(4) 0.1489(5)
H1_3 H 0.6237 0.1864 0.1175
O1_2 O 0.59564(10) 0.2103(2) 0.6021(4)
H2_2 H 0.5985 0.2574 0.6787
H3_2 H 0.5767 0.1603 0.5925
N1_3 N 0.66519(11) 0.2220(3) 0.2958(4)
O2_2 O 0.63254(11) 0.3663(3) 0.7421(4)
O3_2 O 0.82496(10) 0.6306(3) 0.9129(4)
O4_3 O 0.60470(10) 0.0817(3) 0.3606(4)
H4_3 H 0.6162 0.0205 0.3945
H5_3 H 0.5813 0.0834 0.2861
O5_2 O 0.66136(9) 0.3395(2) 0.5524(4)
O6_2 O 0.86076(11) 0.5551(3) 0.7748(5)
N2_3 N 0.58847(12) 0.3035(3) 0.3093(5)
C2_2 C 0.69311(15) 0.4458(4) 0.7496(6)
H6_2 H 0.6915 0.4810 0.8353
C3_2 C 0.79294(14) 0.5166(3) 0.7273(5)
H7_2 H 0.7939 0.4839 0.6389
C4_3 C 0.70364(12) 0.2469(3) 0.3387(5)
H8_3 H 0.7145 0.2595 0.4399
C5_3 C 0.71116(13) 0.2365(3) 0.0900(5)
C6_3 C 0.72765(13) 0.2547(3) 0.2412(5)
H9_3 H 0.7541 0.2716 0.2753
C7_2 C 0.72477(13) 0.4568(3) 0.6977(5)
H10_2 H 0.7247 0.4269 0.6062
C8_3 C 0.67147(14) 0.2120(4) 0.0432(5)
C9_2 C 0.82852(14) 0.5715(3) 0.8112(5)
C10_2 C 0.65951(15) 0.3788(3) 0.6762(5)
C11_2 C 0.75979(14) 0.5124(3) 0.7731(5)
H12_2 H 0.7589 0.5474 0.8597
C12_3 C 0.5662(2) 0.4588(6) 0.1910(9)
H13_2 H 0.5707 0.5268 0.1807
C13_3 C 0.5326(2) 0.4144(7) 0.1094(8)
C14_3 C 0.59355(18) 0.3997(4) 0.2900(7)
H14_3 H 0.6165 0.4298 0.3451
C15_3 C 0.52695(19) 0.3145(7) 0.1262(9)
H15_3 H 0.5045 0.2826 0.0700
C16_3 C 0.55505(16) 0.2616(6) 0.2281(7)
H16_3 H 0.5508 0.1938 0.2415
N6_3 N 0.76805(11) 0.2584(3) 0.0251(4)
H20_3 H 0.8403 0.2991 0.0578
N8_2 N 0.5038(2) 0.5401(5) 0.0145(8)
O13_2 O 0.67504(10) 0.1306(3) 0.5871(4)
O6_3 O 0.63924(11) 0.0551(3) 0.7252(5)
C3_3 C 0.70706(14) 0.0166(3) 0.7727(5)
C9_3 C 0.67148(14) 0.0715(3) 0.6888(5)
C11_3 C 0.74021(14) 0.0124(3) 0.7269(5)
H12_3 H 0.7411 0.0474 0.6403
O1_3 O 0.90436(10) 0.7103(2) 0.8979(4)
H2_3 H 0.9015 0.7574 0.8213
H3_3 H 0.9233 0.6603 0.9075
O2_3 O 0.86746(11) 0.8663(3) 0.7579(4)
O5_3 O 0.83864(9) 0.8395(2) 0.9476(4)
C2_3 C 0.80689(15) 0.9458(4) 0.7504(6)
H6_3 H 0.8085 0.9810 0.6647
H7_3 H 0.7061 0.9839 0.8611
C7_3 C 0.77523(13) 0.9568(3) 0.8023(5)
H10_3 H 0.7753 0.9269 0.8938
C10_3 C 0.84049(15) 0.8788(3) 0.8238(5)
O6_4 O 0.36076(11) 0.0551(3) 0.7748(5)
C3_4 C 0.29294(14) 0.0166(3) 0.7273(5)
C9_4 C 0.32852(14) 0.0715(3) 0.8112(5)
C11_4 C 0.25979(14) 0.0124(3) 0.7731(5)
H12_4 H 0.2589 0.0474 0.8597
H13_3 H 0.0707 0.0268 0.1807
N8_3 N 0.0038(2) 0.0401(5) 0.0145(8)
C1_4 C 0.15012(14) 0.7045(4) 0.1489(5)
H1_4 H 0.1237 0.6864 0.1175
O1_4 O 0.09564(10) 0.7103(2) 0.6021(4)
H2_4 H 0.0985 0.7574 0.6787
H3_4 H 0.0767 0.6603 0.5925
N1_4 N 0.16519(11) 0.7220(3) 0.2958(4)
O2_4 O 0.13254(11) 0.8663(3) 0.7421(4)
O4_4 O 0.10470(10) 0.5817(3) 0.3606(4)
H4_4 H 0.1162 0.5205 0.3945
H5_4 H 0.0813 0.5834 0.2861
O5_4 O 0.16136(9) 0.8395(2) 0.5524(4)
N2_4 N 0.08847(12) 0.8035(3) 0.3093(5)
C2_4 C 0.19311(15) 0.9458(4) 0.7496(6)
H6_4 H 0.1915 0.9810 0.8353
H7_4 H 0.2939 0.9839 0.6389
C4_4 C 0.20364(12) 0.7469(3) 0.3387(5)
H8_4 H 0.2145 0.7595 0.4399
C5_4 C 0.21116(13) 0.7365(3) 0.0900(5)
C6_4 C 0.22765(13) 0.7547(3) 0.2412(5)
H9_4 H 0.2541 0.7716 0.2753
C7_4 C 0.22477(13) 0.9568(3) 0.6977(5)
H10_4 H 0.2247 0.9269 0.6062
C8_4 C 0.17147(14) 0.7120(4) 0.0432(5)
C10_4 C 0.15951(15) 0.8788(3) 0.6762(5)
C12_4 C 0.0662(2) 0.9588(6) 0.1910(9)
C13_4 C 0.0326(2) 0.9144(7) 0.1094(8)
C14_4 C 0.09355(18) 0.8997(4) 0.2900(7)
H14_4 H 0.1165 0.9298 0.3451
C15_4 C 0.02695(19) 0.8145(7) 0.1262(9)
H15_4 H 0.0045 0.7826 0.0700
C16_4 C 0.05505(16) 0.7616(6) 0.2281(7)
H16_4 H 0.0508 0.6938 0.2415
N6_4 N 0.26805(11) 0.7584(3) 0.0251(4)
H20_4 H 0.3403 0.7991 0.0578
N4_4 N 0.0038(2) 0.9599(5) 0.5145(8)
H21_4 H 0.0707 0.9732 0.6807
H13_4 H 0.9293 0.0268 0.3193
N8_4 N 0.9962(2) 0.0401(5) 0.4855(8)
loop_
_geom_bond_atom_site_label_1
_geom_bond_atom_site_label_2
_geom_bond_site_symmetry_1
_geom_bond_site_symmetry_2
H25 O7 1_555 1_555
H26 O7 1_555 1_555
O8 C31 1_555 1_555
O9 C30 1_555 1_555
O12 C30 1_555 1_555
C27 H29 1_555 1_555
C28 H30 1_555 1_555
C29 C27 1_555 1_555
H31 C29 1_555 1_555
C30 C28 1_555 1_555
C31 O11 1_555 1_555
C32 C28 1_555 1_555
H32 C32 1_555 1_555
Ni5 O9 1_555 1_555
C27 C31 1_555 1_555
C29 C32 1_555 1_555
C17 H17 1_555 1_555
N5 C17 1_555 1_555
C18 N5 1_555 1_555
H18 C18 1_555 1_555
C20 C18 1_555 1_555
H19 C20 1_555 1_555
C21 C17 1_555 1_555
N7 C24 1_555 1_555
C22 H21 1_555 1_555
C23 C22 1_555 1_555
C24 C22 1_555 1_555
H22 C24 1_555 1_555
C25 C23 1_555 1_555
H23 C25 1_555 1_555
C26 N7 1_555 1_555
H24 C26 1_555 1_555
Ni2 N7 1_555 1_555
O7_2 Ni2 1_555 1_555
H25_2 O7_2 1_555 1_555
H26_2 O7_2 1_555 1_555
O8_2 C31_2 1_555 1_555
O9_2 C30_2 1_555 1_555
O10 Ni2 1_555 1_555
H27 O10 1_555 1_555
H28 O10 1_555 1_555
O11_2 Ni2 1_555 1_555
O12_2 C30_2 1_555 1_555
C27_2 H29_2 1_555 1_555
C28_2 H30_2 1_555 1_555
C29_2 C27_2 1_555 1_555
H31_2 C29_2 1_555 1_555
C30_2 C28_2 1_555 1_555
C31_2 O11_2 1_555 1_555
C32_2 C28_2 1_555 1_555
H32_2 C32_2 1_555 1_555
Ni5 N5 1_555 1_555
N9 Ni2 1_555 1_555
O14_2 Ni2 1_555 1_555
C19 C20 1_555 1_555
C19 C21 1_555 1_555
C25 C26 1_555 1_555
C27_2 C31_2 1_555 1_555
C29_2 C32_2 1_555 1_555
H25_3 O7_3 1_555 1_555
H26_3 O7_3 1_555 1_555
O8_3 C31_3 1_555 1_555
C27_3 H29_3 1_555 1_555
C29_3 C27_3 1_555 1_555
H31_3 C29_3 1_555 1_555
C31_3 O11_3 1_555 1_555
C27_3 C31_3 1_555 1_555
O14_2 C30_3 1_555 1_555
O12_3 C30_3 1_555 1_555
C30_3 C28_3 1_555 1_555
C32_3 C28_3 1_555 1_555
H32_3 C32_3 1_555 1_555
C17_2 H17_2 1_555 1_555
N9 C17_2 1_555 1_555
C18_2 N9 1_555 1_555
H18_2 C18_2 1_555 1_555
C20_2 C18_2 1_555 1_555
H19_2 C20_2 1_555 1_555
C21_2 C17_2 1_555 1_555
C19_2 C20_2 1_555 1_555
C19_2 C21_2 1_555 1_555
N7_2 C24_2 1_555 1_555
C23_2 C22_2 1_555 1_555
C24_2 C22_2 1_555 1_555
H22_2 C24_2 1_555 1_555
C25_2 C23_2 1_555 1_555
H23_2 C25_2 1_555 1_555
C26_2 N7_2 1_555 1_555
H24_2 C26_2 1_555 1_555
Ni5 N7_2 1_555 1_555
O7_4 Ni5 1_555 1_555
H25_4 O7_4 1_555 1_555
H26_4 O7_4 1_555 1_555
O8_4 C31_4 1_555 1_555
O10_2 Ni5 1_555 1_555
H27_2 O10_2 1_555 1_555
H28_2 O10_2 1_555 1_555
O11_4 Ni5 1_555 1_555
C27_4 H29_4 1_555 1_555
C29_4 C27_4 1_555 1_555
H31_4 C29_4 1_555 1_555
C31_4 O11_4 1_555 1_555
C25_2 C26_2 1_555 1_555
C27_4 C31_4 1_555 1_555
O14 C30_4 1_555 1_555
O12_4 C30_4 1_555 1_555
C30_4 C28_4 1_555 1_555
C32_4 C28_4 1_555 1_555
H32_4 C32_4 1_555 1_555
C1 H1 1_555 1_555
N1 Ni1 1_555 1_555
O4 Ni1 1_555 1_555
H4 O4 1_555 1_555
H5 O4 1_555 1_555
N2 Ni1 1_555 1_555
N3_3 C5 1_555 1_555
C4 N1 1_555 1_555
H8 C4 1_555 1_555
C5 C6 1_555 1_555
C6 C4 1_555 1_555
H9 C6 1_555 1_555
C8 C1 1_555 1_555
H11_3 C8 1_555 1_555
C12 H13 1_555 1_555
C13 C12 1_555 1_555
C14 N2 1_555 1_555
H14 C14 1_555 1_555
N4_3 C13 1_555 1_555
C15 C13 1_555 1_555
H15 C15 1_555 1_555
C16 N2 1_555 1_555
H16 C16 1_555 1_555
C17_3 H17_3 1_555 1_555
N5_2 C17_3 1_555 1_555
N6 N3_3 1_555 1_555
C18_3 N5_2 1_555 1_555
H18_3 C18_3 1_555 1_555
C19_3 N6 1_555 1_555
C20_3 C18_3 1_555 1_555
H19_3 C20_3 1_555 1_555
C21_3 C17_3 1_555 1_555
H20 C21_3 1_555 1_555
N7_3 C24_3 1_555 1_555
C22_3 H21_3 1_555 1_555
C23_3 C22_3 1_555 1_555
C24_3 C22_3 1_555 1_555
H22_3 C24_3 1_555 1_555
N8 N4_3 1_555 1_555
C25_3 C23_3 1_555 1_555
H23_3 C25_3 1_555 1_555
C26_3 N7_3 1_555 1_555
H24_3 C26_3 1_555 1_555
Ni2_2 N7_3 1_555 1_555
O10_3 Ni2_2 1_555 1_555
H27_3 O10_3 1_555 1_555
H28_3 O10_3 1_555 1_555
Ni4 N5_2 1_555 1_555
N9_2 Ni2_2 1_555 1_555
C1 N1 1_555 1_555
C5 C8 1_555 1_555
C12 C14 1_555 1_555
C15 C16 1_555 1_555
C19_3 C20_3 1_555 1_555
C19_3 C21_3 1_555 1_555
C23_3 N8 1_555 1_555
C25_3 C26_3 1_555 1_555
N7_4 C24_4 1_555 1_555
C23_4 C22_4 1_555 1_555
C24_4 C22_4 1_555 1_555
H22_4 C24_4 1_555 1_555
C25_4 C23_4 1_555 1_555
H23_4 C25_4 1_555 1_555
C26_4 N7_4 1_555 1_555
H24_4 C26_4 1_555 1_555
Ni4 N7_4 1_555 1_555
O10_4 Ni4 1_555 1_555
H27_4 O10_4 1_555 1_555
H28_4 O10_4 1_555 1_555
C25_4 C26_4 1_555 1_555
C1_2 H1_2 1_555 1_555
N1_2 Ni3 1_555 1_555
O4_2 Ni3 1_555 1_555
H4_2 O4_2 1_555 1_555
H5_2 O4_2 1_555 1_555
N2_2 Ni3 1_555 1_555
N3_4 C5_2 1_555 1_555
C4_2 N1_2 1_555 1_555
H8_2 C4_2 1_555 1_555
C5_2 C6_2 1_555 1_555
C6_2 C4_2 1_555 1_555
H9_2 C6_2 1_555 1_555
C8_2 C1_2 1_555 1_555
H11_4 C8_2 1_555 1_555
C13_2 C12_2 1_555 1_555
C14_2 N2_2 1_555 1_555
H14_2 C14_2 1_555 1_555
C15_2 C13_2 1_555 1_555
H15_2 C15_2 1_555 1_555
C16_2 N2_2 1_555 1_555
H16_2 C16_2 1_555 1_555
C17_4 H17_4 1_555 1_555
N9_2 C17_4 1_555 1_555
N6_2 N3_4 1_555 1_555
C18_4 N9_2 1_555 1_555
H18_4 C18_4 1_555 1_555
C19_4 N6_2 1_555 1_555
C20_4 C18_4 1_555 1_555
H19_4 C20_4 1_555 1_555
C21_4 C17_4 1_555 1_555
H20_2 C21_4 1_555 1_555
C1_2 N1_2 1_555 1_555
C5_2 C8_2 1_555 1_555
C12_2 C14_2 1_555 1_555
C15_2 C16_2 1_555 1_555
C19_4 C20_4 1_555 1_555
C19_4 C21_4 1_555 1_555
O1 H2 1_555 1_555
H3 O1 1_555 1_555
O2 C10 1_555 1_555
O3 C9 1_555 1_555
O6 C9 1_555 1_555
C2 H6 1_555 1_555
C3 H7 1_555 1_555
C7 C2 1_555 1_555
H10 C7 1_555 1_555
C9 C3 1_555 1_555
C10 O5 1_555 1_555
C11 C3 1_555 1_555
H12 C11 1_555 1_555
Ni3_2 O3 1_555 1_555
C2 C10 1_555 1_555
C7 C11 1_555 1_555
Ni1_2 O1_2 1_555 1_555
C1_3 H1_3 1_555 1_555
O1_2 H2_2 1_555 1_555
H3_2 O1_2 1_555 1_555
N1_3 Ni1_2 1_555 1_555
O2_2 C10_2 1_555 1_555
O3_2 C9_2 1_555 1_555
O4_3 Ni1_2 1_555 1_555
H4_3 O4_3 1_555 1_555
H5_3 O4_3 1_555 1_555
O5_2 Ni1_2 1_555 1_555
O6_2 C9_2 1_555 1_555
N2_3 Ni1_2 1_555 1_555
C2_2 H6_2 1_555 1_555
C3_2 H7_2 1_555 1_555
C4_3 N1_3 1_555 1_555
H8_3 C4_3 1_555 1_555
C5_3 C6_3 1_555 1_555
C6_3 C4_3 1_555 1_555
H9_3 C6_3 1_555 1_555
C7_2 C2_2 1_555 1_555
H10_2 C7_2 1_555 1_555
C8_3 C1_3 1_555 1_555
C9_2 C3_2 1_555 1_555
C10_2 O5_2 1_555 1_555
C11_2 C3_2 1_555 1_555
H12_2 C11_2 1_555 1_555
C12_3 H13_2 1_555 1_555
C13_3 C12_3 1_555 1_555
C14_3 N2_3 1_555 1_555
H14_3 C14_3 1_555 1_555
C15_3 C13_3 1_555 1_555
H15_3 C15_3 1_555 1_555
C16_3 N2_3 1_555 1_555
H16_3 C16_3 1_555 1_555
O13_2 Ni1_2 1_555 1_555
C1_3 N1_3 1_555 1_555
C2_2 C10_2 1_555 1_555
C5_3 C8_3 1_555 1_555
C7_2 C11_2 1_555 1_555
C12_3 C14_3 1_555 1_555
C15_3 C16_3 1_555 1_555
O13_2 C9_3 1_555 1_555
O6_3 C9_3 1_555 1_555
C9_3 C3_3 1_555 1_555
C11_3 C3_3 1_555 1_555
H12_3 C11_3 1_555 1_555
O1_3 H2_3 1_555 1_555
H3_3 O1_3 1_555 1_555
O2_3 C10_3 1_555 1_555
C2_3 H6_3 1_555 1_555
C7_3 C2_3 1_555 1_555
H10_3 C7_3 1_555 1_555
C10_3 O5_3 1_555 1_555
C2_3 C10_3 1_555 1_555
O13 C9_4 1_555 1_555
O6_4 C9_4 1_555 1_555
C9_4 C3_4 1_555 1_555
C11_4 C3_4 1_555 1_555
H12_4 C11_4 1_555 1_555
Ni3_2 O1_4 1_555 1_555
C1_4 H1_4 1_555 1_555
O1_4 H2_4 1_555 1_555
H3_4 O1_4 1_555 1_555
N1_4 Ni3_2 1_555 1_555
O2_4 C10_4 1_555 1_555
O4_4 Ni3_2 1_555 1_555
H4_4 O4_4 1_555 1_555
H5_4 O4_4 1_555 1_555
O5_4 Ni3_2 1_555 1_555
N2_4 Ni3_2 1_555 1_555
C2_4 H6_4 1_555 1_555
C4_4 N1_4 1_555 1_555
H8_4 C4_4 1_555 1_555
C5_4 C6_4 1_555 1_555
C6_4 C4_4 1_555 1_555
H9_4 C6_4 1_555 1_555
C7_4 C2_4 1_555 1_555
H10_4 C7_4 1_555 1_555
C8_4 C1_4 1_555 1_555
C10_4 O5_4 1_555 1_555
C13_4 C12_4 1_555 1_555
C14_4 N2_4 1_555 1_555
H14_4 C14_4 1_555 1_555
C15_4 C13_4 1_555 1_555
H15_4 C15_4 1_555 1_555
C16_4 N2_4 1_555 1_555
H16_4 C16_4 1_555 1_555
C1_4 N1_4 1_555 1_555
C2_4 C10_4 1_555 1_555
C5_4 C8_4 1_555 1_555
C12_4 C14_4 1_555 1_555
C15_4 C16_4 1_555 1_555

#END
