
###############################################################################
#
# This file contains modified crystal structure data generated from the
# MOF subset of the Cambridge Structural Database (CSD) v543 
# hosted by the Cambridge Crystallographic Data Centre (CCDC).
#
# This work is licensed under the Creative Commons
# Attribution-NonCommercial-ShareAlike 4.0 International License.
# To view a copy of this license, visit
# http://creativecommons.org/licenses/by-nc-sa/4.0/
# or send a letter to
# Creative Commons, PO Box 1866, Mountain View, CA 94042, USA.
#
# CIF created using the CSD Python API on 29 September 2022
# The structure has been converted into the P1 space group
# The structure has a 3D framework
# The original CSD entry EMAMOW is in the monoclinic crystal system
# The framework has been calculated to contain at least 10.0% void space
# The void calculation uses a probe of radius 1.32A, grid spacing 0.4
#
###############################################################################

data_EMAMOW
_chemical_formula_moiety         '(C144 H144 N16 Ni8 O48)n'
_symmetry_cell_setting           triclinic
_symmetry_space_group_name_H-M   'P 1'
_symmetry_Int_Tables_number      1
_space_group_name_Hall           'P 1'
loop_
_symmetry_equiv_pos_site_id
_symmetry_equiv_pos_as_xyz
1 x,y,z
_cell_length_a                   37.060(5)
_cell_length_b                   13.328(5)
_cell_length_c                   9.373(5)
_cell_angle_alpha                90
_cell_angle_beta                 102.153(5)
_cell_angle_gamma                90
_cell_volume                     4525.9
loop_
_atom_site_label
_atom_site_type_symbol
_atom_site_fract_x
_atom_site_fract_y
_atom_site_fract_z
O10 O 0.33349(10) 0.1624(3) 0.7158(4)
O12 O 0.35954(12) 0.1367(4) 0.9491(5)
C31 C 0.27384(15) 0.0429(4) 0.7464(7)
H33 H 0.2742 0.0725 0.6568
C32 C 0.30346(16) 0.0547(4) 0.8514(7)
H34 H 0.3048 0.0197 0.9381
H36 H 0.2103 0.0194 0.5708
C35 C 0.33476(15) 0.1215(4) 0.8377(6)
Ni5 Ni 0.36212(2) 0.28353(5) 0.66563(7)
N4 N 0.09674(12) 0.6914(4) 0.8881(6)
C25 C 0.03540(18) 0.6613(7) 0.9150(9)
H24 H 0.0117 0.6863 0.9095
C26 C 0.06261(17) 0.7223(5) 0.8797(8)
H25 H 0.0565 0.7876 0.8490
C27 C 0.0437(2) 0.5621(6) 0.9588(10)
C29 C 0.0786(2) 0.5328(6) 0.9661(13)
H27 H 0.0857 0.4680 0.9962
C30 C 0.10397(19) 0.5974(6) 0.9297(10)
H28 H 0.1278 0.5737 0.9345
Ni2 Ni 0.13788(2) 0.78353(5) 0.83437(7)
O7 O 0.10616(10) 0.7942(3) 0.6229(4)
H29 H 0.1098 0.7490 0.5517
H30 H 0.0884 0.8443 0.5998
O8 O 0.17928(10) 0.8714(3) 0.7801(4)
O9 O 0.11266(10) 0.9164(3) 0.8888(5)
H31 H 0.1191 0.9422 0.9830
H32 H 0.0951 0.9491 0.8187
O11 O 0.14797(11) 0.9437(3) 0.5751(5)
C33 C 0.24112(15) 0.9882(4) 0.7583(7)
H35 H 0.2416 0.9526 0.8439
C34 C 0.21072(16) 0.9850(4) 0.6574(7)
C36 C 0.17683(15) 0.9296(4) 0.6728(6)
O14 O 0.16651(10) 0.6624(3) 0.7842(4)
H12 H 0.2192 0.2367 0.0557
N3 N 0.33158(12) 0.2757(3) 0.4549(5)
C19 C 0.27385(15) 0.2455(4) 0.2917(6)
H19 H 0.2490 0.2294 0.2796
C20 C 0.29562(14) 0.2529(4) 0.4284(6)
H20 H 0.2848 0.2413 0.5078
C21 C 0.32650(16) 0.2850(5) 0.1978(7)
H21 H 0.3382 0.2955 0.1203
C22 C 0.26786(15) 0.2567(4) 0.0188(6)
C23 C 0.28930(15) 0.2622(4) 0.1705(6)
C24 C 0.34620(15) 0.2921(5) 0.3378(6)
H23 H 0.3710 0.3092 0.3527
H20_2 H 0.2152 0.7413 0.9922
C16 C 0.5169(2) 0.0087(7) 0.5012(12)
H16 H 0.5257 0.0720 0.5325
H17 H 0.5857 0.0320 0.4962
N4_2 N 0.40326(12) 0.1914(4) 0.6119(6)
C25_2 C 0.46460(18) 0.1613(7) 0.5850(9)
H24_2 H 0.4883 0.1863 0.5905
C26_2 C 0.43739(17) 0.2223(5) 0.6203(8)
H25_2 H 0.4435 0.2876 0.6510
C27_2 C 0.4563(2) 0.0621(6) 0.5412(10)
C29_2 C 0.4214(2) 0.0328(6) 0.5339(13)
C30_2 C 0.39603(19) 0.0974(6) 0.5703(10)
H28_2 H 0.3722 0.0737 0.5655
O7_2 O 0.39384(10) 0.2942(3) 0.8771(4)
H29_2 H 0.3902 0.2490 0.9483
H30_2 H 0.4116 0.3443 0.9002
O8_2 O 0.32072(10) 0.3714(3) 0.7199(4)
O9_2 O 0.38734(10) 0.4164(3) 0.6112(5)
H31_2 H 0.3809 0.4422 0.5170
H32_2 H 0.4049 0.4491 0.6813
O11_2 O 0.35203(11) 0.4437(3) 0.9249(5)
O12_2 O 0.14046(12) 0.6367(4) 0.5509(5)
C31_2 C 0.22616(15) 0.5429(4) 0.7536(7)
H33_2 H 0.2258 0.5725 0.8432
C32_2 C 0.19654(16) 0.5547(4) 0.6486(7)
H34_2 H 0.1952 0.5197 0.5619
C33_2 C 0.25888(15) 0.4882(4) 0.7417(7)
H35_2 H 0.2584 0.4526 0.6561
C34_2 C 0.28928(16) 0.4850(4) 0.8426(7)
H36_2 H 0.2897 0.5194 0.9292
C35_2 C 0.16524(15) 0.6215(4) 0.6623(6)
C36_2 C 0.32317(15) 0.4296(4) 0.8272(6)
C28 C 0.0169(2) 0.4913(7) 0.0012(12)
H26 H 0.0257 0.4280 0.0325
N5 N 0.16842(12) 0.7757(3) 0.0451(5)
N1 N 0.33158(12) 0.7243(3) 0.9549(5)
C1 C 0.27385(15) 0.7545(4) 0.7917(6)
H5 H 0.2490 0.7706 0.7796
C2 C 0.29562(14) 0.7471(4) 0.9284(6)
C5 C 0.32650(16) 0.7150(5) 0.6978(7)
H9 H 0.3382 0.7045 0.6203
C8 C 0.26786(15) 0.7433(4) 0.5188(6)
H12_2 H 0.2808 0.7367 0.4443
C9 C 0.28930(15) 0.7378(4) 0.6705(6)
C12 C 0.34620(15) 0.7079(5) 0.8378(6)
H13 H 0.3710 0.6908 0.8527
C19_2 C 0.22615(15) 0.7455(4) 0.2083(6)
H19_2 H 0.2510 0.7294 0.2204
C20_2 C 0.20438(14) 0.7529(4) 0.0716(6)
C21_2 C 0.17350(16) 0.7850(5) 0.3022(7)
H21_2 H 0.1618 0.7955 0.3797
C22_2 C 0.23214(15) 0.7567(4) 0.4812(6)
H22 H 0.2192 0.7633 0.5557
C23_2 C 0.21070(15) 0.7622(4) 0.3295(6)
C24_2 C 0.15380(15) 0.7921(5) 0.1622(6)
H23_2 H 0.1290 0.8092 0.1473
H27_2 H 0.5857 0.9680 0.9962
Ni1 Ni 0.86212(2) 0.21647(5) 0.16563(7)
O1 O 0.89384(10) 0.2058(3) 0.3771(4)
H1 H 0.8902 0.2510 0.4483
H2 H 0.9116 0.1557 0.4002
O2 O 0.82072(10) 0.1286(3) 0.2199(4)
O3 O 0.88734(10) 0.0836(3) 0.1112(5)
H3 H 0.8809 0.0578 0.0170
H4 H 0.9049 0.0509 0.1813
O5 O 0.85203(11) 0.0563(3) 0.4249(5)
N2 N 0.90326(12) 0.3086(4) 0.1119(6)
H6 H 0.7848 0.2587 0.0078
C6 C 0.75888(15) 0.0118(4) 0.2417(7)
H10 H 0.7584 0.0474 0.1561
C7 C 0.78928(16) 0.0150(4) 0.3426(7)
C11 C 0.82317(15) 0.0704(4) 0.3272(6)
C13 C 0.96460(18) 0.3387(7) 0.0850(9)
H14 H 0.9883 0.3137 0.0905
C14 C 0.93739(17) 0.2777(5) 0.1203(8)
H15 H 0.9435 0.2124 0.1510
C15 C 0.9563(2) 0.4379(6) 0.0412(10)
C17 C 0.9214(2) 0.4672(6) 0.0339(13)
H17_2 H 0.9143 0.5320 0.0038
C18 C 0.89603(19) 0.4026(6) 0.0703(10)
H18 H 0.8722 0.4263 0.0655
O13 O 0.83349(10) 0.3376(3) 0.2158(4)
O4 O 0.66651(10) 0.8376(3) 0.2842(4)
O6 O 0.64046(12) 0.8633(4) 0.0509(5)
C3 C 0.72616(15) 0.9571(4) 0.2536(7)
H7 H 0.7258 0.9275 0.3432
C4 C 0.69654(16) 0.9453(4) 0.1486(7)
H8 H 0.6952 0.9803 0.0619
H11 H 0.7897 0.9806 0.4292
C10 C 0.66524(15) 0.8785(4) 0.1623(6)
Ni3 Ni 0.63788(2) 0.71647(5) 0.33437(7)
O1_2 O 0.60616(10) 0.7058(3) 0.1229(4)
H1_2 H 0.6098 0.7510 0.0517
H2_2 H 0.5884 0.6557 0.0998
O2_2 O 0.67928(10) 0.6286(3) 0.2801(4)
O3_2 O 0.61266(10) 0.5836(3) 0.3888(5)
H3_2 H 0.6191 0.5578 0.4830
H4_2 H 0.5951 0.5509 0.3187
O5_2 O 0.64797(11) 0.5563(3) 0.0751(5)
N1_2 N 0.66842(12) 0.7243(3) 0.5451(5)
O6_2 O 0.85954(12) 0.3633(4) 0.4491(5)
N2_2 N 0.59674(12) 0.8086(4) 0.3881(6)
C1_2 C 0.72615(15) 0.7545(4) 0.7083(6)
H5_2 H 0.7510 0.7706 0.7204
C2_2 C 0.70438(14) 0.7471(4) 0.5716(6)
H6_2 H 0.7152 0.7587 0.4922
C3_2 C 0.77384(15) 0.4571(4) 0.2464(7)
H7_2 H 0.7742 0.4275 0.1568
C4_2 C 0.80346(16) 0.4453(4) 0.3514(7)
H8_2 H 0.8048 0.4803 0.4381
C5_2 C 0.67350(16) 0.7150(5) 0.8022(7)
H9_2 H 0.6618 0.7045 0.8797
C6_2 C 0.74112(15) 0.5118(4) 0.2583(7)
H10_2 H 0.7416 0.5474 0.3439
C7_2 C 0.71072(16) 0.5150(4) 0.1574(7)
H11_2 H 0.7103 0.4806 0.0708
C8_2 C 0.73214(15) 0.7433(4) 0.9812(6)
C9_2 C 0.71070(15) 0.7378(4) 0.8295(6)
C10_2 C 0.83476(15) 0.3785(4) 0.3377(6)
C11_2 C 0.67683(15) 0.5704(4) 0.1728(6)
C12_2 C 0.65380(15) 0.7079(5) 0.6622(6)
H13_2 H 0.6290 0.6908 0.6473
C13_2 C 0.53540(18) 0.8387(7) 0.4150(9)
H14_2 H 0.5117 0.8137 0.4095
C14_2 C 0.56261(17) 0.7777(5) 0.3797(8)
H15_2 H 0.5565 0.7124 0.3490
C15_2 C 0.5437(2) 0.9379(6) 0.4588(10)
C17_2 C 0.5786(2) 0.9672(6) 0.4661(13)
C18_2 C 0.60397(19) 0.9026(6) 0.4297(10)
H18_2 H 0.6278 0.9263 0.4345
H22_2 H 0.7808 0.7633 0.9443
C28_2 C 0.4831(2) 0.9913(7) 0.4988(12)
H26_2 H 0.4743 0.9280 0.4675
H27_3 H 0.4143 0.9680 0.5038
N1_3 N 0.83158(12) 0.2243(3) 0.9549(5)
C1_3 C 0.77385(15) 0.2545(4) 0.7917(6)
H5_3 H 0.7490 0.2706 0.7796
C2_3 C 0.79562(14) 0.2471(4) 0.9284(6)
C5_3 C 0.82650(16) 0.2150(5) 0.6978(7)
H9_3 H 0.8382 0.2045 0.6203
C8_3 C 0.76786(15) 0.2433(4) 0.5188(6)
H12_3 H 0.7808 0.2367 0.4443
C9_3 C 0.78930(15) 0.2378(4) 0.6705(6)
C12_3 C 0.84620(15) 0.2079(5) 0.8378(6)
H13_3 H 0.8710 0.1908 0.8527
C16_2 C 0.9831(2) 0.5087(7) 0.9988(12)
H16_2 H 0.9743 0.5720 0.9675
N3_2 N 0.66842(12) 0.2757(3) 0.0451(5)
C19_3 C 0.72615(15) 0.2455(4) 0.2083(6)
H19_3 H 0.7510 0.2294 0.2204
C20_3 C 0.70438(14) 0.2529(4) 0.0716(6)
C21_3 C 0.67350(16) 0.2850(5) 0.3022(7)
H21_3 H 0.6618 0.2955 0.3797
C22_3 C 0.73214(15) 0.2567(4) 0.4812(6)
H22_3 H 0.7192 0.2633 0.5557
C23_3 C 0.71070(15) 0.2622(4) 0.3295(6)
C24_3 C 0.65380(15) 0.2921(5) 0.1622(6)
H23_3 H 0.6290 0.3092 0.1473
H17_3 H 0.4143 0.0320 0.0038
H20_3 H 0.7152 0.2413 0.9922
Ni4 Ni 0.63788(2) 0.28353(5) 0.83437(7)
O10_2 O 0.66651(10) 0.1624(3) 0.7842(4)
O12_3 O 0.64046(12) 0.1367(4) 0.5509(5)
C31_3 C 0.72616(15) 0.0429(4) 0.7536(7)
H33_3 H 0.7258 0.0725 0.8432
C32_3 C 0.69654(16) 0.0547(4) 0.6486(7)
H34_3 H 0.6952 0.0197 0.5619
H36_3 H 0.7897 0.0194 0.9292
C35_3 C 0.66524(15) 0.1215(4) 0.6623(6)
N4_3 N 0.90326(12) 0.6914(4) 0.6119(6)
C25_3 C 0.96460(18) 0.6613(7) 0.5850(9)
H24_3 H 0.9883 0.6863 0.5905
C26_3 C 0.93739(17) 0.7223(5) 0.6203(8)
H25_3 H 0.9435 0.7876 0.6510
C27_3 C 0.9563(2) 0.5621(6) 0.5412(10)
C28_3 C 0.9831(2) 0.4913(7) 0.4988(12)
H26_3 H 0.9743 0.4280 0.4675
C29_3 C 0.9214(2) 0.5328(6) 0.5339(13)
H27_4 H 0.9143 0.4680 0.5038
C30_3 C 0.89603(19) 0.5974(6) 0.5703(10)
H28_3 H 0.8722 0.5737 0.5655
Ni2_2 Ni 0.86212(2) 0.78353(5) 0.66563(7)
O7_3 O 0.89384(10) 0.7942(3) 0.8771(4)
H29_3 H 0.8902 0.7490 0.9483
H30_3 H 0.9116 0.8443 0.9002
O8_3 O 0.82072(10) 0.8714(3) 0.7199(4)
O9_3 O 0.88734(10) 0.9164(3) 0.6112(5)
H31_3 H 0.8809 0.9422 0.5170
H32_3 H 0.9049 0.9491 0.6813
O11_3 O 0.85203(11) 0.9437(3) 0.9249(5)
C33_3 C 0.75888(15) 0.9882(4) 0.7417(7)
H35_3 H 0.7584 0.9526 0.6561
C34_3 C 0.78928(16) 0.9850(4) 0.8426(7)
C36_3 C 0.82317(15) 0.9296(4) 0.8272(6)
O14_2 O 0.83349(10) 0.6624(3) 0.7158(4)
N5_2 N 0.83158(12) 0.7757(3) 0.4549(5)
C16_3 C 0.4831(2) 0.0087(7) 0.9988(12)
H16_3 H 0.4743 0.0720 0.9675
N4_4 N 0.59674(12) 0.1914(4) 0.8881(6)
C25_4 C 0.53540(18) 0.1613(7) 0.9150(9)
H24_4 H 0.5117 0.1863 0.9095
C26_4 C 0.56261(17) 0.2223(5) 0.8797(8)
H25_4 H 0.5565 0.2876 0.8490
C27_4 C 0.5437(2) 0.0621(6) 0.9588(10)
C29_4 C 0.5786(2) 0.0328(6) 0.9661(13)
C30_4 C 0.60397(19) 0.0974(6) 0.9297(10)
H28_4 H 0.6278 0.0737 0.9345
O7_4 O 0.60616(10) 0.2942(3) 0.6229(4)
H29_4 H 0.6098 0.2490 0.5517
H30_4 H 0.5884 0.3443 0.5998
O8_4 O 0.67928(10) 0.3714(3) 0.7801(4)
O9_4 O 0.61266(10) 0.4164(3) 0.8888(5)
H31_4 H 0.6191 0.4422 0.9830
H32_4 H 0.5951 0.4491 0.8187
O11_4 O 0.64797(11) 0.4437(3) 0.5751(5)
O12_4 O 0.85954(12) 0.6367(4) 0.9491(5)
C31_4 C 0.77384(15) 0.5429(4) 0.7464(7)
H33_4 H 0.7742 0.5725 0.6568
C32_4 C 0.80346(16) 0.5547(4) 0.8514(7)
H34_4 H 0.8048 0.5197 0.9381
C33_4 C 0.74112(15) 0.4882(4) 0.7583(7)
H35_4 H 0.7416 0.4526 0.8439
C34_4 C 0.71072(16) 0.4850(4) 0.6574(7)
H36_4 H 0.7103 0.5194 0.5708
C35_4 C 0.83476(15) 0.6215(4) 0.8377(6)
C36_4 C 0.67683(15) 0.4296(4) 0.6728(6)
H12_4 H 0.7192 0.7367 0.0557
C19_4 C 0.77385(15) 0.7455(4) 0.2917(6)
H19_4 H 0.7490 0.7294 0.2796
C20_4 C 0.79562(14) 0.7529(4) 0.4284(6)
H20_4 H 0.7848 0.7413 0.5078
C21_4 C 0.82650(16) 0.7850(5) 0.1978(7)
H21_4 H 0.8382 0.7955 0.1203
C22_4 C 0.76786(15) 0.7567(4) 0.0188(6)
C23_4 C 0.78930(15) 0.7622(4) 0.1705(6)
C24_4 C 0.84620(15) 0.7921(5) 0.3378(6)
H23_4 H 0.8710 0.8092 0.3527
Ni1_2 Ni 0.13788(2) 0.21647(5) 0.33437(7)
O1_3 O 0.10616(10) 0.2058(3) 0.1229(4)
H1_3 H 0.1098 0.2510 0.0517
H2_3 H 0.0884 0.1557 0.0998
O2_3 O 0.17928(10) 0.1286(3) 0.2801(4)
O3_3 O 0.11266(10) 0.0836(3) 0.3888(5)
H3_3 H 0.1191 0.0578 0.4830
H4_3 H 0.0951 0.0509 0.3187
O5_3 O 0.14797(11) 0.0563(3) 0.0751(5)
N1_4 N 0.16842(12) 0.2243(3) 0.5451(5)
N2_3 N 0.09674(12) 0.3086(4) 0.3881(6)
C1_4 C 0.22615(15) 0.2545(4) 0.7083(6)
H5_4 H 0.2510 0.2706 0.7204
C2_4 C 0.20438(14) 0.2471(4) 0.5716(6)
H6_3 H 0.2152 0.2587 0.4922
C5_4 C 0.17350(16) 0.2150(5) 0.8022(7)
H9_4 H 0.1618 0.2045 0.8797
C6_3 C 0.24112(15) 0.0118(4) 0.2583(7)
H10_3 H 0.2416 0.0474 0.3439
C7_3 C 0.21072(16) 0.0150(4) 0.1574(7)
C8_4 C 0.23214(15) 0.2433(4) 0.9812(6)
C9_4 C 0.21070(15) 0.2378(4) 0.8295(6)
C11_3 C 0.17683(15) 0.0704(4) 0.1728(6)
C12_4 C 0.15380(15) 0.2079(5) 0.6622(6)
H13_4 H 0.1290 0.1908 0.6473
C13_3 C 0.03540(18) 0.3387(7) 0.4150(9)
H14_3 H 0.0117 0.3137 0.4095
C14_3 C 0.06261(17) 0.2777(5) 0.3797(8)
H15_3 H 0.0565 0.2124 0.3490
C15_3 C 0.0437(2) 0.4379(6) 0.4588(10)
C16_4 C 0.0169(2) 0.5087(7) 0.5012(12)
H16_4 H 0.0257 0.5720 0.5325
C17_3 C 0.0786(2) 0.4672(6) 0.4661(13)
H17_4 H 0.0857 0.5320 0.4962
C18_3 C 0.10397(19) 0.4026(6) 0.4297(10)
H18_3 H 0.1278 0.4263 0.4345
H22_4 H 0.2808 0.2633 0.9443
O13_2 O 0.16651(10) 0.3376(3) 0.2842(4)
O4_2 O 0.33349(10) 0.8376(3) 0.2158(4)
O6_3 O 0.35954(12) 0.8633(4) 0.4491(5)
C3_3 C 0.27384(15) 0.9571(4) 0.2464(7)
H7_3 H 0.2742 0.9275 0.1568
C4_3 C 0.30346(16) 0.9453(4) 0.3514(7)
H8_3 H 0.3048 0.9803 0.4381
H11_3 H 0.2103 0.9806 0.0708
C10_3 C 0.33476(15) 0.8785(4) 0.3377(6)
Ni3_2 Ni 0.36212(2) 0.71647(5) 0.16563(7)
O1_4 O 0.39384(10) 0.7058(3) 0.3771(4)
H1_4 H 0.3902 0.7510 0.4483
H2_4 H 0.4116 0.6557 0.4002
O2_4 O 0.32072(10) 0.6286(3) 0.2199(4)
O3_4 O 0.38734(10) 0.5836(3) 0.1112(5)
H3_4 H 0.3809 0.5578 0.0170
H4_4 H 0.4049 0.5509 0.1813
O5_4 O 0.35203(11) 0.5563(3) 0.4249(5)
O6_4 O 0.14046(12) 0.3633(4) 0.0509(5)
N2_4 N 0.40326(12) 0.8086(4) 0.1119(6)
H6_4 H 0.2848 0.7587 0.0078
C3_4 C 0.22616(15) 0.4571(4) 0.2536(7)
H7_4 H 0.2258 0.4275 0.3432
C4_4 C 0.19654(16) 0.4453(4) 0.1486(7)
H8_4 H 0.1952 0.4803 0.0619
C6_4 C 0.25888(15) 0.5118(4) 0.2417(7)
H10_4 H 0.2584 0.5474 0.1561
C7_4 C 0.28928(16) 0.5150(4) 0.3426(7)
H11_4 H 0.2897 0.4806 0.4292
C10_4 C 0.16524(15) 0.3785(4) 0.1623(6)
C11_4 C 0.32317(15) 0.5704(4) 0.3272(6)
C13_4 C 0.46460(18) 0.8387(7) 0.0850(9)
H14_4 H 0.4883 0.8137 0.0905
C14_4 C 0.43739(17) 0.7777(5) 0.1203(8)
H15_4 H 0.4435 0.7124 0.1510
C15_4 C 0.4563(2) 0.9379(6) 0.0412(10)
C17_4 C 0.4214(2) 0.9672(6) 0.0339(13)
C18_4 C 0.39603(19) 0.9026(6) 0.0703(10)
H18_4 H 0.3722 0.9263 0.0655
C28_4 C 0.5169(2) 0.9913(7) 0.0012(12)
H26_4 H 0.5257 0.9280 0.0325
loop_
_geom_bond_atom_site_label_1
_geom_bond_atom_site_label_2
_geom_bond_site_symmetry_1
_geom_bond_site_symmetry_2
O10 C35 1_555 1_555
O12 C35 1_555 1_555
C31 H33 1_555 1_555
C32 C31 1_555 1_555
H34 C32 1_555 1_555
C35 C32 1_555 1_555
Ni5 O10 1_555 1_555
N4 C26 1_555 1_555
C25 H24 1_555 1_555
C26 C25 1_555 1_555
H25 C26 1_555 1_555
C27 C25 1_555 1_555
C29 C27 1_555 1_555
H27 C29 1_555 1_555
C30 N4 1_555 1_555
H28 C30 1_555 1_555
Ni2 N4 1_555 1_555
O7 Ni2 1_555 1_555
H29 O7 1_555 1_555
H30 O7 1_555 1_555
O8 Ni2 1_555 1_555
O9 Ni2 1_555 1_555
H31 O9 1_555 1_555
H32 O9 1_555 1_555
O11 C36 1_555 1_555
H35 C33 1_555 1_555
C34 C33 1_555 1_555
C36 O8 1_555 1_555
O14 Ni2 1_555 1_555
C29 C30 1_555 1_555
C34 C36 1_555 1_555
N3 C20 1_555 1_555
C19 H19 1_555 1_555
C20 C19 1_555 1_555
H20 C20 1_555 1_555
C21 H21 1_555 1_555
C23 C19 1_555 1_555
C24 N3 1_555 1_555
H23 C24 1_555 1_555
Ni5 N3 1_555 1_555
C21 C23 1_555 1_555
C21 C24 1_555 1_555
C22 C23 1_555 1_555
H16 C16 1_555 1_555
N4_2 C26_2 1_555 1_555
C25_2 H24_2 1_555 1_555
C26_2 C25_2 1_555 1_555
H25_2 C26_2 1_555 1_555
C27_2 C25_2 1_555 1_555
C29_2 C27_2 1_555 1_555
C30_2 N4_2 1_555 1_555
H28_2 C30_2 1_555 1_555
Ni5 N4_2 1_555 1_555
O7_2 Ni5 1_555 1_555
H29_2 O7_2 1_555 1_555
H30_2 O7_2 1_555 1_555
O8_2 Ni5 1_555 1_555
O9_2 Ni5 1_555 1_555
H31_2 O9_2 1_555 1_555
H32_2 O9_2 1_555 1_555
O14 C35_2 1_555 1_555
O11_2 C36_2 1_555 1_555
O12_2 C35_2 1_555 1_555
C31_2 H33_2 1_555 1_555
C32_2 C31_2 1_555 1_555
H34_2 C32_2 1_555 1_555
C33_2 C31_2 1_555 1_555
H35_2 C33_2 1_555 1_555
C34_2 C33_2 1_555 1_555
H36_2 C34_2 1_555 1_555
C35_2 C32_2 1_555 1_555
C36_2 O8_2 1_555 1_555
C29_2 C30_2 1_555 1_555
C34_2 C36_2 1_555 1_555
H26 C28 1_555 1_555
C1 H5 1_555 1_555
C2 N1 1_555 1_555
C5 H9 1_555 1_555
C8 H12_2 1_555 1_555
C9 C1 1_555 1_555
C12 N1 1_555 1_555
H13 C12 1_555 1_555
N5 C20_2 1_555 1_555
C19_2 H19_2 1_555 1_555
C20_2 C19_2 1_555 1_555
C21_2 H21_2 1_555 1_555
C22_2 C8 1_555 1_555
H22 C22_2 1_555 1_555
C23_2 C19_2 1_555 1_555
C24_2 N5 1_555 1_555
H23_2 C24_2 1_555 1_555
C1 C2 1_555 1_555
C5 C9 1_555 1_555
C5 C12 1_555 1_555
C8 C9 1_555 1_555
C21_2 C23_2 1_555 1_555
C21_2 C24_2 1_555 1_555
C22_2 C23_2 1_555 1_555
Ni1 O1 1_555 1_555
O1 H1 1_555 1_555
H2 O1 1_555 1_555
O2 Ni1 1_555 1_555
O3 Ni1 1_555 1_555
H3 O3 1_555 1_555
H4 O3 1_555 1_555
O5 C11 1_555 1_555
N2 Ni1 1_555 1_555
H10 C6 1_555 1_555
C7 C6 1_555 1_555
C11 O2 1_555 1_555
C13 H14 1_555 1_555
C14 N2 1_555 1_555
H15 C14 1_555 1_555
C15 C13 1_555 1_555
C17 C15 1_555 1_555
H17_2 C17 1_555 1_555
C18 N2 1_555 1_555
H18 C18 1_555 1_555
O13 Ni1 1_555 1_555
C7 C11 1_555 1_555
C13 C14 1_555 1_555
C17 C18 1_555 1_555
O4 C10 1_555 1_555
O6 C10 1_555 1_555
C3 H7 1_555 1_555
C4 C3 1_555 1_555
H8 C4 1_555 1_555
C10 C4 1_555 1_555
Ni3 O4 1_555 1_555
Ni3 O1_2 1_555 1_555
O1_2 H1_2 1_555 1_555
H2_2 O1_2 1_555 1_555
O2_2 Ni3 1_555 1_555
O3_2 Ni3 1_555 1_555
H3_2 O3_2 1_555 1_555
H4_2 O3_2 1_555 1_555
O13 C10_2 1_555 1_555
O5_2 C11_2 1_555 1_555
N1_2 Ni3 1_555 1_555
O6_2 C10_2 1_555 1_555
N2_2 Ni3 1_555 1_555
C1_2 H5_2 1_555 1_555
C2_2 N1_2 1_555 1_555
H6_2 C2_2 1_555 1_555
C3_2 H7_2 1_555 1_555
C4_2 C3_2 1_555 1_555
H8_2 C4_2 1_555 1_555
C5_2 H9_2 1_555 1_555
C6_2 C3_2 1_555 1_555
H10_2 C6_2 1_555 1_555
C7_2 C6_2 1_555 1_555
H11_2 C7_2 1_555 1_555
C9_2 C1_2 1_555 1_555
C10_2 C4_2 1_555 1_555
C11_2 O2_2 1_555 1_555
C12_2 N1_2 1_555 1_555
H13_2 C12_2 1_555 1_555
C13_2 H14_2 1_555 1_555
C14_2 N2_2 1_555 1_555
H15_2 C14_2 1_555 1_555
C15_2 C13_2 1_555 1_555
C17_2 C15_2 1_555 1_555
C18_2 N2_2 1_555 1_555
H18_2 C18_2 1_555 1_555
H26_2 C28_2 1_555 1_555
C1_2 C2_2 1_555 1_555
C5_2 C9_2 1_555 1_555
C5_2 C12_2 1_555 1_555
C7_2 C11_2 1_555 1_555
C8_2 C9_2 1_555 1_555
C13_2 C14_2 1_555 1_555
C17_2 C18_2 1_555 1_555
C1_3 H5_3 1_555 1_555
C2_3 N1_3 1_555 1_555
C5_3 H9_3 1_555 1_555
C8_3 H12_3 1_555 1_555
C9_3 C1_3 1_555 1_555
C12_3 N1_3 1_555 1_555
H13_3 C12_3 1_555 1_555
H16_2 C16_2 1_555 1_555
N3_2 C20_3 1_555 1_555
C19_3 H19_3 1_555 1_555
C20_3 C19_3 1_555 1_555
C21_3 H21_3 1_555 1_555
C22_3 C8_3 1_555 1_555
H22_3 C22_3 1_555 1_555
C23_3 C19_3 1_555 1_555
C24_3 N3_2 1_555 1_555
H23_3 C24_3 1_555 1_555
C1_3 C2_3 1_555 1_555
C5_3 C9_3 1_555 1_555
C5_3 C12_3 1_555 1_555
C8_3 C9_3 1_555 1_555
C21_3 C23_3 1_555 1_555
C21_3 C24_3 1_555 1_555
C22_3 C23_3 1_555 1_555
O10_2 C35_3 1_555 1_555
O12_3 C35_3 1_555 1_555
C31_3 H33_3 1_555 1_555
C32_3 C31_3 1_555 1_555
H34_3 C32_3 1_555 1_555
C35_3 C32_3 1_555 1_555
Ni4 O10_2 1_555 1_555
N4_3 C26_3 1_555 1_555
C25_3 H24_3 1_555 1_555
C26_3 C25_3 1_555 1_555
H25_3 C26_3 1_555 1_555
C27_3 C25_3 1_555 1_555
H26_3 C28_3 1_555 1_555
C29_3 C27_3 1_555 1_555
H27_4 C29_3 1_555 1_555
C30_3 N4_3 1_555 1_555
H28_3 C30_3 1_555 1_555
Ni2_2 N4_3 1_555 1_555
O7_3 Ni2_2 1_555 1_555
H29_3 O7_3 1_555 1_555
H30_3 O7_3 1_555 1_555
O8_3 Ni2_2 1_555 1_555
O9_3 Ni2_2 1_555 1_555
H31_3 O9_3 1_555 1_555
H32_3 O9_3 1_555 1_555
O11_3 C36_3 1_555 1_555
H35_3 C33_3 1_555 1_555
C34_3 C33_3 1_555 1_555
C36_3 O8_3 1_555 1_555
O14_2 Ni2_2 1_555 1_555
N5_2 Ni2_2 1_555 1_555
C27_3 C28_3 1_555 1_555
C29_3 C30_3 1_555 1_555
C34_3 C36_3 1_555 1_555
H16_3 C16_3 1_555 1_555
N4_4 C26_4 1_555 1_555
C25_4 H24_4 1_555 1_555
C26_4 C25_4 1_555 1_555
H25_4 C26_4 1_555 1_555
C27_4 C25_4 1_555 1_555
C29_4 C27_4 1_555 1_555
C30_4 N4_4 1_555 1_555
H28_4 C30_4 1_555 1_555
Ni4 N4_4 1_555 1_555
O7_4 Ni4 1_555 1_555
H29_4 O7_4 1_555 1_555
H30_4 O7_4 1_555 1_555
O8_4 Ni4 1_555 1_555
O9_4 Ni4 1_555 1_555
H31_4 O9_4 1_555 1_555
H32_4 O9_4 1_555 1_555
O14_2 C35_4 1_555 1_555
O11_4 C36_4 1_555 1_555
O12_4 C35_4 1_555 1_555
C31_4 H33_4 1_555 1_555
C32_4 C31_4 1_555 1_555
H34_4 C32_4 1_555 1_555
C33_4 C31_4 1_555 1_555
H35_4 C33_4 1_555 1_555
C34_4 C33_4 1_555 1_555
H36_4 C34_4 1_555 1_555
C35_4 C32_4 1_555 1_555
C36_4 O8_4 1_555 1_555
C29_4 C30_4 1_555 1_555
C34_4 C36_4 1_555 1_555
N5_2 C20_4 1_555 1_555
C19_4 H19_4 1_555 1_555
C20_4 C19_4 1_555 1_555
H20_4 C20_4 1_555 1_555
C21_4 H21_4 1_555 1_555
C23_4 C19_4 1_555 1_555
C24_4 N5_2 1_555 1_555
H23_4 C24_4 1_555 1_555
C21_4 C23_4 1_555 1_555
C21_4 C24_4 1_555 1_555
C22_4 C23_4 1_555 1_555
Ni1_2 O1_3 1_555 1_555
O1_3 H1_3 1_555 1_555
H2_3 O1_3 1_555 1_555
O2_3 Ni1_2 1_555 1_555
O3_3 Ni1_2 1_555 1_555
H3_3 O3_3 1_555 1_555
H4_3 O3_3 1_555 1_555
O5_3 C11_3 1_555 1_555
N1_4 Ni1_2 1_555 1_555
N2_3 Ni1_2 1_555 1_555
C1_4 H5_4 1_555 1_555
C2_4 N1_4 1_555 1_555
H6_3 C2_4 1_555 1_555
C5_4 H9_4 1_555 1_555
H10_3 C6_3 1_555 1_555
C7_3 C6_3 1_555 1_555
C9_4 C1_4 1_555 1_555
C11_3 O2_3 1_555 1_555
C12_4 N1_4 1_555 1_555
H13_4 C12_4 1_555 1_555
C13_3 H14_3 1_555 1_555
C14_3 N2_3 1_555 1_555
H15_3 C14_3 1_555 1_555
C15_3 C13_3 1_555 1_555
C16_4 C15_3 1_555 1_555
H16_4 C16_4 1_555 1_555
C17_3 C15_3 1_555 1_555
H17_4 C17_3 1_555 1_555
C18_3 N2_3 1_555 1_555
H18_3 C18_3 1_555 1_555
O13_2 Ni1_2 1_555 1_555
C1_4 C2_4 1_555 1_555
C5_4 C9_4 1_555 1_555
C5_4 C12_4 1_555 1_555
C7_3 C11_3 1_555 1_555
C8_4 C9_4 1_555 1_555
C13_3 C14_3 1_555 1_555
C17_3 C18_3 1_555 1_555
O4_2 C10_3 1_555 1_555
O6_3 C10_3 1_555 1_555
C3_3 H7_3 1_555 1_555
C4_3 C3_3 1_555 1_555
H8_3 C4_3 1_555 1_555
C10_3 C4_3 1_555 1_555
Ni3_2 O4_2 1_555 1_555
Ni3_2 O1_4 1_555 1_555
O1_4 H1_4 1_555 1_555
H2_4 O1_4 1_555 1_555
O2_4 Ni3_2 1_555 1_555
O3_4 Ni3_2 1_555 1_555
H3_4 O3_4 1_555 1_555
H4_4 O3_4 1_555 1_555
O13_2 C10_4 1_555 1_555
O5_4 C11_4 1_555 1_555
O6_4 C10_4 1_555 1_555
N2_4 Ni3_2 1_555 1_555
C3_4 H7_4 1_555 1_555
C4_4 C3_4 1_555 1_555
H8_4 C4_4 1_555 1_555
C6_4 C3_4 1_555 1_555
H10_4 C6_4 1_555 1_555
C7_4 C6_4 1_555 1_555
H11_4 C7_4 1_555 1_555
C10_4 C4_4 1_555 1_555
C11_4 O2_4 1_555 1_555
C13_4 H14_4 1_555 1_555
C14_4 N2_4 1_555 1_555
H15_4 C14_4 1_555 1_555
C15_4 C13_4 1_555 1_555
C17_4 C15_4 1_555 1_555
C18_4 N2_4 1_555 1_555
H18_4 C18_4 1_555 1_555
H26_4 C28_4 1_555 1_555
C7_4 C11_4 1_555 1_555
C13_4 C14_4 1_555 1_555
C17_4 C18_4 1_555 1_555

#END
