
###############################################################################
#
# This file contains modified crystal structure data generated from the
# MOF subset of the Cambridge Structural Database (CSD) v543 
# hosted by the Cambridge Crystallographic Data Centre (CCDC).
#
# This work is licensed under the Creative Commons
# Attribution-NonCommercial-ShareAlike 4.0 International License.
# To view a copy of this license, visit
# http://creativecommons.org/licenses/by-nc-sa/4.0/
# or send a letter to
# Creative Commons, PO Box 1866, Mountain View, CA 94042, USA.
#
# CIF created using the CSD Python API on 29 September 2022
# The structure has been converted into the P1 space group
# The structure has a 3D framework
# The original CSD entry EMAMIQ is in the monoclinic crystal system
# The framework has been calculated to contain at least 10.0% void space
# The void calculation uses a probe of radius 1.32A, grid spacing 0.4
#
###############################################################################

data_EMAMIQ
_chemical_formula_moiety         '(C144 H160 N16 Ni8 O48)n'
_symmetry_cell_setting           triclinic
_symmetry_space_group_name_H-M   'P 1'
_symmetry_Int_Tables_number      1
_space_group_name_Hall           'P 1'
loop_
_symmetry_equiv_pos_site_id
_symmetry_equiv_pos_as_xyz
1 x,y,z
_cell_length_a                   35.4247(12)
_cell_length_b                   13.9402(4)
_cell_length_c                   9.4516(3)
_cell_angle_alpha                90
_cell_angle_beta                 101.6930(10)
_cell_angle_gamma                90
_cell_volume                     4570.6
loop_
_atom_site_label
_atom_site_type_symbol
_atom_site_fract_x
_atom_site_fract_y
_atom_site_fract_z
H29 H 0.0827 0.0029 0.0171
H31 H 0.0229 0.0052 0.1384
H20 H 0.0089 0.0736 0.9122
O9 O 0.32037(8) 0.1219(2) 0.7146(3)
O10 O 0.35205(10) 0.0569(2) 0.9201(4)
C31 C 0.28797(13) 0.0098(3) 0.8347(5)
C34 C 0.25563(12) 0.0088(3) 0.7382(5)
H40 H 0.2539 0.0469 0.6564
C36 C 0.32292(12) 0.0671(3) 0.8219(4)
Ni5 Ni 0.36393(2) 0.20574(3) 0.66183(5)
N4 N 0.09301(10) 0.7929(3) 0.8934(4)
C25 C 0.05737(13) 0.7627(4) 0.8880(7)
H27 H 0.0509 0.7011 0.8540
C26 C 0.10117(16) 0.8820(4) 0.9405(7)
H28 H 0.1258 0.9054 0.9420
C27 C 0.0755(2) 0.9409(5) 0.9865(10)
C28 C 0.02937(18) 0.8181(6) 0.9302(10)
H30 H 0.0043 0.7951 0.9203
C29 C 0.0391(2) 0.9088(6) 0.9877(11)
Ni2 Ni 0.13607(2) 0.70574(3) 0.83817(5)
O7 O 0.10192(9) 0.6944(2) 0.6300(3)
H33 H 0.1051 0.7378 0.5586
H34 H 0.0836 0.6459 0.6090
O8 O 0.16496(8) 0.8229(2) 0.7842(3)
O11 O 0.11028(9) 0.5781(2) 0.8946(4)
H35 H 0.1168 0.5546 0.9885
H36 H 0.0924 0.5456 0.8256
O12 O 0.13192(11) 0.8594(3) 0.5653(4)
H37 H 0.2893 0.9724 0.9170
C32 C 0.22241(12) 0.9513(3) 0.7521(5)
H38 H 0.2237 0.9190 0.8391
C33 C 0.19022(14) 0.9401(3) 0.6527(5)
H39 H 0.1865 0.9781 0.5701
C35 C 0.15997(12) 0.8694(3) 0.6687(5)
O14 O 0.17963(8) 0.6219(2) 0.7854(3)
Ni1 Ni 0.86393(2) 0.29426(3) 0.16183(5)
O1 O 0.89808(9) 0.3056(2) 0.3700(3)
H1 H 0.8949 0.2622 0.4414
H2 H 0.9164 0.3541 0.3910
O2 O 0.83504(8) 0.1771(2) 0.2158(3)
O5 O 0.88972(9) 0.4219(2) 0.1054(4)
H3 H 0.8832 0.4454 0.0115
H4 H 0.9076 0.4544 0.1744
O6 O 0.86808(11) 0.1406(3) 0.4347(4)
N2 N 0.90699(10) 0.2071(3) 0.1066(4)
H6 H 0.7107 0.0276 0.0830
C4 C 0.77759(12) 0.0487(3) 0.2479(5)
H7 H 0.7763 0.0810 0.1609
H8 H 0.7845 0.2426 0.0033
C6 C 0.80978(14) 0.0599(3) 0.3473(5)
H9 H 0.8135 0.0219 0.4299
C8 C 0.84003(12) 0.1306(3) 0.3313(5)
C12 C 0.94263(13) 0.2373(4) 0.1120(7)
H13 H 0.9491 0.2989 0.1460
C13 C 0.89883(16) 0.1180(4) 0.0595(7)
H14 H 0.8742 0.0946 0.0580
C14 C 0.9245(2) 0.0591(5) 0.0135(10)
C16 C 0.97063(18) 0.1819(6) 0.0698(10)
H18 H 0.9957 0.2049 0.0797
C17 C 0.9609(2) 0.0912(6) 0.0123(11)
O13 O 0.82037(8) 0.3781(2) 0.2146(3)
O3 O 0.67963(8) 0.8781(2) 0.2854(3)
O4 O 0.64795(10) 0.9431(2) 0.0799(4)
C2 C 0.71203(13) 0.9902(3) 0.1653(5)
C7 C 0.74437(12) 0.9912(3) 0.2618(5)
H10 H 0.7461 0.9531 0.3436
C10 C 0.67708(12) 0.9329(3) 0.1781(4)
H32 H 0.9911 0.9264 0.0878
Ni3 Ni 0.63607(2) 0.79426(3) 0.33817(5)
H16 H 0.2314 0.3297 0.0229
H17 H 0.2173 0.2252 0.0397
N3 N 0.33260(9) 0.2166(2) 0.4518(3)
C19 C 0.27402(11) 0.2543(3) 0.2876(4)
H21 H 0.2486 0.2750 0.2736
C20 C 0.29089(13) 0.2328(4) 0.1699(4)
C21 C 0.29597(11) 0.2442(3) 0.4252(4)
H22 H 0.2845 0.2574 0.5033
C22 C 0.34847(13) 0.1971(4) 0.3383(5)
H23 H 0.3741 0.1779 0.3555
C23 C 0.32892(14) 0.2038(4) 0.1982(5)
H24 H 0.3411 0.1889 0.1227
C24 C 0.26836(17) 0.2349(8) 0.0151(6)
H22_2 H 0.2155 0.7574 0.9967
O1_2 O 0.60192(9) 0.8056(2) 0.1300(3)
H1_2 H 0.6051 0.7622 0.0586
H2_2 H 0.5836 0.8541 0.1090
O2_2 O 0.66496(8) 0.6771(2) 0.2842(3)
O4_2 O 0.85205(10) 0.4431(2) 0.4201(4)
O5_2 O 0.61028(9) 0.9219(2) 0.3946(4)
H3_2 H 0.6168 0.9454 0.4885
H4_2 H 0.5924 0.9544 0.3256
O6_2 O 0.63192(11) 0.6406(3) 0.0653(4)
N1 N 0.66740(9) 0.7834(2) 0.5482(3)
N2_2 N 0.59301(10) 0.7071(3) 0.3934(4)
C1 C 0.72598(11) 0.7457(3) 0.7124(4)
H5 H 0.7514 0.7250 0.7264
C2_2 C 0.78797(13) 0.4902(3) 0.3347(5)
H6_2 H 0.7893 0.5276 0.4170
C3 C 0.70911(13) 0.7672(4) 0.8301(4)
C4_2 C 0.72241(12) 0.5487(3) 0.2521(5)
H7_2 H 0.7237 0.5810 0.3391
C5 C 0.70403(11) 0.7558(3) 0.5748(4)
H8_2 H 0.7155 0.7426 0.4967
C6_2 C 0.69022(14) 0.5599(3) 0.1527(5)
H9_2 H 0.6865 0.5219 0.0701
C7_2 C 0.75563(12) 0.4912(3) 0.2382(5)
H10_2 H 0.7539 0.4531 0.1564
C8_2 C 0.65997(12) 0.6306(3) 0.1687(5)
C9 C 0.65153(13) 0.8029(4) 0.6617(5)
H11 H 0.6259 0.8221 0.6445
C10_2 C 0.82292(12) 0.4329(3) 0.3219(4)
C11 C 0.67108(14) 0.7962(4) 0.8018(5)
H12 H 0.6589 0.8111 0.8773
C12_2 C 0.55737(13) 0.7373(4) 0.3880(7)
H13_2 H 0.5509 0.7989 0.3540
C13_2 C 0.60117(16) 0.6180(4) 0.4405(7)
H14_2 H 0.6258 0.5946 0.4420
C14_2 C 0.5755(2) 0.5591(5) 0.4865(10)
H15 H 0.5827 0.4971 0.5171
C15 C 0.73164(17) 0.7651(8) 0.9849(6)
C16_2 C 0.52937(18) 0.6819(6) 0.4302(10)
H18_2 H 0.5043 0.7049 0.4203
C17_2 C 0.5391(2) 0.5912(6) 0.4877(11)
C18 C 0.5096(3) 0.5315(8) 0.5561(11)
H19 H 0.5229 0.4948 0.6384
H20_2 H 0.4911 0.5736 0.5878
H25 H 0.7686 0.6703 0.9771
H26 H 0.7827 0.7748 0.9603
N4_2 N 0.40699(10) 0.2929(3) 0.6066(4)
C25_2 C 0.44263(13) 0.2627(4) 0.6120(7)
H27_2 H 0.4491 0.2011 0.6460
C26_2 C 0.39883(16) 0.3820(4) 0.5595(7)
H28_2 H 0.3742 0.4054 0.5580
C27_2 C 0.4245(2) 0.4409(5) 0.5135(10)
H29_2 H 0.4173 0.5029 0.4829
C28_2 C 0.47063(18) 0.3181(6) 0.5698(10)
H30_2 H 0.4957 0.2951 0.5797
C29_2 C 0.4609(2) 0.4088(6) 0.5123(11)
C30 C 0.4904(3) 0.4685(8) 0.4439(11)
H31_2 H 0.4771 0.5052 0.3616
H32_2 H 0.5089 0.4264 0.4122
O7_2 O 0.39808(9) 0.1944(2) 0.8700(3)
H33_2 H 0.3949 0.2378 0.9414
H34_2 H 0.4164 0.1459 0.8910
O8_2 O 0.33504(8) 0.3229(2) 0.7158(3)
O10_2 O 0.14795(10) 0.5569(2) 0.5799(4)
O11_2 O 0.38972(9) 0.0781(2) 0.6054(4)
H35_2 H 0.3832 0.0546 0.5115
H36_2 H 0.4076 0.0456 0.6744
O12_2 O 0.36808(11) 0.3594(3) 0.9347(4)
C31_2 C 0.21203(13) 0.5098(3) 0.6653(5)
H37_2 H 0.2107 0.4724 0.5830
C32_2 C 0.27759(12) 0.4513(3) 0.7479(5)
H38_2 H 0.2763 0.4190 0.6609
C33_2 C 0.30978(14) 0.4401(3) 0.8473(5)
H39_2 H 0.3135 0.4781 0.9299
C34_2 C 0.24437(12) 0.5088(3) 0.7618(5)
H40_2 H 0.2461 0.5469 0.8436
C35_2 C 0.34003(12) 0.3694(3) 0.8313(5)
C36_2 C 0.17708(12) 0.5671(3) 0.6781(4)
C30_2 C 0.0096(3) 0.9685(8) 0.0561(11)
N5 N 0.16740(9) 0.7166(2) 0.0482(3)
H22_3 H 0.7155 0.2574 0.9967
Ni4 Ni 0.63607(2) 0.20574(3) 0.83817(5)
H20_3 H 0.9911 0.0736 0.5878
H29_3 H 0.9173 0.0029 0.4829
H31_3 H 0.9771 0.0052 0.3616
O9_2 O 0.67963(8) 0.1219(2) 0.7854(3)
O10_3 O 0.64795(10) 0.0569(2) 0.5799(4)
C31_3 C 0.71203(13) 0.0098(3) 0.6653(5)
C34_3 C 0.74437(12) 0.0088(3) 0.7618(5)
H40_3 H 0.7461 0.0469 0.8436
C36_3 C 0.67708(12) 0.0671(3) 0.6781(4)
N4_3 N 0.90699(10) 0.7929(3) 0.6066(4)
C25_3 C 0.94263(13) 0.7627(4) 0.6120(7)
H27_3 H 0.9491 0.7011 0.6460
C26_3 C 0.89883(16) 0.8820(4) 0.5595(7)
H28_3 H 0.8742 0.9054 0.5580
C27_3 C 0.9245(2) 0.9409(5) 0.5135(10)
C28_3 C 0.97063(18) 0.8181(6) 0.5698(10)
H30_3 H 0.9957 0.7951 0.5797
C29_3 C 0.9609(2) 0.9088(6) 0.5123(11)
C30_3 C 0.9904(3) 0.9685(8) 0.4439(11)
Ni2_2 Ni 0.86393(2) 0.70574(3) 0.66183(5)
O7_3 O 0.89808(9) 0.6944(2) 0.8700(3)
H33_3 H 0.8949 0.7378 0.9414
H34_3 H 0.9164 0.6459 0.8910
O8_3 O 0.83504(8) 0.8229(2) 0.7158(3)
O11_3 O 0.88972(9) 0.5781(2) 0.6054(4)
H35_3 H 0.8832 0.5546 0.5115
H36_3 H 0.9076 0.5456 0.6744
O12_3 O 0.86808(11) 0.8594(3) 0.9347(4)
H37_3 H 0.7107 0.9724 0.5830
C32_3 C 0.77759(12) 0.9513(3) 0.7479(5)
H38_3 H 0.7763 0.9190 0.6609
C33_3 C 0.80978(14) 0.9401(3) 0.8473(5)
H39_3 H 0.8135 0.9781 0.9299
C35_3 C 0.84003(12) 0.8694(3) 0.8313(5)
O14_2 O 0.82037(8) 0.6219(2) 0.7146(3)
N5_2 N 0.83260(9) 0.7166(2) 0.4518(3)
N1_2 N 0.33260(9) 0.7834(2) 0.9518(3)
C1_2 C 0.27402(11) 0.7457(3) 0.7876(4)
H5_2 H 0.2486 0.7250 0.7736
C3_2 C 0.29089(13) 0.7672(4) 0.6699(4)
C5_2 C 0.29597(11) 0.7558(3) 0.9252(4)
C9_2 C 0.34847(13) 0.8029(4) 0.8383(5)
H11_2 H 0.3741 0.8221 0.8555
C11_2 C 0.32892(14) 0.7962(4) 0.6982(5)
H12_2 H 0.3411 0.8111 0.6227
H15_2 H 0.4173 0.4971 0.9829
C15_2 C 0.26836(17) 0.7651(8) 0.5151(6)
H16_2 H 0.2686 0.8297 0.4771
H17_2 H 0.2827 0.7252 0.4603
C18_2 C 0.4904(3) 0.5315(8) 0.9439(11)
H19_2 H 0.4771 0.4948 0.8616
H20_4 H 0.5089 0.5736 0.9122
C19_2 C 0.22598(11) 0.7543(3) 0.2124(4)
H21_2 H 0.2514 0.7750 0.2264
C20_2 C 0.20911(13) 0.7328(4) 0.3301(4)
C21_2 C 0.20403(11) 0.7442(3) 0.0748(4)
C22_2 C 0.15153(13) 0.6971(4) 0.1617(5)
H23_2 H 0.1259 0.6779 0.1445
C23_2 C 0.17108(14) 0.7038(4) 0.3018(5)
H24_2 H 0.1589 0.6889 0.3773
C24_2 C 0.23164(17) 0.7349(8) 0.4849(6)
H25_2 H 0.2314 0.6703 0.5229
H26_2 H 0.2173 0.7748 0.5397
N4_4 N 0.59301(10) 0.2929(3) 0.8934(4)
C25_4 C 0.55737(13) 0.2627(4) 0.8880(7)
H27_4 H 0.5509 0.2011 0.8540
C26_4 C 0.60117(16) 0.3820(4) 0.9405(7)
H28_4 H 0.6258 0.4054 0.9420
C27_4 C 0.5755(2) 0.4409(5) 0.9865(10)
C28_4 C 0.52937(18) 0.3181(6) 0.9302(10)
H30_4 H 0.5043 0.2951 0.9203
C29_4 C 0.5391(2) 0.4088(6) 0.9877(11)
O7_4 O 0.60192(9) 0.1944(2) 0.6300(3)
H33_4 H 0.6051 0.2378 0.5586
H34_4 H 0.5836 0.1459 0.6090
O8_4 O 0.66496(8) 0.3229(2) 0.7842(3)
O10_4 O 0.85205(10) 0.5569(2) 0.9201(4)
O11_4 O 0.61028(9) 0.0781(2) 0.8946(4)
H35_4 H 0.6168 0.0546 0.9885
H36_4 H 0.5924 0.0456 0.8256
O12_4 O 0.63192(11) 0.3594(3) 0.5653(4)
C31_4 C 0.78797(13) 0.5098(3) 0.8347(5)
H37_4 H 0.7893 0.4724 0.9170
C32_4 C 0.72241(12) 0.4513(3) 0.7521(5)
H38_4 H 0.7237 0.4190 0.8391
C33_4 C 0.69022(14) 0.4401(3) 0.6527(5)
H39_4 H 0.6865 0.4781 0.5701
C34_4 C 0.75563(12) 0.5088(3) 0.7382(5)
H40_4 H 0.7539 0.5469 0.6564
C35_4 C 0.65997(12) 0.3694(3) 0.6687(5)
C36_4 C 0.82292(12) 0.5671(3) 0.8219(4)
H16_3 H 0.7314 0.8297 0.0229
H17_3 H 0.7173 0.7252 0.0397
C19_3 C 0.77402(11) 0.7543(3) 0.2876(4)
H21_3 H 0.7486 0.7750 0.2736
C20_3 C 0.79089(13) 0.7328(4) 0.1699(4)
C21_3 C 0.79597(11) 0.7442(3) 0.4252(4)
H22_4 H 0.7845 0.7574 0.5033
C22_3 C 0.84847(13) 0.6971(4) 0.3383(5)
H23_3 H 0.8741 0.6779 0.3555
C23_3 C 0.82892(14) 0.7038(4) 0.1982(5)
H24_3 H 0.8411 0.6889 0.1227
C24_3 C 0.76836(17) 0.7349(8) 0.0151(6)
N1_3 N 0.83260(9) 0.2834(2) 0.9518(3)
C1_3 C 0.77402(11) 0.2457(3) 0.7876(4)
H5_3 H 0.7486 0.2250 0.7736
C3_3 C 0.79089(13) 0.2672(4) 0.6699(4)
C5_3 C 0.79597(11) 0.2558(3) 0.9252(4)
C9_3 C 0.84847(13) 0.3029(4) 0.8383(5)
H11_3 H 0.8741 0.3221 0.8555
C11_3 C 0.82892(14) 0.2962(4) 0.6982(5)
H12_3 H 0.8411 0.3111 0.6227
C15_3 C 0.76836(17) 0.2651(8) 0.5151(6)
H16_4 H 0.7686 0.3297 0.4771
H17_4 H 0.7827 0.2252 0.4603
C18_3 C 0.9904(3) 0.0315(8) 0.9439(11)
N3_2 N 0.66740(9) 0.2166(2) 0.0482(3)
C19_4 C 0.72598(11) 0.2543(3) 0.2124(4)
H21_4 H 0.7514 0.2750 0.2264
C20_4 C 0.70911(13) 0.2328(4) 0.3301(4)
C21_4 C 0.70403(11) 0.2442(3) 0.0748(4)
C22_4 C 0.65153(13) 0.1971(4) 0.1617(5)
H23_4 H 0.6259 0.1779 0.1445
C23_4 C 0.67108(14) 0.2038(4) 0.3018(5)
H24_4 H 0.6589 0.1889 0.3773
C24_4 C 0.73164(17) 0.2349(8) 0.4849(6)
H25_3 H 0.7314 0.1703 0.5229
H26_3 H 0.7173 0.2748 0.5397
Ni1_2 Ni 0.13607(2) 0.29426(3) 0.33817(5)
O1_3 O 0.10192(9) 0.3056(2) 0.1300(3)
H1_3 H 0.1051 0.2622 0.0586
H2_3 H 0.0836 0.3541 0.1090
O2_3 O 0.16496(8) 0.1771(2) 0.2842(3)
O5_3 O 0.11028(9) 0.4219(2) 0.3946(4)
H3_3 H 0.1168 0.4454 0.4885
H4_3 H 0.0924 0.4544 0.3256
O6_3 O 0.13192(11) 0.1406(3) 0.0653(4)
N1_4 N 0.16740(9) 0.2834(2) 0.5482(3)
N2_3 N 0.09301(10) 0.2071(3) 0.3934(4)
C1_4 C 0.22598(11) 0.2457(3) 0.7124(4)
H5_4 H 0.2514 0.2250 0.7264
H6_3 H 0.2893 0.0276 0.4170
C3_4 C 0.20911(13) 0.2672(4) 0.8301(4)
C4_3 C 0.22241(12) 0.0487(3) 0.2521(5)
H7_3 H 0.2237 0.0810 0.3391
C5_4 C 0.20403(11) 0.2558(3) 0.5748(4)
H8_3 H 0.2155 0.2426 0.4967
C6_3 C 0.19022(14) 0.0599(3) 0.1527(5)
H9_3 H 0.1865 0.0219 0.0701
C8_3 C 0.15997(12) 0.1306(3) 0.1687(5)
C9_4 C 0.15153(13) 0.3029(4) 0.6617(5)
H11_4 H 0.1259 0.3221 0.6445
C11_4 C 0.17108(14) 0.2962(4) 0.8018(5)
H12_4 H 0.1589 0.3111 0.8773
C12_3 C 0.05737(13) 0.2373(4) 0.3880(7)
H13_3 H 0.0509 0.2989 0.3540
C13_3 C 0.10117(16) 0.1180(4) 0.4405(7)
H14_3 H 0.1258 0.0946 0.4420
C14_3 C 0.0755(2) 0.0591(5) 0.4865(10)
C15_4 C 0.23164(17) 0.2651(8) 0.9849(6)
C16_3 C 0.02937(18) 0.1819(6) 0.4302(10)
H18_3 H 0.0043 0.2049 0.4203
C17_3 C 0.0391(2) 0.0912(6) 0.4877(11)
C18_4 C 0.0096(3) 0.0315(8) 0.5561(11)
H25_4 H 0.2686 0.1703 0.9771
H26_4 H 0.2827 0.2748 0.9603
O13_2 O 0.17963(8) 0.3781(2) 0.2854(3)
O3_2 O 0.32037(8) 0.8781(2) 0.2146(3)
O4_3 O 0.35205(10) 0.9431(2) 0.4201(4)
C2_3 C 0.28797(13) 0.9902(3) 0.3347(5)
C7_3 C 0.25563(12) 0.9912(3) 0.2382(5)
H10_3 H 0.2539 0.9531 0.1564
C10_3 C 0.32292(12) 0.9329(3) 0.3219(4)
H15_3 H 0.0827 0.9971 0.5171
H19_3 H 0.0229 0.9948 0.6384
H32_3 H 0.0089 0.9264 0.4122
Ni3_2 Ni 0.36393(2) 0.79426(3) 0.16183(5)
O1_4 O 0.39808(9) 0.8056(2) 0.3700(3)
H1_4 H 0.3949 0.7622 0.4414
H2_4 H 0.4164 0.8541 0.3910
O2_4 O 0.33504(8) 0.6771(2) 0.2158(3)
O4_4 O 0.14795(10) 0.4431(2) 0.0799(4)
O5_4 O 0.38972(9) 0.9219(2) 0.1054(4)
H3_4 H 0.3832 0.9454 0.0115
H4_4 H 0.4076 0.9544 0.1744
O6_4 O 0.36808(11) 0.6406(3) 0.4347(4)
N2_4 N 0.40699(10) 0.7071(3) 0.1066(4)
C2_4 C 0.21203(13) 0.4902(3) 0.1653(5)
H6_4 H 0.2107 0.5276 0.0830
C4_4 C 0.27759(12) 0.5487(3) 0.2479(5)
H7_4 H 0.2763 0.5810 0.1609
H8_4 H 0.2845 0.7426 0.0033
C6_4 C 0.30978(14) 0.5599(3) 0.3473(5)
H9_4 H 0.3135 0.5219 0.4299
C7_4 C 0.24437(12) 0.4912(3) 0.2618(5)
H10_4 H 0.2461 0.4531 0.3436
C8_4 C 0.34003(12) 0.6306(3) 0.3313(5)
C10_4 C 0.17708(12) 0.4329(3) 0.1781(4)
C12_4 C 0.44263(13) 0.7373(4) 0.1120(7)
H13_4 H 0.4491 0.7989 0.1460
C13_4 C 0.39883(16) 0.6180(4) 0.0595(7)
H14_4 H 0.3742 0.5946 0.0580
C14_4 C 0.4245(2) 0.5591(5) 0.0135(10)
C16_4 C 0.47063(18) 0.6819(6) 0.0698(10)
H18_4 H 0.4957 0.7049 0.0797
C17_4 C 0.4609(2) 0.5912(6) 0.0123(11)
H29_4 H 0.5827 0.5029 0.0171
C30_4 C 0.5096(3) 0.4685(8) 0.0561(11)
H31_4 H 0.5229 0.5052 0.1384
H32_4 H 0.4911 0.4264 0.0878
H15_4 H 0.9173 0.9971 0.9829
H19_4 H 0.9771 0.9948 0.8616
loop_
_geom_bond_atom_site_label_1
_geom_bond_atom_site_label_2
_geom_bond_site_symmetry_1
_geom_bond_site_symmetry_2
O9 C36 1_555 1_555
O10 C36 1_555 1_555
C34 C31 1_555 1_555
H40 C34 1_555 1_555
C36 C31 1_555 1_555
Ni5 O9 1_555 1_555
N4 C25 1_555 1_555
C25 H27 1_555 1_555
C26 N4 1_555 1_555
H28 C26 1_555 1_555
C27 C26 1_555 1_555
C28 C25 1_555 1_555
H30 C28 1_555 1_555
C29 C27 1_555 1_555
Ni2 N4 1_555 1_555
O7 Ni2 1_555 1_555
H33 O7 1_555 1_555
H34 O7 1_555 1_555
O8 Ni2 1_555 1_555
O11 Ni2 1_555 1_555
H35 O11 1_555 1_555
H36 O11 1_555 1_555
O12 C35 1_555 1_555
C32 H38 1_555 1_555
C33 C32 1_555 1_555
H39 C33 1_555 1_555
C35 O8 1_555 1_555
O14 Ni2 1_555 1_555
C28 C29 1_555 1_555
C33 C35 1_555 1_555
Ni1 O1 1_555 1_555
O1 H1 1_555 1_555
H2 O1 1_555 1_555
O2 Ni1 1_555 1_555
O5 Ni1 1_555 1_555
H3 O5 1_555 1_555
H4 O5 1_555 1_555
O6 C8 1_555 1_555
N2 Ni1 1_555 1_555
C4 H7 1_555 1_555
C6 C4 1_555 1_555
H9 C6 1_555 1_555
C8 O2 1_555 1_555
C12 N2 1_555 1_555
H13 C12 1_555 1_555
C13 N2 1_555 1_555
H14 C13 1_555 1_555
C14 C13 1_555 1_555
C16 C12 1_555 1_555
H18 C16 1_555 1_555
C17 C14 1_555 1_555
O13 Ni1 1_555 1_555
C6 C8 1_555 1_555
C16 C17 1_555 1_555
O3 C10 1_555 1_555
O4 C10 1_555 1_555
C7 C2 1_555 1_555
H10 C7 1_555 1_555
C10 C2 1_555 1_555
Ni3 O3 1_555 1_555
N3 C21 1_555 1_555
C19 H21 1_555 1_555
C20 C19 1_555 1_555
C21 C19 1_555 1_555
H22 C21 1_555 1_555
C22 N3 1_555 1_555
H23 C22 1_555 1_555
C23 C20 1_555 1_555
H24 C23 1_555 1_555
Ni5 N3 1_555 1_555
C20 C24 1_555 1_555
C22 C23 1_555 1_555
Ni3 O1_2 1_555 1_555
O1_2 H1_2 1_555 1_555
H2_2 O1_2 1_555 1_555
O2_2 Ni3 1_555 1_555
O13 C10_2 1_555 1_555
O4_2 C10_2 1_555 1_555
O5_2 Ni3 1_555 1_555
H3_2 O5_2 1_555 1_555
H4_2 O5_2 1_555 1_555
O6_2 C8_2 1_555 1_555
N1 Ni3 1_555 1_555
N2_2 Ni3 1_555 1_555
C1 H5 1_555 1_555
C2_2 H6_2 1_555 1_555
C3 C1 1_555 1_555
C4_2 H7_2 1_555 1_555
C5 N1 1_555 1_555
H8_2 C5 1_555 1_555
C6_2 C4_2 1_555 1_555
H9_2 C6_2 1_555 1_555
C7_2 C2_2 1_555 1_555
H10_2 C7_2 1_555 1_555
C8_2 O2_2 1_555 1_555
C9 N1 1_555 1_555
H11 C9 1_555 1_555
C10_2 C2_2 1_555 1_555
C11 C3 1_555 1_555
H12 C11 1_555 1_555
C12_2 N2_2 1_555 1_555
H13_2 C12_2 1_555 1_555
C13_2 N2_2 1_555 1_555
H14_2 C13_2 1_555 1_555
C14_2 C13_2 1_555 1_555
H15 C14_2 1_555 1_555
C15 C3 1_555 1_555
C16_2 C12_2 1_555 1_555
H18_2 C16_2 1_555 1_555
C17_2 C14_2 1_555 1_555
C18 C17_2 1_555 1_555
H19 C18 1_555 1_555
H20_2 C18 1_555 1_555
N4_2 C25_2 1_555 1_555
C25_2 H27_2 1_555 1_555
C26_2 N4_2 1_555 1_555
H28_2 C26_2 1_555 1_555
C27_2 C26_2 1_555 1_555
H29_2 C27_2 1_555 1_555
C28_2 C25_2 1_555 1_555
H30_2 C28_2 1_555 1_555
C29_2 C27_2 1_555 1_555
C30 C18 1_555 1_555
H31_2 C30 1_555 1_555
H32_2 C30 1_555 1_555
Ni5 N4_2 1_555 1_555
O7_2 Ni5 1_555 1_555
H33_2 O7_2 1_555 1_555
H34_2 O7_2 1_555 1_555
O8_2 Ni5 1_555 1_555
O14 C36_2 1_555 1_555
O10_2 C36_2 1_555 1_555
O11_2 Ni5 1_555 1_555
H35_2 O11_2 1_555 1_555
H36_2 O11_2 1_555 1_555
O12_2 C35_2 1_555 1_555
C31_2 H37_2 1_555 1_555
C32_2 H38_2 1_555 1_555
C33_2 C32_2 1_555 1_555
H39_2 C33_2 1_555 1_555
C34_2 C31_2 1_555 1_555
H40_2 C34_2 1_555 1_555
C35_2 O8_2 1_555 1_555
C36_2 C31_2 1_555 1_555
C1 C5 1_555 1_555
C4_2 C7_2 1_555 1_555
C6_2 C8_2 1_555 1_555
C9 C11 1_555 1_555
C16_2 C17_2 1_555 1_555
C28_2 C29_2 1_555 1_555
C29_2 C30 1_555 1_555
C32_2 C34_2 1_555 1_555
C33_2 C35_2 1_555 1_555
O9_2 C36_3 1_555 1_555
O10_3 C36_3 1_555 1_555
C34_3 C31_3 1_555 1_555
H40_3 C34_3 1_555 1_555
C36_3 C31_3 1_555 1_555
Ni4 O9_2 1_555 1_555
N4_3 C25_3 1_555 1_555
C25_3 H27_3 1_555 1_555
C26_3 N4_3 1_555 1_555
H28_3 C26_3 1_555 1_555
C27_3 C26_3 1_555 1_555
C28_3 C25_3 1_555 1_555
H30_3 C28_3 1_555 1_555
C29_3 C27_3 1_555 1_555
Ni2_2 N4_3 1_555 1_555
O7_3 Ni2_2 1_555 1_555
H33_3 O7_3 1_555 1_555
H34_3 O7_3 1_555 1_555
O8_3 Ni2_2 1_555 1_555
O11_3 Ni2_2 1_555 1_555
H35_3 O11_3 1_555 1_555
H36_3 O11_3 1_555 1_555
O12_3 C35_3 1_555 1_555
C32_3 H38_3 1_555 1_555
C33_3 C32_3 1_555 1_555
H39_3 C33_3 1_555 1_555
C35_3 O8_3 1_555 1_555
O14_2 Ni2_2 1_555 1_555
N5_2 Ni2_2 1_555 1_555
C28_3 C29_3 1_555 1_555
C29_3 C30_3 1_555 1_555
C33_3 C35_3 1_555 1_555
C1_2 H5_2 1_555 1_555
C3_2 C1_2 1_555 1_555
C5_2 N1_2 1_555 1_555
C9_2 N1_2 1_555 1_555
H11_2 C9_2 1_555 1_555
C11_2 C3_2 1_555 1_555
H12_2 C11_2 1_555 1_555
C15_2 C3_2 1_555 1_555
H16_2 C15_2 1_555 1_555
H17_2 C15_2 1_555 1_555
H19_2 C18_2 1_555 1_555
H20_4 C18_2 1_555 1_555
N5 C21_2 1_555 1_555
C19_2 H21_2 1_555 1_555
C20_2 C19_2 1_555 1_555
C21_2 C19_2 1_555 1_555
C22_2 N5 1_555 1_555
H23_2 C22_2 1_555 1_555
C23_2 C20_2 1_555 1_555
H24_2 C23_2 1_555 1_555
C24_2 C15_2 1_555 1_555
H25_2 C24_2 1_555 1_555
H26_2 C24_2 1_555 1_555
N4_4 C25_4 1_555 1_555
C25_4 H27_4 1_555 1_555
C26_4 N4_4 1_555 1_555
H28_4 C26_4 1_555 1_555
C27_4 C26_4 1_555 1_555
C28_4 C25_4 1_555 1_555
H30_4 C28_4 1_555 1_555
C29_4 C27_4 1_555 1_555
Ni4 N4_4 1_555 1_555
O7_4 Ni4 1_555 1_555
H33_4 O7_4 1_555 1_555
H34_4 O7_4 1_555 1_555
O8_4 Ni4 1_555 1_555
O14_2 C36_4 1_555 1_555
O10_4 C36_4 1_555 1_555
O11_4 Ni4 1_555 1_555
H35_4 O11_4 1_555 1_555
H36_4 O11_4 1_555 1_555
O12_4 C35_4 1_555 1_555
C31_4 H37_4 1_555 1_555
C32_4 H38_4 1_555 1_555
C33_4 C32_4 1_555 1_555
H39_4 C33_4 1_555 1_555
C34_4 C31_4 1_555 1_555
H40_4 C34_4 1_555 1_555
C35_4 O8_4 1_555 1_555
C36_4 C31_4 1_555 1_555
C1_2 C5_2 1_555 1_555
C9_2 C11_2 1_555 1_555
C20_2 C24_2 1_555 1_555
C22_2 C23_2 1_555 1_555
C28_4 C29_4 1_555 1_555
C32_4 C34_4 1_555 1_555
C33_4 C35_4 1_555 1_555
N5_2 C21_3 1_555 1_555
C19_3 H21_3 1_555 1_555
C20_3 C19_3 1_555 1_555
C21_3 C19_3 1_555 1_555
H22_4 C21_3 1_555 1_555
C22_3 N5_2 1_555 1_555
H23_3 C22_3 1_555 1_555
C23_3 C20_3 1_555 1_555
H24_3 C23_3 1_555 1_555
C20_3 C24_3 1_555 1_555
C22_3 C23_3 1_555 1_555
C1_3 H5_3 1_555 1_555
C3_3 C1_3 1_555 1_555
C5_3 N1_3 1_555 1_555
C9_3 N1_3 1_555 1_555
H11_3 C9_3 1_555 1_555
C11_3 C3_3 1_555 1_555
H12_3 C11_3 1_555 1_555
C15_3 C3_3 1_555 1_555
H16_4 C15_3 1_555 1_555
H17_4 C15_3 1_555 1_555
N3_2 C21_4 1_555 1_555
C19_4 H21_4 1_555 1_555
C20_4 C19_4 1_555 1_555
C21_4 C19_4 1_555 1_555
C22_4 N3_2 1_555 1_555
H23_4 C22_4 1_555 1_555
C23_4 C20_4 1_555 1_555
H24_4 C23_4 1_555 1_555
C24_4 C15_3 1_555 1_555
H25_3 C24_4 1_555 1_555
H26_3 C24_4 1_555 1_555
C1_3 C5_3 1_555 1_555
C9_3 C11_3 1_555 1_555
C20_4 C24_4 1_555 1_555
C22_4 C23_4 1_555 1_555
Ni1_2 O1_3 1_555 1_555
O1_3 H1_3 1_555 1_555
H2_3 O1_3 1_555 1_555
O2_3 Ni1_2 1_555 1_555
O5_3 Ni1_2 1_555 1_555
H3_3 O5_3 1_555 1_555
H4_3 O5_3 1_555 1_555
O6_3 C8_3 1_555 1_555
N1_4 Ni1_2 1_555 1_555
N2_3 Ni1_2 1_555 1_555
C1_4 H5_4 1_555 1_555
C3_4 C1_4 1_555 1_555
C4_3 H7_3 1_555 1_555
C5_4 N1_4 1_555 1_555
H8_3 C5_4 1_555 1_555
C6_3 C4_3 1_555 1_555
H9_3 C6_3 1_555 1_555
C8_3 O2_3 1_555 1_555
C9_4 N1_4 1_555 1_555
H11_4 C9_4 1_555 1_555
C11_4 C3_4 1_555 1_555
H12_4 C11_4 1_555 1_555
C12_3 N2_3 1_555 1_555
H13_3 C12_3 1_555 1_555
C13_3 N2_3 1_555 1_555
H14_3 C13_3 1_555 1_555
C14_3 C13_3 1_555 1_555
C15_4 C3_4 1_555 1_555
C16_3 C12_3 1_555 1_555
H18_3 C16_3 1_555 1_555
C17_3 C14_3 1_555 1_555
C18_4 C17_3 1_555 1_555
O13_2 Ni1_2 1_555 1_555
C1_4 C5_4 1_555 1_555
C6_3 C8_3 1_555 1_555
C9_4 C11_4 1_555 1_555
C16_3 C17_3 1_555 1_555
O3_2 C10_3 1_555 1_555
O4_3 C10_3 1_555 1_555
C7_3 C2_3 1_555 1_555
H10_3 C7_3 1_555 1_555
C10_3 C2_3 1_555 1_555
Ni3_2 O3_2 1_555 1_555
Ni3_2 O1_4 1_555 1_555
O1_4 H1_4 1_555 1_555
H2_4 O1_4 1_555 1_555
O2_4 Ni3_2 1_555 1_555
O13_2 C10_4 1_555 1_555
O4_4 C10_4 1_555 1_555
O5_4 Ni3_2 1_555 1_555
H3_4 O5_4 1_555 1_555
H4_4 O5_4 1_555 1_555
O6_4 C8_4 1_555 1_555
N2_4 Ni3_2 1_555 1_555
C2_4 H6_4 1_555 1_555
C4_4 H7_4 1_555 1_555
C6_4 C4_4 1_555 1_555
H9_4 C6_4 1_555 1_555
C7_4 C2_4 1_555 1_555
H10_4 C7_4 1_555 1_555
C8_4 O2_4 1_555 1_555
C10_4 C2_4 1_555 1_555
C12_4 N2_4 1_555 1_555
H13_4 C12_4 1_555 1_555
C13_4 N2_4 1_555 1_555
H14_4 C13_4 1_555 1_555
C14_4 C13_4 1_555 1_555
C16_4 C12_4 1_555 1_555
H18_4 C16_4 1_555 1_555
C17_4 C14_4 1_555 1_555
H31_4 C30_4 1_555 1_555
H32_4 C30_4 1_555 1_555
C4_4 C7_4 1_555 1_555
C6_4 C8_4 1_555 1_555
C16_4 C17_4 1_555 1_555

#END
