
###############################################################################
#
# This file contains modified crystal structure data generated from the
# MOF subset of the Cambridge Structural Database (CSD) v543 
# hosted by the Cambridge Crystallographic Data Centre (CCDC).
#
# This work is licensed under the Creative Commons
# Attribution-NonCommercial-ShareAlike 4.0 International License.
# To view a copy of this license, visit
# http://creativecommons.org/licenses/by-nc-sa/4.0/
# or send a letter to
# Creative Commons, PO Box 1866, Mountain View, CA 94042, USA.
#
# CIF created using the CSD Python API on 29 September 2022
# The structure has been converted into the P1 space group
# The structure has a 3D framework
# The original CSD entry EMEJUD is in the tetragonal crystal system
# The original CSD entry EMEJUD is in a Sohncke space group
# The framework has been calculated to contain at least 10.0% void space
# The void calculation uses a probe of radius 1.32A, grid spacing 0.4
#
###############################################################################

data_EMEJUD
_chemical_formula_moiety         '(C992 H1056 Co18 N128 O32 S32)n'
_symmetry_cell_setting           triclinic
_symmetry_space_group_name_H-M   'P 1'
_symmetry_Int_Tables_number      1
_space_group_name_Hall           'P 1'
loop_
_symmetry_equiv_pos_site_id
_symmetry_equiv_pos_as_xyz
1 x,y,z
_cell_length_a                   23.88216(9)
_cell_length_b                   23.88216(9)
_cell_length_c                   46.8514(3)
_cell_angle_alpha                90
_cell_angle_beta                 90
_cell_angle_gamma                90
_cell_volume                     26722.1
loop_
_atom_site_label
_atom_site_type_symbol
_atom_site_fract_x
_atom_site_fract_y
_atom_site_fract_z
C119 C 0.0187(5) 0.3523(5) 0.3438(3)
H120 H 0.0364 0.3466 0.3249
H121 H 0.0150 0.3148 0.3526
C120 C 0.0599(6) 0.3849(6) 0.3618(4)
H122 H 0.0683 0.4206 0.3520
H123 H 0.0417 0.3942 0.3802
C121 C 0.1111(5) 0.3569(5) 0.3676(3)
H124 H 0.1234 0.3404 0.3492
H125 H 0.1016 0.3252 0.3802
C122 C 0.1625(6) 0.3844(7) 0.3805(3)
H126 H 0.1954 0.3602 0.3769
H127 H 0.1691 0.4206 0.3707
C123 C 0.1579(7) 0.3949(6) 0.4121(3)
H128 H 0.1502 0.3597 0.4225
H129 H 0.1277 0.4221 0.4162
C124 C 0.2158(7) 0.4191(6) 0.4205(4)
H130 H 0.2437 0.3890 0.4205
H131 H 0.2135 0.4356 0.4396
H132 H 0.2268 0.4479 0.4067
H20 H 0.4125 0.0027 0.5087
C34 C 0.4571(3) 0.0179(2) 0.54439(12)
S3 S 0.23797(14) 0.01601(17) 0.47515(9)
H26 H 0.4572 0.0575 0.5425
C40 C 0.5116(2) 0.0254(2) 0.59045(11)
C43 C 0.5230(2) 0.0818(2) 0.58748(12)
C47 C 0.5426(2) 0.0252(2) 0.63686(11)
H34 H 0.5159 0.1004 0.5699
C48 C 0.5451(2) 0.1113(3) 0.61079(13)
C53 C 0.5546(3) 0.0818(2) 0.63564(12)
C55 C 0.5572(3) 0.1721(3) 0.60966(14)
H40 H 0.5694 0.1004 0.6519
C61 C 0.5691(3) 0.0165(3) 0.68864(11)
C63 C 0.5750(3) 0.1986(3) 0.58443(16)
C64 C 0.5509(3) 0.2054(3) 0.63403(17)
H47 H 0.5712 0.0561 0.6903
H49 H 0.5798 0.1771 0.5675
C72 C 0.5858(4) 0.2567(3) 0.5839(2)
C73 C 0.5617(4) 0.2625(3) 0.6337(2)
H50 H 0.5388 0.1884 0.6513
H58 H 0.5939 0.0010 0.7287
H60 H 0.5981 0.2743 0.5668
C75 C 0.5783(4) 0.2876(3) 0.6084(2)
H61 H 0.5578 0.2841 0.6506
O3 O 0.5867(3) 0.3439(2) 0.61037(17)
C77 C 0.6029(5) 0.3719(4) 0.5853(3)
H64 H 0.5740 0.3677 0.5703
H65 H 0.6388 0.3569 0.5781
C82 C 0.6094(5) 0.4344(4) 0.5941(3)
H70 H 0.5774 0.4454 0.6063
H71 H 0.6086 0.4581 0.5767
C86 C 0.6652(6) 0.4444(5) 0.6104(4)
H76 H 0.6941 0.4573 0.5968
H77 H 0.6781 0.4085 0.6188
C89 C 0.6585(5) 0.4892(5) 0.6350(3)
H80 H 0.6298 0.4759 0.6487
H81 H 0.6944 0.4922 0.6455
C92 C 0.6419(5) 0.5469(5) 0.6242(3)
H84 H 0.6707 0.5602 0.6106
H85 H 0.6061 0.5438 0.6136
C95 C 0.6354(5) 0.5890(5) 0.6473(3)
H89 H 0.6079 0.5745 0.6613
H90 H 0.6717 0.5928 0.6573
C99 C 0.6171(4) 0.6451(5) 0.6382(3)
H93 H 0.5863 0.6413 0.6242
H94 H 0.6486 0.6645 0.6287
C104 C 0.5962(6) 0.6814(5) 0.6643(3)
H98 H 0.6261 0.6829 0.6789
H99 H 0.5631 0.6633 0.6729
C110 C 0.5805(6) 0.7429(5) 0.6550(3)
H107 H 0.5961 0.7506 0.6361
H108 H 0.5960 0.7696 0.6688
H109 H 0.5397 0.7468 0.6544
S5 S 0.2513(4) 0.0171(3) 0.7356(3)
H155 H 0.3063 0.0190 0.1567
C167 C 0.3254(3) 0.0207(3) 0.11474(17)
H156 H 0.3421 0.0031 0.0727
O5 O 0.3351(3) 0.0770(2) 0.11489(13)
C169 C 0.3516(4) 0.1029(4) 0.0890(2)
H161 H 0.3220 0.0976 0.0745
H162 H 0.3863 0.0852 0.0819
C177 C 0.3615(6) 0.1651(4) 0.0937(3)
H169 H 0.3898 0.1697 0.1089
H170 H 0.3262 0.1823 0.1005
C183 C 0.3813(10) 0.1967(7) 0.0671(4)
H177 H 0.4169 0.1806 0.0601
H178 H 0.3530 0.1935 0.0518
C187 C 0.3895(15) 0.2571(8) 0.0750(4)
H181 H 0.4245 0.2616 0.0861
H182 H 0.3578 0.2705 0.0868
C191 C 0.3929(19) 0.2910(10) 0.0469(5)
H185 H 0.3689 0.2722 0.0326
H186 H 0.4319 0.2889 0.0399
C195 C 0.3756(16) 0.3544(11) 0.0482(6)
H191 H 0.3448 0.3590 0.0343
H192 H 0.3589 0.3603 0.0673
C201 C 0.4159(19) 0.4047(14) 0.0432(9)
H195 H 0.4194 0.3975 0.0225
H196 H 0.4487 0.3850 0.0513
C209 C 0.4475(15) 0.4634(14) 0.0415(8)
H201 H 0.4450 0.4774 0.0613
H202 H 0.4871 0.4522 0.0390
C219 C 0.4434(17) 0.5184(14) 0.0233(9)
H213 H 0.4722 0.5449 0.0297
H214 H 0.4491 0.5096 0.0031
H215 H 0.4063 0.5352 0.0259
Co1 Co 0.13831(3) 0.86169(3) 0.7500
N1 N 0.1845(3) 0.8184(2) 0.71729(10)
N2 N 0.0770(3) 0.8000(4) 0.74844(13)
N3 N 0.0950(4) 0.9110(3) 0.71789(11)
C1 C 0.1927(3) 0.7634(3) 0.71865(12)
C2 C 0.2037(4) 0.8447(3) 0.69387(14)
C3 C 0.0410(6) 0.7792(8) 0.7544(3)
C4 C 0.2197(3) 0.7331(2) 0.69729(12)
H1 H 0.1795 0.7438 0.7350
H2 H 0.1976 0.8839 0.6924
C5 C 0.2313(4) 0.8192(3) 0.67229(13)
C6 C 0.2393(3) 0.7602(2) 0.67320(12)
H3 H 0.2247 0.6938 0.6993
H4 H 0.2451 0.8404 0.6567
C7 C 0.2643(2) 0.7297(2) 0.64866(11)
N4 N 0.2752(2) 0.76080(19) 0.62513(9)
C8 C 0.2743(2) 0.6726(2) 0.65002(11)
C9 C 0.2960(2) 0.7343(2) 0.60214(11)
C10 C 0.2960(2) 0.6451(2) 0.62608(11)
H5 H 0.2665 0.6524 0.6670
C11 C 0.3065(2) 0.6775(2) 0.60184(11)
C12 C 0.3087(2) 0.7697(2) 0.57667(11)
C13 C 0.3064(2) 0.5841(2) 0.62589(12)
H6 H 0.3208 0.6603 0.5851
C14 C 0.3065(2) 0.8280(2) 0.57765(11)
C15 C 0.3251(3) 0.7459(2) 0.55129(13)
C16 C 0.2970(3) 0.5528(3) 0.60102(13)
C17 C 0.3254(3) 0.5565(2) 0.64978(12)
H7 H 0.2937 0.8465 0.5944
C18 C 0.3229(2) 0.8585(2) 0.55435(11)
C19 C 0.3411(3) 0.7793(2) 0.52879(12)
H8 H 0.3254 0.7063 0.5493
H9 H 0.2834 0.5712 0.5844
C20 C 0.3070(3) 0.4961(3) 0.60023(14)
C21 C 0.3368(3) 0.4989(2) 0.64961(13)
H10 H 0.3310 0.5771 0.6669
N5 N 0.3409(2) 0.83550(19) 0.52978(9)
H11 H 0.3215 0.8982 0.5556
H12 H 0.3530 0.7617 0.5117
H13 H 0.3004 0.4757 0.5832
C22 C 0.3269(3) 0.4686(2) 0.62453(13)
H14 H 0.3509 0.4808 0.6662
Co2 Co 0.38181(3) 0.87986(3) 0.49538(2)
O1 O 0.3368(3) 0.41273(18) 0.62167(11)
N6 N 0.33581(19) 0.82876(19) 0.46492(9)
N7 N 0.4443(2) 0.8177(2) 0.49592(10)
N8 N 0.4285(2) 0.9294(2) 0.52607(9)
N9 N 0.3209(2) 0.9409(2) 0.49248(10)
N10 N 0.4274(2) 0.9202(2) 0.46100(10)
C23 C 0.3628(4) 0.3849(3) 0.64492(17)
C24 C 0.2811(2) 0.8212(2) 0.46766(12)
C25 C 0.3607(2) 0.8065(2) 0.44185(11)
C26 C 0.4728(5) 0.7843(4) 0.4852(2)
C27 C 0.4550(2) 0.9036(2) 0.54788(11)
C28 C 0.4303(3) 0.9849(2) 0.52435(11)
C29 C 0.2870(3) 0.9725(3) 0.48527(15)
H15 H 0.3373 0.3842 0.6616
H16 H 0.3975 0.4048 0.6505
C30 C 0.3764(4) 0.3259(3) 0.6357(2)
C31 C 0.2490(3) 0.7909(2) 0.44830(12)
H17 H 0.2629 0.8374 0.4837
H18 H 0.4000 0.8108 0.4398
C32 C 0.3316(2) 0.7774(3) 0.42067(12)
S2 S 0.5163(3) 0.7410(3) 0.47013(11)
C33 C 0.4827(3) 0.9337(2) 0.56883(11)
H19 H 0.4546 0.8639 0.5489
H21 H 0.3415 0.3035 0.6357
H22 H 0.3905 0.3268 0.6158
C35 C 0.4190(6) 0.2972(4) 0.6542(3)
C36 C 0.2741(2) 0.7695(2) 0.42384(11)
H23 H 0.2103 0.7849 0.4518
H24 H 0.3506 0.7633 0.4044
C37 C 0.4841(2) 0.9923(2) 0.56738(11)
H25 H 0.5007 0.9148 0.5841
H27 H 0.4267 0.2599 0.6459
H28 H 0.4542 0.3189 0.6532
C38 C 0.4044(7) 0.2895(7) 0.6847(3)
C39 C 0.2413(2) 0.7427(2) 0.40037(12)
H29 H 0.3923 0.3255 0.6932
H30 H 0.4370 0.2754 0.6955
C41 C 0.3577(8) 0.2479(9) 0.6854(3)
N11 N 0.2697(2) 0.7296(2) 0.37660(10)
C42 C 0.1838(2) 0.7328(3) 0.40345(12)
N12 N 0.52085(19) 0.9969(2) 0.61473(10)
H31 H 0.3220 0.2656 0.6795
H32 H 0.3657 0.2162 0.6724
C44 C 0.3542(8) 0.2283(6) 0.7154(3)
C45 C 0.2417(3) 0.7073(3) 0.35490(13)
C46 C 0.1547(3) 0.7092(3) 0.38055(13)
H33 H 0.1651 0.7419 0.4207
H35 H 0.3420 0.2598 0.7276
H36 H 0.3920 0.2166 0.7218
C49 C 0.3136(8) 0.1794(6) 0.7191(3)
C50 C 0.1845(3) 0.6979(3) 0.35588(14)
C51 C 0.2763(3) 0.6920(3) 0.32922(13)
C52 C 0.0936(3) 0.6972(3) 0.38215(13)
C54 C 0.5527(2) 0.9924(2) 0.66292(11)
H37 H 0.3269 0.1462 0.7085
H38 H 0.2758 0.1896 0.7121
C56 C 0.3126(13) 0.1677(12) 0.7512(4)
H39 H 0.1657 0.6838 0.3395
C57 C 0.3326(3) 0.6976(3) 0.32895(13)
C58 C 0.2508(3) 0.6700(5) 0.30490(17)
C59 C 0.0597(3) 0.7020(3) 0.35843(15)
C60 C 0.0690(3) 0.6813(3) 0.40755(15)
C62 C 0.5492(2) 0.9329(2) 0.66262(11)
H41 H 0.3242 0.2008 0.7625
H42 H 0.3363 0.1352 0.7564
C65 C 0.2484(14) 0.155(2) 0.7549(6)
H43 H 0.3509 0.7142 0.3449
C66 C 0.3644(3) 0.6795(3) 0.30569(13)
C67 C 0.2843(3) 0.6529(5) 0.28292(16)
H44 H 0.2112 0.6670 0.3037
H45 H 0.0755 0.7133 0.3407
C68 C 0.0034(3) 0.6905(3) 0.35996(16)
C69 C 0.0127(3) 0.6694(3) 0.40967(15)
H46 H 0.0917 0.6786 0.4242
C70 C 0.5823(3) 0.9833(3) 0.71152(12)
C71 C 0.5619(2) 0.9034(2) 0.68697(11)
H48 H 0.5381 0.9138 0.6458
H51 H 0.2405 0.1459 0.7749
H52 H 0.2264 0.1872 0.7490
H53 H 0.2383 0.1224 0.7430
N13 N 0.3406(3) 0.6565(3) 0.28248(11)
H54 H 0.4040 0.6835 0.3063
H55 H 0.2665 0.6373 0.2666
H59 H 0.5578 0.8639 0.6866
Co3 Co 0.38740(3) 0.61260(3) 0.2500
N14 N 0.42960(19) 0.5650(2) 0.28290(9)
N15 N 0.4503(3) 0.6734(2) 0.25257(11)
C78 C 0.4036(2) 0.5440(3) 0.30536(12)
C79 C 0.4860(2) 0.5596(3) 0.28207(11)
C80 C 0.4830(4) 0.7028(3) 0.26286(16)
C83 C 0.4301(2) 0.5191(3) 0.32813(12)
H66 H 0.3639 0.5462 0.3058
H67 H 0.5056 0.5743 0.2661
C84 C 0.5162(2) 0.5337(3) 0.30339(11)
S4 S 0.52852(14) 0.74290(11) 0.27943(7)
C87 C 0.4888(2) 0.5134(2) 0.32774(10)
H72 H 0.4091 0.5060 0.3440
H73 H 0.5557 0.5297 0.3016
C90 C 0.5194(2) 0.4893(2) 0.35256(11)
N16 N 0.4887(2) 0.4778(2) 0.37548(10)
C93 C 0.5771(2) 0.4805(2) 0.35158(12)
C96 C 0.5150(3) 0.4571(3) 0.39859(11)
H86 H 0.5973 0.4882 0.3346
C97 C 0.6050(2) 0.4606(2) 0.37550(12)
C100 C 0.5718(3) 0.4485(2) 0.39933(11)
C101 C 0.4782(3) 0.4433(3) 0.42318(12)
C102 C 0.6658(3) 0.4495(3) 0.37547(13)
H95 H 0.5887 0.4342 0.4162
C105 C 0.5008(4) 0.4225(5) 0.44848(15)
C106 C 0.4208(3) 0.4485(3) 0.42184(12)
C107 C 0.6935(3) 0.4324(3) 0.35138(14)
C108 C 0.6974(3) 0.4575(3) 0.40043(14)
H100 H 0.5402 0.4202 0.4509
C111 C 0.4651(4) 0.4050(5) 0.47009(15)
C112 C 0.3887(3) 0.4291(4) 0.44486(13)
H101 H 0.4034 0.4649 0.4057
H102 H 0.6729 0.4275 0.3342
C113 C 0.7516(3) 0.4219(3) 0.35111(17)
C114 C 0.7549(3) 0.4481(3) 0.40082(15)
H103 H 0.6792 0.4695 0.4174
H110 H 0.4813 0.3923 0.4875
H111 H 0.3492 0.4334 0.4440
H112 H 0.7695 0.4092 0.3342
C115 C 0.7823(3) 0.4304(3) 0.37623(17)
H113 H 0.7754 0.4537 0.4179
O4 O 0.8381(2) 0.4218(3) 0.37917(14)
C116 C 0.8665(4) 0.4021(5) 0.3554(3)
H114 H 0.8664 0.4308 0.3402
H115 H 0.8481 0.3679 0.3480
C117 C 0.9270(4) 0.3887(5) 0.3643(3)
H116 H 0.9437 0.4219 0.3736
H117 H 0.9269 0.3576 0.3783
C118 C 0.9622(5) 0.3723(8) 0.3384(3)
H118 H 0.9418 0.3428 0.3279
H119 H 0.9648 0.4053 0.3257
N17 N 0.2000(4) 0.9230(3) 0.75156(13)
N18 N 0.1816(2) 0.8155(3) 0.78271(10)
N19 N 0.0890(3) 0.9050(4) 0.78211(11)
C125 C 0.2208(8) 0.9590(6) 0.7456(3)
N20 N 0.5798(2) 0.9274(2) 0.71100(10)
Co4 Co 0.62014(3) 0.88181(3) 0.74538(2)
N21 N 0.3435(3) 0.6594(3) 0.21752(11)
N22 N 0.4350(2) 0.57040(19) 0.21710(9)
N23 N 0.3266(2) 0.5497(3) 0.24743(11)
C126 C 0.3205(3) 0.6356(3) 0.19431(13)
C127 C 0.3471(5) 0.7157(3) 0.21708(16)
C128 C 0.4560(3) 0.5964(2) 0.19464(12)
C129 C 0.4404(3) 0.5140(2) 0.21793(11)
C130 C 0.2972(3) 0.5170(4) 0.23714(16)
C131 C 0.3024(3) 0.6674(3) 0.17105(13)
H133 H 0.3165 0.5960 0.1937
H134 H 0.3627 0.7335 0.2334
C132 C 0.3300(5) 0.7492(3) 0.19510(17)
C133 C 0.4809(3) 0.5699(2) 0.17187(12)
H135 H 0.4538 0.6361 0.1942
H136 H 0.4257 0.4944 0.2339
C134 C 0.4663(3) 0.4838(2) 0.19661(11)
S6 S 0.25710(11) 0.47148(14) 0.22057(7)
C135 C 0.3080(3) 0.7237(3) 0.17078(13)
H137 H 0.2858 0.6491 0.1551
H138 H 0.3330 0.7888 0.1963
C136 C 0.4866(2) 0.5112(2) 0.17226(10)
H139 H 0.4940 0.5909 0.1560
H140 H 0.4703 0.4443 0.1984
C137 C 0.2927(3) 0.7583(3) 0.14510(13)
C138 C 0.5107(2) 0.4806(2) 0.14744(11)
N24 N 0.2704(2) 0.7303(2) 0.12340(10)
C139 C 0.3021(3) 0.8155(3) 0.14412(14)
N25 N 0.5222(2) 0.5113(2) 0.12452(10)
C140 C 0.5195(2) 0.4229(2) 0.14842(12)
C141 C 0.2573(2) 0.7587(2) 0.09963(12)
H141 H 0.3162 0.8343 0.1605
C142 C 0.2908(3) 0.8453(3) 0.11945(13)
C143 C 0.5429(3) 0.4850(3) 0.10141(11)
H142 H 0.5118 0.4027 0.1654
C144 C 0.5394(2) 0.3950(2) 0.12450(12)
C145 C 0.2672(3) 0.8162(2) 0.09655(12)
C146 C 0.2305(2) 0.7259(2) 0.07616(11)
C147 C 0.3028(3) 0.9064(3) 0.11785(13)
C148 C 0.5515(2) 0.4282(3) 0.10067(11)
C149 C 0.5567(3) 0.5218(3) 0.07682(12)
C150 C 0.5505(3) 0.3342(3) 0.12453(13)
H143 H 0.2581 0.8349 0.0793
C151 C 0.2091(2) 0.7510(3) 0.05170(12)
C152 C 0.2226(3) 0.6684(2) 0.07933(12)
C153 C 0.2980(3) 0.9403(3) 0.14157(15)
C154 C 0.3187(3) 0.9310(3) 0.09245(15)
H144 H 0.5658 0.4113 0.0838
C155 C 0.5775(5) 0.4992(4) 0.05152(15)
C156 C 0.5515(3) 0.5792(3) 0.07816(12)
C157 C 0.5676(3) 0.3065(3) 0.14862(14)
C158 C 0.5425(3) 0.3026(3) 0.09957(14)
H145 H 0.2151 0.7897 0.0482
C159 C 0.1788(2) 0.7189(2) 0.03234(12)
C160 C 0.1935(2) 0.6393(2) 0.05815(11)
H146 H 0.2367 0.6494 0.0956
H147 H 0.2867 0.9245 0.1593
C161 C 0.3095(3) 0.9966(3) 0.14004(16)
C162 C 0.3306(3) 0.9873(3) 0.09033(15)
H148 H 0.3214 0.9083 0.0758
H149 H 0.5798 0.4598 0.0491
C163 C 0.5950(5) 0.5349(4) 0.02991(15)
C164 C 0.5709(4) 0.6113(3) 0.05514(13)
H150 H 0.5351 0.5966 0.0943
H151 H 0.5725 0.3271 0.1658
C165 C 0.5781(3) 0.2484(3) 0.14889(17)
C166 C 0.5519(3) 0.2451(3) 0.09918(15)
H152 H 0.5305 0.3208 0.0826
N26 N 0.4110(3) 0.4050(4) 0.46789(11)
N27 N 0.17124(19) 0.66419(19) 0.03508(9)
H153 H 0.1626 0.7371 0.0163
H154 H 0.1892 0.6000 0.0602
N28 N 0.5950(4) 0.5890(3) 0.03211(11)
H157 H 0.6077 0.5187 0.0125
H158 H 0.5666 0.6508 0.0560
H159 H 0.5908 0.2305 0.1658
C168 C 0.5696(3) 0.2177(3) 0.12377(17)
H160 H 0.5463 0.2246 0.0821
Co5 Co 0.36169(3) 0.36169(3) 0.5000
Co6 Co 0.12014(3) 0.61819(3) 0.00462(2)
Co7 Co 0.63831(3) 0.63831(3) 0.0000
O6 O 0.5782(3) 0.1619(2) 0.12083(14)
N30 N 0.1823(2) 0.5557(2) 0.00408(10)
N32 N 0.0591(2) 0.6791(2) 0.00752(10)
N33 N 0.0798(2) 0.5726(2) 0.03900(10)
C170 C 0.5979(5) 0.1335(4) 0.1446(3)
C173 C 0.2157(4) 0.5272(5) 0.0148(2)
C176 C 0.0275(3) 0.7130(3) 0.01473(15)
H163 H 0.5692 0.1336 0.1598
H164 H 0.6321 0.1519 0.1520
C178 C 0.6113(5) 0.0730(4) 0.1357(3)
S7 S 0.2590(3) 0.4837(3) 0.02987(11)
H171 H 0.5781 0.0563 0.1264
H172 H 0.6424 0.0731 0.1217
C184 C 0.6277(8) 0.0378(5) 0.1616(3)
H179 H 0.6572 0.0582 0.1721
H180 H 0.5947 0.0352 0.1743
Co7_2 Co 0.63831(3) 0.63831(3) 1.0000
N29 N 0.16450(19) 0.6591(2) 0.97022(9)
N31 N 0.0706(2) 0.5715(2) 0.97393(9)
C171 C 0.1415(2) 0.6771(2) 0.94565(11)
C172 C 0.2207(2) 0.6589(3) 0.97121(12)
C174 C 0.0964(2) 0.5450(2) 0.95212(11)
C175 C 0.0151(2) 0.5697(3) 0.97565(11)
C179 C 0.1720(2) 0.6935(2) 0.92235(11)
H165 H 0.1018 0.6785 0.9444
H166 H 0.2383 0.6470 0.9883
C180 C 0.2541(2) 0.6749(3) 0.94871(13)
C181 C 0.0663(2) 0.5173(3) 0.93117(11)
H167 H 0.1361 0.5454 0.9511
C185 C 0.2303(2) 0.6913(2) 0.92333(11)
H173 H 0.1535 0.7063 0.9056
H174 H 0.2937 0.6746 0.9507
C186 C 0.0077(2) 0.5159(2) 0.93262(11)
H175 H 0.0852 0.4993 0.9159
C189 C 0.2657(2) 0.7040(2) 0.89786(11)
N34 N 0.23920(19) 0.7248(2) 0.87487(9)
C193 C 0.3225(2) 0.6935(2) 0.89816(11)
N35 N 0.0031(2) 0.47915(19) 0.88527(10)
C197 C 0.2703(2) 0.7357(2) 0.85134(11)
H189 H 0.3397 0.6792 0.9149
C198 C 0.3549(2) 0.7040(2) 0.87392(11)
C203 C 0.3274(2) 0.7257(2) 0.84998(11)
C204 C 0.2398(2) 0.7607(3) 0.82680(12)
C205 C 0.4159(2) 0.6936(2) 0.87411(12)
C207 C 0.0076(2) 0.4473(2) 0.83708(11)
H199 H 0.3476 0.7335 0.8330
C211 C 0.2669(2) 0.7803(3) 0.80271(12)
C212 C 0.1808(3) 0.7687(4) 0.82771(13)
C213 C 0.4472(3) 0.7030(3) 0.89898(13)
C214 C 0.4435(2) 0.6746(3) 0.85022(12)
C216 C 0.0671(2) 0.4508(2) 0.83738(11)
H205 H 0.3062 0.7753 0.8007
C221 C 0.2366(3) 0.8073(3) 0.78135(12)
C222 C 0.1553(3) 0.7963(4) 0.80613(14)
H206 H 0.1596 0.7549 0.8433
H207 H 0.4288 0.7166 0.9156
C223 C 0.5039(3) 0.6930(3) 0.89977(14)
C224 C 0.5011(2) 0.6632(3) 0.85039(13)
H208 H 0.4229 0.6690 0.8331
C225 C 0.0167(3) 0.4177(3) 0.78848(12)
C226 C 0.0966(2) 0.4381(2) 0.81303(11)
H210 H 0.0862 0.4619 0.8542
H219 H 0.2562 0.8205 0.7650
H220 H 0.1161 0.8024 0.8076
H221 H 0.5243 0.6996 0.9168
C229 C 0.5314(2) 0.6731(3) 0.87547(13)
H222 H 0.5192 0.6491 0.8338
N37 N 0.0726(2) 0.4202(2) 0.78900(10)
H224 H 0.1361 0.4422 0.8134
O7 O 0.58727(18) 0.6632(3) 0.87833(11)
Co9 Co 0.11819(3) 0.37986(3) 0.75462(2)
C231 C 0.6151(3) 0.6372(4) 0.85508(17)
H227 H 0.6158 0.6627 0.8384
H228 H 0.5952 0.6025 0.8495
C233 C 0.6741(3) 0.6236(4) 0.8643(2)
H231 H 0.6965 0.6585 0.8643
H232 H 0.6732 0.6095 0.8842
C235 C 0.7028(4) 0.5810(6) 0.8458(3)
H235 H 0.7401 0.5733 0.8541
H236 H 0.6811 0.5458 0.8468
C237 C 0.7105(7) 0.5956(7) 0.8153(3)
H239 H 0.6745 0.6077 0.8068
H240 H 0.7246 0.5630 0.8045
C239 C 0.7521(9) 0.6423(8) 0.8146(3)
H243 H 0.7344 0.6780 0.8205
H244 H 0.7838 0.6343 0.8276
C241 C 0.7717(6) 0.6458(8) 0.7846(3)
H247 H 0.7402 0.6580 0.7724
H248 H 0.7834 0.6080 0.7782
C243 C 0.8206(6) 0.6864(8) 0.7809(3)
H251 H 0.8538 0.6731 0.7915
H252 H 0.8104 0.7242 0.7879
C245 C 0.8323(12) 0.6874(13) 0.7488(4)
H255 H 0.7992 0.6758 0.7375
H256 H 0.8648 0.6637 0.7436
C247 C 0.845(2) 0.7516(14) 0.7451(6)
H259 H 0.8541 0.7595 0.7251
H260 H 0.8128 0.7736 0.7510
H261 H 0.8776 0.7617 0.7570
C20_2 C 0.0039(3) 0.8070(3) 0.85023(14)
C21_2 C 0.0011(2) 0.8368(3) 0.89961(13)
H13_2 H 0.0243 0.8004 0.8332
C22_2 C 0.0314(2) 0.8269(3) 0.87453(13)
H14_2 H 0.0192 0.8509 0.9162
O1_2 O 0.08727(18) 0.8368(3) 0.87167(11)
C23_2 C 0.1151(3) 0.8628(4) 0.89492(17)
H15_2 H 0.1158 0.8373 0.9116
H16_2 H 0.0952 0.8975 0.9005
C30_2 C 0.1741(3) 0.8764(4) 0.8857(2)
H21_2 H 0.1965 0.8415 0.8857
H22_2 H 0.1732 0.8905 0.8658
C35_2 C 0.2028(4) 0.9190(6) 0.9042(3)
H27_2 H 0.2401 0.9267 0.8959
H28_2 H 0.1811 0.9542 0.9032
C38_2 C 0.2105(7) 0.9044(7) 0.9347(3)
H29_2 H 0.1745 0.8923 0.9432
H30_2 H 0.2246 0.9370 0.9455
C41_2 C 0.2521(9) 0.8577(8) 0.9354(3)
H31_2 H 0.2344 0.8220 0.9295
H32_2 H 0.2838 0.8657 0.9224
C44_2 C 0.2717(6) 0.8542(8) 0.9654(3)
H35_2 H 0.2402 0.8420 0.9776
H36_2 H 0.2834 0.8920 0.9718
C49_2 C 0.3206(6) 0.8136(8) 0.9691(3)
H37_2 H 0.3538 0.8269 0.9585
H38_2 H 0.3104 0.7758 0.9621
H52_2 H 0.3128 0.7264 0.9990
H53_2 H 0.3776 0.7383 0.9930
N16_2 N 0.0222(2) 0.9887(2) 0.62548(10)
C101_2 C 0.0567(3) 0.9782(3) 0.67318(12)
C106_2 C 0.0515(3) 0.9208(3) 0.67184(12)
C111_2 C 0.0950(5) 0.9651(4) 0.72009(15)
C112_2 C 0.0709(4) 0.8887(3) 0.69486(13)
H101_2 H 0.0351 0.9034 0.6557
H110_2 H 0.1077 0.9813 0.7375
H111_2 H 0.0666 0.8492 0.6940
H136_2 H 0.0056 0.9257 0.4839
C134_2 C 0.0162(2) 0.9663(3) 0.44661(11)
S6_2 S 0.02852(14) 0.75710(11) 0.47057(7)
H140_2 H 0.0557 0.9703 0.4484
S7_2 S 0.0163(3) 0.7590(3) 0.27987(11)
H175_2 H 0.0007 0.5852 0.1659
C190 C 0.0116(2) 0.4746(2) 0.15955(11)
N35_2 N 0.02085(19) 0.5031(2) 0.13527(10)
C194 C 0.0230(2) 0.4182(2) 0.16252(12)
C199 C 0.0426(2) 0.4748(2) 0.11314(11)
H190 H 0.0159 0.3996 0.1801
C200 C 0.0451(2) 0.3887(3) 0.13921(13)
C206 C 0.0546(3) 0.4182(2) 0.11436(12)
C207_2 C 0.0527(2) 0.5076(2) 0.08708(11)
C208 C 0.0572(3) 0.3279(3) 0.14034(14)
H200 H 0.0694 0.3996 0.0981
C215 C 0.0691(3) 0.4835(3) 0.06136(11)
C216_2 C 0.0492(2) 0.5671(2) 0.08738(11)
C217 C 0.0750(3) 0.3014(3) 0.16557(16)
C218 C 0.0509(3) 0.2946(3) 0.11597(17)
H209 H 0.0712 0.4439 0.0597
C225_2 C 0.0823(3) 0.5167(3) 0.03848(12)
C226_2 C 0.0619(2) 0.5966(2) 0.06303(11)
H210_2 H 0.0381 0.5862 0.1042
H211 H 0.0798 0.3229 0.1825
C227 C 0.0858(4) 0.2433(3) 0.1661(2)
C228 C 0.0617(4) 0.2375(3) 0.1163(2)
H212 H 0.0388 0.3116 0.0987
H223 H 0.0939 0.4990 0.0213
H224_2 H 0.0578 0.6361 0.0634
H225 H 0.0981 0.2257 0.1832
C230 C 0.0783(4) 0.2124(3) 0.1416(2)
H226 H 0.0578 0.2159 0.0994
O8 O 0.0867(3) 0.1561(2) 0.13963(17)
C232 C 0.1029(5) 0.1281(4) 0.1647(3)
H229 H 0.0740 0.1323 0.1797
H230 H 0.1388 0.1431 0.1719
C234 C 0.1094(5) 0.0656(4) 0.1559(3)
H233 H 0.0774 0.0546 0.1437
H234 H 0.1086 0.0419 0.1733
C236 C 0.1652(6) 0.0556(5) 0.1396(4)
H237 H 0.1941 0.0427 0.1532
H238 H 0.1781 0.0915 0.1312
C238 C 0.1585(5) 0.0108(5) 0.1150(3)
H241 H 0.1298 0.0241 0.1013
H242 H 0.1944 0.0078 0.1045
S2_2 S 0.7590(3) 0.0163(3) 0.72013(11)
H25_2 H 0.5852 0.0007 0.8341
C40_2 C 0.4746(2) 0.0116(2) 0.84045(11)
N12_2 N 0.5031(2) 0.02085(19) 0.86473(10)
C43_2 C 0.4182(2) 0.0230(2) 0.83748(12)
C47_2 C 0.4748(2) 0.0426(2) 0.88686(11)
H34_2 H 0.3996 0.0159 0.8199
C48_2 C 0.3887(3) 0.0451(2) 0.86079(13)
C53_2 C 0.4182(2) 0.0546(3) 0.88564(12)
C54_2 C 0.5076(2) 0.0527(2) 0.91292(11)
C55_2 C 0.3279(3) 0.0572(3) 0.85966(14)
H40_2 H 0.3996 0.0694 0.9019
C61_2 C 0.4835(3) 0.0691(3) 0.93864(11)
C62_2 C 0.5671(2) 0.0492(2) 0.91262(11)
C63_2 C 0.3014(3) 0.0750(3) 0.83443(16)
C64_2 C 0.2946(3) 0.0509(3) 0.88403(17)
H47_2 H 0.4439 0.0712 0.9403
C70_2 C 0.5167(3) 0.0823(3) 0.96152(12)
C71_2 C 0.5966(2) 0.0619(2) 0.93697(11)
H48_2 H 0.5862 0.0381 0.8958
H49_2 H 0.3229 0.0798 0.8175
C72_2 C 0.2433(3) 0.0858(4) 0.8339(2)
C73_2 C 0.2375(3) 0.0617(4) 0.8837(2)
H50_2 H 0.3116 0.0388 0.9013
H58_2 H 0.4990 0.0939 0.9787
H59_2 H 0.6361 0.0578 0.9366
H60_2 H 0.2257 0.0981 0.8168
C75_2 C 0.2124(3) 0.0783(4) 0.8584(2)
H61_2 H 0.2159 0.0578 0.9006
O3_2 O 0.1561(2) 0.0867(3) 0.86037(17)
C77_2 C 0.1281(4) 0.1029(5) 0.8353(3)
H64_2 H 0.1323 0.0740 0.8203
H65_2 H 0.1431 0.1388 0.8281
C82_2 C 0.0656(4) 0.1094(5) 0.8441(3)
H67_2 H 0.9257 0.0056 0.5161
C84_2 C 0.9663(3) 0.0162(2) 0.55339(11)
S4_2 S 0.75710(11) 0.02852(14) 0.52943(7)
H70_2 H 0.0546 0.0774 0.8563
H71_2 H 0.0419 0.1086 0.8267
C86_2 C 0.0556(5) 0.1652(6) 0.8604(4)
H73_2 H 0.9703 0.0557 0.5516
H76_2 H 0.0427 0.1941 0.8468
H77_2 H 0.0915 0.1781 0.8688
C89_2 C 0.0108(5) 0.1585(5) 0.8850(3)
H80_2 H 0.0241 0.1298 0.8987
H81_2 H 0.0078 0.1944 0.8955
N20_2 N 0.5726(2) 0.0798(2) 0.96100(10)
Co4_2 Co 0.61819(3) 0.12014(3) 0.99538(2)
N25_2 N 0.9887(2) 0.0222(2) 0.37452(10)
C149_2 C 0.9782(3) 0.0567(3) 0.32682(12)
C156_2 C 0.9208(3) 0.0515(3) 0.32816(12)
C163_2 C 0.9651(4) 0.0950(5) 0.27991(15)
C164_2 C 0.8887(3) 0.0709(4) 0.30514(13)
H150_2 H 0.9034 0.0351 0.3443
N28_2 N 0.9110(3) 0.0950(4) 0.28211(11)
H157_2 H 0.9813 0.1077 0.2625
H158_2 H 0.8492 0.0666 0.3060
Co7_3 Co 0.86169(3) 0.13831(3) 0.2500
C223_2 C 0.8070(3) 0.0039(3) 0.14977(14)
C224_2 C 0.8368(3) 0.0011(2) 0.10039(13)
H221_2 H 0.8004 0.0243 0.1668
C229_2 C 0.8269(3) 0.0314(2) 0.12547(13)
H222_2 H 0.8509 0.0192 0.0838
O7_2 O 0.8368(3) 0.08727(18) 0.12833(11)
C231_2 C 0.8628(4) 0.1151(3) 0.10508(17)
H227_2 H 0.8373 0.1158 0.0884
H228_2 H 0.8975 0.0952 0.0995
C233_2 C 0.8764(4) 0.1741(3) 0.1143(2)
H231_2 H 0.8415 0.1965 0.1143
H232_2 H 0.8905 0.1732 0.1342
C235_2 C 0.9190(6) 0.2028(4) 0.0958(3)
H235_2 H 0.9267 0.2401 0.1041
H236_2 H 0.9542 0.1811 0.0968
C237_2 C 0.9044(7) 0.2105(7) 0.0653(3)
H239_2 H 0.8923 0.1745 0.0568
H240_2 H 0.9370 0.2246 0.0545
C239_2 C 0.8577(8) 0.2521(9) 0.0646(3)
H243_2 H 0.8220 0.2344 0.0705
H244_2 H 0.8657 0.2838 0.0776
C241_2 C 0.8542(8) 0.2717(6) 0.0346(3)
H247_2 H 0.8420 0.2402 0.0224
H248_2 H 0.8920 0.2834 0.0282
C243_2 C 0.8136(8) 0.3206(6) 0.0309(3)
H251_2 H 0.8269 0.3538 0.0415
H252_2 H 0.7758 0.3104 0.0379
H260_2 H 0.7264 0.3128 0.0010
H261_2 H 0.7383 0.3776 0.0070
C3_2 C 0.7208(8) 0.5410(6) 0.0044(3)
S1 S 0.7513(4) 0.4829(3) 0.0144(3)
N17_2 N 0.5770(3) 0.7000(4) 0.00156(13)
N18_2 N 0.6845(3) 0.6816(2) 0.03271(10)
N1_2 N 0.6816(2) 0.6845(3) 0.96729(10)
N2_2 N 0.7000(4) 0.5770(3) 0.99844(13)
N3_2 N 0.5890(3) 0.5950(4) 0.96789(11)
C1_2 C 0.7366(3) 0.6927(3) 0.96865(12)
C2_2 C 0.6553(3) 0.7037(4) 0.94387(14)
C4_2 C 0.7669(2) 0.7197(3) 0.94729(12)
H1_2 H 0.7562 0.6795 0.9850
H2_2 H 0.6161 0.6976 0.9424
C5_2 C 0.6808(3) 0.7313(4) 0.92229(13)
C6_2 C 0.7398(2) 0.7393(3) 0.92320(12)
H3_2 H 0.8062 0.7247 0.9493
H4_2 H 0.6596 0.7451 0.9067
C7_2 C 0.7703(2) 0.7643(2) 0.89866(11)
N4_2 N 0.73920(19) 0.7752(2) 0.87513(9)
C8_2 C 0.8274(2) 0.7743(2) 0.90002(11)
C9_2 C 0.7657(2) 0.7960(2) 0.85214(11)
C10_2 C 0.8549(2) 0.7960(2) 0.87608(11)
H5_2 H 0.8476 0.7665 0.9170
C11_2 C 0.8225(2) 0.8065(2) 0.85184(11)
C12_2 C 0.7303(2) 0.8087(2) 0.82667(11)
C13_2 C 0.9159(2) 0.8064(2) 0.87589(12)
H6_2 H 0.8397 0.8208 0.8351
C14_2 C 0.6720(2) 0.8065(2) 0.82765(11)
C15_2 C 0.7541(2) 0.8251(3) 0.80129(13)
C16_2 C 0.9472(3) 0.7970(3) 0.85102(13)
C17_2 C 0.9435(2) 0.8254(3) 0.89978(12)
H7_2 H 0.6535 0.7937 0.8444
C18_2 C 0.6415(2) 0.8229(2) 0.80435(11)
C19_2 C 0.7207(2) 0.8411(3) 0.77879(12)
H8_2 H 0.7937 0.8254 0.7993
H9_2 H 0.9288 0.7834 0.8344
H10_2 H 0.9229 0.8310 0.9169
N5_2 N 0.66450(19) 0.8409(2) 0.77978(9)
H11_2 H 0.6018 0.8215 0.8056
H12_2 H 0.7383 0.8530 0.7617
N6_2 N 0.67124(19) 0.83581(19) 0.71492(9)
N7_2 N 0.6823(2) 0.9443(2) 0.74592(10)
N8_2 N 0.5706(2) 0.9285(2) 0.77607(9)
N9_2 N 0.5591(2) 0.8209(2) 0.74248(10)
C24_2 C 0.6788(2) 0.7811(2) 0.71766(12)
C25_2 C 0.6935(2) 0.8607(2) 0.69185(11)
C26_2 C 0.7157(4) 0.9728(5) 0.7352(2)
C27_2 C 0.5964(2) 0.9550(2) 0.79788(11)
C28_2 C 0.5151(2) 0.9303(3) 0.77435(11)
C29_2 C 0.5275(3) 0.7870(3) 0.73527(15)
C31_2 C 0.7091(2) 0.7490(3) 0.69830(12)
H17_2 H 0.6626 0.7629 0.7337
H18_2 H 0.6892 0.9000 0.6898
C32_2 C 0.7226(3) 0.8316(2) 0.67067(12)
C33_2 C 0.5663(2) 0.9827(3) 0.81883(11)
H19_2 H 0.6361 0.9546 0.7989
H20_2 H 0.4973 0.9125 0.7587
C34_2 C 0.4821(2) 0.9571(3) 0.79439(12)
S3_2 S 0.48399(17) 0.73797(14) 0.72515(9)
C36_2 C 0.7305(2) 0.7741(2) 0.67384(11)
H23_2 H 0.7151 0.7103 0.7018
H24_2 H 0.7367 0.8506 0.6544
C37_2 C 0.5077(2) 0.9841(2) 0.81738(11)
H26_2 H 0.4425 0.9572 0.7925
C39_2 C 0.7573(2) 0.7413(2) 0.65037(12)
N11_2 N 0.7704(2) 0.7697(2) 0.62660(10)
C42_2 C 0.7672(3) 0.6838(2) 0.65345(12)
C45_2 C 0.7927(3) 0.7417(3) 0.60490(13)
C46_2 C 0.7908(3) 0.6547(3) 0.63055(13)
H33_2 H 0.7581 0.6651 0.6707
C50_2 C 0.8021(3) 0.6845(3) 0.60588(14)
C51_2 C 0.8080(3) 0.7763(3) 0.57922(13)
C52_2 C 0.8028(3) 0.5936(3) 0.63215(13)
H39_2 H 0.8162 0.6657 0.5895
C57_2 C 0.8024(3) 0.8326(3) 0.57895(13)
C58_2 C 0.8300(5) 0.7508(3) 0.55490(17)
C59_2 C 0.7980(3) 0.5597(3) 0.60843(15)
C60_2 C 0.8187(3) 0.5690(3) 0.65755(15)
H43_2 H 0.7858 0.8509 0.5949
C66_2 C 0.8205(3) 0.8644(3) 0.55569(13)
C67_2 C 0.8471(5) 0.7843(3) 0.53292(16)
H44_2 H 0.8330 0.7112 0.5537
H45_2 H 0.7867 0.5755 0.5907
C68_2 C 0.8095(3) 0.5034(3) 0.60996(16)
C69_2 C 0.8306(3) 0.5127(3) 0.65967(15)
H46_2 H 0.8214 0.5917 0.6742
N13_2 N 0.8435(3) 0.8406(3) 0.53248(11)
H54_2 H 0.8165 0.9040 0.5563
H55_2 H 0.8627 0.7665 0.5166
H56 H 0.8063 0.4810 0.5933
C74 C 0.8254(3) 0.4793(3) 0.63526(17)
H57 H 0.8421 0.4969 0.6773
Co3_2 Co 0.88740(3) 0.88740(3) 0.5000
O2 O 0.8351(3) 0.4230(2) 0.63511(13)
N14_2 N 0.9350(2) 0.92960(19) 0.53290(9)
N15_2 N 0.8266(2) 0.9503(3) 0.50257(11)
C76 C 0.8516(4) 0.3971(4) 0.6610(2)
C78_2 C 0.9560(3) 0.9036(2) 0.55536(12)
C79_2 C 0.9404(3) 0.9860(2) 0.53207(11)
C80_2 C 0.7972(3) 0.9830(4) 0.51286(16)
H62 H 0.8220 0.4024 0.6755
H63 H 0.8863 0.4148 0.6681
C81 C 0.8615(6) 0.3349(4) 0.6563(3)
C83_2 C 0.9809(3) 0.9301(2) 0.57813(12)
H66_2 H 0.9538 0.8639 0.5558
H68 H 0.8898 0.3303 0.6411
H69 H 0.8262 0.3177 0.6495
C85 C 0.8813(10) 0.3033(7) 0.6829(4)
C87_2 C 0.9866(2) 0.9888(2) 0.57774(10)
H72_2 H 0.9940 0.9091 0.5940
H74 H 0.9169 0.3194 0.6899
H75 H 0.8530 0.3065 0.6982
C88 C 0.8895(15) 0.2429(8) 0.6750(4)
H78 H 0.9245 0.2384 0.6639
H79 H 0.8578 0.2295 0.6632
C91 C 0.8929(19) 0.2090(10) 0.7031(5)
H82 H 0.8689 0.2278 0.7174
H83 H 0.9319 0.2111 0.7101
C94 C 0.8756(16) 0.1456(11) 0.7018(6)
H87 H 0.8448 0.1410 0.7157
H88 H 0.8589 0.1397 0.6827
C98 C 0.9159(19) 0.0953(14) 0.7068(9)
H91 H 0.9194 0.1025 0.7275
H92 H 0.9487 0.1150 0.6987
C103 C 0.9475(15) 0.0366(14) 0.7085(8)
H96 H 0.9450 0.0226 0.6887
H97 H 0.9871 0.0478 0.7110
C125_2 C 0.5410(6) 0.7208(8) 0.9956(3)
S5_2 S 0.4829(3) 0.7513(4) 0.9856(3)
N21_2 N 0.8406(3) 0.8435(3) 0.46752(11)
N22_2 N 0.92960(19) 0.9350(2) 0.46710(9)
N23_2 N 0.9503(3) 0.8266(2) 0.49743(11)
C126_2 C 0.8644(3) 0.8205(3) 0.44431(13)
C127_2 C 0.7843(3) 0.8471(5) 0.46708(16)
C128_2 C 0.9036(2) 0.9560(3) 0.44464(12)
C129_2 C 0.9860(2) 0.9404(3) 0.46793(11)
C130_2 C 0.9830(4) 0.7972(3) 0.48714(16)
C131_2 C 0.8326(3) 0.8024(3) 0.42105(13)
H133_2 H 0.9040 0.8165 0.4437
H134_2 H 0.7665 0.8627 0.4834
C132_2 C 0.7508(3) 0.8300(5) 0.44510(17)
C133_2 C 0.9301(2) 0.9809(3) 0.42187(12)
H135_2 H 0.8639 0.9538 0.4442
C135_2 C 0.7763(3) 0.8080(3) 0.42078(13)
H137_2 H 0.8509 0.7858 0.4051
H138_2 H 0.7112 0.8330 0.4463
C136_2 C 0.9888(2) 0.9866(2) 0.42226(10)
H139_2 H 0.9091 0.9940 0.4060
C137_2 C 0.7417(3) 0.7927(3) 0.39510(13)
N24_2 N 0.7697(2) 0.7704(2) 0.37340(10)
C139_2 C 0.6845(3) 0.8021(3) 0.39412(14)
C141_2 C 0.7413(2) 0.7573(2) 0.34963(12)
H141_2 H 0.6657 0.8162 0.4105
C142_2 C 0.6547(3) 0.7908(3) 0.36945(13)
C145_2 C 0.6838(2) 0.7672(3) 0.34655(12)
C146_2 C 0.7741(2) 0.7305(2) 0.32616(11)
C147_2 C 0.5936(3) 0.8028(3) 0.36785(13)
H143_2 H 0.6651 0.7581 0.3293
C151_2 C 0.7490(3) 0.7091(2) 0.30170(12)
C152_2 C 0.8316(2) 0.7226(3) 0.32933(12)
C153_2 C 0.5597(3) 0.7980(3) 0.39157(15)
C154_2 C 0.5690(3) 0.8187(3) 0.34245(15)
H145_2 H 0.7103 0.7151 0.2982
C159_2 C 0.7811(2) 0.6788(2) 0.28234(12)
C160_2 C 0.8607(2) 0.6935(2) 0.30815(11)
H146_2 H 0.8506 0.7367 0.3456
H147_2 H 0.5755 0.7867 0.4093
C161_2 C 0.5034(3) 0.8095(3) 0.39004(16)
C162_2 C 0.5127(3) 0.8306(3) 0.34033(15)
H148_2 H 0.5917 0.8214 0.3258
N27_2 N 0.83581(19) 0.67124(19) 0.28508(9)
H153_2 H 0.7629 0.6626 0.2663
H154_2 H 0.9000 0.6892 0.3102
H155_2 H 0.4810 0.8063 0.4067
C167_2 C 0.4793(3) 0.8254(3) 0.36474(17)
H156_2 H 0.4969 0.8421 0.3227
Co6_2 Co 0.88181(3) 0.62014(3) 0.25462(2)
O5_2 O 0.4230(2) 0.8351(3) 0.36489(13)
N29_2 N 0.8409(2) 0.66450(19) 0.22022(9)
N30_2 N 0.9443(2) 0.6823(2) 0.25408(10)
N31_2 N 0.9285(2) 0.5706(2) 0.22393(9)
N32_2 N 0.8209(2) 0.5591(2) 0.25752(10)
N33_2 N 0.9274(2) 0.5798(2) 0.28900(10)
C169_2 C 0.3971(4) 0.8516(4) 0.3390(2)
C171_2 C 0.8229(2) 0.6415(2) 0.19565(11)
C172_2 C 0.8411(3) 0.7207(2) 0.22121(12)
C173_2 C 0.9728(5) 0.7157(4) 0.2648(2)
C174_2 C 0.9550(2) 0.5964(2) 0.20212(11)
C175_2 C 0.9303(3) 0.5151(2) 0.22565(11)
C176_2 C 0.7870(3) 0.5275(3) 0.26473(15)
H161_2 H 0.4024 0.8220 0.3245
H162_2 H 0.4148 0.8863 0.3319
C177_2 C 0.3349(4) 0.8615(6) 0.3437(3)
C179_2 C 0.8065(2) 0.6720(2) 0.17235(11)
H165_2 H 0.8215 0.6018 0.1944
H166_2 H 0.8530 0.7383 0.2383
C180_2 C 0.8251(3) 0.7541(2) 0.19871(13)
C181_2 C 0.9827(3) 0.5663(2) 0.18117(11)
H167_2 H 0.9546 0.6361 0.2011
H168 H 0.9125 0.4973 0.2413
C182 C 0.9571(3) 0.4821(2) 0.20561(12)
S8 S 0.73797(14) 0.48399(17) 0.27485(9)
H169_2 H 0.3303 0.8898 0.3589
H170_2 H 0.3177 0.8262 0.3505
C183_2 C 0.3033(7) 0.8813(10) 0.3171(4)
C185_2 C 0.8087(2) 0.7303(2) 0.17333(11)
H173_2 H 0.7937 0.6535 0.1556
H174_2 H 0.8254 0.7937 0.2007
C186_2 C 0.9841(2) 0.5077(2) 0.18262(11)
H176 H 0.9572 0.4425 0.2075
H177_2 H 0.3194 0.9169 0.3101
H178_2 H 0.3065 0.8530 0.3018
C187_2 C 0.2429(8) 0.8895(15) 0.3250(4)
C189_2 C 0.7960(2) 0.7657(2) 0.14786(11)
H181_2 H 0.2384 0.9245 0.3361
H182_2 H 0.2295 0.8578 0.3368
C191_2 C 0.2090(10) 0.8929(19) 0.2969(5)
N34_2 N 0.7752(2) 0.73920(19) 0.12487(9)
C193_2 C 0.8065(2) 0.8225(2) 0.14816(11)
H185_2 H 0.2278 0.8689 0.2826
H186_2 H 0.2111 0.9319 0.2899
C195_2 C 0.1456(11) 0.8756(16) 0.2982(6)
C197_2 C 0.7643(2) 0.7703(2) 0.10134(11)
H189_2 H 0.8208 0.8397 0.1649
C198_2 C 0.7960(2) 0.8549(2) 0.12392(11)
H191_2 H 0.1410 0.8448 0.2843
H192_2 H 0.1397 0.8589 0.3173
C201_2 C 0.0953(14) 0.9159(19) 0.2932(9)
C203_2 C 0.7743(2) 0.8274(2) 0.09998(11)
C204_2 C 0.7393(3) 0.7398(2) 0.07680(12)
C205_2 C 0.8064(2) 0.9159(2) 0.12411(12)
H195_2 H 0.1025 0.9194 0.2725
H196_2 H 0.1150 0.9487 0.3013
C209_2 C 0.0366(14) 0.9475(15) 0.2915(8)
H199_2 H 0.7665 0.8476 0.0830
C211_2 C 0.7197(3) 0.7669(2) 0.05271(12)
C212_2 C 0.7313(4) 0.6808(3) 0.07771(13)
C213_2 C 0.7970(3) 0.9472(3) 0.14898(13)
C214_2 C 0.8254(3) 0.9435(2) 0.10022(12)
H201_2 H 0.0226 0.9450 0.3113
H202_2 H 0.0478 0.9871 0.2890
H205_2 H 0.7247 0.8062 0.0507
C221_2 C 0.6927(3) 0.7366(3) 0.03135(12)
C222_2 C 0.7037(4) 0.6553(3) 0.05613(14)
H206_2 H 0.7451 0.6596 0.0933
H207_2 H 0.7834 0.9288 0.1656
H208_2 H 0.8310 0.9229 0.0831
H219_2 H 0.6795 0.7562 0.0150
H220_2 H 0.6976 0.6161 0.0576
N1_3 N 0.8155(3) 0.1816(2) 0.21729(10)
N2_3 N 0.9230(3) 0.2000(4) 0.24844(13)
N3_3 N 0.9050(4) 0.0890(3) 0.21789(11)
C1_3 C 0.8073(3) 0.2366(3) 0.21865(12)
C2_3 C 0.7963(4) 0.1553(3) 0.19387(14)
C3_3 C 0.9590(6) 0.2208(8) 0.2544(3)
C4_3 C 0.7803(3) 0.2669(2) 0.19729(12)
H1_3 H 0.8205 0.2562 0.2350
H2_3 H 0.8024 0.1161 0.1924
C5_3 C 0.7687(4) 0.1808(3) 0.17229(13)
C6_3 C 0.7607(3) 0.2398(2) 0.17320(12)
H3_3 H 0.7753 0.3062 0.1993
H4_3 H 0.7549 0.1596 0.1567
C7_3 C 0.7357(2) 0.2703(2) 0.14866(11)
N4_3 N 0.7248(2) 0.23920(19) 0.12513(9)
C8_3 C 0.7257(2) 0.3274(2) 0.15002(11)
C9_3 C 0.7040(2) 0.2657(2) 0.10214(11)
C10_3 C 0.7040(2) 0.3549(2) 0.12608(11)
H5_3 H 0.7335 0.3476 0.1670
C11_3 C 0.6935(2) 0.3225(2) 0.10184(11)
C12_3 C 0.6913(2) 0.2303(2) 0.07667(11)
C13_3 C 0.6936(2) 0.4159(2) 0.12589(12)
H6_3 H 0.6792 0.3397 0.0851
C14_3 C 0.6935(2) 0.1720(2) 0.07765(11)
C15_3 C 0.6749(3) 0.2541(2) 0.05129(13)
C16_3 C 0.7030(3) 0.4472(3) 0.10102(13)
C17_3 C 0.6746(3) 0.4435(2) 0.14978(12)
H7_3 H 0.7063 0.1535 0.0944
C18_3 C 0.6771(2) 0.1415(2) 0.05435(11)
C19_3 C 0.6589(3) 0.2207(2) 0.02879(12)
H8_3 H 0.6746 0.2937 0.0493
H9_3 H 0.7166 0.4288 0.0844
C20_3 C 0.6930(3) 0.5039(3) 0.10023(14)
C21_3 C 0.6632(3) 0.5011(2) 0.14961(13)
H10_3 H 0.6690 0.4229 0.1669
N5_3 N 0.6591(2) 0.16450(19) 0.02978(9)
H11_3 H 0.6785 0.1018 0.0556
H12_3 H 0.6470 0.2383 0.0117
H13_3 H 0.6996 0.5243 0.0832
C22_3 C 0.6731(3) 0.5314(2) 0.12453(13)
H14_3 H 0.6491 0.5192 0.1662
O1_3 O 0.6632(3) 0.58727(18) 0.12167(11)
N8_3 N 0.5715(2) 0.0706(2) 0.02607(9)
C23_3 C 0.6372(4) 0.6151(3) 0.14492(17)
C27_3 C 0.5450(2) 0.0964(2) 0.04788(11)
C28_3 C 0.5697(3) 0.0151(2) 0.02435(11)
H15_3 H 0.6627 0.6158 0.1616
H16_3 H 0.6025 0.5952 0.1505
C30_3 C 0.6236(4) 0.6741(3) 0.1357(2)
C33_3 C 0.5173(3) 0.0663(2) 0.06883(11)
H19_3 H 0.5454 0.1361 0.0489
H21_3 H 0.6585 0.6965 0.1357
H22_3 H 0.6095 0.6732 0.1158
C35_3 C 0.5810(6) 0.7028(4) 0.1542(3)
C37_3 C 0.5159(2) 0.0077(2) 0.06738(11)
H25_3 H 0.4993 0.0852 0.0841
H27_3 H 0.5733 0.7401 0.1459
H28_3 H 0.5458 0.6811 0.1532
C38_3 C 0.5956(7) 0.7105(7) 0.1847(3)
H29_3 H 0.6077 0.6745 0.1932
H30_3 H 0.5630 0.7246 0.1955
C41_3 C 0.6423(8) 0.7521(9) 0.1854(3)
N12_3 N 0.47915(19) 0.0031(2) 0.11473(10)
H31_3 H 0.6780 0.7344 0.1795
H32_3 H 0.6343 0.7838 0.1724
C44_3 C 0.6458(8) 0.7717(6) 0.2154(3)
H35_3 H 0.6580 0.7402 0.2276
H36_3 H 0.6080 0.7834 0.2218
C49_3 C 0.6864(8) 0.8206(6) 0.2191(3)
C54_3 C 0.4473(2) 0.0076(2) 0.16292(11)
H37_3 H 0.6731 0.8538 0.2085
H38_3 H 0.7242 0.8104 0.2121
C56_2 C 0.6874(13) 0.8323(12) 0.2512(4)
C62_3 C 0.4508(2) 0.0671(2) 0.16262(11)
H41_2 H 0.6758 0.7992 0.2625
H42_2 H 0.6637 0.8648 0.2564
C65_2 C 0.7516(14) 0.845(2) 0.2549(6)
C70_3 C 0.4177(3) 0.0167(3) 0.21152(12)
C71_3 C 0.4381(2) 0.0966(2) 0.18697(11)
H48_3 H 0.4619 0.0862 0.1458
H51_2 H 0.7595 0.8541 0.2749
H52_3 H 0.7736 0.8128 0.2490
H53_3 H 0.7617 0.8776 0.2430
H59_3 H 0.4422 0.1361 0.1866
N17_3 N 0.8000(4) 0.0770(3) 0.25156(13)
N18_3 N 0.8184(2) 0.1845(3) 0.28271(10)
C125_3 C 0.7792(8) 0.0410(6) 0.2456(3)
N20_3 N 0.4202(2) 0.0726(2) 0.21100(10)
Co4_3 Co 0.37986(3) 0.11819(3) 0.24538(2)
N6_3 N 0.66419(19) 0.17124(19) 0.96492(9)
N7_3 N 0.5557(2) 0.1823(2) 0.99592(10)
N9_3 N 0.6791(2) 0.0591(2) 0.99248(10)
C24_3 C 0.7189(2) 0.1788(2) 0.96766(12)
C25_3 C 0.6393(2) 0.1935(2) 0.94185(11)
C26_3 C 0.5272(5) 0.2157(4) 0.9852(2)
C29_3 C 0.7130(3) 0.0275(3) 0.98527(15)
C31_3 C 0.7510(3) 0.2091(2) 0.94830(12)
H17_3 H 0.7371 0.1626 0.9837
H18_3 H 0.6000 0.1892 0.9398
C32_3 C 0.6684(2) 0.2226(3) 0.92067(12)
S2_3 S 0.4837(3) 0.2590(3) 0.97013(11)
C36_3 C 0.7259(2) 0.2305(2) 0.92384(11)
H23_3 H 0.7897 0.2151 0.9518
H24_3 H 0.6494 0.2367 0.9044
C39_3 C 0.7587(2) 0.2573(2) 0.90037(12)
N11_3 N 0.7303(2) 0.2704(2) 0.87660(10)
C42_3 C 0.8162(2) 0.2672(3) 0.90345(12)
C45_3 C 0.7583(3) 0.2927(3) 0.85490(13)
C46_3 C 0.8453(3) 0.2908(3) 0.88055(13)
H33_3 H 0.8349 0.2581 0.9207
C50_3 C 0.8155(3) 0.3021(3) 0.85588(14)
C51_3 C 0.7237(3) 0.3080(3) 0.82922(13)
C52_3 C 0.9064(3) 0.3028(3) 0.88215(13)
H39_3 H 0.8343 0.3162 0.8395
C57_3 C 0.6674(3) 0.3024(3) 0.82895(13)
C58_3 C 0.7492(3) 0.3300(5) 0.80490(17)
C59_3 C 0.9403(3) 0.2980(3) 0.85843(15)
C60_3 C 0.9310(3) 0.3187(3) 0.90755(15)
H43_3 H 0.6491 0.2858 0.8449
C66_3 C 0.6356(3) 0.3205(3) 0.80569(13)
C67_3 C 0.7157(3) 0.3471(5) 0.78292(16)
H44_3 H 0.7888 0.3330 0.8037
H45_3 H 0.9245 0.2867 0.8407
C68_3 C 0.9966(3) 0.3095(3) 0.85996(16)
C69_3 C 0.9873(3) 0.3306(3) 0.90967(15)
H46_3 H 0.9083 0.3214 0.9242
N13_3 N 0.6594(3) 0.3435(3) 0.78248(11)
H54_3 H 0.5960 0.3165 0.8063
H55_3 H 0.7335 0.3627 0.7666
Co3_3 Co 0.61260(3) 0.38740(3) 0.7500
N14_3 N 0.57040(19) 0.4350(2) 0.78290(9)
N15_3 N 0.5497(3) 0.3266(2) 0.75257(11)
C78_3 C 0.5964(2) 0.4560(3) 0.80536(12)
C79_3 C 0.5140(2) 0.4404(3) 0.78207(11)
C80_3 C 0.5170(4) 0.2972(3) 0.76286(16)
C83_3 C 0.5699(2) 0.4809(3) 0.82813(12)
H66_3 H 0.6361 0.4538 0.8058
H67_3 H 0.4944 0.4257 0.7661
C84_3 C 0.4838(2) 0.4663(3) 0.80339(11)
S4_3 S 0.47148(14) 0.25710(11) 0.77943(7)
C87_3 C 0.5112(2) 0.4866(2) 0.82774(10)
H72_3 H 0.5909 0.4940 0.8440
H73_3 H 0.4443 0.4703 0.8016
C90_2 C 0.4806(2) 0.5107(2) 0.85256(11)
N16_3 N 0.5113(2) 0.5222(2) 0.87548(10)
C93_2 C 0.4229(2) 0.5195(2) 0.85158(12)
C96_2 C 0.4850(3) 0.5429(3) 0.89859(11)
H86_2 H 0.4027 0.5118 0.8346
C97_2 C 0.3950(2) 0.5394(2) 0.87550(12)
C100_2 C 0.4282(3) 0.5515(2) 0.89933(11)
C101_3 C 0.5218(3) 0.5567(3) 0.92318(12)
C102_2 C 0.3342(3) 0.5505(3) 0.87547(13)
H95_2 H 0.4113 0.5658 0.9162
C105_2 C 0.4992(4) 0.5775(5) 0.94848(15)
C106_3 C 0.5792(3) 0.5515(3) 0.92184(12)
C107_2 C 0.3065(3) 0.5676(3) 0.85138(14)
C108_2 C 0.3026(3) 0.5425(3) 0.90043(14)
H100_2 H 0.4598 0.5798 0.9509
C111_3 C 0.5349(4) 0.5950(5) 0.97009(15)
C112_3 C 0.6113(3) 0.5709(4) 0.94486(13)
H101_3 H 0.5966 0.5351 0.9057
H102_2 H 0.3271 0.5725 0.8342
C113_2 C 0.2484(3) 0.5781(3) 0.85111(17)
C114_2 C 0.2451(3) 0.5519(3) 0.90082(15)
H103_2 H 0.3208 0.5305 0.9174
H110_3 H 0.5187 0.6077 0.9875
H111_3 H 0.6508 0.5666 0.9440
H112_2 H 0.2305 0.5908 0.8342
C115_2 C 0.2177(3) 0.5696(3) 0.87623(17)
H113_2 H 0.2246 0.5463 0.9179
O4_2 O 0.1619(2) 0.5782(3) 0.87917(14)
C116_2 C 0.1335(4) 0.5979(5) 0.8554(3)
H114_2 H 0.1336 0.5692 0.8402
H115_2 H 0.1519 0.6321 0.8480
C117_2 C 0.0730(4) 0.6113(5) 0.8643(3)
H116_2 H 0.0563 0.5781 0.8736
H117_2 H 0.0731 0.6424 0.8783
C118_2 C 0.0378(5) 0.6277(8) 0.8384(3)
H118_2 H 0.0582 0.6572 0.8279
H119_2 H 0.0352 0.5947 0.8257
N21_3 N 0.6565(3) 0.3406(3) 0.71752(11)
N22_3 N 0.5650(2) 0.42960(19) 0.71710(9)
N23_3 N 0.6734(2) 0.4503(3) 0.74743(11)
C126_3 C 0.6795(3) 0.3644(3) 0.69431(13)
C127_3 C 0.6529(5) 0.2843(3) 0.71708(16)
C128_3 C 0.5440(3) 0.4036(2) 0.69464(12)
C129_3 C 0.5596(3) 0.4860(2) 0.71793(11)
C130_3 C 0.7028(3) 0.4830(4) 0.73714(16)
C131_3 C 0.6976(3) 0.3326(3) 0.67105(13)
H133_3 H 0.6835 0.4040 0.6937
H134_3 H 0.6373 0.2665 0.7334
C132_3 C 0.6700(5) 0.2508(3) 0.69510(17)
C133_3 C 0.5191(3) 0.4301(2) 0.67187(12)
H135_3 H 0.5462 0.3639 0.6942
H136_3 H 0.5743 0.5056 0.7339
C134_3 C 0.5337(3) 0.5162(2) 0.69661(11)
S6_3 S 0.74290(11) 0.52852(14) 0.72057(7)
C135_3 C 0.6920(3) 0.2763(3) 0.67078(13)
H137_3 H 0.7142 0.3509 0.6551
H138_3 H 0.6670 0.2112 0.6963
C136_3 C 0.5134(2) 0.4888(2) 0.67226(10)
H139_3 H 0.5060 0.4091 0.6560
H140_3 H 0.5297 0.5557 0.6984
C137_3 C 0.7073(3) 0.2417(3) 0.64510(13)
C138_2 C 0.4893(2) 0.5194(2) 0.64744(11)
N24_3 N 0.7296(2) 0.2697(2) 0.62340(10)
C139_3 C 0.6979(3) 0.1845(3) 0.64412(14)
N25_3 N 0.4778(2) 0.4887(2) 0.62452(10)
C140_2 C 0.4805(2) 0.5771(2) 0.64842(12)
C141_3 C 0.7427(2) 0.2413(2) 0.59963(12)
H141_3 H 0.6838 0.1657 0.6605
C142_3 C 0.7092(3) 0.1547(3) 0.61945(13)
C143_2 C 0.4571(3) 0.5150(3) 0.60141(11)
H142_2 H 0.4882 0.5973 0.6654
C144_2 C 0.4606(2) 0.6050(2) 0.62450(12)
C145_3 C 0.7328(3) 0.1838(2) 0.59655(12)
C146_3 C 0.7695(2) 0.2741(2) 0.57616(11)
C147_3 C 0.6972(3) 0.0936(3) 0.61785(13)
C148_2 C 0.4485(2) 0.5718(3) 0.60067(11)
C149_3 C 0.4433(3) 0.4782(3) 0.57682(12)
C150_2 C 0.4495(3) 0.6658(3) 0.62453(13)
H143_3 H 0.7419 0.1651 0.5793
C151_3 C 0.7909(2) 0.2490(3) 0.55170(12)
C152_3 C 0.7774(3) 0.3316(2) 0.57933(12)
C153_3 C 0.7020(3) 0.0597(3) 0.64157(15)
C154_3 C 0.6813(3) 0.0690(3) 0.59245(15)
H144_2 H 0.4342 0.5887 0.5838
C155_2 C 0.4225(5) 0.5008(4) 0.55152(15)
C156_3 C 0.4485(3) 0.4208(3) 0.57816(12)
C157_2 C 0.4324(3) 0.6935(3) 0.64862(14)
C158_2 C 0.4575(3) 0.6974(3) 0.59957(14)
H145_3 H 0.7849 0.2103 0.5482
C159_3 C 0.8212(2) 0.2811(2) 0.53234(12)
C160_3 C 0.8065(2) 0.3607(2) 0.55815(11)
H146_3 H 0.7633 0.3506 0.5956
H147_3 H 0.7133 0.0755 0.6593
C161_3 C 0.6905(3) 0.0034(3) 0.64004(16)
C162_3 C 0.6694(3) 0.0127(3) 0.59033(15)
H148_3 H 0.6786 0.0917 0.5758
H149_2 H 0.4202 0.5402 0.5491
C163_3 C 0.4050(5) 0.4651(4) 0.52991(15)
C164_3 C 0.4291(4) 0.3887(3) 0.55514(13)
H150_3 H 0.4649 0.4034 0.5943
H151_2 H 0.4275 0.6729 0.6658
C165_2 C 0.4219(3) 0.7516(3) 0.64889(17)
C166_2 C 0.4481(3) 0.7549(3) 0.59918(15)
H152_2 H 0.4695 0.6792 0.5826
N27_3 N 0.82876(19) 0.33581(19) 0.53508(9)
H153_3 H 0.8374 0.2629 0.5163
H154_3 H 0.8108 0.4000 0.5602
N28_3 N 0.4050(4) 0.4110(3) 0.53211(11)
H157_3 H 0.3923 0.4813 0.5125
H158_3 H 0.4334 0.3492 0.5560
H159_2 H 0.4092 0.7695 0.6658
C168_2 C 0.4304(3) 0.7823(3) 0.62377(17)
H160_2 H 0.4537 0.7754 0.5821
Co6_3 Co 0.87986(3) 0.38181(3) 0.50462(2)
O6_2 O 0.4218(3) 0.8381(2) 0.62083(14)
N29_3 N 0.83550(19) 0.3409(2) 0.47022(9)
N30_3 N 0.8177(2) 0.4443(2) 0.50408(10)
N31_3 N 0.9294(2) 0.4285(2) 0.47393(9)
N32_3 N 0.9409(2) 0.3209(2) 0.50752(10)
N33_3 N 0.9202(2) 0.4274(2) 0.53900(10)
C170_2 C 0.4021(5) 0.8665(4) 0.6446(3)
C171_3 C 0.8585(2) 0.3229(2) 0.44565(11)
C172_3 C 0.7793(2) 0.3411(3) 0.47121(12)
C173_3 C 0.7843(4) 0.4728(5) 0.5148(2)
C174_3 C 0.9036(2) 0.4550(2) 0.45212(11)
C175_3 C 0.9849(2) 0.4303(3) 0.47565(11)
C176_3 C 0.9725(3) 0.2870(3) 0.51473(15)
H163_2 H 0.4308 0.8664 0.6598
H164_2 H 0.3679 0.8481 0.6520
C178_2 C 0.3887(5) 0.9270(4) 0.6357(3)
C179_3 C 0.8280(2) 0.3065(2) 0.42235(11)
H165_3 H 0.8982 0.3215 0.4444
H166_3 H 0.7617 0.3530 0.4883
C180_3 C 0.7459(2) 0.3251(3) 0.44871(13)
S7_3 S 0.7410(3) 0.5163(3) 0.52987(11)
C181_3 C 0.9337(2) 0.4827(3) 0.43117(11)
H167_3 H 0.8639 0.4546 0.4511
H171_2 H 0.4219 0.9437 0.6264
H172_2 H 0.3576 0.9269 0.6217
C184_2 C 0.3723(8) 0.9622(5) 0.6616(3)
C185_3 C 0.7697(2) 0.3087(2) 0.42333(11)
H173_3 H 0.8465 0.2937 0.4056
H174_3 H 0.7063 0.3254 0.4507
C186_3 C 0.9923(2) 0.4841(2) 0.43262(11)
H175_3 H 0.9148 0.5007 0.4159
H179_2 H 0.3428 0.9418 0.6721
H180_2 H 0.4053 0.9648 0.6743
C189_3 C 0.7343(2) 0.2960(2) 0.39786(11)
N34_3 N 0.76080(19) 0.2752(2) 0.37487(9)
C193_3 C 0.6775(2) 0.3065(2) 0.39816(11)
N35_3 N 0.9969(2) 0.52085(19) 0.38527(10)
C197_3 C 0.7297(2) 0.2643(2) 0.35134(11)
H189_3 H 0.6603 0.3208 0.4149
C198_3 C 0.6451(2) 0.2960(2) 0.37392(11)
C203_3 C 0.6726(2) 0.2743(2) 0.34998(11)
C204_3 C 0.7602(2) 0.2393(3) 0.32680(12)
C205_3 C 0.5841(2) 0.3064(2) 0.37411(12)
C207_3 C 0.9924(2) 0.5527(2) 0.33708(11)
H199_3 H 0.6524 0.2665 0.3330
C211_3 C 0.7331(2) 0.2197(3) 0.30271(12)
C212_3 C 0.8192(3) 0.2313(4) 0.32771(13)
C213_3 C 0.5528(3) 0.2970(3) 0.39898(13)
C214_3 C 0.5565(2) 0.3254(3) 0.35022(12)
C216_3 C 0.9329(2) 0.5492(2) 0.33738(11)
H205_3 H 0.6938 0.2247 0.3007
C221_3 C 0.7634(3) 0.1927(3) 0.28135(12)
C222_3 C 0.8447(3) 0.2037(4) 0.30613(14)
H206_3 H 0.8404 0.2451 0.3433
H207_3 H 0.5712 0.2834 0.4156
C223_3 C 0.4961(3) 0.3070(3) 0.39977(14)
C224_3 C 0.4989(2) 0.3368(3) 0.35039(13)
H208_3 H 0.5771 0.3310 0.3331
C225_3 C 0.9833(3) 0.5823(3) 0.28848(12)
C226_3 C 0.9034(2) 0.5619(2) 0.31303(11)
H210_3 H 0.9138 0.5381 0.3542
H219_3 H 0.7438 0.1795 0.2650
H220_3 H 0.8839 0.1976 0.3076
H221_3 H 0.4757 0.3004 0.4168
C229_3 C 0.4686(2) 0.3269(3) 0.37547(13)
H222_3 H 0.4808 0.3509 0.3338
H224_3 H 0.8639 0.5578 0.3134
O7_3 O 0.41273(18) 0.3368(3) 0.37833(11)
C231_3 C 0.3849(3) 0.3628(4) 0.35508(17)
H227_3 H 0.3842 0.3373 0.3384
H228_3 H 0.4048 0.3975 0.3495
C233_3 C 0.3259(3) 0.3764(4) 0.3643(2)
H231_3 H 0.3035 0.3415 0.3643
H232_3 H 0.3268 0.3905 0.3842
C235_3 C 0.2972(4) 0.4190(6) 0.3458(3)
H235_3 H 0.2599 0.4267 0.3541
H236_3 H 0.3189 0.4542 0.3468
C237_3 C 0.2895(7) 0.4044(7) 0.3153(3)
H239_3 H 0.3255 0.3923 0.3068
H240_3 H 0.2754 0.4370 0.3045
C239_3 C 0.2479(9) 0.3577(8) 0.3146(3)
H243_3 H 0.2656 0.3220 0.3205
H244_3 H 0.2162 0.3657 0.3276
C241_3 C 0.2283(6) 0.3542(8) 0.2846(3)
H247_3 H 0.2598 0.3420 0.2724
H248_3 H 0.2166 0.3920 0.2782
C243_3 C 0.1794(6) 0.3136(8) 0.2809(3)
H251_3 H 0.1462 0.3269 0.2915
H252_3 H 0.1896 0.2758 0.2879
C245_2 C 0.1677(12) 0.3126(13) 0.2488(4)
H255_2 H 0.2008 0.3242 0.2375
H256_2 H 0.1352 0.3363 0.2436
C247_2 C 0.155(2) 0.2484(14) 0.2451(6)
H259_2 H 0.1459 0.2405 0.2251
H260_3 H 0.1872 0.2264 0.2510
H261_3 H 0.1224 0.2383 0.2570
N1_4 N 0.3184(2) 0.3155(3) 0.46729(10)
N2_4 N 0.3000(4) 0.4230(3) 0.49844(13)
C1_4 C 0.2634(3) 0.3073(3) 0.46865(12)
C2_4 C 0.3447(3) 0.2963(4) 0.44387(14)
C3_4 C 0.2792(8) 0.4590(6) 0.5044(3)
C4_4 C 0.2331(2) 0.2803(3) 0.44729(12)
H1_4 H 0.2438 0.3205 0.4850
H2_4 H 0.3839 0.3024 0.4424
C5_4 C 0.3192(3) 0.2687(4) 0.42229(13)
S1_2 S 0.2487(4) 0.5171(3) 0.5144(3)
C6_4 C 0.2602(2) 0.2607(3) 0.42320(12)
H3_4 H 0.1938 0.2753 0.4493
H4_4 H 0.3404 0.2549 0.4067
C7_4 C 0.2297(2) 0.2357(2) 0.39866(11)
N4_4 N 0.26080(19) 0.2248(2) 0.37513(9)
C8_4 C 0.1726(2) 0.2257(2) 0.40002(11)
C9_4 C 0.2343(2) 0.2040(2) 0.35214(11)
C10_4 C 0.1451(2) 0.2040(2) 0.37608(11)
H5_4 H 0.1524 0.2335 0.4170
C11_4 C 0.1775(2) 0.1935(2) 0.35184(11)
C12_4 C 0.2697(2) 0.1913(2) 0.32667(11)
C13_4 C 0.0841(2) 0.1936(2) 0.37589(12)
H6_4 H 0.1603 0.1792 0.3351
C14_4 C 0.3280(2) 0.1935(2) 0.32765(11)
C15_4 C 0.2459(2) 0.1749(3) 0.30129(13)
C16_4 C 0.0528(3) 0.2030(3) 0.35102(13)
C17_4 C 0.0565(2) 0.1746(3) 0.39978(12)
H7_4 H 0.3465 0.2063 0.3444
C18_4 C 0.3585(2) 0.1771(2) 0.30435(11)
C19_4 C 0.2793(2) 0.1589(3) 0.27879(12)
H8_4 H 0.2063 0.1746 0.2993
H9_4 H 0.0712 0.2166 0.3344
H10_4 H 0.0771 0.1690 0.4169
N5_4 N 0.33550(19) 0.1591(2) 0.27978(9)
H11_4 H 0.3982 0.1785 0.3056
H12_4 H 0.2617 0.1470 0.2617
N6_4 N 0.32876(19) 0.16419(19) 0.21492(9)
N7_4 N 0.3177(2) 0.0557(2) 0.24592(10)
N8_4 N 0.4294(2) 0.0715(2) 0.27607(9)
N9_4 N 0.4409(2) 0.1791(2) 0.24248(10)
C24_4 C 0.3212(2) 0.2189(2) 0.21766(12)
C25_4 C 0.3065(2) 0.1393(2) 0.19185(11)
C26_4 C 0.2843(4) 0.0272(5) 0.2352(2)
C27_4 C 0.4036(2) 0.0450(2) 0.29788(11)
C28_4 C 0.4849(2) 0.0697(3) 0.27435(11)
C29_4 C 0.4725(3) 0.2130(3) 0.23527(15)
C31_4 C 0.2909(2) 0.2510(3) 0.19830(12)
H17_4 H 0.3374 0.2371 0.2337
H18_4 H 0.3108 0.1000 0.1898
C32_4 C 0.2774(3) 0.1684(2) 0.17067(12)
C33_4 C 0.4337(2) 0.0173(3) 0.31883(11)
H19_4 H 0.3639 0.0454 0.2989
H20_3 H 0.5027 0.0875 0.2587
C34_3 C 0.5179(2) 0.0429(3) 0.29439(12)
S3_3 S 0.51601(17) 0.26203(14) 0.22515(9)
C36_4 C 0.2695(2) 0.2259(2) 0.17384(11)
H23_4 H 0.2849 0.2897 0.2018
H24_4 H 0.2633 0.1494 0.1544
C37_4 C 0.4923(2) 0.0159(2) 0.31738(11)
H26_3 H 0.5575 0.0428 0.2925
C39_4 C 0.2427(2) 0.2587(2) 0.15037(12)
N11_4 N 0.2296(2) 0.2303(2) 0.12660(10)
C42_4 C 0.2328(3) 0.3162(2) 0.15345(12)
C45_4 C 0.2073(3) 0.2583(3) 0.10490(13)
C46_4 C 0.2092(3) 0.3453(3) 0.13055(13)
H33_4 H 0.2419 0.3349 0.1707
C50_4 C 0.1979(3) 0.3155(3) 0.10588(14)
C51_4 C 0.1920(3) 0.2237(3) 0.07922(13)
C52_4 C 0.1972(3) 0.4064(3) 0.13215(13)
H39_4 H 0.1838 0.3343 0.0895
C57_4 C 0.1976(3) 0.1674(3) 0.07895(13)
C58_4 C 0.1700(5) 0.2492(3) 0.05490(17)
C59_4 C 0.2020(3) 0.4403(3) 0.10843(15)
C60_4 C 0.1813(3) 0.4310(3) 0.15755(15)
H43_4 H 0.2142 0.1491 0.0949
C66_4 C 0.1795(3) 0.1356(3) 0.05569(13)
C67_4 C 0.1529(5) 0.2157(3) 0.03292(16)
H44_4 H 0.1670 0.2888 0.0537
H45_4 H 0.2133 0.4245 0.0907
C68_4 C 0.1905(3) 0.4966(3) 0.10996(16)
C69_4 C 0.1694(3) 0.4873(3) 0.15967(15)
H46_4 H 0.1786 0.4083 0.1742
N13_4 N 0.1565(3) 0.1594(3) 0.03248(11)
H54_4 H 0.1835 0.0960 0.0563
H55_4 H 0.1373 0.2335 0.0166
H56_2 H 0.1937 0.5190 0.0933
C74_2 C 0.1746(3) 0.5207(3) 0.13526(17)
H57_2 H 0.1579 0.5031 0.1773
Co3_4 Co 0.11260(3) 0.11260(3) -0.0000
O2_2 O 0.1649(3) 0.5770(2) 0.13511(13)
N14_4 N 0.0650(2) 0.07040(19) 0.03290(9)
N15_4 N 0.1734(2) 0.0497(3) 0.00257(11)
C76_2 C 0.1484(4) 0.6029(4) 0.1610(2)
C78_4 C 0.0440(3) 0.0964(2) 0.05536(12)
C79_4 C 0.0596(3) 0.0140(2) 0.03207(11)
C80_4 C 0.2028(3) 0.0170(4) 0.01286(16)
H62_2 H 0.1780 0.5976 0.1755
H63_2 H 0.1137 0.5852 0.1681
C81_2 C 0.1385(6) 0.6651(4) 0.1563(3)
C83_4 C 0.0191(3) 0.0699(2) 0.07813(12)
H66_4 H 0.0462 0.1361 0.0558
H68_2 H 0.1102 0.6697 0.1411
H69_2 H 0.1738 0.6823 0.1495
C85_2 C 0.1187(10) 0.6967(7) 0.1829(4)
C87_4 C 0.0134(2) 0.0112(2) 0.07774(10)
H72_4 H 0.0060 0.0909 0.0940
H74_2 H 0.0831 0.6806 0.1899
H75_2 H 0.1470 0.6935 0.1982
C88_2 C 0.1105(15) 0.7571(8) 0.1750(4)
H78_2 H 0.0755 0.7616 0.1639
H79_2 H 0.1422 0.7705 0.1632
C91_2 C 0.1071(19) 0.7910(10) 0.2031(5)
H82_2 H 0.1311 0.7722 0.2174
H83_2 H 0.0681 0.7889 0.2101
C94_2 C 0.1244(16) 0.8544(11) 0.2018(6)
H87_2 H 0.1552 0.8590 0.2157
H88_2 H 0.1411 0.8603 0.1827
C98_2 C 0.0841(19) 0.9047(14) 0.2068(9)
H91_2 H 0.0806 0.8975 0.2275
H92_2 H 0.0513 0.8850 0.1987
C103_2 C 0.0525(15) 0.9634(14) 0.2085(8)
H96_2 H 0.0550 0.9774 0.1887
H97_2 H 0.0129 0.9522 0.2110
N17_4 N 0.4230(3) 0.3000(4) 0.50156(13)
N18_4 N 0.3155(3) 0.3184(2) 0.53271(10)
C125_4 C 0.4590(6) 0.2792(8) 0.4956(3)
S5_3 S 0.5171(3) 0.2487(4) 0.4856(3)
Co3_5 Co 0.11260(3) 0.11260(3) 1.0000
N21_4 N 0.1594(3) 0.1565(3) 0.96752(11)
N22_4 N 0.07040(19) 0.0650(2) 0.96710(9)
N23_4 N 0.0497(3) 0.1734(2) 0.99743(11)
C126_4 C 0.1356(3) 0.1795(3) 0.94431(13)
C127_4 C 0.2157(3) 0.1529(5) 0.96708(16)
C128_4 C 0.0964(2) 0.0440(3) 0.94464(12)
C129_4 C 0.0140(2) 0.0596(3) 0.96793(11)
C130_4 C 0.0170(4) 0.2028(3) 0.98714(16)
C131_4 C 0.1674(3) 0.1976(3) 0.92105(13)
H133_4 H 0.0960 0.1835 0.9437
H134_4 H 0.2335 0.1373 0.9834
C132_4 C 0.2492(3) 0.1700(5) 0.94510(17)
C133_4 C 0.0699(2) 0.0191(3) 0.92187(12)
H135_4 H 0.1361 0.0462 0.9442
C135_4 C 0.2237(3) 0.1920(3) 0.92078(13)
H137_4 H 0.1491 0.2142 0.9051
H138_4 H 0.2888 0.1670 0.9463
C136_4 C 0.0112(2) 0.0134(2) 0.92226(10)
H139_4 H 0.0909 0.0060 0.9060
C137_4 C 0.2583(3) 0.2073(3) 0.89510(13)
N24_4 N 0.2303(2) 0.2296(2) 0.87340(10)
C139_4 C 0.3155(3) 0.1979(3) 0.89412(14)
C141_4 C 0.2587(2) 0.2427(2) 0.84963(12)
H141_4 H 0.3343 0.1838 0.9105
C142_4 C 0.3453(3) 0.2092(3) 0.86945(13)
C145_4 C 0.3162(2) 0.2328(3) 0.84655(12)
C146_4 C 0.2259(2) 0.2695(2) 0.82616(11)
C147_4 C 0.4064(3) 0.1972(3) 0.86785(13)
H143_4 H 0.3349 0.2419 0.8293
C151_4 C 0.2510(3) 0.2909(2) 0.80170(12)
C152_4 C 0.1684(2) 0.2774(3) 0.82933(12)
C153_4 C 0.4403(3) 0.2020(3) 0.89157(15)
C154_4 C 0.4310(3) 0.1813(3) 0.84245(15)
H145_4 H 0.2897 0.2849 0.7982
C159_4 C 0.2189(2) 0.3212(2) 0.78234(12)
C160_4 C 0.1393(2) 0.3065(2) 0.80815(11)
H146_4 H 0.1494 0.2633 0.8456
H147_4 H 0.4245 0.2133 0.9093
C161_4 C 0.4966(3) 0.1905(3) 0.89004(16)
C162_4 C 0.4873(3) 0.1694(3) 0.84033(15)
H148_4 H 0.4083 0.1786 0.8258
N27_4 N 0.16419(19) 0.32876(19) 0.78508(9)
H153_4 H 0.2371 0.3374 0.7663
H154_4 H 0.1000 0.3108 0.8102
H155_3 H 0.5190 0.1937 0.9067
C167_3 C 0.5207(3) 0.1746(3) 0.86474(17)
H156_3 H 0.5031 0.1579 0.8227
O5_3 O 0.5770(2) 0.1649(3) 0.86489(13)
N29_4 N 0.1591(2) 0.33550(19) 0.72022(9)
N30_4 N 0.0557(2) 0.3177(2) 0.75408(10)
N31_4 N 0.0715(2) 0.4294(2) 0.72393(9)
N32_4 N 0.1791(2) 0.4409(2) 0.75752(10)
C169_3 C 0.6029(4) 0.1484(4) 0.8390(2)
C171_4 C 0.1771(2) 0.3585(2) 0.69565(11)
C172_4 C 0.1589(3) 0.2793(2) 0.72121(12)
C173_4 C 0.0272(5) 0.2843(4) 0.7648(2)
C174_4 C 0.0450(2) 0.4036(2) 0.70212(11)
C175_4 C 0.0697(3) 0.4849(2) 0.72565(11)
C176_4 C 0.2130(3) 0.4725(3) 0.76473(15)
H161_3 H 0.5976 0.1780 0.8245
H162_3 H 0.5852 0.1137 0.8319
C177_3 C 0.6651(4) 0.1385(6) 0.8437(3)
C179_4 C 0.1935(2) 0.3280(2) 0.67235(11)
H165_4 H 0.1785 0.3982 0.6944
H166_4 H 0.1470 0.2617 0.7383
C180_4 C 0.1749(3) 0.2459(2) 0.69871(13)
C181_4 C 0.0173(3) 0.4337(2) 0.68117(11)
H167_4 H 0.0454 0.3639 0.7011
H168_2 H 0.0875 0.5027 0.7413
C182_2 C 0.0429(3) 0.5179(2) 0.70561(12)
S8_2 S 0.26203(14) 0.51601(17) 0.77485(9)
H169_3 H 0.6697 0.1102 0.8589
H170_3 H 0.6823 0.1738 0.8505
C183_3 C 0.6967(7) 0.1187(10) 0.8171(4)
C185_4 C 0.1913(2) 0.2697(2) 0.67333(11)
H173_4 H 0.2063 0.3465 0.6556
H174_4 H 0.1746 0.2063 0.7007
C186_4 C 0.0159(2) 0.4923(2) 0.68262(11)
H176_2 H 0.0428 0.5575 0.7075
H177_3 H 0.6806 0.0831 0.8101
H178_3 H 0.6935 0.1470 0.8018
C187_3 C 0.7571(8) 0.1105(15) 0.8250(4)
C189_4 C 0.2040(2) 0.2343(2) 0.64786(11)
H181_3 H 0.7616 0.0755 0.8361
H182_3 H 0.7705 0.1422 0.8368
C191_3 C 0.7910(10) 0.1071(19) 0.7969(5)
N34_4 N 0.2248(2) 0.26080(19) 0.62487(9)
C193_4 C 0.1935(2) 0.1775(2) 0.64816(11)
H185_3 H 0.7722 0.1311 0.7826
H186_3 H 0.7889 0.0681 0.7899
C195_3 C 0.8544(11) 0.1244(16) 0.7982(6)
C197_4 C 0.2357(2) 0.2297(2) 0.60134(11)
H189_4 H 0.1792 0.1603 0.6649
C198_4 C 0.2040(2) 0.1451(2) 0.62392(11)
H191_3 H 0.8590 0.1552 0.7843
H192_3 H 0.8603 0.1411 0.8173
C201_3 C 0.9047(14) 0.0841(19) 0.7932(9)
C203_4 C 0.2257(2) 0.1726(2) 0.59998(11)
C204_4 C 0.2607(3) 0.2602(2) 0.57680(12)
C205_4 C 0.1936(2) 0.0841(2) 0.62411(12)
H195_3 H 0.8975 0.0806 0.7725
H196_3 H 0.8850 0.0513 0.8013
C209_3 C 0.9634(14) 0.0525(15) 0.7915(8)
H199_4 H 0.2335 0.1524 0.5830
C211_4 C 0.2803(3) 0.2331(2) 0.55271(12)
C212_4 C 0.2687(4) 0.3192(3) 0.57771(13)
C213_4 C 0.2030(3) 0.0528(3) 0.64898(13)
C214_4 C 0.1746(3) 0.0565(2) 0.60022(12)
H201_3 H 0.9774 0.0550 0.8113
H202_3 H 0.9522 0.0129 0.7890
H205_4 H 0.2753 0.1938 0.5507
C221_4 C 0.3073(3) 0.2634(3) 0.53135(12)
C222_4 C 0.2963(4) 0.3447(3) 0.55613(14)
H206_4 H 0.2549 0.3404 0.5933
H207_4 H 0.2166 0.0712 0.6656
H208_4 H 0.1690 0.0771 0.5831
H219_4 H 0.3205 0.2438 0.5150
H220_4 H 0.3024 0.3839 0.5576
S2_4 S 0.2410(3) 0.9837(3) 0.22013(11)
H25_4 H 0.4148 0.9993 0.3341
C40_3 C 0.5254(2) 0.9884(2) 0.34045(11)
N12_4 N 0.4969(2) 0.97915(19) 0.36473(10)
C43_3 C 0.5818(2) 0.9770(2) 0.33748(12)
C47_3 C 0.5252(2) 0.9574(2) 0.38686(11)
H34_3 H 0.6004 0.9841 0.3199
C48_3 C 0.6113(3) 0.9549(2) 0.36079(13)
C53_3 C 0.5818(2) 0.9454(3) 0.38564(12)
C54_4 C 0.4924(2) 0.9473(2) 0.41292(11)
C55_3 C 0.6721(3) 0.9428(3) 0.35966(14)
H40_3 H 0.6004 0.9306 0.4019
C61_3 C 0.5165(3) 0.9309(3) 0.43864(11)
C62_4 C 0.4329(2) 0.9508(2) 0.41262(11)
C63_3 C 0.6986(3) 0.9250(3) 0.33443(16)
C64_3 C 0.7054(3) 0.9491(3) 0.38403(17)
H47_3 H 0.5561 0.9288 0.4403
C70_4 C 0.4833(3) 0.9177(3) 0.46152(12)
C71_4 C 0.4034(2) 0.9381(2) 0.43697(11)
H48_4 H 0.4138 0.9619 0.3958
H49_3 H 0.6771 0.9202 0.3175
C72_3 C 0.7567(3) 0.9142(4) 0.3339(2)
C73_3 C 0.7625(3) 0.9383(4) 0.3837(2)
H50_3 H 0.6884 0.9612 0.4013
H58_3 H 0.5010 0.9061 0.4787
H59_4 H 0.3639 0.9422 0.4366
H60_3 H 0.7743 0.9019 0.3168
C75_3 C 0.7876(3) 0.9217(4) 0.3584(2)
H61_3 H 0.7841 0.9422 0.4006
O3_3 O 0.8439(2) 0.9133(3) 0.36037(17)
C77_3 C 0.8719(4) 0.8971(5) 0.3353(3)
H64_3 H 0.8677 0.9260 0.3203
H65_3 H 0.8569 0.8612 0.3281
C82_3 C 0.9344(4) 0.8906(5) 0.3441(3)
H67_4 H 0.0743 0.9944 0.0161
C84_4 C 0.0337(3) 0.9838(2) 0.05339(11)
S4_4 S 0.24290(11) 0.97148(14) 0.02943(7)
H70_3 H 0.9454 0.9226 0.3563
H71_3 H 0.9581 0.8914 0.3267
C86_3 C 0.9444(5) 0.8348(6) 0.3604(4)
H73_4 H 0.0297 0.9443 0.0516
H76_3 H 0.9573 0.8059 0.3468
H77_3 H 0.9085 0.8219 0.3688
C89_3 C 0.9892(5) 0.8415(5) 0.3850(3)
H80_3 H 0.9759 0.8702 0.3987
H81_3 H 0.9922 0.8056 0.3955
N25_4 N 0.0113(2) 0.9778(2) 0.87452(10)
C149_4 C 0.0218(3) 0.9433(3) 0.82682(12)
C156_4 C 0.0792(3) 0.9485(3) 0.82816(12)
C163_4 C 0.0349(4) 0.9050(5) 0.77991(15)
C164_4 C 0.1113(3) 0.9291(4) 0.80514(13)
H150_4 H 0.0966 0.9649 0.8443
H157_4 H 0.0187 0.8923 0.7625
H158_4 H 0.1508 0.9334 0.8060
C223_4 C 0.1930(3) 0.9961(3) 0.64977(14)
C224_4 C 0.1632(3) 0.9989(2) 0.60039(13)
H221_4 H 0.1996 0.9757 0.6668
C229_4 C 0.1731(3) 0.9686(2) 0.62547(13)
H222_4 H 0.1491 0.9808 0.5838
O7_4 O 0.1632(3) 0.91273(18) 0.62833(11)
C231_4 C 0.1372(4) 0.8849(3) 0.60508(17)
H227_4 H 0.1627 0.8842 0.5884
H228_4 H 0.1025 0.9048 0.5995
C233_4 C 0.1236(4) 0.8259(3) 0.6143(2)
H231_4 H 0.1585 0.8035 0.6143
H232_4 H 0.1095 0.8268 0.6342
C235_4 C 0.0810(6) 0.7972(4) 0.5958(3)
H235_4 H 0.0733 0.7599 0.6041
H236_4 H 0.0458 0.8189 0.5968
C237_4 C 0.0956(7) 0.7895(7) 0.5653(3)
H239_4 H 0.1077 0.8255 0.5568
H240_4 H 0.0630 0.7754 0.5545
C239_4 C 0.1423(8) 0.7479(9) 0.5646(3)
H243_4 H 0.1780 0.7656 0.5705
H244_4 H 0.1343 0.7162 0.5776
C241_4 C 0.1458(8) 0.7283(6) 0.5346(3)
H247_4 H 0.1580 0.7598 0.5224
H248_4 H 0.1080 0.7166 0.5282
C243_4 C 0.1864(8) 0.6794(6) 0.5309(3)
H251_4 H 0.1731 0.6462 0.5415
H252_4 H 0.2242 0.6896 0.5379
C245_3 C 0.1874(13) 0.6677(12) 0.4988(4)
H255_3 H 0.1758 0.7008 0.4875
H256_3 H 0.1637 0.6352 0.4936
C247_3 C 0.2516(14) 0.655(2) 0.4951(6)
H259_3 H 0.2595 0.6459 0.4751
H260_4 H 0.2736 0.6872 0.5010
H261_4 H 0.2617 0.6224 0.5070
C20_4 C 0.9961(3) 0.1930(3) 0.35023(14)
C21_4 C 0.9989(2) 0.1632(3) 0.39961(13)
H13_4 H 0.9757 0.1996 0.3332
C22_4 C 0.9686(2) 0.1731(3) 0.37453(13)
H14_4 H 0.9808 0.1491 0.4162
O1_4 O 0.91273(18) 0.1632(3) 0.37167(11)
C23_4 C 0.8849(3) 0.1372(4) 0.39492(17)
H15_4 H 0.8842 0.1627 0.4116
H16_4 H 0.9048 0.1025 0.4005
C30_4 C 0.8259(3) 0.1236(4) 0.3857(2)
H21_4 H 0.8035 0.1585 0.3857
H22_4 H 0.8268 0.1095 0.3658
C35_4 C 0.7972(4) 0.0810(6) 0.4042(3)
H27_4 H 0.7599 0.0733 0.3959
H28_4 H 0.8189 0.0458 0.4032
C38_4 C 0.7895(7) 0.0956(7) 0.4347(3)
H29_4 H 0.8255 0.1077 0.4432
H30_4 H 0.7754 0.0630 0.4455
C41_4 C 0.7479(9) 0.1423(8) 0.4354(3)
H31_4 H 0.7656 0.1780 0.4295
H32_4 H 0.7162 0.1343 0.4224
C44_4 C 0.7283(6) 0.1458(8) 0.4654(3)
H35_4 H 0.7598 0.1580 0.4776
H36_4 H 0.7166 0.1080 0.4718
C49_4 C 0.6794(6) 0.1864(8) 0.4691(3)
H37_4 H 0.6462 0.1731 0.4585
H38_4 H 0.6896 0.2242 0.4621
C56_3 C 0.6677(12) 0.1874(13) 0.5012(4)
H41_3 H 0.7008 0.1758 0.5125
H42_3 H 0.6352 0.1637 0.5064
C65_3 C 0.655(2) 0.2516(14) 0.5049(6)
H51_3 H 0.6459 0.2595 0.5249
H52_4 H 0.6872 0.2736 0.4990
H53_4 H 0.6224 0.2617 0.4930
N16_4 N 0.9778(2) 0.0113(2) 0.12548(10)
C101_4 C 0.9433(3) 0.0218(3) 0.17318(12)
C106_4 C 0.9485(3) 0.0792(3) 0.17184(12)
C111_4 C 0.9050(5) 0.0349(4) 0.22009(15)
C112_4 C 0.9291(4) 0.1113(3) 0.19486(13)
H101_4 H 0.9649 0.0966 0.1557
H110_4 H 0.8923 0.0187 0.2375
H111_4 H 0.9334 0.1508 0.1940
H136_4 H 0.9944 0.0743 0.9839
C134_4 C 0.9838(2) 0.0337(3) 0.94661(11)
S6_4 S 0.97148(14) 0.24290(11) 0.97057(7)
H140_4 H 0.9443 0.0297 0.9484
S7_4 S 0.9837(3) 0.2410(3) 0.77987(11)
H175_4 H 0.9993 0.4148 0.6659
C190_2 C 0.9884(2) 0.5254(2) 0.65955(11)
N35_4 N 0.97915(19) 0.4969(2) 0.63527(10)
C194_2 C 0.9770(2) 0.5818(2) 0.66252(12)
C199_2 C 0.9574(2) 0.5252(2) 0.61314(11)
H190_2 H 0.9841 0.6004 0.6801
C200_2 C 0.9549(2) 0.6113(3) 0.63921(13)
C206_2 C 0.9454(3) 0.5818(2) 0.61436(12)
C207_4 C 0.9473(2) 0.4924(2) 0.58708(11)
C208_2 C 0.9428(3) 0.6721(3) 0.64034(14)
H200_2 H 0.9306 0.6004 0.5981
C215_2 C 0.9309(3) 0.5165(3) 0.56136(11)
C216_4 C 0.9508(2) 0.4329(2) 0.58738(11)
C217_2 C 0.9250(3) 0.6986(3) 0.66557(16)
C218_2 C 0.9491(3) 0.7054(3) 0.61597(17)
H209_2 H 0.9288 0.5561 0.5597
C225_4 C 0.9177(3) 0.4833(3) 0.53848(12)
C226_4 C 0.9381(2) 0.4034(2) 0.56303(11)
H210_4 H 0.9619 0.4138 0.6042
H211_2 H 0.9202 0.6771 0.6825
C227_2 C 0.9142(4) 0.7567(3) 0.6661(2)
C228_2 C 0.9383(4) 0.7625(3) 0.6163(2)
H212_2 H 0.9612 0.6884 0.5987
H223_2 H 0.9061 0.5010 0.5213
H224_4 H 0.9422 0.3639 0.5634
H225_2 H 0.9019 0.7743 0.6832
C230_2 C 0.9217(4) 0.7876(3) 0.6416(2)
H226_2 H 0.9422 0.7841 0.5994
O8_2 O 0.9133(3) 0.8439(2) 0.63963(17)
C232_2 C 0.8971(5) 0.8719(4) 0.6647(3)
H229_2 H 0.9260 0.8677 0.6797
H230_2 H 0.8612 0.8569 0.6719
C234_2 C 0.8906(5) 0.9344(4) 0.6559(3)
H233_2 H 0.9226 0.9454 0.6437
H234_2 H 0.8914 0.9581 0.6733
C236_2 C 0.8348(6) 0.9444(5) 0.6396(4)
H237_2 H 0.8059 0.9573 0.6532
H238_2 H 0.8219 0.9085 0.6312
C238_2 C 0.8415(5) 0.9892(5) 0.6150(3)
H241_2 H 0.8702 0.9759 0.6013
H242_2 H 0.8056 0.9922 0.6045
C188 C 0.6477(5) 0.9813(5) 0.1562(3)
H183 H 0.6534 0.9636 0.1751
H184 H 0.6852 0.9850 0.1474
C192 C 0.6151(6) 0.9401(6) 0.1382(4)
H187 H 0.5794 0.9317 0.1480
H188 H 0.6058 0.9583 0.1198
C196 C 0.6431(5) 0.8889(5) 0.1324(3)
H193 H 0.6596 0.8766 0.1508
H194 H 0.6748 0.8984 0.1198
C202 C 0.6156(7) 0.8375(6) 0.1195(3)
H197 H 0.6398 0.8046 0.1231
H198 H 0.5794 0.8309 0.1293
C210 C 0.6051(6) 0.8421(7) 0.0879(3)
H203 H 0.6403 0.8498 0.0775
H204 H 0.5779 0.8723 0.0838
C220 C 0.5809(6) 0.7842(7) 0.0795(4)
H216 H 0.6110 0.7563 0.0795
H217 H 0.5644 0.7865 0.0604
H218 H 0.5521 0.7732 0.0933
S1_3 S 0.9829(3) 0.7487(4) 0.7644(3)
H56_3 H 0.9810 0.6937 0.3433
C74_3 C 0.9793(3) 0.6746(3) 0.38526(17)
H57_3 H 0.9969 0.6579 0.4273
O2_3 O 0.9230(2) 0.6649(3) 0.38511(13)
C76_3 C 0.8971(4) 0.6484(4) 0.4110(2)
H62_3 H 0.9024 0.6780 0.4255
H63_3 H 0.9148 0.6137 0.4181
C81_3 C 0.8349(4) 0.6385(6) 0.4063(3)
H68_3 H 0.8303 0.6102 0.3911
H69_3 H 0.8177 0.6738 0.3995
C85_3 C 0.8033(7) 0.6187(10) 0.4329(4)
H74_3 H 0.8194 0.5831 0.4399
H75_3 H 0.8065 0.6470 0.4482
C88_3 C 0.7429(8) 0.6105(15) 0.4250(4)
H78_3 H 0.7384 0.5755 0.4139
H79_3 H 0.7295 0.6422 0.4132
C91_3 C 0.7090(10) 0.6071(19) 0.4531(5)
H82_3 H 0.7278 0.6311 0.4674
H83_3 H 0.7111 0.5681 0.4601
C94_3 C 0.6456(11) 0.6244(16) 0.4518(6)
H87_3 H 0.6410 0.6552 0.4657
H88_3 H 0.6397 0.6411 0.4327
C98_3 C 0.5953(14) 0.5841(19) 0.4568(9)
H91_3 H 0.6025 0.5806 0.4775
H92_3 H 0.6150 0.5513 0.4487
C103_3 C 0.5366(14) 0.5525(15) 0.4585(8)
H96_3 H 0.5226 0.5550 0.4387
H97_3 H 0.5478 0.5129 0.4610
C109 C 0.4816(14) 0.5566(17) 0.4767(9)
H104 H 0.4551 0.5278 0.4703
H105 H 0.4904 0.5509 0.4969
H106 H 0.4648 0.5937 0.4741
S8_3 S 0.98399(17) 0.76203(14) 0.02485(9)
H168_3 H 0.9973 0.5875 0.9913
C182_3 C 0.9821(2) 0.5429(3) 0.95561(12)
H176_3 H 0.9425 0.5428 0.9575
C190_3 C 0.9746(2) 0.4884(2) 0.90955(11)
C194_3 C 0.9182(2) 0.4770(2) 0.91252(12)
C199_3 C 0.9748(2) 0.4574(2) 0.86314(11)
H190_3 H 0.8996 0.4841 0.9301
C200_3 C 0.8887(3) 0.4549(2) 0.88921(13)
C206_3 C 0.9182(2) 0.4454(3) 0.86436(12)
C208_3 C 0.8279(3) 0.4428(3) 0.89034(14)
H200_3 H 0.8996 0.4306 0.8481
C215_3 C 0.9835(3) 0.4309(3) 0.81136(11)
C217_3 C 0.8014(3) 0.4250(3) 0.91557(16)
C218_3 C 0.7946(3) 0.4491(3) 0.86597(17)
H209_3 H 0.9439 0.4288 0.8097
H211_3 H 0.8229 0.4202 0.9325
C227_3 C 0.7433(3) 0.4142(4) 0.9161(2)
C228_3 C 0.7375(3) 0.4383(4) 0.8663(2)
H212_3 H 0.8116 0.4612 0.8487
H223_3 H 0.9990 0.4061 0.7713
H225_3 H 0.7257 0.4019 0.9332
C230_3 C 0.7124(3) 0.4217(4) 0.8916(2)
H226_3 H 0.7159 0.4422 0.8494
O8_3 O 0.6561(2) 0.4133(3) 0.88963(17)
C232_3 C 0.6281(4) 0.3971(5) 0.9147(3)
H229_3 H 0.6323 0.4260 0.9297
H230_3 H 0.6431 0.3612 0.9219
C234_3 C 0.5656(4) 0.3906(5) 0.9059(3)
H233_3 H 0.5546 0.4226 0.8937
H234_3 H 0.5419 0.3914 0.9233
C236_3 C 0.5556(5) 0.3348(6) 0.8896(4)
H237_3 H 0.5427 0.3059 0.9032
H238_3 H 0.5915 0.3219 0.8812
C238_3 C 0.5108(5) 0.3415(5) 0.8650(3)
H241_3 H 0.5241 0.3702 0.8513
H242_3 H 0.5078 0.3056 0.8545
C240 C 0.4531(5) 0.3581(5) 0.8758(3)
H245 H 0.4398 0.3293 0.8894
H246 H 0.4562 0.3939 0.8864
C242 C 0.4110(5) 0.3646(5) 0.8527(3)
H249 H 0.4255 0.3921 0.8387
H250 H 0.4072 0.3283 0.8427
C244 C 0.3549(5) 0.3829(4) 0.8618(3)
H253 H 0.3587 0.4137 0.8758
H254 H 0.3355 0.3514 0.8713
C246 C 0.3186(5) 0.4038(6) 0.8357(3)
H257 H 0.3171 0.3739 0.8211
H258 H 0.3367 0.4369 0.8271
C248 C 0.2571(5) 0.4195(6) 0.8450(3)
H262 H 0.2494 0.4039 0.8639
H263 H 0.2304 0.4040 0.8312
H264 H 0.2532 0.4603 0.8456
C90_3 C 0.0107(2) 0.0194(2) 0.60256(11)
C93_3 C 0.0195(2) 0.0771(2) 0.60158(12)
C96_3 C 0.0429(3) 0.0150(3) 0.64859(11)
H86_3 H 0.0118 0.0973 0.5846
C97_3 C 0.0394(2) 0.1050(2) 0.62550(12)
C100_3 C 0.0515(2) 0.0718(3) 0.64933(11)
C102_3 C 0.0505(3) 0.1658(3) 0.62547(13)
H95_3 H 0.0658 0.0887 0.6662
C105_3 C 0.0775(5) 0.0008(4) 0.69848(15)
C107_3 C 0.0676(3) 0.1935(3) 0.60138(14)
C108_3 C 0.0425(3) 0.1974(3) 0.65043(14)
H100_3 H 0.0798 0.0402 0.7009
H102_3 H 0.0725 0.1729 0.5842
C113_3 C 0.0781(3) 0.2516(3) 0.60111(17)
C114_3 C 0.0519(3) 0.2549(3) 0.65082(15)
H103_3 H 0.0305 0.1792 0.6674
H112_3 H 0.0908 0.2695 0.5842
C115_3 C 0.0696(3) 0.2823(3) 0.62623(17)
H113_3 H 0.0463 0.2754 0.6679
O4_3 O 0.0782(3) 0.3381(2) 0.62917(14)
C116_3 C 0.0979(5) 0.3665(4) 0.6054(3)
H114_3 H 0.0692 0.3664 0.5902
H115_3 H 0.1321 0.3481 0.5980
C117_3 C 0.1113(5) 0.4270(4) 0.6143(3)
H116_3 H 0.0781 0.4437 0.6236
H117_3 H 0.1424 0.4269 0.6283
C118_3 C 0.1277(8) 0.4622(5) 0.5884(3)
H118_3 H 0.1572 0.4418 0.5779
H119_3 H 0.0947 0.4648 0.5757
C119_2 C 0.1477(5) 0.5187(5) 0.5938(3)
H120_2 H 0.1534 0.5364 0.5749
H121_2 H 0.1852 0.5150 0.6026
C120_2 C 0.1151(6) 0.5599(6) 0.6118(4)
H122_2 H 0.0794 0.5683 0.6020
H123_2 H 0.1058 0.5417 0.6302
C121_2 C 0.1431(5) 0.6111(5) 0.6176(3)
H124_2 H 0.1596 0.6234 0.5992
H125_2 H 0.1748 0.6016 0.6302
C122_2 C 0.1156(7) 0.6625(6) 0.6305(3)
H126_2 H 0.1398 0.6954 0.6269
H127_2 H 0.0794 0.6691 0.6207
C123_2 C 0.1051(6) 0.6579(7) 0.6621(3)
H128_2 H 0.1403 0.6502 0.6725
H129_2 H 0.0779 0.6277 0.6662
C124_2 C 0.0809(6) 0.7158(7) 0.6705(4)
H130_2 H 0.1110 0.7437 0.6705
H131_2 H 0.0644 0.7135 0.6896
H132_2 H 0.0521 0.7268 0.6567
C138_3 C 0.0194(2) 0.0107(2) 0.39744(11)
C140_3 C 0.0771(2) 0.0195(2) 0.39842(12)
C143_3 C 0.0150(3) 0.0429(3) 0.35141(11)
H142_3 H 0.0973 0.0118 0.4154
C144_3 C 0.1050(2) 0.0394(2) 0.37450(12)
C148_3 C 0.0718(3) 0.0515(2) 0.35067(11)
C150_3 C 0.1658(3) 0.0505(3) 0.37453(13)
H144_3 H 0.0887 0.0658 0.3338
C155_3 C 0.0008(4) 0.0775(5) 0.30152(15)
C157_3 C 0.1935(3) 0.0676(3) 0.39862(14)
C158_3 C 0.1974(3) 0.0425(3) 0.34957(14)
H149_3 H 0.0402 0.0798 0.2991
H151_3 H 0.1729 0.0725 0.4158
C165_3 C 0.2516(3) 0.0781(3) 0.39889(17)
C166_3 C 0.2549(3) 0.0519(3) 0.34918(15)
H152_3 H 0.1792 0.0305 0.3326
H159_3 H 0.2695 0.0908 0.4158
C168_3 C 0.2823(3) 0.0696(3) 0.37377(17)
H160_3 H 0.2754 0.0463 0.3321
O6_3 O 0.3381(2) 0.0782(3) 0.37083(14)
C170_3 C 0.3665(4) 0.0979(5) 0.3946(3)
H163_3 H 0.3664 0.0692 0.4098
H164_3 H 0.3481 0.1321 0.4020
C178_3 C 0.4270(4) 0.1113(5) 0.3857(3)
H171_3 H 0.4437 0.0781 0.3764
H172_3 H 0.4269 0.1424 0.3717
C184_3 C 0.4622(5) 0.1277(8) 0.4116(3)
H179_3 H 0.4418 0.1572 0.4221
H180_3 H 0.4648 0.0947 0.4243
C188_2 C 0.5187(5) 0.1477(5) 0.4062(3)
H183_2 H 0.5364 0.1534 0.4251
H184_2 H 0.5150 0.1852 0.3974
C192_2 C 0.5599(6) 0.1151(6) 0.3882(4)
H187_2 H 0.5683 0.0794 0.3980
H188_2 H 0.5417 0.1058 0.3698
C196_2 C 0.6111(5) 0.1431(5) 0.3824(3)
H193_2 H 0.6234 0.1596 0.4008
H194_2 H 0.6016 0.1748 0.3698
C202_2 C 0.6625(6) 0.1156(7) 0.3695(3)
H197_2 H 0.6954 0.1398 0.3731
H198_2 H 0.6691 0.0794 0.3793
C210_2 C 0.6579(7) 0.1051(6) 0.3379(3)
H203_2 H 0.6502 0.1403 0.3275
H204_2 H 0.6277 0.0779 0.3338
C220_2 C 0.7158(7) 0.0809(6) 0.3295(4)
H216_2 H 0.7437 0.1110 0.3295
H217_2 H 0.7135 0.0644 0.3104
H218_2 H 0.7268 0.0521 0.3433
C56_4 C 0.3323(12) 0.8126(13) 0.0012(4)
H41_4 H 0.2992 0.8242 0.0125
H42_4 H 0.3648 0.8363 0.0064
C65_4 C 0.345(2) 0.7484(14) 0.0049(6)
H51_4 H 0.3541 0.7405 0.0249
C240_2 C 0.1419(5) 0.9531(5) 0.1258(3)
H245_2 H 0.1707 0.9398 0.1394
H246_2 H 0.1061 0.9562 0.1364
C242_2 C 0.1354(5) 0.9110(5) 0.1027(3)
H249_2 H 0.1079 0.9255 0.0887
H250_2 H 0.1717 0.9072 0.0927
C244_2 C 0.1171(4) 0.8549(5) 0.1118(3)
H253_2 H 0.0863 0.8587 0.1258
H254_2 H 0.1486 0.8355 0.1213
C246_2 C 0.0962(6) 0.8186(5) 0.0857(3)
H257_2 H 0.1261 0.8171 0.0711
H258_2 H 0.0631 0.8367 0.0771
C248_2 C 0.0805(6) 0.7571(5) 0.0950(3)
H262_2 H 0.0961 0.7494 0.1139
H263_2 H 0.0960 0.7304 0.0812
H264_2 H 0.0397 0.7532 0.0956
C245_4 C 0.8126(13) 0.3323(12) 0.9988(4)
H255_4 H 0.8242 0.2992 0.9875
H256_4 H 0.8363 0.3648 0.9936
C247_4 C 0.7484(14) 0.345(2) 0.9951(6)
H259_4 H 0.7405 0.3541 0.9751
C109_2 C 0.9434(17) 0.9816(14) 0.7267(9)
H104_2 H 0.9722 0.9551 0.7203
H105_2 H 0.9491 0.9904 0.7469
H106_2 H 0.9063 0.9648 0.7241
C92_2 C 0.9531(5) 0.1419(5) 0.8742(3)
H84_2 H 0.9398 0.1707 0.8606
H85_2 H 0.9562 0.1061 0.8636
C95_2 C 0.9110(5) 0.1354(5) 0.8973(3)
H89_2 H 0.9255 0.1079 0.9113
H90_2 H 0.9072 0.1717 0.9073
C99_2 C 0.8549(5) 0.1171(4) 0.8882(3)
H93_2 H 0.8587 0.0863 0.8742
H94_2 H 0.8355 0.1486 0.8787
C104_2 C 0.8186(5) 0.0962(6) 0.9143(3)
H98_2 H 0.8171 0.1261 0.9289
H99_2 H 0.8367 0.0631 0.9229
C110_2 C 0.7571(5) 0.0805(6) 0.9050(3)
H107_2 H 0.7494 0.0961 0.8861
H108_2 H 0.7304 0.0960 0.9188
H109_2 H 0.7532 0.0397 0.9044
C219_2 C 0.9816(14) 0.9434(17) 0.2733(9)
H213_2 H 0.9551 0.9722 0.2797
H214_2 H 0.9904 0.9491 0.2531
H215_2 H 0.9648 0.9063 0.2759
S1_4 S 0.0171(3) 0.2513(4) 0.2644(3)
H56_4 H 0.0190 0.3063 0.8433
C74_4 C 0.0207(3) 0.3254(3) 0.88526(17)
H57_4 H 0.0031 0.3421 0.9273
O2_4 O 0.0770(2) 0.3351(3) 0.88511(13)
C76_4 C 0.1029(4) 0.3516(4) 0.9110(2)
H62_4 H 0.0976 0.3220 0.9255
H63_4 H 0.0852 0.3863 0.9181
C81_4 C 0.1651(4) 0.3615(6) 0.9063(3)
H68_4 H 0.1697 0.3898 0.8911
H69_4 H 0.1823 0.3262 0.8995
C85_4 C 0.1967(7) 0.3813(10) 0.9329(4)
H74_4 H 0.1806 0.4169 0.9399
H75_4 H 0.1935 0.3530 0.9482
C88_4 C 0.2571(8) 0.3895(15) 0.9250(4)
H78_4 H 0.2616 0.4245 0.9139
H79_4 H 0.2705 0.3578 0.9132
C91_4 C 0.2910(10) 0.3929(19) 0.9531(5)
H82_4 H 0.2722 0.3689 0.9674
H83_4 H 0.2889 0.4319 0.9601
C94_4 C 0.3544(11) 0.3756(16) 0.9518(6)
H87_4 H 0.3590 0.3448 0.9657
H88_4 H 0.3603 0.3589 0.9327
C98_4 C 0.4047(14) 0.4159(19) 0.9568(9)
H91_4 H 0.3975 0.4194 0.9775
H92_4 H 0.3850 0.4487 0.9487
C103_4 C 0.4634(14) 0.4475(15) 0.9585(8)
H96_4 H 0.4774 0.4450 0.9387
H97_4 H 0.4522 0.4871 0.9610
C109_3 C 0.5184(14) 0.4434(17) 0.9767(9)
H104_3 H 0.5449 0.4722 0.9703
H105_3 H 0.5096 0.4491 0.9969
H106_3 H 0.5352 0.4063 0.9741
H168_4 H 0.0027 0.4125 0.4913
C182_4 C 0.0179(2) 0.4571(3) 0.45561(12)
S8_4 S 0.01601(17) 0.23797(14) 0.52485(9)
H176_4 H 0.0575 0.4572 0.4575
C190_4 C 0.0254(2) 0.5116(2) 0.40955(11)
C194_4 C 0.0818(2) 0.5230(2) 0.41252(12)
C199_4 C 0.0252(2) 0.5426(2) 0.36314(11)
H190_4 H 0.1004 0.5159 0.4301
C200_4 C 0.1113(3) 0.5451(2) 0.38921(13)
C206_4 C 0.0818(2) 0.5546(3) 0.36436(12)
C208_4 C 0.1721(3) 0.5572(3) 0.39034(14)
H200_4 H 0.1004 0.5694 0.3481
C215_4 C 0.0165(3) 0.5691(3) 0.31136(11)
C217_4 C 0.1986(3) 0.5750(3) 0.41557(16)
C218_4 C 0.2054(3) 0.5509(3) 0.36597(17)
H209_4 H 0.0561 0.5712 0.3097
H211_4 H 0.1771 0.5798 0.4325
C227_4 C 0.2567(3) 0.5858(4) 0.4161(2)
C228_4 C 0.2625(3) 0.5617(4) 0.3663(2)
H212_4 H 0.1884 0.5388 0.3487
H223_4 H 0.0010 0.5939 0.2713
H225_4 H 0.2743 0.5981 0.4332
C230_4 C 0.2876(3) 0.5783(4) 0.3916(2)
H226_4 H 0.2841 0.5578 0.3494
O8_4 O 0.3439(2) 0.5867(3) 0.38963(17)
C232_4 C 0.3719(4) 0.6029(5) 0.4147(3)
H229_4 H 0.3677 0.5740 0.4297
H230_4 H 0.3569 0.6388 0.4219
C234_4 C 0.4344(4) 0.6094(5) 0.4059(3)
H233_4 H 0.4454 0.5774 0.3937
H234_4 H 0.4581 0.6086 0.4233
C236_4 C 0.4444(5) 0.6652(6) 0.3896(4)
H237_4 H 0.4573 0.6941 0.4032
H238_4 H 0.4085 0.6781 0.3812
C238_4 C 0.4892(5) 0.6585(5) 0.3650(3)
H241_4 H 0.4759 0.6298 0.3513
H242_4 H 0.4922 0.6944 0.3545
C240_3 C 0.5469(5) 0.6419(5) 0.3758(3)
H245_3 H 0.5602 0.6707 0.3894
H246_3 H 0.5438 0.6061 0.3864
C242_3 C 0.5890(5) 0.6354(5) 0.3527(3)
H249_3 H 0.5745 0.6079 0.3387
H250_3 H 0.5928 0.6717 0.3427
C244_3 C 0.6451(5) 0.6171(4) 0.3618(3)
H253_3 H 0.6413 0.5863 0.3758
H254_3 H 0.6645 0.6486 0.3713
C246_3 C 0.6814(5) 0.5962(6) 0.3357(3)
H257_3 H 0.6829 0.6261 0.3211
H258_3 H 0.6633 0.5631 0.3271
C248_3 C 0.7429(5) 0.5805(6) 0.3450(3)
H262_3 H 0.7506 0.5961 0.3639
H263_3 H 0.7696 0.5960 0.3312
H264_3 H 0.7468 0.5397 0.3456
C188_3 C 0.3523(5) 0.0187(5) 0.6562(3)
H183_3 H 0.3466 0.0364 0.6751
H184_3 H 0.3148 0.0150 0.6474
C192_3 C 0.3849(6) 0.0599(6) 0.6382(4)
H187_3 H 0.4206 0.0683 0.6480
H188_3 H 0.3942 0.0417 0.6198
C196_3 C 0.3569(5) 0.1111(5) 0.6324(3)
H193_3 H 0.3404 0.1234 0.6508
H194_3 H 0.3252 0.1016 0.6198
C202_3 C 0.3844(7) 0.1625(6) 0.6195(3)
H197_3 H 0.3602 0.1954 0.6231
H198_3 H 0.4206 0.1691 0.6293
C210_3 C 0.3949(6) 0.1579(7) 0.5879(3)
H203_3 H 0.3597 0.1502 0.5775
H204_3 H 0.4221 0.1277 0.5838
C220_3 C 0.4191(6) 0.2158(7) 0.5795(4)
H216_3 H 0.3890 0.2437 0.5795
H217_3 H 0.4356 0.2135 0.5604
H218_3 H 0.4479 0.2268 0.5933
H20_4 H 0.5875 0.9973 0.0087
C34_4 C 0.5429(3) 0.9821(2) 0.04439(12)
H26_4 H 0.5428 0.9425 0.0425
C40_4 C 0.4884(2) 0.9746(2) 0.09045(11)
C43_4 C 0.4770(2) 0.9182(2) 0.08748(12)
C47_4 C 0.4574(2) 0.9748(2) 0.13686(11)
H34_4 H 0.4841 0.8996 0.0699
C48_4 C 0.4549(2) 0.8887(3) 0.11079(13)
C53_4 C 0.4454(3) 0.9182(2) 0.13564(12)
C55_4 C 0.4428(3) 0.8279(3) 0.10966(14)
H40_4 H 0.4306 0.8996 0.1519
C61_4 C 0.4309(3) 0.9835(3) 0.18864(11)
C63_4 C 0.4250(3) 0.8014(3) 0.08443(16)
C64_4 C 0.4491(3) 0.7946(3) 0.13403(17)
H47_4 H 0.4288 0.9439 0.1903
H49_4 H 0.4202 0.8229 0.0675
C72_4 C 0.4142(4) 0.7433(3) 0.0839(2)
C73_4 C 0.4383(4) 0.7375(3) 0.1337(2)
H50_4 H 0.4612 0.8116 0.1513
H58_4 H 0.4061 0.9990 0.2287
H60_4 H 0.4019 0.7257 0.0668
C75_4 C 0.4217(4) 0.7124(3) 0.1084(2)
H61_4 H 0.4422 0.7159 0.1506
O3_4 O 0.4133(3) 0.6561(2) 0.11037(17)
C77_4 C 0.3971(5) 0.6281(4) 0.0853(3)
H64_4 H 0.4260 0.6323 0.0703
H65_4 H 0.3612 0.6431 0.0781
C82_4 C 0.3906(5) 0.5656(4) 0.0941(3)
H70_4 H 0.4226 0.5546 0.1063
H71_4 H 0.3914 0.5419 0.0767
C86_4 C 0.3348(6) 0.5556(5) 0.1104(4)
H76_4 H 0.3059 0.5427 0.0968
H77_4 H 0.3219 0.5915 0.1188
C89_4 C 0.3415(5) 0.5108(5) 0.1350(3)
H80_4 H 0.3702 0.5241 0.1487
H81_4 H 0.3056 0.5078 0.1455
C92_3 C 0.3581(5) 0.4531(5) 0.1242(3)
H84_3 H 0.3293 0.4398 0.1106
H85_3 H 0.3939 0.4562 0.1136
C95_3 C 0.3646(5) 0.4110(5) 0.1473(3)
H89_3 H 0.3921 0.4255 0.1613
H90_3 H 0.3283 0.4072 0.1573
C99_3 C 0.3829(4) 0.3549(5) 0.1382(3)
H93_3 H 0.4137 0.3587 0.1242
H94_3 H 0.3514 0.3355 0.1287
C104_3 C 0.4038(6) 0.3186(5) 0.1643(3)
H98_3 H 0.3739 0.3171 0.1789
H99_3 H 0.4369 0.3367 0.1729
C110_3 C 0.4195(6) 0.2571(5) 0.1550(3)
H107_3 H 0.4039 0.2494 0.1361
H108_3 H 0.4040 0.2304 0.1688
H109_3 H 0.4603 0.2532 0.1544
S5_4 S 0.7487(4) 0.9829(3) 0.2356(3)
S3_4 S 0.76203(14) 0.98399(17) 0.97515(9)
H155_4 H 0.6937 0.9810 0.6567
C167_4 C 0.6746(3) 0.9793(3) 0.61474(17)
H156_4 H 0.6579 0.9969 0.5727
O5_4 O 0.6649(3) 0.9230(2) 0.61489(13)
C169_4 C 0.6484(4) 0.8971(4) 0.5890(2)
H161_4 H 0.6780 0.9024 0.5745
H162_4 H 0.6137 0.9148 0.5819
C177_4 C 0.6385(6) 0.8349(4) 0.5937(3)
H169_4 H 0.6102 0.8303 0.6089
H170_4 H 0.6738 0.8177 0.6005
C183_4 C 0.6187(10) 0.8033(7) 0.5671(4)
H177_4 H 0.5831 0.8194 0.5601
H178_4 H 0.6470 0.8065 0.5518
C187_4 C 0.6105(15) 0.7429(8) 0.5750(4)
H181_4 H 0.5755 0.7384 0.5861
H182_4 H 0.6422 0.7295 0.5868
C191_4 C 0.6071(19) 0.7090(10) 0.5469(5)
H185_4 H 0.6311 0.7278 0.5326
H186_4 H 0.5681 0.7111 0.5399
C195_4 C 0.6244(16) 0.6456(11) 0.5482(6)
H191_4 H 0.6552 0.6410 0.5343
H192_4 H 0.6411 0.6397 0.5673
C201_4 C 0.5841(19) 0.5953(14) 0.5432(9)
H195_4 H 0.5806 0.6025 0.5225
H196_4 H 0.5513 0.6150 0.5513
C209_4 C 0.5525(15) 0.5366(14) 0.5415(8)
H201_4 H 0.5550 0.5226 0.5613
H202_4 H 0.5129 0.5478 0.5390
C219_3 C 0.5566(17) 0.4816(14) 0.5233(9)
H213_3 H 0.5278 0.4551 0.5297
H214_3 H 0.5509 0.4904 0.5031
H215_3 H 0.5937 0.4648 0.5259
C119_3 C 0.9813(5) 0.6477(5) 0.8438(3)
H120_3 H 0.9636 0.6534 0.8249
H121_3 H 0.9850 0.6852 0.8526
C120_3 C 0.9401(6) 0.6151(6) 0.8618(4)
H122_3 H 0.9317 0.5794 0.8520
H123_3 H 0.9583 0.6058 0.8802
C121_3 C 0.8889(5) 0.6431(5) 0.8676(3)
H124_3 H 0.8766 0.6596 0.8492
H125_3 H 0.8984 0.6748 0.8802
C122_3 C 0.8375(6) 0.6156(7) 0.8805(3)
H126_3 H 0.8046 0.6398 0.8769
H127_3 H 0.8309 0.5794 0.8707
C123_3 C 0.8421(7) 0.6051(6) 0.9121(3)
H128_3 H 0.8498 0.6403 0.9225
H129_3 H 0.8723 0.5779 0.9162
C124_3 C 0.7842(7) 0.5809(6) 0.9205(4)
H130_3 H 0.7563 0.6110 0.9205
H131_3 H 0.7865 0.5644 0.9396
H132_3 H 0.7732 0.5521 0.9067
C219_4 C 0.0184(14) 0.0566(17) 0.7733(9)
H213_4 H 0.0449 0.0278 0.7797
H214_4 H 0.0096 0.0509 0.7531
H215_4 H 0.0352 0.0937 0.7759
C92_4 C 0.0469(5) 0.8581(5) 0.3742(3)
H84_4 H 0.0602 0.8293 0.3606
H85_4 H 0.0438 0.8939 0.3636
C95_4 C 0.0890(5) 0.8646(5) 0.3973(3)
H89_4 H 0.0745 0.8921 0.4113
H90_4 H 0.0928 0.8283 0.4073
C99_4 C 0.1451(5) 0.8829(4) 0.3882(3)
H93_4 H 0.1413 0.9137 0.3742
H94_4 H 0.1645 0.8514 0.3787
C104_4 C 0.1814(5) 0.9038(6) 0.4143(3)
H98_4 H 0.1829 0.8739 0.4289
H99_4 H 0.1633 0.9369 0.4229
C110_4 C 0.2429(5) 0.9195(6) 0.4050(3)
H107_4 H 0.2506 0.9039 0.3861
H108_4 H 0.2696 0.9040 0.4188
H109_4 H 0.2468 0.9603 0.4044
C109_4 C 0.0566(17) 0.0184(14) 0.2267(9)
H104_4 H 0.0278 0.0449 0.2203
H105_4 H 0.0509 0.0096 0.2469
H106_4 H 0.0937 0.0352 0.2241
C240_4 C 0.8581(5) 0.0469(5) 0.6258(3)
H245_4 H 0.8293 0.0602 0.6394
H246_4 H 0.8939 0.0438 0.6364
C242_4 C 0.8646(5) 0.0890(5) 0.6027(3)
H249_4 H 0.8921 0.0745 0.5887
H250_4 H 0.8283 0.0928 0.5927
C244_4 C 0.8829(4) 0.1451(5) 0.6118(3)
H253_4 H 0.9137 0.1413 0.6258
H254_4 H 0.8514 0.1645 0.6213
C246_4 C 0.9038(6) 0.1814(5) 0.5857(3)
H257_4 H 0.8739 0.1829 0.5711
H258_4 H 0.9369 0.1633 0.5771
C248_4 C 0.9195(6) 0.2429(5) 0.5950(3)
H262_4 H 0.9039 0.2506 0.6139
H263_4 H 0.9040 0.2696 0.5812
H264_4 H 0.9603 0.2468 0.5956
C90_4 C 0.9893(2) 0.9806(2) 0.10256(11)
C93_4 C 0.9805(2) 0.9229(2) 0.10158(12)
C96_4 C 0.9571(3) 0.9850(3) 0.14859(11)
H86_4 H 0.9882 0.9027 0.0846
C97_4 C 0.9606(2) 0.8950(2) 0.12550(12)
C100_4 C 0.9485(2) 0.9282(3) 0.14933(11)
C102_4 C 0.9495(3) 0.8342(3) 0.12547(13)
H95_4 H 0.9342 0.9113 0.1662
C105_4 C 0.9225(5) 0.9992(4) 0.19848(15)
C107_4 C 0.9324(3) 0.8065(3) 0.10138(14)
C108_4 C 0.9575(3) 0.8026(3) 0.15043(14)
H100_4 H 0.9202 0.9598 0.2009
H102_4 H 0.9275 0.8271 0.0842
C113_4 C 0.9219(3) 0.7484(3) 0.10111(17)
C114_4 C 0.9481(3) 0.7451(3) 0.15082(15)
H103_4 H 0.9695 0.8208 0.1674
H112_4 H 0.9092 0.7305 0.0842
C115_4 C 0.9304(3) 0.7177(3) 0.12623(17)
H113_4 H 0.9537 0.7246 0.1679
O4_4 O 0.9218(3) 0.6619(2) 0.12917(14)
C116_4 C 0.9021(5) 0.6335(4) 0.1054(3)
H114_4 H 0.9308 0.6336 0.0902
H115_4 H 0.8679 0.6519 0.0980
C117_4 C 0.8887(5) 0.5730(4) 0.1143(3)
H116_4 H 0.9219 0.5563 0.1236
H117_4 H 0.8576 0.5731 0.1283
C118_4 C 0.8723(8) 0.5378(5) 0.0884(3)
H118_4 H 0.8428 0.5582 0.0779
H119_4 H 0.9053 0.5352 0.0757
C119_4 C 0.8523(5) 0.4813(5) 0.0938(3)
H120_4 H 0.8466 0.4636 0.0749
H121_4 H 0.8148 0.4850 0.1026
C120_4 C 0.8849(6) 0.4401(6) 0.1118(4)
H122_4 H 0.9206 0.4317 0.1020
H123_4 H 0.8942 0.4583 0.1302
C121_4 C 0.8569(5) 0.3889(5) 0.1176(3)
H124_4 H 0.8404 0.3766 0.0992
H125_4 H 0.8252 0.3984 0.1302
C122_4 C 0.8844(7) 0.3375(6) 0.1305(3)
H126_4 H 0.8602 0.3046 0.1269
H127_4 H 0.9206 0.3309 0.1207
C123_4 C 0.8949(6) 0.3421(7) 0.1621(3)
H128_4 H 0.8597 0.3498 0.1725
H129_4 H 0.9221 0.3723 0.1662
C124_4 C 0.9191(6) 0.2842(7) 0.1705(4)
H130_4 H 0.8890 0.2563 0.1705
H131_4 H 0.9356 0.2865 0.1896
H132_4 H 0.9479 0.2732 0.1567
C138_4 C 0.9806(2) 0.9893(2) 0.89744(11)
C140_4 C 0.9229(2) 0.9805(2) 0.89842(12)
C143_4 C 0.9850(3) 0.9571(3) 0.85141(11)
H142_4 H 0.9027 0.9882 0.9154
C144_4 C 0.8950(2) 0.9606(2) 0.87450(12)
C148_4 C 0.9282(3) 0.9485(2) 0.85067(11)
C150_4 C 0.8342(3) 0.9495(3) 0.87453(13)
H144_4 H 0.9113 0.9342 0.8338
C155_4 C 0.9992(4) 0.9225(5) 0.80152(15)
C157_4 C 0.8065(3) 0.9324(3) 0.89862(14)
C158_4 C 0.8026(3) 0.9575(3) 0.84957(14)
H149_4 H 0.9598 0.9202 0.7991
H151_4 H 0.8271 0.9275 0.9158
C165_4 C 0.7484(3) 0.9219(3) 0.89889(17)
C166_4 C 0.7451(3) 0.9481(3) 0.84918(15)
H152_4 H 0.8208 0.9695 0.8326
H159_4 H 0.7305 0.9092 0.9158
C168_4 C 0.7177(3) 0.9304(3) 0.87377(17)
H160_4 H 0.7246 0.9537 0.8321
O6_4 O 0.6619(2) 0.9218(3) 0.87083(14)
C170_4 C 0.6335(4) 0.9021(5) 0.8946(3)
H163_4 H 0.6336 0.9308 0.9098
H164_4 H 0.6519 0.8679 0.9020
C178_4 C 0.5730(4) 0.8887(5) 0.8857(3)
H171_4 H 0.5563 0.9219 0.8764
H172_4 H 0.5731 0.8576 0.8717
C184_4 C 0.5378(5) 0.8723(8) 0.9116(3)
H179_4 H 0.5582 0.8428 0.9221
H180_4 H 0.5352 0.9053 0.9243
C188_4 C 0.4813(5) 0.8523(5) 0.9062(3)
H183_4 H 0.4636 0.8466 0.9251
H184_4 H 0.4850 0.8148 0.8974
C192_4 C 0.4401(6) 0.8849(6) 0.8882(4)
H187_4 H 0.4317 0.9206 0.8980
H188_4 H 0.4583 0.8942 0.8698
C196_4 C 0.3889(5) 0.8569(5) 0.8824(3)
H193_4 H 0.3766 0.8404 0.9008
H194_4 H 0.3984 0.8252 0.8698
C202_4 C 0.3375(6) 0.8844(7) 0.8695(3)
H197_4 H 0.3046 0.8602 0.8731
H198_4 H 0.3309 0.9206 0.8793
C210_4 C 0.3421(7) 0.8949(6) 0.8379(3)
H203_4 H 0.3498 0.8597 0.8275
H204_4 H 0.3723 0.9221 0.8338
C220_4 C 0.2842(7) 0.9191(6) 0.8295(4)
H216_4 H 0.2563 0.8890 0.8295
H217_4 H 0.2865 0.9356 0.8104
H218_4 H 0.2732 0.9479 0.8433
loop_
_geom_bond_atom_site_label_1
_geom_bond_atom_site_label_2
_geom_bond_site_symmetry_1
_geom_bond_site_symmetry_2
H120 C119 1_555 1_555
H121 C119 1_555 1_555
C120 C119 1_555 1_555
H122 C120 1_555 1_555
H123 C120 1_555 1_555
C121 C120 1_555 1_555
H124 C121 1_555 1_555
H125 C121 1_555 1_555
C122 C121 1_555 1_555
H126 C122 1_555 1_555
H127 C122 1_555 1_555
C123 C122 1_555 1_555
H128 C123 1_555 1_555
H129 C123 1_555 1_555
C124 C123 1_555 1_555
H130 C124 1_555 1_555
H131 C124 1_555 1_555
H132 C124 1_555 1_555
H26 C34 1_555 1_555
C43 C40 1_555 1_555
H34 C43 1_555 1_555
C48 C43 1_555 1_555
C53 C47 1_555 1_555
C55 C48 1_555 1_555
H40 C53 1_555 1_555
C63 C55 1_555 1_555
C64 C55 1_555 1_555
H47 C61 1_555 1_555
H49 C63 1_555 1_555
C72 C63 1_555 1_555
C73 C64 1_555 1_555
H50 C64 1_555 1_555
H60 C72 1_555 1_555
C75 C72 1_555 1_555
H61 C73 1_555 1_555
O3 C75 1_555 1_555
C77 O3 1_555 1_555
H64 C77 1_555 1_555
H65 C77 1_555 1_555
C82 C77 1_555 1_555
H70 C82 1_555 1_555
H71 C82 1_555 1_555
C86 C82 1_555 1_555
H76 C86 1_555 1_555
H77 C86 1_555 1_555
C89 C86 1_555 1_555
H80 C89 1_555 1_555
H81 C89 1_555 1_555
C92 C89 1_555 1_555
H84 C92 1_555 1_555
H85 C92 1_555 1_555
C95 C92 1_555 1_555
H89 C95 1_555 1_555
H90 C95 1_555 1_555
C99 C95 1_555 1_555
H93 C99 1_555 1_555
H94 C99 1_555 1_555
C104 C99 1_555 1_555
H98 C104 1_555 1_555
H99 C104 1_555 1_555
C110 C104 1_555 1_555
H107 C110 1_555 1_555
H108 C110 1_555 1_555
H109 C110 1_555 1_555
O5 C167 1_555 1_555
C169 O5 1_555 1_555
H161 C169 1_555 1_555
H162 C169 1_555 1_555
C177 C169 1_555 1_555
H169 C177 1_555 1_555
H170 C177 1_555 1_555
C183 C177 1_555 1_555
H177 C183 1_555 1_555
H178 C183 1_555 1_555
C187 C183 1_555 1_555
H181 C187 1_555 1_555
H182 C187 1_555 1_555
C191 C187 1_555 1_555
H185 C191 1_555 1_555
H186 C191 1_555 1_555
C195 C191 1_555 1_555
H191 C195 1_555 1_555
H192 C195 1_555 1_555
C201 C195 1_555 1_555
H195 C201 1_555 1_555
H196 C201 1_555 1_555
C209 C201 1_555 1_555
H201 C209 1_555 1_555
H202 C209 1_555 1_555
C219 C209 1_555 1_555
H213 C219 1_555 1_555
H214 C219 1_555 1_555
H215 C219 1_555 1_555
C48 C53 1_555 1_555
C73 C75 1_555 1_555
Co1 N1 1_555 1_555
N1 C1 1_555 1_555
N2 Co1 1_555 1_555
N3 Co1 1_555 1_555
C1 C4 1_555 1_555
C2 N1 1_555 1_555
C3 N2 1_555 1_555
C4 C6 1_555 1_555
H1 C1 1_555 1_555
H2 C2 1_555 1_555
C5 C2 1_555 1_555
C6 C5 1_555 1_555
H3 C4 1_555 1_555
H4 C5 1_555 1_555
C7 C6 1_555 1_555
N4 C7 1_555 1_555
C8 C7 1_555 1_555
C9 N4 1_555 1_555
C10 C8 1_555 1_555
H5 C8 1_555 1_555
C11 C9 1_555 1_555
C12 C9 1_555 1_555
C13 C10 1_555 1_555
H6 C11 1_555 1_555
C14 C12 1_555 1_555
C15 C12 1_555 1_555
C16 C13 1_555 1_555
C17 C13 1_555 1_555
H7 C14 1_555 1_555
C18 C14 1_555 1_555
C19 C15 1_555 1_555
H8 C15 1_555 1_555
H9 C16 1_555 1_555
C20 C16 1_555 1_555
C21 C17 1_555 1_555
H10 C17 1_555 1_555
N5 C18 1_555 1_555
H11 C18 1_555 1_555
H12 C19 1_555 1_555
H13 C20 1_555 1_555
C22 C20 1_555 1_555
H14 C21 1_555 1_555
Co2 N5 1_555 1_555
O1 C22 1_555 1_555
N6 Co2 1_555 1_555
N7 Co2 1_555 1_555
N8 Co2 1_555 1_555
N9 Co2 1_555 1_555
N10 Co2 1_555 1_555
C23 O1 1_555 1_555
C24 N6 1_555 1_555
C25 N6 1_555 1_555
C26 N7 1_555 1_555
C27 N8 1_555 1_555
C28 N8 1_555 1_555
C29 N9 1_555 1_555
H15 C23 1_555 1_555
H16 C23 1_555 1_555
C30 C23 1_555 1_555
C31 C24 1_555 1_555
H17 C24 1_555 1_555
H18 C25 1_555 1_555
C32 C25 1_555 1_555
S2 C26 1_555 1_555
C33 C27 1_555 1_555
H19 C27 1_555 1_555
H21 C30 1_555 1_555
H22 C30 1_555 1_555
C35 C30 1_555 1_555
C36 C31 1_555 1_555
H23 C31 1_555 1_555
H24 C32 1_555 1_555
C37 C33 1_555 1_555
H25 C33 1_555 1_555
H27 C35 1_555 1_555
H28 C35 1_555 1_555
C38 C35 1_555 1_555
C39 C36 1_555 1_555
H29 C38 1_555 1_555
H30 C38 1_555 1_555
C41 C38 1_555 1_555
N11 C39 1_555 1_555
C42 C39 1_555 1_555
H31 C41 1_555 1_555
H32 C41 1_555 1_555
C44 C41 1_555 1_555
C45 N11 1_555 1_555
C46 C42 1_555 1_555
H33 C42 1_555 1_555
H35 C44 1_555 1_555
H36 C44 1_555 1_555
C49 C44 1_555 1_555
C50 C45 1_555 1_555
C51 C45 1_555 1_555
C52 C46 1_555 1_555
H37 C49 1_555 1_555
H38 C49 1_555 1_555
C56 C49 1_555 1_555
H39 C50 1_555 1_555
C57 C51 1_555 1_555
C58 C51 1_555 1_555
C59 C52 1_555 1_555
C60 C52 1_555 1_555
C62 C54 1_555 1_555
H41 C56 1_555 1_555
H42 C56 1_555 1_555
C65 C56 1_555 1_555
H43 C57 1_555 1_555
C66 C57 1_555 1_555
C67 C58 1_555 1_555
H44 C58 1_555 1_555
H45 C59 1_555 1_555
C68 C59 1_555 1_555
C69 C60 1_555 1_555
H46 C60 1_555 1_555
C71 C62 1_555 1_555
H48 C62 1_555 1_555
H51 C65 1_555 1_555
H52 C65 1_555 1_555
H53 C65 1_555 1_555
N13 C66 1_555 1_555
H54 C66 1_555 1_555
H55 C67 1_555 1_555
H59 C71 1_555 1_555
Co3 N13 1_555 1_555
N14 Co3 1_555 1_555
N15 Co3 1_555 1_555
C78 N14 1_555 1_555
C79 N14 1_555 1_555
C80 N15 1_555 1_555
C83 C78 1_555 1_555
H66 C78 1_555 1_555
H67 C79 1_555 1_555
C84 C79 1_555 1_555
S4 C80 1_555 1_555
C87 C83 1_555 1_555
H72 C83 1_555 1_555
H73 C84 1_555 1_555
C90 C87 1_555 1_555
N16 C90 1_555 1_555
C93 C90 1_555 1_555
C96 N16 1_555 1_555
H86 C93 1_555 1_555
C97 C93 1_555 1_555
C100 C96 1_555 1_555
C101 C96 1_555 1_555
C102 C97 1_555 1_555
H95 C100 1_555 1_555
C105 C101 1_555 1_555
C106 C101 1_555 1_555
C107 C102 1_555 1_555
C108 C102 1_555 1_555
H100 C105 1_555 1_555
C111 C105 1_555 1_555
C112 C106 1_555 1_555
H101 C106 1_555 1_555
H102 C107 1_555 1_555
C113 C107 1_555 1_555
C114 C108 1_555 1_555
H103 C108 1_555 1_555
H110 C111 1_555 1_555
H111 C112 1_555 1_555
H112 C113 1_555 1_555
C115 C113 1_555 1_555
H113 C114 1_555 1_555
O4 C115 1_555 1_555
C116 O4 1_555 1_555
H114 C116 1_555 1_555
H115 C116 1_555 1_555
C117 C116 1_555 1_555
H116 C117 1_555 1_555
H117 C117 1_555 1_555
C118 C117 1_555 1_555
H118 C118 1_555 1_555
H119 C118 1_555 1_555
N17 Co1 1_555 1_555
N18 Co1 1_555 1_555
N19 Co1 1_555 1_555
C125 N17 1_555 1_555
N20 C70 1_555 1_555
Co4 N20 1_555 1_555
N21 Co3 1_555 1_555
N22 Co3 1_555 1_555
N23 Co3 1_555 1_555
C126 N21 1_555 1_555
C127 N21 1_555 1_555
C128 N22 1_555 1_555
C129 N22 1_555 1_555
C130 N23 1_555 1_555
C131 C126 1_555 1_555
H133 C126 1_555 1_555
H134 C127 1_555 1_555
C132 C127 1_555 1_555
C133 C128 1_555 1_555
H135 C128 1_555 1_555
H136 C129 1_555 1_555
C134 C129 1_555 1_555
S6 C130 1_555 1_555
C135 C131 1_555 1_555
H137 C131 1_555 1_555
H138 C132 1_555 1_555
C136 C133 1_555 1_555
H139 C133 1_555 1_555
H140 C134 1_555 1_555
C137 C135 1_555 1_555
C138 C136 1_555 1_555
N24 C137 1_555 1_555
C139 C137 1_555 1_555
N25 C138 1_555 1_555
C140 C138 1_555 1_555
C141 N24 1_555 1_555
H141 C139 1_555 1_555
C142 C139 1_555 1_555
C143 N25 1_555 1_555
H142 C140 1_555 1_555
C144 C140 1_555 1_555
C145 C141 1_555 1_555
C146 C141 1_555 1_555
C147 C142 1_555 1_555
C148 C143 1_555 1_555
C149 C143 1_555 1_555
C150 C144 1_555 1_555
H143 C145 1_555 1_555
C151 C146 1_555 1_555
C152 C146 1_555 1_555
C153 C147 1_555 1_555
C154 C147 1_555 1_555
H144 C148 1_555 1_555
C155 C149 1_555 1_555
C156 C149 1_555 1_555
C157 C150 1_555 1_555
C158 C150 1_555 1_555
H145 C151 1_555 1_555
C159 C151 1_555 1_555
C160 C152 1_555 1_555
H146 C152 1_555 1_555
H147 C153 1_555 1_555
C161 C153 1_555 1_555
C162 C154 1_555 1_555
H148 C154 1_555 1_555
H149 C155 1_555 1_555
C163 C155 1_555 1_555
C164 C156 1_555 1_555
H150 C156 1_555 1_555
H151 C157 1_555 1_555
C165 C157 1_555 1_555
C166 C158 1_555 1_555
H152 C158 1_555 1_555
N26 C111 1_555 1_555
N27 C159 1_555 1_555
H153 C159 1_555 1_555
H154 C160 1_555 1_555
N28 C163 1_555 1_555
H157 C163 1_555 1_555
H158 C164 1_555 1_555
H159 C165 1_555 1_555
C168 C165 1_555 1_555
H160 C166 1_555 1_555
Co5 N26 1_555 1_555
Co6 N27 1_555 1_555
Co7 N28 1_555 1_555
O6 C168 1_555 1_555
N30 Co6 1_555 1_555
N32 Co6 1_555 1_555
N33 Co6 1_555 1_555
C170 O6 1_555 1_555
C173 N30 1_555 1_555
C176 N32 1_555 1_555
H163 C170 1_555 1_555
H164 C170 1_555 1_555
C178 C170 1_555 1_555
S7 C173 1_555 1_555
H171 C178 1_555 1_555
H172 C178 1_555 1_555
C184 C178 1_555 1_555
H179 C184 1_555 1_555
H180 C184 1_555 1_555
C10 C11 1_555 1_555
C19 N5 1_555 1_555
C21 C22 1_555 1_555
C32 C36 1_555 1_555
C46 C50 1_555 1_555
C67 N13 1_555 1_555
C71 N20 1_555 1_555
C84 C87 1_555 1_555
C97 C100 1_555 1_555
C112 N26 1_555 1_555
C114 C115 1_555 1_555
C132 C135 1_555 1_555
C134 C136 1_555 1_555
C142 C145 1_555 1_555
C144 C148 1_555 1_555
C160 N27 1_555 1_555
C164 N28 1_555 1_555
C166 C168 1_555 1_555
C171 N29 1_555 1_555
C172 N29 1_555 1_555
C174 N31 1_555 1_555
C175 N31 1_555 1_555
C179 C171 1_555 1_555
H165 C171 1_555 1_555
H166 C172 1_555 1_555
C180 C172 1_555 1_555
C181 C174 1_555 1_555
H167 C174 1_555 1_555
C185 C179 1_555 1_555
H173 C179 1_555 1_555
H174 C180 1_555 1_555
C186 C181 1_555 1_555
H175 C181 1_555 1_555
C189 C185 1_555 1_555
N34 C189 1_555 1_555
C193 C189 1_555 1_555
C197 N34 1_555 1_555
H189 C193 1_555 1_555
C198 C193 1_555 1_555
C203 C197 1_555 1_555
C204 C197 1_555 1_555
C205 C198 1_555 1_555
H199 C203 1_555 1_555
C211 C204 1_555 1_555
C212 C204 1_555 1_555
C213 C205 1_555 1_555
C214 C205 1_555 1_555
C216 C207 1_555 1_555
H205 C211 1_555 1_555
C221 C211 1_555 1_555
C222 C212 1_555 1_555
H206 C212 1_555 1_555
H207 C213 1_555 1_555
C223 C213 1_555 1_555
C224 C214 1_555 1_555
H208 C214 1_555 1_555
C226 C216 1_555 1_555
H210 C216 1_555 1_555
N18 C221 1_555 1_555
H219 C221 1_555 1_555
H220 C222 1_555 1_555
H221 C223 1_555 1_555
C229 C223 1_555 1_555
H222 C224 1_555 1_555
N37 C225 1_555 1_555
H224 C226 1_555 1_555
O7 C229 1_555 1_555
Co9 N37 1_555 1_555
C231 O7 1_555 1_555
H227 C231 1_555 1_555
H228 C231 1_555 1_555
C233 C231 1_555 1_555
H231 C233 1_555 1_555
H232 C233 1_555 1_555
C235 C233 1_555 1_555
H235 C235 1_555 1_555
H236 C235 1_555 1_555
C237 C235 1_555 1_555
H239 C237 1_555 1_555
H240 C237 1_555 1_555
C239 C237 1_555 1_555
H243 C239 1_555 1_555
H244 C239 1_555 1_555
C241 C239 1_555 1_555
H247 C241 1_555 1_555
H248 C241 1_555 1_555
C243 C241 1_555 1_555
H251 C243 1_555 1_555
H252 C243 1_555 1_555
C245 C243 1_555 1_555
H255 C245 1_555 1_555
H256 C245 1_555 1_555
C247 C245 1_555 1_555
H259 C247 1_555 1_555
H260 C247 1_555 1_555
H261 C247 1_555 1_555
C180 C185 1_555 1_555
C198 C203 1_555 1_555
C222 N18 1_555 1_555
C224 C229 1_555 1_555
C226 N37 1_555 1_555
H13_2 C20_2 1_555 1_555
C22_2 C20_2 1_555 1_555
H14_2 C21_2 1_555 1_555
O1_2 C22_2 1_555 1_555
C23_2 O1_2 1_555 1_555
H15_2 C23_2 1_555 1_555
H16_2 C23_2 1_555 1_555
C30_2 C23_2 1_555 1_555
H21_2 C30_2 1_555 1_555
H22_2 C30_2 1_555 1_555
C35_2 C30_2 1_555 1_555
H27_2 C35_2 1_555 1_555
H28_2 C35_2 1_555 1_555
C38_2 C35_2 1_555 1_555
H29_2 C38_2 1_555 1_555
H30_2 C38_2 1_555 1_555
C41_2 C38_2 1_555 1_555
H31_2 C41_2 1_555 1_555
H32_2 C41_2 1_555 1_555
C44_2 C41_2 1_555 1_555
H35_2 C44_2 1_555 1_555
H36_2 C44_2 1_555 1_555
C49_2 C44_2 1_555 1_555
H37_2 C49_2 1_555 1_555
H38_2 C49_2 1_555 1_555
C106_2 C101_2 1_555 1_555
C112_2 C106_2 1_555 1_555
H101_2 C106_2 1_555 1_555
H110_2 C111_2 1_555 1_555
H111_2 C112_2 1_555 1_555
H140_2 C134_2 1_555 1_555
N3 C111_2 1_555 1_555
N35_2 C190 1_555 1_555
C194 C190 1_555 1_555
C199 N35_2 1_555 1_555
H190 C194 1_555 1_555
C200 C194 1_555 1_555
C206 C199 1_555 1_555
C207_2 C199 1_555 1_555
C208 C200 1_555 1_555
H200 C206 1_555 1_555
C215 C207_2 1_555 1_555
C216_2 C207_2 1_555 1_555
C217 C208 1_555 1_555
C218 C208 1_555 1_555
H209 C215 1_555 1_555
C225_2 C215 1_555 1_555
C226_2 C216_2 1_555 1_555
H210_2 C216_2 1_555 1_555
H211 C217 1_555 1_555
C227 C217 1_555 1_555
C228 C218 1_555 1_555
H212 C218 1_555 1_555
N33 C225_2 1_555 1_555
H223 C225_2 1_555 1_555
H224_2 C226_2 1_555 1_555
H225 C227 1_555 1_555
C230 C227 1_555 1_555
H226 C228 1_555 1_555
O8 C230 1_555 1_555
C232 O8 1_555 1_555
H229 C232 1_555 1_555
H230 C232 1_555 1_555
C234 C232 1_555 1_555
H233 C234 1_555 1_555
H234 C234 1_555 1_555
C236 C234 1_555 1_555
H237 C236 1_555 1_555
H238 C236 1_555 1_555
C238 C236 1_555 1_555
H241 C238 1_555 1_555
H242 C238 1_555 1_555
C21_2 C22_2 1_555 1_555
C112_2 N3 1_555 1_555
C200 C206 1_555 1_555
C226_2 N33 1_555 1_555
C228 C230 1_555 1_555
N12_2 C40_2 1_555 1_555
C43_2 C40_2 1_555 1_555
C47_2 N12_2 1_555 1_555
H34_2 C43_2 1_555 1_555
C48_2 C43_2 1_555 1_555
C53_2 C47_2 1_555 1_555
C54_2 C47_2 1_555 1_555
C55_2 C48_2 1_555 1_555
H40_2 C53_2 1_555 1_555
C61_2 C54_2 1_555 1_555
C62_2 C54_2 1_555 1_555
C63_2 C55_2 1_555 1_555
C64_2 C55_2 1_555 1_555
H47_2 C61_2 1_555 1_555
C70_2 C61_2 1_555 1_555
C71_2 C62_2 1_555 1_555
H48_2 C62_2 1_555 1_555
H49_2 C63_2 1_555 1_555
C72_2 C63_2 1_555 1_555
C73_2 C64_2 1_555 1_555
H50_2 C64_2 1_555 1_555
H58_2 C70_2 1_555 1_555
H59_2 C71_2 1_555 1_555
H60_2 C72_2 1_555 1_555
C75_2 C72_2 1_555 1_555
H61_2 C73_2 1_555 1_555
O3_2 C75_2 1_555 1_555
C77_2 O3_2 1_555 1_555
H64_2 C77_2 1_555 1_555
H65_2 C77_2 1_555 1_555
C82_2 C77_2 1_555 1_555
H70_2 C82_2 1_555 1_555
H71_2 C82_2 1_555 1_555
C86_2 C82_2 1_555 1_555
H73_2 C84_2 1_555 1_555
H76_2 C86_2 1_555 1_555
H77_2 C86_2 1_555 1_555
C89_2 C86_2 1_555 1_555
H80_2 C89_2 1_555 1_555
H81_2 C89_2 1_555 1_555
N20_2 C70_2 1_555 1_555
Co4_2 N20_2 1_555 1_555
C156_2 C149_2 1_555 1_555
C164_2 C156_2 1_555 1_555
H150_2 C156_2 1_555 1_555
N28_2 C163_2 1_555 1_555
H157_2 C163_2 1_555 1_555
H158_2 C164_2 1_555 1_555
Co7_3 N28_2 1_555 1_555
H221_2 C223_2 1_555 1_555
C229_2 C223_2 1_555 1_555
H222_2 C224_2 1_555 1_555
O7_2 C229_2 1_555 1_555
C231_2 O7_2 1_555 1_555
H227_2 C231_2 1_555 1_555
H228_2 C231_2 1_555 1_555
C233_2 C231_2 1_555 1_555
H231_2 C233_2 1_555 1_555
H232_2 C233_2 1_555 1_555
C235_2 C233_2 1_555 1_555
H235_2 C235_2 1_555 1_555
H236_2 C235_2 1_555 1_555
C237_2 C235_2 1_555 1_555
H239_2 C237_2 1_555 1_555
H240_2 C237_2 1_555 1_555
C239_2 C237_2 1_555 1_555
H243_2 C239_2 1_555 1_555
H244_2 C239_2 1_555 1_555
C241_2 C239_2 1_555 1_555
H247_2 C241_2 1_555 1_555
H248_2 C241_2 1_555 1_555
C243_2 C241_2 1_555 1_555
H251_2 C243_2 1_555 1_555
H252_2 C243_2 1_555 1_555
C48_2 C53_2 1_555 1_555
C71_2 N20_2 1_555 1_555
C73_2 C75_2 1_555 1_555
C164_2 N28_2 1_555 1_555
C224_2 C229_2 1_555 1_555
S1 C3_2 1_555 1_555
N17_2 Co7 1_555 1_555
N18_2 Co7 1_555 1_555
Co7_2 N1_2 1_555 1_555
N1_2 C1_2 1_555 1_555
N2_2 Co7_2 1_555 1_555
N3_2 Co7_2 1_555 1_555
C1_2 C4_2 1_555 1_555
C2_2 N1_2 1_555 1_555
C4_2 C6_2 1_555 1_555
H1_2 C1_2 1_555 1_555
H2_2 C2_2 1_555 1_555
C5_2 C2_2 1_555 1_555
C6_2 C5_2 1_555 1_555
H3_2 C4_2 1_555 1_555
H4_2 C5_2 1_555 1_555
C7_2 C6_2 1_555 1_555
N4_2 C7_2 1_555 1_555
C8_2 C7_2 1_555 1_555
C9_2 N4_2 1_555 1_555
C10_2 C8_2 1_555 1_555
H5_2 C8_2 1_555 1_555
C11_2 C9_2 1_555 1_555
C12_2 C9_2 1_555 1_555
C13_2 C10_2 1_555 1_555
H6_2 C11_2 1_555 1_555
C14_2 C12_2 1_555 1_555
C15_2 C12_2 1_555 1_555
C16_2 C13_2 1_555 1_555
C17_2 C13_2 1_555 1_555
H7_2 C14_2 1_555 1_555
C18_2 C14_2 1_555 1_555
C19_2 C15_2 1_555 1_555
H8_2 C15_2 1_555 1_555
H9_2 C16_2 1_555 1_555
H10_2 C17_2 1_555 1_555
N5_2 C18_2 1_555 1_555
H11_2 C18_2 1_555 1_555
H12_2 C19_2 1_555 1_555
Co4 N5_2 1_555 1_555
N6_2 Co4 1_555 1_555
N7_2 Co4 1_555 1_555
N8_2 Co4 1_555 1_555
N9_2 Co4 1_555 1_555
C24_2 N6_2 1_555 1_555
C25_2 N6_2 1_555 1_555
C26_2 N7_2 1_555 1_555
C27_2 N8_2 1_555 1_555
C28_2 N8_2 1_555 1_555
C29_2 N9_2 1_555 1_555
C31_2 C24_2 1_555 1_555
H17_2 C24_2 1_555 1_555
H18_2 C25_2 1_555 1_555
C32_2 C25_2 1_555 1_555
C33_2 C27_2 1_555 1_555
H19_2 C27_2 1_555 1_555
H20_2 C28_2 1_555 1_555
C34_2 C28_2 1_555 1_555
S3_2 C29_2 1_555 1_555
C36_2 C31_2 1_555 1_555
H23_2 C31_2 1_555 1_555
H24_2 C32_2 1_555 1_555
C37_2 C33_2 1_555 1_555
H26_2 C34_2 1_555 1_555
C39_2 C36_2 1_555 1_555
N11_2 C39_2 1_555 1_555
C42_2 C39_2 1_555 1_555
C45_2 N11_2 1_555 1_555
C46_2 C42_2 1_555 1_555
H33_2 C42_2 1_555 1_555
C50_2 C45_2 1_555 1_555
C51_2 C45_2 1_555 1_555
C52_2 C46_2 1_555 1_555
H39_2 C50_2 1_555 1_555
C57_2 C51_2 1_555 1_555
C58_2 C51_2 1_555 1_555
C59_2 C52_2 1_555 1_555
C60_2 C52_2 1_555 1_555
H43_2 C57_2 1_555 1_555
C66_2 C57_2 1_555 1_555
C67_2 C58_2 1_555 1_555
H44_2 C58_2 1_555 1_555
H45_2 C59_2 1_555 1_555
C68_2 C59_2 1_555 1_555
C69_2 C60_2 1_555 1_555
H46_2 C60_2 1_555 1_555
N13_2 C66_2 1_555 1_555
H54_2 C66_2 1_555 1_555
H55_2 C67_2 1_555 1_555
H56 C68_2 1_555 1_555
C74 C68_2 1_555 1_555
H57 C69_2 1_555 1_555
Co3_2 N13_2 1_555 1_555
O2 C74 1_555 1_555
N14_2 Co3_2 1_555 1_555
N15_2 Co3_2 1_555 1_555
C76 O2 1_555 1_555
C78_2 N14_2 1_555 1_555
C79_2 N14_2 1_555 1_555
C80_2 N15_2 1_555 1_555
H62 C76 1_555 1_555
H63 C76 1_555 1_555
C81 C76 1_555 1_555
C83_2 C78_2 1_555 1_555
H66_2 C78_2 1_555 1_555
H68 C81 1_555 1_555
H69 C81 1_555 1_555
C85 C81 1_555 1_555
C87_2 C83_2 1_555 1_555
H72_2 C83_2 1_555 1_555
H74 C85 1_555 1_555
H75 C85 1_555 1_555
C88 C85 1_555 1_555
H78 C88 1_555 1_555
H79 C88 1_555 1_555
C91 C88 1_555 1_555
H82 C91 1_555 1_555
H83 C91 1_555 1_555
C94 C91 1_555 1_555
H87 C94 1_555 1_555
H88 C94 1_555 1_555
C98 C94 1_555 1_555
H91 C98 1_555 1_555
H92 C98 1_555 1_555
C103 C98 1_555 1_555
H96 C103 1_555 1_555
H97 C103 1_555 1_555
S5_2 C125_2 1_555 1_555
N21_2 Co3_2 1_555 1_555
N22_2 Co3_2 1_555 1_555
N23_2 Co3_2 1_555 1_555
C126_2 N21_2 1_555 1_555
C127_2 N21_2 1_555 1_555
C128_2 N22_2 1_555 1_555
C129_2 N22_2 1_555 1_555
C130_2 N23_2 1_555 1_555
C131_2 C126_2 1_555 1_555
H133_2 C126_2 1_555 1_555
H134_2 C127_2 1_555 1_555
C132_2 C127_2 1_555 1_555
C133_2 C128_2 1_555 1_555
H135_2 C128_2 1_555 1_555
C135_2 C131_2 1_555 1_555
H137_2 C131_2 1_555 1_555
H138_2 C132_2 1_555 1_555
C136_2 C133_2 1_555 1_555
H139_2 C133_2 1_555 1_555
C137_2 C135_2 1_555 1_555
N24_2 C137_2 1_555 1_555
C139_2 C137_2 1_555 1_555
C141_2 N24_2 1_555 1_555
H141_2 C139_2 1_555 1_555
C142_2 C139_2 1_555 1_555
C145_2 C141_2 1_555 1_555
C146_2 C141_2 1_555 1_555
C147_2 C142_2 1_555 1_555
H143_2 C145_2 1_555 1_555
C151_2 C146_2 1_555 1_555
C152_2 C146_2 1_555 1_555
C153_2 C147_2 1_555 1_555
C154_2 C147_2 1_555 1_555
H145_2 C151_2 1_555 1_555
C159_2 C151_2 1_555 1_555
C160_2 C152_2 1_555 1_555
H146_2 C152_2 1_555 1_555
H147_2 C153_2 1_555 1_555
C161_2 C153_2 1_555 1_555
C162_2 C154_2 1_555 1_555
H148_2 C154_2 1_555 1_555
N27_2 C159_2 1_555 1_555
H153_2 C159_2 1_555 1_555
H154_2 C160_2 1_555 1_555
H155_2 C161_2 1_555 1_555
C167_2 C161_2 1_555 1_555
H156_2 C162_2 1_555 1_555
Co6_2 N27_2 1_555 1_555
O5_2 C167_2 1_555 1_555
N29_2 Co6_2 1_555 1_555
N30_2 Co6_2 1_555 1_555
N31_2 Co6_2 1_555 1_555
N32_2 Co6_2 1_555 1_555
N33_2 Co6_2 1_555 1_555
C169_2 O5_2 1_555 1_555
C171_2 N29_2 1_555 1_555
C172_2 N29_2 1_555 1_555
C173_2 N30_2 1_555 1_555
C174_2 N31_2 1_555 1_555
C175_2 N31_2 1_555 1_555
C176_2 N32_2 1_555 1_555
H161_2 C169_2 1_555 1_555
H162_2 C169_2 1_555 1_555
C177_2 C169_2 1_555 1_555
C179_2 C171_2 1_555 1_555
H165_2 C171_2 1_555 1_555
H166_2 C172_2 1_555 1_555
C180_2 C172_2 1_555 1_555
C181_2 C174_2 1_555 1_555
H167_2 C174_2 1_555 1_555
H168 C175_2 1_555 1_555
C182 C175_2 1_555 1_555
S8 C176_2 1_555 1_555
H169_2 C177_2 1_555 1_555
H170_2 C177_2 1_555 1_555
C183_2 C177_2 1_555 1_555
C185_2 C179_2 1_555 1_555
H173_2 C179_2 1_555 1_555
H174_2 C180_2 1_555 1_555
C186_2 C181_2 1_555 1_555
H176 C182 1_555 1_555
H177_2 C183_2 1_555 1_555
H178_2 C183_2 1_555 1_555
C187_2 C183_2 1_555 1_555
C189_2 C185_2 1_555 1_555
H181_2 C187_2 1_555 1_555
H182_2 C187_2 1_555 1_555
C191_2 C187_2 1_555 1_555
N34_2 C189_2 1_555 1_555
C193_2 C189_2 1_555 1_555
H185_2 C191_2 1_555 1_555
H186_2 C191_2 1_555 1_555
C195_2 C191_2 1_555 1_555
C197_2 N34_2 1_555 1_555
H189_2 C193_2 1_555 1_555
C198_2 C193_2 1_555 1_555
H191_2 C195_2 1_555 1_555
H192_2 C195_2 1_555 1_555
C201_2 C195_2 1_555 1_555
C203_2 C197_2 1_555 1_555
C204_2 C197_2 1_555 1_555
C205_2 C198_2 1_555 1_555
H195_2 C201_2 1_555 1_555
H196_2 C201_2 1_555 1_555
C209_2 C201_2 1_555 1_555
H199_2 C203_2 1_555 1_555
C211_2 C204_2 1_555 1_555
C212_2 C204_2 1_555 1_555
C213_2 C205_2 1_555 1_555
C214_2 C205_2 1_555 1_555
H201_2 C209_2 1_555 1_555
H202_2 C209_2 1_555 1_555
H205_2 C211_2 1_555 1_555
C221_2 C211_2 1_555 1_555
C222_2 C212_2 1_555 1_555
H206_2 C212_2 1_555 1_555
H207_2 C213_2 1_555 1_555
H208_2 C214_2 1_555 1_555
N18_2 C221_2 1_555 1_555
H219_2 C221_2 1_555 1_555
H220_2 C222_2 1_555 1_555
C10_2 C11_2 1_555 1_555
C19_2 N5_2 1_555 1_555
C32_2 C36_2 1_555 1_555
C34_2 C37_2 1_555 1_555
C46_2 C50_2 1_555 1_555
C67_2 N13_2 1_555 1_555
C69_2 C74 1_555 1_555
C132_2 C135_2 1_555 1_555
C142_2 C145_2 1_555 1_555
C160_2 N27_2 1_555 1_555
C162_2 C167_2 1_555 1_555
C180_2 C185_2 1_555 1_555
C182 C186_2 1_555 1_555
C198_2 C203_2 1_555 1_555
C222_2 N18_2 1_555 1_555
Co7_3 N1_3 1_555 1_555
N1_3 C1_3 1_555 1_555
N2_3 Co7_3 1_555 1_555
N3_3 Co7_3 1_555 1_555
C1_3 C4_3 1_555 1_555
C2_3 N1_3 1_555 1_555
C3_3 N2_3 1_555 1_555
C4_3 C6_3 1_555 1_555
H1_3 C1_3 1_555 1_555
H2_3 C2_3 1_555 1_555
C5_3 C2_3 1_555 1_555
C6_3 C5_3 1_555 1_555
H3_3 C4_3 1_555 1_555
H4_3 C5_3 1_555 1_555
C7_3 C6_3 1_555 1_555
N4_3 C7_3 1_555 1_555
C8_3 C7_3 1_555 1_555
C9_3 N4_3 1_555 1_555
C10_3 C8_3 1_555 1_555
H5_3 C8_3 1_555 1_555
C11_3 C9_3 1_555 1_555
C12_3 C9_3 1_555 1_555
C13_3 C10_3 1_555 1_555
H6_3 C11_3 1_555 1_555
C14_3 C12_3 1_555 1_555
C15_3 C12_3 1_555 1_555
C16_3 C13_3 1_555 1_555
C17_3 C13_3 1_555 1_555
H7_3 C14_3 1_555 1_555
C18_3 C14_3 1_555 1_555
C19_3 C15_3 1_555 1_555
H8_3 C15_3 1_555 1_555
H9_3 C16_3 1_555 1_555
C20_3 C16_3 1_555 1_555
C21_3 C17_3 1_555 1_555
H10_3 C17_3 1_555 1_555
N5_3 C18_3 1_555 1_555
H11_3 C18_3 1_555 1_555
H12_3 C19_3 1_555 1_555
H13_3 C20_3 1_555 1_555
C22_3 C20_3 1_555 1_555
H14_3 C21_3 1_555 1_555
O1_3 C22_3 1_555 1_555
C23_3 O1_3 1_555 1_555
C27_3 N8_3 1_555 1_555
C28_3 N8_3 1_555 1_555
H15_3 C23_3 1_555 1_555
H16_3 C23_3 1_555 1_555
C30_3 C23_3 1_555 1_555
C33_3 C27_3 1_555 1_555
H19_3 C27_3 1_555 1_555
H21_3 C30_3 1_555 1_555
H22_3 C30_3 1_555 1_555
C35_3 C30_3 1_555 1_555
C37_3 C33_3 1_555 1_555
H25_3 C33_3 1_555 1_555
H27_3 C35_3 1_555 1_555
H28_3 C35_3 1_555 1_555
C38_3 C35_3 1_555 1_555
H29_3 C38_3 1_555 1_555
H30_3 C38_3 1_555 1_555
C41_3 C38_3 1_555 1_555
H31_3 C41_3 1_555 1_555
H32_3 C41_3 1_555 1_555
C44_3 C41_3 1_555 1_555
H35_3 C44_3 1_555 1_555
H36_3 C44_3 1_555 1_555
C49_3 C44_3 1_555 1_555
H37_3 C49_3 1_555 1_555
H38_3 C49_3 1_555 1_555
C56_2 C49_3 1_555 1_555
C62_3 C54_3 1_555 1_555
H41_2 C56_2 1_555 1_555
H42_2 C56_2 1_555 1_555
C65_2 C56_2 1_555 1_555
C71_3 C62_3 1_555 1_555
H48_3 C62_3 1_555 1_555
H51_2 C65_2 1_555 1_555
H52_3 C65_2 1_555 1_555
H53_3 C65_2 1_555 1_555
H59_3 C71_3 1_555 1_555
N17_3 Co7_3 1_555 1_555
N18_3 Co7_3 1_555 1_555
C125_3 N17_3 1_555 1_555
N20_3 C70_3 1_555 1_555
Co4_3 N20_3 1_555 1_555
C10_3 C11_3 1_555 1_555
C19_3 N5_3 1_555 1_555
C21_3 C22_3 1_555 1_555
C71_3 N20_3 1_555 1_555
N6_3 Co4_2 1_555 1_555
N7_3 Co4_2 1_555 1_555
N9_3 Co4_2 1_555 1_555
C24_3 N6_3 1_555 1_555
C25_3 N6_3 1_555 1_555
C26_3 N7_3 1_555 1_555
C29_3 N9_3 1_555 1_555
C31_3 C24_3 1_555 1_555
H17_3 C24_3 1_555 1_555
H18_3 C25_3 1_555 1_555
C32_3 C25_3 1_555 1_555
S2_3 C26_3 1_555 1_555
C36_3 C31_3 1_555 1_555
H23_3 C31_3 1_555 1_555
H24_3 C32_3 1_555 1_555
C39_3 C36_3 1_555 1_555
N11_3 C39_3 1_555 1_555
C42_3 C39_3 1_555 1_555
C45_3 N11_3 1_555 1_555
C46_3 C42_3 1_555 1_555
H33_3 C42_3 1_555 1_555
C50_3 C45_3 1_555 1_555
C51_3 C45_3 1_555 1_555
C52_3 C46_3 1_555 1_555
H39_3 C50_3 1_555 1_555
C57_3 C51_3 1_555 1_555
C58_3 C51_3 1_555 1_555
C59_3 C52_3 1_555 1_555
C60_3 C52_3 1_555 1_555
H43_3 C57_3 1_555 1_555
C66_3 C57_3 1_555 1_555
C67_3 C58_3 1_555 1_555
H44_3 C58_3 1_555 1_555
H45_3 C59_3 1_555 1_555
C68_3 C59_3 1_555 1_555
C69_3 C60_3 1_555 1_555
H46_3 C60_3 1_555 1_555
N13_3 C66_3 1_555 1_555
H54_3 C66_3 1_555 1_555
H55_3 C67_3 1_555 1_555
Co3_3 N13_3 1_555 1_555
N14_3 Co3_3 1_555 1_555
N15_3 Co3_3 1_555 1_555
C78_3 N14_3 1_555 1_555
C79_3 N14_3 1_555 1_555
C80_3 N15_3 1_555 1_555
C83_3 C78_3 1_555 1_555
H66_3 C78_3 1_555 1_555
H67_3 C79_3 1_555 1_555
C84_3 C79_3 1_555 1_555
S4_3 C80_3 1_555 1_555
C87_3 C83_3 1_555 1_555
H72_3 C83_3 1_555 1_555
H73_3 C84_3 1_555 1_555
C90_2 C87_3 1_555 1_555
N16_3 C90_2 1_555 1_555
C93_2 C90_2 1_555 1_555
C96_2 N16_3 1_555 1_555
H86_2 C93_2 1_555 1_555
C97_2 C93_2 1_555 1_555
C100_2 C96_2 1_555 1_555
C101_3 C96_2 1_555 1_555
C102_2 C97_2 1_555 1_555
H95_2 C100_2 1_555 1_555
C105_2 C101_3 1_555 1_555
C106_3 C101_3 1_555 1_555
C107_2 C102_2 1_555 1_555
C108_2 C102_2 1_555 1_555
H100_2 C105_2 1_555 1_555
C111_3 C105_2 1_555 1_555
C112_3 C106_3 1_555 1_555
H101_3 C106_3 1_555 1_555
H102_2 C107_2 1_555 1_555
C113_2 C107_2 1_555 1_555
C114_2 C108_2 1_555 1_555
H103_2 C108_2 1_555 1_555
H110_3 C111_3 1_555 1_555
H111_3 C112_3 1_555 1_555
H112_2 C113_2 1_555 1_555
C115_2 C113_2 1_555 1_555
H113_2 C114_2 1_555 1_555
O4_2 C115_2 1_555 1_555
C116_2 O4_2 1_555 1_555
H114_2 C116_2 1_555 1_555
H115_2 C116_2 1_555 1_555
C117_2 C116_2 1_555 1_555
H116_2 C117_2 1_555 1_555
H117_2 C117_2 1_555 1_555
C118_2 C117_2 1_555 1_555
H118_2 C118_2 1_555 1_555
H119_2 C118_2 1_555 1_555
N21_3 Co3_3 1_555 1_555
N22_3 Co3_3 1_555 1_555
N23_3 Co3_3 1_555 1_555
C126_3 N21_3 1_555 1_555
C127_3 N21_3 1_555 1_555
C128_3 N22_3 1_555 1_555
C129_3 N22_3 1_555 1_555
C130_3 N23_3 1_555 1_555
C131_3 C126_3 1_555 1_555
H133_3 C126_3 1_555 1_555
H134_3 C127_3 1_555 1_555
C132_3 C127_3 1_555 1_555
C133_3 C128_3 1_555 1_555
H135_3 C128_3 1_555 1_555
H136_3 C129_3 1_555 1_555
C134_3 C129_3 1_555 1_555
S6_3 C130_3 1_555 1_555
C135_3 C131_3 1_555 1_555
H137_3 C131_3 1_555 1_555
H138_3 C132_3 1_555 1_555
C136_3 C133_3 1_555 1_555
H139_3 C133_3 1_555 1_555
H140_3 C134_3 1_555 1_555
C137_3 C135_3 1_555 1_555
C138_2 C136_3 1_555 1_555
N24_3 C137_3 1_555 1_555
C139_3 C137_3 1_555 1_555
N25_3 C138_2 1_555 1_555
C140_2 C138_2 1_555 1_555
C141_3 N24_3 1_555 1_555
H141_3 C139_3 1_555 1_555
C142_3 C139_3 1_555 1_555
C143_2 N25_3 1_555 1_555
H142_2 C140_2 1_555 1_555
C144_2 C140_2 1_555 1_555
C145_3 C141_3 1_555 1_555
C146_3 C141_3 1_555 1_555
C147_3 C142_3 1_555 1_555
C148_2 C143_2 1_555 1_555
C149_3 C143_2 1_555 1_555
C150_2 C144_2 1_555 1_555
H143_3 C145_3 1_555 1_555
C151_3 C146_3 1_555 1_555
C152_3 C146_3 1_555 1_555
C153_3 C147_3 1_555 1_555
C154_3 C147_3 1_555 1_555
H144_2 C148_2 1_555 1_555
C155_2 C149_3 1_555 1_555
C156_3 C149_3 1_555 1_555
C157_2 C150_2 1_555 1_555
C158_2 C150_2 1_555 1_555
H145_3 C151_3 1_555 1_555
C159_3 C151_3 1_555 1_555
C160_3 C152_3 1_555 1_555
H146_3 C152_3 1_555 1_555
H147_3 C153_3 1_555 1_555
C161_3 C153_3 1_555 1_555
C162_3 C154_3 1_555 1_555
H148_3 C154_3 1_555 1_555
H149_2 C155_2 1_555 1_555
C163_3 C155_2 1_555 1_555
C164_3 C156_3 1_555 1_555
H150_3 C156_3 1_555 1_555
H151_2 C157_2 1_555 1_555
C165_2 C157_2 1_555 1_555
C166_2 C158_2 1_555 1_555
H152_2 C158_2 1_555 1_555
N3_2 C111_3 1_555 1_555
N27_3 C159_3 1_555 1_555
H153_3 C159_3 1_555 1_555
H154_3 C160_3 1_555 1_555
N28_3 C163_3 1_555 1_555
H157_3 C163_3 1_555 1_555
H158_3 C164_3 1_555 1_555
H159_2 C165_2 1_555 1_555
C168_2 C165_2 1_555 1_555
H160_2 C166_2 1_555 1_555
Co6_3 N27_3 1_555 1_555
Co5 N28_3 1_555 1_555
O6_2 C168_2 1_555 1_555
N29_3 Co6_3 1_555 1_555
N30_3 Co6_3 1_555 1_555
N31_3 Co6_3 1_555 1_555
N32_3 Co6_3 1_555 1_555
N33_3 Co6_3 1_555 1_555
C170_2 O6_2 1_555 1_555
C171_3 N29_3 1_555 1_555
C172_3 N29_3 1_555 1_555
C173_3 N30_3 1_555 1_555
C174_3 N31_3 1_555 1_555
C175_3 N31_3 1_555 1_555
C176_3 N32_3 1_555 1_555
H163_2 C170_2 1_555 1_555
H164_2 C170_2 1_555 1_555
C178_2 C170_2 1_555 1_555
C179_3 C171_3 1_555 1_555
H165_3 C171_3 1_555 1_555
H166_3 C172_3 1_555 1_555
C180_3 C172_3 1_555 1_555
S7_3 C173_3 1_555 1_555
C181_3 C174_3 1_555 1_555
H167_3 C174_3 1_555 1_555
H171_2 C178_2 1_555 1_555
H172_2 C178_2 1_555 1_555
C184_2 C178_2 1_555 1_555
C185_3 C179_3 1_555 1_555
H173_3 C179_3 1_555 1_555
H174_3 C180_3 1_555 1_555
C186_3 C181_3 1_555 1_555
H175_3 C181_3 1_555 1_555
H179_2 C184_2 1_555 1_555
H180_2 C184_2 1_555 1_555
C189_3 C185_3 1_555 1_555
N34_3 C189_3 1_555 1_555
C193_3 C189_3 1_555 1_555
C197_3 N34_3 1_555 1_555
H189_3 C193_3 1_555 1_555
C198_3 C193_3 1_555 1_555
C203_3 C197_3 1_555 1_555
C204_3 C197_3 1_555 1_555
C205_3 C198_3 1_555 1_555
H199_3 C203_3 1_555 1_555
C211_3 C204_3 1_555 1_555
C212_3 C204_3 1_555 1_555
C213_3 C205_3 1_555 1_555
C214_3 C205_3 1_555 1_555
C216_3 C207_3 1_555 1_555
H205_3 C211_3 1_555 1_555
C221_3 C211_3 1_555 1_555
C222_3 C212_3 1_555 1_555
H206_3 C212_3 1_555 1_555
H207_3 C213_3 1_555 1_555
C223_3 C213_3 1_555 1_555
C224_3 C214_3 1_555 1_555
H208_3 C214_3 1_555 1_555
C226_3 C216_3 1_555 1_555
H210_3 C216_3 1_555 1_555
N18_3 C221_3 1_555 1_555
H219_3 C221_3 1_555 1_555
H220_3 C222_3 1_555 1_555
H221_3 C223_3 1_555 1_555
C229_3 C223_3 1_555 1_555
H222_3 C224_3 1_555 1_555
N33_2 C225_3 1_555 1_555
H224_3 C226_3 1_555 1_555
O7_3 C229_3 1_555 1_555
C231_3 O7_3 1_555 1_555
H227_3 C231_3 1_555 1_555
H228_3 C231_3 1_555 1_555
C233_3 C231_3 1_555 1_555
H231_3 C233_3 1_555 1_555
H232_3 C233_3 1_555 1_555
C235_3 C233_3 1_555 1_555
H235_3 C235_3 1_555 1_555
H236_3 C235_3 1_555 1_555
C237_3 C235_3 1_555 1_555
H239_3 C237_3 1_555 1_555
H240_3 C237_3 1_555 1_555
C239_3 C237_3 1_555 1_555
H243_3 C239_3 1_555 1_555
H244_3 C239_3 1_555 1_555
C241_3 C239_3 1_555 1_555
H247_3 C241_3 1_555 1_555
H248_3 C241_3 1_555 1_555
C243_3 C241_3 1_555 1_555
H251_3 C243_3 1_555 1_555
H252_3 C243_3 1_555 1_555
C245_2 C243_3 1_555 1_555
H255_2 C245_2 1_555 1_555
H256_2 C245_2 1_555 1_555
C247_2 C245_2 1_555 1_555
H259_2 C247_2 1_555 1_555
H260_3 C247_2 1_555 1_555
H261_3 C247_2 1_555 1_555
C32_3 C36_3 1_555 1_555
C46_3 C50_3 1_555 1_555
C67_3 N13_3 1_555 1_555
C84_3 C87_3 1_555 1_555
C97_2 C100_2 1_555 1_555
C112_3 N3_2 1_555 1_555
C114_2 C115_2 1_555 1_555
C132_3 C135_3 1_555 1_555
C134_3 C136_3 1_555 1_555
C142_3 C145_3 1_555 1_555
C144_2 C148_2 1_555 1_555
C160_3 N27_3 1_555 1_555
C164_3 N28_3 1_555 1_555
C166_2 C168_2 1_555 1_555
C180_3 C185_3 1_555 1_555
C198_3 C203_3 1_555 1_555
C222_3 N18_3 1_555 1_555
C224_3 C229_3 1_555 1_555
C226_3 N33_2 1_555 1_555
Co5 N1_4 1_555 1_555
N1_4 C1_4 1_555 1_555
N2_4 Co5 1_555 1_555
C1_4 C4_4 1_555 1_555
C2_4 N1_4 1_555 1_555
C3_4 N2_4 1_555 1_555
C4_4 C6_4 1_555 1_555
H1_4 C1_4 1_555 1_555
H2_4 C2_4 1_555 1_555
C5_4 C2_4 1_555 1_555
S1_2 C3_4 1_555 1_555
C6_4 C5_4 1_555 1_555
H3_4 C4_4 1_555 1_555
H4_4 C5_4 1_555 1_555
C7_4 C6_4 1_555 1_555
N4_4 C7_4 1_555 1_555
C8_4 C7_4 1_555 1_555
C9_4 N4_4 1_555 1_555
C10_4 C8_4 1_555 1_555
H5_4 C8_4 1_555 1_555
C11_4 C9_4 1_555 1_555
C12_4 C9_4 1_555 1_555
C13_4 C10_4 1_555 1_555
H6_4 C11_4 1_555 1_555
C14_4 C12_4 1_555 1_555
C15_4 C12_4 1_555 1_555
C16_4 C13_4 1_555 1_555
C17_4 C13_4 1_555 1_555
H7_4 C14_4 1_555 1_555
C18_4 C14_4 1_555 1_555
C19_4 C15_4 1_555 1_555
H8_4 C15_4 1_555 1_555
H9_4 C16_4 1_555 1_555
H10_4 C17_4 1_555 1_555
N5_4 C18_4 1_555 1_555
H11_4 C18_4 1_555 1_555
H12_4 C19_4 1_555 1_555
Co4_3 N5_4 1_555 1_555
N6_4 Co4_3 1_555 1_555
N7_4 Co4_3 1_555 1_555
N8_4 Co4_3 1_555 1_555
N9_4 Co4_3 1_555 1_555
C24_4 N6_4 1_555 1_555
C25_4 N6_4 1_555 1_555
C26_4 N7_4 1_555 1_555
C27_4 N8_4 1_555 1_555
C28_4 N8_4 1_555 1_555
C29_4 N9_4 1_555 1_555
C31_4 C24_4 1_555 1_555
H17_4 C24_4 1_555 1_555
H18_4 C25_4 1_555 1_555
C32_4 C25_4 1_555 1_555
C33_4 C27_4 1_555 1_555
H19_4 C27_4 1_555 1_555
H20_3 C28_4 1_555 1_555
C34_3 C28_4 1_555 1_555
S3_3 C29_4 1_555 1_555
C36_4 C31_4 1_555 1_555
H23_4 C31_4 1_555 1_555
H24_4 C32_4 1_555 1_555
C37_4 C33_4 1_555 1_555
H26_3 C34_3 1_555 1_555
C39_4 C36_4 1_555 1_555
N11_4 C39_4 1_555 1_555
C42_4 C39_4 1_555 1_555
C45_4 N11_4 1_555 1_555
C46_4 C42_4 1_555 1_555
H33_4 C42_4 1_555 1_555
C50_4 C45_4 1_555 1_555
C51_4 C45_4 1_555 1_555
C52_4 C46_4 1_555 1_555
H39_4 C50_4 1_555 1_555
C57_4 C51_4 1_555 1_555
C58_4 C51_4 1_555 1_555
C59_4 C52_4 1_555 1_555
C60_4 C52_4 1_555 1_555
H43_4 C57_4 1_555 1_555
C66_4 C57_4 1_555 1_555
C67_4 C58_4 1_555 1_555
H44_4 C58_4 1_555 1_555
H45_4 C59_4 1_555 1_555
C68_4 C59_4 1_555 1_555
C69_4 C60_4 1_555 1_555
H46_4 C60_4 1_555 1_555
N13_4 C66_4 1_555 1_555
H54_4 C66_4 1_555 1_555
H55_4 C67_4 1_555 1_555
H56_2 C68_4 1_555 1_555
C74_2 C68_4 1_555 1_555
H57_2 C69_4 1_555 1_555
Co3_4 N13_4 1_555 1_555
O2_2 C74_2 1_555 1_555
N14_4 Co3_4 1_555 1_555
N15_4 Co3_4 1_555 1_555
C76_2 O2_2 1_555 1_555
C78_4 N14_4 1_555 1_555
C79_4 N14_4 1_555 1_555
C80_4 N15_4 1_555 1_555
H62_2 C76_2 1_555 1_555
H63_2 C76_2 1_555 1_555
C81_2 C76_2 1_555 1_555
C83_4 C78_4 1_555 1_555
H66_4 C78_4 1_555 1_555
H68_2 C81_2 1_555 1_555
H69_2 C81_2 1_555 1_555
C85_2 C81_2 1_555 1_555
C87_4 C83_4 1_555 1_555
H72_4 C83_4 1_555 1_555
H74_2 C85_2 1_555 1_555
H75_2 C85_2 1_555 1_555
C88_2 C85_2 1_555 1_555
H78_2 C88_2 1_555 1_555
H79_2 C88_2 1_555 1_555
C91_2 C88_2 1_555 1_555
H82_2 C91_2 1_555 1_555
H83_2 C91_2 1_555 1_555
C94_2 C91_2 1_555 1_555
H87_2 C94_2 1_555 1_555
H88_2 C94_2 1_555 1_555
C98_2 C94_2 1_555 1_555
H91_2 C98_2 1_555 1_555
H92_2 C98_2 1_555 1_555
C103_2 C98_2 1_555 1_555
H96_2 C103_2 1_555 1_555
H97_2 C103_2 1_555 1_555
N17_4 Co5 1_555 1_555
N18_4 Co5 1_555 1_555
C125_4 N17_4 1_555 1_555
S5_3 C125_4 1_555 1_555
C10_4 C11_4 1_555 1_555
C19_4 N5_4 1_555 1_555
C32_4 C36_4 1_555 1_555
C34_3 C37_4 1_555 1_555
C46_4 C50_4 1_555 1_555
C67_4 N13_4 1_555 1_555
C69_4 C74_2 1_555 1_555
N21_4 Co3_5 1_555 1_555
N22_4 Co3_5 1_555 1_555
N23_4 Co3_5 1_555 1_555
C126_4 N21_4 1_555 1_555
C127_4 N21_4 1_555 1_555
C128_4 N22_4 1_555 1_555
C129_4 N22_4 1_555 1_555
C130_4 N23_4 1_555 1_555
C131_4 C126_4 1_555 1_555
H133_4 C126_4 1_555 1_555
H134_4 C127_4 1_555 1_555
C132_4 C127_4 1_555 1_555
C133_4 C128_4 1_555 1_555
H135_4 C128_4 1_555 1_555
C135_4 C131_4 1_555 1_555
H137_4 C131_4 1_555 1_555
H138_4 C132_4 1_555 1_555
C136_4 C133_4 1_555 1_555
H139_4 C133_4 1_555 1_555
C137_4 C135_4 1_555 1_555
N24_4 C137_4 1_555 1_555
C139_4 C137_4 1_555 1_555
C141_4 N24_4 1_555 1_555
H141_4 C139_4 1_555 1_555
C142_4 C139_4 1_555 1_555
C145_4 C141_4 1_555 1_555
C146_4 C141_4 1_555 1_555
C147_4 C142_4 1_555 1_555
H143_4 C145_4 1_555 1_555
C151_4 C146_4 1_555 1_555
C152_4 C146_4 1_555 1_555
C153_4 C147_4 1_555 1_555
C154_4 C147_4 1_555 1_555
H145_4 C151_4 1_555 1_555
C159_4 C151_4 1_555 1_555
C160_4 C152_4 1_555 1_555
H146_4 C152_4 1_555 1_555
H147_4 C153_4 1_555 1_555
C161_4 C153_4 1_555 1_555
C162_4 C154_4 1_555 1_555
H148_4 C154_4 1_555 1_555
N27_4 C159_4 1_555 1_555
H153_4 C159_4 1_555 1_555
H154_4 C160_4 1_555 1_555
H155_3 C161_4 1_555 1_555
C167_3 C161_4 1_555 1_555
H156_3 C162_4 1_555 1_555
Co9 N27_4 1_555 1_555
O5_3 C167_3 1_555 1_555
N29_4 Co9 1_555 1_555
N30_4 Co9 1_555 1_555
N31_4 Co9 1_555 1_555
N32_4 Co9 1_555 1_555
C169_3 O5_3 1_555 1_555
C171_4 N29_4 1_555 1_555
C172_4 N29_4 1_555 1_555
C173_4 N30_4 1_555 1_555
C174_4 N31_4 1_555 1_555
C175_4 N31_4 1_555 1_555
C176_4 N32_4 1_555 1_555
H161_3 C169_3 1_555 1_555
H162_3 C169_3 1_555 1_555
C177_3 C169_3 1_555 1_555
C179_4 C171_4 1_555 1_555
H165_4 C171_4 1_555 1_555
H166_4 C172_4 1_555 1_555
C180_4 C172_4 1_555 1_555
C181_4 C174_4 1_555 1_555
H167_4 C174_4 1_555 1_555
H168_2 C175_4 1_555 1_555
C182_2 C175_4 1_555 1_555
S8_2 C176_4 1_555 1_555
H169_3 C177_3 1_555 1_555
H170_3 C177_3 1_555 1_555
C183_3 C177_3 1_555 1_555
C185_4 C179_4 1_555 1_555
H173_4 C179_4 1_555 1_555
H174_4 C180_4 1_555 1_555
C186_4 C181_4 1_555 1_555
H176_2 C182_2 1_555 1_555
H177_3 C183_3 1_555 1_555
H178_3 C183_3 1_555 1_555
C187_3 C183_3 1_555 1_555
C189_4 C185_4 1_555 1_555
H181_3 C187_3 1_555 1_555
H182_3 C187_3 1_555 1_555
C191_3 C187_3 1_555 1_555
N34_4 C189_4 1_555 1_555
C193_4 C189_4 1_555 1_555
H185_3 C191_3 1_555 1_555
H186_3 C191_3 1_555 1_555
C195_3 C191_3 1_555 1_555
C197_4 N34_4 1_555 1_555
H189_4 C193_4 1_555 1_555
C198_4 C193_4 1_555 1_555
H191_3 C195_3 1_555 1_555
H192_3 C195_3 1_555 1_555
C201_3 C195_3 1_555 1_555
C203_4 C197_4 1_555 1_555
C204_4 C197_4 1_555 1_555
C205_4 C198_4 1_555 1_555
H195_3 C201_3 1_555 1_555
H196_3 C201_3 1_555 1_555
C209_3 C201_3 1_555 1_555
H199_4 C203_4 1_555 1_555
C211_4 C204_4 1_555 1_555
C212_4 C204_4 1_555 1_555
C213_4 C205_4 1_555 1_555
C214_4 C205_4 1_555 1_555
H201_3 C209_3 1_555 1_555
H202_3 C209_3 1_555 1_555
H205_4 C211_4 1_555 1_555
C221_4 C211_4 1_555 1_555
C222_4 C212_4 1_555 1_555
H206_4 C212_4 1_555 1_555
H207_4 C213_4 1_555 1_555
H208_4 C214_4 1_555 1_555
N18_4 C221_4 1_555 1_555
H219_4 C221_4 1_555 1_555
H220_4 C222_4 1_555 1_555
C132_4 C135_4 1_555 1_555
C142_4 C145_4 1_555 1_555
C160_4 N27_4 1_555 1_555
C162_4 C167_3 1_555 1_555
C180_4 C185_4 1_555 1_555
C182_2 C186_4 1_555 1_555
C198_4 C203_4 1_555 1_555
C222_4 N18_4 1_555 1_555
N12_4 C40_3 1_555 1_555
C43_3 C40_3 1_555 1_555
C47_3 N12_4 1_555 1_555
H34_3 C43_3 1_555 1_555
C48_3 C43_3 1_555 1_555
C53_3 C47_3 1_555 1_555
C54_4 C47_3 1_555 1_555
C55_3 C48_3 1_555 1_555
H40_3 C53_3 1_555 1_555
C61_3 C54_4 1_555 1_555
C62_4 C54_4 1_555 1_555
C63_3 C55_3 1_555 1_555
C64_3 C55_3 1_555 1_555
H47_3 C61_3 1_555 1_555
C70_4 C61_3 1_555 1_555
C71_4 C62_4 1_555 1_555
H48_4 C62_4 1_555 1_555
H49_3 C63_3 1_555 1_555
C72_3 C63_3 1_555 1_555
C73_3 C64_3 1_555 1_555
H50_3 C64_3 1_555 1_555
H58_3 C70_4 1_555 1_555
H59_4 C71_4 1_555 1_555
H60_3 C72_3 1_555 1_555
C75_3 C72_3 1_555 1_555
H61_3 C73_3 1_555 1_555
O3_3 C75_3 1_555 1_555
C77_3 O3_3 1_555 1_555
H64_3 C77_3 1_555 1_555
H65_3 C77_3 1_555 1_555
C82_3 C77_3 1_555 1_555
H70_3 C82_3 1_555 1_555
H71_3 C82_3 1_555 1_555
C86_3 C82_3 1_555 1_555
H73_4 C84_4 1_555 1_555
H76_3 C86_3 1_555 1_555
H77_3 C86_3 1_555 1_555
C89_3 C86_3 1_555 1_555
H80_3 C89_3 1_555 1_555
H81_3 C89_3 1_555 1_555
N10 C70_4 1_555 1_555
C48_3 C53_3 1_555 1_555
C71_4 N10 1_555 1_555
C73_3 C75_3 1_555 1_555
C156_4 C149_4 1_555 1_555
C164_4 C156_4 1_555 1_555
H150_4 C156_4 1_555 1_555
N19 C163_4 1_555 1_555
H157_4 C163_4 1_555 1_555
H158_4 C164_4 1_555 1_555
H221_4 C223_4 1_555 1_555
C229_4 C223_4 1_555 1_555
H222_4 C224_4 1_555 1_555
O7_4 C229_4 1_555 1_555
C231_4 O7_4 1_555 1_555
H227_4 C231_4 1_555 1_555
H228_4 C231_4 1_555 1_555
C233_4 C231_4 1_555 1_555
H231_4 C233_4 1_555 1_555
H232_4 C233_4 1_555 1_555
C235_4 C233_4 1_555 1_555
H235_4 C235_4 1_555 1_555
H236_4 C235_4 1_555 1_555
C237_4 C235_4 1_555 1_555
H239_4 C237_4 1_555 1_555
H240_4 C237_4 1_555 1_555
C239_4 C237_4 1_555 1_555
H243_4 C239_4 1_555 1_555
H244_4 C239_4 1_555 1_555
C241_4 C239_4 1_555 1_555
H247_4 C241_4 1_555 1_555
H248_4 C241_4 1_555 1_555
C243_4 C241_4 1_555 1_555
H251_4 C243_4 1_555 1_555
H252_4 C243_4 1_555 1_555
C245_3 C243_4 1_555 1_555
H255_3 C245_3 1_555 1_555
H256_3 C245_3 1_555 1_555
C247_3 C245_3 1_555 1_555
H259_3 C247_3 1_555 1_555
H260_4 C247_3 1_555 1_555
H261_4 C247_3 1_555 1_555
C164_4 N19 1_555 1_555
C224_4 C229_4 1_555 1_555
H13_4 C20_4 1_555 1_555
C22_4 C20_4 1_555 1_555
H14_4 C21_4 1_555 1_555
O1_4 C22_4 1_555 1_555
C23_4 O1_4 1_555 1_555
H15_4 C23_4 1_555 1_555
H16_4 C23_4 1_555 1_555
C30_4 C23_4 1_555 1_555
H21_4 C30_4 1_555 1_555
H22_4 C30_4 1_555 1_555
C35_4 C30_4 1_555 1_555
H27_4 C35_4 1_555 1_555
H28_4 C35_4 1_555 1_555
C38_4 C35_4 1_555 1_555
H29_4 C38_4 1_555 1_555
H30_4 C38_4 1_555 1_555
C41_4 C38_4 1_555 1_555
H31_4 C41_4 1_555 1_555
H32_4 C41_4 1_555 1_555
C44_4 C41_4 1_555 1_555
H35_4 C44_4 1_555 1_555
H36_4 C44_4 1_555 1_555
C49_4 C44_4 1_555 1_555
H37_4 C49_4 1_555 1_555
H38_4 C49_4 1_555 1_555
C56_3 C49_4 1_555 1_555
H41_3 C56_3 1_555 1_555
H42_3 C56_3 1_555 1_555
C65_3 C56_3 1_555 1_555
H51_3 C65_3 1_555 1_555
H52_4 C65_3 1_555 1_555
H53_4 C65_3 1_555 1_555
C106_4 C101_4 1_555 1_555
C112_4 C106_4 1_555 1_555
H101_4 C106_4 1_555 1_555
H110_4 C111_4 1_555 1_555
H111_4 C112_4 1_555 1_555
N3_3 C111_4 1_555 1_555
C21_4 C22_4 1_555 1_555
C112_4 N3_3 1_555 1_555
H140_4 C134_4 1_555 1_555
N35_4 C190_2 1_555 1_555
C194_2 C190_2 1_555 1_555
C199_2 N35_4 1_555 1_555
H190_2 C194_2 1_555 1_555
C200_2 C194_2 1_555 1_555
C206_2 C199_2 1_555 1_555
C207_4 C199_2 1_555 1_555
C208_2 C200_2 1_555 1_555
H200_2 C206_2 1_555 1_555
C215_2 C207_4 1_555 1_555
C216_4 C207_4 1_555 1_555
C217_2 C208_2 1_555 1_555
C218_2 C208_2 1_555 1_555
H209_2 C215_2 1_555 1_555
C225_4 C215_2 1_555 1_555
C226_4 C216_4 1_555 1_555
H210_4 C216_4 1_555 1_555
H211_2 C217_2 1_555 1_555
C227_2 C217_2 1_555 1_555
C228_2 C218_2 1_555 1_555
H212_2 C218_2 1_555 1_555
N33_3 C225_4 1_555 1_555
H223_2 C225_4 1_555 1_555
H224_4 C226_4 1_555 1_555
H225_2 C227_2 1_555 1_555
C230_2 C227_2 1_555 1_555
H226_2 C228_2 1_555 1_555
O8_2 C230_2 1_555 1_555
C232_2 O8_2 1_555 1_555
H229_2 C232_2 1_555 1_555
H230_2 C232_2 1_555 1_555
C234_2 C232_2 1_555 1_555
H233_2 C234_2 1_555 1_555
H234_2 C234_2 1_555 1_555
C236_2 C234_2 1_555 1_555
H237_2 C236_2 1_555 1_555
H238_2 C236_2 1_555 1_555
C238_2 C236_2 1_555 1_555
H241_2 C238_2 1_555 1_555
H242_2 C238_2 1_555 1_555
C200_2 C206_2 1_555 1_555
C226_4 N33_3 1_555 1_555
C228_2 C230_2 1_555 1_555
H183 C188 1_555 1_555
H184 C188 1_555 1_555
C192 C188 1_555 1_555
H187 C192 1_555 1_555
H188 C192 1_555 1_555
C196 C192 1_555 1_555
H193 C196 1_555 1_555
H194 C196 1_555 1_555
C202 C196 1_555 1_555
H197 C202 1_555 1_555
H198 C202 1_555 1_555
C210 C202 1_555 1_555
H203 C210 1_555 1_555
H204 C210 1_555 1_555
C220 C210 1_555 1_555
H216 C220 1_555 1_555
H217 C220 1_555 1_555
H218 C220 1_555 1_555
O2_3 C74_3 1_555 1_555
C76_3 O2_3 1_555 1_555
H62_3 C76_3 1_555 1_555
H63_3 C76_3 1_555 1_555
C81_3 C76_3 1_555 1_555
H68_3 C81_3 1_555 1_555
H69_3 C81_3 1_555 1_555
C85_3 C81_3 1_555 1_555
H74_3 C85_3 1_555 1_555
H75_3 C85_3 1_555 1_555
C88_3 C85_3 1_555 1_555
H78_3 C88_3 1_555 1_555
H79_3 C88_3 1_555 1_555
C91_3 C88_3 1_555 1_555
H82_3 C91_3 1_555 1_555
H83_3 C91_3 1_555 1_555
C94_3 C91_3 1_555 1_555
H87_3 C94_3 1_555 1_555
H88_3 C94_3 1_555 1_555
C98_3 C94_3 1_555 1_555
H91_3 C98_3 1_555 1_555
H92_3 C98_3 1_555 1_555
C103_3 C98_3 1_555 1_555
H96_3 C103_3 1_555 1_555
H97_3 C103_3 1_555 1_555
C109 C103_3 1_555 1_555
H104 C109 1_555 1_555
H105 C109 1_555 1_555
H106 C109 1_555 1_555
H176_3 C182_3 1_555 1_555
C194_3 C190_3 1_555 1_555
H190_3 C194_3 1_555 1_555
C200_3 C194_3 1_555 1_555
C206_3 C199_3 1_555 1_555
C208_3 C200_3 1_555 1_555
H200_3 C206_3 1_555 1_555
C217_3 C208_3 1_555 1_555
C218_3 C208_3 1_555 1_555
H209_3 C215_3 1_555 1_555
H211_3 C217_3 1_555 1_555
C227_3 C217_3 1_555 1_555
C228_3 C218_3 1_555 1_555
H212_3 C218_3 1_555 1_555
H225_3 C227_3 1_555 1_555
C230_3 C227_3 1_555 1_555
H226_3 C228_3 1_555 1_555
O8_3 C230_3 1_555 1_555
C232_3 O8_3 1_555 1_555
H229_3 C232_3 1_555 1_555
H230_3 C232_3 1_555 1_555
C234_3 C232_3 1_555 1_555
H233_3 C234_3 1_555 1_555
H234_3 C234_3 1_555 1_555
C236_3 C234_3 1_555 1_555
H237_3 C236_3 1_555 1_555
H238_3 C236_3 1_555 1_555
C238_3 C236_3 1_555 1_555
H241_3 C238_3 1_555 1_555
H242_3 C238_3 1_555 1_555
C240 C238_3 1_555 1_555
H245 C240 1_555 1_555
H246 C240 1_555 1_555
C242 C240 1_555 1_555
H249 C242 1_555 1_555
H250 C242 1_555 1_555
C244 C242 1_555 1_555
H253 C244 1_555 1_555
H254 C244 1_555 1_555
C246 C244 1_555 1_555
H257 C246 1_555 1_555
H258 C246 1_555 1_555
C248 C246 1_555 1_555
H262 C248 1_555 1_555
H263 C248 1_555 1_555
H264 C248 1_555 1_555
C200_3 C206_3 1_555 1_555
C228_3 C230_3 1_555 1_555
C93_3 C90_3 1_555 1_555
H86_3 C93_3 1_555 1_555
C97_3 C93_3 1_555 1_555
C100_3 C96_3 1_555 1_555
C102_3 C97_3 1_555 1_555
H95_3 C100_3 1_555 1_555
C107_3 C102_3 1_555 1_555
C108_3 C102_3 1_555 1_555
H100_3 C105_3 1_555 1_555
H102_3 C107_3 1_555 1_555
C113_3 C107_3 1_555 1_555
C114_3 C108_3 1_555 1_555
H103_3 C108_3 1_555 1_555
H112_3 C113_3 1_555 1_555
C115_3 C113_3 1_555 1_555
H113_3 C114_3 1_555 1_555
O4_3 C115_3 1_555 1_555
C116_3 O4_3 1_555 1_555
H114_3 C116_3 1_555 1_555
H115_3 C116_3 1_555 1_555
C117_3 C116_3 1_555 1_555
H116_3 C117_3 1_555 1_555
H117_3 C117_3 1_555 1_555
C118_3 C117_3 1_555 1_555
H118_3 C118_3 1_555 1_555
H119_3 C118_3 1_555 1_555
C119_2 C118_3 1_555 1_555
H120_2 C119_2 1_555 1_555
H121_2 C119_2 1_555 1_555
C120_2 C119_2 1_555 1_555
H122_2 C120_2 1_555 1_555
H123_2 C120_2 1_555 1_555
C121_2 C120_2 1_555 1_555
H124_2 C121_2 1_555 1_555
H125_2 C121_2 1_555 1_555
C122_2 C121_2 1_555 1_555
H126_2 C122_2 1_555 1_555
H127_2 C122_2 1_555 1_555
C123_2 C122_2 1_555 1_555
H128_2 C123_2 1_555 1_555
H129_2 C123_2 1_555 1_555
C124_2 C123_2 1_555 1_555
H130_2 C124_2 1_555 1_555
H131_2 C124_2 1_555 1_555
H132_2 C124_2 1_555 1_555
C140_3 C138_3 1_555 1_555
H142_3 C140_3 1_555 1_555
C144_3 C140_3 1_555 1_555
C148_3 C143_3 1_555 1_555
C150_3 C144_3 1_555 1_555
H144_3 C148_3 1_555 1_555
C157_3 C150_3 1_555 1_555
C158_3 C150_3 1_555 1_555
H149_3 C155_3 1_555 1_555
H151_3 C157_3 1_555 1_555
C165_3 C157_3 1_555 1_555
C166_3 C158_3 1_555 1_555
H152_3 C158_3 1_555 1_555
H159_3 C165_3 1_555 1_555
C168_3 C165_3 1_555 1_555
H160_3 C166_3 1_555 1_555
O6_3 C168_3 1_555 1_555
C170_3 O6_3 1_555 1_555
H163_3 C170_3 1_555 1_555
H164_3 C170_3 1_555 1_555
C178_3 C170_3 1_555 1_555
H171_3 C178_3 1_555 1_555
H172_3 C178_3 1_555 1_555
C184_3 C178_3 1_555 1_555
H179_3 C184_3 1_555 1_555
H180_3 C184_3 1_555 1_555
C188_2 C184_3 1_555 1_555
H183_2 C188_2 1_555 1_555
H184_2 C188_2 1_555 1_555
C192_2 C188_2 1_555 1_555
H187_2 C192_2 1_555 1_555
H188_2 C192_2 1_555 1_555
C196_2 C192_2 1_555 1_555
H193_2 C196_2 1_555 1_555
H194_2 C196_2 1_555 1_555
C202_2 C196_2 1_555 1_555
H197_2 C202_2 1_555 1_555
H198_2 C202_2 1_555 1_555
C210_2 C202_2 1_555 1_555
H203_2 C210_2 1_555 1_555
H204_2 C210_2 1_555 1_555
C220_2 C210_2 1_555 1_555
H216_2 C220_2 1_555 1_555
H217_2 C220_2 1_555 1_555
H218_2 C220_2 1_555 1_555
C97_3 C100_3 1_555 1_555
C114_3 C115_3 1_555 1_555
C144_3 C148_3 1_555 1_555
C166_3 C168_3 1_555 1_555
H41_4 C56_4 1_555 1_555
H42_4 C56_4 1_555 1_555
C65_4 C56_4 1_555 1_555
H51_4 C65_4 1_555 1_555
H245_2 C240_2 1_555 1_555
H246_2 C240_2 1_555 1_555
C242_2 C240_2 1_555 1_555
H249_2 C242_2 1_555 1_555
H250_2 C242_2 1_555 1_555
C244_2 C242_2 1_555 1_555
H253_2 C244_2 1_555 1_555
H254_2 C244_2 1_555 1_555
C246_2 C244_2 1_555 1_555
H257_2 C246_2 1_555 1_555
H258_2 C246_2 1_555 1_555
C248_2 C246_2 1_555 1_555
H262_2 C248_2 1_555 1_555
H263_2 C248_2 1_555 1_555
H264_2 C248_2 1_555 1_555
H255_4 C245_4 1_555 1_555
H256_4 C245_4 1_555 1_555
C247_4 C245_4 1_555 1_555
H259_4 C247_4 1_555 1_555
H104_2 C109_2 1_555 1_555
H105_2 C109_2 1_555 1_555
H106_2 C109_2 1_555 1_555
H84_2 C92_2 1_555 1_555
H85_2 C92_2 1_555 1_555
C95_2 C92_2 1_555 1_555
H89_2 C95_2 1_555 1_555
H90_2 C95_2 1_555 1_555
C99_2 C95_2 1_555 1_555
H93_2 C99_2 1_555 1_555
H94_2 C99_2 1_555 1_555
C104_2 C99_2 1_555 1_555
H98_2 C104_2 1_555 1_555
H99_2 C104_2 1_555 1_555
C110_2 C104_2 1_555 1_555
H107_2 C110_2 1_555 1_555
H108_2 C110_2 1_555 1_555
H109_2 C110_2 1_555 1_555
H213_2 C219_2 1_555 1_555
H214_2 C219_2 1_555 1_555
H215_2 C219_2 1_555 1_555
O2_4 C74_4 1_555 1_555
C76_4 O2_4 1_555 1_555
H62_4 C76_4 1_555 1_555
H63_4 C76_4 1_555 1_555
C81_4 C76_4 1_555 1_555
H68_4 C81_4 1_555 1_555
H69_4 C81_4 1_555 1_555
C85_4 C81_4 1_555 1_555
H74_4 C85_4 1_555 1_555
H75_4 C85_4 1_555 1_555
C88_4 C85_4 1_555 1_555
H78_4 C88_4 1_555 1_555
H79_4 C88_4 1_555 1_555
C91_4 C88_4 1_555 1_555
H82_4 C91_4 1_555 1_555
H83_4 C91_4 1_555 1_555
C94_4 C91_4 1_555 1_555
H87_4 C94_4 1_555 1_555
H88_4 C94_4 1_555 1_555
C98_4 C94_4 1_555 1_555
H91_4 C98_4 1_555 1_555
H92_4 C98_4 1_555 1_555
C103_4 C98_4 1_555 1_555
H96_4 C103_4 1_555 1_555
H97_4 C103_4 1_555 1_555
C109_3 C103_4 1_555 1_555
H104_3 C109_3 1_555 1_555
H105_3 C109_3 1_555 1_555
H106_3 C109_3 1_555 1_555
H176_4 C182_4 1_555 1_555
C194_4 C190_4 1_555 1_555
H190_4 C194_4 1_555 1_555
C200_4 C194_4 1_555 1_555
C206_4 C199_4 1_555 1_555
C208_4 C200_4 1_555 1_555
H200_4 C206_4 1_555 1_555
C217_4 C208_4 1_555 1_555
C218_4 C208_4 1_555 1_555
H209_4 C215_4 1_555 1_555
H211_4 C217_4 1_555 1_555
C227_4 C217_4 1_555 1_555
C228_4 C218_4 1_555 1_555
H212_4 C218_4 1_555 1_555
H225_4 C227_4 1_555 1_555
C230_4 C227_4 1_555 1_555
H226_4 C228_4 1_555 1_555
O8_4 C230_4 1_555 1_555
C232_4 O8_4 1_555 1_555
H229_4 C232_4 1_555 1_555
H230_4 C232_4 1_555 1_555
C234_4 C232_4 1_555 1_555
H233_4 C234_4 1_555 1_555
H234_4 C234_4 1_555 1_555
C236_4 C234_4 1_555 1_555
H237_4 C236_4 1_555 1_555
H238_4 C236_4 1_555 1_555
C238_4 C236_4 1_555 1_555
H241_4 C238_4 1_555 1_555
H242_4 C238_4 1_555 1_555
C240_3 C238_4 1_555 1_555
H245_3 C240_3 1_555 1_555
H246_3 C240_3 1_555 1_555
C242_3 C240_3 1_555 1_555
H249_3 C242_3 1_555 1_555
H250_3 C242_3 1_555 1_555
C244_3 C242_3 1_555 1_555
H253_3 C244_3 1_555 1_555
H254_3 C244_3 1_555 1_555
C246_3 C244_3 1_555 1_555
H257_3 C246_3 1_555 1_555
H258_3 C246_3 1_555 1_555
C248_3 C246_3 1_555 1_555
H262_3 C248_3 1_555 1_555
H263_3 C248_3 1_555 1_555
H264_3 C248_3 1_555 1_555
C200_4 C206_4 1_555 1_555
C228_4 C230_4 1_555 1_555
H183_3 C188_3 1_555 1_555
H184_3 C188_3 1_555 1_555
C192_3 C188_3 1_555 1_555
H187_3 C192_3 1_555 1_555
H188_3 C192_3 1_555 1_555
C196_3 C192_3 1_555 1_555
H193_3 C196_3 1_555 1_555
H194_3 C196_3 1_555 1_555
C202_3 C196_3 1_555 1_555
H197_3 C202_3 1_555 1_555
H198_3 C202_3 1_555 1_555
C210_3 C202_3 1_555 1_555
H203_3 C210_3 1_555 1_555
H204_3 C210_3 1_555 1_555
C220_3 C210_3 1_555 1_555
H216_3 C220_3 1_555 1_555
H217_3 C220_3 1_555 1_555
H218_3 C220_3 1_555 1_555
H26_4 C34_4 1_555 1_555
C43_4 C40_4 1_555 1_555
H34_4 C43_4 1_555 1_555
C48_4 C43_4 1_555 1_555
C53_4 C47_4 1_555 1_555
C55_4 C48_4 1_555 1_555
H40_4 C53_4 1_555 1_555
C63_4 C55_4 1_555 1_555
C64_4 C55_4 1_555 1_555
H47_4 C61_4 1_555 1_555
H49_4 C63_4 1_555 1_555
C72_4 C63_4 1_555 1_555
C73_4 C64_4 1_555 1_555
H50_4 C64_4 1_555 1_555
H60_4 C72_4 1_555 1_555
C75_4 C72_4 1_555 1_555
H61_4 C73_4 1_555 1_555
O3_4 C75_4 1_555 1_555
C77_4 O3_4 1_555 1_555
H64_4 C77_4 1_555 1_555
H65_4 C77_4 1_555 1_555
C82_4 C77_4 1_555 1_555
H70_4 C82_4 1_555 1_555
H71_4 C82_4 1_555 1_555
C86_4 C82_4 1_555 1_555
H76_4 C86_4 1_555 1_555
H77_4 C86_4 1_555 1_555
C89_4 C86_4 1_555 1_555
H80_4 C89_4 1_555 1_555
H81_4 C89_4 1_555 1_555
C92_3 C89_4 1_555 1_555
H84_3 C92_3 1_555 1_555
H85_3 C92_3 1_555 1_555
C95_3 C92_3 1_555 1_555
H89_3 C95_3 1_555 1_555
H90_3 C95_3 1_555 1_555
C99_3 C95_3 1_555 1_555
H93_3 C99_3 1_555 1_555
H94_3 C99_3 1_555 1_555
C104_3 C99_3 1_555 1_555
H98_3 C104_3 1_555 1_555
H99_3 C104_3 1_555 1_555
C110_3 C104_3 1_555 1_555
H107_3 C110_3 1_555 1_555
H108_3 C110_3 1_555 1_555
H109_3 C110_3 1_555 1_555
C48_4 C53_4 1_555 1_555
C73_4 C75_4 1_555 1_555
O5_4 C167_4 1_555 1_555
C169_4 O5_4 1_555 1_555
H161_4 C169_4 1_555 1_555
H162_4 C169_4 1_555 1_555
C177_4 C169_4 1_555 1_555
H169_4 C177_4 1_555 1_555
H170_4 C177_4 1_555 1_555
C183_4 C177_4 1_555 1_555
H177_4 C183_4 1_555 1_555
H178_4 C183_4 1_555 1_555
C187_4 C183_4 1_555 1_555
H181_4 C187_4 1_555 1_555
H182_4 C187_4 1_555 1_555
C191_4 C187_4 1_555 1_555
H185_4 C191_4 1_555 1_555
H186_4 C191_4 1_555 1_555
C195_4 C191_4 1_555 1_555
H191_4 C195_4 1_555 1_555
H192_4 C195_4 1_555 1_555
C201_4 C195_4 1_555 1_555
H195_4 C201_4 1_555 1_555
H196_4 C201_4 1_555 1_555
C209_4 C201_4 1_555 1_555
H201_4 C209_4 1_555 1_555
H202_4 C209_4 1_555 1_555
C219_3 C209_4 1_555 1_555
H213_3 C219_3 1_555 1_555
H214_3 C219_3 1_555 1_555
H215_3 C219_3 1_555 1_555
H120_3 C119_3 1_555 1_555
H121_3 C119_3 1_555 1_555
C120_3 C119_3 1_555 1_555
H122_3 C120_3 1_555 1_555
H123_3 C120_3 1_555 1_555
C121_3 C120_3 1_555 1_555
H124_3 C121_3 1_555 1_555
H125_3 C121_3 1_555 1_555
C122_3 C121_3 1_555 1_555
H126_3 C122_3 1_555 1_555
H127_3 C122_3 1_555 1_555
C123_3 C122_3 1_555 1_555
H128_3 C123_3 1_555 1_555
H129_3 C123_3 1_555 1_555
C124_3 C123_3 1_555 1_555
H130_3 C124_3 1_555 1_555
H131_3 C124_3 1_555 1_555
H132_3 C124_3 1_555 1_555
H213_4 C219_4 1_555 1_555
H214_4 C219_4 1_555 1_555
H215_4 C219_4 1_555 1_555
H84_4 C92_4 1_555 1_555
H85_4 C92_4 1_555 1_555
C95_4 C92_4 1_555 1_555
H89_4 C95_4 1_555 1_555
H90_4 C95_4 1_555 1_555
C99_4 C95_4 1_555 1_555
H93_4 C99_4 1_555 1_555
H94_4 C99_4 1_555 1_555
C104_4 C99_4 1_555 1_555
H98_4 C104_4 1_555 1_555
H99_4 C104_4 1_555 1_555
C110_4 C104_4 1_555 1_555
H107_4 C110_4 1_555 1_555
H108_4 C110_4 1_555 1_555
H109_4 C110_4 1_555 1_555
H104_4 C109_4 1_555 1_555
H105_4 C109_4 1_555 1_555
H106_4 C109_4 1_555 1_555
H245_4 C240_4 1_555 1_555
H246_4 C240_4 1_555 1_555
C242_4 C240_4 1_555 1_555
H249_4 C242_4 1_555 1_555
H250_4 C242_4 1_555 1_555
C244_4 C242_4 1_555 1_555
H253_4 C244_4 1_555 1_555
H254_4 C244_4 1_555 1_555
C246_4 C244_4 1_555 1_555
H257_4 C246_4 1_555 1_555
H258_4 C246_4 1_555 1_555
C248_4 C246_4 1_555 1_555
H262_4 C248_4 1_555 1_555
H263_4 C248_4 1_555 1_555
H264_4 C248_4 1_555 1_555
C93_4 C90_4 1_555 1_555
H86_4 C93_4 1_555 1_555
C97_4 C93_4 1_555 1_555
C100_4 C96_4 1_555 1_555
C102_4 C97_4 1_555 1_555
H95_4 C100_4 1_555 1_555
C107_4 C102_4 1_555 1_555
C108_4 C102_4 1_555 1_555
H100_4 C105_4 1_555 1_555
H102_4 C107_4 1_555 1_555
C113_4 C107_4 1_555 1_555
C114_4 C108_4 1_555 1_555
H103_4 C108_4 1_555 1_555
H112_4 C113_4 1_555 1_555
C115_4 C113_4 1_555 1_555
H113_4 C114_4 1_555 1_555
O4_4 C115_4 1_555 1_555
C116_4 O4_4 1_555 1_555
H114_4 C116_4 1_555 1_555
H115_4 C116_4 1_555 1_555
C117_4 C116_4 1_555 1_555
H116_4 C117_4 1_555 1_555
H117_4 C117_4 1_555 1_555
C118_4 C117_4 1_555 1_555
H118_4 C118_4 1_555 1_555
H119_4 C118_4 1_555 1_555
C119_4 C118_4 1_555 1_555
H120_4 C119_4 1_555 1_555
H121_4 C119_4 1_555 1_555
C120_4 C119_4 1_555 1_555
H122_4 C120_4 1_555 1_555
H123_4 C120_4 1_555 1_555
C121_4 C120_4 1_555 1_555
H124_4 C121_4 1_555 1_555
H125_4 C121_4 1_555 1_555
C122_4 C121_4 1_555 1_555
H126_4 C122_4 1_555 1_555
H127_4 C122_4 1_555 1_555
C123_4 C122_4 1_555 1_555
H128_4 C123_4 1_555 1_555
H129_4 C123_4 1_555 1_555
C124_4 C123_4 1_555 1_555
H130_4 C124_4 1_555 1_555
H131_4 C124_4 1_555 1_555
H132_4 C124_4 1_555 1_555
C97_4 C100_4 1_555 1_555
C114_4 C115_4 1_555 1_555
C140_4 C138_4 1_555 1_555
H142_4 C140_4 1_555 1_555
C144_4 C140_4 1_555 1_555
C148_4 C143_4 1_555 1_555
C150_4 C144_4 1_555 1_555
H144_4 C148_4 1_555 1_555
C157_4 C150_4 1_555 1_555
C158_4 C150_4 1_555 1_555
H149_4 C155_4 1_555 1_555
H151_4 C157_4 1_555 1_555
C165_4 C157_4 1_555 1_555
C166_4 C158_4 1_555 1_555
H152_4 C158_4 1_555 1_555
H159_4 C165_4 1_555 1_555
C168_4 C165_4 1_555 1_555
H160_4 C166_4 1_555 1_555
O6_4 C168_4 1_555 1_555
C170_4 O6_4 1_555 1_555
H163_4 C170_4 1_555 1_555
H164_4 C170_4 1_555 1_555
C178_4 C170_4 1_555 1_555
H171_4 C178_4 1_555 1_555
H172_4 C178_4 1_555 1_555
C184_4 C178_4 1_555 1_555
H179_4 C184_4 1_555 1_555
H180_4 C184_4 1_555 1_555
C188_4 C184_4 1_555 1_555
H183_4 C188_4 1_555 1_555
H184_4 C188_4 1_555 1_555
C192_4 C188_4 1_555 1_555
H187_4 C192_4 1_555 1_555
H188_4 C192_4 1_555 1_555
C196_4 C192_4 1_555 1_555
H193_4 C196_4 1_555 1_555
H194_4 C196_4 1_555 1_555
C202_4 C196_4 1_555 1_555
H197_4 C202_4 1_555 1_555
H198_4 C202_4 1_555 1_555
C210_4 C202_4 1_555 1_555
H203_4 C210_4 1_555 1_555
H204_4 C210_4 1_555 1_555
C220_4 C210_4 1_555 1_555
H216_4 C220_4 1_555 1_555
H217_4 C220_4 1_555 1_555
H218_4 C220_4 1_555 1_555
C144_4 C148_4 1_555 1_555
C166_4 C168_4 1_555 1_555

#END
