
###############################################################################
#
# This file contains modified crystal structure data generated from the
# MOF subset of the Cambridge Structural Database (CSD) v543 
# hosted by the Cambridge Crystallographic Data Centre (CCDC).
#
# This work is licensed under the Creative Commons
# Attribution-NonCommercial-ShareAlike 4.0 International License.
# To view a copy of this license, visit
# http://creativecommons.org/licenses/by-nc-sa/4.0/
# or send a letter to
# Creative Commons, PO Box 1866, Mountain View, CA 94042, USA.
#
# CIF created using the CSD Python API on 29 September 2022
# The structure has been converted into the P1 space group
# The structure has a 3D framework
# The original CSD entry EMEYUQ01 is in the triclinic crystal system
# The framework has been calculated to contain at least 10.0% void space
# The void calculation uses a probe of radius 1.32A, grid spacing 0.4
# H atom positions have been added when not included in the experimental data
#
###############################################################################

data_EMEYUQ01
_chemical_formula_moiety         '(C12 H16 Bi4 O30)n'
_symmetry_cell_setting           triclinic
_symmetry_space_group_name_H-M   'P 1'
_symmetry_Int_Tables_number      1
_space_group_name_Hall           'P 1'
loop_
_symmetry_equiv_pos_site_id
_symmetry_equiv_pos_as_xyz
1 x,y,z
_cell_length_a                   9.194(2)
_cell_length_b                   9.458(2)
_cell_length_c                   11.176(2)
_cell_angle_alpha                101.15(3)
_cell_angle_beta                 101.76(3)
_cell_angle_gamma                106.17(3)
_cell_volume                     880.865
loop_
_atom_site_label
_atom_site_type_symbol
_atom_site_fract_x
_atom_site_fract_y
_atom_site_fract_z
O6 O 0.0408(4) 0.0344(4) 0.2023(3)
O11 O 0.6417(4) 0.0370(4) 0.3831(3)
Bi6 Bi 0.919896(17) 0.114030(17) 0.356471(14)
O21 O 0.2417(4) 0.1516(4) 0.7524(3)
Bi1 Bi 0.238507(17) 0.658354(17) 0.126577(14)
C3 C 0.0776(5) 0.9161(5) 0.1980(4)
C4 C 0.0835(5) 0.8489(5) 0.3150(4)
C5 C 0.6123(5) 0.8086(5) 0.2301(4)
C6 C 0.5465(5) 0.9224(5) 0.3020(4)
O5 O 0.1094(4) 0.8476(4) 0.1050(3)
O7 O 0.1115(4) 0.7257(4) 0.3041(3)
O8 O 0.0594(4) 0.9233(4) 0.4096(3)
O9 O 0.7583(4) 0.8484(4) 0.2476(3)
O10 O 0.5146(4) 0.6832(4) 0.1601(3)
O12 O 0.3984(4) 0.8859(4) 0.2737(3)
O15 O 0.3098(4) 0.5299(4) 0.3032(3)
Bi5 Bi 0.080104(17) 0.885970(17) 0.643529(14)
H1 H 0.397603 0.605146 0.373996
H2 H 0.216622 0.492618 0.334789
H8 H 0.232319 0.330806 0.0139188
C1 C 0.2371(5) 0.7895(5) 0.8872(4)
C2 C 0.0704(5) 0.6693(5) 0.8405(4)
O1 O 0.2684(4) 0.8872(4) 0.8274(3)
O2 O 0.3331(4) 0.7833(4) 0.9831(3)
O3 O 0.0332(4) 0.5809(4) 0.9075(3)
O14 O 0.2659(5) 0.4210(5) 0.9805(4)
O16 O 0.1190(5) 0.6471(4) 0.5253(4)
O22 O 0.3583(4) 0.9630(4) 0.6169(3)
H3 H 0.090284 0.564982 0.568321
H4 H 0.0509398 0.612888 0.43678
H7 H 0.377393 0.442016 0.978884
O20 O 0.9406(4) 0.0767(4) 0.5904(3)
O17 O 0.9668(4) 0.4191(4) 0.0925(3)
O4 O 0.9854(3) 0.6709(4) 0.7380(3)
O13 O 0.8037(4) 0.7271(4) 0.5216(4)
O18 O 0.9592(4) 0.9656(4) 0.7977(3)
Bi3 Bi 0.761493(17) 0.341646(17) 0.873423(14)
H5 H 0.733392 0.730334 0.578019
H6 H 0.769254 0.767893 0.449318
O4_2 O 0.0146(3) 0.3291(4) 0.2620(3)
O13_2 O 0.1963(4) 0.2729(4) 0.4784(4)
H5_2 H 0.266608 0.269666 0.421981
H6_2 H 0.230746 0.232107 0.550682
C1_2 C 0.7629(5) 0.2105(5) 0.1128(4)
C2_2 C 0.9296(5) 0.3307(5) 0.1595(4)
O1_2 O 0.7316(4) 0.1128(4) 0.1726(3)
O2_2 O 0.6669(4) 0.2167(4) 0.0169(3)
O14_2 O 0.7341(5) 0.5790(5) 0.0195(4)
O16_2 O 0.8810(5) 0.3529(4) 0.4747(4)
H3_2 H 0.909716 0.435018 0.431679
H4_2 H 0.94906 0.387112 0.56322
H7_2 H 0.622607 0.557984 0.0211162
C3_2 C 0.9224(5) 0.0839(5) 0.8020(4)
C4_2 C 0.9165(5) 0.1511(5) 0.6850(4)
C5_2 C 0.3877(5) 0.1914(5) 0.7699(4)
C6_2 C 0.4535(5) 0.0776(5) 0.6980(4)
O5_2 O 0.8906(4) 0.1524(4) 0.8950(3)
O7_2 O 0.8885(4) 0.2743(4) 0.6959(3)
O10_2 O 0.4854(4) 0.3168(4) 0.8399(3)
O12_2 O 0.6016(4) 0.1141(4) 0.7263(3)
O15_2 O 0.6902(4) 0.4701(4) 0.6968(3)
H1_2 H 0.602397 0.394854 0.626004
H2_2 H 0.783378 0.507382 0.665211
H8_2 H 0.767681 0.669194 0.986081
loop_
_geom_bond_atom_site_label_1
_geom_bond_atom_site_label_2
_geom_bond_site_symmetry_1
_geom_bond_site_symmetry_2
O11 Bi6 1_555 1_555
C3 C4 1_555 1_555
C4 O7 1_555 1_555
C5 C6 1_555 1_555
O5 Bi1 1_555 1_555
O7 Bi1 1_555 1_555
O8 C4 1_555 1_555
O9 C5 1_555 1_555
O10 Bi1 1_555 1_555
O12 Bi1 1_555 1_555
O15 Bi1 1_555 1_555
Bi5 O8 1_555 1_555
C3 O5 1_555 1_555
C5 O10 1_555 1_555
C6 O12 1_555 1_555
O15 H1 1_555 1_555
O15 H2 1_555 1_555
Bi5 O1 1_555 1_555
C1 C2 1_555 1_555
C2 O3 1_555 1_555
O1 C1 1_555 1_555
O2 C1 1_555 1_555
O16 Bi5 1_555 1_555
O22 Bi5 1_555 1_555
O16 H3 1_555 1_555
O16 H4 1_555 1_555
O14 H7 1_555 1_555
O13 H5 1_555 1_555
O13 H6 1_555 1_555
O13_2 H5_2 1_555 1_555
O13_2 H6_2 1_555 1_555
Bi6 O1_2 1_555 1_555
C1_2 C2_2 1_555 1_555
C2_2 O17 1_555 1_555
O1_2 C1_2 1_555 1_555
O2_2 C1_2 1_555 1_555
O16_2 Bi6 1_555 1_555
O20 Bi6 1_555 1_555
O16_2 H3_2 1_555 1_555
O16_2 H4_2 1_555 1_555
O14_2 H7_2 1_555 1_555
C3_2 C4_2 1_555 1_555
C4_2 O7_2 1_555 1_555
C5_2 C6_2 1_555 1_555
O5_2 Bi3 1_555 1_555
O7_2 Bi3 1_555 1_555
O20 C4_2 1_555 1_555
O21 C5_2 1_555 1_555
O10_2 Bi3 1_555 1_555
O12_2 Bi3 1_555 1_555
O15_2 Bi3 1_555 1_555
C3_2 O5_2 1_555 1_555
C5_2 O10_2 1_555 1_555
C6_2 O12_2 1_555 1_555
O15_2 H1_2 1_555 1_555
O15_2 H2_2 1_555 1_555

#END
