
###############################################################################
#
# This file contains modified crystal structure data generated from the
# MOF subset of the Cambridge Structural Database (CSD) v543 
# hosted by the Cambridge Crystallographic Data Centre (CCDC).
#
# This work is licensed under the Creative Commons
# Attribution-NonCommercial-ShareAlike 4.0 International License.
# To view a copy of this license, visit
# http://creativecommons.org/licenses/by-nc-sa/4.0/
# or send a letter to
# Creative Commons, PO Box 1866, Mountain View, CA 94042, USA.
#
# CIF created using the CSD Python API on 29 September 2022
# The structure has been converted into the P1 space group
# The structure has a 3D framework
# The original CSD entry EMIHAK is in the orthorhombic crystal system
# The framework has been calculated to contain at least 10.0% void space
# The void calculation uses a probe of radius 1.32A, grid spacing 0.4
# The framework is charged, counterions have been retained in the structure
#
###############################################################################

data_EMIHAK
_chemical_formula_moiety         '(C144 H144 In80 N28 S128 32-)n'
_symmetry_cell_setting           triclinic
_symmetry_space_group_name_H-M   'P 1'
_symmetry_Int_Tables_number      1
_space_group_name_Hall           'P 1'
loop_
_symmetry_equiv_pos_site_id
_symmetry_equiv_pos_as_xyz
1 x,y,z
_cell_length_a                   22.5220(3)
_cell_length_b                   22.4835(4)
_cell_length_c                   34.4841(5)
_cell_angle_alpha                90
_cell_angle_beta                 90
_cell_angle_gamma                90
_cell_volume                     17461.8
loop_
_atom_site_label
_atom_site_type_symbol
_atom_site_fract_x
_atom_site_fract_y
_atom_site_fract_z
C17 C 0.0283(12) 0.483(3) 0.070(2)
H13 H 0.0379 0.5208 0.0579
H14 H 0.0584 0.4532 0.0637
H15 H 0.0276 0.4884 0.0987
In1 In 0.45382(5) 0.47877(5) 0.15901(3)
In2 In 0.59711(5) 0.42688(5) 0.11528(3)
In3 In 0.51672(4) 0.34259(5) 0.20648(3)
In4 In 0.43519(5) 0.34232(5) 0.09974(3)
In5 In 0.72788(5) 0.35454(6) 0.06955(3)
In6 In 0.66824(4) 0.27368(5) 0.15702(3)
In7 In 0.58662(5) 0.27439(5) 0.05099(3)
In8 In 0.58858(5) 0.19972(5) 0.23675(3)
In9 In 0.50810(5) 0.18972(5) 0.14220(3)
In10 In 0.43832(5) 0.20020(5) 0.04408(3)
S1 S 0.5469(2) 0.51708(19) 0.13303(14)
S2 S 0.4650(2) 0.4331(2) 0.22247(12)
S3 S 0.38390(18) 0.4328(2) 0.11552(13)
S4 S 0.6901(2) 0.4519(2) 0.08455(15)
S5 S 0.61467(16) 0.36772(17) 0.17547(11)
S6 S 0.53398(17) 0.36780(19) 0.06965(11)
S7 S 0.5362(2) 0.2842(2) 0.26369(12)
S8 S 0.45448(16) 0.28389(18) 0.16005(11)
S9 S 0.37750(19) 0.2882(2) 0.05268(13)
S10 S 0.76114(18) 0.3021(2) 0.12747(14)
S11 S 0.6799(2) 0.2970(3) 0.01988(13)
S12 S 0.68880(18) 0.2168(2) 0.21448(13)
S13 S 0.60569(17) 0.21487(18) 0.11123(11)
S14 S 0.5292(2) 0.2141(2) 0.00773(13)
S15 S 0.5299(2) 0.13059(19) 0.19855(12)
S16 S 0.4412(2) 0.1368(2) 0.10046(12)
N1 N 0.4095(5) 0.5613(6) 0.1760(4)
N2 N 0.3958(6) 0.6426(6) 0.2131(4)
N3 N 0.8110(5) 0.3692(6) 0.0390(4)
C1 C 0.4255(7) 0.5921(7) 0.2066(4)
H1 H 0.4566 0.5792 0.2233
C2 C 0.3642(7) 0.5958(7) 0.1602(4)
C3 C 0.3267(8) 0.5858(8) 0.1271(5)
H2 H 0.3309 0.5511 0.1116
C4 C 0.2856(8) 0.6269(9) 0.1187(5)
C5 C 0.2754(8) 0.6768(8) 0.1427(6)
C6 C 0.3123(8) 0.6851(7) 0.1746(5)
H3 H 0.3071 0.7192 0.1905
C7 C 0.3567(7) 0.6444(7) 0.1835(4)
C8 C 0.2448(11) 0.6194(11) 0.0828(6)
H4 H 0.2686 0.6063 0.0606
H5 H 0.2258 0.6575 0.0768
H6 H 0.2142 0.5896 0.0884
C9 C 0.2285(11) 0.7216(10) 0.1321(8)
H7 H 0.2378 0.7388 0.1067
H8 H 0.2275 0.7532 0.1516
H9 H 0.1897 0.7019 0.1310
C10 C 0.8311(7) 0.3375(7) 0.0098(4)
C11 C 0.8589(8) 0.4035(9) 0.0484(5)
C12 C 0.8635(11) 0.4503(12) 0.0754(8)
H11 H 0.8300 0.4629 0.0899
C13 C 0.9177(14) 0.4772(18) 0.0801(12)
C14 C 0.9656(11) 0.4609(14) 0.0563(9)
C15 C 0.9594(9) 0.4170(9) 0.0289(7)
H12 H 0.9920 0.4057 0.0131
C16 C 0.9064(7) 0.3906(8) 0.0249(5)
C18 C 0.927(2) 0.530(3) 0.1092(17)
H16 H 0.9668 0.5276 0.1202
H17 H 0.8974 0.5268 0.1301
H18 H 0.9218 0.5676 0.0956
In11 In 0.41142(5) 0.69972(5) 0.26325(3)
N5 N 0.6042(6) 0.1426(6) 0.2869(4)
N6 N 0.3868(5) 0.1513(6) 0.0009(4)
In1_2 In 0.04618(5) 0.52123(5) 0.65901(3)
In4_2 In 0.06481(5) 0.65768(5) 0.59974(3)
In10_2 In 0.06168(5) 0.79980(5) 0.54408(3)
S2_2 S 0.0350(2) 0.5669(2) 0.72247(12)
S3_2 S 0.11610(18) 0.5672(2) 0.61552(13)
S8_2 S 0.04552(16) 0.71611(18) 0.66005(11)
S9_2 S 0.12250(19) 0.7118(2) 0.55268(13)
S16_2 S 0.0588(2) 0.8632(2) 0.60046(12)
N1_2 N 0.0905(5) 0.4387(6) 0.6760(4)
N2_2 N 0.1042(6) 0.3574(6) 0.7131(4)
C1_2 C 0.0745(7) 0.4079(7) 0.7066(4)
H1_2 H 0.0434 0.4208 0.7233
C2_2 C 0.1358(7) 0.4042(7) 0.6602(4)
C3_2 C 0.1733(8) 0.4142(8) 0.6271(5)
H2_2 H 0.1691 0.4489 0.6116
C4_2 C 0.2144(8) 0.3731(9) 0.6187(5)
C5_2 C 0.2246(8) 0.3232(8) 0.6427(6)
C6_2 C 0.1877(8) 0.3149(7) 0.6746(5)
H3_2 H 0.1929 0.2808 0.6905
C7_2 C 0.1433(7) 0.3556(7) 0.6835(4)
C8_2 C 0.2552(11) 0.3806(11) 0.5828(6)
H4_2 H 0.2314 0.3937 0.5606
H5_2 H 0.2742 0.3425 0.5768
H6_2 H 0.2858 0.4104 0.5884
C9_2 C 0.2715(11) 0.2784(10) 0.6321(8)
H7_2 H 0.2622 0.2612 0.6067
H8_2 H 0.2725 0.2468 0.6516
H9_2 H 0.3103 0.2981 0.6310
In11_2 In 0.08858(5) 0.30028(5) 0.76325(3)
N6_2 N 0.1132(5) 0.8487(6) 0.5009(4)
In2_2 In 0.90289(5) 0.57312(5) 0.61528(3)
In3_2 In 0.98328(4) 0.65741(5) 0.70648(3)
In5_2 In 0.77212(5) 0.64546(6) 0.56955(3)
In6_2 In 0.83176(4) 0.72632(5) 0.65702(3)
In7_2 In 0.91338(5) 0.72561(5) 0.55099(3)
In8_2 In 0.91142(5) 0.80028(5) 0.73675(3)
In9_2 In 0.99190(5) 0.81028(5) 0.64220(3)
S1_2 S 0.9531(2) 0.48292(19) 0.63303(14)
S4_2 S 0.8099(2) 0.5481(2) 0.58455(15)
S5_2 S 0.88533(16) 0.63228(17) 0.67547(11)
S6_2 S 0.96602(17) 0.63220(19) 0.56965(11)
S7_2 S 0.9638(2) 0.7158(2) 0.76369(12)
S10_2 S 0.73886(18) 0.6979(2) 0.62747(14)
S11_2 S 0.8201(2) 0.7030(3) 0.51988(13)
S12_2 S 0.81120(18) 0.7832(2) 0.71448(13)
S13_2 S 0.89431(17) 0.78513(18) 0.61123(11)
S14_2 S 0.9708(2) 0.7859(2) 0.50773(13)
S15_2 S 0.9701(2) 0.86941(19) 0.69855(12)
N3_2 N 0.6890(5) 0.6308(6) 0.5390(4)
N4 N 0.6132(5) 0.6513(6) 0.4991(4)
C10_2 C 0.6689(7) 0.6625(7) 0.5098(4)
H10 H 0.6926 0.6916 0.4971
C11_2 C 0.6411(8) 0.5965(9) 0.5484(5)
C12_2 C 0.6365(11) 0.5497(12) 0.5754(8)
H11_2 H 0.6700 0.5371 0.5899
C13_2 C 0.5823(14) 0.5228(18) 0.5801(12)
C14_2 C 0.5344(11) 0.5391(14) 0.5563(9)
C15_2 C 0.5406(9) 0.5830(9) 0.5289(7)
H12_2 H 0.5080 0.5943 0.5131
C16_2 C 0.5936(7) 0.6094(8) 0.5249(5)
C17_2 C 0.4717(12) 0.517(3) 0.570(2)
H13_2 H 0.4621 0.4792 0.5579
H14_2 H 0.4416 0.5468 0.5637
H15_2 H 0.4724 0.5116 0.5987
C18_2 C 0.573(2) 0.470(3) 0.6092(17)
H16_2 H 0.5332 0.4724 0.6202
H17_2 H 0.6026 0.4732 0.6301
H18_2 H 0.5782 0.4324 0.5956
In12 In 0.56168(5) 0.70020(5) 0.45592(3)
N5_2 N 0.8958(6) 0.8574(6) 0.7869(4)
S1_3 S 0.4531(2) 0.01708(19) 0.36697(14)
N1_3 N 0.5905(5) 0.0613(6) 0.3240(4)
C1_3 C 0.5745(7) 0.0921(7) 0.2934(4)
H1_3 H 0.5434 0.0792 0.2767
C2_3 C 0.6358(7) 0.0958(7) 0.3398(4)
C3_3 C 0.6733(8) 0.0858(8) 0.3729(5)
H2_3 H 0.6691 0.0511 0.3884
C4_3 C 0.7144(8) 0.1269(9) 0.3813(5)
C5_3 C 0.7246(8) 0.1768(8) 0.3573(6)
C6_3 C 0.6877(8) 0.1851(7) 0.3254(5)
H3_3 H 0.6929 0.2192 0.3095
C7_3 C 0.6433(7) 0.1444(7) 0.3165(4)
C8_3 C 0.7552(11) 0.1194(11) 0.4172(6)
H4_3 H 0.7314 0.1063 0.4394
H5_3 H 0.7742 0.1575 0.4232
H6_3 H 0.7858 0.0896 0.4116
C9_3 C 0.7715(11) 0.2216(10) 0.3679(8)
H7_3 H 0.7622 0.2388 0.3933
H8_3 H 0.7725 0.2532 0.3484
H9_3 H 0.8103 0.2019 0.3690
C18_3 C 0.073(2) 0.030(3) 0.3908(17)
H16_3 H 0.0332 0.0276 0.3798
H17_3 H 0.1026 0.0268 0.3699
H18_3 H 0.0782 0.0676 0.4044
In1_3 In 0.54618(5) 0.97877(5) 0.34099(3)
In2_3 In 0.40289(5) 0.92688(5) 0.38472(3)
In3_3 In 0.48328(4) 0.84259(5) 0.29352(3)
In4_3 In 0.56481(5) 0.84232(5) 0.40026(3)
In5_3 In 0.27212(5) 0.85454(6) 0.43045(3)
In6_3 In 0.33176(4) 0.77368(5) 0.34298(3)
In7_3 In 0.41338(5) 0.77439(5) 0.44901(3)
In9_3 In 0.49190(5) 0.68972(5) 0.35780(3)
S2_3 S 0.5350(2) 0.9331(2) 0.27753(12)
S3_3 S 0.61610(18) 0.9328(2) 0.38448(13)
S4_3 S 0.3099(2) 0.9519(2) 0.41545(15)
S5_3 S 0.38533(16) 0.86772(17) 0.32453(11)
S6_3 S 0.46602(17) 0.86780(19) 0.43035(11)
S7_3 S 0.4638(2) 0.7842(2) 0.23631(12)
S8_3 S 0.54552(16) 0.78389(18) 0.33995(11)
S9_3 S 0.62250(19) 0.7882(2) 0.44732(13)
S10_3 S 0.23886(18) 0.8021(2) 0.37253(14)
S11_3 S 0.3201(2) 0.7970(3) 0.48012(13)
S12_3 S 0.31120(18) 0.7168(2) 0.28552(13)
S13_3 S 0.39431(17) 0.71487(18) 0.38877(11)
S14_3 S 0.4708(2) 0.7141(2) 0.49227(13)
S15_3 S 0.4701(2) 0.63059(19) 0.30145(12)
S16_3 S 0.5588(2) 0.6368(2) 0.39954(12)
N3_3 N 0.1890(5) 0.8692(6) 0.4610(4)
C10_3 C 0.1689(7) 0.8375(7) 0.4902(4)
H10_2 H 0.1926 0.8084 0.5029
C11_3 C 0.1411(8) 0.9035(9) 0.4516(5)
C12_3 C 0.1365(11) 0.9503(12) 0.4246(8)
H11_3 H 0.1700 0.9629 0.4101
C13_3 C 0.0823(14) 0.9772(18) 0.4199(12)
C14_3 C 0.0344(11) 0.9609(14) 0.4437(9)
C15_3 C 0.0406(9) 0.9170(9) 0.4711(7)
H12_3 H 0.0080 0.9057 0.4869
C16_3 C 0.0936(7) 0.8906(8) 0.4751(5)
H10_3 H 0.3074 0.1916 0.0029
In2_4 In 0.09711(5) 0.07312(5) 0.88472(3)
In3_4 In 0.01672(4) 0.15741(5) 0.79352(3)
In5_4 In 0.22788(5) 0.14546(6) 0.93045(3)
In6_4 In 0.16824(4) 0.22632(5) 0.84298(3)
In7_4 In 0.08662(5) 0.22561(5) 0.94901(3)
In9_4 In 0.00810(5) 0.31028(5) 0.85780(3)
S4_4 S 0.1901(2) 0.0481(2) 0.91545(15)
S5_4 S 0.11467(16) 0.13228(17) 0.82453(11)
S6_4 S 0.03398(17) 0.13220(19) 0.93035(11)
S7_4 S 0.0362(2) 0.2158(2) 0.73631(12)
S10_4 S 0.26114(18) 0.1979(2) 0.87253(14)
S11_4 S 0.1799(2) 0.2030(3) 0.98012(13)
S12_4 S 0.18880(18) 0.2832(2) 0.78552(13)
S13_4 S 0.10569(17) 0.28513(18) 0.88877(11)
S14_4 S 0.0292(2) 0.2859(2) 0.99227(13)
S15_4 S 0.0299(2) 0.36941(19) 0.80145(12)
N3_4 N 0.3110(5) 0.1308(6) 0.9610(4)
C10_4 C 0.3311(7) 0.1625(7) 0.9902(4)
C11_4 C 0.3589(8) 0.0965(9) 0.9516(5)
C12_4 C 0.3635(11) 0.0497(12) 0.9246(8)
H11_4 H 0.3300 0.0371 0.9101
C13_4 C 0.4177(14) 0.0228(18) 0.9199(12)
C14_4 C 0.4656(11) 0.0391(14) 0.9437(9)
C15_4 C 0.4594(9) 0.0830(9) 0.9711(7)
H12_4 H 0.4920 0.0943 0.9869
C16_4 C 0.4064(7) 0.1094(8) 0.9751(5)
C17_3 C 0.5283(12) 0.017(3) 0.930(2)
H14_3 H 0.5584 0.0468 0.9363
H15_3 H 0.5276 0.0116 0.9013
N1_4 N 0.9095(5) 0.9387(6) 0.8240(4)
C1_4 C 0.9255(7) 0.9079(7) 0.7934(4)
H1_4 H 0.9566 0.9208 0.7767
C2_4 C 0.8642(7) 0.9042(7) 0.8398(4)
C3_4 C 0.8267(8) 0.9142(8) 0.8729(5)
H2_4 H 0.8309 0.9489 0.8884
C4_4 C 0.7856(8) 0.8731(9) 0.8813(5)
C5_4 C 0.7754(8) 0.8232(8) 0.8573(6)
C6_4 C 0.8123(8) 0.8149(7) 0.8254(5)
H3_4 H 0.8071 0.7808 0.8095
C7_4 C 0.8567(7) 0.8556(7) 0.8165(4)
C8_4 C 0.7448(11) 0.8806(11) 0.9172(6)
H4_4 H 0.7686 0.8937 0.9394
H5_4 H 0.7258 0.8425 0.9232
H6_4 H 0.7142 0.9104 0.9116
C9_4 C 0.7285(11) 0.7784(10) 0.8679(8)
H7_4 H 0.7378 0.7612 0.8933
H8_4 H 0.7275 0.7468 0.8484
H9_4 H 0.6897 0.7981 0.8690
N4_2 N 0.8868(5) 0.3487(6) 0.9991(4)
H10_4 H 0.8074 0.3084 0.9971
In12_2 In 0.93832(5) 0.29980(5) 0.95592(3)
In1_4 In 0.95382(5) 0.02123(5) 0.84099(3)
In4_4 In 0.93519(5) 0.15768(5) 0.90026(3)
S2_4 S 0.9650(2) 0.0669(2) 0.77753(12)
S3_4 S 0.88390(18) 0.0672(2) 0.88448(13)
S8_4 S 0.95448(16) 0.21611(18) 0.83995(11)
S9_4 S 0.87750(19) 0.2118(2) 0.94732(13)
S16_4 S 0.9412(2) 0.3632(2) 0.89954(12)
H13_3 H 0.9621 0.0208 0.4421
C17_4 C 0.9717(12) 0.983(3) 0.430(2)
H14_4 H 0.9416 0.9532 0.4363
H15_4 H 0.9724 0.9884 0.4013
S1_4 S 0.0469(2) 0.98292(19) 0.86697(14)
H13_4 H 0.5379 0.9792 0.9421
C18_4 C 0.427(2) 0.970(3) 0.8908(17)
H16_4 H 0.4668 0.9724 0.8798
H17_4 H 0.3974 0.9732 0.8699
H18_4 H 0.4218 0.9324 0.9044
N4_3 N 0.1132(5) 0.6513(6) 0.0009(4)
H10_5 H 0.1926 0.6916 0.0029
In12_3 In 0.06168(5) 0.70020(5) 0.04408(3)
In1_5 In 0.04618(5) 0.97877(5) 0.15901(3)
In4_5 In 0.06481(5) 0.84232(5) 0.09974(3)
S2_5 S 0.0350(2) 0.9331(2) 0.22247(12)
S3_5 S 0.11610(18) 0.9328(2) 0.11552(13)
S8_5 S 0.04552(16) 0.78389(18) 0.16005(11)
S9_5 S 0.12250(19) 0.7882(2) 0.05268(13)
S16_5 S 0.0588(2) 0.6368(2) 0.10046(12)
In1_6 In 0.54618(5) 0.52123(5) 0.84099(3)
In2_5 In 0.40289(5) 0.57312(5) 0.88472(3)
In3_5 In 0.48328(4) 0.65741(5) 0.79352(3)
In4_6 In 0.56481(5) 0.65768(5) 0.90026(3)
In5_5 In 0.27212(5) 0.64546(6) 0.93045(3)
In6_5 In 0.33176(4) 0.72632(5) 0.84298(3)
In7_5 In 0.41338(5) 0.72561(5) 0.94901(3)
In8_3 In 0.41142(5) 0.80028(5) 0.76325(3)
In9_5 In 0.49190(5) 0.81028(5) 0.85780(3)
In10_3 In 0.56168(5) 0.79980(5) 0.95592(3)
S1_5 S 0.4531(2) 0.48292(19) 0.86697(14)
S2_6 S 0.5350(2) 0.5669(2) 0.77753(12)
S3_6 S 0.61610(18) 0.5672(2) 0.88448(13)
S4_5 S 0.3099(2) 0.5481(2) 0.91545(15)
S5_5 S 0.38533(16) 0.63228(17) 0.82453(11)
S6_5 S 0.46602(17) 0.63220(19) 0.93035(11)
S7_5 S 0.4638(2) 0.7158(2) 0.73631(12)
S8_6 S 0.54552(16) 0.71611(18) 0.83995(11)
S9_6 S 0.62250(19) 0.7118(2) 0.94732(13)
S10_5 S 0.23886(18) 0.6979(2) 0.87253(14)
S11_5 S 0.3201(2) 0.7030(3) 0.98012(13)
S12_5 S 0.31120(18) 0.7832(2) 0.78552(13)
S13_5 S 0.39431(17) 0.78513(18) 0.88877(11)
S14_5 S 0.4708(2) 0.7859(2) 0.99227(13)
S15_5 S 0.4701(2) 0.86941(19) 0.80145(12)
S16_6 S 0.5588(2) 0.8632(2) 0.89954(12)
N1_5 N 0.5905(5) 0.4387(6) 0.8240(4)
N2_3 N 0.6042(6) 0.3574(6) 0.7869(4)
N3_5 N 0.1890(5) 0.6308(6) 0.9610(4)
C1_5 C 0.5745(7) 0.4079(7) 0.7934(4)
H1_5 H 0.5434 0.4208 0.7767
C2_5 C 0.6358(7) 0.4042(7) 0.8398(4)
C3_5 C 0.6733(8) 0.4142(8) 0.8729(5)
H2_5 H 0.6691 0.4489 0.8884
C4_5 C 0.7144(8) 0.3731(9) 0.8813(5)
C5_5 C 0.7246(8) 0.3232(8) 0.8573(6)
C6_5 C 0.6877(8) 0.3149(7) 0.8254(5)
H3_5 H 0.6929 0.2808 0.8095
C7_5 C 0.6433(7) 0.3556(7) 0.8165(4)
C8_5 C 0.7552(11) 0.3806(11) 0.9172(6)
H4_5 H 0.7314 0.3937 0.9394
H5_5 H 0.7742 0.3425 0.9232
H6_5 H 0.7858 0.4104 0.9116
C9_5 C 0.7715(11) 0.2784(10) 0.8679(8)
H7_5 H 0.7622 0.2612 0.8933
H8_5 H 0.7725 0.2468 0.8484
H9_5 H 0.8103 0.2981 0.8690
C10_5 C 0.1689(7) 0.6625(7) 0.9902(4)
C11_5 C 0.1411(8) 0.5965(9) 0.9516(5)
C12_5 C 0.1365(11) 0.5497(12) 0.9246(8)
H11_5 H 0.1700 0.5371 0.9101
C13_5 C 0.0823(14) 0.5228(18) 0.9199(12)
C14_5 C 0.0344(11) 0.5391(14) 0.9437(9)
C15_5 C 0.0406(9) 0.5830(9) 0.9711(7)
H12_5 H 0.0080 0.5943 0.9869
C16_5 C 0.0936(7) 0.6094(8) 0.9751(5)
C18_5 C 0.073(2) 0.470(3) 0.8908(17)
H16_5 H 0.0332 0.4724 0.8798
H17_5 H 0.1026 0.4732 0.8699
H18_5 H 0.0782 0.4324 0.9044
In11_3 In 0.58858(5) 0.30028(5) 0.73675(3)
N5_3 N 0.3958(6) 0.8574(6) 0.7131(4)
N6_3 N 0.6132(5) 0.8487(6) 0.9991(4)
In2_6 In 0.09711(5) 0.42688(5) 0.38472(3)
In3_6 In 0.01672(4) 0.34259(5) 0.29352(3)
In5_6 In 0.22788(5) 0.35454(6) 0.43045(3)
In6_6 In 0.16824(4) 0.27368(5) 0.34298(3)
In7_6 In 0.08662(5) 0.27439(5) 0.44901(3)
In8_4 In 0.08858(5) 0.19972(5) 0.26325(3)
In9_6 In 0.00810(5) 0.18972(5) 0.35780(3)
S1_6 S 0.0469(2) 0.51708(19) 0.36697(14)
S4_6 S 0.1901(2) 0.4519(2) 0.41545(15)
S5_6 S 0.11467(16) 0.36772(17) 0.32453(11)
S6_6 S 0.03398(17) 0.36780(19) 0.43035(11)
S7_6 S 0.0362(2) 0.2842(2) 0.23631(12)
S10_6 S 0.26114(18) 0.3021(2) 0.37253(14)
S11_6 S 0.1799(2) 0.2970(3) 0.48012(13)
S12_6 S 0.18880(18) 0.2168(2) 0.28552(13)
S13_6 S 0.10569(17) 0.21487(18) 0.38877(11)
S14_6 S 0.0292(2) 0.2141(2) 0.49227(13)
S15_6 S 0.0299(2) 0.13059(19) 0.30145(12)
N3_6 N 0.3110(5) 0.3692(6) 0.4610(4)
N4_4 N 0.3868(5) 0.3487(6) 0.5009(4)
C10_6 C 0.3311(7) 0.3375(7) 0.4902(4)
H10_6 H 0.3074 0.3084 0.5029
C11_6 C 0.3589(8) 0.4035(9) 0.4516(5)
C12_6 C 0.3635(11) 0.4503(12) 0.4246(8)
H11_6 H 0.3300 0.4629 0.4101
C13_6 C 0.4177(14) 0.4772(18) 0.4199(12)
C14_6 C 0.4656(11) 0.4609(14) 0.4437(9)
C15_6 C 0.4594(9) 0.4170(9) 0.4711(7)
H12_6 H 0.4920 0.4057 0.4869
C16_6 C 0.4064(7) 0.3906(8) 0.4751(5)
C17_5 C 0.5283(12) 0.483(3) 0.430(2)
H13_5 H 0.5379 0.5208 0.4421
H14_5 H 0.5584 0.4532 0.4363
H15_5 H 0.5276 0.4884 0.4013
C18_6 C 0.427(2) 0.530(3) 0.3908(17)
H16_6 H 0.4668 0.5276 0.3798
H17_6 H 0.3974 0.5268 0.3699
H18_6 H 0.4218 0.5676 0.4044
In12_4 In 0.43832(5) 0.29980(5) 0.54408(3)
N5_4 N 0.1042(6) 0.1426(6) 0.2131(4)
In1_7 In 0.95382(5) 0.47877(5) 0.34099(3)
In4_7 In 0.93519(5) 0.34232(5) 0.40026(3)
In10_4 In 0.93832(5) 0.20020(5) 0.45592(3)
S2_7 S 0.9650(2) 0.4331(2) 0.27753(12)
S3_7 S 0.88390(18) 0.4328(2) 0.38448(13)
S8_7 S 0.95448(16) 0.28389(18) 0.33995(11)
S9_7 S 0.87750(19) 0.2882(2) 0.44732(13)
S16_7 S 0.9412(2) 0.1368(2) 0.39954(12)
N1_6 N 0.9095(5) 0.5613(6) 0.3240(4)
N2_4 N 0.8958(6) 0.6426(6) 0.2869(4)
C1_6 C 0.9255(7) 0.5921(7) 0.2934(4)
H1_6 H 0.9566 0.5792 0.2767
C2_6 C 0.8642(7) 0.5958(7) 0.3398(4)
C3_6 C 0.8267(8) 0.5858(8) 0.3729(5)
H2_6 H 0.8309 0.5511 0.3884
C4_6 C 0.7856(8) 0.6269(9) 0.3813(5)
C5_6 C 0.7754(8) 0.6768(8) 0.3573(6)
C6_6 C 0.8123(8) 0.6851(7) 0.3254(5)
H3_6 H 0.8071 0.7192 0.3095
C7_6 C 0.8567(7) 0.6444(7) 0.3165(4)
C8_6 C 0.7448(11) 0.6194(11) 0.4172(6)
H4_6 H 0.7686 0.6063 0.4394
H5_6 H 0.7258 0.6575 0.4232
H6_6 H 0.7142 0.5896 0.4116
C9_6 C 0.7285(11) 0.7216(10) 0.3679(8)
H7_6 H 0.7378 0.7388 0.3933
H8_6 H 0.7275 0.7532 0.3484
H9_6 H 0.6897 0.7019 0.3690
In11_4 In 0.91142(5) 0.69972(5) 0.23675(3)
N6_4 N 0.8868(5) 0.1513(6) 0.4991(4)
In1_8 In 0.45382(5) 0.02123(5) 0.65901(3)
In2_7 In 0.59711(5) 0.07312(5) 0.61528(3)
In3_7 In 0.51672(4) 0.15741(5) 0.70648(3)
In4_8 In 0.43519(5) 0.15768(5) 0.59974(3)
In5_7 In 0.72788(5) 0.14546(6) 0.56955(3)
In6_7 In 0.66824(4) 0.22632(5) 0.65702(3)
In7_7 In 0.58662(5) 0.22561(5) 0.55099(3)
In9_7 In 0.50810(5) 0.31028(5) 0.64220(3)
S2_8 S 0.4650(2) 0.0669(2) 0.72247(12)
S3_8 S 0.38390(18) 0.0672(2) 0.61552(13)
S4_7 S 0.6901(2) 0.0481(2) 0.58455(15)
S5_7 S 0.61467(16) 0.13228(17) 0.67547(11)
S6_7 S 0.53398(17) 0.13220(19) 0.56965(11)
S7_7 S 0.5362(2) 0.2158(2) 0.76369(12)
S8_8 S 0.45448(16) 0.21611(18) 0.66005(11)
S9_8 S 0.37750(19) 0.2118(2) 0.55268(13)
S10_7 S 0.76114(18) 0.1979(2) 0.62747(14)
S11_7 S 0.6799(2) 0.2030(3) 0.51988(13)
S12_7 S 0.68880(18) 0.2832(2) 0.71448(13)
S13_7 S 0.60569(17) 0.28513(18) 0.61123(11)
S14_7 S 0.5292(2) 0.2859(2) 0.50773(13)
S15_7 S 0.5299(2) 0.36941(19) 0.69855(12)
S16_8 S 0.4412(2) 0.3632(2) 0.60046(12)
N3_7 N 0.8110(5) 0.1308(6) 0.5390(4)
C10_7 C 0.8311(7) 0.1625(7) 0.5098(4)
H10_7 H 0.8074 0.1916 0.4971
C11_7 C 0.8589(8) 0.0965(9) 0.5484(5)
C12_7 C 0.8635(11) 0.0497(12) 0.5754(8)
H11_7 H 0.8300 0.0371 0.5899
C13_7 C 0.9177(14) 0.0228(18) 0.5801(12)
C14_7 C 0.9656(11) 0.0391(14) 0.5563(9)
C15_7 C 0.9594(9) 0.0830(9) 0.5289(7)
H12_7 H 0.9920 0.0943 0.5131
C16_7 C 0.9064(7) 0.1094(8) 0.5249(5)
S1_7 S 0.5469(2) 0.98292(19) 0.63303(14)
N1_7 N 0.4095(5) 0.9387(6) 0.6760(4)
C1_7 C 0.4255(7) 0.9079(7) 0.7066(4)
H1_7 H 0.4566 0.9208 0.7233
C2_7 C 0.3642(7) 0.9042(7) 0.6602(4)
C3_7 C 0.3267(8) 0.9142(8) 0.6271(5)
H2_7 H 0.3309 0.9489 0.6116
C4_7 C 0.2856(8) 0.8731(9) 0.6187(5)
C5_7 C 0.2754(8) 0.8232(8) 0.6427(6)
C6_7 C 0.3123(8) 0.8149(7) 0.6746(5)
H3_7 H 0.3071 0.7808 0.6905
C7_7 C 0.3567(7) 0.8556(7) 0.6835(4)
C8_7 C 0.2448(11) 0.8806(11) 0.5828(6)
H4_7 H 0.2686 0.8937 0.5606
H5_7 H 0.2258 0.8425 0.5768
H6_7 H 0.2142 0.9104 0.5884
C9_7 C 0.2285(11) 0.7784(10) 0.6321(8)
H7_7 H 0.2378 0.7612 0.6067
H8_7 H 0.2275 0.7468 0.6516
H9_7 H 0.1897 0.7981 0.6310
C18_7 C 0.927(2) 0.970(3) 0.6092(17)
H16_7 H 0.9668 0.9724 0.6202
H17_7 H 0.8974 0.9732 0.6301
H18_7 H 0.9218 0.9324 0.5956
N1_8 N 0.0905(5) 0.0613(6) 0.1760(4)
C1_8 C 0.0745(7) 0.0921(7) 0.2066(4)
H1_8 H 0.0434 0.0792 0.2233
C2_8 C 0.1358(7) 0.0958(7) 0.1602(4)
C3_8 C 0.1733(8) 0.0858(8) 0.1271(5)
H2_8 H 0.1691 0.0511 0.1116
C4_8 C 0.2144(8) 0.1269(9) 0.1187(5)
C5_8 C 0.2246(8) 0.1768(8) 0.1427(6)
C6_8 C 0.1877(8) 0.1851(7) 0.1746(5)
H3_8 H 0.1929 0.2192 0.1905
C7_8 C 0.1433(7) 0.1444(7) 0.1835(4)
C8_8 C 0.2552(11) 0.1194(11) 0.0828(6)
H4_8 H 0.2314 0.1063 0.0606
H5_8 H 0.2742 0.1575 0.0768
H6_8 H 0.2858 0.0896 0.0884
C9_8 C 0.2715(11) 0.2216(10) 0.1321(8)
H7_8 H 0.2622 0.2388 0.1067
H8_8 H 0.2725 0.2532 0.1516
H9_8 H 0.3103 0.2019 0.1310
In2_8 In 0.90289(5) 0.92688(5) 0.11528(3)
In3_8 In 0.98328(4) 0.84259(5) 0.20648(3)
In5_8 In 0.77212(5) 0.85454(6) 0.06955(3)
In6_8 In 0.83176(4) 0.77368(5) 0.15702(3)
In7_8 In 0.91338(5) 0.77439(5) 0.05099(3)
In9_8 In 0.99190(5) 0.68972(5) 0.14220(3)
S4_8 S 0.8099(2) 0.9519(2) 0.08455(15)
S5_8 S 0.88533(16) 0.86772(17) 0.17547(11)
S6_8 S 0.96602(17) 0.86780(19) 0.06965(11)
S7_8 S 0.9638(2) 0.7842(2) 0.26369(12)
S10_8 S 0.73886(18) 0.8021(2) 0.12747(14)
S11_8 S 0.8201(2) 0.7970(3) 0.01988(13)
S12_8 S 0.81120(18) 0.7168(2) 0.21448(13)
S13_8 S 0.89431(17) 0.71487(18) 0.11123(11)
S14_8 S 0.9708(2) 0.7141(2) 0.00773(13)
S15_8 S 0.9701(2) 0.63059(19) 0.19855(12)
N3_8 N 0.6890(5) 0.8692(6) 0.0390(4)
C10_8 C 0.6689(7) 0.8375(7) 0.0098(4)
C11_8 C 0.6411(8) 0.9035(9) 0.0484(5)
C12_8 C 0.6365(11) 0.9503(12) 0.0754(8)
H11_8 H 0.6700 0.9629 0.0899
C13_8 C 0.5823(14) 0.9772(18) 0.0801(12)
C14_8 C 0.5344(11) 0.9609(14) 0.0563(9)
C15_8 C 0.5406(9) 0.9170(9) 0.0289(7)
H12_8 H 0.5080 0.9057 0.0131
C16_8 C 0.5936(7) 0.8906(8) 0.0249(5)
C17_6 C 0.4717(12) 0.983(3) 0.070(2)
H14_6 H 0.4416 0.9532 0.0637
H15_6 H 0.4724 0.9884 0.0987
H10_8 H 0.6926 0.8084 0.9971
C17_7 C 0.9717(12) 0.517(3) 0.930(2)
H13_6 H 0.9621 0.4792 0.9421
H14_7 H 0.9416 0.5468 0.9363
H15_7 H 0.9724 0.5116 0.9013
C17_8 C 0.0283(12) 0.017(3) 0.570(2)
H14_8 H 0.0584 0.0468 0.5637
H15_8 H 0.0276 0.0116 0.5987
H13_7 H 0.0379 0.9792 0.5579
S1_8 S 0.9531(2) 0.01708(19) 0.13303(14)
H13_8 H 0.4621 0.0208 0.0579
C18_8 C 0.573(2) 0.030(3) 0.1092(17)
H16_8 H 0.5332 0.0276 0.1202
H17_8 H 0.6026 0.0268 0.1301
H18_8 H 0.5782 0.0676 0.0956
loop_
_geom_bond_atom_site_label_1
_geom_bond_atom_site_label_2
_geom_bond_site_symmetry_1
_geom_bond_site_symmetry_2
H13 C17 1_555 1_555
H14 C17 1_555 1_555
H15 C17 1_555 1_555
In1 S1 1_555 1_555
In2 S1 1_555 1_555
In3 S2 1_555 1_555
In4 S3 1_555 1_555
In5 S4 1_555 1_555
In6 S5 1_555 1_555
In7 S6 1_555 1_555
In8 S7 1_555 1_555
In9 S8 1_555 1_555
In10 S9 1_555 1_555
S2 In1 1_555 1_555
S3 In1 1_555 1_555
S4 In2 1_555 1_555
S5 In2 1_555 1_555
S6 In2 1_555 1_555
S7 In3 1_555 1_555
S8 In3 1_555 1_555
S9 In4 1_555 1_555
S10 In5 1_555 1_555
S11 In5 1_555 1_555
S12 In6 1_555 1_555
S13 In6 1_555 1_555
S14 In7 1_555 1_555
S15 In8 1_555 1_555
S16 In9 1_555 1_555
N1 In1 1_555 1_555
N2 C1 1_555 1_555
N3 In5 1_555 1_555
C1 N1 1_555 1_555
H1 C1 1_555 1_555
C2 N1 1_555 1_555
C3 C2 1_555 1_555
H2 C3 1_555 1_555
C4 C3 1_555 1_555
C5 C4 1_555 1_555
C6 C5 1_555 1_555
H3 C6 1_555 1_555
C7 N2 1_555 1_555
C8 C4 1_555 1_555
H4 C8 1_555 1_555
H5 C8 1_555 1_555
H6 C8 1_555 1_555
C9 C5 1_555 1_555
H7 C9 1_555 1_555
H8 C9 1_555 1_555
H9 C9 1_555 1_555
C10 N3 1_555 1_555
C11 N3 1_555 1_555
C12 C11 1_555 1_555
H11 C12 1_555 1_555
C13 C12 1_555 1_555
C14 C13 1_555 1_555
C15 C14 1_555 1_555
H12 C15 1_555 1_555
C18 C13 1_555 1_555
H16 C18 1_555 1_555
H17 C18 1_555 1_555
H18 C18 1_555 1_555
In11 N2 1_555 1_555
N5 In8 1_555 1_555
N6 In10 1_555 1_555
In3 S5 1_555 1_555
In4 S6 1_555 1_555
In4 S8 1_555 1_555
In6 S10 1_555 1_555
In7 S11 1_555 1_555
In7 S13 1_555 1_555
In8 S12 1_555 1_555
In9 S13 1_555 1_555
In9 S15 1_555 1_555
In10 S14 1_555 1_555
In10 S16 1_555 1_555
C2 C7 1_555 1_555
C6 C7 1_555 1_555
C11 C16 1_555 1_555
C15 C16 1_555 1_555
In4_2 S3_2 1_555 1_555
In10_2 S9_2 1_555 1_555
S2_2 In1_2 1_555 1_555
S3_2 In1_2 1_555 1_555
S9_2 In4_2 1_555 1_555
N1_2 In1_2 1_555 1_555
N2_2 C1_2 1_555 1_555
C1_2 N1_2 1_555 1_555
H1_2 C1_2 1_555 1_555
C2_2 N1_2 1_555 1_555
C3_2 C2_2 1_555 1_555
H2_2 C3_2 1_555 1_555
C4_2 C3_2 1_555 1_555
C5_2 C4_2 1_555 1_555
C6_2 C5_2 1_555 1_555
H3_2 C6_2 1_555 1_555
C7_2 N2_2 1_555 1_555
C8_2 C4_2 1_555 1_555
H4_2 C8_2 1_555 1_555
H5_2 C8_2 1_555 1_555
H6_2 C8_2 1_555 1_555
C9_2 C5_2 1_555 1_555
H7_2 C9_2 1_555 1_555
H8_2 C9_2 1_555 1_555
H9_2 C9_2 1_555 1_555
In11_2 N2_2 1_555 1_555
N6_2 In10_2 1_555 1_555
In4_2 S8_2 1_555 1_555
In10_2 S16_2 1_555 1_555
C2_2 C7_2 1_555 1_555
C6_2 C7_2 1_555 1_555
In2_2 S1_2 1_555 1_555
In5_2 S4_2 1_555 1_555
In6_2 S5_2 1_555 1_555
In7_2 S6_2 1_555 1_555
In8_2 S7_2 1_555 1_555
S4_2 In2_2 1_555 1_555
S5_2 In2_2 1_555 1_555
S6_2 In2_2 1_555 1_555
S7_2 In3_2 1_555 1_555
S10_2 In5_2 1_555 1_555
S11_2 In5_2 1_555 1_555
S12_2 In6_2 1_555 1_555
S13_2 In6_2 1_555 1_555
S14_2 In7_2 1_555 1_555
S15_2 In8_2 1_555 1_555
N3_2 In5_2 1_555 1_555
N4 C10_2 1_555 1_555
C10_2 N3_2 1_555 1_555
H10 C10_2 1_555 1_555
C11_2 N3_2 1_555 1_555
C12_2 C11_2 1_555 1_555
H11_2 C12_2 1_555 1_555
C13_2 C12_2 1_555 1_555
C14_2 C13_2 1_555 1_555
C15_2 C14_2 1_555 1_555
H12_2 C15_2 1_555 1_555
C16_2 N4 1_555 1_555
C17_2 C14_2 1_555 1_555
H13_2 C17_2 1_555 1_555
H14_2 C17_2 1_555 1_555
H15_2 C17_2 1_555 1_555
C18_2 C13_2 1_555 1_555
H16_2 C18_2 1_555 1_555
H17_2 C18_2 1_555 1_555
H18_2 C18_2 1_555 1_555
In12 N4 1_555 1_555
N5_2 In8_2 1_555 1_555
In3_2 S5_2 1_555 1_555
In6_2 S10_2 1_555 1_555
In7_2 S11_2 1_555 1_555
In7_2 S13_2 1_555 1_555
In8_2 S12_2 1_555 1_555
In9_2 S13_2 1_555 1_555
In9_2 S15_2 1_555 1_555
C11_2 C16_2 1_555 1_555
C15_2 C16_2 1_555 1_555
N5 C1_3 1_555 1_555
C1_3 N1_3 1_555 1_555
H1_3 C1_3 1_555 1_555
C2_3 N1_3 1_555 1_555
C3_3 C2_3 1_555 1_555
H2_3 C3_3 1_555 1_555
C4_3 C3_3 1_555 1_555
C5_3 C4_3 1_555 1_555
C6_3 C5_3 1_555 1_555
H3_3 C6_3 1_555 1_555
C7_3 N5 1_555 1_555
C8_3 C4_3 1_555 1_555
H4_3 C8_3 1_555 1_555
H5_3 C8_3 1_555 1_555
H6_3 C8_3 1_555 1_555
C9_3 C5_3 1_555 1_555
H7_3 C9_3 1_555 1_555
H8_3 C9_3 1_555 1_555
H9_3 C9_3 1_555 1_555
H16_3 C18_3 1_555 1_555
H17_3 C18_3 1_555 1_555
H18_3 C18_3 1_555 1_555
C2_3 C7_3 1_555 1_555
C6_3 C7_3 1_555 1_555
In3_3 S2_3 1_555 1_555
In4_3 S3_3 1_555 1_555
In5_3 S4_3 1_555 1_555
In6_3 S5_3 1_555 1_555
In7_3 S6_3 1_555 1_555
In11 S7_3 1_555 1_555
In9_3 S8_3 1_555 1_555
In12 S9_3 1_555 1_555
S2_3 In1_3 1_555 1_555
S3_3 In1_3 1_555 1_555
S4_3 In2_3 1_555 1_555
S5_3 In2_3 1_555 1_555
S6_3 In2_3 1_555 1_555
S7_3 In3_3 1_555 1_555
S8_3 In3_3 1_555 1_555
S9_3 In4_3 1_555 1_555
S10_3 In5_3 1_555 1_555
S11_3 In5_3 1_555 1_555
S12_3 In6_3 1_555 1_555
S13_3 In6_3 1_555 1_555
S14_3 In7_3 1_555 1_555
S15_3 In11 1_555 1_555
S16_3 In9_3 1_555 1_555
N3_3 In5_3 1_555 1_555
N6_2 C10_3 1_555 1_555
C10_3 N3_3 1_555 1_555
H10_2 C10_3 1_555 1_555
C11_3 N3_3 1_555 1_555
C12_3 C11_3 1_555 1_555
H11_3 C12_3 1_555 1_555
C13_3 C12_3 1_555 1_555
C14_3 C13_3 1_555 1_555
C15_3 C14_3 1_555 1_555
H12_3 C15_3 1_555 1_555
C16_3 N6_2 1_555 1_555
In3_3 S5_3 1_555 1_555
In4_3 S6_3 1_555 1_555
In4_3 S8_3 1_555 1_555
In6_3 S10_3 1_555 1_555
In7_3 S11_3 1_555 1_555
In7_3 S13_3 1_555 1_555
In11 S12_3 1_555 1_555
In9_3 S13_3 1_555 1_555
In9_3 S15_3 1_555 1_555
In12 S14_3 1_555 1_555
In12 S16_3 1_555 1_555
C11_3 C16_3 1_555 1_555
C15_3 C16_3 1_555 1_555
In5_4 S4_4 1_555 1_555
In6_4 S5_4 1_555 1_555
In7_4 S6_4 1_555 1_555
In11_2 S7_4 1_555 1_555
S4_4 In2_4 1_555 1_555
S5_4 In2_4 1_555 1_555
S6_4 In2_4 1_555 1_555
S7_4 In3_4 1_555 1_555
S10_4 In5_4 1_555 1_555
S11_4 In5_4 1_555 1_555
S12_4 In6_4 1_555 1_555
S13_4 In6_4 1_555 1_555
S14_4 In7_4 1_555 1_555
S15_4 In11_2 1_555 1_555
N3_4 In5_4 1_555 1_555
C10_4 N3_4 1_555 1_555
C11_4 N3_4 1_555 1_555
C12_4 C11_4 1_555 1_555
H11_4 C12_4 1_555 1_555
C13_4 C12_4 1_555 1_555
C14_4 C13_4 1_555 1_555
C15_4 C14_4 1_555 1_555
H12_4 C15_4 1_555 1_555
C17_3 C14_4 1_555 1_555
H14_3 C17_3 1_555 1_555
H15_3 C17_3 1_555 1_555
In3_4 S5_4 1_555 1_555
In6_4 S10_4 1_555 1_555
In7_4 S11_4 1_555 1_555
In7_4 S13_4 1_555 1_555
In11_2 S12_4 1_555 1_555
In9_4 S13_4 1_555 1_555
In9_4 S15_4 1_555 1_555
C11_4 C16_4 1_555 1_555
C15_4 C16_4 1_555 1_555
N5_2 C1_4 1_555 1_555
C1_4 N1_4 1_555 1_555
H1_4 C1_4 1_555 1_555
C2_4 N1_4 1_555 1_555
C3_4 C2_4 1_555 1_555
H2_4 C3_4 1_555 1_555
C4_4 C3_4 1_555 1_555
C5_4 C4_4 1_555 1_555
C6_4 C5_4 1_555 1_555
H3_4 C6_4 1_555 1_555
C7_4 N5_2 1_555 1_555
C8_4 C4_4 1_555 1_555
H4_4 C8_4 1_555 1_555
H5_4 C8_4 1_555 1_555
H6_4 C8_4 1_555 1_555
C9_4 C5_4 1_555 1_555
H7_4 C9_4 1_555 1_555
H8_4 C9_4 1_555 1_555
H9_4 C9_4 1_555 1_555
C2_4 C7_4 1_555 1_555
C6_4 C7_4 1_555 1_555
In12_2 N4_2 1_555 1_555
In4_4 S3_4 1_555 1_555
In12_2 S9_4 1_555 1_555
S2_4 In1_4 1_555 1_555
S3_4 In1_4 1_555 1_555
S9_4 In4_4 1_555 1_555
In4_4 S8_4 1_555 1_555
In12_2 S16_4 1_555 1_555
H14_4 C17_4 1_555 1_555
H15_4 C17_4 1_555 1_555
H16_4 C18_4 1_555 1_555
H17_4 C18_4 1_555 1_555
H18_4 C18_4 1_555 1_555
In12_3 N4_3 1_555 1_555
In4_5 S3_5 1_555 1_555
In12_3 S9_5 1_555 1_555
S2_5 In1_5 1_555 1_555
S3_5 In1_5 1_555 1_555
S9_5 In4_5 1_555 1_555
In4_5 S8_5 1_555 1_555
In12_3 S16_5 1_555 1_555
In1_6 S1_5 1_555 1_555
In2_5 S1_5 1_555 1_555
In3_5 S2_6 1_555 1_555
In4_6 S3_6 1_555 1_555
In5_5 S4_5 1_555 1_555
In6_5 S5_5 1_555 1_555
In7_5 S6_5 1_555 1_555
In8_3 S7_5 1_555 1_555
In9_5 S8_6 1_555 1_555
In10_3 S9_6 1_555 1_555
S2_6 In1_6 1_555 1_555
S3_6 In1_6 1_555 1_555
S4_5 In2_5 1_555 1_555
S5_5 In2_5 1_555 1_555
S6_5 In2_5 1_555 1_555
S7_5 In3_5 1_555 1_555
S8_6 In3_5 1_555 1_555
S9_6 In4_6 1_555 1_555
S10_5 In5_5 1_555 1_555
S11_5 In5_5 1_555 1_555
S12_5 In6_5 1_555 1_555
S13_5 In6_5 1_555 1_555
S14_5 In7_5 1_555 1_555
S15_5 In8_3 1_555 1_555
S16_6 In9_5 1_555 1_555
N1_5 In1_6 1_555 1_555
N2_3 C1_5 1_555 1_555
N3_5 In5_5 1_555 1_555
C1_5 N1_5 1_555 1_555
H1_5 C1_5 1_555 1_555
C2_5 N1_5 1_555 1_555
C3_5 C2_5 1_555 1_555
H2_5 C3_5 1_555 1_555
C4_5 C3_5 1_555 1_555
C5_5 C4_5 1_555 1_555
C6_5 C5_5 1_555 1_555
H3_5 C6_5 1_555 1_555
C7_5 N2_3 1_555 1_555
C8_5 C4_5 1_555 1_555
H4_5 C8_5 1_555 1_555
H5_5 C8_5 1_555 1_555
H6_5 C8_5 1_555 1_555
C9_5 C5_5 1_555 1_555
H7_5 C9_5 1_555 1_555
H8_5 C9_5 1_555 1_555
H9_5 C9_5 1_555 1_555
C10_5 N3_5 1_555 1_555
C11_5 N3_5 1_555 1_555
C12_5 C11_5 1_555 1_555
H11_5 C12_5 1_555 1_555
C13_5 C12_5 1_555 1_555
C14_5 C13_5 1_555 1_555
C15_5 C14_5 1_555 1_555
H12_5 C15_5 1_555 1_555
C18_5 C13_5 1_555 1_555
H16_5 C18_5 1_555 1_555
H17_5 C18_5 1_555 1_555
H18_5 C18_5 1_555 1_555
In11_3 N2_3 1_555 1_555
N5_3 In8_3 1_555 1_555
N6_3 In10_3 1_555 1_555
In3_5 S5_5 1_555 1_555
In4_6 S6_5 1_555 1_555
In4_6 S8_6 1_555 1_555
In6_5 S10_5 1_555 1_555
In7_5 S11_5 1_555 1_555
In7_5 S13_5 1_555 1_555
In8_3 S12_5 1_555 1_555
In9_5 S13_5 1_555 1_555
In9_5 S15_5 1_555 1_555
In10_3 S14_5 1_555 1_555
In10_3 S16_6 1_555 1_555
C2_5 C7_5 1_555 1_555
C6_5 C7_5 1_555 1_555
C11_5 C16_5 1_555 1_555
C15_5 C16_5 1_555 1_555
In2_6 S1_6 1_555 1_555
In5_6 S4_6 1_555 1_555
In6_6 S5_6 1_555 1_555
In7_6 S6_6 1_555 1_555
In8_4 S7_6 1_555 1_555
S4_6 In2_6 1_555 1_555
S5_6 In2_6 1_555 1_555
S6_6 In2_6 1_555 1_555
S7_6 In3_6 1_555 1_555
S10_6 In5_6 1_555 1_555
S11_6 In5_6 1_555 1_555
S12_6 In6_6 1_555 1_555
S13_6 In6_6 1_555 1_555
S14_6 In7_6 1_555 1_555
S15_6 In8_4 1_555 1_555
N3_6 In5_6 1_555 1_555
N4_4 C10_6 1_555 1_555
C10_6 N3_6 1_555 1_555
H10_6 C10_6 1_555 1_555
C11_6 N3_6 1_555 1_555
C12_6 C11_6 1_555 1_555
H11_6 C12_6 1_555 1_555
C13_6 C12_6 1_555 1_555
C14_6 C13_6 1_555 1_555
C15_6 C14_6 1_555 1_555
H12_6 C15_6 1_555 1_555
C16_6 N4_4 1_555 1_555
C17_5 C14_6 1_555 1_555
H13_5 C17_5 1_555 1_555
H14_5 C17_5 1_555 1_555
H15_5 C17_5 1_555 1_555
C18_6 C13_6 1_555 1_555
H16_6 C18_6 1_555 1_555
H17_6 C18_6 1_555 1_555
H18_6 C18_6 1_555 1_555
In12_4 N4_4 1_555 1_555
N5_4 In8_4 1_555 1_555
In3_6 S5_6 1_555 1_555
In6_6 S10_6 1_555 1_555
In7_6 S11_6 1_555 1_555
In7_6 S13_6 1_555 1_555
In8_4 S12_6 1_555 1_555
In9_6 S13_6 1_555 1_555
In9_6 S15_6 1_555 1_555
C11_6 C16_6 1_555 1_555
C15_6 C16_6 1_555 1_555
In4_7 S3_7 1_555 1_555
In10_4 S9_7 1_555 1_555
S2_7 In1_7 1_555 1_555
S3_7 In1_7 1_555 1_555
S9_7 In4_7 1_555 1_555
N1_6 In1_7 1_555 1_555
N2_4 C1_6 1_555 1_555
C1_6 N1_6 1_555 1_555
H1_6 C1_6 1_555 1_555
C2_6 N1_6 1_555 1_555
C3_6 C2_6 1_555 1_555
H2_6 C3_6 1_555 1_555
C4_6 C3_6 1_555 1_555
C5_6 C4_6 1_555 1_555
C6_6 C5_6 1_555 1_555
H3_6 C6_6 1_555 1_555
C7_6 N2_4 1_555 1_555
C8_6 C4_6 1_555 1_555
H4_6 C8_6 1_555 1_555
H5_6 C8_6 1_555 1_555
H6_6 C8_6 1_555 1_555
C9_6 C5_6 1_555 1_555
H7_6 C9_6 1_555 1_555
H8_6 C9_6 1_555 1_555
H9_6 C9_6 1_555 1_555
In11_4 N2_4 1_555 1_555
N6_4 In10_4 1_555 1_555
In4_7 S8_7 1_555 1_555
In10_4 S16_7 1_555 1_555
C2_6 C7_6 1_555 1_555
C6_6 C7_6 1_555 1_555
In3_7 S2_8 1_555 1_555
In4_8 S3_8 1_555 1_555
In5_7 S4_7 1_555 1_555
In6_7 S5_7 1_555 1_555
In7_7 S6_7 1_555 1_555
In11_3 S7_7 1_555 1_555
In9_7 S8_8 1_555 1_555
In12_4 S9_8 1_555 1_555
S2_8 In1_8 1_555 1_555
S3_8 In1_8 1_555 1_555
S4_7 In2_7 1_555 1_555
S5_7 In2_7 1_555 1_555
S6_7 In2_7 1_555 1_555
S7_7 In3_7 1_555 1_555
S8_8 In3_7 1_555 1_555
S9_8 In4_8 1_555 1_555
S10_7 In5_7 1_555 1_555
S11_7 In5_7 1_555 1_555
S12_7 In6_7 1_555 1_555
S13_7 In6_7 1_555 1_555
S14_7 In7_7 1_555 1_555
S15_7 In11_3 1_555 1_555
S16_8 In9_7 1_555 1_555
N3_7 In5_7 1_555 1_555
N6_4 C10_7 1_555 1_555
C10_7 N3_7 1_555 1_555
H10_7 C10_7 1_555 1_555
C11_7 N3_7 1_555 1_555
C12_7 C11_7 1_555 1_555
H11_7 C12_7 1_555 1_555
C13_7 C12_7 1_555 1_555
C14_7 C13_7 1_555 1_555
C15_7 C14_7 1_555 1_555
H12_7 C15_7 1_555 1_555
C16_7 N6_4 1_555 1_555
In3_7 S5_7 1_555 1_555
In4_8 S6_7 1_555 1_555
In4_8 S8_8 1_555 1_555
In6_7 S10_7 1_555 1_555
In7_7 S11_7 1_555 1_555
In7_7 S13_7 1_555 1_555
In11_3 S12_7 1_555 1_555
In9_7 S13_7 1_555 1_555
In9_7 S15_7 1_555 1_555
In12_4 S14_7 1_555 1_555
In12_4 S16_8 1_555 1_555
C11_7 C16_7 1_555 1_555
C15_7 C16_7 1_555 1_555
N5_3 C1_7 1_555 1_555
C1_7 N1_7 1_555 1_555
H1_7 C1_7 1_555 1_555
C2_7 N1_7 1_555 1_555
C3_7 C2_7 1_555 1_555
H2_7 C3_7 1_555 1_555
C4_7 C3_7 1_555 1_555
C5_7 C4_7 1_555 1_555
C6_7 C5_7 1_555 1_555
H3_7 C6_7 1_555 1_555
C7_7 N5_3 1_555 1_555
C8_7 C4_7 1_555 1_555
H4_7 C8_7 1_555 1_555
H5_7 C8_7 1_555 1_555
H6_7 C8_7 1_555 1_555
C9_7 C5_7 1_555 1_555
H7_7 C9_7 1_555 1_555
H8_7 C9_7 1_555 1_555
H9_7 C9_7 1_555 1_555
H16_7 C18_7 1_555 1_555
H17_7 C18_7 1_555 1_555
H18_7 C18_7 1_555 1_555
C2_7 C7_7 1_555 1_555
C6_7 C7_7 1_555 1_555
N5_4 C1_8 1_555 1_555
C1_8 N1_8 1_555 1_555
H1_8 C1_8 1_555 1_555
C2_8 N1_8 1_555 1_555
C3_8 C2_8 1_555 1_555
H2_8 C3_8 1_555 1_555
C4_8 C3_8 1_555 1_555
C5_8 C4_8 1_555 1_555
C6_8 C5_8 1_555 1_555
H3_8 C6_8 1_555 1_555
C7_8 N5_4 1_555 1_555
C8_8 C4_8 1_555 1_555
H4_8 C8_8 1_555 1_555
H5_8 C8_8 1_555 1_555
H6_8 C8_8 1_555 1_555
C9_8 C5_8 1_555 1_555
H7_8 C9_8 1_555 1_555
H8_8 C9_8 1_555 1_555
H9_8 C9_8 1_555 1_555
C2_8 C7_8 1_555 1_555
C6_8 C7_8 1_555 1_555
In5_8 S4_8 1_555 1_555
In6_8 S5_8 1_555 1_555
In7_8 S6_8 1_555 1_555
In11_4 S7_8 1_555 1_555
S4_8 In2_8 1_555 1_555
S5_8 In2_8 1_555 1_555
S6_8 In2_8 1_555 1_555
S7_8 In3_8 1_555 1_555
S10_8 In5_8 1_555 1_555
S11_8 In5_8 1_555 1_555
S12_8 In6_8 1_555 1_555
S13_8 In6_8 1_555 1_555
S14_8 In7_8 1_555 1_555
S15_8 In11_4 1_555 1_555
N3_8 In5_8 1_555 1_555
C10_8 N3_8 1_555 1_555
C11_8 N3_8 1_555 1_555
C12_8 C11_8 1_555 1_555
H11_8 C12_8 1_555 1_555
C13_8 C12_8 1_555 1_555
C14_8 C13_8 1_555 1_555
C15_8 C14_8 1_555 1_555
H12_8 C15_8 1_555 1_555
C17_6 C14_8 1_555 1_555
H14_6 C17_6 1_555 1_555
H15_6 C17_6 1_555 1_555
In3_8 S5_8 1_555 1_555
In6_8 S10_8 1_555 1_555
In7_8 S11_8 1_555 1_555
In7_8 S13_8 1_555 1_555
In11_4 S12_8 1_555 1_555
In9_8 S13_8 1_555 1_555
In9_8 S15_8 1_555 1_555
C11_8 C16_8 1_555 1_555
C15_8 C16_8 1_555 1_555
H13_6 C17_7 1_555 1_555
H14_7 C17_7 1_555 1_555
H15_7 C17_7 1_555 1_555
H14_8 C17_8 1_555 1_555
H15_8 C17_8 1_555 1_555
H16_8 C18_8 1_555 1_555
H17_8 C18_8 1_555 1_555
H18_8 C18_8 1_555 1_555

#END
